
#######################################################################
#
#                 Cambridge Crystallographic Data Centre
#                                CCDC 
#
#######################################################################
#
# If this CIF has been generated from an entry in the Cambridge 
# Structural Database, then it will include bibliographic, chemical, 
# crystal, experimental, refinement or atomic coordinate data resulting 
# from the CCDC's data processing and validation procedures.
#
#######################################################################

data_DIFXOH
_symmetry_cell_setting           triclinic
_symmetry_space_group_name_H-M   'P -1'
_symmetry_Int_Tables_number      2
_space_group_name_Hall           '-P 1'
loop_
_symmetry_equiv_pos_site_id
_symmetry_equiv_pos_as_xyz
1 x,y,z
2 -x,-y,-z
_cell_length_a                   7.2384(3)
_cell_length_b                   8.5517(3)
_cell_length_c                   12.0049(7)
_cell_angle_alpha                104.040(3)
_cell_angle_beta                 97.207(3)
_cell_angle_gamma                105.047(2)
_cell_volume                     681.966
loop_
_atom_site_label
_atom_site_type_symbol
_atom_site_fract_x
_atom_site_fract_y
_atom_site_fract_z
Zn1 Zn 0.0000 1.0000 1.0000
Zn2 Zn 0.0000 0.5000 0.5000
N1 N 0.0115(2) 0.48451(16) 0.78547(12)
N2 N 0.0263(2) 0.57663(16) 0.70955(10)
N3 N 0.0406(2) 0.75084(16) 0.87662(11)
N4 N 0.0440(2) 0.73566(16) 0.76385(11)
C1 C 0.0211(2) 0.59625(19) 0.88677(13)
N5 N 0.0129(2) 0.57418(16) 0.99968(11)
N6 N 0.0395(2) 0.92065(18) 1.15542(11)
N7 N 0.3025(2) 1.10373(19) 1.04918(13)
C2 C 0.3724(3) 1.0148(3) 1.12762(16)
C3 C 0.2432(3) 1.0007(3) 1.21634(15)
N8 N 0.3007(2) 0.62311(19) 0.52346(13)
N9 N -0.0196(2) 0.74424(18) 0.50466(14)
C4 C 0.1640(3) 0.8375(2) 0.47997(17)
C5 C 0.3317(3) 0.8057(2) 0.54964(17)
H1 H 0.345(3) 0.589(3) 0.462(2)
H2 H 0.361(3) 0.599(3) 0.5777(19)
H3 H -0.041(3) 0.943(3) 1.1948(18)
H4 H 0.006(3) 0.818(3) 1.1355(18)
H5 H 0.166(3) 0.794(3) 0.396(2)
H6 H -0.116(3) 0.746(3) 0.457(2)
H7 H 0.507(3) 1.076(3) 1.1690(19)
H8 H 0.361(3) 0.894(3) 1.077(2)
H9 H 0.348(3) 1.087(3) 0.989(2)
H10 H 0.255(3) 1.119(3) 1.266(2)
H11 H 0.286(3) 0.936(3) 1.2686(19)
H12 H -0.036(3) 0.791(3) 0.570(2)
H13 H 0.178(3) 0.955(3) 0.501(2)
H14 H 0.449(4) 0.863(3) 0.535(2)
H15 H 0.333(3) 0.851(3) 0.630(2)
H16 H 0.340(3) 1.208(3) 1.082(2)
N1A N -0.0115(2) 0.51549(16) 1.21453(12)
N2A N -0.0263(2) 0.42337(16) 1.29045(10)
N3A N -0.0406(2) 0.24916(16) 1.12338(11)
N4A N -0.0440(2) 0.26434(16) 1.23615(11)
C1A C -0.0211(2) 0.40375(19) 1.11323(13)
N5A N -0.0129(2) 0.42582(16) 1.00032(11)
N8A N -0.3007(2) 0.37689(19) 0.47654(13)
N9A N 0.0196(2) 0.25576(18) 0.49534(14)
C4A C -0.1640(3) 0.1625(2) 0.52003(17)
C5A C -0.3317(3) 0.1943(2) 0.45036(17)
H1A H -0.345(3) 0.411(3) 0.538(2)
H2A H -0.361(3) 0.401(3) 0.4223(19)
H5A H -0.166(3) 0.206(3) 0.604(2)
H6A H 0.116(3) 0.254(3) 0.543(2)
H12A H 0.036(3) 0.209(3) 0.430(2)
H13A H -0.178(3) 0.045(3) 0.499(2)
H14A H -0.449(4) 0.137(3) 0.465(2)
H15A H -0.333(3) 0.149(3) 0.370(2)
N6A N -0.0395(2) 1.07935(18) 0.84458(11)
N7A N -0.3025(2) 0.89627(19) 0.95082(13)
C2A C -0.3724(3) 0.9852(3) 0.87238(16)
C3A C -0.2432(3) 0.9993(3) 0.78366(15)
H3A H 0.041(3) 1.057(3) 0.8052(18)
H4A H -0.006(3) 1.182(3) 0.8645(18)
H7A H -0.507(3) 0.924(3) 0.8310(19)
H8A H -0.361(3) 1.106(3) 0.923(2)
H9A H -0.348(3) 0.913(3) 1.011(2)
H10A H -0.255(3) 0.881(3) 0.734(2)
H11A H -0.286(3) 1.064(3) 0.7314(19)
H16A H -0.340(3) 0.792(3) 0.918(2)
Zn1_2 Zn 0.0000 0.0000 1.0000
Zn2_2 Zn 0.0000 0.5000 1.5000
N2A_2 N -0.0263(2) 0.42337(16) 0.29045(10)
N3A_2 N -0.0406(2) 1.24916(16) 1.12338(11)
N10 N 0.4730(2) 0.48073(18) 0.20313(12)
N11 N 0.5150(2) 0.5663(2) 0.31591(12)
N12 N 0.6215(2) 0.75112(19) 0.22505(13)
N13 N 0.6040(2) 0.7274(2) 0.32970(13)
N14 N 0.5355(2) 0.57500(17) 0.03006(11)
C6 C 0.5411(2) 0.5978(2) 0.15073(13)
N10A N 0.5270(2) 0.51927(18) -0.20313(12)
N11A N 0.4850(2) 0.4337(2) -0.31591(12)
N12A N 0.3785(2) 0.24888(19) -0.22505(13)
N13A N 0.3960(2) 0.2726(2) -0.32970(13)
N14A N 0.4645(2) 0.42500(17) -0.03006(11)
C6A C 0.4589(2) 0.4022(2) -0.15073(13)
loop_
_geom_bond_atom_site_label_1
_geom_bond_atom_site_label_2
_geom_bond_site_symmetry_1
_geom_bond_site_symmetry_2
Zn1 N3 1_555 1_555
Zn2 N2 1_555 1_555
N1 N2 1_555 1_555
N2 N4 1_555 1_555
N3 N4 1_555 1_555
C1 N1 1_555 1_555
N5 C1 1_555 1_555
N6 Zn1 1_555 1_555
N7 Zn1 1_555 1_555
C2 N7 1_555 1_555
C3 N6 1_555 1_555
N8 Zn2 1_555 1_555
N9 Zn2 1_555 1_555
C4 N9 1_555 1_555
C5 N8 1_555 1_555
H1 N8 1_555 1_555
H2 N8 1_555 1_555
H3 N6 1_555 1_555
H4 N6 1_555 1_555
H5 C4 1_555 1_555
H6 N9 1_555 1_555
H7 C2 1_555 1_555
H8 C2 1_555 1_555
H9 N7 1_555 1_555
H10 C3 1_555 1_555
H11 C3 1_555 1_555
H12 N9 1_555 1_555
H13 C4 1_555 1_555
H14 C5 1_555 1_555
H15 C5 1_555 1_555
H16 N7 1_555 1_555
N10 N11 1_555 1_555
N11 N13 1_555 1_555
N12 N13 1_555 1_555
N14 C6 1_555 1_555
C6 N10 1_555 1_555
N1A N2A 1_555 1_555
N2A N4A 1_555 1_555
N3A N4A 1_555 1_555
C1A N1A 1_555 1_555
N5A N5 1_555 1_555
N8A Zn2 1_555 1_555
N9A Zn2 1_555 1_555
C4A N9A 1_555 1_555
C5A N8A 1_555 1_555
H1A N8A 1_555 1_555
H2A N8A 1_555 1_555
H5A C4A 1_555 1_555
H6A N9A 1_555 1_555
H12A N9A 1_555 1_555
H13A C4A 1_555 1_555
H14A C5A 1_555 1_555
H15A C5A 1_555 1_555
N6A Zn1 1_555 1_555
N7A Zn1 1_555 1_555
C2A N7A 1_555 1_555
C3A N6A 1_555 1_555
H3A N6A 1_555 1_555
H4A N6A 1_555 1_555
H7A C2A 1_555 1_555
H8A C2A 1_555 1_555
H9A N7A 1_555 1_555
H10A C3A 1_555 1_555
H11A C3A 1_555 1_555
H16A N7A 1_555 1_555
Zn1_2 N3A 1_555 1_555
Zn2_2 N2A 1_555 1_555
N2A_2 Zn2 1_555 1_555
N3A_2 Zn1 1_555 1_555
N10A N11A 1_555 1_555
N11A N13A 1_555 1_555
N12A N13A 1_555 1_555
N14A N14 1_555 1_555
C6A N10A 1_555 1_555
N3 C1 1_555 1_555
C2 C3 1_555 1_555
C4 C5 1_555 1_555
N12 C6 1_555 1_555
N3A C1A 1_555 1_555
C1A N5A 1_555 1_555
C4A C5A 1_555 1_555
C2A C3A 1_555 1_555
N12A C6A 1_555 1_555
N14A C6A 1_555 1_555

#END
