
#######################################################################
#
#                 Cambridge Crystallographic Data Centre
#                                CCDC 
#
#######################################################################
#
# If this CIF has been generated from an entry in the Cambridge 
# Structural Database, then it will include bibliographic, chemical, 
# crystal, experimental, refinement or atomic coordinate data resulting 
# from the CCDC's data processing and validation procedures.
#
#######################################################################

data_DIFYEY
_symmetry_cell_setting           orthorhombic
_symmetry_space_group_name_H-M   'P n m a'
_symmetry_Int_Tables_number      62
_space_group_name_Hall           '-P 2ac 2n'
loop_
_symmetry_equiv_pos_site_id
_symmetry_equiv_pos_as_xyz
1 x,y,z
2 1/2-x,-y,1/2+z
3 -x,1/2+y,-z
4 1/2+x,1/2-y,1/2-z
5 -x,-y,-z
6 1/2+x,y,1/2-z
7 x,1/2-y,z
8 1/2-x,1/2+y,1/2+z
_cell_length_a                   24.429(4)
_cell_length_b                   33.425(5)
_cell_length_c                   20.004(3)
_cell_angle_alpha                90
_cell_angle_beta                 90
_cell_angle_gamma                90
_cell_volume                     16334.1
loop_
_atom_site_label
_atom_site_type_symbol
_atom_site_fract_x
_atom_site_fract_y
_atom_site_fract_z
I1 I 0.102869(17) 0.2500 1.40591(2)
I2 I 0.020335(12) 0.108537(10) 0.915747(17)
I3 I 0.13411(3) -0.2500 0.97068(4)
I4 I 0.503941(16) -0.130460(13) 1.12610(2)
O1 O 0.20977(13) 0.08696(10) 1.14317(16)
O2 O 0.32998(13) 0.07568(10) 1.17384(15)
K1 K 0.29136(3) 0.01291(2) 1.10932(3)
K2 K 0.28779(3) 0.13454(2) 1.08145(4)
K3 K 0.24555(3) 0.09309(2) 1.27504(3)
C1 C 0.15481(12) 0.00388(9) 1.02950(13)
C2 C 0.10760(12) 0.00491(10) 0.92781(14)
H1 H 0.0741 0.0202 0.9190
C3 C 0.09496(12) -0.03461(9) 0.96428(13)
H2 H 0.0559 -0.0371 0.9744
C4 C 0.13390(11) -0.04810(9) 0.85947(14)
C5 C 0.12850(13) -0.06106(9) 1.07729(13)
H3 H 0.0929 -0.0739 1.0796
H4 H 0.1343 -0.0472 1.1193
C6 C 0.11014(13) -0.10789(9) 0.92796(14)
H5 H 0.0777 -0.1139 0.9540
H6 H 0.1065 -0.1211 0.8850
C7 C 0.22017(12) -0.08900(9) 1.10003(13)
C8 C 0.16147(13) -0.12837(9) 1.03394(13)
H7 H 0.1312 -0.1441 1.0525
C9 C 0.21725(13) -0.14986(10) 1.04270(14)
H8 H 0.2130 -0.1758 1.0651
C10 C 0.20012(13) -0.14031(9) 0.92735(14)
C11 C 0.30478(14) -0.12866(10) 1.10479(16)
H9 H 0.3103 -0.1136 1.1457
H10 H 0.3094 -0.1568 1.1154
C12 C 0.28567(13) -0.17599(9) 0.95382(17)
H11 H 0.2923 -0.1975 0.9853
H12 H 0.2798 -0.1879 0.9102
C13 C 0.37107(13) -0.07997(9) 1.05886(16)
C14 C 0.36957(13) -0.14230(10) 1.00654(17)
H13 H 0.3849 -0.1669 1.0254
C15 C 0.41447(13) -0.11600(9) 0.97535(16)
H14 H 0.4510 -0.1267 0.9846
C16 C 0.35353(13) -0.13679(9) 0.89084(15)
C17 C 0.44649(13) -0.04578(10) 1.00295(16)
H15 H 0.4817 -0.0574 0.9920
H16 H 0.4497 -0.0333 1.0466
C18 C 0.43039(13) -0.09391(9) 0.85506(17)
H17 H 0.4250 -0.1063 0.8117
H18 H 0.4693 -0.0947 0.8649
C19 C 0.40128(13) 0.01776(9) 0.96939(15)
C20 C 0.44174(13) -0.01912(10) 0.88243(16)
H19 H 0.4808 -0.0197 0.8711
C21 C 0.41417(13) 0.01840(10) 0.85458(15)
H20 H 0.4410 0.0365 0.8342
C22 C 0.37819(12) -0.03932(9) 0.80176(16)
C23 C 0.36096(13) 0.07558(9) 0.90927(15)
H21 H 0.3665 0.0889 0.9518
H22 H 0.3783 0.0917 0.8750
C24 C 0.34079(13) 0.02497(9) 0.76267(14)
H23 H 0.3332 0.0097 0.7225
H24 H 0.3593 0.0493 0.7492
C25 C 0.26669(13) 0.06809(8) 0.94649(14)
C26 C 0.27896(13) 0.07326(9) 0.83061(15)
C27 C 0.21560(13) 0.07020(8) 0.84638(14)
C28 C 0.24193(12) 0.01639(8) 0.77845(13)
C29 C 0.16710(12) 0.06455(9) 0.96152(15)
H25 H 0.1766 0.0768 1.0040
H26 H 0.1398 0.0814 0.9404
C30 C 0.14446(13) 0.01896(10) 0.80989(14)
H27 H 0.1389 0.0045 0.7685
H28 H 0.1180 0.0406 0.8112
C31 C 0.29339(17) 0.10881(11) 0.78752(19)
H29 H 0.2754 0.1064 0.7450
H30 H 0.3323 0.1097 0.7810
H31 H 0.2816 0.1329 0.8092
C32 C 0.18082(16) 0.10682(11) 0.82665(18)
H32 H 0.1927 0.1297 0.8517
H33 H 0.1430 0.1015 0.8362
H34 H 0.1851 0.1120 0.7797
C33 C 0.25576(13) 0.19253(9) 1.23359(14)
C34 C 0.27649(19) 0.2500 1.2958(2)
H35 H 0.2821 0.2500 1.3443
C35 C 0.21590(19) 0.2500 1.2787(2)
H36 H 0.1931 0.2500 1.3190
C36 C 0.15659(14) 0.19850(10) 1.21666(17)
H37 H 0.1280 0.2063 1.2477
H38 H 0.1579 0.1695 1.2156
C37 C 0.15372(13) 0.19209(9) 1.09415(15)
C38 C 0.11229(19) 0.2500 1.1364(2)
H39 H 0.0765 0.2500 1.1584
C39 C 0.1067(2) 0.2500 1.0578(2)
H40 H 0.0684 0.2500 1.0430
C40 C 0.14017(17) 0.19914(11) 0.97178(17)
H41 H 0.1084 0.2077 0.9464
H42 H 0.1405 0.1701 0.9723
C41 C 0.23638(17) 0.19137(10) 0.93577(16)
C42 C 0.1913(2) 0.2500 0.9000(2)
H43 H 0.1641 0.2500 0.8640
C43 C 0.2501(3) 0.2500 0.8724(3)
H44 H 0.2505 0.2500 0.8234
C44 C 0.32839(18) 0.19745(11) 0.88346(18)
H45 H 0.3280 0.1685 0.8875
H46 H 0.3369 0.2040 0.8374
C45 C 0.39014(15) 0.19246(10) 0.98029(18)
C46 C 0.4026(2) 0.2500 0.9139(3)
C47 C 0.4446(2) 0.2500 0.9682(3)
C48 C 0.46197(15) 0.19964(10) 1.0641(2)
H47 H 0.4995 0.2089 1.0610
H48 H 0.4626 0.1706 1.0639
C49 C 0.40153(14) 0.19190(10) 1.16437(17)
C50 C 0.4554(2) 0.2500 1.1610(3)
H49 H 0.4946 0.2500 1.1715
C51 C 0.41955(19) 0.2500 1.2248(3)
H50 H 0.4425 0.2500 1.2649
C52 C 0.35198(14) 0.19835(10) 1.27135(16)
H51 H 0.3511 0.1694 1.2682
H52 H 0.3664 0.2053 1.3150
C53 C 0.4191(3) 0.2500 0.8356(4)
C54 C 0.4990(3) 0.2500 0.9382(4)
N1 N 0.14329(10) 0.02590(7) 0.97427(11)
N2 N 0.12754(11) -0.03229(7) 1.02472(11)
N3 N 0.13323(10) -0.00823(7) 0.86593(11)
N4 N 0.11295(10) -0.06515(8) 0.91722(11)
N5 N 0.16985(11) -0.09157(8) 1.07041(12)
N6 N 0.24947(11) -0.12239(8) 1.08235(11)
N7 N 0.15657(11) -0.12356(8) 0.96145(11)
N8 N 0.23636(10) -0.15462(7) 0.97381(11)
N9 N 0.34618(11) -0.11732(8) 1.05785(13)
N10 N 0.40660(10) -0.07730(8) 1.00693(13)
N11 N 0.33356(11) -0.15074(7) 0.95099(12)
N12 N 0.40213(11) -0.11713(8) 0.90429(13)
N13 N 0.43384(11) -0.01528(8) 0.95428(13)
N14 N 0.38806(11) 0.03653(8) 0.91149(12)
N15 N 0.41294(10) -0.05173(7) 0.85097(13)
N16 N 0.37707(10) 0.00206(7) 0.80482(12)
N17 N 0.30397(10) 0.07391(7) 0.89606(12)
N18 N 0.21588(10) 0.06377(7) 0.91923(11)
N19 N 0.28877(10) 0.03563(7) 0.79442(11)
N20 N 0.19816(11) 0.03593(7) 0.80894(12)
N21 N 0.29716(11) 0.21345(7) 1.26587(12)
N22 N 0.20874(11) 0.21374(7) 1.24034(12)
N23 N 0.14286(11) 0.21331(8) 1.15015(13)
N24 N 0.13530(13) 0.21355(9) 1.03928(14)
N25 N 0.18901(14) 0.21335(9) 0.93881(14)
N26 N 0.27406(15) 0.21306(9) 0.89975(14)
N27 N 0.37073(14) 0.21347(8) 0.92643(16)
N28 N 0.43226(13) 0.21335(8) 1.00679(17)
N29 N 0.43859(12) 0.21341(8) 1.12745(16)
N30 N 0.38834(12) 0.21370(8) 1.22065(14)
O3 O 0.18187(9) 0.01441(6) 1.07736(10)
O4 O 0.23533(9) -0.06171(6) 1.13645(10)
O5 O 0.35997(9) -0.05323(7) 1.09930(11)
O6 O 0.38894(10) 0.02787(6) 1.02603(11)
O7 O 0.27753(9) 0.06694(6) 1.00626(9)
O8 O 0.14915(8) -0.06741(6) 0.81040(9)
O9 O 0.20465(9) -0.14266(6) 0.86723(9)
O10 O 0.33301(9) -0.14156(6) 0.83680(10)
O11 O 0.35339(9) -0.05965(6) 0.76300(10)
O12 O 0.23784(8) -0.01347(6) 0.74357(9)
O13 O 0.26097(9) 0.16071(6) 1.20571(10)
O14 O 0.17526(10) 0.15962(7) 1.09045(11)
O15 O 0.24400(12) 0.15892(7) 0.95971(12)
O16 O 0.37289(11) 0.16015(7) 0.99973(12)
O17 O 0.38337(9) 0.15889(7) 1.15002(11)
C33F C 0.25576(13) 0.30747(9) 1.23359(14)
C36F C 0.15659(14) 0.30150(10) 1.21666(17)
H37F H 0.1280 0.2937 1.2477
H38F H 0.1579 0.3305 1.2156
C37F C 0.15372(13) 0.30791(9) 1.09415(15)
C40F C 0.14017(17) 0.30086(11) 0.97178(17)
H41F H 0.1084 0.2923 0.9464
H42F H 0.1405 0.3299 0.9723
C41F C 0.23638(17) 0.30863(10) 0.93577(16)
C44F C 0.32839(18) 0.30255(11) 0.88346(18)
H45F H 0.3280 0.3315 0.8875
H46F H 0.3369 0.2960 0.8374
C45F C 0.39014(15) 0.30754(10) 0.98029(18)
C48F C 0.46197(15) 0.30036(10) 1.0641(2)
H47F H 0.4995 0.2911 1.0610
H48F H 0.4626 0.3294 1.0639
C49F C 0.40153(14) 0.30810(10) 1.16437(17)
C52F C 0.35198(14) 0.30165(10) 1.27135(16)
H51F H 0.3511 0.3306 1.2682
H52F H 0.3664 0.2947 1.3150
N21F N 0.29716(11) 0.28655(7) 1.26587(12)
N22F N 0.20874(11) 0.28626(7) 1.24034(12)
N23F N 0.14286(11) 0.28669(8) 1.15015(13)
N24F N 0.13530(13) 0.28645(9) 1.03928(14)
N25F N 0.18901(14) 0.28665(9) 0.93881(14)
N26F N 0.27406(15) 0.28694(9) 0.89975(14)
N27F N 0.37073(14) 0.28653(8) 0.92643(16)
N28F N 0.43226(13) 0.28665(8) 1.00679(17)
N29F N 0.43859(12) 0.28659(8) 1.12745(16)
N30F N 0.38834(12) 0.28630(8) 1.22065(14)
O13F O 0.26097(9) 0.33929(6) 1.20571(10)
O14F O 0.17526(10) 0.34038(7) 1.09045(11)
O15F O 0.24400(12) 0.34108(7) 0.95971(12)
O16F O 0.37289(11) 0.33985(7) 0.99973(12)
O17F O 0.38337(9) 0.34111(7) 1.15002(11)
O1F O 0.20977(13) 0.41304(10) 1.14317(16)
O2F O 0.32998(13) 0.42432(10) 1.17384(15)
K1F K 0.29136(3) 0.48709(2) 1.10932(3)
K2F K 0.28779(3) 0.36546(2) 1.08145(4)
K3F K 0.24555(3) 0.40691(2) 1.27504(3)
C1F C 0.15481(12) 0.49612(9) 1.02950(13)
C2F C 0.10760(12) 0.49509(10) 0.92781(14)
H1F H 0.0741 0.4798 0.9190
C3F C 0.09496(12) 0.53461(9) 0.96428(13)
H2F H 0.0559 0.5371 0.9744
C4F C 0.13390(11) 0.54810(9) 0.85947(14)
C5F C 0.12850(13) 0.56106(9) 1.07729(13)
H3F H 0.0929 0.5739 1.0796
H4F H 0.1343 0.5472 1.1193
C6F C 0.11014(13) 0.60789(9) 0.92796(14)
H5F H 0.0777 0.6139 0.9540
H6F H 0.1065 0.6211 0.8850
C7F C 0.22017(12) 0.58900(9) 1.10003(13)
C8F C 0.16147(13) 0.62837(9) 1.03394(13)
H7F H 0.1312 0.6441 1.0525
C9F C 0.21725(13) 0.64986(10) 1.04270(14)
H8F H 0.2130 0.6758 1.0651
C10F C 0.20012(13) 0.64031(9) 0.92735(14)
C11F C 0.30478(14) 0.62866(10) 1.10479(16)
H9F H 0.3103 0.6136 1.1457
H10F H 0.3094 0.6568 1.1154
C12F C 0.28567(13) 0.67599(9) 0.95382(17)
H11F H 0.2923 0.6975 0.9853
H12F H 0.2798 0.6879 0.9102
C13F C 0.37107(13) 0.57997(9) 1.05886(16)
C14F C 0.36957(13) 0.64230(10) 1.00654(17)
H13F H 0.3849 0.6669 1.0254
C15F C 0.41447(13) 0.61600(9) 0.97535(16)
H14F H 0.4510 0.6267 0.9846
C16F C 0.35353(13) 0.63679(9) 0.89084(15)
C17F C 0.44649(13) 0.54578(10) 1.00295(16)
H15F H 0.4817 0.5574 0.9920
H16F H 0.4497 0.5333 1.0466
C18F C 0.43039(13) 0.59391(9) 0.85506(17)
H17F H 0.4250 0.6063 0.8117
H18F H 0.4693 0.5947 0.8649
C19F C 0.40128(13) 0.48224(9) 0.96939(15)
C20F C 0.44174(13) 0.51912(10) 0.88243(16)
H19F H 0.4808 0.5197 0.8711
C21F C 0.41417(13) 0.48160(10) 0.85458(15)
H20F H 0.4410 0.4635 0.8342
C22F C 0.37819(12) 0.53932(9) 0.80176(16)
C23F C 0.36096(13) 0.42442(9) 0.90927(15)
H21F H 0.3665 0.4111 0.9518
H22F H 0.3783 0.4083 0.8750
C24F C 0.34079(13) 0.47503(9) 0.76267(14)
H23F H 0.3332 0.4903 0.7225
H24F H 0.3593 0.4507 0.7492
C25F C 0.26669(13) 0.43191(8) 0.94649(14)
C26F C 0.27896(13) 0.42674(9) 0.83061(15)
C27F C 0.21560(13) 0.42980(8) 0.84638(14)
C28F C 0.24193(12) 0.48361(8) 0.77845(13)
C29F C 0.16710(12) 0.43545(9) 0.96152(15)
H25F H 0.1766 0.4232 1.0040
H26F H 0.1398 0.4186 0.9404
C30F C 0.14446(13) 0.48104(10) 0.80989(14)
H27F H 0.1389 0.4955 0.7685
H28F H 0.1180 0.4594 0.8112
C31F C 0.29339(17) 0.39119(11) 0.78752(19)
H29F H 0.2754 0.3936 0.7450
H30F H 0.3323 0.3903 0.7810
H31F H 0.2816 0.3671 0.8092
C32F C 0.18082(16) 0.39318(11) 0.82665(18)
H32F H 0.1927 0.3703 0.8517
H33F H 0.1430 0.3985 0.8362
H34F H 0.1851 0.3880 0.7797
N1F N 0.14329(10) 0.47410(7) 0.97427(11)
N2F N 0.12754(11) 0.53229(7) 1.02472(11)
N3F N 0.13323(10) 0.50823(7) 0.86593(11)
N4F N 0.11295(10) 0.56515(8) 0.91722(11)
N5F N 0.16985(11) 0.59157(8) 1.07041(12)
N6F N 0.24947(11) 0.62239(8) 1.08235(11)
N7F N 0.15657(11) 0.62356(8) 0.96145(11)
N8F N 0.23636(10) 0.65462(7) 0.97381(11)
N9F N 0.34618(11) 0.61732(8) 1.05785(13)
N10F N 0.40660(10) 0.57730(8) 1.00693(13)
N11F N 0.33356(11) 0.65074(7) 0.95099(12)
N12F N 0.40213(11) 0.61713(8) 0.90429(13)
N13F N 0.43384(11) 0.51528(8) 0.95428(13)
N14F N 0.38806(11) 0.46347(8) 0.91149(12)
N15F N 0.41294(10) 0.55173(7) 0.85097(13)
N16F N 0.37707(10) 0.49794(7) 0.80482(12)
N17F N 0.30397(10) 0.42609(7) 0.89606(12)
N18F N 0.21588(10) 0.43623(7) 0.91923(11)
N19F N 0.28877(10) 0.46437(7) 0.79442(11)
N20F N 0.19816(11) 0.46407(7) 0.80894(12)
O3F O 0.18187(9) 0.48559(6) 1.07736(10)
O4F O 0.23533(9) 0.56171(6) 1.13645(10)
O5F O 0.35997(9) 0.55323(7) 1.09930(11)
O6F O 0.38894(10) 0.47213(6) 1.02603(11)
O7F O 0.27753(9) 0.43306(6) 1.00626(9)
O8F O 0.14915(8) 0.56741(6) 0.81040(9)
O9F O 0.20465(9) 0.64266(6) 0.86723(9)
O10F O 0.33301(9) 0.64156(6) 0.83680(10)
O11F O 0.35339(9) 0.55965(6) 0.76300(10)
O12F O 0.23784(8) 0.51347(6) 0.74357(9)
K1A K 0.20864(3) -0.01291(2) 0.60932(3)
K1G K 0.20864(3) 0.51291(2) 0.60932(3)
K3A K 0.25445(3) -0.09309(2) 0.77504(3)
K3G K 0.25445(3) 0.59309(2) 0.77504(3)
O8A O 0.35085(8) 0.06741(6) 1.31040(9)
O8G O 0.35085(8) 0.43259(6) 1.31040(9)
O9A O 0.29535(9) 0.14266(6) 1.36723(9)
O9G O 0.29535(9) 0.35734(6) 1.36723(9)
O10A O 0.16699(9) 0.14156(6) 1.33680(10)
O10G O 0.16699(9) 0.35844(6) 1.33680(10)
O11A O 0.14661(9) 0.05965(6) 1.26300(10)
O11G O 0.14661(9) 0.44035(6) 1.26300(10)
O12A O 0.26216(8) 0.01347(6) 1.24357(9)
O12G O 0.26216(8) 0.48653(6) 1.24357(9)
H53? H 0.5261 0.2473 0.9727
I5? I 0.10924(9) 0.2500 1.43382(19)
I6? I 0.0154(2) 0.12272(17) 0.9239(3)
I7? I 0.15548(3) -0.2500 0.97724(4)
I8? I 0.49723(6) -0.13436(6) 1.13825(7)
H54? H 0.5021 0.2280 0.9075
H55? H 0.4391 0.2739 0.8254
H56? H 0.3865 0.2490 0.8089
H57? H 0.4414 0.2271 0.8261
H58? H 0.5047 0.2747 0.9147
loop_
_geom_bond_atom_site_label_1
_geom_bond_atom_site_label_2
_geom_bond_site_symmetry_1
_geom_bond_site_symmetry_2
O1 K1 1_555 1_555
O2 K1 1_555 1_555
K1 O3 1_555 1_555
K2 O1 1_555 1_555
K3 O1 1_555 1_555
C1 N1 1_555 1_555
C2 H1 1_555 1_555
C3 C2 1_555 1_555
H2 C3 1_555 1_555
C4 N3 1_555 1_555
C5 H3 1_555 1_555
H4 C5 1_555 1_555
C6 H5 1_555 1_555
H6 C6 1_555 1_555
C7 N5 1_555 1_555
C8 H7 1_555 1_555
C9 C8 1_555 1_555
H8 C9 1_555 1_555
C10 N7 1_555 1_555
C11 H9 1_555 1_555
H10 C11 1_555 1_555
C12 H11 1_555 1_555
H12 C12 1_555 1_555
C13 N9 1_555 1_555
C14 H13 1_555 1_555
C15 C14 1_555 1_555
H14 C15 1_555 1_555
C16 N11 1_555 1_555
C17 H15 1_555 1_555
H16 C17 1_555 1_555
C18 H17 1_555 1_555
H18 C18 1_555 1_555
C19 N13 1_555 1_555
C20 H19 1_555 1_555
C21 C20 1_555 1_555
H20 C21 1_555 1_555
C22 N15 1_555 1_555
C23 H21 1_555 1_555
H22 C23 1_555 1_555
C24 H23 1_555 1_555
H24 C24 1_555 1_555
C25 N17 1_555 1_555
C26 C27 1_555 1_555
C27 C32 1_555 1_555
C28 N19 1_555 1_555
C29 H25 1_555 1_555
H26 C29 1_555 1_555
C30 H27 1_555 1_555
H28 C30 1_555 1_555
C31 C26 1_555 1_555
H29 C31 1_555 1_555
H30 C31 1_555 1_555
H31 C31 1_555 1_555
C32 H32 1_555 1_555
H33 C32 1_555 1_555
H34 C32 1_555 1_555
C33 N21 1_555 1_555
C34 H35 1_555 1_555
C35 C34 1_555 1_555
H36 C35 1_555 1_555
C36 H37 1_555 1_555
H38 C36 1_555 1_555
C37 N23 1_555 1_555
C38 H39 1_555 1_555
C39 C38 1_555 1_555
H40 C39 1_555 1_555
C40 H41 1_555 1_555
H42 C40 1_555 1_555
C41 N25 1_555 1_555
C42 H43 1_555 1_555
C43 C42 1_555 1_555
H44 C43 1_555 1_555
C44 H45 1_555 1_555
H46 C44 1_555 1_555
C45 N27 1_555 1_555
C46 C47 1_555 1_555
C47 C54 1_555 1_555
C48 H47 1_555 1_555
H48 C48 1_555 1_555
C49 N29 1_555 1_555
C50 H49 1_555 1_555
C51 C50 1_555 1_555
H50 C51 1_555 1_555
C52 H51 1_555 1_555
H52 C52 1_555 1_555
C53 C46 1_555 1_555
N1 C2 1_555 1_555
N2 C1 1_555 1_555
N3 C2 1_555 1_555
N4 C3 1_555 1_555
N5 C5 1_555 1_555
N6 C7 1_555 1_555
N7 C6 1_555 1_555
N8 C9 1_555 1_555
N9 C11 1_555 1_555
N10 C13 1_555 1_555
N11 C12 1_555 1_555
N12 C15 1_555 1_555
N13 C17 1_555 1_555
N14 C19 1_555 1_555
N15 C18 1_555 1_555
N16 C21 1_555 1_555
N17 C23 1_555 1_555
N18 C25 1_555 1_555
N19 C24 1_555 1_555
N20 C27 1_555 1_555
N21 C34 1_555 1_555
N22 C33 1_555 1_555
N23 C36 1_555 1_555
N24 C37 1_555 1_555
N25 C40 1_555 1_555
N26 C41 1_555 1_555
N27 C44 1_555 1_555
N28 C45 1_555 1_555
N29 C48 1_555 1_555
N30 C49 1_555 1_555
O3 C1 1_555 1_555
O4 K1 1_555 1_555
O5 K1 1_555 1_555
O6 K1 1_555 1_555
O7 K1 1_555 1_555
O8 C4 1_555 1_555
O9 C10 1_555 1_555
O10 C16 1_555 1_555
O11 C22 1_555 1_555
O12 C28 1_555 1_555
O13 K2 1_555 1_555
O14 K2 1_555 1_555
O15 K2 1_555 1_555
O16 K2 1_555 1_555
O17 K2 1_555 1_555
C33F N21F 1_555 1_555
C36F H37F 1_555 1_555
H38F C36F 1_555 1_555
C37F N23F 1_555 1_555
C40F H41F 1_555 1_555
H42F C40F 1_555 1_555
C41F N25F 1_555 1_555
C44F H45F 1_555 1_555
H46F C44F 1_555 1_555
C45F N27F 1_555 1_555
C48F H47F 1_555 1_555
H48F C48F 1_555 1_555
C49F N29F 1_555 1_555
C52F H51F 1_555 1_555
H52F C52F 1_555 1_555
N21F C34 1_555 1_555
N22F C35 1_555 1_555
N23F C38 1_555 1_555
N24F C39 1_555 1_555
N25F C42 1_555 1_555
N26F C43 1_555 1_555
N27F C46 1_555 1_555
N28F C47 1_555 1_555
N29F C50 1_555 1_555
N30F C51 1_555 1_555
O13F C33F 1_555 1_555
O14F C37F 1_555 1_555
O15F C41F 1_555 1_555
O16F C45F 1_555 1_555
O17F C49F 1_555 1_555
O1F K1F 1_555 1_555
O2F K1F 1_555 1_555
K1F O3F 1_555 1_555
K2F O13F 1_555 1_555
K3F O13F 1_555 1_555
C1F N1F 1_555 1_555
C2F H1F 1_555 1_555
C3F C2F 1_555 1_555
H2F C3F 1_555 1_555
C4F N3F 1_555 1_555
C5F H3F 1_555 1_555
H4F C5F 1_555 1_555
C6F H5F 1_555 1_555
H6F C6F 1_555 1_555
C7F N5F 1_555 1_555
C8F H7F 1_555 1_555
C9F C8F 1_555 1_555
H8F C9F 1_555 1_555
C10F N7F 1_555 1_555
C11F H9F 1_555 1_555
H10F C11F 1_555 1_555
C12F H11F 1_555 1_555
H12F C12F 1_555 1_555
C13F N9F 1_555 1_555
C14F H13F 1_555 1_555
C15F C14F 1_555 1_555
H14F C15F 1_555 1_555
C16F N11F 1_555 1_555
C17F H15F 1_555 1_555
H16F C17F 1_555 1_555
C18F H17F 1_555 1_555
H18F C18F 1_555 1_555
C19F N13F 1_555 1_555
C20F H19F 1_555 1_555
C21F C20F 1_555 1_555
H20F C21F 1_555 1_555
C22F N15F 1_555 1_555
C23F H21F 1_555 1_555
H22F C23F 1_555 1_555
C24F H23F 1_555 1_555
H24F C24F 1_555 1_555
C25F N17F 1_555 1_555
C26F C27F 1_555 1_555
C27F C32F 1_555 1_555
C28F N19F 1_555 1_555
C29F H25F 1_555 1_555
H26F C29F 1_555 1_555
C30F H27F 1_555 1_555
H28F C30F 1_555 1_555
C31F C26F 1_555 1_555
H29F C31F 1_555 1_555
H30F C31F 1_555 1_555
H31F C31F 1_555 1_555
C32F H32F 1_555 1_555
H33F C32F 1_555 1_555
H34F C32F 1_555 1_555
N1F C2F 1_555 1_555
N2F C1F 1_555 1_555
N3F C2F 1_555 1_555
N4F C3F 1_555 1_555
N5F C5F 1_555 1_555
N6F C7F 1_555 1_555
N7F C6F 1_555 1_555
N8F C9F 1_555 1_555
N9F C11F 1_555 1_555
N10F C13F 1_555 1_555
N11F C12F 1_555 1_555
N12F C15F 1_555 1_555
N13F C17F 1_555 1_555
N14F C19F 1_555 1_555
N15F C18F 1_555 1_555
N16F C21F 1_555 1_555
N17F C23F 1_555 1_555
N18F C25F 1_555 1_555
N19F C24F 1_555 1_555
N20F C27F 1_555 1_555
O3F C1F 1_555 1_555
O4F K1F 1_555 1_555
O5F K1F 1_555 1_555
O6F K1F 1_555 1_555
O7F K1F 1_555 1_555
O8F C4F 1_555 1_555
O9F C10F 1_555 1_555
O10F C16F 1_555 1_555
O11F C22F 1_555 1_555
O12F C28F 1_555 1_555
K1A O12 1_555 1_555
K1G O12F 1_555 1_555
K3A O8 1_555 1_555
K3G O8F 1_555 1_555
O8A K3 1_555 1_555
O8G K3F 1_555 1_555
O9A K3 1_555 1_555
O9G K3F 1_555 1_555
O10A K3 1_555 1_555
O10G K3F 1_555 1_555
O11A K3 1_555 1_555
O11G K3F 1_555 1_555
O12A K1 1_555 1_555
O12G K1F 1_555 1_555
O2 K2 1_555 1_555
O2 K3 1_555 1_555
K2 O7 1_555 1_555
K3 O13 1_555 1_555
K3 O12A 1_555 1_555
C3 N2 1_555 1_555
C4 N4 1_555 1_555
C5 N2 1_555 1_555
C6 N4 1_555 1_555
C7 O4 1_555 1_555
C8 N5 1_555 1_555
C8 N7 1_555 1_555
C9 N6 1_555 1_555
C10 N8 1_555 1_555
C11 N6 1_555 1_555
C12 N8 1_555 1_555
C13 O5 1_555 1_555
C14 N9 1_555 1_555
C14 N11 1_555 1_555
C15 N10 1_555 1_555
C16 N12 1_555 1_555
C17 N10 1_555 1_555
C18 N12 1_555 1_555
C19 O6 1_555 1_555
C20 N13 1_555 1_555
C20 N15 1_555 1_555
C21 N14 1_555 1_555
C22 N16 1_555 1_555
C23 N14 1_555 1_555
C24 N16 1_555 1_555
C25 O7 1_555 1_555
C26 N17 1_555 1_555
C26 N19 1_555 1_555
C27 N18 1_555 1_555
C28 N20 1_555 1_555
C29 N1 1_555 1_555
C29 N18 1_555 1_555
C30 N3 1_555 1_555
C30 N20 1_555 1_555
C33 O13 1_555 1_555
C35 N22 1_555 1_555
C36 N22 1_555 1_555
C37 O14 1_555 1_555
C38 N23 1_555 1_555
C39 N24 1_555 1_555
C40 N24 1_555 1_555
C41 O15 1_555 1_555
C42 N25 1_555 1_555
C43 N26 1_555 1_555
C44 N26 1_555 1_555
C45 O16 1_555 1_555
C46 N27 1_555 1_555
C47 N28 1_555 1_555
C48 N28 1_555 1_555
C49 O17 1_555 1_555
C50 N29 1_555 1_555
C51 N30 1_555 1_555
C52 N21 1_555 1_555
C52 N30 1_555 1_555
O9 K3A 1_555 1_555
O10 K3A 1_555 1_555
O11 K3A 1_555 1_555
O12 K3A 1_555 1_555
C33F N22F 1_555 1_555
C36F N22F 1_555 1_555
C36F N23F 1_555 1_555
C37F N24F 1_555 1_555
C40F N24F 1_555 1_555
C40F N25F 1_555 1_555
C41F N26F 1_555 1_555
C44F N26F 1_555 1_555
C44F N27F 1_555 1_555
C45F N28F 1_555 1_555
C48F N28F 1_555 1_555
C48F N29F 1_555 1_555
C49F N30F 1_555 1_555
C52F N21F 1_555 1_555
C52F N30F 1_555 1_555
O14F K2F 1_555 1_555
O15F K2F 1_555 1_555
O16F K2F 1_555 1_555
O17F K2F 1_555 1_555
O1F K2F 1_555 1_555
O1F K3F 1_555 1_555
O2F K2F 1_555 1_555
O2F K3F 1_555 1_555
K2F O7F 1_555 1_555
K3F O12G 1_555 1_555
C3F N2F 1_555 1_555
C4F N4F 1_555 1_555
C5F N2F 1_555 1_555
C6F N4F 1_555 1_555
C7F O4F 1_555 1_555
C8F N5F 1_555 1_555
C8F N7F 1_555 1_555
C9F N6F 1_555 1_555
C10F N8F 1_555 1_555
C11F N6F 1_555 1_555
C12F N8F 1_555 1_555
C13F O5F 1_555 1_555
C14F N9F 1_555 1_555
C14F N11F 1_555 1_555
C15F N10F 1_555 1_555
C16F N12F 1_555 1_555
C17F N10F 1_555 1_555
C18F N12F 1_555 1_555
C19F O6F 1_555 1_555
C20F N13F 1_555 1_555
C20F N15F 1_555 1_555
C21F N14F 1_555 1_555
C22F N16F 1_555 1_555
C23F N14F 1_555 1_555
C24F N16F 1_555 1_555
C25F O7F 1_555 1_555
C26F N17F 1_555 1_555
C26F N19F 1_555 1_555
C27F N18F 1_555 1_555
C28F N20F 1_555 1_555
C29F N1F 1_555 1_555
C29F N18F 1_555 1_555
C30F N3F 1_555 1_555
C30F N20F 1_555 1_555
O9F K3G 1_555 1_555
O10F K3G 1_555 1_555
O11F K3G 1_555 1_555
O12F K3G 1_555 1_555

#END
