
#######################################################################
#
#                 Cambridge Crystallographic Data Centre
#                                CCDC 
#
#######################################################################
#
# If this CIF has been generated from an entry in the Cambridge 
# Structural Database, then it will include bibliographic, chemical, 
# crystal, experimental, refinement or atomic coordinate data resulting 
# from the CCDC's data processing and validation procedures.
#
#######################################################################

data_DIFZAT
_symmetry_cell_setting           monoclinic
_symmetry_space_group_name_H-M   'C 2/c'
_symmetry_Int_Tables_number      15
_space_group_name_Hall           '-C 2yn'
loop_
_symmetry_equiv_pos_site_id
_symmetry_equiv_pos_as_xyz
1 x,y,z
2 1/2+x,1/2+y,z
3 -x,y,1/2-z
4 1/2-x,1/2+y,1/2-z
5 -x,-y,-z
6 1/2-x,1/2-y,-z
7 x,-y,1/2+z
8 1/2+x,1/2-y,1/2+z
_cell_length_a                   11.228(1)
_cell_length_b                   15.930(2)
_cell_length_c                   14.096(1)
_cell_angle_alpha                90
_cell_angle_beta                 106.20(1)
_cell_angle_gamma                90
_cell_volume                     2421.13
loop_
_atom_site_label
_atom_site_type_symbol
_atom_site_fract_x
_atom_site_fract_y
_atom_site_fract_z
U1 U 0.03923(5) 0.16136(3) -0.02404(5)
O1 O 0.0661(10) 0.2064(6) 0.0928(9)
O2 O 0.0131(10) 0.1158(6) -0.1406(8)
O3 O 0.2470(9) 0.1488(6) -0.0201(8)
O4 O 0.1263(9) 0.0419(6) 0.0626(8)
O5 O 0.1356(9) -0.0846(6) 0.0004(8)
O6 O -0.1425(9) 0.2397(6) -0.0840(8)
O7 O 0.4094(9) 0.2075(6) 0.0838(9)
C1 C -0.2175(13) 0.2593(10) -0.1668(10)
C2 C 0.1860(12) -0.0183(9) 0.0414(11)
C3 C 0.3442(13) 0.1448(8) 0.0470(11)
C4 C 0.3254(13) -0.0140(9) 0.0713(11)
C5 C 0.3952(12) 0.0599(9) 0.0836(10)
C6 C 0.5191(14) 0.0533(10) 0.1266(12)
C7 C 0.5811(13) -0.0234(10) 0.1513(13)
C8 C 0.5103(14) -0.0958(9) 0.1348(13)
C9 C 0.3868(15) -0.0916(8) 0.0955(11)
N1 N -0.2072(13) 0.2198(10) -0.2486(11)
N2 N -0.3038(13) 0.3152(9) -0.1723(13)
H1 H 0.574 0.112 0.144
H2 H 0.682 -0.026 0.183
H3 H 0.556 -0.158 0.153
H4 H 0.332 -0.150 0.082
H6 H -0.250 0.250 -0.292
H7 H -0.317 0.363 -0.125
H8 H -0.163 0.170 -0.255
H9 H -0.368 0.312 -0.231
O3D O -0.2470(9) -0.1488(6) 0.0201(8)
O4D O -0.1263(9) -0.0419(6) -0.0626(8)
O5D O -0.1356(9) 0.0846(6) -0.0004(8)
O7D O -0.4094(9) -0.2075(6) -0.0838(9)
C2D C -0.1860(12) 0.0183(9) -0.0414(11)
C3D C -0.3442(13) -0.1448(8) -0.0470(11)
C4D C -0.3254(13) 0.0140(9) -0.0713(11)
C5D C -0.3952(12) -0.0599(9) -0.0836(10)
C6D C -0.5191(14) -0.0533(10) -0.1266(12)
C7D C -0.5811(13) 0.0234(10) -0.1513(13)
C8D C -0.5103(14) 0.0958(9) -0.1348(13)
C9D C -0.3868(15) 0.0916(8) -0.0955(11)
H1D H -0.574 -0.112 -0.144
H2D H -0.682 0.026 -0.183
H3D H -0.556 0.158 -0.153
H4D H -0.332 0.150 -0.082
U1D U -0.03923(5) -0.16136(3) 0.02404(5)
O1D O -0.0661(10) -0.2064(6) -0.0928(9)
O2D O -0.0131(10) -0.1158(6) 0.1406(8)
O6D O 0.1425(9) -0.2397(6) 0.0840(8)
C1D C 0.2175(13) -0.2593(10) 0.1668(10)
N1D N 0.2072(13) -0.2198(10) 0.2486(11)
N2D N 0.3038(13) -0.3152(9) 0.1723(13)
H6D H 0.250 -0.250 0.292
H7D H 0.317 -0.363 0.125
H8D H 0.163 -0.170 0.255
H9D H 0.368 -0.312 0.231
O7E O 0.0906(9) 0.2925(6) -0.0838(9)
U1E U 0.46077(5) 0.33864(3) 0.02404(5)
U1A U -0.46077(5) -0.33864(3) -0.02404(5)
O7A O -0.0906(9) -0.2925(6) 0.0838(9)
O8 O -0.500 0.4416(11) -0.250
H5 H -0.431 0.464 -0.263
H5B H -0.569 0.464 -0.237
loop_
_geom_bond_atom_site_label_1
_geom_bond_atom_site_label_2
_geom_bond_site_symmetry_1
_geom_bond_site_symmetry_2
U1 O1 1_555 1_555
O2 U1 1_555 1_555
O3 U1 1_555 1_555
O4 U1 1_555 1_555
O5 C2 1_555 1_555
O6 U1 1_555 1_555
O7 C3 1_555 1_555
C1 O6 1_555 1_555
C2 O4 1_555 1_555
C3 O3 1_555 1_555
C4 C2 1_555 1_555
C5 C3 1_555 1_555
C6 C5 1_555 1_555
C7 C6 1_555 1_555
C8 C7 1_555 1_555
C9 C4 1_555 1_555
N1 C1 1_555 1_555
N2 C1 1_555 1_555
O8 H5 1_555 1_555
H1 C6 1_555 1_555
H2 C7 1_555 1_555
H3 C8 1_555 1_555
H4 C9 1_555 1_555
H6 N1 1_555 1_555
H7 N2 1_555 1_555
H8 N1 1_555 1_555
H9 N2 1_555 1_555
H5B O8 1_555 1_555
O3D C3D 1_555 1_555
O4D C2D 1_555 1_555
O5D U1 1_555 1_555
O7D C3D 1_555 1_555
C2D O5D 1_555 1_555
C3D C5D 1_555 1_555
C4D C2D 1_555 1_555
C5D C4D 1_555 1_555
C6D C5D 1_555 1_555
C7D C6D 1_555 1_555
C8D C7D 1_555 1_555
C9D C4D 1_555 1_555
H1D C6D 1_555 1_555
H2D C7D 1_555 1_555
H3D C8D 1_555 1_555
H4D C9D 1_555 1_555
U1D O5 1_555 1_555
O1D U1D 1_555 1_555
O2D U1D 1_555 1_555
O6D U1D 1_555 1_555
C1D O6D 1_555 1_555
N1D C1D 1_555 1_555
N2D C1D 1_555 1_555
H6D N1D 1_555 1_555
H7D N2D 1_555 1_555
H8D N1D 1_555 1_555
H9D N2D 1_555 1_555
O7E U1 1_555 1_555
U1E O7 1_555 1_555
U1A O7D 1_555 1_555
O7A U1D 1_555 1_555
C4 C5 1_555 1_555
C8 C9 1_555 1_555
O3D U1D 1_555 1_555
O4D U1D 1_555 1_555
C8D C9D 1_555 1_555

#END
