
#######################################################################
#
#                 Cambridge Crystallographic Data Centre
#                                CCDC 
#
#######################################################################
#
# If this CIF has been generated from an entry in the Cambridge 
# Structural Database, then it will include bibliographic, chemical, 
# crystal, experimental, refinement or atomic coordinate data resulting 
# from the CCDC's data processing and validation procedures.
#
#######################################################################

data_DIFZID
_symmetry_cell_setting           triclinic
_symmetry_space_group_name_H-M   'P -1'
_symmetry_Int_Tables_number      2
_space_group_name_Hall           '-P 1'
loop_
_symmetry_equiv_pos_site_id
_symmetry_equiv_pos_as_xyz
1 x,y,z
2 -x,-y,-z
_cell_length_a                   9.8094(4)
_cell_length_b                   12.6871(5)
_cell_length_c                   18.4957(8)
_cell_angle_alpha                101.737(2)
_cell_angle_beta                 99.234(2)
_cell_angle_gamma                94.285(2)
_cell_volume                     2210.74
loop_
_atom_site_label
_atom_site_type_symbol
_atom_site_fract_x
_atom_site_fract_y
_atom_site_fract_z
Ni1 Ni 0.02150(3) 0.74130(2) 0.225545(16)
Ni2 Ni -0.43833(3) 0.14800(2) 0.266083(16)
N1 N -0.07868(19) 0.59176(14) 0.16214(11)
N2 N -0.0623(2) -0.16924(14) 0.14935(11)
N3 N -0.47553(18) 0.11885(13) 0.36790(10)
N4 N -0.58455(18) 0.68538(14) 0.68351(10)
O1 O 0.10795(17) 0.66295(13) 0.30611(10)
O2 O -0.22948(15) 0.15463(11) 0.28542(9)
O3 O -0.18818(19) -0.00895(13) 0.30133(13)
O4 O -0.0169(2) 0.70590(16) 0.39578(10)
O5 O 0.18961(15) 0.71709(12) 0.17362(9)
O6 O 0.35581(18) 0.84057(14) 0.24484(11)
O7 O 0.52845(17) 0.18722(13) 0.15829(9)
O8 O 0.35487(16) 0.15659(13) 0.21492(9)
C1 C -0.1492(2) 0.08691(17) 0.30026(12)
C2 C 0.0049(2) 0.12345(18) 0.31669(15)
H1 H 0.0486 0.0901 0.3559
H2 H 0.0431 0.0972 0.2720
C3 C 0.0425(2) 0.24446(17) 0.34093(13)
C4 C 0.0634(3) 0.3077(2) 0.29001(14)
H3 H 0.0541 0.2750 0.2394
C5 C 0.0978(3) 0.41801(19) 0.31293(14)
H4 H 0.1101 0.4585 0.2774
C6 C 0.1145(2) 0.46993(17) 0.38757(12)
C7 C 0.0932(3) 0.40766(18) 0.43846(13)
H5 H 0.1027 0.4406 0.4890
C8 C 0.0580(3) 0.29694(18) 0.41551(14)
H6 H 0.0445 0.2568 0.4511
C9 C 0.1602(2) 0.59155(18) 0.41459(14)
H7 H 0.1496 0.6138 0.4666
H8 H 0.2579 0.6051 0.4125
C10 C 0.0785(2) 0.65991(18) 0.36876(14)
C11 C -0.0155(3) 0.5285(2) 0.11347(15)
H9 H 0.0701 0.5558 0.1054
C12 C -0.0692(3) 0.4270(2) 0.07519(15)
H10 H -0.0205 0.3873 0.0419
C13 C -0.1952(2) 0.38246(17) 0.08545(13)
C14 C -0.2614(2) 0.44650(19) 0.13543(14)
H11 H -0.3471 0.4209 0.1443
C15 C -0.1999(2) 0.54857(19) 0.17203(14)
H12 H -0.2463 0.5899 0.2058
C16 C -0.2546(3) 0.26937(17) 0.04516(14)
H13 H -0.2418 0.2579 -0.0067
H14 H -0.3536 0.2607 0.0454
C17 C -0.1854(3) 0.18462(18) 0.08181(13)
H15 H -0.0862 0.1943 0.0825
H16 H -0.1997 0.1955 0.1334
C18 C -0.2426(3) 0.07039(18) 0.04087(14)
H17 H -0.3422 0.0615 0.0392
H18 H -0.2267 0.0594 -0.0104
C19 C -0.1781(2) -0.01486(17) 0.07697(12)
C20 C -0.0374(3) -0.0172(2) 0.09386(16)
H19 H 0.0220 0.0334 0.0806
C21 C -0.2603(2) -0.09389(19) 0.09609(13)
H20 H -0.3566 -0.0968 0.0855
C22 C -0.1983(2) -0.16865(19) 0.13116(13)
H21 H -0.2557 -0.2221 0.1428
C23 C 0.0175(3) -0.0933(2) 0.13009(15)
H22 H 0.1136 -0.0917 0.1416
C24 C 0.3139(2) 0.75613(17) 0.19523(13)
C25 C 0.4213(2) 0.69566(18) 0.15806(14)
H23 H 0.4276 0.7183 0.1115
H24 H 0.5113 0.7157 0.1907
C26 C 0.3888(2) 0.57420(18) 0.14124(12)
C27 C 0.3802(3) 0.5107(2) 0.07053(13)
H25 H 0.3936 0.5432 0.0311
C28 C 0.3660(3) 0.52247(19) 0.19794(13)
H26 H 0.3696 0.5635 0.2461
C29 C -0.3797(2) 0.14484(19) 0.43049(14)
H27 H -0.2871 0.1577 0.4261
C30 C -0.4107(2) 0.15353(18) 0.50077(13)
H28 H -0.3399 0.1715 0.5426
C31 C -0.5478(2) 0.13558(16) 0.50993(12)
C32 C -0.6452(2) 0.10387(18) 0.44489(13)
H29 H -0.7380 0.0875 0.4477
C33 C -0.6067(2) 0.09615(18) 0.37555(13)
H30 H -0.6747 0.0743 0.3326
C34 C -0.5872(3) 0.15707(17) 0.58605(12)
H31 H -0.5325 0.1175 0.6177
H32 H -0.6844 0.1310 0.5815
C35 C -0.5636(2) 0.27807(17) 0.62308(12)
H33 H -0.5940 0.2889 0.6712
H34 H -0.4649 0.3022 0.6323
C36 C -0.6412(3) 0.34666(17) 0.57508(13)
H35 H -0.6090 0.3372 0.5275
H36 H -0.7395 0.3211 0.5647
C37 C -0.6953(2) 0.62033(17) 0.68682(13)
H37 H -0.7615 0.6495 0.7134
C38 C -0.7166(2) 0.51183(18) 0.65268(13)
H38 H -0.7953 0.4697 0.6570
C39 C -0.6216(2) 0.46533(17) 0.61203(12)
C40 C -0.5076(2) 0.53277(18) 0.60864(13)
H39 H -0.4405 0.5053 0.5820
C41 C -0.4916(2) 0.64081(18) 0.64429(14)
H40 H -0.4133 0.6844 0.6410
C42 C 0.4017(3) 0.18583(18) 0.16167(14)
C43 C 0.3051(3) 0.2257(2) 0.10308(14)
H41 H 0.3192 0.1914 0.0534
H42 H 0.2094 0.2060 0.1068
C44 C 0.3321(2) 0.34739(19) 0.11423(13)
C45 C 0.3519(3) 0.3983(2) 0.05704(13)
H43 H 0.3463 0.3571 0.0087
C46 C 0.3381(3) 0.41203(19) 0.18467(13)
H44 H 0.3228 0.3799 0.2240
O9 O -0.14685(15) 0.77425(12) 0.28105(9)
H45 H -0.1556 0.8397 0.2916
H46 H -0.1137 0.7532 0.3272
O10 O 0.12790(17) 0.88700(12) 0.29360(9)
H47 H 0.2124 0.8940 0.2937
H48 H 0.1388 0.8978 0.3426
O11 O -0.44773(17) -0.01720(12) 0.21983(9)
H49 H -0.5187 -0.0593 0.2286
H50 H -0.3583 -0.0280 0.2486
Ni1_2 Ni 0.02150(3) -0.25870(2) 0.225545(16)
Ni2_2 Ni 0.56167(3) 0.14800(2) 0.266083(16)
Ni2A Ni -0.56167(3) 0.85200(2) 0.733917(16)
N2_2 N -0.0623(2) 0.83076(14) 0.14935(11)
N4A N -0.41545(18) 0.31462(14) 0.31649(10)
O7_2 O -0.47155(17) 0.18722(13) 0.15829(9)
O8_2 O -0.64513(16) 0.15659(13) 0.21492(9)
O12 O 0.0552(4) 0.9257(3) 0.44254(17)
H51 H 0.0900 0.9426 0.5023
H52 H -0.0215 0.9389 0.4392
loop_
_geom_bond_atom_site_label_1
_geom_bond_atom_site_label_2
_geom_bond_site_symmetry_1
_geom_bond_site_symmetry_2
Ni1 N1 1_555 1_555
Ni2 N3 1_555 1_555
N1 C11 1_555 1_555
N2 C22 1_555 1_555
N3 C29 1_555 1_555
N4 C37 1_555 1_555
O1 Ni1 1_555 1_555
O2 Ni2 1_555 1_555
O3 C1 1_555 1_555
O4 C10 1_555 1_555
O5 Ni1 1_555 1_555
O6 C24 1_555 1_555
O7 C42 1_555 1_555
O8 C42 1_555 1_555
C1 O2 1_555 1_555
C2 C1 1_555 1_555
H1 C2 1_555 1_555
H2 C2 1_555 1_555
C3 C2 1_555 1_555
C4 C3 1_555 1_555
H3 C4 1_555 1_555
C5 C4 1_555 1_555
H4 C5 1_555 1_555
C6 C5 1_555 1_555
C7 C6 1_555 1_555
H5 C7 1_555 1_555
C8 C3 1_555 1_555
H6 C8 1_555 1_555
C9 C6 1_555 1_555
H7 C9 1_555 1_555
H8 C9 1_555 1_555
C10 O1 1_555 1_555
C11 H9 1_555 1_555
C12 C11 1_555 1_555
H10 C12 1_555 1_555
C13 C12 1_555 1_555
C14 C13 1_555 1_555
H11 C14 1_555 1_555
C15 N1 1_555 1_555
H12 C15 1_555 1_555
C16 C13 1_555 1_555
H13 C16 1_555 1_555
H14 C16 1_555 1_555
C17 C16 1_555 1_555
H15 C17 1_555 1_555
H16 C17 1_555 1_555
C18 C17 1_555 1_555
H17 C18 1_555 1_555
H18 C18 1_555 1_555
C19 C18 1_555 1_555
C20 C19 1_555 1_555
H19 C20 1_555 1_555
C21 C19 1_555 1_555
H20 C21 1_555 1_555
C22 C21 1_555 1_555
H21 C22 1_555 1_555
C23 N2 1_555 1_555
H22 C23 1_555 1_555
C24 O5 1_555 1_555
C25 C24 1_555 1_555
H23 C25 1_555 1_555
H24 C25 1_555 1_555
C26 C25 1_555 1_555
C27 C26 1_555 1_555
H25 C27 1_555 1_555
C28 C26 1_555 1_555
H26 C28 1_555 1_555
C29 H27 1_555 1_555
C30 C29 1_555 1_555
H28 C30 1_555 1_555
C31 C30 1_555 1_555
C32 C31 1_555 1_555
H29 C32 1_555 1_555
C33 N3 1_555 1_555
H30 C33 1_555 1_555
C34 C31 1_555 1_555
H31 C34 1_555 1_555
H32 C34 1_555 1_555
C35 C34 1_555 1_555
H33 C35 1_555 1_555
H34 C35 1_555 1_555
C36 C35 1_555 1_555
H35 C36 1_555 1_555
H36 C36 1_555 1_555
C37 H37 1_555 1_555
C38 C37 1_555 1_555
H38 C38 1_555 1_555
C39 C36 1_555 1_555
C40 C39 1_555 1_555
H39 C40 1_555 1_555
C41 N4 1_555 1_555
H40 C41 1_555 1_555
C42 C43 1_555 1_555
C43 H41 1_555 1_555
H42 C43 1_555 1_555
C44 C43 1_555 1_555
C45 C27 1_555 1_555
H43 C45 1_555 1_555
C46 C28 1_555 1_555
H44 C46 1_555 1_555
O9 Ni1 1_555 1_555
H45 O9 1_555 1_555
H46 O9 1_555 1_555
O10 Ni1 1_555 1_555
H47 O10 1_555 1_555
H48 O10 1_555 1_555
O11 Ni2 1_555 1_555
H49 O11 1_555 1_555
H50 O11 1_555 1_555
O12 H51 1_555 1_555
H52 O12 1_555 1_555
Ni1_2 N2 1_555 1_555
Ni2_2 O7 1_555 1_555
Ni2A N4 1_555 1_555
N2_2 Ni1 1_555 1_555
N4A Ni2 1_555 1_555
O7_2 Ni2 1_555 1_555
O8_2 Ni2 1_555 1_555
O8 Ni2_2 1_555 1_555
C7 C8 1_555 1_555
C9 C10 1_555 1_555
C14 C15 1_555 1_555
C20 C23 1_555 1_555
C32 C33 1_555 1_555
C38 C39 1_555 1_555
C40 C41 1_555 1_555
C44 C45 1_555 1_555
C44 C46 1_555 1_555

#END
