
#######################################################################
#
#                 Cambridge Crystallographic Data Centre
#                                CCDC 
#
#######################################################################
#
# If this CIF has been generated from an entry in the Cambridge 
# Structural Database, then it will include bibliographic, chemical, 
# crystal, experimental, refinement or atomic coordinate data resulting 
# from the CCDC's data processing and validation procedures.
#
#######################################################################

data_DIGBAY
_symmetry_cell_setting           monoclinic
_symmetry_space_group_name_H-M   'C 2/c'
_symmetry_Int_Tables_number      15
_space_group_name_Hall           '-C 2yn'
loop_
_symmetry_equiv_pos_site_id
_symmetry_equiv_pos_as_xyz
1 x,y,z
2 -x,y,1/2-z
3 1/2+x,1/2+y,z
4 1/2-x,1/2+y,1/2-z
5 -x,-y,-z
6 x,-y,1/2+z
7 1/2-x,1/2-y,-z
8 1/2+x,1/2-y,1/2+z
_cell_length_a                   28.7634(9)
_cell_length_b                   10.9285(4)
_cell_length_c                   36.7669(12)
_cell_angle_alpha                90
_cell_angle_beta                 100.627(2)
_cell_angle_gamma                90
_cell_volume                     11359.1
loop_
_atom_site_label
_atom_site_type_symbol
_atom_site_fract_x
_atom_site_fract_y
_atom_site_fract_z
Co1 Co 0.36618(2) 0.64154(6) 0.115267(18)
Co2 Co 0.48116(2) 0.79082(7) 0.12248(2)
O1 O 0.39475(11) 0.5839(3) 0.07071(10)
O2 O 0.36327(12) 0.8254(3) 0.10063(12)
O3 O 0.33205(13) 0.6815(4) 0.15892(11)
O4 O 0.43152(12) 0.9240(4) 0.10622(11)
O5 O 0.43502(11) 0.6796(3) 0.14984(9)
H1 H 0.4487 0.6120 0.1562
H2 H 0.4308 0.7160 0.1694
O6 O 0.53506(13) 0.6623(4) 0.13874(13)
O7 O 0.45904(14) 0.6998(4) 0.07355(11)
O8 O 0.2808(2) 0.9073(7) 0.32458(18)
O9 O 0.3496(3) 0.9092(11) 0.3148(2)
O10 O 0.5122(2) 0.6380(7) -0.07974(19)
O11 O 0.5277(3) 0.7595(7) -0.0337(2)
O12 O 0.2188(3) 1.2377(8) 0.0478(3)
O13 O 0.50223(15) 0.5158(5) 0.16535(16)
O14 O 0.39031(15) 0.7442(5) 0.20231(13)
O15 O 0.7380(3) 0.4561(8) 0.1433(3)
O16 O 0.7063(3) 0.6275(9) 0.1468(3)
O17 O 0.2165(2) 1.0479(8) 0.0582(3)
N1 N 0.36399(14) 0.4551(4) 0.13277(12)
N2 N 0.02985(15) 0.3819(5) 0.09350(13)
N3 N 0.49092(14) -0.1020(4) 0.32961(12)
N4 N 0.29703(14) 0.6379(4) 0.08036(12)
N5 N 0.2375(3) 1.1396(8) 0.0558(2)
N6 N 0.5059(3) 0.6750(8) -0.0503(2)
N7 N 0.7041(3) 0.5187(11) 0.1454(3)
N8 N 0.3100(3) 0.8820(8) 0.30604(18)
C1 C 0.34879(19) 0.7193(5) 0.19060(16)
C2 C 0.38760(17) 0.9169(5) 0.09781(14)
C3 C 0.43284(17) 0.5896(5) 0.01932(15)
C4 C 0.21334(18) 0.6701(5) 0.02927(16)
C5 C 0.42858(18) 0.6270(5) 0.05803(15)
C6 C 0.28812(17) 0.5758(5) 0.04931(15)
H3 H 0.3106 0.5202 0.0444
C7 C 0.24698(19) 0.5891(6) 0.02373(16)
H4 H 0.2422 0.5418 0.0023
C8 C 0.3611(2) 0.2190(5) 0.16284(16)
C9 C 0.36180(19) 1.0291(5) 0.08215(14)
C10 C 0.31279(19) 1.0336(5) 0.07627(17)
H5 H 0.2956 0.9663 0.0818
C11 C 0.4667(2) 0.6460(5) 0.00304(17)
H6 H 0.4868 0.7052 0.0155
C12 C 0.3213(2) 0.2918(6) 0.15474(16)
H7 H 0.2924 0.2628 0.1589
C13 C 0.3281(2) 0.7921(6) 0.24972(16)
H8 H 0.3594 0.8158 0.2576
C14 C 0.0964(2) 0.4567(7) 0.0515(2)
C15 C 0.4031(2) 0.5026(6) -0.00046(16)
H9 H 0.3796 0.4667 0.0103
C16 C 0.4506(2) -0.0928(7) 0.26654(17)
H10 H 0.4391 -0.1347 0.2447
C17 C 0.5348(2) 0.5619(7) 0.1522(2)
C18 C 0.3143(2) 0.7357(6) 0.21644(17)
C19 C 0.22299(19) 0.7362(6) 0.06161(19)
H11 H 0.2013 0.7935 0.0669
C20 C 0.4729(2) -0.1548(6) 0.29702(17)
H12 H 0.4759 -0.2392 0.2951
C21 C 0.4020(2) 0.3839(5) 0.13961(16)
H13 H 0.4302 0.4128 0.1339
C22 C 0.26473(18) 0.7176(5) 0.08614(17)
H14 H 0.2704 0.7635 0.1078
C23 C 0.3858(2) 1.1308(6) 0.07330(18)
H15 H 0.4186 1.1298 0.0773
C24 C 0.6212(2) 0.5384(7) 0.1490(2)
H16 H 0.6247 0.6229 0.1509
C25 C 0.2952(2) 0.8132(8) 0.27121(18)
C26 C 0.32454(18) 0.4071(5) 0.14053(16)
H17 H 0.2973 0.4547 0.1361
C27 C 0.4453(2) 0.0307(7) 0.26822(19)
C28 C 0.16776(19) 0.6841(6) 0.00299(17)
H18 H 0.1701 0.6449 -0.0203
H19 H 0.1615 0.7704 -0.0018
C29 C 0.4698(2) 0.6106(7) -0.03304(19)
C30 C 0.5781(2) 0.4811(7) 0.1496(2)
C31 C 0.2898(2) 1.1382(6) 0.06219(19)
C32 C 0.0482(2) 0.4724(9) 0.0396(2)
H20 H 0.0371 0.5085 0.0168
C33 C 0.0165(2) 0.4353(8) 0.0613(2)
H21 H -0.0156 0.4486 0.0527
C34 C 0.4857(2) 0.0169(6) 0.33103(18)
H22 H 0.4977 0.0570 0.3531
C35 C 0.3586(3) 0.0921(6) 0.17755(17)
H23 H 0.3258 0.0659 0.1725
H24 H 0.3760 0.0382 0.1640
C36 C 0.3621(3) 1.2324(7) 0.0589(2)
H25 H 0.3789 1.2996 0.0527
C37 C 0.1265(2) 0.6270(6) 0.0186(2)
H26 H 0.1229 0.6715 0.0407
H27 H 0.0976 0.6382 0.0006
C38 C 0.4015(2) 0.2689(6) 0.15489(18)
H28 H 0.4294 0.2241 0.1599
C39 C 0.0768(2) 0.3749(7) 0.1059(2)
H29 H 0.0873 0.3416 0.1292
C40 C 0.1317(2) 0.4980(7) 0.0276(2)
H30 H 0.1636 0.4826 0.0407
H31 H 0.1268 0.4506 0.0049
C41 C 0.1096(2) 0.4130(8) 0.0866(2)
H32 H 0.1414 0.4094 0.0973
C42 C 0.3129(3) 1.2371(7) 0.0532(2)
H33 H 0.2965 1.3067 0.0435
C43 C 0.2501(3) 0.7766(12) 0.2621(2)
H34 H 0.2287 0.7939 0.2775
C44 C 0.3772(3) 0.0754(9) 0.2180(2)
H35 H 0.3568 0.1227 0.2309
H36 H 0.3722 -0.0099 0.2235
C45 C 0.4632(2) 0.0857(7) 0.3014(2)
H37 H 0.4603 0.1699 0.3039
C46 C 0.4079(3) 0.4685(8) -0.0356(2)
H38 H 0.3881 0.4092 -0.0483
C47 C 0.2684(3) 0.6980(10) 0.2063(2)
H39 H 0.2586 0.6613 0.1834
C48 C 0.5745(3) 0.3531(8) 0.1475(2)
H40 H 0.5453 0.3169 0.1477
C49 C 0.2358(3) 0.7135(13) 0.2298(3)
H41 H 0.2053 0.6819 0.2237
C50 C 0.4418(3) 0.5221(8) -0.05183(19)
H42 H 0.4457 0.4985 -0.0754
C51 C 0.6593(3) 0.4608(10) 0.1455(3)
C52 C 0.6128(4) 0.2786(10) 0.1450(3)
H43 H 0.6098 0.1938 0.1444
C53 C 0.4258(3) 0.1043(9) 0.2357(3)
H44 H 0.4271 0.1897 0.2430
H45 H 0.4460 0.0946 0.2175
C54 C 0.6560(4) 0.3344(10) 0.1435(3)
H46 H 0.6823 0.2873 0.1413
Co2A Co 0.51884(2) -0.20918(7) 0.37752(2)
Co2B Co -0.01884(2) 0.29082(7) 0.12248(2)
N2B N 0.52985(15) 0.8819(5) 0.09350(13)
N3A N 0.50908(14) 0.8980(4) 0.17039(12)
O18 O 0.5204(11) 0.3872(17) 0.2344(5)
H47 H 0.5102 0.4337 0.2161
H48 H 0.5201 0.3153 0.2255
O19 O 0.3934(16) 0.459(2) 0.2499(6)
H49 H 0.3800 0.4833 0.2286
H50 H 0.3797 0.4489 0.2683
loop_
_geom_bond_atom_site_label_1
_geom_bond_atom_site_label_2
_geom_bond_site_symmetry_1
_geom_bond_site_symmetry_2
Co1 O1 1_555 1_555
Co2 O4 1_555 1_555
O1 C5 1_555 1_555
O2 Co1 1_555 1_555
O3 Co1 1_555 1_555
O4 C2 1_555 1_555
O5 Co1 1_555 1_555
H1 O5 1_555 1_555
H2 O5 1_555 1_555
O6 Co2 1_555 1_555
O7 Co2 1_555 1_555
O8 N8 1_555 1_555
O9 N8 1_555 1_555
O10 N6 1_555 1_555
O11 N6 1_555 1_555
O12 N5 1_555 1_555
O13 C17 1_555 1_555
O14 C1 1_555 1_555
O15 N7 1_555 1_555
O16 N7 1_555 1_555
O17 N5 1_555 1_555
N1 Co1 1_555 1_555
N2 C33 1_555 1_555
N3 C20 1_555 1_555
N4 Co1 1_555 1_555
N5 C31 1_555 1_555
N6 C29 1_555 1_555
N7 C51 1_555 1_555
N8 C25 1_555 1_555
C1 O3 1_555 1_555
C2 O2 1_555 1_555
C3 C5 1_555 1_555
C4 C7 1_555 1_555
C5 O7 1_555 1_555
C6 N4 1_555 1_555
H3 C6 1_555 1_555
C7 C6 1_555 1_555
H4 C7 1_555 1_555
C8 C12 1_555 1_555
C9 C2 1_555 1_555
C10 C9 1_555 1_555
H5 C10 1_555 1_555
C11 C3 1_555 1_555
H6 C11 1_555 1_555
C12 H7 1_555 1_555
C13 H8 1_555 1_555
C14 C32 1_555 1_555
C15 C3 1_555 1_555
H9 C15 1_555 1_555
C16 H10 1_555 1_555
C17 O6 1_555 1_555
C18 C1 1_555 1_555
C19 C4 1_555 1_555
H11 C19 1_555 1_555
C20 C16 1_555 1_555
H12 C20 1_555 1_555
C21 N1 1_555 1_555
H13 C21 1_555 1_555
C22 N4 1_555 1_555
H14 C22 1_555 1_555
C23 C9 1_555 1_555
H15 C23 1_555 1_555
C24 H16 1_555 1_555
C25 C13 1_555 1_555
C26 N1 1_555 1_555
H17 C26 1_555 1_555
C27 C16 1_555 1_555
C28 C4 1_555 1_555
H18 C28 1_555 1_555
H19 C28 1_555 1_555
C29 C11 1_555 1_555
C30 C17 1_555 1_555
C31 C10 1_555 1_555
C32 H20 1_555 1_555
C33 C32 1_555 1_555
H21 C33 1_555 1_555
C34 N3 1_555 1_555
H22 C34 1_555 1_555
C35 C8 1_555 1_555
H23 C35 1_555 1_555
H24 C35 1_555 1_555
C36 C23 1_555 1_555
H25 C36 1_555 1_555
C37 C28 1_555 1_555
H26 C37 1_555 1_555
H27 C37 1_555 1_555
C38 C8 1_555 1_555
H28 C38 1_555 1_555
C39 N2 1_555 1_555
H29 C39 1_555 1_555
C40 C14 1_555 1_555
H30 C40 1_555 1_555
H31 C40 1_555 1_555
C41 C14 1_555 1_555
H32 C41 1_555 1_555
C42 C31 1_555 1_555
H33 C42 1_555 1_555
C43 C25 1_555 1_555
H34 C43 1_555 1_555
C44 C35 1_555 1_555
H35 C44 1_555 1_555
H36 C44 1_555 1_555
C45 C27 1_555 1_555
H37 C45 1_555 1_555
C46 C15 1_555 1_555
H38 C46 1_555 1_555
C47 C18 1_555 1_555
H39 C47 1_555 1_555
C48 C30 1_555 1_555
H40 C48 1_555 1_555
C49 C43 1_555 1_555
H41 C49 1_555 1_555
C50 C29 1_555 1_555
H42 C50 1_555 1_555
C51 C24 1_555 1_555
C52 C48 1_555 1_555
H43 C52 1_555 1_555
C53 C27 1_555 1_555
H44 C53 1_555 1_555
H45 C53 1_555 1_555
C54 C51 1_555 1_555
H46 C54 1_555 1_555
O18 H47 1_555 1_555
H48 O18 1_555 1_555
O19 H49 1_555 1_555
H50 O19 1_555 1_555
Co2A N3 1_555 1_555
Co2B N2 1_555 1_555
N2B Co2 1_555 1_555
N3A Co2 1_555 1_555
Co2 O5 1_555 1_555
C12 C26 1_555 1_555
C13 C18 1_555 1_555
C19 C22 1_555 1_555
C21 C38 1_555 1_555
C24 C30 1_555 1_555
C34 C45 1_555 1_555
C36 C42 1_555 1_555
C37 C40 1_555 1_555
C39 C41 1_555 1_555
C44 C53 1_555 1_555
C46 C50 1_555 1_555
C47 C49 1_555 1_555
C52 C54 1_555 1_555

#END
