
#######################################################################
#
#                 Cambridge Crystallographic Data Centre
#                                CCDC 
#
#######################################################################
#
# If this CIF has been generated from an entry in the Cambridge 
# Structural Database, then it will include bibliographic, chemical, 
# crystal, experimental, refinement or atomic coordinate data resulting 
# from the CCDC's data processing and validation procedures.
#
#######################################################################

data_DIGFIK
_symmetry_cell_setting           monoclinic
_symmetry_space_group_name_H-M   'P 21/c'
_symmetry_Int_Tables_number      14
_space_group_name_Hall           '-P 2ybc'
loop_
_symmetry_equiv_pos_site_id
_symmetry_equiv_pos_as_xyz
1 x,y,z
2 -x,1/2+y,1/2-z
3 -x,-y,-z
4 x,1/2-y,1/2+z
_cell_length_a                   17.3635(15)
_cell_length_b                   7.4554(7)
_cell_length_c                   9.6202(10)
_cell_angle_alpha                90
_cell_angle_beta                 96.372(7)
_cell_angle_gamma                90
_cell_volume                     1237.66
loop_
_atom_site_label
_atom_site_type_symbol
_atom_site_fract_x
_atom_site_fract_y
_atom_site_fract_z
Co1 Co 0.09702(3) 0.50967(7) 0.22033(6)
O1 O 0.21584(16) 0.5660(4) 0.2135(3)
O2 O 0.06682(16) 0.7255(4) 0.0769(3)
H1 H 0.0253(13) 0.704(6) 0.025(4)
H2 H 0.0976(16) 0.751(6) 0.017(3)
O3 O 0.15275(16) 0.7061(4) 0.3629(3)
O4 O -0.01545(17) 0.5180(4) 0.2620(4)
H3 H -0.048(2) 0.595(4) 0.241(5)
H4 H -0.031(2) 0.452(5) 0.319(4)
O5 O 0.91986(15) 0.8388(4) 0.4463(3)
O6 O 0.89027(15) 0.7063(4) 0.6375(3)
C1 C 0.2157(2) 0.6763(5) 0.3127(5)
C2 C 0.2888(2) 0.7682(6) 0.3700(5)
H5 H 0.2923 0.7654 0.4714
H6 H 0.2858 0.8930 0.3414
C3 C 0.3620(2) 0.6878(6) 0.3248(5)
H7 H 0.3619 0.5599 0.3432
H8 H 0.3613 0.7037 0.2246
C4 C 0.4360(2) 0.7662(6) 0.3955(5)
H9 H 0.4361 0.7532 0.4959
H10 H 0.4368 0.8936 0.3750
C5 C 0.5090(2) 0.6825(6) 0.3531(5)
H11 H 0.5066 0.5541 0.3682
H12 H 0.5103 0.7019 0.2537
C6 C 0.5835(2) 0.7525(6) 0.4295(5)
H13 H 0.5819 0.7339 0.5290
H14 H 0.5858 0.8809 0.4140
C7 C 0.6573(2) 0.6690(6) 0.3887(5)
H15 H 0.6540 0.5398 0.3985
H16 H 0.6612 0.6949 0.2909
C8 C 0.7298(2) 0.7342(6) 0.4743(4)
H17 H 0.7276 0.7006 0.5712
H18 H 0.7312 0.8641 0.4700
C9 C 0.8038(2) 0.6610(5) 0.4271(4)
H19 H 0.8044 0.5317 0.4380
H20 H 0.8046 0.6874 0.3285
C10 C 0.8758(2) 0.7383(5) 0.5079(5)
Co1A Co 0.90298(3) 1.00967(7) 0.27967(6)
Co1B Co 0.90298(3) 0.49033(7) 0.77967(6)
O5A O 0.08014(15) 0.3388(4) 0.0537(3)
O6B O 0.10973(15) 0.2937(4) 0.3625(3)
loop_
_geom_bond_atom_site_label_1
_geom_bond_atom_site_label_2
_geom_bond_site_symmetry_1
_geom_bond_site_symmetry_2
Co1 O1 1_555 1_555
O1 C1 1_555 1_555
O2 Co1 1_555 1_555
H1 O2 1_555 1_555
H2 O2 1_555 1_555
O3 Co1 1_555 1_555
O4 Co1 1_555 1_555
H3 O4 1_555 1_555
H4 O4 1_555 1_555
O5 C10 1_555 1_555
O6 C10 1_555 1_555
C1 O3 1_555 1_555
C2 C1 1_555 1_555
H5 C2 1_555 1_555
H6 C2 1_555 1_555
C3 C2 1_555 1_555
H7 C3 1_555 1_555
H8 C3 1_555 1_555
C4 C3 1_555 1_555
H9 C4 1_555 1_555
H10 C4 1_555 1_555
C5 C4 1_555 1_555
H11 C5 1_555 1_555
H12 C5 1_555 1_555
C6 C5 1_555 1_555
H13 C6 1_555 1_555
H14 C6 1_555 1_555
C7 C6 1_555 1_555
H15 C7 1_555 1_555
H16 C7 1_555 1_555
C8 C7 1_555 1_555
H17 C8 1_555 1_555
H18 C8 1_555 1_555
C9 C8 1_555 1_555
H19 C9 1_555 1_555
H20 C9 1_555 1_555
C10 C9 1_555 1_555
Co1A O5 1_555 1_555
Co1B O6 1_555 1_555
O5A Co1 1_555 1_555
O6B Co1 1_555 1_555

#END
