
#######################################################################
#
#                 Cambridge Crystallographic Data Centre
#                                CCDC 
#
#######################################################################
#
# If this CIF has been generated from an entry in the Cambridge 
# Structural Database, then it will include bibliographic, chemical, 
# crystal, experimental, refinement or atomic coordinate data resulting 
# from the CCDC's data processing and validation procedures.
#
#######################################################################

data_DIGRUI
_symmetry_cell_setting           orthorhombic
_symmetry_space_group_name_H-M   'P b c a'
_symmetry_Int_Tables_number      61
_space_group_name_Hall           '-P 2ac 2ab'
loop_
_symmetry_equiv_pos_site_id
_symmetry_equiv_pos_as_xyz
1 x,y,z
2 1/2-x,-y,1/2+z
3 1/2+x,1/2-y,-z
4 -x,1/2+y,1/2-z
5 -x,-y,-z
6 1/2+x,y,1/2-z
7 1/2-x,1/2+y,z
8 x,1/2-y,1/2+z
_cell_length_a                   15.4342(8)
_cell_length_b                   7.0155(3)
_cell_length_c                   17.6296(7)
_cell_angle_alpha                90
_cell_angle_beta                 90
_cell_angle_gamma                90
_cell_volume                     1908.91
loop_
_atom_site_label
_atom_site_type_symbol
_atom_site_fract_x
_atom_site_fract_y
_atom_site_fract_z
Cu1 Cu 0.81943(3) 1.06995(7) 0.69603(3)
C1 C 0.9283(3) 1.1189(6) 0.8371(2)
H1 H 0.9502 1.2350 0.8203
C2 C 0.8591(3) 0.8600(6) 0.8381(2)
H2 H 0.8238 0.7574 0.8254
C3 C 0.9044(3) 0.7476(6) 0.9660(2)
H3 H 0.9550 0.7717 0.9973
H4 H 0.9072 0.6167 0.9484
C4 C 0.8173(3) 0.8493(6) 1.0802(2)
H5 H 0.8625 0.8904 1.1111
C5 C 0.6949(3) 0.7828(6) 1.0350(2)
H6 H 0.6350 0.7706 1.0312
Cl1 Cl 0.95009(7) 1.02874(15) 0.63791(6)
Cl2 Cl 0.68924(6) 0.93613(14) 0.73715(5)
N1 N 0.8715(2) 1.0124(5) 0.79580(18)
N2 N 0.9495(2) 1.0434(5) 0.90269(19)
N3 N 0.9046(2) 0.8754(5) 0.90173(19)
N4 N 0.8266(2) 0.7746(5) 1.01074(19)
N5 N 0.7476(2) 0.7317(5) 0.98043(19)
N6 N 0.7347(2) 0.8555(4) 1.09795(18)
Cu1A Cu 0.68057(3) 0.93005(7) 1.19603(3)
Cu1F Cu 0.68057(3) 0.56995(7) 0.69603(3)
Cl2F Cl 0.81076(6) 1.43613(14) 0.73715(5)
N6A N 0.7653(2) 1.1445(4) 0.59795(18)
loop_
_geom_bond_atom_site_label_1
_geom_bond_atom_site_label_2
_geom_bond_site_symmetry_1
_geom_bond_site_symmetry_2
Cu1 Cl1 1_555 1_555
C1 H1 1_555 1_555
C2 H2 1_555 1_555
C3 H3 1_555 1_555
H4 C3 1_555 1_555
C4 H5 1_555 1_555
C5 H6 1_555 1_555
Cl2 Cu1 1_555 1_555
N1 Cu1 1_555 1_555
N2 C1 1_555 1_555
N3 C2 1_555 1_555
N4 C3 1_555 1_555
N5 C5 1_555 1_555
N6 C4 1_555 1_555
Cu1A N6 1_555 1_555
Cu1F Cl2 1_555 1_555
Cl2F Cu1 1_555 1_555
N6A Cu1 1_555 1_555
C1 N1 1_555 1_555
C2 N1 1_555 1_555
C3 N3 1_555 1_555
C4 N4 1_555 1_555
C5 N6 1_555 1_555
N2 N3 1_555 1_555
N4 N5 1_555 1_555

#END
