
#######################################################################
#
#                 Cambridge Crystallographic Data Centre
#                                CCDC 
#
#######################################################################
#
# If this CIF has been generated from an entry in the Cambridge 
# Structural Database, then it will include bibliographic, chemical, 
# crystal, experimental, refinement or atomic coordinate data resulting 
# from the CCDC's data processing and validation procedures.
#
#######################################################################

data_DIGRIW
_symmetry_cell_setting           orthorhombic
_symmetry_space_group_name_H-M   'P n m a'
_symmetry_Int_Tables_number      62
_space_group_name_Hall           '-P 2ac 2n'
loop_
_symmetry_equiv_pos_site_id
_symmetry_equiv_pos_as_xyz
1 x,y,z
2 1/2-x,-y,1/2+z
3 1/2+x,1/2-y,1/2-z
4 -x,1/2+y,-z
5 -x,-y,-z
6 1/2+x,y,1/2-z
7 1/2-x,1/2+y,1/2+z
8 x,1/2-y,z
_cell_length_a                   7.240
_cell_length_b                   30.728
_cell_length_c                   15.408
_cell_angle_alpha                90
_cell_angle_beta                 90
_cell_angle_gamma                90
_cell_volume                     3427.83
loop_
_atom_site_label
_atom_site_type_symbol
_atom_site_fract_x
_atom_site_fract_y
_atom_site_fract_z
Au1 Au 0.19535(6) 0.017744(14) 0.06323(3)
S1 S 0.1329(4) 0.09079(9) 0.05812(19)
S2 S 0.2701(4) -0.05496(9) 0.0685(2)
O1 O 0.0842(13) 0.1783(2) 0.1094(6)
O2 O 0.4598(11) -0.1311(2) 0.1231(6)
N1 N 0.1020(14) 0.1519(3) 0.1777(7)
N2 N 0.5616(12) -0.0954(3) 0.1339(6)
C1 C 0.0929(19) 0.1689(4) 0.2590(9)
H1 H 0.0720 0.1992 0.2659
C2 C 0.113(2) 0.1437(4) 0.3306(8)
H2 H 0.1034 0.1561 0.3869
C3 C 0.1472(18) 0.1001(4) 0.3211(8)
H3 H 0.1665 0.0821 0.3705
C4 C 0.1533(17) 0.0827(4) 0.2386(8)
H4 H 0.1744 0.0523 0.2320
C5 C 0.1295(14) 0.1079(3) 0.1652(7)
C6 C 0.7352(16) -0.1000(4) 0.1654(7)
H5 H 0.7806 -0.1283 0.1785
C7 C 0.8443(16) -0.0651(4) 0.1783(8)
H6 H 0.9668 -0.0687 0.1993
C8 C 0.7768(18) -0.0243(5) 0.1608(8)
H7 H 0.8511 0.0008 0.1703
C9 C 0.6012(17) -0.0202(4) 0.1296(7)
H8 H 0.5542 0.0081 0.1183
C10 C 0.4892(15) -0.0558(3) 0.1137(7)
Na1 Na 0.2198(8) 0.2500 0.7517(4)
Na2 Na 0.0507(9) 0.2500 0.4692(4)
H9 H 0.2119 0.2703 0.9308
H10 H 0.4818 0.1795 0.7958
H11 H -0.2422 0.2708 0.3521
H12 H -0.0497 0.1640 0.5266
H13 H 0.4325 0.1775 0.7116
H14 H -0.1745 0.1776 0.4631
H15 H 0.3920 0.2283 0.4045
H16 H 0.3256 0.2706 0.5834
O3 O 0.4798(11) 0.1952(2) 0.7482(5)
O4 O 0.1689(19) 0.2500 0.9010(8)
O5 O 0.2426(17) 0.2500 0.5953(8)
O6 O -0.1180(13) 0.1871(3) 0.5094(5)
O7 O -0.1688(18) 0.2500 0.3558(9)
O8 O 0.3242(18) 0.2500 0.3877(9)
H9G H 0.2119 0.2297 0.9308
H11G H -0.2422 0.2292 0.3521
H15G H 0.3920 0.2717 0.4045
H16G H 0.3256 0.2294 0.5834
H10G H 0.4818 0.3205 0.7958
H12G H -0.0497 0.3360 0.5266
H13G H 0.4325 0.3225 0.7116
H14G H -0.1745 0.3224 0.4631
O3G O 0.4798(11) 0.3048(2) 0.7482(5)
O6G O -0.1180(13) 0.3129(3) 0.5094(5)
Na1B Na 0.7198(8) 0.2500 0.7483(4)
O3B O -0.0202(11) 0.3048(2) 0.7518(5)
O3E O -0.0202(11) 0.1952(2) 0.7518(5)
H17 H 0.3053 0.1427 0.5829
H18 H 0.4721 0.1511 0.5436
O9 O 0.3898(13) 0.1633(3) 0.5780(6)
loop_
_geom_bond_atom_site_label_1
_geom_bond_atom_site_label_2
_geom_bond_site_symmetry_1
_geom_bond_site_symmetry_2
Au1 S1 1_555 1_555
S1 C5 1_555 1_555
S2 Au1 1_555 1_555
O1 N1 1_555 1_555
O2 N2 1_555 1_555
N1 C1 1_555 1_555
N2 C6 1_555 1_555
C1 H1 1_555 1_555
C2 C1 1_555 1_555
H2 C2 1_555 1_555
C3 C2 1_555 1_555
H3 C3 1_555 1_555
C4 C3 1_555 1_555
H4 C4 1_555 1_555
C5 N1 1_555 1_555
C6 H5 1_555 1_555
C7 C6 1_555 1_555
H6 C7 1_555 1_555
C8 C7 1_555 1_555
H7 C8 1_555 1_555
C9 C8 1_555 1_555
H8 C9 1_555 1_555
C10 S2 1_555 1_555
Na1 O3 1_555 1_555
Na2 O5 1_555 1_555
H9 O4 1_555 1_555
H10 O3 1_555 1_555
H11 O7 1_555 1_555
H12 O6 1_555 1_555
H13 O3 1_555 1_555
H14 O6 1_555 1_555
H15 O8 1_555 1_555
H16 O5 1_555 1_555
O3 Na1B 1_555 1_555
O4 Na1 1_555 1_555
O5 Na1 1_555 1_555
O6 Na2 1_555 1_555
O7 Na2 1_555 1_555
O8 Na2 1_555 1_555
H17 O9 1_555 1_555
H18 O9 1_555 1_555
H9G O4 1_555 1_555
H11G O7 1_555 1_555
H15G O8 1_555 1_555
H16G O5 1_555 1_555
H10G O3G 1_555 1_555
H12G O6G 1_555 1_555
H13G O3G 1_555 1_555
H14G O6G 1_555 1_555
O3G Na1 1_555 1_555
O6G Na2 1_555 1_555
Na1B O3G 1_555 1_555
O3B Na1 1_555 1_555
O3E Na1 1_555 1_555
N2 C10 1_555 1_555
C4 C5 1_555 1_555
C9 C10 1_555 1_555

#END
