
#######################################################################
#
#                 Cambridge Crystallographic Data Centre
#                                CCDC 
#
#######################################################################
#
# If this CIF has been generated from an entry in the Cambridge 
# Structural Database, then it will include bibliographic, chemical, 
# crystal, experimental, refinement or atomic coordinate data resulting 
# from the CCDC's data processing and validation procedures.
#
#######################################################################

data_DIGROC
_symmetry_cell_setting           monoclinic
_symmetry_space_group_name_H-M   'P 21/c'
_symmetry_Int_Tables_number      14
_space_group_name_Hall           '-P 2ybc'
loop_
_symmetry_equiv_pos_site_id
_symmetry_equiv_pos_as_xyz
1 x,y,z
2 -x,1/2+y,1/2-z
3 -x,-y,-z
4 x,1/2-y,1/2+z
_cell_length_a                   8.1157(4)
_cell_length_b                   13.8441(6)
_cell_length_c                   7.6095(4)
_cell_angle_alpha                90
_cell_angle_beta                 100.066(5)
_cell_angle_gamma                90
_cell_volume                     841.802
loop_
_atom_site_label
_atom_site_type_symbol
_atom_site_fract_x
_atom_site_fract_y
_atom_site_fract_z
Cu1 Cu 0.0000 0.0000 0.0000
C1 C 0.2985(4) 0.0809(2) 0.2378(4)
H1 H 0.3178 0.0221 0.2971
C2 C 0.1948(4) 0.1937(2) 0.0676(5)
H2 H 0.1211 0.2275 -0.0180
C3 C 0.5613(3) 0.1654(2) 0.3813(4)
H3 H 0.6037 0.2308 0.3783
H4 H 0.5503 0.1506 0.5033
C4 C 0.7842(4) 0.1122(2) 0.2102(4)
H5 H 0.8074 0.1713 0.1618
C5 C 0.7802(4) -0.0353(2) 0.2786(5)
H6 H 0.8061 -0.1008 0.2837
N1 N 0.1687(3) 0.10076(17) 0.1133(3)
N2 N 0.3340(3) 0.23153(18) 0.1554(4)
N3 N 0.3984(3) 0.15824(16) 0.2659(3)
N4 N 0.6771(3) 0.09845(16) 0.3216(3)
N5 N 0.8523(3) 0.02867(17) 0.1794(4)
N6 N 0.6717(3) 0.00289(17) 0.3661(4)
Cl1 Cl 0.15729(9) -0.14463(5) 0.22066(11)
C1B C -0.2985(4) -0.0809(2) -0.2378(4)
H1B H -0.3178 -0.0221 -0.2971
C2B C -0.1948(4) -0.1937(2) -0.0676(5)
H2B H -0.1211 -0.2275 0.0180
C3B C -0.5613(3) -0.1654(2) -0.3813(4)
H3B H -0.6037 -0.2308 -0.3783
H4B H -0.5503 -0.1506 -0.5033
C4B C -0.7842(4) -0.1122(2) -0.2102(4)
H5B H -0.8074 -0.1713 -0.1618
C5B C -0.7802(4) 0.0353(2) -0.2786(5)
H6B H -0.8061 0.1008 -0.2837
N1B N -0.1687(3) -0.10076(17) -0.1133(3)
N2B N -0.3340(3) -0.23153(18) -0.1554(4)
N3B N -0.3984(3) -0.15824(16) -0.2659(3)
N4B N -0.6771(3) -0.09845(16) -0.3216(3)
N5B N -0.8523(3) -0.02867(17) -0.1794(4)
N6B N -0.6717(3) -0.00289(17) -0.3661(4)
Cl1B Cl -0.15729(9) 0.14463(5) -0.22066(11)
Cu1_2 Cu -1.0000 0.0000 0.0000
Cu1_3 Cu 1.0000 0.0000 0.0000
N5_2 N -0.1477(3) 0.02867(17) 0.1794(4)
N5B_2 N 0.1477(3) -0.02867(17) -0.1794(4)
loop_
_geom_bond_atom_site_label_1
_geom_bond_atom_site_label_2
_geom_bond_site_symmetry_1
_geom_bond_site_symmetry_2
Cu1 N1 1_555 1_555
C1 H1 1_555 1_555
C2 H2 1_555 1_555
C3 H3 1_555 1_555
H4 C3 1_555 1_555
C4 H5 1_555 1_555
C5 H6 1_555 1_555
N1 C1 1_555 1_555
N2 C2 1_555 1_555
N3 C1 1_555 1_555
N4 C3 1_555 1_555
N5 C4 1_555 1_555
N6 C5 1_555 1_555
Cl1 Cu1 1_555 1_555
C1B H1B 1_555 1_555
C2B H2B 1_555 1_555
C3B H3B 1_555 1_555
H4B C3B 1_555 1_555
C4B H5B 1_555 1_555
C5B H6B 1_555 1_555
N1B Cu1 1_555 1_555
N2B C2B 1_555 1_555
N3B C1B 1_555 1_555
N4B C3B 1_555 1_555
N5B C4B 1_555 1_555
N6B C5B 1_555 1_555
Cl1B Cu1 1_555 1_555
Cu1_2 N5B 1_555 1_555
Cu1_3 N5 1_555 1_555
N5_2 Cu1 1_555 1_555
N5B_2 Cu1 1_555 1_555
C2 N1 1_555 1_555
C3 N3 1_555 1_555
C4 N4 1_555 1_555
C5 N5 1_555 1_555
N2 N3 1_555 1_555
N4 N6 1_555 1_555
C1B N1B 1_555 1_555
C2B N1B 1_555 1_555
C3B N3B 1_555 1_555
C4B N4B 1_555 1_555
C5B N5B 1_555 1_555
N2B N3B 1_555 1_555
N4B N6B 1_555 1_555

#END
