
#######################################################################
#
#                 Cambridge Crystallographic Data Centre
#                                CCDC 
#
#######################################################################
#
# If this CIF has been generated from an entry in the Cambridge 
# Structural Database, then it will include bibliographic, chemical, 
# crystal, experimental, refinement or atomic coordinate data resulting 
# from the CCDC's data processing and validation procedures.
#
#######################################################################

data_DIGTOE
_symmetry_cell_setting           monoclinic
_symmetry_space_group_name_H-M   'P 21/n'
_symmetry_Int_Tables_number      14
_space_group_name_Hall           '-P 2yn'
loop_
_symmetry_equiv_pos_site_id
_symmetry_equiv_pos_as_xyz
1 x,y,z
2 1/2-x,1/2+y,1/2-z
3 -x,-y,-z
4 1/2+x,1/2-y,1/2+z
_cell_length_a                   7.5941(4)
_cell_length_b                   5.6569(3)
_cell_length_c                   13.1056(6)
_cell_angle_alpha                90
_cell_angle_beta                 95.284(4)
_cell_angle_gamma                90
_cell_volume                     560.612
loop_
_atom_site_label
_atom_site_type_symbol
_atom_site_fract_x
_atom_site_fract_y
_atom_site_fract_z
Ca1 Ca 0.5000 0.0000 1.0000
O1 O 0.22362(16) 0.1637(2) 0.94807(9)
N1 N 0.05625(18) 0.4810(2) 0.90177(10)
C1 C 0.0580(2) 0.3232(3) 1.07469(12)
H1 H -0.0047 0.1766 1.0842
H2 H 0.1614 0.3247 1.1240
O2 O -0.12520(17) 0.1545(2) 0.77940(9)
C2 C 0.1192(2) 0.3223(3) 0.96949(12)
O3 O 0.01086(17) 0.2518(2) 0.64232(8)
C3 C 0.0953(2) 0.4601(3) 0.79545(12)
H3 H 0.2192 0.4202 0.7937
H4 H 0.0755 0.6119 0.7619
C4 C -0.0175(2) 0.2731(3) 0.73610(12)
O4 O 0.3729(2) -0.2937(3) 1.09368(11)
H5 H 0.301(3) -0.259(4) 1.1320(18)
H6 H 0.414(4) -0.423(6) 1.1106(19)
O1B O -0.22362(16) 0.8363(2) 1.05193(9)
N1B N -0.05625(18) 0.5190(2) 1.09823(10)
C1B C -0.0580(2) 0.6768(3) 0.92531(12)
H1B H 0.0047 0.8234 0.9158
H2B H -0.1614 0.6753 0.8760
O2B O 0.12520(17) 0.8455(2) 1.22060(9)
C2B C -0.1192(2) 0.6777(3) 1.03051(12)
O3B O -0.01086(17) 0.7482(2) 1.35768(8)
C3B C -0.0953(2) 0.5399(3) 1.20455(12)
H3B H -0.2192 0.5798 1.2063
H4B H -0.0755 0.3881 1.2381
C4B C 0.0175(2) 0.7269(3) 1.26390(12)
O4B O 0.6271(2) 0.2937(3) 0.90632(11)
H5B H 0.699(3) 0.259(4) 0.8680(18)
H6B H 0.586(4) 0.423(6) 0.8894(19)
Ca1_2 Ca -0.5000 1.0000 1.0000
Ca1A Ca 0.0000 0.5000 0.5000
Ca1A_2 Ca 0.0000 0.5000 1.5000
O1B_2 O 0.77638(16) -0.1637(2) 1.05193(9)
O3A O 0.48914(17) -0.2482(2) 0.85768(8)
O3C O 0.51086(17) 0.2482(2) 1.14232(8)
loop_
_geom_bond_atom_site_label_1
_geom_bond_atom_site_label_2
_geom_bond_site_symmetry_1
_geom_bond_site_symmetry_2
Ca1 O1 1_555 1_555
O1 C2 1_555 1_555
N1 C2 1_555 1_555
C1 H1 1_555 1_555
H2 C1 1_555 1_555
O2 C4 1_555 1_555
C2 C1 1_555 1_555
O3 C4 1_555 1_555
C3 N1 1_555 1_555
H3 C3 1_555 1_555
H4 C3 1_555 1_555
C4 C3 1_555 1_555
O4 Ca1 1_555 1_555
H5 O4 1_555 1_555
H6 O4 1_555 1_555
O1B C2B 1_555 1_555
N1B C1 1_555 1_555
C1B N1 1_555 1_555
H1B C1B 1_555 1_555
H2B C1B 1_555 1_555
O2B C4B 1_555 1_555
C2B N1B 1_555 1_555
O3B C4B 1_555 1_555
C3B N1B 1_555 1_555
H3B C3B 1_555 1_555
H4B C3B 1_555 1_555
C4B C3B 1_555 1_555
O4B Ca1 1_555 1_555
H5B O4B 1_555 1_555
H6B O4B 1_555 1_555
Ca1_2 O1B 1_555 1_555
Ca1A O3 1_555 1_555
Ca1A_2 O3B 1_555 1_555
O1B_2 Ca1 1_555 1_555
O3A Ca1 1_555 1_555
O3C Ca1 1_555 1_555
C1B C2B 1_555 1_555

#END
