
#######################################################################
#
#                 Cambridge Crystallographic Data Centre
#                                CCDC 
#
#######################################################################
#
# If this CIF has been generated from an entry in the Cambridge 
# Structural Database, then it will include bibliographic, chemical, 
# crystal, experimental, refinement or atomic coordinate data resulting 
# from the CCDC's data processing and validation procedures.
#
#######################################################################

data_DIGTEU
_symmetry_cell_setting           monoclinic
_symmetry_space_group_name_H-M   'C 2/c'
_symmetry_Int_Tables_number      15
_space_group_name_Hall           '-C 2yn'
loop_
_symmetry_equiv_pos_site_id
_symmetry_equiv_pos_as_xyz
1 x,y,z
2 -x,y,1/2-z
3 1/2+x,1/2+y,z
4 1/2-x,1/2+y,1/2-z
5 -x,-y,-z
6 x,-y,1/2+z
7 1/2-x,1/2-y,-z
8 1/2+x,1/2-y,1/2+z
_cell_length_a                   4.6423(2)
_cell_length_b                   13.5308(6)
_cell_length_c                   17.7254(9)
_cell_angle_alpha                90
_cell_angle_beta                 93.474(4)
_cell_angle_gamma                90
_cell_volume                     1111.36
loop_
_atom_site_label
_atom_site_type_symbol
_atom_site_fract_x
_atom_site_fract_y
_atom_site_fract_z
Ba1 Ba 0.0000 0.429602(13) 0.2500
C1 C -0.0708(5) 0.06784(17) 0.35609(14)
O1 O 0.0377(4) -0.01147(12) 0.33447(10)
N1 N -0.0598(4) 0.19426(14) 0.45857(11)
O2 O -0.5000 0.2766(2) 0.2500
O3 O -0.3133(4) 0.10048(14) 0.33354(11)
C2 C 0.1111(5) 0.12776(19) 0.41458(15)
H1 H 0.2160 0.0826 0.4487
H2 H 0.2516 0.1662 0.3888
O4 O 0.0307(4) 0.32597(15) 0.38561(11)
C3 C -0.2028(5) 0.14816(18) 0.52016(14)
H3 H -0.0552 0.1231 0.5562
H4 H -0.3107 0.0917 0.4999
C4 C -0.0953(5) 0.28840(18) 0.43774(13)
H5 H -0.420(8) 0.241(3) 0.287(2)
C1F C -0.4292(5) 0.43216(17) 0.64391(14)
O1F O -0.5377(4) 0.51147(12) 0.66553(10)
N1F N -0.4402(4) 0.30574(14) 0.54143(11)
O3F O -0.1867(4) 0.39952(14) 0.66646(11)
C2F C -0.6111(5) 0.37224(19) 0.58542(15)
H1F H -0.7160 0.4174 0.5513
H2F H -0.7516 0.3338 0.6112
O4F O -0.5307(4) 0.17403(15) 0.61439(11)
C3F C -0.2972(5) 0.35184(18) 0.47984(14)
H3F H -0.4448 0.3769 0.4438
H4F H -0.1893 0.4083 0.5001
C4F C -0.4047(5) 0.21160(18) 0.56226(13)
H5A H -0.580(8) 0.241(3) 0.213(2)
Ba1_2 Ba -1.0000 0.429602(13) 0.2500
Ba1B Ba -0.5000 -0.070398(13) 0.2500
Ba1B_2 Ba 0.5000 -0.070398(13) 0.2500
Ba1D Ba -1.0000 0.570398(13) 0.7500
Ba1D_2 Ba 0.0000 0.570398(13) 0.7500
Ba1F Ba -0.5000 0.070398(13) 0.7500
O1B O -0.4623(4) 0.48853(12) 0.33447(10)
O1B_2 O 0.5377(4) 0.48853(12) 0.33447(10)
O1C O -0.5377(4) 0.48853(12) 0.16553(10)
O1C_2 O 0.4623(4) 0.48853(12) 0.16553(10)
O2_2 O 0.5000 0.2766(2) 0.2500
O3B O 0.1867(4) 0.60048(14) 0.33354(11)
O3C O -0.1867(4) 0.60048(14) 0.16646(11)
O4A O -0.0307(4) 0.32597(15) 0.11439(11)
loop_
_geom_bond_atom_site_label_1
_geom_bond_atom_site_label_2
_geom_bond_site_symmetry_1
_geom_bond_site_symmetry_2
Ba1 O2 1_555 1_555
C1 O1 1_555 1_555
O1 Ba1B 1_555 1_555
N1 C2 1_555 1_555
O2 H5 1_555 1_555
O3 C1 1_555 1_555
C2 C1 1_555 1_555
H1 C2 1_555 1_555
H2 C2 1_555 1_555
O4 Ba1 1_555 1_555
C3 N1 1_555 1_555
H3 C3 1_555 1_555
H4 C3 1_555 1_555
C4 N1 1_555 1_555
C1F O1F 1_555 1_555
O1F Ba1D 1_555 1_555
N1F C2F 1_555 1_555
O3F C1F 1_555 1_555
C2F C1F 1_555 1_555
H1F C2F 1_555 1_555
H2F C2F 1_555 1_555
O4F C4F 1_555 1_555
C3F C4 1_555 1_555
H3F C3F 1_555 1_555
H4F C3F 1_555 1_555
C4F C3 1_555 1_555
H5A O2 1_555 1_555
Ba1_2 O2 1_555 1_555
Ba1B O3 1_555 1_555
Ba1B_2 O1 1_555 1_555
Ba1D_2 O1F 1_555 1_555
Ba1F O4F 1_555 1_555
O1B Ba1 1_555 1_555
O1B_2 Ba1 1_555 1_555
O1C Ba1 1_555 1_555
O1C_2 Ba1 1_555 1_555
O2_2 Ba1 1_555 1_555
O3B Ba1 1_555 1_555
O3C Ba1 1_555 1_555
O4A Ba1 1_555 1_555
O4 C4 1_555 1_555
N1F C3F 1_555 1_555
N1F C4F 1_555 1_555
O3F Ba1D_2 1_555 1_555
Ba1_2 O1B 1_555 1_555
Ba1_2 O1C 1_555 1_555

#END
