
#######################################################################
#
#                 Cambridge Crystallographic Data Centre
#                                CCDC 
#
#######################################################################
#
# If this CIF has been generated from an entry in the Cambridge 
# Structural Database, then it will include bibliographic, chemical, 
# crystal, experimental, refinement or atomic coordinate data resulting 
# from the CCDC's data processing and validation procedures.
#
#######################################################################

data_DIGTIY
_symmetry_cell_setting           monoclinic
_symmetry_space_group_name_H-M   'C 2/c'
_symmetry_Int_Tables_number      15
_space_group_name_Hall           '-C 2yn'
loop_
_symmetry_equiv_pos_site_id
_symmetry_equiv_pos_as_xyz
1 x,y,z
2 -x,y,1/2-z
3 1/2+x,1/2+y,z
4 1/2-x,1/2+y,1/2-z
5 -x,-y,-z
6 x,-y,1/2+z
7 1/2-x,1/2-y,-z
8 1/2+x,1/2-y,1/2+z
_cell_length_a                   23.6213(16)
_cell_length_b                   6.9431(5)
_cell_length_c                   8.0865(4)
_cell_angle_alpha                90
_cell_angle_beta                 104.072(9)
_cell_angle_gamma                90
_cell_volume                     1286.43
loop_
_atom_site_label
_atom_site_type_symbol
_atom_site_fract_x
_atom_site_fract_y
_atom_site_fract_z
Sr1 Sr 1.0000 -0.11982(3) 0.2500
O1 O 0.90034(7) 0.11711(19) 0.18874(18)
O2 O 0.95857(5) 0.16294(19) 0.01514(17)
O3 O 0.91782(8) -0.2664(3) 0.0122(2)
H1 H 0.9105(14) -0.219(5) -0.091(5)
H2 H 0.8898(13) -0.315(5) 0.015(4)
O4 O 0.81395(7) 0.5712(2) 0.0358(2)
O5 O 1.0000 -0.4943(3) 0.2500
H3 H 1.0092(15) -0.567(5) 0.336(4)
N1 N 0.80384(6) 0.2590(2) -0.04488(19)
C1 C 0.78635(8) 0.4197(3) 0.0170(2)
C2 C 0.86018(7) 0.2511(3) -0.0890(2)
H4 H 0.8705 0.3800 -0.1176
H5 H 0.8563 0.1717 -0.1899
C3 C 0.90954(7) 0.1719(2) 0.0512(2)
C4 C 0.77136(9) 0.0793(3) -0.0643(3)
H6 H 0.7959 -0.0178 0.0044
H7 H 0.7646 0.0392 -0.1823
O1F O 0.59966(7) 0.38289(19) -0.18874(18)
O2F O 0.54143(5) 0.33706(19) -0.01514(17)
O4F O 0.68605(7) -0.0712(2) -0.0358(2)
N1F N 0.69616(6) 0.2410(2) 0.04488(19)
C1F C 0.71365(8) 0.0803(3) -0.0170(2)
C2F C 0.63982(7) 0.2489(3) 0.0890(2)
H4F H 0.6295 0.1200 0.1176
H5F H 0.6437 0.3283 0.1899
C3F C 0.59046(7) 0.3281(2) -0.0512(2)
C4F C 0.72864(9) 0.4207(3) 0.0643(3)
H6F H 0.7041 0.5178 -0.0044
H7F H 0.7354 0.4608 0.1823
H3A H 0.9908(15) -0.567(5) 0.164(4)
O3A O 1.08218(8) -0.2664(3) 0.4878(2)
H1A H 1.0895(14) -0.219(5) 0.591(5)
H2A H 1.1102(13) -0.315(5) 0.485(4)
Sr1B Sr 0.5000 0.38018(3) 0.2500
Sr1D Sr 1.0000 0.11982(3) -0.2500
Sr1F Sr 0.5000 0.61982(3) -0.2500
O1A O 1.09966(7) 0.11711(19) 0.31126(18)
O2A O 1.04143(5) 0.16294(19) 0.48486(17)
O2D O 1.04143(5) -0.16294(19) -0.01514(17)
O2E O 0.95857(5) -0.16294(19) 0.51514(17)
loop_
_geom_bond_atom_site_label_1
_geom_bond_atom_site_label_2
_geom_bond_site_symmetry_1
_geom_bond_site_symmetry_2
Sr1 O1 1_555 1_555
O1 C3 1_555 1_555
O2 Sr1 1_555 1_555
O3 Sr1 1_555 1_555
H1 O3 1_555 1_555
H2 O3 1_555 1_555
O4 C1 1_555 1_555
O5 Sr1 1_555 1_555
H3 O5 1_555 1_555
N1 C1 1_555 1_555
C1 C4F 1_555 1_555
C2 N1 1_555 1_555
H4 C2 1_555 1_555
H5 C2 1_555 1_555
C3 O2 1_555 1_555
C4 N1 1_555 1_555
H6 C4 1_555 1_555
H7 C4 1_555 1_555
O1F C3F 1_555 1_555
O2F C3F 1_555 1_555
O4F C1F 1_555 1_555
N1F C1F 1_555 1_555
C1F C4 1_555 1_555
C2F N1F 1_555 1_555
H4F C2F 1_555 1_555
H5F C2F 1_555 1_555
C3F C2F 1_555 1_555
C4F N1F 1_555 1_555
H6F C4F 1_555 1_555
H7F C4F 1_555 1_555
H3A O5 1_555 1_555
O3A Sr1 1_555 1_555
H1A O3A 1_555 1_555
H2A O3A 1_555 1_555
Sr1B O2F 1_555 1_555
Sr1D O2 1_555 1_555
Sr1F O1F 1_555 1_555
O1A Sr1 1_555 1_555
O2A Sr1 1_555 1_555
O2D Sr1 1_555 1_555
O2E Sr1 1_555 1_555
C2 C3 1_555 1_555
O2F Sr1F 1_555 1_555
Sr1D O2D 1_555 1_555

#END
