
#######################################################################
#
#                 Cambridge Crystallographic Data Centre
#                                CCDC 
#
#######################################################################
#
# If this CIF has been generated from an entry in the Cambridge 
# Structural Database, then it will include bibliographic, chemical, 
# crystal, experimental, refinement or atomic coordinate data resulting 
# from the CCDC's data processing and validation procedures.
#
#######################################################################

data_DIGZUQ
_symmetry_cell_setting           triclinic
_symmetry_space_group_name_H-M   'P -1'
_symmetry_Int_Tables_number      2
_space_group_name_Hall           '-P 1'
loop_
_symmetry_equiv_pos_site_id
_symmetry_equiv_pos_as_xyz
1 x,y,z
2 -x,-y,-z
_cell_length_a                   8.747(4)
_cell_length_b                   11.840(5)
_cell_length_c                   12.000(5)
_cell_angle_alpha                113.948(7)
_cell_angle_beta                 98.694(7)
_cell_angle_gamma                92.678(7)
_cell_volume                     1114.67
loop_
_atom_site_label
_atom_site_type_symbol
_atom_site_fract_x
_atom_site_fract_y
_atom_site_fract_z
Pb1 Pb 0.05817(4) 0.07109(3) -0.29091(3)
C1 C 0.0504(9) 0.2486(8) 0.0174(8)
H1 H 0.1239 0.1975 0.0272
C2 C -0.1601(9) 0.4024(7) -0.0101(7)
C3 C 0.0303(10) 0.3508(8) 0.1211(8)
H2 H 0.0857 0.3653 0.1991
C4 C -0.4313(11) 0.2884(9) -0.3770(8)
H3 H -0.5052 0.3354 -0.3952
C5 C -0.1382(8) 0.2928(8) -0.1110(7)
N1 N -0.0304(7) 0.2194(6) -0.0966(6)
C6 C -0.4078(12) 0.1777(10) -0.4673(9)
H4 H -0.4658 0.1484 -0.5472
N2 N -0.2085(8) 0.1470(7) -0.3263(6)
C7 C -0.2970(11) 0.1105(9) -0.4378(8)
H5 H -0.2833 0.0349 -0.4998
N3 N -0.3103(7) 0.5925(6) 0.0365(6)
C8 C -0.2697(9) 0.4783(7) -0.0366(7)
N4 N -0.4447(7) 0.5364(6) -0.1556(6)
H6 H -0.5069 0.5368 -0.2182
C9 C -0.3426(9) 0.3307(8) -0.2562(7)
C10 C -0.0727(10) 0.4308(8) 0.1076(8)
H7 H -0.0839 0.5025 0.1755
C11 C -0.2309(9) 0.2567(8) -0.2342(7)
C12 C -0.3567(8) 0.4457(7) -0.1541(7)
C13 C -0.4154(8) 0.6235(8) -0.0417(8)
C14 C -0.4835(9) 0.7425(7) 0.0018(8)
C15 C -0.5963(10) 0.7599(8) -0.0807(8)
H8 H -0.6232 0.6994 -0.1618
C16 C -0.4376(10) 0.8359(8) 0.1240(8)
O1 O -0.3268(7) 0.8259(5) 0.2034(6)
H9 H -0.2914 0.7568 0.1692
N5 N -0.7848(10) 0.8830(8) -0.1355(9)
O2 O -0.8064(10) 0.8087(8) -0.2454(8)
C17 C -0.6709(10) 0.8666(8) -0.0448(8)
C18 C -0.5164(11) 0.9430(8) 0.1578(9)
H10 H -0.4889 1.0053 0.2380
C19 C -0.6313(11) 0.9576(9) 0.0764(9)
H11 H -0.6832 1.0280 0.1016
O3 O -0.8589(8) 0.9742(7) -0.0985(7)
O4 O 0.0978(7) 0.2853(5) -0.3074(5)
O5 O 0.0906(8) 0.1134(6) -0.4749(6)
C20 C 0.1164(9) 0.2305(8) -0.4165(8)
C21 C 0.1759(11) 0.3024(10) -0.4813(8)
N6 N 0.2998(13) 0.2892(12) -0.6576(9)
C22 C 0.1972(14) 0.4278(10) -0.4346(10)
H12 H 0.1681 0.4749 -0.3593
C23 C 0.2275(13) 0.2362(11) -0.5950(10)
H13 H 0.2103 0.1497 -0.6291
C24 C 0.3152(16) 0.4130(16) -0.6053(14)
H14 H 0.3661 0.4534 -0.6439
C25 C 0.2629(18) 0.4874(16) -0.4990(17)
H15 H 0.280(11) 0.572(9) -0.450(9)
Pb1A Pb -0.05817(4) -0.07109(3) -0.70909(3)
Pb1A_2 Pb -0.05817(4) 0.92891(3) 0.29091(3)
O1A O 0.3268(7) 0.1741(5) -0.2034(6)
O5A O -0.0906(8) -0.1134(6) -0.5251(6)
loop_
_geom_bond_atom_site_label_1
_geom_bond_atom_site_label_2
_geom_bond_site_symmetry_1
_geom_bond_site_symmetry_2
Pb1 N1 1_555 1_555
C1 H1 1_555 1_555
C2 C5 1_555 1_555
C3 C1 1_555 1_555
H2 C3 1_555 1_555
C4 H3 1_555 1_555
C5 N1 1_555 1_555
N1 C1 1_555 1_555
C6 C4 1_555 1_555
H4 C6 1_555 1_555
N2 Pb1 1_555 1_555
C7 C6 1_555 1_555
H5 C7 1_555 1_555
N3 C8 1_555 1_555
C8 C2 1_555 1_555
N4 H6 1_555 1_555
C9 C4 1_555 1_555
C10 C2 1_555 1_555
H7 C10 1_555 1_555
C11 C5 1_555 1_555
C12 C8 1_555 1_555
C13 N3 1_555 1_555
C14 C13 1_555 1_555
C15 C14 1_555 1_555
H8 C15 1_555 1_555
C16 C14 1_555 1_555
O1 C16 1_555 1_555
H9 O1 1_555 1_555
N5 O2 1_555 1_555
C17 C15 1_555 1_555
C18 C16 1_555 1_555
H10 C18 1_555 1_555
C19 C17 1_555 1_555
H11 C19 1_555 1_555
O3 N5 1_555 1_555
O4 Pb1 1_555 1_555
O5 Pb1 1_555 1_555
C20 O4 1_555 1_555
C21 C20 1_555 1_555
N6 C23 1_555 1_555
C22 C21 1_555 1_555
H12 C22 1_555 1_555
C23 C21 1_555 1_555
H13 C23 1_555 1_555
C24 N6 1_555 1_555
H14 C24 1_555 1_555
C25 C22 1_555 1_555
H15 C25 1_555 1_555
Pb1A O5 1_555 1_555
Pb1A_2 O1 1_555 1_555
O1A Pb1 1_555 1_555
O5A Pb1 1_555 1_555
C3 C10 1_555 1_555
N2 C7 1_555 1_555
N2 C11 1_555 1_555
N4 C12 1_555 1_555
N4 C13 1_555 1_555
C9 C11 1_555 1_555
C9 C12 1_555 1_555
N5 C17 1_555 1_555
C18 C19 1_555 1_555
O5 C20 1_555 1_555
C24 C25 1_555 1_555
Pb1A O5A 1_555 1_555

#END
