
#######################################################################
#
#                 Cambridge Crystallographic Data Centre
#                                CCDC 
#
#######################################################################
#
# If this CIF has been generated from an entry in the Cambridge 
# Structural Database, then it will include bibliographic, chemical, 
# crystal, experimental, refinement or atomic coordinate data resulting 
# from the CCDC's data processing and validation procedures.
#
#######################################################################

data_DIGZOK
_symmetry_cell_setting           triclinic
_symmetry_space_group_name_H-M   'P -1'
_symmetry_Int_Tables_number      2
_space_group_name_Hall           '-P 1'
loop_
_symmetry_equiv_pos_site_id
_symmetry_equiv_pos_as_xyz
1 x,y,z
2 -x,-y,-z
_cell_length_a                   8.6463(12)
_cell_length_b                   10.6989(15)
_cell_length_c                   11.5958(16)
_cell_angle_alpha                100.327(2)
_cell_angle_beta                 95.930(2)
_cell_angle_gamma                96.758(2)
_cell_volume                     1039.44
loop_
_atom_site_label
_atom_site_type_symbol
_atom_site_fract_x
_atom_site_fract_y
_atom_site_fract_z
Pb1 Pb 0.58133(2) 0.208705(16) 0.582996(15)
C1 C 0.3631(8) 0.0356(5) 0.7392(6)
H1 H 0.3940 -0.0293 0.6854
C2 C 0.2194(5) 0.3296(4) 0.9713(4)
N1 N 0.4066(5) 0.1567(4) 0.7310(4)
N2 N 0.1311(4) 0.3296(4) 1.0636(3)
H2 H 0.0839 0.2640 1.0853
N3 N 0.2173(4) 0.5311(4) 1.0533(3)
C3 C 0.3671(5) 0.4867(4) 0.8751(4)
C4 C 0.2628(5) 0.2246(4) 0.8941(4)
O1 O 0.3689(5) 0.0416(4) 0.4388(4)
C5 C 0.4205(5) 0.6129(4) 0.8642(4)
H3 H 0.3953 0.6829 0.9153
C6 C 0.1345(5) 0.4521(4) 1.1120(4)
C7 C 0.5099(6) 0.6298(5) 0.7768(4)
H4 H 0.5480 0.7122 0.7682
C8 C 0.2730(8) 0.0012(5) 0.8247(6)
H5 H 0.2473 -0.0845 0.8292
N4 N 0.4962(4) 0.4038(4) 0.7099(3)
C9 C 0.4083(5) 0.3835(4) 0.7968(4)
C10 C 0.2713(5) 0.4544(4) 0.9626(4)
C11 C 0.5443(5) 0.5235(5) 0.7001(4)
H6 H 0.6033 0.5369 0.6396
C12 C 0.3585(5) 0.2518(4) 0.8067(4)
C13 C 0.2235(7) 0.0958(5) 0.9016(5)
H7 H 0.1633 0.0747 0.9592
O2 O 0.1750(4) 0.7194(3) 1.2265(3)
H8 H 0.2246 0.6812 1.1782
C14 C -0.0351(5) 0.4171(4) 1.2635(4)
H9 H -0.0444 0.3293 1.2347
C15 C 0.0779(5) 0.6376(5) 1.2618(4)
C16 C 0.0570(5) 0.5020(4) 1.2133(4)
O3 O -0.2193(5) 0.2584(3) 1.3684(3)
N5 N -0.2097(5) 0.3750(4) 1.4070(4)
C17 C -0.1137(5) 0.4640(4) 1.3574(4)
C18 C -0.1043(6) 0.5946(4) 1.4019(4)
H10 H -0.1603 0.6241 1.4632
C19 C -0.0111(6) 0.6792(5) 1.3539(4)
H11 H -0.0061 0.7667 1.3826
O4 O -0.2853(4) 0.4170(3) 1.4870(3)
O5 O 0.3507(5) 0.2440(4) 0.4542(4)
C20 C 0.3004(6) 0.1283(5) 0.4105(5)
C21 C 0.1537(10) 0.0959(8) 0.3228(8)
H12 H 0.1302 0.0045 0.2980
H13 H 0.1700 0.1342 0.2554
H14 H 0.0676 0.1283 0.3588
Pb1_2 Pb -0.41867(2) 0.208705(16) 1.582996(15)
Pb1A Pb 0.41867(2) -0.208705(16) 0.417004(15)
Pb1A_2 Pb 0.41867(2) 0.791295(16) 1.417004(15)
O1A O 0.6311(5) -0.0416(4) 0.5612(4)
O2A O 0.8250(4) 0.2806(3) 0.7735(3)
O4_2 O 0.7147(4) 0.4170(3) 0.4870(3)
O6 O 0.1741(6) 0.8295(4) 1.0190(4)
H15 H 0.1963 0.7510 1.0123
H16 H 0.1657 0.8343 1.0915
loop_
_geom_bond_atom_site_label_1
_geom_bond_atom_site_label_2
_geom_bond_site_symmetry_1
_geom_bond_site_symmetry_2
Pb1 N1 1_555 1_555
C1 H1 1_555 1_555
C2 N2 1_555 1_555
N1 C1 1_555 1_555
N2 H2 1_555 1_555
N3 C6 1_555 1_555
C3 C5 1_555 1_555
C4 C2 1_555 1_555
O1 Pb1 1_555 1_555
C5 H3 1_555 1_555
C6 N2 1_555 1_555
C7 C5 1_555 1_555
H4 C7 1_555 1_555
C8 C1 1_555 1_555
H5 C8 1_555 1_555
N4 Pb1 1_555 1_555
C9 C3 1_555 1_555
C10 C2 1_555 1_555
C11 C7 1_555 1_555
H6 C11 1_555 1_555
C12 N1 1_555 1_555
C13 C4 1_555 1_555
H7 C13 1_555 1_555
O2 H8 1_555 1_555
C14 H9 1_555 1_555
C15 O2 1_555 1_555
C16 C6 1_555 1_555
O3 N5 1_555 1_555
N5 C17 1_555 1_555
C17 C14 1_555 1_555
C18 C17 1_555 1_555
H10 C18 1_555 1_555
C19 C15 1_555 1_555
H11 C19 1_555 1_555
O4 N5 1_555 1_555
O5 Pb1 1_555 1_555
C20 O1 1_555 1_555
C21 C20 1_555 1_555
H12 C21 1_555 1_555
H13 C21 1_555 1_555
H14 C21 1_555 1_555
O6 H15 1_555 1_555
H16 O6 1_555 1_555
Pb1_2 O4 1_555 1_555
Pb1A O1 1_555 1_555
Pb1A_2 O2 1_555 1_555
O1A Pb1 1_555 1_555
O2A Pb1 1_555 1_555
O4_2 Pb1 1_555 1_555
N3 C10 1_555 1_555
C3 C10 1_555 1_555
C4 C12 1_555 1_555
C8 C13 1_555 1_555
N4 C9 1_555 1_555
N4 C11 1_555 1_555
C9 C12 1_555 1_555
C14 C16 1_555 1_555
C15 C16 1_555 1_555
C18 C19 1_555 1_555
O5 C20 1_555 1_555
Pb1A O1A 1_555 1_555

#END
