
#######################################################################
#
#                 Cambridge Crystallographic Data Centre
#                                CCDC 
#
#######################################################################
#
# If this CIF has been generated from an entry in the Cambridge 
# Structural Database, then it will include bibliographic, chemical, 
# crystal, experimental, refinement or atomic coordinate data resulting 
# from the CCDC's data processing and validation procedures.
#
#######################################################################

data_DIHDOP
_symmetry_cell_setting           monoclinic
_symmetry_space_group_name_H-M   'P 21'
_symmetry_Int_Tables_number      4
_space_group_name_Hall           'P 2yb'
loop_
_symmetry_equiv_pos_site_id
_symmetry_equiv_pos_as_xyz
1 x,y,z
2 -x,1/2+y,-z
_cell_length_a                   6.0658(6)
_cell_length_b                   15.540(2)
_cell_length_c                   9.1328(9)
_cell_angle_alpha                90
_cell_angle_beta                 107.052(7)
_cell_angle_gamma                90
_cell_volume                     823.036
loop_
_atom_site_label
_atom_site_type_symbol
_atom_site_fract_x
_atom_site_fract_y
_atom_site_fract_z
Co1 Co -0.21365(5) 0.12087(2) 0.07315(4)
O1 O 0.0264(4) 0.04024(15) 0.0117(3)
H1 H 0.007(6) -0.0147(16) 0.021(4)
H2 H 0.129(5) 0.053(2) 0.096(3)
O2 O -0.3997(5) 0.01936(18) 0.1248(3)
H3 H -0.337(6) -0.0292(19) 0.147(4)
H4 H -0.474(6) 0.033(2) 0.186(4)
O3 O -0.0270(4) 0.22488(14) 0.0365(3)
C1 C -0.1159(5) 0.29758(18) 0.0391(3)
O4 O -0.0317(5) 0.36506(18) 0.0032(4)
N1 N -0.4019(6) 0.22134(18) 0.1386(4)
H5 H -0.5541 0.2107 0.1026
H6 H -0.3637 0.2246 0.2414
C2 C -0.3469(5) 0.30396(18) 0.0750(3)
H7 H -0.4647 0.3115 -0.0237
C3 C -0.3691(6) 0.3822(2) 0.1731(4)
H8 H -0.3255 0.4336 0.1280
H9 H -0.5294 0.3885 0.1704
C4 C -0.2236(6) 0.37633(19) 0.3378(3)
C5 C -0.3164(6) 0.3471(3) 0.4507(4)
H10 H -0.4708 0.3310 0.4235
C6 C -0.1851(6) 0.3411(2) 0.6030(4)
H11 H -0.2503 0.3199 0.6760
C7 C 0.0406(6) 0.3665(2) 0.6450(3)
O5 O 0.1821(4) 0.36348(15) 0.7938(2)
H12 H 0.1046 0.3534 0.8518
C8 C 0.1390(6) 0.3952(2) 0.5351(4)
H13 H 0.2934 0.4113 0.5629
C9 C 0.0069(7) 0.3999(3) 0.3844(4)
H14 H 0.0745 0.4194 0.3114
O6 O -0.0071(3) 0.1205(2) 0.31185(17)
C10 C 0.2049(5) 0.1087(3) 0.3540(3)
O7 O 0.3259(4) 0.09026(18) 0.2682(2)
C11 C 0.3327(4) 0.1152(3) 0.5230(3)
C12 C 0.2243(5) 0.1360(3) 0.6307(3)
H15 H 0.0677 0.1488 0.6007
C13 C 0.3491(5) 0.1378(2) 0.7839(3)
H16 H 0.2718 0.1510 0.8552
N2 N 0.5747(3) 0.1215(3) 0.8348(2)
C14 C 0.6793(5) 0.1045(3) 0.7283(3)
H17 H 0.8374 0.0946 0.7600
C15 C 0.5656(5) 0.1008(3) 0.5744(3)
H18 H 0.6469 0.0886 0.5050
Co1_2 Co 0.78635(5) 0.12087(2) 1.07315(4)
N2_2 N -0.4253(3) 0.1215(3) -0.1652(2)
loop_
_geom_bond_atom_site_label_1
_geom_bond_atom_site_label_2
_geom_bond_site_symmetry_1
_geom_bond_site_symmetry_2
Co1 O1 1_555 1_555
O1 H1 1_555 1_555
H2 O1 1_555 1_555
O2 Co1 1_555 1_555
H3 O2 1_555 1_555
H4 O2 1_555 1_555
O3 Co1 1_555 1_555
C1 O3 1_555 1_555
O4 C1 1_555 1_555
N1 Co1 1_555 1_555
H5 N1 1_555 1_555
H6 N1 1_555 1_555
C2 C1 1_555 1_555
H7 C2 1_555 1_555
C3 C2 1_555 1_555
H8 C3 1_555 1_555
H9 C3 1_555 1_555
C4 C3 1_555 1_555
C5 C4 1_555 1_555
H10 C5 1_555 1_555
C6 C5 1_555 1_555
H11 C6 1_555 1_555
C7 C6 1_555 1_555
O5 C7 1_555 1_555
H12 O5 1_555 1_555
C8 C7 1_555 1_555
H13 C8 1_555 1_555
C9 C4 1_555 1_555
H14 C9 1_555 1_555
O6 Co1 1_555 1_555
C10 O6 1_555 1_555
O7 C10 1_555 1_555
C11 C10 1_555 1_555
C12 C11 1_555 1_555
H15 C12 1_555 1_555
C13 C12 1_555 1_555
H16 C13 1_555 1_555
N2 C13 1_555 1_555
C14 N2 1_555 1_555
H17 C14 1_555 1_555
C15 C11 1_555 1_555
H18 C15 1_555 1_555
Co1_2 N2 1_555 1_555
N2_2 Co1 1_555 1_555
N1 C2 1_555 1_555
C8 C9 1_555 1_555
C14 C15 1_555 1_555

#END
