
#######################################################################
#
#                 Cambridge Crystallographic Data Centre
#                                CCDC 
#
#######################################################################
#
# If this CIF has been generated from an entry in the Cambridge 
# Structural Database, then it will include bibliographic, chemical, 
# crystal, experimental, refinement or atomic coordinate data resulting 
# from the CCDC's data processing and validation procedures.
#
#######################################################################

data_DIHFAD
_symmetry_cell_setting           triclinic
_symmetry_space_group_name_H-M   'P -1'
_symmetry_Int_Tables_number      2
_space_group_name_Hall           '-P 1'
loop_
_symmetry_equiv_pos_site_id
_symmetry_equiv_pos_as_xyz
1 x,y,z
2 -x,-y,-z
_cell_length_a                   10.2341(2)
_cell_length_b                   10.5536(2)
_cell_length_c                   10.9976(2)
_cell_angle_alpha                94.6444(18)
_cell_angle_beta                 108.0186(19)
_cell_angle_gamma                108.183(2)
_cell_volume                     1052.24
loop_
_atom_site_label
_atom_site_type_symbol
_atom_site_fract_x
_atom_site_fract_y
_atom_site_fract_z
Pt1 Pt 0.0000 0.0000 0.0000
Mn1 Mn 0.50570(3) 0.42339(3) 0.37062(3)
O1 O 0.36490(15) 0.47723(14) 0.25849(13)
O2 O 0.39592(15) 0.36661(14) 0.48076(13)
S1 S 0.09678(6) 0.23996(5) 0.01552(5)
S2 S 0.04641(6) 0.04240(6) 0.22776(5)
S3 S 0.23627(5) -0.01664(5) 0.04656(5)
N1 N 0.65117(18) 0.50213(17) 0.28965(16)
N2 N 0.66767(18) 0.37562(17) 0.48499(16)
N3 N -0.0295(2) 0.2822(2) -0.2387(2)
N4 N -0.0707(2) 0.2416(2) 0.2786(2)
N5 N 0.41917(19) 0.21511(18) 0.24346(17)
C1 C 0.3761(2) 0.5526(2) 0.16922(19)
C2 C 0.2518(2) 0.5812(2) 0.0987(2)
H1 H 0.1625 0.5439 0.1141
C3 C 0.2584(2) 0.6625(2) 0.0077(2)
H2 H 0.1729 0.6795 -0.0401
C4 C 0.3885(2) 0.7205(2) -0.0155(2)
H3 H 0.3928 0.7796 -0.0761
C5 C 0.5102(2) 0.6915(2) 0.0495(2)
H4 H 0.5983 0.7295 0.0322
C6 C 0.5067(2) 0.6065(2) 0.14154(19)
C7 C 0.6361(2) 0.5755(2) 0.2021(2)
H5 H 0.7176 0.6124 0.1752
C8 C 0.7858(2) 0.4687(2) 0.3377(2)
H6 H 0.8709 0.5425 0.3328
H7 H 0.7738 0.3834 0.2836
C9 C 0.8113(2) 0.4522(2) 0.4784(2)
H8 H 0.8795 0.4023 0.5051
H9 H 0.8545 0.5424 0.5372
C10 C 0.6523(2) 0.2859(2) 0.55639(19)
H10 H 0.7367 0.2663 0.6024
C11 C 0.5150(2) 0.2127(2) 0.5714(2)
C12 C 0.3923(2) 0.2541(2) 0.53188(19)
C13 C 0.2637(2) 0.1792(2) 0.5514(2)
H11 H 0.1801 0.2056 0.5246
C14 C 0.2574(3) 0.0673(2) 0.6091(2)
H12 H 0.1689 0.0167 0.6207
C15 C 0.3789(3) 0.0275(2) 0.6507(2)
H13 H 0.3739 -0.0493 0.6911
C16 C 0.5062(3) 0.1006(2) 0.6326(2)
H14 H 0.5898 0.0746 0.6623
C17 C 0.0185(2) 0.2606(2) -0.1366(2)
C18 C -0.0235(2) 0.1617(2) 0.2516(2)
C19 C 0.3426(2) 0.1211(2) 0.1630(2)
Mn1A Mn -0.50570(3) -0.42339(3) -0.37062(3)
O1A O -0.36490(15) -0.47723(14) -0.25849(13)
O2A O -0.39592(15) -0.36661(14) -0.48076(13)
S1A S -0.09678(6) -0.23996(5) -0.01552(5)
S2A S -0.04641(6) -0.04240(6) -0.22776(5)
S3A S -0.23627(5) 0.01664(5) -0.04656(5)
N1A N -0.65117(18) -0.50213(17) -0.28965(16)
N2A N -0.66767(18) -0.37562(17) -0.48499(16)
N3A N 0.0295(2) -0.2822(2) 0.2387(2)
N4A N 0.0707(2) -0.2416(2) -0.2786(2)
N5A N -0.41917(19) -0.21511(18) -0.24346(17)
C1A C -0.3761(2) -0.5526(2) -0.16922(19)
C2A C -0.2518(2) -0.5812(2) -0.0987(2)
H1A H -0.1625 -0.5439 -0.1141
C3A C -0.2584(2) -0.6625(2) -0.0077(2)
H2A H -0.1729 -0.6795 0.0401
C4A C -0.3885(2) -0.7205(2) 0.0155(2)
H3A H -0.3928 -0.7796 0.0761
C5A C -0.5102(2) -0.6915(2) -0.0495(2)
H4A H -0.5983 -0.7295 -0.0322
C6A C -0.5067(2) -0.6065(2) -0.14154(19)
C7A C -0.6361(2) -0.5755(2) -0.2021(2)
H5A H -0.7176 -0.6124 -0.1752
C8A C -0.7858(2) -0.4687(2) -0.3377(2)
H6A H -0.8709 -0.5425 -0.3328
H7A H -0.7738 -0.3834 -0.2836
C9A C -0.8113(2) -0.4522(2) -0.4784(2)
H8A H -0.8795 -0.4023 -0.5051
H9A H -0.8545 -0.5424 -0.5372
C10A C -0.6523(2) -0.2859(2) -0.55639(19)
H10A H -0.7367 -0.2663 -0.6024
C11A C -0.5150(2) -0.2127(2) -0.5714(2)
C12A C -0.3923(2) -0.2541(2) -0.53188(19)
C13A C -0.2637(2) -0.1792(2) -0.5514(2)
H11A H -0.1801 -0.2056 -0.5246
C14A C -0.2574(3) -0.0673(2) -0.6091(2)
H12A H -0.1689 -0.0167 -0.6207
C15A C -0.3789(3) -0.0275(2) -0.6507(2)
H13A H -0.3739 0.0493 -0.6911
C16A C -0.5062(3) -0.1006(2) -0.6326(2)
H14A H -0.5898 -0.0746 -0.6623
C17A C -0.0185(2) -0.2606(2) 0.1366(2)
C18A C 0.0235(2) -0.1617(2) -0.2516(2)
C19A C -0.3426(2) -0.1211(2) -0.1630(2)
Mn1_2 Mn -0.49430(3) -0.57661(3) -0.62938(3)
Mn1A_2 Mn 0.49430(3) 0.57661(3) 0.62938(3)
O2_2 O -0.60408(15) -0.63339(14) -0.51924(13)
O2A_2 O 0.60408(15) 0.63339(14) 0.51924(13)
loop_
_geom_bond_atom_site_label_1
_geom_bond_atom_site_label_2
_geom_bond_site_symmetry_1
_geom_bond_site_symmetry_2
Pt1 S1 1_555 1_555
Mn1 O1 1_555 1_555
O1 C1 1_555 1_555
O2 Mn1 1_555 1_555
S1 C17 1_555 1_555
S2 Pt1 1_555 1_555
S3 Pt1 1_555 1_555
N1 Mn1 1_555 1_555
N2 Mn1 1_555 1_555
N3 C17 1_555 1_555
N4 C18 1_555 1_555
N5 Mn1 1_555 1_555
C1 C2 1_555 1_555
C2 H1 1_555 1_555
C3 C2 1_555 1_555
H2 C3 1_555 1_555
C4 C3 1_555 1_555
H3 C4 1_555 1_555
C5 C4 1_555 1_555
H4 C5 1_555 1_555
C6 C1 1_555 1_555
C7 N1 1_555 1_555
H5 C7 1_555 1_555
C8 N1 1_555 1_555
H6 C8 1_555 1_555
H7 C8 1_555 1_555
C9 N2 1_555 1_555
H8 C9 1_555 1_555
H9 C9 1_555 1_555
C10 N2 1_555 1_555
H10 C10 1_555 1_555
C11 C10 1_555 1_555
C12 O2 1_555 1_555
C13 C12 1_555 1_555
H11 C13 1_555 1_555
C14 C13 1_555 1_555
H12 C14 1_555 1_555
C15 C14 1_555 1_555
H13 C15 1_555 1_555
C16 C11 1_555 1_555
H14 C16 1_555 1_555
C18 S2 1_555 1_555
C19 S3 1_555 1_555
Mn1A O1A 1_555 1_555
O1A C1A 1_555 1_555
O2A Mn1A 1_555 1_555
S1A Pt1 1_555 1_555
S2A Pt1 1_555 1_555
S3A Pt1 1_555 1_555
N1A Mn1A 1_555 1_555
N2A Mn1A 1_555 1_555
N3A C17A 1_555 1_555
N4A C18A 1_555 1_555
N5A Mn1A 1_555 1_555
C1A C2A 1_555 1_555
C2A H1A 1_555 1_555
C3A C2A 1_555 1_555
H2A C3A 1_555 1_555
C4A C3A 1_555 1_555
H3A C4A 1_555 1_555
C5A C4A 1_555 1_555
H4A C5A 1_555 1_555
C6A C1A 1_555 1_555
C7A N1A 1_555 1_555
H5A C7A 1_555 1_555
C8A N1A 1_555 1_555
H6A C8A 1_555 1_555
H7A C8A 1_555 1_555
C9A N2A 1_555 1_555
H8A C9A 1_555 1_555
H9A C9A 1_555 1_555
C10A N2A 1_555 1_555
H10A C10A 1_555 1_555
C11A C10A 1_555 1_555
C12A O2A 1_555 1_555
C13A C12A 1_555 1_555
H11A C13A 1_555 1_555
C14A C13A 1_555 1_555
H12A C14A 1_555 1_555
C15A C14A 1_555 1_555
H13A C15A 1_555 1_555
C16A C11A 1_555 1_555
H14A C16A 1_555 1_555
C17A S1A 1_555 1_555
C18A S2A 1_555 1_555
C19A S3A 1_555 1_555
Mn1_2 O2A 1_555 1_555
Mn1A_2 O2 1_555 1_555
O2_2 Mn1A 1_555 1_555
O2A_2 Mn1 1_555 1_555
N5 C19 1_555 1_555
C5 C6 1_555 1_555
C6 C7 1_555 1_555
C8 C9 1_555 1_555
C11 C12 1_555 1_555
C15 C16 1_555 1_555
N5A C19A 1_555 1_555
C5A C6A 1_555 1_555
C6A C7A 1_555 1_555
C8A C9A 1_555 1_555
C11A C12A 1_555 1_555
C15A C16A 1_555 1_555
Mn1_2 O2_2 1_555 1_555
Mn1A_2 O2A_2 1_555 1_555

#END
