
#######################################################################
#
#                 Cambridge Crystallographic Data Centre
#                                CCDC 
#
#######################################################################
#
# If this CIF has been generated from an entry in the Cambridge 
# Structural Database, then it will include bibliographic, chemical, 
# crystal, experimental, refinement or atomic coordinate data resulting 
# from the CCDC's data processing and validation procedures.
#
#######################################################################

data_DIHHOS
_symmetry_cell_setting           triclinic
_symmetry_space_group_name_H-M   'P -1'
_symmetry_Int_Tables_number      2
_space_group_name_Hall           '-P 1'
loop_
_symmetry_equiv_pos_site_id
_symmetry_equiv_pos_as_xyz
1 x,y,z
2 -x,-y,-z
_cell_length_a                   8.7375(19)
_cell_length_b                   9.375(2)
_cell_length_c                   7.9659(17)
_cell_angle_alpha                79.093(7)
_cell_angle_beta                 64.251(7)
_cell_angle_gamma                81.777(8)
_cell_volume                     575.745
loop_
_atom_site_label
_atom_site_type_symbol
_atom_site_fract_x
_atom_site_fract_y
_atom_site_fract_z
Cu1 Cu 0.47804(16) 0.86609(12) 0.09669(17)
Br1 Br 0.47080(9) 0.63744(8) 0.27725(11)
Br2 Br 0.25652(10) 1.01253(9) 0.03419(13)
Cu2 Cu 0.5000 0.5000 0.0000
O1 O 0.4387(6) 0.3007(5) 0.2069(7)
N1 N 0.2508(7) 0.5185(6) 0.1010(8)
C1 C 0.1607(9) 0.6305(7) 0.0501(10)
C2 C -0.0164(10) 0.6394(9) 0.1359(12)
C3 C -0.1009(8) 0.5321(9) 0.2757(11)
C4 C -0.0072(9) 0.4173(9) 0.3294(10)
C5 C 0.1660(8) 0.4130(7) 0.2396(9)
C6 C 0.2836(7) 0.2979(6) 0.2905(9)
O2 O 0.2037(6) 0.1998(5) 0.4300(7)
C7 C 0.3104(11) 0.0815(9) 0.4862(13)
C8 C 0.2049(13) -0.0437(10) 0.5895(14)
H1 H 0.2690 -0.1187 0.6369
H2 H 0.1729 -0.0810 0.5059
H3 H 0.1043 -0.0127 0.6926
H4 H 0.232(10) 0.707(9) -0.075(11)
H5 H -0.084(13) 0.723(11) 0.106(13)
H6 H -0.235(13) 0.532(11) 0.338(14)
H7 H -0.065(10) 0.356(9) 0.415(11)
H8 H 0.410(13) 0.055(10) 0.377(13)
H9 H 0.334(15) 0.122(13) 0.580(17)
Cu1A Cu 0.52196(16) 0.13391(12) -0.09669(17)
Cu1A_2 Cu 0.52196(16) 1.13391(12) -0.09669(17)
Br1A Br 0.52920(9) 0.36256(8) -0.27725(11)
Br2A Br 0.74348(10) 0.98747(9) -0.03419(13)
Br2_2 Br 0.25652(10) 0.01253(9) 0.03419(13)
Br2A_2 Br 0.74348(10) -0.01253(9) -0.03419(13)
O1A O 0.5613(6) 0.6993(5) -0.2069(7)
N1A N 0.7492(7) 0.4815(6) -0.1010(8)
C1A C 0.8393(9) 0.3695(7) -0.0501(10)
C2A C 1.0164(10) 0.3606(9) -0.1359(12)
C3A C 1.1009(8) 0.4679(9) -0.2757(11)
C4A C 1.0072(9) 0.5827(9) -0.3294(10)
C5A C 0.8340(8) 0.5870(7) -0.2396(9)
C6A C 0.7164(7) 0.7021(6) -0.2905(9)
O2A O 0.7963(6) 0.8002(5) -0.4300(7)
C7A C 0.6896(11) 0.9185(9) -0.4862(13)
C8A C 0.7951(13) 1.0437(10) -0.5895(14)
H1A H 0.7310 1.1187 -0.6369
H2A H 0.8271 1.0810 -0.5059
H3A H 0.8957 1.0127 -0.6926
H4A H 0.768(10) 0.293(9) 0.075(11)
H5A H 1.084(13) 0.277(11) -0.106(13)
H6A H 1.235(13) 0.468(11) -0.338(14)
H7A H 1.065(10) 0.644(9) -0.415(11)
H8A H 0.590(13) 0.945(10) -0.377(13)
H9A H 0.666(15) 0.878(13) -0.580(17)
loop_
_geom_bond_atom_site_label_1
_geom_bond_atom_site_label_2
_geom_bond_site_symmetry_1
_geom_bond_site_symmetry_2
Cu1 Br1 1_555 1_555
Br1 Cu2 1_555 1_555
Br2 Cu1 1_555 1_555
Cu2 O1 1_555 1_555
O1 C6 1_555 1_555
N1 Cu2 1_555 1_555
C1 N1 1_555 1_555
C2 C1 1_555 1_555
C3 C2 1_555 1_555
C4 C3 1_555 1_555
C5 N1 1_555 1_555
C6 C5 1_555 1_555
O2 C6 1_555 1_555
C7 O2 1_555 1_555
C8 C7 1_555 1_555
H1 C8 1_555 1_555
H2 C8 1_555 1_555
H3 C8 1_555 1_555
H4 C1 1_555 1_555
H5 C2 1_555 1_555
H6 C3 1_555 1_555
H7 C4 1_555 1_555
H8 C7 1_555 1_555
H9 C7 1_555 1_555
Cu1A Br1A 1_555 1_555
Cu1A_2 Br2 1_555 1_555
Br1A Cu2 1_555 1_555
Br2A Cu1 1_555 1_555
Br2_2 Cu1A 1_555 1_555
Br2A_2 Cu1A 1_555 1_555
O1A Cu2 1_555 1_555
N1A Cu2 1_555 1_555
C1A N1A 1_555 1_555
C2A C1A 1_555 1_555
C3A C2A 1_555 1_555
C4A C3A 1_555 1_555
C5A N1A 1_555 1_555
C6A O1A 1_555 1_555
O2A C6A 1_555 1_555
C7A O2A 1_555 1_555
C8A C7A 1_555 1_555
H1A C8A 1_555 1_555
H2A C8A 1_555 1_555
H3A C8A 1_555 1_555
H4A C1A 1_555 1_555
H5A C2A 1_555 1_555
H6A C3A 1_555 1_555
H7A C4A 1_555 1_555
H8A C7A 1_555 1_555
H9A C7A 1_555 1_555
C4 C5 1_555 1_555
Cu1A_2 Br2A 1_555 1_555
C4A C5A 1_555 1_555
C5A C6A 1_555 1_555

#END
