
#######################################################################
#
#                 Cambridge Crystallographic Data Centre
#                                CCDC 
#
#######################################################################
#
# If this CIF has been generated from an entry in the Cambridge 
# Structural Database, then it will include bibliographic, chemical, 
# crystal, experimental, refinement or atomic coordinate data resulting 
# from the CCDC's data processing and validation procedures.
#
#######################################################################

data_DIHKUB
_symmetry_cell_setting           triclinic
_symmetry_space_group_name_H-M   'P -1'
_symmetry_Int_Tables_number      2
_space_group_name_Hall           '-P 1'
loop_
_symmetry_equiv_pos_site_id
_symmetry_equiv_pos_as_xyz
1 x,y,z
2 -x,-y,-z
_cell_length_a                   13.2617(15)
_cell_length_b                   13.4100(15)
_cell_length_c                   13.4375(15)
_cell_angle_alpha                60.157(2)
_cell_angle_beta                 88.742(2)
_cell_angle_gamma                87.105(2)
_cell_volume                     2070.16
loop_
_atom_site_label
_atom_site_type_symbol
_atom_site_fract_x
_atom_site_fract_y
_atom_site_fract_z
Cl1 Cl 0.14935(11) 0.76634(13) 0.39697(13)
Cl2 Cl 0.07477(10) 0.85862(11) 0.60958(11)
Cl3 Cl 0.15171(11) 1.06860(13) 0.26816(13)
Cl4 Cl 0.24325(11) 1.10310(13) 0.51759(14)
Cl5 Cl 0.37959(10) 0.68123(11) 0.64465(12)
Cl6 Cl 0.44896(10) 0.97317(11) 0.37749(11)
C1 C -0.0868(5) 1.1377(5) 0.1215(5)
H1 H -0.0709 1.1728 0.1653
C2 C -0.1049(4) 1.2083(5) 0.0048(5)
H2 H -0.1044 1.2897 -0.0299
C3 C -0.1234(4) 1.1563(5) -0.0590(5)
H3 H -0.1341 1.2016 -0.1394
C4 C -0.1265(4) 1.0364(5) -0.0044(5)
H4 H -0.1390 0.9991 -0.0469
C5 C -0.1107(4) 0.9727(4) 0.1143(4)
C6 C -0.1147(4) 0.8455(4) 0.1785(4)
C7 C -0.1267(4) 0.7838(4) 0.1215(4)
H5 H -0.1377 0.8237 0.0409
C8 C -0.1228(4) 0.6638(4) 0.1823(4)
C9 C -0.1114(4) 0.6100(4) 0.3007(5)
H6 H -0.1073 0.5284 0.3454
C10 C -0.1060(4) 0.6763(4) 0.3535(4)
C11 C -0.1043(4) 0.6220(5) 0.4816(4)
C12 C -0.1287(4) 0.5073(4) 0.5523(5)
H7 H -0.1426 0.4602 0.5204
C13 C -0.1323(4) 0.4637(5) 0.6699(5)
H8 H -0.1479 0.3857 0.7195
C14 C -0.1133(4) 0.5335(5) 0.7146(4)
H9 H -0.1174 0.5057 0.7948
C15 C -0.0881(4) 0.6449(5) 0.6398(5)
H10 H -0.0732 0.6929 0.6705
C16 C -0.1448(4) 0.4228(5) 0.1147(5)
H11 H -0.1543 0.3424 0.1549
C17 C -0.1416(4) 0.4784(5) 0.1782(5)
H12 H -0.1484 0.4366 0.2593
C18 C -0.1280(4) 0.5979(4) 0.1205(5)
C19 C -0.1193(4) 0.6520(5) 0.0018(5)
H13 H -0.1108 0.7326 -0.0414
C20 C -0.1230(5) 0.5886(5) -0.0534(5)
H14 H -0.1164 0.6278 -0.1345
C21 C 0.3813(5) 1.2435(5) 0.1410(5)
H15 H 0.3819 1.1620 0.1866
C22 C 0.3799(4) 1.2916(5) 0.0236(5)
H16 H 0.3789 1.2446 -0.0108
C23 C 0.3801(4) 1.4090(5) -0.0425(5)
H17 H 0.3810 1.4447 -0.1238
C24 C 0.3788(4) 1.4754(5) 0.0108(5)
H18 H 0.3780 1.5569 -0.0335
C25 C 0.3788(4) 1.4201(4) 0.1300(4)
C26 C 0.3775(4) 1.4874(5) 0.1909(4)
C27 C 0.3719(4) 1.6074(4) 0.1311(4)
H19 H 0.3644 1.6479 0.0500
C28 C 0.3772(4) 1.6684(4) 0.1900(4)
C29 C 0.3838(4) 1.6039(4) 0.3099(4)
H20 H 0.3878 1.6417 0.3535
C30 C 0.3845(4) 1.4844(5) 0.3649(5)
C31 C 0.3837(4) 1.4139(4) 0.4920(4)
C32 C 0.3645(4) 1.4618(5) 0.5626(5)
H21 H 0.3545 1.5427 0.5303
C33 C 0.3602(4) 1.3900(5) 0.6798(5)
H22 H 0.3473 1.4213 0.7288
C34 C 0.3746(4) 1.2722(5) 0.7258(5)
H23 H 0.3708 1.2215 0.8062
C35 C 0.3948(4) 1.2301(5) 0.6516(5)
H24 H 0.4058 1.1494 0.6826
C36 C 0.3926(5) 1.9762(5) -0.0463(5)
H25 H 0.4089 2.0159 -0.1256
C37 C 0.3995(4) 1.8564(5) 0.0115(5)
H26 H 0.4205 1.8165 -0.0278
C38 C 0.3755(4) 1.7959(4) 0.1270(5)
C39 C 0.3483(4) 1.8604(5) 0.1806(4)
H27 H 0.3332 1.8230 0.2602
C40 C 0.3438(4) 1.9798(5) 0.1152(5)
H28 H 0.3250 2.0222 0.1526
N1 N -0.0906(4) 1.0228(4) 0.1756(4)
N2 N -0.1040(3) 0.7923(4) 0.2934(4)
N3 N -0.0836(3) 0.6893(4) 0.5250(4)
N4 N -0.1353(4) 0.4749(4) 0.0008(4)
N5 N 0.3818(4) 1.3055(4) 0.1948(4)
N6 N 0.3829(3) 1.4268(4) 0.3072(4)
N7 N 0.3994(3) 1.2992(4) 0.5371(4)
N8 N 0.3642(4) 2.0388(4) 0.0030(4)
Pb1 Pb 0.243737(15) 0.910949(17) 0.464593(17)
Pb2 Pb 0.436040(14) 1.206800(16) 0.412590(16)
Pb3 Pb -0.038478(15) 0.900540(16) 0.395269(16)
Cl2A Cl -0.07477(10) 1.14138(11) 0.39042(11)
Cl4A Cl -0.24325(11) 0.89690(13) 0.48241(14)
Cl5A Cl 0.62041(10) 1.31877(11) 0.35535(12)
Cl6A Cl 0.55104(10) 1.02683(11) 0.62251(11)
Pb2A Pb 0.563960(14) 0.793200(16) 0.587410(16)
Pb3A Pb 0.038478(15) 1.099460(16) 0.604731(16)
C41 C 0.3195(5) 0.8624(6) 0.7634(6)
H29 H 0.2939 0.8973 0.8085
H30 H 0.2640 0.8573 0.7194
H31 H 0.3717 0.9098 0.7106
O1 O 0.3612(4) 0.7509(4) 0.8378(4)
H32 H 0.3729 0.7162 0.8009
loop_
_geom_bond_atom_site_label_1
_geom_bond_atom_site_label_2
_geom_bond_site_symmetry_1
_geom_bond_site_symmetry_2
Cl1 Pb1 1_555 1_555
Cl2 Pb1 1_555 1_555
Cl3 Pb1 1_555 1_555
Cl4 Pb1 1_555 1_555
Cl5 Pb1 1_555 1_555
Cl6 Pb1 1_555 1_555
C1 H1 1_555 1_555
C2 C1 1_555 1_555
H2 C2 1_555 1_555
C3 C2 1_555 1_555
H3 C3 1_555 1_555
C4 C3 1_555 1_555
H4 C4 1_555 1_555
C5 C4 1_555 1_555
C6 C5 1_555 1_555
C7 C6 1_555 1_555
H5 C7 1_555 1_555
C8 C7 1_555 1_555
C9 C8 1_555 1_555
H6 C9 1_555 1_555
C10 C9 1_555 1_555
C11 C10 1_555 1_555
C12 C11 1_555 1_555
H7 C12 1_555 1_555
C13 C12 1_555 1_555
H8 C13 1_555 1_555
C14 C13 1_555 1_555
H9 C14 1_555 1_555
C15 C14 1_555 1_555
H10 C15 1_555 1_555
C16 H11 1_555 1_555
C17 C16 1_555 1_555
H12 C17 1_555 1_555
C18 C8 1_555 1_555
C19 C18 1_555 1_555
H13 C19 1_555 1_555
C20 C19 1_555 1_555
H14 C20 1_555 1_555
C21 H15 1_555 1_555
C22 C21 1_555 1_555
H16 C22 1_555 1_555
C23 C22 1_555 1_555
H17 C23 1_555 1_555
C24 C23 1_555 1_555
H18 C24 1_555 1_555
C25 C24 1_555 1_555
C26 C25 1_555 1_555
C27 C26 1_555 1_555
H19 C27 1_555 1_555
C28 C27 1_555 1_555
C29 C28 1_555 1_555
H20 C29 1_555 1_555
C30 C29 1_555 1_555
C31 C30 1_555 1_555
C32 C31 1_555 1_555
H21 C32 1_555 1_555
C33 C32 1_555 1_555
H22 C33 1_555 1_555
C34 C33 1_555 1_555
H23 C34 1_555 1_555
C35 C34 1_555 1_555
H24 C35 1_555 1_555
C36 H25 1_555 1_555
C37 C36 1_555 1_555
H26 C37 1_555 1_555
C38 C28 1_555 1_555
C39 C38 1_555 1_555
H27 C39 1_555 1_555
C40 C39 1_555 1_555
H28 C40 1_555 1_555
N1 C1 1_555 1_555
N2 C6 1_555 1_555
N3 C11 1_555 1_555
N4 C16 1_555 1_555
N5 C21 1_555 1_555
N6 C26 1_555 1_555
N7 C31 1_555 1_555
N8 C36 1_555 1_555
Pb2 Cl4 1_555 1_555
Pb3 Cl1 1_555 1_555
C41 H29 1_555 1_555
H30 C41 1_555 1_555
H31 C41 1_555 1_555
O1 C41 1_555 1_555
H32 O1 1_555 1_555
Cl2A Pb3 1_555 1_555
Cl4A Pb3 1_555 1_555
Cl5A Pb2 1_555 1_555
Cl6A Pb2 1_555 1_555
Pb2A Cl5 1_555 1_555
Pb3A Cl2 1_555 1_555
Cl2 Pb3 1_555 1_555
Cl3 Pb3 1_555 1_555
Cl4 Pb3A 1_555 1_555
Cl6 Pb2A 1_555 1_555
C5 N1 1_555 1_555
C10 N2 1_555 1_555
C15 N3 1_555 1_555
C17 C18 1_555 1_555
C20 N4 1_555 1_555
C25 N5 1_555 1_555
C30 N6 1_555 1_555
C35 N7 1_555 1_555
C37 C38 1_555 1_555
C40 N8 1_555 1_555
N1 Pb3 1_555 1_555
N2 Pb3 1_555 1_555
N3 Pb3 1_555 1_555
N5 Pb2 1_555 1_555
N6 Pb2 1_555 1_555
N7 Pb2 1_555 1_555
Cl2A Pb3A 1_555 1_555

#END
