
#######################################################################
#
#                 Cambridge Crystallographic Data Centre
#                                CCDC 
#
#######################################################################
#
# If this CIF has been generated from an entry in the Cambridge 
# Structural Database, then it will include bibliographic, chemical, 
# crystal, experimental, refinement or atomic coordinate data resulting 
# from the CCDC's data processing and validation procedures.
#
#######################################################################

data_DIHKOV
_symmetry_cell_setting           triclinic
_symmetry_space_group_name_H-M   'P 1'
_symmetry_Int_Tables_number      1
_space_group_name_Hall           'P 1'
loop_
_symmetry_equiv_pos_site_id
_symmetry_equiv_pos_as_xyz
1 x,y,z
_cell_length_a                   7.9946(16)
_cell_length_b                   9.881(2)
_cell_length_c                   10.343(2)
_cell_angle_alpha                81.25(3)
_cell_angle_beta                 84.95(3)
_cell_angle_gamma                68.13(3)
_cell_volume                     748.977
loop_
_atom_site_label
_atom_site_type_symbol
_atom_site_fract_x
_atom_site_fract_y
_atom_site_fract_z
H1 H 0.858(9) 0.692(8) 0.366(7)
O3 O 0.896(2) 0.679(2) 0.2988(15)
H24 H 1.014(5) 0.635(11) 0.276(9)
Pb1 Pb 0.28959(3) 0.79597(2) 0.79865(2)
Pb2 Pb 0.23714(3) 0.92939(2) 1.17059(2)
O1 O -0.0538(16) 0.9921(15) 0.7922(12)
S1 S -0.4853(5) 1.1093(5) 1.3301(4)
S2 S 1.0141(5) 0.6143(5) 0.6391(4)
O6 O 0.0647(15) 0.8901(14) 0.9864(12)
O7 O 0.4609(15) 0.8284(15) 0.9860(12)
O8 O -0.6731(16) 1.5770(14) 0.9591(13)
C4 C -0.4252(18) 1.1594(18) 1.1666(15)
O10 O 1.1953(16) 0.1466(14) 1.0064(14)
C5 C 0.9393(18) 0.5725(16) 0.8047(14)
O11 O -0.5889(18) 1.0195(16) 1.3239(13)
O12 O 1.1169(17) 0.7115(17) 0.6406(12)
O14 O 1.1209(19) 0.4773(16) 0.5943(15)
O15 O 1.0306(19) 0.2160(14) 1.1849(14)
C6 C -0.5165(17) 1.2922(18) 1.0981(15)
H14 H -0.6178 1.3578 1.1365
O16 O -0.5974(17) 1.2469(14) 1.3814(13)
C7 C 1.034(2) 0.4287(17) 0.8676(17)
H15 H 1.1263 0.3607 0.8241
O17 O -0.4891(18) 1.5144(15) 0.7900(12)
C8 C 0.8406(18) 0.4979(17) 1.0587(15)
H16 H 0.8073 0.4761 1.1455
C9 C 1.065(2) 0.2477(19) 1.0705(18)
C10 C 0.7980(18) 0.6657(17) 0.8606(16)
H17 H 0.7310 0.7531 0.8111
C11 C -0.315(2) 1.2292(17) 0.9158(14)
H18 H -0.2807 1.2538 0.8300
C12 C -0.2732(18) 1.0508(17) 1.1080(14)
H19 H -0.2131 0.9576 1.1518
C13 C 0.9829(19) 0.3930(17) 0.9972(16)
O18 O -0.3204(18) 1.032(2) 1.3987(13)
C14 C -0.461(2) 1.3313(19) 0.9719(18)
C15 C -0.2219(17) 1.0974(17) 0.9770(13)
O19 O 0.8502(16) 0.6926(19) 0.5690(12)
C16 C 0.7460(18) 0.6399(16) 0.9866(15)
C17 C -0.0630(18) 0.9843(17) 0.9123(15)
C18 C 0.584(2) 0.7375(18) 1.0530(16)
O20 O 0.5795(17) 0.7339(18) 1.1751(13)
C19 C -0.5566(18) 1.4890(15) 0.9049(14)
Pb1_2 Pb -0.71041(3) 1.79597(2) 0.79865(2)
Pb1_3 Pb 1.28959(3) 0.79597(2) 0.79865(2)
Pb2_2 Pb 1.23714(3) -0.07061(2) 1.17059(2)
Pb2_3 Pb -0.76286(3) 0.92939(2) 1.17059(2)
O8_2 O 0.3269(16) 0.5770(14) 0.9591(13)
O10_2 O 0.1953(16) 1.1466(14) 1.0064(14)
O11_2 O 0.4111(18) 1.0195(16) 1.3239(13)
O12_2 O 0.1169(17) 0.7115(17) 0.6406(12)
O15_2 O 0.0306(19) 1.2160(14) 1.1849(14)
O17_2 O 0.5109(18) 0.5144(15) 0.7900(12)
C1 C 0.778(3) 0.358(3) 0.491(4)
H2 H 0.7736 0.4075 0.5660
H3 H 0.7549 0.2694 0.5251
C2 C 0.6279(11) 0.4471(10) 0.4198(9)
H4 H 0.6270 0.3969 0.3465
H5 H 0.6499 0.5357 0.3833
C3 C 0.956(2) 0.3107(19) 0.4464(15)
H6 H 0.9896 0.3968 0.4278
H7 H 0.9609 0.2748 0.3635
N1 N 0.454(3) 0.493(3) 0.474(2)
H8 H 0.3756 0.5092 0.4119
H9 H 0.4308 0.5750 0.5089
H10 H 0.4433 0.4228 0.5360
N2 N 1.0894(13) 0.2049(14) 0.5211(13)
H11 H 1.0919 0.2359 0.5971
H12 H 1.1956 0.1883 0.4787
H13 H 1.0668 0.1221 0.5358
O2 O 0.640(2) 0.030(2) 0.6754(15)
O4 O 0.473(2) 0.782(2) 0.5440(14)
H20 H 0.572(12) 0.770(9) 0.549(8)
H22 H 0.451(10) 0.836(10) 0.490(8)
O5 O 0.0489(14) 0.9432(12) 0.4319(13)
O9 O 0.2862(19) 0.0817(17) 0.7498(12)
H21 H 0.376(11) 0.084(10) 0.747(8)
H23 H 0.269(12) 0.102(10) 0.816(9)
O13 O 0.2368(16) 0.6392(14) 0.2166(15)
loop_
_geom_bond_atom_site_label_1
_geom_bond_atom_site_label_2
_geom_bond_site_symmetry_1
_geom_bond_site_symmetry_2
H1 O3 1_555 1_555
Pb1 O1 1_555 1_555
Pb2 O6 1_555 1_555
O1 C17 1_555 1_555
C1 H2 1_555 1_555
H3 C1 1_555 1_555
C2 C1 1_555 1_555
H4 C2 1_555 1_555
H5 C2 1_555 1_555
C3 C1 1_555 1_555
H6 C3 1_555 1_555
H7 C3 1_555 1_555
N1 C2 1_555 1_555
H8 N1 1_555 1_555
H9 N1 1_555 1_555
H10 N1 1_555 1_555
N2 C3 1_555 1_555
H11 N2 1_555 1_555
H12 N2 1_555 1_555
H13 N2 1_555 1_555
O3 H24 1_555 1_555
O4 H20 1_555 1_555
S1 C4 1_555 1_555
S2 C5 1_555 1_555
O6 Pb1 1_555 1_555
O7 Pb1 1_555 1_555
O8 C19 1_555 1_555
O9 H21 1_555 1_555
C4 C6 1_555 1_555
O10 C9 1_555 1_555
C5 C7 1_555 1_555
O11 S1 1_555 1_555
O12 S2 1_555 1_555
O14 S2 1_555 1_555
O15 C9 1_555 1_555
C6 H14 1_555 1_555
O16 S1 1_555 1_555
C7 H15 1_555 1_555
O17 C19 1_555 1_555
C8 H16 1_555 1_555
C9 C13 1_555 1_555
C10 C5 1_555 1_555
H17 C10 1_555 1_555
C11 H18 1_555 1_555
C12 C4 1_555 1_555
H19 C12 1_555 1_555
C13 C7 1_555 1_555
O18 S1 1_555 1_555
C14 C6 1_555 1_555
C15 C11 1_555 1_555
O19 S2 1_555 1_555
C16 C8 1_555 1_555
C17 O6 1_555 1_555
C18 O7 1_555 1_555
O20 Pb2 1_555 1_555
C19 C14 1_555 1_555
H22 O4 1_555 1_555
H23 O9 1_555 1_555
Pb1_2 O8 1_555 1_555
Pb1_3 O12 1_555 1_555
Pb2_2 O10 1_555 1_555
Pb2_3 O11 1_555 1_555
O8_2 Pb1 1_555 1_555
O10_2 Pb2 1_555 1_555
O11_2 Pb2 1_555 1_555
O12_2 Pb1 1_555 1_555
O15_2 Pb2 1_555 1_555
O17_2 Pb1 1_555 1_555
Pb2 O7 1_555 1_555
O15 Pb2_2 1_555 1_555
O17 Pb1_2 1_555 1_555
C8 C13 1_555 1_555
C10 C16 1_555 1_555
C11 C14 1_555 1_555
C12 C15 1_555 1_555
C15 C17 1_555 1_555
C16 C18 1_555 1_555
C18 O20 1_555 1_555

#END
