
#######################################################################
#
#                 Cambridge Crystallographic Data Centre
#                                CCDC 
#
#######################################################################
#
# If this CIF has been generated from an entry in the Cambridge 
# Structural Database, then it will include bibliographic, chemical, 
# crystal, experimental, refinement or atomic coordinate data resulting 
# from the CCDC's data processing and validation procedures.
#
#######################################################################

data_DIHLIQ
_symmetry_cell_setting           monoclinic
_symmetry_space_group_name_H-M   'P 21/c'
_symmetry_Int_Tables_number      14
_space_group_name_Hall           '-P 2ybc'
loop_
_symmetry_equiv_pos_site_id
_symmetry_equiv_pos_as_xyz
1 x,y,z
2 -x,1/2+y,1/2-z
3 -x,-y,-z
4 x,1/2-y,1/2+z
_cell_length_a                   11.2128(13)
_cell_length_b                   22.422(3)
_cell_length_c                   8.1515(10)
_cell_angle_alpha                90
_cell_angle_beta                 105.634(2)
_cell_angle_gamma                90
_cell_volume                     1973.57
loop_
_atom_site_label
_atom_site_type_symbol
_atom_site_fract_x
_atom_site_fract_y
_atom_site_fract_z
Cu1 Cu 0.03085(4) 0.210963(19) 0.63523(6)
C1 C 0.1646(3) 0.12782(15) 0.4994(5)
H1 H 0.1070 0.1023 0.5254
C2 C 0.2560(3) 0.10354(15) 0.4378(4)
H2 H 0.2602 0.0625 0.4237
C3 C 0.3424(3) 0.14081(14) 0.3965(4)
C4 C 0.3307(3) 0.20173(15) 0.4184(5)
H3 H 0.3864 0.2282 0.3915
C5 C 0.2359(3) 0.22248(15) 0.4804(5)
H4 H 0.2282 0.2634 0.4926
C6 C 0.4434(3) 0.11481(14) 0.3351(4)
C7 C 0.6199(3) 0.12489(14) 0.2564(4)
C8 C 0.5331(3) 0.03445(14) 0.2515(4)
C9 C 0.5335(3) -0.03023(14) 0.2149(4)
C10 C 0.4405(3) -0.06716(16) 0.2391(5)
H5 H 0.3767 -0.0519 0.2796
C11 C 0.4447(4) -0.12688(16) 0.2017(6)
H6 H 0.3812 -0.1510 0.2177
C12 C 0.6212(4) -0.11690(16) 0.1228(5)
H7 H 0.6839 -0.1336 0.0828
C13 C 0.6262(3) -0.05633(16) 0.1559(4)
H8 H 0.6910 -0.0334 0.1389
C14 C 0.7198(3) 0.16358(15) 0.2267(4)
C15 C 0.8210(3) 0.13972(16) 0.1840(5)
H9 H 0.8287 0.0987 0.1740
C16 C 0.9105(3) 0.17775(16) 0.1562(5)
H10 H 0.9789 0.1611 0.1294
C17 C 0.8047(4) 0.25924(17) 0.2068(6)
H11 H 0.7985 0.3004 0.2156
C18 C 0.7120(3) 0.22462(16) 0.2360(6)
H12 H 0.6442 0.2423 0.2619
C19 C -0.0001(4) 0.10900(17) 0.8042(6)
C20 C -0.0002(3) 0.05268(14) 0.9068(4)
C21 C 0.0965(3) 0.03966(16) 1.0455(5)
H13 H 0.1629 0.0659 1.0775
C22 C -0.0969(3) 0.01209(17) 0.8612(5)
H14 H -0.1630 0.0197 0.7666
N1 N 0.1538(3) 0.18637(12) 0.5242(4)
N2 N 0.4397(2) 0.05632(12) 0.3052(4)
N3 N 0.6262(2) 0.06702(12) 0.2251(4)
N4 N 0.5316(2) 0.15153(12) 0.3127(4)
N5 N 0.5325(3) -0.15274(14) 0.1445(4)
N6 N 0.9041(3) 0.23684(12) 0.1658(4)
O1 O 0.0781(3) 0.14806(11) 0.8649(4)
O2 O -0.0797(3) 0.11371(12) 0.6639(4)
Cu1C Cu -0.96915(4) 0.289037(19) 1.13523(6)
Cu1C_2 Cu 1.03085(4) 0.289037(19) 0.13523(6)
Cu1B Cu -0.03085(4) -0.210963(19) 1.36477(6)
C1C C -0.8354(3) 0.37218(15) 0.9994(5)
H1C H -0.8930 0.3977 1.0254
C2C C -0.7440(3) 0.39646(15) 0.9378(4)
H2C H -0.7398 0.4375 0.9237
C3C C -0.6576(3) 0.35919(14) 0.8965(4)
C4C C -0.6693(3) 0.29827(15) 0.9184(5)
H3C H -0.6136 0.2718 0.8915
C5C C -0.7641(3) 0.27752(15) 0.9804(5)
H4C H -0.7718 0.2366 0.9926
C6C C -0.5566(3) 0.38519(14) 0.8351(4)
C7C C -0.3801(3) 0.37511(14) 0.7564(4)
C8C C -0.4669(3) 0.46555(14) 0.7515(4)
C9C C -0.4665(3) 0.53023(14) 0.7149(4)
C10C C -0.5595(3) 0.56716(16) 0.7391(5)
H5C H -0.6233 0.5519 0.7796
C11C C -0.5553(4) 0.62688(16) 0.7017(6)
H6C H -0.6188 0.6510 0.7177
C12C C -0.3788(4) 0.61690(16) 0.6228(5)
H7C H -0.3161 0.6336 0.5828
C13C C -0.3738(3) 0.55633(16) 0.6559(4)
H8C H -0.3090 0.5334 0.6389
C14C C -0.2802(3) 0.33642(15) 0.7267(4)
C15C C -0.1790(3) 0.36028(16) 0.6840(5)
H9C H -0.1713 0.4013 0.6740
C16C C -0.0895(3) 0.32225(16) 0.6562(5)
H10C H -0.0211 0.3389 0.6294
C17C C -0.1953(4) 0.24076(17) 0.7068(6)
H11C H -0.2015 0.1996 0.7156
C18C C -0.2880(3) 0.27538(16) 0.7360(6)
H12C H -0.3558 0.2577 0.7619
C19B C 0.0001(4) -0.10900(17) 1.1958(6)
C20B C 0.0002(3) -0.05268(14) 1.0932(4)
C21B C -0.0965(3) -0.03966(16) 0.9545(5)
H13B H -0.1629 -0.0659 0.9225
C22B C 0.0969(3) -0.01209(17) 1.1388(5)
H14B H 0.1630 -0.0197 1.2334
N1C N -0.8462(3) 0.31363(12) 1.0242(4)
N2C N -0.5603(2) 0.44368(12) 0.8052(4)
N3C N -0.3738(2) 0.43298(12) 0.7251(4)
N4C N -0.4684(2) 0.34847(12) 0.8127(4)
N5C N -0.4675(3) 0.65274(14) 0.6445(4)
N6C N -0.0959(3) 0.26316(12) 0.6658(4)
N6_2 N -1.0959(3) 0.23684(12) 1.1658(4)
O1B O -0.0781(3) -0.14806(11) 1.1351(4)
O1C O -0.9219(3) 0.35194(11) 1.3649(4)
O2B O 0.0797(3) -0.11371(12) 1.3361(4)
O2C O -1.0797(3) 0.38629(12) 1.1639(4)
O3 O 0.8822(5) 0.0174(2) 0.4398(7)
H15 H 0.8108 0.0284 0.4452
H16 H 0.9358 0.0272 0.5311
loop_
_geom_bond_atom_site_label_1
_geom_bond_atom_site_label_2
_geom_bond_site_symmetry_1
_geom_bond_site_symmetry_2
Cu1 N1 1_555 1_555
C1 H1 1_555 1_555
C2 C1 1_555 1_555
H2 C2 1_555 1_555
C3 C2 1_555 1_555
C4 C3 1_555 1_555
H3 C4 1_555 1_555
C5 C4 1_555 1_555
H4 C5 1_555 1_555
C6 C3 1_555 1_555
C7 C14 1_555 1_555
C8 C9 1_555 1_555
C9 C10 1_555 1_555
C10 H5 1_555 1_555
C11 C10 1_555 1_555
H6 C11 1_555 1_555
C12 H7 1_555 1_555
C13 C9 1_555 1_555
H8 C13 1_555 1_555
C14 C15 1_555 1_555
C15 H9 1_555 1_555
C16 C15 1_555 1_555
H10 C16 1_555 1_555
C17 H11 1_555 1_555
C18 C14 1_555 1_555
H12 C18 1_555 1_555
C19 C20 1_555 1_555
C20 C21 1_555 1_555
C21 H13 1_555 1_555
C22 C20 1_555 1_555
H14 C22 1_555 1_555
N1 C1 1_555 1_555
N2 C6 1_555 1_555
N3 C7 1_555 1_555
N4 C6 1_555 1_555
N5 C11 1_555 1_555
N6 C16 1_555 1_555
O1 Cu1 1_555 1_555
O2 Cu1 1_555 1_555
O3 H15 1_555 1_555
H16 O3 1_555 1_555
Cu1C N1C 1_555 1_555
Cu1C_2 N6 1_555 1_555
Cu1B O1B 1_555 1_555
C1C H1C 1_555 1_555
C2C C1C 1_555 1_555
H2C C2C 1_555 1_555
C3C C2C 1_555 1_555
C4C C3C 1_555 1_555
H3C C4C 1_555 1_555
C5C C4C 1_555 1_555
H4C C5C 1_555 1_555
C6C C3C 1_555 1_555
C7C C14C 1_555 1_555
C8C C9C 1_555 1_555
C9C C10C 1_555 1_555
C10C H5C 1_555 1_555
C11C C10C 1_555 1_555
H6C C11C 1_555 1_555
C12C H7C 1_555 1_555
C13C C9C 1_555 1_555
H8C C13C 1_555 1_555
C14C C15C 1_555 1_555
C15C H9C 1_555 1_555
C16C C15C 1_555 1_555
H10C C16C 1_555 1_555
C17C H11C 1_555 1_555
C18C C14C 1_555 1_555
H12C C18C 1_555 1_555
C19B C20B 1_555 1_555
C20B C21B 1_555 1_555
C21B C22 1_555 1_555
H13B C21B 1_555 1_555
C22B C21 1_555 1_555
H14B C22B 1_555 1_555
N1C C1C 1_555 1_555
N2C C6C 1_555 1_555
N3C C7C 1_555 1_555
N4C C6C 1_555 1_555
N5C C11C 1_555 1_555
N6C Cu1 1_555 1_555
N6_2 Cu1C 1_555 1_555
O1B C19B 1_555 1_555
O1C Cu1C 1_555 1_555
O2B Cu1B 1_555 1_555
O2C Cu1C 1_555 1_555
C5 N1 1_555 1_555
C7 N4 1_555 1_555
C8 N2 1_555 1_555
C8 N3 1_555 1_555
C12 C13 1_555 1_555
C12 N5 1_555 1_555
C17 C18 1_555 1_555
C17 N6 1_555 1_555
C19 O1 1_555 1_555
C19 O2 1_555 1_555
C5C N1C 1_555 1_555
C7C N4C 1_555 1_555
C8C N2C 1_555 1_555
C8C N3C 1_555 1_555
C12C C13C 1_555 1_555
C12C N5C 1_555 1_555
C16C N6C 1_555 1_555
C17C C18C 1_555 1_555
C17C N6C 1_555 1_555
C19B O2B 1_555 1_555
C20B C22B 1_555 1_555

#END
