
#######################################################################
#
#                 Cambridge Crystallographic Data Centre
#                                CCDC 
#
#######################################################################
#
# If this CIF has been generated from an entry in the Cambridge 
# Structural Database, then it will include bibliographic, chemical, 
# crystal, experimental, refinement or atomic coordinate data resulting 
# from the CCDC's data processing and validation procedures.
#
#######################################################################

data_DIHLEM
_symmetry_cell_setting           monoclinic
_symmetry_space_group_name_H-M   'P 21/n'
_symmetry_Int_Tables_number      14
_space_group_name_Hall           '-P 2yn'
loop_
_symmetry_equiv_pos_site_id
_symmetry_equiv_pos_as_xyz
1 x,y,z
2 1/2-x,1/2+y,1/2-z
3 -x,-y,-z
4 1/2+x,1/2-y,1/2+z
_cell_length_a                   9.9777(10)
_cell_length_b                   11.4022(11)
_cell_length_c                   19.4499(19)
_cell_angle_alpha                90
_cell_angle_beta                 98.4750(10)
_cell_angle_gamma                90
_cell_volume                     2188.61
loop_
_atom_site_label
_atom_site_type_symbol
_atom_site_fract_x
_atom_site_fract_y
_atom_site_fract_z
I1 I 1.09332(6) -0.23617(4) 0.13953(3)
Zn1 Zn 0.99517(5) -0.03588(5) 0.15801(3)
C1 C 1.1025(4) -0.0152(4) 0.3065(2)
H1 H 1.1716 -0.0602 0.2927
C2 C 1.1169(4) 0.0254(4) 0.3737(2)
H2 H 1.1952 0.0089 0.4044
C3 C 1.0144(4) 0.0909(4) 0.3954(2)
C4 C 0.8994(5) 0.1130(4) 0.3482(2)
H3 H 0.8278 0.1558 0.3612
C5 C 0.8931(5) 0.0700(4) 0.2814(2)
H4 H 0.8158 0.0853 0.2497
C6 C 1.0317(4) 0.1348(4) 0.4679(2)
C7 C 1.1690(4) 0.1607(4) 0.5701(2)
C8 C 0.9514(4) 0.2225(4) 0.5570(2)
C9 C 0.8412(4) 0.2845(4) 0.5846(2)
C10 C 0.8612(5) 0.3347(5) 0.6498(2)
H5 H 0.9429 0.3244 0.6790
C11 C 0.7597(5) 0.3998(5) 0.6711(3)
H6 H 0.7757 0.4347 0.7147
C12 C 0.6178(5) 0.3638(4) 0.5703(2)
H7 H 0.5334 0.3718 0.5432
C13 C 0.7151(4) 0.2987(4) 0.5445(2)
H8 H 0.6967 0.2646 0.5007
C14 C 1.3033(4) 0.1421(4) 0.6127(2)
C15 C 1.4093(5) 0.1016(6) 0.5821(3)
H9 H 1.3988 0.0882 0.5344
C16 C 1.5320(6) 0.0812(7) 0.6231(4)
H10 H 1.6028 0.0538 0.6013
C17 C 1.4530(6) 0.1366(6) 0.7193(3)
H11 H 1.4665 0.1494 0.7670
C18 C 1.3262(5) 0.1597(5) 0.6830(3)
H12 H 1.2571 0.1871 0.7061
C19 C 0.7362(5) -0.0304(5) 0.1047(3)
C20 C 0.6132(4) -0.0127(4) 0.0504(2)
C21 C 0.4904(4) -0.0643(4) 0.0593(2)
H13 H 0.4838 -0.1073 0.0993
C22 C 0.6219(4) 0.0517(4) -0.0089(2)
H14 H 0.7035 0.0868 -0.0149
N1 N 0.9927(4) 0.0077(3) 0.26018(18)
N2 N 1.1550(3) 0.1215(3) 0.50474(18)
N3 N 1.0713(3) 0.2134(3) 0.59879(19)
N4 N 0.9252(3) 0.1823(3) 0.49186(18)
N5 N 0.6383(4) 0.4160(3) 0.63237(19)
N6 N 1.5564(4) 0.0973(4) 0.6906(3)
O1 O 0.8438(3) 0.0220(3) 0.09337(17)
O2 O 0.7301(4) -0.0939(4) 0.1550(2)
I1C I 1.59332(6) 0.73617(4) -0.36047(3)
Zn1C Zn 1.49517(5) 0.53588(5) -0.34199(3)
Zn1C_2 Zn 0.49517(5) 0.53588(5) 0.65801(3)
Zn1B Zn 0.00483(5) 0.03588(5) -0.15801(3)
C1C C 1.6025(4) 0.5152(4) -0.1935(2)
H1C H 1.6716 0.5602 -0.2073
C2C C 1.6169(4) 0.4746(4) -0.1263(2)
H2C H 1.6952 0.4911 -0.0956
C3C C 1.5144(4) 0.4091(4) -0.1046(2)
C4C C 1.3994(5) 0.3870(4) -0.1518(2)
H3C H 1.3278 0.3442 -0.1388
C5C C 1.3931(5) 0.4300(4) -0.2186(2)
H4C H 1.3158 0.4147 -0.2503
C6C C 1.5317(4) 0.3652(4) -0.0321(2)
C7C C 1.6690(4) 0.3393(4) 0.0701(2)
C8C C 1.4514(4) 0.2775(4) 0.0570(2)
C9C C 1.3412(4) 0.2155(4) 0.0846(2)
C10C C 1.3612(5) 0.1653(5) 0.1498(2)
H5C H 1.4429 0.1756 0.1790
C11C C 1.2597(5) 0.1002(5) 0.1711(3)
H6C H 1.2757 0.0653 0.2147
C12C C 1.1178(5) 0.1362(4) 0.0703(2)
H7C H 1.0334 0.1282 0.0432
C13C C 1.2151(4) 0.2013(4) 0.0445(2)
H8C H 1.1967 0.2354 0.0007
C14C C 1.8033(4) 0.3579(4) 0.1127(2)
C15C C 1.9093(5) 0.3984(6) 0.0821(3)
H9C H 1.8988 0.4118 0.0344
C16C C 2.0320(6) 0.4188(7) 0.1231(4)
H10C H 2.1028 0.4462 0.1013
C17C C 1.9530(6) 0.3634(6) 0.2193(3)
H11C H 1.9665 0.3506 0.2670
C18C C 1.8262(5) 0.3403(5) 0.1830(3)
H12C H 1.7571 0.3129 0.2061
C19B C 0.2638(5) 0.0304(5) -0.1047(3)
C20B C 0.3868(4) 0.0127(4) -0.0504(2)
C21B C 0.5096(4) 0.0643(4) -0.0593(2)
H13B H 0.5162 0.1073 -0.0993
C22B C 0.3781(4) -0.0517(4) 0.0089(2)
H14B H 0.2965 -0.0868 0.0149
N1C N 1.4927(4) 0.4923(3) -0.23982(18)
N2C N 1.6550(3) 0.3785(3) 0.00474(18)
N3C N 1.5713(3) 0.2866(3) 0.09879(19)
N4C N 1.4252(3) 0.3177(3) -0.00814(18)
N5C N 1.1383(4) 0.0840(3) 0.13237(19)
N5_2 N 1.6383(4) 0.4160(3) -0.36763(19)
N6C N 2.0564(4) 0.4027(4) 0.1906(3)
O1B O 0.1562(3) -0.0220(3) -0.09337(17)
O1C O 1.3438(3) 0.4780(3) -0.40663(17)
O2B O 0.2699(4) 0.0939(4) -0.1550(2)
loop_
_geom_bond_atom_site_label_1
_geom_bond_atom_site_label_2
_geom_bond_site_symmetry_1
_geom_bond_site_symmetry_2
I1 Zn1 1_555 1_555
Zn1 N1 1_555 1_555
C1 H1 1_555 1_555
C2 C1 1_555 1_555
H2 C2 1_555 1_555
C3 C2 1_555 1_555
C4 C3 1_555 1_555
H3 C4 1_555 1_555
C5 C4 1_555 1_555
H4 C5 1_555 1_555
C6 C3 1_555 1_555
C7 C14 1_555 1_555
C8 C9 1_555 1_555
C9 C10 1_555 1_555
C10 H5 1_555 1_555
C11 C10 1_555 1_555
H6 C11 1_555 1_555
C12 H7 1_555 1_555
C13 C9 1_555 1_555
H8 C13 1_555 1_555
C14 C15 1_555 1_555
C15 H9 1_555 1_555
C16 C15 1_555 1_555
H10 C16 1_555 1_555
C17 H11 1_555 1_555
C18 C14 1_555 1_555
H12 C18 1_555 1_555
C19 C20 1_555 1_555
C20 C21 1_555 1_555
C21 H13 1_555 1_555
C22 C20 1_555 1_555
H14 C22 1_555 1_555
N1 C1 1_555 1_555
N2 C6 1_555 1_555
N3 C7 1_555 1_555
N4 C6 1_555 1_555
N5 C11 1_555 1_555
N6 C16 1_555 1_555
O1 Zn1 1_555 1_555
O2 C19 1_555 1_555
I1C Zn1C 1_555 1_555
Zn1C N1C 1_555 1_555
Zn1C_2 N5 1_555 1_555
Zn1B O1B 1_555 1_555
C1C H1C 1_555 1_555
C2C C1C 1_555 1_555
H2C C2C 1_555 1_555
C3C C2C 1_555 1_555
C4C C3C 1_555 1_555
H3C C4C 1_555 1_555
C5C C4C 1_555 1_555
H4C C5C 1_555 1_555
C6C C3C 1_555 1_555
C7C C14C 1_555 1_555
C8C C9C 1_555 1_555
C9C C10C 1_555 1_555
C10C H5C 1_555 1_555
C11C C10C 1_555 1_555
H6C C11C 1_555 1_555
C12C H7C 1_555 1_555
C13C C9C 1_555 1_555
H8C C13C 1_555 1_555
C14C C15C 1_555 1_555
C15C H9C 1_555 1_555
C16C C15C 1_555 1_555
H10C C16C 1_555 1_555
C17C H11C 1_555 1_555
C18C C14C 1_555 1_555
H12C C18C 1_555 1_555
C19B C20B 1_555 1_555
C20B C21B 1_555 1_555
C21B C22 1_555 1_555
H13B C21B 1_555 1_555
C22B C21 1_555 1_555
H14B C22B 1_555 1_555
N1C C1C 1_555 1_555
N2C C6C 1_555 1_555
N3C C7C 1_555 1_555
N4C C6C 1_555 1_555
N5C Zn1 1_555 1_555
N5_2 Zn1C 1_555 1_555
N6C C16C 1_555 1_555
O1B C19B 1_555 1_555
O1C Zn1C 1_555 1_555
O2B C19B 1_555 1_555
C5 N1 1_555 1_555
C7 N2 1_555 1_555
C8 N3 1_555 1_555
C8 N4 1_555 1_555
C12 C13 1_555 1_555
C12 N5 1_555 1_555
C17 C18 1_555 1_555
C17 N6 1_555 1_555
C19 O1 1_555 1_555
C5C N1C 1_555 1_555
C7C N2C 1_555 1_555
C8C N3C 1_555 1_555
C8C N4C 1_555 1_555
C11C N5C 1_555 1_555
C12C C13C 1_555 1_555
C12C N5C 1_555 1_555
C17C C18C 1_555 1_555
C17C N6C 1_555 1_555
C20B C22B 1_555 1_555

#END
