
#######################################################################
#
#                 Cambridge Crystallographic Data Centre
#                                CCDC 
#
#######################################################################
#
# If this CIF has been generated from an entry in the Cambridge 
# Structural Database, then it will include bibliographic, chemical, 
# crystal, experimental, refinement or atomic coordinate data resulting 
# from the CCDC's data processing and validation procedures.
#
#######################################################################

data_DIHPIU
_symmetry_cell_setting           orthorhombic
_symmetry_space_group_name_H-M   'P 21 21 2'
_symmetry_Int_Tables_number      18
_space_group_name_Hall           'P 2 2ab'
loop_
_symmetry_equiv_pos_site_id
_symmetry_equiv_pos_as_xyz
1 x,y,z
2 -x,-y,z
3 1/2+x,1/2-y,-z
4 1/2-x,1/2+y,-z
_cell_length_a                   13.871(6)
_cell_length_b                   13.979(5)
_cell_length_c                   17.520(6)
_cell_angle_alpha                90
_cell_angle_beta                 90
_cell_angle_gamma                90
_cell_volume                     3397.18
loop_
_atom_site_label
_atom_site_type_symbol
_atom_site_fract_x
_atom_site_fract_y
_atom_site_fract_z
F1 F 0.542(3) 0.531(4) -0.333(2)
B1 B 0.5000 0.5000 -0.262(5)
F1A F 0.458(3) 0.469(4) -0.333(2)
F2 F 0.458(2) -0.020(4) 0.176(1)
B2 B 0.5000 0.0000 0.256(4)
F2A F 0.542(2) 0.020(4) 0.176(1)
Ag1 Ag 0.25839(7) 0.22919(8) 0.25006(8)
N1 N 0.1597(10) 0.3307(8) 0.3187(6)
N2 N -0.164(1) 0.346(1) 0.6564(7)
N3 N 0.3476(9) 0.3278(8) 0.1746(7)
N4 N 0.6697(8) 0.3500(10) -0.1649(8)
C1 C 0.0000 0.5000 0.4837(9)
C2 C 0.0595(8) 0.4377(7) 0.4294(6)
C3 C 0.019(1) 0.356(1) 0.3981(8)
C4 C 0.071(1) 0.3059(10) 0.3434(8)
C5 C 0.192(1) 0.407(1) 0.3476(9)
C6 C 0.145(1) 0.467(1) 0.4013(9)
C7 C -0.0641(10) 0.4411(9) 0.5404(6)
C8 C -0.1441(10) 0.479(1) 0.5709(8)
C9 C -0.196(1) 0.428(2) 0.629(1)
C10 C -0.087(1) 0.311(1) 0.6252(9)
C11 C -0.032(1) 0.3538(8) 0.5670(8)
C12 C 0.5000 0.5000 0.006(1)
C13 C 0.4419(9) 0.4336(7) 0.0622(8)
C14 C 0.3522(9) 0.456(1) 0.0848(10)
C15 C 0.305(1) 0.4012(10) 0.1389(10)
C16 C 0.435(1) 0.3080(10) 0.1517(9)
C17 C 0.488(1) 0.356(1) 0.095(1)
C18 C 0.5651(9) 0.4433(9) -0.0509(9)
C19 C 0.542(1) 0.3541(9) -0.0711(10)
C20 C 0.595(1) 0.311(1) -0.129(1)
C21 C 0.693(1) 0.438(1) -0.1423(10)
C22 C 0.6403(10) 0.489(1) -0.0840(9)
H1 H -0.0420 0.3328 0.4154
H2 H 0.0408 0.2501 0.3201
H3 H 0.2537 0.4263 0.3275
H4 H 0.1745 0.5246 0.4170
H5 H -0.1636 0.5419 0.5541
H6 H -0.2594 0.4558 0.6425
H7 H -0.0659 0.2510 0.6432
H8 H 0.0221 0.3247 0.5432
H9 H 0.3200 0.5066 0.0583
H10 H 0.2385 0.4145 0.1502
H11 H 0.4693 0.2576 0.1791
H12 H 0.5489 0.3356 0.0802
H13 H 0.4896 0.3200 -0.0467
H14 H 0.5771 0.2463 -0.1428
H15 H 0.7462 0.4696 -0.1664
H16 H 0.6583 0.5529 -0.0689
Ag1A Ag -0.25839(7) 0.77081(8) 0.25006(8)
Ag1B Ag -0.24161(7) 0.27081(8) 0.74994(8)
Ag1B_2 Ag 0.75839(7) 0.27081(8) -0.25006(8)
Ag1C Ag 0.24161(7) 0.72919(8) 0.74994(8)
Ag1A_2 Ag 0.74161(7) 0.77081(8) 0.25006(8)
Ag1C_2 Ag 0.24161(7) 0.72919(8) -0.25006(8)
N1A N -0.1597(10) 0.6693(8) 0.3187(6)
N2A N 0.164(1) 0.654(1) 0.6564(7)
N2B N 0.336(1) 0.154(1) 0.3436(7)
N2C N -0.336(1) 0.846(1) 0.3436(7)
N3A N 0.6524(9) 0.6722(8) 0.1746(7)
N3A_2 N -0.3476(9) 0.6722(8) 0.1746(7)
N4A N 0.3303(8) 0.6500(10) -0.1649(8)
N4B N 0.1697(8) 0.1500(10) 0.1649(8)
N4C N -0.1697(8) 0.8500(10) 0.1649(8)
C2A C -0.0595(8) 0.5623(7) 0.4294(6)
C3A C -0.019(1) 0.644(1) 0.3981(8)
C4A C -0.071(1) 0.6941(10) 0.3434(8)
C5A C -0.192(1) 0.593(1) 0.3476(9)
C6A C -0.145(1) 0.533(1) 0.4013(9)
C7A C 0.0641(10) 0.5589(9) 0.5404(6)
C8A C 0.1441(10) 0.521(1) 0.5709(8)
C9A C 0.196(1) 0.572(2) 0.629(1)
C10A C 0.087(1) 0.689(1) 0.6252(9)
C11A C 0.032(1) 0.6462(8) 0.5670(8)
C13A C 0.5581(9) 0.5664(7) 0.0622(8)
C14A C 0.6478(9) 0.544(1) 0.0848(10)
C15A C 0.695(1) 0.5988(10) 0.1389(10)
C16A C 0.565(1) 0.6920(10) 0.1517(9)
C17A C 0.512(1) 0.644(1) 0.095(1)
C18A C 0.4349(9) 0.5567(9) -0.0509(9)
C19A C 0.458(1) 0.6459(9) -0.0711(10)
C20A C 0.405(1) 0.689(1) -0.129(1)
C21A C 0.307(1) 0.562(1) -0.1423(10)
C22A C 0.3597(10) 0.511(1) -0.0840(9)
H1A H 0.0420 0.6672 0.4154
H2A H -0.0408 0.7499 0.3201
H3A H -0.2537 0.5737 0.3275
H4A H -0.1745 0.4754 0.4170
H5A H 0.1636 0.4581 0.5541
H6A H 0.2594 0.5442 0.6425
H7A H 0.0659 0.7490 0.6432
H8A H -0.0221 0.6753 0.5432
H9A H 0.6800 0.4934 0.0583
H10A H 0.7615 0.5855 0.1502
H11A H 0.5307 0.7424 0.1791
H12A H 0.4511 0.6644 0.0802
H13A H 0.5104 0.6800 -0.0467
H14A H 0.4229 0.7537 -0.1428
H15A H 0.2538 0.5304 -0.1664
H16A H 0.3417 0.4471 -0.0689
loop_
_geom_bond_atom_site_label_1
_geom_bond_atom_site_label_2
_geom_bond_site_symmetry_1
_geom_bond_site_symmetry_2
Ag1 N1 1_555 1_555
F1 B1 1_555 1_555
F2 B2 1_555 1_555
N1 C4 1_555 1_555
N2 C9 1_555 1_555
N3 Ag1 1_555 1_555
N4 C20 1_555 1_555
C1 C2 1_555 1_555
C2 C3 1_555 1_555
C3 C4 1_555 1_555
C4 H2 1_555 1_555
C5 N1 1_555 1_555
C6 C2 1_555 1_555
C7 C1 1_555 1_555
C8 C7 1_555 1_555
C9 C8 1_555 1_555
C10 N2 1_555 1_555
C11 C7 1_555 1_555
C12 C13 1_555 1_555
C13 C14 1_555 1_555
C14 C15 1_555 1_555
C15 N3 1_555 1_555
C16 N3 1_555 1_555
C17 C13 1_555 1_555
C18 C12 1_555 1_555
C19 C18 1_555 1_555
C20 C19 1_555 1_555
C21 N4 1_555 1_555
C22 C18 1_555 1_555
B1 F1A 1_555 1_555
B2 F2A 1_555 1_555
H1 C3 1_555 1_555
H3 C5 1_555 1_555
H4 C6 1_555 1_555
H5 C8 1_555 1_555
H6 C9 1_555 1_555
H7 C10 1_555 1_555
H8 C11 1_555 1_555
H9 C14 1_555 1_555
H10 C15 1_555 1_555
H11 C16 1_555 1_555
H12 C17 1_555 1_555
H13 C19 1_555 1_555
H14 C20 1_555 1_555
H15 C21 1_555 1_555
H16 C22 1_555 1_555
Ag1A N1A 1_555 1_555
Ag1B N2 1_555 1_555
Ag1B_2 N4 1_555 1_555
Ag1C N2A 1_555 1_555
Ag1A_2 N3A 1_555 1_555
Ag1C_2 N4A 1_555 1_555
N1A C4A 1_555 1_555
N2A C9A 1_555 1_555
N2B Ag1 1_555 1_555
N2C Ag1A 1_555 1_555
N3A C15A 1_555 1_555
N3A_2 Ag1A 1_555 1_555
N4A C20A 1_555 1_555
N4B Ag1 1_555 1_555
N4C Ag1A 1_555 1_555
C2A C1 1_555 1_555
C3A C2A 1_555 1_555
C4A C3A 1_555 1_555
C5A N1A 1_555 1_555
C6A C2A 1_555 1_555
C7A C1 1_555 1_555
C8A C7A 1_555 1_555
C9A C8A 1_555 1_555
C10A N2A 1_555 1_555
C11A C7A 1_555 1_555
C13A C12 1_555 1_555
C14A C13A 1_555 1_555
C15A C14A 1_555 1_555
C16A N3A 1_555 1_555
C17A C13A 1_555 1_555
C18A C12 1_555 1_555
C19A C18A 1_555 1_555
C20A C19A 1_555 1_555
C21A N4A 1_555 1_555
C22A C18A 1_555 1_555
H1A C3A 1_555 1_555
H2A C4A 1_555 1_555
H3A C5A 1_555 1_555
H4A C6A 1_555 1_555
H5A C8A 1_555 1_555
H6A C9A 1_555 1_555
H7A C10A 1_555 1_555
H8A C11A 1_555 1_555
H9A C14A 1_555 1_555
H10A C15A 1_555 1_555
H11A C16A 1_555 1_555
H12A C17A 1_555 1_555
H13A C19A 1_555 1_555
H14A C20A 1_555 1_555
H15A C21A 1_555 1_555
H16A C22A 1_555 1_555
C5 C6 1_555 1_555
C10 C11 1_555 1_555
C16 C17 1_555 1_555
C21 C22 1_555 1_555
C5A C6A 1_555 1_555
C10A C11A 1_555 1_555
C16A C17A 1_555 1_555
C21A C22A 1_555 1_555

#END
