
#######################################################################
#
#                 Cambridge Crystallographic Data Centre
#                                CCDC 
#
#######################################################################
#
# If this CIF has been generated from an entry in the Cambridge 
# Structural Database, then it will include bibliographic, chemical, 
# crystal, experimental, refinement or atomic coordinate data resulting 
# from the CCDC's data processing and validation procedures.
#
#######################################################################

data_DIHXOI
_symmetry_cell_setting           monoclinic
_symmetry_space_group_name_H-M   'P 21/c'
_symmetry_Int_Tables_number      14
_space_group_name_Hall           '-P 2ybc'
loop_
_symmetry_equiv_pos_site_id
_symmetry_equiv_pos_as_xyz
1 x,y,z
2 -x,1/2+y,1/2-z
3 -x,-y,-z
4 x,1/2-y,1/2+z
_cell_length_a                   12.162(4)
_cell_length_b                   16.381(5)
_cell_length_c                   23.781(8)
_cell_angle_alpha                90
_cell_angle_beta                 99.729(5)
_cell_angle_gamma                90
_cell_volume                     4669.65
loop_
_atom_site_label
_atom_site_type_symbol
_atom_site_fract_x
_atom_site_fract_y
_atom_site_fract_z
Mo1 Mo 0.82033(7) 0.18308(5) 0.91377(3)
Mo2 Mo 0.58097(7) 0.29290(5) 0.90674(3)
Mo3 Mo 0.56569(7) 0.09340(5) 0.90189(3)
Mo4 Mo 0.78782(7) 0.09168(5) 0.78425(3)
Mo5 Mo 0.81073(7) 0.29029(5) 0.78987(3)
Mo6 Mo 0.77643(7) -0.02088(5) 0.89423(3)
Mo7 Mo 0.81029(7) 0.39006(5) 0.90491(3)
Co1 Co 0.41596(11) 0.45393(8) 0.81181(5)
O1 O 0.8795(5) 0.1829(3) 0.8442(2)
O2 O 0.6853(5) 0.1883(3) 0.9431(2)
O3 O 0.7107(5) 0.0945(3) 0.8589(2)
O4 O 0.8821(6) 0.0964(4) 0.9458(3)
O5 O 0.8940(5) 0.2633(4) 0.9498(3)
O6 O 0.7263(5) 0.2865(4) 0.8629(3)
O7 O 0.6990(5) 0.3622(4) 0.9504(2)
O8 O 0.5149(6) 0.3653(4) 0.8603(3)
O9 O 0.5204(5) 0.1968(4) 0.8631(3)
O10 O 0.5041(6) 0.2872(4) 0.9600(3)
O11 O 0.6725(5) 0.0150(4) 0.9424(3)
O12 O 0.4877(6) 0.0989(4) 0.9554(3)
O13 O 0.4911(5) 0.0326(4) 0.8513(3)
O14 O 0.7221(5) 0.1953(3) 0.7607(3)
O15 O 0.8658(5) 0.0085(4) 0.8377(3)
O16 O 0.6858(6) 0.0317(4) 0.7461(3)
O17 O 0.8957(6) 0.0919(4) 0.7457(3)
O18 O 0.8998(5) 0.3574(4) 0.8485(3)
O19 O 0.7257(6) 0.3617(4) 0.7532(3)
O20 O 0.9184(6) 0.2781(4) 0.7519(3)
O21 O 0.6949(6) -0.0947(4) 0.8578(3)
O22 O 0.8721(6) -0.0713(4) 0.9427(3)
O23 O 0.7492(5) 0.4722(4) 0.8700(3)
O24 O 0.9128(6) 0.4301(4) 0.9572(3)
O25 O 0.3591(6) 0.3587(4) 0.7547(3)
H1 H 0.3014 0.3374 0.7644
H2 H 0.3427 0.3779 0.7211
O26 O 0.5457(6) 0.4715(4) 0.7608(3)
H3 H 0.5880 0.5103 0.7749
H4 H 0.5836 0.4279 0.7611
N1 N 0.4766(6) 0.5479(5) 0.8674(3)
N2 N 0.5037(8) 0.6714(5) 0.9044(4)
H13 H 0.4989 0.7233 0.9088
N3 N 0.2846(7) 0.4324(5) 0.8555(4)
N4 N 0.1178(9) 0.4085(6) 0.8736(5)
H14 H 0.0479 0.3968 0.8681
C1 C 0.4508(10) 0.6270(7) 0.8611(5)
H23 H 0.4018 0.6485 0.8304
C2 C 0.5669(9) 0.6184(7) 0.9402(4)
H24 H 0.6127 0.6318 0.9744
C3 C 0.5517(8) 0.5439(7) 0.9177(4)
H25 H 0.5863 0.4966 0.9335
C4 C 0.1837(9) 0.4115(7) 0.8339(5)
H26 H 0.1598 0.4000 0.7955
C5 C 0.1819(12) 0.4273(9) 0.9237(6)
H27 H 0.1590 0.4301 0.9591
C6 C 0.2847(10) 0.4411(8) 0.9131(5)
H28 H 0.3465 0.4544 0.9403
Co1A Co 0.58404(11) -0.04607(8) 0.68819(5)
O16A O 0.3142(6) 0.5317(4) 0.7539(3)
O27 O 0.5197(9) 0.8433(6) 0.9279(4)
H5 H 0.4755 0.8527 0.9513
H6 H 0.5867 0.8459 0.9453
O28 O 0.6773(7) 0.6210(5) 0.7897(3)
H7 H 0.7177 0.5998 0.7677
H8 H 0.6487 0.6651 0.7750
O29 O 0.4958(7) 0.2295(5) 0.7524(3)
H9 H 0.4364 0.2025 0.7415
H10 H 0.5302 0.2361 0.7244
O30 O 0.0861(15) 0.0352(13) 0.7090(9)
H11 H 0.1286 0.0040 0.6938
H12 H 0.0672 0.0115 0.7377
N5 N 0.8809(11) 0.0122(7) 0.0685(6)
H15 H 0.9251 0.0110 0.0438
N6 N 0.8214(11) 0.0147(7) 0.1459(5)
H16 H 0.8185 0.0146 0.1817
C7 C 0.9138(8) 0.0104(6) 0.1228(4)
H29 H 0.9869 0.0068 0.1420
C8 C 0.7330(9) 0.0193(7) 0.1030(5)
H30 H 0.6585 0.0239 0.1071
C9 C 0.7711(7) 0.0162(5) 0.0550(4)
H31 H 0.7292 0.0167 0.0185
N7 N 0.8256(9) 0.6587(7) 0.8860(4)
H17 H 0.7785 0.6377 0.8589
N8 N 0.9515(8) 0.6698(6) 0.9584(4)
H18 H 1.0023 0.6567 0.9866
C10 C 0.8915(9) 0.6188(6) 0.9240(5)
H32 H 0.8959 0.5622 0.9267
C11 C 0.9205(13) 0.7477(7) 0.9421(6)
H33 H 0.9486 0.7956 0.9600
C12 C 0.8428(12) 0.7418(8) 0.8960(7)
H34 H 0.8071 0.7846 0.8746
N9 N 0.7540(13) 0.2573(10) 0.5738(7)
H19 H 0.7198 0.2948 0.5524
N10 N 0.8176(11) 0.1445(9) 0.6036(6)
H20 H 0.8345 0.0934 0.6057
C13 C 0.7668(9) 0.1806(6) 0.5580(4)
H35 H 0.7443 0.1579 0.5220
C14 C 0.8397(9) 0.1957(7) 0.6460(5)
H36 H 0.8760 0.1826 0.6825
C15 C 0.8036(14) 0.2675(9) 0.6296(5)
H37 H 0.8098 0.3155 0.6508
N11 N 0.1907(16) 0.1886(10) 0.8149(9)
H21 H 0.1861 0.1815 0.7787
N12 N 0.1492(14) 0.2000(10) 0.8975(9)
H22 H 0.1110 0.2015 0.9249
C16 C 0.1041(9) 0.1927(7) 0.8458(6)
H38 H 0.0281 0.1905 0.8314
C17 C 0.2594(14) 0.2053(10) 0.9065(6)
H39 H 0.3084 0.2121 0.9407
C18 C 0.2820(12) 0.1980(7) 0.8531(5)
H40 H 0.3536 0.1995 0.8443
loop_
_geom_bond_atom_site_label_1
_geom_bond_atom_site_label_2
_geom_bond_site_symmetry_1
_geom_bond_site_symmetry_2
Mo1 O1 1_555 1_555
Mo2 O2 1_555 1_555
Mo3 O2 1_555 1_555
Mo4 O1 1_555 1_555
Mo5 O1 1_555 1_555
Mo6 O3 1_555 1_555
Mo7 O5 1_555 1_555
Co1 O8 1_555 1_555
O2 Mo1 1_555 1_555
O3 Mo1 1_555 1_555
O4 Mo1 1_555 1_555
O5 Mo1 1_555 1_555
O6 Mo1 1_555 1_555
O7 Mo2 1_555 1_555
O8 Mo2 1_555 1_555
O9 Mo2 1_555 1_555
O10 Mo2 1_555 1_555
O11 Mo3 1_555 1_555
O12 Mo3 1_555 1_555
O13 Mo3 1_555 1_555
O14 Mo4 1_555 1_555
O15 Mo4 1_555 1_555
O16 Mo4 1_555 1_555
O17 Mo4 1_555 1_555
O18 Mo5 1_555 1_555
O19 Mo5 1_555 1_555
O20 Mo5 1_555 1_555
O21 Mo6 1_555 1_555
O22 Mo6 1_555 1_555
O23 Mo7 1_555 1_555
O24 Mo7 1_555 1_555
O25 Co1 1_555 1_555
H1 O25 1_555 1_555
H2 O25 1_555 1_555
O26 Co1 1_555 1_555
H3 O26 1_555 1_555
H4 O26 1_555 1_555
O27 H5 1_555 1_555
H6 O27 1_555 1_555
O28 H7 1_555 1_555
H8 O28 1_555 1_555
O29 H9 1_555 1_555
H10 O29 1_555 1_555
O30 H11 1_555 1_555
H12 O30 1_555 1_555
N1 Co1 1_555 1_555
N2 H13 1_555 1_555
N3 Co1 1_555 1_555
N4 H14 1_555 1_555
N5 H15 1_555 1_555
N6 H16 1_555 1_555
N7 H17 1_555 1_555
N8 H18 1_555 1_555
N9 H19 1_555 1_555
N10 H20 1_555 1_555
N11 H21 1_555 1_555
N12 H22 1_555 1_555
C1 N1 1_555 1_555
H23 C1 1_555 1_555
C2 N2 1_555 1_555
H24 C2 1_555 1_555
C3 N1 1_555 1_555
H25 C3 1_555 1_555
C4 N3 1_555 1_555
H26 C4 1_555 1_555
C5 N4 1_555 1_555
H27 C5 1_555 1_555
C6 N3 1_555 1_555
H28 C6 1_555 1_555
C7 N5 1_555 1_555
H29 C7 1_555 1_555
C8 N6 1_555 1_555
H30 C8 1_555 1_555
C9 N5 1_555 1_555
H31 C9 1_555 1_555
C10 N7 1_555 1_555
H32 C10 1_555 1_555
C11 N8 1_555 1_555
H33 C11 1_555 1_555
C12 N7 1_555 1_555
H34 C12 1_555 1_555
C13 N9 1_555 1_555
H35 C13 1_555 1_555
C14 N10 1_555 1_555
H36 C14 1_555 1_555
C15 N9 1_555 1_555
H37 C15 1_555 1_555
C16 N11 1_555 1_555
H38 C16 1_555 1_555
C17 N12 1_555 1_555
H39 C17 1_555 1_555
C18 N11 1_555 1_555
H40 C18 1_555 1_555
Co1A O16 1_555 1_555
O16A Co1 1_555 1_555
Mo2 O6 1_555 1_555
Mo3 O3 1_555 1_555
Mo3 O9 1_555 1_555
Mo4 O3 1_555 1_555
Mo5 O6 1_555 1_555
Mo5 O14 1_555 1_555
Mo6 O4 1_555 1_555
Mo6 O11 1_555 1_555
Mo6 O15 1_555 1_555
Mo7 O6 1_555 1_555
Mo7 O7 1_555 1_555
Mo7 O18 1_555 1_555
N2 C1 1_555 1_555
N4 C4 1_555 1_555
N6 C7 1_555 1_555
N8 C10 1_555 1_555
N10 C13 1_555 1_555
N12 C16 1_555 1_555
C2 C3 1_555 1_555
C5 C6 1_555 1_555
C8 C9 1_555 1_555
C11 C12 1_555 1_555
C14 C15 1_555 1_555
C17 C18 1_555 1_555

#END
