
#######################################################################
#
#                 Cambridge Crystallographic Data Centre
#                                CCDC 
#
#######################################################################
#
# If this CIF has been generated from an entry in the Cambridge 
# Structural Database, then it will include bibliographic, chemical, 
# crystal, experimental, refinement or atomic coordinate data resulting 
# from the CCDC's data processing and validation procedures.
#
#######################################################################

data_DIJBUU
_symmetry_cell_setting           monoclinic
_symmetry_space_group_name_H-M   'C 2/m'
_symmetry_Int_Tables_number      12
_space_group_name_Hall           '-C 2y'
loop_
_symmetry_equiv_pos_site_id
_symmetry_equiv_pos_as_xyz
1 x,y,z
2 1/2+x,1/2+y,z
3 -x,y,-z
4 1/2-x,1/2+y,-z
5 -x,-y,-z
6 1/2-x,1/2-y,-z
7 x,-y,z
8 1/2+x,1/2-y,z
_cell_length_a                   16.974(2)
_cell_length_b                   11.372(2)
_cell_length_c                   6.5796(11)
_cell_angle_alpha                90
_cell_angle_beta                 111.261(17)
_cell_angle_gamma                90
_cell_volume                     1183.61
loop_
_atom_site_label
_atom_site_type_symbol
_atom_site_fract_x
_atom_site_fract_y
_atom_site_fract_z
Eu1 Eu 0.68947(2) 0.5000 0.81624(6)
C1 C 0.9875(7) 0.5974(19) 0.7348(16)
H1 H 1.0177 0.6673 0.7520
C2 C 0.9000(5) 0.6044(13) 0.6757(16)
H2 H 0.8729 0.6770 0.6514
C3 C 0.8534(6) 0.5000 0.6535(16)
C4 C 0.7940(4) 0.7249(7) 1.0730(12)
C5 C 0.4861(5) 0.5000 0.5989(15)
N1 N 1.0289(8) 0.5000 0.767(2)
H3 H 1.0831 0.5000 0.8092
O1 O 0.8072(3) 0.6193(5) 1.0457(10)
O2 O 0.8441(3) 0.7944(5) 1.2033(10)
O3 O 0.5432(4) 0.5000 0.7835(13)
O4 O 0.4073(4) 0.5000 0.5549(12)
O5 O 0.6761(5) 0.5000 1.1659(15)
H4 H 0.6274 0.5000 1.1748
H5 H 0.7201 0.5000 1.2812
S1 S 0.7739(5) 0.5000 0.6022(14)
Eu1E Eu 0.81053(2) 1.0000 1.18376(6)
Eu1D Eu 0.31053(2) 0.5000 0.18376(6)
Eu1E_2 Eu 0.81053(2) 0.0000 1.18376(6)
C1F C 0.9875(7) 0.4026(19) 0.7348(16)
C1E C 0.5125(7) 0.9026(19) 1.2652(16)
C1C C 0.5125(7) 1.0974(19) 1.2652(16)
H1F H 1.0177 0.3327 0.7520
H1E H 0.4823 0.8327 1.2480
H1C H 0.4823 1.1673 1.2480
C2F C 0.9000(5) 0.3956(13) 0.6757(16)
C2E C 0.6000(5) 0.8956(13) 1.3243(16)
C2C C 0.6000(5) 1.1044(13) 1.3243(16)
H2F H 0.8729 0.3230 0.6514
H2E H 0.6271 0.8230 1.3486
H2C H 0.6271 1.1770 1.3486
C3E C 0.6466(6) 1.0000 1.3465(16)
C4E C 0.7060(4) 0.7751(7) 0.9270(12)
C4F C 0.7940(4) 0.2751(7) 1.0730(12)
C4C C 0.7060(4) 0.2249(7) 0.9270(12)
C5D C 0.5139(5) 0.5000 0.4011(15)
N1E N 0.4711(8) 1.0000 1.233(2)
H3E H 0.4169 1.0000 1.1908
O1E O 0.6928(3) 0.8807(5) 0.9543(10)
O1F O 0.8072(3) 0.3807(5) 1.0457(10)
O1C O 0.6928(3) 0.1193(5) 0.9543(10)
O1C_2 O 0.6928(3) 1.1193(5) 0.9543(10)
O2E O 0.6559(3) 0.7056(5) 0.7967(10)
O2F O 0.8441(3) 0.2056(5) 1.2033(10)
O2C O 0.6559(3) 0.2944(5) 0.7967(10)
O2F_2 O 0.8441(3) 1.2056(5) 1.2033(10)
O3D O 0.4568(4) 0.5000 0.2165(13)
O3E O 0.9568(4) 1.0000 1.2165(13)
O4D O 0.5927(4) 0.5000 0.4451(12)
O4A O 0.9073(4) 1.0000 1.5549(12)
O5E O 0.8239(5) 1.0000 0.8341(15)
H4E H 0.8726 1.0000 0.8252
H5E H 0.7799 1.0000 0.7188
S1E S 0.7261(5) 1.0000 1.3978(14)
loop_
_geom_bond_atom_site_label_1
_geom_bond_atom_site_label_2
_geom_bond_site_symmetry_1
_geom_bond_site_symmetry_2
Eu1 O1 1_555 1_555
C1 H1 1_555 1_555
C2 C1 1_555 1_555
H2 C2 1_555 1_555
C3 C2 1_555 1_555
C4 O1 1_555 1_555
C5 O3 1_555 1_555
N1 C1 1_555 1_555
H3 N1 1_555 1_555
O2 C4 1_555 1_555
O3 Eu1 1_555 1_555
O4 C5 1_555 1_555
O5 Eu1 1_555 1_555
H4 O5 1_555 1_555
H5 O5 1_555 1_555
S1 Eu1 1_555 1_555
Eu1E O2 1_555 1_555
Eu1D O4 1_555 1_555
Eu1E_2 O1C 1_555 1_555
C1F N1 1_555 1_555
C1E H1E 1_555 1_555
C1C H1C 1_555 1_555
H1F C1F 1_555 1_555
C2F C3 1_555 1_555
C2E C1E 1_555 1_555
C2C C1C 1_555 1_555
H2F C2F 1_555 1_555
H2E C2E 1_555 1_555
H2C C2C 1_555 1_555
C3E C2E 1_555 1_555
C4E C4 1_555 1_555
C4F C4C 1_555 1_555
C4C O1C 1_555 1_555
C5D C5 1_555 1_555
N1E C1E 1_555 1_555
H3E N1E 1_555 1_555
O1E Eu1E 1_555 1_555
O1F Eu1 1_555 1_555
O1C_2 Eu1E 1_555 1_555
O2E Eu1 1_555 1_555
O2F Eu1E_2 1_555 1_555
O2C Eu1 1_555 1_555
O2F_2 Eu1E 1_555 1_555
O3D Eu1D 1_555 1_555
O3E Eu1E 1_555 1_555
O4D Eu1 1_555 1_555
O4A Eu1E 1_555 1_555
O5E Eu1E 1_555 1_555
H4E O5E 1_555 1_555
H5E O5E 1_555 1_555
S1E Eu1E 1_555 1_555
C3 S1 1_555 1_555
C1F C2F 1_555 1_555
C1C N1E 1_555 1_555
C2C C3E 1_555 1_555
C3E S1E 1_555 1_555
C4E O1E 1_555 1_555
C4E O2E 1_555 1_555
C4F O1F 1_555 1_555
C4F O2F 1_555 1_555
C4C O2C 1_555 1_555
C5D O3D 1_555 1_555
C5D O4D 1_555 1_555

#END
