
#######################################################################
#
#                 Cambridge Crystallographic Data Centre
#                                CCDC 
#
#######################################################################
#
# If this CIF has been generated from an entry in the Cambridge 
# Structural Database, then it will include bibliographic, chemical, 
# crystal, experimental, refinement or atomic coordinate data resulting 
# from the CCDC's data processing and validation procedures.
#
#######################################################################

data_DIJCOP01
_symmetry_cell_setting           triclinic
_symmetry_space_group_name_H-M   'P -1'
_symmetry_Int_Tables_number      2
_space_group_name_Hall           '-P 1'
loop_
_symmetry_equiv_pos_site_id
_symmetry_equiv_pos_as_xyz
1 x,y,z
2 -x,-y,-z
_cell_length_a                   6.434(3)
_cell_length_b                   8.585(4)
_cell_length_c                   9.880(3)
_cell_angle_alpha                110.107(5)
_cell_angle_beta                 95.052(4)
_cell_angle_gamma                102.072(5)
_cell_volume                     493.475
loop_
_atom_site_label
_atom_site_type_symbol
_atom_site_fract_x
_atom_site_fract_y
_atom_site_fract_z
Mn1 Mn -0.06464(15) -0.06079(11) 0.66991(10)
Mn2 Mn -0.5000 -0.5000 0.0000
O1 O -0.0499(7) -0.1634(5) 0.3997(5)
O2 O -0.2203(8) -0.3783(6) 0.1889(5)
O3 O -0.0477(8) 0.1490(6) 0.8842(5)
O4 O -0.6050(7) -0.9697(6) 0.3575(5)
O5 O -0.1268(9) -0.1921(6) 0.8377(5)
O6 O -0.4326(9) -0.7465(6) -0.0547(6)
O7 O -0.2886(7) -0.9771(5) 0.2820(5)
O8 O -0.2749(8) -0.4339(6) 0.8720(5)
C1 C -0.2112(9) -0.4326(7) 0.4077(6)
N1 N -0.1863(8) -0.3543(6) 0.5538(5)
C2 C -0.1558(9) -0.3153(7) 0.3251(6)
C3 C -0.2120(10) -0.3492(8) 0.7941(6)
C4 C -0.2823(9) -0.6093(8) 0.3376(7)
H1 H -0.2916 -0.6607 0.2369
C5 C -0.3220(10) -0.6272(8) 0.5712(7)
H2 H -0.3628 -0.6898 0.6292
C6 C -0.4173(10) -0.8993(7) 0.3492(7)
C7 C -0.3395(9) -0.7085(7) 0.4212(7)
C8 C -0.2417(9) -0.4492(8) 0.6332(7)
H3 H -0.315(6) -0.764(9) -0.071(7)
H4 H -0.517(11) -0.837(6) -0.110(8)
H5 H -0.002(16) 0.143(13) 0.962(6)
H6 H 0.027(10) 0.238(5) 0.884(8)
Mn1A Mn 0.06464(15) 0.06079(11) 0.33009(10)
Mn1A_2 Mn -0.93536(15) -0.93921(11) 0.33009(10)
Mn1A_3 Mn 0.06464(15) -0.93921(11) 0.33009(10)
Mn1_2 Mn -0.06464(15) -0.06079(11) -0.33009(10)
Mn1A_4 Mn -0.93536(15) -0.93921(11) -0.66991(10)
Mn1_3 Mn -1.06464(15) -1.06079(11) -0.33009(10)
Mn1_4 Mn -1.06464(15) -0.06079(11) -0.33009(10)
Mn2_2 Mn -0.5000 -0.5000 1.0000
Mn2_3 Mn -0.5000 -0.5000 -1.0000
O1A O 0.0499(7) 0.1634(5) 0.6003(5)
O1_2 O -1.0499(7) -1.1634(5) -0.6003(5)
O1A_2 O -0.9501(7) -0.8366(5) -0.3997(5)
O2A O -0.7797(8) -0.6217(6) -0.1889(5)
O3A O -0.9523(8) -1.1490(6) -0.8842(5)
O4_2 O -0.6050(7) -0.9697(6) -0.6425(5)
O4A O -0.3950(7) -0.0303(6) 0.6425(5)
O4A_2 O -0.3950(7) -0.0303(6) -0.3575(5)
O5A O -0.8732(9) -0.8079(6) -0.8377(5)
O6A O -0.5674(9) -0.2535(6) 0.0547(6)
O7A O 0.2886(7) -0.0229(5) 0.7180(5)
O7_2 O -1.2886(7) -0.9771(5) -0.7180(5)
O7A_2 O -0.7114(7) -0.0229(5) -0.2820(5)
O8_2 O -0.2749(8) -0.4339(6) -0.1280(5)
O8A O -0.7251(8) -0.5661(6) 0.1280(5)
O8A_2 O -0.7251(8) -0.5661(6) -0.8720(5)
C1A C -0.7888(9) -0.5674(7) -0.4077(6)
N1A N -0.8137(8) -0.6457(6) -0.5538(5)
C2A C -0.8442(9) -0.6847(7) -0.3251(6)
C3A C -0.7880(10) -0.6508(8) -0.7941(6)
C4A C -0.7177(9) -0.3907(8) -0.3376(7)
H1A H -0.7084 -0.3393 -0.2369
C5A C -0.6780(10) -0.3728(8) -0.5712(7)
H2A H -0.6372 -0.3102 -0.6292
C6A C -0.5827(10) -0.1007(7) -0.3492(7)
C7A C -0.6605(9) -0.2915(7) -0.4212(7)
C8A C -0.7583(9) -0.5508(8) -0.6332(7)
H3A H -0.685(6) -0.236(9) 0.071(7)
H4A H -0.483(11) -0.163(6) 0.110(8)
H5A H -0.998(16) -1.143(13) -0.962(6)
H6A H -1.027(10) -1.238(5) -0.884(8)
loop_
_geom_bond_atom_site_label_1
_geom_bond_atom_site_label_2
_geom_bond_site_symmetry_1
_geom_bond_site_symmetry_2
Mn1 O1 1_555 1_555
Mn2 O2 1_555 1_555
O1 C2 1_555 1_555
O2 C2 1_555 1_555
O3 Mn1 1_555 1_555
O4 C6 1_555 1_555
O5 Mn1 1_555 1_555
O6 Mn2 1_555 1_555
O7 C6 1_555 1_555
O8 C3 1_555 1_555
C1 N1 1_555 1_555
N1 Mn1 1_555 1_555
C2 C1 1_555 1_555
C3 O5 1_555 1_555
C4 C1 1_555 1_555
H1 C4 1_555 1_555
C5 H2 1_555 1_555
C6 C7 1_555 1_555
C7 C4 1_555 1_555
C8 N1 1_555 1_555
H3 O6 1_555 1_555
H4 O6 1_555 1_555
H5 O3 1_555 1_555
H6 O3 1_555 1_555
Mn1A O1 1_555 1_555
Mn1A_2 O4 1_555 1_555
Mn1A_3 O7 1_555 1_555
Mn1_2 O4A_2 1_555 1_555
Mn1A_4 O1_2 1_555 1_555
Mn1_3 O1_2 1_555 1_555
Mn1_4 O7A_2 1_555 1_555
Mn2_2 O8 1_555 1_555
Mn2_3 O8A_2 1_555 1_555
O1A Mn1 1_555 1_555
O1A_2 Mn1A_4 1_555 1_555
O2A Mn2 1_555 1_555
O3A Mn1A_4 1_555 1_555
O4_2 Mn1A_4 1_555 1_555
O4A Mn1 1_555 1_555
O4A_2 C6A 1_555 1_555
O5A Mn1A_4 1_555 1_555
O6A Mn2 1_555 1_555
O7A Mn1 1_555 1_555
O7_2 Mn1A_4 1_555 1_555
O7A_2 C6A 1_555 1_555
O8_2 Mn2 1_555 1_555
O8A Mn2 1_555 1_555
O8A_2 C3A 1_555 1_555
C1A N1A 1_555 1_555
N1A Mn1A_4 1_555 1_555
C2A O1A_2 1_555 1_555
C3A O5A 1_555 1_555
C4A C1A 1_555 1_555
H1A C4A 1_555 1_555
C5A H2A 1_555 1_555
C6A C7A 1_555 1_555
C7A C4A 1_555 1_555
C8A N1A 1_555 1_555
H3A O6A 1_555 1_555
H4A O6A 1_555 1_555
H5A O3A 1_555 1_555
H6A O3A 1_555 1_555
C3 C8 1_555 1_555
C5 C7 1_555 1_555
C5 C8 1_555 1_555
Mn1A O1A 1_555 1_555
Mn1_3 O1A_2 1_555 1_555
O2A C2A 1_555 1_555
C1A C2A 1_555 1_555
C3A C8A 1_555 1_555
C5A C7A 1_555 1_555
C5A C8A 1_555 1_555

#END
