
#######################################################################
#
#                 Cambridge Crystallographic Data Centre
#                                CCDC 
#
#######################################################################
#
# If this CIF has been generated from an entry in the Cambridge 
# Structural Database, then it will include bibliographic, chemical, 
# crystal, experimental, refinement or atomic coordinate data resulting 
# from the CCDC's data processing and validation procedures.
#
#######################################################################

data_DIJCEF
_symmetry_cell_setting           monoclinic
_symmetry_space_group_name_H-M   'C 2/m'
_symmetry_Int_Tables_number      12
_space_group_name_Hall           '-C 2y'
loop_
_symmetry_equiv_pos_site_id
_symmetry_equiv_pos_as_xyz
1 x,y,z
2 1/2+x,1/2+y,z
3 -x,y,-z
4 1/2-x,1/2+y,-z
5 -x,-y,-z
6 1/2-x,1/2-y,-z
7 x,-y,z
8 1/2+x,1/2-y,z
_cell_length_a                   16.872(3)
_cell_length_b                   11.1942(15)
_cell_length_c                   6.5214(9)
_cell_angle_alpha                90
_cell_angle_beta                 112.255(15)
_cell_angle_gamma                90
_cell_volume                     1139.94
loop_
_atom_site_label
_atom_site_type_symbol
_atom_site_fract_x
_atom_site_fract_y
_atom_site_fract_z
Er1 Er 0.688603(17) 0.5000 0.82149(5)
C1 C 0.9857(5) 0.6011(12) 0.7339(13)
H1 H 1.0164 0.6719 0.7507
C2 C 0.8971(5) 0.6068(10) 0.6777(12)
H2 H 0.8692 0.6801 0.6554
C3 C 0.8510(6) 0.5000 0.6554(13)
C4 C 0.5142(5) 0.5000 0.4015(12)
C5 C 0.7053(3) 0.2248(6) 0.9246(10)
N1 N 1.0268(6) 0.5000 0.7636(15)
H3 H 1.0815 0.5000 0.8031
S1 S 0.7704(4) 0.5000 0.6141(11)
O1 O 0.5946(4) 0.5000 0.4505(10)
O2 O 0.4560(4) 0.5000 0.2116(10)
O3 O 0.6540(3) 0.2971(4) 0.7945(8)
O4 O 0.6931(3) 0.1175(4) 0.9480(8)
O5 O 0.6754(5) 0.5000 1.1632(12)
H4 H 0.6260 0.5000 1.1692
H5 H 0.7198 0.5000 1.2821
Er1D Er 0.311397(17) 0.5000 0.17851(5)
Er1E Er 0.811397(17) 0.0000 1.17851(5)
Er1E_2 Er 0.811397(17) 1.0000 1.17851(5)
C1F C 0.9857(5) 0.3989(12) 0.7339(13)
C1D C 0.0143(5) 0.3989(12) 0.2661(13)
C1B C 0.0143(5) 0.6011(12) 0.2661(13)
H1F H 1.0164 0.3281 0.7507
H1D H -0.0164 0.3281 0.2493
H1B H -0.0164 0.6719 0.2493
C2F C 0.8971(5) 0.3932(10) 0.6777(12)
C2D C 0.1029(5) 0.3932(10) 0.3223(12)
C2B C 0.1029(5) 0.6068(10) 0.3223(12)
H2F H 0.8692 0.3199 0.6554
H2D H 0.1308 0.3199 0.3446
H2B H 0.1308 0.6801 0.3446
C3D C 0.1490(6) 0.5000 0.3446(13)
C4D C 0.4858(5) 0.5000 0.5985(12)
C5E C 0.7947(3) 0.2752(6) 1.0754(10)
C5F C 0.7053(3) 0.7752(6) 0.9246(10)
C5C C 0.7947(3) 0.7248(6) 1.0754(10)
N1D N -0.0268(6) 0.5000 0.2364(15)
H3D H -0.0815 0.5000 0.1969
S1D S 0.2296(4) 0.5000 0.3859(11)
O1D O 0.4054(4) 0.5000 0.5495(10)
O2D O 0.5440(4) 0.5000 0.7884(10)
O3E O 0.8460(3) 0.2029(4) 1.2055(8)
O3F O 0.6540(3) 0.7029(4) 0.7945(8)
O3C O 0.8460(3) 0.7971(4) 1.2055(8)
O3D O 0.3460(3) 0.7029(4) 0.2055(8)
O3B O 0.3460(3) 0.2971(4) 0.2055(8)
O4E O 0.8069(3) 0.3825(4) 1.0520(8)
O4F O 0.6931(3) 0.8825(4) 0.9480(8)
O4C O 0.8069(3) 0.6175(4) 1.0520(8)
O4A O 0.1931(3) 0.6175(4) -0.0520(8)
O4G O 0.1931(3) 0.3825(4) -0.0520(8)
O5D O 0.3246(5) 0.5000 -0.1632(12)
H4D H 0.3740 0.5000 -0.1692
H5D H 0.2802 0.5000 -0.2821
loop_
_geom_bond_atom_site_label_1
_geom_bond_atom_site_label_2
_geom_bond_site_symmetry_1
_geom_bond_site_symmetry_2
Er1 S1 1_555 1_555
C1 H1 1_555 1_555
C2 C1 1_555 1_555
H2 C2 1_555 1_555
C3 C2 1_555 1_555
C4 O1 1_555 1_555
C5 O3 1_555 1_555
N1 C1 1_555 1_555
H3 N1 1_555 1_555
S1 C3 1_555 1_555
O1 Er1 1_555 1_555
O2 C4 1_555 1_555
O3 Er1 1_555 1_555
O4 C5 1_555 1_555
O5 Er1 1_555 1_555
H4 O5 1_555 1_555
H5 O5 1_555 1_555
Er1D O2 1_555 1_555
Er1E O4 1_555 1_555
Er1E_2 O3C 1_555 1_555
C1F N1 1_555 1_555
C1D H1D 1_555 1_555
C1B H1B 1_555 1_555
H1F C1F 1_555 1_555
C2F C3 1_555 1_555
C2D C1D 1_555 1_555
C2B C1B 1_555 1_555
H2F C2F 1_555 1_555
H2D C2D 1_555 1_555
H2B C2B 1_555 1_555
C3D C2D 1_555 1_555
C4D C4 1_555 1_555
C5E C5 1_555 1_555
C5F C5C 1_555 1_555
C5C O3C 1_555 1_555
N1D C1D 1_555 1_555
H3D N1D 1_555 1_555
S1D Er1D 1_555 1_555
O1D Er1D 1_555 1_555
O2D Er1 1_555 1_555
O3E Er1E 1_555 1_555
O3F Er1 1_555 1_555
O3D Er1D 1_555 1_555
O3B Er1D 1_555 1_555
O4E Er1 1_555 1_555
O4F Er1E_2 1_555 1_555
O4C Er1 1_555 1_555
O4A Er1D 1_555 1_555
O4G Er1D 1_555 1_555
O5D Er1D 1_555 1_555
H4D O5D 1_555 1_555
H5D O5D 1_555 1_555
C1F C2F 1_555 1_555
C1B N1D 1_555 1_555
C2B C3D 1_555 1_555
C3D S1D 1_555 1_555
C4D O1D 1_555 1_555
C4D O2D 1_555 1_555
C5E O3E 1_555 1_555
C5E O4E 1_555 1_555
C5F O3F 1_555 1_555
C5F O4F 1_555 1_555
C5C O4C 1_555 1_555

#END
