
#######################################################################
#
#                 Cambridge Crystallographic Data Centre
#                                CCDC 
#
#######################################################################
#
# If this CIF has been generated from an entry in the Cambridge 
# Structural Database, then it will include bibliographic, chemical, 
# crystal, experimental, refinement or atomic coordinate data resulting 
# from the CCDC's data processing and validation procedures.
#
#######################################################################

data_DIJCOP
_symmetry_cell_setting           triclinic
_symmetry_space_group_name_H-M   'P -1'
_symmetry_Int_Tables_number      2
_space_group_name_Hall           '-P 1'
loop_
_symmetry_equiv_pos_site_id
_symmetry_equiv_pos_as_xyz
1 x,y,z
2 -x,-y,-z
_cell_length_a                   6.4474(16)
_cell_length_b                   8.597(2)
_cell_length_c                   9.895(2)
_cell_angle_alpha                110.113(3)
_cell_angle_beta                 95.081(3)
_cell_angle_gamma                102.098(4)
_cell_volume                     495.811
loop_
_atom_site_label
_atom_site_type_symbol
_atom_site_fract_x
_atom_site_fract_y
_atom_site_fract_z
Mn1 Mn 0.06477(6) 0.06084(5) 1.32982(4)
Mn2 Mn 0.5000 0.5000 1.0000
O1 O 0.1267(3) 0.1921(2) 1.16174(19)
O2 O 0.2752(3) 0.4334(2) 1.12848(19)
O3 O 0.6044(3) 0.9694(2) 1.6429(2)
O4 O 0.2886(3) 0.9774(2) 1.7184(2)
O5 O 0.2188(3) 0.3781(2) 1.81137(18)
O6 O 0.0495(3) 0.1641(2) 1.59994(19)
O7 O 0.0487(3) -0.1492(2) 1.11584(19)
H1 H 0.0035 -0.1357 1.0376
H2 H -0.0312 -0.2329 1.1302
O8 O 0.4328(3) 0.7478(2) 1.0540(2)
H3 H 0.5384 0.8237 1.1167
H4 H 0.3081 0.7584 1.0701
N1 N 0.1855(3) 0.3536(2) 1.4469(2)
C1 C 0.2133(4) 0.3507(3) 1.2057(3)
C2 C 0.2412(4) 0.4491(3) 1.3672(3)
C3 C 0.3208(4) 0.6267(3) 1.4292(3)
H5 H 0.3609 0.6894 1.3713
C4 C 0.3387(4) 0.7079(3) 1.5787(3)
C5 C 0.2842(4) 0.6096(3) 1.6622(3)
H6 H 0.2963 0.6615 1.7629
C6 C 0.2114(4) 0.4330(3) 1.5932(3)
C7 C 0.1567(4) 0.3158(3) 1.6746(3)
C8 C 0.4181(4) 0.9000(3) 1.6507(3)
Mn1A Mn 0.93523(6) 0.93916(5) 0.67018(4)
Mn1A_2 Mn 0.93523(6) 0.93916(5) 1.67018(4)
Mn1A_3 Mn -0.06477(6) 0.93916(5) 1.67018(4)
Mn1A_4 Mn -0.06477(6) -0.06084(5) 1.67018(4)
Mn1_2 Mn 0.06477(6) 0.06084(5) 0.32982(4)
Mn1_3 Mn 1.06477(6) 0.06084(5) 0.32982(4)
Mn1_4 Mn 1.06477(6) 1.06084(5) 0.32982(4)
Mn2_2 Mn 0.5000 0.5000 2.0000
Mn2_3 Mn 0.5000 0.5000 0.0000
O1A O 0.8733(3) 0.8079(2) 0.83826(19)
O2A O 0.7248(3) 0.5666(2) 0.87152(19)
O3A O 0.3956(3) 0.0306(2) 0.3571(2)
O3A_2 O 0.3956(3) 0.0306(2) 1.3571(2)
O3_2 O 0.6044(3) 0.9694(2) 0.6429(2)
O4A O 0.7114(3) 0.0226(2) 0.2816(2)
O4A_2 O -0.2886(3) 0.0226(2) 1.2816(2)
O4_2 O 1.2886(3) 0.9774(2) 0.7184(2)
O5A O 0.7812(3) 0.6219(2) 0.18863(18)
O5_2 O 0.2188(3) 0.3781(2) 0.81137(18)
O5A_2 O 0.7812(3) 0.6219(2) 1.18863(18)
O6A O 0.9505(3) 0.8359(2) 0.40006(19)
O6A_2 O -0.0495(3) -0.1641(2) 1.40006(19)
O6_2 O 1.0495(3) 1.1641(2) 0.59994(19)
O7A O 0.9513(3) 1.1492(2) 0.88416(19)
H1A H 0.9965 1.1357 0.9624
H2A H 1.0312 1.2329 0.8698
O8A O 0.5672(3) 0.2522(2) 0.9460(2)
H3A H 0.4616 0.1763 0.8833
H4A H 0.6919 0.2416 0.9299
N1A N 0.8145(3) 0.6464(2) 0.5531(2)
C1A C 0.7867(4) 0.6493(3) 0.7943(3)
C2A C 0.7588(4) 0.5509(3) 0.6328(3)
C3A C 0.6792(4) 0.3733(3) 0.5708(3)
H5A H 0.6391 0.3106 0.6287
C4A C 0.6613(4) 0.2921(3) 0.4213(3)
C5A C 0.7158(4) 0.3904(3) 0.3378(3)
H6A H 0.7037 0.3385 0.2371
C6A C 0.7886(4) 0.5670(3) 0.4068(3)
C7A C 0.8433(4) 0.6842(3) 0.3254(3)
C8A C 0.5819(4) 0.1000(3) 0.3493(3)
loop_
_geom_bond_atom_site_label_1
_geom_bond_atom_site_label_2
_geom_bond_site_symmetry_1
_geom_bond_site_symmetry_2
Mn1 O1 1_555 1_555
Mn2 O2 1_555 1_555
O1 C1 1_555 1_555
O2 C1 1_555 1_555
O3 C8 1_555 1_555
O4 C8 1_555 1_555
O5 C7 1_555 1_555
O6 C7 1_555 1_555
O7 Mn1 1_555 1_555
H1 O7 1_555 1_555
H2 O7 1_555 1_555
O8 Mn2 1_555 1_555
H3 O8 1_555 1_555
H4 O8 1_555 1_555
N1 Mn1 1_555 1_555
C1 C2 1_555 1_555
C2 N1 1_555 1_555
C3 C2 1_555 1_555
H5 C3 1_555 1_555
C4 C3 1_555 1_555
C5 C4 1_555 1_555
H6 C5 1_555 1_555
C6 N1 1_555 1_555
C7 C6 1_555 1_555
C8 C4 1_555 1_555
Mn1A O1A 1_555 1_555
Mn1A_2 O3 1_555 1_555
Mn1A_3 O4 1_555 1_555
Mn1A_4 O6 1_555 1_555
Mn1_2 O3A 1_555 1_555
Mn1_3 O4A 1_555 1_555
Mn1_4 O6A 1_555 1_555
Mn2_2 O5 1_555 1_555
Mn2_3 O5A 1_555 1_555
O1A C1A 1_555 1_555
O2A Mn2 1_555 1_555
O3A C8A 1_555 1_555
O3A_2 Mn1 1_555 1_555
O3_2 Mn1A 1_555 1_555
O4A C8A 1_555 1_555
O4A_2 Mn1 1_555 1_555
O4_2 Mn1A 1_555 1_555
O5A C7A 1_555 1_555
O5_2 Mn2 1_555 1_555
O5A_2 Mn2 1_555 1_555
O6A C7A 1_555 1_555
O6A_2 Mn1 1_555 1_555
O6_2 Mn1A 1_555 1_555
O7A Mn1A 1_555 1_555
H1A O7A 1_555 1_555
H2A O7A 1_555 1_555
O8A Mn2 1_555 1_555
H3A O8A 1_555 1_555
H4A O8A 1_555 1_555
N1A Mn1A 1_555 1_555
C1A O2A 1_555 1_555
C2A N1A 1_555 1_555
C3A C2A 1_555 1_555
H5A C3A 1_555 1_555
C4A C3A 1_555 1_555
C5A C4A 1_555 1_555
H6A C5A 1_555 1_555
C6A N1A 1_555 1_555
C7A C6A 1_555 1_555
C8A C4A 1_555 1_555
C5 C6 1_555 1_555
C1A C2A 1_555 1_555
C5A C6A 1_555 1_555

#END
