
#######################################################################
#
#                 Cambridge Crystallographic Data Centre
#                                CCDC 
#
#######################################################################
#
# If this CIF has been generated from an entry in the Cambridge 
# Structural Database, then it will include bibliographic, chemical, 
# crystal, experimental, refinement or atomic coordinate data resulting 
# from the CCDC's data processing and validation procedures.
#
#######################################################################

data_DIJCAB
_symmetry_cell_setting           monoclinic
_symmetry_space_group_name_H-M   'C 2/m'
_symmetry_Int_Tables_number      12
_space_group_name_Hall           '-C 2y'
loop_
_symmetry_equiv_pos_site_id
_symmetry_equiv_pos_as_xyz
1 x,y,z
2 1/2+x,1/2+y,z
3 -x,y,-z
4 1/2-x,1/2+y,-z
5 -x,-y,-z
6 1/2-x,1/2-y,-z
7 x,-y,z
8 1/2+x,1/2-y,z
_cell_length_a                   16.898(2)
_cell_length_b                   11.2444(15)
_cell_length_c                   6.5432(9)
_cell_angle_alpha                90
_cell_angle_beta                 111.898(15)
_cell_angle_gamma                90
_cell_volume                     1153.56
loop_
_atom_site_label
_atom_site_type_symbol
_atom_site_fract_x
_atom_site_fract_y
_atom_site_fract_z
Dy1 Dy 0.688892(18) 0.5000 0.81942(5)
C1 C 0.9857(5) 0.6006(16) 0.7351(14)
H1 H 1.0161 0.6714 0.7550
C2 C 0.8975(5) 0.6052(11) 0.6756(13)
H2 H 0.8693 0.6780 0.6493
C3 C 0.8524(6) 0.5000 0.6560(14)
C4 C 0.7949(4) 0.7249(6) 1.0743(10)
C5 C 0.4869(5) 0.5000 0.5995(14)
N1 N 1.0269(6) 0.5000 0.7638(18)
H3 H 1.0814 0.5000 0.8017
O1 O 0.8073(3) 0.6181(5) 1.0478(9)
O2 O 0.8450(3) 0.7960(5) 1.2046(9)
O3 O 0.5436(4) 0.5000 0.7866(12)
O4 O 0.4059(4) 0.5000 0.5513(11)
O5 O 0.6753(6) 0.5000 1.1641(14)
H4 H 0.6266 0.5000 1.1731
H5 H 0.7193 0.5000 1.2795
S1 S 0.7713(5) 0.5000 0.6083(13)
Dy1E Dy 0.811108(18) 1.0000 1.18058(5)
Dy1D Dy 0.311108(18) 0.5000 0.18058(5)
Dy1E_2 Dy 0.811108(18) 0.0000 1.18058(5)
C1F C 0.9857(5) 0.3994(16) 0.7351(14)
C1E C 0.5143(5) 0.8994(16) 1.2649(14)
C1C C 0.5143(5) 1.1006(16) 1.2649(14)
H1F H 1.0161 0.3286 0.7550
H1E H 0.4839 0.8286 1.2450
H1C H 0.4839 1.1714 1.2450
C2F C 0.8975(5) 0.3948(11) 0.6756(13)
C2E C 0.6025(5) 0.8948(11) 1.3244(13)
C2C C 0.6025(5) 1.1052(11) 1.3244(13)
H2F H 0.8693 0.3220 0.6493
H2E H 0.6307 0.8220 1.3507
H2C H 0.6307 1.1780 1.3507
C3E C 0.6476(6) 1.0000 1.3440(14)
C4E C 0.7051(4) 0.7751(6) 0.9257(10)
C4F C 0.7949(4) 0.2751(6) 1.0743(10)
C4C C 0.7051(4) 0.2249(6) 0.9257(10)
C5D C 0.5131(5) 0.5000 0.4005(14)
N1E N 0.4731(6) 1.0000 1.2362(18)
H3E H 0.4186 1.0000 1.1983
O1E O 0.6927(3) 0.8819(5) 0.9522(9)
O1F O 0.8073(3) 0.3819(5) 1.0478(9)
O1C O 0.6927(3) 0.1181(5) 0.9522(9)
O1C_2 O 0.6927(3) 1.1181(5) 0.9522(9)
O2E O 0.6550(3) 0.7040(5) 0.7954(9)
O2F O 0.8450(3) 0.2040(5) 1.2046(9)
O2C O 0.6550(3) 0.2960(5) 0.7954(9)
O2F_2 O 0.8450(3) 1.2040(5) 1.2046(9)
O3D O 0.4564(4) 0.5000 0.2134(12)
O3E O 0.9564(4) 1.0000 1.2134(12)
O4D O 0.5941(4) 0.5000 0.4487(11)
O4A O 0.9059(4) 1.0000 1.5513(11)
O5E O 0.8247(6) 1.0000 0.8359(14)
H4E H 0.8734 1.0000 0.8269
H5E H 0.7807 1.0000 0.7205
S1E S 0.7287(5) 1.0000 1.3917(13)
loop_
_geom_bond_atom_site_label_1
_geom_bond_atom_site_label_2
_geom_bond_site_symmetry_1
_geom_bond_site_symmetry_2
Dy1 O1 1_555 1_555
C1 H1 1_555 1_555
C2 C1 1_555 1_555
H2 C2 1_555 1_555
C3 C2 1_555 1_555
C4 O1 1_555 1_555
C5 O3 1_555 1_555
N1 C1 1_555 1_555
H3 N1 1_555 1_555
O2 C4 1_555 1_555
O3 Dy1 1_555 1_555
O4 C5 1_555 1_555
O5 Dy1 1_555 1_555
H4 O5 1_555 1_555
H5 O5 1_555 1_555
S1 Dy1 1_555 1_555
Dy1E O2 1_555 1_555
Dy1D O4 1_555 1_555
Dy1E_2 O1C 1_555 1_555
C1F N1 1_555 1_555
C1E H1E 1_555 1_555
C1C H1C 1_555 1_555
H1F C1F 1_555 1_555
C2F C3 1_555 1_555
C2E C1E 1_555 1_555
C2C C1C 1_555 1_555
H2F C2F 1_555 1_555
H2E C2E 1_555 1_555
H2C C2C 1_555 1_555
C3E C2E 1_555 1_555
C4E C4 1_555 1_555
C4F C4C 1_555 1_555
C4C O1C 1_555 1_555
C5D C5 1_555 1_555
N1E C1E 1_555 1_555
H3E N1E 1_555 1_555
O1E Dy1E 1_555 1_555
O1F Dy1 1_555 1_555
O1C_2 Dy1E 1_555 1_555
O2E Dy1 1_555 1_555
O2F Dy1E_2 1_555 1_555
O2C Dy1 1_555 1_555
O2F_2 Dy1E 1_555 1_555
O3D Dy1D 1_555 1_555
O3E Dy1E 1_555 1_555
O4D Dy1 1_555 1_555
O4A Dy1E 1_555 1_555
O5E Dy1E 1_555 1_555
H4E O5E 1_555 1_555
H5E O5E 1_555 1_555
S1E Dy1E 1_555 1_555
C3 S1 1_555 1_555
C1F C2F 1_555 1_555
C1C N1E 1_555 1_555
C2C C3E 1_555 1_555
C3E S1E 1_555 1_555
C4E O1E 1_555 1_555
C4E O2E 1_555 1_555
C4F O1F 1_555 1_555
C4F O2F 1_555 1_555
C4C O2C 1_555 1_555
C5D O3D 1_555 1_555
C5D O4D 1_555 1_555

#END
