
#######################################################################
#
#                 Cambridge Crystallographic Data Centre
#                                CCDC 
#
#######################################################################
#
# If this CIF has been generated from an entry in the Cambridge 
# Structural Database, then it will include bibliographic, chemical, 
# crystal, experimental, refinement or atomic coordinate data resulting 
# from the CCDC's data processing and validation procedures.
#
#######################################################################

data_DIJSIY
_symmetry_cell_setting           monoclinic
_symmetry_space_group_name_H-M   'P 21/m'
_symmetry_Int_Tables_number      11
_space_group_name_Hall           '-P 2yb'
loop_
_symmetry_equiv_pos_site_id
_symmetry_equiv_pos_as_xyz
1 x,y,z
2 -x,1/2+y,-z
3 -x,-y,-z
4 x,1/2-y,z
_cell_length_a                   6.059(2)
_cell_length_b                   19.710(5)
_cell_length_c                   7.895(2)
_cell_angle_alpha                90
_cell_angle_beta                 105.63(2)
_cell_angle_gamma                90
_cell_volume                     907.979
loop_
_atom_site_label
_atom_site_type_symbol
_atom_site_fract_x
_atom_site_fract_y
_atom_site_fract_z
Hg1 Hg 0.15479(8) 0.08776(3) 0.36687(7)
S1 S 0.4327(6) 0.1374(2) 0.6171(5)
S2 S -0.0860(7) -0.0021(2) 0.2115(7)
C1 C 0.6598(21) 0.1434(7) 0.5344(16)
N1 N -0.1850(21) 0.1503(7) 0.4817(18)
C2 C -0.3468(25) 0.0248(7) 0.2158(18)
N2 N 0.4730(21) 0.0398(7) 0.2161(20)
N3 N 0.1101(16) 0.1872(5) 0.1644(14)
N4 N -0.1047(26) 0.2500 -0.0956(21)
N5 N 0.3118(22) 0.2500 -0.0183(17)
C3 C -0.0990(20) 0.1895(7) 0.0140(18)
C4 C 0.3148(20) 0.1895(8) 0.0905(18)
C5 C 0.1168(29) 0.2500 0.2707(24)
C6 C 0.0979(32) 0.2500 -0.1623(23)
H1 H -0.2314 0.1897 0.0588
H2 H -0.1023 0.1498 -0.0573
H3 H 0.3139 0.1498 0.0198
H4 H 0.4519 0.1900 0.1861
H5 H -0.0130 0.2500 0.3186
H6 H 0.2554 0.2500 0.3648
H7 H 0.0949 0.2102 -0.2331
N1_2 N 0.8150(21) 0.1503(7) 0.4817(18)
C1_2 C -0.3402(21) 0.1434(7) 0.5344(16)
N2_2 N -0.5270(21) 0.0398(7) 0.2161(20)
C2_2 C 0.6532(25) 0.0248(7) 0.2158(18)
C3C C -0.0990(20) 0.3105(7) 0.0140(18)
C4C C 0.3148(20) 0.3105(8) 0.0905(18)
N3C N 0.1101(16) 0.3128(5) 0.1644(14)
H7C H 0.0949 0.2898 -0.2331
H1C H -0.2314 0.3103 0.0588
H2C H -0.1023 0.3502 -0.0573
H3C H 0.3139 0.3502 0.0198
H4C H 0.4519 0.3100 0.1861
Hg1C Hg 0.15479(8) 0.41224(3) 0.36687(7)
S1_2 S -0.5673(6) 0.1374(2) 0.6171(5)
Hg1_2 Hg -0.84521(8) 0.08776(3) 0.36687(7)
Hg1_3 Hg 1.15479(8) 0.08776(3) 0.36687(7)
S2_2 S 0.9140(7) -0.0021(2) 0.2115(7)
S2_3 S -1.0860(7) -0.0021(2) 0.2115(7)
N1_3 N -1.1850(21) 0.1503(7) 0.4817(18)
N3_2 N -0.8899(16) 0.1872(5) 0.1644(14)
loop_
_geom_bond_atom_site_label_1
_geom_bond_atom_site_label_2
_geom_bond_site_symmetry_1
_geom_bond_site_symmetry_2
Hg1 S1 1_555 1_555
S1 C1 1_555 1_555
S2 Hg1 1_555 1_555
C1 N1_2 1_555 1_555
N1 Hg1 1_555 1_555
C2 S2 1_555 1_555
N2 Hg1 1_555 1_555
N3 Hg1 1_555 1_555
N4 C3 1_555 1_555
N5 C4 1_555 1_555
C3 N3 1_555 1_555
C4 N3 1_555 1_555
C5 N3 1_555 1_555
C6 N4 1_555 1_555
H1 C3 1_555 1_555
H2 C3 1_555 1_555
H3 C4 1_555 1_555
H4 C4 1_555 1_555
H5 C5 1_555 1_555
H6 C5 1_555 1_555
H7 C6 1_555 1_555
N1_2 Hg1_3 1_555 1_555
C1_2 N1 1_555 1_555
N2_2 C2 1_555 1_555
C2_2 N2 1_555 1_555
C3C N4 1_555 1_555
C4C N5 1_555 1_555
N3C C5 1_555 1_555
H7C C6 1_555 1_555
H1C C3C 1_555 1_555
H2C C3C 1_555 1_555
H3C C4C 1_555 1_555
H4C C4C 1_555 1_555
Hg1C N3C 1_555 1_555
S1_2 C1_2 1_555 1_555
Hg1_2 N2_2 1_555 1_555
Hg1_3 S2_2 1_555 1_555
S2_2 C2_2 1_555 1_555
S2_3 Hg1_2 1_555 1_555
N1_3 Hg1_2 1_555 1_555
N3_2 Hg1_2 1_555 1_555
N5 C6 1_555 1_555
C3C N3C 1_555 1_555
C4C N3C 1_555 1_555
S1_2 Hg1_2 1_555 1_555

#END
