
#######################################################################
#
#                 Cambridge Crystallographic Data Centre
#                                CCDC 
#
#######################################################################
#
# If this CIF has been generated from an entry in the Cambridge 
# Structural Database, then it will include bibliographic, chemical, 
# crystal, experimental, refinement or atomic coordinate data resulting 
# from the CCDC's data processing and validation procedures.
#
#######################################################################

data_DIJWID
_symmetry_cell_setting           triclinic
_symmetry_space_group_name_H-M   'P -1'
_symmetry_Int_Tables_number      2
_space_group_name_Hall           '-P 1'
loop_
_symmetry_equiv_pos_site_id
_symmetry_equiv_pos_as_xyz
1 x,y,z
2 -x,-y,-z
_cell_length_a                   10.215(5)
_cell_length_b                   11.271(5)
_cell_length_c                   17.523(8)
_cell_angle_alpha                91.123(8)
_cell_angle_beta                 95.620(8)
_cell_angle_gamma                100.987(8)
_cell_volume                     1969.47
loop_
_atom_site_label
_atom_site_type_symbol
_atom_site_fract_x
_atom_site_fract_y
_atom_site_fract_z
Co1 Co 0.88801(5) 0.49046(4) 0.82863(3)
Co2 Co 1.06977(5) 0.99007(4) 0.67533(3)
Co3 Co 1.32594(5) 1.14515(5) 0.74650(3)
Co4 Co 0.61598(5) 0.32659(5) 0.78587(3)
Co5 Co 0.96972(5) 1.23812(4) 0.74894(3)
Co6 Co 1.0000 0.5000 1.0000
Co7 Co 1.0000 1.0000 0.5000
Co8 Co 0.96866(5) 0.73940(4) 0.74995(3)
O1 O 1.1685(3) 0.7778(3) 0.78800(19)
O2 O 1.2491(3) 0.9547(2) 0.73775(16)
O3 O 1.5249(3) 1.1442(3) 0.79268(18)
O4 O 1.6110(4) 1.0665(4) 0.8983(2)
O5 O 0.9597(3) 0.9254(2) 0.76543(16)
O6 O 0.9250(3) 1.0958(3) 0.82129(17)
O7 O 0.9342(3) 0.6789(2) 0.86100(15)
O8 O 1.0142(3) 0.6809(3) 0.98519(16)
O9 O 0.7672(3) 0.6914(3) 0.71622(18)
O10 O 0.7013(3) 0.5142(2) 0.76966(16)
O11 O 0.3004(4) 0.3807(3) 0.6489(2)
O12 O 0.4126(3) 0.3271(2) 0.75427(17)
O13 O 0.8126(3) 0.4678(3) 0.93514(15)
O14 O 0.6026(3) 0.3696(3) 0.90139(16)
O15 O 0.9305(3) 0.5201(2) 1.10689(15)
O16 O 0.8760(3) 0.6802(3) 1.16301(18)
O17 O 0.9072(3) 1.0156(2) 0.59937(15)
O18 O 0.8155(3) 1.1487(3) 0.66080(18)
O19 O 0.6264(3) 0.8749(3) 0.37190(16)
O20 O 0.8256(3) 0.9775(2) 0.42345(15)
O21 O 0.9794(3) 0.5539(2) 0.73381(16)
O22 O 1.0054(3) 0.3828(3) 0.67648(17)
O23 O 1.0151(3) 0.8055(2) 0.64157(15)
O24 O 0.9807(3) 0.8159(2) 0.51396(16)
O25 O 0.8191(3) 0.3089(2) 0.80235(15)
O26 O 1.1293(2) 1.1677(2) 0.70741(15)
O27 O 0.6217(3) 0.2870(3) 0.66477(17)
O28 O 1.2607(3) 1.1346(3) 0.85792(18)
C1 C 1.2621(4) 0.8647(4) 0.7786(2)
C2 C 1.3984(5) 0.8538(5) 0.8180(4)
H1 H 1.4072 0.7699 0.8129
H2 H 1.3990 0.8725 0.8723
C3 C 1.5224(4) 0.9318(4) 0.7903(4)
H3 H 1.5977 0.8910 0.7992
H4 H 1.5065 0.9415 0.7355
C4 C 1.5577(4) 1.0561(4) 0.8312(3)
C5 C 0.9209(4) 0.9846(4) 0.8197(2)
C6 C 0.8704(5) 0.9145(4) 0.8872(2)
H5 H 0.8008 0.8464 0.8685
H6 H 0.8311 0.9663 0.9194
C7 C 0.9833(5) 0.8676(4) 0.9360(3)
H7 H 0.9784 0.8873 0.9897
H8 H 1.0691 0.9101 0.9224
C8 C 0.9779(4) 0.7329(3) 0.9266(2)
C9 C 0.6798(4) 0.6022(4) 0.7279(2)
C10 C 0.5387(5) 0.6019(5) 0.6904(4)
H9 H 0.5288 0.5623 0.6400
H10 H 0.5289 0.6850 0.6832
C11 C 0.4235(4) 0.5388(4) 0.7354(3)
H11 H 0.4549 0.5427 0.7896
H12 H 0.3498 0.5819 0.7288
C12 C 0.3733(4) 0.4078(4) 0.7092(3)
C13 C 0.6926(4) 0.4233(3) 0.9503(2)
C14 C 0.6630(4) 0.4388(4) 1.0332(2)
H13 H 0.7044 0.3830 1.0642
H14 H 0.5669 0.4170 1.0353
C15 C 0.7130(4) 0.5682(4) 1.0687(2)
H15 H 0.7167 0.6244 1.0273
H16 H 0.6469 0.5863 1.1010
C16 C 0.8498(4) 0.5924(4) 1.1164(2)
C17 C 0.8107(4) 1.0699(4) 0.6090(2)
C18 C 0.6813(4) 1.0343(4) 0.5553(3)
H17 H 0.6780 1.0978 0.5189
H18 H 0.6064 1.0321 0.5855
C19 C 0.6603(4) 0.9124(4) 0.5094(2)
H19 H 0.5657 0.8758 0.5053
H20 H 0.7088 0.8589 0.5381
C20 C 0.7050(4) 0.9208(3) 0.4290(2)
C21 C 1.0191(4) 0.4944(4) 0.6799(2)
C22 C 1.0853(5) 0.5687(4) 0.6178(2)
H21 H 1.1295 0.5180 0.5878
H22 H 1.1534 0.6342 0.6418
C23 C 0.9845(6) 0.6223(4) 0.5636(3)
H23 H 0.8944 0.5822 0.5717
H24 H 0.9981 0.6036 0.5110
C24 C 0.9934(4) 0.7577(3) 0.5730(2)
Co1A Co 1.11199(5) 0.50954(4) 1.17137(3)
Co1_2 Co 0.88801(5) 1.49046(4) 0.82863(3)
Co2A Co 0.93023(5) 0.00993(4) 1.32467(3)
Co2A_2 Co 0.93023(5) 1.00993(4) 0.32467(3)
Co2_2 Co 0.06977(5) -0.00993(4) 0.67533(3)
Co2_3 Co 1.06977(5) 1.99007(4) 0.67533(3)
Co3_2 Co 0.32594(5) 0.14515(5) 0.74650(3)
Co3A Co 0.67406(5) 0.85485(5) 0.25350(3)
Co3A_2 Co 1.67406(5) 0.85485(5) 1.25350(3)
Co3A_3 Co 0.67406(5) -0.14515(5) 1.25350(3)
Co4A Co 1.38402(5) 0.67341(5) 1.21413(3)
Co4_2 Co 1.61598(5) 1.32659(5) 0.78587(3)
Co5A Co 1.03028(5) -0.23812(4) 1.25106(3)
Co5A_2 Co 1.03028(5) 0.76188(4) 1.25106(3)
Co5_2 Co 0.96972(5) 0.23812(4) 0.74894(3)
Co5A_3 Co 1.03028(5) 0.76188(4) 0.25106(3)
Co7_2 Co 1.0000 2.0000 0.5000
Co8A Co 1.03134(5) 0.26060(4) 1.25005(3)
Co8_2 Co -0.03134(5) -0.26060(4) 0.74995(3)
Co8_3 Co 0.96866(5) 1.73940(4) 0.74995(3)
O1_2 O 0.1685(3) -0.2222(3) 0.78800(19)
O1A O 0.8315(3) 0.2222(3) 1.21200(19)
O2_2 O 0.2491(3) -0.0453(2) 0.73775(16)
O2A O 0.7509(3) 0.0453(2) 1.26225(16)
O3_2 O 0.5249(3) 0.1442(3) 0.79268(18)
O3A O 1.4751(3) 0.8558(3) 1.20732(18)
O4_2 O 0.6110(4) 0.0665(4) 0.8983(2)
O5A O 1.0403(3) 0.0746(2) 1.23457(16)
O6A O 1.0750(3) -0.0958(3) 1.17871(17)
O7A O 1.0658(3) 0.3211(2) 1.13900(15)
O8A O 0.9858(3) 0.3191(3) 1.01481(16)
O9A O 1.2328(3) 0.3086(3) 1.28378(18)
O10A O 1.2987(3) 0.4858(2) 1.23034(16)
O11A O 1.6996(4) 0.6193(3) 1.3511(2)
O12A O 1.5874(3) 0.6729(2) 1.24573(17)
O12_2 O 1.4126(3) 1.3271(2) 0.75427(17)
O13A O 1.1874(3) 0.5322(3) 1.06486(15)
O14A O 1.3974(3) 0.6304(3) 1.09861(16)
O15A O 1.0695(3) 0.4799(2) 0.89311(15)
O16A O 1.1240(3) 0.3198(3) 0.83699(18)
O16A_2 O 1.1240(3) 1.3198(3) 0.83699(18)
O16_2 O 0.8760(3) -0.3198(3) 1.16301(18)
O17A O 1.0928(3) 0.9844(2) 0.40063(15)
O17A_2 O 1.0928(3) -0.0156(2) 1.40063(15)
O18A O 1.1845(3) 0.8513(3) 0.33920(18)
O18A_2 O 1.1845(3) -0.1487(3) 1.33920(18)
O19A O 1.3736(3) 1.1251(3) 0.62810(16)
O19A_2 O 0.3736(3) 0.1251(3) 0.62810(16)
O20A O 1.1744(3) 1.0225(2) 0.57655(15)
O20_2 O 0.8256(3) -0.0225(2) 1.42345(15)
O21_2 O 0.9794(3) 1.5539(2) 0.73381(16)
O21A O 1.0206(3) 0.4461(2) 1.26619(16)
O22_2 O 1.0054(3) 1.3828(3) 0.67648(17)
O22A O 0.9946(3) -0.3828(3) 1.32352(17)
O23_2 O 1.0151(3) 1.8055(2) 0.64157(15)
O23A O 0.9849(3) 0.1945(2) 1.35843(15)
O24_2 O 0.9807(3) 1.8159(2) 0.51396(16)
O24A O 1.0193(3) 1.1841(2) 0.48604(16)
O25_2 O 0.8191(3) 1.3089(2) 0.80235(15)
O25A O 1.1809(3) 0.6911(2) 1.19765(15)
O25A_2 O 1.1809(3) -0.3089(2) 1.19765(15)
O26A O 0.8707(2) -0.1677(2) 1.29259(15)
O26_2 O 0.1293(2) 0.1677(2) 0.70741(15)
O27A O 1.3783(3) 0.7130(3) 1.33523(17)
O28_2 O 0.2607(3) 0.1346(3) 0.85792(18)
C1_2 C 0.2621(4) -0.1353(4) 0.7786(2)
C2_2 C 0.3984(5) -0.1462(5) 0.8180(4)
H1_2 H 0.4072 -0.2301 0.8129
H2_2 H 0.3990 -0.1275 0.8723
C3_2 C 0.5224(4) -0.0682(4) 0.7903(4)
H3_2 H 0.5977 -0.1090 0.7992
H4_2 H 0.5065 -0.0585 0.7355
C4_2 C 0.5577(4) 0.0561(4) 0.8312(3)
C5A C 1.0791(4) 0.0154(4) 1.1803(2)
C6A C 1.1296(5) 0.0855(4) 1.1128(2)
H5A H 1.1992 0.1536 1.1315
H6A H 1.1689 0.0337 1.0806
C7A C 1.0167(5) 0.1324(4) 1.0640(3)
H7A H 1.0216 0.1127 1.0103
H8A H 0.9309 0.0899 1.0776
C8A C 1.0221(4) 0.2671(3) 1.0734(2)
C9A C 1.3202(4) 0.3978(4) 1.2721(2)
C10A C 1.4613(5) 0.3981(5) 1.3096(4)
H9A H 1.4712 0.4377 1.3600
H10A H 1.4711 0.3150 1.3168
C11A C 1.5765(4) 0.4612(4) 1.2646(3)
H11A H 1.5451 0.4573 1.2104
H12A H 1.6502 0.4181 1.2712
C12A C 1.6267(4) 0.5922(4) 1.2908(3)
C13A C 1.3074(4) 0.5767(3) 1.0497(2)
C14A C 1.3370(4) 0.5612(4) 0.9668(2)
H13A H 1.2956 0.6170 0.9358
H14A H 1.4331 0.5830 0.9647
C15A C 1.2870(4) 0.4318(4) 0.9313(2)
H15A H 1.2833 0.3756 0.9727
H16A H 1.3531 0.4137 0.8990
C16A C 1.1502(4) 0.4076(4) 0.8836(2)
C17A C 1.1893(4) 0.9301(4) 0.3910(2)
C18A C 1.3187(4) 0.9657(4) 0.4447(3)
H17A H 1.3220 0.9022 0.4811
H18A H 1.3936 0.9679 0.4145
C19A C 1.3397(4) 1.0876(4) 0.4906(2)
H19A H 1.4343 1.1242 0.4947
H20A H 1.2912 1.1411 0.4619
C20A C 1.2950(4) 1.0792(3) 0.5710(2)
C21_2 C 1.0191(4) 1.4944(4) 0.6799(2)
C22_2 C 1.0853(5) 1.5687(4) 0.6178(2)
H21_2 H 1.1295 1.5180 0.5878
H22_2 H 1.1534 1.6342 0.6418
C23_2 C 0.9845(6) 1.6223(4) 0.5636(3)
H23_2 H 0.8944 1.5822 0.5717
H24_2 H 0.9981 1.6036 0.5110
C24_2 C 0.9934(4) 1.7577(3) 0.5730(2)
O29 O 1.4210(5) 1.1420(4) 0.9967(3)
O30 O 1.3522(9) 1.3994(8) 0.5006(5)
O31 O 0.6396(12) 0.3683(11) 0.5100(7)
O32 O 1.3688(15) 0.8110(13) 0.6063(9)
loop_
_geom_bond_atom_site_label_1
_geom_bond_atom_site_label_2
_geom_bond_site_symmetry_1
_geom_bond_site_symmetry_2
Co1 O7 1_555 1_555
Co2 O2 1_555 1_555
Co3 O2 1_555 1_555
Co4 O10 1_555 1_555
Co5 O6 1_555 1_555
Co6 O8 1_555 1_555
Co7 O17 1_555 1_555
Co8 O1 1_555 1_555
O1 C1 1_555 1_555
O2 C1 1_555 1_555
O3 Co3 1_555 1_555
O4 C4 1_555 1_555
O5 Co2 1_555 1_555
O6 C5 1_555 1_555
O7 Co8 1_555 1_555
O8 C8 1_555 1_555
O9 Co8 1_555 1_555
O10 Co1 1_555 1_555
O11 C12 1_555 1_555
O12 Co4 1_555 1_555
O13 Co1 1_555 1_555
O14 Co4 1_555 1_555
O15 Co6 1_555 1_555
O16 C16 1_555 1_555
O17 Co2 1_555 1_555
O18 Co5 1_555 1_555
O19 C20 1_555 1_555
O20 Co7 1_555 1_555
O21 Co1 1_555 1_555
O22 C21 1_555 1_555
O23 Co2 1_555 1_555
O24 Co7 1_555 1_555
O25 Co1 1_555 1_555
O26 Co2 1_555 1_555
O27 Co4 1_555 1_555
O28 Co3 1_555 1_555
C1 C2 1_555 1_555
C2 H1 1_555 1_555
H2 C2 1_555 1_555
C3 C2 1_555 1_555
H3 C3 1_555 1_555
H4 C3 1_555 1_555
C4 O3 1_555 1_555
C5 O5 1_555 1_555
C6 C5 1_555 1_555
H5 C6 1_555 1_555
H6 C6 1_555 1_555
C7 C6 1_555 1_555
H7 C7 1_555 1_555
H8 C7 1_555 1_555
C8 O7 1_555 1_555
C9 O9 1_555 1_555
C10 C9 1_555 1_555
H9 C10 1_555 1_555
H10 C10 1_555 1_555
C11 C10 1_555 1_555
H11 C11 1_555 1_555
H12 C11 1_555 1_555
C12 O12 1_555 1_555
C13 O13 1_555 1_555
C14 C13 1_555 1_555
H13 C14 1_555 1_555
H14 C14 1_555 1_555
C15 C14 1_555 1_555
H15 C15 1_555 1_555
H16 C15 1_555 1_555
C16 O15 1_555 1_555
C17 O17 1_555 1_555
C18 C17 1_555 1_555
H17 C18 1_555 1_555
H18 C18 1_555 1_555
C19 C18 1_555 1_555
H19 C19 1_555 1_555
H20 C19 1_555 1_555
C20 O20 1_555 1_555
C21 O21 1_555 1_555
C22 C21 1_555 1_555
H21 C22 1_555 1_555
H22 C22 1_555 1_555
C23 C22 1_555 1_555
H23 C23 1_555 1_555
H24 C23 1_555 1_555
C24 O23 1_555 1_555
Co1A O15 1_555 1_555
Co1_2 O21_2 1_555 1_555
Co2A O2A 1_555 1_555
Co2A_2 O20 1_555 1_555
Co2_2 O2_2 1_555 1_555
Co2_3 O23_2 1_555 1_555
Co3_2 O12 1_555 1_555
Co3A O19 1_555 1_555
Co3A_2 O3A 1_555 1_555
Co3A_3 O2A 1_555 1_555
Co4A O3A 1_555 1_555
Co4_2 O3 1_555 1_555
Co5A O6A 1_555 1_555
Co5A_2 O16 1_555 1_555
Co5_2 O22 1_555 1_555
Co5A_3 O18A 1_555 1_555
Co7_2 O24_2 1_555 1_555
Co8A O1A 1_555 1_555
Co8_2 O1_2 1_555 1_555
Co8_3 O21_2 1_555 1_555
O1_2 C1_2 1_555 1_555
O2_2 Co3_2 1_555 1_555
O3_2 Co4 1_555 1_555
O4_2 C4_2 1_555 1_555
O5A Co2A 1_555 1_555
O6A C5A 1_555 1_555
O7A Co1A 1_555 1_555
O8A Co6 1_555 1_555
O9A Co8A 1_555 1_555
O10A Co1A 1_555 1_555
O11A C12A 1_555 1_555
O12A Co3A_2 1_555 1_555
O12_2 Co3 1_555 1_555
O13A Co6 1_555 1_555
O14A Co4A 1_555 1_555
O15A Co1 1_555 1_555
O16A Co5_2 1_555 1_555
O16A_2 Co5 1_555 1_555
O16_2 Co5A 1_555 1_555
O17A Co7 1_555 1_555
O17A_2 Co2A 1_555 1_555
O18A C17A 1_555 1_555
O18A_2 Co5A 1_555 1_555
O19A Co3 1_555 1_555
O19A_2 Co3_2 1_555 1_555
O20A Co2 1_555 1_555
O20_2 Co2A 1_555 1_555
O21_2 C21_2 1_555 1_555
O21A Co1A 1_555 1_555
O22_2 Co5 1_555 1_555
O22A Co5A 1_555 1_555
O23_2 Co8_3 1_555 1_555
O23A Co2A 1_555 1_555
O24_2 C24_2 1_555 1_555
O24A Co7 1_555 1_555
O25_2 Co5 1_555 1_555
O25A Co1A 1_555 1_555
O25A_2 Co5A 1_555 1_555
O26A Co2A 1_555 1_555
O26_2 Co2_2 1_555 1_555
O27A Co4A 1_555 1_555
O28_2 Co3_2 1_555 1_555
C1_2 O2_2 1_555 1_555
C2_2 C1_2 1_555 1_555
H1_2 C2_2 1_555 1_555
H2_2 C2_2 1_555 1_555
C3_2 C2_2 1_555 1_555
H3_2 C3_2 1_555 1_555
H4_2 C3_2 1_555 1_555
C4_2 O3_2 1_555 1_555
C5A O5A 1_555 1_555
C6A C5A 1_555 1_555
H5A C6A 1_555 1_555
H6A C6A 1_555 1_555
C7A C6A 1_555 1_555
H7A C7A 1_555 1_555
H8A C7A 1_555 1_555
C8A O7A 1_555 1_555
C9A O9A 1_555 1_555
C10A C9A 1_555 1_555
H9A C10A 1_555 1_555
H10A C10A 1_555 1_555
C11A C10A 1_555 1_555
H11A C11A 1_555 1_555
H12A C11A 1_555 1_555
C12A O12A 1_555 1_555
C13A O13A 1_555 1_555
C14A C13A 1_555 1_555
H13A C14A 1_555 1_555
H14A C14A 1_555 1_555
C15A C14A 1_555 1_555
H15A C15A 1_555 1_555
H16A C15A 1_555 1_555
C16A O15A 1_555 1_555
C17A O17A 1_555 1_555
C18A C17A 1_555 1_555
H17A C18A 1_555 1_555
H18A C18A 1_555 1_555
C19A C18A 1_555 1_555
H19A C19A 1_555 1_555
H20A C19A 1_555 1_555
C20A O19A 1_555 1_555
C21_2 O22_2 1_555 1_555
C22_2 C21_2 1_555 1_555
H21_2 C22_2 1_555 1_555
H22_2 C22_2 1_555 1_555
C23_2 C22_2 1_555 1_555
H23_2 C23_2 1_555 1_555
H24_2 C23_2 1_555 1_555
C24_2 O23_2 1_555 1_555
Co3 O26 1_555 1_555
Co4 O25 1_555 1_555
Co5 O26 1_555 1_555
Co6 O13 1_555 1_555
Co6 O15A 1_555 1_555
Co7 O20A 1_555 1_555
Co8 O5 1_555 1_555
Co8 O21 1_555 1_555
Co8 O23 1_555 1_555
O10 C9 1_555 1_555
O14 C13 1_555 1_555
O18 C17 1_555 1_555
O24 C24 1_555 1_555
O25 Co5_2 1_555 1_555
C3 C4 1_555 1_555
C7 C8 1_555 1_555
C11 C12 1_555 1_555
C15 C16 1_555 1_555
C19 C20 1_555 1_555
C23 C24 1_555 1_555
Co1A O13A 1_555 1_555
Co1_2 O25_2 1_555 1_555
Co2A_2 O17A 1_555 1_555
Co3_2 O3_2 1_555 1_555
Co3_2 O26_2 1_555 1_555
Co3A_3 O26A 1_555 1_555
Co4A O10A 1_555 1_555
Co4A O12A 1_555 1_555
Co4A O25A 1_555 1_555
Co4_2 O12_2 1_555 1_555
Co5A O26A 1_555 1_555
Co5A_2 O25A 1_555 1_555
Co8A O5A 1_555 1_555
Co8A O7A 1_555 1_555
Co8A O21A 1_555 1_555
Co8A O23A 1_555 1_555
O8A C8A 1_555 1_555
O10A C9A 1_555 1_555
O14A C13A 1_555 1_555
O16A C16A 1_555 1_555
O20A C20A 1_555 1_555
C3_2 C4_2 1_555 1_555
C7A C8A 1_555 1_555
C11A C12A 1_555 1_555
C15A C16A 1_555 1_555
C19A C20A 1_555 1_555
C23_2 C24_2 1_555 1_555

#END
