
#######################################################################
#
#                 Cambridge Crystallographic Data Centre
#                                CCDC 
#
#######################################################################
#
# If this CIF has been generated from an entry in the Cambridge 
# Structural Database, then it will include bibliographic, chemical, 
# crystal, experimental, refinement or atomic coordinate data resulting 
# from the CCDC's data processing and validation procedures.
#
#######################################################################

data_DIJZIG
_symmetry_cell_setting           monoclinic
_symmetry_space_group_name_H-M   'P 21/n'
_symmetry_Int_Tables_number      14
_space_group_name_Hall           '-P 2yn'
loop_
_symmetry_equiv_pos_site_id
_symmetry_equiv_pos_as_xyz
1 x,y,z
2 1/2-x,1/2+y,1/2-z
3 -x,-y,-z
4 1/2+x,1/2-y,1/2+z
_cell_length_a                   7.856(2)
_cell_length_b                   26.525(7)
_cell_length_c                   10.692(3)
_cell_angle_alpha                90
_cell_angle_beta                 104.520(5)
_cell_angle_gamma                90
_cell_volume                     2156.84
loop_
_atom_site_label
_atom_site_type_symbol
_atom_site_fract_x
_atom_site_fract_y
_atom_site_fract_z
Cd1 Cd 0.70056(7) 0.69180(2) 0.37916(5)
Cd2 Cd 1.37935(7) 0.67767(2) 0.66496(6)
N1 N 1.4472(9) 0.6073(3) 0.7955(7)
O1 O 1.1041(7) 0.6495(2) 0.5778(5)
O2 O 0.8503(8) 0.6834(2) 0.5885(6)
O3 O 1.2489(8) 0.7164(2) 0.8149(6)
O4 O 1.0943(8) 0.7362(2) 0.9490(6)
O5 O 0.5307(6) 0.3462(2) 0.5114(5)
O6 O 0.4621(7) 0.3805(2) 0.6773(6)
O7 O 1.0951(7) 0.3232(2) 0.7246(6)
O8 O 0.8151(8) 0.3094(2) 0.7186(6)
O9 O 0.4915(10) 0.7073(3) 0.1729(8)
H1 H 0.3990 0.6899 0.1675
O10 O 1.3130(8) 0.7553(2) 0.5727(6)
H2 H 1.2983 0.7529 0.4914
H3 H 1.3972 0.7755 0.6032
O11 O 1.6490(8) 0.7081(2) 0.7602(6)
H4 H 1.6619 0.7366 0.7277
H5 H 1.7268 0.6878 0.7475
S1 S 0.7876(3) 0.55917(7) 0.6057(2)
C1 C 0.9095(9) 0.5836(3) 0.7569(8)
C2 C 0.9916(9) 0.6298(3) 0.7579(7)
C3 C 1.0708(10) 0.6521(3) 0.8758(7)
C4 C 1.0773(13) 0.6276(4) 0.9901(8)
H6 H 1.1300 0.6427 1.0687
C5 C 1.0036(13) 0.5795(3) 0.9863(8)
H7 H 1.0118 0.5620 1.0629
C6 C 0.9197(13) 0.5580(3) 0.8716(8)
H8 H 0.8694 0.5262 0.8704
C7 C 0.8311(10) 0.4938(3) 0.6267(7)
C8 C 0.6945(10) 0.4606(3) 0.6126(7)
H9 H 0.5802 0.4730 0.5913
C9 C 0.7206(9) 0.4093(3) 0.6288(7)
C10 C 0.8969(9) 0.3916(3) 0.6684(7)
C11 C 1.0321(11) 0.4256(3) 0.6804(8)
H10 H 1.1474 0.4140 0.7036
C12 C 1.0021(11) 0.4756(3) 0.6594(8)
H11 H 1.0961 0.4976 0.6670
C13 C 0.9845(9) 0.6559(3) 0.6329(7)
C14 C 1.1459(10) 0.7043(3) 0.8811(7)
C15 C 0.5634(9) 0.3758(3) 0.6039(7)
C16 C 0.9357(10) 0.3371(3) 0.7017(7)
C17 C 1.4171(12) 0.5609(4) 0.7490(9)
H12 H 1.3787 0.5569 0.6599
C18 C 1.4391(12) 0.5185(4) 0.8245(9)
H13 H 1.4199 0.4869 0.7857
C19 C 1.4897(9) 0.5220(3) 0.9579(7)
C20 C 1.5219(14) 0.5711(4) 1.0054(9)
H14 H 1.5578 0.5765 1.0941
C21 C 1.5012(13) 0.6112(3) 0.9230(9)
H15 H 1.5266 0.6432 0.9583
H16 H 0.497(16) 0.736(5) 0.144(13)
Cd1C Cd 0.20056(7) 0.80820(2) -0.12084(5)
Cd1C_2 Cd 1.20056(7) 0.80820(2) 0.87916(5)
Cd1B Cd 0.29944(7) 0.30820(2) 0.62084(5)
Cd1B_2 Cd 1.29944(7) 0.30820(2) 0.62084(5)
Cd1A Cd -0.20056(7) 1.19180(2) 0.12084(5)
Cd1A_2 Cd 0.79944(7) 1.19180(2) 0.12084(5)
Cd2C Cd 0.87935(7) 0.82233(2) 0.16496(6)
Cd2B Cd 0.62065(7) 0.32233(2) 0.33504(6)
Cd2B_2 Cd 1.62065(7) 0.32233(2) 1.33504(6)
Cd2A Cd 0.12065(7) 1.17767(2) -0.16496(6)
N1B N 1.5528(9) 0.3927(3) 1.2045(7)
N1C N 0.9472(9) 0.8927(3) 0.2955(7)
O1C O 0.6041(7) 0.8505(2) 0.0778(5)
O2C O 0.3503(8) 0.8166(2) 0.0885(6)
O3C O 0.7489(8) 0.7836(2) 0.3149(6)
O3_2 O 0.2489(8) 0.7164(2) -0.1851(6)
O4C O 0.5943(8) 0.7638(2) 0.4490(6)
O4_2 O 0.0943(8) 0.7362(2) -0.0510(6)
O5C O 0.0307(6) 1.1538(2) 0.0114(5)
O5B O 0.4693(6) 0.6538(2) 0.4886(5)
O5B_2 O 1.4693(6) 0.6538(2) 0.4886(5)
O5A O -0.0307(6) 0.8462(2) -0.0114(5)
O5A_2 O 0.9693(6) 0.8462(2) -0.0114(5)
O6C O -0.0379(7) 1.1195(2) 0.1773(6)
O6B O 0.5379(7) 0.6195(2) 0.3227(6)
O6A O 0.0379(7) 0.8805(2) -0.1773(6)
O7C O 0.5951(7) 1.1768(2) 0.2246(6)
O7B O 0.9049(7) 0.6768(2) 0.2754(6)
O7A O 0.4049(7) 0.8232(2) -0.2246(6)
O8C O 0.3151(8) 1.1906(2) 0.2186(6)
O9C O -0.0085(10) 0.7927(3) -0.3271(8)
H1C H -0.1010 0.8101 -0.3325
O10C O 0.8130(8) 0.7447(2) 0.0727(6)
H2C H 0.7983 0.7471 -0.0086
H3C H 0.8972 0.7245 0.1032
O11C O 1.1490(8) 0.7919(2) 0.2602(6)
H4C H 1.1619 0.7634 0.2277
H5C H 1.2268 0.8122 0.2475
S1C S 0.2876(3) 0.94083(7) 0.1057(2)
C1C C 0.4095(9) 0.9164(3) 0.2569(8)
C2C C 0.4916(9) 0.8702(3) 0.2579(7)
C3C C 0.5708(10) 0.8479(3) 0.3758(7)
C4C C 0.5773(13) 0.8724(4) 0.4901(8)
H6C H 0.6300 0.8573 0.5687
C5C C 0.5036(13) 0.9205(3) 0.4863(8)
H7C H 0.5118 0.9380 0.5629
C6C C 0.4197(13) 0.9420(3) 0.3716(8)
H8C H 0.3694 0.9738 0.3704
C7C C 0.3311(10) 1.0062(3) 0.1267(7)
C8C C 0.1945(10) 1.0394(3) 0.1126(7)
H9C H 0.0802 1.0270 0.0913
C9C C 0.2206(9) 1.0907(3) 0.1288(7)
C10C C 0.3969(9) 1.1084(3) 0.1684(7)
C11C C 0.5321(11) 1.0744(3) 0.1804(8)
H10C H 0.6474 1.0860 0.2036
C12C C 0.5021(11) 1.0244(3) 0.1594(8)
H11C H 0.5961 1.0024 0.1670
C13C C 0.4845(9) 0.8441(3) 0.1329(7)
C14C C 0.6459(10) 0.7957(3) 0.3811(7)
C15C C 0.0634(9) 1.1242(3) 0.1039(7)
C16C C 0.4357(10) 1.1629(3) 0.2017(7)
C17B C 1.5829(12) 0.4391(4) 1.2510(9)
H12B H 1.6213 0.4431 1.3401
C18B C 1.5609(12) 0.4815(4) 1.1755(9)
H13B H 1.5801 0.5131 1.2143
C19B C 1.5103(9) 0.4780(3) 1.0421(7)
C20B C 1.4781(14) 0.4289(4) 0.9946(9)
H14B H 1.4422 0.4235 0.9059
C21B C 1.4988(13) 0.3888(3) 1.0770(9)
H15B H 1.4734 0.3568 1.0417
H16C H -0.003(16) 0.764(5) -0.356(13)
loop_
_geom_bond_atom_site_label_1
_geom_bond_atom_site_label_2
_geom_bond_site_symmetry_1
_geom_bond_site_symmetry_2
Cd1 O2 1_555 1_555
Cd2 N1 1_555 1_555
N1 C17 1_555 1_555
O1 Cd2 1_555 1_555
O2 C13 1_555 1_555
O3 Cd2 1_555 1_555
O4 C14 1_555 1_555
O5 C15 1_555 1_555
O6 C15 1_555 1_555
O7 C16 1_555 1_555
O8 C16 1_555 1_555
O9 Cd1 1_555 1_555
H1 O9 1_555 1_555
O10 Cd2 1_555 1_555
H2 O10 1_555 1_555
H3 O10 1_555 1_555
O11 Cd2 1_555 1_555
H4 O11 1_555 1_555
H5 O11 1_555 1_555
S1 C1 1_555 1_555
C1 C2 1_555 1_555
C2 C3 1_555 1_555
C3 C4 1_555 1_555
C4 H6 1_555 1_555
C5 C4 1_555 1_555
H7 C5 1_555 1_555
C6 C1 1_555 1_555
H8 C6 1_555 1_555
C7 S1 1_555 1_555
C8 C7 1_555 1_555
H9 C8 1_555 1_555
C9 C8 1_555 1_555
C10 C9 1_555 1_555
C11 C10 1_555 1_555
H10 C11 1_555 1_555
C12 C7 1_555 1_555
H11 C12 1_555 1_555
C13 O1 1_555 1_555
C14 O3 1_555 1_555
C15 C9 1_555 1_555
C16 C10 1_555 1_555
C17 H12 1_555 1_555
C18 C17 1_555 1_555
H13 C18 1_555 1_555
C19 C18 1_555 1_555
C20 C19 1_555 1_555
H14 C20 1_555 1_555
C21 N1 1_555 1_555
H15 C21 1_555 1_555
H16 O9 1_555 1_555
Cd1C O2C 1_555 1_555
Cd1C_2 O3 1_555 1_555
Cd1B O5 1_555 1_555
Cd1B_2 O7 1_555 1_555
Cd1A O5C 1_555 1_555
Cd1A_2 O7C 1_555 1_555
Cd2C N1C 1_555 1_555
Cd2B O5 1_555 1_555
Cd2B_2 N1B 1_555 1_555
Cd2A O5C 1_555 1_555
N1B C17B 1_555 1_555
O1C Cd2C 1_555 1_555
O2C C13C 1_555 1_555
O3C Cd1 1_555 1_555
O3_2 Cd1C 1_555 1_555
O4C Cd1 1_555 1_555
O4_2 Cd1C 1_555 1_555
O5C C15C 1_555 1_555
O5B Cd1 1_555 1_555
O5B_2 Cd2 1_555 1_555
O5A Cd1C 1_555 1_555
O5A_2 Cd2C 1_555 1_555
O6C Cd1A 1_555 1_555
O6B Cd1 1_555 1_555
O6A Cd1C 1_555 1_555
O7C C16C 1_555 1_555
O7B Cd1 1_555 1_555
O7A Cd1C 1_555 1_555
O8C C16C 1_555 1_555
O9C Cd1C 1_555 1_555
H1C O9C 1_555 1_555
O10C Cd2C 1_555 1_555
H2C O10C 1_555 1_555
H3C O10C 1_555 1_555
O11C Cd2C 1_555 1_555
H4C O11C 1_555 1_555
H5C O11C 1_555 1_555
S1C C1C 1_555 1_555
C1C C2C 1_555 1_555
C2C C3C 1_555 1_555
C3C C4C 1_555 1_555
C4C H6C 1_555 1_555
C5C C4C 1_555 1_555
H7C C5C 1_555 1_555
C6C C1C 1_555 1_555
H8C C6C 1_555 1_555
C7C S1C 1_555 1_555
C8C C7C 1_555 1_555
H9C C8C 1_555 1_555
C9C C8C 1_555 1_555
C10C C9C 1_555 1_555
C11C C10C 1_555 1_555
H10C C11C 1_555 1_555
C12C C7C 1_555 1_555
H11C C12C 1_555 1_555
C13C O1C 1_555 1_555
C14C O3C 1_555 1_555
C15C O6C 1_555 1_555
C16C C10C 1_555 1_555
C17B H12B 1_555 1_555
C18B C17B 1_555 1_555
H13B C18B 1_555 1_555
C19B C19 1_555 1_555
C20B C19B 1_555 1_555
H14B C20B 1_555 1_555
C21B N1B 1_555 1_555
H15B C21B 1_555 1_555
H16C O9C 1_555 1_555
O4 Cd1C_2 1_555 1_555
O6 Cd1B 1_555 1_555
C2 C13 1_555 1_555
C3 C14 1_555 1_555
C5 C6 1_555 1_555
C11 C12 1_555 1_555
C20 C21 1_555 1_555
Cd2C O3C 1_555 1_555
O4C C14C 1_555 1_555
C2C C13C 1_555 1_555
C3C C14C 1_555 1_555
C5C C6C 1_555 1_555
C9C C15C 1_555 1_555
C11C C12C 1_555 1_555
C18B C19B 1_555 1_555
C20B C21B 1_555 1_555

#END
