
#######################################################################
#
#                 Cambridge Crystallographic Data Centre
#                                CCDC 
#
#######################################################################
#
# If this CIF has been generated from an entry in the Cambridge 
# Structural Database, then it will include bibliographic, chemical, 
# crystal, experimental, refinement or atomic coordinate data resulting 
# from the CCDC's data processing and validation procedures.
#
#######################################################################

data_DIJZUS01
_symmetry_cell_setting           orthorhombic
_symmetry_space_group_name_H-M   'P b c a'
_symmetry_Int_Tables_number      61
_space_group_name_Hall           '-P 2ac 2ab'
loop_
_symmetry_equiv_pos_site_id
_symmetry_equiv_pos_as_xyz
1 x,y,z
2 1/2-x,-y,1/2+z
3 -x,1/2+y,1/2-z
4 1/2+x,1/2-y,-z
5 -x,-y,-z
6 1/2+x,y,1/2-z
7 x,1/2-y,1/2+z
8 1/2-x,1/2+y,z
_cell_length_a                   9.1695(16)
_cell_length_b                   10.3607(19)
_cell_length_c                   12.504(2)
_cell_angle_alpha                90
_cell_angle_beta                 90
_cell_angle_gamma                90
_cell_volume                     1187.91
loop_
_atom_site_label
_atom_site_type_symbol
_atom_site_fract_x
_atom_site_fract_y
_atom_site_fract_z
Zn1 Zn 0.08665(4) 0.39403(4) 0.10219(3)
N1 N 0.2241(3) 0.2537(3) 0.0543(2)
N2 N 0.3392(3) 0.0657(3) 0.0500(2)
N3 N 0.3949(3) 0.1414(3) -0.0319(2)
N4 N 0.3491(4) 0.3546(4) -0.0909(3)
H1 H 0.279(6) 0.411(5) -0.092(3)
H2 H 0.399(5) 0.345(5) -0.146(4)
C1 C 0.2400(4) 0.1352(3) 0.0986(3)
H3 H 0.174(4) 0.098(3) 0.169(3)
C2 C 0.3231(3) 0.2527(3) -0.0264(3)
C3 C 0.0523(5) 0.3396(5) 0.3107(3)
H4 H 0.053(6) 0.358(5) 0.393(3)
O1 O 0.0964(4) 0.4308(3) 0.2551(2)
O2 O 0.0160(4) 0.2336(4) 0.2765(3)
Zn1G Zn 0.41335(4) -0.10597(4) 0.10219(3)
Zn1C Zn 0.58665(4) 0.10597(4) -0.10219(3)
N2G N 0.1608(3) 0.5657(3) 0.0500(2)
N3C N -0.1051(3) 0.3586(3) 0.0319(2)
loop_
_geom_bond_atom_site_label_1
_geom_bond_atom_site_label_2
_geom_bond_site_symmetry_1
_geom_bond_site_symmetry_2
Zn1 N1 1_555 1_555
N1 C1 1_555 1_555
N2 N3 1_555 1_555
N3 C2 1_555 1_555
N4 H1 1_555 1_555
H2 N4 1_555 1_555
C1 N2 1_555 1_555
H3 C1 1_555 1_555
C2 N1 1_555 1_555
C3 H4 1_555 1_555
O1 Zn1 1_555 1_555
O2 C3 1_555 1_555
Zn1G N2 1_555 1_555
Zn1C N3 1_555 1_555
N2G Zn1 1_555 1_555
N3C Zn1 1_555 1_555
N4 C2 1_555 1_555
C3 O1 1_555 1_555

#END
