
#######################################################################
#
#                 Cambridge Crystallographic Data Centre
#                                CCDC 
#
#######################################################################
#
# If this CIF has been generated from an entry in the Cambridge 
# Structural Database, then it will include bibliographic, chemical, 
# crystal, experimental, refinement or atomic coordinate data resulting 
# from the CCDC's data processing and validation procedures.
#
#######################################################################

data_DIJZEC
_symmetry_cell_setting           monoclinic
_symmetry_space_group_name_H-M   'P 21/n'
_symmetry_Int_Tables_number      14
_space_group_name_Hall           '-P 2yn'
loop_
_symmetry_equiv_pos_site_id
_symmetry_equiv_pos_as_xyz
1 x,y,z
2 1/2-x,1/2+y,1/2-z
3 -x,-y,-z
4 1/2+x,1/2-y,1/2+z
_cell_length_a                   10.332(2)
_cell_length_b                   9.3363(19)
_cell_length_c                   28.822(6)
_cell_angle_alpha                90
_cell_angle_beta                 90.210(4)
_cell_angle_gamma                90
_cell_volume                     2780.23
loop_
_atom_site_label
_atom_site_type_symbol
_atom_site_fract_x
_atom_site_fract_y
_atom_site_fract_z
C1 C 0.1267(5) -0.0758(5) 0.82952(18)
C2 C 0.0252(5) -0.1493(6) 0.80822(16)
C3 C 0.0524(4) -0.2523(5) 0.77578(16)
C4 C 0.1803(5) -0.2819(6) 0.76368(16)
H1 H 0.1987 -0.3538 0.7424
C5 C 0.2780(5) -0.2048(6) 0.78335(18)
H2 H 0.3635 -0.2212 0.7748
C6 C 0.2492(5) -0.1025(6) 0.81597(17)
H3 H 0.3164 -0.0499 0.8292
C7 C 0.2177(4) 0.1690(5) 0.87380(17)
C8 C 0.3150(5) 0.1619(5) 0.90791(17)
C9 C 0.4056(5) 0.2686(5) 0.90987(16)
C10 C 0.4051(5) 0.3797(6) 0.87741(18)
H4 H 0.4689 0.4499 0.8784
C11 C 0.3076(5) 0.3848(6) 0.84329(18)
H5 H 0.3068 0.4573 0.8212
C12 C 0.2151(5) 0.2828(6) 0.84323(18)
H6 H 0.1475 0.2893 0.8219
C13 C -0.1099(5) -0.1120(5) 0.82301(17)
C14 C -0.0557(4) -0.3304(6) 0.75122(17)
C15 C 0.3138(5) 0.0377(6) 0.94089(19)
C16 C 0.5070(4) 0.2757(5) 0.94838(16)
C17 C -0.2063(4) 0.1728(5) 0.90877(18)
H7 H -0.2346 0.0920 0.9246
C18 C -0.1212(5) 0.2634(6) 0.93001(19)
H8 H -0.0937 0.2444 0.9601
C19 C -0.0756(5) 0.3830(6) 0.90725(19)
C20 C -0.1249(5) 0.4096(6) 0.86382(19)
H9 H -0.1015 0.4925 0.8480
C21 C -0.2087(5) 0.3137(6) 0.84372(18)
H10 H -0.2375 0.3311 0.8136
C22 C 0.0264(5) 0.4770(6) 0.92737(18)
C23 C 0.1142(5) 0.4267(6) 0.95968(18)
H11 H 0.1072 0.3340 0.9712
C24 C 0.2125(5) 0.5158(6) 0.97472(16)
H12 H 0.2709 0.4805 0.9965
C25 C 0.1421(5) 0.6954(6) 0.9286(2)
H13 H 0.1514 0.7883 0.9175
C26 C 0.0410(5) 0.6150(5) 0.91205(18)
H14 H -0.0170 0.6536 0.8907
N1 N -0.2506(4) 0.1970(5) 0.86533(15)
N2 N 0.2281(4) 0.6477(4) 0.95988(14)
O1 O -0.1754(3) -0.0420(4) 0.79578(13)
O2 O -0.1442(3) -0.1474(4) 0.86198(13)
O3 O -0.1527(4) -0.3567(4) 0.77191(12)
O4 O -0.0324(3) -0.3750(4) 0.71173(13)
O5 O 0.2525(3) 0.0363(4) 0.97676(12)
O6 O 0.3772(3) -0.0737(4) 0.92629(12)
O7 O 0.5265(3) 0.1650(4) 0.97156(11)
O8 O 0.5645(3) 0.3907(4) 0.95609(12)
O9 O -0.4261(3) -0.0926(4) 0.86452(13)
H15 H -0.5070 -0.0805 0.8681
H16 H -0.3989 -0.1670 0.8507
O10 O 0.5253(3) 0.6641(4) 0.93892(12)
H17 H 0.5338 0.5812 0.9507
H18 H 0.5966 0.7085 0.9423
S1 S 0.08791(12) 0.04613(14) 0.87416(5)
Zn1 Zn -0.33226(6) 0.03911(6) 0.82428(2)
Zn2 Zn 0.38603(5) 0.77051(6) 0.97231(2)
C1A C -0.6267(5) 0.4242(5) 0.67048(18)
C2A C -0.5252(5) 0.3507(6) 0.69178(16)
C3A C -0.5524(4) 0.2477(5) 0.72422(16)
C4A C -0.6803(5) 0.2181(6) 0.73632(16)
H1A H -0.6987 0.1462 0.7576
C5A C -0.7780(5) 0.2952(6) 0.71665(18)
H2A H -0.8635 0.2788 0.7252
C6A C -0.7492(5) 0.3975(6) 0.68403(17)
H3A H -0.8164 0.4501 0.6708
C7A C -0.7177(4) 0.6690(5) 0.62620(17)
C8A C -0.8150(5) 0.6619(5) 0.59209(17)
C9A C -0.9056(5) 0.7686(5) 0.59013(16)
C10A C -0.9051(5) 0.8797(6) 0.62259(18)
H4A H -0.9689 0.9499 0.6216
C11A C -0.8076(5) 0.8848(6) 0.65671(18)
H5A H -0.8068 0.9573 0.6788
C12A C -0.7151(5) 0.7828(6) 0.65677(18)
H6A H -0.6475 0.7893 0.6781
C13A C -0.3901(5) 0.3880(5) 0.67699(17)
C14A C -0.4443(4) 0.1696(6) 0.74878(17)
C15A C -0.8138(5) 0.5377(6) 0.55911(19)
C16A C -1.0070(4) 0.7757(5) 0.55162(16)
C17A C -0.2937(4) 0.6728(5) 0.59123(18)
H7A H -0.2654 0.5920 0.5754
C18A C -0.3788(5) 0.7634(6) 0.56999(19)
H8A H -0.4063 0.7444 0.5399
C19A C -0.4244(5) 0.8830(6) 0.59275(19)
C20A C -0.3751(5) 0.9096(6) 0.63618(19)
H9A H -0.3985 0.9925 0.6520
C21A C -0.2913(5) 0.8137(6) 0.65628(18)
H10A H -0.2625 0.8311 0.6864
C22A C -0.5264(5) 0.9770(6) 0.57263(18)
C23A C -0.6142(5) 0.9267(6) 0.54032(18)
H11A H -0.6072 0.8340 0.5288
C24A C -0.7125(5) 1.0158(6) 0.52528(16)
H12A H -0.7709 0.9805 0.5035
C25A C -0.6421(5) 1.1954(6) 0.5714(2)
H13A H -0.6514 1.2883 0.5825
C26A C -0.5410(5) 1.1150(5) 0.58795(18)
H14A H -0.4830 1.1536 0.6093
N1A N -0.2494(4) 0.6970(5) 0.63467(15)
N2A N -0.7281(4) 1.1477(4) 0.54012(14)
N2_2 N 0.2281(4) -0.3523(4) 0.95988(14)
O1A O -0.3246(3) 0.4580(4) 0.70422(13)
O2A O -0.3558(3) 0.3526(4) 0.63802(13)
O3A O -0.3473(4) 0.1433(4) 0.72809(12)
O4A O -0.4676(3) 0.1250(4) 0.78827(13)
O4_2 O -0.0324(3) 0.6250(4) 0.71173(13)
O5A O -0.7525(3) 0.5363(4) 0.52324(12)
O6A O -0.8772(3) 0.4263(4) 0.57371(12)
O6_2 O 0.3772(3) 0.9263(4) 0.92629(12)
O7A O -1.0265(3) 0.6650(4) 0.52844(11)
O7B O 0.4735(3) 0.8350(4) 1.02844(11)
O7B_2 O 0.4735(3) -0.1650(4) 1.02844(11)
O8A O -1.0645(3) 0.8907(4) 0.54391(12)
O9A O -0.0739(3) 0.4074(4) 0.63548(13)
H15A H 0.0070 0.4195 0.6319
H16A H -0.1011 0.3330 0.6493
O10_2 O 0.5253(3) -0.3359(4) 0.93892(12)
H17_2 H 0.5338 -0.4188 0.9507
H18_2 H 0.5966 -0.2915 0.9423
S1A S -0.58791(12) 0.54613(14) 0.62584(5)
Zn1A Zn -0.16774(6) 0.53911(6) 0.67572(2)
Zn1A_2 Zn -0.16774(6) -0.46089(6) 0.67572(2)
Zn2_2 Zn 0.38603(5) -0.22949(6) 0.97231(2)
Zn2B Zn 0.61397(5) 0.22949(6) 1.02769(2)
Zn2A Zn -0.88603(5) 0.27051(6) 0.52769(2)
Zn2C Zn -1.11397(5) 0.72949(6) 0.47231(2)
Zn2A_2 Zn -0.88603(5) 1.27051(6) 0.52769(2)
O11 O 0.2412(3) 0.2282(4) 0.05037(13)
H19 H 0.2447 0.1696 0.0279
H20 H 0.1883 0.1974 0.0705
O12 O 0.3963(3) 0.3696(4) 0.19039(13)
H21 H 0.3552 0.4432 0.1995
H22 H 0.3868 0.3022 0.2099
O13 O 0.0000 1.0000 0.0000
H23 H 0.0790 1.0114 -0.0073
H23B H -0.0790 0.9886 0.0073
H24? H -0.0047 0.9707 0.0279
loop_
_geom_bond_atom_site_label_1
_geom_bond_atom_site_label_2
_geom_bond_site_symmetry_1
_geom_bond_site_symmetry_2
C1 C2 1_555 1_555
C2 C3 1_555 1_555
C3 C4 1_555 1_555
C4 H1 1_555 1_555
C5 C4 1_555 1_555
H2 C5 1_555 1_555
C6 C1 1_555 1_555
H3 C6 1_555 1_555
C7 C8 1_555 1_555
C8 C9 1_555 1_555
C9 C10 1_555 1_555
C10 H4 1_555 1_555
C11 C10 1_555 1_555
H5 C11 1_555 1_555
C12 C7 1_555 1_555
H6 C12 1_555 1_555
C13 C2 1_555 1_555
C14 C3 1_555 1_555
C15 C8 1_555 1_555
C16 C9 1_555 1_555
C17 H7 1_555 1_555
C18 C17 1_555 1_555
H8 C18 1_555 1_555
C19 C18 1_555 1_555
C20 C19 1_555 1_555
H9 C20 1_555 1_555
C21 C20 1_555 1_555
H10 C21 1_555 1_555
C22 C19 1_555 1_555
C23 C22 1_555 1_555
H11 C23 1_555 1_555
C24 C23 1_555 1_555
H12 C24 1_555 1_555
C25 H13 1_555 1_555
C26 C22 1_555 1_555
H14 C26 1_555 1_555
N1 C17 1_555 1_555
N2 C24 1_555 1_555
O1 C13 1_555 1_555
O2 C13 1_555 1_555
O3 C14 1_555 1_555
O4 C14 1_555 1_555
O5 C15 1_555 1_555
O6 C15 1_555 1_555
O7 C16 1_555 1_555
O8 C16 1_555 1_555
O9 H15 1_555 1_555
H16 O9 1_555 1_555
O10 H17 1_555 1_555
H18 O10 1_555 1_555
O11 H19 1_555 1_555
H20 O11 1_555 1_555
O12 H21 1_555 1_555
H22 O12 1_555 1_555
O13 H23 1_555 1_555
S1 C1 1_555 1_555
Zn1 N1 1_555 1_555
Zn2 N2 1_555 1_555
C1A C2A 1_555 1_555
C2A C3A 1_555 1_555
C3A C4A 1_555 1_555
C4A H1A 1_555 1_555
C5A C4A 1_555 1_555
H2A C5A 1_555 1_555
C6A C1A 1_555 1_555
H3A C6A 1_555 1_555
C7A C8A 1_555 1_555
C8A C9A 1_555 1_555
C9A C10A 1_555 1_555
C10A H4A 1_555 1_555
C11A C10A 1_555 1_555
H5A C11A 1_555 1_555
C12A C7A 1_555 1_555
H6A C12A 1_555 1_555
C13A C2A 1_555 1_555
C14A C3A 1_555 1_555
C15A C8A 1_555 1_555
C16A C9A 1_555 1_555
C17A H7A 1_555 1_555
C18A C17A 1_555 1_555
H8A C18A 1_555 1_555
C19A C18A 1_555 1_555
C20A C19A 1_555 1_555
H9A C20A 1_555 1_555
C21A C20A 1_555 1_555
H10A C21A 1_555 1_555
C22A C19A 1_555 1_555
C23A C22A 1_555 1_555
H11A C23A 1_555 1_555
C24A C23A 1_555 1_555
H12A C24A 1_555 1_555
C25A H13A 1_555 1_555
C26A C22A 1_555 1_555
H14A C26A 1_555 1_555
N1A C17A 1_555 1_555
N2A C24A 1_555 1_555
N2_2 Zn2_2 1_555 1_555
O1A C13A 1_555 1_555
O2A C13A 1_555 1_555
O3A C14A 1_555 1_555
O4A Zn1 1_555 1_555
O4_2 Zn1A 1_555 1_555
O5A C15A 1_555 1_555
O6A C15A 1_555 1_555
O6_2 Zn2 1_555 1_555
O7A C16A 1_555 1_555
O7B Zn2 1_555 1_555
O7B_2 Zn2_2 1_555 1_555
O8A C16A 1_555 1_555
O9A H15A 1_555 1_555
H16A O9A 1_555 1_555
O10_2 H17_2 1_555 1_555
H18_2 O10_2 1_555 1_555
H23B O13 1_555 1_555
S1A C1A 1_555 1_555
Zn1A N1A 1_555 1_555
Zn1A_2 O4 1_555 1_555
Zn2_2 O6 1_555 1_555
Zn2B O7 1_555 1_555
Zn2A O6A 1_555 1_555
Zn2C O7A 1_555 1_555
Zn2A_2 N2A 1_555 1_555
C5 C6 1_555 1_555
C7 S1 1_555 1_555
C11 C12 1_555 1_555
C21 N1 1_555 1_555
C25 C26 1_555 1_555
C25 N2 1_555 1_555
O1 Zn1 1_555 1_555
O9 Zn1 1_555 1_555
O10 Zn2 1_555 1_555
C5A C6A 1_555 1_555
C7A S1A 1_555 1_555
C11A C12A 1_555 1_555
C14A O4A 1_555 1_555
C21A N1A 1_555 1_555
C25A C26A 1_555 1_555
C25A N2A 1_555 1_555
O1A Zn1A 1_555 1_555
O9A Zn1A 1_555 1_555
O10_2 Zn2_2 1_555 1_555

#END
