
#######################################################################
#
#                 Cambridge Crystallographic Data Centre
#                                CCDC 
#
#######################################################################
#
# If this CIF has been generated from an entry in the Cambridge 
# Structural Database, then it will include bibliographic, chemical, 
# crystal, experimental, refinement or atomic coordinate data resulting 
# from the CCDC's data processing and validation procedures.
#
#######################################################################

data_DIJZUS02
_symmetry_cell_setting           orthorhombic
_symmetry_space_group_name_H-M   'P b c a'
_symmetry_Int_Tables_number      61
_space_group_name_Hall           '-P 2ac 2ab'
loop_
_symmetry_equiv_pos_site_id
_symmetry_equiv_pos_as_xyz
1 x,y,z
2 1/2-x,-y,1/2+z
3 1/2+x,1/2-y,-z
4 -x,1/2+y,1/2-z
5 -x,-y,-z
6 1/2+x,y,1/2-z
7 1/2-x,1/2+y,z
8 x,1/2-y,1/2+z
_cell_length_a                   9.2145(8)
_cell_length_b                   10.3579(11)
_cell_length_c                   12.370(2)
_cell_angle_alpha                90
_cell_angle_beta                 90
_cell_angle_gamma                90
_cell_volume                     1180.63
loop_
_atom_site_label
_atom_site_type_symbol
_atom_site_fract_x
_atom_site_fract_y
_atom_site_fract_z
Zn1 Zn 0.08657(10) 0.10644(9) 0.10137(8)
C1 C 0.2387(9) 0.3661(8) 0.0981(7)
H1 H 0.1835 0.3955 0.1582
N1 N 0.3965(7) 0.3583(6) -0.0323(6)
O1 O 0.1004(8) 0.0709(6) 0.2561(6)
N2 N 0.2233(7) 0.2473(6) 0.0534(6)
N3 N 0.3381(7) 0.4364(7) 0.0494(6)
N4 N 0.3511(9) 0.1449(8) -0.0917(8)
H2 H 0.4207 0.1499 -0.1403
H3 H 0.3000 0.0735 -0.0853
O2 O 0.0115(9) 0.2661(8) 0.2794(7)
C2 C 0.3227(8) 0.2474(8) -0.0265(7)
C3 C 0.0517(10) 0.1610(9) 0.3129(9)
H4 H 0.0453 0.1464 0.3886
Zn1B Zn 0.58657(10) 0.39356(9) -0.10137(8)
Zn1F Zn 0.41343(10) 0.60644(9) 0.10137(8)
N1B N -0.1035(7) 0.1417(6) 0.0323(6)
N3F N 0.1619(7) -0.0636(7) 0.0494(6)
loop_
_geom_bond_atom_site_label_1
_geom_bond_atom_site_label_2
_geom_bond_site_symmetry_1
_geom_bond_site_symmetry_2
Zn1 O1 1_555 1_555
C1 H1 1_555 1_555
N1 N3 1_555 1_555
O1 C3 1_555 1_555
N2 Zn1 1_555 1_555
N3 C1 1_555 1_555
N4 H2 1_555 1_555
H3 N4 1_555 1_555
O2 C3 1_555 1_555
C2 N1 1_555 1_555
C3 H4 1_555 1_555
Zn1B N1 1_555 1_555
Zn1F N3 1_555 1_555
N1B Zn1 1_555 1_555
N3F Zn1 1_555 1_555
C1 N2 1_555 1_555
N2 C2 1_555 1_555
N4 C2 1_555 1_555

#END
