
#######################################################################
#
#                 Cambridge Crystallographic Data Centre
#                                CCDC 
#
#######################################################################
#
# If this CIF has been generated from an entry in the Cambridge 
# Structural Database, then it will include bibliographic, chemical, 
# crystal, experimental, refinement or atomic coordinate data resulting 
# from the CCDC's data processing and validation procedures.
#
#######################################################################

data_DIJZAY
_symmetry_cell_setting           monoclinic
_symmetry_space_group_name_H-M   'P 21/n'
_symmetry_Int_Tables_number      14
_space_group_name_Hall           '-P 2yn'
loop_
_symmetry_equiv_pos_site_id
_symmetry_equiv_pos_as_xyz
1 x,y,z
2 1/2-x,1/2+y,1/2-z
3 -x,-y,-z
4 1/2+x,1/2-y,1/2+z
_cell_length_a                   14.397(3)
_cell_length_b                   9.2579(16)
_cell_length_c                   21.485(4)
_cell_angle_alpha                90
_cell_angle_beta                 106.368(3)
_cell_angle_gamma                90
_cell_volume                     2747.59
loop_
_atom_site_label
_atom_site_type_symbol
_atom_site_fract_x
_atom_site_fract_y
_atom_site_fract_z
Cd1 Cd 0.58096(3) 0.50957(5) 0.68958(2)
Cd2 Cd 0.64968(3) -0.28534(5) 0.28567(2)
N1 N 0.5871(4) 0.3241(6) 0.6209(2)
N2 N 0.6284(4) -0.1508(6) 0.3698(2)
O1 O 0.6513(3) 0.7108(7) 0.6110(2)
O2 O 0.7346(3) 0.5799(5) 0.6906(2)
O3 O 0.8340(3) 0.8833(5) 0.71598(19)
O4 O 0.9907(3) 0.8487(5) 0.74585(19)
O5 O 0.5750(3) 0.4331(5) 0.37463(19)
O6 O 0.6989(3) 0.5098(5) 0.3398(2)
O7 O 0.6557(3) 0.2030(5) 0.28866(19)
O8 O 0.8038(3) 0.1178(5) 0.29894(19)
O9 O 0.5434(3) 0.6900(5) 0.7487(2)
H1 H 0.5607 0.7703 0.7364
H2 H 0.4825 0.6902 0.7429
O10 O 0.6310(4) -0.0734(6) 0.2203(2)
H3 H 0.6702 -0.0783 0.1974
H4 H 0.6438 0.0008 0.2445
O11 O 0.8116(3) -0.1925(5) 0.3233(2)
H5 H 0.8097 -0.1085 0.3389
H6 H 0.8362 -0.1876 0.2917
S1 S 0.70606(11) 0.49402(19) 0.51748(8)
C1 C 0.8114(4) 0.5944(7) 0.5572(3)
C2 C 0.8143(4) 0.6650(7) 0.6148(3)
C3 C 0.8989(4) 0.7451(7) 0.6454(3)
C4 C 0.9743(5) 0.7509(7) 0.6170(3)
H9 H 1.0293 0.8043 0.6370
C5 C 0.9697(5) 0.6798(8) 0.5602(3)
H10 H 1.0211 0.6840 0.5420
C6 C 0.8878(5) 0.6025(8) 0.5306(3)
H11 H 0.8839 0.5547 0.4918
C7 C 0.7572(4) 0.3501(7) 0.4844(3)
C8 C 0.7278(4) 0.3259(7) 0.4173(3)
C9 C 0.7675(4) 0.2068(7) 0.3927(3)
C10 C 0.8335(4) 0.1183(6) 0.4352(2)
H12 H 0.8596 0.0401 0.4189
C11 C 0.8611(4) 0.1431(7) 0.5006(3)
H13 H 0.9054 0.0823 0.5284
C12 C 0.8229(4) 0.2582(7) 0.5245(3)
H14 H 0.8416 0.2750 0.5690
C13 C 0.7266(5) 0.6545(7) 0.6410(3)
C14 C 0.9078(4) 0.8287(7) 0.7065(3)
C15 C 0.6591(5) 0.4324(7) 0.3731(3)
C16 C 0.7396(4) 0.1746(6) 0.3208(3)
C17 C 0.5290(4) 0.3303(7) 0.5605(3)
H15 H 0.4817 0.4018 0.5507
C18 C 0.5347(4) 0.2378(7) 0.5117(3)
H16 H 0.4923 0.2487 0.4703
C19 C 0.6026(4) 0.1291(7) 0.5235(3)
C20 C 0.6630(5) 0.1201(7) 0.5872(3)
H17 H 0.7092 0.0473 0.5987
C21 C 0.6536(5) 0.2187(8) 0.6325(3)
H18 H 0.6962 0.2123 0.6739
C22 C 0.6843(4) -0.1672(7) 0.4301(3)
H19 H 0.7303 -0.2406 0.4383
C23 C 0.6781(4) -0.0809(7) 0.4815(3)
H20 H 0.7187 -0.0979 0.5229
C24 C 0.6122(4) 0.0293(7) 0.4713(3)
C25 C 0.5524(5) 0.0453(7) 0.4081(3)
H21 H 0.5056 0.1174 0.3986
C26 C 0.5625(5) -0.0453(7) 0.3598(3)
H22 H 0.5216 -0.0326 0.3182
Cd1A Cd 0.91904(3) 1.00957(5) 0.81042(2)
Cd1B Cd 0.41904(3) 0.49043(5) 0.31042(2)
Cd2C Cd 1.14968(3) 0.78534(5) 0.78567(2)
Cd2_2 Cd 0.64968(3) 0.71466(5) 0.28567(2)
Cd2A Cd 0.85032(3) 0.21466(5) 0.21433(2)
O3A O 0.6660(3) 0.3833(5) 0.78402(19)
O4A O 0.5093(3) 0.3487(5) 0.75415(19)
O4C O 0.4907(3) -0.3487(5) 0.24585(19)
O5B O 0.4250(3) 0.5669(5) 0.62537(19)
O6_2 O 0.6989(3) -0.4902(5) 0.3398(2)
O8A O 0.6962(3) -0.3822(5) 0.20106(19)
O12 O 0.6380(3) 0.9142(6) 0.7246(2)
H7 H 0.6263 0.9870 0.7454
H8 H 0.6982 0.8953 0.7372
loop_
_geom_bond_atom_site_label_1
_geom_bond_atom_site_label_2
_geom_bond_site_symmetry_1
_geom_bond_site_symmetry_2
Cd1 N1 1_555 1_555
Cd2 N2 1_555 1_555
N1 C17 1_555 1_555
N2 C22 1_555 1_555
O1 C13 1_555 1_555
O2 Cd1 1_555 1_555
O3 C14 1_555 1_555
O4 C14 1_555 1_555
O5 C15 1_555 1_555
O6 C15 1_555 1_555
O7 C16 1_555 1_555
O8 C16 1_555 1_555
O9 Cd1 1_555 1_555
H1 O9 1_555 1_555
H2 O9 1_555 1_555
O10 Cd2 1_555 1_555
H3 O10 1_555 1_555
H4 O10 1_555 1_555
O11 Cd2 1_555 1_555
H5 O11 1_555 1_555
H6 O11 1_555 1_555
O12 H7 1_555 1_555
H8 O12 1_555 1_555
S1 C1 1_555 1_555
C1 C2 1_555 1_555
C2 C3 1_555 1_555
C3 C4 1_555 1_555
C4 H9 1_555 1_555
C5 C4 1_555 1_555
H10 C5 1_555 1_555
C6 C1 1_555 1_555
H11 C6 1_555 1_555
C7 S1 1_555 1_555
C8 C7 1_555 1_555
C9 C8 1_555 1_555
C10 C9 1_555 1_555
H12 C10 1_555 1_555
C11 C10 1_555 1_555
H13 C11 1_555 1_555
C12 C7 1_555 1_555
H14 C12 1_555 1_555
C13 O2 1_555 1_555
C14 C3 1_555 1_555
C15 C8 1_555 1_555
C16 C9 1_555 1_555
C17 H15 1_555 1_555
C18 C17 1_555 1_555
H16 C18 1_555 1_555
C19 C18 1_555 1_555
C20 C19 1_555 1_555
H17 C20 1_555 1_555
C21 N1 1_555 1_555
H18 C21 1_555 1_555
C22 H19 1_555 1_555
C23 C22 1_555 1_555
H20 C23 1_555 1_555
C24 C19 1_555 1_555
C25 C24 1_555 1_555
H21 C25 1_555 1_555
C26 N2 1_555 1_555
H22 C26 1_555 1_555
Cd1A O3 1_555 1_555
Cd1B O5 1_555 1_555
Cd2C O4 1_555 1_555
Cd2_2 O6 1_555 1_555
Cd2A O8 1_555 1_555
O3A Cd1 1_555 1_555
O4A Cd1 1_555 1_555
O4C Cd2 1_555 1_555
O5B Cd1 1_555 1_555
O6_2 Cd2 1_555 1_555
O8A Cd2 1_555 1_555
O4 Cd1A 1_555 1_555
C2 C13 1_555 1_555
C5 C6 1_555 1_555
C11 C12 1_555 1_555
C20 C21 1_555 1_555
C23 C24 1_555 1_555
C25 C26 1_555 1_555

#END
