
#######################################################################
#
#                 Cambridge Crystallographic Data Centre
#                                CCDC 
#
#######################################################################
#
# If this CIF has been generated from an entry in the Cambridge 
# Structural Database, then it will include bibliographic, chemical, 
# crystal, experimental, refinement or atomic coordinate data resulting 
# from the CCDC's data processing and validation procedures.
#
#######################################################################

data_DIKBAB
_symmetry_cell_setting           cubic
_symmetry_space_group_name_H-M   'P a -3'
_symmetry_Int_Tables_number      205
_space_group_name_Hall           '-P 2ac 2ab 3'
loop_
_symmetry_equiv_pos_site_id
_symmetry_equiv_pos_as_xyz
1 x,y,z
2 1/2-x,-y,1/2+z
3 1/2+x,1/2-y,-z
4 z,x,y
5 -x,1/2+y,1/2-z
6 1/2-z,-x,1/2+y
7 1/2+z,1/2-x,-y
8 -z,1/2+x,1/2-y
9 y,z,x
10 1/2+y,1/2-z,-x
11 -y,1/2+z,1/2-x
12 1/2-y,-z,1/2+x
13 -x,-y,-z
14 1/2+x,y,1/2-z
15 1/2-x,1/2+y,z
16 -z,-x,-y
17 x,1/2-y,1/2+z
18 1/2+z,x,1/2-y
19 1/2-z,1/2+x,y
20 z,1/2-x,1/2+y
21 -y,-z,-x
22 1/2-y,1/2+z,x
23 y,1/2-z,1/2+x
24 1/2+y,z,1/2-x
_cell_length_a                   15.0448(6)
_cell_length_b                   15.0448(6)
_cell_length_c                   15.0448(6)
_cell_angle_alpha                90
_cell_angle_beta                 90
_cell_angle_gamma                90
_cell_volume                     3405.33
loop_
_atom_site_label
_atom_site_type_symbol
_atom_site_fract_x
_atom_site_fract_y
_atom_site_fract_z
O2 O 0.8679(5) 0.1535(7) 0.1086(5)
H1 H 0.931(4) 0.127(3) 0.085(3)
H2 H 0.840(3) 0.105(3) 0.090(3)
Zn1 Zn 0.86299(2) 0.36299(2) 0.13701(2)
Zn2 Zn 0.77308(2) 0.72692(2) 0.27308(2)
Zn3 Zn 1.0000 0.5000 0.0000
N2 N 0.86255(17) 0.49470(16) 0.15875(17)
N3 N 0.83455(18) 0.63270(17) 0.20234(18)
N4 N 0.91075(16) 0.55132(15) 0.10367(16)
N5 N 0.9277(2) 0.70915(18) 0.0980(2)
H3 H 0.9661 0.7062 0.0549
H4 H 0.9123 0.7606 0.1195
C1 C 0.8918(2) 0.63351(19) 0.13177(19)
C2 C 0.8190(2) 0.5448(2) 0.2147(2)
H5 H 0.7810 0.5222 0.2589
O3 O 0.8046(8) 0.2626(5) 0.1792(6)
Zn1L Zn 1.13701(2) 0.63701(2) -0.13701(2)
Zn1N Zn 0.63701(2) 0.86299(2) 0.13701(2)
Zn2A Zn 0.72692(2) 0.27308(2) -0.22692(2)
Zn2N Zn 0.72692(2) 0.22692(2) 0.27308(2)
Zn2D Zn 1.22692(2) 0.22692(2) 0.22692(2)
Zn2L Zn 1.22692(2) 0.27308(2) -0.27308(2)
Zn2M Zn 1.27308(2) 0.72692(2) 0.22692(2)
Zn2P Zn 0.77308(2) 0.77308(2) -0.22692(2)
N2G N 0.84125(17) 0.36255(17) 0.00530(16)
N2I N 0.99470(16) 0.34125(17) 0.13745(17)
N2L N 1.13745(17) 0.50530(16) -0.15875(17)
N2S N 1.15875(17) 0.63745(17) -0.00530(16)
N2U N 1.00530(16) 0.65875(17) -0.13745(17)
N3G N 0.79766(18) 0.33455(18) -0.13270(17)
N3I N 1.13270(17) 0.29766(18) 0.16545(18)
N3L N 1.16545(18) 0.36730(17) -0.20234(18)
N3S N 1.20234(18) 0.66545(18) 0.13270(17)
N3U N 0.86730(17) 0.70234(18) -0.16545(18)
N3F N 0.70234(18) 0.66545(18) 0.36730(17)
N3K N 0.86730(17) 0.79766(18) 0.33455(18)
N3A N 0.66545(18) 0.36730(17) -0.29766(18)
N3H N 0.63270(17) 0.20234(18) -0.16545(18)
N4G N 0.89633(16) 0.41075(16) -0.05132(15)
N4I N 1.05132(15) 0.39633(16) 0.08925(16)
N4L N 1.08925(16) 0.44868(15) -0.10367(16)
N4S N 1.10367(16) 0.58925(16) 0.05132(15)
N4U N 0.94868(15) 0.60367(16) -0.08925(16)
N5G N 0.9020(2) 0.4277(2) -0.20915(18)
N5I N 1.20915(18) 0.4020(2) 0.0723(2)
N5L N 1.0723(2) 0.29085(18) -0.0980(2)
N5S N 1.0980(2) 0.5723(2) 0.20915(18)
N5U N 0.79085(18) 0.5980(2) -0.0723(2)
H3G H 0.9451 0.4661 -0.2062
H3I H 1.2062 0.4451 0.0339
H3L H 1.0339 0.2938 -0.0549
H3S H 1.0549 0.5339 0.2062
H3U H 0.7938 0.5549 -0.0339
H4G H 0.8805 0.4123 -0.2606
H4I H 1.2606 0.3805 0.0877
H4L H 1.0877 0.2394 -0.1195
H4S H 1.1195 0.5877 0.2606
H4U H 0.7394 0.6195 -0.0877
C1G C 0.86823(19) 0.3918(2) -0.13351(19)
C1I C 1.13351(19) 0.36823(19) 0.1082(2)
C1L C 1.1082(2) 0.36649(19) -0.13177(19)
C1S C 1.13177(19) 0.6082(2) 0.13351(19)
C1U C 0.86649(19) 0.63177(19) -0.1082(2)
C2G C 0.7853(2) 0.3190(2) -0.0448(2)
C2I C 1.0448(2) 0.2853(2) 0.1810(2)
C2L C 1.1810(2) 0.4552(2) -0.2147(2)
C2S C 1.2147(2) 0.6810(2) 0.0448(2)
C2U C 0.9552(2) 0.7147(2) -0.1810(2)
H5G H 0.7411 0.2810 -0.0222
H5I H 1.0222 0.2411 0.2190
H5L H 1.2190 0.4778 -0.2589
H5S H 1.2589 0.7190 0.0222
H5U H 0.9778 0.7589 -0.2190
O3G O 0.8208(6) 0.3046(8) 0.2374(5)
O3I O 0.7626(5) 0.3208(6) 0.1954(8)
O3N O 0.6954(8) 0.7626(5) 0.1792(6)
O3Q O 0.6792(6) 0.8046(8) 0.2374(5)
O3T O 0.7374(5) 0.8208(6) 0.1954(8)
O3L O 1.1954(8) 0.7374(5) -0.1792(6)
O3S O 1.1792(6) 0.6954(8) -0.2374(5)
O3U O 1.2374(5) 0.6792(6) -0.1954(8)
O3O O 0.8208(6) 0.1954(8) -0.2626(5)
O3P O 0.8046(8) 0.2374(5) -0.3208(6)
O3W O 0.7626(5) 0.1792(6) -0.3046(8)
N1 N 0.9334(4) 0.5666(4) 0.4334(4)
O1 O 0.9697(5) 0.6352(3) 0.4689(4)
O1F O 0.9689(4) 0.5303(5) 0.3648(3)
O1K O 0.8648(3) 0.5311(4) 0.4697(5)
loop_
_geom_bond_atom_site_label_1
_geom_bond_atom_site_label_2
_geom_bond_site_symmetry_1
_geom_bond_site_symmetry_2
N1 O1 1_555 1_555
O2 H1 1_555 1_555
H2 O2 1_555 1_555
Zn1 N2 1_555 1_555
Zn2 N3 1_555 1_555
Zn3 N4 1_555 1_555
N2 N4 1_555 1_555
N3 C1 1_555 1_555
N4 C1 1_555 1_555
N5 H3 1_555 1_555
H4 N5 1_555 1_555
C1 N5 1_555 1_555
C2 N2 1_555 1_555
H5 C2 1_555 1_555
O3 Zn1 1_555 1_555
O1F N1 1_555 1_555
O1K N1 1_555 1_555
Zn1L N2L 1_555 1_555
Zn1N O3N 1_555 1_555
Zn2A N3G 1_555 1_555
Zn2N O3 1_555 1_555
Zn2D N3I 1_555 1_555
Zn2L N3L 1_555 1_555
Zn2M N3S 1_555 1_555
Zn2P N3U 1_555 1_555
N2G Zn1 1_555 1_555
N2I Zn1 1_555 1_555
N2L N4L 1_555 1_555
N2S Zn1L 1_555 1_555
N2U Zn1L 1_555 1_555
N3G C1G 1_555 1_555
N3I C1I 1_555 1_555
N3L C1L 1_555 1_555
N3S C1S 1_555 1_555
N3U C1U 1_555 1_555
N3F Zn2 1_555 1_555
N3K Zn2 1_555 1_555
N3A Zn2A 1_555 1_555
N3H Zn2A 1_555 1_555
N4G Zn3 1_555 1_555
N4I Zn3 1_555 1_555
N4L Zn3 1_555 1_555
N4S Zn3 1_555 1_555
N4U Zn3 1_555 1_555
N5G H3G 1_555 1_555
N5I H3I 1_555 1_555
N5L H3L 1_555 1_555
N5S H3S 1_555 1_555
N5U H3U 1_555 1_555
H4G N5G 1_555 1_555
H4I N5I 1_555 1_555
H4L N5L 1_555 1_555
H4S N5S 1_555 1_555
H4U N5U 1_555 1_555
C1G N4G 1_555 1_555
C1I N4I 1_555 1_555
C1L N4L 1_555 1_555
C1S N4S 1_555 1_555
C1U N4U 1_555 1_555
C2G N2G 1_555 1_555
C2I N2I 1_555 1_555
C2L N2L 1_555 1_555
C2S N2S 1_555 1_555
C2U N2U 1_555 1_555
H5G C2G 1_555 1_555
H5I C2I 1_555 1_555
H5L C2L 1_555 1_555
H5S C2S 1_555 1_555
H5U C2U 1_555 1_555
O3G Zn1 1_555 1_555
O3I Zn1 1_555 1_555
O3N Zn2 1_555 1_555
O3Q Zn2 1_555 1_555
O3T Zn2 1_555 1_555
O3L Zn1L 1_555 1_555
O3S Zn1L 1_555 1_555
O3U Zn1L 1_555 1_555
O3O Zn2A 1_555 1_555
O3P Zn2A 1_555 1_555
O3W Zn2A 1_555 1_555
N3 C2 1_555 1_555
O3 O3G 1_555 1_555
O3 O3I 1_555 1_555
Zn1N O3Q 1_555 1_555
Zn1N O3T 1_555 1_555
Zn2N O3G 1_555 1_555
Zn2N O3I 1_555 1_555
N2G N4G 1_555 1_555
N2I N4I 1_555 1_555
N2S N4S 1_555 1_555
N2U N4U 1_555 1_555
N3G C2G 1_555 1_555
N3I C2I 1_555 1_555
N3L C2L 1_555 1_555
N3S C2S 1_555 1_555
N3U C2U 1_555 1_555
N5G C1G 1_555 1_555
N5I C1I 1_555 1_555
N5L C1L 1_555 1_555
N5S C1S 1_555 1_555
N5U C1U 1_555 1_555
O3G O3I 1_555 1_555
O3N O3Q 1_555 1_555
O3N O3T 1_555 1_555
O3Q O3T 1_555 1_555
O3L O3S 1_555 1_555
O3L O3U 1_555 1_555
O3S O3U 1_555 1_555
O3O O3P 1_555 1_555
O3O O3W 1_555 1_555
O3P O3W 1_555 1_555

#END
