
#######################################################################
#
#                 Cambridge Crystallographic Data Centre
#                                CCDC 
#
#######################################################################
#
# If this CIF has been generated from an entry in the Cambridge 
# Structural Database, then it will include bibliographic, chemical, 
# crystal, experimental, refinement or atomic coordinate data resulting 
# from the CCDC's data processing and validation procedures.
#
#######################################################################

data_DIKHUB
_symmetry_cell_setting           triclinic
_symmetry_space_group_name_H-M   'P -1'
_symmetry_Int_Tables_number      2
_space_group_name_Hall           '-P 1'
loop_
_symmetry_equiv_pos_site_id
_symmetry_equiv_pos_as_xyz
1 x,y,z
2 -x,-y,-z
_cell_length_a                   8.0190(16)
_cell_length_b                   11.857(2)
_cell_length_c                   12.088(2)
_cell_angle_alpha                70.49(3)
_cell_angle_beta                 80.08(3)
_cell_angle_gamma                81.30(3)
_cell_volume                     1061.7
loop_
_atom_site_label
_atom_site_type_symbol
_atom_site_fract_x
_atom_site_fract_y
_atom_site_fract_z
Cu1 Cu -0.5000 0.0000 0.5000
O2 O -0.2107(4) 0.0351(3) 0.4983(3)
H3 H -0.187(7) 0.047(5) 0.557(5)
H4 H -0.159(7) 0.080(5) 0.439(5)
N1 N -0.4550(4) 0.0317(3) 0.3192(3)
O7 O -0.8377(4) 0.1851(4) 0.1075(3)
C1 C -0.5466(5) 0.1138(4) 0.1270(4)
C2 C -0.5748(5) 0.0859(4) 0.2493(4)
H5 H -0.6828 0.1060 0.2843
C3 C -0.2986(6) 0.0018(4) 0.2670(4)
H6 H -0.2134 -0.0355 0.3144
C4 C -0.2611(6) 0.0247(5) 0.1465(4)
H7 H -0.1527 0.0022 0.1137
C5 C -0.3853(6) 0.0811(5) 0.0750(4)
H8 H -0.3622 0.0972 -0.0065
C6 C -0.6903(6) 0.1793(4) 0.0581(4)
O8 O -0.7827(4) 0.5787(3) -0.3359(4)
N2 N -0.4162(4) 0.8169(3) -0.4656(3)
C7 C -0.4891(6) 0.6134(4) -0.3944(4)
C8 C -0.5307(5) 0.7359(4) -0.4273(4)
H9 H -0.6455 0.7644 -0.4228
C9 C -0.2493(5) 0.7734(4) -0.4728(4)
H10 H -0.1672 0.8275 -0.4980
C10 C -0.1971(6) 0.6522(4) -0.4443(4)
H11 H -0.0817 0.6255 -0.4510
C11 C -0.3162(6) 0.5709(4) -0.4058(4)
H12 H -0.2827 0.4888 -0.3875
C12 C -0.6333(6) 0.5336(4) -0.3446(4)
N3 N -0.6506(5) 0.2322(3) -0.0587(3)
H13 H -0.5475 0.2231 -0.0913
N4 N -0.5924(5) 0.4147(3) -0.3096(3)
H14 H -0.4870 0.3866 -0.3151
C13 C -0.7806(6) 0.3050(4) -0.1312(4)
H15 H -0.8101 0.3804 -0.1140
H16 H -0.8821 0.2631 -0.1099
C14 C -0.7237(6) 0.3315(4) -0.2621(4)
H17 H -0.6806 0.2565 -0.2775
H18 H -0.8217 0.3651 -0.3040
Cu1_2 Cu -0.5000 1.0000 -0.5000
Cu1_3 Cu -0.5000 -1.0000 1.5000
O2A O -0.7893(4) -0.0351(3) 0.5017(3)
H3A H -0.813(7) -0.047(5) 0.443(5)
H4A H -0.841(7) -0.080(5) 0.561(5)
N1A N -0.5450(4) -0.0317(3) 0.6808(3)
O7A O -0.1623(4) -0.1851(4) 0.8925(3)
C1A C -0.4534(5) -0.1138(4) 0.8730(4)
C2A C -0.4252(5) -0.0859(4) 0.7507(4)
H5A H -0.3172 -0.1060 0.7157
C3A C -0.7014(6) -0.0018(4) 0.7330(4)
H6A H -0.7866 0.0355 0.6856
C4A C -0.7389(6) -0.0247(5) 0.8535(4)
H7A H -0.8473 -0.0022 0.8863
C5A C -0.6147(6) -0.0811(5) 0.9250(4)
H8A H -0.6378 -0.0972 1.0065
C6A C -0.3097(6) -0.1793(4) 0.9419(4)
O8A O -0.2173(4) -0.5787(3) 1.3359(4)
N2_2 N -0.4162(4) -0.1831(3) 0.5344(3)
N2A N -0.5838(4) 0.1831(3) 0.4656(3)
N2A_2 N -0.5838(4) -0.8169(3) 1.4656(3)
C7A C -0.5109(6) -0.6134(4) 1.3944(4)
C8A C -0.4693(5) -0.7359(4) 1.4273(4)
H9A H -0.3545 -0.7644 1.4228
C9A C -0.7507(5) -0.7734(4) 1.4728(4)
H10A H -0.8328 -0.8275 1.4980
C10A C -0.8029(6) -0.6522(4) 1.4443(4)
H11A H -0.9183 -0.6255 1.4510
C11A C -0.6838(6) -0.5709(4) 1.4058(4)
H12A H -0.7173 -0.4888 1.3875
C12A C -0.3667(6) -0.5336(4) 1.3446(4)
N3A N -0.3494(5) -0.2322(3) 1.0587(3)
H13A H -0.4525 -0.2231 1.0913
N4A N -0.4076(5) -0.4147(3) 1.3096(3)
H14A H -0.5130 -0.3866 1.3151
C13A C -0.2194(6) -0.3050(4) 1.1312(4)
H15A H -0.1899 -0.3804 1.1140
H16A H -0.1179 -0.2631 1.1099
C14A C -0.2763(6) -0.3315(4) 1.2621(4)
H17A H -0.3194 -0.2565 1.2775
H18A H -0.1783 -0.3651 1.3040
O1 O 0.0451(6) 0.8011(4) -0.3115(4)
H1 H 0.002(8) 0.808(5) -0.257(5)
H2 H 0.081(8) 0.736(5) -0.312(5)
Cl1 Cl -0.17722(15) 0.18987(12) -0.27312(12)
O3 O -0.1448(14) 0.2964(6) -0.3498(10)
O4 O -0.1019(9) 0.1637(10) -0.1675(8)
O5 O -0.0996(6) 0.0963(5) -0.3214(5)
O6 O -0.3521(5) 0.1793(6) -0.2384(5)
C15 C 0.8068(7) 0.4969(6) -0.0918(5)
H19 H 0.9103 0.5113 -0.1396
C16 C 0.7987(7) 0.3975(5) 0.0130(5)
H20 H 0.8970 0.3473 0.0339
C17 C 0.6468(7) 0.3748(5) 0.0841(5)
H21 H 0.6426 0.3097 0.1533
C18 C 0.6649(7) 0.5714(5) -0.1235(5)
H22 H 0.6725 0.6373 -0.1920
C19 C 0.4958(6) 0.4504(4) 0.0525(4)
C15A C 0.1932(7) 0.5031(6) 0.0918(5)
H19A H 0.0897 0.4887 0.1396
C16A C 0.2013(7) 0.6025(5) -0.0130(5)
H20A H 0.1030 0.6527 -0.0339
C17A C 0.3532(7) 0.6252(5) -0.0841(5)
H21A H 0.3574 0.6903 -0.1533
C18A C 0.3351(7) 0.4286(5) 0.1235(5)
H22A H 0.3275 0.3627 0.1920
C19A C 0.5042(6) 0.5496(4) -0.0525(4)
loop_
_geom_bond_atom_site_label_1
_geom_bond_atom_site_label_2
_geom_bond_site_symmetry_1
_geom_bond_site_symmetry_2
Cu1 O2 1_555 1_555
O1 H1 1_555 1_555
H2 O1 1_555 1_555
O2 H3 1_555 1_555
H4 O2 1_555 1_555
Cl1 O3 1_555 1_555
O4 Cl1 1_555 1_555
O5 Cl1 1_555 1_555
O6 Cl1 1_555 1_555
N1 Cu1 1_555 1_555
O7 C6 1_555 1_555
C1 C2 1_555 1_555
C2 N1 1_555 1_555
H5 C2 1_555 1_555
C3 N1 1_555 1_555
H6 C3 1_555 1_555
C4 C3 1_555 1_555
H7 C4 1_555 1_555
C5 C1 1_555 1_555
H8 C5 1_555 1_555
C6 C1 1_555 1_555
O8 C12 1_555 1_555
N2 C8 1_555 1_555
C7 C8 1_555 1_555
C8 H9 1_555 1_555
C9 N2 1_555 1_555
H10 C9 1_555 1_555
C10 C9 1_555 1_555
H11 C10 1_555 1_555
C11 C7 1_555 1_555
H12 C11 1_555 1_555
C12 C7 1_555 1_555
N3 C6 1_555 1_555
H13 N3 1_555 1_555
N4 C12 1_555 1_555
H14 N4 1_555 1_555
C13 N3 1_555 1_555
H15 C13 1_555 1_555
H16 C13 1_555 1_555
C14 N4 1_555 1_555
H17 C14 1_555 1_555
H18 C14 1_555 1_555
C15 H19 1_555 1_555
C16 C15 1_555 1_555
H20 C16 1_555 1_555
C17 C16 1_555 1_555
H21 C17 1_555 1_555
C18 C15 1_555 1_555
H22 C18 1_555 1_555
C19 C17 1_555 1_555
Cu1_2 N2 1_555 1_555
Cu1_3 N2A_2 1_555 1_555
O2A Cu1 1_555 1_555
H3A O2A 1_555 1_555
H4A O2A 1_555 1_555
N1A Cu1 1_555 1_555
O7A C6A 1_555 1_555
C1A C2A 1_555 1_555
C2A N1A 1_555 1_555
H5A C2A 1_555 1_555
C3A N1A 1_555 1_555
H6A C3A 1_555 1_555
C4A C3A 1_555 1_555
H7A C4A 1_555 1_555
C5A C1A 1_555 1_555
H8A C5A 1_555 1_555
C6A C1A 1_555 1_555
O8A C12A 1_555 1_555
N2_2 Cu1 1_555 1_555
N2A Cu1 1_555 1_555
N2A_2 C8A 1_555 1_555
C7A C8A 1_555 1_555
C8A H9A 1_555 1_555
C9A N2A_2 1_555 1_555
H10A C9A 1_555 1_555
C10A C9A 1_555 1_555
H11A C10A 1_555 1_555
C11A C7A 1_555 1_555
H12A C11A 1_555 1_555
C12A C7A 1_555 1_555
N3A C6A 1_555 1_555
H13A N3A 1_555 1_555
N4A C12A 1_555 1_555
H14A N4A 1_555 1_555
C13A N3A 1_555 1_555
H15A C13A 1_555 1_555
H16A C13A 1_555 1_555
C14A N4A 1_555 1_555
H17A C14A 1_555 1_555
H18A C14A 1_555 1_555
C15A H19A 1_555 1_555
C16A C15A 1_555 1_555
H20A C16A 1_555 1_555
C17A C16A 1_555 1_555
H21A C17A 1_555 1_555
C18A C19 1_555 1_555
H22A C18A 1_555 1_555
C19A C18 1_555 1_555
C4 C5 1_555 1_555
C10 C11 1_555 1_555
C13 C14 1_555 1_555
C19 C19A 1_555 1_555
C4A C5A 1_555 1_555
C10A C11A 1_555 1_555
C13A C14A 1_555 1_555
C15A C18A 1_555 1_555
C17A C19A 1_555 1_555

#END
