
#######################################################################
#
#                 Cambridge Crystallographic Data Centre
#                                CCDC 
#
#######################################################################
#
# If this CIF has been generated from an entry in the Cambridge 
# Structural Database, then it will include bibliographic, chemical, 
# crystal, experimental, refinement or atomic coordinate data resulting 
# from the CCDC's data processing and validation procedures.
#
#######################################################################

data_DIKHEL
_symmetry_cell_setting           monoclinic
_symmetry_space_group_name_H-M   'C 2'
_symmetry_Int_Tables_number      5
_space_group_name_Hall           'C 2y'
loop_
_symmetry_equiv_pos_site_id
_symmetry_equiv_pos_as_xyz
1 x,y,z
2 -x,y,-z
3 1/2+x,1/2+y,z
4 1/2-x,1/2+y,-z
_cell_length_a                   20.770(4)
_cell_length_b                   9.3250(19)
_cell_length_c                   11.425(2)
_cell_angle_alpha                90
_cell_angle_beta                 110.63(3)
_cell_angle_gamma                90
_cell_volume                     2070.9
loop_
_atom_site_label
_atom_site_type_symbol
_atom_site_fract_x
_atom_site_fract_y
_atom_site_fract_z
Cu1 Cu 0.0000 0.45966(5) 0.5000
O1 O 0.02814(17) 0.4652(6) 0.3093(3)
O3 O 0.03075(19) -0.0085(4) -0.2595(4)
N1 N 0.0717(2) -0.3847(4) -0.4218(4)
C1 C 0.1073(2) -0.1838(4) -0.2835(4)
C2 C 0.0582(2) -0.2790(5) -0.3541(4)
H1 H 0.0135 -0.2695 -0.3548
C3 C 0.1359(2) -0.3924(5) -0.4248(4)
H2 H 0.1453 -0.4611 -0.4756
C4 C 0.1879(2) -0.3030(5) -0.3561(4)
H3 H 0.2318 -0.3124 -0.3598
C5 C 0.1748(2) -0.1994(5) -0.2818(5)
H4 H 0.2100 -0.1409 -0.2315
C6 C 0.0871(2) -0.0677(5) -0.2126(4)
O4 O 0.22661(17) -0.0160(5) 0.4816(3)
N2 N 0.0730(2) 0.3054(4) 0.5688(4)
C7 C 0.1462(2) 0.1257(5) 0.5346(4)
C8 C 0.0868(2) 0.2090(4) 0.4952(4)
H5 H -0.0556 1.1967 -0.4144
C9 C -0.1161(3) 1.3173(5) -0.6886(4)
H6 H -0.1045 1.3790 -0.7420
C10 C -0.1769(3) 1.2407(6) -0.7344(5)
H7 H -0.2063 1.2525 -0.8167
C11 C -0.1929(2) 1.1473(5) -0.6563(4)
H8 H -0.2346 1.0984 -0.6840
C12 C 0.1652(2) 0.0198(5) 0.4549(4)
N3 N 0.1320(2) -0.0342(6) -0.1008(3)
H9 H 0.1700 -0.0814 -0.0737
N4 N 0.11504(19) -0.0347(6) 0.3577(3)
H10 H -0.0737 0.9944 -0.3435
C13 C 0.1207(4) 0.0786(7) -0.0207(5)
H11 H 0.1575 0.1484 -0.0028
H12 H 0.0778 0.1274 -0.0657
C14 C 0.1178(10) 0.0244(10) 0.0967(10)
H13 H 0.1453 0.0946 0.1560
H14 H 0.0707 0.0459 0.0884
C15 C 0.1286(13) -0.0804(12) 0.1576(12)
H15 H 0.1758 -0.1004 0.1656
H16 H 0.1016 -0.1499 0.0969
C16 C 0.1265(3) -0.1419(6) 0.2732(5)
H17 H -0.0900 0.7872 -0.2531
H18 H -0.1697 0.8091 -0.3159
Cu1_2 Cu 0.0000 -0.54034(5) -0.5000
Cu1_3 Cu 0.0000 1.45966(5) -0.5000
O1A O -0.02814(17) 0.4652(6) 0.6907(3)
O3A O -0.03075(19) 0.9915(4) 0.2595(4)
N1_2 N 0.0717(2) 0.6153(4) 0.5782(4)
N1A N -0.0717(2) 0.6153(4) 0.4218(4)
C1A C -0.1073(2) 0.8162(4) 0.2835(4)
C2A C -0.0582(2) 0.7210(5) 0.3541(4)
H1A H -0.0135 0.7305 0.3548
C3A C -0.1359(2) 0.6076(5) 0.4248(4)
H2A H -0.1453 0.5389 0.4756
C4A C -0.1879(2) 0.6970(5) 0.3561(4)
H3A H -0.2318 0.6876 0.3598
C5A C -0.1748(2) 0.8006(5) 0.2818(5)
H4A H -0.2100 0.8591 0.2315
C6A C -0.0871(2) 0.9323(5) 0.2126(4)
O4A O -0.22661(17) 0.9840(5) -0.4816(3)
N2A N -0.0730(2) 1.3054(4) -0.5688(4)
N2A_2 N -0.0730(2) 0.3054(4) 0.4312(4)
C7A C -0.1462(2) 1.1257(5) -0.5346(4)
C8A C -0.0868(2) 1.2090(4) -0.4952(4)
H5A H 0.0556 0.1967 0.4144
C9A C 0.1161(3) 0.3173(5) 0.6886(4)
H6A H 0.1045 0.3790 0.7420
C10A C 0.1769(3) 0.2407(6) 0.7344(5)
H7A H 0.2063 0.2525 0.8167
C11A C 0.1929(2) 0.1473(5) 0.6563(4)
H8A H 0.2346 0.0984 0.6840
C12A C -0.1652(2) 1.0198(5) -0.4549(4)
N3A N -0.1320(2) 0.9658(6) 0.1008(3)
H9A H -0.1700 0.9186 0.0737
N4A N -0.11504(19) 0.9653(6) -0.3577(3)
H10A H 0.0737 -0.0056 0.3435
C13A C -0.1207(4) 1.0786(7) 0.0207(5)
H11A H -0.1575 1.1484 0.0028
H12A H -0.0778 1.1274 0.0657
C14A C -0.1178(10) 1.0244(10) -0.0967(10)
H13A H -0.1453 1.0946 -0.1560
H14A H -0.0707 1.0459 -0.0884
C15A C -0.1286(13) 0.9196(12) -0.1576(12)
H15A H -0.1758 0.8996 -0.1656
H16A H -0.1016 0.8501 -0.0969
C16A C -0.1265(3) 0.8581(6) -0.2732(5)
H17A H 0.0900 -0.2128 0.2531
H18A H 0.1697 -0.1909 0.3159
O2 O 0.1580(2) -0.6250(6) -0.6753(4)
Cl1 Cl 0.33775(8) -0.96339(16) -1.00366(12)
O5 O 0.3000(4) -0.8360(8) -0.9909(7)
O6 O 0.3420(5) -0.9492(12) -1.1206(6)
O7 O 0.4012(3) -0.9650(9) -0.9107(5)
O8 O 0.2978(4) -1.0816(8) -0.9948(10)
loop_
_geom_bond_atom_site_label_1
_geom_bond_atom_site_label_2
_geom_bond_site_symmetry_1
_geom_bond_site_symmetry_2
Cu1 O1 1_555 1_555
O3 C6 1_555 1_555
N1 C2 1_555 1_555
C1 C2 1_555 1_555
C2 H1 1_555 1_555
C3 N1 1_555 1_555
H2 C3 1_555 1_555
C4 C3 1_555 1_555
H3 C4 1_555 1_555
C5 C1 1_555 1_555
H4 C5 1_555 1_555
C6 C1 1_555 1_555
O4 C12 1_555 1_555
N2 Cu1 1_555 1_555
C7 C8 1_555 1_555
C8 N2 1_555 1_555
H5 C8A 1_555 1_555
C9 H6 1_555 1_555
C10 C9 1_555 1_555
H7 C10 1_555 1_555
C11 C10 1_555 1_555
H8 C11 1_555 1_555
C12 C7 1_555 1_555
N3 C6 1_555 1_555
H9 N3 1_555 1_555
N4 C12 1_555 1_555
H10 N4A 1_555 1_555
C13 N3 1_555 1_555
H11 C13 1_555 1_555
H12 C13 1_555 1_555
C14 C13 1_555 1_555
H13 C14 1_555 1_555
H14 C14 1_555 1_555
C15 C14 1_555 1_555
H15 C15 1_555 1_555
H16 C15 1_555 1_555
C16 N4 1_555 1_555
H17 C16A 1_555 1_555
H18 C16A 1_555 1_555
Cl1 O5 1_555 1_555
O6 Cl1 1_555 1_555
O7 Cl1 1_555 1_555
O8 Cl1 1_555 1_555
Cu1_2 N1 1_555 1_555
Cu1_3 N2A 1_555 1_555
O1A Cu1 1_555 1_555
O3A C6A 1_555 1_555
N1_2 Cu1 1_555 1_555
N1A Cu1 1_555 1_555
C1A C2A 1_555 1_555
C2A N1A 1_555 1_555
H1A C2A 1_555 1_555
C3A N1A 1_555 1_555
H2A C3A 1_555 1_555
C4A C3A 1_555 1_555
H3A C4A 1_555 1_555
C5A C1A 1_555 1_555
H4A C5A 1_555 1_555
C6A C1A 1_555 1_555
O4A C12A 1_555 1_555
N2A C9 1_555 1_555
N2A_2 Cu1 1_555 1_555
C7A C11 1_555 1_555
C8A N2A 1_555 1_555
H5A C8 1_555 1_555
C9A N2 1_555 1_555
H6A C9A 1_555 1_555
C10A C9A 1_555 1_555
H7A C10A 1_555 1_555
C11A C7 1_555 1_555
H8A C11A 1_555 1_555
C12A C7A 1_555 1_555
N3A C6A 1_555 1_555
H9A N3A 1_555 1_555
N4A C12A 1_555 1_555
H10A N4 1_555 1_555
C13A N3A 1_555 1_555
H11A C13A 1_555 1_555
H12A C13A 1_555 1_555
C14A C13A 1_555 1_555
H13A C14A 1_555 1_555
H14A C14A 1_555 1_555
C15A C14A 1_555 1_555
H15A C15A 1_555 1_555
H16A C15A 1_555 1_555
C16A N4A 1_555 1_555
H17A C16 1_555 1_555
H18A C16 1_555 1_555
C4 C5 1_555 1_555
C15 C16 1_555 1_555
C4A C5A 1_555 1_555
C7A C8A 1_555 1_555
C10A C11A 1_555 1_555
C15A C16A 1_555 1_555

#END
