
#######################################################################
#
#                 Cambridge Crystallographic Data Centre
#                                CCDC 
#
#######################################################################
#
# If this CIF has been generated from an entry in the Cambridge 
# Structural Database, then it will include bibliographic, chemical, 
# crystal, experimental, refinement or atomic coordinate data resulting 
# from the CCDC's data processing and validation procedures.
#
#######################################################################

data_DIKJEN
_symmetry_cell_setting           triclinic
_symmetry_space_group_name_H-M   'P -1'
_symmetry_Int_Tables_number      2
_space_group_name_Hall           '-P 1'
loop_
_symmetry_equiv_pos_site_id
_symmetry_equiv_pos_as_xyz
1 x,y,z
2 -x,-y,-z
_cell_length_a                   11.787(2)
_cell_length_b                   15.941(3)
_cell_length_c                   16.312(3)
_cell_angle_alpha                65.77(3)
_cell_angle_beta                 75.63(3)
_cell_angle_gamma                86.96(3)
_cell_volume                     2703.38
loop_
_atom_site_label
_atom_site_type_symbol
_atom_site_fract_x
_atom_site_fract_y
_atom_site_fract_z
P1 P -0.14855(19) -0.45322(18) 0.31723(16)
F1 F -0.1790(8) -0.3638(5) 0.3310(5)
F2 F -0.1145(8) -0.5462(5) 0.3063(5)
F3 F -0.0481(5) -0.4002(7) 0.2289(4)
F4 F -0.2323(5) -0.4356(5) 0.2534(4)
F5 F -0.2477(5) -0.5091(5) 0.4073(4)
F6 F -0.0639(6) -0.4740(5) 0.3828(5)
Cu1 Cu 0.35556(6) 0.67219(4) -0.78634(4)
O1 O 0.4959(4) 0.7440(3) -0.7544(3)
O2 O 0.2038(4) 0.5913(3) -0.8211(3)
N1 N 0.3271(4) -0.2097(3) 0.1104(3)
C1 C 0.3059(7) -0.2100(5) 0.0331(4)
H1 H 0.2963 -0.2662 0.0301
C2 C 0.2980(7) -0.1289(4) -0.0425(4)
H2 H 0.2808 -0.1308 -0.0944
C3 C 0.3164(5) -0.0435(4) -0.0392(3)
C4 C 0.3378(6) -0.0448(4) 0.0405(4)
H3 H 0.3494 0.0101 0.0453
C5 C 0.3418(5) -0.1276(4) 0.1125(4)
H4 H 0.3554 -0.1270 0.1660
C6 C 0.3114(6) 0.0483(4) -0.1177(5)
O3 O 0.3563(5) 0.1158(3) -0.1194(4)
N2 N 0.3721(4) 0.5482(3) -0.6856(3)
C7 C 0.2775(5) 0.4901(4) -0.6307(4)
H5 H 0.2048 0.5062 -0.6433
C8 C 0.2838(6) 0.4097(4) -0.5581(4)
H6 H 0.2169 0.3714 -0.5225
C9 C 0.3938(5) 0.3848(4) -0.5372(4)
C10 C 0.4879(6) 0.4438(4) -0.5902(4)
H7 H 0.5603 0.4305 -0.5761
C11 C 0.4779(5) 0.5235(4) -0.6649(4)
H8 H 0.5446 0.5614 -0.7022
C12 C 0.4051(6) 0.2989(4) -0.4558(4)
O4 O 0.4880(4) 0.2967(3) -0.4210(3)
N3 N 0.2612(6) 0.0486(4) -0.1825(4)
H9 H 0.2346 -0.0027 -0.1780
N4 N 0.3308(5) 0.2269(3) -0.4271(3)
H10 H 0.2764 0.2319 -0.4553
C13 C 0.2501(7) 0.1340(6) -0.2613(5)
H11 H 0.2639 0.1865 -0.2487
H12 H 0.1711 0.1357 -0.2693
C14 C 0.3378(8) 0.1402(5) -0.3500(6)
H13 H 0.4166 0.1353 -0.3409
H14 H 0.3215 0.0894 -0.3643
N5 N 0.4891(4) 0.6487(3) -0.8816(3)
C15 C 0.5651(6) 0.7152(4) -0.9423(4)
H15 H 0.5589 0.7717 -0.9381
C16 C 0.6527(6) 0.7085(4) -1.0115(4)
H16 H 0.7062 0.7578 -1.0508
C17 C 0.6596(5) 0.6260(4) -1.0214(3)
C18 C 0.5831(6) 0.5561(4) -0.9593(4)
H17 H 0.5876 0.4989 -0.9622
C19 C 0.4968(5) 0.5697(4) -0.8904(4)
H18 H 0.4429 0.5214 -0.8492
C20 C 0.7466(6) 0.6111(5) -1.1001(4)
O5 O 0.7460(5) 0.5363(4) -1.1045(4)
N6 N 1.2285(4) 0.6992(3) -1.6907(3)
C21 C 1.1244(5) 0.7262(4) -1.7041(4)
H19 H 1.1100 0.7360 -1.7609
C22 C 1.0367(6) 0.7405(4) -1.6398(4)
H20 H 0.9640 0.7573 -1.6523
C23 C 1.0563(5) 0.7299(4) -1.5552(4)
C24 C 1.1655(6) 0.7018(5) -1.5421(4)
H21 H 1.1833 0.6927 -1.4866
C25 C 1.2480(5) 0.6873(4) -1.6095(4)
H22 H 1.3208 0.6683 -1.5985
C26 C 0.9576(6) 0.7456(5) -1.4852(4)
O6 O 0.8758(4) 0.7904(4) -1.5066(3)
N7 N 0.8247(6) 0.6790(5) -1.1591(4)
H23 H 0.8237 0.7294 -1.1516
N8 N 0.9640(6) 0.7037(6) -1.3979(4)
H24 H 1.0231 0.6709 -1.3863
C27 C 0.9122(9) 0.6715(8) -1.2361(6)
H25 H 0.9852 0.7030 -1.2447
H26 H 0.9268 0.6072 -1.2216
C28 C 0.8748(9) 0.7100(9) -1.3184(7)
H27 H 0.8594 0.7742 -1.3324
H28 H 0.8021 0.6781 -1.3099
Cu1_2 Cu 0.35556(6) -0.32781(4) 0.21366(4)
Cu1_3 Cu 1.35556(6) 0.67219(4) -1.78634(4)
N1_2 N 0.3271(4) 0.7903(3) -0.8896(3)
N6_2 N 0.2285(4) 0.6992(3) -0.6907(3)
loop_
_geom_bond_atom_site_label_1
_geom_bond_atom_site_label_2
_geom_bond_site_symmetry_1
_geom_bond_site_symmetry_2
Cu1 O1 1_555 1_555
P1 F1 1_555 1_555
O2 Cu1 1_555 1_555
N1 C1 1_555 1_555
C1 H1 1_555 1_555
C2 C1 1_555 1_555
H2 C2 1_555 1_555
C3 C2 1_555 1_555
C4 C3 1_555 1_555
H3 C4 1_555 1_555
C5 N1 1_555 1_555
H4 C5 1_555 1_555
C6 C3 1_555 1_555
O3 C6 1_555 1_555
N2 Cu1 1_555 1_555
C7 N2 1_555 1_555
H5 C7 1_555 1_555
C8 C7 1_555 1_555
H6 C8 1_555 1_555
C9 C8 1_555 1_555
C10 C9 1_555 1_555
H7 C10 1_555 1_555
C11 N2 1_555 1_555
H8 C11 1_555 1_555
C12 C9 1_555 1_555
O4 C12 1_555 1_555
N3 C6 1_555 1_555
H9 N3 1_555 1_555
N4 C12 1_555 1_555
H10 N4 1_555 1_555
C13 N3 1_555 1_555
H11 C13 1_555 1_555
H12 C13 1_555 1_555
C14 N4 1_555 1_555
H13 C14 1_555 1_555
H14 C14 1_555 1_555
N5 Cu1 1_555 1_555
C15 N5 1_555 1_555
H15 C15 1_555 1_555
C16 C15 1_555 1_555
H16 C16 1_555 1_555
C17 C16 1_555 1_555
C18 C17 1_555 1_555
H17 C18 1_555 1_555
C19 N5 1_555 1_555
H18 C19 1_555 1_555
C20 C17 1_555 1_555
O5 C20 1_555 1_555
N6 C21 1_555 1_555
C21 H19 1_555 1_555
C22 C21 1_555 1_555
H20 C22 1_555 1_555
C23 C22 1_555 1_555
C24 C23 1_555 1_555
H21 C24 1_555 1_555
C25 N6 1_555 1_555
H22 C25 1_555 1_555
C26 C23 1_555 1_555
O6 C26 1_555 1_555
N7 C20 1_555 1_555
H23 N7 1_555 1_555
N8 C26 1_555 1_555
H24 N8 1_555 1_555
C27 N7 1_555 1_555
H25 C27 1_555 1_555
H26 C27 1_555 1_555
C28 N8 1_555 1_555
H27 C28 1_555 1_555
H28 C28 1_555 1_555
F2 P1 1_555 1_555
F3 P1 1_555 1_555
F4 P1 1_555 1_555
F5 P1 1_555 1_555
F6 P1 1_555 1_555
Cu1_2 N1 1_555 1_555
Cu1_3 N6 1_555 1_555
N1_2 Cu1 1_555 1_555
N6_2 Cu1 1_555 1_555
C4 C5 1_555 1_555
C10 C11 1_555 1_555
C13 C14 1_555 1_555
C18 C19 1_555 1_555
C24 C25 1_555 1_555
C27 C28 1_555 1_555

#END
