
#######################################################################
#
#                 Cambridge Crystallographic Data Centre
#                                CCDC 
#
#######################################################################
#
# If this CIF has been generated from an entry in the Cambridge 
# Structural Database, then it will include bibliographic, chemical, 
# crystal, experimental, refinement or atomic coordinate data resulting 
# from the CCDC's data processing and validation procedures.
#
#######################################################################

data_DIKJAJ
_symmetry_cell_setting           triclinic
_symmetry_space_group_name_H-M   'P -1'
_symmetry_Int_Tables_number      2
_space_group_name_Hall           '-P 1'
loop_
_symmetry_equiv_pos_site_id
_symmetry_equiv_pos_as_xyz
1 x,y,z
2 -x,-y,-z
_cell_length_a                   7.9490(16)
_cell_length_b                   12.001(2)
_cell_length_c                   12.050(2)
_cell_angle_alpha                68.69(3)
_cell_angle_beta                 79.83(3)
_cell_angle_gamma                80.23(3)
_cell_volume                     1047.1
loop_
_atom_site_label
_atom_site_type_symbol
_atom_site_fract_x
_atom_site_fract_y
_atom_site_fract_z
Cl1 Cl 0.68514(18) 0.31362(14) 0.27883(14)
O1 O 0.6036(7) 0.4049(6) 0.3242(7)
O2 O 0.6118(12) 0.3219(14) 0.1803(10)
O3 O 0.6606(18) 0.2080(8) 0.3662(12)
O4 O 0.8603(7) 0.3267(8) 0.2450(7)
O6 O 0.5495(6) 0.3025(4) -0.3081(4)
C15 C 0.222(5) 0.031(4) 0.912(2)
C16 C 0.133(3) -0.1255(19) 1.0967(18)
C17 C 0.259(2) -0.0791(17) 1.003(2)
C18 C 0.081(3) -0.023(2) 0.995(2)
C19 C 0.035(2) 0.0780(10) 0.9083(9)
C15A C -0.222(5) -0.031(4) 1.088(2)
C16A C -0.133(3) 0.1255(19) 0.9033(18)
C17A C -0.259(2) 0.0791(17) 0.997(2)
C18A C -0.081(3) 0.023(2) 1.005(2)
C19A C -0.035(2) -0.0780(10) 1.0917(9)
Cu1 Cu 0.0000 0.5000 -0.5000
O5 O 0.2915(5) 0.5322(3) -0.5037(4)
N1 N -0.0853(5) 0.6823(4) -0.5364(4)
O7 O 0.2845(5) 0.9161(4) -0.6675(5)
C1 C -0.0122(7) 0.8863(5) -0.6105(5)
C2 C 0.0320(6) 0.7639(5) -0.5713(5)
H1 H 0.1479 0.7348 -0.5682
C3 C -0.2546(7) 0.7291(5) -0.5368(5)
H2 H -0.3381 0.6765 -0.5125
C4 C -0.3071(7) 0.8520(5) -0.5720(5)
H3 H -0.4236 0.8801 -0.5696
C5 C -0.1851(7) 0.9326(5) -0.6109(5)
H4 H -0.2179 1.0152 -0.6365
C6 C 0.1342(7) 0.9625(5) -0.6544(5)
N2 N 0.0969(6) 1.0826(4) -0.6819(4)
H5 H -0.0088 1.1124 -0.6725
N3 N 0.1583(6) 1.2641(4) -0.9352(4)
H6 H 0.0553 1.2770 -0.9021
C7 C 0.2297(8) 1.1631(5) -0.7267(5)
H7 H 0.3273 1.1268 -0.6822
H8 H 0.1858 1.2378 -0.7122
C8 C 0.2906(7) 1.1914(5) -0.8598(5)
H9 H 0.3912 1.2343 -0.8811
H10 H 0.3243 1.1165 -0.8757
N4 N -0.0425(5) 1.4658(4) -1.3183(4)
C9 C 0.0518(7) 1.3796(5) -1.1225(4)
C10 C 0.0778(6) 1.4078(4) -1.2462(4)
H11 H 0.1858 1.3848 -1.2809
C11 C -0.1986(7) 1.5001(5) -1.2681(5)
H12 H -0.2841 1.5400 -1.3171
C12 C -0.2348(7) 1.4782(6) -1.1477(5)
H13 H -0.3429 1.5046 -1.1158
C13 C -0.1110(7) 1.4166(6) -1.0730(5)
H14 H -0.1357 1.4000 -0.9906
C14 C 0.1942(7) 1.3099(5) -1.0523(5)
O8 O 0.3411(6) 1.2972(6) -1.1013(4)
Cu1_2 Cu 0.0000 1.5000 -1.5000
Cu1_3 Cu 0.0000 -0.5000 0.5000
O5A O -0.2915(5) 0.4678(3) -0.4963(4)
N1A N 0.0853(5) 0.3177(4) -0.4636(4)
O7A O -0.2845(5) 0.0839(4) -0.3325(5)
C1A C 0.0122(7) 0.1137(5) -0.3895(5)
C2A C -0.0320(6) 0.2361(5) -0.4287(5)
H1A H -0.1479 0.2652 -0.4318
C3A C 0.2546(7) 0.2709(5) -0.4632(5)
H2A H 0.3381 0.3235 -0.4875
C4A C 0.3071(7) 0.1480(5) -0.4280(5)
H3A H 0.4236 0.1199 -0.4304
C5A C 0.1851(7) 0.0674(5) -0.3891(5)
H4A H 0.2179 -0.0152 -0.3635
C6A C -0.1342(7) 0.0375(5) -0.3456(5)
N2A N -0.0969(6) -0.0826(4) -0.3181(4)
H5A H 0.0088 -0.1124 -0.3275
N3A N -0.1583(6) -0.2641(4) -0.0648(4)
H6A H -0.0553 -0.2770 -0.0979
C7A C -0.2297(8) -0.1631(5) -0.2733(5)
H7A H -0.3273 -0.1268 -0.3178
H8A H -0.1858 -0.2378 -0.2878
C8A C -0.2906(7) -0.1914(5) -0.1402(5)
H9A H -0.3912 -0.2343 -0.1189
H10A H -0.3243 -0.1165 -0.1243
N4_2 N -0.0425(5) 0.4658(4) -0.3183(4)
N4A N 0.0425(5) 0.5342(4) -0.6817(4)
N4A_2 N 0.0425(5) -0.4658(4) 0.3183(4)
C9A C -0.0518(7) -0.3796(5) 0.1225(4)
C10A C -0.0778(6) -0.4078(4) 0.2462(4)
H11A H -0.1858 -0.3848 0.2809
C11A C 0.1986(7) -0.5001(5) 0.2681(5)
H12A H 0.2841 -0.5400 0.3171
C12A C 0.2348(7) -0.4782(6) 0.1477(5)
H13A H 0.3429 -0.5046 0.1158
C13A C 0.1110(7) -0.4166(6) 0.0730(5)
H14A H 0.1357 -0.4000 -0.0094
C14A C -0.1942(7) -0.3099(5) 0.0523(5)
O8A O -0.3411(6) -0.2972(6) 0.1013(4)
loop_
_geom_bond_atom_site_label_1
_geom_bond_atom_site_label_2
_geom_bond_site_symmetry_1
_geom_bond_site_symmetry_2
Cu1 O5 1_555 1_555
Cl1 O1 1_555 1_555
O2 Cl1 1_555 1_555
O3 Cl1 1_555 1_555
O4 Cl1 1_555 1_555
N1 Cu1 1_555 1_555
O7 C6 1_555 1_555
C1 C2 1_555 1_555
C2 N1 1_555 1_555
H1 C2 1_555 1_555
C3 N1 1_555 1_555
H2 C3 1_555 1_555
C4 C3 1_555 1_555
H3 C4 1_555 1_555
C5 C1 1_555 1_555
H4 C5 1_555 1_555
C6 C1 1_555 1_555
N2 C6 1_555 1_555
H5 N2 1_555 1_555
N3 H6 1_555 1_555
C7 N2 1_555 1_555
H7 C7 1_555 1_555
H8 C7 1_555 1_555
C8 N3 1_555 1_555
H9 C8 1_555 1_555
H10 C8 1_555 1_555
N4 C10 1_555 1_555
C9 C10 1_555 1_555
C10 H11 1_555 1_555
C11 N4 1_555 1_555
H12 C11 1_555 1_555
C12 C11 1_555 1_555
H13 C12 1_555 1_555
C13 C9 1_555 1_555
H14 C13 1_555 1_555
C14 N3 1_555 1_555
O8 C14 1_555 1_555
C15 C17 1_555 1_555
C16 C17 1_555 1_555
C17 C18 1_555 1_555
C18 C15 1_555 1_555
C19 C15 1_555 1_555
Cu1_2 N4 1_555 1_555
Cu1_3 N4A_2 1_555 1_555
O5A Cu1 1_555 1_555
N1A Cu1 1_555 1_555
O7A C6A 1_555 1_555
C1A C2A 1_555 1_555
C2A N1A 1_555 1_555
H1A C2A 1_555 1_555
C3A N1A 1_555 1_555
H2A C3A 1_555 1_555
C4A C3A 1_555 1_555
H3A C4A 1_555 1_555
C5A C1A 1_555 1_555
H4A C5A 1_555 1_555
C6A C1A 1_555 1_555
N2A C6A 1_555 1_555
H5A N2A 1_555 1_555
N3A H6A 1_555 1_555
C7A N2A 1_555 1_555
H7A C7A 1_555 1_555
H8A C7A 1_555 1_555
C8A N3A 1_555 1_555
H9A C8A 1_555 1_555
H10A C8A 1_555 1_555
N4_2 Cu1 1_555 1_555
N4A Cu1 1_555 1_555
N4A_2 C10A 1_555 1_555
C9A C10A 1_555 1_555
C10A H11A 1_555 1_555
C11A N4A_2 1_555 1_555
H12A C11A 1_555 1_555
C12A C11A 1_555 1_555
H13A C12A 1_555 1_555
C13A C9A 1_555 1_555
H14A C13A 1_555 1_555
C14A N3A 1_555 1_555
O8A C14A 1_555 1_555
C15A C17A 1_555 1_555
C16A C19 1_555 1_555
C17A C16A 1_555 1_555
C18A C18 1_555 1_555
C19A C16 1_555 1_555
C4 C5 1_555 1_555
C7 C8 1_555 1_555
C9 C14 1_555 1_555
C12 C13 1_555 1_555
C16 C18 1_555 1_555
C18 C19 1_555 1_555
C18 C19A 1_555 1_555
C19 C18A 1_555 1_555
C4A C5A 1_555 1_555
C7A C8A 1_555 1_555
C9A C14A 1_555 1_555
C12A C13A 1_555 1_555
C15A C18A 1_555 1_555
C15A C19A 1_555 1_555
C16A C18A 1_555 1_555
C17A C18A 1_555 1_555
C18A C19A 1_555 1_555

#END
