
#######################################################################
#
#                 Cambridge Crystallographic Data Centre
#                                CCDC 
#
#######################################################################
#
# If this CIF has been generated from an entry in the Cambridge 
# Structural Database, then it will include bibliographic, chemical, 
# crystal, experimental, refinement or atomic coordinate data resulting 
# from the CCDC's data processing and validation procedures.
#
#######################################################################

data_DIKJUD
_symmetry_cell_setting           orthorhombic
_symmetry_space_group_name_H-M   'P c a 21'
_symmetry_Int_Tables_number      29
_space_group_name_Hall           'P 2c -2ac'
loop_
_symmetry_equiv_pos_site_id
_symmetry_equiv_pos_as_xyz
1 x,y,z
2 -x,-y,1/2+z
3 1/2+x,-y,z
4 1/2-x,y,1/2+z
_cell_length_a                   21.296(4)
_cell_length_b                   9.3820(19)
_cell_length_c                   18.803(4)
_cell_angle_alpha                90
_cell_angle_beta                 90
_cell_angle_gamma                90
_cell_volume                     3756.82
loop_
_atom_site_label
_atom_site_type_symbol
_atom_site_fract_x
_atom_site_fract_y
_atom_site_fract_z
Cu1 Cu 0.88791(5) 0.01883(11) 0.88200(7)
O2 O 0.8528(5) 0.0496(12) 1.0191(5)
O3 O 0.9241(4) -0.0045(9) 0.7645(4)
O4 O 0.9032(3) -0.5040(9) 1.0213(4)
N1 N 0.9510(4) -0.1330(10) 0.9152(4)
C1 C 0.9767(5) -0.3213(11) 0.9946(6)
C2 C 0.9338(5) -0.2340(12) 0.9611(6)
H1 H 0.8913 -0.2462 0.9709
C3 C 1.0133(5) -0.1184(11) 0.9011(5)
H2 H 1.0259 -0.0488 0.8689
C4 C 1.0571(5) -0.2001(12) 0.9317(6)
H3 H 1.0990 -0.1876 0.9196
C5 C 1.0409(5) -0.3021(12) 0.9807(7)
H4 H 1.0713 -0.3564 1.0037
C6 C 0.9528(5) -0.4417(12) 1.0374(6)
O5 O 0.9247(4) -0.5499(11) 1.3006(5)
N2 N 1.0506(4) -0.1786(9) 1.4003(4)
C7 C 0.9906(5) -0.3747(12) 1.3546(5)
C8 C 1.0372(4) -0.2785(10) 1.3496(5)
H5 H 1.0621 -0.2802 1.3090
C9 C 1.0134(5) -0.1835(13) 1.4577(6)
H6 H 1.0210 -0.1173 1.4935
C10 C 0.9658(5) -0.2768(13) 1.4681(6)
H7 H 0.9432 -0.2777 1.5104
C11 C 0.9522(5) -0.3677(11) 1.4153(5)
H8 H 0.9172 -0.4265 1.4188
C12 C 0.9756(5) -0.4881(13) 1.3003(6)
N3 N 0.9836(4) -0.4793(10) 1.0970(4)
H9 H 1.0167 -0.4329 1.1090
N4 N 1.0188(4) -0.5188(11) 1.2527(5)
H10 H 1.0534 -0.4714 1.2527
C13 C 0.9620(5) -0.5973(13) 1.1421(6)
H11 H 0.9548 -0.6807 1.1128
H12 H 0.9225 -0.5714 1.1643
C14 C 1.0097(5) -0.6329(14) 1.1992(7)
H13 H 0.9963 -0.7190 1.2234
H14 H 1.0497 -0.6528 1.1766
O6 O 0.6716(3) 0.4621(10) 0.9695(5)
N5 N 0.8205(3) 0.1671(9) 0.8595(5)
C15 C 0.7489(5) 0.3389(10) 0.9027(5)
C16 C 0.8032(4) 0.2622(11) 0.9091(5)
H15 H 0.8288 0.2763 0.9486
C17 C 0.7822(5) 0.1473(12) 0.8021(6)
H16 H 0.7932 0.0790 0.7685
C18 C 0.7283(5) 0.2237(12) 0.7921(6)
H17 H 0.7046 0.2133 0.7509
C19 C 0.7102(5) 0.3169(12) 0.8452(6)
H18 H 0.6720 0.3645 0.8420
C20 C 0.7282(4) 0.4336(13) 0.9613(5)
O7 O 0.6675(4) 0.5222(11) 1.2288(5)
N6 N 0.6794(4) 0.8672(7) 1.3691(5)
C21 C 0.7260(4) 0.6840(11) 1.2990(5)
C22 C 0.6757(5) 0.7673(11) 1.3177(6)
H19 H 0.6378 0.7544 1.2941
C23 C 0.7339(5) 0.8770(10) 1.4068(5)
H20 H 0.7369 0.9418 1.4440
C24 C 0.7845(5) 0.7924(12) 1.3904(7)
H21 H 0.8212 0.8015 1.4168
C25 C 0.7823(5) 0.6952(12) 1.3364(5)
H22 H 0.8169 0.6390 1.3251
C26 C 0.7172(5) 0.5851(14) 1.2372(6)
N7 N 0.7730(4) 0.4939(11) 1.0033(4)
H23 H 0.8117 0.4828 0.9913
N8 N 0.7678(5) 0.5663(11) 1.1959(5)
H24 H 0.8018 0.6089 1.2085
C27 C 0.7598(6) 0.5752(15) 1.0666(6)
H25 H 0.7872 0.6577 1.0688
H26 H 0.7167 0.6085 1.0657
C28 C 0.7704(6) 0.4807(14) 1.1319(7)
H27 H 0.8110 0.4344 1.1285
H28 H 0.7384 0.4072 1.1338
Cu1A Cu 1.11209(5) -0.01883(11) 1.38200(7)
Cu1C Cu 0.61209(5) 1.01883(11) 1.38200(7)
N2A N 0.9494(4) 0.1786(9) 0.9003(4)
N6C N 0.8206(4) -0.1328(7) 0.8691(5)
O1 O 0.9034(5) 0.3387(13) 0.6534(7)
P1 P 0.82634(19) 0.9838(5) 0.58991(17)
F1 F 0.7582(5) 0.9243(13) 0.5756(6)
F2 F 0.8931(6) 1.0413(19) 0.5959(7)
F3 F 0.8499(7) 0.8546(16) 0.5543(12)
F4 F 0.8243(7) 0.9184(17) 0.6627(6)
F5 F 0.8259(11) 1.057(3) 0.5212(7)
F6 F 0.7977(9) 1.1157(15) 0.6222(14)
P2 P 0.59213(19) 0.8930(5) 0.6978(2)
F7 F 0.6616(7) 0.940(2) 0.7015(10)
F8 F 0.5244(5) 0.8357(17) 0.6979(9)
F9 F 0.5968(10) 0.856(2) 0.6215(5)
F10 F 0.5741(14) 1.0421(13) 0.6856(17)
F11 F 0.6101(7) 0.7423(14) 0.7115(10)
F12 F 0.5850(12) 0.920(3) 0.7764(8)
loop_
_geom_bond_atom_site_label_1
_geom_bond_atom_site_label_2
_geom_bond_site_symmetry_1
_geom_bond_site_symmetry_2
Cu1 O2 1_555 1_555
O3 Cu1 1_555 1_555
O4 C6 1_555 1_555
N1 Cu1 1_555 1_555
C1 C2 1_555 1_555
C2 N1 1_555 1_555
H1 C2 1_555 1_555
C3 N1 1_555 1_555
H2 C3 1_555 1_555
C4 C3 1_555 1_555
H3 C4 1_555 1_555
C5 C1 1_555 1_555
H4 C5 1_555 1_555
C6 C1 1_555 1_555
O5 C12 1_555 1_555
N2 C8 1_555 1_555
C7 C8 1_555 1_555
C8 H5 1_555 1_555
C9 N2 1_555 1_555
H6 C9 1_555 1_555
C10 C9 1_555 1_555
H7 C10 1_555 1_555
C11 C7 1_555 1_555
H8 C11 1_555 1_555
C12 C7 1_555 1_555
N3 C6 1_555 1_555
H9 N3 1_555 1_555
N4 C12 1_555 1_555
H10 N4 1_555 1_555
C13 N3 1_555 1_555
H11 C13 1_555 1_555
H12 C13 1_555 1_555
C14 N4 1_555 1_555
H13 C14 1_555 1_555
H14 C14 1_555 1_555
O6 C20 1_555 1_555
N5 Cu1 1_555 1_555
C15 C16 1_555 1_555
C16 N5 1_555 1_555
H15 C16 1_555 1_555
C17 N5 1_555 1_555
H16 C17 1_555 1_555
C18 C17 1_555 1_555
H17 C18 1_555 1_555
C19 C15 1_555 1_555
H18 C19 1_555 1_555
C20 C15 1_555 1_555
O7 C26 1_555 1_555
N6 C22 1_555 1_555
C21 C22 1_555 1_555
C22 H19 1_555 1_555
C23 N6 1_555 1_555
H20 C23 1_555 1_555
C24 C23 1_555 1_555
H21 C24 1_555 1_555
C25 C21 1_555 1_555
H22 C25 1_555 1_555
C26 C21 1_555 1_555
N7 C20 1_555 1_555
H23 N7 1_555 1_555
N8 C26 1_555 1_555
H24 N8 1_555 1_555
C27 N7 1_555 1_555
H25 C27 1_555 1_555
H26 C27 1_555 1_555
C28 N8 1_555 1_555
H27 C28 1_555 1_555
H28 C28 1_555 1_555
P1 F1 1_555 1_555
F2 P1 1_555 1_555
F3 P1 1_555 1_555
F4 P1 1_555 1_555
F5 P1 1_555 1_555
F6 P1 1_555 1_555
P2 F7 1_555 1_555
F8 P2 1_555 1_555
F9 P2 1_555 1_555
F10 P2 1_555 1_555
F11 P2 1_555 1_555
F12 P2 1_555 1_555
Cu1A N2 1_555 1_555
Cu1C N6 1_555 1_555
N2A Cu1 1_555 1_555
N6C Cu1 1_555 1_555
C4 C5 1_555 1_555
C10 C11 1_555 1_555
C13 C14 1_555 1_555
C18 C19 1_555 1_555
C24 C25 1_555 1_555
C27 C28 1_555 1_555

#END
