
#######################################################################
#
#                 Cambridge Crystallographic Data Centre
#                                CCDC 
#
#######################################################################
#
# If this CIF has been generated from an entry in the Cambridge 
# Structural Database, then it will include bibliographic, chemical, 
# crystal, experimental, refinement or atomic coordinate data resulting 
# from the CCDC's data processing and validation procedures.
#
#######################################################################

data_DIKKAK
_symmetry_cell_setting           orthorhombic
_symmetry_space_group_name_H-M   'P 21 21 21'
_symmetry_Int_Tables_number      19
_space_group_name_Hall           'P 2ac 2ab'
loop_
_symmetry_equiv_pos_site_id
_symmetry_equiv_pos_as_xyz
1 x,y,z
2 1/2-x,-y,1/2+z
3 1/2+x,1/2-y,-z
4 -x,1/2+y,1/2-z
_cell_length_a                   10.7470(2)
_cell_length_b                   13.1706(2)
_cell_length_c                   18.1220(4)
_cell_angle_alpha                90
_cell_angle_beta                 90
_cell_angle_gamma                90
_cell_volume                     2565.07
loop_
_atom_site_label
_atom_site_type_symbol
_atom_site_fract_x
_atom_site_fract_y
_atom_site_fract_z
Co1 Co 0.50793(2) 0.154570(19) -0.254370(13)
N1 N 0.42252(16) 0.13935(13) -0.35393(9)
N2 N 0.36183(16) 0.21416(13) -0.39146(9)
H1 H 0.3574 0.2776 -0.3765
C1 C 0.30948(19) 0.17940(16) -0.45403(11)
C2 C 0.3379(2) 0.07711(17) -0.45803(12)
H2 H 0.3150 0.0309 -0.4960
C3 C 0.4070(2) 0.05592(16) -0.39492(11)
H3 H 0.4389 -0.0092 -0.3826
C4 C 0.2333(2) 0.24820(19) -0.50396(13)
C5 C 0.1639(2) 0.1817(2) -0.55984(14)
H4 H 0.1086 0.1349 -0.5336
H5 H 0.2241 0.1428 -0.5890
H6 H 0.1146 0.2249 -0.5927
C6 C 0.1402(2) 0.3079(2) -0.45772(14)
H7 H 0.0902 0.2607 -0.4282
H8 H 0.0854 0.3469 -0.4903
H9 H 0.1850 0.3543 -0.4249
C7 C 0.3181(3) 0.3226(2) -0.54501(15)
H10 H 0.2673 0.3683 -0.5753
H11 H 0.3754 0.2847 -0.5768
H12 H 0.3658 0.3625 -0.5092
N3 N 0.42364(15) 0.15807(13) -0.15406(9)
N4 N 0.36213(16) 0.23810(13) -0.12352(9)
H13 H 0.3482 0.2958 -0.1465
C8 C 0.32526(19) 0.21870(17) -0.05438(11)
C9 C 0.3659(2) 0.12158(17) -0.03815(12)
H14 H 0.3548 0.0857 0.0068
C10 C 0.4261(2) 0.08742(17) -0.10130(11)
H15 H 0.4639 0.0226 -0.1062
C11 C 0.2547(2) 0.29450(18) -0.00724(12)
C12 C 0.1653(3) 0.3562(2) -0.05413(14)
H16 H 0.1174 0.4021 -0.0224
H17 H 0.1082 0.3103 -0.0800
H18 H 0.2124 0.3960 -0.0903
C13 C 0.1802(3) 0.2348(2) 0.05067(15)
H19 H 0.1352 0.2824 0.0826
H20 H 0.2373 0.1939 0.0806
H21 H 0.1206 0.1901 0.0258
C14 C 0.3468(3) 0.3638(3) 0.0313(2)
H22 H 0.3907 0.4049 -0.0055
H23 H 0.4070 0.3227 0.0588
H24 H 0.3022 0.4086 0.0654
N5 N 0.69683(14) 0.17526(12) -0.25519(9)
N6 N 0.78452(13) 0.10062(12) -0.25776(9)
H25 H 0.7676 0.0359 -0.2643
C15 C 0.90057(17) 0.13807(15) -0.24901(11)
C16 C 0.88791(18) 0.24167(16) -0.24111(13)
H26 H 0.9526 0.2899 -0.2342
C17 C 0.76056(18) 0.26121(15) -0.24533(12)
H27 H 0.7241 0.3267 -0.2417
C18 C 1.01463(17) 0.07016(16) -0.24926(12)
C19 C 1.1306(2) 0.1351(2) -0.2371(2)
H28 H 1.1402 0.1826 -0.2784
H29 H 1.2040 0.0912 -0.2342
H30 H 1.1220 0.1733 -0.1910
C20 C 1.0261(3) 0.0163(2) -0.32325(14)
H31 H 0.9521 -0.0256 -0.3316
H32 H 1.1003 -0.0270 -0.3230
H33 H 1.0333 0.0668 -0.3627
C21 C 1.0020(3) -0.0092(2) -0.18785(14)
H34 H 0.9958 0.0252 -0.1400
H35 H 1.0751 -0.0537 -0.1881
H36 H 0.9269 -0.0498 -0.1962
S1 S 0.41661(4) 0.40758(4) -0.26824(3)
O1 O 0.49276(11) 0.31522(10) -0.25727(7)
O2 O 0.36957(14) 0.41185(12) -0.34400(8)
O3 O 0.31183(14) 0.40662(12) -0.21526(9)
O4 O 0.49620(12) 0.49674(10) -0.25302(7)
Co1C Co 0.49207(2) 0.654570(19) -0.245630(13)
O4C O 0.50380(12) -0.00326(10) -0.24698(7)
loop_
_geom_bond_atom_site_label_1
_geom_bond_atom_site_label_2
_geom_bond_site_symmetry_1
_geom_bond_site_symmetry_2
Co1 N1 1_555 1_555
N1 N2 1_555 1_555
N2 H1 1_555 1_555
C1 N2 1_555 1_555
C2 C1 1_555 1_555
H2 C2 1_555 1_555
C3 N1 1_555 1_555
H3 C3 1_555 1_555
C4 C1 1_555 1_555
C5 C4 1_555 1_555
H4 C5 1_555 1_555
H5 C5 1_555 1_555
H6 C5 1_555 1_555
C6 C4 1_555 1_555
H7 C6 1_555 1_555
H8 C6 1_555 1_555
H9 C6 1_555 1_555
C7 C4 1_555 1_555
H10 C7 1_555 1_555
H11 C7 1_555 1_555
H12 C7 1_555 1_555
N3 Co1 1_555 1_555
N4 N3 1_555 1_555
H13 N4 1_555 1_555
C8 N4 1_555 1_555
C9 C8 1_555 1_555
H14 C9 1_555 1_555
C10 N3 1_555 1_555
H15 C10 1_555 1_555
C11 C8 1_555 1_555
C12 C11 1_555 1_555
H16 C12 1_555 1_555
H17 C12 1_555 1_555
H18 C12 1_555 1_555
C13 C11 1_555 1_555
H19 C13 1_555 1_555
H20 C13 1_555 1_555
H21 C13 1_555 1_555
C14 C11 1_555 1_555
H22 C14 1_555 1_555
H23 C14 1_555 1_555
H24 C14 1_555 1_555
N5 Co1 1_555 1_555
N6 N5 1_555 1_555
H25 N6 1_555 1_555
C15 N6 1_555 1_555
C16 C15 1_555 1_555
H26 C16 1_555 1_555
C17 N5 1_555 1_555
H27 C17 1_555 1_555
C18 C15 1_555 1_555
C19 C18 1_555 1_555
H28 C19 1_555 1_555
H29 C19 1_555 1_555
H30 C19 1_555 1_555
C20 C18 1_555 1_555
H31 C20 1_555 1_555
H32 C20 1_555 1_555
H33 C20 1_555 1_555
C21 C18 1_555 1_555
H34 C21 1_555 1_555
H35 C21 1_555 1_555
H36 C21 1_555 1_555
S1 O1 1_555 1_555
O1 Co1 1_555 1_555
O2 S1 1_555 1_555
O3 S1 1_555 1_555
O4 S1 1_555 1_555
Co1C O4 1_555 1_555
O4C Co1 1_555 1_555
C2 C3 1_555 1_555
C9 C10 1_555 1_555
C16 C17 1_555 1_555

#END
