
#######################################################################
#
#                 Cambridge Crystallographic Data Centre
#                                CCDC 
#
#######################################################################
#
# If this CIF has been generated from an entry in the Cambridge 
# Structural Database, then it will include bibliographic, chemical, 
# crystal, experimental, refinement or atomic coordinate data resulting 
# from the CCDC's data processing and validation procedures.
#
#######################################################################

data_DIKMEP01
_symmetry_cell_setting           orthorhombic
_symmetry_space_group_name_H-M   'P 21 21 21'
_symmetry_Int_Tables_number      19
_space_group_name_Hall           'P 2ac 2ab'
loop_
_symmetry_equiv_pos_site_id
_symmetry_equiv_pos_as_xyz
1 x,y,z
2 1/2+x,1/2-y,-z
3 -x,1/2+y,1/2-z
4 1/2-x,-y,1/2+z
_cell_length_a                   11.0651(5)
_cell_length_b                   14.4576(7)
_cell_length_c                   22.5958(9)
_cell_angle_alpha                90
_cell_angle_beta                 90
_cell_angle_gamma                90
_cell_volume                     3614.76
loop_
_atom_site_label
_atom_site_type_symbol
_atom_site_fract_x
_atom_site_fract_y
_atom_site_fract_z
Cl2 Cl 0.3171(1) 0.6618(1) 0.2571(1)
O20 O 0.4378(5) 0.6343(5) 0.2621(4)
O21 O 0.3064(9) 0.7583(7) 0.2635(4)
O22 O 0.2701(7) 0.6154(6) 0.3097(4)
O23 O 0.2419(12) 0.6255(9) 0.2111(6)
Cl3 Cl 0.3952(2) 0.7070(1) 0.4664(1)
O24 O 0.2808(6) 0.7549(6) 0.4641(3)
O25 O 0.4728(9) 0.7504(9) 0.5068(4)
O26 O 0.4491(6) 0.7036(6) 0.4112(3)
O27 O 0.3838(11) 0.6185(9) 0.4961(5)
Cl4 Cl 0.5634(2) 0.2391(1) 0.4741(1)
O28 O 0.4922(8) 0.1591(6) 0.4822(5)
O29 O 0.6927(11) 0.2154(9) 0.4789(6)
O30 O 0.5459(11) 0.3025(9) 0.5225(6)
O31 O 0.5373(13) 0.2779(10) 0.4242(6)
O32 O -0.1603(7) 0.0526(6) 0.4156(4)
H31 H -0.1523 0.0819 0.4365
H32 H -0.2178 0.0012 0.4073
O33 O 0.7248(6) -0.0754(5) 0.0625(4)
H33 H 0.8128 -0.0346 0.0581
H34 H 0.7189 -0.1221 0.0347
O34 O 0.8881(7) 0.0463(8) 0.0106(5)
H35 H 0.9198 0.0447 -0.0291
H36 H 0.9050 0.1087 0.0189
O35 O 0.6303(10) -0.0582(6) 0.3729(4)
H37 H 0.6553 -0.0184 0.3318
H38 H 0.6467 -0.1246 0.3478
Pr1 Pr 0.16000(2) 0.17655(1) 0.16799(1)
O1 O 0.2973(4) 0.2405(3) 0.0881(2)
O2 O 0.0839(4) 0.3314(3) 0.1358(2)
O3 O -0.0549(4) 0.1577(4) 0.1278(2)
Pr2 Pr 0.21239(2) 0.04820(1) 0.32856(1)
O4 O 0.2626(4) 0.1588(3) 0.4096(2)
O5 O 0.0770(4) 0.0046(3) 0.4131(2)
O6 O 0.2736(5) -0.1110(3) 0.3618(2)
O7 O 0.4370(4) 0.0588(4) 0.3505(3)
O8 O 0.3310(3) 0.0694(3) 0.1679(2)
O9 O 0.3215(4) -0.0245(3) 0.2477(2)
C1 C 0.3634(4) 0.0010(3) 0.1983(2)
C2 C 0.4599(4) -0.0621(3) 0.1709(2)
N1 N 0.5248(4) -0.0072(4) 0.1250(2)
C3 C 0.5482(5) -0.1041(3) 0.2167(2)
C4 C 0.6096(5) -0.1905(3) 0.1942(2)
C5 C 0.6811(4) -0.2408(3) 0.2401(2)
O10 O 0.3012(4) 0.2951(3) 0.2100(2)
O11 O 0.2738(3) 0.1804(2) 0.2706(2)
O12 O 0.0439(3) 0.1592(3) 0.3309(2)
O13 O 0.0279(4) 0.2383(3) 0.2454(2)
C6 C 0.0056(4) 0.2244(3) 0.2990(2)
C7 C -0.0699(4) 0.2982(3) 0.3287(2)
N2 N -0.1280(4) 0.2556(3) 0.3824(2)
C8 C 0.0114(5) 0.3792(4) 0.3491(2)
C9 C 0.0680(4) 0.4335(3) 0.2975(2)
C10 C -0.0259(4) 0.4787(3) 0.2586(2)
O14 O 0.0405(4) -0.0494(3) 0.2928(2)
O15 O 0.0874(3) 0.0434(3) 0.2205(2)
Cl1 Cl 0.2196(1) 0.0135(1) 0.0363(1)
O16 O 0.1462(4) 0.0699(3) 0.0756(2)
O17 O 0.1605(5) 0.0071(4) -0.0203(2)
O18 O 0.3367(4) 0.0554(3) 0.0285(2)
O19 O 0.2356(5) -0.0761(3) 0.0612(3)
H1 H 0.4220 -0.1096 0.1550
H2 H 0.5659 -0.0352 0.1020
H3 H 0.4869 0.0173 0.0981
H4 H 0.5658 0.0382 0.1576
H5 H 0.6049 -0.0566 0.2274
H6 H 0.5005 -0.1178 0.2479
H7 H 0.5561 -0.2361 0.1800
H8 H 0.6715 -0.1607 0.1582
H9 H -0.1271 0.3157 0.3057
H10 H -0.0905 0.2176 0.4020
H11 H -0.1646 0.3038 0.4056
H12 H -0.1961 0.2098 0.3642
H13 H -0.0368 0.4388 0.3671
H14 H 0.0598 0.3596 0.3737
H15 H 0.1189 0.4849 0.3213
H16 H 0.1098 0.3952 0.2750
H17 H 0.3538 0.2156 0.0795
H18 H 0.3058 0.2782 0.0537
H19 H 0.0327 0.3610 0.1423
H20 H 0.1421 0.3623 0.1037
H21 H -0.0369 0.1927 0.1016
H22 H -0.0156 0.1154 0.1331
H23 H 0.2179 0.1836 0.4273
H24 H 0.3521 0.1822 0.4242
H25 H -0.0199 0.0168 0.4098
H26 H 0.0894 -0.0526 0.4436
H27 H 0.2822 -0.1375 0.3343
H28 H 0.3043 -0.1236 0.4067
H29 H 0.4922 0.0030 0.3668
H30 H 0.4856 0.1115 0.3455
O10B O 0.6988(4) -0.2049(3) 0.2900(2)
O11B O 0.7262(3) -0.3196(2) 0.2294(2)
C5B C 0.3189(4) 0.2592(3) 0.2599(2)
O14B O -0.0405(4) 0.4506(3) 0.2072(2)
O15B O -0.0874(3) 0.5434(3) 0.2795(2)
C10B C 0.0259(4) -0.0213(3) 0.2414(2)
Pr1B Pr 0.84000(2) -0.32345(1) 0.33201(1)
Pr2B Pr 0.78761(2) -0.45180(1) 0.17144(1)
C4B C 0.3904(5) 0.3095(3) 0.3058(2)
Pr2B_2 Pr -0.21239(2) 0.54820(1) 0.17144(1)
Pr1B_2 Pr -0.16000(2) 0.67655(1) 0.33201(1)
C9B C -0.0680(4) -0.0665(3) 0.2025(2)
O1B O 0.7027(4) -0.2595(3) 0.4119(2)
O2B O 0.9161(4) -0.1686(3) 0.3642(2)
O3B O 1.0549(4) -0.3423(4) 0.3722(2)
O8B O 0.6690(3) -0.4306(3) 0.3321(2)
O13B O 0.9721(4) -0.2617(3) 0.2546(2)
O15B_2 O 0.9126(3) -0.4566(3) 0.2795(2)
O16B O 0.8538(4) -0.4301(3) 0.4244(2)
O4B O 0.7374(4) -0.3412(3) 0.0904(2)
O5B O 0.9230(4) -0.4954(3) 0.0869(2)
O6B O 0.7264(5) -0.6110(3) 0.1382(2)
O7B O 0.5630(4) -0.4412(4) 0.1495(3)
O9B O 0.6785(4) -0.5245(3) 0.2523(2)
O12B O 0.9561(3) -0.3408(3) 0.1691(2)
O14B_2 O 0.9595(4) -0.5494(3) 0.2072(2)
C3B C 0.4518(5) 0.3959(3) 0.2833(2)
H7B H 0.4439 0.2639 0.3200
H8B H 0.3285 0.3393 0.3418
C8B C -0.0114(5) -0.1208(4) 0.1509(2)
H15B H -0.1189 -0.0151 0.1787
H16B H -0.1098 -0.1048 0.2250
H17B H 0.6462 -0.2844 0.4205
H18B H 0.6942 -0.2218 0.4463
H19B H 0.9673 -0.1390 0.3577
H20B H 0.8579 -0.1377 0.3963
H21B H 1.0369 -0.3073 0.3984
H22B H 1.0156 -0.3846 0.3669
C1B C 0.6366(4) -0.4990(3) 0.3017(2)
C6B C 0.9944(4) -0.2756(3) 0.2010(2)
Cl1B Cl 0.7804(1) -0.4865(1) 0.4637(1)
H23B H 0.7821 -0.3164 0.0727
H24B H 0.6479 -0.3178 0.0758
H25B H 1.0199 -0.4832 0.0902
H26B H 0.9106 -0.5526 0.0564
H27B H 0.7178 -0.6375 0.1657
H28B H 0.6957 -0.6236 0.0933
H29B H 0.5078 -0.4970 0.1332
H30B H 0.5144 -0.3885 0.1545
C2B C 0.5401(4) 0.4379(3) 0.3291(2)
H5B H 0.3951 0.4434 0.2726
H6B H 0.4995 0.3822 0.2521
C7B C 0.0699(4) -0.2018(3) 0.1713(2)
H13B H 0.0368 -0.0612 0.1329
H14B H -0.0598 -0.1404 0.1263
C2B_2 C 0.5401(4) -0.5621(3) 0.3291(2)
C7B_2 C 1.0699(4) -0.2018(3) 0.1713(2)
O17B O 0.8395(5) -0.4929(4) 0.5203(2)
O18B O 0.6633(4) -0.4446(3) 0.4715(2)
O19B O 0.7644(5) -0.5761(3) 0.4388(3)
C1B_2 C 0.6366(4) 0.5010(3) 0.3017(2)
N1B N 0.4752(4) 0.4928(4) 0.3750(2)
H1B H 0.5780 0.3904 0.3450
C6B_2 C -0.0056(4) -0.2756(3) 0.2010(2)
N2B N 0.1280(4) -0.2444(3) 0.1176(2)
H9B H 0.1271 -0.1843 0.1943
H2B H 0.4341 0.4648 0.3980
H3B H 0.5131 0.5173 0.4019
H4B H 0.4342 0.5382 0.3424
H10B H 0.0905 -0.2824 0.0980
H11B H 0.1646 -0.1962 0.0944
H12B H 0.1961 -0.2902 0.1358
loop_
_geom_bond_atom_site_label_1
_geom_bond_atom_site_label_2
_geom_bond_site_symmetry_1
_geom_bond_site_symmetry_2
Pr1 O1 1_555 1_555
O1 H17 1_555 1_555
O2 Pr1 1_555 1_555
O3 Pr1 1_555 1_555
Pr2 O4 1_555 1_555
O4 H23 1_555 1_555
O5 Pr2 1_555 1_555
O6 Pr2 1_555 1_555
O7 Pr2 1_555 1_555
O8 Pr1 1_555 1_555
O9 Pr2 1_555 1_555
C1 O8 1_555 1_555
C2 C1 1_555 1_555
N1 C2 1_555 1_555
C3 C2 1_555 1_555
C4 C3 1_555 1_555
C5 C4 1_555 1_555
O10 Pr1 1_555 1_555
O11 Pr1 1_555 1_555
O12 Pr2 1_555 1_555
O13 Pr1 1_555 1_555
C6 O12 1_555 1_555
C7 C6 1_555 1_555
N2 C7 1_555 1_555
C8 C7 1_555 1_555
C9 C8 1_555 1_555
C10 C9 1_555 1_555
O14 Pr2 1_555 1_555
O15 Pr1 1_555 1_555
Cl1 O16 1_555 1_555
O16 Pr1 1_555 1_555
O17 Cl1 1_555 1_555
O18 Cl1 1_555 1_555
O19 Cl1 1_555 1_555
Cl2 O20 1_555 1_555
O21 Cl2 1_555 1_555
O22 Cl2 1_555 1_555
O23 Cl2 1_555 1_555
Cl3 O24 1_555 1_555
O25 Cl3 1_555 1_555
O26 Cl3 1_555 1_555
O27 Cl3 1_555 1_555
Cl4 O28 1_555 1_555
O29 Cl4 1_555 1_555
O30 Cl4 1_555 1_555
O31 Cl4 1_555 1_555
O32 H31 1_555 1_555
O33 H33 1_555 1_555
O34 H35 1_555 1_555
O35 H37 1_555 1_555
H1 C2 1_555 1_555
H2 N1 1_555 1_555
H3 N1 1_555 1_555
H4 N1 1_555 1_555
H5 C3 1_555 1_555
H6 C3 1_555 1_555
H7 C4 1_555 1_555
H8 C4 1_555 1_555
H9 C7 1_555 1_555
H10 N2 1_555 1_555
H11 N2 1_555 1_555
H12 N2 1_555 1_555
H13 C8 1_555 1_555
H14 C8 1_555 1_555
H15 C9 1_555 1_555
H16 C9 1_555 1_555
H18 O1 1_555 1_555
H19 O2 1_555 1_555
H20 O2 1_555 1_555
H21 O3 1_555 1_555
H22 O3 1_555 1_555
H24 O4 1_555 1_555
H25 O5 1_555 1_555
H26 O5 1_555 1_555
H27 O6 1_555 1_555
H28 O6 1_555 1_555
H29 O7 1_555 1_555
H30 O7 1_555 1_555
H32 O32 1_555 1_555
H34 O33 1_555 1_555
H36 O34 1_555 1_555
H38 O35 1_555 1_555
O10B C5 1_555 1_555
O11B C5 1_555 1_555
C5B O10 1_555 1_555
O14B C10 1_555 1_555
O15B C10 1_555 1_555
C10B O14 1_555 1_555
Pr1B O10B 1_555 1_555
Pr2B O11B 1_555 1_555
C4B C5B 1_555 1_555
Pr2B_2 O14B 1_555 1_555
Pr1B_2 O15B 1_555 1_555
C9B C10B 1_555 1_555
O1B Pr1B 1_555 1_555
O2B Pr1B 1_555 1_555
O3B Pr1B 1_555 1_555
O8B Pr1B 1_555 1_555
O13B Pr1B 1_555 1_555
O15B_2 Pr1B 1_555 1_555
O16B Pr1B 1_555 1_555
O4B Pr2B 1_555 1_555
O5B Pr2B 1_555 1_555
O6B Pr2B 1_555 1_555
O7B Pr2B 1_555 1_555
O9B Pr2B 1_555 1_555
O12B Pr2B 1_555 1_555
O14B_2 Pr2B 1_555 1_555
C3B C4B 1_555 1_555
H7B C4B 1_555 1_555
H8B C4B 1_555 1_555
C8B C9B 1_555 1_555
H15B C9B 1_555 1_555
H16B C9B 1_555 1_555
H17B O1B 1_555 1_555
H18B O1B 1_555 1_555
H19B O2B 1_555 1_555
H20B O2B 1_555 1_555
H21B O3B 1_555 1_555
H22B O3B 1_555 1_555
C1B O8B 1_555 1_555
C6B O13B 1_555 1_555
Cl1B O16B 1_555 1_555
H23B O4B 1_555 1_555
H24B O4B 1_555 1_555
H25B O5B 1_555 1_555
H26B O5B 1_555 1_555
H27B O6B 1_555 1_555
H28B O6B 1_555 1_555
H29B O7B 1_555 1_555
H30B O7B 1_555 1_555
C2B C3B 1_555 1_555
H5B C3B 1_555 1_555
H6B C3B 1_555 1_555
C7B C8B 1_555 1_555
H13B C8B 1_555 1_555
H14B C8B 1_555 1_555
C2B_2 C1B 1_555 1_555
C7B_2 C6B 1_555 1_555
O17B Cl1B 1_555 1_555
O18B Cl1B 1_555 1_555
O19B Cl1B 1_555 1_555
C1B_2 C2B 1_555 1_555
N1B C2B 1_555 1_555
H1B C2B 1_555 1_555
C6B_2 C7B 1_555 1_555
N2B C7B 1_555 1_555
H9B C7B 1_555 1_555
H2B N1B 1_555 1_555
H3B N1B 1_555 1_555
H4B N1B 1_555 1_555
H10B N2B 1_555 1_555
H11B N2B 1_555 1_555
H12B N2B 1_555 1_555
Pr2 O11 1_555 1_555
Pr2 O15 1_555 1_555
O9 C1 1_555 1_555
O11 C5B 1_555 1_555
O13 C6 1_555 1_555
O15 C10B 1_555 1_555
O11B Pr1B 1_555 1_555
O15B Pr2B_2 1_555 1_555
Pr2B O15B_2 1_555 1_555
O9B C1B 1_555 1_555
O12B C6B 1_555 1_555

#END
