
#######################################################################
#
#                 Cambridge Crystallographic Data Centre
#                                CCDC 
#
#######################################################################
#
# If this CIF has been generated from an entry in the Cambridge 
# Structural Database, then it will include bibliographic, chemical, 
# crystal, experimental, refinement or atomic coordinate data resulting 
# from the CCDC's data processing and validation procedures.
#
#######################################################################

data_DIKMEP
_symmetry_cell_setting           orthorhombic
_symmetry_space_group_name_H-M   'P 21 21 21'
_symmetry_Int_Tables_number      19
_space_group_name_Hall           'P 2ac 2ab'
loop_
_symmetry_equiv_pos_site_id
_symmetry_equiv_pos_as_xyz
1 x,y,z
2 1/2+x,1/2-y,-z
3 -x,1/2+y,1/2-z
4 1/2-x,-y,1/2+z
_cell_length_a                   11.069(3)
_cell_length_b                   14.451(4)
_cell_length_c                   22.569(5)
_cell_angle_alpha                90
_cell_angle_beta                 90
_cell_angle_gamma                90
_cell_volume                     3610.09
loop_
_atom_site_label
_atom_site_type_symbol
_atom_site_fract_x
_atom_site_fract_y
_atom_site_fract_z
Pr1 Pr 0.83986(4) 0.67615(3) 0.83187(2)
Pr2 Pr 0.78737(4) 0.54786(3) 0.67154(2)
O1 O 0.9097(6) 0.5437(5) 0.7790(3)
O2 O 0.9567(7) 0.4507(5) 0.7072(3)
O3 O 1.0279(7) 0.2368(5) 0.7454(3)
O4 O 1.0443(6) 0.1598(4) 0.8310(3)
N1 N 0.8743(9) 0.2550(6) 0.8832(4)
C1 C 0.9741(9) 0.4777(6) 0.7584(5)
C2 C 1.0687(9) 0.4331(7) 0.7981(4)
C3 C 1.0105(10) 0.3792(7) 0.8488(4)
C4 C 0.9299(8) 0.2982(6) 0.8292(5)
C5 C 1.0070(9) 0.2242(6) 0.7989(4)
O5 O 0.6695(6) 0.5691(4) 0.8325(3)
O6 O 0.6780(7) 0.4751(5) 0.7528(3)
O7 O 0.3015(7) 0.2948(4) 0.7100(3)
O8 O 0.2750(6) 0.1810(4) 0.7706(3)
N2 N 0.4736(8) 0.4930(7) 0.8751(4)
C6 C 0.6360(8) 0.5004(6) 0.8016(4)
C7 C 0.5412(8) 0.4378(6) 0.8289(4)
C8 C 0.4535(10) 0.3945(7) 0.7841(5)
C9 C 0.3881(10) 0.3082(7) 0.8074(4)
C10 C 0.3184(8) 0.2584(6) 0.7592(4)
O9 O 0.7031(7) 0.7388(5) 0.9122(3)
O10 O 0.7245(9) 0.3872(5) 0.6383(4)
O11 O 1.0526(7) 0.6566(7) 0.8717(5)
O12 O 0.9235(8) 0.5047(6) 0.5866(3)
O13 O 0.9162(7) 0.8318(5) 0.8646(3)
O14 O 0.7392(7) 0.6616(6) 0.5902(3)
O15 O 0.5606(7) 0.5594(6) 0.6496(4)
Cl1 Cl 0.7810(2) 0.5133(2) 0.9635(1)
O20 O 0.8539(7) 0.5692(5) 0.9242(3)
O21 O 0.7632(9) 0.4239(6) 0.9383(5)
O22 O 0.6623(7) 0.5555(5) 0.9705(3)
O23 O 0.8378(9) 0.5083(6) 1.0198(4)
O3B O 0.9721(7) 0.7368(5) 0.7546(3)
O7B O 0.6985(7) 0.7948(4) 0.7900(3)
O4B O 0.9557(6) 0.6598(4) 0.6690(3)
O8B O 0.7250(6) 0.6810(4) 0.7294(3)
Pr1B Pr 1.16014(4) 0.17615(3) 0.66813(2)
Pr2B Pr 1.21263(4) 0.04786(3) 0.82846(2)
Pr1B_2 Pr 0.16014(4) 0.17615(3) 0.66813(2)
Pr2B_2 Pr 0.21263(4) 0.04786(3) 0.82846(2)
O16 O 0.7236(10) 0.9236(8) 0.5624(5)
O17 O 0.8379(11) 0.0526(9) 0.9136(6)
O18 O 0.6339(14) 0.9408(10) 0.8715(7)
O19 O 0.6124(11) 0.9250(12) 0.0119(7)
Cl2 Cl 0.3173(2) 0.6616(2) 0.7572(1)
O24 O 0.2517(4) 0.6300(9) 0.7096(5)
O25 O 0.4367(9) 0.6327(8) 0.7589(6)
O26 O 0.3038(12) 0.7528(6) 0.7675(6)
O27 O 0.2693(12) 0.6188(11) 0.8080(6)
Cl3 Cl 0.3944(3) 0.7066(2) 0.9663(1)
O28 O 0.2830(10) 0.7553(8) 0.9638(5)
O29 O 0.4770(15) 0.7525(12) 1.0048(6)
O30 O 0.4471(9) 0.7037(10) 0.9107(5)
O31 O 0.3774(14) 0.6175(9) 0.9861(9)
Cl4 Cl 0.9366(3) 0.7610(2) 0.4737(1)
O32 O 1.0066(12) 0.8407(8) 0.4846(7)
O33 O 0.8137(10) 0.7791(6) 0.4836(7)
O34 O 0.9523(13) 0.6975(15) 0.5194(6)
O35 O 0.9440(19) 0.7310(13) 0.4199(8)
loop_
_geom_bond_atom_site_label_1
_geom_bond_atom_site_label_2
_geom_bond_site_symmetry_1
_geom_bond_site_symmetry_2
Pr1 O1 1_555 1_555
Pr2 O2 1_555 1_555
O1 C1 1_555 1_555
O2 C1 1_555 1_555
O3 C5 1_555 1_555
O4 C5 1_555 1_555
N1 C4 1_555 1_555
C1 C2 1_555 1_555
C2 C3 1_555 1_555
C3 C4 1_555 1_555
C4 C5 1_555 1_555
O5 Pr1 1_555 1_555
O6 Pr2 1_555 1_555
O7 C10 1_555 1_555
O8 C10 1_555 1_555
N2 C7 1_555 1_555
C6 O5 1_555 1_555
C7 C6 1_555 1_555
C8 C7 1_555 1_555
C9 C8 1_555 1_555
C10 C9 1_555 1_555
O9 Pr1 1_555 1_555
O10 Pr2 1_555 1_555
O11 Pr1 1_555 1_555
O12 Pr2 1_555 1_555
O13 Pr1 1_555 1_555
O14 Pr2 1_555 1_555
O15 Pr2 1_555 1_555
Cl1 O20 1_555 1_555
O20 Pr1 1_555 1_555
O21 Cl1 1_555 1_555
O22 Cl1 1_555 1_555
O23 Cl1 1_555 1_555
Cl2 O24 1_555 1_555
O25 Cl2 1_555 1_555
O26 Cl2 1_555 1_555
O27 Cl2 1_555 1_555
Cl3 O28 1_555 1_555
O29 Cl3 1_555 1_555
O30 Cl3 1_555 1_555
O31 Cl3 1_555 1_555
Cl4 O32 1_555 1_555
O33 Cl4 1_555 1_555
O34 Cl4 1_555 1_555
O35 Cl4 1_555 1_555
O3B Pr1 1_555 1_555
O7B Pr1 1_555 1_555
O4B Pr2 1_555 1_555
O8B Pr2 1_555 1_555
Pr1B O3 1_555 1_555
Pr2B O4 1_555 1_555
Pr1B_2 O7 1_555 1_555
Pr2B_2 O8 1_555 1_555
O6 C6 1_555 1_555

#END
