
#######################################################################
#
#                 Cambridge Crystallographic Data Centre
#                                CCDC 
#
#######################################################################
#
# If this CIF has been generated from an entry in the Cambridge 
# Structural Database, then it will include bibliographic, chemical, 
# crystal, experimental, refinement or atomic coordinate data resulting 
# from the CCDC's data processing and validation procedures.
#
#######################################################################

data_DIKPUJ
_symmetry_cell_setting           monoclinic
_symmetry_space_group_name_H-M   'P 21/c'
_symmetry_Int_Tables_number      14
_space_group_name_Hall           '-P 2ybc'
loop_
_symmetry_equiv_pos_site_id
_symmetry_equiv_pos_as_xyz
1 x,y,z
2 -x,1/2+y,1/2-z
3 -x,-y,-z
4 x,1/2-y,1/2+z
_cell_length_a                   6.82840(10)
_cell_length_b                   10.6888(2)
_cell_length_c                   18.5505(3)
_cell_angle_alpha                90
_cell_angle_beta                 94.3050(10)
_cell_angle_gamma                90
_cell_volume                     1350.13
loop_
_atom_site_label
_atom_site_type_symbol
_atom_site_fract_x
_atom_site_fract_y
_atom_site_fract_z
Cd1 Cd 0.24929(2) 0.925426(15) 0.490873(8)
N1 N 0.2634(3) 0.76358(18) 0.57874(9)
N2 N 0.1995(3) 0.79286(18) 0.39066(9)
O1 O 0.5605(2) 0.92104(15) 0.55186(8)
O2 O 0.7106(3) 0.8831(2) 0.66004(10)
O3 O -0.0676(2) 0.95305(16) 0.43833(9)
O4 O -0.2616(3) 0.93148(17) 0.33710(9)
C1 C 0.4240(3) 0.7670(2) 0.62519(11)
C2 C 0.4491(4) 0.6841(3) 0.68242(13)
H1 H 0.5613 0.6879 0.7140
C3 C 0.3065(4) 0.5958(3) 0.69212(15)
H2 H 0.3199 0.5401 0.7307
C4 C 0.1441(4) 0.5918(2) 0.64373(15)
H3 H 0.0478 0.5315 0.6485
C5 C 0.1245(4) 0.6778(2) 0.58792(13)
C6 C 0.5790(3) 0.8656(2) 0.61319(12)
C7 C -0.0529(4) 0.6769(3) 0.53546(16)
H4 H -0.1094 0.7591 0.5325
H5 H -0.1476 0.6187 0.5515
H6 H -0.0156 0.6521 0.4887
C8 C 0.0291(3) 0.8111(2) 0.35011(11)
C9 C -0.0215(4) 0.7417(2) 0.28898(12)
H7 H -0.1402 0.7556 0.2622
C10 C 0.1066(4) 0.6514(3) 0.26808(13)
H8 H 0.0763 0.6039 0.2267
C11 C 0.2782(4) 0.6326(3) 0.30893(14)
H9 H 0.3654 0.5712 0.2958
C12 C 0.3235(4) 0.7049(2) 0.37024(13)
C13 C -0.1141(3) 0.9074(2) 0.37584(12)
C14 C 0.5098(4) 0.6864(3) 0.41708(15)
H10 H 0.5588 0.7662 0.4341
H11 H 0.6058 0.6467 0.3895
H12 H 0.4842 0.6347 0.4576
Cd1B Cd 0.75071(2) 1.074574(15) 0.509127(8)
Cd1B_2 Cd -0.24929(2) 1.074574(15) 0.509127(8)
O1B O 0.4395(2) 1.07896(15) 0.44814(8)
O3B O 0.0676(2) 1.04695(16) 0.56167(9)
loop_
_geom_bond_atom_site_label_1
_geom_bond_atom_site_label_2
_geom_bond_site_symmetry_1
_geom_bond_site_symmetry_2
Cd1 N1 1_555 1_555
N1 C1 1_555 1_555
N2 Cd1 1_555 1_555
O1 Cd1 1_555 1_555
O2 C6 1_555 1_555
O3 Cd1 1_555 1_555
O4 C13 1_555 1_555
C1 C2 1_555 1_555
C2 H1 1_555 1_555
C3 C2 1_555 1_555
H2 C3 1_555 1_555
C4 C3 1_555 1_555
H3 C4 1_555 1_555
C5 N1 1_555 1_555
C6 O1 1_555 1_555
C7 C5 1_555 1_555
H4 C7 1_555 1_555
H5 C7 1_555 1_555
H6 C7 1_555 1_555
C8 N2 1_555 1_555
C9 C8 1_555 1_555
H7 C9 1_555 1_555
C10 C9 1_555 1_555
H8 C10 1_555 1_555
C11 C10 1_555 1_555
H9 C11 1_555 1_555
C12 N2 1_555 1_555
C13 O3 1_555 1_555
C14 C12 1_555 1_555
H10 C14 1_555 1_555
H11 C14 1_555 1_555
H12 C14 1_555 1_555
Cd1B O1 1_555 1_555
Cd1B_2 O3 1_555 1_555
O1B Cd1 1_555 1_555
O3B Cd1 1_555 1_555
C1 C6 1_555 1_555
C4 C5 1_555 1_555
C8 C13 1_555 1_555
C11 C12 1_555 1_555
Cd1B O1B 1_555 1_555
Cd1B_2 O3B 1_555 1_555

#END
