
#######################################################################
#
#                 Cambridge Crystallographic Data Centre
#                                CCDC 
#
#######################################################################
#
# If this CIF has been generated from an entry in the Cambridge 
# Structural Database, then it will include bibliographic, chemical, 
# crystal, experimental, refinement or atomic coordinate data resulting 
# from the CCDC's data processing and validation procedures.
#
#######################################################################

data_DIKQET01
_symmetry_cell_setting           monoclinic
_symmetry_space_group_name_H-M   'C 2/c'
_symmetry_Int_Tables_number      15
_space_group_name_Hall           '-C 2yn'
loop_
_symmetry_equiv_pos_site_id
_symmetry_equiv_pos_as_xyz
1 x,y,z
2 1/2+x,1/2+y,z
3 -x,y,1/2-z
4 1/2-x,1/2+y,1/2-z
5 -x,-y,-z
6 1/2-x,1/2-y,-z
7 x,-y,1/2+z
8 1/2+x,1/2-y,1/2+z
_cell_length_a                   14.9924(8)
_cell_length_b                   5.03033(21)
_cell_length_c                   12.0984(5)
_cell_angle_alpha                90
_cell_angle_beta                 103.8197(26)
_cell_angle_gamma                90
_cell_volume                     886.009
loop_
_atom_site_label
_atom_site_type_symbol
_atom_site_fract_x
_atom_site_fract_y
_atom_site_fract_z
Zn1 Zn 0.5000 0.0642(7) 0.2500
O1 O 0.5525(6) -0.2129(16) 0.1622(8)
O2 O 0.3948(7) 0.3271(17) 0.2121(8)
C1 C 0.3098(11) 0.5799(29) 0.0467(14)
O3 O 0.4377(7) 0.2618(16) 0.0496(8)
C2 C 0.2406(13) 0.6240(28) 0.1060(11)
C3 C 0.3240(11) 0.6782(31) -0.0569(14)
C4 C 0.3854(11) 0.3704(28) 0.1067(12)
C3E C 0.1760(11) 0.8218(31) 0.0569(14)
C1E C 0.1902(11) 0.9201(29) -0.0467(14)
C2E C 0.2594(13) 0.8760(28) -0.1060(11)
C4E C 0.1146(11) 1.1296(28) -0.1067(12)
O2E O 0.1052(7) 1.1729(17) -0.2121(8)
O3E O 0.0623(7) 1.2382(16) -0.0496(8)
O1B O 0.4475(6) -0.2129(16) 0.3378(8)
O2B O 0.6052(7) 0.3271(17) 0.2879(8)
Zn1G Zn 0.0000 1.4358(7) -0.2500
loop_
_geom_bond_atom_site_label_1
_geom_bond_atom_site_label_2
_geom_bond_site_symmetry_1
_geom_bond_site_symmetry_2
Zn1 O1 1_555 1_555
O2 Zn1 1_555 1_555
C1 C2 1_555 1_555
O3 C4 1_555 1_555
C2 C3E 1_555 1_555
C3 C1 1_555 1_555
C4 O2 1_555 1_555
C3E C1E 1_555 1_555
C1E C2E 1_555 1_555
C2E C3 1_555 1_555
C4E C1E 1_555 1_555
O2E C4E 1_555 1_555
O3E C4E 1_555 1_555
O1B Zn1 1_555 1_555
O2B Zn1 1_555 1_555
Zn1G O2E 1_555 1_555
C1 C4 1_555 1_555

#END
