
#######################################################################
#
#                 Cambridge Crystallographic Data Centre
#                                CCDC 
#
#######################################################################
#
# If this CIF has been generated from an entry in the Cambridge 
# Structural Database, then it will include bibliographic, chemical, 
# crystal, experimental, refinement or atomic coordinate data resulting 
# from the CCDC's data processing and validation procedures.
#
#######################################################################

data_DIKQET03
_symmetry_cell_setting           monoclinic
_symmetry_space_group_name_H-M   'C 2/c'
_symmetry_Int_Tables_number      15
_space_group_name_Hall           '-C 2yn'
loop_
_symmetry_equiv_pos_site_id
_symmetry_equiv_pos_as_xyz
1 x,y,z
2 1/2+x,1/2+y,z
3 -x,y,1/2-z
4 1/2-x,1/2+y,1/2-z
5 -x,-y,-z
6 1/2-x,1/2-y,-z
7 x,-y,1/2+z
8 1/2+x,1/2-y,1/2+z
_cell_length_a                   15.0273(11)
_cell_length_b                   5.0451(4)
_cell_length_c                   12.1253(11)
_cell_angle_alpha                90
_cell_angle_beta                 103.818(5)
_cell_angle_gamma                90
_cell_volume                     892.666
loop_
_atom_site_label
_atom_site_type_symbol
_atom_site_fract_x
_atom_site_fract_y
_atom_site_fract_z
Zn1 Zn 0.0000 0.06528(8) 0.7500
C1 C 0.1134(2) 0.3660(5) 0.8935(3)
C2 C 0.18433(19) 0.5660(5) 0.9499(3)
C3 C 0.1788(2) 0.6852(6) 1.0489(3)
H1 H 0.1306 0.6432 1.0817
C4 C 0.2551(2) 0.6295(6) 0.8980(3)
H2 H 0.2584 0.5508 0.8297
O1 O 0.10454(14) 0.3225(4) 0.7876(2)
O2 O 0.06298(15) 0.2520(4) 0.9474(2)
O3 O -0.05229(19) -0.2104(4) 0.8327(3)
H3 H -0.066(3) -0.207(9) 0.900(2)
H4 H -0.076(3) -0.358(7) 0.798(5)
C4E C 0.2449(2) 0.8705(6) 1.1020(3)
C2E C 0.31567(19) 0.9340(5) 1.0501(3)
C1E C 0.3866(2) 1.1340(5) 1.1065(3)
O1E O 0.39546(14) 1.1775(4) 1.2124(2)
O2E O 0.43702(15) 1.2480(4) 1.0526(2)
C3E C 0.3212(2) 0.8148(6) 0.9511(3)
H1E H 0.3694 0.8568 0.9183
H2E H 0.2416 0.9492 1.1703
O3B O 0.05229(19) -0.2104(4) 0.6673(3)
H3B H 0.066(3) -0.207(9) 0.600(2)
H4B H 0.076(3) -0.358(7) 0.702(5)
O1B O -0.10454(14) 0.3225(4) 0.7124(2)
Zn1G Zn 0.5000 1.43472(8) 1.2500
loop_
_geom_bond_atom_site_label_1
_geom_bond_atom_site_label_2
_geom_bond_site_symmetry_1
_geom_bond_site_symmetry_2
Zn1 O1 1_555 1_555
C1 C2 1_555 1_555
C2 C3 1_555 1_555
C3 H1 1_555 1_555
C4 C2 1_555 1_555
H2 C4 1_555 1_555
O1 C1 1_555 1_555
O2 C1 1_555 1_555
O3 Zn1 1_555 1_555
H3 O3 1_555 1_555
H4 O3 1_555 1_555
C4E C3 1_555 1_555
C2E C4E 1_555 1_555
C1E C2E 1_555 1_555
O1E C1E 1_555 1_555
O2E C1E 1_555 1_555
C3E C4 1_555 1_555
H1E C3E 1_555 1_555
H2E C4E 1_555 1_555
O3B Zn1 1_555 1_555
H3B O3B 1_555 1_555
H4B O3B 1_555 1_555
O1B Zn1 1_555 1_555
Zn1G O1E 1_555 1_555
C2E C3E 1_555 1_555

#END
