
#######################################################################
#
#                 Cambridge Crystallographic Data Centre
#                                CCDC 
#
#######################################################################
#
# If this CIF has been generated from an entry in the Cambridge 
# Structural Database, then it will include bibliographic, chemical, 
# crystal, experimental, refinement or atomic coordinate data resulting 
# from the CCDC's data processing and validation procedures.
#
#######################################################################

data_DIKQIX
_symmetry_cell_setting           monoclinic
_symmetry_space_group_name_H-M   'P 2/n'
_symmetry_Int_Tables_number      13
_space_group_name_Hall           '-P 2yac'
loop_
_symmetry_equiv_pos_site_id
_symmetry_equiv_pos_as_xyz
1 x,y,z
2 1/2+x,-y,1/2+z
3 -x,-y,-z
4 1/2-x,y,1/2-z
_cell_length_a                   5.6508(11)
_cell_length_b                   7.2496(14)
_cell_length_c                   13.179(3)
_cell_angle_alpha                90
_cell_angle_beta                 100.47(3)
_cell_angle_gamma                90
_cell_volume                     530.902
loop_
_atom_site_label
_atom_site_type_symbol
_atom_site_fract_x
_atom_site_fract_y
_atom_site_fract_z
Zn1 Zn 0.2500 0.36231(8) 0.2500
O1 O 0.0123(4) 0.1895(4) 0.17916(19)
O2 O -0.1950(5) 0.4293(4) 0.1017(2)
N1 N 0.1497(6) 0.5668(5) 0.3400(2)
C1 C -0.3392(7) 0.1254(5) 0.0568(3)
C2 C -0.1645(6) 0.2603(5) 0.1166(3)
C3 C 0.1454(7) 0.7410(5) 0.2792(3)
H1 H 0.1586 0.8486 0.3262
H2 H -0.0086 0.7506 0.2298
C4 C -0.5700(6) 0.1817(6) 0.0109(3)
H3 H -0.6186 0.3057 0.0183
C5 C -0.2712(6) -0.0579(5) 0.0454(3)
H4 H -0.1147 -0.0979 0.0765
H5 H 0.256(7) 0.576(5) 0.395(3)
H6 H 0.013(10) 0.548(8) 0.355(4)
C5B C -0.7288(6) 0.0579(5) -0.0454(3)
C1B C -0.6608(7) -0.1254(5) -0.0568(3)
C2B C -0.8355(6) -0.2603(5) -0.1166(3)
O1B O -1.0123(4) -0.1895(4) -0.17916(19)
Zn1B Zn -1.2500 -0.36231(8) -0.2500
O2B O -0.8050(5) -0.4293(4) -0.1017(2)
C4B C -0.4300(6) -0.1817(6) -0.0109(3)
H3B H -0.3814 -0.3057 -0.0183
H4B H -0.8853 0.0979 -0.0765
O1C O 0.4877(4) 0.1895(4) 0.32084(19)
N1C N 0.3503(6) 0.5668(5) 0.1600(2)
C3C C 0.3546(7) 0.7410(5) 0.2208(3)
H1C H 0.3414 0.8486 0.1738
H2C H 0.5086 0.7506 0.2702
H5C H 0.244(7) 0.576(5) 0.105(3)
H6C H 0.487(10) 0.548(8) 0.145(4)
loop_
_geom_bond_atom_site_label_1
_geom_bond_atom_site_label_2
_geom_bond_site_symmetry_1
_geom_bond_site_symmetry_2
Zn1 O1 1_555 1_555
O1 C2 1_555 1_555
O2 C2 1_555 1_555
N1 Zn1 1_555 1_555
C1 C2 1_555 1_555
C3 N1 1_555 1_555
H1 C3 1_555 1_555
H2 C3 1_555 1_555
C4 C1 1_555 1_555
H3 C4 1_555 1_555
C5 C1 1_555 1_555
H4 C5 1_555 1_555
H5 N1 1_555 1_555
H6 N1 1_555 1_555
C5B C4 1_555 1_555
C1B C5B 1_555 1_555
C2B C1B 1_555 1_555
O1B C2B 1_555 1_555
Zn1B O1B 1_555 1_555
O2B C2B 1_555 1_555
C4B C5 1_555 1_555
H3B C4B 1_555 1_555
H4B C5B 1_555 1_555
O1C Zn1 1_555 1_555
N1C Zn1 1_555 1_555
C3C C3 1_555 1_555
H1C C3C 1_555 1_555
H2C C3C 1_555 1_555
H5C N1C 1_555 1_555
H6C N1C 1_555 1_555
C1B C4B 1_555 1_555
N1C C3C 1_555 1_555

#END
