
#######################################################################
#
#                 Cambridge Crystallographic Data Centre
#                                CCDC 
#
#######################################################################
#
# If this CIF has been generated from an entry in the Cambridge 
# Structural Database, then it will include bibliographic, chemical, 
# crystal, experimental, refinement or atomic coordinate data resulting 
# from the CCDC's data processing and validation procedures.
#
#######################################################################

data_DIKQUK
_symmetry_cell_setting           monoclinic
_symmetry_space_group_name_H-M   'P 21/c'
_symmetry_Int_Tables_number      14
_space_group_name_Hall           '-P 2ybc'
loop_
_symmetry_equiv_pos_site_id
_symmetry_equiv_pos_as_xyz
1 x,y,z
2 -x,1/2+y,1/2-z
3 -x,-y,-z
4 x,1/2-y,1/2+z
_cell_length_a                   8.2706(16)
_cell_length_b                   8.3878(16)
_cell_length_c                   30.342(6)
_cell_angle_alpha                90
_cell_angle_beta                 93.542(2)
_cell_angle_gamma                90
_cell_volume                     2100.87
loop_
_atom_site_label
_atom_site_type_symbol
_atom_site_fract_x
_atom_site_fract_y
_atom_site_fract_z
Ba1 Ba -0.076480(17) 0.39968(2) 0.748920(4)
S1 S -0.28054(7) 0.45888(8) 0.313430(19)
O1 O -0.1679(3) 0.5005(2) 0.66410(6)
O2 O -0.3912(2) 0.2895(3) 0.72688(7)
H1 H -0.4298 0.2416 0.7484
H2 H -0.4487 0.3726 0.7234
O3 O -0.1832(2) 0.7063(2) 0.70998(6)
O4 O -0.2821(3) 0.5626(3) 0.80199(7)
H3 H -0.3778 0.5309 0.8050
H4 H -0.2681 0.6625 0.8014
O5 O -0.3938(2) 0.9210(2) 0.68900(6)
H5 H -0.3366 0.8635 0.7053
O6 O 0.0969(2) 0.6219(2) 0.80128(6)
H6 H 0.0765 0.6246 0.8284
H7 H 0.1965 0.5986 0.8041
O7 O -0.1754(3) 0.3224(3) 0.31004(7)
O8 O -0.4470(2) 0.4280(2) 0.29741(6)
O9 O -0.2156(3) 0.6001(3) 0.29246(6)
N1 N -0.3759(3) 0.7384(3) 0.51350(7)
N2 N -0.2800(3) 0.6312(3) 0.50395(8)
C1 C -0.2098(3) 0.6385(3) 0.67206(8)
C2 C -0.2963(3) 0.7360(3) 0.63637(8)
C3 C -0.3863(3) 0.8713(3) 0.64659(8)
C4 C -0.4710(4) 0.9568(4) 0.61356(10)
H8 H -0.5332 1.0472 0.6208
C5 C -0.4644(4) 0.9096(4) 0.56994(10)
H9 H -0.5221 0.9681 0.5472
C6 C -0.3738(4) 0.7770(4) 0.55930(8)
C7 C -0.2921(3) 0.6893(3) 0.59254(8)
H10 H -0.2331 0.5967 0.5852
C8 C -0.2891(4) 0.5913(4) 0.45795(9)
C9 C -0.4188(4) 0.6296(4) 0.42900(9)
H11 H -0.5085 0.6859 0.4394
C10 C -0.4186(4) 0.5863(4) 0.38498(9)
H12 H -0.5083 0.6114 0.3651
C11 C -0.2860(3) 0.5059(3) 0.37020(8)
C12 C -0.1569(4) 0.4667(5) 0.39885(10)
H13 H -0.0667 0.4112 0.3884
C13 C -0.1588(4) 0.5083(5) 0.44291(10)
H14 H -0.0706 0.4798 0.4629
Ba1A Ba 0.076480(17) -0.10032(2) 0.751080(4)
Ba1A_2 Ba 0.076480(17) 0.89968(2) 0.751080(4)
Ba1C Ba -0.076480(17) 0.10032(2) 0.248920(4)
Ba1B Ba 0.076480(17) 0.60032(2) 0.251080(4)
Ba1B_2 Ba 0.076480(17) -0.39968(2) 1.251080(4)
Ba1C_2 Ba -0.076480(17) 0.10032(2) 1.248920(4)
S1A S 0.28054(7) -0.04112(8) 1.186570(19)
O1A O 0.1679(3) 0.0005(2) 0.83590(6)
O2A O 0.3912(2) -0.2105(3) 0.77312(7)
H1A H 0.4298 -0.2584 0.7516
H2A H 0.4487 -0.1274 0.7766
O3A O 0.1832(2) 0.2063(2) 0.79002(6)
O3_2 O -0.1832(2) -0.2937(2) 0.70998(6)
O4A O 0.2821(3) 0.0626(3) 0.69801(7)
H3A H 0.3778 0.0309 0.6950
H4A H 0.2681 0.1625 0.6986
O5A O 0.3938(2) 0.4210(2) 0.81100(6)
H5A H 0.3366 0.3635 0.7947
O6A O -0.0969(2) 0.1219(2) 0.69872(6)
O6_2 O 0.0969(2) -0.3781(2) 0.80128(6)
H6A H -0.0765 0.1246 0.6716
H6_2 H 0.0765 -0.3754 0.8284
H7A H -0.1965 0.0986 0.6959
H7_2 H 0.1965 -0.4014 0.8041
O7A O 0.1754(3) -0.1776(3) 1.18996(7)
O7C O -0.1754(3) 0.1776(3) 0.81004(7)
O7B O 0.1754(3) -0.3224(3) 0.68996(7)
O8A O 0.4470(2) -0.0720(2) 1.20259(6)
O9A O 0.2156(3) 0.1001(3) 1.20754(6)
O9B O 0.2156(3) 0.3999(3) 0.70754(6)
O9C O -0.2156(3) -0.1001(3) 0.79246(6)
N1A N 0.3759(3) 0.2384(3) 0.98650(7)
N2A N 0.2800(3) 0.1312(3) 0.99605(8)
C1A C 0.2098(3) 0.1385(3) 0.82794(8)
C2A C 0.2963(3) 0.2360(3) 0.86363(8)
C3A C 0.3863(3) 0.3713(3) 0.85341(8)
C4A C 0.4710(4) 0.4568(4) 0.88644(10)
H8A H 0.5332 0.5472 0.8792
C5A C 0.4644(4) 0.4096(4) 0.93006(10)
H9A H 0.5221 0.4681 0.9528
C6A C 0.3738(4) 0.2770(4) 0.94070(8)
C7A C 0.2921(3) 0.1893(3) 0.90746(8)
H10A H 0.2331 0.0967 0.9148
C8A C 0.2891(4) 0.0913(4) 1.04205(9)
C9A C 0.4188(4) 0.1296(4) 1.07100(9)
H11A H 0.5085 0.1859 1.0606
C10A C 0.4186(4) 0.0863(4) 1.11502(9)
H12A H 0.5083 0.1114 1.1349
C11A C 0.2860(3) 0.0059(3) 1.12980(8)
C12A C 0.1569(4) -0.0333(5) 1.10115(10)
H13A H 0.0667 -0.0888 1.1116
C13A C 0.1588(4) 0.0083(5) 1.05709(10)
H14A H 0.0706 -0.0202 1.0371
N3 N 0.0237(4) 0.6017(4) 0.88700(9)
C14 C 0.1093(6) 0.6769(6) 0.91837(13)
H15 H 0.1791 0.7601 0.9100
C15 C 0.1043(6) 0.6425(6) 0.96302(13)
H16 H 0.1690 0.7013 0.9843
C16 C 0.0046(4) 0.5221(4) 0.97626(9)
C17 C -0.0848(5) 0.4443(6) 0.94332(12)
H17 H -0.1560 0.3608 0.9506
C18 C -0.0720(6) 0.4867(6) 0.89973(12)
H18 H -0.1354 0.4302 0.8777
N3B N -0.0237(4) 0.3983(4) 1.11300(9)
C14B C -0.1093(6) 0.3231(6) 1.08163(13)
H15B H -0.1791 0.2399 1.0900
C15B C -0.1043(6) 0.3575(6) 1.03698(13)
H16B H -0.1690 0.2987 1.0157
C16B C -0.0046(4) 0.4779(4) 1.02374(9)
C17B C 0.0848(5) 0.5557(6) 1.05668(12)
H17B H 0.1560 0.6392 1.0494
C18B C 0.0720(6) 0.5133(6) 1.10027(12)
H18B H 0.1354 0.5698 1.1223
loop_
_geom_bond_atom_site_label_1
_geom_bond_atom_site_label_2
_geom_bond_site_symmetry_1
_geom_bond_site_symmetry_2
Ba1 O1 1_555 1_555
S1 O7 1_555 1_555
O1 C1 1_555 1_555
O2 Ba1 1_555 1_555
H1 O2 1_555 1_555
H2 O2 1_555 1_555
O3 Ba1 1_555 1_555
O4 Ba1 1_555 1_555
H3 O4 1_555 1_555
H4 O4 1_555 1_555
O5 H5 1_555 1_555
O6 Ba1 1_555 1_555
H6 O6 1_555 1_555
H7 O6 1_555 1_555
O7 Ba1C 1_555 1_555
O8 S1 1_555 1_555
O9 S1 1_555 1_555
N1 N2 1_555 1_555
N2 C8 1_555 1_555
N3 C14 1_555 1_555
C1 O3 1_555 1_555
C2 C1 1_555 1_555
C3 O5 1_555 1_555
C4 C3 1_555 1_555
H8 C4 1_555 1_555
C5 C4 1_555 1_555
H9 C5 1_555 1_555
C6 N1 1_555 1_555
C7 C2 1_555 1_555
H10 C7 1_555 1_555
C8 C9 1_555 1_555
C9 H11 1_555 1_555
C10 C9 1_555 1_555
H12 C10 1_555 1_555
C11 S1 1_555 1_555
C12 C11 1_555 1_555
H13 C12 1_555 1_555
C13 C8 1_555 1_555
H14 C13 1_555 1_555
C14 H15 1_555 1_555
C15 C14 1_555 1_555
H16 C15 1_555 1_555
C16 C15 1_555 1_555
C17 C16 1_555 1_555
H17 C17 1_555 1_555
C18 N3 1_555 1_555
H18 C18 1_555 1_555
Ba1A O1A 1_555 1_555
Ba1A_2 O3 1_555 1_555
Ba1B O9 1_555 1_555
Ba1B_2 O7A 1_555 1_555
Ba1C_2 O9A 1_555 1_555
S1A O7A 1_555 1_555
O1A C1A 1_555 1_555
O2A Ba1A 1_555 1_555
H1A O2A 1_555 1_555
H2A O2A 1_555 1_555
O3A Ba1 1_555 1_555
O3_2 Ba1A 1_555 1_555
O4A Ba1A 1_555 1_555
H3A O4A 1_555 1_555
H4A O4A 1_555 1_555
O5A H5A 1_555 1_555
O6A Ba1 1_555 1_555
O6_2 Ba1A 1_555 1_555
H6A O6A 1_555 1_555
H6_2 O6_2 1_555 1_555
H7A O6A 1_555 1_555
H7_2 O6_2 1_555 1_555
O7C Ba1 1_555 1_555
O7B Ba1A 1_555 1_555
O8A S1A 1_555 1_555
O9A S1A 1_555 1_555
O9B Ba1 1_555 1_555
O9C Ba1A 1_555 1_555
N1A N2A 1_555 1_555
N2A C8A 1_555 1_555
N3B C14B 1_555 1_555
C1A O3A 1_555 1_555
C2A C1A 1_555 1_555
C3A O5A 1_555 1_555
C4A C3A 1_555 1_555
H8A C4A 1_555 1_555
C5A C4A 1_555 1_555
H9A C5A 1_555 1_555
C6A N1A 1_555 1_555
C7A C2A 1_555 1_555
H10A C7A 1_555 1_555
C8A C9A 1_555 1_555
C9A H11A 1_555 1_555
C10A C9A 1_555 1_555
H12A C10A 1_555 1_555
C11A S1A 1_555 1_555
C12A C11A 1_555 1_555
H13A C12A 1_555 1_555
C13A C8A 1_555 1_555
H14A C13A 1_555 1_555
C14B H15B 1_555 1_555
C15B C14B 1_555 1_555
H16B C15B 1_555 1_555
C16B C16 1_555 1_555
C17B C16B 1_555 1_555
H17B C17B 1_555 1_555
C18B N3B 1_555 1_555
H18B C18B 1_555 1_555
O6 Ba1A_2 1_555 1_555
C2 C3 1_555 1_555
C5 C6 1_555 1_555
C6 C7 1_555 1_555
C10 C11 1_555 1_555
C12 C13 1_555 1_555
C17 C18 1_555 1_555
Ba1A O3A 1_555 1_555
Ba1A O6A 1_555 1_555
C2A C3A 1_555 1_555
C5A C6A 1_555 1_555
C6A C7A 1_555 1_555
C10A C11A 1_555 1_555
C12A C13A 1_555 1_555
C15B C16B 1_555 1_555
C17B C18B 1_555 1_555

#END
