
#######################################################################
#
#                 Cambridge Crystallographic Data Centre
#                                CCDC 
#
#######################################################################
#
# If this CIF has been generated from an entry in the Cambridge 
# Structural Database, then it will include bibliographic, chemical, 
# crystal, experimental, refinement or atomic coordinate data resulting 
# from the CCDC's data processing and validation procedures.
#
#######################################################################

data_DIKQET
_symmetry_cell_setting           monoclinic
_symmetry_space_group_name_H-M   'C 2/c'
_symmetry_Int_Tables_number      15
_space_group_name_Hall           '-C 2yn'
loop_
_symmetry_equiv_pos_site_id
_symmetry_equiv_pos_as_xyz
1 x,y,z
2 1/2+x,1/2+y,z
3 -x,y,1/2-z
4 1/2-x,1/2+y,1/2-z
5 -x,-y,-z
6 1/2-x,1/2-y,-z
7 x,-y,1/2+z
8 1/2+x,1/2-y,1/2+z
_cell_length_a                   14.9503(8)
_cell_length_b                   5.0031(4)
_cell_length_c                   12.1617(11)
_cell_angle_alpha                90
_cell_angle_beta                 103.647(6)
_cell_angle_gamma                90
_cell_volume                     883.987
loop_
_atom_site_label
_atom_site_type_symbol
_atom_site_fract_x
_atom_site_fract_y
_atom_site_fract_z
Zn1 Zn 0.0000 0.05651(6) 0.7500
O1 O 0.10545(11) 0.3143(3) 0.78826(13)
O2 O 0.06036(11) 0.2518(3) 0.94726(13)
O3 O -0.05296(13) -0.2193(3) 0.83351(17)
H1 H -0.060(2) -0.216(7) 0.893(3)
H2 H -0.071(3) -0.341(9) 0.802(3)
C1 C 0.11210(15) 0.3646(4) 0.89416(18)
C2 C 0.18346(16) 0.5644(4) 0.9490(2)
C3 C 0.25782(15) 0.6209(5) 0.90076(18)
H3 H 0.2629 0.5334 0.8332
C4 C 0.17583(15) 0.6944(4) 1.04777(19)
H4 H 0.1252 0.6568 1.0800
C4E C 0.32417(15) 0.8056(4) 0.95223(19)
C2E C 0.31654(16) 0.9356(4) 1.0510(2)
C1E C 0.38790(15) 1.1354(4) 1.10584(18)
O1E O 0.39455(11) 1.1857(3) 1.21174(13)
Zn1E Zn 0.5000 1.44349(6) 1.2500
O2E O 0.43964(11) 1.2482(3) 1.05274(13)
C3E C 0.24218(15) 0.8791(5) 1.09924(18)
H3E H 0.2371 0.9666 1.1668
H4E H 0.3748 0.8432 0.9200
O1B O -0.10545(11) 0.3143(3) 0.71174(13)
O3B O 0.05296(13) -0.2193(3) 0.66649(17)
H1B H 0.060(2) -0.216(7) 0.607(3)
H2B H 0.071(3) -0.341(9) 0.698(3)
loop_
_geom_bond_atom_site_label_1
_geom_bond_atom_site_label_2
_geom_bond_site_symmetry_1
_geom_bond_site_symmetry_2
Zn1 O1 1_555 1_555
O1 C1 1_555 1_555
O2 C1 1_555 1_555
O3 Zn1 1_555 1_555
H1 O3 1_555 1_555
H2 O3 1_555 1_555
C1 C2 1_555 1_555
C2 C3 1_555 1_555
C3 H3 1_555 1_555
C4 C2 1_555 1_555
H4 C4 1_555 1_555
C4E C3 1_555 1_555
C2E C4E 1_555 1_555
C1E C2E 1_555 1_555
O1E C1E 1_555 1_555
Zn1E O1E 1_555 1_555
O2E C1E 1_555 1_555
C3E C4 1_555 1_555
H3E C3E 1_555 1_555
H4E C4E 1_555 1_555
O1B Zn1 1_555 1_555
O3B Zn1 1_555 1_555
H1B O3B 1_555 1_555
H2B O3B 1_555 1_555
C2E C3E 1_555 1_555

#END
