
#######################################################################
#
#                 Cambridge Crystallographic Data Centre
#                                CCDC 
#
#######################################################################
#
# If this CIF has been generated from an entry in the Cambridge 
# Structural Database, then it will include bibliographic, chemical, 
# crystal, experimental, refinement or atomic coordinate data resulting 
# from the CCDC's data processing and validation procedures.
#
#######################################################################

data_DIKQEU
_symmetry_cell_setting           monoclinic
_symmetry_space_group_name_H-M   'P 21/n'
_symmetry_Int_Tables_number      14
_space_group_name_Hall           '-P 2yn'
loop_
_symmetry_equiv_pos_site_id
_symmetry_equiv_pos_as_xyz
1 x,y,z
2 1/2-x,1/2+y,1/2-z
3 -x,-y,-z
4 1/2+x,1/2-y,1/2+z
_cell_length_a                   10.6087(16)
_cell_length_b                   9.4342(10)
_cell_length_c                   11.1367(19)
_cell_angle_alpha                90
_cell_angle_beta                 118.000(6)
_cell_angle_gamma                90
_cell_volume                     984.144
loop_
_atom_site_label
_atom_site_type_symbol
_atom_site_fract_x
_atom_site_fract_y
_atom_site_fract_z
Zn1 Zn 0.65364(4) 0.31488(4) 0.60597(4)
N1 N 0.7853(3) 0.1528(3) 0.6138(3)
H1 H 0.8548 0.1442 0.7002
H2 H 0.7345 0.0718 0.5918
N2 N 0.4198(3) 0.1554(3) 0.4055(3)
C1 C 1.0579(3) 0.2065(3) 0.2796(3)
C2 C 0.9809(3) 0.1954(3) 0.3620(3)
C3 C 1.0246(4) 0.2765(4) 0.4775(4)
H3 H 1.0980 0.3416 0.5001
C4 C 0.9610(4) 0.2626(4) 0.5607(4)
H4 H 0.9922 0.3174 0.6389
C5 C 0.8513(3) 0.1673(3) 0.5268(3)
C6 C 0.8038(4) 0.0875(4) 0.4093(4)
H5 H 0.7276 0.0253 0.3848
C7 C 0.8698(4) 0.1003(3) 0.3285(3)
H6 H 0.8394 0.0447 0.2508
O1 O 1.1493(2) 0.2996(2) 0.3035(2)
O2 O 1.0290(2) 0.1165(2) 0.1837(2)
O3 O 0.6962(3) 0.4876(2) 0.5259(3)
H7 H 0.752(6) 0.549(5) 0.580(5)
H8 H 0.626(4) 0.524(4) 0.460(4)
O4 O 0.4943(2) 0.2617(2) 0.4067(2)
O5 O 0.3488(3) 0.0910(2) 0.2962(2)
O6 O 0.4198(3) 0.1176(3) 0.5109(3)
Zn1C Zn 1.15364(4) 0.18512(4) 0.10597(4)
Zn1C_2 Zn 0.15364(4) 0.18512(4) 0.10597(4)
O1C O 0.6493(2) 0.2004(2) 0.8035(2)
O2C O 0.5290(2) 0.3835(2) 0.6837(2)
O5C O 0.8488(3) 0.4090(2) 0.7962(2)
loop_
_geom_bond_atom_site_label_1
_geom_bond_atom_site_label_2
_geom_bond_site_symmetry_1
_geom_bond_site_symmetry_2
Zn1 N1 1_555 1_555
N1 H1 1_555 1_555
H2 N1 1_555 1_555
N2 O4 1_555 1_555
C1 C2 1_555 1_555
C2 C3 1_555 1_555
C3 H3 1_555 1_555
C4 C3 1_555 1_555
H4 C4 1_555 1_555
C5 N1 1_555 1_555
C6 C5 1_555 1_555
H5 C6 1_555 1_555
C7 C2 1_555 1_555
H6 C7 1_555 1_555
O1 C1 1_555 1_555
O2 C1 1_555 1_555
O3 Zn1 1_555 1_555
H7 O3 1_555 1_555
H8 O3 1_555 1_555
O4 Zn1 1_555 1_555
O5 N2 1_555 1_555
O6 N2 1_555 1_555
Zn1C O1 1_555 1_555
Zn1C_2 O5 1_555 1_555
O1C Zn1 1_555 1_555
O2C Zn1 1_555 1_555
O5C Zn1 1_555 1_555
C4 C5 1_555 1_555
C6 C7 1_555 1_555
O2 Zn1C 1_555 1_555

#END
