
#######################################################################
#
#                 Cambridge Crystallographic Data Centre
#                                CCDC 
#
#######################################################################
#
# If this CIF has been generated from an entry in the Cambridge 
# Structural Database, then it will include bibliographic, chemical, 
# crystal, experimental, refinement or atomic coordinate data resulting 
# from the CCDC's data processing and validation procedures.
#
#######################################################################

data_DIKRAR
_symmetry_cell_setting           triclinic
_symmetry_space_group_name_H-M   'P -1'
_symmetry_Int_Tables_number      2
_space_group_name_Hall           '-P 1'
loop_
_symmetry_equiv_pos_site_id
_symmetry_equiv_pos_as_xyz
1 x,y,z
2 -x,-y,-z
_cell_length_a                   8.9547(13)
_cell_length_b                   10.6215(15)
_cell_length_c                   11.3899(16)
_cell_angle_alpha                80.393(5)
_cell_angle_beta                 86.408(3)
_cell_angle_gamma                80.138(2)
_cell_volume                     1051.7
loop_
_atom_site_label
_atom_site_type_symbol
_atom_site_fract_x
_atom_site_fract_y
_atom_site_fract_z
Cu1 Cu 0.44343(4) -0.07274(4) 0.39760(3)
O1 O 0.3492(3) -0.0224(2) 0.54311(19)
O2 O 0.6357(3) 0.2253(3) -0.2139(2)
O3 O 0.4509(3) 0.1227(2) -0.2554(2)
N1 N 0.5252(3) -0.2498(3) 0.4904(2)
N2 N 0.3216(3) 0.0842(3) 0.3017(2)
C1 C 0.4470(5) -0.3025(4) 0.5862(3)
H1 H 0.3554 -0.2563 0.6097
C2 C 0.4982(6) -0.4213(4) 0.6493(4)
H2 H 0.4411 -0.4556 0.7141
C3 C 0.6347(7) -0.4902(4) 0.6169(4)
H3 H 0.6718 -0.5706 0.6602
C4 C 0.7147(6) -0.4386(4) 0.5201(4)
H4 H 0.8067 -0.4837 0.4958
C5 C 0.6567(5) -0.3180(4) 0.4589(3)
H5 H 0.7116 -0.2831 0.3930
C6 C 0.2127(4) 0.0440(3) 0.5565(3)
C7 C 0.1424(4) 0.0393(4) 0.6711(3)
H6 H 0.1922 -0.0119 0.7361
C8 C 0.0004(4) 0.1100(4) 0.6879(3)
H7 H -0.0434 0.1052 0.7644
C9 C -0.0780(4) 0.1868(4) 0.5956(4)
H8 H -0.1743 0.2322 0.6086
C10 C -0.0110(4) 0.1953(4) 0.4828(3)
H9 H -0.0620 0.2492 0.4199
C11 C 0.1329(4) 0.1242(3) 0.4608(3)
C12 C 0.1946(4) 0.1429(3) 0.3404(3)
H10 H 0.1371 0.2032 0.2851
C13 C 0.3612(4) 0.1199(3) 0.1776(3)
C14 C 0.4978(4) 0.1656(3) 0.1470(3)
H11 H 0.5584 0.1783 0.2060
C15 C 0.5421(4) 0.1916(3) 0.0288(3)
H12 H 0.6314 0.2249 0.0082
C16 C 0.4554(4) 0.1690(3) -0.0602(3)
C17 C 0.3184(4) 0.1262(3) -0.0285(3)
H13 H 0.2578 0.1129 -0.0872
C18 C 0.2712(4) 0.1032(3) 0.0902(3)
H14 H 0.1782 0.0762 0.1106
C19 C 0.5200(4) 0.1763(3) -0.1867(3)
Cu1A Cu 0.55657(4) 0.07274(4) 0.60240(3)
Cu1A_2 Cu 0.55657(4) 0.07274(4) -0.39760(3)
O1A O 0.6508(3) 0.0224(2) 0.45689(19)
O3A O 0.5491(3) -0.1227(2) 0.2554(2)
O4 O -0.1534(10) 0.3646(9) 0.1886(7)
N3 N -0.1575(6) 0.4098(6) -0.0063(5)
C20 C -0.0747(14) 0.3537(14) -0.1090(10)
H15 H -0.1114 0.4045 -0.1825
H16 H -0.0917 0.2663 -0.1053
H17 H 0.0319 0.3544 -0.1051
C21 C -0.2667(13) 0.5097(11) -0.0481(8)
H18 H -0.3199 0.5456 0.0177
H19 H -0.3367 0.4790 -0.0926
H20 H -0.2208 0.5752 -0.0988
C22 C -0.1006(17) 0.3341(15) 0.1051(13)
H21 H -0.0234 0.2633 0.1062
loop_
_geom_bond_atom_site_label_1
_geom_bond_atom_site_label_2
_geom_bond_site_symmetry_1
_geom_bond_site_symmetry_2
Cu1 O1 1_555 1_555
O1 C6 1_555 1_555
O2 C19 1_555 1_555
O3 C19 1_555 1_555
O4 C22 1_555 1_555
N1 Cu1 1_555 1_555
N2 Cu1 1_555 1_555
N3 C20 1_555 1_555
C1 N1 1_555 1_555
H1 C1 1_555 1_555
C2 C1 1_555 1_555
H2 C2 1_555 1_555
C3 C2 1_555 1_555
H3 C3 1_555 1_555
C4 C3 1_555 1_555
H4 C4 1_555 1_555
C5 N1 1_555 1_555
H5 C5 1_555 1_555
C6 C7 1_555 1_555
C7 H6 1_555 1_555
C8 C7 1_555 1_555
H7 C8 1_555 1_555
C9 C8 1_555 1_555
H8 C9 1_555 1_555
C10 C9 1_555 1_555
H9 C10 1_555 1_555
C11 C6 1_555 1_555
C12 N2 1_555 1_555
H10 C12 1_555 1_555
C13 N2 1_555 1_555
C14 C13 1_555 1_555
H11 C14 1_555 1_555
C15 C14 1_555 1_555
H12 C15 1_555 1_555
C16 C15 1_555 1_555
C17 C16 1_555 1_555
H13 C17 1_555 1_555
C18 C13 1_555 1_555
H14 C18 1_555 1_555
C19 C16 1_555 1_555
C20 H15 1_555 1_555
H16 C20 1_555 1_555
H17 C20 1_555 1_555
C21 N3 1_555 1_555
H18 C21 1_555 1_555
H19 C21 1_555 1_555
H20 C21 1_555 1_555
C22 N3 1_555 1_555
H21 C22 1_555 1_555
Cu1A O1 1_555 1_555
Cu1A_2 O3 1_555 1_555
O1A Cu1 1_555 1_555
O3A Cu1 1_555 1_555
C4 C5 1_555 1_555
C10 C11 1_555 1_555
C11 C12 1_555 1_555
C17 C18 1_555 1_555
Cu1A O1A 1_555 1_555

#END
