
#######################################################################
#
#                 Cambridge Crystallographic Data Centre
#                                CCDC 
#
#######################################################################
#
# If this CIF has been generated from an entry in the Cambridge 
# Structural Database, then it will include bibliographic, chemical, 
# crystal, experimental, refinement or atomic coordinate data resulting 
# from the CCDC's data processing and validation procedures.
#
#######################################################################

data_DIKXIF
_symmetry_cell_setting           monoclinic
_symmetry_space_group_name_H-M   'P 21/n'
_symmetry_Int_Tables_number      14
_space_group_name_Hall           '-P 2yn'
loop_
_symmetry_equiv_pos_site_id
_symmetry_equiv_pos_as_xyz
1 x,y,z
2 1/2-x,1/2+y,1/2-z
3 -x,-y,-z
4 1/2+x,1/2-y,1/2+z
_cell_length_a                   8.9243(9)
_cell_length_b                   9.9867(9)
_cell_length_c                   10.4339(10)
_cell_angle_alpha                90
_cell_angle_beta                 99.667(2)
_cell_angle_gamma                90
_cell_volume                     916.71
loop_
_atom_site_label
_atom_site_type_symbol
_atom_site_fract_x
_atom_site_fract_y
_atom_site_fract_z
Cu1 Cu 0.5000 0.5000 0.5000
Cl1 Cl 0.57709(10) 0.70107(9) 0.44428(9)
S1 S 0.20657(10) 0.64387(9) 0.57216(8)
N1 N 0.3033(3) 0.5254(2) 0.3782(3)
N2 N 0.0592(3) 0.6232(3) 0.3285(2)
C1 C 0.2880(4) 0.4759(3) 0.2575(3)
H1 H 0.3661 0.4249 0.2338
C2 C 0.1601(4) 0.4987(4) 0.1686(3)
H2 H 0.1487 0.4636 0.0849
C3 C 0.0499(4) 0.5753(4) 0.2079(3)
H3 H -0.0363 0.5953 0.1477
C4 C 0.1860(3) 0.5945(3) 0.4089(3)
C5 C 0.0246(4) 0.7224(3) 0.5817(3)
H4 H -0.0553 0.6716 0.5286
H5 H 0.0072 0.7180 0.6709
C6 C 0.0134(3) 0.8652(3) 0.5382(3)
C7 C -0.0903(3) 0.9039(3) 0.4302(3)
H6 H -0.1515 0.8397 0.3826
C8 C 0.1037(3) 0.9629(3) 0.6077(3)
H7 H 0.1739 0.9388 0.6803
Cu1_2 Cu -0.5000 1.5000 0.5000
Cl1B Cl 0.42291(10) 0.29893(9) 0.55572(9)
S1B S -0.20657(10) 1.35613(9) 0.42784(8)
N1B N -0.3033(3) 1.4746(2) 0.6218(3)
N1B_2 N 0.6967(3) 0.4746(2) 0.6218(3)
N2B N -0.0592(3) 1.3768(3) 0.6715(2)
C1B C -0.2880(4) 1.5241(3) 0.7425(3)
H1B H -0.3661 1.5751 0.7662
C2B C -0.1601(4) 1.5013(4) 0.8314(3)
H2B H -0.1487 1.5364 0.9151
C3B C -0.0499(4) 1.4247(4) 0.7921(3)
H3B H 0.0363 1.4047 0.8523
C4B C -0.1860(3) 1.4055(3) 0.5911(3)
C5B C -0.0246(4) 1.2776(3) 0.4183(3)
H4B H 0.0553 1.3284 0.4714
H5B H -0.0072 1.2820 0.3291
C6B C -0.0134(3) 1.1348(3) 0.4618(3)
C7B C 0.0903(3) 1.0961(3) 0.5698(3)
H6B H 0.1515 1.1603 0.6174
C8B C -0.1037(3) 1.0371(3) 0.3923(3)
H7B H -0.1739 1.0612 0.3197
loop_
_geom_bond_atom_site_label_1
_geom_bond_atom_site_label_2
_geom_bond_site_symmetry_1
_geom_bond_site_symmetry_2
Cu1 Cl1 1_555 1_555
S1 C4 1_555 1_555
N1 Cu1 1_555 1_555
N2 C3 1_555 1_555
C1 N1 1_555 1_555
H1 C1 1_555 1_555
C2 C1 1_555 1_555
H2 C2 1_555 1_555
C3 C2 1_555 1_555
H3 C3 1_555 1_555
C4 N1 1_555 1_555
C5 S1 1_555 1_555
H4 C5 1_555 1_555
H5 C5 1_555 1_555
C6 C5 1_555 1_555
C7 C6 1_555 1_555
H6 C7 1_555 1_555
C8 C6 1_555 1_555
H7 C8 1_555 1_555
Cu1_2 N1B 1_555 1_555
Cl1B Cu1 1_555 1_555
S1B C4B 1_555 1_555
N1B C1B 1_555 1_555
N1B_2 Cu1 1_555 1_555
N2B C3B 1_555 1_555
C1B H1B 1_555 1_555
C2B C1B 1_555 1_555
H2B C2B 1_555 1_555
C3B C2B 1_555 1_555
H3B C3B 1_555 1_555
C4B N1B 1_555 1_555
C5B S1B 1_555 1_555
H4B C5B 1_555 1_555
H5B C5B 1_555 1_555
C6B C5B 1_555 1_555
C7B C8 1_555 1_555
H6B C7B 1_555 1_555
C8B C7 1_555 1_555
H7B C8B 1_555 1_555
N2 C4 1_555 1_555
N2B C4B 1_555 1_555
C6B C7B 1_555 1_555
C6B C8B 1_555 1_555

#END
