
#######################################################################
#
#                 Cambridge Crystallographic Data Centre
#                                CCDC 
#
#######################################################################
#
# If this CIF has been generated from an entry in the Cambridge 
# Structural Database, then it will include bibliographic, chemical, 
# crystal, experimental, refinement or atomic coordinate data resulting 
# from the CCDC's data processing and validation procedures.
#
#######################################################################

data_DIKYOM
_symmetry_cell_setting           monoclinic
_symmetry_space_group_name_H-M   'P 21/n'
_symmetry_Int_Tables_number      14
_space_group_name_Hall           '-P 2yn'
loop_
_symmetry_equiv_pos_site_id
_symmetry_equiv_pos_as_xyz
1 x,y,z
2 1/2-x,1/2+y,1/2-z
3 -x,-y,-z
4 1/2+x,1/2-y,1/2+z
_cell_length_a                   10.1128(2)
_cell_length_b                   17.4753(3)
_cell_length_c                   10.5053(2)
_cell_angle_alpha                90
_cell_angle_beta                 102.5990(10)
_cell_angle_gamma                90
_cell_volume                     1811.84
loop_
_atom_site_label
_atom_site_type_symbol
_atom_site_fract_x
_atom_site_fract_y
_atom_site_fract_z
Ag1 Ag 0.61713(3) 1.022971(14) 0.25471(3)
P1 P 0.50042(7) 0.96768(4) 0.40910(7)
S1 S 0.57444(9) 0.87763(4) 0.03092(8)
C1 C 0.3200(3) 0.95576(16) 0.3394(3)
C2 C 0.2762(4) 0.9755(2) 0.2101(4)
H1 H 0.3393 0.9941 0.1624
C3 C 0.5731(3) 0.87625(16) 0.4756(3)
C4 C 0.6818(4) 0.8485(2) 0.4273(4)
H2 H 0.7138 0.8765 0.3627
C5 C 0.5306(4) 0.83521(19) 0.5713(4)
H3 H 0.4571 0.8535 0.6057
C6 C 0.6990(4) 0.7402(2) 0.5701(5)
H4 H 0.7425 0.6938 0.6028
C7 C 0.5950(4) 0.7669(2) 0.6178(4)
H5 H 0.5649 0.7390 0.6838
C8 C 0.2260(4) 0.9294(3) 0.4062(4)
H6 H 0.2548 0.9145 0.4949
C9 C 0.6961(5) 0.8024(3) 0.0321(4)
C10 C 0.1401(5) 0.9684(3) 0.1490(5)
H7 H 0.1112 0.9812 0.0593
C11 C 0.0889(4) 0.9245(3) 0.3452(5)
H8 H 0.0245 0.9081 0.3932
C12 C 0.7430(4) 0.7802(3) 0.4734(5)
H9 H 0.8154 0.7607 0.4387
C13 C 0.0478(4) 0.9433(2) 0.2168(5)
H10 H -0.0450 0.9388 0.1745
F1 F 0.7758(4) 0.8166(3) -0.0462(4)
F2 F 0.6357(4) 0.73743(16) -0.0037(4)
F3 F 0.7723(3) 0.7912(2) 0.1497(3)
O1 O 0.4961(3) 0.85106(17) 0.1200(3)
O2 O 0.6587(3) 0.94232(16) 0.0761(3)
N1 N 0.8058(3) 1.0888(2) 0.2480(4)
C14 C 0.8980(4) 1.1225(2) 0.2413(4)
O3 O 0.5061(4) 0.88004(19) -0.1030(3)
C15 C 1.0188(5) 1.1660(3) 0.2352(6)
H11 H 1.0059 1.2196 0.2572
H12 H 1.0353 1.1630 0.1468
H13 H 1.0966 1.1447 0.2974
Ag1B Ag 0.38287(3) 0.977029(14) 0.74529(3)
Ag1B_2 Ag 0.38287(3) 0.977029(14) -0.25471(3)
P1B P 0.49958(7) 1.03232(4) 0.59090(7)
S1B S 0.42556(9) 1.12237(4) -0.03092(8)
C1B C 0.6800(3) 1.04424(16) 0.6606(3)
C2B C 0.7238(4) 1.0245(2) 0.7899(4)
H1B H 0.6607 1.0059 0.8376
C3B C 0.4269(3) 1.12375(16) 0.5244(3)
C4B C 0.3182(4) 1.1515(2) 0.5727(4)
H2B H 0.2862 1.1235 0.6373
C5B C 0.4694(4) 1.16479(19) 0.4287(4)
H3B H 0.5429 1.1465 0.3943
C6B C 0.3010(4) 1.2598(2) 0.4299(5)
H4B H 0.2575 1.3062 0.3972
C7B C 0.4050(4) 1.2331(2) 0.3822(4)
H5B H 0.4351 1.2610 0.3162
C8B C 0.7740(4) 1.0706(3) 0.5938(4)
H6B H 0.7452 1.0855 0.5051
C9B C 0.3039(5) 1.1976(3) -0.0321(4)
C10B C 0.8599(5) 1.0316(3) 0.8510(5)
H7B H 0.8888 1.0188 0.9407
C11B C 0.9111(4) 1.0755(3) 0.6548(5)
H8B H 0.9755 1.0919 0.6068
C12B C 0.2570(4) 1.2198(3) 0.5266(5)
H9B H 0.1846 1.2393 0.5613
C13B C 0.9522(4) 1.0567(2) 0.7832(5)
H10B H 1.0450 1.0612 0.8255
F1B F 0.2242(4) 1.1834(3) 0.0462(4)
F2B F 0.3643(4) 1.26257(16) 0.0037(4)
F3B F 0.2277(3) 1.2088(2) -0.1497(3)
O1B O 0.5039(3) 1.14894(17) -0.1200(3)
O2B O 0.3413(3) 1.05768(16) -0.0761(3)
O2B_2 O 0.3413(3) 1.05768(16) 0.9239(3)
N1B N 0.1942(3) 0.9112(2) 0.7520(4)
C14B C 0.1020(4) 0.8775(2) 0.7587(4)
O3B O 0.4939(4) 1.11996(19) 0.1030(3)
O3_2 O 0.5061(4) 0.88004(19) 0.8970(3)
C15B C -0.0188(5) 0.8340(3) 0.7648(6)
H11B H -0.0059 0.7804 0.7428
H12B H -0.0353 0.8370 0.8532
H13B H -0.0966 0.8553 0.7026
loop_
_geom_bond_atom_site_label_1
_geom_bond_atom_site_label_2
_geom_bond_site_symmetry_1
_geom_bond_site_symmetry_2
Ag1 P1 1_555 1_555
P1 C1 1_555 1_555
S1 C9 1_555 1_555
C1 C2 1_555 1_555
C2 H1 1_555 1_555
C3 P1 1_555 1_555
C4 C3 1_555 1_555
H2 C4 1_555 1_555
C5 C3 1_555 1_555
H3 C5 1_555 1_555
C6 H4 1_555 1_555
C7 C5 1_555 1_555
H5 C7 1_555 1_555
C8 C1 1_555 1_555
H6 C8 1_555 1_555
C9 F1 1_555 1_555
C10 C2 1_555 1_555
H7 C10 1_555 1_555
C11 C8 1_555 1_555
H8 C11 1_555 1_555
C12 C4 1_555 1_555
H9 C12 1_555 1_555
C13 C10 1_555 1_555
H10 C13 1_555 1_555
F2 C9 1_555 1_555
F3 C9 1_555 1_555
O1 S1 1_555 1_555
O2 Ag1 1_555 1_555
N1 Ag1 1_555 1_555
C14 N1 1_555 1_555
O3 S1 1_555 1_555
C15 C14 1_555 1_555
H11 C15 1_555 1_555
H12 C15 1_555 1_555
H13 C15 1_555 1_555
Ag1B P1B 1_555 1_555
Ag1B_2 O3 1_555 1_555
P1B P1 1_555 1_555
S1B C9B 1_555 1_555
C1B P1B 1_555 1_555
C2B C1B 1_555 1_555
H1B C2B 1_555 1_555
C3B P1B 1_555 1_555
C4B C3B 1_555 1_555
H2B C4B 1_555 1_555
C5B C3B 1_555 1_555
H3B C5B 1_555 1_555
C6B H4B 1_555 1_555
C7B C5B 1_555 1_555
H5B C7B 1_555 1_555
C8B C1B 1_555 1_555
H6B C8B 1_555 1_555
C9B F1B 1_555 1_555
C10B C2B 1_555 1_555
H7B C10B 1_555 1_555
C11B C8B 1_555 1_555
H8B C11B 1_555 1_555
C12B C4B 1_555 1_555
H9B C12B 1_555 1_555
C13B C10B 1_555 1_555
H10B C13B 1_555 1_555
F2B C9B 1_555 1_555
F3B C9B 1_555 1_555
O1B S1B 1_555 1_555
O2B Ag1B_2 1_555 1_555
O2B_2 Ag1B 1_555 1_555
N1B Ag1B 1_555 1_555
C14B N1B 1_555 1_555
O3B Ag1 1_555 1_555
O3_2 Ag1B 1_555 1_555
C15B C14B 1_555 1_555
H11B C15B 1_555 1_555
H12B C15B 1_555 1_555
H13B C15B 1_555 1_555
S1 O2 1_555 1_555
C6 C7 1_555 1_555
C6 C12 1_555 1_555
C11 C13 1_555 1_555
S1B O2B 1_555 1_555
S1B O3B 1_555 1_555
C6B C7B 1_555 1_555
C6B C12B 1_555 1_555
C11B C13B 1_555 1_555

#END
