
#######################################################################
#
#                 Cambridge Crystallographic Data Centre
#                                CCDC 
#
#######################################################################
#
# If this CIF has been generated from an entry in the Cambridge 
# Structural Database, then it will include bibliographic, chemical, 
# crystal, experimental, refinement or atomic coordinate data resulting 
# from the CCDC's data processing and validation procedures.
#
#######################################################################

data_DIKZED
_symmetry_cell_setting           monoclinic
_symmetry_space_group_name_H-M   'C 2/c'
_symmetry_Int_Tables_number      15
_space_group_name_Hall           '-C 2yn'
loop_
_symmetry_equiv_pos_site_id
_symmetry_equiv_pos_as_xyz
1 x,y,z
2 1/2+x,1/2+y,z
3 -x,y,1/2-z
4 1/2-x,1/2+y,1/2-z
5 -x,-y,-z
6 1/2-x,1/2-y,-z
7 x,-y,1/2+z
8 1/2+x,1/2-y,1/2+z
_cell_length_a                   17.092(7)
_cell_length_b                   9.602(2)
_cell_length_c                   13.897(5)
_cell_angle_alpha                90
_cell_angle_beta                 116.367(14)
_cell_angle_gamma                90
_cell_volume                     2043.47
loop_
_atom_site_label
_atom_site_type_symbol
_atom_site_fract_x
_atom_site_fract_y
_atom_site_fract_z
Mn1 Mn 0.5000 0.49519(8) 0.7500
Mn2 Mn 0.26523(4) 0.24539(6) 0.20029(4)
O1 O 0.50955(18) 0.3760(3) 0.6094(2)
O2 O 0.39711(18) 0.3454(3) 0.6427(2)
O3 O 0.2886(2) 0.0620(3) 0.2988(2)
O4 O 0.27903(17) -0.0846(2) 0.41617(19)
O5 O 0.53149(17) 0.3356(3) 0.3676(2)
O6 O 0.38878(16) 0.3483(3) 0.30525(19)
O7 O 0.1846(2) 0.3148(3) 0.2723(3)
H1 H 0.173(3) 0.4081(16) 0.273(4)
H2 H 0.155(3) 0.264(4) 0.303(3)
O8 O 0.16551(17) 0.1042(3) 0.0844(2)
H3 H 0.131(2) 0.058(4) 0.109(3)
H4 H 0.1220(17) 0.115(4) 0.0161(13)
O9 O 0.34376(18) 0.1518(3) 0.1290(2)
H5 H 0.386(2) 0.213(3) 0.130(3)
H6 H 0.314(2) 0.120(4) 0.0594(14)
C1 C 0.3347(3) 0.1398(4) 0.4788(3)
H7 H 0.3044 0.1593 0.5186
C2 C 0.4077(3) 0.2074(4) 0.5017(3)
C3 C 0.4660(3) 0.1831(4) 0.4463(3)
H8 H 0.5260 0.1745 0.5008
H9 H 0.4497 0.0955 0.4077
C4 C 0.4613(3) 0.2976(4) 0.3683(3)
C5 C 0.2982(3) 0.0326(4) 0.3917(3)
C6 C 0.4398(3) 0.3152(4) 0.5901(3)
Mn1F Mn 0.5000 0.50481(8) 0.2500
Mn1F_2 Mn 0.5000 0.50481(8) 1.2500
Mn2B Mn 0.73477(4) 0.24539(6) 1.29971(4)
Mn2C Mn 0.23477(4) -0.25461(6) 0.29971(4)
Mn2A Mn 0.76523(4) -0.25461(6) 1.20029(4)
O1B O 0.49045(18) 0.3760(3) 0.8906(2)
O2B O 0.60289(18) 0.3454(3) 0.8573(2)
O3B O 0.7114(2) 0.0620(3) 1.2012(2)
O4B O 0.72097(17) -0.0846(2) 1.08383(19)
O4C O 0.22097(17) 0.4154(2) 0.08383(19)
O4A O 0.77903(17) 0.4154(2) 1.41617(19)
O5B O 0.46851(17) 0.3356(3) 1.1324(2)
O5F O 0.53149(17) 0.6644(3) 0.8676(2)
O5D O 0.46851(17) 0.6644(3) 0.6324(2)
O6B O 0.61122(16) 0.3483(3) 1.19475(19)
O7B O 0.8154(2) 0.3148(3) 1.2277(3)
H1B H 0.827(3) 0.4081(16) 1.227(4)
H2B H 0.845(3) 0.264(4) 1.197(3)
O8B O 0.83449(17) 0.1042(3) 1.4156(2)
H3B H 0.869(2) 0.058(4) 1.391(3)
H4B H 0.8780(17) 0.115(4) 1.4839(13)
O9B O 0.65624(18) 0.1518(3) 1.3710(2)
H5B H 0.614(2) 0.213(3) 1.370(3)
H6B H 0.686(2) 0.120(4) 1.4406(14)
C1B C 0.6653(3) 0.1398(4) 1.0212(3)
H7B H 0.6956 0.1593 0.9814
C2B C 0.5923(3) 0.2074(4) 0.9983(3)
C3B C 0.5340(3) 0.1831(4) 1.0537(3)
H8B H 0.4740 0.1745 0.9992
H9B H 0.5503 0.0955 1.0923
C4B C 0.5387(3) 0.2976(4) 1.1317(3)
C5B C 0.7018(3) 0.0326(4) 1.1083(3)
C6B C 0.5602(3) 0.3152(4) 0.9099(3)
O10 O 0.5000 -0.033(2) 0.2500
H10 H 0.447(8) 0.01(2) 0.22(2)
H10B H 0.553(8) 0.01(2) 0.28(2)
loop_
_geom_bond_atom_site_label_1
_geom_bond_atom_site_label_2
_geom_bond_site_symmetry_1
_geom_bond_site_symmetry_2
Mn1 O1 1_555 1_555
Mn2 O3 1_555 1_555
O1 C6 1_555 1_555
O2 Mn1 1_555 1_555
O3 C5 1_555 1_555
O4 C5 1_555 1_555
O5 C4 1_555 1_555
O6 Mn2 1_555 1_555
O7 Mn2 1_555 1_555
H1 O7 1_555 1_555
H2 O7 1_555 1_555
O8 Mn2 1_555 1_555
H3 O8 1_555 1_555
H4 O8 1_555 1_555
O9 Mn2 1_555 1_555
H5 O9 1_555 1_555
H6 O9 1_555 1_555
C1 H7 1_555 1_555
C2 C1 1_555 1_555
C3 C2 1_555 1_555
H8 C3 1_555 1_555
H9 C3 1_555 1_555
C4 O6 1_555 1_555
C5 C1 1_555 1_555
C6 O2 1_555 1_555
O10 H10 1_555 1_555
Mn1F O5 1_555 1_555
Mn1F_2 O5B 1_555 1_555
Mn2B O3B 1_555 1_555
Mn2C O4 1_555 1_555
Mn2A O4B 1_555 1_555
O1B Mn1 1_555 1_555
O2B Mn1 1_555 1_555
O3B C5B 1_555 1_555
O4B C5B 1_555 1_555
O4C Mn2 1_555 1_555
O4A Mn2B 1_555 1_555
O5B C4B 1_555 1_555
O5F Mn1 1_555 1_555
O5D Mn1 1_555 1_555
O6B Mn2B 1_555 1_555
O7B Mn2B 1_555 1_555
H1B O7B 1_555 1_555
H2B O7B 1_555 1_555
O8B Mn2B 1_555 1_555
H3B O8B 1_555 1_555
H4B O8B 1_555 1_555
O9B Mn2B 1_555 1_555
H5B O9B 1_555 1_555
H6B O9B 1_555 1_555
C1B H7B 1_555 1_555
C2B C1B 1_555 1_555
C3B C2B 1_555 1_555
H8B C3B 1_555 1_555
H9B C3B 1_555 1_555
C4B O6B 1_555 1_555
C5B C1B 1_555 1_555
C6B O1B 1_555 1_555
H10B O10 1_555 1_555
C2 C6 1_555 1_555
C3 C4 1_555 1_555
O2B C6B 1_555 1_555
C2B C6B 1_555 1_555
C3B C4B 1_555 1_555

#END
