
#######################################################################
#
#                 Cambridge Crystallographic Data Centre
#                                CCDC 
#
#######################################################################
#
# If this CIF has been generated from an entry in the Cambridge 
# Structural Database, then it will include bibliographic, chemical, 
# crystal, experimental, refinement or atomic coordinate data resulting 
# from the CCDC's data processing and validation procedures.
#
#######################################################################

data_DILBIJ
_symmetry_cell_setting           monoclinic
_symmetry_space_group_name_H-M   'P a'
_symmetry_Int_Tables_number      7
_space_group_name_Hall           'P -2ya'
loop_
_symmetry_equiv_pos_site_id
_symmetry_equiv_pos_as_xyz
1 x,y,z
2 1/2+x,-y,z
_cell_length_a                   14.994(4)
_cell_length_b                   11.658(2)
_cell_length_c                   15.752(2)
_cell_angle_alpha                90
_cell_angle_beta                 97.27(1)
_cell_angle_gamma                90
_cell_volume                     2731.31
loop_
_atom_site_label
_atom_site_type_symbol
_atom_site_fract_x
_atom_site_fract_y
_atom_site_fract_z
W1 W 0.0000 0.2181(1) 0.0000
W2 W -0.1539(1) -0.2836(1) -0.1293(1)
Zr1 Zr -0.1428(2) 0.5191(2) 0.1825(2)
Zr2 Zr -0.0119(2) 0.0201(2) -0.3112(2)
O1 O -0.0855(13) 0.4081(14) 0.0943(11)
O2 O 0.0660(16) 0.4659(15) -0.0553(15)
O3 O -0.2018(14) 0.2800(14) -0.0749(16)
O4 O -0.0402(16) -0.0243(18) 0.0781(16)
O5 O 0.2002(11) 0.1968(15) 0.0774(15)
O6 O 0.0392(10) 0.0830(11) -0.1622(10)
O7 O -0.0671(11) -0.0909(11) -0.2225(9)
O8 O -0.2099(13) -0.0436(13) -0.0572(13)
O9 O 0.0521(14) -0.2582(13) -0.0475(15)
O10 O -0.0968(16) -0.5147(16) -0.2115(15)
O11 O -0.3594(12) -0.3261(14) -0.2139(13)
O12 O -0.1880(13) -0.4250(14) 0.0366(11)
C1 C -0.0370(5) 0.3254(7) 0.1090(5)
C2 C -0.0144(6) 0.3129(6) 0.2073(5)
C3 C -0.0518(5) 0.3793(7) 0.2580(5)
C4 C -0.0332(6) 0.3591(8) 0.3465(6)
C5 C 0.0298(8) 0.2946(8) 0.3818(6)
C6 C 0.0655(7) 0.2212(10) 0.3326(8)
C7 C 0.0460(7) 0.2277(7) 0.2392(7)
C8 C 0.0409(13) 0.3726(13) -0.0442(11)
C9 C -0.1341(8) 0.2594(8) -0.0477(7)
C10 C -0.0305(6) 0.0660(8) 0.0558(7)
C11 C 0.1302(16) 0.2087(14) 0.0468(13)
C12 C 0.0234(5) 0.1362(8) -0.1032(5)
C13 C -0.1177(7) -0.1862(8) -0.2436(7)
C14 C -0.1405(5) -0.2082(6) -0.3312(6)
C15 C -0.1010(7) -0.1144(8) -0.3851(6)
C16 C -0.1301(8) -0.1248(9) -0.4745(6)
C17 C -0.1805(9) -0.2331(8) -0.5053(7)
C18 C -0.2198(7) -0.3036(7) -0.4522(6)
C19 C -0.1959(6) -0.2943(6) -0.3659(5)
C20 C -0.1866(14) -0.1245(17) -0.0865(14)
C21 C -0.0255(7) -0.2698(7) -0.0783(8)
C22 C -0.1180(8) -0.4334(10) -0.1769(8)
C23 C -0.2816(15) -0.3139(14) -0.1864(14)
C24 C -0.1761(8) -0.3731(8) -0.0275(7)
C25 C -0.0186(6) 0.6563(8) 0.1743(7)
C26 C -0.0006(6) 0.6137(9) 0.2499(8)
C27 C -0.0619(8) 0.6525(9) 0.2948(7)
C28 C -0.1261(8) 0.7126(8) 0.2430(9)
C29 C -0.0938(7) 0.7160(8) 0.1654(7)
C30 C -0.2617(8) 0.3659(12) 0.1896(10)
C31 C -0.2453(8) 0.4105(13) 0.2670(8)
C32 C -0.2772(11) 0.5209(17) 0.2648(10)
C33 C -0.3062 0.5415 0.1820
C34 C -0.3028 0.4420 0.1336
C35 C -0.1357(7) 0.1628(10) -0.2904(7)
C36 C -0.1527(8) 0.1180(9) -0.3790(8)
C37 C -0.0754(8) 0.1501(10) -0.4251(7)
C38 C -0.0211(8) 0.2298(8) -0.3694(7)
C39 C -0.0550(7) 0.2360(7) -0.2881(8)
C40 C 0.0892(8) -0.1256(12) -0.3690(10)
C41 C 0.0926(11) -0.0208(21) -0.4179(11)
C42 C 0.1359 0.0602 -0.3601
C43 C 0.1606 0.0130 -0.2791
C44 C 0.1295 -0.1001 -0.2801
H1 H -0.0655 0.4270 0.3858
H2 H 0.0309 0.2795 0.4548
H3 H 0.1019 0.1362 0.3523
H4 H 0.0632 0.1590 0.2008
H5 H -0.1012 -0.0697 -0.5155
H6 H -0.1867 -0.2215 -0.5779
H7 H -0.2577 -0.3692 -0.4766
H8 H -0.2181 -0.3463 -0.3296
H9 H 0.0217 0.6402 0.1209
H10 H 0.0570 0.5842 0.2753
H11 H -0.0582 0.6331 0.3585
H12 H -0.1807 0.7667 0.2594
H13 H -0.1195 0.7620 0.1133
H14 H -0.2407 0.2815 0.1709
H15 H -0.2156 0.3667 0.3221
H16 H -0.2743 0.5788 0.3174
H17 H -0.3285 0.6170 0.1577
H18 H -0.3273 0.4316 0.0720
H19 H -0.1775 0.1505 -0.2396
H20 H -0.2093 0.0724 -0.4030
H21 H -0.0625 0.1240 -0.4842
H22 H 0.0283 0.2776 -0.3798
H23 H -0.0182 0.2793 -0.2291
H24 H 0.0599 -0.2028 -0.4005
H25 H 0.0703 -0.0146 -0.4771
H26 H 0.1580 0.1355 -0.3941
H27 H 0.1946 0.0531 -0.2289
H28 H 0.1342 -0.1533 -0.2299
O12_2 O -0.1880(13) 0.5750(14) 0.0366(11)
Zr1_2 Zr -0.1428(2) -0.4809(2) 0.1825(2)
loop_
_geom_bond_atom_site_label_1
_geom_bond_atom_site_label_2
_geom_bond_site_symmetry_1
_geom_bond_site_symmetry_2
W1 C1 1_555 1_555
W2 C13 1_555 1_555
Zr1 O1 1_555 1_555
Zr2 O6 1_555 1_555
O1 C1 1_555 1_555
O2 C8 1_555 1_555
O3 C9 1_555 1_555
O4 C10 1_555 1_555
O5 C11 1_555 1_555
O6 C12 1_555 1_555
O7 Zr2 1_555 1_555
O8 C20 1_555 1_555
O9 C21 1_555 1_555
O10 C22 1_555 1_555
O11 C23 1_555 1_555
O12 C24 1_555 1_555
C1 C2 1_555 1_555
C2 C3 1_555 1_555
C3 Zr1 1_555 1_555
C4 C3 1_555 1_555
C5 C4 1_555 1_555
C6 C5 1_555 1_555
C7 C2 1_555 1_555
C8 W1 1_555 1_555
C9 W1 1_555 1_555
C10 W1 1_555 1_555
C11 W1 1_555 1_555
C12 W1 1_555 1_555
C13 O7 1_555 1_555
C14 C13 1_555 1_555
C15 Zr2 1_555 1_555
C16 C15 1_555 1_555
C17 C16 1_555 1_555
C18 C17 1_555 1_555
C19 C14 1_555 1_555
C20 W2 1_555 1_555
C21 W2 1_555 1_555
C22 W2 1_555 1_555
C23 W2 1_555 1_555
C24 W2 1_555 1_555
C25 Zr1 1_555 1_555
C26 Zr1 1_555 1_555
C27 Zr1 1_555 1_555
C28 Zr1 1_555 1_555
C29 Zr1 1_555 1_555
C30 Zr1 1_555 1_555
C31 Zr1 1_555 1_555
C32 Zr1 1_555 1_555
C33 Zr1 1_555 1_555
C34 Zr1 1_555 1_555
C35 Zr2 1_555 1_555
C36 Zr2 1_555 1_555
C37 Zr2 1_555 1_555
C38 Zr2 1_555 1_555
C39 Zr2 1_555 1_555
C40 Zr2 1_555 1_555
C41 Zr2 1_555 1_555
C42 Zr2 1_555 1_555
C43 Zr2 1_555 1_555
C44 Zr2 1_555 1_555
H1 C4 1_555 1_555
H2 C5 1_555 1_555
H3 C6 1_555 1_555
H4 C7 1_555 1_555
H5 C16 1_555 1_555
H6 C17 1_555 1_555
H7 C18 1_555 1_555
H8 C19 1_555 1_555
H9 C25 1_555 1_555
H10 C26 1_555 1_555
H11 C27 1_555 1_555
H12 C28 1_555 1_555
H13 C29 1_555 1_555
H14 C30 1_555 1_555
H15 C31 1_555 1_555
H16 C32 1_555 1_555
H17 C33 1_555 1_555
H18 C34 1_555 1_555
H19 C35 1_555 1_555
H20 C36 1_555 1_555
H21 C37 1_555 1_555
H22 C38 1_555 1_555
H23 C39 1_555 1_555
H24 C40 1_555 1_555
H25 C41 1_555 1_555
H26 C42 1_555 1_555
H27 C43 1_555 1_555
H28 C44 1_555 1_555
O12_2 Zr1 1_555 1_555
Zr1_2 O12 1_555 1_555
C6 C7 1_555 1_555
C14 C15 1_555 1_555
C18 C19 1_555 1_555
C25 C26 1_555 1_555
C25 C29 1_555 1_555
C26 C27 1_555 1_555
C27 C28 1_555 1_555
C28 C29 1_555 1_555
C30 C31 1_555 1_555
C30 C34 1_555 1_555
C31 C32 1_555 1_555
C32 C33 1_555 1_555
C33 C34 1_555 1_555
C35 C36 1_555 1_555
C35 C39 1_555 1_555
C36 C37 1_555 1_555
C37 C38 1_555 1_555
C38 C39 1_555 1_555
C40 C41 1_555 1_555
C40 C44 1_555 1_555
C41 C42 1_555 1_555
C42 C43 1_555 1_555
C43 C44 1_555 1_555

#END
