
#######################################################################
#
#                 Cambridge Crystallographic Data Centre
#                                CCDC 
#
#######################################################################
#
# If this CIF has been generated from an entry in the Cambridge 
# Structural Database, then it will include bibliographic, chemical, 
# crystal, experimental, refinement or atomic coordinate data resulting 
# from the CCDC's data processing and validation procedures.
#
#######################################################################

data_DILDEI
_symmetry_cell_setting           orthorhombic
_symmetry_space_group_name_H-M   'P b c a'
_symmetry_Int_Tables_number      61
_space_group_name_Hall           '-P 2ac 2ab'
loop_
_symmetry_equiv_pos_site_id
_symmetry_equiv_pos_as_xyz
1 x,y,z
2 1/2-x,-y,1/2+z
3 -x,1/2+y,1/2-z
4 1/2+x,1/2-y,-z
5 -x,-y,-z
6 1/2+x,y,1/2-z
7 x,1/2-y,1/2+z
8 1/2-x,1/2+y,z
_cell_length_a                   8.3490(17)
_cell_length_b                   9.4760(19)
_cell_length_c                   17.828(4)
_cell_angle_alpha                90
_cell_angle_beta                 90
_cell_angle_gamma                90
_cell_volume                     1410.46
loop_
_atom_site_label
_atom_site_type_symbol
_atom_site_fract_x
_atom_site_fract_y
_atom_site_fract_z
Zn1 Zn 1.0000 0.5000 0.5000
N1 N 0.8536(3) 0.3208(3) 0.48306(14)
N2 N 0.7488(3) 0.2405(3) 0.51939(13)
N3 N 0.6979(3) 0.1430(3) 0.47237(15)
N4 N 0.7676(3) 0.1574(3) 0.40459(15)
N5 N 1.0407(3) 0.4532(3) 0.38246(14)
N6 N 0.9801(4) 0.2806(3) 0.28978(16)
C1 C 0.8634(4) 0.2684(3) 0.41356(17)
C2 C 0.9676(4) 0.3365(3) 0.35780(18)
C3 C 1.0735(5) 0.3528(4) 0.2425(2)
H1 H 1.0860 0.3182 0.1940
C4 C 1.1517(5) 0.4744(4) 0.2612(2)
H2 H 1.2141 0.5230 0.2265
C5 C 1.1340(4) 0.5217(4) 0.3333(2)
H3 H 1.1878 0.6028 0.3484
Zn1G Zn 0.5000 0.0000 0.5000
Zn1G_2 Zn 1.5000 1.0000 0.5000
N1D N 1.1464(3) 0.6792(3) 0.51694(14)
N2D N 1.2512(3) 0.7595(3) 0.48061(13)
N3D N 1.3021(3) 0.8570(3) 0.52763(15)
N3G N 0.8021(3) 0.6430(3) 0.47237(15)
N3C N 1.1979(3) 0.3570(3) 0.52763(15)
N4D N 1.2324(3) 0.8426(3) 0.59541(15)
N5D N 0.9593(3) 0.5468(3) 0.61754(14)
N6D N 1.0199(4) 0.7194(3) 0.71022(16)
C1D C 1.1366(4) 0.7316(3) 0.58644(17)
C2D C 1.0324(4) 0.6635(3) 0.64220(18)
C3D C 0.9265(5) 0.6472(4) 0.7575(2)
H1D H 0.9140 0.6818 0.8060
C4D C 0.8483(5) 0.5256(4) 0.7388(2)
H2D H 0.7859 0.4770 0.7735
C5D C 0.8660(4) 0.4783(4) 0.6667(2)
H3D H 0.8122 0.3972 0.6516
loop_
_geom_bond_atom_site_label_1
_geom_bond_atom_site_label_2
_geom_bond_site_symmetry_1
_geom_bond_site_symmetry_2
Zn1 N1 1_555 1_555
N1 N2 1_555 1_555
N2 N3 1_555 1_555
N3 N4 1_555 1_555
N4 C1 1_555 1_555
N5 Zn1 1_555 1_555
N6 C2 1_555 1_555
C1 N1 1_555 1_555
C2 N5 1_555 1_555
C3 N6 1_555 1_555
H1 C3 1_555 1_555
C4 C3 1_555 1_555
H2 C4 1_555 1_555
C5 N5 1_555 1_555
H3 C5 1_555 1_555
Zn1G N3 1_555 1_555
Zn1G_2 N3D 1_555 1_555
N1D Zn1 1_555 1_555
N2D N1D 1_555 1_555
N3D N2D 1_555 1_555
N3G Zn1 1_555 1_555
N3C Zn1 1_555 1_555
N4D N3D 1_555 1_555
N5D Zn1 1_555 1_555
N6D C2D 1_555 1_555
C1D N1D 1_555 1_555
C2D N5D 1_555 1_555
C3D N6D 1_555 1_555
H1D C3D 1_555 1_555
C4D C3D 1_555 1_555
H2D C4D 1_555 1_555
C5D N5D 1_555 1_555
H3D C5D 1_555 1_555
C1 C2 1_555 1_555
C4 C5 1_555 1_555
N4D C1D 1_555 1_555
C1D C2D 1_555 1_555
C4D C5D 1_555 1_555

#END
