
#######################################################################
#
#                 Cambridge Crystallographic Data Centre
#                                CCDC 
#
#######################################################################
#
# If this CIF has been generated from an entry in the Cambridge 
# Structural Database, then it will include bibliographic, chemical, 
# crystal, experimental, refinement or atomic coordinate data resulting 
# from the CCDC's data processing and validation procedures.
#
#######################################################################

data_DILGIP
_symmetry_cell_setting           orthorhombic
_symmetry_space_group_name_H-M   'P 21 21 21'
_symmetry_Int_Tables_number      19
_space_group_name_Hall           'P 2ac 2ab'
loop_
_symmetry_equiv_pos_site_id
_symmetry_equiv_pos_as_xyz
1 x,y,z
2 1/2+x,1/2-y,-z
3 -x,1/2+y,1/2-z
4 1/2-x,-y,1/2+z
_cell_length_a                   5.039(3)
_cell_length_b                   13.656(8)
_cell_length_c                   14.043(9)
_cell_angle_alpha                90
_cell_angle_beta                 90
_cell_angle_gamma                90
_cell_volume                     966.335
loop_
_atom_site_label
_atom_site_type_symbol
_atom_site_fract_x
_atom_site_fract_y
_atom_site_fract_z
C1 C 0.5974(8) 0.1081(3) 1.0856(3)
C2 C 0.3599(10) 0.0856(3) 0.7963(3)
H1 H 0.2450 0.1308 0.7656
C3 C 0.6681(9) 0.0232(3) 0.8858(3)
C4 C 0.5516(9) -0.0520(3) 0.8383(3)
H2 H 0.5955 -0.1194 0.8433
C5 C 0.8765(8) 0.0227(3) 0.9608(3)
H3 H 0.9866 0.0823 0.9538
H4 H 0.9933 -0.0347 0.9506
C6 C 0.7665(8) 0.0188(3) 1.0637(3)
H5 H 0.9228 0.0211 1.1076
C7 C 0.7649(8) -0.1554(3) 1.1000(3)
C8 C 0.6020(9) -0.2448(3) 1.1236(3)
H6 H 0.4149 -0.2318 1.1094
H7 H 0.6215 -0.2603 1.1914
H8 H 0.6638 -0.3003 1.0853
Ag1 Ag 0.66858(6) 0.25670(2) 0.89688(2)
N1 N 0.6274(7) -0.0723(2) 1.0830(2)
H9 H 0.4528 -0.0734 1.0835
N2 N 0.3583(8) -0.0117(3) 0.7818(3)
H10 H 0.2522 -0.0438 0.7430
N3 N 0.5423(8) 0.1095(3) 0.8590(3)
O1 O 0.3590(6) 0.09409(18) 1.1138(2)
O2 O 0.6944(6) 0.1908(2) 1.0741(2)
O3 O 1.0065(6) -0.1576(2) 1.0979(2)
Ag1A Ag 0.16858(6) 0.24330(2) 1.10312(2)
Ag1A_2 Ag 1.16858(6) 0.24330(2) 1.10312(2)
O1A O 0.8590(6) 0.40591(18) 0.8862(2)
O2A O 0.1944(6) 0.3092(2) 0.9259(2)
loop_
_geom_bond_atom_site_label_1
_geom_bond_atom_site_label_2
_geom_bond_site_symmetry_1
_geom_bond_site_symmetry_2
C1 C6 1_555 1_555
C2 H1 1_555 1_555
C3 C4 1_555 1_555
C4 H2 1_555 1_555
C5 C3 1_555 1_555
H3 C5 1_555 1_555
H4 C5 1_555 1_555
C6 C5 1_555 1_555
H5 C6 1_555 1_555
C7 C8 1_555 1_555
C8 H6 1_555 1_555
H7 C8 1_555 1_555
H8 C8 1_555 1_555
Ag1 N3 1_555 1_555
N1 C6 1_555 1_555
H9 N1 1_555 1_555
N2 C2 1_555 1_555
H10 N2 1_555 1_555
N3 C2 1_555 1_555
O1 C1 1_555 1_555
O2 C1 1_555 1_555
O3 C7 1_555 1_555
Ag1A O1 1_555 1_555
Ag1A_2 O2 1_555 1_555
O1A Ag1 1_555 1_555
O2A Ag1 1_555 1_555
C3 N3 1_555 1_555
C4 N2 1_555 1_555
C7 N1 1_555 1_555
Ag1 O2 1_555 1_555
Ag1A O2A 1_555 1_555

#END
