
#######################################################################
#
#                 Cambridge Crystallographic Data Centre
#                                CCDC 
#
#######################################################################
#
# If this CIF has been generated from an entry in the Cambridge 
# Structural Database, then it will include bibliographic, chemical, 
# crystal, experimental, refinement or atomic coordinate data resulting 
# from the CCDC's data processing and validation procedures.
#
#######################################################################

data_DILHUD
_symmetry_cell_setting           monoclinic
_symmetry_space_group_name_H-M   'P 21/c'
_symmetry_Int_Tables_number      14
_space_group_name_Hall           '-P 2ybc'
loop_
_symmetry_equiv_pos_site_id
_symmetry_equiv_pos_as_xyz
1 x,y,z
2 -x,1/2+y,1/2-z
3 -x,-y,-z
4 x,1/2-y,1/2+z
_cell_length_a                   9.8392(12)
_cell_length_b                   21.748(3)
_cell_length_c                   15.1973(16)
_cell_angle_alpha                90
_cell_angle_beta                 111.277(6)
_cell_angle_gamma                90
_cell_volume                     3030.3
loop_
_atom_site_label
_atom_site_type_symbol
_atom_site_fract_x
_atom_site_fract_y
_atom_site_fract_z
In1 In 0.72861(4) -0.135455(18) 0.25094(3)
O1 O 0.5934(4) -0.21633(18) 0.2573(3)
O2 O -0.0302(4) -0.1337(2) 0.2607(4)
O3 O -0.1578(4) -0.35610(19) -0.0868(3)
O4 O 0.6050(5) -0.3535(2) 0.5855(3)
O5 O 0.4860(4) -0.1288(2) 0.2527(3)
O6 O -0.1462(4) -0.2194(2) 0.2285(3)
C1 C -0.0309(7) -0.1892(3) 0.2443(5)
C2 C 0.2314(6) -0.3183(2) 0.2499(4)
C3 C 0.2269(6) -0.1883(2) 0.2514(4)
H1 H 0.2257 -0.1456 0.2526
C4 C 0.3502(6) -0.2200(2) 0.2532(4)
O7 O -0.2467(4) -0.44322(18) -0.1526(3)
C5 C 0.3527(6) -0.2832(3) 0.2544(4)
H2 H 0.4382 -0.3033 0.2585
C6 C 0.4826(6) -0.1851(3) 0.2548(4)
O8 O 0.7175(5) -0.4370(2) 0.6469(3)
C7 C 0.0058(6) -0.4440(3) 0.1820(4)
C8 C 0.1053(6) -0.2221(3) 0.2477(4)
C9 C -0.1424(6) -0.4417(3) 0.0146(5)
C10 C 0.1053(6) -0.2858(3) 0.2445(4)
H3 H 0.0207 -0.3073 0.2387
C11 C 0.6474(7) -0.4064(3) 0.5761(5)
C12 C -0.0337(6) -0.4171(3) 0.0944(4)
H4 H 0.0134 -0.3813 0.0879
C13 C 0.5043(6) -0.4100(3) 0.4017(4)
H5 H 0.4469 -0.3780 0.4093
C14 C 0.4741(6) -0.4349(3) 0.3124(5)
N1 N 0.2331(5) -0.38138(18) 0.2483(4)
C15 C 0.3452(6) -0.4149(3) 0.2277(4)
H6 H 0.3804 -0.3892 0.1882
H7 H 0.3012 -0.4511 0.1912
C16 C 0.6174(6) -0.4316(3) 0.4793(5)
C17 C 0.1259(6) -0.4187(3) 0.2680(4)
H8 H 0.0818 -0.3942 0.3039
H9 H 0.1756 -0.4529 0.3076
C18 C -0.1834(6) -0.4124(3) -0.0796(5)
C19 C 0.7069(8) -0.4777(4) 0.4689(5)
H10 H 0.7834 -0.4925 0.5211
C20 C -0.0677(8) -0.4959(3) 0.1902(6)
H11 H -0.0434 -0.5147 0.2489
C21 C -0.2120(8) -0.4943(3) 0.0262(5)
H12 H -0.2838 -0.5119 -0.0258
C22 C 0.5642(8) -0.4808(3) 0.3033(5)
H13 H 0.5460 -0.4983 0.2442
C23 C 0.6812(10) -0.5017(4) 0.3798(6)
H14 H 0.7426 -0.5318 0.3715
C24 C -0.1771(8) -0.5211(3) 0.1133(5)
H15 H -0.2267 -0.5560 0.1206
In1_2 In -0.27139(4) -0.135455(18) 0.25094(3)
In1C In -0.27139(4) -0.364545(18) -0.24906(3)
In1C_2 In 0.72861(4) -0.364545(18) 0.75094(3)
O2_2 O 0.9698(4) -0.1337(2) 0.2607(4)
O3C O 0.8422(4) -0.14390(19) 0.4132(3)
O4C O 0.6050(5) -0.1465(2) 0.0855(3)
O6_2 O 0.8538(4) -0.2194(2) 0.2285(3)
O7C O 0.7533(4) -0.05678(18) 0.3474(3)
O8C O 0.7175(5) -0.0630(2) 0.1469(3)
N2 N 0.6054(7) -0.2123(3) 0.5902(5)
H16 H 0.6516 -0.2437 0.6276
H17 H 0.5092 -0.2173 0.5770
C25 C 0.6315(10) -0.2165(4) 0.5038(7)
H18 H 0.5969 -0.2555 0.4743
H19 H 0.7342 -0.2131 0.5167
H20 H 0.5808 -0.1839 0.4622
C26 C 0.6515(10) -0.1545(4) 0.6442(8)
H21 H 0.6265 -0.1559 0.6996
H22 H 0.6028 -0.1203 0.6055
H23 H 0.7551 -0.1496 0.6624
N3 N 0.1336(14) -0.2823(5) 0.4928(7)
O9 O 0.3132(8) -0.2039(5) 0.5220(5)
C27 C 0.2431(12) -0.3228(5) 0.5095(7)
H24 H 0.2050 -0.3638 0.5041
H25 H 0.3131 -0.3166 0.5721
H26 H 0.2894 -0.3169 0.4644
C28 C -0.0175(11) -0.2882(5) 0.4661(7)
H27 H -0.0428 -0.3310 0.4628
H28 H -0.0648 -0.2696 0.4053
H29 H -0.0487 -0.2681 0.5117
C29 C 0.1821(16) -0.2221(8) 0.4984(9)
H30 H 0.1109 -0.1916 0.4833
loop_
_geom_bond_atom_site_label_1
_geom_bond_atom_site_label_2
_geom_bond_site_symmetry_1
_geom_bond_site_symmetry_2
In1 O1 1_555 1_555
O1 C6 1_555 1_555
O2 C1 1_555 1_555
O3 C18 1_555 1_555
O4 C11 1_555 1_555
O5 In1 1_555 1_555
O6 C1 1_555 1_555
C1 C8 1_555 1_555
C2 C5 1_555 1_555
C3 H1 1_555 1_555
C4 C3 1_555 1_555
O7 C18 1_555 1_555
C5 C4 1_555 1_555
H2 C5 1_555 1_555
C6 O5 1_555 1_555
O8 C11 1_555 1_555
C7 C12 1_555 1_555
C8 C3 1_555 1_555
C9 C12 1_555 1_555
C10 C2 1_555 1_555
H3 C10 1_555 1_555
C11 C16 1_555 1_555
C12 H4 1_555 1_555
C13 H5 1_555 1_555
C14 C13 1_555 1_555
N1 C2 1_555 1_555
C15 C14 1_555 1_555
H6 C15 1_555 1_555
H7 C15 1_555 1_555
C16 C13 1_555 1_555
C17 C7 1_555 1_555
H8 C17 1_555 1_555
H9 C17 1_555 1_555
C18 C9 1_555 1_555
C19 C16 1_555 1_555
H10 C19 1_555 1_555
C20 C7 1_555 1_555
H11 C20 1_555 1_555
C21 C9 1_555 1_555
H12 C21 1_555 1_555
C22 C14 1_555 1_555
H13 C22 1_555 1_555
C23 C19 1_555 1_555
H14 C23 1_555 1_555
C24 C20 1_555 1_555
H15 C24 1_555 1_555
N2 H16 1_555 1_555
H17 N2 1_555 1_555
C25 N2 1_555 1_555
H18 C25 1_555 1_555
H19 C25 1_555 1_555
H20 C25 1_555 1_555
C26 N2 1_555 1_555
H21 C26 1_555 1_555
H22 C26 1_555 1_555
H23 C26 1_555 1_555
N3 C27 1_555 1_555
O9 C29 1_555 1_555
C27 H24 1_555 1_555
H25 C27 1_555 1_555
H26 C27 1_555 1_555
C28 N3 1_555 1_555
H27 C28 1_555 1_555
H28 C28 1_555 1_555
H29 C28 1_555 1_555
C29 N3 1_555 1_555
H30 C29 1_555 1_555
In1_2 O2 1_555 1_555
In1C O3 1_555 1_555
In1C_2 O4 1_555 1_555
O2_2 In1 1_555 1_555
O3C In1 1_555 1_555
O4C In1 1_555 1_555
O6_2 In1 1_555 1_555
O7C In1 1_555 1_555
O8C In1 1_555 1_555
O6 In1_2 1_555 1_555
C4 C6 1_555 1_555
O7 In1C 1_555 1_555
O8 In1C_2 1_555 1_555
C8 C10 1_555 1_555
N1 C15 1_555 1_555
N1 C17 1_555 1_555
C21 C24 1_555 1_555
C22 C23 1_555 1_555

#END
