
#######################################################################
#
#                 Cambridge Crystallographic Data Centre
#                                CCDC 
#
#######################################################################
#
# If this CIF has been generated from an entry in the Cambridge 
# Structural Database, then it will include bibliographic, chemical, 
# crystal, experimental, refinement or atomic coordinate data resulting 
# from the CCDC's data processing and validation procedures.
#
#######################################################################

data_DILJUF
_symmetry_cell_setting           monoclinic
_symmetry_space_group_name_H-M   'P 21/c'
_symmetry_Int_Tables_number      14
_space_group_name_Hall           '-P 2ybc'
loop_
_symmetry_equiv_pos_site_id
_symmetry_equiv_pos_as_xyz
1 x,y,z
2 -x,1/2+y,1/2-z
3 -x,-y,-z
4 x,1/2-y,1/2+z
_cell_length_a                   10.2101(11)
_cell_length_b                   21.649(2)
_cell_length_c                   15.8443(14)
_cell_angle_alpha                90
_cell_angle_beta                 110.692(6)
_cell_angle_gamma                90
_cell_volume                     3276.28
loop_
_atom_site_label
_atom_site_type_symbol
_atom_site_fract_x
_atom_site_fract_y
_atom_site_fract_z
Cd1 Cd 0.11600(8) -0.35592(3) 0.40503(5)
N1 N -0.3827(9) -0.1111(5) 0.4134(5)
O1 O -0.7600(11) -0.1578(4) 0.0960(6)
O2 O -0.0278(9) -0.2725(4) 0.4041(6)
O3 O -0.1143(10) -0.3609(4) 0.4289(7)
O4 O -0.0127(10) -0.1409(4) 0.7374(6)
O5 O 0.0773(9) -0.0564(4) 0.8124(5)
O6 O -0.8193(9) -0.0725(4) 0.0135(5)
O7 O -0.7271(12) -0.2830(5) 0.3973(12)
O8 O -0.6257(15) -0.3646(6) 0.4013(15)
C1 C -0.3743(7) -0.3052(3) 0.4097(5)
H1 H -0.3721 -0.3481 0.4092
C2 C -0.4962(7) -0.2746(3) 0.4045(5)
C3 C -0.4994(7) -0.2105(3) 0.4053(4)
H2 H -0.5811 -0.1900 0.4019
C4 C -0.3805(7) -0.1770(3) 0.4113(4)
C5 C -0.2586(7) -0.2077(3) 0.4164(4)
H3 H -0.1789 -0.1852 0.4204
C6 C -0.2555(7) -0.2716(3) 0.4156(5)
C7 C -0.1257(12) -0.3047(6) 0.4165(7)
C8 C -0.1861(7) -0.0409(3) 0.4964(4)
C9 C -0.1265(8) -0.0754(3) 0.5746(4)
H4 H -0.1370 -0.1181 0.5730
C10 C -0.0513(9) -0.0461(3) 0.6550(4)
C11 C -0.0356(9) 0.0176(4) 0.6574(5)
H5 H 0.0148 0.0373 0.7113
C12 C -0.0952(9) 0.0520(3) 0.5792(5)
H6 H -0.0846 0.0947 0.5808
C13 C -0.1704(8) 0.0227(3) 0.4988(4)
H7 H -0.2104 0.0458 0.4465
C14 C -0.4995(11) -0.0754(5) 0.4197(7)
H8 H -0.4636 -0.0422 0.4628
H9 H -0.5568 -0.1018 0.4421
C15 C -0.5906(8) -0.0480(3) 0.3287(4)
C16 C -0.6229(8) 0.0140(3) 0.3227(4)
H10 H -0.5895 0.0389 0.3737
C17 C -0.7047(9) 0.0392(3) 0.2412(5)
H11 H -0.7266 0.0811 0.2372
C18 C -0.7542(8) 0.0023(3) 0.1655(4)
H12 H -0.8093 0.0193 0.1105
C19 C -0.7220(7) -0.0598(3) 0.1714(4)
C20 C -0.6401(7) -0.0849(3) 0.2530(4)
H13 H -0.6184 -0.1268 0.2571
C21 C -0.7708(14) -0.0999(7) 0.0881(7)
C22 C -0.2718(11) -0.0710(5) 0.4092(6)
H14 H -0.3129 -0.0388 0.3651
H15 H -0.2096 -0.0949 0.3875
C23 C 0.0073(12) -0.0840(7) 0.7420(8)
C24 C -0.6258(14) -0.3102(7) 0.4007(10)
Cd1_2 Cd -0.88400(8) -0.35592(3) 0.40503(5)
Cd1C Cd -0.88400(8) -0.14408(3) -0.09497(5)
Cd1C_2 Cd 0.11600(8) -0.14408(3) 0.90503(5)
O4C O -0.0127(10) -0.3591(4) 0.2374(6)
O5C O 0.0773(9) -0.4436(4) 0.3124(5)
O6C O 0.1807(9) -0.4275(4) 0.5135(5)
O7_2 O 0.2729(12) -0.2830(5) 0.3973(12)
O8_2 O 0.3743(15) -0.3646(6) 0.4013(15)
O9 O 0.1224(15) 0.4359(6) 0.4305(11)
C25 C -0.321(3) 0.1970(16) 0.371(2)
C26 C -0.169(3) 0.1993(9) 0.3850(17)
N2 N -0.137(2) 0.2513(9) 0.3233(13)
C27 C -0.012(4) 0.3179(12) 0.2601(19)
C28 C 0.006(3) 0.2764(13) 0.3314(18)
C29 C 0.426(4) 0.4963(12) 0.392(2)
C30 C 0.385(4) 0.4364(17) 0.353(3)
N3 N 0.423(4) 0.5011(13) 0.480(3)
C31 C -0.623(5) 0.3074(16) 0.332(4)
C32 C -0.548(3) 0.2492(16) 0.331(2)
N4 N -0.641(4) 0.1990(16) 0.335(2)
C33? C 0.115(3) 0.2620(12) 0.2923(19)
loop_
_geom_bond_atom_site_label_1
_geom_bond_atom_site_label_2
_geom_bond_site_symmetry_1
_geom_bond_site_symmetry_2
Cd1 O2 1_555 1_555
N1 C4 1_555 1_555
O1 C21 1_555 1_555
O2 C7 1_555 1_555
O3 Cd1 1_555 1_555
O4 C23 1_555 1_555
O5 C23 1_555 1_555
O6 C21 1_555 1_555
O7 C24 1_555 1_555
O8 C24 1_555 1_555
C1 H1 1_555 1_555
C2 C1 1_555 1_555
C3 C2 1_555 1_555
H2 C3 1_555 1_555
C4 C3 1_555 1_555
C5 C4 1_555 1_555
H3 C5 1_555 1_555
C6 C1 1_555 1_555
C7 O3 1_555 1_555
C8 C9 1_555 1_555
C9 H4 1_555 1_555
C10 C9 1_555 1_555
C11 C10 1_555 1_555
H5 C11 1_555 1_555
C12 C11 1_555 1_555
H6 C12 1_555 1_555
C13 C8 1_555 1_555
H7 C13 1_555 1_555
C14 N1 1_555 1_555
H8 C14 1_555 1_555
H9 C14 1_555 1_555
C15 C14 1_555 1_555
C16 C15 1_555 1_555
H10 C16 1_555 1_555
C17 C16 1_555 1_555
H11 C17 1_555 1_555
C18 C17 1_555 1_555
H12 C18 1_555 1_555
C19 C18 1_555 1_555
C20 C15 1_555 1_555
H13 C20 1_555 1_555
C21 C19 1_555 1_555
C22 N1 1_555 1_555
H14 C22 1_555 1_555
H15 C22 1_555 1_555
C23 C10 1_555 1_555
C24 C2 1_555 1_555
C25 C26 1_555 1_555
C26 N2 1_555 1_555
N2 C28 1_555 1_555
C27 C28 1_555 1_555
C29 C30 1_555 1_555
N3 C29 1_555 1_555
C31 C32 1_555 1_555
C32 N4 1_555 1_555
Cd1_2 O7 1_555 1_555
Cd1C O6 1_555 1_555
Cd1C_2 O4 1_555 1_555
O4C Cd1 1_555 1_555
O5C Cd1 1_555 1_555
O6C Cd1 1_555 1_555
O7_2 Cd1 1_555 1_555
O8_2 Cd1 1_555 1_555
O5 Cd1C_2 1_555 1_555
O8 Cd1_2 1_555 1_555
C5 C6 1_555 1_555
C6 C7 1_555 1_555
C8 C22 1_555 1_555
C12 C13 1_555 1_555
C19 C20 1_555 1_555

#END
