
#######################################################################
#
#                 Cambridge Crystallographic Data Centre
#                                CCDC 
#
#######################################################################
#
# If this CIF has been generated from an entry in the Cambridge 
# Structural Database, then it will include bibliographic, chemical, 
# crystal, experimental, refinement or atomic coordinate data resulting 
# from the CCDC's data processing and validation procedures.
#
#######################################################################

data_DILJIT
_symmetry_cell_setting           monoclinic
_symmetry_space_group_name_H-M   'P 21/c'
_symmetry_Int_Tables_number      14
_space_group_name_Hall           '-P 2ybc'
loop_
_symmetry_equiv_pos_site_id
_symmetry_equiv_pos_as_xyz
1 x,y,z
2 -x,1/2+y,1/2-z
3 -x,-y,-z
4 x,1/2-y,1/2+z
_cell_length_a                   10.0732(6)
_cell_length_b                   26.6408(15)
_cell_length_c                   14.5918(7)
_cell_angle_alpha                90
_cell_angle_beta                 110.730(3)
_cell_angle_gamma                90
_cell_volume                     3662.31
loop_
_atom_site_label
_atom_site_type_symbol
_atom_site_fract_x
_atom_site_fract_y
_atom_site_fract_z
Cd1 Cd 0.60297(4) -0.345712(16) 0.49061(3)
C1 C 0.3502(6) -0.3041(3) 0.4950(4)
C2 C 0.2224(6) -0.2746(2) 0.4955(4)
C3 C 0.2261(6) -0.2230(2) 0.4916(4)
H1 H 0.3065 -0.2071 0.4884
C4 C 0.1097(6) -0.1940(2) 0.4926(4)
C5 C -0.0105(6) -0.2195(2) 0.4944(4)
H2 H -0.0905 -0.2013 0.4918
C6 C -0.0125(6) -0.2714(2) 0.5000(4)
C7 C 0.1044(6) -0.2993(2) 0.5012(4)
H3 H 0.1036 -0.3341 0.5059
C8 C -0.1439(7) -0.2984(3) 0.5000(5)
C9 C 0.2157(7) -0.1168(2) 0.4550(5)
H4 H 0.1706 -0.0867 0.4203
H5 H 0.2357 -0.1385 0.4082
C10 C 0.3549(6) -0.1019(2) 0.5325(5)
C11 C 0.3905(6) -0.1130(2) 0.6301(4)
H6 H 0.3282 -0.1320 0.6501
C12 C 0.5154(7) -0.0968(2) 0.6989(5)
C13 C 0.6076(8) -0.0695(3) 0.6693(6)
H7 H 0.6921 -0.0582 0.7155
C14 C 0.5773(9) -0.0588(3) 0.5726(6)
H8 H 0.6416 -0.0405 0.5533
C15 C 0.4523(8) -0.0749(3) 0.5037(5)
H9 H 0.4324 -0.0677 0.4378
C16 C 0.5527(9) -0.1098(3) 0.8071(5)
C17 C 0.0223(7) -0.1106(2) 0.5208(5)
H10 H 0.0784 -0.0843 0.5630
H11 H -0.0188 -0.1306 0.5594
C18 C -0.0968(6) -0.0863(2) 0.4383(4)
C19 C -0.1511(6) -0.1085(2) 0.3463(4)
H12 H -0.1142 -0.1391 0.3357
C20 C -0.2584(6) -0.0862(2) 0.2707(4)
C21 C -0.3141(7) -0.0411(2) 0.2863(5)
H13 H -0.3848 -0.0254 0.2350
C22 C -0.2649(7) -0.0192(2) 0.3778(5)
H14 H -0.3052 0.0105 0.3890
C23 C -0.1556(7) -0.0415(2) 0.4528(5)
H15 H -0.1212 -0.0262 0.5140
C24 C -0.3142(6) -0.1111(3) 0.1714(5)
N1 N 0.1161(5) -0.14216(18) 0.4903(4)
O1 O 0.4531(4) -0.28037(16) 0.4878(3)
O2 O 0.3498(5) -0.35072(16) 0.5017(4)
O3 O -0.2617(5) -0.27774(18) 0.4583(3)
O4 O -0.1332(5) -0.33969(19) 0.5395(4)
O5 O 0.4764(7) -0.1401(2) 0.8288(4)
O6 O 0.6583(7) -0.0913(3) 0.8677(4)
O7 O -0.3114(5) -0.15820(15) 0.1684(3)
O8 O -0.3574(5) -0.08471(16) 0.0966(3)
Cd1_2 Cd -0.39703(4) -0.345712(16) 0.49061(3)
Cd1C Cd -0.39703(4) -0.154288(16) -0.00939(3)
Cd1C_2 Cd 0.60297(4) -0.154288(16) 0.99061(3)
O3_2 O 0.7383(5) -0.27774(18) 0.4583(3)
O4_2 O 0.8668(5) -0.33969(19) 0.5395(4)
O5C O 0.4764(7) -0.3599(2) 0.3288(4)
O6C O 0.6583(7) -0.4087(3) 0.3677(4)
O7C O 0.6886(5) -0.34180(15) 0.6684(3)
O8C O 0.6426(5) -0.41529(16) 0.5966(3)
C25 C -0.3390(15) -0.2773(3) 0.2029(7)
H16 H -0.3754 -0.3091 0.2161
H17 H -0.3915 -0.2683 0.1353
C26 C -0.5109(10) -0.2273(5) 0.2655(9)
H18 H -0.5697 -0.2182 0.1991
H19 H -0.5500 -0.2575 0.2831
C27 C -0.1862(15) -0.2828(5) 0.2172(9)
H20 H -0.1750 -0.3089 0.1751
H21 H -0.1339 -0.2914 0.2842
H22 H -0.1510 -0.2518 0.2013
C28 C -0.5129(14) -0.1855(6) 0.3344(11)
H23 H -0.6087 -0.1797 0.3308
H24 H -0.4758 -0.1554 0.3161
H25 H -0.4555 -0.1946 0.4002
N2 N -0.3611(7) -0.2375(2) 0.2698(4)
H26 H -0.3254 -0.2085 0.2569
H27 H -0.3090 -0.2460 0.3319
C29 C 0.2261(18) -0.4615(5) 0.3859(13)
H28 H 0.2104 -0.4974 0.3832
H29 H 0.3197 -0.4551 0.3838
C30 C 0.3099(11) -0.4667(4) 0.5672(10)
H30 H 0.4085 -0.4618 0.5744
H31 H 0.2901 -0.5025 0.5624
C31 C 0.111(2) -0.4354(8) 0.2989(11)
H32 H 0.1165 -0.4477 0.2384
H33 H 0.1273 -0.3998 0.3030
H34 H 0.0192 -0.4424 0.3013
C32 C 0.2820(17) -0.4449(7) 0.6534(10)
H35 H 0.3409 -0.4614 0.7123
H36 H 0.1840 -0.4497 0.6452
H37 H 0.3034 -0.4097 0.6580
N3 N 0.2146(8) -0.4404(3) 0.4772(6)
H38 H 0.1242 -0.4430 0.4743
H39 H 0.2372 -0.4076 0.4813
O9 O -0.0645(6) -0.4315(2) 0.4783(6)
loop_
_geom_bond_atom_site_label_1
_geom_bond_atom_site_label_2
_geom_bond_site_symmetry_1
_geom_bond_site_symmetry_2
Cd1 O1 1_555 1_555
C1 C2 1_555 1_555
C2 C3 1_555 1_555
C3 H1 1_555 1_555
C4 C3 1_555 1_555
C5 C4 1_555 1_555
H2 C5 1_555 1_555
C6 C5 1_555 1_555
C7 C2 1_555 1_555
H3 C7 1_555 1_555
C8 C6 1_555 1_555
C9 H4 1_555 1_555
H5 C9 1_555 1_555
C10 C9 1_555 1_555
C11 C10 1_555 1_555
H6 C11 1_555 1_555
C12 C11 1_555 1_555
C13 C12 1_555 1_555
H7 C13 1_555 1_555
C14 C13 1_555 1_555
H8 C14 1_555 1_555
C15 C10 1_555 1_555
H9 C15 1_555 1_555
C16 C12 1_555 1_555
C17 H10 1_555 1_555
H11 C17 1_555 1_555
C18 C17 1_555 1_555
C19 C18 1_555 1_555
H12 C19 1_555 1_555
C20 C19 1_555 1_555
C21 C20 1_555 1_555
H13 C21 1_555 1_555
C22 C21 1_555 1_555
H14 C22 1_555 1_555
C23 C18 1_555 1_555
H15 C23 1_555 1_555
C24 C20 1_555 1_555
N1 C4 1_555 1_555
O1 C1 1_555 1_555
O2 Cd1 1_555 1_555
O3 C8 1_555 1_555
O4 C8 1_555 1_555
O5 C16 1_555 1_555
O6 C16 1_555 1_555
O7 C24 1_555 1_555
O8 C24 1_555 1_555
C25 H16 1_555 1_555
H17 C25 1_555 1_555
C26 H18 1_555 1_555
H19 C26 1_555 1_555
C27 C25 1_555 1_555
H20 C27 1_555 1_555
H21 C27 1_555 1_555
H22 C27 1_555 1_555
C28 C26 1_555 1_555
H23 C28 1_555 1_555
H24 C28 1_555 1_555
H25 C28 1_555 1_555
N2 C25 1_555 1_555
H26 N2 1_555 1_555
H27 N2 1_555 1_555
C29 H28 1_555 1_555
H29 C29 1_555 1_555
C30 H30 1_555 1_555
H31 C30 1_555 1_555
C31 C29 1_555 1_555
H32 C31 1_555 1_555
H33 C31 1_555 1_555
H34 C31 1_555 1_555
C32 C30 1_555 1_555
H35 C32 1_555 1_555
H36 C32 1_555 1_555
H37 C32 1_555 1_555
N3 C29 1_555 1_555
H38 N3 1_555 1_555
H39 N3 1_555 1_555
Cd1_2 O3 1_555 1_555
Cd1C O7 1_555 1_555
Cd1C_2 O5 1_555 1_555
O3_2 Cd1 1_555 1_555
O4_2 Cd1 1_555 1_555
O5C Cd1 1_555 1_555
O6C Cd1 1_555 1_555
O7C Cd1 1_555 1_555
O8C Cd1 1_555 1_555
C1 O2 1_555 1_555
C6 C7 1_555 1_555
C9 N1 1_555 1_555
C14 C15 1_555 1_555
C17 N1 1_555 1_555
C22 C23 1_555 1_555
O4 Cd1_2 1_555 1_555
O6 Cd1C_2 1_555 1_555
O8 Cd1C 1_555 1_555
C26 N2 1_555 1_555
C30 N3 1_555 1_555

#END
