
#######################################################################
#
#                 Cambridge Crystallographic Data Centre
#                                CCDC 
#
#######################################################################
#
# If this CIF has been generated from an entry in the Cambridge 
# Structural Database, then it will include bibliographic, chemical, 
# crystal, experimental, refinement or atomic coordinate data resulting 
# from the CCDC's data processing and validation procedures.
#
#######################################################################

data_DILJEP
_symmetry_cell_setting           monoclinic
_symmetry_space_group_name_H-M   'P 21/c'
_symmetry_Int_Tables_number      14
_space_group_name_Hall           '-P 2ybc'
loop_
_symmetry_equiv_pos_site_id
_symmetry_equiv_pos_as_xyz
1 x,y,z
2 -x,1/2+y,1/2-z
3 -x,-y,-z
4 x,1/2-y,1/2+z
_cell_length_a                   15.972(2)
_cell_length_b                   21.984(3)
_cell_length_c                   20.090(3)
_cell_angle_alpha                90
_cell_angle_beta                 113.194(2)
_cell_angle_gamma                90
_cell_volume                     6484.03
loop_
_atom_site_label
_atom_site_type_symbol
_atom_site_fract_x
_atom_site_fract_y
_atom_site_fract_z
Cd1 Cd -0.68775(3) 0.36469(2) -0.08075(3)
Cd2 Cd -0.19266(3) 0.37686(2) 0.41686(3)
O1 O -0.5721(3) 0.3547(3) 0.0312(3)
O2 O -1.0648(4) 0.1228(2) 0.0320(3)
C1 C -1.0721(5) 0.1786(3) 0.0351(4)
O3 O -0.7843(3) 0.3541(2) -0.0070(3)
O4 O -0.2676(4) 0.0451(3) -0.0534(3)
O5 O -0.5684(3) 0.1416(2) 0.3727(3)
O6 O -1.1169(3) 0.4507(2) 0.3818(3)
C2 C -0.9459(4) 0.3080(3) 0.1631(4)
C3 C -0.4298(5) 0.1835(3) 0.1803(4)
O7 O -1.1302(3) 0.2102(2) -0.0133(3)
O8 O -0.7940(3) 0.1252(2) 0.2740(3)
O9 O -0.2903(4) 0.1313(3) -0.0071(3)
C4 C -0.3785(4) 0.2251(3) 0.2358(4)
H1 H -0.3380 0.2101 0.2800
N1 N -0.4168(4) 0.1206(3) 0.1920(3)
C5 C -1.0710(5) 0.4153(3) 0.3613(4)
O10 O -1.0821(4) 0.3593(2) 0.3567(3)
O11 O -0.7863(3) 0.2033(2) 0.3446(3)
O12 O -0.6198(4) 0.2628(3) -0.0102(3)
O13 O -0.3181(4) 0.3828(2) 0.2675(3)
O14 O -0.2930(3) 0.3075(2) 0.3461(2)
C6 C -1.0042(4) 0.2751(3) 0.1042(4)
H2 H -1.0443 0.2961 0.0642
C7 C -0.3284(5) 0.3287(3) 0.2837(4)
C8 C -1.0052(4) 0.2123(3) 0.1028(4)
C9 C -0.3874(4) 0.2876(3) 0.2255(4)
N2 N -0.9477(4) 0.3706(3) 0.1616(3)
C10 C -0.9720(4) 0.4131(3) 0.2889(4)
H3 H -1.0001 0.3769 0.2677
C11 C -0.8873(4) 0.2115(3) 0.2203(4)
C12 C -0.9451(4) 0.1800(3) 0.1622(3)
H4 H -0.9446 0.1377 0.1621
C13 C -0.8787(5) 0.4072(3) 0.2122(4)
H5 H -0.8617 0.4385 0.1859
H6 H -0.8255 0.3820 0.2366
O15 O -0.6039(3) 0.0514(2) 0.4018(3)
C14 C -0.5037(4) 0.2711(3) 0.1062(4)
C15 C -0.4524(5) 0.3103(3) 0.1598(4)
H7 H -0.4605 0.3520 0.1527
C16 C -0.9199(5) 0.4092(3) -0.0369(4)
C17 C -0.4460(4) 0.0869(3) 0.3206(4)
H8 H -0.4722 0.1234 0.2989
C18 C -0.8877(4) 0.2746(3) 0.2214(4)
H9 H -0.8480 0.2950 0.2623
C19 C -0.5696(5) 0.2988(4) 0.0377(4)
C20 C -0.9984(4) 0.4417(3) 0.3400(4)
C21 C -0.8294(5) 0.3967(4) -0.0422(4)
C22 C -0.9285(5) 0.3984(3) 0.0281(4)
H10 H -0.8795 0.3834 0.0678
C23 C -0.5543(5) 0.0858(3) 0.3813(4)
C24 C -0.3458(5) 0.0925(3) 0.2529(4)
H11 H -0.3013 0.1233 0.2783
H12 H -0.3153 0.0626 0.2348
C25 C -0.3440(5) 0.0399(4) 0.0263(4)
C26 C -0.2987(5) 0.0759(4) -0.0147(5)
C27 C -0.9049(5) 0.4376(3) 0.2693(4)
C28 C -0.3765(5) 0.0619(3) 0.3059(4)
C29 C -0.4786(5) 0.0762(3) 0.1412(4)
H13 H -0.5300 0.0976 0.1058
H14 H -0.5018 0.0488 0.1676
C30 C -1.0216(5) 0.4034(3) 0.1052(4)
H15 H -1.0258 0.4437 0.1235
H16 H -1.0783 0.3825 0.0969
C31 C -0.4927(5) 0.2091(3) 0.1153(4)
H17 H -0.5274 0.1835 0.0778
C32 C -0.4369(5) 0.0039(3) 0.4010(4)
H18 H -0.4569 -0.0154 0.4332
C33 C -0.8181(5) 0.1771(3) 0.2841(4)
C34 C -0.9545(5) 0.4947(3) 0.3733(4)
H19 H -0.9720 0.5145 0.4067
C35 C -0.3378(5) 0.0092(3) 0.3395(5)
H20 H -0.2896 -0.0072 0.3305
C36 C -0.4770(4) 0.0581(3) 0.3671(4)
C37 C -0.4308(5) 0.0393(3) 0.1018(4)
C38 C -0.9970(5) 0.4317(3) -0.0983(4)
H21 H -0.9916 0.4389 -0.1420
O16 O -0.8050(4) 0.4295(3) -0.0830(3)
C39 C -0.3873(5) 0.0719(4) 0.0628(4)
H22 H -0.3881 0.1142 0.0619
C40 C -1.0890(5) 0.4326(3) -0.0289(4)
H23 H -1.1448 0.4400 -0.0260
C41 C -0.8840(6) 0.5182(3) 0.3564(5)
H24 H -0.8528 0.5528 0.3798
C42 C -1.0133(5) 0.4107(3) 0.0333(4)
C43 C -0.3672(6) -0.0201(3) 0.3856(5)
H25 H -0.3402 -0.0566 0.4068
C44 C -1.0785(5) 0.4423(4) -0.0918(4)
H26 H -1.1277 0.4566 -0.1318
C45 C -0.8607(5) 0.4899(3) 0.3049(4)
H27 H -0.8141 0.5062 0.2937
C46 C -0.4293(6) -0.0255(4) 0.1027(5)
H28 H -0.4544 -0.0470 0.1302
C47 C -0.3457(6) -0.0249(4) 0.0269(5)
H29 H -0.3160 -0.0464 0.0028
C48 C -0.3903(6) -0.0560(4) 0.0625(5)
H30 H -0.3942 -0.0982 0.0593
Cd1C Cd -0.68775(3) 0.13531(2) 0.41925(3)
Cd2_2 Cd -1.19266(3) 0.37686(2) 0.41686(3)
Cd2C Cd -1.19266(3) 0.12314(2) -0.08314(3)
Cd2C_2 Cd -0.19266(3) 0.12314(2) -0.08314(3)
O2C O -0.0648(4) 0.3772(2) 0.5320(3)
O4C O -0.2676(4) 0.4549(3) 0.4466(3)
O5C O -0.5684(3) 0.3584(2) -0.1273(3)
O6_2 O -0.1169(3) 0.4507(2) 0.3818(3)
O7C O -0.1302(3) 0.2898(2) 0.4867(3)
O8C O -0.7940(3) 0.3748(2) -0.2260(3)
O9C O -0.2903(4) 0.3687(3) 0.4929(3)
O10_2 O -0.0821(4) 0.3593(2) 0.3567(3)
O11C O -0.7863(3) 0.2967(2) -0.1554(3)
O15C O -0.6039(3) 0.4486(2) -0.0982(3)
N3 N -0.6865(4) -0.0572(3) 0.3526(3)
H31 H -0.6565 -0.0217 0.3573
H32 H -0.6743 -0.0801 0.3203
C49 C -0.7830(5) -0.0451(4) 0.3247(4)
H33 H -0.8011 -0.0243 0.2791
H34 H -0.7965 -0.0201 0.3584
H35 H -0.8156 -0.0828 0.3179
C50 C -0.6520(7) -0.0889(4) 0.4235(5)
H36 H -0.5876 -0.0956 0.4393
H37 H -0.6825 -0.1273 0.4186
H38 H -0.6635 -0.0644 0.4586
N4 N -0.1569(5) 0.2224(3) 0.2208(4)
O17 O -0.2213(6) 0.2889(4) 0.1256(4)
C51 C -0.1798(8) 0.2786(5) 0.1902(8)
H39 H -0.1623 0.3120 0.2211
C52 C -0.1828(9) 0.1730(5) 0.1741(7)
H40 H -0.1633 0.1361 0.2013
H41 H -0.1552 0.1762 0.1395
H42 H -0.2479 0.1727 0.1491
C53 C -0.1095(8) 0.2137(5) 0.3008(6)
H43 H -0.0982 0.2526 0.3244
H44 H -0.0528 0.1930 0.3114
H45 H -0.1473 0.1898 0.3179
N5 N -1.2050(4) 0.5585(3) 0.3446(3)
H46 H -1.1774 0.5227 0.3453
H47 H -1.1917 0.5833 0.3145
C54 C -1.1646(6) 0.5851(4) 0.4190(4)
H48 H -1.1002 0.5905 0.4331
H49 H -1.1753 0.5582 0.4525
H50 H -1.1923 0.6238 0.4192
C55 C -1.3069(6) 0.5479(4) 0.3132(5)
H51 H -1.3253 0.5312 0.2653
H52 H -1.3377 0.5858 0.3109
H53 H -1.3221 0.5199 0.3433
N6 N -0.8082(4) 0.2269(3) -0.0315(4)
H54 H -0.7697 0.2314 0.0151
H55 H -0.7988 0.2586 -0.0561
C56 C -0.7818(7) 0.1717(4) -0.0587(5)
H56 H -0.7191 0.1746 -0.0522
H57 H -0.8193 0.1671 -0.1093
H58 H -0.7898 0.1371 -0.0326
C57 C -0.8986(7) 0.2319(5) -0.0346(7)
H59 H -0.9056 0.2704 -0.0146
H60 H -0.9099 0.1996 -0.0071
H61 H -0.9412 0.2293 -0.0840
N7 N -0.3054(5) 0.2584(3) -0.0256(4)
H62 H -0.2735 0.2530 0.0222
H63 H -0.2922 0.2269 -0.0484
C58 C -0.2728(7) 0.3124(4) -0.0466(5)
H64 H -0.2088 0.3085 -0.0352
H65 H -0.2831 0.3465 -0.0209
H66 H -0.3047 0.3186 -0.0977
C59 C -0.4021(7) 0.2550(5) -0.0394(7)
H67 H -0.4148 0.2165 -0.0226
H68 H -0.4377 0.2588 -0.0904
H69 H -0.4175 0.2873 -0.0141
N8 N -0.6536(5) 0.2805(4) 0.2128(5)
O18 O -0.7139(5) 0.2168(5) 0.1229(4)
C60 C -0.6667(12) 0.3271(10) 0.1830(12)
H70 H -0.6419 0.3591 0.2177
H71 H -0.7310 0.3331 0.1575
H72 H -0.6379 0.3275 0.1491
C61 C -0.6586(12) 0.2210(8) 0.2074(10)
H73 H -0.6365 0.1908 0.2424
C62 C -0.6178(15) 0.2894(10) 0.2861(11)
H74 H -0.6067 0.2508 0.3103
H75 H -0.6600 0.3124 0.2994
H76 H -0.5615 0.3114 0.3000
loop_
_geom_bond_atom_site_label_1
_geom_bond_atom_site_label_2
_geom_bond_site_symmetry_1
_geom_bond_site_symmetry_2
Cd1 O1 1_555 1_555
Cd2 O14 1_555 1_555
O1 C19 1_555 1_555
O2 C1 1_555 1_555
C1 O7 1_555 1_555
O3 Cd1 1_555 1_555
O4 C26 1_555 1_555
O5 C23 1_555 1_555
O6 C5 1_555 1_555
C2 C6 1_555 1_555
C3 C4 1_555 1_555
O7 Cd2C 1_555 1_555
O8 C33 1_555 1_555
O9 C26 1_555 1_555
C4 H1 1_555 1_555
N1 C3 1_555 1_555
C5 O10 1_555 1_555
O10 Cd2_2 1_555 1_555
O11 C33 1_555 1_555
O12 Cd1 1_555 1_555
O13 C7 1_555 1_555
O14 C7 1_555 1_555
C6 H2 1_555 1_555
C7 C9 1_555 1_555
C8 C1 1_555 1_555
C9 C4 1_555 1_555
N2 C2 1_555 1_555
C10 H3 1_555 1_555
C11 C12 1_555 1_555
C12 C8 1_555 1_555
H4 C12 1_555 1_555
C13 N2 1_555 1_555
H5 C13 1_555 1_555
H6 C13 1_555 1_555
O15 C23 1_555 1_555
C14 C15 1_555 1_555
C15 C9 1_555 1_555
H7 C15 1_555 1_555
C16 C21 1_555 1_555
C17 H8 1_555 1_555
C18 C2 1_555 1_555
H9 C18 1_555 1_555
C19 O12 1_555 1_555
C20 C5 1_555 1_555
C21 O3 1_555 1_555
C22 C16 1_555 1_555
H10 C22 1_555 1_555
C23 C36 1_555 1_555
C24 N1 1_555 1_555
H11 C24 1_555 1_555
H12 C24 1_555 1_555
C25 C26 1_555 1_555
C27 C10 1_555 1_555
C28 C17 1_555 1_555
C29 N1 1_555 1_555
H13 C29 1_555 1_555
H14 C29 1_555 1_555
C30 N2 1_555 1_555
H15 C30 1_555 1_555
H16 C30 1_555 1_555
C31 C3 1_555 1_555
H17 C31 1_555 1_555
C32 H18 1_555 1_555
C33 C11 1_555 1_555
C34 C20 1_555 1_555
H19 C34 1_555 1_555
C35 C28 1_555 1_555
H20 C35 1_555 1_555
C36 C17 1_555 1_555
C37 C29 1_555 1_555
C38 C16 1_555 1_555
H21 C38 1_555 1_555
O16 Cd1 1_555 1_555
C39 C25 1_555 1_555
H22 C39 1_555 1_555
C40 H23 1_555 1_555
C41 C34 1_555 1_555
H24 C41 1_555 1_555
C42 C22 1_555 1_555
C43 C32 1_555 1_555
H25 C43 1_555 1_555
C44 C38 1_555 1_555
H26 C44 1_555 1_555
C45 C27 1_555 1_555
H27 C45 1_555 1_555
C46 C37 1_555 1_555
H28 C46 1_555 1_555
C47 C25 1_555 1_555
H29 C47 1_555 1_555
C48 C46 1_555 1_555
H30 C48 1_555 1_555
N3 H31 1_555 1_555
H32 N3 1_555 1_555
C49 N3 1_555 1_555
H33 C49 1_555 1_555
H34 C49 1_555 1_555
H35 C49 1_555 1_555
C50 N3 1_555 1_555
H36 C50 1_555 1_555
H37 C50 1_555 1_555
H38 C50 1_555 1_555
N4 C51 1_555 1_555
O17 C51 1_555 1_555
C51 H39 1_555 1_555
C52 N4 1_555 1_555
H40 C52 1_555 1_555
H41 C52 1_555 1_555
H42 C52 1_555 1_555
C53 N4 1_555 1_555
H43 C53 1_555 1_555
H44 C53 1_555 1_555
H45 C53 1_555 1_555
N5 H46 1_555 1_555
H47 N5 1_555 1_555
C54 N5 1_555 1_555
H48 C54 1_555 1_555
H49 C54 1_555 1_555
H50 C54 1_555 1_555
C55 N5 1_555 1_555
H51 C55 1_555 1_555
H52 C55 1_555 1_555
H53 C55 1_555 1_555
N6 H54 1_555 1_555
H55 N6 1_555 1_555
C56 N6 1_555 1_555
H56 C56 1_555 1_555
H57 C56 1_555 1_555
H58 C56 1_555 1_555
C57 N6 1_555 1_555
H59 C57 1_555 1_555
H60 C57 1_555 1_555
H61 C57 1_555 1_555
N7 H62 1_555 1_555
H63 N7 1_555 1_555
C58 N7 1_555 1_555
H64 C58 1_555 1_555
H65 C58 1_555 1_555
H66 C58 1_555 1_555
C59 N7 1_555 1_555
H67 C59 1_555 1_555
H68 C59 1_555 1_555
H69 C59 1_555 1_555
N8 C60 1_555 1_555
O18 C61 1_555 1_555
C60 H70 1_555 1_555
H71 C60 1_555 1_555
H72 C60 1_555 1_555
C61 N8 1_555 1_555
H73 C61 1_555 1_555
C62 N8 1_555 1_555
H74 C62 1_555 1_555
H75 C62 1_555 1_555
H76 C62 1_555 1_555
Cd1C O5 1_555 1_555
Cd2_2 O6 1_555 1_555
Cd2C O2 1_555 1_555
Cd2C_2 O4 1_555 1_555
O2C Cd2 1_555 1_555
O4C Cd2 1_555 1_555
O5C Cd1 1_555 1_555
O6_2 Cd2 1_555 1_555
O7C Cd2 1_555 1_555
O8C Cd1 1_555 1_555
O9C Cd2 1_555 1_555
O10_2 Cd2 1_555 1_555
O11C Cd1 1_555 1_555
O15C Cd1 1_555 1_555
O8 Cd1C 1_555 1_555
O9 Cd2C_2 1_555 1_555
O11 Cd1C 1_555 1_555
C6 C8 1_555 1_555
C10 C20 1_555 1_555
C11 C18 1_555 1_555
C13 C27 1_555 1_555
O15 Cd1C 1_555 1_555
C14 C19 1_555 1_555
C14 C31 1_555 1_555
C21 O16 1_555 1_555
C24 C28 1_555 1_555
C30 C42 1_555 1_555
C32 C36 1_555 1_555
C35 C43 1_555 1_555
C37 C39 1_555 1_555
C40 C42 1_555 1_555
C40 C44 1_555 1_555
C41 C45 1_555 1_555
C47 C48 1_555 1_555

#END
