
#######################################################################
#
#                 Cambridge Crystallographic Data Centre
#                                CCDC 
#
#######################################################################
#
# If this CIF has been generated from an entry in the Cambridge 
# Structural Database, then it will include bibliographic, chemical, 
# crystal, experimental, refinement or atomic coordinate data resulting 
# from the CCDC's data processing and validation procedures.
#
#######################################################################

data_DILJOZ
_symmetry_cell_setting           monoclinic
_symmetry_space_group_name_H-M   'P 21/c'
_symmetry_Int_Tables_number      14
_space_group_name_Hall           '-P 2ybc'
loop_
_symmetry_equiv_pos_site_id
_symmetry_equiv_pos_as_xyz
1 x,y,z
2 -x,1/2+y,1/2-z
3 -x,-y,-z
4 x,1/2-y,1/2+z
_cell_length_a                   15.392(3)
_cell_length_b                   10.296(2)
_cell_length_c                   25.544(4)
_cell_angle_alpha                90
_cell_angle_beta                 114.597(10)
_cell_angle_gamma                90
_cell_volume                     3680.78
loop_
_atom_site_label
_atom_site_type_symbol
_atom_site_fract_x
_atom_site_fract_y
_atom_site_fract_z
C25 C -0.3717(9) 0.2369(11) -0.1862(6)
H16 H -0.3541 0.1616 -0.2025
H17 H -0.3241 0.2468 -0.1470
C26 C -0.4511(13) 0.2152(17) -0.1850(8)
H18 H -0.4461 0.1404 -0.1614
H19 H -0.4982 0.1992 -0.2233
H20 H -0.4698 0.2892 -0.1692
C27 C -0.4001(9) 0.4804(11) -0.2040(4)
H21 H -0.3970 0.5477 -0.2297
H22 H -0.4666 0.4712 -0.2107
C28 C -0.3519(11) 0.5206(18) -0.1506(7)
H23 H -0.3782 0.6013 -0.1451
H24 H -0.2861 0.5329 -0.1434
H25 H -0.3563 0.4567 -0.1244
N2 N -0.3683(5) 0.3556(6) -0.2203(3)
H26 H -0.3078 0.3657 -0.2164
H27 H -0.4049 0.3402 -0.2577
C29 C -0.1246(6) 0.3326(9) -0.2063(3)
H28 H -0.1618 0.3362 -0.2458
C30 C 0.0212(8) 0.2791(15) -0.1292(5)
H29 H -0.0185 0.2884 -0.1082
H30 H 0.0483 0.1924 -0.1219
C31 C 0.0966(11) 0.3713(14) -0.1079(6)
H31 H 0.1349 0.3552 -0.0678
H32 H 0.0702 0.4573 -0.1127
H33 H 0.1355 0.3639 -0.1290
C32 C -0.0023(8) 0.2490(11) -0.2316(4)
H34 H 0.0583 0.2916 -0.2230
H35 H -0.0466 0.2771 -0.2696
C33 C 0.0118(10) 0.1055(13) -0.2333(7)
H36 H 0.0359 0.0861 -0.2616
H37 H -0.0481 0.0620 -0.2433
H38 H 0.0568 0.0763 -0.1962
O9 O -0.1632(4) 0.3665(6) -0.1746(2)
N3 N -0.0380(5) 0.2927(7) -0.1900(3)
C34 C 1.4258(14) 0.082(2) 0.4942(9)
C35 C 1.357(2) 0.047(2) 0.5149(19)
N4 N 1.5000 0.0000 0.5000
C34B C 1.5742(14) -0.082(2) 0.5058(9)
C35B C 1.643(2) -0.047(2) 0.4851(19)
O10 O 0.5115(7) 0.0476(9) -0.0140(4)
O11 O 0.5275(10) 0.2599(14) -0.0540(6)
Cd1 Cd 1.35551(4) -0.32726(5) 0.36656(2)
O1 O 1.3694(4) -0.0901(5) 0.37423(19)
O2 O 1.3044(3) -0.1816(4) 0.28959(19)
N1 N 1.1314(4) 0.1765(6) 0.1497(2)
O3 O 1.3642(4) 0.4024(5) 0.3851(2)
C1 C 1.3242(5) -0.0823(7) 0.3210(3)
C2 C 1.2319(5) 0.0565(6) 0.2352(3)
H1 H 1.2144 -0.0201 0.2141
C3 C 1.2909(5) 0.0490(7) 0.2931(3)
C4 C 1.3204(5) 0.1627(7) 0.3255(3)
H2 H 1.3595 0.1590 0.3648
C5 C 1.2901(5) 0.2820(6) 0.2979(3)
C6 C 1.2305(4) 0.2866(6) 0.2403(3)
H3 H 1.2115 0.3670 0.2227
C7 C 1.1972(4) 0.1732(7) 0.2071(3)
C8 C 1.3237(5) 0.4066(7) 0.3314(3)
C9 C 1.0997(5) 0.2997(7) 0.1191(3)
H4 H 1.1402 0.3218 0.0998
H5 H 1.1057 0.3680 0.1466
C10 C 0.9970(5) 0.2909(7) 0.0754(3)
C11 C 0.9713(5) 0.3227(8) 0.0174(3)
H6 H 1.0177 0.3487 0.0052
C12 C 0.8767(6) 0.3151(10) -0.0214(3)
H7 H 0.8594 0.3367 -0.0598
C13 C 0.8071(5) 0.2754(8) -0.0033(3)
H8 H 0.7438 0.2680 -0.0299
C14 C 0.9258(5) 0.2533(7) 0.0920(3)
H9 H 0.9424 0.2315 0.1303
C15 C 0.8314(5) 0.2470(7) 0.0536(3)
C16 C 0.7590(6) 0.2062(7) 0.0765(4)
C17 C 1.1214(5) 0.0664(7) 0.1108(3)
H10 H 1.0551 0.0598 0.0834
H11 H 1.1379 -0.0131 0.1332
C18 C 1.1833(5) 0.0783(7) 0.0783(3)
C19 C 1.1448(5) 0.0635(7) 0.0187(3)
H12 H 1.0800 0.0453 -0.0010
C20 C 1.2813(5) 0.1043(7) 0.1067(3)
H13 H 1.3088 0.1131 0.1466
C21 C 1.3379(5) 0.1172(7) 0.0771(3)
C22 C 1.2966(5) 0.1007(8) 0.0174(3)
H14 H 1.3344 0.1070 -0.0030
C23 C 1.1996(5) 0.0750(8) -0.0118(3)
H15 H 1.1720 0.0656 -0.0516
C24 C 1.4449(5) 0.1433(7) 0.1093(3)
O4 O 1.3071(3) 0.5098(4) 0.30277(19)
O5 O 1.4793(3) 0.1535(6) 0.1619(2)
O6 O 0.7879(4) 0.1867(6) 0.1290(3)
O7 O 0.6729(4) 0.1997(6) 0.0416(3)
O8 O 1.4899(3) 0.1520(5) 0.0775(2)
Cd1_2 Cd 1.35551(4) 0.67274(5) 0.36656(2)
Cd1A Cd 0.64449(4) 0.17274(5) 0.13344(2)
Cd1A_2 Cd 1.64449(4) 0.17274(5) 0.13344(2)
O3_2 O 1.3642(4) -0.5976(5) 0.3851(2)
O4_2 O 1.3071(3) -0.4902(4) 0.30277(19)
O6A O 1.2121(4) -0.3133(6) 0.3710(3)
O7A O 1.3271(4) -0.3003(6) 0.4584(3)
O8A O 1.5101(3) -0.3480(5) 0.4225(2)
C36? C 1.434(2) -0.022(4) 0.5230(13)
C37? C 1.366(4) 0.077(4) 0.492(3)
loop_
_geom_bond_atom_site_label_1
_geom_bond_atom_site_label_2
_geom_bond_site_symmetry_1
_geom_bond_site_symmetry_2
Cd1 O1 1_555 1_555
O1 C1 1_555 1_555
O2 Cd1 1_555 1_555
N1 C7 1_555 1_555
O3 C8 1_555 1_555
C1 O2 1_555 1_555
C2 H1 1_555 1_555
C3 C1 1_555 1_555
C4 C3 1_555 1_555
H2 C4 1_555 1_555
C5 C4 1_555 1_555
C6 C5 1_555 1_555
H3 C6 1_555 1_555
C7 C2 1_555 1_555
C8 C5 1_555 1_555
C9 N1 1_555 1_555
H4 C9 1_555 1_555
H5 C9 1_555 1_555
C10 C9 1_555 1_555
C11 C10 1_555 1_555
H6 C11 1_555 1_555
C12 C11 1_555 1_555
H7 C12 1_555 1_555
C13 C12 1_555 1_555
H8 C13 1_555 1_555
C14 C10 1_555 1_555
H9 C14 1_555 1_555
C15 C13 1_555 1_555
C16 C15 1_555 1_555
C17 N1 1_555 1_555
H10 C17 1_555 1_555
H11 C17 1_555 1_555
C18 C17 1_555 1_555
C19 C18 1_555 1_555
H12 C19 1_555 1_555
C20 C18 1_555 1_555
H13 C20 1_555 1_555
C21 C20 1_555 1_555
C22 C21 1_555 1_555
H14 C22 1_555 1_555
C23 C19 1_555 1_555
H15 C23 1_555 1_555
C24 C21 1_555 1_555
O4 C8 1_555 1_555
O5 C24 1_555 1_555
O6 C16 1_555 1_555
O7 C16 1_555 1_555
O8 C24 1_555 1_555
C25 H16 1_555 1_555
H17 C25 1_555 1_555
C26 C25 1_555 1_555
H18 C26 1_555 1_555
H19 C26 1_555 1_555
H20 C26 1_555 1_555
C27 H21 1_555 1_555
H22 C27 1_555 1_555
C28 C27 1_555 1_555
H23 C28 1_555 1_555
H24 C28 1_555 1_555
H25 C28 1_555 1_555
N2 C25 1_555 1_555
H26 N2 1_555 1_555
H27 N2 1_555 1_555
C29 H28 1_555 1_555
C30 H29 1_555 1_555
H30 C30 1_555 1_555
C31 C30 1_555 1_555
H31 C31 1_555 1_555
H32 C31 1_555 1_555
H33 C31 1_555 1_555
C32 H34 1_555 1_555
H35 C32 1_555 1_555
C33 C32 1_555 1_555
H36 C33 1_555 1_555
H37 C33 1_555 1_555
H38 C33 1_555 1_555
O9 C29 1_555 1_555
N3 C29 1_555 1_555
C34 C35 1_555 1_555
N4 C34 1_555 1_555
Cd1_2 O3 1_555 1_555
Cd1A O6 1_555 1_555
Cd1A_2 O8 1_555 1_555
O3_2 Cd1 1_555 1_555
O4_2 Cd1 1_555 1_555
O6A Cd1 1_555 1_555
O7A Cd1 1_555 1_555
O8A Cd1 1_555 1_555
C34B N4 1_555 1_555
C35B C34B 1_555 1_555
C2 C3 1_555 1_555
C6 C7 1_555 1_555
C14 C15 1_555 1_555
C22 C23 1_555 1_555
O4 Cd1_2 1_555 1_555
O7 Cd1A 1_555 1_555
C27 N2 1_555 1_555
C30 N3 1_555 1_555
C32 N3 1_555 1_555

#END
