
#######################################################################
#
#                 Cambridge Crystallographic Data Centre
#                                CCDC 
#
#######################################################################
#
# If this CIF has been generated from an entry in the Cambridge 
# Structural Database, then it will include bibliographic, chemical, 
# crystal, experimental, refinement or atomic coordinate data resulting 
# from the CCDC's data processing and validation procedures.
#
#######################################################################

data_DILJAL
_symmetry_cell_setting           monoclinic
_symmetry_space_group_name_H-M   'P 21'
_symmetry_Int_Tables_number      4
_space_group_name_Hall           'P 2yb'
loop_
_symmetry_equiv_pos_site_id
_symmetry_equiv_pos_as_xyz
1 x,y,z
2 -x,1/2+y,-z
_cell_length_a                   9.9183(16)
_cell_length_b                   22.930(4)
_cell_length_c                   15.082(3)
_cell_angle_alpha                90
_cell_angle_beta                 103.957(3)
_cell_angle_gamma                90
_cell_volume                     3328.78
loop_
_atom_site_label
_atom_site_type_symbol
_atom_site_fract_x
_atom_site_fract_y
_atom_site_fract_z
In1 In 0.54521(10) -0.07995(4) 0.63848(8)
In2 In 0.06404(9) 0.15088(4) 1.17455(8)
C1 C -0.0240(19) 0.1954(9) 0.8419(14)
H1 H -0.0111 0.1553 0.8477
C2 C 0.6530(15) -0.1208(7) 0.9702(11)
H2 H 0.6510 -0.0803 0.9659
O1 O 0.0312(12) 0.1489(8) 1.0166(8)
O2 O -0.2216(9) -0.0874(5) 0.6378(7)
O3 O 0.6013(11) -0.0699(6) 0.7962(8)
O4 O -0.3131(9) -0.0024(4) 0.6405(7)
O5 O 0.9152(10) 0.0826(5) 1.1651(8)
O6 O 0.1132(12) 0.1406(6) 0.3333(8)
O7 O 0.3080(9) -0.0888(6) 0.6513(8)
O8 O 0.3963(10) -0.0067(5) 0.6253(8)
O9 O 0.1975(10) 0.0718(4) 1.1722(8)
O10 O 0.8111(11) 0.1650(6) 1.1831(10)
O11 O 0.0993(10) 0.2247(5) 0.2717(8)
C3 C 0.0432(11) -0.0342(7) 0.6384(9)
H3 H 0.0413 -0.0744 0.6300
O12 O 0.5903(12) -0.1570(5) 0.7342(7)
C4 C 0.1597(15) -0.0004(8) 0.6437(11)
C5 C 0.1854(14) 0.2160(7) 0.5988(11)
C6 C 0.5550(13) 0.1059(7) 1.1764(9)
H4 H 0.5557 0.1460 1.1862
C7 C 0.6365(14) -0.1534(8) 0.8939(12)
C8 C 0.4372(12) 0.0768(6) 1.1700(9)
C9 C 0.1903(14) 0.1830(6) 0.6839(10)
H5 H 0.2681 0.1561 0.6948
H6 H 0.2050 0.2099 0.7349
C10 C -0.0741(15) -0.0009(7) 0.6471(10)
C11 C 0.2944(15) -0.0334(7) 0.6390(11)
C12 C 0.6734(18) -0.1479(7) 1.0576(11)
C13 C 0.6118(16) -0.1257(9) 0.8068(13)
C14 C -0.0462(14) 0.2225(9) 0.7589(14)
O13 O 0.0039(11) 0.2299(6) 1.0824(8)
C15 C 0.6782(13) 0.0786(7) 1.1690(10)
C16 C 0.2165(17) 0.2732(7) 0.5980(12)
H7 H 0.2486 0.2911 0.6544
C17 C -0.0215(17) 0.2313(7) 0.9182(12)
C18 C 0.6768(15) 0.0177(7) 1.1529(11)
H8 H 0.7554 -0.0003 1.1419
C19 C 0.6766(15) -0.1084(7) 1.1392(10)
H9 H 0.6942 -0.1323 1.1939
H10 H 0.7541 -0.0816 1.1454
C20 C 0.1516(17) 0.2228(7) 0.4313(12)
C21 C 0.6493(16) -0.2131(7) 0.9015(13)
H11 H 0.6391 -0.2348 0.8482
C22 C 0.1532(15) 0.1903(7) 0.5139(12)
H12 H 0.1318 0.1507 0.5094
C23 C 0.0059(19) 0.1981(10) 1.0156(13)
C24 C 0.8085(16) 0.1120(8) 1.1742(11)
C25 C -0.2110(14) -0.0318(7) 0.6433(10)
C26 C 0.6768(17) -0.2096(7) 1.0628(12)
H13 H 0.6785 -0.2277 1.1183
C27 C 0.1894(19) 0.2817(8) 0.4414(14)
H14 H 0.2029 0.3031 0.3919
C28 C 0.0582(11) 0.0891(7) 0.6639(9)
N1 N 0.0632(10) 0.1506(11) 0.6790(7)
C29 C -0.0684(16) 0.0561(8) 0.6558(10)
H15 H -0.1495 0.0762 0.6569
C30 C 0.5560(13) -0.0169(7) 1.1532(10)
C31 C 0.6775(19) -0.2435(9) 0.9865(13)
H16 H 0.6951 -0.2834 0.9906
C32 C 0.4358(13) 0.0141(6) 1.1609(10)
H17 H 0.3545 -0.0063 1.1602
C33 C -0.0652(18) 0.1859(7) 0.6697(12)
H18 H -0.1456 0.1606 0.6621
H19 H -0.0784 0.2113 0.6169
C34 C 0.1206(14) 0.1935(7) 0.3418(11)
C35 C -0.0434(15) 0.3136(7) 0.8320(13)
H20 H -0.0387 0.3540 0.8291
C36 C -0.0582(16) 0.2833(7) 0.7502(13)
H21 H -0.0749 0.3020 0.6939
C37 C 0.2058(19) 0.3067(7) 0.5239(15)
H22 H 0.2097 0.3471 0.5295
C38 C -0.0354(19) 0.2911(8) 0.9110(13)
H23 H -0.0389 0.3141 0.9612
C39 C 0.1658(15) 0.0570(7) 0.6527(10)
H24 H 0.2482 0.0758 0.6513
N2 N 0.5533(10) -0.0750(9) 1.1353(8)
C40 C 0.4137(18) -0.2049(8) 1.2103(14)
H25 H 0.4078 -0.2235 1.1547
C41 C 0.4306(17) -0.1457(7) 1.2159(12)
C42 C 0.4407(15) -0.1195(8) 1.2985(12)
H26 H 0.4416 -0.0789 1.3002
C43 C 0.4492(15) -0.1471(9) 1.3754(13)
C44 C 0.405(2) -0.2375(9) 1.2855(13)
H27 H 0.3835 -0.2770 1.2798
C45 C 0.4306(18) -0.2089(7) 1.3734(13)
H28 H 0.4347 -0.2300 1.4267
C46 C 0.4351(14) -0.1133(7) 1.1300(10)
H29 H 0.4339 -0.1417 1.0821
H30 H 0.3511 -0.0902 1.1116
O14 O 0.5042(14) -0.0655(6) 1.4783(9)
O15 O 0.4909(15) -0.1511(6) 1.5408(9)
C47 C 0.4809(19) -0.1222(11) 1.4636(15)
O16 O 0.2973(9) 0.1580(6) 1.1830(6)
C48 C 0.3028(14) 0.1020(6) 1.1749(10)
In1_2 In -0.45479(10) -0.07995(4) 0.63848(8)
In1_3 In 0.54521(10) -0.07995(4) 1.63848(8)
In2_2 In 0.06404(9) 0.15088(4) 0.17455(8)
In2_3 In 1.06404(9) 0.15088(4) 1.17455(8)
O2_2 O 0.7784(9) -0.0874(5) 0.6378(7)
O4_2 O 0.6869(9) -0.0024(4) 0.6405(7)
O5_2 O -0.0848(10) 0.0826(5) 1.1651(8)
O6_2 O 0.1132(12) 0.1406(6) 1.3333(8)
O10_2 O -0.1889(11) 0.1650(6) 1.1831(10)
O11_2 O 0.0993(10) 0.2247(5) 1.2717(8)
O14_2 O 0.5042(14) -0.0655(6) 0.4783(9)
O15_2 O 0.4909(15) -0.1511(6) 0.5408(9)
C49 C 0.647(2) 0.1444(9) 0.9298(13)
H31 H 0.7108 0.1417 0.9887
H32 H 0.5536 0.1457 0.9372
H33 H 0.6657 0.1792 0.8995
N3 N 0.6637(15) 0.0926(6) 0.8739(12)
O17 O 0.4957(13) 0.1242(6) 0.7560(10)
C50 C 0.5880(18) 0.0872(8) 0.7896(13)
H34 H 0.6027 0.0556 0.7544
C51 C 0.764(2) 0.0485(9) 0.9207(16)
H35 H 0.8075 0.0619 0.9811
H36 H 0.8332 0.0424 0.8869
H37 H 0.7161 0.0126 0.9246
N4 N 0.5228(19) 0.0711(8) 0.4900(11)
H38 H 0.6093 0.0659 0.4823
H39 H 0.5051 0.0410 0.5240
C52 C 0.522(3) 0.1235(10) 0.5411(14)
H40 H 0.5958 0.1222 0.5956
H41 H 0.4346 0.1271 0.5574
H42 H 0.5351 0.1564 0.5047
C53 C 0.433(3) 0.0679(11) 0.4067(19)
H43 H 0.4404 0.0304 0.3801
H44 H 0.4539 0.0978 0.3678
H45 H 0.3395 0.0731 0.4133
C54 C 0.841(2) 0.2981(10) 0.1947(16)
H46 H 0.7742 0.3117 0.2265
H47 H 0.8911 0.2656 0.2270
H48 H 0.7942 0.2861 0.1341
N5 N 0.950(3) 0.3505(12) 0.1888(18)
H49 H 0.9801 0.3680 0.2435
H50 H 0.9096 0.3775 0.1475
C55 C 1.083(6) 0.317(4) 0.156(2)
H51 H 1.1494 0.3455 0.1481
H52 H 1.0473 0.2967 0.0997
H53 H 1.1265 0.2896 0.2024
N6 N 0.2561(17) 0.0282(8) 0.9253(12)
O18 O 0.1302(16) -0.0458(7) 0.9802(11)
C56 C 0.288(2) 0.0879(10) 0.9182(16)
H54 H 0.3652 0.0915 0.8901
H55 H 0.3127 0.1050 0.9780
H56 H 0.2090 0.1078 0.8815
C57 C 0.363(2) -0.0139(9) 0.9043(14)
H57 H 0.3362 -0.0532 0.9140
H58 H 0.4522 -0.0058 0.9437
H59 H 0.3670 -0.0092 0.8417
C58 C 0.150(2) 0.0066(11) 0.9662(15)
H60 H 0.0912 0.0337 0.9836
N7 N 0.894(2) 0.0043(9) 0.3874(13)
O19 O 0.763(3) 0.0786(11) 0.4264(17)
C59 C 0.865(3) 0.0512(14) 0.4000(19)
H61 H 0.9301 0.0775 0.3887
C60 C 0.794(3) -0.0360(14) 0.398(2)
H62 H 0.8249 -0.0747 0.3887
H63 H 0.7083 -0.0282 0.3538
H64 H 0.7793 -0.0329 0.4584
C61 C 1.032(3) -0.0090(14) 0.365(2)
H65 H 1.0414 -0.0504 0.3587
H66 H 1.1067 0.0053 0.4126
H67 H 1.0351 0.0096 0.3082
O20 O 0.0187(16) 0.4615(7) 0.8848(11)
O21 O 0.4694(15) 0.2206(7) 0.3416(10)
loop_
_geom_bond_atom_site_label_1
_geom_bond_atom_site_label_2
_geom_bond_site_symmetry_1
_geom_bond_site_symmetry_2
In1 O3 1_555 1_555
In2 O1 1_555 1_555
C1 H1 1_555 1_555
C2 H2 1_555 1_555
O1 C23 1_555 1_555
O2 C25 1_555 1_555
O3 C13 1_555 1_555
O4 C25 1_555 1_555
O5 C24 1_555 1_555
O6 C34 1_555 1_555
O7 In1 1_555 1_555
O8 In1 1_555 1_555
O9 In2 1_555 1_555
O10 C24 1_555 1_555
O11 C34 1_555 1_555
C3 H3 1_555 1_555
O12 In1 1_555 1_555
C4 C3 1_555 1_555
C5 C9 1_555 1_555
C6 H4 1_555 1_555
C7 C2 1_555 1_555
C8 C6 1_555 1_555
C9 H5 1_555 1_555
H6 C9 1_555 1_555
C10 C3 1_555 1_555
C11 O7 1_555 1_555
C12 C2 1_555 1_555
C13 O12 1_555 1_555
C14 C1 1_555 1_555
O13 In2 1_555 1_555
C15 C6 1_555 1_555
C16 C5 1_555 1_555
H7 C16 1_555 1_555
C17 C1 1_555 1_555
C18 C15 1_555 1_555
H8 C18 1_555 1_555
C19 C12 1_555 1_555
H9 C19 1_555 1_555
H10 C19 1_555 1_555
C20 C22 1_555 1_555
C21 C7 1_555 1_555
H11 C21 1_555 1_555
C22 C5 1_555 1_555
H12 C22 1_555 1_555
C23 O13 1_555 1_555
C24 C15 1_555 1_555
C25 C10 1_555 1_555
C26 C12 1_555 1_555
H13 C26 1_555 1_555
C27 C20 1_555 1_555
H14 C27 1_555 1_555
C28 N1 1_555 1_555
N1 C9 1_555 1_555
C29 C10 1_555 1_555
H15 C29 1_555 1_555
C30 C18 1_555 1_555
C31 C21 1_555 1_555
H16 C31 1_555 1_555
C32 C8 1_555 1_555
H17 C32 1_555 1_555
C33 C14 1_555 1_555
H18 C33 1_555 1_555
H19 C33 1_555 1_555
C34 C20 1_555 1_555
C35 H20 1_555 1_555
C36 C14 1_555 1_555
H21 C36 1_555 1_555
C37 C16 1_555 1_555
H22 C37 1_555 1_555
C38 C17 1_555 1_555
H23 C38 1_555 1_555
C39 C4 1_555 1_555
H24 C39 1_555 1_555
N2 C19 1_555 1_555
C40 H25 1_555 1_555
C41 C40 1_555 1_555
C42 C41 1_555 1_555
H26 C42 1_555 1_555
C43 C42 1_555 1_555
C44 C40 1_555 1_555
H27 C44 1_555 1_555
C45 C43 1_555 1_555
H28 C45 1_555 1_555
C46 N2 1_555 1_555
H29 C46 1_555 1_555
H30 C46 1_555 1_555
O14 C47 1_555 1_555
O15 C47 1_555 1_555
C47 C43 1_555 1_555
O16 In2 1_555 1_555
C48 O9 1_555 1_555
C49 H31 1_555 1_555
H32 C49 1_555 1_555
H33 C49 1_555 1_555
N3 C49 1_555 1_555
O17 C50 1_555 1_555
C50 N3 1_555 1_555
H34 C50 1_555 1_555
C51 N3 1_555 1_555
H35 C51 1_555 1_555
H36 C51 1_555 1_555
H37 C51 1_555 1_555
N4 H38 1_555 1_555
H39 N4 1_555 1_555
C52 N4 1_555 1_555
H40 C52 1_555 1_555
H41 C52 1_555 1_555
H42 C52 1_555 1_555
C53 N4 1_555 1_555
H43 C53 1_555 1_555
H44 C53 1_555 1_555
H45 C53 1_555 1_555
C54 H46 1_555 1_555
H47 C54 1_555 1_555
H48 C54 1_555 1_555
N5 C54 1_555 1_555
H49 N5 1_555 1_555
H50 N5 1_555 1_555
C55 N5 1_555 1_555
H51 C55 1_555 1_555
H52 C55 1_555 1_555
H53 C55 1_555 1_555
N6 C56 1_555 1_555
O18 C58 1_555 1_555
C56 H54 1_555 1_555
H55 C56 1_555 1_555
H56 C56 1_555 1_555
C57 N6 1_555 1_555
H57 C57 1_555 1_555
H58 C57 1_555 1_555
H59 C57 1_555 1_555
C58 N6 1_555 1_555
H60 C58 1_555 1_555
N7 C59 1_555 1_555
O19 C59 1_555 1_555
C59 H61 1_555 1_555
C60 N7 1_555 1_555
H62 C60 1_555 1_555
H63 C60 1_555 1_555
H64 C60 1_555 1_555
C61 N7 1_555 1_555
H65 C61 1_555 1_555
H66 C61 1_555 1_555
H67 C61 1_555 1_555
In1_2 O2 1_555 1_555
In1_3 O14 1_555 1_555
In2_2 O6 1_555 1_555
In2_3 O5 1_555 1_555
O2_2 In1 1_555 1_555
O4_2 In1 1_555 1_555
O5_2 In2 1_555 1_555
O6_2 In2 1_555 1_555
O10_2 In2 1_555 1_555
O11_2 In2 1_555 1_555
O14_2 In1 1_555 1_555
O15_2 In1 1_555 1_555
O4 In1_2 1_555 1_555
O8 C11 1_555 1_555
O10 In2_3 1_555 1_555
O11 In2_2 1_555 1_555
C4 C11 1_555 1_555
C7 C13 1_555 1_555
C8 C48 1_555 1_555
C17 C23 1_555 1_555
C26 C31 1_555 1_555
C27 C37 1_555 1_555
C28 C29 1_555 1_555
C28 C39 1_555 1_555
N1 C33 1_555 1_555
C30 C32 1_555 1_555
C30 N2 1_555 1_555
C35 C36 1_555 1_555
C35 C38 1_555 1_555
C41 C46 1_555 1_555
C44 C45 1_555 1_555
O15 In1_3 1_555 1_555
O16 C48 1_555 1_555

#END
