
#######################################################################
#
#                 Cambridge Crystallographic Data Centre
#                                CCDC 
#
#######################################################################
#
# If this CIF has been generated from an entry in the Cambridge 
# Structural Database, then it will include bibliographic, chemical, 
# crystal, experimental, refinement or atomic coordinate data resulting 
# from the CCDC's data processing and validation procedures.
#
#######################################################################

data_DILKIU
_symmetry_cell_setting           rhombohedral
_symmetry_space_group_name_H-M   'R 3 c'
_symmetry_Int_Tables_number      161
_space_group_name_Hall           'R 3 -2"c'
loop_
_symmetry_equiv_pos_site_id
_symmetry_equiv_pos_as_xyz
1 x,y,z
2 -y,x-y,z
3 -x+y,-x,z
4 -x+y,y,1/2+z
5 x,x-y,1/2+z
6 -y,-x,1/2+z
7 2/3+x,1/3+y,1/3+z
8 2/3-y,1/3+x-y,1/3+z
9 2/3-x+y,1/3-x,1/3+z
10 2/3-x+y,1/3+y,5/6+z
11 2/3+x,1/3+x-y,5/6+z
12 2/3-y,1/3-x,5/6+z
13 1/3+x,2/3+y,2/3+z
14 1/3-y,2/3+x-y,2/3+z
15 1/3-x+y,2/3-x,2/3+z
16 1/3-x+y,2/3+y,1/6+z
17 1/3+x,2/3+x-y,1/6+z
18 1/3-y,2/3-x,1/6+z
_cell_length_a                   46.2653(5)
_cell_length_b                   46.2653(5)
_cell_length_c                   15.95404(18)
_cell_angle_alpha                90
_cell_angle_beta                 90
_cell_angle_gamma                120
_cell_volume                     29574.1
loop_
_atom_site_label
_atom_site_type_symbol
_atom_site_fract_x
_atom_site_fract_y
_atom_site_fract_z
Mn1 Mn 0.552506(15) 0.633107(15) 0.41697(4)
Mn2 Mn 0.594695(16) 0.713386(16) 0.38827(4)
Mn3 Mn 0.632794(17) 0.761543(16) 0.56765(4)
Mn4 Mn 0.535992(15) 0.582732(15) 0.23968(4)
C1 C 0.47002(11) 0.57000(11) 0.4456(3)
C2 C 0.48258(10) 0.57811(10) 0.3622(3)
C3 C 0.45777(11) 0.56919(12) 0.3004(3)
C4 C 0.42359(12) 0.55058(13) 0.3186(3)
H1 H 0.4077 0.5438 0.2746
C5 C 0.41314(11) 0.54209(14) 0.4001(3)
C6 C 0.43626(11) 0.55235(13) 0.4619(3)
H2 H 0.429 0.5472 0.5184
C7 C 0.49123(11) 0.57982(15) 0.5183(3)
H3 H 0.4808 0.5703 0.5703
C8 C 0.36761(15) 0.5146(2) 0.4954(4)
H4 H 0.3432 0.5015 0.4959
H5 H 0.375 0.535 0.5284
H6 H 0.3768 0.5015 0.5197
O1 O 0.52189(8) 0.59954(10) 0.5198(2)
O2 O 0.51426(6) 0.59277(7) 0.34562(17)
O3 O 0.49539(9) 0.59223(9) 0.1866(2)
O4 O 0.44368(12) 0.57381(18) 0.1667(3)
O5 O 0.37906(9) 0.52334(12) 0.4110(3)
N1 N 0.46629(11) 0.57893(11) 0.2138(3)
C9 C 0.59938(10) 0.68337(11) 0.5622(3)
C10 C 0.60312(14) 0.65646(13) 0.6054(4)
H7 H 0.5856 0.6343 0.5835
C11 C 0.5993(2) 0.65693(17) 0.6996(4)
H8 H 0.5766 0.652 0.7131
H9 H 0.6154 0.679 0.7214
H10 H 0.6034 0.6401 0.7253
C12 C 0.63861(19) 0.6620(2) 0.5810(7)
H11 H 0.642 0.6449 0.6083
H12 H 0.6559 0.6842 0.5995
H13 H 0.6399 0.6602 0.5201
O6 O 0.58674(7) 0.67756(7) 0.48789(19)
O7 O 0.61133(8) 0.71041(8) 0.5964(2)
C13 C 0.58316(10) 0.66174(10) 0.2401(3)
C14 C 0.60171(11) 0.68995(11) 0.1788(3)
H14 H 0.6152 0.7111 0.2111
C15 C 0.62497(16) 0.68387(13) 0.1257(4)
H15 H 0.6373 0.7028 0.0877
H16 H 0.612 0.6634 0.0929
H17 H 0.6407 0.6814 0.1619
C16 C 0.57700(18) 0.69374(18) 0.1247(5)
H18 H 0.5891 0.7121 0.0849
H19 H 0.5627 0.6986 0.1602
H20 H 0.5632 0.673 0.0938
O8 O 0.58174(7) 0.66790(7) 0.31713(18)
O9 O 0.56890(8) 0.63273(7) 0.21148(19)
C17 C 0.51946(15) 0.67671(18) 0.3832(6)
C18 C 0.4864(2) 0.6747(3) 0.3564(8)
H21 H 0.4672 0.6549 0.3833
C19 C 0.4838(3) 0.6705(4) 0.2603(9)
H22 H 0.4831 0.6496 0.2451
H23 H 0.5032 0.6893 0.234
H24 H 0.4634 0.6698 0.2407
C20 C 0.4874(3) 0.7047(3) 0.3854(10)
H25 H 0.4949 0.7088 0.4439
H26 H 0.4651 0.702 0.3813
H27 H 0.503 0.7236 0.3508
O10 O 0.51742(9) 0.65041(10) 0.4177(3)
O11 O 0.54518(10) 0.70234(10) 0.3663(3)
C21 C 0.57408(11) 0.57925(11) 0.3981(3)
C22 C 0.57668(17) 0.55470(15) 0.4545(4)
H28 H 0.5868 0.5434 0.4224
C23 C 0.5400(2) 0.52829(15) 0.4777(5)
H29 H 0.5273 0.5181 0.4264
H30 H 0.5297 0.5392 0.5081
H31 H 0.54 0.511 0.5133
C24 C 0.5983(2) 0.57174(18) 0.5310(4)
H32 H 0.6009 0.5553 0.5641
H33 H 0.5876 0.5813 0.5654
H34 H 0.6203 0.5895 0.5128
O12 O 0.57900(7) 0.60673(7) 0.4253(2)
O13 O 0.56431(8) 0.56940(7) 0.3231(2)
C25 C 0.58218(12) 0.78093(12) 0.3707(3)
C26 C 0.58456(11) 0.77025(11) 0.4534(3)
C27 C 0.56982(12) 0.77958(13) 0.5179(3)
C28 C 0.55483(14) 0.79900(15) 0.5014(3)
H35 H 0.5456 0.8051 0.5465
C29 C 0.55331(14) 0.80929(15) 0.4215(4)
C30 C 0.56705(13) 0.80033(14) 0.3575(3)
H36 H 0.5663 0.8075 0.3022
C31 C 0.59492(14) 0.77287(14) 0.2990(3)
H37 H 0.5943 0.7832 0.2481
C32 C 0.5378(2) 0.8400(2) 0.3314(4)
H38 H 0.5287 0.8551 0.3337
H39 H 0.5232 0.8205 0.2971
H40 H 0.5601 0.8517 0.3066
O14 O 0.60639(9) 0.75459(9) 0.2948(2)
O15 O 0.59889(7) 0.75281(7) 0.46755(18)
O16 O 0.58555(10) 0.75750(11) 0.6296(2)
O17 O 0.54703(18) 0.7696(2) 0.6520(3)
O18 O 0.53973(13) 0.82938(14) 0.4149(3)
N2 N 0.56790(14) 0.76807(16) 0.6031(3)
C33 C 0.67186(11) 0.75707(10) 0.4097(3)
C34 C 0.70253(13) 0.77591(14) 0.3568(3)
H41 H 0.7224 0.7805 0.3914
C35 C 0.70182(15) 0.75594(18) 0.2788(4)
H42 H 0.7223 0.7691 0.2461
H43 H 0.6824 0.7511 0.2443
H44 H 0.7004 0.735 0.2964
C36 C 0.7052(2) 0.80978(15) 0.3336(4)
H45 H 0.7256 0.8233 0.3011
H46 H 0.7059 0.8217 0.3849
H47 H 0.6858 0.8057 0.3
O19 O 0.64675(7) 0.73287(7) 0.38035(19)
O20 O 0.67265(7) 0.76877(7) 0.48328(19)
C37 C 0.49540(12) 0.50673(12) 0.2334(4)
C38 C 0.46111(18) 0.47527(14) 0.2332(8)
H48 H 0.4597 0.472 0.171
C39 C 0.43388(17) 0.4795(2) 0.2398(7)
H49 H 0.4366 0.4974 0.202
H50 H 0.4319 0.4854 0.2977
H51 H 0.4137 0.4587 0.2244
C40 C 0.46171(18) 0.44506(16) 0.2534(5)
H52 H 0.4805 0.4452 0.2245
H53 H 0.4408 0.4256 0.2353
H54 H 0.4643 0.4439 0.3141
O21 O 0.49645(8) 0.53377(8) 0.2288(3)
O22 O 0.52077(10) 0.50263(8) 0.2396(3)
Mn3M Mn 0.571790(16) 0.537918(23) 0.23432(4)
Mn4H Mn 0.713407(21) 0.797341(15) 0.57301(4)
O13H O 0.67176(11) 0.76902(8) 0.6564(2)
O20M O 0.56456(7) 0.57055(10) 0.14995(19)
O22H O 0.64853(13) 0.81256(10) 0.5729(3)
loop_
_geom_bond_atom_site_label_1
_geom_bond_atom_site_label_2
_geom_bond_site_symmetry_1
_geom_bond_site_symmetry_2
Mn1 O1 1_555 1_555
Mn2 O6 1_555 1_555
Mn3 O7 1_555 1_555
Mn4 O2 1_555 1_555
C1 C2 1_555 1_555
C2 C3 1_555 1_555
C3 C4 1_555 1_555
C4 H1 1_555 1_555
C5 C4 1_555 1_555
C6 C1 1_555 1_555
H2 C6 1_555 1_555
C7 C1 1_555 1_555
H3 C7 1_555 1_555
C8 H4 1_555 1_555
H5 C8 1_555 1_555
H6 C8 1_555 1_555
O1 C7 1_555 1_555
O2 Mn1 1_555 1_555
O3 Mn4 1_555 1_555
O4 N1 1_555 1_555
O5 C5 1_555 1_555
N1 C3 1_555 1_555
C9 C10 1_555 1_555
C10 H7 1_555 1_555
C11 C10 1_555 1_555
H8 C11 1_555 1_555
H9 C11 1_555 1_555
H10 C11 1_555 1_555
C12 C10 1_555 1_555
H11 C12 1_555 1_555
H12 C12 1_555 1_555
H13 C12 1_555 1_555
O6 Mn1 1_555 1_555
O7 C9 1_555 1_555
C13 C14 1_555 1_555
C14 H14 1_555 1_555
C15 C14 1_555 1_555
H15 C15 1_555 1_555
H16 C15 1_555 1_555
H17 C15 1_555 1_555
C16 C14 1_555 1_555
H18 C16 1_555 1_555
H19 C16 1_555 1_555
H20 C16 1_555 1_555
O8 Mn1 1_555 1_555
O9 Mn4 1_555 1_555
C17 C18 1_555 1_555
C18 H21 1_555 1_555
C19 C18 1_555 1_555
H22 C19 1_555 1_555
H23 C19 1_555 1_555
H24 C19 1_555 1_555
C20 C18 1_555 1_555
H25 C20 1_555 1_555
H26 C20 1_555 1_555
H27 C20 1_555 1_555
O10 Mn1 1_555 1_555
O11 Mn2 1_555 1_555
C21 C22 1_555 1_555
C22 H28 1_555 1_555
C23 C22 1_555 1_555
H29 C23 1_555 1_555
H30 C23 1_555 1_555
H31 C23 1_555 1_555
C24 C22 1_555 1_555
H32 C24 1_555 1_555
H33 C24 1_555 1_555
H34 C24 1_555 1_555
O12 Mn1 1_555 1_555
O13 Mn4 1_555 1_555
C25 C26 1_555 1_555
C26 C27 1_555 1_555
C27 C28 1_555 1_555
C28 H35 1_555 1_555
C29 C28 1_555 1_555
C30 C25 1_555 1_555
H36 C30 1_555 1_555
C31 C25 1_555 1_555
H37 C31 1_555 1_555
C32 H38 1_555 1_555
H39 C32 1_555 1_555
H40 C32 1_555 1_555
O14 Mn2 1_555 1_555
O15 Mn2 1_555 1_555
O16 Mn3 1_555 1_555
O17 N2 1_555 1_555
O18 C29 1_555 1_555
N2 C27 1_555 1_555
C33 C34 1_555 1_555
C34 H41 1_555 1_555
C35 C34 1_555 1_555
H42 C35 1_555 1_555
H43 C35 1_555 1_555
H44 C35 1_555 1_555
C36 C34 1_555 1_555
H45 C36 1_555 1_555
H46 C36 1_555 1_555
H47 C36 1_555 1_555
O19 Mn2 1_555 1_555
O20 Mn3 1_555 1_555
C37 C38 1_555 1_555
C38 H48 1_555 1_555
C39 C38 1_555 1_555
H49 C39 1_555 1_555
H50 C39 1_555 1_555
H51 C39 1_555 1_555
C40 C38 1_555 1_555
H52 C40 1_555 1_555
H53 C40 1_555 1_555
H54 C40 1_555 1_555
O21 Mn4 1_555 1_555
O22 C37 1_555 1_555
Mn3M O13 1_555 1_555
Mn4H O20 1_555 1_555
O13H Mn3 1_555 1_555
O20M Mn4 1_555 1_555
O22H Mn3 1_555 1_555
Mn2 O8 1_555 1_555
Mn3 O15 1_555 1_555
C2 O2 1_555 1_555
C5 C6 1_555 1_555
C8 O5 1_555 1_555
O3 N1 1_555 1_555
C9 O6 1_555 1_555
C13 O8 1_555 1_555
C13 O9 1_555 1_555
C17 O10 1_555 1_555
C17 O11 1_555 1_555
C21 O12 1_555 1_555
C21 O13 1_555 1_555
C26 O15 1_555 1_555
C29 C30 1_555 1_555
C31 O14 1_555 1_555
C32 O18 1_555 1_555
O16 N2 1_555 1_555
C33 O19 1_555 1_555
C33 O20 1_555 1_555
C37 O21 1_555 1_555
O22 Mn3M 1_555 1_555
Mn3M O20M 1_555 1_555
Mn4H O13H 1_555 1_555

#END
