
#######################################################################
#
#                 Cambridge Crystallographic Data Centre
#                                CCDC 
#
#######################################################################
#
# If this CIF has been generated from an entry in the Cambridge 
# Structural Database, then it will include bibliographic, chemical, 
# crystal, experimental, refinement or atomic coordinate data resulting 
# from the CCDC's data processing and validation procedures.
#
#######################################################################

data_DILPAR
_symmetry_cell_setting           triclinic
_symmetry_space_group_name_H-M   'P -1'
_symmetry_Int_Tables_number      2
_space_group_name_Hall           '-P 1'
loop_
_symmetry_equiv_pos_site_id
_symmetry_equiv_pos_as_xyz
1 x,y,z
2 -x,-y,-z
_cell_length_a                   8.948(4)
_cell_length_b                   10.202(4)
_cell_length_c                   18.399(8)
_cell_angle_alpha                92.234(5)
_cell_angle_beta                 99.486(5)
_cell_angle_gamma                105.651(5)
_cell_volume                     1589.04
loop_
_atom_site_label
_atom_site_type_symbol
_atom_site_fract_x
_atom_site_fract_y
_atom_site_fract_z
Sm1 Sm 0.18352(4) 0.38914(4) 0.02058(2)
Ag1 Ag 0.20311(10) 0.04572(9) 0.42481(5)
S1 S 0.3124(3) 0.3177(3) 0.33055(13)
S2 S 0.1324(2) 0.6641(2) 0.14464(11)
O1 O 0.3920(10) 0.3738(9) 0.4033(4)
O2 O 0.2203(9) 0.1738(8) 0.3264(4)
O3 O 0.4135(8) 0.3399(8) 0.2751(4)
O4 O 0.2282(7) 0.7958(6) 0.1792(3)
O5 O 0.2196(6) 0.5957(6) 0.1022(3)
O6 O -0.0192(7) 0.6688(6) 0.1021(3)
O7 O 0.1407(6) 0.1424(5) -0.0137(3)
O8 O 0.3453(7) 0.2852(6) -0.0464(4)
O9 O 0.2860(6) -0.4225(6) -0.0515(3)
O10 O 0.0684(6) -0.3634(6) -0.0451(3)
N1 N -0.3895(10) -0.0993(9) 0.4646(4)
N2 N -0.1306(10) 0.1210(8) 0.4916(4)
N3 N 0.0449(10) 0.1290(9) 0.6272(4)
C1 C -0.5205(13) -0.1995(12) 0.4555(6)
H1 H -0.5302 -0.2637 0.4903
C2 C -0.6470(13) -0.2154(12) 0.3964(6)
H2 H -0.7362 -0.2899 0.3909
C3 C -0.6350(14) -0.1168(15) 0.3464(6)
H3 H -0.7177 -0.1222 0.3074
C4 C -0.4974(14) -0.0095(13) 0.3553(5)
H4 H -0.4875 0.0583 0.3226
C5 C -0.3737(12) -0.0043(11) 0.4142(5)
C6 C -0.2219(11) 0.1050(10) 0.4237(5)
C7 C -0.1742(13) 0.1874(11) 0.3700(5)
H5 H -0.2403 0.1777 0.3243
C8 C -0.0278(12) 0.2858(11) 0.3829(5)
C9 C 0.0625(12) 0.2997(10) 0.4539(5)
H6 H 0.1592 0.3661 0.4657
C10 C 0.0086(12) 0.2154(11) 0.5066(5)
C11 C 0.1049(12) 0.2265(11) 0.5844(5)
C12 C 0.2409(12) 0.3285(11) 0.6090(6)
H7 H 0.2785 0.3962 0.5789
C13 C 0.3225(15) 0.3285(14) 0.6811(7)
H8 H 0.4162 0.3957 0.6993
C14 C 0.2631(16) 0.2294(13) 0.7237(7)
H9 H 0.3161 0.2282 0.7715
C15 C 0.1252(13) 0.1312(11) 0.6967(6)
H10 H 0.0854 0.0641 0.7267
C16 C 0.0181(12) 0.3765(10) 0.3252(5)
C17 C 0.1642(11) 0.4050(10) 0.3013(5)
C18 C 0.1980(11) 0.4963(9) 0.2485(5)
H11 H 0.2971 0.5176 0.2352
C19 C 0.0855(11) 0.5563(9) 0.2152(5)
C20 C -0.0630(12) 0.5261(10) 0.2352(5)
H12 H -0.1400 0.5637 0.2119
C21 C -0.0938(14) 0.4396(12) 0.2899(6)
H13 H -0.1918 0.4219 0.3041
C22 C 0.2631(9) 0.1626(8) -0.0423(4)
C23 C 0.3141(9) 0.0453(8) -0.0699(4)
C24 C 0.4384(9) 0.0637(8) -0.1075(5)
H14 H 0.4922 0.1514 -0.1164
C25 C 0.4837(10) -0.0465(9) -0.1320(5)
H15 H 0.5665 -0.0327 -0.1581
C26 C 0.4072(10) -0.1770(9) -0.1182(5)
H16 H 0.4387 -0.2507 -0.1349
C27 C 0.2823(9) -0.1992(8) -0.0790(4)
C28 C 0.2343(9) -0.0868(8) -0.0562(4)
H17 H 0.1489 -0.1001 -0.0319
C29 C 0.2072(9) -0.3368(8) -0.0583(4)
O11 O 0.2264(8) 0.2743(6) 0.1301(3)
H18 H 0.2778 0.2809 0.1738
H19 H 0.2335 0.2025 0.1074
O12 O 0.4561(6) 0.4864(5) 0.0852(3)
H20 H 0.5046 0.5715 0.0866
H21 H 0.5234 0.4425 0.0812
Sm1_2 Sm 0.18352(4) -0.61086(4) 0.02058(2)
Sm1A Sm -0.18352(4) -0.38914(4) -0.02058(2)
Sm1A_2 Sm -0.18352(4) 0.61086(4) -0.02058(2)
Ag1A Ag -0.20311(10) -0.04572(9) 0.57519(5)
O6A O 0.0192(7) 0.3312(6) -0.1021(3)
O9_2 O 0.2860(6) 0.5775(6) -0.0515(3)
O10A O -0.0684(6) 0.3634(6) 0.0451(3)
N1A N 0.3895(10) 0.0993(9) 0.5354(4)
N2A N 0.1306(10) -0.1210(8) 0.5084(4)
N3A N -0.0449(10) -0.1290(9) 0.3728(4)
O13 O 0.0842(9) 0.0126(7) 0.1434(5)
H22 H 0.1072 -0.0498 0.1691
H23 H 0.0067 -0.0261 0.1095
loop_
_geom_bond_atom_site_label_1
_geom_bond_atom_site_label_2
_geom_bond_site_symmetry_1
_geom_bond_site_symmetry_2
Sm1 O5 1_555 1_555
Ag1 O2 1_555 1_555
S1 O1 1_555 1_555
S2 O4 1_555 1_555
O2 S1 1_555 1_555
O3 S1 1_555 1_555
O5 S2 1_555 1_555
O6 S2 1_555 1_555
O7 Sm1 1_555 1_555
O8 Sm1 1_555 1_555
O9 C29 1_555 1_555
O10 C29 1_555 1_555
N1 C1 1_555 1_555
N2 C6 1_555 1_555
N3 C11 1_555 1_555
C1 H1 1_555 1_555
C2 C1 1_555 1_555
H2 C2 1_555 1_555
C3 C2 1_555 1_555
H3 C3 1_555 1_555
C4 C3 1_555 1_555
H4 C4 1_555 1_555
C5 N1 1_555 1_555
C6 C5 1_555 1_555
C7 C6 1_555 1_555
H5 C7 1_555 1_555
C8 C7 1_555 1_555
C9 C8 1_555 1_555
H6 C9 1_555 1_555
C10 N2 1_555 1_555
C11 C10 1_555 1_555
C12 C11 1_555 1_555
H7 C12 1_555 1_555
C13 C12 1_555 1_555
H8 C13 1_555 1_555
C14 C13 1_555 1_555
H9 C14 1_555 1_555
C15 N3 1_555 1_555
H10 C15 1_555 1_555
C16 C8 1_555 1_555
C17 S1 1_555 1_555
C18 C17 1_555 1_555
H11 C18 1_555 1_555
C19 S2 1_555 1_555
C20 C19 1_555 1_555
H12 C20 1_555 1_555
C21 C16 1_555 1_555
H13 C21 1_555 1_555
C22 O7 1_555 1_555
C23 C22 1_555 1_555
C24 C23 1_555 1_555
H14 C24 1_555 1_555
C25 C24 1_555 1_555
H15 C25 1_555 1_555
C26 C25 1_555 1_555
H16 C26 1_555 1_555
C27 C26 1_555 1_555
C28 C23 1_555 1_555
H17 C28 1_555 1_555
C29 C27 1_555 1_555
O11 Sm1 1_555 1_555
H18 O11 1_555 1_555
H19 O11 1_555 1_555
O12 Sm1 1_555 1_555
H20 O12 1_555 1_555
H21 O12 1_555 1_555
O13 H22 1_555 1_555
H23 O13 1_555 1_555
Sm1_2 O9 1_555 1_555
Sm1A O10 1_555 1_555
Sm1A_2 O6 1_555 1_555
Ag1A N1 1_555 1_555
O6A Sm1 1_555 1_555
O9_2 Sm1 1_555 1_555
O10A Sm1 1_555 1_555
N1A Ag1 1_555 1_555
N2A Ag1 1_555 1_555
N3A Ag1 1_555 1_555
O8 C22 1_555 1_555
N2 Ag1A 1_555 1_555
N3 Ag1A 1_555 1_555
C4 C5 1_555 1_555
C9 C10 1_555 1_555
C14 C15 1_555 1_555
C16 C17 1_555 1_555
C18 C19 1_555 1_555
C20 C21 1_555 1_555
C27 C28 1_555 1_555

#END
