
#######################################################################
#
#                 Cambridge Crystallographic Data Centre
#                                CCDC 
#
#######################################################################
#
# If this CIF has been generated from an entry in the Cambridge 
# Structural Database, then it will include bibliographic, chemical, 
# crystal, experimental, refinement or atomic coordinate data resulting 
# from the CCDC's data processing and validation procedures.
#
#######################################################################

data_DILWUS
_symmetry_cell_setting           monoclinic
_symmetry_space_group_name_H-M   'P 21/n'
_symmetry_Int_Tables_number      14
_space_group_name_Hall           '-P 2yn'
loop_
_symmetry_equiv_pos_site_id
_symmetry_equiv_pos_as_xyz
1 x,y,z
2 1/2-x,1/2+y,1/2-z
3 -x,-y,-z
4 1/2+x,1/2-y,1/2+z
_cell_length_a                   6.915(5)
_cell_length_b                   12.362(5)
_cell_length_c                   27.938(5)
_cell_angle_alpha                90
_cell_angle_beta                 96.110(5)
_cell_angle_gamma                90
_cell_volume                     2374.66
loop_
_atom_site_label
_atom_site_type_symbol
_atom_site_fract_x
_atom_site_fract_y
_atom_site_fract_z
Sn1 Sn 0.46592(6) -0.12730(3) 0.199446(13)
Sn2 Sn 0.20436(6) 0.48945(3) 0.085446(13)
O1 O 0.3902(6) -0.0254(3) 0.13726(12)
O2 O 0.2877(6) -0.1722(3) 0.09505(13)
O3 O 0.3136(6) 0.3308(3) 0.06803(13)
O4 O 0.1684(6) 0.3527(3) -0.00696(13)
O5 O 0.0381(8) 0.6589(4) 0.09829(18)
N1 N 0.0657(7) -0.2674(4) -0.22416(15)
N2 N 0.1642(7) -0.0246(4) -0.07900(15)
C1 C 0.3230(7) -0.0746(5) 0.09800(18)
C2 C 0.2435(8) 0.2953(5) 0.02556(19)
C3 C 0.2880(7) -0.0031(4) 0.05453(18)
C4 C 0.2922(7) 0.1082(5) 0.05937(18)
H1 H 0.3205 0.1389 0.0897
C5 C 0.2547(8) 0.1746(4) 0.01936(19)
C6 C 0.2147(8) 0.1281(5) -0.02618(18)
H2 H 0.1878 0.1722 -0.0531
C7 C 0.2150(7) 0.0166(4) -0.03153(18)
C8 C 0.2506(7) -0.0498(5) 0.00913(18)
H3 H 0.2492 -0.1246 0.0058
C9 C 0.2345(8) -0.1142(5) -0.09026(19)
H4 H 0.3227 -0.1495 -0.0681
C10 C 0.1806(8) -0.1640(5) -0.13728(19)
C11 C 0.0114(8) -0.1329(5) -0.16595(19)
H5 H -0.0655 -0.0768 -0.1565
C12 C -0.0386(9) -0.1869(5) -0.2083(2)
H6 H -0.1517 -0.1661 -0.2271
C13 C 0.2291(8) -0.2937(5) -0.19698(19)
H7 H 0.3064 -0.3478 -0.2081
C14 C 0.2910(9) -0.2460(5) -0.1535(2)
H8 H 0.4047 -0.2686 -0.1355
C15 C -0.0885(9) 0.4371(5) 0.0769(2)
H9 H -0.1555 0.4705 0.0489
H10 H -0.1503 0.4572 0.1048
H11 H -0.0926 0.3599 0.0732
C16 C 0.3268(11) 0.4798(5) 0.1589(2)
H12 H 0.4646 0.4916 0.1608
H13 H 0.3019 0.4095 0.1715
H14 H 0.2689 0.5340 0.1774
C17 C 0.3769(9) 0.5855(5) 0.0441(2)
H15 H 0.3010 0.6076 0.0150
H16 H 0.4870 0.5442 0.0363
H17 H 0.4213 0.6483 0.0623
C18 C 0.6596(9) -0.2303(6) 0.1672(2)
H18 H 0.5912 -0.2937 0.1549
H19 H 0.7642 -0.2511 0.1907
H20 H 0.7112 -0.1928 0.1412
C19 C 0.1756(8) -0.1704(6) 0.2084(2)
H21 H 0.1512 -0.2430 0.1972
H22 H 0.0880 -0.1218 0.1901
H23 H 0.1561 -0.1659 0.2418
C20 C 0.5756(9) 0.0115(5) 0.2381(2)
H24 H 0.5208 0.0755 0.2226
H25 H 0.7147 0.0135 0.2387
H26 H 0.5409 0.0083 0.2704
H27 H -0.028(9) 0.658(5) 0.074(2)
H28 H 0.112(10) 0.701(6) 0.102(2)
Sn1C Sn -0.03408(6) -0.37270(3) -0.300554(13)
N1C N 0.5657(7) -0.2326(4) 0.27584(15)
loop_
_geom_bond_atom_site_label_1
_geom_bond_atom_site_label_2
_geom_bond_site_symmetry_1
_geom_bond_site_symmetry_2
Sn1 O1 1_555 1_555
Sn2 O3 1_555 1_555
O1 C1 1_555 1_555
O2 C1 1_555 1_555
O3 C2 1_555 1_555
O4 C2 1_555 1_555
O5 Sn2 1_555 1_555
N1 C12 1_555 1_555
N2 C7 1_555 1_555
C1 C3 1_555 1_555
C2 C5 1_555 1_555
C3 C4 1_555 1_555
C4 H1 1_555 1_555
C5 C4 1_555 1_555
C6 C5 1_555 1_555
H2 C6 1_555 1_555
C7 C6 1_555 1_555
C8 C3 1_555 1_555
H3 C8 1_555 1_555
C9 N2 1_555 1_555
H4 C9 1_555 1_555
C10 C9 1_555 1_555
C11 C10 1_555 1_555
H5 C11 1_555 1_555
C12 C11 1_555 1_555
H6 C12 1_555 1_555
C13 N1 1_555 1_555
H7 C13 1_555 1_555
C14 C10 1_555 1_555
H8 C14 1_555 1_555
C15 Sn2 1_555 1_555
H9 C15 1_555 1_555
H10 C15 1_555 1_555
H11 C15 1_555 1_555
C16 Sn2 1_555 1_555
H12 C16 1_555 1_555
H13 C16 1_555 1_555
H14 C16 1_555 1_555
C17 Sn2 1_555 1_555
H15 C17 1_555 1_555
H16 C17 1_555 1_555
H17 C17 1_555 1_555
C18 Sn1 1_555 1_555
H18 C18 1_555 1_555
H19 C18 1_555 1_555
H20 C18 1_555 1_555
C19 Sn1 1_555 1_555
H21 C19 1_555 1_555
H22 C19 1_555 1_555
H23 C19 1_555 1_555
C20 Sn1 1_555 1_555
H24 C20 1_555 1_555
H25 C20 1_555 1_555
H26 C20 1_555 1_555
H27 O5 1_555 1_555
H28 O5 1_555 1_555
Sn1C N1 1_555 1_555
N1C Sn1 1_555 1_555
C7 C8 1_555 1_555
C13 C14 1_555 1_555

#END
