
#######################################################################
#
#                 Cambridge Crystallographic Data Centre
#                                CCDC 
#
#######################################################################
#
# If this CIF has been generated from an entry in the Cambridge 
# Structural Database, then it will include bibliographic, chemical, 
# crystal, experimental, refinement or atomic coordinate data resulting 
# from the CCDC's data processing and validation procedures.
#
#######################################################################

data_DILWOM
_symmetry_cell_setting           monoclinic
_symmetry_space_group_name_H-M   'P 21/n'
_symmetry_Int_Tables_number      14
_space_group_name_Hall           '-P 2yn'
loop_
_symmetry_equiv_pos_site_id
_symmetry_equiv_pos_as_xyz
1 x,y,z
2 1/2-x,1/2+y,1/2-z
3 -x,-y,-z
4 1/2+x,1/2-y,1/2+z
_cell_length_a                   18.736(5)
_cell_length_b                   11.368(5)
_cell_length_c                   31.720(5)
_cell_angle_alpha                90
_cell_angle_beta                 97.254(5)
_cell_angle_gamma                90
_cell_volume                     6702
loop_
_atom_site_label
_atom_site_type_symbol
_atom_site_fract_x
_atom_site_fract_y
_atom_site_fract_z
Sn1 Sn 0.84204(2) 1.21093(3) 0.639614(13)
O1 O 0.8202(2) 1.0208(4) 0.64639(13)
O2 O 0.8897(2) 0.9223(4) 0.69783(14)
O3 O 0.9428(2) 0.4959(3) 0.66272(13)
O4 O 0.8478(2) 0.4010(3) 0.62775(12)
N1 N 0.7002(3) 0.7259(4) 0.54642(16)
N2 N 0.5159(3) 0.6634(6) 0.41793(19)
C1 C 0.8492(4) 0.9289(5) 0.6639(2)
C2 C 0.8827(4) 0.4926(5) 0.64109(19)
C3 C 0.8276(3) 0.8163(5) 0.63923(19)
C4 C 0.8628(3) 0.7115(5) 0.65112(18)
H1 H 0.8994 0.7109 0.6739
C5 C 0.8442(3) 0.6088(5) 0.62966(18)
C6 C 0.7888(3) 0.6090(5) 0.59506(18)
H2 H 0.7756 0.5393 0.5808
C7 C 0.7537(3) 0.7147(5) 0.58221(18)
C8 C 0.7748(3) 0.8176(5) 0.60440(18)
H3 H 0.7529 0.8884 0.5957
C9 C 0.6645(4) 0.6387(6) 0.53140(19)
H4 H 0.6719 0.5660 0.5447
C10 C 0.6112(4) 0.6487(6) 0.4933(2)
C11 C 0.5902(4) 0.7556(6) 0.4747(2)
H5 H 0.6076 0.8252 0.4876
C12 C 0.5442(4) 0.7604(7) 0.4376(2)
H6 H 0.5322 0.8335 0.4256
C13 C 0.5806(4) 0.5500(7) 0.4731(2)
H7 H 0.5915 0.4759 0.4846
C14 C 0.5334(5) 0.5612(7) 0.4356(2)
H8 H 0.5135 0.4934 0.4225
C15 C 0.9443(3) 1.1780(5) 0.61937(17)
C16 C 0.9643(3) 1.2478(6) 0.58639(19)
H9 H 0.9359 1.3119 0.5769
C17 C 1.0248(4) 1.2233(6) 0.5680(2)
H10 H 1.0362 1.2700 0.5457
C18 C 1.0695(4) 1.1301(6) 0.5819(2)
H11 H 1.1100 1.1131 0.5689
C19 C 1.0525(4) 1.0628(6) 0.6158(2)
H12 H 1.0831 1.0026 0.6266
C20 C 0.9895(3) 1.0853(5) 0.63374(19)
H13 H 0.9776 1.0376 0.6556
C21 C 0.8204(4) 1.2437(6) 0.70311(19)
C22 C 0.7693(4) 1.1792(6) 0.7212(2)
H14 H 0.7455 1.1169 0.7065
C23 C 0.7535(4) 1.2089(7) 0.7625(2)
H15 H 0.7187 1.1667 0.7746
C24 C 0.7894(4) 1.3002(8) 0.7849(3)
H16 H 0.7786 1.3193 0.8119
C25 C 0.8402(4) 1.3619(7) 0.7676(2)
H17 H 0.8656 1.4213 0.7831
C26 C 0.8545(4) 1.3368(6) 0.72713(19)
H18 H 0.8878 1.3828 0.7152
C27 C 0.7550(3) 1.2135(5) 0.5903(2)
C28 C 0.6935(4) 1.1414(6) 0.5902(2)
H19 H 0.6903 1.0931 0.6136
C29 C 0.6377(4) 1.1392(7) 0.5570(2)
H20 H 0.5979 1.0911 0.5586
C30 C 0.6413(4) 1.2077(7) 0.5220(2)
H21 H 0.6037 1.2068 0.4999
C31 C 0.7010(4) 1.2789(6) 0.5192(2)
H22 H 0.7036 1.3248 0.4952
C32 C 0.7565(4) 1.2809(5) 0.5526(2)
H23 H 0.7962 1.3283 0.5503
Sn1_2 Sn 0.84204(2) 0.21093(3) 0.639614(13)
O4_2 O 0.8478(2) 1.4010(3) 0.62775(12)
Sn2 Sn 0.68973(2) 0.08667(3) 0.376229(12)
O5 O 0.7126(2) 0.2739(3) 0.37612(12)
O6 O 0.6290(2) 0.3572(3) 0.32888(12)
O7 O 0.6183(2) 0.8022(3) 0.32798(12)
O8 O 0.6767(2) 0.8960(3) 0.38452(12)
N3 N 0.8316(3) 0.5837(4) 0.46678(15)
N4 N 1.0253(3) 0.6549(5) 0.58943(17)
C33 C 0.6759(3) 0.3620(5) 0.35948(18)
C34 C 0.6578(3) 0.8043(5) 0.36174(18)
C35 C 0.6976(3) 0.4802(5) 0.37906(17)
C36 C 0.6675(3) 0.5835(5) 0.36299(17)
H24 H 0.6314 0.5813 0.3400
C37 C 0.6903(3) 0.6920(5) 0.38063(18)
C38 C 0.7440(3) 0.6944(5) 0.41525(19)
H25 H 0.7593 0.7663 0.4271
C39 C 0.7752(3) 0.5914(5) 0.43229(18)
C40 C 0.7524(3) 0.4837(5) 0.41354(17)
H26 H 0.7739 0.4141 0.4240
C41 C 0.8439(3) 0.6674(6) 0.49257(19)
H27 H 0.8141 0.7332 0.4903
C42 C 0.9055(4) 0.6616(5) 0.52658(18)
C43 C 0.9276(4) 0.7601(6) 0.55022(19)
H28 H 0.9027 0.8307 0.5456
C44 C 0.9870(4) 0.7527(6) 0.5807(2)
H29 H 1.0012 0.8202 0.5961
C45 C 1.0037(4) 0.5606(6) 0.5661(2)
H30 H 1.0299 0.4914 0.5709
C46 C 0.9444(4) 0.5599(6) 0.53512(19)
H31 H 0.9311 0.4912 0.5202
C47 C 0.5787(3) 0.1129(5) 0.38263(18)
C48 C 0.5264(3) 0.0312(5) 0.36712(19)
H32 H 0.5398 -0.0355 0.3531
C49 C 0.4557(4) 0.0473(6) 0.3722(2)
H33 H 0.4214 -0.0065 0.3606
C50 C 0.4347(4) 0.1427(7) 0.3946(2)
H34 H 0.3869 0.1510 0.3991
C51 C 0.4846(4) 0.2252(6) 0.4101(2)
H35 H 0.4706 0.2909 0.4244
C52 C 0.5557(4) 0.2101(6) 0.4042(2)
H36 H 0.5893 0.2662 0.4149
C53 C 0.7351(3) 0.0609(5) 0.31858(17)
C54 C 0.7736(3) -0.0429(5) 0.31264(18)
H37 H 0.7770 -0.1011 0.3334
C55 C 0.8061(3) -0.0596(5) 0.27671(19)
H38 H 0.8305 -0.1295 0.2732
C56 C 0.8030(3) 0.0268(5) 0.24536(19)
H39 H 0.8259 0.0158 0.2213
C57 C 0.7651(3) 0.1296(6) 0.25063(19)
H40 H 0.7614 0.1871 0.2296
C58 C 0.7325(3) 0.1470(5) 0.28714(18)
H41 H 0.7085 0.2173 0.2906
C59 C 0.7635(3) 0.0779(5) 0.43340(17)
C60 C 0.8253(3) 0.1460(5) 0.43888(19)
H42 H 0.8355 0.1965 0.4174
C61 C 0.8722(4) 0.1390(6) 0.47641(19)
H43 H 0.9139 0.1842 0.4797
C62 C 0.8572(4) 0.0654(6) 0.50888(19)
H44 H 0.8886 0.0610 0.5340
C63 C 0.7953(4) -0.0015(5) 0.50365(19)
H45 H 0.7844 -0.0506 0.5254
C64 C 0.7496(4) 0.0043(5) 0.46627(18)
H46 H 0.7085 -0.0423 0.4629
Sn2_2 Sn 0.68973(2) 1.08667(3) 0.376229(12)
O8_2 O 0.6767(2) -0.1040(3) 0.38452(12)
N5 N 0.9196(3) 0.9615(5) 0.7867(2)
C65 C 0.9525(4) 1.0823(6) 0.7939(2)
H47 H 0.9818 1.0843 0.8214
H48 H 0.9145 1.1402 0.7942
C66 C 0.9987(4) 1.1136(7) 0.7592(2)
H49 H 1.0347 1.0540 0.7578
H50 H 1.0217 1.1881 0.7656
H51 H 0.9689 1.1183 0.7323
C67 C 0.8502(4) 0.9505(6) 0.8057(2)
H52 H 0.8295 0.8739 0.7982
H53 H 0.8169 1.0094 0.7928
C68 C 0.8566(4) 0.9644(7) 0.8536(2)
H54 H 0.8897 0.9070 0.8668
H55 H 0.8103 0.9532 0.8629
H56 H 0.8739 1.0419 0.8613
C69 C 0.9732(4) 0.8676(6) 0.8021(2)
H57 H 0.9857 0.8753 0.8326
H58 H 1.0167 0.8790 0.7889
C70 C 0.9443(4) 0.7442(6) 0.7920(2)
H59 H 0.9085 0.7256 0.8100
H60 H 0.9830 0.6885 0.7967
H61 H 0.9233 0.7406 0.7628
H62 H 0.912(4) 0.963(6) 0.759(2)
N6 N 0.9131(3) 0.4296(5) 0.31001(17)
C71 C 0.8866(4) 0.3073(6) 0.3172(2)
H63 H 0.8388 0.2979 0.3018
H64 H 0.8829 0.2970 0.3472
C72 C 0.9351(4) 0.2135(6) 0.3031(2)
H65 H 0.9389 0.2231 0.2734
H66 H 0.9154 0.1373 0.3078
H67 H 0.9820 0.2201 0.3191
C73 C 0.9015(4) 0.4573(6) 0.2629(2)
H68 H 0.8979 0.3841 0.2471
H69 H 0.8561 0.4986 0.2564
C74 C 0.9602(4) 0.5306(7) 0.2483(2)
H70 H 0.9684 0.5986 0.2662
H71 H 0.9463 0.5552 0.2195
H72 H 1.0036 0.4850 0.2499
C75 C 0.8717(4) 0.5151(6) 0.3354(2)
H73 H 0.8206 0.5060 0.3262
H74 H 0.8803 0.4936 0.3652
C76 C 0.8912(4) 0.6410(7) 0.3311(2)
H75 H 0.9419 0.6509 0.3395
H76 H 0.8649 0.6882 0.3489
H77 H 0.8795 0.6650 0.3020
H78 H 0.962(4) 0.442(7) 0.317(2)
loop_
_geom_bond_atom_site_label_1
_geom_bond_atom_site_label_2
_geom_bond_site_symmetry_1
_geom_bond_site_symmetry_2
Sn1 O1 1_555 1_555
O1 C1 1_555 1_555
O2 C1 1_555 1_555
O3 C2 1_555 1_555
O4 C2 1_555 1_555
N1 C7 1_555 1_555
N2 C12 1_555 1_555
C1 C3 1_555 1_555
C2 C5 1_555 1_555
C3 C4 1_555 1_555
C4 H1 1_555 1_555
C5 C4 1_555 1_555
C6 C5 1_555 1_555
H2 C6 1_555 1_555
C7 C6 1_555 1_555
C8 C3 1_555 1_555
H3 C8 1_555 1_555
C9 N1 1_555 1_555
H4 C9 1_555 1_555
C10 C9 1_555 1_555
C11 C10 1_555 1_555
H5 C11 1_555 1_555
C12 C11 1_555 1_555
H6 C12 1_555 1_555
C13 C10 1_555 1_555
H7 C13 1_555 1_555
C14 N2 1_555 1_555
H8 C14 1_555 1_555
C15 Sn1 1_555 1_555
C16 C15 1_555 1_555
H9 C16 1_555 1_555
C17 C16 1_555 1_555
H10 C17 1_555 1_555
C18 C17 1_555 1_555
H11 C18 1_555 1_555
C19 C18 1_555 1_555
H12 C19 1_555 1_555
C20 C15 1_555 1_555
H13 C20 1_555 1_555
C21 Sn1 1_555 1_555
C22 C21 1_555 1_555
H14 C22 1_555 1_555
C23 C22 1_555 1_555
H15 C23 1_555 1_555
C24 C23 1_555 1_555
H16 C24 1_555 1_555
C25 C24 1_555 1_555
H17 C25 1_555 1_555
C26 C21 1_555 1_555
H18 C26 1_555 1_555
C27 Sn1 1_555 1_555
C28 C27 1_555 1_555
H19 C28 1_555 1_555
C29 C28 1_555 1_555
H20 C29 1_555 1_555
C30 C29 1_555 1_555
H21 C30 1_555 1_555
C31 C30 1_555 1_555
H22 C31 1_555 1_555
C32 C27 1_555 1_555
H23 C32 1_555 1_555
Sn2 O5 1_555 1_555
O5 C33 1_555 1_555
O6 C33 1_555 1_555
O7 C34 1_555 1_555
O8 C34 1_555 1_555
N3 C39 1_555 1_555
N4 C44 1_555 1_555
C33 C35 1_555 1_555
C34 C37 1_555 1_555
C35 C36 1_555 1_555
C36 H24 1_555 1_555
C37 C36 1_555 1_555
C38 C37 1_555 1_555
H25 C38 1_555 1_555
C39 C38 1_555 1_555
C40 C35 1_555 1_555
H26 C40 1_555 1_555
C41 N3 1_555 1_555
H27 C41 1_555 1_555
C42 C41 1_555 1_555
C43 C42 1_555 1_555
H28 C43 1_555 1_555
C44 C43 1_555 1_555
H29 C44 1_555 1_555
C45 N4 1_555 1_555
H30 C45 1_555 1_555
C46 C42 1_555 1_555
H31 C46 1_555 1_555
C47 Sn2 1_555 1_555
C48 C47 1_555 1_555
H32 C48 1_555 1_555
C49 C48 1_555 1_555
H33 C49 1_555 1_555
C50 C49 1_555 1_555
H34 C50 1_555 1_555
C51 C50 1_555 1_555
H35 C51 1_555 1_555
C52 C47 1_555 1_555
H36 C52 1_555 1_555
C53 Sn2 1_555 1_555
C54 C53 1_555 1_555
H37 C54 1_555 1_555
C55 C54 1_555 1_555
H38 C55 1_555 1_555
C56 C55 1_555 1_555
H39 C56 1_555 1_555
C57 C56 1_555 1_555
H40 C57 1_555 1_555
C58 C53 1_555 1_555
H41 C58 1_555 1_555
C59 Sn2 1_555 1_555
C60 C59 1_555 1_555
H42 C60 1_555 1_555
C61 C60 1_555 1_555
H43 C61 1_555 1_555
C62 C61 1_555 1_555
H44 C62 1_555 1_555
C63 C62 1_555 1_555
H45 C63 1_555 1_555
C64 C59 1_555 1_555
H46 C64 1_555 1_555
N5 C65 1_555 1_555
C65 H47 1_555 1_555
H48 C65 1_555 1_555
C66 C65 1_555 1_555
H49 C66 1_555 1_555
H50 C66 1_555 1_555
H51 C66 1_555 1_555
C67 N5 1_555 1_555
H52 C67 1_555 1_555
H53 C67 1_555 1_555
C68 C67 1_555 1_555
H54 C68 1_555 1_555
H55 C68 1_555 1_555
H56 C68 1_555 1_555
C69 N5 1_555 1_555
H57 C69 1_555 1_555
H58 C69 1_555 1_555
C70 C69 1_555 1_555
H59 C70 1_555 1_555
H60 C70 1_555 1_555
H61 C70 1_555 1_555
H62 N5 1_555 1_555
N6 C71 1_555 1_555
C71 H63 1_555 1_555
H64 C71 1_555 1_555
C72 C71 1_555 1_555
H65 C72 1_555 1_555
H66 C72 1_555 1_555
H67 C72 1_555 1_555
C73 N6 1_555 1_555
H68 C73 1_555 1_555
H69 C73 1_555 1_555
C74 C73 1_555 1_555
H70 C74 1_555 1_555
H71 C74 1_555 1_555
H72 C74 1_555 1_555
C75 N6 1_555 1_555
H73 C75 1_555 1_555
H74 C75 1_555 1_555
C76 C75 1_555 1_555
H75 C76 1_555 1_555
H76 C76 1_555 1_555
H77 C76 1_555 1_555
H78 N6 1_555 1_555
Sn1_2 O4 1_555 1_555
O4_2 Sn1 1_555 1_555
Sn2_2 O8 1_555 1_555
O8_2 Sn2 1_555 1_555
C7 C8 1_555 1_555
C13 C14 1_555 1_555
C19 C20 1_555 1_555
C25 C26 1_555 1_555
C31 C32 1_555 1_555
C39 C40 1_555 1_555
C45 C46 1_555 1_555
C51 C52 1_555 1_555
C57 C58 1_555 1_555
C63 C64 1_555 1_555

#END
