
#######################################################################
#
#                 Cambridge Crystallographic Data Centre
#                                CCDC 
#
#######################################################################
#
# If this CIF has been generated from an entry in the Cambridge 
# Structural Database, then it will include bibliographic, chemical, 
# crystal, experimental, refinement or atomic coordinate data resulting 
# from the CCDC's data processing and validation procedures.
#
#######################################################################

data_DILXAZ
_symmetry_cell_setting           monoclinic
_symmetry_space_group_name_H-M   'P 21/n'
_symmetry_Int_Tables_number      14
_space_group_name_Hall           '-P 2yn'
loop_
_symmetry_equiv_pos_site_id
_symmetry_equiv_pos_as_xyz
1 x,y,z
2 1/2-x,1/2+y,1/2-z
3 -x,-y,-z
4 1/2+x,1/2-y,1/2+z
_cell_length_a                   10.335(5)
_cell_length_b                   27.054(5)
_cell_length_c                   15.012(5)
_cell_angle_alpha                90
_cell_angle_beta                 99.885(5)
_cell_angle_gamma                90
_cell_volume                     4135.09
loop_
_atom_site_label
_atom_site_type_symbol
_atom_site_fract_x
_atom_site_fract_y
_atom_site_fract_z
Sn1 Sn 0.15538(4) 0.204479(16) 0.20701(4)
O1 O -0.0180(4) 0.30567(18) 0.2476(4)
O2 O -0.0395(5) 0.2253(2) 0.2106(6)
O3 O -0.6227(4) 0.17065(14) 0.2050(3)
O4 O -0.4286(4) 0.13421(14) 0.2229(3)
N1 N -0.5023(5) 0.35607(18) 0.2264(4)
N2 N -0.8466(5) 0.48621(19) 0.2474(4)
C1 C -0.0842(7) 0.2680(3) 0.2296(9)
C2 C -0.2297(6) 0.2671(2) 0.2301(6)
C3 C -0.2949(6) 0.2223(2) 0.2249(5)
H1 H -0.2482 0.1929 0.2245
C4 C -0.4312(6) 0.2212(2) 0.2202(4)
C5 C -0.4992(6) 0.2649(2) 0.2192(4)
H2 H -0.5903 0.2642 0.2127
C6 C -0.4342(6) 0.3106(2) 0.2277(4)
C7 C -0.2989(6) 0.3114(2) 0.2310(5)
H3 H -0.2546 0.3415 0.2338
C8 C -0.6903(6) 0.4021(2) 0.2523(4)
C9 C -0.8186(6) 0.3991(2) 0.2674(4)
H4 H -0.8543 0.3689 0.2799
C10 C -0.8920(6) 0.4414(2) 0.2635(4)
H5 H -0.9785 0.4389 0.2726
C11 C -0.7227(6) 0.4887(2) 0.2330(5)
H6 H -0.6894 0.5195 0.2215
C12 C -0.6416(6) 0.4484(2) 0.2343(5)
H7 H -0.5562 0.4520 0.2234
C13 C 0.0887(6) 0.1299(2) 0.1891(4)
H8 H 0.1640 0.1085 0.1896
H9 H 0.0469 0.1207 0.2398
C14 C -0.0081(7) 0.1216(3) 0.1014(5)
H10 H -0.0801 0.1449 0.0989
H11 H 0.0360 0.1286 0.0507
C15 C -0.0635(8) 0.0698(3) 0.0913(5)
H12 H -0.1080 0.0628 0.1417
H13 H 0.0084 0.0465 0.0939
C16 C -0.1592(10) 0.0620(3) 0.0036(7)
H14 H -0.2309 0.0848 0.0006
H15 H -0.1922 0.0287 0.0015
H16 H -0.1149 0.0674 -0.0468
C17 C 0.1772(11) 0.2401(4) 0.0834(7)
H17 H 0.2650 0.2320 0.0734
H18 H 0.1173 0.2233 0.0362
C18 C 0.1601(17) 0.2930(5) 0.0639(11)
H19 H 0.2171 0.3109 0.1113
H20 H 0.0705 0.3017 0.0687
C19 C 0.1873(15) 0.3128(6) -0.0291(11)
H21 H 0.1427 0.2919 -0.0773
H22 H 0.1523 0.3460 -0.0388
C20 C 0.3216(12) 0.3134(4) -0.0318(7)
H23 H 0.3677 0.3289 0.0219
H24 H 0.3369 0.3315 -0.0839
H25 H 0.3525 0.2801 -0.0352
C21 C 0.2342(8) 0.2313(3) 0.3388(6)
H26 H 0.3237 0.2196 0.3557
H27 H 0.2368 0.2671 0.3373
C22 C 0.1540(10) 0.2149(3) 0.4114(7)
H28 H 0.0612 0.2181 0.3872
H29 H 0.1717 0.1803 0.4254
C23 C 0.1858(10) 0.2450(3) 0.4978(7)
H30 H 0.2798 0.2437 0.5193
H31 H 0.1428 0.2300 0.5436
C24 C 0.1437(12) 0.2993(3) 0.4868(7)
H32 H 0.1943 0.3156 0.4476
H33 H 0.1583 0.3151 0.5449
H34 H 0.0521 0.3010 0.4611
C25 C -0.5007(5) 0.1723(2) 0.2143(4)
C26 C -0.6094(6) 0.3571(2) 0.2556(4)
H35 H -0.6384 0.3284 0.2802
Sn2 Sn -0.52859(4) 0.064650(14) 0.23922(3)
C27 C -0.3427(6) 0.0273(2) 0.2700(4)
H36 H -0.3563 -0.0048 0.2957
H37 H -0.3096 0.0217 0.2141
C28 C -0.2398(6) 0.0552(2) 0.3351(5)
H38 H -0.2721 0.0604 0.3914
H39 H -0.2266 0.0874 0.3098
C29 C -0.1079(7) 0.0282(3) 0.3551(5)
H40 H -0.0747 0.0238 0.2990
H41 H -0.1214 -0.0043 0.3792
C30 C -0.0045(7) 0.0561(3) 0.4229(6)
H42 H 0.0097 0.0883 0.3994
H43 H 0.0764 0.0379 0.4321
H44 H -0.0352 0.0595 0.4794
C31 C -0.6236(6) 0.0575(2) 0.1012(4)
H45 H -0.6113 0.0239 0.0817
H46 H -0.7171 0.0625 0.0986
C32 C -0.5765(7) 0.0929(3) 0.0341(5)
H47 H -0.4812 0.0929 0.0443
H48 H -0.6049 0.1262 0.0455
C33 C -0.6278(8) 0.0796(3) -0.0650(5)
H49 H -0.5876 0.1016 -0.1034
H50 H -0.5997 0.0462 -0.0759
C34 C -0.7741(9) 0.0824(4) -0.0925(6)
H51 H -0.8148 0.0585 -0.0591
H52 H -0.7974 0.0757 -0.1560
H53 H -0.8036 0.1150 -0.0800
C35 C -0.5987(6) 0.0897(2) 0.3574(4)
H54 H -0.5599 0.1217 0.3742
H55 H -0.6929 0.0943 0.3421
C36 C -0.5701(11) 0.0556(3) 0.4395(6)
H56 H -0.6192 0.0252 0.4260
H57 H -0.4774 0.0473 0.4502
C37 C -0.6048(11) 0.0779(3) 0.5252(6)
H58 H -0.6999 0.0794 0.5171
H59 H -0.5767 0.0545 0.5737
C38 C -0.5533(17) 0.1282(5) 0.5586(11)
H60 H -0.4602 0.1263 0.5790
H61 H -0.5955 0.1384 0.6078
H62 H -0.5716 0.1518 0.5103
Sn1_2 Sn -0.84462(4) 0.204479(16) 0.20701(4)
O3_2 O 0.3773(4) 0.17065(14) 0.2050(3)
N2A N -0.6534(5) -0.01379(19) 0.2526(4)
Sn2A Sn -0.97141(4) 0.564650(14) 0.26078(3)
loop_
_geom_bond_atom_site_label_1
_geom_bond_atom_site_label_2
_geom_bond_site_symmetry_1
_geom_bond_site_symmetry_2
Sn1 O2 1_555 1_555
O1 C1 1_555 1_555
O2 C1 1_555 1_555
O3 C25 1_555 1_555
O4 C25 1_555 1_555
N1 C6 1_555 1_555
N2 C10 1_555 1_555
C1 C2 1_555 1_555
C2 C3 1_555 1_555
C3 H1 1_555 1_555
C4 C3 1_555 1_555
C5 C4 1_555 1_555
H2 C5 1_555 1_555
C6 C5 1_555 1_555
C7 C2 1_555 1_555
H3 C7 1_555 1_555
C8 C9 1_555 1_555
C9 H4 1_555 1_555
C10 C9 1_555 1_555
H5 C10 1_555 1_555
C11 N2 1_555 1_555
H6 C11 1_555 1_555
C12 C8 1_555 1_555
H7 C12 1_555 1_555
C13 Sn1 1_555 1_555
H8 C13 1_555 1_555
H9 C13 1_555 1_555
C14 C13 1_555 1_555
H10 C14 1_555 1_555
H11 C14 1_555 1_555
C15 C14 1_555 1_555
H12 C15 1_555 1_555
H13 C15 1_555 1_555
C16 C15 1_555 1_555
H14 C16 1_555 1_555
H15 C16 1_555 1_555
H16 C16 1_555 1_555
C17 Sn1 1_555 1_555
H17 C17 1_555 1_555
H18 C17 1_555 1_555
C18 C17 1_555 1_555
H19 C18 1_555 1_555
H20 C18 1_555 1_555
C19 C18 1_555 1_555
H21 C19 1_555 1_555
H22 C19 1_555 1_555
C20 C19 1_555 1_555
H23 C20 1_555 1_555
H24 C20 1_555 1_555
H25 C20 1_555 1_555
C21 Sn1 1_555 1_555
H26 C21 1_555 1_555
H27 C21 1_555 1_555
C22 C21 1_555 1_555
H28 C22 1_555 1_555
H29 C22 1_555 1_555
C23 C22 1_555 1_555
H30 C23 1_555 1_555
H31 C23 1_555 1_555
C24 C23 1_555 1_555
H32 C24 1_555 1_555
H33 C24 1_555 1_555
H34 C24 1_555 1_555
C25 C4 1_555 1_555
C26 N1 1_555 1_555
H35 C26 1_555 1_555
Sn2 O4 1_555 1_555
C27 Sn2 1_555 1_555
H36 C27 1_555 1_555
H37 C27 1_555 1_555
C28 C27 1_555 1_555
H38 C28 1_555 1_555
H39 C28 1_555 1_555
C29 C28 1_555 1_555
H40 C29 1_555 1_555
H41 C29 1_555 1_555
C30 C29 1_555 1_555
H42 C30 1_555 1_555
H43 C30 1_555 1_555
H44 C30 1_555 1_555
C31 Sn2 1_555 1_555
H45 C31 1_555 1_555
H46 C31 1_555 1_555
C32 C31 1_555 1_555
H47 C32 1_555 1_555
H48 C32 1_555 1_555
C33 C32 1_555 1_555
H49 C33 1_555 1_555
H50 C33 1_555 1_555
C34 C33 1_555 1_555
H51 C34 1_555 1_555
H52 C34 1_555 1_555
H53 C34 1_555 1_555
C35 Sn2 1_555 1_555
H54 C35 1_555 1_555
H55 C35 1_555 1_555
C36 C35 1_555 1_555
H56 C36 1_555 1_555
H57 C36 1_555 1_555
C37 C36 1_555 1_555
H58 C37 1_555 1_555
H59 C37 1_555 1_555
C38 C37 1_555 1_555
H60 C38 1_555 1_555
H61 C38 1_555 1_555
H62 C38 1_555 1_555
Sn1_2 O3 1_555 1_555
O3_2 Sn1 1_555 1_555
N2A Sn2 1_555 1_555
Sn2A N2 1_555 1_555
C6 C7 1_555 1_555
C8 C26 1_555 1_555
C11 C12 1_555 1_555

#END
