
#######################################################################
#
#                 Cambridge Crystallographic Data Centre
#                                CCDC 
#
#######################################################################
#
# If this CIF has been generated from an entry in the Cambridge 
# Structural Database, then it will include bibliographic, chemical, 
# crystal, experimental, refinement or atomic coordinate data resulting 
# from the CCDC's data processing and validation procedures.
#
#######################################################################

data_DIMBIM
_symmetry_cell_setting           monoclinic
_symmetry_space_group_name_H-M   'C 2/c'
_symmetry_Int_Tables_number      15
_space_group_name_Hall           '-C 2yn'
loop_
_symmetry_equiv_pos_site_id
_symmetry_equiv_pos_as_xyz
1 x,y,z
2 -x,y,1/2-z
3 1/2+x,1/2+y,z
4 1/2-x,1/2+y,1/2-z
5 -x,-y,-z
6 x,-y,1/2+z
7 1/2-x,1/2-y,-z
8 1/2+x,1/2-y,1/2+z
_cell_length_a                   12.7298(13)
_cell_length_b                   15.4556(16)
_cell_length_c                   12.9395(13)
_cell_angle_alpha                90
_cell_angle_beta                 94.5380(10)
_cell_angle_gamma                90
_cell_volume                     2537.82
loop_
_atom_site_label
_atom_site_type_symbol
_atom_site_fract_x
_atom_site_fract_y
_atom_site_fract_z
Cu1 Cu 1.07025(12) 0.92575(11) 0.52944(13)
Cu2 Cu 0.89530(13) 1.01679(11) 0.67907(13)
Br1 Br 1.09177(9) 1.06079(8) 0.63536(9)
Br2 Br 1.21682(10) 0.89352(10) 0.43439(11)
N1 N 0.8397(6) 0.8226(6) 0.6949(7)
N2 N 0.8992(7) 0.8862(6) 0.6606(7)
N3 N 0.9729(7) 0.8530(6) 0.6077(7)
C1 C 0.9600(8) 0.7647(7) 0.6048(8)
C2 C 0.8745(8) 0.7444(7) 0.6640(9)
C3 C 0.8423(11) 0.6604(8) 0.6812(13)
H1 H 0.7877 0.6467 0.7220
C4 C 0.8990(13) 0.5992(9) 0.6318(15)
H2 H 0.8770 0.5420 0.6355
C5 C 0.9880(12) 0.6161(9) 0.5759(12)
H3 H 1.0249 0.5706 0.5487
C6 C 1.0196(9) 0.6997(9) 0.5622(10)
H4 H 1.0780 0.7127 0.5262
C7 C 0.7492(8) 0.8403(8) 0.7572(9)
H5 H 0.7531 0.8003 0.8151
H6 H 0.7577 0.8982 0.7856
C8 C 0.6425(9) 0.8339(9) 0.7038(10)
H7 H 0.6332 0.8812 0.6546
H8 H 0.6379 0.7804 0.6646
C9 C 0.5558(9) 0.8363(9) 0.7717(10)
H9 H 0.5657 0.8876 0.8145
H10 H 0.5646 0.7869 0.8178
N1A N 0.1603(6) 0.8226(6) 0.8051(7)
N2A N 0.1008(7) 0.8862(6) 0.8394(7)
N3A N 0.0271(7) 0.8530(6) 0.8923(7)
C1A C 0.0400(8) 0.7647(7) 0.8952(8)
C2A C 0.1255(8) 0.7444(7) 0.8360(9)
C3A C 0.1577(11) 0.6604(8) 0.8188(13)
H1A H 0.2123 0.6467 0.7780
C4A C 0.1010(13) 0.5992(9) 0.8682(15)
H2A H 0.1230 0.5420 0.8645
C5A C 0.0120(12) 0.6161(9) 0.9241(12)
H3A H -0.0249 0.5706 0.9513
C6A C -0.0196(9) 0.6997(9) 0.9378(10)
H4A H -0.0780 0.7127 0.9738
C7A C 0.2508(8) 0.8403(8) 0.7428(9)
H5A H 0.2469 0.8003 0.6849
H6A H 0.2423 0.8982 0.7144
C8A C 0.3575(9) 0.8339(9) 0.7962(10)
H7A H 0.3668 0.8812 0.8454
H8A H 0.3621 0.7804 0.8354
C9A C 0.4442(9) 0.8363(9) 0.7283(10)
H9A H 0.4343 0.8876 0.6855
H10A H 0.4354 0.7869 0.6822
Cu1A Cu -0.07025(12) 0.92575(11) 0.97056(13)
Cu2A Cu 0.10470(13) 1.01679(11) 0.82093(13)
Br1A Br -0.09177(9) 1.06079(8) 0.86464(9)
Br2A Br -0.21682(10) 0.89352(10) 1.06561(11)
Cu1D Cu 0.92975(12) 1.07425(11) 0.47056(13)
Cu1E Cu 0.07025(12) 1.07425(11) 1.02944(13)
Cu2_2 Cu -0.10470(13) 1.01679(11) 0.67907(13)
Cu2A_2 Cu 1.10470(13) 1.01679(11) 0.82093(13)
Cu2D Cu 1.10470(13) 0.98321(11) 0.32093(13)
Cu2E Cu -0.10470(13) 0.98321(11) 1.17907(13)
Br1_2 Br 0.09177(9) 1.06079(8) 0.63536(9)
Br1A_2 Br 0.90823(9) 1.06079(8) 0.86464(9)
Br1D Br 0.90823(9) 0.93921(8) 0.36464(9)
Br1E Br 0.09177(9) 0.93921(8) 1.13536(9)
Br2D Br 0.78318(10) 1.10648(10) 0.56561(11)
Br2E Br 0.21682(10) 1.10648(10) 0.93439(11)
loop_
_geom_bond_atom_site_label_1
_geom_bond_atom_site_label_2
_geom_bond_site_symmetry_1
_geom_bond_site_symmetry_2
Cu1 Br1 1_555 1_555
Cu2 Br1 1_555 1_555
Br1 Cu1D 1_555 1_555
Br2 Cu1 1_555 1_555
N1 N2 1_555 1_555
N2 Cu2 1_555 1_555
N3 Cu1 1_555 1_555
C1 N3 1_555 1_555
C2 N1 1_555 1_555
C3 C2 1_555 1_555
H1 C3 1_555 1_555
C4 C3 1_555 1_555
H2 C4 1_555 1_555
C5 C4 1_555 1_555
H3 C5 1_555 1_555
C6 C1 1_555 1_555
H4 C6 1_555 1_555
C7 N1 1_555 1_555
H5 C7 1_555 1_555
H6 C7 1_555 1_555
C8 C7 1_555 1_555
H7 C8 1_555 1_555
H8 C8 1_555 1_555
C9 C8 1_555 1_555
H9 C9 1_555 1_555
H10 C9 1_555 1_555
N1A N2A 1_555 1_555
N2A N3A 1_555 1_555
N3A C1A 1_555 1_555
C1A C2A 1_555 1_555
C2A N1A 1_555 1_555
C3A C2A 1_555 1_555
H1A C3A 1_555 1_555
C4A C3A 1_555 1_555
H2A C4A 1_555 1_555
C5A C4A 1_555 1_555
H3A C5A 1_555 1_555
C6A C1A 1_555 1_555
H4A C6A 1_555 1_555
C7A N1A 1_555 1_555
H5A C7A 1_555 1_555
H6A C7A 1_555 1_555
C8A C7A 1_555 1_555
H7A C8A 1_555 1_555
H8A C8A 1_555 1_555
C9A C9 1_555 1_555
H9A C9A 1_555 1_555
H10A C9A 1_555 1_555
Cu1A N3A 1_555 1_555
Cu2A N2A 1_555 1_555
Br1A Cu1A 1_555 1_555
Br2A Cu1A 1_555 1_555
Cu1D Br1D 1_555 1_555
Cu1E Br1A 1_555 1_555
Cu2_2 Br1A 1_555 1_555
Cu2A_2 Br1 1_555 1_555
Cu2D Br2 1_555 1_555
Cu2E Br2A 1_555 1_555
Br1_2 Cu2A 1_555 1_555
Br1A_2 Cu2 1_555 1_555
Br1D Cu1 1_555 1_555
Br1E Cu1A 1_555 1_555
Br2D Cu2 1_555 1_555
Br2E Cu2A 1_555 1_555
N2 N3 1_555 1_555
C1 C2 1_555 1_555
C5 C6 1_555 1_555
C5A C6A 1_555 1_555
C8A C9A 1_555 1_555
Cu2A Br1A 1_555 1_555
Cu1D Br2D 1_555 1_555
Cu1E Br1E 1_555 1_555
Cu1E Br2E 1_555 1_555
Cu2_2 Br1_2 1_555 1_555
Cu2A_2 Br1A_2 1_555 1_555
Cu2D Br1D 1_555 1_555
Cu2E Br1E 1_555 1_555

#END
