
#######################################################################
#
#                 Cambridge Crystallographic Data Centre
#                                CCDC 
#
#######################################################################
#
# If this CIF has been generated from an entry in the Cambridge 
# Structural Database, then it will include bibliographic, chemical, 
# crystal, experimental, refinement or atomic coordinate data resulting 
# from the CCDC's data processing and validation procedures.
#
#######################################################################

data_DIMBOS
_symmetry_cell_setting           tetragonal
_symmetry_space_group_name_H-M   'I 41/a'
_symmetry_Int_Tables_number      88
_space_group_name_Hall           '-I 4ad'
loop_
_symmetry_equiv_pos_site_id
_symmetry_equiv_pos_as_xyz
1 x,y,z
2 1/2-x,-y,1/2+z
3 3/4-y,1/4+x,1/4+z
4 3/4+y,3/4-x,3/4+z
5 1/2+x,1/2+y,1/2+z
6 -x,1/2-y,z
7 1/4-y,3/4+x,3/4+z
8 1/4+y,1/4-x,1/4+z
9 -x,-y,-z
10 1/2+x,y,1/2-z
11 1/4+y,3/4-x,3/4-z
12 1/4-y,1/4+x,1/4-z
13 1/2-x,1/2-y,1/2-z
14 x,1/2+y,-z
15 3/4+y,1/4-x,1/4-z
16 3/4-y,3/4+x,3/4-z
_cell_length_a                   18.0352(18)
_cell_length_b                   18.0352(18)
_cell_length_c                   13.6749(13)
_cell_angle_alpha                90
_cell_angle_beta                 90
_cell_angle_gamma                90
_cell_volume                     4448.01
loop_
_atom_site_label
_atom_site_type_symbol
_atom_site_fract_x
_atom_site_fract_y
_atom_site_fract_z
Cu1 Cu 0.26505(3) 0.51752(3) 0.05070(3)
Br1 Br 0.25922(2) 0.40685(2) -0.05189(3)
N1 N 0.32635(17) 0.66734(16) -0.03414(19)
N2 N 0.29950(16) 0.59847(15) -0.05009(18)
N3 N 0.29456(14) 0.58733(14) -0.14388(19)
C1 C 0.3184(2) 0.6499(2) -0.1912(2)
C2 C 0.3386(2) 0.7026(2) -0.1210(3)
C3 C 0.3635(3) 0.7735(2) -0.1457(3)
H1 H 0.3762 0.8084 -0.0985
C4 C 0.3679(3) 0.7884(2) -0.2428(4)
H2 H 0.3846 0.8348 -0.2627
C5 C 0.3482(3) 0.7357(3) -0.3147(3)
H3 H 0.3524 0.7488 -0.3802
C6 C 0.3230(3) 0.6665(2) -0.2917(3)
H4 H 0.3098 0.6323 -0.3395
C7 C 0.3398(2) 0.6952(2) 0.0661(3)
H5 H 0.3694 0.7400 0.0626
H6 H 0.3678 0.6585 0.1024
C8 C 0.2697(2) 0.7115(2) 0.1191(3)
H7 H 0.2397 0.6669 0.1226
H8 H 0.2418 0.7489 0.0838
C9 C 0.2863(3) 0.7392(2) 0.2228(3)
H9 H 0.3188 0.7820 0.2193
H10 H 0.3118 0.7007 0.2592
N1L N 0.17365(17) 0.83266(16) 0.53414(19)
N2L N 0.20050(16) 0.90153(15) 0.55009(18)
C2L C 0.1614(2) 0.7974(2) 0.6210(3)
C3L C 0.1365(3) 0.7265(2) 0.6457(3)
H1L H 0.1238 0.6916 0.5985
C4L C 0.1321(3) 0.7116(2) 0.7428(4)
H2L H 0.1154 0.6652 0.7627
C7L C 0.1602(2) 0.8048(2) 0.4339(3)
H5L H 0.1306 0.7600 0.4374
H6L H 0.1322 0.8415 0.3976
C8L C 0.2303(2) 0.7885(2) 0.3809(3)
H7L H 0.2603 0.8331 0.3774
H8L H 0.2582 0.7511 0.4162
C9L C 0.2137(3) 0.7608(2) 0.2772(3)
H9L H 0.1812 0.7180 0.2807
H10L H 0.1882 0.7993 0.2408
N3L N 0.20544(14) 0.91267(14) 0.64388(19)
C1L C 0.1816(2) 0.8501(2) 0.6912(2)
C5L C 0.1518(3) 0.7643(3) 0.8147(3)
H3L H 0.1476 0.7512 0.8802
C6L C 0.1770(3) 0.8335(2) 0.7917(3)
H4L H 0.1902 0.8677 0.8395
Cu1B Cu 0.23248(3) 0.51505(3) 0.30070(3)
Br1B Br 0.34315(2) 0.50922(2) 0.19811(3)
Cu1C Cu 0.26752(3) 0.48495(3) -0.19930(3)
Cu1L Cu 0.23495(3) 0.98248(3) 0.44930(3)
Cu1O Cu 0.23248(3) 1.01505(3) 0.69930(3)
Br1A Br 0.24078(2) 0.59315(2) 0.44811(3)
N2B N 0.15153(15) 0.54950(16) 0.19991(18)
N3A N 0.20544(14) 0.41267(14) 0.35612(19)
N3B N 0.16267(14) 0.54456(14) 0.10612(19)
loop_
_geom_bond_atom_site_label_1
_geom_bond_atom_site_label_2
_geom_bond_site_symmetry_1
_geom_bond_site_symmetry_2
Cu1 Br1 1_555 1_555
Br1 Cu1C 1_555 1_555
N1 N2 1_555 1_555
N2 Cu1 1_555 1_555
N3 N2 1_555 1_555
C1 N3 1_555 1_555
C2 N1 1_555 1_555
C3 C2 1_555 1_555
H1 C3 1_555 1_555
C4 C3 1_555 1_555
H2 C4 1_555 1_555
C5 C4 1_555 1_555
H3 C5 1_555 1_555
C6 C1 1_555 1_555
H4 C6 1_555 1_555
C7 N1 1_555 1_555
H5 C7 1_555 1_555
H6 C7 1_555 1_555
C8 C7 1_555 1_555
H7 C8 1_555 1_555
H8 C8 1_555 1_555
C9 C8 1_555 1_555
H9 C9 1_555 1_555
H10 C9 1_555 1_555
N1L N2L 1_555 1_555
N2L N3L 1_555 1_555
C2L N1L 1_555 1_555
C3L C2L 1_555 1_555
H1L C3L 1_555 1_555
C4L C3L 1_555 1_555
H2L C4L 1_555 1_555
C7L N1L 1_555 1_555
H5L C7L 1_555 1_555
H6L C7L 1_555 1_555
C8L C7L 1_555 1_555
H7L C8L 1_555 1_555
H8L C8L 1_555 1_555
C9L C9 1_555 1_555
H9L C9L 1_555 1_555
H10L C9L 1_555 1_555
N3L C1L 1_555 1_555
C1L C2L 1_555 1_555
C5L C4L 1_555 1_555
H3L C5L 1_555 1_555
C6L C1L 1_555 1_555
H4L C6L 1_555 1_555
Cu1B Br1B 1_555 1_555
Br1B Cu1 1_555 1_555
Cu1C N3 1_555 1_555
Cu1L N2L 1_555 1_555
Cu1O N3L 1_555 1_555
Br1A Cu1B 1_555 1_555
N2B Cu1B 1_555 1_555
N3A Cu1B 1_555 1_555
N3B Cu1 1_555 1_555
C1 C2 1_555 1_555
C5 C6 1_555 1_555
C8L C9L 1_555 1_555
C5L C6L 1_555 1_555
N2B N3B 1_555 1_555

#END
