
#######################################################################
#
#                 Cambridge Crystallographic Data Centre
#                                CCDC 
#
#######################################################################
#
# If this CIF has been generated from an entry in the Cambridge 
# Structural Database, then it will include bibliographic, chemical, 
# crystal, experimental, refinement or atomic coordinate data resulting 
# from the CCDC's data processing and validation procedures.
#
#######################################################################

data_DIMCUZ
_symmetry_cell_setting           monoclinic
_symmetry_space_group_name_H-M   'P 21/c'
_symmetry_Int_Tables_number      14
_space_group_name_Hall           '-P 2ybc'
loop_
_symmetry_equiv_pos_site_id
_symmetry_equiv_pos_as_xyz
1 x,y,z
2 -x,1/2+y,1/2-z
3 -x,-y,-z
4 x,1/2-y,1/2+z
_cell_length_a                   8.1995(10)
_cell_length_b                   10.5503(13)
_cell_length_c                   23.441(3)
_cell_angle_alpha                90
_cell_angle_beta                 105.585(6)
_cell_angle_gamma                90
_cell_volume                     1953.26
loop_
_atom_site_label
_atom_site_type_symbol
_atom_site_fract_x
_atom_site_fract_y
_atom_site_fract_z
Cd1 Cd 0.13139(2) 0.298266(17) 0.132366(7)
O1 O 0.2432(3) 0.48767(19) 0.11536(9)
O2 O 0.2650(4) 0.5959(2) 0.19816(10)
O3 O 0.4142(3) 1.22271(18) 0.16567(10)
O4 O 0.2307(2) 1.06683(19) 0.13907(8)
O5 O 0.1433(3) 0.6313(2) -0.10602(11)
O6 O 0.1785(3) 0.8350(2) -0.08838(13)
O7 O 0.4854(3) 0.7952(2) -0.01073(10)
N1 N 0.4773(3) 0.8989(2) 0.13253(10)
N2 N 0.1240(3) 0.2909(2) 0.23067(10)
N3 N 0.1212(3) 0.2402(2) 0.53201(9)
C1 C 0.4075(3) 0.8015(2) 0.15490(12)
H1 H 0.3955 0.8065 0.1932
C2 C 0.3539(3) 0.6944(2) 0.12110(12)
C3 C 0.3721(4) 0.6891(3) 0.06397(13)
H2 H 0.3343 0.6186 0.0403
C4 C 0.4477(4) 0.7905(3) 0.04213(13)
C5 C 0.4973(3) 0.8953(3) 0.07777(12)
H3 H 0.5452 0.9643 0.0636
C6 C 0.2814(3) 0.5828(3) 0.14821(12)
C7 C 0.4151(4) 0.6993(3) -0.05364(13)
H4 H 0.4242 0.6175 -0.0341
H5 H 0.4795 0.6955 -0.0828
C8 C 0.2309(4) 0.7259(3) -0.08460(12)
C9 C 0.5264(3) 1.0162(3) 0.16716(13)
H6 H 0.6199 1.0561 0.1560
H7 H 0.5637 0.9957 0.2090
C10 C 0.3767(3) 1.1078(2) 0.15598(11)
C11 C 0.0632(4) 0.3867(3) 0.25659(12)
H8 H 0.0257 0.4594 0.2345
C12 C 0.0537(4) 0.3825(3) 0.31472(12)
H9 H 0.0084 0.4503 0.3307
C13 C 0.1123(3) 0.2763(2) 0.34881(10)
C14 C 0.1792(4) 0.1784(3) 0.32202(12)
H10 H 0.2216 0.1060 0.3435
C15 C 0.1825(4) 0.1888(3) 0.26393(12)
H11 H 0.2272 0.1222 0.2470
C16 C 0.1107(4) 0.3546(3) 0.50575(11)
H12 H 0.1084 0.4262 0.5287
C17 C 0.1031(4) 0.3713(3) 0.44678(11)
H13 H 0.0941 0.4523 0.4306
C18 C 0.1091(3) 0.2655(2) 0.41158(10)
C19 C 0.1177(4) 0.1479(3) 0.43859(11)
H14 H 0.1191 0.0745 0.4168
C20 C 0.1240(4) 0.1398(3) 0.49736(11)
H15 H 0.1307 0.0596 0.5143
Cd1_2 Cd 0.13139(2) 1.298266(17) 0.132366(7)
Cd1B Cd -0.13139(2) 0.701734(17) -0.132366(7)
Cd1C Cd 0.13139(2) 0.201734(17) 0.632366(7)
O3_2 O 0.4142(3) 0.22271(18) 0.16567(10)
O4_2 O 0.2307(2) 0.06683(19) 0.13907(8)
O5B O -0.1433(3) 0.3687(2) 0.10602(11)
N3C N 0.1212(3) 0.2598(2) 0.03201(9)
O8 O 0.6454(5) 1.4083(4) 0.21500(17)
H16 H 0.6549 1.4116 0.1798
H17 H 0.5541 1.4472 0.2143
loop_
_geom_bond_atom_site_label_1
_geom_bond_atom_site_label_2
_geom_bond_site_symmetry_1
_geom_bond_site_symmetry_2
Cd1 O1 1_555 1_555
O1 C6 1_555 1_555
O2 C6 1_555 1_555
O3 C10 1_555 1_555
O4 C10 1_555 1_555
O5 C8 1_555 1_555
O6 C8 1_555 1_555
O7 C4 1_555 1_555
N1 C1 1_555 1_555
N2 Cd1 1_555 1_555
N3 C16 1_555 1_555
C1 H1 1_555 1_555
C2 C1 1_555 1_555
C3 C2 1_555 1_555
H2 C3 1_555 1_555
C4 C3 1_555 1_555
C5 N1 1_555 1_555
H3 C5 1_555 1_555
C6 C2 1_555 1_555
C7 O7 1_555 1_555
H4 C7 1_555 1_555
H5 C7 1_555 1_555
C8 C7 1_555 1_555
C9 N1 1_555 1_555
H6 C9 1_555 1_555
H7 C9 1_555 1_555
C10 C9 1_555 1_555
C11 N2 1_555 1_555
H8 C11 1_555 1_555
C12 C11 1_555 1_555
H9 C12 1_555 1_555
C13 C12 1_555 1_555
C14 C13 1_555 1_555
H10 C14 1_555 1_555
C15 N2 1_555 1_555
H11 C15 1_555 1_555
C16 H12 1_555 1_555
C17 C16 1_555 1_555
H13 C17 1_555 1_555
C18 C13 1_555 1_555
C19 C18 1_555 1_555
H14 C19 1_555 1_555
C20 N3 1_555 1_555
H15 C20 1_555 1_555
O8 H16 1_555 1_555
H17 O8 1_555 1_555
Cd1_2 O3 1_555 1_555
Cd1B O5 1_555 1_555
Cd1C N3 1_555 1_555
O3_2 Cd1 1_555 1_555
O4_2 Cd1 1_555 1_555
O5B Cd1 1_555 1_555
N3C Cd1 1_555 1_555
O4 Cd1_2 1_555 1_555
C4 C5 1_555 1_555
C14 C15 1_555 1_555
C17 C18 1_555 1_555
C19 C20 1_555 1_555

#END
