
#######################################################################
#
#                 Cambridge Crystallographic Data Centre
#                                CCDC 
#
#######################################################################
#
# If this CIF has been generated from an entry in the Cambridge 
# Structural Database, then it will include bibliographic, chemical, 
# crystal, experimental, refinement or atomic coordinate data resulting 
# from the CCDC's data processing and validation procedures.
#
#######################################################################

data_DIMCOT
_symmetry_cell_setting           triclinic
_symmetry_space_group_name_H-M   'P -1'
_symmetry_Int_Tables_number      2
_space_group_name_Hall           '-P 1'
loop_
_symmetry_equiv_pos_site_id
_symmetry_equiv_pos_as_xyz
1 x,y,z
2 -x,-y,-z
_cell_length_a                   4.9806(6)
_cell_length_b                   11.0207(13)
_cell_length_c                   11.8300(15)
_cell_angle_alpha                113.736(5)
_cell_angle_beta                 93.412(6)
_cell_angle_gamma                91.569(6)
_cell_volume                     592.426
loop_
_atom_site_label
_atom_site_type_symbol
_atom_site_fract_x
_atom_site_fract_y
_atom_site_fract_z
Cd1 Cd 0.53219(3) 0.121256(12) -0.221051(11)
O1 O 0.8551(3) 0.10166(17) -0.35457(14)
H1 H 0.977(4) 0.049(2) -0.355(2)
H2 H 0.789(5) 0.076(3) -0.428(3)
O2 O 0.1529(3) 0.07048(13) -0.13619(12)
O3 O -0.2161(3) 0.16624(15) -0.04960(13)
O4 O -0.4360(4) 0.71151(15) 0.27491(16)
O5 O -0.2491(4) 0.63462(18) 0.09720(17)
O6 O -0.2671(4) 0.38187(13) 0.45305(13)
O7 O -0.3077(3) 0.03748(12) 0.39808(12)
O8 O -0.5353(3) 0.14454(17) 0.30492(15)
N1 N 0.0389(3) 0.32145(14) 0.16635(13)
C1 C -0.0414(4) 0.42539(18) 0.14374(17)
H3 H 0.0127 0.4370 0.0747
C2 C -0.2047(4) 0.51517(17) 0.22342(17)
C3 C -0.2796(4) 0.49718(17) 0.32600(18)
H4 H -0.3888 0.5571 0.3803
C4 C -0.1924(4) 0.38967(17) 0.34864(17)
C5 C -0.0329(4) 0.30036(17) 0.26506(17)
H5 H 0.0239 0.2265 0.2773
C6 C 0.1981(4) 0.22196(18) 0.07444(16)
H6 H 0.2611 0.1594 0.1075
H7 H 0.3545 0.2665 0.0599
C7 C 0.0308(3) 0.14651(17) -0.04836(16)
C8 C -0.3024(4) 0.62971(18) 0.1950(2)
C9 C -0.2052(4) 0.26628(18) 0.47326(17)
H8 H -0.2404 0.2810 0.5574
H9 H -0.0148 0.2522 0.4646
C10 C -0.3671(4) 0.14200(18) 0.38408(16)
Cd1_2 Cd -0.46781(3) 0.121256(12) -0.221051(11)
Cd1A Cd -0.53219(3) -0.121256(12) 0.221051(11)
Cd1A_2 Cd -0.53219(3) 0.878744(12) 0.221051(11)
O3_2 O 0.7839(3) 0.16624(15) -0.04960(13)
O4A O 0.4360(4) 0.28849(15) -0.27491(16)
O7A O 0.3077(3) -0.03748(12) -0.39808(12)
O8A O 0.5353(3) -0.14454(17) -0.30492(15)
loop_
_geom_bond_atom_site_label_1
_geom_bond_atom_site_label_2
_geom_bond_site_symmetry_1
_geom_bond_site_symmetry_2
Cd1 O1 1_555 1_555
O1 H1 1_555 1_555
H2 O1 1_555 1_555
O2 Cd1 1_555 1_555
O3 C7 1_555 1_555
O4 C8 1_555 1_555
O5 C8 1_555 1_555
O6 C4 1_555 1_555
O7 C10 1_555 1_555
O8 C10 1_555 1_555
N1 C1 1_555 1_555
C1 H3 1_555 1_555
C2 C1 1_555 1_555
C3 C2 1_555 1_555
H4 C3 1_555 1_555
C4 C3 1_555 1_555
C5 N1 1_555 1_555
H5 C5 1_555 1_555
C6 N1 1_555 1_555
H6 C6 1_555 1_555
H7 C6 1_555 1_555
C7 O2 1_555 1_555
C8 C2 1_555 1_555
C9 O6 1_555 1_555
H8 C9 1_555 1_555
H9 C9 1_555 1_555
C10 C9 1_555 1_555
Cd1_2 O3 1_555 1_555
Cd1A O7 1_555 1_555
Cd1A_2 O4 1_555 1_555
O3_2 Cd1 1_555 1_555
O4A Cd1 1_555 1_555
O7A Cd1 1_555 1_555
O8A Cd1 1_555 1_555
O8 Cd1A 1_555 1_555
C4 C5 1_555 1_555
C6 C7 1_555 1_555

#END
