
#######################################################################
#
#                 Cambridge Crystallographic Data Centre
#                                CCDC 
#
#######################################################################
#
# If this CIF has been generated from an entry in the Cambridge 
# Structural Database, then it will include bibliographic, chemical, 
# crystal, experimental, refinement or atomic coordinate data resulting 
# from the CCDC's data processing and validation procedures.
#
#######################################################################

data_DIMDEK
_symmetry_cell_setting           monoclinic
_symmetry_space_group_name_H-M   'C 2'
_symmetry_Int_Tables_number      5
_space_group_name_Hall           'C 2y'
loop_
_symmetry_equiv_pos_site_id
_symmetry_equiv_pos_as_xyz
1 x,y,z
2 -x,y,-z
3 1/2+x,1/2+y,z
4 1/2-x,1/2+y,-z
_cell_length_a                   19.0173(19)
_cell_length_b                   7.3088(7)
_cell_length_c                   18.6844(18)
_cell_angle_alpha                90
_cell_angle_beta                 117.511(6)
_cell_angle_gamma                90
_cell_volume                     2303.35
loop_
_atom_site_label
_atom_site_type_symbol
_atom_site_fract_x
_atom_site_fract_y
_atom_site_fract_z
Cd1 Cd 0.5000 0.33267(19) 0.5000
Cd2 Cd 1.15763(5) 0.16774(13) 1.37613(5)
N1 N 0.7640(7) 0.4088(18) 1.0609(6)
O1 O 0.6434(6) 0.3879(17) 0.6239(6)
O2 O 0.5353(6) 0.3591(17) 0.6307(6)
O3 O 0.6816(5) 0.5678(15) 1.2712(6)
O4 O 0.7794(6) 0.5004(14) 1.3884(5)
O5 O 1.0377(6) 0.2422(17) 1.2777(6)
O6 O 1.0418(5) 0.3070(14) 1.3940(5)
O7 O 0.8677(8) 0.408(3) 1.0369(8)
C1 C 0.6514(9) 0.3963(19) 0.7535(8)
C2 C 0.6153(10) 0.349(3) 0.7999(12)
H1 H 0.5631 0.3080 0.7759
C3 C 0.6616(9) 0.366(2) 0.8901(9)
H2 H 0.6393 0.3443 0.9244
C4 C 0.7408(9) 0.417(2) 0.9183(9)
C5 C 0.7719(12) 0.468(3) 0.8722(11)
H3 H 0.8239 0.5097 0.8952
C6 C 0.7297(10) 0.460(3) 0.7933(11)
H4 H 0.7532 0.4996 0.7620
C7 C 0.8039(7) 0.407(2) 1.1456(8)
C8 C 0.7594(8) 0.450(2) 1.1871(8)
H5 H 0.7056 0.4772 1.1585
C9 C 0.7975(7) 0.4520(17) 1.2710(7)
C10 C 0.8759(8) 0.3993(17) 1.3152(8)
H6 H 0.8986 0.3943 1.3712
C11 C 0.9204(7) 0.354(2) 1.2770(7)
C12 C 0.8822(7) 0.353(2) 1.1909(7)
H7 H 0.9107 0.3149 1.1644
C13 C 0.6067(8) 0.3823(19) 0.6654(8)
C14 C 0.7493(7) 0.5106(19) 1.3119(8)
C15 C 1.0042(8) 0.2991(18) 1.3187(8)
C16 C 0.7974(10) 0.412(2) 1.0152(11)
O8 O 0.5851(7) 0.1217(14) 0.4905(6)
O9 O 0.5000 0.637(2) 0.5000
O10 O 1.1139(7) -0.1146(16) 1.3842(9)
O11 O 1.2283(6) 0.2089(13) 1.5131(5)
O12 O 1.2170(6) 0.4432(13) 1.3706(6)
Cd2A Cd -0.15763(5) 0.16774(13) -0.37613(5)
N1A N 0.2360(7) 0.4088(18) -0.0609(6)
O1A O 0.3566(6) 0.3879(17) 0.3761(6)
O2A O 0.4647(6) 0.3591(17) 0.3693(6)
O3A O 0.3184(5) 0.5678(15) -0.2712(6)
O4A O 0.2206(6) 0.5004(14) -0.3884(5)
O5A O -0.0377(6) 0.2422(17) -0.2777(6)
O6A O -0.0418(5) 0.3070(14) -0.3940(5)
O7A O 0.1323(8) 0.408(3) -0.0369(8)
C1A C 0.3486(9) 0.3963(19) 0.2465(8)
C2A C 0.3847(10) 0.349(3) 0.2001(12)
H1A H 0.4369 0.3080 0.2241
C3A C 0.3384(9) 0.366(2) 0.1099(9)
H2A H 0.3607 0.3443 0.0756
C4A C 0.2592(9) 0.417(2) 0.0817(9)
C5A C 0.2281(12) 0.468(3) 0.1278(11)
H3A H 0.1761 0.5097 0.1048
C6A C 0.2703(10) 0.460(3) 0.2067(11)
H4A H 0.2468 0.4996 0.2380
C7A C 0.1961(7) 0.407(2) -0.1456(8)
C8A C 0.2406(8) 0.450(2) -0.1871(8)
H5A H 0.2944 0.4772 -0.1585
C9A C 0.2025(7) 0.4520(17) -0.2710(7)
C10A C 0.1241(8) 0.3993(17) -0.3152(8)
H6A H 0.1014 0.3943 -0.3712
C11A C 0.0796(7) 0.354(2) -0.2770(7)
C12A C 0.1178(7) 0.353(2) -0.1909(7)
H7A H 0.0893 0.3149 -0.1644
C13A C 0.3933(8) 0.3823(19) 0.3346(8)
C14A C 0.2507(7) 0.5106(19) -0.3119(8)
C15A C -0.0042(8) 0.2991(18) -0.3187(8)
C16A C 0.2026(10) 0.412(2) -0.0152(11)
O8A O 0.4149(7) 0.1217(14) 0.5095(6)
O10A O -0.1139(7) -0.1146(16) -0.3842(9)
O11A O -0.2283(6) 0.2089(13) -0.5131(5)
O12A O -0.2170(6) 0.4432(13) -0.3706(6)
Cd2B Cd 0.65763(5) 0.66774(13) 1.37613(5)
Cd2C Cd 0.34237(5) 0.66774(13) -0.37613(5)
O3B O 1.1816(5) 0.0678(15) 1.2712(6)
O3C O -0.1816(5) 0.0678(15) -0.2712(6)
O4B O 1.2794(6) 0.0004(14) 1.3884(5)
O4C O -0.2794(6) 0.0004(14) -0.3884(5)
O13 O 1.1131(12) 0.656(3) 1.2494(10)
O14 O 0.6015(16) 0.504(7) 1.0125(13)
loop_
_geom_bond_atom_site_label_1
_geom_bond_atom_site_label_2
_geom_bond_site_symmetry_1
_geom_bond_site_symmetry_2
Cd1 O1 1_555 1_555
Cd2 O5 1_555 1_555
N1 C7 1_555 1_555
O1 C13 1_555 1_555
O2 Cd1 1_555 1_555
O3 C14 1_555 1_555
O4 C14 1_555 1_555
O5 C15 1_555 1_555
O6 Cd2 1_555 1_555
O7 C16 1_555 1_555
C1 C2 1_555 1_555
C2 H1 1_555 1_555
C3 C2 1_555 1_555
H2 C3 1_555 1_555
C4 C3 1_555 1_555
C5 C4 1_555 1_555
H3 C5 1_555 1_555
C6 C1 1_555 1_555
H4 C6 1_555 1_555
C7 C8 1_555 1_555
C8 H5 1_555 1_555
C9 C8 1_555 1_555
C10 C9 1_555 1_555
H6 C10 1_555 1_555
C11 C10 1_555 1_555
C12 C7 1_555 1_555
H7 C12 1_555 1_555
C13 O2 1_555 1_555
C14 C9 1_555 1_555
C15 O6 1_555 1_555
C16 N1 1_555 1_555
O8 Cd1 1_555 1_555
O9 Cd1 1_555 1_555
O10 Cd2 1_555 1_555
O11 Cd2 1_555 1_555
O12 Cd2 1_555 1_555
Cd2A O5A 1_555 1_555
N1A C7A 1_555 1_555
O1A Cd1 1_555 1_555
O2A Cd1 1_555 1_555
O3A C14A 1_555 1_555
O4A C14A 1_555 1_555
O5A C15A 1_555 1_555
O6A Cd2A 1_555 1_555
O7A C16A 1_555 1_555
C1A C2A 1_555 1_555
C2A H1A 1_555 1_555
C3A C2A 1_555 1_555
H2A C3A 1_555 1_555
C4A C3A 1_555 1_555
C5A C4A 1_555 1_555
H3A C5A 1_555 1_555
C6A C1A 1_555 1_555
H4A C6A 1_555 1_555
C7A C8A 1_555 1_555
C8A H5A 1_555 1_555
C9A C8A 1_555 1_555
C10A C9A 1_555 1_555
H6A C10A 1_555 1_555
C11A C10A 1_555 1_555
C12A C7A 1_555 1_555
H7A C12A 1_555 1_555
C13A O1A 1_555 1_555
C14A C9A 1_555 1_555
C15A O6A 1_555 1_555
C16A N1A 1_555 1_555
O8A Cd1 1_555 1_555
O10A Cd2A 1_555 1_555
O11A Cd2A 1_555 1_555
O12A Cd2A 1_555 1_555
Cd2B O3 1_555 1_555
Cd2C O3A 1_555 1_555
O3B Cd2 1_555 1_555
O3C Cd2A 1_555 1_555
O4B Cd2 1_555 1_555
O4C Cd2A 1_555 1_555
O4 Cd2B 1_555 1_555
C1 C13 1_555 1_555
C4 C16 1_555 1_555
C5 C6 1_555 1_555
C11 C12 1_555 1_555
C11 C15 1_555 1_555
O2A C13A 1_555 1_555
O4A Cd2C 1_555 1_555
C1A C13A 1_555 1_555
C4A C16A 1_555 1_555
C5A C6A 1_555 1_555
C11A C12A 1_555 1_555
C11A C15A 1_555 1_555

#END
