
#######################################################################
#
#                 Cambridge Crystallographic Data Centre
#                                CCDC 
#
#######################################################################
#
# If this CIF has been generated from an entry in the Cambridge 
# Structural Database, then it will include bibliographic, chemical, 
# crystal, experimental, refinement or atomic coordinate data resulting 
# from the CCDC's data processing and validation procedures.
#
#######################################################################

data_DIMDAG
_symmetry_cell_setting           triclinic
_symmetry_space_group_name_H-M   'P -1'
_symmetry_Int_Tables_number      2
_space_group_name_Hall           '-P 1'
loop_
_symmetry_equiv_pos_site_id
_symmetry_equiv_pos_as_xyz
1 x,y,z
2 -x,-y,-z
_cell_length_a                   15.3042(7)
_cell_length_b                   15.5719(7)
_cell_length_c                   16.3522(8)
_cell_angle_alpha                104.7230(10)
_cell_angle_beta                 105.1510(10)
_cell_angle_gamma                101.6280(10)
_cell_volume                     3484.91
loop_
_atom_site_label
_atom_site_type_symbol
_atom_site_fract_x
_atom_site_fract_y
_atom_site_fract_z
Cd1 Cd -0.248983(18) -0.033700(18) -0.461091(17)
Cd2 Cd -0.425549(19) 0.039998(19) -0.876116(19)
Cd3 Cd -0.357619(19) 0.002640(18) -0.662540(18)
O1 O -0.38872(19) -0.1532(2) -0.50248(19)
O2 O -0.40809(18) -0.03608(17) -0.55000(17)
O3 O -0.84267(19) -0.16889(18) -0.77574(19)
O4 O -0.74977(18) -0.03421(17) -0.67935(17)
O5 O -0.8908(2) -0.87825(19) -0.9016(2)
O6 O -0.8359(2) -0.90797(18) -0.77339(19)
O7 O -0.6113(2) -0.4340(2) -0.5606(2)
N1 N -0.7051(2) -0.4063(2) -0.6777(2)
H1 H -0.7544 -0.4333 -0.7267
C1 C -0.5440(3) -0.1659(2) -0.5914(2)
C2 C -0.5757(3) -0.2603(3) -0.6032(3)
H2 H -0.5336 -0.2909 -0.5774
C3 C -0.6696(3) -0.3090(2) -0.6532(3)
C4 C -0.7314(3) -0.2631(3) -0.6881(2)
H3 H -0.7953 -0.2965 -0.7223
C5 C -0.7001(3) -0.1689(2) -0.6733(2)
C6 C -0.6058(3) -0.1201(2) -0.6255(2)
H4 H -0.5841 -0.0557 -0.6164
C7 C -0.7158(3) -0.5639(3) -0.6842(3)
C8 C -0.7150(3) -0.6260(3) -0.6364(3)
H5 H -0.6868 -0.6034 -0.5731
C9 C -0.7548(3) -0.7203(3) -0.6798(3)
H6 H -0.7539 -0.7620 -0.6464
C10 C -0.7958(3) -0.7535(3) -0.7718(3)
C11 C -0.7950(3) -0.6926(3) -0.8205(3)
H7 H -0.8220 -0.7156 -0.8839
C12 C -0.7549(3) -0.5985(3) -0.7770(3)
H8 H -0.7540 -0.5572 -0.8108
C13 C -0.6723(3) -0.4626(3) -0.6347(3)
C14 C -0.4407(3) -0.1157(3) -0.5452(2)
C15 C -0.7690(3) -0.1216(3) -0.7114(2)
C16 C -0.8447(3) -0.8553(3) -0.8199(3)
O8 O -0.2782(2) 0.1322(2) -0.8176(2)
O9 O -0.27142(19) 0.02130(18) -0.75659(19)
O10 O 0.17409(19) 0.1417(2) -0.5562(2)
O11 O 0.0734(2) 0.01148(19) -0.6555(2)
O12 O 0.2793(2) 0.86323(19) -0.43903(19)
O13 O 0.1720(2) 0.89337(18) -0.54143(19)
O14 O -0.0964(3) 0.4317(2) -0.6813(4)
N2 N 0.0250(2) 0.3923(2) -0.6041(3)
H9 H 0.0820 0.4155 -0.5642
C17 C -0.1332(3) 0.1497(3) -0.7099(3)
C18 C -0.1049(3) 0.2463(3) -0.6841(3)
H10 H -0.1492 0.2788 -0.7009
C19 C -0.0112(3) 0.2943(3) -0.6334(3)
C20 C 0.0528(3) 0.2453(3) -0.6100(3)
H11 H 0.1165 0.2781 -0.5740
C21 C 0.0246(3) 0.1493(3) -0.6387(3)
C22 C -0.0690(3) 0.1011(3) -0.6883(2)
H12 H -0.0889 0.0353 -0.7073
C23 C 0.0440(3) 0.5535(3) -0.5927(3)
C24 C -0.0004(3) 0.6212(3) -0.6041(4)
H13 H -0.0671 0.6040 -0.6311
C25 C 0.0512(3) 0.7131(3) -0.5767(3)
H14 H 0.0198 0.7581 -0.5867
C26 C 0.1474(3) 0.7404(3) -0.5353(3)
C27 C 0.1924(3) 0.6739(3) -0.5222(3)
H15 H 0.2588 0.6917 -0.4933
C28 C 0.1411(3) 0.5814(3) -0.5510(3)
H16 H 0.1730 0.5365 -0.5420
C29 C -0.0161(3) 0.4544(3) -0.6292(4)
C30 C -0.2347(3) 0.0973(3) -0.7644(3)
C31 C 0.0952(3) 0.0975(3) -0.6163(3)
C32 C 0.2039(3) 0.8409(3) -0.5030(3)
O15 O -0.4328(2) 0.09698(19) -0.72922(19)
O16 O -0.25954(19) -0.08675(18) -0.61589(18)
N3 N -0.4561(4) 0.2365(3) -0.6838(3)
N4 N -0.2228(3) -0.1985(3) -0.7060(3)
C33 C -0.5145(5) 0.2953(4) -0.6593(5)
H17 H -0.5715 0.2576 -0.6547
H18 H -0.5327 0.3244 -0.7052
H19 H -0.4787 0.3435 -0.6014
C34 C -0.3651(4) 0.2796(4) -0.6950(4)
H20 H -0.3341 0.2317 -0.7115
H21 H -0.3237 0.3271 -0.6385
H22 H -0.3780 0.3080 -0.7422
C35 C -0.4812(4) 0.1501(4) -0.7032(3)
C36 C -0.5776(4) 0.1045(4) -0.6981(4)
H23 H -0.5890 0.0371 -0.7160
H24 H -0.6274 0.1195 -0.7385
H25 H -0.5779 0.1277 -0.6366
C37 C -0.3224(4) -0.2441(4) -0.7589(4)
H26 H -0.3611 -0.2063 -0.7378
H27 H -0.3413 -0.3052 -0.7521
H28 H -0.3315 -0.2515 -0.8221
C38 C -0.1543(4) -0.2457(4) -0.7287(4)
H29 H -0.0903 -0.2087 -0.6892
H30 H -0.1587 -0.2531 -0.7911
H31 H -0.1681 -0.3068 -0.7210
C39 C -0.1981(3) -0.1227(3) -0.6381(3)
C40 C -0.0954(3) -0.0793(3) -0.5845(3)
H32 H -0.0880 -0.0236 -0.5358
H33 H -0.0607 -0.0622 -0.6233
H34 H -0.0703 -0.1235 -0.5593
Cd4 Cd -1.092421(18) 0.051569(18) -1.207163(18)
O17 O -0.9472(2) 0.1489(2) -1.1502(2)
O18 O -0.93499(19) 0.02805(18) -1.10547(19)
O19 O -0.4915(2) 0.1546(2) -0.8933(2)
O20 O -0.5915(2) 0.0209(2) -0.9868(2)
O21 O -0.4951(2) 0.89637(19) -0.89189(18)
O22 O -0.4728(2) 0.88218(18) -0.75572(18)
O23 O -0.7250(2) 0.4235(2) -1.0779(2)
N5 N -0.6402(2) 0.4006(2) -0.9524(3)
H35 H -0.5983 0.4286 -0.8986
C41 C -0.7971(3) 0.1575(3) -1.0565(3)
C42 C -0.7667(3) 0.2534(3) -1.0340(3)
H36 H -0.8096 0.2857 -1.0547
C43 C -0.6737(3) 0.3024(3) -0.9814(3)
C44 C -0.6116(3) 0.2544(3) -0.9516(3)
H37 H -0.5490 0.2874 -0.9129
C45 C -0.6407(3) 0.1584(3) -0.9782(3)
C46 C -0.7341(3) 0.1093(3) -1.0297(3)
H38 H -0.7544 0.0437 -1.0463
C47 C -0.6238(3) 0.5568(3) -0.9569(3)
C48 C -0.6122(3) 0.6113(3) -1.0101(3)
H39 H -0.6301 0.5831 -1.0731
C49 C -0.5749(3) 0.7067(3) -0.9729(3)
H40 H -0.5671 0.7435 -1.0102
C50 C -0.5488(3) 0.7484(3) -0.8810(3)
C51 C -0.5620(3) 0.6940(3) -0.8275(3)
H41 H -0.5457 0.7221 -0.7647
C52 C -0.5989(3) 0.5989(3) -0.8653(3)
H42 H -0.6072 0.5621 -0.8282
C53 C -0.6681(3) 0.4547(3) -1.0020(3)
C54 C -0.8997(3) 0.1080(3) -1.1069(3)
C55 C -0.5701(3) 0.1085(3) -0.9511(3)
C56 C -0.5019(3) 0.8512(3) -0.8394(3)
O24 O -1.0952(2) 0.0936(2) -1.05134(19)
N6 N -1.1415(4) 0.1965(4) -0.9594(3)
C57 C -1.2186(7) 0.2341(6) -0.9414(6)
H43 H -1.2774 0.2014 -0.9916
H44 H -1.2024 0.3003 -0.9342
H45 H -1.2270 0.2253 -0.8863
C58 C -1.1585(4) 0.1280(4) -1.0315(4)
C59 C -1.0484(5) 0.2307(6) -0.8965(4)
H46 H -1.0073 0.1981 -0.9203
H47 H -1.0495 0.2204 -0.8400
H48 H -1.0241 0.2972 -0.8858
C60 C -1.2612(4) 0.0872(5) -1.0979(5)
H49 H -1.2636 0.0362 -1.1489
H50 H -1.2814 0.1356 -1.1193
H51 H -1.3032 0.0638 -1.0674
Cd5 Cd -1.0000 0.0000 -1.0000
Cd1A Cd -1.751017(18) -0.966300(18) -1.538909(17)
Cd2A Cd -1.574451(19) -1.039998(19) -1.123884(19)
Cd3A Cd -1.642381(19) -1.002640(18) -1.337460(18)
O1A O -1.61128(19) -0.8468(2) -1.49752(19)
O2A O -1.59191(18) -0.96392(17) -1.45000(17)
O3A O -1.15733(19) -0.83111(18) -1.22426(19)
O4A O -1.25023(18) -0.96579(17) -1.32065(17)
O5A O -1.1092(2) -0.12175(19) -1.0984(2)
O6A O -1.1641(2) -0.09203(18) -1.22661(19)
O7A O -1.3887(2) -0.5660(2) -1.4394(2)
N1A N -1.2949(2) -0.5937(2) -1.3223(2)
H1A H -1.2456 -0.5667 -1.2733
C1A C -1.4560(3) -0.8341(2) -1.4086(2)
C2A C -1.4243(3) -0.7397(3) -1.3968(3)
H2A H -1.4664 -0.7091 -1.4226
C3A C -1.3304(3) -0.6910(2) -1.3468(3)
C4A C -1.2686(3) -0.7369(3) -1.3119(2)
H3A H -1.2047 -0.7035 -1.2777
C5A C -1.2999(3) -0.8311(2) -1.3267(2)
C6A C -1.3942(3) -0.8799(2) -1.3745(2)
H4A H -1.4159 -0.9443 -1.3836
C7A C -1.2842(3) -0.4361(3) -1.3158(3)
C8A C -1.2850(3) -0.3740(3) -1.3636(3)
H5A H -1.3132 -0.3966 -1.4269
C9A C -1.2452(3) -0.2797(3) -1.3202(3)
H6A H -1.2461 -0.2380 -1.3536
C10A C -1.2042(3) -0.2465(3) -1.2282(3)
C11A C -1.2050(3) -0.3074(3) -1.1795(3)
H7A H -1.1780 -0.2844 -1.1161
C12A C -1.2451(3) -0.4015(3) -1.2230(3)
H8A H -1.2460 -0.4428 -1.1892
C13A C -1.3277(3) -0.5374(3) -1.3653(3)
C14A C -1.5593(3) -0.8843(3) -1.4548(2)
C15A C -1.2310(3) -0.8784(3) -1.2886(2)
C16A C -1.1553(3) -0.1447(3) -1.1801(3)
O8A O -1.7218(2) -1.1322(2) -1.1824(2)
O9A O -1.72858(19) -1.02130(18) -1.24341(19)
O10A O -2.17409(19) -1.1417(2) -1.4438(2)
O11A O -2.0734(2) -1.01148(19) -1.3445(2)
O12A O -2.2793(2) -1.86323(19) -1.56097(19)
O13A O -2.1720(2) -1.89337(18) -1.45857(19)
O14A O -1.9036(3) -1.4317(2) -1.3187(4)
N2A N -2.0250(2) -1.3923(2) -1.3959(3)
H9A H -2.0820 -1.4155 -1.4358
C17A C -1.8668(3) -1.1497(3) -1.2901(3)
C18A C -1.8951(3) -1.2463(3) -1.3159(3)
H10A H -1.8508 -1.2788 -1.2991
C19A C -1.9888(3) -1.2943(3) -1.3666(3)
C20A C -2.0528(3) -1.2453(3) -1.3900(3)
H11A H -2.1165 -1.2781 -1.4260
C21A C -2.0246(3) -1.1493(3) -1.3613(3)
C22A C -1.9310(3) -1.1011(3) -1.3117(2)
H12A H -1.9111 -1.0353 -1.2927
C23A C -2.0440(3) -1.5535(3) -1.4073(3)
C24A C -1.9996(3) -1.6212(3) -1.3959(4)
H13A H -1.9329 -1.6040 -1.3689
C25A C -2.0512(3) -1.7131(3) -1.4233(3)
H14A H -2.0198 -1.7581 -1.4133
C26A C -2.1474(3) -1.7404(3) -1.4647(3)
C27A C -2.1924(3) -1.6739(3) -1.4778(3)
H15A H -2.2588 -1.6917 -1.5067
C28A C -2.1411(3) -1.5814(3) -1.4490(3)
H16A H -2.1730 -1.5365 -1.4580
C29A C -1.9839(3) -1.4544(3) -1.3708(4)
C30A C -1.7653(3) -1.0973(3) -1.2356(3)
C31A C -2.0952(3) -1.0975(3) -1.3837(3)
C32A C -2.2039(3) -1.8409(3) -1.4970(3)
O15A O -1.5672(2) -1.09698(19) -1.27078(19)
O16A O -1.74046(19) -0.91325(18) -1.38411(18)
N3A N -1.5439(4) -1.2365(3) -1.3162(3)
N4A N -1.7772(3) -0.8015(3) -1.2940(3)
C33A C -1.4855(5) -1.2953(4) -1.3407(5)
H17A H -1.4285 -1.2576 -1.3453
H18A H -1.4673 -1.3244 -1.2948
H19A H -1.5213 -1.3435 -1.3986
C34A C -1.6349(4) -1.2796(4) -1.3050(4)
H20A H -1.6659 -1.2317 -1.2885
H21A H -1.6763 -1.3271 -1.3615
H22A H -1.6220 -1.3080 -1.2578
C35A C -1.5188(4) -1.1501(4) -1.2968(3)
C36A C -1.4224(4) -1.1045(4) -1.3019(4)
H23A H -1.4110 -1.0371 -1.2840
H24A H -1.3726 -1.1195 -1.2615
H25A H -1.4221 -1.1277 -1.3634
C37A C -1.6776(4) -0.7559(4) -1.2411(4)
H26A H -1.6389 -0.7937 -1.2622
H27A H -1.6587 -0.6948 -1.2479
H28A H -1.6685 -0.7485 -1.1779
C38A C -1.8457(4) -0.7543(4) -1.2713(4)
H29A H -1.9097 -0.7913 -1.3108
H30A H -1.8413 -0.7469 -1.2089
H31A H -1.8319 -0.6932 -1.2790
C39A C -1.8019(3) -0.8773(3) -1.3619(3)
C40A C -1.9046(3) -0.9207(3) -1.4155(3)
H32A H -1.9120 -0.9764 -1.4642
H33A H -1.9393 -0.9378 -1.3767
H34A H -1.9297 -0.8765 -1.4407
Cd4A Cd -0.907579(18) -1.051569(18) -0.792837(18)
O17A O -1.0528(2) -1.1489(2) -0.8498(2)
O18A O -1.06501(19) -1.02805(18) -0.89453(19)
O19A O -1.5085(2) -1.1546(2) -1.1067(2)
O20A O -1.4085(2) -1.0209(2) -1.0132(2)
O21A O -1.5049(2) -1.89637(19) -1.10811(18)
O22A O -1.5272(2) -1.88218(18) -1.24428(18)
O23A O -1.2750(2) -1.4235(2) -0.9221(2)
N5A N -1.3598(2) -1.4006(2) -1.0476(3)
H35A H -1.4017 -1.4286 -1.1014
C41A C -1.2029(3) -1.1575(3) -0.9435(3)
C42A C -1.2333(3) -1.2534(3) -0.9660(3)
H36A H -1.1904 -1.2857 -0.9453
C43A C -1.3263(3) -1.3024(3) -1.0186(3)
C44A C -1.3884(3) -1.2544(3) -1.0484(3)
H37A H -1.4510 -1.2874 -1.0871
C45A C -1.3593(3) -1.1584(3) -1.0218(3)
C46A C -1.2659(3) -1.1093(3) -0.9703(3)
H38A H -1.2456 -1.0437 -0.9537
C47A C -1.3762(3) -1.5568(3) -1.0431(3)
C48A C -1.3878(3) -1.6113(3) -0.9899(3)
H39A H -1.3699 -1.5831 -0.9269
C49A C -1.4251(3) -1.7067(3) -1.0271(3)
H40A H -1.4329 -1.7435 -0.9898
C50A C -1.4512(3) -1.7484(3) -1.1190(3)
C51A C -1.4380(3) -1.6940(3) -1.1725(3)
H41A H -1.4543 -1.7221 -1.2353
C52A C -1.4011(3) -1.5989(3) -1.1347(3)
H42A H -1.3928 -1.5621 -1.1718
C53A C -1.3319(3) -1.4547(3) -0.9980(3)
C54A C -1.1003(3) -1.1080(3) -0.8931(3)
C55A C -1.4299(3) -1.1085(3) -1.0489(3)
C56A C -1.4981(3) -1.8512(3) -1.1606(3)
O24A O -0.9048(2) -1.0936(2) -0.94866(19)
N6A N -0.8585(4) -1.1965(4) -1.0406(3)
C57A C -0.7814(7) -1.2341(6) -1.0586(6)
H43A H -0.7226 -1.2014 -1.0084
H44A H -0.7976 -1.3003 -1.0658
H45A H -0.7730 -1.2253 -1.1137
C58A C -0.8415(4) -1.1280(4) -0.9685(4)
C59A C -0.9516(5) -1.2307(6) -1.1035(4)
H46A H -0.9927 -1.1981 -1.0797
H47A H -0.9505 -1.2204 -1.1600
H48A H -0.9759 -1.2972 -1.1142
C60A C -0.7388(4) -1.0872(5) -0.9021(5)
H49A H -0.7364 -1.0362 -0.8511
H50A H -0.7186 -1.1356 -0.8807
H51A H -0.6968 -1.0638 -0.9326
Cd1_2 Cd -2.248983(18) -2.033700(18) -1.461091(17)
Cd1_3 Cd -2.248983(18) -1.033700(18) -1.461091(17)
Cd1_4 Cd -1.248983(18) -1.033700(18) -1.461091(17)
Cd1A_2 Cd -0.751017(18) 0.033700(18) -0.538909(17)
Cd1A_3 Cd 0.248983(18) 0.033700(18) -0.538909(17)
Cd1A_4 Cd 0.248983(18) 1.033700(18) -0.538909(17)
Cd2_2 Cd -1.425549(19) -0.960002(19) -0.876116(19)
Cd2_3 Cd -0.425549(19) 1.039998(19) -0.876116(19)
Cd2A_2 Cd -1.574451(19) -2.039998(19) -1.123884(19)
Cd2A_3 Cd -0.574451(19) -0.039998(19) -1.123884(19)
Cd3_2 Cd -2.357619(19) -1.997360(18) -1.662540(18)
Cd3_3 Cd -0.357619(19) 1.002640(18) -0.662540(18)
Cd3A_2 Cd -1.642381(19) -2.002640(18) -1.337460(18)
Cd3A_3 Cd 0.357619(19) 0.997360(18) -0.337460(18)
O3_2 O -0.84267(19) -1.16889(18) -0.77574(19)
O3A_2 O -1.15733(19) 0.16889(18) -1.22426(19)
O4_2 O -1.74977(18) -1.03421(17) -1.67935(17)
O4_3 O -0.74977(18) -1.03421(17) -0.67935(17)
O4A_2 O -1.25023(18) 0.03421(17) -1.32065(17)
O4A_3 O -0.25023(18) 0.03421(17) -0.32065(17)
O5_2 O -0.8908(2) 0.12175(19) -0.9016(2)
O10_2 O -1.82591(19) -0.8583(2) -1.5562(2)
O10A_2 O -0.17409(19) -0.1417(2) -0.4438(2)
O11_2 O -1.9266(2) -0.98852(19) -1.6555(2)
O11_3 O -0.9266(2) -0.98852(19) -0.6555(2)
O11A_2 O -1.0734(2) -0.01148(19) -1.3445(2)
O11A_3 O -0.0734(2) -0.01148(19) -0.3445(2)
O12_2 O -1.7207(2) -1.13677(19) -1.43903(19)
O12A_2 O -0.2793(2) 0.13677(19) -0.56097(19)
O13_2 O -1.8280(2) -1.10663(18) -1.54143(19)
O13A_2 O -0.1720(2) 0.10663(18) -0.45857(19)
Cd4_2 Cd -2.092421(18) -0.948431(18) -1.207163(18)
Cd4_3 Cd -1.092421(18) -0.948431(18) -1.207163(18)
Cd4A_2 Cd -0.907579(18) -0.051569(18) -0.792837(18)
Cd4A_3 Cd 0.092421(18) -0.051569(18) -0.792837(18)
O18A_2 O -1.06501(19) -0.02805(18) -0.89453(19)
O20_2 O -1.5915(2) -0.9791(2) -0.9868(2)
O20A_2 O -0.4085(2) -0.0209(2) -1.0132(2)
O21_2 O -0.4951(2) -0.10363(19) -0.89189(18)
O21A_2 O -1.5049(2) -0.89637(19) -1.10811(18)
O22_2 O -0.4728(2) -0.11782(18) -0.75572(18)
O22A_2 O -1.5272(2) -0.88218(18) -1.24428(18)
O24A_2 O -0.9048(2) -0.0936(2) -0.94866(19)
Cd5_2 Cd -1.0000 -1.0000 -1.0000
O25 O 0.8740(4) 1.4679(3) 0.8319(4)
N7 N 0.9804(5) 1.4113(5) 0.8912(5)
C61 C 1.0403(8) 1.4479(9) 0.8360(7)
H52 H 1.0077 1.4832 0.8031
H53 H 1.0480 1.3953 0.7935
H54 H 1.1025 1.4881 0.8768
C62 C 1.0218(7) 1.3553(6) 0.9407(7)
H55 H 0.9808 1.3343 0.9730
H56 H 1.0843 1.3926 0.9835
H57 H 1.0282 1.3014 0.8987
C63 C 0.9039(5) 1.4241(4) 0.8830(5)
C64 C 0.8503(6) 1.3796(6) 0.9318(6)
H58 H 0.8901 1.3518 0.9681
H59 H 0.7938 1.3314 0.8887
H60 H 0.8316 1.4263 0.9708
O26 O 0.5367(3) 1.4623(3) 0.2106(3)
O27 O 0.7441(4) 1.4988(4) 0.2377(3)
O28 O 0.7869(5) 1.5582(5) 0.4388(4)
O29 O 0.5539(5) 1.5281(5) 0.4053(7)
O30 O 0.6903(8) 1.6847(7) 0.4259(6)
loop_
_geom_bond_atom_site_label_1
_geom_bond_atom_site_label_2
_geom_bond_site_symmetry_1
_geom_bond_site_symmetry_2
Cd1 O1 1_555 1_555
Cd2 O8 1_555 1_555
Cd3 O2 1_555 1_555
O1 C14 1_555 1_555
O2 Cd1 1_555 1_555
O3 C15 1_555 1_555
O4 C15 1_555 1_555
O5 C16 1_555 1_555
O6 C16 1_555 1_555
O7 C13 1_555 1_555
N1 H1 1_555 1_555
C1 C2 1_555 1_555
C2 H2 1_555 1_555
C3 N1 1_555 1_555
C4 C3 1_555 1_555
H3 C4 1_555 1_555
C5 C4 1_555 1_555
C6 C1 1_555 1_555
H4 C6 1_555 1_555
C7 C8 1_555 1_555
C8 H5 1_555 1_555
C9 C8 1_555 1_555
H6 C9 1_555 1_555
C10 C9 1_555 1_555
C11 C10 1_555 1_555
H7 C11 1_555 1_555
C12 C7 1_555 1_555
H8 C12 1_555 1_555
C13 N1 1_555 1_555
C14 O2 1_555 1_555
C15 C5 1_555 1_555
C16 C10 1_555 1_555
O8 C30 1_555 1_555
O9 Cd2 1_555 1_555
O10 C31 1_555 1_555
O11 C31 1_555 1_555
O12 C32 1_555 1_555
O13 C32 1_555 1_555
O14 C29 1_555 1_555
N2 H9 1_555 1_555
C17 C18 1_555 1_555
C18 H10 1_555 1_555
C19 N2 1_555 1_555
C20 C19 1_555 1_555
H11 C20 1_555 1_555
C21 C20 1_555 1_555
C22 C17 1_555 1_555
H12 C22 1_555 1_555
C23 C24 1_555 1_555
C24 H13 1_555 1_555
C25 C24 1_555 1_555
H14 C25 1_555 1_555
C26 C25 1_555 1_555
C27 C26 1_555 1_555
H15 C27 1_555 1_555
C28 C23 1_555 1_555
H16 C28 1_555 1_555
C29 N2 1_555 1_555
C30 O9 1_555 1_555
C31 C21 1_555 1_555
C32 C26 1_555 1_555
O15 Cd2 1_555 1_555
O16 Cd1 1_555 1_555
N3 C33 1_555 1_555
N4 C37 1_555 1_555
C33 H17 1_555 1_555
H18 C33 1_555 1_555
H19 C33 1_555 1_555
C34 N3 1_555 1_555
H20 C34 1_555 1_555
H21 C34 1_555 1_555
H22 C34 1_555 1_555
C35 O15 1_555 1_555
C36 C35 1_555 1_555
H23 C36 1_555 1_555
H24 C36 1_555 1_555
H25 C36 1_555 1_555
C37 H26 1_555 1_555
H27 C37 1_555 1_555
H28 C37 1_555 1_555
C38 N4 1_555 1_555
H29 C38 1_555 1_555
H30 C38 1_555 1_555
H31 C38 1_555 1_555
C39 O16 1_555 1_555
C40 C39 1_555 1_555
H32 C40 1_555 1_555
H33 C40 1_555 1_555
H34 C40 1_555 1_555
Cd4 O17 1_555 1_555
O17 C54 1_555 1_555
O18 Cd4 1_555 1_555
O19 Cd2 1_555 1_555
O20 Cd2 1_555 1_555
O21 C56 1_555 1_555
O22 C56 1_555 1_555
O23 C53 1_555 1_555
N5 H35 1_555 1_555
C41 C42 1_555 1_555
C42 H36 1_555 1_555
C43 N5 1_555 1_555
C44 C43 1_555 1_555
H37 C44 1_555 1_555
C45 C44 1_555 1_555
C46 C41 1_555 1_555
H38 C46 1_555 1_555
C47 C48 1_555 1_555
C48 H39 1_555 1_555
C49 C48 1_555 1_555
H40 C49 1_555 1_555
C50 C49 1_555 1_555
C51 C50 1_555 1_555
H41 C51 1_555 1_555
C52 C47 1_555 1_555
H42 C52 1_555 1_555
C53 N5 1_555 1_555
C54 O18 1_555 1_555
C55 O19 1_555 1_555
C56 C50 1_555 1_555
O24 Cd4 1_555 1_555
N6 C57 1_555 1_555
C57 H43 1_555 1_555
H44 C57 1_555 1_555
H45 C57 1_555 1_555
C58 O24 1_555 1_555
C59 N6 1_555 1_555
H46 C59 1_555 1_555
H47 C59 1_555 1_555
H48 C59 1_555 1_555
C60 C58 1_555 1_555
H49 C60 1_555 1_555
H50 C60 1_555 1_555
H51 C60 1_555 1_555
Cd5 O18 1_555 1_555
O25 C63 1_555 1_555
N7 C61 1_555 1_555
C61 H52 1_555 1_555
H53 C61 1_555 1_555
H54 C61 1_555 1_555
C62 N7 1_555 1_555
H55 C62 1_555 1_555
H56 C62 1_555 1_555
H57 C62 1_555 1_555
C63 N7 1_555 1_555
C64 C63 1_555 1_555
H58 C64 1_555 1_555
H59 C64 1_555 1_555
H60 C64 1_555 1_555
Cd1A O1A 1_555 1_555
Cd2A O8A 1_555 1_555
Cd3A O2A 1_555 1_555
O1A C14A 1_555 1_555
O2A Cd1A 1_555 1_555
O3A C15A 1_555 1_555
O4A C15A 1_555 1_555
O5A Cd5 1_555 1_555
O6A Cd4 1_555 1_555
O7A C13A 1_555 1_555
N1A H1A 1_555 1_555
C1A C2A 1_555 1_555
C2A H2A 1_555 1_555
C3A N1A 1_555 1_555
C4A C3A 1_555 1_555
H3A C4A 1_555 1_555
C5A C4A 1_555 1_555
C6A C1A 1_555 1_555
H4A C6A 1_555 1_555
C7A C8A 1_555 1_555
C8A H5A 1_555 1_555
C9A C8A 1_555 1_555
H6A C9A 1_555 1_555
C10A C9A 1_555 1_555
C11A C10A 1_555 1_555
H7A C11A 1_555 1_555
C12A C7A 1_555 1_555
H8A C12A 1_555 1_555
C13A N1A 1_555 1_555
C14A O2A 1_555 1_555
C15A C5A 1_555 1_555
C16A O5A 1_555 1_555
O8A C30A 1_555 1_555
O9A Cd2A 1_555 1_555
O10A C31A 1_555 1_555
O11A C31A 1_555 1_555
O12A C32A 1_555 1_555
O13A C32A 1_555 1_555
O14A C29A 1_555 1_555
N2A H9A 1_555 1_555
C17A C18A 1_555 1_555
C18A H10A 1_555 1_555
C19A N2A 1_555 1_555
C20A C19A 1_555 1_555
H11A C20A 1_555 1_555
C21A C20A 1_555 1_555
C22A C17A 1_555 1_555
H12A C22A 1_555 1_555
C23A C24A 1_555 1_555
C24A H13A 1_555 1_555
C25A C24A 1_555 1_555
H14A C25A 1_555 1_555
C26A C25A 1_555 1_555
C27A C26A 1_555 1_555
H15A C27A 1_555 1_555
C28A C23A 1_555 1_555
H16A C28A 1_555 1_555
C29A N2A 1_555 1_555
C30A O9A 1_555 1_555
C31A C21A 1_555 1_555
C32A C26A 1_555 1_555
O15A Cd2A 1_555 1_555
O16A Cd1A 1_555 1_555
N3A C33A 1_555 1_555
N4A C37A 1_555 1_555
C33A H17A 1_555 1_555
H18A C33A 1_555 1_555
H19A C33A 1_555 1_555
C34A N3A 1_555 1_555
H20A C34A 1_555 1_555
H21A C34A 1_555 1_555
H22A C34A 1_555 1_555
C35A O15A 1_555 1_555
C36A C35A 1_555 1_555
H23A C36A 1_555 1_555
H24A C36A 1_555 1_555
H25A C36A 1_555 1_555
C37A H26A 1_555 1_555
H27A C37A 1_555 1_555
H28A C37A 1_555 1_555
C38A N4A 1_555 1_555
H29A C38A 1_555 1_555
H30A C38A 1_555 1_555
H31A C38A 1_555 1_555
C39A O16A 1_555 1_555
C40A C39A 1_555 1_555
H32A C40A 1_555 1_555
H33A C40A 1_555 1_555
H34A C40A 1_555 1_555
Cd4A O6 1_555 1_555
O17A Cd4A 1_555 1_555
O18A Cd4A 1_555 1_555
O19A Cd2A 1_555 1_555
O20A Cd2A 1_555 1_555
O21A C56A 1_555 1_555
O22A C56A 1_555 1_555
O23A C53A 1_555 1_555
N5A H35A 1_555 1_555
C41A C42A 1_555 1_555
C42A H36A 1_555 1_555
C43A N5A 1_555 1_555
C44A C43A 1_555 1_555
H37A C44A 1_555 1_555
C45A C44A 1_555 1_555
C46A C41A 1_555 1_555
H38A C46A 1_555 1_555
C47A C48A 1_555 1_555
C48A H39A 1_555 1_555
C49A C48A 1_555 1_555
H40A C49A 1_555 1_555
C50A C49A 1_555 1_555
C51A C50A 1_555 1_555
H41A C51A 1_555 1_555
C52A C47A 1_555 1_555
H42A C52A 1_555 1_555
C53A N5A 1_555 1_555
C54A O17A 1_555 1_555
C55A O19A 1_555 1_555
C56A C50A 1_555 1_555
O24A Cd4A 1_555 1_555
N6A C57A 1_555 1_555
C57A H43A 1_555 1_555
H44A C57A 1_555 1_555
H45A C57A 1_555 1_555
C58A O24A 1_555 1_555
C59A N6A 1_555 1_555
H46A C59A 1_555 1_555
H47A C59A 1_555 1_555
H48A C59A 1_555 1_555
C60A C58A 1_555 1_555
H49A C60A 1_555 1_555
H50A C60A 1_555 1_555
H51A C60A 1_555 1_555
Cd1_2 O13A 1_555 1_555
Cd1_3 O10A 1_555 1_555
Cd1_4 O4A 1_555 1_555
Cd1A_2 O4 1_555 1_555
Cd1A_3 O10 1_555 1_555
Cd1A_4 O13 1_555 1_555
Cd2_2 O20A 1_555 1_555
Cd2_3 O21 1_555 1_555
Cd2A_2 O21A 1_555 1_555
Cd2A_3 O20 1_555 1_555
Cd3_2 O12A 1_555 1_555
Cd3_3 O22 1_555 1_555
Cd3A_2 O22A 1_555 1_555
Cd3A_3 O12 1_555 1_555
O3_2 Cd4A 1_555 1_555
O3A_2 Cd4 1_555 1_555
O4_2 Cd1A 1_555 1_555
O4_3 Cd4A 1_555 1_555
O4A_2 Cd4 1_555 1_555
O4A_3 Cd1 1_555 1_555
O5_2 Cd5 1_555 1_555
O10_2 Cd1A 1_555 1_555
O10A_2 Cd1 1_555 1_555
O11_2 Cd1A 1_555 1_555
O11_3 Cd4A 1_555 1_555
O11A_2 Cd4 1_555 1_555
O11A_3 Cd1 1_555 1_555
O12_2 Cd3A 1_555 1_555
O12A_2 Cd3 1_555 1_555
O13_2 Cd1A 1_555 1_555
O13A_2 Cd1 1_555 1_555
Cd4_2 O11A 1_555 1_555
Cd4_3 O3A 1_555 1_555
Cd4A_2 O3 1_555 1_555
Cd4A_3 O11 1_555 1_555
O18A_2 Cd5 1_555 1_555
O20_2 Cd2A 1_555 1_555
O20A_2 Cd2 1_555 1_555
O21_2 Cd2 1_555 1_555
O21A_2 Cd2A 1_555 1_555
O22_2 Cd3 1_555 1_555
O22A_2 Cd3A 1_555 1_555
O24A_2 Cd5 1_555 1_555
Cd5_2 O5 1_555 1_555
Cd3 O9 1_555 1_555
Cd3 O15 1_555 1_555
Cd3 O16 1_555 1_555
O4 Cd4A_2 1_555 1_555
C1 C14 1_555 1_555
C2 C3 1_555 1_555
C5 C6 1_555 1_555
C7 C13 1_555 1_555
C11 C12 1_555 1_555
O11 Cd1A_3 1_555 1_555
C17 C30 1_555 1_555
C18 C19 1_555 1_555
C21 C22 1_555 1_555
C23 C29 1_555 1_555
C27 C28 1_555 1_555
N3 C35 1_555 1_555
N4 C39 1_555 1_555
O20 C55 1_555 1_555
C41 C54 1_555 1_555
C42 C43 1_555 1_555
C45 C46 1_555 1_555
C45 C55 1_555 1_555
C47 C53 1_555 1_555
C51 C52 1_555 1_555
O24 Cd5 1_555 1_555
N6 C58 1_555 1_555
Cd3A O9A 1_555 1_555
Cd3A O15A 1_555 1_555
Cd3A O16A 1_555 1_555
O4A Cd4_3 1_555 1_555
O6A C16A 1_555 1_555
C1A C14A 1_555 1_555
C2A C3A 1_555 1_555
C5A C6A 1_555 1_555
C7A C13A 1_555 1_555
C10A C16A 1_555 1_555
C11A C12A 1_555 1_555
O11A Cd1_3 1_555 1_555
C17A C30A 1_555 1_555
C18A C19A 1_555 1_555
C21A C22A 1_555 1_555
C23A C29A 1_555 1_555
C27A C28A 1_555 1_555
N3A C35A 1_555 1_555
N4A C39A 1_555 1_555
O18A C54A 1_555 1_555
O18A Cd5_2 1_555 1_555
O20A C55A 1_555 1_555
C41A C54A 1_555 1_555
C42A C43A 1_555 1_555
C45A C46A 1_555 1_555
C45A C55A 1_555 1_555
C47A C53A 1_555 1_555
C51A C52A 1_555 1_555
O24A Cd5_2 1_555 1_555
N6A C58A 1_555 1_555
Cd2_2 O20_2 1_555 1_555
Cd2A_3 O20A_2 1_555 1_555
Cd4A_2 O18A_2 1_555 1_555
Cd4A_2 O24A_2 1_555 1_555

#END
