
#######################################################################
#
#                 Cambridge Crystallographic Data Centre
#                                CCDC 
#
#######################################################################
#
# If this CIF has been generated from an entry in the Cambridge 
# Structural Database, then it will include bibliographic, chemical, 
# crystal, experimental, refinement or atomic coordinate data resulting 
# from the CCDC's data processing and validation procedures.
#
#######################################################################

data_DIMDIO
_symmetry_cell_setting           monoclinic
_symmetry_space_group_name_H-M   'C 2/c'
_symmetry_Int_Tables_number      15
_space_group_name_Hall           '-C 2yn'
loop_
_symmetry_equiv_pos_site_id
_symmetry_equiv_pos_as_xyz
1 x,y,z
2 -x,y,1/2-z
3 1/2+x,1/2+y,z
4 1/2-x,1/2+y,1/2-z
5 -x,-y,-z
6 x,-y,1/2+z
7 1/2-x,1/2-y,-z
8 1/2+x,1/2-y,1/2+z
_cell_length_a                   25.6030(10)
_cell_length_b                   10.0980(4)
_cell_length_c                   19.7543(8)
_cell_angle_alpha                90
_cell_angle_beta                 129.8120(10)
_cell_angle_gamma                90
_cell_volume                     3923.14
loop_
_atom_site_label
_atom_site_type_symbol
_atom_site_fract_x
_atom_site_fract_y
_atom_site_fract_z
La1 La 0.019865(10) 0.250684(18) 0.110303(12)
O1 O 0.07091(16) 0.3993(3) 0.25463(17)
O2 O 0.02466(15) 0.5046(3) 0.13235(16)
O3 O 0.06752(15) 1.1075(2) 0.24666(17)
O4 O 0.00215(14) 0.9983(2) 0.12278(16)
O5 O 0.42514(15) 0.6678(3) 0.95085(17)
O6 O 0.40729(13) 0.8707(2) 0.96999(16)
O7 O 0.19303(17) 0.9719(3) 0.52197(18)
N1 N 0.17186(17) 0.7540(3) 0.4877(2)
H1 H 0.1798 0.6763 0.5102
C1 C 0.07183(18) 0.6358(3) 0.2595(2)
C2 C 0.04787(18) 0.7532(3) 0.2119(2)
H2 H 0.0196 0.7516 0.1507
C3 C 0.06632(17) 0.8727(3) 0.2562(2)
C4 C 0.10748(17) 0.8770(3) 0.3472(2)
H3 H 0.1198 0.9579 0.3763
C5 C 0.13009(18) 0.7598(3) 0.3945(2)
C6 C 0.11256(18) 0.6393(3) 0.3504(2)
H4 H 0.1283 0.5606 0.3822
C7 C 0.20059(19) 0.8558(4) 0.5452(2)
C8 C 0.24377(18) 0.8228(4) 0.6408(2)
C9 C 0.25825(19) 0.9260(4) 0.6977(2)
H5 H 0.2372 1.0078 0.6746
C10 C 0.30343(19) 0.9076(4) 0.7876(2)
H6 H 0.3125 0.9767 0.8249
C11 C 0.33537(18) 0.7866(4) 0.8227(2)
C12 C 0.31838(17) 0.6820(4) 0.7663(2)
H7 H 0.3378 0.5992 0.7895
C13 C 0.27307(18) 0.6997(4) 0.6765(2)
H8 H 0.2619 0.6288 0.6394
C14 C 0.05456(18) 0.5060(3) 0.2128(2)
C15 C 0.04345(18) 0.9998(3) 0.2052(2)
C16 C 0.39188(19) 0.7731(3) 0.9202(2)
O8 O -0.07116(16) 0.2510(3) 0.1271(2)
O9 O 0.15041(16) 0.2717(3) 0.2122(2)
O10 O 0.07442(14) 0.0979(3) 0.06266(19)
O11 O 0.05161(14) 0.3685(2) 0.02310(18)
La1_2 La 0.019865(10) 1.250684(18) 0.110303(12)
La1B La 0.519865(10) 0.750684(18) 1.110303(12)
O3_2 O 0.06752(15) 0.1075(2) 0.24666(17)
O4_2 O 0.00215(14) -0.0017(2) 0.12278(16)
O5B O -0.07486(15) 0.1678(3) -0.04915(17)
O6B O -0.09271(13) 0.3707(2) -0.03001(16)
O12 O 0.2217(2) 0.3000(4) 0.3939(3)
O13 O 0.19751(19) 0.4523(3) 0.5266(2)
loop_
_geom_bond_atom_site_label_1
_geom_bond_atom_site_label_2
_geom_bond_site_symmetry_1
_geom_bond_site_symmetry_2
La1 O1 1_555 1_555
O1 C14 1_555 1_555
O2 La1 1_555 1_555
O3 C15 1_555 1_555
O4 C15 1_555 1_555
O5 C16 1_555 1_555
O6 C16 1_555 1_555
O7 C7 1_555 1_555
N1 H1 1_555 1_555
C1 C2 1_555 1_555
C2 H2 1_555 1_555
C3 C2 1_555 1_555
C4 C3 1_555 1_555
H3 C4 1_555 1_555
C5 N1 1_555 1_555
C6 C1 1_555 1_555
H4 C6 1_555 1_555
C7 N1 1_555 1_555
C8 C7 1_555 1_555
C9 C8 1_555 1_555
H5 C9 1_555 1_555
C10 C9 1_555 1_555
H6 C10 1_555 1_555
C11 C10 1_555 1_555
C12 C11 1_555 1_555
H7 C12 1_555 1_555
C13 C8 1_555 1_555
H8 C13 1_555 1_555
C14 O2 1_555 1_555
C15 C3 1_555 1_555
C16 C11 1_555 1_555
O8 La1 1_555 1_555
O9 La1 1_555 1_555
O10 La1 1_555 1_555
O11 La1 1_555 1_555
La1_2 O3 1_555 1_555
La1B O5 1_555 1_555
O3_2 La1 1_555 1_555
O4_2 La1 1_555 1_555
O5B La1 1_555 1_555
O6B La1 1_555 1_555
O4 La1_2 1_555 1_555
O6 La1B 1_555 1_555
C1 C14 1_555 1_555
C4 C5 1_555 1_555
C5 C6 1_555 1_555
C12 C13 1_555 1_555

#END
