
#######################################################################
#
#                 Cambridge Crystallographic Data Centre
#                                CCDC 
#
#######################################################################
#
# If this CIF has been generated from an entry in the Cambridge 
# Structural Database, then it will include bibliographic, chemical, 
# crystal, experimental, refinement or atomic coordinate data resulting 
# from the CCDC's data processing and validation procedures.
#
#######################################################################

data_DIMFEM
_symmetry_cell_setting           monoclinic
_symmetry_space_group_name_H-M   'P 21/c'
_symmetry_Int_Tables_number      14
_space_group_name_Hall           '-P 2ybc'
loop_
_symmetry_equiv_pos_site_id
_symmetry_equiv_pos_as_xyz
1 x,y,z
2 -x,1/2+y,1/2-z
3 -x,-y,-z
4 x,1/2-y,1/2+z
_cell_length_a                   8.1650(5)
_cell_length_b                   11.1546(7)
_cell_length_c                   38.687(2)
_cell_angle_alpha                90
_cell_angle_beta                 94.893(2)
_cell_angle_gamma                90
_cell_volume                     3510.67
loop_
_atom_site_label
_atom_site_type_symbol
_atom_site_fract_x
_atom_site_fract_y
_atom_site_fract_z
Tb1 Tb -0.38745(4) -0.35782(3) 0.546501(8)
O1 O -1.3001(6) -0.1703(4) 0.19289(11)
O2 O -1.3230(6) 0.0192(4) 0.21062(11)
H1 H -1.3614 0.0308 0.1901
O3 O -0.8359(5) -0.2944(4) 0.34708(11)
O4 O -0.3100(6) 0.0679(4) 0.47475(11)
O5 O -0.4624(5) 0.1884(4) 0.43999(11)
O6 O -0.6130(5) -0.4393(4) 0.44393(10)
O7 O -0.4657(5) -0.3534(4) 0.48793(10)
O8 O 0.0246(5) 0.3461(4) 0.53232(10)
O9 O -0.1486(5) 0.2417(4) 0.49786(11)
H2 H -0.1849 0.1713 0.4959
O10 O -0.2315(5) -0.1909(4) 0.52634(10)
O11 O -0.1546(5) -0.2539(4) 0.57915(10)
O12 O 0.2935(6) 0.2600(4) 0.63280(11)
O13 O 0.7225(6) 0.1934(5) 0.79449(12)
O14 O 0.7720(6) 0.0032(4) 0.78166(12)
H3 H 0.8312 0.0058 0.8005
N1 N -0.7998(6) -0.0996(4) 0.36190(12)
H4 H -0.8250 -0.0255 0.3557
N2 N 0.2517(6) 0.0596(5) 0.62758(13)
H5 H 0.2812 -0.0099 0.6369
C1 C -1.2632(8) -0.0909(6) 0.21373(17)
C2 C -1.1547(8) -0.1087(6) 0.24636(16)
C3 C -1.0822(8) -0.2188(6) 0.25188(17)
H6 H -1.0968 -0.2792 0.2346
C4 C -0.9873(8) -0.2423(6) 0.28277(17)
H7 H -0.9393 -0.3193 0.2867
C5 C -0.9626(7) -0.1531(6) 0.30798(15)
C6 C -1.0322(8) -0.0415(6) 0.30158(15)
H8 H -1.0140 0.0206 0.3183
C7 C -1.1286(8) -0.0195(6) 0.27092(16)
H9 H -1.1768 0.0573 0.2668
C8 C -0.8633(8) -0.1874(6) 0.34057(16)
C9 C -0.6972(7) -0.1140(5) 0.39309(15)
C10 C -0.6822(7) -0.2222(6) 0.41120(15)
H10 H -0.7449 -0.2902 0.4034
C11 C -0.5731(8) -0.2289(5) 0.44115(15)
C12 C -0.4884(7) -0.1300(6) 0.45420(15)
H11 H -0.4165 -0.1355 0.4748
C13 C -0.5105(7) -0.0212(5) 0.43656(15)
C14 C -0.6131(7) -0.0136(6) 0.40587(15)
H12 H -0.6251 0.0604 0.3938
C15 C -0.4261(8) 0.0862(6) 0.45090(16)
C16 C -0.5513(7) -0.3487(6) 0.45903(15)
C17 C -0.1481(8) -0.1766(5) 0.55498(16)
C18 C -0.0470(7) -0.0656(6) 0.56132(16)
C19 C 0.0608(7) -0.0537(6) 0.59045(15)
H13 H 0.0803 -0.1197 0.6058
C20 C 0.1417(8) 0.0550(6) 0.59750(15)
C21 C 0.1092(7) 0.1526(6) 0.57519(14)
H14 H 0.1618 0.2274 0.5800
C22 C -0.0015(7) 0.1389(6) 0.54576(14)
C23 C -0.0775(7) 0.0304(6) 0.53881(16)
H15 H -0.1510 0.0211 0.5186
C24 C -0.0428(7) 0.2483(6) 0.52425(15)
C25 C 0.3171(7) 0.1572(6) 0.64373(15)
C26 C 0.4204(7) 0.1356(6) 0.67761(15)
C27 C 0.5021(8) 0.0303(6) 0.68607(16)
H16 H 0.4947 -0.0348 0.6702
C28 C 0.5951(7) 0.0182(6) 0.71762(16)
H17 H 0.6505 -0.0549 0.7234
C29 C 0.6065(8) 0.1147(6) 0.74077(16)
C30 C 0.5237(8) 0.2198(6) 0.73222(17)
H18 H 0.5306 0.2847 0.7481
C31 C 0.4316(8) 0.2319(6) 0.70103(16)
H19 H 0.3758 0.3049 0.6954
C32 C 0.7050(8) 0.1080(7) 0.77532(17)
O15 O -0.1520(5) -0.4433(4) 0.52357(11)
O16 O -0.6844(5) -0.4169(4) 0.53987(11)
O17 O -0.4390(5) -0.3755(4) 0.60578(10)
Tb1B Tb -0.61255(4) -0.64218(3) 0.453499(8)
Tb1B_2 Tb -0.61255(4) 0.35782(3) 0.453499(8)
O5B O -0.5376(5) -0.1884(4) 0.56001(11)
O6B O -0.3870(5) -0.5607(4) 0.55607(10)
O18 O 0.1346(6) -0.3764(4) 0.60206(12)
O19 O -1.4545(5) 0.0749(4) 0.14544(10)
O20 O 0.9596(7) -0.0037(5) 0.83914(13)
O21 O -0.8277(6) 0.1624(4) 0.35155(11)
O22 O 0.3464(6) -0.2154(4) 0.64110(12)
loop_
_geom_bond_atom_site_label_1
_geom_bond_atom_site_label_2
_geom_bond_site_symmetry_1
_geom_bond_site_symmetry_2
Tb1 O7 1_555 1_555
O1 C1 1_555 1_555
O2 H1 1_555 1_555
O3 C8 1_555 1_555
O4 C15 1_555 1_555
O5 C15 1_555 1_555
O6 C16 1_555 1_555
O7 C16 1_555 1_555
O8 C24 1_555 1_555
O9 H2 1_555 1_555
O10 Tb1 1_555 1_555
O11 Tb1 1_555 1_555
O12 C25 1_555 1_555
O13 C32 1_555 1_555
O14 H3 1_555 1_555
N1 H4 1_555 1_555
N2 H5 1_555 1_555
C1 O2 1_555 1_555
C2 C1 1_555 1_555
C3 C2 1_555 1_555
H6 C3 1_555 1_555
C4 C3 1_555 1_555
H7 C4 1_555 1_555
C5 C4 1_555 1_555
C6 C5 1_555 1_555
H8 C6 1_555 1_555
C7 C2 1_555 1_555
H9 C7 1_555 1_555
C8 N1 1_555 1_555
C9 N1 1_555 1_555
C10 C9 1_555 1_555
H10 C10 1_555 1_555
C11 C10 1_555 1_555
C12 C11 1_555 1_555
H11 C12 1_555 1_555
C13 C12 1_555 1_555
C14 C9 1_555 1_555
H12 C14 1_555 1_555
C15 C13 1_555 1_555
C16 C11 1_555 1_555
C17 O10 1_555 1_555
C18 C17 1_555 1_555
C19 C18 1_555 1_555
H13 C19 1_555 1_555
C20 N2 1_555 1_555
C21 C20 1_555 1_555
H14 C21 1_555 1_555
C22 C21 1_555 1_555
C23 C18 1_555 1_555
H15 C23 1_555 1_555
C24 O9 1_555 1_555
C25 N2 1_555 1_555
C26 C25 1_555 1_555
C27 C26 1_555 1_555
H16 C27 1_555 1_555
C28 C27 1_555 1_555
H17 C28 1_555 1_555
C29 C28 1_555 1_555
C30 C29 1_555 1_555
H18 C30 1_555 1_555
C31 C26 1_555 1_555
H19 C31 1_555 1_555
C32 O14 1_555 1_555
O15 Tb1 1_555 1_555
O16 Tb1 1_555 1_555
O17 Tb1 1_555 1_555
Tb1B O6 1_555 1_555
Tb1B_2 O5 1_555 1_555
O5B Tb1 1_555 1_555
O6B Tb1 1_555 1_555
O11 C17 1_555 1_555
C5 C8 1_555 1_555
C6 C7 1_555 1_555
C13 C14 1_555 1_555
C19 C20 1_555 1_555
C22 C23 1_555 1_555
C22 C24 1_555 1_555
C29 C32 1_555 1_555
C30 C31 1_555 1_555

#END
