
#######################################################################
#
#                 Cambridge Crystallographic Data Centre
#                                CCDC 
#
#######################################################################
#
# If this CIF has been generated from an entry in the Cambridge 
# Structural Database, then it will include bibliographic, chemical, 
# crystal, experimental, refinement or atomic coordinate data resulting 
# from the CCDC's data processing and validation procedures.
#
#######################################################################

data_DIMKIV
_symmetry_cell_setting           monoclinic
_symmetry_space_group_name_H-M   'C 2/c'
_symmetry_Int_Tables_number      15
_space_group_name_Hall           '-C 2yn'
loop_
_symmetry_equiv_pos_site_id
_symmetry_equiv_pos_as_xyz
1 x,y,z
2 1/2+x,1/2+y,z
3 -x,y,1/2-z
4 1/2-x,1/2+y,1/2-z
5 -x,-y,-z
6 1/2-x,1/2-y,-z
7 x,-y,1/2+z
8 1/2+x,1/2-y,1/2+z
_cell_length_a                   24.1908(19)
_cell_length_b                   9.1472(7)
_cell_length_c                   18.9567(15)
_cell_angle_alpha                90
_cell_angle_beta                 114.2520(10)
_cell_angle_gamma                90
_cell_volume                     3824.51
loop_
_atom_site_label
_atom_site_type_symbol
_atom_site_fract_x
_atom_site_fract_y
_atom_site_fract_z
Eu1 Eu 0.541623(8) 0.30572(2) 0.494296(11)
Zn1 Zn 0.71222(2) 0.50981(6) 0.33624(3)
O1 O 0.54720(13) 0.5658(4) 0.49616(18)
O2 O 0.54097(16) 0.8028(4) 0.4824(2)
O3 O 0.61555(18) 0.3512(4) 0.4579(3)
O4 O 0.66468(18) 0.3647(4) 0.3823(2)
O5 O 0.80454(15) 0.4821(4) 0.42683(19)
O6 O 0.89239(16) 0.3772(4) 0.4463(2)
O7 O 0.92363(15) 0.1336(4) 0.3788(2)
O8 O 0.87961(16) 0.0424(4) 0.2612(2)
O9 O 0.48258(19) 0.3705(5) 0.3674(2)
H1 H 0.4561 0.4372 0.3535
H2 H 0.4823 0.3284 0.3279
O10 O 0.51771(18) 0.0894(4) 0.4174(2)
H3 H 0.5416 0.0164 0.4303
H4 H 0.4820 0.0576 0.3962
N1 N 0.6420(2) 0.8186(4) 0.4485(3)
H5 H 0.6327 0.9048 0.4612
N2 N 0.68457(18) 0.6511(5) 0.4044(2)
N3 N 0.74324(17) 0.3323(4) 0.2964(2)
N4 N 0.77168(18) 0.1639(4) 0.2331(2)
C1 C 0.5660(2) 0.6848(5) 0.4804(3)
C2 C 0.6176(2) 0.6859(5) 0.4563(3)
C3 C 0.6451(2) 0.5834(5) 0.4298(3)
C4 C 0.6410(2) 0.4220(5) 0.4225(3)
C5 C 0.6824(2) 0.7927(5) 0.4180(3)
C6 C 0.7177(3) 0.9101(7) 0.4011(4)
H6 H 0.7006 0.9291 0.3465
H7 H 0.7591 0.8795 0.4176
H8 H 0.7161 0.9975 0.4282
C7 C 0.8356(2) 0.3909(5) 0.4088(3)
C8 C 0.8034(2) 0.3032(4) 0.3384(3)
C9 C 0.8209(2) 0.1985(5) 0.2995(3)
C10 C 0.8783(2) 0.1213(5) 0.3141(3)
C11 C 0.7261(2) 0.2458(5) 0.2341(3)
C12 C 0.6636(3) 0.2442(8) 0.1721(4)
H9 H 0.6392 0.1764 0.1856
H10 H 0.6649 0.2150 0.1242
H11 H 0.6463 0.3403 0.1666
Eu1D Eu 0.458377(8) 0.69428(2) 0.505704(11)
Eu1E Eu 0.958377(8) 0.19428(2) 0.505704(11)
Zn1C Zn 0.78778(2) 0.00981(6) 0.16376(3)
O1D O 0.45280(13) 0.4342(4) 0.50384(18)
O2D O 0.45903(16) 0.1972(4) 0.5176(2)
O6E O 0.60761(16) 0.1228(4) 0.5537(2)
O7E O 0.57637(15) 0.3664(4) 0.6212(2)
O8C O 0.62039(16) 0.5424(4) 0.2388(2)
N4C N 0.72832(18) 0.6639(4) 0.2669(2)
O11 O 0.4456(7) 0.2207(14) 0.2324(8)
H12 H 0.4125 0.2551 0.2006
H13 H 0.4698 0.2100 0.2113
O13 O 0.4353(5) -0.0565(11) 0.2939(6)
H16 H 0.4196 0.0008 0.2562
H17 H 0.4077 -0.0898 0.3053
O14 O 0.5000 -0.3140(19) 0.2500
H18 H 0.4784 -0.2600 0.2643
H18B H 0.5216 -0.2600 0.2357
O12? O 0.3987(7) 0.1085(15) 0.1626(8)
H14? H 0.3788 0.1859 0.1579
H15? H 0.4312 0.1256 0.1581
loop_
_geom_bond_atom_site_label_1
_geom_bond_atom_site_label_2
_geom_bond_site_symmetry_1
_geom_bond_site_symmetry_2
Eu1 O1 1_555 1_555
Zn1 O4 1_555 1_555
O1 C1 1_555 1_555
O2 C1 1_555 1_555
O3 Eu1 1_555 1_555
O4 C4 1_555 1_555
O5 Zn1 1_555 1_555
O6 C7 1_555 1_555
O7 C10 1_555 1_555
O8 C10 1_555 1_555
O9 Eu1 1_555 1_555
H1 O9 1_555 1_555
H2 O9 1_555 1_555
O10 Eu1 1_555 1_555
H3 O10 1_555 1_555
H4 O10 1_555 1_555
N1 H5 1_555 1_555
N2 Zn1 1_555 1_555
N3 Zn1 1_555 1_555
N4 C9 1_555 1_555
C1 C2 1_555 1_555
C2 N1 1_555 1_555
C3 N2 1_555 1_555
C4 O3 1_555 1_555
C5 N1 1_555 1_555
C6 C5 1_555 1_555
H6 C6 1_555 1_555
H7 C6 1_555 1_555
H8 C6 1_555 1_555
C7 O5 1_555 1_555
C8 N3 1_555 1_555
C9 C8 1_555 1_555
C10 C9 1_555 1_555
C11 N3 1_555 1_555
C12 C11 1_555 1_555
H9 C12 1_555 1_555
H10 C12 1_555 1_555
H11 C12 1_555 1_555
O11 H12 1_555 1_555
H13 O11 1_555 1_555
O13 H16 1_555 1_555
H17 O13 1_555 1_555
O14 H18 1_555 1_555
Eu1D O1 1_555 1_555
Eu1E O6 1_555 1_555
Zn1C O8 1_555 1_555
O1D Eu1 1_555 1_555
O2D Eu1 1_555 1_555
O6E Eu1 1_555 1_555
O7E Eu1 1_555 1_555
O8C Zn1 1_555 1_555
N4C Zn1 1_555 1_555
H18B O14 1_555 1_555
O2 Eu1D 1_555 1_555
O7 Eu1E 1_555 1_555
N2 C5 1_555 1_555
N4 C11 1_555 1_555
N4 Zn1C 1_555 1_555
C2 C3 1_555 1_555
C3 C4 1_555 1_555
C7 C8 1_555 1_555
Eu1D O1D 1_555 1_555

#END
