
#######################################################################
#
#                 Cambridge Crystallographic Data Centre
#                                CCDC 
#
#######################################################################
#
# If this CIF has been generated from an entry in the Cambridge 
# Structural Database, then it will include bibliographic, chemical, 
# crystal, experimental, refinement or atomic coordinate data resulting 
# from the CCDC's data processing and validation procedures.
#
#######################################################################

data_DIMKAN
_symmetry_cell_setting           monoclinic
_symmetry_space_group_name_H-M   'P 21/c'
_symmetry_Int_Tables_number      14
_space_group_name_Hall           '-P 2ybc'
loop_
_symmetry_equiv_pos_site_id
_symmetry_equiv_pos_as_xyz
1 x,y,z
2 -x,1/2+y,1/2-z
3 -x,-y,-z
4 x,1/2-y,1/2+z
_cell_length_a                   13.037(3)
_cell_length_b                   11.604(3)
_cell_length_c                   13.350(3)
_cell_angle_alpha                90
_cell_angle_beta                 115.572(2)
_cell_angle_gamma                90
_cell_volume                     1821.77
loop_
_atom_site_label
_atom_site_type_symbol
_atom_site_fract_x
_atom_site_fract_y
_atom_site_fract_z
Sm1 Sm 0.62778(4) 0.29288(3) 0.33967(3)
Zn1 Zn 0.94355(8) 0.54389(7) 0.16772(8)
O1 O 0.8196(5) 0.5390(5) 0.2352(5)
O2 O 0.7529(6) 0.4257(5) 0.3272(6)
O3 O 0.7908(5) 0.1828(5) 0.3865(6)
O4 O 0.9162(5) 0.0576(5) 0.3815(5)
O5 O 0.6133(7) 0.2050(5) 0.4946(5)
O6 O 0.5870(7) 0.2092(5) 0.6483(5)
O7 O 0.5506(6) 0.3927(6) 0.7707(5)
O8 O 0.5263(6) 0.5806(6) 0.7318(5)
O9 O 0.8300(5) 0.5649(5) 0.0101(5)
H1 H 0.7639 0.5490 0.0038
H2 H 0.8519 0.5185 -0.0261
N1 N 0.9562(6) 0.3800(6) 0.2150(6)
N2 N 0.9900(6) 0.1966(5) 0.2661(6)
N3 N 0.6715(6) 0.4276(6) 0.5102(6)
N4 N 0.6493(6) 0.5705(6) 0.6097(6)
H3 H 0.6489 0.6388 0.6345
C1 C 0.8905(7) 0.3509(6) 0.2697(6)
C2 C 0.9114(7) 0.2379(7) 0.3010(6)
C3 C 1.0122(8) 0.2850(7) 0.2140(7)
C4 C 0.8151(7) 0.4439(6) 0.2781(7)
C5 C 0.8691(7) 0.1545(6) 0.3608(7)
C6 C 1.0865(11) 0.2769(9) 0.1540(11)
H4 H 1.0397 0.2715 0.0756
H5 H 1.1337 0.2097 0.1788
H6 H 1.1335 0.3444 0.1694
C7 C 0.6325(7) 0.3857(7) 0.5832(6)
C8 C 0.6154(7) 0.4727(7) 0.6437(7)
C9 C 0.6836(8) 0.5425(8) 0.5304(8)
C10 C 0.6102(8) 0.2581(7) 0.5773(7)
C11 C 0.5624(7) 0.4803(7) 0.7230(7)
C12 C 0.7298(12) 0.6299(9) 0.4788(10)
H7 H 0.6862 0.6996 0.4656
H8 H 0.7251 0.6007 0.4097
H9 H 0.8078 0.6456 0.5280
Sm1B Sm 0.37222(4) 0.70712(3) 0.66033(3)
Sm1C Sm 0.62778(4) 0.20712(3) 0.83967(3)
Zn1A Zn 1.05645(8) 0.04389(7) 0.33228(8)
O4A O 1.0838(5) 0.5576(5) 0.1185(5)
O6C O 0.5870(7) 0.2908(5) 0.1483(5)
O7C O 0.5506(6) 0.1073(6) 0.2707(5)
O8B O 0.4737(6) 0.4194(6) 0.2682(5)
N2A N 1.0100(6) 0.6966(5) 0.2339(6)
O10 O 0.3890(6) 0.4576(6) 0.0165(5)
H10 H 0.4127 0.4468 0.0860
H11 H 0.3825 0.5289 0.0003
O11 O 0.3645(8) 0.3041(6) 0.8382(7)
H12 H 0.4269 0.2823 0.8385
H13 H 0.3315 0.2991 0.8808
loop_
_geom_bond_atom_site_label_1
_geom_bond_atom_site_label_2
_geom_bond_site_symmetry_1
_geom_bond_site_symmetry_2
Sm1 O2 1_555 1_555
Zn1 O1 1_555 1_555
O1 C4 1_555 1_555
O2 C4 1_555 1_555
O3 Sm1 1_555 1_555
O4 C5 1_555 1_555
O5 Sm1 1_555 1_555
O6 C10 1_555 1_555
O7 C11 1_555 1_555
O8 C11 1_555 1_555
O9 Zn1 1_555 1_555
H1 O9 1_555 1_555
H2 O9 1_555 1_555
N1 Zn1 1_555 1_555
N2 C2 1_555 1_555
N3 Sm1 1_555 1_555
N4 H3 1_555 1_555
C1 N1 1_555 1_555
C2 C1 1_555 1_555
C3 N1 1_555 1_555
C4 C1 1_555 1_555
C5 O3 1_555 1_555
C6 C3 1_555 1_555
H4 C6 1_555 1_555
H5 C6 1_555 1_555
H6 C6 1_555 1_555
C7 N3 1_555 1_555
C8 N4 1_555 1_555
C9 N3 1_555 1_555
C10 O5 1_555 1_555
C11 C8 1_555 1_555
C12 C9 1_555 1_555
H7 C12 1_555 1_555
H8 C12 1_555 1_555
H9 C12 1_555 1_555
O10 H10 1_555 1_555
H11 O10 1_555 1_555
O11 H12 1_555 1_555
H13 O11 1_555 1_555
Sm1B O8 1_555 1_555
Sm1C O6 1_555 1_555
Zn1A O4 1_555 1_555
O4A Zn1 1_555 1_555
O6C Sm1 1_555 1_555
O7C Sm1 1_555 1_555
O8B Sm1 1_555 1_555
N2A Zn1 1_555 1_555
O7 Sm1C 1_555 1_555
N2 C3 1_555 1_555
N2 Zn1A 1_555 1_555
N4 C9 1_555 1_555
C2 C5 1_555 1_555
C7 C8 1_555 1_555
C7 C10 1_555 1_555

#END
