
#######################################################################
#
#                 Cambridge Crystallographic Data Centre
#                                CCDC 
#
#######################################################################
#
# If this CIF has been generated from an entry in the Cambridge 
# Structural Database, then it will include bibliographic, chemical, 
# crystal, experimental, refinement or atomic coordinate data resulting 
# from the CCDC's data processing and validation procedures.
#
#######################################################################

data_DIMLIW
_symmetry_cell_setting           orthorhombic
_symmetry_space_group_name_H-M   'C 2 2 21'
_symmetry_Int_Tables_number      20
_space_group_name_Hall           'C 2n 2'
loop_
_symmetry_equiv_pos_site_id
_symmetry_equiv_pos_as_xyz
1 x,y,z
2 -x,-y,1/2+z
3 -x,y,1/2-z
4 x,-y,-z
5 1/2+x,1/2+y,z
6 1/2-x,1/2-y,1/2+z
7 1/2-x,1/2+y,1/2-z
8 1/2+x,1/2-y,-z
_cell_length_a                   17.4994(15)
_cell_length_b                   18.9744(16)
_cell_length_c                   13.2024(11)
_cell_angle_alpha                90
_cell_angle_beta                 90
_cell_angle_gamma                90
_cell_volume                     4383.73
loop_
_atom_site_label
_atom_site_type_symbol
_atom_site_fract_x
_atom_site_fract_y
_atom_site_fract_z
Cu1 Cu -0.078021(18) -1.0000 -1.0000
S1 S -0.17598(3) -1.06633(3) -0.95200(4)
S2 S 0.01994(2) -0.93035(2) -1.03531(4)
N1 N -0.30708(12) -1.0000 -1.0000
N2 N 0.15157(12) -1.0000 -1.0000
C1 C -0.23265(14) -1.0000 -1.0000
C2 C -0.34975(11) -1.05714(11) -0.95016(15)
H1 H -0.3218 -1.1021 -0.9594
H2 H -0.4004 -1.0620 -0.9828
C3 C -0.36058(14) -1.04361(12) -0.83820(16)
H3 H -0.3967 -1.0041 -0.8285
H4 H -0.3111 -1.0302 -0.8074
C4 C -0.39131(19) -1.10900(17) -0.7865(2)
H5 H -0.3985 -1.0994 -0.7142
H6 H -0.3549 -1.1478 -0.7949
H7 H -0.4404 -1.1221 -0.8169
C5 C 0.07686(15) -1.0000 -1.0000
C6 C 0.19498(11) -0.93921(12) -1.03998(15)
H8 H 0.1656 -0.9172 -1.0957
H9 H 0.2441 -0.9561 -1.0683
C7 C 0.21091(14) -0.88462(13) -0.9598(2)
H10 H 0.2375 -0.9069 -0.9019
H11 H 0.1621 -0.8647 -0.9349
C8 C 0.26064(16) -0.82550(16) -1.0033(3)
H12 H 0.2714 -0.7908 -0.9502
H13 H 0.2336 -0.8026 -1.0593
H14 H 0.3088 -0.8453 -1.0282
Cu2 Cu 0.0000 -0.944112(16) -1.2500
S3 S 0.08114(3) -1.04017(2) -1.27007(3)
S4 S -0.08094(3) -0.84788(2) -1.22831(4)
N3 N 0.0000 -1.15987(11) -1.2500
N4 N 0.0000 -0.72838(11) -1.2500
C9 C 0.0000 -1.08987(13) -1.2500
C10 C 0.07038(13) -1.19971(10) -1.27137(17)
H15 H 0.0662 -1.2470 -1.2401
H16 H 0.1141 -1.1752 -1.2394
C11 C 0.08646(15) -1.20832(11) -1.38353(17)
H17 H 0.0910 -1.1609 -1.4141
H18 H 0.1365 -1.2321 -1.3914
C12 C 0.02740(16) -1.24943(12) -1.44222(19)
H19 H 0.0426 -1.2520 -1.5136
H20 H -0.0222 -1.2258 -1.4368
H21 H 0.0235 -1.2972 -1.4144
C13 C 0.0000 -0.79876(13) -1.2500
C14 C -0.07016(12) -0.68874(10) -1.23063(16)
H22 H -0.0569 -0.6428 -1.1997
H23 H -0.1020 -0.7151 -1.1816
C15 C -0.11611(13) -0.67595(13) -1.32664(18)
H24 H -0.1216 -0.7207 -1.3644
H25 H -0.0886 -0.6420 -1.3705
C16 C -0.19509(14) -0.64687(15) -1.3011(2)
H26 H -0.2236 -0.6385 -1.3638
H27 H -0.1896 -0.6025 -1.2639
H28 H -0.2227 -0.6810 -1.2591
S1C S -0.17598(3) -0.93367(3) -1.04800(4)
C2C C -0.34975(11) -0.94286(11) -1.04984(15)
H1C H -0.3218 -0.8979 -1.0406
H2C H -0.4004 -0.9380 -1.0172
C3C C -0.36058(14) -0.95639(12) -1.16180(16)
H3C H -0.3967 -0.9959 -1.1715
H4C H -0.3111 -0.9698 -1.1926
C4C C -0.39131(19) -0.89100(17) -1.2135(2)
H5C H -0.3985 -0.9006 -1.2858
H6C H -0.3549 -0.8522 -1.2051
H7C H -0.4404 -0.8779 -1.1831
S2C S 0.01994(2) -1.06965(2) -0.96469(4)
C6C C 0.19498(11) -1.06079(12) -0.96002(15)
H8C H 0.1656 -1.0828 -0.9043
H9C H 0.2441 -1.0439 -0.9317
C7C C 0.21091(14) -1.11538(13) -1.0402(2)
H10C H 0.2375 -1.0931 -1.0981
H11C H 0.1621 -1.1353 -1.0651
C8C C 0.26064(16) -1.17450(16) -0.9967(3)
H12C H 0.2714 -1.2092 -1.0498
H13C H 0.2336 -1.1974 -0.9407
H14C H 0.3088 -1.1547 -0.9718
S3B S -0.08114(3) -1.04017(2) -1.22993(3)
C10B C -0.07038(13) -1.19971(10) -1.22863(17)
H15B H -0.0662 -1.2470 -1.2599
H16B H -0.1141 -1.1752 -1.2606
C11B C -0.08646(15) -1.20832(11) -1.11647(17)
H17B H -0.0910 -1.1609 -1.0859
H18B H -0.1365 -1.2321 -1.1086
C12B C -0.02740(16) -1.24943(12) -1.05778(19)
H19B H -0.0426 -1.2520 -0.9864
H20B H 0.0222 -1.2258 -1.0632
H21B H -0.0235 -1.2972 -1.0856
S4B S 0.08094(3) -0.84788(2) -1.27169(4)
C14B C 0.07016(12) -0.68874(10) -1.26937(16)
H22B H 0.0569 -0.6428 -1.3003
H23B H 0.1020 -0.7151 -1.3184
C15B C 0.11611(13) -0.67595(13) -1.17336(18)
H24B H 0.1216 -0.7207 -1.1356
H25B H 0.0886 -0.6420 -1.1295
C16B C 0.19509(14) -0.64687(15) -1.1989(2)
H26B H 0.2236 -0.6385 -1.1362
H27B H 0.1896 -0.6025 -1.2361
H28B H 0.2227 -0.6810 -1.2409
S2B S -0.01994(2) -0.93035(2) -1.46469(4)
Cu2A Cu 0.0000 -1.055888(16) -0.7500
Cl1 Cl -0.57820(5) -1.0000 -1.0000
O1 O -0.53574(14) -0.94021(15) -1.0141(3)
O2 O -0.63044(13) -0.98865(19) -0.9128(2)
O1C O -0.53574(14) -1.05979(15) -0.9859(3)
O2C O -0.63044(13) -1.01135(19) -1.0872(2)
loop_
_geom_bond_atom_site_label_1
_geom_bond_atom_site_label_2
_geom_bond_site_symmetry_1
_geom_bond_site_symmetry_2
Cu1 S1 1_555 1_555
S1 C1 1_555 1_555
S2 Cu1 1_555 1_555
N1 C1 1_555 1_555
N2 C5 1_555 1_555
C1 S1C 1_555 1_555
C2 N1 1_555 1_555
H1 C2 1_555 1_555
H2 C2 1_555 1_555
C3 C2 1_555 1_555
H3 C3 1_555 1_555
H4 C3 1_555 1_555
C4 C3 1_555 1_555
H5 C4 1_555 1_555
H6 C4 1_555 1_555
H7 C4 1_555 1_555
C5 S2 1_555 1_555
C6 N2 1_555 1_555
H8 C6 1_555 1_555
H9 C6 1_555 1_555
C7 C6 1_555 1_555
H10 C7 1_555 1_555
H11 C7 1_555 1_555
C8 C7 1_555 1_555
H12 C8 1_555 1_555
H13 C8 1_555 1_555
H14 C8 1_555 1_555
Cu2 S2 1_555 1_555
S3 Cu2 1_555 1_555
S4 Cu2 1_555 1_555
N3 C9 1_555 1_555
N4 C13 1_555 1_555
C9 S3 1_555 1_555
C10 N3 1_555 1_555
H15 C10 1_555 1_555
H16 C10 1_555 1_555
C11 C10 1_555 1_555
H17 C11 1_555 1_555
H18 C11 1_555 1_555
C12 C11 1_555 1_555
H19 C12 1_555 1_555
H20 C12 1_555 1_555
H21 C12 1_555 1_555
C13 S4 1_555 1_555
C14 N4 1_555 1_555
H22 C14 1_555 1_555
H23 C14 1_555 1_555
C15 C14 1_555 1_555
H24 C15 1_555 1_555
H25 C15 1_555 1_555
C16 C15 1_555 1_555
H26 C16 1_555 1_555
H27 C16 1_555 1_555
H28 C16 1_555 1_555
Cl1 O1 1_555 1_555
O2 Cl1 1_555 1_555
S1C Cu1 1_555 1_555
C2C N1 1_555 1_555
H1C C2C 1_555 1_555
H2C C2C 1_555 1_555
C3C C2C 1_555 1_555
H3C C3C 1_555 1_555
H4C C3C 1_555 1_555
C4C C3C 1_555 1_555
H5C C4C 1_555 1_555
H6C C4C 1_555 1_555
H7C C4C 1_555 1_555
S2C Cu1 1_555 1_555
C6C N2 1_555 1_555
H8C C6C 1_555 1_555
H9C C6C 1_555 1_555
C7C C6C 1_555 1_555
H10C C7C 1_555 1_555
H11C C7C 1_555 1_555
C8C C7C 1_555 1_555
H12C C8C 1_555 1_555
H13C C8C 1_555 1_555
H14C C8C 1_555 1_555
S3B Cu2 1_555 1_555
C10B N3 1_555 1_555
H15B C10B 1_555 1_555
H16B C10B 1_555 1_555
C11B C10B 1_555 1_555
H17B C11B 1_555 1_555
H18B C11B 1_555 1_555
C12B C11B 1_555 1_555
H19B C12B 1_555 1_555
H20B C12B 1_555 1_555
H21B C12B 1_555 1_555
S4B Cu2 1_555 1_555
C14B N4 1_555 1_555
H22B C14B 1_555 1_555
H23B C14B 1_555 1_555
C15B C14B 1_555 1_555
H24B C15B 1_555 1_555
H25B C15B 1_555 1_555
C16B C15B 1_555 1_555
H26B C16B 1_555 1_555
H27B C16B 1_555 1_555
H28B C16B 1_555 1_555
S2B Cu2 1_555 1_555
Cu2A S2C 1_555 1_555
O1C Cl1 1_555 1_555
O2C Cl1 1_555 1_555
C5 S2C 1_555 1_555
C9 S3B 1_555 1_555
C13 S4B 1_555 1_555

#END
