
#######################################################################
#
#                 Cambridge Crystallographic Data Centre
#                                CCDC 
#
#######################################################################
#
# If this CIF has been generated from an entry in the Cambridge 
# Structural Database, then it will include bibliographic, chemical, 
# crystal, experimental, refinement or atomic coordinate data resulting 
# from the CCDC's data processing and validation procedures.
#
#######################################################################

data_DIMLAO
_symmetry_cell_setting           triclinic
_symmetry_space_group_name_H-M   'P -1'
_symmetry_Int_Tables_number      2
_space_group_name_Hall           '-P 1'
loop_
_symmetry_equiv_pos_site_id
_symmetry_equiv_pos_as_xyz
1 x,y,z
2 -x,-y,-z
_cell_length_a                   9.874(3)
_cell_length_b                   10.599(3)
_cell_length_c                   11.409(4)
_cell_angle_alpha                62.333(4)
_cell_angle_beta                 78.239(7)
_cell_angle_gamma                78.342(5)
_cell_volume                     1027.31
loop_
_atom_site_label
_atom_site_type_symbol
_atom_site_fract_x
_atom_site_fract_y
_atom_site_fract_z
C1 C 0.7788(6) -0.0825(6) 1.0061(5)
C2 C 0.9028(6) -0.0798(6) 0.9240(5)
H1 H 0.9798 -0.1530 0.9371
C3 C 0.8880(6) 0.0559(6) 0.8172(5)
C4 C 0.7224(6) -0.1799(6) 1.1420(5)
C5 C 0.9893(6) 0.1323(6) 0.7016(6)
C6 C 0.3835(6) 0.3341(6) 1.0310(5)
C7 C 0.3460(6) 0.4747(6) 0.9432(5)
H2 H 0.2744 0.5428 0.9574
C8 C 0.4384(6) 0.4924(6) 0.8291(5)
C9 C 0.3377(6) 0.2341(6) 1.1719(5)
C10 C 0.4580(6) 0.6168(6) 0.6973(5)
Cu1 Cu 0.55673(7) 0.07997(7) 1.08104(6)
Gd1 Gd 0.73069(3) 0.38748(3) 0.67409(3)
N1 N 0.7634(5) 0.1287(5) 0.8342(4)
N2 N 0.6975(5) 0.0436(5) 0.9508(4)
N3 N 0.5253(5) 0.3722(5) 0.8475(4)
N4 N 0.4900(5) 0.2751(5) 0.9719(4)
Na1 Na 0.3878(3) 0.9391(3) 0.4424(2)
O1 O 0.6129(4) -0.1246(4) 1.1937(3)
O2 O 0.7792(4) -0.3047(4) 1.2001(4)
O3 O 0.9459(4) 0.2625(4) 0.6239(4)
O4 O 1.1063(4) 0.0695(4) 0.6854(4)
O5 O 0.4075(4) 0.1089(4) 1.2140(3)
O6 O 0.2392(5) 0.2715(4) 1.2400(4)
O7 O 0.5565(4) 0.5951(4) 0.6133(3)
O8 O 0.3815(4) 0.7322(4) 0.6709(4)
O9 O 0.5736(4) 0.2806(4) 0.6175(4)
H3 H 0.5318 0.3618 0.5408
H4 H 0.4976 0.2571 0.6930
O10 O 0.8183(5) 0.3650(5) 0.8612(5)
H5 H 0.883(6) 0.389(7) 0.872(7)
H6 H 0.784(7) 0.300(7) 0.926(6)
O11 O 0.8626(5) 0.5853(5) 0.6005(5)
H7 H 0.828(7) 0.641(7) 0.634(6)
H8 H 0.909(7) 0.627(7) 0.529(6)
O12 O 0.7659(5) 0.4724(5) 0.4393(4)
H9 H 0.755(7) 0.546(7) 0.370(6)
H10 H 0.807(7) 0.406(7) 0.425(6)
O13 O 0.7392(5) 0.1660(5) 1.1371(4)
H11 H 0.695(7) 0.194(7) 1.190(6)
H12 H 0.793(7) 0.094(7) 1.171(6)
O14 O 0.3732(4) 1.1089(4) 0.5336(4)
H13 H 0.3454 1.2093 0.4700
H14 H 0.3122 1.0831 0.6198
O15 O 0.1457(7) 1.0078(7) 0.4434(6)
H15 H 0.165(9) 1.080(9) 0.374(8)
H16 H 0.137(10) 1.024(10) 0.508(8)
Na1_2 Na 0.3878(3) -0.0609(3) 1.4424(2)
Na1A Na 0.6122(3) 0.0609(3) 0.5576(2)
Na1A_2 Na 0.6122(3) 1.0609(3) 0.5576(2)
O5_2 O 0.4075(4) 1.1089(4) 0.2140(3)
O9A O 0.4264(4) 0.7194(4) 0.3825(4)
O14A O 0.6268(4) 0.8911(4) 0.4664(4)
O16 O 0.9790(5) 0.5231(6) 0.1118(6)
H17 H 0.976(17) 0.442(18) 0.173(16)
H18 H 0.910(6) 0.576(8) 0.124(7)
O17 O 0.9052(7) 0.2795(7) 0.3355(7)
H20 H 0.830(10) 0.265(10) 0.323(9)
H21 H 0.94(2) 0.34(2) 0.26(2)
H19? H 0.978(18) 0.517(18) 0.043(14)
H22? H 0.922(16) 0.216(12) 0.411(17)
loop_
_geom_bond_atom_site_label_1
_geom_bond_atom_site_label_2
_geom_bond_site_symmetry_1
_geom_bond_site_symmetry_2
C1 C2 1_555 1_555
C2 H1 1_555 1_555
C3 C2 1_555 1_555
C4 C1 1_555 1_555
C5 C3 1_555 1_555
C6 C7 1_555 1_555
C7 H2 1_555 1_555
C8 C7 1_555 1_555
C9 C6 1_555 1_555
C10 C8 1_555 1_555
Cu1 N2 1_555 1_555
Gd1 N1 1_555 1_555
N1 C3 1_555 1_555
N2 C1 1_555 1_555
N3 C8 1_555 1_555
N4 C6 1_555 1_555
Na1 O8 1_555 1_555
O1 C4 1_555 1_555
O2 C4 1_555 1_555
O3 C5 1_555 1_555
O4 C5 1_555 1_555
O5 C9 1_555 1_555
O6 C9 1_555 1_555
O7 C10 1_555 1_555
O8 C10 1_555 1_555
O9 Gd1 1_555 1_555
H3 O9 1_555 1_555
H4 O9 1_555 1_555
O10 Gd1 1_555 1_555
H5 O10 1_555 1_555
H6 O10 1_555 1_555
O11 Gd1 1_555 1_555
H7 O11 1_555 1_555
H8 O11 1_555 1_555
O12 Gd1 1_555 1_555
H9 O12 1_555 1_555
H10 O12 1_555 1_555
O13 Cu1 1_555 1_555
H11 O13 1_555 1_555
H12 O13 1_555 1_555
O14 Na1 1_555 1_555
H13 O14 1_555 1_555
H14 O14 1_555 1_555
O15 Na1 1_555 1_555
H15 O15 1_555 1_555
H16 O15 1_555 1_555
O16 H17 1_555 1_555
H18 O16 1_555 1_555
O17 H20 1_555 1_555
H21 O17 1_555 1_555
Na1_2 O5 1_555 1_555
Na1A O9 1_555 1_555
Na1A_2 O14 1_555 1_555
O5_2 Na1 1_555 1_555
O9A Na1 1_555 1_555
O14A Na1 1_555 1_555
Cu1 N4 1_555 1_555
Cu1 O1 1_555 1_555
Cu1 O5 1_555 1_555
Gd1 N3 1_555 1_555
Gd1 O3 1_555 1_555
Gd1 O7 1_555 1_555
N1 N2 1_555 1_555
N3 N4 1_555 1_555
Na1A_2 O14A 1_555 1_555

#END
