
#######################################################################
#
#                 Cambridge Crystallographic Data Centre
#                                CCDC 
#
#######################################################################
#
# If this CIF has been generated from an entry in the Cambridge 
# Structural Database, then it will include bibliographic, chemical, 
# crystal, experimental, refinement or atomic coordinate data resulting 
# from the CCDC's data processing and validation procedures.
#
#######################################################################

data_DIMLES
_symmetry_cell_setting           triclinic
_symmetry_space_group_name_H-M   'P -1'
_symmetry_Int_Tables_number      2
_space_group_name_Hall           '-P 1'
loop_
_symmetry_equiv_pos_site_id
_symmetry_equiv_pos_as_xyz
1 x,y,z
2 -x,-y,-z
_cell_length_a                   9.854(3)
_cell_length_b                   10.604(3)
_cell_length_c                   11.387(3)
_cell_angle_alpha                62.448(4)
_cell_angle_beta                 78.342(5)
_cell_angle_gamma                78.651(5)
_cell_volume                     1025.81
loop_
_atom_site_label
_atom_site_type_symbol
_atom_site_fract_x
_atom_site_fract_y
_atom_site_fract_z
C1 C 0.7793(7) -0.0818(7) 1.0074(7)
C2 C 0.9023(8) -0.0796(7) 0.9257(8)
H1 H 0.9789 -0.1529 0.9391
C3 C 0.8885(7) 0.0552(7) 0.8184(7)
C4 C 0.7230(8) -0.1795(8) 1.1431(7)
C5 C 0.9898(8) 0.1317(8) 0.6996(7)
C6 C 0.3836(7) 0.3304(7) 1.0332(7)
C7 C 0.3467(7) 0.4722(7) 0.9457(7)
H2 H 0.2751 0.5396 0.9607
C8 C 0.4392(7) 0.4916(7) 0.8318(7)
C9 C 0.3372(8) 0.2320(8) 1.1736(7)
C10 C 0.4587(7) 0.6140(7) 0.7000(7)
Cu1 Cu 0.55753(9) 0.07904(9) 1.08226(8)
Eu1 Eu 0.73119(4) 0.38748(4) 0.67392(4)
N1 N 0.7646(6) 0.1273(6) 0.8353(6)
N2 N 0.6972(6) 0.0442(6) 0.9511(6)
N3 N 0.5268(6) 0.3706(6) 0.8472(6)
N4 N 0.4910(6) 0.2745(6) 0.9727(6)
Na1 Na 0.3868(3) 0.9366(3) 0.4437(3)
O1 O 0.6139(5) -0.1244(5) 1.1941(5)
O2 O 0.7794(5) -0.3031(5) 1.1989(5)
O3 O 0.9467(5) 0.2614(5) 0.6232(5)
O4 O 1.1071(5) 0.0690(5) 0.6844(6)
O5 O 0.4079(5) 0.1051(5) 1.2156(5)
O6 O 0.2386(6) 0.2686(6) 1.2410(6)
O7 O 0.5563(5) 0.5930(5) 0.6151(5)
O8 O 0.3817(5) 0.7304(5) 0.6738(5)
O9 O 0.5730(5) 0.2808(5) 0.6177(5)
H3 H 0.5304 0.3617 0.5417
H4 H 0.4975 0.2560 0.6940
O10 O 0.8220(6) 0.3649(6) 0.8611(6)
H5 H 0.902(9) 0.376(9) 0.859(9)
H6 H 0.800(8) 0.301(9) 0.932(9)
O11 O 0.8640(6) 0.5856(6) 0.6014(6)
H7 H 0.834(9) 0.630(9) 0.645(9)
H8 H 0.925(9) 0.627(9) 0.545(9)
O12 O 0.7677(6) 0.4729(6) 0.4363(6)
H9 H 0.752(8) 0.559(9) 0.384(9)
H10 H 0.843(9) 0.448(9) 0.400(9)
O13 O 0.7410(6) 0.1654(6) 1.1373(6)
H11 H 0.685(8) 0.192(9) 1.187(9)
H12 H 0.788(8) 0.095(9) 1.182(8)
O14 O 0.3727(5) 1.1095(5) 0.5333(5)
H13 H 0.3447 1.2093 0.4691
H14 H 0.3119 1.0844 0.6197
O15 O 0.1452(9) 1.0070(10) 0.4491(9)
H15 H 0.163(12) 1.078(12) 0.376(12)
H16 H 0.100(13) 1.046(13) 0.497(13)
Na1_2 Na 0.3868(3) -0.0634(3) 1.4437(3)
Na1A Na 0.6132(3) 0.0634(3) 0.5563(3)
Na1A_2 Na 0.6132(3) 1.0634(3) 0.5563(3)
O5_2 O 0.4079(5) 1.1051(5) 0.2156(5)
O9A O 0.4270(5) 0.7192(5) 0.3823(5)
O14A O 0.6273(5) 0.8905(5) 0.4667(5)
O16 O 0.9776(7) 0.5233(9) 0.1115(9)
H17 H 0.98(2) 0.45(3) 0.18(3)
H18 H 0.904(11) 0.572(11) 0.123(11)
O17 O 0.9060(11) 0.2793(11) 0.3325(12)
H20 H 0.836(14) 0.274(15) 0.304(14)
H21 H 0.94(3) 0.35(3) 0.27(3)
H19? H 0.95(2) 0.46(2) 0.10(2)
H22? H 0.92(3) 0.20(3) 0.39(3)
loop_
_geom_bond_atom_site_label_1
_geom_bond_atom_site_label_2
_geom_bond_site_symmetry_1
_geom_bond_site_symmetry_2
C1 C2 1_555 1_555
C2 H1 1_555 1_555
C3 C2 1_555 1_555
C4 C1 1_555 1_555
C5 C3 1_555 1_555
C6 C7 1_555 1_555
C7 H2 1_555 1_555
C8 C7 1_555 1_555
C9 C6 1_555 1_555
C10 C8 1_555 1_555
Cu1 N2 1_555 1_555
Eu1 N1 1_555 1_555
N1 C3 1_555 1_555
N2 C1 1_555 1_555
N3 C8 1_555 1_555
N4 C6 1_555 1_555
Na1 O8 1_555 1_555
O1 C4 1_555 1_555
O2 C4 1_555 1_555
O3 C5 1_555 1_555
O4 C5 1_555 1_555
O5 C9 1_555 1_555
O6 C9 1_555 1_555
O7 C10 1_555 1_555
O8 C10 1_555 1_555
O9 Eu1 1_555 1_555
H3 O9 1_555 1_555
H4 O9 1_555 1_555
O10 Eu1 1_555 1_555
H5 O10 1_555 1_555
H6 O10 1_555 1_555
O11 Eu1 1_555 1_555
H7 O11 1_555 1_555
H8 O11 1_555 1_555
O12 Eu1 1_555 1_555
H9 O12 1_555 1_555
H10 O12 1_555 1_555
O13 Cu1 1_555 1_555
H11 O13 1_555 1_555
H12 O13 1_555 1_555
O14 Na1 1_555 1_555
H13 O14 1_555 1_555
H14 O14 1_555 1_555
O15 Na1 1_555 1_555
H15 O15 1_555 1_555
H16 O15 1_555 1_555
O16 H17 1_555 1_555
H18 O16 1_555 1_555
O17 H20 1_555 1_555
H21 O17 1_555 1_555
Na1_2 O5 1_555 1_555
Na1A O9 1_555 1_555
Na1A_2 O14 1_555 1_555
O5_2 Na1 1_555 1_555
O9A Na1 1_555 1_555
O14A Na1 1_555 1_555
Cu1 N4 1_555 1_555
Cu1 O1 1_555 1_555
Cu1 O5 1_555 1_555
Eu1 N3 1_555 1_555
Eu1 O3 1_555 1_555
Eu1 O7 1_555 1_555
N1 N2 1_555 1_555
N3 N4 1_555 1_555
Na1A_2 O14A 1_555 1_555

#END
