
#######################################################################
#
#                 Cambridge Crystallographic Data Centre
#                                CCDC 
#
#######################################################################
#
# If this CIF has been generated from an entry in the Cambridge 
# Structural Database, then it will include bibliographic, chemical, 
# crystal, experimental, refinement or atomic coordinate data resulting 
# from the CCDC's data processing and validation procedures.
#
#######################################################################

data_DIMXEC10
_symmetry_cell_setting           monoclinic
_symmetry_space_group_name_H-M   'P 21/c'
_symmetry_Int_Tables_number      14
_space_group_name_Hall           '-P 2ybc'
loop_
_symmetry_equiv_pos_site_id
_symmetry_equiv_pos_as_xyz
1 x,y,z
2 -x,1/2+y,1/2-z
3 -x,-y,-z
4 x,1/2-y,1/2+z
_cell_length_a                   9.727(2)
_cell_length_b                   10.463(2)
_cell_length_c                   18.022(3)
_cell_angle_alpha                90
_cell_angle_beta                 114.83(1)
_cell_angle_gamma                90
_cell_volume                     1664.61
loop_
_atom_site_label
_atom_site_type_symbol
_atom_site_fract_x
_atom_site_fract_y
_atom_site_fract_z
Cu1 Cu 0.0000 0.0000 0.00000
N1 N 0.2462(5) 0.1287(5) -0.1268(3)
C1 C 0.1217(6) 0.0835(6) -0.1224(3)
N2 N 0.1450(5) 0.0612(4) -0.0456(3)
C2 C 0.2935(6) 0.0949(5) 0.0003(3)
C3 C 0.3576(6) 0.1369(6) -0.0483(3)
C4 C 0.3671(6) 0.0774(6) 0.0910(3)
C5 C 0.3359(6) -0.0553(6) 0.1157(3)
N3 N 0.1755(5) -0.0661(5) 0.1033(3)
Cu2 Cu 0.0000 0.5000 0.00000
N4 N 0.2411(5) 0.6356(5) 0.2364(3)
C6 C 0.1177(6) 0.5872(6) 0.1761(3)
N5 N 0.1432(5) 0.5647(4) 0.1106(2)
C7 C 0.2918(6) 0.5995(5) 0.1307(3)
C8 C 0.3531(6) 0.6452(6) 0.2085(3)
C9 C 0.3661(6) 0.5786(6) 0.0750(3)
C10 C 0.3367(6) 0.4433(6) 0.0403(4)
N6 N 0.1771(5) 0.4310(4) -0.0207(3)
Cl1 Cl 0.0004(2) 0.2490(1) 0.06503(9)
H1 H 0.2746 0.1385 -0.1655
H2 H 0.0477 0.0641 -0.1659
H3 H 0.4552 0.1756 -0.0430
H4 H 0.4885 0.0921 0.1080
H5 H 0.3318 0.1391 0.1205
H6 H 0.4091 -0.0718 0.1759
H7 H 0.3335 -0.1229 0.0743
H8 H 0.1678 -0.1437 0.1128
H9 H 0.1731 -0.0255 0.1437
H10 H 0.2410 0.6741 0.2840
H11 H 0.0192 0.5683 0.1818
H12 H 0.4569 0.6814 0.2429
H13 H 0.4753 0.5999 0.0997
H14 H 0.3194 0.6322 0.0224
H15 H 0.4195 0.4333 0.0146
H16 H 0.3479 0.3681 0.0876
H17 H 0.1654 0.3533 -0.0169
H18 H 0.1949 0.4590 -0.0668
N2B N -0.1450(5) -0.0612(4) 0.0456(3)
N3B N -0.1755(5) 0.0661(5) -0.1033(3)
Cl1B Cl -0.0004(2) -0.2490(1) -0.06503(9)
N5B N -0.1432(5) 0.4353(4) -0.1106(2)
N6B N -0.1771(5) 0.5690(4) 0.0207(3)
Cl1B_2 Cl -0.0004(2) 0.7510(1) -0.06503(9)
C1B C -0.1217(6) -0.0835(6) 0.1224(3)
C2B C -0.2935(6) -0.0949(5) -0.0003(3)
C5B C -0.3359(6) 0.0553(6) -0.1157(3)
H8B H -0.1678 0.1437 -0.1128
H9B H -0.1731 0.0255 -0.1437
Cu2_2 Cu 0.0000 -0.5000 0.00000
C6B C -0.1177(6) 0.4128(6) -0.1761(3)
C7B C -0.2918(6) 0.4005(5) -0.1307(3)
C10B C -0.3367(6) 0.5567(6) -0.0403(4)
H17B H -0.1654 0.6467 0.0169
H18B H -0.1949 0.5410 0.0668
N1B N -0.2462(5) -0.1287(5) 0.1268(3)
H2B H -0.0477 -0.0641 0.1659
C3B C -0.3576(6) -0.1369(6) 0.0483(3)
C4B C -0.3671(6) -0.0774(6) -0.0910(3)
H6B H -0.4091 0.0718 -0.1759
H7B H -0.3335 0.1229 -0.0743
N4B N -0.2411(5) 0.3644(5) -0.2364(3)
H11B H -0.0192 0.4317 -0.1818
C8B C -0.3531(6) 0.3548(6) -0.2085(3)
C9B C -0.3661(6) 0.4214(6) -0.0750(3)
H15B H -0.4195 0.5667 -0.0146
H16B H -0.3479 0.6319 -0.0876
H1B H -0.2746 -0.1385 0.1655
H3B H -0.4552 -0.1756 0.0430
H4B H -0.4885 -0.0921 -0.1080
H5B H -0.3318 -0.1391 -0.1205
H10B H -0.2410 0.3259 -0.2840
H12B H -0.4569 0.3186 -0.2429
H13B H -0.4753 0.4001 -0.0997
H14B H -0.3194 0.3678 -0.0224
Cl2 Cl 0.2255(2) 0.5007(2) -0.19775(9)
O1 O 0.2762(5) 0.2674(4) 0.2385(2)
H19 H 0.2248 0.1963 0.2495
H20 H 0.3811 0.2345 0.2521
O2 O 0.2780(5) 0.7290(4) 0.3884(2)
H21 H 0.2041 0.7459 0.4092
H22 H 0.3254 0.8103 0.3893
loop_
_geom_bond_atom_site_label_1
_geom_bond_atom_site_label_2
_geom_bond_site_symmetry_1
_geom_bond_site_symmetry_2
Cu1 N2 1_555 1_555
N1 C1 1_555 1_555
C1 N2 1_555 1_555
N2 C2 1_555 1_555
C2 C3 1_555 1_555
C3 N1 1_555 1_555
C4 C2 1_555 1_555
C5 C4 1_555 1_555
N3 Cu1 1_555 1_555
Cu2 N5 1_555 1_555
N4 C6 1_555 1_555
C6 N5 1_555 1_555
N5 C7 1_555 1_555
C7 C8 1_555 1_555
C8 N4 1_555 1_555
C9 C7 1_555 1_555
C10 C9 1_555 1_555
N6 Cu2 1_555 1_555
Cl1 Cu1 1_555 1_555
O1 H19 1_555 1_555
O2 H21 1_555 1_555
H1 N1 1_555 1_555
H2 C1 1_555 1_555
H3 C3 1_555 1_555
H4 C4 1_555 1_555
H5 C4 1_555 1_555
H6 C5 1_555 1_555
H7 C5 1_555 1_555
H8 N3 1_555 1_555
H9 N3 1_555 1_555
H10 N4 1_555 1_555
H11 C6 1_555 1_555
H12 C8 1_555 1_555
H13 C9 1_555 1_555
H14 C9 1_555 1_555
H15 C10 1_555 1_555
H16 C10 1_555 1_555
H17 N6 1_555 1_555
H18 N6 1_555 1_555
H20 O1 1_555 1_555
H22 O2 1_555 1_555
N2B Cu1 1_555 1_555
N3B Cu1 1_555 1_555
Cl1B Cu1 1_555 1_555
N5B Cu2 1_555 1_555
N6B Cu2 1_555 1_555
Cl1B_2 Cu2 1_555 1_555
C1B N2B 1_555 1_555
C2B N2B 1_555 1_555
C5B N3B 1_555 1_555
H8B N3B 1_555 1_555
H9B N3B 1_555 1_555
Cu2_2 Cl1B 1_555 1_555
C6B N5B 1_555 1_555
C7B N5B 1_555 1_555
C10B N6B 1_555 1_555
H17B N6B 1_555 1_555
H18B N6B 1_555 1_555
N1B C1B 1_555 1_555
H2B C1B 1_555 1_555
C3B C2B 1_555 1_555
C4B C2B 1_555 1_555
H6B C5B 1_555 1_555
H7B C5B 1_555 1_555
N4B C6B 1_555 1_555
H11B C6B 1_555 1_555
C8B C7B 1_555 1_555
C9B C7B 1_555 1_555
H15B C10B 1_555 1_555
H16B C10B 1_555 1_555
H1B N1B 1_555 1_555
H3B C3B 1_555 1_555
H4B C4B 1_555 1_555
H5B C4B 1_555 1_555
H10B N4B 1_555 1_555
H12B C8B 1_555 1_555
H13B C9B 1_555 1_555
H14B C9B 1_555 1_555
C5 N3 1_555 1_555
Cu2 Cl1 1_555 1_555
C10 N6 1_555 1_555
C5B C4B 1_555 1_555
C10B C9B 1_555 1_555
N1B C3B 1_555 1_555
N4B C8B 1_555 1_555

#END
