
#######################################################################
#
#                 Cambridge Crystallographic Data Centre
#                                CCDC 
#
#######################################################################
#
# If this CIF has been generated from an entry in the Cambridge 
# Structural Database, then it will include bibliographic, chemical, 
# crystal, experimental, refinement or atomic coordinate data resulting 
# from the CCDC's data processing and validation procedures.
#
#######################################################################

data_DIMXAA
_symmetry_cell_setting           triclinic
_symmetry_space_group_name_H-M   'P -1'
_symmetry_Int_Tables_number      2
_space_group_name_Hall           '-P 1'
loop_
_symmetry_equiv_pos_site_id
_symmetry_equiv_pos_as_xyz
1 x,y,z
2 -x,-y,-z
_cell_length_a                   9.7423(19)
_cell_length_b                   10.285(2)
_cell_length_c                   11.072(2)
_cell_angle_alpha                88.829(3)
_cell_angle_beta                 71.744(2)
_cell_angle_gamma                83.162(2)
_cell_volume                     1045.91
loop_
_atom_site_label
_atom_site_type_symbol
_atom_site_fract_x
_atom_site_fract_y
_atom_site_fract_z
C1 C 0.1395(5) 0.8412(4) 0.9445(4)
H1 H 0.0900 0.9141 0.9944
C2 C 0.0717(5) 0.7850(4) 0.8676(4)
H2 H -0.0212 0.8190 0.8678
C3 C 0.1454(5) 0.6785(4) 0.7918(4)
H3 H 0.1029 0.6406 0.7389
C4 C 0.2833(5) 0.6273(4) 0.7942(3)
C5 C 0.3430(4) 0.6892(4) 0.8763(3)
C6 C 0.4839(4) 0.6425(4) 0.8885(3)
C7 C 0.6665(4) 0.6759(4) 0.9737(4)
H4 H 0.7016 0.7250 1.0247
C8 C 0.7536(5) 0.5649(4) 0.9101(4)
H5 H 0.8443 0.5405 0.9202
C9 C 0.7054(5) 0.4914(4) 0.8323(4)
H6 H 0.7632 0.4181 0.7882
C10 C 0.5683(4) 0.5295(4) 0.8212(4)
C11 C 0.5033(4) 0.4685(4) 0.7404(4)
C12 C 0.3724(5) 0.5147(4) 0.7232(4)
C13 C 0.4603(5) 0.3479(4) 0.5969(4)
C14 C 0.4884(5) 0.2446(4) 0.5002(3)
C15 C 0.6126(5) 0.1555(4) 0.4738(4)
H7 H 0.6755 0.1589 0.5215
C16 C 0.6455(5) 0.0614(4) 0.3778(4)
H8 H 0.7284 0.0012 0.3634
C17 C 0.5549(5) 0.0568(4) 0.3032(4)
C18 C 0.4281(5) 0.1445(4) 0.3300(3)
H9 H 0.3654 0.1410 0.2821
C19 C 0.3945(5) 0.2374(4) 0.4282(4)
H10 H 0.3091 0.2948 0.4458
C20 C 0.5981(5) -0.0409(4) 0.1956(4)
C21 C 0.2003(4) 0.9306(4) 1.2502(4)
C22 C 0.0940(4) 0.9665(4) 1.3777(4)
C23 C 0.0486(5) 1.0971(4) 1.4143(4)
H11 H 0.0812 1.1627 1.3571
C24 C -0.0450(5) 1.1306(4) 1.5357(4)
H12 H -0.0749 1.2183 1.5590
N1 N 0.2705(4) 0.7958(3) 0.9497(3)
N2 N 0.5346(4) 0.7142(3) 0.9640(3)
N3 N 0.3463(4) 0.4401(3) 0.6311(3)
N4 N 0.5569(4) 0.3619(3) 0.6605(3)
H13 H 0.6372 0.3126 0.6520
O1 O 0.5359(3) -0.0156(3) 0.1062(2)
O2 O 0.6838(4) -0.1373(3) 0.1938(3)
O3 O 0.2125(3) 1.0087(3) 1.1602(3)
O4 O 0.2825(3) 0.8227(3) 1.2347(2)
Co1 Co 0.39755(6) 0.88541(5) 1.04064(5)
C21A C -0.2003(4) 1.0694(4) 1.7498(4)
C22A C -0.0940(4) 1.0335(4) 1.6223(4)
C23A C -0.0486(5) 0.9029(4) 1.5857(4)
H11A H -0.0812 0.8373 1.6429
C24A C 0.0450(5) 0.8694(4) 1.4643(4)
H12A H 0.0749 0.7817 1.4410
O3A O -0.2125(3) 0.9913(3) 1.8398(3)
O4A O -0.2825(3) 1.1773(3) 1.7653(2)
C1A C -0.1395(5) 1.1588(4) 2.0555(4)
H1A H -0.0900 1.0859 2.0056
C2A C -0.0717(5) 1.2150(4) 2.1324(4)
H2A H 0.0212 1.1810 2.1322
C3A C -0.1454(5) 1.3215(4) 2.2082(4)
H3A H -0.1029 1.3594 2.2611
C4A C -0.2833(5) 1.3727(4) 2.2058(3)
C5A C -0.3430(4) 1.3108(4) 2.1237(3)
C6A C -0.4839(4) 1.3575(4) 2.1115(3)
C7A C -0.6665(4) 1.3241(4) 2.0263(4)
H4A H -0.7016 1.2750 1.9753
C8A C -0.7536(5) 1.4351(4) 2.0899(4)
H5A H -0.8443 1.4595 2.0798
C9A C -0.7054(5) 1.5086(4) 2.1677(4)
H6A H -0.7632 1.5819 2.2118
C10A C -0.5683(4) 1.4705(4) 2.1788(4)
C11A C -0.5033(4) 1.5315(4) 2.2596(4)
C12A C -0.3724(5) 1.4853(4) 2.2768(4)
C13A C -0.4603(5) 1.6521(4) 2.4031(4)
C14A C -0.4884(5) 1.7554(4) 2.4998(3)
C15A C -0.6126(5) 1.8445(4) 2.5262(4)
H7A H -0.6755 1.8411 2.4785
C16A C -0.6455(5) 1.9386(4) 2.6222(4)
H8A H -0.7284 1.9988 2.6366
C17A C -0.5549(5) 1.9432(4) 2.6968(4)
C18A C -0.4281(5) 1.8555(4) 2.6700(3)
H9A H -0.3654 1.8590 2.7179
C19A C -0.3945(5) 1.7626(4) 2.5718(4)
H10A H -0.3091 1.7052 2.5542
C20A C -0.5981(5) 2.0409(4) 2.8044(4)
N1A N -0.2705(4) 1.2042(3) 2.0503(3)
N2A N -0.5346(4) 1.2858(3) 2.0360(3)
N3A N -0.3463(4) 1.5599(3) 2.3689(3)
N4A N -0.5569(4) 1.6381(3) 2.3395(3)
H13A H -0.6372 1.6874 2.3480
O1A O -0.5359(3) 2.0156(3) 2.8938(2)
O2A O -0.6838(4) 2.1373(3) 2.8062(3)
Co1A Co -0.39755(6) 1.11459(5) 1.95936(5)
O1_2 O -0.4641(3) 0.9844(3) 2.1062(2)
O1_3 O 0.5359(3) 0.9844(3) 1.1062(2)
O1A_2 O -0.5359(3) 1.0156(3) 1.8938(2)
O1A_3 O 0.4641(3) 1.0156(3) 0.8938(2)
Co1_2 Co -0.60245(6) 1.88541(5) 3.04064(5)
Co1_3 Co 0.39755(6) -0.11459(5) 0.04064(5)
Co1A_2 Co -0.39755(6) 2.11459(5) 2.95936(5)
Co1A_3 Co 0.60245(6) 0.11459(5) -0.04064(5)
O5 O 0.9452(7) -0.3014(9) 0.2109(8)
O6 O 0.0767(10) 0.4821(11) 0.5779(10)
loop_
_geom_bond_atom_site_label_1
_geom_bond_atom_site_label_2
_geom_bond_site_symmetry_1
_geom_bond_site_symmetry_2
C1 H1 1_555 1_555
C2 C1 1_555 1_555
H2 C2 1_555 1_555
C3 C2 1_555 1_555
H3 C3 1_555 1_555
C4 C3 1_555 1_555
C5 C4 1_555 1_555
C6 C5 1_555 1_555
C7 H4 1_555 1_555
C8 C7 1_555 1_555
H5 C8 1_555 1_555
C9 C8 1_555 1_555
H6 C9 1_555 1_555
C10 C6 1_555 1_555
C11 C10 1_555 1_555
C12 C4 1_555 1_555
C13 C14 1_555 1_555
C14 C15 1_555 1_555
C15 H7 1_555 1_555
C16 C15 1_555 1_555
H8 C16 1_555 1_555
C17 C16 1_555 1_555
C18 C17 1_555 1_555
H9 C18 1_555 1_555
C19 C14 1_555 1_555
H10 C19 1_555 1_555
C20 C17 1_555 1_555
C21 C22 1_555 1_555
C22 C23 1_555 1_555
C23 H11 1_555 1_555
C24 C23 1_555 1_555
H12 C24 1_555 1_555
N1 C1 1_555 1_555
N2 C6 1_555 1_555
N3 C12 1_555 1_555
N4 C11 1_555 1_555
H13 N4 1_555 1_555
O1 C20 1_555 1_555
O2 C20 1_555 1_555
O3 C21 1_555 1_555
O4 C21 1_555 1_555
Co1 N1 1_555 1_555
C21A C22A 1_555 1_555
C22A C24 1_555 1_555
C23A C22A 1_555 1_555
H11A C23A 1_555 1_555
C24A C22 1_555 1_555
H12A C24A 1_555 1_555
O3A C21A 1_555 1_555
O4A C21A 1_555 1_555
C1A H1A 1_555 1_555
C2A C1A 1_555 1_555
H2A C2A 1_555 1_555
C3A C2A 1_555 1_555
H3A C3A 1_555 1_555
C4A C3A 1_555 1_555
C5A C4A 1_555 1_555
C6A C5A 1_555 1_555
C7A H4A 1_555 1_555
C8A C7A 1_555 1_555
H5A C8A 1_555 1_555
C9A C8A 1_555 1_555
H6A C9A 1_555 1_555
C10A C6A 1_555 1_555
C11A C10A 1_555 1_555
C12A C4A 1_555 1_555
C13A C14A 1_555 1_555
C14A C15A 1_555 1_555
C15A H7A 1_555 1_555
C16A C15A 1_555 1_555
H8A C16A 1_555 1_555
C17A C16A 1_555 1_555
C18A C17A 1_555 1_555
H9A C18A 1_555 1_555
C19A C14A 1_555 1_555
H10A C19A 1_555 1_555
C20A C17A 1_555 1_555
N1A C1A 1_555 1_555
N2A C6A 1_555 1_555
N3A C12A 1_555 1_555
N4A C11A 1_555 1_555
H13A N4A 1_555 1_555
O1A C20A 1_555 1_555
O2A C20A 1_555 1_555
Co1A O3A 1_555 1_555
O1_2 Co1A 1_555 1_555
O1_3 Co1 1_555 1_555
O1A_2 Co1A 1_555 1_555
O1A_3 Co1 1_555 1_555
Co1_2 O1A 1_555 1_555
Co1_3 O1 1_555 1_555
Co1A_2 O1A 1_555 1_555
Co1A_3 O1 1_555 1_555
C5 N1 1_555 1_555
C7 N2 1_555 1_555
C9 C10 1_555 1_555
C11 C12 1_555 1_555
C13 N3 1_555 1_555
C13 N4 1_555 1_555
C18 C19 1_555 1_555
N2 Co1 1_555 1_555
O3 Co1 1_555 1_555
O4 Co1 1_555 1_555
C23A C24A 1_555 1_555
O4A Co1A 1_555 1_555
C5A N1A 1_555 1_555
C7A N2A 1_555 1_555
C9A C10A 1_555 1_555
C11A C12A 1_555 1_555
C13A N3A 1_555 1_555
C13A N4A 1_555 1_555
C18A C19A 1_555 1_555
N1A Co1A 1_555 1_555
N2A Co1A 1_555 1_555

#END
