
#######################################################################
#
#                 Cambridge Crystallographic Data Centre
#                                CCDC 
#
#######################################################################
#
# If this CIF has been generated from an entry in the Cambridge 
# Structural Database, then it will include bibliographic, chemical, 
# crystal, experimental, refinement or atomic coordinate data resulting 
# from the CCDC's data processing and validation procedures.
#
#######################################################################

data_DINBEJ
_symmetry_cell_setting           monoclinic
_symmetry_space_group_name_H-M   'P 21/c'
_symmetry_Int_Tables_number      14
_space_group_name_Hall           '-P 2ybc'
loop_
_symmetry_equiv_pos_site_id
_symmetry_equiv_pos_as_xyz
1 x,y,z
2 -x,1/2+y,1/2-z
3 -x,-y,-z
4 x,1/2-y,1/2+z
_cell_length_a                   14.4015(3)
_cell_length_b                   13.1138(2)
_cell_length_c                   13.6941(3)
_cell_angle_alpha                90
_cell_angle_beta                 117.716(3)
_cell_angle_gamma                90
_cell_volume                     2289.51
loop_
_atom_site_label
_atom_site_type_symbol
_atom_site_fract_x
_atom_site_fract_y
_atom_site_fract_z
Cd1 Cd 0.306509(19) 0.85151(2) 0.60628(2)
C1 C 0.3807(3) 1.1028(3) 0.6371(3)
C2 C 0.4690(3) 1.1566(3) 0.6515(3)
C3 C 0.4910(3) 0.9929(3) 0.6347(3)
C4 C 0.5324(3) 0.8942(3) 0.6223(3)
C5 C 0.6329(3) 0.8812(3) 0.6365(3)
H1 H 0.6782 0.9366 0.6531
C6 C 0.6652(3) 0.7853(4) 0.6257(4)
H2 H 0.7329 0.7746 0.6356
C7 C 0.5963(3) 0.7055(3) 0.6002(3)
H3 H 0.6167 0.6399 0.5927
C8 C 0.4973(3) 0.7236(3) 0.5859(3)
H4 H 0.4507 0.6692 0.5672
C9 C 0.4953(3) 1.2668(3) 0.6684(3)
C10 C 0.2791(3) 1.1380(3) 0.6270(3)
C11 C 0.1123(3) 0.8862(3) 0.3450(3)
C12 C 0.0040(3) 0.8899(3) 0.2937(3)
C13 C 0.0657(3) 0.8729(3) 0.4730(3)
C14 C 0.0757(3) 0.8635(3) 0.5841(3)
C15 C -0.0094(3) 0.8615(3) 0.6044(3)
H5 H -0.0774 0.8623 0.5466
C16 C 0.0086(3) 0.8581(3) 0.7126(4)
H6 H -0.0473 0.8577 0.7289
C17 C 0.1103(3) 0.8554(3) 0.7962(4)
H7 H 0.1243 0.8538 0.8697
C18 C 0.1906(3) 0.8552(3) 0.7684(3)
H8 H 0.2592 0.8523 0.8250
C19 C 0.1874(3) 0.8891(3) 0.2979(3)
C20 C -0.0769(3) 0.9001(3) 0.1781(3)
N1 N 0.4644(2) 0.8159(2) 0.5975(3)
N2 N 0.3960(2) 1.0012(2) 0.6280(2)
N3 N 0.5376(2) 1.0843(2) 0.6516(2)
H9 H 0.6001 1.0956 0.6610
N4 N -0.0229(2) 0.8816(2) 0.3771(3)
H10 H -0.0856 0.8819 0.3695
N5 N 0.1487(2) 0.8753(2) 0.4552(2)
N6 N 0.1755(2) 0.8589(2) 0.6654(3)
O1 O 0.5877(2) 1.2928(2) 0.7027(2)
O2 O 0.4188(2) 1.3274(2) 0.6469(2)
O3 O 0.2599(2) 1.2340(2) 0.6157(2)
H11 H 0.3165 1.2634 0.6266
O4 O 0.21581(19) 1.0759(2) 0.6262(2)
O5 O -0.1696(2) 0.8990(2) 0.1553(2)
O6 O -0.0453(2) 0.9109(3) 0.1045(2)
H12 H 0.0210 0.9110 0.1309
O7 O 0.1489(2) 0.8958(3) 0.1937(2)
O8 O 0.2818(2) 0.8848(2) 0.3640(2)
O9 O 0.2626(2) 0.6769(2) 0.5863(3)
H13 H 0.2877 0.6208 0.5780
H14 H 0.2315 0.6518 0.6204
Cd1A Cd 0.693491(19) 1.35151(2) 0.89372(2)
O1A O 0.4123(2) 0.7928(2) 0.7973(2)
O10 O 0.3313(3) 0.5087(2) 0.5229(3)
H15 H 0.2741 0.4843 0.4732
H16 H 0.3596 0.4527 0.5537
O11 O 0.1068(6) 0.3637(5) 0.6375(6)
H17 H 0.1583 0.3314 0.6384
H18 H 0.0835 0.3518 0.5691
loop_
_geom_bond_atom_site_label_1
_geom_bond_atom_site_label_2
_geom_bond_site_symmetry_1
_geom_bond_site_symmetry_2
Cd1 N1 1_555 1_555
C1 C2 1_555 1_555
C2 C9 1_555 1_555
C3 C4 1_555 1_555
C4 C5 1_555 1_555
C5 H1 1_555 1_555
C6 C5 1_555 1_555
H2 C6 1_555 1_555
C7 C6 1_555 1_555
H3 C7 1_555 1_555
C8 C7 1_555 1_555
H4 C8 1_555 1_555
C9 O1 1_555 1_555
C10 C1 1_555 1_555
C11 C12 1_555 1_555
C12 C20 1_555 1_555
C13 C14 1_555 1_555
C14 C15 1_555 1_555
C15 H5 1_555 1_555
C16 C15 1_555 1_555
H6 C16 1_555 1_555
C17 C16 1_555 1_555
H7 C17 1_555 1_555
C18 C17 1_555 1_555
H8 C18 1_555 1_555
C19 C11 1_555 1_555
C20 O5 1_555 1_555
N1 C4 1_555 1_555
N2 Cd1 1_555 1_555
N3 C2 1_555 1_555
H9 N3 1_555 1_555
N4 C12 1_555 1_555
H10 N4 1_555 1_555
N5 Cd1 1_555 1_555
N6 Cd1 1_555 1_555
O1 Cd1A 1_555 1_555
O2 C9 1_555 1_555
O3 C10 1_555 1_555
H11 O3 1_555 1_555
O4 C10 1_555 1_555
O6 C20 1_555 1_555
H12 O6 1_555 1_555
O7 C19 1_555 1_555
O8 C19 1_555 1_555
O9 Cd1 1_555 1_555
H13 O9 1_555 1_555
H14 O9 1_555 1_555
O10 H15 1_555 1_555
H16 O10 1_555 1_555
O11 H17 1_555 1_555
H18 O11 1_555 1_555
O1A Cd1 1_555 1_555
C1 N2 1_555 1_555
C3 N2 1_555 1_555
C3 N3 1_555 1_555
C8 N1 1_555 1_555
C11 N5 1_555 1_555
C13 N4 1_555 1_555
C13 N5 1_555 1_555
C14 N6 1_555 1_555
C18 N6 1_555 1_555

#END
