
#######################################################################
#
#                 Cambridge Crystallographic Data Centre
#                                CCDC 
#
#######################################################################
#
# If this CIF has been generated from an entry in the Cambridge 
# Structural Database, then it will include bibliographic, chemical, 
# crystal, experimental, refinement or atomic coordinate data resulting 
# from the CCDC's data processing and validation procedures.
#
#######################################################################

data_DINCUY
_symmetry_cell_setting           monoclinic
_symmetry_space_group_name_H-M   'P 21/c'
_symmetry_Int_Tables_number      14
_space_group_name_Hall           '-P 2ybc'
loop_
_symmetry_equiv_pos_site_id
_symmetry_equiv_pos_as_xyz
1 x,y,z
2 x,1/2-y,1/2+z
3 -x,-y,-z
4 -x,1/2+y,1/2-z
_cell_length_a                   8.703(3)
_cell_length_b                   14.442(3)
_cell_length_c                   18.168(12)
_cell_angle_alpha                90
_cell_angle_beta                 93.21(4)
_cell_angle_gamma                90
_cell_volume                     2279.93
loop_
_atom_site_label
_atom_site_type_symbol
_atom_site_fract_x
_atom_site_fract_y
_atom_site_fract_z
Cu1 Cu -0.29730(11) 0.01639(6) 0.16750(6)
Cu2 Cu -0.31560(12) 0.02655(7) 0.35885(6)
O1 O -0.2280(5) -0.0184(3) 0.0736(3)
O2 O -0.3861(5) 0.0489(3) 0.2591(3)
O3 O -0.2248(7) 0.0261(4) 0.4564(4)
O4 O -0.1772(7) -0.0725(4) 0.3334(4)
O5 O -0.1947(7) -0.0949(4) 0.2111(3)
N1 N -0.4557(6) 0.0996(4) 0.1248(3)
N2 N -0.4765(7) 0.1113(4) 0.3830(3)
C1 C -0.2593(7) 0.0248(5) 0.0104(4)
C2 C -0.1706(9) 0.0048(6) -0.0500(5)
H1 H -0.0935(9) -0.0397(6) -0.0449(5)
C3 C -0.1953(10) 0.0496(7) -0.1165(5)
H2 H -0.1314(10) 0.0368(7) -0.1546(5)
C4 C -0.3131(11) 0.1132(7) -0.1280(5)
H3 H -0.3301(11) 0.1421(7) -0.1735(5)
C5 C -0.4032(10) 0.1323(5) -0.0713(5)
H4 H -0.4839(10) 0.1740(5) -0.0792(5)
C6 C -0.3794(8) 0.0916(4) -0.0010(4)
C7 C -0.4770(8) 0.1206(4) 0.0566(4)
H5 H -0.5616(8) 0.1573(4) 0.0431(4)
C8 C -0.5585(8) 0.1333(5) 0.1784(4)
H6 H -0.6481(8) 0.0935(5) 0.1798(4)
H7 H -0.5927(8) 0.1955(5) 0.1658(4)
C9 C -0.4701(9) 0.1330(5) 0.2524(4)
H8 H -0.3966(9) 0.1845(5) 0.2536(4)
C10 C -0.5690(9) 0.1427(5) 0.3168(4)
H9 H -0.5997(9) 0.2068(5) 0.3225(4)
H10 H -0.6609(9) 0.1051(5) 0.3095(4)
C11 C -0.5149(10) 0.1320(5) 0.4477(4)
H11 H -0.6046(10) 0.1661(5) 0.4518(4)
C12 C -0.4293(10) 0.1065(5) 0.5151(5)
C13 C -0.4885(13) 0.1351(5) 0.5819(5)
H12 H -0.5830(13) 0.1653(5) 0.5810(5)
C14 C -0.4092(16) 0.1194(6) 0.6491(5)
H13 H -0.4499(16) 0.1379(6) 0.6930(5)
C15 C -0.2650(16) 0.0744(8) 0.6492(6)
H14 H -0.2103(16) 0.0638(8) 0.6938(6)
C16 C -0.2043(13) 0.0463(7) 0.5852(7)
H15 H -0.1079(13) 0.0182(7) 0.5868(7)
C17 C -0.2871(11) 0.0593(5) 0.5158(5)
C18 C -0.1569(8) -0.1170(5) 0.2759(6)
C19 C -0.0729(8) -0.2081(5) 0.2861(5)
C20 C -0.0189(9) -0.2357(5) 0.3557(6)
H16 H -0.0383(9) -0.2004(5) 0.3970(6)
C21 C 0.0651(10) -0.3174(6) 0.3626(6)
H17 H 0.1035(10) -0.3344(6) 0.4095(6)
C22 C 0.0361(11) -0.3471(6) 0.2411(6)
H18 H 0.0505(11) -0.3862(6) 0.2013(6)
C23 C -0.0459(10) -0.2646(6) 0.2277(6)
H19 H -0.0813(10) -0.2486(6) 0.1801(6)
N3 N 0.0942(8) -0.3727(4) 0.3069(4)
N3C N -0.0942(8) 0.1273(4) 0.1931(4)
Cu1C Cu 0.29730(11) -0.48361(6) 0.33250(6)
O6 O -0.2064(10) -0.2893(6) 0.5487(5)
C24 C -0.0492(12) -0.1265(7) 0.5298(6)
C25 C -0.0475(13) -0.2513(8) 0.5420(6)
loop_
_geom_bond_atom_site_label_1
_geom_bond_atom_site_label_2
_geom_bond_site_symmetry_1
_geom_bond_site_symmetry_2
Cu1 O1 1_555 1_555
Cu2 O2 1_555 1_555
O1 C1 1_555 1_555
O2 Cu1 1_555 1_555
O3 Cu2 1_555 1_555
O4 Cu2 1_555 1_555
O5 Cu1 1_555 1_555
N1 Cu1 1_555 1_555
N2 Cu2 1_555 1_555
C1 C2 1_555 1_555
C2 H1 1_555 1_555
C3 C2 1_555 1_555
H2 C3 1_555 1_555
C4 C3 1_555 1_555
H3 C4 1_555 1_555
C5 C4 1_555 1_555
H4 C5 1_555 1_555
C6 C1 1_555 1_555
C7 N1 1_555 1_555
H5 C7 1_555 1_555
C8 N1 1_555 1_555
H6 C8 1_555 1_555
H7 C8 1_555 1_555
C9 O2 1_555 1_555
H8 C9 1_555 1_555
C10 N2 1_555 1_555
H9 C10 1_555 1_555
H10 C10 1_555 1_555
C11 N2 1_555 1_555
H11 C11 1_555 1_555
C12 C11 1_555 1_555
C13 C12 1_555 1_555
H12 C13 1_555 1_555
C14 C13 1_555 1_555
H13 C14 1_555 1_555
C15 C14 1_555 1_555
H14 C15 1_555 1_555
C16 C15 1_555 1_555
H15 C16 1_555 1_555
C17 O3 1_555 1_555
C18 O4 1_555 1_555
C19 C18 1_555 1_555
C20 C19 1_555 1_555
H16 C20 1_555 1_555
C21 C20 1_555 1_555
H17 C21 1_555 1_555
C22 H18 1_555 1_555
C23 C19 1_555 1_555
H19 C23 1_555 1_555
N3 C21 1_555 1_555
O6 C25 1_555 1_555
C24 C25 1_555 1_555
N3C Cu1 1_555 1_555
Cu1C N3 1_555 1_555
O5 C18 1_555 1_555
C5 C6 1_555 1_555
C6 C7 1_555 1_555
C8 C9 1_555 1_555
C9 C10 1_555 1_555
C12 C17 1_555 1_555
C16 C17 1_555 1_555
C22 C23 1_555 1_555
C22 N3 1_555 1_555

#END
