
#######################################################################
#
#                 Cambridge Crystallographic Data Centre
#                                CCDC 
#
#######################################################################
#
# If this CIF has been generated from an entry in the Cambridge 
# Structural Database, then it will include bibliographic, chemical, 
# crystal, experimental, refinement or atomic coordinate data resulting 
# from the CCDC's data processing and validation procedures.
#
#######################################################################

data_DINDIP
_symmetry_cell_setting           triclinic
_symmetry_space_group_name_H-M   'P -1'
_symmetry_Int_Tables_number      2
_space_group_name_Hall           '-P 1'
loop_
_symmetry_equiv_pos_site_id
_symmetry_equiv_pos_as_xyz
1 x,y,z
2 -x,-y,-z
_cell_length_a                   10.29(2)
_cell_length_b                   11.80(2)
_cell_length_c                   12.35(3)
_cell_angle_alpha                92.38(3)
_cell_angle_beta                 106.84(3)
_cell_angle_gamma                99.41(3)
_cell_volume                     1409.65
loop_
_atom_site_label
_atom_site_type_symbol
_atom_site_fract_x
_atom_site_fract_y
_atom_site_fract_z
Zn1 Zn -0.11912(8) -0.08359(8) 0.59584(7)
Zn2 Zn 1.11199(8) 0.54089(8) 1.44456(7)
O1 O -0.0142(5) 0.0703(4) 0.6770(4)
O2 O 0.0359(5) 0.1266(5) 0.5233(4)
O3 O 0.9831(5) 0.1650(5) 1.2978(4)
O4 O 0.9649(6) 0.0966(6) 1.1219(5)
O5 O 0.9970(5) 0.4186(5) 1.3128(5)
O6 O 0.8425(6) 0.3664(5) 1.4017(4)
O7 O 0.4769(6) 0.1341(5) 0.9287(5)
O8 O 0.2177(5) 0.4257(5) 0.5265(4)
O9 O 0.0509(5) 0.3722(4) 0.6055(4)
N1 N -0.7716(6) -0.3501(6) 0.3718(5)
N2 N -0.7658(6) -0.2030(6) 0.2652(5)
H1 H -0.7930 -0.1608 0.2110
N3 N -0.2884(6) -0.0234(5) 0.4761(5)
N4 N -0.2876(6) -0.2020(5) 0.6013(5)
C1 C -0.8385(8) -0.2974(8) 0.2879(7)
H2 H -0.9306 -0.3243 0.2472
C2 C -0.6405(7) -0.2775(6) 0.4118(6)
C3 C -0.6378(7) -0.1858(7) 0.3460(6)
C4 C -0.5235(7) -0.0961(7) 0.3633(6)
C5 C -0.4059(7) -0.1048(6) 0.4517(6)
C6 C -0.4058(7) -0.2027(7) 0.5191(6)
C7 C -0.5224(7) -0.2875(6) 0.5037(6)
C8 C -0.5140(8) -0.3742(7) 0.5761(7)
H3 H -0.5897 -0.4326 0.5682
C9 C -0.3931(8) -0.3726(8) 0.6591(7)
H4 H -0.3860 -0.4297 0.7090
C10 C -0.2829(7) -0.2879(8) 0.6692(7)
H5 H -0.2006 -0.2895 0.7254
C11 C -0.5185(8) 0.0011(7) 0.3022(6)
H6 H -0.5945 0.0107 0.2428
C12 C -0.4008(8) 0.0807(7) 0.3315(7)
H7 H -0.3963 0.1470 0.2936
C13 C -0.2876(8) 0.0640(7) 0.4171(7)
H8 H -0.2067 0.1186 0.4333
C14 C 0.0625(7) 0.1270(6) 0.6281(6)
C15 C 0.9275(8) 0.1523(7) 1.1925(6)
C16 C 0.8854(8) 0.3662(7) 1.3166(7)
C17 C 0.7845(7) 0.3023(7) 1.2104(6)
C18 C 0.8026(7) 0.2068(7) 1.1527(6)
C19 C 0.6981(8) 0.1523(7) 1.0567(6)
H9 H 0.7098 0.0875 1.0175
C20 C 0.5789(8) 0.1947(7) 1.0208(7)
C21 C 0.5596(9) 0.2902(8) 1.0772(7)
H10 H 0.4781 0.3188 1.0515
C22 C 0.6623(8) 0.3430(8) 1.1722(7)
H11 H 0.6493 0.4071 1.2115
C23 C 0.4068(7) 0.1947(7) 0.8463(6)
C24 C 0.2728(7) 0.1417(7) 0.7897(6)
H12 H 0.2346 0.0721 0.8104
C25 C 0.1962(7) 0.1948(6) 0.7011(6)
C26 C 0.2537(7) 0.3015(6) 0.6728(6)
C27 C 0.3878(7) 0.3499(7) 0.7308(6)
H13 H 0.4271 0.4199 0.7114
C28 C 0.4653(7) 0.2969(7) 0.8173(6)
H14 H 0.5565 0.3302 0.8556
C29 C 0.1664(7) 0.3690(6) 0.5942(6)
Zn1A Zn 0.11912(8) 0.08359(8) 0.40416(7)
Zn1A_2 Zn 1.11912(8) 0.08359(8) 1.40416(7)
Zn2_2 Zn -0.88801(8) -0.45911(8) 0.44456(7)
Zn2_3 Zn 0.11199(8) 0.54089(8) 0.44456(7)
Zn2A Zn -0.11199(8) 0.45911(8) 0.55544(7)
Zn2A_2 Zn 0.88801(8) 0.45911(8) 1.55544(7)
O2A O -0.0359(5) -0.1266(5) 0.4767(4)
O3A O 0.0169(5) -0.1650(5) 0.7022(4)
O6A O 1.1575(6) 0.6336(5) 1.5983(4)
O8_2 O 1.2177(5) 0.4257(5) 1.5265(4)
O9A O 0.9491(5) 0.6278(4) 1.3945(4)
N1_2 N 1.2284(6) 0.6499(6) 1.3718(5)
O10 O 0.1334(9) 0.9433(8) 0.1126(6)
O11 O 0.058(3) 0.442(2) 0.102(2)
O12 O 0.138(4) 0.276(4) -0.022(3)
O13 O 0.270(5) 0.473(5) 0.040(4)
loop_
_geom_bond_atom_site_label_1
_geom_bond_atom_site_label_2
_geom_bond_site_symmetry_1
_geom_bond_site_symmetry_2
Zn1 O1 1_555 1_555
Zn2 O5 1_555 1_555
O1 C14 1_555 1_555
O2 C14 1_555 1_555
O3 C15 1_555 1_555
O4 C15 1_555 1_555
O5 C16 1_555 1_555
O6 C16 1_555 1_555
O7 C20 1_555 1_555
O8 C29 1_555 1_555
O9 C29 1_555 1_555
N1 C1 1_555 1_555
N2 H1 1_555 1_555
N3 Zn1 1_555 1_555
N4 Zn1 1_555 1_555
C1 N2 1_555 1_555
H2 C1 1_555 1_555
C2 N1 1_555 1_555
C3 N2 1_555 1_555
C4 C3 1_555 1_555
C5 N3 1_555 1_555
C6 N4 1_555 1_555
C7 C2 1_555 1_555
C8 C7 1_555 1_555
H3 C8 1_555 1_555
C9 C8 1_555 1_555
H4 C9 1_555 1_555
C10 N4 1_555 1_555
H5 C10 1_555 1_555
C11 C4 1_555 1_555
H6 C11 1_555 1_555
C12 C11 1_555 1_555
H7 C12 1_555 1_555
C13 N3 1_555 1_555
H8 C13 1_555 1_555
C14 C25 1_555 1_555
C15 C18 1_555 1_555
C16 C17 1_555 1_555
C17 C18 1_555 1_555
C18 C19 1_555 1_555
C19 H9 1_555 1_555
C20 C19 1_555 1_555
C21 C20 1_555 1_555
H10 C21 1_555 1_555
C22 C17 1_555 1_555
H11 C22 1_555 1_555
C23 O7 1_555 1_555
C24 C23 1_555 1_555
H12 C24 1_555 1_555
C25 C24 1_555 1_555
C26 C25 1_555 1_555
C27 C26 1_555 1_555
H13 C27 1_555 1_555
C28 C23 1_555 1_555
H14 C28 1_555 1_555
C29 C26 1_555 1_555
Zn1A O2 1_555 1_555
Zn1A_2 O3 1_555 1_555
Zn2_2 N1 1_555 1_555
Zn2_3 O8 1_555 1_555
Zn2A O9 1_555 1_555
Zn2A_2 O6 1_555 1_555
O2A Zn1 1_555 1_555
O3A Zn1 1_555 1_555
O6A Zn2 1_555 1_555
O8_2 Zn2 1_555 1_555
O9A Zn2 1_555 1_555
N1_2 Zn2 1_555 1_555
C2 C3 1_555 1_555
C4 C5 1_555 1_555
C5 C6 1_555 1_555
C6 C7 1_555 1_555
C9 C10 1_555 1_555
C12 C13 1_555 1_555
C21 C22 1_555 1_555
C27 C28 1_555 1_555

#END
