
#######################################################################
#
#                 Cambridge Crystallographic Data Centre
#                                CCDC 
#
#######################################################################
#
# If this CIF has been generated from an entry in the Cambridge 
# Structural Database, then it will include bibliographic, chemical, 
# crystal, experimental, refinement or atomic coordinate data resulting 
# from the CCDC's data processing and validation procedures.
#
#######################################################################

data_DINDUZ
_symmetry_cell_setting           monoclinic
_symmetry_space_group_name_H-M   'P 21/c'
_symmetry_Int_Tables_number      14
_space_group_name_Hall           '-P 2ybc'
loop_
_symmetry_equiv_pos_site_id
_symmetry_equiv_pos_as_xyz
1 x,y,z
2 x,1/2-y,1/2+z
3 -x,-y,-z
4 -x,1/2+y,1/2-z
_cell_length_a                   9.0559(10)
_cell_length_b                   14.5584(17)
_cell_length_c                   10.7154(12)
_cell_angle_alpha                90
_cell_angle_beta                 111.192(2)
_cell_angle_gamma                90
_cell_volume                     1317.18
loop_
_atom_site_label
_atom_site_type_symbol
_atom_site_fract_x
_atom_site_fract_y
_atom_site_fract_z
Pb1 Pb 0.18283(11) 0.37508(6) 0.25151(8)
Pb2 Pb 0.62223(11) 0.10575(6) 0.61239(8)
Pb3 Pb 0.41919(11) 0.16859(6) 0.16495(8)
P1 P 0.5797(7) 0.3330(4) 0.4370(5)
P2 P 0.2478(7) 0.3497(4) -0.0895(5)
O1 O 0.5819(18) 0.2818(10) 0.3131(12)
O2 O 0.4275(17) 0.3877(10) 0.4117(14)
O3 O 0.6018(16) 0.2693(9) 0.5573(13)
O4 O 0.2929(17) 0.3061(10) 0.0497(14)
O5 O 0.3732(19) 0.4194(11) -0.0959(13)
O6 O 0.2244(16) 0.2800(10) -0.2025(13)
O7 O 0.896(2) 0.4048(12) 0.2987(15)
O8 O 1.1307(19) 0.3781(12) 0.4570(14)
O9 O -0.185(2) 0.3794(11) 0.0196(19)
O10 O -0.311(2) 0.4354(15) -0.1854(19)
C1 C 0.739(2) 0.4181(13) 0.486(2)
H1 H 0.7183 0.4620 0.4136
H2 H 0.7348 0.4512 0.5631
C2 C 0.902(3) 0.3833(17) 0.519(2)
H3 H 0.9021 0.3194 0.5450
H4 H 0.9690 0.4162 0.5981
C3 C 0.978(3) 0.3884(14) 0.418(2)
C4 C 0.067(2) 0.4085(14) -0.1184(19)
H5 H 0.0789 0.4474 -0.0419
H6 H 0.0456 0.4479 -0.1960
C5 C -0.075(3) 0.3428(16) -0.142(2)
H7 H -0.1186 0.3254 -0.2354
H8 H -0.0390 0.2874 -0.0892
C6 C -0.205(3) 0.3882(18) -0.103(2)
O3A O 0.6018(16) 0.2307(9) 0.0573(13)
Pb2A Pb 0.62223(11) 0.39425(6) 0.11239(8)
O5A O 0.3732(19) 0.0806(11) 0.4041(13)
Pb2C Pb 0.37777(11) 0.60575(6) -0.11239(8)
O7A O 0.896(2) 0.0952(12) 0.7987(15)
O5C O 0.6268(19) -0.0806(11) 0.5959(13)
O6A O 0.2244(16) 0.2200(10) 0.2975(13)
Pb3A Pb 0.41919(11) 0.33141(6) 0.66495(8)
Pb2B Pb 0.37777(11) -0.10575(6) 0.38761(8)
P2A P 0.2478(7) 0.1503(4) 0.4105(5)
O8_2 O 0.1307(19) 0.3781(12) 0.4570(14)
Pb1A Pb 0.18283(11) 0.12492(6) -0.24849(8)
Pb3A_2 Pb 0.41919(11) 0.33141(6) -0.33505(8)
O9A O 0.815(2) 0.1206(11) 0.5196(19)
Pb1_2 Pb 1.18283(11) 0.37508(6) 0.25151(8)
Pb2A_2 Pb -0.37777(11) 0.39425(6) 0.11239(8)
loop_
_geom_bond_atom_site_label_1
_geom_bond_atom_site_label_2
_geom_bond_site_symmetry_1
_geom_bond_site_symmetry_2
Pb1 O2 1_555 1_555
Pb2 O3 1_555 1_555
Pb3 O1 1_555 1_555
P1 O1 1_555 1_555
P2 O4 1_555 1_555
O2 P1 1_555 1_555
O3 P1 1_555 1_555
O4 Pb3 1_555 1_555
O5 P2 1_555 1_555
O6 P2 1_555 1_555
O7 C3 1_555 1_555
O8 C3 1_555 1_555
O9 C6 1_555 1_555
O10 C6 1_555 1_555
C1 P1 1_555 1_555
H1 C1 1_555 1_555
H2 C1 1_555 1_555
C2 C1 1_555 1_555
H3 C2 1_555 1_555
H4 C2 1_555 1_555
C3 C2 1_555 1_555
C4 P2 1_555 1_555
H5 C4 1_555 1_555
H6 C4 1_555 1_555
C5 C4 1_555 1_555
H7 C5 1_555 1_555
H8 C5 1_555 1_555
C6 C5 1_555 1_555
O3A Pb3 1_555 1_555
Pb2A O5 1_555 1_555
O5A Pb2 1_555 1_555
Pb2C O5 1_555 1_555
O7A Pb2 1_555 1_555
O5C Pb2 1_555 1_555
O6A Pb1 1_555 1_555
Pb3A O3 1_555 1_555
Pb2B O5A 1_555 1_555
P2A O5A 1_555 1_555
O8_2 Pb1 1_555 1_555
Pb1A O6 1_555 1_555
Pb3A_2 O6 1_555 1_555
O9A Pb2 1_555 1_555
Pb1_2 O8 1_555 1_555
Pb2A_2 O9 1_555 1_555
Pb3 O6A 1_555 1_555
O7 Pb2A 1_555 1_555
O3A Pb2A 1_555 1_555
O5C Pb2B 1_555 1_555
O6A P2A 1_555 1_555

#END
