
#######################################################################
#
#                 Cambridge Crystallographic Data Centre
#                                CCDC 
#
#######################################################################
#
# If this CIF has been generated from an entry in the Cambridge 
# Structural Database, then it will include bibliographic, chemical, 
# crystal, experimental, refinement or atomic coordinate data resulting 
# from the CCDC's data processing and validation procedures.
#
#######################################################################

data_DINFUD
_symmetry_cell_setting           triclinic
_symmetry_space_group_name_H-M   'P -1'
_symmetry_Int_Tables_number      2
_space_group_name_Hall           '-P 1'
loop_
_symmetry_equiv_pos_site_id
_symmetry_equiv_pos_as_xyz
1 x,y,z
2 -x,-y,-z
_cell_length_a                   9.3652(9)
_cell_length_b                   10.0029(9)
_cell_length_c                   14.7396(13)
_cell_angle_alpha                88.268(2)
_cell_angle_beta                 70.333(2)
_cell_angle_gamma                86.591(2)
_cell_volume                     1297.87
loop_
_atom_site_label
_atom_site_type_symbol
_atom_site_fract_x
_atom_site_fract_y
_atom_site_fract_z
O9 O 0.1284(8) 0.6287(6) 0.3037(4)
H22 H 0.1171 0.5467 0.3201
H23 H 0.1592 0.6356 0.2426
O10 O 0.0541(10) 0.4020(9) 0.4229(8)
Tm1 Tm -0.161541(19) 0.008558(17) 0.401835(12)
O1 O -0.3839(4) 0.1498(3) 0.4437(2)
O2 O -0.1272(4) 0.1153(3) 0.2512(2)
C1 C -0.4098(6) 0.3824(4) 0.4762(4)
C2 C 0.3167(5) 0.1214(5) 0.2825(3)
O3 O -0.1803(4) 0.2434(3) 0.4457(3)
C3 C -0.0215(6) -0.1152(5) 0.0545(3)
H1 H -0.0358 -0.1933 0.0916
O4 O 0.2607(4) 0.0168(3) 0.4355(2)
N1 N 0.6170(5) 0.3152(4) 0.0436(3)
N2 N 0.7712(6) 0.3579(5) -0.1014(3)
C4 C 0.6750(7) 0.5066(6) 0.1310(4)
C5 C -0.0758(5) 0.0075(5) 0.2059(3)
C6 C -0.5537(6) 0.3914(5) 0.4681(4)
H2 H -0.5892 0.3184 0.4461
O5 O 0.0725(4) 0.0628(4) 0.3797(3)
N3 N 0.7863(6) 0.4542(5) -0.0404(4)
C7 C 0.2633(6) 0.1853(6) 0.2145(4)
H3 H 0.1606 0.1858 0.2222
O6 O -0.0612(4) -0.0977(3) 0.2509(2)
C8 C 0.4699(6) 0.1221(6) 0.2699(4)
H4 H 0.5070 0.0802 0.3152
C9 C -0.0351(5) 0.0060(5) 0.0991(3)
C10 C 0.2098(5) 0.0610(4) 0.3715(3)
C11 C -0.6451(6) 0.5084(5) 0.4928(4)
C12 C 0.5685(6) 0.1848(6) 0.1902(4)
H5 H 0.6716 0.1842 0.1815
N4 N 0.6495(7) 0.6760(6) 0.2822(4)
C13 C 0.5126(6) 0.2474(5) 0.1246(4)
C14 C 0.3618(6) 0.2479(6) 0.1357(4)
H6 H 0.3257 0.2905 0.0901
C15 C -0.3186(5) 0.2524(4) 0.4540(3)
C16 C 0.6716(7) 0.2756(6) -0.0502(4)
C17 C 0.0128(6) -0.1242(5) -0.0445(4)
C18 C 0.6285(10) 0.1546(7) -0.0862(5)
H7 H 0.6549 0.0773 -0.0539
H8 H 0.6813 0.1476 -0.1543
H9 H 0.5210 0.1597 -0.0741
N5 N 0.0148(12) -0.2472(9) -0.0819(7)
H10 H -0.0048 -0.3163 -0.0444
H11 H 0.0358 -0.2559 -0.1429
C19 C 0.5351(7) 0.5494(6) 0.1935(5)
H12 H 0.4468 0.5203 0.1867
C20 C 0.6933(6) 0.4262(5) 0.0461(4)
C21 C 0.5272(8) 0.6357(7) 0.2663(5)
H13 H 0.4320 0.6673 0.3062
C22 C 0.8051(8) 0.5442(7) 0.1482(6)
H14 H 0.9017 0.5145 0.1092
C23 C 0.7841(9) 0.6287(8) 0.2266(6)
H15 H 0.8694 0.6525 0.2400
N6 N -0.7954(12) 0.5013(10) 0.4846(9)
H16 H -0.8593 0.5692 0.4998
H17 H -0.8203 0.4292 0.4647
O7 O -0.3541(4) -0.1169(3) 0.3975(3)
H18 H -0.3193 -0.1987 0.3750
H19 H -0.4231 -0.1274 0.4560
O8 O -0.0518(4) -0.1991(4) 0.4325(3)
H20 H -0.1219 -0.2536 0.4732
H21 H -0.0058 -0.2472 0.3773
O1A O -0.6161(4) 0.8502(3) 0.5563(2)
C1A C -0.5902(6) 0.6176(4) 0.5238(4)
O3A O -0.8197(4) 0.7566(3) 0.5543(3)
C6A C -0.4463(6) 0.6086(5) 0.5319(4)
H2A H -0.4108 0.6816 0.5539
C11A C -0.3549(6) 0.4916(5) 0.5072(4)
C15A C -0.6814(5) 0.7476(4) 0.5460(3)
N6A N -0.2046(12) 0.4987(10) 0.5154(9)
H16A H -0.1407 0.4308 0.5002
H17A H -0.1797 0.5708 0.5353
O2A O 0.1272(4) -0.1153(3) -0.2512(2)
C3A C 0.0215(6) 0.1152(5) -0.0545(3)
H1A H 0.0358 0.1933 -0.0916
C5A C 0.0758(5) -0.0075(5) -0.2059(3)
O6A O 0.0612(4) 0.0977(3) -0.2509(2)
C9A C 0.0351(5) -0.0060(5) -0.0991(3)
C17A C -0.0128(6) 0.1242(5) 0.0445(4)
N5A N -0.0148(12) 0.2472(9) 0.0819(7)
H10A H 0.0048 0.3163 0.0444
H11A H -0.0358 0.2559 0.1429
Tm1A Tm -0.838459(19) 0.991442(17) 0.598165(12)
C2A C -1.3167(5) 0.8786(5) 0.7175(3)
O4A O -1.2607(4) 0.9832(3) 0.5645(2)
N1A N -1.6170(5) 0.6848(4) 0.9564(3)
N2A N -1.7712(6) 0.6421(5) 1.1014(3)
C4A C -1.6750(7) 0.4934(6) 0.8690(4)
O5A O -1.0725(4) 0.9372(4) 0.6203(3)
N3A N -1.7863(6) 0.5458(5) 1.0404(4)
C7A C -1.2633(6) 0.8147(6) 0.7855(4)
H3A H -1.1606 0.8142 0.7778
C8A C -1.4699(6) 0.8779(6) 0.7301(4)
H4A H -1.5070 0.9198 0.6848
C10A C -1.2098(5) 0.9390(4) 0.6285(3)
C12A C -1.5685(6) 0.8152(6) 0.8098(4)
H5A H -1.6716 0.8158 0.8185
N4A N -1.6495(7) 0.3240(6) 0.7178(4)
C13A C -1.5126(6) 0.7526(5) 0.8754(4)
C14A C -1.3618(6) 0.7521(6) 0.8643(4)
H6A H -1.3257 0.7095 0.9099
C16A C -1.6716(7) 0.7244(6) 1.0502(4)
C18A C -1.6285(10) 0.8454(7) 1.0862(5)
H7A H -1.6549 0.9227 1.0539
H8A H -1.6813 0.8524 1.1543
H9A H -1.5210 0.8403 1.0741
C19A C -1.5351(7) 0.4506(6) 0.8065(5)
H12A H -1.4468 0.4797 0.8133
C20A C -1.6933(6) 0.5738(5) 0.9539(4)
C21A C -1.5272(8) 0.3643(7) 0.7337(5)
H13A H -1.4320 0.3327 0.6938
C22A C -1.8051(8) 0.4558(7) 0.8518(6)
H14A H -1.9017 0.4855 0.8908
C23A C -1.7841(9) 0.3713(8) 0.7734(6)
H15A H -1.8694 0.3475 0.7600
O7A O -0.6459(4) 1.1169(3) 0.6025(3)
H18A H -0.6807 1.1987 0.6250
H19A H -0.5769 1.1274 0.5440
O8A O -0.9482(4) 1.1991(4) 0.5675(3)
H20A H -0.8781 1.2536 0.5268
H21A H -0.9942 1.2472 0.6227
Tm1_2 Tm -1.161541(19) 1.008558(17) 0.401835(12)
Tm1A_2 Tm 0.161541(19) -0.008558(17) -0.401835(12)
Tm1A_3 Tm 0.161541(19) -0.008558(17) 0.598165(12)
O2A_2 O -0.8728(4) 0.8847(3) 0.7488(2)
O4_2 O -0.7393(4) 1.0168(3) 0.4355(2)
O4A_2 O -0.2607(4) -0.0168(3) 0.5645(2)
O6A_2 O -0.9388(4) 1.0977(3) 0.7491(2)
loop_
_geom_bond_atom_site_label_1
_geom_bond_atom_site_label_2
_geom_bond_site_symmetry_1
_geom_bond_site_symmetry_2
Tm1 O1 1_555 1_555
O1 C15 1_555 1_555
O2 Tm1 1_555 1_555
C1 C6 1_555 1_555
C2 C7 1_555 1_555
O3 Tm1 1_555 1_555
C3 H1 1_555 1_555
O4 C10 1_555 1_555
N1 C13 1_555 1_555
N2 N3 1_555 1_555
C4 C19 1_555 1_555
C5 O2 1_555 1_555
C6 H2 1_555 1_555
O5 Tm1 1_555 1_555
N3 C20 1_555 1_555
C7 H3 1_555 1_555
O6 Tm1 1_555 1_555
C8 C2 1_555 1_555
H4 C8 1_555 1_555
C9 C3 1_555 1_555
C10 C2 1_555 1_555
C11 C6 1_555 1_555
C12 C8 1_555 1_555
H5 C12 1_555 1_555
N4 C21 1_555 1_555
C13 C12 1_555 1_555
C14 C7 1_555 1_555
H6 C14 1_555 1_555
C15 C1 1_555 1_555
C16 N1 1_555 1_555
C17 C3 1_555 1_555
C18 C16 1_555 1_555
H7 C18 1_555 1_555
H8 C18 1_555 1_555
H9 C18 1_555 1_555
N5 C17 1_555 1_555
H10 N5 1_555 1_555
H11 N5 1_555 1_555
C19 H12 1_555 1_555
C20 N1 1_555 1_555
C21 C19 1_555 1_555
H13 C21 1_555 1_555
C22 C4 1_555 1_555
H14 C22 1_555 1_555
C23 N4 1_555 1_555
H15 C23 1_555 1_555
N6 C11 1_555 1_555
H16 N6 1_555 1_555
H17 N6 1_555 1_555
O7 Tm1 1_555 1_555
H18 O7 1_555 1_555
H19 O7 1_555 1_555
O8 Tm1 1_555 1_555
H20 O8 1_555 1_555
H21 O8 1_555 1_555
O9 H22 1_555 1_555
H23 O9 1_555 1_555
O1A C15A 1_555 1_555
C1A C11 1_555 1_555
O3A C15A 1_555 1_555
C6A C1A 1_555 1_555
H2A C6A 1_555 1_555
C11A C1 1_555 1_555
C15A C1A 1_555 1_555
N6A C11A 1_555 1_555
H16A N6A 1_555 1_555
H17A N6A 1_555 1_555
O2A C5A 1_555 1_555
C3A H1A 1_555 1_555
C5A O6A 1_555 1_555
O6A Tm1A_2 1_555 1_555
C9A C17 1_555 1_555
C17A C9 1_555 1_555
N5A C17A 1_555 1_555
H10A N5A 1_555 1_555
H11A N5A 1_555 1_555
Tm1A O1A 1_555 1_555
C2A C7A 1_555 1_555
O4A C10A 1_555 1_555
N1A C13A 1_555 1_555
N2A N3A 1_555 1_555
C4A C19A 1_555 1_555
O5A Tm1A 1_555 1_555
N3A C20A 1_555 1_555
C7A H3A 1_555 1_555
C8A C2A 1_555 1_555
H4A C8A 1_555 1_555
C10A C2A 1_555 1_555
C12A C8A 1_555 1_555
H5A C12A 1_555 1_555
N4A C21A 1_555 1_555
C13A C12A 1_555 1_555
C14A C7A 1_555 1_555
H6A C14A 1_555 1_555
C16A N1A 1_555 1_555
C18A C16A 1_555 1_555
H7A C18A 1_555 1_555
H8A C18A 1_555 1_555
H9A C18A 1_555 1_555
C19A H12A 1_555 1_555
C20A N1A 1_555 1_555
C21A C19A 1_555 1_555
H13A C21A 1_555 1_555
C22A C4A 1_555 1_555
H14A C22A 1_555 1_555
C23A N4A 1_555 1_555
H15A C23A 1_555 1_555
O7A Tm1A 1_555 1_555
H18A O7A 1_555 1_555
H19A O7A 1_555 1_555
O8A Tm1A 1_555 1_555
H20A O8A 1_555 1_555
H21A O8A 1_555 1_555
Tm1_2 O4A 1_555 1_555
Tm1A_2 O2A 1_555 1_555
Tm1A_3 O4 1_555 1_555
O2A_2 Tm1A 1_555 1_555
O4_2 Tm1A 1_555 1_555
O4A_2 Tm1 1_555 1_555
O6A_2 Tm1A 1_555 1_555
O3 C15 1_555 1_555
N2 C16 1_555 1_555
C4 C20 1_555 1_555
C5 O6 1_555 1_555
C5 C9 1_555 1_555
O5 C10 1_555 1_555
C13 C14 1_555 1_555
C22 C23 1_555 1_555
O3A Tm1A 1_555 1_555
C6A C11A 1_555 1_555
C3A C9A 1_555 1_555
C3A C17A 1_555 1_555
C5A C9A 1_555 1_555
N2A C16A 1_555 1_555
C4A C20A 1_555 1_555
O5A C10A 1_555 1_555
C13A C14A 1_555 1_555
C22A C23A 1_555 1_555

#END
