
#######################################################################
#
#                 Cambridge Crystallographic Data Centre
#                                CCDC 
#
#######################################################################
#
# If this CIF has been generated from an entry in the Cambridge 
# Structural Database, then it will include bibliographic, chemical, 
# crystal, experimental, refinement or atomic coordinate data resulting 
# from the CCDC's data processing and validation procedures.
#
#######################################################################

data_DINGEO
_symmetry_cell_setting           triclinic
_symmetry_space_group_name_H-M   'P -1'
_symmetry_Int_Tables_number      2
_space_group_name_Hall           '-P 1'
loop_
_symmetry_equiv_pos_site_id
_symmetry_equiv_pos_as_xyz
1 x,y,z
2 -x,-y,-z
_cell_length_a                   9.3501(10)
_cell_length_b                   9.9958(11)
_cell_length_c                   14.5377(13)
_cell_angle_alpha                89.657(2)
_cell_angle_beta                 72.260(6)
_cell_angle_gamma                86.689(2)
_cell_volume                     1291.85
loop_
_atom_site_label
_atom_site_type_symbol
_atom_site_fract_x
_atom_site_fract_y
_atom_site_fract_z
O9 O 0.0728(10) 0.8790(9) 0.3014(5)
H24 H 0.1082 0.8718 0.2426
H25 H 0.0648 0.9561 0.3222
O10 O 0.0220(15) 0.0972(14) 0.4226(11)
H26 H -0.0020 0.1507 0.3861
H27 H 0.1013 0.1183 0.4298
Tb1 Tb 0.25769(4) 0.49294(3) 0.40149(2)
O1 O 0.2021(6) 0.5235(6) 0.5664(3)
O2 O -0.0417(6) 0.5625(6) 0.6205(4)
O3 O 0.4399(6) 0.3486(5) 0.4444(4)
O4 O 0.2347(6) 0.2560(5) 0.4470(4)
O5 O 0.3103(6) 0.5987(5) 0.2482(4)
O6 O 0.3724(6) 0.3851(5) 0.2488(3)
O7 O 0.1174(7) 0.7047(6) 0.4317(4)
H1 H 0.1243 0.7520 0.3845
H2 H 0.0553 0.7391 0.4796
O8 O 0.4596(6) 0.6193(5) 0.3970(4)
H3 H 0.4827 0.6868 0.3649
H4 H 0.4925 0.6198 0.4432
N1 N 0.1621(8) 0.8181(7) 0.9577(5)
N2 N 0.1712(9) 0.8595(8) 1.1005(5)
N3 N 0.2480(10) 0.9548(8) 1.0405(5)
N4 N 0.4287(11) 1.1753(9) 0.7191(6)
C1 C 0.0869(8) 0.5653(8) 0.6299(5)
C2 C 0.1033(8) 0.6231(8) 0.7180(5)
C3 C 0.2434(8) 0.6248(9) 0.7318(6)
H5 H 0.3272 0.5852 0.6858
C4 C 0.2598(9) 0.6835(10) 0.8116(6)
H6 H 0.3537 0.6810 0.8214
C5 C 0.1382(9) 0.7464(8) 0.8773(5)
C6 C 0.0013(10) 0.7497(10) 0.8657(6)
H7 H -0.0800 0.7940 0.9108
C7 C -0.0187(9) 0.6867(9) 0.7858(6)
H8 H -0.1138 0.6873 0.7781
C8 C 0.1219(10) 0.7787(9) 1.0505(6)
C9 C 0.0434(13) 0.6561(12) 1.0859(7)
H9 H 0.0343 0.6451 1.1531
H10 H 0.0997 0.5800 1.0498
H11 H -0.0550 0.6633 1.0780
C10 C 0.2394(10) 0.9252(9) 0.9550(6)
C11 C 0.3072(11) 1.0067(9) 0.8685(6)
C12 C 0.2272(12) 1.0471(10) 0.8072(7)
H12 H 0.1324 1.0164 0.8144
C13 C 0.2909(13) 1.1335(11) 0.7354(7)
H13 H 0.2350 1.1648 0.6958
C14 C 0.5053(15) 1.1298(12) 0.7749(9)
H14 H 0.6034 1.1555 0.7621
C15 C 0.4506(13) 1.0456(11) 0.8520(8)
H15 H 0.5087 1.0168 0.8908
C16 C 0.3641(9) 0.2470(8) 0.4537(5)
C17 C 0.4327(9) 0.1147(7) 0.4766(5)
C18 C 0.3491(10) 0.0090(8) 0.5071(6)
N5 N 0.181(2) -0.0003(18) 0.5124(18)
H16 H 0.1343 -0.0760 0.5329
H17 H 0.1299 0.0713 0.4975
C19 C 0.4150(10) -0.1073(8) 0.5325(6)
H18 H 0.3574 -0.1802 0.5555
C20 C 0.3677(8) 0.4920(8) 0.2047(5)
C21 C 0.4360(9) 0.4933(8) 0.0984(5)
C22 C 0.4669(10) 0.3779(9) 0.0446(5)
H19 H 0.4451 0.2929 0.0751
C23 C 0.5331(9) 0.3863(9) -0.0540(5)
H20 H 0.5572 0.3080 -0.0911
O3A O 0.5601(6) -0.3486(5) 0.5556(4)
O4A O 0.7653(6) -0.2560(5) 0.5530(4)
C16A C 0.6359(9) -0.2470(8) 0.5463(5)
C17A C 0.5673(9) -0.1147(7) 0.5234(5)
C18A C 0.6509(10) -0.0090(8) 0.4929(6)
N5A N 0.819(2) 0.0003(18) 0.4876(18)
H16A H 0.8657 0.0760 0.4671
H17A H 0.8701 -0.0713 0.5025
C19A C 0.5850(10) 0.1073(8) 0.4675(6)
H18A H 0.6426 0.1802 0.4445
O5A O 0.6897(6) 0.4013(5) -0.2482(4)
O6A O 0.6276(6) 0.6149(5) -0.2488(3)
C20A C 0.6323(8) 0.5080(8) -0.2047(5)
C21A C 0.5640(9) 0.5067(8) -0.0984(5)
C22A C 0.5331(10) 0.6221(9) -0.0446(5)
H19A H 0.5549 0.7071 -0.0751
C23A C 0.4669(9) 0.6137(9) 0.0540(5)
H20A H 0.4428 0.6920 0.0911
Tb1A Tb -0.25769(4) 0.50706(3) 0.59851(2)
O1A O -0.2021(6) 0.4765(6) 0.4336(3)
O2A O 0.0417(6) 0.4375(6) 0.3795(4)
O7A O -0.1174(7) 0.2953(6) 0.5683(4)
H1A H -0.1243 0.2480 0.6155
H2A H -0.0553 0.2609 0.5204
O8A O -0.4596(6) 0.3807(5) 0.6030(4)
H3A H -0.4827 0.3132 0.6351
H4A H -0.4925 0.3802 0.5568
N1A N -0.1621(8) 0.1819(7) 0.0423(5)
N2A N -0.1712(9) 0.1405(8) -0.1005(5)
N3A N -0.2480(10) 0.0452(8) -0.0405(5)
N4A N -0.4287(11) -0.1753(9) 0.2809(6)
C1A C -0.0869(8) 0.4347(8) 0.3701(5)
C2A C -0.1033(8) 0.3769(8) 0.2820(5)
C3A C -0.2434(8) 0.3752(9) 0.2682(6)
H5A H -0.3272 0.4148 0.3142
C4A C -0.2598(9) 0.3165(10) 0.1884(6)
H6A H -0.3537 0.3190 0.1786
C5A C -0.1382(9) 0.2536(8) 0.1227(5)
C6A C -0.0013(10) 0.2503(10) 0.1343(6)
H7A H 0.0800 0.2060 0.0892
C7A C 0.0187(9) 0.3133(9) 0.2142(6)
H8A H 0.1138 0.3127 0.2219
C8A C -0.1219(10) 0.2213(9) -0.0505(6)
C9A C -0.0434(13) 0.3439(12) -0.0859(7)
H9A H -0.0343 0.3549 -0.1531
H10A H -0.0997 0.4200 -0.0498
H11A H 0.0550 0.3367 -0.0780
C10A C -0.2394(10) 0.0748(9) 0.0450(6)
C11A C -0.3072(11) -0.0067(9) 0.1315(6)
C12A C -0.2272(12) -0.0471(10) 0.1928(7)
H12A H -0.1324 -0.0164 0.1856
C13A C -0.2909(13) -0.1335(11) 0.2646(7)
H13A H -0.2350 -0.1648 0.3042
C14A C -0.5053(15) -0.1298(12) 0.2251(9)
H14A H -0.6034 -0.1555 0.2379
C15A C -0.4506(13) -0.0456(11) 0.1480(8)
H15A H -0.5087 -0.0168 0.1092
Tb1A_2 Tb 0.74231(4) -0.49294(3) 0.59851(2)
Tb1A_3 Tb 0.74231(4) 0.50706(3) -0.40149(2)
O3A_2 O -0.4399(6) 0.6514(5) 0.5556(4)
O4A_2 O -0.2347(6) 0.7440(5) 0.5530(4)
O5A_2 O -0.3103(6) 0.4013(5) 0.7518(4)
O6A_2 O -0.3724(6) 0.6149(5) 0.7512(3)
H21? H 0.2445 0.0140 0.5110
N6? N 0.4298(18) 0.2476(14) 0.0803(11)
H22? H 0.3832 0.2384 0.1438
H23? H 0.4532 0.1751 0.0410
loop_
_geom_bond_atom_site_label_1
_geom_bond_atom_site_label_2
_geom_bond_site_symmetry_1
_geom_bond_site_symmetry_2
Tb1 O1 1_555 1_555
O1 C1 1_555 1_555
O2 C1 1_555 1_555
O3 Tb1 1_555 1_555
O4 Tb1 1_555 1_555
O5 Tb1 1_555 1_555
O6 Tb1 1_555 1_555
O7 Tb1 1_555 1_555
H1 O7 1_555 1_555
H2 O7 1_555 1_555
O8 Tb1 1_555 1_555
H3 O8 1_555 1_555
H4 O8 1_555 1_555
N1 C5 1_555 1_555
N2 N3 1_555 1_555
N3 C10 1_555 1_555
N4 C13 1_555 1_555
C1 C2 1_555 1_555
C2 C3 1_555 1_555
C3 H5 1_555 1_555
C4 C3 1_555 1_555
H6 C4 1_555 1_555
C5 C4 1_555 1_555
C6 C5 1_555 1_555
H7 C6 1_555 1_555
C7 C2 1_555 1_555
H8 C7 1_555 1_555
C8 N1 1_555 1_555
C9 C8 1_555 1_555
H9 C9 1_555 1_555
H10 C9 1_555 1_555
H11 C9 1_555 1_555
C10 N1 1_555 1_555
C11 C10 1_555 1_555
C12 C11 1_555 1_555
H12 C12 1_555 1_555
C13 C12 1_555 1_555
H13 C13 1_555 1_555
C14 N4 1_555 1_555
H14 C14 1_555 1_555
C15 C11 1_555 1_555
H15 C15 1_555 1_555
C16 O3 1_555 1_555
C17 C16 1_555 1_555
C18 C17 1_555 1_555
N5 C18 1_555 1_555
H16 N5 1_555 1_555
H17 N5 1_555 1_555
C19 C18 1_555 1_555
H18 C19 1_555 1_555
C20 O5 1_555 1_555
C21 C20 1_555 1_555
C22 C21 1_555 1_555
H19 C22 1_555 1_555
C23 C22 1_555 1_555
H20 C23 1_555 1_555
O9 H24 1_555 1_555
H25 O9 1_555 1_555
O10 H26 1_555 1_555
H27 O10 1_555 1_555
O3A C16A 1_555 1_555
O4A C16A 1_555 1_555
C16A C17A 1_555 1_555
C17A C19 1_555 1_555
C18A C17A 1_555 1_555
N5A C18A 1_555 1_555
H16A N5A 1_555 1_555
H17A N5A 1_555 1_555
C19A C17 1_555 1_555
H18A C19A 1_555 1_555
O5A C20A 1_555 1_555
O6A C20A 1_555 1_555
C20A C21A 1_555 1_555
C21A C23 1_555 1_555
C22A C21A 1_555 1_555
H19A C22A 1_555 1_555
C23A C21 1_555 1_555
H20A C23A 1_555 1_555
Tb1A O2 1_555 1_555
O1A Tb1A 1_555 1_555
O2A Tb1 1_555 1_555
O7A Tb1A 1_555 1_555
H1A O7A 1_555 1_555
H2A O7A 1_555 1_555
O8A Tb1A 1_555 1_555
H3A O8A 1_555 1_555
H4A O8A 1_555 1_555
N1A C5A 1_555 1_555
N2A N3A 1_555 1_555
N3A C10A 1_555 1_555
N4A C13A 1_555 1_555
C1A O1A 1_555 1_555
C2A C1A 1_555 1_555
C3A C2A 1_555 1_555
H5A C3A 1_555 1_555
C4A C3A 1_555 1_555
H6A C4A 1_555 1_555
C5A C4A 1_555 1_555
C6A C5A 1_555 1_555
H7A C6A 1_555 1_555
C7A C2A 1_555 1_555
H8A C7A 1_555 1_555
C8A N1A 1_555 1_555
C9A C8A 1_555 1_555
H9A C9A 1_555 1_555
H10A C9A 1_555 1_555
H11A C9A 1_555 1_555
C10A N1A 1_555 1_555
C11A C10A 1_555 1_555
C12A C11A 1_555 1_555
H12A C12A 1_555 1_555
C13A C12A 1_555 1_555
H13A C13A 1_555 1_555
C14A N4A 1_555 1_555
H14A C14A 1_555 1_555
C15A C11A 1_555 1_555
H15A C15A 1_555 1_555
Tb1A_2 O3A 1_555 1_555
Tb1A_3 O5A 1_555 1_555
O3A_2 Tb1A 1_555 1_555
O4A_2 Tb1A 1_555 1_555
O5A_2 Tb1A 1_555 1_555
O6A_2 Tb1A 1_555 1_555
O4 C16 1_555 1_555
O6 C20 1_555 1_555
N2 C8 1_555 1_555
C6 C7 1_555 1_555
C14 C15 1_555 1_555
O4A Tb1A_2 1_555 1_555
C18A C19A 1_555 1_555
O6A Tb1A_3 1_555 1_555
C22A C23A 1_555 1_555
O2A C1A 1_555 1_555
N2A C8A 1_555 1_555
C6A C7A 1_555 1_555
C14A C15A 1_555 1_555

#END
