
#######################################################################
#
#                 Cambridge Crystallographic Data Centre
#                                CCDC 
#
#######################################################################
#
# If this CIF has been generated from an entry in the Cambridge 
# Structural Database, then it will include bibliographic, chemical, 
# crystal, experimental, refinement or atomic coordinate data resulting 
# from the CCDC's data processing and validation procedures.
#
#######################################################################

data_DINGUE
_symmetry_cell_setting           triclinic
_symmetry_space_group_name_H-M   'P -1'
_symmetry_Int_Tables_number      2
_space_group_name_Hall           '-P 1'
loop_
_symmetry_equiv_pos_site_id
_symmetry_equiv_pos_as_xyz
1 x,y,z
2 -x,-y,-z
_cell_length_a                   9.3378(4)
_cell_length_b                   10.0052(5)
_cell_length_c                   14.6041(7)
_cell_angle_alpha                89.881(4)
_cell_angle_beta                 72.581(4)
_cell_angle_gamma                86.691(4)
_cell_volume                     1299.5
loop_
_atom_site_label
_atom_site_type_symbol
_atom_site_fract_x
_atom_site_fract_y
_atom_site_fract_z
O9 O 0.5640(5) 0.8719(4) 0.3060(3)
H22 H 0.5520 0.9525 0.3264
H23 H 0.6066 0.8698 0.2457
O10 O 0.5211(7) 1.0986(6) 0.4240(5)
H24 H 0.5452 1.1248 0.3663
H25 H 0.5956 1.1033 0.4457
C1 C 0.4597(7) 0.3438(5) -0.0908(3)
H1 H 0.5584 0.3353 -0.0832
H2 H 0.4054 0.4212 -0.0556
H3 H 0.4679 0.3534 -0.1576
C2 C 0.1925(6) -0.0056(5) 0.1296(3)
C3 C 0.0450(7) -0.0460(6) 0.1483(4)
H4 H -0.0131 -0.0187 0.1091
C4 C -0.0126(7) -0.1276(6) 0.2267(4)
H5 H -0.1115 -0.1516 0.2403
C5 C 0.3623(5) 0.2536(4) 0.1209(3)
C6 C 0.5045(5) 0.2548(5) 0.1318(3)
H6 H 0.5871 0.2144 0.0858
C7 C 0.2589(6) 0.0725(5) 0.0436(3)
C8 C 0.2084(6) -0.1322(5) 0.2661(3)
H7 H 0.2642 -0.1620 0.3061
C9 C 0.3984(5) 0.3792(4) 0.2809(3)
C10 C 0.2577(5) 0.3777(5) 0.2676(3)
H8 H 0.1750 0.4198 0.3126
C11 C 0.2384(6) 0.3143(5) 0.1881(3)
H9 H 0.1434 0.3126 0.1801
C12 C 0.4167(5) 0.4389(4) 0.3704(3)
C13 C 0.5223(5) 0.3165(5) 0.2119(3)
H10 H 0.6173 0.3164 0.2201
C14 C 0.3783(6) 0.2227(5) -0.0538(3)
C15 C 0.2736(6) -0.0479(5) 0.1918(3)
H11 H 0.3699 -0.0200 0.1834
C16 C 0.1345(5) 0.7524(4) 0.5472(3)
C17 C 0.0669(5) 0.8828(4) 0.5235(3)
C18 C 0.1533(6) 0.9916(4) 0.4931(3)
C19 C -0.0861(6) 0.8916(4) 0.5315(3)
H12 H -0.1436 0.8188 0.5535
C20 C -0.0335(5) 0.6167(4) 1.0543(3)
H13 H -0.0569 0.6951 1.0912
C21 C 0.0645(5) 0.5055(4) 0.9006(3)
C22 C 0.0318(5) 0.6252(4) 0.9553(3)
C23 C 0.1306(5) 0.5068(4) 0.7942(3)
Er1 Er 0.24034(2) 0.506467(17) 0.598166(11)
N1 N 0.0683(6) -0.1728(4) 0.2829(3)
N2 N 0.3270(5) 0.1384(4) -0.1038(3)
N3 N 0.2516(5) 0.0426(4) -0.0425(3)
N4 N 0.3394(4) 0.1831(4) 0.0407(2)
N5 N 0.0653(9) 0.7494(7) 0.9174(5)
H14 H 0.0460 0.8191 0.9544
H15 H 0.1056 0.7575 0.8566
N6 N 0.3126(12) 0.9976(9) 0.4852(7)
H16 H 0.3608 0.9293 0.5000
H17 H 0.3580 1.0694 0.4656
H18 H -0.0032 0.3790 0.5587
O1 O 0.0411(4) 0.3810(3) 0.6030(2)
H19 H 0.4032 0.2425 0.6155
O2 O 0.3797(4) 0.2975(3) 0.5662(2)
O3 O 0.2992(3) 0.4810(3) 0.43478(19)
O4 O 0.5455(3) 0.4391(3) 0.3791(2)
O5 O 0.1917(3) 0.3995(3) 0.74938(18)
O6 O 0.1254(3) 0.6147(3) 0.74874(18)
O7 O 0.2654(4) 0.7424(3) 0.5552(2)
O8 O 0.0588(3) 0.6491(3) 0.55664(19)
H20 H 0.0052 0.3209 0.6428
H21 H 0.4554 0.2759 0.5183
C16A C -0.1345(5) 1.2476(4) 0.4528(3)
C17A C -0.0669(5) 1.1172(4) 0.4765(3)
C18A C -0.1533(6) 1.0084(4) 0.5069(3)
C19A C 0.0861(6) 1.1084(4) 0.4685(3)
H12A H 0.1436 1.1812 0.4465
N6A N -0.3126(12) 1.0024(9) 0.5148(7)
H16A H -0.3608 1.0707 0.5000
H17A H -0.3580 0.9306 0.5344
O7A O -0.2654(4) 1.2576(3) 0.4448(2)
O8A O -0.0588(3) 1.3509(3) 0.44336(19)
C20A C 0.0335(5) 0.3833(4) 0.9457(3)
H13A H 0.0569 0.3049 0.9088
C21A C -0.0645(5) 0.4945(4) 1.0994(3)
C22A C -0.0318(5) 0.3748(4) 1.0447(3)
C23A C -0.1306(5) 0.4932(4) 1.2058(3)
N5A N -0.0653(9) 0.2506(7) 1.0826(5)
H14A H -0.0460 0.1809 1.0456
H15A H -0.1056 0.2425 1.1434
O5A O -0.1917(3) 0.6005(3) 1.25062(18)
O6A O -0.1254(3) 0.3853(3) 1.25126(18)
C1A C -0.4597(7) 0.6562(5) 2.0908(3)
H1A H -0.5584 0.6647 2.0832
H2A H -0.4054 0.5788 2.0556
H3A H -0.4679 0.6466 2.1576
C2A C -0.1925(6) 1.0056(5) 1.8704(3)
C3A C -0.0450(7) 1.0460(6) 1.8517(4)
H4A H 0.0131 1.0187 1.8909
C4A C 0.0126(7) 1.1276(6) 1.7733(4)
H5A H 0.1115 1.1516 1.7597
C5A C -0.3623(5) 0.7464(4) 1.8791(3)
C6A C -0.5045(5) 0.7452(5) 1.8682(3)
H6A H -0.5871 0.7856 1.9142
C7A C -0.2589(6) 0.9275(5) 1.9564(3)
C8A C -0.2084(6) 1.1322(5) 1.7339(3)
H7A H -0.2642 1.1620 1.6939
C9A C -0.3984(5) 0.6208(4) 1.7191(3)
C10A C -0.2577(5) 0.6223(5) 1.7324(3)
H8A H -0.1750 0.5802 1.6874
C11A C -0.2384(6) 0.6857(5) 1.8119(3)
H9A H -0.1434 0.6874 1.8199
C12A C -0.4167(5) 0.5611(4) 1.6296(3)
C13A C -0.5223(5) 0.6835(5) 1.7881(3)
H10A H -0.6173 0.6836 1.7799
C14A C -0.3783(6) 0.7773(5) 2.0538(3)
C15A C -0.2736(6) 1.0479(5) 1.8082(3)
H11A H -0.3699 1.0200 1.8166
Er1A Er -0.24034(2) 0.493533(17) 1.401834(11)
N1A N -0.0683(6) 1.1728(4) 1.7171(3)
N2A N -0.3270(5) 0.8616(4) 2.1038(3)
N3A N -0.2516(5) 0.9574(4) 2.0425(3)
N4A N -0.3394(4) 0.8169(4) 1.9593(2)
H18A H 0.0032 0.6210 1.4413
O1A O -0.0411(4) 0.6190(3) 1.3970(2)
H19A H -0.4032 0.7575 1.3845
O2A O -0.3797(4) 0.7025(3) 1.4338(2)
O3A O -0.2992(3) 0.5190(3) 1.56522(19)
O4A O -0.5455(3) 0.5609(3) 1.6209(2)
H20A H -0.0052 0.6791 1.3572
H21A H -0.4554 0.7241 1.4817
Er1_2 Er -0.75966(2) 0.506467(17) 1.598166(11)
Er1A_2 Er -0.24034(2) 1.493533(17) 0.401834(11)
Er1A_3 Er 0.75966(2) 0.493533(17) 0.401834(11)
O4_2 O -0.4545(3) 0.4391(3) 1.3791(2)
O4A_2 O 0.4545(3) 0.5609(3) 0.6209(2)
O7A_2 O -0.2654(4) 0.2576(3) 1.4448(2)
O8A_2 O -0.0588(3) 0.3509(3) 1.44336(19)
loop_
_geom_bond_atom_site_label_1
_geom_bond_atom_site_label_2
_geom_bond_site_symmetry_1
_geom_bond_site_symmetry_2
C1 H1 1_555 1_555
H2 C1 1_555 1_555
H3 C1 1_555 1_555
C2 C3 1_555 1_555
C3 H4 1_555 1_555
C4 C3 1_555 1_555
H5 C4 1_555 1_555
C5 C6 1_555 1_555
C6 H6 1_555 1_555
C7 C2 1_555 1_555
C8 H7 1_555 1_555
C9 C10 1_555 1_555
C10 H8 1_555 1_555
C11 C5 1_555 1_555
H9 C11 1_555 1_555
C12 C9 1_555 1_555
C13 C6 1_555 1_555
H10 C13 1_555 1_555
C14 C1 1_555 1_555
C15 C2 1_555 1_555
H11 C15 1_555 1_555
C16 C17 1_555 1_555
C17 C18 1_555 1_555
C18 N6 1_555 1_555
C19 C17 1_555 1_555
H12 C19 1_555 1_555
C20 H13 1_555 1_555
C21 C22 1_555 1_555
C22 C20 1_555 1_555
C23 C21 1_555 1_555
Er1 O1 1_555 1_555
N1 C4 1_555 1_555
N2 C14 1_555 1_555
N3 C7 1_555 1_555
N4 C5 1_555 1_555
N5 C22 1_555 1_555
H14 N5 1_555 1_555
H15 N5 1_555 1_555
N6 H16 1_555 1_555
H17 N6 1_555 1_555
H18 O1 1_555 1_555
O1 H20 1_555 1_555
H19 O2 1_555 1_555
O2 Er1 1_555 1_555
O3 C12 1_555 1_555
O4 C12 1_555 1_555
O5 C23 1_555 1_555
O6 C23 1_555 1_555
O7 C16 1_555 1_555
O8 C16 1_555 1_555
H21 O2 1_555 1_555
O9 H22 1_555 1_555
H23 O9 1_555 1_555
O10 H24 1_555 1_555
H25 O10 1_555 1_555
C16A C17A 1_555 1_555
C17A C18A 1_555 1_555
C18A C19 1_555 1_555
C19A C18 1_555 1_555
H12A C19A 1_555 1_555
N6A C18A 1_555 1_555
H16A N6A 1_555 1_555
H17A N6A 1_555 1_555
O7A C16A 1_555 1_555
O8A C16A 1_555 1_555
C20A C21 1_555 1_555
H13A C20A 1_555 1_555
C21A C20 1_555 1_555
C22A C20A 1_555 1_555
C23A C21A 1_555 1_555
N5A C22A 1_555 1_555
H14A N5A 1_555 1_555
H15A N5A 1_555 1_555
O5A C23A 1_555 1_555
O6A C23A 1_555 1_555
C1A H1A 1_555 1_555
H2A C1A 1_555 1_555
H3A C1A 1_555 1_555
C2A C3A 1_555 1_555
C3A H4A 1_555 1_555
C4A C3A 1_555 1_555
H5A C4A 1_555 1_555
C5A C6A 1_555 1_555
C6A H6A 1_555 1_555
C7A C2A 1_555 1_555
C8A H7A 1_555 1_555
C9A C10A 1_555 1_555
C10A H8A 1_555 1_555
C11A C5A 1_555 1_555
H9A C11A 1_555 1_555
C12A C9A 1_555 1_555
C13A C6A 1_555 1_555
H10A C13A 1_555 1_555
C14A C1A 1_555 1_555
C15A C2A 1_555 1_555
H11A C15A 1_555 1_555
Er1A O5A 1_555 1_555
N1A C4A 1_555 1_555
N2A C14A 1_555 1_555
N3A C7A 1_555 1_555
N4A C5A 1_555 1_555
H18A O1A 1_555 1_555
O1A Er1A 1_555 1_555
H19A O2A 1_555 1_555
O2A Er1A 1_555 1_555
O3A C12A 1_555 1_555
O4A C12A 1_555 1_555
H20A O1A 1_555 1_555
H21A O2A 1_555 1_555
Er1_2 O4A 1_555 1_555
Er1A_2 O7A 1_555 1_555
Er1A_3 O4 1_555 1_555
O4_2 Er1A 1_555 1_555
O4A_2 Er1 1_555 1_555
O7A_2 Er1A 1_555 1_555
O8A_2 Er1A 1_555 1_555
C7 N4 1_555 1_555
C8 C15 1_555 1_555
C8 N1 1_555 1_555
C9 C13 1_555 1_555
C10 C11 1_555 1_555
C14 N4 1_555 1_555
Er1 O3 1_555 1_555
Er1 O5 1_555 1_555
Er1 O6 1_555 1_555
Er1 O7 1_555 1_555
Er1 O8 1_555 1_555
N2 N3 1_555 1_555
C17A C19A 1_555 1_555
O8A Er1A_2 1_555 1_555
C21A C22A 1_555 1_555
O6A Er1A 1_555 1_555
C7A N4A 1_555 1_555
C8A C15A 1_555 1_555
C8A N1A 1_555 1_555
C9A C13A 1_555 1_555
C10A C11A 1_555 1_555
C14A N4A 1_555 1_555
Er1A O3A 1_555 1_555
N2A N3A 1_555 1_555

#END
