
#######################################################################
#
#                 Cambridge Crystallographic Data Centre
#                                CCDC 
#
#######################################################################
#
# If this CIF has been generated from an entry in the Cambridge 
# Structural Database, then it will include bibliographic, chemical, 
# crystal, experimental, refinement or atomic coordinate data resulting 
# from the CCDC's data processing and validation procedures.
#
#######################################################################

data_DINGAK
_symmetry_cell_setting           monoclinic
_symmetry_space_group_name_H-M   'P 21'
_symmetry_Int_Tables_number      4
_space_group_name_Hall           'P 2yb'
loop_
_symmetry_equiv_pos_site_id
_symmetry_equiv_pos_as_xyz
1 x,y,z
2 -x,1/2+y,-z
_cell_length_a                   5.2091(12)
_cell_length_b                   24.732(6)
_cell_length_c                   8.933(2)
_cell_angle_alpha                90
_cell_angle_beta                 99.068(3)
_cell_angle_gamma                90
_cell_volume                     1136.47
loop_
_atom_site_label
_atom_site_type_symbol
_atom_site_fract_x
_atom_site_fract_y
_atom_site_fract_z
Co1 Co 0.29149(11) 0.49778(4) 0.33485(6)
O1 O -0.1381(7) 0.40020(16) -0.3994(4)
O2 O 0.0303(7) 0.56356(15) 0.3550(4)
H1 H -0.1247 0.5538 0.3218
H2 H 0.1160 0.5740 0.4389
O3 O 0.1029(8) 0.45240(18) -0.5209(4)
O4 O 0.5717(7) 0.43559(15) 0.3238(4)
H3 H 0.4947 0.4316 0.2332
H4 H 0.6695 0.4148 0.3835
O5 O -0.1957(7) 0.44059(15) -0.0582(4)
O6 O 0.0091(7) 0.46690(15) 0.1666(4)
O7 O 0.7096(7) 0.05201(16) 0.0379(4)
O8 O 0.6724(7) 0.09206(15) 0.3772(4)
N1 N 0.3159(8) 0.10376(15) 0.1332(4)
H5 H 0.4847 0.1142 0.1580
N2 N 0.2078(8) 0.39399(15) -0.1491(4)
H6 H 0.0386 0.3837 -0.1728
C1 C 0.0485(10) 0.21470(19) -0.0641(5)
C2 C 0.1054(11) 0.2613(2) -0.1445(6)
C3 C 0.3113(10) 0.29582(19) -0.0833(6)
C4 C 0.4687(10) 0.2828(2) 0.0565(6)
C5 C 0.4127(11) 0.2360(2) 0.1358(6)
C6 C 0.2071(10) 0.20200(19) 0.0755(6)
C7 C -0.1784(11) 0.1798(2) -0.1300(6)
H7 H -0.3375 0.1992 -0.1276
H8 H -0.1780 0.1473 -0.0714
H9 H -0.1643 0.1708 -0.2329
C8 C -0.0570(12) 0.2731(2) -0.2967(7)
H10 H -0.0326 0.2448 -0.3667
H11 H -0.0044 0.3070 -0.3344
H12 H -0.2371 0.2749 -0.2856
C9 C 0.6996(11) 0.3176(2) 0.1247(6)
H13 H 0.6770 0.3291 0.2244
H14 H 0.7106 0.3487 0.0617
H15 H 0.8567 0.2968 0.1309
C10 C 0.5826(14) 0.2239(2) 0.2863(6)
H16 H 0.5560 0.2511 0.3589
H17 H 0.7619 0.2237 0.2730
H18 H 0.5374 0.1891 0.3222
C11 C 0.1520(9) 0.15232(19) 0.1615(5)
H19 H -0.0301 0.1430 0.1336
H20 H 0.1823 0.1605 0.2690
C12 C 0.2770(10) 0.0586(2) 0.2386(5)
H21 H 0.2848 0.0243 0.1871
H22 H 0.1068 0.0618 0.2689
C13 C 0.4856(10) 0.0603(2) 0.3782(5)
C14 C 0.2815(10) 0.0865(2) -0.0290(5)
H23 H 0.2500 0.1181 -0.0937
H24 H 0.1308 0.0631 -0.0503
C15 C 0.5201(10) 0.0566(2) -0.0653(6)
C16 C 0.3698(10) 0.3451(2) -0.1722(6)
H25 H 0.5519 0.3544 -0.1435
H26 H 0.3421 0.3361 -0.2792
C17 C 0.2439(10) 0.4146(2) 0.0119(5)
H27 H 0.3909 0.4391 0.0289
H28 H 0.2797 0.3845 0.0818
C18 C -0.0008(9) 0.44387(19) 0.0406(5)
C19 C 0.2509(10) 0.4374(2) -0.2609(5)
H29 H 0.4272 0.4353 -0.2828
H30 H 0.2262 0.4728 -0.2185
C20 C 0.0581(10) 0.4293(2) -0.4060(5)
O9 O 0.4948(8) 0.03963(16) -0.1998(4)
O10 O 0.4490(7) 0.02818(15) 0.4811(4)
Co1_2 Co 0.29149(11) 0.49778(4) -0.66515(6)
Co1A Co 0.70851(11) -0.00222(4) -0.33485(6)
Co1A_2 Co 0.70851(11) -0.00222(4) 0.66515(6)
O3_2 O 0.1029(8) 0.45240(18) 0.4791(4)
O9A O 0.5052(8) 0.53963(16) 0.1998(4)
O10A O 0.5510(7) 0.52818(15) 0.5189(4)
O11 O 0.282(4) 0.3381(5) 0.4134(18)
loop_
_geom_bond_atom_site_label_1
_geom_bond_atom_site_label_2
_geom_bond_site_symmetry_1
_geom_bond_site_symmetry_2
Co1 O2 1_555 1_555
O1 C20 1_555 1_555
O2 H1 1_555 1_555
H2 O2 1_555 1_555
O3 C20 1_555 1_555
O4 Co1 1_555 1_555
H3 O4 1_555 1_555
H4 O4 1_555 1_555
O5 C18 1_555 1_555
O6 Co1 1_555 1_555
O7 C15 1_555 1_555
O8 C13 1_555 1_555
N1 H5 1_555 1_555
N2 H6 1_555 1_555
C1 C2 1_555 1_555
C2 C3 1_555 1_555
C3 C4 1_555 1_555
C4 C5 1_555 1_555
C5 C6 1_555 1_555
C6 C1 1_555 1_555
C7 C1 1_555 1_555
H7 C7 1_555 1_555
H8 C7 1_555 1_555
H9 C7 1_555 1_555
C8 C2 1_555 1_555
H10 C8 1_555 1_555
H11 C8 1_555 1_555
H12 C8 1_555 1_555
C9 C4 1_555 1_555
H13 C9 1_555 1_555
H14 C9 1_555 1_555
H15 C9 1_555 1_555
C10 C5 1_555 1_555
H16 C10 1_555 1_555
H17 C10 1_555 1_555
H18 C10 1_555 1_555
C11 N1 1_555 1_555
H19 C11 1_555 1_555
H20 C11 1_555 1_555
C12 N1 1_555 1_555
H21 C12 1_555 1_555
H22 C12 1_555 1_555
C13 C12 1_555 1_555
C14 N1 1_555 1_555
H23 C14 1_555 1_555
H24 C14 1_555 1_555
C15 C14 1_555 1_555
C16 N2 1_555 1_555
H25 C16 1_555 1_555
H26 C16 1_555 1_555
C17 N2 1_555 1_555
H27 C17 1_555 1_555
H28 C17 1_555 1_555
C18 O6 1_555 1_555
C19 N2 1_555 1_555
H29 C19 1_555 1_555
H30 C19 1_555 1_555
C20 C19 1_555 1_555
O9 C15 1_555 1_555
O10 C13 1_555 1_555
Co1_2 O3 1_555 1_555
Co1A O9 1_555 1_555
Co1A_2 O10 1_555 1_555
O3_2 Co1 1_555 1_555
O9A Co1 1_555 1_555
O10A Co1 1_555 1_555
C3 C16 1_555 1_555
C6 C11 1_555 1_555
C17 C18 1_555 1_555

#END
