
#######################################################################
#
#                 Cambridge Crystallographic Data Centre
#                                CCDC 
#
#######################################################################
#
# If this CIF has been generated from an entry in the Cambridge 
# Structural Database, then it will include bibliographic, chemical, 
# crystal, experimental, refinement or atomic coordinate data resulting 
# from the CCDC's data processing and validation procedures.
#
#######################################################################

data_DINHAL
_symmetry_cell_setting           triclinic
_symmetry_space_group_name_H-M   'P -1'
_symmetry_Int_Tables_number      2
_space_group_name_Hall           '-P 1'
loop_
_symmetry_equiv_pos_site_id
_symmetry_equiv_pos_as_xyz
1 x,y,z
2 -x,-y,-z
_cell_length_a                   9.3501(10)
_cell_length_b                   9.9958(11)
_cell_length_c                   14.5377(13)
_cell_angle_alpha                89.657(2)
_cell_angle_beta                 72.260(6)
_cell_angle_gamma                86.689(2)
_cell_volume                     1291.85
loop_
_atom_site_label
_atom_site_type_symbol
_atom_site_fract_x
_atom_site_fract_y
_atom_site_fract_z
O9 O 0.0705(11) 0.8747(9) 0.3024(6)
H24 H 0.1059 0.8675 0.2435
H25 H 0.0625 0.9518 0.3232
O10 O 0.0234(16) 0.0955(14) 0.4225(13)
H26 H -0.0006 0.1491 0.3860
H27 H 0.1027 0.1167 0.4297
Dy1 Dy 0.25869(4) 0.49225(3) 0.40160(2)
O1 O 0.1992(7) 0.5194(7) 0.5666(4)
O2 O -0.0437(7) 0.5611(7) 0.6204(5)
O3 O 0.4411(6) 0.3504(5) 0.4440(4)
O4 O 0.2333(7) 0.2564(6) 0.4464(4)
O5 O 0.3101(7) 0.5965(5) 0.2487(4)
O6 O 0.3743(7) 0.3850(6) 0.2491(4)
O7 O 0.1197(8) 0.7032(7) 0.4317(5)
H1 H 0.1267 0.7506 0.3845
H2 H 0.0577 0.7376 0.4796
O8 O 0.4599(7) 0.6200(6) 0.3975(4)
H3 H 0.4830 0.6875 0.3654
H4 H 0.4929 0.6205 0.4438
N1 N 0.1637(8) 0.8172(7) 0.9562(5)
N2 N 0.1712(11) 0.8586(8) 1.1010(6)
N3 N 0.2449(10) 0.9536(8) 1.0403(6)
N4 N 0.4338(13) 1.1771(9) 0.7185(7)
C1 C 0.0858(10) 0.5638(8) 0.6299(6)
C2 C 0.1014(9) 0.6223(8) 0.7182(6)
C3 C 0.2411(9) 0.6219(10) 0.7307(6)
H5 H 0.3230 0.5787 0.6854
C4 C 0.2620(10) 0.6862(10) 0.8112(7)
H6 H 0.3566 0.6867 0.8197
C5 C 0.1390(10) 0.7476(8) 0.8761(6)
C6 C 0.0000(11) 0.7491(10) 0.8655(7)
H7 H -0.0816 0.7915 0.9116
C7 C -0.0201(10) 0.6869(10) 0.7855(7)
H8 H -0.1150 0.6887 0.7772
C8 C 0.1250(12) 0.7775(10) 1.0493(7)
C9 C 0.0432(16) 0.6552(12) 1.0882(8)
H9 H -0.0390 0.6789 1.1449
H10 H 0.1109 0.5901 1.1045
H11 H 0.0052 0.6180 1.0402
C10 C 0.2410(11) 0.9264(9) 0.9547(7)
C11 C 0.3061(12) 1.0069(9) 0.8697(7)
C12 C 0.2269(13) 1.0468(11) 0.8073(8)
H12 H 0.1317 1.0169 0.8148
C13 C 0.2921(13) 1.1322(12) 0.7335(8)
H13 H 0.2382 1.1607 0.6920
C14 C 0.5078(15) 1.1286(12) 0.7714(9)
H14 H 0.6081 1.1488 0.7566
C15 C 0.4499(13) 1.0465(12) 0.8510(8)
H15 H 0.5080 1.0194 0.8903
C16 C 0.3652(9) 0.2460(8) 0.4518(6)
C17 C 0.4349(10) 0.1176(8) 0.4762(6)
C18 C 0.3474(10) 0.0081(9) 0.5086(7)
N5 N 0.179(3) -0.009(2) 0.5158(18)
H16 H 0.1318 -0.0846 0.5363
H17 H 0.1274 0.0627 0.5009
C19 C 0.4135(11) -0.1094(9) 0.5319(7)
H18 H 0.3560 -0.1828 0.5530
C20 C 0.3693(9) 0.4929(8) 0.2056(5)
C21 C 0.4338(9) 0.4921(9) 0.0977(6)
C22 C 0.4688(11) 0.3772(9) 0.0449(6)
H19 H 0.4469 0.2922 0.0754
C23 C 0.5314(10) 0.3827(9) -0.0547(6)
H20 H 0.5499 0.3050 -0.0923
O3A O 0.5589(6) -0.3504(5) 0.5560(4)
O4A O 0.7667(7) -0.2564(6) 0.5536(4)
C16A C 0.6348(9) -0.2460(8) 0.5482(6)
C17A C 0.5651(10) -0.1176(8) 0.5238(6)
C18A C 0.6526(10) -0.0081(9) 0.4914(7)
N5A N 0.821(3) 0.009(2) 0.4842(18)
H16A H 0.8682 0.0846 0.4637
H17A H 0.8726 -0.0627 0.4991
C19A C 0.5865(11) 0.1094(9) 0.4681(7)
H18A H 0.6440 0.1828 0.4470
O5A O 0.6899(7) 0.4035(5) -0.2487(4)
O6A O 0.6257(7) 0.6150(6) -0.2491(4)
C20A C 0.6307(9) 0.5071(8) -0.2056(5)
C21A C 0.5662(9) 0.5079(9) -0.0977(6)
C22A C 0.5312(11) 0.6228(9) -0.0449(6)
H19A H 0.5531 0.7078 -0.0754
C23A C 0.4686(10) 0.6173(9) 0.0547(6)
H20A H 0.4501 0.6950 0.0923
Dy1A Dy -0.25869(4) 0.50775(3) 0.59840(2)
O1A O -0.1992(7) 0.4806(7) 0.4334(4)
O2A O 0.0437(7) 0.4389(7) 0.3796(5)
O7A O -0.1197(8) 0.2968(7) 0.5683(5)
H1A H -0.1267 0.2494 0.6155
H2A H -0.0577 0.2624 0.5204
O8A O -0.4599(7) 0.3800(6) 0.6025(4)
H3A H -0.4830 0.3125 0.6346
H4A H -0.4929 0.3795 0.5562
N1A N -0.1637(8) 0.1828(7) 0.0438(5)
N2A N -0.1712(11) 0.1414(8) -0.1010(6)
N3A N -0.2449(10) 0.0464(8) -0.0403(6)
N4A N -0.4338(13) -0.1771(9) 0.2815(7)
C1A C -0.0858(10) 0.4362(8) 0.3701(6)
C2A C -0.1014(9) 0.3777(8) 0.2818(6)
C3A C -0.2411(9) 0.3781(10) 0.2693(6)
H5A H -0.3230 0.4213 0.3146
C4A C -0.2620(10) 0.3138(10) 0.1888(7)
H6A H -0.3566 0.3133 0.1803
C5A C -0.1390(10) 0.2524(8) 0.1239(6)
C6A C 0.0000(11) 0.2509(10) 0.1345(7)
H7A H 0.0816 0.2085 0.0884
C7A C 0.0201(10) 0.3131(10) 0.2145(7)
H8A H 0.1150 0.3113 0.2228
C8A C -0.1250(12) 0.2225(10) -0.0493(7)
C9A C -0.0432(16) 0.3448(12) -0.0882(8)
H9A H 0.0390 0.3211 -0.1449
H10A H -0.1109 0.4099 -0.1045
H11A H -0.0052 0.3820 -0.0402
C10A C -0.2410(11) 0.0736(9) 0.0453(7)
C11A C -0.3061(12) -0.0069(9) 0.1303(7)
C12A C -0.2269(13) -0.0468(11) 0.1927(8)
H12A H -0.1317 -0.0169 0.1852
C13A C -0.2921(13) -0.1322(12) 0.2665(8)
H13A H -0.2382 -0.1607 0.3080
C14A C -0.5078(15) -0.1286(12) 0.2286(9)
H14A H -0.6081 -0.1488 0.2434
C15A C -0.4499(13) -0.0465(12) 0.1490(8)
H15A H -0.5080 -0.0194 0.1097
Dy1A_2 Dy 0.74131(4) -0.49225(3) 0.59840(2)
Dy1A_3 Dy 0.74131(4) 0.50775(3) -0.40160(2)
O3A_2 O -0.4411(6) 0.6496(5) 0.5560(4)
O4A_2 O -0.2333(7) 0.7436(6) 0.5536(4)
O5A_2 O -0.3101(7) 0.4035(5) 0.7513(4)
O6A_2 O -0.3743(7) 0.6150(6) 0.7509(4)
H21? H 0.2429 0.0131 0.5125
N6? N 0.428(2) 0.2479(14) 0.0811(12)
H22? H 0.3811 0.2387 0.1447
H23? H 0.4510 0.1753 0.0419
loop_
_geom_bond_atom_site_label_1
_geom_bond_atom_site_label_2
_geom_bond_site_symmetry_1
_geom_bond_site_symmetry_2
Dy1 O1 1_555 1_555
O1 C1 1_555 1_555
O2 C1 1_555 1_555
O3 Dy1 1_555 1_555
O4 Dy1 1_555 1_555
O5 Dy1 1_555 1_555
O6 Dy1 1_555 1_555
O7 Dy1 1_555 1_555
H1 O7 1_555 1_555
H2 O7 1_555 1_555
O8 Dy1 1_555 1_555
H3 O8 1_555 1_555
H4 O8 1_555 1_555
N1 C5 1_555 1_555
N2 N3 1_555 1_555
N3 C10 1_555 1_555
N4 C13 1_555 1_555
C1 C2 1_555 1_555
C2 C3 1_555 1_555
C3 H5 1_555 1_555
C4 C3 1_555 1_555
H6 C4 1_555 1_555
C5 C4 1_555 1_555
C6 C5 1_555 1_555
H7 C6 1_555 1_555
C7 C2 1_555 1_555
H8 C7 1_555 1_555
C8 N1 1_555 1_555
C9 C8 1_555 1_555
H9 C9 1_555 1_555
H10 C9 1_555 1_555
H11 C9 1_555 1_555
C10 N1 1_555 1_555
C11 C10 1_555 1_555
C12 C11 1_555 1_555
H12 C12 1_555 1_555
C13 C12 1_555 1_555
H13 C13 1_555 1_555
C14 N4 1_555 1_555
H14 C14 1_555 1_555
C15 C11 1_555 1_555
H15 C15 1_555 1_555
C16 O3 1_555 1_555
C17 C16 1_555 1_555
C18 C17 1_555 1_555
N5 C18 1_555 1_555
H16 N5 1_555 1_555
H17 N5 1_555 1_555
C19 C18 1_555 1_555
H18 C19 1_555 1_555
C20 O5 1_555 1_555
C21 C20 1_555 1_555
C22 C21 1_555 1_555
H19 C22 1_555 1_555
C23 C22 1_555 1_555
H20 C23 1_555 1_555
O9 H24 1_555 1_555
H25 O9 1_555 1_555
O10 H26 1_555 1_555
H27 O10 1_555 1_555
O3A C16A 1_555 1_555
O4A C16A 1_555 1_555
C16A C17A 1_555 1_555
C17A C19 1_555 1_555
C18A C17A 1_555 1_555
N5A C18A 1_555 1_555
H16A N5A 1_555 1_555
H17A N5A 1_555 1_555
C19A C17 1_555 1_555
H18A C19A 1_555 1_555
O5A C20A 1_555 1_555
O6A C20A 1_555 1_555
C20A C21A 1_555 1_555
C21A C23 1_555 1_555
C22A C21A 1_555 1_555
H19A C22A 1_555 1_555
C23A C21 1_555 1_555
H20A C23A 1_555 1_555
Dy1A O2 1_555 1_555
O1A Dy1A 1_555 1_555
O2A Dy1 1_555 1_555
O7A Dy1A 1_555 1_555
H1A O7A 1_555 1_555
H2A O7A 1_555 1_555
O8A Dy1A 1_555 1_555
H3A O8A 1_555 1_555
H4A O8A 1_555 1_555
N1A C5A 1_555 1_555
N2A N3A 1_555 1_555
N3A C10A 1_555 1_555
N4A C13A 1_555 1_555
C1A O1A 1_555 1_555
C2A C1A 1_555 1_555
C3A C2A 1_555 1_555
H5A C3A 1_555 1_555
C4A C3A 1_555 1_555
H6A C4A 1_555 1_555
C5A C4A 1_555 1_555
C6A C5A 1_555 1_555
H7A C6A 1_555 1_555
C7A C2A 1_555 1_555
H8A C7A 1_555 1_555
C8A N1A 1_555 1_555
C9A C8A 1_555 1_555
H9A C9A 1_555 1_555
H10A C9A 1_555 1_555
H11A C9A 1_555 1_555
C10A N1A 1_555 1_555
C11A C10A 1_555 1_555
C12A C11A 1_555 1_555
H12A C12A 1_555 1_555
C13A C12A 1_555 1_555
H13A C13A 1_555 1_555
C14A N4A 1_555 1_555
H14A C14A 1_555 1_555
C15A C11A 1_555 1_555
H15A C15A 1_555 1_555
Dy1A_2 O3A 1_555 1_555
Dy1A_3 O5A 1_555 1_555
O3A_2 Dy1A 1_555 1_555
O4A_2 Dy1A 1_555 1_555
O5A_2 Dy1A 1_555 1_555
O6A_2 Dy1A 1_555 1_555
O4 C16 1_555 1_555
O6 C20 1_555 1_555
N2 C8 1_555 1_555
C6 C7 1_555 1_555
C14 C15 1_555 1_555
O4A Dy1A_2 1_555 1_555
C18A C19A 1_555 1_555
O6A Dy1A_3 1_555 1_555
C22A C23A 1_555 1_555
O2A C1A 1_555 1_555
N2A C8A 1_555 1_555
C6A C7A 1_555 1_555
C14A C15A 1_555 1_555

#END
