
#######################################################################
#
#                 Cambridge Crystallographic Data Centre
#                                CCDC 
#
#######################################################################
#
# If this CIF has been generated from an entry in the Cambridge 
# Structural Database, then it will include bibliographic, chemical, 
# crystal, experimental, refinement or atomic coordinate data resulting 
# from the CCDC's data processing and validation procedures.
#
#######################################################################

data_DINNEV
_symmetry_cell_setting           orthorhombic
_symmetry_space_group_name_H-M   'P b c a'
_symmetry_Int_Tables_number      61
_space_group_name_Hall           '-P 2ac 2ab'
loop_
_symmetry_equiv_pos_site_id
_symmetry_equiv_pos_as_xyz
1 x,y,z
2 1/2-x,-y,1/2+z
3 -x,1/2+y,1/2-z
4 1/2+x,1/2-y,-z
5 -x,-y,-z
6 1/2+x,y,1/2-z
7 x,1/2-y,1/2+z
8 1/2-x,1/2+y,z
_cell_length_a                   16.435(3)
_cell_length_b                   9.0777(18)
_cell_length_c                   24.428(5)
_cell_angle_alpha                90
_cell_angle_beta                 90
_cell_angle_gamma                90
_cell_volume                     3644.46
loop_
_atom_site_label
_atom_site_type_symbol
_atom_site_fract_x
_atom_site_fract_y
_atom_site_fract_z
O1 O 0.79007(16) 1.3984(3) 0.67176(13)
C1 C 0.8264(2) 1.2789(5) 0.66511(16)
O2 O 1.02458(17) 0.6568(3) 0.60238(12)
O3 O 1.02375(16) 0.8479(3) 0.54583(11)
C2 C 0.9970(2) 0.7256(4) 0.56326(15)
C3 C 0.9263(2) 0.6614(4) 0.53172(16)
H1 H 0.8891 0.6153 0.5573
H2 H 0.9466 0.5854 0.5074
C4 C 0.8795(2) 0.7753(4) 0.49793(15)
O4 O 0.78173(15) 0.9077(3) 0.41119(11)
C5 C 0.7590(2) 0.7863(4) 0.42919(15)
C6 C 0.8100(2) 0.6976(4) 0.46872(16)
H3 H 0.8328 0.6148 0.4488
H4 H 0.7740 0.6575 0.4964
C7 C 0.9631(2) 1.1459(4) 0.68093(15)
C8 C 1.0557(2) 1.1746(4) 0.68169(16)
H5 H 1.0703 1.2273 0.6486
H6 H 1.0682 1.2380 0.7125
Co1 Co 0.88056(3) 1.20419(6) 0.84549(2)
Co2 Co 0.83017(3) 0.94226(6) 0.65915(2)
Co3 Co 0.87421(3) 1.04173(5) 0.43480(2)
O5 O 0.8421(2) 0.9855(3) 0.84611(14)
O6 O 0.88066(17) 0.9920(3) 0.73758(11)
O7 O 0.84590(17) 1.0276(3) 0.51540(11)
O8 O 0.79144(16) 1.1583(3) 0.65747(13)
O9 O 0.95415(17) 1.1667(3) 0.77798(11)
O10 O 1.16339(19) 1.0311(3) 0.71810(13)
O11 O 0.82200(18) 0.8631(3) 0.58051(11)
C9 C 0.8469(2) 0.9005(4) 0.53448(15)
O12 O 0.7826(2) 1.2560(4) 0.79388(14)
C10 C 0.9189(2) 1.2881(4) 0.66579(18)
H7 H 0.9348 1.3641 0.6916
H8 H 0.9372 1.3188 0.6298
C11 C 1.1074(2) 1.0388(4) 0.68564(15)
C12 C 0.9307(2) 1.0955(4) 0.73693(16)
O13 O 0.94324(15) 1.0377(3) 0.64030(10)
O14 O 0.69271(15) 0.7290(3) 0.41359(11)
O15 O 1.09050(15) 0.9333(3) 0.65086(10)
O16 O 0.93228(15) 0.8384(3) 0.45657(10)
H9 H 0.754(3) 1.204(5) 0.7856(18)
H10 H 0.842(3) 0.966(6) 0.811(2)
H11 H 0.792(4) 1.335(7) 0.781(3)
H12 H 0.804(3) 0.982(6) 0.858(2)
O17 O 0.8692(3) 0.7259(4) 0.67718(16)
H13 H 0.906(4) 0.696(7) 0.683(3)
H14 H 0.839(5) 0.663(9) 0.679(3)
O1G O 0.70993(16) 0.8984(3) 0.67176(13)
O2B O 0.97542(17) 1.1568(3) 0.89762(12)
O3D O 0.97625(16) 1.1521(3) 0.45417(11)
Co1A Co 0.61944(3) 0.79581(6) 0.34549(2)
Co1B Co 1.11944(3) 0.70419(6) 0.65451(2)
Co2G Co 0.66983(3) 1.44226(6) 0.65915(2)
Co3D Co 1.12579(3) 0.95827(5) 0.56520(2)
Co3G Co 0.62579(3) 0.54173(5) 0.43480(2)
O14A O 0.80729(15) 1.2710(3) 0.91359(11)
O14G O 0.80729(15) 1.2290(3) 0.41359(11)
O15B O 0.90950(15) 1.4333(3) 0.84914(10)
O15D O 0.90950(15) 1.0667(3) 0.34914(10)
O18 O 0.8502(5) 0.1636(8) 0.0380(3)
loop_
_geom_bond_atom_site_label_1
_geom_bond_atom_site_label_2
_geom_bond_site_symmetry_1
_geom_bond_site_symmetry_2
O1 C1 1_555 1_555
C1 O8 1_555 1_555
O2 C2 1_555 1_555
O3 C2 1_555 1_555
C2 C3 1_555 1_555
C3 H1 1_555 1_555
H2 C3 1_555 1_555
C4 C3 1_555 1_555
O4 C5 1_555 1_555
C5 C6 1_555 1_555
C6 C4 1_555 1_555
H3 C6 1_555 1_555
H4 C6 1_555 1_555
C7 C8 1_555 1_555
C8 H5 1_555 1_555
H6 C8 1_555 1_555
Co1 O5 1_555 1_555
Co2 O6 1_555 1_555
Co3 O4 1_555 1_555
O5 H10 1_555 1_555
O6 C12 1_555 1_555
O7 Co3 1_555 1_555
O8 Co2 1_555 1_555
O9 Co1 1_555 1_555
O10 C11 1_555 1_555
O11 Co2 1_555 1_555
C9 C4 1_555 1_555
O12 Co1 1_555 1_555
C10 C1 1_555 1_555
H7 C10 1_555 1_555
H8 C10 1_555 1_555
C11 C8 1_555 1_555
C12 C7 1_555 1_555
O13 C7 1_555 1_555
O14 C5 1_555 1_555
O15 C11 1_555 1_555
O16 C4 1_555 1_555
H9 O12 1_555 1_555
H11 O12 1_555 1_555
H12 O5 1_555 1_555
O17 Co2 1_555 1_555
H13 O17 1_555 1_555
H14 O17 1_555 1_555
O1G Co2 1_555 1_555
O2B Co1 1_555 1_555
O3D Co3 1_555 1_555
Co1A O14 1_555 1_555
Co1B O2 1_555 1_555
Co2G O1 1_555 1_555
Co3D O3 1_555 1_555
Co3G O14 1_555 1_555
O14A Co1 1_555 1_555
O14G Co3 1_555 1_555
O15B Co1 1_555 1_555
O15D Co3 1_555 1_555
C7 C10 1_555 1_555
Co2 O13 1_555 1_555
Co3 O16 1_555 1_555
O7 C9 1_555 1_555
O9 C12 1_555 1_555
O11 C9 1_555 1_555
O15 Co1B 1_555 1_555
O15 Co3D 1_555 1_555

#END
