
#######################################################################
#
#                 Cambridge Crystallographic Data Centre
#                                CCDC 
#
#######################################################################
#
# If this CIF has been generated from an entry in the Cambridge 
# Structural Database, then it will include bibliographic, chemical, 
# crystal, experimental, refinement or atomic coordinate data resulting 
# from the CCDC's data processing and validation procedures.
#
#######################################################################

data_DINNIZ
_symmetry_cell_setting           monoclinic
_symmetry_space_group_name_H-M   'P 21/c'
_symmetry_Int_Tables_number      14
_space_group_name_Hall           '-P 2ybc'
loop_
_symmetry_equiv_pos_site_id
_symmetry_equiv_pos_as_xyz
1 x,y,z
2 -x,1/2+y,1/2-z
3 -x,-y,-z
4 x,1/2-y,1/2+z
_cell_length_a                   14.368(3)
_cell_length_b                   13.606(3)
_cell_length_c                   26.886(8)
_cell_angle_alpha                90
_cell_angle_beta                 120.57(2)
_cell_angle_gamma                90
_cell_volume                     4525.44
loop_
_atom_site_label
_atom_site_type_symbol
_atom_site_fract_x
_atom_site_fract_y
_atom_site_fract_z
Mn1 Mn 0.13261(9) -0.21867(8) -0.33801(5)
Mn2 Mn -0.21436(9) -0.48594(8) -0.36655(5)
Mn3 Mn -0.21505(9) -0.00157(7) -0.74553(5)
Mn4 Mn -0.12475(9) -0.25283(7) -0.38958(5)
O1 O 0.0643(5) -0.2297(4) -0.4293(2)
O2 O -0.1094(5) -0.2604(5) -0.4640(3)
O3 O -0.2187(4) 0.0822(4) -0.6733(2)
O4 O -0.2527(5) -0.0747(4) -0.6829(2)
O5 O -0.3038(5) -0.2105(4) -0.4461(3)
O6 O -0.2574(4) -0.3647(4) -0.4261(2)
O7 O -0.0489(5) -0.4827(4) -0.3459(3)
O8 O 0.0226(4) -0.3395(3) -0.3463(2)
O9 O 0.1934(4) -0.8855(3) -0.2049(2)
O10 O 0.1405(5) -0.7456(4) -0.1845(3)
O11 O 0.1862(4) -0.2270(4) -0.2460(2)
O12 O 0.1699(4) -0.0913(3) -0.2051(2)
O13 O 0.2837(5) -0.2915(4) -0.3162(3)
O14 O -0.2404(5) -0.5801(4) -0.4399(2)
N1 N 0.4640(8) -0.2886(8) -0.2618(5)
N2 N -0.2166(7) -0.5973(6) -0.5160(3)
C1 C -0.0303(9) -0.2450(6) -0.4697(4)
C2 C -0.0497(10) -0.2434(9) -0.5306(4)
H1 H 0.0155 -0.2650 -0.5297
H2 H -0.1069 -0.2895 -0.5541
C3 C -0.0791(12) -0.1475(11) -0.5568(5)
H3 H -0.0148 -0.1071 -0.5367
H4 H -0.0936 -0.1552 -0.5960
C4 C -0.1661(14) -0.0905(10) -0.5606(5)
H5 H -0.2281 -0.1340 -0.5762
H6 H -0.1469 -0.0764 -0.5212
C5 C -0.2037(12) -0.0011(7) -0.5912(4)
H7 H -0.1500 0.0491 -0.5699
H8 H -0.2689 0.0174 -0.5912
C6 C -0.2284(7) 0.0010(6) -0.6529(4)
C7 C -0.3304(7) -0.2995(7) -0.4507(4)
C8 C -0.4468(7) -0.3350(9) -0.4860(5)
H9 H -0.4477 -0.4063 -0.4859
H10 H -0.4868 -0.3123 -0.4680
C9 C -0.5014(10) -0.2993(10) -0.5468(6)
H11 H -0.5759 -0.3215 -0.5661
H12 H -0.5026 -0.2281 -0.5460
C10 C -0.4566(11) -0.3281(14) -0.5816(7)
H13 H -0.4876 -0.2845 -0.6147
H14 H -0.3801 -0.3128 -0.5593
C11 C -0.4646(7) -0.4244(8) -0.6034(4)
H15 H -0.4245 -0.4686 -0.5711
H16 H -0.4303 -0.4253 -0.6265
C12 C 0.0295(6) -0.4314(5) -0.3385(3)
C13 C 0.1366(7) -0.4776(6) -0.3203(4)
H17 H 0.1877 -0.4558 -0.2814
H18 H 0.1617 -0.4531 -0.3453
C14 C 0.1390(8) -0.5902(6) -0.3213(4)
H19 H 0.0749 -0.6135 -0.3558
H20 H 0.2015 -0.6112 -0.3233
C15 C 0.1436(7) -0.6364(5) -0.2692(3)
H21 H 0.0778 -0.6205 -0.2692
H22 H 0.2038 -0.6086 -0.2346
C16 C 0.1566(7) -0.7496(5) -0.2678(3)
H23 H 0.0955 -0.7777 -0.3020
H24 H 0.2215 -0.7656 -0.2687
C17 C 0.1637(6) -0.7951(5) -0.2148(3)
C18 C 0.1740(5) -0.1850(5) -0.2082(3)
C19 C 0.1654(6) -0.2423(5) -0.1630(3)
H25 H 0.1042 -0.2167 -0.1611
H26 H 0.2297 -0.2289 -0.1260
C20 C 0.1526(6) -0.3531(5) -0.1700(3)
H27 H 0.0824 -0.3688 -0.2030
H28 H 0.2076 -0.3798 -0.1769
C21 C 0.1631(7) -0.3988(5) -0.1161(3)
H29 H 0.2351 -0.3853 -0.0841
H30 H 0.1121 -0.3666 -0.1079
C22 C 0.1440(6) -0.5081(5) -0.1187(4)
H31 H 0.1813 -0.5386 -0.1362
H32 H 0.1770 -0.5325 -0.0794
C23 C 0.3689(8) -0.2549(7) -0.2787(5)
H33 H 0.3643 -0.1979 -0.2610
C24 C 0.4772(14) -0.3760(16) -0.2887(9)
H34 H 0.4076 -0.4040 -0.3146
H35 H 0.5206 -0.4232 -0.2594
H36 H 0.5122 -0.3587 -0.3098
C25 C 0.5676(11) -0.2384(14) -0.2194(7)
H37 H 0.5518 -0.1827 -0.2030
H38 H 0.6045 -0.2169 -0.2388
H39 H 0.6127 -0.2836 -0.1892
C26 C -0.2102(8) -0.5505(7) -0.4719(4)
H40 H -0.1795 -0.4882 -0.4643
C27 C -0.2660(11) -0.6964(10) -0.5287(6)
H41 H -0.2834 -0.7140 -0.4997
H42 H -0.2160 -0.7433 -0.5285
H43 H -0.3308 -0.6961 -0.5659
C28 C -0.1815(10) -0.5541(9) -0.5531(5)
H44 H -0.1492 -0.4911 -0.5381
H45 H -0.2426 -0.5460 -0.5914
H46 H -0.1294 -0.5964 -0.5545
O15 O -0.6196(5) -0.4642(4) -0.6931(2)
O16 O -0.6236(5) -0.4903(5) -0.6121(3)
C29 C -0.5789(6) -0.4634(6) -0.6399(4)
O17 O 0.0119(4) -0.6332(3) -0.1463(2)
O18 O -0.0443(4) -0.4814(3) -0.1798(2)
C30 C 0.0286(6) -0.5415(5) -0.1509(3)
Mn1A Mn -0.13261(9) -0.71867(8) -0.16199(5)
Mn1B Mn -0.13261(9) 0.21867(8) -0.66199(5)
Mn2A Mn 0.21436(9) -0.98594(8) -0.13345(5)
Mn2A_2 Mn 0.21436(9) 0.01406(8) -0.13345(5)
Mn2B Mn -0.78564(9) -0.51406(8) -0.63345(5)
Mn3A Mn -0.78495(9) -0.50157(7) -0.75447(5)
Mn3B Mn 0.21505(9) -0.99843(7) -0.25447(5)
Mn3B_2 Mn 0.21505(9) 0.00157(7) -0.25447(5)
Mn3C Mn -0.21505(9) -0.49843(7) -0.24553(5)
Mn4A Mn 0.12475(9) -0.75283(7) -0.11042(5)
O3B O 0.2187(4) -0.0822(4) -0.3267(2)
O9A O -0.1934(4) -0.3855(3) -0.2951(2)
O9B O -0.1934(4) -0.1145(3) -0.7951(2)
O10A O -0.1405(5) -0.2456(4) -0.3155(3)
O12A O -0.1699(4) -0.5913(3) -0.2949(2)
O12B O -0.1699(4) 0.0913(3) -0.7949(2)
O15A O -0.3804(5) 0.0358(4) -0.8069(2)
O16B O -0.3764(5) -0.5097(5) -0.3879(3)
O17A O -0.0119(4) -0.1332(3) -0.3537(2)
O18C O -0.0443(4) -0.0186(3) -0.6798(2)
loop_
_geom_bond_atom_site_label_1
_geom_bond_atom_site_label_2
_geom_bond_site_symmetry_1
_geom_bond_site_symmetry_2
Mn1 O1 1_555 1_555
Mn2 O6 1_555 1_555
Mn3 O3 1_555 1_555
Mn4 O2 1_555 1_555
O1 C1 1_555 1_555
O2 C1 1_555 1_555
O3 C6 1_555 1_555
O4 Mn3 1_555 1_555
O5 Mn4 1_555 1_555
O6 Mn4 1_555 1_555
O7 Mn2 1_555 1_555
O8 Mn1 1_555 1_555
O9 C17 1_555 1_555
O10 C17 1_555 1_555
O11 Mn1 1_555 1_555
O12 C18 1_555 1_555
O13 Mn1 1_555 1_555
O14 Mn2 1_555 1_555
N1 C23 1_555 1_555
N2 C26 1_555 1_555
C1 C2 1_555 1_555
C2 H1 1_555 1_555
H2 C2 1_555 1_555
C3 C2 1_555 1_555
H3 C3 1_555 1_555
H4 C3 1_555 1_555
C4 C3 1_555 1_555
H5 C4 1_555 1_555
H6 C4 1_555 1_555
C5 C4 1_555 1_555
H7 C5 1_555 1_555
H8 C5 1_555 1_555
C6 O4 1_555 1_555
C7 O5 1_555 1_555
C8 C7 1_555 1_555
H9 C8 1_555 1_555
H10 C8 1_555 1_555
C9 C8 1_555 1_555
H11 C9 1_555 1_555
H12 C9 1_555 1_555
C10 C9 1_555 1_555
H13 C10 1_555 1_555
H14 C10 1_555 1_555
C11 C10 1_555 1_555
H15 C11 1_555 1_555
H16 C11 1_555 1_555
C12 O7 1_555 1_555
C13 C12 1_555 1_555
H17 C13 1_555 1_555
H18 C13 1_555 1_555
C14 C13 1_555 1_555
H19 C14 1_555 1_555
H20 C14 1_555 1_555
C15 C14 1_555 1_555
H21 C15 1_555 1_555
H22 C15 1_555 1_555
C16 C15 1_555 1_555
H23 C16 1_555 1_555
H24 C16 1_555 1_555
C17 C16 1_555 1_555
C18 O11 1_555 1_555
C19 C18 1_555 1_555
H25 C19 1_555 1_555
H26 C19 1_555 1_555
C20 C19 1_555 1_555
H27 C20 1_555 1_555
H28 C20 1_555 1_555
C21 C20 1_555 1_555
H29 C21 1_555 1_555
H30 C21 1_555 1_555
C22 C21 1_555 1_555
H31 C22 1_555 1_555
H32 C22 1_555 1_555
C23 O13 1_555 1_555
H33 C23 1_555 1_555
C24 N1 1_555 1_555
H34 C24 1_555 1_555
H35 C24 1_555 1_555
H36 C24 1_555 1_555
C25 N1 1_555 1_555
H37 C25 1_555 1_555
H38 C25 1_555 1_555
H39 C25 1_555 1_555
C26 O14 1_555 1_555
H40 C26 1_555 1_555
C27 N2 1_555 1_555
H41 C27 1_555 1_555
H42 C27 1_555 1_555
H43 C27 1_555 1_555
C28 N2 1_555 1_555
H44 C28 1_555 1_555
H45 C28 1_555 1_555
H46 C28 1_555 1_555
O15 C29 1_555 1_555
O16 C29 1_555 1_555
C29 C11 1_555 1_555
O17 C30 1_555 1_555
O18 C30 1_555 1_555
C30 C22 1_555 1_555
Mn1A O17 1_555 1_555
Mn1B O3 1_555 1_555
Mn2A O9 1_555 1_555
Mn2A_2 O12 1_555 1_555
Mn2B O16 1_555 1_555
Mn3A O15 1_555 1_555
Mn3B O9 1_555 1_555
Mn3B_2 O12 1_555 1_555
Mn3C O18 1_555 1_555
Mn4A O10 1_555 1_555
O3B Mn1 1_555 1_555
O9A Mn2 1_555 1_555
O9B Mn3 1_555 1_555
O10A Mn4 1_555 1_555
O12A Mn2 1_555 1_555
O12B Mn3 1_555 1_555
O15A Mn3 1_555 1_555
O16B Mn2 1_555 1_555
O17A Mn1 1_555 1_555
O18C Mn3 1_555 1_555
Mn4 O8 1_555 1_555
Mn4 O17A 1_555 1_555
O6 C7 1_555 1_555
O8 C12 1_555 1_555
C5 C6 1_555 1_555
O17 Mn4A 1_555 1_555
Mn3B_2 O3B 1_555 1_555
Mn3C O9A 1_555 1_555
Mn3C O12A 1_555 1_555

#END
