
#######################################################################
#
#                 Cambridge Crystallographic Data Centre
#                                CCDC 
#
#######################################################################
#
# If this CIF has been generated from an entry in the Cambridge 
# Structural Database, then it will include bibliographic, chemical, 
# crystal, experimental, refinement or atomic coordinate data resulting 
# from the CCDC's data processing and validation procedures.
#
#######################################################################

data_DINNOF
_symmetry_cell_setting           monoclinic
_symmetry_space_group_name_H-M   'C c'
_symmetry_Int_Tables_number      9
_space_group_name_Hall           'C -2yc'
loop_
_symmetry_equiv_pos_site_id
_symmetry_equiv_pos_as_xyz
1 x,y,z
2 x,-y,1/2+z
3 1/2+x,1/2+y,z
4 1/2+x,1/2-y,1/2+z
_cell_length_a                   12.642(3)
_cell_length_b                   21.462(4)
_cell_length_c                   8.8461(18)
_cell_angle_alpha                90
_cell_angle_beta                 125.20(3)
_cell_angle_gamma                90
_cell_volume                     1961.27
loop_
_atom_site_label
_atom_site_type_symbol
_atom_site_fract_x
_atom_site_fract_y
_atom_site_fract_z
O1 O 0.3224(2) 0.20899(11) 0.8560(3)
C1 C 0.4079(4) 0.23885(18) 0.8500(5)
C2 C 0.3653(3) 0.2637(2) 0.6634(5)
H1 H 0.3121 0.3003 0.6364
H2 H 0.3113 0.2326 0.5706
O2 O 0.5203(3) 0.24790(12) 0.9875(3)
O3 O 0.4543(2) 0.23561(13) 0.2760(3)
O4 O -0.3047(2) 0.16688(14) -0.6792(3)
O5 O -0.4687(3) 0.10550(14) -0.8825(4)
C3 C -0.3520(4) 0.1202(2) -0.7819(6)
C4 C -0.2605(4) 0.0775(2) -0.7945(6)
H3 H -0.2942 0.0354 -0.8175
H4 H -0.2613 0.0902 -0.9004
Mn1 Mn 0.12673(5) 0.23974(2) -0.21519(6)
Mn2 Mn 0.37595(5) 0.14805(3) 0.09327(7)
O6 O 0.2431(2) 0.22455(13) 0.0959(3)
O7 O 0.0659(2) 0.14566(13) -0.2609(4)
C5 C 0.3426(4) 0.25424(18) 0.2205(5)
O8 O 0.2323(3) 0.08315(14) -0.0738(4)
C6 C 0.4382(4) 0.3291(2) 0.4961(5)
H5 H 0.4177 0.3680 0.5298
H6 H 0.5133 0.3365 0.4946
C7 C -0.1215(4) 0.0767(2) -0.6258(6)
H7 H -0.0689 0.0547 -0.6559
H8 H -0.0899 0.1192 -0.5939
C8 C 0.3249(4) 0.31167(18) 0.3017(5)
H9 H 0.2492 0.3057 0.3026
H10 H 0.3070 0.3465 0.2204
C9 C 0.4742(4) 0.2810(2) 0.6451(5)
H11 H 0.5462 0.2971 0.7631
H12 H 0.5035 0.2435 0.6186
C10 C -0.1059(5) 0.0464(2) -0.4620(7)
H13 H -0.1506 0.0066 -0.4999
H14 H -0.1468 0.0723 -0.4196
N1 N 0.3719(5) 0.07838(18) 0.5453(6)
O9 O 0.4092(4) 0.10351(18) 0.3348(5)
C11 C 0.1177(4) 0.0935(2) -0.2057(6)
C12 C 0.0340(5) 0.0357(2) -0.3027(7)
H15 H 0.0747 0.0114 -0.3484
H16 H 0.0351 0.0106 -0.2106
C13 C 0.3396(6) 0.0996(3) 0.3831(8)
H17 H 0.2545 0.1126 0.2998
C14 C 0.2788(7) 0.0738(3) 0.5886(10)
H18 H 0.1974 0.0903 0.4879
H19 H 0.3087 0.0971 0.6989
H20 H 0.2681 0.0309 0.6077
C15 C 0.4968(8) 0.0570(4) 0.6753(10)
H21 H 0.5489 0.0632 0.6295
H22 H 0.4941 0.0134 0.6972
H23 H 0.5337 0.0796 0.7888
O1_2 O 0.3224(2) 0.20899(11) -0.1440(3)
O2C O 0.0203(3) 0.25210(12) -0.5125(3)
O3C O -0.0457(2) 0.26439(13) -0.2240(3)
O4C O 0.1953(2) 0.33312(14) -0.1792(3)
O5_2 O 0.5313(3) 0.10550(14) 0.1175(4)
Mn1_2 Mn 0.12673(5) 0.23974(2) 0.78481(6)
Mn1C Mn -0.37327(5) 0.26026(2) -0.71519(6)
Mn1C_2 Mn 0.62673(5) 0.26026(2) 0.28481(6)
Mn1C_3 Mn 0.62673(5) 0.26026(2) 1.28481(6)
Mn2_2 Mn -0.62405(5) 0.14805(3) -0.90673(7)
Mn2_3 Mn 0.37595(5) 0.14805(3) 1.09327(7)
loop_
_geom_bond_atom_site_label_1
_geom_bond_atom_site_label_2
_geom_bond_site_symmetry_1
_geom_bond_site_symmetry_2
O1 C1 1_555 1_555
C1 C2 1_555 1_555
C2 H1 1_555 1_555
H2 C2 1_555 1_555
O2 C1 1_555 1_555
O3 Mn2 1_555 1_555
O4 C3 1_555 1_555
O5 C3 1_555 1_555
C3 C4 1_555 1_555
C4 H3 1_555 1_555
H4 C4 1_555 1_555
Mn1 O6 1_555 1_555
Mn2 O6 1_555 1_555
O6 C5 1_555 1_555
O7 Mn1 1_555 1_555
C5 O3 1_555 1_555
O8 Mn2 1_555 1_555
C6 H5 1_555 1_555
H6 C6 1_555 1_555
C7 C4 1_555 1_555
H7 C7 1_555 1_555
H8 C7 1_555 1_555
C8 C5 1_555 1_555
H9 C8 1_555 1_555
H10 C8 1_555 1_555
C9 C2 1_555 1_555
H11 C9 1_555 1_555
H12 C9 1_555 1_555
C10 C7 1_555 1_555
H13 C10 1_555 1_555
H14 C10 1_555 1_555
N1 C13 1_555 1_555
O9 Mn2 1_555 1_555
C11 O7 1_555 1_555
C12 C10 1_555 1_555
H15 C12 1_555 1_555
H16 C12 1_555 1_555
C13 O9 1_555 1_555
H17 C13 1_555 1_555
C14 N1 1_555 1_555
H18 C14 1_555 1_555
H19 C14 1_555 1_555
H20 C14 1_555 1_555
C15 N1 1_555 1_555
H21 C15 1_555 1_555
H22 C15 1_555 1_555
H23 C15 1_555 1_555
O1_2 Mn1 1_555 1_555
O2C Mn1 1_555 1_555
O3C Mn1 1_555 1_555
O4C Mn1 1_555 1_555
O5_2 Mn2 1_555 1_555
Mn1_2 O1 1_555 1_555
Mn1C O4 1_555 1_555
Mn1C_2 O3 1_555 1_555
Mn1C_3 O2 1_555 1_555
Mn2_2 O5 1_555 1_555
Mn2_3 O1 1_555 1_555
Mn2 O1_2 1_555 1_555
O8 C11 1_555 1_555
C6 C8 1_555 1_555
C6 C9 1_555 1_555
C11 C12 1_555 1_555

#END
