
#######################################################################
#
#                 Cambridge Crystallographic Data Centre
#                                CCDC 
#
#######################################################################
#
# If this CIF has been generated from an entry in the Cambridge 
# Structural Database, then it will include bibliographic, chemical, 
# crystal, experimental, refinement or atomic coordinate data resulting 
# from the CCDC's data processing and validation procedures.
#
#######################################################################

data_DINNUL01
_symmetry_cell_setting           monoclinic
_symmetry_space_group_name_H-M   'P 21/c'
_symmetry_Int_Tables_number      14
_space_group_name_Hall           '-P 2ybc'
loop_
_symmetry_equiv_pos_site_id
_symmetry_equiv_pos_as_xyz
1 x,y,z
2 -x,1/2+y,1/2-z
3 -x,-y,-z
4 x,1/2-y,1/2+z
_cell_length_a                   8.9470(18)
_cell_length_b                   20.874(4)
_cell_length_c                   10.471(2)
_cell_angle_alpha                90
_cell_angle_beta                 100.02(3)
_cell_angle_gamma                90
_cell_volume                     1925.73
loop_
_atom_site_label
_atom_site_type_symbol
_atom_site_fract_x
_atom_site_fract_y
_atom_site_fract_z
Mn1 Mn 0.28992(4) 0.73947(2) 0.84709(4)
Mn2 Mn 0.34549(5) 0.85563(2) 1.10358(4)
O1 O 0.2553(2) 0.83442(9) 0.77313(19)
O2 O 0.2343(2) 0.90054(10) 0.93798(18)
O3 O 0.2756(2) 0.92178(10) 0.23030(19)
O4 O 0.3154(2) 0.85837(9) 0.40533(19)
C1 C 0.2070(3) 0.88449(13) 0.8195(3)
C2 C 0.1047(4) 0.92926(14) 0.7307(3)
H1 H 0.1190 0.9732 0.7661
H2 H -0.0021 0.9169 0.7312
C3 C 0.1309(3) 0.93009(14) 0.5906(3)
H3 H 0.1294 0.8855 0.5581
H4 H 0.0466 0.9535 0.5367
C4 C 0.2807(4) 0.96130(14) 0.5752(3)
H5 H 0.3657 0.9337 0.6160
H6 H 0.2903 1.0030 0.6209
C5 C 0.2925(4) 0.97202(14) 0.4325(3)
H7 H 0.2059 0.9990 0.3925
H8 H 0.3865 0.9965 0.4291
C6 C 0.2939(3) 0.91220(13) 0.3510(3)
O5 O 0.1005(2) 0.75023(10) 0.95037(19)
O6 O 0.1664(2) 0.79094(9) 1.14975(17)
O7 O -0.5519(2) 0.77017(9) 1.01978(18)
O8 O -0.5199(2) 0.77328(10) 1.23258(18)
C7 C 0.0788(3) 0.75835(13) 1.0637(3)
C8 C -0.0594(3) 0.72757(14) 1.1047(3)
H9 H -0.0823 0.7505 1.1818
H10 H -0.0341 0.6827 1.1309
C9 C -0.2016(3) 0.72754(14) 1.0002(3)
H11 H -0.1716 0.7201 0.9147
H12 H -0.2501 0.7703 0.9978
C10 C -0.3173(3) 0.67667(13) 1.0220(3)
H13 H -0.2656 0.6346 1.0328
H14 H -0.3966 0.6742 0.9434
C11 C -0.3945(3) 0.68853(13) 1.1394(3)
H15 H -0.4565 0.6505 1.1518
H16 H -0.3149 0.6927 1.2175
C12 C -0.4943(3) 0.74663(13) 1.1304(3)
O9 O 0.5595(2) 0.90365(11) 1.1266(2)
N1 N 0.8042(3) 0.90907(12) 1.1053(3)
C13 C 0.6568(3) 0.91514(14) 1.0575(3)
C14 C 0.6104(4) 0.93753(17) 0.9197(3)
H17 H 0.5002 0.9333 0.8938
H18 H 0.6614 0.9114 0.8624
H19 H 0.6394 0.9825 0.9130
C15 C 0.9224(4) 0.92112(18) 1.0289(3)
H20 H 0.9356 0.8831 0.9772
H21 H 1.0180 0.9308 1.0870
H22 H 0.8933 0.9576 0.9711
C16 C 0.8528(4) 0.88452(17) 1.2371(3)
H23 H 0.8793 0.9205 1.2970
H24 H 0.9417 0.8568 1.2392
H25 H 0.7701 0.8598 1.2634
Mn1_2 Mn -0.71008(4) 0.73947(2) 0.84709(4)
Mn1C Mn -0.71008(4) 0.76053(2) 1.34709(4)
Mn1C_2 Mn 0.28992(4) 0.76053(2) 0.34709(4)
Mn1C_3 Mn 0.28992(4) 0.76053(2) 1.34709(4)
Mn2_2 Mn -0.65451(5) 0.85563(2) 1.10358(4)
Mn2_3 Mn 0.34549(5) 0.85563(2) 0.10358(4)
O3_2 O 0.2756(2) 0.92178(10) 1.23030(19)
O4C O 0.3154(2) 0.64163(9) 0.90533(19)
O6C O 0.1664(2) 0.70906(9) 0.64975(17)
O7_2 O 0.4481(2) 0.77017(9) 1.01978(18)
O8_2 O 0.4801(2) 0.77328(10) 1.23258(18)
O8C O 0.4801(2) 0.72672(10) 0.73258(18)
loop_
_geom_bond_atom_site_label_1
_geom_bond_atom_site_label_2
_geom_bond_site_symmetry_1
_geom_bond_site_symmetry_2
Mn1 O1 1_555 1_555
Mn2 O2 1_555 1_555
O1 C1 1_555 1_555
O2 C1 1_555 1_555
O3 C6 1_555 1_555
O4 C6 1_555 1_555
C1 C2 1_555 1_555
C2 H1 1_555 1_555
H2 C2 1_555 1_555
C3 C2 1_555 1_555
H3 C3 1_555 1_555
H4 C3 1_555 1_555
C4 C3 1_555 1_555
H5 C4 1_555 1_555
H6 C4 1_555 1_555
C5 C4 1_555 1_555
H7 C5 1_555 1_555
H8 C5 1_555 1_555
C6 C5 1_555 1_555
O5 Mn1 1_555 1_555
O6 Mn2 1_555 1_555
O7 C12 1_555 1_555
O8 C12 1_555 1_555
C7 O5 1_555 1_555
C8 C7 1_555 1_555
H9 C8 1_555 1_555
H10 C8 1_555 1_555
C9 C8 1_555 1_555
H11 C9 1_555 1_555
H12 C9 1_555 1_555
C10 C9 1_555 1_555
H13 C10 1_555 1_555
H14 C10 1_555 1_555
C11 C10 1_555 1_555
H15 C11 1_555 1_555
H16 C11 1_555 1_555
C12 C11 1_555 1_555
O9 Mn2 1_555 1_555
N1 C13 1_555 1_555
C13 O9 1_555 1_555
C14 C13 1_555 1_555
H17 C14 1_555 1_555
H18 C14 1_555 1_555
H19 C14 1_555 1_555
C15 N1 1_555 1_555
H20 C15 1_555 1_555
H21 C15 1_555 1_555
H22 C15 1_555 1_555
C16 N1 1_555 1_555
H23 C16 1_555 1_555
H24 C16 1_555 1_555
H25 C16 1_555 1_555
Mn1_2 O7 1_555 1_555
Mn1C O8 1_555 1_555
Mn1C_2 O4 1_555 1_555
Mn1C_3 O6 1_555 1_555
Mn2_2 O7 1_555 1_555
Mn2_3 O3 1_555 1_555
O3_2 Mn2 1_555 1_555
O4C Mn1 1_555 1_555
O6C Mn1 1_555 1_555
O7_2 Mn1 1_555 1_555
O8_2 Mn2 1_555 1_555
O8C Mn1 1_555 1_555
Mn2 O7_2 1_555 1_555
O6 C7 1_555 1_555
O8 Mn2_2 1_555 1_555
Mn1C_3 O8_2 1_555 1_555

#END
