
#######################################################################
#
#                 Cambridge Crystallographic Data Centre
#                                CCDC 
#
#######################################################################
#
# If this CIF has been generated from an entry in the Cambridge 
# Structural Database, then it will include bibliographic, chemical, 
# crystal, experimental, refinement or atomic coordinate data resulting 
# from the CCDC's data processing and validation procedures.
#
#######################################################################

data_DINQUM
_symmetry_cell_setting           monoclinic
_symmetry_space_group_name_H-M   'P 2/c'
_symmetry_Int_Tables_number      13
_space_group_name_Hall           '-P 2yc'
loop_
_symmetry_equiv_pos_site_id
_symmetry_equiv_pos_as_xyz
1 x,y,z
2 x,-y,1/2+z
3 -x,-y,-z
4 -x,y,1/2-z
_cell_length_a                   8.506(4)
_cell_length_b                   6.609(4)
_cell_length_c                   13.895(7)
_cell_angle_alpha                90
_cell_angle_beta                 96.78(4)
_cell_angle_gamma                90
_cell_volume                     775.661
loop_
_atom_site_label
_atom_site_type_symbol
_atom_site_fract_x
_atom_site_fract_y
_atom_site_fract_z
Br1 Br 0.5000 0.0202(2) -0.2500
Br2 Br 0.16617(8) 0.47645(10) -0.33797(5)
Cu1 Cu 0.0000 0.2472(2) -0.2500
Cu2 Cu 0.40857(11) 0.28222(13) -0.36741(6)
N1 N 0.3070(6) 0.1155(8) -0.4888(4)
N2 N 0.1129(6) -0.0794(8) -0.6381(4)
N3 N 0.5689(7) 0.4795(9) -0.3905(4)
C1 C 0.2760(8) 0.1946(9) -0.5784(4)
C2 C 0.1793(7) 0.1008(9) -0.6514(5)
H1 H 0.1595(7) 0.1640(9) -0.7114(5)
C3 C 0.1450(8) -0.1614(10) -0.5497(5)
H2 H 0.1021(8) -0.2870(10) -0.5376(5)
C4 C 0.2404(8) -0.0647(10) -0.4756(5)
H3 H 0.2586(8) -0.1267(10) -0.4152(5)
C5 C 0.6425(8) 0.6191(11) -0.4039(5)
Br2C Br -0.16617(8) 0.47645(10) -0.16203(5)
Cu2C Cu -0.40857(11) 0.28222(13) -0.13259(6)
N2B N -0.1129(6) 0.0794(8) -0.3619(4)
Cu2C_2 Cu 0.59143(11) 0.28222(13) -0.13259(6)
C5B C 0.3575(8) 0.3809(11) -0.5961(5)
C1B C 0.7240(8) 0.8054(9) -0.4216(4)
Br2C_2 Br 0.83383(8) 0.47645(10) -0.16203(5)
N1C N 0.6930(6) 0.1155(8) -0.0112(4)
N3C N 0.4311(7) 0.4795(9) -0.1095(4)
N2A N 0.1129(6) 0.0794(8) -0.1381(4)
N3B N 0.4311(7) 0.5205(9) -0.6095(4)
N1B N 0.6930(6) 0.8845(8) -0.5112(4)
C2B C 0.8207(7) 0.8992(9) -0.3486(5)
Cu1A Cu 0.0000 -0.2472(2) -0.7500
Cu2B Cu 0.59143(11) 0.71778(13) -0.63259(6)
C4B C 0.7596(8) 1.0647(10) -0.5244(5)
N2B_2 N 0.8871(6) 1.0794(8) -0.3619(4)
H1B H 0.8405(7) 0.8360(9) -0.2886(5)
C3B C 0.8550(8) 1.1614(10) -0.4503(5)
H3B H 0.7414(8) 1.1267(10) -0.5848(5)
Cu1_2 Cu 1.0000 1.2472(2) -0.2500
H2B H 0.8979(8) 1.2870(10) -0.4624(5)
loop_
_geom_bond_atom_site_label_1
_geom_bond_atom_site_label_2
_geom_bond_site_symmetry_1
_geom_bond_site_symmetry_2
Br1 Cu2 1_555 1_555
Br2 Cu1 1_555 1_555
Cu1 Br2C 1_555 1_555
Cu2 Br2 1_555 1_555
N1 Cu2 1_555 1_555
N2 C2 1_555 1_555
N3 Cu2 1_555 1_555
C1 N1 1_555 1_555
C2 C1 1_555 1_555
H1 C2 1_555 1_555
C3 N2 1_555 1_555
H2 C3 1_555 1_555
C4 N1 1_555 1_555
H3 C4 1_555 1_555
C5 N3 1_555 1_555
Br2C Cu2C 1_555 1_555
N2B Cu1 1_555 1_555
Cu2C_2 Br1 1_555 1_555
C5B C1 1_555 1_555
C1B C5 1_555 1_555
Br2C_2 Cu2C_2 1_555 1_555
N1C Cu2C_2 1_555 1_555
N3C Cu2C_2 1_555 1_555
N2A Cu1 1_555 1_555
N3B C5B 1_555 1_555
N1B C1B 1_555 1_555
C2B C1B 1_555 1_555
Cu1A N2 1_555 1_555
Cu2B N3B 1_555 1_555
C4B N1B 1_555 1_555
N2B_2 C2B 1_555 1_555
H1B C2B 1_555 1_555
C3B C4B 1_555 1_555
H3B C4B 1_555 1_555
Cu1_2 N2B_2 1_555 1_555
H2B C3B 1_555 1_555
C3 C4 1_555 1_555
N1B Cu2B 1_555 1_555
N2B_2 C3B 1_555 1_555

#END
