
#######################################################################
#
#                 Cambridge Crystallographic Data Centre
#                                CCDC 
#
#######################################################################
#
# If this CIF has been generated from an entry in the Cambridge 
# Structural Database, then it will include bibliographic, chemical, 
# crystal, experimental, refinement or atomic coordinate data resulting 
# from the CCDC's data processing and validation procedures.
#
#######################################################################

data_DINQOG
_symmetry_cell_setting           monoclinic
_symmetry_space_group_name_H-M   'P 21/m'
_symmetry_Int_Tables_number      11
_space_group_name_Hall           '-P 2yb'
loop_
_symmetry_equiv_pos_site_id
_symmetry_equiv_pos_as_xyz
1 x,y,z
2 x,1/2-y,z
3 -x,-y,-z
4 -x,1/2+y,-z
_cell_length_a                   7.2950(15)
_cell_length_b                   4.0990(8)
_cell_length_c                   12.590(3)
_cell_angle_alpha                90
_cell_angle_beta                 96.26(3)
_cell_angle_gamma                90
_cell_volume                     374.224
loop_
_atom_site_label
_atom_site_type_symbol
_atom_site_fract_x
_atom_site_fract_y
_atom_site_fract_z
I1 I 0.20458(6) 0.2500 0.40739(3)
Cu1 Cu 0.01904(13) 0.2500 0.57427(7)
N1 N 0.2080(9) 0.2500 0.7085(4)
C1 C 0.2784(10) 0.2500 0.8970(5)
N2 N 0.4566(10) 0.2500 0.8935(5)
C2 C 0.1516(10) 0.2500 0.8061(5)
H1 H 0.0261(10) 0.2500 0.8132(5)
C3 C 0.3863(10) 0.2500 0.7034(6)
H2 H 0.4305(10) 0.2500 0.6369(6)
N3 N 0.1529(12) 0.2500 1.0796(6)
C4 C 0.2109(11) 0.2500 0.9994(6)
C5 C 0.5116(12) 0.2500 0.7953(7)
H3 H 0.6372(12) 0.2500 0.7883(7)
I1B I -0.20458(6) -0.2500 0.59261(3)
Cu1B Cu -0.01904(13) -0.2500 0.42573(7)
Cu1B_2 Cu -0.01904(13) 0.7500 0.42573(7)
I1B_2 I -0.20458(6) 0.7500 0.59261(3)
loop_
_geom_bond_atom_site_label_1
_geom_bond_atom_site_label_2
_geom_bond_site_symmetry_1
_geom_bond_site_symmetry_2
I1 Cu1 1_555 1_555
Cu1 N1 1_555 1_555
N1 C2 1_555 1_555
C1 N2 1_555 1_555
N2 C5 1_555 1_555
C2 C1 1_555 1_555
H1 C2 1_555 1_555
C3 N1 1_555 1_555
H2 C3 1_555 1_555
N3 C4 1_555 1_555
C4 C1 1_555 1_555
C5 C3 1_555 1_555
H3 C5 1_555 1_555
I1B Cu1 1_555 1_555
Cu1B I1 1_555 1_555
Cu1B_2 I1 1_555 1_555
I1B_2 Cu1 1_555 1_555
I1B Cu1B 1_555 1_555
Cu1B_2 I1B_2 1_555 1_555

#END
