
#######################################################################
#
#                 Cambridge Crystallographic Data Centre
#                                CCDC 
#
#######################################################################
#
# If this CIF has been generated from an entry in the Cambridge 
# Structural Database, then it will include bibliographic, chemical, 
# crystal, experimental, refinement or atomic coordinate data resulting 
# from the CCDC's data processing and validation procedures.
#
#######################################################################

data_DINTAX
_symmetry_cell_setting           monoclinic
_symmetry_space_group_name_H-M   'C 2/c'
_symmetry_Int_Tables_number      15
_space_group_name_Hall           '-C 2yn'
loop_
_symmetry_equiv_pos_site_id
_symmetry_equiv_pos_as_xyz
1 x,y,z
2 -x,y,1/2-z
3 1/2+x,1/2+y,z
4 1/2-x,1/2+y,1/2-z
5 -x,-y,-z
6 x,-y,1/2+z
7 1/2-x,1/2-y,-z
8 1/2+x,1/2-y,1/2+z
_cell_length_a                   19.141(3)
_cell_length_b                   13.3566(17)
_cell_length_c                   15.726(2)
_cell_angle_alpha                90
_cell_angle_beta                 103.586(2)
_cell_angle_gamma                90
_cell_volume                     3907.99
loop_
_atom_site_label
_atom_site_type_symbol
_atom_site_fract_x
_atom_site_fract_y
_atom_site_fract_z
O1 O 0.5000 0.8171(9) 0.7500
O2 O 0.4514(2) 0.7141(3) 0.5891(2)
Zn1 Zn 0.36275(3) 0.75467(4) 0.15125(3)
N1 N 0.4017(2) 0.6375(3) 0.2397(2)
O3 O 0.25724(19) 0.7793(3) 0.1302(2)
H1 H 0.2432 0.7628 0.1736
N2 N 0.3492(2) 0.6195(3) 0.0715(2)
N3 N 0.3949(2) 1.1422(3) 0.5736(2)
N4 N 0.3940(2) 0.9207(3) 0.3106(2)
N5 N 0.3161(2) 0.5903(3) -0.0118(2)
N6 N 0.4304(2) 0.8102(3) 0.4218(2)
N7 N 0.3455(2) 0.4519(3) 0.0709(2)
N8 N 0.3993(2) 0.8275(3) 0.2757(2)
C1 C 0.4092(2) 0.9874(3) 0.4584(3)
C2 C 0.4129(2) 0.9062(3) 0.3977(3)
C3 C 0.3655(3) 0.5358(3) 0.1174(3)
C4 C 0.3970(3) 0.5428(3) 0.2122(3)
C5 C 0.2828(3) 0.4274(3) -0.0841(3)
N9 N 0.2264(2) 0.3038(4) -0.2284(3)
C6 C 0.4015(3) 1.0465(3) 0.5998(3)
H2 H 0.4018 1.0323 0.6578
C7 C 0.4079(3) 0.9684(3) 0.5453(3)
H3 H 0.4113 0.9030 0.5662
C8 C 0.4263(2) 0.6584(3) 0.3254(3)
C9 C 0.4065(3) 1.0878(3) 0.4328(3)
H4 H 0.4101 1.1046 0.3766
C10 C 0.2792(3) 0.3240(4) -0.0749(3)
H5 H 0.2955 0.2944 -0.0203
C11 C 0.3151(3) 0.4894(3) -0.0093(3)
C12 C 0.4215(3) 0.7660(3) 0.3432(3)
C13 C 0.4499(3) 0.5832(3) 0.3860(3)
H6 H 0.4683 0.5982 0.4448
C14 C 0.2569(3) 0.4658(4) -0.1672(3)
H7 H 0.2577 0.5345 -0.1763
C15 C 0.4182(3) 0.4639(4) 0.2690(3)
H8 H 0.4144 0.3982 0.2489
C16 C 0.4453(3) 0.4850(3) 0.3566(3)
H9 H 0.4605 0.4330 0.3960
C17 C 0.2302(3) 0.4033(4) -0.2361(3)
H10 H 0.2137 0.4315 -0.2913
C18 C 0.3985(3) 1.1612(3) 0.4903(3)
H11 H 0.3954 1.2273 0.4712
C19 C 0.2510(3) 0.2652(4) -0.1477(4)
H12 H 0.2490 0.1962 -0.1405
Zn1E Zn 0.36275(3) 1.24533(4) 0.65125(3)
N3E N 0.3949(2) 0.8578(3) 0.0736(2)
loop_
_geom_bond_atom_site_label_1
_geom_bond_atom_site_label_2
_geom_bond_site_symmetry_1
_geom_bond_site_symmetry_2
Zn1 N1 1_555 1_555
N1 C4 1_555 1_555
O3 Zn1 1_555 1_555
H1 O3 1_555 1_555
N2 Zn1 1_555 1_555
N3 C6 1_555 1_555
N4 N8 1_555 1_555
N5 N2 1_555 1_555
N6 C2 1_555 1_555
N7 C3 1_555 1_555
N8 Zn1 1_555 1_555
C1 C2 1_555 1_555
C2 N4 1_555 1_555
C3 N2 1_555 1_555
C4 C3 1_555 1_555
C5 C10 1_555 1_555
N9 C17 1_555 1_555
C6 H2 1_555 1_555
C7 C1 1_555 1_555
H3 C7 1_555 1_555
C8 N1 1_555 1_555
C9 C1 1_555 1_555
H4 C9 1_555 1_555
C10 H5 1_555 1_555
C11 N5 1_555 1_555
C12 N6 1_555 1_555
C13 C8 1_555 1_555
H6 C13 1_555 1_555
C14 C5 1_555 1_555
H7 C14 1_555 1_555
C15 C4 1_555 1_555
H8 C15 1_555 1_555
C16 C13 1_555 1_555
H9 C16 1_555 1_555
C17 C14 1_555 1_555
H10 C17 1_555 1_555
C18 N3 1_555 1_555
H11 C18 1_555 1_555
C19 N9 1_555 1_555
H12 C19 1_555 1_555
Zn1E N3 1_555 1_555
N3E Zn1 1_555 1_555
N7 C11 1_555 1_555
N8 C12 1_555 1_555
C5 C11 1_555 1_555
C6 C7 1_555 1_555
C8 C12 1_555 1_555
C9 C18 1_555 1_555
C10 C19 1_555 1_555
C15 C16 1_555 1_555

#END
