
#######################################################################
#
#                 Cambridge Crystallographic Data Centre
#                                CCDC 
#
#######################################################################
#
# If this CIF has been generated from an entry in the Cambridge 
# Structural Database, then it will include bibliographic, chemical, 
# crystal, experimental, refinement or atomic coordinate data resulting 
# from the CCDC's data processing and validation procedures.
#
#######################################################################

data_DINTOL
_symmetry_cell_setting           triclinic
_symmetry_space_group_name_H-M   'P -1'
_symmetry_Int_Tables_number      2
_space_group_name_Hall           '-P 1'
loop_
_symmetry_equiv_pos_site_id
_symmetry_equiv_pos_as_xyz
1 x,y,z
2 -x,-y,-z
_cell_length_a                   11.121(4)
_cell_length_b                   11.668(4)
_cell_length_c                   11.743(4)
_cell_angle_alpha                68.637(4)
_cell_angle_beta                 77.481(4)
_cell_angle_gamma                80.178(4)
_cell_volume                     1378.28
loop_
_atom_site_label
_atom_site_type_symbol
_atom_site_fract_x
_atom_site_fract_y
_atom_site_fract_z
C1 C 0.0413(13) 0.5922(13) -0.2365(13)
H1 H 0.1035 0.5812 -0.2999
C2 C 0.0649(11) 0.6534(11) -0.1650(11)
H2 H 0.1415 0.6820 -0.1774
C3 C -0.0324(10) 0.6711(9) -0.0718(10)
C4 C -0.1429(11) 0.6230(10) -0.0526(11)
H3 H -0.2063 0.6326 0.0104
C5 C -0.1593(12) 0.5607(12) -0.1270(12)
H4 H -0.2334 0.5275 -0.1145
C6 C -0.0120(11) 0.7427(9) 0.0028(10)
C7 C -0.0400(10) 0.8421(9) 0.1239(9)
C8 C -0.0797(10) 0.9101(9) 0.2110(9)
C9 C -0.1932(11) 0.9209(10) 0.2837(10)
H5 H -0.2592 0.8828 0.2817
C10 C -0.2060(10) 0.9911(11) 0.3608(11)
H6 H -0.2819 1.0005 0.4103
C11 C -0.1078(11) 1.0464(10) 0.3642(10)
H7 H -0.1171 1.0952 0.4135
C12 C 0.0052(9) 1.0278(9) 0.2927(9)
C13 C 0.1232(10) 1.0725(9) 0.2834(10)
C14 C 0.3155(10) 1.0925(9) 0.2170(9)
C15 C 0.5018(10) 1.1880(10) 0.0827(9)
H8 H 0.4633 1.2658 0.0808
C16 C 0.4437(10) 1.0837(10) 0.1517(9)
C17 C 0.5032(10) 0.9663(10) 0.1556(10)
H9 H 0.4668 0.8943 0.2049
C18 C 0.6194(9) 0.9630(10) 0.0820(10)
H10 H 0.6603 0.8862 0.0831
C19 C 0.6201(10) 1.1747(10) 0.0154(10)
H11 H 0.6624 1.2444 -0.0271
Cu1 Cu 0.17934(12) 0.93491(12) 0.11899(12)
Mo1 Mo 0.53731(9) 0.43351(9) 0.21679(9)
Mo2 Mo 0.63251(9) 0.56612(8) 0.39574(8)
Mo3 Mo 0.32996(9) 0.61420(9) 0.32976(9)
Mo4 Mo 0.42910(10) 0.74832(8) 0.50577(9)
N1 N -0.0645(10) 0.5483(10) -0.2199(10)
N2 N 0.0982(8) 0.7772(8) -0.0082(8)
N3 N 0.0787(8) 0.8425(8) 0.0688(9)
N4 N -0.1024(8) 0.7815(8) 0.0822(8)
H12 H -0.1797 0.7702 0.1009
N5 N 0.0174(8) 0.9602(8) 0.2200(8)
N6 N 0.2229(8) 1.0416(8) 0.2057(8)
N7 N 0.1489(8) 1.1426(9) 0.3412(9)
N8 N 0.2714(8) 1.1536(8) 0.2983(8)
H13 H 0.3151 1.1939 0.3198
N9 N 0.6751(8) 1.0634(8) 0.0101(8)
O1 O 0.2674(8) 0.7624(8) 0.2630(8)
O2 O 0.2184(9) 0.5257(10) 0.3407(9)
O3 O 0.3200(9) 0.8615(8) 0.4470(8)
O4 O 0.5497(9) 0.8225(9) 0.5022(9)
O5 O 0.4965(8) 0.6953(7) 0.3576(7)
O6 O 0.7466(9) 0.6466(8) 0.3930(9)
O7 O 0.6951(7) 0.3982(7) 0.4948(7)
O8 O 0.4685(7) 0.4504(6) 0.4221(6)
O9 O 0.6661(7) 0.5437(7) 0.2512(7)
O10 O 0.4434(7) 0.5926(7) 0.1926(7)
O11 O 0.6170(8) 0.4464(8) 0.0725(8)
O12 O 0.4171(8) 0.3502(8) 0.2379(8)
O13 O 0.6379(7) 0.3046(7) 0.3225(7)
Cu1A Cu 0.82066(12) 1.06509(12) -0.11899(12)
Mo2A Mo 0.36749(9) 0.43388(8) 0.60426(8)
Mo3A Mo 0.67004(9) 0.38580(9) 0.67024(9)
Mo4A Mo 0.57090(10) 0.25168(8) 0.49423(9)
N9A N 0.3249(8) 0.9366(8) -0.0101(8)
O7A O 0.3049(7) 0.6018(7) 0.5052(7)
O8A O 0.5315(7) 0.5496(6) 0.5779(6)
O13A O 0.3621(7) 0.6954(7) 0.6775(7)
loop_
_geom_bond_atom_site_label_1
_geom_bond_atom_site_label_2
_geom_bond_site_symmetry_1
_geom_bond_site_symmetry_2
C1 H1 1_555 1_555
C2 C1 1_555 1_555
H2 C2 1_555 1_555
C3 C2 1_555 1_555
C4 C3 1_555 1_555
H3 C4 1_555 1_555
C5 C4 1_555 1_555
H4 C5 1_555 1_555
C6 C3 1_555 1_555
C7 C8 1_555 1_555
C8 C9 1_555 1_555
C9 H5 1_555 1_555
C10 C9 1_555 1_555
H6 C10 1_555 1_555
C11 C10 1_555 1_555
H7 C11 1_555 1_555
C12 C11 1_555 1_555
C13 C12 1_555 1_555
C14 C16 1_555 1_555
C15 H8 1_555 1_555
C16 C15 1_555 1_555
C17 C16 1_555 1_555
H9 C17 1_555 1_555
C18 C17 1_555 1_555
H10 C18 1_555 1_555
C19 C15 1_555 1_555
H11 C19 1_555 1_555
Cu1 N3 1_555 1_555
Mo1 O8 1_555 1_555
Mo2 O5 1_555 1_555
Mo3 O1 1_555 1_555
Mo4 O3 1_555 1_555
N1 C1 1_555 1_555
N2 C6 1_555 1_555
N3 C7 1_555 1_555
N4 C6 1_555 1_555
H12 N4 1_555 1_555
N5 C8 1_555 1_555
N6 C13 1_555 1_555
N7 C13 1_555 1_555
N8 C14 1_555 1_555
H13 N8 1_555 1_555
N9 C18 1_555 1_555
O1 Cu1 1_555 1_555
O2 Mo3 1_555 1_555
O4 Mo4 1_555 1_555
O5 Mo3 1_555 1_555
O6 Mo2 1_555 1_555
O7 Mo2 1_555 1_555
O8 Mo2 1_555 1_555
O9 Mo1 1_555 1_555
O10 Mo1 1_555 1_555
O11 Mo1 1_555 1_555
O12 Mo1 1_555 1_555
O13 Mo1 1_555 1_555
Cu1A N9 1_555 1_555
Mo2A O8 1_555 1_555
Mo3A O7 1_555 1_555
Mo4A O7 1_555 1_555
N9A Cu1 1_555 1_555
O7A Mo3 1_555 1_555
O8A Mo2 1_555 1_555
O13A Mo4 1_555 1_555
C5 N1 1_555 1_555
C7 N4 1_555 1_555
C12 N5 1_555 1_555
C14 N6 1_555 1_555
C19 N9 1_555 1_555
Cu1 N5 1_555 1_555
Cu1 N6 1_555 1_555
Mo2 O9 1_555 1_555
Mo3 O8 1_555 1_555
Mo3 O10 1_555 1_555
Mo4 O5 1_555 1_555
Mo4 O7A 1_555 1_555
Mo4 O8A 1_555 1_555
N2 N3 1_555 1_555
N7 N8 1_555 1_555
O8 Mo4A 1_555 1_555
O13 Mo4A 1_555 1_555
Mo2A O7A 1_555 1_555
Mo2A O8A 1_555 1_555
Mo3A O8A 1_555 1_555

#END
