
#######################################################################
#
#                 Cambridge Crystallographic Data Centre
#                                CCDC 
#
#######################################################################
#
# If this CIF has been generated from an entry in the Cambridge 
# Structural Database, then it will include bibliographic, chemical, 
# crystal, experimental, refinement or atomic coordinate data resulting 
# from the CCDC's data processing and validation procedures.
#
#######################################################################

data_DINTID
_symmetry_cell_setting           monoclinic
_symmetry_space_group_name_H-M   'P 2/c'
_symmetry_Int_Tables_number      13
_space_group_name_Hall           '-P 2yc'
loop_
_symmetry_equiv_pos_site_id
_symmetry_equiv_pos_as_xyz
1 x,y,z
2 x,-y,1/2+z
3 -x,-y,-z
4 -x,y,1/2-z
_cell_length_a                   8.2643(6)
_cell_length_b                   6.5250(5)
_cell_length_c                   13.5411(9)
_cell_angle_alpha                90
_cell_angle_beta                 95.703(6)
_cell_angle_gamma                90
_cell_volume                     726.584
loop_
_atom_site_label
_atom_site_type_symbol
_atom_site_fract_x
_atom_site_fract_y
_atom_site_fract_z
Cu1 Cu 0.0000 -0.76632(10) 0.2500
Cu2 Cu -0.40259(6) -0.78306(8) 0.36187(3)
Cl1 Cl -0.5000 -0.5319(2) 0.2500
Cl2 Cl -0.16797(11) -0.97686(15) 0.33580(7)
N1 N -0.3071(4) -0.6075(5) 0.4850(2)
N2 N -0.1122(3) -0.4069(5) 0.6371(2)
N3 N -0.5666(4) -0.9844(5) 0.3873(2)
C1 C -0.2762(4) -0.6873(5) 0.5770(2)
C2 C -0.1792(4) -0.5896(6) 0.6516(3)
H1 H -0.1602(4) -0.6523(6) 0.7133(3)
C3 C -0.1433(4) -0.3270(6) 0.5455(3)
H2 H -0.0987(4) -0.2004(6) 0.5319(3)
C4 C -0.2384(4) -0.4255(6) 0.4716(3)
H3 H -0.2557(4) -0.3633(6) 0.4096(3)
C5 C -0.6397(4) -1.1267(6) 0.4034(2)
Cu2C Cu -0.59741(6) -0.78306(8) 0.13813(3)
Cl2C Cl -0.83203(11) -0.97686(15) 0.16420(7)
Cu1A Cu 0.0000 -0.23368(10) 0.7500
N2A N -0.1122(3) -0.5931(5) 0.1371(2)
N1C N -0.6929(4) -0.6075(5) 0.0150(2)
N3C N -0.4334(4) -0.9844(5) 0.1127(2)
Cl2C_2 Cl 0.16797(11) -0.97686(15) 0.16420(7)
N2B N 0.1122(3) -0.5931(5) 0.3629(2)
C5B C -0.3603(4) -0.8733(6) 0.5966(2)
C1B C -0.7238(4) -1.3127(5) 0.4230(2)
Cu2C_2 Cu 0.40259(6) -0.78306(8) 0.13813(3)
N3B N -0.4334(4) -1.0156(5) 0.6127(2)
N1B N -0.6929(4) -1.3925(5) 0.5150(2)
C2B C -0.8208(4) -1.4104(6) 0.3484(3)
Cu2B Cu -0.59741(6) -1.21694(8) 0.63813(3)
C4B C -0.7616(4) -1.5745(6) 0.5284(3)
N2B_2 N -0.8878(3) -1.5931(5) 0.3629(2)
H1B H -0.8398(4) -1.3477(6) 0.2867(3)
C3B C -0.8567(4) -1.6730(6) 0.4545(3)
H3B H -0.7443(4) -1.6367(6) 0.5904(3)
Cu1_2 Cu -1.0000 -1.76632(10) 0.2500
H2B H -0.9013(4) -1.7996(6) 0.4681(3)
loop_
_geom_bond_atom_site_label_1
_geom_bond_atom_site_label_2
_geom_bond_site_symmetry_1
_geom_bond_site_symmetry_2
Cu1 Cl2 1_555 1_555
Cu2 Cl1 1_555 1_555
Cl1 Cu2C 1_555 1_555
Cl2 Cu2 1_555 1_555
N1 Cu2 1_555 1_555
N2 C2 1_555 1_555
N3 Cu2 1_555 1_555
C1 N1 1_555 1_555
C2 C1 1_555 1_555
H1 C2 1_555 1_555
C3 N2 1_555 1_555
H2 C3 1_555 1_555
C4 N1 1_555 1_555
H3 C4 1_555 1_555
C5 N3 1_555 1_555
Cu2C Cl2C 1_555 1_555
Cu1A N2 1_555 1_555
N2A Cu1 1_555 1_555
N1C Cu2C 1_555 1_555
N3C Cu2C 1_555 1_555
Cl2C_2 Cu1 1_555 1_555
N2B Cu1 1_555 1_555
C5B C1 1_555 1_555
C1B C5 1_555 1_555
Cu2C_2 Cl2C_2 1_555 1_555
N3B C5B 1_555 1_555
N1B C1B 1_555 1_555
C2B C1B 1_555 1_555
Cu2B N3B 1_555 1_555
C4B N1B 1_555 1_555
N2B_2 C2B 1_555 1_555
H1B C2B 1_555 1_555
C3B C4B 1_555 1_555
H3B C4B 1_555 1_555
Cu1_2 N2B_2 1_555 1_555
H2B C3B 1_555 1_555
C3 C4 1_555 1_555
N1B Cu2B 1_555 1_555
N2B_2 C3B 1_555 1_555

#END
