
#######################################################################
#
#                 Cambridge Crystallographic Data Centre
#                                CCDC 
#
#######################################################################
#
# If this CIF has been generated from an entry in the Cambridge 
# Structural Database, then it will include bibliographic, chemical, 
# crystal, experimental, refinement or atomic coordinate data resulting 
# from the CCDC's data processing and validation procedures.
#
#######################################################################

data_DINYIK
_symmetry_cell_setting           monoclinic
_symmetry_space_group_name_H-M   'P 21/c'
_symmetry_Int_Tables_number      14
_space_group_name_Hall           '-P 2ybc'
loop_
_symmetry_equiv_pos_site_id
_symmetry_equiv_pos_as_xyz
1 x,y,z
2 -x,1/2+y,1/2-z
3 -x,-y,-z
4 x,1/2-y,1/2+z
_cell_length_a                   17.344(15)
_cell_length_b                   6.509(5)
_cell_length_c                   7.522(6)
_cell_angle_alpha                90
_cell_angle_beta                 90.790(17)
_cell_angle_gamma                90
_cell_volume                     849.094
loop_
_atom_site_label
_atom_site_type_symbol
_atom_site_fract_x
_atom_site_fract_y
_atom_site_fract_z
Cu1 Cu 0.45089(3) 0.89282(8) 0.31726(8)
S1 S 0.38690(6) 0.72397(16) 0.07158(14)
N1 N 0.4350(2) 0.3554(5) 0.2096(5)
N2 N 0.4019(2) 0.1840(6) 0.2784(5)
C1 C 0.0783(4) 0.5611(13) 0.1896(10)
H1 H 0.0263 0.5957 0.1861
N3 N 0.3110(2) 0.3928(5) 0.2228(5)
N4 N 0.3276(2) 0.2016(6) 0.2880(6)
C2 C 0.3772(2) 0.4863(6) 0.1711(5)
C3 C 0.2317(3) 0.4576(8) 0.2081(7)
C4 C 0.2100(3) 0.6500(9) 0.2644(8)
H2 H 0.2463 0.7428 0.3082
C5 C 0.1015(4) 0.3707(11) 0.1311(10)
H3 H 0.0652 0.2788 0.0856
C6 C 0.1790(3) 0.3151(10) 0.1396(8)
H4 H 0.1952 0.1867 0.1007
C7 C 0.1321(4) 0.7021(12) 0.2540(9)
H5 H 0.1161 0.8316 0.2903
Cu1_2 Cu 0.45089(3) -0.10718(8) 0.31726(8)
Cu1A Cu 0.54911(3) 0.39282(8) 0.18274(8)
Cu1C Cu 0.45089(3) 0.60718(8) -0.18274(8)
S1C S 0.38690(6) 0.77603(16) 0.57158(14)
N1A N 0.5650(2) 0.8554(5) 0.2904(5)
N2_2 N 0.4019(2) 1.1840(6) 0.2784(5)
loop_
_geom_bond_atom_site_label_1
_geom_bond_atom_site_label_2
_geom_bond_site_symmetry_1
_geom_bond_site_symmetry_2
Cu1 S1 1_555 1_555
S1 C2 1_555 1_555
N1 N2 1_555 1_555
N2 N4 1_555 1_555
C1 H1 1_555 1_555
N3 N4 1_555 1_555
C2 N1 1_555 1_555
C3 N3 1_555 1_555
C4 C3 1_555 1_555
H2 C4 1_555 1_555
C5 C1 1_555 1_555
H3 C5 1_555 1_555
C6 C3 1_555 1_555
H4 C6 1_555 1_555
C7 C1 1_555 1_555
H5 C7 1_555 1_555
Cu1_2 N2 1_555 1_555
Cu1A N1 1_555 1_555
Cu1C S1 1_555 1_555
S1C Cu1 1_555 1_555
N1A Cu1 1_555 1_555
N2_2 Cu1 1_555 1_555
N3 C2 1_555 1_555
C4 C7 1_555 1_555
C5 C6 1_555 1_555

#END
