
#######################################################################
#
#                 Cambridge Crystallographic Data Centre
#                                CCDC 
#
#######################################################################
#
# If this CIF has been generated from an entry in the Cambridge 
# Structural Database, then it will include bibliographic, chemical, 
# crystal, experimental, refinement or atomic coordinate data resulting 
# from the CCDC's data processing and validation procedures.
#
#######################################################################

data_DINYEG
_symmetry_cell_setting           monoclinic
_symmetry_space_group_name_H-M   'P 21/c'
_symmetry_Int_Tables_number      14
_space_group_name_Hall           '-P 2ybc'
loop_
_symmetry_equiv_pos_site_id
_symmetry_equiv_pos_as_xyz
1 x,y,z
2 -x,1/2+y,1/2-z
3 -x,-y,-z
4 x,1/2-y,1/2+z
_cell_length_a                   11.0753(6)
_cell_length_b                   7.3693(4)
_cell_length_c                   11.8371(7)
_cell_angle_alpha                90
_cell_angle_beta                 110.144(6)
_cell_angle_gamma                90
_cell_volume                     907.014
loop_
_atom_site_label
_atom_site_type_symbol
_atom_site_fract_x
_atom_site_fract_y
_atom_site_fract_z
K1 K 0.04598(4) -0.02480(6) 0.20840(4)
O1 O -0.01985(13) -0.34549(19) 0.09198(11)
O2 O 0.21947(12) 0.48661(19) 0.11597(11)
O3 O 0.14981(12) 0.31343(19) 0.23408(12)
O4 O 0.78821(14) 0.2735(2) 0.62154(12)
O5 O 0.84330(13) 0.4274(2) 0.49229(14)
N1 N 0.31821(16) 0.1797(2) 0.43506(15)
N2 N 0.76222(15) 0.3509(2) 0.52435(14)
C1 C 0.37410(16) 0.3759(2) 0.29538(15)
C2 C 0.40710(17) 0.2735(2) 0.40320(15)
C3 C 0.53702(17) 0.2670(2) 0.47784(15)
C4 C 0.62746(17) 0.3567(2) 0.44387(16)
C5 C 0.59843(18) 0.4570(3) 0.33925(17)
C6 C 0.47081(17) 0.4645(3) 0.26716(16)
C7 C 0.23735(17) 0.3931(3) 0.20897(15)
H1 H 0.56190 0.20100 0.55120
H2 H 0.66320 0.51770 0.31810
H3 H 0.44790 0.53320 0.19490
H4 H -0.08040 -0.37910 0.02030
H5 H 0.05610 -0.39820 0.09870
H6 H 0.33100 0.13400 0.50730
H7 H 0.23980 0.19940 0.39330
K1A K -0.04598(4) -0.52480(6) 0.29160(4)
K1A_2 K -0.04598(4) 0.47520(6) 0.29160(4)
K1A_3 K 0.95402(4) 0.47520(6) 0.29160(4)
K1B K 0.95402(4) 0.02480(6) 0.79160(4)
K1C K 1.04598(4) 0.52480(6) 0.70840(4)
O1A O 0.01985(13) 0.15451(19) 0.40802(11)
O3A O -0.14981(12) -0.18657(19) 0.26592(12)
O4B O 0.21179(14) -0.2735(2) 0.37846(12)
O4C O -0.21179(14) 0.2265(2) 0.12154(12)
O5A O 0.15670(13) -0.0726(2) 0.00771(14)
O5C O -0.15670(13) 0.0726(2) -0.00771(14)
loop_
_geom_bond_atom_site_label_1
_geom_bond_atom_site_label_2
_geom_bond_site_symmetry_1
_geom_bond_site_symmetry_2
K1 O1 1_555 1_555
O1 H4 1_555 1_555
O2 C7 1_555 1_555
O3 K1 1_555 1_555
O4 N2 1_555 1_555
O5 N2 1_555 1_555
N1 C2 1_555 1_555
N2 C4 1_555 1_555
C1 C2 1_555 1_555
C2 C3 1_555 1_555
C3 C4 1_555 1_555
C4 C5 1_555 1_555
C5 C6 1_555 1_555
C6 C1 1_555 1_555
C7 O3 1_555 1_555
H1 C3 1_555 1_555
H2 C5 1_555 1_555
H3 C6 1_555 1_555
H5 O1 1_555 1_555
H6 N1 1_555 1_555
H7 N1 1_555 1_555
K1A O1 1_555 1_555
K1A_2 O3 1_555 1_555
K1A_3 O5 1_555 1_555
K1B O4 1_555 1_555
K1C O4 1_555 1_555
O1A K1 1_555 1_555
O3A K1 1_555 1_555
O4B K1 1_555 1_555
O4C K1 1_555 1_555
O5A K1 1_555 1_555
O5C K1 1_555 1_555
O5 K1C 1_555 1_555
C1 C7 1_555 1_555
K1A O3A 1_555 1_555
K1A O4B 1_555 1_555
K1A_2 O1A 1_555 1_555
K1A_2 O4C 1_555 1_555

#END
