
#######################################################################
#
#                 Cambridge Crystallographic Data Centre
#                                CCDC 
#
#######################################################################
#
# If this CIF has been generated from an entry in the Cambridge 
# Structural Database, then it will include bibliographic, chemical, 
# crystal, experimental, refinement or atomic coordinate data resulting 
# from the CCDC's data processing and validation procedures.
#
#######################################################################

data_DINYAC
_symmetry_cell_setting           triclinic
_symmetry_space_group_name_H-M   'P -1'
_symmetry_Int_Tables_number      2
_space_group_name_Hall           '-P 1'
loop_
_symmetry_equiv_pos_site_id
_symmetry_equiv_pos_as_xyz
1 x,y,z
2 -x,-y,-z
_cell_length_a                   6.6110(6)
_cell_length_b                   6.9443(7)
_cell_length_c                   11.7453(11)
_cell_angle_alpha                75.054(8)
_cell_angle_beta                 85.243(7)
_cell_angle_gamma                67.249(9)
_cell_volume                     480.35
loop_
_atom_site_label
_atom_site_type_symbol
_atom_site_fract_x
_atom_site_fract_y
_atom_site_fract_z
Na1 Na 0.22849(11) 0.08204(11) -0.05787(6)
O1 O 0.1586(2) -0.2406(2) 0.01889(11)
O2 O 0.2115(2) 0.4538(2) -0.10897(11)
O3 O 0.3889(2) -0.3339(2) 0.22854(11)
O4 O 0.3942(2) -0.0138(2) 0.13256(10)
O5 O 0.1397(3) 0.2885(3) 0.66462(13)
O6 O 0.2066(3) -0.0423(3) 0.75486(12)
N1 N 0.2218(3) 0.3142(2) 0.23966(13)
N2 N 0.1882(2) 0.0988(3) 0.66469(14)
C1 C 0.3060(3) -0.0682(3) 0.33713(15)
C2 C 0.2484(3) 0.1489(3) 0.34038(15)
C3 C 0.2092(3) 0.1986(3) 0.45054(16)
C4 C 0.2282(3) 0.0385(3) 0.55096(15)
C5 C 0.2816(3) -0.1750(3) 0.55064(16)
C6 C 0.3179(3) -0.2229(3) 0.44170(15)
C7 C 0.3652(3) -0.1422(3) 0.22390(15)
H1 H 0.16960 0.34300 0.45570
H2 H 0.29270 -0.28260 0.62140
H3 H 0.35240 -0.36730 0.43810
H4 H 0.24570 -0.29620 0.08820
H5 H 0.20120 -0.34430 -0.01800
H6 H 0.30210 0.26910 0.17910
H7 H 0.07740 0.52590 -0.15240
H8 H 0.26100 0.42100 0.25950
H9 H 0.34220 0.42040 -0.14980
Na1_2 Na 0.22849(11) 0.08204(11) 0.94213(6)
Na1A Na -0.22849(11) -0.08204(11) 0.05787(6)
Na1A_2 Na 0.77151(11) -0.08204(11) 0.05787(6)
O1A O -0.1586(2) 0.2406(2) -0.01889(11)
O4A O 0.6058(2) 0.0138(2) -0.13256(10)
O6_2 O 0.2066(3) -0.0423(3) -0.24514(12)
loop_
_geom_bond_atom_site_label_1
_geom_bond_atom_site_label_2
_geom_bond_site_symmetry_1
_geom_bond_site_symmetry_2
Na1 O1 1_555 1_555
O1 H4 1_555 1_555
O2 Na1 1_555 1_555
O3 C7 1_555 1_555
O4 Na1 1_555 1_555
O5 N2 1_555 1_555
O6 N2 1_555 1_555
N1 C2 1_555 1_555
N2 C4 1_555 1_555
C1 C2 1_555 1_555
C2 C3 1_555 1_555
C3 C4 1_555 1_555
C4 C5 1_555 1_555
C5 C6 1_555 1_555
C6 C1 1_555 1_555
C7 O4 1_555 1_555
H1 C3 1_555 1_555
H2 C5 1_555 1_555
H3 C6 1_555 1_555
H5 O1 1_555 1_555
H6 N1 1_555 1_555
H7 O2 1_555 1_555
H8 N1 1_555 1_555
H9 O2 1_555 1_555
Na1_2 O6 1_555 1_555
Na1A O1 1_555 1_555
Na1A_2 O4 1_555 1_555
O1A Na1 1_555 1_555
O4A Na1 1_555 1_555
O6_2 Na1 1_555 1_555
C1 C7 1_555 1_555
Na1A O1A 1_555 1_555
Na1A_2 O4A 1_555 1_555

#END
