
#######################################################################
#
#                 Cambridge Crystallographic Data Centre
#                                CCDC 
#
#######################################################################
#
# If this CIF has been generated from an entry in the Cambridge 
# Structural Database, then it will include bibliographic, chemical, 
# crystal, experimental, refinement or atomic coordinate data resulting 
# from the CCDC's data processing and validation procedures.
#
#######################################################################

data_DIPFIR
_symmetry_cell_setting           monoclinic
_symmetry_space_group_name_H-M   'P 21/n'
_symmetry_Int_Tables_number      14
_space_group_name_Hall           '-P 2yn'
loop_
_symmetry_equiv_pos_site_id
_symmetry_equiv_pos_as_xyz
1 x,y,z
2 1/2+x,1/2-y,1/2+z
3 -x,-y,-z
4 1/2-x,1/2+y,1/2-z
_cell_length_a                   4.1982(7)
_cell_length_b                   10.893(3)
_cell_length_c                   16.360(5)
_cell_angle_alpha                90
_cell_angle_beta                 93.30(2)
_cell_angle_gamma                90
_cell_volume                     746.918
loop_
_atom_site_label
_atom_site_type_symbol
_atom_site_fract_x
_atom_site_fract_y
_atom_site_fract_z
I1 I 0.76044(11) 0.90856(5) 0.60457(3)
Cu1 Cu 0.7475(2) 1.09163(11) 0.49530(6)
N1 N 0.8289(14) 1.2467(6) 0.5632(4)
N2 N 1.1143(22) 1.3470(8) 0.6751(5)
C1 C 0.7184(20) 1.3582(8) 0.5434(5)
H1 H 0.5772(20) 1.3633(8) 0.4976(5)
C2 C 0.7886(18) 1.4629(6) 0.5823(4)
H2 H 0.6985(18) 1.5369(6) 0.5644(4)
C3 C 0.9893(20) 1.4582(8) 0.6466(5)
C4 C 1.0300(20) 1.2423(7) 0.6301(5)
H3 H 1.1153(20) 1.1671(7) 0.6469(5)
C5 C 1.0733(28) 1.5756(9) 0.6902(7)
H4 H 1.133(19) 1.6361(25) 0.6513(10)
H5 H 1.249(13) 1.5616(19) 0.7295(37)
H6 H 0.8923(68) 1.6044(40) 0.7180(41)
Cu1B Cu 0.2525(2) 0.90837(11) 0.50470(6)
Cu1B_2 Cu 1.2525(2) 0.90837(11) 0.50470(6)
I1B I 0.23956(11) 1.09144(5) 0.39543(3)
I1B_2 I 1.23956(11) 1.09144(5) 0.39543(3)
loop_
_geom_bond_atom_site_label_1
_geom_bond_atom_site_label_2
_geom_bond_site_symmetry_1
_geom_bond_site_symmetry_2
I1 Cu1 1_555 1_555
Cu1 N1 1_555 1_555
N1 C1 1_555 1_555
N2 C3 1_555 1_555
C1 H1 1_555 1_555
C2 C1 1_555 1_555
H2 C2 1_555 1_555
C3 C2 1_555 1_555
C4 N1 1_555 1_555
H3 C4 1_555 1_555
C5 C3 1_555 1_555
H4 C5 1_555 1_555
H5 C5 1_555 1_555
H6 C5 1_555 1_555
Cu1B I1 1_555 1_555
Cu1B_2 I1 1_555 1_555
I1B Cu1 1_555 1_555
I1B_2 Cu1 1_555 1_555
N2 C4 1_555 1_555
Cu1B I1B 1_555 1_555
Cu1B_2 I1B_2 1_555 1_555

#END
