
#######################################################################
#
#                 Cambridge Crystallographic Data Centre
#                                CCDC 
#
#######################################################################
#
# If this CIF has been generated from an entry in the Cambridge 
# Structural Database, then it will include bibliographic, chemical, 
# crystal, experimental, refinement or atomic coordinate data resulting 
# from the CCDC's data processing and validation procedures.
#
#######################################################################

data_DIPGUG
_symmetry_cell_setting           monoclinic
_symmetry_space_group_name_H-M   'P 21/c'
_symmetry_Int_Tables_number      14
_space_group_name_Hall           '-P 2ybc'
loop_
_symmetry_equiv_pos_site_id
_symmetry_equiv_pos_as_xyz
1 x,y,z
2 -x,1/2+y,1/2-z
3 -x,-y,-z
4 x,1/2-y,1/2+z
_cell_length_a                   9.3414(9)
_cell_length_b                   10.0460(9)
_cell_length_c                   10.6311(10)
_cell_angle_alpha                90
_cell_angle_beta                 109.297(3)
_cell_angle_gamma                90
_cell_volume                     941.611
loop_
_atom_site_label
_atom_site_type_symbol
_atom_site_fract_x
_atom_site_fract_y
_atom_site_fract_z
Cu1 Cu 0.5000 0.0000 0.5000
O1 O 0.2849(4) 0.0426(3) 0.4560(4)
N1 N 0.5212(4) 0.1316(3) 0.6453(4)
N2 N 0.5049(5) 0.3221(4) 0.8303(4)
N3 N 0.1201(5) 0.1814(4) 0.5008(5)
C1 C 0.3873(5) 0.1905(4) 0.6357(5)
C2 C 0.3819(5) 0.2865(4) 0.7279(5)
C3 C 0.6335(6) 0.2612(4) 0.8383(5)
C4 C 0.6422(5) 0.1666(4) 0.7454(5)
C5 C 0.2585(5) 0.1344(4) 0.5246(5)
H1 H 0.0398 0.1456 0.4320
H2 H 0.1028 0.2497 0.5529
H3 H 0.2899 0.3280 0.7185
H4 H 0.7209 0.2827 0.9082
H5 H 0.7350 0.1270 0.7543
O1B O 0.7151(4) -0.0426(3) 0.5440(4)
N1B N 0.4788(4) -0.1316(3) 0.3547(4)
N2B N 0.4951(5) -0.3221(4) 0.1697(4)
N3B N 0.8799(5) -0.1814(4) 0.4992(5)
C1B C 0.6127(5) -0.1905(4) 0.3643(5)
C2B C 0.6181(5) -0.2865(4) 0.2721(5)
C3B C 0.3665(6) -0.2612(4) 0.1617(5)
C4B C 0.3578(5) -0.1666(4) 0.2546(5)
C5B C 0.7415(5) -0.1344(4) 0.4754(5)
H1B H 0.9602 -0.1456 0.5680
H2B H 0.8972 -0.2497 0.4471
H3B H 0.7101 -0.3280 0.2815
H4B H 0.2791 -0.2827 0.0918
H5B H 0.2650 -0.1270 0.2457
Cu1A Cu 0.5000 -0.5000 0.0000
Cu1A_2 Cu 0.5000 0.5000 1.0000
N2A N 0.4951(5) -0.1779(4) 0.6697(4)
N2C N 0.5049(5) 0.1779(4) 0.3303(4)
P1 P 0.15492(17) 0.52457(13) 0.35663(15)
F1 F 0.1752(5) 0.4906(3) 0.5079(4)
F2 F 0.1352(4) 0.5593(5) 0.2028(4)
F3 F 0.0075(6) 0.4397(7) 0.3103(5)
F4 F 0.3054(6) 0.6065(6) 0.4046(5)
F5 F 0.2503(7) 0.3995(5) 0.3506(6)
F6 F 0.0608(7) 0.6492(5) 0.3642(6)
loop_
_geom_bond_atom_site_label_1
_geom_bond_atom_site_label_2
_geom_bond_site_symmetry_1
_geom_bond_site_symmetry_2
Cu1 O1 1_555 1_555
O1 C5 1_555 1_555
N1 Cu1 1_555 1_555
N2 C2 1_555 1_555
N3 C5 1_555 1_555
C1 N1 1_555 1_555
C2 C1 1_555 1_555
C3 N2 1_555 1_555
C4 N1 1_555 1_555
C5 C1 1_555 1_555
H1 N3 1_555 1_555
H2 N3 1_555 1_555
H3 C2 1_555 1_555
H4 C3 1_555 1_555
H5 C4 1_555 1_555
P1 F1 1_555 1_555
F2 P1 1_555 1_555
F3 P1 1_555 1_555
F4 P1 1_555 1_555
F5 P1 1_555 1_555
F6 P1 1_555 1_555
O1B Cu1 1_555 1_555
N1B Cu1 1_555 1_555
N2B C2B 1_555 1_555
N3B C5B 1_555 1_555
C1B N1B 1_555 1_555
C2B C1B 1_555 1_555
C3B N2B 1_555 1_555
C4B N1B 1_555 1_555
C5B O1B 1_555 1_555
H1B N3B 1_555 1_555
H2B N3B 1_555 1_555
H3B C2B 1_555 1_555
H4B C3B 1_555 1_555
H5B C4B 1_555 1_555
Cu1A N2B 1_555 1_555
Cu1A_2 N2 1_555 1_555
N2A Cu1 1_555 1_555
N2C Cu1 1_555 1_555
C3 C4 1_555 1_555
C1B C5B 1_555 1_555
C3B C4B 1_555 1_555

#END
