
#######################################################################
#
#                 Cambridge Crystallographic Data Centre
#                                CCDC 
#
#######################################################################
#
# If this CIF has been generated from an entry in the Cambridge 
# Structural Database, then it will include bibliographic, chemical, 
# crystal, experimental, refinement or atomic coordinate data resulting 
# from the CCDC's data processing and validation procedures.
#
#######################################################################

data_DIPGOA
_symmetry_cell_setting           monoclinic
_symmetry_space_group_name_H-M   'P 21/c'
_symmetry_Int_Tables_number      14
_space_group_name_Hall           '-P 2ybc'
loop_
_symmetry_equiv_pos_site_id
_symmetry_equiv_pos_as_xyz
1 x,y,z
2 -x,1/2+y,1/2-z
3 -x,-y,-z
4 x,1/2-y,1/2+z
_cell_length_a                   9.5711(12)
_cell_length_b                   10.0899(8)
_cell_length_c                   10.6233(9)
_cell_angle_alpha                90
_cell_angle_beta                 109.733(4)
_cell_angle_gamma                90
_cell_volume                     965.662
loop_
_atom_site_label
_atom_site_type_symbol
_atom_site_fract_x
_atom_site_fract_y
_atom_site_fract_z
As1 As 0.15067(7) 0.52401(6) 0.35618(6)
F1 F 0.1795(5) 0.4835(4) 0.5186(4)
F2 F 0.1249(5) 0.5679(5) 0.1919(4)
F3 F -0.0005(6) 0.4296(7) 0.3064(5)
F4 F 0.3081(6) 0.6140(6) 0.4066(5)
F5 F 0.2482(7) 0.3899(5) 0.3418(5)
F6 F 0.0545(8) 0.6564(6) 0.3719(6)
Cu1 Cu 0.5000 0.0000 0.5000
O1 O 0.2920(4) 0.0456(4) 0.4560(4)
N1 N 0.5222(5) 0.1319(4) 0.6450(4)
N2 N 0.5094(5) 0.3223(4) 0.8289(4)
N3 N 0.1328(5) 0.1795(5) 0.5060(5)
C1 C 0.3936(6) 0.1910(5) 0.6367(5)
C2 C 0.3873(6) 0.2867(5) 0.7273(5)
C3 C 0.6337(6) 0.2609(5) 0.8377(5)
C4 C 0.6437(6) 0.1666(5) 0.7440(5)
C5 C 0.2660(6) 0.1351(5) 0.5258(5)
H1 H 0.0527 0.1442 0.4377
H2 H 0.1176 0.2464 0.5601
H3 H 0.2971 0.3272 0.7180
H4 H 0.7188 0.2808 0.9093
H5 H 0.7348 0.1288 0.7513
O1B O 0.7080(4) -0.0456(4) 0.5440(4)
N1B N 0.4778(5) -0.1319(4) 0.3550(4)
N2B N 0.4906(5) -0.3223(4) 0.1711(4)
N3B N 0.8672(5) -0.1795(5) 0.4940(5)
C1B C 0.6064(6) -0.1910(5) 0.3633(5)
C2B C 0.6127(6) -0.2867(5) 0.2727(5)
C3B C 0.3663(6) -0.2609(5) 0.1623(5)
C4B C 0.3563(6) -0.1666(5) 0.2560(5)
C5B C 0.7340(6) -0.1351(5) 0.4742(5)
H1B H 0.9473 -0.1442 0.5623
H2B H 0.8824 -0.2464 0.4399
H3B H 0.7029 -0.3272 0.2820
H4B H 0.2812 -0.2808 0.0907
H5B H 0.2652 -0.1288 0.2487
Cu1A Cu 0.5000 -0.5000 0.0000
Cu1A_2 Cu 0.5000 0.5000 1.0000
N2A N 0.4906(5) -0.1777(4) 0.6711(4)
N2C N 0.5094(5) 0.1777(4) 0.3289(4)
loop_
_geom_bond_atom_site_label_1
_geom_bond_atom_site_label_2
_geom_bond_site_symmetry_1
_geom_bond_site_symmetry_2
As1 F1 1_555 1_555
F2 As1 1_555 1_555
F3 As1 1_555 1_555
F4 As1 1_555 1_555
F5 As1 1_555 1_555
F6 As1 1_555 1_555
Cu1 O1 1_555 1_555
O1 C5 1_555 1_555
N1 Cu1 1_555 1_555
N2 C2 1_555 1_555
N3 C5 1_555 1_555
C1 N1 1_555 1_555
C2 C1 1_555 1_555
C3 N2 1_555 1_555
C4 N1 1_555 1_555
C5 C1 1_555 1_555
H1 N3 1_555 1_555
H2 N3 1_555 1_555
H3 C2 1_555 1_555
H4 C3 1_555 1_555
H5 C4 1_555 1_555
O1B Cu1 1_555 1_555
N1B Cu1 1_555 1_555
N2B C2B 1_555 1_555
N3B C5B 1_555 1_555
C1B N1B 1_555 1_555
C2B C1B 1_555 1_555
C3B N2B 1_555 1_555
C4B N1B 1_555 1_555
C5B O1B 1_555 1_555
H1B N3B 1_555 1_555
H2B N3B 1_555 1_555
H3B C2B 1_555 1_555
H4B C3B 1_555 1_555
H5B C4B 1_555 1_555
Cu1A N2B 1_555 1_555
Cu1A_2 N2 1_555 1_555
N2A Cu1 1_555 1_555
N2C Cu1 1_555 1_555
C3 C4 1_555 1_555
C1B C5B 1_555 1_555
C3B C4B 1_555 1_555

#END
