
#######################################################################
#
#                 Cambridge Crystallographic Data Centre
#                                CCDC 
#
#######################################################################
#
# If this CIF has been generated from an entry in the Cambridge 
# Structural Database, then it will include bibliographic, chemical, 
# crystal, experimental, refinement or atomic coordinate data resulting 
# from the CCDC's data processing and validation procedures.
#
#######################################################################

data_DIPHER
_symmetry_cell_setting           monoclinic
_symmetry_space_group_name_H-M   'P 21/c'
_symmetry_Int_Tables_number      14
_space_group_name_Hall           '-P 2ybc'
loop_
_symmetry_equiv_pos_site_id
_symmetry_equiv_pos_as_xyz
1 x,y,z
2 -x,1/2+y,1/2-z
3 -x,-y,-z
4 x,1/2-y,1/2+z
_cell_length_a                   8.8803(18)
_cell_length_b                   9.7459(13)
_cell_length_c                   10.4849(16)
_cell_angle_alpha                90
_cell_angle_beta                 111.786(6)
_cell_angle_gamma                90
_cell_volume                     842.62
loop_
_atom_site_label
_atom_site_type_symbol
_atom_site_fract_x
_atom_site_fract_y
_atom_site_fract_z
Cu1 Cu 0.5000 0.0000 0.5000
O1 O 0.2639(4) 0.0323(3) 0.4481(3)
N1 N 0.5158(4) 0.1311(3) 0.6489(3)
N2 N 0.4932(4) 0.3129(4) 0.8425(4)
N3 N 0.0837(4) 0.1722(4) 0.4856(4)
C1 C 0.3703(5) 0.1826(4) 0.6388(4)
C2 C 0.3590(5) 0.2742(4) 0.7338(4)
C3 C 0.6339(5) 0.2602(4) 0.8524(4)
C4 C 0.6466(5) 0.1688(5) 0.7542(4)
C5 C 0.2312(5) 0.1256(4) 0.5175(4)
H1 H 0.0000 0.1361 0.4102
H2 H 0.0622 0.2410 0.5379
H3 H 0.2584 0.3104 0.7239
H4 H 0.7270 0.2851 0.9261
H5 H 0.7475 0.1340 0.7630
O1B O 0.7361(4) -0.0323(3) 0.5519(3)
N1B N 0.4842(4) -0.1311(3) 0.3511(3)
N2B N 0.5068(4) -0.3129(4) 0.1575(4)
N3B N 0.9163(4) -0.1722(4) 0.5144(4)
C1B C 0.6297(5) -0.1826(4) 0.3612(4)
C2B C 0.6410(5) -0.2742(4) 0.2662(4)
C3B C 0.3661(5) -0.2602(4) 0.1476(4)
C4B C 0.3534(5) -0.1688(5) 0.2458(4)
C5B C 0.7688(5) -0.1256(4) 0.4825(4)
H1B H 1.0000 -0.1361 0.5898
H2B H 0.9378 -0.2410 0.4621
H3B H 0.7416 -0.3104 0.2761
H4B H 0.2730 -0.2851 0.0739
H5B H 0.2525 -0.1340 0.2370
Cu1A Cu 0.5000 -0.5000 0.0000
Cu1A_2 Cu 0.5000 0.5000 1.0000
N2A N 0.5068(4) -0.1871(4) 0.6575(4)
N2C N 0.4932(4) 0.1871(4) 0.3425(4)
Cl1 Cl 0.10852(19) 0.51442(12) 0.35498(14)
O2 O 0.0457(5) 0.6572(5) 0.3607(5)
O3 O 0.1620(6) 0.5244(5) 0.2410(5)
O4 O 0.2447(9) 0.4831(5) 0.4783(6)
loop_
_geom_bond_atom_site_label_1
_geom_bond_atom_site_label_2
_geom_bond_site_symmetry_1
_geom_bond_site_symmetry_2
Cu1 O1 1_555 1_555
O1 C5 1_555 1_555
N1 Cu1 1_555 1_555
N2 C2 1_555 1_555
N3 C5 1_555 1_555
C1 N1 1_555 1_555
C2 C1 1_555 1_555
C3 N2 1_555 1_555
C4 N1 1_555 1_555
C5 C1 1_555 1_555
H1 N3 1_555 1_555
H2 N3 1_555 1_555
H3 C2 1_555 1_555
H4 C3 1_555 1_555
H5 C4 1_555 1_555
Cl1 O2 1_555 1_555
O3 Cl1 1_555 1_555
O4 Cl1 1_555 1_555
O1B Cu1 1_555 1_555
N1B Cu1 1_555 1_555
N2B C2B 1_555 1_555
N3B C5B 1_555 1_555
C1B N1B 1_555 1_555
C2B C1B 1_555 1_555
C3B N2B 1_555 1_555
C4B N1B 1_555 1_555
C5B O1B 1_555 1_555
H1B N3B 1_555 1_555
H2B N3B 1_555 1_555
H3B C2B 1_555 1_555
H4B C3B 1_555 1_555
H5B C4B 1_555 1_555
Cu1A N2B 1_555 1_555
Cu1A_2 N2 1_555 1_555
N2A Cu1 1_555 1_555
N2C Cu1 1_555 1_555
C3 C4 1_555 1_555
C1B C5B 1_555 1_555
C3B C4B 1_555 1_555

#END
