
#######################################################################
#
#                 Cambridge Crystallographic Data Centre
#                                CCDC 
#
#######################################################################
#
# If this CIF has been generated from an entry in the Cambridge 
# Structural Database, then it will include bibliographic, chemical, 
# crystal, experimental, refinement or atomic coordinate data resulting 
# from the CCDC's data processing and validation procedures.
#
#######################################################################

data_DIPKIW
_symmetry_cell_setting           monoclinic
_symmetry_space_group_name_H-M   'P 21/c'
_symmetry_Int_Tables_number      14
_space_group_name_Hall           '-P 2ybc'
loop_
_symmetry_equiv_pos_site_id
_symmetry_equiv_pos_as_xyz
1 x,y,z
2 x,1/2-y,1/2+z
3 -x,-y,-z
4 -x,1/2+y,1/2-z
_cell_length_a                   8.292(5)
_cell_length_b                   11.122(5)
_cell_length_c                   7.778(8)
_cell_angle_alpha                90
_cell_angle_beta                 112.15(6)
_cell_angle_gamma                90
_cell_volume                     664.377
loop_
_atom_site_label
_atom_site_type_symbol
_atom_site_fract_x
_atom_site_fract_y
_atom_site_fract_z
Cu1 Cu -0.02006(4) 0.02899(3) 0.17127(4)
Cl1 Cl 0.23181(7) 0.08819(5) 0.07884(8)
N1 N -0.1370(2) 0.1889(2) 0.1212(3)
C1 C -0.2530(3) 0.4166(2) 0.0028(3)
N2 N -0.1008(2) 0.4009(2) 0.1455(3)
C2 C -0.3060(4) 0.5418(2) -0.0658(4)
H1 H -0.4287(7) 0.5436(5) -0.1388(29)
H2 H -0.2429(24) 0.5669(9) -0.1408(29)
H3 H -0.2804(30) 0.5952(4) 0.0381(4)
C3 C -0.0498(3) 0.2874(2) 0.1949(3)
H4 H 0.0580(3) 0.2771(2) 0.2908(3)
C4 C -0.3536(3) 0.3174(2) -0.0775(3)
H5 H -0.4613(3) 0.3272(2) -0.1737(3)
C5 C -0.2939(3) 0.2052(2) -0.0147(4)
H6 H -0.3630(3) 0.1387(2) -0.0669(4)
Cu1B Cu 0.02006(4) -0.02899(3) -0.17127(4)
Cl1B Cl -0.23181(7) -0.08819(5) -0.07884(8)
N2C N 0.1008(2) -0.0991(2) 0.3545(3)
Cu1C Cu 0.02006(4) 0.52899(3) 0.32873(4)
loop_
_geom_bond_atom_site_label_1
_geom_bond_atom_site_label_2
_geom_bond_site_symmetry_1
_geom_bond_site_symmetry_2
Cu1 Cl1 1_555 1_555
Cl1 Cu1B 1_555 1_555
N1 Cu1 1_555 1_555
C1 N2 1_555 1_555
N2 C3 1_555 1_555
C2 C1 1_555 1_555
H1 C2 1_555 1_555
H2 C2 1_555 1_555
H3 C2 1_555 1_555
C3 N1 1_555 1_555
H4 C3 1_555 1_555
C4 C1 1_555 1_555
H5 C4 1_555 1_555
C5 N1 1_555 1_555
H6 C5 1_555 1_555
Cu1B Cl1B 1_555 1_555
Cl1B Cu1 1_555 1_555
N2C Cu1 1_555 1_555
Cu1C N2 1_555 1_555
C4 C5 1_555 1_555

#END
