
#######################################################################
#
#                 Cambridge Crystallographic Data Centre
#                                CCDC 
#
#######################################################################
#
# If this CIF has been generated from an entry in the Cambridge 
# Structural Database, then it will include bibliographic, chemical, 
# crystal, experimental, refinement or atomic coordinate data resulting 
# from the CCDC's data processing and validation procedures.
#
#######################################################################

data_DIPLUL
_symmetry_cell_setting           triclinic
_symmetry_space_group_name_H-M   'P -1'
_symmetry_Int_Tables_number      2
_space_group_name_Hall           '-P 1'
loop_
_symmetry_equiv_pos_site_id
_symmetry_equiv_pos_as_xyz
1 x,y,z
2 -x,-y,-z
_cell_length_a                   12.8889(16)
_cell_length_b                   15.1963(19)
_cell_length_c                   22.677(3)
_cell_angle_alpha                78.401(2)
_cell_angle_beta                 77.297(2)
_cell_angle_gamma                79.472(2)
_cell_volume                     4199.58
loop_
_atom_site_label
_atom_site_type_symbol
_atom_site_fract_x
_atom_site_fract_y
_atom_site_fract_z
N1 N 0.345(2) 0.124(2) 0.4538(14)
C1 C 0.307(3) 0.164(2) 0.3874(16)
H1 H 0.3351 0.1451 0.3499
C2 C 0.271(3) 0.208(3) 0.4794(16)
C3 C 0.224(3) 0.233(2) 0.4006(16)
H2 H 0.1944 0.2677 0.3678
N2 N 0.179(2) 0.256(2) 0.4597(15)
Cu1 Cu 0.1407(4) 0.3505(3) 0.5075(2)
N3 N 0.206(2) 0.276(2) 0.5704(14)
W1 W 0.44183(4) 0.86480(4) 0.08283(3)
W2 W 0.08595(4) 0.65777(4) 0.24097(3)
W3 W 0.21721(4) 0.73686(4) 0.10047(3)
W4 W 0.63389(4) 0.64676(4) 0.09045(3)
W5 W 0.15977(4) 0.70711(4) 0.37778(3)
W6 W 0.27875(5) 0.44025(4) 0.24642(3)
W7 W 0.36561(5) 0.82305(4) 0.36276(3)
W8 W 0.50836(4) 0.90797(4) 0.20823(3)
W9 W 0.56108(4) 0.60711(4) 0.36575(3)
W10 W 0.35063(5) 0.48853(4) 0.38347(3)
W11 W 0.70543(4) 0.69284(4) 0.21373(3)
W12 W 0.40996(5) 0.51963(4) 0.10548(3)
W13 W 0.53518(5) 0.32522(4) 0.29333(3)
W14 W 0.16285(5) 0.97080(4) 0.13504(3)
W15 W 0.02563(5) 0.89238(4) 0.27596(3)
W16 W 0.66677(5) 0.39997(4) 0.15004(3)
W17 W 0.74212(5) 0.44406(4) 0.27426(3)
W18 W 0.22931(5) 1.01254(4) 0.26248(3)
P1 P 0.2913(2) 0.7891(2) 0.22912(16)
P2 P 0.4959(3) 0.5600(2) 0.23555(15)
Cu2 Cu 0.5000 0.5000 0.5000
Cu3 Cu 0.76303(17) 0.66109(14) -0.08630(10)
Cu4 Cu 0.30371(17) 0.89752(15) -0.15501(11)
Cu5 Cu 0.89733(18) 0.71943(14) 0.06189(12)
Cu6 Cu 0.87768(18) 0.15735(15) 0.40065(11)
O1 O 0.4609(7) 0.5258(6) 0.4183(4)
O2 O 0.3177(7) 0.4424(6) 0.1613(4)
O3 O 0.4468(7) 0.7075(6) 0.3768(4)
O4 O 0.4022(7) 0.5458(6) 0.2084(4)
O5 O 0.5104(7) 0.6046(6) 0.0820(4)
O6 O 0.2677(7) 0.6027(6) 0.3908(4)
O7 O 0.6543(7) 0.5043(6) 0.3388(4)
O8 O 0.3749(7) 0.9863(6) 0.2215(4)
O9 O 0.0822(7) 0.8188(6) 0.3439(4)
O10 O 0.4613(7) 0.3932(6) 0.3542(4)
O11 O 0.4060(7) 0.3593(6) 0.2600(4)
O12 O 0.2734(7) 0.9291(6) 0.3296(4)
O13 O 0.5316(7) 0.4314(6) 0.1259(4)
O14 O 0.5584(7) 0.6328(6) 0.1959(4)
O15 O 0.4703(7) 0.8535(6) 0.2922(4)
O16 O 0.1547(7) 0.8577(6) 0.1150(4)
O17 O 0.6140(7) 0.8030(6) 0.1987(4)
O18 O 0.5778(7) 0.4682(6) 0.2373(4)
O19 O 0.4594(7) 0.5763(6) 0.3016(4)
O20 O 0.2427(7) 0.7740(6) 0.4096(4)
O21 O 0.2782(7) 0.4732(6) 0.3244(4)
O22 O 0.2986(7) 0.7542(6) 0.2960(4)
O23 O 0.3991(7) 0.8124(6) 0.1903(4)
O24 O 0.7573(7) 0.5640(6) 0.2327(4)
O25 O 0.1926(7) 1.0516(6) 0.1812(4)
O26 O 0.2455(7) 0.7239(6) 0.2022(4)
O27 O 0.3117(7) 0.9470(6) 0.1018(4)
O28 O 0.6323(7) 0.6779(6) 0.2980(4)
O29 O 0.3992(7) 0.8720(6) 0.4156(4)
O30 O 0.3501(7) 0.7832(6) 0.0780(4)
O31 O 0.5921(7) 0.9808(6) 0.2132(4)
O32 O 0.5560(7) 0.7649(6) 0.0894(4)
O33 O 0.6207(7) 0.6123(6) 0.4251(4)
O34 O 0.0866(7) 0.9893(6) 0.2930(4)
O35 O 0.4008(8) 0.4887(6) 0.0390(4)
O36 O 0.2918(7) 0.4252(6) 0.4493(4)
O37 O 0.7080(7) 0.6623(6) 0.0180(4)
O38 O 0.7349(7) 0.6838(6) 0.1291(4)
O39 O 0.5132(7) 0.9301(6) 0.1219(4)
O40 O 0.2105(7) 0.8807(6) 0.2260(4)
O41 O 0.2962(7) 0.6172(6) 0.1073(4)
O42 O 0.7740(7) 0.3994(6) 0.1985(4)
O43 O 0.6131(7) 0.3072(6) 0.2125(4)
O44 O 0.4790(7) 0.9080(6) 0.0080(4)
O45 O -0.0296(7) 0.6133(6) 0.2592(4)
O46 O 0.1819(7) 0.5501(6) 0.2320(4)
O47 O 0.0319(7) 0.9576(6) 0.1945(4)
O48 O 0.6905(7) 0.5206(6) 0.1145(4)
O49 O 0.0951(7) 0.6899(6) 0.1543(4)
O50 O 0.8137(7) 0.7373(6) 0.2165(4)
O51 O 0.1207(7) 0.6541(6) 0.3195(4)
O52 O 0.0279(7) 0.7825(6) 0.2486(4)
O53 O 0.0678(7) 0.6810(6) 0.4415(4)
O54 O 0.1885(7) 0.3644(6) 0.2654(5)
O55 O 0.1819(7) 0.7456(6) 0.0317(4)
O56 O 0.7417(7) 0.3383(6) 0.0966(4)
O57 O 0.6698(7) 0.3407(6) 0.3101(4)
O58 O 0.1113(8) 1.0473(6) 0.0779(4)
O59 O 0.8602(8) 0.4084(7) 0.2989(5)
O60 O 0.2242(8) 1.1141(6) 0.2840(5)
O61 O 0.5240(8) 0.2158(6) 0.3286(4)
O62 O -0.1051(7) 0.9187(7) 0.3075(5)
N4 N 0.6285(9) 0.7293(8) -0.1059(5)
N5 N 0.7587(11) 0.2535(9) 0.4403(5)
N6 N 0.7735(10) 1.0150(9) 0.0997(6)
C4 C 0.7146(12) 0.3994(10) 0.4690(6)
H3 H 0.7378 0.4501 0.4763
N7 N 0.6087(10) 0.3940(8) 0.4775(5)
N8 N 0.7611(10) 0.1145(9) 0.2237(6)
N9 N 1.1304(10) 0.4475(8) 0.0774(6)
N10 N 0.8518(10) 0.8445(9) 0.0660(6)
N11 N 0.4393(10) 0.8250(8) -0.1362(6)
N12 N 0.8376(11) 0.1357(9) 0.3269(6)
N13 N 0.9825(10) 0.6031(9) 0.0643(6)
C5 C 0.7277(11) 0.9809(10) 0.0628(7)
H4 H 0.6685 1.0148 0.0477
N14 N 0.0882(17) 0.4464(16) 0.5586(11)
C6 C 1.0666(12) 0.5852(11) 0.0211(7)
H5 H 1.0752 0.6253 -0.0158
C7 C 0.5367(12) 0.7261(10) -0.0654(7)
H6 H 0.5373 0.6906 -0.0269
C8 C 0.5808(12) 0.3184(10) 0.4687(7)
H7 H 0.5084 0.3122 0.4763
C9 C 0.6563(13) 0.2493(11) 0.4486(7)
H8 H 0.6340 0.1986 0.4407
C10 C 0.5306(12) 0.8233(10) -0.1745(7)
H9 H 0.5305 0.8561 -0.2139
C11 C 1.1424(12) 0.5088(11) 0.0291(7)
H10 H 1.2034 0.5015 -0.0012
C12 C 0.8798(14) 0.1672(11) 0.2693(8)
H11 H 0.9403 0.1958 0.2626
O63 O 0.8870(11) 0.7618(9) -0.1262(7)
H12 H 0.9190 0.7519 -0.1602
C13 C 0.7858(13) 0.3296(10) 0.4497(7)
H13 H 0.8585 0.3347 0.4425
C14 C 0.8998(12) 0.8764(11) 0.1029(8)
H14 H 0.9582 0.8418 0.1185
C15 C 0.4396(13) 0.7748(10) -0.0791(7)
H15 H 0.3764 0.7730 -0.0500
C16 C 0.6244(13) 0.7785(11) -0.1621(7)
H16 H 0.6866 0.7811 -0.1920
C17 C 0.7678(12) 0.8957(11) 0.0470(8)
H17 H 0.7337 0.8739 0.0219
C18 C 0.7548(13) 0.0898(11) 0.3307(8)
H18 H 0.7207 0.0652 0.3695
C19 C 0.7183(14) 0.0772(13) 0.2809(8)
H19 H 0.6633 0.0426 0.2868
C20 C 0.9713(13) 0.5399(11) 0.1120(8)
H20 H 0.9096 0.5480 0.1418
C21 C 1.0449(13) 0.4603(12) 0.1224(8)
H21 H 1.0275 0.4174 0.1571
N15 N -0.0498(15) 0.5669(15) 0.5598(11)
C22 C 0.8409(14) 0.1608(13) 0.2191(8)
H22 H 0.8714 0.1898 0.1807
N16 N 0.9560(13) 0.0693(11) 0.4571(7)
O64 O 1.0081(14) 0.2450(12) 0.3449(8)
H23 H 1.0545 0.2421 0.3652
C23 C 0.070(2) 0.4818(19) 0.6111(12)
H24 H 0.1097 0.4597 0.6421
C24 C 0.8593(13) 0.9633(11) 0.1172(8)
H25 H 0.8954 0.9862 0.1407
C25 C -0.009(2) 0.5512(18) 0.6135(12)
H26 H -0.0336 0.5838 0.6457
C26 C 0.007(2) 0.503(2) 0.5307(11)
C27 C 0.938(3) 0.072(2) 0.5177(13)
H27 H 0.9023 0.1253 0.5318
C28 C 1.027(3) 0.002(2) 0.4406(13)
H28 H 1.0556 0.0028 0.3991
C29 C 0.294(3) 0.176(2) 0.6468(15)
H29 H 0.3141 0.1558 0.6848
C30 C 0.207(3) 0.257(2) 0.6354(15)
H30 H 0.1620 0.2882 0.6650
N17 N 0.341(2) 0.134(2) 0.5969(16)
C31 C 0.284(3) 0.197(3) 0.5504(16)
N14A N -0.0882(17) 0.5536(16) 0.4414(11)
N15A N 0.0498(15) 0.4331(15) 0.4402(11)
C23A C -0.070(2) 0.5182(19) 0.3889(12)
H24A H -0.1097 0.5403 0.3579
C25A C 0.009(2) 0.4488(18) 0.3865(12)
H26A H 0.0336 0.4162 0.3543
C26A C -0.007(2) 0.497(2) 0.4693(11)
N16A N 1.0440(13) -0.0693(11) 0.5429(7)
C27A C 1.062(3) -0.072(2) 0.4823(13)
H27A H 1.0977 -0.1253 0.4682
C28A C 0.973(3) -0.002(2) 0.5594(13)
H28A H 0.9444 -0.0028 0.6009
N1A N -0.345(2) 0.876(2) 0.5462(14)
C1A C -0.307(3) 0.836(2) 0.6126(16)
H1A H -0.3351 0.8549 0.6501
C2A C -0.271(3) 0.792(3) 0.5206(16)
C3A C -0.224(3) 0.767(2) 0.5994(16)
H2A H -0.1944 0.7323 0.6322
N2A N -0.179(2) 0.744(2) 0.5403(15)
Cu1A Cu -0.1407(4) 0.6495(3) 0.4925(2)
N3A N -0.206(2) 0.724(2) 0.4296(14)
W1A W -0.44183(4) 0.13520(4) 0.91717(3)
W2A W -0.08595(4) 0.34223(4) 0.75903(3)
W3A W -0.21721(4) 0.26314(4) 0.89953(3)
W4A W -0.63389(4) 0.35324(4) 0.90955(3)
W5A W -0.15977(4) 0.29289(4) 0.62222(3)
W6A W -0.27875(5) 0.55975(4) 0.75358(3)
W7A W -0.36561(5) 0.17695(4) 0.63724(3)
W8A W -0.50836(4) 0.09203(4) 0.79177(3)
W9A W -0.56108(4) 0.39289(4) 0.63425(3)
W10A W -0.35063(5) 0.51147(4) 0.61653(3)
W11A W -0.70543(4) 0.30716(4) 0.78627(3)
W12A W -0.40996(5) 0.48037(4) 0.89452(3)
W13A W -0.53518(5) 0.67478(4) 0.70667(3)
W14A W -0.16285(5) 0.02920(4) 0.86496(3)
W15A W -0.02563(5) 0.10762(4) 0.72404(3)
W16A W -0.66677(5) 0.60003(4) 0.84996(3)
W17A W -0.74212(5) 0.55594(4) 0.72574(3)
W18A W -0.22931(5) -0.01254(4) 0.73752(3)
P1A P -0.2913(2) 0.2109(2) 0.77088(16)
P2A P -0.4959(3) 0.4400(2) 0.76445(15)
Cu3A Cu -0.76303(17) 0.33891(14) 1.08630(10)
Cu4A Cu -0.30371(17) 0.10248(15) 1.15501(11)
Cu5A Cu -0.89733(18) 0.28057(14) 0.93811(12)
O1A O -0.4609(7) 0.4742(6) 0.5817(4)
O2A O -0.3177(7) 0.5576(6) 0.8387(4)
O3A O -0.4468(7) 0.2925(6) 0.6232(4)
O4A O -0.4022(7) 0.4542(6) 0.7916(4)
O5A O -0.5104(7) 0.3954(6) 0.9180(4)
O6A O -0.2677(7) 0.3973(6) 0.6092(4)
O7A O -0.6543(7) 0.4957(6) 0.6612(4)
O8A O -0.3749(7) 0.0137(6) 0.7785(4)
O9A O -0.0822(7) 0.1812(6) 0.6561(4)
O10A O -0.4613(7) 0.6068(6) 0.6458(4)
O11A O -0.4060(7) 0.6407(6) 0.7400(4)
O12A O -0.2734(7) 0.0709(6) 0.6704(4)
O13A O -0.5316(7) 0.5686(6) 0.8741(4)
O14A O -0.5584(7) 0.3672(6) 0.8041(4)
O15A O -0.4703(7) 0.1465(6) 0.7078(4)
O16A O -0.1547(7) 0.1423(6) 0.8850(4)
O17A O -0.6140(7) 0.1970(6) 0.8013(4)
O18A O -0.5778(7) 0.5318(6) 0.7627(4)
O19A O -0.4594(7) 0.4237(6) 0.6984(4)
O20A O -0.2427(7) 0.2260(6) 0.5904(4)
O21A O -0.2782(7) 0.5268(6) 0.6756(4)
O22A O -0.2986(7) 0.2458(6) 0.7040(4)
O23A O -0.3991(7) 0.1876(6) 0.8097(4)
O24A O -0.7573(7) 0.4360(6) 0.7673(4)
O25A O -0.1926(7) -0.0516(6) 0.8188(4)
O26A O -0.2455(7) 0.2761(6) 0.7978(4)
O27A O -0.3117(7) 0.0530(6) 0.8982(4)
O28A O -0.6323(7) 0.3221(6) 0.7020(4)
O29A O -0.3992(7) 0.1280(6) 0.5844(4)
O30A O -0.3501(7) 0.2168(6) 0.9220(4)
O31A O -0.5921(7) 0.0192(6) 0.7868(4)
O32A O -0.5560(7) 0.2351(6) 0.9106(4)
O33A O -0.6207(7) 0.3877(6) 0.5749(4)
O34A O -0.0866(7) 0.0107(6) 0.7070(4)
O35A O -0.4008(8) 0.5113(6) 0.9610(4)
O36A O -0.2918(7) 0.5748(6) 0.5507(4)
O37A O -0.7080(7) 0.3377(6) 0.9820(4)
O38A O -0.7349(7) 0.3162(6) 0.8709(4)
O39A O -0.5132(7) 0.0699(6) 0.8781(4)
O40A O -0.2105(7) 0.1193(6) 0.7740(4)
O41A O -0.2962(7) 0.3828(6) 0.8927(4)
O42A O -0.7740(7) 0.6006(6) 0.8015(4)
O43A O -0.6131(7) 0.6928(6) 0.7875(4)
O44A O -0.4790(7) 0.0920(6) 0.9920(4)
O45A O 0.0296(7) 0.3867(6) 0.7408(4)
O46A O -0.1819(7) 0.4499(6) 0.7680(4)
O47A O -0.0319(7) 0.0424(6) 0.8055(4)
O48A O -0.6905(7) 0.4794(6) 0.8855(4)
O49A O -0.0951(7) 0.3101(6) 0.8457(4)
O50A O -0.8137(7) 0.2627(6) 0.7835(4)
O51A O -0.1207(7) 0.3459(6) 0.6805(4)
O52A O -0.0279(7) 0.2175(6) 0.7514(4)
O53A O -0.0678(7) 0.3190(6) 0.5585(4)
O54A O -0.1885(7) 0.6356(6) 0.7346(5)
O55A O -0.1819(7) 0.2544(6) 0.9683(4)
O56A O -0.7417(7) 0.6617(6) 0.9034(4)
O57A O -0.6698(7) 0.6593(6) 0.6899(4)
O58A O -0.1113(8) -0.0473(6) 0.9221(4)
O59A O -0.8602(8) 0.5916(7) 0.7011(5)
O60A O -0.2242(8) -0.1141(6) 0.7160(5)
O61A O -0.5240(8) 0.7842(6) 0.6714(4)
O62A O 0.1051(7) 0.0813(7) 0.6925(5)
N4A N -0.6285(9) 0.2707(8) 1.1059(5)
N6A N -0.7735(10) -0.0150(9) 0.9003(6)
N9A N -1.1304(10) 0.5525(8) 0.9226(6)
N10A N -0.8518(10) 0.1555(9) 0.9340(6)
N11A N -0.4393(10) 0.1750(8) 1.1362(6)
N13A N -0.9825(10) 0.3969(9) 0.9357(6)
C5A C -0.7277(11) 0.0191(10) 0.9372(7)
H4A H -0.6685 -0.0148 0.9523
C6A C -1.0666(12) 0.4148(11) 0.9789(7)
H5A H -1.0752 0.3747 1.0158
C7A C -0.5367(12) 0.2739(10) 1.0654(7)
H6A H -0.5373 0.3094 1.0269
C10A C -0.5306(12) 0.1767(10) 1.1745(7)
H9A H -0.5305 0.1439 1.2139
C11A C -1.1424(12) 0.4912(11) 0.9709(7)
H10A H -1.2034 0.4985 1.0012
O63A O -0.8870(11) 0.2382(9) 1.1262(7)
H12A H -0.9190 0.2481 1.1602
C14A C -0.8998(12) 0.1236(11) 0.8971(8)
H14A H -0.9582 0.1582 0.8815
C15A C -0.4396(13) 0.2252(10) 1.0791(7)
H15A H -0.3764 0.2270 1.0500
C16A C -0.6244(13) 0.2215(11) 1.1621(7)
H16A H -0.6866 0.2189 1.1920
C17A C -0.7678(12) 0.1043(11) 0.9530(8)
H17A H -0.7337 0.1261 0.9781
C20A C -0.9713(13) 0.4601(11) 0.8880(8)
H20A H -0.9096 0.4520 0.8582
C21A C -1.0449(13) 0.5397(12) 0.8776(8)
H21A H -1.0275 0.5826 0.8429
C24A C -0.8593(13) 0.0367(11) 0.8828(8)
H25A H -0.8954 0.0138 0.8593
C29A C -0.294(3) 0.824(2) 0.3532(15)
H29A H -0.3141 0.8442 0.3152
C30A C -0.207(3) 0.743(2) 0.3646(15)
H30A H -0.1620 0.7118 0.3350
N17A N -0.341(2) 0.866(2) 0.4031(16)
C31A C -0.284(3) 0.803(3) 0.4496(16)
Cu6A Cu 0.12232(18) 0.84265(15) 0.59935(11)
N5A N 0.2413(11) 0.7465(9) 0.5597(5)
C4A C 0.2854(12) 0.6006(10) 0.5310(6)
H3A H 0.2622 0.5499 0.5237
N7A N 0.3913(10) 0.6060(8) 0.5225(5)
N8A N 0.2389(10) 0.8855(9) 0.7763(6)
N12A N 0.1624(11) 0.8643(9) 0.6731(6)
C8A C 0.4192(12) 0.6816(10) 0.5313(7)
H7A H 0.4916 0.6878 0.5237
C9A C 0.3437(13) 0.7507(11) 0.5514(7)
H8A H 0.3660 0.8014 0.5593
C12A C 0.1202(14) 0.8328(11) 0.7307(8)
H11A H 0.0597 0.8042 0.7374
C13A C 0.2142(13) 0.6704(10) 0.5503(7)
H13A H 0.1415 0.6653 0.5575
C18A C 0.2452(13) 0.9102(11) 0.6693(8)
H18A H 0.2793 0.9348 0.6305
C19A C 0.2817(14) 0.9228(13) 0.7191(8)
H19A H 0.3367 0.9574 0.7132
C22A C 0.1591(14) 0.8392(13) 0.7809(8)
H22A H 0.1286 0.8102 0.8193
O64A O -0.0081(14) 0.7550(12) 0.6551(8)
H23A H -0.0545 0.7579 0.6348
Cu2_2 Cu -0.5000 0.5000 0.5000
Cu3_2 Cu -1.23697(17) 0.66109(14) 0.91370(10)
Cu3A_2 Cu 1.23697(17) 0.33891(14) 0.08630(10)
Cu4_2 Cu -0.69629(17) -0.10248(15) 0.84499(11)
Cu4_3 Cu 0.30371(17) 0.89752(15) 0.84499(11)
Cu4A_2 Cu 0.69629(17) 0.10248(15) 0.15501(11)
Cu4A_3 Cu 0.69629(17) 1.10248(15) 0.15501(11)
Cu6A_2 Cu 1.12232(18) -0.15735(15) 0.59935(11)
O1A_2 O 0.5391(7) 0.4742(6) 0.5817(4)
O31_2 O -0.4079(7) -0.0192(6) 1.2132(4)
O31A_2 O 0.4079(7) 1.0192(6) -0.2132(4)
O33A_2 O 0.3793(7) 0.3877(6) 0.5749(4)
N6_2 N -0.2265(10) 0.0150(9) 1.0997(6)
N6A_2 N 0.2265(10) 0.9850(9) -0.0997(6)
N8_2 N -0.2389(10) 0.1145(9) 1.2237(6)
N8A_2 N 0.2389(10) 0.8855(9) -0.2237(6)
N9_2 N -0.8696(10) 0.4475(8) 1.0774(6)
N9A_2 N 0.8696(10) 0.5525(8) -0.0774(6)
N16A_2 N 0.0440(13) 0.9307(11) 0.5429(7)
O65 O 0.0473(10) 0.7960(8) 0.9347(6)
H31 H 0.0597 0.8486 0.9358
H32 H -0.0053 0.7743 0.9594
loop_
_geom_bond_atom_site_label_1
_geom_bond_atom_site_label_2
_geom_bond_site_symmetry_1
_geom_bond_site_symmetry_2
N1 C1 1_555 1_555
C1 H1 1_555 1_555
C2 N1 1_555 1_555
C3 C1 1_555 1_555
H2 C3 1_555 1_555
N2 C2 1_555 1_555
Cu1 N2 1_555 1_555
N3 Cu1 1_555 1_555
W1 O23 1_555 1_555
W2 O26 1_555 1_555
W3 O16 1_555 1_555
W4 O5 1_555 1_555
W5 O6 1_555 1_555
W6 O2 1_555 1_555
W7 O3 1_555 1_555
W8 O8 1_555 1_555
W9 O1 1_555 1_555
W10 O1 1_555 1_555
W11 O14 1_555 1_555
W12 O2 1_555 1_555
W13 O10 1_555 1_555
W14 O16 1_555 1_555
W15 O9 1_555 1_555
W16 O13 1_555 1_555
W17 O7 1_555 1_555
W18 O8 1_555 1_555
P1 O22 1_555 1_555
P2 O4 1_555 1_555
Cu2 O1 1_555 1_555
Cu3 O37 1_555 1_555
Cu4 N11 1_555 1_555
Cu5 O38 1_555 1_555
Cu6 N5 1_555 1_555
O3 W9 1_555 1_555
O4 W6 1_555 1_555
O5 W12 1_555 1_555
O6 W10 1_555 1_555
O7 W9 1_555 1_555
O9 W5 1_555 1_555
O10 W10 1_555 1_555
O11 W6 1_555 1_555
O12 W7 1_555 1_555
O13 W12 1_555 1_555
O14 W4 1_555 1_555
O15 W7 1_555 1_555
O17 W8 1_555 1_555
O18 W13 1_555 1_555
O19 W9 1_555 1_555
O20 W5 1_555 1_555
O21 W6 1_555 1_555
O22 W5 1_555 1_555
O23 W8 1_555 1_555
O24 W11 1_555 1_555
O25 W14 1_555 1_555
O26 W3 1_555 1_555
O27 W1 1_555 1_555
O28 W9 1_555 1_555
O29 W7 1_555 1_555
O30 W1 1_555 1_555
O31 W8 1_555 1_555
O32 W1 1_555 1_555
O33 W9 1_555 1_555
O34 W15 1_555 1_555
O35 W12 1_555 1_555
O36 Cu1 1_555 1_555
O37 W4 1_555 1_555
O38 W4 1_555 1_555
O39 W1 1_555 1_555
O40 W14 1_555 1_555
O41 W3 1_555 1_555
O42 W16 1_555 1_555
O43 W13 1_555 1_555
O44 W1 1_555 1_555
O45 W2 1_555 1_555
O46 W2 1_555 1_555
O47 W14 1_555 1_555
O48 W4 1_555 1_555
O49 W2 1_555 1_555
O50 W11 1_555 1_555
O51 W2 1_555 1_555
O52 W2 1_555 1_555
O53 W5 1_555 1_555
O54 W6 1_555 1_555
O55 W3 1_555 1_555
O56 W16 1_555 1_555
O57 W13 1_555 1_555
O58 W14 1_555 1_555
O59 W17 1_555 1_555
O60 W18 1_555 1_555
O61 W13 1_555 1_555
O62 W15 1_555 1_555
N4 Cu3 1_555 1_555
N5 C9 1_555 1_555
N6 C5 1_555 1_555
C4 H3 1_555 1_555
N7 Cu2 1_555 1_555
N8 C19 1_555 1_555
N9 C11 1_555 1_555
N10 Cu5 1_555 1_555
N11 C10 1_555 1_555
N12 Cu6 1_555 1_555
N13 Cu5 1_555 1_555
C5 H4 1_555 1_555
N14 Cu1 1_555 1_555
C6 N13 1_555 1_555
H5 C6 1_555 1_555
C7 N4 1_555 1_555
H6 C7 1_555 1_555
C8 N7 1_555 1_555
H7 C8 1_555 1_555
C9 C8 1_555 1_555
H8 C9 1_555 1_555
C10 H9 1_555 1_555
C11 C6 1_555 1_555
H10 C11 1_555 1_555
C12 N12 1_555 1_555
H11 C12 1_555 1_555
O63 Cu3 1_555 1_555
H12 O63 1_555 1_555
C13 N5 1_555 1_555
H13 C13 1_555 1_555
C14 N10 1_555 1_555
H14 C14 1_555 1_555
C15 N11 1_555 1_555
H15 C15 1_555 1_555
C16 N4 1_555 1_555
H16 C16 1_555 1_555
C17 N10 1_555 1_555
H17 C17 1_555 1_555
C18 N12 1_555 1_555
H18 C18 1_555 1_555
C19 C18 1_555 1_555
H19 C19 1_555 1_555
C20 N13 1_555 1_555
H20 C20 1_555 1_555
C21 N9 1_555 1_555
H21 C21 1_555 1_555
N15 C25 1_555 1_555
C22 N8 1_555 1_555
H22 C22 1_555 1_555
N16 Cu6 1_555 1_555
O64 Cu6 1_555 1_555
H23 O64 1_555 1_555
C23 N14 1_555 1_555
H24 C23 1_555 1_555
C24 N6 1_555 1_555
H25 C24 1_555 1_555
C25 C23 1_555 1_555
H26 C25 1_555 1_555
C26 N14 1_555 1_555
C27 N16 1_555 1_555
H27 C27 1_555 1_555
C28 N16 1_555 1_555
H28 C28 1_555 1_555
C29 H29 1_555 1_555
C30 N3 1_555 1_555
H30 C30 1_555 1_555
N17 C29 1_555 1_555
C31 C2 1_555 1_555
O65 H31 1_555 1_555
H32 O65 1_555 1_555
N14A C23A 1_555 1_555
N15A Cu1 1_555 1_555
C23A H24A 1_555 1_555
C25A N15A 1_555 1_555
H26A C25A 1_555 1_555
C26A C26 1_555 1_555
N16A C27A 1_555 1_555
C27A C28 1_555 1_555
H27A C27A 1_555 1_555
C28A C27 1_555 1_555
H28A C28A 1_555 1_555
N1A C1A 1_555 1_555
C1A H1A 1_555 1_555
C2A N1A 1_555 1_555
C3A C1A 1_555 1_555
H2A C3A 1_555 1_555
N2A C2A 1_555 1_555
Cu1A O53 1_555 1_555
N3A Cu1A 1_555 1_555
W1A O23A 1_555 1_555
W2A O26A 1_555 1_555
W3A O16A 1_555 1_555
W4A O5A 1_555 1_555
W5A O6A 1_555 1_555
W6A O2A 1_555 1_555
W7A O3A 1_555 1_555
W8A O8A 1_555 1_555
W9A O1A 1_555 1_555
W10A O1A 1_555 1_555
W11A O14A 1_555 1_555
W12A O2A 1_555 1_555
W13A O10A 1_555 1_555
W14A O16A 1_555 1_555
W15A O9A 1_555 1_555
W16A O13A 1_555 1_555
W17A O7A 1_555 1_555
W18A O8A 1_555 1_555
P1A O22A 1_555 1_555
P2A O4A 1_555 1_555
Cu3A O37A 1_555 1_555
Cu4A N11A 1_555 1_555
Cu5A O38A 1_555 1_555
O1A Cu2_2 1_555 1_555
O3A W9A 1_555 1_555
O4A W6A 1_555 1_555
O5A W12A 1_555 1_555
O6A W10A 1_555 1_555
O7A W9A 1_555 1_555
O9A W5A 1_555 1_555
O10A W10A 1_555 1_555
O11A W6A 1_555 1_555
O12A W7A 1_555 1_555
O13A W12A 1_555 1_555
O14A W4A 1_555 1_555
O15A W7A 1_555 1_555
O17A W8A 1_555 1_555
O18A W13A 1_555 1_555
O19A W9A 1_555 1_555
O20A W5A 1_555 1_555
O21A W6A 1_555 1_555
O22A W5A 1_555 1_555
O23A W8A 1_555 1_555
O24A W11A 1_555 1_555
O25A W14A 1_555 1_555
O26A W3A 1_555 1_555
O27A W1A 1_555 1_555
O28A W9A 1_555 1_555
O29A W7A 1_555 1_555
O30A W1A 1_555 1_555
O31A W8A 1_555 1_555
O32A W1A 1_555 1_555
O33A W9A 1_555 1_555
O34A W15A 1_555 1_555
O35A W12A 1_555 1_555
O36A Cu1A 1_555 1_555
O37A W4A 1_555 1_555
O38A W4A 1_555 1_555
O39A W1A 1_555 1_555
O40A W14A 1_555 1_555
O41A W3A 1_555 1_555
O42A W16A 1_555 1_555
O43A W13A 1_555 1_555
O44A W1A 1_555 1_555
O45A W2A 1_555 1_555
O46A W2A 1_555 1_555
O47A W14A 1_555 1_555
O48A W4A 1_555 1_555
O49A W2A 1_555 1_555
O50A W11A 1_555 1_555
O51A W2A 1_555 1_555
O52A W2A 1_555 1_555
O53A Cu1 1_555 1_555
O54A W6A 1_555 1_555
O55A W3A 1_555 1_555
O56A W16A 1_555 1_555
O57A W13A 1_555 1_555
O58A W14A 1_555 1_555
O59A W17A 1_555 1_555
O60A W18A 1_555 1_555
O61A W13A 1_555 1_555
O62A W15A 1_555 1_555
N4A Cu3A 1_555 1_555
N6A C5A 1_555 1_555
N9A C11A 1_555 1_555
N10A Cu5A 1_555 1_555
N11A C10A 1_555 1_555
N13A Cu5A 1_555 1_555
C5A H4A 1_555 1_555
C6A N13A 1_555 1_555
H5A C6A 1_555 1_555
C7A N4A 1_555 1_555
H6A C7A 1_555 1_555
C10A H9A 1_555 1_555
C11A C6A 1_555 1_555
H10A C11A 1_555 1_555
O63A Cu3A 1_555 1_555
H12A O63A 1_555 1_555
C14A N10A 1_555 1_555
H14A C14A 1_555 1_555
C15A N11A 1_555 1_555
H15A C15A 1_555 1_555
C16A N4A 1_555 1_555
H16A C16A 1_555 1_555
C17A N10A 1_555 1_555
H17A C17A 1_555 1_555
C20A N13A 1_555 1_555
H20A C20A 1_555 1_555
C21A N9A 1_555 1_555
H21A C21A 1_555 1_555
C24A N6A 1_555 1_555
H25A C24A 1_555 1_555
C29A H29A 1_555 1_555
C30A N3A 1_555 1_555
H30A C30A 1_555 1_555
N17A C29A 1_555 1_555
C31A C2A 1_555 1_555
Cu6A N5A 1_555 1_555
N5A C9A 1_555 1_555
C4A H3A 1_555 1_555
N7A Cu2 1_555 1_555
N8A C19A 1_555 1_555
N12A Cu6A 1_555 1_555
C8A N7A 1_555 1_555
H7A C8A 1_555 1_555
C9A C8A 1_555 1_555
H8A C9A 1_555 1_555
C12A N12A 1_555 1_555
H11A C12A 1_555 1_555
C13A N5A 1_555 1_555
H13A C13A 1_555 1_555
C18A N12A 1_555 1_555
H18A C18A 1_555 1_555
C19A C18A 1_555 1_555
H19A C19A 1_555 1_555
C22A N8A 1_555 1_555
H22A C22A 1_555 1_555
O64A Cu6A 1_555 1_555
H23A O64A 1_555 1_555
Cu2_2 O33A 1_555 1_555
Cu3_2 N9A 1_555 1_555
Cu3A_2 N9 1_555 1_555
Cu4_2 O31A 1_555 1_555
Cu4_3 N8A 1_555 1_555
Cu4A_2 N8 1_555 1_555
Cu4A_3 O31 1_555 1_555
Cu6A_2 N16A 1_555 1_555
O1A_2 Cu2 1_555 1_555
O31_2 Cu4A 1_555 1_555
O31A_2 Cu4 1_555 1_555
O33A_2 Cu2 1_555 1_555
N6_2 Cu4A 1_555 1_555
N6A_2 Cu4 1_555 1_555
N8_2 Cu4A 1_555 1_555
N8A_2 Cu4 1_555 1_555
N9_2 Cu3A 1_555 1_555
N9A_2 Cu3 1_555 1_555
N16A_2 Cu6A 1_555 1_555
C3 N2 1_555 1_555
N3 C31 1_555 1_555
W3 O30 1_555 1_555
W3 O49 1_555 1_555
W4 O32 1_555 1_555
W5 O51 1_555 1_555
W6 O46 1_555 1_555
W7 O20 1_555 1_555
W7 O22 1_555 1_555
W8 O15 1_555 1_555
W8 O39 1_555 1_555
W10 O19 1_555 1_555
W10 O21 1_555 1_555
W10 O36 1_555 1_555
W11 O17 1_555 1_555
W11 O28 1_555 1_555
W11 O38 1_555 1_555
W12 O4 1_555 1_555
W12 O41 1_555 1_555
W13 O11 1_555 1_555
W14 O27 1_555 1_555
W15 O40 1_555 1_555
W15 O47 1_555 1_555
W15 O52 1_555 1_555
W16 O18 1_555 1_555
W16 O43 1_555 1_555
W16 O48 1_555 1_555
W17 O18 1_555 1_555
W17 O24 1_555 1_555
W17 O42 1_555 1_555
W17 O57 1_555 1_555
W18 O12 1_555 1_555
W18 O25 1_555 1_555
W18 O34 1_555 1_555
W18 O40 1_555 1_555
P1 O23 1_555 1_555
P1 O26 1_555 1_555
P1 O40 1_555 1_555
P2 O14 1_555 1_555
P2 O18 1_555 1_555
P2 O19 1_555 1_555
Cu2 O33 1_555 1_555
N6 Cu4A_3 1_555 1_555
C4 N7 1_555 1_555
C4 C13 1_555 1_555
C5 C17 1_555 1_555
C7 C15 1_555 1_555
C10 C16 1_555 1_555
C12 C22 1_555 1_555
C14 C24 1_555 1_555
C20 C21 1_555 1_555
N15 C26 1_555 1_555
N15 Cu1A 1_555 1_555
C29 C30 1_555 1_555
N17 C31 1_555 1_555
N14A C26A 1_555 1_555
N14A Cu1A 1_555 1_555
N15A C26A 1_555 1_555
C23A C25A 1_555 1_555
N16A C28A 1_555 1_555
C3A N2A 1_555 1_555
N2A Cu1A 1_555 1_555
N3A C31A 1_555 1_555
W3A O30A 1_555 1_555
W3A O49A 1_555 1_555
W4A O32A 1_555 1_555
W5A O51A 1_555 1_555
W5A O53A 1_555 1_555
W6A O46A 1_555 1_555
W7A O20A 1_555 1_555
W7A O22A 1_555 1_555
W8A O15A 1_555 1_555
W8A O39A 1_555 1_555
W10A O19A 1_555 1_555
W10A O21A 1_555 1_555
W10A O36A 1_555 1_555
W11A O17A 1_555 1_555
W11A O28A 1_555 1_555
W11A O38A 1_555 1_555
W12A O4A 1_555 1_555
W12A O41A 1_555 1_555
W13A O11A 1_555 1_555
W14A O27A 1_555 1_555
W15A O40A 1_555 1_555
W15A O47A 1_555 1_555
W15A O52A 1_555 1_555
W16A O18A 1_555 1_555
W16A O43A 1_555 1_555
W16A O48A 1_555 1_555
W17A O18A 1_555 1_555
W17A O24A 1_555 1_555
W17A O42A 1_555 1_555
W17A O57A 1_555 1_555
W18A O12A 1_555 1_555
W18A O25A 1_555 1_555
W18A O34A 1_555 1_555
W18A O40A 1_555 1_555
P1A O23A 1_555 1_555
P1A O26A 1_555 1_555
P1A O40A 1_555 1_555
P2A O14A 1_555 1_555
P2A O18A 1_555 1_555
P2A O19A 1_555 1_555
N6A Cu4_2 1_555 1_555
C5A C17A 1_555 1_555
C7A C15A 1_555 1_555
C10A C16A 1_555 1_555
C14A C24A 1_555 1_555
C20A C21A 1_555 1_555
C29A C30A 1_555 1_555
N17A C31A 1_555 1_555
C4A N7A 1_555 1_555
C4A C13A 1_555 1_555
C12A C22A 1_555 1_555

#END
