
#######################################################################
#
#                 Cambridge Crystallographic Data Centre
#                                CCDC 
#
#######################################################################
#
# If this CIF has been generated from an entry in the Cambridge 
# Structural Database, then it will include bibliographic, chemical, 
# crystal, experimental, refinement or atomic coordinate data resulting 
# from the CCDC's data processing and validation procedures.
#
#######################################################################

data_DIPNOG01
_symmetry_cell_setting           monoclinic
_symmetry_space_group_name_H-M   'C 2/c'
_symmetry_Int_Tables_number      15
_space_group_name_Hall           '-C 2yn'
loop_
_symmetry_equiv_pos_site_id
_symmetry_equiv_pos_as_xyz
1 x,y,z
2 -x,y,1/2-z
3 1/2+x,1/2+y,z
4 1/2-x,1/2+y,1/2-z
5 -x,-y,-z
6 x,-y,1/2+z
7 1/2-x,1/2-y,-z
8 1/2+x,1/2-y,1/2+z
_cell_length_a                   17.045(10)
_cell_length_b                   12.443(8)
_cell_length_c                   7.775(7)
_cell_angle_alpha                90
_cell_angle_beta                 92.483(9)
_cell_angle_gamma                90
_cell_volume                     1647.46
loop_
_atom_site_label
_atom_site_type_symbol
_atom_site_fract_x
_atom_site_fract_y
_atom_site_fract_z
Ca1 Ca 0.0000 0.45278(3) 0.2500
N1 N 0.24852(8) 0.14865(13) 0.7344(2)
O1 O 0.05649(7) 0.39727(10) 0.51684(14)
O2 O 0.10094(7) 0.41195(9) 0.78556(13)
O3 O 0.10005(7) 0.34714(9) 0.12126(16)
C1 C 0.14270(8) 0.26105(11) 0.62720(18)
C2 C 0.20435(9) 0.23717(13) 0.7444(2)
H1 H 0.2154 0.2851 0.8341
C3 C 0.23085(11) 0.07991(14) 0.6068(3)
H2 H 0.2608 0.0177 0.5993
C4 C 0.17070(11) 0.09615(14) 0.4858(3)
H3 H 0.1600 0.0456 0.3998
C5 C 0.12635(10) 0.18920(13) 0.4944(2)
H4 H 0.0863 0.2031 0.4124
C6 C 0.09702(8) 0.36345(11) 0.64353(18)
H5 H 0.1448(17) 0.3487(18) 0.171(3)
H6 H 0.0984(14) 0.3644(19) 0.020(4)
Ca1D Ca 0.0000 0.54722(3) 0.7500
Ca1D_2 Ca 0.0000 0.54722(3) -0.2500
N1A N -0.24852(8) 0.14865(13) -0.2344(2)
O1A O -0.05649(7) 0.39727(10) -0.01684(14)
O1D O -0.05649(7) 0.60273(10) 0.48316(14)
O1E O 0.05649(7) 0.60273(10) 0.01684(14)
O2A O -0.10094(7) 0.41195(9) -0.28556(13)
O2D O -0.10094(7) 0.58805(9) 0.21444(13)
O2E O 0.10094(7) 0.58805(9) 0.28556(13)
O3A O -0.10005(7) 0.34714(9) 0.37874(16)
C1A C -0.14270(8) 0.26105(11) -0.12720(18)
C2A C -0.20435(9) 0.23717(13) -0.2444(2)
H1A H -0.2154 0.2851 -0.3341
C3A C -0.23085(11) 0.07991(14) -0.1068(3)
H2A H -0.2608 0.0177 -0.0993
C4A C -0.17070(11) 0.09615(14) 0.0142(3)
H3A H -0.1600 0.0456 0.1002
C5A C -0.12635(10) 0.18920(13) 0.0056(2)
H4A H -0.0863 0.2031 0.0876
C6A C -0.09702(8) 0.36345(11) -0.14353(18)
H5A H -0.1448(17) 0.3487(18) 0.329(3)
H6A H -0.0984(14) 0.3644(19) 0.480(4)
O4 O 0.07567(14) 0.12196(16) 0.0407(3)
H7 H 0.0813(17) 0.183(3) 0.061(4)
H9 H 0.060(7) 0.106(7) -0.062(6)
O5 O 0.0000 0.0262(2) 0.7500
H8 H 0.014(4) -0.013(4) 0.676(8)
H8A H -0.014(4) -0.013(4) 0.824(8)
loop_
_geom_bond_atom_site_label_1
_geom_bond_atom_site_label_2
_geom_bond_site_symmetry_1
_geom_bond_site_symmetry_2
Ca1 O1 1_555 1_555
N1 C2 1_555 1_555
O1 C6 1_555 1_555
O2 C6 1_555 1_555
O3 Ca1 1_555 1_555
C1 C2 1_555 1_555
C2 H1 1_555 1_555
C3 N1 1_555 1_555
H2 C3 1_555 1_555
C4 C3 1_555 1_555
H3 C4 1_555 1_555
C5 C1 1_555 1_555
H4 C5 1_555 1_555
C6 C1 1_555 1_555
O4 H7 1_555 1_555
O5 H8 1_555 1_555
H5 O3 1_555 1_555
H6 O3 1_555 1_555
H9 O4 1_555 1_555
Ca1D O1 1_555 1_555
Ca1D_2 O1A 1_555 1_555
N1A C2A 1_555 1_555
O1A Ca1 1_555 1_555
O1D Ca1 1_555 1_555
O1E Ca1 1_555 1_555
O2A Ca1D_2 1_555 1_555
O2D Ca1 1_555 1_555
O2E Ca1 1_555 1_555
O3A Ca1 1_555 1_555
C1A C2A 1_555 1_555
C2A H1A 1_555 1_555
C3A N1A 1_555 1_555
H2A C3A 1_555 1_555
C4A C3A 1_555 1_555
H3A C4A 1_555 1_555
C5A C1A 1_555 1_555
H4A C5A 1_555 1_555
C6A O1A 1_555 1_555
H5A O3A 1_555 1_555
H6A O3A 1_555 1_555
H8A O5 1_555 1_555
O2 Ca1D 1_555 1_555
C4 C5 1_555 1_555
Ca1D O1D 1_555 1_555
Ca1D_2 O1E 1_555 1_555
O2A C6A 1_555 1_555
C1A C6A 1_555 1_555
C4A C5A 1_555 1_555

#END
