
#######################################################################
#
#                 Cambridge Crystallographic Data Centre
#                                CCDC 
#
#######################################################################
#
# If this CIF has been generated from an entry in the Cambridge 
# Structural Database, then it will include bibliographic, chemical, 
# crystal, experimental, refinement or atomic coordinate data resulting 
# from the CCDC's data processing and validation procedures.
#
#######################################################################

data_DIPPUP
_symmetry_cell_setting           triclinic
_symmetry_space_group_name_H-M   'P -1'
_symmetry_Int_Tables_number      2
_space_group_name_Hall           '-P 1'
loop_
_symmetry_equiv_pos_site_id
_symmetry_equiv_pos_as_xyz
1 x,y,z
2 -x,-y,-z
_cell_length_a                   7.5672(15)
_cell_length_b                   11.404(2)
_cell_length_c                   12.395(5)
_cell_angle_alpha                97.24(3)
_cell_angle_beta                 107.62(3)
_cell_angle_gamma                102.99(3)
_cell_volume                     971.441
loop_
_atom_site_label
_atom_site_type_symbol
_atom_site_fract_x
_atom_site_fract_y
_atom_site_fract_z
C1 C 0.2698(3) -0.03498(19) 0.67379(17)
C2 C 0.3942(3) -0.06963(19) 0.77702(17)
C3 C 0.3140(4) -0.1296(2) 0.84855(19)
H1 H 0.1813 -0.1487 0.8324
C4 C 0.4299(4) -0.1614(2) 0.9445(2)
H2 H 0.3740 -0.2005 0.9924
C5 C 0.6267(5) -0.1356(2) 0.9694(2)
C6 C 0.7068(4) -0.0774(3) 0.8960(2)
H3 H 0.8389 -0.0612 0.9107
C7 C 0.5931(3) -0.0429(2) 0.80120(19)
H4 H 0.6493 -0.0023 0.7542
C8 C 0.7550(6) -0.1670(3) 1.0746(2)
H5 H 0.8053 -0.0969 1.1377
H6 H 0.8598 -0.1894 1.0573
H7 H 0.6813 -0.2347 1.0957
C9 C -0.0267(3) 0.18276(19) 0.63866(17)
C10 C -0.0449(3) 0.2903(2) 0.71352(17)
C11 C -0.2163(3) 0.2861(2) 0.73509(19)
H8 H -0.3171 0.2139 0.7083
C12 C -0.2365(4) 0.3900(2) 0.7969(2)
H9 H -0.3524 0.3867 0.8095
C13 C -0.0876(4) 0.4985(2) 0.83999(19)
C14 C 0.0858(4) 0.5000(2) 0.82135(19)
H10 H 0.1891 0.5706 0.8520
C15 C 0.1067(3) 0.3981(2) 0.75796(18)
H11 H 0.2224 0.4017 0.7450
C16 C -0.1110(5) 0.6105(3) 0.9070(2)
H12 H -0.1259 0.6704 0.8594
H13 H 0.0012 0.6452 0.9751
H14 H -0.2231 0.5873 0.9290
C17 C 0.5173(3) 0.21603(18) 0.45192(17)
H15 H 0.5879 0.1667 0.4891
C18 C 0.2856(3) 0.2921(2) 0.3764(2)
H16 H 0.1636 0.3046 0.3517
C19 C 0.4452(3) 0.3610(2) 0.3620(2)
H17 H 0.4534 0.4282 0.3264
C20 C 0.7927(3) 0.35395(19) 0.41689(19)
H18 H 0.7962 0.3559 0.3396
H19 H 0.8615 0.2963 0.4470
C21 C 0.8935(3) 0.48146(18) 0.49375(18)
H20 H 0.8815 0.4816 0.5695
H21 H 0.8320 0.5408 0.4602
Co1 Co 0.15948(4) 0.07568(2) 0.48639(2)
N1 N 0.3321(3) 0.20105(16) 0.43322(15)
N2 N 0.5915(3) 0.31120(16) 0.41074(15)
O1 O 0.3496(2) 0.03743(15) 0.62280(13)
O2 O 0.0892(2) -0.08237(14) 0.64270(13)
O3 O 0.1095(2) 0.20177(14) 0.59914(13)
O4 O -0.1538(2) 0.08093(14) 0.61649(14)
C17A C 1.4827(3) 0.78397(18) 0.54808(17)
H15A H 1.4121 0.8333 0.5109
C18A C 1.7144(3) 0.7079(2) 0.6236(2)
H16A H 1.8364 0.6954 0.6483
C19A C 1.5548(3) 0.6390(2) 0.6380(2)
H17A H 1.5466 0.5718 0.6736
C20A C 1.2073(3) 0.64605(19) 0.58311(19)
H18A H 1.2038 0.6441 0.6604
H19A H 1.1385 0.7037 0.5530
C21A C 1.1065(3) 0.51854(18) 0.50625(18)
H20A H 1.1185 0.5184 0.4305
H21A H 1.1680 0.4592 0.5398
N1A N 1.6679(3) 0.79895(16) 0.56678(15)
N2A N 1.4085(3) 0.68880(16) 0.58926(15)
C1A C -0.2698(3) 0.03498(19) 0.32621(17)
C2A C -0.3942(3) 0.06963(19) 0.22298(17)
C3A C -0.3140(4) 0.1296(2) 0.15145(19)
H1A H -0.1813 0.1487 0.1676
C4A C -0.4299(4) 0.1614(2) 0.0555(2)
H2A H -0.3740 0.2005 0.0076
C5A C -0.6267(5) 0.1356(2) 0.0306(2)
C6A C -0.7068(4) 0.0774(3) 0.1040(2)
H3A H -0.8389 0.0612 0.0893
C7A C -0.5931(3) 0.0429(2) 0.19880(19)
H4A H -0.6493 0.0023 0.2458
C8A C -0.7550(6) 0.1670(3) -0.0746(2)
H5A H -0.8053 0.0969 -0.1377
H6A H -0.8598 0.1894 -0.0573
H7A H -0.6813 0.2347 -0.0957
C9A C 0.0267(3) -0.18276(19) 0.36134(17)
C10A C 0.0449(3) -0.2903(2) 0.28648(17)
C11A C 0.2163(3) -0.2861(2) 0.26491(19)
H8A H 0.3171 -0.2139 0.2917
C12A C 0.2365(4) -0.3900(2) 0.2031(2)
H9A H 0.3524 -0.3867 0.1905
C13A C 0.0876(4) -0.4985(2) 0.16001(19)
C14A C -0.0858(4) -0.5000(2) 0.17865(19)
H10A H -0.1891 -0.5706 0.1480
C15A C -0.1067(3) -0.3981(2) 0.24204(18)
H11A H -0.2224 -0.4017 0.2550
C16A C 0.1110(5) -0.6105(3) 0.0930(2)
H12A H 0.1259 -0.6704 0.1406
H13A H -0.0012 -0.6452 0.0249
H14A H 0.2231 -0.5873 0.0710
Co1A Co -0.15948(4) -0.07568(2) 0.51361(2)
O1A O -0.3496(2) -0.03743(15) 0.37720(13)
O2A O -0.0892(2) 0.08237(14) 0.35730(13)
O3A O -0.1095(2) -0.20177(14) 0.40086(13)
O4A O 0.1538(2) -0.08093(14) 0.38351(14)
Co1A_2 Co 1.84052(4) 0.92432(2) 0.51361(2)
N1A_2 N -0.3321(3) -0.20105(16) 0.56678(15)
loop_
_geom_bond_atom_site_label_1
_geom_bond_atom_site_label_2
_geom_bond_site_symmetry_1
_geom_bond_site_symmetry_2
C1 C2 1_555 1_555
C2 C3 1_555 1_555
C3 H1 1_555 1_555
C4 C3 1_555 1_555
H2 C4 1_555 1_555
C5 C4 1_555 1_555
C6 C5 1_555 1_555
H3 C6 1_555 1_555
C7 C2 1_555 1_555
H4 C7 1_555 1_555
C8 C5 1_555 1_555
H5 C8 1_555 1_555
H6 C8 1_555 1_555
H7 C8 1_555 1_555
C9 C10 1_555 1_555
C10 C11 1_555 1_555
C11 H8 1_555 1_555
C12 C11 1_555 1_555
H9 C12 1_555 1_555
C13 C12 1_555 1_555
C14 C13 1_555 1_555
H10 C14 1_555 1_555
C15 C10 1_555 1_555
H11 C15 1_555 1_555
C16 C13 1_555 1_555
H12 C16 1_555 1_555
H13 C16 1_555 1_555
H14 C16 1_555 1_555
C17 H15 1_555 1_555
C18 H16 1_555 1_555
C19 C18 1_555 1_555
H17 C19 1_555 1_555
C20 H18 1_555 1_555
H19 C20 1_555 1_555
C21 C20 1_555 1_555
H20 C21 1_555 1_555
H21 C21 1_555 1_555
Co1 N1 1_555 1_555
N1 C17 1_555 1_555
N2 C17 1_555 1_555
O1 C1 1_555 1_555
O2 C1 1_555 1_555
O3 C9 1_555 1_555
O4 C9 1_555 1_555
C17A H15A 1_555 1_555
C18A H16A 1_555 1_555
C19A C18A 1_555 1_555
H17A C19A 1_555 1_555
C20A H18A 1_555 1_555
H19A C20A 1_555 1_555
C21A C21 1_555 1_555
H20A C21A 1_555 1_555
H21A C21A 1_555 1_555
N1A C17A 1_555 1_555
N2A C17A 1_555 1_555
C1A C2A 1_555 1_555
C2A C3A 1_555 1_555
C3A H1A 1_555 1_555
C4A C3A 1_555 1_555
H2A C4A 1_555 1_555
C5A C4A 1_555 1_555
C6A C5A 1_555 1_555
H3A C6A 1_555 1_555
C7A C2A 1_555 1_555
H4A C7A 1_555 1_555
C8A C5A 1_555 1_555
H5A C8A 1_555 1_555
H6A C8A 1_555 1_555
H7A C8A 1_555 1_555
C9A C10A 1_555 1_555
C10A C11A 1_555 1_555
C11A H8A 1_555 1_555
C12A C11A 1_555 1_555
H9A C12A 1_555 1_555
C13A C12A 1_555 1_555
C14A C13A 1_555 1_555
H10A C14A 1_555 1_555
C15A C10A 1_555 1_555
H11A C15A 1_555 1_555
C16A C13A 1_555 1_555
H12A C16A 1_555 1_555
H13A C16A 1_555 1_555
H14A C16A 1_555 1_555
Co1A O2 1_555 1_555
O1A C1A 1_555 1_555
O2A Co1 1_555 1_555
O3A C9A 1_555 1_555
O4A Co1 1_555 1_555
Co1A_2 N1A 1_555 1_555
N1A_2 Co1A 1_555 1_555
C6 C7 1_555 1_555
C14 C15 1_555 1_555
C18 N1 1_555 1_555
C19 N2 1_555 1_555
C20 N2 1_555 1_555
Co1 O1 1_555 1_555
Co1 O3 1_555 1_555
O4 Co1A 1_555 1_555
C18A N1A 1_555 1_555
C19A N2A 1_555 1_555
C20A C21A 1_555 1_555
C20A N2A 1_555 1_555
C1A O2A 1_555 1_555
C6A C7A 1_555 1_555
C9A O4A 1_555 1_555
C14A C15A 1_555 1_555
Co1A O1A 1_555 1_555
Co1A O3A 1_555 1_555

#END
