
#######################################################################
#
#                 Cambridge Crystallographic Data Centre
#                                CCDC 
#
#######################################################################
#
# If this CIF has been generated from an entry in the Cambridge 
# Structural Database, then it will include bibliographic, chemical, 
# crystal, experimental, refinement or atomic coordinate data resulting 
# from the CCDC's data processing and validation procedures.
#
#######################################################################

data_DIPPOJ
_symmetry_cell_setting           triclinic
_symmetry_space_group_name_H-M   'P -1'
_symmetry_Int_Tables_number      2
_space_group_name_Hall           '-P 1'
loop_
_symmetry_equiv_pos_site_id
_symmetry_equiv_pos_as_xyz
1 x,y,z
2 -x,-y,-z
_cell_length_a                   7.5709(15)
_cell_length_b                   11.405(2)
_cell_length_c                   12.438(5)
_cell_angle_alpha                96.45(3)
_cell_angle_beta                 107.39(3)
_cell_angle_gamma                103.74(3)
_cell_volume                     975.893
loop_
_atom_site_label
_atom_site_type_symbol
_atom_site_fract_x
_atom_site_fract_y
_atom_site_fract_z
C1 C -0.0156(3) 0.7875(2) 0.0454(2)
H1 H -0.0842 0.8386 0.0103
C2 C 0.2150(4) 0.7098(2) 0.1186(3)
H2 H 0.3367 0.6976 0.1437
C3 C 0.0541(4) 0.6397(3) 0.1314(3)
H3 H 0.0442 0.5708 0.1651
C4 C -0.2924(3) 0.6469(2) 0.0799(2)
H4 H -0.3611 0.7040 0.0490
H5 H -0.2958 0.6453 0.1571
C5 C -0.3934(3) 0.5190(2) 0.0056(2)
H6 H -0.3317 0.4603 0.0397
H7 H -0.3820 0.5186 -0.0701
C6 C 0.5252(3) 0.8214(2) -0.1371(2)
C7 C 0.5434(4) 0.7143(2) -0.2119(2)
C8 C 0.7150(4) 0.7191(3) -0.2321(3)
H8 H 0.8166 0.7913 -0.2052
C9 C 0.7352(5) 0.6158(3) -0.2928(3)
H9 H 0.8519 0.6194 -0.3045
C10 C 0.5855(5) 0.5077(3) -0.3361(2)
C11 C 0.4108(5) 0.5061(3) -0.3184(3)
H10 H 0.3064 0.4357 -0.3492
C12 C 0.3908(4) 0.6067(2) -0.2565(2)
H11 H 0.2744 0.6029 -0.2443
C13 C 0.6080(7) 0.3960(3) -0.4015(3)
H12 H 0.7220 0.4191 -0.4223
H13 H 0.4971 0.3623 -0.4698
H14 H 0.6193 0.3354 -0.3542
C14 C 0.7665(3) 0.9661(2) 0.1701(2)
C15 C 0.8897(4) 0.9311(2) 0.2733(2)
C16 C 0.8074(5) 0.8715(3) 0.3453(3)
H15 H 0.6748 0.8535 0.3300
C17 C 0.9215(6) 0.8387(3) 0.4399(3)
H16 H 0.8649 0.8001 0.4884
C18 C 1.1178(6) 0.8622(3) 0.4635(3)
C19 C 1.1980(5) 0.9203(3) 0.3910(3)
H17 H 1.3302 0.9362 0.4058
C20 C 1.0880(4) 0.9556(3) 0.2968(2)
H18 H 1.1461 0.9955 0.2496
C21 C 1.2423(8) 0.8261(4) 0.5677(3)
H19 H 1.3653 0.8281 0.5599
H20 H 1.1791 0.7445 0.5731
H21 H 1.2610 0.8830 0.6359
N1 N 0.1710(3) 0.80125(18) 0.06327(18)
N2 N -0.0909(3) 0.69020(19) 0.08490(19)
Ni1 Ni 0.34542(4) 0.92552(3) 0.01413(3)
O1 O 0.3868(3) 0.80114(17) -0.09923(17)
O2 O 0.6549(3) 0.92210(16) -0.11427(17)
O3 O 0.5859(3) 0.91816(18) 0.13946(17)
O4 O 0.8475(3) 1.03895(18) 0.11921(17)
C1A C -0.9844(3) 0.2125(2) -0.0454(2)
H1A H -0.9158 0.1614 -0.0103
C2A C -1.2150(4) 0.2902(2) -0.1186(3)
H2A H -1.3367 0.3024 -0.1437
C3A C -1.0541(4) 0.3603(3) -0.1314(3)
H3A H -1.0442 0.4292 -0.1651
C4A C -0.7076(3) 0.3531(2) -0.0799(2)
H4A H -0.6389 0.2960 -0.0490
H5A H -0.7042 0.3547 -0.1571
C5A C -0.6066(3) 0.4810(2) -0.0056(2)
H6A H -0.6683 0.5397 -0.0397
H7A H -0.6180 0.4814 0.0701
N1A N -1.1710(3) 0.19875(18) -0.06327(18)
N2A N -0.9091(3) 0.30980(19) -0.08490(19)
C6A C -1.5252(3) 0.1786(2) 0.1371(2)
C7A C -1.5434(4) 0.2857(2) 0.2119(2)
C8A C -1.7150(4) 0.2809(3) 0.2321(3)
H8A H -1.8166 0.2087 0.2052
C9A C -1.7352(5) 0.3842(3) 0.2928(3)
H9A H -1.8519 0.3806 0.3045
C10A C -1.5855(5) 0.4923(3) 0.3361(2)
C11A C -1.4108(5) 0.4939(3) 0.3184(3)
H10A H -1.3064 0.5643 0.3492
C12A C -1.3908(4) 0.3933(2) 0.2565(2)
H11A H -1.2744 0.3971 0.2443
C13A C -1.6080(7) 0.6040(3) 0.4015(3)
H12A H -1.7220 0.5809 0.4223
H13A H -1.4971 0.6377 0.4698
H14A H -1.6193 0.6646 0.3542
C14A C -1.7665(3) 0.0339(2) -0.1701(2)
C15A C -1.8897(4) 0.0689(2) -0.2733(2)
C16A C -1.8074(5) 0.1285(3) -0.3453(3)
H15A H -1.6748 0.1465 -0.3300
C17A C -1.9215(6) 0.1613(3) -0.4399(3)
H16A H -1.8649 0.1999 -0.4884
C18A C -2.1178(6) 0.1378(3) -0.4635(3)
C19A C -2.1980(5) 0.0797(3) -0.3910(3)
H17A H -2.3302 0.0638 -0.4058
C20A C -2.0880(4) 0.0444(3) -0.2968(2)
H18A H -2.1461 0.0045 -0.2496
C21A C -2.2423(8) 0.1739(4) -0.5677(3)
H19A H -2.3653 0.1719 -0.5599
H20A H -2.1791 0.2555 -0.5731
H21A H -2.2610 0.1170 -0.6359
Ni1A Ni -1.34542(4) 0.07448(3) -0.01413(3)
O1A O -1.3868(3) 0.19886(17) 0.09923(17)
O2A O -1.6549(3) 0.07790(16) 0.11427(17)
O3A O -1.5859(3) 0.08184(18) -0.13946(17)
O4A O -1.8475(3) -0.03895(18) -0.11921(17)
Ni1_2 Ni -1.65458(4) -0.07448(3) 0.01413(3)
Ni1A_2 Ni 0.65458(4) 1.07448(3) -0.01413(3)
O2_2 O -1.3451(3) -0.07790(16) -0.11427(17)
O2A_2 O 0.3451(3) 1.07790(16) 0.11427(17)
O4_2 O -1.1525(3) 0.03895(18) 0.11921(17)
O4A_2 O 0.1525(3) 0.96105(18) -0.11921(17)
loop_
_geom_bond_atom_site_label_1
_geom_bond_atom_site_label_2
_geom_bond_site_symmetry_1
_geom_bond_site_symmetry_2
C1 H1 1_555 1_555
C2 H2 1_555 1_555
C3 C2 1_555 1_555
H3 C3 1_555 1_555
C4 H4 1_555 1_555
H5 C4 1_555 1_555
C5 C4 1_555 1_555
H6 C5 1_555 1_555
H7 C5 1_555 1_555
C6 C7 1_555 1_555
C7 C8 1_555 1_555
C8 H8 1_555 1_555
C9 C8 1_555 1_555
H9 C9 1_555 1_555
C10 C9 1_555 1_555
C11 C10 1_555 1_555
H10 C11 1_555 1_555
C12 C7 1_555 1_555
H11 C12 1_555 1_555
C13 C10 1_555 1_555
H12 C13 1_555 1_555
H13 C13 1_555 1_555
H14 C13 1_555 1_555
C14 C15 1_555 1_555
C15 C16 1_555 1_555
C16 H15 1_555 1_555
C17 C16 1_555 1_555
H16 C17 1_555 1_555
C18 C17 1_555 1_555
C19 C18 1_555 1_555
H17 C19 1_555 1_555
C20 C15 1_555 1_555
H18 C20 1_555 1_555
C21 C18 1_555 1_555
H19 C21 1_555 1_555
H20 C21 1_555 1_555
H21 C21 1_555 1_555
N1 C1 1_555 1_555
N2 C1 1_555 1_555
Ni1 N1 1_555 1_555
O1 C6 1_555 1_555
O2 C6 1_555 1_555
O3 C14 1_555 1_555
O4 C14 1_555 1_555
C1A H1A 1_555 1_555
C2A H2A 1_555 1_555
C3A C2A 1_555 1_555
H3A C3A 1_555 1_555
C4A H4A 1_555 1_555
H5A C4A 1_555 1_555
C5A C5 1_555 1_555
H6A C5A 1_555 1_555
H7A C5A 1_555 1_555
N1A C1A 1_555 1_555
N2A C1A 1_555 1_555
C6A C7A 1_555 1_555
C7A C8A 1_555 1_555
C8A H8A 1_555 1_555
C9A C8A 1_555 1_555
H9A C9A 1_555 1_555
C10A C9A 1_555 1_555
C11A C10A 1_555 1_555
H10A C11A 1_555 1_555
C12A C7A 1_555 1_555
H11A C12A 1_555 1_555
C13A C10A 1_555 1_555
H12A C13A 1_555 1_555
H13A C13A 1_555 1_555
H14A C13A 1_555 1_555
C14A C15A 1_555 1_555
C15A C16A 1_555 1_555
C16A H15A 1_555 1_555
C17A C16A 1_555 1_555
H16A C17A 1_555 1_555
C18A C17A 1_555 1_555
C19A C18A 1_555 1_555
H17A C19A 1_555 1_555
C20A C15A 1_555 1_555
H18A C20A 1_555 1_555
C21A C18A 1_555 1_555
H19A C21A 1_555 1_555
H20A C21A 1_555 1_555
H21A C21A 1_555 1_555
Ni1A N1A 1_555 1_555
O1A C6A 1_555 1_555
O2A C6A 1_555 1_555
O3A C14A 1_555 1_555
O4A C14A 1_555 1_555
Ni1_2 Ni1A 1_555 1_555
Ni1A_2 Ni1 1_555 1_555
O2_2 Ni1A 1_555 1_555
O2A_2 Ni1 1_555 1_555
O4_2 Ni1A 1_555 1_555
O4A_2 Ni1 1_555 1_555
C2 N1 1_555 1_555
C3 N2 1_555 1_555
C4 N2 1_555 1_555
C11 C12 1_555 1_555
C19 C20 1_555 1_555
Ni1 O1 1_555 1_555
Ni1 O3 1_555 1_555
O2 Ni1A_2 1_555 1_555
O4 Ni1A_2 1_555 1_555
C2A N1A 1_555 1_555
C3A N2A 1_555 1_555
C4A C5A 1_555 1_555
C4A N2A 1_555 1_555
C11A C12A 1_555 1_555
C19A C20A 1_555 1_555
Ni1A O1A 1_555 1_555
Ni1A O3A 1_555 1_555
O2A Ni1_2 1_555 1_555
O4A Ni1_2 1_555 1_555

#END
