
#######################################################################
#
#                 Cambridge Crystallographic Data Centre
#                                CCDC 
#
#######################################################################
#
# If this CIF has been generated from an entry in the Cambridge 
# Structural Database, then it will include bibliographic, chemical, 
# crystal, experimental, refinement or atomic coordinate data resulting 
# from the CCDC's data processing and validation procedures.
#
#######################################################################

data_DIPQIE
_symmetry_cell_setting           monoclinic
_symmetry_space_group_name_H-M   'P 21/c'
_symmetry_Int_Tables_number      14
_space_group_name_Hall           '-P 2ybc'
loop_
_symmetry_equiv_pos_site_id
_symmetry_equiv_pos_as_xyz
1 x,y,z
2 -x,1/2+y,1/2-z
3 -x,-y,-z
4 x,1/2-y,1/2+z
_cell_length_a                   10.2121(4)
_cell_length_b                   22.8989(10)
_cell_length_c                   6.4039(3)
_cell_angle_alpha                90
_cell_angle_beta                 93.316(4)
_cell_angle_gamma                90
_cell_volume                     1495.02
loop_
_atom_site_label
_atom_site_type_symbol
_atom_site_fract_x
_atom_site_fract_y
_atom_site_fract_z
S1 S 0.12408(5) 0.10092(2) 0.82875(8)
Na1 Na 0.26595(7) 0.21179(3) 0.86291(12)
N1 N 0.15547(16) -0.00494(7) 0.6467(2)
N2 N 0.66649(15) 0.13572(7) 0.8939(2)
N3 N 0.29369(15) 0.06020(7) 0.5418(2)
C1 C 0.60014(18) 0.14624(8) 0.7072(3)
N4 N 0.48596(15) 0.11637(7) 0.7049(2)
C2 C 0.19254(18) 0.05167(8) 0.6670(3)
C3 C 0.0540(2) -0.03320(9) 0.7629(3)
H1 H 0.046 -0.0734 0.7211
H2 H -0.0282 -0.0137 0.734
H3 H 0.0776 -0.0311 0.91
C4 C 0.2333(2) -0.03285(9) 0.5070(3)
H4 H 0.2281 -0.0718 0.4659
C5 C 0.31811(19) 0.00753(9) 0.4428(3)
H5 H 0.3823 0.0013 0.3479
C6 C 0.59296(19) 0.09855(9) 1.0100(3)
H6 H 0.6158 0.0844 1.1432
C7 C 0.79223(19) 0.16114(10) 0.9615(3)
H7 H 0.8616 0.1383 0.908
H8 H 0.8011 0.1616 1.1115
H9 H 0.797 0.2004 0.9095
C8 C 0.4820(2) 0.08664(9) 0.8943(3)
H10 H 0.4143 0.0627 0.9339
B1 B 0.3770(2) 0.11612(10) 0.5198(3)
S2 S 0.65366(5) 0.19035(2) 0.51359(7)
O1 O 0.11495(15) 0.27024(7) 0.6401(2)
O2 O 0.41349(14) 0.22764(7) 1.1496(2)
H11 H 0.316(2) 0.1565(9) 0.525(3)
H12 H 0.426(2) 0.1140(9) 0.370(3)
H13 H 0.478(3) 0.2451(14) 1.118(5)
H14 H 0.439(3) 0.2016(13) 1.225(5)
H15 H 0.074(3) 0.2941(12) 0.704(5)
H16 H 0.061(3) 0.2480(12) 0.597(4)
Na1C Na 0.26595(7) 0.28821(3) 0.36291(12)
Na1C_2 Na 0.26595(7) 0.28821(3) 1.36291(12)
O1C O 0.11495(15) 0.22976(7) 1.1401(2)
O2C O 0.41349(14) 0.27236(7) 0.6496(2)
O3 O 0.03139(16) -0.17791(7) 0.5293(2)
H17 H 0.111(3) -0.1780(11) 0.511(4)
H18 H -0.001(3) -0.1548(13) 0.443(5)
loop_
_geom_bond_atom_site_label_1
_geom_bond_atom_site_label_2
_geom_bond_site_symmetry_1
_geom_bond_site_symmetry_2
S1 Na1 1_555 1_555
Na1 O1 1_555 1_555
N1 C2 1_555 1_555
N2 C1 1_555 1_555
N3 C2 1_555 1_555
C1 N4 1_555 1_555
N4 C8 1_555 1_555
C2 S1 1_555 1_555
C3 N1 1_555 1_555
H1 C3 1_555 1_555
H2 C3 1_555 1_555
H3 C3 1_555 1_555
C4 N1 1_555 1_555
H4 C4 1_555 1_555
C5 N3 1_555 1_555
H5 C5 1_555 1_555
C6 N2 1_555 1_555
H6 C6 1_555 1_555
C7 N2 1_555 1_555
H7 C7 1_555 1_555
H8 C7 1_555 1_555
H9 C7 1_555 1_555
C8 C6 1_555 1_555
H10 C8 1_555 1_555
B1 N3 1_555 1_555
S2 C1 1_555 1_555
O1 H15 1_555 1_555
O2 Na1 1_555 1_555
H11 B1 1_555 1_555
H12 B1 1_555 1_555
H13 O2 1_555 1_555
H14 O2 1_555 1_555
H16 O1 1_555 1_555
O3 H17 1_555 1_555
H18 O3 1_555 1_555
Na1C O1 1_555 1_555
Na1C_2 O2 1_555 1_555
O1C Na1 1_555 1_555
O2C Na1 1_555 1_555
N4 B1 1_555 1_555
C4 C5 1_555 1_555
Na1C O2C 1_555 1_555
Na1C_2 O1C 1_555 1_555

#END
