
#######################################################################
#
#                 Cambridge Crystallographic Data Centre
#                                CCDC 
#
#######################################################################
#
# If this CIF has been generated from an entry in the Cambridge 
# Structural Database, then it will include bibliographic, chemical, 
# crystal, experimental, refinement or atomic coordinate data resulting 
# from the CCDC's data processing and validation procedures.
#
#######################################################################

data_DIPRUR
_symmetry_cell_setting           triclinic
_symmetry_space_group_name_H-M   'P -1'
_symmetry_Int_Tables_number      2
_space_group_name_Hall           '-P 1'
loop_
_symmetry_equiv_pos_site_id
_symmetry_equiv_pos_as_xyz
1 x,y,z
2 -x,-y,-z
_cell_length_a                   8.736(9)
_cell_length_b                   12.007(12)
_cell_length_c                   15.359(15)
_cell_angle_alpha                92.917(12)
_cell_angle_beta                 91.724(13)
_cell_angle_gamma                102.446(13)
_cell_volume                     1569.76
loop_
_atom_site_label
_atom_site_type_symbol
_atom_site_fract_x
_atom_site_fract_y
_atom_site_fract_z
Ge1 Ge 0.27235(4) 0.79087(4) 0.22999(2)
O1 O 0.3929(3) 0.7044(2) 0.15725(16)
O2 O 0.3497(4) 0.7617(3) 0.02358(18)
O3 O 0.4627(4) 0.6694(3) -0.10892(18)
H1 H 0.4246 0.7173 -0.0826
O4 O 0.1098(4) 1.1885(3) 0.4041(2)
H2 H 0.1646 1.1729 0.3649
O5 O 0.1462(3) 0.8616(2) 0.31154(16)
O6 O 0.2468(4) 1.0501(3) 0.3122(2)
N1 N 0.0827(3) 0.7208(3) 0.1629(2)
N2 N 0.4615(3) 0.8564(3) 0.29827(19)
N3 N 0.2204(4) 0.6563(3) 0.2958(2)
N4 N 0.3276(3) 0.9235(2) 0.16409(19)
C1 C 0.0445(5) 0.6003(4) 0.1723(3)
C2 C -0.0393(6) 0.5203(5) 0.1113(3)
H3 H -0.0877 0.5435 0.0628
C3 C -0.0514(6) 0.4032(5) 0.1227(4)
H4 H -0.1107 0.3483 0.0832
C4 C 0.0257(7) 0.3717(5) 0.1929(4)
H5 H 0.0185 0.2944 0.2004
C5 C 0.1136(6) 0.4508(5) 0.2528(3)
H6 H 0.1663 0.4265 0.2992
C6 C 0.1241(5) 0.5665(4) 0.2443(3)
C7 C 0.2599(5) 0.6580(4) 0.3805(3)
C8 C 0.1790(6) 0.5635(5) 0.4360(3)
H7 H 0.1042 0.5084 0.4002
H8 H 0.1258 0.5954 0.4816
H9 H 0.2556 0.5269 0.4613
C9 C 0.3736(5) 0.7454(4) 0.4206(3)
H10 H 0.3842 0.7438 0.4810
C10 C 0.4761(5) 0.8367(4) 0.3835(3)
C11 C 0.6030(5) 0.9121(5) 0.4421(3)
H11 H 0.6633 0.9704 0.4089
H12 H 0.6705 0.8667 0.4657
H13 H 0.5559 0.9469 0.4888
C12 C 0.5636(4) 0.9367(3) 0.2494(3)
C13 C 0.7256(5) 0.9707(4) 0.2623(3)
H14 H 0.7761 0.9445 0.3087
C14 C 0.8105(5) 1.0428(4) 0.2064(3)
H15 H 0.9179 1.0688 0.2171
C15 C 0.7394(5) 1.0775(4) 0.1345(3)
H16 H 0.7995 1.1257 0.0969
C16 C 0.5819(5) 1.0420(4) 0.1180(3)
H17 H 0.5359 1.0634 0.0679
C17 C 0.4887(4) 0.9735(3) 0.1759(2)
C18 C 0.2168(4) 0.9664(4) 0.1223(2)
C19 C 0.2507(5) 1.0863(4) 0.0958(3)
H18 H 0.3588 1.1211 0.1097
H19 H 0.1850 1.1283 0.1264
H20 H 0.2300 1.0870 0.0341
C20 C 0.0639(4) 0.9006(4) 0.1067(3)
H21 H -0.0068 0.9396 0.0828
C21 C 0.0001(5) 0.7860(4) 0.1210(3)
C22 C -0.1702(5) 0.7372(4) 0.0926(3)
H22 H -0.1983 0.6584 0.1062
H23 H -0.1838 0.7430 0.0309
H24 H -0.2362 0.7793 0.1229
C23 C 0.3920(4) 0.6949(3) 0.0726(2)
C24 C 0.4463(4) 0.5940(4) 0.0351(2)
C25 C 0.4679(4) 0.5066(4) 0.0877(2)
H25 H 0.4456 0.5108 0.1464
C26 C 0.4787(4) 0.5853(3) -0.0543(2)
C27 C 0.1631(5) 0.9651(4) 0.3426(3)
C28 C 0.0781(4) 0.9847(4) 0.4236(2)
C29 C 0.0218(4) 0.8920(4) 0.4747(3)
H26 H 0.0359 0.8197 0.4572
C30 C 0.0551(5) 1.0932(4) 0.4484(3)
O1A O 0.6071(3) 0.2956(2) -0.15725(16)
O2A O 0.6503(4) 0.2383(3) -0.02358(18)
O3A O 0.5373(4) 0.3306(3) 0.10892(18)
H1A H 0.5754 0.2827 0.0826
C23A C 0.6080(4) 0.3051(3) -0.0726(2)
C24A C 0.5537(4) 0.4060(4) -0.0351(2)
C25A C 0.5321(4) 0.4934(4) -0.0877(2)
H25A H 0.5544 0.4892 -0.1464
C26A C 0.5213(4) 0.4147(3) 0.0543(2)
O4A O -0.1098(4) 0.8115(3) 0.5959(2)
H2A H -0.1646 0.8271 0.6351
O5A O -0.1462(3) 1.1384(2) 0.68846(16)
O6A O -0.2468(4) 0.9499(3) 0.6878(2)
C27A C -0.1631(5) 1.0349(4) 0.6574(3)
C28A C -0.0781(4) 1.0153(4) 0.5764(2)
C29A C -0.0218(4) 1.1080(4) 0.5253(3)
H26A H -0.0359 1.1803 0.5428
C30A C -0.0551(5) 0.9068(4) 0.5516(3)
Ge1A Ge -0.27235(4) 1.20913(4) 0.77001(2)
N1A N -0.0827(3) 1.2792(3) 0.8371(2)
N2A N -0.4615(3) 1.1436(3) 0.70173(19)
N3A N -0.2204(4) 1.3437(3) 0.7042(2)
N4A N -0.3276(3) 1.0765(2) 0.83591(19)
C1A C -0.0445(5) 1.3997(4) 0.8277(3)
C2A C 0.0393(6) 1.4797(5) 0.8887(3)
H3A H 0.0877 1.4565 0.9372
C3A C 0.0514(6) 1.5968(5) 0.8773(4)
H4A H 0.1107 1.6517 0.9168
C4A C -0.0257(7) 1.6283(5) 0.8071(4)
H5A H -0.0185 1.7056 0.7996
C5A C -0.1136(6) 1.5492(5) 0.7472(3)
H6A H -0.1663 1.5735 0.7008
C6A C -0.1241(5) 1.4335(4) 0.7557(3)
C7A C -0.2599(5) 1.3420(4) 0.6195(3)
C8A C -0.1790(6) 1.4365(5) 0.5640(3)
H7A H -0.1042 1.4916 0.5998
H8A H -0.1258 1.4046 0.5184
H9A H -0.2556 1.4731 0.5387
C9A C -0.3736(5) 1.2546(4) 0.5794(3)
H10A H -0.3842 1.2562 0.5190
C10A C -0.4761(5) 1.1633(4) 0.6165(3)
C11A C -0.6030(5) 1.0879(5) 0.5579(3)
H11A H -0.6633 1.0296 0.5911
H12A H -0.6705 1.1333 0.5343
H13A H -0.5559 1.0531 0.5112
C12A C -0.5636(4) 1.0633(3) 0.7506(3)
C13A C -0.7256(5) 1.0293(4) 0.7377(3)
H14A H -0.7761 1.0555 0.6913
C14A C -0.8105(5) 0.9572(4) 0.7936(3)
H15A H -0.9179 0.9312 0.7829
C15A C -0.7394(5) 0.9225(4) 0.8655(3)
H16A H -0.7995 0.8743 0.9031
C16A C -0.5819(5) 0.9580(4) 0.8820(3)
H17A H -0.5359 0.9366 0.9321
C17A C -0.4887(4) 1.0265(3) 0.8241(2)
C18A C -0.2168(4) 1.0336(4) 0.8777(2)
C19A C -0.2507(5) 0.9137(4) 0.9042(3)
H18A H -0.3588 0.8789 0.8903
H19A H -0.1850 0.8717 0.8736
H20A H -0.2300 0.9130 0.9659
C20A C -0.0639(4) 1.0994(4) 0.8933(3)
H21A H 0.0068 1.0604 0.9172
C21A C -0.0001(5) 1.2140(4) 0.8790(3)
C22A C 0.1702(5) 1.2628(4) 0.9074(3)
H22A H 0.1983 1.3416 0.8938
H23A H 0.1838 1.2570 0.9691
H24A H 0.2362 1.2207 0.8771
Ge1A_2 Ge 0.72765(4) 0.20913(4) -0.22999(2)
O1A_2 O -0.3929(3) 1.2956(2) 0.84275(16)
O7 O 0.6722(5) 0.4501(4) 0.3390(3)
O8 O 0.4321(7) 0.3639(6) 0.3556(6)
C31 C 0.6155(9) 0.2522(6) 0.3175(4)
H27 H 0.5306 0.1864 0.3173
H28 H 0.6949 0.2457 0.3604
H29 H 0.6595 0.2568 0.2609
C32 C 0.5582(8) 0.3530(7) 0.3380(4)
C33 C 0.6220(9) 0.5541(6) 0.3550(7)
H30 H 0.5387 0.5594 0.3132
H31 H 0.5826 0.5577 0.4133
C34 C 0.7556(9) 0.6460(6) 0.3466(7)
H32 H 0.7259 0.7177 0.3576
H33 H 0.7927 0.6421 0.2885
H34 H 0.8374 0.6395 0.3879
loop_
_geom_bond_atom_site_label_1
_geom_bond_atom_site_label_2
_geom_bond_site_symmetry_1
_geom_bond_site_symmetry_2
Ge1 O1 1_555 1_555
O1 C23 1_555 1_555
O2 C23 1_555 1_555
O3 H1 1_555 1_555
O4 H2 1_555 1_555
O5 Ge1 1_555 1_555
O6 C27 1_555 1_555
N1 Ge1 1_555 1_555
N2 Ge1 1_555 1_555
N3 Ge1 1_555 1_555
N4 Ge1 1_555 1_555
C1 N1 1_555 1_555
C2 C1 1_555 1_555
H3 C2 1_555 1_555
C3 C2 1_555 1_555
H4 C3 1_555 1_555
C4 C3 1_555 1_555
H5 C4 1_555 1_555
C5 C4 1_555 1_555
H6 C5 1_555 1_555
C6 N3 1_555 1_555
C7 N3 1_555 1_555
C8 C7 1_555 1_555
H7 C8 1_555 1_555
H8 C8 1_555 1_555
H9 C8 1_555 1_555
C9 C7 1_555 1_555
H10 C9 1_555 1_555
C10 N2 1_555 1_555
C11 C10 1_555 1_555
H11 C11 1_555 1_555
H12 C11 1_555 1_555
H13 C11 1_555 1_555
C12 N2 1_555 1_555
C13 C12 1_555 1_555
H14 C13 1_555 1_555
C14 C13 1_555 1_555
H15 C14 1_555 1_555
C15 C14 1_555 1_555
H16 C15 1_555 1_555
C16 C15 1_555 1_555
H17 C16 1_555 1_555
C17 N4 1_555 1_555
C18 N4 1_555 1_555
C19 C18 1_555 1_555
H18 C19 1_555 1_555
H19 C19 1_555 1_555
H20 C19 1_555 1_555
C20 C18 1_555 1_555
H21 C20 1_555 1_555
C21 N1 1_555 1_555
C22 C21 1_555 1_555
H22 C22 1_555 1_555
H23 C22 1_555 1_555
H24 C22 1_555 1_555
C23 C24 1_555 1_555
C24 C25 1_555 1_555
C25 H25 1_555 1_555
C26 O3 1_555 1_555
C27 O5 1_555 1_555
C28 C27 1_555 1_555
C29 C28 1_555 1_555
H26 C29 1_555 1_555
C30 O4 1_555 1_555
O7 C32 1_555 1_555
O8 C32 1_555 1_555
C31 H27 1_555 1_555
H28 C31 1_555 1_555
H29 C31 1_555 1_555
C32 C31 1_555 1_555
C33 O7 1_555 1_555
H30 C33 1_555 1_555
H31 C33 1_555 1_555
C34 C33 1_555 1_555
H32 C34 1_555 1_555
H33 C34 1_555 1_555
H34 C34 1_555 1_555
O1A C23A 1_555 1_555
O2A C23A 1_555 1_555
O3A H1A 1_555 1_555
C23A C24A 1_555 1_555
C24A C25A 1_555 1_555
C25A C26 1_555 1_555
H25A C25A 1_555 1_555
C26A C25 1_555 1_555
O4A H2A 1_555 1_555
O5A C27A 1_555 1_555
O6A C27A 1_555 1_555
C27A C28A 1_555 1_555
C28A C29A 1_555 1_555
C29A C30 1_555 1_555
H26A C29A 1_555 1_555
C30A C29 1_555 1_555
Ge1A O5A 1_555 1_555
N1A Ge1A 1_555 1_555
N2A Ge1A 1_555 1_555
N3A Ge1A 1_555 1_555
N4A Ge1A 1_555 1_555
C1A N1A 1_555 1_555
C2A C1A 1_555 1_555
H3A C2A 1_555 1_555
C3A C2A 1_555 1_555
H4A C3A 1_555 1_555
C4A C3A 1_555 1_555
H5A C4A 1_555 1_555
C5A C4A 1_555 1_555
H6A C5A 1_555 1_555
C6A N3A 1_555 1_555
C7A N3A 1_555 1_555
C8A C7A 1_555 1_555
H7A C8A 1_555 1_555
H8A C8A 1_555 1_555
H9A C8A 1_555 1_555
C9A C7A 1_555 1_555
H10A C9A 1_555 1_555
C10A N2A 1_555 1_555
C11A C10A 1_555 1_555
H11A C11A 1_555 1_555
H12A C11A 1_555 1_555
H13A C11A 1_555 1_555
C12A N2A 1_555 1_555
C13A C12A 1_555 1_555
H14A C13A 1_555 1_555
C14A C13A 1_555 1_555
H15A C14A 1_555 1_555
C15A C14A 1_555 1_555
H16A C15A 1_555 1_555
C16A C15A 1_555 1_555
H17A C16A 1_555 1_555
C17A N4A 1_555 1_555
C18A N4A 1_555 1_555
C19A C18A 1_555 1_555
H18A C19A 1_555 1_555
H19A C19A 1_555 1_555
H20A C19A 1_555 1_555
C20A C18A 1_555 1_555
H21A C20A 1_555 1_555
C21A N1A 1_555 1_555
C22A C21A 1_555 1_555
H22A C22A 1_555 1_555
H23A C22A 1_555 1_555
H24A C22A 1_555 1_555
Ge1A_2 O1A 1_555 1_555
O1A_2 Ge1A 1_555 1_555
C1 C6 1_555 1_555
C5 C6 1_555 1_555
C9 C10 1_555 1_555
C12 C17 1_555 1_555
C16 C17 1_555 1_555
C20 C21 1_555 1_555
C24 C26 1_555 1_555
C28 C30 1_555 1_555
O3A C26A 1_555 1_555
C24A C26A 1_555 1_555
O4A C30A 1_555 1_555
C28A C30A 1_555 1_555
C1A C6A 1_555 1_555
C5A C6A 1_555 1_555
C9A C10A 1_555 1_555
C12A C17A 1_555 1_555
C16A C17A 1_555 1_555
C20A C21A 1_555 1_555

#END
