
#######################################################################
#
#                 Cambridge Crystallographic Data Centre
#                                CCDC 
#
#######################################################################
#
# If this CIF has been generated from an entry in the Cambridge 
# Structural Database, then it will include bibliographic, chemical, 
# crystal, experimental, refinement or atomic coordinate data resulting 
# from the CCDC's data processing and validation procedures.
#
#######################################################################

data_DIQFIU
_symmetry_cell_setting           orthorhombic
_symmetry_space_group_name_H-M   'C c c a'
_symmetry_Int_Tables_number      68
_space_group_name_Hall           '-C 2a 2ac'
loop_
_symmetry_equiv_pos_site_id
_symmetry_equiv_pos_as_xyz
1 x,y,z
2 -x,1/2-y,z
3 x,1/2-y,1/2-z
4 -x,y,1/2-z
5 1/2+x,1/2+y,z
6 1/2-x,-y,z
7 1/2+x,-y,1/2-z
8 1/2-x,1/2+y,1/2-z
9 -x,-y,-z
10 x,1/2+y,-z
11 -x,1/2+y,1/2+z
12 x,-y,1/2+z
13 1/2-x,1/2-y,-z
14 1/2+x,y,-z
15 1/2-x,y,1/2+z
16 1/2+x,1/2-y,1/2+z
_cell_length_a                   21.607(2)
_cell_length_b                   25.254(2)
_cell_length_c                   9.8677(11)
_cell_angle_alpha                90
_cell_angle_beta                 90
_cell_angle_gamma                90
_cell_volume                     5384.44
loop_
_atom_site_label
_atom_site_type_symbol
_atom_site_fract_x
_atom_site_fract_y
_atom_site_fract_z
Zn1 Zn 0.0000 0.2500 0.2500
S1 S 0.5000 -0.04594(5) 0.2500
O1 O 0.25487(9) 0.09218(10) 0.0663(2)
O2 O 0.0000 0.2500 0.4691(4)
H1 H -0.002(4) 0.269(3) 0.510(7)
N1 N 0.07367(11) 0.19106(11) 0.2513(3)
N2 N 0.27491(11) 0.08939(11) 0.2907(3)
H2 H 0.2631(14) 0.0965(11) 0.370(3)
C1 C 0.12178(15) 0.19544(14) 0.3369(3)
H3 H 0.1182 0.2185 0.4100
C2 C 0.17638(14) 0.16741(14) 0.3221(3)
H4 H 0.2083 0.1712 0.3845
C3 C 0.18261(13) 0.13361(12) 0.2124(3)
C4 C 0.13285(13) 0.12845(12) 0.1253(3)
H5 H 0.1352 0.1058 0.0512
C5 C 0.07975(13) 0.15709(12) 0.1492(3)
H6 H 0.0464 0.1525 0.0908
C6 C 0.24096(12) 0.10361(11) 0.1828(3)
C7 C 0.32976(12) 0.05869(12) 0.2807(3)
C8 C 0.33633(13) 0.01434(13) 0.3611(3)
H7 H 0.3051 0.0050 0.4212
C9 C 0.38943(13) -0.01626(13) 0.3523(3)
H8 H 0.3937 -0.0462 0.4065
C10 C 0.43599(12) -0.00250(13) 0.2634(3)
C11 C 0.42990(14) 0.04237(14) 0.1853(4)
H9 H 0.4615 0.0520 0.1262
C12 C 0.37707(13) 0.07331(14) 0.1938(3)
H10 H 0.3734 0.1038 0.1415
O1C O 0.74513(9) 0.09218(10) 0.4337(2)
N1C N 0.92633(11) 0.19106(11) 0.2487(3)
N2C N 0.72509(11) 0.08939(11) 0.2093(3)
H2C H 0.7369(14) 0.0965(11) 0.130(3)
C1C C 0.87822(15) 0.19544(14) 0.1631(3)
H3C H 0.8818 0.2185 0.0900
C2C C 0.82362(14) 0.16741(14) 0.1779(3)
H4C H 0.7917 0.1712 0.1155
C3C C 0.81739(13) 0.13361(12) 0.2876(3)
C4C C 0.86715(13) 0.12845(12) 0.3747(3)
H5C H 0.8648 0.1058 0.4488
C5C C 0.92025(13) 0.15709(12) 0.3508(3)
H6C H 0.9536 0.1525 0.4092
C6C C 0.75904(12) 0.10361(11) 0.3172(3)
C7C C 0.67024(12) 0.05869(12) 0.2193(3)
C8C C 0.66367(13) 0.01434(13) 0.1389(3)
H7C H 0.6949 0.0050 0.0788
C9C C 0.61057(13) -0.01626(13) 0.1477(3)
H8C H 0.6063 -0.0462 0.0935
C10C C 0.56401(12) -0.00250(13) 0.2366(3)
C11C C 0.57010(14) 0.04237(14) 0.3147(4)
H9C H 0.5385 0.0520 0.3738
C12C C 0.62293(13) 0.07331(14) 0.3062(3)
H10C H 0.6266 0.1038 0.3585
H1A H 0.002(4) 0.231(3) 0.510(7)
S1A S 0.5000 0.54594(5) 0.2500
O1B O 0.25487(9) 0.40782(10) 0.4337(2)
O2B O 0.0000 0.2500 0.0309(4)
H1B H -0.002(4) 0.231(3) -0.010(7)
N1B N 0.07367(11) 0.30894(11) 0.2487(3)
N2B N 0.27491(11) 0.41061(11) 0.2093(3)
H2B H 0.2631(14) 0.4035(11) 0.130(3)
C1B C 0.12178(15) 0.30456(14) 0.1631(3)
H3B H 0.1182 0.2815 0.0900
C2B C 0.17638(14) 0.33259(14) 0.1779(3)
H4B H 0.2083 0.3288 0.1155
C3B C 0.18261(13) 0.36639(12) 0.2876(3)
C4B C 0.13285(13) 0.37155(12) 0.3747(3)
H5B H 0.1352 0.3942 0.4488
C5B C 0.07975(13) 0.34291(12) 0.3508(3)
H6B H 0.0464 0.3475 0.4092
C6B C 0.24096(12) 0.39639(11) 0.3172(3)
C7B C 0.32976(12) 0.44131(12) 0.2193(3)
C8B C 0.33633(13) 0.48566(13) 0.1389(3)
H7B H 0.3051 0.4950 0.0788
C9B C 0.38943(13) 0.51626(13) 0.1477(3)
H8B H 0.3937 0.5462 0.0935
C10B C 0.43599(12) 0.50250(13) 0.2366(3)
C11B C 0.42990(14) 0.45763(14) 0.3147(4)
H9B H 0.4615 0.4480 0.3738
C12B C 0.37707(13) 0.42669(14) 0.3062(3)
H10B H 0.3734 0.3962 0.3585
O1A O 0.74513(9) 0.40782(10) 0.0663(2)
N1A N 0.92633(11) 0.30894(11) 0.2513(3)
N2A N 0.72509(11) 0.41061(11) 0.2907(3)
H2A H 0.7369(14) 0.4035(11) 0.370(3)
C1A C 0.87822(15) 0.30456(14) 0.3369(3)
H3A H 0.8818 0.2815 0.4100
C2A C 0.82362(14) 0.33259(14) 0.3221(3)
H4A H 0.7917 0.3288 0.3845
C3A C 0.81739(13) 0.36639(12) 0.2124(3)
C4A C 0.86715(13) 0.37155(12) 0.1253(3)
H5A H 0.8648 0.3942 0.0512
C5A C 0.92025(13) 0.34291(12) 0.1492(3)
H6A H 0.9536 0.3475 0.0908
C6A C 0.75904(12) 0.39639(11) 0.1828(3)
C7A C 0.67024(12) 0.44131(12) 0.2807(3)
C8A C 0.66367(13) 0.48566(13) 0.3611(3)
H7A H 0.6949 0.4950 0.4212
C9A C 0.61057(13) 0.51626(13) 0.3523(3)
H8A H 0.6063 0.5462 0.4065
C10A C 0.56401(12) 0.50250(13) 0.2634(3)
C11A C 0.57010(14) 0.45763(14) 0.1853(4)
H9A H 0.5385 0.4480 0.1262
C12A C 0.62293(13) 0.42669(14) 0.1938(3)
H10A H 0.6266 0.3962 0.1415
H1C H 0.002(4) 0.269(3) -0.010(7)
Zn1_2 Zn 1.0000 0.2500 0.2500
N1A_2 N -0.07367(11) 0.30894(11) 0.2513(3)
N1C_2 N -0.07367(11) 0.19106(11) 0.2487(3)
P1 P 0.35608(12) 0.2500 0.2500
F1 F 0.3984(6) 0.2180(5) 0.1771(13)
F2 F 0.3162(5) 0.2194(5) 0.1742(11)
F3 F 0.3661(8) 0.2848(4) 0.1456(10)
F1B F 0.3984(6) 0.2820(5) 0.3229(13)
F2B F 0.3162(5) 0.2806(5) 0.3258(11)
F3B F 0.3661(8) 0.2152(4) 0.3544(10)
O3 O 0.0039(5) 0.3314(4) 0.8567(11)
loop_
_geom_bond_atom_site_label_1
_geom_bond_atom_site_label_2
_geom_bond_site_symmetry_1
_geom_bond_site_symmetry_2
Zn1 O2 1_555 1_555
S1 C10 1_555 1_555
O1 C6 1_555 1_555
O2 H1 1_555 1_555
N1 Zn1 1_555 1_555
N2 H2 1_555 1_555
C1 N1 1_555 1_555
H3 C1 1_555 1_555
C2 C1 1_555 1_555
H4 C2 1_555 1_555
C3 C2 1_555 1_555
C4 C3 1_555 1_555
H5 C4 1_555 1_555
C5 N1 1_555 1_555
H6 C5 1_555 1_555
C6 N2 1_555 1_555
C7 N2 1_555 1_555
C8 C7 1_555 1_555
H7 C8 1_555 1_555
C9 C8 1_555 1_555
H8 C9 1_555 1_555
C10 C9 1_555 1_555
C11 C10 1_555 1_555
H9 C11 1_555 1_555
C12 C7 1_555 1_555
H10 C12 1_555 1_555
P1 F1 1_555 1_555
F2 P1 1_555 1_555
F3 P1 1_555 1_555
O1C C6C 1_555 1_555
N1C C1C 1_555 1_555
N2C H2C 1_555 1_555
C1C H3C 1_555 1_555
C2C C1C 1_555 1_555
H4C C2C 1_555 1_555
C3C C2C 1_555 1_555
C4C C3C 1_555 1_555
H5C C4C 1_555 1_555
C5C N1C 1_555 1_555
H6C C5C 1_555 1_555
C6C N2C 1_555 1_555
C7C N2C 1_555 1_555
C8C C7C 1_555 1_555
H7C C8C 1_555 1_555
C9C C8C 1_555 1_555
H8C C9C 1_555 1_555
C10C S1 1_555 1_555
C11C C10C 1_555 1_555
H9C C11C 1_555 1_555
C12C C7C 1_555 1_555
H10C C12C 1_555 1_555
H1A O2 1_555 1_555
S1A C10B 1_555 1_555
O1B C6B 1_555 1_555
O2B Zn1 1_555 1_555
H1B O2B 1_555 1_555
N1B Zn1 1_555 1_555
N2B H2B 1_555 1_555
C1B N1B 1_555 1_555
H3B C1B 1_555 1_555
C2B C1B 1_555 1_555
H4B C2B 1_555 1_555
C3B C2B 1_555 1_555
C4B C3B 1_555 1_555
H5B C4B 1_555 1_555
C5B N1B 1_555 1_555
H6B C5B 1_555 1_555
C6B N2B 1_555 1_555
C7B N2B 1_555 1_555
C8B C7B 1_555 1_555
H7B C8B 1_555 1_555
C9B C8B 1_555 1_555
H8B C9B 1_555 1_555
C10B C9B 1_555 1_555
C11B C10B 1_555 1_555
H9B C11B 1_555 1_555
C12B C7B 1_555 1_555
H10B C12B 1_555 1_555
O1A C6A 1_555 1_555
N1A C1A 1_555 1_555
N2A H2A 1_555 1_555
C1A H3A 1_555 1_555
C2A C1A 1_555 1_555
H4A C2A 1_555 1_555
C3A C2A 1_555 1_555
C4A C3A 1_555 1_555
H5A C4A 1_555 1_555
C5A N1A 1_555 1_555
H6A C5A 1_555 1_555
C6A N2A 1_555 1_555
C7A N2A 1_555 1_555
C8A C7A 1_555 1_555
H7A C8A 1_555 1_555
C9A C8A 1_555 1_555
H8A C9A 1_555 1_555
C10A S1A 1_555 1_555
C11A C10A 1_555 1_555
H9A C11A 1_555 1_555
C12A C7A 1_555 1_555
H10A C12A 1_555 1_555
H1C O2B 1_555 1_555
Zn1_2 N1C 1_555 1_555
N1A_2 Zn1 1_555 1_555
N1C_2 Zn1 1_555 1_555
F1B P1 1_555 1_555
F2B P1 1_555 1_555
F3B P1 1_555 1_555
C3 C6 1_555 1_555
C4 C5 1_555 1_555
C11 C12 1_555 1_555
C3C C6C 1_555 1_555
C4C C5C 1_555 1_555
C9C C10C 1_555 1_555
C11C C12C 1_555 1_555
C3B C6B 1_555 1_555
C4B C5B 1_555 1_555
C11B C12B 1_555 1_555
N1A Zn1_2 1_555 1_555
C3A C6A 1_555 1_555
C4A C5A 1_555 1_555
C9A C10A 1_555 1_555
C11A C12A 1_555 1_555

#END
