
#######################################################################
#
#                 Cambridge Crystallographic Data Centre
#                                CCDC 
#
#######################################################################
#
# If this CIF has been generated from an entry in the Cambridge 
# Structural Database, then it will include bibliographic, chemical, 
# crystal, experimental, refinement or atomic coordinate data resulting 
# from the CCDC's data processing and validation procedures.
#
#######################################################################

data_DIQFOA
_symmetry_cell_setting           orthorhombic
_symmetry_space_group_name_H-M   'C c c a'
_symmetry_Int_Tables_number      68
_space_group_name_Hall           '-C 2b 2bc'
loop_
_symmetry_equiv_pos_site_id
_symmetry_equiv_pos_as_xyz
1 x,y,z
2 1/2-x,-y,z
3 -x,y,1/2-z
4 1/2+x,-y,1/2-z
5 1/2+x,1/2+y,z
6 -x,1/2-y,z
7 1/2-x,1/2+y,1/2-z
8 x,1/2-y,1/2-z
9 -x,-y,-z
10 1/2+x,y,-z
11 x,-y,1/2+z
12 1/2-x,y,1/2+z
13 1/2-x,1/2-y,-z
14 x,1/2+y,-z
15 1/2+x,1/2-y,1/2+z
16 -x,1/2+y,1/2+z
_cell_length_a                   21.603(2)
_cell_length_b                   23.817(3)
_cell_length_c                   9.8782(11)
_cell_angle_alpha                90
_cell_angle_beta                 90
_cell_angle_gamma                90
_cell_volume                     5082.52
loop_
_atom_site_label
_atom_site_type_symbol
_atom_site_fract_x
_atom_site_fract_y
_atom_site_fract_z
Zn1 Zn 0.5000 0.2500 0.2500
O1 O 0.24442(8) 0.08626(8) 0.43988(18)
O2 O 0.0000 -0.03212(11) 0.2500
O3 O 0.5000 0.2500 0.0308(4)
H1 H 0.509(3) 0.2223(16) -0.001(6)
N1 N 0.42684(10) 0.18771(9) 0.2471(2)
N2 N 0.22335(9) 0.08404(9) 0.2154(2)
H2 H 0.2357(14) 0.0887(12) 0.143(3)
C1 C 0.42147(12) 0.15125(11) 0.3490(3)
H3 H 0.4562 0.1453 0.4061
C2 C 0.36750(12) 0.12174(11) 0.3754(3)
H4 H 0.3651 0.0970 0.4507
C3 C 0.31708(11) 0.12878(10) 0.2905(3)
C4 C 0.32285(12) 0.16497(12) 0.1810(3)
H5 H 0.2896 0.1700 0.1192
C5 C 0.37817(13) 0.19366(12) 0.1640(3)
H6 H 0.3818 0.2188 0.0897
C6 C 0.25797(11) 0.09808(10) 0.3221(2)
C7 C 0.16623(11) 0.05473(11) 0.2261(2)
C8 C 0.12038(11) 0.07367(11) 0.3145(3)
H7 H 0.1275 0.1058 0.3692
C9 C 0.06457(11) 0.04541(12) 0.3220(3)
H8 H 0.0333 0.0579 0.3823
C10 C 0.05448(11) -0.00122(11) 0.2412(2)
C11 C 0.09927(11) -0.01995(10) 0.1528(3)
H9 H 0.0919 -0.0519 0.0977
C12 C 0.15556(11) 0.00850(10) 0.1449(2)
H10 H 0.1866 -0.0039 0.0837
O1B O -0.24442(8) 0.08626(8) 0.06012(18)
N1B N -0.42684(10) 0.18771(9) 0.2529(2)
N2B N -0.22335(9) 0.08404(9) 0.2846(2)
H2B H -0.2357(14) 0.0887(12) 0.357(3)
C1B C -0.42147(12) 0.15125(11) 0.1510(3)
H3B H -0.4562 0.1453 0.0939
C2B C -0.36750(12) 0.12174(11) 0.1246(3)
H4B H -0.3651 0.0970 0.0493
C3B C -0.31708(11) 0.12878(10) 0.2095(3)
C4B C -0.32285(12) 0.16497(12) 0.3190(3)
H5B H -0.2896 0.1700 0.3808
C5B C -0.37817(13) 0.19366(12) 0.3360(3)
H6B H -0.3818 0.2188 0.4103
C6B C -0.25797(11) 0.09808(10) 0.1779(2)
C7B C -0.16623(11) 0.05473(11) 0.2739(2)
C8B C -0.12038(11) 0.07367(11) 0.1855(3)
H7B H -0.1275 0.1058 0.1308
C9B C -0.06457(11) 0.04541(12) 0.1780(3)
H8B H -0.0333 0.0579 0.1177
C10B C -0.05448(11) -0.00122(11) 0.2588(2)
C11B C -0.09927(11) -0.01995(10) 0.3472(3)
H9B H -0.0919 -0.0519 0.4023
C12B C -0.15556(11) 0.00850(10) 0.3551(2)
H10B H -0.1866 -0.0039 0.4163
H1E H 0.491(3) 0.2777(16) -0.001(6)
O1E O -0.24442(8) 0.41374(8) 0.43988(18)
O2E O 0.0000 0.53212(11) 0.2500
N1E N -0.42684(10) 0.31229(9) 0.2471(2)
N2E N -0.22335(9) 0.41596(9) 0.2154(2)
H2E H -0.2357(14) 0.4113(12) 0.143(3)
C1E C -0.42147(12) 0.34875(11) 0.3490(3)
H3E H -0.4562 0.3547 0.4061
C2E C -0.36750(12) 0.37826(11) 0.3754(3)
H4E H -0.3651 0.4030 0.4507
C3E C -0.31708(11) 0.37122(10) 0.2905(3)
C4E C -0.32285(12) 0.33503(12) 0.1810(3)
H5E H -0.2896 0.3300 0.1192
C5E C -0.37817(13) 0.30634(12) 0.1640(3)
H6E H -0.3818 0.2812 0.0897
C6E C -0.25797(11) 0.40192(10) 0.3221(2)
C7E C -0.16623(11) 0.44527(11) 0.2261(2)
C8E C -0.12038(11) 0.42633(11) 0.3145(3)
H7E H -0.1275 0.3942 0.3692
C9E C -0.06457(11) 0.45459(12) 0.3220(3)
H8E H -0.0333 0.4421 0.3823
C10E C -0.05448(11) 0.50122(11) 0.2412(2)
C11E C -0.09927(11) 0.51995(10) 0.1528(3)
H9E H -0.0919 0.5519 0.0977
C12E C -0.15556(11) 0.49150(10) 0.1449(2)
H10E H -0.1866 0.5039 0.0837
O1G O 0.24442(8) 0.41374(8) 0.06012(18)
N1G N 0.42684(10) 0.31229(9) 0.2529(2)
N2G N 0.22335(9) 0.41596(9) 0.2846(2)
H2G H 0.2357(14) 0.4113(12) 0.357(3)
C1G C 0.42147(12) 0.34875(11) 0.1510(3)
H3G H 0.4562 0.3547 0.0939
C2G C 0.36750(12) 0.37826(11) 0.1246(3)
H4G H 0.3651 0.4030 0.0493
C3G C 0.31708(11) 0.37122(10) 0.2095(3)
C4G C 0.32285(12) 0.33503(12) 0.3190(3)
H5G H 0.2896 0.3300 0.3808
C5G C 0.37817(13) 0.30634(12) 0.3360(3)
H6G H 0.3818 0.2812 0.4103
C6G C 0.25797(11) 0.40192(10) 0.1779(2)
C7G C 0.16623(11) 0.44527(11) 0.2739(2)
C8G C 0.12038(11) 0.42633(11) 0.1855(3)
H7G H 0.1275 0.3942 0.1308
C9G C 0.06457(11) 0.45459(12) 0.1780(3)
H8G H 0.0333 0.4421 0.1177
C10G C 0.05448(11) 0.50122(11) 0.2588(2)
C11G C 0.09927(11) 0.51995(10) 0.3472(3)
H9G H 0.0919 0.5519 0.4023
C12G C 0.15556(11) 0.49150(10) 0.3551(2)
H10G H 0.1866 0.5039 0.4163
O3B O 0.5000 0.2500 0.4692(4)
H1G H 0.509(3) 0.2777(16) 0.501(6)
H1B H 0.491(3) 0.2223(16) 0.501(6)
Zn1_2 Zn -0.5000 0.2500 0.2500
N1B_2 N 0.57316(10) 0.18771(9) 0.2529(2)
N1E_2 N 0.57316(10) 0.31229(9) 0.2471(2)
P1 P 0.64280(8) 0.2500 0.7500
F1 F 0.6446(3) 0.2947(2) 0.6328(5)
F2 F 0.5920(2) 0.21539(17) 0.6694(5)
F3 F 0.6917(3) 0.2136(2) 0.6749(6)
F1G F 0.6446(3) 0.2053(2) 0.8672(5)
F2G F 0.5920(2) 0.28461(17) 0.8306(5)
F3G F 0.6917(3) 0.2864(2) 0.8251(6)
O4 O 0.5072(4) 0.1645(3) 0.8655(9)
F4? F 0.6877(14) 0.2624(14) 0.619(3)
F5? F 0.6406(18) 0.1941(11) 0.686(4)
F6? F 0.5944(8) 0.2882(8) 0.6748(19)
loop_
_geom_bond_atom_site_label_1
_geom_bond_atom_site_label_2
_geom_bond_site_symmetry_1
_geom_bond_site_symmetry_2
Zn1 O3 1_555 1_555
O1 C6 1_555 1_555
O2 C10 1_555 1_555
O3 H1 1_555 1_555
N1 Zn1 1_555 1_555
N2 H2 1_555 1_555
C1 N1 1_555 1_555
H3 C1 1_555 1_555
C2 C1 1_555 1_555
H4 C2 1_555 1_555
C3 C2 1_555 1_555
C4 C3 1_555 1_555
H5 C4 1_555 1_555
C5 N1 1_555 1_555
H6 C5 1_555 1_555
C6 N2 1_555 1_555
C7 N2 1_555 1_555
C8 C7 1_555 1_555
H7 C8 1_555 1_555
C9 C8 1_555 1_555
H8 C9 1_555 1_555
C10 C9 1_555 1_555
C11 C10 1_555 1_555
H9 C11 1_555 1_555
C12 C7 1_555 1_555
H10 C12 1_555 1_555
P1 F1 1_555 1_555
F2 P1 1_555 1_555
F3 P1 1_555 1_555
O1B C6B 1_555 1_555
N1B C1B 1_555 1_555
N2B H2B 1_555 1_555
C1B H3B 1_555 1_555
C2B C1B 1_555 1_555
H4B C2B 1_555 1_555
C3B C2B 1_555 1_555
C4B C3B 1_555 1_555
H5B C4B 1_555 1_555
C5B N1B 1_555 1_555
H6B C5B 1_555 1_555
C6B N2B 1_555 1_555
C7B N2B 1_555 1_555
C8B C7B 1_555 1_555
H7B C8B 1_555 1_555
C9B C8B 1_555 1_555
H8B C9B 1_555 1_555
C10B O2 1_555 1_555
C11B C10B 1_555 1_555
H9B C11B 1_555 1_555
C12B C7B 1_555 1_555
H10B C12B 1_555 1_555
H1E O3 1_555 1_555
O1E C6E 1_555 1_555
O2E C10E 1_555 1_555
N1E C1E 1_555 1_555
N2E H2E 1_555 1_555
C1E H3E 1_555 1_555
C2E C1E 1_555 1_555
H4E C2E 1_555 1_555
C3E C2E 1_555 1_555
C4E C3E 1_555 1_555
H5E C4E 1_555 1_555
C5E N1E 1_555 1_555
H6E C5E 1_555 1_555
C6E N2E 1_555 1_555
C7E N2E 1_555 1_555
C8E C7E 1_555 1_555
H7E C8E 1_555 1_555
C9E C8E 1_555 1_555
H8E C9E 1_555 1_555
C10E C9E 1_555 1_555
C11E C10E 1_555 1_555
H9E C11E 1_555 1_555
C12E C7E 1_555 1_555
H10E C12E 1_555 1_555
O1G C6G 1_555 1_555
N1G Zn1 1_555 1_555
N2G H2G 1_555 1_555
C1G N1G 1_555 1_555
H3G C1G 1_555 1_555
C2G C1G 1_555 1_555
H4G C2G 1_555 1_555
C3G C2G 1_555 1_555
C4G C3G 1_555 1_555
H5G C4G 1_555 1_555
C5G N1G 1_555 1_555
H6G C5G 1_555 1_555
C6G N2G 1_555 1_555
C7G N2G 1_555 1_555
C8G C7G 1_555 1_555
H7G C8G 1_555 1_555
C9G C8G 1_555 1_555
H8G C9G 1_555 1_555
C10G O2E 1_555 1_555
C11G C10G 1_555 1_555
H9G C11G 1_555 1_555
C12G C7G 1_555 1_555
H10G C12G 1_555 1_555
O3B Zn1 1_555 1_555
H1G O3B 1_555 1_555
H1B O3B 1_555 1_555
Zn1_2 N1B 1_555 1_555
N1B_2 Zn1 1_555 1_555
N1E_2 Zn1 1_555 1_555
F1G P1 1_555 1_555
F2G P1 1_555 1_555
F3G P1 1_555 1_555
C3 C6 1_555 1_555
C4 C5 1_555 1_555
C11 C12 1_555 1_555
C3B C6B 1_555 1_555
C4B C5B 1_555 1_555
C9B C10B 1_555 1_555
C11B C12B 1_555 1_555
N1E Zn1_2 1_555 1_555
C3E C6E 1_555 1_555
C4E C5E 1_555 1_555
C11E C12E 1_555 1_555
C3G C6G 1_555 1_555
C4G C5G 1_555 1_555
C9G C10G 1_555 1_555
C11G C12G 1_555 1_555

#END
