
#######################################################################
#
#                 Cambridge Crystallographic Data Centre
#                                CCDC 
#
#######################################################################
#
# If this CIF has been generated from an entry in the Cambridge 
# Structural Database, then it will include bibliographic, chemical, 
# crystal, experimental, refinement or atomic coordinate data resulting 
# from the CCDC's data processing and validation procedures.
#
#######################################################################

data_DIQFUG
_symmetry_cell_setting           monoclinic
_symmetry_space_group_name_H-M   'C 2/c'
_symmetry_Int_Tables_number      15
_space_group_name_Hall           '-C 2yn'
loop_
_symmetry_equiv_pos_site_id
_symmetry_equiv_pos_as_xyz
1 x,y,z
2 -x,y,1/2-z
3 1/2+x,1/2+y,z
4 1/2-x,1/2+y,1/2-z
5 -x,-y,-z
6 x,-y,1/2+z
7 1/2-x,1/2-y,-z
8 1/2+x,1/2-y,1/2+z
_cell_length_a                   16.806(2)
_cell_length_b                   20.675(3)
_cell_length_c                   16.301(2)
_cell_angle_alpha                90
_cell_angle_beta                 102.190(2)
_cell_angle_gamma                90
_cell_volume                     5536.3
loop_
_atom_site_label
_atom_site_type_symbol
_atom_site_fract_x
_atom_site_fract_y
_atom_site_fract_z
Zn1 Zn 0.5000 0.34884(3) 0.7500
O1 O 0.41845(17) 0.46458(12) 0.34209(16)
O2 O -0.08196(15) 0.27358(12) -0.17352(17)
O3 O 0.5000 0.45663(18) 0.7500
H1 H 0.477(3) 0.479(2) 0.776(3)
O4 O 0.5000 0.2446(2) 0.7500
H2 H 0.470(3) 0.228(3) 0.717(3)
N1 N 0.47994(16) 0.35215(14) 0.61593(17)
N2 N 0.39015(19) 0.36059(15) 0.29876(19)
H3 H 0.393(3) 0.323(2) 0.311(3)
N3 N -0.06388(18) 0.38186(15) -0.1539(2)
H4 H -0.086(3) 0.416(2) -0.161(3)
N4 N -0.36951(17) 0.35040(14) -0.23791(17)
C1 C 0.5196(2) 0.39854(17) 0.5826(2)
H5 H 0.5636 0.4203 0.6182
C2 C 0.4993(2) 0.41582(16) 0.4992(2)
H6 H 0.5278 0.4497 0.4784
C3 C 0.4370(2) 0.38339(16) 0.4462(2)
C4 C 0.3979(2) 0.33353(17) 0.4787(2)
H7 H 0.3563 0.3092 0.4434
C5 C 0.4203(2) 0.31992(18) 0.5629(2)
H8 H 0.3926 0.2862 0.5850
C6 C 0.4138(2) 0.40641(17) 0.3569(2)
C7 C 0.3656(2) 0.37249(17) 0.2113(2)
C8 C 0.3176(2) 0.42577(18) 0.1800(2)
H9 H 0.3019 0.4561 0.2174
C9 C 0.2933(2) 0.43391(18) 0.0945(2)
H10 H 0.2618 0.4708 0.0734
C10 C 0.3139(2) 0.38925(17) 0.0382(2)
C11 C 0.3607(2) 0.33659(17) 0.0706(2)
H11 H 0.3752 0.3057 0.0332
C12 C 0.3870(2) 0.32773(17) 0.1567(2)
H12 H 0.4194 0.2913 0.1777
C13 C 0.2842(2) 0.39836(19) -0.0552(2)
H13 H 0.3097 0.3652 -0.0852
H14 H 0.3017 0.4414 -0.0714
C14 C 0.1919(2) 0.39309(17) -0.0821(2)
C15 C 0.1461(2) 0.44313(18) -0.1230(2)
H15 H 0.1726 0.4813 -0.1355
C16 C 0.0624(2) 0.43897(18) -0.1461(2)
H16 H 0.0320 0.4744 -0.1736
C17 C 0.0225(2) 0.38347(17) -0.1294(2)
C18 C 0.0675(2) 0.33261(18) -0.0876(2)
H17 H 0.0410 0.2945 -0.0748
C19 C 0.1516(2) 0.33798(18) -0.0645(2)
H18 H 0.1823 0.3031 -0.0360
C20 C -0.1094(2) 0.32863(17) -0.1739(2)
C21 C -0.2002(2) 0.33978(16) -0.1984(2)
C22 C -0.2391(2) 0.39007(18) -0.1668(2)
H19 H -0.2087 0.4217 -0.1311
C23 C -0.3232(2) 0.39344(18) -0.1881(2)
H20 H -0.3494 0.4282 -0.1663
C24 C -0.3310(2) 0.30214(17) -0.2689(2)
H21 H -0.3627 0.2715 -0.3053
C25 C -0.2476(2) 0.29514(17) -0.2505(2)
H22 H -0.2229 0.2600 -0.2732
H1A H 0.523(3) 0.479(2) 0.724(3)
H2A H 0.530(3) 0.228(3) 0.783(3)
O1A O -0.41845(17) 0.46458(12) 0.15791(16)
O2A O 0.08196(15) 0.27358(12) 0.67352(17)
N1A N -0.47994(16) 0.35215(14) -0.11593(17)
N2A N -0.39015(19) 0.36059(15) 0.20124(19)
H3A H -0.393(3) 0.323(2) 0.189(3)
N3A N 0.06388(18) 0.38186(15) 0.6539(2)
H4A H 0.086(3) 0.416(2) 0.661(3)
N4A N 0.36951(17) 0.35040(14) 0.73791(17)
C1A C -0.5196(2) 0.39854(17) -0.0826(2)
H5A H -0.5636 0.4203 -0.1182
C2A C -0.4993(2) 0.41582(16) 0.0008(2)
H6A H -0.5278 0.4497 0.0216
C3A C -0.4370(2) 0.38339(16) 0.0538(2)
C4A C -0.3979(2) 0.33353(17) 0.0213(2)
H7A H -0.3563 0.3092 0.0566
C5A C -0.4203(2) 0.31992(18) -0.0629(2)
H8A H -0.3926 0.2862 -0.0850
C6A C -0.4138(2) 0.40641(17) 0.1431(2)
C7A C -0.3656(2) 0.37249(17) 0.2887(2)
C8A C -0.3176(2) 0.42577(18) 0.3200(2)
H9A H -0.3019 0.4561 0.2826
C9A C -0.2933(2) 0.43391(18) 0.4055(2)
H10A H -0.2618 0.4708 0.4266
C10A C -0.3139(2) 0.38925(17) 0.4618(2)
C11A C -0.3607(2) 0.33659(17) 0.4294(2)
H11A H -0.3752 0.3057 0.4668
C12A C -0.3870(2) 0.32773(17) 0.3433(2)
H12A H -0.4194 0.2913 0.3223
C13A C -0.2842(2) 0.39836(19) 0.5552(2)
H13A H -0.3097 0.3652 0.5852
H14A H -0.3017 0.4414 0.5714
C14A C -0.1919(2) 0.39309(17) 0.5821(2)
C15A C -0.1461(2) 0.44313(18) 0.6230(2)
H15A H -0.1726 0.4813 0.6355
C16A C -0.0624(2) 0.43897(18) 0.6461(2)
H16A H -0.0320 0.4744 0.6736
C17A C -0.0225(2) 0.38347(17) 0.6294(2)
C18A C -0.0675(2) 0.33261(18) 0.5876(2)
H17A H -0.0410 0.2945 0.5748
C19A C -0.1516(2) 0.33798(18) 0.5645(2)
H18A H -0.1823 0.3031 0.5360
C20A C 0.1094(2) 0.32863(17) 0.6739(2)
C21A C 0.2002(2) 0.33978(16) 0.6984(2)
C22A C 0.2391(2) 0.39007(18) 0.6668(2)
H19A H 0.2087 0.4217 0.6311
C23A C 0.3232(2) 0.39344(18) 0.6881(2)
H20A H 0.3494 0.4282 0.6663
C24A C 0.3310(2) 0.30214(17) 0.7689(2)
H21A H 0.3627 0.2715 0.8053
C25A C 0.2476(2) 0.29514(17) 0.7505(2)
H22A H 0.2229 0.2600 0.7732
Zn1_2 Zn -0.5000 0.34884(3) -0.2500
N1A_2 N 0.52006(16) 0.35215(14) 0.88407(17)
N4_2 N 0.63049(17) 0.35040(14) 0.76209(17)
P1 P 0.15568(9) 0.36654(6) 0.39541(12)
F1 F 0.2324(3) 0.4042(2) 0.3979(5)
F2 F 0.0703(3) 0.3295(2) 0.3937(3)
F3 F 0.1313(3) 0.4143(2) 0.4626(3)
F4 F 0.1955(4) 0.3225(3) 0.4774(4)
F5 F 0.1778(4) 0.3122(2) 0.3493(4)
F6 F 0.1062(3) 0.4088(2) 0.3243(3)
O5 O 0.1194(2) 0.48351(15) 0.1722(2)
H23 H 0.127(4) 0.467(4) 0.221(5)
C26 C 0.0863(3) 0.4439(3) 0.1021(4)
H24 H 0.0865 0.4677 0.0501
H25 H 0.0302 0.4321 0.1041
H26 H 0.1192 0.4046 0.1036
loop_
_geom_bond_atom_site_label_1
_geom_bond_atom_site_label_2
_geom_bond_site_symmetry_1
_geom_bond_site_symmetry_2
Zn1 O3 1_555 1_555
O1 C6 1_555 1_555
O2 C20 1_555 1_555
O3 H1 1_555 1_555
O4 Zn1 1_555 1_555
H2 O4 1_555 1_555
N1 Zn1 1_555 1_555
N2 H3 1_555 1_555
N3 H4 1_555 1_555
N4 C23 1_555 1_555
C1 N1 1_555 1_555
H5 C1 1_555 1_555
C2 C1 1_555 1_555
H6 C2 1_555 1_555
C3 C2 1_555 1_555
C4 C3 1_555 1_555
H7 C4 1_555 1_555
C5 N1 1_555 1_555
H8 C5 1_555 1_555
C6 N2 1_555 1_555
C7 N2 1_555 1_555
C8 C7 1_555 1_555
H9 C8 1_555 1_555
C9 C8 1_555 1_555
H10 C9 1_555 1_555
C10 C9 1_555 1_555
C11 C10 1_555 1_555
H11 C11 1_555 1_555
C12 C7 1_555 1_555
H12 C12 1_555 1_555
C13 C10 1_555 1_555
H13 C13 1_555 1_555
H14 C13 1_555 1_555
C14 C13 1_555 1_555
C15 C14 1_555 1_555
H15 C15 1_555 1_555
C16 C15 1_555 1_555
H16 C16 1_555 1_555
C17 N3 1_555 1_555
C18 C17 1_555 1_555
H17 C18 1_555 1_555
C19 C14 1_555 1_555
H18 C19 1_555 1_555
C20 N3 1_555 1_555
C21 C20 1_555 1_555
C22 C21 1_555 1_555
H19 C22 1_555 1_555
C23 C22 1_555 1_555
H20 C23 1_555 1_555
C24 N4 1_555 1_555
H21 C24 1_555 1_555
C25 C21 1_555 1_555
H22 C25 1_555 1_555
P1 F1 1_555 1_555
F2 P1 1_555 1_555
F3 P1 1_555 1_555
F4 P1 1_555 1_555
F5 P1 1_555 1_555
F6 P1 1_555 1_555
O5 H23 1_555 1_555
C26 O5 1_555 1_555
H24 C26 1_555 1_555
H25 C26 1_555 1_555
H26 C26 1_555 1_555
H1A O3 1_555 1_555
H2A O4 1_555 1_555
O1A C6A 1_555 1_555
O2A C20A 1_555 1_555
N1A C1A 1_555 1_555
N2A H3A 1_555 1_555
N3A H4A 1_555 1_555
N4A Zn1 1_555 1_555
C1A H5A 1_555 1_555
C2A C1A 1_555 1_555
H6A C2A 1_555 1_555
C3A C2A 1_555 1_555
C4A C3A 1_555 1_555
H7A C4A 1_555 1_555
C5A N1A 1_555 1_555
H8A C5A 1_555 1_555
C6A N2A 1_555 1_555
C7A N2A 1_555 1_555
C8A C7A 1_555 1_555
H9A C8A 1_555 1_555
C9A C8A 1_555 1_555
H10A C9A 1_555 1_555
C10A C9A 1_555 1_555
C11A C10A 1_555 1_555
H11A C11A 1_555 1_555
C12A C7A 1_555 1_555
H12A C12A 1_555 1_555
C13A C10A 1_555 1_555
H13A C13A 1_555 1_555
H14A C13A 1_555 1_555
C14A C13A 1_555 1_555
C15A C14A 1_555 1_555
H15A C15A 1_555 1_555
C16A C15A 1_555 1_555
H16A C16A 1_555 1_555
C17A N3A 1_555 1_555
C18A C17A 1_555 1_555
H17A C18A 1_555 1_555
C19A C14A 1_555 1_555
H18A C19A 1_555 1_555
C20A N3A 1_555 1_555
C21A C20A 1_555 1_555
C22A C21A 1_555 1_555
H19A C22A 1_555 1_555
C23A N4A 1_555 1_555
H20A C23A 1_555 1_555
C24A N4A 1_555 1_555
H21A C24A 1_555 1_555
C25A C21A 1_555 1_555
H22A C25A 1_555 1_555
Zn1_2 N4 1_555 1_555
N1A_2 Zn1 1_555 1_555
N4_2 Zn1 1_555 1_555
C3 C6 1_555 1_555
C4 C5 1_555 1_555
C11 C12 1_555 1_555
C16 C17 1_555 1_555
C18 C19 1_555 1_555
C24 C25 1_555 1_555
N1A Zn1_2 1_555 1_555
C3A C6A 1_555 1_555
C4A C5A 1_555 1_555
C11A C12A 1_555 1_555
C16A C17A 1_555 1_555
C18A C19A 1_555 1_555
C22A C23A 1_555 1_555
C24A C25A 1_555 1_555

#END
