
#######################################################################
#
#                 Cambridge Crystallographic Data Centre
#                                CCDC 
#
#######################################################################
#
# If this CIF has been generated from an entry in the Cambridge 
# Structural Database, then it will include bibliographic, chemical, 
# crystal, experimental, refinement or atomic coordinate data resulting 
# from the CCDC's data processing and validation procedures.
#
#######################################################################

data_DIQGUH
_symmetry_cell_setting           monoclinic
_symmetry_space_group_name_H-M   'C 2/c'
_symmetry_Int_Tables_number      15
_space_group_name_Hall           '-C 2yc'
loop_
_symmetry_equiv_pos_site_id
_symmetry_equiv_pos_as_xyz
1 x,y,z
2 1/2+x,1/2+y,z
3 1/2-x,1/2+y,1/2-z
4 -x,y,1/2-z
5 -x,-y,-z
6 1/2-x,1/2-y,-z
7 1/2+x,1/2-y,1/2+z
8 x,-y,1/2+z
_cell_length_a                   18.84327(62)
_cell_length_b                   5.33239(28)
_cell_length_c                   6.95958(26)
_cell_angle_alpha                90
_cell_angle_beta                 87.0055(52)
_cell_angle_gamma                90
_cell_volume                     698.341
loop_
_atom_site_label
_atom_site_type_symbol
_atom_site_fract_x
_atom_site_fract_y
_atom_site_fract_z
Ca1 Ca 0.00000 0.84949(57) 0.75000
O1 O 0.08239(29) 0.55373(95) 0.65439(90)
O2 O 0.05583(28) 0.1660(12) 0.55209(60)
C1 C 0.20021(69) 0.0682(17) 0.4564(11)
C2 C 0.22805(71) 0.4724(15) 0.5889(14)
C3 C 0.10012(44) 0.3426(22) 0.5880(12)
C4 C 0.17756(46) 0.2917(24) 0.5450(17)
O1E O 0.41761(29) -0.05373(95) 0.34561(90)
C3E C 0.39988(44) 0.1574(22) 0.4120(12)
O2E O 0.44417(28) 0.3340(12) 0.44791(60)
C4E C 0.32244(46) 0.2083(24) 0.4550(17)
C1E C 0.29979(69) 0.4318(17) 0.5436(11)
C2E C 0.27195(71) 0.0276(15) 0.4111(14)
Ca1_2 Ca 0.00000 -0.15051(57) 0.75000
Ca1A Ca 0.50000 0.34949(57) 0.75000
Ca1D Ca 0.00000 0.15051(57) 0.25000
Ca1E Ca 0.50000 -0.34949(57) 0.25000
Ca1E_2 Ca 0.50000 0.65051(57) 0.25000
O1C O -0.08239(29) 0.55373(95) 0.84561(90)
O2_2 O 0.05583(28) 1.1660(12) 0.55209(60)
O2C O -0.05583(28) 1.1660(12) 0.94791(60)
O2D O -0.05583(28) 0.8340(12) 0.44791(60)
O2G O 0.05583(28) 0.8340(12) 1.05209(60)
loop_
_geom_bond_atom_site_label_1
_geom_bond_atom_site_label_2
_geom_bond_site_symmetry_1
_geom_bond_site_symmetry_2
Ca1 O1 1_555 1_555
O1 C3 1_555 1_555
O2 C3 1_555 1_555
C1 C4 1_555 1_555
C2 C4 1_555 1_555
C3 C4 1_555 1_555
O1E C3E 1_555 1_555
C3E O2E 1_555 1_555
O2E Ca1A 1_555 1_555
C4E C3E 1_555 1_555
C1E C2 1_555 1_555
C2E C1 1_555 1_555
Ca1_2 O2 1_555 1_555
Ca1D O2 1_555 1_555
Ca1E O1E 1_555 1_555
Ca1E_2 O2E 1_555 1_555
O1C Ca1 1_555 1_555
O2_2 Ca1 1_555 1_555
O2C Ca1 1_555 1_555
O2D Ca1 1_555 1_555
O2G Ca1 1_555 1_555
C4E C1E 1_555 1_555
C4E C2E 1_555 1_555

#END
