
#######################################################################
#
#                 Cambridge Crystallographic Data Centre
#                                CCDC 
#
#######################################################################
#
# If this CIF has been generated from an entry in the Cambridge 
# Structural Database, then it will include bibliographic, chemical, 
# crystal, experimental, refinement or atomic coordinate data resulting 
# from the CCDC's data processing and validation procedures.
#
#######################################################################

data_DIQHAO01
_symmetry_cell_setting           monoclinic
_symmetry_space_group_name_H-M   'P 21/c'
_symmetry_Int_Tables_number      14
_space_group_name_Hall           '-P 2ybc'
loop_
_symmetry_equiv_pos_site_id
_symmetry_equiv_pos_as_xyz
1 x,y,z
2 -x,1/2+y,1/2-z
3 -x,-y,-z
4 x,1/2-y,1/2+z
_cell_length_a                   9.4561(8)
_cell_length_b                   20.5600(18)
_cell_length_c                   19.4800(15)
_cell_angle_alpha                90
_cell_angle_beta                 105.539(3)
_cell_angle_gamma                90
_cell_volume                     3648.82
loop_
_atom_site_label
_atom_site_type_symbol
_atom_site_fract_x
_atom_site_fract_y
_atom_site_fract_z
Co1 Co -0.36577(4) -0.490006(17) 0.431540(18)
O1 O -0.2158(2) -0.44216(9) 0.38438(10)
O2 O -0.3849(2) -0.49855(10) 0.31074(10)
O3 O -1.26525(18) -0.03489(8) 0.03392(9)
O4 O -1.4493(2) -0.04113(8) 0.08486(9)
N1 N 0.2420(2) -0.07804(10) 0.05032(11)
N2 N -0.5420(4) -0.3104(2) -0.25015(19)
N3 N -0.1367(3) -0.25225(11) -0.03498(12)
N4 N -0.4934(3) -0.40075(10) 0.41635(12)
N5 N -0.7637(5) -0.06959(18) 0.68299(16)
N6 N -0.7405(3) -0.19906(11) 0.46901(12)
C1 C 0.2787(3) -0.12939(13) 0.09388(13)
H1 H 0.3672 -0.1280 0.1291
C2 C 0.1926(3) -0.18396(13) 0.08923(13)
H2 H 0.2226 -0.2181 0.1211
C3 C 0.0610(3) -0.18783(13) 0.03684(14)
C4 C 0.0243(3) -0.13561(13) -0.00957(13)
H3 H -0.0616 -0.1366 -0.0465
C5 C 0.1154(3) -0.08255(13) -0.00073(13)
H4 H 0.0876 -0.0478 -0.0319
C6 C -0.0453(3) -0.24173(13) 0.03051(15)
C7 C -0.0582(3) -0.27707(13) 0.08954(14)
H5 H 0.0067 -0.2695 0.1340
C8 C -0.1676(3) -0.32356(14) 0.08219(15)
C9 C -0.2607(3) -0.33299(13) 0.01530(15)
H6 H -0.3357 -0.3635 0.0088
C10 C -0.2439(3) -0.29770(14) -0.04223(15)
C11 C -0.3474(3) -0.30412(15) -0.11439(16)
C12 C -0.4408(4) -0.35606(17) -0.13483(17)
H7 H -0.4408 -0.3900 -0.1033
C13 C -0.5359(4) -0.3573(2) -0.2036(2)
H8 H -0.5977 -0.3930 -0.2170
C14 C -0.4527(6) -0.2617(2) -0.2296(2)
H9 H -0.4558 -0.2282 -0.2621
C15 C -0.3543(4) -0.25597(16) -0.16382(17)
H10 H -0.2930 -0.2199 -0.1529
C16 C -0.1889(3) -0.36100(15) 0.14392(15)
C17 C -0.1268(4) -0.34188(17) 0.21198(17)
H11 H -0.0672 -0.3052 0.2202
C18 C -0.1503(4) -0.37582(17) 0.26968(16)
H12 H -0.1030 -0.3623 0.3157
C19 C -0.2402(3) -0.42796(14) 0.26046(15)
C20 C -0.3008(5) -0.44766(19) 0.19294(18)
H13 H -0.3616 -0.4840 0.1848
C21 C -0.2743(5) -0.41499(19) 0.13561(17)
H14 H -0.3164 -0.4305 0.0898
C22 C -0.2816(3) -0.45925(15) 0.32225(16)
C23 C -0.4570(3) -0.35185(14) 0.46318(14)
H15 H -0.3694 -0.3551 0.4989
C24 C -0.5409(3) -0.29757(13) 0.46150(14)
H16 H -0.5115 -0.2660 0.4966
C25 C -0.6693(3) -0.28916(14) 0.40803(14)
C26 C -0.7069(3) -0.33849(14) 0.35805(14)
H17 H -0.7912 -0.3352 0.3204
C27 C -0.6176(3) -0.39283(14) 0.36464(14)
H18 H -0.6459 -0.4258 0.3311
C28 C -0.7571(3) -0.22934(14) 0.40587(15)
C29 C -0.8482(3) -0.20434(14) 0.34343(14)
H19 H -0.8560 -0.2256 0.3004
C30 C -0.9273(3) -0.14802(14) 0.34471(15)
C31 C -0.9124(3) -0.11878(14) 0.41035(14)
H20 H -0.9654 -0.0813 0.4135
C32 C -0.8190(3) -0.14499(15) 0.47126(15)
C33 C -0.7982(4) -0.11629(15) 0.54319(16)
C34 C -0.6829(4) -0.13447(19) 0.59824(18)
H21 H -0.6135 -0.1637 0.5907
C35 C -0.6695(5) -0.1092(2) 0.6656(2)
H22 H -0.5871 -0.1213 0.7015
C36 C -0.8766(5) -0.05271(17) 0.6302(2)
H23 H -0.9461 -0.0248 0.6400
C37 C -0.8977(4) -0.07446(16) 0.56011(18)
H24 H -0.9792 -0.0606 0.5248
C38 C -1.0250(3) -0.11969(13) 0.27867(14)
C39 C -1.1640(3) -0.09953(14) 0.27681(15)
H25 H -1.1956 -0.1021 0.3180
C40 C -1.2594(3) -0.07528(13) 0.21478(14)
H26 H -1.3541 -0.0628 0.2145
C41 C -1.2127(3) -0.06979(12) 0.15362(13)
C42 C -1.0707(3) -0.08664(14) 0.15646(14)
H27 H -1.0359 -0.0803 0.1166
C43 C -0.9785(3) -0.11287(15) 0.21769(15)
H28 H -0.8844 -0.1260 0.2177
C44 C -1.3171(3) -0.04587(12) 0.08590(14)
Co1A Co -1.63423(4) 0.009994(17) 0.068460(18)
Co1A_2 Co 0.36577(4) 0.009994(17) 0.068460(18)
Co1C Co -1.36577(4) -0.009994(17) -0.068460(18)
O3C O -0.26525(18) -0.46511(8) 0.53392(9)
O4A O -0.5507(2) -0.54113(8) 0.41514(9)
N1A N -0.2420(2) -0.57804(10) 0.44968(11)
loop_
_geom_bond_atom_site_label_1
_geom_bond_atom_site_label_2
_geom_bond_site_symmetry_1
_geom_bond_site_symmetry_2
Co1 O1 1_555 1_555
O1 C22 1_555 1_555
O2 Co1 1_555 1_555
O3 C44 1_555 1_555
O4 C44 1_555 1_555
N1 C1 1_555 1_555
N2 C13 1_555 1_555
N3 C6 1_555 1_555
N4 Co1 1_555 1_555
N5 C35 1_555 1_555
N6 C28 1_555 1_555
C1 H1 1_555 1_555
C2 C1 1_555 1_555
H2 C2 1_555 1_555
C3 C2 1_555 1_555
C4 C3 1_555 1_555
H3 C4 1_555 1_555
C5 N1 1_555 1_555
H4 C5 1_555 1_555
C6 C3 1_555 1_555
C7 C6 1_555 1_555
H5 C7 1_555 1_555
C8 C7 1_555 1_555
C9 C8 1_555 1_555
H6 C9 1_555 1_555
C10 N3 1_555 1_555
C11 C10 1_555 1_555
C12 C11 1_555 1_555
H7 C12 1_555 1_555
C13 C12 1_555 1_555
H8 C13 1_555 1_555
C14 N2 1_555 1_555
H9 C14 1_555 1_555
C15 C11 1_555 1_555
H10 C15 1_555 1_555
C16 C8 1_555 1_555
C17 C16 1_555 1_555
H11 C17 1_555 1_555
C18 C17 1_555 1_555
H12 C18 1_555 1_555
C19 C18 1_555 1_555
C20 C19 1_555 1_555
H13 C20 1_555 1_555
C21 C16 1_555 1_555
H14 C21 1_555 1_555
C22 O2 1_555 1_555
C23 N4 1_555 1_555
H15 C23 1_555 1_555
C24 C23 1_555 1_555
H16 C24 1_555 1_555
C25 C24 1_555 1_555
C26 C25 1_555 1_555
H17 C26 1_555 1_555
C27 N4 1_555 1_555
H18 C27 1_555 1_555
C28 C25 1_555 1_555
C29 C28 1_555 1_555
H19 C29 1_555 1_555
C30 C29 1_555 1_555
C31 C30 1_555 1_555
H20 C31 1_555 1_555
C32 N6 1_555 1_555
C33 C32 1_555 1_555
C34 C33 1_555 1_555
H21 C34 1_555 1_555
C35 C34 1_555 1_555
H22 C35 1_555 1_555
C36 N5 1_555 1_555
H23 C36 1_555 1_555
C37 C33 1_555 1_555
H24 C37 1_555 1_555
C38 C30 1_555 1_555
C39 C38 1_555 1_555
H25 C39 1_555 1_555
C40 C39 1_555 1_555
H26 C40 1_555 1_555
C41 C40 1_555 1_555
C42 C41 1_555 1_555
H27 C42 1_555 1_555
C43 C38 1_555 1_555
H28 C43 1_555 1_555
C44 C41 1_555 1_555
Co1A O4 1_555 1_555
Co1A_2 N1 1_555 1_555
Co1C O3 1_555 1_555
O3C Co1 1_555 1_555
O4A Co1 1_555 1_555
N1A Co1 1_555 1_555
C4 C5 1_555 1_555
C9 C10 1_555 1_555
C14 C15 1_555 1_555
C19 C22 1_555 1_555
C20 C21 1_555 1_555
C26 C27 1_555 1_555
C31 C32 1_555 1_555
C36 C37 1_555 1_555
C42 C43 1_555 1_555

#END
