
#######################################################################
#
#                 Cambridge Crystallographic Data Centre
#                                CCDC 
#
#######################################################################
#
# If this CIF has been generated from an entry in the Cambridge 
# Structural Database, then it will include bibliographic, chemical, 
# crystal, experimental, refinement or atomic coordinate data resulting 
# from the CCDC's data processing and validation procedures.
#
#######################################################################

data_DIQHES
_symmetry_cell_setting           orthorhombic
_symmetry_space_group_name_H-M   'F d d 2'
_symmetry_Int_Tables_number      43
_space_group_name_Hall           'F 2 -2d'
loop_
_symmetry_equiv_pos_site_id
_symmetry_equiv_pos_as_xyz
1 x,y,z
2 -x,-y,z
3 1/4+x,1/4-y,1/4+z
4 1/4-x,1/4+y,1/4+z
5 x,1/2+y,1/2+z
6 -x,1/2-y,1/2+z
7 1/4+x,3/4-y,3/4+z
8 1/4-x,3/4+y,3/4+z
9 1/2+x,y,1/2+z
10 1/2-x,-y,1/2+z
11 3/4+x,1/4-y,3/4+z
12 3/4-x,1/4+y,3/4+z
13 1/2+x,1/2+y,z
14 1/2-x,1/2-y,z
15 3/4+x,3/4-y,1/4+z
16 3/4-x,3/4+y,1/4+z
_cell_length_a                   20.106(3)
_cell_length_b                   55.082(9)
_cell_length_c                   9.0499(14)
_cell_angle_alpha                90
_cell_angle_beta                 90
_cell_angle_gamma                90
_cell_volume                     10022.6
loop_
_atom_site_label
_atom_site_type_symbol
_atom_site_fract_x
_atom_site_fract_y
_atom_site_fract_z
Ho1 Ho 0.375995(16) -0.006448(6) 0.80491(5)
Ag1 Ag 0.33280(5) 0.017819(18) 0.39617(8)
O1 O 0.3015(2) 0.21488(9) 0.6480(6)
O2 O 0.2766(3) 0.01746(9) 0.8644(6)
O3 O 0.5540(3) -0.21387(10) 0.5317(8)
O4 O 0.1998(3) 0.22698(9) 0.5913(7)
O5 O 0.4139(3) -0.01603(10) 0.5817(6)
O6 O 0.3600(3) -0.00274(12) 1.0655(7)
C1 C 0.4341(4) -0.02109(13) 0.4519(8)
C2 C 0.6167(4) -0.14263(16) 0.4679(11)
H1 H 0.6598 -0.1380 0.4924
C3 C 0.5965(4) -0.16623(15) 0.4922(10)
H2 H 0.6266 -0.1775 0.5295
C4 C 0.4877(4) -0.15648(14) 0.4041(10)
H3 H 0.4442 -0.1610 0.3826
C5 C 0.5314(4) -0.17343(14) 0.4615(9)
C6 C 0.5738(4) -0.12604(13) 0.4079(10)
O7 O 0.4503(3) -0.20486(11) 0.4745(8)
O8 O 0.4154(3) -0.00932(10) 0.3413(6)
C7 C 0.5172(3) -0.04508(13) 0.3077(10)
H4 H 0.5165 -0.0332 0.2348
C8 C 0.4807(4) -0.05988(12) 0.5400(9)
H5 H 0.4556 -0.0580 0.6256
C9 C 0.4789(4) -0.04207(12) 0.4326(7)
C10 C 0.5190(4) -0.08050(14) 0.5227(9)
H6 H 0.5196 -0.0924 0.5958
C11 C 0.5561(4) -0.08335(13) 0.3969(10)
C12 C 0.5570(4) -0.06542(14) 0.2880(10)
H7 H 0.5835 -0.0671 0.2043
O9 O 0.5977(3) -0.10344(10) 0.3746(8)
C13 C 0.5098(4) -0.19903(15) 0.4900(9)
C14 C 0.2547(4) 0.06791(13) 0.6099(9)
H8 H 0.2865 0.0638 0.5397
C15 C 0.1946(4) 0.05883(14) 0.8290(10)
H9 H 0.1861 0.0486 0.9087
C16 C 0.2810(4) 0.02942(13) 0.7481(9)
C17 C 0.2413(4) 0.05201(12) 0.7251(8)
C18 C 0.1748(4) 0.09562(14) 0.7023(10)
C19 C 0.1604(4) 0.08027(13) 0.8175(10)
H10 H 0.1281 0.0844 0.8866
C20 C 0.2222(4) 0.08938(14) 0.5979(9)
H11 H 0.2317 0.0999 0.5201
O10 O 0.1366(2) 0.11644(10) 0.6885(8)
C21 C 0.2295(4) 0.14392(13) 0.7252(10)
H12 H 0.2553 0.1318 0.7683
C22 C 0.1667(4) 0.13886(14) 0.6735(9)
C23 C 0.2147(3) 0.18581(13) 0.6498(10)
C24 C 0.2540(4) 0.16747(14) 0.7117(9)
H13 H 0.2968 0.1710 0.7442
C25 C 0.1522(4) 0.17989(14) 0.5998(10)
H14 H 0.1258 0.1918 0.5567
C26 C 0.1282(4) 0.15671(16) 0.6125(12)
H15 H 0.0855 0.1531 0.5795
O11 O 0.3212(3) 0.02262(9) 0.6484(7)
C27 C 0.5081(4) -0.13288(13) 0.3784(9)
H16 H 0.4782 -0.1215 0.3415
C28 C 0.2400(4) 0.21090(13) 0.6276(9)
Ho1F Ho 0.625995(16) -0.243552(6) 0.55491(5)
Ho1J Ho 0.125995(16) 0.256448(6) 0.55491(5)
Ho1K Ho 0.374005(16) 0.243552(6) 0.55491(5)
Ag1O Ag 0.41720(5) -0.232181(18) 0.64617(8)
O1O O 0.4485(2) -0.03512(9) 0.8980(6)
O3N O 0.3040(3) -0.03613(10) 0.7817(8)
O4B O 0.4498(3) 0.02302(9) 0.8413(7)
O7K O 0.2997(3) 0.04514(11) 0.2245(8)
loop_
_geom_bond_atom_site_label_1
_geom_bond_atom_site_label_2
_geom_bond_site_symmetry_1
_geom_bond_site_symmetry_2
Ho1 O2 1_555 1_555
Ag1 O8 1_555 1_555
O1 C28 1_555 1_555
O2 C16 1_555 1_555
O3 C13 1_555 1_555
O4 C28 1_555 1_555
O5 Ho1 1_555 1_555
O6 Ho1 1_555 1_555
C1 O5 1_555 1_555
C2 H1 1_555 1_555
C3 C2 1_555 1_555
H2 C3 1_555 1_555
C4 H3 1_555 1_555
C5 C3 1_555 1_555
C6 C2 1_555 1_555
O7 C13 1_555 1_555
O8 C1 1_555 1_555
C7 H4 1_555 1_555
C8 H5 1_555 1_555
C9 C1 1_555 1_555
C10 C8 1_555 1_555
H6 C10 1_555 1_555
C11 C10 1_555 1_555
C12 C7 1_555 1_555
H7 C12 1_555 1_555
O9 C6 1_555 1_555
C13 C5 1_555 1_555
C14 H8 1_555 1_555
C15 H9 1_555 1_555
C16 C17 1_555 1_555
C17 C14 1_555 1_555
C18 C19 1_555 1_555
C19 C15 1_555 1_555
H10 C19 1_555 1_555
C20 C14 1_555 1_555
H11 C20 1_555 1_555
O10 C18 1_555 1_555
C21 H12 1_555 1_555
C22 O10 1_555 1_555
C23 C24 1_555 1_555
C24 C21 1_555 1_555
H13 C24 1_555 1_555
C25 C23 1_555 1_555
H14 C25 1_555 1_555
C26 C22 1_555 1_555
H15 C26 1_555 1_555
O11 Ho1 1_555 1_555
C27 C4 1_555 1_555
H16 C27 1_555 1_555
C28 C23 1_555 1_555
Ho1F O3 1_555 1_555
Ho1J O4 1_555 1_555
Ho1K O1 1_555 1_555
Ag1O O7 1_555 1_555
O1O Ho1 1_555 1_555
O3N Ho1 1_555 1_555
O4B Ho1 1_555 1_555
O7K Ag1 1_555 1_555
Ag1 O11 1_555 1_555
C4 C5 1_555 1_555
C6 C27 1_555 1_555
C7 C9 1_555 1_555
C8 C9 1_555 1_555
C11 C12 1_555 1_555
C11 O9 1_555 1_555
C15 C17 1_555 1_555
C16 O11 1_555 1_555
C18 C20 1_555 1_555
C21 C22 1_555 1_555
C25 C26 1_555 1_555

#END
