
#######################################################################
#
#                 Cambridge Crystallographic Data Centre
#                                CCDC 
#
#######################################################################
#
# If this CIF has been generated from an entry in the Cambridge 
# Structural Database, then it will include bibliographic, chemical, 
# crystal, experimental, refinement or atomic coordinate data resulting 
# from the CCDC's data processing and validation procedures.
#
#######################################################################

data_DIQJOE
_symmetry_cell_setting           triclinic
_symmetry_space_group_name_H-M   'P -1'
_symmetry_Int_Tables_number      2
_space_group_name_Hall           '-P 1'
loop_
_symmetry_equiv_pos_site_id
_symmetry_equiv_pos_as_xyz
1 x,y,z
2 -x,-y,-z
_cell_length_a                   14.696(5)
_cell_length_b                   21.925(10)
_cell_length_c                   27.641(11)
_cell_angle_alpha                111.502(15)
_cell_angle_beta                 92.79(2)
_cell_angle_gamma                90.42(2)
_cell_volume                     8273.51
loop_
_atom_site_label
_atom_site_type_symbol
_atom_site_fract_x
_atom_site_fract_y
_atom_site_fract_z
C156 C 0.0396(4) 0.4834(3) 0.0094(2)
H209 H 0.0895 0.5164 0.0251
H210 H 0.0182 0.4691 0.0370
C157 C 0.0778(4) 0.4250(3) -0.0325(3)
H211 H 0.0285 0.3914 -0.0477
H212 H 0.0983 0.4388 -0.0606
C158 C 0.1561(5) 0.3945(4) -0.0134(3)
H213 H 0.2071 0.4264 -0.0006
H214 H 0.1754 0.3558 -0.0420
H215 H 0.1369 0.3815 0.0150
C156A C -0.0396(4) 0.5166(3) -0.0094(2)
H209A H -0.0895 0.4836 -0.0251
H210A H -0.0182 0.5309 -0.0370
C157A C -0.0778(4) 0.5750(3) 0.0325(3)
H211A H -0.0285 0.6086 0.0477
H212A H -0.0983 0.5612 0.0606
C158A C -0.1561(5) 0.6055(4) 0.0134(3)
H213A H -0.2071 0.5736 0.0006
H214A H -0.1754 0.6442 0.0420
H215A H -0.1369 0.6185 -0.0150
C159 C 0.0375(8) 0.0214(5) 0.5216(4)
H216 H 0.0267 0.0683 0.5284
H217 H 0.0279 0.0141 0.5542
C160 C 0.1382(9) 0.0081(7) 0.5087(5)
H218 H 0.1501 0.0193 0.4780
H219 H 0.1486 -0.0394 0.4992
C161 C 0.2078(13) 0.0475(9) 0.5545(7)
H220 H 0.2399 0.0808 0.5454
H221 H 0.2520 0.0175 0.5606
H222 H 0.1751 0.0689 0.5862
C159A C -0.0375(8) -0.0214(5) 0.4784(4)
H216A H -0.0267 -0.0683 0.4716
H217A H -0.0279 -0.0141 0.4458
C160A C -0.1382(9) -0.0081(7) 0.4913(5)
H218A H -0.1501 -0.0193 0.5220
H219A H -0.1486 0.0394 0.5008
C161A C -0.2078(13) -0.0475(9) 0.4455(7)
H220A H -0.2399 -0.0808 0.4546
H221A H -0.2520 -0.0175 0.4394
H222A H -0.1751 -0.0689 0.4138
K1 K 0.19160(6) 0.96350(5) 0.12063(4)
B1 B 0.1365(3) 0.2110(2) 0.21730(15)
C1 C 0.5476(2) 0.84032(17) 0.11888(13)
K2 K 0.42077(7) 1.02876(6) 0.23597(4)
Cr1 Cr 0.34001(4) 0.84687(3) 0.18514(2)
C2 C 0.6266(2) 0.88060(17) 0.13891(13)
B2 B 0.4566(3) 0.8539(2) 0.14843(15)
Cr2 Cr 0.33183(4) 0.57507(3) 0.31818(2)
K3 K 0.24295(5) 0.72839(4) 0.31628(3)
C3 C 0.7120(2) 0.85903(18) 0.11822(14)
H1 H 0.7653 0.8855 0.1325
B3 B 0.4038(2) 0.6290(2) 0.38689(15)
Cr3 Cr 0.25000(4) 0.18689(3) 0.25227(2)
K4 K 0.51294(6) 0.70812(5) 0.25384(3)
C4 C 0.7181(2) 0.79948(18) 0.07726(14)
H2 H 0.7759 0.7837 0.0649
K5 K 0.26383(6) 0.41602(5) 0.36242(3)
C5 C 0.6393(2) 0.76312(19) 0.05453(14)
H3 H 0.6435 0.7240 0.0249
K6 K 0.31737(6) 0.30772(4) 0.20099(4)
C6 C 0.5534(2) 0.78250(18) 0.07412(13)
C7 C 0.6227(2) 0.94822(18) 0.17983(13)
C8 C 0.6092(2) 1.00224(18) 0.16386(14)
C9 C 0.6122(2) 1.06559(19) 0.20185(15)
H4 H 0.6027 1.1018 0.1913
C10 C 0.6286(2) 1.0772(2) 0.25462(15)
C11 C 0.6405(2) 1.0242(2) 0.26931(14)
H5 H 0.6505 1.0315 0.3052
C12 C 0.6382(2) 0.95945(19) 0.23294(14)
C13 C 0.5951(3) 0.99152(19) 0.10595(14)
H6 H 0.5763 0.9445 0.0870
C14 C 0.6847(3) 1.0035(3) 0.08366(18)
H7 H 0.7031 1.0500 0.0998
H8 H 0.6756 0.9915 0.0459
H9 H 0.7325 0.9767 0.0910
C15 C 0.5203(3) 1.0334(2) 0.09413(16)
H10 H 0.4635 1.0262 0.1087
H11 H 0.5107 1.0208 0.0564
H12 H 0.5389 1.0798 0.1098
C16 C 0.6362(3) 1.1468(2) 0.29589(17)
H13 H 0.6473 1.1418 0.3302
C17 C 0.5494(3) 1.1847(2) 0.2997(2)
H14 H 0.5586 1.2285 0.3267
H15 H 0.4998 1.1614 0.3088
H16 H 0.5336 1.1887 0.2662
C18 C 0.7178(3) 1.1846(2) 0.2890(2)
H17 H 0.7098 1.1912 0.2559
H18 H 0.7730 1.1598 0.2889
H19 H 0.7234 1.2273 0.3177
C19 C 0.6571(3) 0.9027(2) 0.25136(15)
H20 H 0.6430 0.8609 0.2212
C20 C 0.5973(4) 0.9033(3) 0.29598(17)
H21 H 0.6094 0.9440 0.3261
H22 H 0.6118 0.8657 0.3059
H23 H 0.5329 0.9005 0.2843
C21 C 0.7598(3) 0.9039(3) 0.2672(2)
H24 H 0.7958 0.9019 0.2378
H25 H 0.7730 0.8662 0.2771
H26 H 0.7755 0.9445 0.2968
C22 C 0.4702(3) 0.74358(19) 0.04455(14)
C23 C 0.4120(3) 0.7707(2) 0.01574(14)
C24 C 0.3389(3) 0.7323(3) -0.01536(17)
H27 H 0.2995 0.7505 -0.0344
C25 C 0.3226(3) 0.6678(3) -0.01898(19)
C26 C 0.3789(3) 0.6426(2) 0.00976(18)
H28 H 0.3676 0.5990 0.0078
C27 C 0.4529(3) 0.6792(2) 0.04210(16)
C28 C 0.4279(3) 0.8408(2) 0.01739(15)
H29 H 0.4478 0.8683 0.0541
C29 C 0.5059(3) 0.8442(2) -0.01671(16)
H30 H 0.5605 0.8253 -0.0067
H31 H 0.5188 0.8901 -0.0118
H32 H 0.4880 0.8194 -0.0534
C30 C 0.3421(3) 0.8720(3) 0.0035(2)
H33 H 0.3270 0.8518 -0.0340
H34 H 0.3534 0.9192 0.0131
H35 H 0.2911 0.8648 0.0226
C31 C 0.2355(14) 0.6337(10) -0.0507(9)
H36 H 0.1969 0.6612 -0.0651
C32 C 0.1848(10) 0.5926(7) -0.0271(6)
H37 H 0.2254 0.5599 -0.0223
H38 H 0.1324 0.5704 -0.0504
H39 H 0.1634 0.6208 0.0066
C33 C 0.2704(11) 0.5670(8) -0.0929(6)
H40 H 0.3218 0.5770 -0.1103
H41 H 0.2207 0.5460 -0.1188
H42 H 0.2898 0.5373 -0.0754
C34 C 0.5084(3) 0.6488(2) 0.07485(17)
H43 H 0.5510 0.6837 0.0990
C35 C 0.4471(4) 0.6246(3) 0.1085(2)
H44 H 0.4088 0.6604 0.1288
H45 H 0.4853 0.6103 0.1322
H46 H 0.4082 0.5877 0.0858
C36 C 0.5662(4) 0.5927(2) 0.0415(2)
H47 H 0.5265 0.5590 0.0158
H48 H 0.5993 0.5736 0.0639
H49 H 0.6099 0.6096 0.0235
C37 C -0.0409(2) 0.18023(18) 0.25179(13)
C38 C -0.0406(2) 0.23554(18) 0.29860(13)
C39 C -0.0476(2) 0.2256(2) 0.34541(14)
H50 H -0.0470 0.2626 0.3770
C40 C -0.0555(3) 0.1631(2) 0.34743(15)
C41 C -0.0549(3) 0.1096(2) 0.30119(15)
H51 H -0.0595 0.0667 0.3019
C42 C -0.0475(2) 0.11701(19) 0.25312(14)
C43 C -0.0351(2) 0.30531(18) 0.29850(14)
H52 H 0.0044 0.3043 0.2698
C44 C 0.0071(3) 0.3562(2) 0.34883(15)
H53 H -0.0336 0.3621 0.3772
H54 H 0.0158 0.3980 0.3442
H55 H 0.0661 0.3411 0.3574
C45 C -0.1296(3) 0.3265(2) 0.28597(18)
H56 H -0.1545 0.2950 0.2526
H57 H -0.1246 0.3701 0.2838
H58 H -0.1702 0.3282 0.3135
C46 C -0.0472(2) 0.05578(18) 0.20382(15)
H59 H -0.0266 0.0691 0.1751
C47 C 0.0186(3) 0.0044(2) 0.20971(18)
C48 C -0.1441(3) 0.0252(2) 0.1881(2)
H60 H -0.1649 0.0102 0.2152
H61 H -0.1433 -0.0122 0.1550
H62 H -0.1856 0.0580 0.1842
C49 C -0.0764(10) 0.1546(12) 0.3991(9)
H63 H -0.0516 0.1949 0.4279
C50 C -0.0250(8) 0.0976(7) 0.4041(5)
H64 H -0.0253 0.0998 0.4402
H65 H 0.0380 0.0997 0.3947
H66 H -0.0544 0.0563 0.3808
C51 C -0.1799(8) 0.1506(7) 0.4064(5)
H67 H -0.2103 0.1864 0.3994
H68 H -0.1894 0.1544 0.4422
H69 H -0.2054 0.1084 0.3821
C52 C 0.0445(2) 0.21166(17) 0.18590(12)
C53 C 0.0407(2) 0.22997(18) 0.14187(13)
C54 C -0.0408(3) 0.2216(2) 0.11158(14)
H70 H -0.0427 0.2333 0.0817
C55 C -0.1194(3) 0.1964(2) 0.12453(15)
H71 H -0.1734 0.1889 0.1025
C56 C -0.1187(2) 0.1824(2) 0.16975(14)
H72 H -0.1730 0.1674 0.1796
C57 C 0.6262(2) 0.5512(2) 0.41428(14)
C58 C 0.7544(3) 0.5630(3) 0.3655(2)
C59 C 0.7299(3) 0.6276(3) 0.3750(2)
H73 H 0.7658 0.6537 0.3619
C60 C 0.6024(2) 0.6162(2) 0.42431(13)
C61 C 0.6535(3) 0.6552(2) 0.40338(17)
C62 C 0.5726(3) 0.5055(2) 0.43371(14)
H74 H 0.5169 0.5290 0.4495
C63 C 0.5409(4) 0.4417(2) 0.38992(19)
H75 H 0.5108 0.4518 0.3614
H76 H 0.4979 0.4180 0.4031
H77 H 0.5936 0.4145 0.3771
C64 C 0.6276(3) 0.4907(3) 0.47648(17)
H78 H 0.6856 0.4716 0.4632
H79 H 0.5929 0.4596 0.4869
H80 H 0.6395 0.5314 0.5066
C65 C 0.8291(9) 0.5226(7) 0.3267(5)
H81 H 0.8170 0.4746 0.3075
C66 C 0.8660(9) 0.5616(6) 0.2967(5)
H82 H 0.8193 0.5637 0.2709
H83 H 0.9199 0.5404 0.2790
H84 H 0.8828 0.6061 0.3208
C67 C 0.9208(10) 0.5459(6) 0.3716(6)
H85 H 0.9771 0.5302 0.3539
H86 H 0.9132 0.5269 0.3982
H87 H 0.9242 0.5938 0.3881
C68 C 0.6273(3) 0.7252(2) 0.41114(18)
H88 H 0.5594 0.7274 0.4125
C69 C 0.6546(3) 0.7472(3) 0.3677(2)
H89 H 0.6346 0.7139 0.3340
H90 H 0.7210 0.7532 0.3695
H91 H 0.6258 0.7888 0.3716
C70 C 0.6681(5) 0.7731(3) 0.4621(2)
H92 H 0.6501 0.7598 0.4906
H93 H 0.6460 0.8171 0.4677
H94 H 0.7346 0.7734 0.4612
C71 C 0.4415(2) 0.66164(17) 0.44536(12)
C72 C 0.5297(2) 0.64798(18) 0.46171(13)
C73 C 0.5549(2) 0.6685(2) 0.51464(14)
H95 H 0.6131 0.6578 0.5253
C74 C 0.4961(3) 0.7044(2) 0.55214(14)
H96 H 0.5134 0.7170 0.5881
C75 C 0.4123(3) 0.7218(2) 0.53663(14)
H97 H 0.3734 0.7481 0.5621
C76 C 0.3844(2) 0.70117(18) 0.48414(13)
C77 C 0.0347(3) 0.7762(2) 0.41303(17)
H98 H 0.0450 0.8184 0.4078
C78 C 0.0034(3) 0.7246(3) 0.3606(2)
H99 H -0.0005 0.6816 0.3638
H100 H 0.0471 0.7233 0.3346
H101 H -0.0567 0.7356 0.3497
C79 C -0.0395(3) 0.7864(3) 0.4506(2)
H102 H -0.0534 0.7449 0.4550
H103 H -0.0943 0.8012 0.4371
H104 H -0.0191 0.8195 0.4844
C80 C 0.1253(2) 0.75797(19) 0.43369(14)
C81 C 0.2051(2) 0.79602(19) 0.43853(14)
H105 H 0.2018 0.8343 0.4302
C82 C 0.1308(2) 0.70365(19) 0.44815(14)
H106 H 0.0769 0.6785 0.4462
C83 C 0.2129(2) 0.68486(18) 0.46553(13)
C84 C 0.2932(2) 0.72189(18) 0.46828(13)
C85 C 0.2131(2) 0.62701(19) 0.48408(14)
H107 H 0.2770 0.6115 0.4833
C86 C 0.1522(3) 0.5684(2) 0.44980(18)
H108 H 0.0880 0.5797 0.4546
H109 H 0.1645 0.5305 0.4598
H110 H 0.1651 0.5574 0.4132
C87 C 0.1855(3) 0.6502(2) 0.54103(17)
H111 H 0.2278 0.6852 0.5630
H112 H 0.1876 0.6133 0.5530
H113 H 0.1235 0.6668 0.5432
C88 C 0.2894(2) 0.77895(18) 0.45537(13)
C89 C 0.3733(3) 0.8244(2) 0.46377(16)
H114 H 0.4286 0.7977 0.4624
C90 C 0.3739(4) 0.8775(3) 0.51793(19)
H115 H 0.3236 0.9072 0.5194
H116 H 0.4319 0.9024 0.5255
H117 H 0.3665 0.8572 0.5438
C91 C 0.3812(3) 0.8562(2) 0.42313(18)
H118 H 0.3789 0.8221 0.3882
H119 H 0.4392 0.8810 0.4295
H120 H 0.3307 0.8860 0.4257
C92 C -0.0376(2) 0.19051(17) 0.20078(13)
O1 O 0.50969(19) 0.76934(14) 0.18837(11)
C93 C 0.4514(2) 0.80351(19) 0.17972(14)
O2 O 0.36885(17) 0.94915(14) 0.13439(11)
C94 C 0.3792(2) 0.9019(2) 0.14844(14)
O3 O 0.2307(2) 0.9681(2) 0.22828(18)
C95 C 0.2674(3) 0.9181(2) 0.2128(2)
O4 O 0.2152(3) 0.7440(2) 0.10786(15)
C96 C 0.2595(3) 0.7852(3) 0.13930(17)
O5 O 0.3505(2) 0.79832(16) 0.27362(11)
C97 C 0.3412(3) 0.8191(2) 0.23997(15)
O6 O 0.42823(18) 0.70872(13) 0.33805(10)
C98 C 0.4011(2) 0.65887(18) 0.34490(13)
O7 O 0.35720(18) 0.52678(13) 0.40837(10)
C99 C 0.3557(2) 0.55661(18) 0.37893(13)
O8 O 0.3651(13) 0.6139(11) 0.2263(10)
C100 C 0.342(5) 0.595(3) 0.263(2)
O9 O 0.12770(19) 0.58209(17) 0.32294(11)
C101 C 0.2058(3) 0.57824(19) 0.31984(14)
O10 O 0.3533(2) 0.43050(15) 0.26391(13)
C102 C 0.3435(3) 0.4873(2) 0.28331(14)
O11 O 0.14335(17) 0.08540(13) 0.16055(10)
O12 O 0.4110(2) 0.1269(2) 0.19046(14)
O13 O 0.2043(3) 0.1151(2) 0.32354(16)
O14 O 0.36305(19) 0.29849(16) 0.32851(12)
O15 O 0.18679(18) 0.32812(13) 0.27798(11)
C103 C 0.3224(2) 0.2522(2) 0.30028(15)
C104 C 0.2259(3) 0.1415(2) 0.29596(18)
C105 C 0.1742(2) 0.13277(18) 0.19712(14)
C106 C 0.1872(2) 0.26697(18) 0.25918(13)
C107 C 0.1192(3) 0.26576(18) 0.12939(13)
C108 C 0.1860(3) 0.23269(18) 0.09512(14)
C109 C 0.2522(3) 0.2693(2) 0.08115(16)
H121 H 0.2963 0.2464 0.0575
C110 C 0.2554(3) 0.3380(2) 0.10080(16)
C111 C 0.3487(3) 0.1485(3) 0.21611(17)
C112 C 0.1211(3) 0.33517(19) 0.14958(14)
C113 C 0.0473(3) 0.3740(2) 0.18552(16)
H122 H 0.0150 0.3434 0.1988
C114 C 0.0870(3) 0.4312(2) 0.23218(16)
H123 H 0.1348 0.4156 0.2504
H124 H 0.0388 0.4508 0.2559
H125 H 0.1130 0.4643 0.2203
C115 C -0.0227(4) 0.3978(3) 0.1537(2)
H126 H -0.0704 0.4215 0.1763
H127 H -0.0501 0.3599 0.1250
H128 H 0.0077 0.4270 0.1396
C116 C 0.1867(3) 0.15804(18) 0.07176(14)
H129 H 0.1392 0.1409 0.0886
C117 C 0.3278(4) 0.3752(2) 0.08370(19)
H130 H 0.3182 0.3618 0.0451
C118 C 0.4233(4) 0.3552(3) 0.0941(2)
H131 H 0.4371 0.3700 0.1317
H132 H 0.4674 0.3753 0.0785
H133 H 0.4271 0.3074 0.0786
C119 C 0.3201(5) 0.4502(2) 0.1070(2)
H134 H 0.3284 0.4655 0.1450
H135 H 0.2599 0.4624 0.0973
H136 H 0.3673 0.4705 0.0934
C120 C 0.1891(3) 0.3699(2) 0.13569(16)
H137 H 0.1904 0.4164 0.1504
C121 C 0.1623(4) 0.1326(2) 0.01319(17)
H138 H 0.1016 0.1474 0.0069
H139 H 0.1623 0.0846 -0.0008
H140 H 0.2073 0.1495 -0.0041
C122 C 0.2785(3) 0.1312(2) 0.08197(18)
H141 H 0.3259 0.1461 0.0648
H142 H 0.2748 0.0832 0.0681
H143 H 0.2936 0.1472 0.1195
C123 C 0.7023(3) 0.5257(3) 0.38472(18)
H144 H 0.7179 0.4815 0.3779
O16 O 0.4985(4) 0.3085(5) 0.1995(3)
C124 C 0.5344(5) 0.3382(9) 0.2517(3)
H145 H 0.5086 0.3160 0.2735
H146 H 0.5178 0.3849 0.2660
C125 C 0.6381(5) 0.3329(6) 0.2526(3)
H147 H 0.6582 0.3006 0.2679
H148 H 0.6684 0.3758 0.2726
C126 C 0.6583(5) 0.3098(6) 0.1950(3)
H149 H 0.7109 0.2804 0.1871
H150 H 0.6703 0.3473 0.1841
C127 C 0.5695(6) 0.2730(5) 0.1689(3)
H151 H 0.5612 0.2715 0.1327
H152 H 0.5699 0.2275 0.1682
O17 O 0.1250(5) 0.8282(4) 0.3205(3)
C128 C 0.0408(6) 0.8194(4) 0.2908(4)
H153 H -0.0111 0.8252 0.3135
H154 H 0.0359 0.7750 0.2634
C129 C 0.0411(6) 0.8719(4) 0.2664(3)
H155 H 0.0763 0.8583 0.2347
H156 H -0.0216 0.8825 0.2579
C130 C 0.0881(7) 0.9294(3) 0.3107(4)
H157 H 0.0439 0.9548 0.3359
H158 H 0.1205 0.9591 0.2973
C131 C 0.1549(7) 0.8946(5) 0.3355(6)
H159 H 0.2168 0.8968 0.3236
H160 H 0.1571 0.9163 0.3739
O18 O 0.4222(9) 1.0534(4) 0.3408(4)
C132 C 0.3754(7) 0.9994(4) 0.3459(4)
H161 H 0.4193 0.9720 0.3564
H162 H 0.3449 0.9721 0.3120
C133 C 0.3046(6) 1.0245(4) 0.3867(4)
H163 H 0.2426 1.0203 0.3700
H164 H 0.3062 0.9999 0.4104
C134 C 0.3323(7) 1.0962(4) 0.4160(3)
H165 H 0.3628 1.1025 0.4502
H166 H 0.2784 1.1243 0.4214
C135 C 0.3978(7) 1.1123(4) 0.3809(4)
H167 H 0.3683 1.1417 0.3653
H168 H 0.4531 1.1351 0.4017
O19 O 0.2220(6) 0.3577(5) 0.4323(4)
C136 C 0.1772(6) 0.3852(4) 0.4797(3)
H169 H 0.1499 0.4273 0.4821
H170 H 0.2213 0.3936 0.5098
C137 C 0.1031(5) 0.3360(4) 0.4797(3)
H171 H 0.0942 0.3376 0.5154
H172 H 0.0444 0.3444 0.4644
C138 C 0.1407(6) 0.2703(3) 0.4459(4)
H173 H 0.0916 0.2409 0.4233
H174 H 0.1707 0.2483 0.4677
C139 C 0.2096(12) 0.2885(5) 0.4135(6)
H175 H 0.2684 0.2679 0.4159
H176 H 0.1871 0.2722 0.3765
O20 O 0.7046(6) 0.7286(6) 0.2324(4)
C140 C 0.7214(6) 0.7183(9) 0.1798(4)
H177 H 0.6943 0.7536 0.1699
H178 H 0.6943 0.6757 0.1562
C141 C 0.8249(7) 0.7190(6) 0.1760(4)
H179 H 0.8428 0.6913 0.1407
H180 H 0.8499 0.7641 0.1851
C142 C 0.8558(7) 0.6900(6) 0.2165(4)
H181 H 0.9180 0.7059 0.2314
H182 H 0.8543 0.6414 0.2014
C143 C 0.7848(8) 0.7157(7) 0.2574(4)
H183 H 0.7714 0.6827 0.2729
H184 H 0.8082 0.7564 0.2856
O21 O 0.0723(8) 0.8555(5) 0.0781(4)
C144 C 0.0037(7) 0.8316(4) 0.1017(3)
H185 H -0.0548 0.8529 0.0995
H186 H 0.0214 0.8416 0.1389
C145 C -0.0065(8) 0.7574(4) 0.0726(3)
H187 H -0.0705 0.7420 0.0710
H188 H 0.0332 0.7333 0.0890
C146 C 0.0241(7) 0.7498(5) 0.0186(3)
H189 H -0.0265 0.7575 -0.0033
H190 H 0.0489 0.7059 0.0005
C147 C 0.0983(6) 0.8038(5) 0.0326(4)
H191 H 0.1579 0.7867 0.0393
H192 H 0.1038 0.8197 0.0036
O22 O 0.1345(9) 0.6630(5) 0.2310(3)
C148 C 0.1046(7) 0.5962(5) 0.2112(3)
H193 H 0.0499 0.5905 0.2289
H194 H 0.1531 0.5683 0.2174
C149 C 0.0822(6) 0.5765(4) 0.1527(3)
H195 H 0.0184 0.5861 0.1454
H196 H 0.0931 0.5295 0.1335
C150 C 0.1500(7) 0.6207(5) 0.1396(3)
H197 H 0.1295 0.6286 0.1078
H198 H 0.2117 0.6021 0.1352
C151 C 0.1476(9) 0.6832(4) 0.1883(4)
H199 H 0.2055 0.7087 0.1939
H200 H 0.0970 0.7109 0.1845
O23 O 0.6131(5) 0.5932(3) 0.2402(3)
C152 C 0.6315(7) 0.5593(5) 0.1871(3)
H201 H 0.6922 0.5394 0.1846
H202 H 0.6311 0.5901 0.1684
C153 C 0.5574(8) 0.5059(5) 0.1632(3)
H203 H 0.5044 0.5226 0.1488
H204 H 0.5811 0.4674 0.1354
C154 C 0.5322(8) 0.4888(5) 0.2099(3)
H205 H 0.4654 0.4898 0.2134
H206 H 0.5539 0.4449 0.2066
C155 C 0.5812(8) 0.5426(5) 0.2561(3)
H207 H 0.5389 0.5608 0.2844
H208 H 0.6332 0.5239 0.2696
O24 O 0.0952(4) 0.9895(3) 0.03541(19)
K1_2 K 0.19160(6) -0.03650(5) 0.12063(4)
K2_2 K 0.42077(7) 0.02876(6) 0.23597(4)
O11_2 O 0.14335(17) 1.08540(13) 0.16055(10)
O12_2 O 0.4110(2) 1.1269(2) 0.19046(14)
C162? C 0.2486(14) 0.6212(10) -0.0538(9)
H223? H 0.2204 0.6581 -0.0616
C163? C 0.1693(10) 0.6204(8) -0.0192(6)
H224? H 0.1918 0.6069 0.0092
H225? H 0.1213 0.5894 -0.0403
H226? H 0.1445 0.6644 -0.0047
C164? C 0.2668(11) 0.5918(8) -0.1033(6)
H227? H 0.2150 0.5633 -0.1223
H228? H 0.3212 0.5655 -0.1058
H229? H 0.2777 0.6250 -0.1185
C165? C -0.0573(11) 0.1539(12) 0.3995(9)
H230? H -0.0402 0.1972 0.4274
C166? C 0.0123(9) 0.1035(7) 0.4052(6)
H231? H -0.0019 0.0604 0.3781
H232? H 0.0085 0.1004 0.4396
H233? H 0.0740 0.1179 0.4016
C167? C -0.1549(9) 0.1366(7) 0.4079(6)
H234? H -0.1951 0.1721 0.4079
H235? H -0.1566 0.1309 0.4414
H236? H -0.1755 0.0958 0.3798
C168? C 0.8439(9) 0.5383(7) 0.3393(5)
H237? H 0.8216 0.4916 0.3242
C169? C 0.8479(9) 0.5445(6) 0.2859(5)
H238? H 0.8523 0.5910 0.2906
H239? H 0.7925 0.5246 0.2646
H240? H 0.9013 0.5220 0.2685
C170? C 0.9133(10) 0.5254(6) 0.3686(6)
H241? H 0.9315 0.5656 0.3980
H242? H 0.9654 0.5092 0.3470
H243? H 0.8927 0.4920 0.3817
O25? O 0.3490(13) 0.6231(11) 0.2294(10)
C171? C 0.345(5) 0.599(3) 0.259(2)
O26? O 0.4934(5) 0.2948(5) 0.2079(3)
C172? C 0.5466(6) 0.2487(5) 0.1708(4)
H244? H 0.5247 0.2440 0.1351
H245? H 0.5411 0.2053 0.1740
C173? C 0.6458(5) 0.2731(6) 0.1809(5)
H246? H 0.6682 0.2808 0.1503
H247? H 0.6851 0.2408 0.1884
C174? C 0.6455(6) 0.3371(5) 0.2281(5)
H248? H 0.6506 0.3756 0.2177
H249? H 0.6959 0.3392 0.2538
C175? C 0.5529(6) 0.3338(8) 0.2500(3)
H250? H 0.5587 0.3140 0.2769
H251? H 0.5288 0.3784 0.2661
O27? O 0.1413(6) 0.8290(4) 0.3115(4)
C176? C 0.0658(6) 0.8289(4) 0.2773(3)
H252? H 0.0245 0.7907 0.2715
H253? H 0.0868 0.8269 0.2433
C177? C 0.0170(5) 0.8930(4) 0.3042(4)
H254? H -0.0171 0.9072 0.2786
H255? H -0.0254 0.8887 0.3296
C178? C 0.0966(6) 0.9404(3) 0.3314(4)
H256? H 0.1145 0.9664 0.3105
H257? H 0.0808 0.9707 0.3663
C179? C 0.1727(6) 0.8952(5) 0.3356(6)
H258? H 0.2267 0.9026 0.3182
H259? H 0.1908 0.9047 0.3726
O28? O 0.4218(10) 1.0449(4) 0.3354(3)
C180? C 0.4130(9) 1.0004(4) 0.3615(4)
H260? H 0.4741 0.9875 0.3703
H261? H 0.3789 0.9604 0.3384
C181? C 0.3625(8) 1.0328(4) 0.4111(4)
H262? H 0.3901 1.0221 0.4403
H263? H 0.2973 1.0191 0.4058
C182? C 0.3746(8) 1.1057(4) 0.4211(4)
H264? H 0.4069 1.1292 0.4553
H265? H 0.3149 1.1260 0.4202
C183? C 0.4313(8) 1.1070(4) 0.3766(4)
H266? H 0.4101 1.1418 0.3644
H267? H 0.4962 1.1164 0.3889
O29? O 0.2070(6) 0.3640(5) 0.4290(3)
C184? C 0.1524(6) 0.3927(4) 0.4722(3)
H268? H 0.0906 0.4006 0.4602
H269? H 0.1800 0.4352 0.4958
C185? C 0.1470(7) 0.3449(4) 0.5008(3)
H270? H 0.1954 0.3550 0.5290
H271? H 0.0869 0.3463 0.5158
C186? C 0.1609(7) 0.2784(3) 0.4581(3)
H272? H 0.1020 0.2544 0.4452
H273? H 0.2016 0.2513 0.4711
C187? C 0.2045(14) 0.2949(5) 0.4152(5)
H274? H 0.2672 0.2782 0.4109
H275? H 0.1688 0.2737 0.3818
O30? O 0.6976(7) 0.7134(6) 0.2257(4)
C188? C 0.7190(9) 0.7189(8) 0.1778(5)
H276? H 0.7415 0.7639 0.1839
H277? H 0.6644 0.7089 0.1536
C189? C 0.7931(8) 0.6694(7) 0.1553(3)
H278? H 0.7663 0.6255 0.1344
H279? H 0.8327 0.6840 0.1334
C190? C 0.8459(7) 0.6688(7) 0.2041(4)
H280? H 0.9030 0.6956 0.2109
H281? H 0.8610 0.6235 0.2007
C191? C 0.7802(9) 0.6986(8) 0.2473(3)
H282? H 0.7677 0.6672 0.2645
H283? H 0.8079 0.7391 0.2738
O31? O 0.0696(9) 0.8576(5) 0.0882(3)
C192? C 0.0194(8) 0.8314(4) 0.1190(3)
H284? H -0.0373 0.8559 0.1292
H285? H 0.0560 0.8355 0.1512
C193? C -0.0038(9) 0.7592(4) 0.0873(3)
H286? H -0.0657 0.7469 0.0937
H287? H 0.0409 0.7302 0.0953
C194? C 0.0021(7) 0.7562(5) 0.0313(3)
H288? H -0.0562 0.7680 0.0179
H289? H 0.0195 0.7123 0.0077
C195? C 0.0773(7) 0.8079(5) 0.0382(4)
H290? H 0.1379 0.7880 0.0359
H291? H 0.0698 0.8267 0.0108
O32? O 0.1203(10) 0.6684(5) 0.2313(4)
C196? C 0.0776(8) 0.6044(6) 0.2097(4)
H292? H 0.0139 0.6066 0.1973
H293? H 0.0780 0.5831 0.2357
C197? C 0.1342(8) 0.5687(6) 0.1659(4)
H294? H 0.0963 0.5356 0.1378
H295? H 0.1830 0.5457 0.1779
C198? C 0.1752(8) 0.6167(6) 0.1460(4)
H296? H 0.2399 0.6070 0.1386
H297? H 0.1417 0.6155 0.1137
C199? C 0.1673(10) 0.6795(6) 0.1872(5)
H298? H 0.1312 0.7090 0.1745
H299? H 0.2285 0.7000 0.1997
O33? O 0.5755(6) 0.5862(4) 0.2256(3)
C200? C 0.5387(9) 0.5253(4) 0.1901(4)
H300? H 0.5583 0.5174 0.1546
H301? H 0.4713 0.5256 0.1893
C201? C 0.5733(10) 0.4714(3) 0.2086(4)
H302? H 0.5260 0.4364 0.2020
H303? H 0.6287 0.4517 0.1908
C202? C 0.5943(10) 0.5072(4) 0.2669(3)
H304? H 0.5449 0.4994 0.2872
H305? H 0.6524 0.4927 0.2782
C203? C 0.6009(10) 0.5794(4) 0.2735(3)
H306? H 0.5601 0.6052 0.3007
H307? H 0.6641 0.5963 0.2848
C204? C 0.0787(5) 0.9526(4) -0.0186(2)
H308? H 0.0586 0.9073 -0.0240
H309? H 0.1353 0.9506 -0.0371
C205? C 0.0047(7) 0.9862(6) -0.0398(2)
H310? H -0.0411 0.9538 -0.0627
H311? H 0.0312 1.0110 -0.0595
C206? C -0.0379(5) 1.0324(5) 0.0093(3)
H312? H -0.0241 1.0789 0.0150
H313? H -0.1048 1.0253 0.0072
C207? C 0.0080(5) 1.0130(6) 0.0522(3)
H314? H 0.0142 1.0514 0.0853
H315? H -0.0287 0.9784 0.0579
loop_
_geom_bond_atom_site_label_1
_geom_bond_atom_site_label_2
_geom_bond_site_symmetry_1
_geom_bond_site_symmetry_2
K1 O2 1_555 1_555
B1 C52 1_555 1_555
C1 C2 1_555 1_555
K2 O2 1_555 1_555
Cr1 C93 1_555 1_555
C2 C3 1_555 1_555
B2 C1 1_555 1_555
Cr2 C98 1_555 1_555
K3 O5 1_555 1_555
C3 H1 1_555 1_555
B3 C71 1_555 1_555
Cr3 C103 1_555 1_555
K4 O1 1_555 1_555
C4 C3 1_555 1_555
H2 C4 1_555 1_555
K5 O7 1_555 1_555
C5 C4 1_555 1_555
H3 C5 1_555 1_555
K6 O10 1_555 1_555
C6 C1 1_555 1_555
C7 C2 1_555 1_555
C8 C7 1_555 1_555
C9 C8 1_555 1_555
H4 C9 1_555 1_555
C10 C9 1_555 1_555
C11 C10 1_555 1_555
H5 C11 1_555 1_555
C12 C7 1_555 1_555
C13 C8 1_555 1_555
H6 C13 1_555 1_555
C14 C13 1_555 1_555
H7 C14 1_555 1_555
H8 C14 1_555 1_555
H9 C14 1_555 1_555
C15 C13 1_555 1_555
H10 C15 1_555 1_555
H11 C15 1_555 1_555
H12 C15 1_555 1_555
C16 C10 1_555 1_555
H13 C16 1_555 1_555
C17 C16 1_555 1_555
H14 C17 1_555 1_555
H15 C17 1_555 1_555
H16 C17 1_555 1_555
C18 C16 1_555 1_555
H17 C18 1_555 1_555
H18 C18 1_555 1_555
H19 C18 1_555 1_555
C19 C12 1_555 1_555
H20 C19 1_555 1_555
C20 C19 1_555 1_555
H21 C20 1_555 1_555
H22 C20 1_555 1_555
H23 C20 1_555 1_555
C21 C19 1_555 1_555
H24 C21 1_555 1_555
H25 C21 1_555 1_555
H26 C21 1_555 1_555
C22 C6 1_555 1_555
C23 C22 1_555 1_555
C24 C23 1_555 1_555
H27 C24 1_555 1_555
C25 C24 1_555 1_555
C26 C25 1_555 1_555
H28 C26 1_555 1_555
C27 C22 1_555 1_555
C28 C23 1_555 1_555
H29 C28 1_555 1_555
C29 C28 1_555 1_555
H30 C29 1_555 1_555
H31 C29 1_555 1_555
H32 C29 1_555 1_555
C30 C28 1_555 1_555
H33 C30 1_555 1_555
H34 C30 1_555 1_555
H35 C30 1_555 1_555
C31 C25 1_555 1_555
H36 C31 1_555 1_555
C32 C31 1_555 1_555
H37 C32 1_555 1_555
H38 C32 1_555 1_555
H39 C32 1_555 1_555
C33 C31 1_555 1_555
H40 C33 1_555 1_555
H41 C33 1_555 1_555
H42 C33 1_555 1_555
C34 C27 1_555 1_555
H43 C34 1_555 1_555
C35 C34 1_555 1_555
H44 C35 1_555 1_555
H45 C35 1_555 1_555
H46 C35 1_555 1_555
C36 C34 1_555 1_555
H47 C36 1_555 1_555
H48 C36 1_555 1_555
H49 C36 1_555 1_555
C37 C38 1_555 1_555
C38 C39 1_555 1_555
C39 H50 1_555 1_555
C40 C39 1_555 1_555
C41 C40 1_555 1_555
H51 C41 1_555 1_555
C42 C37 1_555 1_555
C43 C38 1_555 1_555
H52 C43 1_555 1_555
C44 C43 1_555 1_555
H53 C44 1_555 1_555
H54 C44 1_555 1_555
H55 C44 1_555 1_555
C45 C43 1_555 1_555
H56 C45 1_555 1_555
H57 C45 1_555 1_555
H58 C45 1_555 1_555
C46 C42 1_555 1_555
H59 C46 1_555 1_555
C47 C46 1_555 1_555
C48 C46 1_555 1_555
H60 C48 1_555 1_555
H61 C48 1_555 1_555
H62 C48 1_555 1_555
C49 C40 1_555 1_555
H63 C49 1_555 1_555
C50 C49 1_555 1_555
H64 C50 1_555 1_555
H65 C50 1_555 1_555
H66 C50 1_555 1_555
C51 C49 1_555 1_555
H67 C51 1_555 1_555
H68 C51 1_555 1_555
H69 C51 1_555 1_555
C52 C53 1_555 1_555
C53 C54 1_555 1_555
C54 H70 1_555 1_555
C55 C54 1_555 1_555
H71 C55 1_555 1_555
C56 C55 1_555 1_555
H72 C56 1_555 1_555
C57 C60 1_555 1_555
C58 C59 1_555 1_555
C59 H73 1_555 1_555
C60 C61 1_555 1_555
C61 C59 1_555 1_555
C62 C57 1_555 1_555
H74 C62 1_555 1_555
C63 C62 1_555 1_555
H75 C63 1_555 1_555
H76 C63 1_555 1_555
H77 C63 1_555 1_555
C64 C62 1_555 1_555
H78 C64 1_555 1_555
H79 C64 1_555 1_555
H80 C64 1_555 1_555
C65 C58 1_555 1_555
H81 C65 1_555 1_555
C66 C65 1_555 1_555
H82 C66 1_555 1_555
H83 C66 1_555 1_555
H84 C66 1_555 1_555
C67 C65 1_555 1_555
H85 C67 1_555 1_555
H86 C67 1_555 1_555
H87 C67 1_555 1_555
C68 C61 1_555 1_555
H88 C68 1_555 1_555
C69 C68 1_555 1_555
H89 C69 1_555 1_555
H90 C69 1_555 1_555
H91 C69 1_555 1_555
C70 C68 1_555 1_555
H92 C70 1_555 1_555
H93 C70 1_555 1_555
H94 C70 1_555 1_555
C71 C72 1_555 1_555
C72 C60 1_555 1_555
C73 C72 1_555 1_555
H95 C73 1_555 1_555
C74 C73 1_555 1_555
H96 C74 1_555 1_555
C75 C74 1_555 1_555
H97 C75 1_555 1_555
C76 C71 1_555 1_555
C77 H98 1_555 1_555
C78 C77 1_555 1_555
H99 C78 1_555 1_555
H100 C78 1_555 1_555
H101 C78 1_555 1_555
C79 C77 1_555 1_555
H102 C79 1_555 1_555
H103 C79 1_555 1_555
H104 C79 1_555 1_555
C80 C77 1_555 1_555
C81 C80 1_555 1_555
H105 C81 1_555 1_555
C82 C80 1_555 1_555
H106 C82 1_555 1_555
C83 C82 1_555 1_555
C84 C76 1_555 1_555
C85 C83 1_555 1_555
H107 C85 1_555 1_555
C86 C85 1_555 1_555
H108 C86 1_555 1_555
H109 C86 1_555 1_555
H110 C86 1_555 1_555
C87 C85 1_555 1_555
H111 C87 1_555 1_555
H112 C87 1_555 1_555
H113 C87 1_555 1_555
C88 C81 1_555 1_555
C89 C88 1_555 1_555
H114 C89 1_555 1_555
C90 C89 1_555 1_555
H115 C90 1_555 1_555
H116 C90 1_555 1_555
H117 C90 1_555 1_555
C91 C89 1_555 1_555
H118 C91 1_555 1_555
H119 C91 1_555 1_555
H120 C91 1_555 1_555
C92 C37 1_555 1_555
O1 C93 1_555 1_555
C93 B2 1_555 1_555
O2 C94 1_555 1_555
C94 Cr1 1_555 1_555
O3 K1 1_555 1_555
C95 Cr1 1_555 1_555
O4 C96 1_555 1_555
C96 Cr1 1_555 1_555
O5 K4 1_555 1_555
C97 Cr1 1_555 1_555
O6 K3 1_555 1_555
C98 B3 1_555 1_555
O7 C99 1_555 1_555
C99 Cr2 1_555 1_555
O8 K4 1_555 1_555
C100 Cr2 1_555 1_555
O9 C101 1_555 1_555
C101 Cr2 1_555 1_555
O10 K5 1_555 1_555
C102 Cr2 1_555 1_555
O11 C105 1_555 1_555
O12 C111 1_555 1_555
O13 C104 1_555 1_555
O14 K5 1_555 1_555
O15 K5 1_555 1_555
C103 O14 1_555 1_555
C104 Cr3 1_555 1_555
C105 B1 1_555 1_555
C106 B1 1_555 1_555
C107 C53 1_555 1_555
C108 C107 1_555 1_555
C109 C108 1_555 1_555
H121 C109 1_555 1_555
C110 C109 1_555 1_555
C111 Cr3 1_555 1_555
C112 C107 1_555 1_555
C113 C112 1_555 1_555
H122 C113 1_555 1_555
C114 C113 1_555 1_555
H123 C114 1_555 1_555
H124 C114 1_555 1_555
H125 C114 1_555 1_555
C115 C113 1_555 1_555
H126 C115 1_555 1_555
H127 C115 1_555 1_555
H128 C115 1_555 1_555
C116 C108 1_555 1_555
H129 C116 1_555 1_555
C117 C110 1_555 1_555
H130 C117 1_555 1_555
C118 C117 1_555 1_555
H131 C118 1_555 1_555
H132 C118 1_555 1_555
H133 C118 1_555 1_555
C119 C117 1_555 1_555
H134 C119 1_555 1_555
H135 C119 1_555 1_555
H136 C119 1_555 1_555
C120 C110 1_555 1_555
H137 C120 1_555 1_555
C121 C116 1_555 1_555
H138 C121 1_555 1_555
H139 C121 1_555 1_555
H140 C121 1_555 1_555
C122 C116 1_555 1_555
H141 C122 1_555 1_555
H142 C122 1_555 1_555
H143 C122 1_555 1_555
C123 C57 1_555 1_555
H144 C123 1_555 1_555
O16 K6 1_555 1_555
C124 O16 1_555 1_555
H145 C124 1_555 1_555
H146 C124 1_555 1_555
C125 C124 1_555 1_555
H147 C125 1_555 1_555
H148 C125 1_555 1_555
C126 C125 1_555 1_555
H149 C126 1_555 1_555
H150 C126 1_555 1_555
C127 O16 1_555 1_555
H151 C127 1_555 1_555
H152 C127 1_555 1_555
O17 K3 1_555 1_555
C128 O17 1_555 1_555
H153 C128 1_555 1_555
H154 C128 1_555 1_555
C129 C128 1_555 1_555
H155 C129 1_555 1_555
H156 C129 1_555 1_555
C130 C129 1_555 1_555
H157 C130 1_555 1_555
H158 C130 1_555 1_555
C131 O17 1_555 1_555
H159 C131 1_555 1_555
H160 C131 1_555 1_555
O18 K2 1_555 1_555
C132 O18 1_555 1_555
H161 C132 1_555 1_555
H162 C132 1_555 1_555
C133 C132 1_555 1_555
H163 C133 1_555 1_555
H164 C133 1_555 1_555
C134 C133 1_555 1_555
H165 C134 1_555 1_555
H166 C134 1_555 1_555
C135 O18 1_555 1_555
H167 C135 1_555 1_555
H168 C135 1_555 1_555
O19 K5 1_555 1_555
C136 O19 1_555 1_555
H169 C136 1_555 1_555
H170 C136 1_555 1_555
C137 C136 1_555 1_555
H171 C137 1_555 1_555
H172 C137 1_555 1_555
C138 C137 1_555 1_555
H173 C138 1_555 1_555
H174 C138 1_555 1_555
C139 O19 1_555 1_555
H175 C139 1_555 1_555
H176 C139 1_555 1_555
O20 K4 1_555 1_555
C140 O20 1_555 1_555
H177 C140 1_555 1_555
H178 C140 1_555 1_555
C141 C140 1_555 1_555
H179 C141 1_555 1_555
H180 C141 1_555 1_555
C142 C141 1_555 1_555
H181 C142 1_555 1_555
H182 C142 1_555 1_555
C143 O20 1_555 1_555
H183 C143 1_555 1_555
H184 C143 1_555 1_555
O21 K1 1_555 1_555
C144 O21 1_555 1_555
H185 C144 1_555 1_555
H186 C144 1_555 1_555
C145 C144 1_555 1_555
H187 C145 1_555 1_555
H188 C145 1_555 1_555
C146 C145 1_555 1_555
H189 C146 1_555 1_555
H190 C146 1_555 1_555
C147 O21 1_555 1_555
H191 C147 1_555 1_555
H192 C147 1_555 1_555
O22 K3 1_555 1_555
C148 O22 1_555 1_555
H193 C148 1_555 1_555
H194 C148 1_555 1_555
C149 C148 1_555 1_555
H195 C149 1_555 1_555
H196 C149 1_555 1_555
C150 C149 1_555 1_555
H197 C150 1_555 1_555
H198 C150 1_555 1_555
C151 O22 1_555 1_555
H199 C151 1_555 1_555
H200 C151 1_555 1_555
O23 K4 1_555 1_555
C152 O23 1_555 1_555
H201 C152 1_555 1_555
H202 C152 1_555 1_555
C153 C152 1_555 1_555
H203 C153 1_555 1_555
H204 C153 1_555 1_555
C154 C153 1_555 1_555
H205 C154 1_555 1_555
H206 C154 1_555 1_555
C155 O23 1_555 1_555
H207 C155 1_555 1_555
H208 C155 1_555 1_555
O24 K1 1_555 1_555
C156 H209 1_555 1_555
H210 C156 1_555 1_555
C157 C156 1_555 1_555
H211 C157 1_555 1_555
H212 C157 1_555 1_555
C158 C157 1_555 1_555
H213 C158 1_555 1_555
H214 C158 1_555 1_555
H215 C158 1_555 1_555
C159 H216 1_555 1_555
H217 C159 1_555 1_555
C160 C159 1_555 1_555
H218 C160 1_555 1_555
H219 C160 1_555 1_555
C161 C160 1_555 1_555
H220 C161 1_555 1_555
H221 C161 1_555 1_555
H222 C161 1_555 1_555
K1_2 O11 1_555 1_555
K2_2 O12 1_555 1_555
O11_2 K1 1_555 1_555
O12_2 K2 1_555 1_555
C156A C156 1_555 1_555
H209A C156A 1_555 1_555
H210A C156A 1_555 1_555
C157A C156A 1_555 1_555
H211A C157A 1_555 1_555
H212A C157A 1_555 1_555
C158A C157A 1_555 1_555
H213A C158A 1_555 1_555
H214A C158A 1_555 1_555
H215A C158A 1_555 1_555
C159A C159 1_555 1_555
H216A C159A 1_555 1_555
H217A C159A 1_555 1_555
C160A C159A 1_555 1_555
H218A C160A 1_555 1_555
H219A C160A 1_555 1_555
C161A C160A 1_555 1_555
H220A C161A 1_555 1_555
H221A C161A 1_555 1_555
H222A C161A 1_555 1_555
K2 O3 1_555 1_555
B2 C94 1_555 1_555
B3 C99 1_555 1_555
Cr3 C105 1_555 1_555
Cr3 C106 1_555 1_555
K4 O6 1_555 1_555
C5 C6 1_555 1_555
K6 O15 1_555 1_555
C11 C12 1_555 1_555
C26 C27 1_555 1_555
C41 C42 1_555 1_555
C52 C92 1_555 1_555
C56 C92 1_555 1_555
C58 C123 1_555 1_555
C75 C76 1_555 1_555
C83 C84 1_555 1_555
C84 C88 1_555 1_555
O3 C95 1_555 1_555
O5 C97 1_555 1_555
O6 C98 1_555 1_555
O8 C100 1_555 1_555
O10 C102 1_555 1_555
O15 C106 1_555 1_555
C112 C120 1_555 1_555
C126 C127 1_555 1_555
C130 C131 1_555 1_555
C134 C135 1_555 1_555
C138 C139 1_555 1_555
C142 C143 1_555 1_555
C146 C147 1_555 1_555
C150 C151 1_555 1_555
C154 C155 1_555 1_555

#END
