
#######################################################################
#
#                 Cambridge Crystallographic Data Centre
#                                CCDC 
#
#######################################################################
#
# If this CIF has been generated from an entry in the Cambridge 
# Structural Database, then it will include bibliographic, chemical, 
# crystal, experimental, refinement or atomic coordinate data resulting 
# from the CCDC's data processing and validation procedures.
#
#######################################################################

data_DIQNOI
_symmetry_cell_setting           monoclinic
_symmetry_space_group_name_H-M   'C 2/c'
_symmetry_Int_Tables_number      15
_space_group_name_Hall           '-C 2yn'
loop_
_symmetry_equiv_pos_site_id
_symmetry_equiv_pos_as_xyz
1 x,y,z
2 -x,y,1/2-z
3 1/2+x,1/2+y,z
4 1/2-x,1/2+y,1/2-z
5 -x,-y,-z
6 x,-y,1/2+z
7 1/2-x,1/2-y,-z
8 1/2+x,1/2-y,1/2+z
_cell_length_a                   25.121(3)
_cell_length_b                   17.172(2)
_cell_length_c                   36.027(4)
_cell_angle_alpha                90
_cell_angle_beta                 91.572(2)
_cell_angle_gamma                90
_cell_volume                     15535.4
loop_
_atom_site_label
_atom_site_type_symbol
_atom_site_fract_x
_atom_site_fract_y
_atom_site_fract_z
C1 C 0.43767(14) 0.09735(19) 0.11028(9)
C2 C 0.38267(14) 0.0978(2) 0.12397(9)
C3 C 0.37050(15) 0.1421(2) 0.15468(10)
H1 H 0.3968 0.1711 0.1670
C4 C 0.31858(16) 0.1426(3) 0.16684(11)
C5 C 0.27908(16) 0.0983(3) 0.14981(11)
H2 H 0.2446 0.0980 0.1585
C6 C 0.29280(15) 0.0543(2) 0.11938(11)
C7 C 0.34324(14) 0.0532(2) 0.10609(10)
H3 H 0.3511 0.0231 0.0855
C8 C 0.53475(13) 0.20861(19) 0.04561(10)
C9 C 0.54209(13) 0.2888(2) 0.02950(10)
C10 C 0.52154(15) 0.3069(2) -0.00545(10)
H4 H 0.5023 0.2702 -0.0193
C11 C 0.53027(17) 0.3808(2) -0.01947(11)
C12 C 0.55976(17) 0.4362(2) 0.00014(12)
H5 H 0.5657 0.4853 -0.0098
C13 C 0.58003(16) 0.4163(2) 0.03493(13)
C14 C 0.57168(15) 0.3433(2) 0.05012(11)
H6 H 0.5855 0.3309 0.0736
C15 C 0.51773(14) -0.06541(19) 0.14161(9)
C16 C 0.51578(14) -0.1391(2) 0.16385(10)
C17 C 0.48388(14) -0.1997(2) 0.15063(10)
H7 H 0.4620 -0.1933 0.1296
C18 C 0.48562(16) -0.2697(2) 0.16957(12)
C19 C 0.51810(16) -0.2807(2) 0.20033(12)
H8 H 0.5192 -0.3287 0.2123
C20 C 0.54901(15) -0.2196(2) 0.21318(11)
C21 C 0.54834(14) -0.1478(2) 0.19548(10)
H9 H 0.5690 -0.1066 0.2045
C22 C 0.64833(14) 0.0911(2) 0.13655(10)
C23 C 0.70388(14) 0.0968(2) 0.15237(10)
C24 C 0.74376(15) 0.0527(2) 0.13703(10)
H10 H 0.7361 0.0195 0.1172
C25 C 0.79512(16) 0.0585(3) 0.15144(12)
C26 C 0.80756(17) 0.1090(3) 0.18032(12)
H11 H 0.8422 0.1128 0.1899
C27 C 0.76758(18) 0.1531(3) 0.19454(11)
C28 C 0.71548(17) 0.1467(3) 0.18178(11)
H12 H 0.6886 0.1753 0.1927
C29 C 0.61992(13) 0.0834(2) -0.00337(9)
C30 C 0.64626(14) 0.1617(2) -0.00070(9)
C31 C 0.64816(15) 0.2087(2) -0.03179(11)
H13 H 0.6351 0.1912 -0.0547
C32 C 0.66993(16) 0.2826(2) -0.02810(11)
C33 C 0.69118(16) 0.3090(2) 0.00516(12)
H14 H 0.7063 0.3583 0.0071
C34 C 0.68945(15) 0.2600(2) 0.03569(11)
C35 C 0.66688(14) 0.1865(2) 0.03359(10)
H15 H 0.6655 0.1546 0.0544
C36 C 0.59209(13) -0.1507(2) 0.06788(9)
C37 C 0.61537(13) -0.1908(2) 0.10159(9)
C38 C 0.60684(14) -0.2693(2) 0.10737(10)
H16 H 0.5859 -0.2981 0.0907
C39 C 0.62981(16) -0.3044(2) 0.13827(10)
C40 C 0.66157(17) -0.2631(2) 0.16344(11)
H17 H 0.6771 -0.2874 0.1841
C41 C 0.66955(16) -0.1845(2) 0.15689(10)
C42 C 0.64672(14) -0.1475(2) 0.12664(9)
H18 H 0.6521 -0.0946 0.1229
C43 C 0.42249(14) 0.0146(2) 0.22777(9)
C44 C 0.37214(14) -0.0251(2) 0.21428(9)
C45 C 0.37320(16) -0.0736(2) 0.18341(10)
H19 H 0.4045 -0.0807 0.1706
C46 C 0.32711(17) -0.1109(2) 0.17209(11)
C47 C 0.27924(17) -0.0987(3) 0.18925(12)
H20 H 0.2482 -0.1233 0.1809
C48 C 0.27924(17) -0.0487(3) 0.21916(13)
C49 C 0.32540(15) -0.0127(2) 0.23267(11)
H21 H 0.3248 0.0190 0.2536
C50 C 0.43926(14) 0.2369(2) 0.24037(10)
C51 C 0.43666(14) 0.3200(2) 0.22698(10)
C52 C 0.42421(15) 0.3793(2) 0.25166(11)
H22 H 0.4128 0.3678 0.2754
C53 C 0.42914(16) 0.4553(2) 0.24009(12)
C54 C 0.44531(15) 0.4749(2) 0.20502(12)
H23 H 0.4487 0.5267 0.1979
C55 C 0.45637(16) 0.4146(2) 0.18085(11)
C56 C 0.45216(15) 0.3382(2) 0.19127(10)
H24 H 0.4596 0.2987 0.1745
C57 C 0.40114(16) 0.2489(2) 0.05986(11)
H25 H 0.4379 0.2531 0.0582
C58 C 0.37527(17) 0.2992(2) 0.08446(11)
H26 H 0.3945 0.3352 0.0987
C59 C 0.32148(17) 0.2936(2) 0.08677(11)
H27 H 0.3035 0.3254 0.1032
C60 C 0.29326(16) 0.2404(2) 0.06464(11)
C61 C 0.23667(16) 0.2340(3) 0.06473(12)
H28 H 0.2177 0.2646 0.0811
C62 C 0.21021(16) 0.1851(3) 0.04190(12)
H29 H 0.1732 0.1831 0.0422
C63 C 0.23849(15) 0.1355(2) 0.01672(11)
C64 C 0.29476(14) 0.1380(2) 0.01674(10)
C65 C 0.32257(14) 0.1922(2) 0.04044(10)
C66 C 0.21204(16) 0.0850(3) -0.00815(11)
H30 H 0.1751 0.0816 -0.0086
C67 C 0.24117(16) 0.0407(2) -0.03187(11)
H31 H 0.2243 0.0076 -0.0489
C68 C 0.29645(14) 0.0464(2) -0.02997(10)
H32 H 0.3158 0.0162 -0.0463
Cl1 Cl 0.24371(4) -0.00259(7) 0.09772(3)
Cl2 Cl 0.30363(5) 0.19807(10) 0.20506(4)
Cl3 Cl 0.50559(6) 0.40531(8) -0.06299(3)
Cl4 Cl 0.61840(6) 0.48330(7) 0.05970(4)
Cl5 Cl 0.44565(5) -0.34514(6) 0.15260(3)
Cl6 Cl 0.59165(4) -0.23309(7) 0.25091(3)
Cl7 Cl 0.84542(4) 0.00292(8) 0.13227(4)
Cl8 Cl 0.78285(6) 0.22050(10) 0.22912(3)
Cl9 Cl 0.71536(5) 0.29259(7) 0.07810(3)
Cl10 Cl 0.66983(6) 0.34422(7) -0.06636(3)
Cl11 Cl 0.70860(5) -0.13124(7) 0.18834(3)
Cl12 Cl 0.61879(5) -0.40224(6) 0.14607(3)
Cl13 Cl 0.32864(5) -0.17681(8) 0.13550(3)
Cl14 Cl 0.21953(5) -0.03121(11) 0.24108(4)
Cl15 Cl 0.47741(5) 0.43727(7) 0.13654(3)
Cl16 Cl 0.41556(5) 0.53041(6) 0.27081(3)
La1 La 0.432464(7) 0.074138(11) 0.006224(5)
La2 La 0.547107(7) 0.046894(11) 0.083852(5)
La3 La 0.531216(8) 0.113061(11) 0.192070(5)
N1 N 0.37630(12) 0.19596(17) 0.03898(8)
N2 N 0.32330(12) 0.09223(18) -0.00623(8)
O1 O 0.44479(9) 0.07985(14) 0.07670(6)
O2 O 0.47688(9) 0.11371(14) 0.13175(6)
O3 O 0.50984(10) 0.15832(14) 0.02618(7)
O4 O 0.55414(10) 0.19400(14) 0.07726(6)
O5 O 0.49125(10) -0.06182(14) 0.11194(7)
O6 O 0.54837(9) -0.01006(14) 0.15239(6)
O7 O 0.64232(10) 0.05753(16) 0.10548(7)
O8 O 0.61091(10) 0.12009(15) 0.15376(7)
O9 O 0.60067(9) 0.05446(13) 0.02586(6)
O10 O 0.61756(10) 0.04772(14) -0.03374(6)
O11 O 0.59407(9) -0.07676(14) 0.06695(6)
O12 O 0.57323(10) -0.18995(15) 0.04128(7)
O13 O 0.49770(10) -0.02466(15) 0.03430(7)
H33 H 0.4831(16) -0.049(2) 0.0434(11)
O14 O 0.46036(10) 0.01928(15) 0.20581(7)
O15 O 0.42328(10) 0.03997(15) 0.26053(7)
O16 O 0.45916(10) 0.18718(14) 0.21891(7)
O17 O 0.42419(11) 0.22221(15) 0.27252(7)
O18 O 0.53990(12) 0.24381(16) 0.15173(7)
H34 H 0.546(2) 0.237(3) 0.1290(5)
H35 H 0.5651(19) 0.278(3) 0.1542(17)
La1D La 0.567536(7) -0.074138(11) -0.006224(5)
La3A La 0.468784(8) 0.113061(11) 0.307930(5)
O9D O 0.39933(9) -0.05446(13) -0.02586(6)
O10D O 0.38244(10) -0.04772(14) 0.03374(6)
O11D O 0.40593(9) 0.07676(14) -0.06695(6)
O12D O 0.42677(10) 0.18995(15) -0.04128(7)
O13D O 0.50230(10) 0.02466(15) -0.03430(7)
O15A O 0.57672(10) 0.03997(15) 0.23947(7)
O17A O 0.57581(11) 0.22221(15) 0.22748(7)
loop_
_geom_bond_atom_site_label_1
_geom_bond_atom_site_label_2
_geom_bond_site_symmetry_1
_geom_bond_site_symmetry_2
C1 C2 1_555 1_555
C2 C3 1_555 1_555
C3 H1 1_555 1_555
C4 C3 1_555 1_555
C5 C4 1_555 1_555
H2 C5 1_555 1_555
C6 C5 1_555 1_555
C7 C2 1_555 1_555
H3 C7 1_555 1_555
C8 C9 1_555 1_555
C9 C10 1_555 1_555
C10 H4 1_555 1_555
C11 C10 1_555 1_555
C12 C11 1_555 1_555
H5 C12 1_555 1_555
C13 C12 1_555 1_555
C14 C9 1_555 1_555
H6 C14 1_555 1_555
C15 C16 1_555 1_555
C16 C17 1_555 1_555
C17 H7 1_555 1_555
C18 C17 1_555 1_555
C19 C18 1_555 1_555
H8 C19 1_555 1_555
C20 C19 1_555 1_555
C21 C16 1_555 1_555
H9 C21 1_555 1_555
C22 C23 1_555 1_555
C23 C24 1_555 1_555
C24 H10 1_555 1_555
C25 C24 1_555 1_555
C26 C25 1_555 1_555
H11 C26 1_555 1_555
C27 C26 1_555 1_555
C28 C23 1_555 1_555
H12 C28 1_555 1_555
C29 C30 1_555 1_555
C30 C31 1_555 1_555
C31 H13 1_555 1_555
C32 C31 1_555 1_555
C33 C32 1_555 1_555
H14 C33 1_555 1_555
C34 C33 1_555 1_555
C35 C30 1_555 1_555
H15 C35 1_555 1_555
C36 C37 1_555 1_555
C37 C38 1_555 1_555
C38 H16 1_555 1_555
C39 C38 1_555 1_555
C40 C39 1_555 1_555
H17 C40 1_555 1_555
C41 C40 1_555 1_555
C42 C37 1_555 1_555
H18 C42 1_555 1_555
C43 C44 1_555 1_555
C44 C45 1_555 1_555
C45 H19 1_555 1_555
C46 C45 1_555 1_555
C47 C46 1_555 1_555
H20 C47 1_555 1_555
C48 C47 1_555 1_555
C49 C44 1_555 1_555
H21 C49 1_555 1_555
C50 C51 1_555 1_555
C51 C52 1_555 1_555
C52 H22 1_555 1_555
C53 C52 1_555 1_555
C54 C53 1_555 1_555
H23 C54 1_555 1_555
C55 C54 1_555 1_555
C56 C51 1_555 1_555
H24 C56 1_555 1_555
C57 H25 1_555 1_555
C58 C57 1_555 1_555
H26 C58 1_555 1_555
C59 C58 1_555 1_555
H27 C59 1_555 1_555
C60 C59 1_555 1_555
C61 C60 1_555 1_555
H28 C61 1_555 1_555
C62 C61 1_555 1_555
H29 C62 1_555 1_555
C63 C62 1_555 1_555
C64 C63 1_555 1_555
C65 C60 1_555 1_555
C66 C63 1_555 1_555
H30 C66 1_555 1_555
C67 C66 1_555 1_555
H31 C67 1_555 1_555
C68 C67 1_555 1_555
H32 C68 1_555 1_555
Cl1 C6 1_555 1_555
Cl2 C4 1_555 1_555
Cl3 C11 1_555 1_555
Cl4 C13 1_555 1_555
Cl5 C18 1_555 1_555
Cl6 C20 1_555 1_555
Cl7 C25 1_555 1_555
Cl8 C27 1_555 1_555
Cl9 C34 1_555 1_555
Cl10 C32 1_555 1_555
Cl11 C41 1_555 1_555
Cl12 C39 1_555 1_555
Cl13 C46 1_555 1_555
Cl14 C48 1_555 1_555
Cl15 C55 1_555 1_555
Cl16 C53 1_555 1_555
La1 N1 1_555 1_555
La2 O1 1_555 1_555
La3 O2 1_555 1_555
N1 C57 1_555 1_555
N2 C64 1_555 1_555
O1 C1 1_555 1_555
O2 C1 1_555 1_555
O3 C8 1_555 1_555
O4 C8 1_555 1_555
O5 C15 1_555 1_555
O6 C15 1_555 1_555
O7 C22 1_555 1_555
O8 C22 1_555 1_555
O9 C29 1_555 1_555
O10 C29 1_555 1_555
O11 C36 1_555 1_555
O12 C36 1_555 1_555
O13 La1 1_555 1_555
H33 O13 1_555 1_555
O14 C43 1_555 1_555
O15 C43 1_555 1_555
O16 C50 1_555 1_555
O17 C50 1_555 1_555
O18 La3 1_555 1_555
H34 O18 1_555 1_555
H35 O18 1_555 1_555
La1D O9 1_555 1_555
La3A O15 1_555 1_555
O9D La1 1_555 1_555
O10D La1 1_555 1_555
O11D La1 1_555 1_555
O12D La1 1_555 1_555
O13D La1 1_555 1_555
O15A La3 1_555 1_555
O17A La3 1_555 1_555
C6 C7 1_555 1_555
C13 C14 1_555 1_555
C20 C21 1_555 1_555
C27 C28 1_555 1_555
C34 C35 1_555 1_555
C41 C42 1_555 1_555
C48 C49 1_555 1_555
C55 C56 1_555 1_555
C64 C65 1_555 1_555
C65 N1 1_555 1_555
C68 N2 1_555 1_555
La1 N2 1_555 1_555
La1 O1 1_555 1_555
La1 O3 1_555 1_555
La2 O2 1_555 1_555
La2 O3 1_555 1_555
La2 O4 1_555 1_555
La2 O5 1_555 1_555
La2 O6 1_555 1_555
La2 O7 1_555 1_555
La2 O9 1_555 1_555
La2 O11 1_555 1_555
La2 O13 1_555 1_555
La3 O6 1_555 1_555
La3 O8 1_555 1_555
La3 O14 1_555 1_555
La3 O16 1_555 1_555
O10 La1D 1_555 1_555
O11 La1D 1_555 1_555
O12 La1D 1_555 1_555
O13 La1D 1_555 1_555
O17 La3A 1_555 1_555
La1D O13D 1_555 1_555

#END
