
#######################################################################
#
#                 Cambridge Crystallographic Data Centre
#                                CCDC 
#
#######################################################################
#
# If this CIF has been generated from an entry in the Cambridge 
# Structural Database, then it will include bibliographic, chemical, 
# crystal, experimental, refinement or atomic coordinate data resulting 
# from the CCDC's data processing and validation procedures.
#
#######################################################################

data_DIQNUO
_symmetry_cell_setting           triclinic
_symmetry_space_group_name_H-M   'P -1'
_symmetry_Int_Tables_number      2
_space_group_name_Hall           '-P 1'
loop_
_symmetry_equiv_pos_site_id
_symmetry_equiv_pos_as_xyz
1 x,y,z
2 -x,-y,-z
_cell_length_a                   9.209(2)
_cell_length_b                   10.643(2)
_cell_length_c                   14.294(4)
_cell_angle_alpha                77.982(8)
_cell_angle_beta                 86.515(11)
_cell_angle_gamma                75.647(9)
_cell_volume                     1327.44
loop_
_atom_site_label
_atom_site_type_symbol
_atom_site_fract_x
_atom_site_fract_y
_atom_site_fract_z
C1 C 0.4665(9) 0.2574(9) -0.2474(5)
H1 H 0.5005 0.1627 -0.2321
H2 H 0.5158 0.2912 -0.3049
H3 H 0.3601 0.2817 -0.2569
C2 C 0.5018(6) 0.3128(6) -0.1693(3)
H4 H 0.5997 0.2638 -0.1444
H5 H 0.5061 0.4040 -0.1934
C3 C 0.0698(3) 0.2444(3) 0.0551(2)
C4 C 0.0033(3) 0.1278(3) 0.0868(2)
C5 C -0.1371(4) 0.1322(3) 0.0539(2)
H6 H -0.1891 0.2062 0.0116
C6 C -0.1981(4) 0.0236(3) 0.0855(3)
C7 C -0.1234(4) -0.0882(3) 0.1473(2)
H7 H -0.1658 -0.1601 0.1676
C8 C 0.0168(4) -0.0899(3) 0.1781(2)
C9 C 0.0820(4) 0.0165(3) 0.1491(2)
H8 H 0.1762 0.0134 0.1707
C10 C 0.0143(4) 0.4853(3) 0.1912(2)
C11 C 0.0222(4) 0.4376(3) 0.2986(2)
C12 C -0.1073(4) 0.4186(3) 0.3492(2)
H9 H -0.1992 0.4422 0.3185
C13 C -0.0964(4) 0.3637(3) 0.4464(2)
C14 C 0.0384(4) 0.3297(3) 0.4943(2)
H10 H 0.0442 0.2928 0.5594
C15 C 0.1646(4) 0.3524(3) 0.4421(2)
C16 C 0.1588(4) 0.4054(3) 0.3445(2)
H11 H 0.2449 0.4189 0.3106
C17 C 0.4481(3) 0.6474(3) -0.1238(2)
C18 C 0.4328(3) 0.7541(3) -0.2127(2)
C19 C 0.2966(3) 0.7989(3) -0.2606(2)
H12 H 0.2166 0.7610 -0.2397
C20 C 0.2826(3) 0.9015(3) -0.3402(2)
C21 C 0.4009(4) 0.9580(3) -0.3734(2)
H13 H 0.3902 1.0262 -0.4269
C22 C 0.5352(4) 0.9104(3) -0.3250(2)
C23 C 0.5540(3) 0.8093(3) -0.2443(2)
H14 H 0.6448 0.7792 -0.2122
Cl1 Cl -0.37600(10) 0.03160(9) 0.04842(9)
Cl2 Cl 0.11279(11) -0.23012(8) 0.25547(6)
Cl3 Cl -0.25681(12) 0.33420(11) 0.50873(7)
Cl4 Cl 0.33575(12) 0.31041(10) 0.49955(7)
Cl5 Cl 0.11135(9) 0.96193(9) -0.39800(6)
Cl6 Cl 0.68626(12) 0.97886(11) -0.36651(6)
Dy1 Dy 0.218991(13) 0.453834(12) -0.008225(9)
O1 O -0.0157(2) 0.3580(2) 0.02316(16)
O2 O 0.2090(2) 0.2289(2) 0.05885(17)
O3 O -0.1142(3) 0.5299(3) 0.15533(16)
O4 O 0.1367(2) 0.4746(2) 0.14618(15)
O5 O 0.3332(2) 0.6040(2) -0.09675(17)
O6 O 0.5705(2) 0.6092(2) -0.08157(17)
O7 O 0.3935(3) 0.3082(3) -0.0937(2)
H15 H 0.428(7) 0.238(7) -0.063(5)
Dy1A Dy -0.218991(13) 0.546166(12) 0.008225(9)
Dy1A_2 Dy 0.781009(13) 0.546166(12) 0.008225(9)
O1A O 0.0157(2) 0.6420(2) -0.02316(16)
O3A O 0.1142(3) 0.4701(3) -0.15533(16)
O6A O 0.4295(2) 0.3908(2) 0.08157(17)
loop_
_geom_bond_atom_site_label_1
_geom_bond_atom_site_label_2
_geom_bond_site_symmetry_1
_geom_bond_site_symmetry_2
C1 H1 1_555 1_555
H2 C1 1_555 1_555
H3 C1 1_555 1_555
C2 C1 1_555 1_555
H4 C2 1_555 1_555
H5 C2 1_555 1_555
C3 C4 1_555 1_555
C4 C5 1_555 1_555
C5 H6 1_555 1_555
C6 C5 1_555 1_555
C7 C6 1_555 1_555
H7 C7 1_555 1_555
C8 C7 1_555 1_555
C9 C4 1_555 1_555
H8 C9 1_555 1_555
C10 C11 1_555 1_555
C11 C12 1_555 1_555
C12 H9 1_555 1_555
C13 C12 1_555 1_555
C14 C13 1_555 1_555
H10 C14 1_555 1_555
C15 C14 1_555 1_555
C16 C11 1_555 1_555
H11 C16 1_555 1_555
C17 C18 1_555 1_555
C18 C19 1_555 1_555
C19 H12 1_555 1_555
C20 C19 1_555 1_555
C21 C20 1_555 1_555
H13 C21 1_555 1_555
C22 C21 1_555 1_555
C23 C18 1_555 1_555
H14 C23 1_555 1_555
Cl1 C6 1_555 1_555
Cl2 C8 1_555 1_555
Cl3 C13 1_555 1_555
Cl4 C15 1_555 1_555
Cl5 C20 1_555 1_555
Cl6 C22 1_555 1_555
Dy1 O1 1_555 1_555
O1 C3 1_555 1_555
O2 C3 1_555 1_555
O3 C10 1_555 1_555
O4 C10 1_555 1_555
O5 C17 1_555 1_555
O6 C17 1_555 1_555
O7 C2 1_555 1_555
H15 O7 1_555 1_555
Dy1A O1 1_555 1_555
Dy1A_2 O6 1_555 1_555
O1A Dy1 1_555 1_555
O3A Dy1 1_555 1_555
O6A Dy1 1_555 1_555
C8 C9 1_555 1_555
C15 C16 1_555 1_555
C22 C23 1_555 1_555
Dy1 O2 1_555 1_555
Dy1 O4 1_555 1_555
Dy1 O5 1_555 1_555
Dy1 O7 1_555 1_555
O3 Dy1A 1_555 1_555
Dy1A O1A 1_555 1_555

#END
