
#######################################################################
#
#                 Cambridge Crystallographic Data Centre
#                                CCDC 
#
#######################################################################
#
# If this CIF has been generated from an entry in the Cambridge 
# Structural Database, then it will include bibliographic, chemical, 
# crystal, experimental, refinement or atomic coordinate data resulting 
# from the CCDC's data processing and validation procedures.
#
#######################################################################

data_DIQPUO01
_symmetry_cell_setting           monoclinic
_symmetry_space_group_name_H-M   'C 2/c'
_symmetry_Int_Tables_number      15
_space_group_name_Hall           '-C 2yn'
loop_
_symmetry_equiv_pos_site_id
_symmetry_equiv_pos_as_xyz
1 x,y,z
2 1/2+x,1/2+y,z
3 -x,y,1/2-z
4 1/2-x,1/2+y,1/2-z
5 -x,-y,-z
6 1/2-x,1/2-y,-z
7 x,-y,1/2+z
8 1/2+x,1/2-y,1/2+z
_cell_length_a                   20.311(4)
_cell_length_b                   11.639(2)
_cell_length_c                   9.885(2)
_cell_angle_alpha                90.00
_cell_angle_beta                 115.65(3)
_cell_angle_gamma                90.00
_cell_volume                     2106.53
loop_
_atom_site_label
_atom_site_type_symbol
_atom_site_fract_x
_atom_site_fract_y
_atom_site_fract_z
Tb1 Tb 0.5000 0.012616(17) 0.7500
C1 C 0.5000 0.2543(4) 0.7500
O1 O 0.55148(15) -0.1562(2) 0.9014(4)
N1 N 0.5000 0.6232(6) 0.7500
O2 O 0.46918(13) 0.2015(2) 0.8187(3)
C2 C 0.5000 0.3842(5) 0.7500
N2 N 0.8237(2) -0.2186(6) 0.9123(5)
O3 O 0.58116(14) -0.0264(3) 0.6514(4)
C3 C 0.4600(3) 0.4438(4) 0.8081(6)
H1 H 0.4321 0.4064 0.8485
C4 C 0.4632(5) 0.5639(5) 0.8036(9)
H2 H 0.4361 0.6046 0.8430
O4 O 0.60612(14) -0.0765(2) 0.4625(3)
C5 C 0.62045(17) -0.0713(3) 0.5984(4)
C6 C 0.69186(18) -0.1236(4) 0.7093(4)
C7 C 0.7235(2) -0.0918(6) 0.8581(5)
H3 H 0.7012 -0.0374 0.8937
C8 C 0.7886(3) -0.1418(8) 0.9534(7)
H4 H 0.8091 -0.1196 1.0537
C9 C 0.7931(3) -0.2475(6) 0.7705(6)
H5 H 0.8168 -0.3015 0.7379
C10 C 0.7276(2) -0.2029(5) 0.6657(6)
H6 H 0.7084 -0.2271 0.5663
Tb1F Tb 0.5000 -0.012616(17) 0.2500
Tb1F_2 Tb 0.5000 -0.012616(17) 1.2500
O1B O 0.44852(15) -0.1562(2) 0.5986(4)
O2B O 0.53082(13) 0.2015(2) 0.6813(3)
N2B N 0.1763(2) -0.2186(6) 0.5877(5)
O3B O 0.41884(14) -0.0264(3) 0.8486(4)
C3B C 0.5400(3) 0.4438(4) 0.6919(6)
H1B H 0.5679 0.4064 0.6515
C4B C 0.5368(5) 0.5639(5) 0.6964(9)
H2B H 0.5639 0.6046 0.6570
O4B O 0.39388(14) -0.0765(2) 1.0375(3)
O4F O 0.60612(14) 0.0765(2) 0.9625(3)
O4D O 0.39388(14) 0.0765(2) 0.5375(3)
C5B C 0.37955(17) -0.0713(3) 0.9016(4)
C6B C 0.30814(18) -0.1236(4) 0.7907(4)
C7B C 0.2765(2) -0.0918(6) 0.6419(5)
H3B H 0.2988 -0.0374 0.6063
C8B C 0.2114(3) -0.1418(8) 0.5466(7)
H4B H 0.1909 -0.1196 0.4463
C9B C 0.2069(3) -0.2475(6) 0.7295(6)
H5B H 0.1832 -0.3015 0.7621
C10B C 0.2724(2) -0.2029(5) 0.8343(6)
H6B H 0.2916 -0.2271 0.9337
loop_
_geom_bond_atom_site_label_1
_geom_bond_atom_site_label_2
_geom_bond_site_symmetry_1
_geom_bond_site_symmetry_2
Tb1 O1 1_555 1_555
C1 O2 1_555 1_555
N1 C4 1_555 1_555
O2 Tb1 1_555 1_555
C2 C1 1_555 1_555
N2 C8 1_555 1_555
O3 Tb1 1_555 1_555
C3 C2 1_555 1_555
H1 C3 1_555 1_555
C4 C3 1_555 1_555
H2 C4 1_555 1_555
O4 C5 1_555 1_555
C5 O3 1_555 1_555
C6 C5 1_555 1_555
C7 C6 1_555 1_555
H3 C7 1_555 1_555
C8 C7 1_555 1_555
H4 C8 1_555 1_555
C9 N2 1_555 1_555
H5 C9 1_555 1_555
C10 C6 1_555 1_555
H6 C10 1_555 1_555
Tb1F O4 1_555 1_555
Tb1F_2 O4B 1_555 1_555
O1B Tb1 1_555 1_555
O2B Tb1 1_555 1_555
N2B C8B 1_555 1_555
O3B Tb1 1_555 1_555
C3B C2 1_555 1_555
H1B C3B 1_555 1_555
C4B N1 1_555 1_555
H2B C4B 1_555 1_555
O4B C5B 1_555 1_555
O4F Tb1 1_555 1_555
O4D Tb1 1_555 1_555
C5B O3B 1_555 1_555
C6B C5B 1_555 1_555
C7B C6B 1_555 1_555
H3B C7B 1_555 1_555
C8B C7B 1_555 1_555
H4B C8B 1_555 1_555
C9B N2B 1_555 1_555
H5B C9B 1_555 1_555
C10B C6B 1_555 1_555
H6B C10B 1_555 1_555
C1 O2B 1_555 1_555
C9 C10 1_555 1_555
C3B C4B 1_555 1_555
C9B C10B 1_555 1_555

#END
