
#######################################################################
#
#                 Cambridge Crystallographic Data Centre
#                                CCDC 
#
#######################################################################
#
# If this CIF has been generated from an entry in the Cambridge 
# Structural Database, then it will include bibliographic, chemical, 
# crystal, experimental, refinement or atomic coordinate data resulting 
# from the CCDC's data processing and validation procedures.
#
#######################################################################

data_DIQPUO
_symmetry_cell_setting           monoclinic
_symmetry_space_group_name_H-M   'C 2/c'
_symmetry_Int_Tables_number      15
_space_group_name_Hall           '-C 2yn'
loop_
_symmetry_equiv_pos_site_id
_symmetry_equiv_pos_as_xyz
1 x,y,z
2 1/2+x,1/2+y,z
3 x,-y,1/2+z
4 1/2+x,1/2-y,1/2+z
5 -x,-y,-z
6 1/2-x,1/2-y,-z
7 -x,y,1/2-z
8 1/2-x,1/2+y,1/2-z
_cell_length_a                   20.253(4)
_cell_length_b                   11.584(2)
_cell_length_c                   9.839(2)
_cell_angle_alpha                90.00
_cell_angle_beta                 115.64(3)
_cell_angle_gamma                90.00
_cell_volume                     2081.03
loop_
_atom_site_label
_atom_site_type_symbol
_atom_site_fract_x
_atom_site_fract_y
_atom_site_fract_z
Tb1 Tb 0.5000 -0.01209(3) 0.2500
O1 O 0.4694(3) -0.2015(4) 0.3179(5)
O2 O 0.3937(3) 0.0770(4) 0.5380(6)
O3 O 0.5515(3) 0.1558(4) 0.4029(7)
C1 C 0.5000 -0.2535(7) 0.2500
C2 C 0.5000 -0.3830(8) 0.2500
C3 C 0.3789(4) 0.0707(5) 0.4021(9)
C4 C 0.4603(7) -0.4423(8) 0.3078(12)
H1 H 0.4325 -0.4032 0.3477
O4 O 0.4186(3) 0.0266(5) 0.3474(7)
C5 C 0.3074(4) 0.1228(6) 0.2915(8)
C6 C 0.2719(5) 0.2014(9) 0.3371(11)
H2 H 0.2915 0.2247 0.4373
N1 N 0.1761(6) 0.2197(13) 0.0910(13)
C7 C 0.2754(5) 0.0893(11) 0.1429(11)
H3 H 0.2977 0.0341 0.1079
N2 N 0.5000 -0.6201(12) 0.2500
C8 C 0.4615(11) -0.5615(10) 0.3069(17)
H4 H 0.5655 -0.6019 0.1526
C9 C 0.2071(7) 0.2464(13) 0.2349(15)
H5 H 0.1833 0.2994 0.2694
C10 C 0.2105(6) 0.1380(15) 0.0475(14)
H6 H 0.1889 0.1139 -0.0524
Tb1B Tb 0.5000 0.01209(3) 0.7500
O1F O 0.5306(3) -0.2015(4) 0.1821(5)
O2B O 0.3937(3) -0.0770(4) 0.0380(6)
O4F O 0.5814(3) 0.0266(5) 0.1526(7)
O2D O 0.6063(3) -0.0770(4) 0.4620(6)
C3D C 0.6211(4) -0.0707(5) 0.5979(9)
O4D O 0.5814(3) -0.0266(5) 0.6526(7)
C5D C 0.6926(4) -0.1228(6) 0.7085(8)
C6D C 0.7281(5) -0.2014(9) 0.6629(11)
H2D H 0.7085 -0.2247 0.5627
C9D C 0.7929(7) -0.2464(13) 0.7651(15)
N1D N 0.8239(6) -0.2197(13) 0.9090(13)
C10D C 0.7895(6) -0.1380(15) 0.9525(14)
C7D C 0.7246(5) -0.0893(11) 0.8571(11)
H3D H 0.7023 -0.0341 0.8921
H6D H 0.8111 -0.1139 1.0524
H5D H 0.8167 -0.2994 0.7306
O3F O 0.4485(3) 0.1558(4) 0.0971(7)
C8F C 0.5385(11) -0.5615(10) 0.1931(17)
C4F C 0.5397(7) -0.4423(8) 0.1922(12)
H1F H 0.5675 -0.4032 0.1523
H4F H 0.4345 -0.6019 0.3474
loop_
_geom_bond_atom_site_label_1
_geom_bond_atom_site_label_2
_geom_bond_site_symmetry_1
_geom_bond_site_symmetry_2
Tb1 O1 1_555 1_555
O1 C1 1_555 1_555
O2 C3 1_555 1_555
O3 Tb1 1_555 1_555
C1 C2 1_555 1_555
C2 C4 1_555 1_555
C3 O4 1_555 1_555
C4 H1 1_555 1_555
O4 Tb1 1_555 1_555
C5 C3 1_555 1_555
C6 C5 1_555 1_555
H2 C6 1_555 1_555
N1 C9 1_555 1_555
C7 C5 1_555 1_555
H3 C7 1_555 1_555
N2 C8 1_555 1_555
C8 C4 1_555 1_555
H4 C8F 1_555 1_555
C9 C6 1_555 1_555
H5 C9 1_555 1_555
C10 N1 1_555 1_555
H6 C10 1_555 1_555
Tb1B O2 1_555 1_555
O1F Tb1 1_555 1_555
O2B Tb1 1_555 1_555
O4F Tb1 1_555 1_555
O2D Tb1 1_555 1_555
C3D O2D 1_555 1_555
O4D Tb1B 1_555 1_555
C5D C3D 1_555 1_555
C6D C5D 1_555 1_555
H2D C6D 1_555 1_555
C9D C6D 1_555 1_555
N1D C9D 1_555 1_555
C10D N1D 1_555 1_555
C7D C5D 1_555 1_555
H3D C7D 1_555 1_555
H6D C10D 1_555 1_555
H5D C9D 1_555 1_555
O3F Tb1 1_555 1_555
C8F N2 1_555 1_555
C4F C2 1_555 1_555
H1F C4F 1_555 1_555
H4F C8 1_555 1_555
C1 O1F 1_555 1_555
C7 C10 1_555 1_555
C3D O4D 1_555 1_555
C10D C7D 1_555 1_555
C8F C4F 1_555 1_555

#END
