
#######################################################################
#
#                 Cambridge Crystallographic Data Centre
#                                CCDC 
#
#######################################################################
#
# If this CIF has been generated from an entry in the Cambridge 
# Structural Database, then it will include bibliographic, chemical, 
# crystal, experimental, refinement or atomic coordinate data resulting 
# from the CCDC's data processing and validation procedures.
#
#######################################################################

data_DIQSIH
_symmetry_cell_setting           orthorhombic
_symmetry_space_group_name_H-M   'F d d 2'
_symmetry_Int_Tables_number      43
_space_group_name_Hall           'F 2 -2d'
loop_
_symmetry_equiv_pos_site_id
_symmetry_equiv_pos_as_xyz
1 x,y,z
2 -x,-y,z
3 1/4+x,1/4-y,1/4+z
4 1/4-x,1/4+y,1/4+z
5 x,1/2+y,1/2+z
6 -x,1/2-y,1/2+z
7 1/4+x,3/4-y,3/4+z
8 1/4-x,3/4+y,3/4+z
9 1/2+x,y,1/2+z
10 1/2-x,-y,1/2+z
11 3/4+x,1/4-y,3/4+z
12 3/4-x,1/4+y,3/4+z
13 1/2+x,1/2+y,z
14 1/2-x,1/2-y,z
15 3/4+x,3/4-y,1/4+z
16 3/4-x,3/4+y,1/4+z
_cell_length_a                   20.0763(17)
_cell_length_b                   54.982(5)
_cell_length_c                   9.0363(8)
_cell_angle_alpha                90
_cell_angle_beta                 90
_cell_angle_gamma                90
_cell_volume                     9974.59
loop_
_atom_site_label
_atom_site_type_symbol
_atom_site_fract_x
_atom_site_fract_y
_atom_site_fract_z
C1 C 0.51969(9) 0.91951(4) 0.5214(3)
H1 H 0.5206 0.9076 0.5942
C2 C 0.55769(10) 0.91679(3) 0.3938(2)
C3 C 0.55637(12) 0.93466(4) 0.2850(3)
H2 H 0.5818 0.9328 0.1997
C4 C 0.51705(13) 0.95524(4) 0.3037(3)
H3 H 0.5162 0.9672 0.2309
C5 C 0.47905(12) 0.95795(4) 0.4313(4)
C6 C 0.48037(11) 0.94009(4) 0.5401(3)
H4 H 0.4549 0.9419 0.6254
C7 C 0.48714(10) 0.84270(4) 0.4012(4)
H5 H 0.4436 0.8379 0.3811
C8 C 0.53323(11) 0.82560(3) 0.4583(4)
C9 C 0.59512(10) 0.83376(3) 0.4909(3)
H6 H 0.6237 0.8223 0.5323
C10 C 0.62206(9) 0.85706(3) 0.4710(3)
H7 H 0.6661 0.8608 0.4935
C11 C 0.57471(9) 0.87509(3) 0.4113(3)
C12 C 0.50708(10) 0.86737(4) 0.3739(3)
H8 H 0.4772 0.8784 0.3328
C13 C 0.84218(12) 0.91897(5) 0.8122(4)
H9 H 0.8751 0.9145 0.8794
C14 C 0.80971(13) 0.94117(4) 0.8270(4)
H10 H 0.8209 0.9516 0.9042
C15 C 0.76054(12) 0.94779(4) 0.7265(3)
C16 C 0.74385(10) 0.93222(3) 0.6111(3)
H11 H 0.7110 0.9367 0.5438
C17 C 0.77632(9) 0.91003(4) 0.5963(3)
H12 H 0.7652 0.8996 0.5191
C18 C 0.82549(9) 0.90340(4) 0.6968(3)
C19 C 0.83280(9) 0.86079(4) 0.6774(4)
C20 C 0.76729(10) 0.85643(4) 0.7210(3)
H13 H 0.7407 0.8690 0.7567
C21 C 0.74353(11) 0.83360(3) 0.7101(3)
H14 H 0.7011 0.8295 0.7430
C22 C 0.78715(12) 0.81603(4) 0.6450(4)
C23 C 0.85031(11) 0.81944(4) 0.6025(4)
H15 H 0.8772 0.8068 0.5691
Dy1 Dy 0.625815(16) 0.756467(7) 0.55416(5)
O1 O 0.8635(3) 0.88359(11) 0.6882(9)
O2 O 0.5535(3) 0.78627(11) 0.5305(9)
O3 O 0.6985(3) 0.78535(10) 0.6465(7)
C24 C 0.7604(4) 0.78939(14) 0.6288(9)
O4 O 0.7996(3) 0.77318(10) 0.5909(7)
O5 O 0.4505(3) 0.79532(12) 0.4745(8)
C25 C 0.5095(4) 0.80117(16) 0.4898(10)
O6 O 0.6091(4) 0.75250(14) 0.8147(7)
O7 O 0.5981(3) 0.89655(11) 0.3746(9)
Ag1 Ag 0.33283(6) 1.017850(19) 0.39562(9)
O8 O 0.4155(3) 0.99073(11) 0.3399(6)
O9 O 0.4141(3) 0.98381(11) 0.5802(6)
C26 C 0.4343(4) 0.97883(13) 0.4504(9)
C27 C 0.8727(4) 0.84320(16) 0.6121(12)
H16 H 0.9143 0.8474 0.5749
O10 O 0.6793(3) 0.97717(10) 0.6470(7)
O11 O 0.7246(3) 0.98260(10) 0.8622(6)
C28 C 0.7201(4) 0.97090(14) 0.7472(9)
Dy1C Dy 0.624185(16) 1.006467(7) 0.80416(5)
Dy1M Dy 0.874185(16) 0.743533(7) 0.55416(5)
Dy1N Dy 0.375815(16) 0.993533(7) 0.80416(5)
O4M O 0.7004(3) 0.72682(10) 0.5909(7)
O5K O 0.2995(3) 1.04532(12) 0.2245(8)
Ag1A Ag 0.66717(6) 0.982150(19) 0.39562(9)
Ag1O Ag 0.41717(6) 0.767850(19) 0.64562(9)
O9F O 0.6641(3) 0.76619(11) 0.3302(6)
O10A O 0.3207(3) 1.02283(10) 0.6470(7)
O10G O 0.5707(3) 0.72717(10) 0.3970(7)
O11G O 0.5254(3) 0.73260(10) 0.6122(6)
loop_
_geom_bond_atom_site_label_1
_geom_bond_atom_site_label_2
_geom_bond_site_symmetry_1
_geom_bond_site_symmetry_2
C1 H1 1_555 1_555
C2 C1 1_555 1_555
C3 C2 1_555 1_555
H2 C3 1_555 1_555
C4 C3 1_555 1_555
H3 C4 1_555 1_555
C5 C4 1_555 1_555
C6 C1 1_555 1_555
H4 C6 1_555 1_555
C7 H5 1_555 1_555
C8 C7 1_555 1_555
C9 C8 1_555 1_555
H6 C9 1_555 1_555
C10 C9 1_555 1_555
H7 C10 1_555 1_555
C11 C10 1_555 1_555
C12 C7 1_555 1_555
H8 C12 1_555 1_555
C13 H9 1_555 1_555
C14 C13 1_555 1_555
H10 C14 1_555 1_555
C15 C14 1_555 1_555
C16 C15 1_555 1_555
H11 C16 1_555 1_555
C17 C16 1_555 1_555
H12 C17 1_555 1_555
C18 C13 1_555 1_555
C19 C20 1_555 1_555
C20 H13 1_555 1_555
C21 C20 1_555 1_555
H14 C21 1_555 1_555
C22 C21 1_555 1_555
C23 C22 1_555 1_555
H15 C23 1_555 1_555
Dy1 O2 1_555 1_555
O1 C18 1_555 1_555
O2 C25 1_555 1_555
O3 Dy1 1_555 1_555
C24 C22 1_555 1_555
O4 C24 1_555 1_555
O5 C25 1_555 1_555
C25 C8 1_555 1_555
O6 Dy1 1_555 1_555
O7 C2 1_555 1_555
Ag1 O8 1_555 1_555
O8 C26 1_555 1_555
O9 C26 1_555 1_555
C26 C5 1_555 1_555
C27 C19 1_555 1_555
H16 C27 1_555 1_555
O10 C28 1_555 1_555
O11 C28 1_555 1_555
C28 C15 1_555 1_555
Dy1C O10 1_555 1_555
Dy1M O4 1_555 1_555
Dy1N O9 1_555 1_555
O4M Dy1 1_555 1_555
O5K Ag1 1_555 1_555
Ag1A O10 1_555 1_555
Ag1O O5 1_555 1_555
O9F Dy1 1_555 1_555
O10A Ag1 1_555 1_555
O10G Dy1 1_555 1_555
O11G Dy1 1_555 1_555
C5 C6 1_555 1_555
C11 C12 1_555 1_555
C11 O7 1_555 1_555
C17 C18 1_555 1_555
C19 O1 1_555 1_555
C23 C27 1_555 1_555
O3 C24 1_555 1_555
O11 Dy1C 1_555 1_555
Dy1N O10A 1_555 1_555

#END
