
#######################################################################
#
#                 Cambridge Crystallographic Data Centre
#                                CCDC 
#
#######################################################################
#
# If this CIF has been generated from an entry in the Cambridge 
# Structural Database, then it will include bibliographic, chemical, 
# crystal, experimental, refinement or atomic coordinate data resulting 
# from the CCDC's data processing and validation procedures.
#
#######################################################################

data_DIQSED
_symmetry_cell_setting           orthorhombic
_symmetry_space_group_name_H-M   'F d d 2'
_symmetry_Int_Tables_number      43
_space_group_name_Hall           'F 2 -2d'
loop_
_symmetry_equiv_pos_site_id
_symmetry_equiv_pos_as_xyz
1 x,y,z
2 -x,-y,z
3 1/4+x,1/4-y,1/4+z
4 1/4-x,1/4+y,1/4+z
5 x,1/2+y,1/2+z
6 -x,1/2-y,1/2+z
7 1/4+x,3/4-y,3/4+z
8 1/4-x,3/4+y,3/4+z
9 1/2+x,y,1/2+z
10 1/2-x,-y,1/2+z
11 3/4+x,1/4-y,3/4+z
12 3/4-x,1/4+y,3/4+z
13 1/2+x,1/2+y,z
14 1/2-x,1/2-y,z
15 3/4+x,3/4-y,1/4+z
16 3/4-x,3/4+y,1/4+z
_cell_length_a                   20.0763(17)
_cell_length_b                   54.982(5)
_cell_length_c                   9.0363(8)
_cell_angle_alpha                90
_cell_angle_beta                 90
_cell_angle_gamma                90
_cell_volume                     9974.59
loop_
_atom_site_label
_atom_site_type_symbol
_atom_site_fract_x
_atom_site_fract_y
_atom_site_fract_z
C1 C 0.51946(11) 0.91943(4) 0.5223(3)
H1 H 0.5203 0.9075 0.5951
C2 C 0.55758(12) 0.91674(4) 0.3949(3)
C3 C 0.55633(15) 0.93461(5) 0.2862(3)
H2 H 0.5818 0.9328 0.2010
C4 C 0.51696(16) 0.95518(5) 0.3048(4)
H3 H 0.5161 0.9671 0.2320
C5 C 0.47884(15) 0.95788(5) 0.4322(4)
C6 C 0.48009(12) 0.94000(5) 0.5409(4)
H4 H 0.4546 0.9418 0.6261
C7 C 0.48712(12) 0.84263(5) 0.4017(5)
H5 H 0.4436 0.8378 0.3815
C8 C 0.53319(13) 0.82553(4) 0.4590(5)
C9 C 0.59504(12) 0.83370(4) 0.4919(4)
H6 H 0.6236 0.8223 0.5334
C10 C 0.62196(11) 0.85701(4) 0.4722(3)
H7 H 0.6659 0.8608 0.4949
C11 C 0.57463(11) 0.87504(4) 0.4123(3)
C12 C 0.50705(11) 0.86731(4) 0.3746(4)
H8 H 0.4772 0.8783 0.3334
C13 C 0.84169(14) 0.91893(5) 0.8145(4)
H9 H 0.8745 0.9145 0.8819
C14 C 0.80917(15) 0.94112(5) 0.8293(4)
H10 H 0.8203 0.9515 0.9066
C15 C 0.76009(14) 0.94774(4) 0.7286(4)
C16 C 0.74352(12) 0.93218(4) 0.6131(4)
H11 H 0.7107 0.9366 0.5457
C17 C 0.77603(10) 0.90999(4) 0.5983(4)
H12 H 0.7649 0.8996 0.5210
C18 C 0.82512(11) 0.90337(5) 0.6990(4)
C19 C 0.83251(11) 0.86075(5) 0.6795(4)
C20 C 0.76697(12) 0.85638(4) 0.7228(4)
H13 H 0.7403 0.8689 0.7585
C21 C 0.74325(13) 0.83355(4) 0.7117(4)
H14 H 0.7008 0.8294 0.7444
C22 C 0.78695(14) 0.81599(4) 0.6467(5)
C23 C 0.85014(14) 0.81942(5) 0.6046(5)
H15 H 0.8773 0.8068 0.5717
Er1 Er 0.626174(19) 0.756434(7) 0.55412(7)
O1 O 0.8628(3) 0.88350(13) 0.6893(11)
O2 O 0.5546(3) 0.78610(12) 0.5314(10)
O3 O 0.6984(3) 0.78491(11) 0.6445(8)
C24 C 0.7606(4) 0.78921(15) 0.6280(11)
O4 O 0.8001(3) 0.77298(11) 0.5903(9)
O5 O 0.4515(3) 0.79497(14) 0.4736(10)
C25 C 0.5103(5) 0.80097(18) 0.4905(13)
O6 O 0.6104(4) 0.75297(14) 0.8123(9)
O7 O 0.5987(3) 0.89673(12) 0.3766(11)
Ag1 Ag 0.33244(7) 1.01766(2) 0.39548(11)
O8 O 0.4152(3) 0.99052(12) 0.3418(8)
O9 O 0.4141(4) 0.98386(12) 0.5812(8)
C26 C 0.4343(5) 0.97888(16) 0.4520(11)
C27 C 0.8717(5) 0.84326(18) 0.6140(15)
H16 H 0.9131 0.8475 0.5757
O10 O 0.6786(3) 0.97757(12) 0.6476(9)
O11 O 0.7229(3) 0.98250(12) 0.8635(8)
C28 C 0.7183(5) 0.97087(16) 0.7467(11)
Er1C Er 0.623826(19) 1.006434(7) 0.80412(7)
Er1M Er 0.873826(19) 0.743566(7) 0.55412(7)
Er1N Er 0.376174(19) 0.993566(7) 0.80412(7)
O4M O 0.6999(3) 0.72702(11) 0.5903(9)
O5K O 0.2985(3) 1.04497(14) 0.2236(10)
Ag1A Ag 0.66756(7) 0.98234(2) 0.39548(11)
Ag1O Ag 0.41756(7) 0.76766(2) 0.64548(11)
O9F O 0.6641(4) 0.76614(12) 0.3312(8)
O10A O 0.3214(3) 1.02243(12) 0.6476(9)
O10G O 0.5714(3) 0.72757(12) 0.3976(9)
O11G O 0.5271(3) 0.73250(12) 0.6135(8)
loop_
_geom_bond_atom_site_label_1
_geom_bond_atom_site_label_2
_geom_bond_site_symmetry_1
_geom_bond_site_symmetry_2
C1 H1 1_555 1_555
C2 C1 1_555 1_555
C3 C2 1_555 1_555
H2 C3 1_555 1_555
C4 C3 1_555 1_555
H3 C4 1_555 1_555
C5 C4 1_555 1_555
C6 C1 1_555 1_555
H4 C6 1_555 1_555
C7 H5 1_555 1_555
C8 C7 1_555 1_555
C9 C8 1_555 1_555
H6 C9 1_555 1_555
C10 C9 1_555 1_555
H7 C10 1_555 1_555
C11 C10 1_555 1_555
C12 C7 1_555 1_555
H8 C12 1_555 1_555
C13 H9 1_555 1_555
C14 C13 1_555 1_555
H10 C14 1_555 1_555
C15 C14 1_555 1_555
C16 C15 1_555 1_555
H11 C16 1_555 1_555
C17 C16 1_555 1_555
H12 C17 1_555 1_555
C18 C13 1_555 1_555
C19 C20 1_555 1_555
C20 H13 1_555 1_555
C21 C20 1_555 1_555
H14 C21 1_555 1_555
C22 C21 1_555 1_555
C23 C22 1_555 1_555
H15 C23 1_555 1_555
Er1 O2 1_555 1_555
O1 C18 1_555 1_555
O2 C25 1_555 1_555
O3 Er1 1_555 1_555
C24 C22 1_555 1_555
O4 C24 1_555 1_555
O5 C25 1_555 1_555
C25 C8 1_555 1_555
O6 Er1 1_555 1_555
O7 C2 1_555 1_555
Ag1 O8 1_555 1_555
O8 C26 1_555 1_555
O9 C26 1_555 1_555
C26 C5 1_555 1_555
C27 C19 1_555 1_555
H16 C27 1_555 1_555
O10 C28 1_555 1_555
O11 C28 1_555 1_555
C28 C15 1_555 1_555
Er1C O10 1_555 1_555
Er1M O4 1_555 1_555
Er1N O9 1_555 1_555
O4M Er1 1_555 1_555
O5K Ag1 1_555 1_555
Ag1A O10 1_555 1_555
Ag1O O5 1_555 1_555
O9F Er1 1_555 1_555
O10A Ag1 1_555 1_555
O10G Er1 1_555 1_555
O11G Er1 1_555 1_555
C5 C6 1_555 1_555
C11 C12 1_555 1_555
C11 O7 1_555 1_555
C17 C18 1_555 1_555
C19 O1 1_555 1_555
C23 C27 1_555 1_555
O3 C24 1_555 1_555
O11 Er1C 1_555 1_555
Er1N O10A 1_555 1_555

#END
