
#######################################################################
#
#                 Cambridge Crystallographic Data Centre
#                                CCDC 
#
#######################################################################
#
# If this CIF has been generated from an entry in the Cambridge 
# Structural Database, then it will include bibliographic, chemical, 
# crystal, experimental, refinement or atomic coordinate data resulting 
# from the CCDC's data processing and validation procedures.
#
#######################################################################

data_DIQVUW01
_symmetry_cell_setting           monoclinic
_symmetry_space_group_name_H-M   'C 2/c'
_symmetry_Int_Tables_number      15
_space_group_name_Hall           '-C 2yn'
loop_
_symmetry_equiv_pos_site_id
_symmetry_equiv_pos_as_xyz
1 x,y,z
2 -x,y,1/2-z
3 1/2+x,1/2+y,z
4 1/2-x,1/2+y,1/2-z
5 -x,-y,-z
6 x,-y,1/2+z
7 1/2-x,1/2-y,-z
8 1/2+x,1/2-y,1/2+z
_cell_length_a                   25.469(2)
_cell_length_b                   15.3912(12)
_cell_length_c                   17.1439(13)
_cell_angle_alpha                90
_cell_angle_beta                 98.7910(10)
_cell_angle_gamma                90
_cell_volume                     6641.43
loop_
_atom_site_label
_atom_site_type_symbol
_atom_site_fract_x
_atom_site_fract_y
_atom_site_fract_z
Cd1 Cd 0.780195(13) -0.14822(2) 0.748259(19)
C1 C 0.88688(19) 0.1396(3) 0.7922(3)
O1 O 0.80979(13) -0.0236(2) 0.6767(2)
O2 O 0.83689(14) -0.0273(2) 0.8053(2)
O3 O 0.92961(16) 0.2661(2) 0.8408(2)
C2 C 0.87158(19) 0.0831(3) 0.7299(3)
C3 C 0.86995(19) 0.1328(3) 0.8712(3)
O4 O 0.94921(15) 0.0582(3) 0.9081(2)
N1 N 0.91768(16) 0.2105(3) 0.7824(2)
N2 N 0.79767(18) -0.2215(3) 0.8644(3)
C4 C 0.83677(19) 0.0050(3) 0.7388(3)
N3 N 0.90402(16) 0.0863(3) 0.9253(2)
N4 N 0.70804(17) -0.0570(3) 0.7518(3)
C5 C 0.7718(2) -0.2856(3) 0.8905(3)
H1 H 0.7395 -0.3063 0.8644
N5 N 0.7962(2) -0.3184(4) 0.9580(3)
C6 C 0.9345(2) 0.2246(4) 0.7120(3)
H2 H 0.9560 0.2723 0.7060
C7 C 0.8878(2) 0.0988(4) 0.6583(3)
H3 H 0.8771 0.0621 0.6157
C8 C 0.9203(3) 0.1694(4) 0.6498(3)
H4 H 0.9323 0.1792 0.6020
C9 C 0.8118(2) 0.1522(3) 0.9663(3)
H5 H 0.7811 0.1757 0.9809
C10 C 0.8445(2) 0.1025(4) 1.0189(3)
H6 H 0.8354 0.0897 1.0682
C11 C 0.8239(2) 0.1680(3) 0.8914(3)
N6 N 0.63520(19) 0.0103(3) 0.6954(3)
C12 C 0.8145(2) -0.4644(4) 1.0170(3)
C13 C 0.6597(2) -0.0664(4) 0.7107(3)
H7 H 0.6447 -0.1198 0.6944
C14 C 0.8911(2) 0.0715(4) 0.9980(3)
H8 H 0.9143 0.0397 1.0345
C15 C 0.5193(2) 0.1045(3) 0.7252(4)
H9 H 0.5319 0.1570 0.7087
C16 C 0.5189(2) -0.0492(4) 0.7257(4)
H10 H 0.5315 -0.1017 0.7092
C17 C 0.8592(3) -0.4615(4) 1.0770(4)
H11 H 0.8659 -0.4123 1.1085
C18 C 0.7774(3) -0.3892(5) 1.0045(4)
H12 H 0.7433 -0.4093 0.9777
H13 H 0.7721 -0.3665 1.0554
C19 C 0.5388(2) 0.0286(4) 0.7005(4)
C20 C 0.7133(2) 0.0317(4) 0.7626(5)
H14 H 0.7430 0.0592 0.7899
C21 C 0.6693(3) 0.0723(4) 0.7280(5)
H15 H 0.6633 0.1319 0.7267
C22 C 0.5824(2) 0.0259(4) 0.6501(4)
H16 H 0.5746 -0.0197 0.6110
H17 H 0.5829 0.0806 0.6222
C23 C 0.8425(3) -0.2138(5) 0.9183(4)
H18 H 0.8695 -0.1739 0.9153
C24 C 0.8422(3) -0.2716(6) 0.9759(5)
H19 H 0.8682 -0.2788 1.0198
C25 C 0.79006(19) 0.2285(3) 0.8347(3)
O5 O 0.75638(14) 0.2734(2) 0.8630(2)
O6 O 0.79733(17) 0.2323(3) 0.7657(2)
C26 C 0.8930(3) -0.5323(4) 1.0886(4)
H20 H 0.9223 -0.5297 1.1281
C27 C 0.8847(2) -0.6053(4) 1.0443(3)
C28 C 0.9206(3) -0.6841(4) 1.0592(4)
H21 H 0.9171 -0.7196 1.0120
H22 H 0.9573 -0.6652 1.0714
C29 C 0.8414(3) -0.6072(4) 0.9845(3)
H23 H 0.8349 -0.6564 0.9530
C30 C 0.8082(2) -0.5372(4) 0.9716(3)
H24 H 0.7802 -0.5394 0.9300
N7 N 0.90685(18) -0.7359(3) 1.1250(3)
C31 C 0.9390(2) -0.7962(4) 1.1680(4)
H25 H 0.9742 -0.8089 1.1636
C32 C 0.9095(2) -0.8331(4) 1.2177(4)
H26 H 0.9213 -0.8769 1.2535
N8 N 0.85994(16) -0.7971(3) 1.2083(3)
C33 C 0.8595(2) -0.7404(3) 1.1511(3)
H27 H 0.8301 -0.7071 1.1309
N4A N 0.29196(17) -0.0570(3) 0.7482(3)
N6A N 0.36480(19) 0.0103(3) 0.8046(3)
C13A C 0.3403(2) -0.0664(4) 0.7893(3)
H7A H 0.3553 -0.1198 0.8056
C15A C 0.4807(2) 0.1045(3) 0.7748(4)
H9A H 0.4681 0.1570 0.7913
C16A C 0.4811(2) -0.0492(4) 0.7743(4)
H10A H 0.4685 -0.1017 0.7908
C19A C 0.4612(2) 0.0286(4) 0.7995(4)
C20A C 0.2867(2) 0.0317(4) 0.7374(5)
H14A H 0.2570 0.0592 0.7101
C21A C 0.3307(3) 0.0723(4) 0.7720(5)
H15A H 0.3367 0.1319 0.7733
C22A C 0.4176(2) 0.0259(4) 0.8499(4)
H16A H 0.4254 -0.0197 0.8890
H17A H 0.4171 0.0806 0.8778
Cd1A Cd 0.219805(13) -0.14822(2) 0.751741(19)
C1A C 0.11312(19) 0.1396(3) 0.7078(3)
O1A O 0.19021(13) -0.0236(2) 0.8233(2)
O2A O 0.16311(14) -0.0273(2) 0.6947(2)
O3A O 0.07039(16) 0.2661(2) 0.6592(2)
C2A C 0.12842(19) 0.0831(3) 0.7701(3)
C3A C 0.13005(19) 0.1328(3) 0.6288(3)
O4A O 0.05079(15) 0.0582(3) 0.5919(2)
N1A N 0.08232(16) 0.2105(3) 0.7176(2)
N2A N 0.20233(18) -0.2215(3) 0.6356(3)
C4A C 0.16323(19) 0.0050(3) 0.7612(3)
N3A N 0.09598(16) 0.0863(3) 0.5747(2)
C5A C 0.2282(2) -0.2856(3) 0.6095(3)
H1A H 0.2605 -0.3063 0.6356
N5A N 0.2038(2) -0.3184(4) 0.5420(3)
C6A C 0.0655(2) 0.2246(4) 0.7880(3)
H2A H 0.0440 0.2723 0.7940
C7A C 0.1122(2) 0.0988(4) 0.8417(3)
H3A H 0.1229 0.0621 0.8843
C8A C 0.0797(3) 0.1694(4) 0.8502(3)
H4A H 0.0677 0.1792 0.8980
C9A C 0.1882(2) 0.1522(3) 0.5337(3)
H5A H 0.2189 0.1757 0.5191
C10A C 0.1555(2) 0.1025(4) 0.4811(3)
H6A H 0.1646 0.0897 0.4318
C11A C 0.1761(2) 0.1680(3) 0.6086(3)
C12A C 0.1855(2) -0.4644(4) 0.4830(3)
C14A C 0.1089(2) 0.0715(4) 0.5020(3)
H8A H 0.0857 0.0397 0.4655
C17A C 0.1408(3) -0.4615(4) 0.4230(4)
H11A H 0.1341 -0.4123 0.3915
C18A C 0.2226(3) -0.3892(5) 0.4955(4)
H12A H 0.2567 -0.4093 0.5223
H13A H 0.2279 -0.3665 0.4446
C23A C 0.1575(3) -0.2138(5) 0.5817(4)
H18A H 0.1305 -0.1739 0.5847
C24A C 0.1578(3) -0.2716(6) 0.5241(5)
H19A H 0.1318 -0.2788 0.4802
C25A C 0.20994(19) 0.2285(3) 0.6653(3)
O5A O 0.24362(14) 0.2734(2) 0.6370(2)
O6A O 0.20267(17) 0.2323(3) 0.7343(2)
C26A C 0.1070(3) -0.5323(4) 0.4114(4)
H20A H 0.0777 -0.5297 0.3719
C27A C 0.1153(2) -0.6053(4) 0.4557(3)
C28A C 0.0794(3) -0.6841(4) 0.4408(4)
H21A H 0.0829 -0.7196 0.4880
H22A H 0.0427 -0.6652 0.4286
C29A C 0.1586(3) -0.6072(4) 0.5155(3)
H23A H 0.1651 -0.6564 0.5470
C30A C 0.1918(2) -0.5372(4) 0.5284(3)
H24A H 0.2198 -0.5394 0.5700
N7A N 0.09315(18) -0.7359(3) 0.3750(3)
C31A C 0.0610(2) -0.7962(4) 0.3320(4)
H25A H 0.0258 -0.8089 0.3364
C32A C 0.0905(2) -0.8331(4) 0.2823(4)
H26A H 0.0787 -0.8769 0.2465
N8A N 0.14006(16) -0.7971(3) 0.2917(3)
C33A C 0.1405(2) -0.7404(3) 0.3489(3)
H27A H 0.1699 -0.7071 0.3691
Cd1B Cd 0.280195(13) 0.35178(2) 0.748259(19)
Cd1C Cd 0.719805(13) 0.35178(2) 0.751741(19)
Cd1D Cd 0.219805(13) -0.85178(2) 0.251741(19)
Cd1E Cd 0.780195(13) -0.85178(2) 1.248259(19)
O5B O 0.25638(14) -0.2266(2) 0.8630(2)
O5C O 0.74362(14) -0.2266(2) 0.6370(2)
O6B O 0.29733(17) -0.2677(3) 0.7657(2)
O6C O 0.70267(17) -0.2677(3) 0.7343(2)
N8D N 0.14006(16) -0.2029(3) 0.7917(3)
N8E N 0.85994(16) -0.2029(3) 0.7083(3)
O7 O 1.0283(3) 0.1172(4) 1.0270(3)
H28 H 1.027(4) 0.1721(9) 1.028(5)
H29 H 1.030(4) 0.101(5) 0.9805(19)
O8 O 0.9810(3) 0.3024(5) 0.5454(5)
H30 H 0.981(4) 0.3554(17) 0.556(5)
H31 H 0.967(3) 0.292(5) 0.499(2)
loop_
_geom_bond_atom_site_label_1
_geom_bond_atom_site_label_2
_geom_bond_site_symmetry_1
_geom_bond_site_symmetry_2
Cd1 O1 1_555 1_555
C1 C2 1_555 1_555
O1 C4 1_555 1_555
O2 Cd1 1_555 1_555
O3 N1 1_555 1_555
C2 C4 1_555 1_555
C3 C1 1_555 1_555
O4 N3 1_555 1_555
N1 C1 1_555 1_555
N2 Cd1 1_555 1_555
C4 O2 1_555 1_555
N3 C3 1_555 1_555
N4 Cd1 1_555 1_555
C5 N2 1_555 1_555
H1 C5 1_555 1_555
N5 C5 1_555 1_555
C6 N1 1_555 1_555
H2 C6 1_555 1_555
C7 C2 1_555 1_555
H3 C7 1_555 1_555
C8 C6 1_555 1_555
H4 C8 1_555 1_555
C9 H5 1_555 1_555
C10 C9 1_555 1_555
H6 C10 1_555 1_555
C11 C3 1_555 1_555
N6 C13 1_555 1_555
C12 C17 1_555 1_555
C13 N4 1_555 1_555
H7 C13 1_555 1_555
C14 N3 1_555 1_555
H8 C14 1_555 1_555
C15 H9 1_555 1_555
C16 H10 1_555 1_555
C17 H11 1_555 1_555
C18 N5 1_555 1_555
H12 C18 1_555 1_555
H13 C18 1_555 1_555
C19 C15 1_555 1_555
C20 N4 1_555 1_555
H14 C20 1_555 1_555
C21 N6 1_555 1_555
H15 C21 1_555 1_555
C22 N6 1_555 1_555
H16 C22 1_555 1_555
H17 C22 1_555 1_555
C23 N2 1_555 1_555
H18 C23 1_555 1_555
C24 N5 1_555 1_555
H19 C24 1_555 1_555
C25 C11 1_555 1_555
O5 C25 1_555 1_555
O6 C25 1_555 1_555
C26 C17 1_555 1_555
H20 C26 1_555 1_555
C27 C26 1_555 1_555
C28 C27 1_555 1_555
H21 C28 1_555 1_555
H22 C28 1_555 1_555
C29 C27 1_555 1_555
H23 C29 1_555 1_555
C30 C12 1_555 1_555
H24 C30 1_555 1_555
N7 C28 1_555 1_555
C31 N7 1_555 1_555
H25 C31 1_555 1_555
C32 C31 1_555 1_555
H26 C32 1_555 1_555
N8 C32 1_555 1_555
C33 N7 1_555 1_555
H27 C33 1_555 1_555
O7 H28 1_555 1_555
H29 O7 1_555 1_555
O8 H30 1_555 1_555
H31 O8 1_555 1_555
N4A C13A 1_555 1_555
N6A C13A 1_555 1_555
C13A H7A 1_555 1_555
C15A C15 1_555 1_555
H9A C15A 1_555 1_555
C16A C16 1_555 1_555
H10A C16A 1_555 1_555
C19A C15A 1_555 1_555
C20A N4A 1_555 1_555
H14A C20A 1_555 1_555
C21A N6A 1_555 1_555
H15A C21A 1_555 1_555
C22A N6A 1_555 1_555
H16A C22A 1_555 1_555
H17A C22A 1_555 1_555
Cd1A N4A 1_555 1_555
C1A C2A 1_555 1_555
O1A Cd1A 1_555 1_555
O2A Cd1A 1_555 1_555
O3A N1A 1_555 1_555
C2A C4A 1_555 1_555
C3A C1A 1_555 1_555
O4A N3A 1_555 1_555
N1A C1A 1_555 1_555
N2A Cd1A 1_555 1_555
C4A O1A 1_555 1_555
N3A C3A 1_555 1_555
C5A N2A 1_555 1_555
H1A C5A 1_555 1_555
N5A C5A 1_555 1_555
C6A N1A 1_555 1_555
H2A C6A 1_555 1_555
C7A C2A 1_555 1_555
H3A C7A 1_555 1_555
C8A C6A 1_555 1_555
H4A C8A 1_555 1_555
C9A H5A 1_555 1_555
C10A C9A 1_555 1_555
H6A C10A 1_555 1_555
C11A C3A 1_555 1_555
C12A C17A 1_555 1_555
C14A N3A 1_555 1_555
H8A C14A 1_555 1_555
C17A H11A 1_555 1_555
C18A N5A 1_555 1_555
H12A C18A 1_555 1_555
H13A C18A 1_555 1_555
C23A N2A 1_555 1_555
H18A C23A 1_555 1_555
C24A N5A 1_555 1_555
H19A C24A 1_555 1_555
C25A C11A 1_555 1_555
O5A C25A 1_555 1_555
O6A C25A 1_555 1_555
C26A C17A 1_555 1_555
H20A C26A 1_555 1_555
C27A C26A 1_555 1_555
C28A C27A 1_555 1_555
H21A C28A 1_555 1_555
H22A C28A 1_555 1_555
C29A C27A 1_555 1_555
H23A C29A 1_555 1_555
C30A C12A 1_555 1_555
H24A C30A 1_555 1_555
N7A C28A 1_555 1_555
C31A N7A 1_555 1_555
H25A C31A 1_555 1_555
C32A C31A 1_555 1_555
H26A C32A 1_555 1_555
N8A C32A 1_555 1_555
C33A N7A 1_555 1_555
H27A C33A 1_555 1_555
Cd1B O5A 1_555 1_555
Cd1C O5 1_555 1_555
Cd1D N8A 1_555 1_555
Cd1E N8 1_555 1_555
O5B Cd1A 1_555 1_555
O5C Cd1 1_555 1_555
O6B Cd1A 1_555 1_555
O6C Cd1 1_555 1_555
N8D Cd1A 1_555 1_555
N8E Cd1 1_555 1_555
C7 C8 1_555 1_555
C9 C11 1_555 1_555
C10 C14 1_555 1_555
C12 C18 1_555 1_555
C16 C19 1_555 1_555
C19 C22 1_555 1_555
C20 C21 1_555 1_555
C23 C24 1_555 1_555
O6 Cd1C 1_555 1_555
C29 C30 1_555 1_555
N8 C33 1_555 1_555
C16A C19A 1_555 1_555
C19A C22A 1_555 1_555
C20A C21A 1_555 1_555
O2A C4A 1_555 1_555
C7A C8A 1_555 1_555
C9A C11A 1_555 1_555
C10A C14A 1_555 1_555
C12A C18A 1_555 1_555
C23A C24A 1_555 1_555
O6A Cd1B 1_555 1_555
C29A C30A 1_555 1_555
N8A C33A 1_555 1_555

#END
