
#######################################################################
#
#                 Cambridge Crystallographic Data Centre
#                                CCDC 
#
#######################################################################
#
# If this CIF has been generated from an entry in the Cambridge 
# Structural Database, then it will include bibliographic, chemical, 
# crystal, experimental, refinement or atomic coordinate data resulting 
# from the CCDC's data processing and validation procedures.
#
#######################################################################

data_DIQWUV
_symmetry_cell_setting           rhombohedral
_symmetry_space_group_name_H-M   'R -3'
_symmetry_Int_Tables_number      148
_space_group_name_Hall           '-R 3'
loop_
_symmetry_equiv_pos_site_id
_symmetry_equiv_pos_as_xyz
1 x,y,z
2 1/3+x,2/3+y,2/3+z
3 2/3+x,1/3+y,1/3+z
4 -y,x-y,z
5 2/3-y,1/3+x-y,1/3+z
6 2/3+y,1/3-x+y,1/3-z
7 -x+y,-x,z
8 2/3-x+y,1/3-x,1/3+z
9 2/3+x-y,1/3+x,1/3-z
10 -x,-y,-z
11 2/3-x,1/3-y,1/3-z
12 1/3-x,2/3-y,2/3-z
13 y,-x+y,-z
14 1/3+y,2/3-x+y,2/3-z
15 1/3-y,2/3+x-y,2/3+z
16 x-y,x,-z
17 1/3+x-y,2/3+x,2/3-z
18 1/3-x+y,2/3-x,2/3+z
_cell_length_a                   22.538(3)
_cell_length_b                   22.538(3)
_cell_length_c                   16.542(3)
_cell_angle_alpha                90
_cell_angle_beta                 90
_cell_angle_gamma                120.0
_cell_volume                     7276.95
loop_
_atom_site_label
_atom_site_type_symbol
_atom_site_fract_x
_atom_site_fract_y
_atom_site_fract_z
Mn1 Mn -0.00599(7) 0.36970(7) 0.14155(8)
N1 N 0.0780(4) 0.3651(3) 0.1262(4)
N2 N -0.0392(4) 0.2817(4) 0.1998(4)
N3 N -0.0966(4) 0.2800(4) -0.0106(5)
C1 C 0.0949(4) 0.4960(4) 0.0693(5)
C2 C 0.1098(5) 0.5591(5) 0.0365(7)
C3 C 0.1738(7) 0.6044(6) 0.0157(10)
C4 C 0.2256(6) 0.5909(8) 0.0290(14)
C5 C 0.2100(6) 0.5281(7) 0.0566(12)
C6 C 0.1469(5) 0.4807(5) 0.0801(6)
C7 C 0.1356(5) 0.4146(5) 0.1048(6)
C8 C 0.0707(6) 0.2958(6) 0.1433(7)
C9 C 0.0144(7) 0.2613(6) 0.2120(6)
C10 C -0.1002(7) 0.2465(5) 0.2311(6)
C11 C -0.1527(5) 0.2627(5) 0.2296(5)
C12 C -0.2154(7) 0.2175(6) 0.2641(7)
C13 C -0.2687(8) 0.2279(9) 0.2637(9)
C14 C -0.2628(6) 0.2872(8) 0.2287(9)
C15 C -0.2011(6) 0.3330(6) 0.1951(7)
C16 C -0.1452(5) 0.3233(5) 0.1934(6)
O1 O 0.0305(3) 0.4521(3) 0.0850(3)
O2 O -0.0866(3) 0.3709(3) 0.1611(4)
O3 O -0.0387(3) 0.3140(3) 0.0176(3)
O4 O -0.1068(4) 0.2726(3) -0.0831(4)
O5 O -0.1475(4) 0.2507(4) 0.0348(4)
H1 H 0.074 0.569 0.030
H2 H 0.182 0.646 -0.010
H3 H 0.272 0.625 0.021
H4 H 0.245 0.517 0.057
H5 H 0.174 0.407 0.105
H6 H 0.058 0.268 0.096
H7 H 0.113 0.300 0.159
H8 H 0.035 0.276 0.264
H9 H -0.006 0.213 0.211
H10 H -0.110 0.206 0.258
H11 H -0.219 0.178 0.289
H12 H -0.311 0.194 0.287
H13 H -0.300 0.295 0.230
H14 H -0.197 0.373 0.170
O4G O 0.0461(5) 0.4401(4) 0.2502(4)
Mn1N Mn -0.03637(7) 0.29098(10) -0.19178(8)
loop_
_geom_bond_atom_site_label_1
_geom_bond_atom_site_label_2
_geom_bond_site_symmetry_1
_geom_bond_site_symmetry_2
Mn1 N1 1_555 1_555
N1 C7 1_555 1_555
N2 Mn1 1_555 1_555
N3 O3 1_555 1_555
C1 C2 1_555 1_555
C2 C3 1_555 1_555
C3 C4 1_555 1_555
C4 C5 1_555 1_555
C5 C6 1_555 1_555
C6 C1 1_555 1_555
C7 C6 1_555 1_555
C8 N1 1_555 1_555
C9 N2 1_555 1_555
C10 N2 1_555 1_555
C11 C10 1_555 1_555
C12 C11 1_555 1_555
C13 C12 1_555 1_555
C14 C13 1_555 1_555
C15 C14 1_555 1_555
C16 C11 1_555 1_555
O1 Mn1 1_555 1_555
O2 Mn1 1_555 1_555
O3 Mn1 1_555 1_555
O4 N3 1_555 1_555
O5 N3 1_555 1_555
H1 C2 1_555 1_555
H2 C3 1_555 1_555
H3 C4 1_555 1_555
H4 C5 1_555 1_555
H5 C7 1_555 1_555
H6 C8 1_555 1_555
H7 C8 1_555 1_555
H8 C9 1_555 1_555
H9 C9 1_555 1_555
H10 C10 1_555 1_555
H11 C12 1_555 1_555
H12 C13 1_555 1_555
H13 C14 1_555 1_555
H14 C15 1_555 1_555
O4G Mn1 1_555 1_555
Mn1N O4 1_555 1_555
C1 O1 1_555 1_555
C8 C9 1_555 1_555
C15 C16 1_555 1_555
C16 O2 1_555 1_555

#END
