
#######################################################################
#
#                 Cambridge Crystallographic Data Centre
#                                CCDC 
#
#######################################################################
#
# If this CIF has been generated from an entry in the Cambridge 
# Structural Database, then it will include bibliographic, chemical, 
# crystal, experimental, refinement or atomic coordinate data resulting 
# from the CCDC's data processing and validation procedures.
#
#######################################################################

data_DIQZAE
_symmetry_cell_setting           triclinic
_symmetry_space_group_name_H-M   'P 1'
_symmetry_Int_Tables_number      1
_space_group_name_Hall           'P 1'
loop_
_symmetry_equiv_pos_site_id
_symmetry_equiv_pos_as_xyz
1 x,y,z
_cell_length_a                   7.8770(10)
_cell_length_b                   8.781(2)
_cell_length_c                   10.444(2)
_cell_angle_alpha                110.69(2)
_cell_angle_beta                 95.240(10)
_cell_angle_gamma                103.48(2)
_cell_volume                     645.094
loop_
_atom_site_label
_atom_site_type_symbol
_atom_site_fract_x
_atom_site_fract_y
_atom_site_fract_z
Nd1 Nd -0.00185(6) -0.00947(6) 0.00059(4)
Nd2 Nd -0.05447(6) -0.15180(6) -0.41545(4)
O1 O -0.2918(11) 0.0139(10) 0.0753(8)
O2 O 0.2240(13) -0.0425(11) 0.1617(7)
O3 O -0.1401(13) -0.2358(12) 0.0804(9)
O4 O 0.0784(17) 0.2403(13) 0.2321(9)
O5 O -0.1296(9) -0.3900(9) -0.6460(6)
O6 O 0.2220(12) -0.1914(10) -0.5173(8)
O7 O 0.0883(12) 0.0861(11) -0.4867(9)
O8 O -0.2960(12) -0.1053(11) -0.5590(7)
O9 O -0.2124(10) -0.1711(9) -0.2202(6)
O10 O -0.3531(9) -0.3617(10) -0.4174(6)
O11 O -0.9055(10) -0.2661(9) -0.1108(6)
O12 O -0.9620(12) -0.3580(10) -0.3429(7)
O13 O 0.1506(12) 0.0169(9) -0.2049(7)
O14 O 0.2975(10) 0.1799(10) 0.0137(6)
O15 O 0.9119(9) 0.2097(9) -0.0669(6)
O16 O 0.8406(11) 0.0906(9) -0.2996(6)
C1 C -0.3482(14) -0.2792(13) -0.2975(9)
C2 C -0.5101(16) -0.3274(14) -0.2290(10)
H1 H -0.4650(16) -0.3406(14) -0.1452(10)
H2 H -0.5595(16) -0.2319(14) -0.2001(10)
C3 C -0.6560(13) -0.4799(12) -0.3119(9)
H3 H -0.6135(13) -0.5793(12) -0.3307(9)
H4 H -0.6960(13) -0.4747(12) -0.4005(9)
C4 C -0.8105(13) -0.4962(12) -0.2368(8)
H5 H -0.8951(13) -0.6075(12) -0.2858(8)
H6 H -0.7674(13) -0.4867(12) -0.1434(8)
C5 C -0.9029(13) -0.3615(12) -0.2277(8)
C6 C 0.2968(14) 0.1269(13) -0.1217(9)
C7 C 0.4565(16) 0.1517(14) -0.1787(10)
H7 H 0.4230(16) 0.1305(14) -0.2765(10)
H8 H 0.5156(16) 0.0681(14) -0.1734(10)
C8 C 0.5906(16) 0.3304(14) -0.1053(11)
H9 H 0.6309(16) 0.3516(14) -0.0084(11)
H10 H 0.5336(16) 0.4161(14) -0.1083(11)
C9 C 0.7521(14) 0.3404(13) -0.1808(9)
H11 H 0.7119(14) 0.3264(13) -0.2759(9)
H12 H 0.8378(14) 0.4514(13) -0.1338(9)
C10 C 0.8396(14) 0.2068(13) -0.1818(9)
Nd1_2 Nd -1.00185(6) -0.00947(6) 0.00059(4)
Nd1_3 Nd 0.99815(6) -0.00947(6) 0.00059(4)
Nd2_2 Nd -1.05447(6) -0.15180(6) -0.41545(4)
Nd2_3 Nd 0.94553(6) -0.15180(6) -0.41545(4)
O11_2 O 0.0945(10) -0.2661(9) -0.1108(6)
O12_2 O 0.0380(12) -0.3580(10) -0.3429(7)
O15_2 O -0.0881(9) 0.2097(9) -0.0669(6)
O16_2 O -0.1594(11) 0.0906(9) -0.2996(6)
Cl1 Cl 0.4745(4) 0.1467(4) 0.4471(2)
Cl2 Cl 0.4674(4) 0.6975(4) 0.1394(3)
O17 O 0.3543(12) 0.5389(11) 0.3619(8)
O18 O 0.9074(13) 0.3004(11) 0.4596(8)
O19 O 0.5990(12) 0.3089(11) 0.2245(6)
O20 O 0.0486(11) 0.5445(10) 0.1288(7)
loop_
_geom_bond_atom_site_label_1
_geom_bond_atom_site_label_2
_geom_bond_site_symmetry_1
_geom_bond_site_symmetry_2
Nd1 O1 1_555 1_555
Nd2 O5 1_555 1_555
O2 Nd1 1_555 1_555
O3 Nd1 1_555 1_555
O4 Nd1 1_555 1_555
O6 Nd2 1_555 1_555
O7 Nd2 1_555 1_555
O8 Nd2 1_555 1_555
O9 Nd1 1_555 1_555
O10 Nd2 1_555 1_555
O11 C5 1_555 1_555
O12 C5 1_555 1_555
O13 Nd1 1_555 1_555
O14 Nd1 1_555 1_555
O15 C10 1_555 1_555
O16 C10 1_555 1_555
C1 O9 1_555 1_555
C2 C1 1_555 1_555
H1 C2 1_555 1_555
H2 C2 1_555 1_555
C3 C2 1_555 1_555
H3 C3 1_555 1_555
H4 C3 1_555 1_555
C4 C3 1_555 1_555
H5 C4 1_555 1_555
H6 C4 1_555 1_555
C5 C4 1_555 1_555
C6 O13 1_555 1_555
C7 C6 1_555 1_555
H7 C7 1_555 1_555
H8 C7 1_555 1_555
C8 C7 1_555 1_555
H9 C8 1_555 1_555
H10 C8 1_555 1_555
C9 C8 1_555 1_555
H11 C9 1_555 1_555
H12 C9 1_555 1_555
C10 C9 1_555 1_555
Nd1_2 O11 1_555 1_555
Nd1_3 O15 1_555 1_555
Nd2_2 O12 1_555 1_555
Nd2_3 O16 1_555 1_555
O11_2 Nd1 1_555 1_555
O12_2 Nd2 1_555 1_555
O15_2 Nd1 1_555 1_555
O16_2 Nd2 1_555 1_555
Nd2 O9 1_555 1_555
Nd2 O13 1_555 1_555
O10 C1 1_555 1_555
O14 C6 1_555 1_555

#END
