
#######################################################################
#
#                 Cambridge Crystallographic Data Centre
#                                CCDC 
#
#######################################################################
#
# If this CIF has been generated from an entry in the Cambridge 
# Structural Database, then it will include bibliographic, chemical, 
# crystal, experimental, refinement or atomic coordinate data resulting 
# from the CCDC's data processing and validation procedures.
#
#######################################################################

data_DIRFAN
_symmetry_cell_setting           monoclinic
_symmetry_space_group_name_H-M   'P 21/n'
_symmetry_Int_Tables_number      14
_space_group_name_Hall           '-P 2yn'
loop_
_symmetry_equiv_pos_site_id
_symmetry_equiv_pos_as_xyz
1 x,y,z
2 1/2-x,1/2+y,1/2-z
3 -x,-y,-z
4 1/2+x,1/2-y,1/2+z
_cell_length_a                   13.831(3)
_cell_length_b                   15.280(3)
_cell_length_c                   14.363(3)
_cell_angle_alpha                90
_cell_angle_beta                 110.55(3)
_cell_angle_gamma                90
_cell_volume                     2842.29
loop_
_atom_site_label
_atom_site_type_symbol
_atom_site_fract_x
_atom_site_fract_y
_atom_site_fract_z
Cd1 Cd 0.93079(3) 0.13619(3) 0.35688(3)
N1 N 0.9607(3) 0.2863(3) 0.3953(4)
O1 O 0.8129(3) 0.1541(3) 0.4400(3)
C1 C 0.8420(4) 0.1339(3) 0.5294(4)
N2 N 1.0120(3) 0.1051(3) 0.5329(3)
C2 C 0.7984(5) 0.1324(4) 0.6899(5)
O2 O 0.7810(3) 0.1911(3) 0.2065(3)
C3 C 0.7705(4) 0.1409(4) 0.5870(5)
O3 O 0.8984(3) 0.1126(4) 0.7441(3)
H1 H 0.9043 0.1049 0.8024
O4 O 0.8031(4) 0.2180(5) 0.0673(4)
N3 N 0.8361(4) 0.1955(4) 0.1550(4)
O5 O 0.9307(3) 0.1752(4) 0.1959(3)
C4 C 0.7240(6) 0.1425(6) 0.7354(6)
H2 H 0.7435 0.1375 0.8041
C5 C 0.6671(5) 0.1583(6) 0.5319(6)
H3 H 0.6465 0.1641 0.4632
C6 C 0.6238(7) 0.1596(8) 0.6796(8)
H4 H 0.5750 0.1662 0.7101
C7 C 0.5949(6) 0.1669(8) 0.5777(8)
H5 H 0.5262 0.1778 0.5395
O6 O 1.1075(3) 0.1222(3) 0.3888(3)
N4 N 1.1819(3) 0.0725(3) 0.5489(3)
H6 H 1.2402 0.0541 0.5895
N5 N 0.9386(3) 0.1056(3) 0.5792(3)
H7 H 0.9551 0.0879 0.6396
C8 C 1.1007(4) 0.0711(3) 0.5871(4)
C9 C 0.9920(4) 0.4559(3) 0.4777(4)
C10 C 1.1834(4) 0.0978(4) 0.4592(4)
C11 C 0.8837(5) 0.3441(4) 0.3760(5)
H8 H 0.8182 0.3272 0.3343
C12 C 0.8962(4) 0.4273(4) 0.4146(5)
H9 H 0.8398 0.4649 0.3983
C13 C 1.0539(5) 0.3136(4) 0.4533(6)
H10 H 1.1093 0.2752 0.4667
C14 C 1.0716(5) 0.3966(4) 0.4944(6)
H11 H 1.1383 0.4126 0.5340
C15 C 1.2880(4) 0.0956(5) 0.4484(5)
H12 H 1.2857 0.0572 0.3948
H13 H 1.3385 0.0748 0.5091
H14 H 1.3062 0.1535 0.4344
S1 S 1.12907(10) 0.02354(9) 0.70412(10)
N1B N 1.0393(3) 0.7137(3) 0.6047(4)
C9B C 1.0080(4) 0.5441(3) 0.5223(4)
C11B C 1.1163(5) 0.6559(4) 0.6240(5)
H8B H 1.1818 0.6728 0.6657
C12B C 1.1038(4) 0.5727(4) 0.5854(5)
H9B H 1.1602 0.5351 0.6017
C13B C 0.9461(5) 0.6864(4) 0.5467(6)
H10B H 0.8907 0.7248 0.5333
C14B C 0.9284(5) 0.6034(4) 0.5056(6)
H11B H 0.8617 0.5874 0.4660
Cd1B Cd 1.06921(3) -0.13619(3) 0.64312(3)
O1B O 1.1871(3) -0.1541(3) 0.5600(3)
C1B C 1.1580(4) -0.1339(3) 0.4706(4)
N2B N 0.9880(3) -0.1051(3) 0.4671(3)
C2B C 1.2016(5) -0.1324(4) 0.3101(5)
O2B O 1.2190(3) -0.1911(3) 0.7935(3)
C3B C 1.2295(4) -0.1409(4) 0.4130(5)
O3B O 1.1016(3) -0.1126(4) 0.2559(3)
H1B H 1.0957 -0.1049 0.1976
O4B O 1.1969(4) -0.2180(5) 0.9327(4)
N3B N 1.1639(4) -0.1955(4) 0.8450(4)
O5B O 1.0693(3) -0.1752(4) 0.8041(3)
C4B C 1.2760(6) -0.1425(6) 0.2646(6)
H2B H 1.2565 -0.1375 0.1959
C5B C 1.3329(5) -0.1583(6) 0.4681(6)
H3B H 1.3535 -0.1641 0.5368
C6B C 1.3762(7) -0.1596(8) 0.3204(8)
H4B H 1.4250 -0.1662 0.2899
C7B C 1.4051(6) -0.1669(8) 0.4223(8)
H5B H 1.4738 -0.1778 0.4605
O6B O 0.8925(3) -0.1222(3) 0.6112(3)
N4B N 0.8181(3) -0.0725(3) 0.4511(3)
H6B H 0.7598 -0.0541 0.4105
N5B N 1.0614(3) -0.1056(3) 0.4208(3)
H7B H 1.0449 -0.0879 0.3604
C8B C 0.8993(4) -0.0711(3) 0.4129(4)
C10B C 0.8166(4) -0.0978(4) 0.5408(4)
C15B C 0.7120(4) -0.0956(5) 0.5516(5)
H12B H 0.7143 -0.0572 0.6052
H13B H 0.6615 -0.0748 0.4909
H14B H 0.6938 -0.1535 0.5656
S1B S 0.87093(10) -0.02354(9) 0.29588(10)
Cd1B_2 Cd 1.06921(3) 0.86381(3) 0.64312(3)
N1B_2 N 1.0393(3) -0.2863(3) 0.6047(4)
N6 N 0.5321(4) 0.1122(4) 0.2567(5)
C16 C 0.6130(4) 0.0601(5) 0.2860(5)
H15 H 0.6719 0.0790 0.2747
C17 C 0.5353(8) 0.1979(6) 0.2137(8)
H16 H 0.6029 0.2080 0.2114
H17 H 0.5198 0.2422 0.2538
H18 H 0.4852 0.2002 0.1476
C18 C 0.4398(7) 0.0860(10) 0.2729(12)
H19 H 0.4575 0.0504 0.3316
H20 H 0.3970 0.0529 0.2167
H21 H 0.4030 0.1369 0.2811
O7 O 0.6180(3) -0.0114(4) 0.3271(4)
N7 N 0.5920(7) 0.3996(9) 0.5419(6)
C19 C 0.6425(12) 0.4109(13) 0.4690(11)
H22 H 0.5981 0.3896 0.4055
H23 H 0.7062 0.3788 0.4899
H24 H 0.6565 0.4719 0.4637
C20 C 0.6531(8) 0.3997(10) 0.6491(8)
H25 H 0.6078 0.3928 0.6862
H26 H 0.6897 0.4541 0.6668
H27 H 0.7016 0.3522 0.6641
O8 O 0.4333(8) 0.3831(12) 0.4272(6)
C21 C 0.4931(10) 0.3835(13) 0.5125(8)
H28 H 0.4658 0.3713 0.5617
loop_
_geom_bond_atom_site_label_1
_geom_bond_atom_site_label_2
_geom_bond_site_symmetry_1
_geom_bond_site_symmetry_2
Cd1 N1 1_555 1_555
N1 C11 1_555 1_555
O1 Cd1 1_555 1_555
C1 O1 1_555 1_555
N2 Cd1 1_555 1_555
C2 C3 1_555 1_555
O2 Cd1 1_555 1_555
C3 C1 1_555 1_555
O3 C2 1_555 1_555
H1 O3 1_555 1_555
O4 N3 1_555 1_555
N3 O2 1_555 1_555
O5 Cd1 1_555 1_555
C4 C2 1_555 1_555
H2 C4 1_555 1_555
C5 C3 1_555 1_555
H3 C5 1_555 1_555
C6 C4 1_555 1_555
H4 C6 1_555 1_555
C7 C5 1_555 1_555
H5 C7 1_555 1_555
O6 Cd1 1_555 1_555
N4 H6 1_555 1_555
N5 C1 1_555 1_555
H7 N5 1_555 1_555
C8 N2 1_555 1_555
C9 C12 1_555 1_555
C10 O6 1_555 1_555
C11 H8 1_555 1_555
C12 C11 1_555 1_555
H9 C12 1_555 1_555
C13 N1 1_555 1_555
H10 C13 1_555 1_555
C14 C9 1_555 1_555
H11 C14 1_555 1_555
C15 C10 1_555 1_555
H12 C15 1_555 1_555
H13 C15 1_555 1_555
H14 C15 1_555 1_555
S1 C8 1_555 1_555
N6 C16 1_555 1_555
C16 H15 1_555 1_555
C17 N6 1_555 1_555
H16 C17 1_555 1_555
H17 C17 1_555 1_555
H18 C17 1_555 1_555
C18 N6 1_555 1_555
H19 C18 1_555 1_555
H20 C18 1_555 1_555
H21 C18 1_555 1_555
O7 C16 1_555 1_555
N7 C19 1_555 1_555
C19 H22 1_555 1_555
H23 C19 1_555 1_555
H24 C19 1_555 1_555
C20 N7 1_555 1_555
H25 C20 1_555 1_555
H26 C20 1_555 1_555
H27 C20 1_555 1_555
O8 C21 1_555 1_555
C21 N7 1_555 1_555
H28 C21 1_555 1_555
N1B C11B 1_555 1_555
C9B C9 1_555 1_555
C11B H8B 1_555 1_555
C12B C9B 1_555 1_555
H9B C12B 1_555 1_555
C13B N1B 1_555 1_555
H10B C13B 1_555 1_555
C14B C9B 1_555 1_555
H11B C14B 1_555 1_555
Cd1B S1 1_555 1_555
O1B Cd1B 1_555 1_555
C1B O1B 1_555 1_555
N2B Cd1B 1_555 1_555
C2B C3B 1_555 1_555
O2B Cd1B 1_555 1_555
C3B C1B 1_555 1_555
O3B C2B 1_555 1_555
H1B O3B 1_555 1_555
O4B N3B 1_555 1_555
N3B O2B 1_555 1_555
O5B Cd1B 1_555 1_555
C4B C2B 1_555 1_555
H2B C4B 1_555 1_555
C5B C3B 1_555 1_555
H3B C5B 1_555 1_555
C6B C4B 1_555 1_555
H4B C6B 1_555 1_555
C7B C5B 1_555 1_555
H5B C7B 1_555 1_555
O6B Cd1B 1_555 1_555
N4B H6B 1_555 1_555
N5B C1B 1_555 1_555
H7B N5B 1_555 1_555
C8B N2B 1_555 1_555
C10B O6B 1_555 1_555
C15B C10B 1_555 1_555
H12B C15B 1_555 1_555
H13B C15B 1_555 1_555
H14B C15B 1_555 1_555
S1B Cd1 1_555 1_555
Cd1B_2 N1B 1_555 1_555
N1B_2 Cd1B 1_555 1_555
N2 N5 1_555 1_555
N3 O5 1_555 1_555
C6 C7 1_555 1_555
N4 C8 1_555 1_555
N4 C10 1_555 1_555
C13 C14 1_555 1_555
C11B C12B 1_555 1_555
C13B C14B 1_555 1_555
N2B N5B 1_555 1_555
N3B O5B 1_555 1_555
C6B C7B 1_555 1_555
N4B C8B 1_555 1_555
N4B C10B 1_555 1_555
C8B S1B 1_555 1_555

#END
