
#######################################################################
#
#                 Cambridge Crystallographic Data Centre
#                                CCDC 
#
#######################################################################
#
# If this CIF has been generated from an entry in the Cambridge 
# Structural Database, then it will include bibliographic, chemical, 
# crystal, experimental, refinement or atomic coordinate data resulting 
# from the CCDC's data processing and validation procedures.
#
#######################################################################

data_DIRLUN
_symmetry_cell_setting           triclinic
_symmetry_space_group_name_H-M   'P -1'
_symmetry_Int_Tables_number      2
_space_group_name_Hall           '-P 1'
loop_
_symmetry_equiv_pos_site_id
_symmetry_equiv_pos_as_xyz
1 x,y,z
2 -x,-y,-z
_cell_length_a                   10.6445(11)
_cell_length_b                   17.4956(18)
_cell_length_c                   30.022(3)
_cell_angle_alpha                98.411(2)
_cell_angle_beta                 91.251(2)
_cell_angle_gamma                96.172(2)
_cell_volume                     5494.85
loop_
_atom_site_label
_atom_site_type_symbol
_atom_site_fract_x
_atom_site_fract_y
_atom_site_fract_z
Mn1 Mn 0.76664(9) 0.64939(5) 0.23336(3)
Mn2 Mn 0.26039(9) 0.87003(5) 0.26678(3)
Mn3 Mn 0.50801(9) 0.76137(6) 0.24576(4)
N1 N 1.1211(5) 0.9463(3) 0.5649(2)
N2 N 0.8511(5) 1.0940(3) 0.67343(19)
N3 N 1.5782(7) 0.9118(6) 0.5415(3)
N4 N 0.4059(9) 0.9147(5) -0.0533(3)
N5 N -0.0553(17) 0.8580(12) -0.0492(7)
N6 N -0.0411(6) 0.1767(3) 0.1846(2)
N7 N 0.1972(6) -0.0255(3) 0.2383(2)
N8 N -0.4845(8) 0.2254(5) 0.1467(4)
N9 N 0.5226(12) 0.5794(5) 0.5514(3)
N10 N 0.9950(15) 0.6566(8) 0.5724(4)
N11 N 1.0726(6) 1.3348(3) 0.3081(2)
N12 N 0.8335(5) 1.5430(3) 0.2602(2)
N13 N 1.5112(8) 1.2889(5) 0.3514(4)
N14 N -0.1311(5) 0.5498(4) -0.0638(2)
N15 N 0.1419(5) 0.3997(3) -0.16893(19)
N16 N -0.5888(7) 0.5808(6) -0.0395(3)
O1 O 0.7280(6) 0.6887(3) 0.29974(18)
O2 O 0.6287(5) 0.7933(3) 0.30362(16)
O3 O 0.6857(4) 0.7432(2) 0.20429(15)
O4 O 0.8607(5) 0.8237(3) 0.1964(2)
O5 O 0.5987(4) 0.5773(3) 0.20872(17)
O6 O 0.4570(5) 0.6420(3) 0.2468(2)
O7 O 0.3344(4) 0.7771(3) 0.29362(16)
O8 O 0.1534(5) 0.7013(4) 0.2943(3)
O9 O 0.5410(5) 0.8832(3) 0.24277(19)
O10 O 0.4240(4) 0.9429(3) 0.29428(19)
O11 O 0.3728(5) 0.7463(4) 0.18943(18)
O12 O 0.2016(6) 0.8072(3) 0.20712(17)
O13 O 0.9470(6) 0.7278(4) 0.2482(2)
C1 C 0.7041(8) 0.7540(4) 0.3190(2)
C2 C 0.7735(7) 0.7824(4) 0.3631(2)
C3 C 0.7302(7) 0.8424(4) 0.3921(2)
H1 H 0.6570 0.8640 0.3833
C4 C 0.7902(6) 0.8716(4) 0.4333(2)
H2 H 0.7572 0.9116 0.4529
C5 C 0.9015(7) 0.8410(4) 0.4456(2)
C6 C 0.9458(9) 0.7812(5) 0.4161(3)
H3 H 1.0207 0.7599 0.4234
C7 C 0.8783(9) 0.7540(4) 0.3761(3)
H4 H 0.9079 0.7125 0.3565
C8 C 0.9967(6) 0.9514(4) 0.5616(2)
C9 C 0.9204(6) 0.9166(4) 0.5246(2)
H5 H 0.8320 0.9201 0.5242
C10 C 0.9750(7) 0.8764(4) 0.4880(2)
C11 C 1.1041(7) 0.8724(4) 0.4916(2)
H6 H 1.1448 0.8452 0.4673
C12 C 1.1739(6) 0.9068(4) 0.5292(2)
C13 C 0.9675(6) 1.0737(4) 0.6743(2)
H7 H 1.0193 1.0917 0.7007
C14 C 1.0179(6) 1.0283(4) 0.6396(2)
H8 H 1.1022 1.0160 0.6423
C15 C 0.9455(6) 1.0003(4) 0.6005(2)
C16 C 0.8250(7) 1.0259(5) 0.5981(2)
H9 H 0.7734 1.0127 0.5713
C17 C 0.7826(7) 1.0709(5) 0.6358(2)
H10 H 0.6996 1.0859 0.6343
C18 C 1.5099(8) 0.9471(7) 0.5734(4)
H11 H 1.5539 0.9758 0.5994
C19 C 1.3812(8) 0.9449(6) 0.5712(3)
H12 H 1.3388 0.9703 0.5957
C20 C 1.3125(7) 0.9056(5) 0.5335(3)
C21 C 1.3815(9) 0.8686(7) 0.5004(4)
H13 H 1.3402 0.8414 0.4734
C22 C 1.5105(10) 0.8712(8) 0.5065(4)
H14 H 1.5543 0.8418 0.4840
C23 C 0.7522(6) 0.7911(4) 0.1839(3)
C24 C 0.6991(6) 0.8087(4) 0.1400(3)
C25 C 0.5861(7) 0.7689(4) 0.1215(2)
H15 H 0.5436 0.7292 0.1360
C26 C 0.5353(8) 0.7868(5) 0.0822(3)
H16 H 0.4570 0.7593 0.0704
C27 C 0.5931(8) 0.8427(4) 0.0591(3)
C28 C 0.7058(9) 0.8796(5) 0.0763(3)
H17 H 0.7491 0.9175 0.0608
C29 C 0.7606(8) 0.8635(5) 0.1165(3)
H18 H 0.8400 0.8903 0.1276
C30 C 0.5292(11) 0.9252(5) -0.0478(3)
C31 C 0.6007(10) 0.9029(5) -0.0117(3)
H19 H 0.6902 0.9134 -0.0084
C32 C 0.5282(9) 0.8644(4) 0.0184(3)
C33 C 0.4004(9) 0.8518(5) 0.0116(3)
H20 H 0.3513 0.8257 0.0320
C34 C 0.3378(10) 0.8770(5) -0.0258(3)
N17 N 0.7228(10) 1.0714(5) -0.1329(3)
C35 C 0.7908(8) 1.0451(6) -0.1000(3)
H21 H 0.8788 1.0612 -0.0955
C36 C 0.7315(8) 0.9955(5) -0.0735(3)
H22 H 0.7785 0.9773 -0.0508
C37 C 0.6041(9) 0.9723(4) -0.0800(2)
C38 C 0.5361(9) 0.9986(4) -0.1129(3)
H23 H 0.4481 0.9825 -0.1174
C39 C 0.5954(10) 1.0482(5) -0.1394(3)
H24 H 0.5484 1.0664 -0.1622
C40 C 0.0231(17) 0.8955(12) -0.0737(6)
H25 H -0.0096 0.9211 -0.0965
C41 C 0.1445(13) 0.8983(7) -0.0674(4)
H26 H 0.1974 0.9218 -0.0879
C42 C 0.2021(12) 0.8686(7) -0.0324(4)
C43 C 0.1241(16) 0.8317(11) -0.0067(6)
H27 H 0.1582 0.8083 0.0169
C44 C -0.006(2) 0.8265(13) -0.0134(7)
H28 H -0.0607 0.8019 0.0061
C45 C 0.4896(6) 0.5840(4) 0.2226(2)
C46 C 0.3910(6) 0.5146(3) 0.2110(2)
C47 C 0.2675(7) 0.5173(4) 0.2239(3)
H29 H 0.2426 0.5641 0.2396
C48 C 0.1810(6) 0.4532(4) 0.2141(3)
H30 H 0.0966 0.4560 0.2233
C49 C 0.2137(7) 0.3841(4) 0.1910(3)
C50 C 0.3357(7) 0.3805(4) 0.1773(3)
H31 H 0.3604 0.3337 0.1614
C51 C 0.4231(7) 0.4472(4) 0.1874(3)
H32 H 0.5070 0.4454 0.1774
C52 C 0.0810(7) 0.1782(4) 0.1942(3)
C53 C 0.1673(7) 0.2447(4) 0.1939(3)
H33 H 0.2551 0.2427 0.1991
C54 C 0.1230(7) 0.3129(4) 0.1859(3)
C55 C -0.0046(7) 0.3120(4) 0.1753(3)
H34 H -0.0370 0.3577 0.1686
C56 C -0.0851(7) 0.2431(4) 0.1743(3)
C57 C 0.0969(7) -0.0295(4) 0.2110(3)
H35 H 0.0505 -0.0790 0.2018
C58 C 0.0550(7) 0.0345(4) 0.1949(2)
H36 H -0.0196 0.0290 0.1762
C59 C 0.1249(7) 0.1062(4) 0.2068(3)
C60 C 0.2315(8) 0.1100(4) 0.2351(3)
H37 H 0.2825 0.1581 0.2437
C61 C 0.2623(8) 0.0447(4) 0.2503(3)
H38 H 0.3337 0.0491 0.2704
C62 C -0.4324(10) 0.1840(6) 0.1727(5)
H39 H -0.4872 0.1475 0.1857
C63 C -0.3065(8) 0.1877(5) 0.1833(4)
H40 H -0.2771 0.1557 0.2034
C64 C -0.2222(7) 0.2383(4) 0.1647(3)
C65 C -0.2729(8) 0.2826(5) 0.1355(4)
H41 H -0.2195 0.3184 0.1215
C66 C -0.4023(11) 0.2738(6) 0.1270(5)
H42 H -0.4355 0.3032 0.1063
C67 C 0.2592(6) 0.7268(4) 0.3103(3)
C68 C 0.3049(6) 0.7026(4) 0.3524(3)
C69 C 0.4220(8) 0.7327(5) 0.3723(3)
H43 H 0.4738 0.7701 0.3590
C70 C 0.4635(9) 0.7093(6) 0.4107(3)
H44 H 0.5458 0.7292 0.4228
C71 C 0.3908(8) 0.6576(4) 0.4330(3)
C72 C 0.2725(10) 0.6308(6) 0.4141(4)
H45 H 0.2180 0.5961 0.4284
C73 C 0.2323(9) 0.6533(6) 0.3752(4)
H46 H 0.1497 0.6338 0.3633
C74 C 0.6037(12) 0.6213(5) 0.5271(3)
C75 C 0.5642(10) 0.6471(5) 0.4884(3)
H47 H 0.6231 0.6746 0.4715
C76 C 0.4380(10) 0.6326(5) 0.4743(3)
C77 C 0.3575(10) 0.5920(5) 0.5000(3)
H48 H 0.2702 0.5826 0.4914
C78 C 0.3975(13) 0.5651(6) 0.5367(4)
C79 C 0.9111(18) 0.6005(8) 0.5844(5)
H49 H 0.9409 0.5665 0.6032
C80 C 0.7871(16) 0.5897(7) 0.5714(4)
H50 H 0.7337 0.5497 0.5821
C81 C 0.7354(14) 0.6349(6) 0.5432(4)
C82 C 0.8219(14) 0.6913(8) 0.5300(5)
H51 H 0.7933 0.7252 0.5109
C83 C 0.9482(17) 0.7004(10) 0.5435(6)
H52 H 1.0041 0.7385 0.5322
N18 N 0.1564(11) 0.4241(5) 0.6105(4)
C84 C 0.2791(12) 0.4453(5) 0.6246(3)
H53 H 0.3113 0.4278 0.6506
C85 C 0.3557(9) 0.4916(5) 0.6015(3)
H54 H 0.4415 0.5064 0.6114
C86 C 0.3097(9) 0.5167(4) 0.5643(3)
C87 C 0.1870(9) 0.4955(6) 0.5502(3)
H55 H 0.1548 0.5130 0.5242
C88 C 0.1104(9) 0.4492(6) 0.5733(4)
H56 H 0.0247 0.4344 0.5634
C89 C 0.5247(7) 0.9369(4) 0.2736(2)
C90 C 0.6285(6) 1.0019(3) 0.2853(2)
C91 C 0.7481(7) 0.9966(4) 0.2697(3)
H57 H 0.7670 0.9496 0.2523
C92 C 0.8408(7) 1.0586(4) 0.2788(3)
H58 H 0.9237 1.0531 0.2687
C93 C 0.8150(6) 1.1300(4) 0.3029(2)
C94 C 0.6935(7) 1.1338(4) 0.3193(3)
H59 H 0.6730 1.1808 0.3362
C95 C 0.6034(7) 1.0704(4) 0.3111(3)
H60 H 0.5225 1.0737 0.3235
C96 C 0.9506(7) 1.3341(4) 0.2986(3)
C97 C 0.8649(7) 1.2688(4) 0.2986(3)
H61 H 0.7773 1.2713 0.2932
C98 C 0.9077(7) 1.1994(4) 0.3067(3)
C99 C 1.0338(7) 1.2004(4) 0.3171(3)
H62 H 1.0657 1.1545 0.3236
C100 C 1.1151(7) 1.2678(4) 0.3181(3)
C101 C 0.9354(7) 1.5443(4) 0.2872(2)
H63 H 0.9827 1.5931 0.2975
C102 C 0.9754(7) 1.4795(4) 0.3007(3)
H64 H 1.0496 1.4840 0.3195
C103 C 0.9075(7) 1.4067(4) 0.2870(3)
C104 C 0.7981(7) 1.4057(4) 0.2597(3)
H65 H 0.7470 1.3581 0.2496
C105 C 0.7661(7) 1.4732(4) 0.2478(3)
H66 H 0.6914 1.4711 0.2295
C106 C 1.4627(10) 1.3327(7) 0.3232(5)
H67 H 1.5188 1.3687 0.3103
C107 C 1.3379(8) 1.3275(5) 0.3126(4)
H68 H 1.3083 1.3615 0.2938
C108 C 1.2529(8) 1.2740(5) 0.3284(3)
C109 C 1.3034(9) 1.2282(5) 0.3579(4)
H69 H 1.2493 1.1910 0.3706
C110 C 1.4303(10) 1.2377(6) 0.3682(5)
H70 H 1.4625 1.2065 0.3882
C111 C 0.2672(7) 0.7638(4) 0.1815(2)
C112 C 0.2034(7) 0.7300(4) 0.1363(2)
C113 C 0.0880(7) 0.7520(4) 0.1239(2)
H71 H 0.0504 0.7902 0.1434
C114 C 0.0281(8) 0.7199(4) 0.0844(2)
H72 H -0.0517 0.7352 0.0769
C115 C 0.0808(7) 0.6644(4) 0.0541(2)
C116 C 0.1964(7) 0.6427(4) 0.0661(2)
H73 H 0.2343 0.6053 0.0461
C117 C 0.2585(7) 0.6749(5) 0.1071(2)
H74 H 0.3378 0.6593 0.1150
C118 C -0.0062(7) 0.5474(4) -0.0608(2)
C119 C 0.0682(7) 0.5857(4) -0.0237(2)
H75 H 0.1572 0.5845 -0.0230
C120 C 0.0100(7) 0.6260(4) 0.0125(2)
C121 C -0.1184(7) 0.6277(4) 0.0087(2)
H76 H -0.1611 0.6550 0.0324
C122 C -0.1855(7) 0.5899(5) -0.0296(2)
C123 C 0.0213(6) 0.4150(4) -0.1697(2)
H77 H -0.0328 0.3907 -0.1945
C124 C -0.0281(6) 0.4645(4) -0.1361(2)
H78 H -0.1132 0.4754 -0.1386
C125 C 0.0476(6) 0.4984(4) -0.0983(2)
C126 C 0.1705(7) 0.4783(5) -0.0969(3)
H79 H 0.2254 0.4977 -0.0715
C127 C 0.2122(7) 0.4296(6) -0.1330(2)
H80 H 0.2968 0.4172 -0.1315
C128 C -0.5205(11) 0.5392(9) -0.0667(5)
H81 H -0.5653 0.5046 -0.0906
C129 C -0.3919(10) 0.5395(8) -0.0651(4)
H82 H -0.3518 0.5048 -0.0861
C130 C -0.3245(7) 0.5892(5) -0.0336(3)
C131 C -0.3939(9) 0.6358(8) -0.0065(5)
H83 H -0.3526 0.6731 0.0169
C132 C -0.5223(10) 0.6300(8) -0.0123(5)
H84 H -0.5649 0.6671 0.0061
Mn1_2 Mn 0.76664(9) 1.64939(5) 0.23336(3)
Mn1A Mn 0.23336(9) 0.35061(5) -0.23336(3)
Mn2_2 Mn 0.26039(9) -0.12997(5) 0.26678(3)
Mn2A Mn 0.73961(9) 1.12997(5) 0.73322(3)
N2A N 0.1489(5) 0.9060(3) 0.32657(19)
N7_2 N 0.1972(6) 0.9745(3) 0.2383(2)
N12_2 N 0.8335(5) 0.5430(3) 0.2602(2)
N15A N 0.8581(5) 0.6003(3) 0.16893(19)
O14 O 0.7456(11) 0.2762(7) 0.4138(5)
O15 O 0.7226(19) 0.7617(11) 0.9178(7)
loop_
_geom_bond_atom_site_label_1
_geom_bond_atom_site_label_2
_geom_bond_site_symmetry_1
_geom_bond_site_symmetry_2
Mn1 O1 1_555 1_555
Mn2 O7 1_555 1_555
Mn3 O2 1_555 1_555
N1 C8 1_555 1_555
N2 C13 1_555 1_555
N3 C18 1_555 1_555
N4 C30 1_555 1_555
N5 C40 1_555 1_555
N6 C52 1_555 1_555
N7 C57 1_555 1_555
N8 C62 1_555 1_555
N9 C74 1_555 1_555
N10 C79 1_555 1_555
N11 C96 1_555 1_555
N12 C101 1_555 1_555
N13 C106 1_555 1_555
N14 C118 1_555 1_555
N15 C123 1_555 1_555
N16 C128 1_555 1_555
O1 C1 1_555 1_555
O2 C1 1_555 1_555
O3 Mn1 1_555 1_555
O4 C23 1_555 1_555
O5 Mn1 1_555 1_555
O6 Mn3 1_555 1_555
O7 Mn3 1_555 1_555
O8 C67 1_555 1_555
O9 Mn3 1_555 1_555
O10 Mn2 1_555 1_555
O11 Mn3 1_555 1_555
O12 Mn2 1_555 1_555
O13 Mn1 1_555 1_555
C1 C2 1_555 1_555
C2 C3 1_555 1_555
C3 H1 1_555 1_555
C4 C3 1_555 1_555
H2 C4 1_555 1_555
C5 C4 1_555 1_555
C6 C5 1_555 1_555
H3 C6 1_555 1_555
C7 C2 1_555 1_555
H4 C7 1_555 1_555
C8 C9 1_555 1_555
C9 H5 1_555 1_555
C10 C5 1_555 1_555
C11 C10 1_555 1_555
H6 C11 1_555 1_555
C12 N1 1_555 1_555
C13 H7 1_555 1_555
C14 C13 1_555 1_555
H8 C14 1_555 1_555
C15 C8 1_555 1_555
C16 C15 1_555 1_555
H9 C16 1_555 1_555
C17 N2 1_555 1_555
H10 C17 1_555 1_555
C18 H11 1_555 1_555
C19 C18 1_555 1_555
H12 C19 1_555 1_555
C20 C12 1_555 1_555
C21 C20 1_555 1_555
H13 C21 1_555 1_555
C22 N3 1_555 1_555
H14 C22 1_555 1_555
C23 O3 1_555 1_555
C24 C23 1_555 1_555
C25 C24 1_555 1_555
H15 C25 1_555 1_555
C26 C25 1_555 1_555
H16 C26 1_555 1_555
C27 C26 1_555 1_555
C28 C27 1_555 1_555
H17 C28 1_555 1_555
C29 C24 1_555 1_555
H18 C29 1_555 1_555
C30 C31 1_555 1_555
C31 H19 1_555 1_555
C32 C27 1_555 1_555
C33 C32 1_555 1_555
H20 C33 1_555 1_555
C34 N4 1_555 1_555
N17 C35 1_555 1_555
C35 H21 1_555 1_555
C36 C35 1_555 1_555
H22 C36 1_555 1_555
C37 C30 1_555 1_555
C38 C37 1_555 1_555
H23 C38 1_555 1_555
C39 N17 1_555 1_555
H24 C39 1_555 1_555
C40 H25 1_555 1_555
C41 C40 1_555 1_555
H26 C41 1_555 1_555
C42 C34 1_555 1_555
C43 C42 1_555 1_555
H27 C43 1_555 1_555
C44 N5 1_555 1_555
H28 C44 1_555 1_555
C45 O5 1_555 1_555
C46 C45 1_555 1_555
C47 C46 1_555 1_555
H29 C47 1_555 1_555
C48 C47 1_555 1_555
H30 C48 1_555 1_555
C49 C48 1_555 1_555
C50 C49 1_555 1_555
H31 C50 1_555 1_555
C51 C46 1_555 1_555
H32 C51 1_555 1_555
C52 C53 1_555 1_555
C53 H33 1_555 1_555
C54 C49 1_555 1_555
C55 C54 1_555 1_555
H34 C55 1_555 1_555
C56 N6 1_555 1_555
C57 H35 1_555 1_555
C58 C57 1_555 1_555
H36 C58 1_555 1_555
C59 C52 1_555 1_555
C60 C59 1_555 1_555
H37 C60 1_555 1_555
C61 N7 1_555 1_555
H38 C61 1_555 1_555
C62 H39 1_555 1_555
C63 C62 1_555 1_555
H40 C63 1_555 1_555
C64 C56 1_555 1_555
C65 C64 1_555 1_555
H41 C65 1_555 1_555
C66 N8 1_555 1_555
H42 C66 1_555 1_555
C67 O7 1_555 1_555
C68 C67 1_555 1_555
C69 C68 1_555 1_555
H43 C69 1_555 1_555
C70 C69 1_555 1_555
H44 C70 1_555 1_555
C71 C70 1_555 1_555
C72 C71 1_555 1_555
H45 C72 1_555 1_555
C73 C68 1_555 1_555
H46 C73 1_555 1_555
C74 C75 1_555 1_555
C75 H47 1_555 1_555
C76 C71 1_555 1_555
C77 C76 1_555 1_555
H48 C77 1_555 1_555
C78 N9 1_555 1_555
C79 H49 1_555 1_555
C80 C79 1_555 1_555
H50 C80 1_555 1_555
C81 C74 1_555 1_555
C82 C81 1_555 1_555
H51 C82 1_555 1_555
C83 N10 1_555 1_555
H52 C83 1_555 1_555
N18 C84 1_555 1_555
C84 H53 1_555 1_555
C85 C84 1_555 1_555
H54 C85 1_555 1_555
C86 C78 1_555 1_555
C87 C86 1_555 1_555
H55 C87 1_555 1_555
C88 N18 1_555 1_555
H56 C88 1_555 1_555
C89 O9 1_555 1_555
C90 C89 1_555 1_555
C91 C90 1_555 1_555
H57 C91 1_555 1_555
C92 C91 1_555 1_555
H58 C92 1_555 1_555
C93 C92 1_555 1_555
C94 C93 1_555 1_555
H59 C94 1_555 1_555
C95 C90 1_555 1_555
H60 C95 1_555 1_555
C96 C97 1_555 1_555
C97 H61 1_555 1_555
C98 C93 1_555 1_555
C99 C98 1_555 1_555
H62 C99 1_555 1_555
C100 N11 1_555 1_555
C101 H63 1_555 1_555
C102 C101 1_555 1_555
H64 C102 1_555 1_555
C103 C96 1_555 1_555
C104 C103 1_555 1_555
H65 C104 1_555 1_555
C105 N12 1_555 1_555
H66 C105 1_555 1_555
C106 H67 1_555 1_555
C107 C106 1_555 1_555
H68 C107 1_555 1_555
C108 C100 1_555 1_555
C109 C108 1_555 1_555
H69 C109 1_555 1_555
C110 N13 1_555 1_555
H70 C110 1_555 1_555
C111 O11 1_555 1_555
C112 C111 1_555 1_555
C113 C112 1_555 1_555
H71 C113 1_555 1_555
C114 C113 1_555 1_555
H72 C114 1_555 1_555
C115 C114 1_555 1_555
C116 C115 1_555 1_555
H73 C116 1_555 1_555
C117 C112 1_555 1_555
H74 C117 1_555 1_555
C118 C119 1_555 1_555
C119 H75 1_555 1_555
C120 C115 1_555 1_555
C121 C120 1_555 1_555
H76 C121 1_555 1_555
C122 N14 1_555 1_555
C123 H77 1_555 1_555
C124 C123 1_555 1_555
H78 C124 1_555 1_555
C125 C118 1_555 1_555
C126 C125 1_555 1_555
H79 C126 1_555 1_555
C127 N15 1_555 1_555
H80 C127 1_555 1_555
C128 H81 1_555 1_555
C129 C128 1_555 1_555
H82 C129 1_555 1_555
C130 C122 1_555 1_555
C131 C130 1_555 1_555
H83 C131 1_555 1_555
C132 N16 1_555 1_555
H84 C132 1_555 1_555
Mn1_2 N12 1_555 1_555
Mn1A N15 1_555 1_555
Mn2_2 N7 1_555 1_555
Mn2A N2 1_555 1_555
N2A Mn2 1_555 1_555
N7_2 Mn2 1_555 1_555
N12_2 Mn1 1_555 1_555
N15A Mn1 1_555 1_555
Mn3 O3 1_555 1_555
O6 C45 1_555 1_555
O10 C89 1_555 1_555
O12 C111 1_555 1_555
C6 C7 1_555 1_555
C9 C10 1_555 1_555
C11 C12 1_555 1_555
C14 C15 1_555 1_555
C16 C17 1_555 1_555
C19 C20 1_555 1_555
C21 C22 1_555 1_555
C28 C29 1_555 1_555
C31 C32 1_555 1_555
C33 C34 1_555 1_555
C36 C37 1_555 1_555
C38 C39 1_555 1_555
C41 C42 1_555 1_555
C43 C44 1_555 1_555
C50 C51 1_555 1_555
C53 C54 1_555 1_555
C55 C56 1_555 1_555
C58 C59 1_555 1_555
C60 C61 1_555 1_555
C63 C64 1_555 1_555
C65 C66 1_555 1_555
C72 C73 1_555 1_555
C75 C76 1_555 1_555
C77 C78 1_555 1_555
C80 C81 1_555 1_555
C82 C83 1_555 1_555
C85 C86 1_555 1_555
C87 C88 1_555 1_555
C94 C95 1_555 1_555
C97 C98 1_555 1_555
C99 C100 1_555 1_555
C102 C103 1_555 1_555
C104 C105 1_555 1_555
C107 C108 1_555 1_555
C109 C110 1_555 1_555
C116 C117 1_555 1_555
C119 C120 1_555 1_555
C121 C122 1_555 1_555
C124 C125 1_555 1_555
C126 C127 1_555 1_555
C129 C130 1_555 1_555
C131 C132 1_555 1_555

#END
