
#######################################################################
#
#                 Cambridge Crystallographic Data Centre
#                                CCDC 
#
#######################################################################
#
# If this CIF has been generated from an entry in the Cambridge 
# Structural Database, then it will include bibliographic, chemical, 
# crystal, experimental, refinement or atomic coordinate data resulting 
# from the CCDC's data processing and validation procedures.
#
#######################################################################

data_DIRLIB
_symmetry_cell_setting           monoclinic
_symmetry_space_group_name_H-M   'P 21/c'
_symmetry_Int_Tables_number      14
_space_group_name_Hall           '-P 2ybc'
loop_
_symmetry_equiv_pos_site_id
_symmetry_equiv_pos_as_xyz
1 x,y,z
2 -x,1/2+y,1/2-z
3 -x,-y,-z
4 x,1/2-y,1/2+z
_cell_length_a                   9.2991(12)
_cell_length_b                   21.109(3)
_cell_length_c                   19.3786(18)
_cell_angle_alpha                90
_cell_angle_beta                 104.356(5)
_cell_angle_gamma                90
_cell_volume                     3685.13
loop_
_atom_site_label
_atom_site_type_symbol
_atom_site_fract_x
_atom_site_fract_y
_atom_site_fract_z
Mn1 Mn 0.36182(6) -0.51004(2) 0.56929(3)
O1 O 0.2519(3) -0.53890(10) 0.46504(12)
O2 O 0.4390(3) -0.53814(11) 0.41280(12)
O3 O -0.2100(3) -0.05609(12) 0.87626(13)
O4 O -0.3729(4) 0.00285(13) 0.80511(13)
N1 N -0.5029(4) -0.89769(14) 0.08417(17)
N2 N -0.2633(4) -0.69813(15) 0.03040(16)
N3 N -0.2505(7) -0.5673(2) -0.1827(2)
N4 N 0.2371(3) -0.41881(13) 0.54463(15)
N5 N -0.1426(4) -0.24788(14) 0.45697(16)
N6 N -0.5466(6) -0.1894(3) 0.2432(2)
C1 C -0.5405(5) -0.85113(18) 0.0365(2)
H1 H -0.6269 -0.8557 0.0005
C2 C -0.4582(5) -0.79636(17) 0.03772(19)
H2 H -0.4886 -0.7657 0.0027
C3 C -0.3304(5) -0.78756(17) 0.09129(19)
C4 C -0.2910(5) -0.83558(19) 0.14136(19)
H3 H -0.2062 -0.8319 0.1785
C5 C -0.3800(5) -0.88928(18) 0.1354(2)
H4 H -0.3516 -0.9211 0.1692
C6 C -0.2449(5) -0.72854(18) 0.0935(2)
C7 C -0.1536(4) -0.70383(18) 0.15557(19)
H5 H -0.1438 -0.7251 0.1985
C8 C -0.0770(5) -0.64779(18) 0.1540(2)
C9 C -0.0942(5) -0.61844(17) 0.0891(2)
H6 H -0.0428 -0.5812 0.0860
C10 C -0.1871(5) -0.64385(19) 0.0283(2)
C11 C -0.2104(6) -0.61560(19) -0.0434(2)
C12 C -0.3247(6) -0.6336(2) -0.0980(3)
H7 H -0.3923 -0.6635 -0.0901
C13 C -0.3420(8) -0.6082(3) -0.1653(3)
H8 H -0.4241 -0.6209 -0.2007
C14 C -0.1349(7) -0.5510(2) -0.1310(3)
H9 H -0.0650 -0.5236 -0.1415
C15 C -0.1126(6) -0.5732(2) -0.0610(2)
H10 H -0.0312 -0.5592 -0.0261
C16 C 0.0197(5) -0.62034(17) 0.2201(2)
C17 C -0.0281(5) -0.61632(19) 0.2815(2)
H11 H -0.1218 -0.6313 0.2822
C18 C 0.0624(5) -0.59020(18) 0.3421(2)
H12 H 0.0258 -0.5857 0.3823
C19 C 0.2044(4) -0.57058(15) 0.34515(18)
C20 C 0.2520(4) -0.57265(16) 0.2830(2)
H13 H 0.3462 -0.5581 0.2827
C21 C 0.1588(5) -0.59640(17) 0.2211(2)
H14 H 0.1907 -0.5962 0.1792
C22 C 0.3050(5) -0.54663(15) 0.41252(19)
C23 C 0.1097(4) -0.41446(16) 0.49348(18)
H15 H 0.0817 -0.4489 0.4632
C24 C 0.0186(4) -0.36237(17) 0.48335(17)
H16 H -0.0673 -0.3617 0.4465
C25 C 0.0558(4) -0.31063(17) 0.52875(18)
C26 C 0.1885(4) -0.31428(16) 0.58152(18)
H17 H 0.2189 -0.2805 0.6125
C27 C 0.2738(4) -0.36805(17) 0.58743(18)
H18 H 0.3617 -0.3695 0.6230
C28 C -0.0504(4) -0.25727(17) 0.5219(2)
C29 C -0.0608(5) -0.22148(17) 0.58066(19)
H19 H 0.0046 -0.2287 0.6247
C30 C -0.1683(5) -0.17526(18) 0.5735(2)
C31 C -0.2625(4) -0.16633(17) 0.50727(19)
H20 H -0.3366 -0.1357 0.5010
C32 C -0.2477(5) -0.20238(18) 0.4502(2)
C33 C -0.3500(5) -0.1964(2) 0.3788(2)
C34 C -0.4445(5) -0.1451(2) 0.3583(2)
H21 H -0.4449 -0.1120 0.3898
C35 C -0.5387(6) -0.1438(3) 0.2900(3)
H22 H -0.5994 -0.1085 0.2769
C36 C -0.4568(8) -0.2373(3) 0.2635(3)
H23 H -0.4596 -0.2701 0.2311
C37 C -0.3588(6) -0.2428(2) 0.3292(2)
H24 H -0.2982 -0.2783 0.3398
C38 C -0.1881(5) -0.13769(19) 0.6362(2)
C39 C -0.2640(6) -0.0818(2) 0.6269(2)
H25 H -0.3002 -0.0657 0.5812
C40 C -0.2883(6) -0.0481(2) 0.6859(2)
H26 H -0.3424 -0.0106 0.6785
C41 C -0.2343(5) -0.06950(18) 0.7530(2)
C42 C -0.1536(5) -0.1234(2) 0.7616(2)
H27 H -0.1110 -0.1378 0.8075
C43 C -0.1325(5) -0.1579(2) 0.7041(2)
H28 H -0.0792 -0.1956 0.7122
C44 C -0.2722(5) -0.0375(2) 0.8157(2)
Mn1A Mn -0.36182(6) -0.01004(2) 0.93071(3)
Mn1B Mn 0.63818(6) -0.48996(2) 0.43071(3)
Mn1C Mn -0.63818(6) -0.98996(2) 0.06929(3)
O2B O 0.5610(3) -0.46186(11) 0.58720(12)
O3A O 0.2100(3) -0.55609(12) 0.62374(13)
O4A O 0.3729(4) -0.49715(13) 0.69489(13)
N1C N 0.4971(4) -0.60231(14) 0.58417(17)
loop_
_geom_bond_atom_site_label_1
_geom_bond_atom_site_label_2
_geom_bond_site_symmetry_1
_geom_bond_site_symmetry_2
Mn1 O1 1_555 1_555
O1 C22 1_555 1_555
O2 C22 1_555 1_555
O3 C44 1_555 1_555
O4 C44 1_555 1_555
N1 C1 1_555 1_555
N2 C6 1_555 1_555
N3 C13 1_555 1_555
N4 Mn1 1_555 1_555
N5 C28 1_555 1_555
N6 C35 1_555 1_555
C1 H1 1_555 1_555
C2 C1 1_555 1_555
H2 C2 1_555 1_555
C3 C2 1_555 1_555
C4 C3 1_555 1_555
H3 C4 1_555 1_555
C5 N1 1_555 1_555
H4 C5 1_555 1_555
C6 C3 1_555 1_555
C7 C6 1_555 1_555
H5 C7 1_555 1_555
C8 C7 1_555 1_555
C9 C8 1_555 1_555
H6 C9 1_555 1_555
C10 N2 1_555 1_555
C11 C10 1_555 1_555
C12 C11 1_555 1_555
H7 C12 1_555 1_555
C13 C12 1_555 1_555
H8 C13 1_555 1_555
C14 N3 1_555 1_555
H9 C14 1_555 1_555
C15 C11 1_555 1_555
H10 C15 1_555 1_555
C16 C8 1_555 1_555
C17 C16 1_555 1_555
H11 C17 1_555 1_555
C18 C17 1_555 1_555
H12 C18 1_555 1_555
C19 C18 1_555 1_555
C20 C19 1_555 1_555
H13 C20 1_555 1_555
C21 C16 1_555 1_555
H14 C21 1_555 1_555
C22 C19 1_555 1_555
C23 N4 1_555 1_555
H15 C23 1_555 1_555
C24 C23 1_555 1_555
H16 C24 1_555 1_555
C25 C24 1_555 1_555
C26 C25 1_555 1_555
H17 C26 1_555 1_555
C27 N4 1_555 1_555
H18 C27 1_555 1_555
C28 C25 1_555 1_555
C29 C28 1_555 1_555
H19 C29 1_555 1_555
C30 C29 1_555 1_555
C31 C30 1_555 1_555
H20 C31 1_555 1_555
C32 N5 1_555 1_555
C33 C32 1_555 1_555
C34 C33 1_555 1_555
H21 C34 1_555 1_555
C35 C34 1_555 1_555
H22 C35 1_555 1_555
C36 N6 1_555 1_555
H23 C36 1_555 1_555
C37 C33 1_555 1_555
H24 C37 1_555 1_555
C38 C30 1_555 1_555
C39 C38 1_555 1_555
H25 C39 1_555 1_555
C40 C39 1_555 1_555
H26 C40 1_555 1_555
C41 C40 1_555 1_555
C42 C41 1_555 1_555
H27 C42 1_555 1_555
C43 C38 1_555 1_555
H28 C43 1_555 1_555
C44 C41 1_555 1_555
Mn1A O3 1_555 1_555
Mn1B O2 1_555 1_555
Mn1C N1 1_555 1_555
O2B Mn1 1_555 1_555
O3A Mn1 1_555 1_555
O4A Mn1 1_555 1_555
N1C Mn1 1_555 1_555
O4 Mn1A 1_555 1_555
C4 C5 1_555 1_555
C9 C10 1_555 1_555
C14 C15 1_555 1_555
C20 C21 1_555 1_555
C26 C27 1_555 1_555
C31 C32 1_555 1_555
C36 C37 1_555 1_555
C42 C43 1_555 1_555

#END
