
#######################################################################
#
#                 Cambridge Crystallographic Data Centre
#                                CCDC 
#
#######################################################################
#
# If this CIF has been generated from an entry in the Cambridge 
# Structural Database, then it will include bibliographic, chemical, 
# crystal, experimental, refinement or atomic coordinate data resulting 
# from the CCDC's data processing and validation procedures.
#
#######################################################################

data_DIRMAU
_symmetry_cell_setting           monoclinic
_symmetry_space_group_name_H-M   'P 21/n'
_symmetry_Int_Tables_number      14
_space_group_name_Hall           '-P 2yn'
loop_
_symmetry_equiv_pos_site_id
_symmetry_equiv_pos_as_xyz
1 x,y,z
2 1/2-x,1/2+y,1/2-z
3 -x,-y,-z
4 1/2+x,1/2-y,1/2+z
_cell_length_a                   7.2907(13)
_cell_length_b                   26.677(5)
_cell_length_c                   12.932(2)
_cell_angle_alpha                90
_cell_angle_beta                 106.170(2)
_cell_angle_gamma                90
_cell_volume                     2415.69
loop_
_atom_site_label
_atom_site_type_symbol
_atom_site_fract_x
_atom_site_fract_y
_atom_site_fract_z
Co1 Co -0.14989(12) 0.12878(3) 0.02924(6)
C1 C -0.0064(10) 0.1030(2) 0.2615(5)
H1 H -0.0291 0.1371 0.2656
C2 C 0.0719(9) 0.0774(2) 0.3559(5)
H2 H 0.1020 0.0943 0.4213
C3 C 0.1058(8) 0.0262(2) 0.3529(4)
C4 C 0.0525(9) 0.0037(2) 0.2516(5)
H3 H 0.0664 -0.0307 0.2450
C5 C -0.0216(9) 0.0329(2) 0.1605(5)
H4 H -0.0517 0.0173 0.0935
C6 C 0.2001(8) -0.0027(2) 0.4516(4)
C7 C 0.2181(8) -0.0538(2) 0.4498(4)
H5 H 0.1597 -0.0715 0.3873
C8 C 0.3226(8) -0.0793(2) 0.5403(4)
C9 C 0.3984(8) -0.0517(2) 0.6332(4)
H6 H 0.4657 -0.0677 0.6963
C10 C 0.3734(8) -0.0006(2) 0.6316(4)
C11 C 0.4621(8) 0.0306(2) 0.7268(4)
C12 C 0.5075(9) 0.0112(2) 0.8311(5)
H7 H 0.4737 -0.0214 0.8434
C13 C 0.6036(10) 0.0413(2) 0.9158(5)
H8 H 0.6296 0.0283 0.9851
C14 C 0.6157(9) 0.1067(2) 0.8038(5)
H9 H 0.6540 0.1391 0.7934
C15 C 0.5139(9) 0.0796(2) 0.7157(5)
H10 H 0.4797 0.0945 0.6481
C16 C 0.3618(9) -0.13557(18) 0.5353(5)
C17 C 0.4987(9) -0.1588(2) 0.6165(5)
H11 H 0.5604 -0.1412 0.6785
C18 C 0.5432(10) -0.2080(2) 0.6049(5)
H12 H 0.6348 -0.2236 0.6602
C19 C 0.4559(9) -0.2352(2) 0.5133(5)
C20 C 0.5191(9) -0.2871(2) 0.4974(5)
C21 C 0.3181(9) -0.2116(2) 0.4341(5)
H13 H 0.2553 -0.2294 0.3726
C22 C 0.2701(9) -0.1618(2) 0.4435(5)
H14 H 0.1774 -0.1463 0.3886
C23 C -0.4950(11) 0.1486(3) 0.1019(5)
H15 H -0.5746 0.1716 0.1219
N1 N -0.0515(7) 0.08167(18) 0.1646(4)
N2 N 0.2766(7) 0.02479(17) 0.5411(4)
N3 N 0.6615(7) 0.08799(18) 0.9042(4)
O1 O 0.0710(6) 0.09071(16) -0.0274(3)
O2 O -0.3432(7) 0.16582(17) 0.0882(4)
O3 O -0.5512(7) 0.10478(18) 0.0920(4)
O4 O 0.6412(7) -0.30866(15) 0.5732(4)
O5 O 0.4501(6) -0.30939(15) 0.4088(4)
H16 H 0.0963 0.0995 -0.0851
H17 H 0.1842 0.0864 0.0163
Co1_2 Co 0.85011(12) 0.12878(3) 1.02924(6)
Co1A Co 0.64989(12) -0.37122(3) 0.47076(6)
N3_2 N -0.3385(7) 0.08799(18) -0.0958(4)
O4A O -0.1412(7) 0.19134(15) -0.0732(4)
O5A O 0.0499(6) 0.19061(15) 0.0912(4)
C24 C 0.2040(12) 0.1663(3) 0.8116(7)
H18 H 0.2406 0.1711 0.8858
C25 C 0.3867(15) 0.2429(4) 0.8051(10)
H19 H 0.3270 0.2738 0.7757
H20 H 0.5093 0.2403 0.7915
H21 H 0.4028 0.2423 0.8813
C26 C 0.2216(14) 0.1949(4) 0.6377(7)
H22 H 0.1782 0.1613 0.6176
H23 H 0.3344 0.2014 0.6154
H24 H 0.1236 0.2183 0.6033
N4 N 0.2652(10) 0.2003(3) 0.7539(6)
O6 O 0.1053(8) 0.1296(2) 0.7787(4)
loop_
_geom_bond_atom_site_label_1
_geom_bond_atom_site_label_2
_geom_bond_site_symmetry_1
_geom_bond_site_symmetry_2
Co1 N1 1_555 1_555
C1 H1 1_555 1_555
C2 C1 1_555 1_555
H2 C2 1_555 1_555
C3 C2 1_555 1_555
C4 C3 1_555 1_555
H3 C4 1_555 1_555
C5 C4 1_555 1_555
H4 C5 1_555 1_555
C6 C3 1_555 1_555
C7 C6 1_555 1_555
H5 C7 1_555 1_555
C8 C7 1_555 1_555
C9 C8 1_555 1_555
H6 C9 1_555 1_555
C10 C9 1_555 1_555
C11 C10 1_555 1_555
C12 C11 1_555 1_555
H7 C12 1_555 1_555
C13 C12 1_555 1_555
H8 C13 1_555 1_555
C14 H9 1_555 1_555
C15 C11 1_555 1_555
H10 C15 1_555 1_555
C16 C8 1_555 1_555
C17 C16 1_555 1_555
H11 C17 1_555 1_555
C18 C17 1_555 1_555
H12 C18 1_555 1_555
C19 C18 1_555 1_555
C20 C19 1_555 1_555
C21 C19 1_555 1_555
H13 C21 1_555 1_555
C22 C16 1_555 1_555
H14 C22 1_555 1_555
C23 H15 1_555 1_555
N1 C1 1_555 1_555
N2 C6 1_555 1_555
N3 C13 1_555 1_555
O1 Co1 1_555 1_555
O2 Co1 1_555 1_555
O3 C23 1_555 1_555
O4 C20 1_555 1_555
O5 C20 1_555 1_555
H16 O1 1_555 1_555
H17 O1 1_555 1_555
C24 H18 1_555 1_555
C25 H19 1_555 1_555
H20 C25 1_555 1_555
H21 C25 1_555 1_555
C26 H22 1_555 1_555
H23 C26 1_555 1_555
H24 C26 1_555 1_555
N4 C24 1_555 1_555
O6 C24 1_555 1_555
Co1_2 N3 1_555 1_555
Co1A O4 1_555 1_555
N3_2 Co1 1_555 1_555
O4A Co1 1_555 1_555
O5A Co1 1_555 1_555
C5 N1 1_555 1_555
C10 N2 1_555 1_555
C14 C15 1_555 1_555
C14 N3 1_555 1_555
C21 C22 1_555 1_555
C23 O2 1_555 1_555
O5 Co1A 1_555 1_555
C25 N4 1_555 1_555
C26 N4 1_555 1_555

#END
