
#######################################################################
#
#                 Cambridge Crystallographic Data Centre
#                                CCDC 
#
#######################################################################
#
# If this CIF has been generated from an entry in the Cambridge 
# Structural Database, then it will include bibliographic, chemical, 
# crystal, experimental, refinement or atomic coordinate data resulting 
# from the CCDC's data processing and validation procedures.
#
#######################################################################

data_DIRMIC
_symmetry_cell_setting           triclinic
_symmetry_space_group_name_H-M   'P -1'
_symmetry_Int_Tables_number      2
_space_group_name_Hall           '-P 1'
loop_
_symmetry_equiv_pos_site_id
_symmetry_equiv_pos_as_xyz
1 x,y,z
2 -x,-y,-z
_cell_length_a                   11.7024(15)
_cell_length_b                   18.389(2)
_cell_length_c                   20.506(3)
_cell_angle_alpha                113.8660(10)
_cell_angle_beta                 101.406(2)
_cell_angle_gamma                95.164(2)
_cell_volume                     3883.98
loop_
_atom_site_label
_atom_site_type_symbol
_atom_site_fract_x
_atom_site_fract_y
_atom_site_fract_z
Co1 Co 1.72552(3) 0.640174(19) -0.309940(19)
Co2 Co 1.73152(3) 0.860276(19) -0.213525(19)
Co3 Co 0.84727(3) 0.759541(19) 0.190785(19)
Co4 Co 0.63455(3) 0.741257(19) 0.294531(19)
C1 C -0.2213(2) 0.76445(15) 0.63461(14)
C2 C -0.1393(2) 0.78575(15) 0.59385(14)
C3 C -0.1214(3) 0.72844(17) 0.52994(16)
H1 H -0.1620 0.6753 0.5104
C4 C -0.0445(3) 0.74891(17) 0.49495(16)
H2 H -0.0347 0.7095 0.4515
C5 C 0.0190(2) 0.82698(15) 0.52295(14)
C6 C 0.0038(3) 0.88377(17) 0.58856(17)
H3 H 0.0476 0.9362 0.6097
C7 C -0.0754(3) 0.86337(16) 0.62286(17)
H4 H -0.0858 0.9026 0.6662
C8 C 0.1066(2) 0.84956(15) 0.48773(14)
C9 C 0.1564(2) 0.79140(16) 0.43983(15)
H5 H 0.1329 0.7371 0.4284
C10 C 0.1474(2) 0.92952(15) 0.50375(14)
H6 H 0.1155 0.9705 0.5345
C11 C 0.2361(2) 0.94839(15) 0.47394(14)
C12 C 0.2406(2) 0.81346(15) 0.40895(15)
C13 C 0.2946(3) 0.75062(15) 0.35872(15)
C14 C 0.2498(3) 0.66885(17) 0.3321(2)
H7 H 0.1806 0.6520 0.3421
C15 C 0.3079(3) 0.61229(17) 0.2908(2)
H8 H 0.2793 0.5572 0.2735
C16 C 0.4080(3) 0.63854(15) 0.27571(16)
H9 H 0.4467 0.6002 0.2477
C17 C 0.3954(2) 0.77121(15) 0.33962(14)
H10 H 0.4252 0.8259 0.3556
C18 C 0.3415(3) 1.05757(16) 0.45064(15)
H11 H 0.3506 1.0188 0.4066
C19 C 0.3830(3) 1.13903(17) 0.47271(16)
H12 H 0.4171 1.1561 0.4428
C20 C 0.3727(3) 1.19440(17) 0.53979(16)
H13 H 0.3998 1.2490 0.5539
C21 C 0.2861(2) 1.03453(15) 0.49513(14)
C22 C 0.2819(2) 1.09507(15) 0.56167(14)
H14 H 0.2460 1.0800 0.5921
C23 C 0.6721(2) 0.87275(14) 0.24617(14)
C24 C 0.6747(2) 0.96282(14) 0.27235(14)
C25 C 0.6260(2) 1.00615(15) 0.32939(16)
H15 H 0.5829 0.9787 0.3489
C26 C 0.6405(3) 1.08915(15) 0.35763(16)
H16 H 0.6075 1.1170 0.3962
C27 C 0.7033(2) 1.13206(14) 0.32971(14)
C28 C 0.7445(3) 1.08775(16) 0.26904(16)
H17 H 0.7813 1.1147 0.2466
C29 C 0.7320(3) 1.00511(16) 0.24153(16)
H18 H 0.7624 0.9771 0.2017
C30 C 0.7283(2) 1.22223(15) 0.36366(14)
C31 C 0.6628(3) 1.26763(15) 0.40928(15)
H19 H 0.6010 1.2417 0.4191
C32 C 0.6892(2) 1.35154(14) 0.44036(14)
C33 C 0.8391(2) 1.34860(15) 0.38237(15)
C34 C 0.8183(2) 1.26467(15) 0.35118(15)
H20 H 0.8654 1.2368 0.3217
C35 C 0.9295(2) 1.39500(15) 0.36529(15)
C36 C 1.0224(2) 1.36196(16) 0.33944(15)
H21 H 1.0284 1.3102 0.3350
C37 C 0.9235(3) 1.47298(17) 0.37295(19)
H22 H 0.8648 1.4987 0.3921
C38 C 1.0045(3) 1.51170(17) 0.35219(19)
H23 H 1.0006 1.5635 0.3561
C39 C 1.0917(3) 1.47293(17) 0.32548(17)
H24 H 1.1447 1.4992 0.3101
C40 C 0.6249(2) 1.40053(14) 0.49316(14)
C41 C 0.6793(2) 1.47832(15) 0.54566(15)
H25 H 0.7533 1.4993 0.5438
C42 C 0.5136(3) 1.37121(16) 0.49490(16)
H26 H 0.4731 1.3199 0.4602
C43 C 0.4624(3) 1.41832(17) 0.54835(17)
H27 H 0.3872 1.3994 0.5502
C44 C 0.5248(3) 1.49404(16) 0.59912(16)
H28 H 0.4902 1.5251 0.6356
C45 C 1.5262(2) 0.72744(15) -0.25451(14)
C46 C 1.4255(2) 0.70532(14) -0.22540(13)
C47 C 1.4043(2) 0.62908(15) -0.22645(16)
H29 H 1.4510 0.5916 -0.2461
C48 C 1.3153(2) 0.60859(16) -0.19877(15)
H30 H 1.3045 0.5581 -0.1983
C49 C 1.2410(2) 0.66175(15) -0.17148(14)
C50 C 1.2622(3) 0.73801(16) -0.17101(16)
H31 H 1.2132 0.7746 -0.1536
C51 C 1.3544(2) 0.75964(16) -0.19597(15)
H32 H 1.3692 0.8116 -0.1930
C52 C 1.1449(2) 0.63841(15) -0.14187(14)
C53 C 1.0996(2) 0.55819(15) -0.16106(14)
H33 H 1.1249 0.5170 -0.1963
C54 C 1.0165(2) 0.53922(15) -0.12784(14)
C55 C 1.0117(2) 0.67370(15) -0.06290(15)
C56 C 1.0996(2) 0.69691(15) -0.09116(15)
H34 H 1.1282 0.7516 -0.0762
C57 C 0.9648(2) 0.73629(15) -0.00781(15)
C58 C 0.9163(2) 0.71926(15) 0.04177(15)
H35 H 0.9074 0.6664 0.0368
C59 C 0.8913(3) 0.84976(16) 0.10106(17)
H36 H 0.8684 0.8893 0.1389
C60 C 0.9339(3) 0.87111(17) 0.05227(18)
H37 H 0.9372 0.9236 0.0564
C61 C 0.9714(3) 0.81450(16) -0.00253(17)
H38 H 1.0011 0.8281 -0.0358
C62 C 0.9748(2) 0.45358(15) -0.14314(15)
C63 C 1.0406(2) 0.39506(15) -0.16964(15)
H39 H 1.1106 0.4106 -0.1796
C64 C 0.9090(3) 0.29505(17) -0.17125(17)
H40 H 0.8845 0.2409 -0.1825
C65 C 0.8369(3) 0.34914(18) -0.1439(2)
H41 H 0.7661 0.3316 -0.1359
C66 C 0.8706(3) 0.42952(17) -0.12833(18)
H42 H 0.8242 0.4670 -0.1083
C67 C 1.6408(2) 1.62017(14) 0.13874(14)
C68 C 1.6006(2) 1.52973(14) 0.09169(14)
C69 C 1.6735(3) 1.48512(15) 0.05145(15)
H43 H 1.7429 1.5119 0.0492
C70 C 1.6442(3) 1.40187(15) 0.01502(15)
H44 H 1.6957 1.3732 -0.0100
C71 C 1.5389(2) 1.35970(14) 0.01490(14)
C72 C 1.4632(3) 1.40496(15) 0.05174(15)
H45 H 1.3906 1.3787 0.0506
C73 C 1.4941(2) 1.48847(15) 0.09013(15)
H46 H 1.4428 1.5173 0.1152
C74 C 1.5129(2) 1.26974(15) -0.01964(14)
C75 C 1.5620(2) 1.22491(15) -0.07624(14)
H47 H 1.6071 1.2511 -0.0958
C76 C 1.5442(2) 1.14125(15) -0.10364(14)
C77 C 1.4285(2) 1.14246(15) -0.02484(14)
C78 C 1.4435(2) 1.22686(15) 0.00584(14)
H48 H 1.4075 1.2542 0.0430
C79 C 1.6023(2) 1.09250(14) -0.16095(14)
C80 C 1.6136(2) 1.01379(15) -0.17204(14)
H49 H 1.5761 0.9911 -0.1468
C81 C 1.7243(3) 1.00184(16) -0.25445(16)
H50 H 1.7684 0.9720 -0.2852
C82 C 1.7133(3) 1.07765(16) -0.25009(16)
H51 H 1.7468 1.0975 -0.2785
C83 C 1.6514(3) 1.12326(16) -0.20261(15)
H52 H 1.6428 1.1746 -0.1987
C84 C 1.3558(2) 1.09425(15) 0.00099(14)
C85 C 1.3322(2) 1.12871(15) 0.06935(14)
H53 H 1.3648 1.1831 0.0995
C86 C 1.3091(3) 1.01266(16) -0.04246(16)
H54 H 1.3259 0.9860 -0.0878
C87 C 1.2377(3) 0.97169(17) -0.01774(16)
H55 H 1.2039 0.9173 -0.0469
C88 C 1.2164(3) 1.01130(16) 0.05026(16)
H56 H 1.1662 0.9832 0.0657
C89 C 0.7453(3) 0.61160(18) 0.32450(17)
H57 H 0.7361 0.5675 0.3357
C90 C 1.0010(3) 0.90616(16) 0.31995(17)
H58 H 1.0623 0.9508 0.3386
C91 C 1.7143(3) 0.61547(17) -0.17485(17)
H59 H 1.7005 0.5802 -0.1539
C92 C 2.0010(3) 0.90008(18) -0.17914(18)
H60 H 2.0674 0.9372 -0.1716
N1 N 0.4528(2) 0.71685(12) 0.29936(12)
N2 N 0.3260(2) 1.17390(12) 0.58560(12)
N3 N 0.8812(2) 0.77474(13) 0.09675(13)
N4 N 1.6747(2) 0.96893(12) -0.21667(12)
N5 N 0.6319(2) 1.52522(12) 0.59894(12)
N6 N 1.1046(2) 1.39987(12) 0.32039(13)
N7 N 1.2654(2) 1.08901(12) 0.09526(12)
N8 N 1.0124(2) 0.31741(12) -0.18229(13)
N9 N 0.2819(2) 0.89158(12) 0.42617(12)
N10 N 0.7757(2) 1.39220(12) 0.42713(12)
N11 N 1.4787(2) 1.09991(12) -0.07826(12)
N12 N 0.9718(2) 0.59564(12) -0.07959(12)
O1 O -0.24570(16) 0.69145(10) 0.62140(10)
O2 O -0.25651(18) 0.82215(11) 0.67916(10)
O3 O 1.56396(16) 0.67010(10) -0.29713(10)
O4 O 1.56404(15) 0.80206(10) -0.23211(10)
O5 O 0.61225(16) 0.83872(10) 0.27446(10)
O6 O 0.73263(17) 0.84127(10) 0.20215(10)
O7 O 1.58539(17) 1.65270(10) 0.18621(10)
O8 O 1.72920(16) 1.65353(10) 0.12833(10)
O9 O 0.81871(16) 0.75693(10) 0.29156(10)
O10 O 1.80429(16) 0.75503(9) -0.21177(10)
O11 O 0.8369(2) 0.62343(14) 0.30600(14)
O12 O 0.66357(19) 0.65102(11) 0.33014(12)
O13 O 0.94158(19) 0.90391(12) 0.36284(11)
O14 O 0.98959(17) 0.85629(11) 0.25471(11)
O15 O 1.71859(18) 0.58314(11) -0.24093(11)
O16 O 1.7260(2) 0.68828(12) -0.13402(11)
O17 O 1.90565(17) 0.92489(11) -0.18084(12)
O18 O 2.0188(2) 0.83250(14) -0.18623(17)
Co1_2 Co -0.27448(3) 0.640174(19) 0.690060(19)
Co1_3 Co 0.72552(3) 1.640174(19) 0.690060(19)
Co1A Co 1.27448(3) 1.359826(19) 0.309940(19)
Co2_2 Co -0.26848(3) 0.860276(19) 0.786475(19)
Co2A Co 1.26848(3) 1.139724(19) 0.213525(19)
Co3_2 Co 1.84727(3) 1.759541(19) 0.190785(19)
Co3A Co 1.15273(3) 0.240459(19) -0.190785(19)
Co4_2 Co 1.63455(3) 1.741257(19) 0.294531(19)
Co4A Co 0.36545(3) 1.258743(19) 0.705469(19)
N2A N 0.6740(2) 0.82610(12) 0.41440(12)
N5_2 N 1.6319(2) 0.52522(12) -0.40106(12)
N6A N 1.8954(2) 0.60013(12) -0.32039(13)
N7A N 1.7346(2) 0.91099(12) -0.09526(12)
N8A N 0.9876(2) 0.68259(12) 0.18229(13)
O1_2 O 1.75430(16) 0.69145(10) -0.37860(10)
O2_2 O 1.74349(18) 0.82215(11) -0.32084(10)
O7_2 O 0.58539(17) 0.65270(10) 0.18621(10)
O8_2 O 0.72920(16) 0.65353(10) 0.12833(10)
loop_
_geom_bond_atom_site_label_1
_geom_bond_atom_site_label_2
_geom_bond_site_symmetry_1
_geom_bond_site_symmetry_2
Co1 O3 1_555 1_555
Co2 N4 1_555 1_555
Co3 N3 1_555 1_555
Co4 N1 1_555 1_555
C1 C2 1_555 1_555
C2 C3 1_555 1_555
C3 H1 1_555 1_555
C4 C3 1_555 1_555
H2 C4 1_555 1_555
C5 C4 1_555 1_555
C6 C5 1_555 1_555
H3 C6 1_555 1_555
C7 C2 1_555 1_555
H4 C7 1_555 1_555
C8 C5 1_555 1_555
C9 C8 1_555 1_555
H5 C9 1_555 1_555
C10 C8 1_555 1_555
H6 C10 1_555 1_555
C11 C10 1_555 1_555
C12 C9 1_555 1_555
C13 C12 1_555 1_555
C14 C13 1_555 1_555
H7 C14 1_555 1_555
C15 C14 1_555 1_555
H8 C15 1_555 1_555
C16 C15 1_555 1_555
H9 C16 1_555 1_555
C17 C13 1_555 1_555
H10 C17 1_555 1_555
C18 H11 1_555 1_555
C19 C18 1_555 1_555
H12 C19 1_555 1_555
C20 C19 1_555 1_555
H13 C20 1_555 1_555
C21 C11 1_555 1_555
C22 C21 1_555 1_555
H14 C22 1_555 1_555
C23 C24 1_555 1_555
C24 C25 1_555 1_555
C25 H15 1_555 1_555
C26 C25 1_555 1_555
H16 C26 1_555 1_555
C27 C26 1_555 1_555
C28 C27 1_555 1_555
H17 C28 1_555 1_555
C29 C24 1_555 1_555
H18 C29 1_555 1_555
C30 C27 1_555 1_555
C31 C30 1_555 1_555
H19 C31 1_555 1_555
C32 C31 1_555 1_555
C33 C34 1_555 1_555
C34 C30 1_555 1_555
H20 C34 1_555 1_555
C35 C33 1_555 1_555
C36 C35 1_555 1_555
H21 C36 1_555 1_555
C37 C35 1_555 1_555
H22 C37 1_555 1_555
C38 C37 1_555 1_555
H23 C38 1_555 1_555
C39 C38 1_555 1_555
H24 C39 1_555 1_555
C40 C32 1_555 1_555
C41 C40 1_555 1_555
H25 C41 1_555 1_555
C42 C40 1_555 1_555
H26 C42 1_555 1_555
C43 C42 1_555 1_555
H27 C43 1_555 1_555
C44 C43 1_555 1_555
H28 C44 1_555 1_555
C45 C46 1_555 1_555
C46 C47 1_555 1_555
C47 H29 1_555 1_555
C48 C47 1_555 1_555
H30 C48 1_555 1_555
C49 C48 1_555 1_555
C50 C49 1_555 1_555
H31 C50 1_555 1_555
C51 C46 1_555 1_555
H32 C51 1_555 1_555
C52 C49 1_555 1_555
C53 C52 1_555 1_555
H33 C53 1_555 1_555
C54 C53 1_555 1_555
C55 C56 1_555 1_555
C56 C52 1_555 1_555
H34 C56 1_555 1_555
C57 C55 1_555 1_555
C58 C57 1_555 1_555
H35 C58 1_555 1_555
C59 H36 1_555 1_555
C60 C59 1_555 1_555
H37 C60 1_555 1_555
C61 C57 1_555 1_555
H38 C61 1_555 1_555
C62 C54 1_555 1_555
C63 C62 1_555 1_555
H39 C63 1_555 1_555
C64 H40 1_555 1_555
C65 C64 1_555 1_555
H41 C65 1_555 1_555
C66 C62 1_555 1_555
H42 C66 1_555 1_555
C67 C68 1_555 1_555
C68 C69 1_555 1_555
C69 H43 1_555 1_555
C70 C69 1_555 1_555
H44 C70 1_555 1_555
C71 C70 1_555 1_555
C72 C71 1_555 1_555
H45 C72 1_555 1_555
C73 C68 1_555 1_555
H46 C73 1_555 1_555
C74 C71 1_555 1_555
C75 C74 1_555 1_555
H47 C75 1_555 1_555
C76 C75 1_555 1_555
C77 C78 1_555 1_555
C78 C74 1_555 1_555
H48 C78 1_555 1_555
C79 C76 1_555 1_555
C80 C79 1_555 1_555
H49 C80 1_555 1_555
C81 H50 1_555 1_555
C82 C81 1_555 1_555
H51 C82 1_555 1_555
C83 C79 1_555 1_555
H52 C83 1_555 1_555
C84 C77 1_555 1_555
C85 C84 1_555 1_555
H53 C85 1_555 1_555
C86 C84 1_555 1_555
H54 C86 1_555 1_555
C87 C86 1_555 1_555
H55 C87 1_555 1_555
C88 C87 1_555 1_555
H56 C88 1_555 1_555
C89 H57 1_555 1_555
C90 H58 1_555 1_555
C91 H59 1_555 1_555
C92 H60 1_555 1_555
N1 C16 1_555 1_555
N2 C20 1_555 1_555
N3 C58 1_555 1_555
N4 C80 1_555 1_555
N5 C41 1_555 1_555
N6 C36 1_555 1_555
N7 C85 1_555 1_555
N8 C63 1_555 1_555
N9 C11 1_555 1_555
N10 C32 1_555 1_555
N11 C76 1_555 1_555
N12 C54 1_555 1_555
O1 C1 1_555 1_555
O2 C1 1_555 1_555
O3 C45 1_555 1_555
O4 Co2 1_555 1_555
O5 Co4 1_555 1_555
O6 Co3 1_555 1_555
O7 C67 1_555 1_555
O8 C67 1_555 1_555
O9 Co3 1_555 1_555
O10 Co1 1_555 1_555
O11 C89 1_555 1_555
O12 Co4 1_555 1_555
O13 C90 1_555 1_555
O14 Co3 1_555 1_555
O15 Co1 1_555 1_555
O16 C91 1_555 1_555
O17 Co2 1_555 1_555
O18 C92 1_555 1_555
Co1_2 O1 1_555 1_555
Co1_3 N5 1_555 1_555
Co1A N6 1_555 1_555
Co2_2 O2 1_555 1_555
Co2A N7 1_555 1_555
Co3_2 O8 1_555 1_555
Co3A N8 1_555 1_555
Co4_2 O7 1_555 1_555
Co4A N2 1_555 1_555
N2A Co4 1_555 1_555
N5_2 Co1 1_555 1_555
N6A Co1 1_555 1_555
N7A Co2 1_555 1_555
N8A Co3 1_555 1_555
O1_2 Co1 1_555 1_555
O2_2 Co2 1_555 1_555
O7_2 Co4 1_555 1_555
O8_2 Co3 1_555 1_555
Co2 O10 1_555 1_555
Co4 O9 1_555 1_555
C6 C7 1_555 1_555
C12 N9 1_555 1_555
C17 N1 1_555 1_555
C18 C21 1_555 1_555
C22 N2 1_555 1_555
C23 O5 1_555 1_555
C23 O6 1_555 1_555
C28 C29 1_555 1_555
C33 N10 1_555 1_555
C39 N6 1_555 1_555
C44 N5 1_555 1_555
C45 O4 1_555 1_555
C50 C51 1_555 1_555
C55 N12 1_555 1_555
C59 N3 1_555 1_555
C60 C61 1_555 1_555
C64 N8 1_555 1_555
C65 C66 1_555 1_555
C72 C73 1_555 1_555
C77 N11 1_555 1_555
C81 N4 1_555 1_555
C82 C83 1_555 1_555
C88 N7 1_555 1_555
C89 O12 1_555 1_555
C90 O14 1_555 1_555
C91 O15 1_555 1_555
C92 O17 1_555 1_555

#END
