
#######################################################################
#
#                 Cambridge Crystallographic Data Centre
#                                CCDC 
#
#######################################################################
#
# If this CIF has been generated from an entry in the Cambridge 
# Structural Database, then it will include bibliographic, chemical, 
# crystal, experimental, refinement or atomic coordinate data resulting 
# from the CCDC's data processing and validation procedures.
#
#######################################################################

data_DIRMEY
_symmetry_cell_setting           orthorhombic
_symmetry_space_group_name_H-M   'P n n a'
_symmetry_Int_Tables_number      52
_space_group_name_Hall           '-P 2a 2bc'
loop_
_symmetry_equiv_pos_site_id
_symmetry_equiv_pos_as_xyz
1 x,y,z
2 1/2-x,-y,z
3 1/2-x,1/2+y,1/2-z
4 x,1/2-y,1/2-z
5 -x,-y,-z
6 1/2+x,y,-z
7 1/2+x,1/2-y,1/2+z
8 -x,1/2+y,1/2+z
_cell_length_a                   16.7661(15)
_cell_length_b                   14.0696(13)
_cell_length_c                   20.4444(19)
_cell_angle_alpha                90
_cell_angle_beta                 90
_cell_angle_gamma                90
_cell_volume                     4822.68
loop_
_atom_site_label
_atom_site_type_symbol
_atom_site_fract_x
_atom_site_fract_y
_atom_site_fract_z
O1 O 0.4955(19) 0.309(3) 0.774(2)
C1 C 0.453(4) 0.362(4) 0.824(2)
H1 H 0.5291 0.2859 0.7504
C2 C 0.3785(15) 0.284(2) 0.8210(12)
O2 O 0.668(2) 0.2500 0.7500
C3 C 0.2085(2) 0.3769(3) 0.76403(18)
H2 H 0.2637 0.3707 0.7661
C4 C 0.1632(2) 0.3333(3) 0.81144(18)
H3 H 0.1879 0.2988 0.8446
C5 C 0.0809(2) 0.3408(3) 0.80984(17)
C6 C 0.0487(2) 0.3905(3) 0.7571(2)
H4 H -0.0064 0.3951 0.7523
C7 C 0.0981(2) 0.4326(3) 0.7123(2)
H5 H 0.0751 0.4663 0.6780
C8 C 0.0317(2) 0.3002(3) 0.86297(17)
C9 C -0.0478(2) 0.3235(3) 0.87119(18)
H6 H -0.0735 0.3611 0.8403
C10 C -0.0894(2) 0.2907(3) 0.92543(19)
C11 C -0.0488(2) 0.2326(3) 0.96913(19)
H7 H -0.0748 0.2085 1.0057
C12 C 0.0309(2) 0.2106(3) 0.95788(18)
C13 C 0.0790(2) 0.1557(3) 1.00559(18)
C14 C 0.0473(2) 0.1067(4) 1.0573(2)
H8 H -0.0078 0.1034 1.0624
C15 C 0.0965(3) 0.0623(5) 1.1018(2)
H9 H 0.0734 0.0286 1.1361
C16 C 0.2063(2) 0.1099(3) 1.0459(2)
H10 H 0.2614 0.1110 1.0411
C17 C 0.1608(2) 0.1537(3) 0.9994(2)
H11 H 0.1850 0.1822 0.9634
C18 C -0.1717(2) 0.3244(3) 0.93902(19)
C19 C -0.2251(2) 0.3398(3) 0.8882(2)
H12 H -0.2108 0.3253 0.8454
C20 C -0.3006(3) 0.3773(4) 0.9018(2)
H13 H -0.3366 0.3880 0.8679
C21 C -0.3218(2) 0.3983(3) 0.9651(2)
C22 C -0.2693(3) 0.3824(3) 1.0155(2)
H14 H -0.2837 0.3970 1.0583
C23 C -0.1946(2) 0.3445(3) 1.0024(2)
H15 H -0.1596 0.3326 1.0367
C24 C -0.4010(3) 0.4421(4) 0.9801(3)
Cl1 Cl 0.17039(7) 0.60052(11) 0.59924(6)
Cl2 Cl 0.32883(9) 0.10287(14) 1.21545(8)
N1 N 0.17714(17) 0.4277(2) 0.71529(14)
N2 N 0.17568(18) 0.0657(3) 1.09776(16)
N3 N 0.07049(17) 0.2438(2) 0.90531(14)
O3 O -0.4488(2) 0.4518(3) 0.93195(19)
H16 H -0.4903 0.4766 0.9447
O4 O -0.41658(19) 0.4654(3) 1.03732(18)
Zn1 Zn 0.2500 0.5000 0.65135(3)
Zn2 Zn 0.2500 0.0000 1.16416(3)
C3A C 0.2915(2) -0.3769(3) 0.76403(18)
H2A H 0.2363 -0.3707 0.7661
C4A C 0.3368(2) -0.3333(3) 0.81144(18)
H3A H 0.3121 -0.2988 0.8446
C5A C 0.4191(2) -0.3408(3) 0.80984(17)
C6A C 0.4513(2) -0.3905(3) 0.7571(2)
H4A H 0.5064 -0.3951 0.7523
C7A C 0.4019(2) -0.4326(3) 0.7123(2)
H5A H 0.4249 -0.4663 0.6780
C8A C 0.4683(2) -0.3002(3) 0.86297(17)
C9A C 0.5478(2) -0.3235(3) 0.87119(18)
H6A H 0.5735 -0.3611 0.8403
C10A C 0.5894(2) -0.2907(3) 0.92543(19)
C11A C 0.5488(2) -0.2326(3) 0.96913(19)
H7A H 0.5748 -0.2085 1.0057
C12A C 0.4691(2) -0.2106(3) 0.95788(18)
C13A C 0.4210(2) -0.1557(3) 1.00559(18)
C14A C 0.4527(2) -0.1067(4) 1.0573(2)
H8A H 0.5078 -0.1034 1.0624
C15A C 0.4035(3) -0.0623(5) 1.1018(2)
H9A H 0.4266 -0.0286 1.1361
C16A C 0.2937(2) -0.1099(3) 1.0459(2)
H10A H 0.2386 -0.1110 1.0411
C17A C 0.3392(2) -0.1537(3) 0.9994(2)
H11A H 0.3150 -0.1822 0.9634
C18A C 0.6717(2) -0.3244(3) 0.93902(19)
C19A C 0.7251(2) -0.3398(3) 0.8882(2)
H12A H 0.7108 -0.3253 0.8454
C20A C 0.8006(3) -0.3773(4) 0.9018(2)
H13A H 0.8366 -0.3880 0.8679
C21A C 0.8218(2) -0.3983(3) 0.9651(2)
C22A C 0.7693(3) -0.3824(3) 1.0155(2)
H14A H 0.7837 -0.3970 1.0583
C23A C 0.6946(2) -0.3445(3) 1.0024(2)
H15A H 0.6596 -0.3326 1.0367
C24A C 0.9010(3) -0.4421(4) 0.9801(3)
Cl2A Cl 0.17117(9) -0.10287(14) 1.21545(8)
N1A N 0.32286(17) -0.4277(2) 0.71529(14)
N2A N 0.32432(18) -0.0657(3) 1.09776(16)
N3A N 0.42951(17) -0.2438(2) 0.90531(14)
O3A O 0.9488(2) -0.4518(3) 0.93195(19)
H16A H 0.9903 -0.4766 0.9447
O4A O 0.91658(19) -0.4654(3) 1.03732(18)
Cl1A Cl 0.32961(7) 0.39948(11) 0.59924(6)
N1A_2 N 0.32286(17) 0.5723(2) 0.71529(14)
Zn1_2 Zn 0.2500 -0.5000 0.65135(3)
loop_
_geom_bond_atom_site_label_1
_geom_bond_atom_site_label_2
_geom_bond_site_symmetry_1
_geom_bond_site_symmetry_2
O1 C1 1_555 1_555
C1 C2 1_555 1_555
H1 O1 1_555 1_555
C3 H2 1_555 1_555
C4 C3 1_555 1_555
H3 C4 1_555 1_555
C5 C4 1_555 1_555
C6 C5 1_555 1_555
H4 C6 1_555 1_555
C7 C6 1_555 1_555
H5 C7 1_555 1_555
C8 C5 1_555 1_555
C9 C8 1_555 1_555
H6 C9 1_555 1_555
C10 C9 1_555 1_555
C11 C10 1_555 1_555
H7 C11 1_555 1_555
C12 C11 1_555 1_555
C13 C12 1_555 1_555
C14 C13 1_555 1_555
H8 C14 1_555 1_555
C15 C14 1_555 1_555
H9 C15 1_555 1_555
C16 H10 1_555 1_555
C17 C13 1_555 1_555
H11 C17 1_555 1_555
C18 C10 1_555 1_555
C19 C18 1_555 1_555
H12 C19 1_555 1_555
C20 C19 1_555 1_555
H13 C20 1_555 1_555
C21 C20 1_555 1_555
C22 C21 1_555 1_555
H14 C22 1_555 1_555
C23 C18 1_555 1_555
H15 C23 1_555 1_555
C24 C21 1_555 1_555
Cl1 Zn1 1_555 1_555
Cl2 Zn2 1_555 1_555
N1 C3 1_555 1_555
N2 C15 1_555 1_555
N3 C8 1_555 1_555
O3 C24 1_555 1_555
H16 O3 1_555 1_555
O4 C24 1_555 1_555
Zn1 N1 1_555 1_555
Zn2 N2 1_555 1_555
C3A H2A 1_555 1_555
C4A C3A 1_555 1_555
H3A C4A 1_555 1_555
C5A C4A 1_555 1_555
C6A C5A 1_555 1_555
H4A C6A 1_555 1_555
C7A C6A 1_555 1_555
H5A C7A 1_555 1_555
C8A C5A 1_555 1_555
C9A C8A 1_555 1_555
H6A C9A 1_555 1_555
C10A C9A 1_555 1_555
C11A C10A 1_555 1_555
H7A C11A 1_555 1_555
C12A C11A 1_555 1_555
C13A C12A 1_555 1_555
C14A C13A 1_555 1_555
H8A C14A 1_555 1_555
C15A C14A 1_555 1_555
H9A C15A 1_555 1_555
C16A H10A 1_555 1_555
C17A C13A 1_555 1_555
H11A C17A 1_555 1_555
C18A C10A 1_555 1_555
C19A C18A 1_555 1_555
H12A C19A 1_555 1_555
C20A C19A 1_555 1_555
H13A C20A 1_555 1_555
C21A C20A 1_555 1_555
C22A C21A 1_555 1_555
H14A C22A 1_555 1_555
C23A C18A 1_555 1_555
H15A C23A 1_555 1_555
C24A C21A 1_555 1_555
Cl2A Zn2 1_555 1_555
N1A C3A 1_555 1_555
N2A Zn2 1_555 1_555
N3A C8A 1_555 1_555
O3A C24A 1_555 1_555
H16A O3A 1_555 1_555
O4A C24A 1_555 1_555
Cl1A Zn1 1_555 1_555
N1A_2 Zn1 1_555 1_555
Zn1_2 N1A 1_555 1_555
C7 N1 1_555 1_555
C12 N3 1_555 1_555
C16 C17 1_555 1_555
C16 N2 1_555 1_555
C22 C23 1_555 1_555
C7A N1A 1_555 1_555
C12A N3A 1_555 1_555
C15A N2A 1_555 1_555
C16A C17A 1_555 1_555
C16A N2A 1_555 1_555
C22A C23A 1_555 1_555

#END
