
#######################################################################
#
#                 Cambridge Crystallographic Data Centre
#                                CCDC 
#
#######################################################################
#
# If this CIF has been generated from an entry in the Cambridge 
# Structural Database, then it will include bibliographic, chemical, 
# crystal, experimental, refinement or atomic coordinate data resulting 
# from the CCDC's data processing and validation procedures.
#
#######################################################################

data_DIRNEX10
_symmetry_cell_setting           orthorhombic
_symmetry_space_group_name_H-M   'P b c m'
_symmetry_Int_Tables_number      57
_space_group_name_Hall           '-P 2c 2b'
loop_
_symmetry_equiv_pos_site_id
_symmetry_equiv_pos_as_xyz
1 x,y,z
2 -x,-y,1/2+z
3 x,1/2-y,-z
4 -x,1/2+y,1/2-z
5 -x,-y,-z
6 x,y,1/2-z
7 -x,1/2+y,z
8 x,1/2-y,1/2+z
_cell_length_a                   6.009(1)
_cell_length_b                   12.729(2)
_cell_length_c                   14.243(2)
_cell_angle_alpha                90
_cell_angle_beta                 90
_cell_angle_gamma                90
_cell_volume                     1089.43
loop_
_atom_site_label
_atom_site_type_symbol
_atom_site_fract_x
_atom_site_fract_y
_atom_site_fract_z
Ti1 Ti 0.15736(5) 0.47353(2) 0.25000
Cl1 Cl 0.41551(8) 0.34378(3) 0.25000
Cl2 Cl -0.03936(5) 0.41184(3) 0.12970(2)
Cl3 Cl -0.00616(9) 0.63354(3) 0.25000
N1 N 0.3864(2) 0.5498(1) 0.1520(1)
C1 C 0.5017(2) 0.6004(1) 0.1080(1)
C2 C 0.6396(2) 0.6712(1) 0.0514(1)
C3 C 0.49659(4) 0.75000 0.00000
H1 H 0.759(2) 0.704(1) 0.089(1)
H2 H 0.718(2) 0.633(1) 0.005(1)
H3 H 0.401(2) 0.723(1) -0.038(1)
Cl2E Cl -0.03936(5) 0.41184(3) 0.37030(2)
N1E N 0.3864(2) 0.5498(1) 0.3480(1)
C2B C 0.6396(2) 0.8288(1) -0.0514(1)
H3B H 0.401(2) 0.777(1) 0.038(1)
C1E C 0.5017(2) 0.6004(1) 0.3920(1)
C1B C 0.5017(2) 0.8996(1) -0.1080(1)
H1B H 0.759(2) 0.796(1) -0.089(1)
H2B H 0.718(2) 0.867(1) -0.005(1)
C2E C 0.6396(2) 0.6712(1) 0.4486(1)
N1B N 0.3864(2) 0.9502(1) -0.1520(1)
C3E C 0.49659(4) 0.75000 0.50000
H1E H 0.759(2) 0.704(1) 0.411(1)
H2E H 0.718(2) 0.633(1) 0.495(1)
Ti1B Ti 0.15736(5) 1.02647(2) -0.25000
C2G C 0.6396(2) 0.8288(1) 0.5514(1)
H3E H 0.401(2) 0.723(1) 0.538(1)
H3G H 0.401(2) 0.777(1) 0.462(1)
Cl1B Cl 0.41551(8) 1.15622(3) -0.25000
Cl2B Cl -0.03936(5) 1.08816(3) -0.12970(2)
Cl2G Cl -0.03936(5) 1.08816(3) -0.37030(2)
Cl3B Cl -0.00616(9) 0.86646(3) -0.25000
N1G N 0.3864(2) 0.9502(1) -0.3480(1)
C1G C 0.5017(2) 0.8996(1) 0.6080(1)
H1G H 0.759(2) 0.796(1) 0.589(1)
H2G H 0.718(2) 0.867(1) 0.505(1)
N1G_2 N 0.3864(2) 0.9502(1) 0.6520(1)
Ti1B_2 Ti 0.15736(5) 1.02647(2) 0.75000
loop_
_geom_bond_atom_site_label_1
_geom_bond_atom_site_label_2
_geom_bond_site_symmetry_1
_geom_bond_site_symmetry_2
Ti1 Cl1 1_555 1_555
Cl2 Ti1 1_555 1_555
Cl3 Ti1 1_555 1_555
N1 Ti1 1_555 1_555
C1 N1 1_555 1_555
C2 C1 1_555 1_555
C3 C2 1_555 1_555
H1 C2 1_555 1_555
H2 C2 1_555 1_555
H3 C3 1_555 1_555
Cl2E Ti1 1_555 1_555
N1E Ti1 1_555 1_555
C2B C3 1_555 1_555
H3B C3 1_555 1_555
C1E N1E 1_555 1_555
C1B C2B 1_555 1_555
H1B C2B 1_555 1_555
H2B C2B 1_555 1_555
C2E C1E 1_555 1_555
N1B C1B 1_555 1_555
C3E C2E 1_555 1_555
H1E C2E 1_555 1_555
H2E C2E 1_555 1_555
Ti1B N1B 1_555 1_555
C2G C3E 1_555 1_555
H3E C3E 1_555 1_555
H3G C3E 1_555 1_555
Cl1B Ti1B 1_555 1_555
Cl2B Ti1B 1_555 1_555
Cl2G Ti1B 1_555 1_555
Cl3B Ti1B 1_555 1_555
N1G Ti1B 1_555 1_555
C1G C2G 1_555 1_555
H1G C2G 1_555 1_555
H2G C2G 1_555 1_555
N1G_2 C1G 1_555 1_555
Ti1B_2 N1G_2 1_555 1_555

#END
