
#######################################################################
#
#                 Cambridge Crystallographic Data Centre
#                                CCDC 
#
#######################################################################
#
# If this CIF has been generated from an entry in the Cambridge 
# Structural Database, then it will include bibliographic, chemical, 
# crystal, experimental, refinement or atomic coordinate data resulting 
# from the CCDC's data processing and validation procedures.
#
#######################################################################

data_DIRNAV
_symmetry_cell_setting           triclinic
_symmetry_space_group_name_H-M   'P -1'
_symmetry_Int_Tables_number      2
_space_group_name_Hall           '-P 1'
loop_
_symmetry_equiv_pos_site_id
_symmetry_equiv_pos_as_xyz
1 x,y,z
2 -x,-y,-z
_cell_length_a                   5.6921(2)
_cell_length_b                   13.3051(5)
_cell_length_c                   13.9862(6)
_cell_angle_alpha                64.365(4)
_cell_angle_beta                 80.711(3)
_cell_angle_gamma                86.393(3)
_cell_volume                     942.417
loop_
_atom_site_label
_atom_site_type_symbol
_atom_site_fract_x
_atom_site_fract_y
_atom_site_fract_z
Cu1 Cu 0.44425(9) 0.02729(4) 0.14008(4)
P1 P -0.07904(15) 0.10027(6) 0.22335(6)
P2 P 0.18548(15) 0.23064(6) -0.00114(6)
N1 N 0.4679(5) -0.1390(2) 0.2289(2)
O1 O 0.1164(4) 0.02105(16) 0.21279(16)
O2 O -0.3288(4) 0.06081(17) 0.23711(17)
O3 O 0.4165(4) 0.18511(16) 0.04191(17)
O4 O 0.0748(4) 0.17134(17) -0.05374(17)
O5 O 0.7148(5) 0.0215(2) 0.0336(2)
H1 H 0.797(7) -0.048(4) 0.054(3)
H2 H 0.808(8) 0.064(4) 0.012(4)
C1 C -0.0317(6) 0.2355(2) 0.1069(2)
H3 H -0.1851 0.2618 0.08
H4 H 0.0223 0.2901 0.1295
C2 C -0.0523(6) 0.1277(2) 0.3370(2)
C3 C 0.1507(6) 0.1769(3) 0.3427(3)
H5 H 0.2813 0.1957 0.2862
C4 C 0.1634(7) 0.1985(3) 0.4304(3)
H6 H 0.3016 0.2331 0.4331
C5 C -0.0244(7) 0.1699(3) 0.5137(3)
H7 H -0.0158 0.185 0.5735
C6 C -0.2240(7) 0.1193(3) 0.5097(3)
H8 H -0.352 0.0982 0.5675
C7 C -0.2389(6) 0.0990(3) 0.4209(2)
H9 H -0.3782 0.0652 0.4181
C8 C 0.2418(6) 0.3743(2) -0.0949(3)
C9 C 0.4320(7) 0.4326(3) -0.0940(4)
H10 H 0.5385 0.3965 -0.0436
C10 C 0.4694(8) 0.5432(3) -0.1656(4)
H11 H 0.6018 0.5822 -0.1638
C11 C 0.3193(8) 0.5975(3) -0.2388(3)
H12 H 0.3472 0.6734 -0.2881
C12 C 0.1268(9) 0.5404(3) -0.2399(3)
H13 H 0.0197 0.5771 -0.2898
C13 C 0.0896(8) 0.4293(3) -0.1681(3)
H14 H -0.0434 0.3905 -0.1695
C14 C 0.3032(7) -0.2113(3) 0.2370(3)
H15 H 0.1795 -0.1842 0.1941
C15 C 0.3063(7) -0.3236(3) 0.3052(3)
H16 H 0.1866 -0.3719 0.308
C16 C 0.4828(8) -0.3662(3) 0.3694(3)
C17 C 0.6556(8) -0.2912(3) 0.3584(3)
H17 H 0.7815 -0.3162 0.4001
C18 C 0.6451(7) -0.1809(3) 0.2874(3)
H18 H 0.7693 -0.1321 0.2793
C19 C 0.4879(12) -0.4879(3) 0.4473(3)
H19 H 0.3388 -0.5234 0.4488
H20 H 0.6211 -0.5235 0.4187
N1A N 0.5321(5) -0.8610(2) 0.7711(2)
C14A C 0.6968(7) -0.7887(3) 0.7630(3)
H15A H 0.8205 -0.8158 0.8059
C15A C 0.6937(7) -0.6764(3) 0.6948(3)
H16A H 0.8134 -0.6281 0.692
C16A C 0.5172(8) -0.6338(3) 0.6306(3)
C17A C 0.3444(8) -0.7088(3) 0.6416(3)
H17A H 0.2185 -0.6838 0.5999
C18A C 0.3549(7) -0.8191(3) 0.7126(3)
H18A H 0.2307 -0.8679 0.7207
C19A C 0.5121(12) -0.5121(3) 0.5527(3)
H19A H 0.6612 -0.4766 0.5512
H20A H 0.3789 -0.4765 0.5813
Cu1A Cu 0.55575(9) -1.02729(4) 0.85992(4)
P1A P 1.07904(15) -1.10027(6) 0.77665(6)
P2A P 0.81452(15) -1.23064(6) 1.00114(6)
O1A O 0.8836(4) -1.02105(16) 0.78721(16)
O2A O 1.3288(4) -1.06081(17) 0.76289(17)
O3A O 0.5835(4) -1.18511(16) 0.95809(17)
O4A O 0.9252(4) -1.17134(17) 1.05374(17)
O5A O 0.2852(5) -1.0215(2) 0.9664(2)
H1A H 0.203(7) -0.952(4) 0.946(3)
H2A H 0.192(8) -1.064(4) 0.988(4)
C1A C 1.0317(6) -1.2355(2) 0.8931(2)
H3A H 1.1851 -1.2618 0.92
H4A H 0.9777 -1.2901 0.8705
C2A C 1.0523(6) -1.1277(2) 0.6630(2)
C3A C 0.8493(6) -1.1769(3) 0.6573(3)
H5A H 0.7187 -1.1957 0.7138
C4A C 0.8366(7) -1.1985(3) 0.5696(3)
H6A H 0.6984 -1.2331 0.5669
C5A C 1.0244(7) -1.1699(3) 0.4863(3)
H7A H 1.0158 -1.185 0.4265
C6A C 1.2240(7) -1.1193(3) 0.4903(3)
H8A H 1.352 -1.0982 0.4325
C7A C 1.2389(6) -1.0990(3) 0.5791(2)
H9A H 1.3782 -1.0652 0.5819
C8A C 0.7582(6) -1.3743(2) 1.0949(3)
C9A C 0.5680(7) -1.4326(3) 1.0940(4)
H10A H 0.4615 -1.3965 1.0436
C10A C 0.5306(8) -1.5432(3) 1.1656(4)
H11A H 0.3982 -1.5822 1.1638
C11A C 0.6807(8) -1.5975(3) 1.2388(3)
H12A H 0.6528 -1.6734 1.2881
C12A C 0.8732(9) -1.5404(3) 1.2399(3)
H13A H 0.9803 -1.5771 1.2898
C13A C 0.9104(8) -1.4293(3) 1.1681(3)
H14A H 1.0434 -1.3905 1.1695
Cu1_2 Cu -0.55575(9) 0.02729(4) 0.14008(4)
Cu1A_2 Cu 1.55575(9) -1.02729(4) 0.85992(4)
O2_2 O 0.6712(4) 0.06081(17) 0.23711(17)
O2A_2 O 0.3288(4) -1.06081(17) 0.76289(17)
loop_
_geom_bond_atom_site_label_1
_geom_bond_atom_site_label_2
_geom_bond_site_symmetry_1
_geom_bond_site_symmetry_2
Cu1 N1 1_555 1_555
P1 O1 1_555 1_555
P2 O3 1_555 1_555
N1 C14 1_555 1_555
O1 Cu1 1_555 1_555
O2 P1 1_555 1_555
O3 Cu1 1_555 1_555
O4 P2 1_555 1_555
O5 Cu1 1_555 1_555
H1 O5 1_555 1_555
H2 O5 1_555 1_555
C1 P1 1_555 1_555
H3 C1 1_555 1_555
H4 C1 1_555 1_555
C2 P1 1_555 1_555
C3 C2 1_555 1_555
H5 C3 1_555 1_555
C4 C3 1_555 1_555
H6 C4 1_555 1_555
C5 C4 1_555 1_555
H7 C5 1_555 1_555
C6 C5 1_555 1_555
H8 C6 1_555 1_555
C7 C2 1_555 1_555
H9 C7 1_555 1_555
C8 P2 1_555 1_555
C9 C8 1_555 1_555
H10 C9 1_555 1_555
C10 C9 1_555 1_555
H11 C10 1_555 1_555
C11 C10 1_555 1_555
H12 C11 1_555 1_555
C12 C11 1_555 1_555
H13 C12 1_555 1_555
C13 C8 1_555 1_555
H14 C13 1_555 1_555
C14 H15 1_555 1_555
C15 C14 1_555 1_555
H16 C15 1_555 1_555
C16 C15 1_555 1_555
C17 C16 1_555 1_555
H17 C17 1_555 1_555
C18 N1 1_555 1_555
H18 C18 1_555 1_555
C19 C16 1_555 1_555
H19 C19 1_555 1_555
H20 C19 1_555 1_555
N1A C14A 1_555 1_555
C14A H15A 1_555 1_555
C15A C14A 1_555 1_555
H16A C15A 1_555 1_555
C16A C15A 1_555 1_555
C17A C16A 1_555 1_555
H17A C17A 1_555 1_555
C18A N1A 1_555 1_555
H18A C18A 1_555 1_555
C19A C19 1_555 1_555
H19A C19A 1_555 1_555
H20A C19A 1_555 1_555
Cu1A N1A 1_555 1_555
P1A O1A 1_555 1_555
P2A O3A 1_555 1_555
O1A Cu1A 1_555 1_555
O2A P1A 1_555 1_555
O3A Cu1A 1_555 1_555
O4A P2A 1_555 1_555
O5A Cu1A 1_555 1_555
H1A O5A 1_555 1_555
H2A O5A 1_555 1_555
C1A P1A 1_555 1_555
H3A C1A 1_555 1_555
H4A C1A 1_555 1_555
C2A P1A 1_555 1_555
C3A C2A 1_555 1_555
H5A C3A 1_555 1_555
C4A C3A 1_555 1_555
H6A C4A 1_555 1_555
C5A C4A 1_555 1_555
H7A C5A 1_555 1_555
C6A C5A 1_555 1_555
H8A C6A 1_555 1_555
C7A C2A 1_555 1_555
H9A C7A 1_555 1_555
C8A P2A 1_555 1_555
C9A C8A 1_555 1_555
H10A C9A 1_555 1_555
C10A C9A 1_555 1_555
H11A C10A 1_555 1_555
C11A C10A 1_555 1_555
H12A C11A 1_555 1_555
C12A C11A 1_555 1_555
H13A C12A 1_555 1_555
C13A C8A 1_555 1_555
H14A C13A 1_555 1_555
Cu1_2 O2 1_555 1_555
Cu1A_2 O2A 1_555 1_555
O2_2 Cu1 1_555 1_555
O2A_2 Cu1A 1_555 1_555
P2 C1 1_555 1_555
C6 C7 1_555 1_555
C12 C13 1_555 1_555
C17 C18 1_555 1_555
C16A C19A 1_555 1_555
C17A C18A 1_555 1_555
P2A C1A 1_555 1_555
C6A C7A 1_555 1_555
C12A C13A 1_555 1_555

#END
