
#######################################################################
#
#                 Cambridge Crystallographic Data Centre
#                                CCDC 
#
#######################################################################
#
# If this CIF has been generated from an entry in the Cambridge 
# Structural Database, then it will include bibliographic, chemical, 
# crystal, experimental, refinement or atomic coordinate data resulting 
# from the CCDC's data processing and validation procedures.
#
#######################################################################

data_DIRRUT
_symmetry_cell_setting           triclinic
_symmetry_space_group_name_H-M   'P -1'
_symmetry_Int_Tables_number      2
_space_group_name_Hall           '-P 1'
loop_
_symmetry_equiv_pos_site_id
_symmetry_equiv_pos_as_xyz
1 x,y,z
2 -x,-y,-z
_cell_length_a                   8.3120(7)
_cell_length_b                   13.3889(12)
_cell_length_c                   16.7401(14)
_cell_angle_alpha                113.108(2)
_cell_angle_beta                 102.2320(10)
_cell_angle_gamma                91.7770(10)
_cell_volume                     1661.05
loop_
_atom_site_label
_atom_site_type_symbol
_atom_site_fract_x
_atom_site_fract_y
_atom_site_fract_z
Co1 Co 0.57263(12) 0.48459(8) 0.24327(7)
Co2 Co -0.00895(13) 0.45663(8) 0.32689(7)
N1 N 0.3775(9) 0.4873(6) 0.1398(5)
O1 O 0.4400(7) 0.3564(4) 0.2549(4)
O2 O 0.2380(7) 0.4325(4) 0.3177(4)
O3 O 0.0235(8) 0.3720(5) 0.4108(4)
O4 O 0.2414(8) 0.3343(5) 0.4904(4)
O5 O -0.2831(7) -0.3887(5) 0.2462(4)
O6 O -0.0260(7) -0.4372(5) 0.2651(4)
O7 O 0.3430(7) -0.3621(5) -0.1499(4)
O8 O 0.1024(7) -0.3224(4) -0.2126(4)
O9 O 0.7516(6) 0.4864(4) 0.3626(4)
O10 O 0.4499(8) 0.6013(5) 0.3328(4)
H1 H 0.5189 0.6312 0.3835
H2 H 0.3706 0.5659 0.3393
O11 O 0.0993(7) 0.5981(5) 0.4453(4)
H3 H 0.2009 0.5969 0.4671
H4 H 0.0472 0.6074 0.4857
C1 C 0.3115(9) 0.3516(6) 0.2840(5)
C2 C 0.1463(10) 0.3214(6) 0.4187(5)
C3 C 0.2500(9) 0.2415(6) 0.2757(5)
C4 C 0.1696(9) 0.2278(6) 0.3364(5)
C5 C 0.1121(11) 0.1223(6) 0.3236(5)
H5 H 0.0622 0.1134 0.3655
C6 C 0.1269(10) 0.0296(6) 0.2498(5)
C7 C 0.2059(10) 0.0424(6) 0.1891(5)
C8 C 0.2683(10) 0.1476(6) 0.2039(5)
H6 H 0.3248 0.1557 0.1640
C9 C -0.1288(11) -0.3759(6) 0.2530(5)
C10 C -0.0635(10) -0.2753(6) 0.2452(6)
C11 C -0.1691(13) -0.2084(9) 0.2202(10)
H7 H -0.2831 -0.2300 0.2018
C12 C -0.1073(14) -0.1110(9) 0.2223(10)
H8 H -0.1805 -0.0652 0.2093
C13 C 0.0616(11) -0.0795(6) 0.2435(5)
C14 C 0.1621(13) -0.1462(9) 0.2635(10)
H9 H 0.2760 -0.1273 0.2760
C15 C 0.1031(13) -0.2446(9) 0.2666(10)
H10 H 0.1773 -0.2877 0.2830
C16 C 0.2239(11) -0.3081(7) -0.1481(6)
C17 C 0.2227(10) -0.2169(6) -0.0604(5)
C18 C 0.3638(13) -0.1741(10) 0.0061(7)
H11 H 0.4636 -0.2007 -0.0026
C19 C 0.3581(13) -0.0880(10) 0.0894(7)
H12 H 0.4556 -0.0570 0.1339
C20 C 0.2139(10) -0.0509(6) 0.1045(5)
C21 C 0.0715(13) -0.0964(9) 0.0368(7)
H13 H -0.0299 -0.0731 0.0460
C22 C 0.0791(13) -0.1756(9) -0.0440(7)
H14 H -0.0176 -0.2025 -0.0896
C23 C 0.2697(15) 0.4003(9) 0.0890(9)
H15 H 0.2935 0.3341 0.0918
C24 C 0.1211(14) 0.4001(9) 0.0309(9)
H16 H 0.0509 0.3352 -0.0045
C25 C 0.0809(14) 0.4960(9) 0.0269(10)
C26 C 0.1943(14) 0.5861(10) 0.0794(9)
H17 H 0.1719 0.6544 0.0808
C27 C 0.3415(14) 0.5764(10) 0.1301(9)
H18 H 0.4209 0.6378 0.1595
N1A N -0.3775(9) 0.5127(6) -0.1398(5)
C23A C -0.2697(15) 0.5997(9) -0.0890(9)
H15A H -0.2935 0.6659 -0.0918
C24A C -0.1211(14) 0.5999(9) -0.0309(9)
H16A H -0.0509 0.6648 0.0045
C25A C -0.0809(14) 0.5040(9) -0.0269(10)
C26A C -0.1943(14) 0.4139(10) -0.0794(9)
H17A H -0.1719 0.3456 -0.0808
C27A C -0.3415(14) 0.4236(10) -0.1301(9)
H18A H -0.4209 0.3622 -0.1595
Co1A Co -0.57263(12) -0.48459(8) -0.24327(7)
Co2A Co 0.00895(13) -0.45663(8) -0.32689(7)
O1A O -0.4400(7) -0.3564(4) -0.2549(4)
O2A O -0.2380(7) -0.4325(4) -0.3177(4)
O3A O -0.0235(8) -0.3720(5) -0.4108(4)
O4A O -0.2414(8) -0.3343(5) -0.4904(4)
O5A O 0.2831(7) 0.3887(5) -0.2462(4)
O6A O 0.0260(7) 0.4372(5) -0.2651(4)
O7A O -0.3430(7) 0.3621(5) 0.1499(4)
O8A O -0.1024(7) 0.3224(4) 0.2126(4)
O9A O -0.7516(6) -0.4864(4) -0.3626(4)
O10A O -0.4499(8) -0.6013(5) -0.3328(4)
H1A H -0.5189 -0.6312 -0.3835
H2A H -0.3706 -0.5659 -0.3393
O11A O -0.0993(7) -0.5981(5) -0.4453(4)
H3A H -0.2009 -0.5969 -0.4671
H4A H -0.0472 -0.6074 -0.4857
C1A C -0.3115(9) -0.3516(6) -0.2840(5)
C2A C -0.1463(10) -0.3214(6) -0.4187(5)
C3A C -0.2500(9) -0.2415(6) -0.2757(5)
C4A C -0.1696(9) -0.2278(6) -0.3364(5)
C5A C -0.1121(11) -0.1223(6) -0.3236(5)
H5A H -0.0622 -0.1134 -0.3655
C6A C -0.1269(10) -0.0296(6) -0.2498(5)
C7A C -0.2059(10) -0.0424(6) -0.1891(5)
C8A C -0.2683(10) -0.1476(6) -0.2039(5)
H6A H -0.3248 -0.1557 -0.1640
C9A C 0.1288(11) 0.3759(6) -0.2530(5)
C10A C 0.0635(10) 0.2753(6) -0.2452(6)
C11A C 0.1691(13) 0.2084(9) -0.2202(10)
H7A H 0.2831 0.2300 -0.2018
C12A C 0.1073(14) 0.1110(9) -0.2223(10)
H8A H 0.1805 0.0652 -0.2093
C13A C -0.0616(11) 0.0795(6) -0.2435(5)
C14A C -0.1621(13) 0.1462(9) -0.2635(10)
H9A H -0.2760 0.1273 -0.2760
C15A C -0.1031(13) 0.2446(9) -0.2666(10)
H10A H -0.1773 0.2877 -0.2830
C16A C -0.2239(11) 0.3081(7) 0.1481(6)
C17A C -0.2227(10) 0.2169(6) 0.0604(5)
C18A C -0.3638(13) 0.1741(10) -0.0061(7)
H11A H -0.4636 0.2007 0.0026
C19A C -0.3581(13) 0.0880(10) -0.0894(7)
H12A H -0.4556 0.0570 -0.1339
C20A C -0.2139(10) 0.0509(6) -0.1045(5)
C21A C -0.0715(13) 0.0964(9) -0.0368(7)
H13A H 0.0299 0.0731 -0.0460
C22A C -0.0791(13) 0.1756(9) 0.0440(7)
H14A H 0.0176 0.2025 0.0896
Co1_2 Co -0.42737(12) -0.51541(8) 0.24327(7)
Co1_3 Co -0.42737(12) 0.48459(8) 0.24327(7)
Co1A_2 Co -0.57263(12) 0.51541(8) -0.24327(7)
Co1A_3 Co 0.42737(12) -0.48459(8) -0.24327(7)
Co1A_4 Co 0.42737(12) 0.51541(8) -0.24327(7)
Co2_2 Co -0.00895(13) -0.54337(8) 0.32689(7)
Co2_3 Co 0.99105(13) 0.45663(8) 0.32689(7)
Co2A_2 Co -0.99105(13) -0.45663(8) -0.32689(7)
Co2A_3 Co 0.00895(13) 0.54337(8) -0.32689(7)
N1A_2 N -0.3775(9) -0.4873(6) -0.1398(5)
O5_2 O 0.7169(7) 0.6113(5) 0.2462(4)
O5A_2 O -0.7169(7) -0.6113(5) -0.2462(4)
O6_2 O -0.0260(7) 0.5628(5) 0.2651(4)
O6A_2 O 0.0260(7) -0.5628(5) -0.2651(4)
O7_2 O -0.6570(7) -0.3621(5) -0.1499(4)
O7A_2 O 0.6570(7) 0.3621(5) 0.1499(4)
O9_2 O -0.2484(6) 0.4864(4) 0.3626(4)
O9A_2 O 0.2484(6) -0.4864(4) -0.3626(4)
O12 O 0.6827(15) 0.1946(14) 0.2850(12)
H19 H 0.6009 0.2303 0.2807
H20 H 0.7575 0.2181 0.2667
O13 O 0.5414(18) 0.8079(12) 0.4763(9)
H21 H 0.6197 0.7824 0.5012
H22 H 0.4898 0.7562 0.4274
O14 O 0.4105(18) 0.5942(12) 0.5362(9)
H23 H 0.4378 0.6038 0.5909
H24 H 0.4970 0.6103 0.5220
O15 O 0.950(3) 0.179(3) 0.5265(17)
H25 H 0.8670 0.1447 0.4829
H26 H 0.9502 0.2469 0.5397
loop_
_geom_bond_atom_site_label_1
_geom_bond_atom_site_label_2
_geom_bond_site_symmetry_1
_geom_bond_site_symmetry_2
Co1 N1 1_555 1_555
Co2 O2 1_555 1_555
N1 C23 1_555 1_555
O1 Co1 1_555 1_555
O2 C1 1_555 1_555
O3 Co2 1_555 1_555
O4 C2 1_555 1_555
O5 C9 1_555 1_555
O6 C9 1_555 1_555
O7 C16 1_555 1_555
O8 C16 1_555 1_555
O9 Co1 1_555 1_555
O10 Co1 1_555 1_555
H1 O10 1_555 1_555
H2 O10 1_555 1_555
O11 Co2 1_555 1_555
H3 O11 1_555 1_555
H4 O11 1_555 1_555
C1 O1 1_555 1_555
C2 O3 1_555 1_555
C3 C1 1_555 1_555
C4 C2 1_555 1_555
C5 C4 1_555 1_555
H5 C5 1_555 1_555
C6 C5 1_555 1_555
C7 C6 1_555 1_555
C8 C3 1_555 1_555
H6 C8 1_555 1_555
C9 C10 1_555 1_555
C10 C11 1_555 1_555
C11 H7 1_555 1_555
C12 C11 1_555 1_555
H8 C12 1_555 1_555
C13 C6 1_555 1_555
C14 C13 1_555 1_555
H9 C14 1_555 1_555
C15 C10 1_555 1_555
H10 C15 1_555 1_555
C16 C17 1_555 1_555
C17 C18 1_555 1_555
C18 H11 1_555 1_555
C19 C18 1_555 1_555
H12 C19 1_555 1_555
C20 C7 1_555 1_555
C21 C20 1_555 1_555
H13 C21 1_555 1_555
C22 C17 1_555 1_555
H14 C22 1_555 1_555
C23 H15 1_555 1_555
C24 C23 1_555 1_555
H16 C24 1_555 1_555
C25 C24 1_555 1_555
C26 C25 1_555 1_555
H17 C26 1_555 1_555
C27 N1 1_555 1_555
H18 C27 1_555 1_555
O12 H19 1_555 1_555
H20 O12 1_555 1_555
O13 H21 1_555 1_555
H22 O13 1_555 1_555
O14 H23 1_555 1_555
H24 O14 1_555 1_555
O15 H25 1_555 1_555
H26 O15 1_555 1_555
N1A C23A 1_555 1_555
C23A H15A 1_555 1_555
C24A C23A 1_555 1_555
H16A C24A 1_555 1_555
C25A C25 1_555 1_555
C26A C25A 1_555 1_555
H17A C26A 1_555 1_555
C27A N1A 1_555 1_555
H18A C27A 1_555 1_555
Co1A O1A 1_555 1_555
Co2A O8 1_555 1_555
O1A C1A 1_555 1_555
O2A Co2A 1_555 1_555
O3A Co2A 1_555 1_555
O4A C2A 1_555 1_555
O5A C9A 1_555 1_555
O6A C9A 1_555 1_555
O7A C16A 1_555 1_555
O8A Co2 1_555 1_555
O9A Co1A 1_555 1_555
O10A Co1A 1_555 1_555
H1A O10A 1_555 1_555
H2A O10A 1_555 1_555
O11A Co2A 1_555 1_555
H3A O11A 1_555 1_555
H4A O11A 1_555 1_555
C1A O2A 1_555 1_555
C2A O3A 1_555 1_555
C3A C1A 1_555 1_555
C4A C2A 1_555 1_555
C5A C4A 1_555 1_555
H5A C5A 1_555 1_555
C6A C5A 1_555 1_555
C7A C6A 1_555 1_555
C8A C3A 1_555 1_555
H6A C8A 1_555 1_555
C9A C10A 1_555 1_555
C10A C11A 1_555 1_555
C11A H7A 1_555 1_555
C12A C11A 1_555 1_555
H8A C12A 1_555 1_555
C13A C6A 1_555 1_555
C14A C13A 1_555 1_555
H9A C14A 1_555 1_555
C15A C10A 1_555 1_555
H10A C15A 1_555 1_555
C16A O8A 1_555 1_555
C17A C16A 1_555 1_555
C18A C17A 1_555 1_555
H11A C18A 1_555 1_555
C19A C18A 1_555 1_555
H12A C19A 1_555 1_555
C20A C7A 1_555 1_555
C21A C20A 1_555 1_555
H13A C21A 1_555 1_555
C22A C17A 1_555 1_555
H14A C22A 1_555 1_555
Co1_2 O5 1_555 1_555
Co1_3 O7A 1_555 1_555
Co1A_2 N1A 1_555 1_555
Co1A_3 O7 1_555 1_555
Co1A_4 O5A 1_555 1_555
Co2_2 O6 1_555 1_555
Co2_3 O9 1_555 1_555
Co2A_2 O9A 1_555 1_555
Co2A_3 O6A 1_555 1_555
N1A_2 Co1A 1_555 1_555
O5_2 Co1 1_555 1_555
O5A_2 Co1A 1_555 1_555
O6_2 Co2 1_555 1_555
O6A_2 Co2A 1_555 1_555
O7_2 Co1A 1_555 1_555
O7A_2 Co1 1_555 1_555
O9_2 Co2 1_555 1_555
O9A_2 Co2A 1_555 1_555
C3 C4 1_555 1_555
C7 C8 1_555 1_555
C12 C13 1_555 1_555
C14 C15 1_555 1_555
C19 C20 1_555 1_555
C21 C22 1_555 1_555
C26 C27 1_555 1_555
C24A C25A 1_555 1_555
C26A C27A 1_555 1_555
C3A C4A 1_555 1_555
C7A C8A 1_555 1_555
C12A C13A 1_555 1_555
C14A C15A 1_555 1_555
C19A C20A 1_555 1_555
C21A C22A 1_555 1_555
Co1_3 O9_2 1_555 1_555
Co1A_3 O9A_2 1_555 1_555

#END
