
#######################################################################
#
#                 Cambridge Crystallographic Data Centre
#                                CCDC 
#
#######################################################################
#
# If this CIF has been generated from an entry in the Cambridge 
# Structural Database, then it will include bibliographic, chemical, 
# crystal, experimental, refinement or atomic coordinate data resulting 
# from the CCDC's data processing and validation procedures.
#
#######################################################################

data_DIRTEF
_symmetry_cell_setting           orthorhombic
_symmetry_space_group_name_H-M   'P c c a'
_symmetry_Int_Tables_number      54
_space_group_name_Hall           '-P 2a 2ac'
loop_
_symmetry_equiv_pos_site_id
_symmetry_equiv_pos_as_xyz
1 x,y,z
2 1/2-x,-y,z
3 -x,y,1/2-z
4 1/2+x,-y,1/2-z
5 -x,-y,-z
6 1/2+x,y,-z
7 x,-y,1/2+z
8 1/2-x,y,1/2+z
_cell_length_a                   28.817(6)
_cell_length_b                   13.804(3)
_cell_length_c                   11.854(2)
_cell_angle_alpha                90
_cell_angle_beta                 90
_cell_angle_gamma                90
_cell_volume                     4715.4
loop_
_atom_site_label
_atom_site_type_symbol
_atom_site_fract_x
_atom_site_fract_y
_atom_site_fract_z
Th1 Th 0.90510(2) 0.75091(2) 0.60229(2)
O1 O 0.87704(8) 0.90976(16) 0.6811(2)
O2 O 0.81754(10) 0.9994(2) 0.7401(3)
O3 O 0.81997(9) 0.7779(2) 0.6015(2)
O4 O 0.76049(9) 0.8454(2) 0.6931(3)
C1 C 0.83462(12) 0.9255(2) 0.6989(3)
C2 C 0.80117(12) 0.8430(2) 0.6623(3)
O5 O 0.87452(9) 0.72552(18) 0.4083(2)
O6 O 0.88095(9) 0.64570(17) 0.2442(2)
O7 O 0.91972(9) 0.58909(16) 0.5148(2)
O8 O 0.92096(10) 0.49553(18) 0.3618(2)
C3 C 0.88705(12) 0.6536(2) 0.3468(3)
C4 C 0.91174(12) 0.5710(2) 0.4120(3)
O9 O 0.88812(10) 0.74625(16) 0.8110(2)
O10 O 0.84601(9) 0.68757(19) 0.9537(2)
O11 O 0.86186(9) 0.60691(17) 0.6777(2)
O12 O 0.80921(9) 0.55561(18) 0.8032(2)
C5 C 0.86009(11) 0.6868(2) 0.8548(3)
C6 C 0.84166(11) 0.6083(2) 0.7731(3)
O13 O 0.96692(8) 0.84380(16) 0.7008(2)
O14 O 0.96755(8) 0.65063(16) 0.6980(2)
C7 C 1.0000 0.8028(3) 0.7500
C8 C 1.0000 0.6910(3) 0.7500
O15 O 0.97217(9) 1.17231(19) 0.6231(3)
O16 O 1.02510(10) 1.25177(16) 0.5216(2)
O17 O 1.02941(9) 1.01461(17) 0.6221(2)
O18 O 1.07674(9) 1.09608(17) 0.5068(2)
C9 C 1.00928(11) 1.1765(2) 0.5716(3)
C10 C 1.04077(11) 1.0867(2) 0.5674(3)
Na1 Na 0.93622(5) 0.51437(10) 0.17162(12)
Na2 Na 0.7500 1.0000 0.8369(2)
Na3 Na 0.94579(5) 1.01467(10) 0.68565(12)
Na4 Na 0.7500 0.5000 0.68331(19)
Na5 Na 0.89827(6) 1.24040(10) 0.58762(14)
O19 O 0.88475(10) 1.13196(19) 0.7377(2)
H1 H 0.862(2) 1.094(4) 0.743(5)
H2 H 0.881(2) 1.168(4) 0.795(5)
O20 O 0.94846(10) 0.62920(18) 0.0263(2)
H3 H 0.972(2) 0.657(4) 0.009(5)
H4 H 0.940(2) 0.598(4) -0.025(5)
O21 O 1.0000 0.6251(3) 0.2500
O22 O 0.80334(10) 0.5172(2) 0.5305(2)
H5 H 0.8302 0.5295 0.5565
H6 H 0.7946 0.5633 0.4881
O23 O 0.78107(10) 0.3350(2) 0.7095(3)
H7 H 0.806(2) 0.337(5) 0.707(6)
H8 H 0.770(2) 0.272(4) 0.700(5)
O24 O 0.78579(12) 0.9069(3) 0.9806(3)
H9 H 0.7769 0.9271 1.0448
H10 H 0.8151 0.9129 0.9753
O25 O 0.88255(10) 1.0994(2) 0.4675(2)
H11 H 0.889(2) 1.138(4) 0.409(5)
H12 H 0.897(2) 1.038(5) 0.463(6)
O13B O 1.03308(8) 0.84380(16) 0.7992(2)
O14B O 1.03245(8) 0.65063(16) 0.8020(2)
Th1A Th 0.59490(2) 0.24909(2) 0.60229(2)
O1A O 0.62296(8) 0.09024(16) 0.6811(2)
O2A O 0.68246(10) 0.0006(2) 0.7401(3)
O3A O 0.68003(9) 0.2221(2) 0.6015(2)
O4A O 0.73951(9) 0.1546(2) 0.6931(3)
C1A C 0.66538(12) 0.0745(2) 0.6989(3)
C2A C 0.69883(12) 0.1570(2) 0.6623(3)
O5A O 0.62548(9) 0.27448(18) 0.4083(2)
O6A O 0.61905(9) 0.35430(17) 0.2442(2)
O7A O 0.58028(9) 0.41091(16) 0.5148(2)
O8A O 0.57904(10) 0.50447(18) 0.3618(2)
C3A C 0.61295(12) 0.3464(2) 0.3468(3)
C4A C 0.58826(12) 0.4290(2) 0.4120(3)
O9A O 0.61188(10) 0.25375(16) 0.8110(2)
O10A O 0.65399(9) 0.31243(19) 0.9537(2)
O11A O 0.63814(9) 0.39309(17) 0.6777(2)
O12A O 0.69079(9) 0.44439(18) 0.8032(2)
C5A C 0.63991(11) 0.3132(2) 0.8548(3)
C6A C 0.65834(11) 0.3917(2) 0.7731(3)
O15A O 0.52783(9) -0.17231(19) 0.6231(3)
O16A O 0.47490(10) -0.25177(16) 0.5216(2)
O17A O 0.47059(9) -0.01461(17) 0.6221(2)
O18A O 0.42326(9) -0.09608(17) 0.5068(2)
C9A C 0.49072(11) -0.1765(2) 0.5716(3)
C10A C 0.45923(11) -0.0867(2) 0.5674(3)
Na1A Na 0.56378(5) 0.48563(10) 0.17162(12)
Na3A Na 0.55421(5) -0.01467(10) 0.68565(12)
Na5A Na 0.60173(6) -0.24040(10) 0.58762(14)
O19A O 0.61525(10) -0.13196(19) 0.7377(2)
H1A H 0.638(2) -0.094(4) 0.743(5)
H2A H 0.619(2) -0.168(4) 0.795(5)
O20A O 0.55154(10) 0.37080(18) 0.0263(2)
H3A H 0.528(2) 0.343(4) 0.009(5)
H4A H 0.560(2) 0.402(4) -0.025(5)
O22A O 0.69666(10) 0.4828(2) 0.5305(2)
H5A H 0.6698 0.4705 0.5565
H6A H 0.7054 0.4367 0.4881
O23A O 0.71893(10) 0.6650(2) 0.7095(3)
H7A H 0.694(2) 0.663(5) 0.707(6)
H8A H 0.730(2) 0.728(4) 0.700(5)
O25A O 0.61745(10) -0.0994(2) 0.4675(2)
H11A H 0.611(2) -0.138(4) 0.409(5)
H12A H 0.603(2) -0.038(5) 0.463(6)
O24A O 0.71421(12) 1.0931(3) 0.9806(3)
H9A H 0.7231 1.0729 1.0448
H10A H 0.6849 1.0871 0.9753
Th1B Th 1.09490(2) 0.75091(2) 0.89771(2)
Th1D Th 1.09490(2) 1.24909(2) 0.39771(2)
Th1E Th 0.40510(2) -0.24909(2) 0.39771(2)
O2A_2 O 0.68246(10) 1.0006(2) 0.7401(3)
O4A_2 O 0.73951(9) 1.1546(2) 0.6931(3)
O6F O 0.88095(9) 1.35430(17) 0.7442(2)
O6G O 0.61905(9) -0.35430(17) 0.7442(2)
O7F O 0.91972(9) 0.41091(16) 0.0148(2)
O7G O 0.58028(9) 0.58909(16) 0.0148(2)
O10F O 0.84601(9) 1.31243(19) 0.4537(2)
O10G O 0.65399(9) -0.31243(19) 0.4537(2)
O11F O 0.86186(9) 0.39309(17) 0.1777(2)
O11G O 0.63814(9) 0.60691(17) 0.1777(2)
O13A O 0.53308(8) 0.15620(16) 0.7008(2)
O14A O 0.53245(8) 0.34937(16) 0.6980(2)
O14F O 0.96755(8) 0.34937(16) 0.1980(2)
O14G O 0.53245(8) 0.65063(16) 0.1980(2)
O16D O 0.97490(10) 0.74823(16) 0.4784(2)
O16E O 0.52510(10) 0.25177(16) 0.4784(2)
O17B O 0.97059(9) 1.01461(17) 0.8779(2)
O17C O 0.52941(9) -0.01461(17) 0.8779(2)
O18D O 0.92326(9) 0.90392(17) 0.4932(2)
O18E O 0.57674(9) 0.09608(17) 0.4932(2)
Na1B Na 1.06378(5) 0.51437(10) 0.32838(12)
Na1D Na 1.06378(5) 0.48563(10) 0.82838(12)
Na1F Na 0.93622(5) 0.48563(10) 0.67162(12)
Na1G Na 0.56378(5) 0.51437(10) 0.67162(12)
Na2_2 Na 0.7500 0.0000 0.8369(2)
Na3B Na 1.05421(5) 1.01467(10) 0.81435(12)
Na3C Na 0.44579(5) -0.01467(10) 0.81435(12)
Na3D Na 1.05421(5) 0.98533(10) 0.31435(12)
Na3E Na 0.44579(5) 0.01467(10) 0.31435(12)
Na5F Na 0.89827(6) 0.75960(10) 0.08762(14)
Na5F_2 Na 0.89827(6) 0.75960(10) 1.08762(14)
Na5G Na 0.60173(6) 0.24040(10) 0.08762(14)
Na5G_2 Na 0.60173(6) 0.24040(10) 1.08762(14)
O20F O 0.94846(10) 1.37080(18) 0.5263(2)
O20G O 0.55154(10) -0.37080(18) 0.5263(2)
O21A O 0.5000 0.3749(3) 0.2500
O26 O 0.75682(15) 0.6820(4) 0.4457(3)
H13 H 0.7234(6) 0.679(4) 0.467(5)
H14 H 0.7689(16) 0.738(3) 0.490(4)
loop_
_geom_bond_atom_site_label_1
_geom_bond_atom_site_label_2
_geom_bond_site_symmetry_1
_geom_bond_site_symmetry_2
Th1 O1 1_555 1_555
O1 C1 1_555 1_555
O2 C1 1_555 1_555
O3 Th1 1_555 1_555
O4 C2 1_555 1_555
C1 C2 1_555 1_555
C2 O3 1_555 1_555
O5 Th1 1_555 1_555
O6 C3 1_555 1_555
O7 Th1 1_555 1_555
O8 C4 1_555 1_555
C3 O5 1_555 1_555
C4 O7 1_555 1_555
O9 Th1 1_555 1_555
O10 C5 1_555 1_555
O11 Th1 1_555 1_555
O12 C6 1_555 1_555
C5 O9 1_555 1_555
C6 O11 1_555 1_555
O13 Th1 1_555 1_555
O14 Th1 1_555 1_555
C7 O13 1_555 1_555
C8 O14 1_555 1_555
O15 C9 1_555 1_555
O16 C9 1_555 1_555
O17 C10 1_555 1_555
O18 C10 1_555 1_555
C9 C10 1_555 1_555
Na1 O6 1_555 1_555
Na2 O2 1_555 1_555
Na3 O1 1_555 1_555
Na4 O12 1_555 1_555
Na5 O15 1_555 1_555
O19 Na3 1_555 1_555
H1 O19 1_555 1_555
H2 O19 1_555 1_555
O20 Na1 1_555 1_555
H3 O20 1_555 1_555
H4 O20 1_555 1_555
O21 Na1 1_555 1_555
O22 Na4 1_555 1_555
H5 O22 1_555 1_555
H6 O22 1_555 1_555
O23 Na4 1_555 1_555
H7 O23 1_555 1_555
H8 O23 1_555 1_555
O24 Na2 1_555 1_555
H9 O24 1_555 1_555
H10 O24 1_555 1_555
O25 Na5 1_555 1_555
H11 O25 1_555 1_555
H12 O25 1_555 1_555
O26 H13 1_555 1_555
H14 O26 1_555 1_555
O13B C7 1_555 1_555
O14B C8 1_555 1_555
Th1A O1A 1_555 1_555
O1A C1A 1_555 1_555
O2A C1A 1_555 1_555
O3A Th1A 1_555 1_555
O4A C2A 1_555 1_555
C1A C2A 1_555 1_555
C2A O3A 1_555 1_555
O5A Th1A 1_555 1_555
O6A C3A 1_555 1_555
O7A Th1A 1_555 1_555
O8A C4A 1_555 1_555
C3A O5A 1_555 1_555
C4A O7A 1_555 1_555
O9A Th1A 1_555 1_555
O10A C5A 1_555 1_555
O11A Th1A 1_555 1_555
O12A Na4 1_555 1_555
C5A O9A 1_555 1_555
C6A O11A 1_555 1_555
O15A C9A 1_555 1_555
O16A C9A 1_555 1_555
O17A C10A 1_555 1_555
O18A C10A 1_555 1_555
C9A C10A 1_555 1_555
Na1A O6A 1_555 1_555
Na3A O1A 1_555 1_555
Na5A O15A 1_555 1_555
O19A Na3A 1_555 1_555
H1A O19A 1_555 1_555
H2A O19A 1_555 1_555
O20A Na1A 1_555 1_555
H3A O20A 1_555 1_555
H4A O20A 1_555 1_555
O22A Na4 1_555 1_555
H5A O22A 1_555 1_555
H6A O22A 1_555 1_555
O23A Na4 1_555 1_555
H7A O23A 1_555 1_555
H8A O23A 1_555 1_555
O25A Na5A 1_555 1_555
H11A O25A 1_555 1_555
H12A O25A 1_555 1_555
O24A Na2 1_555 1_555
H9A O24A 1_555 1_555
H10A O24A 1_555 1_555
Th1B O13B 1_555 1_555
Th1D O16 1_555 1_555
Th1E O16A 1_555 1_555
O2A_2 Na2 1_555 1_555
O4A_2 Na2 1_555 1_555
O6F Na5 1_555 1_555
O6G Na5A 1_555 1_555
O7F Na1 1_555 1_555
O7G Na1A 1_555 1_555
O10F Na5 1_555 1_555
O10G Na5A 1_555 1_555
O11F Na1 1_555 1_555
O11G Na1A 1_555 1_555
O13A Th1A 1_555 1_555
O14A Th1A 1_555 1_555
O14F Na1 1_555 1_555
O14G Na1A 1_555 1_555
O16D Th1 1_555 1_555
O16E Th1A 1_555 1_555
O17B Na3 1_555 1_555
O17C Na3A 1_555 1_555
O18D Th1 1_555 1_555
O18E Th1A 1_555 1_555
Na1B O21 1_555 1_555
Na1D O14B 1_555 1_555
Na1F O7 1_555 1_555
Na1G O7A 1_555 1_555
Na2_2 O2A 1_555 1_555
Na3B O17 1_555 1_555
Na3C O17A 1_555 1_555
Na3D O18 1_555 1_555
Na3E O18A 1_555 1_555
Na5F O6 1_555 1_555
Na5F_2 O10 1_555 1_555
Na5G O6A 1_555 1_555
Na5G_2 O10A 1_555 1_555
O20F Na5 1_555 1_555
O20G Na5A 1_555 1_555
O21A Na1A 1_555 1_555
O4 Na2 1_555 1_555
O8 Na1 1_555 1_555
C3 C4 1_555 1_555
O11 Na1F 1_555 1_555
C5 C6 1_555 1_555
O13 Na3 1_555 1_555
O14 Na1F 1_555 1_555
C7 C8 1_555 1_555
O15 Na3 1_555 1_555
O17 Na3 1_555 1_555
O18 Th1D 1_555 1_555
Na3 O18D 1_555 1_555
Na5 O19 1_555 1_555
O20 Na5F 1_555 1_555
O13B Na3B 1_555 1_555
O14B Th1B 1_555 1_555
O4A Na2_2 1_555 1_555
O8A Na1A 1_555 1_555
C3A C4A 1_555 1_555
O11A Na1G 1_555 1_555
O12A C6A 1_555 1_555
C5A C6A 1_555 1_555
O15A Na3A 1_555 1_555
O17A Na3A 1_555 1_555
O18A Th1E 1_555 1_555
Na3A O13A 1_555 1_555
Na3A O18E 1_555 1_555
Na5A O19A 1_555 1_555
O20A Na5G 1_555 1_555
O14A Na1G 1_555 1_555
O17B Na3B 1_555 1_555
O17C Na3C 1_555 1_555

#END
