
#######################################################################
#
#                 Cambridge Crystallographic Data Centre
#                                CCDC 
#
#######################################################################
#
# If this CIF has been generated from an entry in the Cambridge 
# Structural Database, then it will include bibliographic, chemical, 
# crystal, experimental, refinement or atomic coordinate data resulting 
# from the CCDC's data processing and validation procedures.
#
#######################################################################

data_DIRTAB
_symmetry_cell_setting           orthorhombic
_symmetry_space_group_name_H-M   'F d d 2'
_symmetry_Int_Tables_number      43
_space_group_name_Hall           'F 2 -2d'
loop_
_symmetry_equiv_pos_site_id
_symmetry_equiv_pos_as_xyz
1 x,y,z
2 -x,-y,z
3 1/4+x,1/4-y,1/4+z
4 1/4-x,1/4+y,1/4+z
5 x,1/2+y,1/2+z
6 -x,1/2-y,1/2+z
7 1/4+x,3/4-y,3/4+z
8 1/4-x,3/4+y,3/4+z
9 1/2+x,y,1/2+z
10 1/2-x,-y,1/2+z
11 3/4+x,1/4-y,3/4+z
12 3/4-x,1/4+y,3/4+z
13 1/2+x,1/2+y,z
14 1/2-x,1/2-y,z
15 3/4+x,3/4-y,1/4+z
16 3/4-x,3/4+y,1/4+z
_cell_length_a                   20.944(4)
_cell_length_b                   28.451(6)
_cell_length_c                   12.819(3)
_cell_angle_alpha                90
_cell_angle_beta                 90
_cell_angle_gamma                90
_cell_volume                     7638.56
loop_
_atom_site_label
_atom_site_type_symbol
_atom_site_fract_x
_atom_site_fract_y
_atom_site_fract_z
Th1 Th 0.77192(2) 0.98863(2) 0.01283(8)
O1 O 0.6557(5) 0.9957(3) 0.0204(13)
O2 O 0.5588(6) 0.9632(5) 0.0452(13)
O3 O 0.7077(4) 0.9113(3) 0.0125(10)
O4 O 0.6125(5) 0.8767(4) 0.0269(9)
C1 C 0.6166(7) 0.9613(5) 0.0299(15)
C2 C 0.6479(6) 0.9112(4) 0.0222(12)
O5 O 0.8693(6) 0.9891(4) -0.0951(9)
O6 O 0.8335(4) 0.9164(3) 0.0182(10)
O7 O 0.9630(5) 0.9548(4) -0.1296(9)
O8 O 0.9302(4) 0.8839(3) 0.0042(9)
C3 C 0.9107(6) 0.9561(5) -0.0856(10)
C4 C 0.8914(7) 0.9153(4) -0.0140(9)
O9 O 0.8253(4) 1.0683(3) 0.0086(9)
O10 O 0.9156(5) 1.1081(4) 0.0349(8)
O11 O 0.8664(5) 0.9991(4) 0.1301(9)
O12 O 0.9474(12) 1.0436(7) 0.182(3)
C5 C 0.8792(7) 1.0741(5) 0.0506(11)
C6 C 0.9007(9) 1.0360(6) 0.1278(17)
O13 O 0.7590(5) 0.9485(4) 0.1905(8)
O14 O 0.7579(6) 0.9579(3) 0.3618(8)
O15 O 0.7416(6) 1.0410(4) 0.1644(10)
O16 O 0.7456(6) 1.0503(4) 0.3393(9)
C7 C 0.7551(6) 0.9733(4) 0.2703(13)
C8 C 0.7465(6) 1.0266(4) 0.2566(13)
Na1 Na 0.7705(3) 0.8655(2) 0.1339(5)
Na2 Na 1.0049(3) 1.1219(2) 0.1565(5)
Na3 Na 0.7500 0.7500 -0.0283(8)
Na4 Na 0.5096(4) 0.8882(3) 0.1021(7)
O17 O 0.4444(9) 0.8850(8) -0.0449(14)
H1 H 0.4074 0.8954 -0.0296
H2 H 0.4412 0.8567 -0.0660
O18 O 0.6777(6) 0.8071(4) -0.0952(9)
H3 H 0.654(9) 0.826(7) -0.043(15)
H4 H 0.645(7) 0.786(7) -0.126(17)
O19 O 0.8375(5) 0.8113(4) 0.0284(9)
H5 H 0.852(10) 0.779(3) 0.01(2)
H6 H 0.870(8) 0.832(5) -0.006(18)
O20 O 1.0806(5) 1.0712(4) 0.2486(10)
H7 H 1.1114 1.0644 0.2079
H8 H 1.0620 1.0460 0.2676
O21 O 0.9328(8) 1.1297(10) 0.2945(13)
H9 H 0.9129 1.1018 0.3119
H10 H 0.9000 1.1506 0.2810
Th1A Th 1.22808(2) 1.01137(2) 0.01283(8)
O1A O 1.3443(5) 1.0043(3) 0.0204(13)
O2A O 1.4412(6) 1.0368(5) 0.0452(13)
O3A O 1.2923(4) 1.0887(3) 0.0125(10)
O4A O 1.3875(5) 1.1233(4) 0.0269(9)
C1A C 1.3834(7) 1.0387(5) 0.0299(15)
C2A C 1.3521(6) 1.0888(4) 0.0222(12)
O5A O 1.1307(6) 1.0109(4) -0.0951(9)
O6A O 1.1665(4) 1.0836(3) 0.0182(10)
O7A O 1.0370(5) 1.0452(4) -0.1296(9)
O8A O 1.0698(4) 1.1161(3) 0.0042(9)
C3A C 1.0893(6) 1.0439(5) -0.0856(10)
C4A C 1.1086(7) 1.0847(4) -0.0140(9)
O9A O 1.1747(4) 0.9317(3) 0.0086(9)
O10A O 1.0844(5) 0.8919(4) 0.0349(8)
O11A O 1.1336(5) 1.0009(4) 0.1301(9)
O12A O 1.0526(12) 0.9564(7) 0.182(3)
C5A C 1.1208(7) 0.9259(5) 0.0506(11)
C6A C 1.0993(9) 0.9640(6) 0.1278(17)
O13A O 1.2410(5) 1.0515(4) 0.1905(8)
O14A O 1.2421(6) 1.0421(3) 0.3618(8)
O15A O 1.2584(6) 0.9590(4) 0.1644(10)
O16A O 1.2544(6) 0.9497(4) 0.3393(9)
C7A C 1.2449(6) 1.0267(4) 0.2703(13)
C8A C 1.2535(6) 0.9734(4) 0.2566(13)
Na1A Na 1.2295(3) 1.1345(2) 0.1339(5)
Na2A Na 0.9951(3) 0.8781(2) 0.1565(5)
Na4A Na 1.4904(4) 1.1118(3) 0.1021(7)
O17A O 1.5556(9) 1.1150(8) -0.0449(14)
H1A H 1.5926 1.1046 -0.0296
H2A H 1.5588 1.1433 -0.0660
O19A O 1.1625(5) 1.1887(4) 0.0284(9)
H5A H 1.148(10) 1.221(3) 0.01(2)
H6A H 1.130(8) 1.168(5) -0.006(18)
O20A O 0.9194(5) 0.9288(4) 0.2486(10)
H7A H 0.8886 0.9356 0.2079
H8A H 0.9380 0.9540 0.2676
O21A O 1.0672(8) 0.8703(10) 0.2945(13)
H9A H 1.0871 0.8982 0.3119
H10A H 1.1000 0.8494 0.2810
O18M O 0.8223(6) 0.6929(4) -0.0952(9)
H3M H 0.846(9) 0.674(7) -0.043(15)
H4M H 0.855(7) 0.714(7) -0.126(17)
Th1H Th 1.27192(2) 0.98863(2) 0.51283(8)
Th1I Th 0.72808(2) 1.01137(2) 0.51283(8)
O2F O 0.8088(6) 0.7868(5) -0.2048(13)
O2G O 0.6912(6) 0.7132(5) -0.2048(13)
O3C O 1.5423(4) 1.1613(3) 0.2625(10)
O3N O 0.4577(4) 0.8387(3) 0.2625(10)
O7C O 1.2870(5) 1.2048(4) 0.1204(9)
O7N O 0.7130(5) 0.7952(4) 0.1204(9)
O7O O 0.7870(5) 0.7048(4) 0.1204(9)
O8C O 1.3198(4) 1.1339(3) 0.2542(9)
O8N O 0.6802(4) 0.8661(3) 0.2542(9)
O9B O 1.0753(4) 1.1817(3) 0.2586(9)
O9O O 0.9247(4) 0.8183(3) 0.2586(9)
O10B O 1.1656(5) 1.1419(4) 0.2849(8)
O10O O 0.8344(5) 0.8581(4) 0.2849(8)
O14F O 1.0079(6) 0.7921(3) 0.1118(8)
O14H O 1.2579(6) 0.9579(3) -0.1382(8)
O14I O 0.7421(6) 1.0421(3) -0.1382(8)
O14K O 0.9921(6) 1.2079(3) 0.1118(8)
O16G O 0.5044(6) 0.8003(4) 0.0893(9)
O16H O 1.2456(6) 1.0503(4) -0.1607(9)
O16I O 0.7544(6) 0.9497(4) -0.1607(9)
O16J O 1.4956(6) 1.1997(4) 0.0893(9)
Na1F Na 1.0205(3) 0.8845(2) -0.1161(5)
Na1K Na 0.9795(3) 1.1155(2) -0.1161(5)
Na2B Na 1.2549(3) 1.1281(2) 0.4065(5)
Na2G Na 1.2451(3) 0.8719(2) -0.0935(5)
Na2J Na 0.7549(3) 1.1281(2) -0.0935(5)
Na2O Na 0.7451(3) 0.8719(2) 0.4065(5)
Na3A Na 1.2500 1.2500 -0.0283(8)
Na3C Na 0.5000 1.0000 0.2217(8)
Na3C_2 Na 1.5000 1.0000 0.2217(8)
Na3F Na 1.0000 1.0000 -0.2783(8)
Na4C Na 0.7404(4) 1.1382(3) 0.3521(7)
Na4F Na 0.7596(4) 0.8618(3) -0.1479(7)
Na4G Na 0.7404(4) 0.6382(3) -0.1479(7)
Na4K Na 1.2404(4) 1.1382(3) -0.1479(7)
Na4N Na 1.2596(4) 0.8618(3) 0.3521(7)
O18C O 1.5723(6) 1.0571(4) 0.1548(9)
O18N O 0.4277(6) 0.9429(4) 0.1548(9)
O19M O 0.6625(5) 0.6887(4) 0.0284(9)
O22 O 1.0000 1.0000 0.339(3)
loop_
_geom_bond_atom_site_label_1
_geom_bond_atom_site_label_2
_geom_bond_site_symmetry_1
_geom_bond_site_symmetry_2
Th1 O1 1_555 1_555
O1 C1 1_555 1_555
O2 C1 1_555 1_555
O3 Th1 1_555 1_555
O4 C2 1_555 1_555
C1 C2 1_555 1_555
C2 O3 1_555 1_555
O5 Th1 1_555 1_555
O6 Th1 1_555 1_555
O7 C3 1_555 1_555
O8 C4 1_555 1_555
C3 O5 1_555 1_555
C4 O6 1_555 1_555
O9 Th1 1_555 1_555
O10 C5 1_555 1_555
O11 Th1 1_555 1_555
O12 C6 1_555 1_555
C5 O9 1_555 1_555
C6 O11 1_555 1_555
O13 Th1 1_555 1_555
O14 C7 1_555 1_555
O15 Th1 1_555 1_555
O16 C8 1_555 1_555
C7 O13 1_555 1_555
C8 O15 1_555 1_555
Na1 O3 1_555 1_555
Na2 O10 1_555 1_555
Na3 O18 1_555 1_555
Na4 O2 1_555 1_555
O17 Na4 1_555 1_555
H1 O17 1_555 1_555
H2 O17 1_555 1_555
O18 H3 1_555 1_555
H4 O18 1_555 1_555
O19 Na1 1_555 1_555
H5 O19 1_555 1_555
H6 O19 1_555 1_555
O20 Na2 1_555 1_555
H7 O20 1_555 1_555
H8 O20 1_555 1_555
O21 Na2 1_555 1_555
H9 O21 1_555 1_555
H10 O21 1_555 1_555
Th1A O1A 1_555 1_555
O1A C1A 1_555 1_555
O2A C1A 1_555 1_555
O3A Th1A 1_555 1_555
O4A C2A 1_555 1_555
C1A C2A 1_555 1_555
C2A O3A 1_555 1_555
O5A Th1A 1_555 1_555
O6A Th1A 1_555 1_555
O7A C3A 1_555 1_555
O8A Na2 1_555 1_555
C3A O5A 1_555 1_555
C4A O6A 1_555 1_555
O9A Th1A 1_555 1_555
O10A C5A 1_555 1_555
O11A Th1A 1_555 1_555
O12A C6A 1_555 1_555
C5A O9A 1_555 1_555
C6A O11A 1_555 1_555
O13A Th1A 1_555 1_555
O14A C7A 1_555 1_555
O15A Th1A 1_555 1_555
O16A C8A 1_555 1_555
C7A O13A 1_555 1_555
C8A O15A 1_555 1_555
Na1A O3A 1_555 1_555
Na2A O8 1_555 1_555
Na4A O2A 1_555 1_555
O17A Na4A 1_555 1_555
H1A O17A 1_555 1_555
H2A O17A 1_555 1_555
O19A Na1A 1_555 1_555
H5A O19A 1_555 1_555
H6A O19A 1_555 1_555
O20A Na2A 1_555 1_555
H7A O20A 1_555 1_555
H8A O20A 1_555 1_555
O21A Na2A 1_555 1_555
H9A O21A 1_555 1_555
H10A O21A 1_555 1_555
O18M Na3 1_555 1_555
H3M O18M 1_555 1_555
H4M O18M 1_555 1_555
Th1H O14A 1_555 1_555
Th1I O14 1_555 1_555
O2F Na3 1_555 1_555
O2G Na3 1_555 1_555
O3C Na4A 1_555 1_555
O3N Na4 1_555 1_555
O7C Na1A 1_555 1_555
O7N Na1 1_555 1_555
O7O Na3 1_555 1_555
O8C Na1A 1_555 1_555
O8N Na1 1_555 1_555
O9B Na2 1_555 1_555
O9O Na2A 1_555 1_555
O10B Na1A 1_555 1_555
O10O Na1 1_555 1_555
O14F Na2A 1_555 1_555
O14H Th1A 1_555 1_555
O14I Th1 1_555 1_555
O14K Na2 1_555 1_555
O16G Na4 1_555 1_555
O16H Th1A 1_555 1_555
O16I Th1 1_555 1_555
O16J Na4A 1_555 1_555
Na1F O7 1_555 1_555
Na1K O10 1_555 1_555
Na2B O14A 1_555 1_555
Na2G O9A 1_555 1_555
Na2J O9 1_555 1_555
Na2O O14 1_555 1_555
Na3A O19A 1_555 1_555
Na3C O2 1_555 1_555
Na3C_2 O2A 1_555 1_555
Na3F O7 1_555 1_555
Na4C O16 1_555 1_555
Na4F O3 1_555 1_555
Na4G O18M 1_555 1_555
Na4K O3A 1_555 1_555
Na4N O16A 1_555 1_555
O18C Na4A 1_555 1_555
O18N Na4 1_555 1_555
O19M Na3 1_555 1_555
O4 Na4 1_555 1_555
O6 Na1 1_555 1_555
O8 Na1F 1_555 1_555
C3 C4 1_555 1_555
O12 Na2 1_555 1_555
C5 C6 1_555 1_555
O13 Na1 1_555 1_555
O16 Th1I 1_555 1_555
C7 C8 1_555 1_555
Na3 O19 1_555 1_555
Na3 O7N 1_555 1_555
O18 Na4F 1_555 1_555
O4A Na4A 1_555 1_555
O6A Na1A 1_555 1_555
O7A Na1K 1_555 1_555
O7A Na3F 1_555 1_555
O8A C4A 1_555 1_555
O8A Na1K 1_555 1_555
C3A C4A 1_555 1_555
O10A Na2A 1_555 1_555
O10A Na1F 1_555 1_555
O12A Na2A 1_555 1_555
C5A C6A 1_555 1_555
O13A Na1A 1_555 1_555
O16A Th1H 1_555 1_555
C7A C8A 1_555 1_555
O2F Na4F 1_555 1_555
O2G Na4G 1_555 1_555
O7C Na3A 1_555 1_555
O8C Na2B 1_555 1_555
O8N Na2O 1_555 1_555
O10B Na2B 1_555 1_555
O10O Na2O 1_555 1_555
O14H Na2G 1_555 1_555
O14I Na2J 1_555 1_555
O16H Na4K 1_555 1_555
O16I Na4F 1_555 1_555
Na3C O18N 1_555 1_555
Na3C_2 O18C 1_555 1_555

#END
