
#######################################################################
#
#                 Cambridge Crystallographic Data Centre
#                                CCDC 
#
#######################################################################
#
# If this CIF has been generated from an entry in the Cambridge 
# Structural Database, then it will include bibliographic, chemical, 
# crystal, experimental, refinement or atomic coordinate data resulting 
# from the CCDC's data processing and validation procedures.
#
#######################################################################

data_DIRYUA
_symmetry_cell_setting           triclinic
_symmetry_space_group_name_H-M   'P -1'
_symmetry_Int_Tables_number      2
_space_group_name_Hall           '-P 1'
loop_
_symmetry_equiv_pos_site_id
_symmetry_equiv_pos_as_xyz
1 x,y,z
2 -x,-y,-z
_cell_length_a                   6.6726(4)
_cell_length_b                   10.7950(10)
_cell_length_c                   12.0764(10)
_cell_angle_alpha                65.544(9)
_cell_angle_beta                 79.053(6)
_cell_angle_gamma                77.697(6)
_cell_volume                     768.568
loop_
_atom_site_label
_atom_site_type_symbol
_atom_site_fract_x
_atom_site_fract_y
_atom_site_fract_z
C1 C 0.5486(7) 0.4955(4) 0.2703(4)
C2 C 0.7522(7) 0.4264(5) 0.3195(4)
C3 C 0.9201(7) 0.3782(6) 0.2550(4)
H1 H 0.9110 0.3841 0.1770
C4 C 1.1033(7) 0.3206(5) 0.3074(4)
H2 H 1.2177 0.2868 0.2650
C5 C 1.1149(6) 0.3136(4) 0.4232(4)
C6 C 0.9392(7) 0.3646(5) 0.4831(4)
H3 H 0.9448 0.3605 0.5609
C7 C 1.3115(7) 0.2518(5) 0.4842(4)
Cu1 Cu 0.5000 0.5000 0.5000
N1 N 0.7619(5) 0.4195(4) 0.4325(3)
O1 O 0.4175(5) 0.5466(3) 0.3389(3)
O2 O 0.5214(5) 0.5026(4) 0.1705(3)
O3 O 1.3204(5) 0.2729(4) 0.5780(3)
O4 O 1.4487(6) 0.1873(5) 0.4362(4)
C1A C 0.4514(7) 0.5045(4) 0.7297(4)
C2A C 0.2478(7) 0.5736(5) 0.6805(4)
C3A C 0.0799(7) 0.6218(6) 0.7450(4)
H1A H 0.0890 0.6159 0.8230
C4A C -0.1033(7) 0.6794(5) 0.6926(4)
H2A H -0.2177 0.7132 0.7350
C5A C -0.1149(6) 0.6864(4) 0.5768(4)
C6A C 0.0608(7) 0.6354(5) 0.5169(4)
H3A H 0.0552 0.6395 0.4391
C7A C -0.3115(7) 0.7482(5) 0.5158(4)
N1A N 0.2381(5) 0.5805(4) 0.5675(3)
O1A O 0.5825(5) 0.4534(3) 0.6611(3)
O2A O 0.4786(5) 0.4974(4) 0.8295(3)
O3A O -0.3204(5) 0.7271(4) 0.4220(3)
O4A O -0.4487(6) 0.8127(5) 0.5638(4)
Cu1_2 Cu -0.5000 0.5000 0.5000
Cu1_3 Cu 1.5000 0.5000 0.5000
O3_2 O 0.3204(5) 0.2729(4) 0.5780(3)
O3A_2 O 0.6796(5) 0.7271(4) 0.4220(3)
C8 C 0.6310(8) 0.0822(7) 0.2170(5)
H4 H 0.5961 0.0898 0.2925
C9 C 0.6303(7) 0.2002(6) 0.1112(5)
H5 H 0.5986 0.2867 0.1150
C10 C 0.6774(7) 0.1874(5) -0.0002(5)
H6 H 0.6748 0.2659 -0.0723
C11 C 0.7296(6) 0.0565(5) -0.0058(4)
C12 C 0.7793(7) 0.0350(5) -0.1182(4)
C13 C 0.8311(7) -0.0988(5) -0.1111(4)
H7 H 0.8640 -0.1142 -0.1832
C14 C 0.8356(7) -0.2112(6) 0.0005(5)
H8 H 0.8734 -0.2994 0.0009
C15 C 0.7861(7) -0.1958(5) 0.1093(4)
H9 H 0.7877 -0.2715 0.1835
C16 C 0.7325(6) -0.0606(5) 0.1048(4)
H10 H 0.808(10) 0.132(7) -0.306(6)
H11 H 0.699(11) 0.229(8) -0.232(6)
H12 H 0.681(11) -0.126(4) 0.281(4)
N2 N 0.6800(6) -0.0407(5) 0.2132(4)
N3 N 0.7773(7) 0.1442(5) -0.2298(4)
O5 O 0.7952(6) 0.0468(5) 0.5623(4)
O6 O 0.7751(16) 0.5026(12) 0.9658(10)
loop_
_geom_bond_atom_site_label_1
_geom_bond_atom_site_label_2
_geom_bond_site_symmetry_1
_geom_bond_site_symmetry_2
C1 C2 1_555 1_555
C2 C3 1_555 1_555
C3 H1 1_555 1_555
C4 C3 1_555 1_555
H2 C4 1_555 1_555
C5 C4 1_555 1_555
C6 C5 1_555 1_555
H3 C6 1_555 1_555
C7 C5 1_555 1_555
Cu1 N1 1_555 1_555
N1 C2 1_555 1_555
O1 C1 1_555 1_555
O2 C1 1_555 1_555
O3 C7 1_555 1_555
O4 C7 1_555 1_555
C8 H4 1_555 1_555
C9 C8 1_555 1_555
H5 C9 1_555 1_555
C10 C9 1_555 1_555
H6 C10 1_555 1_555
C11 C10 1_555 1_555
C12 C11 1_555 1_555
C13 C12 1_555 1_555
H7 C13 1_555 1_555
C14 C13 1_555 1_555
H8 C14 1_555 1_555
C15 C14 1_555 1_555
H9 C15 1_555 1_555
C16 C11 1_555 1_555
H10 N3 1_555 1_555
H11 N3 1_555 1_555
H12 N2 1_555 1_555
N2 C8 1_555 1_555
N3 C12 1_555 1_555
C1A C2A 1_555 1_555
C2A C3A 1_555 1_555
C3A H1A 1_555 1_555
C4A C3A 1_555 1_555
H2A C4A 1_555 1_555
C5A C4A 1_555 1_555
C6A C5A 1_555 1_555
H3A C6A 1_555 1_555
C7A C5A 1_555 1_555
N1A Cu1 1_555 1_555
O1A Cu1 1_555 1_555
O2A C1A 1_555 1_555
O3A C7A 1_555 1_555
O4A C7A 1_555 1_555
Cu1_2 O3A 1_555 1_555
Cu1_3 O3 1_555 1_555
O3_2 Cu1 1_555 1_555
O3A_2 Cu1 1_555 1_555
C6 N1 1_555 1_555
Cu1 O1 1_555 1_555
C15 C16 1_555 1_555
C16 N2 1_555 1_555
C1A O1A 1_555 1_555
C2A N1A 1_555 1_555
C6A N1A 1_555 1_555

#END
