
#######################################################################
#
#                 Cambridge Crystallographic Data Centre
#                                CCDC 
#
#######################################################################
#
# If this CIF has been generated from an entry in the Cambridge 
# Structural Database, then it will include bibliographic, chemical, 
# crystal, experimental, refinement or atomic coordinate data resulting 
# from the CCDC's data processing and validation procedures.
#
#######################################################################

data_DIRYEK
_symmetry_cell_setting           triclinic
_symmetry_space_group_name_H-M   'P -1'
_symmetry_Int_Tables_number      2
_space_group_name_Hall           '-P 1'
loop_
_symmetry_equiv_pos_site_id
_symmetry_equiv_pos_as_xyz
1 x,y,z
2 -x,-y,-z
_cell_length_a                   7.1562(13)
_cell_length_b                   7.2456(13)
_cell_length_c                   11.618(2)
_cell_angle_alpha                82.299(10)
_cell_angle_beta                 89.056(10)
_cell_angle_gamma                70.660(10)
_cell_volume                     563.033
loop_
_atom_site_label
_atom_site_type_symbol
_atom_site_fract_x
_atom_site_fract_y
_atom_site_fract_z
C1 C 0.6888(5) 0.2111(6) 0.1775(3)
C2 C 0.8514(5) 0.2247(5) 0.0953(3)
C3 C 1.0497(5) 0.1197(5) 0.1173(3)
H1 H 1.0915 0.0327 0.1856
C4 C 1.1853(5) 0.1458(5) 0.0363(3)
H2 H 1.3200 0.0798 0.0506
C5 C 1.1185(5) 0.2714(5) -0.0665(3)
C6 C 0.9169(5) 0.3709(5) -0.0829(3)
H3 H 0.8711 0.4547 -0.1519
C7 C 1.2606(5) 0.3140(6) -0.1568(3)
Cu1 Cu 0.5000 0.5000 0.0000
N1 N 0.7850(4) 0.3505(4) -0.0025(2)
O1 O 0.5152(3) 0.3296(4) 0.1475(2)
O2 O 0.7295(4) 0.0889(4) 0.2653(2)
O3 O 1.1874(4) 0.4072(5) -0.2519(2)
O4 O 1.4399(4) 0.2612(4) -0.1270(2)
C1A C 0.3112(5) 0.7889(6) -0.1775(3)
C2A C 0.1486(5) 0.7753(5) -0.0953(3)
C3A C -0.0497(5) 0.8803(5) -0.1173(3)
H1A H -0.0915 0.9673 -0.1856
C4A C -0.1853(5) 0.8542(5) -0.0363(3)
H2A H -0.3200 0.9202 -0.0506
C5A C -0.1185(5) 0.7286(5) 0.0665(3)
C6A C 0.0831(5) 0.6291(5) 0.0829(3)
H3A H 0.1289 0.5453 0.1519
C7A C -0.2606(5) 0.6860(6) 0.1568(3)
N1A N 0.2150(4) 0.6495(4) 0.0025(2)
O1A O 0.4848(3) 0.6704(4) -0.1475(2)
O2A O 0.2705(4) 0.9111(4) -0.2653(2)
O3A O -0.1874(4) 0.5928(5) 0.2519(2)
O4A O -0.4399(4) 0.7388(4) 0.1270(2)
Cu1_2 Cu -0.5000 0.5000 0.0000
Cu1_3 Cu 1.5000 0.5000 0.0000
O4_2 O 0.4399(4) 0.2612(4) -0.1270(2)
O4A_2 O 0.5601(4) 0.7388(4) 0.1270(2)
C8 C 0.5478(6) 0.4957(7) 0.4425(3)
H4 H 0.6642 0.5354 0.4454
H5 H 0.5898 0.3612 0.4247
N2 N 0.4090(5) 0.6264(5) 0.3510(3)
H6 H 0.3015 0.5909 0.3491
H7 H 0.4669 0.6171 0.2827
H8 H 0.3745 0.7504 0.3659
C8A C 0.4522(6) 0.5043(7) 0.5575(3)
H4A H 0.3358 0.4646 0.5546
H5A H 0.4102 0.6388 0.5753
N2A N 0.5910(5) 0.3736(5) 0.6490(3)
H6A H 0.6985 0.4091 0.6509
H7A H 0.5331 0.3829 0.7173
H8A H 0.6255 0.2496 0.6341
H9 H 0.519(5) 0.008(8) 0.330(3)
O5 O 0.4219(5) 0.0076(5) 0.3864(3)
H10 H 0.493(12) 0.086(11) 0.412(8)
H11 H 0.234(9) 0.259(7) 0.377(7)
H12 H 0.024(5) 0.454(6) 0.338(3)
O6 O 0.1351(5) 0.3819(5) 0.3858(3)
H13 H 0.908(7) 0.886(10) 0.378(5)
H14 H 0.960(10) 0.770(10) 0.486(5)
O7 O 1.0146(5) 0.8467(6) 0.4314(3)
loop_
_geom_bond_atom_site_label_1
_geom_bond_atom_site_label_2
_geom_bond_site_symmetry_1
_geom_bond_site_symmetry_2
C1 C2 1_555 1_555
C2 C3 1_555 1_555
C3 H1 1_555 1_555
C4 C3 1_555 1_555
H2 C4 1_555 1_555
C5 C4 1_555 1_555
C6 C5 1_555 1_555
H3 C6 1_555 1_555
C7 C5 1_555 1_555
Cu1 N1 1_555 1_555
N1 C2 1_555 1_555
O1 C1 1_555 1_555
O2 C1 1_555 1_555
O3 C7 1_555 1_555
O4 C7 1_555 1_555
C8 H4 1_555 1_555
H5 C8 1_555 1_555
N2 C8 1_555 1_555
H6 N2 1_555 1_555
H7 N2 1_555 1_555
H8 N2 1_555 1_555
H9 O5 1_555 1_555
O5 H10 1_555 1_555
H11 O6 1_555 1_555
H12 O6 1_555 1_555
H13 O7 1_555 1_555
H14 O7 1_555 1_555
C1A C2A 1_555 1_555
C2A C3A 1_555 1_555
C3A H1A 1_555 1_555
C4A C3A 1_555 1_555
H2A C4A 1_555 1_555
C5A C4A 1_555 1_555
C6A C5A 1_555 1_555
H3A C6A 1_555 1_555
C7A C5A 1_555 1_555
N1A Cu1 1_555 1_555
O1A Cu1 1_555 1_555
O2A C1A 1_555 1_555
O3A C7A 1_555 1_555
O4A C7A 1_555 1_555
Cu1_2 O4A 1_555 1_555
Cu1_3 O4 1_555 1_555
O4_2 Cu1 1_555 1_555
O4A_2 Cu1 1_555 1_555
C8A C8 1_555 1_555
H4A C8A 1_555 1_555
H5A C8A 1_555 1_555
N2A C8A 1_555 1_555
H6A N2A 1_555 1_555
H7A N2A 1_555 1_555
H8A N2A 1_555 1_555
C6 N1 1_555 1_555
Cu1 O1 1_555 1_555
C1A O1A 1_555 1_555
C2A N1A 1_555 1_555
C6A N1A 1_555 1_555

#END
