
#######################################################################
#
#                 Cambridge Crystallographic Data Centre
#                                CCDC 
#
#######################################################################
#
# If this CIF has been generated from an entry in the Cambridge 
# Structural Database, then it will include bibliographic, chemical, 
# crystal, experimental, refinement or atomic coordinate data resulting 
# from the CCDC's data processing and validation procedures.
#
#######################################################################

data_DIRYOS
_symmetry_cell_setting           trigonal
_symmetry_space_group_name_H-M   'P 31 2 1'
_symmetry_Int_Tables_number      152
_space_group_name_Hall           'P 31 2"'
loop_
_symmetry_equiv_pos_site_id
_symmetry_equiv_pos_as_xyz
1 x,y,z
2 -y,x-y,1/3+z
3 y,x,-z
4 -x+y,-x,2/3+z
5 -x,-x+y,1/3-z
6 x-y,-y,2/3-z
_cell_length_a                   11.518(3)
_cell_length_b                   11.518(3)
_cell_length_c                   12.424(13)
_cell_angle_alpha                90
_cell_angle_beta                 90
_cell_angle_gamma                120
_cell_volume                     1427.4
loop_
_atom_site_label
_atom_site_type_symbol
_atom_site_fract_x
_atom_site_fract_y
_atom_site_fract_z
Sm1 Sm 0.10866(4) 0.00000 0.33333
I1 I 0.00000 -0.25167(5) 0.167
I2 I 0.00000 0.13855(6) 0.167
N1 N 0.3320(7) 0.0883(8) 0.2282(7)
C1 C 0.4018(8) 0.0721(8) 0.1681(8)
C2 C 0.4896(7) 0.0548(9) 0.0954(7)
C3 C 0.609(1) 0.074(2) 0.150(1)
C4 C 0.531(1) 0.150(2) 0.000(1)
C5 C 0.412(1) -0.078(2) 0.041(2)
I1A I 0.25167(5) 0.25167(5) 0.500333
I2A I -0.13855(6) -0.13855(6) 0.500333
N1E N 0.2437(11) -0.0883(8) 0.4385(7)
Sm1C Sm -0.10866(4) -0.10866(4) -0.00000
C1E C 0.3297(11) -0.0721(8) 0.4986(8)
C2E C 0.4348(11) -0.0548(9) 0.5713(7)
C3E C 0.535(2) -0.074(2) 0.517(1)
C4E C 0.381(2) -0.150(2) 0.667(1)
C5E C 0.490(2) 0.078(2) 0.626(2)
loop_
_geom_bond_atom_site_label_1
_geom_bond_atom_site_label_2
_geom_bond_site_symmetry_1
_geom_bond_site_symmetry_2
Sm1 I1 1_555 1_555
I1 Sm1C 1_555 1_555
I2 Sm1 1_555 1_555
N1 Sm1 1_555 1_555
C1 N1 1_555 1_555
C2 C1 1_555 1_555
C3 C2 1_555 1_555
C4 C2 1_555 1_555
C5 C2 1_555 1_555
I1A Sm1 1_555 1_555
I2A Sm1 1_555 1_555
N1E Sm1 1_555 1_555
Sm1C I2 1_555 1_555
C1E N1E 1_555 1_555
C2E C1E 1_555 1_555
C3E C2E 1_555 1_555
C4E C2E 1_555 1_555
C5E C2E 1_555 1_555

#END
