
#######################################################################
#
#                 Cambridge Crystallographic Data Centre
#                                CCDC 
#
#######################################################################
#
# If this CIF has been generated from an entry in the Cambridge 
# Structural Database, then it will include bibliographic, chemical, 
# crystal, experimental, refinement or atomic coordinate data resulting 
# from the CCDC's data processing and validation procedures.
#
#######################################################################

data_DIRZOV
_symmetry_cell_setting           triclinic
_symmetry_space_group_name_H-M   'P -1'
_symmetry_Int_Tables_number      2
_space_group_name_Hall           '-P 1'
loop_
_symmetry_equiv_pos_site_id
_symmetry_equiv_pos_as_xyz
1 x,y,z
2 -x,-y,-z
_cell_length_a                   7.3979(5)
_cell_length_b                   14.4130(8)
_cell_length_c                   15.7932(9)
_cell_angle_alpha                75.612(5)
_cell_angle_beta                 82.510(5)
_cell_angle_gamma                78.590(5)
_cell_volume                     1593.05
loop_
_atom_site_label
_atom_site_type_symbol
_atom_site_fract_x
_atom_site_fract_y
_atom_site_fract_z
C1 C 0.2515(6) 0.8351(3) 0.0429(3)
C2 C 0.1912(6) 0.8402(3) 0.1372(3)
C3 C 0.0808(6) 0.9189(3) 0.1620(3)
H1 H 0.0329 0.9729 0.1201
C4 C 0.0419(6) 0.9165(3) 0.2510(3)
H2 H -0.0314 0.9694 0.2693
C5 C 0.1129(5) 0.8347(3) 0.3124(3)
C6 C 0.2203(6) 0.7581(3) 0.2814(3)
H3 H 0.2680 0.7026 0.3219
C7 C 0.0789(6) 0.8269(3) 0.4105(3)
C8 C 0.6331(6) 0.5010(3) 0.2349(3)
C9 C 0.6821(5) 0.4961(3) 0.1402(3)
C10 C 0.7997(6) 0.4197(3) 0.1139(3)
H4 H 0.8561 0.3675 0.1550
C11 C 0.8322(6) 0.4222(3) 0.0253(3)
H5 H 0.9062 0.3701 0.0060
C12 C 0.7535(5) 0.5031(3) -0.0345(3)
C13 C 0.6382(5) 0.5774(3) -0.0036(3)
H6 H 0.5864 0.6322 -0.0436
C14 C 0.7857(6) 0.5079(4) -0.1321(3)
Cu1 Cu 0.40991(7) 0.65927(4) 0.14059(3)
N1 N 0.2586(4) 0.7602(2) 0.1962(2)
N2 N 0.5988(4) 0.5726(2) 0.0821(2)
O1 O 0.3491(4) 0.7541(2) 0.03293(19)
O2 O 0.2131(5) 0.9076(2) -0.0158(2)
O3 O 0.1424(5) 0.7484(2) 0.4597(2)
O4 O -0.0082(5) 0.9000(2) 0.4366(2)
O5 O 0.5093(4) 0.5738(2) 0.24754(18)
O6 O 0.7143(4) 0.4400(2) 0.29315(19)
O7 O 0.7560(6) 0.5897(3) -0.1827(2)
O8 O 0.8359(4) 0.4301(3) -0.1565(2)
C15 C 0.2490(6) 1.1632(3) 0.0136(3)
C16 C 0.2817(5) 1.1690(3) -0.0839(3)
C17 C 0.1996(6) 1.2444(3) -0.1465(3)
H7 H 0.1173 1.2961 -0.1305
C18 C 0.2420(6) 1.2416(3) -0.2334(3)
H8 H 0.1901 1.2927 -0.2768
C19 C 0.3618(6) 1.1630(3) -0.2569(3)
C20 C 0.4398(6) 1.0893(3) -0.1898(3)
H9 H 0.5206 1.0362 -0.2041
C21 C 0.4097(6) 1.1558(3) -0.3515(3)
Cu2 Cu 0.5000 1.0000 0.0000
N3 N 0.4020(4) 1.0928(2) -0.1054(2)
O9 O 0.3405(4) 1.0885(2) 0.06244(19)
O10 O 0.1420(5) 1.2281(2) 0.0411(2)
O11 O 0.5008(5) 1.0797(2) -0.3671(2)
O12 O 0.3510(5) 1.2302(2) -0.40876(19)
C1A C 0.7485(6) 0.1649(3) -0.0429(3)
C2A C 0.8088(6) 0.1598(3) -0.1372(3)
C3A C 0.9192(6) 0.0811(3) -0.1620(3)
H1A H 0.9671 0.0271 -0.1201
C4A C 0.9581(6) 0.0835(3) -0.2510(3)
H2A H 1.0314 0.0306 -0.2693
C5A C 0.8871(5) 0.1653(3) -0.3124(3)
C6A C 0.7797(6) 0.2419(3) -0.2814(3)
H3A H 0.7320 0.2974 -0.3219
C7A C 0.9211(6) 0.1731(3) -0.4105(3)
C8A C 0.3669(6) 0.4990(3) -0.2349(3)
C9A C 0.3179(5) 0.5039(3) -0.1402(3)
C10A C 0.2003(6) 0.5803(3) -0.1139(3)
H4A H 0.1439 0.6325 -0.1550
C11A C 0.1678(6) 0.5778(3) -0.0253(3)
H5A H 0.0938 0.6299 -0.0060
C12A C 0.2465(5) 0.4969(3) 0.0345(3)
C13A C 0.3618(5) 0.4226(3) 0.0036(3)
H6A H 0.4136 0.3678 0.0436
C14A C 0.2143(6) 0.4921(4) 0.1321(3)
Cu1A Cu 0.59009(7) 0.34073(4) -0.14059(3)
N1A N 0.7414(4) 0.2398(2) -0.1962(2)
N2A N 0.4012(4) 0.4274(2) -0.0821(2)
O1A O 0.6509(4) 0.2459(2) -0.03293(19)
O2A O 0.7869(5) 0.0924(2) 0.0158(2)
O3A O 0.8576(5) 0.2516(2) -0.4597(2)
O4A O 1.0082(5) 0.1000(2) -0.4366(2)
O5A O 0.4907(4) 0.4262(2) -0.24754(18)
O6A O 0.2857(4) 0.5600(2) -0.29315(19)
O7A O 0.2440(6) 0.4103(3) 0.1827(2)
O8A O 0.1641(4) 0.5699(3) 0.1565(2)
C15A C 0.7510(6) 0.8368(3) -0.0136(3)
C16A C 0.7183(5) 0.8310(3) 0.0839(3)
C17A C 0.8004(6) 0.7556(3) 0.1465(3)
H7A H 0.8827 0.7039 0.1305
C18A C 0.7580(6) 0.7584(3) 0.2334(3)
H8A H 0.8099 0.7073 0.2768
C19A C 0.6382(6) 0.8370(3) 0.2569(3)
C20A C 0.5602(6) 0.9107(3) 0.1898(3)
H9A H 0.4794 0.9638 0.2041
C21A C 0.5903(6) 0.8442(3) 0.3515(3)
N3A N 0.5980(4) 0.9072(2) 0.1054(2)
O9A O 0.6595(4) 0.9115(2) -0.06244(19)
O10A O 0.8580(5) 0.7719(2) -0.0411(2)
O11A O 0.4992(5) 0.9203(2) 0.3671(2)
O12A O 0.6490(5) 0.7698(2) 0.40876(19)
O2A_2 O 0.7869(5) 1.0924(2) 0.0158(2)
Cu2_2 Cu 0.5000 0.0000 0.0000
C22 C 0.8673(6) 0.6422(4) 0.6147(3)
H10 H 0.9081 0.6820 0.6472
H11 H 0.9171 0.6598 0.5540
C23 C 0.6611(6) 0.6599(3) 0.6194(3)
H12 H 0.6124 0.6423 0.6802
H13 H 0.6213 0.6190 0.5877
C24 C 0.3830(6) 0.7833(3) 0.6042(3)
H14 H 0.3568 0.7588 0.6667
H15 H 0.3224 0.7490 0.5735
C25 C 0.3062(6) 0.8904(3) 0.5798(3)
H16 H 0.3587 0.9246 0.6137
H17 H 0.3385 0.9164 0.5181
N4 N 0.9360(5) 0.5383(3) 0.6521(2)
H18 H 0.8863 0.5217 0.7069
H19 H 1.0587 0.5284 0.6518
H20 H 0.9044 0.5022 0.6200
N5 N 0.5844(5) 0.7640(3) 0.5815(2)
H21 H 0.6393 0.8029 0.6026
H22 H 0.6081 0.7771 0.5228
N6 N 0.1026(5) 0.9046(3) 0.5981(3)
H23 H 0.0532 0.8846 0.5587
H24 H 0.0584 0.9673 0.5950
H25 H 0.0736 0.8703 0.6516
O13 O 0.3350(7) 0.4224(3) 0.5876(3)
O14 O 0.1899(7) 0.5595(3) 0.4519(3)
O15 O 0.2842(5) 0.1026(2) 0.3472(2)
O16 O 0.3477(14) 0.2231(4) 0.1874(3)
O17 O 0.6772(14) 0.1290(6) 0.1820(4)
O18 O 0.9268(11) 0.1799(4) 0.2186(4)
loop_
_geom_bond_atom_site_label_1
_geom_bond_atom_site_label_2
_geom_bond_site_symmetry_1
_geom_bond_site_symmetry_2
C1 C2 1_555 1_555
C2 C3 1_555 1_555
C3 H1 1_555 1_555
C4 C3 1_555 1_555
H2 C4 1_555 1_555
C5 C4 1_555 1_555
C6 C5 1_555 1_555
H3 C6 1_555 1_555
C7 C5 1_555 1_555
C8 C9 1_555 1_555
C9 C10 1_555 1_555
C10 H4 1_555 1_555
C11 C10 1_555 1_555
H5 C11 1_555 1_555
C12 C11 1_555 1_555
C13 C12 1_555 1_555
H6 C13 1_555 1_555
C14 C12 1_555 1_555
Cu1 N1 1_555 1_555
N1 C2 1_555 1_555
N2 C9 1_555 1_555
O1 C1 1_555 1_555
O2 C1 1_555 1_555
O3 C7 1_555 1_555
O4 C7 1_555 1_555
O5 C8 1_555 1_555
O6 C8 1_555 1_555
O7 C14 1_555 1_555
O8 C14 1_555 1_555
C15 C16 1_555 1_555
C16 C17 1_555 1_555
C17 H7 1_555 1_555
C18 C17 1_555 1_555
H8 C18 1_555 1_555
C19 C18 1_555 1_555
C20 C19 1_555 1_555
H9 C20 1_555 1_555
C21 C19 1_555 1_555
Cu2 O2 1_555 1_555
N3 C16 1_555 1_555
O9 C15 1_555 1_555
O10 C15 1_555 1_555
O11 C21 1_555 1_555
O12 C21 1_555 1_555
C22 H10 1_555 1_555
H11 C22 1_555 1_555
C23 C22 1_555 1_555
H12 C23 1_555 1_555
H13 C23 1_555 1_555
C24 H14 1_555 1_555
H15 C24 1_555 1_555
C25 C24 1_555 1_555
H16 C25 1_555 1_555
H17 C25 1_555 1_555
N4 C22 1_555 1_555
H18 N4 1_555 1_555
H19 N4 1_555 1_555
H20 N4 1_555 1_555
N5 C23 1_555 1_555
H21 N5 1_555 1_555
H22 N5 1_555 1_555
N6 C25 1_555 1_555
H23 N6 1_555 1_555
H24 N6 1_555 1_555
H25 N6 1_555 1_555
C1A C2A 1_555 1_555
C2A C3A 1_555 1_555
C3A H1A 1_555 1_555
C4A C3A 1_555 1_555
H2A C4A 1_555 1_555
C5A C4A 1_555 1_555
C6A C5A 1_555 1_555
H3A C6A 1_555 1_555
C7A C5A 1_555 1_555
C8A C9A 1_555 1_555
C9A C10A 1_555 1_555
C10A H4A 1_555 1_555
C11A C10A 1_555 1_555
H5A C11A 1_555 1_555
C12A C11A 1_555 1_555
C13A C12A 1_555 1_555
H6A C13A 1_555 1_555
C14A C12A 1_555 1_555
Cu1A O8 1_555 1_555
N1A C2A 1_555 1_555
N2A C9A 1_555 1_555
O1A C1A 1_555 1_555
O2A C1A 1_555 1_555
O3A C7A 1_555 1_555
O4A C7A 1_555 1_555
O5A C8A 1_555 1_555
O6A C8A 1_555 1_555
O7A C14A 1_555 1_555
O8A Cu1 1_555 1_555
C15A C16A 1_555 1_555
C16A C17A 1_555 1_555
C17A H7A 1_555 1_555
C18A C17A 1_555 1_555
H8A C18A 1_555 1_555
C19A C18A 1_555 1_555
C20A C19A 1_555 1_555
H9A C20A 1_555 1_555
C21A C19A 1_555 1_555
N3A Cu2 1_555 1_555
O9A Cu2 1_555 1_555
O10A C15A 1_555 1_555
O11A C21A 1_555 1_555
O12A C21A 1_555 1_555
O2A_2 Cu2 1_555 1_555
Cu2_2 O2A 1_555 1_555
C6 N1 1_555 1_555
C13 N2 1_555 1_555
Cu1 N2 1_555 1_555
Cu1 O1 1_555 1_555
Cu1 O5 1_555 1_555
C20 N3 1_555 1_555
Cu2 N3 1_555 1_555
Cu2 O9 1_555 1_555
C24 N5 1_555 1_555
C6A N1A 1_555 1_555
C13A N2A 1_555 1_555
C14A O8A 1_555 1_555
Cu1A N1A 1_555 1_555
Cu1A N2A 1_555 1_555
Cu1A O1A 1_555 1_555
Cu1A O5A 1_555 1_555
C15A O9A 1_555 1_555
C16A N3A 1_555 1_555
C20A N3A 1_555 1_555

#END
