
#######################################################################
#
#                 Cambridge Crystallographic Data Centre
#                                CCDC 
#
#######################################################################
#
# If this CIF has been generated from an entry in the Cambridge 
# Structural Database, then it will include bibliographic, chemical, 
# crystal, experimental, refinement or atomic coordinate data resulting 
# from the CCDC's data processing and validation procedures.
#
#######################################################################

data_DISBAK
_symmetry_cell_setting           triclinic
_symmetry_space_group_name_H-M   'P -1'
_symmetry_Int_Tables_number      2
_space_group_name_Hall           '-P 1'
loop_
_symmetry_equiv_pos_site_id
_symmetry_equiv_pos_as_xyz
1 x,y,z
2 -x,-y,-z
_cell_length_a                   10.5781(14)
_cell_length_b                   11.0107(14)
_cell_length_c                   11.389(3)
_cell_angle_alpha                101.089(2)
_cell_angle_beta                 109.288(2)
_cell_angle_gamma                108.4730(10)
_cell_volume                     1120.28
loop_
_atom_site_label
_atom_site_type_symbol
_atom_site_fract_x
_atom_site_fract_y
_atom_site_fract_z
Mo1 Mo 0.92153(6) 0.60461(6) 0.06517(6)
Mo2 Mo 1.26675(7) 0.44419(7) 0.26678(7)
Mo3 Mo 1.27212(7) 0.71288(6) 0.18241(6)
Mo4 Mo 0.90807(7) 0.33759(6) 0.14726(6)
Ag1 Ag 0.30077(7) -0.37441(7) -0.36300(6)
Ag2 Ag 0.53699(8) -0.32067(7) -0.04264(7)
Ag3 Ag 0.59584(7) -0.04242(7) 0.10915(8)
Ag4 Ag 0.87090(7) -0.05317(7) 0.11079(6)
O1 O 1.3855(6) 0.3692(5) 0.3026(6)
O2 O 0.9420(6) 0.6854(5) 0.2171(5)
O3 O 0.9211(6) 0.4296(6) 0.2939(5)
O4 O 0.7936(5) 0.4186(5) 0.0339(5)
O5 O 1.0763(5) 0.2988(5) 0.2035(5)
O6 O 1.2705(6) 0.7893(5) 0.3273(5)
O7 O 1.0789(5) 0.5152(5) 0.1304(5)
O8 O 1.2774(6) 0.5240(6) 0.4171(5)
O9 O 1.3701(5) 0.6006(5) 0.2332(5)
O10 O 1.0965(5) 0.7285(5) 0.0600(5)
O11 O 0.7715(6) 0.1823(5) 0.1046(5)
O12 O 1.4056(6) 0.8349(5) 0.1661(6)
O13 O 0.7918(5) 0.6441(5) -0.0445(5)
S1 S 0.4932(2) -0.15924(19) -0.1602(2)
S2 S 0.7981(2) -0.0626(2) 0.2965(2)
N1 N 0.6553(6) -0.0870(6) -0.2989(6)
N2 N 0.7901(6) -0.0593(6) -0.0984(6)
C1 C 0.6521(8) -0.0992(7) -0.1846(7)
N3 N 0.6312(6) -0.3358(6) 0.1551(6)
N4 N 0.8751(7) -0.0230(7) -0.1645(6)
N5 N 0.7588(6) -0.2928(6) 0.3612(6)
C2 C 0.7261(8) -0.2349(8) 0.2684(7)
N6 N 0.6123(6) -0.4533(6) 0.1817(6)
N7 N 0.7953(7) -0.0393(7) -0.2846(6)
N8 N 0.6871(6) -0.4297(6) 0.3048(6)
C3 C 0.5350(9) -0.1236(9) -0.4261(8)
H1 H 0.5739 -0.1031 -0.4885
H2 H 0.4776 -0.0729 -0.4174
H3 H 0.4740 -0.2189 -0.4564
C4 C 0.8586(10) -0.2299(9) 0.4996(8)
H4 H 0.8531 -0.2979 0.5416
H5 H 0.8319 -0.1635 0.5408
H6 H 0.9571 -0.1866 0.5083
O14 O 0.1332(7) -0.3032(7) -0.5045(6)
Mo1A Mo 1.07847(6) 0.39539(6) -0.06517(6)
Mo2A Mo 0.73325(7) 0.55581(7) -0.26678(7)
Mo3A Mo 0.72788(7) 0.28712(6) -0.18241(6)
Mo4A Mo 1.09193(7) 0.66241(6) -0.14726(6)
Ag1_2 Ag 1.30077(7) 0.62559(7) 0.63700(6)
Ag1A Ag 0.69923(7) -0.62559(7) 0.36300(6)
Ag1A_2 Ag 0.69923(7) 0.37441(7) 0.36300(6)
Ag2A Ag 0.46301(8) -0.67933(7) 0.04264(7)
Ag3_2 Ag 1.59584(7) 0.95758(7) 0.10915(8)
Ag3A Ag 0.40416(7) 0.04242(7) -0.10915(8)
Ag4A Ag 1.12910(7) 0.05317(7) -0.11079(6)
O3A O 0.0789(6) -0.4296(6) -0.2939(5)
O4A O 1.2064(5) 0.5814(5) -0.0339(5)
O7A O 0.9211(5) 0.4848(5) -0.1304(5)
O8_2 O 0.2774(6) -0.4760(6) -0.5829(5)
O10A O 0.9035(5) 0.2715(5) -0.0600(5)
O12_2 O 0.4056(6) -0.1651(5) 0.1661(6)
O13A O 1.2082(5) 0.3559(5) 0.0445(5)
S1A S 0.5068(2) 0.15924(19) 0.1602(2)
N4A N 1.1249(7) 0.0230(7) 0.1645(6)
N6A N 0.3877(6) -0.5467(6) -0.1817(6)
N8A N 0.3129(6) -0.5703(6) -0.3048(6)
loop_
_geom_bond_atom_site_label_1
_geom_bond_atom_site_label_2
_geom_bond_site_symmetry_1
_geom_bond_site_symmetry_2
Mo1 O2 1_555 1_555
Mo2 O1 1_555 1_555
Mo3 O6 1_555 1_555
Mo4 O3 1_555 1_555
Ag1 S1 1_555 1_555
Ag2 S1 1_555 1_555
Ag3 O11 1_555 1_555
Ag4 S2 1_555 1_555
O3 Ag1A_2 1_555 1_555
O4 Mo1 1_555 1_555
O5 Mo2 1_555 1_555
O7 Mo1 1_555 1_555
O8 Mo2 1_555 1_555
O9 Mo2 1_555 1_555
O10 Mo1 1_555 1_555
O11 Mo4 1_555 1_555
O12 Mo3 1_555 1_555
O13 Mo1 1_555 1_555
S1 Ag3 1_555 1_555
S2 Ag3 1_555 1_555
N1 C1 1_555 1_555
N2 Ag4 1_555 1_555
C1 S1 1_555 1_555
N3 Ag2 1_555 1_555
N4 N2 1_555 1_555
N5 C2 1_555 1_555
C2 S2 1_555 1_555
N6 N3 1_555 1_555
N7 N1 1_555 1_555
N8 N5 1_555 1_555
C3 N1 1_555 1_555
H1 C3 1_555 1_555
H2 C3 1_555 1_555
H3 C3 1_555 1_555
C4 N5 1_555 1_555
H4 C4 1_555 1_555
H5 C4 1_555 1_555
H6 C4 1_555 1_555
O14 Ag1 1_555 1_555
Mo1A O7 1_555 1_555
Mo2A O13 1_555 1_555
Mo3A O4 1_555 1_555
Mo4A O10 1_555 1_555
Ag1_2 O8 1_555 1_555
Ag1A N8 1_555 1_555
Ag1A_2 S1A 1_555 1_555
Ag2A N6 1_555 1_555
Ag3_2 O12 1_555 1_555
Ag3A S1 1_555 1_555
Ag4A N4 1_555 1_555
O3A Ag1 1_555 1_555
O4A Mo3 1_555 1_555
O7A Mo1 1_555 1_555
O8_2 Ag1 1_555 1_555
O10A Mo4 1_555 1_555
O12_2 Ag3 1_555 1_555
O13A Mo2 1_555 1_555
S1A Ag3 1_555 1_555
N4A Ag4 1_555 1_555
N6A Ag2 1_555 1_555
N8A Ag1 1_555 1_555
Mo2 O7 1_555 1_555
Mo3 O7 1_555 1_555
Mo3 O9 1_555 1_555
Mo3 O10 1_555 1_555
Mo4 O4 1_555 1_555
Mo4 O5 1_555 1_555
Mo4 O7 1_555 1_555
N2 C1 1_555 1_555
N3 C2 1_555 1_555
N4 N7 1_555 1_555
N6 N8 1_555 1_555
Mo1A O4A 1_555 1_555
Mo1A O7A 1_555 1_555
Mo1A O10A 1_555 1_555
Mo1A O13A 1_555 1_555
Mo2A O7A 1_555 1_555
Mo3A O7A 1_555 1_555
Mo3A O10A 1_555 1_555
Mo4A O4A 1_555 1_555
Mo4A O7A 1_555 1_555
Ag3A S1A 1_555 1_555
N6A N8A 1_555 1_555

#END
