
#######################################################################
#
#                 Cambridge Crystallographic Data Centre
#                                CCDC 
#
#######################################################################
#
# If this CIF has been generated from an entry in the Cambridge 
# Structural Database, then it will include bibliographic, chemical, 
# crystal, experimental, refinement or atomic coordinate data resulting 
# from the CCDC's data processing and validation procedures.
#
#######################################################################

data_DISBEO
_symmetry_cell_setting           triclinic
_symmetry_space_group_name_H-M   'P -1'
_symmetry_Int_Tables_number      2
_space_group_name_Hall           '-P 1'
loop_
_symmetry_equiv_pos_site_id
_symmetry_equiv_pos_as_xyz
1 x,y,z
2 -x,-y,-z
_cell_length_a                   9.982(2)
_cell_length_b                   11.711(4)
_cell_length_c                   13.987(2)
_cell_angle_alpha                72.133(3)
_cell_angle_beta                 74.511(2)
_cell_angle_gamma                78.879(2)
_cell_volume                     1488.68
loop_
_atom_site_label
_atom_site_type_symbol
_atom_site_fract_x
_atom_site_fract_y
_atom_site_fract_z
Ag1 Ag 0.02551(4) 0.89190(3) 0.86080(3)
N1 N 0.1790(4) 0.5905(3) 1.0847(2)
N2 N 0.1275(3) 0.7498(3) 0.9652(3)
N3 N 0.2971(4) 0.6061(3) 1.0078(3)
C1 C 0.0810(4) 0.6774(4) 1.0577(3)
H1 H -0.0090 0.6872 1.0978
N4 N -0.0353(4) 0.9824(3) 1.2890(3)
C2 C 0.2609(4) 0.7027(3) 0.9385(3)
H2 H 0.3216 0.7355 0.8768
N5 N -0.0394(4) 0.8119(3) 1.4054(3)
C3 C 0.0519(5) 0.5087(4) 1.2609(3)
C4 C 0.0638(5) 0.5767(4) 1.3232(3)
C5 C -0.0386(6) 0.6824(4) 1.4618(3)
H3 H -0.1151 0.6727 1.5222
H4 H 0.0484 0.6531 1.4847
C6 C -0.0759(5) 0.4706(4) 1.2697(3)
N6 N -0.0147(6) 0.8907(4) 1.4496(3)
C7 C -0.1935(5) 0.5032(4) 1.3407(3)
C8 C 0.1746(5) 0.4865(4) 1.1750(3)
H5 H 0.2611 0.4723 1.1982
H6 H 0.1657 0.4151 1.1569
C9 C -0.0535(5) 0.6085(4) 1.3943(3)
C10 C -0.1848(5) 0.5752(4) 1.4024(3)
C11 C -0.0477(5) 0.8675(4) 1.3109(3)
H7 H -0.0609 0.8303 1.2647
N7 N -0.3422(5) 0.3375(4) 1.4056(5)
C12 C -0.3334(6) 0.4634(4) 1.3500(4)
H8 H -0.4074 0.5130 1.3852
H9 H -0.3484 0.4766 1.2815
C13 C -0.0199(8) 0.9921(4) 1.3772(4)
H10 H -0.0132 1.0657 1.3868
C14 C -0.0896(6) 0.3934(4) 1.2017(4)
H11 H -0.1845 0.3758 1.2182
H12 H -0.0281 0.3191 1.2142
H13 H -0.0647 0.4371 1.1304
C15 C 0.2006(5) 0.6210(5) 1.3096(4)
H14 H 0.2697 0.5910 1.2577
H15 H 0.2305 0.5927 1.3735
H16 H 0.1894 0.7078 1.2888
C16 C -0.3148(6) 0.6181(5) 1.4716(4)
H17 H -0.3879 0.5822 1.4853
H18 H -0.3365 0.6963 1.4458
H19 H -0.2907 0.6096 1.5304
N8 N -0.3925(6) 0.1554(5) 1.4688(6)
C17 C -0.3971(6) 0.2537(5) 1.3875(4)
H20 H -0.4318 0.2612 1.3301
N9 N -0.3001(6) 0.2925(5) 1.4943(6)
C18 C -0.3401(7) 0.1813(7) 1.5364(5)
H21 H -0.3324 0.1314 1.6013
Ag2 Ag -0.50312(10) 0.00461(7) 1.45839(7)
Mo1 Mo -0.34053(4) 1.06352(3) 0.94857(3)
Mo2 Mo -0.34922(7) 0.90696(6) 1.16399(5)
Mo3 Mo -0.32496(7) 0.72804(6) 1.04408(5)
Mo4 Mo -0.35730(9) 0.84567(7) 0.79136(6)
O1 O -0.4279(6) 0.6211(5) 1.1220(4)
O2 O -0.1690(6) 0.6502(5) 1.0028(5)
O3 O -0.4048(5) 1.0351(4) 0.8284(4)
O4 O -0.1729(5) 0.8817(5) 1.1207(4)
O5 O -0.4382(6) 0.8370(5) 0.7567(4)
O6 O -0.1750(5) 1.0463(5) 0.9043(4)
O7 O -0.3652(4) 0.9142(3) 1.2940(3)
O8 O -0.4187(3) 0.7285(3) 0.9395(3)
O9 O -0.3657(3) 1.0571(3) 1.0872(2)
O10 O -0.4955(5) 1.1183(5) 0.9252(4)
O11 O -0.2073(5) 0.8335(5) 0.8242(4)
O12 O -0.2567(6) 0.9067(5) 0.9363(4)
Ag1A Ag -0.02551(4) 1.10810(3) 1.13920(3)
N4A N 0.0353(4) 1.0176(3) 0.7110(3)
N8A N -0.6075(6) -0.1554(5) 1.5312(6)
Ag2A Ag -0.49688(10) -0.00461(7) 1.54161(7)
Mo2A Mo -0.65078(7) 1.09304(6) 0.83601(5)
Mo3A Mo -0.67504(7) 1.27196(6) 0.95592(5)
O3A O -0.5952(5) 0.9649(4) 1.1716(4)
O10A O -0.5045(5) 0.8817(5) 1.0748(4)
O13 O 0.5189(6) 0.2512(6) 0.7057(5)
Mo5? Mo 0.39073(7) 0.32057(6) 0.90953(5)
Mo6? Mo 0.38553(7) 0.14355(5) 1.14335(5)
Mo7? Mo 0.43467(8) 0.13003(6) 0.77681(5)
O14? O 0.4472(7) 0.4585(5) 0.8436(5)
O15? O 0.2158(7) 0.3488(6) 0.9442(5)
O16? O 0.4531(9) 0.1976(8) 1.2761(6)
O17? O 0.1852(8) 0.1926(6) 1.2564(6)
O18? O 0.3980(6) -0.0111(6) 1.2336(5)
O19? O 0.5993(5) -0.1024(4) 1.0124(4)
O20? O 0.4029(6) 0.2521(5) 0.7999(4)
O21? O 0.2815(6) 0.2133(5) 0.8565(4)
O22? O 0.2082(6) -0.1429(6) 1.1011(5)
O23? O 0.3833(5) -0.2313(4) 1.1116(4)
Ag3? Ag 0.47816(7) 0.48339(7) 1.00499(7)
loop_
_geom_bond_atom_site_label_1
_geom_bond_atom_site_label_2
_geom_bond_site_symmetry_1
_geom_bond_site_symmetry_2
Ag1 N2 1_555 1_555
N1 N3 1_555 1_555
N2 C1 1_555 1_555
N3 C2 1_555 1_555
C1 N1 1_555 1_555
H1 C1 1_555 1_555
N4 C11 1_555 1_555
C2 N2 1_555 1_555
H2 C2 1_555 1_555
N5 C5 1_555 1_555
C3 C4 1_555 1_555
C4 C9 1_555 1_555
C5 H3 1_555 1_555
H4 C5 1_555 1_555
C6 C3 1_555 1_555
N6 N5 1_555 1_555
C7 C6 1_555 1_555
C8 N1 1_555 1_555
H5 C8 1_555 1_555
H6 C8 1_555 1_555
C9 C5 1_555 1_555
C10 C7 1_555 1_555
C11 N5 1_555 1_555
H7 C11 1_555 1_555
N7 C12 1_555 1_555
C12 C7 1_555 1_555
H8 C12 1_555 1_555
H9 C12 1_555 1_555
C13 N4 1_555 1_555
H10 C13 1_555 1_555
C14 C6 1_555 1_555
H11 C14 1_555 1_555
H12 C14 1_555 1_555
H13 C14 1_555 1_555
C15 C4 1_555 1_555
H14 C15 1_555 1_555
H15 C15 1_555 1_555
H16 C15 1_555 1_555
C16 C10 1_555 1_555
H17 C16 1_555 1_555
H18 C16 1_555 1_555
H19 C16 1_555 1_555
N8 C17 1_555 1_555
C17 N7 1_555 1_555
H20 C17 1_555 1_555
N9 N7 1_555 1_555
C18 N8 1_555 1_555
H21 C18 1_555 1_555
Ag2 N8 1_555 1_555
Mo1 O3 1_555 1_555
Mo2 O4 1_555 1_555
Mo3 O1 1_555 1_555
Mo4 O3 1_555 1_555
O2 Mo3 1_555 1_555
O3 Mo2A 1_555 1_555
O5 Mo4 1_555 1_555
O6 Ag1 1_555 1_555
O7 Mo2 1_555 1_555
O8 Mo3 1_555 1_555
O9 Mo1 1_555 1_555
O10 Mo1 1_555 1_555
O11 Mo4 1_555 1_555
O12 Mo1 1_555 1_555
Ag1A N4 1_555 1_555
N4A Ag1 1_555 1_555
N8A Ag2 1_555 1_555
Ag2A N8 1_555 1_555
Mo2A O10 1_555 1_555
Mo3A O10 1_555 1_555
O3A Mo2 1_555 1_555
O10A Mo2 1_555 1_555
C3 C8 1_555 1_555
N6 C13 1_555 1_555
C9 C10 1_555 1_555
N9 C18 1_555 1_555
Mo1 O6 1_555 1_555
Mo2 O9 1_555 1_555
Mo3 O12 1_555 1_555
Mo3 O10A 1_555 1_555
Mo4 O8 1_555 1_555
N8A Ag2A 1_555 1_555

#END
