
#######################################################################
#
#                 Cambridge Crystallographic Data Centre
#                                CCDC 
#
#######################################################################
#
# If this CIF has been generated from an entry in the Cambridge 
# Structural Database, then it will include bibliographic, chemical, 
# crystal, experimental, refinement or atomic coordinate data resulting 
# from the CCDC's data processing and validation procedures.
#
#######################################################################

data_DISJOG
_symmetry_cell_setting           monoclinic
_symmetry_space_group_name_H-M   'P 21/c'
_symmetry_Int_Tables_number      14
_space_group_name_Hall           '-P 2ybc'
loop_
_symmetry_equiv_pos_site_id
_symmetry_equiv_pos_as_xyz
1 x,y,z
2 -x,1/2+y,1/2-z
3 -x,-y,-z
4 x,1/2-y,1/2+z
_cell_length_a                   12.8190(16)
_cell_length_b                   9.0047(12)
_cell_length_c                   14.5674(19)
_cell_angle_alpha                90
_cell_angle_beta                 113.574(2)
_cell_angle_gamma                90
_cell_volume                     1541.2
loop_
_atom_site_label
_atom_site_type_symbol
_atom_site_fract_x
_atom_site_fract_y
_atom_site_fract_z
Nd1 Nd 1.09184(3) 0.24685(4) 0.16817(3)
P1 P 0.82563(15) 0.39225(19) 0.18936(15)
P2 P 0.61558(16) -0.1027(2) 0.28294(19)
O1 O 0.8328(4) 0.5550(5) 0.2109(4)
O2 O 0.9320(3) 0.3097(5) 0.2035(4)
O3 O 0.7323(4) 0.3711(5) 0.0781(4)
O4 O 0.7216(4) -0.1938(5) 0.3139(4)
O5 O 0.5368(4) -0.1354(5) 0.1700(5)
H1 H 0.5503 -0.2221 0.1545
O6 O 0.5513(4) -0.1132(5) 0.3486(5)
O7 O 1.0464(4) -0.0400(5) -0.0942(4)
O8 O 1.1352(4) 0.0783(5) 0.0514(4)
O9 O 0.9128(4) 0.4850(5) -0.1268(4)
O10 O 0.9655(4) 0.3126(5) -0.0075(4)
O11 O 1.1747(3) 0.3928(5) 0.3249(4)
H2 H 1.1217 0.4366 0.3353
H3 H 1.2100 0.3350 0.3736
N1 N 0.7114(5) 0.1526(5) 0.2257(5)
H4 H 0.7708 0.0904 0.2351
C1 C 0.7593(5) 0.3038(6) 0.2641(6)
H5 H 0.8146 0.2944 0.3317
H6 H 0.6990 0.3662 0.2651
C2 C 0.6498(6) 0.0950(7) 0.2865(7)
H7 H 0.5796 0.1490 0.2664
H8 H 0.6944 0.1205 0.3551
C3 C 0.6360(6) 0.1560(8) 0.1139(6)
H9 H 0.6102 0.0572 0.0915
H10 H 0.5702 0.2161 0.1030
C4 C 0.6973(6) 0.2165(7) 0.0541(6)
H11 H 0.7634 0.1568 0.0659
H12 H 0.6486 0.2093 -0.0157
C5 C 1.0524(5) 0.0123(7) -0.0129(6)
C6 C 0.9648(6) 0.4410(7) -0.0389(6)
O7B O 0.9536(4) 0.0400(5) 0.0942(4)
O8B O 0.8648(4) -0.0783(5) -0.0514(4)
C5B C 0.9476(5) -0.0123(7) 0.0129(6)
O9B O 1.0872(4) 0.5150(5) 0.1268(4)
O10B O 1.0345(4) 0.6874(5) 0.0075(4)
C6B C 1.0352(6) 0.5590(7) 0.0389(6)
Nd1B Nd 0.90816(3) -0.24685(4) -0.16817(3)
P1B P 1.17437(15) -0.39225(19) -0.18936(15)
P2B P 1.38442(16) 0.1027(2) -0.28294(19)
O1B O 1.1672(4) -0.5550(5) -0.2109(4)
O2B O 1.0680(3) -0.3097(5) -0.2035(4)
O3B O 1.2677(4) -0.3711(5) -0.0781(4)
O4B O 1.2784(4) 0.1938(5) -0.3139(4)
O5B O 1.4632(4) 0.1354(5) -0.1700(5)
H1B H 1.4497 0.2221 -0.1545
O6B O 1.4487(4) 0.1132(5) -0.3486(5)
O11B O 0.8253(3) -0.3928(5) -0.3249(4)
H2B H 0.8783 -0.4366 -0.3353
H3B H 0.7900 -0.3350 -0.3736
N1B N 1.2886(5) -0.1526(5) -0.2257(5)
H4B H 1.2292 -0.0904 -0.2351
C1B C 1.2407(5) -0.3038(6) -0.2641(6)
H5B H 1.1854 -0.2944 -0.3317
H6B H 1.3010 -0.3662 -0.2651
C2B C 1.3502(6) -0.0950(7) -0.2865(7)
H7B H 1.4204 -0.1490 -0.2664
H8B H 1.3056 -0.1205 -0.3551
C3B C 1.3640(6) -0.1560(8) -0.1139(6)
H9B H 1.3898 -0.0572 -0.0915
H10B H 1.4298 -0.2161 -0.1030
C4B C 1.3027(6) -0.2165(7) -0.0541(6)
H11B H 1.2366 -0.1568 -0.0659
H12B H 1.3514 -0.2093 0.0157
Nd1A Nd 0.90816(3) -0.25315(4) 0.33183(3)
Nd1A_2 Nd 0.90816(3) 0.74685(4) 0.33183(3)
Nd1B_2 Nd 0.90816(3) 0.75315(4) -0.16817(3)
Nd1C Nd 1.09184(3) -0.74685(4) -0.33183(3)
Nd1C_2 Nd 1.09184(3) 0.25315(4) -0.33183(3)
O1A O 1.1672(4) 0.0550(5) 0.2891(4)
O1C O 0.8328(4) -0.0550(5) -0.2891(4)
O4A O 1.2784(4) 0.3062(5) 0.1861(4)
O4C O 0.7216(4) -0.3062(5) -0.1861(4)
O9_2 O 0.9128(4) -0.5150(5) -0.1268(4)
O10B_2 O 1.0345(4) -0.3126(5) 0.0075(4)
O12 O 0.3283(4) 0.3375(6) 0.5079(4)
H13 H 0.2957 0.3988 0.5322
H14 H 0.3404 0.2565 0.5405
O13 O 0.5545(4) 0.6124(5) 0.0936(5)
H15 H 0.5038 0.5468 0.0848
H16 H 0.6118 0.5588 0.0999
loop_
_geom_bond_atom_site_label_1
_geom_bond_atom_site_label_2
_geom_bond_site_symmetry_1
_geom_bond_site_symmetry_2
Nd1 O2 1_555 1_555
P1 O1 1_555 1_555
P2 O4 1_555 1_555
O1 Nd1A_2 1_555 1_555
O2 P1 1_555 1_555
O3 P1 1_555 1_555
O4 Nd1A 1_555 1_555
O5 P2 1_555 1_555
H1 O5 1_555 1_555
O6 P2 1_555 1_555
O7 C5 1_555 1_555
O8 Nd1 1_555 1_555
O9 C6 1_555 1_555
O10 Nd1 1_555 1_555
O11 Nd1 1_555 1_555
H2 O11 1_555 1_555
H3 O11 1_555 1_555
N1 H4 1_555 1_555
C1 P1 1_555 1_555
H5 C1 1_555 1_555
H6 C1 1_555 1_555
C2 P2 1_555 1_555
H7 C2 1_555 1_555
H8 C2 1_555 1_555
C3 N1 1_555 1_555
H9 C3 1_555 1_555
H10 C3 1_555 1_555
C4 O3 1_555 1_555
H11 C4 1_555 1_555
H12 C4 1_555 1_555
C5 O8 1_555 1_555
C6 O10 1_555 1_555
O12 H13 1_555 1_555
H14 O12 1_555 1_555
O13 H15 1_555 1_555
H16 O13 1_555 1_555
O7B Nd1 1_555 1_555
O8B C5B 1_555 1_555
C5B C5 1_555 1_555
O9B Nd1 1_555 1_555
O10B C6B 1_555 1_555
C6B C6 1_555 1_555
Nd1B O7 1_555 1_555
P1B O1B 1_555 1_555
P2B O4B 1_555 1_555
O1B Nd1C 1_555 1_555
O2B Nd1B 1_555 1_555
O3B P1B 1_555 1_555
O4B Nd1C_2 1_555 1_555
O5B P2B 1_555 1_555
H1B O5B 1_555 1_555
O6B P2B 1_555 1_555
O11B Nd1B 1_555 1_555
H2B O11B 1_555 1_555
H3B O11B 1_555 1_555
N1B H4B 1_555 1_555
C1B P1B 1_555 1_555
H5B C1B 1_555 1_555
H6B C1B 1_555 1_555
C2B P2B 1_555 1_555
H7B C2B 1_555 1_555
H8B C2B 1_555 1_555
C3B N1B 1_555 1_555
H9B C3B 1_555 1_555
H10B C3B 1_555 1_555
C4B O3B 1_555 1_555
H11B C4B 1_555 1_555
H12B C4B 1_555 1_555
Nd1B_2 O9 1_555 1_555
O1A Nd1 1_555 1_555
O1C Nd1B 1_555 1_555
O4A Nd1 1_555 1_555
O4C Nd1B 1_555 1_555
O9_2 Nd1B 1_555 1_555
O10B_2 Nd1B 1_555 1_555
N1 C1 1_555 1_555
N1 C2 1_555 1_555
C3 C4 1_555 1_555
O7B C5B 1_555 1_555
O8B Nd1B 1_555 1_555
O9B C6B 1_555 1_555
O10B Nd1B_2 1_555 1_555
P1B O2B 1_555 1_555
N1B C1B 1_555 1_555
N1B C2B 1_555 1_555
C3B C4B 1_555 1_555

#END
