
#######################################################################
#
#                 Cambridge Crystallographic Data Centre
#                                CCDC 
#
#######################################################################
#
# If this CIF has been generated from an entry in the Cambridge 
# Structural Database, then it will include bibliographic, chemical, 
# crystal, experimental, refinement or atomic coordinate data resulting 
# from the CCDC's data processing and validation procedures.
#
#######################################################################

data_DISJUM
_symmetry_cell_setting           monoclinic
_symmetry_space_group_name_H-M   'P 21/c'
_symmetry_Int_Tables_number      14
_space_group_name_Hall           '-P 2ybc'
loop_
_symmetry_equiv_pos_site_id
_symmetry_equiv_pos_as_xyz
1 x,y,z
2 -x,1/2+y,1/2-z
3 -x,-y,-z
4 x,1/2-y,1/2+z
_cell_length_a                   12.7935(18)
_cell_length_b                   8.9211(12)
_cell_length_c                   14.501(2)
_cell_angle_alpha                90
_cell_angle_beta                 113.489(2)
_cell_angle_gamma                90
_cell_volume                     1517.89
loop_
_atom_site_label
_atom_site_type_symbol
_atom_site_fract_x
_atom_site_fract_y
_atom_site_fract_z
Eu1 Eu 1.09068(2) 0.24728(3) 0.16643(2)
P1 P 0.82870(14) 0.39523(17) 0.18985(12)
P2 P 0.61851(15) -0.10474(19) 0.28385(14)
O1 O 0.8380(4) 0.5584(4) 0.2132(3)
O2 O 0.9341(3) 0.3105(5) 0.2026(3)
O3 O 0.7356(3) 0.3761(5) 0.0790(3)
O4 O 0.7255(4) -0.1954(5) 0.3150(3)
O5 O 0.5404(4) -0.1371(6) 0.1713(4)
H1 H 0.5538 -0.2239 0.1558
O6 O 0.5539(4) -0.1163(5) 0.3496(4)
O7 O 1.0463(4) -0.0416(4) -0.0946(3)
O8 O 1.1359(3) 0.0793(5) 0.0519(3)
O9 O 0.9122(4) 0.4865(5) -0.1272(3)
O10 O 0.9659(4) 0.3104(5) -0.0075(3)
O11 O 1.1722(3) 0.3920(5) 0.3218(3)
H2 H 1.1192 0.4358 0.3322
H3 H 1.2076 0.3341 0.3705
N1 N 0.7139(4) 0.1529(5) 0.2265(4)
H4 H 0.7733 0.0908 0.2359
C1 C 0.7613(5) 0.3058(7) 0.2640(5)
H5 H 0.8166 0.2963 0.3316
H6 H 0.7010 0.3682 0.2649
C2 C 0.6508(6) 0.0952(7) 0.2867(5)
H7 H 0.5805 0.1492 0.2666
H8 H 0.6953 0.1208 0.3554
C3 C 0.6376(5) 0.1600(7) 0.1156(5)
H9 H 0.6119 0.0611 0.0932
H10 H 0.5718 0.2201 0.1046
C4 C 0.6994(6) 0.2202(7) 0.0525(5)
H11 H 0.7656 0.1605 0.0643
H12 H 0.6507 0.2130 -0.0174
C5 C 1.0538(5) 0.0122(7) -0.0118(5)
C6 C 0.9650(5) 0.4414(6) -0.0388(5)
O7B O 0.9537(4) 0.0416(4) 0.0946(3)
O8B O 0.8641(3) -0.0793(5) -0.0519(3)
C5B C 0.9462(5) -0.0122(7) 0.0118(5)
O9B O 1.0878(4) 0.5135(5) 0.1272(3)
O10B O 1.0341(4) 0.6896(5) 0.0075(3)
C6B C 1.0350(5) 0.5586(6) 0.0388(5)
Eu1B Eu 0.90932(2) -0.24728(3) -0.16643(2)
P1B P 1.17130(14) -0.39523(17) -0.18985(12)
P2B P 1.38149(15) 0.10474(19) -0.28385(14)
O1B O 1.1620(4) -0.5584(4) -0.2132(3)
O2B O 1.0659(3) -0.3105(5) -0.2026(3)
O3B O 1.2644(3) -0.3761(5) -0.0790(3)
O4B O 1.2745(4) 0.1954(5) -0.3150(3)
O5B O 1.4596(4) 0.1371(6) -0.1713(4)
H1B H 1.4462 0.2239 -0.1558
O6B O 1.4461(4) 0.1163(5) -0.3496(4)
O11B O 0.8278(3) -0.3920(5) -0.3218(3)
H2B H 0.8808 -0.4358 -0.3322
H3B H 0.7924 -0.3341 -0.3705
N1B N 1.2861(4) -0.1529(5) -0.2265(4)
H4B H 1.2267 -0.0908 -0.2359
C1B C 1.2387(5) -0.3058(7) -0.2640(5)
H5B H 1.1834 -0.2963 -0.3316
H6B H 1.2990 -0.3682 -0.2649
C2B C 1.3492(6) -0.0952(7) -0.2867(5)
H7B H 1.4195 -0.1492 -0.2666
H8B H 1.3047 -0.1208 -0.3554
C3B C 1.3624(5) -0.1600(7) -0.1156(5)
H9B H 1.3881 -0.0611 -0.0932
H10B H 1.4282 -0.2201 -0.1046
C4B C 1.3006(6) -0.2202(7) -0.0525(5)
H11B H 1.2344 -0.1605 -0.0643
H12B H 1.3493 -0.2130 0.0174
Eu1A Eu 0.90932(2) -0.25272(3) 0.33357(2)
Eu1A_2 Eu 0.90932(2) 0.74728(3) 0.33357(2)
Eu1B_2 Eu 0.90932(2) 0.75272(3) -0.16643(2)
Eu1C Eu 1.09068(2) -0.74728(3) -0.33357(2)
Eu1C_2 Eu 1.09068(2) 0.25272(3) -0.33357(2)
O1A O 1.1620(4) 0.0584(4) 0.2868(3)
O1C O 0.8380(4) -0.0584(4) -0.2868(3)
O4A O 1.2745(4) 0.3046(5) 0.1850(3)
O4C O 0.7255(4) -0.3046(5) -0.1850(3)
O9_2 O 0.9122(4) -0.5135(5) -0.1272(3)
O10B_2 O 1.0341(4) -0.3104(5) 0.0075(3)
O12 O 0.3278(4) 0.3392(6) 0.5073(3)
H13 H 0.2952 0.4005 0.5315
H14 H 0.3399 0.2582 0.5399
O13 O 0.5548(4) 0.6091(6) 0.0938(4)
H15 H 0.5041 0.5434 0.0850
H16 H 0.6121 0.5592 0.1000
loop_
_geom_bond_atom_site_label_1
_geom_bond_atom_site_label_2
_geom_bond_site_symmetry_1
_geom_bond_site_symmetry_2
Eu1 O2 1_555 1_555
P1 O1 1_555 1_555
P2 O4 1_555 1_555
O1 Eu1A_2 1_555 1_555
O2 P1 1_555 1_555
O3 P1 1_555 1_555
O4 Eu1A 1_555 1_555
O5 P2 1_555 1_555
H1 O5 1_555 1_555
O6 P2 1_555 1_555
O7 C5 1_555 1_555
O8 Eu1 1_555 1_555
O9 C6 1_555 1_555
O10 Eu1 1_555 1_555
O11 Eu1 1_555 1_555
H2 O11 1_555 1_555
H3 O11 1_555 1_555
N1 H4 1_555 1_555
C1 P1 1_555 1_555
H5 C1 1_555 1_555
H6 C1 1_555 1_555
C2 P2 1_555 1_555
H7 C2 1_555 1_555
H8 C2 1_555 1_555
C3 N1 1_555 1_555
H9 C3 1_555 1_555
H10 C3 1_555 1_555
C4 O3 1_555 1_555
H11 C4 1_555 1_555
H12 C4 1_555 1_555
C5 O8 1_555 1_555
C6 O10 1_555 1_555
O12 H13 1_555 1_555
H14 O12 1_555 1_555
O13 H15 1_555 1_555
H16 O13 1_555 1_555
O7B Eu1 1_555 1_555
O8B C5B 1_555 1_555
C5B C5 1_555 1_555
O9B Eu1 1_555 1_555
O10B C6B 1_555 1_555
C6B C6 1_555 1_555
Eu1B O7 1_555 1_555
P1B O1B 1_555 1_555
P2B O4B 1_555 1_555
O1B Eu1C 1_555 1_555
O2B Eu1B 1_555 1_555
O3B P1B 1_555 1_555
O4B Eu1C_2 1_555 1_555
O5B P2B 1_555 1_555
H1B O5B 1_555 1_555
O6B P2B 1_555 1_555
O11B Eu1B 1_555 1_555
H2B O11B 1_555 1_555
H3B O11B 1_555 1_555
N1B H4B 1_555 1_555
C1B P1B 1_555 1_555
H5B C1B 1_555 1_555
H6B C1B 1_555 1_555
C2B P2B 1_555 1_555
H7B C2B 1_555 1_555
H8B C2B 1_555 1_555
C3B N1B 1_555 1_555
H9B C3B 1_555 1_555
H10B C3B 1_555 1_555
C4B O3B 1_555 1_555
H11B C4B 1_555 1_555
H12B C4B 1_555 1_555
Eu1B_2 O9 1_555 1_555
O1A Eu1 1_555 1_555
O1C Eu1B 1_555 1_555
O4A Eu1 1_555 1_555
O4C Eu1B 1_555 1_555
O9_2 Eu1B 1_555 1_555
O10B_2 Eu1B 1_555 1_555
N1 C1 1_555 1_555
N1 C2 1_555 1_555
C3 C4 1_555 1_555
O7B C5B 1_555 1_555
O8B Eu1B 1_555 1_555
O9B C6B 1_555 1_555
O10B Eu1B_2 1_555 1_555
P1B O2B 1_555 1_555
N1B C1B 1_555 1_555
N1B C2B 1_555 1_555
C3B C4B 1_555 1_555

#END
