
#######################################################################
#
#                 Cambridge Crystallographic Data Centre
#                                CCDC 
#
#######################################################################
#
# If this CIF has been generated from an entry in the Cambridge 
# Structural Database, then it will include bibliographic, chemical, 
# crystal, experimental, refinement or atomic coordinate data resulting 
# from the CCDC's data processing and validation procedures.
#
#######################################################################

data_DISJIA
_symmetry_cell_setting           monoclinic
_symmetry_space_group_name_H-M   'P 21/c'
_symmetry_Int_Tables_number      14
_space_group_name_Hall           '-P 2ybc'
loop_
_symmetry_equiv_pos_site_id
_symmetry_equiv_pos_as_xyz
1 x,y,z
2 -x,1/2+y,1/2-z
3 -x,-y,-z
4 x,1/2-y,1/2+z
_cell_length_a                   12.7908(13)
_cell_length_b                   8.9552(9)
_cell_length_c                   14.5187(15)
_cell_angle_alpha                90
_cell_angle_beta                 113.4860(10)
_cell_angle_gamma                90
_cell_volume                     1525.26
loop_
_atom_site_label
_atom_site_type_symbol
_atom_site_fract_x
_atom_site_fract_y
_atom_site_fract_z
Sm1 Sm 1.091003(15) 0.24723(2) 0.166965(14)
P1 P 0.82776(8) 0.39458(11) 0.18975(7)
P2 P 0.61752(9) -0.10394(13) 0.28390(9)
O1 O 0.8357(2) 0.5575(3) 0.2120(2)
O2 O 0.9331(2) 0.3107(3) 0.2029(2)
O3 O 0.7338(2) 0.3745(3) 0.0784(2)
O4 O 0.7243(2) -0.1951(3) 0.3150(2)
O5 O 0.5394(3) -0.1364(4) 0.1711(3)
H1 H 0.5528 -0.2231 0.1556
O6 O 0.5526(3) -0.1147(4) 0.3492(3)
O7 O 1.0463(2) -0.0406(3) -0.09471(19)
O8 O 1.1355(2) 0.0788(3) 0.0518(2)
O9 O 0.9123(2) 0.4863(3) -0.1274(2)
O10 O 0.9659(3) 0.3112(3) -0.0077(2)
O11 O 1.1734(2) 0.3925(3) 0.32282(19)
H2 H 1.1204 0.4363 0.3332
H3 H 1.2087 0.3346 0.3715
N1 N 0.7130(3) 0.1523(4) 0.2263(2)
H4 H 0.7724 0.0902 0.2357
C1 C 0.7600(3) 0.3050(5) 0.2644(3)
H5 H 0.8153 0.2956 0.3320
H6 H 0.6997 0.3674 0.2654
C2 C 0.6507(4) 0.0942(5) 0.2869(3)
H7 H 0.5804 0.1482 0.2667
H8 H 0.6952 0.1198 0.3555
C3 C 0.6375(3) 0.1577(5) 0.1150(3)
H9 H 0.6118 0.0589 0.0925
H10 H 0.5717 0.2179 0.1040
C4 C 0.6990(4) 0.2191(5) 0.0530(3)
H11 H 0.7652 0.1594 0.0648
H12 H 0.6503 0.2120 -0.0168
C5 C 1.0532(3) 0.0116(4) -0.0119(3)
C6 C 0.9647(3) 0.4412(4) -0.0391(3)
O7B O 0.9537(2) 0.0406(3) 0.09471(19)
O8B O 0.8645(2) -0.0788(3) -0.0518(2)
C5B C 0.9468(3) -0.0116(4) 0.0119(3)
O9B O 1.0877(2) 0.5137(3) 0.1274(2)
O10B O 1.0341(3) 0.6888(3) 0.0077(2)
C6B C 1.0353(3) 0.5588(4) 0.0391(3)
Sm1B Sm 0.908997(15) -0.24723(2) -0.166965(14)
P1B P 1.17224(8) -0.39458(11) -0.18975(7)
P2B P 1.38248(9) 0.10394(13) -0.28390(9)
O1B O 1.1643(2) -0.5575(3) -0.2120(2)
O2B O 1.0669(2) -0.3107(3) -0.2029(2)
O3B O 1.2662(2) -0.3745(3) -0.0784(2)
O4B O 1.2757(2) 0.1951(3) -0.3150(2)
O5B O 1.4606(3) 0.1364(4) -0.1711(3)
H1B H 1.4472 0.2231 -0.1556
O6B O 1.4474(3) 0.1147(4) -0.3492(3)
O11B O 0.8266(2) -0.3925(3) -0.32282(19)
H2B H 0.8796 -0.4363 -0.3332
H3B H 0.7913 -0.3346 -0.3715
N1B N 1.2870(3) -0.1523(4) -0.2263(2)
H4B H 1.2276 -0.0902 -0.2357
C1B C 1.2400(3) -0.3050(5) -0.2644(3)
H5B H 1.1847 -0.2956 -0.3320
H6B H 1.3003 -0.3674 -0.2654
C2B C 1.3493(4) -0.0942(5) -0.2869(3)
H7B H 1.4196 -0.1482 -0.2667
H8B H 1.3048 -0.1198 -0.3555
C3B C 1.3625(3) -0.1577(5) -0.1150(3)
H9B H 1.3882 -0.0589 -0.0925
H10B H 1.4283 -0.2179 -0.1040
C4B C 1.3010(4) -0.2191(5) -0.0530(3)
H11B H 1.2348 -0.1594 -0.0648
H12B H 1.3497 -0.2120 0.0168
Sm1A Sm 0.908997(15) -0.25277(2) 0.333035(14)
Sm1A_2 Sm 0.908997(15) 0.74723(2) 0.333035(14)
Sm1B_2 Sm 0.908997(15) 0.75277(2) -0.166965(14)
Sm1C Sm 1.091003(15) -0.74723(2) -0.333035(14)
Sm1C_2 Sm 1.091003(15) 0.25277(2) -0.333035(14)
O1A O 1.1643(2) 0.0575(3) 0.2880(2)
O1C O 0.8357(2) -0.0575(3) -0.2880(2)
O4A O 1.2757(2) 0.3049(3) 0.1850(2)
O4C O 0.7243(2) -0.3049(3) -0.1850(2)
O9_2 O 0.9123(2) -0.5137(3) -0.1274(2)
O10B_2 O 1.0341(3) -0.3112(3) 0.0077(2)
O12 O 0.3278(3) 0.3392(4) 0.5077(2)
H13 H 0.2952 0.4005 0.5320
H14 H 0.3399 0.2583 0.5403
O13 O 0.5539(3) 0.6109(4) 0.0935(3)
H15 H 0.5032 0.5452 0.0846
H16 H 0.6117 0.5591 0.0996
loop_
_geom_bond_atom_site_label_1
_geom_bond_atom_site_label_2
_geom_bond_site_symmetry_1
_geom_bond_site_symmetry_2
Sm1 O2 1_555 1_555
P1 O1 1_555 1_555
P2 O4 1_555 1_555
O1 Sm1A_2 1_555 1_555
O2 P1 1_555 1_555
O3 P1 1_555 1_555
O4 Sm1A 1_555 1_555
O5 P2 1_555 1_555
H1 O5 1_555 1_555
O6 P2 1_555 1_555
O7 C5 1_555 1_555
O8 Sm1 1_555 1_555
O9 C6 1_555 1_555
O10 Sm1 1_555 1_555
O11 Sm1 1_555 1_555
H2 O11 1_555 1_555
H3 O11 1_555 1_555
N1 H4 1_555 1_555
C1 P1 1_555 1_555
H5 C1 1_555 1_555
H6 C1 1_555 1_555
C2 P2 1_555 1_555
H7 C2 1_555 1_555
H8 C2 1_555 1_555
C3 N1 1_555 1_555
H9 C3 1_555 1_555
H10 C3 1_555 1_555
C4 O3 1_555 1_555
H11 C4 1_555 1_555
H12 C4 1_555 1_555
C5 O8 1_555 1_555
C6 O10 1_555 1_555
O12 H13 1_555 1_555
H14 O12 1_555 1_555
O13 H15 1_555 1_555
H16 O13 1_555 1_555
O7B Sm1 1_555 1_555
O8B C5B 1_555 1_555
C5B C5 1_555 1_555
O9B Sm1 1_555 1_555
O10B C6B 1_555 1_555
C6B C6 1_555 1_555
Sm1B O7 1_555 1_555
P1B O1B 1_555 1_555
P2B O4B 1_555 1_555
O1B Sm1C 1_555 1_555
O2B Sm1B 1_555 1_555
O3B P1B 1_555 1_555
O4B Sm1C_2 1_555 1_555
O5B P2B 1_555 1_555
H1B O5B 1_555 1_555
O6B P2B 1_555 1_555
O11B Sm1B 1_555 1_555
H2B O11B 1_555 1_555
H3B O11B 1_555 1_555
N1B H4B 1_555 1_555
C1B P1B 1_555 1_555
H5B C1B 1_555 1_555
H6B C1B 1_555 1_555
C2B P2B 1_555 1_555
H7B C2B 1_555 1_555
H8B C2B 1_555 1_555
C3B N1B 1_555 1_555
H9B C3B 1_555 1_555
H10B C3B 1_555 1_555
C4B O3B 1_555 1_555
H11B C4B 1_555 1_555
H12B C4B 1_555 1_555
Sm1B_2 O9 1_555 1_555
O1A Sm1 1_555 1_555
O1C Sm1B 1_555 1_555
O4A Sm1 1_555 1_555
O4C Sm1B 1_555 1_555
O9_2 Sm1B 1_555 1_555
O10B_2 Sm1B 1_555 1_555
N1 C1 1_555 1_555
N1 C2 1_555 1_555
C3 C4 1_555 1_555
O7B C5B 1_555 1_555
O8B Sm1B 1_555 1_555
O9B C6B 1_555 1_555
O10B Sm1B_2 1_555 1_555
P1B O2B 1_555 1_555
N1B C1B 1_555 1_555
N1B C2B 1_555 1_555
C3B C4B 1_555 1_555

#END
