
#######################################################################
#
#                 Cambridge Crystallographic Data Centre
#                                CCDC 
#
#######################################################################
#
# If this CIF has been generated from an entry in the Cambridge 
# Structural Database, then it will include bibliographic, chemical, 
# crystal, experimental, refinement or atomic coordinate data resulting 
# from the CCDC's data processing and validation procedures.
#
#######################################################################

data_DISNID
_symmetry_cell_setting           triclinic
_symmetry_space_group_name_H-M   'P -1'
_symmetry_Int_Tables_number      2
_space_group_name_Hall           '-P 1'
loop_
_symmetry_equiv_pos_site_id
_symmetry_equiv_pos_as_xyz
1 x,y,z
2 -x,-y,-z
_cell_length_a                   13.1004(2)
_cell_length_b                   13.8576(2)
_cell_length_c                   15.6071(2)
_cell_angle_alpha                71.6889(6)
_cell_angle_beta                 71.3255(6)
_cell_angle_gamma                84.7972(6)
_cell_volume                     2548.08
loop_
_atom_site_label
_atom_site_type_symbol
_atom_site_fract_x
_atom_site_fract_y
_atom_site_fract_z
C1 C 1.0224(6) 0.0835(6) 0.1065(6)
C2 C 1.1003(8) 0.2468(8) -0.1245(7)
C3 C 1.1702(9) 0.2262(10) -0.2040(7)
C4 C 1.2172(8) 0.1326(9) -0.2001(7)
C5 C 1.2017(7) 0.0570(8) -0.1180(6)
C6 C 1.1314(6) 0.0760(6) -0.0350(5)
C7 C 1.0806(7) 0.1702(7) -0.0399(6)
C8 C 0.9785(6) -0.0324(6) 0.2589(5)
C9 C 1.1272(7) -0.0751(6) 0.1059(6)
C10 C 0.9652(6) 0.2096(6) 0.3276(5)
C11 C 1.0057(8) 0.2649(7) 0.2319(7)
C12 C 1.0968(10) 0.3235(9) 0.2043(9)
C13 C 1.1466(10) 0.3288(10) 0.2683(12)
C14 C 1.1070(9) 0.2730(9) 0.3606(10)
C15 C 1.0166(7) 0.2152(7) 0.3897(7)
C16 C 0.7632(6) 0.0728(6) 0.5378(5)
C17 C 0.8061(8) -0.0037(7) 0.5955(6)
C18 C 0.7708(9) -0.0218(8) 0.6920(6)
C19 C 0.6882(9) 0.0327(8) 0.7326(7)
C20 C 0.6428(9) 0.1064(7) 0.6771(7)
C21 C 0.6781(7) 0.1276(7) 0.5806(6)
C22 C 0.6960(6) 0.1213(6) 0.3181(5)
C23 C 0.5945(8) 0.0922(8) 0.3766(7)
C24 C 0.5082(8) 0.0993(9) 0.3417(8)
C25 C 0.5277(9) 0.1393(9) 0.2456(7)
C26 C 0.6269(8) 0.1725(9) 0.1859(7)
C27 C 0.7138(7) 0.1639(7) 0.2204(6)
C28 C 0.5228(6) 0.5832(6) 0.3290(5)
C29 C 0.5850(8) 0.7326(8) 0.4499(7)
C30 C 0.6533(9) 0.7085(9) 0.5053(7)
C31 C 0.7064(8) 0.6183(9) 0.5185(7)
C32 C 0.6976(7) 0.5471(8) 0.4760(6)
C33 C 0.6291(6) 0.5708(7) 0.4200(6)
C34 C 0.5730(7) 0.6621(7) 0.4073(6)
C35 C 0.4873(6) 0.4767(6) 0.2543(5)
C36 C 0.6389(6) 0.4300(6) 0.3492(6)
C37 C 0.1971(6) 0.6215(6) 0.2705(6)
C38 C 0.2157(7) 0.6589(7) 0.3370(6)
C39 C 0.1321(9) 0.6642(9) 0.4140(7)
C40 C 0.0309(10) 0.6315(10) 0.4275(7)
C41 C 0.0115(8) 0.5941(9) 0.3620(8)
C42 C 0.0973(7) 0.5887(7) 0.2825(6)
C43 C 0.2596(6) 0.5746(6) 0.0416(5)
C44 C 0.1683(7) 0.6209(7) 0.0232(6)
C45 C 0.1248(9) 0.5901(8) -0.0348(7)
C46 C 0.1725(9) 0.5141(8) -0.0736(7)
C47 C 0.2634(8) 0.4694(8) -0.0551(6)
C48 C 0.3068(7) 0.4988(7) 0.0033(6)
C49 C 0.4646(7) 0.7204(7) 0.0690(5)
C50 C 0.5290(7) 0.7216(7) -0.0205(6)
C51 C 0.6204(9) 0.7811(10) -0.0656(8)
C52 C 0.6485(11) 0.8396(12) -0.0244(9)
C53 C 0.5862(14) 0.8409(13) 0.0648(11)
C54 C 0.4948(12) 0.7800(11) 0.1121(8)
H1 H 1.0675 0.3098 -0.128
H2 H 1.1855 0.2771 -0.262
H3 H 1.2611 0.1216 -0.2561
H4 H 1.2351 -0.0051 -0.1159
H5 H 0.9713 0.2624 0.1887
H6 H 1.1255 0.3607 0.1404
H7 H 1.2074 0.3701 0.2481
H8 H 1.1418 0.2744 0.4036
H9 H 0.9893 0.1787 0.4538
H10 H 0.8599 -0.044 0.5691
H11 H 0.8039 -0.0714 0.73
H12 H 0.6628 0.018 0.798
H13 H 0.5871 0.1441 0.7048
H14 H 0.6453 0.1782 0.5434
H15 H 0.5828 0.0668 0.4421
H16 H 0.4396 0.0767 0.3818
H17 H 0.4707 0.1457 0.2208
H18 H 0.6372 0.2002 0.1213
H19 H 0.7823 0.186 0.1796
H20 H 0.5496 0.7946 0.4406
H21 H 0.6636 0.7553 0.5335
H22 H 0.7496 0.6043 0.558
H23 H 0.7359 0.4868 0.4839
H24 H 0.2841 0.6812 0.3286
H25 H 0.1445 0.688 0.4594
H26 H -0.0255 0.6355 0.4805
H27 H -0.0575 0.5717 0.371
H28 H 0.0863 0.5641 0.237
H29 H 0.1355 0.6727 0.0487
H30 H 0.0635 0.6224 -0.0482
H31 H 0.1415 0.4928 -0.1109
H32 H 0.2969 0.4188 -0.0817
H33 H 0.3674 0.4661 0.0171
H34 H 0.5091 0.6825 -0.0513
H35 H 0.6637 0.7798 -0.1255
H36 H 0.7104 0.8802 -0.0556
H37 H 0.6052 0.8828 0.0938
H38 H 0.4534 0.7798 0.173
N1 N 1.0947(5) 0.0189(5) 0.0607(4)
N2 N 1.0123(6) 0.1714(6) 0.0504(5)
N3 N 0.9657(6) 0.0552(5) 0.2021(5)
N4 N 0.5990(5) 0.5190(5) 0.3674(4)
N5 N 0.5085(6) 0.6664(5) 0.3521(5)
N6 N 0.4708(5) 0.5600(5) 0.2754(5)
S1 S 1.06712(19) -0.12674(16) 0.22698(16)
S2 S 1.2227(3) -0.1412(2) 0.0529(2)
S3 S 0.9088(2) -0.06882(17) 0.37869(15)
S4 S 0.57989(18) 0.38259(17) 0.28521(16)
S5 S 0.7393(2) 0.3654(2) 0.3800(2)
S6 S 0.42163(18) 0.44357(17) 0.18773(17)
Pb1 Pb 0.82474(2) 0.11032(2) 0.38094(2)
Pb2 Pb 0.32507(2) 0.61877(2) 0.13996(2)
S2_2 S 0.2227(3) 0.8588(2) 0.0529(2)
Pb2_2 Pb 1.32507(2) -0.38123(2) 0.13996(2)
loop_
_geom_bond_atom_site_label_1
_geom_bond_atom_site_label_2
_geom_bond_site_symmetry_1
_geom_bond_site_symmetry_2
C1 N1 1_555 1_555
C2 C3 1_555 1_555
C3 C4 1_555 1_555
C4 C5 1_555 1_555
C5 C6 1_555 1_555
C6 C7 1_555 1_555
C7 C2 1_555 1_555
C8 N3 1_555 1_555
C9 N1 1_555 1_555
C10 C11 1_555 1_555
C11 C12 1_555 1_555
C12 C13 1_555 1_555
C13 C14 1_555 1_555
C14 C15 1_555 1_555
C15 C10 1_555 1_555
C16 C17 1_555 1_555
C17 C18 1_555 1_555
C18 C19 1_555 1_555
C19 C20 1_555 1_555
C20 C21 1_555 1_555
C21 C16 1_555 1_555
C22 C23 1_555 1_555
C23 C24 1_555 1_555
C24 C25 1_555 1_555
C25 C26 1_555 1_555
C26 C27 1_555 1_555
C27 C22 1_555 1_555
C28 N4 1_555 1_555
C29 C30 1_555 1_555
C30 C31 1_555 1_555
C31 C32 1_555 1_555
C32 C33 1_555 1_555
C33 C34 1_555 1_555
C34 C29 1_555 1_555
C35 N6 1_555 1_555
C36 N4 1_555 1_555
C37 C38 1_555 1_555
C38 C39 1_555 1_555
C39 C40 1_555 1_555
C40 C41 1_555 1_555
C41 C42 1_555 1_555
C42 C37 1_555 1_555
C43 C44 1_555 1_555
C44 C45 1_555 1_555
C45 C46 1_555 1_555
C46 C47 1_555 1_555
C47 C48 1_555 1_555
C48 C43 1_555 1_555
C49 C50 1_555 1_555
C50 C51 1_555 1_555
C51 C52 1_555 1_555
C52 C53 1_555 1_555
C53 C54 1_555 1_555
C54 C49 1_555 1_555
H1 C2 1_555 1_555
H2 C3 1_555 1_555
H3 C4 1_555 1_555
H4 C5 1_555 1_555
H5 C11 1_555 1_555
H6 C12 1_555 1_555
H7 C13 1_555 1_555
H8 C14 1_555 1_555
H9 C15 1_555 1_555
H10 C17 1_555 1_555
H11 C18 1_555 1_555
H12 C19 1_555 1_555
H13 C20 1_555 1_555
H14 C21 1_555 1_555
H15 C23 1_555 1_555
H16 C24 1_555 1_555
H17 C25 1_555 1_555
H18 C26 1_555 1_555
H19 C27 1_555 1_555
H20 C29 1_555 1_555
H21 C30 1_555 1_555
H22 C31 1_555 1_555
H23 C32 1_555 1_555
H24 C38 1_555 1_555
H25 C39 1_555 1_555
H26 C40 1_555 1_555
H27 C41 1_555 1_555
H28 C42 1_555 1_555
H29 C44 1_555 1_555
H30 C45 1_555 1_555
H31 C46 1_555 1_555
H32 C47 1_555 1_555
H33 C48 1_555 1_555
H34 C50 1_555 1_555
H35 C51 1_555 1_555
H36 C52 1_555 1_555
H37 C53 1_555 1_555
H38 C54 1_555 1_555
N1 C6 1_555 1_555
N2 C1 1_555 1_555
N3 C1 1_555 1_555
N4 C33 1_555 1_555
N5 C28 1_555 1_555
N6 C28 1_555 1_555
S1 C8 1_555 1_555
S2 C9 1_555 1_555
S3 C8 1_555 1_555
S4 C35 1_555 1_555
S5 C36 1_555 1_555
S6 C35 1_555 1_555
Pb1 C10 1_555 1_555
Pb2 C37 1_555 1_555
S2_2 Pb2 1_555 1_555
Pb2_2 S2 1_555 1_555
C7 N2 1_555 1_555
C9 S1 1_555 1_555
C16 Pb1 1_555 1_555
C22 Pb1 1_555 1_555
C34 N5 1_555 1_555
C36 S4 1_555 1_555
C43 Pb2 1_555 1_555
C49 Pb2 1_555 1_555
N3 Pb1 1_555 1_555
N6 Pb2 1_555 1_555
S3 Pb1 1_555 1_555
S5 Pb1 1_555 1_555
S6 Pb2 1_555 1_555

#END
