
#######################################################################
#
#                 Cambridge Crystallographic Data Centre
#                                CCDC 
#
#######################################################################
#
# If this CIF has been generated from an entry in the Cambridge 
# Structural Database, then it will include bibliographic, chemical, 
# crystal, experimental, refinement or atomic coordinate data resulting 
# from the CCDC's data processing and validation procedures.
#
#######################################################################

data_DISRAY01
_symmetry_cell_setting           triclinic
_symmetry_space_group_name_H-M   'P -1'
_symmetry_Int_Tables_number      2
_space_group_name_Hall           '-P 1'
loop_
_symmetry_equiv_pos_site_id
_symmetry_equiv_pos_as_xyz
1 x,y,z
2 -x,-y,-z
_cell_length_a                   12.006
_cell_length_b                   12.024
_cell_length_c                   12.569
_cell_angle_alpha                103.64
_cell_angle_beta                 91.87
_cell_angle_gamma                113.88
_cell_volume                     1595.5
loop_
_atom_site_label
_atom_site_type_symbol
_atom_site_fract_x
_atom_site_fract_y
_atom_site_fract_z
La1 La -0.0626 0.3177 0.3622
La2 La -0.2922 0.1149 0.0676
O1 O 0.1080 0.3115 0.4850
O2 O -0.1668 0.2748 0.5290
O3 O -0.1082 0.3368 0.1788
O4 O 0.0928 0.4876 0.5636
O5 O -0.1224 0.0859 0.3716
O6 O 0.1259 0.3202 0.2556
O7 O 0.1264 0.5042 0.3368
O8 O -0.1450 0.0964 0.2024
O9 O -0.2988 0.2170 0.2892
O10 O -0.4186 0.0184 0.2091
O11 O -0.3401 0.0862 -0.1362
O12 O -0.1056 0.1280 -0.0341
O13 O -0.4999 -0.1144 -0.0373
O14 O -0.3164 -0.1099 -0.0149
O15 O -0.2330 0.3363 0.0442
C1 C 0.1485 0.4174 0.5548
C2 C 0.2649 0.4571 0.6383
C3 C 0.3630 0.4268 0.5790
C4 C 0.1758 0.4414 0.2778
C5 C 0.2930 0.5078 0.2268
C6 C 0.3318 0.6450 0.2392
C7 C -0.4296 -0.1716 -0.0588
C8 C -0.4734 -0.3015 -0.1382
C9 C -0.4980 -0.3998 -0.0660
C10 C -0.1410 0.3977 0.1195
C11 C -0.0660 0.5378 0.1415
C12 C -0.1270 0.5962 0.0775
C13 C -0.1478 0.0320 0.2699
C14 C -0.1822 -0.1077 0.2240
C15 C -0.3850 0.1189 0.2903
C16 C -0.4600 0.1076 0.3970
C17 C -0.3174 -0.1918 0.2530
C19 C -0.4824 0.2135 0.4404
O4A O -0.0928 0.5124 0.4364
La1A La 0.0626 0.6823 0.6378
O1A O -0.1080 0.6885 0.5150
C1A C -0.1485 0.5826 0.4452
C2A C -0.2649 0.5429 0.3617
C3A C -0.3630 0.5732 0.4210
O2A O 0.1668 0.7252 0.4710
O3A O 0.1082 0.6632 0.8212
La2A La 0.2922 0.8851 0.9324
O8A O 0.1450 0.9036 0.7976
O5A O 0.1224 0.9141 0.6284
C13A C 0.1478 0.9680 0.7301
C14A C 0.1822 1.1077 0.7760
C17A C 0.3174 1.1918 0.7470
O6A O -0.1259 0.6798 0.7444
C4A C -0.1758 0.5586 0.7222
O7A O -0.1264 0.4958 0.6632
O9A O 0.2988 0.7830 0.7108
O10A O 0.4186 0.9816 0.7909
C15A C 0.3850 0.8811 0.7097
C16A C 0.4600 0.8924 0.6030
C19A C 0.4824 0.7865 0.5596
O11A O 0.3401 0.9138 1.1362
O12A O 0.1056 0.8720 1.0341
O13A O 0.4999 1.1144 1.0373
La2_2 La 0.7078 1.1149 1.0676
O13_2 O 0.5001 0.8856 0.9627
O14A O 0.3164 1.1099 1.0149
C7A C 0.4296 1.1716 1.0588
C8A C 0.4734 1.3015 1.1382
C9A C 0.4980 1.3998 1.0660
O15A O 0.2330 0.6637 0.9558
C10A C 0.1410 0.6023 0.8805
C11A C 0.0660 0.4622 0.8585
C12A C 0.1270 0.4038 0.9225
C5A C -0.2930 0.4922 0.7732
C6A C -0.3318 0.3550 0.7608
O13A_2 O -0.5001 0.1144 0.0373
La2A_2 La -0.7078 -0.1149 -0.0676
S1 S 0.1418 0.8795 1.3040
N1 N 0.1606 1.1010 1.2884
N2 N 0.1372 1.0677 1.4648
C18 C 0.1469 1.0240 1.3595
O16 O 0.1151 1.1710 1.0636
loop_
_geom_bond_atom_site_label_1
_geom_bond_atom_site_label_2
_geom_bond_site_symmetry_1
_geom_bond_site_symmetry_2
La1 O1 1_555 1_555
La2 O3 1_555 1_555
S1 C18 1_555 1_555
O1 C1 1_555 1_555
O2 La1 1_555 1_555
O3 La1 1_555 1_555
O4 La1 1_555 1_555
O5 La1 1_555 1_555
O6 La1 1_555 1_555
O7 La1 1_555 1_555
O8 La1 1_555 1_555
O9 La1 1_555 1_555
O10 La2 1_555 1_555
O11 La2 1_555 1_555
O12 La2 1_555 1_555
O13 La2 1_555 1_555
O14 La2 1_555 1_555
O15 La2 1_555 1_555
N1 C18 1_555 1_555
N2 C18 1_555 1_555
C1 O4 1_555 1_555
C2 C1 1_555 1_555
C3 C2 1_555 1_555
C4 O6 1_555 1_555
C5 C4 1_555 1_555
C6 C5 1_555 1_555
C7 O13 1_555 1_555
C8 C7 1_555 1_555
C9 C8 1_555 1_555
C10 O3 1_555 1_555
C11 C10 1_555 1_555
C12 C11 1_555 1_555
C13 O5 1_555 1_555
C14 C13 1_555 1_555
C15 O9 1_555 1_555
C16 C15 1_555 1_555
C17 C14 1_555 1_555
C19 C16 1_555 1_555
O4A La1 1_555 1_555
La1A O4 1_555 1_555
O1A La1A 1_555 1_555
C1A O4A 1_555 1_555
C2A C1A 1_555 1_555
C3A C2A 1_555 1_555
O2A La1A 1_555 1_555
O3A La1A 1_555 1_555
La2A O3A 1_555 1_555
O8A La1A 1_555 1_555
O5A La1A 1_555 1_555
C13A O8A 1_555 1_555
C14A C13A 1_555 1_555
C17A C14A 1_555 1_555
O6A La1A 1_555 1_555
C4A O6A 1_555 1_555
O7A La1A 1_555 1_555
O9A La1A 1_555 1_555
O10A La2A 1_555 1_555
C15A O9A 1_555 1_555
C16A C15A 1_555 1_555
C19A C16A 1_555 1_555
O11A La2A 1_555 1_555
O12A La2A 1_555 1_555
O13A La2A 1_555 1_555
La2_2 O13A 1_555 1_555
O13_2 La2A 1_555 1_555
O14A La2A 1_555 1_555
C7A O13A 1_555 1_555
C8A C7A 1_555 1_555
C9A C8A 1_555 1_555
O15A La2A 1_555 1_555
C10A O3A 1_555 1_555
C11A C10A 1_555 1_555
C12A C11A 1_555 1_555
C5A C4A 1_555 1_555
C6A C5A 1_555 1_555
O13A_2 La2 1_555 1_555
La2A_2 O13 1_555 1_555
La2 O8 1_555 1_555
La2 O9 1_555 1_555
O7 C4 1_555 1_555
O8 C13 1_555 1_555
O10 C15 1_555 1_555
O14 C7 1_555 1_555
O15 C10 1_555 1_555
O4A La1A 1_555 1_555
O1A C1A 1_555 1_555
La2A O8A 1_555 1_555
La2A O9A 1_555 1_555
O5A C13A 1_555 1_555
C4A O7A 1_555 1_555
O10A C15A 1_555 1_555
La2_2 O13_2 1_555 1_555
O14A C7A 1_555 1_555
O15A C10A 1_555 1_555
O13A_2 La2A_2 1_555 1_555

#END
