
#######################################################################
#
#                 Cambridge Crystallographic Data Centre
#                                CCDC 
#
#######################################################################
#
# If this CIF has been generated from an entry in the Cambridge 
# Structural Database, then it will include bibliographic, chemical, 
# crystal, experimental, refinement or atomic coordinate data resulting 
# from the CCDC's data processing and validation procedures.
#
#######################################################################

data_DISRAY
_symmetry_cell_setting           triclinic
_symmetry_space_group_name_H-M   'P 1'
_symmetry_Int_Tables_number      1
_space_group_name_Hall           'P 1'
loop_
_symmetry_equiv_pos_site_id
_symmetry_equiv_pos_as_xyz
1 x,y,z
_cell_length_a                   12.006
_cell_length_b                   12.024
_cell_length_c                   12.569
_cell_angle_alpha                103.64(2)
_cell_angle_beta                 91.87(2)
_cell_angle_gamma                113.88(3)
_cell_volume                     1595.5
loop_
_atom_site_label
_atom_site_type_symbol
_atom_site_fract_x
_atom_site_fract_y
_atom_site_fract_z
La1 La 0.0000 0.0000 0.0000
La2 La 0.1253 0.3646(1) 0.2755(1)
La3 La 0.3566(1) 0.5685(1) 0.5691(1)
La4 La -0.2279(1) -0.2017(3) -0.2957(1)
O1 O 0.1845(10) 0.0003(10) 0.1194(9)
O2 O -0.0234(24) 0.1944(19) 0.0732(19)
O3 O -0.0999(12) -0.0441(10) 0.1621(9)
O4 O -0.0481(14) 0.0187(16) -0.1869(22)
O5 O -0.2323(17) -0.1025(20) -0.0729(23)
O6 O 0.1903(11) 0.1849(10) -0.0269(10)
O7 O 0.1949(25) 0.0043(23) -0.1027(18)
O8 O 0.1623(8) 0.1696(8) 0.2003(8)
O9 O 0.1818(15) 0.5994(13) 0.2646(12)
O10 O 0.1684(13) 0.3452(18) 0.4554(15)
O11 O -0.0569(19) 0.3638(19) 0.3862(18)
O12 O -0.0625(15) 0.1764(15) 0.2994(14)
O13 O -0.0314(16) 0.3773(14) 0.1493(12)
O14 O 0.2337(13) 0.4062(15) 0.1042(12)
O15 O 0.2177(20) 0.5927(11) 0.4324(17)
O16 O 0.3653(19) 0.4636(19) 0.3486(18)
O17 O 0.4845(24) 0.6695(24) 0.4306(22)
O18 O -0.4324(12) -0.4349(11) -0.3996(9)
O19 O 0.3921(16) 0.7919(21) 0.6546(20)
O20 O 0.4099(17) 0.6076(20) 0.7759(23)
O21 O 0.1699(12) 0.5611(10) 0.6690(9)
O22 O 0.2889(17) 0.3466(20) 0.5953(23)
O23 O 0.5674(25) 0.7938(41) 0.6750(37)
O24 O -0.2406(21) -0.4279(23) -0.3752(20)
O25 O -0.2703(16) -0.2201(20) -0.4966(11)
O26 O -0.0414(14) -0.1828(17) -0.3992(11)
O27 O -0.1772(24) 0.0192(29) -0.3163(28)
O28 O -0.3527(16) -0.2936(17) -0.1512(10)
O29 O -0.0723(10) -0.2144(9) -0.1628(8)
O30 O -0.0629(13) -0.2288(11) 0.0077(9)
C1 C 0.2095(32) 0.0923(29) 0.1967(30)
C2 C 0.3180(37) 0.1312(37) 0.2906(31)
C3 C 0.4364(34) 0.1207(34) 0.2052(29)
C4 C -0.1066(16) 0.2416(15) 0.3647(13)
C5 C -0.2192(32) 0.1769(31) 0.4254(27)
C6 C -0.2795(27) 0.0338(26) 0.3798(23)
C7 C -0.0875(20) 0.2574(20) 0.0870(17)
C8 C -0.2118(20) 0.2170(19) 0.0140(17)
C9 C -0.2895(42) 0.2670(41) 0.0471(35)
C10 C -0.3696(32) -0.4934(31) -0.4146(26)
C11 C -0.4010(32) -0.6133(31) -0.5160(27)
C12 C -0.4319(51) -0.7191(48) -0.4252(43)
C13 C 0.4895(22) 0.8497(21) 0.7031(18)
C14 C 0.5459(27) 0.9897(27) 0.7603(23)
C15 C 0.5640(34) 1.0806(34) 0.7067(29)
C16 C -0.0651(28) 0.0807(30) -0.2474(36)
C17 C 0.0128(24) 0.2175(24) -0.2297(21)
C18 C -0.0652(23) 0.2850(23) -0.2682(21)
C19 C 0.2154(15) 0.6508(15) 0.3720(13)
C20 C 0.2564(20) 0.7894(20) 0.4072(17)
C21 C 0.2168(24) 0.2853(24) 0.5136(21)
C22 C 0.4504(42) 0.5536(43) 0.3516(35)
C23 C 0.5154(19) 0.5927(19) 0.2429(16)
C24 C 0.2449(41) 0.1245(41) -0.0797(37)
C25 C 0.3667(28) 0.1925(38) -0.1209(34)
C26 C -0.3197(20) -0.2086(21) -0.0678(17)
C27 C -0.4045(61) -0.1921(58) 0.0369(53)
C28 C 0.3933(41) 0.8779(39) 0.3791(35)
C29 C 0.1448(23) 0.1418(24) 0.4873(20)
C30 C 0.1887(43) 0.0927(41) 0.5768(34)
C31 C -0.0801(16) -0.2853(16) -0.0882(14)
C34 C 0.5282(38) 0.4450(37) 0.2010(31)
C35 C 0.3840(26) 0.3237(25) -0.1418(22)
C36 C -0.1080(25) -0.4260(25) -0.1447(21)
C37 C -0.4366(42) -0.1280(44) 0.0819(36)
C38 C -0.2416(20) -0.5057(20) -0.1150(17)
O18_2 O 0.5676(12) 0.5651(11) 0.6004(9)
La4_2 La 0.7721(1) 0.7983(3) 0.7043(1)
O23_2 O -0.4326(25) -0.2062(41) -0.3250(37)
La3_2 La -0.6434(1) -0.4315(1) -0.4309(1)
S1 S 0.9264(10) 0.8028(9) 0.3353(7)
N1 N 0.9066(21) 0.5756(21) 0.3359(18)
N2 N 0.9296(23) 0.6166(23) 0.1756(21)
C32 C 0.9192(29) 0.6593(29) 0.2839(26)
S2 S 0.2100(9) 0.5618(7) 0.9432(5)
C33 C 0.2130(46) 0.7073(46) 1.0029(41)
N3 N 0.2039(27) 0.7520(26) 1.1053(23)
N4 N 0.2279(27) 0.7777(26) 0.9128(23)
O31 O 0.1836(23) 0.8622(36) 0.7062(33)
O32 O 0.9534(19) 0.5201(19) 0.5789(14)
loop_
_geom_bond_atom_site_label_1
_geom_bond_atom_site_label_2
_geom_bond_site_symmetry_1
_geom_bond_site_symmetry_2
La1 O1 1_555 1_555
La2 O2 1_555 1_555
La3 O10 1_555 1_555
La4 O4 1_555 1_555
S1 C32 1_555 1_555
S2 C33 1_555 1_555
O1 C1 1_555 1_555
O2 La1 1_555 1_555
O3 La1 1_555 1_555
O4 La1 1_555 1_555
O5 La1 1_555 1_555
O6 La1 1_555 1_555
O7 La1 1_555 1_555
O8 La1 1_555 1_555
O9 La2 1_555 1_555
O10 La2 1_555 1_555
O11 La2 1_555 1_555
O12 La2 1_555 1_555
O13 La2 1_555 1_555
O14 La2 1_555 1_555
O15 La2 1_555 1_555
O16 La2 1_555 1_555
O17 La3 1_555 1_555
O18 La4 1_555 1_555
O19 La3 1_555 1_555
O20 La3 1_555 1_555
O21 La3 1_555 1_555
O22 La3 1_555 1_555
O23 La3 1_555 1_555
O24 La4 1_555 1_555
O25 La4 1_555 1_555
O26 La4 1_555 1_555
O27 La4 1_555 1_555
O28 La4 1_555 1_555
O29 La1 1_555 1_555
O30 La1 1_555 1_555
N1 C32 1_555 1_555
N2 C32 1_555 1_555
C1 O8 1_555 1_555
C2 C1 1_555 1_555
C3 C2 1_555 1_555
C4 O11 1_555 1_555
C5 C4 1_555 1_555
C6 C5 1_555 1_555
C7 O2 1_555 1_555
C8 C7 1_555 1_555
C9 C8 1_555 1_555
C10 O18 1_555 1_555
C11 C10 1_555 1_555
C12 C11 1_555 1_555
C13 O19 1_555 1_555
C14 C13 1_555 1_555
C15 C14 1_555 1_555
C16 O4 1_555 1_555
C17 C16 1_555 1_555
C18 C17 1_555 1_555
C19 O9 1_555 1_555
C20 C19 1_555 1_555
C21 O10 1_555 1_555
C22 O16 1_555 1_555
C23 C22 1_555 1_555
C24 O6 1_555 1_555
C25 C24 1_555 1_555
C26 O5 1_555 1_555
C27 C26 1_555 1_555
C28 C20 1_555 1_555
C29 C21 1_555 1_555
C30 C29 1_555 1_555
C31 O29 1_555 1_555
C33 N3 1_555 1_555
C34 C23 1_555 1_555
C35 C25 1_555 1_555
C36 C31 1_555 1_555
C37 C27 1_555 1_555
C38 C36 1_555 1_555
N4 C33 1_555 1_555
O18_2 La3 1_555 1_555
La4_2 O23 1_555 1_555
O23_2 La4 1_555 1_555
La3_2 O18 1_555 1_555
La2 O8 1_555 1_555
La3 O16 1_555 1_555
La3 O15 1_555 1_555
La4 O5 1_555 1_555
La4 O29 1_555 1_555
O7 C24 1_555 1_555
O12 C4 1_555 1_555
O13 C7 1_555 1_555
O15 C19 1_555 1_555
O17 C22 1_555 1_555
O22 C21 1_555 1_555
O23 C13 1_555 1_555
O24 C10 1_555 1_555
O27 C16 1_555 1_555
O28 C26 1_555 1_555
O30 C31 1_555 1_555
O18_2 La4_2 1_555 1_555
O23_2 La3_2 1_555 1_555

#END
