
#######################################################################
#
#                 Cambridge Crystallographic Data Centre
#                                CCDC 
#
#######################################################################
#
# If this CIF has been generated from an entry in the Cambridge 
# Structural Database, then it will include bibliographic, chemical, 
# crystal, experimental, refinement or atomic coordinate data resulting 
# from the CCDC's data processing and validation procedures.
#
#######################################################################

data_DISROO
_symmetry_cell_setting           monoclinic
_symmetry_space_group_name_H-M   'P 21/c'
_symmetry_Int_Tables_number      14
_space_group_name_Hall           '-P 2ybc'
loop_
_symmetry_equiv_pos_site_id
_symmetry_equiv_pos_as_xyz
1 x,y,z
2 -x,1/2+y,1/2-z
3 -x,-y,-z
4 x,1/2-y,1/2+z
_cell_length_a                   11.6002(2)
_cell_length_b                   6.90176(12)
_cell_length_c                   17.1007(4)
_cell_angle_alpha                90
_cell_angle_beta                 104.866(2)
_cell_angle_gamma                90
_cell_volume                     1323.29
loop_
_atom_site_label
_atom_site_type_symbol
_atom_site_fract_x
_atom_site_fract_y
_atom_site_fract_z
Ag1 Ag 0.938903(13) 0.65975(2) 0.225906(9)
S1 S 0.68005(4) 0.61022(7) 0.09924(3)
O1 O 0.72401(13) 0.6488(2) 0.18621(9)
C1 C 1.2011(2) 0.8348(3) 0.00230(13)
H1 H 1.2438 0.8133 -0.0361
O2 O 0.61437(13) 0.4293(2) 0.08276(9)
C2 C 1.08848(19) 0.7565(3) -0.00763(12)
H2 H 1.0547 0.6818 -0.0530
O3 O 0.77349(13) 0.6277(2) 0.05696(10)
C3 C 0.57686(19) 0.7969(3) 0.06173(13)
H3 H 0.5172 0.7992 0.0916
H4 H 0.5396 0.7740 0.0056
H5 H 0.6177 0.9191 0.0676
C4 C 1.36680(19) 0.6391(3) 0.27216(13)
H6 H 1.4046 0.7069 0.3187
C5 C 1.36989(18) 0.4936(3) 0.14670(13)
H7 H 1.4100 0.4604 0.1080
C6 C 1.42964(18) 0.5879(3) 0.21632(13)
H8 H 1.5104 0.6166 0.2257
C7 C 1.24891(19) 0.9452(3) 0.07014(13)
H9 H 1.3240 1.0006 0.0772
O4 O 1.07896(12) 0.4418(2) 0.17862(9)
N1 N 1.07624(15) 0.8969(2) 0.11625(10)
N2 N 1.19221(14) 0.4935(2) 0.19076(10)
C8 C 1.24856(19) 0.5894(3) 0.25863(12)
H10 H 1.2070 0.6220 0.2966
O5 O 1.01452(13) 0.9269(2) 0.17109(9)
C9 C 1.02651(18) 0.7897(3) 0.04994(12)
H11 H 0.9505 0.7384 0.0432
C10 C 1.18600(18) 0.9738(3) 0.12739(12)
H12 H 1.2192 1.0459 0.1736
C11 C 1.25113(18) 0.4483(3) 0.13428(12)
H13 H 1.2110 0.3862 0.0868
Ag1A Ag 1.061097(13) 0.15975(2) 0.274094(9)
Ag1A_2 Ag 1.061097(13) 1.15975(2) 0.274094(9)
O4A O 0.92104(12) 0.9418(2) 0.32138(9)
O5A O 0.98548(13) 0.4269(2) 0.32891(9)
loop_
_geom_bond_atom_site_label_1
_geom_bond_atom_site_label_2
_geom_bond_site_symmetry_1
_geom_bond_site_symmetry_2
Ag1 O1 1_555 1_555
S1 O1 1_555 1_555
C1 H1 1_555 1_555
O2 S1 1_555 1_555
C2 C1 1_555 1_555
H2 C2 1_555 1_555
O3 S1 1_555 1_555
C3 S1 1_555 1_555
H3 C3 1_555 1_555
H4 C3 1_555 1_555
H5 C3 1_555 1_555
C4 H6 1_555 1_555
C5 H7 1_555 1_555
C6 C4 1_555 1_555
H8 C6 1_555 1_555
C7 C1 1_555 1_555
H9 C7 1_555 1_555
O4 Ag1 1_555 1_555
N1 O5 1_555 1_555
N2 O4 1_555 1_555
C8 C4 1_555 1_555
H10 C8 1_555 1_555
O5 Ag1 1_555 1_555
C9 C2 1_555 1_555
H11 C9 1_555 1_555
C10 C7 1_555 1_555
H12 C10 1_555 1_555
C11 C5 1_555 1_555
H13 C11 1_555 1_555
Ag1A O4 1_555 1_555
Ag1A_2 O5 1_555 1_555
O4A Ag1 1_555 1_555
O5A Ag1 1_555 1_555
C5 C6 1_555 1_555
N1 C9 1_555 1_555
N1 C10 1_555 1_555
N2 C8 1_555 1_555
N2 C11 1_555 1_555
Ag1A O5A 1_555 1_555
Ag1A_2 O4A 1_555 1_555

#END
