
#######################################################################
#
#                 Cambridge Crystallographic Data Centre
#                                CCDC 
#
#######################################################################
#
# If this CIF has been generated from an entry in the Cambridge 
# Structural Database, then it will include bibliographic, chemical, 
# crystal, experimental, refinement or atomic coordinate data resulting 
# from the CCDC's data processing and validation procedures.
#
#######################################################################

data_DISSIJ
_symmetry_cell_setting           monoclinic
_symmetry_space_group_name_H-M   'P 21'
_symmetry_Int_Tables_number      4
_space_group_name_Hall           'P 2yb'
loop_
_symmetry_equiv_pos_site_id
_symmetry_equiv_pos_as_xyz
1 x,y,z
2 -x,1/2+y,-z
_cell_length_a                   7.0275(3)
_cell_length_b                   25.8608(10)
_cell_length_c                   14.6674(4)
_cell_angle_alpha                90
_cell_angle_beta                 90.519(3)
_cell_angle_gamma                90
_cell_volume                     2665.5
loop_
_atom_site_label
_atom_site_type_symbol
_atom_site_fract_x
_atom_site_fract_y
_atom_site_fract_z
Ag1 Ag 0.34075(5) 0.712089(13) 0.81638(2)
Ag2 Ag 0.74156(6) 0.665124(16) 0.73672(2)
Ag3 Ag 1.15696(5) 0.613938(13) 0.67922(2)
O1 O 0.2309(5) 0.72126(15) 0.9606(2)
N1 N 0.2962(5) 0.75845(16) 1.0140(3)
C1 C 0.2859(7) 0.7523(2) 1.1053(3)
H1 H 0.2347 0.7221 1.1292
C2 C 0.3505(7) 0.7903(2) 1.1631(3)
H2 H 0.3466 0.7851 1.2258
C3 C 0.4211(7) 0.8363(2) 1.1293(4)
H3 H 0.4641 0.8623 1.1681
C4 C 0.4255(7) 0.8423(2) 1.0351(4)
H4 H 0.4719 0.8727 1.0100
C5 C 0.3617(6) 0.80333(19) 0.9793(3)
H5 H 0.3636 0.8079 0.9164
O2 O 0.6804(5) 0.70540(13) 0.8869(2)
N2 N 0.7611(5) 0.74934(15) 0.9149(3)
C6 C 0.7990(7) 0.7559(2) 1.0051(3)
H6 H 0.7723 0.7295 1.0460
C7 C 0.8770(7) 0.8017(2) 1.0362(3)
H7 H 0.8994 0.8064 1.0982
C8 C 0.9215(7) 0.8402(2) 0.9757(3)
H8 H 0.9757 0.8709 0.9959
C9 C 0.8840(6) 0.83235(19) 0.8836(3)
H9 H 0.9156 0.8577 0.8414
C10 C 0.8004(7) 0.78728(19) 0.8549(3)
H10 H 0.7705 0.7828 0.7935
O3 O 0.4301(5) 0.62149(13) 0.7827(2)
N3 N 0.4752(6) 0.58340(16) 0.8400(3)
C11 C 0.4794(7) 0.53466(18) 0.8085(3)
H11 H 0.4436 0.5280 0.7484
C12 C 0.5355(7) 0.49468(19) 0.8635(3)
H12 H 0.5394 0.4612 0.8405
C13 C 0.5863(7) 0.50387(19) 0.9534(3)
H13 H 0.6261 0.4771 0.9914
C14 C 0.5760(7) 0.5548(2) 0.9853(3)
H14 H 0.6054 0.5622 1.0459
C15 C 0.5224(7) 0.5936(2) 0.9273(3)
H15 H 0.5186 0.6275 0.9484
O4 O 0.5517(5) 0.74075(14) 0.6934(2)
N4 N 0.5439(6) 0.76096(17) 0.6103(3)
C16 C 0.5782(7) 0.81186(19) 0.6000(3)
H16 H 0.6000 0.8323 0.6512
C17 C 0.5814(7) 0.8340(2) 0.5149(3)
H17 H 0.6057 0.8691 0.5086
C18 C 0.5483(7) 0.8038(2) 0.4389(4)
H18 H 0.5513 0.8181 0.3808
C19 C 0.5109(7) 0.7521(2) 0.4510(3)
H19 H 0.4856 0.7314 0.4005
C20 C 0.5105(6) 0.7304(2) 0.5374(3)
H20 H 0.4875 0.6953 0.5450
O5 O 1.0704(5) 0.70777(14) 0.7145(2)
N5 N 1.0663(6) 0.74336(15) 0.6475(3)
C21 C 1.0123(7) 0.72960(19) 0.5630(3)
H21 H 0.9794 0.6955 0.5506
C22 C 1.0058(6) 0.76602(19) 0.4949(3)
H22 H 0.9661 0.7566 0.4366
C23 C 1.0577(6) 0.8165(2) 0.5127(3)
H23 H 1.0557 0.8413 0.4667
C24 C 1.1130(6) 0.82954(19) 0.6010(3)
H24 H 1.1471 0.8634 0.6146
C25 C 1.1177(6) 0.79262(19) 0.6679(3)
H25 H 1.1557 0.8013 0.7268
O6 O 0.9372(5) 0.59073(13) 0.7903(2)
N6 N 0.9928(6) 0.57952(16) 0.8756(3)
C26 C 1.0315(6) 0.53018(18) 0.8963(3)
H26 H 1.0251 0.5050 0.8512
C27 C 1.0804(7) 0.5167(2) 0.9841(3)
H27 H 1.1062 0.4823 0.9985
C28 C 1.0912(7) 0.5542(2) 1.0508(3)
H28 H 1.1218 0.5455 1.1107
C29 C 1.0560(7) 0.6048(2) 1.0271(3)
H29 H 1.0654 0.6306 1.0711
C30 C 1.0068(7) 0.6176(2) 0.9386(3)
H30 H 0.9837 0.6518 0.9226
O7 O 0.8268(5) 0.62418(13) 0.5950(2)
N7 N 0.7502(5) 0.58123(16) 0.5595(3)
C31 C 0.6930(7) 0.58146(19) 0.4716(3)
H31 H 0.7018 0.6117 0.4376
C32 C 0.6225(7) 0.53774(19) 0.4321(3)
H32 H 0.5822 0.5383 0.3716
C33 C 0.6106(7) 0.4922(2) 0.4821(3)
H33 H 0.5638 0.4621 0.4556
C34 C 0.6698(7) 0.49283(19) 0.5717(3)
H34 H 0.6609 0.4630 0.6068
C35 C 0.7424(7) 0.5376(2) 0.6099(3)
H35 H 0.7856 0.5377 0.6700
O8 O 1.2893(5) 0.61814(15) 0.5404(2)
N8 N 1.2122(5) 0.58918(16) 0.4748(3)
C36 C 1.1842(6) 0.6098(2) 0.3913(3)
H36 H 1.2133 0.6444 0.3813
C37 C 1.1137(7) 0.58057(19) 0.3215(3)
H37 H 1.0969 0.5952 0.2641
C38 C 1.0669(7) 0.5292(2) 0.3356(3)
H38 H 1.0188 0.5089 0.2884
C39 C 1.0939(7) 0.50883(19) 0.4227(3)
H39 H 1.0630 0.4745 0.4344
C40 C 1.1653(7) 0.53906(19) 0.4905(3)
H40 H 1.1823 0.5252 0.5486
Ag1_2 Ag 1.34075(5) 0.712089(13) 0.81638(2)
Ag3_2 Ag 0.15696(5) 0.613938(13) 0.67922(2)
O3_2 O 1.4301(5) 0.62149(13) 0.7827(2)
O5_2 O 0.0704(5) 0.70777(14) 0.7145(2)
S1 S 0.19457(17) 0.43206(5) 0.67143(8)
O9 O 0.1399(5) 0.41858(13) 0.5794(2)
O10 O 0.1544(5) 0.48474(13) 0.6967(2)
O11 O 0.3783(5) 0.41346(13) 0.7003(2)
C41 C 0.0312(7) 0.3948(2) 0.7415(4)
F1 F -0.1502(4) 0.40818(14) 0.7250(3)
F2 F 0.0470(5) 0.34428(12) 0.7271(2)
F3 F 0.0644(5) 0.40305(13) 0.8305(2)
S2 S 0.68276(18) 0.41817(5) 0.20481(8)
O12 O 0.7727(5) 0.43469(16) 0.1223(2)
O13 O 0.7658(5) 0.43723(14) 0.2881(2)
O14 O 0.6292(5) 0.36430(13) 0.2065(2)
C42 C 0.4532(7) 0.45058(19) 0.2015(4)
F4 F 0.4704(5) 0.50178(11) 0.2033(2)
F5 F 0.3455(5) 0.43633(14) 0.2717(2)
F6 F 0.3552(4) 0.43911(12) 0.1252(2)
S3 S 0.81174(17) 0.69501(5) 0.25332(8)
O15 O 0.7326(5) 0.74483(13) 0.2329(2)
O16 O 0.9757(5) 0.68148(14) 0.2001(2)
O17 O 0.8252(5) 0.68192(13) 0.3485(2)
C43 C 0.6303(7) 0.6503(2) 0.2112(3)
F7 F 0.5974(4) 0.65625(12) 0.12138(18)
F8 F 0.4636(4) 0.65838(15) 0.2528(2)
F9 F 0.6806(5) 0.60125(12) 0.2247(2)
loop_
_geom_bond_atom_site_label_1
_geom_bond_atom_site_label_2
_geom_bond_site_symmetry_1
_geom_bond_site_symmetry_2
Ag1 O1 1_555 1_555
Ag2 O2 1_555 1_555
Ag3 O5 1_555 1_555
O1 N1 1_555 1_555
N1 C1 1_555 1_555
C1 H1 1_555 1_555
C2 C1 1_555 1_555
H2 C2 1_555 1_555
C3 C2 1_555 1_555
H3 C3 1_555 1_555
C4 C3 1_555 1_555
H4 C4 1_555 1_555
C5 N1 1_555 1_555
H5 C5 1_555 1_555
O2 Ag1 1_555 1_555
N2 O2 1_555 1_555
C6 N2 1_555 1_555
H6 C6 1_555 1_555
C7 C6 1_555 1_555
H7 C7 1_555 1_555
C8 C7 1_555 1_555
H8 C8 1_555 1_555
C9 C8 1_555 1_555
H9 C9 1_555 1_555
C10 N2 1_555 1_555
H10 C10 1_555 1_555
O3 Ag1 1_555 1_555
N3 O3 1_555 1_555
C11 N3 1_555 1_555
H11 C11 1_555 1_555
C12 C11 1_555 1_555
H12 C12 1_555 1_555
C13 C12 1_555 1_555
H13 C13 1_555 1_555
C14 C13 1_555 1_555
H14 C14 1_555 1_555
C15 N3 1_555 1_555
H15 C15 1_555 1_555
O4 Ag1 1_555 1_555
N4 O4 1_555 1_555
C16 N4 1_555 1_555
H16 C16 1_555 1_555
C17 C16 1_555 1_555
H17 C17 1_555 1_555
C18 C17 1_555 1_555
H18 C18 1_555 1_555
C19 C18 1_555 1_555
H19 C19 1_555 1_555
C20 N4 1_555 1_555
H20 C20 1_555 1_555
O5 Ag2 1_555 1_555
N5 O5 1_555 1_555
C21 N5 1_555 1_555
H21 C21 1_555 1_555
C22 C21 1_555 1_555
H22 C22 1_555 1_555
C23 C22 1_555 1_555
H23 C23 1_555 1_555
C24 C23 1_555 1_555
H24 C24 1_555 1_555
C25 N5 1_555 1_555
H25 C25 1_555 1_555
O6 Ag2 1_555 1_555
N6 O6 1_555 1_555
C26 N6 1_555 1_555
H26 C26 1_555 1_555
C27 C26 1_555 1_555
H27 C27 1_555 1_555
C28 C27 1_555 1_555
H28 C28 1_555 1_555
C29 C28 1_555 1_555
H29 C29 1_555 1_555
C30 N6 1_555 1_555
H30 C30 1_555 1_555
O7 Ag2 1_555 1_555
N7 O7 1_555 1_555
C31 N7 1_555 1_555
H31 C31 1_555 1_555
C32 C31 1_555 1_555
H32 C32 1_555 1_555
C33 C32 1_555 1_555
H33 C33 1_555 1_555
C34 C33 1_555 1_555
H34 C34 1_555 1_555
C35 N7 1_555 1_555
H35 C35 1_555 1_555
O8 Ag3 1_555 1_555
N8 O8 1_555 1_555
C36 N8 1_555 1_555
H36 C36 1_555 1_555
C37 C36 1_555 1_555
H37 C37 1_555 1_555
C38 C37 1_555 1_555
H38 C38 1_555 1_555
C39 C38 1_555 1_555
H39 C39 1_555 1_555
C40 N8 1_555 1_555
H40 C40 1_555 1_555
S1 O9 1_555 1_555
O10 S1 1_555 1_555
O11 S1 1_555 1_555
C41 S1 1_555 1_555
F1 C41 1_555 1_555
F2 C41 1_555 1_555
F3 C41 1_555 1_555
S2 O12 1_555 1_555
O13 S2 1_555 1_555
O14 S2 1_555 1_555
C42 S2 1_555 1_555
F4 C42 1_555 1_555
F5 C42 1_555 1_555
F6 C42 1_555 1_555
S3 O15 1_555 1_555
O16 S3 1_555 1_555
O17 S3 1_555 1_555
C43 S3 1_555 1_555
F7 C43 1_555 1_555
F8 C43 1_555 1_555
F9 C43 1_555 1_555
Ag1_2 O5 1_555 1_555
Ag3_2 O3 1_555 1_555
O3_2 Ag3 1_555 1_555
O5_2 Ag1 1_555 1_555
Ag2 O3 1_555 1_555
Ag2 O4 1_555 1_555
Ag3 O6 1_555 1_555
Ag3 O7 1_555 1_555
C4 C5 1_555 1_555
C9 C10 1_555 1_555
C14 C15 1_555 1_555
C19 C20 1_555 1_555
C24 C25 1_555 1_555
C29 C30 1_555 1_555
C34 C35 1_555 1_555
C39 C40 1_555 1_555
Ag1_2 O3_2 1_555 1_555
Ag3_2 O5_2 1_555 1_555

#END
