
#######################################################################
#
#                 Cambridge Crystallographic Data Centre
#                                CCDC 
#
#######################################################################
#
# If this CIF has been generated from an entry in the Cambridge 
# Structural Database, then it will include bibliographic, chemical, 
# crystal, experimental, refinement or atomic coordinate data resulting 
# from the CCDC's data processing and validation procedures.
#
#######################################################################

data_DISTOO
_symmetry_cell_setting           orthorhombic
_symmetry_space_group_name_H-M   'P 21 21 21'
_symmetry_Int_Tables_number      19
_space_group_name_Hall           'P 2ac 2ab'
loop_
_symmetry_equiv_pos_site_id
_symmetry_equiv_pos_as_xyz
1 x,y,z
2 1/2+x,1/2-y,-z
3 -x,1/2+y,1/2-z
4 1/2-x,-y,1/2+z
_cell_length_a                   24.286(2)
_cell_length_b                   8.604(1)
_cell_length_c                   5.075(1)
_cell_angle_alpha                90
_cell_angle_beta                 90
_cell_angle_gamma                90
_cell_volume                     1060.46
loop_
_atom_site_label
_atom_site_type_symbol
_atom_site_fract_x
_atom_site_fract_y
_atom_site_fract_z
Cu1 Cu 0.3695(1) 0.6251(1) 0.1577(2)
O1 O 0.4228(2) 0.4599(6) 0.1425(13)
O2 O 0.4446(2) 0.2282(7) 0.2828(14)
C1 C 0.4144(3) 0.3415(9) 0.2866(15)
C2 C 0.3613(2) 0.3396(7) 0.4515(15)
N1 N 0.3336(2) 0.4934(6) 0.4302(13)
C3 C 0.3251(3) 0.2046(8) 0.3599(17)
C4 C 0.2786(3) 0.1607(8) 0.5452(16)
C5 C 0.2263(3) 0.2573(8) 0.5337(16)
O3 O 0.3122(2) 0.7853(5) 0.1881(11)
O4 O 0.2230(2) 0.3754(6) 0.3903(11)
N2 N 0.4102(2) 0.7305(7) -0.1232(13)
C6 C 0.4523(3) 0.6754(9) -0.2491(15)
N3 N 0.4687(2) 0.7706(8) -0.4417(15)
C7 C 0.4344(3) 0.8960(10) -0.4365(18)
C8 C 0.3987(4) 0.8706(11) -0.2430(17)
H1 H 0.3701 0.3211 0.6577
H2 H 0.2910 0.4758 0.3773
H3 H 0.3358 0.5518 0.6182
H4 H 0.3511 0.1039 0.3349
H5 H 0.3072 0.2361 0.1725
H6 H 0.2674 0.0419 0.5026
H7 H 0.2944 0.1683 0.7438
H8 H 0.4718 0.5658 -0.2038
H9 H 0.5026 0.7518 -0.5757
H10 H 0.4360 0.9962 -0.5645
H11 H 0.3656 0.9480 -0.1878
O3C O 0.1878(2) 0.2147(5) 0.6881(11)
Cu1C Cu 0.1305(1) 0.3749(1) 0.6577(2)
loop_
_geom_bond_atom_site_label_1
_geom_bond_atom_site_label_2
_geom_bond_site_symmetry_1
_geom_bond_site_symmetry_2
Cu1 O1 1_555 1_555
O1 C1 1_555 1_555
O2 C1 1_555 1_555
C1 C2 1_555 1_555
C2 N1 1_555 1_555
N1 Cu1 1_555 1_555
C3 C2 1_555 1_555
C4 C3 1_555 1_555
C5 C4 1_555 1_555
O3 Cu1 1_555 1_555
O4 C5 1_555 1_555
N2 Cu1 1_555 1_555
C6 N2 1_555 1_555
N3 C6 1_555 1_555
C7 N3 1_555 1_555
C8 N2 1_555 1_555
H1 C2 1_555 1_555
H2 N1 1_555 1_555
H3 N1 1_555 1_555
H4 C3 1_555 1_555
H5 C3 1_555 1_555
H6 C4 1_555 1_555
H7 C4 1_555 1_555
H8 C6 1_555 1_555
H9 N3 1_555 1_555
H10 C7 1_555 1_555
H11 C8 1_555 1_555
O3C C5 1_555 1_555
Cu1C O3C 1_555 1_555
C7 C8 1_555 1_555

#END
