
#######################################################################
#
#                 Cambridge Crystallographic Data Centre
#                                CCDC 
#
#######################################################################
#
# If this CIF has been generated from an entry in the Cambridge 
# Structural Database, then it will include bibliographic, chemical, 
# crystal, experimental, refinement or atomic coordinate data resulting 
# from the CCDC's data processing and validation procedures.
#
#######################################################################

data_DISTUU
_symmetry_cell_setting           orthorhombic
_symmetry_space_group_name_H-M   'P 21 21 21'
_symmetry_Int_Tables_number      19
_space_group_name_Hall           'P 2ac 2ab'
loop_
_symmetry_equiv_pos_site_id
_symmetry_equiv_pos_as_xyz
1 x,y,z
2 1/2+x,1/2-y,-z
3 -x,1/2+y,1/2-z
4 1/2-x,-y,1/2+z
_cell_length_a                   7.674(1)
_cell_length_b                   17.738(4)
_cell_length_c                   21.761(5)
_cell_angle_alpha                90
_cell_angle_beta                 90
_cell_angle_gamma                90
_cell_volume                     2962.14
loop_
_atom_site_label
_atom_site_type_symbol
_atom_site_fract_x
_atom_site_fract_y
_atom_site_fract_z
Cu1 Cu 0.1686(2) 0.1954(1) 0.1787(1)
N1 N 0.0986(14) 0.0876(6) 0.1971(5)
C1 C 0.0409(22) 0.0338(8) 0.1586(7)
C2 C -0.0106(24) -0.0358(9) 0.1770(8)
C3 C -0.0001(25) -0.0549(9) 0.2385(8)
C4 C 0.0570(24) -0.0008(9) 0.2785(8)
C5 C 0.1090(20) 0.0691(7) 0.2584(6)
N2 N 0.1911(13) 0.1979(6) 0.2708(5)
C6 C 0.2433(20) 0.2559(8) 0.3035(7)
C7 C 0.2682(25) 0.2521(10) 0.3665(8)
C8 C 0.2449(24) 0.1851(9) 0.3950(8)
C9 C 0.1954(25) 0.1233(9) 0.3615(8)
C10 C 0.1638(19) 0.1304(7) 0.2987(6)
O1 O 0.1183(12) 0.3036(4) 0.1748(4)
O2 O 0.0205(14) 0.3926(5) 0.1114(4)
C11 C 0.0538(16) 0.3252(6) 0.1239(5)
C12 C 0.0180(16) 0.2659(6) 0.0741(5)
N3 N 0.1217(13) 0.1995(6) 0.0890(4)
C13 C -0.1802(18) 0.2504(7) 0.0703(6)
C14 C -0.2639(19) 0.2294(7) 0.1295(6)
C15 C -0.4619(18) 0.2234 0.1258(6)
O3 O -0.5396(11) 0.1965(6) 0.1717(5)
O4 O -0.5350(14) 0.2462(8) 0.0778(5)
H1 H 0.0352 0.0468 0.1102
H2 H -0.0594 -0.0760 0.1439
H3 H -0.0357 -0.1105 0.2544
H4 H 0.0613 -0.0133 0.3270
H5 H 0.2678 0.3087 0.2803
H6 H 0.3054 0.3016 0.3923
H7 H 0.2652 0.1803 0.4440
H8 H 0.1809 0.0692 0.3837
H9 H 0.0558 0.2849 0.0289
H10 H 0.0513 0.1495 0.0754
H11 H 0.2439 0.2021 0.0645
H12 H -0.2006 0.2048 0.0382
H13 H -0.2431 0.3008 0.0533
H14 H -0.2127 0.1755 0.1439
H15 H -0.2312 0.2717 0.1633
O3_2 O 0.4604(11) 0.1965(6) 0.1717(5)
Cu1_2 Cu -0.8314(2) 0.1954(1) 0.1787(1)
Cu2 Cu 0.2167(2) 0.4411(1) 0.5425(1)
N4 N 0.1496(17) 0.4783(7) 0.6269(5)
C16 C 0.1023(23) 0.5479(8) 0.6405(7)
C17 C 0.0422(25) 0.5682(10) 0.6975(8)
C18 C 0.0305(29) 0.5148(10) 0.7429(9)
C19 C 0.0771(29) 0.4412(11) 0.7296(9)
C20 C 0.1382(20) 0.4237(8) 0.6697(7)
N5 N 0.2285(18) 0.3432(7) 0.5885(5)
C21 C 0.2742(29) 0.2769(10) 0.5645(9)
C22 C 0.2797(35) 0.2132(13) 0.6021(12)
C23 C 0.2426(33) 0.2185(12) 0.6603(10)
C24 C 0.1938(31) 0.2861(11) 0.6874(10)
C25 C 0.1929(23) 0.3478(8) 0.6483(7)
O5 O 0.3042(14) 0.3969(5) 0.4678(4)
O6 O 0.4232(19) 0.4235(6) 0.3766(5)
C26 C 0.3681(22) 0.4430(9) 0.4294(7)
C27 C 0.3870(17) 0.5268(6) 0.4482(6)
N6 N 0.2964(16) 0.5392(6) 0.5069(5)
C28 C 0.5786(20) 0.5451(7) 0.4527(6)
C29 C 0.6707(20) 0.4963(8) 0.5016(6)
C30 C 0.8675(21) 0.5019(8) 0.5011(6)
O7 O 0.9473(12) 0.4415(6) 0.5139(5)
O8 O 0.9376(14) 0.5621(6) 0.4878(5)
H16 H 0.1113 0.5906 0.6053
H17 H 0.0044 0.6258 0.7066
H18 H -0.0144 0.5299 0.7883
H19 H 0.0671 0.3978 0.7642
H20 H 0.3067 0.2725 0.5163
H21 H 0.3149 0.1592 0.5828
H22 H 0.2501 0.1685 0.6885
H23 H 0.1591 0.2903 0.7354
H24 H 0.3286 0.5636 0.4145
H25 H 0.3843 0.5663 0.5388
H26 H 0.1847 0.5750 0.4992
H27 H 0.6388 0.5350 0.4086
H28 H 0.5931 0.6038 0.4649
H29 H 0.6353 0.4381 0.4938
H30 H 0.6249 0.5137 0.5463
O7_2 O -0.0527(12) 0.4415(6) 0.5139(5)
Cu2_2 Cu 1.2167(2) 0.4411(1) 0.5425(1)
loop_
_geom_bond_atom_site_label_1
_geom_bond_atom_site_label_2
_geom_bond_site_symmetry_1
_geom_bond_site_symmetry_2
Cu1 N1 1_555 1_555
N1 C1 1_555 1_555
C1 C2 1_555 1_555
C2 C3 1_555 1_555
C3 C4 1_555 1_555
C4 C5 1_555 1_555
C5 N1 1_555 1_555
N2 Cu1 1_555 1_555
C6 N2 1_555 1_555
C7 C6 1_555 1_555
C8 C7 1_555 1_555
C9 C8 1_555 1_555
C10 C5 1_555 1_555
O1 Cu1 1_555 1_555
O2 C11 1_555 1_555
C11 O1 1_555 1_555
C12 C11 1_555 1_555
N3 Cu1 1_555 1_555
C13 C12 1_555 1_555
C14 C13 1_555 1_555
C15 C14 1_555 1_555
O3 C15 1_555 1_555
O4 C15 1_555 1_555
Cu2 N4 1_555 1_555
N4 C16 1_555 1_555
C16 C17 1_555 1_555
C17 C18 1_555 1_555
C18 C19 1_555 1_555
C19 C20 1_555 1_555
C20 N4 1_555 1_555
N5 Cu2 1_555 1_555
C21 N5 1_555 1_555
C22 C21 1_555 1_555
C23 C22 1_555 1_555
C24 C23 1_555 1_555
C25 C20 1_555 1_555
O5 Cu2 1_555 1_555
O6 C26 1_555 1_555
C26 O5 1_555 1_555
C27 C26 1_555 1_555
N6 Cu2 1_555 1_555
C28 C27 1_555 1_555
C29 C28 1_555 1_555
C30 C29 1_555 1_555
O7 C30 1_555 1_555
O8 C30 1_555 1_555
H1 C1 1_555 1_555
H2 C2 1_555 1_555
H3 C3 1_555 1_555
H4 C4 1_555 1_555
H5 C6 1_555 1_555
H6 C7 1_555 1_555
H7 C8 1_555 1_555
H8 C9 1_555 1_555
H9 C12 1_555 1_555
H10 N3 1_555 1_555
H11 N3 1_555 1_555
H12 C13 1_555 1_555
H13 C13 1_555 1_555
H14 C14 1_555 1_555
H15 C14 1_555 1_555
H16 C16 1_555 1_555
H17 C17 1_555 1_555
H18 C18 1_555 1_555
H19 C19 1_555 1_555
H20 C21 1_555 1_555
H21 C22 1_555 1_555
H22 C23 1_555 1_555
H23 C24 1_555 1_555
H24 C27 1_555 1_555
H25 N6 1_555 1_555
H26 N6 1_555 1_555
H27 C28 1_555 1_555
H28 C28 1_555 1_555
H29 C29 1_555 1_555
H30 C29 1_555 1_555
O3_2 Cu1 1_555 1_555
O7_2 Cu2 1_555 1_555
Cu1_2 O3 1_555 1_555
Cu2_2 O7 1_555 1_555
N2 C10 1_555 1_555
C9 C10 1_555 1_555
C12 N3 1_555 1_555
N5 C25 1_555 1_555
C24 C25 1_555 1_555
C27 N6 1_555 1_555

#END
