
#######################################################################
#
#                 Cambridge Crystallographic Data Centre
#                                CCDC 
#
#######################################################################
#
# If this CIF has been generated from an entry in the Cambridge 
# Structural Database, then it will include bibliographic, chemical, 
# crystal, experimental, refinement or atomic coordinate data resulting 
# from the CCDC's data processing and validation procedures.
#
#######################################################################

data_DISYOU
_symmetry_cell_setting           monoclinic
_symmetry_space_group_name_H-M   'C 2/c'
_symmetry_Int_Tables_number      15
_space_group_name_Hall           '-C 2yn'
loop_
_symmetry_equiv_pos_site_id
_symmetry_equiv_pos_as_xyz
1 x,y,z
2 1/2+x,1/2+y,z
3 -x,y,1/2-z
4 1/2-x,1/2+y,1/2-z
5 -x,-y,-z
6 1/2-x,1/2-y,-z
7 x,-y,1/2+z
8 1/2+x,1/2-y,1/2+z
_cell_length_a                   13.9591(8)
_cell_length_b                   17.2160(8)
_cell_length_c                   12.5358(7)
_cell_angle_alpha                90
_cell_angle_beta                 115.0840(10)
_cell_angle_gamma                90
_cell_volume                     2728.47
loop_
_atom_site_label
_atom_site_type_symbol
_atom_site_fract_x
_atom_site_fract_y
_atom_site_fract_z
C1 C 0.00144(16) 0.77358(12) 1.05953(18)
C2 C 0.04715(16) 0.75995(12) 0.97171(18)
C3 C 0.05890(16) 0.68454(12) 0.94051(17)
H1 H 0.0272 0.6430 0.9638
C4 C 0.11650(16) 0.66888(12) 0.87558(17)
C5 C 0.13846(16) 0.58517(12) 0.85858(18)
C6 C 0.15587(15) 0.73005(12) 0.83382(17)
H2 H 0.1935 0.7199 0.7875
C7 C 0.14010(16) 0.80637(12) 0.86009(18)
C8 C 0.18188(16) 0.87327(12) 0.81555(19)
C9 C 0.08744(16) 0.82069(12) 0.93059(18)
H3 H 0.0790 0.8726 0.9508
N1 N -0.15833(15) 0.83543(13) 1.18678(19)
N2 N 0.36636(15) 0.47739(11) 0.93469(16)
H4 H 0.4107 0.5055 0.9134
H5 H 0.3968 0.4309 0.9647
H6 H 0.3538 0.5039 0.9903
N3 N 0.09494(14) 0.44541(11) 0.65669(16)
H7 H 0.0471 0.4803 0.6595
H8 H 0.0708 0.3964 0.6570
H9 H 0.1041 0.4529 0.5897
O1 O 0.19702(12) 0.57189(9) 0.80563(13)
O2 O 0.10057(13) 0.53378(8) 0.90016(15)
O3 O -0.00431(12) 0.84424(9) 1.08805(13)
O4 O -0.02072(13) 0.71676(9) 1.10626(14)
O5 O 0.17753(12) 0.94070(9) 0.85181(15)
O6 O 0.22002(12) 0.85842(9) 0.74226(13)
O7 O 0.0000 0.97642(16) 1.2500
O8 O 0.18664(13) 0.38818(10) 0.94307(15)
Cu1 Cu 0.0000 0.84783(2) 1.2500
Cu2 Cu 0.230981(19) 0.459729(14) 0.79481(2)
H10 H -0.1856(19) 0.8577(14) 1.228(2)
H11 H -0.163(2) 0.787(2) 1.193(3)
H12 H -0.192(3) 0.8489(19) 1.119(3)
H13 H -0.0517(17) 1.0051(16) 1.226(3)
H14 H 0.161(3) 0.4309(9) 0.943(3)
H15 H 0.144(2) 0.3532(17) 0.925(3)
C1C C 0.49856(16) 0.27358(12) 0.44047(18)
C2C C 0.45285(16) 0.25995(12) 0.52829(18)
C3C C 0.44110(16) 0.18454(12) 0.55949(17)
H1C H 0.4728 0.1430 0.5362
C4C C 0.38350(16) 0.16888(12) 0.62442(17)
C5C C 0.36154(16) 0.08517(12) 0.64142(18)
C6C C 0.34413(15) 0.23005(12) 0.66618(17)
H2C H 0.3065 0.2199 0.7125
C7C C 0.35990(16) 0.30637(12) 0.63991(18)
C8C C 0.31812(16) 0.37327(12) 0.68445(19)
C9C C 0.41256(16) 0.32069(12) 0.56941(18)
H3C H 0.4210 0.3726 0.5492
N1B N 0.15833(15) 0.83543(13) 1.31322(19)
N2C N 0.13364(15) -0.02261(11) 0.56531(16)
H4C H 0.0893 0.0055 0.5866
H5C H 0.1032 -0.0691 0.5353
H6C H 0.1462 0.0039 0.5097
N3C N 0.40506(14) -0.05459(11) 0.84331(16)
H7C H 0.4529 -0.0197 0.8405
H8C H 0.4292 -0.1036 0.8430
H9C H 0.3959 -0.0471 0.9103
O1C O 0.30298(12) 0.07189(9) 0.69437(13)
O2C O 0.39943(13) 0.03378(8) 0.59984(15)
O3C O 0.50431(12) 0.34424(9) 0.41195(13)
O3B O 0.00431(12) 0.84424(9) 1.41195(13)
O4C O 0.52072(13) 0.21676(9) 0.39374(14)
O5C O 0.32247(12) 0.44070(9) 0.64819(15)
O6C O 0.27998(12) 0.35842(9) 0.75774(13)
O6_2 O 0.22002(12) -0.14158(9) 0.74226(13)
O8C O 0.31336(13) -0.11182(10) 0.55693(15)
Cu1A Cu 0.5000 0.34783(2) 0.2500
Cu2C Cu 0.269019(19) -0.040271(14) 0.70519(2)
Cu2C_2 Cu 0.269019(19) 0.959729(14) 0.70519(2)
H10B H 0.1856(19) 0.8577(14) 1.272(2)
H11B H 0.163(2) 0.787(2) 1.307(3)
H12B H 0.192(3) 0.8489(19) 1.381(3)
H13B H 0.0517(17) 1.0051(16) 1.274(3)
H14C H 0.339(3) -0.0691(9) 0.557(3)
H15C H 0.356(2) -0.1468(17) 0.575(3)
loop_
_geom_bond_atom_site_label_1
_geom_bond_atom_site_label_2
_geom_bond_site_symmetry_1
_geom_bond_site_symmetry_2
C1 C2 1_555 1_555
C2 C3 1_555 1_555
C3 H1 1_555 1_555
C4 C3 1_555 1_555
C5 C4 1_555 1_555
C6 C4 1_555 1_555
H2 C6 1_555 1_555
C7 C6 1_555 1_555
C8 C7 1_555 1_555
C9 C2 1_555 1_555
H3 C9 1_555 1_555
N1 Cu1 1_555 1_555
N2 H4 1_555 1_555
H5 N2 1_555 1_555
H6 N2 1_555 1_555
N3 H7 1_555 1_555
H8 N3 1_555 1_555
H9 N3 1_555 1_555
O1 C5 1_555 1_555
O2 C5 1_555 1_555
O3 C1 1_555 1_555
O4 C1 1_555 1_555
O5 C8 1_555 1_555
O6 C8 1_555 1_555
O7 Cu1 1_555 1_555
O8 Cu2 1_555 1_555
Cu1 O3 1_555 1_555
Cu2 N2 1_555 1_555
H10 N1 1_555 1_555
H11 N1 1_555 1_555
H12 N1 1_555 1_555
H13 O7 1_555 1_555
H14 O8 1_555 1_555
H15 O8 1_555 1_555
C1C C2C 1_555 1_555
C2C C3C 1_555 1_555
C3C H1C 1_555 1_555
C4C C3C 1_555 1_555
C5C C4C 1_555 1_555
C6C C4C 1_555 1_555
H2C C6C 1_555 1_555
C7C C6C 1_555 1_555
C8C C7C 1_555 1_555
C9C C2C 1_555 1_555
H3C C9C 1_555 1_555
N1B Cu1 1_555 1_555
N2C H4C 1_555 1_555
H5C N2C 1_555 1_555
H6C N2C 1_555 1_555
N3C H7C 1_555 1_555
H8C N3C 1_555 1_555
H9C N3C 1_555 1_555
O1C C5C 1_555 1_555
O2C C5C 1_555 1_555
O3C C1C 1_555 1_555
O3B Cu1 1_555 1_555
O4C C1C 1_555 1_555
O5C C8C 1_555 1_555
O6C Cu2 1_555 1_555
O6_2 Cu2C 1_555 1_555
O8C Cu2C 1_555 1_555
Cu1A O3C 1_555 1_555
Cu2C N2C 1_555 1_555
Cu2C_2 O6 1_555 1_555
H10B N1B 1_555 1_555
H11B N1B 1_555 1_555
H12B N1B 1_555 1_555
H13B O7 1_555 1_555
H14C O8C 1_555 1_555
H15C O8C 1_555 1_555
C7 C9 1_555 1_555
N3 Cu2 1_555 1_555
O1 Cu2 1_555 1_555
C7C C9C 1_555 1_555
C8C O6C 1_555 1_555
N3C Cu2C 1_555 1_555
O1C Cu2C 1_555 1_555

#END
