
#######################################################################
#
#                 Cambridge Crystallographic Data Centre
#                                CCDC 
#
#######################################################################
#
# If this CIF has been generated from an entry in the Cambridge 
# Structural Database, then it will include bibliographic, chemical, 
# crystal, experimental, refinement or atomic coordinate data resulting 
# from the CCDC's data processing and validation procedures.
#
#######################################################################

data_DISYOU01
_symmetry_cell_setting           monoclinic
_symmetry_space_group_name_H-M   'C 2/c'
_symmetry_Int_Tables_number      15
_space_group_name_Hall           '-C 2yn'
loop_
_symmetry_equiv_pos_site_id
_symmetry_equiv_pos_as_xyz
1 x,y,z
2 -x,y,1/2-z
3 1/2+x,1/2+y,z
4 1/2-x,1/2+y,1/2-z
5 -x,-y,-z
6 x,-y,1/2+z
7 1/2-x,1/2-y,-z
8 1/2+x,1/2-y,1/2+z
_cell_length_a                   13.9213(5)
_cell_length_b                   17.1210(6)
_cell_length_c                   12.5271(5)
_cell_angle_alpha                90
_cell_angle_beta                 114.779(1)
_cell_angle_gamma                90
_cell_volume                     2710.89
loop_
_atom_site_label
_atom_site_type_symbol
_atom_site_fract_x
_atom_site_fract_y
_atom_site_fract_z
Cu1 Cu 0.731274(15) 0.460860(11) 0.293390(17)
Cu2 Cu 0.5000 0.846571(16) 0.7500
O1 O 0.69791(10) 0.57277(7) 0.30540(11)
O2 O 0.60093(11) 0.53409(7) 0.39799(13)
O3 O 0.67671(11) 0.94136(7) 0.35252(13)
O4 O 0.72030(10) 0.85940(7) 0.24397(11)
O5 O 0.48130(12) 0.71599(8) 0.60668(12)
O6 O 0.49689(10) 0.84340(7) 0.58919(10)
N1 N 0.59585(13) 0.44683(10) 0.15671(15)
H1 H 0.573(2) 0.4009(16) 0.159(2)
H2 H 0.549(2) 0.4747(16) 0.154(2)
H3 H 0.607(2) 0.4556(15) 0.101(2)
N2 N 0.86544(13) 0.47717(10) 0.43295(15)
H4 H 0.8499(19) 0.4999(15) 0.481(2)
H5 H 0.896(2) 0.4385(17) 0.462(2)
H6 H 0.905(2) 0.5057(15) 0.415(2)
N3 N 0.34283(13) 0.83420(11) 0.68630(15)
H7 H 0.3168(18) 0.8536(13) 0.729(2)
H8 H 0.309(2) 0.8513(17) 0.616(3)
H9 H 0.331(2) 0.7827(16) 0.688(2)
O7 O 0.5000 0.97542(14) 0.7500
H10 H 0.450(2) 1.0002(16) 0.725(2)
C1 C 0.61693(12) 0.66918(9) 0.37535(13)
C2 C 0.65555(12) 0.73061(9) 0.33347(13)
H13 H 0.6907(16) 0.7222(12) 0.2899(17)
C3 C 0.63994(12) 0.80686(9) 0.36024(13)
C4 C 0.58794(13) 0.82080(9) 0.43092(14)
H14 H 0.5802(17) 0.8696(14) 0.4512(18)
C5 C 0.54807(12) 0.75980(9) 0.47225(13)
C6 C 0.56030(12) 0.68447(9) 0.44071(13)
H15 H 0.5291(15) 0.6432(11) 0.4608(16)
C7 C 0.63914(12) 0.58568(9) 0.35747(14)
C8 C 0.68160(12) 0.87407(9) 0.31634(15)
C9 C 0.50290(13) 0.77286(10) 0.56031(14)
Cu1A Cu 0.268726(15) 0.460860(11) 1.206610(17)
Cu1C Cu 0.768726(15) 0.960860(11) 0.206610(17)
Cu1B Cu 0.231274(15) 0.960860(11) 1.293390(17)
O1A O 0.30209(10) 0.57277(7) 1.19460(11)
O2A O 0.39907(11) 0.53409(7) 1.10201(13)
O3A O 0.32329(11) 0.94136(7) 1.14748(13)
O4A O 0.27970(10) 0.85940(7) 1.25603(11)
O4C O 0.77970(10) 0.35940(7) 0.25603(11)
O4B O 0.22030(10) 0.35940(7) 1.24397(11)
O5A O 0.51870(12) 0.71599(8) 0.89332(12)
O6A O 0.50311(10) 0.84340(7) 0.91081(10)
N1A N 0.40415(13) 0.44683(10) 1.34329(15)
H1A H 0.427(2) 0.4009(16) 1.341(2)
H2A H 0.451(2) 0.4747(16) 1.346(2)
H3A H 0.393(2) 0.4556(15) 1.399(2)
N2A N 0.13456(13) 0.47717(10) 1.06705(15)
H4A H 0.1501(19) 0.4999(15) 1.019(2)
H5A H 0.104(2) 0.4385(17) 1.038(2)
H6A H 0.095(2) 0.5057(15) 1.085(2)
N3A N 0.65717(13) 0.83420(11) 0.81370(15)
H7A H 0.6832(18) 0.8536(13) 0.771(2)
H8A H 0.691(2) 0.8513(17) 0.884(3)
H9A H 0.669(2) 0.7827(16) 0.812(2)
H10A H 0.550(2) 1.0002(16) 0.775(2)
C1A C 0.38307(12) 0.66918(9) 1.12465(13)
C2A C 0.34445(12) 0.73061(9) 1.16653(13)
H13A H 0.3093(16) 0.7222(12) 1.2101(17)
C3A C 0.36006(12) 0.80686(9) 1.13976(13)
C4A C 0.41206(13) 0.82080(9) 1.06908(14)
H14A H 0.4198(17) 0.8696(14) 1.0488(18)
C5A C 0.45193(12) 0.75980(9) 1.02775(13)
C6A C 0.43970(12) 0.68447(9) 1.05929(13)
H15A H 0.4709(15) 0.6432(11) 1.0392(16)
C7A C 0.36086(12) 0.58568(9) 1.14253(14)
C8A C 0.31840(12) 0.87407(9) 1.18366(15)
C9A C 0.49710(13) 0.77286(10) 0.93969(14)
O8 O 0.68621(13) 0.38807(10) 0.44328(15)
H11 H 0.665(3) 0.424(2) 0.448(3)
H12 H 0.639(2) 0.3526(15) 0.430(2)
loop_
_geom_bond_atom_site_label_1
_geom_bond_atom_site_label_2
_geom_bond_site_symmetry_1
_geom_bond_site_symmetry_2
Cu1 O1 1_555 1_555
Cu2 O6 1_555 1_555
O1 C7 1_555 1_555
O2 C7 1_555 1_555
O3 C8 1_555 1_555
O4 C8 1_555 1_555
O5 C9 1_555 1_555
O6 C9 1_555 1_555
N1 Cu1 1_555 1_555
H1 N1 1_555 1_555
H2 N1 1_555 1_555
H3 N1 1_555 1_555
N2 Cu1 1_555 1_555
H4 N2 1_555 1_555
H5 N2 1_555 1_555
H6 N2 1_555 1_555
N3 Cu2 1_555 1_555
H7 N3 1_555 1_555
H8 N3 1_555 1_555
H9 N3 1_555 1_555
O7 Cu2 1_555 1_555
H10 O7 1_555 1_555
O8 H11 1_555 1_555
H12 O8 1_555 1_555
C1 C2 1_555 1_555
C2 H13 1_555 1_555
C3 C2 1_555 1_555
C4 C3 1_555 1_555
H14 C4 1_555 1_555
C5 C4 1_555 1_555
C6 C1 1_555 1_555
H15 C6 1_555 1_555
C7 C1 1_555 1_555
C8 C3 1_555 1_555
C9 C5 1_555 1_555
Cu1A O1A 1_555 1_555
Cu1C O4 1_555 1_555
Cu1B O4A 1_555 1_555
O1A C7A 1_555 1_555
O2A C7A 1_555 1_555
O3A C8A 1_555 1_555
O4A C8A 1_555 1_555
O4C Cu1 1_555 1_555
O4B Cu1A 1_555 1_555
O5A C9A 1_555 1_555
O6A Cu2 1_555 1_555
N1A Cu1A 1_555 1_555
H1A N1A 1_555 1_555
H2A N1A 1_555 1_555
H3A N1A 1_555 1_555
N2A Cu1A 1_555 1_555
H4A N2A 1_555 1_555
H5A N2A 1_555 1_555
H6A N2A 1_555 1_555
N3A Cu2 1_555 1_555
H7A N3A 1_555 1_555
H8A N3A 1_555 1_555
H9A N3A 1_555 1_555
H10A O7 1_555 1_555
C1A C2A 1_555 1_555
C2A H13A 1_555 1_555
C3A C2A 1_555 1_555
C4A C3A 1_555 1_555
H14A C4A 1_555 1_555
C5A C4A 1_555 1_555
C6A C1A 1_555 1_555
H15A C6A 1_555 1_555
C7A C1A 1_555 1_555
C8A C3A 1_555 1_555
C9A O6A 1_555 1_555
C5 C6 1_555 1_555
C5A C6A 1_555 1_555
C5A C9A 1_555 1_555

#END
