
#######################################################################
#
#                 Cambridge Crystallographic Data Centre
#                                CCDC 
#
#######################################################################
#
# If this CIF has been generated from an entry in the Cambridge 
# Structural Database, then it will include bibliographic, chemical, 
# crystal, experimental, refinement or atomic coordinate data resulting 
# from the CCDC's data processing and validation procedures.
#
#######################################################################

data_DISYIO
_symmetry_cell_setting           monoclinic
_symmetry_space_group_name_H-M   'P 21/c'
_symmetry_Int_Tables_number      14
_space_group_name_Hall           '-P 2ybc'
loop_
_symmetry_equiv_pos_site_id
_symmetry_equiv_pos_as_xyz
1 x,y,z
2 -x,1/2+y,1/2-z
3 -x,-y,-z
4 x,1/2-y,1/2+z
_cell_length_a                   10.440(4)
_cell_length_b                   18.517(7)
_cell_length_c                   7.688(3)
_cell_angle_alpha                90
_cell_angle_beta                 103.520(7)
_cell_angle_gamma                90
_cell_volume                     1445.04
loop_
_atom_site_label
_atom_site_type_symbol
_atom_site_fract_x
_atom_site_fract_y
_atom_site_fract_z
Cu1 Cu 0.88219(3) 0.083205(18) 0.34627(4)
O1 O 0.9494(2) -0.10433(11) 0.1126(3)
O2 O 1.18537(19) -0.01358(11) 0.1942(3)
N1 N 0.7343(2) 0.01201(13) 0.2756(3)
N2 N 0.9796(2) 0.00804(12) 0.2558(3)
N3 N 1.0600(2) 0.12901(13) 0.4137(3)
N4 N 0.8204(3) 0.15179(14) 0.1060(3)
N5 N 0.8079(2) 0.13830(13) -0.4806(3)
N6 N 0.5425(3) 0.28555(15) -0.2758(3)
C1 C 0.6100(3) 0.01853(17) 0.2920(4)
H1 H 0.5868 0.0591 0.3538
C2 C 0.5143(3) -0.03196(18) 0.2216(4)
H2 H 0.4268 -0.0262 0.2353
C3 C 0.5474(3) -0.09064(17) 0.1315(4)
H3 H 0.4828 -0.1256 0.0813
C4 C 0.6764(3) -0.09822(17) 0.1147(4)
H4 H 0.7012 -0.1383 0.0528
C5 C 0.7680(3) -0.04637(15) 0.1895(3)
C6 C 0.9109(3) -0.05163(15) 0.1795(3)
C7 C 1.1080(3) 0.02239(15) 0.2556(3)
C8 C 1.1515(3) 0.09349(15) 0.3482(3)
C9 C 1.2768(3) 0.12032(18) 0.3657(4)
H5 H 1.3393 0.0950 0.3167
C10 C 1.3104(3) 0.18501(19) 0.4562(4)
H6 H 1.3964 0.2045 0.4703
C11 C 1.2181(3) 0.22038(18) 0.5249(4)
H7 H 1.2402 0.2641 0.5896
C12 C 1.0922(3) 0.19196(17) 0.4995(4)
H8 H 1.0275 0.2175 0.5436
C13 C 0.7815(3) 0.16816(15) -0.0413(4)
C14 C 0.7278(3) 0.19103(15) -0.2183(3)
C15 C 0.7735(3) 0.16166(15) -0.3610(3)
C16 C 0.6263(3) 0.24374(16) -0.2516(3)
Cu1_2 Cu 0.88219(3) 0.083205(18) -0.65373(4)
N5_2 N 0.8079(2) 0.13830(13) 0.5194(3)
loop_
_geom_bond_atom_site_label_1
_geom_bond_atom_site_label_2
_geom_bond_site_symmetry_1
_geom_bond_site_symmetry_2
Cu1 N1 1_555 1_555
O1 C6 1_555 1_555
O2 C7 1_555 1_555
N1 C1 1_555 1_555
N2 Cu1 1_555 1_555
N3 Cu1 1_555 1_555
N4 Cu1 1_555 1_555
N5 C15 1_555 1_555
N6 C16 1_555 1_555
C1 H1 1_555 1_555
C2 C1 1_555 1_555
H2 C2 1_555 1_555
C3 C2 1_555 1_555
H3 C3 1_555 1_555
C4 C3 1_555 1_555
H4 C4 1_555 1_555
C5 N1 1_555 1_555
C6 N2 1_555 1_555
C7 N2 1_555 1_555
C8 N3 1_555 1_555
C9 C8 1_555 1_555
H5 C9 1_555 1_555
C10 C9 1_555 1_555
H6 C10 1_555 1_555
C11 C10 1_555 1_555
H7 C11 1_555 1_555
C12 N3 1_555 1_555
H8 C12 1_555 1_555
C13 N4 1_555 1_555
C14 C13 1_555 1_555
C15 C14 1_555 1_555
C16 C14 1_555 1_555
Cu1_2 N5 1_555 1_555
N5_2 Cu1 1_555 1_555
C4 C5 1_555 1_555
C5 C6 1_555 1_555
C7 C8 1_555 1_555
C11 C12 1_555 1_555

#END
