
#######################################################################
#
#                 Cambridge Crystallographic Data Centre
#                                CCDC 
#
#######################################################################
#
# If this CIF has been generated from an entry in the Cambridge 
# Structural Database, then it will include bibliographic, chemical, 
# crystal, experimental, refinement or atomic coordinate data resulting 
# from the CCDC's data processing and validation procedures.
#
#######################################################################

data_DISZUB
_symmetry_cell_setting           monoclinic
_symmetry_space_group_name_H-M   'P 21/c'
_symmetry_Int_Tables_number      14
_space_group_name_Hall           '-P 2ybc'
loop_
_symmetry_equiv_pos_site_id
_symmetry_equiv_pos_as_xyz
1 x,y,z
2 -x,1/2+y,1/2-z
3 -x,-y,-z
4 x,1/2-y,1/2+z
_cell_length_a                   9.677(5)
_cell_length_b                   31.194(5)
_cell_length_c                   11.181(5)
_cell_angle_alpha                90
_cell_angle_beta                 108.069(5)
_cell_angle_gamma                90
_cell_volume                     3208.7
loop_
_atom_site_label
_atom_site_type_symbol
_atom_site_fract_x
_atom_site_fract_y
_atom_site_fract_z
Co1 Co 1.04278(5) 0.149440(13) -1.15640(4)
Co2 Co 1.21245(5) 0.361140(13) -1.36258(4)
N1 N 1.1015(3) 0.16853(8) -1.3203(2)
O1 O 1.1758(3) 0.29545(6) -1.38012(19)
O2 O 1.2591(2) 0.14214(7) -1.04520(19)
O3 O 1.0697(3) 0.28708(6) -1.58880(19)
N2 N 0.9577(3) 0.08828(8) -1.2383(2)
O4 O 1.3402(3) 0.09377(8) -1.1536(2)
O5 O 2.0066(2) 0.13002(7) -0.99106(19)
C1 C 0.7362(4) 0.12825(10) -1.2966(3)
O6 O 1.1570(3) 0.08270(7) -1.5868(2)
C2 C 1.1211(3) 0.15320(9) -1.5236(3)
C3 C 1.1146(4) 0.22605(9) -1.4583(3)
C4 C 1.1345(4) 0.12017(10) -1.6203(3)
O7 O 1.1196(3) 0.13550(7) -1.7276(2)
C5 C 0.7310(4) 0.05116(11) -1.3411(3)
N3 N 0.8178(3) 0.16301(8) -1.2481(2)
C6 C 1.5102(4) 0.14137(10) -1.0230(3)
C7 C 1.9013(4) 0.10807(11) -0.9739(3)
O8 O 1.9010(3) 0.06937(8) -0.9605(3)
N4 N 1.3086(3) 0.42210(8) -1.3490(2)
C8 C 1.7682(4) 0.13386(10) -0.9748(3)
C9 C 1.1190(3) 0.19664(9) -1.5500(3)
H1 H 1.1206 0.2060 -1.6286
C10 C 1.1206(4) 0.27361(9) -1.4775(3)
C11 C 1.5164(4) 0.38355(11) -1.2249(3)
N5 N 1.4260(3) 0.34939(8) -1.2376(2)
C12 C 1.7789(4) 0.17595(11) -0.9334(3)
H2 H 1.8714 0.1879 -0.9043
C13 C 1.5356(4) 0.18262(11) -0.9776(3)
H3 H 1.4552 0.1992 -0.9787
N6 N 1.6664(3) 0.20070(9) -0.9323(3)
C14 C 1.6299(4) 0.11669(11) -1.0198(3)
H4 H 1.6175 0.0885 -1.0479
C15 C 1.0275(4) 0.05103(10) -1.2302(3)
H5 H 1.1278 0.0506 -1.1934
C16 C 1.3595(4) 0.12347(11) -1.0796(3)
C17 C 1.2483(4) 0.45767(10) -1.4075(3)
H6 H 1.1488 0.4580 -1.4488
C18 C 0.5778(4) 0.05403(12) -1.3937(4)
H7 H 0.5252 0.0295 -1.4272
C19 C 0.9553(5) 0.01260(11) -1.2752(4)
H8 H 1.0074 -0.0129 -1.2670
C20 C 1.6259(5) 0.30869(13) -1.1095(4)
H9 H 1.6598 0.2829 -1.0694
C21 C 1.5419(4) 0.45863(11) -1.2800(4)
C22 C 1.4532(4) 0.42246(10) -1.2866(3)
C23 C 0.7505(4) 0.20017(11) -1.2516(3)
H10 H 0.8060 0.2244 -1.2204
C24 C 1.1075(4) 0.21037(10) -1.3457(3)
H11 H 1.1068 0.2300 -1.2832
C25 C 0.8104(4) 0.08812(10) -1.2920(3)
C26 C 0.8078(5) 0.01261(11) -1.3314(4)
H12 H 0.7591 -0.0127 -1.3626
C27 C 1.1126(3) 0.14075(10) -1.4079(3)
H13 H 1.1148 0.1116 -1.3898
C28 C 0.5849(4) 0.12944(11) -1.3471(3)
C29 C 0.5168(4) 0.16935(12) -1.3456(3)
H14 H 0.4161 0.1717 -1.3755
C30 C 1.3302(5) 0.49478(11) -1.4090(4)
H15 H 1.2854 0.5189 -1.4533
C31 C 0.6002(4) 0.20450(12) -1.2998(4)
H16 H 0.5570 0.2312 -1.3009
C32 C 1.4815(4) 0.31318(12) -1.1799(3)
H17 H 1.4201 0.2897 -1.1871
C33 C 1.6651(4) 0.38216(12) -1.1571(3)
C34 C 0.5068(4) 0.09108(12) -1.3963(4)
H18 H 0.4061 0.0919 -1.4304
C35 C 1.6933(5) 0.45564(14) -1.2103(4)
H19 H 1.7520 0.4796 -1.2056
C36 C 1.4738(5) 0.49542(12) -1.3462(4)
H20 H 1.5279 0.5200 -1.3464
C37 C 1.7192(5) 0.34283(13) -1.0994(4)
H21 H 1.8173 0.3399 -1.0548
C38 C 1.7533(5) 0.41960(14) -1.1516(4)
H22 H 1.8521 0.4188 -1.1074
Co1C Co 1.04278(5) 0.350560(13) -1.65640(4)
Co1_2 Co 2.04278(5) 0.149440(13) -1.15640(4)
Co2C Co 1.21245(5) 0.138860(13) -0.86258(4)
Co2C_2 Co 1.21245(5) 0.138860(13) -1.86258(4)
Co2C_3 Co 2.21245(5) 0.138860(13) -0.86258(4)
O2C O 1.2591(2) 0.35786(7) -1.54520(19)
O3C O 1.0697(3) 0.21292(6) -1.08880(19)
O5_2 O 1.0066(2) 0.13002(7) -0.99106(19)
O5C O 1.0066(2) 0.36998(7) -1.49106(19)
O7C O 1.1196(3) 0.36450(7) -1.2276(2)
loop_
_geom_bond_atom_site_label_1
_geom_bond_atom_site_label_2
_geom_bond_site_symmetry_1
_geom_bond_site_symmetry_2
Co1 N1 1_555 1_555
Co2 O1 1_555 1_555
N1 C24 1_555 1_555
O1 C10 1_555 1_555
O2 Co1 1_555 1_555
O3 C10 1_555 1_555
N2 Co1 1_555 1_555
O4 C16 1_555 1_555
O5 C7 1_555 1_555
C1 N3 1_555 1_555
O6 C4 1_555 1_555
C2 C4 1_555 1_555
C3 C9 1_555 1_555
C4 O7 1_555 1_555
O7 Co2C_2 1_555 1_555
C5 C18 1_555 1_555
N3 Co1 1_555 1_555
C6 C13 1_555 1_555
C7 O8 1_555 1_555
N4 Co2 1_555 1_555
C8 C7 1_555 1_555
C9 C2 1_555 1_555
H1 C9 1_555 1_555
C10 C3 1_555 1_555
C11 N5 1_555 1_555
N5 Co2 1_555 1_555
C12 C8 1_555 1_555
H2 C12 1_555 1_555
C13 H3 1_555 1_555
N6 C12 1_555 1_555
C14 C6 1_555 1_555
H4 C14 1_555 1_555
C15 N2 1_555 1_555
H5 C15 1_555 1_555
C16 O2 1_555 1_555
C17 N4 1_555 1_555
H6 C17 1_555 1_555
C18 H7 1_555 1_555
C19 C15 1_555 1_555
H8 C19 1_555 1_555
C20 H9 1_555 1_555
C21 C22 1_555 1_555
C22 N4 1_555 1_555
C23 N3 1_555 1_555
H10 C23 1_555 1_555
C24 C3 1_555 1_555
H11 C24 1_555 1_555
C25 N2 1_555 1_555
C26 C5 1_555 1_555
H12 C26 1_555 1_555
C27 N1 1_555 1_555
H13 C27 1_555 1_555
C28 C1 1_555 1_555
C29 C28 1_555 1_555
H14 C29 1_555 1_555
C30 C17 1_555 1_555
H15 C30 1_555 1_555
C31 C23 1_555 1_555
H16 C31 1_555 1_555
C32 N5 1_555 1_555
H17 C32 1_555 1_555
C33 C11 1_555 1_555
C34 C18 1_555 1_555
H18 C34 1_555 1_555
C35 C21 1_555 1_555
H19 C35 1_555 1_555
C36 C21 1_555 1_555
H20 C36 1_555 1_555
C37 C20 1_555 1_555
H21 C37 1_555 1_555
C38 C33 1_555 1_555
H22 C38 1_555 1_555
Co1C O3 1_555 1_555
Co1_2 O5 1_555 1_555
Co2C O2 1_555 1_555
Co2C_3 O5 1_555 1_555
O2C Co2 1_555 1_555
O3C Co1 1_555 1_555
O5_2 Co1 1_555 1_555
O5C Co2 1_555 1_555
O7C Co2 1_555 1_555
C1 C25 1_555 1_555
C2 C27 1_555 1_555
C5 C25 1_555 1_555
C6 C16 1_555 1_555
C8 C14 1_555 1_555
C11 C22 1_555 1_555
C13 N6 1_555 1_555
C19 C26 1_555 1_555
C20 C32 1_555 1_555
C28 C34 1_555 1_555
C29 C31 1_555 1_555
C30 C36 1_555 1_555
C33 C37 1_555 1_555
C35 C38 1_555 1_555
Co1C O2C 1_555 1_555
Co1C O5C 1_555 1_555
Co2C O5_2 1_555 1_555

#END
