
#######################################################################
#
#                 Cambridge Crystallographic Data Centre
#                                CCDC 
#
#######################################################################
#
# If this CIF has been generated from an entry in the Cambridge 
# Structural Database, then it will include bibliographic, chemical, 
# crystal, experimental, refinement or atomic coordinate data resulting 
# from the CCDC's data processing and validation procedures.
#
#######################################################################

data_DISZOV
_symmetry_cell_setting           triclinic
_symmetry_space_group_name_H-M   'P -1'
_symmetry_Int_Tables_number      2
_space_group_name_Hall           '-P 1'
loop_
_symmetry_equiv_pos_site_id
_symmetry_equiv_pos_as_xyz
1 x,y,z
2 -x,-y,-z
_cell_length_a                   9.542(5)
_cell_length_b                   12.351(5)
_cell_length_c                   16.654(5)
_cell_angle_alpha                84.766(5)
_cell_angle_beta                 73.737(5)
_cell_angle_gamma                86.728(5)
_cell_volume                     1875.31
loop_
_atom_site_label
_atom_site_type_symbol
_atom_site_fract_x
_atom_site_fract_y
_atom_site_fract_z
Co1 Co 0.26466(5) 0.22174(4) -0.03237(3)
Co2 Co 0.65563(5) 0.74262(4) -0.37197(3)
O1 O 0.2766(2) 0.08967(19) -0.09932(15)
O2 O 0.4977(3) 0.0162(2) -0.10431(16)
O3 O -0.0523(2) -0.1081(2) -0.21211(15)
O4 O 0.0344(3) -0.2564(2) -0.27738(18)
O5 O 0.0803(4) 0.2457(3) -0.33008(19)
O6 O 0.1410(3) 0.4021(2) -0.40277(17)
O7 O 0.5226(3) 0.5958(2) -0.19749(14)
O8 O 0.5414(2) 0.60093(18) -0.33468(14)
N1 N 0.0350(3) 0.2293(2) 0.00194(16)
N2 N 0.2120(3) 0.3605(2) 0.03864(16)
N3 N 0.7421(3) 0.8992(2) -0.42118(17)
N4 N 0.5805(3) 0.7760(2) -0.48049(18)
N5 N 0.4629(3) -0.1775(2) -0.29101(16)
N6 N 0.2758(3) 0.3226(2) -0.14867(15)
C1 C -0.0477(4) 0.1647(3) -0.0244(2)
H1 H -0.0023 0.1076 -0.0558
C2 C -0.1972(4) 0.1786(3) -0.0072(2)
H2 H -0.2507 0.1327 -0.0276
C3 C -0.2665(4) 0.2623(3) 0.0410(2)
H3 H -0.3676 0.2723 0.0550
C4 C -0.1814(4) 0.3302(3) 0.0678(2)
H4 H -0.2248 0.3872 0.0999
C5 C -0.0304(4) 0.3131(3) 0.0465(2)
C6 C 0.0685(4) 0.3843(3) 0.0706(2)
C7 C 0.0209(4) 0.4683(3) 0.1215(2)
H5 H -0.0787 0.4828 0.1431
C8 C 0.1198(5) 0.5305(3) 0.1405(3)
H6 H 0.0885 0.5867 0.1755
C9 C 0.2669(4) 0.5081(3) 0.1068(2)
H7 H 0.3368 0.5503 0.1171
C10 C 0.3074(4) 0.4223(3) 0.0579(2)
H8 H 0.4066 0.4058 0.0368
C11 C 0.8147(4) 0.9613(3) -0.3850(2)
H9 H 0.8325 0.9346 -0.3346
C12 C 0.8637(4) 1.0623(3) -0.4190(3)
H10 H 0.9123 1.1033 -0.3917
C13 C 0.8398(4) 1.1021(4) -0.4945(3)
H11 H 0.8732 1.1696 -0.5198
C14 C 0.7649(4) 1.0385(3) -0.5309(3)
H12 H 0.7467 1.0639 -0.5815
C15 C 0.7161(4) 0.9378(3) -0.4943(2)
C16 C 0.6283(4) 0.8685(3) -0.5282(2)
C17 C 0.5922(4) 0.8930(3) -0.6014(2)
H13 H 0.6254 0.9566 -0.6339
C18 C 0.5073(4) 0.8255(4) -0.6284(2)
H14 H 0.4839 0.8428 -0.6787
C19 C 0.4595(4) 0.7347(4) -0.5808(2)
H15 H 0.4015 0.6883 -0.5976
C20 C 0.4971(4) 0.7097(3) -0.5052(2)
H16 H 0.4637 0.6466 -0.4721
C21 C 0.3624(3) 0.4079(3) -0.1680(2)
H17 H 0.4078 0.4254 -0.1284
C22 C 0.3896(3) 0.4730(3) -0.2444(2)
C23 C 0.4928(4) 0.5630(3) -0.2585(2)
C24 C 0.3169(4) 0.4477(3) -0.3006(2)
H18 H 0.3308 0.4885 -0.3518
C25 C 0.2223(4) 0.3608(3) -0.2809(2)
C26 C 0.1429(4) 0.3347(3) -0.3446(3)
C27 C 0.2068(4) 0.2995(3) -0.2048(2)
H19 H 0.1465 0.2402 -0.1924
C28 C 0.4774(4) -0.1079(3) -0.2367(2)
H20 H 0.5706 -0.0965 -0.2327
C29 C 0.3598(3) -0.0522(3) -0.18637(19)
C30 C 0.3822(4) 0.0234(3) -0.1255(2)
C31 C 0.2216(3) -0.0698(3) -0.1923(2)
H21 H 0.1415 -0.0307 -0.1614
C32 C 0.2025(3) -0.1459(3) -0.24431(19)
C33 C 0.0494(4) -0.1727(3) -0.2451(2)
C34 C 0.3257(3) -0.1980(3) -0.2915(2)
H22 H 0.3135 -0.2503 -0.3255
O9 O 0.4973(2) 0.22292(19) -0.06261(14)
H23 H 0.5432 0.2511 -0.1120
H24 H 0.5213 0.1556 -0.0684
O10 O 0.2816(3) 0.1285(2) 0.07483(15)
H25 H 0.3635 0.1002 0.0692
H26 H 0.2285 0.1195 0.1232
O11 O 0.7445(2) 0.73147(19) -0.27064(14)
H27 H 0.6984 0.6871 -0.2365
H28 H 0.8308 0.7294 -0.2703
O12 O 0.8357(3) 0.6545(2) -0.44163(14)
H29 H 0.9073 0.6467 -0.4237
H30 H 0.8625 0.6676 -0.4940
Co2_2 Co 0.65563(5) -0.25738(4) -0.37197(3)
N5_2 N 0.4629(3) 0.8225(2) -0.29101(16)
O13 O 0.1101(3) 0.6279(2) -0.41729(18)
H31 H 0.1043 0.5579 -0.4010
H32 H 0.0827 0.6516 -0.3667
O14 O 0.6715(3) 0.2643(3) -0.2188(2)
H33 H 0.7093 0.3119 -0.2610
H34 H 0.7526 0.2285 -0.2182
O15 O 0.9044(3) 0.1187(2) -0.20788(19)
H35 H 0.9145 0.0559 -0.2256
H36 H 0.9552 0.1571 -0.2536
O16 O 0.7959(3) 0.4145(3) -0.3501(2)
H37 H 0.7841 0.4769 -0.3805
H38 H 0.8816 0.3978 -0.3874
loop_
_geom_bond_atom_site_label_1
_geom_bond_atom_site_label_2
_geom_bond_site_symmetry_1
_geom_bond_site_symmetry_2
Co1 O1 1_555 1_555
Co2 O8 1_555 1_555
O1 C30 1_555 1_555
O2 C30 1_555 1_555
O3 C33 1_555 1_555
O4 C33 1_555 1_555
O5 C26 1_555 1_555
O6 C26 1_555 1_555
O7 C23 1_555 1_555
O8 C23 1_555 1_555
N1 Co1 1_555 1_555
N2 Co1 1_555 1_555
N3 Co2 1_555 1_555
N4 Co2 1_555 1_555
N5 C28 1_555 1_555
N6 Co1 1_555 1_555
C1 N1 1_555 1_555
H1 C1 1_555 1_555
C2 C1 1_555 1_555
H2 C2 1_555 1_555
C3 C2 1_555 1_555
H3 C3 1_555 1_555
C4 C3 1_555 1_555
H4 C4 1_555 1_555
C5 N1 1_555 1_555
C6 N2 1_555 1_555
C7 C6 1_555 1_555
H5 C7 1_555 1_555
C8 C7 1_555 1_555
H6 C8 1_555 1_555
C9 C8 1_555 1_555
H7 C9 1_555 1_555
C10 N2 1_555 1_555
H8 C10 1_555 1_555
C11 N3 1_555 1_555
H9 C11 1_555 1_555
C12 C11 1_555 1_555
H10 C12 1_555 1_555
C13 C12 1_555 1_555
H11 C13 1_555 1_555
C14 C13 1_555 1_555
H12 C14 1_555 1_555
C15 N3 1_555 1_555
C16 N4 1_555 1_555
C17 C16 1_555 1_555
H13 C17 1_555 1_555
C18 C17 1_555 1_555
H14 C18 1_555 1_555
C19 C18 1_555 1_555
H15 C19 1_555 1_555
C20 N4 1_555 1_555
H16 C20 1_555 1_555
C21 N6 1_555 1_555
H17 C21 1_555 1_555
C22 C21 1_555 1_555
C23 C22 1_555 1_555
C24 C22 1_555 1_555
H18 C24 1_555 1_555
C25 C24 1_555 1_555
C26 C25 1_555 1_555
C27 N6 1_555 1_555
H19 C27 1_555 1_555
C28 H20 1_555 1_555
C29 C28 1_555 1_555
C30 C29 1_555 1_555
C31 C29 1_555 1_555
H21 C31 1_555 1_555
C32 C31 1_555 1_555
C33 C32 1_555 1_555
C34 N5 1_555 1_555
H22 C34 1_555 1_555
O9 Co1 1_555 1_555
H23 O9 1_555 1_555
H24 O9 1_555 1_555
O10 Co1 1_555 1_555
H25 O10 1_555 1_555
H26 O10 1_555 1_555
O11 Co2 1_555 1_555
H27 O11 1_555 1_555
H28 O11 1_555 1_555
O12 Co2 1_555 1_555
H29 O12 1_555 1_555
H30 O12 1_555 1_555
O13 H31 1_555 1_555
H32 O13 1_555 1_555
O14 H33 1_555 1_555
H34 O14 1_555 1_555
O15 H35 1_555 1_555
H36 O15 1_555 1_555
O16 H37 1_555 1_555
H38 O16 1_555 1_555
Co2_2 N5 1_555 1_555
N5_2 Co2 1_555 1_555
C4 C5 1_555 1_555
C5 C6 1_555 1_555
C9 C10 1_555 1_555
C14 C15 1_555 1_555
C15 C16 1_555 1_555
C19 C20 1_555 1_555
C25 C27 1_555 1_555
C32 C34 1_555 1_555

#END
