
#######################################################################
#
#                 Cambridge Crystallographic Data Centre
#                                CCDC 
#
#######################################################################
#
# If this CIF has been generated from an entry in the Cambridge 
# Structural Database, then it will include bibliographic, chemical, 
# crystal, experimental, refinement or atomic coordinate data resulting 
# from the CCDC's data processing and validation procedures.
#
#######################################################################

data_DISZEL
_symmetry_cell_setting           monoclinic
_symmetry_space_group_name_H-M   'P 21/n'
_symmetry_Int_Tables_number      14
_space_group_name_Hall           '-P 2yn'
loop_
_symmetry_equiv_pos_site_id
_symmetry_equiv_pos_as_xyz
1 x,y,z
2 1/2-x,1/2+y,1/2-z
3 -x,-y,-z
4 1/2+x,1/2-y,1/2+z
_cell_length_a                   12.266(2)
_cell_length_b                   10.5200(12)
_cell_length_c                   13.811(3)
_cell_angle_alpha                90
_cell_angle_beta                 111.030(16)
_cell_angle_gamma                90
_cell_volume                     1663.44
loop_
_atom_site_label
_atom_site_type_symbol
_atom_site_fract_x
_atom_site_fract_y
_atom_site_fract_z
C1 C 0.0030(4) -0.0037(4) 0.2293(4)
C2 C 0.1157(3) 0.0536(4) 0.3012(3)
C3 C 0.2201(3) 0.0035(4) 0.3015(3)
H1 H 0.2207 -0.0674 0.2615
C4 C 0.3231(4) 0.0604(4) 0.3622(3)
C5 C 0.3266(4) 0.1659(4) 0.4227(4)
H2 H 0.3971 0.2044 0.4610
C6 C 0.2212(4) 0.2130(4) 0.4246(3)
C7 C 0.1169(4) 0.1565(4) 0.3635(3)
H3 H 0.0467 0.1885 0.3647
C8 C 0.2204(4) 0.3289(4) 0.4895(4)
C9 C -0.3367(5) -0.2555(5) 0.0983(4)
H4 H -0.3455 -0.3347 0.1306
H5 H -0.4138 -0.2199 0.0632
C10 C -0.2796(5) -0.2798(5) 0.0223(4)
H6 H -0.2055 -0.3225 0.0560
H7 H -0.3287 -0.3343 -0.0328
C11 C -0.3414(5) -0.1020(6) 0.2267(5)
H8 H -0.4026 -0.0570 0.1742
H9 H -0.2963 -0.0433 0.2789
H10 H -0.3751 -0.1650 0.2578
C12 C -0.1707(5) -0.2343(5) 0.2583(4)
H11 H -0.1212 -0.2741 0.2269
H12 H -0.2040 -0.2982 0.2890
H13 H -0.1256 -0.1761 0.3110
C13 C -0.3678(5) -0.1167(5) -0.1059(4)
H14 H -0.3540 -0.0370 -0.1334
H15 H -0.4298 -0.1069 -0.0794
H16 H -0.3896 -0.1795 -0.1599
C14 C -0.1647(5) -0.1693(6) -0.0620(5)
H17 H -0.1534 -0.0892 -0.0903
H18 H -0.1844 -0.2330 -0.1153
H19 H -0.0940 -0.1933 -0.0068
O1 O -0.0924(2) 0.0461(3) 0.2293(2)
O2 O 0.0062(3) -0.0918(3) 0.1720(3)
O3 O 0.1321(3) 0.3532(3) 0.5099(3)
O4 O 0.3133(3) 0.3948(3) 0.5190(3)
O5 O 0.4305(3) -0.0908(4) 0.3137(3)
O6 O 0.5239(3) 0.0654(4) 0.4066(3)
N1 N 0.4346(3) 0.0078(4) 0.3608(3)
N2 N -0.2645(3) -0.1651(3) 0.1790(3)
N3 N -0.2603(3) -0.1578(4) -0.0213(3)
Cu1 Cu -0.20301(4) -0.03729(5) 0.10180(4)
O4C O -0.1867(3) 0.1052(3) 0.0190(3)
Cu1C Cu 0.29699(4) 0.53729(5) 0.60180(4)
loop_
_geom_bond_atom_site_label_1
_geom_bond_atom_site_label_2
_geom_bond_site_symmetry_1
_geom_bond_site_symmetry_2
C1 C2 1_555 1_555
C2 C3 1_555 1_555
C3 H1 1_555 1_555
C4 C3 1_555 1_555
C5 C4 1_555 1_555
H2 C5 1_555 1_555
C6 C5 1_555 1_555
C7 C2 1_555 1_555
H3 C7 1_555 1_555
C8 C6 1_555 1_555
C9 H4 1_555 1_555
H5 C9 1_555 1_555
C10 C9 1_555 1_555
H6 C10 1_555 1_555
H7 C10 1_555 1_555
C11 H8 1_555 1_555
H9 C11 1_555 1_555
H10 C11 1_555 1_555
C12 H11 1_555 1_555
H12 C12 1_555 1_555
H13 C12 1_555 1_555
C13 H14 1_555 1_555
H15 C13 1_555 1_555
H16 C13 1_555 1_555
C14 H17 1_555 1_555
H18 C14 1_555 1_555
H19 C14 1_555 1_555
O1 C1 1_555 1_555
O2 C1 1_555 1_555
O3 C8 1_555 1_555
O4 C8 1_555 1_555
O5 N1 1_555 1_555
O6 N1 1_555 1_555
N1 C4 1_555 1_555
N2 C9 1_555 1_555
N3 C10 1_555 1_555
Cu1 O1 1_555 1_555
O4C Cu1 1_555 1_555
Cu1C O4 1_555 1_555
C6 C7 1_555 1_555
C11 N2 1_555 1_555
C12 N2 1_555 1_555
C13 N3 1_555 1_555
C14 N3 1_555 1_555
O2 Cu1 1_555 1_555
N2 Cu1 1_555 1_555
N3 Cu1 1_555 1_555

#END
