
#######################################################################
#
#                 Cambridge Crystallographic Data Centre
#                                CCDC 
#
#######################################################################
#
# If this CIF has been generated from an entry in the Cambridge 
# Structural Database, then it will include bibliographic, chemical, 
# crystal, experimental, refinement or atomic coordinate data resulting 
# from the CCDC's data processing and validation procedures.
#
#######################################################################

data_DITGUJ
_symmetry_cell_setting           orthorhombic
_symmetry_space_group_name_H-M   'P b c a'
_symmetry_Int_Tables_number      61
_space_group_name_Hall           '-P 2ac 2ab'
loop_
_symmetry_equiv_pos_site_id
_symmetry_equiv_pos_as_xyz
1 x,y,z
2 1/2-x,-y,1/2+z
3 1/2+x,1/2-y,-z
4 -x,1/2+y,1/2-z
5 -x,-y,-z
6 1/2+x,y,1/2-z
7 1/2-x,1/2+y,z
8 x,1/2-y,1/2+z
_cell_length_a                   16.160(5)
_cell_length_b                   13.073(4)
_cell_length_c                   18.365(5)
_cell_angle_alpha                90
_cell_angle_beta                 90
_cell_angle_gamma                90
_cell_volume                     3879.78
loop_
_atom_site_label
_atom_site_type_symbol
_atom_site_fract_x
_atom_site_fract_y
_atom_site_fract_z
C1 C 0.55175(16) 0.0690(2) 0.15495(15)
C2 C 0.46389(15) 0.0679(2) 0.12922(14)
C3 C 0.40161(15) 0.0531(2) 0.17983(14)
H1 H 0.4155 0.0400 0.2281
C4 C 0.31892(14) 0.05741(19) 0.16006(14)
C5 C 0.25487(15) 0.0499(2) 0.21917(14)
C6 C 0.29835(15) 0.07117(19) 0.08709(13)
H2 H 0.2431 0.0710 0.0730
C7 C 0.36016(15) 0.08528(19) 0.03501(13)
C8 C 0.33830(17) 0.1037(2) -0.04393(14)
C9 C 0.44263(15) 0.0853(2) 0.05684(14)
H3 H 0.4840 0.0970 0.0227
C10 C 0.66471(17) 0.1731(2) -0.03792(16)
H4 H 0.6155 0.1730 -0.0117
C11 C 0.66142(18) 0.1964(2) -0.11201(15)
H5 H 0.6113 0.2113 -0.1345
C12 C 0.73417(18) 0.1966(2) -0.15115(16)
H6 H 0.7337 0.2105 -0.2008
C13 C 0.80851(17) 0.1758(2) -0.11571(14)
C14 C 0.80579(16) 0.1530(2) -0.04123(14)
C15 C 0.88144(16) 0.1323(2) -0.00150(14)
C16 C 0.94319(18) 0.0893(2) 0.10724(15)
H7 H 0.9388 0.0705 0.1559
C17 C 1.02167(17) 0.1006(2) 0.07755(16)
H8 H 1.0684 0.0913 0.1063
C18 C 1.02945(17) 0.1252(2) 0.00590(15)
H9 H 1.0816 0.1314 -0.0151
C19 C 0.95835(16) 0.1409(2) -0.03577(14)
C20 C 0.96115(17) 0.1628(2) -0.11383(14)
C21 C 0.88734(17) 0.1779(2) -0.15276(14)
C22 C 0.9624(2) 0.1965(3) -0.25638(17)
H10 H 0.9660 0.2059 -0.3065
C23 C 1.0349(2) 0.1840(3) -0.21711(17)
H11 H 1.0851 0.1877 -0.2417
N1 N 0.73405(13) 0.15125(17) -0.00287(12)
N2 N 0.87398(13) 0.10417(18) 0.06957(11)
N3 N 0.88875(15) 0.1956(2) -0.22572(13)
N4 N 1.03580(15) 0.1669(2) -0.14624(13)
O1 O 0.56075(11) 0.04767(18) 0.22212(11)
O2 O 0.60803(11) 0.09216(16) 0.11281(10)
O3 O 0.74340(14) 0.24556(17) 0.15753(12)
H12 H 0.7087(15) 0.280(2) 0.137(2)
H13 H 0.7871(13) 0.277(2) 0.163(2)
O4 O 0.38788(15) 0.15141(18) -0.08174(11)
O5 O 0.26933(12) 0.06707(15) -0.06584(10)
O6 O 0.18021(11) 0.05931(17) 0.19911(10)
H14 H 0.624(2) 0.056(2) 0.2546(18)
O7 O 0.27809(11) 0.03776(17) 0.28246(10)
Mn1 Mn 0.74166(2) 0.08336(3) 0.11122(2)
O5D O 0.73067(12) -0.06707(15) 0.06584(10)
O7E O 0.77809(11) 0.03776(17) 0.21754(10)
Mn1D Mn 0.25834(2) -0.08336(3) -0.11122(2)
Mn1E Mn 0.24166(2) 0.08336(3) 0.38878(2)
loop_
_geom_bond_atom_site_label_1
_geom_bond_atom_site_label_2
_geom_bond_site_symmetry_1
_geom_bond_site_symmetry_2
C1 C2 1_555 1_555
C2 C3 1_555 1_555
C3 H1 1_555 1_555
C4 C3 1_555 1_555
C5 C4 1_555 1_555
C6 C4 1_555 1_555
H2 C6 1_555 1_555
C7 C6 1_555 1_555
C8 C7 1_555 1_555
C9 C2 1_555 1_555
H3 C9 1_555 1_555
C10 H4 1_555 1_555
C11 C10 1_555 1_555
H5 C11 1_555 1_555
C12 C11 1_555 1_555
H6 C12 1_555 1_555
C13 C12 1_555 1_555
C14 C13 1_555 1_555
C15 C14 1_555 1_555
C16 H7 1_555 1_555
C17 C16 1_555 1_555
H8 C17 1_555 1_555
C18 C17 1_555 1_555
H9 C18 1_555 1_555
C19 C15 1_555 1_555
C20 C19 1_555 1_555
C21 C13 1_555 1_555
C22 H10 1_555 1_555
C23 C22 1_555 1_555
H11 C23 1_555 1_555
N1 C10 1_555 1_555
N2 C15 1_555 1_555
N3 C21 1_555 1_555
N4 C20 1_555 1_555
O1 C1 1_555 1_555
O2 C1 1_555 1_555
O3 H12 1_555 1_555
H13 O3 1_555 1_555
O4 C8 1_555 1_555
O5 C8 1_555 1_555
O6 C5 1_555 1_555
H14 O1 1_555 1_555
O7 C5 1_555 1_555
Mn1 N1 1_555 1_555
O5D Mn1 1_555 1_555
O7E Mn1 1_555 1_555
Mn1D O5 1_555 1_555
Mn1E O7 1_555 1_555
C7 C9 1_555 1_555
C14 N1 1_555 1_555
C16 N2 1_555 1_555
C18 C19 1_555 1_555
C20 C21 1_555 1_555
C22 N3 1_555 1_555
C23 N4 1_555 1_555
N2 Mn1 1_555 1_555
O2 Mn1 1_555 1_555
O3 Mn1 1_555 1_555

#END
