
#######################################################################
#
#                 Cambridge Crystallographic Data Centre
#                                CCDC 
#
#######################################################################
#
# If this CIF has been generated from an entry in the Cambridge 
# Structural Database, then it will include bibliographic, chemical, 
# crystal, experimental, refinement or atomic coordinate data resulting 
# from the CCDC's data processing and validation procedures.
#
#######################################################################

data_DITHEU
_symmetry_cell_setting           monoclinic
_symmetry_space_group_name_H-M   'P 21/n'
_symmetry_Int_Tables_number      14
_space_group_name_Hall           '-P 2yn'
loop_
_symmetry_equiv_pos_site_id
_symmetry_equiv_pos_as_xyz
1 x,y,z
2 1/2-x,1/2+y,1/2-z
3 -x,-y,-z
4 1/2+x,1/2-y,1/2+z
_cell_length_a                   9.4403(19)
_cell_length_b                   14.647(3)
_cell_length_c                   15.286(3)
_cell_angle_alpha                90
_cell_angle_beta                 101.39(3)
_cell_angle_gamma                90
_cell_volume                     2072
loop_
_atom_site_label
_atom_site_type_symbol
_atom_site_fract_x
_atom_site_fract_y
_atom_site_fract_z
C1 C 0.9984(3) 0.6568(2) -0.0895(2)
H1 H 0.9142 0.6846 -0.0800
C2 C 0.9878(3) 0.5859(3) -0.1510(3)
H2 H 0.8978 0.5671 -0.1822
C3 C 1.1108(3) 0.5439(2) -0.1652(2)
H3 H 1.1051 0.4956 -0.2052
C4 C 1.2460(3) 0.57465(17) -0.11876(18)
C5 C 1.2469(3) 0.64664(16) -0.05904(16)
C6 C 1.3826(3) 0.68398(15) -0.01041(16)
C7 C 1.4947(3) 0.78832(17) 0.09217(19)
H4 H 1.4890 0.8357 0.1318
C8 C 1.6306(3) 0.7570(2) 0.0840(2)
H5 H 1.7136 0.7831 0.1176
C9 C 1.6407(3) 0.68726(19) 0.02590(19)
H6 H 1.7306 0.6661 0.0189
C10 C 1.5140(3) 0.64820(17) -0.02290(16)
C11 C 1.5134(3) 0.57144(17) -0.08365(17)
C12 C 1.3828(3) 0.53536(18) -0.13015(16)
C13 C 1.6351(3) 0.4646(2) -0.1468(2)
H7 H 1.7211 0.4374 -0.1542
C14 C 1.5062(3) 0.4290(2) -0.19355(19)
H8 H 1.5086 0.3797 -0.2316
C15 C 1.2543(2) 0.92581(15) -0.11842(15)
C16 C 1.3980(2) 0.89964(15) -0.14000(14)
C17 C 1.5159(2) 0.95704(15) -0.11478(14)
H9 H 1.5076 1.0083 -0.0803
C18 C 1.6466(2) 0.93877(14) -0.14047(15)
C19 C 1.7673(2) 1.00616(15) -0.11735(14)
C20 C 1.6581(2) 0.86260(15) -0.19289(15)
H10 H 1.7449 0.8502 -0.2105
C21 C 1.5399(2) 0.80457(14) -0.21927(15)
C22 C 1.5509(2) 0.73005(16) -0.28560(16)
C23 C 1.4115(2) 0.82212(15) -0.19062(15)
H11 H 1.3343 0.7819 -0.2053
N1 N 1.1248(2) 0.68635(14) -0.04378(14)
N2 N 1.3726(2) 0.75351(13) 0.04583(13)
N3 N 1.3794(3) 0.46333(16) -0.18543(15)
N4 N 1.6421(2) 0.53531(18) -0.09224(16)
O1 O 1.16637(18) 0.86566(12) -0.11059(12)
O2 O 1.23613(17) 1.01180(11) -0.11061(12)
O3 O 1.73849(18) 1.07869(11) -0.08254(13)
O4 O 1.88847(17) 0.98571(11) -0.13552(12)
O5 O 1.46098(19) 0.66486(12) -0.29122(12)
O6 O 1.6449(2) 0.74007(16) -0.33205(15)
O7 O 0.96099(19) 0.84909(12) 0.01265(13)
Cu1 Cu 1.15964(3) 0.803813(18) 0.035625(19)
Cu2 Cu 1.05402(3) 1.072210(17) -0.111580(17)
H12 H 0.954(4) 0.873(3) -0.028(2)
O3B O 1.26151(18) 0.92131(11) 0.08254(13)
O4_2 O 0.88847(17) 0.98571(11) -0.13552(12)
O5A O 1.03902(19) 1.16486(12) -0.20878(12)
O6C O 1.1449(2) 0.75993(16) 0.16795(15)
O7B O 1.03901(19) 1.15091(12) -0.01265(13)
Cu1B Cu 1.84036(3) 1.196187(18) -0.035625(19)
Cu1C Cu 1.65964(3) 0.696187(18) -0.464375(19)
Cu2_2 Cu 2.05402(3) 1.072210(17) -0.111580(17)
Cu2A Cu 1.44598(3) 0.572210(17) -0.388420(17)
Cu2B Cu 0.94598(3) 0.927790(17) 0.111580(17)
H12B H 1.046(4) 1.127(3) 0.028(2)
loop_
_geom_bond_atom_site_label_1
_geom_bond_atom_site_label_2
_geom_bond_site_symmetry_1
_geom_bond_site_symmetry_2
C1 H1 1_555 1_555
C2 C1 1_555 1_555
H2 C2 1_555 1_555
C3 C2 1_555 1_555
H3 C3 1_555 1_555
C4 C3 1_555 1_555
C5 C4 1_555 1_555
C6 C5 1_555 1_555
C7 H4 1_555 1_555
C8 C7 1_555 1_555
H5 C8 1_555 1_555
C9 C8 1_555 1_555
H6 C9 1_555 1_555
C10 C6 1_555 1_555
C11 C10 1_555 1_555
C12 C4 1_555 1_555
C13 H7 1_555 1_555
C14 C13 1_555 1_555
H8 C14 1_555 1_555
C15 C16 1_555 1_555
C16 C17 1_555 1_555
C17 H9 1_555 1_555
C18 C17 1_555 1_555
C19 C18 1_555 1_555
C20 C18 1_555 1_555
H10 C20 1_555 1_555
C21 C20 1_555 1_555
C22 C21 1_555 1_555
C23 C16 1_555 1_555
H11 C23 1_555 1_555
N1 C1 1_555 1_555
N2 C6 1_555 1_555
N3 C12 1_555 1_555
N4 C11 1_555 1_555
O1 C15 1_555 1_555
O2 C15 1_555 1_555
O3 C19 1_555 1_555
O4 C19 1_555 1_555
O5 C22 1_555 1_555
O6 C22 1_555 1_555
O7 Cu1 1_555 1_555
Cu1 N1 1_555 1_555
Cu2 O2 1_555 1_555
H12 O7 1_555 1_555
O3B Cu1 1_555 1_555
O4_2 Cu2 1_555 1_555
O5A Cu2 1_555 1_555
O6C Cu1 1_555 1_555
O7B Cu2 1_555 1_555
Cu1B O3 1_555 1_555
Cu1C O6 1_555 1_555
Cu2_2 O4 1_555 1_555
Cu2A O5 1_555 1_555
Cu2B O7 1_555 1_555
H12B O7B 1_555 1_555
C5 N1 1_555 1_555
C7 N2 1_555 1_555
C9 C10 1_555 1_555
C11 C12 1_555 1_555
C13 N4 1_555 1_555
C14 N3 1_555 1_555
C21 C23 1_555 1_555
N2 Cu1 1_555 1_555
O1 Cu1 1_555 1_555

#END
