
#######################################################################
#
#                 Cambridge Crystallographic Data Centre
#                                CCDC 
#
#######################################################################
#
# If this CIF has been generated from an entry in the Cambridge 
# Structural Database, then it will include bibliographic, chemical, 
# crystal, experimental, refinement or atomic coordinate data resulting 
# from the CCDC's data processing and validation procedures.
#
#######################################################################

data_DITHIY
_symmetry_cell_setting           monoclinic
_symmetry_space_group_name_H-M   'P 21/n'
_symmetry_Int_Tables_number      14
_space_group_name_Hall           '-P 2yn'
loop_
_symmetry_equiv_pos_site_id
_symmetry_equiv_pos_as_xyz
1 x,y,z
2 1/2-x,1/2+y,1/2-z
3 -x,-y,-z
4 1/2+x,1/2-y,1/2+z
_cell_length_a                   9.4496(19)
_cell_length_b                   14.686(3)
_cell_length_c                   15.217(3)
_cell_angle_alpha                90
_cell_angle_beta                 101.15(3)
_cell_angle_gamma                90
_cell_volume                     2071.91
loop_
_atom_site_label
_atom_site_type_symbol
_atom_site_fract_x
_atom_site_fract_y
_atom_site_fract_z
C1 C 0.7555(2) 0.07542(15) -0.11732(13)
C2 C 0.8985(2) 0.10147(14) -0.13994(14)
C3 C 0.9118(2) 0.17862(14) -0.19093(14)
H1 H 0.8350 0.2190 -0.2052
C4 C 1.0400(2) 0.19545(14) -0.22070(14)
C5 C 1.0501(2) 0.26966(15) -0.28796(14)
C6 C 1.1575(2) 0.13771(14) -0.19445(14)
H2 H 1.2442 0.1500 -0.2124
C7 C 1.1460(2) 0.06191(14) -0.14163(13)
C8 C 1.0158(2) 0.04377(14) -0.11544(13)
H3 H 1.0073 -0.0076 -0.0811
C9 C 1.2668(2) -0.00559(14) -0.11850(13)
C10 C 0.9964(3) 0.21144(17) 0.08890(17)
H4 H 0.9913 0.1637 0.1283
C11 C 1.1314(3) 0.24252(18) 0.07955(19)
H5 H 1.2145 0.2157 0.1119
C12 C 1.1409(3) 0.31305(18) 0.02231(18)
H6 H 1.2306 0.3343 0.0150
C13 C 1.0143(3) 0.35293(16) -0.02526(15)
C14 C 0.8830(3) 0.31717(15) -0.01209(15)
C15 C 0.7473(3) 0.35479(15) -0.05973(15)
C16 C 0.4997(3) 0.3463(2) -0.0891(2)
H7 H 0.4154 0.3186 -0.0796
C17 C 0.4892(3) 0.4181(2) -0.1498(2)
H8 H 0.3995 0.4377 -0.1804
C18 C 0.6125(3) 0.4595(2) -0.1638(2)
H9 H 0.6073 0.5084 -0.2032
C19 C 0.7463(3) 0.42790(17) -0.11881(16)
C20 C 0.8828(3) 0.46698(16) -0.13040(15)
C21 C 1.0133(3) 0.43030(16) -0.08514(15)
C22 C 1.0057(3) 0.57387(18) -0.19310(17)
H10 H 1.0081 0.6236 -0.2306
C23 C 1.1348(3) 0.5378(2) -0.14727(18)
H11 H 1.2205 0.5650 -0.1548
N1 N 1.1418(2) 0.46651(16) -0.09347(15)
N2 N 0.8735(2) 0.24704(13) 0.04386(13)
N3 N 0.6243(2) 0.31605(13) -0.04462(13)
N4 N 0.8797(3) 0.53984(15) -0.18514(14)
O1 O 0.66921(17) 0.13595(11) -0.10704(11)
O2 O 0.73554(17) -0.01029(10) -0.11184(11)
O3 O 1.23750(18) -0.07831(11) -0.08453(12)
O4 O 1.38817(16) 0.01529(10) -0.13640(11)
O5 O 1.1411(2) 0.25741(13) -0.33657(12)
O6 O 0.96368(18) 0.33614(11) -0.29165(11)
O7 O 0.45713(18) 0.14949(12) 0.01211(12)
Zn1 Zn 0.65698(3) 0.195879(17) 0.035224(17)
Zn2 Zn 0.55388(3) -0.070390(16) -0.111270(16)
H12 H 0.449(4) 0.126(2) -0.026(2)
O3B O 0.76250(18) 0.07831(11) 0.08453(12)
O4_2 O 0.38817(16) 0.01529(10) -0.13640(11)
O5C O 0.6411(2) 0.24259(13) 0.16343(12)
O6A O 0.53632(18) -0.16386(11) -0.20835(11)
O7B O 0.54287(18) -0.14949(12) -0.01211(12)
Zn1B Zn 1.34302(3) -0.195879(17) -0.035224(17)
Zn1C Zn 1.15698(3) 0.304121(17) -0.464776(17)
Zn2_2 Zn 1.55388(3) -0.070390(16) -0.111270(16)
Zn2A Zn 0.94612(3) 0.429610(16) -0.388730(16)
Zn2B Zn 0.44612(3) 0.070390(16) 0.111270(16)
H12B H 0.551(4) -0.126(2) 0.026(2)
loop_
_geom_bond_atom_site_label_1
_geom_bond_atom_site_label_2
_geom_bond_site_symmetry_1
_geom_bond_site_symmetry_2
C1 C2 1_555 1_555
C2 C3 1_555 1_555
C3 H1 1_555 1_555
C4 C3 1_555 1_555
C5 C4 1_555 1_555
C6 C4 1_555 1_555
H2 C6 1_555 1_555
C7 C6 1_555 1_555
C8 C2 1_555 1_555
H3 C8 1_555 1_555
C9 C7 1_555 1_555
C10 H4 1_555 1_555
C11 C10 1_555 1_555
H5 C11 1_555 1_555
C12 C11 1_555 1_555
H6 C12 1_555 1_555
C13 C12 1_555 1_555
C14 C13 1_555 1_555
C15 C14 1_555 1_555
C16 H7 1_555 1_555
C17 C16 1_555 1_555
H8 C17 1_555 1_555
C18 C17 1_555 1_555
H9 C18 1_555 1_555
C19 C15 1_555 1_555
C20 C19 1_555 1_555
C21 C13 1_555 1_555
C22 H10 1_555 1_555
C23 C22 1_555 1_555
H11 C23 1_555 1_555
N1 C21 1_555 1_555
N2 C10 1_555 1_555
N3 C15 1_555 1_555
N4 C20 1_555 1_555
O1 C1 1_555 1_555
O2 C1 1_555 1_555
O3 C9 1_555 1_555
O4 C9 1_555 1_555
O5 C5 1_555 1_555
O6 C5 1_555 1_555
O7 Zn1 1_555 1_555
Zn1 N2 1_555 1_555
Zn2 O2 1_555 1_555
H12 O7 1_555 1_555
O3B Zn1 1_555 1_555
O4_2 Zn2 1_555 1_555
O5C Zn1 1_555 1_555
O6A Zn2 1_555 1_555
O7B Zn2 1_555 1_555
Zn1B O3 1_555 1_555
Zn1C O5 1_555 1_555
Zn2_2 O4 1_555 1_555
Zn2A O6 1_555 1_555
Zn2B O7 1_555 1_555
H12B O7B 1_555 1_555
C7 C8 1_555 1_555
C14 N2 1_555 1_555
C16 N3 1_555 1_555
C18 C19 1_555 1_555
C20 C21 1_555 1_555
C22 N4 1_555 1_555
C23 N1 1_555 1_555
N3 Zn1 1_555 1_555
O1 Zn1 1_555 1_555

#END
