
#######################################################################
#
#                 Cambridge Crystallographic Data Centre
#                                CCDC 
#
#######################################################################
#
# If this CIF has been generated from an entry in the Cambridge 
# Structural Database, then it will include bibliographic, chemical, 
# crystal, experimental, refinement or atomic coordinate data resulting 
# from the CCDC's data processing and validation procedures.
#
#######################################################################

data_DITHAQ
_symmetry_cell_setting           triclinic
_symmetry_space_group_name_H-M   'P -1'
_symmetry_Int_Tables_number      2
_space_group_name_Hall           '-P 1'
loop_
_symmetry_equiv_pos_site_id
_symmetry_equiv_pos_as_xyz
1 x,y,z
2 -x,-y,-z
_cell_length_a                   10.243(2)
_cell_length_b                   11.406(2)
_cell_length_c                   15.414(3)
_cell_angle_alpha                74.56(3)
_cell_angle_beta                 70.73(3)
_cell_angle_gamma                85.23(3)
_cell_volume                     1638.58
loop_
_atom_site_label
_atom_site_type_symbol
_atom_site_fract_x
_atom_site_fract_y
_atom_site_fract_z
C1 C 1.0283(3) 0.8067(3) 0.1037(2)
C2 C 0.8911(3) 0.8626(3) 0.1014(2)
C3 C 0.7991(3) 0.8008(3) 0.0808(2)
H1 H 0.8231 0.7257 0.0672
C4 C 0.6698(3) 0.8513(3) 0.0805(2)
C5 C 0.5676(3) 0.7810(3) 0.0626(2)
C6 C 0.6384(3) 0.9660(3) 0.0956(2)
H2 H 0.5551 1.0020 0.0914
C7 C 0.7305(3) 1.0282(3) 0.1170(2)
C8 C 0.6951(3) 1.1544(3) 0.1313(2)
C9 C 0.8552(3) 0.9752(3) 0.1219(2)
H3 H 0.9152 1.0147 0.1390
C10 C 0.5862(3) 0.7236(3) -0.2998(2)
C11 C 0.6737(4) 0.8057(3) -0.2842(2)
C12 C 0.7360(4) 0.9063(3) -0.3577(3)
C13 C 0.8178(5) 0.9824(4) -0.3392(3)
H4 H 0.8598 1.0509 -0.3859
C14 C 0.8358(6) 0.9558(4) -0.2522(3)
H5 H 0.8918 1.0048 -0.2395
C15 C 0.7695(5) 0.8546(4) -0.1829(3)
H6 H 0.7807 0.8382 -0.1234
C16 C 0.7111(4) 0.9298(3) -0.4481(3)
C17 C 0.6255(4) 0.8525(4) -0.4624(3)
C18 C 0.6577(5) 0.9699(4) -0.6115(3)
H7 H 0.6416 0.9878 -0.6696
C19 C 0.7425(5) 1.0461(4) -0.5976(3)
H8 H 0.7805 1.1136 -0.6469
C20 C 0.5624(4) 0.7464(3) -0.3855(3)
C21 C 0.4784(5) 0.6653(5) -0.3968(3)
H9 H 0.4614 0.6775 -0.4542
C22 C 0.4212(5) 0.5677(4) -0.3233(3)
H10 H 0.3649 0.5132 -0.3301
C23 C 0.4481(4) 0.5512(3) -0.2388(3)
H11 H 0.4080 0.4851 -0.1887
C24 C 0.3487(5) 0.7409(4) 0.2921(3)
H12 H 0.3871 0.8103 0.2451
C25 C 0.3660(6) 0.7226(5) 0.3801(3)
H13 H 0.4161 0.7778 0.3917
C26 C 0.2213(4) 0.5651(3) 0.3413(2)
C27 C 0.1368(3) 0.4860(3) 0.3204(2)
C28 C 0.0399(4) 0.4519(4) 0.2150(3)
H14 H 0.0278 0.4750 0.1556
C29 C -0.0279(4) 0.3471(4) 0.2802(3)
H15 H -0.0838 0.3017 0.2643
C30 C -0.0105(4) 0.3127(4) 0.3678(3)
H16 H -0.0545 0.2432 0.4121
C31 C 0.0736(4) 0.3823(3) 0.3905(3)
C32 C 0.0941(4) 0.3533(3) 0.4829(3)
C33 C 0.1746(4) 0.4293(4) 0.5023(3)
C34 C 0.1399(5) 0.3073(4) 0.6486(3)
H17 H 0.1519 0.2880 0.7080
C35 C 0.0583(5) 0.2309(4) 0.6304(3)
H18 H 0.0187 0.1628 0.6784
C36 C 0.2364(4) 0.5387(4) 0.4302(3)
C37 C 0.3074(6) 0.6215(5) 0.4496(3)
H19 H 0.3154 0.6083 0.5098
N1 N 0.5290(3) 0.6259(2) -0.2261(2)
N2 N 0.6908(3) 0.7804(3) -0.1980(2)
N3 N 0.5983(4) 0.8723(3) -0.5450(2)
N4 N 0.7722(4) 1.0286(3) -0.5192(2)
N5 N 0.1207(3) 0.5198(3) 0.2341(2)
N6 N 0.2800(3) 0.6641(2) 0.2716(2)
N7 N 0.0344(4) 0.2498(3) 0.5491(2)
N8 N 0.1998(4) 0.4040(3) 0.5862(3)
O1 O 0.6131(3) 0.6904(2) 0.02866(19)
O2 O 0.4454(2) 0.8159(2) 0.08347(18)
O3 O 0.3541(2) 0.54180(18) 0.04252(17)
O4 O 1.0675(2) 0.7184(2) 0.06717(19)
O6 O 1.0987(2) 0.8481(2) 0.14126(19)
O7 O 0.7395(3) 1.1895(2) 0.1861(2)
O8 O 0.6230(3) 1.2165(2) 0.0832(2)
Cd1 Cd 0.26695(2) 0.692721(19) 0.111640(17)
Cd2 Cd 0.53877(2) 0.634495(18) -0.078436(16)
H20 H 0.301(4) 0.534(3) 0.022(3)
O3A O 0.6459(2) 0.45820(18) -0.04252(17)
O4_2 O 0.0675(2) 0.7184(2) 0.06717(19)
O6_2 O 0.0987(2) 0.8481(2) 0.14126(19)
O8A O 0.3770(3) 0.7835(2) -0.0832(2)
Cd1_2 Cd 1.26695(2) 0.692721(19) 0.111640(17)
Cd2A Cd 0.46123(2) 0.365505(18) 0.078436(16)
Cd2A_2 Cd 0.46123(2) 1.365505(18) 0.078436(16)
H20A H 0.699(4) 0.466(3) -0.022(3)
O5 O -0.1467(5) 0.4272(4) 0.0694(3)
H21 H -0.081(5) 0.370(4) 0.079(4)
H22 H -0.230(4) 0.400(8) 0.112(7)
loop_
_geom_bond_atom_site_label_1
_geom_bond_atom_site_label_2
_geom_bond_site_symmetry_1
_geom_bond_site_symmetry_2
C1 C2 1_555 1_555
C2 C3 1_555 1_555
C3 H1 1_555 1_555
C4 C3 1_555 1_555
C5 C4 1_555 1_555
C6 C4 1_555 1_555
H2 C6 1_555 1_555
C7 C6 1_555 1_555
C8 C7 1_555 1_555
C9 C2 1_555 1_555
H3 C9 1_555 1_555
C10 C11 1_555 1_555
C11 C12 1_555 1_555
C12 C13 1_555 1_555
C13 H4 1_555 1_555
C14 C13 1_555 1_555
H5 C14 1_555 1_555
C15 C14 1_555 1_555
H6 C15 1_555 1_555
C16 C12 1_555 1_555
C17 C16 1_555 1_555
C18 H7 1_555 1_555
C19 C18 1_555 1_555
H8 C19 1_555 1_555
C20 C10 1_555 1_555
C21 C20 1_555 1_555
H9 C21 1_555 1_555
C22 C21 1_555 1_555
H10 C22 1_555 1_555
C23 C22 1_555 1_555
H11 C23 1_555 1_555
C24 H12 1_555 1_555
C25 C24 1_555 1_555
H13 C25 1_555 1_555
C26 C27 1_555 1_555
C27 C31 1_555 1_555
C28 H14 1_555 1_555
C29 C28 1_555 1_555
H15 C29 1_555 1_555
C30 C29 1_555 1_555
H16 C30 1_555 1_555
C31 C30 1_555 1_555
C32 C31 1_555 1_555
C33 C32 1_555 1_555
C34 H17 1_555 1_555
C35 C34 1_555 1_555
H18 C35 1_555 1_555
C36 C26 1_555 1_555
C37 C25 1_555 1_555
H19 C37 1_555 1_555
N1 C10 1_555 1_555
N2 C11 1_555 1_555
N3 C17 1_555 1_555
N4 C16 1_555 1_555
N5 C27 1_555 1_555
N6 C24 1_555 1_555
N7 C32 1_555 1_555
N8 C33 1_555 1_555
O1 C5 1_555 1_555
O2 C5 1_555 1_555
O3 Cd1 1_555 1_555
O4 C1 1_555 1_555
O5 H21 1_555 1_555
O6 C1 1_555 1_555
O7 C8 1_555 1_555
O8 C8 1_555 1_555
Cd1 N5 1_555 1_555
Cd2 N1 1_555 1_555
H20 O3 1_555 1_555
H22 O5 1_555 1_555
O3A Cd2 1_555 1_555
O4_2 Cd1 1_555 1_555
O6_2 Cd1 1_555 1_555
O8A Cd2 1_555 1_555
Cd1_2 O4 1_555 1_555
Cd2A O3 1_555 1_555
Cd2A_2 O8 1_555 1_555
H20A O3A 1_555 1_555
C7 C9 1_555 1_555
C15 N2 1_555 1_555
C17 C20 1_555 1_555
C18 N3 1_555 1_555
C19 N4 1_555 1_555
C23 N1 1_555 1_555
C26 N6 1_555 1_555
C28 N5 1_555 1_555
C33 C36 1_555 1_555
C34 N8 1_555 1_555
C35 N7 1_555 1_555
C36 C37 1_555 1_555
N2 Cd2 1_555 1_555
N6 Cd1 1_555 1_555
O1 Cd2 1_555 1_555
O2 Cd1 1_555 1_555
O3 Cd2 1_555 1_555
O6 Cd1_2 1_555 1_555
O3A Cd2A 1_555 1_555

#END
