
#######################################################################
#
#                 Cambridge Crystallographic Data Centre
#                                CCDC 
#
#######################################################################
#
# If this CIF has been generated from an entry in the Cambridge 
# Structural Database, then it will include bibliographic, chemical, 
# crystal, experimental, refinement or atomic coordinate data resulting 
# from the CCDC's data processing and validation procedures.
#
#######################################################################

data_DITJEX
_symmetry_cell_setting           monoclinic
_symmetry_space_group_name_H-M   'P 21/c'
_symmetry_Int_Tables_number      14
_space_group_name_Hall           '-P 2ybc'
loop_
_symmetry_equiv_pos_site_id
_symmetry_equiv_pos_as_xyz
1 x,y,z
2 -x,1/2+y,1/2-z
3 -x,-y,-z
4 x,1/2-y,1/2+z
_cell_length_a                   10.961(2)
_cell_length_b                   16.257(3)
_cell_length_c                   8.778(2)
_cell_angle_alpha                90
_cell_angle_beta                 108.24(3)
_cell_angle_gamma                90
_cell_volume                     1485.58
loop_
_atom_site_label
_atom_site_type_symbol
_atom_site_fract_x
_atom_site_fract_y
_atom_site_fract_z
Ag1 Ag 0.528414(8) 0.161594(5) 0.128815(9)
P1 P 0.18015(3) 0.153739(16) 0.04223(3)
O1 O 0.19826(7) 0.10520(5) 0.20353(9)
O2 O 0.30038(8) 0.18024(6) 0.01682(11)
O3 O 0.09334(8) 0.09341(5) -0.08440(10)
O4 O 0.09113(8) 0.22942(5) 0.03802(10)
O5 O 0.53812(8) 0.27144(5) 0.38660(10)
O6 O 0.67738(9) 0.37089(6) 0.43598(11)
O7 O 0.66185(9) 0.28693(6) 0.23846(11)
N1 N 0.41510(8) -0.05460(6) 0.70177(10)
N2 N 0.62698(8) 0.31027(6) 0.35402(10)
C1 C 0.27860(11) 0.13838(7) 0.35449(13)
H1 H 0.2306 0.1784 0.3947
H2 H 0.3525 0.1658 0.3392
C2 C 0.32225(9) 0.06964(6) 0.47281(12)
C3 C 0.32541(9) -0.01194(6) 0.42623(12)
H3 H 0.2966 -0.0264 0.3183
C4 C 0.37235(9) -0.07149(6) 0.54370(12)
H4 H 0.3743 -0.1258 0.5114
C5 C 0.41160(10) 0.02455(7) 0.74536(12)
H5 H 0.4413 0.0374 0.8540
C6 C 0.36597(10) 0.08786(6) 0.63649(12)
H6 H 0.3645 0.1416 0.6719
C7 C 0.14034(12) 0.01063(7) -0.09927(15)
H7 H 0.1146 -0.0270 -0.0291
H8 H 0.2334 0.0108 -0.0688
C8 C 0.08420(15) -0.01625(9) -0.27046(17)
H9 H -0.0078 -0.0170 -0.2990
H10 H 0.1147 -0.0704 -0.2830
H11 H 0.1097 0.0215 -0.3390
C9 C -0.02950(13) 0.21849(8) 0.0751(2)
H12 H -0.0116 0.1974 0.1832
H13 H -0.0839 0.1792 0.0013
C10 C -0.09579(13) 0.29862(8) 0.06050(18)
H14 H -0.0382 0.3388 0.1250
H15 H -0.1695 0.2933 0.0966
H16 H -0.1227 0.3159 -0.0496
Ag1B Ag 0.471586(8) -0.161594(5) 0.871185(9)
Ag1C Ag 0.528414(8) 0.338406(5) 0.628815(9)
O5C O 0.53812(8) 0.22856(5) -0.11340(10)
N1B N 0.58490(8) 0.05460(6) 0.29823(10)
loop_
_geom_bond_atom_site_label_1
_geom_bond_atom_site_label_2
_geom_bond_site_symmetry_1
_geom_bond_site_symmetry_2
Ag1 O2 1_555 1_555
P1 O1 1_555 1_555
O1 C1 1_555 1_555
O2 P1 1_555 1_555
O3 P1 1_555 1_555
O4 P1 1_555 1_555
O5 N2 1_555 1_555
O6 N2 1_555 1_555
O7 Ag1 1_555 1_555
N1 C4 1_555 1_555
N2 O7 1_555 1_555
C1 H1 1_555 1_555
H2 C1 1_555 1_555
C2 C1 1_555 1_555
C3 C2 1_555 1_555
H3 C3 1_555 1_555
C4 C3 1_555 1_555
H4 C4 1_555 1_555
C5 N1 1_555 1_555
H5 C5 1_555 1_555
C6 C2 1_555 1_555
H6 C6 1_555 1_555
C7 O3 1_555 1_555
H7 C7 1_555 1_555
H8 C7 1_555 1_555
C8 C7 1_555 1_555
H9 C8 1_555 1_555
H10 C8 1_555 1_555
H11 C8 1_555 1_555
C9 O4 1_555 1_555
H12 C9 1_555 1_555
H13 C9 1_555 1_555
C10 C9 1_555 1_555
H14 C10 1_555 1_555
H15 C10 1_555 1_555
H16 C10 1_555 1_555
Ag1B N1 1_555 1_555
Ag1C O5 1_555 1_555
O5C Ag1 1_555 1_555
N1B Ag1 1_555 1_555
C5 C6 1_555 1_555

#END
