
#######################################################################
#
#                 Cambridge Crystallographic Data Centre
#                                CCDC 
#
#######################################################################
#
# If this CIF has been generated from an entry in the Cambridge 
# Structural Database, then it will include bibliographic, chemical, 
# crystal, experimental, refinement or atomic coordinate data resulting 
# from the CCDC's data processing and validation procedures.
#
#######################################################################

data_DITKAT
_symmetry_cell_setting           monoclinic
_symmetry_space_group_name_H-M   'P 21/c'
_symmetry_Int_Tables_number      14
_space_group_name_Hall           '-P 2ybc'
loop_
_symmetry_equiv_pos_site_id
_symmetry_equiv_pos_as_xyz
1 x,y,z
2 -x,1/2+y,1/2-z
3 -x,-y,-z
4 x,1/2-y,1/2+z
_cell_length_a                   15.282(2)
_cell_length_b                   13.589(1)
_cell_length_c                   14.027(1)
_cell_angle_alpha                90
_cell_angle_beta                 112.611(1)
_cell_angle_gamma                90
_cell_volume                     2689.05
loop_
_atom_site_label
_atom_site_type_symbol
_atom_site_fract_x
_atom_site_fract_y
_atom_site_fract_z
Pb1 Pb 0.82956(3) 0.40653(3) 0.85607(3)
Pb2 Pb 0.42669(3) 1.02166(3) 0.82839(3)
Pb3 Pb 1.40699(3) 0.77359(3) 0.73901(3)
Pb4 Pb 1.29113(3) 0.82542(3) 0.92299(3)
O1 O 0.3108(6) 0.8682(6) 0.5663(7)
O2 O 0.4412(6) 0.9375(6) 0.6732(6)
O3 O 0.5882(5) 1.2149(5) 0.5814(6)
O4 O 0.5236(6) 1.2879(6) 0.4299(7)
O5 O 0.5458(6) 0.8901(6) 0.8816(7)
O6 O 0.6167(7) 0.9886(6) 1.0145(7)
O7 O 0.7212(10) 0.5983(9) 0.8260(10)
O8 O 0.8523(9) 0.5534(7) 0.9535(12)
O9 O 1.2582(7) 0.6873(7) 0.6680(8)
O10 O 1.2002(7) 0.7116(7) 0.7876(8)
O11 O 0.9468(9) 0.5000(9) 0.8102(9)
O12 O 0.8762(7) 0.4012(9) 0.6864(9)
O13 O 0.6700(5) 0.3898(5) 0.7042(6)
O14 O 0.9713(10) 0.3630(10) 1.0326(11)
C1 C 0.3676(8) 1.0125(7) 0.5096(8)
C2 C 0.4422(7) 1.0806(7) 0.5339(8)
H1 H 0.4929 1.0773 0.5974
C3 C 0.4403(8) 1.1520(7) 0.4640(8)
C4 C 0.3664(9) 1.1579(8) 0.3712(10)
H2 H 0.3643 1.2082 0.3255
C5 C 0.2944(10) 1.0893(9) 0.3448(10)
H3 H 0.2453 1.0919 0.2801
C6 C 0.2952(10) 1.0182(8) 0.4128(9)
H4 H 0.2462 0.9724 0.3941
C7 C 0.3727(9) 0.9348(8) 0.5870(9)
C8 C 0.5210(8) 1.2251(7) 0.4922(9)
C9 C 0.7002(8) 0.8468(7) 0.9996(8)
C10 C 0.7060(8) 0.7664(8) 0.9384(9)
H5 H 0.6583 0.7569 0.8736
C11 C 0.7813(9) 0.7020(8) 0.9734(9)
C12 C 0.8510(10) 0.7161(8) 1.0688(12)
H6 H 0.9016 0.6724 1.0930
C13 C 0.8472(9) 0.7954(10) 1.1303(11)
H7 H 0.8952 0.8045 1.1950
C14 C 0.7728(8) 0.8598(8) 1.0951(9)
H8 H 0.7710 0.9130 1.1359
C15 C 0.6147(9) 0.9136(8) 0.9614(10)
C16 C 0.7813(12) 0.6118(10) 0.9091(14)
C17 C 1.1391(8) 0.5780(7) 0.6750(9)
C18 C 1.0729(8) 0.5572(8) 0.7166(10)
H9 H 1.0655 0.5998 0.7648
C19 C 1.0175(8) 0.4740(8) 0.6874(9)
C20 C 1.0276(9) 0.4100(8) 0.6153(10)
H10 H 0.9888 0.3549 0.5943
C21 C 1.0934(9) 0.4273(9) 0.5755(9)
H11 H 1.1023 0.3823 0.5301
C22 C 1.1487(9) 0.5131(8) 0.6023(9)
H12 H 1.1917 0.5267 0.5718
C23 C 1.2042(8) 0.6655(7) 0.7128(8)
C24 C 0.9435(8) 0.4581(9) 0.7330(9)
Pb2B Pb 0.57331(3) 0.97834(3) 1.17161(3)
Pb2A Pb 0.57331(3) 0.52166(3) 0.67161(3)
Pb3_2 Pb 0.40699(3) 0.77359(3) 0.73901(3)
Pb3A Pb 0.59301(3) 1.27359(3) 0.76099(3)
Pb3A_2 Pb 0.59301(3) 0.27359(3) 0.76099(3)
Pb4A Pb 0.70887(3) 1.32542(3) 0.57701(3)
Pb4A_2 Pb 0.70887(3) 0.32542(3) 0.57701(3)
O1_2 O 1.3108(6) 0.8682(6) 0.5663(7)
O2_2 O 1.4412(6) 0.9375(6) 0.6732(6)
O3A O 1.4118(5) 0.7149(5) 0.9186(6)
O6B O 0.3833(7) 1.0114(6) 0.9855(7)
O7A O 0.2788(10) 1.0983(9) 0.6740(10)
O12A O 1.1238(7) 0.9012(9) 0.8136(9)
O13A O 0.3300(5) 0.8898(5) 0.7958(6)
O13A_2 O 1.3300(5) 0.8898(5) 0.7958(6)
loop_
_geom_bond_atom_site_label_1
_geom_bond_atom_site_label_2
_geom_bond_site_symmetry_1
_geom_bond_site_symmetry_2
Pb1 O8 1_555 1_555
Pb2 O2 1_555 1_555
Pb3 O9 1_555 1_555
Pb4 O10 1_555 1_555
O1 C7 1_555 1_555
O2 C7 1_555 1_555
O3 C8 1_555 1_555
O4 C8 1_555 1_555
O5 Pb2 1_555 1_555
O6 C15 1_555 1_555
O7 C16 1_555 1_555
O8 C16 1_555 1_555
O9 C23 1_555 1_555
O10 C23 1_555 1_555
O11 Pb1 1_555 1_555
O12 Pb1 1_555 1_555
O13 Pb1 1_555 1_555
O14 Pb1 1_555 1_555
C1 C2 1_555 1_555
C2 H1 1_555 1_555
C3 C2 1_555 1_555
C4 C3 1_555 1_555
H2 C4 1_555 1_555
C5 C4 1_555 1_555
H3 C5 1_555 1_555
C6 C1 1_555 1_555
H4 C6 1_555 1_555
C7 C1 1_555 1_555
C8 C3 1_555 1_555
C9 C10 1_555 1_555
C10 H5 1_555 1_555
C11 C10 1_555 1_555
C12 C11 1_555 1_555
H6 C12 1_555 1_555
C13 C12 1_555 1_555
H7 C13 1_555 1_555
C14 C9 1_555 1_555
H8 C14 1_555 1_555
C15 O5 1_555 1_555
C16 C11 1_555 1_555
C17 C18 1_555 1_555
C18 H9 1_555 1_555
C19 C18 1_555 1_555
C20 C19 1_555 1_555
H10 C20 1_555 1_555
C21 C20 1_555 1_555
H11 C21 1_555 1_555
C22 C17 1_555 1_555
H12 C22 1_555 1_555
C23 C17 1_555 1_555
C24 O11 1_555 1_555
Pb2B O6 1_555 1_555
Pb2A O7 1_555 1_555
Pb3_2 O1 1_555 1_555
Pb3A O3 1_555 1_555
Pb3A_2 O13 1_555 1_555
Pb4A O3 1_555 1_555
Pb4A_2 O12 1_555 1_555
O1_2 Pb3 1_555 1_555
O2_2 Pb3 1_555 1_555
O3A Pb3 1_555 1_555
O6B Pb2 1_555 1_555
O7A Pb2 1_555 1_555
O12A Pb4 1_555 1_555
O13A Pb2 1_555 1_555
O13A_2 Pb3 1_555 1_555
Pb4 O3A 1_555 1_555
Pb4 O13A_2 1_555 1_555
O2 Pb3_2 1_555 1_555
O12 C24 1_555 1_555
O13 Pb2A 1_555 1_555
O13 Pb4A_2 1_555 1_555
C5 C6 1_555 1_555
C9 C15 1_555 1_555
C13 C14 1_555 1_555
C19 C24 1_555 1_555
C21 C22 1_555 1_555
Pb3_2 O13A 1_555 1_555

#END
