
#######################################################################
#
#                 Cambridge Crystallographic Data Centre
#                                CCDC 
#
#######################################################################
#
# If this CIF has been generated from an entry in the Cambridge 
# Structural Database, then it will include bibliographic, chemical, 
# crystal, experimental, refinement or atomic coordinate data resulting 
# from the CCDC's data processing and validation procedures.
#
#######################################################################

data_DITKEX
_symmetry_cell_setting           triclinic
_symmetry_space_group_name_H-M   'P -1'
_symmetry_Int_Tables_number      2
_space_group_name_Hall           '-P 1'
loop_
_symmetry_equiv_pos_site_id
_symmetry_equiv_pos_as_xyz
1 x,y,z
2 -x,-y,-z
_cell_length_a                   6.7881(14)
_cell_length_b                   8.4503(15)
_cell_length_c                   11.744(2)
_cell_angle_alpha                86.875(14)
_cell_angle_beta                 86.256(15)
_cell_angle_gamma                88.459(15)
_cell_volume                     671.032
loop_
_atom_site_label
_atom_site_type_symbol
_atom_site_fract_x
_atom_site_fract_y
_atom_site_fract_z
Pb1 Pb 0.76960(6) 0.36780(4) 0.08236(3)
O1 O 1.0068(11) 0.5908(8) 0.0904(6)
O2 O 1.0585(12) 0.9921(9) 0.3329(6)
O3 O 0.7040(11) 0.5868(9) 0.6609(6)
C1 C 0.9730(14) 0.6361(11) 0.1927(8)
C2 C 0.8551(15) 0.6027(11) 0.3751(8)
C3 C 0.9172(15) 0.7484(11) 0.4039(8)
C4 C 1.0054(15) 0.8536(12) 0.3222(8)
C5 C 0.7704(15) 0.6243(12) 0.5622(8)
N1 N 1.0287(13) 0.7856(9) 0.2160(7)
H1 H 1.0841 0.8438 0.1589
N2 N 0.8764(13) 0.5392(10) 0.2705(7)
N3 N 0.8617(14) 0.7591(10) 0.5211(7)
H2 H 0.8829 0.8408 0.5617
N4 N 0.7656(12) 0.5274(10) 0.4711(7)
H3 H 0.7137 0.4328 0.4740
O4 O 0.8094(11) 0.1095(9) -0.0089(6)
O5 O 0.5259(12) -0.3744(9) 0.0646(6)
O6 O 0.3789(10) -0.2037(8) 0.4995(6)
C6 C 0.7195(16) 0.0131(12) 0.0648(8)
C7 C 0.5774(14) -0.0459(12) 0.2409(8)
C8 C 0.5228(15) -0.1959(11) 0.2122(8)
C9 C 0.5663(16) -0.2439(13) 0.1017(9)
C10 C 0.4410(16) -0.1725(12) 0.3983(8)
N5 N 0.6746(13) -0.1318(10) 0.0343(7)
H4 H 0.7175 -0.1585 -0.0345
N6 N 0.6731(13) 0.0636(10) 0.1708(7)
N7 N 0.4387(13) -0.2717(11) 0.3112(7)
H5 H 0.3918 -0.3681 0.3165
N8 N 0.5231(12) -0.0331(10) 0.3544(7)
H6 H 0.5384 0.0513 0.3934
O7 O 1.1032(11) 0.2396(9) 0.1679(6)
Pb1A Pb 1.23040(6) 0.63220(4) -0.08236(3)
Pb1_2 Pb 0.76960(6) -0.63220(4) 0.08236(3)
Pb1A_2 Pb 0.23040(6) -0.36780(4) -0.08236(3)
O1A O 0.9932(11) 0.4092(8) -0.0904(6)
O5_2 O 0.5259(12) 0.6256(9) 0.0646(6)
O5A O 0.4741(12) 0.3744(9) -0.0646(6)
loop_
_geom_bond_atom_site_label_1
_geom_bond_atom_site_label_2
_geom_bond_site_symmetry_1
_geom_bond_site_symmetry_2
Pb1 O1 1_555 1_555
O1 C1 1_555 1_555
O2 C4 1_555 1_555
O3 C5 1_555 1_555
C1 N1 1_555 1_555
C2 C3 1_555 1_555
C3 C4 1_555 1_555
C4 N1 1_555 1_555
C5 N3 1_555 1_555
N1 H1 1_555 1_555
N2 Pb1 1_555 1_555
N3 C3 1_555 1_555
H2 N3 1_555 1_555
N4 C2 1_555 1_555
H3 N4 1_555 1_555
O4 Pb1 1_555 1_555
O5 C9 1_555 1_555
O6 C10 1_555 1_555
C6 O4 1_555 1_555
C7 C8 1_555 1_555
C8 C9 1_555 1_555
C9 N5 1_555 1_555
C10 N7 1_555 1_555
N5 C6 1_555 1_555
H4 N5 1_555 1_555
N6 Pb1 1_555 1_555
N7 C8 1_555 1_555
H5 N7 1_555 1_555
N8 C7 1_555 1_555
H6 N8 1_555 1_555
O7 Pb1 1_555 1_555
Pb1A O1 1_555 1_555
Pb1_2 O5 1_555 1_555
Pb1A_2 O5 1_555 1_555
O1A Pb1 1_555 1_555
O5_2 Pb1 1_555 1_555
O5A Pb1 1_555 1_555
C1 N2 1_555 1_555
C2 N2 1_555 1_555
C5 N4 1_555 1_555
C6 N6 1_555 1_555
C7 N6 1_555 1_555
C10 N8 1_555 1_555
Pb1A O1A 1_555 1_555

#END
