
#######################################################################
#
#                 Cambridge Crystallographic Data Centre
#                                CCDC 
#
#######################################################################
#
# If this CIF has been generated from an entry in the Cambridge 
# Structural Database, then it will include bibliographic, chemical, 
# crystal, experimental, refinement or atomic coordinate data resulting 
# from the CCDC's data processing and validation procedures.
#
#######################################################################

data_DITKAT01
_symmetry_cell_setting           monoclinic
_symmetry_space_group_name_H-M   'P 21/c'
_symmetry_Int_Tables_number      14
_space_group_name_Hall           '-P 2ybc'
loop_
_symmetry_equiv_pos_site_id
_symmetry_equiv_pos_as_xyz
1 x,y,z
2 -x,1/2+y,1/2-z
3 -x,-y,-z
4 x,1/2-y,1/2+z
_cell_length_a                   15.299(3)
_cell_length_b                   13.601(2)
_cell_length_c                   14.040(3)
_cell_angle_alpha                90
_cell_angle_beta                 112.600(2)
_cell_angle_gamma                90
_cell_volume                     2697.13
loop_
_atom_site_label
_atom_site_type_symbol
_atom_site_fract_x
_atom_site_fract_y
_atom_site_fract_z
Pb1 Pb -0.09305(2) 0.273560(15) 0.239010(18)
Pb2 Pb -0.20875(2) 0.325480(16) 0.423070(18)
Pb3 Pb 0.07317(2) 0.021650(16) 0.171510(19)
Pb4 Pb -0.32954(2) 0.406590(17) 0.14398(2)
O1 O -0.0883(4) 0.2151(3) 0.4187(3)
O2 O 0.0585(4) -0.0617(3) 0.3262(3)
O3 O -0.1702(3) 0.3895(3) 0.2952(3)
O4 O 0.1905(4) -0.1313(3) 0.4343(3)
O5 O 0.1169(4) 0.0118(3) 0.0144(4)
O6 O 0.0463(4) 0.1105(3) -0.1181(4)
O7 O -0.0226(4) 0.2883(3) 0.5706(4)
O8 O -0.2429(4) 0.1873(3) 0.1653(4)
C1 C 0.1272(6) -0.0653(4) 0.4126(5)
O9 O -0.2989(4) 0.2103(3) 0.2881(4)
C2 C 0.1306(5) 0.0123(4) 0.4898(5)
C3 C -0.0208(5) 0.2245(4) 0.5073(5)
O10 O -0.6234(5) -0.0993(4) 0.1867(5)
O11 O -0.5523(5) -0.0002(4) 0.3102(5)
C4 C 0.0589(5) 0.0808(4) 0.4650(5)
H1 H 0.0092 0.0781 0.4009
C5 C 0.2006(5) 0.1537(4) -0.0023(5)
C6 C -0.4263(5) 0.0578(4) 0.2158(5)
H2 H -0.4331 0.1012 0.2636
C7 C -0.4834(5) -0.0250(4) 0.1871(5)
C8 C 0.0599(5) 0.1546(4) 0.5351(5)
C9 C 0.2061(5) 0.2334(4) -0.0620(5)
H3 H 0.1586 0.2432 -0.1268
C10 C -0.3594(5) 0.0767(4) 0.1744(5)
C11 C -0.2951(6) 0.1644(4) 0.2120(5)
C12 C -0.5576(6) -0.0433(5) 0.2304(6)
C13 C 0.2729(5) 0.1405(5) 0.0949(5)
H4 H 0.2707 0.0873 0.1356
C14 C 0.1332(6) 0.1581(4) 0.6294(5)
H5 H 0.1336 0.2061 0.6766
C15 C 0.3466(6) 0.2055(5) 0.1304(5)
H6 H 0.3937 0.1966 0.1956
C16 C -0.3493(6) 0.0129(4) 0.1038(5)
H7 H -0.3045 0.0252 0.0755
O12 O 0.2210(6) 0.4019(4) -0.1753(6)
C17 C -0.4738(6) -0.0894(5) 0.1162(5)
H8 H -0.5120 -0.1449 0.0965
C18 C 0.1161(6) 0.0883(4) -0.0385(5)
C19 C 0.2050(5) 0.0160(4) 0.5858(5)
H9 H 0.2529 -0.0309 0.6036
O13 O 0.3529(6) 0.4470(4) -0.0448(6)
C20 C -0.4066(6) -0.0708(5) 0.0744(5)
H10 H -0.3998 -0.1142 0.0266
C21 C 0.2821(6) 0.2987(4) -0.0254(6)
C22 C 0.3519(6) 0.2844(5) 0.0703(6)
H11 H 0.4028 0.3277 0.0950
C23 C 0.2076(6) 0.0906(5) 0.6557(5)
H12 H 0.2582 0.0951 0.7190
O14 O -0.4685(6) 0.3616(5) -0.0350(5)
C24 C 0.2842(7) 0.3886(5) -0.0899(7)
H13 H -0.5188 0.3321 -0.0473
H14 H -0.4803 0.4018 -0.0815
Pb1A Pb 0.09305(2) -0.226440(15) 0.260990(18)
Pb2A Pb -0.79125(2) -0.174520(16) 0.076930(18)
Pb3A Pb -0.07317(2) 0.521650(16) 0.328490(19)
Pb3B Pb -0.07317(2) -0.021650(16) -0.171510(19)
Pb3C Pb 0.07317(2) 0.478350(16) -0.328490(19)
Pb4B Pb 0.32954(2) 0.593410(17) -0.14398(2)
Pb4A Pb -0.67046(2) -0.093410(17) 0.35602(2)
O2A O -0.0585(4) 0.4383(3) 0.1738(3)
O3A O 0.1702(3) -0.1105(3) 0.2048(3)
O4A O -0.1905(4) 0.3687(3) 0.0657(3)
O6B O -0.0463(4) -0.1105(3) 0.1181(4)
O10A O -0.3766(5) 0.4007(4) 0.3133(5)
O11A O -0.4477(5) 0.4998(4) 0.1898(5)
O12C O 0.2210(6) 0.0981(4) 0.3247(6)
O13B O -0.3529(6) 0.5530(4) 0.0448(6)
loop_
_geom_bond_atom_site_label_1
_geom_bond_atom_site_label_2
_geom_bond_site_symmetry_1
_geom_bond_site_symmetry_2
Pb1 O1 1_555 1_555
Pb2 O1 1_555 1_555
Pb3 O2 1_555 1_555
Pb4 O3 1_555 1_555
O1 C3 1_555 1_555
O2 C1 1_555 1_555
O3 Pb1 1_555 1_555
O4 C1 1_555 1_555
O5 Pb3 1_555 1_555
O6 C18 1_555 1_555
O7 C3 1_555 1_555
O8 Pb1 1_555 1_555
C1 C2 1_555 1_555
O9 Pb2 1_555 1_555
C2 C4 1_555 1_555
C3 C8 1_555 1_555
O10 C12 1_555 1_555
O11 C12 1_555 1_555
C4 H1 1_555 1_555
C5 C9 1_555 1_555
C6 H2 1_555 1_555
C7 C6 1_555 1_555
C8 C4 1_555 1_555
C9 H3 1_555 1_555
C10 C6 1_555 1_555
C11 O8 1_555 1_555
C12 C7 1_555 1_555
C13 C5 1_555 1_555
H4 C13 1_555 1_555
C14 C8 1_555 1_555
H5 C14 1_555 1_555
C15 C13 1_555 1_555
H6 C15 1_555 1_555
C16 C10 1_555 1_555
H7 C16 1_555 1_555
O12 C24 1_555 1_555
C17 C7 1_555 1_555
H8 C17 1_555 1_555
C18 O5 1_555 1_555
C19 C2 1_555 1_555
H9 C19 1_555 1_555
O13 C24 1_555 1_555
C20 C16 1_555 1_555
H10 C20 1_555 1_555
C21 C9 1_555 1_555
C22 C15 1_555 1_555
H11 C22 1_555 1_555
C23 C14 1_555 1_555
H12 C23 1_555 1_555
O14 Pb4 1_555 1_555
C24 C21 1_555 1_555
H13 O14 1_555 1_555
H14 O14 1_555 1_555
Pb1A O2 1_555 1_555
Pb2A O10 1_555 1_555
Pb3A O3 1_555 1_555
Pb3B O6 1_555 1_555
Pb3C O12 1_555 1_555
Pb4B O13 1_555 1_555
Pb4A O10 1_555 1_555
O2A Pb1 1_555 1_555
O3A Pb3 1_555 1_555
O4A Pb1 1_555 1_555
O6B Pb3 1_555 1_555
O10A Pb2 1_555 1_555
O11A Pb4 1_555 1_555
O12C Pb3 1_555 1_555
O13B Pb4 1_555 1_555
Pb2 O3 1_555 1_555
Pb4 O10A 1_555 1_555
O4 Pb1A 1_555 1_555
O9 C11 1_555 1_555
O11 Pb4A 1_555 1_555
C5 C18 1_555 1_555
C10 C11 1_555 1_555
C17 C20 1_555 1_555
C19 C23 1_555 1_555
C21 C22 1_555 1_555
Pb1A O3A 1_555 1_555
Pb3A O2A 1_555 1_555

#END
