
#######################################################################
#
#                 Cambridge Crystallographic Data Centre
#                                CCDC 
#
#######################################################################
#
# If this CIF has been generated from an entry in the Cambridge 
# Structural Database, then it will include bibliographic, chemical, 
# crystal, experimental, refinement or atomic coordinate data resulting 
# from the CCDC's data processing and validation procedures.
#
#######################################################################

data_DITLIC
_symmetry_cell_setting           triclinic
_symmetry_space_group_name_H-M   'P -1'
_symmetry_Int_Tables_number      2
_space_group_name_Hall           '-P 1'
loop_
_symmetry_equiv_pos_site_id
_symmetry_equiv_pos_as_xyz
1 x,y,z
2 -x,-y,-z
_cell_length_a                   9.5100(19)
_cell_length_b                   9.977(2)
_cell_length_c                   11.716(2)
_cell_angle_alpha                96.33(3)
_cell_angle_beta                 107.86(3)
_cell_angle_gamma                102.96(3)
_cell_volume                     1011.72
loop_
_atom_site_label
_atom_site_type_symbol
_atom_site_fract_x
_atom_site_fract_y
_atom_site_fract_z
Co1 Co 1.5000 1.0000 1.5000
N1 N 1.3687(5) 0.9423(4) 1.3024(4)
N2 N 1.2912(5) 0.9572(4) 1.5522(4)
C6 C 1.2514(6) 0.8261(6) 1.2533(4)
H5 H 1.2231 0.7705 1.3056
C7 C 1.1691(6) 0.7837(6) 1.1280(5)
H6 H 1.0879 0.7026 1.0989
C8 C 1.2093(6) 0.8629(6) 1.0478(4)
C9 C 1.3293(6) 0.9853(6) 1.0991(5)
H7 H 1.3579 1.0439 1.0488
C10 C 1.4057(6) 1.0202(5) 1.2233(4)
H8 H 1.4868 1.1014 1.2542
C11 C 1.1274(7) 0.8215(6) 0.9111(4)
H9 H 1.0692 0.7237 0.8911
H10 H 1.2032 0.8309 0.8707
C12 C 1.0180(6) 0.9103(6) 0.8616(4)
H11 H 1.0748 1.0086 0.8855
H12 H 0.9385 0.8966 0.8983
C13 C 0.9424(6) 0.8731(6) 0.7218(4)
H13 H 0.8869 0.7745 0.6975
H14 H 0.8689 0.9269 0.6962
C14 C 1.2424(6) 1.0593(6) 1.5996(5)
H15 H 1.2877 1.1513 1.5972
C15 C 1.1300(6) 1.0362(6) 1.6513(4)
H16 H 1.1014 1.1118 1.6821
C16 C 1.0594(6) 0.9032(6) 0.6581(4)
C17 C 1.1049(6) 0.7950(6) 0.6062(5)
H17 H 1.0585 0.7022 0.6058
C18 C 1.2190(6) 0.8258(6) 1.5554(5)
H18 H 1.2474 0.7518 1.5217
O4 O 1.5053(4) 0.7931(4) 1.4962(3)
H19 H 1.526(7) 0.746(7) 1.557(6)
H20 H 1.474(7) 0.730(5) 1.428(3)
Co1_2 Co 1.5000 1.0000 0.5000
Co1_3 Co 1.5000 1.0000 2.5000
N1A N 1.6313(5) 1.0577(4) 1.6976(4)
N1_2 N 1.3687(5) 0.9423(4) 2.3024(4)
N2A N 1.7088(5) 1.0428(4) 1.4478(4)
N2_2 N 1.2912(5) 0.9572(4) 0.5522(4)
C6_2 C 1.2514(6) 0.8261(6) 2.2533(4)
H5_2 H 1.2231 0.7705 2.3056
C7_2 C 1.1691(6) 0.7837(6) 2.1280(5)
H6_2 H 1.0879 0.7026 2.0989
C8_2 C 1.2093(6) 0.8629(6) 2.0478(4)
C9_2 C 1.3293(6) 0.9853(6) 2.0991(5)
H7_2 H 1.3579 1.0439 2.0488
C10_2 C 1.4057(6) 1.0202(5) 2.2233(4)
H8_2 H 1.4868 1.1014 2.2542
C11_2 C 1.1274(7) 0.8215(6) 1.9111(4)
H9_2 H 1.0692 0.7237 1.8911
H10_2 H 1.2032 0.8309 1.8707
C12_2 C 1.0180(6) 0.9103(6) 1.8616(4)
H11_2 H 1.0748 1.0086 1.8855
H12_2 H 0.9385 0.8966 1.8983
C13_2 C 0.9424(6) 0.8731(6) 1.7218(4)
H13_2 H 0.8869 0.7745 1.6975
H14_2 H 0.8689 0.9269 1.6962
C14_2 C 1.2424(6) 1.0593(6) 0.5996(5)
H15_2 H 1.2877 1.1513 0.5972
C15_2 C 1.1300(6) 1.0362(6) 0.6513(4)
H16_2 H 1.1014 1.1118 0.6821
C16_2 C 1.0594(6) 0.9032(6) 1.6581(4)
C17_2 C 1.1049(6) 0.7950(6) 1.6062(5)
H17_2 H 1.0585 0.7022 1.6058
C18_2 C 1.2190(6) 0.8258(6) 0.5554(5)
H18_2 H 1.2474 0.7518 0.5217
O4A O 1.4947(4) 1.2069(4) 1.5038(3)
H19A H 1.474(7) 1.254(7) 1.443(6)
H20A H 1.526(7) 1.270(5) 1.572(3)
Fe1 Fe 0.5000 0.5000 1.0000
S1 S 0.48606(17) 0.52306(15) 0.71147(11)
C1 C 0.5428(6) 0.5963(5) 0.8663(4)
C2 C 0.6833(7) 0.6031(7) 0.9577(5)
H1 H 0.7648 0.5641 0.9460
C3 C 0.6842(9) 0.6745(7) 1.0702(5)
H2 H 0.7663 0.6927 1.1496
C4 C 0.5465(10) 0.7153(6) 1.0475(6)
H3 H 0.5163 0.7650 1.1090
C5 C 0.4553(8) 0.6656(6) 0.9218(5)
H4 H 0.3539 0.6780 0.8806
O1 O 0.3235(6) 0.5024(7) 0.6606(4)
O2 O 0.5346(7) 0.3964(5) 0.7058(3)
O3 O 0.5703(5) 0.6259(5) 0.6604(4)
S1A S 0.51394(17) 0.47694(15) 1.28853(11)
C1A C 0.4572(6) 0.4037(5) 1.1337(4)
C2A C 0.3167(7) 0.3969(7) 1.0423(5)
H1A H 0.2352 0.4359 1.0540
C3A C 0.3158(9) 0.3255(7) 0.9298(5)
H2A H 0.2337 0.3073 0.8504
C4A C 0.4535(10) 0.2847(6) 0.9525(6)
H3A H 0.4837 0.2350 0.8910
C5A C 0.5447(8) 0.3344(6) 1.0782(5)
H4A H 0.6461 0.3220 1.1194
O1A O 0.6765(6) 0.4976(7) 1.3394(4)
O2A O 0.4654(7) 0.6036(5) 1.2942(3)
O3A O 0.4297(5) 0.3741(5) 1.3396(4)
O5 O 0.8023(6) 0.5033(5) 0.5918(5)
H21 H 0.725(9) 0.525(8) 0.606(6)
H22 H 0.771(7) 0.511(6) 0.517(6)
O6 O 1.0562(8) 0.4314(10) 0.7405(8)
H23 H 1.12(2) 0.44(2) 0.678(16)
H24 H 0.979(7) 0.449(9) 0.689(6)
loop_
_geom_bond_atom_site_label_1
_geom_bond_atom_site_label_2
_geom_bond_site_symmetry_1
_geom_bond_site_symmetry_2
Co1 N1 1_555 1_555
Fe1 C1 1_555 1_555
N1 C6 1_555 1_555
N2 Co1 1_555 1_555
S1 C1 1_555 1_555
C1 C2 1_555 1_555
C2 Fe1 1_555 1_555
H1 C2 1_555 1_555
C3 Fe1 1_555 1_555
H2 C3 1_555 1_555
C4 Fe1 1_555 1_555
H3 C4 1_555 1_555
C5 Fe1 1_555 1_555
H4 C5 1_555 1_555
C6 H5 1_555 1_555
C7 C6 1_555 1_555
H6 C7 1_555 1_555
C8 C7 1_555 1_555
C9 C8 1_555 1_555
H7 C9 1_555 1_555
C10 N1 1_555 1_555
H8 C10 1_555 1_555
C11 C8 1_555 1_555
H9 C11 1_555 1_555
H10 C11 1_555 1_555
C12 C11 1_555 1_555
H11 C12 1_555 1_555
H12 C12 1_555 1_555
C13 C12 1_555 1_555
H13 C13 1_555 1_555
H14 C13 1_555 1_555
C14 N2 1_555 1_555
H15 C14 1_555 1_555
C15 C14 1_555 1_555
H16 C15 1_555 1_555
C16 C13 1_555 1_555
C17 C16 1_555 1_555
H17 C17 1_555 1_555
C18 N2 1_555 1_555
H18 C18 1_555 1_555
O1 S1 1_555 1_555
O2 S1 1_555 1_555
O3 S1 1_555 1_555
O4 Co1 1_555 1_555
O5 H21 1_555 1_555
O6 H23 1_555 1_555
H19 O4 1_555 1_555
H20 O4 1_555 1_555
H22 O5 1_555 1_555
H24 O6 1_555 1_555
Co1_2 N2_2 1_555 1_555
Co1_3 N1_2 1_555 1_555
N1A Co1 1_555 1_555
N1_2 C6_2 1_555 1_555
N2A Co1 1_555 1_555
N2_2 C14_2 1_555 1_555
S1A C1A 1_555 1_555
C1A Fe1 1_555 1_555
C2A Fe1 1_555 1_555
H1A C2A 1_555 1_555
C3A Fe1 1_555 1_555
H2A C3A 1_555 1_555
C4A Fe1 1_555 1_555
H3A C4A 1_555 1_555
C5A Fe1 1_555 1_555
H4A C5A 1_555 1_555
C6_2 H5_2 1_555 1_555
C7_2 C6_2 1_555 1_555
H6_2 C7_2 1_555 1_555
C8_2 C7_2 1_555 1_555
C9_2 C8_2 1_555 1_555
H7_2 C9_2 1_555 1_555
C10_2 N1_2 1_555 1_555
H8_2 C10_2 1_555 1_555
C11_2 C8_2 1_555 1_555
H9_2 C11_2 1_555 1_555
H10_2 C11_2 1_555 1_555
C12_2 C11_2 1_555 1_555
H11_2 C12_2 1_555 1_555
H12_2 C12_2 1_555 1_555
C13_2 C12_2 1_555 1_555
H13_2 C13_2 1_555 1_555
H14_2 C13_2 1_555 1_555
C14_2 H15_2 1_555 1_555
C15_2 C16 1_555 1_555
H16_2 C15_2 1_555 1_555
C16_2 C15 1_555 1_555
C17_2 C18 1_555 1_555
H17_2 C17_2 1_555 1_555
C18_2 C17 1_555 1_555
H18_2 C18_2 1_555 1_555
O1A S1A 1_555 1_555
O2A S1A 1_555 1_555
O3A S1A 1_555 1_555
O4A Co1 1_555 1_555
H19A O4A 1_555 1_555
H20A O4A 1_555 1_555
C1 C5 1_555 1_555
C2 C3 1_555 1_555
C3 C4 1_555 1_555
C4 C5 1_555 1_555
C9 C10 1_555 1_555
N2_2 C18_2 1_555 1_555
C1A C2A 1_555 1_555
C1A C5A 1_555 1_555
C2A C3A 1_555 1_555
C3A C4A 1_555 1_555
C4A C5A 1_555 1_555
C9_2 C10_2 1_555 1_555
C13_2 C16_2 1_555 1_555
C14_2 C15_2 1_555 1_555
C16_2 C17_2 1_555 1_555

#END
