
#######################################################################
#
#                 Cambridge Crystallographic Data Centre
#                                CCDC 
#
#######################################################################
#
# If this CIF has been generated from an entry in the Cambridge 
# Structural Database, then it will include bibliographic, chemical, 
# crystal, experimental, refinement or atomic coordinate data resulting 
# from the CCDC's data processing and validation procedures.
#
#######################################################################

data_DITLEY
_symmetry_cell_setting           monoclinic
_symmetry_space_group_name_H-M   'C 2/c'
_symmetry_Int_Tables_number      15
_space_group_name_Hall           '-C 2yn'
loop_
_symmetry_equiv_pos_site_id
_symmetry_equiv_pos_as_xyz
1 x,y,z
2 1/2+x,1/2+y,z
3 -x,y,1/2-z
4 1/2-x,1/2+y,1/2-z
5 -x,-y,-z
6 1/2-x,1/2-y,-z
7 x,-y,1/2+z
8 1/2+x,1/2-y,1/2+z
_cell_length_a                   17.893(4)
_cell_length_b                   12.163(2)
_cell_length_c                   13.371(3)
_cell_angle_alpha                90
_cell_angle_beta                 121.43(3)
_cell_angle_gamma                90
_cell_volume                     2483.01
loop_
_atom_site_label
_atom_site_type_symbol
_atom_site_fract_x
_atom_site_fract_y
_atom_site_fract_z
Co1 Co -0.5000 0.12312(3) -0.2500
N1 N -0.50614(13) 0.25198(15) -0.14431(17)
O4 O -0.50997(14) 0.00392(16) -0.14547(16)
O5 O -0.36101(12) 0.11535(15) -0.14615(17)
C6 C -0.4415(2) 0.2736(2) -0.0347(2)
H5 H -0.3972 0.2217 0.0038
C7 C -0.4370(2) 0.3684(2) 0.0241(2)
H6 H -0.3904 0.3792 0.1003
C8 C -0.50121(16) 0.44741(18) -0.0291(2)
C9 C -0.56966(18) 0.4226(2) -0.1405(2)
H7 H -0.6161 0.4715 -0.1794
C10 C -0.56984(18) 0.3263(2) -0.1942(2)
H8 H -0.6169 0.3123 -0.2692
H9 H -0.536(2) 0.022(2) -0.128(3)
H10 H -0.335(2) 0.096(3) -0.079(3)
H11 H -0.335(2) 0.094(2) -0.173(3)
H12 H -0.465(2) -0.029(3) -0.083(3)
Co1F Co -0.5000 0.87688(3) 0.2500
N1D N -0.49386(13) 0.74802(15) 0.14431(17)
N1B N -0.49386(13) 0.25198(15) -0.35569(17)
O4B O -0.49003(14) 0.00392(16) -0.35453(16)
O5B O -0.63899(12) 0.11535(15) -0.35385(17)
C6D C -0.5585(2) 0.7264(2) 0.0347(2)
H5D H -0.6028 0.7783 -0.0038
C7D C -0.5630(2) 0.6316(2) -0.0241(2)
H6D H -0.6096 0.6208 -0.1003
C8D C -0.49879(16) 0.55259(18) 0.0291(2)
C9D C -0.43034(18) 0.5774(2) 0.1405(2)
H7D H -0.3839 0.5285 0.1794
C10D C -0.43016(18) 0.6737(2) 0.1942(2)
H8D H -0.3831 0.6877 0.2692
H9B H -0.464(2) 0.022(2) -0.372(3)
H10B H -0.665(2) 0.096(3) -0.421(3)
H11B H -0.665(2) 0.094(2) -0.327(3)
H12B H -0.535(2) -0.029(3) -0.417(3)
Fe1 Fe -0.2500 -0.2500 0.0000
S1 S -0.29444(4) -0.04259(5) 0.13420(5)
O1 O -0.26758(11) -0.03229(15) 0.25708(14)
O2 O -0.27968(12) 0.05738(13) 0.08693(15)
O3 O -0.38481(10) -0.08225(15) 0.06389(14)
C1 C -0.22560(15) -0.14243(19) 0.1299(2)
C2 C -0.21422(19) -0.2525(2) 0.1728(2)
H1 H -0.2463 -0.2878 0.2053
C3 C -0.14758(19) -0.3009(2) 0.1602(2)
H2 H -0.1265 -0.3767 0.1810
C4 C -0.11771(18) -0.2235(2) 0.1113(3)
H3 H -0.0723 -0.2360 0.0925
C5 C -0.16526(16) -0.1244(2) 0.0921(2)
H4 H -0.1579 -0.0561 0.0592
S1E S -0.20556(4) -0.45741(5) -0.13420(5)
O1E O -0.23242(11) -0.46771(15) -0.25708(14)
O2E O -0.22032(12) -0.55738(13) -0.08693(15)
O3E O -0.11519(10) -0.41775(15) -0.06389(14)
C1E C -0.27440(15) -0.35757(19) -0.1299(2)
C2E C -0.28578(19) -0.2475(2) -0.1728(2)
H1E H -0.2537 -0.2122 -0.2053
C3E C -0.35242(19) -0.1991(2) -0.1602(2)
H2E H -0.3735 -0.1233 -0.1810
C4E C -0.38229(18) -0.2765(2) -0.1113(3)
H3E H -0.4277 -0.2640 -0.0925
C5E C -0.33474(16) -0.3756(2) -0.0921(2)
H4E H -0.3421 -0.4439 -0.0592
loop_
_geom_bond_atom_site_label_1
_geom_bond_atom_site_label_2
_geom_bond_site_symmetry_1
_geom_bond_site_symmetry_2
Co1 N1 1_555 1_555
Fe1 C1 1_555 1_555
N1 C6 1_555 1_555
S1 O1 1_555 1_555
O2 S1 1_555 1_555
O3 S1 1_555 1_555
O4 Co1 1_555 1_555
O5 Co1 1_555 1_555
C1 S1 1_555 1_555
C2 Fe1 1_555 1_555
H1 C2 1_555 1_555
C3 Fe1 1_555 1_555
H2 C3 1_555 1_555
C4 Fe1 1_555 1_555
H3 C4 1_555 1_555
C5 Fe1 1_555 1_555
H4 C5 1_555 1_555
C6 H5 1_555 1_555
C7 C6 1_555 1_555
H6 C7 1_555 1_555
C8 C7 1_555 1_555
C9 C8 1_555 1_555
H7 C9 1_555 1_555
C10 N1 1_555 1_555
H8 C10 1_555 1_555
H9 O4 1_555 1_555
H10 O5 1_555 1_555
H11 O5 1_555 1_555
H12 O4 1_555 1_555
Co1F N1D 1_555 1_555
N1D C6D 1_555 1_555
N1B Co1 1_555 1_555
S1E O1E 1_555 1_555
O2E S1E 1_555 1_555
O3E S1E 1_555 1_555
O4B Co1 1_555 1_555
O5B Co1 1_555 1_555
C1E Fe1 1_555 1_555
C2E Fe1 1_555 1_555
H1E C2E 1_555 1_555
C3E Fe1 1_555 1_555
H2E C3E 1_555 1_555
C4E Fe1 1_555 1_555
H3E C4E 1_555 1_555
C5E Fe1 1_555 1_555
H4E C5E 1_555 1_555
C6D H5D 1_555 1_555
C7D C6D 1_555 1_555
H6D C7D 1_555 1_555
C8D C8 1_555 1_555
C9D C8D 1_555 1_555
H7D C9D 1_555 1_555
C10D N1D 1_555 1_555
H8D C10D 1_555 1_555
H9B O4B 1_555 1_555
H10B O5B 1_555 1_555
H11B O5B 1_555 1_555
H12B O4B 1_555 1_555
C1 C2 1_555 1_555
C1 C5 1_555 1_555
C2 C3 1_555 1_555
C3 C4 1_555 1_555
C4 C5 1_555 1_555
C9 C10 1_555 1_555
S1E C1E 1_555 1_555
C1E C2E 1_555 1_555
C1E C5E 1_555 1_555
C2E C3E 1_555 1_555
C3E C4E 1_555 1_555
C4E C5E 1_555 1_555
C7D C8D 1_555 1_555
C9D C10D 1_555 1_555

#END
