
#######################################################################
#
#                 Cambridge Crystallographic Data Centre
#                                CCDC 
#
#######################################################################
#
# If this CIF has been generated from an entry in the Cambridge 
# Structural Database, then it will include bibliographic, chemical, 
# crystal, experimental, refinement or atomic coordinate data resulting 
# from the CCDC's data processing and validation procedures.
#
#######################################################################

data_DITLOI
_symmetry_cell_setting           monoclinic
_symmetry_space_group_name_H-M   'C 2/c'
_symmetry_Int_Tables_number      15
_space_group_name_Hall           '-C 2yn'
loop_
_symmetry_equiv_pos_site_id
_symmetry_equiv_pos_as_xyz
1 x,y,z
2 1/2+x,1/2+y,z
3 -x,y,1/2-z
4 1/2-x,1/2+y,1/2-z
5 -x,-y,-z
6 1/2-x,1/2-y,-z
7 x,-y,1/2+z
8 1/2+x,1/2-y,1/2+z
_cell_length_a                   17.855(4)
_cell_length_b                   12.213(2)
_cell_length_c                   13.351(3)
_cell_angle_alpha                90
_cell_angle_beta                 121.27(3)
_cell_angle_gamma                90
_cell_volume                     2488.43
loop_
_atom_site_label
_atom_site_type_symbol
_atom_site_fract_x
_atom_site_fract_y
_atom_site_fract_z
Fe1 Fe 0.2500 0.7500 0.0000
S1 S 0.20586(5) 0.54207(7) 0.13406(6)
C1 C 0.27465(19) 0.6423(3) 0.1298(3)
C2 C 0.2852(2) 0.7519(3) 0.1730(3)
H1 H 0.2532 0.7866 0.2059
C3 C 0.3526(2) 0.8003(3) 0.1601(3)
H2 H 0.3739 0.8757 0.1810
C4 C 0.3822(2) 0.7232(3) 0.1104(3)
H3 H 0.4275 0.7358 0.0911
C5 C 0.3352(2) 0.6241(3) 0.0919(3)
H4 H 0.3426 0.5562 0.0589
O1 O 0.23268(14) 0.5315(2) 0.25683(18)
O2 O 0.11535(13) 0.5814(2) 0.06400(19)
O3 O 0.22112(15) 0.44242(19) 0.0867(2)
S1E S 0.29414(5) 0.95793(7) -0.13406(6)
C1E C 0.22535(19) 0.8577(3) -0.1298(3)
C2E C 0.2148(2) 0.7481(3) -0.1730(3)
H1E H 0.2468 0.7134 -0.2059
C3E C 0.1474(2) 0.6997(3) -0.1601(3)
H2E H 0.1261 0.6243 -0.1810
C4E C 0.1178(2) 0.7768(3) -0.1104(3)
H3E H 0.0725 0.7642 -0.0911
C5E C 0.1648(2) 0.8759(3) -0.0919(3)
H4E H 0.1574 0.9438 -0.0589
O1E O 0.26732(14) 0.9685(2) -0.25683(18)
O2E O 0.38465(13) 0.9186(2) -0.06400(19)
O3E O 0.27888(15) 1.05758(19) -0.0867(2)
Zn1 Zn 0.0000 0.37689(4) -0.2500
N1 N -0.00599(17) 0.2473(2) -0.1441(2)
C6 C -0.0693(2) 0.1733(3) -0.1936(3)
H5 H -0.1163 0.1872 -0.2688
C7 C -0.0696(2) 0.0776(3) -0.1407(3)
H6 H -0.1161 0.0290 -0.1800
C8 C -0.00140(19) 0.0524(3) -0.0292(3)
C9 C 0.0631(3) 0.1316(3) 0.0233(3)
H7 H 0.1104 0.1204 0.0989
C10 C 0.0584(2) 0.2261(3) -0.0346(3)
H8 H 0.1022 0.2783 0.0043
O4 O -0.01029(19) 0.4964(2) -0.1464(2)
O5 O 0.13978(17) 0.3843(2) -0.1451(2)
H9 H 0.031(3) 0.520(3) -0.094(3)
H10 H 0.167(3) 0.408(4) -0.075(4)
H11 H -0.042(3) 0.485(4) -0.127(4)
H12 H 0.162(2) 0.400(3) -0.169(3)
Zn1F Zn 0.0000 -0.37689(4) 0.2500
N1D N 0.00599(17) -0.2473(2) 0.1441(2)
N1B N 0.00599(17) 0.2473(2) -0.3559(2)
C6D C 0.0693(2) -0.1733(3) 0.1936(3)
H5D H 0.1163 -0.1872 0.2688
C7D C 0.0696(2) -0.0776(3) 0.1407(3)
H6D H 0.1161 -0.0290 0.1800
C8D C 0.00140(19) -0.0524(3) 0.0292(3)
C9D C -0.0631(3) -0.1316(3) -0.0233(3)
H7D H -0.1104 -0.1204 -0.0989
C10D C -0.0584(2) -0.2261(3) 0.0346(3)
H8D H -0.1022 -0.2783 -0.0043
O4B O 0.01029(19) 0.4964(2) -0.3536(2)
O5B O -0.13978(17) 0.3843(2) -0.3549(2)
H9B H -0.031(3) 0.520(3) -0.406(3)
H10B H -0.167(3) 0.408(4) -0.425(4)
H11B H 0.042(3) 0.485(4) -0.373(4)
H12B H -0.162(2) 0.400(3) -0.331(3)
loop_
_geom_bond_atom_site_label_1
_geom_bond_atom_site_label_2
_geom_bond_site_symmetry_1
_geom_bond_site_symmetry_2
Fe1 C1 1_555 1_555
Zn1 N1 1_555 1_555
N1 C6 1_555 1_555
S1 C1 1_555 1_555
C1 C2 1_555 1_555
C2 Fe1 1_555 1_555
H1 C2 1_555 1_555
C3 Fe1 1_555 1_555
H2 C3 1_555 1_555
C4 Fe1 1_555 1_555
H3 C4 1_555 1_555
C5 Fe1 1_555 1_555
H4 C5 1_555 1_555
C6 H5 1_555 1_555
C7 C6 1_555 1_555
H6 C7 1_555 1_555
C8 C7 1_555 1_555
C9 C8 1_555 1_555
H7 C9 1_555 1_555
C10 N1 1_555 1_555
H8 C10 1_555 1_555
O1 S1 1_555 1_555
O2 S1 1_555 1_555
O3 S1 1_555 1_555
O4 Zn1 1_555 1_555
O5 Zn1 1_555 1_555
H9 O4 1_555 1_555
H10 O5 1_555 1_555
H11 O4 1_555 1_555
H12 O5 1_555 1_555
Zn1F N1D 1_555 1_555
N1D C6D 1_555 1_555
N1B Zn1 1_555 1_555
S1E C1E 1_555 1_555
C1E Fe1 1_555 1_555
C2E Fe1 1_555 1_555
H1E C2E 1_555 1_555
C3E Fe1 1_555 1_555
H2E C3E 1_555 1_555
C4E Fe1 1_555 1_555
H3E C4E 1_555 1_555
C5E Fe1 1_555 1_555
H4E C5E 1_555 1_555
C6D H5D 1_555 1_555
C7D C6D 1_555 1_555
H6D C7D 1_555 1_555
C8D C8 1_555 1_555
C9D C8D 1_555 1_555
H7D C9D 1_555 1_555
C10D N1D 1_555 1_555
H8D C10D 1_555 1_555
O1E S1E 1_555 1_555
O2E S1E 1_555 1_555
O3E S1E 1_555 1_555
O4B Zn1 1_555 1_555
O5B Zn1 1_555 1_555
H9B O4B 1_555 1_555
H10B O5B 1_555 1_555
H11B O4B 1_555 1_555
H12B O5B 1_555 1_555
C1 C5 1_555 1_555
C2 C3 1_555 1_555
C3 C4 1_555 1_555
C4 C5 1_555 1_555
C9 C10 1_555 1_555
C1E C2E 1_555 1_555
C1E C5E 1_555 1_555
C2E C3E 1_555 1_555
C3E C4E 1_555 1_555
C4E C5E 1_555 1_555
C7D C8D 1_555 1_555
C9D C10D 1_555 1_555

#END
