
#######################################################################
#
#                 Cambridge Crystallographic Data Centre
#                                CCDC 
#
#######################################################################
#
# If this CIF has been generated from an entry in the Cambridge 
# Structural Database, then it will include bibliographic, chemical, 
# crystal, experimental, refinement or atomic coordinate data resulting 
# from the CCDC's data processing and validation procedures.
#
#######################################################################

data_DITNOL
_symmetry_cell_setting           triclinic
_symmetry_space_group_name_H-M   'P -1'
_symmetry_Int_Tables_number      2
_space_group_name_Hall           '-P 1'
loop_
_symmetry_equiv_pos_site_id
_symmetry_equiv_pos_as_xyz
1 x,y,z
2 -x,-y,-z
_cell_length_a                   7.4652(15)
_cell_length_b                   9.1231(18)
_cell_length_c                   9.4076(19)
_cell_angle_alpha                78.73(3)
_cell_angle_beta                 74.99(3)
_cell_angle_gamma                67.86(3)
_cell_volume                     569.783
loop_
_atom_site_label
_atom_site_type_symbol
_atom_site_fract_x
_atom_site_fract_y
_atom_site_fract_z
Ba1 Ba 0.310178(17) -0.135674(13) 0.560610(13)
O1 O 0.4016(2) 0.0915(2) 0.3356(2)
O2 O -0.3461(3) 0.6977(2) 0.3836(2)
O3 O 0.2366(3) -0.2869(3) 0.3733(3)
H1 H 0.1180 -0.2222 0.3409
H2 H 0.3115 -0.3804 0.3252
O4 O 0.4043(3) -0.4449(2) 0.7171(2)
H3 H 0.3702 -0.5141 0.6734
H4 H 0.3456 -0.4594 0.8198
O5 O -0.1584(3) 0.8511(2) 0.3246(2)
O6 O 0.0919(3) 0.1033(2) 0.3613(2)
N1 N 0.2273(3) 0.5132(2) 0.0228(2)
C1 C 0.2288(3) 0.1600(3) 0.3137(2)
C2 C 0.0183(3) 0.4459(3) 0.3000(3)
H5 H -0.0560 0.4221 0.3914
C3 C -0.1927(3) 0.7282(3) 0.3196(3)
C4 C 0.1773(3) 0.3252(3) 0.2315(2)
C5 C -0.0299(3) 0.6004(3) 0.2335(3)
C6 C 0.2794(3) 0.3631(3) 0.0910(3)
C7 C 0.0780(3) 0.6307(3) 0.0928(3)
C8 C 0.4479(4) 0.2416(3) 0.0041(3)
H6 H 0.4965 0.2927 -0.0891
H7 H 0.4030 0.1620 -0.0129
H8 H 0.5518 0.1925 0.0587
C9 C 0.0331(4) 0.7942(3) 0.0092(3)
H9 H 0.1238 0.7898 -0.0846
H10 H 0.0465 0.8653 0.0654
H11 H -0.0995 0.8318 -0.0068
Ba1_2 Ba -0.689822(17) 0.864326(13) 0.560610(13)
Ba1A Ba -0.310178(17) 0.135674(13) 0.439390(13)
Ba1A_2 Ba -0.310178(17) 1.135674(13) 0.439390(13)
Ba1A_3 Ba 0.689822(17) 0.135674(13) 0.439390(13)
O1A O 0.5984(2) -0.0915(2) 0.6644(2)
O2_2 O 0.6539(3) -0.3023(2) 0.3836(2)
O5A O 0.1584(3) 0.1489(2) 0.6754(2)
O6A O -0.0919(3) -0.1033(2) 0.6387(2)
loop_
_geom_bond_atom_site_label_1
_geom_bond_atom_site_label_2
_geom_bond_site_symmetry_1
_geom_bond_site_symmetry_2
Ba1 O1 1_555 1_555
O1 C1 1_555 1_555
O2 C3 1_555 1_555
O3 Ba1 1_555 1_555
H1 O3 1_555 1_555
H2 O3 1_555 1_555
O4 Ba1 1_555 1_555
H3 O4 1_555 1_555
H4 O4 1_555 1_555
O5 C3 1_555 1_555
O6 Ba1 1_555 1_555
N1 C6 1_555 1_555
C1 O6 1_555 1_555
C2 H5 1_555 1_555
C3 C5 1_555 1_555
C4 C1 1_555 1_555
C5 C2 1_555 1_555
C6 C4 1_555 1_555
C7 N1 1_555 1_555
C8 C6 1_555 1_555
H6 C8 1_555 1_555
H7 C8 1_555 1_555
H8 C8 1_555 1_555
C9 C7 1_555 1_555
H9 C9 1_555 1_555
H10 C9 1_555 1_555
H11 C9 1_555 1_555
Ba1_2 O2 1_555 1_555
Ba1A O6 1_555 1_555
Ba1A_2 O5 1_555 1_555
Ba1A_3 O1 1_555 1_555
O1A Ba1 1_555 1_555
O2_2 Ba1 1_555 1_555
O5A Ba1 1_555 1_555
O6A Ba1 1_555 1_555
C2 C4 1_555 1_555
C5 C7 1_555 1_555
Ba1A O6A 1_555 1_555
Ba1A_3 O1A 1_555 1_555

#END
