
#######################################################################
#
#                 Cambridge Crystallographic Data Centre
#                                CCDC 
#
#######################################################################
#
# If this CIF has been generated from an entry in the Cambridge 
# Structural Database, then it will include bibliographic, chemical, 
# crystal, experimental, refinement or atomic coordinate data resulting 
# from the CCDC's data processing and validation procedures.
#
#######################################################################

data_DITNEB
_symmetry_cell_setting           orthorhombic
_symmetry_space_group_name_H-M   'A b a 2'
_symmetry_Int_Tables_number      41
_space_group_name_Hall           'A 2 -2ab'
loop_
_symmetry_equiv_pos_site_id
_symmetry_equiv_pos_as_xyz
1 x,y,z
2 -x,-y,z
3 1/2+x,1/2-y,z
4 1/2-x,1/2+y,z
5 x,1/2+y,1/2+z
6 -x,1/2-y,1/2+z
7 1/2+x,-y,1/2+z
8 1/2-x,y,1/2+z
_cell_length_a                   11.8282(5)
_cell_length_b                   13.2664(6)
_cell_length_c                   22.2391(10)
_cell_angle_alpha                90
_cell_angle_beta                 90
_cell_angle_gamma                90
_cell_volume                     3489.71
loop_
_atom_site_label
_atom_site_type_symbol
_atom_site_fract_x
_atom_site_fract_y
_atom_site_fract_z
Cu1 Cu 0.5000 0.5000 0.51381(3)
O1 O 0.1211(2) 0.10063(19) 0.51360(15)
O2 O 0.1032(3) 0.1474(2) 0.60922(15)
N1 N 0.3848(3) 0.3912(2) 0.52700(15)
N2 N 0.5000 0.5000 0.4138(2)
N3 N 0.5000 0.5000 0.0953(4)
C1 C 0.3877(3) 0.3042(3) 0.49496(19)
H1 H 0.4448 0.2957 0.4660
C2 C 0.3107(3) 0.2283(3) 0.50322(19)
H2 H 0.3140 0.1699 0.4793
C3 C 0.2278(4) 0.2380(3) 0.5470(2)
C4 C 0.2269(3) 0.3255(3) 0.58104(17)
H3 H 0.1733 0.3338 0.6118
C5 C 0.3045(3) 0.3997(3) 0.56967(17)
H4 H 0.3016 0.4592 0.5926
C6 C 0.1428(4) 0.1556(3) 0.55898(19)
C7 C 0.5956(4) 0.4923(3) 0.38238(19)
H5 H 0.6639 0.4869 0.4038
C8 C 0.6008(3) 0.4919(3) 0.32005(18)
H6 H 0.6706 0.4863 0.3001
C9 C 0.5000 0.5000 0.2875(3)
C10 C 0.5000 0.5000 0.2201(3)
C11 C 0.4260(5) 0.5590(4) 0.1881(3)
H7 H 0.3733 0.5999 0.2081
C12 C 0.4304(5) 0.5571(5) 0.1253(2)
H8 H 0.3808 0.5990 0.1037
C7A C 0.4044(4) 0.5077(3) 0.38238(19)
H5A H 0.3361 0.5131 0.4038
C8A C 0.3992(3) 0.5081(3) 0.32005(18)
H6A H 0.3294 0.5137 0.3001
C11A C 0.5740(5) 0.4410(4) 0.1881(3)
H7A H 0.6267 0.4001 0.2081
C12A C 0.5696(5) 0.4429(5) 0.1253(2)
H8A H 0.6192 0.4010 0.1037
O1A O 0.8789(2) 0.89937(19) 0.51360(15)
O2A O 0.8968(3) 0.8526(2) 0.60922(15)
N1A N 0.6152(3) 0.6088(2) 0.52700(15)
C1A C 0.6123(3) 0.6958(3) 0.49496(19)
H1A H 0.5552 0.7043 0.4660
C2A C 0.6893(3) 0.7717(3) 0.50322(19)
H2A H 0.6860 0.8301 0.4793
C3A C 0.7722(4) 0.7620(3) 0.5470(2)
C4A C 0.7731(3) 0.6745(3) 0.58104(17)
H3A H 0.8267 0.6662 0.6118
C5A C 0.6955(3) 0.6003(3) 0.56967(17)
H4A H 0.6984 0.5408 0.5926
C6A C 0.8572(4) 0.8444(3) 0.55898(19)
Cu1B Cu 0.0000 0.0000 0.51381(3)
Cu1B_2 Cu 1.0000 1.0000 0.51381(3)
O1B O 0.6211(2) 0.39937(19) 0.51360(15)
O1C O 0.3789(2) 0.60063(19) 0.51360(15)
Cu2 Cu 0.5000 1.0000 0.27551(2)
O3 O 0.1163(2) 0.6043(2) 0.27080(14)
O4 O 0.1338(3) 0.6170(2) 0.37099(14)
O5 O 0.5000 1.0000 0.1762(2)
H9 H 0.4492 1.0491 0.1608
N4 N 0.3821(3) 0.8916(3) 0.28954(15)
C13 C 0.3215(3) 0.8531(3) 0.24363(19)
H10 H 0.3309 0.8807 0.2050
C14 C 0.2458(4) 0.7744(3) 0.2512(2)
H11 H 0.2038 0.7498 0.2184
C15 C 0.2330(3) 0.7323(3) 0.30812(18)
C16 C 0.2965(3) 0.7726(3) 0.35507(18)
H12 H 0.2898 0.7462 0.3941
C17 C 0.3689(4) 0.8511(3) 0.3437(2)
H13 H 0.4112 0.8775 0.3758
C18 C 0.1538(3) 0.6440(3) 0.3189(2)
H9A H 0.5508 0.9509 0.1608
O3A O 0.8837(2) 1.3957(2) 0.27080(14)
O4A O 0.8662(3) 1.3830(2) 0.37099(14)
N4A N 0.6179(3) 1.1084(3) 0.28954(15)
C13A C 0.6785(3) 1.1469(3) 0.24363(19)
H10A H 0.6691 1.1193 0.2050
C14A C 0.7542(4) 1.2256(3) 0.2512(2)
H11A H 0.7962 1.2502 0.2184
C15A C 0.7670(3) 1.2677(3) 0.30812(18)
C16A C 0.7035(3) 1.2274(3) 0.35507(18)
H12A H 0.7102 1.2538 0.3941
C17A C 0.6311(4) 1.1489(3) 0.3437(2)
H13A H 0.5888 1.1225 0.3758
C18A C 0.8462(3) 1.3560(3) 0.3189(2)
Cu2B Cu 0.0000 0.5000 0.27551(2)
Cu2B_2 Cu 1.0000 1.5000 0.27551(2)
O3B O 0.6163(2) 0.8957(2) 0.27080(14)
O3C O 0.3837(2) 1.1043(2) 0.27080(14)
H14? H 0.5747 1.0068 0.1610
loop_
_geom_bond_atom_site_label_1
_geom_bond_atom_site_label_2
_geom_bond_site_symmetry_1
_geom_bond_site_symmetry_2
Cu1 N1 1_555 1_555
O1 C6 1_555 1_555
O2 C6 1_555 1_555
N1 C1 1_555 1_555
N2 Cu1 1_555 1_555
N3 C12 1_555 1_555
C1 H1 1_555 1_555
C2 C1 1_555 1_555
H2 C2 1_555 1_555
C3 C2 1_555 1_555
C4 C3 1_555 1_555
H3 C4 1_555 1_555
C5 N1 1_555 1_555
H4 C5 1_555 1_555
C6 C3 1_555 1_555
C7 N2 1_555 1_555
H5 C7 1_555 1_555
C8 C7 1_555 1_555
H6 C8 1_555 1_555
C9 C8 1_555 1_555
C10 C9 1_555 1_555
C11 C10 1_555 1_555
H7 C11 1_555 1_555
C12 C11 1_555 1_555
H8 C12 1_555 1_555
Cu2 O5 1_555 1_555
O3 C18 1_555 1_555
O4 C18 1_555 1_555
O5 H9 1_555 1_555
N4 Cu2 1_555 1_555
C13 N4 1_555 1_555
H10 C13 1_555 1_555
C14 C13 1_555 1_555
H11 C14 1_555 1_555
C15 C14 1_555 1_555
C16 C15 1_555 1_555
H12 C16 1_555 1_555
C17 N4 1_555 1_555
H13 C17 1_555 1_555
C18 C15 1_555 1_555
C7A N2 1_555 1_555
H5A C7A 1_555 1_555
C8A C9 1_555 1_555
H6A C8A 1_555 1_555
C11A C10 1_555 1_555
H7A C11A 1_555 1_555
C12A N3 1_555 1_555
H8A C12A 1_555 1_555
O1A C6A 1_555 1_555
O2A C6A 1_555 1_555
N1A Cu1 1_555 1_555
C1A N1A 1_555 1_555
H1A C1A 1_555 1_555
C2A C1A 1_555 1_555
H2A C2A 1_555 1_555
C3A C2A 1_555 1_555
C4A C3A 1_555 1_555
H3A C4A 1_555 1_555
C5A N1A 1_555 1_555
H4A C5A 1_555 1_555
C6A C3A 1_555 1_555
Cu1B O1 1_555 1_555
Cu1B_2 O1A 1_555 1_555
O1B Cu1 1_555 1_555
O1C Cu1 1_555 1_555
H9A O5 1_555 1_555
O3A C18A 1_555 1_555
O4A C18A 1_555 1_555
N4A Cu2 1_555 1_555
C13A N4A 1_555 1_555
H10A C13A 1_555 1_555
C14A C13A 1_555 1_555
H11A C14A 1_555 1_555
C15A C14A 1_555 1_555
C16A C15A 1_555 1_555
H12A C16A 1_555 1_555
C17A N4A 1_555 1_555
H13A C17A 1_555 1_555
C18A C15A 1_555 1_555
Cu2B O3 1_555 1_555
Cu2B_2 O3A 1_555 1_555
O3B Cu2 1_555 1_555
O3C Cu2 1_555 1_555
C4 C5 1_555 1_555
C16 C17 1_555 1_555
C7A C8A 1_555 1_555
C11A C12A 1_555 1_555
C4A C5A 1_555 1_555
C16A C17A 1_555 1_555

#END
