
#######################################################################
#
#                 Cambridge Crystallographic Data Centre
#                                CCDC 
#
#######################################################################
#
# If this CIF has been generated from an entry in the Cambridge 
# Structural Database, then it will include bibliographic, chemical, 
# crystal, experimental, refinement or atomic coordinate data resulting 
# from the CCDC's data processing and validation procedures.
#
#######################################################################

data_DITPON
_symmetry_cell_setting           monoclinic
_symmetry_space_group_name_H-M   'C 2/c'
_symmetry_Int_Tables_number      15
_space_group_name_Hall           '-C 2yn'
loop_
_symmetry_equiv_pos_site_id
_symmetry_equiv_pos_as_xyz
1 x,y,z
2 -x,y,1/2-z
3 1/2+x,1/2+y,z
4 1/2-x,1/2+y,1/2-z
5 -x,-y,-z
6 x,-y,1/2+z
7 1/2-x,1/2-y,-z
8 1/2+x,1/2-y,1/2+z
_cell_length_a                   17.191(5)
_cell_length_b                   7.9862(16)
_cell_length_c                   12.584(7)
_cell_angle_alpha                90
_cell_angle_beta                 121.37(3)
_cell_angle_gamma                90
_cell_volume                     1475.12
loop_
_atom_site_label
_atom_site_type_symbol
_atom_site_fract_x
_atom_site_fract_y
_atom_site_fract_z
Mn1 Mn 0.12728(8) 0.10104(15) 0.30986(12)
Cl1 Cl 0.2500 0.2500 0.5000
Cl2 Cl 0.0000 0.3156(4) 0.2500
N1 N 0.1710(5) 0.2654(10) 0.1948(7)
N2 N 0.1226(5) 0.3168(9) 0.0737(6)
C1 C 0.2505(6) 0.3373(11) 0.2387(8)
H1 H 0.2981 0.3255 0.3207
C2 C 0.1756(6) 0.4141(10) 0.0519(9)
H2 H 0.1584 0.4641 -0.0240
C3 C 0.0306(6) 0.2640(10) -0.0147(9)
H3 H -0.0012 0.3549 -0.0726
H4 H -0.0007 0.2414 0.0293
N3 N 0.2566(5) 0.4288(8) 0.1551(7)
C4 C 0.0259(7) 0.1075(11) -0.0885(9)
O1 O -0.0522(4) 0.0489(8) -0.1510(6)
O2 O 0.0967(4) 0.0581(8) -0.0803(6)
Mn1A Mn -0.12728(8) 0.10104(15) 0.19014(12)
N1A N -0.1710(5) 0.2654(10) 0.3052(7)
N2A N -0.1226(5) 0.3168(9) 0.4263(6)
C1A C -0.2505(6) 0.3373(11) 0.2613(8)
H1A H -0.2981 0.3255 0.1793
C2A C -0.1756(6) 0.4141(10) 0.4481(9)
H2A H -0.1584 0.4641 0.5240
C3A C -0.0306(6) 0.2640(10) 0.5147(9)
H3A H 0.0012 0.3549 0.5726
H4A H 0.0007 0.2414 0.4707
N3A N -0.2566(5) 0.4288(8) 0.3449(7)
C4A C -0.0259(7) 0.1075(11) 0.5885(9)
O1A O 0.0522(4) 0.0489(8) 0.6510(6)
O2A O -0.0967(4) 0.0581(8) 0.5803(6)
Mn1B Mn -0.37272(8) 0.60104(15) 0.30986(12)
Mn1C Mn 0.37272(8) 0.60104(15) 0.19014(12)
Mn1D Mn -0.12728(8) -0.10104(15) -0.30986(12)
Mn1D_2 Mn -0.12728(8) -0.10104(15) 0.69014(12)
Mn1E Mn 0.12728(8) -0.10104(15) -0.19014(12)
Mn1E_2 Mn 0.12728(8) -0.10104(15) 0.80986(12)
Mn1F Mn 0.37272(8) 0.39896(15) 0.69014(12)
Cl1A Cl -0.2500 0.2500 0.0000
N3B N -0.2434(5) -0.0712(8) 0.1551(7)
N3C N 0.2434(5) -0.0712(8) 0.3449(7)
O1D O 0.0522(4) -0.0489(8) 0.1510(6)
O1E O -0.0522(4) -0.0489(8) 0.3490(6)
O2D O -0.0967(4) -0.0581(8) 0.0803(6)
O2E O 0.0967(4) -0.0581(8) 0.4197(6)
loop_
_geom_bond_atom_site_label_1
_geom_bond_atom_site_label_2
_geom_bond_site_symmetry_1
_geom_bond_site_symmetry_2
Mn1 Cl1 1_555 1_555
Cl1 Mn1F 1_555 1_555
Cl2 Mn1 1_555 1_555
N1 Mn1 1_555 1_555
N2 N1 1_555 1_555
C1 N1 1_555 1_555
H1 C1 1_555 1_555
C2 N2 1_555 1_555
H2 C2 1_555 1_555
C3 N2 1_555 1_555
H3 C3 1_555 1_555
H4 C3 1_555 1_555
N3 C1 1_555 1_555
C4 C3 1_555 1_555
O1 C4 1_555 1_555
O2 C4 1_555 1_555
Mn1A Cl2 1_555 1_555
N1A Mn1A 1_555 1_555
N2A N1A 1_555 1_555
C1A N1A 1_555 1_555
H1A C1A 1_555 1_555
C2A N2A 1_555 1_555
H2A C2A 1_555 1_555
C3A N2A 1_555 1_555
H3A C3A 1_555 1_555
H4A C3A 1_555 1_555
N3A C1A 1_555 1_555
C4A C3A 1_555 1_555
O1A C4A 1_555 1_555
O2A C4A 1_555 1_555
Mn1B N3A 1_555 1_555
Mn1C N3 1_555 1_555
Mn1D O1 1_555 1_555
Mn1D_2 O2A 1_555 1_555
Mn1E O2 1_555 1_555
Mn1E_2 O1A 1_555 1_555
Cl1A Mn1A 1_555 1_555
N3B Mn1A 1_555 1_555
N3C Mn1 1_555 1_555
O1D Mn1 1_555 1_555
O1E Mn1A 1_555 1_555
O2D Mn1A 1_555 1_555
O2E Mn1 1_555 1_555
C2 N3 1_555 1_555
C2A N3A 1_555 1_555

#END
