
#######################################################################
#
#                 Cambridge Crystallographic Data Centre
#                                CCDC 
#
#######################################################################
#
# If this CIF has been generated from an entry in the Cambridge 
# Structural Database, then it will include bibliographic, chemical, 
# crystal, experimental, refinement or atomic coordinate data resulting 
# from the CCDC's data processing and validation procedures.
#
#######################################################################

data_DITPAZ
_symmetry_cell_setting           orthorhombic
_symmetry_space_group_name_H-M   'P c c a'
_symmetry_Int_Tables_number      54
_space_group_name_Hall           '-P 2a 2ac'
loop_
_symmetry_equiv_pos_site_id
_symmetry_equiv_pos_as_xyz
1 x,y,z
2 1/2-x,-y,z
3 1/2+x,-y,1/2-z
4 -x,y,1/2-z
5 -x,-y,-z
6 1/2+x,y,-z
7 1/2-x,y,1/2+z
8 x,-y,1/2+z
_cell_length_a                   20.574(4)
_cell_length_b                   10.299(2)
_cell_length_c                   17.101(3)
_cell_angle_alpha                90
_cell_angle_beta                 90
_cell_angle_gamma                90
_cell_volume                     3623.56
loop_
_atom_site_label
_atom_site_type_symbol
_atom_site_fract_x
_atom_site_fract_y
_atom_site_fract_z
Cd1 Cd -0.7500 -0.5000 0.12347(3)
Cd2 Cd -0.5000 -1.0000 0.5000
O1 O -0.6574(2) -0.4317(4) 0.1815(3)
O2 O -0.6833(2) -0.6337(4) 0.2076(2)
O3 O -0.47953(18) -0.7854(4) 0.4703(2)
O4 O -0.56123(16) -0.8790(4) 0.40841(18)
N1 N -0.7307(2) -0.6463(4) 0.0239(2)
N2 N -0.5725(2) -0.9457(5) -0.3994(2)
C1 C -0.6500(3) -0.5348(6) 0.2196(3)
C2 C -0.5991(3) -0.5367(6) 0.2827(3)
C3 C -0.5836(2) -0.6522(5) 0.3196(3)
H1 H -0.6040 -0.7285 0.3038
C4 C -0.5385(2) -0.6566(5) 0.3795(3)
C5 C -0.5251(2) -0.7817(5) 0.4214(3)
C6 C -0.5067(4) -0.5444(7) 0.4017(4)
H2 H -0.4752 -0.5468 0.4407
C7 C -0.5224(5) -0.4285(7) 0.3655(5)
H3 H -0.5017 -0.3525 0.3812
C8 C -0.5679(4) -0.4233(6) 0.3066(4)
H4 H -0.5778 -0.3445 0.2829
C9 C -0.7728(3) -0.6573(5) -0.0348(4)
H5 H -0.8067 -0.5978 -0.0375
C10 C -0.7691(3) -0.7509(5) -0.0916(4)
H6 H -0.7996 -0.7527 -0.1318
C11 C -0.7203(2) -0.8425(4) -0.0891(3)
C12 C -0.6748(2) -0.8282(5) -0.0306(3)
H7 H -0.6396 -0.8846 -0.0278
C13 C -0.6817(2) -0.7299(5) 0.0240(3)
H8 H -0.6502 -0.7220 0.0627
C14 C -0.7194(2) -0.9548(4) -0.1442(3)
H9 H -0.6803 -1.0069 -0.1350
C15 C -0.7292(2) -0.9358(5) -0.2330(3)
H10 H -0.7574 -0.8608 -0.2425
C16 C -0.6725(2) -0.9323(4) -0.2877(3)
C17 C -0.6783(3) -0.8738(6) -0.3601(3)
H11 H -0.7160 -0.8289 -0.3731
C18 C -0.6278(3) -0.8826(6) -0.4132(3)
H12 H -0.6327 -0.8419 -0.4614
C19 C -0.5666(3) -0.9982(7) -0.3284(4)
H13 H -0.5282 -1.0416 -0.3165
C20 C -0.6140(3) -0.9916(6) -0.2716(3)
H14 H -0.6066 -1.0273 -0.2224
N1A N -0.7693(2) -1.3537(4) 0.0239(2)
N2A N -0.9275(2) -1.0543(5) -0.3994(2)
C9A C -0.7272(3) -1.3427(5) -0.0348(4)
H5A H -0.6933 -1.4022 -0.0375
C10A C -0.7309(3) -1.2491(5) -0.0916(4)
H6A H -0.7004 -1.2473 -0.1318
C11A C -0.7797(2) -1.1575(4) -0.0891(3)
C12A C -0.8252(2) -1.1718(5) -0.0306(3)
H7A H -0.8604 -1.1154 -0.0278
C13A C -0.8183(2) -1.2701(5) 0.0240(3)
H8A H -0.8498 -1.2780 0.0627
C14A C -0.7806(2) -1.0452(4) -0.1442(3)
H9A H -0.8197 -0.9931 -0.1350
C15A C -0.7708(2) -1.0642(5) -0.2330(3)
H10A H -0.7426 -1.1392 -0.2425
C16A C -0.8275(2) -1.0677(4) -0.2877(3)
C17A C -0.8217(3) -1.1262(6) -0.3601(3)
H11A H -0.7840 -1.1711 -0.3731
C18A C -0.8722(3) -1.1174(6) -0.4132(3)
H12A H -0.8673 -1.1581 -0.4614
C19A C -0.9334(3) -1.0018(7) -0.3284(4)
H13A H -0.9718 -0.9584 -0.3165
C20A C -0.8860(3) -1.0084(6) -0.2716(3)
H14A H -0.8934 -0.9727 -0.2224
O1A O -0.8426(2) -0.5683(4) 0.1815(3)
O2A O -0.8167(2) -0.3663(4) 0.2076(2)
O3A O -1.02047(18) -0.2146(4) 0.4703(2)
O4A O -0.93877(16) -0.1210(4) 0.40841(18)
C1A C -0.8500(3) -0.4652(6) 0.2196(3)
C2A C -0.9009(3) -0.4633(6) 0.2827(3)
C3A C -0.9164(2) -0.3478(5) 0.3196(3)
H1A H -0.8960 -0.2715 0.3038
C4A C -0.9615(2) -0.3434(5) 0.3795(3)
C5A C -0.9749(2) -0.2183(5) 0.4214(3)
C6A C -0.9933(4) -0.4556(7) 0.4017(4)
H2A H -1.0248 -0.4532 0.4407
C7A C -0.9776(5) -0.5715(7) 0.3655(5)
H3A H -0.9983 -0.6475 0.3812
C8A C -0.9321(4) -0.5767(6) 0.3066(4)
H4A H -0.9222 -0.6555 0.2829
Cd1_2 Cd -0.7500 -1.5000 0.12347(3)
Cd2_2 Cd -0.5000 -1.0000 -0.5000
Cd2A Cd -1.0000 -1.0000 -0.5000
Cd2A_2 Cd -1.0000 0.0000 0.5000
O3D O -0.52047(18) -1.2146(4) 0.5297(2)
O4D O -0.43877(16) -1.1210(4) 0.59159(18)
N1A_2 N -0.7693(2) -0.3537(4) 0.0239(2)
N2_2 N -0.5725(2) -0.9457(5) 0.6006(2)
N2D N -0.4275(2) -1.0543(5) 0.3994(2)
loop_
_geom_bond_atom_site_label_1
_geom_bond_atom_site_label_2
_geom_bond_site_symmetry_1
_geom_bond_site_symmetry_2
Cd1 O1 1_555 1_555
Cd2 O3 1_555 1_555
O1 C1 1_555 1_555
O2 Cd1 1_555 1_555
O3 C5 1_555 1_555
O4 Cd2 1_555 1_555
N1 Cd1 1_555 1_555
N2 C18 1_555 1_555
C1 O2 1_555 1_555
C2 C1 1_555 1_555
C3 C2 1_555 1_555
H1 C3 1_555 1_555
C4 C3 1_555 1_555
C5 O4 1_555 1_555
C6 C4 1_555 1_555
H2 C6 1_555 1_555
C7 C6 1_555 1_555
H3 C7 1_555 1_555
C8 C2 1_555 1_555
H4 C8 1_555 1_555
C9 N1 1_555 1_555
H5 C9 1_555 1_555
C10 C9 1_555 1_555
H6 C10 1_555 1_555
C11 C10 1_555 1_555
C12 C11 1_555 1_555
H7 C12 1_555 1_555
C13 N1 1_555 1_555
H8 C13 1_555 1_555
C14 C11 1_555 1_555
H9 C14 1_555 1_555
C15 C14 1_555 1_555
H10 C15 1_555 1_555
C16 C15 1_555 1_555
C17 C16 1_555 1_555
H11 C17 1_555 1_555
C18 C17 1_555 1_555
H12 C18 1_555 1_555
C19 N2 1_555 1_555
H13 C19 1_555 1_555
C20 C16 1_555 1_555
H14 C20 1_555 1_555
N1A C9A 1_555 1_555
N2A C18A 1_555 1_555
C9A H5A 1_555 1_555
C10A C9A 1_555 1_555
H6A C10A 1_555 1_555
C11A C10A 1_555 1_555
C12A C11A 1_555 1_555
H7A C12A 1_555 1_555
C13A N1A 1_555 1_555
H8A C13A 1_555 1_555
C14A C14 1_555 1_555
H9A C14A 1_555 1_555
C15A C15 1_555 1_555
H10A C15A 1_555 1_555
C16A C15A 1_555 1_555
C17A C16A 1_555 1_555
H11A C17A 1_555 1_555
C18A C17A 1_555 1_555
H12A C18A 1_555 1_555
C19A N2A 1_555 1_555
H13A C19A 1_555 1_555
C20A C16A 1_555 1_555
H14A C20A 1_555 1_555
O1A Cd1 1_555 1_555
O2A Cd1 1_555 1_555
O3A C5A 1_555 1_555
O4A C5A 1_555 1_555
C1A O1A 1_555 1_555
C2A C1A 1_555 1_555
C3A C2A 1_555 1_555
H1A C3A 1_555 1_555
C4A C3A 1_555 1_555
C5A C4A 1_555 1_555
C6A C4A 1_555 1_555
H2A C6A 1_555 1_555
C7A C6A 1_555 1_555
H3A C7A 1_555 1_555
C8A C2A 1_555 1_555
H4A C8A 1_555 1_555
Cd1_2 N1A 1_555 1_555
Cd2_2 N2 1_555 1_555
Cd2A N2A 1_555 1_555
Cd2A_2 O3A 1_555 1_555
O3D Cd2 1_555 1_555
O4D Cd2 1_555 1_555
N1A_2 Cd1 1_555 1_555
N2_2 Cd2 1_555 1_555
N2D Cd2 1_555 1_555
C4 C5 1_555 1_555
C7 C8 1_555 1_555
C12 C13 1_555 1_555
C19 C20 1_555 1_555
C11A C14A 1_555 1_555
C12A C13A 1_555 1_555
C14A C15A 1_555 1_555
C19A C20A 1_555 1_555
O2A C1A 1_555 1_555
O4A Cd2A_2 1_555 1_555
C7A C8A 1_555 1_555

#END
