
#######################################################################
#
#                 Cambridge Crystallographic Data Centre
#                                CCDC 
#
#######################################################################
#
# If this CIF has been generated from an entry in the Cambridge 
# Structural Database, then it will include bibliographic, chemical, 
# crystal, experimental, refinement or atomic coordinate data resulting 
# from the CCDC's data processing and validation procedures.
#
#######################################################################

data_DITPUT
_symmetry_cell_setting           monoclinic
_symmetry_space_group_name_H-M   'C 2/c'
_symmetry_Int_Tables_number      15
_space_group_name_Hall           '-C 2yn'
loop_
_symmetry_equiv_pos_site_id
_symmetry_equiv_pos_as_xyz
1 x,y,z
2 -x,y,1/2-z
3 1/2+x,1/2+y,z
4 1/2-x,1/2+y,1/2-z
5 -x,-y,-z
6 x,-y,1/2+z
7 1/2-x,1/2-y,-z
8 1/2+x,1/2-y,1/2+z
_cell_length_a                   16.302(3)
_cell_length_b                   8.0700(16)
_cell_length_c                   15.733(7)
_cell_angle_alpha                90
_cell_angle_beta                 134.078(15)
_cell_angle_gamma                90
_cell_volume                     1486.92
loop_
_atom_site_label
_atom_site_type_symbol
_atom_site_fract_x
_atom_site_fract_y
_atom_site_fract_z
Co1 Co 0.42364(6) 0.30768(10) 0.29145(7)
O1 O 0.3332(3) 0.1662(5) 0.1418(3)
N1 N 0.5000 0.5000 0.5000
N2 N 0.2219(4) 0.0124(6) -0.1940(4)
N3 N 0.5000 0.4494(9) 0.2500
O2 O 0.4436(3) 0.1402(5) 0.1052(4)
N4 N 0.3446(4) -0.1681(6) -0.1631(4)
N5 N 0.2870(4) -0.0580(6) -0.0853(4)
N6 N 0.5000 0.5978(10) 0.2500
C1 C 0.3598(5) -0.1627(7) -0.0690(5)
H1 H 0.4144 -0.2239 -0.0003
C2 C 0.2589(6) -0.0584(8) -0.2371(6)
H2 H 0.2289 -0.0351 -0.3122
C3 C 0.2750(5) -0.0191(7) -0.0044(5)
H3 H 0.2846 -0.1202 0.0351
H4 H 0.1982 0.0212 -0.0497
C4 C 0.3602(5) 0.1106(7) 0.0900(5)
N7 N 0.5152(5) 0.4615(7) 0.4410(5)
N8 N 0.5000 0.7393(11) 0.2500
N7D N 0.4848(5) 0.5385(7) 0.5590(5)
Co1A Co 0.57636(6) 0.30768(10) 0.20855(7)
O1A O 0.6668(3) 0.1662(5) 0.3582(3)
N2A N 0.7781(4) 0.0124(6) 0.6940(4)
O2A O 0.5564(3) 0.1402(5) 0.3948(4)
N4A N 0.6554(4) -0.1681(6) 0.6631(4)
N5A N 0.7130(4) -0.0580(6) 0.5853(4)
C1A C 0.6402(5) -0.1627(7) 0.5690(5)
H1A H 0.5856 -0.2239 0.5003
C2A C 0.7411(6) -0.0584(8) 0.7371(6)
H2A H 0.7711 -0.0351 0.8122
C3A C 0.7250(5) -0.0191(7) 0.5044(5)
H3A H 0.7154 -0.1202 0.4649
H4A H 0.8018 0.0212 0.5497
C4A C 0.6398(5) 0.1106(7) 0.4100(5)
Co1D Co 0.57636(6) -0.30768(10) 0.70855(7)
Co1D_2 Co 0.57636(6) 0.69232(10) 0.70855(7)
Co1E Co 0.42364(6) -0.30768(10) -0.20855(7)
Co1F Co 0.07636(6) 0.19232(10) -0.29145(7)
Co1G Co 0.92364(6) 0.19232(10) 0.79145(7)
N2F N 0.2781(4) 0.4876(6) 0.1940(4)
N2G N 0.7219(4) 0.4876(6) 0.3060(4)
N4D N 0.6554(4) 0.1681(6) 0.1631(4)
N4E N 0.3446(4) 0.1681(6) 0.3369(4)
N7A N 0.4848(5) 0.4615(7) 0.0590(5)
loop_
_geom_bond_atom_site_label_1
_geom_bond_atom_site_label_2
_geom_bond_site_symmetry_1
_geom_bond_site_symmetry_2
Co1 O1 1_555 1_555
O1 C4 1_555 1_555
N1 N7 1_555 1_555
N2 N5 1_555 1_555
N3 Co1 1_555 1_555
O2 C4 1_555 1_555
N4 C1 1_555 1_555
N5 C1 1_555 1_555
N6 N3 1_555 1_555
C1 H1 1_555 1_555
C2 N2 1_555 1_555
H2 C2 1_555 1_555
C3 N5 1_555 1_555
H3 C3 1_555 1_555
H4 C3 1_555 1_555
C4 C3 1_555 1_555
N7 Co1 1_555 1_555
N8 N6 1_555 1_555
N7D N1 1_555 1_555
Co1A N3 1_555 1_555
O1A Co1A 1_555 1_555
N2A N5A 1_555 1_555
O2A Co1 1_555 1_555
N4A C1A 1_555 1_555
N5A C1A 1_555 1_555
C1A H1A 1_555 1_555
C2A N2A 1_555 1_555
H2A C2A 1_555 1_555
C3A N5A 1_555 1_555
H3A C3A 1_555 1_555
H4A C3A 1_555 1_555
C4A O1A 1_555 1_555
Co1D N4A 1_555 1_555
Co1D_2 N7D 1_555 1_555
Co1E N4 1_555 1_555
Co1F N2 1_555 1_555
Co1G N2A 1_555 1_555
N2F Co1 1_555 1_555
N2G Co1A 1_555 1_555
N4D Co1A 1_555 1_555
N4E Co1 1_555 1_555
N7A Co1A 1_555 1_555
O2 Co1A 1_555 1_555
N4 C2 1_555 1_555
O2A C4A 1_555 1_555
N4A C2A 1_555 1_555
C3A C4A 1_555 1_555

#END
