
#######################################################################
#
#                 Cambridge Crystallographic Data Centre
#                                CCDC 
#
#######################################################################
#
# If this CIF has been generated from an entry in the Cambridge 
# Structural Database, then it will include bibliographic, chemical, 
# crystal, experimental, refinement or atomic coordinate data resulting 
# from the CCDC's data processing and validation procedures.
#
#######################################################################

data_DITROP
_symmetry_cell_setting           triclinic
_symmetry_space_group_name_H-M   'P -1'
_symmetry_Int_Tables_number      2
_space_group_name_Hall           '-P 1'
loop_
_symmetry_equiv_pos_site_id
_symmetry_equiv_pos_as_xyz
1 x,y,z
2 -x,-y,-z
_cell_length_a                   6.3338(4)
_cell_length_b                   9.7259(5)
_cell_length_c                   12.5873(8)
_cell_angle_alpha                105.750(5)
_cell_angle_beta                 97.197(5)
_cell_angle_gamma                98.783(5)
_cell_volume                     726.119
loop_
_atom_site_label
_atom_site_type_symbol
_atom_site_fract_x
_atom_site_fract_y
_atom_site_fract_z
C1 C -0.1887(9) 0.2414(6) -0.0139(5)
C2 C 0.4499(8) 0.6874(5) 0.3137(5)
C3 C 0.7371(8) 1.0505(6) 0.4393(5)
C4 C 0.2898(9) 0.5735(5) 0.2269(5)
C5 C 0.0827(10) 0.5389(6) 0.2494(5)
H1 H 0.0473 0.5901 0.3165
H2 H 0.2193 0.3418 -0.0184
C6 C -0.0212(9) 0.3547(5) 0.0710(5)
C7 C 0.1847(9) 0.3916(6) 0.0494(5)
C8 C 0.3393(9) 0.5003(6) 0.1256(5)
H3 H 0.4765 0.5245 0.1089
C9 C 0.6460(8) 0.8952(5) 0.4117(5)
C10 C 0.6477(8) 0.8010(5) 0.4771(5)
C11 C 0.7386(8) 0.8212(6) 0.5948(5)
C12 C -0.0699(8) 0.4300(5) 0.1737(4)
H4 H -0.2069 0.4059 0.1906
H5 H 0.3430 1.2136 0.1977
H6 H 0.4604 1.1983 0.1142
H7 H 0.8988 0.9373 0.1265
H8 H 0.8989 1.0365 0.2139
H9 H 0.7655 0.3290 0.3785
H10 H 0.867(8) 0.387(3) 0.477(2)
Cd1 Cd 0.48071(7) 0.95016(4) 0.18730(4)
Cd2 Cd 0.5000 0.5000 0.5000
N1 N 0.5249(7) 0.8221(4) 0.3085(4)
N2 N 0.5219(7) 0.6696(4) 0.4129(4)
O1 O 0.4182(8) 1.1579(4) 0.1616(4)
O2 O 0.8010(7) 0.4145(4) 0.4265(4)
O3 O 0.8236(6) 1.0015(4) 0.1485(4)
O4 O -0.1321(6) 0.1658(4) -0.1005(3)
O5 O -0.3854(6) 0.2247(4) -0.0037(3)
O6 O 0.8436(6) 1.1197(4) 0.5386(4)
O7 O 0.7041(6) 1.1148(4) 0.3677(3)
O8 O 0.8284(6) 0.9494(4) 0.6558(3)
O9 O 0.7197(6) 0.7130(4) 0.6307(3)
H11 H 0.859(10) 1.062(7) 0.582(6)
C1A C 0.1887(9) 0.7586(6) 0.0139(5)
C2A C -0.4499(8) 0.3126(5) -0.3137(5)
C3A C -0.7371(8) -0.0505(6) -0.4393(5)
C4A C -0.2898(9) 0.4265(5) -0.2269(5)
C5A C -0.0827(10) 0.4611(6) -0.2494(5)
H1A H -0.0473 0.4099 -0.3165
H2A H -0.2193 0.6582 0.0184
C6A C 0.0212(9) 0.6453(5) -0.0710(5)
C7A C -0.1847(9) 0.6084(6) -0.0494(5)
C8A C -0.3393(9) 0.4997(6) -0.1256(5)
H3A H -0.4765 0.4755 -0.1089
C9A C -0.6460(8) 0.1048(5) -0.4117(5)
C10A C -0.6477(8) 0.1990(5) -0.4771(5)
C11A C -0.7386(8) 0.1788(6) -0.5948(5)
C12A C 0.0699(8) 0.5700(5) -0.1737(4)
H4A H 0.2069 0.5941 -0.1906
H5A H -0.3430 -0.2136 -0.1977
H6A H -0.4604 -0.1983 -0.1142
H7A H -0.8988 0.0627 -0.1265
H8A H -0.8989 -0.0365 -0.2139
Cd1A Cd -0.48071(7) 0.04984(4) -0.18730(4)
N1A N -0.5249(7) 0.1779(4) -0.3085(4)
N2A N -0.5219(7) 0.3304(4) -0.4129(4)
O1A O -0.4182(8) -0.1579(4) -0.1616(4)
O3A O -0.8236(6) -0.0015(4) -0.1485(4)
O4A O 0.1321(6) 0.8342(4) 0.1005(3)
O5A O 0.3854(6) 0.7753(4) 0.0037(3)
O6A O -0.8436(6) -0.1197(4) -0.5386(4)
O7A O -0.7041(6) -0.1148(4) -0.3677(3)
O8A O -0.8284(6) 0.0506(4) -0.6558(3)
O9A O -0.7197(6) 0.2870(4) -0.6307(3)
H11A H -0.859(10) -0.062(7) -0.582(6)
H9A H 0.2345 0.6710 0.6215
H10A H 0.133(8) 0.613(3) 0.523(2)
O2A O 0.1990(7) 0.5855(4) 0.5735(4)
Cd2_2 Cd -0.5000 0.5000 -0.5000
N2A_2 N 0.4781(7) 0.3304(4) 0.5871(4)
O9A_2 O 0.2803(6) 0.2870(4) 0.3693(3)
loop_
_geom_bond_atom_site_label_1
_geom_bond_atom_site_label_2
_geom_bond_site_symmetry_1
_geom_bond_site_symmetry_2
C1 C6 1_555 1_555
C2 C4 1_555 1_555
C3 C9 1_555 1_555
C4 C5 1_555 1_555
C5 H1 1_555 1_555
H2 C7 1_555 1_555
C6 C7 1_555 1_555
C7 C8 1_555 1_555
C8 C4 1_555 1_555
H3 C8 1_555 1_555
C9 C10 1_555 1_555
C10 C11 1_555 1_555
C11 O8 1_555 1_555
C12 C5 1_555 1_555
H4 C12 1_555 1_555
H5 O1 1_555 1_555
H6 O1 1_555 1_555
H7 O3 1_555 1_555
H8 O3 1_555 1_555
H9 O2 1_555 1_555
H10 O2 1_555 1_555
Cd1 N1 1_555 1_555
Cd2 N2 1_555 1_555
N1 C2 1_555 1_555
N2 C2 1_555 1_555
O1 Cd1 1_555 1_555
O2 Cd2 1_555 1_555
O3 Cd1 1_555 1_555
O4 C1 1_555 1_555
O5 C1 1_555 1_555
O6 C3 1_555 1_555
O7 C3 1_555 1_555
O9 C11 1_555 1_555
H11 O6 1_555 1_555
C1A C6A 1_555 1_555
C2A C4A 1_555 1_555
C3A C9A 1_555 1_555
C4A C5A 1_555 1_555
C5A H1A 1_555 1_555
H2A C7A 1_555 1_555
C6A C7A 1_555 1_555
C7A C8A 1_555 1_555
C8A C4A 1_555 1_555
H3A C8A 1_555 1_555
C9A C10A 1_555 1_555
C10A C11A 1_555 1_555
C11A O8A 1_555 1_555
C12A C5A 1_555 1_555
H4A C12A 1_555 1_555
H5A O1A 1_555 1_555
H6A O1A 1_555 1_555
H7A O3A 1_555 1_555
H8A O3A 1_555 1_555
Cd1A O4 1_555 1_555
N1A C2A 1_555 1_555
N2A C2A 1_555 1_555
O1A Cd1A 1_555 1_555
O3A Cd1A 1_555 1_555
O4A Cd1 1_555 1_555
O5A Cd1 1_555 1_555
O6A C3A 1_555 1_555
O7A C3A 1_555 1_555
O9A C11A 1_555 1_555
H11A O6A 1_555 1_555
H9A O2A 1_555 1_555
H10A O2A 1_555 1_555
O2A Cd2 1_555 1_555
Cd2_2 N2A 1_555 1_555
N2A_2 Cd2 1_555 1_555
O9A_2 Cd2 1_555 1_555
C6 C12 1_555 1_555
C9 N1 1_555 1_555
C10 N2 1_555 1_555
Cd1 O7 1_555 1_555
Cd2 O9 1_555 1_555
O5 Cd1A 1_555 1_555
C1A O4A 1_555 1_555
C1A O5A 1_555 1_555
C6A C12A 1_555 1_555
C9A N1A 1_555 1_555
C10A N2A 1_555 1_555
Cd1A N1A 1_555 1_555
Cd1A O7A 1_555 1_555
O9A Cd2_2 1_555 1_555

#END
