
#######################################################################
#
#                 Cambridge Crystallographic Data Centre
#                                CCDC 
#
#######################################################################
#
# If this CIF has been generated from an entry in the Cambridge 
# Structural Database, then it will include bibliographic, chemical, 
# crystal, experimental, refinement or atomic coordinate data resulting 
# from the CCDC's data processing and validation procedures.
#
#######################################################################

data_DITRUV
_symmetry_cell_setting           monoclinic
_symmetry_space_group_name_H-M   'P 21/c'
_symmetry_Int_Tables_number      14
_space_group_name_Hall           '-P 2ybc'
loop_
_symmetry_equiv_pos_site_id
_symmetry_equiv_pos_as_xyz
1 x,y,z
2 -x,1/2+y,1/2-z
3 -x,-y,-z
4 x,1/2-y,1/2+z
_cell_length_a                   7.0577(12)
_cell_length_b                   10.6627(19)
_cell_length_c                   25.776(4)
_cell_angle_alpha                90
_cell_angle_beta                 102.526(4)
_cell_angle_gamma                90
_cell_volume                     1893.58
loop_
_atom_site_label
_atom_site_type_symbol
_atom_site_fract_x
_atom_site_fract_y
_atom_site_fract_z
Pb1 Pb 0.74231(8) 0.86581(5) 0.97529(2)
O1 O 0.5368(15) 0.9495(13) 0.8845(5)
O2 O 0.3686(17) 0.9758(12) 0.9471(4)
O3 O -0.0679(18) 1.0579(11) 0.9474(4)
O4 O -0.0473(16) 0.8735(10) 0.9086(5)
N1 N 0.677(2) 0.6423(14) 0.9247(5)
N2 N 0.805(3) 0.6427(13) 1.0322(5)
N3 N -0.163(3) 1.2594(18) 0.7493(6)
N4 N 0.144(2) 1.2653(17) 0.7418(7)
H1 H 0.2444 1.2877 0.7301
C1 C 0.870(3) 0.6306(18) 1.0859(7)
H2 H 0.9013 0.7034 1.1057
C2 C 0.891(3) 0.518(2) 1.1125(8)
H3 H 0.9408 0.5150 1.1490
C3 C 0.836(3) 0.4087(15) 1.0836(6)
H4 H 0.8421 0.3324 1.1014
C4 C 0.773(3) 0.4118(19) 1.0291(6)
C5 C 0.756(2) 0.5295(15) 1.0061(6)
C6 C 0.724(3) 0.2975(18) 1.0007(8)
H5 H 0.7342 0.2209 1.0184
C7 C 0.662(3) 0.3041(19) 0.9463(8)
H6 H 0.6309 0.2306 0.9269
C8 C 0.645(3) 0.4203(18) 0.9193(8)
C9 C 0.692(3) 0.5347(15) 0.9486(7)
C10 C 0.620(4) 0.651(2) 0.8703(7)
H7 H 0.6081 0.7287 0.8537
C11 C 0.580(4) 0.5417(19) 0.8407(8)
H8 H 0.5501 0.5462 0.8038
C12 C 0.584(4) 0.430(2) 0.8645(9)
H9 H 0.5463 0.3586 0.8443
C13 C 0.3892(18) 0.9882(14) 0.9008(6)
C14 C 0.231(2) 1.0582(14) 0.8607(5)
C15 C 0.293(2) 1.1209(15) 0.8197(7)
H10 H 0.4208 1.1195 0.8157
C16 C 0.143(2) 1.1871(16) 0.7846(7)
C17 C -0.043(3) 1.300(2) 0.7215(9)
H11 H -0.0805 1.3476 0.6908
C18 C -0.051(2) 1.1858(18) 0.7898(7)
C19 C -0.101(2) 1.1192(14) 0.8303(6)
H12 H -0.2297 1.1159 0.8333
C20 C 0.041(2) 1.0565(13) 0.8667(6)
C21 C -0.0262(18) 0.9896(13) 0.9104(6)
Pb1_2 Pb -0.25769(8) 0.86581(5) 0.97529(2)
Pb1B Pb 0.25769(8) 1.13419(5) 1.02471(2)
O2B O 0.6314(17) 1.0242(12) 1.0529(4)
O3_2 O 0.9321(18) 1.0579(11) 0.9474(4)
O3B O 1.0679(18) 0.9421(11) 1.0526(4)
O4_2 O 0.9527(16) 0.8735(10) 0.9086(5)
O5 O 0.5256(19) 0.8809(13) 0.7780(5)
H13 H 0.5295 0.9014 0.8101
H14 H 0.4165 0.8439 0.7696
loop_
_geom_bond_atom_site_label_1
_geom_bond_atom_site_label_2
_geom_bond_site_symmetry_1
_geom_bond_site_symmetry_2
Pb1 O1 1_555 1_555
O1 C13 1_555 1_555
O2 Pb1 1_555 1_555
O3 C21 1_555 1_555
O4 C21 1_555 1_555
N1 Pb1 1_555 1_555
N2 Pb1 1_555 1_555
N3 C17 1_555 1_555
N4 H1 1_555 1_555
C1 N2 1_555 1_555
H2 C1 1_555 1_555
C2 C1 1_555 1_555
H3 C2 1_555 1_555
C3 C2 1_555 1_555
H4 C3 1_555 1_555
C4 C3 1_555 1_555
C5 N2 1_555 1_555
C6 C4 1_555 1_555
H5 C6 1_555 1_555
C7 C6 1_555 1_555
H6 C7 1_555 1_555
C8 C7 1_555 1_555
C9 N1 1_555 1_555
C10 N1 1_555 1_555
H7 C10 1_555 1_555
C11 C10 1_555 1_555
H8 C11 1_555 1_555
C12 C8 1_555 1_555
H9 C12 1_555 1_555
C13 O2 1_555 1_555
C14 C13 1_555 1_555
C15 C14 1_555 1_555
H10 C15 1_555 1_555
C16 N4 1_555 1_555
C17 N4 1_555 1_555
H11 C17 1_555 1_555
C18 N3 1_555 1_555
C19 C18 1_555 1_555
H12 C19 1_555 1_555
C20 C14 1_555 1_555
C21 C20 1_555 1_555
O5 H13 1_555 1_555
H14 O5 1_555 1_555
Pb1_2 O3 1_555 1_555
Pb1B O2 1_555 1_555
O2B Pb1 1_555 1_555
O3_2 Pb1 1_555 1_555
O3B Pb1 1_555 1_555
O4_2 Pb1 1_555 1_555
O3 Pb1B 1_555 1_555
O4 Pb1_2 1_555 1_555
C4 C5 1_555 1_555
C5 C9 1_555 1_555
C8 C9 1_555 1_555
C11 C12 1_555 1_555
C15 C16 1_555 1_555
C16 C18 1_555 1_555
C19 C20 1_555 1_555
Pb1B O2B 1_555 1_555

#END
