
#######################################################################
#
#                 Cambridge Crystallographic Data Centre
#                                CCDC 
#
#######################################################################
#
# If this CIF has been generated from an entry in the Cambridge 
# Structural Database, then it will include bibliographic, chemical, 
# crystal, experimental, refinement or atomic coordinate data resulting 
# from the CCDC's data processing and validation procedures.
#
#######################################################################

data_DITVOT
_symmetry_cell_setting           triclinic
_symmetry_space_group_name_H-M   'P -1'
_symmetry_Int_Tables_number      2
_space_group_name_Hall           '-P 1'
loop_
_symmetry_equiv_pos_site_id
_symmetry_equiv_pos_as_xyz
1 x,y,z
2 -x,-y,-z
_cell_length_a                   7.6258(5)
_cell_length_b                   15.3871(10)
_cell_length_c                   16.1101(10)
_cell_angle_alpha                115.8060(10)
_cell_angle_beta                 91.3420(10)
_cell_angle_gamma                101.3070(10)
_cell_volume                     1656.08
loop_
_atom_site_label
_atom_site_type_symbol
_atom_site_fract_x
_atom_site_fract_y
_atom_site_fract_z
C1 C 0.113(3) 0.6130(14) 0.1640(14)
H1 H 0.0868 0.6174 0.2216
C2 C 0.233(3) 0.5572(12) 0.1137(13)
C3 C 0.272(2) 0.5499(12) 0.0305(14)
H2 H 0.3509 0.5111 -0.0013
O1 O 0.308(2) 0.5019(8) 0.1479(10)
C4 C 0.442(2) 0.5518(12) 0.2211(13)
C5 C 0.545(3) 0.6446(13) 0.2444(14)
H3 H 0.5275 0.6771 0.2090
C6 C 0.676(3) 0.6899(12) 0.3215(16)
H4 H 0.7438 0.7534 0.3381
C7 C 0.706(2) 0.6405(11) 0.3747(11)
H5 H 0.7969 0.6700 0.4247
C8 C 0.6029(18) 0.5509(10) 0.3521(10)
C9 C 0.6420(18) 0.4992(11) 0.4113(10)
C10 C 0.194(2) 0.6018(13) -0.0085(13)
H6 H 0.2213 0.5988 -0.0655
C11 C 0.037(3) 0.6608(13) 0.1228(14)
H7 H -0.0446 0.6975 0.1539
C12 C 0.0729(19) 0.6581(10) 0.0410(11)
C13 C -0.0233(18) 0.7072(9) -0.0043(10)
C14 C 0.4662(19) 0.5028(10) 0.2761(11)
C15 C 0.3350(18) 0.4041(11) 0.2486(10)
C16 C 0.6726(19) 0.0981(11) 1.0168(10)
C17 C 0.886(2) 0.1180(13) 0.4074(13)
C18 C 0.833(2) 0.0901(11) 0.4802(10)
C19 C 0.834(2) 0.1582(11) 0.5715(10)
H8 H 0.8665 0.2254 0.5872
C20 C 0.787(2) 0.1301(12) 0.6412(12)
H9 H 0.7951 0.1780 0.7024
C21 C 0.7290(18) 0.0309(10) 0.6189(10)
C22 C 0.727(2) -0.0391(10) 0.5289(10)
H10 H 0.6886 -0.1059 0.5141
C23 C 0.779(2) -0.0127(10) 0.4601(10)
H11 H 0.7801 -0.0617 0.4003
C24 C 0.8110(18) -0.0215(10) 0.8317(9)
C25 C 0.6890(18) 0.0508(10) 0.8452(9)
C26 C 0.6325(16) 0.1059(9) 0.9309(9)
C27 C 0.5172(19) 0.1703(10) 0.9345(11)
H12 H 0.4796 0.2081 0.9910
C28 C 0.461(2) 0.1779(11) 0.8568(12)
H13 H 0.3878 0.2211 0.8608
C29 C 0.515(2) 0.1185(11) 0.7698(10)
H14 H 0.4752 0.1201 0.7156
C30 C 0.627(2) 0.0600(11) 0.7681(11)
O2 O 0.6812(16) -0.0031(8) 0.6833(7)
O3 O 0.9015(13) 0.3611(7) 0.3861(6)
O4 O 0.9546(12) 0.2029(6) 0.2100(6)
O5 O 0.1946(13) 0.4082(7) 0.2911(8)
O6 O 0.6150(13) 0.2049(7) 0.2852(7)
O7 O 0.7347(14) -0.1115(7) 0.7946(7)
O8 O 0.3718(13) 0.3235(7) 0.1884(8)
O9 O 0.9729(14) 0.0156(8) 0.8615(8)
O10 O 0.9155(16) 0.2107(8) 0.4314(9)
O11 O 0.8996(18) 0.0538(9) 0.3287(9)
O12 O 0.5464(14) 0.4132(8) 0.3877(8)
O13 O 0.7742(15) 0.5404(7) 0.4725(8)
O14 O 0.0411(15) 0.7198(8) -0.0711(8)
O15 O -0.1533(17) 0.7382(10) 0.0292(9)
O16 O 0.6006(14) 0.1430(7) 1.0877(8)
O17 O 0.7868(15) 0.0449(7) 1.0171(7)
O18 O 0.8750(15) 0.4190(9) 0.6031(8)
Pb1 Pb 0.76542(7) 0.05765(4) 0.18419(4)
Pb2 Pb 1.13312(7) 0.17157(4) 0.08557(4)
Pb3 Pb 1.13772(7) 0.27853(4) 0.34766(4)
Pb4 Pb 0.76333(7) 0.30229(4) 0.21758(4)
Pb5 Pb 0.66231(8) 0.30468(4) 0.44276(4)
H15 H 0.9492 0.4266 0.5633
H16 H 0.7662 0.4551 0.6241
O5_2 O 1.1946(13) 0.4082(7) 0.2911(8)
O7A O 1.2653(14) 0.1115(7) 0.2054(7)
O8_2 O 1.3718(13) 0.3235(7) 0.1884(8)
O9A O 1.0271(14) -0.0156(8) 0.1385(8)
O14A O 0.9589(15) 0.2802(8) 0.0711(8)
O15A O 1.1533(17) 0.2618(10) -0.0292(9)
O16_2 O 0.6006(14) 0.1430(7) 0.0877(8)
O17_2 O 0.7868(15) 0.0449(7) 0.0171(7)
Pb1_2 Pb 0.76542(7) 0.05765(4) 1.18419(4)
Pb1A Pb 1.23458(7) -0.05765(4) 0.81581(4)
Pb2_2 Pb 0.13312(7) 0.17157(4) 0.08557(4)
Pb2_3 Pb 1.13312(7) 0.17157(4) 1.08557(4)
Pb2A Pb -0.13312(7) 0.82843(4) -0.08557(4)
Pb2A_2 Pb 0.86688(7) -0.17157(4) 0.91443(4)
Pb3_2 Pb 0.13772(7) 0.27853(4) 0.34766(4)
Pb4_2 Pb 0.76333(7) 0.30229(4) 1.21758(4)
Pb4A Pb 0.23667(7) 0.69771(4) -0.21758(4)
loop_
_geom_bond_atom_site_label_1
_geom_bond_atom_site_label_2
_geom_bond_site_symmetry_1
_geom_bond_site_symmetry_2
C1 H1 1_555 1_555
C2 C1 1_555 1_555
C3 C2 1_555 1_555
H2 C3 1_555 1_555
O1 C2 1_555 1_555
C4 O1 1_555 1_555
C5 C4 1_555 1_555
H3 C5 1_555 1_555
C6 C5 1_555 1_555
H4 C6 1_555 1_555
C7 C6 1_555 1_555
H5 C7 1_555 1_555
C8 C7 1_555 1_555
C9 C8 1_555 1_555
C10 C3 1_555 1_555
H6 C10 1_555 1_555
C11 C1 1_555 1_555
H7 C11 1_555 1_555
C12 C10 1_555 1_555
C13 C12 1_555 1_555
C14 C4 1_555 1_555
C15 C14 1_555 1_555
C16 C26 1_555 1_555
C17 C18 1_555 1_555
C18 C19 1_555 1_555
C19 H8 1_555 1_555
C20 C19 1_555 1_555
H9 C20 1_555 1_555
C21 C20 1_555 1_555
C22 C21 1_555 1_555
H10 C22 1_555 1_555
C23 C18 1_555 1_555
H11 C23 1_555 1_555
C24 C25 1_555 1_555
C25 C26 1_555 1_555
C26 C27 1_555 1_555
C27 H12 1_555 1_555
C28 C27 1_555 1_555
H13 C28 1_555 1_555
C29 C28 1_555 1_555
H14 C29 1_555 1_555
C30 C25 1_555 1_555
O2 C21 1_555 1_555
O3 Pb3 1_555 1_555
O4 Pb1 1_555 1_555
O5 C15 1_555 1_555
O6 Pb1 1_555 1_555
O7 C24 1_555 1_555
O8 C15 1_555 1_555
O9 C24 1_555 1_555
O10 C17 1_555 1_555
O11 C17 1_555 1_555
O12 C9 1_555 1_555
O13 C9 1_555 1_555
O14 C13 1_555 1_555
O15 C13 1_555 1_555
O16 C16 1_555 1_555
O17 C16 1_555 1_555
O18 Pb5 1_555 1_555
Pb1 O11 1_555 1_555
Pb2 O4 1_555 1_555
Pb3 O4 1_555 1_555
Pb4 O3 1_555 1_555
Pb5 O3 1_555 1_555
H15 O18 1_555 1_555
H16 O18 1_555 1_555
O5_2 Pb3 1_555 1_555
O7A Pb2 1_555 1_555
O8_2 Pb2 1_555 1_555
O9A Pb1 1_555 1_555
O14A Pb2 1_555 1_555
O15A Pb2 1_555 1_555
O16_2 Pb1 1_555 1_555
O17_2 Pb1 1_555 1_555
Pb1_2 O16 1_555 1_555
Pb1A O9 1_555 1_555
Pb2_2 O8 1_555 1_555
Pb2_3 O17 1_555 1_555
Pb2A O14 1_555 1_555
Pb2A_2 O7 1_555 1_555
Pb3_2 O5 1_555 1_555
Pb4_2 O16 1_555 1_555
Pb4A O14 1_555 1_555
C8 C14 1_555 1_555
C11 C12 1_555 1_555
C22 C23 1_555 1_555
C29 C30 1_555 1_555
C30 O2 1_555 1_555
O4 Pb4 1_555 1_555
O6 Pb4 1_555 1_555
O6 Pb5 1_555 1_555
O10 Pb3 1_555 1_555
O10 Pb5 1_555 1_555
O12 Pb5 1_555 1_555
O15 Pb2A 1_555 1_555
O17 Pb1_2 1_555 1_555
Pb2 O17_2 1_555 1_555
Pb4 O14A 1_555 1_555
Pb4 O16_2 1_555 1_555

#END
