
#######################################################################
#
#                 Cambridge Crystallographic Data Centre
#                                CCDC 
#
#######################################################################
#
# If this CIF has been generated from an entry in the Cambridge 
# Structural Database, then it will include bibliographic, chemical, 
# crystal, experimental, refinement or atomic coordinate data resulting 
# from the CCDC's data processing and validation procedures.
#
#######################################################################

data_DITVUZ
_symmetry_cell_setting           orthorhombic
_symmetry_space_group_name_H-M   'C 2 2 21'
_symmetry_Int_Tables_number      20
_space_group_name_Hall           'C 2n 2'
loop_
_symmetry_equiv_pos_site_id
_symmetry_equiv_pos_as_xyz
1 x,y,z
2 -x,-y,1/2+z
3 x,-y,-z
4 -x,y,1/2-z
5 1/2+x,1/2+y,z
6 1/2-x,1/2-y,1/2+z
7 1/2+x,1/2-y,-z
8 1/2-x,1/2+y,1/2-z
_cell_length_a                   13.944(3)
_cell_length_b                   11.447(2)
_cell_length_c                   11.753(2)
_cell_angle_alpha                90
_cell_angle_beta                 90
_cell_angle_gamma                90
_cell_volume                     1875.98
loop_
_atom_site_label
_atom_site_type_symbol
_atom_site_fract_x
_atom_site_fract_y
_atom_site_fract_z
N1 N -0.0821(8) 0.5819(9) 0.1377(9)
N2 N -0.0532(8) 0.4854(10) 0.1202(8)
Zn1 Zn 0.0000 -0.06436(17) 0.2500
Co1 Co -0.06329(11) 0.27597(14) -0.02754(14)
O1 O 0.0863(6) 0.0297(7) 0.1532(8)
O2 O -0.0322(6) 0.1336(8) 0.0814(8)
N3 N -0.0235(9) 0.3921(9) 0.1114(10)
N4 N 0.0893(7) 0.2545(8) -0.0497(9)
N5 N 0.2873(6) 0.2259(9) -0.0181(8)
N6 N -0.0986(8) -0.1528(9) 0.1639(8)
N7 N -0.1787(9) -0.1230(10) 0.1757(9)
N8 N -0.2551(10) -0.0962(13) 0.1859(13)
C1 C 0.0520(8) 0.1091(9) 0.0882(11)
C2 C 0.1256(8) 0.1783(10) 0.0285(11)
C3 C 0.1522(9) 0.3166(10) -0.1093(11)
H1 H 0.1301 0.3718 -0.1611
C4 C 0.2493(9) 0.3010(9) -0.0959(10)
H2 H 0.2908 0.3435 -0.1420
C5 C 0.2232(8) 0.1622(10) 0.0370(9)
H3 H 0.2454 0.1030 0.0844
N1B N -0.0821(8) -0.5819(9) -0.1377(9)
N2B N -0.0532(8) -0.4854(10) -0.1202(8)
Co1B Co -0.06329(11) -0.27597(14) 0.02754(14)
O1B O 0.0863(6) -0.0297(7) -0.1532(8)
O2B O -0.0322(6) -0.1336(8) -0.0814(8)
N3B N -0.0235(9) -0.3921(9) -0.1114(10)
N4B N 0.0893(7) -0.2545(8) 0.0497(9)
N5B N 0.2873(6) -0.2259(9) 0.0181(8)
N6B N -0.0986(8) 0.1528(9) -0.1639(8)
N7B N -0.1787(9) 0.1230(10) -0.1757(9)
N8B N -0.2551(10) 0.0962(13) -0.1859(13)
C1B C 0.0520(8) -0.1091(9) -0.0882(11)
C2B C 0.1256(8) -0.1783(10) -0.0285(11)
C3B C 0.1522(9) -0.3166(10) 0.1093(11)
H1B H 0.1301 -0.3718 0.1611
C4B C 0.2493(9) -0.3010(9) 0.0959(10)
H2B H 0.2908 -0.3435 0.1420
C5B C 0.2232(8) -0.1622(10) -0.0370(9)
H3B H 0.2454 -0.1030 -0.0844
N1_2 N -0.0821(8) -0.4181(9) 0.1377(9)
N1B_2 N -0.0821(8) 0.4181(9) -0.1377(9)
Zn1A Zn 0.0000 0.06436(17) -0.2500
Co1_2 Co -0.06329(11) -0.72403(14) -0.02754(14)
Co1B_2 Co -0.06329(11) 0.72403(14) 0.02754(14)
Co1D Co 0.43671(11) -0.22403(14) -0.02754(14)
Co1F Co 0.43671(11) 0.22403(14) 0.02754(14)
O1C O -0.0863(6) 0.0297(7) 0.3468(8)
N5D N -0.2127(6) -0.2741(9) -0.0181(8)
N5F N -0.2127(6) 0.2741(9) 0.0181(8)
N6C N 0.0986(8) -0.1528(9) 0.3361(8)
loop_
_geom_bond_atom_site_label_1
_geom_bond_atom_site_label_2
_geom_bond_site_symmetry_1
_geom_bond_site_symmetry_2
N1 N2 1_555 1_555
N2 N3 1_555 1_555
Zn1 O1 1_555 1_555
Co1 O2 1_555 1_555
O1 C1 1_555 1_555
O2 C1 1_555 1_555
N3 Co1 1_555 1_555
N4 Co1 1_555 1_555
N5 C4 1_555 1_555
N6 Zn1 1_555 1_555
N7 N6 1_555 1_555
N8 N7 1_555 1_555
C1 C2 1_555 1_555
C2 N4 1_555 1_555
C3 N4 1_555 1_555
H1 C3 1_555 1_555
C4 C3 1_555 1_555
H2 C4 1_555 1_555
C5 N5 1_555 1_555
H3 C5 1_555 1_555
N1B N2B 1_555 1_555
N2B N3B 1_555 1_555
Co1B N6 1_555 1_555
O1B C1B 1_555 1_555
O2B Co1B 1_555 1_555
N3B Co1B 1_555 1_555
N4B Co1B 1_555 1_555
N5B C4B 1_555 1_555
N6B Co1 1_555 1_555
N7B N6B 1_555 1_555
N8B N7B 1_555 1_555
C1B O2B 1_555 1_555
C2B N4B 1_555 1_555
C3B N4B 1_555 1_555
H1B C3B 1_555 1_555
C4B C3B 1_555 1_555
H2B C4B 1_555 1_555
C5B N5B 1_555 1_555
H3B C5B 1_555 1_555
N1_2 Co1B 1_555 1_555
N1B_2 Co1 1_555 1_555
Zn1A O1B 1_555 1_555
Co1_2 N1B 1_555 1_555
Co1B_2 N1 1_555 1_555
Co1D N5B 1_555 1_555
Co1F N5 1_555 1_555
O1C Zn1 1_555 1_555
N5D Co1B 1_555 1_555
N5F Co1 1_555 1_555
N6C Zn1 1_555 1_555
C2 C5 1_555 1_555
N6B Zn1A 1_555 1_555
C1B C2B 1_555 1_555
C2B C5B 1_555 1_555

#END
