
#######################################################################
#
#                 Cambridge Crystallographic Data Centre
#                                CCDC 
#
#######################################################################
#
# If this CIF has been generated from an entry in the Cambridge 
# Structural Database, then it will include bibliographic, chemical, 
# crystal, experimental, refinement or atomic coordinate data resulting 
# from the CCDC's data processing and validation procedures.
#
#######################################################################

data_DITXAH
_symmetry_cell_setting           monoclinic
_symmetry_space_group_name_H-M   'P 21/c'
_symmetry_Int_Tables_number      14
_space_group_name_Hall           '-P 2ybc'
loop_
_symmetry_equiv_pos_site_id
_symmetry_equiv_pos_as_xyz
1 x,y,z
2 -x,1/2+y,1/2-z
3 -x,-y,-z
4 x,1/2-y,1/2+z
_cell_length_a                   18.573(4)
_cell_length_b                   11.715(2)
_cell_length_c                   18.642(4)
_cell_angle_alpha                90
_cell_angle_beta                 118.88(3)
_cell_angle_gamma                90
_cell_volume                     3551.72
loop_
_atom_site_label
_atom_site_type_symbol
_atom_site_fract_x
_atom_site_fract_y
_atom_site_fract_z
Zn1 Zn 0.81476(3) 0.56740(4) 0.42037(3)
Zn2 Zn 0.33111(3) 0.50180(4) -0.04052(3)
O1 O 0.70152(18) 0.5399(3) 0.33342(18)
O2 O 0.6821(2) 0.5649(3) 0.4401(2)
O3 O 0.32948(19) 0.3945(3) 0.07654(19)
O4 O 0.41908(19) 0.5141(3) 0.07499(17)
O5 O 0.97158(19) 0.5201(3) 0.5768(2)
O6 O 0.84522(19) 0.4550(3) 0.50621(19)
O7 O 0.8088(2) 0.0578(3) 0.70309(18)
O8 O 0.76670(18) 0.0946(3) 0.57212(17)
O9 O 0.8694(2) 0.5119(4) 0.3588(2)
H1 H 0.9209 0.5010 0.3797
H2 H 0.8574 0.4778 0.3142
N1 N 0.8546(2) 0.7274(3) 0.4522(2)
N2 N 0.8683(2) 0.9119(3) 0.4543(2)
N3 N 0.5779(2) 1.2632(3) 0.1438(2)
N4 N 0.6047(2) 1.4008(3) 0.0827(2)
N5 N 0.7439(2) 0.8162(3) 0.1403(2)
N6 N 0.6921(2) 0.6485(3) 0.0978(2)
C1 C 0.8001(3) 1.0546(4) 0.3449(3)
C2 C 0.8206(3) 1.0046(3) 0.2890(3)
C3 C 0.7616(3) 1.0013(3) 0.2061(3)
C4 C 0.6849(3) 1.0505(4) 0.1791(3)
C5 C 0.6686(3) 1.1129(4) 0.2341(3)
C6 C 0.7266(3) 1.1160(3) 0.3176(3)
C7 C 0.9050(3) 0.9522(5) 0.3185(3)
H3 H 0.9005 0.8705 0.3163
H4 H 0.9410 0.9758 0.3738
H5 H 0.9270 0.9772 0.2839
C8 C 0.6195(4) 1.0367(5) 0.0908(3)
H6 H 0.6281 1.0919 0.0576
H7 H 0.5663 1.0483 0.0862
H8 H 0.6225 0.9612 0.0724
C9 C 0.7123(4) 1.1881(4) 0.3766(3)
H9 H 0.6770 1.2509 0.3477
H10 H 0.7640 1.2168 0.4187
H11 H 0.6870 1.1425 0.4010
C10 C 0.8564(3) 1.0353(4) 0.4362(3)
H12 H 0.9091 1.0713 0.4528
H13 H 0.8324 1.0700 0.4670
C11 C 0.9409(3) 0.8727(4) 0.5143(3)
H14 H 0.9873 0.9145 0.5494
C12 C 0.9306(4) 0.7640(5) 0.5112(4)
H15 H 0.9715 0.7140 0.5462
C13 C 0.8188(3) 0.8254(4) 0.4173(3)
H16 H 0.7662 0.8320 0.3729
C14 C 0.5866(3) 1.1733(4) 0.2020(3)
H17 H 0.5424 1.1184 0.1752
H18 H 0.5823 1.2065 0.2474
C15 C 0.5115(2) 1.2712(3) 0.0689(2)
H19 H 0.4638 1.2274 0.0471
C16 C 0.5296(3) 1.3539(4) 0.0348(3)
H20 H 0.4943 1.3791 -0.0181
C17 C 0.6327(3) 1.3405(4) 0.1508(3)
H21 H 0.6836 1.3510 0.1971
C18 C 0.7786(3) 0.9314(4) 0.1477(3)
H22 H 0.7539 0.9679 0.0944
H23 H 0.8374 0.9263 0.1681
C19 C 0.7438(3) 0.7649(3) 0.2057(2)
H24 H 0.7616 0.7944 0.2579
C20 C 0.7131(3) 0.6657(4) 0.1780(3)
H25 H 0.7058 0.6106 0.2098
C21 C 0.7130(3) 0.7465(4) 0.0772(3)
H26 H 0.7067 0.7634 0.0257
C22 C 0.6585(3) 0.5301(4) 0.3703(3)
C23 C 0.5782(2) 0.4688(4) 0.3247(2)
C24 C 0.5273(2) 0.4825(3) 0.2411(2)
H27 H 0.5432 0.5304 0.2114
C25 C 0.4528(2) 0.4247(4) 0.2016(2)
C26 C 0.4306(3) 0.3505(5) 0.2448(3)
H28 H 0.3810 0.3112 0.2180
C27 C 0.4816(3) 0.3342(5) 0.3276(3)
H29 H 0.4672 0.2826 0.3564
C28 C 0.5542(3) 0.3947(5) 0.3676(3)
H30 H 0.5875 0.3858 0.4238
C29 C 0.3958(3) 0.4446(4) 0.1120(3)
C30 C 0.9166(3) 0.4520(4) 0.5672(3)
C31 C 0.9308(2) 0.3631(4) 0.6301(2)
C32 C 0.8721(3) 0.2790(4) 0.6126(2)
H31 H 0.8257 0.2774 0.5612
C33 C 0.8812(3) 0.1974(4) 0.6699(2)
C34 C 0.9496(3) 0.2001(4) 0.7468(3)
H32 H 0.9556 0.1472 0.7865
C35 C 1.0095(3) 0.2827(4) 0.7640(3)
H33 H 1.0562 0.2838 0.8152
C36 C 1.0006(3) 0.3629(4) 0.7063(3)
H34 H 1.0415 0.4171 0.7186
C37 C 0.8156(3) 0.1090(4) 0.6484(3)
Zn2A Zn 0.66889(3) 0.00180(4) 0.54052(3)
Zn2B Zn 0.66889(3) 0.49820(4) 0.04052(3)
Zn2B_2 Zn 0.66889(3) 1.49820(4) 0.04052(3)
O8A O 0.23330(18) 0.5946(3) -0.07212(17)
N4B N 0.3953(2) 0.5992(3) -0.0827(2)
N6B N 0.3079(2) 0.3515(3) -0.0978(2)
loop_
_geom_bond_atom_site_label_1
_geom_bond_atom_site_label_2
_geom_bond_site_symmetry_1
_geom_bond_site_symmetry_2
Zn1 O1 1_555 1_555
Zn2 O3 1_555 1_555
O1 C22 1_555 1_555
O2 C22 1_555 1_555
O3 C29 1_555 1_555
O4 Zn2 1_555 1_555
O5 C30 1_555 1_555
O6 Zn1 1_555 1_555
O7 C37 1_555 1_555
O8 C37 1_555 1_555
O9 Zn1 1_555 1_555
H1 O9 1_555 1_555
H2 O9 1_555 1_555
N1 Zn1 1_555 1_555
N2 C10 1_555 1_555
N3 C14 1_555 1_555
N4 C16 1_555 1_555
N5 C18 1_555 1_555
N6 C20 1_555 1_555
C1 C2 1_555 1_555
C2 C3 1_555 1_555
C3 C4 1_555 1_555
C4 C5 1_555 1_555
C5 C6 1_555 1_555
C6 C1 1_555 1_555
C7 C2 1_555 1_555
H3 C7 1_555 1_555
H4 C7 1_555 1_555
H5 C7 1_555 1_555
C8 C4 1_555 1_555
H6 C8 1_555 1_555
H7 C8 1_555 1_555
H8 C8 1_555 1_555
C9 C6 1_555 1_555
H9 C9 1_555 1_555
H10 C9 1_555 1_555
H11 C9 1_555 1_555
C10 C1 1_555 1_555
H12 C10 1_555 1_555
H13 C10 1_555 1_555
C11 N2 1_555 1_555
H14 C11 1_555 1_555
C12 N1 1_555 1_555
H15 C12 1_555 1_555
C13 N1 1_555 1_555
H16 C13 1_555 1_555
C14 C5 1_555 1_555
H17 C14 1_555 1_555
H18 C14 1_555 1_555
C15 N3 1_555 1_555
H19 C15 1_555 1_555
C16 C15 1_555 1_555
H20 C16 1_555 1_555
C17 N3 1_555 1_555
H21 C17 1_555 1_555
C18 C3 1_555 1_555
H22 C18 1_555 1_555
H23 C18 1_555 1_555
C19 N5 1_555 1_555
H24 C19 1_555 1_555
C20 C19 1_555 1_555
H25 C20 1_555 1_555
C21 N5 1_555 1_555
H26 C21 1_555 1_555
C22 C23 1_555 1_555
C23 C24 1_555 1_555
C24 H27 1_555 1_555
C25 C24 1_555 1_555
C26 C25 1_555 1_555
H28 C26 1_555 1_555
C27 C26 1_555 1_555
H29 C27 1_555 1_555
C28 C23 1_555 1_555
H30 C28 1_555 1_555
C29 O4 1_555 1_555
C30 O6 1_555 1_555
C31 C30 1_555 1_555
C32 C31 1_555 1_555
H31 C32 1_555 1_555
C33 C32 1_555 1_555
C34 C33 1_555 1_555
H32 C34 1_555 1_555
C35 C34 1_555 1_555
H33 C35 1_555 1_555
C36 C31 1_555 1_555
H34 C36 1_555 1_555
C37 C33 1_555 1_555
Zn2A O8 1_555 1_555
Zn2B N6 1_555 1_555
Zn2B_2 N4 1_555 1_555
O8A Zn2 1_555 1_555
N4B Zn2 1_555 1_555
N6B Zn2 1_555 1_555
N2 C13 1_555 1_555
N4 C17 1_555 1_555
N6 C21 1_555 1_555
C11 C12 1_555 1_555
C25 C29 1_555 1_555
C27 C28 1_555 1_555
C35 C36 1_555 1_555

#END
