
#######################################################################
#
#                 Cambridge Crystallographic Data Centre
#                                CCDC 
#
#######################################################################
#
# If this CIF has been generated from an entry in the Cambridge 
# Structural Database, then it will include bibliographic, chemical, 
# crystal, experimental, refinement or atomic coordinate data resulting 
# from the CCDC's data processing and validation procedures.
#
#######################################################################

data_DITXOU
_symmetry_cell_setting           monoclinic
_symmetry_space_group_name_H-M   'P 21/n'
_symmetry_Int_Tables_number      14
_space_group_name_Hall           '-P 2yn'
loop_
_symmetry_equiv_pos_site_id
_symmetry_equiv_pos_as_xyz
1 x,y,z
2 1/2-x,1/2+y,1/2-z
3 -x,-y,-z
4 1/2+x,1/2-y,1/2+z
_cell_length_a                   11.5837(13)
_cell_length_b                   14.7422(17)
_cell_length_c                   11.6194(13)
_cell_angle_alpha                90
_cell_angle_beta                 102.319(2)
_cell_angle_gamma                90
_cell_volume                     1938.55
loop_
_atom_site_label
_atom_site_type_symbol
_atom_site_fract_x
_atom_site_fract_y
_atom_site_fract_z
Zn1 Zn 0.992435(17) 0.032054(14) 0.749328(17)
O1 O 0.77412(13) 0.00999(9) 0.48566(12)
O3 O 0.86493(12) -0.04651(9) 0.66118(11)
O5 O 0.82222(14) -0.16598(10) 0.22180(12)
O6 O 0.93251(12) -0.08755(9) 0.36848(11)
O7 O 0.58823(12) -0.43298(9) 0.33444(11)
O8 O 0.73029(12) -0.49356(9) 0.47455(12)
O9 O 0.57525(12) -0.41348(9) 0.62525(11)
O10 O 0.63964(15) -0.30655(11) 0.75696(12)
C11 C 0.77315(15) -0.15044(12) 0.51788(15)
C12 C 0.79071(15) -0.19056(12) 0.41383(15)
C13 C 0.75550(15) -0.28040(12) 0.38914(15)
H16 H 0.7670 -0.3066 0.3196
C14 C 0.70378(15) -0.33205(12) 0.46506(15)
C15 C 0.68644(15) -0.29188(12) 0.56935(15)
C16 C 0.72034(15) -0.20181(12) 0.59319(15)
H17 H 0.7072 -0.1751 0.6618
C17 C 0.80726(16) -0.05350(12) 0.55370(16)
C18 C 0.85216(16) -0.14465(12) 0.32751(16)
C19 C 0.67158(16) -0.42898(12) 0.42589(15)
C20 C 0.63045(16) -0.34026(12) 0.65769(16)
Zn1B Zn 1.007565(17) -0.032054(14) 0.250672(17)
Zn1C Zn 0.492435(17) -0.532054(14) 0.249328(17)
Zn1A Zn 0.507565(17) -0.467946(14) 0.750672(17)
O6B O 1.06749(12) 0.08755(9) 0.63152(11)
O7C O 1.08823(12) -0.06702(9) 0.83444(11)
O9A O 0.92475(12) 0.08652(9) 0.87475(11)
O2 O 1.32920(13) 0.02148(10) 0.20887(13)
H1 H 1.302(2) 0.0108(17) 0.1404(15)
H2 H 1.2761(18) 0.0200(17) 0.2466(19)
O4 O 1.35267(15) -0.02162(12) 0.74943(15)
H3 H 1.312(2) -0.0157(19) 0.6813(16)
H4 H 1.316(2) -0.0019(19) 0.7968(19)
N1 N 1.08528(15) -0.25937(13) 0.45468(15)
H5 H 1.108(2) -0.2397(16) 0.3918(17)
N2 N 0.88361(16) -0.24144(14) 1.03686(16)
H6 H 0.868(2) -0.2196(17) 1.1019(17)
N3 N 0.96535(16) -0.35484(11) 0.74055(14)
H7 H 0.948(2) -0.4117(12) 0.736(2)
C1 C 1.09038(17) -0.20332(14) 0.54691(17)
H8 H 1.1205 -0.1450 0.5443
C2 C 1.05165(16) -0.23121(13) 0.64464(17)
H9 H 1.0560 -0.1924 0.7086
C3 C 1.00544(17) -0.31873(13) 0.64721(16)
C4 C 1.00210(18) -0.37530(14) 0.54907(17)
H10 H 0.9726 -0.4340 0.5488
C5 C 1.04225(19) -0.34388(15) 0.45411(17)
H11 H 1.0397 -0.3811 0.3890
C6 C 0.88637(17) -0.18674(15) 0.94460(18)
H12 H 0.8696 -0.1253 0.9493
C7 C 0.91350(16) -0.22060(13) 0.84420(17)
H13 H 0.9150 -0.1826 0.7806
C8 C 0.93904(16) -0.31290(13) 0.83803(16)
C9 C 0.93252(19) -0.36829(15) 0.93461(17)
H14 H 0.9468 -0.4302 0.9318
C10 C 0.9050(2) -0.33057(16) 1.03291(19)
H15 H 0.9011 -0.3670 1.0973
loop_
_geom_bond_atom_site_label_1
_geom_bond_atom_site_label_2
_geom_bond_site_symmetry_1
_geom_bond_site_symmetry_2
Zn1 O3 1_555 1_555
O1 C17 1_555 1_555
O2 H1 1_555 1_555
H2 O2 1_555 1_555
O3 C17 1_555 1_555
O4 H3 1_555 1_555
H4 O4 1_555 1_555
O5 C18 1_555 1_555
O6 C18 1_555 1_555
O7 C19 1_555 1_555
O8 C19 1_555 1_555
O9 C20 1_555 1_555
O10 C20 1_555 1_555
N1 H5 1_555 1_555
N2 H6 1_555 1_555
N3 H7 1_555 1_555
C1 N1 1_555 1_555
H8 C1 1_555 1_555
C2 C1 1_555 1_555
H9 C2 1_555 1_555
C3 N3 1_555 1_555
C4 C3 1_555 1_555
H10 C4 1_555 1_555
C5 N1 1_555 1_555
H11 C5 1_555 1_555
C6 N2 1_555 1_555
H12 C6 1_555 1_555
C7 C6 1_555 1_555
H13 C7 1_555 1_555
C8 N3 1_555 1_555
C9 C8 1_555 1_555
H14 C9 1_555 1_555
C10 N2 1_555 1_555
H15 C10 1_555 1_555
C11 C12 1_555 1_555
C12 C13 1_555 1_555
C13 H16 1_555 1_555
C14 C13 1_555 1_555
C15 C14 1_555 1_555
C16 C11 1_555 1_555
H17 C16 1_555 1_555
C17 C11 1_555 1_555
C18 C12 1_555 1_555
C19 C14 1_555 1_555
C20 C15 1_555 1_555
Zn1B O6 1_555 1_555
Zn1C O7 1_555 1_555
Zn1A O9 1_555 1_555
O6B Zn1 1_555 1_555
O7C Zn1 1_555 1_555
O9A Zn1 1_555 1_555
C2 C3 1_555 1_555
C4 C5 1_555 1_555
C7 C8 1_555 1_555
C9 C10 1_555 1_555
C15 C16 1_555 1_555

#END
