
#######################################################################
#
#                 Cambridge Crystallographic Data Centre
#                                CCDC 
#
#######################################################################
#
# If this CIF has been generated from an entry in the Cambridge 
# Structural Database, then it will include bibliographic, chemical, 
# crystal, experimental, refinement or atomic coordinate data resulting 
# from the CCDC's data processing and validation procedures.
#
#######################################################################

data_DITXUA
_symmetry_cell_setting           orthorhombic
_symmetry_space_group_name_H-M   'P n a 21'
_symmetry_Int_Tables_number      33
_space_group_name_Hall           'P 2c -2n'
loop_
_symmetry_equiv_pos_site_id
_symmetry_equiv_pos_as_xyz
1 x,y,z
2 1/2-x,1/2+y,1/2+z
3 1/2+x,1/2-y,z
4 -x,-y,1/2+z
_cell_length_a                   15.8279(3)
_cell_length_b                   10.5692(2)
_cell_length_c                   18.4677(5)
_cell_angle_alpha                90
_cell_angle_beta                 90
_cell_angle_gamma                90
_cell_volume                     3089.43
loop_
_atom_site_label
_atom_site_type_symbol
_atom_site_fract_x
_atom_site_fract_y
_atom_site_fract_z
Cu1 Cu 0.119060(16) 0.26518(2) 0.00101(3)
N1 N 0.22499(14) -0.0050(2) -0.09222(13)
O1 O 0.25037(14) -0.07596(19) -0.04211(14)
O2 O 0.20322(11) 0.10614(15) -0.07704(10)
O3 O 0.2239(2) -0.0428(3) -0.15457(14)
N2 N 0.01301(13) 0.5158(2) 0.09367(13)
O4 O 0.03533(12) 0.40640(16) 0.07459(11)
O5 O 0.00974(14) 0.6012(2) 0.04761(14)
O6 O -0.00684(15) 0.5364(2) 0.15762(12)
N3 N 0.19517(13) 0.23163(19) 0.08781(12)
N4 N 0.79808(12) 0.60313(18) 0.46540(11)
C1 C 0.25864(16) 0.1481(2) 0.08315(14)
H1 H 0.2672 0.1049 0.0387
C2 C 0.31223(17) 0.1224(2) 0.14046(15)
H2 H 0.3563 0.0621 0.1349
C3 C 0.30167(16) 0.1845(3) 0.20616(14)
C4 C 0.23612(19) 0.2706(3) 0.21025(17)
H3 H 0.2266 0.3160 0.2539
C5 C 0.18455(18) 0.2908(3) 0.15123(15)
H4 H 0.1394 0.3494 0.1558
C6 C 0.36186(19) 0.1625(3) 0.26817(19)
H5 H 0.3886 0.0784 0.2626
H6 H 0.3298 0.1624 0.3142
C7 C 0.42994(18) 0.2630(2) 0.27160(16)
H7 H 0.4032 0.3468 0.2784
H8 H 0.4609 0.2647 0.2250
C8 C 0.49219(18) 0.2394(2) 0.33295(17)
H9 H 0.5247 0.1616 0.3221
H10 H 0.4601 0.2243 0.3782
C9 C 0.55395(16) 0.3478(2) 0.34550(15)
H11 H 0.5835 0.3674 0.2996
H12 H 0.5223 0.4242 0.3605
C10 C 0.61834(16) 0.3150(3) 0.40312(16)
H13 H 0.5875 0.2899 0.4475
H14 H 0.6506 0.2402 0.3864
C11 C 0.68070(15) 0.4172(2) 0.42323(13)
C12 C 0.75939(16) 0.3857(2) 0.45126(15)
H15 H 0.7745 0.2992 0.4568
C13 C 0.81557(16) 0.4790(2) 0.47104(15)
H16 H 0.8692 0.4545 0.4895
C14 C 0.72209(15) 0.6339(2) 0.43887(14)
H17 H 0.7079 0.7209 0.4349
C15 C 0.66366(16) 0.5457(2) 0.41705(15)
H18 H 0.6111 0.5728 0.3976
N5 N 0.04094(11) 0.12634(18) 0.03712(11)
N6 N -0.54277(13) -0.20753(19) 0.41321(12)
C16 C 0.06778(16) 0.0062(2) 0.03819(15)
H19 H 0.1231 -0.0120 0.0212
C17 C 0.01845(16) -0.0919(2) 0.06295(15)
H20 H 0.0399 -0.1758 0.0622
C18 C -0.06225(15) -0.0693(2) 0.08901(14)
C19 C -0.08881(16) 0.0555(2) 0.08904(15)
H21 H -0.1431 0.0766 0.1073
C20 C -0.03646(15) 0.1497(2) 0.06259(14)
H22 H -0.0564 0.2344 0.0625
C21 C -0.11639(16) -0.1787(3) 0.11357(16)
H23 H -0.0786 -0.2438 0.1345
H24 H -0.1431 -0.2163 0.0701
C22 C -0.18543(16) -0.1519(2) 0.16813(15)
H25 H -0.2276 -0.0936 0.1467
H26 H -0.1609 -0.1106 0.2114
C23 C -0.22840(18) -0.2750(2) 0.19006(17)
H27 H -0.1842 -0.3373 0.2030
H28 H -0.2592 -0.3087 0.1476
C24 C -0.29018(17) -0.2645(2) 0.25324(17)
H29 H -0.2600 -0.2309 0.2961
H30 H -0.3115 -0.3499 0.2656
C25 C -0.36515(17) -0.1782(3) 0.23594(18)
H31 H -0.3451 -0.0902 0.2296
H32 H -0.3920 -0.2057 0.1901
C26 C -0.42938(16) -0.1831(3) 0.29681(16)
C27 C -0.49378(18) -0.2725(3) 0.29674(16)
H33 H -0.5002 -0.3274 0.2564
C28 C -0.54838(17) -0.2825(3) 0.35445(15)
H34 H -0.5917 -0.3446 0.3528
C29 C -0.48160(16) -0.1185(2) 0.41301(16)
H35 H -0.4773 -0.0630 0.4533
C30 C -0.42499(17) -0.1049(3) 0.35657(16)
H36 H -0.3827 -0.0412 0.3589
Cu1C Cu 0.880940(16) 0.73482(2) 0.50101(3)
Cu1A Cu -0.619060(16) -0.23482(2) 0.50101(3)
N4C N 0.20192(12) 0.39687(18) -0.03460(11)
N6A N 0.04277(13) 0.29247(19) -0.08679(12)
loop_
_geom_bond_atom_site_label_1
_geom_bond_atom_site_label_2
_geom_bond_site_symmetry_1
_geom_bond_site_symmetry_2
Cu1 O2 1_555 1_555
N1 O1 1_555 1_555
O2 N1 1_555 1_555
O3 N1 1_555 1_555
N2 O4 1_555 1_555
O4 Cu1 1_555 1_555
O5 N2 1_555 1_555
O6 N2 1_555 1_555
N3 Cu1 1_555 1_555
N4 C13 1_555 1_555
C1 N3 1_555 1_555
H1 C1 1_555 1_555
C2 C1 1_555 1_555
H2 C2 1_555 1_555
C3 C2 1_555 1_555
C4 C3 1_555 1_555
H3 C4 1_555 1_555
C5 N3 1_555 1_555
H4 C5 1_555 1_555
C6 C3 1_555 1_555
H5 C6 1_555 1_555
H6 C6 1_555 1_555
C7 C6 1_555 1_555
H7 C7 1_555 1_555
H8 C7 1_555 1_555
C8 C7 1_555 1_555
H9 C8 1_555 1_555
H10 C8 1_555 1_555
C9 C8 1_555 1_555
H11 C9 1_555 1_555
H12 C9 1_555 1_555
C10 C9 1_555 1_555
H13 C10 1_555 1_555
H14 C10 1_555 1_555
C11 C10 1_555 1_555
C12 C11 1_555 1_555
H15 C12 1_555 1_555
C13 C12 1_555 1_555
H16 C13 1_555 1_555
C14 N4 1_555 1_555
H17 C14 1_555 1_555
C15 C11 1_555 1_555
H18 C15 1_555 1_555
N5 Cu1 1_555 1_555
N6 C28 1_555 1_555
C16 N5 1_555 1_555
H19 C16 1_555 1_555
C17 C16 1_555 1_555
H20 C17 1_555 1_555
C18 C17 1_555 1_555
C19 C18 1_555 1_555
H21 C19 1_555 1_555
C20 N5 1_555 1_555
H22 C20 1_555 1_555
C21 C18 1_555 1_555
H23 C21 1_555 1_555
H24 C21 1_555 1_555
C22 C21 1_555 1_555
H25 C22 1_555 1_555
H26 C22 1_555 1_555
C23 C22 1_555 1_555
H27 C23 1_555 1_555
H28 C23 1_555 1_555
C24 C23 1_555 1_555
H29 C24 1_555 1_555
H30 C24 1_555 1_555
C25 C24 1_555 1_555
H31 C25 1_555 1_555
H32 C25 1_555 1_555
C26 C25 1_555 1_555
C27 C26 1_555 1_555
H33 C27 1_555 1_555
C28 C27 1_555 1_555
H34 C28 1_555 1_555
C29 N6 1_555 1_555
H35 C29 1_555 1_555
C30 C26 1_555 1_555
H36 C30 1_555 1_555
Cu1C N4 1_555 1_555
Cu1A N6 1_555 1_555
N4C Cu1 1_555 1_555
N6A Cu1 1_555 1_555
C4 C5 1_555 1_555
C14 C15 1_555 1_555
C19 C20 1_555 1_555
C29 C30 1_555 1_555

#END
