
#######################################################################
#
#                 Cambridge Crystallographic Data Centre
#                                CCDC 
#
#######################################################################
#
# If this CIF has been generated from an entry in the Cambridge 
# Structural Database, then it will include bibliographic, chemical, 
# crystal, experimental, refinement or atomic coordinate data resulting 
# from the CCDC's data processing and validation procedures.
#
#######################################################################

data_DITXEL
_symmetry_cell_setting           triclinic
_symmetry_space_group_name_H-M   'P -1'
_symmetry_Int_Tables_number      2
_space_group_name_Hall           '-P 1'
loop_
_symmetry_equiv_pos_site_id
_symmetry_equiv_pos_as_xyz
1 x,y,z
2 -x,-y,-z
_cell_length_a                   12.640(3)
_cell_length_b                   15.967(3)
_cell_length_c                   16.983(3)
_cell_angle_alpha                76.53(3)
_cell_angle_beta                 79.55(3)
_cell_angle_gamma                79.09(3)
_cell_volume                     3239.02
loop_
_atom_site_label
_atom_site_type_symbol
_atom_site_fract_x
_atom_site_fract_y
_atom_site_fract_z
Zn1 Zn 0.24616(4) 0.66334(3) 0.74629(3)
Zn2 Zn 0.72843(4) 0.32782(3) 0.75533(3)
Zn3 Zn 0.95448(5) 1.00819(4) 0.24501(4)
O1 O 0.0685(3) 0.7399(2) 0.7531(2)
O2 O 0.1162(3) 0.6063(2) 0.7326(2)
O3 O -0.4664(3) 0.7278(2) 0.7065(3)
O4 O -0.4221(3) 0.5908(2) 0.6904(2)
O5 O 0.8996(3) 0.2587(2) 0.7461(2)
O6 O 0.8555(3) 0.3891(2) 0.7734(2)
O7 O 1.4383(3) 0.2618(2) 0.7929(3)
O8 O 1.3964(3) 0.3991(2) 0.8077(2)
O9 O 0.8245(3) 0.9632(2) 0.2121(2)
O10 O 0.7770(3) 1.0797(2) 0.2648(3)
O11 O 0.2782(3) 0.9350(3) 0.2198(4)
O12 O 0.2303(3) 1.0519(3) 0.2735(4)
O13 O 0.3707(3) 0.5655(2) 0.7217(2)
H1 H 0.4342 0.5784 0.7162
H2 H 0.3669 0.5141 0.7491
O14 O 0.3242(3) 0.7539(2) 0.7738(2)
H3 H 0.3059 0.8088 0.7604
H4 H 0.3898 0.7431 0.7515
O15 O 0.6464(3) 0.2382(2) 0.7300(2)
H5 H 0.6719 0.1852 0.7472
H6 H 0.5786 0.2440 0.7476
O16 O 0.6026(3) 0.4248(2) 0.7772(2)
H7 H 0.6052 0.4752 0.7472
H8 H 0.5423 0.4079 0.7785
O17 O 1.0147(3) 1.0879(2) 0.3001(2)
H9 H 1.0008 1.1432 0.2889
H10 H 1.0827 1.0742 0.2863
O18 O 1.0804(3) 0.9180(2) 0.2094(3)
H11 H 1.0700 0.8653 0.2268
H12 H 1.1414 0.9292 0.2150
N1 N 0.2308(3) 0.6124(3) 0.8762(2)
N2 N 0.2292(4) 0.5402(3) 1.0012(3)
N3 N 0.6968(3) 0.2644(3) 0.8810(3)
N4 N 0.6068(4) 0.2192(3) 1.0005(3)
N5 N -0.0031(4) 0.0886(3) 1.1299(3)
N6 N 0.0872(4) 0.1677(3) 1.0293(3)
N7 N 0.2784(3) 0.7278(3) 0.6213(3)
N8 N 0.3719(4) 0.7732(3) 0.5039(3)
N9 N 0.7549(3) 0.3800(3) 0.6246(2)
N10 N 0.7650(4) 0.4558(3) 0.5001(3)
N11 N 0.9328(4) 0.9273(3) 0.3627(3)
N12 N 0.8781(4) 0.8333(4) 0.4686(3)
C1 C 0.2754(5) 0.3826(4) 1.0576(3)
C2 C 0.3829(5) 0.3417(4) 1.0650(3)
C3 C 0.4130(5) 0.2556(4) 1.0547(3)
C4 C 0.3422(5) 0.2135(4) 1.0280(3)
C5 C 0.2378(5) 0.2573(4) 1.0153(3)
C6 C 0.2025(5) 0.3410(4) 1.0342(3)
C7 C 0.4643(6) 0.3896(5) 1.0831(4)
H13 H 0.4520 0.3906 1.1404
H14 H 0.4561 0.4483 1.0518
H15 H 0.5366 0.3606 1.0688
C8 C 0.3794(7) 0.1228(5) 1.0121(5)
H16 H 0.3182 0.0920 1.0237
H17 H 0.4327 0.0924 1.0467
H18 H 0.4109 0.1261 0.9558
C9 C 0.0869(5) 0.3833(5) 1.0288(4)
H19 H 0.0653 0.4225 1.0660
H20 H 0.0405 0.3393 1.0429
H21 H 0.0810 0.4152 0.9740
C10 C 0.2381(6) 0.4726(4) 1.0755(4)
H22 H 0.1678 0.4738 1.1098
H23 H 0.2893 0.4853 1.1057
C11 C 0.1838(5) 0.6226(4) 1.0068(3)
H24 H 0.1568 0.6447 1.0538
C12 C 0.1869(6) 0.6632(4) 0.9319(4)
H25 H 0.1613 0.7224 0.9169
C13 C 0.2578(4) 0.5363(3) 0.9238(3)
H26 H 0.2926 0.4864 0.9050
C14 C 0.5236(5) 0.2072(5) 1.0732(4)
H27 H 0.5446 0.2282 1.1165
H28 H 0.5195 0.1456 1.0925
C15 C 0.7091(4) 0.1766(4) 1.0029(3)
H29 H 0.7372 0.1361 1.0459
C16 C 0.7585(5) 0.2054(4) 0.9315(4)
H30 H 0.8320 0.1868 0.9156
C17 C 0.6005(4) 0.2704(4) 0.9281(3)
H31 H 0.5376 0.3060 0.9121
C18 C 0.1670(6) 0.2187(5) 0.9736(4)
H32 H 0.1279 0.2659 0.9375
H33 H 0.2142 0.1813 0.9398
C19 C 0.0031(5) 0.1526(5) 1.0000(4)
H34 H -0.0155 0.1712 0.9475
C20 C -0.0462(6) 0.1049(6) 1.0642(5)
H35 H -0.1093 0.0839 1.0624
C21 C 0.0817(6) 0.1300(5) 1.1054(4)
H36 H 0.1315 0.1317 1.1389
C22 C 0.5677(4) 0.7369(4) 0.4504(3)
C23 C 0.6022(4) 0.6519(4) 0.4365(3)
C24 C 0.7102(4) 0.6126(3) 0.4448(3)
C25 C 0.7803(4) 0.6554(4) 0.4705(3)
C26 C 0.7402(5) 0.7368(4) 0.4924(3)
C27 C 0.6341(5) 0.7775(4) 0.4813(3)
C28 C 0.5244(5) 0.6046(4) 0.4139(4)
H37 H 0.4511 0.6288 0.4324
H38 H 0.5376 0.5439 0.4393
H39 H 0.5344 0.6107 0.3555
C29 C 0.8970(5) 0.6158(4) 0.4738(4)
H40 H 0.9035 0.5765 0.5255
H41 H 0.9401 0.6610 0.4674
H42 H 0.9223 0.5843 0.4305
C30 C 0.5914(6) 0.8658(4) 0.5028(5)
H43 H 0.5467 0.9003 0.4633
H44 H 0.6515 0.8948 0.5026
H45 H 0.5490 0.8583 0.5562
C31 C 0.4561(5) 0.7840(4) 0.4324(3)
H46 H 0.4598 0.8457 0.4125
H47 H 0.4359 0.7623 0.3893
C32 C 0.2726(5) 0.8215(4) 0.5030(3)
H48 H 0.2474 0.8657 0.4613
C33 C 0.2208(5) 0.7921(5) 0.5734(4)
H49 H 0.1486 0.8139 0.5898
C34 C 0.3736(4) 0.7187(4) 0.5749(3)
H50 H 0.4340 0.6791 0.5903
C35 C 0.7511(5) 0.5231(4) 0.4261(3)
H51 H 0.6999 0.5085 0.3972
H52 H 0.8202 0.5241 0.3904
C36 C 0.8263(4) 0.3777(3) 0.4944(3)
H53 H 0.8653 0.3593 0.4479
C37 C 0.8175(5) 0.3350(4) 0.5694(4)
H54 H 0.8514 0.2778 0.5845
C38 C 0.7227(4) 0.4560(3) 0.5771(3)
H55 H 0.6770 0.5027 0.5954
C39 C 0.8111(5) 0.7775(4) 0.5301(4)
H56 H 0.7655 0.8119 0.5673
H57 H 0.8581 0.7319 0.5617
C40 C 0.9712(5) 0.8494(4) 0.4840(4)
H58 H 1.0052 0.8268 0.5303
C41 C 1.0026(5) 0.9041(4) 0.4186(4)
H59 H 1.0680 0.9257 0.4107
C42 C 0.8586(5) 0.8792(4) 0.3961(4)
H60 H 0.7988 0.8773 0.3721
C43 C 0.0453(4) 0.6725(3) 0.7395(3)
C44 C -0.0707(3) 0.6683(3) 0.7306(3)
C45 C -0.1540(4) 0.7336(3) 0.7494(3)
H61 H -0.1390 0.7797 0.7683
C46 C -0.2599(4) 0.7305(3) 0.7400(3)
H62 H -0.3152 0.7752 0.7519
C47 C -0.2840(3) 0.6617(3) 0.7132(3)
C48 C -0.2006(4) 0.5953(3) 0.6967(3)
H63 H -0.2161 0.5479 0.6802
C49 C -0.0939(4) 0.5990(3) 0.7047(3)
H64 H -0.0383 0.5547 0.6925
C50 C -0.3999(4) 0.6606(3) 0.7027(3)
C51 C 0.9262(4) 0.3244(3) 0.7636(3)
C52 C 1.0418(4) 0.3251(3) 0.7708(3)
C53 C 1.1228(4) 0.2569(3) 0.7554(3)
H65 H 1.1055 0.2093 0.7404
C54 C 1.2298(4) 0.2595(3) 0.7623(3)
H66 H 1.2839 0.2136 0.7516
C55 C 1.2568(3) 0.3298(3) 0.7849(3)
C56 C 1.1757(4) 0.3985(3) 0.7989(3)
H67 H 1.1933 0.4466 0.8128
C57 C 1.0686(3) 0.3962(3) 0.7924(3)
H68 H 1.0146 0.4424 0.8026
C58 C 1.3734(4) 0.3300(3) 0.7951(3)
C59 C 0.7521(4) 1.0197(3) 0.2383(3)
C60 C 0.6349(4) 1.0137(3) 0.2406(3)
C61 C 0.5544(4) 1.0579(3) 0.2895(3)
H69 H 0.5727 1.0920 0.3210
C62 C 0.4464(4) 1.0510(3) 0.2909(4)
H70 H 0.3925 1.0811 0.3234
C63 C 0.4173(4) 1.0008(3) 0.2455(3)
C64 C 0.4987(4) 0.9547(3) 0.1982(4)
H71 H 0.4807 0.9188 0.1684
C65 C 0.6060(4) 0.9623(3) 0.1956(4)
H72 H 0.6599 0.9323 0.1629
C66 C 0.2988(4) 0.9958(3) 0.2466(4)
Zn3_2 Zn -0.04552(5) 0.00819(4) 1.24501(4)
N5_2 N 0.9969(4) 1.0886(3) 0.1299(3)
O19 O 0.7679(10) 0.9872(7) 0.5515(7)
H73 H 0.7797 0.9493 0.5945
H74 H 0.8138 0.9790 0.5097
loop_
_geom_bond_atom_site_label_1
_geom_bond_atom_site_label_2
_geom_bond_site_symmetry_1
_geom_bond_site_symmetry_2
Zn1 O1 1_555 1_555
Zn2 O5 1_555 1_555
Zn3 O9 1_555 1_555
O1 C43 1_555 1_555
O2 Zn1 1_555 1_555
O3 C50 1_555 1_555
O4 C50 1_555 1_555
O5 C51 1_555 1_555
O6 Zn2 1_555 1_555
O7 C58 1_555 1_555
O8 C58 1_555 1_555
O9 C59 1_555 1_555
O10 Zn3 1_555 1_555
O11 C66 1_555 1_555
O12 C66 1_555 1_555
O13 Zn1 1_555 1_555
H1 O13 1_555 1_555
H2 O13 1_555 1_555
O14 Zn1 1_555 1_555
H3 O14 1_555 1_555
H4 O14 1_555 1_555
O15 Zn2 1_555 1_555
H5 O15 1_555 1_555
H6 O15 1_555 1_555
O16 Zn2 1_555 1_555
H7 O16 1_555 1_555
H8 O16 1_555 1_555
O17 Zn3 1_555 1_555
H9 O17 1_555 1_555
H10 O17 1_555 1_555
O18 Zn3 1_555 1_555
H11 O18 1_555 1_555
H12 O18 1_555 1_555
N1 Zn1 1_555 1_555
N2 C10 1_555 1_555
N3 Zn2 1_555 1_555
N4 C14 1_555 1_555
N5 C20 1_555 1_555
N6 C18 1_555 1_555
N7 Zn1 1_555 1_555
N8 C31 1_555 1_555
N9 Zn2 1_555 1_555
N10 C35 1_555 1_555
N11 Zn3 1_555 1_555
N12 C39 1_555 1_555
C1 C2 1_555 1_555
C2 C3 1_555 1_555
C3 C4 1_555 1_555
C4 C5 1_555 1_555
C5 C6 1_555 1_555
C6 C1 1_555 1_555
C7 C2 1_555 1_555
H13 C7 1_555 1_555
H14 C7 1_555 1_555
H15 C7 1_555 1_555
C8 C4 1_555 1_555
H16 C8 1_555 1_555
H17 C8 1_555 1_555
H18 C8 1_555 1_555
C9 C6 1_555 1_555
H19 C9 1_555 1_555
H20 C9 1_555 1_555
H21 C9 1_555 1_555
C10 C1 1_555 1_555
H22 C10 1_555 1_555
H23 C10 1_555 1_555
C11 N2 1_555 1_555
H24 C11 1_555 1_555
C12 N1 1_555 1_555
H25 C12 1_555 1_555
C13 N1 1_555 1_555
H26 C13 1_555 1_555
C14 C3 1_555 1_555
H27 C14 1_555 1_555
H28 C14 1_555 1_555
C15 N4 1_555 1_555
H29 C15 1_555 1_555
C16 N3 1_555 1_555
H30 C16 1_555 1_555
C17 N3 1_555 1_555
H31 C17 1_555 1_555
C18 C5 1_555 1_555
H32 C18 1_555 1_555
H33 C18 1_555 1_555
C19 N6 1_555 1_555
H34 C19 1_555 1_555
C20 C19 1_555 1_555
H35 C20 1_555 1_555
C21 N5 1_555 1_555
H36 C21 1_555 1_555
C22 C23 1_555 1_555
C23 C24 1_555 1_555
C24 C25 1_555 1_555
C25 C26 1_555 1_555
C26 C27 1_555 1_555
C27 C22 1_555 1_555
C28 C23 1_555 1_555
H37 C28 1_555 1_555
H38 C28 1_555 1_555
H39 C28 1_555 1_555
C29 C25 1_555 1_555
H40 C29 1_555 1_555
H41 C29 1_555 1_555
H42 C29 1_555 1_555
C30 C27 1_555 1_555
H43 C30 1_555 1_555
H44 C30 1_555 1_555
H45 C30 1_555 1_555
C31 C22 1_555 1_555
H46 C31 1_555 1_555
H47 C31 1_555 1_555
C32 N8 1_555 1_555
H48 C32 1_555 1_555
C33 N7 1_555 1_555
H49 C33 1_555 1_555
C34 N7 1_555 1_555
H50 C34 1_555 1_555
C35 C24 1_555 1_555
H51 C35 1_555 1_555
H52 C35 1_555 1_555
C36 N10 1_555 1_555
H53 C36 1_555 1_555
C37 N9 1_555 1_555
H54 C37 1_555 1_555
C38 N9 1_555 1_555
H55 C38 1_555 1_555
C39 C26 1_555 1_555
H56 C39 1_555 1_555
H57 C39 1_555 1_555
C40 N12 1_555 1_555
H58 C40 1_555 1_555
C41 N11 1_555 1_555
H59 C41 1_555 1_555
C42 N11 1_555 1_555
H60 C42 1_555 1_555
C43 O2 1_555 1_555
C44 C43 1_555 1_555
C45 C44 1_555 1_555
H61 C45 1_555 1_555
C46 C45 1_555 1_555
H62 C46 1_555 1_555
C47 C46 1_555 1_555
C48 C47 1_555 1_555
H63 C48 1_555 1_555
C49 C44 1_555 1_555
H64 C49 1_555 1_555
C50 C47 1_555 1_555
C51 O6 1_555 1_555
C52 C51 1_555 1_555
C53 C52 1_555 1_555
H65 C53 1_555 1_555
C54 C53 1_555 1_555
H66 C54 1_555 1_555
C55 C54 1_555 1_555
C56 C55 1_555 1_555
H67 C56 1_555 1_555
C57 C52 1_555 1_555
H68 C57 1_555 1_555
C58 C55 1_555 1_555
C59 O10 1_555 1_555
C60 C59 1_555 1_555
C61 C60 1_555 1_555
H69 C61 1_555 1_555
C62 C61 1_555 1_555
H70 C62 1_555 1_555
C63 C62 1_555 1_555
C64 C63 1_555 1_555
H71 C64 1_555 1_555
C65 C60 1_555 1_555
H72 C65 1_555 1_555
C66 C63 1_555 1_555
O19 H73 1_555 1_555
H74 O19 1_555 1_555
Zn3_2 N5 1_555 1_555
N5_2 Zn3 1_555 1_555
N2 C13 1_555 1_555
N4 C17 1_555 1_555
N6 C21 1_555 1_555
N8 C34 1_555 1_555
N10 C38 1_555 1_555
N12 C42 1_555 1_555
C11 C12 1_555 1_555
C15 C16 1_555 1_555
C32 C33 1_555 1_555
C36 C37 1_555 1_555
C40 C41 1_555 1_555
C48 C49 1_555 1_555
C56 C57 1_555 1_555
C64 C65 1_555 1_555

#END
