
#######################################################################
#
#                 Cambridge Crystallographic Data Centre
#                                CCDC 
#
#######################################################################
#
# If this CIF has been generated from an entry in the Cambridge 
# Structural Database, then it will include bibliographic, chemical, 
# crystal, experimental, refinement or atomic coordinate data resulting 
# from the CCDC's data processing and validation procedures.
#
#######################################################################

data_DITYIP
_symmetry_cell_setting           monoclinic
_symmetry_space_group_name_H-M   'P 21'
_symmetry_Int_Tables_number      4
_space_group_name_Hall           'P 2yb'
loop_
_symmetry_equiv_pos_site_id
_symmetry_equiv_pos_as_xyz
1 x,y,z
2 -x,1/2+y,-z
_cell_length_a                   10.1288(6)
_cell_length_b                   21.0031(14)
_cell_length_c                   16.3702(10)
_cell_angle_alpha                90
_cell_angle_beta                 90.961(2)
_cell_angle_gamma                90
_cell_volume                     3482.04
loop_
_atom_site_label
_atom_site_type_symbol
_atom_site_fract_x
_atom_site_fract_y
_atom_site_fract_z
Cu1 Cu 0.74272(17) 0.56176(8) 0.87743(11)
Cu2 Cu 0.21591(16) 1.12568(8) 1.62047(12)
N1 N 0.4872(13) 0.5112(6) 0.9765(9)
O1 O 0.4178(13) 0.4692(6) 0.9480(8)
O2 O 0.4343(11) 0.5418(5) 1.0372(8)
O3 O 0.5999(9) 0.5162(4) 0.9659(7)
N2 N -0.0122(6) 1.0863(3) 1.4732(4)
O4 O 0.0461(8) 1.0713(4) 1.5378(5)
O5 O 0.0159(8) 1.0605(5) 1.4089(5)
O6 O -0.0956(10) 1.1297(5) 1.4757(7)
N3 N 0.4518(8) 1.2113(3) 1.7384(4)
O7 O 0.5497(10) 1.1798(6) 1.7180(9)
O8 O 0.4655(10) 1.2604(4) 1.7777(6)
O9 O 0.3403(9) 1.1901(4) 1.7205(6)
N5 N 0.7645(8) 0.6409(2) 0.9469(4)
C1 C 0.8440(9) 0.6895(3) 0.9178(4)
H1 H 0.8923 0.6835 0.8692
C2 C 0.8529(8) 0.7469(3) 0.9598(4)
H2 H 0.9073 0.7801 0.9399
C3 C 0.7823(7) 0.7557(2) 1.0310(3)
C4 C 0.7027(8) 0.7071(3) 1.0602(4)
H3 H 0.6544 0.7131 1.1088
C5 C 0.6938(8) 0.6497(3) 1.0181(5)
H4 H 0.6394 0.6165 1.0380
C6 C 0.7774(11) 0.8198(3) 1.0750(5)
H5 H 0.8058 0.8539 1.0375
H6 H 0.6856 0.8289 1.0913
C7 C 0.8660(13) 0.8192(4) 1.1495(6)
H7 H 0.9554 0.8055 1.1334
H8 H 0.8322 0.7874 1.1886
C8 C 0.8763(11) 0.8833(5) 1.1920(8)
H9 H 0.9428 0.8799 1.2369
H10 H 0.9090 0.9150 1.1525
C9 C 0.7487(11) 0.9076(4) 1.2271(7)
H11 H 0.6859 0.9165 1.1815
H12 H 0.7098 0.8736 1.2611
C10 C 0.7642(11) 0.9668(4) 1.2782(7)
H13 H 0.7878 1.0025 1.2418
H14 H 0.8391 0.9604 1.3170
C11 C 0.6445(11) 0.9860(5) 1.3263(7)
H15 H 0.5732 0.9989 1.2877
H16 H 0.6129 0.9487 1.3572
N6 N 0.3547(6) 1.1034(4) 1.5367(5)
C12 C 0.4767(7) 1.1337(4) 1.5399(5)
H17 H 0.4912 1.1681 1.5767
C13 C 0.5775(6) 1.1136(4) 1.4894(5)
H18 H 0.6609 1.1343 1.4917
C14 C 0.5563(6) 1.0633(4) 1.4357(5)
C15 C 0.4343(7) 1.0330(4) 1.4325(5)
H19 H 0.4198 0.9986 1.3957
C16 C 0.3335(6) 1.0531(4) 1.4830(5)
H20 H 0.2501 1.0324 1.4807
C17 C 0.6707(9) 1.0399(5) 1.3852(7)
H21 H 0.7046 1.0764 1.3537
H22 H 0.7422 1.0263 1.4234
N7 N 0.8881(7) 0.5190(4) 0.9410(5)
C18 C 0.8586(7) 0.4682(4) 0.9920(6)
H23 H 0.7712 0.4519 0.9933
C19 C 0.9570(9) 0.4414(4) 1.0412(5)
H24 H 0.9369 0.4067 1.0761
C20 C 1.0849(8) 0.4653(4) 1.0393(5)
C21 C 1.1144(7) 0.5161(4) 0.9882(6)
H25 H 1.2018 0.5324 0.9869
C22 C 1.0160(8) 0.5429(4) 0.9391(5)
H26 H 1.0361 0.5776 0.9042
C23 C 1.1855(11) 0.4405(5) 1.1015(6)
H27 H 1.1662 0.3954 1.1143
H28 H 1.2752 0.4428 1.0786
C24 C 1.1798(16) 0.4796(6) 1.1779(6)
H29 H 1.0868 0.4825 1.1952
H30 H 1.2104 0.5233 1.1656
C25 C 1.2623(15) 0.4532(6) 1.2478(6)
H31 H 1.3564 0.4522 1.2324
H32 H 1.2342 0.4092 1.2600
C26 C 1.2457(19) 0.4948(6) 1.3227(7)
H33 H 1.2667 0.5394 1.3079
H34 H 1.1520 0.4935 1.3388
C27 C 1.3300(17) 0.4761(6) 1.3949(8)
H35 H 1.3177 0.5075 1.4392
H36 H 1.4240 0.4774 1.3792
C28 C 1.2989(16) 0.4106(6) 1.4269(11)
H37 H 1.3562 0.4032 1.4756
H38 H 1.3254 0.3795 1.3849
N8 N 1.1790(8) 0.2109(3) 1.5637(5)
C29 C 1.1647(9) 0.2159(3) 1.4794(5)
H39 H 1.1661 0.1787 1.4464
C30 C 1.1485(11) 0.2754(4) 1.4433(4)
H40 H 1.1388 0.2788 1.3857
C31 C 1.1464(10) 0.3298(3) 1.4916(5)
C32 C 1.1606(10) 0.3247(3) 1.5760(5)
H41 H 1.1592 0.3619 1.6090
C33 C 1.1769(9) 0.2653(4) 1.6120(4)
H42 H 1.1866 0.2618 1.6697
C34 C 1.1592(16) 0.3952(5) 1.4504(10)
H43 H 1.1021 0.3961 1.4007
H44 H 1.1273 0.4284 1.4881
N9 N 0.6165(10) 0.6124(4) 0.8088(6)
C35 C 0.4837(11) 0.6084(4) 0.8282(5)
H45 H 0.4561 0.5806 0.8703
C36 C 0.3912(9) 0.6452(5) 0.7859(6)
H46 H 0.3004 0.6425 0.7991
C37 C 0.4315(10) 0.6860(4) 0.7242(6)
C38 C 0.5643(11) 0.6900(5) 0.7049(6)
H47 H 0.5919 0.7178 0.6627
C39 C 0.6568(9) 0.6532(5) 0.7471(7)
H48 H 0.7476 0.6559 0.7339
C40 C 0.3234(12) 0.7198(6) 0.6755(9)
H49 H 0.2779 0.6886 0.6395
H50 H 0.2575 0.7371 0.7136
C41 C 0.3758(13) 0.7731(6) 0.6242(10)
H51 H 0.4325 0.7553 0.5811
H52 H 0.4309 0.8016 0.6589
C42 C 0.2645(13) 0.8114(6) 0.5847(9)
H53 H 0.2067 0.7822 0.5528
H54 H 0.2107 0.8307 0.6281
C43 C 0.3125(17) 0.8629(5) 0.5294(9)
H55 H 0.3652 0.8932 0.5629
H56 H 0.2345 0.8863 0.5080
C44 C 0.3941(14) 0.8432(7) 0.4582(8)
H57 H 0.4753 0.8226 0.4798
H58 H 0.4216 0.8823 0.4292
C45 C 0.3315(15) 0.7991(6) 0.3966(9)
H59 H 0.3097 0.7587 0.4245
H60 H 0.3976 0.7891 0.3545
N10 N 0.2613(9) 0.9881(3) 0.2014(5)
C46 C 0.1767(9) 0.9904(3) 0.2673(5)
H61 H 0.1293 1.0283 0.2785
C47 C 0.1617(9) 0.9373(4) 0.3169(5)
H62 H 0.1039 0.9389 0.3619
C48 C 0.2312(10) 0.8818(3) 0.3005(5)
C49 C 0.3157(9) 0.8794(3) 0.2345(6)
H63 H 0.3632 0.8415 0.2233
C50 C 0.3308(9) 0.9326(3) 0.1850(5)
H64 H 0.3886 0.9310 0.1399
C51 C 0.2082(12) 0.8235(5) 0.3540(8)
H65 H 0.1423 0.8344 0.3957
H66 H 0.1704 0.7890 0.3196
N11 N 0.2616(10) 1.0473(3) 1.6804(5)
C52 C 0.3740(9) 1.0440(3) 1.7301(6)
H67 H 0.4375 1.0773 1.7290
C53 C 0.3934(9) 0.9921(5) 1.7815(6)
H68 H 0.4702 0.9898 1.8155
C54 C 0.3005(11) 0.9434(4) 1.7832(7)
C55 C 0.1882(8) 0.9467(3) 1.7335(6)
H69 H 0.1247 0.9134 1.7346
C56 C 0.1687(8) 0.9986(4) 1.6820(5)
H70 H 0.0919 1.0009 1.6480
C57 C 0.3161(16) 0.8827(6) 1.8321(11)
H71 H 0.2458 0.8818 1.8734
H72 H 0.3003 0.8464 1.7947
C58 C 0.4449(14) 0.8722(7) 1.8751(11)
H73 H 0.4588 0.9066 1.9156
H74 H 0.5164 0.8752 1.8348
C59 C 0.4561(14) 0.8086(6) 1.9187(10)
H75 H 0.4565 0.7740 1.8777
H76 H 0.5409 0.8070 1.9496
C60 C 0.3441(17) 0.7978(6) 1.9767(10)
H77 H 0.3431 0.8335 2.0162
H78 H 0.2601 0.7994 1.9450
C61 C 0.3475(15) 0.7367(6) 2.0239(10)
H79 H 0.4311 0.7352 2.0561
H80 H 0.3492 0.7010 1.9845
C62 C 0.2346(15) 0.7262(5) 2.0812(9)
H81 H 0.1505 0.7296 2.0498
H82 H 0.2357 0.7604 2.1228
N12 N -0.0726(7) 0.6415(3) 2.2975(5)
C63 C -0.0988(6) 0.6353(3) 2.2142(5)
H83 H -0.1861 0.6266 2.1952
C64 C 0.0026(8) 0.6421(4) 2.1587(4)
H84 H -0.0153 0.6379 2.1018
C65 C 0.1303(7) 0.6549(4) 2.1865(5)
C66 C 0.1565(6) 0.6611(3) 2.2698(6)
H85 H 0.2437 0.6698 2.2887
C67 C 0.0550(8) 0.6543(3) 2.3252(4)
H86 H 0.0729 0.6585 2.3821
C68 C 0.2382(11) 0.6625(5) 2.1242(8)
H87 H 0.3251 0.6574 2.1521
H88 H 0.2294 0.6282 2.0830
Cu1A Cu 0.25728(17) 1.06176(8) 0.12257(11)
Cu2_2 Cu 1.21591(16) 0.12568(8) 1.62047(12)
Cu2A Cu -0.21591(16) 0.62568(8) 2.37953(12)
N8_2 N 0.1790(8) 1.2109(3) 1.5637(5)
N10A N 0.7387(9) 0.4881(3) 0.7986(5)
N12A N 0.0726(7) 1.1415(3) 1.7025(5)
N4 N 0.9957(9) 0.7890(4) 0.7681(5)
O10 O 0.9676(15) 0.8414(5) 0.7406(9)
O11 O 0.9449(15) 0.7402(5) 0.7382(8)
O12 O 1.0792(13) 0.7825(7) 0.8240(8)
O16 O 1.0146(18) 0.6193(6) 0.7556(7)
O13? O 1.068(2) 0.7855(15) 0.7067(12)
O14? O 0.8739(12) 0.7811(19) 0.7553(17)
O15? O 1.030(3) 0.8280(17) 0.8223(15)
loop_
_geom_bond_atom_site_label_1
_geom_bond_atom_site_label_2
_geom_bond_site_symmetry_1
_geom_bond_site_symmetry_2
Cu1 O3 1_555 1_555
Cu2 O4 1_555 1_555
N1 O1 1_555 1_555
O2 N1 1_555 1_555
O3 N1 1_555 1_555
N2 O4 1_555 1_555
O5 N2 1_555 1_555
O6 N2 1_555 1_555
N3 O7 1_555 1_555
O8 N3 1_555 1_555
O9 Cu2 1_555 1_555
N4 O10 1_555 1_555
O11 N4 1_555 1_555
O12 N4 1_555 1_555
N5 Cu1 1_555 1_555
C1 N5 1_555 1_555
H1 C1 1_555 1_555
C2 C1 1_555 1_555
H2 C2 1_555 1_555
C3 C2 1_555 1_555
C4 C3 1_555 1_555
H3 C4 1_555 1_555
C5 N5 1_555 1_555
H4 C5 1_555 1_555
C6 C3 1_555 1_555
H5 C6 1_555 1_555
H6 C6 1_555 1_555
C7 C6 1_555 1_555
H7 C7 1_555 1_555
H8 C7 1_555 1_555
C8 C7 1_555 1_555
H9 C8 1_555 1_555
H10 C8 1_555 1_555
C9 C8 1_555 1_555
H11 C9 1_555 1_555
H12 C9 1_555 1_555
C10 C9 1_555 1_555
H13 C10 1_555 1_555
H14 C10 1_555 1_555
C11 C10 1_555 1_555
H15 C11 1_555 1_555
H16 C11 1_555 1_555
N6 Cu2 1_555 1_555
C12 N6 1_555 1_555
H17 C12 1_555 1_555
C13 C12 1_555 1_555
H18 C13 1_555 1_555
C14 C13 1_555 1_555
C15 C14 1_555 1_555
H19 C15 1_555 1_555
C16 N6 1_555 1_555
H20 C16 1_555 1_555
C17 C11 1_555 1_555
H21 C17 1_555 1_555
H22 C17 1_555 1_555
N7 Cu1 1_555 1_555
C18 N7 1_555 1_555
H23 C18 1_555 1_555
C19 C18 1_555 1_555
H24 C19 1_555 1_555
C20 C19 1_555 1_555
C21 C20 1_555 1_555
H25 C21 1_555 1_555
C22 N7 1_555 1_555
H26 C22 1_555 1_555
C23 C20 1_555 1_555
H27 C23 1_555 1_555
H28 C23 1_555 1_555
C24 C23 1_555 1_555
H29 C24 1_555 1_555
H30 C24 1_555 1_555
C25 C24 1_555 1_555
H31 C25 1_555 1_555
H32 C25 1_555 1_555
C26 C25 1_555 1_555
H33 C26 1_555 1_555
H34 C26 1_555 1_555
C27 C26 1_555 1_555
H35 C27 1_555 1_555
H36 C27 1_555 1_555
C28 C27 1_555 1_555
H37 C28 1_555 1_555
H38 C28 1_555 1_555
N8 C29 1_555 1_555
C29 H39 1_555 1_555
C30 C29 1_555 1_555
H40 C30 1_555 1_555
C31 C30 1_555 1_555
C32 C31 1_555 1_555
H41 C32 1_555 1_555
C33 N8 1_555 1_555
H42 C33 1_555 1_555
C34 C28 1_555 1_555
H43 C34 1_555 1_555
H44 C34 1_555 1_555
N9 Cu1 1_555 1_555
C35 N9 1_555 1_555
H45 C35 1_555 1_555
C36 C35 1_555 1_555
H46 C36 1_555 1_555
C37 C36 1_555 1_555
C38 C37 1_555 1_555
H47 C38 1_555 1_555
C39 N9 1_555 1_555
H48 C39 1_555 1_555
C40 C37 1_555 1_555
H49 C40 1_555 1_555
H50 C40 1_555 1_555
C41 C40 1_555 1_555
H51 C41 1_555 1_555
H52 C41 1_555 1_555
C42 C41 1_555 1_555
H53 C42 1_555 1_555
H54 C42 1_555 1_555
C43 C42 1_555 1_555
H55 C43 1_555 1_555
H56 C43 1_555 1_555
C44 C43 1_555 1_555
H57 C44 1_555 1_555
H58 C44 1_555 1_555
C45 C44 1_555 1_555
H59 C45 1_555 1_555
H60 C45 1_555 1_555
N10 C46 1_555 1_555
C46 H61 1_555 1_555
C47 C46 1_555 1_555
H62 C47 1_555 1_555
C48 C47 1_555 1_555
C49 C48 1_555 1_555
H63 C49 1_555 1_555
C50 N10 1_555 1_555
H64 C50 1_555 1_555
C51 C45 1_555 1_555
H65 C51 1_555 1_555
H66 C51 1_555 1_555
N11 Cu2 1_555 1_555
C52 N11 1_555 1_555
H67 C52 1_555 1_555
C53 C52 1_555 1_555
H68 C53 1_555 1_555
C54 C53 1_555 1_555
C55 C54 1_555 1_555
H69 C55 1_555 1_555
C56 N11 1_555 1_555
H70 C56 1_555 1_555
C57 C54 1_555 1_555
H71 C57 1_555 1_555
H72 C57 1_555 1_555
C58 C57 1_555 1_555
H73 C58 1_555 1_555
H74 C58 1_555 1_555
C59 C58 1_555 1_555
H75 C59 1_555 1_555
H76 C59 1_555 1_555
C60 C59 1_555 1_555
H77 C60 1_555 1_555
H78 C60 1_555 1_555
C61 C60 1_555 1_555
H79 C61 1_555 1_555
H80 C61 1_555 1_555
C62 C61 1_555 1_555
H81 C62 1_555 1_555
H82 C62 1_555 1_555
N12 C63 1_555 1_555
C63 H83 1_555 1_555
C64 C63 1_555 1_555
H84 C64 1_555 1_555
C65 C64 1_555 1_555
C66 C65 1_555 1_555
H85 C66 1_555 1_555
C67 N12 1_555 1_555
H86 C67 1_555 1_555
C68 C62 1_555 1_555
H87 C68 1_555 1_555
H88 C68 1_555 1_555
Cu1A N10 1_555 1_555
Cu2_2 N8 1_555 1_555
Cu2A N12 1_555 1_555
N8_2 Cu2 1_555 1_555
N10A Cu1 1_555 1_555
N12A Cu2 1_555 1_555
N3 O9 1_555 1_555
C4 C5 1_555 1_555
C14 C17 1_555 1_555
C15 C16 1_555 1_555
C21 C22 1_555 1_555
C31 C34 1_555 1_555
C32 C33 1_555 1_555
C38 C39 1_555 1_555
C48 C51 1_555 1_555
C49 C50 1_555 1_555
C55 C56 1_555 1_555
C65 C68 1_555 1_555
C66 C67 1_555 1_555

#END
