
#######################################################################
#
#                 Cambridge Crystallographic Data Centre
#                                CCDC 
#
#######################################################################
#
# If this CIF has been generated from an entry in the Cambridge 
# Structural Database, then it will include bibliographic, chemical, 
# crystal, experimental, refinement or atomic coordinate data resulting 
# from the CCDC's data processing and validation procedures.
#
#######################################################################

data_DITYUC
_symmetry_cell_setting           triclinic
_symmetry_space_group_name_H-M   'P -1'
_symmetry_Int_Tables_number      2
_space_group_name_Hall           '-P 1'
loop_
_symmetry_equiv_pos_site_id
_symmetry_equiv_pos_as_xyz
1 x,y,z
2 -x,-y,-z
_cell_length_a                   6.537(2)
_cell_length_b                   9.314(3)
_cell_length_c                   11.282(4)
_cell_angle_alpha                108.282(3)
_cell_angle_beta                 99.043(4)
_cell_angle_gamma                98.410(2)
_cell_volume                     629.969
loop_
_atom_site_label
_atom_site_type_symbol
_atom_site_fract_x
_atom_site_fract_y
_atom_site_fract_z
Cu1 Cu -0.12412(5) 0.29713(3) 0.39978(3)
Cl1 Cl -0.22442(10) 0.46548(7) 0.56673(6)
O1 O -0.0286(3) 0.1619(2) 0.24800(18)
H1 H 0.034(4) 0.094(3) 0.261(3)
H2 H -0.133(3) 0.110(3) 0.190(2)
O2 O -0.8073(4) 0.1369(3) -0.0314(2)
O3 O -1.0703(3) 0.2570(3) -0.0683(2)
H3 H -1.1273 0.1722 -0.1219
O4 O 0.4143(3) -0.0972(2) 0.61690(18)
O5 O 0.7190(3) 0.0081(2) 0.75952(19)
N1 N -0.5723(3) 0.3985(2) 0.15699(19)
N2 N -0.3949(4) 0.4718(3) 0.1369(2)
N3 N -0.2372(4) 0.4472(3) 0.2065(2)
N4 N -0.3096(3) 0.3578(3) 0.27161(19)
N5 N 0.3127(3) 0.1859(2) 0.6417(2)
N6 N 0.1318(4) 0.1428(3) 0.6760(2)
N7 N -0.0189(3) 0.1679(3) 0.6027(2)
N8 N 0.0616(3) 0.2280(2) 0.51999(19)
C1 C -0.5166(4) 0.3308(3) 0.2407(2)
H4 H -0.6089 0.2738 0.2722
C2 C -0.7824(4) 0.4025(3) 0.0932(2)
H5 H -0.7704 0.4820 0.0545
H6 H -0.8693 0.4289 0.1558
C3 C -0.8880(4) 0.2491(4) -0.0084(3)
C4 C 0.2667(4) 0.2376(3) 0.5460(2)
H7 H 0.3632 0.2743 0.5045
C5 C 0.5175(4) 0.1782(3) 0.7100(3)
H8 H 0.5332 0.2341 0.8005
H9 H 0.6287 0.2299 0.6808
C6 C 0.5472(4) 0.0142(3) 0.6925(2)
Cu1A Cu 0.12412(5) -0.29713(3) 0.60022(3)
Cu1A_2 Cu 0.12412(5) 0.70287(3) 0.60022(3)
Cl1A Cl 0.22442(10) 0.53452(7) 0.43327(6)
O4A O -0.4143(3) 0.0972(2) 0.38310(18)
O6 O -0.6016(11) -0.0665(11) -0.0504(6)
loop_
_geom_bond_atom_site_label_1
_geom_bond_atom_site_label_2
_geom_bond_site_symmetry_1
_geom_bond_site_symmetry_2
Cu1 Cl1 1_555 1_555
Cl1 Cu1A_2 1_555 1_555
O1 Cu1 1_555 1_555
H1 O1 1_555 1_555
H2 O1 1_555 1_555
O2 C3 1_555 1_555
O3 H3 1_555 1_555
O4 C6 1_555 1_555
O5 C6 1_555 1_555
N1 N2 1_555 1_555
N2 N3 1_555 1_555
N3 N4 1_555 1_555
N4 Cu1 1_555 1_555
N5 N6 1_555 1_555
N6 N7 1_555 1_555
N7 N8 1_555 1_555
N8 Cu1 1_555 1_555
C1 N1 1_555 1_555
H4 C1 1_555 1_555
C2 N1 1_555 1_555
H5 C2 1_555 1_555
H6 C2 1_555 1_555
C3 O3 1_555 1_555
C4 N5 1_555 1_555
H7 C4 1_555 1_555
C5 N5 1_555 1_555
H8 C5 1_555 1_555
H9 C5 1_555 1_555
C6 C5 1_555 1_555
Cu1A O4 1_555 1_555
Cu1A_2 Cl1A 1_555 1_555
Cl1A Cu1 1_555 1_555
O4A Cu1 1_555 1_555
N4 C1 1_555 1_555
N8 C4 1_555 1_555
C2 C3 1_555 1_555

#END
