
#######################################################################
#
#                 Cambridge Crystallographic Data Centre
#                                CCDC 
#
#######################################################################
#
# If this CIF has been generated from an entry in the Cambridge 
# Structural Database, then it will include bibliographic, chemical, 
# crystal, experimental, refinement or atomic coordinate data resulting 
# from the CCDC's data processing and validation procedures.
#
#######################################################################

data_DITYAH
_symmetry_cell_setting           orthorhombic
_symmetry_space_group_name_H-M   'P n a 21'
_symmetry_Int_Tables_number      33
_space_group_name_Hall           'P 2c -2n'
loop_
_symmetry_equiv_pos_site_id
_symmetry_equiv_pos_as_xyz
1 x,y,z
2 1/2-x,1/2+y,1/2+z
3 1/2+x,1/2-y,z
4 -x,-y,1/2+z
_cell_length_a                   15.7512(2)
_cell_length_b                   10.29690(15)
_cell_length_c                   18.7712(2)
_cell_angle_alpha                90
_cell_angle_beta                 90
_cell_angle_gamma                90
_cell_volume                     3044.47
loop_
_atom_site_label
_atom_site_type_symbol
_atom_site_fract_x
_atom_site_fract_y
_atom_site_fract_z
Co1 Co 0.140193(13) 0.260330(19) 0.002903(18)
N1 N 0.23360(9) 0.20924(15) -0.07920(8)
N2 N 0.77547(8) 0.60128(14) -0.44836(8)
C1 C 0.22520(13) 0.25731(17) -0.14550(11)
H1 H 0.1811 0.3182 -0.1541
C2 C 0.27734(13) 0.22286(19) -0.20186(11)
H2 H 0.2693 0.2610 -0.2475
C3 C 0.34179(11) 0.13187(17) -0.19131(10)
C4 C 0.35108(10) 0.08335(17) -0.12265(11)
H3 H 0.3949 0.0227 -0.1125
C5 C 0.29664(10) 0.12317(17) -0.06897(10)
H4 H 0.3042 0.0879 -0.0226
C6 C 0.39648(12) 0.08391(19) -0.25183(11)
H5 H 0.3603 0.0339 -0.2851
H6 H 0.4394 0.0234 -0.2322
C7 C 0.44283(11) 0.19019(19) -0.29435(11)
H7 H 0.4633 0.1533 -0.3399
H8 H 0.4025 0.2611 -0.3055
C8 C 0.51820(14) 0.24564(18) -0.25284(13)
H9 H 0.5593 0.1749 -0.2436
H10 H 0.4977 0.2777 -0.2062
C9 C 0.56424(12) 0.35689(19) -0.29141(10)
H11 H 0.5239 0.4294 -0.2988
H12 H 0.6108 0.3891 -0.2607
C10 C 0.60106(11) 0.31601(19) -0.36353(11)
H13 H 0.6314 0.2324 -0.3579
H14 H 0.5539 0.3022 -0.3976
C11 C 0.66129(11) 0.41532(18) -0.39367(10)
C12 C 0.63518(11) 0.54047(18) -0.41070(11)
H15 H 0.5776 0.5652 -0.4040
C13 C 0.69281(10) 0.62864(17) -0.43735(10)
H16 H 0.6732 0.7134 -0.4486
C14 C 0.80049(11) 0.48049(17) -0.43166(10)
H17 H 0.8584 0.4584 -0.4390
C15 C 0.74720(11) 0.38664(18) -0.40458(10)
H18 H 0.7686 0.3029 -0.3934
N3 N 0.04530(8) 0.31642(14) 0.08326(8)
N4 N -0.55799(9) 0.62086(14) 0.45331(9)
C16 C 0.05301(13) 0.26870(17) 0.14946(12)
H19 H 0.1025 0.2201 0.1607
C17 C -0.00705(12) 0.2865(2) 0.20197(11)
H20 H 0.0010 0.2489 0.2477
C18 C -0.07944(11) 0.35932(18) 0.18805(10)
C19 C -0.08593(11) 0.41496(17) 0.12060(10)
H21 H -0.1327 0.4693 0.1091
C20 C -0.02341(10) 0.39015(17) 0.07041(11)
H22 H -0.0295 0.4273 0.0244
C21 C -0.14879(11) 0.3716(2) 0.24308(12)
H23 H -0.1803 0.4535 0.2354
H24 H -0.1233 0.3744 0.2913
C22 C -0.21050(13) 0.25565(18) 0.23805(13)
H25 H -0.2465 0.2665 0.1952
H26 H -0.1772 0.1749 0.2319
C23 C -0.26741(14) 0.24119(17) 0.30282(13)
H27 H -0.2309 0.2280 0.3451
H28 H -0.3020 0.1617 0.2967
C24 C -0.32719(10) 0.35421(17) 0.31806(10)
H29 H -0.3640 0.3696 0.2762
H30 H -0.2937 0.4340 0.3267
C25 C -0.38221(12) 0.32470(19) 0.38328(12)
H31 H -0.4145 0.2439 0.3740
H32 H -0.3443 0.3079 0.4243
C26 C -0.44394(11) 0.42934(17) 0.40383(10)
C27 C -0.53001(12) 0.40228(19) 0.41596(12)
H33 H -0.5514 0.3173 0.4077
C28 C -0.58326(12) 0.49821(18) 0.43969(12)
H34 H -0.6413 0.4771 0.4470
C29 C -0.47614(10) 0.64728(17) 0.43931(10)
H35 H -0.4568 0.7337 0.4466
C30 C -0.41858(11) 0.55676(17) 0.41510(10)
H36 H -0.3615 0.5816 0.4061
N5 N 0.17054(10) 0.01168(15) 0.09664(9)
O1 O 0.19913(7) 0.11896(11) 0.06941(7)
O2 O 0.09386(9) -0.00623(14) 0.10113(9)
O3 O 0.22313(9) -0.06694(14) 0.11945(11)
N6 N 0.09561(10) 0.51042(15) -0.08157(9)
O4 O 0.07679(8) 0.39274(11) -0.06466(7)
O5 O 0.03652(9) 0.58522(13) -0.09447(11)
O6 O 0.17057(8) 0.54416(14) -0.08567(8)
Co1C Co 0.859807(13) 0.739670(19) -0.497097(18)
Co1A Co -0.640193(13) 0.760330(19) 0.502903(18)
N2C N 0.22453(8) 0.39872(14) 0.05164(8)
N4A N 0.05799(9) 0.12086(14) -0.04669(9)
loop_
_geom_bond_atom_site_label_1
_geom_bond_atom_site_label_2
_geom_bond_site_symmetry_1
_geom_bond_site_symmetry_2
Co1 N1 1_555 1_555
N1 C1 1_555 1_555
N2 C13 1_555 1_555
C1 H1 1_555 1_555
C2 C1 1_555 1_555
H2 C2 1_555 1_555
C3 C2 1_555 1_555
C4 C3 1_555 1_555
H3 C4 1_555 1_555
C5 N1 1_555 1_555
H4 C5 1_555 1_555
C6 C3 1_555 1_555
H5 C6 1_555 1_555
H6 C6 1_555 1_555
C7 C6 1_555 1_555
H7 C7 1_555 1_555
H8 C7 1_555 1_555
C8 C7 1_555 1_555
H9 C8 1_555 1_555
H10 C8 1_555 1_555
C9 C8 1_555 1_555
H11 C9 1_555 1_555
H12 C9 1_555 1_555
C10 C9 1_555 1_555
H13 C10 1_555 1_555
H14 C10 1_555 1_555
C11 C10 1_555 1_555
C12 C11 1_555 1_555
H15 C12 1_555 1_555
C13 C12 1_555 1_555
H16 C13 1_555 1_555
C14 N2 1_555 1_555
H17 C14 1_555 1_555
C15 C11 1_555 1_555
H18 C15 1_555 1_555
N3 Co1 1_555 1_555
N4 C28 1_555 1_555
C16 N3 1_555 1_555
H19 C16 1_555 1_555
C17 C16 1_555 1_555
H20 C17 1_555 1_555
C18 C17 1_555 1_555
C19 C18 1_555 1_555
H21 C19 1_555 1_555
C20 N3 1_555 1_555
H22 C20 1_555 1_555
C21 C18 1_555 1_555
H23 C21 1_555 1_555
H24 C21 1_555 1_555
C22 C21 1_555 1_555
H25 C22 1_555 1_555
H26 C22 1_555 1_555
C23 C22 1_555 1_555
H27 C23 1_555 1_555
H28 C23 1_555 1_555
C24 C23 1_555 1_555
H29 C24 1_555 1_555
H30 C24 1_555 1_555
C25 C24 1_555 1_555
H31 C25 1_555 1_555
H32 C25 1_555 1_555
C26 C25 1_555 1_555
C27 C26 1_555 1_555
H33 C27 1_555 1_555
C28 C27 1_555 1_555
H34 C28 1_555 1_555
C29 N4 1_555 1_555
H35 C29 1_555 1_555
C30 C26 1_555 1_555
H36 C30 1_555 1_555
N5 O1 1_555 1_555
O1 Co1 1_555 1_555
O2 N5 1_555 1_555
O3 N5 1_555 1_555
N6 O4 1_555 1_555
O4 Co1 1_555 1_555
O5 N6 1_555 1_555
O6 N6 1_555 1_555
Co1C N2 1_555 1_555
Co1A N4 1_555 1_555
N2C Co1 1_555 1_555
N4A Co1 1_555 1_555
C4 C5 1_555 1_555
C14 C15 1_555 1_555
C19 C20 1_555 1_555
C29 C30 1_555 1_555

#END
