
#######################################################################
#
#                 Cambridge Crystallographic Data Centre
#                                CCDC 
#
#######################################################################
#
# If this CIF has been generated from an entry in the Cambridge 
# Structural Database, then it will include bibliographic, chemical, 
# crystal, experimental, refinement or atomic coordinate data resulting 
# from the CCDC's data processing and validation procedures.
#
#######################################################################

data_DITYOW
_symmetry_cell_setting           tetragonal
_symmetry_space_group_name_H-M   'I 41/a'
_symmetry_Int_Tables_number      88
_space_group_name_Hall           '-I 4ad'
loop_
_symmetry_equiv_pos_site_id
_symmetry_equiv_pos_as_xyz
1 x,y,z
2 1/2-x,-y,1/2+z
3 3/4-y,1/4+x,1/4+z
4 3/4+y,3/4-x,3/4+z
5 1/2+x,1/2+y,1/2+z
6 -x,1/2-y,z
7 1/4-y,3/4+x,3/4+z
8 1/4+y,1/4-x,1/4+z
9 -x,-y,-z
10 1/2+x,y,1/2-z
11 1/4+y,3/4-x,3/4-z
12 1/4-y,1/4+x,1/4-z
13 1/2-x,1/2-y,1/2-z
14 x,1/2+y,-z
15 3/4+y,1/4-x,1/4-z
16 3/4-y,3/4+x,3/4-z
_cell_length_a                   24.074(4)
_cell_length_b                   24.074(4)
_cell_length_c                   5.1021(16)
_cell_angle_alpha                90
_cell_angle_beta                 90
_cell_angle_gamma                90
_cell_volume                     2956.96
loop_
_atom_site_label
_atom_site_type_symbol
_atom_site_fract_x
_atom_site_fract_y
_atom_site_fract_z
Cu1 Cu 0.5000 0.0000 0.0000
C1 C 0.56737(14) -0.08841(12) -0.1224(6)
O1 O 0.51884(9) -0.06985(8) -0.1813(5)
N1 N 0.64082(12) -0.16023(12) -0.2238(5)
C2 C 0.58720(13) -0.13529(14) -0.3106(7)
H1 H 0.5591 -0.1641 -0.3183
H2 H 0.5916 -0.1202 -0.4856
N2 N 0.69011(13) -0.14564(13) -0.3344(6)
O2 O 0.59718(12) -0.07204(12) 0.0571(5)
N3 N 0.72908(13) -0.17117(14) -0.2060(6)
N4 N 0.70637(10) -0.20252(11) -0.0065(5)
C3 C 0.65123(13) -0.19448(13) -0.0240(6)
H3 H 0.6246 -0.2102 0.0854
C1H C 0.43263(14) 0.08841(12) 0.1224(6)
O1H O 0.48116(9) 0.06985(8) 0.1813(5)
N1H N 0.35918(12) 0.16023(12) 0.2238(5)
C2H C 0.41280(13) 0.13529(14) 0.3106(7)
H1H H 0.4409 0.1641 0.3183
H2H H 0.4084 0.1202 0.4856
N2H N 0.30989(13) 0.14564(13) 0.3344(6)
O2H O 0.40282(12) 0.07204(12) -0.0571(5)
N3H N 0.27092(13) 0.17117(14) 0.2060(6)
N4H N 0.29363(10) 0.20252(11) 0.0065(5)
C3H C 0.34877(13) 0.19448(13) 0.0240(6)
H3H H 0.3754 0.2102 -0.0854
Cu1B Cu 0.7500 -0.2500 0.2500
Cu1F Cu 0.2500 0.2500 -0.2500
N4C N 0.54748(11) 0.04363(10) -0.2565(5)
N4K N 0.45252(11) -0.04363(10) 0.2565(5)
F1 F 0.52881(14) -0.21254(15) -0.7300(7)
B1 B 0.5000 -0.2500 -0.8750
F1E F 0.47119(14) -0.28746(15) -0.7300(7)
F1K F 0.46254(15) -0.22119(14) -1.0200(7)
F1N F 0.53746(15) -0.27881(14) -1.0200(7)
O3 O 0.7126(6) -0.0543(5) 0.138(3)
O4 O 0.7012(8) -0.0150(9) 0.295(4)
loop_
_geom_bond_atom_site_label_1
_geom_bond_atom_site_label_2
_geom_bond_site_symmetry_1
_geom_bond_site_symmetry_2
Cu1 O1 1_555 1_555
C1 O1 1_555 1_555
N1 C2 1_555 1_555
C2 C1 1_555 1_555
H1 C2 1_555 1_555
H2 C2 1_555 1_555
N2 N1 1_555 1_555
O2 C1 1_555 1_555
N3 N2 1_555 1_555
N4 N3 1_555 1_555
C3 N1 1_555 1_555
H3 C3 1_555 1_555
F1 B1 1_555 1_555
B1 F1E 1_555 1_555
C1H O1H 1_555 1_555
O1H Cu1 1_555 1_555
N1H C2H 1_555 1_555
C2H C1H 1_555 1_555
H1H C2H 1_555 1_555
H2H C2H 1_555 1_555
N2H N1H 1_555 1_555
O2H C1H 1_555 1_555
N3H N2H 1_555 1_555
N4H N3H 1_555 1_555
C3H N1H 1_555 1_555
H3H C3H 1_555 1_555
Cu1B N4 1_555 1_555
Cu1F N4H 1_555 1_555
N4C Cu1 1_555 1_555
N4K Cu1 1_555 1_555
F1K B1 1_555 1_555
F1N B1 1_555 1_555
N4 C3 1_555 1_555
N4H C3H 1_555 1_555

#END
