
#######################################################################
#
#                 Cambridge Crystallographic Data Centre
#                                CCDC 
#
#######################################################################
#
# If this CIF has been generated from an entry in the Cambridge 
# Structural Database, then it will include bibliographic, chemical, 
# crystal, experimental, refinement or atomic coordinate data resulting 
# from the CCDC's data processing and validation procedures.
#
#######################################################################

data_DITZAH
_symmetry_cell_setting           monoclinic
_symmetry_space_group_name_H-M   'P 21/c'
_symmetry_Int_Tables_number      14
_space_group_name_Hall           '-P 2ybc'
loop_
_symmetry_equiv_pos_site_id
_symmetry_equiv_pos_as_xyz
1 x,y,z
2 -x,1/2+y,1/2-z
3 -x,-y,-z
4 x,1/2-y,1/2+z
_cell_length_a                   17.136(2)
_cell_length_b                   20.818(3)
_cell_length_c                   20.858(3)
_cell_angle_alpha                90
_cell_angle_beta                 104.937(2)
_cell_angle_gamma                90
_cell_volume                     7189.4
loop_
_atom_site_label
_atom_site_type_symbol
_atom_site_fract_x
_atom_site_fract_y
_atom_site_fract_z
P1 P 0.6500(3) -0.07439(19) 1.4939(2)
P2 P 0.9262(3) 0.0883(2) 1.4678(2)
P3 P 0.6246(3) 0.10178(19) 1.4787(2)
O1 O 0.7490(6) -0.2590(4) 1.6428(5)
O2 O 0.8868(6) -0.3348(5) 1.6400(5)
O3 O 0.8852(6) -0.4126(4) 1.5284(6)
O4 O 0.7949(6) -0.3631(5) 1.4024(6)
O5 O 0.6546(6) -0.2908(5) 1.3980(5)
O6 O 0.6306(5) -0.0631(4) 1.5605(5)
O7 O 0.7176(5) -0.0292(5) 1.4842(5)
O8 O 0.5772(5) -0.0766(4) 1.4333(4)
O9 O 0.9026(6) 0.2799(5) 1.3277(5)
O10 O 0.7647(7) 0.3603(5) 1.3261(5)
O11 O 0.7514(7) 0.4275(5) 1.4405(6)
O12 O 0.8404(7) 0.3723(5) 1.5653(6)
O13 O 0.9770(6) 0.2957(5) 1.5706(5)
O14 O 0.9482(7) 0.0636(5) 1.4065(6)
O15 O 0.8467(5) 0.0593(5) 1.4732(5)
O16 O 0.9925(7) 0.0795(6) 1.5290(7)
O17 O 0.6523(6) 0.3082(5) 1.5852(5)
O18 O 0.5107(7) 0.3776(5) 1.5768(6)
O19 O 0.4061(7) 0.4252(5) 1.4534(6)
O20 O 0.4265(6) 0.3556(5) 1.3411(5)
O21 O 0.5697(6) 0.2864(5) 1.3407(5)
O22 O 0.6439(5) 0.0887(4) 1.4134(5)
O23 O 0.6942(5) 0.0971(4) 1.5409(5)
O24 O 0.5524(5) 0.0628(4) 1.4890(5)
O25 O 0.5260(6) -0.0186(5) 1.6856(5)
O26 O 0.5529(7) -0.1157(6) 1.6650(6)
O27 O 0.5189(8) -0.0976(6) 1.7549(7)
O28 O 0.9179(8) 0.0576(11) 1.6459(7)
O29 O 0.8469(10) 0.1308(8) 1.6272(9)
O30 O 0.9593(11) 0.1379(9) 1.6909(9)
O31 O 0.7994(7) 0.1069(6) 1.2343(6)
O32 O 0.7518(7) 0.1278(6) 1.3169(6)
O33 O 0.7676(7) 0.0325(6) 1.2936(6)
O34 O 0.8720(8) -0.1316(7) 1.3399(7)
O35 O 0.8274(7) -0.0635(6) 1.3935(7)
O36 O 0.7573(7) -0.1459(5) 1.3546(6)
O37 O 0.6235(5) 0.0785(4) 1.6399(5)
O38 O 0.6268(5) -0.0361(4) 1.3277(5)
O39 O 0.7524(5) -0.0111(4) 1.6494(5)
O40 O 0.8796(5) -0.0646(5) 1.5685(6)
O41 O 0.9160(6) -0.0079(5) 1.2674(5)
N1 N 0.6589(7) -0.2112(5) 1.5145(6)
H1 H 0.6939 -0.2440 1.5172
N2 N 0.9684(7) 0.2206(6) 1.4537(6)
H2 H 0.9451 0.2596 1.4508
N3 N 0.6495(6) 0.2360(5) 1.4684(6)
H3 H 0.6226 0.2734 1.4662
N4 N 0.5328(8) -0.0795(7) 1.7019(7)
N5 N 0.9128(8) 0.1021(6) 1.6497(7)
N6 N 0.7753(8) 0.0901(8) 1.2829(8)
N7 N 0.8189(7) -0.1125(8) 1.3636(7)
C1 C 0.6355(9) -0.2094(7) 1.5791(8)
H4 H 0.6063 -0.2485 1.5834
H5 H 0.5992 -0.1735 1.5784
C2 C 0.7063(9) -0.2030(7) 1.6387(8)
H6 H 0.7397 -0.1668 1.6334
H7 H 0.6880 -0.1966 1.6785
C3 C 0.8261(10) -0.2571(8) 1.6963(8)
H8 H 0.8619 -0.2247 1.6864
H9 H 0.8153 -0.2466 1.7385
C4 C 0.8635(9) -0.3212(8) 1.6995(9)
H10 H 0.9107 -0.3229 1.7370
H11 H 0.8255 -0.3535 1.7061
C5 C 0.9249(9) -0.3958(8) 1.6423(9)
H12 H 0.8867 -0.4291 1.6462
H13 H 0.9699 -0.3978 1.6815
C6 C 0.9549(10) -0.4088(8) 1.5829(9)
H14 H 0.9901 -0.3744 1.5761
H15 H 0.9847 -0.4489 1.5880
C7 C 0.9078(10) -0.4207(8) 1.4699(9)
H16 H 0.9391 -0.4599 1.4723
H17 H 0.9415 -0.3850 1.4637
C8 C 0.8347(11) -0.4244(8) 1.4119(9)
H18 H 0.8509 -0.4362 1.3722
H19 H 0.7980 -0.4570 1.4200
C9 C 0.7253(10) -0.3652(8) 1.3473(9)
H20 H 0.6891 -0.3988 1.3541
H21 H 0.7415 -0.3748 1.3071
C10 C 0.6824(9) -0.3014(7) 1.3400(8)
H22 H 0.7189 -0.2673 1.3351
H23 H 0.6370 -0.3018 1.3010
C11 C 0.6059(9) -0.2373(7) 1.3947(8)
H24 H 0.5556 -0.2439 1.3611
H25 H 0.6327 -0.2001 1.3821
C12 C 0.5889(9) -0.2257(7) 1.4598(8)
H26 H 0.5512 -0.1901 1.4551
H27 H 0.5623 -0.2634 1.4715
C13 C 0.7024(8) -0.1500(6) 1.5023(8)
H28 H 0.7202 -0.1565 1.4623
H29 H 0.7506 -0.1457 1.5386
C14 C 1.0030(9) 0.2131(7) 1.3950(8)
H30 H 1.0296 0.1717 1.3973
H31 H 1.0431 0.2462 1.3962
C15 C 0.9378(9) 0.2179(7) 1.3307(8)
H32 H 0.9608 0.2116 1.2933
H33 H 0.8971 0.1852 1.3292
C16 C 0.8363(10) 0.2867(8) 1.2717(8)
H34 H 0.7944 0.2560 1.2739
H35 H 0.8532 0.2785 1.2315
C17 C 0.8044(9) 0.3538(8) 1.2707(8)
H36 H 0.8482 0.3845 1.2761
H37 H 0.7656 0.3622 1.2286
C18 C 0.7247(9) 0.4209(7) 1.3231(8)
H38 H 0.6830 0.4246 1.2818
H39 H 0.7630 0.4556 1.3253
C19 C 0.6875(11) 0.4242(8) 1.3822(9)
H40 H 0.6533 0.4619 1.3786
H41 H 0.6547 0.3864 1.3832
C20 C 0.7206(11) 0.4226(8) 1.4975(9)
H42 H 0.6941 0.3814 1.4977
H43 H 0.6811 0.4562 1.4967
C21 C 0.7906(11) 0.4292(8) 1.5599(10)
H44 H 0.8222 0.4672 1.5567
H45 H 0.7699 0.4334 1.5989
C22 C 0.9110(11) 0.3774(9) 1.6216(9)
H46 H 0.8947 0.3896 1.6611
H47 H 0.9475 0.4099 1.6129
C23 C 0.9521(11) 0.3133(9) 1.6315(9)
H48 H 0.9991 0.3153 1.6691
H49 H 0.9156 0.2811 1.6407
C24 C 1.0179(10) 0.2374(8) 1.5774(9)
H50 H 0.9838 0.2036 1.5873
H51 H 1.0663 0.2399 1.6138
C25 C 1.0410(10) 0.2217(8) 1.5123(9)
H52 H 1.0790 0.2537 1.5049
H53 H 1.0676 0.1802 1.5165
C26 C 0.9063(9) 0.1722(6) 1.4578(8)
H54 H 0.8629 0.1770 1.4178
H55 H 0.8846 0.1852 1.4944
C27 C 0.7219(8) 0.2398(7) 1.5270(7)
H56 H 0.7567 0.2744 1.5201
H57 H 0.7522 0.2000 1.5304
C28 C 0.6984(9) 0.2515(7) 1.5925(7)
H58 H 0.6671 0.2156 1.6020
H59 H 0.7465 0.2559 1.6289
C29 C 0.6273(10) 0.3232(8) 1.6430(8)
H60 H 0.6737 0.3281 1.6808
H61 H 0.5930 0.2895 1.6527
C30 C 0.5803(10) 0.3870(8) 1.6277(8)
H62 H 0.5658 0.4021 1.6672
H63 H 0.6139 0.4193 1.6147
C31 C 0.4540(11) 0.4296(8) 1.5691(9)
H64 H 0.4795 0.4692 1.5608
H65 H 0.4367 0.4348 1.6095
C32 C 0.3831(10) 0.4160(8) 1.5129(9)
H66 H 0.3651 0.3721 1.5155
H67 H 0.3390 0.4446 1.5144
C33 C 0.3416(10) 0.4093(8) 1.3972(10)
H68 H 0.2985 0.4407 1.3921
H69 H 0.3200 0.3674 1.4033
C34 C 0.3736(10) 0.4091(7) 1.3354(9)
H70 H 0.3294 0.4052 1.2958
H71 H 0.4024 0.4487 1.3326
C35 C 0.4576(11) 0.3525(10) 1.2836(9)
H72 H 0.4950 0.3876 1.2842
H73 H 0.4138 0.3561 1.2437
C36 C 0.5016(10) 0.2874(9) 1.2842(8)
H74 H 0.4653 0.2523 1.2867
H75 H 0.5191 0.2826 1.2438
C37 C 0.6160(9) 0.2300(7) 1.3425(7)
H76 H 0.6395 0.2289 1.3049
H77 H 0.5822 0.1924 1.3408
C38 C 0.6805(8) 0.2309(6) 1.4054(7)
H78 H 0.7160 0.2670 1.4045
H79 H 0.7123 0.1920 1.4081
C39 C 0.5917(8) 0.1826(6) 1.4741(7)
H80 H 0.5452 0.1860 1.4361
H81 H 0.5728 0.1911 1.5133
Cd1 Cd 0.53052(7) 0.00500(5) 1.58128(6)
Cd2 Cd 0.73477(6) 0.02284(5) 1.39173(6)
Cd3 Cd 0.80199(6) 0.03007(5) 1.56334(6)
Cd4 Cd 0.95429(7) -0.03524(7) 1.37454(7)
Cd1B Cd 0.46948(7) -0.00500(5) 1.41872(6)
Cd4B Cd 1.04571(7) 0.03524(7) 1.62546(7)
O8B O 0.4228(5) 0.0766(4) 1.5667(4)
O24B O 0.4476(5) -0.0628(4) 1.5110(5)
O16B O 1.0075(7) -0.0795(6) 1.4710(7)
O28B O 1.0821(8) -0.0576(11) 1.3541(7)
O42 O 0.1546(7) 0.4136(6) 0.7597(6)
O43 O 0.0500(8) 0.4727(7) 0.7075(8)
O44 O 0.0413(9) 0.4074(9) 0.7881(8)
N8 N 0.0827(9) 0.4310(9) 0.7521(10)
O45 O 0.7866(5) -0.2906(4) 1.5167(5)
O46 O 0.8692(6) 0.3229(5) 1.4462(5)
O47 O 0.5386(6) 0.3308(5) 1.4614(5)
loop_
_geom_bond_atom_site_label_1
_geom_bond_atom_site_label_2
_geom_bond_site_symmetry_1
_geom_bond_site_symmetry_2
P1 O6 1_555 1_555
P2 O14 1_555 1_555
P3 O22 1_555 1_555
O1 C2 1_555 1_555
O2 C4 1_555 1_555
O3 C6 1_555 1_555
O4 C8 1_555 1_555
O5 C10 1_555 1_555
O6 Cd1 1_555 1_555
O7 P1 1_555 1_555
O8 P1 1_555 1_555
O9 C15 1_555 1_555
O10 C17 1_555 1_555
O11 C19 1_555 1_555
O12 C21 1_555 1_555
O13 C23 1_555 1_555
O14 Cd4 1_555 1_555
O15 P2 1_555 1_555
O16 P2 1_555 1_555
O17 C28 1_555 1_555
O18 C30 1_555 1_555
O19 C32 1_555 1_555
O20 C34 1_555 1_555
O21 C36 1_555 1_555
O22 Cd2 1_555 1_555
O23 P3 1_555 1_555
O24 P3 1_555 1_555
O25 N4 1_555 1_555
O26 N4 1_555 1_555
O27 N4 1_555 1_555
O28 N5 1_555 1_555
O29 N5 1_555 1_555
O30 N5 1_555 1_555
O31 N6 1_555 1_555
O32 N6 1_555 1_555
O33 N6 1_555 1_555
O34 N7 1_555 1_555
O35 N7 1_555 1_555
O36 N7 1_555 1_555
O37 Cd1 1_555 1_555
O38 Cd2 1_555 1_555
O39 Cd3 1_555 1_555
O40 Cd3 1_555 1_555
O41 Cd4 1_555 1_555
N1 H1 1_555 1_555
N2 H2 1_555 1_555
N3 H3 1_555 1_555
C1 N1 1_555 1_555
H4 C1 1_555 1_555
H5 C1 1_555 1_555
C2 C1 1_555 1_555
H6 C2 1_555 1_555
H7 C2 1_555 1_555
C3 O1 1_555 1_555
H8 C3 1_555 1_555
H9 C3 1_555 1_555
C4 C3 1_555 1_555
H10 C4 1_555 1_555
H11 C4 1_555 1_555
C5 O2 1_555 1_555
H12 C5 1_555 1_555
H13 C5 1_555 1_555
C6 C5 1_555 1_555
H14 C6 1_555 1_555
H15 C6 1_555 1_555
C7 O3 1_555 1_555
H16 C7 1_555 1_555
H17 C7 1_555 1_555
C8 C7 1_555 1_555
H18 C8 1_555 1_555
H19 C8 1_555 1_555
C9 O4 1_555 1_555
H20 C9 1_555 1_555
H21 C9 1_555 1_555
C10 C9 1_555 1_555
H22 C10 1_555 1_555
H23 C10 1_555 1_555
C11 O5 1_555 1_555
H24 C11 1_555 1_555
H25 C11 1_555 1_555
C12 N1 1_555 1_555
H26 C12 1_555 1_555
H27 C12 1_555 1_555
C13 P1 1_555 1_555
H28 C13 1_555 1_555
H29 C13 1_555 1_555
C14 N2 1_555 1_555
H30 C14 1_555 1_555
H31 C14 1_555 1_555
C15 C14 1_555 1_555
H32 C15 1_555 1_555
H33 C15 1_555 1_555
C16 O9 1_555 1_555
H34 C16 1_555 1_555
H35 C16 1_555 1_555
C17 C16 1_555 1_555
H36 C17 1_555 1_555
H37 C17 1_555 1_555
C18 O10 1_555 1_555
H38 C18 1_555 1_555
H39 C18 1_555 1_555
C19 C18 1_555 1_555
H40 C19 1_555 1_555
H41 C19 1_555 1_555
C20 O11 1_555 1_555
H42 C20 1_555 1_555
H43 C20 1_555 1_555
C21 C20 1_555 1_555
H44 C21 1_555 1_555
H45 C21 1_555 1_555
C22 O12 1_555 1_555
H46 C22 1_555 1_555
H47 C22 1_555 1_555
C23 C22 1_555 1_555
H48 C23 1_555 1_555
H49 C23 1_555 1_555
C24 O13 1_555 1_555
H50 C24 1_555 1_555
H51 C24 1_555 1_555
C25 N2 1_555 1_555
H52 C25 1_555 1_555
H53 C25 1_555 1_555
C26 P2 1_555 1_555
H54 C26 1_555 1_555
H55 C26 1_555 1_555
C27 N3 1_555 1_555
H56 C27 1_555 1_555
H57 C27 1_555 1_555
C28 C27 1_555 1_555
H58 C28 1_555 1_555
H59 C28 1_555 1_555
C29 O17 1_555 1_555
H60 C29 1_555 1_555
H61 C29 1_555 1_555
C30 C29 1_555 1_555
H62 C30 1_555 1_555
H63 C30 1_555 1_555
C31 O18 1_555 1_555
H64 C31 1_555 1_555
H65 C31 1_555 1_555
C32 C31 1_555 1_555
H66 C32 1_555 1_555
H67 C32 1_555 1_555
C33 O19 1_555 1_555
H68 C33 1_555 1_555
H69 C33 1_555 1_555
C34 C33 1_555 1_555
H70 C34 1_555 1_555
H71 C34 1_555 1_555
C35 O20 1_555 1_555
H72 C35 1_555 1_555
H73 C35 1_555 1_555
C36 C35 1_555 1_555
H74 C36 1_555 1_555
H75 C36 1_555 1_555
C37 O21 1_555 1_555
H76 C37 1_555 1_555
H77 C37 1_555 1_555
C38 N3 1_555 1_555
H78 C38 1_555 1_555
H79 C38 1_555 1_555
C39 P3 1_555 1_555
H80 C39 1_555 1_555
H81 C39 1_555 1_555
Cd1 O24 1_555 1_555
Cd2 O7 1_555 1_555
Cd3 O7 1_555 1_555
Cd4 O34 1_555 1_555
O42 N8 1_555 1_555
O43 N8 1_555 1_555
O44 N8 1_555 1_555
Cd1B O8 1_555 1_555
Cd4B O16 1_555 1_555
O8B Cd1 1_555 1_555
O24B Cd1 1_555 1_555
O16B Cd4 1_555 1_555
O28B Cd4 1_555 1_555
O15 Cd2 1_555 1_555
O15 Cd3 1_555 1_555
O23 Cd3 1_555 1_555
O24 Cd1B 1_555 1_555
O25 Cd1 1_555 1_555
O28 Cd3 1_555 1_555
O28 Cd4B 1_555 1_555
O29 Cd3 1_555 1_555
O33 Cd2 1_555 1_555
O35 Cd2 1_555 1_555
O35 Cd4 1_555 1_555
N1 C13 1_555 1_555
N2 C26 1_555 1_555
N3 C39 1_555 1_555
C11 C12 1_555 1_555
C24 C25 1_555 1_555
C37 C38 1_555 1_555
Cd1B O24B 1_555 1_555

#END
