
#######################################################################
#
#                 Cambridge Crystallographic Data Centre
#                                CCDC 
#
#######################################################################
#
# If this CIF has been generated from an entry in the Cambridge 
# Structural Database, then it will include bibliographic, chemical, 
# crystal, experimental, refinement or atomic coordinate data resulting 
# from the CCDC's data processing and validation procedures.
#
#######################################################################

data_DITZEM
_symmetry_cell_setting           monoclinic
_symmetry_space_group_name_H-M   'P 21/c'
_symmetry_Int_Tables_number      14
_space_group_name_Hall           '-P 2ybc'
loop_
_symmetry_equiv_pos_site_id
_symmetry_equiv_pos_as_xyz
1 x,y,z
2 -x,1/2+y,1/2-z
3 -x,-y,-z
4 x,1/2-y,1/2+z
_cell_length_a                   9.344(2)
_cell_length_b                   14.337(4)
_cell_length_c                   10.575(3)
_cell_angle_alpha                90
_cell_angle_beta                 95.359(4)
_cell_angle_gamma                90
_cell_volume                     1410.49
loop_
_atom_site_label
_atom_site_type_symbol
_atom_site_fract_x
_atom_site_fract_y
_atom_site_fract_z
Nd1 Nd 0.375254(14) 0.132619(9) 0.531577(13)
O1 O 0.34668(19) 0.26669(13) 0.38181(18)
O2 O 0.2294(2) 0.33276(14) 0.21076(18)
O3 O -0.2516(2) 0.01733(13) 0.4656(2)
O4 O -0.3909(2) 0.14492(14) 0.4517(2)
O5 O 0.3381(2) 0.07915(15) 0.31378(19)
O6 O 0.4797(2) -0.04502(15) 0.3174(2)
O7 O 0.4943(2) 0.26113(15) 0.65410(19)
H1 H 0.4662 0.2752 0.7252
H2 H 0.5278 0.3120 0.6323
N1 N 0.1102(2) 0.17785(15) 0.4364(2)
C1 C 0.2351(3) 0.28601(18) 0.3108(3)
C2 C 0.0956(3) 0.24670(18) 0.3499(2)
C3 C -0.0375(3) 0.2776(2) 0.2988(3)
H3 H -0.0447 0.3261 0.2402
C4 C -0.1601(3) 0.23556(19) 0.3361(3)
H4 H -0.2506 0.2577 0.3066
C5 C -0.1459(3) 0.16003(18) 0.4180(3)
C6 C -0.0084(3) 0.13444(19) 0.4668(3)
H5 H 0.0017 0.0847 0.5234
C7 C -0.2737(3) 0.1027(2) 0.4485(2)
C8 C 0.3873(3) 0.0087(2) 0.2642(3)
C9 C 0.3302(3) -0.01226(19) 0.1303(3)
C10 C 0.2168(3) 0.0379(2) 0.0710(3)
H6 H 0.1732 0.0849 0.1144
C11 C 0.1690(4) 0.0177(2) -0.0526(3)
H7 H 0.0918 0.0499 -0.0938
C12 C 0.2375(4) -0.0508(2) -0.1139(3)
H8 H 0.2059 -0.0632 -0.1982
N2 N 0.3468(3) -0.1006(2) -0.0598(3)
C13 C 0.3907(3) -0.0816(2) 0.0612(3)
H9 H 0.4656 -0.1166 0.1011
Nd1C Nd 0.375254(14) 0.367381(9) 0.031577(13)
Nd1B Nd -0.375254(14) -0.132619(9) 0.468423(13)
Nd1_2 Nd -0.624746(14) 0.132619(9) 0.531577(13)
Nd1B_2 Nd 0.624746(14) -0.132619(9) 0.468423(13)
O2C O 0.2294(2) 0.16724(14) 0.71076(18)
O3B O 0.2516(2) -0.01733(13) 0.5344(2)
O4_2 O 0.6091(2) 0.14492(14) 0.4517(2)
O6B O 0.5203(2) 0.04502(15) 0.6826(2)
loop_
_geom_bond_atom_site_label_1
_geom_bond_atom_site_label_2
_geom_bond_site_symmetry_1
_geom_bond_site_symmetry_2
Nd1 O1 1_555 1_555
O1 C1 1_555 1_555
O2 C1 1_555 1_555
O3 C7 1_555 1_555
O4 C7 1_555 1_555
O5 Nd1 1_555 1_555
O6 C8 1_555 1_555
O7 Nd1 1_555 1_555
H1 O7 1_555 1_555
H2 O7 1_555 1_555
N1 Nd1 1_555 1_555
C1 C2 1_555 1_555
C2 N1 1_555 1_555
C3 C2 1_555 1_555
H3 C3 1_555 1_555
C4 C3 1_555 1_555
H4 C4 1_555 1_555
C5 C4 1_555 1_555
C6 N1 1_555 1_555
H5 C6 1_555 1_555
C7 C5 1_555 1_555
C8 O5 1_555 1_555
C9 C8 1_555 1_555
C10 C9 1_555 1_555
H6 C10 1_555 1_555
C11 C10 1_555 1_555
H7 C11 1_555 1_555
C12 C11 1_555 1_555
H8 C12 1_555 1_555
N2 C12 1_555 1_555
C13 C9 1_555 1_555
H9 C13 1_555 1_555
Nd1C O2 1_555 1_555
Nd1B O3 1_555 1_555
Nd1_2 O4 1_555 1_555
Nd1B_2 O6 1_555 1_555
O2C Nd1 1_555 1_555
O3B Nd1 1_555 1_555
O4_2 Nd1 1_555 1_555
O6B Nd1 1_555 1_555
C5 C6 1_555 1_555
N2 C13 1_555 1_555

#END
