
#######################################################################
#
#                 Cambridge Crystallographic Data Centre
#                                CCDC 
#
#######################################################################
#
# If this CIF has been generated from an entry in the Cambridge 
# Structural Database, then it will include bibliographic, chemical, 
# crystal, experimental, refinement or atomic coordinate data resulting 
# from the CCDC's data processing and validation procedures.
#
#######################################################################

data_DITZIQ
_symmetry_cell_setting           monoclinic
_symmetry_space_group_name_H-M   'P 21/c'
_symmetry_Int_Tables_number      14
_space_group_name_Hall           '-P 2ybc'
loop_
_symmetry_equiv_pos_site_id
_symmetry_equiv_pos_as_xyz
1 x,y,z
2 -x,1/2+y,1/2-z
3 -x,-y,-z
4 x,1/2-y,1/2+z
_cell_length_a                   9.108(11)
_cell_length_b                   13.973(17)
_cell_length_c                   10.366(13)
_cell_angle_alpha                90
_cell_angle_beta                 95.47(2)
_cell_angle_gamma                90
_cell_volume                     1313.23
loop_
_atom_site_label
_atom_site_type_symbol
_atom_site_fract_x
_atom_site_fract_y
_atom_site_fract_z
Eu1 Eu 0.87529(7) 0.86647(4) 0.02994(6)
O1 O 0.8495(11) 0.7353(6) -0.1214(9)
O2 O 0.7295(11) 0.6685(7) -0.2936(9)
O3 O 0.2458(12) 0.9849(6) -0.0367(11)
O4 O 0.1077(10) 0.8561(6) -0.0479(10)
O5 O 1.0183(13) 0.9496(8) 0.1835(11)
O6 O 1.1607(12) 1.0757(7) 0.1801(10)
O7 O 0.9894(11) 0.7379(7) 0.1496(9)
H1 H 0.9429 0.6857 0.1569
H2 H 1.0768 0.7438 0.1853
N1 N 0.6147(11) 0.8236(7) -0.0628(10)
C1 C 0.7336(16) 0.7158(8) -0.1919(14)
C2 C 0.5957(14) 0.7550(9) -0.1530(13)
C3 C 0.4611(16) 0.7238(9) -0.2046(14)
H3 H 0.4528 0.6740 -0.2644
C4 C 0.3392(16) 0.7676(8) -0.1661(13)
H4 H 0.2460 0.7459 -0.1974
C5 C 0.3520(14) 0.8412(8) -0.0838(12)
C6 C 0.4937(14) 0.8668(8) -0.0339(12)
H5 H 0.5036 0.9178 0.0239
C7 C 0.2253(14) 0.8991(9) -0.0501(12)
C8 C 1.1105(17) 1.0054(10) 0.2344(15)
C9 C 1.1710(16) 0.9878(9) 0.3688(13)
C10 C 1.1099(15) 0.9166(10) 0.4411(14)
H6 H 1.0332 0.8795 0.4022
N2 N 1.1571(15) 0.9006(8) 0.5613(13)
C11 C 1.266(2) 0.9544(11) 0.6144(15)
H7 H 1.2981 0.9444 0.7013
C12 C 1.333(2) 1.0214(11) 0.5516(16)
H8 H 1.4117 1.0554 0.5933
C13 C 1.2871(17) 1.0401(10) 0.4276(15)
H9 H 1.3324 1.0874 0.3822
Eu1C Eu 0.87529(7) 0.63353(4) -0.47006(6)
Eu1B Eu 0.12471(7) 1.13353(4) -0.02994(6)
Eu1_2 Eu -0.12471(7) 0.86647(4) 0.02994(6)
Eu1B_2 Eu 1.12471(7) 1.13353(4) -0.02994(6)
O2C O 0.7295(11) 0.8315(7) 0.2064(9)
O3B O 0.7542(12) 1.0151(6) 0.0367(11)
O4_2 O 1.1077(10) 0.8561(6) -0.0479(10)
O6B O 0.8393(12) 0.9243(7) -0.1801(10)
loop_
_geom_bond_atom_site_label_1
_geom_bond_atom_site_label_2
_geom_bond_site_symmetry_1
_geom_bond_site_symmetry_2
Eu1 O1 1_555 1_555
O1 C1 1_555 1_555
O2 C1 1_555 1_555
O3 C7 1_555 1_555
O4 C7 1_555 1_555
O5 Eu1 1_555 1_555
O6 C8 1_555 1_555
O7 Eu1 1_555 1_555
H1 O7 1_555 1_555
H2 O7 1_555 1_555
N1 Eu1 1_555 1_555
C1 C2 1_555 1_555
C2 N1 1_555 1_555
C3 C2 1_555 1_555
H3 C3 1_555 1_555
C4 C3 1_555 1_555
H4 C4 1_555 1_555
C5 C4 1_555 1_555
C6 N1 1_555 1_555
H5 C6 1_555 1_555
C7 C5 1_555 1_555
C8 O5 1_555 1_555
C9 C8 1_555 1_555
C10 C9 1_555 1_555
H6 C10 1_555 1_555
N2 C10 1_555 1_555
C11 N2 1_555 1_555
H7 C11 1_555 1_555
C12 C11 1_555 1_555
H8 C12 1_555 1_555
C13 C9 1_555 1_555
H9 C13 1_555 1_555
Eu1C O2 1_555 1_555
Eu1B O3 1_555 1_555
Eu1_2 O4 1_555 1_555
Eu1B_2 O6 1_555 1_555
O2C Eu1 1_555 1_555
O3B Eu1 1_555 1_555
O4_2 Eu1 1_555 1_555
O6B Eu1 1_555 1_555
C5 C6 1_555 1_555
C12 C13 1_555 1_555

#END
