
#######################################################################
#
#                 Cambridge Crystallographic Data Centre
#                                CCDC 
#
#######################################################################
#
# If this CIF has been generated from an entry in the Cambridge 
# Structural Database, then it will include bibliographic, chemical, 
# crystal, experimental, refinement or atomic coordinate data resulting 
# from the CCDC's data processing and validation procedures.
#
#######################################################################

data_DITZEM02
_symmetry_cell_setting           monoclinic
_symmetry_space_group_name_H-M   'P 21/c'
_symmetry_Int_Tables_number      14
_space_group_name_Hall           '-P 2ybc'
loop_
_symmetry_equiv_pos_site_id
_symmetry_equiv_pos_as_xyz
1 x,y,z
2 -x,1/2+y,1/2-z
3 -x,-y,-z
4 x,1/2-y,1/2+z
_cell_length_a                   9.3584(19)
_cell_length_b                   14.352(3)
_cell_length_c                   10.578(2)
_cell_angle_alpha                90
_cell_angle_beta                 95.34(3)
_cell_angle_gamma                90
_cell_volume                     1414.58
loop_
_atom_site_label
_atom_site_type_symbol
_atom_site_fract_x
_atom_site_fract_y
_atom_site_fract_z
Nd1 Nd 0.87531(2) 0.632579(15) 1.03154(2)
C1 C 0.5955(5) 0.7463(3) 0.8500(4)
C2 C 0.4622(5) 0.7776(3) 0.7979(5)
H1 H 0.4554 0.8259 0.7391
C3 C 0.3395(5) 0.7353(3) 0.8354(5)
H2 H 0.2491 0.7573 0.8054
C4 C 0.3528(5) 0.6599(3) 0.9181(4)
C5 C 0.4921(5) 0.6342(3) 0.9669(4)
H3 H 0.5024 0.5843 1.0231
C6 C 0.7353(5) 0.7859(3) 0.8106(4)
C7 C 0.2255(5) 0.6027(3) 0.9488(4)
C8 C 1.1084(6) 0.5812(4) 1.4379(5)
H4 H 1.0330 0.6156 1.3979
C9 C 1.2625(7) 0.5508(5) 1.6145(6)
H5 H 1.2941 0.5634 1.6988
C10 C 1.3316(7) 0.4814(4) 1.5528(6)
H6 H 1.4085 0.4491 1.5939
C11 C 1.2834(6) 0.4616(4) 1.4291(5)
C12 C 1.1702(5) 0.5122(3) 1.3700(5)
C13 C 1.1125(5) 0.4914(3) 1.2355(4)
N1 N 0.6103(4) 0.6776(3) 0.9367(4)
N2 N 1.1534(6) 0.6006(4) 1.5602(5)
O1 O 0.8470(4) 0.7666(2) 0.8816(3)
O2 O 0.1094(4) 0.6450(3) 0.9515(4)
O3 O 0.7294(4) 0.8326(2) 0.7105(3)
O4 O 0.2482(4) 0.5172(3) 0.9656(3)
O5 O 0.9935(4) 0.7622(3) 1.1548(4)
O6 O 1.0206(4) 0.5451(3) 1.1824(4)
O7 O 1.1612(4) 0.4208(3) 1.1864(4)
H7 H 1.327(7) 0.409(5) 1.387(7)
Nd1_2 Nd -0.12469(2) 0.632579(15) 1.03154(2)
Nd1C Nd 0.87531(2) 0.867421(15) 0.53154(2)
Nd1B Nd 0.12469(2) 0.367421(15) 0.96846(2)
Nd1B_2 Nd 1.12469(2) 0.367421(15) 0.96846(2)
O2_2 O 1.1094(4) 0.6450(3) 0.9515(4)
O3C O 0.7294(4) 0.6674(2) 1.2105(3)
O4B O 0.7518(4) 0.4828(3) 1.0344(3)
O7B O 0.8388(4) 0.5792(3) 0.8136(4)
loop_
_geom_bond_atom_site_label_1
_geom_bond_atom_site_label_2
_geom_bond_site_symmetry_1
_geom_bond_site_symmetry_2
Nd1 N1 1_555 1_555
C1 C2 1_555 1_555
C2 H1 1_555 1_555
C3 C2 1_555 1_555
H2 C3 1_555 1_555
C4 C3 1_555 1_555
C5 C4 1_555 1_555
H3 C5 1_555 1_555
C6 C1 1_555 1_555
C7 C4 1_555 1_555
C8 H4 1_555 1_555
C9 H5 1_555 1_555
C10 C9 1_555 1_555
H6 C10 1_555 1_555
C11 C10 1_555 1_555
C12 C8 1_555 1_555
C13 C12 1_555 1_555
N1 C1 1_555 1_555
N2 C8 1_555 1_555
O1 Nd1 1_555 1_555
O2 C7 1_555 1_555
O3 C6 1_555 1_555
O4 C7 1_555 1_555
O5 Nd1 1_555 1_555
O6 Nd1 1_555 1_555
O7 C13 1_555 1_555
H7 C11 1_555 1_555
Nd1_2 O2 1_555 1_555
Nd1C O3 1_555 1_555
Nd1B O4 1_555 1_555
Nd1B_2 O7 1_555 1_555
O2_2 Nd1 1_555 1_555
O3C Nd1 1_555 1_555
O4B Nd1 1_555 1_555
O7B Nd1 1_555 1_555
C5 N1 1_555 1_555
C6 O1 1_555 1_555
C9 N2 1_555 1_555
C11 C12 1_555 1_555
C13 O6 1_555 1_555

#END
