
#######################################################################
#
#                 Cambridge Crystallographic Data Centre
#                                CCDC 
#
#######################################################################
#
# If this CIF has been generated from an entry in the Cambridge 
# Structural Database, then it will include bibliographic, chemical, 
# crystal, experimental, refinement or atomic coordinate data resulting 
# from the CCDC's data processing and validation procedures.
#
#######################################################################

data_DITZAJ
_symmetry_cell_setting           orthorhombic
_symmetry_space_group_name_H-M   'P 21 21 21'
_symmetry_Int_Tables_number      19
_space_group_name_Hall           'P 2ac 2ab'
loop_
_symmetry_equiv_pos_site_id
_symmetry_equiv_pos_as_xyz
1 x,y,z
2 1/2-x,-y,1/2+z
3 -x,1/2+y,1/2-z
4 1/2+x,1/2-y,-z
_cell_length_a                   8.8662(6)
_cell_length_b                   10.1720(6)
_cell_length_c                   16.6340(11)
_cell_angle_alpha                90
_cell_angle_beta                 90
_cell_angle_gamma                90
_cell_volume                     1500.17
loop_
_atom_site_label
_atom_site_type_symbol
_atom_site_fract_x
_atom_site_fract_y
_atom_site_fract_z
Cu1 Cu -0.00728(3) 0.51192(3) 0.252570(17)
O1 O 0.19137(19) 0.42599(16) 0.27504(10)
H1 H 0.192(2) 0.3433(7) 0.2708(14)
H2 H 0.2618(12) 0.4530(16) 0.2447(9)
O2 O 0.07447(19) 0.7639(2) 0.55540(10)
O3 O -0.0870(2) 0.81961(19) 0.65129(10)
H3 H -0.0191 0.8706 0.6635
O4 O -0.1783(2) 0.6534(2) -0.05056(12)
O5 O -0.0737(2) 0.6787(2) -0.16998(11)
H4 H -0.0298 0.6192 -0.1936
N1 N -0.1064(2) 0.5783(2) 0.49031(11)
N2 N -0.0174(2) 0.4717(2) 0.49845(12)
N3 N 0.0216(2) 0.4353(2) 0.42648(11)
N4 N -0.0427(2) 0.51958(18) 0.37160(11)
N5 N 0.0920(2) 0.5781(2) 0.01531(11)
N6 N 0.1512(3) 0.4580(2) 0.02426(12)
N7 N 0.1252(3) 0.4223(2) 0.09774(12)
N8 N 0.0490(2) 0.52020(19) 0.13626(11)
C1 C -0.1203(3) 0.6068(2) 0.41282(14)
H5 H -0.1752 0.6763 0.3914
C2 C -0.1610(3) 0.6494(3) 0.56077(14)
H6 H -0.1821 0.5877 0.6038
H7 H -0.2540 0.6947 0.5475
C3 C -0.0445(3) 0.7480(3) 0.58857(13)
C4 C 0.0297(3) 0.6150(2) 0.08443(14)
H8 H -0.0190 0.6944 0.0941
C5 C 0.0906(3) 0.6430(3) -0.06279(14)
H9 H 0.1489 0.5920 -0.1010
H10 H 0.1365 0.7293 -0.0582
C6 C -0.0701(3) 0.6568(3) -0.09258(15)
Cl1 Cl -0.23153(7) 0.61567(6) 0.22551(4)
Cl2 Cl -0.13388(6) 0.26646(6) 0.23855(3)
Cu1B Cu 0.00728(3) 0.01192(3) 0.247430(17)
Cl2B Cl 0.13388(6) 0.76646(6) 0.26145(3)
O6 O 0.4276(2) 0.5060(2) 0.18856(13)
H11 H 0.5064(11) 0.5386(19) 0.2094(11)
H12 H 0.402(2) 0.5637(13) 0.1543(9)
loop_
_geom_bond_atom_site_label_1
_geom_bond_atom_site_label_2
_geom_bond_site_symmetry_1
_geom_bond_site_symmetry_2
Cu1 O1 1_555 1_555
O1 H1 1_555 1_555
H2 O1 1_555 1_555
O2 C3 1_555 1_555
O3 H3 1_555 1_555
O4 C6 1_555 1_555
O5 H4 1_555 1_555
N1 N2 1_555 1_555
N2 N3 1_555 1_555
N3 N4 1_555 1_555
N4 Cu1 1_555 1_555
N5 N6 1_555 1_555
N6 N7 1_555 1_555
N7 N8 1_555 1_555
N8 Cu1 1_555 1_555
C1 N1 1_555 1_555
H5 C1 1_555 1_555
C2 N1 1_555 1_555
H6 C2 1_555 1_555
H7 C2 1_555 1_555
C3 O3 1_555 1_555
C4 N5 1_555 1_555
H8 C4 1_555 1_555
C5 N5 1_555 1_555
H9 C5 1_555 1_555
H10 C5 1_555 1_555
C6 O5 1_555 1_555
Cl1 Cu1 1_555 1_555
Cl2 Cu1 1_555 1_555
O6 H11 1_555 1_555
H12 O6 1_555 1_555
Cu1B Cl2 1_555 1_555
Cl2B Cu1 1_555 1_555
N4 C1 1_555 1_555
N8 C4 1_555 1_555
C2 C3 1_555 1_555
C5 C6 1_555 1_555

#END
