
#######################################################################
#
#                 Cambridge Crystallographic Data Centre
#                                CCDC 
#
#######################################################################
#
# If this CIF has been generated from an entry in the Cambridge 
# Structural Database, then it will include bibliographic, chemical, 
# crystal, experimental, refinement or atomic coordinate data resulting 
# from the CCDC's data processing and validation procedures.
#
#######################################################################

data_DIVCOC
_symmetry_cell_setting           monoclinic
_symmetry_space_group_name_H-M   'C 2/c'
_symmetry_Int_Tables_number      15
_space_group_name_Hall           '-C 2yn'
loop_
_symmetry_equiv_pos_site_id
_symmetry_equiv_pos_as_xyz
1 x,y,z
2 -x,y,1/2-z
3 1/2+x,1/2+y,z
4 1/2-x,1/2+y,1/2-z
5 -x,-y,-z
6 x,-y,1/2+z
7 1/2-x,1/2-y,-z
8 1/2+x,1/2-y,1/2+z
_cell_length_a                   16.9052(2)
_cell_length_b                   16.7980(2)
_cell_length_c                   14.3805(2)
_cell_angle_alpha                90
_cell_angle_beta                 97.2720(10)
_cell_angle_gamma                90
_cell_volume                     4050.83
loop_
_atom_site_label
_atom_site_type_symbol
_atom_site_fract_x
_atom_site_fract_y
_atom_site_fract_z
O1 O 0.40317(10) -0.10768(8) 0.21913(9)
O2 O 0.44031(11) -0.17638(7) 0.10322(10)
O3 O 0.42558(9) -0.07834(9) -0.17086(8)
O4 O 0.46000(10) -0.16051(7) -0.05594(9)
N1 N 0.36865(7) 0.02096(7) 0.12139(8)
C1 C 0.39606(8) -0.04057(8) 0.07412(10)
C2 C 0.40339(8) -0.03291(8) -0.02084(10)
N2 N 0.38516(7) 0.03671(7) -0.06538(8)
C3 C 0.36067(9) 0.09750(8) -0.01817(11)
C4 C 0.35079(9) 0.08917(9) 0.07754(11)
C5 C 0.41428(11) -0.11261(10) 0.13755(12)
C6 C 0.43074(10) -0.09444(10) -0.08791(11)
C7 C 0.34350(14) 0.17437(11) -0.07011(14)
H1 H 0.3571 0.1692 -0.1326
H2 H 0.3746 0.2163 -0.0382
H3 H 0.2878 0.1868 -0.0727
C8 C 0.31919(13) 0.15546(10) 0.13190(13)
H4 H 0.3141 0.1375 0.1942
H5 H 0.2679 0.1717 0.1014
H6 H 0.3553 0.1998 0.1349
O5 O 0.25338(8) -0.01032(11) 0.27697(12)
Li1 Li 0.36552(17) -0.01282(17) 0.2742(2)
H7 H 0.2275(17) -0.0304(16) 0.323(2)
H8 H 0.220(2) -0.0018(19) 0.233(2)
H9 H 0.4499(17) -0.1704(18) 0.023(2)
O3E O 0.42558(9) 0.07834(9) 0.32914(8)
N2E N 0.38516(7) -0.03671(7) 0.43462(8)
Li1E Li 0.36552(17) 0.01282(17) -0.2258(2)
O6 O -0.09821(8) 0.12180(9) 0.68432(9)
O7 O -0.16977(7) 0.06333(9) 0.56697(9)
H10 H -0.1667(15) 0.0483(16) 0.4900(19)
O8 O -0.08820(9) 0.05683(9) 0.29824(8)
O9 O -0.16205(7) 0.02872(9) 0.40804(9)
N3 N 0.02790(7) 0.13911(7) 0.59970(8)
C9 C -0.03649(8) 0.10845(8) 0.54690(10)
C10 C -0.03376(8) 0.09184(8) 0.45215(10)
N4 N 0.03342(8) 0.10634(7) 0.41328(8)
C11 C 0.09685(9) 0.13481(9) 0.46587(11)
C12 C 0.09424(9) 0.15177(9) 0.56170(11)
C13 C -0.10577(9) 0.09773(9) 0.60402(11)
C14 C -0.09889(10) 0.05765(9) 0.38036(12)
C15 C 0.17054(12) 0.14820(14) 0.41993(14)
H11 H 0.1617 0.1297 0.3563
H12 H 0.2143 0.1194 0.4534
H13 H 0.1829 0.2040 0.4207
C16 C 0.16447(11) 0.18443(13) 0.62319(13)
H14 H 0.1512 0.1909 0.6857
H15 H 0.1789 0.2351 0.5994
H16 H 0.2086 0.1483 0.6240
O10 O 0.0000 0.27959(11) 0.7500
Li2 Li 0.0000 0.1656(2) 0.7500
Li3 Li 0.0000 0.1074(2) 0.2500
O11 O 0.0000 0.21954(12) 0.2500
H17 H 0.0175(17) 0.2467(17) 0.2957(18)
H18 H 0.016(2) 0.310(2) 0.709(2)
H18A H -0.016(2) 0.310(2) 0.791(2)
H17A H -0.0175(17) 0.2467(17) 0.2043(18)
O6A O 0.09821(8) 0.12180(9) -0.18432(9)
O7A O 0.16977(7) 0.06333(9) -0.06697(9)
H10A H 0.1667(15) 0.0483(16) 0.0100(19)
O8A O 0.08820(9) 0.05683(9) 0.20176(8)
O9A O 0.16205(7) 0.02872(9) 0.09196(9)
N3A N -0.02790(7) 0.13911(7) -0.09970(8)
C9A C 0.03649(8) 0.10845(8) -0.04690(10)
C10A C 0.03376(8) 0.09184(8) 0.04785(10)
N4A N -0.03342(8) 0.10634(7) 0.08672(8)
C11A C -0.09685(9) 0.13481(9) 0.03413(11)
C12A C -0.09424(9) 0.15177(9) -0.06170(11)
C13A C 0.10577(9) 0.09773(9) -0.10402(11)
C14A C 0.09889(10) 0.05765(9) 0.11964(12)
C15A C -0.17054(12) 0.14820(14) 0.08007(14)
H11A H -0.1617 0.1297 0.1437
H12A H -0.2143 0.1194 0.0466
H13A H -0.1829 0.2040 0.0793
C16A C -0.16447(11) 0.18443(13) -0.12319(13)
H14A H -0.1512 0.1909 -0.1857
H15A H -0.1789 0.2351 -0.0994
H16A H -0.2086 0.1483 -0.1240
O6A_2 O 0.09821(8) 0.12180(9) 0.81568(9)
N3A_2 N -0.02790(7) 0.13911(7) 0.90030(8)
Li2_2 Li 0.0000 0.1656(2) -0.2500
loop_
_geom_bond_atom_site_label_1
_geom_bond_atom_site_label_2
_geom_bond_site_symmetry_1
_geom_bond_site_symmetry_2
O1 C5 1_555 1_555
O2 C5 1_555 1_555
O3 C6 1_555 1_555
O4 C6 1_555 1_555
N1 C1 1_555 1_555
C1 C2 1_555 1_555
C2 N2 1_555 1_555
N2 C3 1_555 1_555
C3 C4 1_555 1_555
C4 N1 1_555 1_555
C5 C1 1_555 1_555
C6 C2 1_555 1_555
C7 C3 1_555 1_555
H1 C7 1_555 1_555
H2 C7 1_555 1_555
H3 C7 1_555 1_555
C8 C4 1_555 1_555
H4 C8 1_555 1_555
H5 C8 1_555 1_555
H6 C8 1_555 1_555
O5 Li1 1_555 1_555
Li1 O1 1_555 1_555
H7 O5 1_555 1_555
H8 O5 1_555 1_555
H9 O2 1_555 1_555
O6 C13 1_555 1_555
O7 H10 1_555 1_555
H10 O9 1_555 1_555
O8 C14 1_555 1_555
O9 C14 1_555 1_555
N3 C9 1_555 1_555
C9 C10 1_555 1_555
C10 N4 1_555 1_555
N4 C11 1_555 1_555
C11 C12 1_555 1_555
C12 N3 1_555 1_555
C13 O7 1_555 1_555
C14 C10 1_555 1_555
C15 C11 1_555 1_555
H11 C15 1_555 1_555
H12 C15 1_555 1_555
H13 C15 1_555 1_555
C16 C12 1_555 1_555
H14 C16 1_555 1_555
H15 C16 1_555 1_555
H16 C16 1_555 1_555
O10 Li2 1_555 1_555
Li2 O6 1_555 1_555
Li3 O8 1_555 1_555
O11 Li3 1_555 1_555
H17 O11 1_555 1_555
H18 O10 1_555 1_555
O3E Li1 1_555 1_555
N2E Li1 1_555 1_555
Li1E O3 1_555 1_555
H18A O10 1_555 1_555
H17A O11 1_555 1_555
O6A C13A 1_555 1_555
O7A H10A 1_555 1_555
H10A O9A 1_555 1_555
O8A Li3 1_555 1_555
O9A C14A 1_555 1_555
N3A C9A 1_555 1_555
C9A C10A 1_555 1_555
C10A N4A 1_555 1_555
N4A Li3 1_555 1_555
C11A N4A 1_555 1_555
C12A N3A 1_555 1_555
C13A O7A 1_555 1_555
C14A O8A 1_555 1_555
C15A C11A 1_555 1_555
H11A C15A 1_555 1_555
H12A C15A 1_555 1_555
H13A C15A 1_555 1_555
C16A C12A 1_555 1_555
H14A C16A 1_555 1_555
H15A C16A 1_555 1_555
H16A C16A 1_555 1_555
O6A_2 Li2 1_555 1_555
N3A_2 Li2 1_555 1_555
Li2_2 O6A 1_555 1_555
O4 H9 1_555 1_555
N1 Li1 1_555 1_555
N2 Li1E 1_555 1_555
N3 Li2 1_555 1_555
C9 C13 1_555 1_555
N4 Li3 1_555 1_555
N3A Li2_2 1_555 1_555
C9A C13A 1_555 1_555
C10A C14A 1_555 1_555
C11A C12A 1_555 1_555

#END
