
#######################################################################
#
#                 Cambridge Crystallographic Data Centre
#                                CCDC 
#
#######################################################################
#
# If this CIF has been generated from an entry in the Cambridge 
# Structural Database, then it will include bibliographic, chemical, 
# crystal, experimental, refinement or atomic coordinate data resulting 
# from the CCDC's data processing and validation procedures.
#
#######################################################################

data_DIVFOF
_symmetry_cell_setting           monoclinic
_symmetry_space_group_name_H-M   'C 2/c'
_symmetry_Int_Tables_number      15
_space_group_name_Hall           '-C 2yn'
loop_
_symmetry_equiv_pos_site_id
_symmetry_equiv_pos_as_xyz
1 x,y,z
2 -x,y,1/2-z
3 1/2+x,1/2+y,z
4 1/2-x,1/2+y,1/2-z
5 -x,-y,-z
6 x,-y,1/2+z
7 1/2-x,1/2-y,-z
8 1/2+x,1/2-y,1/2+z
_cell_length_a                   12.436(3)
_cell_length_b                   18.841(4)
_cell_length_c                   20.970(4)
_cell_angle_alpha                90
_cell_angle_beta                 106.13(3)
_cell_angle_gamma                90
_cell_volume                     4719.99
loop_
_atom_site_label
_atom_site_type_symbol
_atom_site_fract_x
_atom_site_fract_y
_atom_site_fract_z
Co1 Co 0.08397(5) 0.31295(4) 0.19281(3)
C1 C -0.1303(4) 0.3940(3) 0.1736(2)
C2 C -0.2212(4) 0.4429(3) 0.1341(2)
C3 C -0.2731(4) 0.4865(3) 0.1690(3)
H1 H -0.2491 0.4863 0.2152
C4 C -0.3595(5) 0.5303(3) 0.1372(3)
H2 H -0.3953 0.5596 0.1607
C5 C -0.3905(5) 0.5289(3) 0.0694(3)
H3 H -0.4491 0.5582 0.0471
C6 C -0.2583(4) 0.4467(3) 0.0651(2)
C7 C -0.2783(4) 0.4233(3) -0.0674(2)
H4 H -0.2729 0.3876 -0.0997
H5 H -0.3564 0.4266 -0.0681
C8 C -0.2431(4) 0.4937(3) -0.0893(2)
C9 C -0.3044(4) 0.5236(3) -0.1488(2)
H6 H -0.3713 0.5028 -0.1727
C10 C -0.2661(4) 0.5844(3) -0.1728(2)
H7 H -0.3094 0.6039 -0.2123
C11 C -0.1146(5) 0.5903(3) -0.0822(2)
H8 H -0.0499 0.6134 -0.0581
C12 C -0.1488(5) 0.5309(3) -0.0546(3)
H9 H -0.1084 0.5158 -0.0126
C13 C 0.2508(4) 0.2095(3) 0.2801(3)
C14 C 0.3678(4) 0.1817(3) 0.3096(2)
C15 C 0.3872(5) 0.1094(3) 0.3089(3)
H10 H 0.3290 0.0786 0.2890
C16 C 0.4931(5) 0.0831(3) 0.3379(3)
H11 H 0.5083 0.0348 0.3375
C17 C 0.5748(5) 0.1306(4) 0.3673(3)
H12 H 0.6463 0.1129 0.3865
C18 C 0.4584(4) 0.2254(3) 0.3410(2)
C19 C 0.5521(5) 0.3416(3) 0.4153(2)
H13 H 0.6201 0.3269 0.4051
H14 H 0.5542 0.3929 0.4192
C20 C 0.5534(4) 0.3107(3) 0.4825(2)
C21 C 0.4588(4) 0.2933(3) 0.5005(3)
H15 H 0.3889 0.2990 0.4701
C22 C 0.4661(4) 0.2674(3) 0.5634(3)
H16 H 0.4003 0.2569 0.5742
C23 C 0.6573(4) 0.2739(3) 0.5920(3)
H17 H 0.7262 0.2676 0.6232
C24 C 0.6555(4) 0.3005(3) 0.5303(3)
H18 H 0.7222 0.3116 0.5207
N1 N -0.3425(4) 0.4883(2) 0.0329(2)
N2 N -0.1691(3) 0.6163(2) -0.14123(19)
N3 N 0.5599(4) 0.2001(3) 0.3706(2)
N4 N 0.5636(3) 0.2567(2) 0.60908(19)
O1 O -0.0699(3) 0.36150(18) 0.14384(15)
O2 O -0.1236(3) 0.38922(19) 0.23419(16)
O3 O 0.2371(3) 0.26257(19) 0.24315(16)
O4 O 0.1751(3) 0.1750(2) 0.2948(2)
O5 O 0.0000 0.2498(2) 0.2500
S1 S -0.19983(11) 0.39258(7) 0.01361(6)
S2 S 0.43544(12) 0.31811(8) 0.34650(7)
H19 H 0.046(9) 0.218(4) 0.271(5)
H19A H -0.046(9) 0.218(4) 0.229(5)
Co1A Co -0.08397(5) 0.31295(4) 0.30719(3)
C1A C 0.1303(4) 0.3940(3) 0.3264(2)
C2A C 0.2212(4) 0.4429(3) 0.3659(2)
C3A C 0.2731(4) 0.4865(3) 0.3310(3)
H1A H 0.2491 0.4863 0.2848
C4A C 0.3595(5) 0.5303(3) 0.3628(3)
H2A H 0.3953 0.5596 0.3393
C5A C 0.3905(5) 0.5289(3) 0.4306(3)
H3A H 0.4491 0.5582 0.4529
C6A C 0.2583(4) 0.4467(3) 0.4349(2)
C7A C 0.2783(4) 0.4233(3) 0.5674(2)
H4A H 0.2729 0.3876 0.5997
H5A H 0.3564 0.4266 0.5681
C8A C 0.2431(4) 0.4937(3) 0.5893(2)
C9A C 0.3044(4) 0.5236(3) 0.6488(2)
H6A H 0.3713 0.5028 0.6727
C10A C 0.2661(4) 0.5844(3) 0.6728(2)
H7A H 0.3094 0.6039 0.7123
C11A C 0.1146(5) 0.5903(3) 0.5822(2)
H8A H 0.0499 0.6134 0.5581
C12A C 0.1488(5) 0.5309(3) 0.5546(3)
H9A H 0.1084 0.5158 0.5126
C13A C -0.2508(4) 0.2095(3) 0.2199(3)
C14A C -0.3678(4) 0.1817(3) 0.1904(2)
C15A C -0.3872(5) 0.1094(3) 0.1911(3)
H10A H -0.3290 0.0786 0.2110
C16A C -0.4931(5) 0.0831(3) 0.1621(3)
H11A H -0.5083 0.0348 0.1625
C17A C -0.5748(5) 0.1306(4) 0.1327(3)
H12A H -0.6463 0.1129 0.1135
C18A C -0.4584(4) 0.2254(3) 0.1590(2)
C19A C -0.5521(5) 0.3416(3) 0.0847(2)
H13A H -0.6201 0.3269 0.0949
H14A H -0.5542 0.3929 0.0808
C20A C -0.5534(4) 0.3107(3) 0.0175(2)
C21A C -0.4588(4) 0.2933(3) -0.0005(3)
H15A H -0.3889 0.2990 0.0299
C22A C -0.4661(4) 0.2674(3) -0.0634(3)
H16A H -0.4003 0.2569 -0.0742
C23A C -0.6573(4) 0.2739(3) -0.0920(3)
H17A H -0.7262 0.2676 -0.1232
C24A C -0.6555(4) 0.3005(3) -0.0303(3)
H18A H -0.7222 0.3116 -0.0207
N1A N 0.3425(4) 0.4883(2) 0.4671(2)
N2A N 0.1691(3) 0.6163(2) 0.64123(19)
N3A N -0.5599(4) 0.2001(3) 0.1294(2)
N4A N -0.5636(3) 0.2567(2) -0.10908(19)
O1A O 0.0699(3) 0.36150(18) 0.35616(15)
O2A O 0.1236(3) 0.38922(19) 0.26581(16)
O3A O -0.2371(3) 0.26257(19) 0.25685(16)
O4A O -0.1751(3) 0.1750(2) 0.2052(2)
S1A S 0.19983(11) 0.39258(7) 0.48639(6)
S2A S -0.43544(12) 0.31811(8) 0.15350(7)
Co1D Co -0.08397(5) 0.68705(4) -0.19281(3)
Co1E Co 0.08397(5) 0.68705(4) 0.69281(3)
Co1F Co -0.58397(5) 0.18705(4) -0.19281(3)
Co1G Co 0.58397(5) 0.18705(4) 0.69281(3)
N2D N 0.1691(3) 0.3837(2) 0.14123(19)
N2E N -0.1691(3) 0.3837(2) 0.35877(19)
N4F N -0.0636(3) 0.2433(2) 0.39092(19)
N4G N 0.0636(3) 0.2433(2) 0.10908(19)
O6 O 0.0000 0.0791(9) 0.2500
H20? H -0.054(8) 0.235(4) 0.218(5)
loop_
_geom_bond_atom_site_label_1
_geom_bond_atom_site_label_2
_geom_bond_site_symmetry_1
_geom_bond_site_symmetry_2
Co1 O1 1_555 1_555
C1 C2 1_555 1_555
C2 C3 1_555 1_555
C3 H1 1_555 1_555
C4 C3 1_555 1_555
H2 C4 1_555 1_555
C5 C4 1_555 1_555
H3 C5 1_555 1_555
C6 C2 1_555 1_555
C7 H4 1_555 1_555
H5 C7 1_555 1_555
C8 C7 1_555 1_555
C9 C8 1_555 1_555
H6 C9 1_555 1_555
C10 C9 1_555 1_555
H7 C10 1_555 1_555
C11 H8 1_555 1_555
C12 C8 1_555 1_555
H9 C12 1_555 1_555
C13 C14 1_555 1_555
C14 C15 1_555 1_555
C15 H10 1_555 1_555
C16 C15 1_555 1_555
H11 C16 1_555 1_555
C17 C16 1_555 1_555
H12 C17 1_555 1_555
C18 C14 1_555 1_555
C19 H13 1_555 1_555
H14 C19 1_555 1_555
C20 C19 1_555 1_555
C21 C20 1_555 1_555
H15 C21 1_555 1_555
C22 C21 1_555 1_555
H16 C22 1_555 1_555
C23 H17 1_555 1_555
C24 C20 1_555 1_555
H18 C24 1_555 1_555
N1 C5 1_555 1_555
N2 C10 1_555 1_555
N3 C17 1_555 1_555
N4 C22 1_555 1_555
O1 C1 1_555 1_555
O2 C1 1_555 1_555
O3 Co1 1_555 1_555
O4 C13 1_555 1_555
O5 Co1 1_555 1_555
S1 C6 1_555 1_555
S2 C18 1_555 1_555
H19 O5 1_555 1_555
H19A O5 1_555 1_555
Co1A O2 1_555 1_555
C1A C2A 1_555 1_555
C2A C3A 1_555 1_555
C3A H1A 1_555 1_555
C4A C3A 1_555 1_555
H2A C4A 1_555 1_555
C5A C4A 1_555 1_555
H3A C5A 1_555 1_555
C6A C2A 1_555 1_555
C7A H4A 1_555 1_555
H5A C7A 1_555 1_555
C8A C7A 1_555 1_555
C9A C8A 1_555 1_555
H6A C9A 1_555 1_555
C10A C9A 1_555 1_555
H7A C10A 1_555 1_555
C11A H8A 1_555 1_555
C12A C8A 1_555 1_555
H9A C12A 1_555 1_555
C13A C14A 1_555 1_555
C14A C15A 1_555 1_555
C15A H10A 1_555 1_555
C16A C15A 1_555 1_555
H11A C16A 1_555 1_555
C17A C16A 1_555 1_555
H12A C17A 1_555 1_555
C18A C14A 1_555 1_555
C19A H13A 1_555 1_555
H14A C19A 1_555 1_555
C20A C19A 1_555 1_555
C21A C20A 1_555 1_555
H15A C21A 1_555 1_555
C22A C21A 1_555 1_555
H16A C22A 1_555 1_555
C23A H17A 1_555 1_555
C24A C20A 1_555 1_555
H18A C24A 1_555 1_555
N1A C5A 1_555 1_555
N2A C10A 1_555 1_555
N3A C17A 1_555 1_555
N4A C22A 1_555 1_555
O1A Co1A 1_555 1_555
O2A Co1 1_555 1_555
O3A Co1A 1_555 1_555
O4A C13A 1_555 1_555
S1A C6A 1_555 1_555
S2A C18A 1_555 1_555
Co1D N2 1_555 1_555
Co1E N2A 1_555 1_555
Co1F N4A 1_555 1_555
Co1G N4 1_555 1_555
N2D Co1 1_555 1_555
N2E Co1A 1_555 1_555
N4F Co1A 1_555 1_555
N4G Co1 1_555 1_555
C6 N1 1_555 1_555
C7 S1 1_555 1_555
C11 C12 1_555 1_555
C11 N2 1_555 1_555
C13 O3 1_555 1_555
C18 N3 1_555 1_555
C19 S2 1_555 1_555
C23 C24 1_555 1_555
C23 N4 1_555 1_555
O5 Co1A 1_555 1_555
C1A O1A 1_555 1_555
C1A O2A 1_555 1_555
C6A N1A 1_555 1_555
C7A S1A 1_555 1_555
C11A C12A 1_555 1_555
C11A N2A 1_555 1_555
C13A O3A 1_555 1_555
C18A N3A 1_555 1_555
C19A S2A 1_555 1_555
C23A C24A 1_555 1_555
C23A N4A 1_555 1_555

#END
