
#######################################################################
#
#                 Cambridge Crystallographic Data Centre
#                                CCDC 
#
#######################################################################
#
# If this CIF has been generated from an entry in the Cambridge 
# Structural Database, then it will include bibliographic, chemical, 
# crystal, experimental, refinement or atomic coordinate data resulting 
# from the CCDC's data processing and validation procedures.
#
#######################################################################

data_DIVGIA
_symmetry_cell_setting           trigonal
_symmetry_space_group_name_H-M   'P 32 2 1'
_symmetry_Int_Tables_number      154
_space_group_name_Hall           'P 32 2"'
loop_
_symmetry_equiv_pos_site_id
_symmetry_equiv_pos_as_xyz
1 x,y,z
2 -y,x-y,2/3+z
3 -x+y,-x,1/3+z
4 y,x,-z
5 -x,-x+y,2/3-z
6 x-y,-y,1/3-z
_cell_length_a                   12.83870(10)
_cell_length_b                   12.83870(10)
_cell_length_c                   64.3824(8)
_cell_angle_alpha                90
_cell_angle_beta                 90
_cell_angle_gamma                120
_cell_volume                     9190.52
loop_
_atom_site_label
_atom_site_type_symbol
_atom_site_fract_x
_atom_site_fract_y
_atom_site_fract_z
Ag1 Ag -0.03016(6) 0.65218(6) 0.078179(11)
Ag2 Ag 0.62473(7) 1.50863(7) 0.164280(11)
Ag3 Ag -0.12441(10) -0.12441(10) 0.0000
Si1 Si -0.0213(2) 0.1194(2) 0.09675(3)
Si2 Si -0.5735(2) 0.6535(2) 0.07594(4)
Si3 Si 0.5195(2) 1.1923(2) 0.07218(4)
Si4 Si 0.5344(3) 2.0000 0.1667
N1 N -0.0169(6) 0.4823(6) 0.08450(11)
N2 N -0.1067(7) -0.0807(7) 0.03245(12)
N3 N -0.2062(6) 0.6540(6) 0.07945(11)
N4 N -0.7724(6) 0.5503(7) 0.14034(10)
N5 N 0.1498(6) 0.8307(6) 0.07697(12)
N6 N 0.5922(6) 1.4194(6) 0.13331(11)
N7 N 0.5846(7) 1.6613(7) 0.16439(11)
N8 N -0.0380(7) 0.6223(8) 0.03955(13)
C1 C -0.0135(7) 0.4153(8) 0.06868(15)
H1 H -0.0090 0.4427 0.0551
C2 C -0.0165(9) 0.3080(9) 0.07182(15)
H2 H -0.0162 0.2642 0.0603
C3 C -0.0198(7) 0.2641(8) 0.09096(12)
C4 C -0.0206(8) 0.3358(8) 0.10785(12)
H3 H -0.0221 0.3114 0.1215
C5 C -0.0190(8) 0.4415(8) 0.10357(14)
H4 H -0.0195 0.4874 0.1147
C6 C 0.1185(9) 0.1423(10) 0.10995(14)
H5 H 0.1499 0.0958 0.1033
H6 H 0.1803 0.2266 0.1101
C7 C 0.0726(14) 0.0964(14) 0.1318(2)
H7 H 0.1177 0.0605 0.1373
H8 H 0.0898 0.1648 0.1405
C8 C -0.0497(13) 0.0125(15) 0.1335(2)
H9 H -0.0760 0.0155 0.1475
H10 H -0.0611 -0.0674 0.1314
C9 C -0.1277(9) 0.0315(8) 0.11838(13)
H11 H -0.1614 0.0767 0.1247
H12 H -0.1927 -0.0447 0.1134
C10 C -0.0568(8) 0.0316(7) 0.07162(13)
C11 C -0.1700(9) -0.0199(10) 0.06223(14)
H13 H -0.2322 -0.0163 0.0690
C12 C -0.1906(10) -0.0743(10) 0.04370(15)
H14 H -0.2682 -0.1098 0.0384
C13 C 0.0012(10) -0.0351(12) 0.04106(18)
H15 H 0.0611 -0.0416 0.0341
C14 C 0.0279(9) 0.0238(10) 0.06075(17)
H16 H 0.1054 0.0571 0.0661
C15 C -0.2497(9) 0.6854(8) 0.09588(14)
H17 H -0.2032 0.7116 0.1079
C16 C -0.3586(9) 0.6807(9) 0.09585(14)
H18 H -0.3855 0.6997 0.1079
C17 C -0.4283(8) 0.6484(9) 0.07835(16)
C18 C -0.3831(9) 0.6169(9) 0.06146(14)
H19 H -0.4270 0.5933 0.0492
C19 C -0.2756(8) 0.6199(9) 0.06247(14)
H20 H -0.2492 0.5972 0.0508
C20 C -0.5424(10) 0.8034(10) 0.06572(18)
H21 H -0.5858 0.8341 0.0736
H22 H -0.4571 0.8618 0.0661
C21 C -0.5890(14) 0.7731(13) 0.0432(2)
H23 H -0.6061 0.8336 0.0378
H24 H -0.5290 0.7708 0.0343
C22 C -0.7008(14) 0.6532(15) 0.0435(2)
H25 H -0.7278 0.6271 0.0294
H26 H -0.7639 0.6587 0.0508
C23 C -0.6756(9) 0.5630(10) 0.05420(15)
H27 H -0.6362 0.5340 0.0449
H28 H -0.7490 0.4951 0.0594
C24 C -0.6485(8) 0.6161(8) 0.10194(13)
C25 C -0.6961(8) 0.6799(9) 0.11120(16)
H29 H -0.6879 0.7479 0.1046
C26 C -0.7561(8) 0.6460(8) 0.13017(14)
H30 H -0.7857 0.6927 0.1358
C27 C -0.7267(10) 0.4851(10) 0.13181(15)
H31 H -0.7369 0.4172 0.1388
C28 C -0.6663(9) 0.5154(9) 0.11337(14)
H32 H -0.6361 0.4681 0.1082
C29 C 0.2074(8) 0.8907(8) 0.09381(14)
H33 H 0.1739 0.8587 0.1067
C30 C 0.3149(8) 0.9988(7) 0.09329(13)
H34 H 0.3517 1.0375 0.1056
C31 C 0.3673(7) 1.0492(7) 0.07444(11)
C32 C 0.3052(8) 0.9867(8) 0.05659(14)
H35 H 0.3349 1.0177 0.0435
C33 C 0.1998(8) 0.8787(8) 0.05866(14)
H36 H 0.1613 0.8369 0.0467
C34 C 0.6417(11) 1.1545(12) 0.0691(2)
H37 H 0.7122 1.2087 0.0771
H38 H 0.6146 1.0725 0.0734
C35 C 0.6670(14) 1.1690(19) 0.0474(3)
H39 H 0.6066 1.0986 0.0401
H40 H 0.7447 1.1759 0.0449
C36 C 0.5449(11) 1.2687(10) 0.04688(18)
H41 H 0.4800 1.2213 0.0373
H42 H 0.5528 1.3475 0.0484
C37 C 0.6677(15) 1.2790(14) 0.0394(3)
H43 H 0.6726 1.2818 0.0243
H44 H 0.7358 1.3512 0.0449
C38 C 0.5454(7) 1.2866(7) 0.09586(14)
C39 C 0.6598(8) 1.3652(8) 0.10229(14)
H45 H 0.7249 1.3750 0.0944
C40 C 0.6797(9) 1.4306(9) 0.12052(14)
H46 H 0.7587 1.4858 0.1241
C41 C 0.4823(8) 1.3440(8) 0.12692(13)
H47 H 0.4188 1.3332 0.1353
C42 C 0.4547(8) 1.2797(8) 0.10861(13)
H48 H 0.3747 1.2314 0.1048
C43 C 0.6622(10) 1.7651(11) 0.15616(17)
H49 H 0.7311 1.7713 0.1502
C44 C 0.6495(11) 1.8670(11) 0.15562(16)
H50 H 0.7055 1.9356 0.1486
C45 C 0.5528(8) 1.8654(8) 0.16568(13)
C46 C 0.4732(9) 1.7566(9) 0.17461(17)
H51 H 0.4061 1.7487 0.1815
C47 C 0.4908(9) 1.6582(8) 0.17353(16)
H52 H 0.4334 1.5863 0.1796
C48 C 0.4419(9) 2.0072(9) 0.14490(15)
H53 H 0.4910 2.0711 0.1352
H54 H 0.4008 1.9315 0.1374
C49 C 0.3533(10) 2.0329(11) 0.15606(17)
H55 H 0.2813 2.0052 0.1477
H56 H 0.3887 2.1188 0.1582
C50 C -0.0369(9) 0.6052(9) 0.02246(15)
C51 C -0.0299(18) 0.5870(14) 0.00047(17)
H57 H 0.0181 0.6634 -0.0062
H58 H -0.1093 0.5477 -0.0054
H59 H 0.0061 0.5379 -0.0016
N7E N 0.9233(10) 2.3387(7) 0.16894(11)
C43E C 0.8971(15) 2.2349(11) 0.17717(17)
H49E H 0.9598 2.2287 0.1831
C44E C 0.7825(16) 2.1330(11) 0.17771(16)
H50E H 0.7699 2.0644 0.1847
C45E C 0.6874(11) 2.1346(8) 0.16765(13)
C46E C 0.7166(13) 2.2434(9) 0.15872(17)
H51E H 0.6574 2.2513 0.1518
C47E C 0.8326(12) 2.3418(8) 0.15980(16)
H52E H 0.8471 2.4137 0.1537
C48E C 0.4347(13) 1.9928(9) 0.18843(15)
H53E H 0.4199 1.9289 0.1981
H54E H 0.4693 2.0685 0.1959
C49E C 0.3204(15) 1.9671(11) 0.17727(17)
H55E H 0.2761 1.9948 0.1856
H56E H 0.2699 1.8812 0.1751
Ag1C Ag 0.65218(6) -0.03016(6) -0.078179(11)
Ag2C Ag 1.50863(7) 0.62473(7) -0.164280(11)
Si1C Si 0.1194(2) -0.0213(2) -0.09675(3)
Si2C Si 0.6535(2) -0.5735(2) -0.07594(4)
Si3C Si 1.1923(2) 0.5195(2) -0.07218(4)
N1C N 0.4823(6) -0.0169(6) -0.08450(11)
N2C N -0.0807(7) -0.1067(7) -0.03245(12)
N3C N 0.6540(6) -0.2062(6) -0.07945(11)
N4C N 0.5503(7) -0.7724(6) -0.14034(10)
N5C N 0.8307(6) 0.1498(6) -0.07697(12)
N6C N 1.4194(6) 0.5922(6) -0.13331(11)
N8C N 0.6223(8) -0.0380(7) -0.03955(13)
C1C C 0.4153(8) -0.0135(7) -0.06868(15)
H1C H 0.4427 -0.0090 -0.0551
C2C C 0.3080(9) -0.0165(9) -0.07182(15)
H2C H 0.2642 -0.0162 -0.0603
C3C C 0.2641(8) -0.0198(7) -0.09096(12)
C4C C 0.3358(8) -0.0206(8) -0.10785(12)
H3C H 0.3114 -0.0221 -0.1215
C5C C 0.4415(8) -0.0190(8) -0.10357(14)
H4C H 0.4874 -0.0195 -0.1147
C6C C 0.1423(10) 0.1185(9) -0.10995(14)
H5C H 0.0958 0.1499 -0.1033
H6C H 0.2266 0.1803 -0.1101
C7C C 0.0964(14) 0.0726(14) -0.1318(2)
H7C H 0.0605 0.1177 -0.1373
H8C H 0.1648 0.0898 -0.1405
C8C C 0.0125(15) -0.0497(13) -0.1335(2)
H9C H 0.0155 -0.0760 -0.1475
H10C H -0.0674 -0.0611 -0.1314
C9C C 0.0315(8) -0.1277(9) -0.11838(13)
H11C H 0.0767 -0.1614 -0.1247
H12C H -0.0447 -0.1927 -0.1134
C10C C 0.0316(7) -0.0568(8) -0.07162(13)
C11C C -0.0199(10) -0.1700(9) -0.06223(14)
H13C H -0.0163 -0.2322 -0.0690
C12C C -0.0743(10) -0.1906(10) -0.04370(15)
H14C H -0.1098 -0.2682 -0.0384
C13C C -0.0351(12) 0.0012(10) -0.04106(18)
H15C H -0.0416 0.0611 -0.0341
C14C C 0.0238(10) 0.0279(9) -0.06075(17)
H16C H 0.0571 0.1054 -0.0661
C15C C 0.6854(8) -0.2497(9) -0.09588(14)
H17C H 0.7116 -0.2032 -0.1079
C16C C 0.6807(9) -0.3586(9) -0.09585(14)
H18C H 0.6997 -0.3855 -0.1079
C17C C 0.6484(9) -0.4283(8) -0.07835(16)
C18C C 0.6169(9) -0.3831(9) -0.06146(14)
H19C H 0.5933 -0.4270 -0.0492
C19C C 0.6199(9) -0.2756(8) -0.06247(14)
H20C H 0.5972 -0.2492 -0.0508
C20C C 0.8034(10) -0.5424(10) -0.06572(18)
H21C H 0.8341 -0.5858 -0.0736
H22C H 0.8618 -0.4571 -0.0661
C21C C 0.7731(13) -0.5890(14) -0.0432(2)
H23C H 0.8336 -0.6061 -0.0378
H24C H 0.7708 -0.5290 -0.0343
C22C C 0.6532(15) -0.7008(14) -0.0435(2)
H25C H 0.6271 -0.7278 -0.0294
H26C H 0.6587 -0.7639 -0.0508
C23C C 0.5630(10) -0.6756(9) -0.05420(15)
H27C H 0.5340 -0.6362 -0.0449
H28C H 0.4951 -0.7490 -0.0594
C24C C 0.6161(8) -0.6485(8) -0.10194(13)
C25C C 0.6799(9) -0.6961(8) -0.11120(16)
H29C H 0.7479 -0.6879 -0.1046
C26C C 0.6460(8) -0.7561(8) -0.13017(14)
H30C H 0.6927 -0.7857 -0.1358
C27C C 0.4851(10) -0.7267(10) -0.13181(15)
H31C H 0.4172 -0.7369 -0.1388
C28C C 0.5154(9) -0.6663(9) -0.11337(14)
H32C H 0.4681 -0.6361 -0.1082
C29C C 0.8907(8) 0.2074(8) -0.09381(14)
H33C H 0.8587 0.1739 -0.1067
C30C C 0.9988(7) 0.3149(8) -0.09329(13)
H34C H 1.0375 0.3517 -0.1056
C31C C 1.0492(7) 0.3673(7) -0.07444(11)
C32C C 0.9867(8) 0.3052(8) -0.05659(14)
H35C H 1.0177 0.3349 -0.0435
C33C C 0.8787(8) 0.1998(8) -0.05866(14)
H36C H 0.8369 0.1613 -0.0467
C34C C 1.1545(12) 0.6417(11) -0.0691(2)
H37C H 1.2087 0.7122 -0.0771
H38C H 1.0725 0.6146 -0.0734
C35C C 1.1690(19) 0.6670(14) -0.0474(3)
H39C H 1.0986 0.6066 -0.0401
H40C H 1.1759 0.7447 -0.0449
C36C C 1.2687(10) 0.5449(11) -0.04688(18)
H41C H 1.2213 0.4800 -0.0373
H42C H 1.3475 0.5528 -0.0484
C37C C 1.2790(14) 0.6677(15) -0.0394(3)
H43C H 1.2818 0.6726 -0.0243
H44C H 1.3512 0.7358 -0.0449
C38C C 1.2866(7) 0.5454(7) -0.09586(14)
C39C C 1.3652(8) 0.6598(8) -0.10229(14)
H45C H 1.3750 0.7249 -0.0944
C40C C 1.4306(9) 0.6797(9) -0.12052(14)
H46C H 1.4858 0.7587 -0.1241
C41C C 1.3440(8) 0.4823(8) -0.12692(13)
H47C H 1.3332 0.4188 -0.1353
C42C C 1.2797(8) 0.4547(8) -0.10861(13)
H48C H 1.2314 0.3747 -0.1048
C50C C 0.6052(9) -0.0369(9) -0.02246(15)
C51C C 0.5870(14) -0.0299(18) -0.00047(17)
H57C H 0.6634 0.0181 0.0062
H58C H 0.5477 -0.1093 0.0054
H59C H 0.5379 0.0061 0.0016
Ag2A Ag 0.49137(7) -0.88390(10) -0.169053(11)
Ag2E Ag -0.88390(10) 0.49137(7) 0.169053(11)
Ag2E_2 Ag 1.11610(10) 2.49137(7) 0.169053(11)
N4A N 1.4497(7) 0.6773(9) -0.19299(10)
N4E N 0.6773(9) 1.4497(7) 0.19299(10)
N7C N 1.6613(7) 0.5846(7) -0.16439(11)
Cl1 Cl 0.27256(17) 0.29312(17) 0.18566(3)
O1 O 0.2383(11) 0.1735(7) 0.18393(18)
O2 O 0.3012(8) 0.3246(8) 0.20692(10)
O3 O 0.3755(7) 0.3618(8) 0.17363(13)
O4 O 0.1812(7) 0.3171(8) 0.18033(13)
Cl2 Cl 0.6055(3) 0.6055(3) 0.0000
O5 O 0.7069(10) 0.6250(11) -0.01065(16)
O6 O 0.5718(18) 0.5175(12) 0.01433(18)
O5C O 0.6250(11) 0.7069(10) 0.01065(16)
O6C O 0.5175(12) 0.5718(18) -0.01433(18)
Cl3 Cl 0.9527(3) 0.2452(3) 0.00371(4)
O7 O 0.9681(17) 0.273(2) 0.02263(16)
O8 O 0.898(3) 0.131(2) 0.0027(5)
O9 O 0.8765(13) 0.2725(14) -0.00584(16)
O10 O 1.0509(12) 0.280(2) -0.00781(15)
N9 N -0.6997(12) 0.2892(12) 0.06661(19)
C52 C -0.7128(14) 0.2871(13) 0.0492(2)
C53 C -0.7365(16) 0.2850(12) 0.02750(18)
H60 H -0.6708 0.2889 0.0198
H61 H -0.7456 0.3527 0.0240
H62 H -0.8092 0.2120 0.0241
loop_
_geom_bond_atom_site_label_1
_geom_bond_atom_site_label_2
_geom_bond_site_symmetry_1
_geom_bond_site_symmetry_2
Ag1 N1 1_555 1_555
Ag2 N6 1_555 1_555
Ag3 N2 1_555 1_555
Si1 C3 1_555 1_555
Si2 C17 1_555 1_555
Si3 C31 1_555 1_555
Si4 C45 1_555 1_555
N1 C1 1_555 1_555
N2 C12 1_555 1_555
N3 Ag1 1_555 1_555
N4 C26 1_555 1_555
N5 Ag1 1_555 1_555
N6 C40 1_555 1_555
N7 Ag2 1_555 1_555
N8 Ag1 1_555 1_555
C1 H1 1_555 1_555
C2 C1 1_555 1_555
H2 C2 1_555 1_555
C3 C2 1_555 1_555
C4 C3 1_555 1_555
H3 C4 1_555 1_555
C5 N1 1_555 1_555
H4 C5 1_555 1_555
C6 Si1 1_555 1_555
H5 C6 1_555 1_555
H6 C6 1_555 1_555
C7 C6 1_555 1_555
H7 C7 1_555 1_555
H8 C7 1_555 1_555
C8 C7 1_555 1_555
H9 C8 1_555 1_555
H10 C8 1_555 1_555
C9 Si1 1_555 1_555
H11 C9 1_555 1_555
H12 C9 1_555 1_555
C10 Si1 1_555 1_555
C11 C10 1_555 1_555
H13 C11 1_555 1_555
C12 C11 1_555 1_555
H14 C12 1_555 1_555
C13 N2 1_555 1_555
H15 C13 1_555 1_555
C14 C10 1_555 1_555
H16 C14 1_555 1_555
C15 N3 1_555 1_555
H17 C15 1_555 1_555
C16 C15 1_555 1_555
H18 C16 1_555 1_555
C17 C16 1_555 1_555
C18 C17 1_555 1_555
H19 C18 1_555 1_555
C19 N3 1_555 1_555
H20 C19 1_555 1_555
C20 Si2 1_555 1_555
H21 C20 1_555 1_555
H22 C20 1_555 1_555
C21 C20 1_555 1_555
H23 C21 1_555 1_555
H24 C21 1_555 1_555
C22 C21 1_555 1_555
H25 C22 1_555 1_555
H26 C22 1_555 1_555
C23 Si2 1_555 1_555
H27 C23 1_555 1_555
H28 C23 1_555 1_555
C24 Si2 1_555 1_555
C25 C24 1_555 1_555
H29 C25 1_555 1_555
C26 C25 1_555 1_555
H30 C26 1_555 1_555
C27 N4 1_555 1_555
H31 C27 1_555 1_555
C28 C24 1_555 1_555
H32 C28 1_555 1_555
C29 N5 1_555 1_555
H33 C29 1_555 1_555
C30 C29 1_555 1_555
H34 C30 1_555 1_555
C31 C30 1_555 1_555
C32 C31 1_555 1_555
H35 C32 1_555 1_555
C33 N5 1_555 1_555
H36 C33 1_555 1_555
C34 Si3 1_555 1_555
H37 C34 1_555 1_555
H38 C34 1_555 1_555
C35 C34 1_555 1_555
H39 C35 1_555 1_555
H40 C35 1_555 1_555
C36 Si3 1_555 1_555
H41 C36 1_555 1_555
H42 C36 1_555 1_555
C37 C35 1_555 1_555
H43 C37 1_555 1_555
H44 C37 1_555 1_555
C38 Si3 1_555 1_555
C39 C38 1_555 1_555
H45 C39 1_555 1_555
C40 C39 1_555 1_555
H46 C40 1_555 1_555
C41 N6 1_555 1_555
H47 C41 1_555 1_555
C42 C38 1_555 1_555
H48 C42 1_555 1_555
C43 N7 1_555 1_555
H49 C43 1_555 1_555
C44 C43 1_555 1_555
H50 C44 1_555 1_555
C45 C44 1_555 1_555
C46 C45 1_555 1_555
H51 C46 1_555 1_555
C47 N7 1_555 1_555
H52 C47 1_555 1_555
C48 Si4 1_555 1_555
H53 C48 1_555 1_555
H54 C48 1_555 1_555
C49 C48 1_555 1_555
H55 C49 1_555 1_555
H56 C49 1_555 1_555
C50 N8 1_555 1_555
C51 C50 1_555 1_555
H57 C51 1_555 1_555
H58 C51 1_555 1_555
H59 C51 1_555 1_555
Cl1 O1 1_555 1_555
O2 Cl1 1_555 1_555
O3 Cl1 1_555 1_555
O4 Cl1 1_555 1_555
Cl2 O5 1_555 1_555
O6 Cl2 1_555 1_555
Cl3 O7 1_555 1_555
O8 Cl3 1_555 1_555
O9 Cl3 1_555 1_555
O10 Cl3 1_555 1_555
N9 C52 1_555 1_555
C52 C53 1_555 1_555
C53 H60 1_555 1_555
H61 C53 1_555 1_555
H62 C53 1_555 1_555
N7E C43E 1_555 1_555
C43E H49E 1_555 1_555
C44E C43E 1_555 1_555
H50E C44E 1_555 1_555
C45E Si4 1_555 1_555
C46E C45E 1_555 1_555
H51E C46E 1_555 1_555
C47E N7E 1_555 1_555
H52E C47E 1_555 1_555
C48E Si4 1_555 1_555
H53E C48E 1_555 1_555
H54E C48E 1_555 1_555
C49E C49 1_555 1_555
H55E C49E 1_555 1_555
H56E C49E 1_555 1_555
Ag1C N1C 1_555 1_555
Ag2C N6C 1_555 1_555
Si1C C3C 1_555 1_555
Si2C C17C 1_555 1_555
Si3C C31C 1_555 1_555
N1C C1C 1_555 1_555
N2C Ag3 1_555 1_555
N3C Ag1C 1_555 1_555
N4C C26C 1_555 1_555
N5C Ag1C 1_555 1_555
N6C C40C 1_555 1_555
N8C Ag1C 1_555 1_555
C1C H1C 1_555 1_555
C2C C1C 1_555 1_555
H2C C2C 1_555 1_555
C3C C2C 1_555 1_555
C4C C3C 1_555 1_555
H3C C4C 1_555 1_555
C5C N1C 1_555 1_555
H4C C5C 1_555 1_555
C6C Si1C 1_555 1_555
H5C C6C 1_555 1_555
H6C C6C 1_555 1_555
C7C C6C 1_555 1_555
H7C C7C 1_555 1_555
H8C C7C 1_555 1_555
C8C C7C 1_555 1_555
H9C C8C 1_555 1_555
H10C C8C 1_555 1_555
C9C Si1C 1_555 1_555
H11C C9C 1_555 1_555
H12C C9C 1_555 1_555
C10C Si1C 1_555 1_555
C11C C10C 1_555 1_555
H13C C11C 1_555 1_555
C12C N2C 1_555 1_555
H14C C12C 1_555 1_555
C13C N2C 1_555 1_555
H15C C13C 1_555 1_555
C14C C10C 1_555 1_555
H16C C14C 1_555 1_555
C15C N3C 1_555 1_555
H17C C15C 1_555 1_555
C16C C15C 1_555 1_555
H18C C16C 1_555 1_555
C17C C16C 1_555 1_555
C18C C17C 1_555 1_555
H19C C18C 1_555 1_555
C19C N3C 1_555 1_555
H20C C19C 1_555 1_555
C20C Si2C 1_555 1_555
H21C C20C 1_555 1_555
H22C C20C 1_555 1_555
C21C C20C 1_555 1_555
H23C C21C 1_555 1_555
H24C C21C 1_555 1_555
C22C C21C 1_555 1_555
H25C C22C 1_555 1_555
H26C C22C 1_555 1_555
C23C Si2C 1_555 1_555
H27C C23C 1_555 1_555
H28C C23C 1_555 1_555
C24C Si2C 1_555 1_555
C25C C24C 1_555 1_555
H29C C25C 1_555 1_555
C26C C25C 1_555 1_555
H30C C26C 1_555 1_555
C27C N4C 1_555 1_555
H31C C27C 1_555 1_555
C28C C24C 1_555 1_555
H32C C28C 1_555 1_555
C29C N5C 1_555 1_555
H33C C29C 1_555 1_555
C30C C29C 1_555 1_555
H34C C30C 1_555 1_555
C31C C30C 1_555 1_555
C32C C31C 1_555 1_555
H35C C32C 1_555 1_555
C33C N5C 1_555 1_555
H36C C33C 1_555 1_555
C34C Si3C 1_555 1_555
H37C C34C 1_555 1_555
H38C C34C 1_555 1_555
C35C C34C 1_555 1_555
H39C C35C 1_555 1_555
H40C C35C 1_555 1_555
C36C Si3C 1_555 1_555
H41C C36C 1_555 1_555
H42C C36C 1_555 1_555
C37C C35C 1_555 1_555
H43C C37C 1_555 1_555
H44C C37C 1_555 1_555
C38C Si3C 1_555 1_555
C39C C38C 1_555 1_555
H45C C39C 1_555 1_555
C40C C39C 1_555 1_555
H46C C40C 1_555 1_555
C41C N6C 1_555 1_555
H47C C41C 1_555 1_555
C42C C38C 1_555 1_555
H48C C42C 1_555 1_555
C50C N8C 1_555 1_555
C51C C50C 1_555 1_555
H57C C51C 1_555 1_555
H58C C51C 1_555 1_555
H59C C51C 1_555 1_555
Ag2A N4C 1_555 1_555
Ag2E N4 1_555 1_555
Ag2E_2 N7E 1_555 1_555
N4A Ag2C 1_555 1_555
N4E Ag2 1_555 1_555
N7C Ag2C 1_555 1_555
O5C Cl2 1_555 1_555
O6C Cl2 1_555 1_555
C4 C5 1_555 1_555
C8 C9 1_555 1_555
C13 C14 1_555 1_555
C18 C19 1_555 1_555
C22 C23 1_555 1_555
C27 C28 1_555 1_555
C32 C33 1_555 1_555
C36 C37 1_555 1_555
C41 C42 1_555 1_555
C46 C47 1_555 1_555
C44E C45E 1_555 1_555
C46E C47E 1_555 1_555
C48E C49E 1_555 1_555
C4C C5C 1_555 1_555
C8C C9C 1_555 1_555
C11C C12C 1_555 1_555
C13C C14C 1_555 1_555
C18C C19C 1_555 1_555
C22C C23C 1_555 1_555
C27C C28C 1_555 1_555
C32C C33C 1_555 1_555
C36C C37C 1_555 1_555
C41C C42C 1_555 1_555

#END
