
#######################################################################
#
#                 Cambridge Crystallographic Data Centre
#                                CCDC 
#
#######################################################################
#
# If this CIF has been generated from an entry in the Cambridge 
# Structural Database, then it will include bibliographic, chemical, 
# crystal, experimental, refinement or atomic coordinate data resulting 
# from the CCDC's data processing and validation procedures.
#
#######################################################################

data_DIVGUM
_symmetry_cell_setting           orthorhombic
_symmetry_space_group_name_H-M   'P 21 21 21'
_symmetry_Int_Tables_number      19
_space_group_name_Hall           'P 2ac 2ab'
loop_
_symmetry_equiv_pos_site_id
_symmetry_equiv_pos_as_xyz
1 x,y,z
2 1/2-x,-y,1/2+z
3 -x,1/2+y,1/2-z
4 1/2+x,1/2-y,-z
_cell_length_a                   12.562(3)
_cell_length_b                   13.018(3)
_cell_length_c                   24.163(5)
_cell_angle_alpha                90
_cell_angle_beta                 90
_cell_angle_gamma                90
_cell_volume                     3951.43
loop_
_atom_site_label
_atom_site_type_symbol
_atom_site_fract_x
_atom_site_fract_y
_atom_site_fract_z
C1 C 0.5976(12) 0.5190(11) 0.0889(6)
H1 H 0.5583 0.5680 0.1080
C2 C 0.7013(13) 0.5043(14) 0.1037(7)
H2 H 0.7338 0.5444 0.1308
C3 C 0.7554(15) 0.4272(16) 0.0767(9)
H3 H 0.8250 0.4127 0.0873
C4 C 0.7107(13) 0.3711(13) 0.0348(8)
H4 H 0.7474 0.3191 0.0166
C5 C 0.6042(11) 0.3978(11) 0.0211(6)
C6 C 0.5450(13) 0.3459(10) -0.0245(7)
C7 C 0.5878(16) 0.2618(12) -0.0546(7)
H5 H 0.6525 0.2319 -0.0451
C8 C 0.5298(18) 0.2278(14) -0.0976(9)
H6 H 0.5571 0.1732 -0.1179
C9 C 0.4336(17) 0.2672(13) -0.1137(6)
H7 H 0.3986 0.2428 -0.1450
C10 C 0.3897(14) 0.3466(10) -0.0808(5)
H8 H 0.3217 0.3717 -0.0877
C11 C 0.4342(9) 0.6223(9) 0.2625(4)
C12 C 0.5411(10) 0.6550(9) 0.2837(4)
C13 C 0.5780(10) 0.6017(10) 0.3363(5)
H9 H 0.6130 0.5375 0.3271
H10 H 0.5172 0.5866 0.3597
C14 C 0.6575(12) 0.6741(9) 0.3678(5)
H11 H 0.6386 0.6801 0.4066
H12 H 0.7301 0.6492 0.3649
C15 C 0.6441(9) 0.7764(8) 0.3379(4)
H13 H 0.7047 0.7827 0.3126
C16 C 0.5424(11) 0.7724(10) 0.3012(5)
C17 C 0.5459(16) 0.8460(11) 0.2523(6)
H14 H 0.5002 0.8211 0.2235
H15 H 0.6176 0.8506 0.2387
H16 H 0.5223 0.9128 0.2639
C18 C 0.4419(10) 0.7971(11) 0.3341(6)
H17 H 0.4473 0.8652 0.3491
H18 H 0.4342 0.7485 0.3637
H19 H 0.3811 0.7931 0.3101
C19 C 0.6252(11) 0.6385(13) 0.2383(5)
H20 H 0.6360 0.5662 0.2327
H21 H 0.6910 0.6699 0.2493
H22 H 0.6009 0.6691 0.2044
C20 C 0.6453(8) 0.8716(8) 0.3743(4)
C21 C 0.1557(9) 0.7897(8) 0.1725(4)
C22 C 0.1036(9) 0.8954(9) 0.1838(4)
C23 C 0.1094(14) 0.9531(11) 0.1284(5)
H23 H 0.1821 0.9569 0.1163
H24 H 0.0816 1.0212 0.1330
H25 H 0.0680 0.9171 0.1011
C24 C 0.1647(12) 0.9539(11) 0.2293(7)
H26 H 0.2020 0.9056 0.2529
H27 H 0.2169 0.9992 0.2126
C25 C 0.0868(13) 1.0156(15) 0.2631(8)
H28 H 0.1057 1.0878 0.2628
H29 H 0.0854 0.9917 0.3011
C26 C -0.0219(10) 0.9985(9) 0.2351(5)
H30 H -0.0291 1.0490 0.2052
C27 C -0.0122(7) 0.8893(10) 0.2081(4)
C28 C -0.0208(13) 0.8048(10) 0.2495(6)
H31 H -0.0920 0.8028 0.2640
H32 H 0.0285 0.8169 0.2791
H33 H -0.0046 0.7405 0.2320
C29 C -0.0999(11) 0.8753(13) 0.1636(5)
H34 H -0.0857 0.8143 0.1425
H35 H -0.1004 0.9338 0.1394
H36 H -0.1680 0.8691 0.1814
C30 C -0.1136(9) 1.0141(8) 0.2752(4)
C31 C -0.0906(9) 0.7996(9) -0.0451(4)
C32 C -0.0663(8) 0.6864(8) -0.0302(4)
C33 C -0.0849(10) 0.6642(9) 0.0334(4)
H37 H -0.0621 0.7220 0.0557
H38 H -0.1595 0.6507 0.0408
C34 C 0.1240(9) 0.7436(8) -0.0079(4)
H39 H 0.1977 0.7249 -0.0108
H40 H 0.1052 0.7513 0.0304
H41 H 0.1123 0.8074 -0.0269
C35 C 0.0914(11) 0.6453(10) -0.0953(4)
H42 H 0.0758 0.7066 -0.1158
H43 H 0.0541 0.5883 -0.1114
H44 H 0.1666 0.6323 -0.0963
C36 C -0.1346(10) 0.6168(9) -0.0655(5)
H45 H -0.2083 0.6293 -0.0575
H46 H -0.1177 0.5464 -0.0574
H47 H -0.1210 0.6305 -0.1039
C37 C -0.0175(10) 0.5697(10) 0.0455(5)
H48 H 0.0184 0.5777 0.0808
H49 H -0.0624 0.5092 0.0474
C38 C 0.0635(9) 0.5575(8) -0.0003(4)
H50 H 0.0393 0.5015 -0.0243
C39 C 0.0552(9) 0.6595(8) -0.0341(4)
C40 C 0.1739(8) 0.5330(6) 0.0178(4)
Dy1 Dy 0.25917(4) 0.60785(3) 0.151737(16)
N1 N 0.5498(9) 0.4676(8) 0.0488(5)
N2 N 0.4509(9) 0.3855(8) -0.0383(4)
O1 O 0.4102(6) 0.6304(6) 0.2134(3)
O2 O 0.6471(7) 0.8586(5) 0.4269(3)
O3 O 0.6468(7) 0.9583(5) 0.3533(3)
O4 O 0.2388(9) 0.7705(7) 0.1954(3)
O5 O 0.1158(7) 0.7271(7) 0.1409(3)
O6 O -0.1975(7) 1.0558(8) 0.2579(3)
O7 O -0.1062(7) 0.9949(8) 0.3250(3)
O8 O -0.0867(6) 0.8672(5) -0.0083(3)
O9 O -0.1154(6) 0.8176(6) -0.0956(3)
O10 O 0.2030(6) 0.5578(6) 0.0658(3)
O11 O 0.2371(7) 0.4886(5) -0.0145(2)
Zn1 Zn 0.38360(11) 0.48370(9) 0.02289(5)
O12 O 0.3676(8) 0.5838(7) 0.3000(3)
H51 H 0.3063 0.5882 0.2885
Dy1B Dy -0.25917(4) 1.10785(3) 0.348263(16)
Dy1B_2 Dy 0.74083(4) 1.10785(3) 0.348263(16)
Dy1C Dy -0.24083(4) 0.89215(3) -0.151737(16)
O2B O 0.3529(7) 0.3586(5) 0.0731(3)
O3B O 0.3532(7) 0.4583(5) 0.1467(3)
O6B O 0.1975(7) 0.5558(8) 0.2421(3)
O7B O 0.1062(7) 0.4949(8) 0.1750(3)
O8C O 0.4133(6) 0.6328(5) 0.0083(3)
O9C O 0.3846(6) 0.6824(6) 0.0956(3)
Zn1B Zn 0.61640(11) 0.98370(9) 0.47711(5)
Zn1C Zn -0.11640(11) 1.01630(9) -0.02289(5)
loop_
_geom_bond_atom_site_label_1
_geom_bond_atom_site_label_2
_geom_bond_site_symmetry_1
_geom_bond_site_symmetry_2
C1 H1 1_555 1_555
C2 C1 1_555 1_555
H2 C2 1_555 1_555
C3 C2 1_555 1_555
H3 C3 1_555 1_555
C4 C3 1_555 1_555
H4 C4 1_555 1_555
C5 C4 1_555 1_555
C6 C5 1_555 1_555
C7 C6 1_555 1_555
H5 C7 1_555 1_555
C8 C7 1_555 1_555
H6 C8 1_555 1_555
C9 C8 1_555 1_555
H7 C9 1_555 1_555
C10 C9 1_555 1_555
H8 C10 1_555 1_555
C11 C12 1_555 1_555
C12 C13 1_555 1_555
C13 H9 1_555 1_555
H10 C13 1_555 1_555
C14 C13 1_555 1_555
H11 C14 1_555 1_555
H12 C14 1_555 1_555
C15 C14 1_555 1_555
H13 C15 1_555 1_555
C16 C12 1_555 1_555
C17 C16 1_555 1_555
H14 C17 1_555 1_555
H15 C17 1_555 1_555
H16 C17 1_555 1_555
C18 C16 1_555 1_555
H17 C18 1_555 1_555
H18 C18 1_555 1_555
H19 C18 1_555 1_555
C19 C12 1_555 1_555
H20 C19 1_555 1_555
H21 C19 1_555 1_555
H22 C19 1_555 1_555
C20 C15 1_555 1_555
C21 C22 1_555 1_555
C22 C23 1_555 1_555
C23 H23 1_555 1_555
H24 C23 1_555 1_555
H25 C23 1_555 1_555
C24 C22 1_555 1_555
H26 C24 1_555 1_555
H27 C24 1_555 1_555
C25 C24 1_555 1_555
H28 C25 1_555 1_555
H29 C25 1_555 1_555
C26 C25 1_555 1_555
H30 C26 1_555 1_555
C27 C22 1_555 1_555
C28 C27 1_555 1_555
H31 C28 1_555 1_555
H32 C28 1_555 1_555
H33 C28 1_555 1_555
C29 C27 1_555 1_555
H34 C29 1_555 1_555
H35 C29 1_555 1_555
H36 C29 1_555 1_555
C30 C26 1_555 1_555
C31 C32 1_555 1_555
C32 C33 1_555 1_555
C33 H37 1_555 1_555
H38 C33 1_555 1_555
C34 H39 1_555 1_555
H40 C34 1_555 1_555
H41 C34 1_555 1_555
C35 H42 1_555 1_555
H43 C35 1_555 1_555
H44 C35 1_555 1_555
C36 C32 1_555 1_555
H45 C36 1_555 1_555
H46 C36 1_555 1_555
H47 C36 1_555 1_555
C37 C33 1_555 1_555
H48 C37 1_555 1_555
H49 C37 1_555 1_555
C38 C37 1_555 1_555
H50 C38 1_555 1_555
C39 C32 1_555 1_555
C40 C38 1_555 1_555
Dy1 O1 1_555 1_555
N1 C1 1_555 1_555
N2 C6 1_555 1_555
O1 C11 1_555 1_555
O2 C20 1_555 1_555
O3 C20 1_555 1_555
O4 C21 1_555 1_555
O5 C21 1_555 1_555
O6 C30 1_555 1_555
O7 C30 1_555 1_555
O8 C31 1_555 1_555
O9 C31 1_555 1_555
O10 C40 1_555 1_555
O11 C40 1_555 1_555
Zn1 N1 1_555 1_555
O12 C11 1_555 1_555
H51 O12 1_555 1_555
Dy1B O6 1_555 1_555
Dy1B_2 O3 1_555 1_555
Dy1C O9 1_555 1_555
O2B Zn1 1_555 1_555
O3B Dy1 1_555 1_555
O6B Dy1 1_555 1_555
O7B Dy1 1_555 1_555
O8C Zn1 1_555 1_555
O9C Dy1 1_555 1_555
Zn1B O2 1_555 1_555
Zn1C O8 1_555 1_555
C5 N1 1_555 1_555
C10 N2 1_555 1_555
C15 C16 1_555 1_555
C26 C27 1_555 1_555
C34 C39 1_555 1_555
C35 C39 1_555 1_555
C38 C39 1_555 1_555
Dy1 O4 1_555 1_555
Dy1 O5 1_555 1_555
Dy1 O10 1_555 1_555
N2 Zn1 1_555 1_555
O7 Dy1B 1_555 1_555
O11 Zn1 1_555 1_555

#END
