
#######################################################################
#
#                 Cambridge Crystallographic Data Centre
#                                CCDC 
#
#######################################################################
#
# If this CIF has been generated from an entry in the Cambridge 
# Structural Database, then it will include bibliographic, chemical, 
# crystal, experimental, refinement or atomic coordinate data resulting 
# from the CCDC's data processing and validation procedures.
#
#######################################################################

data_DIVHEX
_symmetry_cell_setting           orthorhombic
_symmetry_space_group_name_H-M   'P 21 21 21'
_symmetry_Int_Tables_number      19
_space_group_name_Hall           'P 2ac 2ab'
loop_
_symmetry_equiv_pos_site_id
_symmetry_equiv_pos_as_xyz
1 x,y,z
2 1/2-x,-y,1/2+z
3 -x,1/2+y,1/2-z
4 1/2+x,1/2-y,-z
_cell_length_a                   12.910(3)
_cell_length_b                   13.155(3)
_cell_length_c                   24.092(5)
_cell_angle_alpha                90
_cell_angle_beta                 90
_cell_angle_gamma                90
_cell_volume                     4091.57
loop_
_atom_site_label
_atom_site_type_symbol
_atom_site_fract_x
_atom_site_fract_y
_atom_site_fract_z
C1 C 1.0739(8) 0.5176(9) 0.5721(5)
H1 H 1.0472 0.5697 0.5939
C2 C 1.1773(11) 0.4886(15) 0.5800(8)
H2 H 1.2201 0.5231 0.6047
C3 C 1.2130(11) 0.4070(16) 0.5497(10)
H3 H 1.2805 0.3843 0.5549
C4 C 1.1533(11) 0.3611(13) 0.5138(7)
C5 C 1.0518(8) 0.3961(9) 0.5048(5)
C6 C 0.9883(11) 0.3538(8) 0.4656(5)
C7 C 1.0226(15) 0.2694(11) 0.4312(7)
C8 C 1.1238(15) 0.2320(11) 0.4422(8)
H4 H 1.1474 0.1758 0.4224
C9 C 1.1875(13) 0.2752(13) 0.4806(7)
H5 H 1.2539 0.2494 0.4856
C10 C 0.962(2) 0.2352(12) 0.3914(8)
H6 H 0.9851 0.1822 0.3691
C11 C 0.8667(19) 0.2756(11) 0.3820(6)
H7 H 0.8252 0.2503 0.3537
C12 C 0.8304(12) 0.3579(10) 0.4164(4)
H8 H 0.7652 0.3861 0.4105
C13 C 0.8498(6) 0.3935(6) 0.6309(3)
C14 C 0.8597(7) 0.2979(6) 0.6663(4)
H9 H 0.7980 0.2957 0.6899
C15 C 0.8623(12) 0.1991(8) 0.6353(5)
H10 H 0.8853 0.2103 0.5975
H11 H 0.7937 0.1692 0.6343
C16 C 0.9364(10) 0.1288(8) 0.6648(5)
H12 H 0.9988 0.1194 0.6431
H13 H 0.9045 0.0629 0.6709
C17 C 0.9616(7) 0.1794(6) 0.7200(4)
C18 C 0.9537(7) 0.2959(6) 0.7057(4)
C19 C 0.9399(12) 0.3610(9) 0.7564(5)
H14 H 1.0045 0.3659 0.7759
H15 H 0.8886 0.3311 0.7802
H16 H 0.9177 0.4277 0.7454
C20 C 1.0497(8) 0.3315(8) 0.6755(6)
H17 H 1.0404 0.4006 0.6637
H18 H 1.0615 0.2891 0.6437
H19 H 1.1083 0.3275 0.7000
C21 C 0.8811(9) 0.1452(9) 0.7627(5)
H20 H 0.8171 0.1805 0.7563
H21 H 0.9057 0.1604 0.7994
H22 H 0.8699 0.0734 0.7593
C22 C 1.0702(10) 0.1485(8) 0.7400(5)
C23 C 0.6612(9) 0.8122(8) 0.6791(6)
C24 C 0.6080(10) 0.9153(8) 0.6873(6)
C25 C 0.6523(10) 0.9713(9) 0.7326(6)
H23 H 0.7099 1.0119 0.7193
H24 H 0.6784 0.9244 0.7604
C26 C 0.5694(11) 1.0414(10) 0.7589(7)
H25 H 0.5557 1.0228 0.7971
H26 H 0.5903 1.1122 0.7574
C27 C 0.4748(9) 1.0215(8) 0.7219(6)
H27 H 0.4765 1.0677 0.6900
C28 C 0.4945(9) 0.9128(8) 0.7022(6)
C29 C 0.4758(11) 0.8357(9) 0.7432(7)
H28 H 0.4905 0.7701 0.7276
H29 H 0.4047 0.8382 0.7546
H30 H 0.5198 0.8471 0.7747
C30 C 0.4155(11) 0.8826(11) 0.6586(7)
H31 H 0.4161 0.8101 0.6540
H32 H 0.4327 0.9145 0.6239
H33 H 0.3478 0.9042 0.6701
C31 C 0.3784(12) 1.0407(10) 0.7551(8)
C32 C 0.6320(18) 0.9692(12) 0.6328(8)
H34 H 0.5684 0.9886 0.6150
H35 H 0.6700 0.9242 0.6089
H36 H 0.6728 1.0288 0.6401
C33 C 0.8900(6) 0.7128(6) 0.5411(4)
C34 C 0.9166(7) 0.8215(6) 0.5217(4)
C35 C 0.8966(8) 0.8373(7) 0.4581(4)
H37 H 0.9150 0.7767 0.4374
H38 H 0.8242 0.8528 0.4512
C36 C 0.9638(8) 0.9247(8) 0.4413(5)
H39 H 0.9224 0.9856 0.4369
H40 H 0.9977 0.9101 0.4063
C37 C 1.0444(7) 0.9403(7) 0.4868(4)
H41 H 1.0246 1.0002 0.5085
C38 C 1.0342(7) 0.8438(6) 0.5251(4)
C39 C 0.8496(9) 0.8978(8) 0.5554(5)
H42 H 0.7776 0.8850 0.5484
H43 H 0.8663 0.9660 0.5443
H44 H 0.8635 0.8897 0.5943
C40 C 1.0671(9) 0.8718(10) 0.5841(4)
H45 H 1.1409 0.8660 0.5874
H46 H 1.0344 0.8266 0.6100
H47 H 1.0465 0.9404 0.5919
C41 C 1.0968(7) 0.7568(7) 0.5004(4)
H48 H 1.0676 0.7376 0.4653
H49 H 1.0951 0.6996 0.5252
H50 H 1.1672 0.7782 0.4952
C42 C 1.1554(7) 0.9548(7) 0.4667(4)
N1 N 1.0139(6) 0.4752(6) 0.5358(4)
N2 N 0.8905(8) 0.3929(6) 0.4564(4)
O1 O 0.8473(5) 0.4781(4) 0.6541(3)
O2 O 0.8452(4) 0.3822(4) 0.5787(2)
O3 O 1.0955(6) 0.1541(6) 0.7838(4)
O4 O 1.1337(8) 0.1152(9) 0.6975(4)
H51 H 1.1882 0.0939 0.7105
O5 O 0.6331(8) 0.7548(7) 0.6423(4)
O6 O 0.7328(8) 0.7868(6) 0.7060(4)
O7 O 0.3066(12) 1.0674(13) 0.7452(7)
O8 O 0.3819(13) 1.0327(12) 0.8083(7)
O9 O 0.8693(5) 0.6976(5) 0.5924(3)
O10 O 0.8887(5) 0.6435(5) 0.5051(3)
O11 O 1.2188(5) 0.9925(5) 0.4996(3)
O12 O 1.1776(5) 0.9290(5) 0.4181(3)
Cu1 Cu 0.86249(8) 0.50053(8) 0.52381(5)
Dy1 Dy 0.76077(3) 0.63085(3) 0.657495(14)
O3B O 0.9045(6) 0.6541(6) 0.7162(4)
O7B O 0.6934(12) 0.5674(13) 0.7548(7)
O8B O 0.6181(13) 0.5327(12) 0.6917(7)
O11C O 0.7188(5) 0.5075(5) 0.5004(3)
O12C O 0.6776(5) 0.5710(5) 0.5819(3)
Cu1C Cu 1.36249(8) 0.99947(8) 0.47619(5)
Dy1B Dy 0.23923(3) 1.13085(3) 0.842505(14)
Dy1B_2 Dy 1.23923(3) 0.13085(3) 0.842505(14)
Dy1C Dy 1.26077(3) 0.86915(3) 0.342505(14)
loop_
_geom_bond_atom_site_label_1
_geom_bond_atom_site_label_2
_geom_bond_site_symmetry_1
_geom_bond_site_symmetry_2
C1 H1 1_555 1_555
C2 C1 1_555 1_555
H2 C2 1_555 1_555
C3 C2 1_555 1_555
H3 C3 1_555 1_555
C4 C3 1_555 1_555
C5 C4 1_555 1_555
C6 C5 1_555 1_555
C7 C6 1_555 1_555
C8 C7 1_555 1_555
H4 C8 1_555 1_555
C9 C4 1_555 1_555
H5 C9 1_555 1_555
C10 C7 1_555 1_555
H6 C10 1_555 1_555
C11 C10 1_555 1_555
H7 C11 1_555 1_555
C12 C11 1_555 1_555
H8 C12 1_555 1_555
C13 C14 1_555 1_555
C14 H9 1_555 1_555
C15 C14 1_555 1_555
H10 C15 1_555 1_555
H11 C15 1_555 1_555
C16 C15 1_555 1_555
H12 C16 1_555 1_555
H13 C16 1_555 1_555
C17 C16 1_555 1_555
C18 C14 1_555 1_555
C19 C18 1_555 1_555
H14 C19 1_555 1_555
H15 C19 1_555 1_555
H16 C19 1_555 1_555
C20 C18 1_555 1_555
H17 C20 1_555 1_555
H18 C20 1_555 1_555
H19 C20 1_555 1_555
C21 C17 1_555 1_555
H20 C21 1_555 1_555
H21 C21 1_555 1_555
H22 C21 1_555 1_555
C22 C17 1_555 1_555
C23 C24 1_555 1_555
C24 C25 1_555 1_555
C25 H23 1_555 1_555
H24 C25 1_555 1_555
C26 C25 1_555 1_555
H25 C26 1_555 1_555
H26 C26 1_555 1_555
C27 C26 1_555 1_555
H27 C27 1_555 1_555
C28 C24 1_555 1_555
C29 C28 1_555 1_555
H28 C29 1_555 1_555
H29 C29 1_555 1_555
H30 C29 1_555 1_555
C30 C28 1_555 1_555
H31 C30 1_555 1_555
H32 C30 1_555 1_555
H33 C30 1_555 1_555
C31 C27 1_555 1_555
C32 C24 1_555 1_555
H34 C32 1_555 1_555
H35 C32 1_555 1_555
H36 C32 1_555 1_555
C33 C34 1_555 1_555
C34 C35 1_555 1_555
C35 H37 1_555 1_555
H38 C35 1_555 1_555
C36 C35 1_555 1_555
H39 C36 1_555 1_555
H40 C36 1_555 1_555
C37 C36 1_555 1_555
H41 C37 1_555 1_555
C38 C34 1_555 1_555
C39 C34 1_555 1_555
H42 C39 1_555 1_555
H43 C39 1_555 1_555
H44 C39 1_555 1_555
C40 C38 1_555 1_555
H45 C40 1_555 1_555
H46 C40 1_555 1_555
H47 C40 1_555 1_555
C41 C38 1_555 1_555
H48 C41 1_555 1_555
H49 C41 1_555 1_555
H50 C41 1_555 1_555
C42 C37 1_555 1_555
N1 C1 1_555 1_555
N2 C6 1_555 1_555
O1 C13 1_555 1_555
O2 C13 1_555 1_555
O3 C22 1_555 1_555
O4 C22 1_555 1_555
H51 O4 1_555 1_555
O5 C23 1_555 1_555
O6 C23 1_555 1_555
O7 C31 1_555 1_555
O8 C31 1_555 1_555
O9 C33 1_555 1_555
O10 C33 1_555 1_555
O11 C42 1_555 1_555
O12 C42 1_555 1_555
Cu1 N1 1_555 1_555
Dy1 O1 1_555 1_555
O3B Dy1 1_555 1_555
O7B Dy1 1_555 1_555
O8B Dy1 1_555 1_555
O11C Cu1 1_555 1_555
O12C Dy1 1_555 1_555
Cu1C O11 1_555 1_555
Dy1B O7 1_555 1_555
Dy1B_2 O3 1_555 1_555
Dy1C O12 1_555 1_555
C5 N1 1_555 1_555
C8 C9 1_555 1_555
C12 N2 1_555 1_555
C17 C18 1_555 1_555
C27 C28 1_555 1_555
C37 C38 1_555 1_555
N2 Cu1 1_555 1_555
O2 Cu1 1_555 1_555
O5 Dy1 1_555 1_555
O6 Dy1 1_555 1_555
O8 Dy1B 1_555 1_555
O9 Dy1 1_555 1_555
O10 Cu1 1_555 1_555

#END
