
#######################################################################
#
#                 Cambridge Crystallographic Data Centre
#                                CCDC 
#
#######################################################################
#
# If this CIF has been generated from an entry in the Cambridge 
# Structural Database, then it will include bibliographic, chemical, 
# crystal, experimental, refinement or atomic coordinate data resulting 
# from the CCDC's data processing and validation procedures.
#
#######################################################################

data_DIVHAT
_symmetry_cell_setting           orthorhombic
_symmetry_space_group_name_H-M   'P 21 21 21'
_symmetry_Int_Tables_number      19
_space_group_name_Hall           'P 2ac 2ab'
loop_
_symmetry_equiv_pos_site_id
_symmetry_equiv_pos_as_xyz
1 x,y,z
2 1/2-x,-y,1/2+z
3 1/2+x,1/2-y,-z
4 -x,1/2+y,1/2-z
_cell_length_a                   12.444(3)
_cell_length_b                   13.789(3)
_cell_length_c                   23.575(5)
_cell_angle_alpha                90
_cell_angle_beta                 90
_cell_angle_gamma                90
_cell_volume                     4045.24
loop_
_atom_site_label
_atom_site_type_symbol
_atom_site_fract_x
_atom_site_fract_y
_atom_site_fract_z
C1 C 0.2918(19) 0.6239(14) -0.0731(7)
H1 H 0.2250 0.5938 -0.0749
C2 C 0.318(3) 0.701(2) -0.1127(12)
H2 H 0.2687 0.7235 -0.1394
C3 C 0.429(4) 0.742(2) -0.1079(13)
H3 H 0.4540 0.7865 -0.1343
C4 C 0.489(3) 0.7146(14) -0.0679(11)
C5 C 0.4608(18) 0.6362(14) -0.0322(8)
C6 C 0.5329(15) 0.5972(13) 0.0060(8)
C7 C 0.6420(19) 0.6399(19) 0.0107(12)
C8 C 0.669(2) 0.717(2) -0.0241(14)
H4 H 0.7373 0.7446 -0.0212
C9 C 0.604(2) 0.7513(18) -0.0593(11)
H5 H 0.6267 0.8025 -0.0819
C10 C 0.7071(16) 0.592(2) 0.0523(16)
H6 H 0.7772 0.6132 0.0576
C11 C 0.6737(16) 0.522(2) 0.0820(14)
H7 H 0.7202 0.4928 0.1078
C12 C 0.5707(12) 0.4878(14) 0.0772(9)
H8 H 0.5475 0.4377 0.1006
C13 C 0.1751(16) 0.1817(15) 0.1651(10)
C14 C 0.1069(15) 0.0925(15) 0.1599(9)
C15 C 0.1573(19) 0.0261(16) 0.1140(9)
H9 H 0.1538 0.0577 0.0778
H10 H 0.1183 -0.0340 0.1124
H11 H 0.2310 0.0133 0.1235
C16 C -0.0133(15) 0.1133(16) 0.1453(9)
H12 H -0.0324 0.1787 0.1566
H13 H -0.0250 0.1071 0.1047
C17 C -0.0803(16) 0.0419(16) 0.1763(9)
H14 H -0.1232 0.0041 0.1500
H15 H -0.1280 0.0746 0.2026
C18 C 0.0023(16) -0.0264(17) 0.2097(10)
H16 H 0.0236 -0.0794 0.1844
C19 C 0.0953(15) 0.0384(14) 0.2173(7)
C20 C 0.196(2) -0.0213(18) 0.2322(10)
H17 H 0.2039 -0.0252 0.2726
H18 H 0.2587 0.0097 0.2163
H19 H 0.1897 -0.0854 0.2167
C21 C 0.080(2) 0.1032(17) 0.2681(8)
H20 H 0.0253 0.1500 0.2602
H21 H 0.1467 0.1362 0.2761
H22 H 0.0599 0.0648 0.3002
C22 C -0.063(2) -0.0681(19) 0.2569(11)
C23 C 0.1203(10) 0.4417(10) 0.0464(6)
C24 C 0.0085(10) 0.4170(10) 0.0233(6)
C25 C -0.0315(12) 0.5087(11) -0.0088(8)
H23 H -0.1018 0.4967 -0.0240
H24 H 0.0172 0.5236 -0.0391
H25 H -0.0347 0.5625 0.0170
C26 C -0.0716(10) 0.3875(12) 0.0693(6)
H26 H -0.1003 0.4445 0.0882
H27 H -0.0370 0.3468 0.0975
C27 C -0.1618(11) 0.3315(12) 0.0392(7)
H28 H -0.2216 0.3742 0.0306
H29 H -0.1875 0.2788 0.0628
C28 C -0.1101(10) 0.2911(10) -0.0170(6)
H30 H -0.1452 0.3228 -0.0492
C29 C 0.0115(10) 0.3234(10) -0.0160(5)
C30 C 0.0498(16) 0.3423(14) -0.0754(7)
H31 H 0.0992 0.3957 -0.0752
H32 H -0.0105 0.3577 -0.0991
H33 H 0.0852 0.2855 -0.0898
C31 C 0.0810(10) 0.2472(11) 0.0117(6)
H34 H 0.0786 0.1887 -0.0103
H35 H 0.0547 0.2343 0.0493
H36 H 0.1537 0.2701 0.0139
C32 C -0.1267(9) 0.1854(9) -0.0222(5)
C33 C 0.4431(12) 0.3217(10) 0.2324(6)
C34 C 0.5421(12) 0.2989(11) 0.2697(6)
H37 H 0.6068 0.3180 0.2488
C35 C 0.5441(16) 0.3477(15) 0.3262(9)
H38 H 0.4723 0.3532 0.3419
H39 H 0.5755 0.4119 0.3235
C36 C 0.6180(18) 0.2772(14) 0.3647(9)
H40 H 0.6818 0.3114 0.3773
H41 H 0.5783 0.2556 0.3977
C37 C 0.6491(14) 0.1910(11) 0.3280(8)
C38 C 0.5516(17) 0.1884(14) 0.2850(9)
C39 C 0.5820(18) 0.1333(18) 0.2296(9)
H42 H 0.6086 0.0700 0.2390
H43 H 0.6365 0.1689 0.2096
H44 H 0.5195 0.1272 0.2059
C40 C 0.4576(13) 0.1405(14) 0.3027(8)
H45 H 0.4365 0.1643 0.3393
H46 H 0.4709 0.0721 0.3049
H47 H 0.4011 0.1525 0.2758
C41 C 0.748(3) 0.2023(16) 0.2923(15)
H48 H 0.8030 0.2347 0.3139
H49 H 0.7316 0.2398 0.2592
H50 H 0.7738 0.1394 0.2810
C42 C 0.6620(10) 0.0979(10) 0.3617(5)
N1 N 0.3625(11) 0.5963(10) -0.0344(5)
N2 N 0.5032(9) 0.5262(10) 0.0391(6)
O1 O 0.1304(10) 0.2617(9) 0.1808(7)
O2 O 0.2652(9) 0.1877(7) 0.1490(5)
O3 O -0.1497(9) -0.0506(11) 0.2772(6)
O4 O 0.0108(18) -0.140(2) 0.2761(10)
H51 H 0.0355 -0.1235 0.3069
O5 O 0.1858(7) 0.4772(7) 0.0128(4)
O6 O 0.1431(7) 0.4192(7) 0.0974(4)
O7 O -0.1434(7) 0.1471(7) -0.0729(3)
O8 O -0.1264(7) 0.1292(8) 0.0190(3)
O9 O 0.3514(9) 0.3323(9) 0.2536(4)
O10 O 0.4587(8) 0.3289(8) 0.1806(4)
O11 O 0.6605(7) 0.0188(6) 0.3371(4)
O12 O 0.6788(6) 0.1066(6) 0.4151(3)
Ni1 Ni 0.34217(12) 0.49579(13) 0.02899(7)
Dy1 Dy 0.27554(4) 0.36421(4) 0.16088(2)
O3C O 0.1497(9) 0.4494(11) 0.2228(6)
O7B O 0.3566(7) 0.3529(7) 0.0729(3)
O8B O 0.3736(7) 0.3708(8) -0.0190(3)
O11C O 0.3395(7) 0.5188(6) 0.1629(4)
O12C O 0.3212(6) 0.6066(6) 0.0849(3)
Ni1B Ni -0.15783(12) 0.00421(13) -0.02899(7)
Ni1C Ni 0.65783(12) -0.00421(13) 0.47101(7)
Dy1B Dy -0.22446(4) 0.13579(4) -0.16088(2)
Dy1C Dy -0.27554(4) -0.13579(4) 0.33912(2)
Dy1C_2 Dy 0.72446(4) -0.13579(4) 0.33912(2)
loop_
_geom_bond_atom_site_label_1
_geom_bond_atom_site_label_2
_geom_bond_site_symmetry_1
_geom_bond_site_symmetry_2
C1 H1 1_555 1_555
C2 C1 1_555 1_555
H2 C2 1_555 1_555
C3 C2 1_555 1_555
H3 C3 1_555 1_555
C4 C3 1_555 1_555
C5 C4 1_555 1_555
C6 C5 1_555 1_555
C7 C6 1_555 1_555
C8 C7 1_555 1_555
H4 C8 1_555 1_555
C9 C4 1_555 1_555
H5 C9 1_555 1_555
C10 C7 1_555 1_555
H6 C10 1_555 1_555
C11 C10 1_555 1_555
H7 C11 1_555 1_555
C12 C11 1_555 1_555
H8 C12 1_555 1_555
C13 C14 1_555 1_555
C14 C15 1_555 1_555
C15 H9 1_555 1_555
H10 C15 1_555 1_555
H11 C15 1_555 1_555
C16 C14 1_555 1_555
H12 C16 1_555 1_555
H13 C16 1_555 1_555
C17 C16 1_555 1_555
H14 C17 1_555 1_555
H15 C17 1_555 1_555
C18 C17 1_555 1_555
H16 C18 1_555 1_555
C19 C14 1_555 1_555
C20 C19 1_555 1_555
H17 C20 1_555 1_555
H18 C20 1_555 1_555
H19 C20 1_555 1_555
C21 C19 1_555 1_555
H20 C21 1_555 1_555
H21 C21 1_555 1_555
H22 C21 1_555 1_555
C22 C18 1_555 1_555
C23 C24 1_555 1_555
C24 C25 1_555 1_555
C25 H23 1_555 1_555
H24 C25 1_555 1_555
H25 C25 1_555 1_555
C26 C24 1_555 1_555
H26 C26 1_555 1_555
H27 C26 1_555 1_555
C27 C26 1_555 1_555
H28 C27 1_555 1_555
H29 C27 1_555 1_555
C28 C27 1_555 1_555
H30 C28 1_555 1_555
C29 C24 1_555 1_555
C30 C29 1_555 1_555
H31 C30 1_555 1_555
H32 C30 1_555 1_555
H33 C30 1_555 1_555
C31 C29 1_555 1_555
H34 C31 1_555 1_555
H35 C31 1_555 1_555
H36 C31 1_555 1_555
C32 C28 1_555 1_555
C33 C34 1_555 1_555
C34 H37 1_555 1_555
C35 C34 1_555 1_555
H38 C35 1_555 1_555
H39 C35 1_555 1_555
C36 C35 1_555 1_555
H40 C36 1_555 1_555
H41 C36 1_555 1_555
C37 C36 1_555 1_555
C38 C34 1_555 1_555
C39 C38 1_555 1_555
H42 C39 1_555 1_555
H43 C39 1_555 1_555
H44 C39 1_555 1_555
C40 C38 1_555 1_555
H45 C40 1_555 1_555
H46 C40 1_555 1_555
H47 C40 1_555 1_555
C41 C37 1_555 1_555
H48 C41 1_555 1_555
H49 C41 1_555 1_555
H50 C41 1_555 1_555
C42 C37 1_555 1_555
N1 C1 1_555 1_555
N2 C6 1_555 1_555
O1 C13 1_555 1_555
O2 C13 1_555 1_555
O3 C22 1_555 1_555
O4 C22 1_555 1_555
H51 O4 1_555 1_555
O5 C23 1_555 1_555
O6 C23 1_555 1_555
O7 C32 1_555 1_555
O8 C32 1_555 1_555
O9 C33 1_555 1_555
O10 C33 1_555 1_555
O11 C42 1_555 1_555
O12 C42 1_555 1_555
Ni1 N1 1_555 1_555
Dy1 O1 1_555 1_555
O3C Dy1 1_555 1_555
O7B Ni1 1_555 1_555
O8B Ni1 1_555 1_555
O11C Dy1 1_555 1_555
O12C Ni1 1_555 1_555
Ni1B O7 1_555 1_555
Ni1C O12 1_555 1_555
Dy1B O7 1_555 1_555
Dy1C O3 1_555 1_555
Dy1C_2 O11 1_555 1_555
C5 N1 1_555 1_555
C8 C9 1_555 1_555
C12 N2 1_555 1_555
C18 C19 1_555 1_555
C28 C29 1_555 1_555
C37 C38 1_555 1_555
N2 Ni1 1_555 1_555
O2 Dy1 1_555 1_555
O5 Ni1 1_555 1_555
O6 Dy1 1_555 1_555
O8 Ni1B 1_555 1_555
O9 Dy1 1_555 1_555
O10 Dy1 1_555 1_555
Dy1 O7B 1_555 1_555

#END
