
#######################################################################
#
#                 Cambridge Crystallographic Data Centre
#                                CCDC 
#
#######################################################################
#
# If this CIF has been generated from an entry in the Cambridge 
# Structural Database, then it will include bibliographic, chemical, 
# crystal, experimental, refinement or atomic coordinate data resulting 
# from the CCDC's data processing and validation procedures.
#
#######################################################################

data_DIVHUN
_symmetry_cell_setting           orthorhombic
_symmetry_space_group_name_H-M   'P 21 21 21'
_symmetry_Int_Tables_number      19
_space_group_name_Hall           'P 2ac 2ab'
loop_
_symmetry_equiv_pos_site_id
_symmetry_equiv_pos_as_xyz
1 x,y,z
2 1/2-x,-y,1/2+z
3 -x,1/2+y,1/2-z
4 1/2+x,1/2-y,-z
_cell_length_a                   12.539(3)
_cell_length_b                   13.028(3)
_cell_length_c                   24.199(5)
_cell_angle_alpha                90
_cell_angle_beta                 90
_cell_angle_gamma                90
_cell_volume                     3953.1
loop_
_atom_site_label
_atom_site_type_symbol
_atom_site_fract_x
_atom_site_fract_y
_atom_site_fract_z
C1 C 1.0957(12) 0.4783(9) 0.9094(5)
H1 H 1.0557 0.4283 0.8914
C2 C 1.1973(13) 0.4935(11) 0.8928(7)
H2 H 1.2264 0.4552 0.8640
C3 C 1.2563(14) 0.5665(14) 0.9193(8)
H3 H 1.3262 0.5788 0.9083
C4 C 1.2114(14) 0.6243(14) 0.9639(8)
H4 H 1.2507 0.6742 0.9823
C5 C 1.1036(11) 0.6019(10) 0.9788(6)
C6 C 1.0484(14) 0.6528(9) 1.0235(7)
C7 C 1.0897(18) 0.7365(11) 1.0532(8)
H5 H 1.1551 0.7648 1.0433
C8 C 1.034(2) 0.7761(14) 1.0966(9)
H6 H 1.0597 0.8325 1.1160
C9 C 0.9412(16) 0.7321(12) 1.1106(6)
H7 H 0.9053 0.7557 1.1417
C10 C 0.8967(13) 0.6518(9) 1.0799(5)
H8 H 0.8294 0.6261 1.0882
C11 C 0.8583(9) 0.6331(8) 0.8775(5)
C12 C 0.8591(9) 0.7286(7) 0.8393(4)
H9 H 0.7998 0.7198 0.8134
C13 C 0.9629(13) 0.7337(10) 0.8036(5)
C14 C 0.9571(11) 0.8493(9) 0.7847(5)
C15 C 0.9240(12) 0.9016(9) 0.8367(6)
H10 H 0.8913 0.9672 0.8282
H11 H 0.9858 0.9139 0.8599
C16 C 0.8409(12) 0.8296(8) 0.8681(5)
H12 H 0.8568 0.8250 0.9072
H13 H 0.7683 0.8536 0.8632
C17 C 1.0592(12) 0.7123(12) 0.8360(7)
H14 H 1.0532 0.6458 0.8528
H15 H 1.0670 0.7635 0.8643
H16 H 1.1203 0.7136 0.8122
C18 C 0.9556(17) 0.6591(12) 0.7547(7)
H17 H 0.9901 0.6888 0.7231
H18 H 0.8820 0.6462 0.7462
H19 H 0.9901 0.5957 0.7641
C19 C 0.8737(12) 0.8609(12) 0.7401(6)
H20 H 0.8112 0.8225 0.7501
H21 H 0.9014 0.8354 0.7058
H22 H 0.8555 0.9321 0.7362
C20 C 1.0638(10) 0.8844(9) 0.7633(5)
C21 C 0.9125(9) 0.3011(8) 0.9548(5)
C22 C 0.9358(10) 0.1870(9) 0.9702(5)
C23 C 1.0596(10) 0.1595(8) 0.9646(4)
C24 C 1.0662(10) 0.0570(8) 0.9967(5)
H23 H 1.0430 0.0012 0.9723
C25 C 0.9842(10) 0.0687(10) 1.0440(5)
H24 H 0.9374 0.0094 1.0451
H25 H 1.0207 0.0739 1.0793
C26 C 0.9193(11) 0.1660(9) 1.0332(5)
H26 H 0.9456 0.2228 1.0553
H27 H 0.8445 0.1552 1.0416
C27 C 0.8674(11) 0.1188(9) 0.9348(5)
H28 H 0.7936 0.1330 0.9420
H29 H 0.8823 0.0483 0.9432
H30 H 0.8826 0.1317 0.8965
C28 C 1.0923(12) 0.1466(10) 0.9046(5)
H31 H 1.1084 0.2126 0.8890
H32 H 1.0349 0.1156 0.8843
H33 H 1.1542 0.1035 0.9025
C29 C 1.1286(10) 0.2424(9) 0.9917(4)
H34 H 1.2009 0.2186 0.9942
H35 H 1.1020 0.2567 1.0281
H36 H 1.1262 0.3038 0.9698
C30 C 1.1748(9) 0.0337(7) 1.0171(4)
C31 C 0.6142(12) 0.4871(9) 0.7746(5)
C32 C 0.5226(10) 0.5029(8) 0.7336(5)
H37 H 0.5323 0.4540 0.7033
C33 C 0.4126(14) 0.4824(14) 0.7596(9)
H38 H 0.3943 0.4103 0.7566
H39 H 0.4128 0.5013 0.7984
C34 C 0.3959(9) 0.6036(9) 0.6841(5)
C35 C 0.5084(9) 0.6096(9) 0.7082(4)
C36 C 0.3919(14) 0.5458(10) 0.6283(6)
H40 H 0.4395 0.5781 0.6026
H41 H 0.3205 0.5478 0.6140
H42 H 0.4131 0.4758 0.6338
C37 C 0.3418(11) 0.7096(9) 0.6741(5)
C38 C 0.5945(13) 0.6275(12) 0.6650(6)
H43 H 0.5676 0.6722 0.6367
H44 H 0.6148 0.5631 0.6489
H45 H 0.6556 0.6586 0.6821
C39 C 0.5183(14) 0.6945(10) 0.7494(6)
H46 H 0.5075 0.7592 0.7313
H47 H 0.5882 0.6929 0.7656
H48 H 0.4656 0.6858 0.7778
C40 C 0.3354(12) 0.5456(14) 0.7290(8)
H49 H 0.3006 0.5936 0.7537
H50 H 0.2811 0.5022 0.7124
Co1 Co 0.88504(13) 0.51722(10) 0.97774(6)
Gd1 Gd 0.75999(4) 0.39409(3) 0.848155(19)
N1 N 1.0488(9) 0.5317(7) 0.9507(4)
N2 N 0.9548(10) 0.6125(8) 1.0377(4)
O1 O 0.8536(7) 0.5463(5) 0.8535(3)
O2 O 0.8597(7) 0.6424(5) 0.9290(3)
O3 O 1.0883(7) 0.8749(6) 0.7145(3)
O4 O 1.1321(7) 0.9208(7) 0.7992(3)
H51 H 1.1926 0.9164 0.7866
O5 O 0.8873(6) 0.3189(6) 0.9047(3)
O6 O 0.9179(7) 0.3673(5) 0.9916(3)
O7 O 1.2377(7) -0.0128(5) 0.9843(3)
O8 O 1.2066(6) 0.0553(5) 1.0650(3)
O9 O 0.6997(8) 0.4508(9) 0.7568(4)
O10 O 0.6039(9) 0.5059(8) 0.8242(4)
O11 O 0.3828(8) 0.7707(7) 0.6404(4)
O12 O 0.2624(10) 0.7319(7) 0.6974(4)
Co1C Co 1.38504(13) -0.01722(10) 1.02226(6)
Gd1B Gd 0.24001(4) 0.89409(3) 0.651845(19)
Gd1B_2 Gd 1.24001(4) 0.89409(3) 0.651845(19)
Gd1C Gd 1.25999(4) 0.10591(3) 1.151845(19)
O3B O 0.9117(7) 0.3749(6) 0.7855(3)
O7C O 0.7377(7) 0.5128(5) 1.0157(3)
O8C O 0.7066(6) 0.4447(5) 0.9350(3)
O11B O 0.6172(8) 0.2707(7) 0.8596(4)
O12B O 0.7376(10) 0.2319(7) 0.8026(4)
loop_
_geom_bond_atom_site_label_1
_geom_bond_atom_site_label_2
_geom_bond_site_symmetry_1
_geom_bond_site_symmetry_2
C1 H1 1_555 1_555
C2 C1 1_555 1_555
H2 C2 1_555 1_555
C3 C2 1_555 1_555
H3 C3 1_555 1_555
C4 C3 1_555 1_555
H4 C4 1_555 1_555
C5 C4 1_555 1_555
C6 C5 1_555 1_555
C7 C6 1_555 1_555
H5 C7 1_555 1_555
C8 C7 1_555 1_555
H6 C8 1_555 1_555
C9 C8 1_555 1_555
H7 C9 1_555 1_555
C10 C9 1_555 1_555
H8 C10 1_555 1_555
C11 C12 1_555 1_555
C12 H9 1_555 1_555
C13 C12 1_555 1_555
C14 C13 1_555 1_555
C15 C14 1_555 1_555
H10 C15 1_555 1_555
H11 C15 1_555 1_555
C16 C12 1_555 1_555
H12 C16 1_555 1_555
H13 C16 1_555 1_555
C17 C13 1_555 1_555
H14 C17 1_555 1_555
H15 C17 1_555 1_555
H16 C17 1_555 1_555
C18 C13 1_555 1_555
H17 C18 1_555 1_555
H18 C18 1_555 1_555
H19 C18 1_555 1_555
C19 C14 1_555 1_555
H20 C19 1_555 1_555
H21 C19 1_555 1_555
H22 C19 1_555 1_555
C20 C14 1_555 1_555
C21 C22 1_555 1_555
C22 C23 1_555 1_555
C23 C24 1_555 1_555
C24 H23 1_555 1_555
C25 C24 1_555 1_555
H24 C25 1_555 1_555
H25 C25 1_555 1_555
C26 C22 1_555 1_555
H26 C26 1_555 1_555
H27 C26 1_555 1_555
C27 C22 1_555 1_555
H28 C27 1_555 1_555
H29 C27 1_555 1_555
H30 C27 1_555 1_555
C28 C23 1_555 1_555
H31 C28 1_555 1_555
H32 C28 1_555 1_555
H33 C28 1_555 1_555
C29 C23 1_555 1_555
H34 C29 1_555 1_555
H35 C29 1_555 1_555
H36 C29 1_555 1_555
C30 C24 1_555 1_555
C31 C32 1_555 1_555
C32 H37 1_555 1_555
C33 C32 1_555 1_555
H38 C33 1_555 1_555
H39 C33 1_555 1_555
C34 C35 1_555 1_555
C35 C32 1_555 1_555
C36 C34 1_555 1_555
H40 C36 1_555 1_555
H41 C36 1_555 1_555
H42 C36 1_555 1_555
C37 C34 1_555 1_555
C38 C35 1_555 1_555
H43 C38 1_555 1_555
H44 C38 1_555 1_555
H45 C38 1_555 1_555
C39 C35 1_555 1_555
H46 C39 1_555 1_555
H47 C39 1_555 1_555
H48 C39 1_555 1_555
C40 C33 1_555 1_555
H49 C40 1_555 1_555
H50 C40 1_555 1_555
Co1 N1 1_555 1_555
Gd1 O1 1_555 1_555
N1 C1 1_555 1_555
N2 C6 1_555 1_555
O1 C11 1_555 1_555
O2 C11 1_555 1_555
O3 C20 1_555 1_555
O4 C20 1_555 1_555
H51 O4 1_555 1_555
O5 C21 1_555 1_555
O6 C21 1_555 1_555
O7 C30 1_555 1_555
O8 C30 1_555 1_555
O9 C31 1_555 1_555
O10 C31 1_555 1_555
O11 C37 1_555 1_555
O12 C37 1_555 1_555
Co1C O7 1_555 1_555
Gd1B O11 1_555 1_555
Gd1B_2 O3 1_555 1_555
Gd1C O8 1_555 1_555
O3B Gd1 1_555 1_555
O7C Co1 1_555 1_555
O8C Gd1 1_555 1_555
O11B Gd1 1_555 1_555
O12B Gd1 1_555 1_555
C5 N1 1_555 1_555
C10 N2 1_555 1_555
C15 C16 1_555 1_555
C25 C26 1_555 1_555
C34 C40 1_555 1_555
Co1 N2 1_555 1_555
Co1 O2 1_555 1_555
Co1 O6 1_555 1_555
Gd1 O5 1_555 1_555
Gd1 O9 1_555 1_555
Gd1 O10 1_555 1_555
O12 Gd1B 1_555 1_555

#END
