
#######################################################################
#
#                 Cambridge Crystallographic Data Centre
#                                CCDC 
#
#######################################################################
#
# If this CIF has been generated from an entry in the Cambridge 
# Structural Database, then it will include bibliographic, chemical, 
# crystal, experimental, refinement or atomic coordinate data resulting 
# from the CCDC's data processing and validation procedures.
#
#######################################################################

data_DIVHIB
_symmetry_cell_setting           orthorhombic
_symmetry_space_group_name_H-M   'P 21 21 21'
_symmetry_Int_Tables_number      19
_space_group_name_Hall           'P 2ac 2ab'
loop_
_symmetry_equiv_pos_site_id
_symmetry_equiv_pos_as_xyz
1 x,y,z
2 1/2-x,-y,1/2+z
3 -x,1/2+y,1/2-z
4 1/2+x,1/2-y,-z
_cell_length_a                   12.538(3)
_cell_length_b                   13.044(3)
_cell_length_c                   24.243(5)
_cell_angle_alpha                90
_cell_angle_beta                 90
_cell_angle_gamma                90
_cell_volume                     3964.84
loop_
_atom_site_label
_atom_site_type_symbol
_atom_site_fract_x
_atom_site_fract_y
_atom_site_fract_z
C1 C 1.0987(11) 0.0198(9) 0.5896(5)
H1 H 1.0589 0.0703 0.6073
C2 C 1.1989(13) 0.0061(11) 0.6073(6)
H2 H 1.2273 0.0444 0.6361
C3 C 1.2565(13) -0.0666(14) 0.5809(7)
H3 H 1.3264 -0.0794 0.5917
C4 C 1.2125(12) -0.1221(12) 0.5378(6)
H4 H 1.2524 -0.1721 0.5199
C5 C 1.1061(9) -0.1019(10) 0.5215(5)
C6 C 1.0524(12) -0.1522(9) 0.4762(6)
C7 C 1.0946(14) -0.2357(10) 0.4472(6)
H5 H 1.1600 -0.2637 0.4572
C8 C 1.0381(17) -0.2755(11) 0.4040(7)
H6 H 1.0627 -0.3328 0.3851
C9 C 0.9437(15) -0.2285(11) 0.3892(6)
H7 H 0.9094 -0.2490 0.3571
C10 C 0.8993(12) -0.1526(8) 0.4205(5)
H8 H 0.8305 -0.1292 0.4135
C11 C 0.9151(9) 0.1997(8) 0.5448(4)
C12 C 0.9402(9) 0.3112(7) 0.5297(4)
C13 C 0.9229(10) 0.3351(8) 0.4659(4)
H9 H 0.9502 0.2799 0.4432
H10 H 0.8479 0.3452 0.4577
C14 C 0.9863(10) 0.4340(10) 0.4567(5)
H11 H 0.9390 0.4928 0.4572
H12 H 1.0223 0.4319 0.4213
C15 C 1.0683(8) 0.4416(8) 0.5038(4)
H13 H 1.0451 0.4962 0.5288
C16 C 1.0583(9) 0.3381(8) 0.5347(4)
C17 C 0.8691(10) 0.3820(9) 0.5650(5)
H14 H 0.8741 0.3621 0.6031
H15 H 0.7964 0.3764 0.5530
H16 H 0.8925 0.4517 0.5610
C18 C 1.0907(11) 0.3520(10) 0.5958(4)
H17 H 1.0424 0.3988 0.6133
H18 H 1.1619 0.3789 0.5977
H19 H 1.0880 0.2869 0.6142
C19 C 1.1310(10) 0.2559(8) 0.5074(4)
H20 H 1.1178 0.1904 0.5242
H21 H 1.2044 0.2744 0.5126
H22 H 1.1155 0.2520 0.4687
C20 C 1.1771(8) 0.4675(7) 0.4839(4)
C21 C 0.8601(8) -0.1344(7) 0.6212(4)
C22 C 0.8582(8) -0.2291(7) 0.6589(4)
H23 H 0.7973 -0.2214 0.6839
C23 C 0.8452(12) -0.3294(8) 0.6299(5)
H24 H 0.8654 -0.3236 0.5914
H25 H 0.7720 -0.3531 0.6321
C24 C 0.9224(11) -0.4043(8) 0.6615(5)
H26 H 0.8855 -0.4675 0.6707
H27 H 0.9835 -0.4210 0.6387
C25 C 0.9588(9) -0.3499(7) 0.7143(4)
C26 C 0.9613(11) -0.2341(9) 0.6957(4)
C27 C 0.8732(11) -0.3628(11) 0.7590(5)
H28 H 0.8655 -0.4342 0.7678
H29 H 0.8065 -0.3365 0.7458
H30 H 0.8942 -0.3258 0.7915
C28 C 1.0638(9) -0.3832(8) 0.7360(4)
C29 C 0.9597(15) -0.1579(10) 0.7447(5)
H31 H 1.0150 -0.1756 0.7704
H32 H 0.8917 -0.1613 0.7628
H33 H 0.9714 -0.0896 0.7312
C30 C 1.0616(11) -0.2128(10) 0.6626(6)
H34 H 1.0560 -0.1467 0.6455
H35 H 1.0696 -0.2644 0.6346
H36 H 1.1224 -0.2140 0.6866
C31 C 0.6551(10) 0.2876(8) 0.6729(4)
C32 C 0.6029(9) 0.3955(8) 0.6844(5)
C33 C 0.4899(8) 0.3874(8) 0.7072(4)
C34 C 0.4770(10) 0.4960(7) 0.7340(5)
H37 H 0.4680 0.5459 0.7042
C35 C 0.5863(11) 0.5167(11) 0.7617(7)
H38 H 0.6041 0.5889 0.7599
H39 H 0.5852 0.4956 0.8001
C36 C 0.6658(12) 0.4533(12) 0.7291(7)
H40 H 0.7020 0.4052 0.7532
H41 H 0.7188 0.4975 0.7123
C37 C 0.6093(13) 0.4535(9) 0.6278(5)
H42 H 0.5700 0.4160 0.6004
H43 H 0.6825 0.4591 0.6166
H44 H 0.5792 0.5207 0.6318
C38 C 0.4031(11) 0.3727(12) 0.6637(5)
H45 H 0.4238 0.3192 0.6387
H46 H 0.3934 0.4354 0.6436
H47 H 0.3374 0.3543 0.6814
C39 C 0.4788(13) 0.3037(9) 0.7501(6)
H48 H 0.5007 0.2394 0.7345
H49 H 0.4058 0.2991 0.7617
H50 H 0.5230 0.3195 0.7813
C40 C 0.3843(11) 0.5090(8) 0.7740(5)
Co1 Co 0.88719(13) -0.01733(9) 0.52168(5)
N1 N 1.0504(7) -0.0314(6) 0.5494(4)
N2 N 0.9582(9) -0.1123(8) 0.4621(4)
O1 O 0.8899(6) 0.1796(5) 0.5949(3)
O2 O 0.9195(6) 0.1336(5) 0.5079(3)
O3 O 1.2420(7) 0.5105(5) 0.5167(2)
O4 O 1.2074(6) 0.4451(5) 0.4366(3)
O5 O 0.8577(6) -0.0473(4) 0.6448(3)
O6 O 0.8606(6) -0.1449(5) 0.5700(2)
O7 O 1.0875(6) -0.3738(5) 0.7848(2)
O8 O 1.1303(7) -0.4238(7) 0.6999(3)
H51 H 1.1896 -0.4293 0.7139
O9 O 0.7339(9) 0.2659(6) 0.6990(4)
O10 O 0.6179(7) 0.2294(6) 0.6394(3)
O11 O 0.3001(8) 0.5429(8) 0.7571(3)
O12 O 0.3967(8) 0.4946(7) 0.8238(3)
Sm1 Sm 0.76092(4) 0.10480(3) 0.651587(18)
Co1C Co 1.38719(13) 0.51733(9) 0.47832(5)
O3C O 0.7420(7) -0.0105(5) 0.4833(2)
O4C O 0.7074(6) 0.0549(5) 0.5634(3)
O7B O 0.9125(6) 0.1262(5) 0.7152(2)
O11B O 0.6999(8) 0.0429(8) 0.7429(3)
O12B O 0.6033(8) -0.0054(7) 0.6762(3)
Sm1B Sm 0.23908(4) 0.60480(3) 0.848413(18)
Sm1B_2 Sm 1.23908(4) -0.39520(3) 0.848413(18)
Sm1C Sm 1.26092(4) 0.39520(3) 0.348413(18)
loop_
_geom_bond_atom_site_label_1
_geom_bond_atom_site_label_2
_geom_bond_site_symmetry_1
_geom_bond_site_symmetry_2
C1 H1 1_555 1_555
C2 C1 1_555 1_555
H2 C2 1_555 1_555
C3 C2 1_555 1_555
H3 C3 1_555 1_555
C4 C3 1_555 1_555
H4 C4 1_555 1_555
C5 C4 1_555 1_555
C6 C5 1_555 1_555
C7 C6 1_555 1_555
H5 C7 1_555 1_555
C8 C7 1_555 1_555
H6 C8 1_555 1_555
C9 C8 1_555 1_555
H7 C9 1_555 1_555
C10 C9 1_555 1_555
H8 C10 1_555 1_555
C11 C12 1_555 1_555
C12 C13 1_555 1_555
C13 H9 1_555 1_555
H10 C13 1_555 1_555
C14 C13 1_555 1_555
H11 C14 1_555 1_555
H12 C14 1_555 1_555
C15 C14 1_555 1_555
H13 C15 1_555 1_555
C16 C12 1_555 1_555
C17 C12 1_555 1_555
H14 C17 1_555 1_555
H15 C17 1_555 1_555
H16 C17 1_555 1_555
C18 C16 1_555 1_555
H17 C18 1_555 1_555
H18 C18 1_555 1_555
H19 C18 1_555 1_555
C19 C16 1_555 1_555
H20 C19 1_555 1_555
H21 C19 1_555 1_555
H22 C19 1_555 1_555
C20 C15 1_555 1_555
C21 C22 1_555 1_555
C22 H23 1_555 1_555
C23 C22 1_555 1_555
H24 C23 1_555 1_555
H25 C23 1_555 1_555
C24 C23 1_555 1_555
H26 C24 1_555 1_555
H27 C24 1_555 1_555
C25 C24 1_555 1_555
C26 C22 1_555 1_555
C27 C25 1_555 1_555
H28 C27 1_555 1_555
H29 C27 1_555 1_555
H30 C27 1_555 1_555
C28 C25 1_555 1_555
C29 C26 1_555 1_555
H31 C29 1_555 1_555
H32 C29 1_555 1_555
H33 C29 1_555 1_555
C30 C26 1_555 1_555
H34 C30 1_555 1_555
H35 C30 1_555 1_555
H36 C30 1_555 1_555
C31 C32 1_555 1_555
C32 C33 1_555 1_555
C33 C34 1_555 1_555
C34 H37 1_555 1_555
C35 C34 1_555 1_555
H38 C35 1_555 1_555
H39 C35 1_555 1_555
C36 C32 1_555 1_555
H40 C36 1_555 1_555
H41 C36 1_555 1_555
C37 C32 1_555 1_555
H42 C37 1_555 1_555
H43 C37 1_555 1_555
H44 C37 1_555 1_555
C38 C33 1_555 1_555
H45 C38 1_555 1_555
H46 C38 1_555 1_555
H47 C38 1_555 1_555
C39 C33 1_555 1_555
H48 C39 1_555 1_555
H49 C39 1_555 1_555
H50 C39 1_555 1_555
C40 C34 1_555 1_555
Co1 N1 1_555 1_555
N1 C1 1_555 1_555
N2 C6 1_555 1_555
O1 C11 1_555 1_555
O2 C11 1_555 1_555
O3 C20 1_555 1_555
O4 C20 1_555 1_555
O5 C21 1_555 1_555
O6 C21 1_555 1_555
O7 C28 1_555 1_555
O8 C28 1_555 1_555
H51 O8 1_555 1_555
O9 C31 1_555 1_555
O10 C31 1_555 1_555
O11 C40 1_555 1_555
O12 C40 1_555 1_555
Sm1 O1 1_555 1_555
Co1C O3 1_555 1_555
O3C Co1 1_555 1_555
O4C Sm1 1_555 1_555
O7B Sm1 1_555 1_555
O11B Sm1 1_555 1_555
O12B Sm1 1_555 1_555
Sm1B O11 1_555 1_555
Sm1B_2 O7 1_555 1_555
Sm1C O4 1_555 1_555
C5 N1 1_555 1_555
C10 N2 1_555 1_555
C15 C16 1_555 1_555
C25 C26 1_555 1_555
C35 C36 1_555 1_555
Co1 N2 1_555 1_555
Co1 O2 1_555 1_555
Co1 O6 1_555 1_555
O5 Sm1 1_555 1_555
O9 Sm1 1_555 1_555
O10 Sm1 1_555 1_555
O12 Sm1B 1_555 1_555

#END
