
#######################################################################
#
#                 Cambridge Crystallographic Data Centre
#                                CCDC 
#
#######################################################################
#
# If this CIF has been generated from an entry in the Cambridge 
# Structural Database, then it will include bibliographic, chemical, 
# crystal, experimental, refinement or atomic coordinate data resulting 
# from the CCDC's data processing and validation procedures.
#
#######################################################################

data_DIVJEY
_symmetry_cell_setting           monoclinic
_symmetry_space_group_name_H-M   'P 21/a'
_symmetry_Int_Tables_number      14
_space_group_name_Hall           '-P 2yab'
loop_
_symmetry_equiv_pos_site_id
_symmetry_equiv_pos_as_xyz
1 x,y,z
2 1/2-x,1/2+y,-z
3 -x,-y,-z
4 1/2+x,1/2-y,z
_cell_length_a                   19.069(2)
_cell_length_b                   9.0357(10)
_cell_length_c                   22.108(3)
_cell_angle_alpha                90
_cell_angle_beta                 101.966(2)
_cell_angle_gamma                90
_cell_volume                     3726.48
loop_
_atom_site_label
_atom_site_type_symbol
_atom_site_fract_x
_atom_site_fract_y
_atom_site_fract_z
Na1 Na -0.4968(3) 0.1639(6) -0.2517(3)
O2 O -0.5946(9) 0.1726(19) -0.3473(8)
Ni1 Ni -0.46469(7) -0.17023(17) -0.20681(6)
Ni2 Ni -0.36814(7) -0.01695(17) -0.28749(6)
O7 O -0.4599(3) -0.1393(9) -0.2992(3)
O8 O -0.3978(3) 0.0159(8) -0.2036(3)
N1 N -0.4587(4) -0.1905(10) -0.1159(4)
O9 O -0.3607(5) -0.0785(11) -0.3775(4)
N2 N -0.2977(4) -0.1967(11) -0.2475(4)
O10 O -0.5483(4) -0.0312(9) -0.2136(3)
O11 O -0.4236(4) 0.1609(10) -0.3224(3)
N3 N -0.3665(4) -0.3042(11) -0.1873(4)
N4 N -0.2746(5) 0.0940(13) -0.2806(4)
C1 C -0.3456(6) 0.0219(15) -0.1524(4)
C2 C -0.5694(6) -0.0665(15) -0.1110(5)
C3 C -0.2983(5) -0.2248(15) -0.1817(5)
H1 H -0.2587 -0.2917 -0.1644
C4 C -0.3992(7) 0.2681(15) -0.3523(5)
N5 N -0.5321(5) -0.3533(15) -0.2251(6)
C5 C -0.5879(6) -0.0073(13) -0.1713(5)
C6 C -0.3969(6) -0.2788(14) -0.0831(5)
H2 H -0.4111 -0.3366 -0.0506
H3 H -0.3583 -0.2133 -0.0642
C7 C -0.3229(7) 0.2894(13) -0.3521(5)
C8 C -0.3152(6) -0.3381(14) -0.2756(5)
H4 H -0.2723 -0.3974 -0.2735
H5 H -0.3391 -0.3271 -0.3186
C9 C -0.2378(6) -0.0805(18) -0.0878(5)
H6 H -0.2021 -0.1521 -0.0802
C10 C -0.2365(7) 0.0357(19) -0.0481(5)
H7 H -0.1999 0.0424 -0.0131
C11 C -0.2263(6) -0.1481(16) -0.2559(5)
H8 H -0.2210 -0.1740 -0.2973
H9 H -0.1897 -0.2008 -0.2268
C12 C -0.3643(6) -0.4083(14) -0.2389(6)
H10 H -0.4118 -0.4218 -0.2643
H11 H -0.3459 -0.5039 -0.2230
C13 C -0.5065(6) -0.1555(13) -0.0873(5)
H12 H -0.5011 -0.1899 -0.0470
C14 C -0.4859(7) -0.1449(15) -0.4093(5)
C15 C -0.5037(6) -0.1542(14) -0.3508(5)
N6 N -0.5266(6) -0.4781(17) -0.2223(7)
C16 C -0.4143(7) -0.1163(15) -0.4166(6)
H13 H -0.4069 -0.1276 -0.4566
C17 C -0.3424(7) 0.1395(14) -0.1104(5)
H14 H -0.3766 0.2144 -0.1172
C18 C -0.3456(11) 0.492(2) -0.4240(7)
H15 H -0.3283 0.5618 -0.4480
C19 C -0.2679(7) 0.2030(14) -0.3141(5)
H16 H -0.2211 0.2315 -0.3142
C20 C -0.2948(6) -0.0908(15) -0.1411(5)
C21 C -0.3712(7) -0.3827(15) -0.1292(6)
H17 H -0.3244 -0.4221 -0.1104
H18 H -0.4042 -0.4652 -0.1388
C22 C -0.2882(9) 0.1416(16) -0.0592(6)
H19 H -0.2866 0.2183 -0.0309
C23 C -0.6898(6) 0.1147(17) -0.1446(6)
H20 H -0.7286 0.1788 -0.1556
C24 C -0.6130(7) -0.0341(15) -0.0691(6)
H21 H -0.6018 -0.0731 -0.0294
C25 C -0.6731(7) 0.0558(16) -0.0863(7)
H22 H -0.7019 0.0760 -0.0582
C26 C -0.4170(12) 0.4775(16) -0.4243(6)
H23 H -0.4488 0.5437 -0.4478
C27 C -0.2144(6) 0.020(2) -0.2463(6)
H24 H -0.2083 0.0441 -0.2028
H25 H -0.1715 0.0499 -0.2602
C28 C -0.6064(9) -0.187(2) -0.4626(7)
H26 H -0.6409 -0.1966 -0.4989
C29 C -0.4454(9) 0.3642(15) -0.3898(6)
H27 H -0.4946 0.3559 -0.3928
C30 C -0.3030(9) 0.4000(16) -0.3876(6)
H28 H -0.2541 0.4112 -0.3858
C31 C -0.6479(6) 0.0773(15) -0.1874(6)
H29 H -0.6615 0.1112 -0.2279
C32 C -0.5782(7) -0.1740(19) -0.3510(6)
H30 H -0.5948 -0.1737 -0.3143
C33 C -0.5378(8) -0.1666(18) -0.4641(6)
H31 H -0.5238 -0.1667 -0.5020
C34 C -0.6248(8) -0.193(2) -0.4071(8)
H32 H -0.6726 -0.2125 -0.4065
N7 N -0.5223(7) -0.605(2) -0.2111(10)
Na1_2 Na -0.4968(3) -0.8361(6) -0.2517(3)
N7_2 N -0.5223(7) 0.395(2) -0.2111(10)
O1 O -0.2506(7) -0.021(2) -0.4452(7)
O3 O -0.5513(12) -0.633(3) -0.0840(9)
O4 O -0.1795(13) 0.276(3) -0.4639(10)
O5 O -0.6193(14) -0.524(3) -0.3734(18)
O6 O -0.4350(15) -0.611(3) -0.0145(14)
loop_
_geom_bond_atom_site_label_1
_geom_bond_atom_site_label_2
_geom_bond_site_symmetry_1
_geom_bond_site_symmetry_2
Na1 O2 1_555 1_555
Ni1 O7 1_555 1_555
Ni2 O7 1_555 1_555
O7 C15 1_555 1_555
O8 Na1 1_555 1_555
N1 Ni1 1_555 1_555
O9 Ni2 1_555 1_555
N2 Ni2 1_555 1_555
O10 Na1 1_555 1_555
O11 Na1 1_555 1_555
N3 Ni1 1_555 1_555
N4 Ni2 1_555 1_555
C1 O8 1_555 1_555
C2 C5 1_555 1_555
C3 N2 1_555 1_555
H1 C3 1_555 1_555
C4 O11 1_555 1_555
N5 Ni1 1_555 1_555
C5 O10 1_555 1_555
C6 N1 1_555 1_555
H2 C6 1_555 1_555
H3 C6 1_555 1_555
C7 C4 1_555 1_555
C8 N2 1_555 1_555
H4 C8 1_555 1_555
H5 C8 1_555 1_555
C9 H6 1_555 1_555
C10 C9 1_555 1_555
H7 C10 1_555 1_555
C11 N2 1_555 1_555
H8 C11 1_555 1_555
H9 C11 1_555 1_555
C12 N3 1_555 1_555
H10 C12 1_555 1_555
H11 C12 1_555 1_555
C13 N1 1_555 1_555
H12 C13 1_555 1_555
C14 C15 1_555 1_555
C15 C32 1_555 1_555
N6 N5 1_555 1_555
C16 O9 1_555 1_555
H13 C16 1_555 1_555
C17 C1 1_555 1_555
H14 C17 1_555 1_555
C18 H15 1_555 1_555
C19 N4 1_555 1_555
H16 C19 1_555 1_555
C20 C1 1_555 1_555
C21 N3 1_555 1_555
H17 C21 1_555 1_555
H18 C21 1_555 1_555
C22 C10 1_555 1_555
H19 C22 1_555 1_555
C23 H20 1_555 1_555
C24 C2 1_555 1_555
H21 C24 1_555 1_555
C25 C23 1_555 1_555
H22 C25 1_555 1_555
C26 C18 1_555 1_555
H23 C26 1_555 1_555
C27 N4 1_555 1_555
H24 C27 1_555 1_555
H25 C27 1_555 1_555
C28 H26 1_555 1_555
C29 C4 1_555 1_555
H27 C29 1_555 1_555
C30 C7 1_555 1_555
H28 C30 1_555 1_555
C31 C5 1_555 1_555
H29 C31 1_555 1_555
C32 H30 1_555 1_555
C33 C14 1_555 1_555
H31 C33 1_555 1_555
C34 C28 1_555 1_555
H32 C34 1_555 1_555
N7 N6 1_555 1_555
Na1_2 N7 1_555 1_555
N7_2 Na1 1_555 1_555
Ni1 O8 1_555 1_555
Ni1 O10 1_555 1_555
Ni2 O8 1_555 1_555
Ni2 O11 1_555 1_555
N3 C3 1_555 1_555
C2 C13 1_555 1_555
C3 C20 1_555 1_555
C6 C21 1_555 1_555
C7 C19 1_555 1_555
C8 C12 1_555 1_555
C9 C20 1_555 1_555
C11 C27 1_555 1_555
C14 C16 1_555 1_555
C17 C22 1_555 1_555
C18 C30 1_555 1_555
C23 C31 1_555 1_555
C24 C25 1_555 1_555
C26 C29 1_555 1_555
C28 C33 1_555 1_555
C32 C34 1_555 1_555

#END
