
#######################################################################
#
#                 Cambridge Crystallographic Data Centre
#                                CCDC 
#
#######################################################################
#
# If this CIF has been generated from an entry in the Cambridge 
# Structural Database, then it will include bibliographic, chemical, 
# crystal, experimental, refinement or atomic coordinate data resulting 
# from the CCDC's data processing and validation procedures.
#
#######################################################################

data_DIVJID
_symmetry_cell_setting           orthorhombic
_symmetry_space_group_name_H-M   'P 21 21 21'
_symmetry_Int_Tables_number      19
_space_group_name_Hall           'P 2ac 2ab'
loop_
_symmetry_equiv_pos_site_id
_symmetry_equiv_pos_as_xyz
1 x,y,z
2 1/2-x,-y,1/2+z
3 -x,1/2+y,1/2-z
4 1/2+x,1/2-y,-z
_cell_length_a                   12.466(3)
_cell_length_b                   13.104(3)
_cell_length_c                   24.301(5)
_cell_angle_alpha                90
_cell_angle_beta                 90
_cell_angle_gamma                90
_cell_volume                     3969.68
loop_
_atom_site_label
_atom_site_type_symbol
_atom_site_fract_x
_atom_site_fract_y
_atom_site_fract_z
C1 C 0.4060(8) 0.4772(7) 0.0874(5)
H1 H 0.4469 0.4284 0.1056
C2 C 0.3019(9) 0.4927(9) 0.1041(5)
H2 H 0.2727 0.4533 0.1321
C3 C 0.2418(10) 0.5664(11) 0.0792(6)
H3 H 0.1721 0.5792 0.0910
C4 C 0.2859(9) 0.6227(10) 0.0357(6)
H4 H 0.2461 0.6723 0.0174
C5 C 0.3937(7) 0.6012(8) 0.0205(5)
C6 C 0.4486(9) 0.6535(7) -0.0255(5)
C7 C 0.4050(14) 0.7389(9) -0.0525(7)
H5 H 0.3397 0.7668 -0.0416
C8 C 0.4619(16) 0.7790(10) -0.0950(8)
H6 H 0.4351 0.8353 -0.1139
C9 C 0.5601(15) 0.7369(10) -0.1106(6)
H7 H 0.5979 0.7638 -0.1402
C10 C 0.5999(11) 0.6555(8) -0.0820(4)
H8 H 0.6663 0.6282 -0.0913
C11 C 0.5821(6) 0.2984(6) 0.0467(4)
C12 C 0.5563(6) 0.1853(6) 0.0324(4)
C13 C 0.5767(8) 0.1580(7) -0.0299(4)
H9 H 0.5487 0.2107 -0.0539
H10 H 0.6526 0.1491 -0.0371
C14 C 0.5158(7) 0.0581(8) -0.0374(4)
H11 H 0.5638 0.0006 -0.0323
H12 H 0.4858 0.0544 -0.0742
C15 C 0.4251(6) 0.0554(6) 0.0060(4)
H13 H 0.4408 0.0008 0.0323
C16 C 0.4320(7) 0.1600(7) 0.0370(4)
C17 C 0.3985(9) 0.1474(8) 0.0963(4)
H14 H 0.3251 0.1253 0.0978
H15 H 0.4056 0.2115 0.1151
H16 H 0.4434 0.0974 0.1137
C18 C 0.3645(7) 0.2407(7) 0.0084(4)
H17 H 0.2899 0.2248 0.0129
H18 H 0.3818 0.2420 -0.0301
H19 H 0.3792 0.3063 0.0243
C19 C 0.6264(8) 0.1162(7) 0.0686(4)
H20 H 0.7006 0.1279 0.0603
H21 H 0.6089 0.0460 0.0615
H22 H 0.6134 0.1313 0.1067
C20 C 0.3166(7) 0.0365(6) -0.0182(4)
C21 C 0.5624(6) 0.3795(6) 0.2646(4)
C22 C 0.4570(7) 0.3450(6) 0.2875(4)
C23 C 0.3708(8) 0.3595(10) 0.2428(4)
H23 H 0.3594 0.4311 0.2367
H24 H 0.3049 0.3285 0.2547
H25 H 0.3942 0.3279 0.2093
C24 C 0.4217(8) 0.3995(7) 0.3408(4)
H26 H 0.3849 0.4627 0.3321
H27 H 0.4835 0.4152 0.3635
C25 C 0.3450(10) 0.3253(7) 0.3715(4)
H28 H 0.3649 0.3195 0.4100
H29 H 0.2714 0.3488 0.3692
C26 C 0.3582(6) 0.2243(6) 0.3425(4)
H30 H 0.2970 0.2166 0.3175
C27 C 0.4617(9) 0.2313(7) 0.3060(4)
C28 C 0.5620(8) 0.2095(9) 0.3380(6)
H31 H 0.5699 0.2592 0.3667
H32 H 0.6228 0.2125 0.3139
H33 H 0.5573 0.1426 0.3540
C29 C 0.4572(12) 0.1575(9) 0.2564(5)
H34 H 0.5079 0.1790 0.2290
H35 H 0.3863 0.1581 0.2409
H36 H 0.4745 0.0897 0.2684
C30 C 0.3602(6) 0.1303(6) 0.3798(3)
C31 C 0.8839(7) 0.4884(7) 0.2266(4)
C32 C 0.9757(7) 0.5023(7) 0.2675(5)
H37 H 0.9645 0.4538 0.2976
C33 C 1.0832(9) 0.4803(10) 0.2430(8)
H38 H 1.1012 0.4088 0.2476
H39 H 1.0831 0.4960 0.2040
C34 C 1.1624(9) 0.5457(10) 0.2723(7)
H40 H 1.1959 0.5927 0.2468
H41 H 1.2179 0.5037 0.2887
C35 C 1.1024(8) 0.6049(7) 0.3171(4)
C36 C 1.1110(13) 0.5482(9) 0.3722(6)
H42 H 1.0744 0.4840 0.3696
H43 H 1.0787 0.5886 0.4007
H44 H 1.1852 0.5367 0.3808
C37 C 0.9874(6) 0.6113(7) 0.2934(3)
C38 C 0.9795(11) 0.6931(8) 0.2506(6)
H45 H 0.9945 0.7581 0.2671
H46 H 0.9084 0.6937 0.2354
H47 H 1.0305 0.6799 0.2219
C39 C 0.9017(9) 0.6294(11) 0.3374(5)
H48 H 0.9242 0.6838 0.3612
H49 H 0.8919 0.5683 0.3586
H50 H 0.8353 0.6476 0.3200
C40 C 1.1571(8) 0.7126(7) 0.3253(4)
N1 N 0.4506(6) 0.5292(6) 0.0463(4)
N2 N 0.5431(7) 0.6147(6) -0.0402(3)
O1 O 0.6076(5) 0.3174(4) 0.0956(3)
O2 O 0.5759(5) 0.3615(4) 0.0089(2)
O3 O 0.2443(5) -0.0019(4) 0.0124(2)
O4 O 0.2998(5) 0.0578(5) -0.0673(2)
O5 O 0.3610(5) 0.0436(4) 0.3568(3)
O6 O 0.3607(5) 0.1404(4) 0.4318(2)
O7 O 0.5856(5) 0.3711(4) 0.2165(2)
O8 O 0.6292(6) 0.4211(6) 0.3010(3)
H51 H 0.6836 0.3862 0.3032
O9 O 0.7961(6) 0.4598(7) 0.2438(3)
O10 O 0.8971(7) 0.5036(7) 0.1772(3)
O11 O 1.1211(6) 0.7692(5) 0.3603(3)
O12 O 1.2360(8) 0.7346(7) 0.2993(4)
Cu1 Cu 0.60258(8) 0.51022(7) 0.02125(5)
Sm1 Sm 0.73727(3) 0.39406(3) 0.152876(16)
O3C O 0.7443(5) 0.5019(4) -0.0124(2)
O4C O 0.7998(5) 0.4422(5) 0.0673(2)
O5B O 0.6390(5) 0.5436(4) 0.1432(3)
O6B O 0.6393(5) 0.6404(4) 0.0682(2)
O11B O 0.8789(6) 0.2692(5) 0.1397(3)
O12B O 0.7640(8) 0.2346(7) 0.2007(4)
Cu1B Cu 0.39742(8) 0.01022(7) 0.47875(5)
Cu1C Cu 0.10258(8) -0.01022(7) -0.02125(5)
Sm1B Sm 0.26273(3) -0.10594(3) 0.347124(16)
Sm1B_2 Sm 1.26273(3) 0.89406(3) 0.347124(16)
Sm1C Sm 0.23727(3) 0.10594(3) -0.152876(16)
loop_
_geom_bond_atom_site_label_1
_geom_bond_atom_site_label_2
_geom_bond_site_symmetry_1
_geom_bond_site_symmetry_2
C1 H1 1_555 1_555
C2 C1 1_555 1_555
H2 C2 1_555 1_555
C3 C2 1_555 1_555
H3 C3 1_555 1_555
C4 C3 1_555 1_555
H4 C4 1_555 1_555
C5 C4 1_555 1_555
C6 C5 1_555 1_555
C7 C6 1_555 1_555
H5 C7 1_555 1_555
C8 C7 1_555 1_555
H6 C8 1_555 1_555
C9 C8 1_555 1_555
H7 C9 1_555 1_555
C10 C9 1_555 1_555
H8 C10 1_555 1_555
C11 C12 1_555 1_555
C12 C13 1_555 1_555
C13 H9 1_555 1_555
H10 C13 1_555 1_555
C14 C13 1_555 1_555
H11 C14 1_555 1_555
H12 C14 1_555 1_555
C15 C14 1_555 1_555
H13 C15 1_555 1_555
C16 C12 1_555 1_555
C17 C16 1_555 1_555
H14 C17 1_555 1_555
H15 C17 1_555 1_555
H16 C17 1_555 1_555
C18 C16 1_555 1_555
H17 C18 1_555 1_555
H18 C18 1_555 1_555
H19 C18 1_555 1_555
C19 C12 1_555 1_555
H20 C19 1_555 1_555
H21 C19 1_555 1_555
H22 C19 1_555 1_555
C20 C15 1_555 1_555
C21 C22 1_555 1_555
C22 C23 1_555 1_555
C23 H23 1_555 1_555
H24 C23 1_555 1_555
H25 C23 1_555 1_555
C24 C22 1_555 1_555
H26 C24 1_555 1_555
H27 C24 1_555 1_555
C25 C24 1_555 1_555
H28 C25 1_555 1_555
H29 C25 1_555 1_555
C26 C25 1_555 1_555
H30 C26 1_555 1_555
C27 C22 1_555 1_555
C28 C27 1_555 1_555
H31 C28 1_555 1_555
H32 C28 1_555 1_555
H33 C28 1_555 1_555
C29 C27 1_555 1_555
H34 C29 1_555 1_555
H35 C29 1_555 1_555
H36 C29 1_555 1_555
C30 C26 1_555 1_555
C31 C32 1_555 1_555
C32 H37 1_555 1_555
C33 C32 1_555 1_555
H38 C33 1_555 1_555
H39 C33 1_555 1_555
C34 C33 1_555 1_555
H40 C34 1_555 1_555
H41 C34 1_555 1_555
C35 C34 1_555 1_555
C36 C35 1_555 1_555
H42 C36 1_555 1_555
H43 C36 1_555 1_555
H44 C36 1_555 1_555
C37 C32 1_555 1_555
C38 C37 1_555 1_555
H45 C38 1_555 1_555
H46 C38 1_555 1_555
H47 C38 1_555 1_555
C39 C37 1_555 1_555
H48 C39 1_555 1_555
H49 C39 1_555 1_555
H50 C39 1_555 1_555
C40 C35 1_555 1_555
N1 C1 1_555 1_555
N2 C6 1_555 1_555
O1 C11 1_555 1_555
O2 C11 1_555 1_555
O3 C20 1_555 1_555
O4 C20 1_555 1_555
O5 C30 1_555 1_555
O6 C30 1_555 1_555
O7 C21 1_555 1_555
O8 C21 1_555 1_555
H51 O8 1_555 1_555
O9 C31 1_555 1_555
O10 C31 1_555 1_555
O11 C40 1_555 1_555
O12 C40 1_555 1_555
Cu1 N1 1_555 1_555
Sm1 O1 1_555 1_555
O3C Cu1 1_555 1_555
O4C Sm1 1_555 1_555
O5B Sm1 1_555 1_555
O6B Cu1 1_555 1_555
O11B Sm1 1_555 1_555
O12B Sm1 1_555 1_555
Cu1B O6 1_555 1_555
Cu1C O3 1_555 1_555
Sm1B O5 1_555 1_555
Sm1B_2 O11 1_555 1_555
Sm1C O4 1_555 1_555
C5 N1 1_555 1_555
C10 N2 1_555 1_555
C15 C16 1_555 1_555
C26 C27 1_555 1_555
C35 C37 1_555 1_555
N2 Cu1 1_555 1_555
O2 Cu1 1_555 1_555
O7 Sm1 1_555 1_555
O9 Sm1 1_555 1_555
O10 Sm1 1_555 1_555
O12 Sm1B_2 1_555 1_555

#END
