
#######################################################################
#
#                 Cambridge Crystallographic Data Centre
#                                CCDC 
#
#######################################################################
#
# If this CIF has been generated from an entry in the Cambridge 
# Structural Database, then it will include bibliographic, chemical, 
# crystal, experimental, refinement or atomic coordinate data resulting 
# from the CCDC's data processing and validation procedures.
#
#######################################################################

data_DIVJEZ
_symmetry_cell_setting           orthorhombic
_symmetry_space_group_name_H-M   'P 21 21 21'
_symmetry_Int_Tables_number      19
_space_group_name_Hall           'P 2ac 2ab'
loop_
_symmetry_equiv_pos_site_id
_symmetry_equiv_pos_as_xyz
1 x,y,z
2 1/2-x,-y,1/2+z
3 -x,1/2+y,1/2-z
4 1/2+x,1/2-y,-z
_cell_length_a                   12.550(3)
_cell_length_b                   13.018(3)
_cell_length_c                   24.173(5)
_cell_angle_alpha                90
_cell_angle_beta                 90
_cell_angle_gamma                90
_cell_volume                     3949.29
loop_
_atom_site_label
_atom_site_type_symbol
_atom_site_fract_x
_atom_site_fract_y
_atom_site_fract_z
C1 C 0.4056(9) 0.9772(8) 0.5905(5)
H1 H 0.4456 0.9268 0.6082
C2 C 0.3034(10) 0.9920(10) 0.6073(6)
H2 H 0.2743 0.9534 0.6360
C3 C 0.2438(12) 1.0665(12) 0.5803(7)
H3 H 0.1738 1.0794 0.5910
C4 C 0.2898(10) 1.1223(12) 0.5368(7)
H4 H 0.2504 1.1714 0.5178
C5 C 0.3967(9) 1.1028(9) 0.5224(5)
C6 C 0.4519(11) 1.1517(8) 0.4766(6)
C7 C 0.4120(14) 1.2368(10) 0.4475(7)
H5 H 0.3472 1.2658 0.4578
C8 C 0.4681(16) 1.2772(10) 0.4041(7)
H6 H 0.4425 1.3343 0.3851
C9 C 0.5616(14) 1.2327(10) 0.3892(5)
H7 H 0.5976 1.2560 0.3580
C10 C 0.6047(11) 1.1511(8) 0.4207(5)
H8 H 0.6713 1.1238 0.4124
C11 C 0.5652(9) 0.8822(7) 0.7623(4)
C12 C 0.4599(8) 0.8486(7) 0.7837(4)
C13 C 0.3765(10) 0.8599(12) 0.7389(5)
H9 H 0.3619 0.9314 0.7329
H10 H 0.3123 0.8256 0.7501
H11 H 0.4024 0.8297 0.7052
C14 C 0.4230(11) 0.9006(9) 0.8366(5)
H12 H 0.3894 0.9657 0.8278
H13 H 0.4838 0.9141 0.8603
C15 C 0.3399(12) 0.8279(7) 0.8681(5)
H14 H 0.3562 0.8228 0.9073
H15 H 0.2672 0.8520 0.8636
C16 C 0.3578(7) 0.7269(6) 0.8387(4)
H16 H 0.2993 0.7187 0.8122
C17 C 0.4624(10) 0.7343(9) 0.8042(5)
C18 C 0.4550(15) 0.6572(11) 0.7522(6)
H17 H 0.5052 0.6780 0.7244
H18 H 0.3843 0.6591 0.7371
H19 H 0.4712 0.5886 0.7641
C19 C 0.5587(9) 0.7075(10) 0.8343(6)
H20 H 0.6188 0.7107 0.8098
H21 H 0.5521 0.6392 0.8488
H22 H 0.5688 0.7550 0.8643
C20 C 0.3566(7) 0.6333(7) 0.8754(4)
C21 C 0.8449(8) 0.7120(7) 0.6738(4)
C22 C 0.8955(7) 0.6051(7) 0.6844(4)
C23 C 0.8907(12) 0.5461(9) 0.6276(5)
H23 H 0.9231 0.4797 0.6317
H24 H 0.9284 0.5846 0.5999
H25 H 0.8178 0.5379 0.6165
C24 C 1.0972(10) 0.6280(10) 0.6646(5)
H26 H 1.0721 0.6749 0.6368
H27 H 1.1138 0.5632 0.6477
H28 H 1.1600 0.6556 0.6817
C25 C 1.0101(7) 0.6126(8) 0.7086(4)
C26 C 1.0147(11) 0.6944(8) 0.7518(6)
H29 H 1.0788 0.6867 0.7731
H30 H 0.9540 0.6884 0.7758
H31 H 1.0143 0.7607 0.7344
C27 C 0.9133(11) 0.4835(11) 0.7635(7)
H32 H 0.8959 0.4109 0.7632
H33 H 0.9141 0.5078 0.8014
C28 C 0.8355(10) 0.5443(10) 0.7289(7)
H34 H 0.7959 0.5912 0.7523
H35 H 0.7851 0.4980 0.7114
C29 C 1.0227(9) 0.5040(8) 0.7344(4)
H36 H 1.0297 0.4547 0.7039
C30 C 1.1154(8) 0.4856(7) 0.7745(4)
C31 C 0.8265(8) 0.9682(6) 0.5176(4)
C32 C 0.9345(7) 0.9421(7) 0.4987(4)
H37 H 0.9580 0.9975 0.4741
C33 C 1.0170(8) 0.9334(8) 0.5451(5)
H38 H 0.9816 0.9296 0.5807
H39 H 1.0634 0.9930 0.5450
C34 C 1.0827(9) 0.8345(7) 0.5348(4)
H40 H 1.0564 0.7778 0.5569
H41 H 1.1576 0.8453 0.5429
C35 C 1.0642(8) 0.8145(7) 0.4708(4)
C36 C 0.9438(7) 0.8406(7) 0.4659(4)
C37 C 0.9114(10) 0.8559(10) 0.4051(4)
H42 H 0.9154 0.7913 0.3860
H43 H 0.9589 0.9041 0.3880
H44 H 0.8399 0.8816 0.4034
C38 C 0.8734(8) 0.7575(7) 0.4933(4)
H45 H 0.8804 0.6942 0.4734
H46 H 0.8003 0.7793 0.4927
H47 H 0.8958 0.7476 0.5309
C39 C 1.1345(9) 0.8839(8) 0.4362(5)
H48 H 1.1221 0.8706 0.3976
H49 H 1.2079 0.8708 0.4447
H50 H 1.1181 0.9544 0.4442
C40 C 1.0896(7) 0.6999(7) 0.4546(4)
Co1 Co 0.61672(11) 1.01728(9) 0.52266(5)
Dy1 Dy 0.74060(3) 0.89362(3) 0.651865(15)
N1 N 0.4522(7) 1.0315(6) 0.5497(4)
N2 N 0.5469(8) 1.1142(7) 0.4630(4)
O1 O 0.5904(5) 0.8732(5) 0.7138(3)
O2 O 0.6318(6) 0.9195(7) 0.7991(3)
H51 H 0.6928 0.9030 0.7909
O3 O 0.3517(5) 0.5451(4) 0.8523(3)
O4 O 0.3584(5) 0.6421(4) 0.9277(2)
O5 O 0.7592(8) 0.7309(6) 0.6966(3)
O6 O 0.8820(6) 0.7718(5) 0.6408(3)
O7 O 1.1984(7) 0.4485(7) 0.7575(3)
O8 O 1.1058(7) 0.5044(7) 0.8249(3)
O9 O 0.7955(5) 0.9437(5) 0.5657(3)
O10 O 0.7631(6) 1.0116(4) 0.4848(2)
O11 O 1.0839(5) 0.6330(4) 0.4915(3)
O12 O 1.1148(5) 0.6815(5) 0.4043(3)
Co1B Co 0.38328(11) 0.51728(9) 0.97734(5)
Co1C Co 1.11672(11) 0.48272(9) 0.47734(5)
Dy1B Dy 0.25940(3) 0.39362(3) 0.848135(15)
Dy1B_2 Dy 1.25940(3) 0.39362(3) 0.848135(15)
Dy1C Dy 1.24060(3) 0.60638(3) 0.348135(15)
O3B O 0.6483(5) 1.0451(4) 0.6477(3)
O4B O 0.6416(5) 1.1421(4) 0.5723(2)
O7B O 0.8016(7) 0.9485(7) 0.7425(3)
O8B O 0.8942(7) 1.0044(7) 0.6751(3)
O11C O 0.5839(5) 0.8670(4) 0.5085(3)
O12C O 0.6148(5) 0.8185(5) 0.5957(3)
loop_
_geom_bond_atom_site_label_1
_geom_bond_atom_site_label_2
_geom_bond_site_symmetry_1
_geom_bond_site_symmetry_2
C1 H1 1_555 1_555
C2 C1 1_555 1_555
H2 C2 1_555 1_555
C3 C2 1_555 1_555
H3 C3 1_555 1_555
C4 C3 1_555 1_555
H4 C4 1_555 1_555
C5 C4 1_555 1_555
C6 C5 1_555 1_555
C7 C6 1_555 1_555
H5 C7 1_555 1_555
C8 C7 1_555 1_555
H6 C8 1_555 1_555
C9 C8 1_555 1_555
H7 C9 1_555 1_555
C10 C9 1_555 1_555
H8 C10 1_555 1_555
C11 C12 1_555 1_555
C12 C13 1_555 1_555
C13 H9 1_555 1_555
H10 C13 1_555 1_555
H11 C13 1_555 1_555
C14 C12 1_555 1_555
H12 C14 1_555 1_555
H13 C14 1_555 1_555
C15 C14 1_555 1_555
H14 C15 1_555 1_555
H15 C15 1_555 1_555
C16 C15 1_555 1_555
H16 C16 1_555 1_555
C17 C12 1_555 1_555
C18 C17 1_555 1_555
H17 C18 1_555 1_555
H18 C18 1_555 1_555
H19 C18 1_555 1_555
C19 C17 1_555 1_555
H20 C19 1_555 1_555
H21 C19 1_555 1_555
H22 C19 1_555 1_555
C20 C16 1_555 1_555
C21 C22 1_555 1_555
C22 C23 1_555 1_555
C23 H23 1_555 1_555
H24 C23 1_555 1_555
H25 C23 1_555 1_555
C24 H26 1_555 1_555
H27 C24 1_555 1_555
H28 C24 1_555 1_555
C25 C22 1_555 1_555
C26 C25 1_555 1_555
H29 C26 1_555 1_555
H30 C26 1_555 1_555
H31 C26 1_555 1_555
C27 H32 1_555 1_555
H33 C27 1_555 1_555
C28 C22 1_555 1_555
H34 C28 1_555 1_555
H35 C28 1_555 1_555
C29 C25 1_555 1_555
H36 C29 1_555 1_555
C30 C29 1_555 1_555
C31 C32 1_555 1_555
C32 H37 1_555 1_555
C33 C32 1_555 1_555
H38 C33 1_555 1_555
H39 C33 1_555 1_555
C34 C33 1_555 1_555
H40 C34 1_555 1_555
H41 C34 1_555 1_555
C35 C34 1_555 1_555
C36 C32 1_555 1_555
C37 C36 1_555 1_555
H42 C37 1_555 1_555
H43 C37 1_555 1_555
H44 C37 1_555 1_555
C38 C36 1_555 1_555
H45 C38 1_555 1_555
H46 C38 1_555 1_555
H47 C38 1_555 1_555
C39 C35 1_555 1_555
H48 C39 1_555 1_555
H49 C39 1_555 1_555
H50 C39 1_555 1_555
C40 C35 1_555 1_555
Co1 N1 1_555 1_555
Dy1 O1 1_555 1_555
N1 C1 1_555 1_555
N2 C6 1_555 1_555
O1 C11 1_555 1_555
O2 C11 1_555 1_555
H51 O2 1_555 1_555
O3 C20 1_555 1_555
O4 C20 1_555 1_555
O5 C21 1_555 1_555
O6 C21 1_555 1_555
O7 C30 1_555 1_555
O8 C30 1_555 1_555
O9 C31 1_555 1_555
O10 C31 1_555 1_555
O11 C40 1_555 1_555
O12 C40 1_555 1_555
Co1B O4 1_555 1_555
Co1C O11 1_555 1_555
Dy1B O3 1_555 1_555
Dy1B_2 O7 1_555 1_555
Dy1C O12 1_555 1_555
O3B Dy1 1_555 1_555
O4B Co1 1_555 1_555
O7B Dy1 1_555 1_555
O8B Dy1 1_555 1_555
O11C Co1 1_555 1_555
O12C Dy1 1_555 1_555
C5 N1 1_555 1_555
C10 N2 1_555 1_555
C16 C17 1_555 1_555
C24 C25 1_555 1_555
C27 C28 1_555 1_555
C27 C29 1_555 1_555
C35 C36 1_555 1_555
Co1 N2 1_555 1_555
Co1 O10 1_555 1_555
Dy1 O5 1_555 1_555
Dy1 O6 1_555 1_555
Dy1 O9 1_555 1_555
O8 Dy1B_2 1_555 1_555

#END
