
#######################################################################
#
#                 Cambridge Crystallographic Data Centre
#                                CCDC 
#
#######################################################################
#
# If this CIF has been generated from an entry in the Cambridge 
# Structural Database, then it will include bibliographic, chemical, 
# crystal, experimental, refinement or atomic coordinate data resulting 
# from the CCDC's data processing and validation procedures.
#
#######################################################################

data_DIVJOJ
_symmetry_cell_setting           orthorhombic
_symmetry_space_group_name_H-M   'P 21 21 21'
_symmetry_Int_Tables_number      19
_space_group_name_Hall           'P 2ac 2ab'
loop_
_symmetry_equiv_pos_site_id
_symmetry_equiv_pos_as_xyz
1 x,y,z
2 1/2-x,-y,1/2+z
3 -x,1/2+y,1/2-z
4 1/2+x,1/2-y,-z
_cell_length_a                   12.446(3)
_cell_length_b                   13.104(3)
_cell_length_c                   24.277(5)
_cell_angle_alpha                90
_cell_angle_beta                 90
_cell_angle_gamma                90
_cell_volume                     3959.39
loop_
_atom_site_label
_atom_site_type_symbol
_atom_site_fract_x
_atom_site_fract_y
_atom_site_fract_z
C1 C 1.0949(9) 0.9759(9) 0.9112(4)
H1 H 1.0528 0.9274 0.8935
C2 C 1.1986(10) 0.9891(11) 0.8939(5)
H2 H 1.2293 0.9494 0.8663
C3 C 1.2549(12) 1.0667(14) 0.9207(6)
H3 H 1.3242 1.0811 0.9086
C4 C 1.2153(10) 1.1223(12) 0.9632(6)
H4 H 1.2566 1.1715 0.9810
C5 C 1.1068(8) 1.1016(11) 0.9792(5)
C6 C 1.0548(10) 1.1524(9) 1.0244(5)
C7 C 1.0961(14) 1.2392(10) 1.0530(7)
H5 H 1.1621 1.2671 1.0433
C8 C 1.0370(17) 1.2807(12) 1.0950(7)
H6 H 1.0612 1.3386 1.1133
C9 C 0.9418(14) 1.2356(13) 1.1098(6)
H7 H 0.9034 1.2603 1.1399
C10 C 0.9024(12) 1.1527(9) 1.0797(5)
H8 H 0.8357 1.1252 1.0885
C11 C 0.9180(7) 0.7988(8) 0.9545(4)
C12 C 0.9452(8) 0.6845(7) 0.9660(4)
C13 C 0.8742(9) 0.6160(10) 0.9293(5)
H9 H 0.8888 0.6302 0.8912
H10 H 0.7999 0.6295 0.9370
H11 H 0.8898 0.5456 0.9369
C14 C 0.9243(9) 0.6592(9) 1.0312(5)
H12 H 0.9548 0.7114 1.0548
H13 H 0.8483 0.6521 1.0392
C15 C 0.9836(9) 0.5573(9) 1.0375(5)
H14 H 0.9348 0.5007 1.0318
H15 H 1.0146 0.5516 1.0741
C16 C 1.0741(7) 0.5570(8) 0.9927(4)
H16 H 1.0584 0.5031 0.9659
C17 C 1.0674(8) 0.6600(9) 0.9636(4)
C18 C 1.1017(10) 0.6486(10) 0.9039(4)
H17 H 1.0773 0.7066 0.8833
H18 H 1.0708 0.5876 0.8889
H19 H 1.1786 0.6445 0.9020
C19 C 1.1352(8) 0.7399(9) 0.9919(4)
H20 H 1.2093 0.7199 0.9908
H21 H 1.1126 0.7466 1.0295
H22 H 1.1266 0.8042 0.9734
C20 C 1.1851(7) 0.5371(7) 1.0176(4)
C21 C 0.6563(9) 0.7121(9) 0.8251(5)
C22 C 0.6037(9) 0.6079(10) 0.8159(5)
C23 C 0.6105(11) 0.5496(10) 0.8720(5)
H23 H 0.6842 0.5336 0.8800
H24 H 0.5696 0.4876 0.8697
H25 H 0.5819 0.5917 0.9009
C24 C 0.6644(9) 0.5441(10) 0.7730(5)
H26 H 0.7044 0.5887 0.7487
H27 H 0.7150 0.4992 0.7914
C25 C 0.5863(9) 0.4821(10) 0.7403(5)
H28 H 0.6032 0.4099 0.7426
H29 H 0.5866 0.5026 0.7019
C26 C 0.4745(9) 0.5057(10) 0.7679(5)
H30 H 0.4639 0.4572 0.7981
C27 C 0.4883(8) 0.6124(10) 0.7928(5)
C28 C 0.4805(10) 0.6960(10) 0.7494(6)
H31 H 0.4916 0.7613 0.7665
H32 H 0.4107 0.6943 0.7327
H33 H 0.5344 0.6852 0.7218
C29 C 0.4043(9) 0.6314(10) 0.8367(5)
H34 H 0.4329 0.6766 0.8642
H35 H 0.3848 0.5678 0.8536
H36 H 0.3419 0.6618 0.8202
C30 C 0.3852(9) 0.4891(9) 0.7259(5)
C31 C 0.9359(8) 0.8813(8) 0.7364(4)
C32 C 1.1293(9) 0.8567(10) 0.7575(4)
H37 H 1.1375 0.9275 0.7668
H38 H 1.1961 0.8307 0.7436
H39 H 1.1088 0.8190 0.7898
C33 C 1.0428(9) 0.8454(8) 0.7137(4)
C34 C 1.0391(9) 0.7296(9) 0.6939(4)
C35 C 1.0406(11) 0.6554(9) 0.7435(5)
H40 H 0.9881 0.6765 0.7701
H41 H 1.1106 0.6558 0.7601
H42 H 1.0241 0.5876 0.7310
C36 C 0.9371(8) 0.7082(9) 0.6625(5)
H43 H 0.9256 0.7610 0.6358
H44 H 0.8776 0.7064 0.6877
H45 H 0.9431 0.6435 0.6442
C37 C 1.1396(7) 0.7252(7) 0.6575(4)
H46 H 1.2010 0.7173 0.6825
C38 C 1.1562(11) 0.8240(8) 0.6276(5)
H47 H 1.1357 0.8183 0.5892
H48 H 1.2303 0.8464 0.6299
C39 C 1.0789(9) 0.8984(10) 0.6598(5)
H49 H 1.1161 0.9615 0.6682
H50 H 1.0168 0.9144 0.6373
C40 C 1.1392(7) 0.6298(7) 0.6199(4)
N1 N 1.0507(7) 1.0300(7) 0.9531(4)
N2 N 0.9600(8) 1.1120(9) 1.0381(4)
O1 O 0.9253(5) 0.8624(5) 0.9908(3)
O2 O 0.8900(6) 0.8177(6) 0.9038(3)
O3 O 1.2558(5) 0.4988(5) 0.9881(2)
O4 O 1.1994(5) 0.5581(5) 1.0675(3)
O5 O 0.7366(8) 0.7338(7) 0.8006(4)
O6 O 0.6202(7) 0.7697(6) 0.8600(3)
O7 O 0.3983(8) 0.5039(9) 0.6771(3)
O8 O 0.2977(7) 0.4593(8) 0.7439(3)
O9 O 0.8699(6) 0.9180(7) 0.6987(3)
H51 H 0.8166 0.9420 0.7137
O10 O 0.9140(5) 0.8726(6) 0.7840(3)
O11 O 1.1397(5) 0.6405(5) 0.5686(2)
O12 O 1.1400(6) 0.5427(5) 0.6434(3)
Cu1 Cu 0.89756(10) 1.00997(10) 0.97808(5)
Eu1 Eu 0.76211(3) 0.89446(4) 0.847025(17)
O3C O 0.7558(5) 1.0012(5) 1.0119(2)
O4C O 0.6994(5) 0.9419(5) 0.9325(3)
O7B O 0.6017(8) 1.0039(9) 0.8229(3)
O8B O 0.7023(7) 0.9593(8) 0.7561(3)
O11B O 0.8603(5) 1.1405(5) 0.9314(2)
O12B O 0.8600(6) 1.0427(5) 0.8566(3)
Cu1B Cu 1.10244(10) 0.50997(10) 0.52192(5)
Cu1C Cu 1.39756(10) 0.49003(10) 1.02192(5)
Eu1B Eu 0.23789(3) 0.39446(4) 0.652975(17)
Eu1B_2 Eu 1.23789(3) 0.39446(4) 0.652975(17)
Eu1C Eu 1.26211(3) 0.60554(4) 1.152975(17)
loop_
_geom_bond_atom_site_label_1
_geom_bond_atom_site_label_2
_geom_bond_site_symmetry_1
_geom_bond_site_symmetry_2
C1 H1 1_555 1_555
C2 C1 1_555 1_555
H2 C2 1_555 1_555
C3 C2 1_555 1_555
H3 C3 1_555 1_555
C4 C3 1_555 1_555
H4 C4 1_555 1_555
C5 C4 1_555 1_555
C6 C5 1_555 1_555
C7 C6 1_555 1_555
H5 C7 1_555 1_555
C8 C7 1_555 1_555
H6 C8 1_555 1_555
C9 C8 1_555 1_555
H7 C9 1_555 1_555
C10 C9 1_555 1_555
H8 C10 1_555 1_555
C11 C12 1_555 1_555
C12 C13 1_555 1_555
C13 H9 1_555 1_555
H10 C13 1_555 1_555
H11 C13 1_555 1_555
C14 C12 1_555 1_555
H12 C14 1_555 1_555
H13 C14 1_555 1_555
C15 C14 1_555 1_555
H14 C15 1_555 1_555
H15 C15 1_555 1_555
C16 C15 1_555 1_555
H16 C16 1_555 1_555
C17 C12 1_555 1_555
C18 C17 1_555 1_555
H17 C18 1_555 1_555
H18 C18 1_555 1_555
H19 C18 1_555 1_555
C19 C17 1_555 1_555
H20 C19 1_555 1_555
H21 C19 1_555 1_555
H22 C19 1_555 1_555
C20 C16 1_555 1_555
C21 C22 1_555 1_555
C22 C23 1_555 1_555
C23 H23 1_555 1_555
H24 C23 1_555 1_555
H25 C23 1_555 1_555
C24 C22 1_555 1_555
H26 C24 1_555 1_555
H27 C24 1_555 1_555
C25 C24 1_555 1_555
H28 C25 1_555 1_555
H29 C25 1_555 1_555
C26 C25 1_555 1_555
H30 C26 1_555 1_555
C27 C22 1_555 1_555
C28 C27 1_555 1_555
H31 C28 1_555 1_555
H32 C28 1_555 1_555
H33 C28 1_555 1_555
C29 C27 1_555 1_555
H34 C29 1_555 1_555
H35 C29 1_555 1_555
H36 C29 1_555 1_555
C30 C26 1_555 1_555
C31 C33 1_555 1_555
C32 H37 1_555 1_555
H38 C32 1_555 1_555
H39 C32 1_555 1_555
C33 C32 1_555 1_555
C34 C33 1_555 1_555
C35 C34 1_555 1_555
H40 C35 1_555 1_555
H41 C35 1_555 1_555
H42 C35 1_555 1_555
C36 C34 1_555 1_555
H43 C36 1_555 1_555
H44 C36 1_555 1_555
H45 C36 1_555 1_555
C37 C34 1_555 1_555
H46 C37 1_555 1_555
C38 C37 1_555 1_555
H47 C38 1_555 1_555
H48 C38 1_555 1_555
C39 C33 1_555 1_555
H49 C39 1_555 1_555
H50 C39 1_555 1_555
C40 C37 1_555 1_555
N1 C1 1_555 1_555
N2 C6 1_555 1_555
O1 C11 1_555 1_555
O2 C11 1_555 1_555
O3 C20 1_555 1_555
O4 C20 1_555 1_555
O5 C21 1_555 1_555
O6 C21 1_555 1_555
O7 C30 1_555 1_555
O8 C30 1_555 1_555
O9 C31 1_555 1_555
H51 O9 1_555 1_555
O10 C31 1_555 1_555
O11 C40 1_555 1_555
O12 C40 1_555 1_555
Cu1 N1 1_555 1_555
Eu1 O2 1_555 1_555
O3C Cu1 1_555 1_555
O4C Eu1 1_555 1_555
O7B Eu1 1_555 1_555
O8B Eu1 1_555 1_555
O11B Cu1 1_555 1_555
O12B Eu1 1_555 1_555
Cu1B O11 1_555 1_555
Cu1C O3 1_555 1_555
Eu1B O7 1_555 1_555
Eu1B_2 O12 1_555 1_555
Eu1C O4 1_555 1_555
C5 N1 1_555 1_555
C10 N2 1_555 1_555
C16 C17 1_555 1_555
C26 C27 1_555 1_555
C38 C39 1_555 1_555
N2 Cu1 1_555 1_555
O1 Cu1 1_555 1_555
O5 Eu1 1_555 1_555
O6 Eu1 1_555 1_555
O8 Eu1B 1_555 1_555
O10 Eu1 1_555 1_555

#END
