
#######################################################################
#
#                 Cambridge Crystallographic Data Centre
#                                CCDC 
#
#######################################################################
#
# If this CIF has been generated from an entry in the Cambridge 
# Structural Database, then it will include bibliographic, chemical, 
# crystal, experimental, refinement or atomic coordinate data resulting 
# from the CCDC's data processing and validation procedures.
#
#######################################################################

data_DIVJAV
_symmetry_cell_setting           orthorhombic
_symmetry_space_group_name_H-M   'P 21 21 21'
_symmetry_Int_Tables_number      19
_space_group_name_Hall           'P 2ac 2ab'
loop_
_symmetry_equiv_pos_site_id
_symmetry_equiv_pos_as_xyz
1 x,y,z
2 1/2-x,-y,1/2+z
3 -x,1/2+y,1/2-z
4 1/2+x,1/2-y,-z
_cell_length_a                   12.502(3)
_cell_length_b                   13.012(3)
_cell_length_c                   24.219(5)
_cell_angle_alpha                90
_cell_angle_beta                 90
_cell_angle_gamma                90
_cell_volume                     3939.85
loop_
_atom_site_label
_atom_site_type_symbol
_atom_site_fract_x
_atom_site_fract_y
_atom_site_fract_z
C1 C 0.4030(19) 0.9813(16) 0.0888(11)
H1 H 0.4435 0.9308 0.1061
C2 C 0.2978(18) 0.9945(19) 0.1080(13)
H2 H 0.2689 0.9569 0.1371
C3 C 0.244(2) 1.066(2) 0.0806(12)
H3 H 0.1737 1.0793 0.0913
C4 C 0.2858(17) 1.120(2) 0.0369(10)
H4 H 0.2441 1.1677 0.0179
C5 C 0.3932(16) 1.1033(16) 0.0215(10)
C6 C 0.4504(17) 1.1508(16) -0.0229(10)
C7 C 0.404(3) 1.2345(17) -0.0555(14)
H5 H 0.3362 1.2600 -0.0483
C8 C 0.465(3) 1.273(2) -0.0964(14)
H6 H 0.4422 1.3320 -0.1144
C9 C 0.558(3) 1.229(2) -0.1124(12)
H7 H 0.5927 1.2501 -0.1443
C10 C 0.598(2) 1.1525(15) -0.0803(10)
H8 H 0.6651 1.1259 -0.0887
C11 C 0.8228(14) 0.9664(13) 0.0168(8)
C12 C 0.9344(18) 0.9429(15) -0.0030(9)
H9 H 0.9572 0.9974 -0.0283
C13 C 1.0140(17) 0.9350(16) 0.0428(9)
H10 H 0.9776 0.9325 0.0782
H11 H 1.0612 0.9941 0.0426
C14 C 1.0806(17) 0.8327(14) 0.0334(10)
H12 H 1.0540 0.7771 0.0562
H13 H 1.1560 0.8433 0.0411
C15 C 1.0610(15) 0.8098(12) -0.0310(9)
C16 C 0.9414(15) 0.8400(12) -0.0327(10)
C17 C 0.8666(16) 0.7567(14) -0.0080(8)
H14 H 0.8717 0.7579 0.0315
H15 H 0.8877 0.6902 -0.0214
H16 H 0.7941 0.7704 -0.0189
C18 C 0.907(2) 0.8545(19) -0.0950(9)
H17 H 0.9350 0.9184 -0.1086
H18 H 0.8306 0.8550 -0.0975
H19 H 0.9351 0.7988 -0.1166
C19 C 1.1315(16) 0.8803(13) -0.0676(8)
H20 H 1.2055 0.8630 -0.0624
H21 H 1.1201 0.9508 -0.0574
H22 H 1.1126 0.8709 -0.1057
C20 C 1.0847(13) 0.7009(12) -0.0446(8)
C21 C 0.8868(16) 0.9913(13) 0.2252(8)
C22 C 0.9755(16) 1.0014(13) 0.2672(9)
H23 H 0.9658 0.9502 0.2964
C23 C 1.0837(18) 0.988(2) 0.2410(13)
H24 H 1.1031 0.9156 0.2412
H25 H 1.0814 1.0108 0.2029
C24 C 1.1648(19) 1.0482(18) 0.2721(11)
H26 H 1.2170 1.0028 0.2889
H27 H 1.2019 1.0952 0.2476
C25 C 1.1068(15) 1.1048(16) 0.3143(8)
C26 C 1.110(2) 1.0505(18) 0.3718(11)
H28 H 1.0769 0.9842 0.3691
H29 H 1.0725 1.0915 0.3984
H30 H 1.1832 1.0424 0.3833
C27 C 1.1524(16) 1.2152(13) 0.3278(9)
C28 C 0.9887(14) 1.1128(14) 0.2940(8)
C29 C 0.977(2) 1.1983(17) 0.2508(12)
H31 H 0.9068 1.1954 0.2348
H32 H 1.0297 1.1892 0.2224
H33 H 0.9872 1.2639 0.2682
C30 C 0.9022(19) 1.128(2) 0.3348(9)
H34 H 0.9314 1.1571 0.3680
H35 H 0.8695 1.0631 0.3431
H36 H 0.8494 1.1738 0.3198
C31 C 0.5657(17) 0.8846(17) 0.2632(9)
C32 C 0.4596(17) 0.8492(13) 0.2867(8)
C33 C 0.3732(17) 0.8619(18) 0.2414(11)
H37 H 0.3079 0.8301 0.2533
H38 H 0.3973 0.8298 0.2079
H39 H 0.3609 0.9337 0.2348
C34 C 0.461(2) 0.7337(15) 0.3032(11)
C35 C 0.3572(14) 0.7306(13) 0.3409(8)
H40 H 0.2954 0.7245 0.3163
C36 C 0.346(2) 0.8281(13) 0.3712(9)
H41 H 0.3691 0.8212 0.4092
H42 H 0.2724 0.8523 0.3705
C37 C 0.4226(19) 0.9026(15) 0.3372(10)
H43 H 0.3844 0.9647 0.3272
H44 H 0.4836 0.9217 0.3598
C38 C 0.5627(17) 0.7129(18) 0.3367(13)
H45 H 0.5605 0.6443 0.3512
H46 H 0.5674 0.7611 0.3666
H47 H 0.6240 0.7203 0.3132
C39 C 0.463(3) 0.6573(16) 0.2538(12)
H48 H 0.5204 0.6747 0.2294
H49 H 0.3961 0.6614 0.2340
H50 H 0.4724 0.5886 0.2673
C40 C 0.3570(15) 0.6359(13) 0.3784(10)
Co1 Co 0.6125(2) 1.01745(18) 0.02176(12)
N1 N 0.4509(13) 1.0336(12) 0.0484(7)
N2 N 0.5456(14) 1.1150(12) -0.0381(7)
O1 O 0.7944(9) 0.9456(9) 0.0646(6)
O2 O 0.7566(11) 1.0088(8) -0.0164(5)
O3 O 1.0807(10) 0.6327(9) -0.0095(6)
O4 O 1.1113(10) 0.6814(9) -0.0951(6)
O5 O 0.5868(11) 0.8724(9) 0.2153(6)
O6 O 0.6308(12) 0.9244(10) 0.3003(6)
H51 H 0.6867 0.9418 0.2853
O7 O 0.3590(11) 0.5475(8) 0.3559(6)
O8 O 0.3617(11) 0.6446(9) 0.4299(6)
O9 O 0.8024(12) 0.9573(12) 0.2431(6)
O10 O 0.8974(12) 1.0039(11) 0.1773(6)
O11 O 1.1207(14) 1.2706(12) 0.3601(8)
O12 O 1.2341(15) 1.2343(11) 0.3009(7)
Tb1 Tb 0.73899(7) 0.89545(6) 0.15153(4)
Co1B Co 0.3875(2) 0.51745(18) 0.47824(12)
Co1C Co 1.1125(2) 0.48255(18) -0.02176(12)
O3C O 0.5807(10) 0.8673(9) 0.0095(6)
O4C O 0.6113(10) 0.8186(9) 0.0951(6)
O7B O 0.6410(11) 1.0475(8) 0.1441(6)
O8B O 0.6383(11) 1.1446(9) 0.0701(6)
O11B O 0.8793(14) 0.7706(12) 0.1399(8)
O12B O 0.7659(15) 0.7343(11) 0.1991(7)
Tb1B Tb 0.26101(7) 0.39545(6) 0.34847(4)
Tb1B_2 Tb 1.26101(7) 1.39545(6) 0.34847(4)
Tb1C Tb 1.23899(7) 0.60455(6) -0.15153(4)
loop_
_geom_bond_atom_site_label_1
_geom_bond_atom_site_label_2
_geom_bond_site_symmetry_1
_geom_bond_site_symmetry_2
C1 H1 1_555 1_555
C2 C1 1_555 1_555
H2 C2 1_555 1_555
C3 C2 1_555 1_555
H3 C3 1_555 1_555
C4 C3 1_555 1_555
H4 C4 1_555 1_555
C5 C4 1_555 1_555
C6 C5 1_555 1_555
C7 C6 1_555 1_555
H5 C7 1_555 1_555
C8 C7 1_555 1_555
H6 C8 1_555 1_555
C9 C8 1_555 1_555
H7 C9 1_555 1_555
C10 C9 1_555 1_555
H8 C10 1_555 1_555
C11 C12 1_555 1_555
C12 H9 1_555 1_555
C13 C12 1_555 1_555
H10 C13 1_555 1_555
H11 C13 1_555 1_555
C14 C13 1_555 1_555
H12 C14 1_555 1_555
H13 C14 1_555 1_555
C15 C14 1_555 1_555
C16 C12 1_555 1_555
C17 C16 1_555 1_555
H14 C17 1_555 1_555
H15 C17 1_555 1_555
H16 C17 1_555 1_555
C18 C16 1_555 1_555
H17 C18 1_555 1_555
H18 C18 1_555 1_555
H19 C18 1_555 1_555
C19 C15 1_555 1_555
H20 C19 1_555 1_555
H21 C19 1_555 1_555
H22 C19 1_555 1_555
C20 C15 1_555 1_555
C21 C22 1_555 1_555
C22 H23 1_555 1_555
C23 C22 1_555 1_555
H24 C23 1_555 1_555
H25 C23 1_555 1_555
C24 C23 1_555 1_555
H26 C24 1_555 1_555
H27 C24 1_555 1_555
C25 C24 1_555 1_555
C26 C25 1_555 1_555
H28 C26 1_555 1_555
H29 C26 1_555 1_555
H30 C26 1_555 1_555
C27 C25 1_555 1_555
C28 C22 1_555 1_555
C29 C28 1_555 1_555
H31 C29 1_555 1_555
H32 C29 1_555 1_555
H33 C29 1_555 1_555
C30 C28 1_555 1_555
H34 C30 1_555 1_555
H35 C30 1_555 1_555
H36 C30 1_555 1_555
C31 C32 1_555 1_555
C32 C33 1_555 1_555
C33 H37 1_555 1_555
H38 C33 1_555 1_555
H39 C33 1_555 1_555
C34 C32 1_555 1_555
C35 C34 1_555 1_555
H40 C35 1_555 1_555
C36 C35 1_555 1_555
H41 C36 1_555 1_555
H42 C36 1_555 1_555
C37 C32 1_555 1_555
H43 C37 1_555 1_555
H44 C37 1_555 1_555
C38 C34 1_555 1_555
H45 C38 1_555 1_555
H46 C38 1_555 1_555
H47 C38 1_555 1_555
C39 C34 1_555 1_555
H48 C39 1_555 1_555
H49 C39 1_555 1_555
H50 C39 1_555 1_555
C40 C35 1_555 1_555
Co1 N1 1_555 1_555
N1 C1 1_555 1_555
N2 C6 1_555 1_555
O1 C11 1_555 1_555
O2 C11 1_555 1_555
O3 C20 1_555 1_555
O4 C20 1_555 1_555
O5 C31 1_555 1_555
O6 C31 1_555 1_555
H51 O6 1_555 1_555
O7 C40 1_555 1_555
O8 C40 1_555 1_555
O9 C21 1_555 1_555
O10 C21 1_555 1_555
O11 C27 1_555 1_555
O12 C27 1_555 1_555
Tb1 O1 1_555 1_555
Co1B O8 1_555 1_555
Co1C O3 1_555 1_555
O3C Co1 1_555 1_555
O4C Tb1 1_555 1_555
O7B Tb1 1_555 1_555
O8B Co1 1_555 1_555
O11B Tb1 1_555 1_555
O12B Tb1 1_555 1_555
Tb1B O7 1_555 1_555
Tb1B_2 O11 1_555 1_555
Tb1C O4 1_555 1_555
C5 N1 1_555 1_555
C10 N2 1_555 1_555
C15 C16 1_555 1_555
C25 C28 1_555 1_555
C36 C37 1_555 1_555
Co1 N2 1_555 1_555
Co1 O2 1_555 1_555
O5 Tb1 1_555 1_555
O9 Tb1 1_555 1_555
O10 Tb1 1_555 1_555
O12 Tb1B_2 1_555 1_555

#END
