
#######################################################################
#
#                 Cambridge Crystallographic Data Centre
#                                CCDC 
#
#######################################################################
#
# If this CIF has been generated from an entry in the Cambridge 
# Structural Database, then it will include bibliographic, chemical, 
# crystal, experimental, refinement or atomic coordinate data resulting 
# from the CCDC's data processing and validation procedures.
#
#######################################################################

data_DIVKUP
_symmetry_cell_setting           triclinic
_symmetry_space_group_name_H-M   'P -1'
_symmetry_Int_Tables_number      2
_space_group_name_Hall           '-P 1'
loop_
_symmetry_equiv_pos_site_id
_symmetry_equiv_pos_as_xyz
1 x,y,z
2 -x,-y,-z
_cell_length_a                   10.2111(9)
_cell_length_b                   11.3529(10)
_cell_length_c                   12.2940(11)
_cell_angle_alpha                93.265(2)
_cell_angle_beta                 97.981(2)
_cell_angle_gamma                94.308(2)
_cell_volume                     1404.12
loop_
_atom_site_label
_atom_site_type_symbol
_atom_site_fract_x
_atom_site_fract_y
_atom_site_fract_z
Co1 Co 0.11055(3) -0.49185(3) 1.16089(3)
O1 O 0.34101(17) 0.07738(15) 1.57862(14)
O2 O 0.04364(17) -0.37698(15) 1.28648(14)
O3 O 0.25577(17) -0.40520(15) 1.29798(14)
O4 O 0.16021(17) 0.09625(14) 1.78637(14)
O5 O 0.07303(17) -0.43917(14) 1.90763(14)
O6 O 0.12663(17) -0.34647(14) 2.07504(14)
O7 O 0.51257(17) 0.09672(14) 1.83998(14)
O8 O 0.75778(18) -0.39569(15) 1.91089(14)
O9 O 0.84232(17) -0.34941(15) 1.76312(14)
N1 N 0.35437(19) 0.25437(16) 1.73966(16)
C1 C 0.3634(2) 0.2815(2) 1.62217(19)
H1 H 0.3287 0.3571 1.6074
H2 H 0.4552 0.2857 1.6095
C2 C 0.2833(3) 0.1843(2) 1.5475(2)
H3 H 0.1907 0.1808 1.5581
H4 H 0.2894 0.1970 1.4710
C3 C 0.2851(2) -0.0266(2) 1.52333(19)
C4 C 0.1649(2) -0.0378(2) 1.45398(19)
H5 H 0.1136 0.0263 1.4459
C5 C 0.1218(2) -0.1464(2) 1.39656(19)
H6 H 0.0409 -0.1546 1.3505
C6 C 0.1980(2) -0.2420(2) 1.40715(19)
C7 C 0.3153(2) -0.2315(2) 1.4819(2)
H7 H 0.3648 -0.2965 1.4920
C8 C 0.3581(2) -0.1250(2) 1.5410(2)
H8 H 0.4349 -0.1188 1.5921
C9 C 0.1633(2) -0.3491(2) 1.32840(18)
C10 C 0.2311(2) 0.2948(2) 1.7793(2)
H9 H 0.1631 0.3014 1.7170
H10 H 0.2506 0.3719 1.8189
C11 C 0.1823(2) 0.2054(2) 1.8543(2)
H11 H 0.2485 0.1990 1.9180
H12 H 0.1008 0.2271 1.8792
C12 C 0.1478(2) -0.0085(2) 1.83681(19)
C13 C 0.1389(2) -0.1113(2) 1.7676(2)
H13 H 0.1419 -0.1063 1.6928
C14 C 0.1255(2) -0.2207(2) 1.8106(2)
H14 H 0.1196 -0.2892 1.7645
C15 C 0.1209(2) -0.2289(2) 1.92305(19)
C16 C 0.1306(2) -0.1255(2) 1.99051(19)
H15 H 0.1280 -0.1304 2.0654
C17 C 0.1441(2) -0.0143(2) 1.94870(19)
H16 H 0.1504 0.0543 1.9948
C18 C 0.1048(2) -0.3468(2) 1.97110(19)
C19 C 0.4792(2) 0.2955(2) 1.8162(2)
H17 H 0.4602 0.3050 1.8912
H18 H 0.5154 0.3713 1.7960
C20 C 0.5776(2) 0.2039(2) 1.8077(2)
H19 H 0.5972 0.1935 1.7330
H20 H 0.6596 0.2268 1.8567
C21 C 0.5757(2) -0.0054(2) 1.83101(19)
C22 C 0.5208(2) -0.1023(2) 1.87953(19)
H21 H 0.4439 -0.0967 1.9114
C23 C 0.5827(2) -0.2069(2) 1.87956(19)
H22 H 0.5480 -0.2712 1.9132
C24 C 0.6962(2) -0.2166(2) 1.82970(19)
C25 C 0.7462(2) -0.1213(2) 1.77784(19)
H23 H 0.8201 -0.1285 1.7422
C26 C 0.6866(2) -0.0146(2) 1.77872(19)
H24 H 0.7208 0.0495 1.7446
C27 C 0.7678(2) -0.32642(19) 1.83437(19)
Co1A Co -0.11055(3) -0.50815(3) 1.83911(3)
Co1_2 Co 0.11055(3) -0.49185(3) 2.16089(3)
Co1A_2 Co 0.88945(3) -0.50815(3) 1.83911(3)
O5A O -0.07303(17) -0.56083(14) 1.09237(14)
O6_2 O 0.12663(17) -0.34647(14) 1.07504(14)
O8A O 0.24222(18) -0.60431(15) 1.08911(14)
O9A O 0.15768(17) -0.65059(15) 1.23688(14)
O10 O -0.0893(2) -0.34397(19) 1.55383(16)
H25 H -0.1260 -0.3424 1.6064
H26 H -0.0189 -0.3738 1.5686
O11 O 0.13168(18) -0.47657(17) 1.61121(15)
H27 H 0.1359 -0.5272 1.5582
H28 H 0.0885 -0.5152 1.6519
O12 O 0.3822(2) -0.43329(19) 1.73558(17)
H29 H 0.3722 -0.4218 1.7998
H30 H 0.3055 -0.4375 1.7023
O13 O 0.38832(19) -0.44526(17) 1.96059(17)
H31 H 0.3276 -0.4781 1.9832
H32 H 0.4448 -0.4707 1.9787
O14 O 0.5688 -0.4309 1.5906
H33 H 0.5006 -0.4347 1.6255
H34 H 0.5279 -0.4636 1.5242
loop_
_geom_bond_atom_site_label_1
_geom_bond_atom_site_label_2
_geom_bond_site_symmetry_1
_geom_bond_site_symmetry_2
Co1 O2 1_555 1_555
O1 C2 1_555 1_555
O2 C9 1_555 1_555
O3 Co1 1_555 1_555
O4 C11 1_555 1_555
O5 C18 1_555 1_555
O6 C18 1_555 1_555
O7 C20 1_555 1_555
O8 C27 1_555 1_555
O9 C27 1_555 1_555
N1 C1 1_555 1_555
C1 H1 1_555 1_555
H2 C1 1_555 1_555
C2 C1 1_555 1_555
H3 C2 1_555 1_555
H4 C2 1_555 1_555
C3 O1 1_555 1_555
C4 C3 1_555 1_555
H5 C4 1_555 1_555
C5 C4 1_555 1_555
H6 C5 1_555 1_555
C6 C5 1_555 1_555
C7 C6 1_555 1_555
H7 C7 1_555 1_555
C8 C3 1_555 1_555
H8 C8 1_555 1_555
C9 O3 1_555 1_555
C10 N1 1_555 1_555
H9 C10 1_555 1_555
H10 C10 1_555 1_555
C11 C10 1_555 1_555
H11 C11 1_555 1_555
H12 C11 1_555 1_555
C12 O4 1_555 1_555
C13 C12 1_555 1_555
H13 C13 1_555 1_555
C14 C13 1_555 1_555
H14 C14 1_555 1_555
C15 C14 1_555 1_555
C16 C15 1_555 1_555
H15 C16 1_555 1_555
C17 C12 1_555 1_555
H16 C17 1_555 1_555
C18 C15 1_555 1_555
C19 N1 1_555 1_555
H17 C19 1_555 1_555
H18 C19 1_555 1_555
C20 C19 1_555 1_555
H19 C20 1_555 1_555
H20 C20 1_555 1_555
C21 O7 1_555 1_555
C22 C21 1_555 1_555
H21 C22 1_555 1_555
C23 C22 1_555 1_555
H22 C23 1_555 1_555
C24 C23 1_555 1_555
C25 C24 1_555 1_555
H23 C25 1_555 1_555
C26 C21 1_555 1_555
H24 C26 1_555 1_555
C27 C24 1_555 1_555
O10 H25 1_555 1_555
H26 O10 1_555 1_555
O11 H27 1_555 1_555
H28 O11 1_555 1_555
O12 H29 1_555 1_555
H30 O12 1_555 1_555
O13 H31 1_555 1_555
H32 O13 1_555 1_555
O14 H33 1_555 1_555
H34 O14 1_555 1_555
Co1A O5 1_555 1_555
Co1_2 O6 1_555 1_555
Co1A_2 O8 1_555 1_555
O5A Co1 1_555 1_555
O6_2 Co1 1_555 1_555
O8A Co1 1_555 1_555
O9A Co1 1_555 1_555
O9 Co1A_2 1_555 1_555
C6 C9 1_555 1_555
C7 C8 1_555 1_555
C16 C17 1_555 1_555
C25 C26 1_555 1_555

#END
