
#######################################################################
#
#                 Cambridge Crystallographic Data Centre
#                                CCDC 
#
#######################################################################
#
# If this CIF has been generated from an entry in the Cambridge 
# Structural Database, then it will include bibliographic, chemical, 
# crystal, experimental, refinement or atomic coordinate data resulting 
# from the CCDC's data processing and validation procedures.
#
#######################################################################

data_DIVKUQ
_symmetry_cell_setting           orthorhombic
_symmetry_space_group_name_H-M   'P b c a'
_symmetry_Int_Tables_number      61
_space_group_name_Hall           '-P 2ac 2ab'
loop_
_symmetry_equiv_pos_site_id
_symmetry_equiv_pos_as_xyz
1 x,y,z
2 1/2-x,-y,1/2+z
3 -x,1/2+y,1/2-z
4 1/2+x,1/2-y,-z
5 -x,-y,-z
6 1/2+x,y,1/2-z
7 x,1/2-y,1/2+z
8 1/2-x,1/2+y,z
_cell_length_a                   8.1601(5)
_cell_length_b                   29.7500(15)
_cell_length_c                   30.838(2)
_cell_angle_alpha                90
_cell_angle_beta                 90
_cell_angle_gamma                90
_cell_volume                     7486.32
loop_
_atom_site_label
_atom_site_type_symbol
_atom_site_fract_x
_atom_site_fract_y
_atom_site_fract_z
Dy1 Dy 0.71856(6) 0.339517(17) 0.510942(17)
Dy2 Dy 0.25214(6) 0.456637(17) 0.500388(17)
Cu1 Cu 0.8712(2) 0.24772(6) 0.29055(5)
Cu2 Cu 0.5836(2) 0.20030(7) 0.27160(6)
O1 O 0.4946(9) 0.3174(3) 0.4679(3)
O2 O 0.3824(9) 0.2853(3) 0.4102(3)
O3 O 0.9940(9) 0.3217(3) 0.5169(2)
O4 O 1.2152(9) 0.2971(3) 0.5522(3)
O5 O 0.6861(10) 0.3976(3) 0.4655(3)
O6 O 0.4532(9) 0.4344(3) 0.4522(3)
O7 O 0.7790(9) 0.4892(2) 0.4450(3)
O8 O 1.0292(10) 0.4658(3) 0.4597(3)
O9 O 0.4512(9) 0.4384(3) 0.5510(3)
O10 O 0.6648(10) 0.4820(3) 0.5371(3)
O11 O 0.8037(9) 0.3996(3) 0.5503(2)
O12 O 1.0600(10) 0.4229(3) 0.5443(3)
O13 O 0.2294(10) 0.3787(3) 0.4816(3)
O14 O 0.4895(9) 0.3491(3) 0.5566(3)
O15 O 0.7086(10) 0.2591(3) 0.5216(3)
C1 C 0.6675(13) 0.2994(4) 0.4093(4)
C2 C 0.6910(14) 0.2860(4) 0.3665(4)
H1 H 0.5995 0.2816 0.3490
C3 C 0.9659(14) 0.2896(4) 0.3754(4)
H2 H 1.0719 0.2860 0.3649
C4 C 0.9443(14) 0.3054(4) 0.4173(4)
H3 H 1.0356 0.3135 0.4336
C5 C 0.4997(13) 0.3009(3) 0.4306(4)
C6 C 0.9779(13) 0.3133(4) 0.5935(4)
C7 C 1.0571(14) 0.3107(4) 0.6326(4)
H4 H 1.1709 0.3088 0.6331
C8 C 0.8124(15) 0.3162(5) 0.6677(4)
H5 H 0.7508 0.3167 0.6930
C9 C 0.7322(14) 0.3211(4) 0.6274(4)
H6 H 0.6199 0.3264 0.6268
C10 C 1.0703(14) 0.3108(4) 0.5506(4)
C11 C 0.5817(13) 0.4165(4) 0.4407(4)
C12 C 0.6161(13) 0.4138(4) 0.3927(4)
C13 C 0.4880(16) 0.3962(5) 0.3685(5)
H7 H 0.3854 0.3928 0.3812
C14 C 0.5101(17) 0.3839(5) 0.3265(5)
H8 H 0.4224 0.3717 0.3112
C15 C 0.6552(18) 0.3887(5) 0.3065(4)
H9 H 0.6669 0.3800 0.2777
C16 C 0.7913(16) 0.4073(4) 0.3293(4)
C17 C 0.9457(19) 0.4104(6) 0.3095(5)
H10 H 0.9570 0.4010 0.2809
C18 C 1.0810(18) 0.4270(6) 0.3309(5)
H11 H 1.1832 0.4281 0.3176
C19 C 1.0581(16) 0.4419(5) 0.3735(5)
H12 H 1.1484 0.4530 0.3884
C20 C 0.9116(13) 0.4411(4) 0.3942(4)
C21 C 0.7713(12) 0.4212(4) 0.3733(4)
C22 C 0.9023(13) 0.4652(4) 0.4363(4)
C23 C 0.9276(13) 0.4192(4) 0.5647(4)
C24 C 0.9168(13) 0.4366(4) 0.6103(4)
C25 C 1.0591(15) 0.4315(5) 0.6342(5)
H13 H 1.1544 0.4226 0.6200
C26 C 1.0648(18) 0.4390(5) 0.6782(4)
H14 H 1.1626 0.4352 0.6933
C27 C 0.9283(18) 0.4518(5) 0.6995(4)
H15 H 0.9306 0.4550 0.7295
C28 C 0.7770(16) 0.4609(5) 0.6759(4)
C29 C 0.6394(17) 0.4773(6) 0.6986(4)
H16 H 0.6487 0.4830 0.7282
C30 C 0.4974(17) 0.4847(5) 0.6791(4)
H17 H 0.4083 0.4959 0.6945
C31 C 0.4848(15) 0.4752(5) 0.6347(4)
H18 H 0.3841 0.4792 0.6212
C32 C 0.6150(13) 0.4603(4) 0.6104(4)
C33 C 0.7691(13) 0.4522(4) 0.6306(3)
C34 C 0.5821(13) 0.4603(4) 0.5623(4)
N1 N 0.7942(11) 0.3094(3) 0.4348(3)
N2 N 0.8388(12) 0.2791(3) 0.3494(3)
N3 N 0.8154(11) 0.3182(3) 0.5898(3)
N4 N 0.9740(12) 0.3109(4) 0.6702(3)
I1 I 0.88254(10) 0.15959(3) 0.28551(3)
I2 I 0.65138(11) 0.28125(3) 0.23700(3)
Dy2_2 Dy 1.25214(6) 0.456637(17) 0.500388(17)
Dy2D Dy 0.74786(6) 0.543363(17) 0.499612(17)
Cu1E Cu 0.3712(2) 0.24772(6) 0.20945(5)
Cu2C Cu 1.0836(2) 0.29970(7) 0.72840(6)
Cu2E Cu 1.0836(2) 0.20030(7) 0.22840(6)
O7D O 0.2210(9) 0.5108(2) 0.5550(3)
O8_2 O 0.0292(10) 0.4658(3) 0.4597(3)
O10D O 0.3352(10) 0.5180(3) 0.4629(3)
O12_2 O 0.0600(10) 0.4229(3) 0.5443(3)
N4C N 0.4740(12) 0.1891(4) 0.3298(3)
I1E I 0.38254(10) 0.15959(3) 0.21449(3)
I2E I 1.15138(11) 0.28125(3) 0.26300(3)
loop_
_geom_bond_atom_site_label_1
_geom_bond_atom_site_label_2
_geom_bond_site_symmetry_1
_geom_bond_site_symmetry_2
Dy1 O1 1_555 1_555
Dy2 O6 1_555 1_555
Cu1 N2 1_555 1_555
Cu2 I1 1_555 1_555
O1 C5 1_555 1_555
O2 C5 1_555 1_555
O3 Dy1 1_555 1_555
O4 C10 1_555 1_555
O5 Dy1 1_555 1_555
O6 C11 1_555 1_555
O7 C22 1_555 1_555
O8 C22 1_555 1_555
O9 Dy2 1_555 1_555
O10 C34 1_555 1_555
O11 Dy1 1_555 1_555
O12 C23 1_555 1_555
O13 Dy2 1_555 1_555
O14 Dy1 1_555 1_555
O15 Dy1 1_555 1_555
C1 C2 1_555 1_555
C2 H1 1_555 1_555
C3 H2 1_555 1_555
C4 C3 1_555 1_555
H3 C4 1_555 1_555
C5 C1 1_555 1_555
C6 C7 1_555 1_555
C7 H4 1_555 1_555
C8 H5 1_555 1_555
C9 C8 1_555 1_555
H6 C9 1_555 1_555
C10 O3 1_555 1_555
C11 O5 1_555 1_555
C12 C11 1_555 1_555
C13 C12 1_555 1_555
H7 C13 1_555 1_555
C14 C13 1_555 1_555
H8 C14 1_555 1_555
C15 C14 1_555 1_555
H9 C15 1_555 1_555
C16 C15 1_555 1_555
C17 C16 1_555 1_555
H10 C17 1_555 1_555
C18 C17 1_555 1_555
H11 C18 1_555 1_555
C19 C18 1_555 1_555
H12 C19 1_555 1_555
C20 C19 1_555 1_555
C21 C12 1_555 1_555
C22 C20 1_555 1_555
C23 O11 1_555 1_555
C24 C23 1_555 1_555
C25 C24 1_555 1_555
H13 C25 1_555 1_555
C26 C25 1_555 1_555
H14 C26 1_555 1_555
C27 C26 1_555 1_555
H15 C27 1_555 1_555
C28 C27 1_555 1_555
C29 C28 1_555 1_555
H16 C29 1_555 1_555
C30 C29 1_555 1_555
H17 C30 1_555 1_555
C31 C30 1_555 1_555
H18 C31 1_555 1_555
C32 C31 1_555 1_555
C33 C24 1_555 1_555
C34 O9 1_555 1_555
N1 Dy1 1_555 1_555
N2 C2 1_555 1_555
N3 Dy1 1_555 1_555
N4 C7 1_555 1_555
I1 Cu1 1_555 1_555
I2 Cu1 1_555 1_555
Dy2_2 O8 1_555 1_555
Dy2D O7 1_555 1_555
Cu1E I2 1_555 1_555
Cu2C N4 1_555 1_555
Cu2E I1 1_555 1_555
O7D Dy2 1_555 1_555
O8_2 Dy2 1_555 1_555
O10D Dy2 1_555 1_555
O12_2 Dy2 1_555 1_555
N4C Cu2 1_555 1_555
I1E Cu2 1_555 1_555
I2E Cu1 1_555 1_555
Cu2 I2 1_555 1_555
O10 Dy2D 1_555 1_555
O12 Dy2_2 1_555 1_555
C1 N1 1_555 1_555
C3 N2 1_555 1_555
C4 N1 1_555 1_555
C6 C10 1_555 1_555
C6 N3 1_555 1_555
C8 N4 1_555 1_555
C9 N3 1_555 1_555
C16 C21 1_555 1_555
C20 C21 1_555 1_555
C28 C33 1_555 1_555
C32 C33 1_555 1_555
C32 C34 1_555 1_555
Cu1E I1E 1_555 1_555
Cu2E I2E 1_555 1_555

#END
