
#######################################################################
#
#                 Cambridge Crystallographic Data Centre
#                                CCDC 
#
#######################################################################
#
# If this CIF has been generated from an entry in the Cambridge 
# Structural Database, then it will include bibliographic, chemical, 
# crystal, experimental, refinement or atomic coordinate data resulting 
# from the CCDC's data processing and validation procedures.
#
#######################################################################

data_DIVLEA
_symmetry_cell_setting           triclinic
_symmetry_space_group_name_H-M   'P -1'
_symmetry_Int_Tables_number      2
_space_group_name_Hall           '-P 1'
loop_
_symmetry_equiv_pos_site_id
_symmetry_equiv_pos_as_xyz
1 x,y,z
2 -x,-y,-z
_cell_length_a                   11.203(2)
_cell_length_b                   11.605(2)
_cell_length_c                   13.237(2)
_cell_angle_alpha                91.782(5)
_cell_angle_beta                 92.255(5)
_cell_angle_gamma                98.886(5)
_cell_volume                     1697.78
loop_
_atom_site_label
_atom_site_type_symbol
_atom_site_fract_x
_atom_site_fract_y
_atom_site_fract_z
Ni1 Ni -0.76037(5) 0.17750(5) 0.40663(4)
O1 O -0.4078(3) 0.1494(3) -0.1329(2)
O2 O -0.6574(3) 0.1881(3) 0.2833(2)
O3 O -0.4824(3) 0.1424(3) 0.3419(2)
O4 O -0.3695(3) 0.4534(3) -0.1118(2)
O5 O -0.2946(3) 0.5637(3) 0.3606(2)
O6 O -0.1827(3) 0.7221(3) 0.3045(2)
O7 O -0.1196(3) 0.3248(3) -0.1277(2)
O8 O 0.1083(3) 0.2234(3) 0.3066(2)
O9 O 0.0474(3) 0.0453(3) 0.2356(2)
O10 O -0.8018(3) -0.0028(2) 0.3729(2)
H1 H -0.8631 0.0008 0.3262
H2 H -0.8225 -0.0439 0.4258
O11 O -0.8796(3) 0.1615(3) 0.5193(2)
H3 H -0.9606 0.1607 0.5072
H4 H -0.8638 0.2037 0.5754
O12 O -0.7024(3) 0.3526(2) 0.4433(2)
H5 H -0.7116 0.3646 0.5109
H6 H -0.6263 0.3693 0.4368
O13 O -0.6220(3) 0.1427(3) 0.5054(2)
H7 H -0.5687 0.1375 0.4641
H8 H -0.6422 0.0850 0.5374
N1 N -0.3178(3) 0.3138(3) -0.2633(3)
C1 C -0.4024(4) 0.2055(4) -0.2984(3)
H21 H -0.3566 0.1435 -0.3148
H22 H -0.4486 0.2208 -0.3587
C2 C -0.4868(4) 0.1689(4) -0.2150(3)
H23 H -0.5333 0.2299 -0.1976
H24 H -0.5419 0.0982 -0.2348
C3 C -0.4508(4) 0.1459(3) -0.0367(3)
C4 C -0.5723(4) 0.1445(4) -0.0168(3)
H25 H -0.6307 0.1410 -0.0692
C5 C -0.6036(4) 0.1484(3) 0.0843(3)
H26 H -0.6839 0.1495 0.0991
C6 C -0.5177(4) 0.1509(3) 0.1629(3)
C7 C -0.3978(4) 0.1474(3) 0.1410(3)
H27 H -0.3399 0.1468 0.1932
C8 C -0.3647(4) 0.1448(4) 0.0408(3)
H28 H -0.2847 0.1424 0.0260
C9 C -0.5548(4) 0.1601(4) 0.2708(3)
C10 C -0.3653(4) 0.4254(4) -0.2852(3)
H29 H -0.4530 0.4112 -0.2906
H30 H -0.3356 0.4553 -0.3486
C11 C -0.3221(4) 0.5124(4) -0.1995(3)
H31 H -0.2344 0.5293 -0.1943
H32 H -0.3541 0.5847 -0.2082
C12 C -0.3366(4) 0.5021(4) -0.0173(3)
C13 C -0.3865(4) 0.4367(4) 0.0627(3)
H33 H -0.4387 0.3670 0.0491
C14 C -0.3578(4) 0.4760(4) 0.1610(3)
H34 H -0.3901 0.4318 0.2137
C15 C -0.2812(4) 0.5807(3) 0.1830(3)
C16 C -0.2340(4) 0.6455(3) 0.1025(3)
H35 H -0.1841 0.7165 0.1160
C17 C -0.2604(4) 0.6059(4) 0.0025(3)
H36 H -0.2269 0.6491 -0.0503
C18 C -0.2498(4) 0.6254(3) 0.2899(3)
C19 C -0.1912(4) 0.3144(4) -0.2960(3)
H37 H -0.1517 0.3942 -0.3023
H38 H -0.1927 0.2741 -0.3614
C20 C -0.1220(4) 0.2548(4) -0.2191(3)
H39 H -0.1623 0.1759 -0.2098
H40 H -0.0406 0.2516 -0.2403
C21 C -0.0739(4) 0.2827(4) -0.0411(3)
C22 C -0.0737(4) 0.3503(4) 0.0479(3)
H41 H -0.1031 0.4210 0.0463
C23 C -0.0302(4) 0.3134(4) 0.1384(3)
H42 H -0.0294 0.3594 0.1973
C24 C 0.0129(4) 0.2055(4) 0.1408(3)
C25 C 0.0140(4) 0.1419(4) 0.0519(3)
H43 H 0.0442 0.0717 0.0534
C26 C -0.0279(4) 0.1777(4) -0.0403(3)
H44 H -0.0254 0.1331 -0.0995
C27 C 0.0590(4) 0.1552(3) 0.2357(3)
Ni1_2 Ni 0.23963(5) 0.17750(5) 0.40663(4)
O8_2 O -0.8917(3) 0.2234(3) 0.3066(2)
O14 O -0.4583(3) 0.3789(3) 0.4302(3)
H9 H -0.4443 0.3074 0.3962
H10 H -0.4263 0.4365 0.4021
O15 O -0.1555(3) 0.4173(3) 0.4627(3)
H11 H -0.0995 0.4268 0.4107
H12 H -0.2049 0.4781 0.4332
O16 O 0.0620(3) 0.4410(3) 0.3727(2)
H13 H 0.0980 0.4561 0.4170
H14 H 0.0931 0.3823 0.3418
O17 O -0.1202(3) 0.1834(3) 0.4809(2)
H15 H -0.1464 0.2585 0.5119
H16 H -0.1825 0.1462 0.4320
O18 O -0.2916(3) 0.0338(3) 0.3737(2)
H17 H -0.2676 0.0206 0.3253
H18 H -0.3528 0.0608 0.3588
O19 O -0.1945(3) -0.0684(3) 0.2162(2)
H19 H -0.1181 -0.0364 0.2225
H20 H -0.2046 -0.1561 0.2288
loop_
_geom_bond_atom_site_label_1
_geom_bond_atom_site_label_2
_geom_bond_site_symmetry_1
_geom_bond_site_symmetry_2
Ni1 O2 1_555 1_555
O1 C2 1_555 1_555
O2 C9 1_555 1_555
O3 C9 1_555 1_555
O4 C11 1_555 1_555
O5 C18 1_555 1_555
O6 C18 1_555 1_555
O7 C20 1_555 1_555
O8 C27 1_555 1_555
O9 C27 1_555 1_555
O10 Ni1 1_555 1_555
H1 O10 1_555 1_555
H2 O10 1_555 1_555
O11 Ni1 1_555 1_555
H3 O11 1_555 1_555
H4 O11 1_555 1_555
O12 Ni1 1_555 1_555
H5 O12 1_555 1_555
H6 O12 1_555 1_555
O13 Ni1 1_555 1_555
H7 O13 1_555 1_555
H8 O13 1_555 1_555
O14 H9 1_555 1_555
H10 O14 1_555 1_555
O15 H11 1_555 1_555
H12 O15 1_555 1_555
O16 H13 1_555 1_555
H14 O16 1_555 1_555
O17 H15 1_555 1_555
H16 O17 1_555 1_555
O18 H17 1_555 1_555
H18 O18 1_555 1_555
O19 H19 1_555 1_555
H20 O19 1_555 1_555
N1 C1 1_555 1_555
C1 H21 1_555 1_555
H22 C1 1_555 1_555
C2 C1 1_555 1_555
H23 C2 1_555 1_555
H24 C2 1_555 1_555
C3 O1 1_555 1_555
C4 C3 1_555 1_555
H25 C4 1_555 1_555
C5 C4 1_555 1_555
H26 C5 1_555 1_555
C6 C5 1_555 1_555
C7 C6 1_555 1_555
H27 C7 1_555 1_555
C8 C3 1_555 1_555
H28 C8 1_555 1_555
C9 C6 1_555 1_555
C10 N1 1_555 1_555
H29 C10 1_555 1_555
H30 C10 1_555 1_555
C11 C10 1_555 1_555
H31 C11 1_555 1_555
H32 C11 1_555 1_555
C12 O4 1_555 1_555
C13 C12 1_555 1_555
H33 C13 1_555 1_555
C14 C13 1_555 1_555
H34 C14 1_555 1_555
C15 C14 1_555 1_555
C16 C15 1_555 1_555
H35 C16 1_555 1_555
C17 C12 1_555 1_555
H36 C17 1_555 1_555
C18 C15 1_555 1_555
C19 N1 1_555 1_555
H37 C19 1_555 1_555
H38 C19 1_555 1_555
C20 C19 1_555 1_555
H39 C20 1_555 1_555
H40 C20 1_555 1_555
C21 O7 1_555 1_555
C22 C21 1_555 1_555
H41 C22 1_555 1_555
C23 C22 1_555 1_555
H42 C23 1_555 1_555
C24 C23 1_555 1_555
C25 C24 1_555 1_555
H43 C25 1_555 1_555
C26 C21 1_555 1_555
H44 C26 1_555 1_555
C27 C24 1_555 1_555
Ni1_2 O8 1_555 1_555
O8_2 Ni1 1_555 1_555
C7 C8 1_555 1_555
C16 C17 1_555 1_555
C25 C26 1_555 1_555

#END
