
#######################################################################
#
#                 Cambridge Crystallographic Data Centre
#                                CCDC 
#
#######################################################################
#
# If this CIF has been generated from an entry in the Cambridge 
# Structural Database, then it will include bibliographic, chemical, 
# crystal, experimental, refinement or atomic coordinate data resulting 
# from the CCDC's data processing and validation procedures.
#
#######################################################################

data_DIVMOL
_symmetry_cell_setting           monoclinic
_symmetry_space_group_name_H-M   'P 21/c'
_symmetry_Int_Tables_number      14
_space_group_name_Hall           '-P 2ybc'
loop_
_symmetry_equiv_pos_site_id
_symmetry_equiv_pos_as_xyz
1 x,y,z
2 -x,1/2+y,1/2-z
3 -x,-y,-z
4 x,1/2-y,1/2+z
_cell_length_a                   9.309(3)
_cell_length_b                   7.333(2)
_cell_length_c                   12.643(4)
_cell_angle_alpha                90
_cell_angle_beta                 93.169(5)
_cell_angle_gamma                90
_cell_volume                     861.728
loop_
_atom_site_label
_atom_site_type_symbol
_atom_site_fract_x
_atom_site_fract_y
_atom_site_fract_z
Yb1 Yb 0.046294(16) 0.22683(2) 0.710430(12)
Se1 Se 0.32075(4) 0.55675(5) 0.80182(3)
O1 O 0.0246(3) 0.0138(3) 0.8314(2)
H1 H -0.0478 0.0364 0.8656
H2 H 0.0985 0.0147 0.8728
O2 O 0.3560(3) 0.5175(4) 0.9262(2)
O3 O 0.2607(3) 0.3708(4) 0.7429(2)
O4 O 0.2529(3) 0.0373(4) 0.6785(2)
H3 H 0.2258 -0.0550 0.6441
H4 H 0.3116 0.0959 0.6440
O5 O 0.4655(3) 0.6259(4) 0.7463(2)
O6 O 0.2007(3) 0.7214(3) 0.7875(2)
O7 O 0.0372(3) 0.2305(3) 0.5236(2)
O8 O 0.0186(3) 0.0752(3) 0.37042(19)
C3 C 0.0160(4) 0.0885(5) 0.4693(3)
Yb1A Yb -0.046294(16) 0.72683(2) 0.789570(12)
Yb1A_2 Yb -0.046294(16) -0.27317(2) 0.789570(12)
Yb1C Yb 0.046294(16) 0.27317(2) 0.210430(12)
Yb1B Yb -0.046294(16) -0.22683(2) 0.289570(12)
Se1A Se -0.32075(4) 0.05675(5) 0.69818(3)
O1A O -0.0246(3) 0.5138(3) 0.6686(2)
O1_2 O 0.0246(3) 1.0138(3) 0.8314(2)
H1A H 0.0478 0.5364 0.6344
H1_2 H -0.0478 1.0364 0.8656
H2A H -0.0985 0.5147 0.6272
H2_2 H 0.0985 1.0147 0.8728
O2A O -0.3560(3) 0.0175(4) 0.5738(2)
O3A O -0.2607(3) -0.1292(4) 0.7571(2)
O3A_2 O -0.2607(3) 0.8708(4) 0.7571(2)
O4A O -0.2529(3) 0.5373(4) 0.8215(2)
H3A H -0.2258 0.4450 0.8559
H4A H -0.3116 0.5959 0.8560
O5A O -0.4655(3) 0.1259(4) 0.7537(2)
O6A O -0.2007(3) 0.2214(3) 0.7125(2)
O7B O -0.0372(3) -0.2305(3) 0.4764(2)
O7A O -0.0372(3) 0.7305(3) 0.9764(2)
O8B O -0.0186(3) -0.0752(3) 0.62958(19)
O8C O 0.0186(3) 0.4248(3) 0.87042(19)
O8B_2 O -0.0186(3) 0.9248(3) 0.62958(19)
C3B C -0.0160(4) -0.0885(5) 0.5307(3)
N1 N -0.4655(4) 0.3178(5) 0.4692(3)
H5 H -0.4554 0.2295 0.4255
C1 C -0.3493(5) 0.4500(6) 0.5019(4)
H6 H -0.2640 0.4242 0.4639
H7 H -0.3248 0.4374 0.5771
C2 C -0.6004(5) 0.3580(6) 0.5217(4)
H8 H -0.5844 0.3428 0.5977
H9 H -0.6745 0.2725 0.4972
N1B N -0.5345(4) 0.6822(5) 0.5308(3)
H5B H -0.5446 0.7705 0.5745
C1B C -0.6507(5) 0.5500(6) 0.4981(4)
H6B H -0.7360 0.5758 0.5361
H7B H -0.6752 0.5626 0.4229
C2B C -0.3996(5) 0.6420(6) 0.4783(4)
H8B H -0.4156 0.6572 0.4023
H9B H -0.3255 0.7275 0.5028
loop_
_geom_bond_atom_site_label_1
_geom_bond_atom_site_label_2
_geom_bond_site_symmetry_1
_geom_bond_site_symmetry_2
Yb1 O1 1_555 1_555
Se1 O2 1_555 1_555
O1 H1 1_555 1_555
H2 O1 1_555 1_555
O3 Yb1 1_555 1_555
O4 Yb1 1_555 1_555
H3 O4 1_555 1_555
H4 O4 1_555 1_555
O5 Se1 1_555 1_555
O6 Se1 1_555 1_555
O7 Yb1 1_555 1_555
O8 C3 1_555 1_555
N1 H5 1_555 1_555
C1 N1 1_555 1_555
H6 C1 1_555 1_555
H7 C1 1_555 1_555
C2 N1 1_555 1_555
H8 C2 1_555 1_555
H9 C2 1_555 1_555
C3 O7 1_555 1_555
Yb1A O6 1_555 1_555
Yb1A_2 O1 1_555 1_555
Yb1C O8 1_555 1_555
Yb1B O8 1_555 1_555
Se1A O2A 1_555 1_555
O1A Yb1 1_555 1_555
O1_2 Yb1A 1_555 1_555
H1A O1A 1_555 1_555
H1_2 O1_2 1_555 1_555
H2A O1A 1_555 1_555
H2_2 O1_2 1_555 1_555
O3A Yb1A_2 1_555 1_555
O3A_2 Yb1A 1_555 1_555
O4A Yb1A 1_555 1_555
H3A O4A 1_555 1_555
H4A O4A 1_555 1_555
O5A Se1A 1_555 1_555
O6A Yb1 1_555 1_555
O7B Yb1B 1_555 1_555
O7A Yb1A 1_555 1_555
O8B Yb1 1_555 1_555
O8C Yb1 1_555 1_555
O8B_2 Yb1A 1_555 1_555
N1B H5B 1_555 1_555
C1B C2 1_555 1_555
H6B C1B 1_555 1_555
H7B C1B 1_555 1_555
C2B C1 1_555 1_555
H8B C2B 1_555 1_555
H9B C2B 1_555 1_555
C3B C3 1_555 1_555
Se1 O3 1_555 1_555
Yb1A O1A 1_555 1_555
Yb1A O8C 1_555 1_555
Yb1A_2 O8B 1_555 1_555
Se1A O3A 1_555 1_555
Se1A O6A 1_555 1_555
O7B C3B 1_555 1_555
O8B C3B 1_555 1_555
N1B C1B 1_555 1_555
N1B C2B 1_555 1_555

#END
