
#######################################################################
#
#                 Cambridge Crystallographic Data Centre
#                                CCDC 
#
#######################################################################
#
# If this CIF has been generated from an entry in the Cambridge 
# Structural Database, then it will include bibliographic, chemical, 
# crystal, experimental, refinement or atomic coordinate data resulting 
# from the CCDC's data processing and validation procedures.
#
#######################################################################

data_DIVNAZ
_symmetry_cell_setting           monoclinic
_symmetry_space_group_name_H-M   'P 21/c'
_symmetry_Int_Tables_number      14
_space_group_name_Hall           '-P 2ybc'
loop_
_symmetry_equiv_pos_site_id
_symmetry_equiv_pos_as_xyz
1 x,y,z
2 -x,1/2+y,1/2-z
3 -x,-y,-z
4 x,1/2-y,1/2+z
_cell_length_a                   10.5598(4)
_cell_length_b                   12.8404(5)
_cell_length_c                   12.0835(6)
_cell_angle_alpha                90
_cell_angle_beta                 93.327(4)
_cell_angle_gamma                90
_cell_volume                     1635.67
loop_
_atom_site_label
_atom_site_type_symbol
_atom_site_fract_x
_atom_site_fract_y
_atom_site_fract_z
Er1 Er 0.50390(7) 0.58984(6) 0.26600(6)
Er2 Er -0.01678(7) 0.39021(6) 0.27177(8)
S1 S 0.7217(4) 0.4609(4) 0.0896(4)
O1 O 0.0933(11) 0.5454(9) 0.2314(12)
O2 O 0.2851(11) 0.6191(9) 0.2204(10)
O3 O 0.2007(12) 0.3600(9) 0.2363(12)
O4 O 0.3889(11) 0.4315(9) 0.2503(10)
O5 O -0.0998(12) 0.5261(10) 0.3828(12)
O6 O -0.0934(12) 0.5967(10) 0.5531(12)
O7 O 0.4024(12) 0.5920(10) 0.4336(10)
O8 O 0.3942(11) 0.5235(9) 0.6027(9)
O9 O 0.6180(14) 0.4835(12) 0.1586(13)
O10 O 0.8408(14) 0.4766(11) 0.1550(13)
O11 O 0.717(2) 0.5267(13) -0.0062(13)
O12 O 0.7094(13) 0.3509(11) 0.0539(11)
C1 C 0.2134(15) 0.5438(13) 0.2284(14)
C2 C 0.2743(18) 0.4331(15) 0.2385(16)
C3 C -0.0547(17) 0.5366(14) 0.4823(17)
C4 C 0.4420(16) 0.5337(13) 0.5105(15)
O13 O 0.4952(15) 0.6804(16) 0.0971(12)
O14 O 0.7096(12) 0.6578(10) 0.3021(12)
O15 O 0.4727(12) 0.7621(10) 0.3171(13)
O16 O -0.057(2) 0.2747(18) 0.1227(17)
O17 O 0.0356(14) 0.2220(11) 0.3364(16)
O18 O -0.2027(13) 0.3273(11) 0.3445(12)
O5B O 0.0998(12) 0.4739(10) 0.6172(12)
O6B O 0.0934(12) 0.4033(10) 0.4469(12)
C3B C 0.0547(17) 0.4634(14) 0.5177(17)
O7B O 0.5976(12) 0.4080(10) 0.5664(10)
O8B O 0.6058(11) 0.4765(9) 0.3973(9)
C4B C 0.5580(16) 0.4663(13) 0.4895(15)
Er1B Er -0.50390(7) 0.41016(6) 0.73400(6)
Er2B Er 0.01678(7) 0.60979(6) 0.72823(8)
S1B S -0.7217(4) 0.5391(4) 0.9104(4)
O1B O -0.0933(11) 0.4546(9) 0.7686(12)
O2B O -0.2851(11) 0.3809(9) 0.7796(10)
O3B O -0.2007(12) 0.6400(9) 0.7637(12)
O4B O -0.3889(11) 0.5685(9) 0.7497(10)
O9B O -0.6180(14) 0.5165(12) 0.8414(13)
O10B O -0.8408(14) 0.5234(11) 0.8450(13)
O11B O -0.717(2) 0.4733(13) 1.0062(13)
O12B O -0.7094(13) 0.6491(11) 0.9461(11)
C1B C -0.2134(15) 0.4562(13) 0.7716(14)
C2B C -0.2743(18) 0.5669(15) 0.7615(16)
O13B O -0.4952(15) 0.3196(16) 0.9029(12)
O14B O -0.7096(12) 0.3422(10) 0.6979(12)
O15B O -0.4727(12) 0.2379(10) 0.6829(13)
O16B O 0.057(2) 0.7253(18) 0.8773(17)
O17B O -0.0356(14) 0.7780(11) 0.6636(16)
O18B O 0.2027(13) 0.6727(11) 0.6555(12)
Er1B_2 Er 0.49610(7) 0.41016(6) 0.73400(6)
Er2_2 Er 0.98322(7) 0.39021(6) 0.27177(8)
Er2B_2 Er -0.98322(7) 0.60979(6) 0.72823(8)
O7B_2 O -0.4024(12) 0.4080(10) 0.5664(10)
O8_2 O -0.6058(11) 0.5235(9) 0.6027(9)
O10_2 O -0.1592(14) 0.4766(11) 0.1550(13)
O10B_2 O 0.1592(14) 0.5234(11) 0.8450(13)
O19 O 0.726(3) 0.728(2) 0.031(2)
loop_
_geom_bond_atom_site_label_1
_geom_bond_atom_site_label_2
_geom_bond_site_symmetry_1
_geom_bond_site_symmetry_2
Er1 O2 1_555 1_555
Er2 O1 1_555 1_555
S1 O9 1_555 1_555
O1 C1 1_555 1_555
O2 C1 1_555 1_555
O3 Er2 1_555 1_555
O4 Er1 1_555 1_555
O5 Er2 1_555 1_555
O6 C3 1_555 1_555
O7 Er1 1_555 1_555
O8 C4 1_555 1_555
O9 Er1 1_555 1_555
O10 S1 1_555 1_555
O11 S1 1_555 1_555
O12 S1 1_555 1_555
C1 C2 1_555 1_555
C2 O3 1_555 1_555
C3 O5 1_555 1_555
C4 O7 1_555 1_555
O13 Er1 1_555 1_555
O14 Er1 1_555 1_555
O15 Er1 1_555 1_555
O16 Er2 1_555 1_555
O17 Er2 1_555 1_555
O18 Er2 1_555 1_555
O5B C3B 1_555 1_555
O6B Er2 1_555 1_555
C3B C3 1_555 1_555
O7B C4B 1_555 1_555
O8B Er1 1_555 1_555
C4B C4 1_555 1_555
Er1B O2B 1_555 1_555
Er2B O6 1_555 1_555
S1B O9B 1_555 1_555
O1B Er2B 1_555 1_555
O2B C1B 1_555 1_555
O3B Er2B 1_555 1_555
O4B Er1B 1_555 1_555
O9B Er1B 1_555 1_555
O10B S1B 1_555 1_555
O11B S1B 1_555 1_555
O12B S1B 1_555 1_555
C1B O1B 1_555 1_555
C2B O3B 1_555 1_555
O13B Er1B 1_555 1_555
O14B Er1B 1_555 1_555
O15B Er1B 1_555 1_555
O16B Er2B 1_555 1_555
O17B Er2B 1_555 1_555
O18B Er2B 1_555 1_555
Er1B_2 O8 1_555 1_555
Er2_2 O10 1_555 1_555
Er2B_2 O10B 1_555 1_555
O7B_2 Er1B 1_555 1_555
O8_2 Er1B 1_555 1_555
O10_2 Er2 1_555 1_555
O10B_2 Er2B 1_555 1_555
O4 C2 1_555 1_555
O5B Er2B 1_555 1_555
O6B C3B 1_555 1_555
O7B Er1B_2 1_555 1_555
O8B C4B 1_555 1_555
O4B C2B 1_555 1_555
C1B C2B 1_555 1_555

#END
