
#######################################################################
#
#                 Cambridge Crystallographic Data Centre
#                                CCDC 
#
#######################################################################
#
# If this CIF has been generated from an entry in the Cambridge 
# Structural Database, then it will include bibliographic, chemical, 
# crystal, experimental, refinement or atomic coordinate data resulting 
# from the CCDC's data processing and validation procedures.
#
#######################################################################

data_DIVPOP
_symmetry_cell_setting           triclinic
_symmetry_space_group_name_H-M   'P -1'
_symmetry_Int_Tables_number      2
_space_group_name_Hall           '-P 1'
loop_
_symmetry_equiv_pos_site_id
_symmetry_equiv_pos_as_xyz
1 x,y,z
2 -x,-y,-z
_cell_length_a                   8.5641(17)
_cell_length_b                   10.185(2)
_cell_length_c                   14.087(3)
_cell_angle_alpha                90.66(3)
_cell_angle_beta                 105.20(3)
_cell_angle_gamma                100.67(3)
_cell_volume                     1162.92
loop_
_atom_site_label
_atom_site_type_symbol
_atom_site_fract_x
_atom_site_fract_y
_atom_site_fract_z
Cd1 Cd 0.29628(3) 0.38483(2) 0.011624(15)
N1 N 0.2414(3) 0.3943(2) 0.15750(18)
N2 N 0.1971(3) 0.4779(3) 0.29020(18)
O1 O 0.3425(3) 0.2356(2) -0.08832(18)
O2 O 0.2552(3) 0.1197(2) 0.02463(19)
O3 O 0.2254(3) -0.3943(2) -0.00767(16)
O4 O 0.4005(3) -0.44517(19) -0.08502(16)
O5 O 0.0137(3) 0.3278(2) -0.07573(19)
H1 H -0.0025 0.2516 -0.0856
H2 H -0.0376 0.3591 -0.0420
C1 C 0.3032(4) 0.1257(3) -0.0518(2)
C2 C 0.3156(3) 0.0003(3) -0.1047(2)
C3 C 0.3018(3) -0.1211(3) -0.0615(2)
H3 H 0.2784 -0.1275 -0.0007
C4 C 0.3231(3) -0.2332(3) -0.1099(2)
C5 C 0.3152(4) -0.3647(3) -0.0639(2)
C6 C 0.3582(4) -0.2227(3) -0.2002(2)
H4 H 0.3766 -0.2977 -0.2307
C7 C 0.3666(4) -0.1029(3) -0.2465(2)
C8 C 0.3476(4) 0.0083(3) -0.1957(2)
H5 H 0.3566 0.0905 -0.2240
C9 C 0.3950(6) -0.0922(3) -0.3488(3)
C10 C 0.4619(10) -0.2078(6) -0.3783(4)
H6 H 0.4733 -0.1986 -0.4441
H7 H 0.3875 -0.2900 -0.3762
H8 H 0.5677 -0.2087 -0.3337
C11 C 0.2331(9) -0.0993(11) -0.4220(4)
H9 H 0.1856 -0.0250 -0.4090
H10 H 0.1607 -0.1815 -0.4172
H11 H 0.2484 -0.0960 -0.4871
C12 C 0.5039(12) 0.0358(6) -0.3564(5)
H12 H 0.6104 0.0403 -0.3109
H13 H 0.4566 0.1090 -0.3410
H14 H 0.5154 0.0411 -0.4223
C13 C 0.1264(4) 0.3026(3) 0.1875(3)
H15 H 0.0756 0.2190 0.1559
C14 C 0.0990(4) 0.3516(4) 0.2682(3)
H16 H 0.0278 0.3092 0.3031
C15 C 0.2810(4) 0.4994(3) 0.2213(2)
C16 C 0.3967(4) 0.6263(3) 0.2178(2)
H17 H 0.4651 0.6119 0.1760
H18 H 0.4647 0.6554 0.2830
H19 H 0.3349 0.6937 0.1920
C17 C 0.2119(4) 0.5742(4) 0.3714(2)
H20 H 0.1903 0.6581 0.3443
H21 H 0.3247 0.5906 0.4125
C18 C 0.0972(4) 0.5304(3) 0.4355(2)
C19 C 0.1474(4) 0.4548(4) 0.5158(2)
C20 C 0.3061(5) 0.4015(5) 0.5307(3)
H22 H 0.3440 0.4119 0.4723
H23 H 0.2859 0.3084 0.5435
H24 H 0.3887 0.4505 0.5856
C21 C -0.0518(4) 0.5735(4) 0.4180(2)
C22 C -0.1123(6) 0.6473(5) 0.3267(3)
H25 H -0.2304 0.6238 0.3041
H26 H -0.0654 0.6227 0.2758
H27 H -0.0793 0.7421 0.3423
N1A N -0.2414(3) 0.6057(2) 0.84250(18)
N2A N -0.1971(3) 0.5221(3) 0.70980(18)
C13A C -0.1264(4) 0.6974(3) 0.8125(3)
H15A H -0.0756 0.7810 0.8441
C14A C -0.0990(4) 0.6484(4) 0.7318(3)
H16A H -0.0278 0.6908 0.6969
C15A C -0.2810(4) 0.5006(3) 0.7787(2)
C16A C -0.3967(4) 0.3737(3) 0.7822(2)
H17A H -0.4651 0.3881 0.8240
H18A H -0.4647 0.3446 0.7170
H19A H -0.3349 0.3063 0.8080
C17A C -0.2119(4) 0.4258(4) 0.6286(2)
H20A H -0.1903 0.3419 0.6557
H21A H -0.3247 0.4094 0.5875
C18A C -0.0972(4) 0.4696(3) 0.5645(2)
C19A C -0.1474(4) 0.5452(4) 0.4842(2)
C20A C -0.3061(5) 0.5985(5) 0.4693(3)
H22A H -0.3440 0.5881 0.5277
H23A H -0.2859 0.6916 0.4565
H24A H -0.3887 0.5495 0.4144
C21A C 0.0518(4) 0.4265(4) 0.5820(2)
C22A C 0.1123(6) 0.3527(5) 0.6733(3)
H25A H 0.2304 0.3762 0.6959
H26A H 0.0654 0.3773 0.7242
H27A H 0.0793 0.2579 0.6577
Cd1A Cd -0.29628(3) 0.61517(2) 0.988376(15)
O1A O -0.3425(3) 0.7644(2) 1.08832(18)
O2A O -0.2552(3) 0.8803(2) 0.97537(19)
O3A O -0.2254(3) 1.3943(2) 1.00767(16)
O4A O -0.4005(3) 1.44517(19) 1.08502(16)
O5A O -0.0137(3) 0.6722(2) 1.07573(19)
H1A H 0.0025 0.7484 1.0856
H2A H 0.0376 0.6409 1.0420
C1A C -0.3032(4) 0.8743(3) 1.0518(2)
C2A C -0.3156(3) 0.9997(3) 1.1047(2)
C3A C -0.3018(3) 1.1211(3) 1.0615(2)
H3A H -0.2784 1.1275 1.0007
C4A C -0.3231(3) 1.2332(3) 1.1099(2)
C5A C -0.3152(4) 1.3647(3) 1.0639(2)
C6A C -0.3582(4) 1.2227(3) 1.2002(2)
H4A H -0.3766 1.2977 1.2307
C7A C -0.3666(4) 1.1029(3) 1.2465(2)
C8A C -0.3476(4) 0.9917(3) 1.1957(2)
H5A H -0.3566 0.9095 1.2240
C9A C -0.3950(6) 1.0922(3) 1.3488(3)
C10A C -0.4619(10) 1.2078(6) 1.3783(4)
H6A H -0.4733 1.1986 1.4441
H7A H -0.3875 1.2900 1.3762
H8A H -0.5677 1.2087 1.3337
C11A C -0.2331(9) 1.0993(11) 1.4220(4)
H9A H -0.1856 1.0250 1.4090
H10A H -0.1607 1.1815 1.4172
H11A H -0.2484 1.0960 1.4871
C12A C -0.5039(12) 0.9642(6) 1.3564(5)
H12A H -0.6104 0.9597 1.3109
H13A H -0.4566 0.8910 1.3410
H14A H -0.5154 0.9589 1.4223
Cd1_2 Cd -0.70372(3) 1.38483(2) 1.011624(15)
Cd1_3 Cd 0.29628(3) -0.61517(2) 0.011624(15)
Cd1A_2 Cd -0.29628(3) 1.61517(2) 0.988376(15)
Cd1A_3 Cd 0.70372(3) -0.38483(2) -0.011624(15)
O3_2 O 0.2254(3) 0.6057(2) -0.00767(16)
O3A_2 O -0.2254(3) 0.3943(2) 1.00767(16)
O4_2 O -0.5995(3) 0.55483(19) 0.91498(16)
O4_3 O 0.4005(3) 0.55483(19) -0.08502(16)
O4A_2 O -0.4005(3) 0.44517(19) 1.08502(16)
O4A_3 O 0.5995(3) 0.44517(19) 0.08502(16)
O6 O 0.1106(5) 0.9407(3) 0.1336(3)
H28 H 0.0945 0.9576 0.1891
H29 H 0.0611 0.9882 0.0909
loop_
_geom_bond_atom_site_label_1
_geom_bond_atom_site_label_2
_geom_bond_site_symmetry_1
_geom_bond_site_symmetry_2
Cd1 N1 1_555 1_555
N1 C13 1_555 1_555
N2 C14 1_555 1_555
O1 Cd1 1_555 1_555
O2 Cd1 1_555 1_555
O3 C5 1_555 1_555
O4 C5 1_555 1_555
O5 Cd1 1_555 1_555
H1 O5 1_555 1_555
H2 O5 1_555 1_555
C1 O1 1_555 1_555
C2 C1 1_555 1_555
C3 C2 1_555 1_555
H3 C3 1_555 1_555
C4 C3 1_555 1_555
C5 C4 1_555 1_555
C6 C4 1_555 1_555
H4 C6 1_555 1_555
C7 C6 1_555 1_555
C8 C2 1_555 1_555
H5 C8 1_555 1_555
C9 C7 1_555 1_555
C10 C9 1_555 1_555
H6 C10 1_555 1_555
H7 C10 1_555 1_555
H8 C10 1_555 1_555
C11 C9 1_555 1_555
H9 C11 1_555 1_555
H10 C11 1_555 1_555
H11 C11 1_555 1_555
C12 C9 1_555 1_555
H12 C12 1_555 1_555
H13 C12 1_555 1_555
H14 C12 1_555 1_555
C13 H15 1_555 1_555
C14 C13 1_555 1_555
H16 C14 1_555 1_555
C15 N1 1_555 1_555
C16 C15 1_555 1_555
H17 C16 1_555 1_555
H18 C16 1_555 1_555
H19 C16 1_555 1_555
C17 N2 1_555 1_555
H20 C17 1_555 1_555
H21 C17 1_555 1_555
C18 C17 1_555 1_555
C19 C18 1_555 1_555
C20 C19 1_555 1_555
H22 C20 1_555 1_555
H23 C20 1_555 1_555
H24 C20 1_555 1_555
C21 C18 1_555 1_555
C22 C21 1_555 1_555
H25 C22 1_555 1_555
H26 C22 1_555 1_555
H27 C22 1_555 1_555
O6 H28 1_555 1_555
H29 O6 1_555 1_555
N1A C13A 1_555 1_555
N2A C14A 1_555 1_555
C13A H15A 1_555 1_555
C14A C13A 1_555 1_555
H16A C14A 1_555 1_555
C15A N1A 1_555 1_555
C16A C15A 1_555 1_555
H17A C16A 1_555 1_555
H18A C16A 1_555 1_555
H19A C16A 1_555 1_555
C17A N2A 1_555 1_555
H20A C17A 1_555 1_555
H21A C17A 1_555 1_555
C18A C17A 1_555 1_555
C19A C21 1_555 1_555
C20A C19A 1_555 1_555
H22A C20A 1_555 1_555
H23A C20A 1_555 1_555
H24A C20A 1_555 1_555
C21A C19 1_555 1_555
C22A C21A 1_555 1_555
H25A C22A 1_555 1_555
H26A C22A 1_555 1_555
H27A C22A 1_555 1_555
Cd1A N1A 1_555 1_555
O1A Cd1A 1_555 1_555
O2A Cd1A 1_555 1_555
O3A C5A 1_555 1_555
O4A C5A 1_555 1_555
O5A Cd1A 1_555 1_555
H1A O5A 1_555 1_555
H2A O5A 1_555 1_555
C1A O1A 1_555 1_555
C2A C1A 1_555 1_555
C3A C2A 1_555 1_555
H3A C3A 1_555 1_555
C4A C3A 1_555 1_555
C5A C4A 1_555 1_555
C6A C4A 1_555 1_555
H4A C6A 1_555 1_555
C7A C6A 1_555 1_555
C8A C2A 1_555 1_555
H5A C8A 1_555 1_555
C9A C7A 1_555 1_555
C10A C9A 1_555 1_555
H6A C10A 1_555 1_555
H7A C10A 1_555 1_555
H8A C10A 1_555 1_555
C11A C9A 1_555 1_555
H9A C11A 1_555 1_555
H10A C11A 1_555 1_555
H11A C11A 1_555 1_555
C12A C9A 1_555 1_555
H12A C12A 1_555 1_555
H13A C12A 1_555 1_555
H14A C12A 1_555 1_555
Cd1_2 O4A 1_555 1_555
Cd1_3 O3 1_555 1_555
Cd1A_2 O3A 1_555 1_555
Cd1A_3 O4 1_555 1_555
O3_2 Cd1 1_555 1_555
O3A_2 Cd1A 1_555 1_555
O4_2 Cd1A 1_555 1_555
O4_3 Cd1 1_555 1_555
O4A_2 Cd1A 1_555 1_555
O4A_3 Cd1 1_555 1_555
N2 C15 1_555 1_555
O2 C1 1_555 1_555
O4 Cd1_3 1_555 1_555
C7 C8 1_555 1_555
N2A C15A 1_555 1_555
C18A C19A 1_555 1_555
C18A C21A 1_555 1_555
O2A C1A 1_555 1_555
O4A Cd1A_2 1_555 1_555
C7A C8A 1_555 1_555

#END
