
#######################################################################
#
#                 Cambridge Crystallographic Data Centre
#                                CCDC 
#
#######################################################################
#
# If this CIF has been generated from an entry in the Cambridge 
# Structural Database, then it will include bibliographic, chemical, 
# crystal, experimental, refinement or atomic coordinate data resulting 
# from the CCDC's data processing and validation procedures.
#
#######################################################################

data_DIVPUV
_symmetry_cell_setting           monoclinic
_symmetry_space_group_name_H-M   'C 2/c'
_symmetry_Int_Tables_number      15
_space_group_name_Hall           '-C 2yn'
loop_
_symmetry_equiv_pos_site_id
_symmetry_equiv_pos_as_xyz
1 x,y,z
2 -x,y,1/2-z
3 1/2+x,1/2+y,z
4 1/2-x,1/2+y,1/2-z
5 -x,-y,-z
6 x,-y,1/2+z
7 1/2-x,1/2-y,-z
8 1/2+x,1/2-y,1/2+z
_cell_length_a                   25.309(5)
_cell_length_b                   14.766(3)
_cell_length_c                   18.403(4)
_cell_angle_alpha                90
_cell_angle_beta                 111.69(3)
_cell_angle_gamma                90
_cell_volume                     6390.49
loop_
_atom_site_label
_atom_site_type_symbol
_atom_site_fract_x
_atom_site_fract_y
_atom_site_fract_z
Zn1 Zn 0.22997(3) 0.87694(5) 0.17825(4)
N1 N 0.1672(2) 0.7885(3) 0.1155(3)
N2 N 0.1201(2) 0.6675(4) 0.0588(3)
N3 N 0.3041(2) 0.8062(4) 0.2073(3)
N4 N 0.3621(2) 0.6901(4) 0.2258(3)
C1 C 0.1693(2) 0.7143(4) 0.0769(3)
C2 C 0.0524(2) 0.5392(4) 0.0119(4)
C3 C 0.2220(3) 0.9447(4) 0.4625(4)
H1 H 0.2495 0.9898 0.4736
C4 C 0.1702(3) 0.8226(4) 0.3823(4)
H2 H 0.1614 0.7879 0.3372
C5 C 0.2024(4) 0.9903(5) 0.5819(4)
C6 C 0.2084(2) 0.8934(4) 0.3943(4)
C7 C 0.2327(3) 0.9170(5) 0.3347(4)
C8 C 0.1568(3) 0.8570(5) 0.4995(4)
H3 H 0.1389 0.8460 0.5347
C9 C 0.3140(2) 0.7213(4) 0.2321(3)
C10 C 0.1446(3) 0.8016(4) 0.4348(4)
C11 C 0.1943(3) 0.9277(4) 0.5134(3)
C12 C 0.0449(3) 0.4903(4) 0.0722(4)
C13 C 0.0077(3) 0.5496(4) -0.0595(4)
C14 C 0.3478(3) 0.8314(5) 0.1841(4)
H4 H 0.3518 0.8872 0.1634
C15 C 0.1108(3) 0.5767(4) 0.0228(4)
H5 H 0.1397 0.5357 0.0557
H6 H 0.1147 0.5799 -0.0276
C16 C 0.4438(3) 0.5891(5) 0.2442(5)
C17 C 0.3840(3) 0.7607(5) 0.1968(4)
H7 H 0.4177 0.7598 0.1875
C18 C 0.2162(3) 0.6837(5) 0.0529(4)
H8 H 0.2446 0.7303 0.0643
H9 H 0.2015 0.6714 -0.0022
H10 H 0.2329 0.6297 0.0810
C19 C 0.1154(3) 0.7891(6) 0.1228(6)
H11 H 0.1022 0.8338 0.1475
C20 C 0.2775(3) 0.6679(5) 0.2640(4)
H12 H 0.2450 0.7034 0.2611
H13 H 0.2989 0.6525 0.3175
H14 H 0.2651 0.6135 0.2339
C21 C 0.4871(3) 0.5891(5) 0.3171(5)
C22 C 0.3823(3) 0.5956(5) 0.2381(5)
H15 H 0.3585 0.5586 0.1949
H16 H 0.3792 0.5724 0.2857
C23 C 0.0866(3) 0.7145(6) 0.0883(6)
H17 H 0.0504 0.6982 0.0852
C24 C 0.4560(3) 0.5871(5) 0.1767(5)
C25 C 0.0145(4) 0.6080(6) -0.1237(5)
H18 H 0.0226 0.5700 -0.1606
H19 H 0.0452 0.6499 -0.1010
H20 H -0.0201 0.6409 -0.1499
C26 C 0.0942(3) 0.4825(7) 0.1509(4)
H21 H 0.0802 0.4906 0.1923
H22 H 0.1219 0.5283 0.1545
H23 H 0.1113 0.4238 0.1553
C27 C 0.4093(4) 0.5861(8) 0.0952(5)
H24 H 0.3733 0.5739 0.0996
H25 H 0.4173 0.5398 0.0642
H26 H 0.4078 0.6439 0.0707
C28 C 0.1279(6) 0.6381(7) 0.3993(12)
H27 H 0.1018 0.5887 0.3912
H28 H 0.1628 0.6238 0.4415
H29 H 0.1354 0.6482 0.3524
C29 C 0.1026(4) 0.7222(6) 0.4191(5)
C30 C 0.0856(6) 0.7012(8) 0.4862(7)
H30 H 0.0712 0.7550 0.5018
H31 H 0.1180 0.6795 0.5292
H32 H 0.0566 0.6555 0.4712
C31 C 0.0497(5) 0.7469(11) 0.3519(8)
H33 H 0.0589 0.7600 0.3069
H34 H 0.0327 0.7994 0.3653
H35 H 0.0233 0.6973 0.3404
C32 C 0.4733(4) 0.5924(8) 0.3907(6)
H36 H 0.4329 0.5951 0.3766
H37 H 0.4905 0.6452 0.4207
H38 H 0.4880 0.5391 0.4214
O1 O 0.2711(2) 0.9722(4) 0.3472(3)
O2 O 0.2085(2) 0.8778(3) 0.2685(3)
O3 O 0.1663(3) 0.9928(4) 0.6127(3)
O4 O 0.2449(2) 1.0399(4) 0.6023(3)
N1D N -0.1672(2) 0.2115(3) -0.1155(3)
N2D N -0.1201(2) 0.3325(4) -0.0588(3)
C1D C -0.1693(2) 0.2857(4) -0.0769(3)
C2D C -0.0524(2) 0.4608(4) -0.0119(4)
C12D C -0.0449(3) 0.5097(4) -0.0722(4)
C13D C -0.0077(3) 0.4504(4) 0.0595(4)
C15D C -0.1108(3) 0.4233(4) -0.0228(4)
H5D H -0.1397 0.4643 -0.0557
H6D H -0.1147 0.4201 0.0276
C18D C -0.2162(3) 0.3163(5) -0.0529(4)
H8D H -0.2446 0.2697 -0.0643
H9D H -0.2015 0.3286 0.0022
H10D H -0.2329 0.3703 -0.0810
C19D C -0.1154(3) 0.2109(6) -0.1228(6)
H11D H -0.1022 0.1662 -0.1475
C23D C -0.0866(3) 0.2855(6) -0.0883(6)
H17D H -0.0504 0.3018 -0.0852
C25D C -0.0145(4) 0.3920(6) 0.1237(5)
H18D H -0.0226 0.4300 0.1606
H19D H -0.0452 0.3501 0.1010
H20D H 0.0201 0.3591 0.1499
C26D C -0.0942(3) 0.5175(7) -0.1509(4)
H21D H -0.0802 0.5094 -0.1923
H22D H -0.1219 0.4717 -0.1545
H23D H -0.1113 0.5762 -0.1553
N3A N 0.6959(2) 0.8062(4) 0.2927(3)
N4A N 0.6379(2) 0.6901(4) 0.2742(3)
C9A C 0.6860(2) 0.7213(4) 0.2679(3)
C14A C 0.6522(3) 0.8314(5) 0.3159(4)
H4A H 0.6482 0.8872 0.3366
C16A C 0.5562(3) 0.5891(5) 0.2558(5)
C17A C 0.6160(3) 0.7607(5) 0.3032(4)
H7A H 0.5823 0.7598 0.3125
C20A C 0.7225(3) 0.6679(5) 0.2360(4)
H12A H 0.7550 0.7034 0.2389
H13A H 0.7011 0.6525 0.1825
H14A H 0.7349 0.6135 0.2661
C21A C 0.5129(3) 0.5891(5) 0.1829(5)
C22A C 0.6177(3) 0.5956(5) 0.2619(5)
H15A H 0.6415 0.5586 0.3051
H16A H 0.6208 0.5724 0.2143
C24A C 0.5440(3) 0.5871(5) 0.3233(5)
C27A C 0.5907(4) 0.5861(8) 0.4048(5)
H24A H 0.6267 0.5739 0.4004
H25A H 0.5827 0.5398 0.4358
H26A H 0.5922 0.6439 0.4293
C32A C 0.5267(4) 0.5924(8) 0.1093(6)
H36A H 0.5671 0.5951 0.1234
H37A H 0.5095 0.6452 0.0793
H38A H 0.5120 0.5391 0.0786
Zn1A Zn 0.77003(3) 0.87694(5) 0.32175(4)
C3A C 0.7780(3) 0.9447(4) 0.0375(4)
H1A H 0.7505 0.9898 0.0264
C4A C 0.8298(3) 0.8226(4) 0.1177(4)
H2A H 0.8386 0.7879 0.1628
C5A C 0.7976(4) 0.9903(5) -0.0819(4)
C6A C 0.7916(2) 0.8934(4) 0.1057(4)
C7A C 0.7673(3) 0.9170(5) 0.1653(4)
C8A C 0.8432(3) 0.8570(5) 0.0005(4)
H3A H 0.8611 0.8460 -0.0347
C10A C 0.8554(3) 0.8016(4) 0.0652(4)
C11A C 0.8057(3) 0.9277(4) -0.0134(3)
C28A C 0.8721(6) 0.6381(7) 0.1007(12)
H27A H 0.8982 0.5887 0.1088
H28A H 0.8372 0.6238 0.0585
H29A H 0.8646 0.6482 0.1476
C29A C 0.8974(4) 0.7222(6) 0.0809(5)
C30A C 0.9144(6) 0.7012(8) 0.0138(7)
H30A H 0.9288 0.7550 -0.0018
H31A H 0.8820 0.6795 -0.0292
H32A H 0.9434 0.6555 0.0288
C31A C 0.9503(5) 0.7469(11) 0.1481(8)
H33A H 0.9411 0.7600 0.1931
H34A H 0.9673 0.7994 0.1347
H35A H 0.9767 0.6973 0.1596
O1A O 0.7289(2) 0.9722(4) 0.1528(3)
O2A O 0.7915(2) 0.8778(3) 0.2315(3)
O3A O 0.8337(3) 0.9928(4) -0.1127(3)
O4A O 0.7551(2) 1.0399(4) -0.1023(3)
Zn1D Zn -0.22997(3) 0.12306(5) -0.17825(4)
Zn1D_2 Zn 0.77003(3) 1.12306(5) -0.17825(4)
Zn1E Zn 0.22997(3) 1.12306(5) 0.67825(4)
N1A N 0.8328(2) 0.7885(3) 0.3845(3)
O3D O 0.8337(3) 1.0072(4) 0.3873(3)
O3E O 0.1663(3) 1.0072(4) 0.1127(3)
O4D O 0.7551(2) 0.9601(4) 0.3977(3)
O4E O 0.2449(2) 0.9601(4) 0.1023(3)
loop_
_geom_bond_atom_site_label_1
_geom_bond_atom_site_label_2
_geom_bond_site_symmetry_1
_geom_bond_site_symmetry_2
Zn1 N1 1_555 1_555
N1 C1 1_555 1_555
N2 C1 1_555 1_555
N3 Zn1 1_555 1_555
N4 C9 1_555 1_555
C1 C18 1_555 1_555
C2 C12 1_555 1_555
C3 H1 1_555 1_555
C4 H2 1_555 1_555
C5 C11 1_555 1_555
C6 C3 1_555 1_555
C7 C6 1_555 1_555
C8 H3 1_555 1_555
C9 N3 1_555 1_555
C10 C4 1_555 1_555
C11 C3 1_555 1_555
C12 C26 1_555 1_555
C13 C2 1_555 1_555
C14 N3 1_555 1_555
H4 C14 1_555 1_555
C15 N2 1_555 1_555
H5 C15 1_555 1_555
H6 C15 1_555 1_555
C16 C21 1_555 1_555
C17 N4 1_555 1_555
H7 C17 1_555 1_555
C18 H8 1_555 1_555
H9 C18 1_555 1_555
H10 C18 1_555 1_555
C19 N1 1_555 1_555
H11 C19 1_555 1_555
C20 C9 1_555 1_555
H12 C20 1_555 1_555
H13 C20 1_555 1_555
H14 C20 1_555 1_555
C21 C32 1_555 1_555
C22 N4 1_555 1_555
H15 C22 1_555 1_555
H16 C22 1_555 1_555
C23 N2 1_555 1_555
H17 C23 1_555 1_555
C24 C16 1_555 1_555
C25 C13 1_555 1_555
H18 C25 1_555 1_555
H19 C25 1_555 1_555
H20 C25 1_555 1_555
C26 H21 1_555 1_555
H22 C26 1_555 1_555
H23 C26 1_555 1_555
C27 C24 1_555 1_555
H24 C27 1_555 1_555
H25 C27 1_555 1_555
H26 C27 1_555 1_555
C28 H27 1_555 1_555
H28 C28 1_555 1_555
H29 C28 1_555 1_555
C29 C10 1_555 1_555
C30 C29 1_555 1_555
H30 C30 1_555 1_555
H31 C30 1_555 1_555
H32 C30 1_555 1_555
C31 C29 1_555 1_555
H33 C31 1_555 1_555
H34 C31 1_555 1_555
H35 C31 1_555 1_555
C32 H36 1_555 1_555
H37 C32 1_555 1_555
H38 C32 1_555 1_555
O1 C7 1_555 1_555
O2 Zn1 1_555 1_555
O3 C5 1_555 1_555
O4 C5 1_555 1_555
N1D C1D 1_555 1_555
N2D C1D 1_555 1_555
C1D C18D 1_555 1_555
C2D C12D 1_555 1_555
C12D C13 1_555 1_555
C13D C12 1_555 1_555
C15D N2D 1_555 1_555
H5D C15D 1_555 1_555
H6D C15D 1_555 1_555
C18D H8D 1_555 1_555
H9D C18D 1_555 1_555
H10D C18D 1_555 1_555
C19D N1D 1_555 1_555
H11D C19D 1_555 1_555
C23D N2D 1_555 1_555
H17D C23D 1_555 1_555
C25D C13D 1_555 1_555
H18D C25D 1_555 1_555
H19D C25D 1_555 1_555
H20D C25D 1_555 1_555
C26D C12D 1_555 1_555
H21D C26D 1_555 1_555
H22D C26D 1_555 1_555
H23D C26D 1_555 1_555
N3A C9A 1_555 1_555
N4A C9A 1_555 1_555
C9A C20A 1_555 1_555
C14A N3A 1_555 1_555
H4A C14A 1_555 1_555
C16A C21A 1_555 1_555
C17A N4A 1_555 1_555
H7A C17A 1_555 1_555
C20A H12A 1_555 1_555
H13A C20A 1_555 1_555
H14A C20A 1_555 1_555
C21A C24 1_555 1_555
C22A N4A 1_555 1_555
H15A C22A 1_555 1_555
H16A C22A 1_555 1_555
C24A C21 1_555 1_555
C27A C24A 1_555 1_555
H24A C27A 1_555 1_555
H25A C27A 1_555 1_555
H26A C27A 1_555 1_555
C32A C21A 1_555 1_555
H36A C32A 1_555 1_555
H37A C32A 1_555 1_555
H38A C32A 1_555 1_555
Zn1A N3A 1_555 1_555
C3A H1A 1_555 1_555
C4A H2A 1_555 1_555
C5A C11A 1_555 1_555
C6A C3A 1_555 1_555
C7A C6A 1_555 1_555
C8A H3A 1_555 1_555
C10A C4A 1_555 1_555
C11A C3A 1_555 1_555
C28A H27A 1_555 1_555
H28A C28A 1_555 1_555
H29A C28A 1_555 1_555
C29A C10A 1_555 1_555
C30A C29A 1_555 1_555
H30A C30A 1_555 1_555
H31A C30A 1_555 1_555
H32A C30A 1_555 1_555
C31A C29A 1_555 1_555
H33A C31A 1_555 1_555
H34A C31A 1_555 1_555
H35A C31A 1_555 1_555
O1A C7A 1_555 1_555
O2A Zn1A 1_555 1_555
O3A C5A 1_555 1_555
O4A C5A 1_555 1_555
Zn1D N1D 1_555 1_555
Zn1D_2 O3A 1_555 1_555
Zn1E O3 1_555 1_555
N1A Zn1A 1_555 1_555
O3D Zn1A 1_555 1_555
O3E Zn1 1_555 1_555
O4D Zn1A 1_555 1_555
O4E Zn1 1_555 1_555
C2 C15 1_555 1_555
C4 C6 1_555 1_555
C7 O2 1_555 1_555
C8 C10 1_555 1_555
C8 C11 1_555 1_555
C14 C17 1_555 1_555
C16 C22 1_555 1_555
C19 C23 1_555 1_555
C28 C29 1_555 1_555
O4 Zn1E 1_555 1_555
C2D C13D 1_555 1_555
C2D C15D 1_555 1_555
C19D C23D 1_555 1_555
C14A C17A 1_555 1_555
C16A C22A 1_555 1_555
C16A C24A 1_555 1_555
C4A C6A 1_555 1_555
C7A O2A 1_555 1_555
C8A C10A 1_555 1_555
C8A C11A 1_555 1_555
C28A C29A 1_555 1_555
O4A Zn1D_2 1_555 1_555

#END
