
#######################################################################
#
#                 Cambridge Crystallographic Data Centre
#                                CCDC 
#
#######################################################################
#
# If this CIF has been generated from an entry in the Cambridge 
# Structural Database, then it will include bibliographic, chemical, 
# crystal, experimental, refinement or atomic coordinate data resulting 
# from the CCDC's data processing and validation procedures.
#
#######################################################################

data_DIVRUX
_symmetry_cell_setting           monoclinic
_symmetry_space_group_name_H-M   'P 21/n'
_symmetry_Int_Tables_number      14
_space_group_name_Hall           '-P 2yn'
loop_
_symmetry_equiv_pos_site_id
_symmetry_equiv_pos_as_xyz
1 x,y,z
2 1/2-x,1/2+y,1/2-z
3 -x,-y,-z
4 1/2+x,1/2-y,1/2+z
_cell_length_a                   4.71710(10)
_cell_length_b                   17.4104(4)
_cell_length_c                   24.1638(6)
_cell_angle_alpha                90
_cell_angle_beta                 94.9040(10)
_cell_angle_gamma                90
_cell_volume                     1977.23
loop_
_atom_site_label
_atom_site_type_symbol
_atom_site_fract_x
_atom_site_fract_y
_atom_site_fract_z
Zn1 Zn 0.38297(4) 0.289125(14) 0.094060(9)
O1 O 0.5359(4) 0.19043(10) 0.06702(7)
O2 O 0.5345(4) 0.21510(9) -0.02355(7)
O3 O 0.1339(3) 0.33342(10) 0.03118(6)
O4 O -0.2431(3) 0.34518(9) 0.07918(6)
C1 C 0.9962(6) 0.11216(18) -0.07934(11)
H1 H 1.1283 0.1516 -0.0735
N1 N 0.9432(5) 0.07497(16) -0.12608(9)
N2 N 0.7375(6) 0.02371(13) -0.11652(9)
N3 N 0.6696(5) 0.02937(12) -0.06598(9)
N4 N 0.0632(4) 0.43246(13) -0.07796(9)
N5 N 0.1491(5) 0.40546(16) -0.12326(10)
N6 N 0.0069(6) 0.34079(15) -0.13914(9)
C2 C -0.1716(6) 0.32962(15) -0.10124(10)
H2 H -0.2994 0.2890 -0.1009
N7 N 0.1667(3) 0.22724(10) 0.15368(7)
N8 N 0.3398(3) 0.37281(9) 0.15648(6)
N9 N 0.8352(4) 0.08556(11) -0.04174(7)
C3 C 0.8005(5) 0.10934(14) 0.01486(9)
H3 H 0.9855 0.1221 0.0332
H4 H 0.7244 0.0667 0.0348
C4 C 0.6033(4) 0.17838(13) 0.01798(9)
N10 N -0.1431(3) 0.38440(11) -0.06390(7)
C5 C -0.2768(4) 0.39353(13) -0.01233(8)
H5 H -0.4687 0.3732 -0.0172
H6 H -0.2900 0.4478 -0.0040
C6 C -0.1165(4) 0.35343(11) 0.03635(8)
C7 C 0.0865(5) 0.15417(13) 0.15248(9)
H7 H 0.1557 0.1219 0.1261
C8 C -0.0971(5) 0.12369(14) 0.18912(10)
H8 H -0.1498 0.0723 0.1865
C9 C -0.1986(5) 0.16913(15) 0.22855(10)
H9 H -0.3229 0.1493 0.2528
C10 C -0.1137(4) 0.24685(13) 0.23242(8)
C11 C -0.2015(5) 0.29974(14) 0.27304(9)
H10 H -0.3239 0.2830 0.2987
C12 C -0.1114(5) 0.37277(14) 0.27490(9)
H11 H -0.1734 0.4058 0.3016
C13 C 0.0792(4) 0.40091(12) 0.23633(8)
C14 C 0.1865(5) 0.47594(13) 0.23640(9)
H12 H 0.1360 0.5110 0.2629
C15 C 0.3650(5) 0.49757(13) 0.19766(9)
H13 H 0.4380 0.5472 0.1977
C16 C 0.4366(4) 0.44438(13) 0.15793(8)
H14 H 0.5569 0.4597 0.1314
C17 C 0.1646(4) 0.35135(12) 0.19529(8)
C18 C 0.0685(4) 0.27283(12) 0.19358(8)
Zn1_2 Zn -0.61703(4) 0.289125(14) 0.094060(9)
O4_2 O 0.7569(3) 0.34518(9) 0.07918(6)
loop_
_geom_bond_atom_site_label_1
_geom_bond_atom_site_label_2
_geom_bond_site_symmetry_1
_geom_bond_site_symmetry_2
Zn1 O1 1_555 1_555
O1 C4 1_555 1_555
O2 C4 1_555 1_555
O3 Zn1 1_555 1_555
O4 C6 1_555 1_555
C1 H1 1_555 1_555
N1 C1 1_555 1_555
N2 N1 1_555 1_555
N3 N2 1_555 1_555
N4 N5 1_555 1_555
N5 N6 1_555 1_555
N6 C2 1_555 1_555
C2 H2 1_555 1_555
N7 Zn1 1_555 1_555
N8 Zn1 1_555 1_555
N9 C1 1_555 1_555
C3 N9 1_555 1_555
H3 C3 1_555 1_555
H4 C3 1_555 1_555
C4 C3 1_555 1_555
N10 N4 1_555 1_555
C5 N10 1_555 1_555
H5 C5 1_555 1_555
H6 C5 1_555 1_555
C6 O3 1_555 1_555
C7 N7 1_555 1_555
H7 C7 1_555 1_555
C8 C7 1_555 1_555
H8 C8 1_555 1_555
C9 C8 1_555 1_555
H9 C9 1_555 1_555
C10 C9 1_555 1_555
C11 C10 1_555 1_555
H10 C11 1_555 1_555
C12 C11 1_555 1_555
H11 C12 1_555 1_555
C13 C12 1_555 1_555
C14 C13 1_555 1_555
H12 C14 1_555 1_555
C15 C14 1_555 1_555
H13 C15 1_555 1_555
C16 N8 1_555 1_555
H14 C16 1_555 1_555
C17 N8 1_555 1_555
C18 N7 1_555 1_555
Zn1_2 O4 1_555 1_555
O4_2 Zn1 1_555 1_555
N3 N9 1_555 1_555
C2 N10 1_555 1_555
C5 C6 1_555 1_555
C10 C18 1_555 1_555
C13 C17 1_555 1_555
C15 C16 1_555 1_555
C17 C18 1_555 1_555

#END
