
#######################################################################
#
#                 Cambridge Crystallographic Data Centre
#                                CCDC 
#
#######################################################################
#
# If this CIF has been generated from an entry in the Cambridge 
# Structural Database, then it will include bibliographic, chemical, 
# crystal, experimental, refinement or atomic coordinate data resulting 
# from the CCDC's data processing and validation procedures.
#
#######################################################################

data_DIVSEI
_symmetry_cell_setting           monoclinic
_symmetry_space_group_name_H-M   'P 21/c'
_symmetry_Int_Tables_number      14
_space_group_name_Hall           '-P 2ybc'
loop_
_symmetry_equiv_pos_site_id
_symmetry_equiv_pos_as_xyz
1 x,y,z
2 -x,1/2+y,1/2-z
3 -x,-y,-z
4 x,1/2-y,1/2+z
_cell_length_a                   12.0866(2)
_cell_length_b                   13.8703(2)
_cell_length_c                   10.23320(10)
_cell_angle_alpha                90
_cell_angle_beta                 93.8060(10)
_cell_angle_gamma                90
_cell_volume                     1711.76
loop_
_atom_site_label
_atom_site_type_symbol
_atom_site_fract_x
_atom_site_fract_y
_atom_site_fract_z
Zn1 Zn 0.82332(2) 0.06713(2) 0.00905(3)
O1 O 0.91312(18) 0.42020(14) 0.34607(19)
N1 N 0.6963(2) 0.07029(15) 0.1454(3)
O2 O 1.05835(16) 0.52046(16) 0.35134(18)
N2 N 0.96000(19) 0.34122(15) 0.1158(2)
N3 N 0.67635(19) 0.10958(17) -0.1085(2)
N4 N 0.87171(19) 0.21374(16) 0.0570(2)
C1 C 1.0348(2) 0.4132(2) 0.1774(3)
H1 H 1.0427 0.4657 0.1160
H2 H 1.1073 0.3841 0.1944
N5 N 0.8888(2) 0.36576(19) 0.0156(3)
C2 C 0.9977(2) 0.45490(19) 0.3049(2)
C3 C 0.5833(2) 0.11787(19) -0.0464(3)
C4 C 0.5927(2) 0.0953(2) 0.0956(3)
C5 C 0.5215(3) 0.0795(2) 0.3087(3)
H3 H 0.4631 0.0828 0.3632
C6 C 0.9494(2) 0.2485(2) 0.1397(3)
H4 H 0.9900 0.2137 0.2040
C7 C 0.6260(3) 0.0552(3) 0.3577(4)
H5 H 0.6398 0.0410 0.4461
C8 C 0.4838(3) 0.1461(2) -0.1105(3)
H6 H 0.4197 0.1505 -0.0654
N6 N 0.8361(2) 0.28789(19) -0.0192(3)
C9 C 0.5779(3) 0.1596(2) -0.3074(3)
H7 H 0.5783 0.1737 -0.3962
C10 C 0.6733(3) 0.1301(2) -0.2361(3)
H8 H 0.7383 0.1243 -0.2792
C11 C 0.5047(2) 0.0989(2) 0.1760(3)
H9 H 0.4341 0.1145 0.1407
C12 C 0.7097(3) 0.0524(2) 0.2740(3)
H10 H 0.7806 0.0370 0.3088
C13 C 0.4818(3) 0.1673(2) -0.2413(3)
H11 H 0.4160 0.1869 -0.2858
O3 O 0.7829(2) -0.08141(16) -0.0414(2)
H12 H 0.795(3) -0.089(3) -0.1177(14)
H13 H 0.818(3) -0.121(2) 0.005(2)
Zn1A Zn 1.17668(2) 0.56713(2) 0.49095(3)
Zn1C Zn 0.82332(2) 0.43287(2) 0.50905(3)
O1C O 0.91312(18) 0.07980(14) -0.15393(19)
O2A O 0.94165(16) 0.02046(16) 0.14866(18)
Cl1 Cl 0.79271(6) -0.32404(5) 0.10952(7)
O4 O 0.7172(4) -0.3272(3) 0.0018(4)
O5 O 0.8690(4) -0.2523(4) 0.0877(5)
O6 O 0.7423(4) -0.3047(5) 0.2181(5)
O7 O 0.8615(6) -0.4030(5) 0.1348(7)
loop_
_geom_bond_atom_site_label_1
_geom_bond_atom_site_label_2
_geom_bond_site_symmetry_1
_geom_bond_site_symmetry_2
Zn1 N1 1_555 1_555
O1 C2 1_555 1_555
N1 C4 1_555 1_555
O2 C2 1_555 1_555
N2 C1 1_555 1_555
N3 Zn1 1_555 1_555
N4 Zn1 1_555 1_555
C1 H1 1_555 1_555
H2 C1 1_555 1_555
N5 N2 1_555 1_555
C2 C1 1_555 1_555
C3 N3 1_555 1_555
C4 C3 1_555 1_555
C5 H3 1_555 1_555
C6 N2 1_555 1_555
H4 C6 1_555 1_555
C7 C5 1_555 1_555
H5 C7 1_555 1_555
C8 C3 1_555 1_555
H6 C8 1_555 1_555
N6 N4 1_555 1_555
C9 H7 1_555 1_555
C10 N3 1_555 1_555
H8 C10 1_555 1_555
C11 C4 1_555 1_555
H9 C11 1_555 1_555
C12 N1 1_555 1_555
H10 C12 1_555 1_555
C13 C8 1_555 1_555
H11 C13 1_555 1_555
O3 Zn1 1_555 1_555
H12 O3 1_555 1_555
H13 O3 1_555 1_555
Cl1 O4 1_555 1_555
O5 Cl1 1_555 1_555
O6 Cl1 1_555 1_555
O7 Cl1 1_555 1_555
Zn1A O2 1_555 1_555
Zn1C O1 1_555 1_555
O1C Zn1 1_555 1_555
O2A Zn1 1_555 1_555
N4 C6 1_555 1_555
N5 N6 1_555 1_555
C5 C11 1_555 1_555
C7 C12 1_555 1_555
C9 C10 1_555 1_555
C9 C13 1_555 1_555

#END
