
#######################################################################
#
#                 Cambridge Crystallographic Data Centre
#                                CCDC 
#
#######################################################################
#
# If this CIF has been generated from an entry in the Cambridge 
# Structural Database, then it will include bibliographic, chemical, 
# crystal, experimental, refinement or atomic coordinate data resulting 
# from the CCDC's data processing and validation procedures.
#
#######################################################################

data_DIVSAE
_symmetry_cell_setting           monoclinic
_symmetry_space_group_name_H-M   'P 21/c'
_symmetry_Int_Tables_number      14
_space_group_name_Hall           '-P 2ybc'
loop_
_symmetry_equiv_pos_site_id
_symmetry_equiv_pos_as_xyz
1 x,y,z
2 -x,1/2+y,1/2-z
3 -x,-y,-z
4 x,1/2-y,1/2+z
_cell_length_a                   11.7500(2)
_cell_length_b                   13.8087(2)
_cell_length_c                   9.98380(10)
_cell_angle_alpha                90
_cell_angle_beta                 91.9210(10)
_cell_angle_gamma                90
_cell_volume                     1618.98
loop_
_atom_site_label
_atom_site_type_symbol
_atom_site_fract_x
_atom_site_fract_y
_atom_site_fract_z
Zn1 Zn 0.179112(16) 0.064835(14) -0.006499(19)
O1 O -0.06329(10) -0.02019(9) 0.15449(12)
O2 O 0.08589(11) 0.08072(9) 0.16195(13)
N1 N 0.31320(13) 0.07043(10) -0.14817(16)
N2 N 0.02717(12) 0.16133(10) 0.39453(14)
O3 O 0.21163(12) -0.08376(10) 0.04937(15)
N3 N 0.12345(13) 0.28850(10) 0.44712(15)
N4 N 0.15856(15) 0.21327(11) 0.52618(17)
C1 C 0.04279(15) 0.25453(12) 0.36717(18)
H1 H 0.0028 0.2898 0.3017
C2 C -0.00450(15) 0.04656(12) 0.20364(17)
C3 C -0.04925(15) 0.09004(13) 0.33233(18)
H2 H -0.1222 0.1205 0.3122
H3 H -0.0616 0.0382 0.3958
N5 N 0.32793(12) 0.11149(10) 0.11076(15)
N6 N 0.10058(15) 0.13649(11) 0.49409(17)
C4 C 0.41758(15) 0.09371(12) -0.09961(19)
C5 C 0.49467(19) 0.07696(14) -0.3173(2)
H4 H 0.5558 0.0789 -0.3741
C6 C 0.38755(19) 0.05446(14) -0.3666(2)
H5 H 0.3746 0.0411 -0.4571
C7 C 0.29986(17) 0.05221(13) -0.2789(2)
H6 H 0.2273 0.0372 -0.3126
C8 C 0.51080(16) 0.09666(14) -0.1826(2)
H7 H 0.5829 0.1117 -0.1474
C9 C 0.32987(17) 0.13554(14) 0.24052(19)
H8 H 0.2624 0.1314 0.2863
C10 C 0.42599(14) 0.11826(12) 0.04487(18)
C11 C 0.42605(18) 0.16598(14) 0.3095(2)
H9 H 0.4236 0.1825 0.3997
C12 C 0.52625(17) 0.14836(13) 0.1086(2)
H10 H 0.5929 0.1529 0.0612
C13 C 0.52652(18) 0.17154(14) 0.2426(2)
H11 H 0.5935 0.1907 0.2873
H12 H 0.194(2) -0.1342(10) 0.0073(17)
H13 H 0.202(2) -0.0933(16) 0.1296(9)
Zn1B Zn -0.179112(16) -0.064835(14) 0.006499(19)
Zn1C Zn 0.179112(16) 0.435165(14) 0.493501(19)
O1B O 0.06329(10) 0.02019(9) -0.15449(12)
N3C N 0.12345(13) 0.21150(10) -0.05288(15)
N7 N -0.21122(16) 0.18552(13) 0.59995(18)
O4 O -0.27239(17) 0.18226(14) 0.49919(19)
O5 O -0.15975(18) 0.26128(14) 0.6261(2)
O6 O -0.1963(2) 0.11369(16) 0.6706(2)
loop_
_geom_bond_atom_site_label_1
_geom_bond_atom_site_label_2
_geom_bond_site_symmetry_1
_geom_bond_site_symmetry_2
Zn1 O2 1_555 1_555
O1 C2 1_555 1_555
O2 C2 1_555 1_555
N1 Zn1 1_555 1_555
N2 C1 1_555 1_555
O3 Zn1 1_555 1_555
N3 N4 1_555 1_555
N4 N6 1_555 1_555
C1 N3 1_555 1_555
H1 C1 1_555 1_555
C2 C3 1_555 1_555
C3 N2 1_555 1_555
H2 C3 1_555 1_555
H3 C3 1_555 1_555
N5 Zn1 1_555 1_555
N6 N2 1_555 1_555
C4 N1 1_555 1_555
C5 H4 1_555 1_555
C6 C5 1_555 1_555
H5 C6 1_555 1_555
C7 N1 1_555 1_555
H6 C7 1_555 1_555
C8 C4 1_555 1_555
H7 C8 1_555 1_555
C9 N5 1_555 1_555
H8 C9 1_555 1_555
C10 N5 1_555 1_555
C11 C9 1_555 1_555
H9 C11 1_555 1_555
C12 C10 1_555 1_555
H10 C12 1_555 1_555
C13 C11 1_555 1_555
H11 C13 1_555 1_555
H12 O3 1_555 1_555
H13 O3 1_555 1_555
N7 O4 1_555 1_555
O5 N7 1_555 1_555
O6 N7 1_555 1_555
Zn1B O1 1_555 1_555
Zn1C N3 1_555 1_555
O1B Zn1 1_555 1_555
N3C Zn1 1_555 1_555
C4 C10 1_555 1_555
C5 C8 1_555 1_555
C6 C7 1_555 1_555
C12 C13 1_555 1_555

#END
