
#######################################################################
#
#                 Cambridge Crystallographic Data Centre
#                                CCDC 
#
#######################################################################
#
# If this CIF has been generated from an entry in the Cambridge 
# Structural Database, then it will include bibliographic, chemical, 
# crystal, experimental, refinement or atomic coordinate data resulting 
# from the CCDC's data processing and validation procedures.
#
#######################################################################

data_DIVTEJ
_symmetry_cell_setting           monoclinic
_symmetry_space_group_name_H-M   'P 21/c'
_symmetry_Int_Tables_number      14
_space_group_name_Hall           '-P 2ybc'
loop_
_symmetry_equiv_pos_site_id
_symmetry_equiv_pos_as_xyz
1 x,y,z
2 -x,1/2+y,1/2-z
3 -x,-y,-z
4 x,1/2-y,1/2+z
_cell_length_a                   26.206(13)
_cell_length_b                   12.019(6)
_cell_length_c                   13.564(7)
_cell_angle_alpha                90
_cell_angle_beta                 93.674(10)
_cell_angle_gamma                90
_cell_volume                     4263.47
loop_
_atom_site_label
_atom_site_type_symbol
_atom_site_fract_x
_atom_site_fract_y
_atom_site_fract_z
Cu1 Cu 0.267651(12) 0.86770(2) 0.40349(2)
Cu2 Cu 0.765443(11) 1.00889(2) 0.86061(2)
C1 C 0.16722(10) 0.9084(2) 0.2874(2)
C2 C 0.11314(10) 0.8763(2) 0.3030(2)
C3 C 0.09682(11) 0.8649(3) 0.3973(2)
H1 H 0.1198 0.8757 0.4515
C4 C 0.04633(11) 0.8375(3) 0.4120(2)
H2 H 0.0359 0.8295 0.4758
C5 C 0.01151(9) 0.8221(2) 0.3317(2)
C6 C 0.02860(10) 0.8305(3) 0.2373(2)
H3 H 0.0058 0.8181 0.1829
C7 C 0.07884(10) 0.8568(3) 0.2227(2)
H4 H 0.0897 0.8615 0.1589
C8 C -0.04505(10) 0.7929(3) 0.3432(2)
C9 C -0.06386(12) 0.8304(4) 0.4428(3)
C10 C -0.04908(12) 0.6646(3) 0.3371(3)
C11 C -0.07951(10) 0.8514(2) 0.2622(2)
C12 C -0.07267(11) 0.9651(3) 0.2475(2)
H5 H -0.0474 1.0026 0.2854
C13 C -0.10268(12) 1.0230(3) 0.1777(3)
H6 H -0.0979 1.0991 0.1700
C14 C -0.13990(10) 0.9679(2) 0.1191(2)
C15 C -0.17292(11) 1.0313(3) 0.0427(2)
C16 C -0.14661(10) 0.8555(3) 0.1328(2)
H7 H -0.1713 0.8180 0.0932
C17 C -0.11751(10) 0.7970(2) 0.2043(2)
H8 H -0.1234 0.7215 0.2135
C18 C 0.33169(10) 0.9545(3) 0.5231(2)
C19 C 0.36560(10) 1.0197(2) 0.5968(2)
C20 C 0.35962(10) 1.1329(2) 0.6047(2)
H9 H 0.3359 1.1693 0.5621
C21 C 0.38843(9) 1.1939(2) 0.6754(2)
H10 H 0.3836 1.2703 0.6803
C22 C 0.42446(9) 1.1405(2) 0.7387(2)
C23 C 0.43095(10) 1.0264(2) 0.7291(2)
H11 H 0.4553 0.9898 0.7702
C24 C 0.40160(11) 0.9663(3) 0.6588(2)
H12 H 0.4062 0.8898 0.6535
C25 C 0.45700(9) 1.2009(2) 0.8218(2)
C26 C 0.43597(11) 1.1651(3) 0.9205(2)
C27 C 0.45249(11) 1.3286(3) 0.8145(3)
C28 C 0.51444(9) 1.1723(2) 0.81688(19)
C29 C 0.54626(10) 1.1561(3) 0.9006(2)
H13 H 0.5332 1.1618 0.9625
C30 C 0.59747(11) 1.1312(3) 0.8932(2)
H14 H 0.6183 1.1198 0.9504
C31 C 0.61803(9) 1.1232(2) 0.8025(2)
C32 C 0.67317(9) 1.0912(2) 0.7957(2)
C33 C 0.58684(10) 1.1417(2) 0.7176(2)
H15 H 0.6003 1.1380 0.6559
C34 C 0.53522(10) 1.1658(3) 0.7251(2)
H16 H 0.5144 1.1777 0.6680
C35 C 0.30267(13) 0.6363(3) 0.3723(3)
H17 H 0.3278 0.6581 0.4199
C36 C 0.30013(13) 0.5259(3) 0.3449(3)
H18 H 0.3231 0.4750 0.3744
C37 C 0.26393(10) 0.4909(2) 0.2743(2)
C38 C 0.23231(14) 0.5712(2) 0.2320(2)
H19 H 0.2078 0.5521 0.1823
C39 C 0.23681(14) 0.6802(2) 0.2631(2)
H20 H 0.2151 0.7331 0.2332
H21 H 0.2710 0.7420 0.5583
C40 C 0.25740(10) 0.3724(2) 0.2464(2)
C41 C 0.27070(11) 0.2865(2) 0.3112(2)
H22 H 0.2841 0.3029 0.3747
C42 C 0.26420(11) 0.1769(2) 0.2825(2)
H23 H 0.2732 0.1205 0.3272
C43 C 0.23162(12) 0.2326(2) 0.1289(2)
H24 H 0.2176 0.2141 0.0664
C44 C 0.23746(12) 0.3432(2) 0.1525(2)
H25 H 0.2282 0.3979 0.1062
F1 F -0.04524(8) 0.7703(3) 0.51982(16)
F2 F -0.05147(9) 0.9365(2) 0.46255(16)
F3 F -0.11480(7) 0.8241(2) 0.44477(17)
F4 F -0.01472(9) 0.61503(19) 0.3996(2)
F5 F -0.04053(8) 0.62806(16) 0.2470(2)
F6 F -0.09492(8) 0.62643(19) 0.3594(2)
F7 F 0.38510(6) 1.1746(2) 0.91844(15)
F8 F 0.45411(7) 1.2251(2) 0.99791(14)
F9 F 0.44654(8) 1.0590(2) 0.94144(15)
F10 F 0.48457(8) 1.37991(17) 0.87928(18)
F11 F 0.40556(7) 1.36621(16) 0.83024(18)
F12 F 0.46354(7) 1.36511(15) 0.72452(17)
N1 N 0.27074(10) 0.71273(19) 0.33375(18)
N2 N 0.24518(9) 0.15013(19) 0.19160(19)
O1 O 0.19748(7) 0.9215(2) 0.36087(17)
O2 O 0.17837(7) 0.91855(18) 0.19860(16)
O3 O -0.16758(10) 1.13238(18) 0.0353(2)
O4 O -0.20526(8) 0.97171(18) -0.00821(16)
O5 O 0.29263(8) 1.00258(18) 0.48456(16)
O6 O 0.34256(9) 0.85614(19) 0.50346(19)
O7 O 0.70094(7) 1.08850(19) 0.87653(16)
O8 O 0.68923(7) 1.06520(17) 0.71485(16)
O9 O 0.23697(9) 0.78310(19) 0.52674(16)
H26 H 0.2157 0.7373 0.5062
Cu1B Cu 0.732349(12) 1.13230(2) 0.59651(2)
Cu2_2 Cu -0.234557(11) 1.00889(2) -0.13939(2)
Cu2B Cu 0.234557(11) -0.00889(2) 0.13939(2)
Cu2B_2 Cu 0.234557(11) 0.99111(2) 0.13939(2)
N2B N 0.75482(9) 0.84987(19) 0.80840(19)
O2B O 0.82163(7) 1.08145(18) 0.80140(16)
O4_2 O 0.79474(8) 0.97171(18) 0.99179(16)
O8B O 0.31077(7) 0.93480(17) 0.28515(16)
loop_
_geom_bond_atom_site_label_1
_geom_bond_atom_site_label_2
_geom_bond_site_symmetry_1
_geom_bond_site_symmetry_2
Cu1 N1 1_555 1_555
Cu2 O7 1_555 1_555
C1 C2 1_555 1_555
C2 C3 1_555 1_555
C3 H1 1_555 1_555
C4 C3 1_555 1_555
H2 C4 1_555 1_555
C5 C4 1_555 1_555
C6 C5 1_555 1_555
H3 C6 1_555 1_555
C7 C2 1_555 1_555
H4 C7 1_555 1_555
C8 C5 1_555 1_555
C9 C8 1_555 1_555
C10 C8 1_555 1_555
C11 C8 1_555 1_555
C12 C11 1_555 1_555
H5 C12 1_555 1_555
C13 C12 1_555 1_555
H6 C13 1_555 1_555
C14 C13 1_555 1_555
C15 C14 1_555 1_555
C16 C14 1_555 1_555
H7 C16 1_555 1_555
C17 C11 1_555 1_555
H8 C17 1_555 1_555
C18 C19 1_555 1_555
C19 C20 1_555 1_555
C20 H9 1_555 1_555
C21 C20 1_555 1_555
H10 C21 1_555 1_555
C22 C21 1_555 1_555
C23 C22 1_555 1_555
H11 C23 1_555 1_555
C24 C19 1_555 1_555
H12 C24 1_555 1_555
C25 C22 1_555 1_555
C26 C25 1_555 1_555
C27 C25 1_555 1_555
C28 C25 1_555 1_555
C29 C28 1_555 1_555
H13 C29 1_555 1_555
C30 C29 1_555 1_555
H14 C30 1_555 1_555
C31 C30 1_555 1_555
C32 C31 1_555 1_555
C33 C31 1_555 1_555
H15 C33 1_555 1_555
C34 C28 1_555 1_555
H16 C34 1_555 1_555
C35 H17 1_555 1_555
C36 C35 1_555 1_555
H18 C36 1_555 1_555
C37 C36 1_555 1_555
C38 C37 1_555 1_555
H19 C38 1_555 1_555
C39 C38 1_555 1_555
H20 C39 1_555 1_555
H21 O9 1_555 1_555
C40 C37 1_555 1_555
C41 C40 1_555 1_555
H22 C41 1_555 1_555
C42 C41 1_555 1_555
H23 C42 1_555 1_555
C43 H24 1_555 1_555
C44 C40 1_555 1_555
H25 C44 1_555 1_555
F1 C9 1_555 1_555
F2 C9 1_555 1_555
F3 C9 1_555 1_555
F4 C10 1_555 1_555
F5 C10 1_555 1_555
F6 C10 1_555 1_555
F7 C26 1_555 1_555
F8 C26 1_555 1_555
F9 C26 1_555 1_555
F10 C27 1_555 1_555
F11 C27 1_555 1_555
F12 C27 1_555 1_555
N1 C35 1_555 1_555
N2 C42 1_555 1_555
O1 Cu1 1_555 1_555
O2 C1 1_555 1_555
O3 C15 1_555 1_555
O4 C15 1_555 1_555
O5 Cu1 1_555 1_555
O6 Cu1 1_555 1_555
O7 C32 1_555 1_555
O8 C32 1_555 1_555
O9 Cu1 1_555 1_555
H26 O9 1_555 1_555
Cu1B O8 1_555 1_555
Cu2_2 O4 1_555 1_555
Cu2B N2 1_555 1_555
Cu2B_2 O2 1_555 1_555
N2B Cu2 1_555 1_555
O2B Cu2 1_555 1_555
O4_2 Cu2 1_555 1_555
O8B Cu1 1_555 1_555
C1 O1 1_555 1_555
C6 C7 1_555 1_555
C16 C17 1_555 1_555
C18 O5 1_555 1_555
C18 O6 1_555 1_555
C23 C24 1_555 1_555
C33 C34 1_555 1_555
C39 N1 1_555 1_555
C43 C44 1_555 1_555
C43 N2 1_555 1_555

#END
