
#######################################################################
#
#                 Cambridge Crystallographic Data Centre
#                                CCDC 
#
#######################################################################
#
# If this CIF has been generated from an entry in the Cambridge 
# Structural Database, then it will include bibliographic, chemical, 
# crystal, experimental, refinement or atomic coordinate data resulting 
# from the CCDC's data processing and validation procedures.
#
#######################################################################

data_DIWCUJ
_symmetry_cell_setting           monoclinic
_symmetry_space_group_name_H-M   'P 21/c'
_symmetry_Int_Tables_number      14
_space_group_name_Hall           '-P 2ybc'
loop_
_symmetry_equiv_pos_site_id
_symmetry_equiv_pos_as_xyz
1 x,y,z
2 -x,1/2+y,1/2-z
3 -x,-y,-z
4 x,1/2-y,1/2+z
_cell_length_a                   7.2517(14)
_cell_length_b                   7.7768(15)
_cell_length_c                   25.608(4)
_cell_angle_alpha                90
_cell_angle_beta                 90.522(4)
_cell_angle_gamma                90
_cell_volume                     1444.1
loop_
_atom_site_label
_atom_site_type_symbol
_atom_site_fract_x
_atom_site_fract_y
_atom_site_fract_z
Ag1 Ag 0.18460(5) 0.29199(5) 0.078826(16)
Ag2 Ag 0.30349(6) 0.96847(5) 0.024501(17)
O1 O 0.2294(5) 0.6081(5) 0.08152(13)
O2 O 0.1354(5) 0.8798(5) 0.08690(15)
O3 O -0.3571(5) 0.8946(5) 0.04973(14)
O4 O -0.1581(5) 0.7051(5) 0.01795(14)
O5 O 0.2534(5) 0.7112(5) 0.20132(15)
O6 O 0.2032(6) 0.4443(5) 0.21772(17)
N1 N -0.1245(6) 0.2595(5) 0.08477(16)
N2 N -0.5043(6) 0.2556(5) 0.08413(17)
C1 C -0.4094(7) 0.1894(7) 0.1238(2)
C2 C -0.5158(8) 0.1133(8) 0.1679(2)
H1 H -0.487(4) 0.174(4) 0.1996(4)
H2 H -0.6455(8) 0.123(5) 0.1606(8)
H3 H -0.483(4) -0.0057(16) 0.1719(11)
C3 C 0.1218(7) 0.7213(7) 0.0960(2)
C4 C -0.0420(7) 0.6726(6) 0.12708(19)
C5 C -0.2192(7) 0.6976(7) 0.1081(2)
C6 C -0.3448(7) 0.5727(7) 0.1857(2)
H4 H -0.4469(7) 0.5380(7) 0.2047(2)
C7 C -0.2452(7) 0.7705(6) 0.0541(2)
N3 N 0.1560(6) 0.5828(6) 0.19967(17)
C8 C -0.4096(7) 0.3199(6) 0.0439(2)
H5 H -0.4732(7) 0.3638(6) 0.0152(2)
C9 C -0.1727(8) 0.5477(7) 0.2057(2)
H6 H -0.1553(8) 0.4973(7) 0.2383(2)
C10 C -0.2144(7) 0.1919(7) 0.12406(19)
C11 C -0.1047(8) 0.1177(8) 0.1679(2)
H7 H 0.015(2) 0.086(5) 0.1556(4)
H8 H -0.092(5) 0.2015(19) 0.1952(7)
H9 H -0.166(3) 0.018(3) 0.1811(10)
C12 C -0.3697(7) 0.6496(7) 0.1373(2)
H10 H -0.4882(7) 0.6689(7) 0.1244(2)
C13 C -0.2205(7) 0.3222(7) 0.0444(2)
H11 H -0.1582(7) 0.3682(7) 0.0161(2)
C14 C -0.0249(7) 0.5992(7) 0.1762(2)
Ag1_2 Ag -0.81540(5) 0.29199(5) 0.078826(16)
Ag1B Ag -0.18460(5) 0.70801(5) -0.078826(16)
Ag2_2 Ag -0.69651(6) 0.96847(5) 0.024501(17)
Ag2B Ag -0.30349(6) 1.03153(5) -0.024501(17)
O3_2 O 0.6429(5) 0.8946(5) 0.04973(14)
O3B O 0.3571(5) 1.1054(5) -0.04973(14)
O4B O 0.1581(5) 0.2949(5) -0.01795(14)
N2_2 N 0.4957(6) 0.2556(5) 0.08413(17)
loop_
_geom_bond_atom_site_label_1
_geom_bond_atom_site_label_2
_geom_bond_site_symmetry_1
_geom_bond_site_symmetry_2
Ag1 O1 1_555 1_555
Ag2 O2 1_555 1_555
O1 C3 1_555 1_555
O2 C3 1_555 1_555
O3 C7 1_555 1_555
O4 C7 1_555 1_555
O5 N3 1_555 1_555
O6 N3 1_555 1_555
N1 Ag1 1_555 1_555
N2 C1 1_555 1_555
C1 C2 1_555 1_555
C2 H1 1_555 1_555
H2 C2 1_555 1_555
H3 C2 1_555 1_555
C3 C4 1_555 1_555
C4 C5 1_555 1_555
C5 C7 1_555 1_555
C6 H4 1_555 1_555
N3 C14 1_555 1_555
C8 N2 1_555 1_555
H5 C8 1_555 1_555
C9 C6 1_555 1_555
H6 C9 1_555 1_555
C10 N1 1_555 1_555
C11 C10 1_555 1_555
H7 C11 1_555 1_555
H8 C11 1_555 1_555
H9 C11 1_555 1_555
C12 C5 1_555 1_555
H10 C12 1_555 1_555
C13 N1 1_555 1_555
H11 C13 1_555 1_555
C14 C4 1_555 1_555
Ag1_2 N2 1_555 1_555
Ag1B O4 1_555 1_555
Ag2_2 O3 1_555 1_555
Ag2B O3 1_555 1_555
O3_2 Ag2 1_555 1_555
O3B Ag2 1_555 1_555
O4B Ag1 1_555 1_555
N2_2 Ag1 1_555 1_555
C1 C10 1_555 1_555
C6 C12 1_555 1_555
C8 C13 1_555 1_555
C9 C14 1_555 1_555

#END
