
#######################################################################
#
#                 Cambridge Crystallographic Data Centre
#                                CCDC 
#
#######################################################################
#
# If this CIF has been generated from an entry in the Cambridge 
# Structural Database, then it will include bibliographic, chemical, 
# crystal, experimental, refinement or atomic coordinate data resulting 
# from the CCDC's data processing and validation procedures.
#
#######################################################################

data_DIWCAN
_symmetry_cell_setting           triclinic
_symmetry_space_group_name_H-M   'P -1'
_symmetry_Int_Tables_number      2
_space_group_name_Hall           '-P 1'
loop_
_symmetry_equiv_pos_site_id
_symmetry_equiv_pos_as_xyz
1 x,y,z
2 -x,-y,-z
_cell_length_a                   8.681(3)
_cell_length_b                   17.547(6)
_cell_length_c                   8.331(3)
_cell_angle_alpha                99.10(3)
_cell_angle_beta                 101.64(2)
_cell_angle_gamma                101.62(3)
_cell_volume                     1191.03
loop_
_atom_site_label
_atom_site_type_symbol
_atom_site_fract_x
_atom_site_fract_y
_atom_site_fract_z
Hg1 Hg 0.2633(1) -0.2244(1) -0.0514(1)
Cu1 Cu -0.1519(3) -0.2913(1) 0.3318(3)
S1 S 0.0906(7) -0.3671(3) -0.1186(6)
S2 S -0.6020(6) -0.1755(3) 0.2482(6)
S3 S 0.3642(6) -0.1867(3) -0.2938(6)
N1 N -0.0723(22) -0.3310(10) 0.1327(21)
N2 N -0.3309(20) -0.2433(10) 0.2861(20)
N3 N 0.0471(23) -0.2232(12) -0.5054(20)
N4 N 0.1569(20) -0.0643(10) 0.1890(18)
N5 N -0.1173(18) -0.0943(8) 0.0437(18)
N6 N -0.2207(20) -0.1484(9) -0.0941(21)
N7 N 0.0325(21) -0.1713(9) -0.0532(20)
N8 N -0.3273(18) -0.3731(8) 0.6470(17)
N9 N -0.2655(19) -0.4949(8) 0.5417(18)
N10 N -0.2032(22) -0.5264(9) 0.4146(20)
N11 N -0.2056(19) -0.3964(9) 0.4126(18)
C1 C -0.0059(23) -0.3464(10) 0.0292(23)
C2 C -0.4443(23) -0.2177(11) 0.2636(20)
C3 C 0.1691(24) -0.2106(11) -0.4215(22)
C4 C -0.0282(26) 0.0120(11) 0.2655(23)
C5 C 0.1257(25) -0.0053(11) 0.2879(21)
C6 C 0.0321(22) -0.1081(10) 0.0661(21)
C7 C -0.1554(24) -0.0335(11) 0.1399(24)
C8 C -0.1212(24) -0.1885(11) -0.1406(24)
C9 C 0.2684(29) 0.0444(15) 0.4269(24)
C10 C -0.3226(27) -0.0220(12) 0.0977(30)
C11 C -0.3797(24) -0.4889(12) 0.7686(24)
C12 C -0.3831(24) -0.4103(12) 0.7596(23)
C13 C -0.2698(21) -0.4183(10) 0.5385(21)
C14 C -0.3203(23) -0.5343(11) 0.6557(23)
C15 C -0.1672(26) -0.4637(11) 0.3434(24)
C16 C -0.4529(27) -0.3621(13) 0.8789(23)
C17 C -0.3102(31) -0.6181(12) 0.6468(28)
H1 H -0.0452 0.0620 0.3491
H2 H -0.1634 -0.2362 -0.2511
H3 H 0.2305 0.0907 0.5002
H4 H 0.3638 0.0713 0.3732
H5 H 0.3128 0.0067 0.5067
H6 H -0.3317 0.0284 0.1860
H7 H -0.4081 -0.0751 0.1041
H8 H -0.3497 -0.0109 -0.0277
H9 H -0.4241 -0.5145 0.8651
H10 H -0.1116 -0.4665 0.2384
H11 H -0.4940 -0.3977 0.9637
H12 H -0.5541 -0.3444 0.8091
H13 H -0.3609 -0.3095 0.9499
H14 H -0.3580 -0.6407 0.7447
H15 H -0.1850 -0.6210 0.6632
H16 H -0.3802 -0.6539 0.5259
N3_2 N 0.0471(23) -0.2232(12) 0.4946(20)
Cu1_2 Cu -0.1519(3) -0.2913(1) -0.6682(3)
S2_2 S 0.3980(6) -0.1755(3) 0.2482(6)
Hg1_2 Hg -0.7367(1) -0.2244(1) -0.0514(1)
loop_
_geom_bond_atom_site_label_1
_geom_bond_atom_site_label_2
_geom_bond_site_symmetry_1
_geom_bond_site_symmetry_2
Hg1 S1 1_555 1_555
Cu1 N1 1_555 1_555
S1 C1 1_555 1_555
S2 C2 1_555 1_555
S3 Hg1 1_555 1_555
N1 C1 1_555 1_555
N2 Cu1 1_555 1_555
N3 C3 1_555 1_555
N4 C5 1_555 1_555
N5 N6 1_555 1_555
N6 C8 1_555 1_555
N7 Hg1 1_555 1_555
N8 C12 1_555 1_555
N9 N10 1_555 1_555
N10 C15 1_555 1_555
N11 Cu1 1_555 1_555
C2 N2 1_555 1_555
C3 S3 1_555 1_555
C4 C5 1_555 1_555
C5 C9 1_555 1_555
C6 N4 1_555 1_555
C7 N5 1_555 1_555
C8 N7 1_555 1_555
C9 H3 1_555 1_555
C10 C7 1_555 1_555
C11 C12 1_555 1_555
C12 C16 1_555 1_555
C13 N8 1_555 1_555
C14 N9 1_555 1_555
C15 N11 1_555 1_555
C16 H11 1_555 1_555
C17 C14 1_555 1_555
H1 C4 1_555 1_555
H2 C8 1_555 1_555
H4 C9 1_555 1_555
H5 C9 1_555 1_555
H6 C10 1_555 1_555
H7 C10 1_555 1_555
H8 C10 1_555 1_555
H9 C11 1_555 1_555
H10 C15 1_555 1_555
H12 C16 1_555 1_555
H13 C16 1_555 1_555
H14 C17 1_555 1_555
H15 C17 1_555 1_555
H16 C17 1_555 1_555
N3_2 Cu1 1_555 1_555
Cu1_2 N3 1_555 1_555
S2_2 Hg1 1_555 1_555
Hg1_2 S2 1_555 1_555
N5 C6 1_555 1_555
N7 C6 1_555 1_555
N9 C13 1_555 1_555
N11 C13 1_555 1_555
C4 C7 1_555 1_555
C11 C14 1_555 1_555

#END
