
#######################################################################
#
#                 Cambridge Crystallographic Data Centre
#                                CCDC 
#
#######################################################################
#
# If this CIF has been generated from an entry in the Cambridge 
# Structural Database, then it will include bibliographic, chemical, 
# crystal, experimental, refinement or atomic coordinate data resulting 
# from the CCDC's data processing and validation procedures.
#
#######################################################################

data_DIWCAO
_symmetry_cell_setting           triclinic
_symmetry_space_group_name_H-M   'P -1'
_symmetry_Int_Tables_number      2
_space_group_name_Hall           '-P 1'
loop_
_symmetry_equiv_pos_site_id
_symmetry_equiv_pos_as_xyz
1 x,y,z
2 -x,-y,-z
_cell_length_a                   9.4531(19)
_cell_length_b                   10.869(2)
_cell_length_c                   14.100(3)
_cell_angle_alpha                87.86(3)
_cell_angle_beta                 73.28(3)
_cell_angle_gamma                84.63(3)
_cell_volume                     1381.29
loop_
_atom_site_label
_atom_site_type_symbol
_atom_site_fract_x
_atom_site_fract_y
_atom_site_fract_z
Cd1 Cd 0.25785(4) 0.16874(3) 0.45375(3)
O1 O 0.3962(5) 0.0266(3) -0.1666(3)
O2 O 0.5701(5) 0.1450(3) -0.2533(3)
H1 H 0.5782 0.0942 -0.2993
O3 O 0.7595(4) 0.4547(3) -0.0909(3)
H2 H 0.7843 0.5214 -0.0731
O4 O 0.6867(5) 0.4668(4) 0.0728(3)
O5 O 0.3123(5) 0.2107(4) 0.2699(3)
O6 O 0.2047(4) 0.0848(3) 0.1978(3)
H3 H 0.1543 0.0740 0.2575
O7 O 0.4061(4) 0.1331(3) 0.5625(2)
O8 O 0.5869(4) 0.0063(3) 0.5938(2)
O9 O 0.0845(4) 0.0802(3) 0.3930(2)
O10 O -0.1028(4) -0.0381(3) 0.4222(3)
C1 C 0.3917(5) 0.1986(4) 0.0953(3)
C2 C 0.3884(6) 0.1408(4) 0.0104(4)
H4 H 0.3247 0.0793 0.0142
C3 C 0.4805(6) 0.1749(4) -0.0807(3)
C4 C 0.5771(6) 0.2653(4) -0.0873(4)
H5 H 0.6406 0.2860 -0.1483
C5 C 0.5786(6) 0.3252(4) -0.0012(4)
C6 C 0.4871(6) 0.2906(4) 0.0885(4)
H6 H 0.4890 0.3293 0.1458
C7 C 0.3011(6) 0.1660(5) 0.1951(4)
C8 C 0.4779(6) 0.1075(4) -0.1706(4)
C9 C 0.6803(6) 0.4218(5) -0.0023(4)
C10 C 0.5094(7) 0.3610(5) 0.3434(4)
H7 H 0.5596 0.2904 0.3100
C11 C 0.5716(7) 0.4726(6) 0.3180(4)
H8 H 0.6596 0.4766 0.2675
C12 C 0.5023(7) 0.5759(6) 0.3679(5)
H9 H 0.5433 0.6512 0.3523
C13 C 0.3690(7) 0.5687(5) 0.4428(4)
C14 C 0.2895(8) 0.6719(5) 0.4999(5)
H10 H 0.3271 0.7488 0.4871
C15 C 0.1615(8) 0.6614(5) 0.5718(5)
H11 H 0.1133 0.7300 0.6087
C16 C 0.0998(6) 0.5446(5) 0.5912(4)
C17 C -0.0364(7) 0.5321(6) 0.6623(4)
H12 H -0.0880 0.5996 0.6993
C18 C -0.0919(7) 0.4204(6) 0.6763(4)
H13 H -0.1821 0.4102 0.7233
C19 C -0.0128(6) 0.3208(5) 0.6196(4)
H14 H -0.0522 0.2445 0.6299
C20 C 0.1721(6) 0.4420(4) 0.5371(4)
C21 C 0.3114(6) 0.4526(4) 0.4619(4)
C22 C -0.0072(5) 0.0119(4) 0.4476(4)
C23 C 0.4963(6) 0.0410(4) 0.5446(3)
N1 N 0.3820(5) 0.3495(4) 0.4128(3)
N2 N 0.1159(5) 0.3299(4) 0.5516(3)
Cd1A Cd 0.74215(4) -0.16874(3) 0.54625(3)
Cd1A_2 Cd -0.25785(4) -0.16874(3) 0.54625(3)
O1A O 0.6038(5) -0.0266(3) 1.1666(3)
O2A O 0.4299(5) -0.1450(3) 1.2533(3)
H1A H 0.4218 -0.0942 1.2993
O3A O 0.2405(4) -0.4547(3) 1.0909(3)
H2A H 0.2157 -0.5214 1.0731
O4A O 0.3133(5) -0.4668(4) 0.9272(3)
O5A O 0.6877(5) -0.2107(4) 0.7301(3)
O6A O 0.7953(4) -0.0848(3) 0.8022(3)
H3A H 0.8457 -0.0740 0.7425
O7A O 0.5939(4) -0.1331(3) 0.4375(2)
O8A O 0.4131(4) -0.0063(3) 0.4062(2)
O9A O -0.0845(4) -0.0802(3) 0.6070(2)
O9A_2 O 0.9155(4) -0.0802(3) 0.6070(2)
O10A O 0.1028(4) 0.0381(3) 0.5778(3)
O10_2 O 0.8972(4) -0.0381(3) 0.4222(3)
C1A C 0.6083(5) -0.1986(4) 0.9047(3)
C2A C 0.6116(6) -0.1408(4) 0.9896(4)
H4A H 0.6753 -0.0793 0.9858
C3A C 0.5195(6) -0.1749(4) 1.0807(3)
C4A C 0.4229(6) -0.2653(4) 1.0873(4)
H5A H 0.3594 -0.2860 1.1483
C5A C 0.4214(6) -0.3252(4) 1.0012(4)
C6A C 0.5129(6) -0.2906(4) 0.9115(4)
H6A H 0.5110 -0.3293 0.8542
C7A C 0.6989(6) -0.1660(5) 0.8049(4)
C8A C 0.5221(6) -0.1075(4) 1.1706(4)
C9A C 0.3197(6) -0.4218(5) 1.0023(4)
C10A C 0.4906(7) -0.3610(5) 0.6566(4)
H7A H 0.4404 -0.2904 0.6900
C11A C 0.4284(7) -0.4726(6) 0.6820(4)
H8A H 0.3404 -0.4766 0.7325
C12A C 0.4977(7) -0.5759(6) 0.6321(5)
H9A H 0.4567 -0.6512 0.6477
C13A C 0.6310(7) -0.5687(5) 0.5572(4)
C14A C 0.7105(8) -0.6719(5) 0.5001(5)
H10A H 0.6729 -0.7488 0.5129
C15A C 0.8385(8) -0.6614(5) 0.4282(5)
H11A H 0.8867 -0.7300 0.3913
C16A C 0.9002(6) -0.5446(5) 0.4088(4)
C17A C 1.0364(7) -0.5321(6) 0.3377(4)
H12A H 1.0880 -0.5996 0.3007
C18A C 1.0919(7) -0.4204(6) 0.3237(4)
H13A H 1.1821 -0.4102 0.2767
C19A C 1.0128(6) -0.3208(5) 0.3804(4)
H14A H 1.0522 -0.2445 0.3701
C20A C 0.8279(6) -0.4420(4) 0.4629(4)
C21A C 0.6886(6) -0.4526(4) 0.5381(4)
C22A C 0.0072(5) -0.0119(4) 0.5524(4)
C23A C 0.5037(6) -0.0410(4) 0.4554(3)
N1A N 0.6180(5) -0.3495(4) 0.5872(3)
N2A N 0.8841(5) -0.3299(4) 0.4484(3)
C24 C 0.9473(6) 0.6964(5) 0.0006(4)
C25 C 0.8760(7) 0.6869(6) 0.1018(5)
H15 H 0.8084 0.6285 0.1267
C26 C 0.9099(9) 0.7671(6) 0.1628(5)
H16 H 0.8634 0.7639 0.2305
C27 C 1.0133(9) 0.8541(6) 0.1253(6)
H17 H 1.0339 0.9063 0.1695
C28 C 1.0843(8) 0.8656(6) 0.0280(6)
H18 H 1.1532 0.9231 0.0039
C29 C 1.0467(7) 0.7848(5) -0.0342(5)
N3 N 0.9349(6) 0.6333(4) -0.0780(4)
N4 N 1.0211(6) 0.6779(5) -0.1586(4)
N5 N 1.0893(6) 0.7689(4) -0.1338(4)
H19 H 1.1518 0.8116 -0.1754
O11 O 0.2543(5) -0.0888(4) 0.7141(3)
H20 H 0.3013 -0.0447 0.7410
H21 H 0.2266 -0.0444 0.6707
loop_
_geom_bond_atom_site_label_1
_geom_bond_atom_site_label_2
_geom_bond_site_symmetry_1
_geom_bond_site_symmetry_2
Cd1 O5 1_555 1_555
O1 C8 1_555 1_555
O2 H1 1_555 1_555
O3 H2 1_555 1_555
O4 C9 1_555 1_555
O5 C7 1_555 1_555
O6 H3 1_555 1_555
O7 Cd1 1_555 1_555
O8 C23 1_555 1_555
O9 Cd1 1_555 1_555
O10 C22 1_555 1_555
C1 C2 1_555 1_555
C2 H4 1_555 1_555
C3 C2 1_555 1_555
C4 C3 1_555 1_555
H5 C4 1_555 1_555
C5 C4 1_555 1_555
C6 C1 1_555 1_555
H6 C6 1_555 1_555
C7 O6 1_555 1_555
C8 O2 1_555 1_555
C9 O3 1_555 1_555
C10 H7 1_555 1_555
C11 C10 1_555 1_555
H8 C11 1_555 1_555
C12 C11 1_555 1_555
H9 C12 1_555 1_555
C13 C12 1_555 1_555
C14 C13 1_555 1_555
H10 C14 1_555 1_555
C15 C14 1_555 1_555
H11 C15 1_555 1_555
C16 C15 1_555 1_555
C17 C16 1_555 1_555
H12 C17 1_555 1_555
C18 C17 1_555 1_555
H13 C18 1_555 1_555
C19 C18 1_555 1_555
H14 C19 1_555 1_555
C20 C16 1_555 1_555
C21 C13 1_555 1_555
C22 O9 1_555 1_555
C23 O7 1_555 1_555
C24 C25 1_555 1_555
C25 H15 1_555 1_555
C26 C25 1_555 1_555
H16 C26 1_555 1_555
C27 C26 1_555 1_555
H17 C27 1_555 1_555
C28 C27 1_555 1_555
H18 C28 1_555 1_555
C29 C24 1_555 1_555
N1 Cd1 1_555 1_555
N2 Cd1 1_555 1_555
N3 C24 1_555 1_555
N4 N3 1_555 1_555
N5 C29 1_555 1_555
H19 N5 1_555 1_555
O11 H20 1_555 1_555
H21 O11 1_555 1_555
Cd1A O8 1_555 1_555
Cd1A_2 O10 1_555 1_555
O1A C8A 1_555 1_555
O2A H1A 1_555 1_555
O3A H2A 1_555 1_555
O4A C9A 1_555 1_555
O5A Cd1A 1_555 1_555
O6A H3A 1_555 1_555
O7A Cd1A 1_555 1_555
O8A Cd1 1_555 1_555
O9A Cd1A_2 1_555 1_555
O9A_2 Cd1A 1_555 1_555
O10A Cd1 1_555 1_555
O10_2 Cd1A 1_555 1_555
C1A C2A 1_555 1_555
C2A H4A 1_555 1_555
C3A C2A 1_555 1_555
C4A C3A 1_555 1_555
H5A C4A 1_555 1_555
C5A C4A 1_555 1_555
C6A C1A 1_555 1_555
H6A C6A 1_555 1_555
C7A O5A 1_555 1_555
C8A O2A 1_555 1_555
C9A O3A 1_555 1_555
C10A H7A 1_555 1_555
C11A C10A 1_555 1_555
H8A C11A 1_555 1_555
C12A C11A 1_555 1_555
H9A C12A 1_555 1_555
C13A C12A 1_555 1_555
C14A C13A 1_555 1_555
H10A C14A 1_555 1_555
C15A C14A 1_555 1_555
H11A C15A 1_555 1_555
C16A C15A 1_555 1_555
C17A C16A 1_555 1_555
H12A C17A 1_555 1_555
C18A C17A 1_555 1_555
H13A C18A 1_555 1_555
C19A C18A 1_555 1_555
H14A C19A 1_555 1_555
C20A C16A 1_555 1_555
C21A C13A 1_555 1_555
C22A C22 1_555 1_555
C23A C23 1_555 1_555
N1A Cd1A 1_555 1_555
N2A Cd1A 1_555 1_555
C1 C7 1_555 1_555
C3 C8 1_555 1_555
C5 C6 1_555 1_555
C5 C9 1_555 1_555
C10 N1 1_555 1_555
C19 N2 1_555 1_555
C20 C21 1_555 1_555
C20 N2 1_555 1_555
C21 N1 1_555 1_555
C28 C29 1_555 1_555
N4 N5 1_555 1_555
O6A C7A 1_555 1_555
O7A C23A 1_555 1_555
O8A C23A 1_555 1_555
O9A C22A 1_555 1_555
O10A C22A 1_555 1_555
C1A C7A 1_555 1_555
C3A C8A 1_555 1_555
C5A C6A 1_555 1_555
C5A C9A 1_555 1_555
C10A N1A 1_555 1_555
C19A N2A 1_555 1_555
C20A C21A 1_555 1_555
C20A N2A 1_555 1_555
C21A N1A 1_555 1_555

#END
