
#######################################################################
#
#                 Cambridge Crystallographic Data Centre
#                                CCDC 
#
#######################################################################
#
# If this CIF has been generated from an entry in the Cambridge 
# Structural Database, then it will include bibliographic, chemical, 
# crystal, experimental, refinement or atomic coordinate data resulting 
# from the CCDC's data processing and validation procedures.
#
#######################################################################

data_DIWDIY
_symmetry_cell_setting           triclinic
_symmetry_space_group_name_H-M   'P -1'
_symmetry_Int_Tables_number      2
_space_group_name_Hall           '-P 1'
loop_
_symmetry_equiv_pos_site_id
_symmetry_equiv_pos_as_xyz
1 x,y,z
2 -x,-y,-z
_cell_length_a                   8.059(2)
_cell_length_b                   10.243(4)
_cell_length_c                   17.378(3)
_cell_angle_alpha                98.88
_cell_angle_beta                 96.736(4)
_cell_angle_gamma                105.14
_cell_volume                     1349.32
loop_
_atom_site_label
_atom_site_type_symbol
_atom_site_fract_x
_atom_site_fract_y
_atom_site_fract_z
Ag1 Ag 0.41580(5) 0.95147(3) 0.41488(2)
O1 O 0.5955(5) 1.1393(3) 0.4055(2)
C1 C 0.7691(6) 1.4021(5) 0.3592(3)
C2 C 0.8949(6) 1.5296(5) 0.3592(3)
C3 C 0.9416(6) 1.6349(5) 0.4291(3)
C4 C 0.7340(6) 1.4906(5) 0.4913(3)
H1 H 0.6786 1.4805 0.5349
C5 C 0.9641(7) 1.5480(5) 0.2887(3)
H2 H 1.0464 1.6303 0.2878
C6 C 0.5650(6) 1.2497(5) 0.4355(3)
C7 C 0.6905(6) 1.3832(5) 0.4284(3)
C8 C 0.7900(7) 1.3215(5) 0.2221(3)
H3 H 0.7565 1.2531 0.1768
C9 C 0.7202(7) 1.2991(5) 0.2883(3)
H4 H 0.6392 1.2153 0.2875
C10 C 0.8595(7) 1.6159(5) 0.4925(3)
H5 H 0.8866 1.6861 0.5368
C11 C 0.9117(7) 1.4467(5) 0.2220(3)
H6 H 0.9576 1.4615 0.1764
O2 O 0.4427(5) 1.2565(4) 0.4722(3)
C12 C 1.0805(6) 1.7695(5) 0.4364(3)
O3 O 1.2169(4) 1.7652(3) 0.4074(2)
O4 O 1.0544(5) 1.8762(3) 0.4725(2)
Ag2 Ag 0.23944(5) 1.09290(4) 0.51699(2)
Ag3 Ag 0.42296(6) 1.53921(4) 0.91478(3)
N1 N 0.3420(6) 1.2055(4) 0.6500(3)
N2 N 0.4167(6) 1.3803(5) 0.7962(3)
C13 C 0.4593(7) 1.3311(5) 0.6637(3)
H7 H 0.5160 1.3601 0.6231
C14 C 0.4972(7) 1.4184(5) 0.7375(3)
C15 C 0.2990(7) 1.2556(5) 0.7824(3)
H8 H 0.2412 1.2280 0.8230
C16 C 0.2603(7) 1.1659(5) 0.7093(3)
C17 C 0.6312(7) 1.5573(5) 0.7516(4)
H9 H 0.7214 1.5629 0.7944
H10 H 0.6809 1.5687 0.7047
H11 H 0.5765 1.6286 0.7649
C18 C 0.1270(9) 1.0275(6) 0.6949(4)
H12 H 0.1728 0.9587 0.6683
H13 H 0.0999 1.0050 0.7445
H14 H 0.0231 1.0302 0.6628
Ag4 Ag 1.36040(5) 2.65078(4) 1.06490(3)
O5 O 1.1614(5) 2.4597(4) 1.0619(2)
C19 C 0.8598(7) 2.2325(5) 0.8544(3)
H15 H 0.9392 2.3171 0.8551
C20 C 0.9792(7) 2.2405(5) 0.9948(3)
C21 C 0.8637(6) 2.1705(5) 0.9229(3)
C22 C 0.9694(7) 2.1831(5) 1.0606(3)
H16 H 1.0442 2.2286 1.1074
C23 C 1.1240(7) 2.3719(5) 0.9989(3)
C24 C 0.7388(6) 1.9824(5) 0.9903(3)
C25 C 0.7446(7) 2.0396(5) 0.9198(3)
C26 C 0.6262(8) 1.9750(5) 0.8485(3)
H17 H 0.5496 1.8881 0.8450
C27 C 0.8463(7) 2.0547(5) 1.0580(3)
H18 H 0.8391 2.0190 1.1039
C28 C 0.7404(8) 2.1681(6) 0.7884(4)
H19 H 0.7364 2.2106 0.7449
C29 C 0.6175(6) 1.8422(5) 0.9918(3)
C30 C 0.6234(9) 2.0385(6) 0.7851(4)
H20 H 0.5433 1.9955 0.7393
O6 O 0.5647(5) 1.8297(4) 1.0558(2)
O7 O 0.5840(5) 1.7507(4) 0.9308(2)
O8 O 1.1982(5) 2.3820(4) 0.9401(2)
Ag1_2 Ag 1.41580(5) 1.95147(3) 0.41488(2)
O3_2 O 0.2169(4) 0.7652(3) 0.4074(2)
O4_2 O 0.0544(5) 0.8762(3) 0.4725(2)
O4A O -0.0544(5) 1.1238(3) 0.5275(2)
Ag2_2 Ag 1.23944(5) 2.09290(4) 0.51699(2)
Ag2A Ag 0.76056(5) 1.90710(4) 0.48301(2)
Ag3_2 Ag 1.42296(6) 2.53921(4) 0.91478(3)
Ag4_2 Ag 0.36040(5) 1.65078(4) 1.06490(3)
O6_2 O 1.5647(5) 2.8297(4) 1.0558(2)
O8_2 O 0.1982(5) 1.3820(4) 0.9401(2)
loop_
_geom_bond_atom_site_label_1
_geom_bond_atom_site_label_2
_geom_bond_site_symmetry_1
_geom_bond_site_symmetry_2
Ag1 O1 1_555 1_555
O1 C6 1_555 1_555
C1 C2 1_555 1_555
C2 C3 1_555 1_555
C3 C10 1_555 1_555
C4 H1 1_555 1_555
C5 C2 1_555 1_555
H2 C5 1_555 1_555
C6 C7 1_555 1_555
C7 C1 1_555 1_555
C8 H3 1_555 1_555
C9 C1 1_555 1_555
H4 C9 1_555 1_555
C10 C4 1_555 1_555
H5 C10 1_555 1_555
C11 C5 1_555 1_555
H6 C11 1_555 1_555
O2 C6 1_555 1_555
C12 C3 1_555 1_555
O3 C12 1_555 1_555
O4 C12 1_555 1_555
Ag2 O2 1_555 1_555
Ag3 N2 1_555 1_555
N1 Ag2 1_555 1_555
N2 C14 1_555 1_555
C13 N1 1_555 1_555
H7 C13 1_555 1_555
C14 C13 1_555 1_555
C15 N2 1_555 1_555
H8 C15 1_555 1_555
C16 N1 1_555 1_555
C17 C14 1_555 1_555
H9 C17 1_555 1_555
H10 C17 1_555 1_555
H11 C17 1_555 1_555
C18 C16 1_555 1_555
H12 C18 1_555 1_555
H13 C18 1_555 1_555
H14 C18 1_555 1_555
Ag4 O5 1_555 1_555
O5 C23 1_555 1_555
C19 H15 1_555 1_555
C20 C21 1_555 1_555
C21 C19 1_555 1_555
C22 C20 1_555 1_555
H16 C22 1_555 1_555
C23 C20 1_555 1_555
C24 C25 1_555 1_555
C25 C21 1_555 1_555
C26 C25 1_555 1_555
H17 C26 1_555 1_555
C27 C22 1_555 1_555
H18 C27 1_555 1_555
C28 C19 1_555 1_555
H19 C28 1_555 1_555
C29 C24 1_555 1_555
C30 C26 1_555 1_555
H20 C30 1_555 1_555
O6 C29 1_555 1_555
O7 Ag3 1_555 1_555
O8 C23 1_555 1_555
Ag1_2 O3 1_555 1_555
O3_2 Ag1 1_555 1_555
O4_2 Ag2 1_555 1_555
O4A Ag2 1_555 1_555
Ag2_2 O4 1_555 1_555
Ag2A O4 1_555 1_555
Ag3_2 O8 1_555 1_555
Ag4_2 O6 1_555 1_555
O6_2 Ag4 1_555 1_555
O8_2 Ag3 1_555 1_555
C4 C7 1_555 1_555
C8 C9 1_555 1_555
C8 C11 1_555 1_555
C15 C16 1_555 1_555
C24 C27 1_555 1_555
C28 C30 1_555 1_555
C29 O7 1_555 1_555

#END
