
#######################################################################
#
#                 Cambridge Crystallographic Data Centre
#                                CCDC 
#
#######################################################################
#
# If this CIF has been generated from an entry in the Cambridge 
# Structural Database, then it will include bibliographic, chemical, 
# crystal, experimental, refinement or atomic coordinate data resulting 
# from the CCDC's data processing and validation procedures.
#
#######################################################################

data_DIWDUJ
_symmetry_cell_setting           monoclinic
_symmetry_space_group_name_H-M   'C 2/c'
_symmetry_Int_Tables_number      15
_space_group_name_Hall           '-C 2yn'
loop_
_symmetry_equiv_pos_site_id
_symmetry_equiv_pos_as_xyz
1 x,y,z
2 1/2+x,1/2+y,z
3 -x,y,1/2-z
4 1/2-x,1/2+y,1/2-z
5 -x,-y,-z
6 1/2-x,1/2-y,-z
7 x,-y,1/2+z
8 1/2+x,1/2-y,1/2+z
_cell_length_a                   27.022(3)
_cell_length_b                   9.1140(10)
_cell_length_c                   17.005(3)
_cell_angle_alpha                90
_cell_angle_beta                 118.116(10)
_cell_angle_gamma                90
_cell_volume                     3693.77
loop_
_atom_site_label
_atom_site_type_symbol
_atom_site_fract_x
_atom_site_fract_y
_atom_site_fract_z
Cu1 Cu 0.169790(16) 0.09634(4) 0.22931(3)
Cl1 Cl 0.10311(4) 0.25791(9) 0.15194(6)
O1 O 0.28267(8) -0.4141(2) 0.36052(13)
O2 O 0.22086(9) 0.2655(2) 0.29922(14)
H1 H 0.2087 0.3386 0.3125
N1 N 0.23205(9) -0.0170(2) 0.31723(15)
N2 N 0.18287(9) -0.2301(2) 0.30686(15)
H2 H 0.1819 -0.3034 0.3379
N3 N 0.27319(9) -0.2043(2) 0.42409(14)
H3 H 0.2855 -0.1546 0.4727
N4 N 0.12651(9) -0.0879(2) 0.17770(16)
C1 C 0.22914(10) -0.1447(3) 0.34590(16)
C2 C 0.28443(11) 0.0666(3) 0.3531(2)
H4 H 0.2977 0.0735 0.3093
H5 H 0.3131 0.0193 0.4061
C3 C 0.27152(12) 0.2173(3) 0.3755(2)
H6 H 0.2661 0.213 0.428
H7 H 0.3021 0.2843 0.3873
C4 C 0.29738(10) -0.3372(3) 0.42650(17)
C5 C 0.13662(10) -0.2149(3) 0.22277(18)
C6 C 0.10217(13) -0.3373(3) 0.1884(2)
H8 H 0.1096 -0.423 0.2218
C7 C 0.05711(15) -0.3294(4) 0.1046(3)
H9 H 0.0332 -0.4092 0.0804
C8 C 0.04787(15) -0.1996(4) 0.0564(3)
H10 H 0.018 -0.1924 -0.0009
C9 C 0.08269(14) -0.0835(4) 0.0938(2)
H11 H 0.0763 0.0022 0.0607
C10 C 0.34260(11) -0.3831(3) 0.51567(18)
C11 C 0.33865(13) -0.5202(3) 0.5464(2)
H12 H 0.308 -0.5799 0.5124
C12 C 0.38024(14) -0.5692(4) 0.6280(2)
H13 H 0.3775 -0.6613 0.649
C13 C 0.42588(13) -0.4807(5) 0.6780(2)
H14 H 0.4537 -0.5129 0.733
C14 C 0.43036(13) -0.3452(5) 0.6466(2)
H15 H 0.4616 -0.2871 0.6801
C15 C 0.38856(12) -0.2939(4) 0.5652(2)
H16 H 0.3914 -0.2015 0.5444
Cu1C Cu 0.330210(16) -0.40366(4) 0.27069(3)
O1C O 0.21733(8) 0.0859(2) 0.13948(13)
Cl2 Cl 0.18137(3) -0.47476(7) -0.09190(5)
O5 O 0.0455(9) -0.436(3) -0.1229(18)
O3? O 0.0407(10) -0.492(2) -0.181(3)
O4? O 0.0136(10) -0.396(2) -0.221(3)
loop_
_geom_bond_atom_site_label_1
_geom_bond_atom_site_label_2
_geom_bond_site_symmetry_1
_geom_bond_site_symmetry_2
Cu1 Cl1 1_555 1_555
O1 C4 1_555 1_555
O2 Cu1 1_555 1_555
H1 O2 1_555 1_555
N1 Cu1 1_555 1_555
N2 H2 1_555 1_555
N3 H3 1_555 1_555
N4 Cu1 1_555 1_555
C1 N1 1_555 1_555
C2 N1 1_555 1_555
H4 C2 1_555 1_555
H5 C2 1_555 1_555
C3 O2 1_555 1_555
H6 C3 1_555 1_555
H7 C3 1_555 1_555
C4 N3 1_555 1_555
C5 N2 1_555 1_555
C6 C5 1_555 1_555
H8 C6 1_555 1_555
C7 C6 1_555 1_555
H9 C7 1_555 1_555
C8 C7 1_555 1_555
H10 C8 1_555 1_555
C9 N4 1_555 1_555
H11 C9 1_555 1_555
C10 C4 1_555 1_555
C11 C10 1_555 1_555
H12 C11 1_555 1_555
C12 C11 1_555 1_555
H13 C12 1_555 1_555
C13 C12 1_555 1_555
H14 C13 1_555 1_555
C14 C13 1_555 1_555
H15 C14 1_555 1_555
C15 C10 1_555 1_555
H16 C15 1_555 1_555
Cu1C O1 1_555 1_555
O1C Cu1 1_555 1_555
N2 C1 1_555 1_555
N3 C1 1_555 1_555
N4 C5 1_555 1_555
C2 C3 1_555 1_555
C8 C9 1_555 1_555
C14 C15 1_555 1_555

#END
