
#######################################################################
#
#                 Cambridge Crystallographic Data Centre
#                                CCDC 
#
#######################################################################
#
# If this CIF has been generated from an entry in the Cambridge 
# Structural Database, then it will include bibliographic, chemical, 
# crystal, experimental, refinement or atomic coordinate data resulting 
# from the CCDC's data processing and validation procedures.
#
#######################################################################

data_DIWLIG
_symmetry_cell_setting           triclinic
_symmetry_space_group_name_H-M   'P -1'
_symmetry_Int_Tables_number      2
_space_group_name_Hall           '-P 1'
loop_
_symmetry_equiv_pos_site_id
_symmetry_equiv_pos_as_xyz
1 x,y,z
2 -x,-y,-z
_cell_length_a                   7.718(5)
_cell_length_b                   10.746(7)
_cell_length_c                   14.428(9)
_cell_angle_alpha                75.375(6)
_cell_angle_beta                 84.595(6)
_cell_angle_gamma                75.848(6)
_cell_volume                     1122.04
loop_
_atom_site_label
_atom_site_type_symbol
_atom_site_fract_x
_atom_site_fract_y
_atom_site_fract_z
Sm1 Sm 0.696739(15) 0.086859(11) 0.336700(8)
N1 N 1.3560(3) -0.3659(2) 0.10011(15)
N2 N 0.2895(3) 0.64755(19) 0.37116(15)
O1 O 0.2180(2) 0.11088(17) 0.54061(13)
O2 O 0.4411(2) 0.13774(18) 0.43330(14)
O3 O -0.0269(2) 0.12918(17) 0.39266(14)
O4 O -0.2619(2) 0.29518(18) 0.36280(15)
O5 O 0.5377(3) 0.95501(18) 0.29192(15)
O6 O 0.9266(3) 0.1464(2) 0.18675(16)
O7 O 0.9237(3) -0.0588(2) 0.25206(15)
O8 O 1.0467(4) 0.2785(2) 0.04385(18)
H1 H 1.0255 0.2334 0.0967
O9 O 1.1861(3) 0.2497(2) -0.09041(17)
O10 O 1.5224(3) -0.76102(18) 0.21477(14)
C1 C 0.9817(4) 0.0243(3) 0.1890(2)
C2 C 1.1184(3) -0.0231(3) 0.11417(18)
C3 C 1.1771(3) -0.1603(3) 0.13412(18)
H2 H 1.1340 -0.2111 0.1895
C4 C 1.2982(3) -0.2232(2) 0.07363(18)
C5 C 1.3635(4) -0.1508(3) -0.00941(19)
H3 H 1.4449 -0.1925 -0.0500
C6 C 1.3048(4) -0.0141(3) -0.03097(19)
H4 H 1.3467 0.0349 -0.0875
C7 C 1.1852(3) 0.0525(2) 0.02903(19)
C8 C 1.1386(4) 0.2023(3) -0.0092(2)
C9 C 1.2344(4) -0.4422(3) 0.1322(2)
H5 H 1.1130 -0.4025 0.1296
C10 C 1.2870(4) -0.5745(3) 0.16781(19)
H6 H 1.2012 -0.6241 0.1874
C11 C 1.4719(4) -0.6387(3) 0.17574(18)
C12 C 1.5935(4) -0.5569(3) 0.1361(2)
H7 H 1.7155 -0.5945 0.1346
C13 C 1.5342(4) -0.4249(3) 0.1005(2)
H8 H 1.6167 -0.3735 0.0758
C14 C 0.2878(3) 0.1745(2) 0.46776(16)
C15 C 0.1857(3) 0.3132(2) 0.42266(16)
C16 C 0.2762(3) 0.4134(2) 0.41665(17)
H9 H 0.3945 0.3914 0.4347
C17 C 0.1912(3) 0.5450(2) 0.38408(17)
C18 C 0.0144(3) 0.5802(2) 0.3577(2)
H10 H -0.0444 0.6686 0.3386
C19 C -0.0725(3) 0.4811(3) 0.3605(2)
H11 H -0.1897 0.5045 0.3407
C20 C 0.0088(3) 0.3471(2) 0.39182(17)
C21 C -0.0982(3) 0.2499(2) 0.38300(17)
C22 C 0.4547(3) 0.6322(2) 0.32484(19)
H12 H 0.5092 0.5512 0.3112
C23 C 0.5400(3) 0.7331(3) 0.2986(2)
H13 H 0.6506 0.7204 0.2663
C24 C 0.4621(3) 0.8587(2) 0.31996(19)
C25 C 0.2938(4) 0.8685(2) 0.37120(19)
H14 H 0.2397 0.9460 0.3899
C26 C 0.2120(3) 0.7666(2) 0.39282(18)
H15 H 0.0996 0.7774 0.4234
Sm1_2 Sm -0.303261(15) 0.086859(11) 0.336700(8)
Sm1_3 Sm 0.696739(15) 1.086859(11) 0.336700(8)
Sm1_4 Sm 1.696739(15) -0.913141(11) 0.336700(8)
Sm1A Sm 0.303261(15) -0.086859(11) 0.663300(8)
O1A O 0.7820(2) -0.11088(17) 0.45939(13)
O3_2 O 0.9731(2) 0.12918(17) 0.39266(14)
O4_2 O 0.7381(2) 0.29518(18) 0.36280(15)
O5_2 O 0.5377(3) -0.04499(18) 0.29192(15)
O10_2 O 0.5224(3) 0.23898(18) 0.21477(14)
loop_
_geom_bond_atom_site_label_1
_geom_bond_atom_site_label_2
_geom_bond_site_symmetry_1
_geom_bond_site_symmetry_2
Sm1 O2 1_555 1_555
N1 C4 1_555 1_555
N2 C17 1_555 1_555
O1 C14 1_555 1_555
O2 C14 1_555 1_555
O3 C21 1_555 1_555
O4 C21 1_555 1_555
O5 C24 1_555 1_555
O6 Sm1 1_555 1_555
O7 Sm1 1_555 1_555
O8 H1 1_555 1_555
O9 C8 1_555 1_555
O10 C11 1_555 1_555
C1 O6 1_555 1_555
C2 C1 1_555 1_555
C3 C2 1_555 1_555
H2 C3 1_555 1_555
C4 C3 1_555 1_555
C5 C4 1_555 1_555
H3 C5 1_555 1_555
C6 C5 1_555 1_555
H4 C6 1_555 1_555
C7 C2 1_555 1_555
C8 O8 1_555 1_555
C9 N1 1_555 1_555
H5 C9 1_555 1_555
C10 C9 1_555 1_555
H6 C10 1_555 1_555
C11 C10 1_555 1_555
C12 C11 1_555 1_555
H7 C12 1_555 1_555
C13 N1 1_555 1_555
H8 C13 1_555 1_555
C14 C15 1_555 1_555
C15 C16 1_555 1_555
C16 H9 1_555 1_555
C17 C16 1_555 1_555
C18 C17 1_555 1_555
H10 C18 1_555 1_555
C19 C18 1_555 1_555
H11 C19 1_555 1_555
C20 C15 1_555 1_555
C21 C20 1_555 1_555
C22 N2 1_555 1_555
H12 C22 1_555 1_555
C23 C22 1_555 1_555
H13 C23 1_555 1_555
C24 C23 1_555 1_555
C25 C24 1_555 1_555
H14 C25 1_555 1_555
C26 N2 1_555 1_555
H15 C26 1_555 1_555
Sm1_2 O3 1_555 1_555
Sm1_3 O5 1_555 1_555
Sm1_4 O10 1_555 1_555
Sm1A O1 1_555 1_555
O1A Sm1 1_555 1_555
O3_2 Sm1 1_555 1_555
O4_2 Sm1 1_555 1_555
O5_2 Sm1 1_555 1_555
O10_2 Sm1 1_555 1_555
O4 Sm1_2 1_555 1_555
O7 C1 1_555 1_555
C6 C7 1_555 1_555
C7 C8 1_555 1_555
C12 C13 1_555 1_555
C19 C20 1_555 1_555
C25 C26 1_555 1_555

#END
