
#######################################################################
#
#                 Cambridge Crystallographic Data Centre
#                                CCDC 
#
#######################################################################
#
# If this CIF has been generated from an entry in the Cambridge 
# Structural Database, then it will include bibliographic, chemical, 
# crystal, experimental, refinement or atomic coordinate data resulting 
# from the CCDC's data processing and validation procedures.
#
#######################################################################

data_DIWXUD01
_symmetry_cell_setting           triclinic
_symmetry_space_group_name_H-M   'P -1'
_symmetry_Int_Tables_number      2
_space_group_name_Hall           '-P 1'
loop_
_symmetry_equiv_pos_site_id
_symmetry_equiv_pos_as_xyz
1 x,y,z
2 -x,-y,-z
_cell_length_a                   15.4705(3)
_cell_length_b                   11.8919(3)
_cell_length_c                   7.8490(2)
_cell_angle_alpha                88.252(2)
_cell_angle_beta                 95.429(2)
_cell_angle_gamma                92.534(2)
_cell_volume                     1435.62
loop_
_atom_site_label
_atom_site_type_symbol
_atom_site_fract_x
_atom_site_fract_y
_atom_site_fract_z
C1 C -0.17735(10) -0.05421(14) 0.6174(2)
H1 H -0.1535 -0.1266 0.6292
C2 C -0.26249(11) -0.04416(14) 0.6508(2)
H2 H -0.2961 -0.1088 0.6832
C3 C -0.29929(10) 0.06142(13) 0.6370(2)
C4 C -0.24511(10) 0.15251(14) 0.5916(2)
H3 H -0.2662 0.2265 0.5837
C5 C -0.16049(10) 0.13461(13) 0.5580(2)
H4 H -0.1251 0.1975 0.5257
C6 C -0.38937(10) 0.07946(14) 0.6697(2)
H5 H -0.4102 0.1533 0.6527
C7 C -0.44415(10) -0.00248(14) 0.7222(2)
H6 H -0.4233 -0.0766 0.7326
C8 C -0.66247(11) -0.07381(15) 0.8706(2)
H7 H -0.694 -0.1386 0.9092
C9 C -0.57982(10) -0.08321(14) 0.8226(2)
H8 H -0.5543 -0.1546 0.8287
C10 C -0.53303(10) 0.01207(14) 0.7646(2)
C11 C -0.57376(10) 0.11498(14) 0.7566(2)
H9 H -0.5447 0.181 0.7156
C12 C -0.65605(10) 0.12068(14) 0.8080(2)
H10 H -0.6831 0.1909 0.805
N1 N -0.12637(8) 0.03303(12) 0.56904(17)
N2 N -0.69825(9) 0.02676(12) 0.86261(17)
H11 H -0.751 0.0318 0.894
O1 O 0.05949(7) 0.13550(9) 0.63675(13)
O2 O -0.01494(7) 0.17130(9) 0.94276(14)
O3 O 0.15663(7) 0.24212(10) 0.88480(14)
O4 O 0.13181(7) 0.01285(9) 0.93016(14)
O5 O -0.15436(7) 0.21464(9) 0.13271(14)
O6 O -0.01731(7) 0.11138(9) 0.29380(14)
V1 V 0.082792(16) 0.14270(2) 0.84740(3)
V2 V -0.079720(16) 0.12522(2) 0.11099(3)
Co1 Co 0.00000 0.00000 0.50000
C1A C 0.17735(10) 0.05421(14) 0.3826(2)
H1A H 0.1535 0.1266 0.3708
C2A C 0.26249(11) 0.04416(14) 0.3492(2)
H2A H 0.2961 0.1088 0.3168
C3A C 0.29929(10) -0.06142(13) 0.3630(2)
C4A C 0.24511(10) -0.15251(14) 0.4084(2)
H3A H 0.2662 -0.2265 0.4163
C5A C 0.16049(10) -0.13461(13) 0.4420(2)
H4A H 0.1251 -0.1975 0.4743
C6A C 0.38937(10) -0.07946(14) 0.3303(2)
H5A H 0.4102 -0.1533 0.3473
C7A C 0.44415(10) 0.00248(14) 0.2778(2)
H6A H 0.4233 0.0766 0.2674
C8A C 0.66247(11) 0.07381(15) 0.1294(2)
H7A H 0.694 0.1386 0.0908
C9A C 0.57982(10) 0.08321(14) 0.1774(2)
H8A H 0.5543 0.1546 0.1713
C10A C 0.53303(10) -0.01207(14) 0.2354(2)
C11A C 0.57376(10) -0.11498(14) 0.2434(2)
H9A H 0.5447 -0.181 0.2844
C12A C 0.65605(10) -0.12068(14) 0.1920(2)
H10A H 0.6831 -0.1909 0.195
N1A N 0.12637(8) -0.03303(12) 0.43096(17)
N2A N 0.69825(9) -0.02676(12) 0.13739(17)
H11A H 0.751 -0.0318 0.106
O1A O -0.05949(7) -0.13550(9) 0.36325(13)
O2_2 O -0.01494(7) 0.17130(9) -0.05724(14)
O2A O 0.01494(7) -0.17130(9) 0.05724(14)
O2A_2 O 0.01494(7) -0.17130(9) 1.05724(14)
O3A O -0.15663(7) -0.24212(10) 0.11520(14)
O4A O -0.13181(7) -0.01285(9) 0.06984(14)
O5A O 0.15436(7) -0.21464(9) 0.86729(14)
O6A O 0.01731(7) -0.11138(9) 0.70620(14)
V1A V -0.082792(16) -0.14270(2) 0.15260(3)
V1A_2 V -0.082792(16) -0.14270(2) 1.15260(3)
V2A V 0.079720(16) -0.12522(2) 0.88901(3)
V2_2 V -0.079720(16) 0.12522(2) 1.11099(3)
C13 C -0.33427(10) 0.42609(14) 0.3631(2)
H12 H -0.3684 0.3582 0.3473
C14 C -0.24841(11) 0.42722(14) 0.3270(2)
H13 H -0.2246 0.3616 0.2877
C15 C -0.19713(10) 0.52693(14) 0.3493(2)
C16 C -0.23722(10) 0.62070(14) 0.4035(2)
H14 H -0.2054 0.6905 0.4175
C17 C -0.32336(10) 0.61142(14) 0.4365(2)
H15 H -0.3494 0.6762 0.4734
C18 C -0.10550(10) 0.53797(14) 0.3161(2)
H16 H -0.0783 0.6111 0.3222
C19 C -0.05700(10) 0.45319(15) 0.2779(2)
H17 H -0.0826 0.3791 0.2793
C20 C 0.16519(10) 0.38224(14) 0.1797(2)
H18 H 0.1987 0.3174 0.1764
C21 C 0.08223(10) 0.37201(14) 0.2296(2)
H19 H 0.0586 0.3001 0.261
C22 C 0.03281(10) 0.46706(14) 0.2342(2)
C23 C 0.07084(11) 0.57213(14) 0.1883(2)
H20 H 0.0392 0.6386 0.1913
C24 C 0.15398(11) 0.57811(15) 0.1392(2)
H21 H 0.1799 0.6487 0.1076
N3 N -0.37208(9) 0.51578(12) 0.41921(17)
N4 N 0.19863(9) 0.48328(12) 0.13601(17)
H22 H 0.2517 0.4883 0.104
O7 O -0.33280(7) 0.28793(9) 0.90040(15)
O8 O -0.63073(7) 0.48736(9) 0.07031(14)
O9 O -0.65425(7) 0.25545(9) 0.13777(15)
O10 O -0.49815(8) 0.32387(10) 0.00179(15)
O11 O -0.53350(7) 0.37274(10) 0.33434(14)
O12 O -0.45153(8) 0.37413(9) 0.66978(14)
V3 V -0.579621(16) 0.35622(2) 0.13713(3)
V4 V -0.413020(16) 0.37209(2) 0.87449(3)
Co2 Co -0.5 0.50000 0.50000
C13A C -0.66573(10) 0.57391(14) 0.6369(2)
H12A H -0.6316 0.6418 0.6527
C14A C -0.75159(11) 0.57278(14) 0.6730(2)
H13A H -0.7754 0.6384 0.7123
C15A C -0.80287(10) 0.47307(14) 0.6507(2)
C16A C -0.76278(10) 0.37930(14) 0.5965(2)
H14A H -0.7946 0.3095 0.5825
C17A C -0.67664(10) 0.38858(14) 0.5635(2)
H15A H -0.6506 0.3238 0.5266
C18A C -0.89450(10) 0.46203(14) 0.6839(2)
H16A H -0.9217 0.3889 0.6778
C19A C -0.94300(10) 0.54681(15) 0.7221(2)
H17A H -0.9174 0.6209 0.7207
C20A C -1.16519(10) 0.61776(14) 0.8203(2)
H18A H -1.1987 0.6826 0.8236
C21A C -1.08223(10) 0.62799(14) 0.7704(2)
H19A H -1.0586 0.6999 0.739
C22A C -1.03281(10) 0.53294(14) 0.7658(2)
C23A C -1.07084(11) 0.42787(14) 0.8117(2)
H20A H -1.0392 0.3614 0.8087
C24A C -1.15398(11) 0.42189(15) 0.8608(2)
H21A H -1.1799 0.3513 0.8924
N3A N -0.62792(9) 0.48422(12) 0.58079(17)
N4A N -1.19863(9) 0.51672(12) 0.86399(17)
H22A H -1.2517 0.5117 0.896
O7A O -0.66720(7) 0.71207(9) 0.09960(15)
O8A O -0.36927(7) 0.51264(9) 0.92969(14)
O9A O -0.34575(7) 0.74455(9) 0.86223(15)
O10_2 O -0.49815(8) 0.32387(10) 1.00179(15)
O10A O -0.50185(8) 0.67613(10) 0.99821(15)
O10A_2 O -0.50185(8) 0.67613(10) -0.00179(15)
O11A O -0.46650(7) 0.62726(10) 0.66566(14)
O12A O -0.54847(8) 0.62587(9) 0.33022(14)
V3A V -0.420379(16) 0.64378(2) 0.86287(3)
V3A_2 V -0.420379(16) 0.64378(2) -0.13713(3)
V4A V -0.586980(16) 0.62791(2) 0.12551(3)
V4_2 V -0.413020(16) 0.37209(2) -0.12551(3)
loop_
_geom_bond_atom_site_label_1
_geom_bond_atom_site_label_2
_geom_bond_site_symmetry_1
_geom_bond_site_symmetry_2
C1 H1 1_555 1_555
C2 C1 1_555 1_555
H2 C2 1_555 1_555
C3 C2 1_555 1_555
C4 C3 1_555 1_555
H3 C4 1_555 1_555
C5 C4 1_555 1_555
H4 C5 1_555 1_555
C6 C3 1_555 1_555
H5 C6 1_555 1_555
C7 C6 1_555 1_555
H6 C7 1_555 1_555
C8 H7 1_555 1_555
C9 C8 1_555 1_555
H8 C9 1_555 1_555
C10 C7 1_555 1_555
C11 C10 1_555 1_555
H9 C11 1_555 1_555
C12 C11 1_555 1_555
H10 C12 1_555 1_555
N1 C1 1_555 1_555
N2 C8 1_555 1_555
H11 N2 1_555 1_555
O1 V1 1_555 1_555
O2 V1 1_555 1_555
O3 V1 1_555 1_555
O4 V1 1_555 1_555
O5 V2 1_555 1_555
O6 V2 1_555 1_555
V2 O2_2 1_555 1_555
Co1 N1 1_555 1_555
C13 H12 1_555 1_555
C14 C13 1_555 1_555
H13 C14 1_555 1_555
C15 C14 1_555 1_555
C16 C15 1_555 1_555
H14 C16 1_555 1_555
C17 C16 1_555 1_555
H15 C17 1_555 1_555
C18 C15 1_555 1_555
H16 C18 1_555 1_555
C19 C18 1_555 1_555
H17 C19 1_555 1_555
C20 H18 1_555 1_555
C21 C20 1_555 1_555
H19 C21 1_555 1_555
C22 C19 1_555 1_555
C23 C22 1_555 1_555
H20 C23 1_555 1_555
C24 C23 1_555 1_555
H21 C24 1_555 1_555
N3 C13 1_555 1_555
N4 C20 1_555 1_555
H22 N4 1_555 1_555
O7 V4 1_555 1_555
O8 V3 1_555 1_555
O9 V3 1_555 1_555
O10 V3 1_555 1_555
O11 V3 1_555 1_555
O12 V4 1_555 1_555
V4 O8A 1_555 1_555
Co2 N3 1_555 1_555
C1A H1A 1_555 1_555
C2A C1A 1_555 1_555
H2A C2A 1_555 1_555
C3A C2A 1_555 1_555
C4A C3A 1_555 1_555
H3A C4A 1_555 1_555
C5A C4A 1_555 1_555
H4A C5A 1_555 1_555
C6A C3A 1_555 1_555
H5A C6A 1_555 1_555
C7A C6A 1_555 1_555
H6A C7A 1_555 1_555
C8A H7A 1_555 1_555
C9A C8A 1_555 1_555
H8A C9A 1_555 1_555
C10A C7A 1_555 1_555
C11A C10A 1_555 1_555
H9A C11A 1_555 1_555
C12A C11A 1_555 1_555
H10A C12A 1_555 1_555
N1A Co1 1_555 1_555
N2A C8A 1_555 1_555
H11A N2A 1_555 1_555
O1A Co1 1_555 1_555
O2A V1A 1_555 1_555
O2A_2 V1A_2 1_555 1_555
O3A V1A 1_555 1_555
O4A V2 1_555 1_555
O5A V2A 1_555 1_555
O6A Co1 1_555 1_555
V1A O1A 1_555 1_555
V2A O4 1_555 1_555
V2_2 O2 1_555 1_555
C13A H12A 1_555 1_555
C14A C13A 1_555 1_555
H13A C14A 1_555 1_555
C15A C14A 1_555 1_555
C16A C15A 1_555 1_555
H14A C16A 1_555 1_555
C17A C16A 1_555 1_555
H15A C17A 1_555 1_555
C18A C15A 1_555 1_555
H16A C18A 1_555 1_555
C19A C18A 1_555 1_555
H17A C19A 1_555 1_555
C20A H18A 1_555 1_555
C21A C20A 1_555 1_555
H19A C21A 1_555 1_555
C22A C19A 1_555 1_555
C23A C22A 1_555 1_555
H20A C23A 1_555 1_555
C24A C23A 1_555 1_555
H21A C24A 1_555 1_555
N3A Co2 1_555 1_555
N4A C20A 1_555 1_555
H22A N4A 1_555 1_555
O7A V4A 1_555 1_555
O8A V3A 1_555 1_555
O9A V3A 1_555 1_555
O10_2 V4 1_555 1_555
O10A V3A 1_555 1_555
O10A_2 V3A_2 1_555 1_555
O11A Co2 1_555 1_555
O12A Co2 1_555 1_555
V3A O11A 1_555 1_555
V4A O8 1_555 1_555
V4_2 O10 1_555 1_555
C5 N1 1_555 1_555
C9 C10 1_555 1_555
C12 N2 1_555 1_555
O1 Co1 1_555 1_555
O6 Co1 1_555 1_555
C17 N3 1_555 1_555
C21 C22 1_555 1_555
C24 N4 1_555 1_555
O11 Co2 1_555 1_555
O12 Co2 1_555 1_555
C1A N1A 1_555 1_555
C5A N1A 1_555 1_555
C9A C10A 1_555 1_555
C12A N2A 1_555 1_555
O2A_2 V2A 1_555 1_555
O4A V1A 1_555 1_555
O6A V2A 1_555 1_555
C13A N3A 1_555 1_555
C17A N3A 1_555 1_555
C21A C22A 1_555 1_555
C24A N4A 1_555 1_555
O10A_2 V4A 1_555 1_555
O12A V4A 1_555 1_555

#END
