
#######################################################################
#
#                 Cambridge Crystallographic Data Centre
#                                CCDC 
#
#######################################################################
#
# If this CIF has been generated from an entry in the Cambridge 
# Structural Database, then it will include bibliographic, chemical, 
# crystal, experimental, refinement or atomic coordinate data resulting 
# from the CCDC's data processing and validation procedures.
#
#######################################################################

data_DIWXUD02
_symmetry_cell_setting           triclinic
_symmetry_space_group_name_H-M   'P -1'
_symmetry_Int_Tables_number      2
_space_group_name_Hall           '-P 1'
loop_
_symmetry_equiv_pos_site_id
_symmetry_equiv_pos_as_xyz
1 x,y,z
2 -x,-y,-z
_cell_length_a                   15.4905(17)
_cell_length_b                   12.0219(9)
_cell_length_c                   7.8804(7)
_cell_angle_alpha                88.690(8)
_cell_angle_beta                 95.030(9)
_cell_angle_gamma                90.906(8)
_cell_volume                     1461.36
loop_
_atom_site_label
_atom_site_type_symbol
_atom_site_fract_x
_atom_site_fract_y
_atom_site_fract_z
N1 N -0.1277(6) 0.0269(10) 0.5743(11)
C1 C -0.1737(9) -0.0650(13) 0.6232(16)
H1 H -0.1476 -0.1342 0.6348
C2 C -0.2610(8) -0.0532(12) 0.6556(16)
H2 H -0.2934 -0.1158 0.6832
C3 C -0.2990(8) 0.0496(12) 0.6470(14)
C4 C -0.2496(9) 0.1402(13) 0.6012(16)
H3 H -0.2734 0.2109 0.5938
C5 C -0.1641(8) 0.1255(13) 0.5660(15)
H4 H -0.1316 0.1873 0.5357
C6 C -0.3909(7) 0.0672(12) 0.6823(14)
H5 H -0.4115 0.1396 0.6779
C7 C -0.4446(7) -0.0147(14) 0.7194(15)
H6 H -0.4245 -0.087 0.7156
N2 N -0.6979(7) 0.0141(11) 0.8605(11)
H7 H -0.7494 0.0191 0.8917
C8 C -0.6657(9) -0.0853(15) 0.8493(19)
H8 H -0.6987 -0.1485 0.8709
C9 C -0.5827(8) -0.0946(13) 0.8053(17)
H9 H -0.5584 -0.1646 0.8011
C10 C -0.5343(8) -0.0005(12) 0.7666(15)
C11 C -0.5727(8) 0.1018(12) 0.7745(16)
H10 H -0.5433 0.1665 0.7452
C12 C -0.6554(9) 0.1071(14) 0.8265(16)
H11 H -0.6811 0.1757 0.8375
O1 O 0.0541(5) 0.1316(8) 0.6457(8)
O2 O -0.0095(6) 0.1719(8) 0.9598(9)
O3 O 0.1597(5) 0.2305(8) 0.8854(10)
O4 O 0.1309(5) 0.0044(7) 0.9249(10)
O5 O -0.1537(5) 0.2204(8) 0.1339(10)
O6 O -0.0225(5) 0.1173(8) 0.3055(8)
V1 V 0.08313(11) 0.13717(18) 0.8536(2)
V2 V -0.07891(11) 0.12954(18) 0.1200(2)
Co1 Co 0.00000 0.00000 0.5000
N1A N 0.1277(6) -0.0269(10) 0.4257(11)
C1A C 0.1737(9) 0.0650(13) 0.3768(16)
H1A H 0.1476 0.1342 0.3652
C2A C 0.2610(8) 0.0532(12) 0.3444(16)
H2A H 0.2934 0.1158 0.3168
C3A C 0.2990(8) -0.0496(12) 0.3530(14)
C4A C 0.2496(9) -0.1402(13) 0.3988(16)
H3A H 0.2734 -0.2109 0.4062
C5A C 0.1641(8) -0.1255(13) 0.4340(15)
H4A H 0.1316 -0.1873 0.4643
C6A C 0.3909(7) -0.0672(12) 0.3177(14)
H5A H 0.4115 -0.1396 0.3221
C7A C 0.4446(7) 0.0147(14) 0.2806(15)
H6A H 0.4245 0.087 0.2844
N2A N 0.6979(7) -0.0141(11) 0.1395(11)
H7A H 0.7494 -0.0191 0.1083
C8A C 0.6657(9) 0.0853(15) 0.1507(19)
H8A H 0.6987 0.1485 0.1291
C9A C 0.5827(8) 0.0946(13) 0.1947(17)
H9A H 0.5584 0.1646 0.1989
C10A C 0.5343(8) 0.0005(12) 0.2334(15)
C11A C 0.5727(8) -0.1018(12) 0.2255(16)
H10A H 0.5433 -0.1665 0.2548
C12A C 0.6554(9) -0.1071(14) 0.1735(16)
H11A H 0.6811 -0.1757 0.1625
O1A O -0.0541(5) -0.1316(8) 0.3543(8)
O2_2 O -0.0095(6) 0.1719(8) -0.0402(9)
O2A O 0.0095(6) -0.1719(8) 0.0402(9)
O2A_2 O 0.0095(6) -0.1719(8) 1.0402(9)
O3A O -0.1597(5) -0.2305(8) 0.1146(10)
O4A O -0.1309(5) -0.0044(7) 0.0751(10)
O5A O 0.1537(5) -0.2204(8) 0.8661(10)
O6A O 0.0225(5) -0.1173(8) 0.6945(8)
V1A V -0.08313(11) -0.13717(18) 0.1464(2)
V1A_2 V -0.08313(11) -0.13717(18) 1.1464(2)
V2A V 0.07891(11) -0.12954(18) 0.8800(2)
V2_2 V -0.07891(11) 0.12954(18) 1.1200(2)
N3 N -0.3721(6) 0.5155(11) 0.4223(11)
C13 C -0.3292(8) 0.4287(15) 0.3723(17)
H12 H -0.3594 0.3613 0.3638
C14 C -0.2449(8) 0.4289(14) 0.3321(17)
H13 H -0.2198 0.3649 0.2958
C15 C -0.1984(8) 0.5282(14) 0.3476(14)
C16 C -0.2425(8) 0.6204(14) 0.3946(15)
H14 H -0.2142 0.6891 0.403
C17 C -0.3285(9) 0.6107(13) 0.4291(15)
H15 H -0.3568 0.6743 0.4584
C18 C -0.1073(9) 0.5441(14) 0.3109(16)
H16 H -0.0843 0.6161 0.3128
C19 C -0.0566(8) 0.4625(16) 0.2756(16)
H17 H -0.0796 0.3906 0.2758
N4 N 0.1981(6) 0.4913(11) 0.1400(12)
H18 H 0.2504 0.4955 0.1115
C20 C 0.1642(8) 0.3898(15) 0.1692(17)
H19 H 0.196 0.326 0.1561
C21 C 0.0814(8) 0.3825(14) 0.2188(17)
H20 H 0.057 0.3131 0.2412
C22 C 0.0340(8) 0.4776(13) 0.2359(15)
C23 C 0.0716(9) 0.5795(15) 0.2009(16)
H21 H 0.0407 0.6446 0.2096
C24 C 0.1562(9) 0.5847(15) 0.1524(17)
H22 H 0.1823 0.6529 0.1292
O7 O -0.3363(5) 0.2849(8) 0.8952(11)
O8 O -0.6305(5) 0.4939(7) 0.0744(9)
O9 O -0.6525(5) 0.2657(8) 0.1390(10)
O10 O -0.5012(6) 0.3275(9) -0.0088(11)
O11 O -0.5279(5) 0.3762(9) 0.3278(9)
O12 O -0.4506(5) 0.3726(8) 0.6650(8)
V3 V -0.57856(11) 0.36177(18) 0.1343(2)
V4 V -0.41483(11) 0.37059(19) 0.8681(2)
Co2 Co -0.5 0.50000 0.5000
N3A N -0.6279(6) 0.4845(11) 0.5777(11)
C13A C -0.6708(8) 0.5713(15) 0.6277(17)
H12A H -0.6406 0.6387 0.6362
C14A C -0.7551(8) 0.5711(14) 0.6679(17)
H13A H -0.7802 0.6351 0.7042
C15A C -0.8016(8) 0.4718(14) 0.6524(14)
C16A C -0.7575(8) 0.3796(14) 0.6054(15)
H14A H -0.7858 0.3109 0.597
C17A C -0.6715(9) 0.3893(13) 0.5709(15)
H15A H -0.6432 0.3257 0.5416
C18A C -0.8927(9) 0.4559(14) 0.6891(16)
H16A H -0.9157 0.3839 0.6872
C19A C -0.9434(8) 0.5375(16) 0.7244(16)
H17A H -0.9204 0.6094 0.7242
N4A N -1.1981(6) 0.5087(11) 0.8600(12)
H18A H -1.2504 0.5045 0.8885
C20A C -1.1642(8) 0.6102(15) 0.8308(17)
H19A H -1.196 0.674 0.8439
C21A C -1.0814(8) 0.6175(14) 0.7812(17)
H20A H -1.057 0.6869 0.7588
C22A C -1.0340(8) 0.5224(13) 0.7641(15)
C23A C -1.0716(9) 0.4205(15) 0.7991(16)
H21A H -1.0407 0.3554 0.7904
C24A C -1.1562(9) 0.4153(15) 0.8476(17)
H22A H -1.1823 0.3471 0.8708
O7A O -0.6637(5) 0.7151(8) 0.1048(11)
O8A O -0.3695(5) 0.5061(7) 0.9256(9)
O9A O -0.3475(5) 0.7343(8) 0.8610(10)
O10_2 O -0.5012(6) 0.3275(9) 0.9912(11)
O10A O -0.4988(6) 0.6725(9) 1.0088(11)
O10A_2 O -0.4988(6) 0.6725(9) 0.0088(11)
O11A O -0.4721(5) 0.6238(9) 0.6722(9)
O12A O -0.5494(5) 0.6274(8) 0.3350(8)
V3A V -0.42144(11) 0.63823(18) 0.8657(2)
V3A_2 V -0.42144(11) 0.63823(18) -0.1343(2)
V4A V -0.58517(11) 0.62941(19) 0.1319(2)
V4_2 V -0.41483(11) 0.37059(19) -0.1319(2)
loop_
_geom_bond_atom_site_label_1
_geom_bond_atom_site_label_2
_geom_bond_site_symmetry_1
_geom_bond_site_symmetry_2
N1 C1 1_555 1_555
C1 H1 1_555 1_555
C2 C1 1_555 1_555
H2 C2 1_555 1_555
C3 C2 1_555 1_555
C4 C3 1_555 1_555
H3 C4 1_555 1_555
C5 N1 1_555 1_555
H4 C5 1_555 1_555
C6 C3 1_555 1_555
H5 C6 1_555 1_555
C7 C6 1_555 1_555
H6 C7 1_555 1_555
N2 H7 1_555 1_555
C8 N2 1_555 1_555
H8 C8 1_555 1_555
C9 C8 1_555 1_555
H9 C9 1_555 1_555
C10 C7 1_555 1_555
C11 C10 1_555 1_555
H10 C11 1_555 1_555
C12 N2 1_555 1_555
H11 C12 1_555 1_555
O1 V1 1_555 1_555
O2 V1 1_555 1_555
O3 V1 1_555 1_555
O4 V1 1_555 1_555
O5 V2 1_555 1_555
O6 V2 1_555 1_555
V2 O2_2 1_555 1_555
Co1 N1 1_555 1_555
N3 C13 1_555 1_555
C13 H12 1_555 1_555
C14 C13 1_555 1_555
H13 C14 1_555 1_555
C15 C14 1_555 1_555
C16 C15 1_555 1_555
H14 C16 1_555 1_555
C17 N3 1_555 1_555
H15 C17 1_555 1_555
C18 C15 1_555 1_555
H16 C18 1_555 1_555
C19 C18 1_555 1_555
H17 C19 1_555 1_555
N4 H18 1_555 1_555
C20 N4 1_555 1_555
H19 C20 1_555 1_555
C21 C20 1_555 1_555
H20 C21 1_555 1_555
C22 C19 1_555 1_555
C23 C22 1_555 1_555
H21 C23 1_555 1_555
C24 N4 1_555 1_555
H22 C24 1_555 1_555
O7 V4 1_555 1_555
O8 V3 1_555 1_555
O9 V3 1_555 1_555
O10 V3 1_555 1_555
O11 V3 1_555 1_555
O12 V4 1_555 1_555
V4 O8A 1_555 1_555
Co2 N3 1_555 1_555
N1A Co1 1_555 1_555
C1A N1A 1_555 1_555
H1A C1A 1_555 1_555
C2A C1A 1_555 1_555
H2A C2A 1_555 1_555
C3A C2A 1_555 1_555
C4A C3A 1_555 1_555
H3A C4A 1_555 1_555
C5A N1A 1_555 1_555
H4A C5A 1_555 1_555
C6A C3A 1_555 1_555
H5A C6A 1_555 1_555
C7A C6A 1_555 1_555
H6A C7A 1_555 1_555
N2A H7A 1_555 1_555
C8A N2A 1_555 1_555
H8A C8A 1_555 1_555
C9A C8A 1_555 1_555
H9A C9A 1_555 1_555
C10A C7A 1_555 1_555
C11A C10A 1_555 1_555
H10A C11A 1_555 1_555
C12A N2A 1_555 1_555
H11A C12A 1_555 1_555
O1A Co1 1_555 1_555
O2A V1A 1_555 1_555
O2A_2 V1A_2 1_555 1_555
O3A V1A 1_555 1_555
O4A V2 1_555 1_555
O5A V2A 1_555 1_555
O6A Co1 1_555 1_555
V1A O1A 1_555 1_555
V2A O4 1_555 1_555
V2_2 O2 1_555 1_555
N3A Co2 1_555 1_555
C13A N3A 1_555 1_555
H12A C13A 1_555 1_555
C14A C13A 1_555 1_555
H13A C14A 1_555 1_555
C15A C14A 1_555 1_555
C16A C15A 1_555 1_555
H14A C16A 1_555 1_555
C17A N3A 1_555 1_555
H15A C17A 1_555 1_555
C18A C15A 1_555 1_555
H16A C18A 1_555 1_555
C19A C18A 1_555 1_555
H17A C19A 1_555 1_555
N4A H18A 1_555 1_555
C20A N4A 1_555 1_555
H19A C20A 1_555 1_555
C21A C20A 1_555 1_555
H20A C21A 1_555 1_555
C22A C19A 1_555 1_555
C23A C22A 1_555 1_555
H21A C23A 1_555 1_555
C24A N4A 1_555 1_555
H22A C24A 1_555 1_555
O7A V4A 1_555 1_555
O8A V3A 1_555 1_555
O9A V3A 1_555 1_555
O10_2 V4 1_555 1_555
O10A V3A 1_555 1_555
O10A_2 V3A_2 1_555 1_555
O11A Co2 1_555 1_555
O12A Co2 1_555 1_555
V3A O11A 1_555 1_555
V4A O8 1_555 1_555
V4_2 O10 1_555 1_555
C4 C5 1_555 1_555
C9 C10 1_555 1_555
C11 C12 1_555 1_555
O1 Co1 1_555 1_555
O6 Co1 1_555 1_555
C16 C17 1_555 1_555
C21 C22 1_555 1_555
C23 C24 1_555 1_555
O11 Co2 1_555 1_555
O12 Co2 1_555 1_555
C4A C5A 1_555 1_555
C9A C10A 1_555 1_555
C11A C12A 1_555 1_555
O2A_2 V2A 1_555 1_555
O4A V1A 1_555 1_555
O6A V2A 1_555 1_555
C16A C17A 1_555 1_555
C21A C22A 1_555 1_555
C23A C24A 1_555 1_555
O10A_2 V4A 1_555 1_555
O12A V4A 1_555 1_555

#END
