
#######################################################################
#
#                 Cambridge Crystallographic Data Centre
#                                CCDC 
#
#######################################################################
#
# If this CIF has been generated from an entry in the Cambridge 
# Structural Database, then it will include bibliographic, chemical, 
# crystal, experimental, refinement or atomic coordinate data resulting 
# from the CCDC's data processing and validation procedures.
#
#######################################################################

data_DIXBET
_symmetry_cell_setting           monoclinic
_symmetry_space_group_name_H-M   'P 21/n'
_symmetry_Int_Tables_number      14
_space_group_name_Hall           '-P 2yn'
loop_
_symmetry_equiv_pos_site_id
_symmetry_equiv_pos_as_xyz
1 x,y,z
2 1/2-x,1/2+y,1/2-z
3 -x,-y,-z
4 1/2+x,1/2-y,1/2+z
_cell_length_a                   15.2938(9)
_cell_length_b                   6.8601(3)
_cell_length_c                   17.8075(10)
_cell_angle_alpha                90
_cell_angle_beta                 99.996(5)
_cell_angle_gamma                90
_cell_volume                     1839.95
loop_
_atom_site_label
_atom_site_type_symbol
_atom_site_fract_x
_atom_site_fract_y
_atom_site_fract_z
Rb1 Rb 0.84018(3) -0.11232(6) 0.71945(2)
Rb2 Rb 0.90021(3) 0.21443(7) 0.54097(3)
O1 O 0.8411(2) 0.3229(4) 0.68713(19)
O2 O 0.8861(2) -0.2009(5) 0.5656(2)
O3 O 0.26528(19) 0.4400(4) 0.47291(17)
O4 O 1.01609(19) 0.4261(4) 0.26964(17)
O5 O 0.29906(19) 0.4056(4) 0.35752(16)
O6 O 0.9810(2) 0.4779(5) 0.38434(17)
O7 O 0.7146(2) 0.0750(5) 0.5397(2)
O8 O 0.5388(2) 0.4326(5) 0.20204(19)
O9 O 0.6701(2) 0.1017(5) 0.64817(19)
O10 O 0.5826(2) 0.4724(5) 0.09497(19)
N1 N 0.4616(3) 0.2771(6) 0.3444(2)
N2 N 0.8117(3) 0.4663(6) 0.3981(2)
N3 N 0.6588(2) 0.1193(5) 0.5785(2)
N4 N 0.5972(2) 0.4538(5) 0.1643(2)
C1 C 0.4092(3) 0.3222(6) 0.4651(2)
C2 C 0.8639(3) 0.4516(6) 0.2769(2)
C3 C 0.4746(3) 0.2689(6) 0.4225(2)
C4 C 0.7949(3) 0.4594(6) 0.3196(2)
C5 C 0.5580(3) 0.2062(6) 0.4619(2)
C6 C 0.7072(3) 0.4573(6) 0.2809(2)
C7 C 0.5716(3) 0.1917(6) 0.5395(2)
C8 C 0.6909(3) 0.4514(6) 0.2033(2)
C9 C 0.5086(3) 0.2394(6) 0.5834(3)
C10 C 0.7571(3) 0.4458(6) 0.1594(2)
C11 C 0.4284(3) 0.3055(6) 0.5442(2)
C12 C 0.8427(3) 0.4444(6) 0.1980(2)
C13 C 0.3177(3) 0.3931(6) 0.4292(3)
C14 C 0.9617(3) 0.4523(6) 0.3130(3)
H1 H 0.60430 0.17440 0.43460
H2 H 0.51990 0.22740 0.63740
H3 H 0.65930 0.45980 0.30860
H4 H 0.74390 0.44300 0.10520
H5 H 0.38380 0.34160 0.57260
H6 H 0.88960 0.43830 0.16940
H7 H 0.882(2) 0.414(5) 0.695(3)
H8 H 0.796(2) 0.404(5) 0.671(3)
H9 H 0.4027(14) 0.282(6) 0.325(2)
H10 H 0.771(2) 0.503(6) 0.426(2)
H11 H 0.839(2) -0.278(6) 0.553(3)
H12 H 0.500(2) 0.195(5) 0.323(2)
H13 H 0.8686(15) 0.503(6) 0.412(3)
H14 H 0.927(3) -0.292(6) 0.573(3)
Rb1A Rb 0.65982(3) 0.38768(6) 0.78055(2)
Rb1B Rb 0.15982(3) 0.11232(6) 0.28055(2)
Rb1B_2 Rb 1.15982(3) 0.11232(6) 0.28055(2)
Rb1C Rb 0.34018(3) 0.61232(6) 0.21945(2)
Rb2A Rb 0.59979(3) 0.71443(7) -0.04097(3)
Rb2B Rb 0.09979(3) 0.78557(7) 0.45903(3)
Rb2B_2 Rb 1.09979(3) 0.78557(7) 0.45903(3)
Rb2C Rb 0.40021(3) 0.28557(7) 0.04097(3)
O3B O 0.73472(19) 0.5600(4) 0.52709(17)
O4B O 0.98391(19) -0.4261(4) 0.73036(17)
O5B O 0.70094(19) -0.4056(4) 0.64248(16)
O5C O 0.79906(19) 0.0944(4) 0.85752(16)
O6B O 1.0190(2) 0.5221(5) 0.61566(17)
O8C O 1.0388(2) 0.0674(5) 0.70204(19)
O9A O 0.8299(2) -0.3983(5) 0.85183(19)
O10A O 0.9174(2) -0.0276(5) 0.40503(19)
O10C O 1.0826(2) 0.0276(5) 0.59497(19)
N1C N 0.9616(3) 0.2229(6) 0.8444(2)
loop_
_geom_bond_atom_site_label_1
_geom_bond_atom_site_label_2
_geom_bond_site_symmetry_1
_geom_bond_site_symmetry_2
Rb1 O1 1_555 1_555
Rb2 O1 1_555 1_555
O1 H7 1_555 1_555
O2 Rb1 1_555 1_555
O3 C13 1_555 1_555
O4 C14 1_555 1_555
O5 C13 1_555 1_555
O6 C14 1_555 1_555
O7 Rb2 1_555 1_555
O8 N4 1_555 1_555
O9 Rb1 1_555 1_555
O10 N4 1_555 1_555
N1 C3 1_555 1_555
N2 Rb2 1_555 1_555
N3 O7 1_555 1_555
N4 C8 1_555 1_555
C1 C3 1_555 1_555
C2 C4 1_555 1_555
C3 C5 1_555 1_555
C4 N2 1_555 1_555
C5 C7 1_555 1_555
C6 C4 1_555 1_555
C7 N3 1_555 1_555
C8 C6 1_555 1_555
C9 C7 1_555 1_555
C10 C8 1_555 1_555
C11 C1 1_555 1_555
C12 C2 1_555 1_555
C13 C1 1_555 1_555
C14 C2 1_555 1_555
H1 C5 1_555 1_555
H2 C9 1_555 1_555
H3 C6 1_555 1_555
H4 C10 1_555 1_555
H5 C11 1_555 1_555
H6 C12 1_555 1_555
H8 O1 1_555 1_555
H9 N1 1_555 1_555
H10 N2 1_555 1_555
H11 O2 1_555 1_555
H12 N1 1_555 1_555
H13 N2 1_555 1_555
H14 O2 1_555 1_555
Rb1A O9 1_555 1_555
Rb1B O5 1_555 1_555
Rb1B_2 O4 1_555 1_555
Rb1C O5 1_555 1_555
Rb2A O10 1_555 1_555
Rb2B O3 1_555 1_555
Rb2B_2 O6 1_555 1_555
Rb2C O8 1_555 1_555
O3B Rb2 1_555 1_555
O4B Rb1 1_555 1_555
O5B Rb1 1_555 1_555
O5C Rb1 1_555 1_555
O6B Rb2 1_555 1_555
O8C Rb1 1_555 1_555
O9A Rb1 1_555 1_555
O10A Rb2 1_555 1_555
O10C Rb2 1_555 1_555
N1C Rb1 1_555 1_555
Rb2 O2 1_555 1_555
Rb2 O8C 1_555 1_555
O8 Rb1C 1_555 1_555
O9 N3 1_555 1_555
O10 Rb2C 1_555 1_555
N1 Rb1C 1_555 1_555
C9 C11 1_555 1_555
C10 C12 1_555 1_555
Rb1A O5C 1_555 1_555

#END
