
#######################################################################
#
#                 Cambridge Crystallographic Data Centre
#                                CCDC 
#
#######################################################################
#
# If this CIF has been generated from an entry in the Cambridge 
# Structural Database, then it will include bibliographic, chemical, 
# crystal, experimental, refinement or atomic coordinate data resulting 
# from the CCDC's data processing and validation procedures.
#
#######################################################################

data_DIXBOC
_symmetry_cell_setting           orthorhombic
_symmetry_space_group_name_H-M   'P 21 21 21'
_symmetry_Int_Tables_number      19
_space_group_name_Hall           'P 2ac 2ab'
loop_
_symmetry_equiv_pos_site_id
_symmetry_equiv_pos_as_xyz
1 x,y,z
2 1/2-x,-y,1/2+z
3 1/2+x,1/2-y,-z
4 -x,1/2+y,1/2-z
_cell_length_a                   4.8525(9)
_cell_length_b                   16.741(4)
_cell_length_c                   19.351(4)
_cell_angle_alpha                90
_cell_angle_beta                 90
_cell_angle_gamma                90
_cell_volume                     1571.99
loop_
_atom_site_label
_atom_site_type_symbol
_atom_site_fract_x
_atom_site_fract_y
_atom_site_fract_z
Mn1 Mn 0.5493(4) 0.19499(10) 0.55437(8)
O1 O 0.8769(13) 0.1929(5) 0.4764(3)
O2 O 0.1937(16) -0.1498(4) 0.1483(4)
O3 O 0.8470(18) 0.2496(5) 0.6285(4)
O4 O -0.1504(17) -0.0814(4) 0.1030(4)
N1 N 0.256(2) 0.1009(6) 0.2933(5)
O5 O 1.2708(16) 0.1261(4) 0.4916(4)
C1 C 0.038(3) -0.0875(6) 0.1461(5)
C2 C 0.104(2) -0.0209(6) 0.1962(5)
C3 C 0.303(2) -0.0322(7) 0.2451(5)
H1 H 0.3976 -0.0819 0.2463
C4 C -0.031(3) 0.0561(6) 0.1957(5)
C5 C 0.054(3) 0.1135(6) 0.2456(5)
C6 C -0.071(3) 0.1910(7) 0.2465(5)
H2 H -0.0079 0.2301 0.2783
C7 C -0.276(2) 0.2086(7) 0.2027(5)
H3 H -0.3645 0.2592 0.2054
C8 C -0.364(2) 0.1526(7) 0.1522(6)
H4 H -0.5031 0.1670 0.1201
C9 C -0.248(2) 0.0771(7) 0.1491(5)
H5 H -0.3125 0.0394 0.1162
C10 C 1.028(3) 0.1288(5) 0.4722(4)
C11 C 0.898(2) 0.0570(6) 0.4349(5)
C12 C 0.695(2) 0.0735(6) 0.3880(5)
H6 H 0.6278 0.1264 0.3827
C13 C 0.589(3) 0.0106(6) 0.3475(5)
N2 N 0.669(2) -0.0641(5) 0.3534(4)
C14 C 0.870(2) -0.0823(6) 0.4030(5)
C15 C 0.952(3) -0.1606(6) 0.4081(6)
H7 H 0.8726 -0.1997 0.3786
C16 C 1.152(2) -0.1831(7) 0.4563(6)
H8 H 1.2032 -0.2377 0.4602
C17 C 1.279(3) -0.1263(6) 0.4990(5)
H9 H 1.4156 -0.1416 0.5314
C18 C 1.199(3) -0.0480(6) 0.4925(5)
H10 H 1.2850 -0.0090 0.5209
C19 C 0.995(2) -0.0230(5) 0.4456(6)
C20 C 0.375(2) 0.0270(6) 0.2938(5)
Mn1B Mn 1.0493(4) 0.30501(10) 0.44563(8)
Mn1_2 Mn 1.5493(4) 0.19499(10) 0.55437(8)
Mn1A Mn -0.0493(4) -0.19499(10) 0.05437(8)
O1B O 0.3769(13) 0.3071(5) 0.5236(3)
O2A O 0.3063(16) 0.1498(4) 0.6483(4)
O4A O 0.6504(17) 0.0814(4) 0.6030(4)
O5_2 O 0.2708(16) 0.1261(4) 0.4916(4)
loop_
_geom_bond_atom_site_label_1
_geom_bond_atom_site_label_2
_geom_bond_site_symmetry_1
_geom_bond_site_symmetry_2
Mn1 O1 1_555 1_555
O1 C10 1_555 1_555
O2 C1 1_555 1_555
O3 Mn1 1_555 1_555
O4 C1 1_555 1_555
N1 C5 1_555 1_555
O5 C10 1_555 1_555
C1 C2 1_555 1_555
C2 C3 1_555 1_555
C3 H1 1_555 1_555
C4 C2 1_555 1_555
C5 C4 1_555 1_555
C6 C5 1_555 1_555
H2 C6 1_555 1_555
C7 C6 1_555 1_555
H3 C7 1_555 1_555
C8 C7 1_555 1_555
H4 C8 1_555 1_555
C9 C4 1_555 1_555
H5 C9 1_555 1_555
C10 C11 1_555 1_555
C11 C12 1_555 1_555
C12 H6 1_555 1_555
C13 C12 1_555 1_555
N2 C13 1_555 1_555
C14 N2 1_555 1_555
C15 C14 1_555 1_555
H7 C15 1_555 1_555
C16 C15 1_555 1_555
H8 C16 1_555 1_555
C17 C16 1_555 1_555
H9 C17 1_555 1_555
C18 C17 1_555 1_555
H10 C18 1_555 1_555
C19 C11 1_555 1_555
C20 N1 1_555 1_555
Mn1B O1 1_555 1_555
Mn1_2 O5 1_555 1_555
Mn1A O2 1_555 1_555
O1B Mn1 1_555 1_555
O2A Mn1 1_555 1_555
O4A Mn1 1_555 1_555
O5_2 Mn1 1_555 1_555
O4 Mn1A 1_555 1_555
C3 C20 1_555 1_555
C8 C9 1_555 1_555
C13 C20 1_555 1_555
C14 C19 1_555 1_555
C18 C19 1_555 1_555

#END
