
#######################################################################
#
#                 Cambridge Crystallographic Data Centre
#                                CCDC 
#
#######################################################################
#
# If this CIF has been generated from an entry in the Cambridge 
# Structural Database, then it will include bibliographic, chemical, 
# crystal, experimental, refinement or atomic coordinate data resulting 
# from the CCDC's data processing and validation procedures.
#
#######################################################################

data_DIXCET
_symmetry_cell_setting           monoclinic
_symmetry_space_group_name_H-M   'C 2/c'
_symmetry_Int_Tables_number      15
_space_group_name_Hall           '-C 2yn'
loop_
_symmetry_equiv_pos_site_id
_symmetry_equiv_pos_as_xyz
1 x,y,z
2 1/2+x,1/2+y,z
3 -x,y,1/2-z
4 1/2-x,1/2+y,1/2-z
5 -x,-y,-z
6 1/2-x,1/2-y,-z
7 x,-y,1/2+z
8 1/2+x,1/2-y,1/2+z
_cell_length_a                   19.313(5)
_cell_length_b                   6.6600(16)
_cell_length_c                   11.199(3)
_cell_angle_alpha                90
_cell_angle_beta                 97.072(4)
_cell_angle_gamma                90
_cell_volume                     1429.51
loop_
_atom_site_label
_atom_site_type_symbol
_atom_site_fract_x
_atom_site_fract_y
_atom_site_fract_z
Na1 Na 0.44681(4) 0.10902(10) 0.37276(5)
C1 C 0.60064(8) 0.2254(2) 0.42113(12)
C2 C 0.67849(8) 0.2413(2) 0.45982(11)
C3 C 0.72458(8) 0.1065(2) 0.41625(12)
C4 C 0.69537(8) -0.0562(2) 0.33108(12)
C5 C 0.70385(8) 0.3840(2) 0.54545(11)
C6 C 0.65296(8) 0.5146(2) 0.60281(12)
O1 O 0.56410(6) 0.12541(18) 0.47908(9)
O2 O 0.57446(6) 0.32026(17) 0.32485(9)
O3 O 0.64870(8) -0.0256(2) 0.25161(12)
O4 O 0.72455(6) -0.22982(16) 0.35491(10)
H1 H 0.7064 -0.3203 0.3080
O5 O 0.60970(7) 0.61737(19) 0.54263(10)
O6 O 0.66000(7) 0.49981(17) 0.71861(9)
H2 H 0.6305 0.5754 0.7469
O7 O 0.5000 -0.1497(3) 0.2500
H3 H 0.5289 -0.2364 0.2805
Na1E Na 1.05319(4) 0.39098(10) 0.62724(5)
Na1D Na 0.55319(4) -0.10902(10) 0.62724(5)
Na1B Na 0.55319(4) 0.10902(10) 0.12724(5)
Na1D_2 Na 0.55319(4) 0.89098(10) 0.62724(5)
Na1A Na 0.94681(4) 0.60902(10) 0.37276(5)
Na1G Na 0.94681(4) 0.39098(10) 0.87276(5)
Na1A_2 Na 0.94681(4) -0.39098(10) 0.37276(5)
C1E C 0.89936(8) 0.2746(2) 0.57887(12)
C2E C 0.82151(8) 0.2587(2) 0.54018(11)
C3E C 0.77542(8) 0.3935(2) 0.58375(12)
C4E C 0.80463(8) 0.5562(2) 0.66892(12)
C5E C 0.79615(8) 0.1160(2) 0.45455(11)
C6E C 0.84704(8) -0.0146(2) 0.39719(12)
O1E O 0.93590(6) 0.37459(18) 0.52092(9)
O1D O 0.43590(6) -0.12541(18) 0.52092(9)
O1A O 1.06410(6) 0.62541(18) 0.47908(9)
O2E O 0.92554(6) 0.17974(17) 0.67515(9)
O2B O 0.42554(6) 0.32026(17) 0.17515(9)
O2G O 1.07446(6) 0.17974(17) 0.82485(9)
O3E O 0.85130(8) 0.5256(2) 0.74839(12)
O3B O 0.35130(8) -0.0256(2) 0.24839(12)
O3G O 1.14870(8) 0.5256(2) 0.75161(12)
O4E O 0.77545(6) 0.72982(16) 0.64509(10)
H1E H 0.7936 0.8203 0.6920
O5E O 0.89030(7) -0.11737(19) 0.45737(10)
O5D O 0.39030(7) 0.38263(19) 0.45737(10)
O5A O 1.10970(7) 0.11737(19) 0.54263(10)
O6E O 0.84000(7) 0.00019(17) 0.28139(9)
H2E H 0.8695 -0.0754 0.2531
O7E O 1.0000 0.6497(3) 0.7500
H3B H 0.4711 -0.2364 0.2195
H3G H 1.0289 0.7364 0.7805
H3E H 0.9711 0.7364 0.7195
loop_
_geom_bond_atom_site_label_1
_geom_bond_atom_site_label_2
_geom_bond_site_symmetry_1
_geom_bond_site_symmetry_2
Na1 O1 1_555 1_555
C1 C2 1_555 1_555
C2 C3 1_555 1_555
C3 C4 1_555 1_555
C4 O3 1_555 1_555
C5 C2 1_555 1_555
C6 C5 1_555 1_555
O1 C1 1_555 1_555
O2 Na1 1_555 1_555
O3 Na1B 1_555 1_555
O4 C4 1_555 1_555
H1 O4 1_555 1_555
O5 C6 1_555 1_555
O6 C6 1_555 1_555
H2 O6 1_555 1_555
O7 Na1 1_555 1_555
H3 O7 1_555 1_555
Na1E O1E 1_555 1_555
Na1D O1 1_555 1_555
Na1B O2 1_555 1_555
Na1D_2 O5 1_555 1_555
Na1A O1E 1_555 1_555
Na1G O2E 1_555 1_555
Na1A_2 O5E 1_555 1_555
C1E C2E 1_555 1_555
C2E C3E 1_555 1_555
C3E C5 1_555 1_555
C4E C3E 1_555 1_555
C5E C3 1_555 1_555
C6E C5E 1_555 1_555
O1E C1E 1_555 1_555
O1D Na1 1_555 1_555
O1A Na1E 1_555 1_555
O2E Na1E 1_555 1_555
O2B Na1 1_555 1_555
O2G Na1E 1_555 1_555
O3E Na1G 1_555 1_555
O3B Na1 1_555 1_555
O3G Na1E 1_555 1_555
O4E C4E 1_555 1_555
H1E O4E 1_555 1_555
O5E C6E 1_555 1_555
O5D Na1 1_555 1_555
O5A Na1E 1_555 1_555
O6E C6E 1_555 1_555
H2E O6E 1_555 1_555
O7E Na1E 1_555 1_555
H3B O7 1_555 1_555
H3G O7E 1_555 1_555
H3E O7E 1_555 1_555
C1 O2 1_555 1_555
O7 Na1B 1_555 1_555
Na1D O1D 1_555 1_555
Na1B O2B 1_555 1_555
Na1A O1A 1_555 1_555
Na1G O2G 1_555 1_555
Na1G O7E 1_555 1_555
C1E O2E 1_555 1_555
C2E C5E 1_555 1_555
C4E O3E 1_555 1_555

#END
