
#######################################################################
#
#                 Cambridge Crystallographic Data Centre
#                                CCDC 
#
#######################################################################
#
# If this CIF has been generated from an entry in the Cambridge 
# Structural Database, then it will include bibliographic, chemical, 
# crystal, experimental, refinement or atomic coordinate data resulting 
# from the CCDC's data processing and validation procedures.
#
#######################################################################

data_DIXDUL
_symmetry_cell_setting           triclinic
_symmetry_space_group_name_H-M   'P -1'
_symmetry_Int_Tables_number      2
_space_group_name_Hall           '-P 1'
loop_
_symmetry_equiv_pos_site_id
_symmetry_equiv_pos_as_xyz
1 x,y,z
2 -x,-y,-z
_cell_length_a                   11.2602(8)
_cell_length_b                   13.3780(10)
_cell_length_c                   14.7418(10)
_cell_angle_alpha                90.3790(10)
_cell_angle_beta                 102.6810(10)
_cell_angle_gamma                111.4350(10)
_cell_volume                     2007.43
loop_
_atom_site_label
_atom_site_type_symbol
_atom_site_fract_x
_atom_site_fract_y
_atom_site_fract_z
Ag1 Ag -0.83935(3) 0.82666(2) 0.22165(2)
Ag2 Ag 0.13754(3) 0.29022(2) 0.692063(19)
C1 C -0.6288(3) 0.7948(3) 0.3803(2)
H1 H -0.6396 0.8501 0.4144
C2 C -0.5399(3) 0.7517(3) 0.4232(2)
H2 H -0.4907 0.7776 0.4855
C3 C -0.5215(3) 0.6707(3) 0.3759(2)
C4 C -0.5965(3) 0.6370(3) 0.2847(2)
H3 H -0.5869 0.5820 0.2493
C5 C -0.6842(3) 0.6831(3) 0.2458(2)
H4 H -0.7348 0.6583 0.1837
C6 C -0.4282(3) 0.6201(3) 0.4178(2)
C7 C -0.3155(3) 0.6749(3) 0.4882(2)
H5 H -0.2967 0.7476 0.5091
C8 C -0.2314(3) 0.6254(3) 0.5279(2)
H6 H -0.1560 0.6644 0.5760
C9 C -0.2551(3) 0.5188(3) 0.4984(2)
C10 C -0.3668(3) 0.4644(3) 0.4271(2)
H7 H -0.3845 0.3923 0.4052
C11 C -0.4512(3) 0.5135(3) 0.3883(2)
H8 H -0.5268 0.4743 0.3404
C12 C -0.0089(3) 0.4448(3) 0.6719(2)
H9 H 0.0412 0.4678 0.7344
C13 C -0.0915(3) 0.4956(3) 0.6335(2)
H10 H -0.0979 0.5518 0.6695
C14 C -0.1660(3) 0.4647(2) 0.5419(2)
C15 C -0.1524(3) 0.3813(3) 0.4938(2)
H11 H -0.2011 0.3574 0.4311
C16 C -0.0684(3) 0.3335(3) 0.5369(2)
H12 H -0.0615 0.2762 0.5028
C17 C 0.3509(3) 0.2635(3) 0.8497(2)
H13 H 0.3359 0.3184 0.8812
C18 C 0.4423(3) 0.2250(3) 0.8971(2)
H14 H 0.4902 0.2543 0.9590
C19 C 0.4645(3) 0.1423(2) 0.8536(2)
C20 C 0.3914(3) 0.1043(3) 0.7623(2)
H15 H 0.4022 0.0478 0.7299
C21 C 0.3038(3) 0.1487(3) 0.7194(2)
H16 H 0.2564 0.1223 0.6568
C22 C 0.5606(3) 0.0980(3) 0.9022(2)
C23 C 0.6694(3) 0.1599(3) 0.9731(2)
H17 H 0.6824 0.2325 0.9895
C24 C 0.7580(3) 0.1177(3) 1.0193(2)
H18 H 0.8307 0.1615 1.0672
C25 C 0.7425(3) 0.0111(3) 0.9969(2)
C26 C 0.6342(3) -0.0501(3) 0.9255(2)
H19 H 0.6216 -0.1226 0.9086
C27 C 0.5457(3) -0.0083(3) 0.8792(2)
H20 H 0.4735 -0.0520 0.8310
C28 C 0.9917(3) -0.0417(3) 1.1850(2)
H21 H 1.0379 -0.0147 1.2477
C29 C 0.9048(3) 0.0020(3) 1.1400(2)
H22 H 0.8916 0.0577 1.1717
C30 C 0.8355(3) -0.0352(2) 1.0474(2)
C31 C 0.8590(3) -0.1179(3) 1.0062(2)
H23 H 0.8142 -0.1465 0.9435
C32 C 0.9464(3) -0.1581(3) 1.0556(2)
H24 H 0.9597 -0.2150 1.0259
N1 N -0.7014(3) 0.7621(2) 0.2921(2)
N2 N 0.0048(3) 0.3641(2) 0.62572(18)
N3 N 0.2816(3) 0.2278(2) 0.76140(19)
N4 N 1.0147(3) -0.1213(2) 1.14433(19)
O1 O 0.0068(2) 0.11070(19) 0.57063(17)
H25 H 0.0370 0.1183 0.5220
H26 H 0.0289 0.0605 0.5943
Ag1_2 Ag 1.16065(3) -0.17334(2) 1.22165(2)
N4_2 N -0.9853(3) 0.8787(2) 0.14433(19)
C33 C 0.1805(3) 0.2564(2) 0.2436(2)
C34 C 0.2895(3) 0.3139(2) 0.1967(2)
C35 C 0.2758(3) 0.3885(3) 0.1332(2)
H27 H 0.1967 0.4019 0.1189
C36 C 0.3760(3) 0.4428(3) 0.0912(2)
H28 H 0.3664 0.4943 0.0491
C37 C 0.4909(3) 0.4227(3) 0.1102(2)
H29 H 0.5591 0.4599 0.0804
C38 C 0.5070(3) 0.3484(2) 0.1727(2)
C39 C 0.4061(3) 0.2946(2) 0.2160(2)
H30 H 0.4166 0.2442 0.2591
C40 C 0.6339(3) 0.3273(3) 0.1926(2)
O2 O 0.0811(2) 0.28198(19) 0.22629(16)
O3 O 0.1956(2) 0.18810(18) 0.29833(16)
O4 O 0.6490(2) 0.2656(2) 0.25317(19)
O5 O 0.7156(2) 0.3736(2) 0.14464(18)
O6 O 0.7302(3) 0.0152(3) 0.4862(2)
H31 H 0.8104 0.0568 0.5051
H32 H 0.6838 0.0450 0.4521
O7 O 0.8164(3) 0.5956(2) 0.13373(19)
H33 H 0.8867 0.6135 0.1147
H34 H 0.7684 0.5297 0.1343
O8 O 0.5745(3) 0.1107(2) 0.37685(19)
H35 H 0.4954 0.0795 0.3809
H36 H 0.6091 0.1704 0.3552
O9 O 0.8567(3) 0.1996(3) 0.2946(2)
H37 H 0.7964 0.2247 0.2808
H38 H 0.9162 0.2212 0.2643
O10 O 0.0040(2) 0.09382(19) 0.38579(16)
H39 H 0.0681 0.1216 0.3605
H40 H -0.0579 0.1145 0.3617
O11 O 0.9513(2) 0.39399(18) 0.11388(16)
H41 H 0.9895 0.3543 0.1411
H42 H 0.8805 0.3801 0.1316
O12 O 0.3039(2) 0.0311(2) 0.33731(19)
H43 H 0.2723 0.0793 0.3229
H44 H 0.2955 0.0150 0.3918
O13 O 0.0467(2) 0.6156(2) 0.07610(17)
H45 H 0.0576 0.6189 0.0208
H46 H 0.0557 0.5570 0.0906
loop_
_geom_bond_atom_site_label_1
_geom_bond_atom_site_label_2
_geom_bond_site_symmetry_1
_geom_bond_site_symmetry_2
Ag1 N1 1_555 1_555
Ag2 N2 1_555 1_555
C1 H1 1_555 1_555
C2 C1 1_555 1_555
H2 C2 1_555 1_555
C3 C2 1_555 1_555
C4 C3 1_555 1_555
H3 C4 1_555 1_555
C5 C4 1_555 1_555
H4 C5 1_555 1_555
C6 C3 1_555 1_555
C7 C6 1_555 1_555
H5 C7 1_555 1_555
C8 C7 1_555 1_555
H6 C8 1_555 1_555
C9 C8 1_555 1_555
C10 C9 1_555 1_555
H7 C10 1_555 1_555
C11 C6 1_555 1_555
H8 C11 1_555 1_555
C12 H9 1_555 1_555
C13 C12 1_555 1_555
H10 C13 1_555 1_555
C14 C9 1_555 1_555
C15 C14 1_555 1_555
H11 C15 1_555 1_555
C16 C15 1_555 1_555
H12 C16 1_555 1_555
C17 H13 1_555 1_555
C18 C17 1_555 1_555
H14 C18 1_555 1_555
C19 C18 1_555 1_555
C20 C19 1_555 1_555
H15 C20 1_555 1_555
C21 C20 1_555 1_555
H16 C21 1_555 1_555
C22 C19 1_555 1_555
C23 C22 1_555 1_555
H17 C23 1_555 1_555
C24 C23 1_555 1_555
H18 C24 1_555 1_555
C25 C24 1_555 1_555
C26 C25 1_555 1_555
H19 C26 1_555 1_555
C27 C22 1_555 1_555
H20 C27 1_555 1_555
C28 H21 1_555 1_555
C29 C28 1_555 1_555
H22 C29 1_555 1_555
C30 C25 1_555 1_555
C31 C30 1_555 1_555
H23 C31 1_555 1_555
C32 C31 1_555 1_555
H24 C32 1_555 1_555
N1 C1 1_555 1_555
N2 C12 1_555 1_555
N3 Ag2 1_555 1_555
N4 C28 1_555 1_555
O1 Ag2 1_555 1_555
H25 O1 1_555 1_555
H26 O1 1_555 1_555
C33 C34 1_555 1_555
C34 C35 1_555 1_555
C35 H27 1_555 1_555
C36 C35 1_555 1_555
H28 C36 1_555 1_555
C37 C36 1_555 1_555
H29 C37 1_555 1_555
C38 C37 1_555 1_555
C39 C34 1_555 1_555
H30 C39 1_555 1_555
C40 C38 1_555 1_555
O2 C33 1_555 1_555
O3 C33 1_555 1_555
O4 C40 1_555 1_555
O5 C40 1_555 1_555
O6 H31 1_555 1_555
H32 O6 1_555 1_555
O7 H33 1_555 1_555
H34 O7 1_555 1_555
O8 H35 1_555 1_555
H36 O8 1_555 1_555
O9 H37 1_555 1_555
H38 O9 1_555 1_555
O10 H39 1_555 1_555
H40 O10 1_555 1_555
O11 H41 1_555 1_555
H42 O11 1_555 1_555
O12 H43 1_555 1_555
H44 O12 1_555 1_555
O13 H45 1_555 1_555
H46 O13 1_555 1_555
Ag1_2 N4 1_555 1_555
N4_2 Ag1 1_555 1_555
C5 N1 1_555 1_555
C10 C11 1_555 1_555
C13 C14 1_555 1_555
C16 N2 1_555 1_555
C17 N3 1_555 1_555
C21 N3 1_555 1_555
C26 C27 1_555 1_555
C29 C30 1_555 1_555
C32 N4 1_555 1_555
C38 C39 1_555 1_555

#END
