
#######################################################################
#
#                 Cambridge Crystallographic Data Centre
#                                CCDC 
#
#######################################################################
#
# If this CIF has been generated from an entry in the Cambridge 
# Structural Database, then it will include bibliographic, chemical, 
# crystal, experimental, refinement or atomic coordinate data resulting 
# from the CCDC's data processing and validation procedures.
#
#######################################################################

data_DIXDUK
_symmetry_cell_setting           monoclinic
_symmetry_space_group_name_H-M   'P 21/c'
_symmetry_Int_Tables_number      14
_space_group_name_Hall           '-P 2ybc'
loop_
_symmetry_equiv_pos_site_id
_symmetry_equiv_pos_as_xyz
1 x,y,z
2 -x,1/2+y,1/2-z
3 -x,-y,-z
4 x,1/2-y,1/2+z
_cell_length_a                   16.906(2)
_cell_length_b                   14.6045(16)
_cell_length_c                   16.536(3)
_cell_angle_alpha                90
_cell_angle_beta                 101.534(8)
_cell_angle_gamma                90
_cell_volume                     4000.35
loop_
_atom_site_label
_atom_site_type_symbol
_atom_site_fract_x
_atom_site_fract_y
_atom_site_fract_z
Fe1 Fe 0.25088(15) 0.74574(19) 0.1909(2)
N1 N 0.1940(9) 0.8338(10) 0.1098(12)
N2 N 0.3070(10) 0.7165(11) 0.1019(12)
N3 N 0.3386(9) 0.8325(10) 0.2325(11)
N4 N 0.3209(9) 0.6635(10) 0.2671(11)
N5 N 0.1881(9) 0.7810(11) 0.2758(13)
N6 N 0.1628(12) 0.6574(13) 0.1599(15)
C1 C 0.1319(13) 0.8816(14) 0.1182(16)
H1 H 0.1099 0.8740 0.1649
C2 C 0.0971(14) 0.9456(16) 0.0570(17)
H2 H 0.0508 0.9777 0.0619
C3 C 0.1320(16) 0.9592(18) -0.0082(19)
H3 H 0.1115 1.0036 -0.0471
C4 C 0.1976(15) 0.9081(17) -0.0176(18)
H4 H 0.2210 0.9141 -0.0636
C5 C 0.2275(14) 0.8462(15) 0.0462(17)
C6 C 0.2995(15) 0.7820(17) 0.0450(17)
C7 C 0.3531(18) 0.794(2) -0.007(2)
H5 H 0.3485 0.8432 -0.0440
C8 C 0.4150(17) 0.729(2) -0.0027(19)
H6 H 0.4536 0.7355 -0.0352
C9 C 0.4188(16) 0.6598(19) 0.0459(18)
H7 H 0.4567 0.6138 0.0453
C10 C 0.3631(16) 0.6547(19) 0.1017(18)
H8 H 0.3672 0.6060 0.1385
C11 C 0.3427(11) 0.9201(12) 0.2173(13)
H9 H 0.3000 0.9477 0.1815
C12 C 0.4067(13) 0.9719(16) 0.2518(15)
H10 H 0.4038 1.0350 0.2442
C13 C 0.4752(13) 0.9354(14) 0.2971(15)
H11 H 0.5206 0.9706 0.3176
C14 C 0.4727(12) 0.8418(14) 0.3106(14)
H12 H 0.5179 0.8128 0.3413
C15 C 0.4049(11) 0.7907(13) 0.2797(13)
C16 C 0.3949(11) 0.6936(13) 0.2958(13)
C17 C 0.4565(14) 0.6396(15) 0.3384(16)
H13 H 0.5085 0.6623 0.3559
C18 C 0.4369(16) 0.5502(18) 0.3536(18)
H14 H 0.4764 0.5116 0.3826
C19 C 0.3618(14) 0.5184(17) 0.3271(16)
H15 H 0.3492 0.4582 0.3379
C20 C 0.3048(14) 0.5741(14) 0.2848(15)
H16 H 0.2528 0.5515 0.2670
C21 C 0.2108(17) 0.8436(19) 0.3361(19)
H17 H 0.2597 0.8742 0.3398
C22 C 0.161(2) 0.864(3) 0.394(2)
H18 H 0.1769 0.9058 0.4363
C23 C 0.090(2) 0.817(2) 0.384(2)
H19 H 0.0553 0.8323 0.4190
C24 C 0.0684(18) 0.756(2) 0.3306(19)
H20 H 0.0193 0.7257 0.3273
C25 C 0.1198(16) 0.7327(18) 0.2761(18)
C26 C 0.1041(15) 0.6679(17) 0.2080(18)
C27 C 0.0371(15) 0.6144(17) 0.1916(18)
H21 H -0.0041 0.6207 0.2210
C28 C 0.0325(18) 0.550(2) 0.1293(19)
H22 H -0.0145 0.5156 0.1171
C29 C 0.0884(17) 0.533(2) 0.0851(19)
H23 H 0.0848 0.4861 0.0469
C30 C 0.1556(18) 0.596(2) 0.103(2)
H24 H 0.1956 0.5925 0.0718
Pb1 Pb 0.23596(5) 0.25224(7) 0.65875(6)
Pb2 Pb 0.23863(5) 0.23585(6) 0.40941(6)
I1 I 0.08691(8) 0.25347(13) 0.50523(11)
I2 I 0.30919(12) 0.09104(13) 0.55771(14)
I3 I 0.32366(9) 0.38329(11) 0.54451(11)
I4 I 0.38757(8) 0.25464(11) 0.81561(10)
I5 I 0.17405(10) 0.41301(11) 0.76512(13)
I6 I 0.15009(10) 0.12238(11) 0.77770(12)
Pb2C Pb 0.23863(5) 0.26415(6) 0.90941(6)
I4C I 0.38757(8) 0.24536(11) 0.31561(10)
I5C I 0.17405(10) 0.08699(11) 0.26512(13)
I6C I 0.15009(10) 0.37762(11) 0.27770(12)
loop_
_geom_bond_atom_site_label_1
_geom_bond_atom_site_label_2
_geom_bond_site_symmetry_1
_geom_bond_site_symmetry_2
Fe1 N1 1_555 1_555
N1 C1 1_555 1_555
N2 Fe1 1_555 1_555
N3 Fe1 1_555 1_555
N4 Fe1 1_555 1_555
N5 Fe1 1_555 1_555
N6 Fe1 1_555 1_555
C1 H1 1_555 1_555
C2 C1 1_555 1_555
H2 C2 1_555 1_555
C3 C2 1_555 1_555
H3 C3 1_555 1_555
C4 C3 1_555 1_555
H4 C4 1_555 1_555
C5 N1 1_555 1_555
C6 N2 1_555 1_555
C7 C6 1_555 1_555
H5 C7 1_555 1_555
C8 C7 1_555 1_555
H6 C8 1_555 1_555
C9 C8 1_555 1_555
H7 C9 1_555 1_555
C10 N2 1_555 1_555
H8 C10 1_555 1_555
C11 N3 1_555 1_555
H9 C11 1_555 1_555
C12 C11 1_555 1_555
H10 C12 1_555 1_555
C13 C12 1_555 1_555
H11 C13 1_555 1_555
C14 C13 1_555 1_555
H12 C14 1_555 1_555
C15 N3 1_555 1_555
C16 N4 1_555 1_555
C17 C16 1_555 1_555
H13 C17 1_555 1_555
C18 C17 1_555 1_555
H14 C18 1_555 1_555
C19 C18 1_555 1_555
H15 C19 1_555 1_555
C20 N4 1_555 1_555
H16 C20 1_555 1_555
C21 N5 1_555 1_555
H17 C21 1_555 1_555
C22 C21 1_555 1_555
H18 C22 1_555 1_555
C23 C22 1_555 1_555
H19 C23 1_555 1_555
C24 C23 1_555 1_555
H20 C24 1_555 1_555
C25 N5 1_555 1_555
C26 N6 1_555 1_555
C27 C26 1_555 1_555
H21 C27 1_555 1_555
C28 C27 1_555 1_555
H22 C28 1_555 1_555
C29 C28 1_555 1_555
H23 C29 1_555 1_555
C30 N6 1_555 1_555
H24 C30 1_555 1_555
Pb1 I1 1_555 1_555
Pb2 I1 1_555 1_555
I2 Pb1 1_555 1_555
I3 Pb1 1_555 1_555
I4 Pb1 1_555 1_555
I5 Pb1 1_555 1_555
I6 Pb1 1_555 1_555
Pb2C I4 1_555 1_555
I4C Pb2 1_555 1_555
I5C Pb2 1_555 1_555
I6C Pb2 1_555 1_555
C4 C5 1_555 1_555
C5 C6 1_555 1_555
C9 C10 1_555 1_555
C14 C15 1_555 1_555
C15 C16 1_555 1_555
C19 C20 1_555 1_555
C24 C25 1_555 1_555
C25 C26 1_555 1_555
C29 C30 1_555 1_555
Pb2 I2 1_555 1_555
Pb2 I3 1_555 1_555
I5 Pb2C 1_555 1_555
I6 Pb2C 1_555 1_555

#END
