
#######################################################################
#
#                 Cambridge Crystallographic Data Centre
#                                CCDC 
#
#######################################################################
#
# If this CIF has been generated from an entry in the Cambridge 
# Structural Database, then it will include bibliographic, chemical, 
# crystal, experimental, refinement or atomic coordinate data resulting 
# from the CCDC's data processing and validation procedures.
#
#######################################################################

data_DIXDOF
_symmetry_cell_setting           monoclinic
_symmetry_space_group_name_H-M   'P 21/c'
_symmetry_Int_Tables_number      14
_space_group_name_Hall           '-P 2ybc'
loop_
_symmetry_equiv_pos_site_id
_symmetry_equiv_pos_as_xyz
1 x,y,z
2 -x,1/2+y,1/2-z
3 -x,-y,-z
4 x,1/2-y,1/2+z
_cell_length_a                   11.7800(11)
_cell_length_b                   9.4034(9)
_cell_length_c                   18.8322(18)
_cell_angle_alpha                90
_cell_angle_beta                 103.465(2)
_cell_angle_gamma                90
_cell_volume                     2028.74
loop_
_atom_site_label
_atom_site_type_symbol
_atom_site_fract_x
_atom_site_fract_y
_atom_site_fract_z
Cd1 Cd 0.96551(3) 0.99696(4) 0.185297(19)
P1 P 1.06656(11) 0.86528(13) 0.35149(7)
O1 O 1.0178(3) 0.9966(3) 0.30683(18)
O2 O 1.0424(3) 0.7325(4) 0.30597(19)
O3 O 1.0250(3) 0.8576(5) 0.42232(19)
O4 O 1.6575(3) 0.8158(5) 0.4652(3)
O5 O 1.6413(3) 1.0294(4) 0.4117(2)
H1 H 1.7154 1.0251 0.4238
O6 O 0.9511(3) 0.7683(4) 0.1404(2)
H2 H 0.8812 0.7529 0.1172
H3 H 0.9699 0.7100 0.1757
O7 O 0.9006(4) 1.0399(4) 0.0546(2)
H4 H 0.9596 1.0532 0.0367
H5 H 0.8626 0.9681 0.0344
N1 N 1.1585(4) 1.0045(5) 0.1686(2)
N2 N 1.7653(4) 0.9746(5) 0.1844(2)
C1 C 1.2243(4) 0.8856(5) 0.3788(2)
C2 C 1.2939(5) 0.7772(6) 0.4167(3)
H6 H 1.2739 0.6923 0.3882
C3 C 1.4135(5) 0.7875(6) 0.4343(3)
H7 H 1.4429 0.7074 0.4125
C4 C 1.4686(4) 0.9074(5) 0.4146(3)
C5 C 1.4007(5) 1.0194(6) 0.3803(3)
H8 H 1.4248 1.0379 0.3359
C6 C 1.2796(4) 1.0063(6) 0.3612(3)
H9 H 1.2497 1.0849 0.3837
C7 C 1.5982(5) 0.9124(6) 0.4329(3)
C8 C 1.2079(5) 0.8892(6) 0.1474(3)
H10 H 1.1645 0.8683 0.0988
C9 C 1.3247(4) 0.8827(6) 0.1463(3)
H11 H 1.3288 0.8644 0.0968
C10 C 1.3965(4) 0.9996(6) 0.1697(3)
C11 C 1.3444(4) 1.1211(6) 0.1913(3)
H12 H 1.3575 1.1973 0.1602
C12 C 1.2260(4) 1.1195(6) 0.1881(3)
H13 H 1.2189 1.1437 0.2364
C13 C 1.6879(5) 0.9105(6) 0.1304(3)
H14 H 1.7087 0.8116 0.1334
C14 C 1.5688(5) 0.9160(6) 0.1232(3)
H15 H 1.5413 0.8200 0.1237
C15 C 1.5238(4) 0.9922(6) 0.1742(3)
C16 C 1.6044(5) 1.0604(7) 0.2301(3)
H16 H 1.5925 1.0239 0.2754
C17 C 1.7226(5) 1.0461(7) 0.2338(3)
H17 H 1.7509 1.1417 0.2328
Cd1_2 Cd 1.96551(3) 0.99696(4) 0.185297(19)
Cd1A Cd 1.03449(3) 0.49696(4) 0.314703(19)
O2A O 0.9576(3) 1.2325(4) 0.19403(19)
N2_2 N 0.7653(4) 0.9746(5) 0.1844(2)
O8 O 0.8817(3) 0.7194(4) 0.4896(2)
H18 H 0.8197 0.7536 0.4985
H19 H 0.9250 0.7829 0.4595
O9 O 0.8613(3) 0.0694(4) 0.4403(2)
H20 H 0.8901 0.0779 0.4859
H21 H 0.8961 0.0028 0.4234
loop_
_geom_bond_atom_site_label_1
_geom_bond_atom_site_label_2
_geom_bond_site_symmetry_1
_geom_bond_site_symmetry_2
Cd1 O1 1_555 1_555
P1 O1 1_555 1_555
O2 P1 1_555 1_555
O3 P1 1_555 1_555
O4 C7 1_555 1_555
O5 H1 1_555 1_555
O6 Cd1 1_555 1_555
H2 O6 1_555 1_555
H3 O6 1_555 1_555
O7 Cd1 1_555 1_555
H4 O7 1_555 1_555
H5 O7 1_555 1_555
N1 Cd1 1_555 1_555
N2 C13 1_555 1_555
C1 P1 1_555 1_555
C2 C1 1_555 1_555
H6 C2 1_555 1_555
C3 C2 1_555 1_555
H7 C3 1_555 1_555
C4 C3 1_555 1_555
C5 C4 1_555 1_555
H8 C5 1_555 1_555
C6 C1 1_555 1_555
H9 C6 1_555 1_555
C7 O5 1_555 1_555
C8 N1 1_555 1_555
H10 C8 1_555 1_555
C9 C8 1_555 1_555
H11 C9 1_555 1_555
C10 C9 1_555 1_555
C11 C10 1_555 1_555
H12 C11 1_555 1_555
C12 N1 1_555 1_555
H13 C12 1_555 1_555
C13 H14 1_555 1_555
C14 C13 1_555 1_555
H15 C14 1_555 1_555
C15 C10 1_555 1_555
C16 C15 1_555 1_555
H16 C16 1_555 1_555
C17 N2 1_555 1_555
H17 C17 1_555 1_555
O8 H18 1_555 1_555
H19 O8 1_555 1_555
O9 H20 1_555 1_555
H21 O9 1_555 1_555
Cd1_2 N2 1_555 1_555
Cd1A O2 1_555 1_555
O2A Cd1 1_555 1_555
N2_2 Cd1 1_555 1_555
C4 C7 1_555 1_555
C5 C6 1_555 1_555
C11 C12 1_555 1_555
C14 C15 1_555 1_555
C16 C17 1_555 1_555

#END
