
#######################################################################
#
#                 Cambridge Crystallographic Data Centre
#                                CCDC 
#
#######################################################################
#
# If this CIF has been generated from an entry in the Cambridge 
# Structural Database, then it will include bibliographic, chemical, 
# crystal, experimental, refinement or atomic coordinate data resulting 
# from the CCDC's data processing and validation procedures.
#
#######################################################################

data_DIXFIB
_symmetry_cell_setting           monoclinic
_symmetry_space_group_name_H-M   'C 2/c'
_symmetry_Int_Tables_number      15
_space_group_name_Hall           '-C 2yn'
loop_
_symmetry_equiv_pos_site_id
_symmetry_equiv_pos_as_xyz
1 x,y,z
2 -x,y,1/2-z
3 1/2+x,1/2+y,z
4 1/2-x,1/2+y,1/2-z
5 -x,-y,-z
6 x,-y,1/2+z
7 1/2-x,1/2-y,-z
8 1/2+x,1/2-y,1/2+z
_cell_length_a                   18.2285(13)
_cell_length_b                   12.4643(9)
_cell_length_c                   18.4247(19)
_cell_angle_alpha                90
_cell_angle_beta                 117.2610(10)
_cell_angle_gamma                90
_cell_volume                     3721.23
loop_
_atom_site_label
_atom_site_type_symbol
_atom_site_fract_x
_atom_site_fract_y
_atom_site_fract_z
Cd1 Cd 0.037286(12) 0.803935(17) 0.050498(11)
P1 P 0.11643(4) 1.00955(6) -0.01833(4)
O1 O 0.10655(15) 0.89624(17) 0.00208(13)
O2 O 0.03975(13) 1.07120(19) -0.06471(13)
O3 O 0.16752(13) 1.0087(2) -0.06762(13)
H1 H 0.1945 0.9503 -0.0580
O4 O 0.38763(13) 1.30246(18) 0.30588(13)
O5 O 0.33591(13) 1.19900(17) 0.36721(12)
N1 N -0.03321(15) 0.7204(2) -0.07743(15)
N2 N -0.03634(16) 0.6551(2) 0.06054(16)
C1 C 0.18155(16) 1.0787(2) 0.07555(16)
C2 C 0.2372(2) 1.1558(3) 0.07973(19)
H2 H 0.2424 1.1730 0.0315
C3 C 0.2866(2) 1.2079(3) 0.15265(19)
H3 H 0.3246 1.2625 0.1544
C4 C 0.28059(16) 1.1824(2) 0.22271(16)
C5 C 0.22333(18) 1.1066(2) 0.21820(17)
H4 H 0.2176 1.0900 0.2662
C6 C 0.17445(19) 1.0548(3) 0.14546(17)
H5 H 0.1349 1.0022 0.1431
C7 C 0.33703(17) 1.2322(2) 0.30344(17)
C8 C -0.0346(2) 0.7598(3) -0.1451(2)
H6 H -0.0003 0.8206 -0.1403
C9 C -0.0837(2) 0.7183(3) -0.2216(2)
H7 H -0.0838 0.7488 -0.2695
C10 C -0.1325(2) 0.6319(4) -0.2276(2)
H8 H -0.1673 0.6008 -0.2798
C11 C -0.1309(2) 0.5895(3) -0.1582(2)
H9 H -0.1642 0.5283 -0.1612
C12 C -0.08074(17) 0.6356(2) -0.08329(18)
C13 C -0.07848(17) 0.5954(2) -0.00629(19)
C14 C -0.1165(2) 0.5007(3) -0.0024(2)
H10 H -0.1453 0.4582 -0.0508
C15 C -0.1132(2) 0.4682(3) 0.0704(3)
H11 H -0.1393 0.4029 0.0738
C16 C -0.0714(2) 0.5307(3) 0.1375(3)
H12 H -0.0679 0.5101 0.1892
C17 C -0.0339(2) 0.6229(3) 0.1307(2)
H13 H -0.0050 0.6667 0.1783
Cd1C Cd 0.462714(12) 1.303935(17) 0.449502(11)
Cd1D Cd -0.037286(12) 1.196065(17) -0.050498(11)
O2D O -0.03975(13) 0.92880(19) 0.06471(13)
O4C O 0.11237(13) 0.80246(18) 0.19412(13)
O5C O 0.16409(13) 0.69900(17) 0.13279(12)
O6 O 0.21655(17) 0.7952(2) 0.92276(17)
H14 H 0.2393 0.7360 0.9444
H15 H 0.1717 0.8021 0.9260
O7 O 0.0811(2) 0.0217(3) 0.77073(19)
H16 H 0.0790 0.0622 0.7327
H17 H 0.1068 0.0532 0.8165
loop_
_geom_bond_atom_site_label_1
_geom_bond_atom_site_label_2
_geom_bond_site_symmetry_1
_geom_bond_site_symmetry_2
Cd1 O1 1_555 1_555
P1 O1 1_555 1_555
O2 P1 1_555 1_555
O3 P1 1_555 1_555
H1 O3 1_555 1_555
O4 C7 1_555 1_555
O5 C7 1_555 1_555
N1 Cd1 1_555 1_555
N2 Cd1 1_555 1_555
C1 P1 1_555 1_555
C2 C1 1_555 1_555
H2 C2 1_555 1_555
C3 C2 1_555 1_555
H3 C3 1_555 1_555
C4 C3 1_555 1_555
C5 C4 1_555 1_555
H4 C5 1_555 1_555
C6 C1 1_555 1_555
H5 C6 1_555 1_555
C7 C4 1_555 1_555
C8 N1 1_555 1_555
H6 C8 1_555 1_555
C9 C8 1_555 1_555
H7 C9 1_555 1_555
C10 C9 1_555 1_555
H8 C10 1_555 1_555
C11 C10 1_555 1_555
H9 C11 1_555 1_555
C12 N1 1_555 1_555
C13 N2 1_555 1_555
C14 C13 1_555 1_555
H10 C14 1_555 1_555
C15 C14 1_555 1_555
H11 C15 1_555 1_555
C16 C15 1_555 1_555
H12 C16 1_555 1_555
C17 N2 1_555 1_555
H13 C17 1_555 1_555
O6 H14 1_555 1_555
H15 O6 1_555 1_555
O7 H16 1_555 1_555
H17 O7 1_555 1_555
Cd1C O4 1_555 1_555
Cd1D O2 1_555 1_555
O2D Cd1 1_555 1_555
O4C Cd1 1_555 1_555
O5C Cd1 1_555 1_555
O5 Cd1C 1_555 1_555
C5 C6 1_555 1_555
C11 C12 1_555 1_555
C12 C13 1_555 1_555
C16 C17 1_555 1_555

#END
