
#######################################################################
#
#                 Cambridge Crystallographic Data Centre
#                                CCDC 
#
#######################################################################
#
# If this CIF has been generated from an entry in the Cambridge 
# Structural Database, then it will include bibliographic, chemical, 
# crystal, experimental, refinement or atomic coordinate data resulting 
# from the CCDC's data processing and validation procedures.
#
#######################################################################

data_DIXFOH
_symmetry_cell_setting           triclinic
_symmetry_space_group_name_H-M   'P -1'
_symmetry_Int_Tables_number      2
_space_group_name_Hall           '-P 1'
loop_
_symmetry_equiv_pos_site_id
_symmetry_equiv_pos_as_xyz
1 x,y,z
2 -x,-y,-z
_cell_length_a                   13.9812(14)
_cell_length_b                   14.7218(14)
_cell_length_c                   15.0185(14)
_cell_angle_alpha                103.264(2)
_cell_angle_beta                 92.471(2)
_cell_angle_gamma                110.8650(10)
_cell_volume                     2784.85
loop_
_atom_site_label
_atom_site_type_symbol
_atom_site_fract_x
_atom_site_fract_y
_atom_site_fract_z
Cd1 Cd 0.82097(4) 0.49863(4) 0.05465(3)
Cd2 Cd 0.58029(4) 0.24942(4) 0.30947(3)
Cd3 Cd 1.04223(4) 0.67965(4) -0.03661(3)
P1 P 0.91314(13) 0.42934(13) -0.11855(11)
P2 P 0.75099(14) 0.30018(13) 0.14365(11)
O1 O 0.9086(4) 0.5341(3) -0.0840(3)
O2 O 0.8585(4) 0.3666(3) -0.0535(3)
O3 O 1.0196(4) 0.4295(4) -0.1288(3)
O4 O 0.7275(4) 0.3857(3) 0.1191(3)
O5 O 0.7157(4) 0.2801(4) 0.2340(3)
O6 O 0.5386(4) -0.1659(4) -0.1596(3)
O7 O 0.4926(4) -0.0789(4) -0.2439(3)
O8 O 0.6956(6) 0.2917(6) -0.5643(4)
O9 O 0.5769(7) 0.1784(7) -0.5180(5)
N1 N 0.6835(5) 0.5215(6) -0.0249(5)
N2 N 0.8062(5) 0.6503(5) 0.1339(5)
N3 N 0.4296(5) 0.2615(6) 0.3680(4)
N4 N 0.5885(6) 0.4165(5) 0.3343(4)
N5 N 1.0666(5) 0.8232(5) 0.0784(4)
N6 N 0.9163(5) 0.7424(5) -0.0710(4)
C1 C 0.8379(5) 0.3721(5) -0.2327(4)
C2 C 0.6838(5) 0.1869(5) 0.0507(4)
C3 C 0.7455(6) 0.2929(6) -0.2494(5)
H1 H 0.7189 0.2660 -0.1991
C4 C 0.6439(5) 0.1913(5) -0.0350(4)
H2 H 0.6482 0.2551 -0.0440
C5 C 0.6726(5) 0.0928(5) 0.0638(4)
H3 H 0.6970 0.0883 0.1228
C6 C 0.5981(5) 0.1044(5) -0.1061(4)
H4 H 0.5720 0.1087 -0.1646
C7 C 0.6260(5) 0.0055(5) -0.0086(5)
H5 H 0.6196 -0.0587 0.0006
C8 C 0.5887(5) 0.0103(5) -0.0940(4)
C9 C 0.5377(5) -0.0848(5) -0.1703(5)
C10 C 0.8748(7) 0.4110(7) -0.3042(5)
H6 H 0.9387 0.4680 -0.2935
C11 C 0.6884(6) 0.2508(6) -0.3372(5)
H7 H 0.6238 0.1945 -0.3474
C12 C 0.7247(6) 0.2883(6) -0.4090(5)
C13 C 0.6624(9) 0.2495(9) -0.5050(6)
C14 C 0.8165(8) 0.3674(8) -0.3935(5)
H8 H 0.8422 0.3933 -0.4445
C15 C 1.1403(7) 0.8637(6) 0.1517(6)
H9 H 1.1891 0.8324 0.1569
C16 C 1.1491(8) 0.9474(8) 0.2195(7)
H10 H 1.2005 0.9721 0.2729
C17 C 1.0831(9) 0.9952(7) 0.2118(7)
H11 H 1.0892 1.0547 0.2581
C18 C 1.0046(7) 0.9583(6) 0.1361(6)
C19 C 0.9996(6) 0.8707(5) 0.0694(5)
C20 C 0.9342(8) 1.0037(7) 0.1233(7)
H12 H 0.9394 1.0640 0.1681
C21 C 0.8603(8) 0.9648(7) 0.0503(8)
H13 H 0.8132 0.9977 0.0438
C22 C 0.8490(6) 0.8743(6) -0.0183(6)
C23 C 0.7746(8) 0.8306(8) -0.0922(7)
H14 H 0.7248 0.8599 -0.1012
C24 C 0.7671(7) 0.7431(9) -0.1560(7)
H15 H 0.7148 0.7120 -0.2090
C25 C 0.8426(7) 0.7005(7) -0.1415(6)
H16 H 0.8386 0.6390 -0.1837
C26 C 0.8661(8) 0.7127(7) 0.2103(7)
H17 H 0.9229 0.6980 0.2324
C27 C 0.8509(11) 0.8008(8) 0.2613(9)
H18 H 0.8955 0.8436 0.3171
C28 C 0.7698(11) 0.8191(9) 0.2232(10)
H19 H 0.7582 0.8779 0.2551
C29 C 0.7070(9) 0.7571(8) 0.1435(9)
C30 C 0.7270(7) 0.6700(7) 0.0996(8)
C31 C 0.5839(9) 0.6264(9) -0.0236(8)
C32 C 0.5716(10) 0.7189(10) 0.0256(10)
H20 H 0.5210 0.7368 -0.0037
C33 C 0.6252(10) 0.7772(9) 0.1011(10)
H21 H 0.6077 0.8329 0.1315
C34 C 0.5271(9) 0.5583(11) -0.1046(9)
H22 H 0.4707 0.5699 -0.1320
C35 C 0.5468(9) 0.4744(11) -0.1473(8)
H23 H 0.5069 0.4289 -0.2043
C36 C 0.6274(7) 0.4593(10) -0.1035(6)
H24 H 0.6425 0.4011 -0.1307
C37 C 0.6648(7) 0.6057(8) 0.0165(7)
C38 C 0.9212(5) 0.8285(5) -0.0089(5)
C39 C 0.6694(9) 0.4922(7) 0.3240(6)
H25 H 0.7277 0.4781 0.3029
C40 C 0.6764(11) 0.5930(8) 0.3449(7)
H26 H 0.7367 0.6463 0.3369
C41 C 0.5963(12) 0.6121(9) 0.3733(7)
H27 H 0.5995 0.6802 0.3898
C42 C 0.5009(11) 0.5334(10) 0.3812(5)
C43 C 0.5051(8) 0.4342(8) 0.3641(5)
C44 C 0.4194(7) 0.3508(8) 0.3794(5)
C45 C 0.3297(9) 0.3686(10) 0.4063(6)
C46 C 0.3294(11) 0.4670(12) 0.4199(8)
H28 H 0.2686 0.4786 0.4374
C47 C 0.4027(12) 0.5405(11) 0.4085(8)
H29 H 0.4002 0.6064 0.4191
C48 C 0.2522(10) 0.2845(12) 0.4215(8)
H30 H 0.1893 0.2900 0.4405
C49 C 0.2605(9) 0.1959(11) 0.4111(8)
H31 H 0.2058 0.1386 0.4205
C50 C 0.3536(8) 0.1870(10) 0.3843(7)
H32 H 0.3612 0.1235 0.3777
O10 O 0.8654(4) 0.3162(4) 0.1479(3)
Cd1A Cd 1.17903(4) 0.50137(4) -0.05465(3)
Cd2_2 Cd 0.58029(4) 0.24942(4) -0.69053(3)
Cd2A Cd 0.41971(4) -0.24942(4) -0.30947(3)
Cd3A Cd 0.95777(4) 0.32035(4) 0.03661(3)
O2A O 1.1415(4) 0.6334(3) 0.0535(3)
O3A O 0.9804(4) 0.5705(4) 0.1288(3)
O6A O 0.4614(4) 0.1659(4) 0.1596(3)
O7A O 0.5074(4) 0.0789(4) 0.2439(3)
O8_2 O 0.6956(6) 0.2917(6) 0.4357(4)
O10A O 1.1346(4) 0.6838(4) -0.1479(3)
O11 O 0.3719(9) 0.0206(8) 0.7139(7)
H33 H 0.3699 -0.0393 0.7032
H34 H 0.4116 0.0561 0.7639
O12 O 0.8845(10) 0.4061(10) 0.3800(8)
H35 H 0.9155 0.3658 0.3795
H36 H 0.9068 0.4407 0.3418
O13 O 0.0556(11) 0.3872(16) 0.4876(13)
H37 H 0.0079 0.3342 0.4930
H38 H 0.0741 0.4312 0.5393
O14 O 0.8049(14) 0.1365(14) 0.3079(12)
H39 H 0.7785 0.0728 0.2978
H40 H 0.8398 0.1520 0.2649
O15 O 0.5950(16) 0.8564(16) 0.4062(14)
H41 H 0.5776 0.8319 0.4517
H42 H 0.6415 0.9152 0.4255
O16 O 1.236(3) 0.957(3) 0.468(2)
H43 H 1.2055 0.9725 0.5138
H44 H 1.2831 0.9388 0.4860
loop_
_geom_bond_atom_site_label_1
_geom_bond_atom_site_label_2
_geom_bond_site_symmetry_1
_geom_bond_site_symmetry_2
Cd1 O1 1_555 1_555
Cd2 O5 1_555 1_555
Cd3 O1 1_555 1_555
P1 O1 1_555 1_555
P2 O4 1_555 1_555
O2 Cd1 1_555 1_555
O3 P1 1_555 1_555
O4 Cd1 1_555 1_555
O5 P2 1_555 1_555
O6 C9 1_555 1_555
O7 C9 1_555 1_555
O8 C13 1_555 1_555
O9 C13 1_555 1_555
N1 Cd1 1_555 1_555
N2 Cd1 1_555 1_555
N3 Cd2 1_555 1_555
N4 Cd2 1_555 1_555
N5 Cd3 1_555 1_555
N6 Cd3 1_555 1_555
C1 P1 1_555 1_555
C2 P2 1_555 1_555
C3 C1 1_555 1_555
H1 C3 1_555 1_555
C4 C2 1_555 1_555
H2 C4 1_555 1_555
C5 C2 1_555 1_555
H3 C5 1_555 1_555
C6 C4 1_555 1_555
H4 C6 1_555 1_555
C7 C5 1_555 1_555
H5 C7 1_555 1_555
C8 C6 1_555 1_555
C9 C8 1_555 1_555
C10 C1 1_555 1_555
H6 C10 1_555 1_555
C11 C3 1_555 1_555
H7 C11 1_555 1_555
C12 C11 1_555 1_555
C13 C12 1_555 1_555
C14 C10 1_555 1_555
H8 C14 1_555 1_555
C15 N5 1_555 1_555
H9 C15 1_555 1_555
C16 C15 1_555 1_555
H10 C16 1_555 1_555
C17 C16 1_555 1_555
H11 C17 1_555 1_555
C18 C17 1_555 1_555
C19 N5 1_555 1_555
C20 C18 1_555 1_555
H12 C20 1_555 1_555
C21 C20 1_555 1_555
H13 C21 1_555 1_555
C22 C21 1_555 1_555
C23 C22 1_555 1_555
H14 C23 1_555 1_555
C24 C23 1_555 1_555
H15 C24 1_555 1_555
C25 N6 1_555 1_555
H16 C25 1_555 1_555
C26 N2 1_555 1_555
H17 C26 1_555 1_555
C27 C26 1_555 1_555
H18 C27 1_555 1_555
C28 C27 1_555 1_555
H19 C28 1_555 1_555
C29 C28 1_555 1_555
C30 N2 1_555 1_555
C31 C32 1_555 1_555
C32 H20 1_555 1_555
C33 C29 1_555 1_555
H21 C33 1_555 1_555
C34 C31 1_555 1_555
H22 C34 1_555 1_555
C35 C34 1_555 1_555
H23 C35 1_555 1_555
C36 N1 1_555 1_555
H24 C36 1_555 1_555
C37 N1 1_555 1_555
C38 N6 1_555 1_555
C39 N4 1_555 1_555
H25 C39 1_555 1_555
C40 C39 1_555 1_555
H26 C40 1_555 1_555
C41 C40 1_555 1_555
H27 C41 1_555 1_555
C42 C41 1_555 1_555
C43 N4 1_555 1_555
C44 N3 1_555 1_555
C45 C44 1_555 1_555
C46 C45 1_555 1_555
H28 C46 1_555 1_555
C47 C42 1_555 1_555
H29 C47 1_555 1_555
C48 C45 1_555 1_555
H30 C48 1_555 1_555
C49 C48 1_555 1_555
H31 C49 1_555 1_555
C50 N3 1_555 1_555
H32 C50 1_555 1_555
O10 P2 1_555 1_555
O11 H33 1_555 1_555
H34 O11 1_555 1_555
O12 H35 1_555 1_555
H36 O12 1_555 1_555
O13 H37 1_555 1_555
H38 O13 1_555 1_555
O14 H39 1_555 1_555
H40 O14 1_555 1_555
O15 H41 1_555 1_555
H42 O15 1_555 1_555
O16 H43 1_555 1_555
H44 O16 1_555 1_555
Cd1A O3 1_555 1_555
Cd2_2 O8 1_555 1_555
Cd2A O6 1_555 1_555
Cd3A O2 1_555 1_555
O2A Cd3 1_555 1_555
O3A Cd1 1_555 1_555
O6A Cd2 1_555 1_555
O7A Cd2 1_555 1_555
O8_2 Cd2 1_555 1_555
O10A Cd3 1_555 1_555
P1 O2 1_555 1_555
O7 Cd2A 1_555 1_555
C7 C8 1_555 1_555
C12 C14 1_555 1_555
C18 C19 1_555 1_555
C19 C38 1_555 1_555
C22 C38 1_555 1_555
C24 C25 1_555 1_555
C29 C30 1_555 1_555
C30 C37 1_555 1_555
C31 C37 1_555 1_555
C32 C33 1_555 1_555
C35 C36 1_555 1_555
C42 C43 1_555 1_555
C43 C44 1_555 1_555
C46 C47 1_555 1_555
C49 C50 1_555 1_555
O10 Cd3A 1_555 1_555
Cd1A O2A 1_555 1_555

#END
