
#######################################################################
#
#                 Cambridge Crystallographic Data Centre
#                                CCDC 
#
#######################################################################
#
# If this CIF has been generated from an entry in the Cambridge 
# Structural Database, then it will include bibliographic, chemical, 
# crystal, experimental, refinement or atomic coordinate data resulting 
# from the CCDC's data processing and validation procedures.
#
#######################################################################

data_DIXFEX
_symmetry_cell_setting           triclinic
_symmetry_space_group_name_H-M   'P -1'
_symmetry_Int_Tables_number      2
_space_group_name_Hall           '-P 1'
loop_
_symmetry_equiv_pos_site_id
_symmetry_equiv_pos_as_xyz
1 x,y,z
2 -x,-y,-z
_cell_length_a                   5.6590(13)
_cell_length_b                   7.9562(18)
_cell_length_c                   19.147(4)
_cell_angle_alpha                96.620(3)
_cell_angle_beta                 95.808(4)
_cell_angle_gamma                98.313(3)
_cell_volume                     841.218
loop_
_atom_site_label
_atom_site_type_symbol
_atom_site_fract_x
_atom_site_fract_y
_atom_site_fract_z
Cd1 Cd 0.5000 0.0000 0.5000
Cd2 Cd 0.08915(6) 0.29760(4) 0.483074(16)
P1 P 0.5697(2) 0.37816(16) 0.40548(6)
P2 P 0.0793(2) 0.08610(15) 0.60402(6)
O1 O 0.8237(6) 0.4591(4) 0.43754(17)
O2 O 0.4468(6) 0.2410(4) 0.44396(17)
O3 O 0.4042(6) 0.5222(5) 0.40868(19)
H1 H 0.4882 0.6167 0.4127
O4 O 0.3298(11) -0.0013(9) 0.0680(3)
O5 O 0.6881(11) 0.1491(9) 0.0626(3)
H2 H 0.6625 0.0998 0.0201
O6 O 0.3156(6) 0.1697(4) 0.57831(18)
O7 O 0.0745(6) -0.1033(4) 0.60536(18)
O8 O -0.1306(6) 0.1328(4) 0.55593(17)
O9 O 0.1855(11) 0.3741(9) 0.9540(2)
H3 H 0.1606 0.4229 0.9939
O10 O -0.1490(10) 0.4721(9) 0.9183(3)
C1 C 0.5612(9) 0.3003(6) 0.3132(2)
C2 C 0.3451(9) 0.2014(7) 0.2789(3)
H4 H 0.2149 0.1769 0.3040
C3 C 0.3279(11) 0.1407(8) 0.2072(3)
H5 H 0.1858 0.0758 0.1840
C4 C 0.5249(11) 0.1778(8) 0.1705(3)
C5 C 0.5126(13) 0.1033(10) 0.0947(3)
C6 C 0.7380(10) 0.2778(8) 0.2052(3)
H6 H 0.8686 0.3035 0.1803
C7 C 0.7532(9) 0.3377(7) 0.2760(3)
H7 H 0.8945 0.4042 0.2989
C8 C 0.0654(8) 0.1793(6) 0.6937(2)
C9 C 0.2425(10) 0.1669(8) 0.7484(3)
H8 H 0.3715 0.1118 0.7382
C10 C 0.2296(11) 0.2347(8) 0.8173(3)
H9 H 0.3492 0.2259 0.8531
C11 C 0.0371(10) 0.3161(7) 0.8326(3)
C12 C -0.1399(10) 0.3295(8) 0.7797(3)
H10 H -0.2678 0.3854 0.7904
C13 C -0.1285(10) 0.2608(7) 0.7111(3)
H11 H -0.2509 0.2683 0.6759
C14 C 0.0221(12) 0.3942(9) 0.9067(3)
Cd2A Cd -0.08915(6) -0.29760(4) 0.516926(16)
P1A P -0.5697(2) -0.37816(16) 0.59452(6)
P2A P -0.0793(2) -0.08610(15) 0.39598(6)
O1A O -0.8237(6) -0.4591(4) 0.56246(17)
O2A O -0.4468(6) -0.2410(4) 0.55604(17)
O3A O -0.4042(6) -0.5222(5) 0.59132(19)
H1A H -0.4882 -0.6167 0.5873
O4A O -0.3298(11) 0.0013(9) 0.9320(3)
O5A O -0.6881(11) -0.1491(9) 0.9374(3)
H2A H -0.6625 -0.0998 0.9799
O6A O -0.3156(6) -0.1697(4) 0.42169(18)
O7A O -0.0745(6) 0.1033(4) 0.39464(18)
O8A O 0.1306(6) -0.1328(4) 0.44407(17)
O9A O -0.1855(11) -0.3741(9) 0.0460(2)
H3A H -0.1606 -0.4229 0.0061
O10A O 0.1490(10) -0.4721(9) 0.0817(3)
C1A C -0.5612(9) -0.3003(6) 0.6868(2)
C2A C -0.3451(9) -0.2014(7) 0.7211(3)
H4A H -0.2149 -0.1769 0.6960
C3A C -0.3279(11) -0.1407(8) 0.7928(3)
H5A H -0.1858 -0.0758 0.8160
C4A C -0.5249(11) -0.1778(8) 0.8295(3)
C5A C -0.5126(13) -0.1033(10) 0.9053(3)
C6A C -0.7380(10) -0.2778(8) 0.7948(3)
H6A H -0.8686 -0.3035 0.8197
C7A C -0.7532(9) -0.3377(7) 0.7240(3)
H7A H -0.8945 -0.4042 0.7011
C8A C -0.0654(8) -0.1793(6) 0.3063(2)
C9A C -0.2425(10) -0.1669(8) 0.2516(3)
H8A H -0.3715 -0.1118 0.2618
C10A C -0.2296(11) -0.2347(8) 0.1827(3)
H9A H -0.3492 -0.2259 0.1469
C11A C -0.0371(10) -0.3161(7) 0.1674(3)
C12A C 0.1399(10) -0.3295(8) 0.2203(3)
H10A H 0.2678 -0.3854 0.2096
C13A C 0.1285(10) -0.2608(7) 0.2889(3)
H11A H 0.2509 -0.2683 0.3241
C14A C -0.0221(12) -0.3942(9) 0.0933(3)
Cd1_2 Cd -0.5000 0.0000 0.5000
Cd2_2 Cd -0.91085(6) -0.70240(4) 0.483074(16)
Cd2_3 Cd 1.08915(6) 0.29760(4) 0.483074(16)
Cd2A_2 Cd -1.08915(6) -0.29760(4) 0.516926(16)
Cd2A_3 Cd 0.91085(6) 0.70240(4) 0.516926(16)
O1_2 O -0.1763(6) -0.5409(4) 0.43754(17)
O1_3 O -0.1763(6) 0.4591(4) 0.43754(17)
O1A_2 O 0.1763(6) -0.4591(4) 0.56246(17)
O1A_3 O 0.1763(6) 0.5409(4) 0.56246(17)
O2A_2 O 0.5532(6) -0.2410(4) 0.55604(17)
O6A_2 O 0.6844(6) -0.1697(4) 0.42169(18)
O8_2 O 0.8694(6) 0.1328(4) 0.55593(17)
loop_
_geom_bond_atom_site_label_1
_geom_bond_atom_site_label_2
_geom_bond_site_symmetry_1
_geom_bond_site_symmetry_2
Cd1 O2 1_555 1_555
Cd2 O2 1_555 1_555
P1 O1 1_555 1_555
P2 O6 1_555 1_555
O1 Cd2_3 1_555 1_555
O2 P1 1_555 1_555
O3 P1 1_555 1_555
H1 O3 1_555 1_555
O4 C5 1_555 1_555
O5 H2 1_555 1_555
O6 Cd1 1_555 1_555
O7 P2 1_555 1_555
O8 Cd2 1_555 1_555
O9 H3 1_555 1_555
O10 C14 1_555 1_555
C1 P1 1_555 1_555
C2 C1 1_555 1_555
H4 C2 1_555 1_555
C3 C2 1_555 1_555
H5 C3 1_555 1_555
C4 C3 1_555 1_555
C5 O5 1_555 1_555
C6 C4 1_555 1_555
H6 C6 1_555 1_555
C7 C1 1_555 1_555
H7 C7 1_555 1_555
C8 P2 1_555 1_555
C9 C8 1_555 1_555
H8 C9 1_555 1_555
C10 C9 1_555 1_555
H9 C10 1_555 1_555
C11 C10 1_555 1_555
C12 C11 1_555 1_555
H10 C12 1_555 1_555
C13 C8 1_555 1_555
H11 C13 1_555 1_555
C14 O9 1_555 1_555
Cd2A O7 1_555 1_555
P1A O1A 1_555 1_555
P2A O6A 1_555 1_555
O1A Cd2_2 1_555 1_555
O2A Cd2A 1_555 1_555
O3A P1A 1_555 1_555
H1A O3A 1_555 1_555
O4A C5A 1_555 1_555
O5A H2A 1_555 1_555
O6A Cd2A 1_555 1_555
O7A Cd2 1_555 1_555
O8A Cd1 1_555 1_555
O9A H3A 1_555 1_555
O10A C14A 1_555 1_555
C1A P1A 1_555 1_555
C2A C1A 1_555 1_555
H4A C2A 1_555 1_555
C3A C2A 1_555 1_555
H5A C3A 1_555 1_555
C4A C3A 1_555 1_555
C5A O5A 1_555 1_555
C6A C4A 1_555 1_555
H6A C6A 1_555 1_555
C7A C1A 1_555 1_555
H7A C7A 1_555 1_555
C8A P2A 1_555 1_555
C9A C8A 1_555 1_555
H8A C9A 1_555 1_555
C10A C9A 1_555 1_555
H9A C10A 1_555 1_555
C11A C10A 1_555 1_555
C12A C11A 1_555 1_555
H10A C12A 1_555 1_555
C13A C8A 1_555 1_555
H11A C13A 1_555 1_555
C14A O9A 1_555 1_555
Cd1_2 O8 1_555 1_555
Cd2_3 O8_2 1_555 1_555
Cd2A_2 O1A 1_555 1_555
Cd2A_3 O1 1_555 1_555
O1_2 Cd2A 1_555 1_555
O1_3 Cd2 1_555 1_555
O1A_2 Cd2A 1_555 1_555
O1A_3 Cd2 1_555 1_555
O2A_2 Cd1 1_555 1_555
O6A_2 Cd1 1_555 1_555
O8_2 Cd1 1_555 1_555
Cd2 O6 1_555 1_555
P2 O8 1_555 1_555
C4 C5 1_555 1_555
C6 C7 1_555 1_555
C11 C14 1_555 1_555
C12 C13 1_555 1_555
Cd2A O8A 1_555 1_555
P1A O2A 1_555 1_555
P2A O7A 1_555 1_555
P2A O8A 1_555 1_555
O2A Cd1_2 1_555 1_555
O6A Cd1_2 1_555 1_555
C4A C5A 1_555 1_555
C6A C7A 1_555 1_555
C11A C14A 1_555 1_555
C12A C13A 1_555 1_555

#END
