
#######################################################################
#
#                 Cambridge Crystallographic Data Centre
#                                CCDC 
#
#######################################################################
#
# If this CIF has been generated from an entry in the Cambridge 
# Structural Database, then it will include bibliographic, chemical, 
# crystal, experimental, refinement or atomic coordinate data resulting 
# from the CCDC's data processing and validation procedures.
#
#######################################################################

data_DIXNII
_symmetry_cell_setting           tetragonal
_symmetry_space_group_name_H-M   'I 41/a'
_symmetry_Int_Tables_number      88
_space_group_name_Hall           '-I 4ad'
loop_
_symmetry_equiv_pos_site_id
_symmetry_equiv_pos_as_xyz
1 x,y,z
2 3/4-y,1/4+x,1/4+z
3 1/2+x,1/2+y,1/2+z
4 1/4-y,3/4+x,3/4+z
5 1/4+y,1/4-x,1/4+z
6 1/2-x,-y,1/2+z
7 3/4+y,3/4-x,3/4+z
8 -x,1/2-y,z
9 -x,-y,-z
10 1/4+y,3/4-x,3/4-z
11 1/2-x,1/2-y,1/2-z
12 3/4+y,1/4-x,1/4-z
13 3/4-y,3/4+x,3/4-z
14 1/2+x,y,1/2-z
15 1/4-y,1/4+x,1/4-z
16 x,1/2+y,-z
_cell_length_a                   21.470(3)
_cell_length_b                   21.470(3)
_cell_length_c                   12.929(3)
_cell_angle_alpha                90
_cell_angle_beta                 90
_cell_angle_gamma                90
_cell_volume                     5959.76
loop_
_atom_site_label
_atom_site_type_symbol
_atom_site_fract_x
_atom_site_fract_y
_atom_site_fract_z
Ni1 Ni 0.5000 0.5000 0.0000
O1 O 0.50145(9) 0.57561(8) 0.08848(17)
V1 V 0.50166(2) 0.63975(2) 0.15825(4)
N1 N 0.46334(11) 0.44676(11) 0.1295(2)
C1 C 0.40689(14) 0.38639(14) 0.2983(3)
C2 C 0.46262(15) 0.47187(14) 0.2233(3)
H1 H 0.4811 0.5107 0.2320
O2 O 0.50430(12) 0.62128(12) 0.2794(2)
C3 C 0.40893(16) 0.35987(15) 0.2022(3)
H2 H 0.3913 0.3208 0.1916
O3 O 0.43299(11) 0.68178(11) 0.1298(2)
C4 C 0.43699(15) 0.39056(14) 0.1209(3)
H3 H 0.4376 0.3711 0.0566
C5 C 0.43612(16) 0.44395(15) 0.3085(3)
H4 H 0.4377 0.4635 0.3726
C6 C 0.37458(15) 0.35607(17) 0.3891(3)
H5 H 0.3918 0.3728 0.4527
H6 H 0.3831 0.3117 0.3879
C7 C 0.30405(15) 0.36599(16) 0.3894(3)
H7 H 0.2863 0.3454 0.3294
H8 H 0.2867 0.3464 0.4506
N2 N 0.09258(10) 0.47825(11) 0.4528(2)
C8 C 0.21680(14) 0.44755(14) 0.4078(2)
C9 C 0.11137(14) 0.41907(14) 0.4458(3)
H9 H 0.0822 0.3877 0.4563
C10 C 0.19669(14) 0.50890(14) 0.4129(3)
H10 H 0.2247 0.5412 0.4019
C11 C 0.13572(14) 0.52187(14) 0.4342(3)
H11 H 0.1235 0.5634 0.4359
C12 C 0.28519(14) 0.43367(15) 0.3880(3)
H12 H 0.2962 0.4509 0.3211
H13 H 0.3096 0.4555 0.4397
C13 C 0.17203(14) 0.40209(14) 0.4237(3)
H14 H 0.1828 0.3602 0.4194
Ni1M Ni 0.0000 0.5000 0.5000
Ni1M_2 Ni 1.0000 0.5000 -0.5000
O1H O 0.49855(9) 0.42439(8) -0.08848(17)
V1H V 0.49834(2) 0.36025(2) -0.15825(4)
V1K V 0.38975(2) 0.74834(2) 0.09175(4)
V1N V 0.61025(2) 0.75166(2) 0.09175(4)
N1H N 0.53666(11) 0.55324(11) -0.1295(2)
C1H C 0.59311(14) 0.61361(14) -0.2983(3)
C2H C 0.53738(15) 0.52813(14) -0.2233(3)
H1H H 0.5189 0.4893 -0.2320
O2H O 0.49570(12) 0.37872(12) -0.2794(2)
C3H C 0.59107(16) 0.64013(15) -0.2022(3)
H2H H 0.6087 0.6792 -0.1916
O3N O 0.56822(11) 0.68299(11) 0.1202(2)
O3H O 0.56701(11) 0.31822(11) -0.1298(2)
O3F O 0.43178(11) 0.31701(11) -0.1202(2)
C4H C 0.56301(15) 0.60944(14) -0.1209(3)
H3H H 0.5624 0.6289 -0.0566
C5H C 0.56388(16) 0.55605(15) -0.3085(3)
H4H H 0.5623 0.5365 -0.3726
C6H C 0.62542(15) 0.64393(17) -0.3891(3)
H5H H 0.6082 0.6272 -0.4527
H6H H 0.6169 0.6883 -0.3879
C7H C 0.69595(15) 0.63401(16) -0.3894(3)
H7H H 0.7137 0.6546 -0.3294
H8H H 0.7133 0.6536 -0.4506
N2H N 0.90742(10) 0.52175(11) -0.4528(2)
N2M N 0.59258(10) 0.47825(11) 0.0472(2)
N2E N 0.40742(10) 0.52175(11) -0.0472(2)
C8H C 0.78320(14) 0.55245(14) -0.4078(2)
C9H C 0.88863(14) 0.58093(14) -0.4458(3)
H9H H 0.9178 0.6123 -0.4563
C10H C 0.80331(14) 0.49110(14) -0.4129(3)
H10H H 0.7753 0.4588 -0.4019
C11H C 0.86428(14) 0.47813(14) -0.4342(3)
H11H H 0.8765 0.4366 -0.4359
C12H C 0.71481(14) 0.56633(15) -0.3880(3)
H12H H 0.7038 0.5491 -0.3211
H13H H 0.6904 0.5445 -0.4397
C13H C 0.82797(14) 0.59791(14) -0.4237(3)
H14H H 0.8172 0.6398 -0.4194
loop_
_geom_bond_atom_site_label_1
_geom_bond_atom_site_label_2
_geom_bond_site_symmetry_1
_geom_bond_site_symmetry_2
Ni1 O1 1_555 1_555
O1 V1 1_555 1_555
V1 O2 1_555 1_555
N1 Ni1 1_555 1_555
C1 C3 1_555 1_555
C2 N1 1_555 1_555
H1 C2 1_555 1_555
C3 H2 1_555 1_555
O3 V1 1_555 1_555
C4 N1 1_555 1_555
H3 C4 1_555 1_555
C5 C1 1_555 1_555
H4 C5 1_555 1_555
C6 C1 1_555 1_555
H5 C6 1_555 1_555
H6 C6 1_555 1_555
C7 C6 1_555 1_555
H7 C7 1_555 1_555
H8 C7 1_555 1_555
N2 C9 1_555 1_555
C8 C10 1_555 1_555
C9 H9 1_555 1_555
C10 H10 1_555 1_555
C11 N2 1_555 1_555
H11 C11 1_555 1_555
C12 C7 1_555 1_555
H12 C12 1_555 1_555
H13 C12 1_555 1_555
C13 C8 1_555 1_555
H14 C13 1_555 1_555
Ni1M N2 1_555 1_555
Ni1M_2 N2H 1_555 1_555
O1H Ni1 1_555 1_555
V1H O1H 1_555 1_555
V1K O3 1_555 1_555
V1N O3N 1_555 1_555
N1H Ni1 1_555 1_555
C1H C3H 1_555 1_555
C2H N1H 1_555 1_555
H1H C2H 1_555 1_555
O2H V1H 1_555 1_555
C3H H2H 1_555 1_555
O3N V1 1_555 1_555
O3H V1H 1_555 1_555
O3F V1H 1_555 1_555
C4H N1H 1_555 1_555
H3H C4H 1_555 1_555
C5H C1H 1_555 1_555
H4H C5H 1_555 1_555
C6H C1H 1_555 1_555
H5H C6H 1_555 1_555
H6H C6H 1_555 1_555
C7H C6H 1_555 1_555
H7H C7H 1_555 1_555
H8H C7H 1_555 1_555
N2H C9H 1_555 1_555
N2M Ni1 1_555 1_555
N2E Ni1 1_555 1_555
C8H C10H 1_555 1_555
C9H H9H 1_555 1_555
C10H H10H 1_555 1_555
C11H N2H 1_555 1_555
H11H C11H 1_555 1_555
C12H C7H 1_555 1_555
H12H C12H 1_555 1_555
H13H C12H 1_555 1_555
C13H C8H 1_555 1_555
H14H C13H 1_555 1_555
C2 C5 1_555 1_555
C3 C4 1_555 1_555
C8 C12 1_555 1_555
C9 C13 1_555 1_555
C10 C11 1_555 1_555
C2H C5H 1_555 1_555
C3H C4H 1_555 1_555
C8H C12H 1_555 1_555
C9H C13H 1_555 1_555
C10H C11H 1_555 1_555

#END
