
#######################################################################
#
#                 Cambridge Crystallographic Data Centre
#                                CCDC 
#
#######################################################################
#
# If this CIF has been generated from an entry in the Cambridge 
# Structural Database, then it will include bibliographic, chemical, 
# crystal, experimental, refinement or atomic coordinate data resulting 
# from the CCDC's data processing and validation procedures.
#
#######################################################################

data_DIXPOR
_symmetry_cell_setting           orthorhombic
_symmetry_space_group_name_H-M   'P b c a'
_symmetry_Int_Tables_number      61
_space_group_name_Hall           '-P 2ac 2ab'
loop_
_symmetry_equiv_pos_site_id
_symmetry_equiv_pos_as_xyz
1 x,y,z
2 1/2+x,1/2-y,-z
3 -x,1/2+y,1/2-z
4 1/2-x,-y,1/2+z
5 -x,-y,-z
6 1/2-x,1/2+y,z
7 x,1/2-y,1/2+z
8 1/2+x,y,1/2-z
_cell_length_a                   16.3111(2)
_cell_length_b                   9.4077(1)
_cell_length_c                   24.1767(4)
_cell_angle_alpha                90
_cell_angle_beta                 90
_cell_angle_gamma                90
_cell_volume                     3709.91
loop_
_atom_site_label
_atom_site_type_symbol
_atom_site_fract_x
_atom_site_fract_y
_atom_site_fract_z
Hg1 Hg 0.064886(12) 0.04797(2) 0.205310(10)
O1 O 0.1728(3) 0.5830(4) 0.01424(18)
O2 O 0.0329(3) 0.0465(4) 0.0933(2)
O3 O -0.0482(2) 0.0929(5) 0.16251(19)
O4 O -0.0960(3) 0.0929(6) 0.0787(2)
O5 O 0.0181(2) 0.2857(4) 0.26193(18)
O6 O -0.0620(2) 0.2760(4) 0.33346(18)
O7 O -0.0205(3) 0.0822(4) 0.29445(17)
N1 N 0.1653(3) -0.0405(5) 0.25543(19)
N2 N 0.1878(2) 0.1658(4) 0.17612(19)
N3 N -0.0370(3) 0.0765(5) 0.1090(2)
N4 N -0.0214(3) 0.2144(5) 0.2969(2)
C1 C 0.2418(3) -0.0010(6) 0.2415(2)
C2 C 0.3097(3) -0.0564(5) 0.2680(3)
H1 H 0.3634 -0.0284 0.2573
C3 C 0.2980(4) -0.1541(7) 0.3105(3)
H2 H 0.3435 -0.1934 0.3297
C4 C 0.2195(4) -0.1925(6) 0.3241(3)
H3 H 0.2101 -0.2594 0.3528
C5 C 0.1543(4) -0.1343(6) 0.2961(2)
H4 H 0.1002 -0.1614 0.3061
C6 C 0.2509(3) 0.1089(6) 0.1977(2)
H5 H 0.3041 0.1368 0.1859
C7 C 0.1909(3) 0.2732(5) 0.1352(2)
C8 C 0.2592(3) 0.3043(6) 0.1036(3)
H6 H 0.3089 0.2544 0.1099
C9 C 0.2558(4) 0.4075(6) 0.0628(3)
H7 H 0.3026 0.4265 0.0407
C10 C 0.1842(4) 0.4827(6) 0.0544(2)
C11 C 0.1161(4) 0.4556(6) 0.0877(3)
H8 H 0.0674 0.5098 0.0830
C12 C 0.1193(3) 0.3509(6) 0.1270(3)
H9 H 0.0723 0.3312 0.1489
C13 C 0.2404(4) 0.6103(8) -0.0227(3)
H10 H 0.2890 0.6363 -0.0011
H11 H 0.2261 0.6885 -0.0477
H12 H 0.2520 0.5247 -0.0444
Hg1B Hg -0.064886(12) 0.54797(2) 0.294690(10)
O5B O -0.0181(2) -0.2143(4) 0.23807(18)
O6B O 0.0620(2) -0.2240(4) 0.16654(18)
N5 N 0.6154(4) 0.1428(8) 0.0931(3)
C14 C 0.5162(4) 0.2545(8) 0.0226(3)
H13 H 0.4926 0.1801 -0.0009
H14 H 0.5456 0.3233 -0.0005
H15 H 0.4721 0.3032 0.0426
C15 C 0.5729(5) 0.1909(9) 0.0620(3)
loop_
_geom_bond_atom_site_label_1
_geom_bond_atom_site_label_2
_geom_bond_site_symmetry_1
_geom_bond_site_symmetry_2
Hg1 O2 1_555 1_555
O1 C10 1_555 1_555
O2 N3 1_555 1_555
O3 Hg1 1_555 1_555
O4 N3 1_555 1_555
O5 Hg1 1_555 1_555
O6 N4 1_555 1_555
O7 Hg1 1_555 1_555
N1 Hg1 1_555 1_555
N2 Hg1 1_555 1_555
N3 O3 1_555 1_555
N4 O5 1_555 1_555
C1 N1 1_555 1_555
C2 C1 1_555 1_555
H1 C2 1_555 1_555
C3 C2 1_555 1_555
H2 C3 1_555 1_555
C4 C3 1_555 1_555
H3 C4 1_555 1_555
C5 N1 1_555 1_555
H4 C5 1_555 1_555
C6 N2 1_555 1_555
H5 C6 1_555 1_555
C7 N2 1_555 1_555
C8 C7 1_555 1_555
H6 C8 1_555 1_555
C9 C8 1_555 1_555
H7 C9 1_555 1_555
C10 C9 1_555 1_555
C11 C10 1_555 1_555
H8 C11 1_555 1_555
C12 C7 1_555 1_555
H9 C12 1_555 1_555
C13 O1 1_555 1_555
H10 C13 1_555 1_555
H11 C13 1_555 1_555
H12 C13 1_555 1_555
N5 C15 1_555 1_555
C14 H13 1_555 1_555
H14 C14 1_555 1_555
H15 C14 1_555 1_555
C15 C14 1_555 1_555
Hg1B O5 1_555 1_555
O5B Hg1 1_555 1_555
O6B Hg1 1_555 1_555
O6 Hg1B 1_555 1_555
O7 N4 1_555 1_555
C1 C6 1_555 1_555
C4 C5 1_555 1_555
C11 C12 1_555 1_555

#END
