
#######################################################################
#
#                 Cambridge Crystallographic Data Centre
#                                CCDC 
#
#######################################################################
#
# If this CIF has been generated from an entry in the Cambridge 
# Structural Database, then it will include bibliographic, chemical, 
# crystal, experimental, refinement or atomic coordinate data resulting 
# from the CCDC's data processing and validation procedures.
#
#######################################################################

data_DIXROR
_symmetry_cell_setting           monoclinic
_symmetry_space_group_name_H-M   'C 2/c'
_symmetry_Int_Tables_number      15
_space_group_name_Hall           '-C 2yn'
loop_
_symmetry_equiv_pos_site_id
_symmetry_equiv_pos_as_xyz
1 x,y,z
2 1/2+x,1/2+y,z
3 -x,y,1/2-z
4 1/2-x,1/2+y,1/2-z
5 -x,-y,-z
6 1/2-x,1/2-y,-z
7 x,-y,1/2+z
8 1/2+x,1/2-y,1/2+z
_cell_length_a                   20.789(6)
_cell_length_b                   5.202(1)
_cell_length_c                   17.318(6)
_cell_angle_alpha                90
_cell_angle_beta                 105.89(2)
_cell_angle_gamma                90
_cell_volume                     1801.28
loop_
_atom_site_label
_atom_site_type_symbol
_atom_site_fract_x
_atom_site_fract_y
_atom_site_fract_z
Ag1 Ag -0.55935(2) -0.32425(9) -0.51470(3)
C1 C -0.3511(2) -0.3086(9) -0.1881(3)
C2 C -0.2922(2) -0.3601(10) -0.1273(3)
C3 C -0.2953(2) -0.5305(12) -0.0677(3)
C4 C -0.3537(3) -0.6573(11) -0.0655(4)
C5 C -0.4109(2) -0.6089(11) -0.1275(4)
C6 C -0.4093(2) -0.4370(12) -0.1873(3)
O1 O -0.3482(2) -0.1342(7) -0.2465(2)
C7 C -0.4096(2) -0.0323(10) -0.2959(3)
C8 C -0.4432(2) -0.1971(10) -0.3689(3)
O2 O -0.4945(2) -0.0970(8) -0.4142(2)
O3 O -0.5820(2) -0.5904(8) -0.6224(2)
C9 C -0.2242(2) -0.2462(11) -0.1213(3)
N1 N -0.2204(2) -0.0406(11) -0.1658(3)
O4 O -0.1741(2) -0.3454(8) -0.0764(3)
H1 H -0.254(3) -0.557(13) -0.020(4)
H2 H -0.351(3) -0.785(12) -0.018(4)
H3 H -0.453(3) -0.703(12) -0.137(4)
H4 H -0.441(3) -0.424(14) -0.236(4)
H5 H -0.401(3) 0.125(13) -0.317(4)
H6 H -0.441(3) -0.026(12) -0.267(4)
H7 H -0.254(3) 0.021(13) -0.195(4)
H8 H -0.178(3) 0.034(13) -0.172(4)
Ag1D Ag -0.44065(2) -0.67575(9) -0.48530(3)
O3D O -0.4180(2) -0.4096(8) -0.3776(2)
C8D C -0.5568(2) -0.8029(10) -0.6311(3)
O4G O -0.6741(2) -0.1546(8) -0.5764(3)
O2D O -0.5055(2) -0.9030(8) -0.5858(2)
O4C O -0.3259(2) -0.8454(8) -0.4236(3)
C7D C -0.5904(2) -0.9677(10) -0.7041(3)
Ag1G Ag -0.05935(2) -0.17575(9) -0.01470(3)
O1D O -0.6518(2) -0.8658(7) -0.7535(2)
H5D H -0.599(3) -1.125(13) -0.683(4)
H6D H -0.559(3) -0.974(12) -0.733(4)
C1D C -0.6489(2) -0.6914(9) -0.8119(3)
C2D C -0.7078(2) -0.6399(10) -0.8727(3)
C6D C -0.5907(2) -0.5630(12) -0.8127(3)
C3D C -0.7047(2) -0.4695(12) -0.9323(3)
C9D C -0.7758(2) -0.7538(11) -0.8787(3)
C5D C -0.5891(2) -0.3911(11) -0.8725(4)
H4D H -0.559(3) -0.576(14) -0.764(4)
C4D C -0.6463(3) -0.3427(11) -0.9345(4)
H1D H -0.746(3) -0.443(13) -0.980(4)
H3D H -0.547(3) -0.297(12) -0.863(4)
H2D H -0.649(3) -0.215(12) -0.982(4)
N1D N -0.7796(2) -0.9594(11) -0.8342(3)
O4D O -0.8259(2) -0.6546(8) -0.9236(3)
Ag1C Ag -0.94065(2) -0.82425(9) -0.98530(3)
H7D H -0.746(3) -1.021(13) -0.805(4)
H8D H -0.822(3) -1.034(13) -0.828(4)
loop_
_geom_bond_atom_site_label_1
_geom_bond_atom_site_label_2
_geom_bond_site_symmetry_1
_geom_bond_site_symmetry_2
Ag1 O2 1_555 1_555
C1 C2 1_555 1_555
C2 C3 1_555 1_555
C3 C4 1_555 1_555
C4 C5 1_555 1_555
C5 C6 1_555 1_555
C6 C1 1_555 1_555
O1 C1 1_555 1_555
C7 O1 1_555 1_555
C8 C7 1_555 1_555
O2 C8 1_555 1_555
O3 Ag1 1_555 1_555
C9 C2 1_555 1_555
N1 C9 1_555 1_555
O4 C9 1_555 1_555
H1 C3 1_555 1_555
H2 C4 1_555 1_555
H3 C5 1_555 1_555
H4 C6 1_555 1_555
H5 C7 1_555 1_555
H6 C7 1_555 1_555
H7 N1 1_555 1_555
H8 N1 1_555 1_555
Ag1D O3D 1_555 1_555
O3D C8 1_555 1_555
C8D O3 1_555 1_555
O4G Ag1 1_555 1_555
O2D Ag1D 1_555 1_555
O4C Ag1D 1_555 1_555
C7D C8D 1_555 1_555
Ag1G O4 1_555 1_555
O1D C7D 1_555 1_555
H5D C7D 1_555 1_555
H6D C7D 1_555 1_555
C1D O1D 1_555 1_555
C2D C1D 1_555 1_555
C6D C1D 1_555 1_555
C3D C2D 1_555 1_555
C9D C2D 1_555 1_555
C5D C6D 1_555 1_555
H4D C6D 1_555 1_555
C4D C3D 1_555 1_555
H1D C3D 1_555 1_555
H3D C5D 1_555 1_555
H2D C4D 1_555 1_555
N1D C9D 1_555 1_555
O4D C9D 1_555 1_555
Ag1C O4D 1_555 1_555
H7D N1D 1_555 1_555
H8D N1D 1_555 1_555
C8D O2D 1_555 1_555
C5D C4D 1_555 1_555

#END
