
#######################################################################
#
#                 Cambridge Crystallographic Data Centre
#                                CCDC 
#
#######################################################################
#
# If this CIF has been generated from an entry in the Cambridge 
# Structural Database, then it will include bibliographic, chemical, 
# crystal, experimental, refinement or atomic coordinate data resulting 
# from the CCDC's data processing and validation procedures.
#
#######################################################################

data_DIXVUC03
_symmetry_cell_setting           hexagonal
_symmetry_space_group_name_H-M   'P 63/m'
_symmetry_Int_Tables_number      176
_space_group_name_Hall           '-P 6c'
loop_
_symmetry_equiv_pos_site_id
_symmetry_equiv_pos_as_xyz
1 x,y,z
2 -y,x-y,z
3 -x+y,-x,z
4 y,-x+y,1/2+z
5 x-y,x,1/2+z
6 -x,-y,1/2+z
7 -x,-y,-z
8 y,-x+y,-z
9 x-y,x,-z
10 -y,x-y,1/2-z
11 -x+y,-x,1/2-z
12 x,y,1/2-z
_cell_length_a                   10.8858(2)
_cell_length_b                   10.8858(2)
_cell_length_c                   23.1388(5)
_cell_angle_alpha                90
_cell_angle_beta                 90
_cell_angle_gamma                120
_cell_volume                     2374.61
loop_
_atom_site_label
_atom_site_type_symbol
_atom_site_fract_x
_atom_site_fract_y
_atom_site_fract_z
Cl1 Cl 0.3333 0.6667 0.52429(8)
O5 O 0.3333 0.6667 0.5870(4)
O6 O 0.2057(5) 0.6565(7) 0.5118(3)
O6A O 0.3435(7) 0.5492(9) 0.5118(3)
O6B O 0.4508(9) 0.7943(5) 0.5118(3)
O7 O 0.0000 1.0000 0.3172(8)
O8 O -0.6667 0.6667 0.2981(10)
Fe1 Fe 0.0000 1.0000 0.5000
Fe2 Fe 0.46777(6) 1.20949(7) 0.2500
O1 O 0.4256(2) 1.3129(2) 0.31276(10)
O2 O 0.6140(3) 1.5327(2) 0.31289(11)
O3 O 0.6667 1.3334 0.2500
O4 O 0.2508(6) 1.0762(4) 0.2500
H2 H 0.1990 1.0913 0.2269
N1 N 0.1388(3) 1.1839(3) 0.44693(12)
N2 N 0.0888(4) 1.2572(4) 0.41824(18)
N3 N 0.1907(3) 1.3653(4) 0.39281(19)
N4 N 0.3097(3) 1.3645(3) 0.40550(11)
C1 C 0.2757(3) 1.2529(3) 0.43841(15)
H3 H 0.3393 1.2275 0.4532
C2 C 0.4469(4) 1.4767(3) 0.38503(15)
H4 H 0.5161 1.5019 0.4157
H5 H 0.4398 1.5599 0.3761
C3 C 0.4987(3) 1.4353(3) 0.33239(13)
Fe2A Fe -0.20949(7) 1.25828(9) 0.2500
Fe2B Fe -0.25828(9) 0.53223(6) 0.2500
Fe2B_2 Fe 0.74172(9) 1.53223(6) 0.2500
Fe2A_2 Fe 0.79051(7) 1.25828(9) 0.2500
Fe2_2 Fe -0.53223(6) 1.20949(7) 0.2500
Fe2A_3 Fe -0.20949(7) 0.25828(9) 0.2500
Fe2F Fe -0.46777(6) 0.79051(7) 0.7500
Fe2D Fe -0.74172(9) 0.46777(6) 0.7500
Fe2C Fe 0.20949(7) 0.74172(9) 0.7500
Fe2F_2 Fe 0.53223(6) 0.79051(7) 0.7500
Fe2D_2 Fe 0.25828(9) 1.46777(6) 0.7500
Fe2C_2 Fe 0.20949(7) 1.74172(9) 0.7500
O1A O -0.3129(2) 1.1127(3) 0.31276(10)
O1B O -0.1127(3) 0.5744(2) 0.31276(10)
O1F O -0.4256(2) 0.6871(2) 0.68724(10)
O1G O 0.3129(2) 0.8873(3) 0.68724(10)
O1H O 0.1127(3) 1.4256(2) 0.68724(10)
O1K O 0.4256(2) 1.3129(2) 0.18724(10)
O1I O -0.3129(2) 1.1127(3) 0.18724(10)
O1J O -0.1127(3) 0.5744(2) 0.18724(10)
O2A O -0.5327(2) 1.0813(4) 0.31289(11)
O2B O -0.0813(4) 0.3860(3) 0.31289(11)
O2F O -0.6140(3) 0.4673(2) 0.68711(11)
O2G O 0.5327(2) 0.9187(4) 0.68711(11)
O2H O 0.0813(4) 1.6140(3) 0.68711(11)
O2A_2 O 0.4673(2) 1.0813(4) 0.31289(11)
O2I O 0.4673(2) 1.0813(4) 0.18711(11)
O2B_2 O -0.0813(4) 1.3860(3) 0.31289(11)
O2J O -0.0813(4) 1.3860(3) 0.18711(11)
O2_2 O -0.3860(3) 0.5327(2) 0.31289(11)
O2K O -0.3860(3) 0.5327(2) 0.18711(11)
O3_2 O -0.3333 1.3334 0.2500
O3_3 O -0.3333 0.3334 0.2500
O4A O -0.0762(4) 1.1746(7) 0.2500
O4B O -0.1746(7) 0.7492(6) 0.2500
H2K H 0.1990 1.0913 0.2731
H2A H -0.0913 1.1077 0.2269
H2I H -0.0913 1.1077 0.2731
H2B H -0.1077 0.8010 0.2269
H2J H -0.1077 0.8010 0.2731
N1A N -0.1839(3) 0.9549(4) 0.44693(12)
N1B N 0.0451(4) 0.8612(3) 0.44693(12)
N1F N -0.1388(3) 0.8161(3) 0.55307(12)
N1G N 0.1839(3) 1.0451(4) 0.55307(12)
N1H N -0.0451(4) 1.1388(3) 0.55307(12)
N2A N -0.2572(4) 0.8316(6) 0.41824(18)
N2B N 0.1684(6) 0.9112(4) 0.41824(18)
N2F N -0.0888(4) 0.7428(4) 0.58176(18)
N2G N 0.2572(4) 1.1684(6) 0.58176(18)
N2H N -0.1684(6) 1.0888(4) 0.58176(18)
N3A N -0.3653(4) 0.8254(5) 0.39281(19)
N3B N 0.1746(5) 0.8093(3) 0.39281(19)
N3F N -0.1907(3) 0.6347(4) 0.60719(19)
N3G N 0.3653(4) 1.1746(5) 0.60719(19)
N3H N -0.1746(5) 1.1907(3) 0.60719(19)
N4A N -0.3645(3) 0.9452(4) 0.40550(11)
N4B N 0.0548(4) 0.6903(3) 0.40550(11)
N4F N -0.3097(3) 0.6355(3) 0.59450(11)
N4G N 0.3645(3) 1.0548(4) 0.59450(11)
N4H N -0.0548(4) 1.3097(3) 0.59450(11)
C1A C -0.2529(3) 1.0228(4) 0.43841(15)
C1B C -0.0228(4) 0.7243(3) 0.43841(15)
C1F C -0.2757(3) 0.7471(3) 0.56159(15)
C1G C 0.2529(3) 0.9772(4) 0.56159(15)
C1H C 0.0228(4) 1.2757(3) 0.56159(15)
H3A H -0.2275 1.1118 0.4532
H3B H -0.1118 0.6607 0.4532
H3F H -0.3393 0.7725 0.5468
H3G H 0.2275 0.8882 0.5468
H3H H 0.1118 1.3393 0.5468
C2A C -0.4767(3) 0.9702(5) 0.38503(15)
C2B C 0.0298(5) 0.5531(4) 0.38503(15)
C2F C -0.4469(4) 0.5233(3) 0.61497(15)
C2G C 0.4767(3) 1.0298(5) 0.61497(15)
C2H C -0.0298(5) 1.4469(4) 0.61497(15)
H4A H -0.5019 1.0142 0.4157
H4B H -0.0142 0.4839 0.4157
H4F H -0.5161 0.4981 0.5843
H4G H 0.5019 0.9858 0.5843
H4H H 0.0142 1.5161 0.5843
H5A H -0.5599 0.8799 0.3761
H5B H 0.1201 0.5602 0.3761
H5F H -0.4398 0.4401 0.6239
H5G H 0.5599 1.1201 0.6239
H5H H -0.1201 1.4398 0.6239
C3A C -0.4353(3) 1.0634(4) 0.33239(13)
C3B C -0.0634(4) 0.5013(3) 0.33239(13)
C3F C -0.4987(3) 0.5647(3) 0.66761(13)
C3G C 0.4353(3) 0.9366(4) 0.66761(13)
C3H C 0.0634(4) 1.4987(3) 0.66761(13)
Fe3? Fe 0.7726(5) 1.6202(5) 0.2500
H1? H 0.7929 1.7868 0.2731
O9? O -0.666(19) 0.702(2) 0.2500
O10? O -0.849(2) 0.8219(16) 0.2500
O11? O -0.818(3) 0.629(5) 0.2500
O12? O -0.768(9) 0.760(8) 0.2500
loop_
_geom_bond_atom_site_label_1
_geom_bond_atom_site_label_2
_geom_bond_site_symmetry_1
_geom_bond_site_symmetry_2
Fe1 N1 1_555 1_555
Fe2 O1 1_555 1_555
O1 C3 1_555 1_555
O2 C3 1_555 1_555
O3 Fe2 1_555 1_555
O4 Fe2 1_555 1_555
H2 O4 1_555 1_555
N1 N2 1_555 1_555
N2 N3 1_555 1_555
N3 N4 1_555 1_555
N4 C1 1_555 1_555
C1 N1 1_555 1_555
H3 C1 1_555 1_555
C2 N4 1_555 1_555
H4 C2 1_555 1_555
H5 C2 1_555 1_555
C3 C2 1_555 1_555
Cl1 O5 1_555 1_555
O6 Cl1 1_555 1_555
Fe2A O1A 1_555 1_555
Fe2B O1B 1_555 1_555
Fe2B_2 O2 1_555 1_555
Fe2A_2 O3 1_555 1_555
Fe2_2 O2A 1_555 1_555
Fe2A_3 O2B 1_555 1_555
Fe2F O1F 1_555 1_555
Fe2D O2F 1_555 1_555
Fe2C O1G 1_555 1_555
Fe2F_2 O2G 1_555 1_555
Fe2D_2 O1H 1_555 1_555
Fe2C_2 O2H 1_555 1_555
O1A C3A 1_555 1_555
O1B C3B 1_555 1_555
O1F C3F 1_555 1_555
O1G C3G 1_555 1_555
O1H C3H 1_555 1_555
O1K Fe2 1_555 1_555
O1I Fe2A 1_555 1_555
O1J Fe2B 1_555 1_555
O2A C3A 1_555 1_555
O2B C3B 1_555 1_555
O2F C3F 1_555 1_555
O2G C3G 1_555 1_555
O2H C3H 1_555 1_555
O2A_2 Fe2 1_555 1_555
O2I Fe2 1_555 1_555
O2B_2 Fe2A 1_555 1_555
O2J Fe2A 1_555 1_555
O2_2 Fe2B 1_555 1_555
O2K Fe2B 1_555 1_555
O3_2 Fe2A 1_555 1_555
O3_3 Fe2B 1_555 1_555
O4A Fe2A 1_555 1_555
O4B Fe2B 1_555 1_555
H2K O4 1_555 1_555
H2A O4A 1_555 1_555
H2I O4A 1_555 1_555
H2B O4B 1_555 1_555
H2J O4B 1_555 1_555
N1A Fe1 1_555 1_555
N1B Fe1 1_555 1_555
N1F Fe1 1_555 1_555
N1G Fe1 1_555 1_555
N1H Fe1 1_555 1_555
N2A N1A 1_555 1_555
N2B N1B 1_555 1_555
N2F N1F 1_555 1_555
N2G N1G 1_555 1_555
N2H N1H 1_555 1_555
N3A N2A 1_555 1_555
N3B N2B 1_555 1_555
N3F N2F 1_555 1_555
N3G N2G 1_555 1_555
N3H N2H 1_555 1_555
N4A N3A 1_555 1_555
N4B N3B 1_555 1_555
N4F N3F 1_555 1_555
N4G N3G 1_555 1_555
N4H N3H 1_555 1_555
C1A N1A 1_555 1_555
C1B N1B 1_555 1_555
C1F N1F 1_555 1_555
C1G N1G 1_555 1_555
C1H N1H 1_555 1_555
H3A C1A 1_555 1_555
H3B C1B 1_555 1_555
H3F C1F 1_555 1_555
H3G C1G 1_555 1_555
H3H C1H 1_555 1_555
C2A N4A 1_555 1_555
C2B N4B 1_555 1_555
C2F N4F 1_555 1_555
C2G N4G 1_555 1_555
C2H N4H 1_555 1_555
H4A C2A 1_555 1_555
H4B C2B 1_555 1_555
H4F C2F 1_555 1_555
H4G C2G 1_555 1_555
H4H C2H 1_555 1_555
H5A C2A 1_555 1_555
H5B C2B 1_555 1_555
H5F C2F 1_555 1_555
H5G C2G 1_555 1_555
H5H C2H 1_555 1_555
C3A C2A 1_555 1_555
C3B C2B 1_555 1_555
C3F C2F 1_555 1_555
C3G C2G 1_555 1_555
C3H C2H 1_555 1_555
O6A Cl1 1_555 1_555
O6B Cl1 1_555 1_555
O3 Fe2B_2 1_555 1_555
Fe2_2 O3_2 1_555 1_555
Fe2A_3 O3_3 1_555 1_555
N4A C1A 1_555 1_555
N4B C1B 1_555 1_555
N4F C1F 1_555 1_555
N4G C1G 1_555 1_555
N4H C1H 1_555 1_555

#END
