
#######################################################################
#
#                 Cambridge Crystallographic Data Centre
#                                CCDC 
#
#######################################################################
#
# If this CIF has been generated from an entry in the Cambridge 
# Structural Database, then it will include bibliographic, chemical, 
# crystal, experimental, refinement or atomic coordinate data resulting 
# from the CCDC's data processing and validation procedures.
#
#######################################################################

data_DIXVUC04
_symmetry_cell_setting           hexagonal
_symmetry_space_group_name_H-M   'P 63/m'
_symmetry_Int_Tables_number      176
_space_group_name_Hall           '-P 6c'
loop_
_symmetry_equiv_pos_site_id
_symmetry_equiv_pos_as_xyz
1 x,y,z
2 -y,x-y,z
3 -x+y,-x,z
4 y,-x+y,1/2+z
5 x-y,x,1/2+z
6 -x,-y,1/2+z
7 -x,-y,-z
8 y,-x+y,-z
9 x-y,x,-z
10 -y,x-y,1/2-z
11 -x+y,-x,1/2-z
12 x,y,1/2-z
_cell_length_a                   11.036(6)
_cell_length_b                   11.036(6)
_cell_length_c                   22.991(15)
_cell_angle_alpha                90
_cell_angle_beta                 90
_cell_angle_gamma                120
_cell_volume                     2425
loop_
_atom_site_label
_atom_site_type_symbol
_atom_site_fract_x
_atom_site_fract_y
_atom_site_fract_z
Cl1 Cl -0.3333 1.3333 0.47736(10)
O5 O -0.3333 1.3333 0.4141(5)
O6 O -0.3437(10) 1.2049(7) 0.4864(4)
O6A O -0.2049(7) 1.4514(12) 0.4864(4)
O6B O -0.4514(12) 1.3437(10) 0.4864(4)
O7 O -0.6667 0.6667 0.2500
O9 O 0.0000 1.0000 0.305(2)
O10 O -0.330(4) 0.824(2) 0.2500
Fe1 Fe 0.0000 1.0000 0.5000
Fe2 Fe -0.20842(7) 1.53168(7) 0.2500
O1 O -0.0813(3) 1.5298(3) 0.31268(13)
O2 O -0.1138(3) 1.3110(3) 0.31271(12)
O3 O -0.3333 1.3334 0.2500
O4 O -0.0705(7) 1.7477(7) 0.2500
H2 H -0.0006 1.7831 0.2272
N1 N 0.0463(3) 1.1837(3) 0.44674(14)
N2 N 0.1686(4) 1.2562(5) 0.4175(2)
N3 N 0.1739(4) 1.3623(5) 0.3913(2)
N4 N 0.0558(3) 1.3630(3) 0.40469(13)
C1 C -0.0198(4) 1.2539(4) 0.43851(17)
H3 H -0.1065 1.2303 0.4541
C2 C 0.0303(4) 1.4747(4) 0.38420(18)
H4 H 0.1191 1.5565 0.3745
H5 H -0.0113 1.5005 0.4155
C3 C -0.0638(3) 1.4333(4) 0.33227(15)
Fe2A Fe -0.53168(7) 0.25990(10) 0.2500
Fe2B Fe 0.74010(10) 1.20842(7) 0.2500
Fe2B_2 Fe -0.25990(10) 1.20842(7) 0.2500
Fe2A_2 Fe -0.53168(7) 1.25990(10) 0.2500
Fe2_2 Fe -0.20842(7) 0.53168(7) 0.2500
Fe2A_3 Fe 0.46832(7) 1.25990(10) 0.2500
Fe2F Fe 0.20842(7) 0.46832(7) 0.7500
Fe2D Fe 0.25990(10) 0.79158(7) 0.7500
Fe2C Fe 0.53168(7) 1.74010(10) 0.7500
Fe2F_2 Fe 0.20842(7) 1.46832(7) 0.7500
Fe2D_2 Fe -0.74010(10) 0.79158(7) 0.7500
Fe2C_2 Fe -0.46832(7) 0.74010(10) 0.7500
O1A O -0.5298(3) 0.3889(4) 0.31268(13)
O1B O 0.6111(4) 1.0813(3) 0.31268(13)
O1F O 0.0813(3) 0.4702(3) 0.68732(13)
O1G O 0.5298(3) 1.6111(4) 0.68732(13)
O1H O -0.6111(4) 0.9187(3) 0.68732(13)
O1K O -0.0813(3) 1.5298(3) 0.18732(13)
O1I O -0.5298(3) 0.3889(4) 0.18732(13)
O1J O 0.6111(4) 1.0813(3) 0.18732(13)
O2A O -0.3110(3) 0.5752(4) 0.31271(12)
O2B O 0.4248(4) 1.1138(3) 0.31271(12)
O2F O 0.1138(3) 0.6890(3) 0.68729(12)
O2G O 0.3110(3) 1.4248(4) 0.68729(12)
O2H O -0.4248(4) 0.8862(3) 0.68729(12)
O2A_2 O -0.3110(3) 1.5752(4) 0.31271(12)
O2I O -0.3110(3) 1.5752(4) 0.18729(12)
O2B_2 O -0.5752(4) 0.1138(3) 0.31271(12)
O2J O -0.5752(4) 0.1138(3) 0.18729(12)
O2_2 O 0.8862(3) 1.3110(3) 0.31271(12)
O2K O 0.8862(3) 1.3110(3) 0.18729(12)
O3_2 O -0.3333 0.3334 0.2500
O3_3 O 0.6667 1.3334 0.2500
O4A O -0.7477(7) 0.1818(10) 0.2500
O4B O 0.8182(10) 1.0705(7) 0.2500
H2K H -0.0006 1.7831 0.2728
H2A H -0.7831 0.2163 0.2272
H2I H -0.7831 0.2163 0.2728
H2B H 0.7837 1.0006 0.2272
H2J H 0.7837 1.0006 0.2728
N1A N -0.1837(3) 0.8626(4) 0.44674(14)
N1B N 0.1374(4) 0.9537(3) 0.44674(14)
N1F N -0.0463(3) 0.8163(3) 0.55326(14)
N1G N 0.1837(3) 1.1374(4) 0.55326(14)
N1H N -0.1374(4) 1.0463(3) 0.55326(14)
N2A N -0.2562(5) 0.9124(6) 0.4175(2)
N2B N 0.0876(6) 0.8314(4) 0.4175(2)
N2F N -0.1686(4) 0.7438(5) 0.5825(2)
N2G N 0.2562(5) 1.0876(6) 0.5825(2)
N2H N -0.0876(6) 1.1686(4) 0.5825(2)
N3A N -0.3623(5) 0.8116(6) 0.3913(2)
N3B N 0.1884(6) 0.8261(4) 0.3913(2)
N3F N -0.1739(4) 0.6377(5) 0.6087(2)
N3G N 0.3623(5) 1.1884(6) 0.6087(2)
N3H N -0.1884(6) 1.1739(4) 0.6087(2)
N4A N -0.3630(3) 0.6928(4) 0.40469(13)
N4B N 0.3072(4) 0.9442(3) 0.40469(13)
N4F N -0.0558(3) 0.6370(3) 0.59531(13)
N4G N 0.3630(3) 1.3072(4) 0.59531(13)
N4H N -0.3072(4) 1.0558(3) 0.59531(13)
C1A C -0.2539(4) 0.7263(6) 0.43851(17)
C1B C 0.2737(6) 1.0198(4) 0.43851(17)
C1F C 0.0198(4) 0.7461(4) 0.56149(17)
C1G C 0.2539(4) 1.2737(6) 0.56149(17)
C1H C -0.2737(6) 0.9802(4) 0.56149(17)
H3A H -0.2303 0.6632 0.4541
H3B H 0.3368 1.1065 0.4541
H3F H 0.1065 0.7697 0.5459
H3G H 0.2303 1.3368 0.5459
H3H H -0.3368 0.8935 0.5459
C2A C -0.4747(4) 0.5556(6) 0.38420(18)
C2B C 0.4444(6) 0.9697(4) 0.38420(18)
C2F C -0.0303(4) 0.5253(4) 0.61580(18)
C2G C 0.4747(4) 1.4444(6) 0.61580(18)
C2H C -0.4444(6) 1.0303(4) 0.61580(18)
H4A H -0.5565 0.5626 0.3745
H4B H 0.4374 0.8809 0.3745
H4F H -0.1191 0.4435 0.6255
H4G H 0.5565 1.4374 0.6255
H4H H -0.4374 1.1191 0.6255
H5A H -0.5005 0.4882 0.4155
H5B H 0.5118 1.0113 0.4155
H5F H 0.0113 0.4995 0.5845
H5G H 0.5005 1.5118 0.5845
H5H H -0.5118 0.9887 0.5845
C3A C -0.4333(4) 0.5029(5) 0.33227(15)
C3B C 0.4971(5) 1.0638(3) 0.33227(15)
C3F C 0.0638(3) 0.5667(4) 0.66773(15)
C3G C 0.4333(4) 1.4971(5) 0.66773(15)
C3H C -0.4971(5) 0.9362(3) 0.66773(15)
Fe3? Fe -0.2283(5) 1.1524(6) 0.2500
H1? H -0.1154 1.0845 0.2728
O8? O -0.6667 0.6667 0.2972(13)
loop_
_geom_bond_atom_site_label_1
_geom_bond_atom_site_label_2
_geom_bond_site_symmetry_1
_geom_bond_site_symmetry_2
Fe1 N1 1_555 1_555
Fe2 O1 1_555 1_555
O1 C3 1_555 1_555
O2 C3 1_555 1_555
O3 Fe2 1_555 1_555
O4 Fe2 1_555 1_555
H2 O4 1_555 1_555
N1 N2 1_555 1_555
N2 N3 1_555 1_555
N3 N4 1_555 1_555
N4 C1 1_555 1_555
C1 N1 1_555 1_555
H3 C1 1_555 1_555
C2 N4 1_555 1_555
H4 C2 1_555 1_555
H5 C2 1_555 1_555
C3 C2 1_555 1_555
Cl1 O5 1_555 1_555
O6 Cl1 1_555 1_555
Fe2A O1A 1_555 1_555
Fe2B O1B 1_555 1_555
Fe2B_2 O2 1_555 1_555
Fe2A_2 O3 1_555 1_555
Fe2_2 O2A 1_555 1_555
Fe2A_3 O2B 1_555 1_555
Fe2F O1F 1_555 1_555
Fe2D O2F 1_555 1_555
Fe2C O1G 1_555 1_555
Fe2F_2 O2G 1_555 1_555
Fe2D_2 O1H 1_555 1_555
Fe2C_2 O2H 1_555 1_555
O1A C3A 1_555 1_555
O1B C3B 1_555 1_555
O1F C3F 1_555 1_555
O1G C3G 1_555 1_555
O1H C3H 1_555 1_555
O1K Fe2 1_555 1_555
O1I Fe2A 1_555 1_555
O1J Fe2B 1_555 1_555
O2A C3A 1_555 1_555
O2B C3B 1_555 1_555
O2F C3F 1_555 1_555
O2G C3G 1_555 1_555
O2H C3H 1_555 1_555
O2A_2 Fe2 1_555 1_555
O2I Fe2 1_555 1_555
O2B_2 Fe2A 1_555 1_555
O2J Fe2A 1_555 1_555
O2_2 Fe2B 1_555 1_555
O2K Fe2B 1_555 1_555
O3_2 Fe2A 1_555 1_555
O3_3 Fe2B 1_555 1_555
O4A Fe2A 1_555 1_555
O4B Fe2B 1_555 1_555
H2K O4 1_555 1_555
H2A O4A 1_555 1_555
H2I O4A 1_555 1_555
H2B O4B 1_555 1_555
H2J O4B 1_555 1_555
N1A Fe1 1_555 1_555
N1B Fe1 1_555 1_555
N1F Fe1 1_555 1_555
N1G Fe1 1_555 1_555
N1H Fe1 1_555 1_555
N2A N1A 1_555 1_555
N2B N1B 1_555 1_555
N2F N1F 1_555 1_555
N2G N1G 1_555 1_555
N2H N1H 1_555 1_555
N3A N2A 1_555 1_555
N3B N2B 1_555 1_555
N3F N2F 1_555 1_555
N3G N2G 1_555 1_555
N3H N2H 1_555 1_555
N4A N3A 1_555 1_555
N4B N3B 1_555 1_555
N4F N3F 1_555 1_555
N4G N3G 1_555 1_555
N4H N3H 1_555 1_555
C1A N1A 1_555 1_555
C1B N1B 1_555 1_555
C1F N1F 1_555 1_555
C1G N1G 1_555 1_555
C1H N1H 1_555 1_555
H3A C1A 1_555 1_555
H3B C1B 1_555 1_555
H3F C1F 1_555 1_555
H3G C1G 1_555 1_555
H3H C1H 1_555 1_555
C2A N4A 1_555 1_555
C2B N4B 1_555 1_555
C2F N4F 1_555 1_555
C2G N4G 1_555 1_555
C2H N4H 1_555 1_555
H4A C2A 1_555 1_555
H4B C2B 1_555 1_555
H4F C2F 1_555 1_555
H4G C2G 1_555 1_555
H4H C2H 1_555 1_555
H5A C2A 1_555 1_555
H5B C2B 1_555 1_555
H5F C2F 1_555 1_555
H5G C2G 1_555 1_555
H5H C2H 1_555 1_555
C3A C2A 1_555 1_555
C3B C2B 1_555 1_555
C3F C2F 1_555 1_555
C3G C2G 1_555 1_555
C3H C2H 1_555 1_555
O6A Cl1 1_555 1_555
O6B Cl1 1_555 1_555
O3 Fe2B_2 1_555 1_555
Fe2_2 O3_2 1_555 1_555
Fe2A_3 O3_3 1_555 1_555
N4A C1A 1_555 1_555
N4B C1B 1_555 1_555
N4F C1F 1_555 1_555
N4G C1G 1_555 1_555
N4H C1H 1_555 1_555

#END
