
#######################################################################
#
#                 Cambridge Crystallographic Data Centre
#                                CCDC 
#
#######################################################################
#
# If this CIF has been generated from an entry in the Cambridge 
# Structural Database, then it will include bibliographic, chemical, 
# crystal, experimental, refinement or atomic coordinate data resulting 
# from the CCDC's data processing and validation procedures.
#
#######################################################################

data_DIXVUC
_symmetry_cell_setting           hexagonal
_symmetry_space_group_name_H-M   'P 63/m'
_symmetry_Int_Tables_number      176
_space_group_name_Hall           '-P 6c'
loop_
_symmetry_equiv_pos_site_id
_symmetry_equiv_pos_as_xyz
1 x,y,z
2 -y,x-y,z
3 -x+y,-x,z
4 y,-x+y,1/2+z
5 x-y,x,1/2+z
6 -x,-y,1/2+z
7 -x,-y,-z
8 y,-x+y,-z
9 x-y,x,-z
10 -y,x-y,1/2-z
11 -x+y,-x,1/2-z
12 x,y,1/2-z
_cell_length_a                   10.7052(2)
_cell_length_b                   10.7052(2)
_cell_length_c                   22.9656(7)
_cell_angle_alpha                90
_cell_angle_beta                 90
_cell_angle_gamma                120
_cell_volume                     2279.28
loop_
_atom_site_label
_atom_site_type_symbol
_atom_site_fract_x
_atom_site_fract_y
_atom_site_fract_z
Cl1 Cl 0.3333 0.6667 0.52853(6)
O5 O 0.3333 0.6667 0.5917(2)
O6 O 0.2045(3) 0.6622(3) 0.50993(13)
O6A O 0.3378(3) 0.5423(4) 0.50993(13)
O6B O 0.4577(4) 0.7955(3) 0.50993(13)
O7 O 0.0000 1.0000 0.3212(4)
O8 O -0.6667 0.6667 0.2995(6)
Fe1 Fe 0.0000 1.0000 0.5000
Fe2 Fe 0.46519(6) 1.20391(7) 0.2500
O1 O 0.4174(2) 1.3051(2) 0.31327(9)
O2 O 0.6067(3) 1.5306(2) 0.31297(10)
O3 O 0.6667 1.3334 0.2500
O4 O 0.2439(5) 1.0574(4) 0.2500
H2 H 0.1887 1.0690 0.2268
N1 N 0.1267(2) 1.1728(2) 0.45054(10)
N2 N 0.0743(3) 1.2492(3) 0.42253(13)
N3 N 0.1788(3) 1.3596(3) 0.39682(13)
N4 N 0.3004(3) 1.3562(3) 0.40815(10)
C1 C 0.2671(3) 1.2415(3) 0.44091(12)
H3 H 0.3330 1.2137 0.4550
C2 C 0.4395(3) 1.4703(3) 0.38768(13)
H4 H 0.5119 1.4946 0.4189
H5 H 0.4326 1.5575 0.3796
C3 C 0.4909(3) 1.4298(3) 0.33321(12)
Fe2A Fe -0.20391(7) 1.26128(9) 0.2500
Fe2B Fe -0.26128(9) 0.53481(6) 0.2500
Fe2B_2 Fe 0.73872(9) 1.53481(6) 0.2500
Fe2A_2 Fe 0.79609(7) 1.26128(9) 0.2500
Fe2_2 Fe -0.53481(6) 1.20391(7) 0.2500
Fe2A_3 Fe -0.20391(7) 0.26128(9) 0.2500
Fe2F Fe -0.46519(6) 0.79609(7) 0.7500
Fe2D Fe -0.73872(9) 0.46519(6) 0.7500
Fe2C Fe 0.20391(7) 0.73872(9) 0.7500
Fe2F_2 Fe 0.53481(6) 0.79609(7) 0.7500
Fe2D_2 Fe 0.26128(9) 1.46519(6) 0.7500
Fe2C_2 Fe 0.20391(7) 1.73872(9) 0.7500
O1A O -0.3051(2) 1.1123(3) 0.31327(9)
O1B O -0.1123(3) 0.5826(2) 0.31327(9)
O1F O -0.4174(2) 0.6949(2) 0.68673(9)
O1G O 0.3051(2) 0.8877(3) 0.68673(9)
O1H O 0.1123(3) 1.4174(2) 0.68673(9)
O1K O 0.4174(2) 1.3051(2) 0.18673(9)
O1I O -0.3051(2) 1.1123(3) 0.18673(9)
O1J O -0.1123(3) 0.5826(2) 0.18673(9)
O2A O -0.5306(2) 1.0761(4) 0.31297(10)
O2B O -0.0761(4) 0.3933(3) 0.31297(10)
O2F O -0.6067(3) 0.4694(2) 0.68703(10)
O2G O 0.5306(2) 0.9239(4) 0.68703(10)
O2H O 0.0761(4) 1.6067(3) 0.68703(10)
O2A_2 O 0.4694(2) 1.0761(4) 0.31297(10)
O2I O 0.4694(2) 1.0761(4) 0.18703(10)
O2B_2 O -0.0761(4) 1.3933(3) 0.31297(10)
O2J O -0.0761(4) 1.3933(3) 0.18703(10)
O2_2 O -0.3933(3) 0.5306(2) 0.31297(10)
O2K O -0.3933(3) 0.5306(2) 0.18703(10)
O3_2 O -0.3333 1.3334 0.2500
O3_3 O -0.3333 0.3334 0.2500
O4A O -0.0574(4) 1.1865(6) 0.2500
O4B O -0.1865(6) 0.7561(5) 0.2500
H2K H 0.1887 1.0690 0.2732
H2A H -0.0690 1.1197 0.2268
H2I H -0.0690 1.1197 0.2732
H2B H -0.1197 0.8113 0.2268
H2J H -0.1197 0.8113 0.2732
N1A N -0.1728(2) 0.9539(3) 0.45054(10)
N1B N 0.0461(3) 0.8733(2) 0.45054(10)
N1F N -0.1267(2) 0.8272(2) 0.54946(10)
N1G N 0.1728(2) 1.0461(3) 0.54946(10)
N1H N -0.0461(3) 1.1267(2) 0.54946(10)
N2A N -0.2492(3) 0.8251(4) 0.42253(13)
N2B N 0.1749(4) 0.9257(3) 0.42253(13)
N2F N -0.0743(3) 0.7508(3) 0.57747(13)
N2G N 0.2492(3) 1.1749(4) 0.57747(13)
N2H N -0.1749(4) 1.0743(3) 0.57747(13)
N3A N -0.3596(3) 0.8192(4) 0.39682(13)
N3B N 0.1808(4) 0.8212(3) 0.39682(13)
N3F N -0.1788(3) 0.6404(3) 0.60318(13)
N3G N 0.3596(3) 1.1808(4) 0.60318(13)
N3H N -0.1808(4) 1.1788(3) 0.60318(13)
N4A N -0.3562(3) 0.9442(4) 0.40815(10)
N4B N 0.0558(4) 0.6996(3) 0.40815(10)
N4F N -0.3004(3) 0.6438(3) 0.59185(10)
N4G N 0.3562(3) 1.0558(4) 0.59185(10)
N4H N -0.0558(4) 1.3004(3) 0.59185(10)
C1A C -0.2415(3) 1.0256(4) 0.44091(12)
C1B C -0.0256(4) 0.7329(3) 0.44091(12)
C1F C -0.2671(3) 0.7585(3) 0.55909(12)
C1G C 0.2415(3) 0.9744(4) 0.55909(12)
C1H C 0.0256(4) 1.2671(3) 0.55909(12)
H3A H -0.2137 1.1193 0.4550
H3B H -0.1193 0.6670 0.4550
H3F H -0.3330 0.7863 0.5450
H3G H 0.2137 0.8807 0.5450
H3H H 0.1193 1.3330 0.5450
C2A C -0.4703(3) 0.9692(4) 0.38768(13)
C2B C 0.0308(4) 0.5605(3) 0.38768(13)
C2F C -0.4395(3) 0.5297(3) 0.61232(13)
C2G C 0.4703(3) 1.0308(4) 0.61232(13)
C2H C -0.0308(4) 1.4395(3) 0.61232(13)
H4A H -0.4946 1.0173 0.4189
H4B H -0.0173 0.4881 0.4189
H4F H -0.5119 0.5054 0.5811
H4G H 0.4946 0.9827 0.5811
H4H H 0.0173 1.5119 0.5811
H5A H -0.5575 0.8751 0.3796
H5B H 0.1249 0.5674 0.3796
H5F H -0.4326 0.4425 0.6204
H5G H 0.5575 1.1249 0.6204
H5H H -0.1249 1.4326 0.6204
C3A C -0.4298(3) 1.0611(4) 0.33321(12)
C3B C -0.0611(4) 0.5091(3) 0.33321(12)
C3F C -0.4909(3) 0.5702(3) 0.66679(12)
C3G C 0.4298(3) 0.9389(4) 0.66679(12)
C3H C 0.0611(4) 1.4909(3) 0.66679(12)
Fe3? Fe 0.7674(5) 1.6169(6) 0.2500
H1? H 0.7770 1.7911 0.2732
O9? O -0.678(6) 0.707(3) 0.2500
O10? O -0.823(2) 0.791(2) 0.2500
O11? O -0.810(4) 0.691(10) 0.2500
loop_
_geom_bond_atom_site_label_1
_geom_bond_atom_site_label_2
_geom_bond_site_symmetry_1
_geom_bond_site_symmetry_2
Fe1 N1 1_555 1_555
Fe2 O1 1_555 1_555
O1 C3 1_555 1_555
O2 C3 1_555 1_555
O3 Fe2 1_555 1_555
O4 Fe2 1_555 1_555
H2 O4 1_555 1_555
N1 N2 1_555 1_555
N2 N3 1_555 1_555
N3 N4 1_555 1_555
N4 C1 1_555 1_555
C1 N1 1_555 1_555
H3 C1 1_555 1_555
C2 N4 1_555 1_555
H4 C2 1_555 1_555
H5 C2 1_555 1_555
C3 C2 1_555 1_555
Cl1 O5 1_555 1_555
O6 Cl1 1_555 1_555
Fe2A O1A 1_555 1_555
Fe2B O1B 1_555 1_555
Fe2B_2 O2 1_555 1_555
Fe2A_2 O3 1_555 1_555
Fe2_2 O2A 1_555 1_555
Fe2A_3 O2B 1_555 1_555
Fe2F O1F 1_555 1_555
Fe2D O2F 1_555 1_555
Fe2C O1G 1_555 1_555
Fe2F_2 O2G 1_555 1_555
Fe2D_2 O1H 1_555 1_555
Fe2C_2 O2H 1_555 1_555
O1A C3A 1_555 1_555
O1B C3B 1_555 1_555
O1F C3F 1_555 1_555
O1G C3G 1_555 1_555
O1H C3H 1_555 1_555
O1K Fe2 1_555 1_555
O1I Fe2A 1_555 1_555
O1J Fe2B 1_555 1_555
O2A C3A 1_555 1_555
O2B C3B 1_555 1_555
O2F C3F 1_555 1_555
O2G C3G 1_555 1_555
O2H C3H 1_555 1_555
O2A_2 Fe2 1_555 1_555
O2I Fe2 1_555 1_555
O2B_2 Fe2A 1_555 1_555
O2J Fe2A 1_555 1_555
O2_2 Fe2B 1_555 1_555
O2K Fe2B 1_555 1_555
O3_2 Fe2A 1_555 1_555
O3_3 Fe2B 1_555 1_555
O4A Fe2A 1_555 1_555
O4B Fe2B 1_555 1_555
H2K O4 1_555 1_555
H2A O4A 1_555 1_555
H2I O4A 1_555 1_555
H2B O4B 1_555 1_555
H2J O4B 1_555 1_555
N1A Fe1 1_555 1_555
N1B Fe1 1_555 1_555
N1F Fe1 1_555 1_555
N1G Fe1 1_555 1_555
N1H Fe1 1_555 1_555
N2A N1A 1_555 1_555
N2B N1B 1_555 1_555
N2F N1F 1_555 1_555
N2G N1G 1_555 1_555
N2H N1H 1_555 1_555
N3A N2A 1_555 1_555
N3B N2B 1_555 1_555
N3F N2F 1_555 1_555
N3G N2G 1_555 1_555
N3H N2H 1_555 1_555
N4A N3A 1_555 1_555
N4B N3B 1_555 1_555
N4F N3F 1_555 1_555
N4G N3G 1_555 1_555
N4H N3H 1_555 1_555
C1A N1A 1_555 1_555
C1B N1B 1_555 1_555
C1F N1F 1_555 1_555
C1G N1G 1_555 1_555
C1H N1H 1_555 1_555
H3A C1A 1_555 1_555
H3B C1B 1_555 1_555
H3F C1F 1_555 1_555
H3G C1G 1_555 1_555
H3H C1H 1_555 1_555
C2A N4A 1_555 1_555
C2B N4B 1_555 1_555
C2F N4F 1_555 1_555
C2G N4G 1_555 1_555
C2H N4H 1_555 1_555
H4A C2A 1_555 1_555
H4B C2B 1_555 1_555
H4F C2F 1_555 1_555
H4G C2G 1_555 1_555
H4H C2H 1_555 1_555
H5A C2A 1_555 1_555
H5B C2B 1_555 1_555
H5F C2F 1_555 1_555
H5G C2G 1_555 1_555
H5H C2H 1_555 1_555
C3A C2A 1_555 1_555
C3B C2B 1_555 1_555
C3F C2F 1_555 1_555
C3G C2G 1_555 1_555
C3H C2H 1_555 1_555
O6A Cl1 1_555 1_555
O6B Cl1 1_555 1_555
O3 Fe2B_2 1_555 1_555
Fe2_2 O3_2 1_555 1_555
Fe2A_3 O3_3 1_555 1_555
N4A C1A 1_555 1_555
N4B C1B 1_555 1_555
N4F C1F 1_555 1_555
N4G C1G 1_555 1_555
N4H C1H 1_555 1_555

#END
