
#######################################################################
#
#                 Cambridge Crystallographic Data Centre
#                                CCDC 
#
#######################################################################
#
# If this CIF has been generated from an entry in the Cambridge 
# Structural Database, then it will include bibliographic, chemical, 
# crystal, experimental, refinement or atomic coordinate data resulting 
# from the CCDC's data processing and validation procedures.
#
#######################################################################

data_DIXVUC01
_symmetry_cell_setting           hexagonal
_symmetry_space_group_name_H-M   'P 63/m'
_symmetry_Int_Tables_number      176
_space_group_name_Hall           '-P 6c'
loop_
_symmetry_equiv_pos_site_id
_symmetry_equiv_pos_as_xyz
1 x,y,z
2 -y,x-y,z
3 -x+y,-x,z
4 y,-x+y,1/2+z
5 x-y,x,1/2+z
6 -x,-y,1/2+z
7 -x,-y,-z
8 y,-x+y,-z
9 x-y,x,-z
10 -y,x-y,1/2-z
11 -x+y,-x,1/2-z
12 x,y,1/2-z
_cell_length_a                   10.7401(3)
_cell_length_b                   10.7401(3)
_cell_length_c                   23.0238(6)
_cell_angle_alpha                90
_cell_angle_beta                 90
_cell_angle_gamma                120
_cell_volume                     2299.98
loop_
_atom_site_label
_atom_site_type_symbol
_atom_site_fract_x
_atom_site_fract_y
_atom_site_fract_z
Cl1 Cl 0.3333 0.6667 0.52748(7)
O5 O 0.3333 0.6667 0.5902(3)
O6 O 0.2049(4) 0.6616(4) 0.51030(17)
O6A O 0.3384(4) 0.5433(6) 0.51030(17)
O6B O 0.4567(6) 0.7951(4) 0.51030(17)
O7 O 0.0000 1.0000 0.3208(5)
O8 O -0.6667 0.6667 0.2996(7)
Fe1 Fe 0.0000 1.0000 0.5000
Fe2 Fe 0.46573(7) 1.20499(8) 0.2500
O1 O 0.4187(3) 1.3066(3) 0.31323(10)
O2 O 0.6079(3) 1.5309(3) 0.31303(12)
O3 O 0.6667 1.3334 0.2500
O4 O 0.2455(6) 1.0606(5) 0.2500
H1 H 0.2102 0.9896 0.2732
N1 N 0.1294(3) 1.1753(3) 0.44970(12)
N2 N 0.0770(3) 1.2508(4) 0.42178(15)
N3 N 0.1806(4) 1.3604(4) 0.39608(16)
N4 N 0.3024(3) 1.3583(3) 0.40744(12)
C1 C 0.2690(3) 1.2440(3) 0.44041(14)
H3 H 0.3348 1.2167 0.4548
C2 C 0.4407(4) 1.4716(4) 0.38692(15)
H4 H 0.5128 1.4962 0.4181
H5 H 0.4338 1.5583 0.3787
C3 C 0.4923(4) 1.4311(4) 0.33288(13)
Fe2A Fe -0.20499(8) 1.26074(11) 0.2500
Fe2B Fe -0.26074(11) 0.53427(7) 0.2500
Fe2B_2 Fe 0.73926(11) 1.53427(7) 0.2500
Fe2A_2 Fe 0.79501(8) 1.26074(11) 0.2500
Fe2_2 Fe -0.53427(7) 1.20499(8) 0.2500
Fe2A_3 Fe -0.20499(8) 0.26074(11) 0.2500
Fe2F Fe -0.46573(7) 0.79501(8) 0.7500
Fe2D Fe -0.73926(11) 0.46573(7) 0.7500
Fe2C Fe 0.20499(8) 0.73926(11) 0.7500
Fe2F_2 Fe 0.53427(7) 0.79501(8) 0.7500
Fe2D_2 Fe 0.26074(11) 1.46573(7) 0.7500
Fe2C_2 Fe 0.20499(8) 1.73926(11) 0.7500
O1A O -0.3066(3) 1.1121(4) 0.31323(10)
O1B O -0.1121(4) 0.5813(3) 0.31323(10)
O1F O -0.4187(3) 0.6934(3) 0.68677(10)
O1G O 0.3066(3) 0.8879(4) 0.68677(10)
O1H O 0.1121(4) 1.4187(3) 0.68677(10)
O1K O 0.4187(3) 1.3066(3) 0.18677(10)
O1I O -0.3066(3) 1.1121(4) 0.18677(10)
O1J O -0.1121(4) 0.5813(3) 0.18677(10)
O2A O -0.5309(3) 1.0770(4) 0.31303(12)
O2B O -0.0770(4) 0.3921(3) 0.31303(12)
O2F O -0.6079(3) 0.4691(3) 0.68697(12)
O2G O 0.5309(3) 0.9230(4) 0.68697(12)
O2H O 0.0770(4) 1.6079(3) 0.68697(12)
O2A_2 O 0.4691(3) 1.0770(4) 0.31303(12)
O2I O 0.4691(3) 1.0770(4) 0.18697(12)
O2B_2 O -0.0770(4) 1.3921(3) 0.31303(12)
O2J O -0.0770(4) 1.3921(3) 0.18697(12)
O2_2 O -0.3921(3) 0.5309(3) 0.31303(12)
O2K O -0.3921(3) 0.5309(3) 0.18697(12)
O3_2 O -0.3333 1.3334 0.2500
O3_3 O -0.3333 0.3334 0.2500
O4A O -0.0606(5) 1.1849(8) 0.2500
O4B O -0.1849(8) 0.7545(6) 0.2500
H1K H 0.2102 0.9896 0.2268
H1A H 0.0104 1.2206 0.2732
H1I H 0.0104 1.2206 0.2268
H1B H -0.2206 0.7898 0.2732
H1J H -0.2206 0.7898 0.2268
N1A N -0.1753(3) 0.9541(4) 0.44970(12)
N1B N 0.0459(4) 0.8706(3) 0.44970(12)
N1F N -0.1294(3) 0.8247(3) 0.55030(12)
N1G N 0.1753(3) 1.0459(4) 0.55030(12)
N1H N -0.0459(4) 1.1294(3) 0.55030(12)
N2A N -0.2508(4) 0.8262(5) 0.42178(15)
N2B N 0.1738(5) 0.9230(3) 0.42178(15)
N2F N -0.0770(3) 0.7492(4) 0.57822(15)
N2G N 0.2508(4) 1.1738(5) 0.57822(15)
N2H N -0.1738(5) 1.0770(3) 0.57822(15)
N3A N -0.3604(4) 0.8202(6) 0.39608(16)
N3B N 0.1798(6) 0.8194(4) 0.39608(16)
N3F N -0.1806(4) 0.6396(4) 0.60392(16)
N3G N 0.3604(4) 1.1798(6) 0.60392(16)
N3H N -0.1798(6) 1.1806(4) 0.60392(16)
N4A N -0.3583(3) 0.9441(4) 0.40744(12)
N4B N 0.0559(4) 0.6976(3) 0.40744(12)
N4F N -0.3024(3) 0.6417(3) 0.59256(12)
N4G N 0.3583(3) 1.0559(4) 0.59256(12)
N4H N -0.0559(4) 1.3024(3) 0.59256(12)
C1A C -0.2440(3) 1.0250(4) 0.44041(14)
C1B C -0.0250(4) 0.7310(3) 0.44041(14)
C1F C -0.2690(3) 0.7560(3) 0.55959(14)
C1G C 0.2440(3) 0.9750(4) 0.55959(14)
C1H C 0.0250(4) 1.2690(3) 0.55959(14)
H3A H -0.2167 1.1181 0.4548
H3B H -0.1181 0.6652 0.4548
H3F H -0.3348 0.7833 0.5452
H3G H 0.2167 0.8819 0.5452
H3H H 0.1181 1.3348 0.5452
C2A C -0.4716(4) 0.9691(6) 0.38692(15)
C2B C 0.0309(6) 0.5593(4) 0.38692(15)
C2F C -0.4407(4) 0.5284(4) 0.61308(15)
C2G C 0.4716(4) 1.0309(6) 0.61308(15)
C2H C -0.0309(6) 1.4407(4) 0.61308(15)
H4A H -0.4962 1.0166 0.4181
H4B H -0.0166 0.4872 0.4181
H4F H -0.5128 0.5038 0.5819
H4G H 0.4962 0.9834 0.5819
H4H H 0.0166 1.5128 0.5819
H5A H -0.5583 0.8755 0.3787
H5B H 0.1245 0.5662 0.3787
H5F H -0.4338 0.4417 0.6213
H5G H 0.5583 1.1245 0.6213
H5H H -0.1245 1.4338 0.6213
C3A C -0.4311(4) 1.0612(6) 0.33288(13)
C3B C -0.0612(6) 0.5077(4) 0.33288(13)
C3F C -0.4923(4) 0.5689(4) 0.66712(13)
C3G C 0.4311(4) 0.9388(6) 0.66712(13)
C3H C 0.0612(6) 1.4923(4) 0.66712(13)
Fe3? Fe 0.7667(6) 1.6161(7) 0.2500
H2? H 0.8819 1.8091 0.2268
O9? O -0.670(11) 0.7049(16) 0.2500
O10? O -0.819(3) 0.790(3) 0.2500
O11? O -0.806(8) 0.682(11) 0.2500
loop_
_geom_bond_atom_site_label_1
_geom_bond_atom_site_label_2
_geom_bond_site_symmetry_1
_geom_bond_site_symmetry_2
Fe1 N1 1_555 1_555
Fe2 O1 1_555 1_555
O1 C3 1_555 1_555
O2 C3 1_555 1_555
O3 Fe2 1_555 1_555
O4 Fe2 1_555 1_555
H1 O4 1_555 1_555
N1 N2 1_555 1_555
N2 N3 1_555 1_555
N3 N4 1_555 1_555
N4 C1 1_555 1_555
C1 N1 1_555 1_555
H3 C1 1_555 1_555
C2 N4 1_555 1_555
H4 C2 1_555 1_555
H5 C2 1_555 1_555
C3 C2 1_555 1_555
Cl1 O5 1_555 1_555
O6 Cl1 1_555 1_555
Fe2A O1A 1_555 1_555
Fe2B O1B 1_555 1_555
Fe2B_2 O2 1_555 1_555
Fe2A_2 O3 1_555 1_555
Fe2_2 O2A 1_555 1_555
Fe2A_3 O2B 1_555 1_555
Fe2F O1F 1_555 1_555
Fe2D O2F 1_555 1_555
Fe2C O1G 1_555 1_555
Fe2F_2 O2G 1_555 1_555
Fe2D_2 O1H 1_555 1_555
Fe2C_2 O2H 1_555 1_555
O1A C3A 1_555 1_555
O1B C3B 1_555 1_555
O1F C3F 1_555 1_555
O1G C3G 1_555 1_555
O1H C3H 1_555 1_555
O1K Fe2 1_555 1_555
O1I Fe2A 1_555 1_555
O1J Fe2B 1_555 1_555
O2A C3A 1_555 1_555
O2B C3B 1_555 1_555
O2F C3F 1_555 1_555
O2G C3G 1_555 1_555
O2H C3H 1_555 1_555
O2A_2 Fe2 1_555 1_555
O2I Fe2 1_555 1_555
O2B_2 Fe2A 1_555 1_555
O2J Fe2A 1_555 1_555
O2_2 Fe2B 1_555 1_555
O2K Fe2B 1_555 1_555
O3_2 Fe2A 1_555 1_555
O3_3 Fe2B 1_555 1_555
O4A Fe2A 1_555 1_555
O4B Fe2B 1_555 1_555
H1K O4 1_555 1_555
H1A O4A 1_555 1_555
H1I O4A 1_555 1_555
H1B O4B 1_555 1_555
H1J O4B 1_555 1_555
N1A Fe1 1_555 1_555
N1B Fe1 1_555 1_555
N1F Fe1 1_555 1_555
N1G Fe1 1_555 1_555
N1H Fe1 1_555 1_555
N2A N1A 1_555 1_555
N2B N1B 1_555 1_555
N2F N1F 1_555 1_555
N2G N1G 1_555 1_555
N2H N1H 1_555 1_555
N3A N2A 1_555 1_555
N3B N2B 1_555 1_555
N3F N2F 1_555 1_555
N3G N2G 1_555 1_555
N3H N2H 1_555 1_555
N4A N3A 1_555 1_555
N4B N3B 1_555 1_555
N4F N3F 1_555 1_555
N4G N3G 1_555 1_555
N4H N3H 1_555 1_555
C1A N1A 1_555 1_555
C1B N1B 1_555 1_555
C1F N1F 1_555 1_555
C1G N1G 1_555 1_555
C1H N1H 1_555 1_555
H3A C1A 1_555 1_555
H3B C1B 1_555 1_555
H3F C1F 1_555 1_555
H3G C1G 1_555 1_555
H3H C1H 1_555 1_555
C2A N4A 1_555 1_555
C2B N4B 1_555 1_555
C2F N4F 1_555 1_555
C2G N4G 1_555 1_555
C2H N4H 1_555 1_555
H4A C2A 1_555 1_555
H4B C2B 1_555 1_555
H4F C2F 1_555 1_555
H4G C2G 1_555 1_555
H4H C2H 1_555 1_555
H5A C2A 1_555 1_555
H5B C2B 1_555 1_555
H5F C2F 1_555 1_555
H5G C2G 1_555 1_555
H5H C2H 1_555 1_555
C3A C2A 1_555 1_555
C3B C2B 1_555 1_555
C3F C2F 1_555 1_555
C3G C2G 1_555 1_555
C3H C2H 1_555 1_555
O6A Cl1 1_555 1_555
O6B Cl1 1_555 1_555
O3 Fe2B_2 1_555 1_555
Fe2_2 O3_2 1_555 1_555
Fe2A_3 O3_3 1_555 1_555
N4A C1A 1_555 1_555
N4B C1B 1_555 1_555
N4F C1F 1_555 1_555
N4G C1G 1_555 1_555
N4H C1H 1_555 1_555

#END
