
#######################################################################
#
#                 Cambridge Crystallographic Data Centre
#                                CCDC 
#
#######################################################################
#
# If this CIF has been generated from an entry in the Cambridge 
# Structural Database, then it will include bibliographic, chemical, 
# crystal, experimental, refinement or atomic coordinate data resulting 
# from the CCDC's data processing and validation procedures.
#
#######################################################################

data_DIXWAJ
_symmetry_cell_setting           tetragonal
_symmetry_space_group_name_H-M   'P 43 21 2'
_symmetry_Int_Tables_number      96
_space_group_name_Hall           'P 4nw 2abw'
loop_
_symmetry_equiv_pos_site_id
_symmetry_equiv_pos_as_xyz
1 x,y,z
2 -x,-y,1/2+z
3 1/2-y,1/2+x,3/4+z
4 1/2+y,1/2-x,1/4+z
5 1/2-x,1/2+y,3/4-z
6 1/2+x,1/2-y,1/4-z
7 y,x,-z
8 -y,-x,1/2-z
_cell_length_a                   13.2150(10)
_cell_length_b                   13.2150(10)
_cell_length_c                   12.84350(10)
_cell_angle_alpha                90
_cell_angle_beta                 90
_cell_angle_gamma                90
_cell_volume                     2242.94
loop_
_atom_site_label
_atom_site_type_symbol
_atom_site_fract_x
_atom_site_fract_y
_atom_site_fract_z
Zn1 Zn 0.459982(17) -0.075342(18) -0.159824(18)
O1 O 0.51698(11) -0.20227(11) -0.20731(12)
O2 O 0.62353(14) -0.15457(14) -0.33244(14)
O3 O 0.97199(12) -0.39951(13) -0.25234(15)
O4 O 0.91595(13) -0.52128(14) -0.14766(15)
C1 C 0.65048(18) -0.31348(18) -0.2527(2)
C2 C 0.76848(17) -0.30447(17) -0.26231(17)
C3 C 0.80065(19) -0.3961(2) -0.19780(19)
C4 C 0.7278(2) -0.4284(2) -0.1368(2)
H1 H 0.7340 -0.4825 -0.0910
C5 C 0.6331(2) -0.3668(2) -0.1504(2)
H2 H 0.6250 -0.3186 -0.0940
H3 H 0.5737 -0.4098 -0.1535
C6 C 0.6055(3) -0.3822(2) -0.3411(3)
H4 H 0.5334 -0.3861 -0.3334
H5 H 0.6341 -0.4488 -0.3361
H6 H 0.6216 -0.3535 -0.4078
C7 C 0.8052(2) -0.3063(3) -0.3745(2)
H7 H 0.8776 -0.3008 -0.3758
H8 H 0.7761 -0.2505 -0.4119
H9 H 0.7851 -0.3687 -0.4067
C8 C 0.8070(2) -0.2104(2) -0.2073(3)
H10 H 0.8793 -0.2066 -0.2141
H11 H 0.7893 -0.2136 -0.1349
H12 H 0.7769 -0.1515 -0.2381
C9 C 0.59342(16) -0.21512(17) -0.26356(16)
C10 C 0.90322(18) -0.44148(19) -0.19946(18)
Zn1B Zn 0.575342(18) -0.040018(17) -0.409824(18)
Zn1G Zn 1.075342(18) -0.459982(17) -0.340176(18)
Zn1D Zn 1.040018(17) -0.575342(18) -0.090176(18)
O2C O 0.34543(14) -0.12353(14) -0.08244(14)
O3G O 0.39951(13) 0.02801(12) -0.24766(15)
O4D O 0.58405(13) -0.02128(14) -0.10234(15)
loop_
_geom_bond_atom_site_label_1
_geom_bond_atom_site_label_2
_geom_bond_site_symmetry_1
_geom_bond_site_symmetry_2
Zn1 O1 1_555 1_555
O1 C9 1_555 1_555
O2 C9 1_555 1_555
O3 C10 1_555 1_555
O4 C10 1_555 1_555
C1 C2 1_555 1_555
C2 C3 1_555 1_555
C3 C4 1_555 1_555
C4 H1 1_555 1_555
C5 C1 1_555 1_555
H2 C5 1_555 1_555
H3 C5 1_555 1_555
C6 C1 1_555 1_555
H4 C6 1_555 1_555
H5 C6 1_555 1_555
H6 C6 1_555 1_555
C7 C2 1_555 1_555
H7 C7 1_555 1_555
H8 C7 1_555 1_555
H9 C7 1_555 1_555
C8 C2 1_555 1_555
H10 C8 1_555 1_555
H11 C8 1_555 1_555
H12 C8 1_555 1_555
C9 C1 1_555 1_555
C10 C3 1_555 1_555
Zn1B O2 1_555 1_555
Zn1G O3 1_555 1_555
Zn1D O4 1_555 1_555
O2C Zn1 1_555 1_555
O3G Zn1 1_555 1_555
O4D Zn1 1_555 1_555
C4 C5 1_555 1_555

#END
