
#######################################################################
#
#                 Cambridge Crystallographic Data Centre
#                                CCDC 
#
#######################################################################
#
# If this CIF has been generated from an entry in the Cambridge 
# Structural Database, then it will include bibliographic, chemical, 
# crystal, experimental, refinement or atomic coordinate data resulting 
# from the CCDC's data processing and validation procedures.
#
#######################################################################

data_DIYBUK
_symmetry_cell_setting           orthorhombic
_symmetry_space_group_name_H-M   'P b c a'
_symmetry_Int_Tables_number      61
_space_group_name_Hall           '-P 2ac 2ab'
loop_
_symmetry_equiv_pos_site_id
_symmetry_equiv_pos_as_xyz
1 x,y,z
2 1/2-x,-y,1/2+z
3 1/2+x,1/2-y,-z
4 -x,1/2+y,1/2-z
5 -x,-y,-z
6 1/2+x,y,1/2-z
7 1/2-x,1/2+y,z
8 x,1/2-y,1/2+z
_cell_length_a                   18.2319(8)
_cell_length_b                   14.2937(7)
_cell_length_c                   18.4926(8)
_cell_angle_alpha                90
_cell_angle_beta                 90
_cell_angle_gamma                90
_cell_volume                     4819.2
loop_
_atom_site_label
_atom_site_type_symbol
_atom_site_fract_x
_atom_site_fract_y
_atom_site_fract_z
C1 C 0.3953(2) 0.4535(3) 0.5081(2)
H1 H 0.4401 0.4241 0.4998
C2 C 0.3922(3) 0.5330(3) 0.5491(2)
H2 H 0.4350 0.5566 0.5696
C3 C 0.3258(3) 0.5791(3) 0.5606(2)
H3 H 0.3251 0.6341 0.5875
C4 C 0.2620(3) 0.5450(3) 0.5332(2)
H4 H 0.2181 0.5763 0.5417
C5 C 0.2624(2) 0.4613(3) 0.4915(2)
C6 C 0.3298(2) 0.4160(3) 0.47828(19)
C7 C 0.2713(2) 0.2976(3) 0.41475(19)
C8 C 0.2025(2) 0.3395(3) 0.4253(2)
H5 H 0.1603 0.3123 0.4064
C9 C 0.1985(2) 0.4209(3) 0.4637(2)
H6 H 0.1533 0.4495 0.4713
C10 C 0.2834(2) 0.2101(3) 0.37404(19)
C11 C 0.3457(2) 0.1009(3) 0.3190(2)
C12 C 0.3984(2) 0.0425(3) 0.2885(2)
H7 H 0.4479 0.0584 0.2894
C13 C 0.3753(2) -0.0387(3) 0.2574(2)
H8 H 0.4096 -0.0782 0.2363
C14 C 0.3011(2) -0.0643(3) 0.2565(2)
H9 H 0.2875 -0.1202 0.2346
C15 C 0.2482(2) -0.0091(3) 0.2868(2)
H10 H 0.1989 -0.0258 0.2863
C16 C 0.2724(2) 0.0732(3) 0.31846(19)
C17 C 0.15517(18) 0.1374(3) 0.37024(19)
H11 H 0.1448 0.1717 0.4143
H12 H 0.1429 0.0723 0.3788
C18 C 0.10646(19) 0.1747(2) 0.31032(18)
C19 C 0.1287(2) 0.1791(3) 0.2390(2)
H13 H 0.1767 0.1638 0.2267
C20 C 0.0799(2) 0.2060(3) 0.1859(2)
H14 H 0.0958 0.2069 0.1381
C21 C -0.0091(2) 0.2293(3) 0.2697(2)
H15 H -0.0564 0.2487 0.2812
C22 C 0.0357(2) 0.2011(3) 0.3254(2)
H16 H 0.0183 0.1999 0.3726
Cl1 Cl 0.44190(6) 0.42588(7) 0.32612(6)
Cl2 Cl 0.50193(6) 0.23942(8) 0.47847(5)
Co1 Co 0.43332(3) 0.27980(4) 0.37805(3)
N1 N 0.35141(16) 0.1871(2) 0.35414(16)
N2 N 0.23365(15) 0.1442(2) 0.35460(16)
N3 N 0.33365(16) 0.3353(2) 0.43845(16)
N4 N 0.01079(16) 0.2307(2) 0.20042(16)
Co1E Co -0.06668(3) 0.27980(4) 0.12195(3)
N4E N 0.51079(16) 0.2307(2) 0.29958(16)
C23 C 0.6940(4) 0.6997(5) 0.3690(3)
H17 H 0.7368 0.7019 0.3992
H18 H 0.6933 0.6419 0.3426
H19 H 0.6508 0.7040 0.3985
O1 O 0.6955(3) 0.7720(4) 0.3220(3)
H20 H 0.6684 0.8233 0.3425
C24 C 0.5529(5) 0.9515(6) 0.3888(5)
H21 H 0.5473 0.9973 0.4264
H22 H 0.5056 0.9277 0.3755
H23 H 0.5756 0.9799 0.3475
O2 O 0.5961(3) 0.8793(5) 0.4134(4)
H24 H 0.5768 0.8552 0.4489
loop_
_geom_bond_atom_site_label_1
_geom_bond_atom_site_label_2
_geom_bond_site_symmetry_1
_geom_bond_site_symmetry_2
C1 H1 1_555 1_555
C2 C1 1_555 1_555
H2 C2 1_555 1_555
C3 C2 1_555 1_555
H3 C3 1_555 1_555
C4 C3 1_555 1_555
H4 C4 1_555 1_555
C5 C4 1_555 1_555
C6 C1 1_555 1_555
C7 C8 1_555 1_555
C8 H5 1_555 1_555
C9 C5 1_555 1_555
H6 C9 1_555 1_555
C10 C7 1_555 1_555
C11 C12 1_555 1_555
C12 H7 1_555 1_555
C13 C12 1_555 1_555
H8 C13 1_555 1_555
C14 C13 1_555 1_555
H9 C14 1_555 1_555
C15 C14 1_555 1_555
H10 C15 1_555 1_555
C16 C11 1_555 1_555
C17 H11 1_555 1_555
H12 C17 1_555 1_555
C18 C17 1_555 1_555
C19 C18 1_555 1_555
H13 C19 1_555 1_555
C20 C19 1_555 1_555
H14 C20 1_555 1_555
C21 H15 1_555 1_555
C22 C18 1_555 1_555
H16 C22 1_555 1_555
Cl1 Co1 1_555 1_555
Cl2 Co1 1_555 1_555
Co1 N1 1_555 1_555
N1 C10 1_555 1_555
N2 C10 1_555 1_555
N3 C6 1_555 1_555
N4 C20 1_555 1_555
C23 H17 1_555 1_555
H18 C23 1_555 1_555
H19 C23 1_555 1_555
O1 C23 1_555 1_555
H20 O1 1_555 1_555
C24 H21 1_555 1_555
H22 C24 1_555 1_555
H23 C24 1_555 1_555
O2 C24 1_555 1_555
H24 O2 1_555 1_555
Co1E N4 1_555 1_555
N4E Co1 1_555 1_555
C5 C6 1_555 1_555
C7 N3 1_555 1_555
C8 C9 1_555 1_555
C11 N1 1_555 1_555
C15 C16 1_555 1_555
C16 N2 1_555 1_555
C17 N2 1_555 1_555
C21 C22 1_555 1_555
C21 N4 1_555 1_555
Co1 N3 1_555 1_555

#END
