
#######################################################################
#
#                 Cambridge Crystallographic Data Centre
#                                CCDC 
#
#######################################################################
#
# If this CIF has been generated from an entry in the Cambridge 
# Structural Database, then it will include bibliographic, chemical, 
# crystal, experimental, refinement or atomic coordinate data resulting 
# from the CCDC's data processing and validation procedures.
#
#######################################################################

data_DIYCIY
_symmetry_cell_setting           monoclinic
_symmetry_space_group_name_H-M   'P 21/n'
_symmetry_Int_Tables_number      14
_space_group_name_Hall           '-P 2yn'
loop_
_symmetry_equiv_pos_site_id
_symmetry_equiv_pos_as_xyz
1 x,y,z
2 1/2-x,1/2+y,1/2-z
3 -x,-y,-z
4 1/2+x,1/2-y,1/2+z
_cell_length_a                   8.843(4)
_cell_length_b                   23.466(11)
_cell_length_c                   23.493(11)
_cell_angle_alpha                90
_cell_angle_beta                 91.648(7)
_cell_angle_gamma                90
_cell_volume                     4873.01
loop_
_atom_site_label
_atom_site_type_symbol
_atom_site_fract_x
_atom_site_fract_y
_atom_site_fract_z
Nd1 Nd 1.45077(9) 0.48101(3) 0.21272(3)
N1 N 1.4793(14) 0.6093(5) 0.3496(5)
N2 N 1.6987(19) 0.5385(7) 0.4601(6)
N3 N 1.9481(13) 0.8898(4) 0.5702(4)
N4 N 1.6409(15) 0.9363(5) 0.5657(5)
N5 N 1.5735(19) 0.3933(7) 0.2961(6)
N6 N 1.3845(15) 0.3986(5) 0.1145(5)
N7 N 1.7835(19) 0.5037(7) 0.2136(7)
O1 O 1.7511(11) 0.7546(4) 0.3634(4)
O2 O 1.9366(11) 0.7328(4) 0.4572(4)
O3 O 1.3903(10) 0.7137(4) 0.3551(3)
O4 O 1.3881(11) 0.5570(4) 0.2771(4)
O5 O 1.8780(10) 0.7821(4) 0.5915(3)
O6 O 1.9984(11) 0.9386(4) 0.6508(4)
O7 O 1.5611(15) 0.4427(5) 0.3109(5)
O8 O 1.5188(16) 0.3802(5) 0.2459(5)
O9 O 1.610(2) 0.3548(6) 0.3283(6)
O10 O 1.3207(15) 0.3920(5) 0.1602(5)
O11 O 1.4757(12) 0.4411(4) 0.1134(4)
O12 O 1.3600(15) 0.3694(5) 0.0743(5)
O13 O 1.7343(16) 0.4652(6) 0.1846(5)
O14 O 1.7062(14) 0.5277(5) 0.2479(5)
O15 O 1.9215(17) 0.5202(8) 0.2138(8)
O16 O 1.2314(13) 0.4489(5) 0.2719(4)
H1 H 1.2059 0.4697 0.2979
O17 O 1.2086(10) 0.5109(4) 0.1648(4)
H2 H 1.2006 0.5067 0.1289
H3 H 1.1266 0.4980 0.1778
C1 C 1.5379(16) 0.7609(6) 0.4240(5)
C2 C 1.6825(15) 0.7545(6) 0.4177(5)
C3 C 1.7833(16) 0.7424(6) 0.4660(6)
C4 C 1.7284(16) 0.7403(6) 0.5197(5)
C5 C 1.5691(15) 0.7508(6) 0.5273(5)
C6 C 1.4744(16) 0.7590(5) 0.4784(5)
C7 C 1.3197(16) 0.7651(6) 0.4876(6)
H5 H 1.2538 0.7687 0.4562
C8 C 1.2619(18) 0.7661(6) 0.5403(6)
H6 H 1.1586 0.7710 0.5449
C9 C 1.3590(17) 0.7596(7) 0.5875(6)
H7 H 1.3189 0.7611 0.6236
C10 C 1.5122(16) 0.7509(6) 0.5827(6)
H8 H 1.5753 0.7454 0.6146
C11 C 1.838(2) 0.8030(7) 0.3532(7)
H9 H 1.7742 0.8360 0.3520
H10 H 1.8870 0.7989 0.3175
H11 H 1.9136 0.8073 0.3832
C12 C 1.971(2) 0.6821(8) 0.4295(8)
H12 H 1.9459 0.6504 0.4532
H13 H 2.0774 0.6812 0.4221
H14 H 1.9143 0.6798 0.3942
C13 C 1.4342(16) 0.7700(5) 0.3704(5)
H15 H 1.3469 0.7931 0.3791
H16 H 1.4889 0.7881 0.3401
C14 C 1.8308(16) 0.7285(6) 0.5706(6)
H17 H 1.9173 0.7060 0.5597
H18 H 1.7769 0.7078 0.5995
C15 C 1.3900(16) 0.6023(6) 0.3022(5)
C16 C 1.2981(15) 0.6495(5) 0.2836(5)
C17 C 1.2958(14) 0.7055(5) 0.3074(5)
C18 C 1.2028(16) 0.7472(5) 0.2861(5)
H19 H 1.2044 0.7834 0.3023
C19 C 1.1057(15) 0.7351(6) 0.2401(6)
H20 H 1.0436 0.7637 0.2251
C20 C 1.1001(16) 0.6819(6) 0.2168(5)
H21 H 1.0324 0.6740 0.1868
C21 C 1.1930(15) 0.6409(6) 0.2373(5)
H22 H 1.1884 0.6051 0.2203
C22 C 1.574(2) 0.5644(7) 0.3744(6)
H23 H 1.6748 0.5673 0.3597
H24 H 1.5325 0.5276 0.3634
C23 C 1.582(2) 0.5686(7) 0.4387(7)
C24 C 1.496(2) 0.6014(7) 0.4715(7)
H25 H 1.4155 0.6221 0.4562
C25 C 1.533(2) 0.6031(8) 0.5298(7)
H26 H 1.4786 0.6272 0.5530
C26 C 1.635(2) 0.5740(8) 0.5516(8)
H27 H 1.6542 0.5754 0.5907
C27 C 1.717(3) 0.5400(9) 0.5187(8)
H28 H 1.7901 0.5165 0.5359
C28 C 1.9881(15) 0.8918(5) 0.6259(5)
C29 C 2.0248(14) 0.8379(5) 0.6551(5)
C30 C 1.9775(13) 0.7841(5) 0.6395(5)
C31 C 2.0144(14) 0.7367(5) 0.6707(5)
H29 H 1.9743 0.7014 0.6606
C32 C 2.1112(15) 0.7416(6) 0.7172(5)
H30 H 2.1404 0.7093 0.7377
C33 C 2.1653(15) 0.7947(6) 0.7337(5)
H31 H 2.2291 0.7980 0.7657
C34 C 2.1261(15) 0.8409(6) 0.7037(5)
H32 H 2.1655 0.8761 0.7147
C35 C 1.8951(17) 0.9384(6) 0.5358(6)
H33 H 1.9147 0.9736 0.5564
H34 H 1.9497 0.9398 0.5006
C36 C 1.7286(18) 0.9329(6) 0.5226(6)
C37 C 1.679(2) 0.9230(7) 0.4666(7)
H35 H 1.7448 0.9212 0.4365
C38 C 1.523(2) 0.9160(7) 0.4593(8)
H36 H 1.4819 0.9102 0.4229
C39 C 1.429(2) 0.9174(7) 0.5047(8)
H37 H 1.3258 0.9112 0.4994
C40 C 1.490(2) 0.9281(7) 0.5578(7)
H38 H 1.4272 0.9297 0.5889
C41 C 1.150(2) 0.3967(8) 0.2737(8)
H39 H 1.2200 0.3657 0.2793
H40 H 1.0944 0.3914 0.2384
H41 H 1.0814 0.3977 0.3045
Nd1C Nd 1.95077(9) 1.01899(3) 0.71272(3)
O6C O 1.4984(11) 0.5614(4) 0.1508(4)
O18 O 1.095(2) 0.4993(9) 0.3567(10)
H4 H 1.1870 0.5026 0.3623
C42 C 1.032(4) 0.5528(11) 0.3483(16)
H42 H 0.9239 0.5491 0.3437
H43 H 1.0718 0.5697 0.3147
H44 H 1.0552 0.5765 0.3806
loop_
_geom_bond_atom_site_label_1
_geom_bond_atom_site_label_2
_geom_bond_site_symmetry_1
_geom_bond_site_symmetry_2
Nd1 O4 1_555 1_555
N1 C15 1_555 1_555
N2 C23 1_555 1_555
N3 C28 1_555 1_555
N4 C36 1_555 1_555
N5 O7 1_555 1_555
N6 O10 1_555 1_555
N7 O13 1_555 1_555
O1 C2 1_555 1_555
O2 C3 1_555 1_555
O3 C13 1_555 1_555
O4 C15 1_555 1_555
O5 C14 1_555 1_555
O6 C28 1_555 1_555
O7 Nd1 1_555 1_555
O8 Nd1 1_555 1_555
O9 N5 1_555 1_555
O10 Nd1 1_555 1_555
O11 Nd1 1_555 1_555
O12 N6 1_555 1_555
O13 Nd1 1_555 1_555
O14 Nd1 1_555 1_555
O15 N7 1_555 1_555
O16 Nd1 1_555 1_555
H1 O16 1_555 1_555
O17 Nd1 1_555 1_555
H2 O17 1_555 1_555
H3 O17 1_555 1_555
O18 H4 1_555 1_555
C1 C2 1_555 1_555
C2 C3 1_555 1_555
C3 C4 1_555 1_555
C4 C5 1_555 1_555
C5 C6 1_555 1_555
C6 C1 1_555 1_555
C7 C6 1_555 1_555
H5 C7 1_555 1_555
C8 C7 1_555 1_555
H6 C8 1_555 1_555
C9 C8 1_555 1_555
H7 C9 1_555 1_555
C10 C5 1_555 1_555
H8 C10 1_555 1_555
C11 O1 1_555 1_555
H9 C11 1_555 1_555
H10 C11 1_555 1_555
H11 C11 1_555 1_555
C12 O2 1_555 1_555
H12 C12 1_555 1_555
H13 C12 1_555 1_555
H14 C12 1_555 1_555
C13 C1 1_555 1_555
H15 C13 1_555 1_555
H16 C13 1_555 1_555
C14 C4 1_555 1_555
H17 C14 1_555 1_555
H18 C14 1_555 1_555
C15 C16 1_555 1_555
C16 C17 1_555 1_555
C17 O3 1_555 1_555
C18 C17 1_555 1_555
H19 C18 1_555 1_555
C19 C18 1_555 1_555
H20 C19 1_555 1_555
C20 C19 1_555 1_555
H21 C20 1_555 1_555
C21 C16 1_555 1_555
H22 C21 1_555 1_555
C22 N1 1_555 1_555
H23 C22 1_555 1_555
H24 C22 1_555 1_555
C23 C22 1_555 1_555
C24 C23 1_555 1_555
H25 C24 1_555 1_555
C25 C24 1_555 1_555
H26 C25 1_555 1_555
C26 C25 1_555 1_555
H27 C26 1_555 1_555
C27 N2 1_555 1_555
H28 C27 1_555 1_555
C28 C29 1_555 1_555
C29 C30 1_555 1_555
C30 O5 1_555 1_555
C31 C30 1_555 1_555
H29 C31 1_555 1_555
C32 C31 1_555 1_555
H30 C32 1_555 1_555
C33 C32 1_555 1_555
H31 C33 1_555 1_555
C34 C29 1_555 1_555
H32 C34 1_555 1_555
C35 N3 1_555 1_555
H33 C35 1_555 1_555
H34 C35 1_555 1_555
C36 C35 1_555 1_555
C37 C36 1_555 1_555
H35 C37 1_555 1_555
C38 C37 1_555 1_555
H36 C38 1_555 1_555
C39 C38 1_555 1_555
H37 C39 1_555 1_555
C40 N4 1_555 1_555
H38 C40 1_555 1_555
C41 O16 1_555 1_555
H39 C41 1_555 1_555
H40 C41 1_555 1_555
H41 C41 1_555 1_555
C42 O18 1_555 1_555
H42 C42 1_555 1_555
H43 C42 1_555 1_555
H44 C42 1_555 1_555
Nd1C O6 1_555 1_555
O6C Nd1 1_555 1_555
N5 O8 1_555 1_555
N6 O11 1_555 1_555
N7 O14 1_555 1_555
C9 C10 1_555 1_555
C20 C21 1_555 1_555
C26 C27 1_555 1_555
C33 C34 1_555 1_555
C39 C40 1_555 1_555

#END
