
#######################################################################
#
#                 Cambridge Crystallographic Data Centre
#                                CCDC 
#
#######################################################################
#
# If this CIF has been generated from an entry in the Cambridge 
# Structural Database, then it will include bibliographic, chemical, 
# crystal, experimental, refinement or atomic coordinate data resulting 
# from the CCDC's data processing and validation procedures.
#
#######################################################################

data_DIYCAR
_symmetry_cell_setting           monoclinic
_symmetry_space_group_name_H-M   'P 21/c'
_symmetry_Int_Tables_number      14
_space_group_name_Hall           '-P 2ybc'
loop_
_symmetry_equiv_pos_site_id
_symmetry_equiv_pos_as_xyz
1 x,y,z
2 -x,1/2+y,1/2-z
3 -x,-y,-z
4 x,1/2-y,1/2+z
_cell_length_a                   12.2769(18)
_cell_length_b                   12.4664(18)
_cell_length_c                   16.5885(17)
_cell_angle_alpha                90
_cell_angle_beta                 116.011(8)
_cell_angle_gamma                90
_cell_volume                     2281.69
loop_
_atom_site_label
_atom_site_type_symbol
_atom_site_fract_x
_atom_site_fract_y
_atom_site_fract_z
Cd1 Cd 0.56781(2) 0.37057(2) 0.48691(2)
C1 C 0.3439(3) 0.4225(3) 0.3500(2)
C2 C 0.2331(3) 0.4640(3) 0.2727(2)
C3 C 0.2190(3) 0.5756(3) 0.2595(3)
H1 H 0.2770 0.6211 0.3004
C4 C 0.1218(4) 0.6191(3) 0.1880(3)
H2 H 0.1136 0.6931 0.1811
C5 C 0.0369(4) 0.5523(4) 0.1266(3)
H3 H -0.0277 0.5815 0.0770
C6 C 0.0460(3) 0.4426(3) 0.1373(3)
H4 H -0.0133 0.3987 0.0958
C7 C 0.1435(3) 0.3968(3) 0.2102(2)
C8 C -0.0050(3) 0.1659(3) 0.0401(2)
C9 C 0.0982(4) 0.1864(3) 0.0278(3)
H5 H 0.1640 0.2201 0.0733
C10 C 0.1053(4) 0.1581(3) -0.0501(3)
H6 H 0.1750 0.1734 -0.0568
C11 C 0.0093(4) 0.1071(3) -0.1180(3)
H7 H 0.0150 0.0850 -0.1695
C12 C -0.0949(4) 0.0894(3) -0.1086(3)
H8 H -0.1608 0.0575 -0.1555
C13 C -0.1047(3) 0.1176(3) -0.0312(3)
C14 C -0.2222(4) 0.0999(3) -0.0262(3)
C15 C 0.4586(4) 0.3057(3) 0.6277(3)
H9 H 0.4246 0.3739 0.6147
C16 C 0.4465(4) 0.2447(4) 0.6951(3)
H10 H 0.4059 0.2723 0.7265
C17 C 0.4955(4) 0.1452(4) 0.7130(3)
H11 H 0.4888 0.1043 0.7576
C18 C 0.5560(4) 0.1024(3) 0.6655(3)
C19 C 0.6044(4) -0.0029(4) 0.6794(3)
H12 H 0.6019 -0.0447 0.7250
C20 C 0.6535(4) -0.0433(4) 0.6284(3)
H13 H 0.6824 -0.1134 0.6380
C21 C 0.6626(3) 0.0191(3) 0.5590(3)
C22 C 0.7107(4) -0.0205(3) 0.5029(3)
H14 H 0.7382 -0.0909 0.5093
C23 C 0.7178(4) 0.0433(4) 0.4388(3)
H15 H 0.7500 0.0175 0.4012
C24 C 0.6752(4) 0.1491(3) 0.4307(3)
H16 H 0.6825 0.1935 0.3883
C25 C 0.6190(3) 0.1250(3) 0.5449(2)
C26 C 0.5633(3) 0.1676(3) 0.5985(2)
N1 N 0.5169(3) 0.2688(2) 0.5820(2)
N2 N 0.6249(3) 0.1888(2) 0.4807(2)
O1 O 0.4166(2) 0.48925(19) 0.40639(16)
O2 O 0.3674(2) 0.3254(2) 0.35609(17)
O3 O -0.2242(2) 0.1116(2) 0.04813(18)
O4 O -0.3168(2) 0.0780(2) -0.09561(19)
S1 S 0.15415(9) 0.25442(8) 0.22761(7)
S2 S -0.01405(9) 0.19553(8) 0.14316(7)
Cd1B Cd 0.43219(2) 0.62943(2) 0.51309(2)
Cd1C Cd -0.43219(2) 0.12943(2) -0.01309(2)
O1B O 0.5834(2) 0.51075(19) 0.59361(16)
O3C O 0.7758(2) 0.3884(2) 0.54813(18)
O4C O 0.6832(2) 0.4220(2) 0.40439(19)
loop_
_geom_bond_atom_site_label_1
_geom_bond_atom_site_label_2
_geom_bond_site_symmetry_1
_geom_bond_site_symmetry_2
Cd1 N1 1_555 1_555
C1 C2 1_555 1_555
C2 C3 1_555 1_555
C3 H1 1_555 1_555
C4 C3 1_555 1_555
H2 C4 1_555 1_555
C5 C4 1_555 1_555
H3 C5 1_555 1_555
C6 C5 1_555 1_555
H4 C6 1_555 1_555
C7 C2 1_555 1_555
C8 C9 1_555 1_555
C9 H5 1_555 1_555
C10 C9 1_555 1_555
H6 C10 1_555 1_555
C11 C10 1_555 1_555
H7 C11 1_555 1_555
C12 C11 1_555 1_555
H8 C12 1_555 1_555
C13 C8 1_555 1_555
C14 C13 1_555 1_555
C15 H9 1_555 1_555
C16 C15 1_555 1_555
H10 C16 1_555 1_555
C17 C16 1_555 1_555
H11 C17 1_555 1_555
C18 C17 1_555 1_555
C19 C18 1_555 1_555
H12 C19 1_555 1_555
C20 C19 1_555 1_555
H13 C20 1_555 1_555
C21 C20 1_555 1_555
C22 C21 1_555 1_555
H14 C22 1_555 1_555
C23 C22 1_555 1_555
H15 C23 1_555 1_555
C24 C23 1_555 1_555
H16 C24 1_555 1_555
C25 C21 1_555 1_555
C26 C18 1_555 1_555
N1 C15 1_555 1_555
N2 Cd1 1_555 1_555
O1 Cd1 1_555 1_555
O2 Cd1 1_555 1_555
O3 C14 1_555 1_555
O4 C14 1_555 1_555
S1 C7 1_555 1_555
S2 C8 1_555 1_555
Cd1B O1 1_555 1_555
Cd1C O3 1_555 1_555
O1B Cd1 1_555 1_555
O3C Cd1 1_555 1_555
O4C Cd1 1_555 1_555
C1 O1 1_555 1_555
C1 O2 1_555 1_555
C6 C7 1_555 1_555
C12 C13 1_555 1_555
C24 N2 1_555 1_555
C25 C26 1_555 1_555
C25 N2 1_555 1_555
C26 N1 1_555 1_555
O4 Cd1C 1_555 1_555
S1 S2 1_555 1_555
Cd1B O1B 1_555 1_555

#END
