
#######################################################################
#
#                 Cambridge Crystallographic Data Centre
#                                CCDC 
#
#######################################################################
#
# If this CIF has been generated from an entry in the Cambridge 
# Structural Database, then it will include bibliographic, chemical, 
# crystal, experimental, refinement or atomic coordinate data resulting 
# from the CCDC's data processing and validation procedures.
#
#######################################################################

data_DIYCOE
_symmetry_cell_setting           monoclinic
_symmetry_space_group_name_H-M   'P 21/n'
_symmetry_Int_Tables_number      14
_space_group_name_Hall           '-P 2yn'
loop_
_symmetry_equiv_pos_site_id
_symmetry_equiv_pos_as_xyz
1 x,y,z
2 1/2-x,1/2+y,1/2-z
3 -x,-y,-z
4 1/2+x,1/2-y,1/2+z
_cell_length_a                   8.731(4)
_cell_length_b                   22.868(11)
_cell_length_c                   23.426(11)
_cell_angle_alpha                90.00
_cell_angle_beta                 90.00
_cell_angle_gamma                90.00
_cell_volume                     4677.25
loop_
_atom_site_label
_atom_site_type_symbol
_atom_site_fract_x
_atom_site_fract_y
_atom_site_fract_z
Eu1 Eu 1.40168(6) 1.51544(2) 1.30269(2)
N1 N 1.3384(9) 1.3875(3) 1.4404(3)
H1 H 1.3434 1.3561 1.4605
N2 N 1.0262(10) 1.4542(4) 1.4243(4)
N3 N 0.8380(14) 1.0958(4) 1.6591(4)
H2 H 0.8316 1.1293 1.6427
N4 N 0.824(2) 1.0860(6) 1.5416(5)
N5 N 1.4683(11) 1.5981(4) 1.3953(4)
N6 N 1.3627(15) 1.5973(4) 1.2082(4)
N7 N 1.7091(16) 1.4817(7) 1.2779(6)
O1 O 1.3847(8) 1.2235(3) 1.5735(3)
O2 O 1.2027(9) 1.2501(4) 1.6667(3)
O3 O 1.3147(7) 1.2734(3) 1.4353(3)
O4 O 1.4033(9) 1.4303(3) 1.3570(3)
O5 O 0.8266(9) 1.2079(3) 1.6730(3)
O6 O 0.7804(9) 1.0425(3) 1.7350(3)
O7 O 1.4730(9) 1.5443(4) 1.4034(3)
O8 O 1.4236(9) 1.6137(3) 1.3470(3)
O9 O 1.5049(12) 1.6317(4) 1.4313(3)
O10 O 1.2595(11) 1.5868(4) 1.2418(3)
O11 O 1.4896(11) 1.5743(4) 1.2199(3)
O12 O 1.3477(15) 1.6267(4) 1.1670(4)
O13 O 1.6836(10) 1.5213(5) 1.3123(4)
O14 O 1.6045(13) 1.4596(4) 1.2515(4)
O15 O 1.8468(13) 1.4721(7) 1.2685(6)
O16 O 1.1528(7) 1.5222(3) 1.3439(3)
H3 H 1.1490 1.4980 1.3714
H4 H 1.1767 1.5552 1.3580
C1 C 1.1722(11) 1.2336(4) 1.5117(4)
C2 C 1.2323(11) 1.2340(4) 1.5655(4)
C3 C 1.1382(12) 1.2471(4) 1.6137(4)
C4 C 0.9839(12) 1.2552(4) 1.6078(4)
C5 C 0.9186(11) 1.2540(4) 1.5521(4)
C6 C 1.0149(11) 1.2463(4) 1.5045(4)
C7 C 0.9523(13) 1.2501(5) 1.4489(4)
H5 H 1.0150 1.2466 1.4170
C8 C 0.7959(14) 1.2590(6) 1.4427(4)
H6 H 0.7542 1.2620 1.4063
C9 C 0.7010(13) 1.2635(6) 1.4899(4)
H7 H 0.5958 1.2671 1.4847
C10 C 0.7595(12) 1.2628(5) 1.5439(4)
H8 H 0.6953 1.2680 1.5752
C11 C 1.2729(12) 1.2196(4) 1.4616(4)
H9 H 1.3638 1.1988 1.4741
H10 H 1.2183 1.1950 1.4346
C12 C 0.8878(11) 1.2645(4) 1.6601(4)
H11 H 0.8062 1.2923 1.6527
H12 H 0.9498 1.2789 1.6915
C13 C 1.4206(16) 1.1698(6) 1.6029(7)
H13 H 1.4149 1.1761 1.6434
H14 H 1.5221 1.1575 1.5929
H15 H 1.3485 1.1401 1.5921
C14 C 1.3002(16) 1.2993(7) 1.6747(5)
H16 H 1.3797 1.2989 1.6464
H17 H 1.3452 1.2976 1.7121
H18 H 1.2414 1.3346 1.6711
C15 C 1.3931(10) 1.3855(4) 1.3870(4)
C16 C 1.4466(10) 1.3288(4) 1.3655(3)
C17 C 1.4070(10) 1.2736(4) 1.3880(4)
C18 C 1.4579(12) 1.2232(5) 1.3630(4)
H19 H 1.4282 1.1871 1.3776
C19 C 1.5535(13) 1.2259(5) 1.3161(4)
H20 H 1.5883 1.1916 1.2993
C20 C 1.5978(12) 1.2794(5) 1.2941(4)
H21 H 1.6642 1.2811 1.2631
C21 C 1.5435(11) 1.3294(5) 1.3182(4)
H22 H 1.5719 1.3652 1.3026
C22 C 1.2712(12) 1.4392(4) 1.4670(4)
H23 H 1.2993 1.4737 1.4452
H24 H 1.3117 1.4436 1.5053
C23 C 1.1028(12) 1.4346(4) 1.4696(4)
C24 C 1.0292(15) 1.4085(5) 1.5148(5)
H25 H 1.0852 1.3945 1.5456
C25 C 0.8712(19) 1.4033(6) 1.5140(7)
H26 H 0.8198 1.3867 1.5448
C26 C 0.7919(18) 1.4228(7) 1.4678(8)
H27 H 0.6861 1.4186 1.4657
C27 C 0.8714(15) 1.4485(7) 1.4245(6)
H28 H 0.8168 1.4630 1.3935
C28 C 0.7816(13) 1.0905(5) 1.7099(4)
C29 C 0.7078(10) 1.1421(4) 1.7359(3)
C30 C 0.7325(11) 1.2000(5) 1.7192(4)
C31 C 0.6653(12) 1.2462(5) 1.7481(4)
H29 H 0.6857 1.2847 1.7378
C32 C 0.5677(13) 1.2337(5) 1.7926(4)
H30 H 0.5198 1.2643 1.8118
C33 C 0.5400(12) 1.1785(5) 1.8088(4)
H31 H 0.4734 1.1712 1.8389
C34 C 0.6090(11) 1.1327(5) 1.7814(4)
H32 H 0.5894 1.0947 1.7934
C35 C 0.914(2) 1.0471(6) 1.6271(5)
H33 H 0.8494 1.0125 1.6281
H34 H 1.0109 1.0375 1.6449
C36 C 0.939(2) 1.0649(6) 1.5684(6)
C37 C 1.072(2) 1.0610(6) 1.5419(6)
H35 H 1.1561 1.0465 1.5616
C38 C 1.089(3) 1.0783(7) 1.4848(7)
H36 H 1.1836 1.0769 1.4665
C39 C 0.963(3) 1.0968(7) 1.4582(7)
H37 H 0.9687 1.1061 1.4196
C40 C 0.831(3) 1.1022(7) 1.4851(7)
H38 H 0.7446 1.1166 1.4663
Eu1C Eu 0.90168(6) 0.98456(2) 1.80269(2)
O6C O 1.2804(9) 1.4575(3) 1.2350(3)
loop_
_geom_bond_atom_site_label_1
_geom_bond_atom_site_label_2
_geom_bond_site_symmetry_1
_geom_bond_site_symmetry_2
Eu1 O4 1_555 1_555
N1 H1 1_555 1_555
N2 C23 1_555 1_555
N3 H2 1_555 1_555
N4 C36 1_555 1_555
N5 O7 1_555 1_555
N6 O10 1_555 1_555
N7 O13 1_555 1_555
O1 C2 1_555 1_555
O2 C3 1_555 1_555
O3 C11 1_555 1_555
O4 C15 1_555 1_555
O5 C12 1_555 1_555
O6 C28 1_555 1_555
O7 Eu1 1_555 1_555
O8 Eu1 1_555 1_555
O9 N5 1_555 1_555
O10 Eu1 1_555 1_555
O11 Eu1 1_555 1_555
O12 N6 1_555 1_555
O13 Eu1 1_555 1_555
O14 Eu1 1_555 1_555
O15 N7 1_555 1_555
O16 Eu1 1_555 1_555
H3 O16 1_555 1_555
H4 O16 1_555 1_555
C1 C2 1_555 1_555
C2 C3 1_555 1_555
C3 C4 1_555 1_555
C4 C5 1_555 1_555
C5 C6 1_555 1_555
C6 C1 1_555 1_555
C7 C6 1_555 1_555
H5 C7 1_555 1_555
C8 C7 1_555 1_555
H6 C8 1_555 1_555
C9 C8 1_555 1_555
H7 C9 1_555 1_555
C10 C5 1_555 1_555
H8 C10 1_555 1_555
C11 C1 1_555 1_555
H9 C11 1_555 1_555
H10 C11 1_555 1_555
C12 C4 1_555 1_555
H11 C12 1_555 1_555
H12 C12 1_555 1_555
C13 O1 1_555 1_555
H13 C13 1_555 1_555
H14 C13 1_555 1_555
H15 C13 1_555 1_555
C14 O2 1_555 1_555
H16 C14 1_555 1_555
H17 C14 1_555 1_555
H18 C14 1_555 1_555
C15 N1 1_555 1_555
C16 C15 1_555 1_555
C17 O3 1_555 1_555
C18 C17 1_555 1_555
H19 C18 1_555 1_555
C19 C18 1_555 1_555
H20 C19 1_555 1_555
C20 C19 1_555 1_555
H21 C20 1_555 1_555
C21 C16 1_555 1_555
H22 C21 1_555 1_555
C22 N1 1_555 1_555
H23 C22 1_555 1_555
H24 C22 1_555 1_555
C23 C22 1_555 1_555
C24 C23 1_555 1_555
H25 C24 1_555 1_555
C25 C24 1_555 1_555
H26 C25 1_555 1_555
C26 C25 1_555 1_555
H27 C26 1_555 1_555
C27 N2 1_555 1_555
H28 C27 1_555 1_555
C28 N3 1_555 1_555
C29 C28 1_555 1_555
C30 O5 1_555 1_555
C31 C30 1_555 1_555
H29 C31 1_555 1_555
C32 C31 1_555 1_555
H30 C32 1_555 1_555
C33 C32 1_555 1_555
H31 C33 1_555 1_555
C34 C29 1_555 1_555
H32 C34 1_555 1_555
C35 N3 1_555 1_555
H33 C35 1_555 1_555
H34 C35 1_555 1_555
C36 C35 1_555 1_555
C37 C36 1_555 1_555
H35 C37 1_555 1_555
C38 C37 1_555 1_555
H36 C38 1_555 1_555
C39 C38 1_555 1_555
H37 C39 1_555 1_555
C40 N4 1_555 1_555
H38 C40 1_555 1_555
Eu1C O6 1_555 1_555
O6C Eu1 1_555 1_555
N5 O8 1_555 1_555
N6 O11 1_555 1_555
N7 O14 1_555 1_555
C9 C10 1_555 1_555
C16 C17 1_555 1_555
C20 C21 1_555 1_555
C26 C27 1_555 1_555
C29 C30 1_555 1_555
C33 C34 1_555 1_555
C39 C40 1_555 1_555

#END
