
#######################################################################
#
#                 Cambridge Crystallographic Data Centre
#                                CCDC 
#
#######################################################################
#
# If this CIF has been generated from an entry in the Cambridge 
# Structural Database, then it will include bibliographic, chemical, 
# crystal, experimental, refinement or atomic coordinate data resulting 
# from the CCDC's data processing and validation procedures.
#
#######################################################################

data_DIYDIA
_symmetry_cell_setting           monoclinic
_symmetry_space_group_name_H-M   'C c'
_symmetry_Int_Tables_number      9
_space_group_name_Hall           'C -2yc'
loop_
_symmetry_equiv_pos_site_id
_symmetry_equiv_pos_as_xyz
1 x,y,z
2 x,-y,1/2+z
3 1/2+x,1/2+y,z
4 1/2+x,1/2-y,1/2+z
_cell_length_a                   29.978(4)
_cell_length_b                   18.696(3)
_cell_length_c                   18.525(3)
_cell_angle_alpha                90
_cell_angle_beta                 117.550(6)
_cell_angle_gamma                90
_cell_volume                     9205.36
loop_
_atom_site_label
_atom_site_type_symbol
_atom_site_fract_x
_atom_site_fract_y
_atom_site_fract_z
Zn1 Zn 0.54379(6) 0.86970(12) 0.80461(8)
Zn2 Zn 0.39577(6) 0.63104(12) 0.41681(8)
N1 N 0.5909(4) 0.8069(6) 0.8891(6)
N2 N 0.6034(5) 0.9350(7) 0.8240(7)
N3 N 0.4961(6) 0.9162(8) 0.6879(9)
N4 N 0.4955(5) 0.7906(8) 0.7747(8)
N5 N 0.3403(5) 0.6965(7) 0.3198(7)
N6 N 0.4489(4) 0.7150(7) 0.4513(7)
N7 N 0.3394(5) 0.5597(7) 0.4008(7)
N8 N 0.4364(4) 0.5842(6) 0.5235(6)
C1 C 0.6403(5) 0.8206(8) 0.9455(8)
C2 C 0.6723(7) 0.8905(11) 0.9490(12)
C3 C 0.6479(5) 0.9392(7) 0.8805(8)
C4 C 0.6733(7) 1.0030(10) 0.8880(11)
H1 H 0.7050 1.0176 0.9302
C5 C 0.6404(6) 1.0408(10) 0.8174(10)
H2 H 0.6465 1.0851 0.7983
C6 C 0.5978(8) 0.9995(12) 0.7825(13)
C7 C 0.5605(6) 1.0206(9) 0.7105(10)
C8 C 0.5092(8) 0.9806(12) 0.6622(12)
C9 C 0.4710(5) 0.9885(9) 0.5807(9)
H3 H 0.4711 1.0240 0.5441
C10 C 0.4325(6) 0.9364(8) 0.5608(10)
H4 H 0.4026 0.9302 0.5110
C11 C 0.4499(7) 0.8950(10) 0.6349(11)
C12 C 0.4297(6) 0.8391(9) 0.6476(9)
C13 C 0.4415(5) 0.7917(8) 0.7056(8)
C14 C 0.4144(5) 0.7314(7) 0.7201(8)
H5 H 0.3802 0.7204 0.6842
C15 C 0.4414(5) 0.6950(6) 0.7862(7)
C16 C 0.4956(7) 0.7278(10) 0.8234(11)
C17 C 0.5434(6) 0.7032(8) 0.8916(9)
C18 C 0.5829(5) 0.7426(7) 0.9094(7)
C19 C 0.6315(4) 0.7185(7) 0.9836(7)
H6 H 0.6328 0.6744 1.0101
C20 C 0.6695(6) 0.7588(8) 1.0085(9)
H7 H 0.7033 0.7540 1.0498
C21 C 0.7226(3) 0.8992(5) 1.0131(6)
C22 C 0.7611(4) 0.8825(5) 0.9941(5)
H8 H 0.7534 0.8677 0.9405
C23 C 0.8110(3) 0.8873(5) 1.0535(7)
H9 H 0.8373 0.8759 1.0405
C24 C 0.8223(3) 0.9089(6) 1.1319(6)
H10 H 0.8564 0.9122 1.1725
C25 C 0.7838(5) 0.9257(6) 1.1509(5)
H11 H 0.7915 0.9404 1.2045
C26 C 0.7339(4) 0.9208(6) 1.0915(7)
H12 H 0.7076 0.9322 1.1045
C27 C 0.5596(4) 1.0837(5) 0.6593(6)
C28 C 0.5945(4) 1.0915(5) 0.6300(6)
H13 H 0.6133 1.0513 0.6280
C29 C 0.6019(4) 1.1580(6) 0.6038(6)
H14 H 0.6258 1.1633 0.5838
C30 C 0.5744(5) 1.2168(5) 0.6067(7)
H15 H 0.5795 1.2622 0.5888
C31 C 0.5395(4) 1.2090(6) 0.6360(7)
H16 H 0.5207 1.2492 0.6380
C32 C 0.5321(4) 1.1425(7) 0.6622(6)
H17 H 0.5083 1.1372 0.6822
C33 C 0.3719(4) 0.8406(7) 0.5795(8)
C34 C 0.3574(4) 0.8114(6) 0.5029(9)
H18 H 0.3821 0.7977 0.4871
C35 C 0.3066(5) 0.8022(5) 0.4493(6)
H19 H 0.2967 0.7822 0.3969
C36 C 0.2704(3) 0.8223(7) 0.4724(8)
H20 H 0.2357 0.8160 0.4358
C37 C 0.2849(6) 0.8515(7) 0.5490(9)
H21 H 0.2602 0.8652 0.5648
C38 C 0.3357(6) 0.8607(6) 0.6026(6)
H22 H 0.3456 0.8807 0.6549
C39 C 0.5363(4) 0.6361(5) 0.9277(6)
C40 C 0.5535(4) 0.5743(7) 0.9068(6)
H23 H 0.5610 0.5748 0.8623
C41 C 0.5596(4) 0.5118(5) 0.9510(7)
H24 H 0.5713 0.4696 0.9367
C42 C 0.5486(4) 0.5110(5) 1.0160(7)
H25 H 0.5527 0.4682 1.0462
C43 C 0.5314(4) 0.5727(7) 1.0369(6)
H26 H 0.5238 0.5722 1.0814
C44 C 0.5253(4) 0.6353(5) 0.9927(7)
H27 H 0.5135 0.6775 1.0070
C45 C 0.4431(6) 0.7724(8) 0.4121(9)
C46 C 0.4027(7) 0.7969(10) 0.3459(11)
C47 C 0.3486(6) 0.7639(8) 0.2916(9)
C48 C 0.3059(6) 0.7951(10) 0.2303(10)
H28 H 0.2996 0.8399 0.2031
C49 C 0.2749(6) 0.7346(8) 0.2234(8)
H29 H 0.2417 0.7351 0.1798
C50 C 0.2881(6) 0.6771(9) 0.2723(9)
C51 C 0.2719(4) 0.6164(7) 0.2755(7)
C52 C 0.2903(5) 0.5587(8) 0.3219(8)
C53 C 0.2656(7) 0.4925(9) 0.3306(10)
H30 H 0.2320 0.4785 0.2949
C54 C 0.2957(5) 0.4577(9) 0.3922(9)
H31 H 0.2890 0.4108 0.4045
C55 C 0.3421(6) 0.4969(8) 0.4430(9)
C56 C 0.3872(7) 0.4845(10) 0.5209(11)
C57 C 0.4259(6) 0.5226(9) 0.5552(10)
C58 C 0.4718(6) 0.4948(9) 0.6321(10)
C59 C 0.5053(5) 0.5428(8) 0.6460(8)
H32 H 0.5380 0.5412 0.6910
C60 C 0.4867(7) 0.6046(9) 0.5807(10)
C61 C 0.5160(7) 0.6601(10) 0.5780(11)
C62 C 0.4899(6) 0.7138(9) 0.5132(9)
C63 C 0.5152(7) 0.7754(9) 0.5167(10)
H33 H 0.5489 0.7867 0.5543
C64 C 0.4838(6) 0.8150(8) 0.4586(9)
H34 H 0.4880 0.8640 0.4495
C65 C 0.3962(4) 0.8719(4) 0.3109(7)
C66 C 0.4237(4) 0.8854(6) 0.2692(7)
H35 H 0.4404 0.8473 0.2575
C67 C 0.4270(4) 0.9546(8) 0.2446(6)
H36 H 0.4458 0.9638 0.2161
C68 C 0.4026(4) 1.0103(5) 0.2617(6)
H37 H 0.4048 1.0576 0.2449
C69 C 0.3751(4) 0.9968(5) 0.3034(6)
H38 H 0.3584 1.0349 0.3151
C70 C 0.3719(3) 0.9276(6) 0.3280(5)
H39 H 0.3530 0.9184 0.3565
C71 C 0.2173(3) 0.6120(6) 0.2090(6)
C72 C 0.2092(4) 0.5949(5) 0.1309(7)
H40 H 0.2370 0.5890 0.1200
C73 C 0.1605(5) 0.5865(6) 0.0686(5)
H41 H 0.1549 0.5748 0.0152
C74 C 0.1198(3) 0.5951(6) 0.0845(6)
H42 H 0.0865 0.5894 0.0420
C75 C 0.1279(4) 0.6122(6) 0.1627(7)
H43 H 0.1001 0.6181 0.1736
C76 C 0.1767(4) 0.6207(5) 0.2249(5)
H44 H 0.1822 0.6323 0.2784
C77 C 0.3754(4) 0.4063(6) 0.5400(7)
C78 C 0.3921(4) 0.3430(8) 0.5214(6)
H45 H 0.4061 0.3434 0.4847
C79 C 0.3884(5) 0.2790(6) 0.5565(8)
H46 H 0.3998 0.2358 0.5438
C80 C 0.3679(6) 0.2784(6) 0.6102(8)
H47 H 0.3653 0.2347 0.6342
C81 C 0.3511(5) 0.3417(9) 0.6288(7)
H48 H 0.3371 0.3413 0.6655
C82 C 0.3549(5) 0.4057(7) 0.5937(8)
H49 H 0.3434 0.4489 0.6064
C83 C 0.5673(2) 0.6752(4) 0.6352(5)
C84 C 0.6049(3) 0.6580(4) 0.6144(4)
H50 H 0.5964 0.6404 0.5614
C85 C 0.6552(2) 0.6665(4) 0.6710(5)
H51 H 0.6809 0.6547 0.6568
C86 C 0.6677(3) 0.6922(5) 0.7485(5)
H52 H 0.7021 0.6980 0.7872
C87 C 0.6300(4) 0.7095(5) 0.7693(4)
H53 H 0.6386 0.7270 0.8222
C88 C 0.5798(3) 0.7010(5) 0.7127(6)
H54 H 0.5540 0.7127 0.7269
C89 C 0.4286(6) 0.6457(8) 0.8316(10)
H55 H 0.3936 0.6563 0.8202
H56 H 0.4503 0.6563 0.8899
C90 C 0.4729(5) 0.4406(6) 0.6914(7)
H57 H 0.5083 0.4256 0.7253
H58 H 0.4540 0.3980 0.6607
C91 C 0.4513(3) 0.4640(5) 0.7482(5)
C92 C 0.4488(4) 0.5362(5) 0.7639(6)
H59 H 0.4586 0.5713 0.7368
C93 C 0.4321(4) 0.5571(3) 0.8192(6)
C94 C 0.4178(3) 0.5059(4) 0.8588(5)
H60 H 0.4063 0.5202 0.8966
N9 N 0.4203(2) 0.4337(3) 0.8431(3)
C95 C 0.4370(3) 0.4127(3) 0.7878(5)
H61 H 0.4387 0.3634 0.7771
Zn2A Zn 0.39577(6) 0.36896(12) 0.91681(8)
N9A N 0.4203(2) 0.5663(3) 0.3431(3)
loop_
_geom_bond_atom_site_label_1
_geom_bond_atom_site_label_2
_geom_bond_site_symmetry_1
_geom_bond_site_symmetry_2
Zn1 N1 1_555 1_555
Zn2 N5 1_555 1_555
N1 C1 1_555 1_555
N2 Zn1 1_555 1_555
N3 Zn1 1_555 1_555
N4 Zn1 1_555 1_555
N5 C47 1_555 1_555
N6 Zn2 1_555 1_555
N7 Zn2 1_555 1_555
N8 Zn2 1_555 1_555
C1 C2 1_555 1_555
C2 C3 1_555 1_555
C3 N2 1_555 1_555
C4 C3 1_555 1_555
H1 C4 1_555 1_555
C5 C4 1_555 1_555
H2 C5 1_555 1_555
C6 N2 1_555 1_555
C7 C6 1_555 1_555
C8 N3 1_555 1_555
C9 C8 1_555 1_555
H3 C9 1_555 1_555
C10 C9 1_555 1_555
H4 C10 1_555 1_555
C11 N3 1_555 1_555
C12 C11 1_555 1_555
C13 N4 1_555 1_555
C14 C13 1_555 1_555
H5 C14 1_555 1_555
C15 C14 1_555 1_555
C16 N4 1_555 1_555
C17 C16 1_555 1_555
C18 N1 1_555 1_555
C19 C18 1_555 1_555
H6 C19 1_555 1_555
C20 C1 1_555 1_555
H7 C20 1_555 1_555
C21 C2 1_555 1_555
C22 C21 1_555 1_555
H8 C22 1_555 1_555
C23 C22 1_555 1_555
H9 C23 1_555 1_555
C24 C23 1_555 1_555
H10 C24 1_555 1_555
C25 C24 1_555 1_555
H11 C25 1_555 1_555
C26 C21 1_555 1_555
H12 C26 1_555 1_555
C27 C7 1_555 1_555
C28 C27 1_555 1_555
H13 C28 1_555 1_555
C29 C28 1_555 1_555
H14 C29 1_555 1_555
C30 C29 1_555 1_555
H15 C30 1_555 1_555
C31 C30 1_555 1_555
H16 C31 1_555 1_555
C32 C27 1_555 1_555
H17 C32 1_555 1_555
C33 C12 1_555 1_555
C34 C33 1_555 1_555
H18 C34 1_555 1_555
C35 C34 1_555 1_555
H19 C35 1_555 1_555
C36 C35 1_555 1_555
H20 C36 1_555 1_555
C37 C36 1_555 1_555
H21 C37 1_555 1_555
C38 C33 1_555 1_555
H22 C38 1_555 1_555
C39 C17 1_555 1_555
C40 C39 1_555 1_555
H23 C40 1_555 1_555
C41 C40 1_555 1_555
H24 C41 1_555 1_555
C42 C41 1_555 1_555
H25 C42 1_555 1_555
C43 C42 1_555 1_555
H26 C43 1_555 1_555
C44 C39 1_555 1_555
H27 C44 1_555 1_555
C45 N6 1_555 1_555
C46 C45 1_555 1_555
C47 C46 1_555 1_555
C48 C47 1_555 1_555
H28 C48 1_555 1_555
C49 C48 1_555 1_555
H29 C49 1_555 1_555
C50 N5 1_555 1_555
C51 C50 1_555 1_555
C52 N7 1_555 1_555
C53 C52 1_555 1_555
H30 C53 1_555 1_555
C54 C53 1_555 1_555
H31 C54 1_555 1_555
C55 N7 1_555 1_555
C56 C55 1_555 1_555
C57 N8 1_555 1_555
C58 C57 1_555 1_555
C59 C58 1_555 1_555
H32 C59 1_555 1_555
C60 N8 1_555 1_555
C61 C60 1_555 1_555
C62 N6 1_555 1_555
C63 C62 1_555 1_555
H33 C63 1_555 1_555
C64 C45 1_555 1_555
H34 C64 1_555 1_555
C65 C46 1_555 1_555
C66 C65 1_555 1_555
H35 C66 1_555 1_555
C67 C66 1_555 1_555
H36 C67 1_555 1_555
C68 C67 1_555 1_555
H37 C68 1_555 1_555
C69 C68 1_555 1_555
H38 C69 1_555 1_555
C70 C65 1_555 1_555
H39 C70 1_555 1_555
C71 C51 1_555 1_555
C72 C71 1_555 1_555
H40 C72 1_555 1_555
C73 C72 1_555 1_555
H41 C73 1_555 1_555
C74 C73 1_555 1_555
H42 C74 1_555 1_555
C75 C74 1_555 1_555
H43 C75 1_555 1_555
C76 C71 1_555 1_555
H44 C76 1_555 1_555
C77 C56 1_555 1_555
C78 C77 1_555 1_555
H45 C78 1_555 1_555
C79 C78 1_555 1_555
H46 C79 1_555 1_555
C80 C79 1_555 1_555
H47 C80 1_555 1_555
C81 C80 1_555 1_555
H48 C81 1_555 1_555
C82 C77 1_555 1_555
H49 C82 1_555 1_555
C83 C61 1_555 1_555
C84 C83 1_555 1_555
H50 C84 1_555 1_555
C85 C84 1_555 1_555
H51 C85 1_555 1_555
C86 C85 1_555 1_555
H52 C86 1_555 1_555
C87 C86 1_555 1_555
H53 C87 1_555 1_555
C88 C83 1_555 1_555
H54 C88 1_555 1_555
C89 C15 1_555 1_555
H55 C89 1_555 1_555
H56 C89 1_555 1_555
C90 C58 1_555 1_555
H57 C90 1_555 1_555
H58 C90 1_555 1_555
C91 C90 1_555 1_555
C92 C91 1_555 1_555
H59 C92 1_555 1_555
C93 C89 1_555 1_555
C94 C93 1_555 1_555
H60 C94 1_555 1_555
N9 C94 1_555 1_555
C95 C91 1_555 1_555
H61 C95 1_555 1_555
Zn2A N9 1_555 1_555
N9A Zn2 1_555 1_555
C5 C6 1_555 1_555
C7 C8 1_555 1_555
C10 C11 1_555 1_555
C12 C13 1_555 1_555
C15 C16 1_555 1_555
C17 C18 1_555 1_555
C19 C20 1_555 1_555
C25 C26 1_555 1_555
C31 C32 1_555 1_555
C37 C38 1_555 1_555
C43 C44 1_555 1_555
C49 C50 1_555 1_555
C51 C52 1_555 1_555
C54 C55 1_555 1_555
C56 C57 1_555 1_555
C59 C60 1_555 1_555
C61 C62 1_555 1_555
C63 C64 1_555 1_555
C69 C70 1_555 1_555
C75 C76 1_555 1_555
C81 C82 1_555 1_555
C87 C88 1_555 1_555
C92 C93 1_555 1_555
N9 C95 1_555 1_555

#END
