
#######################################################################
#
#                 Cambridge Crystallographic Data Centre
#                                CCDC 
#
#######################################################################
#
# If this CIF has been generated from an entry in the Cambridge 
# Structural Database, then it will include bibliographic, chemical, 
# crystal, experimental, refinement or atomic coordinate data resulting 
# from the CCDC's data processing and validation procedures.
#
#######################################################################

data_DIYDOG
_symmetry_cell_setting           monoclinic
_symmetry_space_group_name_H-M   'C 2/c'
_symmetry_Int_Tables_number      15
_space_group_name_Hall           '-C 2yn'
loop_
_symmetry_equiv_pos_site_id
_symmetry_equiv_pos_as_xyz
1 x,y,z
2 -x,y,1/2-z
3 1/2+x,1/2+y,z
4 1/2-x,1/2+y,1/2-z
5 -x,-y,-z
6 x,-y,1/2+z
7 1/2-x,1/2-y,-z
8 1/2+x,1/2-y,1/2+z
_cell_length_a                   29.978(4)
_cell_length_b                   18.696(2)
_cell_length_c                   18.525(2)
_cell_angle_alpha                90
_cell_angle_beta                 117.550(6)
_cell_angle_gamma                90
_cell_volume                     9205.36
loop_
_atom_site_label
_atom_site_type_symbol
_atom_site_fract_x
_atom_site_fract_y
_atom_site_fract_z
Zn1 Zn 0.32408(3) 0.13063(5) 0.19392(6)
N1 N 0.3745(2) 0.1956(4) 0.2842(3)
N2 N 0.3818(2) 0.0623(3) 0.2117(4)
N3 N 0.2800(2) 0.0839(3) 0.0819(4)
N4 N 0.2729(2) 0.2134(3) 0.1619(4)
N5 N 0.2992(2) 0.0640(3) 0.2683(4)
C1 C 0.4241(3) 0.1785(5) 0.3370(5)
C2 C 0.3658(3) 0.2617(4) 0.3066(5)
C3 C 0.4296(3) 0.0583(5) 0.2798(5)
C4 C 0.3773(3) -0.0007(5) 0.1686(6)
C5 C 0.2914(3) 0.0233(5) 0.0531(5)
C6 C 0.2329(3) 0.1024(5) 0.0276(5)
C7 C 0.2252(3) 0.2108(5) 0.0959(5)
C8 C 0.2760(3) 0.2744(4) 0.2065(6)
C9 C 0.4496(3) 0.1153(5) 0.3363(4)
C10 C 0.4479(3) 0.2379(4) 0.3938(5)
C11 C 0.3209(3) 0.2960(4) 0.2747(5)
C12 C 0.4121(3) 0.2870(5) 0.3748(4)
C13 C 0.4547(3) -0.0055(5) 0.2792(6)
C14 C 0.4238(3) -0.0426(4) 0.2142(6)
C15 C 0.3365(4) -0.0180(5) 0.0941(6)
C16 C 0.2502(4) 0.0056(6) -0.0262(6)
C17 C 0.2148(4) 0.0546(6) -0.0384(6)
C18 C 0.2075(3) 0.1595(5) 0.0344(5)
C19 C 0.1988(3) 0.2717(5) 0.1009(6)
C20 C 0.2285(4) 0.3103(5) 0.1663(7)
C21 C 0.50238(15) 0.1061(3) 0.4016(3)
H1 H 0.4817 0.2407 0.4354
C22 C 0.3210(3) 0.3676(4) 0.3079(5)
H2 H 0.4161 0.3317 0.4016
H3 H 0.4877 -0.0192 0.3181
H4 H 0.4305 -0.0885 0.1994
C23 C 0.3414(3) -0.0891(4) 0.0605(4)
C24 C 0.2466(6) -0.0559(8) -0.0816(9)
H5 H 0.1826 0.0567 -0.0844
C25 C 0.15212(17) 0.1691(3) -0.0275(3)
H6 H 0.1651 0.2834 0.0634
H7 H 0.2197 0.3537 0.1832
C26 C 0.2036(5) 0.3594(7) 0.2217(9)
C27 C 0.5420(2) 0.1186(3) 0.3839(3)
C28 C 0.51215(19) 0.0872(3) 0.4801(3)
C29 C 0.3405(3) 0.4259(5) 0.2853(4)
C30 C 0.3028(3) 0.3763(5) 0.3641(6)
C31 C 0.3703(3) -0.0925(4) 0.0197(4)
C32 C 0.3186(3) -0.1505(5) 0.0702(4)
H8 H 0.2656 -0.0975 -0.0486
H9 H 0.2110 -0.0704 -0.1140
C33 C 0.2675(3) -0.0340(4) -0.1376(5)
C34 C 0.1392(2) 0.1957(3) -0.1047(4)
C35 C 0.1147(2) 0.1520(3) -0.0060(3)
C36 C 0.2119(4) 0.4406(3) 0.2065(6)
H10 H 0.2218 0.3477 0.2805
H11 H 0.1674 0.3489 0.2013
H12 H 0.5353 0.1315 0.3302
C37 C 0.59137(17) 0.1122(3) 0.4447(3)
C38 C 0.5615(2) 0.0808(3) 0.5409(3)
H13 H 0.4851 0.0787 0.4922
H14 H 0.3529 0.4199 0.2469
C39 C 0.3419(3) 0.4928(4) 0.3189(6)
C40 C 0.3041(4) 0.4432(7) 0.3977(6)
H15 H 0.2894 0.3365 0.3795
H16 H 0.3859 -0.0505 0.0130
C41 C 0.3764(3) -0.1573(5) -0.0115(4)
C42 C 0.3247(3) -0.2153(4) 0.0390(5)
H17 H 0.2989 -0.1481 0.0981
C43 C 0.2707(3) 0.0382(4) -0.1521(5)
C44 C 0.2818(3) -0.0852(3) -0.1774(5)
H18 H 0.1648 0.2074 -0.1194
C45 C 0.0889(2) 0.2052(3) -0.1605(3)
C46 C 0.0644(2) 0.1615(3) -0.0618(4)
H19 H 0.1235 0.1339 0.0468
C47 C 0.1976(3) 0.4917(4) 0.2463(4)
H20 H 0.6184 0.1207 0.4326
C48 C 0.60114(16) 0.0933(3) 0.5232(3)
H21 H 0.5682 0.0679 0.5946
H22 H 0.3552 0.5326 0.3034
C49 C 0.3237(4) 0.5015(5) 0.3751(6)
H23 H 0.2917 0.4492 0.4361
H24 H 0.3961 -0.1597 -0.0394
C50 C 0.3536(3) -0.2187(3) -0.0018(5)
H25 H 0.3091 -0.2573 0.0457
H26 H 0.2609 0.0732 -0.1249
H27 H 0.2796 -0.1346 -0.1674
H28 H 0.0801 0.2234 -0.2133
C51 C 0.05149(17) 0.1881(3) -0.1390(3)
H29 H 0.0388 0.1498 -0.0471
H30 H 0.1857 0.4772 0.2834
H31 H 0.6349 0.0889 0.5648
H32 H 0.3246 0.5472 0.3980
H33 H 0.3577 -0.2630 -0.0231
H34 H 0.0171 0.1946 -0.1771
C43F C 0.2293(3) 0.4618(4) 0.1521(5)
C36F C 0.2881(4) 0.0594(3) -0.2065(6)
N5E N 0.2992(2) -0.0640(3) -0.2317(4)
C33F C 0.2325(3) 0.5340(4) 0.1376(5)
H26F H 0.2391 0.4268 0.1249
N5C N 0.2008(2) 0.5640(3) 0.2317(4)
C47F C 0.3024(3) 0.0083(4) -0.2463(4)
C26F C 0.2964(5) 0.1406(7) -0.2217(9)
Zn1E Zn 0.32408(3) -0.13063(5) -0.30608(6)
C24F C 0.2534(6) 0.5559(8) 0.0816(9)
C44F C 0.2182(3) 0.5852(3) 0.1774(5)
Zn1C Zn 0.17592(3) 0.63063(5) 0.30608(6)
H30F H 0.3143 0.0228 -0.2834
H10F H 0.2782 0.1523 -0.2805
H11F H 0.3326 0.1511 -0.2013
C20F C 0.2715(4) 0.1897(5) -0.1663(7)
H7F H 0.2803 0.1463 -0.1832
C16F C 0.2498(4) 0.4944(6) 0.0262(6)
H8F H 0.2344 0.5975 0.0486
H9F H 0.2890 0.5704 0.1140
H27F H 0.2204 0.6346 0.1674
C19F C 0.3012(3) 0.2283(5) -0.1009(6)
C8F C 0.2240(3) 0.2256(4) -0.2065(6)
C5F C 0.2086(3) 0.4767(5) -0.0531(5)
C17F C 0.2852(4) 0.4454(6) 0.0384(6)
C7F C 0.2748(3) 0.2892(5) -0.0959(5)
H6F H 0.3349 0.2166 -0.0634
N4F N 0.2271(2) 0.2866(3) -0.1619(4)
C11F C 0.1791(3) 0.2040(4) -0.2747(5)
N3F N 0.2200(2) 0.4161(3) -0.0819(4)
C15F C 0.1635(4) 0.5180(5) -0.0941(6)
H5F H 0.3174 0.4433 0.0844
C6F C 0.2671(3) 0.3976(5) -0.0276(5)
C18F C 0.2925(3) 0.3405(5) -0.0344(5)
Zn1F Zn 0.17592(3) 0.36937(5) -0.19392(6)
C2F C 0.1342(3) 0.2383(4) -0.3066(5)
C22F C 0.1790(3) 0.1324(4) -0.3079(5)
C4F C 0.1227(3) 0.5007(5) -0.1686(6)
C23F C 0.1586(3) 0.5891(4) -0.0605(4)
C25F C 0.34788(17) 0.3309(3) 0.0275(3)
N1F N 0.1255(2) 0.3044(4) -0.2842(3)
N2F N 0.1182(2) 0.4377(3) -0.2117(4)
N5F N 0.2008(2) 0.4360(3) -0.2683(4)
C12F C 0.0879(3) 0.2130(5) -0.3748(4)
C29F C 0.1595(3) 0.0741(5) -0.2853(4)
C30F C 0.1972(3) 0.1237(5) -0.3641(6)
C14F C 0.0762(3) 0.5426(4) -0.2142(6)
C31F C 0.1297(3) 0.5925(4) -0.0197(4)
C32F C 0.1814(3) 0.6505(5) -0.0702(4)
C34F C 0.3608(2) 0.3043(3) 0.1047(4)
C35F C 0.3853(2) 0.3480(3) 0.0060(3)
C1F C 0.0759(3) 0.3215(5) -0.3370(5)
C3F C 0.0704(3) 0.4417(5) -0.2798(5)
H2F H 0.0839 0.1683 -0.4016
C10F C 0.0521(3) 0.2621(4) -0.3938(5)
H14F H 0.1471 0.0801 -0.2469
C39F C 0.1581(3) 0.0072(4) -0.3189(6)
C40F C 0.1959(4) 0.0568(7) -0.3977(6)
H15F H 0.2106 0.1635 -0.3795
C13F C 0.0453(3) 0.5055(5) -0.2792(6)
H4F H 0.0695 0.5885 -0.1994
H16F H 0.1141 0.5505 -0.0130
C41F C 0.1236(3) 0.6573(5) 0.0115(4)
C42F C 0.1753(3) 0.7153(4) -0.0390(5)
H17F H 0.2011 0.6481 -0.0981
H18F H 0.3352 0.2926 0.1194
C45F C 0.4111(2) 0.2948(3) 0.1605(3)
C46F C 0.4356(2) 0.3385(3) 0.0618(4)
H19F H 0.3765 0.3661 -0.0468
C9F C 0.0504(3) 0.3847(5) -0.3363(4)
H1F H 0.0183 0.2593 -0.4354
H22F H 0.1448 -0.0326 -0.3034
C49F C 0.1763(4) -0.0015(5) -0.3751(6)
H23F H 0.2083 0.0508 -0.4361
H3F H 0.0123 0.5192 -0.3181
H24F H 0.1039 0.6597 0.0394
C50F C 0.1464(3) 0.7187(3) 0.0018(5)
H25F H 0.1909 0.7573 -0.0457
H28F H 0.4199 0.2766 0.2133
C51F C 0.44851(17) 0.3119(3) 0.1390(3)
H29F H 0.4612 0.3502 0.0471
C21F C -0.00238(15) 0.3939(3) -0.4016(3)
H32F H 0.1754 -0.0472 -0.3980
H33F H 0.1423 0.7630 0.0231
H34F H 0.4829 0.3054 0.1771
C27F C -0.0420(2) 0.3814(3) -0.3839(3)
C28F C -0.01215(19) 0.4128(3) -0.4801(3)
H12F H -0.0353 0.3685 -0.3302
C37F C -0.09137(17) 0.3878(3) -0.4447(3)
C38F C -0.0615(2) 0.4192(3) -0.5409(3)
H13F H 0.0149 0.4213 -0.4922
H20F H -0.1184 0.3793 -0.4326
C48F C -0.10114(16) 0.4067(3) -0.5232(3)
H21F H -0.0682 0.4321 -0.5946
H31F H -0.1349 0.4111 -0.5648
loop_
_geom_bond_atom_site_label_1
_geom_bond_atom_site_label_2
_geom_bond_site_symmetry_1
_geom_bond_site_symmetry_2
Zn1 N1 1_555 1_555
N1 C1 1_555 1_555
N2 Zn1 1_555 1_555
N3 Zn1 1_555 1_555
N4 Zn1 1_555 1_555
N5 Zn1 1_555 1_555
C1 C9 1_555 1_555
C2 N1 1_555 1_555
C3 N2 1_555 1_555
C4 N2 1_555 1_555
C5 N3 1_555 1_555
C6 N3 1_555 1_555
C7 N4 1_555 1_555
C8 N4 1_555 1_555
C9 C3 1_555 1_555
C10 C1 1_555 1_555
C11 C2 1_555 1_555
C12 C2 1_555 1_555
C13 C3 1_555 1_555
C14 C4 1_555 1_555
C15 C4 1_555 1_555
C16 C5 1_555 1_555
C17 C6 1_555 1_555
C18 C6 1_555 1_555
C19 C7 1_555 1_555
C20 C8 1_555 1_555
C21 C9 1_555 1_555
H1 C10 1_555 1_555
C22 C11 1_555 1_555
H2 C12 1_555 1_555
H3 C13 1_555 1_555
H4 C14 1_555 1_555
C23 C15 1_555 1_555
C24 C16 1_555 1_555
H5 C17 1_555 1_555
C25 C18 1_555 1_555
H6 C19 1_555 1_555
H7 C20 1_555 1_555
C26 C20 1_555 1_555
C27 C21 1_555 1_555
C28 C21 1_555 1_555
C29 C22 1_555 1_555
C30 C22 1_555 1_555
C31 C23 1_555 1_555
C32 C23 1_555 1_555
H8 C24 1_555 1_555
H9 C24 1_555 1_555
C33 C24 1_555 1_555
C34 C25 1_555 1_555
C35 C25 1_555 1_555
C36 C26 1_555 1_555
H10 C26 1_555 1_555
H11 C26 1_555 1_555
H12 C27 1_555 1_555
C37 C27 1_555 1_555
C38 C28 1_555 1_555
H13 C28 1_555 1_555
H14 C29 1_555 1_555
C39 C29 1_555 1_555
C40 C30 1_555 1_555
H15 C30 1_555 1_555
H16 C31 1_555 1_555
C41 C31 1_555 1_555
C42 C32 1_555 1_555
H17 C32 1_555 1_555
C43 C33 1_555 1_555
C44 C33 1_555 1_555
H18 C34 1_555 1_555
C45 C34 1_555 1_555
C46 C35 1_555 1_555
H19 C35 1_555 1_555
C47 C36 1_555 1_555
H20 C37 1_555 1_555
C48 C37 1_555 1_555
H21 C38 1_555 1_555
H22 C39 1_555 1_555
C49 C39 1_555 1_555
H23 C40 1_555 1_555
H24 C41 1_555 1_555
C50 C41 1_555 1_555
H25 C42 1_555 1_555
H26 C43 1_555 1_555
H27 C44 1_555 1_555
H28 C45 1_555 1_555
C51 C45 1_555 1_555
H29 C46 1_555 1_555
H30 C47 1_555 1_555
H31 C48 1_555 1_555
H32 C49 1_555 1_555
H33 C50 1_555 1_555
H34 C51 1_555 1_555
C43F C36 1_555 1_555
C36F C43 1_555 1_555
N5E C44 1_555 1_555
C33F C43F 1_555 1_555
H26F C43F 1_555 1_555
N5C C47 1_555 1_555
C47F C36F 1_555 1_555
C26F C36F 1_555 1_555
Zn1E N5E 1_555 1_555
C24F C33F 1_555 1_555
C44F C33F 1_555 1_555
Zn1C N5C 1_555 1_555
H30F C47F 1_555 1_555
H10F C26F 1_555 1_555
H11F C26F 1_555 1_555
C20F C26F 1_555 1_555
H7F C20F 1_555 1_555
C16F C24F 1_555 1_555
H8F C24F 1_555 1_555
H9F C24F 1_555 1_555
H27F C44F 1_555 1_555
C19F C20F 1_555 1_555
C8F C20F 1_555 1_555
C5F C16F 1_555 1_555
C17F C16F 1_555 1_555
C7F C19F 1_555 1_555
H6F C19F 1_555 1_555
N4F C8F 1_555 1_555
C11F C8F 1_555 1_555
N3F C5F 1_555 1_555
C15F C5F 1_555 1_555
H5F C17F 1_555 1_555
C6F C17F 1_555 1_555
C18F C7F 1_555 1_555
Zn1F N4F 1_555 1_555
C2F C11F 1_555 1_555
C22F C11F 1_555 1_555
C4F C15F 1_555 1_555
C23F C15F 1_555 1_555
C25F C18F 1_555 1_555
N1F Zn1F 1_555 1_555
N2F Zn1F 1_555 1_555
N5F Zn1F 1_555 1_555
C12F C2F 1_555 1_555
C29F C22F 1_555 1_555
C30F C22F 1_555 1_555
C14F C4F 1_555 1_555
C31F C23F 1_555 1_555
C32F C23F 1_555 1_555
C34F C25F 1_555 1_555
C35F C25F 1_555 1_555
C1F N1F 1_555 1_555
C3F N2F 1_555 1_555
H2F C12F 1_555 1_555
C10F C12F 1_555 1_555
H14F C29F 1_555 1_555
C39F C29F 1_555 1_555
C40F C30F 1_555 1_555
H15F C30F 1_555 1_555
C13F C14F 1_555 1_555
H4F C14F 1_555 1_555
H16F C31F 1_555 1_555
C41F C31F 1_555 1_555
C42F C32F 1_555 1_555
H17F C32F 1_555 1_555
H18F C34F 1_555 1_555
C45F C34F 1_555 1_555
C46F C35F 1_555 1_555
H19F C35F 1_555 1_555
C9F C1F 1_555 1_555
H1F C10F 1_555 1_555
H22F C39F 1_555 1_555
C49F C39F 1_555 1_555
H23F C40F 1_555 1_555
H3F C13F 1_555 1_555
H24F C41F 1_555 1_555
C50F C41F 1_555 1_555
H25F C42F 1_555 1_555
H28F C45F 1_555 1_555
C51F C45F 1_555 1_555
H29F C46F 1_555 1_555
C21F C9F 1_555 1_555
H32F C49F 1_555 1_555
H33F C50F 1_555 1_555
H34F C51F 1_555 1_555
C27F C21F 1_555 1_555
C28F C21F 1_555 1_555
H12F C27F 1_555 1_555
C37F C27F 1_555 1_555
C38F C28F 1_555 1_555
H13F C28F 1_555 1_555
H20F C37F 1_555 1_555
C48F C37F 1_555 1_555
H21F C38F 1_555 1_555
H31F C48F 1_555 1_555
C5 C15 1_555 1_555
C7 C18 1_555 1_555
C8 C11 1_555 1_555
C10 C12 1_555 1_555
C13 C14 1_555 1_555
C16 C17 1_555 1_555
C19 C20 1_555 1_555
C38 C48 1_555 1_555
C40 C49 1_555 1_555
C42 C50 1_555 1_555
C46 C51 1_555 1_555
N5E C47F 1_555 1_555
N5C C44F 1_555 1_555
C7F N4F 1_555 1_555
N3F C6F 1_555 1_555
N3F Zn1F 1_555 1_555
C6F C18F 1_555 1_555
C2F N1F 1_555 1_555
C4F N2F 1_555 1_555
C1F C10F 1_555 1_555
C3F C13F 1_555 1_555
C3F C9F 1_555 1_555
C40F C49F 1_555 1_555
C42F C50F 1_555 1_555
C46F C51F 1_555 1_555
C38F C48F 1_555 1_555

#END
