
#######################################################################
#
#                 Cambridge Crystallographic Data Centre
#                                CCDC 
#
#######################################################################
#
# If this CIF has been generated from an entry in the Cambridge 
# Structural Database, then it will include bibliographic, chemical, 
# crystal, experimental, refinement or atomic coordinate data resulting 
# from the CCDC's data processing and validation procedures.
#
#######################################################################

data_DIYFIB
_symmetry_cell_setting           orthorhombic
_symmetry_space_group_name_H-M   'P 21 21 21'
_symmetry_Int_Tables_number      19
_space_group_name_Hall           'P 2ac 2ab'
loop_
_symmetry_equiv_pos_site_id
_symmetry_equiv_pos_as_xyz
1 x,y,z
2 1/2-x,-y,1/2+z
3 -x,1/2+y,1/2-z
4 1/2+x,1/2-y,-z
_cell_length_a                   10.488(2)
_cell_length_b                   10.839(2)
_cell_length_c                   35.183(7)
_cell_angle_alpha                90
_cell_angle_beta                 90
_cell_angle_gamma                90
_cell_volume                     3999.58
loop_
_atom_site_label
_atom_site_type_symbol
_atom_site_fract_x
_atom_site_fract_y
_atom_site_fract_z
Sn1 Sn -0.00242(11) 0.43057(9) 0.26883(2)
Sn2 Sn -0.44837(11) 0.28593(11) 0.02191(3)
O1 O -0.0344(12) 0.2432(8) 0.2279(2)
O2 O -0.0265(12) 0.0758(10) 0.1907(2)
C1 C -0.0445(13) 0.2709(14) 0.1617(3)
H1 H -0.0414 0.3571 0.1700
C2 C -0.614(2) 0.338(3) 0.0555(7)
H2 H -0.6900 0.3360 0.0397
H3 H -0.6260 0.2794 0.0761
C3 C 0.017(3) 0.292(2) 0.3105(6)
H4 H -0.0026 0.3300 0.3348
H5 H -0.0500 0.2319 0.3057
C4 C -0.0326(15) 0.1897(17) 0.1962(4)
C5 C -0.1650(14) 0.2536(15) 0.1363(4)
O3 O -0.3200(10) 0.3076(12) 0.0675(3)
C6 C 0.0672(16) 0.2486(17) 0.1343(4)
H6 H 0.1389 0.3010 0.1408
H7 H 0.0945 0.1631 0.1354
C7 C -0.2033(15) 0.2873(17) 0.0638(4)
C8 C -0.1189(16) 0.3220(15) 0.0984(4)
C9 C 0.0166(16) 0.2802(17) 0.0947(4)
H8 H 0.0678 0.3451 0.0834
H9 H 0.0211 0.2082 0.0784
C10 C -0.128(2) 0.4598(16) 0.1014(5)
H10 H -0.0660 0.4889 0.1195
H11 H -0.2116 0.4827 0.1096
H12 H -0.1105 0.4962 0.0771
C11 C -0.2768(16) 0.3148(17) 0.1555(4)
H13 H -0.3486 0.3149 0.1386
H14 H -0.2548 0.3982 0.1620
H15 H -0.2981 0.2702 0.1782
C12 C -0.1960(17) 0.1258(16) 0.1274(5)
H16 H -0.2030 0.0793 0.1505
H17 H -0.1299 0.0912 0.1118
H18 H -0.2756 0.1227 0.1140
C13 C 0.428(3) 0.426(3) 0.2143(9)
H19 H 0.4629 0.4039 0.2386
H20 H 0.4949 0.4247 0.1956
H21 H 0.3632 0.3679 0.2073
O4 O -0.1552(12) 0.2495(11) 0.0342(3)
C14 C 0.1497(19) 0.473(2) 0.2303(6)
H22 H 0.1766 0.3967 0.2182
H23 H 0.1166 0.5264 0.2106
C15 C -0.376(2) 0.423(2) -0.0141(5)
H24 H -0.3074 0.4636 -0.0007
H25 H -0.3380 0.3812 -0.0358
C16 C -0.193(2) 0.466(2) 0.2559(6)
H26 H -0.1946 0.5119 0.2323
H27 H -0.2336 0.3871 0.2510
C17 C -0.457(3) 0.515(2) -0.0285(6)
H28 H -0.4881 0.5645 -0.0073
H29 H -0.5308 0.4760 -0.0401
C18 C -0.432(3) 0.097(2) 0.0099(6)
H30 H -0.4950 0.0779 -0.0093
H31 H -0.3489 0.0847 -0.0016
C19 C -0.275(3) 0.534(3) 0.2837(7)
H32 H -0.2317 0.6098 0.2904
H33 H -0.3534 0.5563 0.2709
C20 C -0.596(3) 0.471(3) 0.0723(8)
H34 H -0.5193 0.4710 0.0877
H35 H -0.5818 0.5274 0.0513
C21 C 0.370(3) 0.556(3) 0.2164(8)
H36 H 0.3360 0.5829 0.1921
H37 H 0.4315 0.6168 0.2255
C22 C -0.445(3) 0.010(2) 0.0387(8)
H38 H -0.3639 0.0107 0.0522
H39 H -0.5071 0.0438 0.0561
C23 C 0.261(2) 0.531(2) 0.2468(6)
H40 H 0.2941 0.4784 0.2668
H41 H 0.2354 0.6085 0.2583
C24 C -0.701(3) 0.519(3) 0.0953(9)
H42 H -0.7199 0.4622 0.1159
H43 H -0.7767 0.5285 0.0798
C25 C -0.392(3) 0.609(2) -0.0602(7)
H44 H -0.3205 0.6522 -0.0485
H45 H -0.3583 0.5608 -0.0812
C26 C -0.476(3) -0.114(2) 0.0349(9)
H46 H -0.5222 -0.1303 0.0115
H47 H -0.5247 -0.1443 0.0564
C27 C -0.481(3) 0.699(3) -0.0749(8)
H48 H -0.5405 0.6585 -0.0914
H49 H -0.4354 0.7611 -0.0888
H50 H -0.5258 0.7364 -0.0541
C28 C -0.349(3) -0.162(3) 0.0341(9)
H51 H -0.3500 -0.2438 0.0235
H52 H -0.3157 -0.1651 0.0595
H53 H -0.2961 -0.1098 0.0187
C29 C 0.237(3) 0.290(3) 0.3259(9)
H54 H 0.2088 0.3485 0.3449
H55 H 0.2650 0.3367 0.3040
C30 C -0.304(3) 0.480(3) 0.3138(8)
H56 H -0.2253 0.4654 0.3277
H57 H -0.3373 0.3994 0.3069
C31 C -0.403(3) 0.541(3) 0.3427(9)
H58 H -0.3821 0.6262 0.3461
H59 H -0.3977 0.4989 0.3668
H60 H -0.4874 0.5332 0.3327
C32 C 0.350(3) 0.225(3) 0.3415(10)
H61 H 0.3229 0.1642 0.3598
H62 H 0.4052 0.2833 0.3537
H63 H 0.3952 0.1846 0.3213
C33 C 0.134(3) 0.225(3) 0.3151(10)
H64 H 0.1193 0.1602 0.3337
H65 H 0.1531 0.1846 0.2911
C34 C -0.658(4) 0.645(4) 0.1113(11)
H66 H -0.6478 0.6390 0.1384
H67 H -0.7210 0.7062 0.1055
H68 H -0.5780 0.6681 0.1000
Sn1B Sn 0.00242(11) -0.06943(9) 0.23117(2)
O2B O 0.0265(12) 0.5758(10) 0.3093(2)
loop_
_geom_bond_atom_site_label_1
_geom_bond_atom_site_label_2
_geom_bond_site_symmetry_1
_geom_bond_site_symmetry_2
Sn1 O1 1_555 1_555
Sn2 C2 1_555 1_555
O1 C4 1_555 1_555
O2 C4 1_555 1_555
C1 H1 1_555 1_555
C2 H2 1_555 1_555
H3 C2 1_555 1_555
C3 Sn1 1_555 1_555
H4 C3 1_555 1_555
H5 C3 1_555 1_555
C4 C1 1_555 1_555
C5 C1 1_555 1_555
O3 Sn2 1_555 1_555
C6 C1 1_555 1_555
H6 C6 1_555 1_555
H7 C6 1_555 1_555
C7 O3 1_555 1_555
C8 C5 1_555 1_555
C9 C6 1_555 1_555
H8 C9 1_555 1_555
H9 C9 1_555 1_555
C10 C8 1_555 1_555
H10 C10 1_555 1_555
H11 C10 1_555 1_555
H12 C10 1_555 1_555
C11 C5 1_555 1_555
H13 C11 1_555 1_555
H14 C11 1_555 1_555
H15 C11 1_555 1_555
C12 C5 1_555 1_555
H16 C12 1_555 1_555
H17 C12 1_555 1_555
H18 C12 1_555 1_555
C13 H19 1_555 1_555
H20 C13 1_555 1_555
H21 C13 1_555 1_555
O4 C7 1_555 1_555
C14 Sn1 1_555 1_555
H22 C14 1_555 1_555
H23 C14 1_555 1_555
C15 Sn2 1_555 1_555
H24 C15 1_555 1_555
H25 C15 1_555 1_555
C16 Sn1 1_555 1_555
H26 C16 1_555 1_555
H27 C16 1_555 1_555
C17 C15 1_555 1_555
H28 C17 1_555 1_555
H29 C17 1_555 1_555
C18 Sn2 1_555 1_555
H30 C18 1_555 1_555
H31 C18 1_555 1_555
C19 C16 1_555 1_555
H32 C19 1_555 1_555
H33 C19 1_555 1_555
C20 C2 1_555 1_555
H34 C20 1_555 1_555
H35 C20 1_555 1_555
C21 C13 1_555 1_555
H36 C21 1_555 1_555
H37 C21 1_555 1_555
C22 C18 1_555 1_555
H38 C22 1_555 1_555
H39 C22 1_555 1_555
C23 C14 1_555 1_555
H40 C23 1_555 1_555
H41 C23 1_555 1_555
C24 C20 1_555 1_555
H42 C24 1_555 1_555
H43 C24 1_555 1_555
C25 C17 1_555 1_555
H44 C25 1_555 1_555
H45 C25 1_555 1_555
C26 C22 1_555 1_555
H46 C26 1_555 1_555
H47 C26 1_555 1_555
C27 C25 1_555 1_555
H48 C27 1_555 1_555
H49 C27 1_555 1_555
H50 C27 1_555 1_555
C28 C26 1_555 1_555
H51 C28 1_555 1_555
H52 C28 1_555 1_555
H53 C28 1_555 1_555
C29 H54 1_555 1_555
H55 C29 1_555 1_555
C30 C19 1_555 1_555
H56 C30 1_555 1_555
H57 C30 1_555 1_555
C31 C30 1_555 1_555
H58 C31 1_555 1_555
H59 C31 1_555 1_555
H60 C31 1_555 1_555
C32 C29 1_555 1_555
H61 C32 1_555 1_555
H62 C32 1_555 1_555
H63 C32 1_555 1_555
C33 C3 1_555 1_555
H64 C33 1_555 1_555
H65 C33 1_555 1_555
C34 C24 1_555 1_555
H66 C34 1_555 1_555
H67 C34 1_555 1_555
H68 C34 1_555 1_555
Sn1B O2 1_555 1_555
O2B Sn1 1_555 1_555
C7 C8 1_555 1_555
C8 C9 1_555 1_555
C21 C23 1_555 1_555
C29 C33 1_555 1_555

#END
