
#######################################################################
#
#                 Cambridge Crystallographic Data Centre
#                                CCDC 
#
#######################################################################
#
# If this CIF has been generated from an entry in the Cambridge 
# Structural Database, then it will include bibliographic, chemical, 
# crystal, experimental, refinement or atomic coordinate data resulting 
# from the CCDC's data processing and validation procedures.
#
#######################################################################

data_DIYFEX
_symmetry_cell_setting           orthorhombic
_symmetry_space_group_name_H-M   'P 21 21 2'
_symmetry_Int_Tables_number      18
_space_group_name_Hall           'P 2 2ab'
loop_
_symmetry_equiv_pos_site_id
_symmetry_equiv_pos_as_xyz
1 x,y,z
2 -x,-y,z
3 1/2-x,1/2+y,-z
4 1/2+x,1/2-y,-z
_cell_length_a                   19.5005(7)
_cell_length_b                   19.6857(7)
_cell_length_c                   6.7171(3)
_cell_angle_alpha                90
_cell_angle_beta                 90
_cell_angle_gamma                90
_cell_volume                     2578.57
loop_
_atom_site_label
_atom_site_type_symbol
_atom_site_fract_x
_atom_site_fract_y
_atom_site_fract_z
Sn1 Sn 0.53338(3) 0.18290(3) 0.04835(9)
Sn2 Sn 0.31351(3) 0.03071(3) -0.10101(9)
O1 O 0.4424(3) 0.2274(3) 0.1517(14)
O2 O 0.3721(3) 0.1502(3) 0.0196(12)
O3 O 0.2287(3) 0.4406(3) 0.2141(12)
O4 O 0.1516(3) 0.3731(3) 0.0730(11)
C1 C 0.3818(4) 0.1994(4) 0.1251(15)
C2 C 0.3252(4) 0.2335(4) 0.2457(12)
C3 C 0.3131(4) 0.3106(4) 0.1869(13)
C4 C 0.2393(4) 0.3229(4) 0.2790(12)
H1 H 0.2454 0.3354 0.4191
C5 C 0.2023(4) 0.2545(4) 0.2731(15)
H2 H 0.1826 0.2443 0.4023
H3 H 0.1658 0.2554 0.1753
C6 C 0.2556(4) 0.2009(4) 0.2172(16)
H4 H 0.2510 0.1613 0.3020
H5 H 0.2496 0.1869 0.0798
C7 C 0.3455(6) 0.2246(6) 0.4679(17)
H6 H 0.3893 0.2454 0.4908
H7 H 0.3480 0.1771 0.4993
H8 H 0.3117 0.2459 0.5509
C8 C 0.3106(6) 0.3142(6) -0.0404(16)
H9 H 0.2774 0.2824 -0.0894
H10 H 0.3550 0.3033 -0.0936
H11 H 0.2979 0.3593 -0.0807
C9 C 0.3652(5) 0.3592(5) 0.265(3)
H12 H 0.3668 0.3563 0.4072
H13 H 0.3530 0.4045 0.2258
H14 H 0.4094 0.3480 0.2108
C10 C 0.5247(5) 0.0906(5) 0.2062(16)
H15 H 0.4789 0.0861 0.2571
H16 H 0.5567 0.0904 0.3149
H17 H 0.5345 0.0533 0.1185
C11 C 0.5938(5) 0.2601(6) 0.1863(19)
H18 H 0.6071 0.2931 0.0884
H19 H 0.6341 0.2401 0.2439
H20 H 0.5675 0.2819 0.2887
C12 C 0.5170(5) 0.1904(7) -0.2570(15)
H21 H 0.4856 0.1556 -0.2984
H22 H 0.5598 0.1848 -0.3259
H23 H 0.4981 0.2342 -0.2876
C13 C 0.2023(4) 0.3814(4) 0.1761(14)
C14 C 0.2336(5) 0.0886(5) -0.2364(17)
H24 H 0.2229 0.0697 -0.3644
H25 H 0.2484 0.1348 -0.2522
H26 H 0.1935 0.0873 -0.1534
C15 C 0.3048(6) 0.0138(5) 0.2099(15)
H27 H 0.2580 0.0199 0.2502
H28 H 0.3334 0.0454 0.2799
H29 H 0.3191 -0.0318 0.2404
C16 C 0.4077(4) 0.0258(4) -0.2599(15)
H30 H 0.4170 -0.0204 -0.2962
H31 H 0.4441 0.0425 -0.1772
H32 H 0.4045 0.0531 -0.3779
Sn1C Sn 0.03338(3) 0.31710(3) -0.04835(9)
Sn2B Sn 0.18649(3) 0.53071(3) 0.10101(9)
O3B O 0.2713(3) -0.0594(3) -0.2141(12)
O4C O 0.6516(3) 0.1269(3) -0.0730(11)
loop_
_geom_bond_atom_site_label_1
_geom_bond_atom_site_label_2
_geom_bond_site_symmetry_1
_geom_bond_site_symmetry_2
Sn1 O1 1_555 1_555
Sn2 O2 1_555 1_555
O1 C1 1_555 1_555
O2 C1 1_555 1_555
O3 C13 1_555 1_555
O4 C13 1_555 1_555
C1 C2 1_555 1_555
C2 C3 1_555 1_555
C3 C4 1_555 1_555
C4 H1 1_555 1_555
C5 C4 1_555 1_555
H2 C5 1_555 1_555
H3 C5 1_555 1_555
C6 C2 1_555 1_555
H4 C6 1_555 1_555
H5 C6 1_555 1_555
C7 C2 1_555 1_555
H6 C7 1_555 1_555
H7 C7 1_555 1_555
H8 C7 1_555 1_555
C8 C3 1_555 1_555
H9 C8 1_555 1_555
H10 C8 1_555 1_555
H11 C8 1_555 1_555
C9 C3 1_555 1_555
H12 C9 1_555 1_555
H13 C9 1_555 1_555
H14 C9 1_555 1_555
C10 Sn1 1_555 1_555
H15 C10 1_555 1_555
H16 C10 1_555 1_555
H17 C10 1_555 1_555
C11 Sn1 1_555 1_555
H18 C11 1_555 1_555
H19 C11 1_555 1_555
H20 C11 1_555 1_555
C12 Sn1 1_555 1_555
H21 C12 1_555 1_555
H22 C12 1_555 1_555
H23 C12 1_555 1_555
C13 C4 1_555 1_555
C14 Sn2 1_555 1_555
H24 C14 1_555 1_555
H25 C14 1_555 1_555
H26 C14 1_555 1_555
C15 Sn2 1_555 1_555
H27 C15 1_555 1_555
H28 C15 1_555 1_555
H29 C15 1_555 1_555
C16 Sn2 1_555 1_555
H30 C16 1_555 1_555
H31 C16 1_555 1_555
H32 C16 1_555 1_555
Sn1C O4 1_555 1_555
Sn2B O3 1_555 1_555
O3B Sn2 1_555 1_555
O4C Sn1 1_555 1_555
C5 C6 1_555 1_555

#END
