
#######################################################################
#
#                 Cambridge Crystallographic Data Centre
#                                CCDC 
#
#######################################################################
#
# If this CIF has been generated from an entry in the Cambridge 
# Structural Database, then it will include bibliographic, chemical, 
# crystal, experimental, refinement or atomic coordinate data resulting 
# from the CCDC's data processing and validation procedures.
#
#######################################################################

data_DIYJUQ02
_symmetry_cell_setting           orthorhombic
_symmetry_space_group_name_H-M   'P n m a'
_symmetry_Int_Tables_number      62
_space_group_name_Hall           '-P 2ac 2n'
loop_
_symmetry_equiv_pos_site_id
_symmetry_equiv_pos_as_xyz
1 x,y,z
2 1/2-x,-y,1/2+z
3 1/2+x,1/2-y,1/2-z
4 -x,1/2+y,-z
5 -x,-y,-z
6 1/2+x,y,1/2-z
7 1/2-x,1/2+y,1/2+z
8 x,1/2-y,z
_cell_length_a                   10.909(7)
_cell_length_b                   10.029(3)
_cell_length_c                   10.813(2)
_cell_angle_alpha                90
_cell_angle_beta                 90
_cell_angle_gamma                90
_cell_volume                     1183.01
loop_
_atom_site_label
_atom_site_type_symbol
_atom_site_fract_x
_atom_site_fract_y
_atom_site_fract_z
Ca1 Ca 0.1935(1) 0.2500 0.2246(1)
Cl1 Cl 0.3042(1) 0.4469(1) 0.0881(1)
C1 C -0.0689(4) 0.2500 -0.2931(6)
C2 C 0.0649(2) 0.1275(3) -0.1590(3)
C3 C -0.1108(3) 0.2500 -0.0786(4)
C4 C -0.0735(2) 0.2500 0.0562(4)
N1 N -0.0111(2) 0.2500 -0.1705(4)
O1 O 0.0351(2) 0.2500 0.0883(3)
O2 O -0.1626(2) 0.2500 0.1285(3)
O3 O 0.0890(1) 0.4077(2) 0.3498(2)
H1 H -0.1165(28) 0.1767(33) -0.2952(32)
H2 H -0.0012(42) 0.2500 -0.3675(48)
H3 H 0.1182(35) 0.1247(43) -0.2261(50)
H4 H 0.0009(28) 0.0345(26) -0.1628(35)
H5 H 0.1044(28) 0.1307(34) -0.0839(22)
H6 H -0.1610(25) 0.1804(26) -0.0796(31)
H7 H 0.0075(19) 0.4164(34) 0.3679(25)
H8 H 0.1246(24) 0.4394(33) 0.4179(23)
Cl1G Cl 0.3042(1) 0.0531(1) 0.0881(1)
H1G H -0.1165(28) 0.3233(33) -0.2952(32)
C2G C 0.0649(2) 0.3725(3) -0.1590(3)
H3G H 0.1182(35) 0.3753(43) -0.2261(50)
H4G H 0.0009(28) 0.4655(26) -0.1628(35)
H5G H 0.1044(28) 0.3693(34) -0.0839(22)
H6G H -0.1610(25) 0.3196(26) -0.0796(31)
O2B O 0.3374(2) 0.2500 0.3715(3)
Ca1B Ca -0.3065(1) 0.2500 0.2754(1)
O3G O 0.0890(1) 0.0923(2) 0.3498(2)
H7G H 0.0075(19) 0.0836(34) 0.3679(25)
H8G H 0.1246(24) 0.0606(33) 0.4179(23)
loop_
_geom_bond_atom_site_label_1
_geom_bond_atom_site_label_2
_geom_bond_site_symmetry_1
_geom_bond_site_symmetry_2
Ca1 Cl1 1_555 1_555
C1 N1 1_555 1_555
C2 N1 1_555 1_555
C3 C4 1_555 1_555
C4 O1 1_555 1_555
N1 C3 1_555 1_555
O1 Ca1 1_555 1_555
O2 C4 1_555 1_555
O3 Ca1 1_555 1_555
H1 C1 1_555 1_555
H2 C1 1_555 1_555
H3 C2 1_555 1_555
H4 C2 1_555 1_555
H5 C2 1_555 1_555
H6 C3 1_555 1_555
H7 O3 1_555 1_555
H8 O3 1_555 1_555
Cl1G Ca1 1_555 1_555
H1G C1 1_555 1_555
C2G N1 1_555 1_555
H3G C2G 1_555 1_555
H4G C2G 1_555 1_555
H5G C2G 1_555 1_555
H6G C3 1_555 1_555
O2B Ca1 1_555 1_555
Ca1B O2 1_555 1_555
O3G Ca1 1_555 1_555
H7G O3G 1_555 1_555
H8G O3G 1_555 1_555

#END
