
#######################################################################
#
#                 Cambridge Crystallographic Data Centre
#                                CCDC 
#
#######################################################################
#
# If this CIF has been generated from an entry in the Cambridge 
# Structural Database, then it will include bibliographic, chemical, 
# crystal, experimental, refinement or atomic coordinate data resulting 
# from the CCDC's data processing and validation procedures.
#
#######################################################################

data_DIYJUQ03
_symmetry_cell_setting           orthorhombic
_symmetry_space_group_name_H-M   'P n m a'
_symmetry_Int_Tables_number      62
_space_group_name_Hall           '-P 2ac 2n'
loop_
_symmetry_equiv_pos_site_id
_symmetry_equiv_pos_as_xyz
1 x,y,z
2 1/2-x,-y,1/2+z
3 1/2+x,1/2-y,1/2-z
4 -x,1/2+y,-z
5 -x,-y,-z
6 1/2+x,y,1/2-z
7 1/2-x,1/2+y,1/2+z
8 x,1/2-y,z
_cell_length_a                   10.95(1)
_cell_length_b                   10.15(1)
_cell_length_c                   10.82(1)
_cell_angle_alpha                90
_cell_angle_beta                 90
_cell_angle_gamma                90
_cell_volume                     1202.56
loop_
_atom_site_label
_atom_site_type_symbol
_atom_site_fract_x
_atom_site_fract_y
_atom_site_fract_z
Ca1 Ca 0.1954(4) 0.2500 0.2245(4)
Cl1 Cl 0.3040(2) 0.4465(2) 0.0878(2)
O1 O 0.0899(4) 0.4051(4) 0.3491(4)
O2 O 0.3418(5) 0.2500 0.3679(5)
O3 O 0.0359(4) 0.2500 0.0880(4)
C1 C 0.4281(3) 0.2500 0.4402(3)
C2 C 0.3891(3) 0.2500 0.5749(4)
N1 N 0.4864(2) 0.2500 0.6702(2)
C3 C 0.4262(7) 0.2500 0.7934(5)
C4 C 0.5622(5) 0.3716(7) 0.6582(5)
D1 D 0.3694(3) 0.3353(6) 0.8029(4)
D2 D 0.4917(9) 0.2500 0.8624(7)
D3 D 0.6209(6) 0.374(1) 0.7376(6)
D4 D 0.5029(6) 0.4530(7) 0.6631(8)
D5 D 0.6139(4) 0.3662(6) 0.5759(5)
D6 D 0.3330(4) 0.3350(5) 0.5912(4)
D7 D 0.0044(4) 0.4065(5) 0.3657(4)
D8 D 0.1270(4) 0.4442(5) 0.4211(4)
Cl1G Cl 0.3040(2) 0.0535(2) 0.0878(2)
O1G O 0.0899(4) 0.0949(4) 0.3491(4)
D7G D 0.0044(4) 0.0935(5) 0.3657(4)
D8G D 0.1270(4) 0.0558(5) 0.4211(4)
O3B O 0.5359(4) 0.2500 0.4120(4)
Ca1B Ca 0.6954(4) 0.2500 0.2755(4)
D1G D 0.3694(3) 0.1647(6) 0.8029(4)
C4G C 0.5622(5) 0.1284(7) 0.6582(5)
D3G D 0.6209(6) 0.126(1) 0.7376(6)
D4G D 0.5029(6) 0.0470(7) 0.6631(8)
D5G D 0.6139(4) 0.1338(6) 0.5759(5)
D6G D 0.3330(4) 0.1650(5) 0.5912(4)
loop_
_geom_bond_atom_site_label_1
_geom_bond_atom_site_label_2
_geom_bond_site_symmetry_1
_geom_bond_site_symmetry_2
Ca1 Cl1 1_555 1_555
O1 Ca1 1_555 1_555
O2 Ca1 1_555 1_555
O3 Ca1 1_555 1_555
C1 O2 1_555 1_555
C2 C1 1_555 1_555
N1 C2 1_555 1_555
C3 N1 1_555 1_555
C4 N1 1_555 1_555
D1 C3 1_555 1_555
D2 C3 1_555 1_555
D3 C4 1_555 1_555
D4 C4 1_555 1_555
D5 C4 1_555 1_555
D6 C2 1_555 1_555
D7 O1 1_555 1_555
D8 O1 1_555 1_555
Cl1G Ca1 1_555 1_555
O1G Ca1 1_555 1_555
D7G O1G 1_555 1_555
D8G O1G 1_555 1_555
O3B C1 1_555 1_555
Ca1B O3B 1_555 1_555
D1G C3 1_555 1_555
C4G N1 1_555 1_555
D3G C4G 1_555 1_555
D4G C4G 1_555 1_555
D5G C4G 1_555 1_555
D6G C2 1_555 1_555

#END
