
#######################################################################
#
#                 Cambridge Crystallographic Data Centre
#                                CCDC 
#
#######################################################################
#
# If this CIF has been generated from an entry in the Cambridge 
# Structural Database, then it will include bibliographic, chemical, 
# crystal, experimental, refinement or atomic coordinate data resulting 
# from the CCDC's data processing and validation procedures.
#
#######################################################################

data_DIYJUQ
_symmetry_cell_setting           orthorhombic
_symmetry_space_group_name_H-M   'P n m a'
_symmetry_Int_Tables_number      62
_space_group_name_Hall           '-P 2ac 2n'
loop_
_symmetry_equiv_pos_site_id
_symmetry_equiv_pos_as_xyz
1 x,y,z
2 1/2-x,-y,1/2+z
3 1/2+x,1/2-y,1/2-z
4 -x,1/2+y,-z
5 -x,-y,-z
6 1/2+x,y,1/2-z
7 1/2-x,1/2+y,1/2+z
8 x,1/2-y,z
_cell_length_a                   10.97
_cell_length_b                   10.15
_cell_length_c                   10.82
_cell_angle_alpha                90
_cell_angle_beta                 90
_cell_angle_gamma                90
_cell_volume                     1204.76
loop_
_atom_site_label
_atom_site_type_symbol
_atom_site_fract_x
_atom_site_fract_y
_atom_site_fract_z
Ca1 Ca 0.19515(7) 0.25000 0.22395(7)
Cl1 Cl 0.30459(6) 0.44590(7) 0.08777(6)
O1 O 0.0909(2) 0.4050(2) 0.3504(2)
O2 O 0.0374(2) 0.25000 0.0886(2)
O3 O -0.1583(3) 0.25000 0.1325(3)
C1 C -0.0719(4) 0.25000 0.0609(4)
C2 C -0.1117(3) 0.25000 -0.0745(4)
N1 N -0.0132(3) 0.25000 -0.1705(3)
C3 C -0.0738(6) 0.25000 -0.2958(5)
C4 C 0.0630(5) 0.1287(7) -0.1612(5)
H1 H -0.119(2) 0.172(2) -0.301(2)
H2 H 0.003(5) 0.25000 -0.363(5)
H3 H 0.109(4) 0.114(5) -0.235(4)
H4 H 0.005(4) 0.053(5) -0.156(5)
H5 H 0.106(3) 0.133(3) -0.086(3)
H6 H -0.157(2) 0.166(2) -0.087(2)
H7 H 0.018(3) 0.407(3) 0.366(3)
H8 H 0.124(3) 0.444(4) 0.416(3)
Cl1G Cl 0.30459(6) 0.05410(7) 0.08777(6)
O1G O 0.0909(2) 0.0950(2) 0.3504(2)
H7G H 0.018(3) 0.093(3) 0.366(3)
H8G H 0.124(3) 0.056(4) 0.416(3)
O3B O 0.3417(3) 0.25000 0.3675(3)
Ca1B Ca -0.30485(7) 0.25000 0.27605(7)
H1G H -0.119(2) 0.328(2) -0.301(2)
C4G C 0.0630(5) 0.3713(7) -0.1612(5)
H3G H 0.109(4) 0.386(5) -0.235(4)
H4G H 0.005(4) 0.447(5) -0.156(5)
H5G H 0.106(3) 0.367(3) -0.086(3)
H6G H -0.157(2) 0.334(2) -0.087(2)
loop_
_geom_bond_atom_site_label_1
_geom_bond_atom_site_label_2
_geom_bond_site_symmetry_1
_geom_bond_site_symmetry_2
Ca1 Cl1 1_555 1_555
O1 Ca1 1_555 1_555
O2 Ca1 1_555 1_555
O3 C1 1_555 1_555
C1 O2 1_555 1_555
C2 C1 1_555 1_555
N1 C2 1_555 1_555
C3 N1 1_555 1_555
C4 N1 1_555 1_555
H1 C3 1_555 1_555
H2 C3 1_555 1_555
H3 C4 1_555 1_555
H4 C4 1_555 1_555
H5 C4 1_555 1_555
H6 C2 1_555 1_555
H7 O1 1_555 1_555
H8 O1 1_555 1_555
Cl1G Ca1 1_555 1_555
O1G Ca1 1_555 1_555
H7G O1G 1_555 1_555
H8G O1G 1_555 1_555
O3B Ca1 1_555 1_555
Ca1B O3 1_555 1_555
H1G C3 1_555 1_555
C4G N1 1_555 1_555
H3G C4G 1_555 1_555
H4G C4G 1_555 1_555
H5G C4G 1_555 1_555
H6G C2 1_555 1_555

#END
