
#######################################################################
#
#                 Cambridge Crystallographic Data Centre
#                                CCDC 
#
#######################################################################
#
# If this CIF has been generated from an entry in the Cambridge 
# Structural Database, then it will include bibliographic, chemical, 
# crystal, experimental, refinement or atomic coordinate data resulting 
# from the CCDC's data processing and validation procedures.
#
#######################################################################

data_DIYREK
_symmetry_cell_setting           orthorhombic
_symmetry_space_group_name_H-M   'P 21 21 21'
_symmetry_Int_Tables_number      19
_space_group_name_Hall           'P 2ac 2ab'
loop_
_symmetry_equiv_pos_site_id
_symmetry_equiv_pos_as_xyz
1 x,y,z
2 1/2-x,-y,1/2+z
3 -x,1/2+y,1/2-z
4 1/2+x,1/2-y,-z
_cell_length_a                   9.7488(19)
_cell_length_b                   10.196(2)
_cell_length_c                   22.182(4)
_cell_angle_alpha                90
_cell_angle_beta                 90
_cell_angle_gamma                90
_cell_volume                     2204.86
loop_
_atom_site_label
_atom_site_type_symbol
_atom_site_fract_x
_atom_site_fract_y
_atom_site_fract_z
C1 C 0.3983(10) 0.3893(10) 0.2146(4)
C2 C 0.3611(8) 0.4929(7) 0.1310(3)
C3 C 0.2405(8) 0.4922(8) 0.1639(3)
C4 C 0.1013(8) 0.5380(7) 0.1532(3)
C5 C 0.4032(8) 0.5545(7) 0.0730(3)
C6 C 0.4727(13) 0.3165(15) 0.2645(5)
H1 H 0.4053 0.2725 0.2895
H2 H 0.5303 0.2496 0.2465
C7 C 0.559(2) 0.401(3) 0.3032(6)
H3 H 0.6244 0.4469 0.2788
H4 H 0.6061 0.3480 0.3323
H5 H 0.5017 0.4635 0.3238
C8 C 0.1245(9) 0.3223(8) -0.0241(3)
C9 C 0.2240(8) 0.4691(7) -0.0806(3)
C10 C 0.2367(7) 0.3471(6) -0.1083(3)
C11 C 0.2534(8) 0.6068(7) -0.0991(3)
C12 C 0.3024(8) 0.2985(7) -0.1644(3)
C13 C 0.0500(13) 0.2578(10) 0.0275(4)
H6 H -0.0178 0.1972 0.0118
H7 H 0.0025 0.3241 0.0509
C14 C 0.1508(19) 0.1832(14) 0.0684(6)
H8 H 0.2332 0.1642 0.0464
H9 H 0.1095 0.1027 0.0816
H10 H 0.1728 0.2363 0.1029
H11 H -0.138(19) 0.576(19) -0.032(7)
N1 N 0.2677(8) 0.4273(8) 0.2173(3)
N2 N 0.4601(7) 0.4273(7) 0.1630(3)
N3 N 0.1524(8) 0.4497(6) -0.0274(3)
N4 N 0.1706(7) 0.2558(6) -0.0730(3)
O1 O 0.0589(6) 0.5752(7) 0.1025(2)
O2 O 0.0194(6) 0.5362(7) 0.1979(2)
O3 O 0.5217(6) 0.5262(6) 0.0547(3)
O4 O 0.3251(6) 0.6341(6) 0.0471(2)
O5 O 0.2019(6) 0.6947(6) -0.0665(2)
O6 O 0.3258(8) 0.6334(6) -0.1438(3)
O7 O 0.3863(8) 0.3690(5) -0.1933(3)
O8 O 0.2757(7) 0.1805(5) -0.1792(3)
O9 O 0.7638(7) 0.5686(6) 0.1226(4)
O10 O -0.0491(7) 0.3333(6) 0.2796(3)
O11 O -0.0882(7) 0.6213(7) -0.0090(3)
O12 O 0.0966(7) 0.8228(6) 0.0420(3)
Zn1 Zn 0.12107(10) 0.62190(8) 0.01829(3)
Zn2 Zn 0.11451(10) 0.44851(8) 0.27753(3)
Zn3 Zn 0.64012(9) 0.41414(8) 0.11809(4)
N4C N 0.6706(7) 0.2442(6) 0.0730(3)
O6A O 0.1742(8) 0.3666(6) 0.3562(3)
O7A O 0.1137(8) 0.6310(5) 0.3067(3)
O8C O 0.7757(7) 0.3195(5) 0.1792(3)
Zn2A Zn 0.38549(10) 0.55149(8) -0.22247(3)
Zn3C Zn 0.14012(9) 0.08586(8) -0.11809(4)
loop_
_geom_bond_atom_site_label_1
_geom_bond_atom_site_label_2
_geom_bond_site_symmetry_1
_geom_bond_site_symmetry_2
C1 C6 1_555 1_555
C2 C3 1_555 1_555
C3 C4 1_555 1_555
C4 O1 1_555 1_555
C5 C2 1_555 1_555
C6 H1 1_555 1_555
H2 C6 1_555 1_555
C7 C6 1_555 1_555
H3 C7 1_555 1_555
H4 C7 1_555 1_555
H5 C7 1_555 1_555
C8 C13 1_555 1_555
C9 C10 1_555 1_555
C10 C12 1_555 1_555
C11 C9 1_555 1_555
C12 O7 1_555 1_555
C13 H6 1_555 1_555
H7 C13 1_555 1_555
C14 C13 1_555 1_555
H8 C14 1_555 1_555
H9 C14 1_555 1_555
H10 C14 1_555 1_555
H11 O11 1_555 1_555
N1 C1 1_555 1_555
N2 C1 1_555 1_555
N3 C8 1_555 1_555
N4 C8 1_555 1_555
O1 Zn1 1_555 1_555
O2 C4 1_555 1_555
O3 C5 1_555 1_555
O4 C5 1_555 1_555
O5 C11 1_555 1_555
O6 C11 1_555 1_555
O7 Zn2A 1_555 1_555
O8 C12 1_555 1_555
O9 Zn3 1_555 1_555
O10 Zn2 1_555 1_555
O11 Zn1 1_555 1_555
O12 Zn1 1_555 1_555
Zn1 N3 1_555 1_555
Zn2 N1 1_555 1_555
Zn3 N2 1_555 1_555
N4C Zn3 1_555 1_555
O6A Zn2 1_555 1_555
O7A Zn2 1_555 1_555
O8C Zn3 1_555 1_555
Zn2A O6 1_555 1_555
Zn3C N4 1_555 1_555
C2 N2 1_555 1_555
C3 N1 1_555 1_555
C9 N3 1_555 1_555
C10 N4 1_555 1_555
O2 Zn2 1_555 1_555
O3 Zn3 1_555 1_555
O4 Zn1 1_555 1_555
O5 Zn1 1_555 1_555
O8 Zn3C 1_555 1_555

#END
