
#######################################################################
#
#                 Cambridge Crystallographic Data Centre
#                                CCDC 
#
#######################################################################
#
# If this CIF has been generated from an entry in the Cambridge 
# Structural Database, then it will include bibliographic, chemical, 
# crystal, experimental, refinement or atomic coordinate data resulting 
# from the CCDC's data processing and validation procedures.
#
#######################################################################

data_DIYSOV
_symmetry_cell_setting           orthorhombic
_symmetry_space_group_name_H-M   'P b c n'
_symmetry_Int_Tables_number      60
_space_group_name_Hall           '-P 2n 2ab'
loop_
_symmetry_equiv_pos_site_id
_symmetry_equiv_pos_as_xyz
1 x,y,z
2 1/2-x,1/2-y,1/2+z
3 1/2+x,1/2-y,-z
4 -x,y,1/2-z
5 -x,-y,-z
6 1/2+x,1/2+y,1/2-z
7 1/2-x,1/2+y,z
8 x,-y,1/2+z
_cell_length_a                   34.1184(15)
_cell_length_b                   12.5956(5)
_cell_length_c                   8.3102(4)
_cell_angle_alpha                90
_cell_angle_beta                 90
_cell_angle_gamma                90
_cell_volume                     3571.24
loop_
_atom_site_label
_atom_site_type_symbol
_atom_site_fract_x
_atom_site_fract_y
_atom_site_fract_z
Gd1 Gd 0.678312(3) 0.679908(9) 0.665024(15)
C1 C 0.64827(7) 0.55455(18) 0.9936(3)
C2 C 0.61321(7) 0.62674(19) 0.9728(3)
H1 H 0.5918 0.5887 0.9168
H2 H 0.6035 0.6506 1.0790
C3 C 0.60073(8) 0.80230(19) 0.8654(3)
C4 C 0.56349(8) 0.80709(19) 0.9303(3)
H3 H 0.5536 0.7497 0.9924
C5 C 0.54048(8) 0.8976(2) 0.9034(3)
H4 H 0.5148 0.9015 0.9474
C6 C 0.55488(8) 0.9810(2) 0.8136(3)
H5 H 0.5389 1.0414 0.7946
C7 C 0.59275(7) 0.97758(19) 0.7504(3)
H6 H 0.6027 1.0358 0.6903
C8 C 0.61569(7) 0.8883(2) 0.7761(3)
C9 C 0.66603(8) 0.9530(2) 0.6024(3)
H7 H 0.6705 1.0221 0.6562
H8 H 0.6453 0.9627 0.5203
C10 C 0.70354(7) 0.91622(19) 0.5223(3)
C11 C 0.59788(8) 0.7495(2) 0.4152(3)
C12 C 0.55657(8) 0.7611(2) 0.4826(3)
H9 H 0.5515 0.7022 0.5588
H10 H 0.5549 0.8285 0.5436
C13 C 0.51559(8) 0.6626(2) 0.3057(3)
C14 C 0.53198(9) 0.5669(2) 0.3533(4)
H11 H 0.5541 0.5666 0.4226
C15 C 0.51621(9) 0.4718(2) 0.3001(4)
H12 H 0.5277 0.4064 0.3325
O1 O 0.67716(5) 0.56915(14) 0.9022(2)
O2 O 0.64544(5) 0.48388(13) 1.0987(2)
O3 O 0.62588(5) 0.71672(14) 0.8785(2)
O4 O 0.65353(5) 0.87535(13) 0.7195(2)
O5 O 0.71527(5) 0.82242(13) 0.5476(2)
O6 O 0.72027(5) 0.98353(13) 0.4354(2)
O7 O 0.62408(5) 0.72762(15) 0.5181(2)
O8 O 0.60346(6) 0.76694(16) 0.2705(2)
O9 O 0.52688(5) 0.76061(15) 0.3613(2)
O10 O 0.73662(6) 0.58108(17) 0.6828(3)
O11 O 0.70362(6) 0.63460(16) 0.3999(2)
O12 O 0.71689(6) 0.76510(17) 0.8869(2)
H13 H 0.7502(12) 0.566(3) 0.760(7)
H14 H 0.7464(12) 0.565(3) 0.605(5)
H15 H 0.6959(12) 0.575(3) 0.379(5)
H16 H 0.6968(13) 0.673(3) 0.327(4)
H17 H 0.7339(11) 0.734(3) 0.931(4)
H18 H 0.7226(11) 0.821(3) 0.881(5)
C11C C 0.40212(8) 0.7495(2) 0.0848(3)
C12C C 0.44343(8) 0.7611(2) 0.0174(3)
H9C H 0.4485 0.7022 -0.0588
H10C H 0.4451 0.8285 -0.0436
C13C C 0.48441(8) 0.6626(2) 0.1943(3)
C14C C 0.46802(9) 0.5669(2) 0.1467(4)
H11C H 0.4459 0.5666 0.0774
C15C C 0.48379(9) 0.4718(2) 0.1999(4)
H12C H 0.4723 0.4064 0.1675
O7C O 0.37592(5) 0.72762(15) -0.0181(2)
O8C O 0.39654(6) 0.76694(16) 0.2295(2)
O9C O 0.47312(5) 0.76061(15) 0.1387(2)
Gd1C Gd 0.321688(3) 0.679908(9) -0.165024(15)
C1C C 0.35173(7) 0.55455(18) -0.4936(3)
C2C C 0.38679(7) 0.62674(19) -0.4728(3)
H1C H 0.4082 0.5887 -0.4168
H2C H 0.3965 0.6506 -0.5790
C3C C 0.39927(8) 0.80230(19) -0.3654(3)
C4C C 0.43651(8) 0.80709(19) -0.4303(3)
H3C H 0.4464 0.7497 -0.4924
C5C C 0.45952(8) 0.8976(2) -0.4034(3)
H4C H 0.4852 0.9015 -0.4474
C6C C 0.44512(8) 0.9810(2) -0.3136(3)
H5C H 0.4611 1.0414 -0.2946
C7C C 0.40725(7) 0.97758(19) -0.2504(3)
H6C H 0.3973 1.0358 -0.1903
C8C C 0.38431(7) 0.8883(2) -0.2761(3)
C9C C 0.33397(8) 0.9530(2) -0.1024(3)
H7C H 0.3295 1.0221 -0.1562
H8C H 0.3547 0.9627 -0.0203
C10C C 0.29646(7) 0.91622(19) -0.0223(3)
O1C O 0.32284(5) 0.56915(14) -0.4022(2)
O2C O 0.35456(5) 0.48388(13) -0.5987(2)
O3C O 0.37412(5) 0.71672(14) -0.3785(2)
O4C O 0.34647(5) 0.87535(13) -0.2195(2)
O5C O 0.28473(5) 0.82242(13) -0.0476(2)
O6C O 0.27973(5) 0.98353(13) 0.0646(2)
O10C O 0.26338(6) 0.58108(17) -0.1828(3)
O11C O 0.29638(6) 0.63460(16) 0.1001(2)
O12C O 0.28311(6) 0.76510(17) -0.3869(2)
H13C H 0.2498(12) 0.566(3) -0.260(7)
H14C H 0.2536(12) 0.565(3) -0.105(5)
H15C H 0.3041(12) 0.575(3) 0.121(5)
H16C H 0.3032(13) 0.673(3) 0.173(4)
H17C H 0.2661(11) 0.734(3) -0.431(4)
H18C H 0.2774(11) 0.821(3) -0.381(5)
Gd1D Gd 0.321688(3) 0.320092(9) -0.665024(15)
Gd1G Gd 0.678312(3) 0.320092(9) 1.165024(15)
O2D O 0.35456(5) 0.51612(13) -0.0987(2)
O2G O 0.64544(5) 0.51612(13) 0.5987(2)
O13 O 0.67969(7) 0.78265(17) 0.1961(3)
H19 H 0.6839(13) 0.779(4) 0.110(6)
H20 H 0.6515(15) 0.779(3) 0.215(6)
loop_
_geom_bond_atom_site_label_1
_geom_bond_atom_site_label_2
_geom_bond_site_symmetry_1
_geom_bond_site_symmetry_2
Gd1 O1 1_555 1_555
C1 C2 1_555 1_555
C2 H1 1_555 1_555
H2 C2 1_555 1_555
C3 C4 1_555 1_555
C4 H3 1_555 1_555
C5 C4 1_555 1_555
H4 C5 1_555 1_555
C6 C5 1_555 1_555
H5 C6 1_555 1_555
C7 C6 1_555 1_555
H6 C7 1_555 1_555
C8 C3 1_555 1_555
C9 H7 1_555 1_555
H8 C9 1_555 1_555
C10 C9 1_555 1_555
C11 C12 1_555 1_555
C12 H9 1_555 1_555
H10 C12 1_555 1_555
C13 C14 1_555 1_555
C14 H11 1_555 1_555
C15 C14 1_555 1_555
H12 C15 1_555 1_555
O1 C1 1_555 1_555
O2 C1 1_555 1_555
O3 Gd1 1_555 1_555
O4 Gd1 1_555 1_555
O5 Gd1 1_555 1_555
O6 C10 1_555 1_555
O7 Gd1 1_555 1_555
O8 C11 1_555 1_555
O9 C12 1_555 1_555
O10 Gd1 1_555 1_555
O11 Gd1 1_555 1_555
O12 Gd1 1_555 1_555
H13 O10 1_555 1_555
H14 O10 1_555 1_555
H15 O11 1_555 1_555
H16 O11 1_555 1_555
H17 O12 1_555 1_555
H18 O12 1_555 1_555
O13 H19 1_555 1_555
H20 O13 1_555 1_555
C11C C12C 1_555 1_555
C12C H9C 1_555 1_555
H10C C12C 1_555 1_555
C13C C13 1_555 1_555
C14C C13C 1_555 1_555
H11C C14C 1_555 1_555
C15C C15 1_555 1_555
H12C C15C 1_555 1_555
O7C C11C 1_555 1_555
O8C C11C 1_555 1_555
O9C C12C 1_555 1_555
Gd1C O7C 1_555 1_555
C1C C2C 1_555 1_555
C2C H1C 1_555 1_555
H2C C2C 1_555 1_555
C3C C4C 1_555 1_555
C4C H3C 1_555 1_555
C5C C4C 1_555 1_555
H4C C5C 1_555 1_555
C6C C5C 1_555 1_555
H5C C6C 1_555 1_555
C7C C6C 1_555 1_555
H6C C7C 1_555 1_555
C8C C3C 1_555 1_555
C9C H7C 1_555 1_555
H8C C9C 1_555 1_555
C10C C9C 1_555 1_555
O1C Gd1C 1_555 1_555
O2C C1C 1_555 1_555
O3C Gd1C 1_555 1_555
O4C Gd1C 1_555 1_555
O5C Gd1C 1_555 1_555
O6C C10C 1_555 1_555
O10C Gd1C 1_555 1_555
O11C Gd1C 1_555 1_555
O12C Gd1C 1_555 1_555
H13C O10C 1_555 1_555
H14C O10C 1_555 1_555
H15C O11C 1_555 1_555
H16C O11C 1_555 1_555
H17C O12C 1_555 1_555
H18C O12C 1_555 1_555
Gd1D O2C 1_555 1_555
Gd1G O2 1_555 1_555
O2D Gd1C 1_555 1_555
O2G Gd1 1_555 1_555
C2 O3 1_555 1_555
C3 O3 1_555 1_555
C7 C8 1_555 1_555
C8 O4 1_555 1_555
C9 O4 1_555 1_555
C10 O5 1_555 1_555
C11 O7 1_555 1_555
C13 O9 1_555 1_555
C13C O9C 1_555 1_555
C14C C15C 1_555 1_555
C1C O1C 1_555 1_555
C2C O3C 1_555 1_555
C3C O3C 1_555 1_555
C7C C8C 1_555 1_555
C8C O4C 1_555 1_555
C9C O4C 1_555 1_555
C10C O5C 1_555 1_555

#END
