
#######################################################################
#
#                 Cambridge Crystallographic Data Centre
#                                CCDC 
#
#######################################################################
#
# If this CIF has been generated from an entry in the Cambridge 
# Structural Database, then it will include bibliographic, chemical, 
# crystal, experimental, refinement or atomic coordinate data resulting 
# from the CCDC's data processing and validation procedures.
#
#######################################################################

data_DIYTAI
_symmetry_cell_setting           monoclinic
_symmetry_space_group_name_H-M   'P 21'
_symmetry_Int_Tables_number      4
_space_group_name_Hall           'P 2yb'
loop_
_symmetry_equiv_pos_site_id
_symmetry_equiv_pos_as_xyz
1 x,y,z
2 -x,1/2+y,-z
_cell_length_a                   10.3863(12)
_cell_length_b                   12.9737(15)
_cell_length_c                   10.8834(13)
_cell_angle_alpha                90
_cell_angle_beta                 113.5820(10)
_cell_angle_gamma                90
_cell_volume                     1344.05
loop_
_atom_site_label
_atom_site_type_symbol
_atom_site_fract_x
_atom_site_fract_y
_atom_site_fract_z
Cd1 Cd 0.831428(19) 0.986551(15) 0.53023(2)
Cd2 Cd 0.69074(2) 1.298306(17) 0.38899(2)
O1 O 1.2247(2) 1.4037(2) 1.2642(3)
O2 O 1.0256(3) 1.3879(2) 1.2897(3)
O3 O 0.7606(3) 1.2566(2) 0.6022(2)
O4 O 0.9051(3) 1.1212(2) 0.6670(3)
O5 O 1.6006(2) 1.13235(18) 1.3256(2)
O6 O 1.5973(2) 1.01581(18) 1.4745(2)
O7 O 1.1582(2) 0.94600(19) 1.5401(3)
O8 O 0.9704(2) 1.04259(19) 1.4266(2)
O9 O 0.8657(2) 1.23682(19) 0.3382(3)
H1 H 0.9120 1.1851 0.3817
H2 H 0.9193 1.2774 0.3190
O10 O 0.4900(2) 1.3469(2) 0.4208(3)
H3 H 0.4113 1.3168 0.3830
H4 H 0.4800 1.4019 0.4585
N1 N 0.7585(3) 0.8492(3) 0.3895(3)
N2 N 0.6355(3) 0.7141(3) 0.2824(3)
N3 N 0.4447(3) 0.4591(2) 0.0091(3)
N4 N 0.5891(3) 0.3718(2) 0.1832(3)
C1 C 1.0712(3) 1.2279(3) 1.0638(3)
C2 C 1.0338(3) 1.3275(3) 1.0862(3)
C3 C 0.9397(4) 1.3849(3) 0.9814(4)
H5 H 0.9155 1.4509 0.9977
C4 C 0.8811(4) 1.3450(3) 0.8527(4)
H6 H 0.8166 1.3837 0.7835
C5 C 0.9189(3) 1.2474(3) 0.8270(3)
C6 C 1.0134(3) 1.1894(3) 0.9325(3)
H7 H 1.0386 1.1238 0.9154
C7 C 1.1590(3) 1.1622(2) 1.1814(3)
C8 C 1.3035(3) 1.1498(2) 1.2225(3)
H8 H 1.3485 1.1784 1.1719
C9 C 1.3812(3) 1.0950(2) 1.3389(3)
C10 C 1.3133(3) 1.0522(3) 1.4145(3)
H9 H 1.3652 1.0170 1.4933
C11 C 1.1688(3) 1.0617(3) 1.3733(3)
C12 C 1.0931(3) 1.1163(3) 1.2567(3)
H10 H 0.9963 1.1225 1.2284
C13 C 1.1011(3) 1.3756(3) 1.2240(3)
C14 C 0.8563(3) 1.2043(3) 0.6874(3)
C15 C 1.5380(3) 1.0813(2) 1.3830(3)
C16 C 1.0950(3) 1.0119(2) 1.4540(3)
C17 C 0.6354(4) 0.8027(4) 0.3460(4)
H11 H 0.5576 0.8283 0.3581
C18 C 0.8406(4) 0.7875(4) 0.3509(5)
H12 H 0.9338 0.8008 0.3665
C19 C 0.7673(5) 0.7036(4) 0.2862(5)
H13 H 0.8005 0.6494 0.2512
C20 C 0.5162(4) 0.6445(3) 0.2204(4)
H14 H 0.4617 0.6424 0.2747
H15 H 0.5507 0.5755 0.2174
C21 C 0.4226(4) 0.6784(3) 0.0797(5)
H16 H 0.4782 0.6808 0.0263
H17 H 0.3894 0.7477 0.0835
C22 C 0.2960(4) 0.6087(4) 0.0095(4)
H18 H 0.2676 0.5793 0.0768
H19 H 0.2188 0.6508 -0.0495
C23 C 0.3198(4) 0.5212(3) -0.0723(4)
H20 H 0.2376 0.4771 -0.1053
H21 H 0.3327 0.5495 -0.1491
C24 C 0.4586(4) 0.4011(3) 0.1148(4)
H22 H 0.3843 0.3834 0.1377
C25 C 0.5769(4) 0.4682(3) 0.0087(4)
H23 H 0.6007 0.5046 -0.0528
C26 C 0.6652(4) 0.4137(3) 0.1156(4)
H24 H 0.7613 0.4057 0.1396
Cd1_2 Cd 0.831428(19) 0.986551(15) 1.53023(2)
Cd1_3 Cd 1.831428(19) 0.986551(15) 1.53023(2)
Cd1A Cd 1.168572(19) 1.486551(15) 1.46977(2)
Cd2_2 Cd 0.69074(2) 0.298306(17) 0.38899(2)
Cd2_3 Cd 1.69074(2) 1.298306(17) 1.38899(2)
Cd2A Cd 1.30926(2) 0.798306(17) 1.61101(2)
O1A O 0.7753(2) 0.9037(2) 0.7358(3)
O2A O 0.9744(3) 0.8879(2) 0.7103(3)
O5_2 O 0.6006(2) 1.13235(18) 0.3256(2)
O6_2 O 0.5973(2) 1.01581(18) 0.4745(2)
O7A O 0.8418(2) 1.44600(19) 0.4599(3)
O8_2 O 0.9704(2) 1.04259(19) 0.4266(2)
N4_2 N 0.5891(3) 1.3718(2) 0.1832(3)
loop_
_geom_bond_atom_site_label_1
_geom_bond_atom_site_label_2
_geom_bond_site_symmetry_1
_geom_bond_site_symmetry_2
Cd1 O4 1_555 1_555
Cd2 O3 1_555 1_555
O1 C13 1_555 1_555
O2 C13 1_555 1_555
O3 C14 1_555 1_555
O4 C14 1_555 1_555
O5 C15 1_555 1_555
O6 C15 1_555 1_555
O7 C16 1_555 1_555
O8 C16 1_555 1_555
O9 Cd2 1_555 1_555
H1 O9 1_555 1_555
H2 O9 1_555 1_555
O10 Cd2 1_555 1_555
H3 O10 1_555 1_555
H4 O10 1_555 1_555
N1 Cd1 1_555 1_555
N2 C17 1_555 1_555
N3 C23 1_555 1_555
N4 C24 1_555 1_555
C1 C2 1_555 1_555
C2 C3 1_555 1_555
C3 H5 1_555 1_555
C4 C3 1_555 1_555
H6 C4 1_555 1_555
C5 C4 1_555 1_555
C6 C1 1_555 1_555
H7 C6 1_555 1_555
C7 C1 1_555 1_555
C8 C7 1_555 1_555
H8 C8 1_555 1_555
C9 C8 1_555 1_555
C10 C9 1_555 1_555
H9 C10 1_555 1_555
C11 C10 1_555 1_555
C12 C7 1_555 1_555
H10 C12 1_555 1_555
C13 C2 1_555 1_555
C14 C5 1_555 1_555
C15 C9 1_555 1_555
C16 C11 1_555 1_555
C17 N1 1_555 1_555
H11 C17 1_555 1_555
C18 N1 1_555 1_555
H12 C18 1_555 1_555
C19 N2 1_555 1_555
H13 C19 1_555 1_555
C20 N2 1_555 1_555
H14 C20 1_555 1_555
H15 C20 1_555 1_555
C21 C20 1_555 1_555
H16 C21 1_555 1_555
H17 C21 1_555 1_555
C22 C21 1_555 1_555
H18 C22 1_555 1_555
H19 C22 1_555 1_555
C23 C22 1_555 1_555
H20 C23 1_555 1_555
H21 C23 1_555 1_555
C24 N3 1_555 1_555
H22 C24 1_555 1_555
C25 N3 1_555 1_555
H23 C25 1_555 1_555
C26 N4 1_555 1_555
H24 C26 1_555 1_555
Cd1_2 O8 1_555 1_555
Cd1_3 O6 1_555 1_555
Cd1A O1 1_555 1_555
Cd2_2 N4 1_555 1_555
Cd2_3 O5 1_555 1_555
Cd2A O7 1_555 1_555
O1A Cd1 1_555 1_555
O2A Cd1 1_555 1_555
O5_2 Cd2 1_555 1_555
O6_2 Cd1 1_555 1_555
O7A Cd2 1_555 1_555
O8_2 Cd1 1_555 1_555
N4_2 Cd2 1_555 1_555
O2 Cd1A 1_555 1_555
C5 C6 1_555 1_555
C11 C12 1_555 1_555
C18 C19 1_555 1_555
C25 C26 1_555 1_555

#END
