
#######################################################################
#
#                 Cambridge Crystallographic Data Centre
#                                CCDC 
#
#######################################################################
#
# If this CIF has been generated from an entry in the Cambridge 
# Structural Database, then it will include bibliographic, chemical, 
# crystal, experimental, refinement or atomic coordinate data resulting 
# from the CCDC's data processing and validation procedures.
#
#######################################################################

data_DIYWOZ
_symmetry_cell_setting           monoclinic
_symmetry_space_group_name_H-M   'P 21/c'
_symmetry_Int_Tables_number      14
_space_group_name_Hall           '-P 2ybc'
loop_
_symmetry_equiv_pos_site_id
_symmetry_equiv_pos_as_xyz
1 x,y,z
2 -x,1/2+y,1/2-z
3 -x,-y,-z
4 x,1/2-y,1/2+z
_cell_length_a                   17.246(6)
_cell_length_b                   17.018(6)
_cell_length_c                   10.945(4)
_cell_angle_alpha                90
_cell_angle_beta                 91.414(4)
_cell_angle_gamma                90
_cell_volume                     3211.3
loop_
_atom_site_label
_atom_site_type_symbol
_atom_site_fract_x
_atom_site_fract_y
_atom_site_fract_z
Cd1 Cd 1.300085(14) 0.635131(16) -0.11861(2)
N1 N 1.19014(16) 0.71446(18) -0.1382(3)
N2 N 1.06835(16) 0.74651(18) -0.1777(3)
N3 N 0.49952(17) 0.7085(2) 0.3656(3)
N4 N 0.38766(16) 0.76883(18) 0.3661(3)
O1 O 1.41231(15) 0.56306(17) -0.0290(2)
H1 H 1.4129 0.5292 0.0280
H2 H 1.4512 0.5483 -0.0693
O2 O 0.87972(13) 0.50616(16) 0.2628(2)
H3 H 0.8434 0.4780 0.2818
O3 O 0.94557(13) 0.43450(16) 0.4012(2)
O4 O 1.24399(12) 0.58069(15) 0.69535(19)
O5 O 1.36958(12) 0.57745(16) 0.7003(2)
O6 O 1.48953(13) 0.42915(19) 0.3615(2)
H4 H 1.5318 0.4255 0.3293
O7 O 1.44803(13) 0.45632(17) 0.1720(2)
O8 O 1.22978(14) 0.53983(15) -0.0262(2)
O9 O 1.25648(13) 0.63833(16) 0.0993(2)
C1 C 1.21852(19) 0.5794(2) 0.0692(3)
C2 C 1.14957(17) 0.55478(19) 0.1421(3)
C3 C 1.15471(17) 0.52278(19) 0.2600(3)
C4 C 1.08695(17) 0.49967(19) 0.3154(3)
H5 H 1.0898 0.4761 0.3921
C5 C 1.01474(17) 0.51107(19) 0.2585(3)
C6 C 1.01068(18) 0.5462(2) 0.1444(3)
H6 H 0.9627 0.5560 0.1069
C7 C 1.07768(18) 0.5667(2) 0.0865(3)
H7 H 1.0745 0.5888 0.0089
C8 C 0.94457(18) 0.4802(2) 0.3169(3)
C9 C 1.23014(17) 0.51517(19) 0.3274(3)
C10 C 1.29678(17) 0.48781(19) 0.2731(3)
H8 H 1.2949 0.4726 0.1915
C11 C 1.36616(17) 0.48294(19) 0.3392(3)
C12 C 1.36940(18) 0.5073(2) 0.4606(3)
H9 H 1.4161 0.5048 0.5049
C13 C 1.30343(17) 0.5352(2) 0.5158(3)
C14 C 1.23408(17) 0.53769(19) 0.4494(3)
H10 H 1.1894 0.5548 0.4872
C15 C 1.30619(18) 0.5658(2) 0.6447(3)
C16 C 1.43792(18) 0.4556(2) 0.2812(3)
C17 C 0.9270(2) 0.7390(2) -0.1464(3)
C18 C 0.9089(2) 0.6672(2) -0.0978(3)
H11 H 0.9362 0.6229 -0.1221
C19 C 0.8507(2) 0.6591(2) -0.0133(3)
H12 H 0.8397 0.6096 0.0177
C20 C 0.8090(2) 0.7233(2) 0.0256(3)
C21 C 0.8269(2) 0.7956(2) -0.0253(4)
H13 H 0.7991 0.8399 -0.0025
C22 C 0.8847(2) 0.8031(2) -0.1089(4)
H14 H 0.8956 0.8524 -0.1408
C23 C 0.74738(19) 0.7147(2) 0.1176(4)
C24 C 0.7109(2) 0.6436(3) 0.1365(4)
H15 H 0.7235 0.6006 0.0885
C25 C 0.6560(2) 0.6353(3) 0.2255(4)
H16 H 0.6325 0.5867 0.2363
C26 C 0.6355(2) 0.6973(3) 0.2985(4)
C27 C 0.6707(2) 0.7686(3) 0.2790(4)
H17 H 0.6572 0.8116 0.3264
C28 C 0.7257(2) 0.7774(2) 0.1902(4)
H18 H 0.7486 0.8262 0.1790
C29 C 0.9909(2) 0.7484(2) -0.2371(3)
H19 H 0.9871 0.7066 -0.2971
H20 H 0.9842 0.7980 -0.2798
C30 C 1.0922(2) 0.7892(2) -0.0780(4)
H21 H 1.0630 0.8252 -0.0349
C31 C 1.1664(2) 0.7687(2) -0.0549(4)
H22 H 1.1972 0.7886 0.0089
C32 C 1.1293(2) 0.7031(2) -0.2115(3)
H23 H 1.1286 0.6692 -0.2782
C33 C 0.5794(2) 0.6871(3) 0.4004(4)
H24 H 0.5804 0.6326 0.4268
H25 H 0.5964 0.7192 0.4692
C34 C 0.4536(2) 0.6736(3) 0.2792(4)
H26 H 0.4671 0.6318 0.2293
C35 C 0.3844(2) 0.7108(2) 0.2792(4)
H27 H 0.3417 0.6991 0.2288
C36 C 0.4577(2) 0.7652(2) 0.4150(3)
H28 H 0.4759 0.7983 0.4769
Cd1_2 Cd 1.300085(14) 0.635131(16) 0.88139(2)
Cd1C Cd 0.300085(14) 0.864869(16) 0.38139(2)
N4C N 1.38766(16) 0.73117(18) -0.1339(3)
O4_2 O 1.24399(12) 0.58069(15) -0.30465(19)
O5_2 O 1.36958(12) 0.57745(16) -0.2997(2)
loop_
_geom_bond_atom_site_label_1
_geom_bond_atom_site_label_2
_geom_bond_site_symmetry_1
_geom_bond_site_symmetry_2
Cd1 N1 1_555 1_555
N1 C31 1_555 1_555
N2 C29 1_555 1_555
N3 C33 1_555 1_555
N4 C35 1_555 1_555
O1 Cd1 1_555 1_555
H1 O1 1_555 1_555
H2 O1 1_555 1_555
O2 H3 1_555 1_555
O3 C8 1_555 1_555
O4 C15 1_555 1_555
O5 C15 1_555 1_555
O6 H4 1_555 1_555
O7 C16 1_555 1_555
O8 Cd1 1_555 1_555
O9 Cd1 1_555 1_555
C1 O8 1_555 1_555
C2 C1 1_555 1_555
C3 C2 1_555 1_555
C4 C3 1_555 1_555
H5 C4 1_555 1_555
C5 C4 1_555 1_555
C6 C5 1_555 1_555
H6 C6 1_555 1_555
C7 C2 1_555 1_555
H7 C7 1_555 1_555
C8 O2 1_555 1_555
C9 C3 1_555 1_555
C10 C9 1_555 1_555
H8 C10 1_555 1_555
C11 C10 1_555 1_555
C12 C11 1_555 1_555
H9 C12 1_555 1_555
C13 C12 1_555 1_555
C14 C9 1_555 1_555
H10 C14 1_555 1_555
C15 C13 1_555 1_555
C16 O6 1_555 1_555
C17 C18 1_555 1_555
C18 H11 1_555 1_555
C19 C18 1_555 1_555
H12 C19 1_555 1_555
C20 C19 1_555 1_555
C21 C20 1_555 1_555
H13 C21 1_555 1_555
C22 C17 1_555 1_555
H14 C22 1_555 1_555
C23 C20 1_555 1_555
C24 C23 1_555 1_555
H15 C24 1_555 1_555
C25 C24 1_555 1_555
H16 C25 1_555 1_555
C26 C25 1_555 1_555
C27 C26 1_555 1_555
H17 C27 1_555 1_555
C28 C23 1_555 1_555
H18 C28 1_555 1_555
C29 C17 1_555 1_555
H19 C29 1_555 1_555
H20 C29 1_555 1_555
C30 N2 1_555 1_555
H21 C30 1_555 1_555
C31 C30 1_555 1_555
H22 C31 1_555 1_555
C32 N1 1_555 1_555
H23 C32 1_555 1_555
C33 C26 1_555 1_555
H24 C33 1_555 1_555
H25 C33 1_555 1_555
C34 N3 1_555 1_555
H26 C34 1_555 1_555
C35 C34 1_555 1_555
H27 C35 1_555 1_555
C36 N3 1_555 1_555
H28 C36 1_555 1_555
Cd1_2 O4 1_555 1_555
Cd1C N4 1_555 1_555
N4C Cd1 1_555 1_555
O4_2 Cd1 1_555 1_555
O5_2 Cd1 1_555 1_555
N2 C32 1_555 1_555
N4 C36 1_555 1_555
O5 Cd1_2 1_555 1_555
O9 C1 1_555 1_555
C5 C8 1_555 1_555
C6 C7 1_555 1_555
C11 C16 1_555 1_555
C13 C14 1_555 1_555
C21 C22 1_555 1_555
C27 C28 1_555 1_555

#END
