
#######################################################################
#
#                 Cambridge Crystallographic Data Centre
#                                CCDC 
#
#######################################################################
#
# If this CIF has been generated from an entry in the Cambridge 
# Structural Database, then it will include bibliographic, chemical, 
# crystal, experimental, refinement or atomic coordinate data resulting 
# from the CCDC's data processing and validation procedures.
#
#######################################################################

data_DIYWEP
_symmetry_cell_setting           monoclinic
_symmetry_space_group_name_H-M   'C 2/c'
_symmetry_Int_Tables_number      15
_space_group_name_Hall           '-C 2yn'
loop_
_symmetry_equiv_pos_site_id
_symmetry_equiv_pos_as_xyz
1 x,y,z
2 -x,y,1/2-z
3 1/2+x,1/2+y,z
4 1/2-x,1/2+y,1/2-z
5 -x,-y,-z
6 x,-y,1/2+z
7 1/2-x,1/2-y,-z
8 1/2+x,1/2-y,1/2+z
_cell_length_a                   18.65(3)
_cell_length_b                   7.982(11)
_cell_length_c                   27.53(4)
_cell_angle_alpha                90
_cell_angle_beta                 109.469(16)
_cell_angle_gamma                90
_cell_volume                     3863.91
loop_
_atom_site_label
_atom_site_type_symbol
_atom_site_fract_x
_atom_site_fract_y
_atom_site_fract_z
Cd1 Cd 0.06259(4) -0.31307(10) 0.02677(3)
O1 O -0.0116(4) -0.2115(10) -0.0528(3)
H1 H -0.0286 -0.1427 -0.0775
H2 H -0.0558 -0.2522 -0.0588
O2 O 0.4381(4) 0.0527(10) 0.0229(3)
O3 O 0.4774(4) 0.2820(11) 0.0687(3)
O4 O 0.4747(11) 0.291(3) 0.3037(7)
O5 O 0.4196(7) 0.4344(17) 0.3484(4)
H3 H 0.4429 0.3649 0.3698
O6 O 0.0918(5) 0.4270(14) 0.1269(4)
O7 O 0.1594(5) 0.5783(12) 0.0898(4)
O8 O 0.1077(4) -0.0422(10) 0.0479(3)
O9 O 0.1718(4) -0.1654(10) 0.0034(4)
C1 C 0.1523(6) 0.4894(15) 0.1261(5)
C2 C 0.2241(6) 0.4563(14) 0.1711(4)
C3 C 0.2280(7) 0.5269(16) 0.2197(5)
H4 H 0.1859 0.5834 0.2224
C4 C 0.2925(8) 0.5134(18) 0.2625(5)
H5 H 0.2932 0.5611 0.2935
C5 C 0.3564(7) 0.4292(19) 0.2597(5)
C6 C 0.3537(6) 0.3627(16) 0.2115(4)
H6 H 0.3969 0.3110 0.2088
C7 C 0.2888(6) 0.3716(15) 0.1677(4)
C8 C 0.2863(5) 0.2765(15) 0.1199(4)
C9 C 0.3526(5) 0.2744(14) 0.1050(4)
H7 H 0.3943 0.3403 0.1226
C10 C 0.3550(5) 0.1737(13) 0.0641(4)
C11 C 0.2930(5) 0.0714(14) 0.0390(4)
H8 H 0.2943 0.0019 0.0122
C12 C 0.2287(5) 0.0745(14) 0.0547(4)
C13 C 0.2269(6) 0.1788(13) 0.0934(4)
H9 H 0.1828 0.1830 0.1020
C14 C 0.1647(5) -0.0527(15) 0.0317(4)
C15 C 0.4275(5) 0.1685(12) 0.0509(4)
C16 C 0.4237(7) 0.396(3) 0.3048(6)
Cd1_2 Cd 0.06259(4) 0.68693(10) 0.02677(3)
Cd1B Cd 0.56259(4) 0.18693(10) 0.02677(3)
Cd1F Cd 0.43741(4) -0.18693(10) -0.02677(3)
O2B O -0.0619(4) -0.4473(10) 0.0229(3)
O2F O 0.0619(4) -0.5527(10) -0.0229(3)
O3B O -0.0226(4) -0.2180(11) 0.0687(3)
O7_2 O 0.1594(5) -0.4217(12) 0.0898(4)
N1 N 0.0982(12) 0.667(2) 0.8293(9)
N2 N 0.1722(10) 0.783(2) 0.8957(7)
H10 H 0.2087 0.8259 0.9207
C17 C 0.1047(12) 0.775(3) 0.8949(9)
H11 H 0.0877 0.8276 0.9193
C18 C 0.1805(13) 0.720(3) 0.8540(9)
H12 H 0.2227 0.7099 0.8433
C19 C 0.0656(14) 0.697(3) 0.8612(10)
H13 H 0.0168 0.6618 0.8582
C20 C 0.0903(16) 0.548(4) 0.7861(10)
H14 H 0.0921 0.4320 0.7967
H15 H 0.1272 0.5683 0.7688
C21 C 0.0000 0.612(6) 0.7500
H16 H -0.0114 0.6864 0.7743
H16A H 0.0114 0.6864 0.7257
N1A N -0.0982(12) 0.667(2) 0.6707(9)
N2A N -0.1722(10) 0.783(2) 0.6043(7)
H10A H -0.2087 0.8259 0.5793
C17A C -0.1047(12) 0.775(3) 0.6051(9)
H11A H -0.0877 0.8276 0.5807
C18A C -0.1805(13) 0.720(3) 0.6460(9)
H12A H -0.2227 0.7099 0.6567
C19A C -0.0656(14) 0.697(3) 0.6388(10)
H13A H -0.0168 0.6618 0.6418
C20A C -0.0903(16) 0.548(4) 0.7139(10)
H14A H -0.0921 0.4320 0.7033
H15A H -0.1272 0.5683 0.7312
H17? H -0.0114 0.6864 0.7743
loop_
_geom_bond_atom_site_label_1
_geom_bond_atom_site_label_2
_geom_bond_site_symmetry_1
_geom_bond_site_symmetry_2
Cd1 O1 1_555 1_555
O1 H1 1_555 1_555
H2 O1 1_555 1_555
O2 C15 1_555 1_555
O3 C15 1_555 1_555
O4 C16 1_555 1_555
O5 H3 1_555 1_555
O6 C1 1_555 1_555
O7 C1 1_555 1_555
O8 Cd1 1_555 1_555
O9 Cd1 1_555 1_555
C1 C2 1_555 1_555
C2 C3 1_555 1_555
C3 H4 1_555 1_555
C4 C3 1_555 1_555
H5 C4 1_555 1_555
C5 C4 1_555 1_555
C6 C5 1_555 1_555
H6 C6 1_555 1_555
C7 C2 1_555 1_555
C8 C7 1_555 1_555
C9 C8 1_555 1_555
H7 C9 1_555 1_555
C10 C9 1_555 1_555
C11 C10 1_555 1_555
H8 C11 1_555 1_555
C12 C11 1_555 1_555
C13 C8 1_555 1_555
H9 C13 1_555 1_555
C14 O8 1_555 1_555
C15 C10 1_555 1_555
C16 O5 1_555 1_555
N1 C18 1_555 1_555
N2 H10 1_555 1_555
C17 N2 1_555 1_555
H11 C17 1_555 1_555
C18 N2 1_555 1_555
H12 C18 1_555 1_555
C19 N1 1_555 1_555
H13 C19 1_555 1_555
C20 N1 1_555 1_555
H14 C20 1_555 1_555
H15 C20 1_555 1_555
C21 C20 1_555 1_555
H16 C21 1_555 1_555
Cd1_2 O7 1_555 1_555
Cd1B O2 1_555 1_555
Cd1F O2 1_555 1_555
O2B Cd1 1_555 1_555
O2F Cd1 1_555 1_555
O3B Cd1 1_555 1_555
O7_2 Cd1 1_555 1_555
H16A C21 1_555 1_555
N1A C18A 1_555 1_555
N2A H10A 1_555 1_555
C17A N2A 1_555 1_555
H11A C17A 1_555 1_555
C18A N2A 1_555 1_555
H12A C18A 1_555 1_555
C19A N1A 1_555 1_555
H13A C19A 1_555 1_555
C20A C21 1_555 1_555
H14A C20A 1_555 1_555
H15A C20A 1_555 1_555
O3 Cd1B 1_555 1_555
O9 C14 1_555 1_555
C5 C16 1_555 1_555
C6 C7 1_555 1_555
C12 C13 1_555 1_555
C12 C14 1_555 1_555
C17 C19 1_555 1_555
N1A C20A 1_555 1_555
C17A C19A 1_555 1_555

#END
