
#######################################################################
#
#                 Cambridge Crystallographic Data Centre
#                                CCDC 
#
#######################################################################
#
# If this CIF has been generated from an entry in the Cambridge 
# Structural Database, then it will include bibliographic, chemical, 
# crystal, experimental, refinement or atomic coordinate data resulting 
# from the CCDC's data processing and validation procedures.
#
#######################################################################

data_DIYXOA
_symmetry_cell_setting           monoclinic
_symmetry_space_group_name_H-M   'C 2/c'
_symmetry_Int_Tables_number      15
_space_group_name_Hall           '-C 2yn'
loop_
_symmetry_equiv_pos_site_id
_symmetry_equiv_pos_as_xyz
1 x,y,z
2 -x,y,1/2-z
3 1/2+x,1/2+y,z
4 1/2-x,1/2+y,1/2-z
5 -x,-y,-z
6 x,-y,1/2+z
7 1/2-x,1/2-y,-z
8 1/2+x,1/2-y,1/2+z
_cell_length_a                   32.520(4)
_cell_length_b                   9.0526(10)
_cell_length_c                   17.1476(19)
_cell_angle_alpha                90
_cell_angle_beta                 103.599(10)
_cell_angle_gamma                90
_cell_volume                     4906.57
loop_
_atom_site_label
_atom_site_type_symbol
_atom_site_fract_x
_atom_site_fract_y
_atom_site_fract_z
Te1 Te 0.08431(2) 0.10660(8) 0.15692(5)
Te2 Te 0.14761(2) 0.18252(8) 0.08552(5)
Te3 Te 0.19139(2) -0.06397(8) 0.06324(5)
N1 N 0.3032(2) 0.0940(9) 0.0927(5)
H1 H 0.2749 0.0882 0.0753
H2 H 0.3130 0.1364 0.0532
N2 N 0.4570(4) 0.4626(10) 0.5719(7)
N3 N 0.2598(2) 0.3090(9) 0.2093(5)
H3 H 0.2385 0.2448 0.1920
H4 H 0.2620 0.3293 0.2615
N4 N 0.4160(3) 0.2234(10) 0.4510(5)
N5 N 0.3826(2) -0.2164(8) 0.1150(5)
H5 H 0.3630 -0.2819 0.0902
H6 H 0.3888 -0.2380 0.1677
N6 N 0.3271(3) 0.4431(10) 0.1608(6)
H7 H 0.3517 0.4754 0.1921
H8 H 0.3286 0.4496 0.1092
C1 C 0.3990(9) 0.120(4) 0.314(2)
C2 C 0.4209(9) 0.108(5) 0.403(2)
C3 C 0.2545(3) 0.4473(13) 0.1589(9)
H9 H 0.2459 0.4213 0.1026
H10 H 0.2327 0.5090 0.1719
N7 N 0.4633(4) 0.7950(10) 0.5668(8)
C4 C 0.3196(3) -0.0564(14) 0.1030(10)
H11 H 0.3151 -0.0958 0.1529
H12 H 0.3038 -0.1171 0.0596
C5 C 0.4672(5) 0.7144(13) 0.6389(9)
Li1 Li 0.4367(5) 0.2451(18) 0.5728(11)
Li2 Li 0.3160(5) 0.2327(19) 0.1886(11)
C6 C 0.3635(3) -0.0673(11) 0.1042(7)
H13 H 0.3790 -0.0047 0.1471
H14 H 0.3677 -0.0274 0.0541
C7 C 0.2935(4) 0.5265(12) 0.1738(8)
H15 H 0.2900 0.6128 0.1393
H16 H 0.3003 0.5608 0.2289
C8 C 0.4511(5) 0.5519(14) 0.6320(9)
H17 H 0.4641 0.5033 0.6821
H18 H 0.4210 0.5551 0.6286
N8 N 0.3503(7) 0.131(3) 0.3036(14)
C9 C 0.4853(8) 0.069(3) 0.7200(11)
N9 N 0.4865(2) 0.1212(8) 0.6359(5)
C9A C 0.5147(8) 0.069(3) 0.7800(11)
N9A N 0.5135(2) 0.1212(8) 0.8641(5)
N1A N 0.6968(2) 0.0940(9) 1.4073(5)
H1A H 0.7251 0.0882 1.4247
H2A H 0.6870 0.1364 1.4468
N2A N 0.5430(4) 0.4626(10) 0.9281(7)
N3A N 0.7402(2) 0.3090(9) 1.2907(5)
H3A H 0.7615 0.2448 1.3080
H4A H 0.7380 0.3293 1.2385
N4A N 0.5840(3) 0.2234(10) 1.0490(5)
N5A N 0.6174(2) -0.2164(8) 1.3850(5)
H5A H 0.6370 -0.2819 1.4098
H6A H 0.6112 -0.2380 1.3323
N6A N 0.6729(3) 0.4431(10) 1.3392(6)
H7A H 0.6483 0.4754 1.3079
H8A H 0.6714 0.4496 1.3908
C1A C 0.6010(9) 0.120(4) 1.186(2)
C2A C 0.5791(9) 0.108(5) 1.097(2)
C3A C 0.7455(3) 0.4473(13) 1.3411(9)
H9A H 0.7541 0.4213 1.3974
H10A H 0.7673 0.5090 1.3281
N7A N 0.5367(4) 0.7950(10) 0.9332(8)
C4A C 0.6804(3) -0.0564(14) 1.3970(10)
H11A H 0.6849 -0.0958 1.3471
H12A H 0.6962 -0.1171 1.4404
C5A C 0.5328(5) 0.7144(13) 0.8611(9)
Li1A Li 0.5633(5) 0.2451(18) 0.9272(11)
Li2A Li 0.6840(5) 0.2327(19) 1.3114(11)
C6A C 0.6365(3) -0.0673(11) 1.3958(7)
H13A H 0.6210 -0.0047 1.3529
H14A H 0.6323 -0.0274 1.4459
C7A C 0.7065(4) 0.5265(12) 1.3262(8)
H15A H 0.7100 0.6128 1.3607
H16A H 0.6997 0.5608 1.2711
C8A C 0.5489(5) 0.5519(14) 0.8680(9)
H17A H 0.5359 0.5033 0.8179
H18A H 0.5790 0.5551 0.8714
N8A N 0.6497(7) 0.131(3) 1.1964(14)
N5D N 0.6174(2) 0.2164(8) 0.8850(5)
N5E N 0.3826(2) 0.2164(8) 0.6150(5)
Li1D Li 0.5633(5) -0.2451(18) 1.4272(11)
Li1E Li 0.4367(5) -0.2451(18) 0.0728(11)
C10? C 0.4062(10) 0.079(4) 0.410(2)
N10? N 0.3611(8) 0.210(3) 0.2894(14)
C11? C 0.3857(10) 0.084(4) 0.321(2)
C12? C 0.4898(8) 0.174(3) 0.7226(10)
loop_
_geom_bond_atom_site_label_1
_geom_bond_atom_site_label_2
_geom_bond_site_symmetry_1
_geom_bond_site_symmetry_2
Te1 Te2 1_555 1_555
Te2 Te3 1_555 1_555
N1 H1 1_555 1_555
H2 N1 1_555 1_555
N2 Li1 1_555 1_555
N3 H3 1_555 1_555
H4 N3 1_555 1_555
N4 C2 1_555 1_555
N5 H5 1_555 1_555
H6 N5 1_555 1_555
N6 H7 1_555 1_555
H8 N6 1_555 1_555
C1 C2 1_555 1_555
C3 N3 1_555 1_555
H9 C3 1_555 1_555
H10 C3 1_555 1_555
N7 C5 1_555 1_555
C4 N1 1_555 1_555
H11 C4 1_555 1_555
H12 C4 1_555 1_555
C5 C8 1_555 1_555
Li1 N4 1_555 1_555
Li2 N1 1_555 1_555
C6 N5 1_555 1_555
H13 C6 1_555 1_555
H14 C6 1_555 1_555
C7 N6 1_555 1_555
H15 C7 1_555 1_555
H16 C7 1_555 1_555
C8 N2 1_555 1_555
H17 C8 1_555 1_555
H18 C8 1_555 1_555
N8 C1 1_555 1_555
C9 N9 1_555 1_555
N9 Li1 1_555 1_555
C9A C9 1_555 1_555
N9A C9A 1_555 1_555
N1A H1A 1_555 1_555
H2A N1A 1_555 1_555
N2A Li1A 1_555 1_555
N3A H3A 1_555 1_555
H4A N3A 1_555 1_555
N4A C2A 1_555 1_555
N5A H5A 1_555 1_555
H6A N5A 1_555 1_555
N6A H7A 1_555 1_555
H8A N6A 1_555 1_555
C1A C2A 1_555 1_555
C3A N3A 1_555 1_555
H9A C3A 1_555 1_555
H10A C3A 1_555 1_555
N7A C5A 1_555 1_555
C4A N1A 1_555 1_555
H11A C4A 1_555 1_555
H12A C4A 1_555 1_555
C5A C8A 1_555 1_555
Li1A N9A 1_555 1_555
Li2A N1A 1_555 1_555
C6A N5A 1_555 1_555
H13A C6A 1_555 1_555
H14A C6A 1_555 1_555
C7A N6A 1_555 1_555
H15A C7A 1_555 1_555
H16A C7A 1_555 1_555
C8A N2A 1_555 1_555
H17A C8A 1_555 1_555
H18A C8A 1_555 1_555
N8A C1A 1_555 1_555
N5D Li1A 1_555 1_555
N5E Li1 1_555 1_555
Li1D N5A 1_555 1_555
Li1E N5 1_555 1_555
N3 Li2 1_555 1_555
N6 Li2 1_555 1_555
C3 C7 1_555 1_555
C4 C6 1_555 1_555
Li2 N8 1_555 1_555
N3A Li2A 1_555 1_555
N4A Li1A 1_555 1_555
N6A Li2A 1_555 1_555
C3A C7A 1_555 1_555
C4A C6A 1_555 1_555
Li2A N8A 1_555 1_555

#END
