
#######################################################################
#
#                 Cambridge Crystallographic Data Centre
#                                CCDC 
#
#######################################################################
#
# If this CIF has been generated from an entry in the Cambridge 
# Structural Database, then it will include bibliographic, chemical, 
# crystal, experimental, refinement or atomic coordinate data resulting 
# from the CCDC's data processing and validation procedures.
#
#######################################################################

data_DIYXIU
_symmetry_cell_setting           monoclinic
_symmetry_space_group_name_H-M   'P 21/n'
_symmetry_Int_Tables_number      14
_space_group_name_Hall           '-P 2yn'
loop_
_symmetry_equiv_pos_site_id
_symmetry_equiv_pos_as_xyz
1 x,y,z
2 1/2-x,1/2+y,1/2-z
3 -x,-y,-z
4 1/2+x,1/2-y,1/2+z
_cell_length_a                   11.1617(15)
_cell_length_b                   14.6234(16)
_cell_length_c                   12.4530(16)
_cell_angle_alpha                90
_cell_angle_beta                 94.413(10)
_cell_angle_gamma                90
_cell_volume                     2026.58
loop_
_atom_site_label
_atom_site_type_symbol
_atom_site_fract_x
_atom_site_fract_y
_atom_site_fract_z
Te1 Te 0.09063(9) 0.29656(8) 0.82170(9)
Te2 Te -0.08840(9) 0.16461(8) 0.80582(9)
N1 N 0.2359(13) 0.4729(10) 1.0244(11)
H1 H 0.2036 0.4272 0.9834
H2 H 0.3096 0.4546 1.0500
N2 N 0.3289(11) 0.5227(9) 1.5271(10)
H3 H 0.3653 0.4808 1.4880
H4 H 0.3850 0.5485 1.5734
N3 N 0.3724(12) 0.7155(10) 1.3820(11)
H5 H 0.3368 0.7464 1.3257
H6 H 0.3826 0.7556 1.4367
N4 N 0.6115(13) 0.8244(11) 1.4332(13)
H7 H 0.5474 0.8572 1.4504
H8 H 0.6297 0.7854 1.4879
N5 N 0.1620(13) 0.5506(11) 1.2997(12)
H9 H 0.1516 0.4925 1.3212
H10 H 0.0887 0.5754 1.2859
N6 N 0.1283(13) 0.7104(10) 1.4805(12)
H11 H 0.1686 0.7415 1.5342
H12 H 0.1135 0.7510 1.4268
C1 C 0.2212(14) 0.5489(11) 1.2012(13)
H13 H 0.3041 0.5303 1.2172
H14 H 0.2217 0.6103 1.1718
C2 C 0.4921(16) 0.6912(12) 1.3525(16)
H15 H 0.4840 0.6566 1.2858
H16 H 0.5291 0.6513 1.4078
C3 C 0.1627(16) 0.4849(12) 1.1165(14)
H17 H 0.1500 0.4258 1.1491
H18 H 0.0847 0.5092 1.0911
C4 C 0.2387(16) 0.4784(12) 1.5870(13)
H19 H 0.2658 0.4172 1.6063
H20 H 0.1649 0.4730 1.5410
C5 C 0.2122(16) 0.5305(14) 1.6903(14)
H21 H 0.1954 0.5937 1.6708
H22 H 0.1394 0.5052 1.7161
Li1 Li 0.251(2) 0.6222(19) 1.4257(18)
C6 C 0.0130(16) 0.6915(14) 1.5191(17)
H23 H 0.0261 0.6569 1.5854
H24 H -0.0304 0.6521 1.4669
C7 C -0.067(2) 0.7716(17) 1.5407(16)
H25 H -0.0269 0.8094 1.5963
H26 H -0.1402 0.7483 1.5686
Li2 Li 0.256(2) 0.585(2) 0.925(2)
N7 N -0.0999(15) 0.8272(12) 1.4506(12)
H27 H -0.0347 0.8619 1.4421
H28 H -0.1057 0.7886 1.3942
N8 N 0.3006(16) 0.5301(14) 1.7758(13)
H29 H 0.3644 0.5611 1.7549
H30 H 0.3241 0.4718 1.7873
C8 C 0.5753(15) 0.7704(13) 1.3379(14)
H31 H 0.5368 0.8111 1.2842
H32 H 0.6474 0.7470 1.3088
N4C N 0.1115(13) 0.6756(11) 0.9332(13)
Li2_2 Li 0.256(2) 0.585(2) 1.925(2)
Li2C Li -0.244(2) 0.915(2) 1.425(2)
Li2C_2 Li 0.756(2) 0.915(2) 1.425(2)
N7C N 0.4001(15) 0.6728(12) 0.9506(12)
N8_2 N 0.3006(16) 0.5301(14) 0.7758(13)
loop_
_geom_bond_atom_site_label_1
_geom_bond_atom_site_label_2
_geom_bond_site_symmetry_1
_geom_bond_site_symmetry_2
Te1 Te2 1_555 1_555
N1 H1 1_555 1_555
H2 N1 1_555 1_555
N2 H3 1_555 1_555
H4 N2 1_555 1_555
N3 H5 1_555 1_555
H6 N3 1_555 1_555
N4 H7 1_555 1_555
H8 N4 1_555 1_555
N5 H9 1_555 1_555
H10 N5 1_555 1_555
N6 H11 1_555 1_555
H12 N6 1_555 1_555
C1 N5 1_555 1_555
H13 C1 1_555 1_555
H14 C1 1_555 1_555
C2 N3 1_555 1_555
H15 C2 1_555 1_555
H16 C2 1_555 1_555
C3 N1 1_555 1_555
H17 C3 1_555 1_555
H18 C3 1_555 1_555
C4 N2 1_555 1_555
H19 C4 1_555 1_555
H20 C4 1_555 1_555
C5 C4 1_555 1_555
H21 C5 1_555 1_555
H22 C5 1_555 1_555
Li1 N2 1_555 1_555
C6 N6 1_555 1_555
H23 C6 1_555 1_555
H24 C6 1_555 1_555
C7 C6 1_555 1_555
H25 C7 1_555 1_555
H26 C7 1_555 1_555
Li2 N1 1_555 1_555
N7 C7 1_555 1_555
H27 N7 1_555 1_555
H28 N7 1_555 1_555
N8 C5 1_555 1_555
H29 N8 1_555 1_555
H30 N8 1_555 1_555
C8 N4 1_555 1_555
H31 C8 1_555 1_555
H32 C8 1_555 1_555
N4C Li2 1_555 1_555
Li2_2 N8 1_555 1_555
Li2C N7 1_555 1_555
Li2C_2 N4 1_555 1_555
N7C Li2 1_555 1_555
N8_2 Li2 1_555 1_555
N3 Li1 1_555 1_555
N5 Li1 1_555 1_555
N6 Li1 1_555 1_555
C1 C3 1_555 1_555
C2 C8 1_555 1_555

#END
