
#######################################################################
#
#                 Cambridge Crystallographic Data Centre
#                                CCDC 
#
#######################################################################
#
# If this CIF has been generated from an entry in the Cambridge 
# Structural Database, then it will include bibliographic, chemical, 
# crystal, experimental, refinement or atomic coordinate data resulting 
# from the CCDC's data processing and validation procedures.
#
#######################################################################

data_DIYXEQ
_symmetry_cell_setting           monoclinic
_symmetry_space_group_name_H-M   'P 21/c'
_symmetry_Int_Tables_number      14
_space_group_name_Hall           '-P 2ybc'
loop_
_symmetry_equiv_pos_site_id
_symmetry_equiv_pos_as_xyz
1 x,y,z
2 -x,1/2+y,1/2-z
3 -x,-y,-z
4 x,1/2-y,1/2+z
_cell_length_a                   9.2326(4)
_cell_length_b                   19.5608(9)
_cell_length_c                   9.7818(4)
_cell_angle_alpha                90
_cell_angle_beta                 94.494(4)
_cell_angle_gamma                90
_cell_volume                     1761.13
loop_
_atom_site_label
_atom_site_type_symbol
_atom_site_fract_x
_atom_site_fract_y
_atom_site_fract_z
Te1 Te 0.750930(13) 0.373529(6) 0.971098(13)
N1 N 0.62711(19) 0.29861(9) 0.5942(2)
N2 N 0.3726(2) 0.43162(10) 0.05916(18)
N3 N 0.86175(19) 0.30546(10) 0.3499(2)
N4 N 0.8510(2) 0.43009(10) 0.6167(2)
N5 N 1.1152(2) 0.19971(9) 0.4262(2)
N6 N 0.5863(2) 0.39970(10) 0.31489(19)
N7 N 0.39415(19) 0.35357(10) 0.77680(18)
C1 C 0.4649(2) 0.44848(12) 0.3059(2)
C2 C 1.1004(2) 0.24819(11) 0.3107(2)
C3 C 1.0107(2) 0.43363(10) 0.6195(2)
C4 C 0.4693(2) 0.28787(11) 0.5726(2)
N8 N 1.0911(2) 0.46667(10) 0.85654(18)
C5 C 1.0182(2) 0.31374(10) 0.3367(2)
C6 C 1.0833(2) 0.48774(10) 0.7124(2)
C7 C 0.3839(2) 0.34687(11) 0.6280(2)
C8 C 0.3399(2) 0.42831(12) 0.2028(2)
Li1 Li 0.7393(3) 0.36614(17) 0.4738(4)
Li2 Li 0.2370(4) 0.39070(17) 0.9043(4)
H1 H 1.047(2) 0.3898(12) 0.649(2)
H2 H 1.042(2) 0.4415(11) 0.527(2)
H3 H 1.032(3) 0.5327(12) 0.695(2)
H4 H 0.652(3) 0.3063(13) 0.682(3)
H5 H 0.386(3) 0.3107(15) 0.811(3)
H6 H 0.847(3) 0.2640(14) 0.382(2)
H7 H 0.414(2) 0.3904(12) 0.593(2)
H8 H 1.200(3) 0.2606(11) 0.286(2)
H9 H 0.548(3) 0.3587(15) 0.312(3)
H10 H 0.423(3) 0.4503(14) 0.398(3)
H11 H 1.034(3) 0.1819(14) 0.441(3)
H12 H 0.442(3) 0.2817(12) 0.474(3)
H13 H 0.280(2) 0.3417(11) 0.596(2)
H14 H 0.669(3) 0.2600(14) 0.578(3)
H15 H 0.375(3) 0.4749(15) 0.038(3)
H16 H 1.060(3) 0.3330(13) 0.421(3)
H17 H 0.313(3) 0.3826(14) 0.223(2)
H18 H 1.117(3) 0.5006(15) 0.901(3)
H19 H 0.259(3) 0.4571(13) 0.214(2)
H20 H 1.183(3) 0.4946(12) 0.689(2)
H21 H 0.452(3) 0.4170(12) 0.053(2)
H22 H 1.050(3) 0.2245(14) 0.232(3)
H23 H 1.030(3) 0.3469(15) 0.262(3)
H24 H 0.819(3) 0.3075(13) 0.274(3)
H25 H 1.146(3) 0.2240(15) 0.500(3)
H26 H 0.500(3) 0.4927(14) 0.279(3)
H27 H 0.816(3) 0.4719(14) 0.604(3)
H28 H 0.827(3) 0.4186(14) 0.692(3)
H29 H 0.437(3) 0.2434(13) 0.614(3)
H30 H 0.632(3) 0.4024(12) 0.245(3)
H31 H 0.478(3) 0.3652(13) 0.807(3)
H32 H 1.007(3) 0.4548(12) 0.882(2)
N2_2 N 0.3726(2) 0.43162(10) 1.05916(18)
N5C N 0.1152(2) 0.30029(9) 0.9262(2)
N8_2 N 0.0911(2) 0.46667(10) 0.85654(18)
Li2_2 Li 0.2370(4) 0.39070(17) -0.0957(4)
Li2_3 Li 1.2370(4) 0.39070(17) 0.9043(4)
Li2C Li 1.2370(4) 0.10930(17) 0.4043(4)
loop_
_geom_bond_atom_site_label_1
_geom_bond_atom_site_label_2
_geom_bond_site_symmetry_1
_geom_bond_site_symmetry_2
N1 C4 1_555 1_555
N2 C8 1_555 1_555
N3 C5 1_555 1_555
N4 C3 1_555 1_555
N5 C2 1_555 1_555
N6 C1 1_555 1_555
N7 C7 1_555 1_555
C1 C8 1_555 1_555
C2 C5 1_555 1_555
C3 C6 1_555 1_555
C4 C7 1_555 1_555
N8 C6 1_555 1_555
C5 H16 1_555 1_555
C6 H3 1_555 1_555
C7 H7 1_555 1_555
C8 H17 1_555 1_555
Li1 N1 1_555 1_555
Li2 N7 1_555 1_555
H1 C3 1_555 1_555
H2 C3 1_555 1_555
H4 N1 1_555 1_555
H5 N7 1_555 1_555
H6 N3 1_555 1_555
H8 C2 1_555 1_555
H9 N6 1_555 1_555
H10 C1 1_555 1_555
H11 N5 1_555 1_555
H12 C4 1_555 1_555
H13 C7 1_555 1_555
H14 N1 1_555 1_555
H15 N2 1_555 1_555
H18 N8 1_555 1_555
H19 C8 1_555 1_555
H20 C6 1_555 1_555
H21 N2 1_555 1_555
H22 C2 1_555 1_555
H23 C5 1_555 1_555
H24 N3 1_555 1_555
H25 N5 1_555 1_555
H26 C1 1_555 1_555
H27 N4 1_555 1_555
H28 N4 1_555 1_555
H29 C4 1_555 1_555
H30 N6 1_555 1_555
H31 N7 1_555 1_555
H32 N8 1_555 1_555
N2_2 Li2 1_555 1_555
N5C Li2 1_555 1_555
N8_2 Li2 1_555 1_555
Li2_2 N2 1_555 1_555
Li2_3 N8 1_555 1_555
Li2C N5 1_555 1_555
N3 Li1 1_555 1_555
N4 Li1 1_555 1_555
N6 Li1 1_555 1_555

#END
