
#######################################################################
#
#                 Cambridge Crystallographic Data Centre
#                                CCDC 
#
#######################################################################
#
# If this CIF has been generated from an entry in the Cambridge 
# Structural Database, then it will include bibliographic, chemical, 
# crystal, experimental, refinement or atomic coordinate data resulting 
# from the CCDC's data processing and validation procedures.
#
#######################################################################

data_DIZCUM
_symmetry_cell_setting           monoclinic
_symmetry_space_group_name_H-M   'C 2/c'
_symmetry_Int_Tables_number      15
_space_group_name_Hall           '-C 2yn'
loop_
_symmetry_equiv_pos_site_id
_symmetry_equiv_pos_as_xyz
1 x,y,z
2 -x,y,1/2-z
3 1/2+x,1/2+y,z
4 1/2-x,1/2+y,1/2-z
5 -x,-y,-z
6 x,-y,1/2+z
7 1/2-x,1/2-y,-z
8 1/2+x,1/2-y,1/2+z
_cell_length_a                   12.6755(5)
_cell_length_b                   16.9830(6)
_cell_length_c                   20.7087(11)
_cell_angle_alpha                90
_cell_angle_beta                 103.418(2)
_cell_angle_gamma                90
_cell_volume                     4336.23
loop_
_atom_site_label
_atom_site_type_symbol
_atom_site_fract_x
_atom_site_fract_y
_atom_site_fract_z
Cd1 Cd 0.84543(2) 0.093265(15) 0.705209(14)
N1 N 0.7909(3) 0.20629(17) 0.75469(17)
N2 N 0.9184(2) 0.20649(17) 0.66770(16)
O1 O -0.0745(2) -0.00192(14) 0.65946(14)
O2 O 0.0934(2) 0.04354(15) 0.69253(14)
O3 O 0.7002(2) 0.09781(17) 0.61049(15)
O4 O 0.6680(2) 0.04406(15) 0.70090(15)
O5 O 0.11040(19) 0.03006(16) 0.55412(13)
C1 C 0.0250(3) -0.0032(2) 0.66114(19)
C2 C 0.0626(3) -0.0665(2) 0.6216(2)
C3 C 0.1116(3) -0.0485(2) 0.5699(2)
C4 C 0.1538(3) -0.1071(3) 0.5364(2)
H1 H 0.1873 -0.0948 0.5022
C5 C 0.1444(4) -0.1846(3) 0.5556(3)
H2 H 0.1726 -0.2244 0.5337
C6 C 0.0957(4) -0.2044(3) 0.6050(3)
H3 H 0.0899 -0.2568 0.6166
C7 C 0.0546(3) -0.1449(2) 0.6379(2)
H4 H 0.0208 -0.1580 0.6718
C8 C 0.6371(3) 0.0690(2) 0.6421(2)
C9 C 0.5183(3) 0.0676(2) 0.6094(2)
C10 C 0.4419(3) 0.0470(2) 0.64471(19)
H5 H 0.4646 0.0354 0.6897
C11 C 0.3323(3) 0.0435(2) 0.61435(19)
H6 H 0.2823 0.0306 0.6391
C12 C 0.2977(3) 0.0591(2) 0.54779(19)
C13 C 0.3737(3) 0.0787(3) 0.5125(2)
H7 H 0.3514 0.0893 0.4673
C14 C 0.4826(3) 0.0829(3) 0.5435(2)
H8 H 0.5325 0.0964 0.5188
C15 C 0.1781(3) 0.0577(3) 0.5126(2)
H9 H 0.1556 0.1104 0.4974
H10 H 0.1685 0.0239 0.4739
C16 C 0.7297(4) 0.2027(3) 0.7987(3)
H11 H 0.7082 0.1533 0.8103
C17 C 0.6967(4) 0.2672(3) 0.8280(3)
H12 H 0.6553 0.2621 0.8594
C18 C 0.7263(4) 0.3394(3) 0.8096(3)
H13 H 0.7037 0.3847 0.8279
C19 C 0.7891(3) 0.3453(2) 0.7645(2)
H14 H 0.8104 0.3944 0.7522
C20 C 0.8212(3) 0.2768(2) 0.7370(2)
C21 C 0.8876(3) 0.2768(2) 0.68698(19)
C22 C 0.9159(4) 0.3458(2) 0.6602(2)
H15 H 0.8939 0.3941 0.6737
C23 C 0.9764(4) 0.3426(3) 0.6137(2)
H16 H 0.9972 0.3890 0.5962
C24 C 1.0064(4) 0.2718(3) 0.5926(2)
H17 H 1.0457 0.2687 0.5600
C25 C 0.9764(3) 0.2047(2) 0.6215(2)
H18 H 0.9975 0.1560 0.6081
Cd1_2 Cd -0.15457(2) 0.093265(15) 0.705209(14)
Cd1A Cd 0.15457(2) 0.093265(15) 0.794791(14)
O1_2 O 0.9255(2) -0.00192(14) 0.65946(14)
O2A O 0.9066(2) 0.04354(15) 0.80747(14)
loop_
_geom_bond_atom_site_label_1
_geom_bond_atom_site_label_2
_geom_bond_site_symmetry_1
_geom_bond_site_symmetry_2
Cd1 N1 1_555 1_555
N1 C16 1_555 1_555
N2 Cd1 1_555 1_555
O1 C1 1_555 1_555
O2 C1 1_555 1_555
O3 Cd1 1_555 1_555
O4 Cd1 1_555 1_555
O5 C3 1_555 1_555
C1 C2 1_555 1_555
C2 C3 1_555 1_555
C3 C4 1_555 1_555
C4 H1 1_555 1_555
C5 C4 1_555 1_555
H2 C5 1_555 1_555
C6 C5 1_555 1_555
H3 C6 1_555 1_555
C7 C2 1_555 1_555
H4 C7 1_555 1_555
C8 O3 1_555 1_555
C9 C8 1_555 1_555
C10 C9 1_555 1_555
H5 C10 1_555 1_555
C11 C10 1_555 1_555
H6 C11 1_555 1_555
C12 C11 1_555 1_555
C13 C12 1_555 1_555
H7 C13 1_555 1_555
C14 C9 1_555 1_555
H8 C14 1_555 1_555
C15 O5 1_555 1_555
H9 C15 1_555 1_555
H10 C15 1_555 1_555
C16 H11 1_555 1_555
C17 C16 1_555 1_555
H12 C17 1_555 1_555
C18 C17 1_555 1_555
H13 C18 1_555 1_555
C19 C18 1_555 1_555
H14 C19 1_555 1_555
C20 N1 1_555 1_555
C21 N2 1_555 1_555
C22 C21 1_555 1_555
H15 C22 1_555 1_555
C23 C22 1_555 1_555
H16 C23 1_555 1_555
C24 C23 1_555 1_555
H17 C24 1_555 1_555
C25 N2 1_555 1_555
H18 C25 1_555 1_555
Cd1_2 O1 1_555 1_555
Cd1A O2 1_555 1_555
O1_2 Cd1 1_555 1_555
O2A Cd1 1_555 1_555
O4 C8 1_555 1_555
C6 C7 1_555 1_555
C12 C15 1_555 1_555
C13 C14 1_555 1_555
C19 C20 1_555 1_555
C20 C21 1_555 1_555
C24 C25 1_555 1_555

#END
