
#######################################################################
#
#                 Cambridge Crystallographic Data Centre
#                                CCDC 
#
#######################################################################
#
# If this CIF has been generated from an entry in the Cambridge 
# Structural Database, then it will include bibliographic, chemical, 
# crystal, experimental, refinement or atomic coordinate data resulting 
# from the CCDC's data processing and validation procedures.
#
#######################################################################

data_DIZCIA
_symmetry_cell_setting           monoclinic
_symmetry_space_group_name_H-M   'C 2/c'
_symmetry_Int_Tables_number      15
_space_group_name_Hall           '-C 2yn'
loop_
_symmetry_equiv_pos_site_id
_symmetry_equiv_pos_as_xyz
1 x,y,z
2 -x,y,1/2-z
3 1/2+x,1/2+y,z
4 1/2-x,1/2+y,1/2-z
5 -x,-y,-z
6 x,-y,1/2+z
7 1/2-x,1/2-y,-z
8 1/2+x,1/2-y,1/2+z
_cell_length_a                   35.083(3)
_cell_length_b                   7.2940(5)
_cell_length_c                   19.1329(17)
_cell_angle_alpha                90
_cell_angle_beta                 109.888(2)
_cell_angle_gamma                90
_cell_volume                     4604.02
loop_
_atom_site_label
_atom_site_type_symbol
_atom_site_fract_x
_atom_site_fract_y
_atom_site_fract_z
Co1 Co 0.089465(18) 0.23400(8) 0.14310(3)
N1 N 0.06432(11) 0.1654(5) 0.0275(2)
N2 N 0.02769(11) 0.3194(5) 0.1107(2)
O1 O 0.14169(8) 0.0862(4) 0.15302(18)
O2 O 0.11959(9) -0.2018(4) 0.1486(2)
O3 O 0.10719(10) 0.6217(4) -0.25930(18)
O4 O 0.12019(11) 0.8419(5) -0.17464(19)
O5 O 0.18954(9) 0.0572(5) 0.0604(2)
O6 O 0.11899(10) 0.4479(5) 0.10351(18)
H1 H 0.1237 0.5544 0.1226
H2 H 0.1398 0.3811 0.1223
O7 O 0.07202(9) 0.0076(5) 0.2006(2)
H3 H 0.0838 -0.0839 0.1892
H4 H 0.0869 0.0513 0.2421
C1 C 0.14617(13) -0.0841(6) 0.1500(3)
C2 C 0.18665(13) -0.1558(6) 0.1516(2)
C3 C 0.20845(13) -0.0773(6) 0.1101(3)
C4 C 0.24725(14) -0.1404(7) 0.1192(3)
H5 H 0.2619 -0.0859 0.0924
C5 C 0.26418(15) -0.2815(7) 0.1669(3)
H6 H 0.2903 -0.3216 0.1728
C6 C 0.24237(15) -0.3641(7) 0.2063(3)
H7 H 0.2534 -0.4611 0.2384
C7 C 0.20391(14) -0.3006(6) 0.1975(3)
H8 H 0.1892 -0.3578 0.2235
C8 C 0.12176(13) 0.6803(7) -0.1938(3)
C9 C 0.14361(12) 0.5445(7) -0.1341(3)
C10 C 0.16217(14) 0.5990(7) -0.0612(3)
H9 H 0.1606 0.7207 -0.0480
C11 C 0.18320(15) 0.4729(9) -0.0074(3)
H10 H 0.1951 0.5097 0.0418
C12 C 0.18643(15) 0.2926(8) -0.0272(3)
C13 C 0.16730(16) 0.2381(7) -0.0986(3)
H11 H 0.1688 0.1161 -0.1116
C14 C 0.14563(14) 0.3620(7) -0.1521(3)
H12 H 0.1323 0.3223 -0.2005
C15 C 0.21284(17) 0.1610(9) 0.0292(4)
H13 H 0.2267 0.0804 0.0054
H14 H 0.2331 0.2287 0.0679
C16 C 0.08563(15) 0.1044(7) -0.0143(3)
H15 H 0.1133 0.0841 0.0085
C17 C 0.06842(18) 0.0705(7) -0.0896(3)
H16 H 0.0841 0.0290 -0.1170
C18 C 0.02787(17) 0.0994(7) -0.1225(3)
H17 H 0.0153 0.0739 -0.1727
C19 C 0.00556(16) 0.1661(7) -0.0816(3)
H18 H -0.0221 0.1876 -0.1040
C20 C 0.02469(14) 0.2013(6) -0.0063(3)
C21 C 0.00373(13) 0.2798(6) 0.0410(3)
C22 C -0.03719(14) 0.3160(7) 0.0169(3)
H19 H -0.0531 0.2895 -0.0319
C23 C -0.05465(17) 0.3913(8) 0.0645(4)
H20 H -0.0823 0.4167 0.0485
C24 C -0.03086(17) 0.4278(8) 0.1354(4)
H21 H -0.0420 0.4770 0.1691
C25 C 0.01018(17) 0.3908(8) 0.1569(3)
H22 H 0.0264 0.4165 0.2055
Co1E Co 0.089465(18) 0.76600(8) -0.35690(3)
O3E O 0.10719(10) 0.3783(4) 0.24070(18)
loop_
_geom_bond_atom_site_label_1
_geom_bond_atom_site_label_2
_geom_bond_site_symmetry_1
_geom_bond_site_symmetry_2
Co1 N1 1_555 1_555
N1 C16 1_555 1_555
N2 Co1 1_555 1_555
O1 Co1 1_555 1_555
O2 C1 1_555 1_555
O3 C8 1_555 1_555
O4 C8 1_555 1_555
O5 C3 1_555 1_555
O6 Co1 1_555 1_555
H1 O6 1_555 1_555
H2 O6 1_555 1_555
O7 Co1 1_555 1_555
H3 O7 1_555 1_555
H4 O7 1_555 1_555
C1 O1 1_555 1_555
C2 C1 1_555 1_555
C3 C2 1_555 1_555
C4 C3 1_555 1_555
H5 C4 1_555 1_555
C5 C4 1_555 1_555
H6 C5 1_555 1_555
C6 C5 1_555 1_555
H7 C6 1_555 1_555
C7 C2 1_555 1_555
H8 C7 1_555 1_555
C8 C9 1_555 1_555
C9 C10 1_555 1_555
C10 H9 1_555 1_555
C11 C10 1_555 1_555
H10 C11 1_555 1_555
C12 C11 1_555 1_555
C13 C12 1_555 1_555
H11 C13 1_555 1_555
C14 C9 1_555 1_555
H12 C14 1_555 1_555
C15 O5 1_555 1_555
H13 C15 1_555 1_555
H14 C15 1_555 1_555
C16 H15 1_555 1_555
C17 C16 1_555 1_555
H16 C17 1_555 1_555
C18 C17 1_555 1_555
H17 C18 1_555 1_555
C19 C18 1_555 1_555
H18 C19 1_555 1_555
C20 N1 1_555 1_555
C21 N2 1_555 1_555
C22 C21 1_555 1_555
H19 C22 1_555 1_555
C23 C22 1_555 1_555
H20 C23 1_555 1_555
C24 C23 1_555 1_555
H21 C24 1_555 1_555
C25 N2 1_555 1_555
H22 C25 1_555 1_555
Co1E O3 1_555 1_555
O3E Co1 1_555 1_555
C6 C7 1_555 1_555
C12 C15 1_555 1_555
C13 C14 1_555 1_555
C19 C20 1_555 1_555
C20 C21 1_555 1_555
C24 C25 1_555 1_555

#END
