
#######################################################################
#
#                 Cambridge Crystallographic Data Centre
#                                CCDC 
#
#######################################################################
#
# If this CIF has been generated from an entry in the Cambridge 
# Structural Database, then it will include bibliographic, chemical, 
# crystal, experimental, refinement or atomic coordinate data resulting 
# from the CCDC's data processing and validation procedures.
#
#######################################################################

data_DIZCIZ
_symmetry_cell_setting           triclinic
_symmetry_space_group_name_H-M   'P -1'
_symmetry_Int_Tables_number      2
_space_group_name_Hall           '-P 1'
loop_
_symmetry_equiv_pos_site_id
_symmetry_equiv_pos_as_xyz
1 x,y,z
2 -x,-y,-z
_cell_length_a                   9.8351(1)
_cell_length_b                   11.6698(3)
_cell_length_c                   12.3197(2)
_cell_angle_alpha                98.058(1)
_cell_angle_beta                 112.390(1)
_cell_angle_gamma                102.002(1)
_cell_volume                     1240.61
loop_
_atom_site_label
_atom_site_type_symbol
_atom_site_fract_x
_atom_site_fract_y
_atom_site_fract_z
Mn1 Mn 0.65489(6) 0.72545(5) 0.76383(5)
Mn2 Mn 0.5000 0.5000 0.5000
O1 O 0.6280(3) 0.5718(2) 0.8314(3)
O2 O 0.5348(3) 0.4337(2) 0.6575(2)
O3 O 0.4303(3) -0.0547(3) 0.8172(3)
H1 H 0.407(7) -0.133(2) 0.785(5)
O4 O 0.3597(4) 0.0001(3) 0.6437(3)
O5 O 0.3624(3) 0.6057(3) 0.5341(3)
O6 O 0.4138(3) 0.7261(2) 0.7086(2)
O7 O -0.0867(3) 0.7077(2) 0.7696(2)
O8 O -0.3022(3) 0.6650(2) 0.6071(2)
N1 N 0.7196(3) 0.9182(3) 0.7514(3)
N2 N 0.7677(3) 0.8389(3) 0.9531(3)
C1 C 0.4815(4) 0.1534(3) 0.8255(3)
C2 C 0.4925(4) 0.2457(3) 0.7673(3)
H4 H 0.4565 0.2273 0.6835
C3 C 0.5567(4) 0.3657(3) 0.8325(3)
C4 C 0.6056(5) 0.3917(4) 0.9570(4)
H5 H 0.6457 0.4717 1.0013
C5 C 0.5955(5) 0.3003(4) 1.0155(4)
H6 H 0.6294 0.3186 1.0992
C6 C 0.5351(4) 0.1817(4) 0.9501(4)
H7 H 0.5304 0.1201 0.9901
C7 C 0.5744(4) 0.4646(3) 0.7689(4)
C8 C 0.4169(4) 0.0269(4) 0.7519(4)
C9 C 0.1561(4) 0.6643(3) 0.5530(3)
C10 C 0.0831(4) 0.6817(3) 0.6283(3)
H8 H 0.1386 0.6991 0.7118
C11 C -0.0731(4) 0.6731(3) 0.5792(3)
C12 C -0.1523(4) 0.6529(3) 0.4540(3)
H9 H -0.2552 0.6512 0.4204
C13 C -0.0796(4) 0.6357(4) 0.3802(4)
H10 H -0.1334 0.6220 0.2969
C14 C 0.0733(4) 0.6388(3) 0.4294(3)
H11 H 0.1207 0.6234 0.3787
C15 C 0.3215(4) 0.6647(3) 0.6014(4)
C16 C -0.1568(4) 0.6817(3) 0.6576(3)
C17 C 0.6971(5) 0.9529(4) 0.6492(4)
H12 H 0.6559 0.8937 0.5773
C18 C 0.7316(5) 1.0720(4) 0.6442(5)
H13 H 0.7143 1.0931 0.5711
C19 C 0.7924(5) 1.1584(4) 0.7508(5)
H14 H 0.8165 1.2397 0.7506
C20 C 0.8178(5) 1.1256(4) 0.8575(4)
H15 H 0.8600 1.1842 0.9299
C21 C 0.7800(4) 1.0038(3) 0.8568(4)
C22 C 0.8037(4) 0.9603(3) 0.9678(4)
C23 C 0.8624(4) 1.0371(4) 1.0819(4)
H16 H 0.8855 1.1203 1.0909
C24 C 0.8862(4) 0.9900(4) 1.1811(4)
H17 H 0.9252 1.0411 1.2577
C25 C 0.8526(5) 0.8680(4) 1.1672(4)
H18 H 0.8701 0.8347 1.2339
C26 C 0.7921(4) 0.7952(4) 1.0519(4)
H19 H 0.7669 0.7119 1.0421
Mn1A Mn 0.34511(6) 0.27455(5) 0.23617(5)
Mn1_2 Mn -0.34511(6) 0.72545(5) 0.76383(5)
Mn1A_2 Mn 1.34511(6) 0.27455(5) 0.23617(5)
Mn2_2 Mn -0.5000 0.5000 0.5000
Mn2_3 Mn 1.5000 0.5000 0.5000
O1A O 0.3720(3) 0.4282(2) 0.1686(3)
O2A O 0.4652(3) 0.5663(2) 0.3425(2)
O3A O 0.5697(3) 1.0547(3) 0.1828(3)
H1A H 0.593(7) 1.133(2) 0.215(5)
O4A O 0.6403(4) 0.9999(3) 0.3563(3)
O5A O 0.6376(3) 0.3943(3) 0.4659(3)
O6A O 0.5862(3) 0.2739(2) 0.2914(2)
O7A O 1.0867(3) 0.2923(2) 0.2304(2)
O8A O 1.3022(3) 0.3350(2) 0.3929(2)
O8_2 O 0.6978(3) 0.6650(2) 0.6071(2)
O8A_2 O 0.3022(3) 0.3350(2) 0.3929(2)
N1A N 0.2804(3) 0.0818(3) 0.2486(3)
N2A N 0.2323(3) 0.1611(3) 0.0469(3)
C1A C 0.5185(4) 0.8466(3) 0.1745(3)
C2A C 0.5075(4) 0.7543(3) 0.2327(3)
H4A H 0.5435 0.7727 0.3165
C3A C 0.4433(4) 0.6343(3) 0.1675(3)
C4A C 0.3944(5) 0.6083(4) 0.0430(4)
H5A H 0.3543 0.5283 -0.0013
C5A C 0.4045(5) 0.6997(4) -0.0155(4)
H6A H 0.3706 0.6814 -0.0992
C6A C 0.4649(4) 0.8183(4) 0.0499(4)
H7A H 0.4696 0.8799 0.0099
C7A C 0.4256(4) 0.5354(3) 0.2311(4)
C8A C 0.5831(4) 0.9731(4) 0.2481(4)
C9A C 0.8439(4) 0.3357(3) 0.4470(3)
C10A C 0.9169(4) 0.3183(3) 0.3717(3)
H8A H 0.8614 0.3009 0.2882
C11A C 1.0731(4) 0.3269(3) 0.4208(3)
C12A C 1.1523(4) 0.3471(3) 0.5460(3)
H9A H 1.2552 0.3488 0.5796
C13A C 1.0796(4) 0.3643(4) 0.6198(4)
H10A H 1.1334 0.3780 0.7031
C14A C 0.9267(4) 0.3612(3) 0.5706(3)
H11A H 0.8793 0.3766 0.6213
C15A C 0.6785(4) 0.3353(3) 0.3986(4)
C16A C 1.1568(4) 0.3183(3) 0.3424(3)
C17A C 0.3029(5) 0.0471(4) 0.3508(4)
H12A H 0.3441 0.1063 0.4227
C18A C 0.2684(5) -0.0720(4) 0.3558(5)
H13A H 0.2857 -0.0931 0.4289
C19A C 0.2076(5) -0.1584(4) 0.2492(5)
H14A H 0.1835 -0.2397 0.2494
C20A C 0.1822(5) -0.1256(4) 0.1425(4)
H15A H 0.1400 -0.1842 0.0701
C21A C 0.2200(4) -0.0038(3) 0.1432(4)
C22A C 0.1963(4) 0.0397(3) 0.0322(4)
C23A C 0.1376(4) -0.0371(4) -0.0819(4)
H16A H 0.1145 -0.1203 -0.0909
C24A C 0.1138(4) 0.0100(4) -0.1811(4)
H17A H 0.0748 -0.0411 -0.2577
C25A C 0.1474(5) 0.1320(4) -0.1672(4)
H18A H 0.1299 0.1653 -0.2339
C26A C 0.2079(4) 0.2048(4) -0.0519(4)
H19A H 0.2331 0.2881 -0.0421
O9 O -0.0243(7) 0.4931(6) 0.8787(7)
H2 H -0.0405 0.5566 0.8537
H3 H 0.0501 0.4741 0.9368
O10 O 0.0000 0.0000 0.5000
loop_
_geom_bond_atom_site_label_1
_geom_bond_atom_site_label_2
_geom_bond_site_symmetry_1
_geom_bond_site_symmetry_2
Mn1 O1 1_555 1_555
Mn2 O2 1_555 1_555
O1 C7 1_555 1_555
O2 C7 1_555 1_555
O3 H1 1_555 1_555
O4 C8 1_555 1_555
O5 Mn2 1_555 1_555
O6 Mn1 1_555 1_555
O7 C16 1_555 1_555
O8 C16 1_555 1_555
O9 H2 1_555 1_555
H3 O9 1_555 1_555
N1 Mn1 1_555 1_555
N2 Mn1 1_555 1_555
C1 C2 1_555 1_555
C2 H4 1_555 1_555
C3 C2 1_555 1_555
C4 C3 1_555 1_555
H5 C4 1_555 1_555
C5 C4 1_555 1_555
H6 C5 1_555 1_555
C6 C1 1_555 1_555
H7 C6 1_555 1_555
C7 C3 1_555 1_555
C8 O3 1_555 1_555
C9 C10 1_555 1_555
C10 H8 1_555 1_555
C11 C10 1_555 1_555
C12 C11 1_555 1_555
H9 C12 1_555 1_555
C13 C12 1_555 1_555
H10 C13 1_555 1_555
C14 C9 1_555 1_555
H11 C14 1_555 1_555
C15 O5 1_555 1_555
C16 C11 1_555 1_555
C17 N1 1_555 1_555
H12 C17 1_555 1_555
C18 C17 1_555 1_555
H13 C18 1_555 1_555
C19 C18 1_555 1_555
H14 C19 1_555 1_555
C20 C19 1_555 1_555
H15 C20 1_555 1_555
C21 N1 1_555 1_555
C22 N2 1_555 1_555
C23 C22 1_555 1_555
H16 C23 1_555 1_555
C24 C23 1_555 1_555
H17 C24 1_555 1_555
C25 C24 1_555 1_555
H18 C25 1_555 1_555
C26 N2 1_555 1_555
H19 C26 1_555 1_555
Mn1A O1A 1_555 1_555
Mn1_2 O8 1_555 1_555
Mn1A_2 O8A 1_555 1_555
Mn2_2 O8 1_555 1_555
Mn2_3 O8A 1_555 1_555
O1A C7A 1_555 1_555
O2A Mn2 1_555 1_555
O3A H1A 1_555 1_555
O4A C8A 1_555 1_555
O5A Mn2 1_555 1_555
O6A Mn1A 1_555 1_555
O7A C16A 1_555 1_555
O8A C16A 1_555 1_555
O8_2 Mn1 1_555 1_555
O8A_2 Mn2 1_555 1_555
N1A Mn1A 1_555 1_555
N2A Mn1A 1_555 1_555
C1A C2A 1_555 1_555
C2A H4A 1_555 1_555
C3A C2A 1_555 1_555
C4A C3A 1_555 1_555
H5A C4A 1_555 1_555
C5A C4A 1_555 1_555
H6A C5A 1_555 1_555
C6A C1A 1_555 1_555
H7A C6A 1_555 1_555
C7A O2A 1_555 1_555
C8A O3A 1_555 1_555
C9A C10A 1_555 1_555
C10A H8A 1_555 1_555
C11A C10A 1_555 1_555
C12A C11A 1_555 1_555
H9A C12A 1_555 1_555
C13A C12A 1_555 1_555
H10A C13A 1_555 1_555
C14A C9A 1_555 1_555
H11A C14A 1_555 1_555
C15A O5A 1_555 1_555
C16A C11A 1_555 1_555
C17A N1A 1_555 1_555
H12A C17A 1_555 1_555
C18A C17A 1_555 1_555
H13A C18A 1_555 1_555
C19A C18A 1_555 1_555
H14A C19A 1_555 1_555
C20A C19A 1_555 1_555
H15A C20A 1_555 1_555
C21A N1A 1_555 1_555
C22A N2A 1_555 1_555
C23A C22A 1_555 1_555
H16A C23A 1_555 1_555
C24A C23A 1_555 1_555
H17A C24A 1_555 1_555
C25A C24A 1_555 1_555
H18A C25A 1_555 1_555
C26A N2A 1_555 1_555
H19A C26A 1_555 1_555
Mn2 O8_2 1_555 1_555
O6 C15 1_555 1_555
C1 C8 1_555 1_555
C5 C6 1_555 1_555
C9 C15 1_555 1_555
C13 C14 1_555 1_555
C20 C21 1_555 1_555
C21 C22 1_555 1_555
C25 C26 1_555 1_555
Mn1A O8A_2 1_555 1_555
O6A C15A 1_555 1_555
C1A C8A 1_555 1_555
C3A C7A 1_555 1_555
C5A C6A 1_555 1_555
C9A C15A 1_555 1_555
C13A C14A 1_555 1_555
C20A C21A 1_555 1_555
C21A C22A 1_555 1_555
C25A C26A 1_555 1_555

#END
