
#######################################################################
#
#                 Cambridge Crystallographic Data Centre
#                                CCDC 
#
#######################################################################
#
# If this CIF has been generated from an entry in the Cambridge 
# Structural Database, then it will include bibliographic, chemical, 
# crystal, experimental, refinement or atomic coordinate data resulting 
# from the CCDC's data processing and validation procedures.
#
#######################################################################

data_DIZDAT
_symmetry_cell_setting           monoclinic
_symmetry_space_group_name_H-M   'C 2/c'
_symmetry_Int_Tables_number      15
_space_group_name_Hall           '-C 2yn'
loop_
_symmetry_equiv_pos_site_id
_symmetry_equiv_pos_as_xyz
1 x,y,z
2 -x,y,1/2-z
3 1/2+x,1/2+y,z
4 1/2-x,1/2+y,1/2-z
5 -x,-y,-z
6 x,-y,1/2+z
7 1/2-x,1/2-y,-z
8 1/2+x,1/2-y,1/2+z
_cell_length_a                   31.684(4)
_cell_length_b                   10.0017(12)
_cell_length_c                   13.3763(17)
_cell_angle_alpha                90
_cell_angle_beta                 106.607(3)
_cell_angle_gamma                90
_cell_volume                     4062.05
loop_
_atom_site_label
_atom_site_type_symbol
_atom_site_fract_x
_atom_site_fract_y
_atom_site_fract_z
Pb1 Pb 0.246458(6) 0.173727(18) 0.145186(14)
O1 O 0.25334(11) 0.3851(4) 0.2849(3)
O2 O 0.31156(14) 0.4457(4) 0.4065(3)
O3 O 0.31327(13) 0.2684(4) 0.3115(3)
S1 S 0.28856(7) 0.62536(16) 0.14398(14)
N1 N 0.27171(15) 0.3704(4) 0.0582(3)
N2 N 0.32135(14) 0.0794(4) 0.1275(3)
N3 N 0.47606(14) -0.0265(5) 0.1227(4)
N4 N 0.51267(14) -0.1056(5) 0.1194(4)
N5 N 0.66835(15) -0.2045(5) 0.1146(4)
N6 N 0.29283(15) 0.3666(5) 0.3344(4)
C1 C 0.27902(17) 0.4779(5) 0.0950(4)
C2 C 0.32388(17) -0.0517(5) 0.1069(4)
H1 H 0.2978 -0.1041 0.0917
C3 C 0.36313(18) -0.1126(5) 0.1070(4)
H2 H 0.3641 -0.2061 0.0955
C4 C 0.40126(17) -0.0352(6) 0.1243(4)
C5 C 0.39838(17) 0.1002(5) 0.1446(4)
H3 H 0.4238 0.1554 0.1579
C6 C 0.35808(17) 0.1540(5) 0.1452(4)
H4 H 0.3564 0.2469 0.1585
C7 C 0.44266(18) -0.0993(6) 0.1204(4)
H5 H 0.4445 -0.1938 0.1161
C8 C 0.54528(17) -0.0310(6) 0.1190(4)
H6 H 0.5426 0.0635 0.1203
C9 C 0.58750(17) -0.0935(6) 0.1165(4)
C10 C 0.59274(18) -0.2305(6) 0.1114(5)
H7 H 0.5688 -0.2891 0.1087
C11 C 0.63281(19) -0.2804(6) 0.1104(5)
H8 H 0.6358 -0.3747 0.1065
C12 C 0.66365(17) -0.0707(5) 0.1223(4)
H9 H 0.6885 -0.0151 0.1278
C13 C 0.62403(16) -0.0110(6) 0.1226(4)
H10 H 0.6217 0.0834 0.1269
Pb1B Pb 0.746458(6) -0.326273(18) 0.145186(14)
Pb1C Pb 0.253542(6) 0.673727(18) 0.354814(14)
Pb1F Pb 0.253542(6) 0.326273(18) -0.145186(14)
O2C O 0.18844(14) -0.0543(4) 0.0935(3)
N1F N 0.22829(15) 0.1296(4) -0.0582(3)
N5B N 0.16835(15) 0.2955(5) 0.1146(4)
O4 O 0.3978(3) 0.3997(8) 0.5173(7)
H11 H 0.4182 0.4041 0.4889
C14 C 0.4091(4) 0.4839(10) 0.6130(9)
H12 H 0.3993 0.4390 0.6677
H13 H 0.3943 0.5707 0.5972
H14 H 0.4410 0.4975 0.6372
O5 O 0.5654(4) 0.3174(9) 0.1366(10)
H15 H 0.5812 0.3849 0.1573
C15 C 0.5210(4) 0.3538(16) 0.1134(12)
H16 H 0.5114 0.3484 0.1769
H17 H 0.5032 0.2929 0.0606
H18 H 0.5172 0.4455 0.0866
loop_
_geom_bond_atom_site_label_1
_geom_bond_atom_site_label_2
_geom_bond_site_symmetry_1
_geom_bond_site_symmetry_2
Pb1 O1 1_555 1_555
O1 N6 1_555 1_555
O2 N6 1_555 1_555
O3 Pb1 1_555 1_555
S1 C1 1_555 1_555
N1 Pb1 1_555 1_555
N2 Pb1 1_555 1_555
N3 N4 1_555 1_555
N4 C8 1_555 1_555
N5 C11 1_555 1_555
N6 O3 1_555 1_555
C1 N1 1_555 1_555
C2 N2 1_555 1_555
H1 C2 1_555 1_555
C3 C2 1_555 1_555
H2 C3 1_555 1_555
C4 C3 1_555 1_555
C5 C4 1_555 1_555
H3 C5 1_555 1_555
C6 N2 1_555 1_555
H4 C6 1_555 1_555
C7 N3 1_555 1_555
H5 C7 1_555 1_555
C8 H6 1_555 1_555
C9 C8 1_555 1_555
C10 C9 1_555 1_555
H7 C10 1_555 1_555
C11 C10 1_555 1_555
H8 C11 1_555 1_555
C12 N5 1_555 1_555
H9 C12 1_555 1_555
C13 C9 1_555 1_555
H10 C13 1_555 1_555
O4 H11 1_555 1_555
C14 O4 1_555 1_555
H12 C14 1_555 1_555
H13 C14 1_555 1_555
H14 C14 1_555 1_555
O5 H15 1_555 1_555
C15 O5 1_555 1_555
H16 C15 1_555 1_555
H17 C15 1_555 1_555
H18 C15 1_555 1_555
Pb1B N5 1_555 1_555
Pb1C O2 1_555 1_555
Pb1F N1 1_555 1_555
O2C Pb1 1_555 1_555
N1F Pb1 1_555 1_555
N5B Pb1 1_555 1_555
C4 C7 1_555 1_555
C5 C6 1_555 1_555
C12 C13 1_555 1_555
Pb1F N1F 1_555 1_555

#END
