
#######################################################################
#
#                 Cambridge Crystallographic Data Centre
#                                CCDC 
#
#######################################################################
#
# If this CIF has been generated from an entry in the Cambridge 
# Structural Database, then it will include bibliographic, chemical, 
# crystal, experimental, refinement or atomic coordinate data resulting 
# from the CCDC's data processing and validation procedures.
#
#######################################################################

data_DIZGOK
_symmetry_cell_setting           triclinic
_symmetry_space_group_name_H-M   'P -1'
_symmetry_Int_Tables_number      2
_space_group_name_Hall           '-P 1'
loop_
_symmetry_equiv_pos_site_id
_symmetry_equiv_pos_as_xyz
1 x,y,z
2 -x,-y,-z
_cell_length_a                   13.0400(8)
_cell_length_b                   13.9500(11)
_cell_length_c                   22.5400(15)
_cell_angle_alpha                107.566(7)
_cell_angle_beta                 96.682(5)
_cell_angle_gamma                96.412(6)
_cell_volume                     3835.52
loop_
_atom_site_label
_atom_site_type_symbol
_atom_site_fract_x
_atom_site_fract_y
_atom_site_fract_z
Ag1 Ag 0.02725(8) 0.19516(7) 0.16473(4)
Ag2 Ag 0.23951(6) 0.40585(5) 0.17049(3)
Ag3 Ag 0.18521(5) 0.47699(6) 0.05807(3)
Ag4 Ag 0.17634(7) 0.86086(6) 0.38438(4)
Ag5 Ag -0.08102(6) 0.69284(7) 0.33174(3)
Ag6 Ag -0.12838(6) 0.56272(6) 0.41540(3)
C1 C 0.0602(7) 0.4724(7) 0.2921(4)
C2 C 0.1603(7) 0.5311(7) 0.3053(4)
C3 C 0.1821(7) 0.5977(7) 0.2728(4)
C4 C 0.1011(7) 0.6123(7) 0.2284(4)
C5 C 0.0071(7) 0.5471(7) 0.2133(4)
C6 C -0.0144(7) 0.4771(7) 0.2457(4)
C7 C 0.03530(9) 0.4076(3) 0.33654(8)
H1 H 0.0521 0.4510 0.3801
H2 H -0.0388 0.3812 0.3280
C8 C 0.24054(11) 0.52772(19) 0.35929(11)
H3 H 0.2763 0.5960 0.3823
H4 H 0.2052 0.5018 0.3881
C9 C 0.2891(5) 0.6641(4) 0.2847(2)
H5 H 0.2797 0.7349 0.3008
H6 H 0.3335 0.6497 0.3175
C10 C 0.1257(8) 0.6937(7) 0.1982(4)
H7 H 0.2001 0.7190 0.2086
H8 H 0.1090 0.6634 0.1527
C11 C -0.0700(6) 0.55152(13) 0.15719(14)
H9 H -0.0300 0.5669 0.1266
H10 H -0.1111 0.4846 0.1371
C12 C -0.1224(3) 0.4048(2) 0.22392(11)
H11 H -0.1339 0.3763 0.1783
H12 H -0.1192 0.3488 0.2409
C13 C 0.1594(9) 0.3084(8) 0.3752(5)
H13 H 0.1714 0.3479 0.4174
C14 C 0.2020(10) 0.2266(8) 0.3493(5)
H14 H 0.2506 0.1989 0.3701
C15 C 0.1608(10) 0.1896(8) 0.2854(5)
C16 C 0.1823(10) 0.1057(8) 0.2375(5)
C17 C 0.2523(10) 0.0442(9) 0.2516(6)
H15 H 0.2842 0.0579 0.2930
C18 C 0.2733(11) -0.0318(9) 0.2076(6)
H16 H 0.3210 -0.0714 0.2179
C19 C 0.2296(11) -0.0538(9) 0.1498(6)
H17 H 0.2425 -0.1104 0.1187
C20 C 0.1610(10) 0.0114(8) 0.1352(6)
H18 H 0.1313 -0.0011 0.0935
C21 C 0.4057(9) 0.4574(8) 0.3703(5)
H19 H 0.4310 0.4963 0.4120
C22 C 0.4499(10) 0.3859(9) 0.3335(5)
H20 H 0.5118 0.3636 0.3443
C23 C 0.3844(10) 0.3510(9) 0.2755(5)
C24 C 0.4028(10) 0.2766(9) 0.2172(5)
C25 C 0.4678(10) 0.2052(9) 0.2152(6)
H21 H 0.5058 0.2057 0.2528
C26 C 0.4794(10) 0.1347(9) 0.1617(6)
H22 H 0.5221 0.0854 0.1613
C27 C 0.4236(10) 0.1403(9) 0.1074(6)
H23 H 0.4291 0.0947 0.0686
C28 C 0.3610(9) 0.2119(8) 0.1105(5)
H24 H 0.3257 0.2146 0.0729
C29 C 0.4100(7) 0.7260(7) 0.2271(4)
H25 H 0.4238 0.7932 0.2534
C30 C 0.4559(7) 0.6874(7) 0.1771(4)
H26 H 0.5081 0.7207 0.1624
C31 C 0.4079(7) 0.5848(7) 0.1516(4)
C32 C 0.4296(7) 0.5052(7) 0.0989(4)
C33 C 0.5317(7) 0.4977(7) 0.0880(4)
H27 H 0.5859 0.5471 0.1136
C34 C 0.5538(8) 0.4204(7) 0.0410(4)
H28 H 0.6223 0.4151 0.0344
C35 C 0.4721(7) 0.3501(7) 0.0035(4)
H29 H 0.4840 0.2961 -0.0297
C36 C 0.3727(8) 0.3601(7) 0.0153(4)
H30 H 0.3178 0.3112 -0.0101
C37 C 0.0126(8) 0.8172(7) 0.1796(4)
H31 H -0.0032 0.7919 0.1359
C38 C -0.0164(8) 0.9004(8) 0.2180(4)
H32 H -0.0558 0.9446 0.2056
C39 C 0.0221(8) 0.9083(8) 0.2781(4)
C40 C 0.0164(9) 0.9866(8) 0.3376(5)
C41 C -0.0419(9) 1.0640(9) 0.3406(5)
H33 H -0.0794 1.0679 0.3039
C42 C -0.0452(10) 1.1341(9) 0.3963(5)
H34 H -0.0862 1.1851 0.3983
C43 C 0.0116(10) 1.1298(10) 0.4492(6)
H35 H 0.0104 1.1781 0.4879
C44 C 0.0700(10) 1.0551(9) 0.4455(5)
H36 H 0.1075 1.0511 0.4822
C45 C -0.2016(7) 0.6501(7) 0.1283(4)
H37 H -0.2067 0.6216 0.0849
C46 C -0.2535(8) 0.7237(7) 0.1583(4)
H38 H -0.3005 0.7568 0.1406
C47 C -0.2204(8) 0.7390(7) 0.2225(4)
C48 C -0.2464(8) 0.8126(8) 0.2780(5)
C49 C -0.3117(9) 0.8784(8) 0.2752(5)
H39 H -0.3433 0.8782 0.2359
C50 C -0.3332(9) 0.9446(8) 0.3270(5)
H40 H -0.3790 0.9902 0.3243
C51 C -0.2868(9) 0.9437(9) 0.3832(5)
H41 H -0.3032 0.9870 0.4199
C52 C -0.2148(9) 0.8789(9) 0.3872(5)
H42 H -0.1802 0.8815 0.4262
C53 C -0.3009(8) 0.4354(8) 0.2043(5)
H43 H -0.3168 0.3938 0.1625
C54 C -0.3670(8) 0.4907(8) 0.2388(4)
H44 H -0.4363 0.4941 0.2254
C55 C -0.3092(8) 0.5400(8) 0.2971(4)
C56 C -0.3388(9) 0.6111(9) 0.3518(5)
C57 C -0.4239(9) 0.6590(9) 0.3448(5)
H45 H -0.4642 0.6447 0.3054
C58 C -0.4485(9) 0.7291(9) 0.3975(5)
H46 H -0.5070 0.7608 0.3940
C59 C -0.3874(9) 0.7509(9) 0.4537(5)
H47 H -0.3992 0.8007 0.4893
C60 C -0.3056(9) 0.6952(9) 0.4560(5)
H48 H -0.2676 0.7039 0.4953
C61 C -0.0092(7) 0.6658(6) -0.0792(4)
C62 C 0.1699(7) 0.6396(7) 0.0104(4)
C63 C 0.0942(7) 0.7313(6) -0.0653(4)
C64 C 0.1744(7) 0.7198(7) -0.0216(4)
C65 C 0.2687(8) 0.7857(7) -0.0107(4)
H49 H 0.3251 0.7823 0.0175
C66 C 0.2763(8) 0.8546(7) -0.0420(4)
H50 H 0.3382 0.8996 -0.0342
C67 C 0.1987(8) 0.8594(7) -0.0828(4)
H51 H 0.2090 0.9063 -0.1042
C68 C 0.0898(7) 0.6856(7) 0.4416(4)
C69 C 0.1953(7) 0.5955(7) 0.5339(4)
C70 C 0.1998(7) 0.7238(7) 0.4753(4)
C71 C 0.2424(7) 0.6835(7) 0.5193(4)
C72 C 0.3405(7) 0.7279(7) 0.5504(4)
H52 H 0.3713 0.7045 0.5817
C73 C 0.3959(8) 0.8087(7) 0.5360(4)
H53 H 0.4626 0.8398 0.5570
C74 C 0.3462(7) 0.8385(7) 0.4897(4)
H54 H 0.3828 0.8903 0.4789
N1 N 0.0942(8) 0.3236(5) 0.3274(3)
N2 N 0.0992(6) 0.2521(5) 0.2740(3)
N3 N 0.1388(7) 0.0890(6) 0.1792(4)
N4 N 0.3171(8) 0.4625(7) 0.3353(4)
N5 N 0.3068(6) 0.4034(6) 0.2752(3)
N6 N 0.3470(6) 0.2780(5) 0.1632(3)
N7 N 0.3415(5) 0.6529(5) 0.2333(3)
N8 N 0.3402(5) 0.5651(5) 0.1871(3)
N9 N 0.3512(5) 0.4366(5) 0.0614(3)
N10 N 0.0691(5) 0.7782(5) 0.2179(3)
N11 N 0.0775(6) 0.8324(5) 0.2777(3)
N12 N 0.0752(8) 0.9853(7) 0.3892(4)
N13 N -0.1405(6) 0.6246(5) 0.1724(3)
N14 N -0.1501(6) 0.6772(5) 0.2297(3)
N15 N -0.1954(7) 0.8119(6) 0.3338(4)
N16 N -0.2086(6) 0.4528(6) 0.2426(3)
N17 N -0.2112(5) 0.5172(5) 0.2992(3)
N18 N -0.2781(6) 0.6312(6) 0.4065(3)
N19 N 0.1057(6) 0.8008(5) -0.0955(3)
N20 N 0.2521(6) 0.8012(5) 0.4590(3)
N21 N 0.3900(7) 0.9872(7) 0.3745(4)
O1 O -0.0745(5) 0.6703(5) -0.1218(3)
O2 O -0.0273(5) 0.6086(6) -0.0486(4)
O3 O 0.1944(5) 0.5579(5) -0.0224(3)
O4 O 0.1575(8) 0.6619(5) 0.0643(3)
O5 O 0.0610(6) 0.7153(6) 0.3960(3)
O6 O 0.0375(6) 0.6281(5) 0.4593(3)
O7 O 0.1629(6) 0.6118(5) 0.5855(3)
O8 O 0.1943(6) 0.5105(5) 0.4973(3)
O9 O 0.3613(7) 0.8965(6) 0.3527(4)
O10 O 0.3560(9) 1.0381(7) 0.4192(5)
O11 O 0.4437(8) 1.0346(9) 0.3462(5)
Ag1A Ag -0.02725(8) 0.80484(7) -0.16473(4)
Ag2A Ag -0.23951(6) 0.59415(5) -0.17049(3)
Ag3A Ag -0.18521(5) 0.52301(6) -0.05807(3)
Ag6A Ag 0.12838(6) 0.43728(6) 0.58460(3)
N19A N -0.1057(6) 0.1992(5) 0.0955(3)
O1A O 0.0745(5) 0.3297(5) 0.1218(3)
O2A O 0.0273(5) 0.3914(6) 0.0486(4)
O7A O -0.1629(6) 0.3882(5) 0.4145(3)
O8A O -0.1943(6) 0.4895(5) 0.5027(3)
N22 N 0.5882(14) -0.0876(10) 0.0909(7)
O12 O 0.5482(11) -0.1269(9) 0.1217(6)
O13 O 0.5704(18) -0.0541(15) 0.0502(9)
O14 O 0.6771(16) -0.0524(14) 0.1295(9)
O15 O 0.1835(18) 0.7687(16) 0.6969(10)
O16 O 0.896(2) -0.1035(19) 0.0232(11)
O17? O 0.267(2) 0.747(2) 0.7084(11)
O18? O 0.840(2) -0.149(2) 0.0495(13)
O19? O 0.646(3) -0.101(2) 0.0565(14)
loop_
_geom_bond_atom_site_label_1
_geom_bond_atom_site_label_2
_geom_bond_site_symmetry_1
_geom_bond_site_symmetry_2
Ag1 N2 1_555 1_555
Ag2 N5 1_555 1_555
Ag3 N9 1_555 1_555
Ag4 N11 1_555 1_555
Ag5 N14 1_555 1_555
Ag6 N17 1_555 1_555
C1 C2 1_555 1_555
C2 C3 1_555 1_555
C3 C4 1_555 1_555
C4 C5 1_555 1_555
C5 C6 1_555 1_555
C6 C1 1_555 1_555
C7 C1 1_555 1_555
H1 C7 1_555 1_555
H2 C7 1_555 1_555
C8 C2 1_555 1_555
H3 C8 1_555 1_555
H4 C8 1_555 1_555
C9 C3 1_555 1_555
H5 C9 1_555 1_555
H6 C9 1_555 1_555
C10 C4 1_555 1_555
H7 C10 1_555 1_555
H8 C10 1_555 1_555
C11 C5 1_555 1_555
H9 C11 1_555 1_555
H10 C11 1_555 1_555
C12 C6 1_555 1_555
H11 C12 1_555 1_555
H12 C12 1_555 1_555
C13 H13 1_555 1_555
C14 C13 1_555 1_555
H14 C14 1_555 1_555
C15 C14 1_555 1_555
C16 C15 1_555 1_555
C17 C16 1_555 1_555
H15 C17 1_555 1_555
C18 C17 1_555 1_555
H16 C18 1_555 1_555
C19 C18 1_555 1_555
H17 C19 1_555 1_555
C20 C19 1_555 1_555
H18 C20 1_555 1_555
C21 H19 1_555 1_555
C22 C21 1_555 1_555
H20 C22 1_555 1_555
C23 C22 1_555 1_555
C24 C23 1_555 1_555
C25 C24 1_555 1_555
H21 C25 1_555 1_555
C26 C25 1_555 1_555
H22 C26 1_555 1_555
C27 C26 1_555 1_555
H23 C27 1_555 1_555
C28 C27 1_555 1_555
H24 C28 1_555 1_555
C29 H25 1_555 1_555
C30 C29 1_555 1_555
H26 C30 1_555 1_555
C31 C30 1_555 1_555
C32 C31 1_555 1_555
C33 C32 1_555 1_555
H27 C33 1_555 1_555
C34 C33 1_555 1_555
H28 C34 1_555 1_555
C35 C34 1_555 1_555
H29 C35 1_555 1_555
C36 C35 1_555 1_555
H30 C36 1_555 1_555
C37 H31 1_555 1_555
C38 C37 1_555 1_555
H32 C38 1_555 1_555
C39 C38 1_555 1_555
C40 C39 1_555 1_555
C41 C40 1_555 1_555
H33 C41 1_555 1_555
C42 C41 1_555 1_555
H34 C42 1_555 1_555
C43 C42 1_555 1_555
H35 C43 1_555 1_555
C44 C43 1_555 1_555
H36 C44 1_555 1_555
C45 H37 1_555 1_555
C46 C45 1_555 1_555
H38 C46 1_555 1_555
C47 C46 1_555 1_555
C48 C47 1_555 1_555
C49 C48 1_555 1_555
H39 C49 1_555 1_555
C50 C49 1_555 1_555
H40 C50 1_555 1_555
C51 C50 1_555 1_555
H41 C51 1_555 1_555
C52 C51 1_555 1_555
H42 C52 1_555 1_555
C53 H43 1_555 1_555
C54 C53 1_555 1_555
H44 C54 1_555 1_555
C55 C54 1_555 1_555
C56 C55 1_555 1_555
C57 C56 1_555 1_555
H45 C57 1_555 1_555
C58 C57 1_555 1_555
H46 C58 1_555 1_555
C59 C58 1_555 1_555
H47 C59 1_555 1_555
C60 C59 1_555 1_555
H48 C60 1_555 1_555
C61 C63 1_555 1_555
C62 C64 1_555 1_555
C63 C64 1_555 1_555
C64 C65 1_555 1_555
C65 H49 1_555 1_555
C66 C65 1_555 1_555
H50 C66 1_555 1_555
C67 C66 1_555 1_555
H51 C67 1_555 1_555
C68 C70 1_555 1_555
C69 C71 1_555 1_555
C70 C71 1_555 1_555
C71 C72 1_555 1_555
C72 H52 1_555 1_555
C73 C72 1_555 1_555
H53 C73 1_555 1_555
C74 C73 1_555 1_555
H54 C74 1_555 1_555
N1 C7 1_555 1_555
N2 C15 1_555 1_555
N3 Ag1 1_555 1_555
N4 C8 1_555 1_555
N5 C23 1_555 1_555
N6 Ag2 1_555 1_555
N7 C9 1_555 1_555
N8 Ag2 1_555 1_555
N9 C32 1_555 1_555
N10 C10 1_555 1_555
N11 C39 1_555 1_555
N12 Ag4 1_555 1_555
N13 C11 1_555 1_555
N14 C47 1_555 1_555
N15 Ag5 1_555 1_555
N16 C12 1_555 1_555
N17 Ag5 1_555 1_555
N18 Ag6 1_555 1_555
N19 C63 1_555 1_555
N20 Ag4 1_555 1_555
N21 O9 1_555 1_555
O1 C61 1_555 1_555
O2 C61 1_555 1_555
O3 Ag3 1_555 1_555
O4 Ag3 1_555 1_555
O5 Ag4 1_555 1_555
O6 Ag6 1_555 1_555
O7 C69 1_555 1_555
O8 C69 1_555 1_555
O9 Ag4 1_555 1_555
O10 N21 1_555 1_555
O11 N21 1_555 1_555
N22 O12 1_555 1_555
O13 N22 1_555 1_555
O14 N22 1_555 1_555
Ag1A N19 1_555 1_555
Ag2A O1 1_555 1_555
Ag3A O2 1_555 1_555
Ag6A O7 1_555 1_555
N19A Ag1 1_555 1_555
O1A Ag1 1_555 1_555
O2A Ag3 1_555 1_555
O7A Ag6 1_555 1_555
O8A Ag6 1_555 1_555
Ag2 O1A 1_555 1_555
Ag5 O5 1_555 1_555
C13 N1 1_555 1_555
C16 N3 1_555 1_555
C20 N3 1_555 1_555
C21 N4 1_555 1_555
C24 N6 1_555 1_555
C28 N6 1_555 1_555
C29 N7 1_555 1_555
C31 N8 1_555 1_555
C36 N9 1_555 1_555
C37 N10 1_555 1_555
C40 N12 1_555 1_555
C44 N12 1_555 1_555
C45 N13 1_555 1_555
C48 N15 1_555 1_555
C52 N15 1_555 1_555
C53 N16 1_555 1_555
C55 N17 1_555 1_555
C56 N18 1_555 1_555
C60 N18 1_555 1_555
C62 O3 1_555 1_555
C62 O4 1_555 1_555
C67 N19 1_555 1_555
C68 O5 1_555 1_555
C68 O6 1_555 1_555
C70 N20 1_555 1_555
C74 N20 1_555 1_555
N1 N2 1_555 1_555
N4 N5 1_555 1_555
N7 N8 1_555 1_555
N10 N11 1_555 1_555
N13 N14 1_555 1_555
N16 N17 1_555 1_555
O1 Ag1A 1_555 1_555
O8 Ag6A 1_555 1_555

#END
