
#######################################################################
#
#                 Cambridge Crystallographic Data Centre
#                                CCDC 
#
#######################################################################
#
# If this CIF has been generated from an entry in the Cambridge 
# Structural Database, then it will include bibliographic, chemical, 
# crystal, experimental, refinement or atomic coordinate data resulting 
# from the CCDC's data processing and validation procedures.
#
#######################################################################

data_DIZGEA
_symmetry_cell_setting           monoclinic
_symmetry_space_group_name_H-M   'C 2/c'
_symmetry_Int_Tables_number      15
_space_group_name_Hall           '-C 2yn'
loop_
_symmetry_equiv_pos_site_id
_symmetry_equiv_pos_as_xyz
1 x,y,z
2 -x,y,1/2-z
3 1/2+x,1/2+y,z
4 1/2-x,1/2+y,1/2-z
5 -x,-y,-z
6 x,-y,1/2+z
7 1/2-x,1/2-y,-z
8 1/2+x,1/2-y,1/2+z
_cell_length_a                   20.6570(8)
_cell_length_b                   14.2360(6)
_cell_length_c                   23.3580(9)
_cell_angle_alpha                90
_cell_angle_beta                 103.847(4)
_cell_angle_gamma                90
_cell_volume                     6669.33
loop_
_atom_site_label
_atom_site_type_symbol
_atom_site_fract_x
_atom_site_fract_y
_atom_site_fract_z
N10 N 0.1091(4) 0.6300(5) 0.6433(3)
O4 O 0.0567(4) 0.6093(6) 0.6544(4)
O5 O 0.1608(4) 0.6344(7) 0.6814(3)
O6 O 0.1115(3) 0.6466(7) 0.5950(3)
O7 O 0.5445(7) -0.0415(10) 0.7200(6)
Ag1 Ag 0.12475(2) 0.11216(3) 0.60927(2)
Ag2 Ag 0.16731(2) -0.07887(4) 0.59003(2)
C1 C -0.0053(2) 0.0966(4) 0.4923(2)
C2 C 0.0301(2) 0.0428(4) 0.46033(19)
C3 C 0.0346(2) -0.0526(4) 0.4673(2)
C4 C -0.0206(3) 0.1983(5) 0.4792(3)
H1 H -0.0258 0.2080 0.4372
H2 H -0.0631 0.2124 0.4880
C5 C 0.0663(3) 0.0915(6) 0.4205(3)
H3 H 0.0623 0.0547 0.3849
H4 H 0.0459 0.1523 0.4093
C6 C 0.0640(3) -0.1120(5) 0.4260(3)
H5 H 0.0470 -0.1755 0.4264
H6 H 0.0481 -0.0878 0.3863
C7 C 0.0335(3) 0.3564(5) 0.4959(3)
H7 H 0.0111 0.3846 0.4608
C8 C 0.0768(3) 0.3987(4) 0.5412(3)
H8 H 0.0902 0.4612 0.5436
C9 C 0.0970(3) 0.3294(4) 0.5831(3)
C10 C 0.1467(3) 0.3344(5) 0.6403(3)
C11 C 0.1872(4) 0.4135(6) 0.6546(4)
H9 H 0.1819 0.4654 0.6298
C12 C 0.2339(5) 0.4121(9) 0.7054(5)
H10 H 0.2618 0.4638 0.7157
C13 C 0.2416(4) 0.3368(11) 0.7424(5)
H11 H 0.2744 0.3363 0.7776
C14 C 0.2000(5) 0.2626(8) 0.7264(4)
H12 H 0.2042 0.2110 0.7514
C15 C 0.1851(3) 0.1193(5) 0.4203(3)
H13 H 0.1804 0.1221 0.3798
C16 C 0.2420(3) 0.1294(5) 0.4621(3)
H14 H 0.2845 0.1393 0.4563
C17 C 0.2244(2) 0.1223(4) 0.5155(2)
C18 C 0.2684(2) 0.1244(4) 0.5747(2)
C19 C 0.3356(3) 0.1418(5) 0.5824(3)
H15 H 0.3531 0.1537 0.5500
C20 C 0.3761(3) 0.1414(6) 0.6376(3)
H16 H 0.4217 0.1518 0.6433
C21 C 0.3491(3) 0.1255(6) 0.6839(3)
H17 H 0.3755 0.1266 0.7222
C22 C 0.2823(3) 0.1079(5) 0.6737(3)
H18 H 0.2646 0.0951 0.7059
C23 C 0.1723(3) -0.1309(4) 0.3998(3)
H19 H 0.1561 -0.1357 0.3592
C24 C 0.2361(3) -0.1376(4) 0.4296(2)
H20 H 0.2728 -0.1475 0.4138
C25 C 0.2363(2) -0.1268(3) 0.4884(2)
C26 C 0.2924(2) -0.1238(3) 0.5400(2)
C27 C 0.3573(2) -0.1305(4) 0.5338(3)
H21 H 0.3659 -0.1398 0.4970
C28 C 0.4083(3) -0.1231(5) 0.5830(3)
H22 H 0.4522 -0.1260 0.5795
C29 C 0.3955(3) -0.1117(5) 0.6366(3)
H23 H 0.4298 -0.1071 0.6705
C30 C 0.3302(3) -0.1072(5) 0.6391(3)
H24 H 0.3210 -0.1010 0.6760
C31 C 0.0000 -0.2368(6) 0.7500
H25 H 0.0000 -0.3021 0.7500
C32 C 0.0380(3) -0.1889(4) 0.7192(2)
H26 H 0.0644 -0.2220 0.6989
C33 C 0.0378(2) -0.0926(3) 0.71779(18)
C34 C 0.0764(2) -0.0444(4) 0.67789(19)
C35 C 0.0000 -0.0434(5) 0.7500
C36 C 0.0155(5) 0.0639(9) 0.7585(8)
N1 N 0.0290(2) 0.2660(3) 0.5110(2)
N2 N 0.0666(2) 0.2493(3) 0.5649(2)
N3 N 0.1523(3) 0.2612(5) 0.6747(3)
N4 N 0.1363(2) 0.1045(3) 0.44865(18)
N5 N 0.1591(2) 0.1069(3) 0.50681(18)
N6 N 0.2413(2) 0.1079(3) 0.62032(19)
N7 N 0.1364(2) -0.1163(3) 0.4393(2)
N8 N 0.17428(19) -0.1148(3) 0.49471(19)
N9 N 0.2789(2) -0.1111(3) 0.59211(19)
O1 O 0.06545(19) 0.0386(3) 0.66652(16)
O2 O 0.1124(2) -0.0976(3) 0.6565(2)
O3 O 0.0636(5) 0.0910(9) 0.7916(5)
C1D C 0.0053(2) -0.0966(4) 0.5077(2)
C2D C -0.0301(2) -0.0428(4) 0.53967(19)
C3D C -0.0346(2) 0.0526(4) 0.5327(2)
C4D C 0.0206(3) -0.1983(5) 0.5208(3)
H1D H 0.0258 -0.2080 0.5628
H2D H 0.0631 -0.2124 0.5120
C5D C -0.0663(3) -0.0915(6) 0.5795(3)
H3D H -0.0623 -0.0547 0.6151
H4D H -0.0459 -0.1523 0.5907
C6D C -0.0640(3) 0.1120(5) 0.5740(3)
H5D H -0.0470 0.1755 0.5736
H6D H -0.0481 0.0878 0.6137
C7D C -0.0335(3) -0.3564(5) 0.5041(3)
H7D H -0.0111 -0.3846 0.5392
C8D C -0.0768(3) -0.3987(4) 0.4588(3)
H8D H -0.0902 -0.4612 0.4564
C9D C -0.0970(3) -0.3294(4) 0.4169(3)
C10D C -0.1467(3) -0.3344(5) 0.3597(3)
C11D C -0.1872(4) -0.4135(6) 0.3454(4)
H9D H -0.1819 -0.4654 0.3702
C12D C -0.2339(5) -0.4121(9) 0.2946(5)
H10D H -0.2618 -0.4638 0.2843
C13D C -0.2416(4) -0.3368(11) 0.2576(5)
H11D H -0.2744 -0.3363 0.2224
C14D C -0.2000(5) -0.2626(8) 0.2736(4)
H12D H -0.2042 -0.2110 0.2486
C15D C -0.1851(3) -0.1193(5) 0.5797(3)
H13D H -0.1804 -0.1221 0.6202
C16D C -0.2420(3) -0.1294(5) 0.5379(3)
H14D H -0.2845 -0.1393 0.5437
C17D C -0.2244(2) -0.1223(4) 0.4845(2)
C18D C -0.2684(2) -0.1244(4) 0.4253(2)
C19D C -0.3356(3) -0.1418(5) 0.4176(3)
H15D H -0.3531 -0.1537 0.4500
C20D C -0.3761(3) -0.1414(6) 0.3624(3)
H16D H -0.4217 -0.1518 0.3567
C21D C -0.3491(3) -0.1255(6) 0.3161(3)
H17D H -0.3755 -0.1266 0.2778
C22D C -0.2823(3) -0.1079(5) 0.3263(3)
H18D H -0.2646 -0.0951 0.2941
C23D C -0.1723(3) 0.1309(4) 0.6002(3)
H19D H -0.1561 0.1357 0.6408
C24D C -0.2361(3) 0.1376(4) 0.5704(2)
H20D H -0.2728 0.1475 0.5862
C25D C -0.2363(2) 0.1268(3) 0.5116(2)
C26D C -0.2924(2) 0.1238(3) 0.4600(2)
C27D C -0.3573(2) 0.1305(4) 0.4662(3)
H21D H -0.3659 0.1398 0.5030
C28D C -0.4083(3) 0.1231(5) 0.4170(3)
H22D H -0.4522 0.1260 0.4205
C29D C -0.3955(3) 0.1117(5) 0.3634(3)
H23D H -0.4298 0.1071 0.3295
C30D C -0.3302(3) 0.1072(5) 0.3609(3)
H24D H -0.3210 0.1010 0.3240
N1D N -0.0290(2) -0.2660(3) 0.4890(2)
N2D N -0.0666(2) -0.2493(3) 0.4351(2)
N3D N -0.1523(3) -0.2612(5) 0.3253(3)
N4D N -0.1363(2) -0.1045(3) 0.55135(18)
N5D N -0.1591(2) -0.1069(3) 0.49319(18)
N6D N -0.2413(2) -0.1079(3) 0.37968(19)
N7D N -0.1364(2) 0.1163(3) 0.5607(2)
N8D N -0.17428(19) 0.1148(3) 0.50529(19)
N9D N -0.2789(2) 0.1111(3) 0.40789(19)
C32A C -0.0380(3) -0.1889(4) 0.7808(2)
H26A H -0.0644 -0.2220 0.8011
C33A C -0.0378(2) -0.0926(3) 0.78221(18)
C34A C -0.0764(2) -0.0444(4) 0.82211(19)
C36A C -0.0155(5) 0.0639(9) 0.7415(8)
O1A O -0.06545(19) 0.0386(3) 0.83348(16)
O2A O -0.1124(2) -0.0976(3) 0.8435(2)
O3A O -0.0636(5) 0.0910(9) 0.7084(5)
Ag1A Ag -0.12475(2) 0.11216(3) 0.89073(2)
Ag2A Ag -0.16731(2) -0.07887(4) 0.90997(2)
Ag1D Ag -0.12475(2) -0.11216(3) 0.39073(2)
Ag2D Ag -0.16731(2) 0.07887(4) 0.40997(2)
N2A N -0.0666(2) 0.2493(3) 0.9351(2)
N3A N -0.1523(3) 0.2612(5) 0.8253(3)
N5A N -0.1591(2) 0.1069(3) 0.99319(18)
N6A N -0.2413(2) 0.1079(3) 0.87968(19)
N8A N -0.17428(19) -0.1148(3) 1.00529(19)
N9A N -0.2789(2) -0.1111(3) 0.90789(19)
O8? O 0.0321(7) 0.1142(9) 0.7733(5)
loop_
_geom_bond_atom_site_label_1
_geom_bond_atom_site_label_2
_geom_bond_site_symmetry_1
_geom_bond_site_symmetry_2
Ag1 Ag2 1_555 1_555
Ag2 N8 1_555 1_555
C1 C2 1_555 1_555
C2 C3 1_555 1_555
C3 C6 1_555 1_555
C4 C1 1_555 1_555
H1 C4 1_555 1_555
H2 C4 1_555 1_555
C5 C2 1_555 1_555
H3 C5 1_555 1_555
H4 C5 1_555 1_555
C6 H5 1_555 1_555
H6 C6 1_555 1_555
C7 H7 1_555 1_555
C8 C7 1_555 1_555
H8 C8 1_555 1_555
C9 C8 1_555 1_555
C10 C9 1_555 1_555
C11 C10 1_555 1_555
H9 C11 1_555 1_555
C12 C11 1_555 1_555
H10 C12 1_555 1_555
C13 C12 1_555 1_555
H11 C13 1_555 1_555
C14 C13 1_555 1_555
H12 C14 1_555 1_555
C15 H13 1_555 1_555
C16 C15 1_555 1_555
H14 C16 1_555 1_555
C17 C16 1_555 1_555
C18 C17 1_555 1_555
C19 C18 1_555 1_555
H15 C19 1_555 1_555
C20 C19 1_555 1_555
H16 C20 1_555 1_555
C21 C20 1_555 1_555
H17 C21 1_555 1_555
C22 C21 1_555 1_555
H18 C22 1_555 1_555
C23 H19 1_555 1_555
C24 C23 1_555 1_555
H20 C24 1_555 1_555
C25 C24 1_555 1_555
C26 C25 1_555 1_555
C27 C26 1_555 1_555
H21 C27 1_555 1_555
C28 C27 1_555 1_555
H22 C28 1_555 1_555
C29 C28 1_555 1_555
H23 C29 1_555 1_555
C30 C29 1_555 1_555
H24 C30 1_555 1_555
C31 H25 1_555 1_555
C32 C31 1_555 1_555
H26 C32 1_555 1_555
C33 C32 1_555 1_555
C34 C33 1_555 1_555
C35 C33 1_555 1_555
C36 C35 1_555 1_555
N1 C4 1_555 1_555
N2 Ag1 1_555 1_555
N3 Ag1 1_555 1_555
N4 C5 1_555 1_555
N5 Ag1 1_555 1_555
N6 Ag1 1_555 1_555
N7 C6 1_555 1_555
N8 C25 1_555 1_555
N9 Ag2 1_555 1_555
O1 Ag1 1_555 1_555
O2 Ag2 1_555 1_555
O3 C36 1_555 1_555
N10 O4 1_555 1_555
O5 N10 1_555 1_555
O6 N10 1_555 1_555
C1D C3 1_555 1_555
C2D C1D 1_555 1_555
C3D C1 1_555 1_555
C4D C1D 1_555 1_555
H1D C4D 1_555 1_555
H2D C4D 1_555 1_555
C5D C2D 1_555 1_555
H3D C5D 1_555 1_555
H4D C5D 1_555 1_555
C6D C3D 1_555 1_555
H5D C6D 1_555 1_555
H6D C6D 1_555 1_555
C7D H7D 1_555 1_555
C8D C7D 1_555 1_555
H8D C8D 1_555 1_555
C9D C8D 1_555 1_555
C10D C9D 1_555 1_555
C11D C10D 1_555 1_555
H9D C11D 1_555 1_555
C12D C11D 1_555 1_555
H10D C12D 1_555 1_555
C13D C12D 1_555 1_555
H11D C13D 1_555 1_555
C14D C13D 1_555 1_555
H12D C14D 1_555 1_555
C15D H13D 1_555 1_555
C16D C15D 1_555 1_555
H14D C16D 1_555 1_555
C17D C16D 1_555 1_555
C18D C17D 1_555 1_555
C19D C18D 1_555 1_555
H15D C19D 1_555 1_555
C20D C19D 1_555 1_555
H16D C20D 1_555 1_555
C21D C20D 1_555 1_555
H17D C21D 1_555 1_555
C22D C21D 1_555 1_555
H18D C22D 1_555 1_555
C23D H19D 1_555 1_555
C24D C23D 1_555 1_555
H20D C24D 1_555 1_555
C25D C24D 1_555 1_555
C26D C25D 1_555 1_555
C27D C26D 1_555 1_555
H21D C27D 1_555 1_555
C28D C27D 1_555 1_555
H22D C28D 1_555 1_555
C29D C28D 1_555 1_555
H23D C29D 1_555 1_555
C30D C29D 1_555 1_555
H24D C30D 1_555 1_555
N1D C4D 1_555 1_555
N2D C9D 1_555 1_555
N3D C10D 1_555 1_555
N4D C5D 1_555 1_555
N5D C17D 1_555 1_555
N6D C18D 1_555 1_555
N7D C6D 1_555 1_555
N8D C25D 1_555 1_555
N9D C26D 1_555 1_555
C32A C31 1_555 1_555
H26A C32A 1_555 1_555
C33A C35 1_555 1_555
C34A C33A 1_555 1_555
C36A C35 1_555 1_555
O1A C34A 1_555 1_555
O2A C34A 1_555 1_555
O3A C36 1_555 1_555
Ag1A O1A 1_555 1_555
Ag2A O2A 1_555 1_555
Ag1D N2D 1_555 1_555
Ag2D N8D 1_555 1_555
N2A Ag1A 1_555 1_555
N3A Ag1A 1_555 1_555
N5A Ag1A 1_555 1_555
N6A Ag1A 1_555 1_555
N8A Ag2A 1_555 1_555
N9A Ag2A 1_555 1_555
C7 N1 1_555 1_555
C9 N2 1_555 1_555
C10 N3 1_555 1_555
C14 N3 1_555 1_555
C15 N4 1_555 1_555
C17 N5 1_555 1_555
C18 N6 1_555 1_555
C22 N6 1_555 1_555
C23 N7 1_555 1_555
C26 N9 1_555 1_555
C30 N9 1_555 1_555
C34 O1 1_555 1_555
C34 O2 1_555 1_555
C36 C36A 1_555 1_555
N1 N2 1_555 1_555
N4 N5 1_555 1_555
N7 N8 1_555 1_555
O3 C36A 1_555 1_555
C2D C3D 1_555 1_555
C7D N1D 1_555 1_555
C14D N3D 1_555 1_555
C15D N4D 1_555 1_555
C22D N6D 1_555 1_555
C23D N7D 1_555 1_555
C30D N9D 1_555 1_555
N1D N2D 1_555 1_555
N3D Ag1D 1_555 1_555
N4D N5D 1_555 1_555
N5D Ag1D 1_555 1_555
N6D Ag1D 1_555 1_555
N7D N8D 1_555 1_555
N9D Ag2D 1_555 1_555
C32A C33A 1_555 1_555
C36A O3A 1_555 1_555
Ag1A Ag2A 1_555 1_555
Ag1D Ag2D 1_555 1_555

#END
