
#######################################################################
#
#                 Cambridge Crystallographic Data Centre
#                                CCDC 
#
#######################################################################
#
# If this CIF has been generated from an entry in the Cambridge 
# Structural Database, then it will include bibliographic, chemical, 
# crystal, experimental, refinement or atomic coordinate data resulting 
# from the CCDC's data processing and validation procedures.
#
#######################################################################

data_DIZGAW
_symmetry_cell_setting           triclinic
_symmetry_space_group_name_H-M   'P -1'
_symmetry_Int_Tables_number      2
_space_group_name_Hall           '-P 1'
loop_
_symmetry_equiv_pos_site_id
_symmetry_equiv_pos_as_xyz
1 x,y,z
2 -x,-y,-z
_cell_length_a                   11.6530(6)
_cell_length_b                   12.1570(7)
_cell_length_c                   13.8700(8)
_cell_angle_alpha                67.552(5)
_cell_angle_beta                 89.980(6)
_cell_angle_gamma                69.718(5)
_cell_volume                     1683.55
loop_
_atom_site_label
_atom_site_type_symbol
_atom_site_fract_x
_atom_site_fract_y
_atom_site_fract_z
Ag1 Ag 0.71700(3) 0.66679(3) 0.55066(3)
Ag2 Ag 0.66732(4) 0.84969(4) 0.31780(3)
C1 C 0.4216(4) 1.0176(4) 0.4138(3)
C2 C 0.5011(4) 0.9126(3) 0.6014(3)
C3 C 0.4260(4) 0.9274(4) 0.5154(3)
C4 C 0.4865(5) 0.8365(4) 0.7133(4)
H1 H 0.5196 0.8642 0.7600
H2 H 0.3987 0.8590 0.7169
C5 C 0.3527(4) 0.8426(4) 0.5318(4)
H3 H 0.3651 0.7873 0.6062
H4 H 0.2653 0.8955 0.5100
C6 C 0.3207(4) 1.0567(5) 0.3253(4)
H5 H 0.2504 1.0415 0.3570
H6 H 0.2948 1.1486 0.2850
C7 C 0.5137(5) 0.6151(5) 0.8386(4)
H7 H 0.4453 0.6361 0.8721
C8 C 0.6029(5) 0.4965(5) 0.8642(4)
H8 H 0.6076 0.4202 0.9188
C9 C 0.6856(4) 0.5125(4) 0.7923(3)
C10 C 0.7928(4) 0.4130(4) 0.7813(3)
C11 C 0.8449(6) 0.2919(5) 0.8632(4)
H9 H 0.8161 0.2760 0.9278
C12 C 0.9380(6) 0.1963(5) 0.8495(5)
H10 H 0.9729 0.1150 0.9041
C13 C 0.9790(5) 0.2223(5) 0.7538(5)
H11 H 1.0419 0.1593 0.7414
C14 C 0.9246(5) 0.3436(5) 0.6774(4)
H12 H 0.9526 0.3610 0.6124
C15 C 0.3174(4) 0.7388(5) 0.4147(4)
H13 H 0.2314 0.7705 0.4052
C16 C 0.3911(4) 0.6593(5) 0.3738(4)
H14 H 0.3667 0.6253 0.3313
C17 C 0.5121(4) 0.6394(4) 0.4094(3)
C18 C 0.6286(4) 0.5655(4) 0.3865(3)
C19 C 0.6319(5) 0.4927(5) 0.3292(4)
H15 H 0.5592 0.4897 0.3048
C20 C 0.7454(6) 0.4243(6) 0.3086(5)
H16 H 0.7496 0.3757 0.2697
C21 C 0.8497(6) 0.4300(5) 0.3464(5)
H17 H 0.9270 0.3832 0.3358
C22 C 0.8391(5) 0.5053(5) 0.4003(5)
H18 H 0.9110 0.5101 0.4244
C23 C 0.2596(5) 1.0040(6) 0.1813(5)
H19 H 0.1743 1.0423 0.1766
C24 C 0.3201(5) 0.9454(6) 0.1191(4)
H20 H 0.2853 0.9359 0.0640
C25 C 0.4454(4) 0.9032(4) 0.1564(3)
C26 C 0.5519(4) 0.8332(4) 0.1193(3)
C27 C 0.5372(6) 0.8019(6) 0.0348(4)
H21 H 0.4586 0.8242 0.0009
C28 C 0.6410(7) 0.7375(7) 0.0021(5)
H22 H 0.6330 0.7163 -0.0546
C29 C 0.7550(7) 0.7050(7) 0.0531(5)
H23 H 0.8262 0.6614 0.0322
C30 C 0.7626(6) 0.7386(6) 0.1377(5)
H24 H 0.8404 0.7168 0.1727
C31 C 0.8536(3) 0.8611(4) 0.4705(3)
C32 C 0.9330(3) 0.9305(4) 0.4854(3)
C33 C 0.9823(3) 0.9059(4) 0.5859(3)
H25 H 0.9711 0.8422 0.6444
C34 C 0.9518(3) 1.0244(4) 0.4004(3)
H26 H 0.9198 1.0414 0.3326
N1 N 0.5448(4) 0.6965(3) 0.7543(3)
N2 N 0.6491(4) 0.6359(3) 0.7250(3)
N3 N 0.8341(4) 0.4392(4) 0.6887(3)
N4 N 0.3907(3) 0.7639(3) 0.4714(3)
N5 N 0.5111(3) 0.7024(3) 0.4704(3)
N6 N 0.7311(3) 0.5731(4) 0.4208(3)
N7 N 0.3470(3) 0.9959(4) 0.2512(3)
N8 N 0.4609(3) 0.9346(3) 0.2367(3)
N9 N 0.6642(4) 0.8001(4) 0.1702(3)
O1 O 0.8459(3) 0.7716(3) 0.5478(3)
O2 O 0.7962(3) 0.9068(4) 0.3789(3)
C1A C 0.5784(4) 0.9824(4) 0.5862(3)
C2A C 0.4989(4) 1.0874(3) 0.3986(3)
C3A C 0.5740(4) 1.0726(4) 0.4846(3)
C4A C 0.5135(5) 1.1635(4) 0.2867(4)
H1A H 0.4804 1.1358 0.2400
H2A H 0.6013 1.1410 0.2831
C5A C 0.6473(4) 1.1574(4) 0.4682(4)
H3A H 0.6349 1.2127 0.3938
H4A H 0.7347 1.1045 0.4900
C6A C 0.6793(4) 0.9433(5) 0.6747(4)
H5A H 0.7496 0.9585 0.6430
H6A H 0.7052 0.8514 0.7150
C7A C 0.4863(5) 1.3849(5) 0.1614(4)
H7A H 0.5547 1.3639 0.1279
C8A C 0.3971(5) 1.5035(5) 0.1358(4)
H8A H 0.3924 1.5798 0.0812
C9A C 0.3144(4) 1.4875(4) 0.2077(3)
C10A C 0.2072(4) 1.5870(4) 0.2187(3)
C11A C 0.1551(6) 1.7081(5) 0.1368(4)
H9A H 0.1839 1.7240 0.0722
C12A C 0.0620(6) 1.8037(5) 0.1505(5)
H10A H 0.0271 1.8850 0.0959
C13A C 0.0210(5) 1.7777(5) 0.2462(5)
H11A H -0.0419 1.8407 0.2586
C14A C 0.0754(5) 1.6564(5) 0.3226(4)
H12A H 0.0474 1.6390 0.3876
C15A C 0.6826(4) 1.2612(5) 0.5853(4)
H13A H 0.7686 1.2295 0.5948
C16A C 0.6089(4) 1.3407(5) 0.6262(4)
H14A H 0.6333 1.3747 0.6687
C17A C 0.4879(4) 1.3606(4) 0.5906(3)
C18A C 0.3714(4) 1.4345(4) 0.6135(3)
C19A C 0.3681(5) 1.5073(5) 0.6708(4)
H15A H 0.4408 1.5103 0.6952
C20A C 0.2546(6) 1.5757(6) 0.6914(5)
H16A H 0.2504 1.6243 0.7303
C21A C 0.1503(6) 1.5700(5) 0.6536(5)
H17A H 0.0730 1.6168 0.6642
C22A C 0.1609(5) 1.4947(5) 0.5997(5)
H18A H 0.0890 1.4899 0.5756
C23A C 0.7404(5) 0.9960(6) 0.8187(5)
H19A H 0.8257 0.9577 0.8234
C24A C 0.6799(5) 1.0546(6) 0.8809(4)
H20A H 0.7147 1.0641 0.9360
C25A C 0.5546(4) 1.0968(4) 0.8436(3)
C26A C 0.4481(4) 1.1668(4) 0.8807(3)
C27A C 0.4628(6) 1.1981(6) 0.9652(4)
H21A H 0.5414 1.1758 0.9991
C28A C 0.3590(7) 1.2625(7) 0.9979(5)
H22A H 0.3670 1.2837 1.0546
C29A C 0.2450(7) 1.2950(7) 0.9469(5)
H23A H 0.1738 1.3386 0.9678
C30A C 0.2374(6) 1.2614(6) 0.8623(5)
H24A H 0.1596 1.2832 0.8273
N1A N 0.4552(4) 1.3035(3) 0.2457(3)
N2A N 0.3509(4) 1.3641(3) 0.2750(3)
N3A N 0.1659(4) 1.5608(4) 0.3113(3)
N4A N 0.6093(3) 1.2361(3) 0.5286(3)
N5A N 0.4889(3) 1.2976(3) 0.5296(3)
N6A N 0.2689(3) 1.4269(4) 0.5792(3)
N7A N 0.6530(3) 1.0041(4) 0.7488(3)
N8A N 0.5391(3) 1.0654(3) 0.7633(3)
N9A N 0.3358(4) 1.1999(4) 0.8298(3)
C31A C 1.1464(3) 1.1389(4) 0.5295(3)
C32A C 1.0670(3) 1.0695(4) 0.5146(3)
C33A C 1.0177(3) 1.0941(4) 0.4141(3)
H25A H 1.0289 1.1578 0.3556
C34A C 1.0482(3) 0.9756(4) 0.5996(3)
H26A H 1.0802 0.9586 0.6674
O1A O 1.1541(3) 1.2284(3) 0.4522(3)
O2A O 1.2038(3) 1.0932(4) 0.6211(3)
Ag1A Ag 0.28300(3) 1.33321(3) 0.44934(3)
Ag2A Ag 0.33268(4) 1.15031(4) 0.68220(3)
Ag1A_2 Ag 1.28300(3) 1.33321(3) 0.44934(3)
Ag2A_2 Ag 1.33268(4) 1.15031(4) 0.68220(3)
O1A_2 O 0.1541(3) 1.2284(3) 0.4522(3)
O2A_2 O 0.2038(3) 1.0932(4) 0.6211(3)
N10 N 0.7996(9) 1.1532(10) 0.1275(5)
O3 O 0.9102(7) 1.1005(6) 0.1247(5)
O4 O 0.7770(10) 1.2482(10) 0.1482(8)
O5 O 0.7228(12) 1.130(2) 0.1039(9)
O6 O 0.0226(12) 0.3009(17) 0.1445(10)
loop_
_geom_bond_atom_site_label_1
_geom_bond_atom_site_label_2
_geom_bond_site_symmetry_1
_geom_bond_site_symmetry_2
Ag1 N2 1_555 1_555
Ag2 N8 1_555 1_555
C1 C3 1_555 1_555
C2 C3 1_555 1_555
C3 C5 1_555 1_555
C4 C2 1_555 1_555
H1 C4 1_555 1_555
H2 C4 1_555 1_555
C5 H3 1_555 1_555
H4 C5 1_555 1_555
C6 C1 1_555 1_555
H5 C6 1_555 1_555
H6 C6 1_555 1_555
C7 H7 1_555 1_555
C8 C7 1_555 1_555
H8 C8 1_555 1_555
C9 C8 1_555 1_555
C10 C9 1_555 1_555
C11 C10 1_555 1_555
H9 C11 1_555 1_555
C12 C11 1_555 1_555
H10 C12 1_555 1_555
C13 C12 1_555 1_555
H11 C13 1_555 1_555
C14 C13 1_555 1_555
H12 C14 1_555 1_555
C15 H13 1_555 1_555
C16 C15 1_555 1_555
H14 C16 1_555 1_555
C17 C16 1_555 1_555
C18 C17 1_555 1_555
C19 C18 1_555 1_555
H15 C19 1_555 1_555
C20 C19 1_555 1_555
H16 C20 1_555 1_555
C21 C20 1_555 1_555
H17 C21 1_555 1_555
C22 C21 1_555 1_555
H18 C22 1_555 1_555
C23 H19 1_555 1_555
C24 C23 1_555 1_555
H20 C24 1_555 1_555
C25 C24 1_555 1_555
C26 C25 1_555 1_555
C27 C26 1_555 1_555
H21 C27 1_555 1_555
C28 C27 1_555 1_555
H22 C28 1_555 1_555
C29 C28 1_555 1_555
H23 C29 1_555 1_555
C30 C29 1_555 1_555
H24 C30 1_555 1_555
C31 C32 1_555 1_555
C32 C33 1_555 1_555
C33 H25 1_555 1_555
C34 C32 1_555 1_555
H26 C34 1_555 1_555
N1 C4 1_555 1_555
N2 C9 1_555 1_555
N3 Ag1 1_555 1_555
N4 C5 1_555 1_555
N5 Ag1 1_555 1_555
N6 Ag1 1_555 1_555
N7 C6 1_555 1_555
N8 C25 1_555 1_555
N9 Ag2 1_555 1_555
O1 Ag1 1_555 1_555
O2 Ag2 1_555 1_555
N10 O3 1_555 1_555
O4 N10 1_555 1_555
O5 N10 1_555 1_555
C1A C2 1_555 1_555
C2A C1 1_555 1_555
C3A C1A 1_555 1_555
C4A C2A 1_555 1_555
H1A C4A 1_555 1_555
H2A C4A 1_555 1_555
C5A C3A 1_555 1_555
H3A C5A 1_555 1_555
H4A C5A 1_555 1_555
C6A C1A 1_555 1_555
H5A C6A 1_555 1_555
H6A C6A 1_555 1_555
C7A H7A 1_555 1_555
C8A C7A 1_555 1_555
H8A C8A 1_555 1_555
C9A C8A 1_555 1_555
C10A C9A 1_555 1_555
C11A C10A 1_555 1_555
H9A C11A 1_555 1_555
C12A C11A 1_555 1_555
H10A C12A 1_555 1_555
C13A C12A 1_555 1_555
H11A C13A 1_555 1_555
C14A C13A 1_555 1_555
H12A C14A 1_555 1_555
C15A H13A 1_555 1_555
C16A C15A 1_555 1_555
H14A C16A 1_555 1_555
C17A C16A 1_555 1_555
C18A C17A 1_555 1_555
C19A C18A 1_555 1_555
H15A C19A 1_555 1_555
C20A C19A 1_555 1_555
H16A C20A 1_555 1_555
C21A C20A 1_555 1_555
H17A C21A 1_555 1_555
C22A C21A 1_555 1_555
H18A C22A 1_555 1_555
C23A H19A 1_555 1_555
C24A C23A 1_555 1_555
H20A C24A 1_555 1_555
C25A C24A 1_555 1_555
C26A C25A 1_555 1_555
C27A C26A 1_555 1_555
H21A C27A 1_555 1_555
C28A C27A 1_555 1_555
H22A C28A 1_555 1_555
C29A C28A 1_555 1_555
H23A C29A 1_555 1_555
C30A C29A 1_555 1_555
H24A C30A 1_555 1_555
N1A C4A 1_555 1_555
N2A C9A 1_555 1_555
N3A C10A 1_555 1_555
N4A C5A 1_555 1_555
N5A C17A 1_555 1_555
N6A C18A 1_555 1_555
N7A C6A 1_555 1_555
N8A C25A 1_555 1_555
N9A C26A 1_555 1_555
C31A C32A 1_555 1_555
C32A C33A 1_555 1_555
C33A C34 1_555 1_555
H25A C33A 1_555 1_555
C34A C33 1_555 1_555
H26A C34A 1_555 1_555
O1A C31A 1_555 1_555
O2A C31A 1_555 1_555
Ag1A N2A 1_555 1_555
Ag2A N8A 1_555 1_555
Ag1A_2 O1A 1_555 1_555
Ag2A_2 O2A 1_555 1_555
O1A_2 Ag1A 1_555 1_555
O2A_2 Ag2A 1_555 1_555
C7 N1 1_555 1_555
C10 N3 1_555 1_555
C14 N3 1_555 1_555
C15 N4 1_555 1_555
C17 N5 1_555 1_555
C18 N6 1_555 1_555
C22 N6 1_555 1_555
C23 N7 1_555 1_555
C26 N9 1_555 1_555
C30 N9 1_555 1_555
C31 O1 1_555 1_555
C31 O2 1_555 1_555
N1 N2 1_555 1_555
N4 N5 1_555 1_555
N7 N8 1_555 1_555
C2A C3A 1_555 1_555
C7A N1A 1_555 1_555
C14A N3A 1_555 1_555
C15A N4A 1_555 1_555
C22A N6A 1_555 1_555
C23A N7A 1_555 1_555
C30A N9A 1_555 1_555
N1A N2A 1_555 1_555
N3A Ag1A 1_555 1_555
N4A N5A 1_555 1_555
N5A Ag1A 1_555 1_555
N6A Ag1A 1_555 1_555
N7A N8A 1_555 1_555
N9A Ag2A 1_555 1_555
C32A C34A 1_555 1_555

#END
