
#######################################################################
#
#                 Cambridge Crystallographic Data Centre
#                                CCDC 
#
#######################################################################
#
# If this CIF has been generated from an entry in the Cambridge 
# Structural Database, then it will include bibliographic, chemical, 
# crystal, experimental, refinement or atomic coordinate data resulting 
# from the CCDC's data processing and validation procedures.
#
#######################################################################

data_DIZHIF
_symmetry_cell_setting           triclinic
_symmetry_space_group_name_H-M   'P -1'
_symmetry_Int_Tables_number      2
_space_group_name_Hall           '-P 1'
loop_
_symmetry_equiv_pos_site_id
_symmetry_equiv_pos_as_xyz
1 x,y,z
2 -x,-y,-z
_cell_length_a                   11.9270(7)
_cell_length_b                   13.9400(7)
_cell_length_c                   14.0600(9)
_cell_angle_alpha                71.773(5)
_cell_angle_beta                 79.535(5)
_cell_angle_gamma                74.679(5)
_cell_volume                     2128.91
loop_
_atom_site_label
_atom_site_type_symbol
_atom_site_fract_x
_atom_site_fract_y
_atom_site_fract_z
Ag1 Ag 0.60389(6) 0.17141(6) 0.58998(6)
Ag2 Ag 0.08448(6) 0.53363(5) 0.56775(6)
Ag3 Ag 0.28962(5) 0.65755(5) 0.58639(5)
C1 C 0.4231(6) 0.4525(5) 0.4782(6)
C2 C 0.4452(6) 0.4307(5) 0.5762(6)
C3 C 0.5240(6) 0.4769(5) 0.5990(6)
C4 C 0.3736(8) 0.3005(7) 0.3289(7)
H1 H 0.3203 0.3451 0.2851
C5 C 0.4422(8) 0.2078(7) 0.3206(8)
H2 H 0.4443 0.1758 0.2712
C6 C 0.5068(7) 0.1721(7) 0.3998(7)
C7 C 0.5965(8) 0.0779(6) 0.4209(7)
C8 C 0.6210(9) 0.0100(7) 0.3601(9)
H3 H 0.5773 0.0235 0.3071
C9 C 0.7084(13) -0.0746(10) 0.3797(12)
H4 H 0.7258 -0.1191 0.3390
C10 C 0.7708(12) -0.0962(8) 0.4569(12)
H5 H 0.8302 -0.1555 0.4711
C11 C 0.7449(10) -0.0290(9) 0.5137(9)
H6 H 0.7900 -0.0426 0.5659
C12 C 0.3079(7) 0.3770(6) 0.8323(7)
H7 H 0.3641 0.3273 0.8702
C13 C 0.2137(7) 0.4384(7) 0.8680(7)
H8 H 0.1904 0.4394 0.9345
C14 C 0.1591(6) 0.4997(6) 0.7841(6)
C15 C 0.0525(7) 0.5847(7) 0.7792(7)
C16 C 0.0095(8) 0.6270(8) 0.8585(8)
H9 H 0.0449 0.6019 0.9179
C17 C -0.0892(9) 0.7091(10) 0.8469(11)
H10 H -0.1212 0.7396 0.8988
C18 C -0.1370(9) 0.7431(9) 0.7587(11)
H11 H -0.2023 0.7977 0.7489
C19 C -0.0892(8) 0.6973(8) 0.6860(8)
H12 H -0.1231 0.7222 0.6259
C20 C 0.5079(8) 0.5198(7) 0.8518(7)
H13 H 0.5656 0.4735 0.8902
C21 C 0.4296(8) 0.5985(7) 0.8771(7)
H14 H 0.4215 0.6177 0.9361
C22 C 0.3633(6) 0.6454(6) 0.7972(6)
C23 C 0.2667(7) 0.7357(6) 0.7824(6)
C24 C 0.2294(8) 0.7924(7) 0.8512(8)
H15 H 0.2642 0.7719 0.9106
C25 C 0.1423(10) 0.8776(9) 0.8322(9)
H16 H 0.1173 0.9168 0.8779
C26 C 0.0914(10) 0.9058(8) 0.7465(10)
H17 H 0.0318 0.9649 0.7317
C27 C 0.1296(8) 0.8453(7) 0.6814(8)
H18 H 0.0931 0.8639 0.6232
C28 C 0.5440(8) 0.0298(7) 0.8098(7)
C29 C 0.5067(7) -0.1922(6) 0.9714(7)
C30 C 0.4423(6) 0.0063(6) 0.8879(6)
C31 C 0.4262(6) -0.0863(6) 0.9557(6)
C32 C 0.3224(6) -0.0885(6) 1.0200(6)
H19 H 0.3105 -0.1515 1.0638
C33 C 0.2384(6) -0.0010(6) 1.0203(6)
C34 C 0.2554(7) 0.0923(7) 0.9572(7)
H20 H 0.2008 0.1532 0.9598
C35 C 0.3526(7) 0.0944(6) 0.8912(7)
H21 H 0.3608 0.1575 0.8454
C36 C -0.0074(8) -0.3376(6) 1.3700(7)
C37 C 0.1822(7) -0.2602(7) 1.4036(8)
C38 C 0.0329(6) -0.2466(6) 1.2965(6)
C39 C 0.1287(6) -0.2143(5) 1.3088(6)
C40 C 0.1636(6) -0.1333(6) 1.2356(7)
H22 H 0.2254 -0.1088 1.2443
C41 C 0.1095(7) -0.0882(6) 1.1505(7)
C42 C 0.0195(7) -0.1194(6) 1.1347(7)
H23 H -0.0152 -0.0882 1.0751
C43 C -0.0211(7) -0.1984(6) 1.2078(7)
H24 H -0.0846 -0.2198 1.1982
N1 N 0.3973(5) 0.3151(5) 0.4115(5)
N2 N 0.4804(5) 0.2358(5) 0.4573(5)
N3 N 0.6567(6) 0.0572(6) 0.4986(6)
N4 N 0.3068(5) 0.4000(4) 0.7331(5)
N5 N 0.2151(5) 0.4764(5) 0.7010(5)
N6 N 0.0050(5) 0.6173(5) 0.6938(6)
N7 N 0.4886(5) 0.5193(5) 0.7617(5)
N8 N 0.3995(5) 0.5963(4) 0.7267(5)
N9 N 0.2160(5) 0.7616(5) 0.6977(5)
O1 O 0.5351(5) 0.1179(5) 0.7564(5)
O2 O 0.6312(5) -0.0419(5) 0.8005(5)
O3 O 0.6103(5) -0.2027(5) 0.9226(5)
H25 H 0.6200 -0.1460 0.8866
O4 O 0.4754(5) -0.2663(4) 1.0299(5)
O5 O -0.1108(6) -0.3294(5) 1.3992(6)
O6 O 0.0693(5) -0.4200(4) 1.3948(5)
O7 O 0.1192(7) -0.2661(7) 1.4832(6)
O8 O 0.2893(6) -0.2830(5) 1.3997(5)
O9 O 0.1356(5) 0.0012(4) 1.0800(5)
C44 C 0.3395(7) 0.4015(7) 0.4523(8)
H26 H 0.290(7) 0.376(6) 0.505(7)
H27 H 0.285(7) 0.448(6) 0.405(7)
C45 C 0.3883(8) 0.3552(6) 0.6609(7)
H28 H 0.341(7) 0.333(6) 0.643(7)
H29 H 0.440(4) 0.314(6) 0.693(7)
C46 C 0.5549(7) 0.4484(6) 0.7041(7)
H30 H 0.533(6) 0.377(6) 0.746(6)
H31 H 0.626(7) 0.444(6) 0.709(7)
C1A C 0.5769(6) 0.5475(5) 0.5218(6)
C2A C 0.5548(6) 0.5693(5) 0.4238(6)
C3A C 0.4760(6) 0.5231(5) 0.4010(6)
C4A C 0.6264(8) 0.6995(7) 0.6711(7)
H1A H 0.6797 0.6549 0.7149
C5A C 0.5578(8) 0.7922(7) 0.6794(8)
H2A H 0.5557 0.8242 0.7288
C6A C 0.4932(7) 0.8279(7) 0.6002(7)
C7A C 0.4035(8) 0.9221(6) 0.5791(7)
C8A C 0.3790(9) 0.9900(7) 0.6399(9)
H3A H 0.4227 0.9765 0.6929
C9A C 0.2916(13) 1.0746(10) 0.6203(12)
H4A H 0.2742 1.1191 0.6610
C10A C 0.2292(12) 1.0962(8) 0.5431(12)
H5A H 0.1698 1.1555 0.5289
C11A C 0.2551(10) 1.0290(9) 0.4863(9)
H6A H 0.2100 1.0426 0.4341
C12A C 0.6921(7) 0.6230(6) 0.1677(7)
H7A H 0.6359 0.6727 0.1298
C13A C 0.7863(7) 0.5616(7) 0.1320(7)
H8A H 0.8096 0.5606 0.0655
C14A C 0.8409(6) 0.5003(6) 0.2159(6)
C15A C 0.9475(7) 0.4153(7) 0.2208(7)
C16A C 0.9905(8) 0.3730(8) 0.1415(8)
H9A H 0.9551 0.3981 0.0821
C17A C 1.0892(9) 0.2909(10) 0.1531(11)
H10A H 1.1212 0.2604 0.1012
C18A C 1.1370(9) 0.2569(9) 0.2413(11)
H11A H 1.2023 0.2023 0.2511
C19A C 1.0892(8) 0.3027(8) 0.3140(8)
H12A H 1.1231 0.2778 0.3741
C20A C 0.4921(8) 0.4802(7) 0.1482(7)
H13A H 0.4344 0.5265 0.1098
C21A C 0.5704(8) 0.4015(7) 0.1229(7)
H14A H 0.5785 0.3823 0.0639
C22A C 0.6367(6) 0.3546(6) 0.2028(6)
C23A C 0.7333(7) 0.2643(6) 0.2176(6)
C24A C 0.7706(8) 0.2076(7) 0.1488(8)
H15A H 0.7358 0.2281 0.0894
C25A C 0.8577(10) 0.1224(9) 0.1678(9)
H16A H 0.8827 0.0832 0.1221
C26A C 0.9086(10) 0.0942(8) 0.2535(10)
H17A H 0.9682 0.0351 0.2683
C27A C 0.8704(8) 0.1547(7) 0.3186(8)
H18A H 0.9069 0.1361 0.3768
N1A N 0.6027(5) 0.6849(5) 0.5885(5)
N2A N 0.5196(5) 0.7642(5) 0.5427(5)
N3A N 0.3433(6) 0.9428(6) 0.5014(6)
N4A N 0.6932(5) 0.6000(4) 0.2669(5)
N5A N 0.7849(5) 0.5236(5) 0.2990(5)
N6A N 0.9950(5) 0.3827(5) 0.3062(6)
N7A N 0.5114(5) 0.4807(5) 0.2383(5)
N8A N 0.6005(5) 0.4037(4) 0.2733(5)
N9A N 0.7840(5) 0.2384(5) 0.3023(5)
C44A C 0.6605(7) 0.5985(7) 0.5477(8)
H26A H 0.710(7) 0.624(6) 0.495(7)
H27A H 0.715(7) 0.552(6) 0.595(7)
C45A C 0.6117(8) 0.6448(6) 0.3391(7)
H28A H 0.659(7) 0.667(6) 0.357(7)
H29A H 0.560(4) 0.686(6) 0.307(7)
C46A C 0.4451(7) 0.5516(6) 0.2959(7)
H30A H 0.467(6) 0.623(6) 0.254(6)
H31A H 0.374(7) 0.556(6) 0.291(7)
Ag1A Ag -0.60389(6) -0.17141(6) 1.41002(6)
Ag2A Ag -0.08448(6) -0.53363(5) 1.43225(6)
C28A C -0.5440(8) -0.0298(7) 1.1902(7)
C29A C -0.5067(7) 0.1922(6) 1.0286(7)
C30A C -0.4423(6) -0.0063(6) 1.1121(6)
C31A C -0.4262(6) 0.0863(6) 1.0443(6)
C32A C -0.3224(6) 0.0885(6) 0.9800(6)
H19A H -0.3105 0.1515 0.9362
C33A C -0.2384(6) 0.0010(6) 0.9797(6)
C34A C -0.2554(7) -0.0923(7) 1.0428(7)
H20A H -0.2008 -0.1532 1.0402
C35A C -0.3526(7) -0.0944(6) 1.1088(7)
H21A H -0.3608 -0.1575 1.1546
C36A C 0.0074(8) 0.3376(6) 0.6300(7)
C37A C -0.1822(7) 0.2602(7) 0.5964(8)
C38A C -0.0329(6) 0.2466(6) 0.7035(6)
C39A C -0.1287(6) 0.2143(5) 0.6912(6)
C40A C -0.1636(6) 0.1333(6) 0.7644(7)
H22A H -0.2254 0.1088 0.7557
C41A C -0.1095(7) 0.0882(6) 0.8495(7)
C42A C -0.0195(7) 0.1194(6) 0.8653(7)
H23A H 0.0152 0.0882 0.9249
C43A C 0.0211(7) 0.1984(6) 0.7922(7)
H24A H 0.0846 0.2198 0.8018
O1A O -0.5351(5) -0.1179(5) 1.2436(5)
O2A O -0.6312(5) 0.0419(5) 1.1995(5)
O3A O -0.6103(5) 0.2027(5) 1.0774(5)
H25A H -0.6200 0.1460 1.1134
O4A O -0.4754(5) 0.2663(4) 0.9701(5)
O5A O 0.1108(6) 0.3294(5) 0.6008(6)
O6A O -0.0693(5) 0.4200(4) 0.6052(5)
O7A O -0.1192(7) 0.2661(7) 0.5168(6)
O8A O -0.2893(6) 0.2830(5) 0.6003(5)
O9A O -0.1356(5) -0.0012(4) 0.9200(5)
Ag3A Ag 0.71038(5) 0.34245(5) 0.41361(5)
Ag1_2 Ag -0.39611(6) 0.17141(6) 0.58998(6)
Ag1A_2 Ag 0.39611(6) -0.17141(6) 1.41002(6)
Ag1A_3 Ag 0.39611(6) 0.82859(6) 0.41002(6)
Ag2_2 Ag 0.08448(6) -0.46637(5) 1.56775(6)
Ag2A_2 Ag -0.08448(6) 0.46637(5) 0.43225(6)
Ag2A_3 Ag 0.91552(6) 0.46637(5) 0.43225(6)
Ag3_2 Ag -0.71038(5) -0.34245(5) 1.58639(5)
Ag3_3 Ag 0.28962(5) -0.34245(5) 1.58639(5)
Ag3A_2 Ag -0.28962(5) 0.34245(5) 0.41361(5)
N2A_2 N -0.4804(5) -0.2358(5) 1.5427(5)
N3A_2 N -0.6567(6) -0.0572(6) 1.5014(6)
N5A_2 N -0.2151(5) -0.4764(5) 1.2990(5)
N6A_2 N -0.0050(5) -0.6173(5) 1.3062(6)
O6_2 O 0.0693(5) 0.5800(4) 0.3948(5)
O6A_2 O -0.0693(5) -0.5800(4) 1.6052(5)
O7_2 O 0.1192(7) 0.7339(7) 0.4832(6)
O7A_2 O 0.8808(7) 0.2661(7) 0.5168(6)
O8_2 O -0.7107(6) -0.2830(5) 1.3997(5)
O8_3 O 0.2893(6) 0.7170(5) 0.3997(5)
O8A_2 O 0.7107(6) 0.2830(5) 0.6003(5)
O10 O 0.2019(7) 0.5271(7) 0.2286(8)
O11? O 0.1719(11) 0.5730(12) 0.1428(16)
loop_
_geom_bond_atom_site_label_1
_geom_bond_atom_site_label_2
_geom_bond_site_symmetry_1
_geom_bond_site_symmetry_2
Ag1 N2 1_555 1_555
Ag2 N5 1_555 1_555
Ag3 N8 1_555 1_555
C1 C2 1_555 1_555
C2 C3 1_555 1_555
C3 C46 1_555 1_555
C4 H1 1_555 1_555
C5 C4 1_555 1_555
H2 C5 1_555 1_555
C6 C5 1_555 1_555
C7 C6 1_555 1_555
C8 C7 1_555 1_555
H3 C8 1_555 1_555
C9 C8 1_555 1_555
H4 C9 1_555 1_555
C10 C9 1_555 1_555
H5 C10 1_555 1_555
C11 C10 1_555 1_555
H6 C11 1_555 1_555
C12 H7 1_555 1_555
C13 C12 1_555 1_555
H8 C13 1_555 1_555
C14 C13 1_555 1_555
C15 C14 1_555 1_555
C16 C15 1_555 1_555
H9 C16 1_555 1_555
C17 C16 1_555 1_555
H10 C17 1_555 1_555
C18 C17 1_555 1_555
H11 C18 1_555 1_555
C19 C18 1_555 1_555
H12 C19 1_555 1_555
C20 H13 1_555 1_555
C21 C20 1_555 1_555
H14 C21 1_555 1_555
C22 C21 1_555 1_555
C23 C22 1_555 1_555
C24 C23 1_555 1_555
H15 C24 1_555 1_555
C25 C24 1_555 1_555
H16 C25 1_555 1_555
C26 C25 1_555 1_555
H17 C26 1_555 1_555
C27 C26 1_555 1_555
H18 C27 1_555 1_555
C28 C30 1_555 1_555
C29 C31 1_555 1_555
C30 C31 1_555 1_555
C31 C32 1_555 1_555
C32 H19 1_555 1_555
C33 C32 1_555 1_555
C34 C33 1_555 1_555
H20 C34 1_555 1_555
C35 C30 1_555 1_555
H21 C35 1_555 1_555
C36 C38 1_555 1_555
C37 C39 1_555 1_555
C38 C39 1_555 1_555
C39 C40 1_555 1_555
C40 H22 1_555 1_555
C41 C40 1_555 1_555
C42 C41 1_555 1_555
H23 C42 1_555 1_555
C43 C38 1_555 1_555
H24 C43 1_555 1_555
N1 C4 1_555 1_555
N2 C6 1_555 1_555
N3 Ag1 1_555 1_555
N4 C12 1_555 1_555
N5 C14 1_555 1_555
N6 Ag2 1_555 1_555
N7 C20 1_555 1_555
N8 C22 1_555 1_555
N9 Ag3 1_555 1_555
O1 Ag1 1_555 1_555
O2 C28 1_555 1_555
O3 C29 1_555 1_555
H25 O3 1_555 1_555
O4 C29 1_555 1_555
O5 C36 1_555 1_555
O6 C36 1_555 1_555
O7 C37 1_555 1_555
O8 C37 1_555 1_555
O9 C33 1_555 1_555
C44 C1 1_555 1_555
H26 C44 1_555 1_555
H27 C44 1_555 1_555
C45 C2 1_555 1_555
H28 C45 1_555 1_555
H29 C45 1_555 1_555
C46 N7 1_555 1_555
H30 C46 1_555 1_555
H31 C46 1_555 1_555
C1A C3 1_555 1_555
C2A C1A 1_555 1_555
C3A C1 1_555 1_555
C4A H1A 1_555 1_555
C5A C4A 1_555 1_555
H2A C5A 1_555 1_555
C6A C5A 1_555 1_555
C7A C6A 1_555 1_555
C8A C7A 1_555 1_555
H3A C8A 1_555 1_555
C9A C8A 1_555 1_555
H4A C9A 1_555 1_555
C10A C9A 1_555 1_555
H5A C10A 1_555 1_555
C11A C10A 1_555 1_555
H6A C11A 1_555 1_555
C12A H7A 1_555 1_555
C13A C12A 1_555 1_555
H8A C13A 1_555 1_555
C14A C13A 1_555 1_555
C15A C14A 1_555 1_555
C16A C15A 1_555 1_555
H9A C16A 1_555 1_555
C17A C16A 1_555 1_555
H10A C17A 1_555 1_555
C18A C17A 1_555 1_555
H11A C18A 1_555 1_555
C19A C18A 1_555 1_555
H12A C19A 1_555 1_555
C20A H13A 1_555 1_555
C21A C20A 1_555 1_555
H14A C21A 1_555 1_555
C22A C21A 1_555 1_555
C23A C22A 1_555 1_555
C24A C23A 1_555 1_555
H15A C24A 1_555 1_555
C25A C24A 1_555 1_555
H16A C25A 1_555 1_555
C26A C25A 1_555 1_555
H17A C26A 1_555 1_555
C27A C26A 1_555 1_555
H18A C27A 1_555 1_555
N1A C4A 1_555 1_555
N2A C6A 1_555 1_555
N3A C7A 1_555 1_555
N4A C12A 1_555 1_555
N5A C14A 1_555 1_555
N6A C15A 1_555 1_555
N7A C20A 1_555 1_555
N8A C22A 1_555 1_555
N9A C23A 1_555 1_555
C44A C1A 1_555 1_555
H26A C44A 1_555 1_555
H27A C44A 1_555 1_555
C45A C2A 1_555 1_555
H28A C45A 1_555 1_555
H29A C45A 1_555 1_555
C46A C3A 1_555 1_555
H30A C46A 1_555 1_555
H31A C46A 1_555 1_555
Ag1A O1A 1_555 1_555
Ag2A O5 1_555 1_555
C28A C30A 1_555 1_555
C29A C31A 1_555 1_555
C30A C31A 1_555 1_555
C31A C32A 1_555 1_555
C32A H19A 1_555 1_555
C33A C32A 1_555 1_555
C34A C33A 1_555 1_555
H20A C34A 1_555 1_555
C35A C30A 1_555 1_555
H21A C35A 1_555 1_555
C36A C38A 1_555 1_555
C37A C39A 1_555 1_555
C38A C39A 1_555 1_555
C39A C40A 1_555 1_555
C40A H22A 1_555 1_555
C41A C40A 1_555 1_555
C42A C41A 1_555 1_555
H23A C42A 1_555 1_555
C43A C38A 1_555 1_555
H24A C43A 1_555 1_555
O1A C28A 1_555 1_555
O2A C28A 1_555 1_555
O3A C29A 1_555 1_555
H25A O3A 1_555 1_555
O4A C29A 1_555 1_555
O5A Ag2 1_555 1_555
O6A Ag2 1_555 1_555
O7A C37A 1_555 1_555
O8A C37A 1_555 1_555
O9A C33A 1_555 1_555
Ag3A Ag1 1_555 1_555
Ag1_2 O8A 1_555 1_555
Ag1A_2 O8 1_555 1_555
Ag1A_3 Ag3 1_555 1_555
Ag2_2 O6 1_555 1_555
Ag2A_2 O6A 1_555 1_555
Ag2A_3 N5A 1_555 1_555
Ag3_2 Ag1A 1_555 1_555
Ag3_3 O7 1_555 1_555
Ag3A_2 O7A 1_555 1_555
N2A_2 Ag1A 1_555 1_555
N3A_2 Ag1A 1_555 1_555
N5A_2 Ag2A 1_555 1_555
N6A_2 Ag2A 1_555 1_555
O6_2 Ag2 1_555 1_555
O6A_2 Ag2A 1_555 1_555
O7_2 Ag3 1_555 1_555
O7A_2 Ag3A 1_555 1_555
O8_2 Ag1A 1_555 1_555
O8_3 Ag3 1_555 1_555
O8A_2 Ag1 1_555 1_555
C7 N3 1_555 1_555
C11 N3 1_555 1_555
C15 N6 1_555 1_555
C19 N6 1_555 1_555
C23 N9 1_555 1_555
C27 N9 1_555 1_555
C28 O1 1_555 1_555
C34 C35 1_555 1_555
C41 O9 1_555 1_555
C42 C43 1_555 1_555
N1 N2 1_555 1_555
N1 C44 1_555 1_555
N4 N5 1_555 1_555
N4 C45 1_555 1_555
N7 N8 1_555 1_555
O6 Ag2A 1_555 1_555
O8 Ag3_3 1_555 1_555
C2A C3A 1_555 1_555
C11A N3A 1_555 1_555
C19A N6A 1_555 1_555
C27A N9A 1_555 1_555
N1A N2A 1_555 1_555
N1A C44A 1_555 1_555
N2A Ag1A_3 1_555 1_555
N3A Ag1A_3 1_555 1_555
N4A N5A 1_555 1_555
N4A C45A 1_555 1_555
N6A Ag2A_3 1_555 1_555
N7A N8A 1_555 1_555
N7A C46A 1_555 1_555
N8A Ag3A 1_555 1_555
N9A Ag3A 1_555 1_555
C34A C35A 1_555 1_555
C36A O5A 1_555 1_555
C36A O6A 1_555 1_555
C41A O9A 1_555 1_555
C42A C43A 1_555 1_555
O8A Ag3A_2 1_555 1_555
Ag3A O8A_2 1_555 1_555
Ag1_2 Ag3A_2 1_555 1_555
Ag1A_2 Ag3_3 1_555 1_555
Ag1A_3 O8_3 1_555 1_555
Ag2_2 O6A_2 1_555 1_555
Ag2A_2 O6_2 1_555 1_555
Ag3_2 O8_2 1_555 1_555

#END
