
#######################################################################
#
#                 Cambridge Crystallographic Data Centre
#                                CCDC 
#
#######################################################################
#
# If this CIF has been generated from an entry in the Cambridge 
# Structural Database, then it will include bibliographic, chemical, 
# crystal, experimental, refinement or atomic coordinate data resulting 
# from the CCDC's data processing and validation procedures.
#
#######################################################################

data_DIZHEB
_symmetry_cell_setting           triclinic
_symmetry_space_group_name_H-M   'P -1'
_symmetry_Int_Tables_number      2
_space_group_name_Hall           '-P 1'
loop_
_symmetry_equiv_pos_site_id
_symmetry_equiv_pos_as_xyz
1 x,y,z
2 -x,-y,-z
_cell_length_a                   10.3250(7)
_cell_length_b                   14.1580(10)
_cell_length_c                   14.9160(10)
_cell_angle_alpha                68.417(7)
_cell_angle_beta                 71.336(7)
_cell_angle_gamma                81.650(6)
_cell_volume                     1920
loop_
_atom_site_label
_atom_site_type_symbol
_atom_site_fract_x
_atom_site_fract_y
_atom_site_fract_z
Ag1 Ag 0.71758(5) 0.08005(4) 0.79865(3)
Ag2 Ag 0.89470(4) 0.22688(3) 0.84876(3)
Ag3 Ag 1.21075(5) 0.22831(4) 0.75109(4)
C1 C 0.8570(5) -0.0078(3) 1.0330(3)
C2 C 0.9201(5) 0.0505(3) 1.0644(3)
C3 C 1.0608(5) 0.0572(3) 1.0325(3)
C4 C 0.5233(6) 0.1125(5) 1.0991(4)
H1 H 0.4961 0.0910 1.1691
C5 C 0.4721(5) 0.1948(5) 1.0367(5)
H2 H 0.4046 0.2410 1.0548
C6 C 0.5418(5) 0.1952(4) 0.9399(4)
C7 C 0.5311(5) 0.2664(4) 0.8422(4)
C8 C 0.4741(6) 0.3628(5) 0.8306(5)
H3 H 0.4382 0.3839 0.8861
C9 C 0.5242(8) 0.3959(7) 0.6585(7)
H4 H 0.5245 0.4390 0.5940
C10 C 0.5796(8) 0.2985(6) 0.6738(6)
H5 H 0.6150 0.2770 0.6186
C11 C 0.7413(6) 0.2673(4) 1.1525(4)
H6 H 0.7251 0.2499 1.2215
C12 C 0.7125(6) 0.3581(5) 1.0886(4)
H7 H 0.6732 0.4156 1.1044
C13 C 0.7533(5) 0.3478(4) 0.9953(4)
C14 C 0.7478(5) 0.4239(4) 0.8970(4)
C15 C 0.6851(6) 0.5179(4) 0.8892(5)
H8 H 0.6444 0.5356 0.9465
C16 C 0.6832(7) 0.5856(5) 0.7956(6)
H9 H 0.6425 0.6500 0.7885
C17 C 0.7419(7) 0.5565(5) 0.7138(6)
H10 H 0.7399 0.6004 0.6501
C18 C 0.8045(6) 0.4614(4) 0.7261(4)
H11 H 0.8461 0.4425 0.6697
C19 C 1.1078(6) 0.2999(4) 1.0551(4)
H12 H 1.0966 0.2906 1.1222
C20 C 1.1131(6) 0.3894(4) 0.9798(4)
H13 H 1.1072 0.4539 0.9839
C21 C 1.1292(5) 0.3652(4) 0.8948(4)
C22 C 1.1351(5) 0.4336(4) 0.7931(4)
C23 C 1.1125(6) 0.5379(4) 0.7709(5)
H14 H 1.0931 0.5656 0.8216
C24 C 1.1186(8) 0.5984(5) 0.6764(6)
H15 H 1.1053 0.6682 0.6616
C25 C 1.1441(8) 0.5587(5) 0.6015(6)
H16 H 1.1464 0.6002 0.5361
C26 C 1.1665(7) 0.4553(5) 0.6260(5)
H17 H 1.1861 0.4273 0.5755
C27 C 0.9947(6) 0.1960(4) 0.6572(4)
C28 C 1.1665(6) -0.1207(5) 0.5913(6)
C29 C 1.2309(6) 0.0124(8) 0.3470(6)
C30 C 1.0576(5) 0.1471(4) 0.5783(3)
C31 C 1.0859(5) 0.0441(4) 0.6063(3)
H18 H 1.0644 0.0061 0.6747
C32 C 1.1452(5) -0.0064(4) 0.5377(4)
C33 C 1.1740(5) 0.0505(5) 0.4365(4)
C34 C 1.1452(6) 0.1527(6) 0.4084(4)
H19 H 1.1635 0.1906 0.3402
C35 C 1.0901(6) 0.2018(4) 0.4774(4)
H20 H 1.0750 0.2719 0.4554
C36 C 1.3773(6) 0.1473(4) 0.6008(4)
C37 C 1.4726(10) 0.1992(8) 0.3654(8)
C38 C 1.4621(5) -0.0255(4) 0.6015(3)
H21 H 1.4362 -0.0438 0.6712
C39 C 1.4422(5) 0.0736(3) 0.5456(3)
C40 C 1.4810(5) 0.1004(4) 0.4405(3)
C41 C 1.5726(12) 0.3409(9) 0.3762(10)
H22 H 1.5358 0.3985 0.3966
H23 H 1.6280 0.3638 0.3072
H24 H 1.6275 0.2991 0.4181
N1 N 0.6203(4) 0.0680(3) 1.0417(3)
N2 N 0.6316(4) 0.1165(3) 0.9438(3)
N3 N 0.5849(5) 0.2335(4) 0.7645(4)
N4 N 0.7979(4) 0.2068(3) 1.0979(3)
N5 N 0.8066(4) 0.2557(3) 0.9999(3)
N6 N 0.8068(4) 0.3965(3) 0.8159(3)
N7 N 1.1216(4) 0.2267(3) 1.0160(3)
N8 N 1.1369(4) 0.2649(3) 0.9170(3)
N9 N 1.1610(5) 0.3928(3) 0.7208(3)
O1 O 0.9695(6) 0.2879(3) 0.6296(3)
O2 O 0.9722(4) 0.1373(3) 0.7479(2)
O3 O 1.1171(6) -0.1577(3) 0.6818(4)
O4 O 1.2347(5) -0.1753(4) 0.5383(5)
H25 H 1.2596 -0.1393 0.4788
O5 O 1.2827(6) -0.0793(6) 0.3658(5)
O6 O 1.2264(6) 0.0630(6) 0.2664(4)
O7 O 1.3234(4) 0.1093(3) 0.6935(3)
O8 O 1.3789(5) 0.2396(3) 0.5533(4)
O9 O 1.4650(10) 0.2842(6) 0.3857(6)
O10 O 1.4733(9) 0.2041(6) 0.2819(5)
C42 C 0.7035(6) -0.0223(5) 1.0745(5)
H26 H 0.671(6) -0.065(4) 1.058(4)
H27 H 0.672(6) -0.042(4) 1.143(5)
C43 C 0.8324(7) 0.0989(4) 1.1397(4)
H28 H 0.748(6) 0.065(4) 1.174(4)
H29 H 0.8783(4) 0.094(4) 1.185(4)
C44 C 1.1252(7) 0.1178(4) 1.0713(5)
H30 H 1.0799(13) 0.113(4) 1.142(4)
H31 H 1.209(6) 0.103(4) 1.063(4)
C45 C 0.4705(7) 0.4275(6) 0.7366(7)
H32 H 0.434(7) 0.4896(16) 0.7428(11)
C1A C 1.1430(5) 0.0078(3) 0.9670(3)
C2A C 1.0799(5) -0.0505(3) 0.9356(3)
C3A C 0.9392(5) -0.0572(3) 0.9675(3)
C4A C 1.4767(6) -0.1125(5) 0.9009(4)
H1A H 1.5039 -0.0910 0.8309
C5A C 1.5279(5) -0.1948(5) 0.9633(5)
H2A H 1.5954 -0.2410 0.9452
C6A C 1.4582(5) -0.1952(4) 1.0601(4)
C7A C 1.4689(5) -0.2664(4) 1.1578(4)
C8A C 1.5259(6) -0.3628(5) 1.1694(5)
H3A H 1.5618 -0.3839 1.1139
C9A C 1.4758(8) -0.3959(7) 1.3415(7)
H4A H 1.4755 -0.4390 1.4060
C10A C 1.4204(8) -0.2985(6) 1.3262(6)
H5A H 1.3850 -0.2770 1.3814
C11A C 1.2587(6) -0.2673(4) 0.8475(4)
H6A H 1.2749 -0.2499 0.7785
C12A C 1.2875(6) -0.3581(5) 0.9114(4)
H7A H 1.3268 -0.4156 0.8956
C13A C 1.2467(5) -0.3478(4) 1.0047(4)
C14A C 1.2522(5) -0.4239(4) 1.1030(4)
C15A C 1.3149(6) -0.5179(4) 1.1108(5)
H8A H 1.3556 -0.5356 1.0535
C16A C 1.3168(7) -0.5856(5) 1.2044(6)
H9A H 1.3575 -0.6500 1.2115
C17A C 1.2581(7) -0.5565(5) 1.2862(6)
H10A H 1.2601 -0.6004 1.3499
C18A C 1.1955(6) -0.4614(4) 1.2739(4)
H11A H 1.1539 -0.4425 1.3303
C19A C 0.8922(6) -0.2999(4) 0.9449(4)
H12A H 0.9034 -0.2906 0.8778
C20A C 0.8869(6) -0.3894(4) 1.0202(4)
H13A H 0.8928 -0.4539 1.0161
C21A C 0.8708(5) -0.3652(4) 1.1052(4)
C22A C 0.8649(5) -0.4336(4) 1.2069(4)
C23A C 0.8875(6) -0.5379(4) 1.2291(5)
H14A H 0.9069 -0.5656 1.1784
C24A C 0.8814(8) -0.5984(5) 1.3236(6)
H15A H 0.8947 -0.6682 1.3384
C25A C 0.8559(8) -0.5587(5) 1.3985(6)
H16A H 0.8536 -0.6002 1.4639
C26A C 0.8335(7) -0.4553(5) 1.3740(5)
H17A H 0.8139 -0.4273 1.4245
N1A N 1.3797(4) -0.0680(3) 0.9583(3)
N2A N 1.3684(4) -0.1165(3) 1.0562(3)
N3A N 1.4151(5) -0.2335(4) 1.2355(4)
N4A N 1.2021(4) -0.2068(3) 0.9021(3)
N5A N 1.1934(4) -0.2557(3) 1.0001(3)
N6A N 1.1932(4) -0.3965(3) 1.1841(3)
N7A N 0.8784(4) -0.2267(3) 0.9840(3)
N8A N 0.8631(4) -0.2649(3) 1.0830(3)
N9A N 0.8390(5) -0.3928(3) 1.2792(3)
C42A C 1.2965(6) 0.0223(5) 0.9255(5)
H26A H 1.329(6) 0.065(4) 0.942(4)
H27A H 1.328(6) 0.042(4) 0.857(5)
C43A C 1.1676(7) -0.0989(4) 0.8603(4)
H28A H 1.252(6) -0.065(4) 0.826(4)
H29A H 1.1217(4) -0.094(4) 0.815(4)
C44A C 0.8748(7) -0.1178(4) 0.9287(5)
H30A H 0.9201(13) -0.113(4) 0.858(4)
H31A H 0.791(6) -0.103(4) 0.937(4)
C45A C 1.5295(7) -0.4275(6) 1.2634(7)
H32A H 1.566(7) -0.4896(16) 1.2572(11)
C36A C 1.6227(6) -0.1473(4) 0.3992(4)
C37A C 1.5274(10) -0.1992(8) 0.6346(8)
C38A C 1.5379(5) 0.0255(4) 0.3985(3)
H21A H 1.5638 0.0438 0.3288
C39A C 1.5578(5) -0.0736(3) 0.4544(3)
C40A C 1.5190(5) -0.1004(4) 0.5595(3)
C41A C 1.4274(12) -0.3409(9) 0.6238(10)
H22A H 1.4642 -0.3985 0.6034
H23A H 1.3720 -0.3638 0.6928
H24A H 1.3725 -0.2991 0.5819
O7A O 1.6766(4) -0.1093(3) 0.3065(3)
O8A O 1.6211(5) -0.2396(3) 0.4467(4)
O9A O 1.5350(10) -0.2842(6) 0.6143(6)
O10A O 1.5267(9) -0.2041(6) 0.7181(5)
Ag1A Ag 1.28242(5) -0.08005(4) 0.20135(3)
Ag2A Ag 1.10530(4) -0.22688(3) 0.15124(3)
C27A C 1.0053(6) -0.1960(4) 0.3428(4)
C28A C 0.8335(6) 0.1207(5) 0.4087(6)
C29A C 0.7691(6) -0.0124(8) 0.6530(6)
C30A C 0.9424(5) -0.1471(4) 0.4217(3)
C31A C 0.9141(5) -0.0441(4) 0.3937(3)
H18A H 0.9356 -0.0061 0.3253
C32A C 0.8548(5) 0.0064(4) 0.4623(4)
C33A C 0.8260(5) -0.0505(5) 0.5635(4)
C34A C 0.8548(6) -0.1527(6) 0.5916(4)
H19A H 0.8365 -0.1906 0.6598
C35A C 0.9099(6) -0.2018(4) 0.5226(4)
H20A H 0.9250 -0.2719 0.5446
O1A O 1.0305(6) -0.2879(3) 0.3704(3)
O2A O 1.0278(4) -0.1373(3) 0.2521(2)
O3A O 0.8829(6) 0.1577(3) 0.3182(4)
O4A O 0.7653(5) 0.1753(4) 0.4617(5)
H25A H 0.7404 0.1393 0.5212
O5A O 0.7173(6) 0.0793(6) 0.6342(5)
O6A O 0.7736(6) -0.0630(6) 0.7336(4)
Ag3A Ag 0.78925(5) -0.22831(4) 1.24891(4)
Ag1A_2 Ag 1.28242(5) -0.08005(4) 1.20135(3)
Ag2A_2 Ag 1.10530(4) -0.22688(3) 1.15124(3)
Ag3A_2 Ag 1.78925(5) -0.22831(4) 0.24891(4)
N2A_2 N 1.3684(4) -0.1165(3) 0.0562(3)
N3A_2 N 1.4151(5) -0.2335(4) 0.2355(4)
N5A_2 N 1.1934(4) -0.2557(3) 0.0001(3)
N6A_2 N 1.1932(4) -0.3965(3) 0.1841(3)
O7A_2 O 0.6766(4) -0.1093(3) 1.3065(3)
loop_
_geom_bond_atom_site_label_1
_geom_bond_atom_site_label_2
_geom_bond_site_symmetry_1
_geom_bond_site_symmetry_2
Ag1 N2 1_555 1_555
Ag2 N5 1_555 1_555
Ag3 N8 1_555 1_555
C1 C2 1_555 1_555
C2 C3 1_555 1_555
C3 C44 1_555 1_555
C4 H1 1_555 1_555
C5 C4 1_555 1_555
H2 C5 1_555 1_555
C6 C5 1_555 1_555
C7 C6 1_555 1_555
C8 C7 1_555 1_555
H3 C8 1_555 1_555
C9 H4 1_555 1_555
C10 C9 1_555 1_555
H5 C10 1_555 1_555
C11 H6 1_555 1_555
C12 C11 1_555 1_555
H7 C12 1_555 1_555
C13 C12 1_555 1_555
C14 C13 1_555 1_555
C15 C14 1_555 1_555
H8 C15 1_555 1_555
C16 C15 1_555 1_555
H9 C16 1_555 1_555
C17 C16 1_555 1_555
H10 C17 1_555 1_555
C18 C17 1_555 1_555
H11 C18 1_555 1_555
C19 H12 1_555 1_555
C20 C19 1_555 1_555
H13 C20 1_555 1_555
C21 C20 1_555 1_555
C22 C21 1_555 1_555
C23 C22 1_555 1_555
H14 C23 1_555 1_555
C24 C23 1_555 1_555
H15 C24 1_555 1_555
C25 C24 1_555 1_555
H16 C25 1_555 1_555
C26 C25 1_555 1_555
H17 C26 1_555 1_555
C27 C30 1_555 1_555
C28 C32 1_555 1_555
C29 C33 1_555 1_555
C30 C31 1_555 1_555
C31 H18 1_555 1_555
C32 C31 1_555 1_555
C33 C32 1_555 1_555
C34 C33 1_555 1_555
H19 C34 1_555 1_555
C35 C30 1_555 1_555
H20 C35 1_555 1_555
C36 C39 1_555 1_555
C37 C40 1_555 1_555
C38 H21 1_555 1_555
C39 C38 1_555 1_555
C40 C39 1_555 1_555
C41 H22 1_555 1_555
H23 C41 1_555 1_555
H24 C41 1_555 1_555
N1 C4 1_555 1_555
N2 C6 1_555 1_555
N3 Ag1 1_555 1_555
N4 C11 1_555 1_555
N5 C13 1_555 1_555
N6 Ag2 1_555 1_555
N7 C19 1_555 1_555
N8 C21 1_555 1_555
N9 Ag3 1_555 1_555
O1 C27 1_555 1_555
O2 Ag1 1_555 1_555
O3 C28 1_555 1_555
O4 C28 1_555 1_555
H25 O4 1_555 1_555
O5 C29 1_555 1_555
O6 C29 1_555 1_555
O7 Ag3 1_555 1_555
O8 C36 1_555 1_555
O9 C37 1_555 1_555
O10 C37 1_555 1_555
C42 C1 1_555 1_555
H26 C42 1_555 1_555
H27 C42 1_555 1_555
C43 C2 1_555 1_555
H28 C43 1_555 1_555
H29 C43 1_555 1_555
C44 N7 1_555 1_555
H30 C44 1_555 1_555
H31 C44 1_555 1_555
C45 C8 1_555 1_555
H32 C45 1_555 1_555
C1A C3 1_555 1_555
C2A C1A 1_555 1_555
C3A C1 1_555 1_555
C4A H1A 1_555 1_555
C5A C4A 1_555 1_555
H2A C5A 1_555 1_555
C6A C5A 1_555 1_555
C7A C6A 1_555 1_555
C8A C7A 1_555 1_555
H3A C8A 1_555 1_555
C9A H4A 1_555 1_555
C10A C9A 1_555 1_555
H5A C10A 1_555 1_555
C11A H6A 1_555 1_555
C12A C11A 1_555 1_555
H7A C12A 1_555 1_555
C13A C12A 1_555 1_555
C14A C13A 1_555 1_555
C15A C14A 1_555 1_555
H8A C15A 1_555 1_555
C16A C15A 1_555 1_555
H9A C16A 1_555 1_555
C17A C16A 1_555 1_555
H10A C17A 1_555 1_555
C18A C17A 1_555 1_555
H11A C18A 1_555 1_555
C19A H12A 1_555 1_555
C20A C19A 1_555 1_555
H13A C20A 1_555 1_555
C21A C20A 1_555 1_555
C22A C21A 1_555 1_555
C23A C22A 1_555 1_555
H14A C23A 1_555 1_555
C24A C23A 1_555 1_555
H15A C24A 1_555 1_555
C25A C24A 1_555 1_555
H16A C25A 1_555 1_555
C26A C25A 1_555 1_555
H17A C26A 1_555 1_555
N1A C4A 1_555 1_555
N2A C6A 1_555 1_555
N3A C7A 1_555 1_555
N4A C11A 1_555 1_555
N5A C13A 1_555 1_555
N6A C14A 1_555 1_555
N7A C19A 1_555 1_555
N8A C21A 1_555 1_555
N9A C22A 1_555 1_555
C42A C1A 1_555 1_555
H26A C42A 1_555 1_555
H27A C42A 1_555 1_555
C43A C2A 1_555 1_555
H28A C43A 1_555 1_555
H29A C43A 1_555 1_555
C44A C3A 1_555 1_555
H30A C44A 1_555 1_555
H31A C44A 1_555 1_555
C45A C8A 1_555 1_555
H32A C45A 1_555 1_555
C36A C39A 1_555 1_555
C37A C40A 1_555 1_555
C38A C40 1_555 1_555
H21A C38A 1_555 1_555
C39A C38A 1_555 1_555
C40A C38 1_555 1_555
C41A H22A 1_555 1_555
H23A C41A 1_555 1_555
H24A C41A 1_555 1_555
O7A C36A 1_555 1_555
O8A C36A 1_555 1_555
O9A C37A 1_555 1_555
O10A C37A 1_555 1_555
Ag1A O5 1_555 1_555
Ag2A O2A 1_555 1_555
C27A C30A 1_555 1_555
C28A C32A 1_555 1_555
C29A C33A 1_555 1_555
C30A C31A 1_555 1_555
C31A H18A 1_555 1_555
C32A C31A 1_555 1_555
C33A C32A 1_555 1_555
C34A C33A 1_555 1_555
H19A C34A 1_555 1_555
C35A C30A 1_555 1_555
H20A C35A 1_555 1_555
O1A C27A 1_555 1_555
O2A Ag1A 1_555 1_555
O3A C28A 1_555 1_555
O4A C28A 1_555 1_555
H25A O4A 1_555 1_555
O5A Ag1 1_555 1_555
O6A Ag1 1_555 1_555
Ag3A N8A 1_555 1_555
Ag1A_2 N2A 1_555 1_555
Ag2A_2 N5A 1_555 1_555
Ag3A_2 O7A 1_555 1_555
N2A_2 Ag1A 1_555 1_555
N3A_2 Ag1A 1_555 1_555
N5A_2 Ag2A 1_555 1_555
N6A_2 Ag2A 1_555 1_555
O7A_2 Ag3A 1_555 1_555
Ag2 O2 1_555 1_555
C7 N3 1_555 1_555
C9 C45 1_555 1_555
C10 N3 1_555 1_555
C14 N6 1_555 1_555
C18 N6 1_555 1_555
C22 N9 1_555 1_555
C26 N9 1_555 1_555
C27 O2 1_555 1_555
C34 C35 1_555 1_555
C36 O7 1_555 1_555
C41 O9 1_555 1_555
N1 N2 1_555 1_555
N1 C42 1_555 1_555
N4 N5 1_555 1_555
N4 C43 1_555 1_555
N7 N8 1_555 1_555
O6 Ag1A 1_555 1_555
C2A C3A 1_555 1_555
C9A C45A 1_555 1_555
C10A N3A 1_555 1_555
C18A N6A 1_555 1_555
C26A N9A 1_555 1_555
N1A N2A 1_555 1_555
N1A C42A 1_555 1_555
N3A Ag1A_2 1_555 1_555
N4A N5A 1_555 1_555
N4A C43A 1_555 1_555
N6A Ag2A_2 1_555 1_555
N7A N8A 1_555 1_555
N7A C44A 1_555 1_555
N9A Ag3A 1_555 1_555
C39A C40A 1_555 1_555
C41A O9A 1_555 1_555
C27A O2A 1_555 1_555
C29A O5A 1_555 1_555
C29A O6A 1_555 1_555
C34A C35A 1_555 1_555

#END
