
#######################################################################
#
#                 Cambridge Crystallographic Data Centre
#                                CCDC 
#
#######################################################################
#
# If this CIF has been generated from an entry in the Cambridge 
# Structural Database, then it will include bibliographic, chemical, 
# crystal, experimental, refinement or atomic coordinate data resulting 
# from the CCDC's data processing and validation procedures.
#
#######################################################################

data_DIZPIL
_symmetry_cell_setting           triclinic
_symmetry_space_group_name_H-M   'P -1'
_symmetry_Int_Tables_number      2
_space_group_name_Hall           '-P 1'
loop_
_symmetry_equiv_pos_site_id
_symmetry_equiv_pos_as_xyz
1 x,y,z
2 -x,-y,-z
_cell_length_a                   12.376(3)
_cell_length_b                   12.730(2)
_cell_length_c                   13.340(3)
_cell_angle_alpha                89.97(2)
_cell_angle_beta                 90.42(2)
_cell_angle_gamma                90.90(2)
_cell_volume                     2101.35
loop_
_atom_site_label
_atom_site_type_symbol
_atom_site_fract_x
_atom_site_fract_y
_atom_site_fract_z
S2 S 0.6811(3) 0.2742(2) 0.7965(2)
F4 F 0.8777(10) 0.3038(9) 0.7292(9)
F5 F 0.7656(8) 0.2680(8) 0.6178(7)
F6 F 0.8174(8) 0.1452(8) 0.7140(8)
O4 O 0.7240(9) 0.2405(9) 0.8927(8)
O5 O 0.6698(8) 0.3845(8) 0.7872(7)
O6 O 0.5928(9) 0.2139(9) 0.7573(8)
C2 C 0.7900(11) 0.2467(11) 0.7105(10)
S3 S 0.2251(3) 0.7731(5) 0.7666(3)
F7 F 0.4135(8) 0.7502(8) 0.7232(8)
F8 F 0.3030(8) 0.7453(8) 0.6005(8)
F9 F 0.2967(8) 0.6228(8) 0.7127(8)
O7 O 0.2409(3) 0.7589(5) 0.8723(3)
O8 O 0.1170(3) 0.7493(5) 0.7339(3)
O9 O 0.2659(3) 0.8720(5) 0.7307(3)
C3 C 0.3202(8) 0.7179(8) 0.6921(8)
S8 S 0.0484(4) 0.3924(3) 0.4377(4)
O14 O 0.1415(9) 0.4538(8) 0.3922(8)
C12 C 0.0576(15) 0.4179(15) 0.5677(14)
C13 C -0.0739(14) 0.4670(14) 0.4123(14)
C13A C 0.0739(14) 0.5330(14) 0.5877(14)
C12A C -0.0576(15) 0.5821(15) 0.4323(14)
S8A S -0.0484(4) 0.6076(3) 0.5623(4)
O14A O -0.1415(9) 0.5462(8) 0.6078(8)
S9 S 0.9560(3) 0.8714(3) 0.4772(3)
O15 O 0.8700(8) 0.8730(8) 0.5557(8)
C14 C 0.9335(12) 0.9872(12) 0.3993(11)
C15 C 1.0802(11) 0.9143(11) 0.5351(11)
C15A C 0.9198(11) 1.0857(11) 0.4649(11)
C14A C 1.0665(12) 1.0128(12) 0.6007(11)
S9A S 1.0440(3) 1.1286(3) 0.5228(3)
O15A O 1.1300(8) 1.1270(8) 0.4443(8)
S10 S 0.6158(4) 0.5801(3) 0.4861(3)
O16 O 0.5819(10) 0.6613(10) 0.5598(9)
C16 C 0.6047(13) 0.4549(13) 0.5461(12)
C17 C 0.5046(14) 0.5601(13) 0.4011(13)
C17A C 0.4954(14) 0.4399(13) 0.5989(13)
C16A C 0.3953(13) 0.5451(13) 0.4539(12)
S10A S 0.3842(4) 0.4199(3) 0.5139(3)
O16A O 0.4181(10) 0.3387(10) 0.4402(9)
S11 S 0.6068(3) 0.0254(3) -0.4169(3)
O17 O 0.5605(8) -0.0414(8) -0.3348(7)
C18 C 0.6088(12) -0.0537(11) -0.5288(11)
C19 C 0.5014(11) 0.1139(11) -0.4532(11)
C19A C 0.4986(11) -0.1139(11) -0.5468(11)
C18A C 0.3912(12) 0.0537(11) -0.4712(11)
S11A S 0.3932(3) -0.0254(3) -0.5831(3)
O17A O 0.4395(8) 0.0414(8) -0.6652(7)
Nd1 Nd 0.2432(1) 0.2495(1) 0.1203(1)
S1 S 0.1819(2) 0.2668(2) -0.1600(2)
S4 S 0.0133(2) 0.4277(2) 0.1113(2)
S5 S 0.3903(2) 0.0123(2) 0.0825(2)
S6 S 0.4615(2) 0.3690(2) -0.0187(2)
S7 S 0.0757(2) 0.0020(2) 0.1109(2)
F1 F 0.3690(9) 0.2722(9) -0.2507(8)
F2 F 0.2940(8) 0.1218(8) -0.2452(8)
F3 F 0.2353(7) 0.2356(7) -0.3463(7)
O1 O 0.2425(7) 0.2497(7) -0.0683(7)
O2 O 0.1695(9) 0.3737(8) -0.1842(8)
O3 O 0.0886(9) 0.2034(9) -0.1732(8)
O10 O 0.0846(6) 0.3447(6) 0.0650(6)
O11 O 0.3880(6) 0.1326(6) 0.0782(6)
O12 O 0.3806(6) 0.3742(6) 0.0666(6)
O13 O 0.1518(7) 0.0882(6) 0.0743(6)
O18 O 0.1043(7) 0.2167(6) 0.2549(6)
O19 O 0.2412(7) 0.4107(6) 0.2247(6)
O20 O 0.3367(7) 0.2146(6) 0.2785(6)
C1 C 0.2737(10) 0.2202(10) -0.2538(9)
C4 C 0.0755(10) 0.5510(10) 0.0811(9)
C5 C -0.1040(10) 0.4343(10) 0.0281(9)
C6 C 0.5258(10) -0.0226(10) 0.1124(9)
C7 C 0.3891(10) -0.0315(9) -0.0469(9)
C8 C 0.4291(10) 0.4812(9) -0.0969(9)
C9 C 0.5852(10) 0.4171(10) 0.0354(9)
C10 C -0.0607(10) 0.0526(9) 0.0899(9)
C11 C 0.0755(10) -0.0956(9) 0.0156(9)
C5A C 0.1040(10) 0.5657(10) -0.0281(9)
C4A C -0.0755(10) 0.4490(10) -0.0811(9)
C7A C 0.6109(10) 0.0315(9) 0.0469(9)
C6A C 0.4742(10) 0.0226(10) -0.1124(9)
C9A C 0.4148(10) 0.5829(10) -0.0354(9)
C8A C 0.5709(10) 0.5188(9) 0.0969(9)
C11A C -0.0755(10) 0.0956(9) -0.0156(9)
C10A C 0.0607(10) -0.0526(9) -0.0899(9)
S4A S -0.0133(2) 0.5723(2) -0.1113(2)
S5A S 0.6097(2) -0.0123(2) -0.0825(2)
S6A S 0.5385(2) 0.6310(2) 0.0187(2)
S7A S -0.0757(2) -0.0020(2) -0.1109(2)
O10A O -0.0846(6) 0.6553(6) -0.0650(6)
O11A O 0.6120(6) -0.1326(6) -0.0782(6)
O12A O 0.6194(6) 0.6258(6) -0.0666(6)
O13A O -0.1518(7) -0.0882(6) -0.0743(6)
Nd1A Nd -0.2432(1) 0.7505(1) -0.1203(1)
Nd1A_2 Nd 0.7568(1) -0.2495(1) -0.1203(1)
Nd1A_3 Nd 0.7568(1) 0.7505(1) -0.1203(1)
Nd1A_4 Nd -0.2432(1) -0.2495(1) -0.1203(1)
O1A O -0.2425(7) 0.7503(7) 0.0683(7)
O11A_2 O -0.3880(6) 0.8674(6) -0.0782(6)
O12A_2 O -0.3806(6) 0.6258(6) -0.0666(6)
O13A_2 O -0.1518(7) 0.9118(6) -0.0743(6)
O18A O -0.1043(7) 0.7833(6) -0.2549(6)
O19A O -0.2412(7) 0.5893(6) -0.2247(6)
O20A O -0.3367(7) 0.7854(6) -0.2785(6)
S1A S -0.1819(2) 0.7332(2) 0.1600(2)
O2A O -0.1695(9) 0.6263(8) 0.1842(8)
O3A O -0.0886(9) 0.7966(9) 0.1732(8)
C1A C -0.2737(10) 0.7798(10) 0.2538(9)
F1A F -0.3690(9) 0.7278(9) 0.2507(8)
F2A F -0.2940(8) 0.8782(8) 0.2452(8)
F3A F -0.2353(7) 0.7644(7) 0.3463(7)
loop_
_geom_bond_atom_site_label_1
_geom_bond_atom_site_label_2
_geom_bond_site_symmetry_1
_geom_bond_site_symmetry_2
Nd1 O1 1_555 1_555
S1 O1 1_555 1_555
S2 O4 1_555 1_555
S3 O7 1_555 1_555
S4 O10 1_555 1_555
S5 O11 1_555 1_555
S6 O12 1_555 1_555
S7 O13 1_555 1_555
S8 O14 1_555 1_555
S9 O15 1_555 1_555
S10 O16 1_555 1_555
S11 O17 1_555 1_555
F1 C1 1_555 1_555
F2 C1 1_555 1_555
F3 C1 1_555 1_555
F4 C2 1_555 1_555
F5 C2 1_555 1_555
F6 C2 1_555 1_555
F7 C3 1_555 1_555
F8 C3 1_555 1_555
F9 C3 1_555 1_555
O2 S1 1_555 1_555
O3 S1 1_555 1_555
O5 S2 1_555 1_555
O6 S2 1_555 1_555
O8 S3 1_555 1_555
O9 S3 1_555 1_555
O10 Nd1 1_555 1_555
O11 Nd1 1_555 1_555
O12 Nd1 1_555 1_555
O13 Nd1 1_555 1_555
O18 Nd1 1_555 1_555
O19 Nd1 1_555 1_555
O20 Nd1 1_555 1_555
C1 S1 1_555 1_555
C2 S2 1_555 1_555
C3 S3 1_555 1_555
C4 S4 1_555 1_555
C5 S4 1_555 1_555
C6 S5 1_555 1_555
C7 S5 1_555 1_555
C8 S6 1_555 1_555
C9 S6 1_555 1_555
C10 S7 1_555 1_555
C11 S7 1_555 1_555
C12 S8 1_555 1_555
C13 S8 1_555 1_555
C14 S9 1_555 1_555
C15 S9 1_555 1_555
C16 S10 1_555 1_555
C17 S10 1_555 1_555
C18 S11 1_555 1_555
C19 S11 1_555 1_555
C5A C4 1_555 1_555
C4A C5 1_555 1_555
C7A C6 1_555 1_555
C6A C7 1_555 1_555
C9A C8 1_555 1_555
C8A C9 1_555 1_555
C11A C10 1_555 1_555
C10A C11 1_555 1_555
S4A C5A 1_555 1_555
S5A C7A 1_555 1_555
S6A C9A 1_555 1_555
S7A C11A 1_555 1_555
O10A S4A 1_555 1_555
O11A S5A 1_555 1_555
O12A S6A 1_555 1_555
O13A S7A 1_555 1_555
Nd1A O10A 1_555 1_555
Nd1A_2 O11A 1_555 1_555
Nd1A_3 O12A 1_555 1_555
Nd1A_4 O13A 1_555 1_555
O1A Nd1A 1_555 1_555
O11A_2 Nd1A 1_555 1_555
O12A_2 Nd1A 1_555 1_555
O13A_2 Nd1A 1_555 1_555
O18A Nd1A 1_555 1_555
O19A Nd1A 1_555 1_555
O20A Nd1A 1_555 1_555
S1A O1A 1_555 1_555
O2A S1A 1_555 1_555
O3A S1A 1_555 1_555
C1A S1A 1_555 1_555
F1A C1A 1_555 1_555
F2A C1A 1_555 1_555
F3A C1A 1_555 1_555
C13A C12 1_555 1_555
C12A C13 1_555 1_555
S8A C13A 1_555 1_555
O14A S8A 1_555 1_555
C15A C14 1_555 1_555
C14A C15 1_555 1_555
S9A C15A 1_555 1_555
O15A S9A 1_555 1_555
C17A C16 1_555 1_555
C16A C17 1_555 1_555
S10A C17A 1_555 1_555
O16A S10A 1_555 1_555
C19A C18 1_555 1_555
C18A C19 1_555 1_555
S11A C19A 1_555 1_555
O17A S11A 1_555 1_555
C4A S4A 1_555 1_555
C6A S5A 1_555 1_555
C8A S6A 1_555 1_555
C10A S7A 1_555 1_555
C12A S8A 1_555 1_555
C14A S9A 1_555 1_555
C16A S10A 1_555 1_555
C18A S11A 1_555 1_555

#END
