
#######################################################################
#
#                 Cambridge Crystallographic Data Centre
#                                CCDC 
#
#######################################################################
#
# If this CIF has been generated from an entry in the Cambridge 
# Structural Database, then it will include bibliographic, chemical, 
# crystal, experimental, refinement or atomic coordinate data resulting 
# from the CCDC's data processing and validation procedures.
#
#######################################################################

data_DIZWEP
_symmetry_cell_setting           triclinic
_symmetry_space_group_name_H-M   'P -1'
_symmetry_Int_Tables_number      2
_space_group_name_Hall           '-P 1'
loop_
_symmetry_equiv_pos_site_id
_symmetry_equiv_pos_as_xyz
1 x,y,z
2 -x,-y,-z
_cell_length_a                   7.736(3)
_cell_length_b                   11.519(4)
_cell_length_c                   13.543(5)
_cell_angle_alpha                83.152(7)
_cell_angle_beta                 83.910(7)
_cell_angle_gamma                71.006(6)
_cell_volume                     1130.07
loop_
_atom_site_label
_atom_site_type_symbol
_atom_site_fract_x
_atom_site_fract_y
_atom_site_fract_z
Co1 Co 0.18794(7) 0.38135(5) 0.48694(4)
O1 O 0.1323(4) 0.3437(3) 0.3520(2)
O2 O 0.3912(4) 0.3077(3) 0.2525(2)
O3 O -0.2404(6) 0.0984(4) 0.0136(2)
O4 O -0.0904(4) 0.4234(2) -0.46324(18)
O5 O -0.2382(4) 0.2917(3) -0.4843(2)
C1 C 0.2287(6) 0.3091(4) 0.2727(3)
C2 C 0.1356(6) 0.2675(4) 0.1979(3)
C3 C -0.0307(6) 0.2473(4) 0.2241(3)
H1 H -0.0828 0.2565 0.2890
C4 C -0.1203(7) 0.2136(4) 0.1550(3)
H2 H -0.2318 0.2000 0.1736
C5 C -0.0448(6) 0.2002(4) 0.0581(3)
C6 C 0.1230(7) 0.2183(5) 0.0324(3)
H3 H 0.1755 0.2086 -0.0324
C7 C 0.2127(6) 0.2503(4) 0.1018(3)
H4 H 0.3266 0.2606 0.0839
C8 C -0.1429(7) 0.1613(4) -0.0145(3)
C9 C -0.1250(6) 0.2037(4) -0.1229(3)
C10 C -0.1182(6) 0.3206(4) -0.1545(3)
H5 H -0.1084 0.3714 -0.1084
C11 C -0.1259(6) 0.3630(4) -0.2548(3)
H6 H -0.1197 0.4415 -0.2756
C12 C -0.1428(5) 0.2888(3) -0.3239(3)
C13 C -0.1455(6) 0.1697(4) -0.2923(3)
H7 H -0.1536 0.1186 -0.3386
C14 C -0.1361(6) 0.1274(4) -0.1929(3)
H8 H -0.1372 0.0476 -0.1723
C15 C -0.1613(5) 0.3363(3) -0.4323(3)
N1 N 0.2470(5) 0.1894(3) 0.5368(2)
N2 N 0.2799(4) 0.3714(3) 0.6297(2)
C16 C 0.2223(6) 0.1006(4) 0.4912(3)
H9 H 0.1747 0.1207 0.4290
C17 C 0.2645(7) -0.0208(4) 0.5324(4)
H10 H 0.2454 -0.0803 0.4980
C18 C 0.3341(7) -0.0519(4) 0.6236(4)
H11 H 0.3635 -0.1331 0.6515
C19 C 0.3617(6) 0.0378(4) 0.6753(3)
C20 C 0.4301(6) 0.0161(4) 0.7713(3)
H12 H 0.4643 -0.0638 0.8022
C21 C 0.4469(6) 0.1068(4) 0.8189(3)
H13 H 0.4913 0.0891 0.8820
C22 C 0.3972(5) 0.2309(4) 0.7737(3)
C23 C 0.4063(6) 0.3310(4) 0.8195(3)
H14 H 0.4477 0.3191 0.8831
C24 C 0.3541(7) 0.4469(4) 0.7706(3)
H15 H 0.3613 0.5137 0.8005
C25 C 0.2904(6) 0.4637(4) 0.6761(3)
H16 H 0.2536 0.5430 0.6441
C26 C 0.3326(5) 0.2561(4) 0.6783(3)
C27 C 0.3142(5) 0.1589(4) 0.6280(3)
O6 O 0.4418(4) 0.3861(3) 0.4217(2)
H17 H 0.4524 0.3599 0.3646
H18 H 0.5383 0.3512 0.4525
Co1_2 Co 0.18794(7) 0.38135(5) -0.51306(4)
Co1A Co -0.18794(7) 0.61865(5) -0.48694(4)
O4_2 O -0.0904(4) 0.4234(2) 0.53676(18)
O4A O 0.0904(4) 0.5766(2) 0.46324(18)
loop_
_geom_bond_atom_site_label_1
_geom_bond_atom_site_label_2
_geom_bond_site_symmetry_1
_geom_bond_site_symmetry_2
Co1 O1 1_555 1_555
O1 C1 1_555 1_555
O2 C1 1_555 1_555
O3 C8 1_555 1_555
O4 C15 1_555 1_555
O5 C15 1_555 1_555
C1 C2 1_555 1_555
C2 C3 1_555 1_555
C3 H1 1_555 1_555
C4 C3 1_555 1_555
H2 C4 1_555 1_555
C5 C4 1_555 1_555
C6 C5 1_555 1_555
H3 C6 1_555 1_555
C7 C2 1_555 1_555
H4 C7 1_555 1_555
C8 C5 1_555 1_555
C9 C8 1_555 1_555
C10 C9 1_555 1_555
H5 C10 1_555 1_555
C11 C10 1_555 1_555
H6 C11 1_555 1_555
C12 C11 1_555 1_555
C13 C12 1_555 1_555
H7 C13 1_555 1_555
C14 C9 1_555 1_555
H8 C14 1_555 1_555
C15 C12 1_555 1_555
N1 Co1 1_555 1_555
N2 Co1 1_555 1_555
C16 N1 1_555 1_555
H9 C16 1_555 1_555
C17 C16 1_555 1_555
H10 C17 1_555 1_555
C18 C17 1_555 1_555
H11 C18 1_555 1_555
C19 C18 1_555 1_555
C20 C19 1_555 1_555
H12 C20 1_555 1_555
C21 C20 1_555 1_555
H13 C21 1_555 1_555
C22 C21 1_555 1_555
C23 C22 1_555 1_555
H14 C23 1_555 1_555
C24 C23 1_555 1_555
H15 C24 1_555 1_555
C25 N2 1_555 1_555
H16 C25 1_555 1_555
C26 N2 1_555 1_555
C27 N1 1_555 1_555
O6 Co1 1_555 1_555
H17 O6 1_555 1_555
H18 O6 1_555 1_555
Co1_2 O4 1_555 1_555
Co1A O4 1_555 1_555
O4_2 Co1 1_555 1_555
O4A Co1 1_555 1_555
C6 C7 1_555 1_555
C13 C14 1_555 1_555
C19 C27 1_555 1_555
C22 C26 1_555 1_555
C24 C25 1_555 1_555
C26 C27 1_555 1_555

#END
