
#######################################################################
#
#                 Cambridge Crystallographic Data Centre
#                                CCDC 
#
#######################################################################
#
# If this CIF has been generated from an entry in the Cambridge 
# Structural Database, then it will include bibliographic, chemical, 
# crystal, experimental, refinement or atomic coordinate data resulting 
# from the CCDC's data processing and validation procedures.
#
#######################################################################

data_DIZWIT
_symmetry_cell_setting           monoclinic
_symmetry_space_group_name_H-M   'C 2/c'
_symmetry_Int_Tables_number      15
_space_group_name_Hall           '-C 2yn'
loop_
_symmetry_equiv_pos_site_id
_symmetry_equiv_pos_as_xyz
1 x,y,z
2 1/2+x,1/2+y,z
3 -x,y,1/2-z
4 1/2-x,1/2+y,1/2-z
5 -x,-y,-z
6 1/2-x,1/2-y,-z
7 x,-y,1/2+z
8 1/2+x,1/2-y,1/2+z
_cell_length_a                   15.4239(18)
_cell_length_b                   16.664(2)
_cell_length_c                   23.997(3)
_cell_angle_alpha                90
_cell_angle_beta                 97.477(2)
_cell_angle_gamma                90
_cell_volume                     6115.36
loop_
_atom_site_label
_atom_site_type_symbol
_atom_site_fract_x
_atom_site_fract_y
_atom_site_fract_z
Co1 Co 0.81012(3) 0.04946(3) 0.50361(2)
Co2 Co 0.7500 0.2500 0.5000
O1 O 0.92448(16) 0.10733(16) 0.52619(11)
O2 O 0.87537(16) 0.23020(16) 0.54538(11)
O3 O 1.32489(19) 0.1954(2) 0.68093(13)
O4 O 1.25446(15) 0.35723(15) 0.94877(10)
O5 O 1.33531(19) 0.44959(16) 0.91597(11)
O6 O 0.76681(18) 0.07935(17) 0.57693(12)
O7 O 0.68301(17) 0.18790(17) 0.55904(11)
O8 O 0.5000 -0.0743(4) 0.7500
N1 N 0.8539(2) -0.06134(18) 0.53701(13)
N2 N 0.6979(2) -0.0249(2) 0.48509(15)
C1 C 0.9314(2) 0.1751(2) 0.54964(15)
C2 C 1.0164(2) 0.1896(2) 0.58784(15)
C3 C 1.0268(2) 0.2555(2) 0.62286(17)
H1 H 0.9826 0.2936 0.6218
C4 C 1.1038(3) 0.2651(3) 0.65986(17)
H2 H 1.1094 0.3081 0.6847
C5 C 1.1723(2) 0.2106(3) 0.65980(16)
C6 C 1.1618(2) 0.1455(3) 0.62367(17)
H3 H 1.2072 0.1090 0.6231
C7 C 1.0848(2) 0.1343(2) 0.58863(16)
H4 H 1.0782 0.0897 0.5652
C8 C 1.2580(3) 0.2227(3) 0.69577(17)
C9 C 1.2616(3) 0.2691(3) 0.74914(16)
C10 C 1.2032(3) 0.2530(3) 0.78714(17)
H5 H 1.1572 0.2174 0.7776
C11 C 1.2136(3) 0.2899(3) 0.83923(16)
H6 H 1.1767 0.2767 0.8656
C12 C 1.2791(2) 0.3465(2) 0.85221(15)
C13 C 1.3345(3) 0.3650(3) 0.81315(17)
H7 H 1.3770 0.4045 0.8210
C14 C 1.3268(3) 0.3244(3) 0.76220(17)
H8 H 1.3660 0.3349 0.7368
C15 C 1.2907(2) 0.3869(2) 0.90827(15)
C16 C 0.7068(2) 0.1266(2) 0.58644(15)
C17 C 0.6584(2) 0.1017(2) 0.63468(16)
C18 C 0.6803(3) 0.0302(3) 0.6623(2)
H9 H 0.7285 0.0013 0.6540
C19 C 0.6316(4) 0.0017(3) 0.7017(3)
H10 H 0.6482 -0.0457 0.7205
C20 C 0.5577(4) 0.0423(3) 0.7141(2)
C21 C 0.5383(3) 0.1158(3) 0.68895(19)
H11 H 0.4914 0.1455 0.6985
C22 C 0.5882(2) 0.1455(2) 0.64981(17)
H12 H 0.5748 0.1953 0.6334
C23 C 0.5000 0.0012(4) 0.7500
C24 C 0.9366(3) -0.0780(3) 0.55853(18)
H13 H 0.9795 -0.0394 0.5561
C25 C 0.9605(3) -0.1503(3) 0.5842(2)
H14 H 1.0185 -0.1605 0.5982
C26 C 0.8971(3) -0.2067(3) 0.5885(2)
H15 H 0.9114 -0.2555 0.6062
C27 C 0.8118(3) -0.1904(3) 0.5663(2)
H16 H 0.7682 -0.2282 0.5689
C28 C 0.7918(3) -0.1176(2) 0.54031(17)
C29 C 0.7033(3) -0.0959(2) 0.51274(18)
C30 C 0.6304(3) -0.1441(3) 0.5132(2)
H17 H 0.6345 -0.1921 0.5331
C31 C 0.5515(3) -0.1205(4) 0.4840(3)
H18 H 0.5018 -0.1519 0.4843
C32 C 0.5477(3) -0.0498(3) 0.4544(3)
H19 H 0.4958 -0.0339 0.4332
C33 C 0.6209(3) -0.0028(3) 0.4566(2)
H20 H 0.6172 0.0460 0.4376
Co1E Co 0.68988(3) 0.45054(3) 0.49639(2)
Co1G Co 1.31012(3) 0.45054(3) 1.00361(2)
Co1B Co 0.18988(3) 0.04946(3) 0.99639(2)
Co1B_2 Co 0.18988(3) 0.04946(3) -0.00361(2)
Co2G Co 1.2500 0.2500 1.0000
Co2G_2 Co 0.2500 0.2500 1.0000
Co2G_3 Co 0.2500 0.2500 0.0000
O1E O 0.57552(16) 0.39267(16) 0.47381(11)
O2E O 0.62463(16) 0.26980(16) 0.45462(11)
O3E O 0.17511(19) 0.3046(2) 0.31907(13)
O4E O 0.24554(15) 0.14277(15) 0.05123(10)
O4G O 0.75446(15) 0.14277(15) 0.44877(10)
O4B O 0.74554(15) 0.35723(15) 0.55123(10)
O5E O 0.16469(19) 0.05041(16) 0.08403(11)
O5G O 0.83531(19) 0.05041(16) 0.41597(11)
O5B O 0.66469(19) 0.44959(16) 0.58403(11)
O6B O 0.23319(18) 0.07935(17) 0.92307(12)
O6E O 0.73319(18) 0.42065(17) 0.42307(12)
O7B O 0.31699(17) 0.18790(17) 0.94096(11)
O7E O 0.81699(17) 0.31210(17) 0.44096(11)
N1E N 0.6461(2) 0.56134(18) 0.46299(13)
N2E N 0.8021(2) 0.5249(2) 0.51491(15)
C1E C 0.5686(2) 0.3249(2) 0.45036(15)
C2E C 0.4836(2) 0.3104(2) 0.41216(15)
C3E C 0.4732(2) 0.2445(2) 0.37714(17)
H1E H 0.5174 0.2064 0.3782
C4E C 0.3962(3) 0.2349(3) 0.34014(17)
H2E H 0.3906 0.1919 0.3153
C5E C 0.3277(2) 0.2894(3) 0.34020(16)
C6E C 0.3382(2) 0.3545(3) 0.37633(17)
H3E H 0.2928 0.3910 0.3769
C7E C 0.4152(2) 0.3657(2) 0.41137(16)
H4E H 0.4218 0.4103 0.4348
C8E C 0.2420(3) 0.2773(3) 0.30423(17)
C9E C 0.2384(3) 0.2309(3) 0.25086(16)
C10E C 0.2968(3) 0.2470(3) 0.21286(17)
H5E H 0.3428 0.2826 0.2224
C11E C 0.2864(3) 0.2101(3) 0.16077(16)
H6E H 0.3233 0.2233 0.1344
C12E C 0.2209(2) 0.1535(2) 0.14779(15)
C13E C 0.1655(3) 0.1350(3) 0.18685(17)
H7E H 0.1230 0.0955 0.1790
C14E C 0.1732(3) 0.1756(3) 0.23780(17)
H8E H 0.1340 0.1651 0.2632
C15E C 0.2093(2) 0.1131(2) 0.09173(15)
C16B C 0.2932(2) 0.1266(2) 0.91356(15)
C17B C 0.3416(2) 0.1017(2) 0.86532(16)
C18B C 0.3197(3) 0.0302(3) 0.8377(2)
H9B H 0.2715 0.0013 0.8460
C19B C 0.3684(4) 0.0017(3) 0.7983(3)
H10B H 0.3518 -0.0457 0.7795
C20B C 0.4423(4) 0.0423(3) 0.7859(2)
C21B C 0.4617(3) 0.1158(3) 0.81105(19)
H11B H 0.5086 0.1455 0.8015
C22B C 0.4118(2) 0.1455(2) 0.85019(17)
H12B H 0.4252 0.1953 0.8666
C24E C 0.5634(3) 0.5780(3) 0.44147(18)
H13E H 0.5205 0.5394 0.4439
C25E C 0.5395(3) 0.6503(3) 0.4158(2)
H14E H 0.4815 0.6605 0.4018
C26E C 0.6029(3) 0.7067(3) 0.4115(2)
H15E H 0.5886 0.7555 0.3938
C27E C 0.6882(3) 0.6904(3) 0.4337(2)
H16E H 0.7318 0.7282 0.4311
C28E C 0.7082(3) 0.6176(2) 0.45969(17)
C29E C 0.7967(3) 0.5959(2) 0.48726(18)
C30E C 0.8696(3) 0.6441(3) 0.4868(2)
H17E H 0.8655 0.6921 0.4669
C31E C 0.9485(3) 0.6205(4) 0.5160(3)
H18E H 0.9982 0.6519 0.5157
C32E C 0.9523(3) 0.5498(3) 0.5456(3)
H19E H 1.0042 0.5339 0.5668
C33E C 0.8791(3) 0.5028(3) 0.5434(2)
H20E H 0.8828 0.4540 0.5624
O9 O 1.0000 0.1318(14) 0.7500
C34 C 1.0000 0.0503(14) 0.7500
C35 C 0.9484(12) 0.0211(12) 0.6992(6)
C35B C 1.0516(12) 0.0211(12) 0.8008(6)
loop_
_geom_bond_atom_site_label_1
_geom_bond_atom_site_label_2
_geom_bond_site_symmetry_1
_geom_bond_site_symmetry_2
Co1 O1 1_555 1_555
Co2 O2 1_555 1_555
O1 C1 1_555 1_555
O2 C1 1_555 1_555
O3 C8 1_555 1_555
O4 C15 1_555 1_555
O5 C15 1_555 1_555
O6 Co1 1_555 1_555
O7 Co2 1_555 1_555
O8 C23 1_555 1_555
N1 Co1 1_555 1_555
N2 Co1 1_555 1_555
C1 C2 1_555 1_555
C2 C3 1_555 1_555
C3 H1 1_555 1_555
C4 C3 1_555 1_555
H2 C4 1_555 1_555
C5 C4 1_555 1_555
C6 C5 1_555 1_555
H3 C6 1_555 1_555
C7 C2 1_555 1_555
H4 C7 1_555 1_555
C8 C5 1_555 1_555
C9 C8 1_555 1_555
C10 C9 1_555 1_555
H5 C10 1_555 1_555
C11 C10 1_555 1_555
H6 C11 1_555 1_555
C12 C11 1_555 1_555
C13 C12 1_555 1_555
H7 C13 1_555 1_555
C14 C9 1_555 1_555
H8 C14 1_555 1_555
C15 C12 1_555 1_555
C16 O6 1_555 1_555
C17 C16 1_555 1_555
C18 C17 1_555 1_555
H9 C18 1_555 1_555
C19 C18 1_555 1_555
H10 C19 1_555 1_555
C20 C19 1_555 1_555
C21 C20 1_555 1_555
H11 C21 1_555 1_555
C22 C17 1_555 1_555
H12 C22 1_555 1_555
C23 C20 1_555 1_555
C24 N1 1_555 1_555
H13 C24 1_555 1_555
C25 C24 1_555 1_555
H14 C25 1_555 1_555
C26 C25 1_555 1_555
H15 C26 1_555 1_555
C27 C26 1_555 1_555
H16 C27 1_555 1_555
C28 N1 1_555 1_555
C29 N2 1_555 1_555
C30 C29 1_555 1_555
H17 C30 1_555 1_555
C31 C30 1_555 1_555
H18 C31 1_555 1_555
C32 C31 1_555 1_555
H19 C32 1_555 1_555
C33 N2 1_555 1_555
H20 C33 1_555 1_555
O9 C34 1_555 1_555
C34 C35 1_555 1_555
Co1E O1E 1_555 1_555
Co1G O4 1_555 1_555
Co1B O6B 1_555 1_555
Co1B_2 O4E 1_555 1_555
Co2G O4 1_555 1_555
Co2G_2 O7B 1_555 1_555
Co2G_3 O4E 1_555 1_555
O1E C1E 1_555 1_555
O2E Co2 1_555 1_555
O3E C8E 1_555 1_555
O4E C15E 1_555 1_555
O4G Co1 1_555 1_555
O4B Co2 1_555 1_555
O5E Co1B_2 1_555 1_555
O5G Co1 1_555 1_555
O5B Co1E 1_555 1_555
O6B C16B 1_555 1_555
O6E Co1E 1_555 1_555
O7B C16B 1_555 1_555
O7E Co2 1_555 1_555
N1E Co1E 1_555 1_555
N2E Co1E 1_555 1_555
C1E O2E 1_555 1_555
C2E C1E 1_555 1_555
C3E C2E 1_555 1_555
H1E C3E 1_555 1_555
C4E C3E 1_555 1_555
H2E C4E 1_555 1_555
C5E C4E 1_555 1_555
C6E C5E 1_555 1_555
H3E C6E 1_555 1_555
C7E C2E 1_555 1_555
H4E C7E 1_555 1_555
C8E C5E 1_555 1_555
C9E C8E 1_555 1_555
C10E C9E 1_555 1_555
H5E C10E 1_555 1_555
C11E C10E 1_555 1_555
H6E C11E 1_555 1_555
C12E C11E 1_555 1_555
C13E C12E 1_555 1_555
H7E C13E 1_555 1_555
C14E C9E 1_555 1_555
H8E C14E 1_555 1_555
C15E O5E 1_555 1_555
C16B C17B 1_555 1_555
C17B C18B 1_555 1_555
C18B H9B 1_555 1_555
C19B C18B 1_555 1_555
H10B C19B 1_555 1_555
C20B C23 1_555 1_555
C21B C20B 1_555 1_555
H11B C21B 1_555 1_555
C22B C17B 1_555 1_555
H12B C22B 1_555 1_555
C24E N1E 1_555 1_555
H13E C24E 1_555 1_555
C25E C24E 1_555 1_555
H14E C25E 1_555 1_555
C26E C25E 1_555 1_555
H15E C26E 1_555 1_555
C27E C26E 1_555 1_555
H16E C27E 1_555 1_555
C28E N1E 1_555 1_555
C29E N2E 1_555 1_555
C30E C29E 1_555 1_555
H17E C30E 1_555 1_555
C31E C30E 1_555 1_555
H18E C31E 1_555 1_555
C32E C31E 1_555 1_555
H19E C32E 1_555 1_555
C33E N2E 1_555 1_555
H20E C33E 1_555 1_555
C35B C34 1_555 1_555
Co2 O4G 1_555 1_555
O5 Co1G 1_555 1_555
O7 C16 1_555 1_555
C6 C7 1_555 1_555
C13 C14 1_555 1_555
C21 C22 1_555 1_555
C27 C28 1_555 1_555
C28 C29 1_555 1_555
C32 C33 1_555 1_555
Co1E O4B 1_555 1_555
C6E C7E 1_555 1_555
C12E C15E 1_555 1_555
C13E C14E 1_555 1_555
C19B C20B 1_555 1_555
C21B C22B 1_555 1_555
C27E C28E 1_555 1_555
C28E C29E 1_555 1_555
C32E C33E 1_555 1_555

#END
