
#######################################################################
#
#                 Cambridge Crystallographic Data Centre
#                                CCDC 
#
#######################################################################
#
# If this CIF has been generated from an entry in the Cambridge 
# Structural Database, then it will include bibliographic, chemical, 
# crystal, experimental, refinement or atomic coordinate data resulting 
# from the CCDC's data processing and validation procedures.
#
#######################################################################

data_DIZYUH
_symmetry_cell_setting           triclinic
_symmetry_space_group_name_H-M   'P -1'
_symmetry_Int_Tables_number      2
_space_group_name_Hall           '-P 1'
loop_
_symmetry_equiv_pos_site_id
_symmetry_equiv_pos_as_xyz
1 x,y,z
2 -x,-y,-z
_cell_length_a                   7.82040(10)
_cell_length_b                   9.53550(10)
_cell_length_c                   10.63480(10)
_cell_angle_alpha                68.8690(10)
_cell_angle_beta                 71.0810(10)
_cell_angle_gamma                75.1510(10)
_cell_volume                     690.979
loop_
_atom_site_label
_atom_site_type_symbol
_atom_site_fract_x
_atom_site_fract_y
_atom_site_fract_z
Lu1 Lu 0.23377(2) 0.205602(17) 0.493568(15)
O1 O 0.3633(4) 0.1012(3) 0.6704(3)
H1 H 0.463(7) 0.411(3) 0.370(4)
O2 O 0.0568(4) -0.2066(4) 1.3859(3)
O3 O 0.1758(4) 0.4166(3) 0.3044(3)
O4 O 0.0829(4) 0.2100(3) 0.3235(3)
O5 O 0.1996(5) -0.0492(4) 0.5660(4)
H2 H 0.114(5) -0.095(6) 0.614(4)
H3 H 0.176(7) -0.006(6) 0.491(3)
O6 O 0.5478(4) -0.1161(3) 0.6660(3)
O7 O 0.1572(5) 0.4069(3) 0.5884(3)
H4 H 0.205(5) 0.482(3) 0.545(5)
H5 H 0.055(3) 0.436(5) 0.629(5)
O8 O 0.3246(4) -0.3548(3) 1.3984(3)
O9 O 0.4953(5) 0.3322(4) 0.4265(3)
H6 H 0.523(7) 0.329(5) 0.496(3)
C1 C 0.4399(5) -0.0286(4) 0.7290(4)
C2 C 0.3912(6) -0.0808(4) 0.8866(4)
C3 C 0.2507(8) -0.0006(6) 0.9614(5)
H7 H 0.1906 0.0919 0.9152
C4 C 0.1972(8) -0.0561(6) 1.1053(5)
H8 H 0.0983 -0.0021 1.1546
C5 C 0.2875(5) -0.1891(5) 1.1765(4)
C6 C 0.4343(7) -0.2665(6) 1.1019(5)
H9 H 0.5003 -0.3548 1.1488
C7 C 0.4850(7) -0.2142(6) 0.9572(5)
H10 H 0.5822 -0.2690 0.9077
C8 C 0.2204(6) -0.2541(4) 1.3312(4)
C9 C 0.1035(5) 0.3461(5) 0.2588(4)
C10 C 0.0479(6) 0.4261(4) 0.1254(4)
C11 C 0.0940(7) 0.5676(5) 0.0453(5)
H11 H 0.1581 0.6135 0.0755
C12 C -0.0466(7) 0.3580(5) 0.0792(5)
H12 H -0.0779 0.2623 0.1321
Lu1A Lu -0.23377(2) -0.205602(17) 1.506432(15)
Lu1A_2 Lu 0.76623(2) -0.205602(17) 0.506432(15)
Lu1A_3 Lu -0.23377(2) 0.794398(17) -0.493568(15)
Lu1_2 Lu -0.76623(2) 0.205602(17) 1.493568(15)
O1A O -0.3633(4) -0.1012(3) 1.3296(3)
H1A H -0.463(7) -0.411(3) 1.630(4)
O2A O -0.0568(4) 0.2066(4) 0.6141(3)
O3A O -0.1758(4) 0.5834(3) -0.3044(3)
O3A_2 O -0.1758(4) -0.4166(3) 1.6956(3)
O4A O -0.0829(4) 0.7900(3) -0.3235(3)
O4A_2 O -0.0829(4) -0.2100(3) 1.6765(3)
O5A O -0.1996(5) 0.0492(4) 1.4340(4)
H2A H -0.114(5) 0.095(6) 1.386(4)
H3A H -0.176(7) 0.006(6) 1.509(3)
O6A O -0.5478(4) 0.1161(3) 1.3340(3)
O6A_2 O 0.4522(4) 0.1161(3) 0.3340(3)
O6_2 O -0.4522(4) -0.1161(3) 1.6660(3)
O7A O -0.1572(5) -0.4069(3) 1.4116(3)
H4A H -0.205(5) -0.482(3) 1.455(5)
H5A H -0.055(3) -0.436(5) 1.371(5)
O8A O -0.3246(4) 0.3548(3) 0.6016(3)
O9A O -0.4953(5) -0.3322(4) 1.5735(3)
H6A H -0.523(7) -0.329(5) 1.504(3)
C1A C -0.4399(5) 0.0286(4) 1.2710(4)
C2A C -0.3912(6) 0.0808(4) 1.1134(4)
C3A C -0.2507(8) 0.0006(6) 1.0386(5)
H7A H -0.1906 -0.0919 1.0848
C4A C -0.1972(8) 0.0561(6) 0.8947(5)
H8A H -0.0983 0.0021 0.8454
C5A C -0.2875(5) 0.1891(5) 0.8235(4)
C6A C -0.4343(7) 0.2665(6) 0.8981(5)
H9A H -0.5003 0.3548 0.8512
C7A C -0.4850(7) 0.2142(6) 1.0428(5)
H10A H -0.5822 0.2690 1.0923
C8A C -0.2204(6) 0.2541(4) 0.6688(4)
C9A C -0.1035(5) 0.6539(5) -0.2588(4)
C10A C -0.0479(6) 0.5739(4) -0.1254(4)
C11A C -0.0940(7) 0.4324(5) -0.0453(5)
H11A H -0.1581 0.3865 -0.0755
C12A C 0.0466(7) 0.6420(5) -0.0792(5)
H12A H 0.0779 0.7377 -0.1321
loop_
_geom_bond_atom_site_label_1
_geom_bond_atom_site_label_2
_geom_bond_site_symmetry_1
_geom_bond_site_symmetry_2
Lu1 O1 1_555 1_555
O1 C1 1_555 1_555
H1 O9 1_555 1_555
O2 C8 1_555 1_555
O3 Lu1 1_555 1_555
O4 Lu1 1_555 1_555
O5 Lu1 1_555 1_555
H2 O5 1_555 1_555
H3 O5 1_555 1_555
O6 C1 1_555 1_555
O7 Lu1 1_555 1_555
H4 O7 1_555 1_555
H5 O7 1_555 1_555
O8 C8 1_555 1_555
O9 Lu1 1_555 1_555
H6 O9 1_555 1_555
C1 C2 1_555 1_555
C2 C3 1_555 1_555
C3 H7 1_555 1_555
C4 C3 1_555 1_555
H8 C4 1_555 1_555
C5 C4 1_555 1_555
C6 C5 1_555 1_555
H9 C6 1_555 1_555
C7 C2 1_555 1_555
H10 C7 1_555 1_555
C8 C5 1_555 1_555
C9 O3 1_555 1_555
C10 C9 1_555 1_555
C11 C10 1_555 1_555
H11 C11 1_555 1_555
C12 C10 1_555 1_555
H12 C12 1_555 1_555
Lu1A O2 1_555 1_555
Lu1A_2 O6 1_555 1_555
Lu1A_3 O3A 1_555 1_555
Lu1_2 O6A 1_555 1_555
O1A Lu1A 1_555 1_555
H1A O9A 1_555 1_555
O2A Lu1 1_555 1_555
O3A C9A 1_555 1_555
O3A_2 Lu1A 1_555 1_555
O4A Lu1A_3 1_555 1_555
O4A_2 Lu1A 1_555 1_555
O5A Lu1A 1_555 1_555
H2A O5A 1_555 1_555
H3A O5A 1_555 1_555
O6A C1A 1_555 1_555
O6A_2 Lu1 1_555 1_555
O6_2 Lu1A 1_555 1_555
O7A Lu1A 1_555 1_555
H4A O7A 1_555 1_555
H5A O7A 1_555 1_555
O8A C8A 1_555 1_555
O9A Lu1A 1_555 1_555
H6A O9A 1_555 1_555
C1A O1A 1_555 1_555
C2A C1A 1_555 1_555
C3A C2A 1_555 1_555
H7A C3A 1_555 1_555
C4A C3A 1_555 1_555
H8A C4A 1_555 1_555
C5A C4A 1_555 1_555
C6A C5A 1_555 1_555
H9A C6A 1_555 1_555
C7A C2A 1_555 1_555
H10A C7A 1_555 1_555
C8A O2A 1_555 1_555
C9A O4A 1_555 1_555
C10A C9A 1_555 1_555
C11A C12 1_555 1_555
H11A C11A 1_555 1_555
C12A C11 1_555 1_555
H12A C12A 1_555 1_555
O4 C9 1_555 1_555
C6 C7 1_555 1_555
C5A C8A 1_555 1_555
C6A C7A 1_555 1_555
C10A C11A 1_555 1_555
C10A C12A 1_555 1_555

#END
