
#######################################################################
#
#                 Cambridge Crystallographic Data Centre
#                                CCDC 
#
#######################################################################
#
# If this CIF has been generated from an entry in the Cambridge 
# Structural Database, then it will include bibliographic, chemical, 
# crystal, experimental, refinement or atomic coordinate data resulting 
# from the CCDC's data processing and validation procedures.
#
#######################################################################

data_DIZYOB
_symmetry_cell_setting           triclinic
_symmetry_space_group_name_H-M   'P -1'
_symmetry_Int_Tables_number      2
_space_group_name_Hall           '-P 1'
loop_
_symmetry_equiv_pos_site_id
_symmetry_equiv_pos_as_xyz
1 x,y,z
2 -x,-y,-z
_cell_length_a                   3.9053(6)
_cell_length_b                   10.0675(15)
_cell_length_c                   15.887(2)
_cell_angle_alpha                108.340(2)
_cell_angle_beta                 90.028(2)
_cell_angle_gamma                98.315(2)
_cell_volume                     585.96
loop_
_atom_site_label
_atom_site_type_symbol
_atom_site_fract_x
_atom_site_fract_y
_atom_site_fract_z
Cu1 Cu 0.08306(13) 0.84071(5) 0.30729(4)
Cu2 Cu 0.59623(13) 0.65611(5) 0.17886(4)
Br1 Br 0.14116(9) 0.76337(4) 0.13196(2)
Br2 Br -0.48616(9) 0.72847(4) 0.35338(2)
N1 N 0.0082(8) 1.0418(3) 0.3353(2)
N2 N -0.4332(7) 1.4466(3) 0.1537(2)
C1 C 0.0432(9) 1.1340(4) 0.4186(3)
H1 H 0.1293 1.1057 0.4638
C2 C -0.0430(10) 1.2677(4) 0.4394(3)
H2 H -0.0152 1.3286 0.4975
C3 C -0.1717(10) 1.3107(4) 0.3726(3)
H3 H -0.2338 1.4006 0.3858
C4 C -0.2078(9) 1.2193(4) 0.2858(2)
C5 C -0.1166(9) 1.0858(4) 0.2714(2)
H4 H -0.1435 1.0228 0.2138
C6 C -0.3046(9) 1.4007(4) 0.2162(2)
H5 H -0.1832 1.4674 0.2655
C7 C -0.3430(9) 1.2589(4) 0.2113(2)
C8 C -0.5104(9) 1.1603(4) 0.1351(2)
H6 H -0.5395 1.0642 0.1287
C9 C -0.6330(10) 1.2059(4) 0.0693(3)
H7 H -0.7411 1.1408 0.0175
C10 C -0.5935(9) 1.3500(4) 0.0811(2)
H8 H -0.6813 1.3802 0.0370
Cu1_2 Cu -0.91694(13) 0.84071(5) 0.30729(4)
Cu2_2 Cu -0.40377(13) 0.65611(5) 0.17886(4)
Cu2_3 Cu -0.40377(13) 1.65611(5) 0.17886(4)
Br1_2 Br 1.14116(9) 0.76337(4) 0.13196(2)
Br2_2 Br 0.51384(9) 0.72847(4) 0.35338(2)
N2_2 N 0.5668(7) 0.4466(3) 0.1537(2)
loop_
_geom_bond_atom_site_label_1
_geom_bond_atom_site_label_2
_geom_bond_site_symmetry_1
_geom_bond_site_symmetry_2
Cu1 Br1 1_555 1_555
Cu2 Br1 1_555 1_555
Br1 Cu2_2 1_555 1_555
Br2 Cu1 1_555 1_555
N1 Cu1 1_555 1_555
N2 C6 1_555 1_555
C1 N1 1_555 1_555
H1 C1 1_555 1_555
C2 C1 1_555 1_555
H2 C2 1_555 1_555
C3 C2 1_555 1_555
H3 C3 1_555 1_555
C4 C3 1_555 1_555
C5 N1 1_555 1_555
H4 C5 1_555 1_555
C6 H5 1_555 1_555
C7 C4 1_555 1_555
C8 C7 1_555 1_555
H6 C8 1_555 1_555
C9 C8 1_555 1_555
H7 C9 1_555 1_555
C10 N2 1_555 1_555
H8 C10 1_555 1_555
Cu1_2 Br2 1_555 1_555
Cu2_2 Br2 1_555 1_555
Cu2_3 N2 1_555 1_555
Br1_2 Cu2 1_555 1_555
Br2_2 Cu1 1_555 1_555
N2_2 Cu2 1_555 1_555
Cu2 Br2_2 1_555 1_555
C4 C5 1_555 1_555
C6 C7 1_555 1_555
C9 C10 1_555 1_555

#END
