
#######################################################################
#
#                 Cambridge Crystallographic Data Centre
#                                CCDC 
#
#######################################################################
#
# If this CIF has been generated from an entry in the Cambridge 
# Structural Database, then it will include bibliographic, chemical, 
# crystal, experimental, refinement or atomic coordinate data resulting 
# from the CCDC's data processing and validation procedures.
#
#######################################################################

data_DIZZUI
_symmetry_cell_setting           triclinic
_symmetry_space_group_name_H-M   'P -1'
_symmetry_Int_Tables_number      2
_space_group_name_Hall           '-P 1'
loop_
_symmetry_equiv_pos_site_id
_symmetry_equiv_pos_as_xyz
1 x,y,z
2 -x,-y,-z
_cell_length_a                   8.1839(6)
_cell_length_b                   10.1779(8)
_cell_length_c                   19.0655(15)
_cell_angle_alpha                102.5700(10)
_cell_angle_beta                 97.2870(10)
_cell_angle_gamma                93.1490(10)
_cell_volume                     1531.88
loop_
_atom_site_label
_atom_site_type_symbol
_atom_site_fract_x
_atom_site_fract_y
_atom_site_fract_z
Zn1 Zn 0.52332(4) 0.57774(3) 0.277799(16)
S1 S 0.95055(9) 1.02682(7) 0.70510(4)
N1 N 0.3215(3) 0.5149(2) 0.31613(13)
N2 N 0.4670(3) 0.6884(2) 0.20452(12)
N3 N 0.1578(3) 1.3085(2) -0.07642(13)
O1 O 0.4540(3) 0.8030(2) 0.38312(10)
O2 O 0.6632(2) 0.67521(19) 0.36934(10)
O3 O 0.2903(2) 0.8277(2) 0.48717(11)
H1 H 0.3404 0.8326 0.4531
O4 O 0.3476(3) 0.8318(4) 0.60208(14)
O5 O 0.8382(3) 1.10711(19) 0.74486(10)
O6 O 1.1017(2) 1.0903(2) 0.69239(11)
O7 O 1.3294(3) 0.5509(2) 0.75733(13)
O8 O 1.4833(3) 0.7466(2) 0.78121(15)
O9 O 1.2501(3) 0.6200(2) 0.91237(12)
O10 O 1.0292(3) 0.4879(2) 0.85507(14)
H2 H 1.0731 0.4319 0.8746
C1 C 0.5870(4) 0.7636(3) 0.40710(15)
C2 C 0.6670(3) 0.8230(2) 0.48437(14)
C3 C 0.8391(3) 0.8427(3) 0.49464(15)
H3 H 0.8956 0.8145 0.4554
C4 C 0.9277(3) 0.9030(3) 0.56148(14)
H4 H 1.0424 0.9168 0.5674
C5 C 0.8421(3) 0.9423(3) 0.61940(14)
C6 C 0.6711(3) 0.9176(3) 0.61176(14)
H5 H 0.6167 0.9403 0.6521
C7 C 0.5812(3) 0.8594(3) 0.54430(14)
C8 C 0.3956(4) 0.8374(3) 0.54567(17)
C9 C 0.9996(3) 0.8958(3) 0.75011(13)
C10 C 1.1532(3) 0.8444(2) 0.74773(13)
H6 H 1.2290 0.8776 0.7220
C11 C 1.1930(3) 0.7436(2) 0.78371(13)
C12 C 1.0780(3) 0.6962(3) 0.82300(14)
C13 C 0.9235(4) 0.7461(3) 0.82367(16)
H7 H 0.8467 0.7123 0.8487
C14 C 0.8837(4) 0.8465(3) 0.78701(15)
H8 H 0.7804 0.8801 0.7872
C15 C 1.3521(3) 0.6783(3) 0.77446(14)
C16 C 1.1278(4) 0.5961(3) 0.86784(15)
C17 C 0.3597(4) 0.6376(3) 0.14438(15)
H9 H 0.3165 0.5484 0.1365
C18 C 0.3100(4) 0.7094(3) 0.09377(16)
H10 H 0.2349 0.6690 0.0529
C19 C 0.3723(4) 0.8430(3) 0.10377(15)
C20 C 0.4838(4) 0.8960(3) 0.16570(17)
H11 H 0.5295 0.9847 0.1743
C21 C 0.5276(4) 0.8176(3) 0.21502(17)
H12 H 0.6014 0.8557 0.2567
C22 C 0.3113(4) 0.9207(3) 0.05065(16)
H13 H 0.2403 0.8747 0.0096
C23 C 0.3499(4) 1.0505(3) 0.05696(16)
H14 H 0.4272 1.0938 0.0964
C24 C 0.2830(4) 1.1339(3) 0.00784(15)
C25 C 0.3495(4) 1.2666(3) 0.01960(17)
H15 H 0.4378 1.2996 0.0562
C26 C 0.2842(4) 1.3492(3) -0.02310(17)
H16 H 0.3304 1.4377 -0.0143
C27 C 0.0958(4) 1.1802(3) -0.08949(16)
H17 H 0.0089 1.1496 -0.1270
C28 C 0.1560(4) 1.0911(3) -0.04928(16)
H18 H 0.1110 1.0018 -0.0607
C29 C 0.1779(4) 0.5729(3) 0.31031(16)
H19 H 0.1565 0.6199 0.2739
C30 C 0.0620(4) 0.5658(3) 0.35537(17)
H20 H -0.0380 0.6034 0.3477
C31 C 0.0938(4) 0.5027(3) 0.41242(19)
C32 C 0.2384(5) 0.4388(4) 0.4164(2)
H21 H 0.2624 0.3911 0.4524
C33 C 0.3467(4) 0.4455(3) 0.3678(2)
H22 H 0.4417 0.3997 0.3710
C34 C -0.0206(4) 0.5079(3) 0.46658(19)
H23 H -0.1297 0.5235 0.4528
Zn1A Zn -0.52332(4) 0.42226(3) 0.722201(16)
Zn1A_2 Zn 1.47668(4) 0.42226(3) 0.722201(16)
S1A S 1.04945(9) -0.02682(7) 0.29490(4)
N1A N -0.3215(3) 0.4851(2) 0.68387(13)
N2A N -0.4670(3) 0.3116(2) 0.79548(12)
N3A N -0.1578(3) -0.3085(2) 1.07642(13)
O1A O 1.5460(3) 0.1970(2) 0.61688(10)
O2A O 1.3368(2) 0.32479(19) 0.63066(10)
O2A_2 O -0.6632(2) 0.32479(19) 0.63066(10)
O3A O 1.7097(2) 0.1723(2) 0.51283(11)
H1A H 1.6596 0.1674 0.5469
O4A O 1.6524(3) 0.1682(4) 0.39792(14)
O5A O 1.1618(3) -0.10711(19) 0.25514(10)
O6A O 0.8983(2) -0.0903(2) 0.30761(11)
O7A O 0.6706(3) 0.4491(2) 0.24267(13)
O7_2 O -0.6706(3) 0.5509(2) 0.75733(13)
O8A O 0.5167(3) 0.2534(2) 0.21879(15)
O9A O 0.7499(3) 0.3800(2) 0.08763(12)
O10A O 0.9708(3) 0.5121(2) 0.14493(14)
H2A H 0.9269 0.5681 0.1254
C1A C 1.4130(4) 0.2364(3) 0.59290(15)
C2A C 1.3330(3) 0.1770(2) 0.51563(14)
C3A C 1.1609(3) 0.1573(3) 0.50536(15)
H3A H 1.1044 0.1855 0.5446
C4A C 1.0723(3) 0.0970(3) 0.43852(14)
H4A H 0.9576 0.0832 0.4326
C5A C 1.1579(3) 0.0577(3) 0.38060(14)
C6A C 1.3289(3) 0.0824(3) 0.38824(14)
H5A H 1.3833 0.0597 0.3479
C7A C 1.4188(3) 0.1406(3) 0.45570(14)
C8A C 1.6044(4) 0.1626(3) 0.45433(17)
C9A C 1.0004(3) 0.1042(3) 0.24989(13)
C10A C 0.8468(3) 0.1556(2) 0.25227(13)
H6A H 0.7710 0.1224 0.2780
C11A C 0.8070(3) 0.2564(2) 0.21629(13)
C12A C 0.9220(3) 0.3038(3) 0.17700(14)
C13A C 1.0765(4) 0.2539(3) 0.17633(16)
H7A H 1.1533 0.2877 0.1513
C14A C 1.1163(4) 0.1535(3) 0.21299(15)
H8A H 1.2196 0.1199 0.2128
C15A C 0.6479(3) 0.3217(3) 0.22554(14)
C16A C 0.8722(4) 0.4039(3) 0.13216(15)
C17A C -0.3597(4) 0.3624(3) 0.85562(15)
H9A H -0.3165 0.4516 0.8635
C18A C -0.3100(4) 0.2906(3) 0.90623(16)
H10A H -0.2349 0.3310 0.9471
C19A C -0.3723(4) 0.1570(3) 0.89623(15)
C20A C -0.4838(4) 0.1040(3) 0.83430(17)
H11A H -0.5295 0.0153 0.8257
C21A C -0.5276(4) 0.1824(3) 0.78498(17)
H12A H -0.6014 0.1443 0.7433
C22A C -0.3113(4) 0.0793(3) 0.94935(16)
H13A H -0.2403 0.1253 0.9904
C23A C -0.3499(4) -0.0505(3) 0.94304(16)
H14A H -0.4272 -0.0938 0.9036
C24A C -0.2830(4) -0.1339(3) 0.99216(15)
C25A C -0.3495(4) -0.2666(3) 0.98040(17)
H15A H -0.4378 -0.2996 0.9438
C26A C -0.2842(4) -0.3492(3) 1.02310(17)
H16A H -0.3304 -0.4377 1.0143
C27A C -0.0958(4) -0.1802(3) 1.08949(16)
H17A H -0.0089 -0.1496 1.1270
C28A C -0.1560(4) -0.0911(3) 1.04928(16)
H18A H -0.1110 -0.0018 1.0607
C29A C -0.1779(4) 0.4271(3) 0.68969(16)
H19A H -0.1565 0.3801 0.7261
C30A C -0.0620(4) 0.4342(3) 0.64463(17)
H20A H 0.0380 0.3966 0.6523
C31A C -0.0938(4) 0.4973(3) 0.58758(19)
C32A C -0.2384(5) 0.5612(4) 0.5836(2)
H21A H -0.2624 0.6089 0.5476
C33A C -0.3467(4) 0.5545(3) 0.6322(2)
H22A H -0.4417 0.6003 0.6290
C34A C 0.0206(4) 0.4921(3) 0.53342(19)
H23A H 0.1297 0.4765 0.5472
loop_
_geom_bond_atom_site_label_1
_geom_bond_atom_site_label_2
_geom_bond_site_symmetry_1
_geom_bond_site_symmetry_2
Zn1 N1 1_555 1_555
S1 O5 1_555 1_555
N1 C29 1_555 1_555
N2 Zn1 1_555 1_555
N3 C26 1_555 1_555
O1 C1 1_555 1_555
O2 Zn1 1_555 1_555
O3 H1 1_555 1_555
O4 C8 1_555 1_555
O6 S1 1_555 1_555
O7 C15 1_555 1_555
O8 C15 1_555 1_555
O9 C16 1_555 1_555
O10 H2 1_555 1_555
C1 O2 1_555 1_555
C2 C1 1_555 1_555
C3 C2 1_555 1_555
H3 C3 1_555 1_555
C4 C3 1_555 1_555
H4 C4 1_555 1_555
C5 S1 1_555 1_555
C6 C5 1_555 1_555
H5 C6 1_555 1_555
C7 C2 1_555 1_555
C8 O3 1_555 1_555
C9 S1 1_555 1_555
C10 C9 1_555 1_555
H6 C10 1_555 1_555
C11 C10 1_555 1_555
C12 C11 1_555 1_555
C13 C12 1_555 1_555
H7 C13 1_555 1_555
C14 C9 1_555 1_555
H8 C14 1_555 1_555
C15 C11 1_555 1_555
C16 O10 1_555 1_555
C17 N2 1_555 1_555
H9 C17 1_555 1_555
C18 C17 1_555 1_555
H10 C18 1_555 1_555
C19 C18 1_555 1_555
C20 C19 1_555 1_555
H11 C20 1_555 1_555
C21 N2 1_555 1_555
H12 C21 1_555 1_555
C22 C19 1_555 1_555
H13 C22 1_555 1_555
C23 C22 1_555 1_555
H14 C23 1_555 1_555
C24 C23 1_555 1_555
C25 C24 1_555 1_555
H15 C25 1_555 1_555
C26 C25 1_555 1_555
H16 C26 1_555 1_555
C27 N3 1_555 1_555
H17 C27 1_555 1_555
C28 C24 1_555 1_555
H18 C28 1_555 1_555
C29 H19 1_555 1_555
C30 C29 1_555 1_555
H20 C30 1_555 1_555
C31 C30 1_555 1_555
C32 C31 1_555 1_555
H21 C32 1_555 1_555
C33 N1 1_555 1_555
H22 C33 1_555 1_555
C34 C31 1_555 1_555
H23 C34 1_555 1_555
Zn1A N1A 1_555 1_555
Zn1A_2 O7 1_555 1_555
S1A O5A 1_555 1_555
N1A C29A 1_555 1_555
N2A Zn1A 1_555 1_555
N3A C26A 1_555 1_555
O1A C1A 1_555 1_555
O2A Zn1A_2 1_555 1_555
O2A_2 Zn1A 1_555 1_555
O3A H1A 1_555 1_555
O4A C8A 1_555 1_555
O6A S1A 1_555 1_555
O7A Zn1 1_555 1_555
O7_2 Zn1A 1_555 1_555
O8A C15A 1_555 1_555
O9A C16A 1_555 1_555
O10A H2A 1_555 1_555
C1A O2A 1_555 1_555
C2A C1A 1_555 1_555
C3A C2A 1_555 1_555
H3A C3A 1_555 1_555
C4A C3A 1_555 1_555
H4A C4A 1_555 1_555
C5A S1A 1_555 1_555
C6A C5A 1_555 1_555
H5A C6A 1_555 1_555
C7A C2A 1_555 1_555
C8A O3A 1_555 1_555
C9A S1A 1_555 1_555
C10A C9A 1_555 1_555
H6A C10A 1_555 1_555
C11A C10A 1_555 1_555
C12A C11A 1_555 1_555
C13A C12A 1_555 1_555
H7A C13A 1_555 1_555
C14A C9A 1_555 1_555
H8A C14A 1_555 1_555
C15A O7A 1_555 1_555
C16A O10A 1_555 1_555
C17A N2A 1_555 1_555
H9A C17A 1_555 1_555
C18A C17A 1_555 1_555
H10A C18A 1_555 1_555
C19A C18A 1_555 1_555
C20A C19A 1_555 1_555
H11A C20A 1_555 1_555
C21A N2A 1_555 1_555
H12A C21A 1_555 1_555
C22A C19A 1_555 1_555
H13A C22A 1_555 1_555
C23A C22A 1_555 1_555
H14A C23A 1_555 1_555
C24A C23A 1_555 1_555
C25A C24A 1_555 1_555
H15A C25A 1_555 1_555
C26A C25A 1_555 1_555
H16A C26A 1_555 1_555
C27A N3A 1_555 1_555
H17A C27A 1_555 1_555
C28A C24A 1_555 1_555
H18A C28A 1_555 1_555
C29A H19A 1_555 1_555
C30A C29A 1_555 1_555
H20A C30A 1_555 1_555
C31A C30A 1_555 1_555
C32A C31A 1_555 1_555
H21A C32A 1_555 1_555
C33A N1A 1_555 1_555
H22A C33A 1_555 1_555
C34A C34 1_555 1_555
H23A C34A 1_555 1_555
C4 C5 1_555 1_555
C6 C7 1_555 1_555
C7 C8 1_555 1_555
C12 C16 1_555 1_555
C13 C14 1_555 1_555
C20 C21 1_555 1_555
C27 C28 1_555 1_555
C32 C33 1_555 1_555
C4A C5A 1_555 1_555
C6A C7A 1_555 1_555
C7A C8A 1_555 1_555
C11A C15A 1_555 1_555
C12A C16A 1_555 1_555
C13A C14A 1_555 1_555
C20A C21A 1_555 1_555
C27A C28A 1_555 1_555
C31A C34A 1_555 1_555
C32A C33A 1_555 1_555

#END
