
#######################################################################
#
#                 Cambridge Crystallographic Data Centre
#                                CCDC 
#
#######################################################################
#
# If this CIF has been generated from an entry in the Cambridge 
# Structural Database, then it will include bibliographic, chemical, 
# crystal, experimental, refinement or atomic coordinate data resulting 
# from the CCDC's data processing and validation procedures.
#
#######################################################################

data_DNENCD
_symmetry_cell_setting           monoclinic
_symmetry_space_group_name_H-M   'P 1 1 21'
_symmetry_Int_Tables_number      4
_space_group_name_Hall           'P 2c'
loop_
_symmetry_equiv_pos_site_id
_symmetry_equiv_pos_as_xyz
1 x,y,z
2 -x,-y,1/2+z
_cell_length_a                   6.55(1)
_cell_length_b                   4.92(1)
_cell_length_c                   10.76(2)
_cell_angle_alpha                90
_cell_angle_beta                 90
_cell_angle_gamma                107.5(5)
_cell_volume                     330.703
loop_
_atom_site_label
_atom_site_type_symbol
_atom_site_fract_x
_atom_site_fract_y
_atom_site_fract_z
Cd1 Cd 0.45790 0.21150 0.01770
C1 C 0.05780 -0.01690 0.19370
C2 C -0.06390 0.01560 0.31260
N1 N 0.23620 0.22000 0.17290
N2 N 0.91250 0.43640 -0.00760
N3 N -0.25790 -0.23850 0.33890
N4 N 0.47640 -0.31510 0.00640
O1 O 0.80400 0.39440 0.09040
O2 O 0.77910 0.39730 -0.09660
O3 O 0.47190 -0.20230 -0.10040
O4 O 0.47850 -0.17600 0.09800
N3A N 0.25790 0.23850 -0.16110
N4_2 N 0.47640 0.68490 0.00640
Cd1A Cd -0.45790 -0.21150 0.51770
Cd1_2 Cd 0.45790 -0.78850 0.01770
loop_
_geom_bond_atom_site_label_1
_geom_bond_atom_site_label_2
_geom_bond_site_symmetry_1
_geom_bond_site_symmetry_2
Cd1 N1 1_555 1_555
C1 C2 1_555 1_555
C2 N3 1_555 1_555
N1 C1 1_555 1_555
N2 O1 1_555 1_555
N3 Cd1A 1_555 1_555
N4 O3 1_555 1_555
O1 Cd1 1_555 1_555
O2 Cd1 1_555 1_555
O3 Cd1 1_555 1_555
O4 Cd1 1_555 1_555
N3A Cd1 1_555 1_555
N4_2 Cd1 1_555 1_555
Cd1_2 N4 1_555 1_555
N2 O2 1_555 1_555
N4 O4 1_555 1_555

#END
