
#######################################################################
#
#                 Cambridge Crystallographic Data Centre
#                                CCDC 
#
#######################################################################
#
# If this CIF has been generated from an entry in the Cambridge 
# Structural Database, then it will include bibliographic, chemical, 
# crystal, experimental, refinement or atomic coordinate data resulting 
# from the CCDC's data processing and validation procedures.
#
#######################################################################

data_DOBBEC
_symmetry_cell_setting           triclinic
_symmetry_space_group_name_H-M   'P -1'
_symmetry_Int_Tables_number      2
_space_group_name_Hall           '-P 1'
loop_
_symmetry_equiv_pos_site_id
_symmetry_equiv_pos_as_xyz
1 x,y,z
2 -x,-y,-z
_cell_length_a                   8.6010(8)
_cell_length_b                   9.0012(8)
_cell_length_c                   9.9080(10)
_cell_angle_alpha                84.754(2)
_cell_angle_beta                 83.338(2)
_cell_angle_gamma                74.795(2)
_cell_volume                     733.729
loop_
_atom_site_label
_atom_site_type_symbol
_atom_site_fract_x
_atom_site_fract_y
_atom_site_fract_z
Zn1 Zn 0.58151(4) -0.11622(3) -0.30908(3)
Zn2 Zn 0.24127(4) 0.51856(4) -0.49494(3)
P1 P 0.52898(8) 0.24342(8) -0.45569(7)
P2 P 0.91828(8) -0.36372(8) -0.29461(7)
O1 O 0.3510(2) 0.3211(2) -0.4093(2)
O3 O 0.6365(3) 0.3418(3) -0.4222(2)
O4 O 0.5761(3) 0.0881(2) -0.3793(2)
O5 O 0.5450(3) 0.2257(2) -0.6102(2)
O6 O 0.8167(2) -0.1984(2) -0.3219(2)
O7 O 0.8431(3) -0.4827(2) -0.3397(2)
O8 O 0.9276(3) -0.3918(3) -0.1355(2)
H1 H 0.848(5) -0.374(5) -0.102(4)
O9 O 1.0915(2) -0.3788(3) -0.3517(2)
O10 O 0.4763(3) -0.1007(2) -0.1204(2)
O11 O 0.6233(3) -0.3208(3) -0.0277(3)
C1 C 0.5020(4) -0.2116(3) -0.0322(3)
C2 C 0.3703(4) -0.2087(4) 0.0867(3)
H2 H 0.392(6) -0.162(5) 0.170(5)
C3 C 0.2062(4) -0.1123(4) 0.0550(4)
H3 H 0.220(5) -0.010(5) 0.048(4)
H4 H 0.171(7) -0.163(6) -0.036(6)
C4 C 0.0710(4) -0.1173(3) 0.1642(3)
N1 N 0.0279(3) -0.0221(3) 0.2711(3)
C5 C -0.0980(4) -0.0541(4) 0.3459(4)
H5 H -0.147(5) -0.007(4) 0.422(4)
C6 C -0.0332(4) -0.2076(4) 0.1794(4)
H6 H -0.033(4) -0.282(4) 0.131(4)
N2 N 0.3718(4) -0.3707(3) 0.1324(3)
H7 H 0.457(5) -0.428(5) 0.149(4)
H8 H 0.346(6) -0.410(6) 0.065(6)
H9 H 0.309(6) -0.380(6) 0.221(3)
N3 N -0.1369(3) -0.1662(3) 0.2934(3)
H12 H -0.203(5) -0.208(4) 0.321(4)
H13 H 0.074(5) 0.046(5) 0.291(5)
Zn1A Zn 0.41849(4) 0.11622(3) -0.69092(3)
Zn2A Zn 0.75873(4) 0.48144(4) -0.50506(3)
Zn2A_2 Zn 0.75873(4) -0.51856(4) -0.50506(3)
Zn2_2 Zn 1.24127(4) -0.48144(4) -0.49494(3)
O3A O 0.3635(3) 0.6582(3) -0.5778(2)
O5A O 0.4550(3) -0.2257(2) -0.3898(2)
O7A O 0.1569(3) 0.4827(2) -0.6603(2)
O9_2 O 0.0915(2) 0.6212(3) -0.3517(2)
O2 O 0.3377(3) -0.3969(3) -0.1747(3)
H10 H 0.377(5) -0.341(5) -0.254(4)
H11 H 0.242(5) -0.420(7) -0.205(5)
loop_
_geom_bond_atom_site_label_1
_geom_bond_atom_site_label_2
_geom_bond_site_symmetry_1
_geom_bond_site_symmetry_2
Zn1 O4 1_555 1_555
Zn2 O1 1_555 1_555
P1 O1 1_555 1_555
P2 O6 1_555 1_555
O2 H10 1_555 1_555
O3 P1 1_555 1_555
O4 P1 1_555 1_555
O5 P1 1_555 1_555
O6 Zn1 1_555 1_555
O7 P2 1_555 1_555
O8 P2 1_555 1_555
H1 O8 1_555 1_555
O9 P2 1_555 1_555
O10 Zn1 1_555 1_555
O11 C1 1_555 1_555
C1 O10 1_555 1_555
C2 C1 1_555 1_555
H2 C2 1_555 1_555
C3 C2 1_555 1_555
H3 C3 1_555 1_555
H4 C3 1_555 1_555
C4 C3 1_555 1_555
N1 C4 1_555 1_555
C5 N1 1_555 1_555
H5 C5 1_555 1_555
C6 C4 1_555 1_555
H6 C6 1_555 1_555
N2 C2 1_555 1_555
H7 N2 1_555 1_555
H8 N2 1_555 1_555
H9 N2 1_555 1_555
N3 C5 1_555 1_555
H11 O2 1_555 1_555
H12 N3 1_555 1_555
H13 N1 1_555 1_555
Zn1A O5 1_555 1_555
Zn2A O3 1_555 1_555
Zn2A_2 O7 1_555 1_555
Zn2_2 O9 1_555 1_555
O3A Zn2 1_555 1_555
O5A Zn1 1_555 1_555
O7A Zn2 1_555 1_555
O9_2 Zn2 1_555 1_555
C6 N3 1_555 1_555

#END
