
#######################################################################
#
#                 Cambridge Crystallographic Data Centre
#                                CCDC 
#
#######################################################################
#
# If this CIF has been generated from an entry in the Cambridge 
# Structural Database, then it will include bibliographic, chemical, 
# crystal, experimental, refinement or atomic coordinate data resulting 
# from the CCDC's data processing and validation procedures.
#
#######################################################################

data_DOBFOQ
_symmetry_cell_setting           monoclinic
_symmetry_space_group_name_H-M   'P 21/c'
_symmetry_Int_Tables_number      14
_space_group_name_Hall           '-P 2ybc'
loop_
_symmetry_equiv_pos_site_id
_symmetry_equiv_pos_as_xyz
1 x,y,z
2 -x,1/2+y,1/2-z
3 -x,-y,-z
4 x,1/2-y,1/2+z
_cell_length_a                   9.917(2)
_cell_length_b                   12.400(3)
_cell_length_c                   17.506(4)
_cell_angle_alpha                90
_cell_angle_beta                 104.19(3)
_cell_angle_gamma                90
_cell_volume                     2087.04
loop_
_atom_site_label
_atom_site_type_symbol
_atom_site_fract_x
_atom_site_fract_y
_atom_site_fract_z
Zn1 Zn 0.46084(7) 0.29098(5) 0.17957(3)
C1 C 0.1577(6) 0.3362(4) -0.2231(3)
C2 C 0.2292(6) 0.3711(4) -0.1493(3)
H1 H 0.3229 0.3538 -0.1312
C3 C 0.1650(6) 0.4313(4) -0.1013(3)
C4 C 0.0249(7) 0.4552(5) -0.1285(3)
H2 H -0.0195 0.4970 -0.0980
C5 C -0.0496(7) 0.4170(5) -0.2014(3)
H3 H -0.1444 0.4308 -0.2185
C6 C 0.0168(7) 0.3590(5) -0.2482(3)
H4 H -0.0333 0.3347 -0.2973
C7 C 0.2303(7) 0.2787(5) -0.2760(3)
C8 C 0.2426(6) 0.4670(5) -0.0215(3)
C9 C 0.3115(6) 0.3926(5) 0.0314(3)
H5 H 0.3103 0.3211 0.0152
C10 C 0.3845(7) 0.5207(6) 0.1276(3)
H6 H 0.4334 0.5398 0.1782
C11 C 0.3193(9) 0.5991(6) 0.0786(4)
H7 H 0.3235 0.6704 0.0955
C12 C 0.2460(8) 0.5726(5) 0.0027(4)
H8 H 0.1998 0.6257 -0.0314
C13 C 0.6525(5) 0.4449(4) 0.5801(2)
C14 C 0.7135(6) 0.5424(5) 0.6076(3)
H9 H 0.7099 0.5666 0.6573
C15 C 0.7794(6) 0.6038(5) 0.5625(3)
H10 H 0.8189 0.6695 0.5816
C16 C 0.7875(6) 0.5690(4) 0.4889(3)
H11 H 0.8332 0.6105 0.4587
C17 C 0.7264(5) 0.4709(4) 0.4600(2)
C18 C 0.6580(5) 0.4102(4) 0.5052(2)
H12 H 0.6153 0.3458 0.4854
C19 C 0.5828(6) 0.3771(5) 0.6303(3)
C20 C 0.7389(5) 0.4313(4) 0.3819(2)
C21 C 0.8629(6) 0.4350(4) 0.3601(3)
H13 H 0.9412 0.4646 0.3941
C22 C 0.8716(6) 0.3951(5) 0.2878(3)
H14 H 0.9556 0.3957 0.2732
C23 C 0.7543(6) 0.3547(4) 0.2383(3)
H15 H 0.7602 0.3284 0.1895
C24 C 0.6259(5) 0.3876(4) 0.3278(2)
H16 H 0.5414 0.3835 0.3417
N1 N 0.3817(5) 0.4166(4) 0.1067(2)
N2 N 0.6312(5) 0.3510(3) 0.2568(2)
O1 O 0.3579(5) 0.2541(3) -0.2465(2)
O2 O 0.1722(5) 0.2600(4) -0.3449(2)
O3 O 0.5278(4) 0.2884(3) 0.60091(18)
O4 O 0.5850(5) 0.4065(3) 0.69781(18)
O1C O 0.3579(5) 0.2459(3) 0.2535(2)
O3C O 0.5278(4) 0.2116(3) 0.10091(18)
Zn1C Zn 0.46084(7) 0.20902(5) -0.32043(3)
Zn1C_2 Zn 0.46084(7) 0.20902(5) 0.67957(3)
O5 O 0.043(2) 0.7464(11) 0.4521(11)
H17 H 0.0973 0.6993 0.4712
H18 H 0.0241 0.7852 0.4853
loop_
_geom_bond_atom_site_label_1
_geom_bond_atom_site_label_2
_geom_bond_site_symmetry_1
_geom_bond_site_symmetry_2
Zn1 N1 1_555 1_555
C1 C2 1_555 1_555
C2 H1 1_555 1_555
C3 C2 1_555 1_555
C4 C3 1_555 1_555
H2 C4 1_555 1_555
C5 C4 1_555 1_555
H3 C5 1_555 1_555
C6 C1 1_555 1_555
H4 C6 1_555 1_555
C7 C1 1_555 1_555
C8 C3 1_555 1_555
C9 C8 1_555 1_555
H5 C9 1_555 1_555
C10 H6 1_555 1_555
C11 C10 1_555 1_555
H7 C11 1_555 1_555
C12 C8 1_555 1_555
H8 C12 1_555 1_555
C13 C14 1_555 1_555
C14 H9 1_555 1_555
C15 C14 1_555 1_555
H10 C15 1_555 1_555
C16 C15 1_555 1_555
H11 C16 1_555 1_555
C17 C16 1_555 1_555
C18 C13 1_555 1_555
H12 C18 1_555 1_555
C19 C13 1_555 1_555
C20 C17 1_555 1_555
C21 C20 1_555 1_555
H13 C21 1_555 1_555
C22 C21 1_555 1_555
H14 C22 1_555 1_555
C23 C22 1_555 1_555
H15 C23 1_555 1_555
C24 C20 1_555 1_555
H16 C24 1_555 1_555
N1 C9 1_555 1_555
N2 Zn1 1_555 1_555
O1 C7 1_555 1_555
O2 C7 1_555 1_555
O3 C19 1_555 1_555
O4 C19 1_555 1_555
O5 H17 1_555 1_555
H18 O5 1_555 1_555
O1C Zn1 1_555 1_555
O3C Zn1 1_555 1_555
Zn1C O1 1_555 1_555
Zn1C_2 O3 1_555 1_555
C5 C6 1_555 1_555
C10 N1 1_555 1_555
C11 C12 1_555 1_555
C17 C18 1_555 1_555
C23 N2 1_555 1_555
C24 N2 1_555 1_555

#END
