
#######################################################################
#
#                 Cambridge Crystallographic Data Centre
#                                CCDC 
#
#######################################################################
#
# If this CIF has been generated from an entry in the Cambridge 
# Structural Database, then it will include bibliographic, chemical, 
# crystal, experimental, refinement or atomic coordinate data resulting 
# from the CCDC's data processing and validation procedures.
#
#######################################################################

data_DOBFAC
_symmetry_cell_setting           monoclinic
_symmetry_space_group_name_H-M   'P 21/c'
_symmetry_Int_Tables_number      14
_space_group_name_Hall           '-P 2ybc'
loop_
_symmetry_equiv_pos_site_id
_symmetry_equiv_pos_as_xyz
1 x,y,z
2 -x,1/2+y,1/2-z
3 -x,-y,-z
4 x,1/2-y,1/2+z
_cell_length_a                   9.5205(19)
_cell_length_b                   9.4077(19)
_cell_length_c                   11.694(2)
_cell_angle_alpha                90
_cell_angle_beta                 98.11(3)
_cell_angle_gamma                90
_cell_volume                     1036.91
loop_
_atom_site_label
_atom_site_type_symbol
_atom_site_fract_x
_atom_site_fract_y
_atom_site_fract_z
Ni1 Ni 0.5000 0.0000 0.5000
C1 C -0.16369(13) 0.25803(13) 0.69221(11)
C2 C -0.05988(13) 0.25208(14) 0.61928(11)
H1 H -0.0792 0.2055 0.5487
C3 C 0.07234(13) 0.31505(14) 0.65090(12)
C4 C 0.09974(15) 0.38469(16) 0.75657(13)
H2 H 0.1874 0.4276 0.7784
C5 C -0.00295(15) 0.39055(17) 0.82949(12)
H3 H 0.0164 0.4373 0.9000
C6 C -0.13418(14) 0.32728(15) 0.79809(12)
H4 H -0.2024 0.3311 0.8476
C7 C -0.30622(13) 0.18830(13) 0.65798(11)
C8 C 0.40190(17) 0.30068(17) 0.44460(15)
H5 H 0.4757 0.2977 0.4003
C9 C 0.3300(2) 0.42676(19) 0.4515(2)
H6 H 0.3543 0.5067 0.4118
C10 C 0.2211(2) 0.43304(18) 0.51827(19)
H7 H 0.1729 0.5178 0.5255
C11 C 0.18484(13) 0.31170(14) 0.57395(12)
C12 C 0.26221(13) 0.18934(14) 0.56113(11)
H8 H 0.2380 0.1071 0.5979
N1 N 0.37007(11) 0.18274(12) 0.49879(10)
O1 O -0.32323(9) 0.11905(10) 0.56440(8)
O2 O -0.39758(11) 0.20115(12) 0.72531(9)
O3 O 0.54043(11) 0.04011(11) 0.33056(8)
H9 H 0.5019 -0.0244 0.2910
H10 H 0.5496 0.1111 0.2912
Ni1_2 Ni -0.5000 0.0000 0.5000
Ni1_3 Ni 1.5000 0.0000 0.5000
C1B C 1.16369(13) -0.25803(13) 0.30779(11)
C2B C 1.05988(13) -0.25208(14) 0.38072(11)
H1B H 1.0792 -0.2055 0.4513
C3B C 0.92766(13) -0.31505(14) 0.34910(12)
C4B C 0.90026(15) -0.38469(16) 0.24343(13)
H2B H 0.8126 -0.4276 0.2216
C5B C 1.00295(15) -0.39055(17) 0.17051(12)
H3B H 0.9836 -0.4373 0.1000
C6B C 1.13418(14) -0.32728(15) 0.20191(12)
H4B H 1.2024 -0.3311 0.1524
C7B C 1.30622(13) -0.18830(13) 0.34202(11)
C8B C 0.59810(17) -0.30068(17) 0.55540(15)
H5B H 0.5243 -0.2977 0.5997
C9B C 0.6700(2) -0.42676(19) 0.5485(2)
H6B H 0.6457 -0.5067 0.5882
C10B C 0.7789(2) -0.43304(18) 0.48173(19)
H7B H 0.8271 -0.5178 0.4745
C11B C 0.81516(13) -0.31170(14) 0.42605(12)
C12B C 0.73779(13) -0.18934(14) 0.43887(11)
H8B H 0.7620 -0.1071 0.4021
N1B N 0.62993(11) -0.18274(12) 0.50121(10)
O1B O 1.32323(9) -0.11905(10) 0.43560(8)
O1_2 O 0.67677(9) 0.11905(10) 0.56440(8)
O1B_2 O 0.32323(9) -0.11905(10) 0.43560(8)
O2B O 1.39758(11) -0.20115(12) 0.27469(9)
O3B O 0.45957(11) -0.04011(11) 0.66944(8)
H9B H 0.4981 0.0244 0.7090
H10B H 0.4504 -0.1111 0.7088
loop_
_geom_bond_atom_site_label_1
_geom_bond_atom_site_label_2
_geom_bond_site_symmetry_1
_geom_bond_site_symmetry_2
Ni1 N1 1_555 1_555
C1 C2 1_555 1_555
C2 H1 1_555 1_555
C3 C2 1_555 1_555
C4 C3 1_555 1_555
H2 C4 1_555 1_555
C5 C4 1_555 1_555
H3 C5 1_555 1_555
C6 C1 1_555 1_555
H4 C6 1_555 1_555
C7 C1 1_555 1_555
C8 H5 1_555 1_555
C9 C8 1_555 1_555
H6 C9 1_555 1_555
C10 C9 1_555 1_555
H7 C10 1_555 1_555
C11 C3 1_555 1_555
C12 C11 1_555 1_555
H8 C12 1_555 1_555
N1 C8 1_555 1_555
O1 C7 1_555 1_555
O2 C7 1_555 1_555
O3 Ni1 1_555 1_555
H9 O3 1_555 1_555
H10 O3 1_555 1_555
Ni1_2 O1 1_555 1_555
Ni1_3 O1B 1_555 1_555
C1B C2B 1_555 1_555
C2B H1B 1_555 1_555
C3B C2B 1_555 1_555
C4B C3B 1_555 1_555
H2B C4B 1_555 1_555
C5B C4B 1_555 1_555
H3B C5B 1_555 1_555
C6B C1B 1_555 1_555
H4B C6B 1_555 1_555
C7B C1B 1_555 1_555
C8B H5B 1_555 1_555
C9B C8B 1_555 1_555
H6B C9B 1_555 1_555
C10B C9B 1_555 1_555
H7B C10B 1_555 1_555
C11B C3B 1_555 1_555
C12B C11B 1_555 1_555
H8B C12B 1_555 1_555
N1B Ni1 1_555 1_555
O1B C7B 1_555 1_555
O1_2 Ni1 1_555 1_555
O1B_2 Ni1 1_555 1_555
O2B C7B 1_555 1_555
O3B Ni1 1_555 1_555
H9B O3B 1_555 1_555
H10B O3B 1_555 1_555
C5 C6 1_555 1_555
C10 C11 1_555 1_555
C12 N1 1_555 1_555
C5B C6B 1_555 1_555
C8B N1B 1_555 1_555
C10B C11B 1_555 1_555
C12B N1B 1_555 1_555

#END
