
#######################################################################
#
#                 Cambridge Crystallographic Data Centre
#                                CCDC 
#
#######################################################################
#
# If this CIF has been generated from an entry in the Cambridge 
# Structural Database, then it will include bibliographic, chemical, 
# crystal, experimental, refinement or atomic coordinate data resulting 
# from the CCDC's data processing and validation procedures.
#
#######################################################################

data_DOBFIK
_symmetry_cell_setting           monoclinic
_symmetry_space_group_name_H-M   'P 21/c'
_symmetry_Int_Tables_number      14
_space_group_name_Hall           '-P 2ybc'
loop_
_symmetry_equiv_pos_site_id
_symmetry_equiv_pos_as_xyz
1 x,y,z
2 -x,1/2+y,1/2-z
3 -x,-y,-z
4 x,1/2-y,1/2+z
_cell_length_a                   9.5166(19)
_cell_length_b                   9.4361(19)
_cell_length_c                   11.740(2)
_cell_angle_alpha                90
_cell_angle_beta                 98.19(3)
_cell_angle_gamma                90
_cell_volume                     1043.5
loop_
_atom_site_label
_atom_site_type_symbol
_atom_site_fract_x
_atom_site_fract_y
_atom_site_fract_z
Co1 Co 0.5000 0.0000 0.5000
N1 N 0.63276(12) 0.18626(12) 0.49901(10)
C1 C 0.60250(18) 0.30403(18) 0.55327(16)
H1 H 0.5301 0.3012 0.5988
C2 C 0.6737(2) 0.4297(2) 0.5449(2)
H2 H 0.6497 0.5098 0.5842
O1 O 1.32371(10) 0.12103(11) 0.43307(8)
O2 O 1.39857(11) 0.20035(12) 0.27252(10)
O3 O 0.46063(12) 0.04246(12) 0.67000(9)
H3 H 0.4934 -0.0200 0.7082
H4 H 0.4492 0.1136 0.7085
C3 C 1.16443(13) 0.25849(14) 0.30438(11)
C4 C 1.06059(14) 0.25382(14) 0.37694(12)
H5 H 1.0798 0.2080 0.4476
C5 C 1.30683(14) 0.18900(14) 0.33936(11)
C6 C 0.92878(14) 0.31661(14) 0.34524(12)
C7 C 0.73915(14) 0.19275(15) 0.43572(12)
H6 H 0.7624 0.1106 0.3988
C8 C 0.81658(14) 0.31438(15) 0.42197(13)
C9 C 0.90125(15) 0.38483(17) 0.23908(14)
H7 H 0.8135 0.4275 0.2168
C10 C 1.13490(15) 0.32639(16) 0.19853(12)
H8 H 1.2031 0.3294 0.1492
C11 C 1.00395(16) 0.38937(18) 0.16670(13)
H9 H 0.9847 0.4352 0.0961
C12 C 0.7815(2) 0.4356(2) 0.4774(2)
H10 H 0.8296 0.5200 0.4695
Co1_2 Co 1.5000 0.0000 0.5000
Co1_3 Co -0.5000 0.0000 0.5000
N1B N 0.36724(12) -0.18626(12) 0.50099(10)
C1B C 0.39750(18) -0.30403(18) 0.44673(16)
H1B H 0.4699 -0.3012 0.4012
C2B C 0.3263(2) -0.4297(2) 0.4551(2)
H2B H 0.3503 -0.5098 0.4158
O1B O -0.32371(10) -0.12103(11) 0.56693(8)
O1_2 O 0.32371(10) 0.12103(11) 0.43307(8)
O1B_2 O 0.67629(10) -0.12103(11) 0.56693(8)
O2B O -0.39857(11) -0.20035(12) 0.72748(10)
O3B O 0.53937(12) -0.04246(12) 0.33000(9)
H3B H 0.5066 0.0200 0.2918
H4B H 0.5508 -0.1136 0.2915
C3B C -0.16443(13) -0.25849(14) 0.69562(11)
C4B C -0.06059(14) -0.25382(14) 0.62306(12)
H5B H -0.0798 -0.2080 0.5524
C5B C -0.30683(14) -0.18900(14) 0.66064(11)
C6B C 0.07122(14) -0.31661(14) 0.65476(12)
C7B C 0.26085(14) -0.19275(15) 0.56428(12)
H6B H 0.2376 -0.1106 0.6012
C8B C 0.18342(14) -0.31438(15) 0.57803(13)
C9B C 0.09875(15) -0.38483(17) 0.76092(14)
H7B H 0.1865 -0.4275 0.7832
C10B C -0.13490(15) -0.32639(16) 0.80147(12)
H8B H -0.2031 -0.3294 0.8508
C11B C -0.00395(16) -0.38937(18) 0.83330(13)
H9B H 0.0153 -0.4352 0.9039
C12B C 0.2185(2) -0.4356(2) 0.5226(2)
H10B H 0.1704 -0.5200 0.5305
loop_
_geom_bond_atom_site_label_1
_geom_bond_atom_site_label_2
_geom_bond_site_symmetry_1
_geom_bond_site_symmetry_2
Co1 N1 1_555 1_555
N1 C1 1_555 1_555
C1 H1 1_555 1_555
C2 C1 1_555 1_555
H2 C2 1_555 1_555
O1 C5 1_555 1_555
O2 C5 1_555 1_555
O3 Co1 1_555 1_555
H3 O3 1_555 1_555
H4 O3 1_555 1_555
C3 C4 1_555 1_555
C4 H5 1_555 1_555
C5 C3 1_555 1_555
C6 C4 1_555 1_555
C7 N1 1_555 1_555
H6 C7 1_555 1_555
C8 C6 1_555 1_555
C9 C6 1_555 1_555
H7 C9 1_555 1_555
C10 C3 1_555 1_555
H8 C10 1_555 1_555
C11 C9 1_555 1_555
H9 C11 1_555 1_555
C12 C2 1_555 1_555
H10 C12 1_555 1_555
Co1_2 O1 1_555 1_555
Co1_3 O1B 1_555 1_555
N1B Co1 1_555 1_555
C1B N1B 1_555 1_555
H1B C1B 1_555 1_555
C2B C1B 1_555 1_555
H2B C2B 1_555 1_555
O1B C5B 1_555 1_555
O1_2 Co1 1_555 1_555
O1B_2 Co1 1_555 1_555
O2B C5B 1_555 1_555
O3B Co1 1_555 1_555
H3B O3B 1_555 1_555
H4B O3B 1_555 1_555
C3B C4B 1_555 1_555
C4B H5B 1_555 1_555
C5B C3B 1_555 1_555
C6B C4B 1_555 1_555
C7B N1B 1_555 1_555
H6B C7B 1_555 1_555
C8B C6B 1_555 1_555
C9B C6B 1_555 1_555
H7B C9B 1_555 1_555
C10B C3B 1_555 1_555
H8B C10B 1_555 1_555
C11B C9B 1_555 1_555
H9B C11B 1_555 1_555
C12B C2B 1_555 1_555
H10B C12B 1_555 1_555
C7 C8 1_555 1_555
C8 C12 1_555 1_555
C10 C11 1_555 1_555
C7B C8B 1_555 1_555
C8B C12B 1_555 1_555
C10B C11B 1_555 1_555

#END
