
#######################################################################
#
#                 Cambridge Crystallographic Data Centre
#                                CCDC 
#
#######################################################################
#
# If this CIF has been generated from an entry in the Cambridge 
# Structural Database, then it will include bibliographic, chemical, 
# crystal, experimental, refinement or atomic coordinate data resulting 
# from the CCDC's data processing and validation procedures.
#
#######################################################################

data_DOBFUW
_symmetry_cell_setting           monoclinic
_symmetry_space_group_name_H-M   'P 21/c'
_symmetry_Int_Tables_number      14
_space_group_name_Hall           '-P 2ybc'
loop_
_symmetry_equiv_pos_site_id
_symmetry_equiv_pos_as_xyz
1 x,y,z
2 -x,1/2+y,1/2-z
3 -x,-y,-z
4 x,1/2-y,1/2+z
_cell_length_a                   9.0261(18)
_cell_length_b                   10.445(2)
_cell_length_c                   10.763(2)
_cell_angle_alpha                90
_cell_angle_beta                 100.65(3)
_cell_angle_gamma                90
_cell_volume                     997.231
loop_
_atom_site_label
_atom_site_type_symbol
_atom_site_fract_x
_atom_site_fract_y
_atom_site_fract_z
Cu1 Cu 0.5000 0.0000 1.0000
C1 C 1.1601(7) 0.2414(6) 0.8516(7)
C2 C 1.0459(7) 0.2351(6) 0.9204(7)
H1 H 1.0511 0.1740 0.9839
C3 C 0.9226(7) 0.3180(6) 0.8975(7)
C4 C 0.9176(8) 0.4113(6) 0.8052(8)
H2 H 0.8383 0.4695 0.7905
C5 C 1.0317(8) 0.4171(7) 0.7351(8)
H3 H 1.0275 0.4791 0.6725
C6 C 1.1513(8) 0.3327(7) 0.7564(7)
H4 H 1.2258 0.3368 0.7073
C7 C 1.2919(7) 0.1508(6) 0.8777(7)
C8 C 0.7966(7) 0.3036(6) 0.9679(7)
C9 C 0.7302(7) 0.1862(6) 0.9766(7)
H5 H 0.7695 0.1166 0.9397
C10 C 0.5671(8) 0.2630(7) 1.0977(8)
H6 H 0.4922 0.2488 1.1449
C11 C 0.6272(8) 0.3844(7) 1.0954(8)
H7 H 0.5911 0.4512 1.1386
C12 C 0.7415(9) 0.4056(8) 1.0282(8)
H8 H 0.7810 0.4873 1.0236
N1 N 0.6134(6) 0.1648(5) 1.0341(6)
O1 O 1.3114(5) 0.0938(4) 0.9849(5)
O2 O 1.3741(5) 0.1363(5) 0.7990(5)
C1B C -0.1601(7) -0.2414(6) 1.1484(7)
C2B C -0.0459(7) -0.2351(6) 1.0796(7)
H1B H -0.0511 -0.1740 1.0161
C3B C 0.0774(7) -0.3180(6) 1.1025(7)
C4B C 0.0824(8) -0.4113(6) 1.1948(8)
H2B H 0.1617 -0.4695 1.2095
C5B C -0.0317(8) -0.4171(7) 1.2649(8)
H3B H -0.0275 -0.4791 1.3275
C6B C -0.1513(8) -0.3327(7) 1.2436(7)
H4B H -0.2258 -0.3368 1.2927
C7B C -0.2919(7) -0.1508(6) 1.1223(7)
C8B C 0.2034(7) -0.3036(6) 1.0321(7)
C9B C 0.2698(7) -0.1862(6) 1.0234(7)
H5B H 0.2305 -0.1166 1.0603
C10B C 0.4329(8) -0.2630(7) 0.9023(8)
H6B H 0.5078 -0.2488 0.8551
C11B C 0.3728(8) -0.3844(7) 0.9046(8)
H7B H 0.4089 -0.4512 0.8614
C12B C 0.2585(9) -0.4056(8) 0.9718(8)
H8B H 0.2190 -0.4873 0.9764
N1B N 0.3866(6) -0.1648(5) 0.9659(6)
O1B O -0.3114(5) -0.0938(4) 1.0151(5)
O2B O -0.3741(5) -0.1363(5) 1.2010(5)
O1_2 O 0.3114(5) 0.0938(4) 0.9849(5)
O1B_2 O 0.6886(5) -0.0938(4) 1.0151(5)
Cu1_2 Cu 1.5000 0.0000 1.0000
Cu1_3 Cu -0.5000 0.0000 1.0000
loop_
_geom_bond_atom_site_label_1
_geom_bond_atom_site_label_2
_geom_bond_site_symmetry_1
_geom_bond_site_symmetry_2
Cu1 N1 1_555 1_555
C1 C2 1_555 1_555
C2 H1 1_555 1_555
C3 C2 1_555 1_555
C4 C3 1_555 1_555
H2 C4 1_555 1_555
C5 C4 1_555 1_555
H3 C5 1_555 1_555
C6 C1 1_555 1_555
H4 C6 1_555 1_555
C7 C1 1_555 1_555
C8 C3 1_555 1_555
C9 C8 1_555 1_555
H5 C9 1_555 1_555
C10 H6 1_555 1_555
C11 C10 1_555 1_555
H7 C11 1_555 1_555
C12 C8 1_555 1_555
H8 C12 1_555 1_555
N1 C9 1_555 1_555
O1 C7 1_555 1_555
O2 C7 1_555 1_555
C1B C2B 1_555 1_555
C2B H1B 1_555 1_555
C3B C2B 1_555 1_555
C4B C3B 1_555 1_555
H2B C4B 1_555 1_555
C5B C4B 1_555 1_555
H3B C5B 1_555 1_555
C6B C1B 1_555 1_555
H4B C6B 1_555 1_555
C7B C1B 1_555 1_555
C8B C3B 1_555 1_555
C9B C8B 1_555 1_555
H5B C9B 1_555 1_555
C10B H6B 1_555 1_555
C11B C10B 1_555 1_555
H7B C11B 1_555 1_555
C12B C8B 1_555 1_555
H8B C12B 1_555 1_555
N1B Cu1 1_555 1_555
O1B C7B 1_555 1_555
O2B C7B 1_555 1_555
O1_2 Cu1 1_555 1_555
O1B_2 Cu1 1_555 1_555
Cu1_2 O1 1_555 1_555
Cu1_3 O1B 1_555 1_555
C5 C6 1_555 1_555
C10 N1 1_555 1_555
C11 C12 1_555 1_555
C5B C6B 1_555 1_555
C9B N1B 1_555 1_555
C10B N1B 1_555 1_555
C11B C12B 1_555 1_555

#END
