
#######################################################################
#
#                 Cambridge Crystallographic Data Centre
#                                CCDC 
#
#######################################################################
#
# If this CIF has been generated from an entry in the Cambridge 
# Structural Database, then it will include bibliographic, chemical, 
# crystal, experimental, refinement or atomic coordinate data resulting 
# from the CCDC's data processing and validation procedures.
#
#######################################################################

data_DOBGAD
_symmetry_cell_setting           monoclinic
_symmetry_space_group_name_H-M   'P 21/n'
_symmetry_Int_Tables_number      14
_space_group_name_Hall           '-P 2yn'
loop_
_symmetry_equiv_pos_site_id
_symmetry_equiv_pos_as_xyz
1 x,y,z
2 1/2-x,1/2+y,1/2-z
3 -x,-y,-z
4 1/2+x,1/2-y,1/2+z
_cell_length_a                   8.9065(18)
_cell_length_b                   10.509(2)
_cell_length_c                   20.801(4)
_cell_angle_alpha                90
_cell_angle_beta                 94.50(3)
_cell_angle_gamma                90
_cell_volume                     1940.94
loop_
_atom_site_label
_atom_site_type_symbol
_atom_site_fract_x
_atom_site_fract_y
_atom_site_fract_z
O1 O 1.0458(2) 0.8676(2) 0.46459(8)
N1 N 0.6191(3) 0.7567(2) 0.09346(10)
C1 C 0.6704(3) 0.7288(2) 0.15461(12)
C2 C 0.6971(4) 0.8387(3) 0.06045(13)
C3 C 0.8263(4) 0.8966(4) 0.08682(14)
C4 C 0.8782(4) 0.8676(3) 0.14952(13)
C5 C 0.8005(3) 0.7814(3) 0.18476(12)
C6 C 0.8548(3) 0.7439(3) 0.25177(12)
C7 C 0.8512(4) 0.6183(3) 0.27042(14)
C8 C 0.9043(4) 0.5826(3) 0.33188(15)
C9 C 0.9579(3) 0.6733(3) 0.37626(13)
C10 C 0.9656(3) 0.7995(2) 0.35831(12)
C11 C 1.0280(3) 0.8974(2) 0.40619(11)
O2 O 1.0626(2) 1.00409(17) 0.38421(8)
Cd1 Cd 0.89329(2) 0.831234(17) 0.547900(8)
C12 C 0.2845(3) 0.4998(3) 0.36713(12)
C13 C 0.3560(3) 0.6012(2) 0.39932(12)
H1 H 0.3673 0.6011 0.4441
C14 C 0.4112(3) 0.7032(2) 0.36537(12)
C15 C 0.3893(3) 0.7031(3) 0.29787(13)
H2 H 0.4244 0.7709 0.2746
C16 C 0.3162(4) 0.6034(3) 0.26557(13)
H3 H 0.3009 0.6048 0.2208
C17 C 0.2659(3) 0.5020(3) 0.29982(13)
H4 H 0.2189 0.4340 0.2779
C18 C 0.4935(3) 0.8104(2) 0.39809(13)
C19 C 0.6093(3) 0.7879(3) 0.44567(12)
H5 H 0.6305 0.7042 0.4577
C20 C 0.6610(3) 1.0018(3) 0.45808(13)
H6 H 0.7186 1.0669 0.4778
C21 C 0.5465(3) 1.0329(3) 0.41231(14)
H7 H 0.5261 1.1175 0.4019
C22 C 0.4625(3) 0.9365(3) 0.38209(13)
H8 H 0.3852 0.9560 0.3510
C23 C 0.2303(3) 0.3864(3) 0.40346(13)
C24 C 0.9161(3) 0.8343(2) 0.29557(11)
H9 H 0.9239 0.9187 0.2827
H10 H 0.8126 0.5571 0.2413
H11 H 0.9041 0.4972 0.3435
H12 H 0.9889 0.6491 0.4182
H13 H 0.6159 0.6715 0.1776
H14 H 0.6629 0.8576 0.0181
H15 H 0.8781 0.9542 0.0627
H16 H 0.9652 0.9059 0.1680
N2 N 0.6922(2) 0.8817(2) 0.47513(10)
O3 O 0.2190(3) 0.2816(2) 0.37372(11)
O4 O 0.1991(2) 0.3998(2) 0.46040(9)
N1C N 1.1191(3) 0.7433(2) 0.59346(10)
O2B O 0.9374(2) 0.99591(17) 0.61579(8)
Cd1C Cd 0.39329(2) 0.668766(17) 0.047900(8)
Cd1B Cd 1.10671(2) 1.168766(17) 0.452100(8)
Cd1B_2 Cd 0.10671(2) 0.168766(17) 0.452100(8)
O3B O 0.7810(3) 0.7184(2) 0.62628(11)
O4B O 0.8009(2) 0.6002(2) 0.53960(9)
loop_
_geom_bond_atom_site_label_1
_geom_bond_atom_site_label_2
_geom_bond_site_symmetry_1
_geom_bond_site_symmetry_2
O1 C11 1_555 1_555
N1 C1 1_555 1_555
C1 C5 1_555 1_555
C2 N1 1_555 1_555
C3 C2 1_555 1_555
C4 C3 1_555 1_555
C5 C4 1_555 1_555
C6 C5 1_555 1_555
C7 C6 1_555 1_555
C8 C7 1_555 1_555
C9 C8 1_555 1_555
C10 C9 1_555 1_555
C11 C10 1_555 1_555
O2 C11 1_555 1_555
Cd1 O1 1_555 1_555
C12 C13 1_555 1_555
C13 H1 1_555 1_555
C14 C13 1_555 1_555
C15 C14 1_555 1_555
H2 C15 1_555 1_555
C16 C15 1_555 1_555
H3 C16 1_555 1_555
C17 C12 1_555 1_555
H4 C17 1_555 1_555
C18 C14 1_555 1_555
C19 C18 1_555 1_555
H5 C19 1_555 1_555
C20 H6 1_555 1_555
C21 C20 1_555 1_555
H7 C21 1_555 1_555
C22 C18 1_555 1_555
H8 C22 1_555 1_555
C23 C12 1_555 1_555
C24 C6 1_555 1_555
H9 C24 1_555 1_555
H10 C7 1_555 1_555
H11 C8 1_555 1_555
H12 C9 1_555 1_555
H13 C1 1_555 1_555
H14 C2 1_555 1_555
H15 C3 1_555 1_555
H16 C4 1_555 1_555
N2 Cd1 1_555 1_555
O3 C23 1_555 1_555
O4 C23 1_555 1_555
N1C Cd1 1_555 1_555
O2B Cd1 1_555 1_555
Cd1C N1 1_555 1_555
Cd1B O2 1_555 1_555
Cd1B_2 O3 1_555 1_555
O3B Cd1 1_555 1_555
O4B Cd1 1_555 1_555
C10 C24 1_555 1_555
C16 C17 1_555 1_555
C19 N2 1_555 1_555
C20 N2 1_555 1_555
C21 C22 1_555 1_555
O4 Cd1B_2 1_555 1_555

#END
