
#######################################################################
#
#                 Cambridge Crystallographic Data Centre
#                                CCDC 
#
#######################################################################
#
# If this CIF has been generated from an entry in the Cambridge 
# Structural Database, then it will include bibliographic, chemical, 
# crystal, experimental, refinement or atomic coordinate data resulting 
# from the CCDC's data processing and validation procedures.
#
#######################################################################

data_DOBGOR
_symmetry_cell_setting           monoclinic
_symmetry_space_group_name_H-M   'P 21/c'
_symmetry_Int_Tables_number      14
_space_group_name_Hall           '-P 2ybc'
loop_
_symmetry_equiv_pos_site_id
_symmetry_equiv_pos_as_xyz
1 x,y,z
2 -x,1/2+y,1/2-z
3 -x,-y,-z
4 x,1/2-y,1/2+z
_cell_length_a                   10.6683(2)
_cell_length_b                   10.2683(2)
_cell_length_c                   18.9476(7)
_cell_angle_alpha                90
_cell_angle_beta                 117.949(3)
_cell_angle_gamma                90
_cell_volume                     1833.53
loop_
_atom_site_label
_atom_site_type_symbol
_atom_site_fract_x
_atom_site_fract_y
_atom_site_fract_z
Zn1 Zn 0.00486(4) 0.83871(4) 0.39909(3)
Zn2 Zn -0.35421(5) 1.01360(5) 0.48428(3)
C1 C 0.2206(4) 0.6305(4) 0.5095(3)
H1 H 0.2634 0.6417 0.4770
C2 C 0.2742(5) 0.5382(5) 0.5689(3)
H2 H 0.3528 0.4890 0.5766
C3 C 0.2120(5) 0.5194(5) 0.6159(3)
H3 H 0.2476 0.4571 0.6562
C4 C 0.0938(5) 0.5942(4) 0.6037(3)
H4 H 0.0488 0.5818 0.6350
C5 C 0.0456(4) 0.6874(4) 0.5437(2)
C6 C -0.0761(4) 0.7731(4) 0.5274(2)
C7 C -0.2273(4) 1.0044(4) 0.3779(2)
C8 C -0.3467(4) 1.0982(4) 0.3403(2)
C9 C -0.3796(5) 1.1618(4) 0.2688(3)
H5 H -0.3248 1.1501 0.2430
C10 C -0.4980(5) 1.2437(5) 0.2374(3)
H6 H -0.5217 1.2892 0.1904
C11 C -0.5784(5) 1.2571(5) 0.2749(3)
H7 H -0.6590 1.3094 0.2531
C12 C -0.5393(4) 1.1926(4) 0.3454(3)
H8 H -0.5942 1.2032 0.3713
C13 C -0.1456(5) 0.7611(5) 0.5796(3)
H9 H -0.2227 0.8219 0.5624
H10 H -0.0776 0.7794 0.6339
H11 H -0.1813 0.6742 0.5760
N1 N 0.1084(3) 0.7052(3) 0.4967(2)
N2 N -0.1099(3) 0.8487(3) 0.46743(19)
N3 N -0.2210(3) 0.9374(3) 0.44087(19)
N4 N -0.4247(3) 1.1144(3) 0.37886(19)
N5 N -0.1347(4) 0.9875(3) 0.3503(2)
N6 N -0.0554(4) 0.7130(4) 0.3079(2)
N7 N 0.0248(5) 0.6414(4) 0.3003(2)
N8 N 0.1004(7) 0.5707(6) 0.2919(4)
N9 N 0.1966(3) 0.9148(3) 0.4126(2)
N10 N 0.2166(4) 0.9139(4) 0.3547(2)
N11 N 0.2356(5) 0.9150(6) 0.3013(3)
N12 N -0.4853(3) 0.8763(4) 0.4853(2)
N13 N -0.5028(4) 0.7665(4) 0.4584(2)
N14 N -0.5256(5) 0.6632(5) 0.4347(4)
Zn2B Zn 0.35421(5) 0.98640(5) 0.51572(3)
Zn2B_2 Zn -0.64579(5) 0.98640(5) 0.51572(3)
N9B N -0.1966(3) 1.0852(3) 0.5874(2)
N12B N -0.5147(3) 1.1237(4) 0.5147(2)
loop_
_geom_bond_atom_site_label_1
_geom_bond_atom_site_label_2
_geom_bond_site_symmetry_1
_geom_bond_site_symmetry_2
Zn1 N1 1_555 1_555
Zn2 N3 1_555 1_555
C1 H1 1_555 1_555
C2 C1 1_555 1_555
H2 C2 1_555 1_555
C3 C2 1_555 1_555
H3 C3 1_555 1_555
C4 C3 1_555 1_555
H4 C4 1_555 1_555
C5 C4 1_555 1_555
C6 C5 1_555 1_555
C7 C8 1_555 1_555
C8 C9 1_555 1_555
C9 H5 1_555 1_555
C10 C9 1_555 1_555
H6 C10 1_555 1_555
C11 C10 1_555 1_555
H7 C11 1_555 1_555
C12 C11 1_555 1_555
H8 C12 1_555 1_555
C13 C6 1_555 1_555
H9 C13 1_555 1_555
H10 C13 1_555 1_555
H11 C13 1_555 1_555
N1 C1 1_555 1_555
N2 Zn1 1_555 1_555
N3 C7 1_555 1_555
N4 Zn2 1_555 1_555
N5 Zn1 1_555 1_555
N6 Zn1 1_555 1_555
N7 N6 1_555 1_555
N8 N7 1_555 1_555
N9 Zn1 1_555 1_555
N10 N9 1_555 1_555
N11 N10 1_555 1_555
N12 Zn2 1_555 1_555
N13 N12 1_555 1_555
N14 N13 1_555 1_555
Zn2B N9 1_555 1_555
Zn2B_2 N12 1_555 1_555
N9B Zn2 1_555 1_555
N12B Zn2 1_555 1_555
C5 N1 1_555 1_555
C6 N2 1_555 1_555
C7 N5 1_555 1_555
C8 N4 1_555 1_555
C12 N4 1_555 1_555
N2 N3 1_555 1_555
Zn2B_2 N12B 1_555 1_555

#END
