
#######################################################################
#
#                 Cambridge Crystallographic Data Centre
#                                CCDC 
#
#######################################################################
#
# If this CIF has been generated from an entry in the Cambridge 
# Structural Database, then it will include bibliographic, chemical, 
# crystal, experimental, refinement or atomic coordinate data resulting 
# from the CCDC's data processing and validation procedures.
#
#######################################################################

data_DOBGEH
_symmetry_cell_setting           triclinic
_symmetry_space_group_name_H-M   'P -1'
_symmetry_Int_Tables_number      2
_space_group_name_Hall           '-P 1'
loop_
_symmetry_equiv_pos_site_id
_symmetry_equiv_pos_as_xyz
1 x,y,z
2 -x,-y,-z
_cell_length_a                   9.956(2)
_cell_length_b                   13.411(3)
_cell_length_c                   24.079(5)
_cell_angle_alpha                93.28(3)
_cell_angle_beta                 91.31(3)
_cell_angle_gamma                93.43(3)
_cell_volume                     3202.89
loop_
_atom_site_label
_atom_site_type_symbol
_atom_site_fract_x
_atom_site_fract_y
_atom_site_fract_z
Gd1 Gd 0.51170(7) 0.74079(6) 0.23796(3)
Gd2 Gd 0.00691(7) 0.73150(6) 0.25774(3)
C1 C 0.2682(17) 0.4571(12) 0.2237(6)
C2 C 0.3996(18) 0.4388(12) 0.2102(6)
H1 H 0.4640 0.4920 0.2110
C3 C 0.4381(16) 0.3415(12) 0.1952(6)
C4 C 0.339(2) 0.2659(13) 0.1928(8)
H2 H 0.3598 0.2015 0.1809
C5 C 0.210(2) 0.2837(14) 0.2078(10)
H3 H 0.1457 0.2305 0.2088
C6 C 0.1742(19) 0.3804(15) 0.2213(8)
H4 H 0.0851 0.3923 0.2288
C7 C 0.2346(18) 0.5610(14) 0.2400(6)
C8 C 0.5808(16) 0.3226(11) 0.1829(6)
C9 C 0.6827(18) 0.3963(14) 0.1928(8)
H5 H 0.6570 0.4570 0.2084
C10 C 0.847(2) 0.3021(16) 0.1621(7)
H6 H 0.9367 0.2930 0.1553
C11 C 0.754(2) 0.2212(17) 0.1500(9)
H7 H 0.7815 0.1604 0.1351
C12 C 0.5770(17) 0.6356(12) 0.0688(6)
C13 C 0.6200(19) 0.2346(14) 0.1611(8)
H8 H 0.5561 0.1819 0.1534
C14 C 0.6656(18) 0.5597(13) 0.0591(6)
H9 H 0.6980 0.5259 0.0888
C15 C 0.7049(19) 0.5349(13) 0.0061(6)
C16 C 0.652(2) 0.5849(16) -0.0358(7)
H10 H 0.6770 0.5680 -0.0719
C17 C 0.560(2) 0.6610(14) -0.0279(7)
H11 H 0.5268 0.6950 -0.0574
C18 C 0.5251(17) 0.6811(13) 0.0257(7)
H12 H 0.4622 0.7285 0.0328
C19 C 0.5393(16) 0.6601(12) 0.1289(6)
C20 C 0.8022(18) 0.4542(13) -0.0055(6)
C21 C 0.887(2) 0.4254(14) 0.0368(7)
H13 H 0.8814 0.4544 0.0727
C22 C 0.983(2) 0.3106(14) -0.0279(8)
H14 H 1.0432 0.2619 -0.0358
C23 C 0.9031(17) 0.3355(12) -0.0673(6)
H15 H 0.9079 0.3055 -0.1029
C24 C 0.812(2) 0.4058(15) -0.0566(7)
H16 H 0.7544 0.4215 -0.0853
C25 C 0.6832(16) 0.5546(12) 0.3619(6)
C26 C 0.5519(17) 0.5217(13) 0.3616(7)
H17 H 0.4935 0.5360 0.3328
C27 C 0.506(2) 0.4665(15) 0.4050(8)
C28 C 0.584(2) 0.4456(12) 0.4464(7)
H18 H 0.5508 0.4063 0.4742
C29 C 0.713(3) 0.481(2) 0.4489(10)
H19 H 0.7665 0.4702 0.4799
C30 C 0.7666(19) 0.5330(18) 0.4059(8)
H20 H 0.8576 0.5534 0.4065
C31 C 0.742(2) 0.6160(12) 0.3164(6)
C32 C 0.3537(14) 0.4518(14) 0.4109(7)
C33 C 0.2654(19) 0.5121(11) 0.3850(6)
H21 H 0.2987 0.5663 0.3660
N1 N 0.1273(18) 0.4914(12) 0.3877(6)
C34 C 0.0775(14) 0.4104(13) 0.4161(7)
H22 H -0.0149 0.3965 0.4178
C35 C 0.166(2) 0.3500(11) 0.4419(6)
H23 H 0.1325 0.2958 0.4609
C36 C 0.3039(18) 0.3707(13) 0.4393(7)
H24 H 0.3630 0.3304 0.4566
C37 C 0.5652(16) 0.8471(13) 0.4114(6)
C38 C 0.6640(19) 0.9220(14) 0.4275(6)
H25 H 0.7148 0.9508 0.4000
C39 C 0.6894(17) 0.9547(13) 0.4809(6)
C40 C 0.616(2) 0.9092(13) 0.5214(7)
H26 H 0.6308 0.9305 0.5586
C41 C 0.522(2) 0.8323(15) 0.5069(7)
H27 H 0.4744 0.8017 0.5349
C42 C 0.4947(19) 0.7997(14) 0.4528(8)
H28 H 0.4312 0.7472 0.4439
C43 C 0.5441(18) 0.8191(13) 0.3519(6)
C44 C 0.7925(19) 1.0357(14) 0.4962(7)
C45 C 0.873(3) 1.076(2) 0.4598(12)
H29 H 0.8678 1.0493 0.4232
C46 C 0.980(2) 1.1875(17) 0.5277(9)
H30 H 1.0505 1.2326 0.5403
C47 C 0.896(3) 1.1555(18) 0.5624(9)
H31 H 0.8912 1.1885 0.5973
C48 C 0.817(3) 1.077(2) 0.5494(9)
H32 H 0.7732 1.0469 0.5782
C49 C 0.8273(17) 0.9288(12) 0.1433(6)
C50 C 0.7545(16) 0.9412(12) 0.0940(6)
H33 H 0.6684 0.9108 0.0887
C51 C 0.810(2) 0.9989(13) 0.0526(7)
C52 C 0.9404(17) 1.0468(13) 0.0625(7)
H34 H 0.9782 1.0863 0.0357
C53 C 1.0126(18) 1.0353(14) 0.1118(7)
H35 H 1.0980 1.0665 0.1179
C54 C 0.955(2) 0.9763(13) 0.1519(7)
H36 H 1.0019 0.9687 0.1850
C55 C 0.7397(19) 1.0039(13) 0.0003(7)
C56 C 0.677(2) 0.9231(14) -0.0296(9)
H37 H 0.6818 0.8610 -0.0145
C57 C 0.606(2) 1.0098(19) -0.0996(7)
H38 H 0.5544 1.0130 -0.1320
C58 C 0.673(2) 1.0980(17) -0.0779(8)
H39 H 0.6741 1.1563 -0.0971
C59 C 0.737(2) 1.0955(13) -0.0277(9)
H40 H 0.7803 1.1536 -0.0113
C60 C 0.7636(16) 0.8617(11) 0.1853(6)
C61 C 0.3220(15) 1.0102(12) 0.2831(6)
C62 C 0.4579(17) 1.0393(13) 0.2799(6)
H41 H 0.5144 0.9980 0.2603
C63 C 0.5109(16) 1.1289(12) 0.3055(6)
C64 C 0.4254(19) 1.1891(14) 0.3357(7)
H42 H 0.4587 1.2491 0.3535
C65 C 0.285(2) 1.1574(13) 0.3388(7)
H43 H 0.2273 1.1973 0.3589
C66 C 0.2359(19) 1.0708(14) 0.3130(7)
H44 H 0.1451 1.0511 0.3151
C67 C 0.2720(16) 0.9096(12) 0.2567(6)
C68 C 0.6573(18) 1.1556(12) 0.3046(6)
C69 C 0.751(2) 1.0855(15) 0.2996(7)
H45 H 0.7182 1.0188 0.2961
C70 C 0.929(3) 1.1985(18) 0.3051(8)
H46 H 1.0210 1.2136 0.3045
C71 C 0.845(3) 1.2761(19) 0.3120(8)
H47 H 0.8820 1.3415 0.3166
C72 C 0.708(2) 1.2579(15) 0.3121(7)
H48 H 0.6507 1.3097 0.3169
N2 N 0.8148(16) 0.3914(12) 0.1826(7)
N3 N 0.981(2) 0.3543(14) 0.0263(8)
N4 N 0.971(3) 1.158(2) 0.4738(12)
N5 N 0.609(2) 0.9248(12) -0.0783(6)
N6 N 0.8838(18) 1.1034(14) 0.2992(8)
O1 O 0.3303(10) 0.6270(8) 0.2449(5)
O2 O 0.1149(12) 0.5781(8) 0.2486(4)
O3 O 0.4398(12) 0.7122(8) 0.1369(4)
O4 O 0.6118(11) 0.6333(8) 0.1675(4)
O5 O 0.6591(12) 0.6396(8) 0.2789(4)
O6 O 0.8663(12) 0.6385(10) 0.3161(4)
O7 O 0.6227(12) 0.8469(9) 0.3160(4)
O8 O 0.4357(12) 0.7606(8) 0.3362(4)
O9 O 0.8370(13) 0.8147(9) 0.2146(5)
O10 O 0.6397(10) 0.8585(8) 0.1882(4)
O11 O 0.1484(12) 0.8864(9) 0.2625(4)
O12 O 0.3486(11) 0.8566(8) 0.2307(4)
O13 O -0.1157(10) 0.6121(8) 0.1894(4)
H49 H -0.0791 0.5974 0.1602
H50 H -0.1236 0.5635 0.2086
O14 O 0.1246(11) 0.7470(9) 0.1737(4)
H51 H 0.1750 0.7928 0.1636
H52 H 0.0755 0.7235 0.1478
O15 O -0.0866(11) 0.8553(9) 0.3259(4)
H53 H -0.0452 0.8658 0.3558
H54 H -0.1261 0.9047 0.3180
O16 O 0.1498(11) 0.7321(8) 0.3400(4)
H55 H 0.2258 0.7603 0.3396
H56 H 0.1206 0.7343 0.3716
Gd2_2 Gd 1.00691(7) 0.73150(6) 0.25774(3)
O6_2 O -0.1337(12) 0.6385(10) 0.3161(4)
O9_2 O -0.1630(13) 0.8147(9) 0.2146(5)
loop_
_geom_bond_atom_site_label_1
_geom_bond_atom_site_label_2
_geom_bond_site_symmetry_1
_geom_bond_site_symmetry_2
Gd1 O1 1_555 1_555
Gd2 O2 1_555 1_555
C1 C2 1_555 1_555
C2 H1 1_555 1_555
C3 C2 1_555 1_555
C4 C3 1_555 1_555
H2 C4 1_555 1_555
C5 C4 1_555 1_555
H3 C5 1_555 1_555
C6 C1 1_555 1_555
H4 C6 1_555 1_555
C7 C1 1_555 1_555
C8 C3 1_555 1_555
C9 C8 1_555 1_555
H5 C9 1_555 1_555
C10 H6 1_555 1_555
C11 C10 1_555 1_555
H7 C11 1_555 1_555
C12 C14 1_555 1_555
C13 C8 1_555 1_555
H8 C13 1_555 1_555
C14 H9 1_555 1_555
C15 C14 1_555 1_555
C16 C15 1_555 1_555
H10 C16 1_555 1_555
C17 C16 1_555 1_555
H11 C17 1_555 1_555
C18 C12 1_555 1_555
H12 C18 1_555 1_555
C19 C12 1_555 1_555
C20 C15 1_555 1_555
C21 C20 1_555 1_555
H13 C21 1_555 1_555
C22 H14 1_555 1_555
C23 C22 1_555 1_555
H15 C23 1_555 1_555
C24 C20 1_555 1_555
H16 C24 1_555 1_555
C25 C26 1_555 1_555
C26 H17 1_555 1_555
C27 C26 1_555 1_555
C28 C27 1_555 1_555
H18 C28 1_555 1_555
C29 C28 1_555 1_555
H19 C29 1_555 1_555
C30 C25 1_555 1_555
H20 C30 1_555 1_555
C31 C25 1_555 1_555
C32 C27 1_555 1_555
C33 C32 1_555 1_555
H21 C33 1_555 1_555
N1 C33 1_555 1_555
C34 N1 1_555 1_555
H22 C34 1_555 1_555
C35 C34 1_555 1_555
H23 C35 1_555 1_555
C36 C32 1_555 1_555
H24 C36 1_555 1_555
C37 C38 1_555 1_555
C38 H25 1_555 1_555
C39 C38 1_555 1_555
C40 C39 1_555 1_555
H26 C40 1_555 1_555
C41 C40 1_555 1_555
H27 C41 1_555 1_555
C42 C37 1_555 1_555
H28 C42 1_555 1_555
C43 C37 1_555 1_555
C44 C39 1_555 1_555
C45 C44 1_555 1_555
H29 C45 1_555 1_555
C46 H30 1_555 1_555
C47 C46 1_555 1_555
H31 C47 1_555 1_555
C48 C44 1_555 1_555
H32 C48 1_555 1_555
C49 C50 1_555 1_555
C50 H33 1_555 1_555
C51 C50 1_555 1_555
C52 C51 1_555 1_555
H34 C52 1_555 1_555
C53 C52 1_555 1_555
H35 C53 1_555 1_555
C54 C49 1_555 1_555
H36 C54 1_555 1_555
C55 C51 1_555 1_555
C56 C55 1_555 1_555
H37 C56 1_555 1_555
C57 H38 1_555 1_555
C58 C57 1_555 1_555
H39 C58 1_555 1_555
C59 C55 1_555 1_555
H40 C59 1_555 1_555
C60 C49 1_555 1_555
C61 C62 1_555 1_555
C62 H41 1_555 1_555
C63 C62 1_555 1_555
C64 C63 1_555 1_555
H42 C64 1_555 1_555
C65 C64 1_555 1_555
H43 C65 1_555 1_555
C66 C61 1_555 1_555
H44 C66 1_555 1_555
C67 C61 1_555 1_555
C68 C63 1_555 1_555
C69 C68 1_555 1_555
H45 C69 1_555 1_555
C70 H46 1_555 1_555
C71 C70 1_555 1_555
H47 C71 1_555 1_555
C72 C68 1_555 1_555
H48 C72 1_555 1_555
N2 C9 1_555 1_555
N3 C21 1_555 1_555
N4 C45 1_555 1_555
N5 C56 1_555 1_555
N6 C69 1_555 1_555
O1 C7 1_555 1_555
O2 C7 1_555 1_555
O3 Gd1 1_555 1_555
O4 Gd1 1_555 1_555
O5 Gd1 1_555 1_555
O6 C31 1_555 1_555
O7 Gd1 1_555 1_555
O8 Gd1 1_555 1_555
O9 C60 1_555 1_555
O10 Gd1 1_555 1_555
O11 Gd2 1_555 1_555
O12 Gd1 1_555 1_555
O13 Gd2 1_555 1_555
H49 O13 1_555 1_555
H50 O13 1_555 1_555
O14 Gd2 1_555 1_555
H51 O14 1_555 1_555
H52 O14 1_555 1_555
O15 Gd2 1_555 1_555
H53 O15 1_555 1_555
H54 O15 1_555 1_555
O16 Gd2 1_555 1_555
H55 O16 1_555 1_555
H56 O16 1_555 1_555
Gd2_2 O6 1_555 1_555
O6_2 Gd2 1_555 1_555
O9_2 Gd2 1_555 1_555
C5 C6 1_555 1_555
C10 N2 1_555 1_555
C11 C13 1_555 1_555
C17 C18 1_555 1_555
C19 O3 1_555 1_555
C19 O4 1_555 1_555
C22 N3 1_555 1_555
C23 C24 1_555 1_555
C29 C30 1_555 1_555
C31 O5 1_555 1_555
C35 C36 1_555 1_555
C41 C42 1_555 1_555
C43 O7 1_555 1_555
C43 O8 1_555 1_555
C46 N4 1_555 1_555
C47 C48 1_555 1_555
C53 C54 1_555 1_555
C57 N5 1_555 1_555
C58 C59 1_555 1_555
C60 O10 1_555 1_555
C65 C66 1_555 1_555
C67 O11 1_555 1_555
C67 O12 1_555 1_555
C70 N6 1_555 1_555
C71 C72 1_555 1_555
O9 Gd2_2 1_555 1_555

#END
