
#######################################################################
#
#                 Cambridge Crystallographic Data Centre
#                                CCDC 
#
#######################################################################
#
# If this CIF has been generated from an entry in the Cambridge 
# Structural Database, then it will include bibliographic, chemical, 
# crystal, experimental, refinement or atomic coordinate data resulting 
# from the CCDC's data processing and validation procedures.
#
#######################################################################

data_DOBGAD01
_symmetry_cell_setting           monoclinic
_symmetry_space_group_name_H-M   'P 21/c'
_symmetry_Int_Tables_number      14
_space_group_name_Hall           '-P 2ybc'
loop_
_symmetry_equiv_pos_site_id
_symmetry_equiv_pos_as_xyz
1 x,y,z
2 -x,1/2+y,1/2-z
3 -x,-y,-z
4 x,1/2-y,1/2+z
_cell_length_a                   8.943(5)
_cell_length_b                   10.494(5)
_cell_length_c                   21.968(5)
_cell_angle_alpha                90
_cell_angle_beta                 109.549(14)
_cell_angle_gamma                90
_cell_volume                     1942.81
loop_
_atom_site_label
_atom_site_type_symbol
_atom_site_fract_x
_atom_site_fract_y
_atom_site_fract_z
Cd1 Cd 0.345721(14) -0.331033(11) -0.047848(5)
O1 O 0.32143(18) -0.49532(12) -0.11607(6)
O2 O 0.41877(16) -0.63278(14) -0.03561(6)
O3 O -0.26186(18) 0.09996(14) 0.03952(6)
O4 O -0.1551(2) 0.21776(15) 0.12644(8)
N1 N 0.21784(18) -0.38185(15) 0.02496(7)
N2 N 0.47434(19) -0.74296(15) -0.40665(7)
C1 C 0.3773(2) -0.60271(16) -0.09417(8)
C2 C 0.3917(2) -0.70052(16) -0.14216(8)
C3 C 0.4166(3) -0.82765(17) -0.12415(10)
H1 H 0.4277 -0.8519 -0.0821
C4 C 0.4249(3) -0.91844(19) -0.16880(10)
H2 H 0.4357 -1.0041 -0.1572
C5 C 0.4171(3) -0.88264(19) -0.23027(10)
H3 H 0.4264 -0.9440 -0.2594
C6 C 0.3955(2) -0.75532(17) -0.24895(8)
C7 C 0.3789(2) -0.66514(16) -0.20484(8)
H4 H 0.3590 -0.5805 -0.2175
C8 C 0.3840(2) -0.71819(17) -0.31546(8)
C9 C 0.4838(2) -0.77093(17) -0.34585(8)
H5 H 0.5609 -0.8285 -0.3227
C10 C 0.3645(3) -0.6594(2) -0.43974(9)
H6 H 0.3575 -0.6392 -0.4818
C11 C 0.2608(3) -0.6019(2) -0.41358(10)
H7 H 0.1851 -0.5444 -0.4378
C12 C 0.2712(3) -0.6311(2) -0.35086(9)
H8 H 0.2030 -0.5925 -0.3325
C13 C -0.1733(2) 0.11288(18) 0.09660(9)
C14 C -0.0818(2) -0.00050(17) 0.13313(8)
C15 C -0.0427(2) -0.10219(16) 0.10058(8)
H9 H -0.0765 -0.1021 0.0557
C16 C 0.0467(2) -0.20433(17) 0.13475(9)
C17 C 0.0922(3) -0.2039(2) 0.20196(9)
H10 H 0.1511 -0.2716 0.2253
C18 C 0.0509(3) -0.1041(2) 0.23450(9)
H11 H 0.0802 -0.1058 0.2793
C19 C -0.0338(3) -0.0021(2) 0.20018(9)
H12 H -0.0589 0.0660 0.2221
C20 C 0.0958(2) -0.31131(17) 0.10146(9)
C21 C 0.0807(2) -0.43832(19) 0.11755(9)
H13 H 0.0345 -0.4580 0.1485
C22 C 0.1345(3) -0.53436(18) 0.08729(10)
H14 H 0.1244 -0.6192 0.0975
C23 C 0.2036(2) -0.50301(19) 0.04161(9)
H15 H 0.2413 -0.5679 0.0218
C24 C 0.1642(2) -0.28866(19) 0.05419(8)
H16 H 0.1733 -0.2048 0.0422
Cd1B Cd 0.654279(14) -0.668967(11) 0.047848(5)
Cd1B_2 Cd -0.345721(14) 0.331033(11) 0.047848(5)
Cd1A Cd 0.654279(14) -0.831033(11) -0.452152(5)
O2B O 0.58123(16) -0.36722(14) 0.03561(6)
O3B O 0.26186(18) -0.09996(14) -0.03952(6)
O4B O 0.1551(2) -0.21776(15) -0.12644(8)
N2A N 0.52566(19) -0.24296(15) -0.09335(7)
loop_
_geom_bond_atom_site_label_1
_geom_bond_atom_site_label_2
_geom_bond_site_symmetry_1
_geom_bond_site_symmetry_2
Cd1 O1 1_555 1_555
O1 C1 1_555 1_555
O2 C1 1_555 1_555
O3 C13 1_555 1_555
O4 C13 1_555 1_555
N1 Cd1 1_555 1_555
N2 C9 1_555 1_555
C1 C2 1_555 1_555
C2 C3 1_555 1_555
C3 H1 1_555 1_555
C4 C3 1_555 1_555
H2 C4 1_555 1_555
C5 C4 1_555 1_555
H3 C5 1_555 1_555
C6 C5 1_555 1_555
C7 C2 1_555 1_555
H4 C7 1_555 1_555
C8 C6 1_555 1_555
C9 C8 1_555 1_555
H5 C9 1_555 1_555
C10 N2 1_555 1_555
H6 C10 1_555 1_555
C11 C10 1_555 1_555
H7 C11 1_555 1_555
C12 C8 1_555 1_555
H8 C12 1_555 1_555
C13 C14 1_555 1_555
C14 C15 1_555 1_555
C15 H9 1_555 1_555
C16 C15 1_555 1_555
C17 C16 1_555 1_555
H10 C17 1_555 1_555
C18 C17 1_555 1_555
H11 C18 1_555 1_555
C19 C14 1_555 1_555
H12 C19 1_555 1_555
C20 C16 1_555 1_555
C21 C20 1_555 1_555
H13 C21 1_555 1_555
C22 C21 1_555 1_555
H14 C22 1_555 1_555
C23 N1 1_555 1_555
H15 C23 1_555 1_555
C24 N1 1_555 1_555
H16 C24 1_555 1_555
Cd1B O2 1_555 1_555
Cd1B_2 O3 1_555 1_555
Cd1A N2 1_555 1_555
O2B Cd1 1_555 1_555
O3B Cd1 1_555 1_555
O4B Cd1 1_555 1_555
N2A Cd1 1_555 1_555
O4 Cd1B_2 1_555 1_555
C6 C7 1_555 1_555
C11 C12 1_555 1_555
C18 C19 1_555 1_555
C20 C24 1_555 1_555
C22 C23 1_555 1_555

#END
