
#######################################################################
#
#                 Cambridge Crystallographic Data Centre
#                                CCDC 
#
#######################################################################
#
# If this CIF has been generated from an entry in the Cambridge 
# Structural Database, then it will include bibliographic, chemical, 
# crystal, experimental, refinement or atomic coordinate data resulting 
# from the CCDC's data processing and validation procedures.
#
#######################################################################

data_DOBJAH
_symmetry_cell_setting           orthorhombic
_symmetry_space_group_name_H-M   'P n a 21'
_symmetry_Int_Tables_number      33
_space_group_name_Hall           'P 2c -2n'
loop_
_symmetry_equiv_pos_site_id
_symmetry_equiv_pos_as_xyz
1 x,y,z
2 -x,-y,1/2+z
3 1/2-x,1/2+y,1/2+z
4 1/2+x,1/2-y,z
_cell_length_a                   14.2612(4)
_cell_length_b                   15.3518(4)
_cell_length_c                   12.8356(3)
_cell_angle_alpha                90
_cell_angle_beta                 90
_cell_angle_gamma                90
_cell_volume                     2810.16
loop_
_atom_site_label
_atom_site_type_symbol
_atom_site_fract_x
_atom_site_fract_y
_atom_site_fract_z
Cu1 Cu 0.66312(4) 0.83334(4) 0.54605(5)
Cu2 Cu 0.92835(4) 0.83675(4) 0.55692(5)
Cl1 Cl 0.65968(11) 0.96126(9) 0.62979(12)
Cl2 Cl 0.77356(9) 0.77882(9) 0.65640(11)
Cl3 Cl 0.99368(10) 0.92137(9) 0.67988(11)
Cl4 Cl 1.00189(9) 0.71471(8) 0.62235(11)
O1 O 0.6271(3) 0.9494(3) -0.0827(3)
O2 O 0.6882(3) 0.8108(3) -0.0559(3)
O3 O 0.9309(3) 0.8626(3) -0.0434(3)
O4 O 0.9212(3) 0.7128(3) -0.0674(3)
N1 N 0.6203(3) 0.8824(3) 0.4050(3)
N2 N 0.6669(3) 0.7260(3) 0.4589(3)
N3 N 0.8860(3) 0.9412(3) 0.4731(3)
N4 N 0.8939(3) 0.7785(3) 0.4191(3)
C1 C 0.5932(4) 0.9648(3) 0.3875(4)
H1 H 0.5829 1.0011 0.4444
C2 C 0.5800(4) 0.9976(3) 0.2898(4)
H2 H 0.5568 1.0538 0.2811
C3 C 0.6015(4) 0.9460(4) 0.2024(4)
C4 C 0.5952(4) 0.9812(4) 0.1000(4)
H3 H 0.5722 1.0370 0.0881
C5 C 0.6240(4) 0.9304(4) 0.0215(4)
C6 C 0.6648(5) 0.8746(4) -0.1334(5)
H4 H 0.7205 0.8905 -0.1725
H5 H 0.6192 0.8507 -0.1816
C7 C 0.6602(4) 0.8463(3) 0.0377(5)
C8 C 0.6667(4) 0.8097(4) 0.1329(5)
H6 H 0.6916 0.7541 0.1417
C9 C 0.6338(4) 0.8594(4) 0.2197(4)
C10 C 0.6348(3) 0.8276(3) 0.3244(4)
C11 C 0.6454(3) 0.7355(3) 0.3560(4)
C12 C 0.6274(4) 0.6632(4) 0.2950(4)
H7 H 0.6107 0.6702 0.2255
C13 C 0.6341(4) 0.5808(4) 0.3366(5)
H8 H 0.6230 0.5320 0.2954
C14 C 0.6575(4) 0.5717(4) 0.4404(5)
H9 H 0.6626 0.5169 0.4707
C15 C 0.6729(4) 0.6458(3) 0.4974(4)
H10 H 0.6885 0.6396 0.5674
C16 C 0.8675(4) 1.0187(4) 0.5104(5)
H11 H 0.8811 1.0294 0.5801
C17 C 0.8290(4) 1.0858(4) 0.4523(5)
H12 H 0.8178 1.1400 0.4821
C18 C 0.8077(4) 1.0702(4) 0.3498(5)
H13 H 0.7808 1.1133 0.3086
C19 C 0.8269(4) 0.9892(4) 0.3092(4)
H14 H 0.8122 0.9771 0.2401
C20 C 0.8679(3) 0.9257(3) 0.3704(4)
C21 C 0.8871(3) 0.8345(3) 0.3379(4)
C22 C 0.8945(3) 0.8041(3) 0.2328(4)
C23 C 0.9098(4) 0.8609(4) 0.1449(4)
H15 H 0.9150 0.9209 0.1528
C24 C 0.9162(3) 0.8225(3) 0.0507(5)
C25 C 0.9367(5) 0.7941(4) -0.1185(5)
H16 H 0.8898 0.8027 -0.1724
H17 H 0.9980 0.7943 -0.1511
C26 C 0.9107(4) 0.7317(3) 0.0360(4)
C27 C 0.8977(4) 0.6762(3) 0.1154(4)
H18 H 0.8931 0.6165 0.1045
C28 C 0.8911(3) 0.7128(3) 0.2169(4)
C29 C 0.8870(4) 0.6579(3) 0.3055(4)
H19 H 0.8793 0.5982 0.2972
C30 C 0.8943(4) 0.6923(3) 0.4027(4)
H20 H 0.8996 0.6549 0.4594
Cu1C Cu 1.16312(4) 0.66666(4) 0.54605(5)
Cl4C Cl 0.50189(9) 0.78529(8) 0.62235(11)
loop_
_geom_bond_atom_site_label_1
_geom_bond_atom_site_label_2
_geom_bond_site_symmetry_1
_geom_bond_site_symmetry_2
Cu1 Cl1 1_555 1_555
Cu2 Cl2 1_555 1_555
Cl2 Cu1 1_555 1_555
Cl3 Cu2 1_555 1_555
Cl4 Cu2 1_555 1_555
O1 C5 1_555 1_555
O2 C6 1_555 1_555
O3 C24 1_555 1_555
O4 C25 1_555 1_555
N1 Cu1 1_555 1_555
N2 Cu1 1_555 1_555
N3 Cu2 1_555 1_555
N4 Cu2 1_555 1_555
C1 N1 1_555 1_555
H1 C1 1_555 1_555
C2 C1 1_555 1_555
H2 C2 1_555 1_555
C3 C2 1_555 1_555
C4 C3 1_555 1_555
H3 C4 1_555 1_555
C5 C4 1_555 1_555
C6 O1 1_555 1_555
H4 C6 1_555 1_555
H5 C6 1_555 1_555
C7 O2 1_555 1_555
C8 C7 1_555 1_555
H6 C8 1_555 1_555
C9 C3 1_555 1_555
C10 N1 1_555 1_555
C11 N2 1_555 1_555
C12 C11 1_555 1_555
H7 C12 1_555 1_555
C13 C12 1_555 1_555
H8 C13 1_555 1_555
C14 C13 1_555 1_555
H9 C14 1_555 1_555
C15 N2 1_555 1_555
H10 C15 1_555 1_555
C16 N3 1_555 1_555
H11 C16 1_555 1_555
C17 C16 1_555 1_555
H12 C17 1_555 1_555
C18 C17 1_555 1_555
H13 C18 1_555 1_555
C19 C18 1_555 1_555
H14 C19 1_555 1_555
C20 N3 1_555 1_555
C21 N4 1_555 1_555
C22 C21 1_555 1_555
C23 C22 1_555 1_555
H15 C23 1_555 1_555
C24 C23 1_555 1_555
C25 O3 1_555 1_555
H16 C25 1_555 1_555
H17 C25 1_555 1_555
C26 O4 1_555 1_555
C27 C26 1_555 1_555
H18 C27 1_555 1_555
C28 C22 1_555 1_555
C29 C28 1_555 1_555
H19 C29 1_555 1_555
C30 N4 1_555 1_555
H20 C30 1_555 1_555
Cu1C Cl4 1_555 1_555
Cl4C Cu1 1_555 1_555
C5 C7 1_555 1_555
C8 C9 1_555 1_555
C9 C10 1_555 1_555
C10 C11 1_555 1_555
C14 C15 1_555 1_555
C19 C20 1_555 1_555
C20 C21 1_555 1_555
C24 C26 1_555 1_555
C27 C28 1_555 1_555
C29 C30 1_555 1_555

#END
