
#######################################################################
#
#                 Cambridge Crystallographic Data Centre
#                                CCDC 
#
#######################################################################
#
# If this CIF has been generated from an entry in the Cambridge 
# Structural Database, then it will include bibliographic, chemical, 
# crystal, experimental, refinement or atomic coordinate data resulting 
# from the CCDC's data processing and validation procedures.
#
#######################################################################

data_DOBJUZ02
_symmetry_cell_setting           monoclinic
_symmetry_space_group_name_H-M   'C 2/c'
_symmetry_Int_Tables_number      15
_space_group_name_Hall           '-C 2yc'
loop_
_symmetry_equiv_pos_site_id
_symmetry_equiv_pos_as_xyz
1 x,y,z
2 1/2+x,1/2+y,z
3 1/2-x,1/2+y,1/2-z
4 -x,y,1/2-z
5 -x,-y,-z
6 1/2-x,1/2-y,-z
7 1/2+x,1/2-y,1/2+z
8 x,-y,1/2+z
_cell_length_a                   9.032(1)
_cell_length_b                   13.381(1)
_cell_length_c                   6.734(2)
_cell_angle_alpha                90
_cell_angle_beta                 99.19(2)
_cell_angle_gamma                90
_cell_volume                     803.406
loop_
_atom_site_label
_atom_site_type_symbol
_atom_site_fract_x
_atom_site_fract_y
_atom_site_fract_z
Fe1 Fe 0.75000 0.25000 0.00000
O1 O 0.94979(4) 0.16732(3) 0.01120(7)
O2 O 1.25180(5) 0.04002(3) 0.00868(7)
O3 O 0.62708(5) 0.12399(3) 0.10222(7)
O4 O 0.81971(5) 0.28939(4) 0.28939(4)
C1 C 0.97512(5) 0.07529(3) 0.00463(8)
C2 C 1.11260(5) 0.01755(3) 0.00431(8)
O1D O 1.05021(4) -0.16732(3) -0.01120(7)
C1D C 1.02488(5) -0.07529(3) -0.00463(8)
O2D O 0.74820(5) -0.04002(3) -0.00868(7)
C2D C 0.88740(5) -0.01755(3) -0.00431(8)
O3E O 0.87292(5) 0.37601(3) -0.10222(7)
O4E O 0.68029(5) 0.21061(4) -0.28939(4)
Fe1A Fe 1.25000 -0.25000 0.00000
O1E O 0.55021(4) 0.33268(3) -0.01120(7)
loop_
_geom_bond_atom_site_label_1
_geom_bond_atom_site_label_2
_geom_bond_site_symmetry_1
_geom_bond_site_symmetry_2
Fe1 O1 1_555 1_555
O1 C1 1_555 1_555
O2 C2 1_555 1_555
O3 Fe1 1_555 1_555
O4 Fe1 1_555 1_555
C1 C2 1_555 1_555
C2 C1D 1_555 1_555
O1D C1D 1_555 1_555
C1D C2D 1_555 1_555
O2D C2D 1_555 1_555
C2D C1 1_555 1_555
O3E Fe1 1_555 1_555
O4E Fe1 1_555 1_555
Fe1A O1D 1_555 1_555
O1E Fe1 1_555 1_555

#END
