
#######################################################################
#
#                 Cambridge Crystallographic Data Centre
#                                CCDC 
#
#######################################################################
#
# If this CIF has been generated from an entry in the Cambridge 
# Structural Database, then it will include bibliographic, chemical, 
# crystal, experimental, refinement or atomic coordinate data resulting 
# from the CCDC's data processing and validation procedures.
#
#######################################################################

data_DOBJIN01
_symmetry_cell_setting           monoclinic
_symmetry_space_group_name_H-M   'C 2/c'
_symmetry_Int_Tables_number      15
_space_group_name_Hall           '-C 2yn'
loop_
_symmetry_equiv_pos_site_id
_symmetry_equiv_pos_as_xyz
1 x,y,z
2 1/2+x,1/2+y,z
3 -x,y,1/2-z
4 1/2-x,1/2+y,1/2-z
5 -x,-y,-z
6 1/2-x,1/2-y,-z
7 x,-y,1/2+z
8 1/2+x,1/2-y,1/2+z
_cell_length_a                   9.012(2)
_cell_length_b                   13.336(3)
_cell_length_c                   6.746(2)
_cell_angle_alpha                90
_cell_angle_beta                 99.33(2)
_cell_angle_gamma                90
_cell_volume                     800.036
loop_
_atom_site_label
_atom_site_type_symbol
_atom_site_fract_x
_atom_site_fract_y
_atom_site_fract_z
Zn1 Zn 0.7500 0.2500 0.0000
O1 O 0.6808(1) 0.2118(1) -0.2990(1)
O2 O 0.6238(1) 0.1302(1) 0.0978(1)
O3 O 0.5540 0.3330 -0.0098(1)
O4 O 0.2530 0.4579 -0.0048(1)
C1 C 0.5266 0.4247 -0.0043
C2 C 0.3876 0.4814 -0.0025
H1 H 0.7076(3) 0.1535(1) -0.3703(2)
H2 H 0.5977(3) 0.2447(2) -0.3788(4)
H3 H 0.6514(2) 0.0643(2) 0.0491(3)
H4 H 0.6393(5) 0.1235(3) 0.2371(6)
O1E O 0.8192(1) 0.2882(1) 0.2990(1)
O2E O 0.8762(1) 0.3698(1) -0.0978(1)
O3E O 0.9460 0.1670 0.0098(1)
C2D C 0.6124 0.5186 0.0025
C1D C 0.4734 0.5753 0.0043
H1E H 0.7924(3) 0.3465(1) 0.3703(2)
H2E H 0.9023(3) 0.2553(2) 0.3788(4)
H3E H 0.8486(2) 0.4357(2) -0.0491(3)
H4E H 0.8607(5) 0.3765(3) -0.2371(6)
C1E C 0.9734 0.0753 0.0043
O4D O 0.7470 0.5421 0.0048(1)
O3D O 0.4460 0.6670 0.0098(1)
C2A C 0.8876 -0.0186 -0.0025
C2E C 1.1124 0.0186 0.0025
Zn1A Zn 0.2500 0.7500 0.0000
O4A O 0.7530 -0.0421 -0.0048(1)
C1A C 1.0266 -0.0753 -0.0043
O4E O 1.2470 0.0421 0.0048(1)
O1D O 0.3192(1) 0.7882(1) 0.2990(1)
O1A O 0.1808(1) 0.7118(1) -0.2990(1)
O2D O 0.3762(1) 0.8698(1) -0.0978(1)
O2A O 0.1238(1) 0.6302(1) 0.0978(1)
O3A O 0.0540 0.8330 -0.0098(1)
O3A_2 O 1.0540 -0.1670 -0.0098(1)
H1D H 0.2924(3) 0.8465(1) 0.3703(2)
H2D H 0.4023(3) 0.7553(2) 0.3788(4)
H1A H 0.2076(3) 0.6535(1) -0.3703(2)
H2A H 0.0977(3) 0.7447(2) -0.3788(4)
H3D H 0.3486(2) 0.9357(2) -0.0491(3)
H4D H 0.3607(5) 0.8765(3) -0.2371(6)
H3A H 0.1514(2) 0.5643(2) 0.0491(3)
H4A H 0.1393(5) 0.6235(3) 0.2371(6)
Zn1A_2 Zn 1.2500 -0.2500 0.0000
loop_
_geom_bond_atom_site_label_1
_geom_bond_atom_site_label_2
_geom_bond_site_symmetry_1
_geom_bond_site_symmetry_2
Zn1 O1 1_555 1_555
O1 H1 1_555 1_555
O2 Zn1 1_555 1_555
O3 Zn1 1_555 1_555
O4 C2 1_555 1_555
C1 O3 1_555 1_555
C2 C1 1_555 1_555
H2 O1 1_555 1_555
H3 O2 1_555 1_555
H4 O2 1_555 1_555
O1E Zn1 1_555 1_555
O2E Zn1 1_555 1_555
O3E Zn1 1_555 1_555
C2D C1 1_555 1_555
C1D C2 1_555 1_555
H1E O1E 1_555 1_555
H2E O1E 1_555 1_555
H3E O2E 1_555 1_555
H4E O2E 1_555 1_555
C1E O3E 1_555 1_555
O4D C2D 1_555 1_555
O3D C1D 1_555 1_555
C2A C1E 1_555 1_555
C2E C1E 1_555 1_555
Zn1A O3D 1_555 1_555
O4A C2A 1_555 1_555
C1A C2A 1_555 1_555
O4E C2E 1_555 1_555
O1D Zn1A 1_555 1_555
O1A Zn1A 1_555 1_555
O2D Zn1A 1_555 1_555
O2A Zn1A 1_555 1_555
O3A Zn1A 1_555 1_555
O3A_2 C1A 1_555 1_555
H1D O1D 1_555 1_555
H2D O1D 1_555 1_555
H1A O1A 1_555 1_555
H2A O1A 1_555 1_555
H3D O2D 1_555 1_555
H4D O2D 1_555 1_555
H3A O2A 1_555 1_555
H4A O2A 1_555 1_555
Zn1A_2 O3A_2 1_555 1_555
C2D C1D 1_555 1_555
C2E C1A 1_555 1_555

#END
