
#######################################################################
#
#                 Cambridge Crystallographic Data Centre
#                                CCDC 
#
#######################################################################
#
# If this CIF has been generated from an entry in the Cambridge 
# Structural Database, then it will include bibliographic, chemical, 
# crystal, experimental, refinement or atomic coordinate data resulting 
# from the CCDC's data processing and validation procedures.
#
#######################################################################

data_DOBJIN
_symmetry_cell_setting           monoclinic
_symmetry_space_group_name_H-M   'C c'
_symmetry_Int_Tables_number      9
_space_group_name_Hall           'C -2yc'
loop_
_symmetry_equiv_pos_site_id
_symmetry_equiv_pos_as_xyz
1 x,y,z
2 1/2+x,1/2+y,z
3 x,-y,1/2+z
4 1/2+x,1/2-y,1/2+z
_cell_length_a                   9.012(2)
_cell_length_b                   13.336(3)
_cell_length_c                   6.746(2)
_cell_angle_alpha                90
_cell_angle_beta                 99.33(2)
_cell_angle_gamma                90
_cell_volume                     800.036
loop_
_atom_site_label
_atom_site_type_symbol
_atom_site_fract_x
_atom_site_fract_y
_atom_site_fract_z
Zn1 Zn 0.0000 0.2496(1) 0.0000
O1 O -0.1975(7) 0.3314(4) -0.0203(9)
O2 O -0.4945(6) 0.4578(5) 0.0099(17)
O3 O 0.1942(7) 0.1663(4) -0.0010(9)
O4 O -0.0014(7) 0.5414(5) 0.0189(15)
C1 C -0.2222(5) 0.4242(3) 0.0004(11)
C2 C -0.3608(6) 0.4803(4) -0.0004(12)
C3 C 0.2258(7) 0.0733(4) 0.0086(12)
C4 C -0.1368(6) 0.5171(4) 0.0037(13)
O5 O 0.0701(7) 0.2910(7) 0.3017(10)
O6 O -0.1256(8) 0.1302(4) 0.1048(12)
O7 O -0.0673(11) 0.2159(8) -0.2980(12)
O8 O 0.1262(11) 0.3699(6) -0.0911(13)
C3A C -0.2742(7) 0.5733(4) 0.0086(12)
C2A C 0.1392(6) -0.0197(4) -0.0004(12)
C4A C 0.3632(6) 0.0171(4) 0.0037(13)
O3A O -0.3058(7) 0.6663(4) -0.0010(9)
O2A O 0.0055(6) -0.0422(5) 0.0099(17)
C1A C 0.2778(5) -0.0758(3) 0.0004(11)
O4A O 0.4986(7) 0.0414(5) 0.0189(15)
Zn1A Zn -0.5000 0.7496(1) 0.0000
O1A O 0.3025(7) -0.1686(4) -0.0203(9)
O1A_2 O -0.6975(7) 0.8314(4) -0.0203(9)
O5A O -0.4299(7) 0.7910(7) 0.3017(10)
O6A O -0.6256(8) 0.6302(4) 0.1048(12)
O7A O -0.5673(11) 0.7159(8) -0.2980(12)
O8A O -0.3738(11) 0.8699(6) -0.0911(13)
Zn1A_2 Zn 0.5000 -0.2504(1) 0.0000
loop_
_geom_bond_atom_site_label_1
_geom_bond_atom_site_label_2
_geom_bond_site_symmetry_1
_geom_bond_site_symmetry_2
Zn1 O1 1_555 1_555
O1 C1 1_555 1_555
O2 C2 1_555 1_555
O3 Zn1 1_555 1_555
O4 C4 1_555 1_555
C1 C2 1_555 1_555
C2 C3A 1_555 1_555
C3 O3 1_555 1_555
C4 C1 1_555 1_555
O5 Zn1 1_555 1_555
O6 Zn1 1_555 1_555
O7 Zn1 1_555 1_555
O8 Zn1 1_555 1_555
C3A C4 1_555 1_555
C2A C3 1_555 1_555
C4A C3 1_555 1_555
O3A C3A 1_555 1_555
O2A C2A 1_555 1_555
C1A C2A 1_555 1_555
O4A C4A 1_555 1_555
Zn1A O3A 1_555 1_555
O1A C1A 1_555 1_555
O1A_2 Zn1A 1_555 1_555
O5A Zn1A 1_555 1_555
O6A Zn1A 1_555 1_555
O7A Zn1A 1_555 1_555
O8A Zn1A 1_555 1_555
Zn1A_2 O1A 1_555 1_555
C4A C1A 1_555 1_555

#END
