
#######################################################################
#
#                 Cambridge Crystallographic Data Centre
#                                CCDC 
#
#######################################################################
#
# If this CIF has been generated from an entry in the Cambridge 
# Structural Database, then it will include bibliographic, chemical, 
# crystal, experimental, refinement or atomic coordinate data resulting 
# from the CCDC's data processing and validation procedures.
#
#######################################################################

data_DOBKAG02
_symmetry_cell_setting           monoclinic
_symmetry_space_group_name_H-M   'C 2/c'
_symmetry_Int_Tables_number      15
_space_group_name_Hall           '-C 2yn'
loop_
_symmetry_equiv_pos_site_id
_symmetry_equiv_pos_as_xyz
1 x,y,z
2 -x,y,1/2-z
3 1/2+x,1/2+y,z
4 1/2-x,1/2+y,1/2-z
5 -x,-y,-z
6 x,-y,1/2+z
7 1/2-x,1/2-y,-z
8 1/2+x,1/2-y,1/2+z
_cell_length_a                   8.9773(5)
_cell_length_b                   13.3876(8)
_cell_length_c                   6.6945(4)
_cell_angle_alpha                90
_cell_angle_beta                 99.6850(10)
_cell_angle_gamma                90
_cell_volume                     793.108
loop_
_atom_site_label
_atom_site_type_symbol
_atom_site_fract_x
_atom_site_fract_y
_atom_site_fract_z
Co1 Co 0.2500 0.2500 0.0000
O1 O 0.12548(10) 0.36984(6) 0.09713(13)
H1 H 0.1453 0.3771 0.2223
H2 H 0.1474 0.4275 0.0508
O2 O 0.44669(9) 0.33286(6) 0.00851(13)
O3 O 0.74876(8) 0.45814(8) 0.00464(12)
O4 O 0.31868(10) 0.21242(7) 0.30022(13)
H3 H 0.2978 0.1599 0.3629
H4 H 0.3951 0.2394 0.3667
C1 C 0.47351(11) 0.42479(8) 0.00373(15)
C2 C 0.61292(12) 0.48168(8) 0.00263(16)
Co1B Co 0.7500 0.7500 0.0000
O1F O 0.37452(10) 0.13016(6) -0.09713(13)
H1F H 0.3547 0.1229 -0.2223
H2F H 0.3526 0.0725 -0.0508
O2D O 0.55331(9) 0.66714(6) -0.00851(13)
O2F O 0.05331(9) 0.16714(6) -0.00851(13)
O3D O 0.25124(8) 0.54186(8) -0.00464(12)
O4F O 0.18132(10) 0.28758(7) -0.30022(13)
H3F H 0.2022 0.3401 -0.3629
H4F H 0.1049 0.2606 -0.3667
C1D C 0.52649(11) 0.57521(8) -0.00373(15)
C2D C 0.38708(12) 0.51832(8) -0.00263(16)
loop_
_geom_bond_atom_site_label_1
_geom_bond_atom_site_label_2
_geom_bond_site_symmetry_1
_geom_bond_site_symmetry_2
Co1 O1 1_555 1_555
O1 H1 1_555 1_555
H2 O1 1_555 1_555
O2 Co1 1_555 1_555
O3 C2 1_555 1_555
O4 Co1 1_555 1_555
H3 O4 1_555 1_555
H4 O4 1_555 1_555
C1 O2 1_555 1_555
C2 C1 1_555 1_555
Co1B O2D 1_555 1_555
O1F Co1 1_555 1_555
H1F O1F 1_555 1_555
H2F O1F 1_555 1_555
O2D C1D 1_555 1_555
O2F Co1 1_555 1_555
O3D C2D 1_555 1_555
O4F Co1 1_555 1_555
H3F O4F 1_555 1_555
H4F O4F 1_555 1_555
C1D C2 1_555 1_555
C2D C1 1_555 1_555
C1D C2D 1_555 1_555

#END
