
#######################################################################
#
#                 Cambridge Crystallographic Data Centre
#                                CCDC 
#
#######################################################################
#
# If this CIF has been generated from an entry in the Cambridge 
# Structural Database, then it will include bibliographic, chemical, 
# crystal, experimental, refinement or atomic coordinate data resulting 
# from the CCDC's data processing and validation procedures.
#
#######################################################################

data_DOBKEK01
_symmetry_cell_setting           monoclinic
_symmetry_space_group_name_H-M   'C 2/c'
_symmetry_Int_Tables_number      15
_space_group_name_Hall           '-C 2yn'
loop_
_symmetry_equiv_pos_site_id
_symmetry_equiv_pos_as_xyz
1 x,y,z
2 -x,y,1/2-z
3 1/2+x,1/2+y,z
4 1/2-x,1/2+y,1/2-z
5 -x,-y,-z
6 x,-y,1/2+z
7 1/2-x,1/2-y,-z
8 1/2+x,1/2-y,1/2+z
_cell_length_a                   8.9315(16)
_cell_length_b                   13.246(3)
_cell_length_c                   6.6893(18)
_cell_angle_alpha                90
_cell_angle_beta                 99.43(2)
_cell_angle_gamma                90
_cell_volume                     780.694
loop_
_atom_site_label
_atom_site_type_symbol
_atom_site_fract_x
_atom_site_fract_y
_atom_site_fract_z
Ni1 Ni 0.75000 0.25000 0.00000
O1 O 0.94517(23) 0.16831(16) 0.0098(4)
O2 O 1.2489(3) 0.04267(15) 0.0065(4)
O3 O 0.6252(3) 0.13223(17) 0.0950(4)
O4 O 0.8175(3) 0.28725(18) 0.2966(4)
C1 C 0.9731(4) 0.07541(24) 0.0038(5)
C2 C 1.1124(4) 0.01850(24) 0.0034(5)
H1 H 0.657 0.068 0.054
H2 H 0.644 0.128 0.240
H3 H 0.912 0.263 0.370
H4 H 0.785 0.347 0.358
C1D C 1.0269(4) -0.07541(24) -0.0038(5)
O1D O 1.05483(23) -0.16831(16) -0.0098(4)
Ni1B Ni 1.25000 -0.25000 0.00000
C2D C 0.8876(4) -0.01850(24) -0.0034(5)
O2D O 0.7511(3) -0.04267(15) -0.0065(4)
O1F O 0.55483(23) 0.33169(16) -0.0098(4)
O3F O 0.8748(3) 0.36777(17) -0.0950(4)
H1F H 0.843 0.432 -0.054
H2F H 0.856 0.372 -0.240
O4F O 0.6825(3) 0.21275(18) -0.2966(4)
H3F H 0.588 0.237 -0.370
H4F H 0.715 0.153 -0.358
loop_
_geom_bond_atom_site_label_1
_geom_bond_atom_site_label_2
_geom_bond_site_symmetry_1
_geom_bond_site_symmetry_2
Ni1 O1 1_555 1_555
O1 C1 1_555 1_555
O2 C2 1_555 1_555
O3 Ni1 1_555 1_555
O4 Ni1 1_555 1_555
C1 C2 1_555 1_555
C2 C1D 1_555 1_555
H1 O3 1_555 1_555
H2 O3 1_555 1_555
H3 O4 1_555 1_555
H4 O4 1_555 1_555
C1D O1D 1_555 1_555
O1D Ni1B 1_555 1_555
C2D C1 1_555 1_555
O2D C2D 1_555 1_555
O1F Ni1 1_555 1_555
O3F Ni1 1_555 1_555
H1F O3F 1_555 1_555
H2F O3F 1_555 1_555
O4F Ni1 1_555 1_555
H3F O4F 1_555 1_555
H4F O4F 1_555 1_555
C1D C2D 1_555 1_555

#END
