
#######################################################################
#
#                 Cambridge Crystallographic Data Centre
#                                CCDC 
#
#######################################################################
#
# If this CIF has been generated from an entry in the Cambridge 
# Structural Database, then it will include bibliographic, chemical, 
# crystal, experimental, refinement or atomic coordinate data resulting 
# from the CCDC's data processing and validation procedures.
#
#######################################################################

data_DOBKAG01
_symmetry_cell_setting           monoclinic
_symmetry_space_group_name_H-M   'C 2/c'
_symmetry_Int_Tables_number      15
_space_group_name_Hall           '-C 2yn'
loop_
_symmetry_equiv_pos_site_id
_symmetry_equiv_pos_as_xyz
1 x,y,z
2 -x,y,1/2-z
3 1/2+x,1/2+y,z
4 1/2-x,1/2+y,1/2-z
5 -x,-y,-z
6 x,-y,1/2+z
7 1/2-x,1/2-y,-z
8 1/2+x,1/2-y,1/2+z
_cell_length_a                   8.9667(19)
_cell_length_b                   13.356(3)
_cell_length_c                   6.7119(16)
_cell_angle_alpha                90
_cell_angle_beta                 99.412(2)
_cell_angle_gamma                90
_cell_volume                     792.991
loop_
_atom_site_label
_atom_site_type_symbol
_atom_site_fract_x
_atom_site_fract_y
_atom_site_fract_z
Co1 Co 0.75000 0.25000 0.00000
O1 O 0.55349(10) 0.16663(7) -0.00852(18)
O2 O 0.25228(11) 0.04160(7) -0.00287(20)
O3 O 0.62551(12) 0.36978(8) 0.09844(19)
O4 O 0.81876(13) 0.21181(9) 0.29927(19)
C1 C 0.52634(13) 0.07496(8) -0.00352(20)
C2 C 0.38806(13) 0.01830(9) -0.00168(21)
H1 H 0.656 0.432 0.049
H2 H 0.650 0.361 0.241
H3 H 0.909 0.244 0.365
H4 H 0.797 0.148 0.354
C1D C 0.47366(13) -0.07496(8) 0.00352(20)
O1D O 0.44651(10) -0.16663(7) 0.00852(18)
Co1B Co 0.25000 -0.25000 0.00000
C2D C 0.61194(13) -0.01830(9) 0.00168(21)
O2D O 0.74772(11) -0.04160(7) 0.00287(20)
O1F O 0.94651(10) 0.33337(7) 0.00852(18)
O3F O 0.87449(12) 0.13022(8) -0.09844(19)
H1F H 0.844 0.068 -0.049
H2F H 0.850 0.139 -0.241
O4F O 0.68124(13) 0.28819(9) -0.29927(19)
H3F H 0.591 0.256 -0.365
H4F H 0.703 0.352 -0.354
loop_
_geom_bond_atom_site_label_1
_geom_bond_atom_site_label_2
_geom_bond_site_symmetry_1
_geom_bond_site_symmetry_2
Co1 O1 1_555 1_555
O1 C1 1_555 1_555
O2 C2 1_555 1_555
O3 Co1 1_555 1_555
O4 Co1 1_555 1_555
C1 C2 1_555 1_555
C2 C1D 1_555 1_555
H1 O3 1_555 1_555
H2 O3 1_555 1_555
H3 O4 1_555 1_555
H4 O4 1_555 1_555
C1D O1D 1_555 1_555
O1D Co1B 1_555 1_555
C2D C1 1_555 1_555
O2D C2D 1_555 1_555
O1F Co1 1_555 1_555
O3F Co1 1_555 1_555
H1F O3F 1_555 1_555
H2F O3F 1_555 1_555
O4F Co1 1_555 1_555
H3F O4F 1_555 1_555
H4F O4F 1_555 1_555
C1D C2D 1_555 1_555

#END
