
#######################################################################
#
#                 Cambridge Crystallographic Data Centre
#                                CCDC 
#
#######################################################################
#
# If this CIF has been generated from an entry in the Cambridge 
# Structural Database, then it will include bibliographic, chemical, 
# crystal, experimental, refinement or atomic coordinate data resulting 
# from the CCDC's data processing and validation procedures.
#
#######################################################################

data_DOBKEK02
_symmetry_cell_setting           monoclinic
_symmetry_space_group_name_H-M   'C 2/c'
_symmetry_Int_Tables_number      15
_space_group_name_Hall           '-C 2yc'
loop_
_symmetry_equiv_pos_site_id
_symmetry_equiv_pos_as_xyz
1 x,y,z
2 1/2+x,1/2+y,z
3 1/2-x,1/2+y,1/2-z
4 -x,y,1/2-z
5 -x,-y,-z
6 1/2-x,1/2-y,-z
7 1/2+x,1/2-y,1/2+z
8 x,-y,1/2+z
_cell_length_a                   8.913(3)
_cell_length_b                   13.232(4)
_cell_length_c                   6.654(3)
_cell_angle_alpha                90
_cell_angle_beta                 99.71(3)
_cell_angle_gamma                90
_cell_volume                     773.509
loop_
_atom_site_label
_atom_site_type_symbol
_atom_site_fract_x
_atom_site_fract_y
_atom_site_fract_z
Ni1 Ni 0.75000 0.25000 0.00000
O1 O 0.94523(5) 0.16855(4) 0.01018(9)
O2 O 1.25034(6) 0.04283(4) 0.00915(9)
O3 O 0.62480(6) 0.13198(4) 0.09314(9)
O4 O 0.81642(7) 0.28608(5) 0.29854(9)
C1 C 0.97274(7) 0.07581(4) 0.0043(1)
C2 C 1.11361(7) 0.01890(5) 0.0048(1)
O1D O 1.05477(5) -0.16855(4) -0.01018(9)
C1D C 1.02726(7) -0.07581(4) -0.0043(1)
O2D O 0.74966(6) -0.04283(4) -0.00915(9)
C2D C 0.88639(7) -0.01890(5) -0.0048(1)
O3E O 0.87520(6) 0.36802(4) -0.09314(9)
O4E O 0.68358(7) 0.21392(5) -0.29854(9)
Ni1A Ni 1.25000 -0.25000 0.00000
O1E O 0.55477(5) 0.33145(4) -0.01018(9)
loop_
_geom_bond_atom_site_label_1
_geom_bond_atom_site_label_2
_geom_bond_site_symmetry_1
_geom_bond_site_symmetry_2
Ni1 O1 1_555 1_555
O1 C1 1_555 1_555
O2 C2 1_555 1_555
O3 Ni1 1_555 1_555
O4 Ni1 1_555 1_555
C1 C2 1_555 1_555
C2 C1D 1_555 1_555
O1D C1D 1_555 1_555
C1D C2D 1_555 1_555
O2D C2D 1_555 1_555
C2D C1 1_555 1_555
O3E Ni1 1_555 1_555
O4E Ni1 1_555 1_555
Ni1A O1D 1_555 1_555
O1E Ni1 1_555 1_555

#END
