
#######################################################################
#
#                 Cambridge Crystallographic Data Centre
#                                CCDC 
#
#######################################################################
#
# If this CIF has been generated from an entry in the Cambridge 
# Structural Database, then it will include bibliographic, chemical, 
# crystal, experimental, refinement or atomic coordinate data resulting 
# from the CCDC's data processing and validation procedures.
#
#######################################################################

data_DOBYOI
_symmetry_cell_setting           monoclinic
_symmetry_space_group_name_H-M   'P 21/n'
_symmetry_Int_Tables_number      14
_space_group_name_Hall           '-P 2yn'
loop_
_symmetry_equiv_pos_site_id
_symmetry_equiv_pos_as_xyz
1 x,y,z
2 1/2-x,1/2+y,1/2-z
3 -x,-y,-z
4 1/2+x,1/2-y,1/2+z
_cell_length_a                   8.415(2)
_cell_length_b                   6.822(1)
_cell_length_c                   17.039(3)
_cell_angle_alpha                90
_cell_angle_beta                 103.65(2)
_cell_angle_gamma                90
_cell_volume                     950.532
loop_
_atom_site_label
_atom_site_type_symbol
_atom_site_fract_x
_atom_site_fract_y
_atom_site_fract_z
Cu1 Cu 0.4146(2) -0.3682(2) -0.2790(1)
O1 O 0.6138(9) -0.5802(11) -0.2700(5)
C1 C 0.2658(13) -0.4841(17) -0.4576(7)
C2 C 0.1873(13) -0.6380(16) -0.4295(6)
C3 C 0.1009(14) -0.7710(19) -0.4879(6)
C4 C 0.0980(15) -0.7511(19) -0.5684(7)
C5 C 0.1785(14) -0.6009(17) -0.5936(7)
C6 C 0.2623(14) -0.4659(20) -0.5396(7)
O2 O 0.3525(10) -0.3507(12) -0.4027(4)
C7 C 0.4142(16) -0.1748(15) -0.4321(6)
C8 C 0.5114(15) -0.0579(20) -0.3601(7)
O3 O 0.5399(10) -0.1391(12) -0.2907(5)
O4 O 0.5595(12) 0.1054(14) -0.3752(5)
C9 C 0.1801(15) -0.6723(17) -0.3445(7)
O5 O 0.2614(10) -0.5767(11) -0.2855(4)
O6 O 0.0894(10) -0.8141(12) -0.3324(5)
O6A O 0.4106(10) -0.3141(12) -0.1676(5)
Cu1A Cu 0.0854(2) -0.8682(2) -0.2210(1)
O1A O -0.1138(9) -1.0802(11) -0.2300(5)
O2A O 0.1475(10) -0.8507(12) -0.0973(4)
O3A O -0.0399(10) -0.6391(12) -0.2093(5)
O5A O 0.2386(10) -1.0767(11) -0.2145(4)
C1A C 0.2342(13) -0.9841(17) -0.0424(7)
C7A C 0.0858(16) -0.6748(15) -0.0679(6)
C8A C -0.0114(15) -0.5579(20) -0.1399(7)
O4A O -0.0595(12) -0.3946(14) -0.1248(5)
C9A C 0.3199(15) -1.1723(17) -0.1555(7)
C2A C 0.3127(13) -1.1380(16) -0.0705(6)
C6A C 0.2377(14) -0.9659(20) 0.0396(7)
O6A_2 O 0.4106(10) -1.3141(12) -0.1676(5)
C3A C 0.3991(14) -1.2710(19) -0.0121(6)
C5A C 0.3215(14) -1.1009(17) 0.0936(7)
Cu1_2 Cu 0.4146(2) -1.3682(2) -0.2790(1)
C4A C 0.4020(15) -1.2511(19) 0.0684(7)
loop_
_geom_bond_atom_site_label_1
_geom_bond_atom_site_label_2
_geom_bond_site_symmetry_1
_geom_bond_site_symmetry_2
Cu1 O1 1_555 1_555
C1 C2 1_555 1_555
C2 C3 1_555 1_555
C3 C4 1_555 1_555
C4 C5 1_555 1_555
C5 C6 1_555 1_555
C6 C1 1_555 1_555
O2 Cu1 1_555 1_555
C7 O2 1_555 1_555
C8 C7 1_555 1_555
O3 Cu1 1_555 1_555
O4 C8 1_555 1_555
C9 C2 1_555 1_555
O5 Cu1 1_555 1_555
O6 C9 1_555 1_555
O6A Cu1 1_555 1_555
Cu1A O6 1_555 1_555
O1A Cu1A 1_555 1_555
O2A Cu1A 1_555 1_555
O3A Cu1A 1_555 1_555
O5A Cu1A 1_555 1_555
C1A O2A 1_555 1_555
C7A O2A 1_555 1_555
C8A O3A 1_555 1_555
O4A C8A 1_555 1_555
C9A O5A 1_555 1_555
C2A C1A 1_555 1_555
C6A C1A 1_555 1_555
O6A_2 C9A 1_555 1_555
C3A C2A 1_555 1_555
C5A C6A 1_555 1_555
Cu1_2 O6A_2 1_555 1_555
C4A C3A 1_555 1_555
C1 O2 1_555 1_555
C8 O3 1_555 1_555
C9 O5 1_555 1_555
C7A C8A 1_555 1_555
C9A C2A 1_555 1_555
C5A C4A 1_555 1_555

#END
