
#######################################################################
#
#                 Cambridge Crystallographic Data Centre
#                                CCDC 
#
#######################################################################
#
# If this CIF has been generated from an entry in the Cambridge 
# Structural Database, then it will include bibliographic, chemical, 
# crystal, experimental, refinement or atomic coordinate data resulting 
# from the CCDC's data processing and validation procedures.
#
#######################################################################

data_DOCDUV
_symmetry_cell_setting           triclinic
_symmetry_space_group_name_H-M   'P -1'
_symmetry_Int_Tables_number      2
_space_group_name_Hall           '-P 1'
loop_
_symmetry_equiv_pos_site_id
_symmetry_equiv_pos_as_xyz
1 x,y,z
2 -x,-y,-z
_cell_length_a                   8.8688(18)
_cell_length_b                   11.278(2)
_cell_length_c                   19.328(4)
_cell_angle_alpha                89.83(3)
_cell_angle_beta                 89.52(3)
_cell_angle_gamma                74.28(3)
_cell_volume                     1860.86
loop_
_atom_site_label
_atom_site_type_symbol
_atom_site_fract_x
_atom_site_fract_y
_atom_site_fract_z
Cd1 Cd 0.46498(2) 0.142039(19) 0.287191(10)
S1 S 0.76464(15) -0.17395(11) 0.11883(7)
S2 S 0.87270(14) 0.33638(11) 0.37309(7)
C1 C 0.4427(3) 0.3923(2) 0.17894(14)
C2 C 0.5639(3) 0.4400(3) 0.20217(16)
H1 H 0.6197 0.4105 0.2420
C3 C 0.5964(4) 0.5326(3) 0.16314(18)
H2 H 0.6737 0.5681 0.1780
C4 C 0.5180(4) 0.5746(3) 0.10261(17)
H3 H 0.5456 0.6361 0.0775
C5 C 0.3995(3) 0.5277(3) 0.07822(15)
H4 H 0.3472 0.5558 0.0373
C6 C 0.3628(3) 0.4363(2) 0.11813(13)
C7 C 0.2632(3) 0.2958(2) 0.16702(13)
C8 C 0.1592(3) 0.2170(3) 0.18565(14)
C9 C 0.0098(3) 0.2341(3) 0.16125(16)
H5 H -0.0314 0.2964 0.1296
C10 C -0.0797(3) 0.1571(3) 0.18446(18)
H6 H -0.1808 0.1668 0.1683
C11 C -0.0149(4) 0.0666(3) 0.23177(18)
H7 H -0.0705 0.0128 0.2478
C12 C 0.1352(4) 0.0576(3) 0.25497(18)
H8 H 0.1776 -0.0021 0.2879
C13 C 0.1621(3) 0.3756(3) 0.04564(14)
H9 H 0.1203 0.3045 0.0445
H10 H 0.2333 0.3692 0.0066
C14 C 0.0275(3) 0.4918(3) 0.03728(13)
H11 H -0.0590 0.4867 0.0671
H12 H 0.0616 0.5628 0.0514
C15 C 0.0315(4) 0.0403(4) 0.5217(2)
H13 H -0.0239 0.0515 0.5657
H14 H 0.0114 0.1204 0.4997
C16 C 0.2061(4) -0.0074(3) 0.53521(15)
H15 H 0.2369 0.0490 0.5664
H16 H 0.2259 -0.0865 0.5583
C17 C 0.3751(3) -0.1362(3) 0.44261(15)
C18 C 0.3816(4) -0.2556(3) 0.46365(19)
H17 H 0.3311 -0.2717 0.5035
C19 C 0.4679(4) -0.3484(3) 0.4216(2)
H18 H 0.4784 -0.4298 0.4343
C20 C 0.5398(5) -0.3243(3) 0.3608(2)
H19 H 0.5942 -0.3900 0.3335
C21 C 0.5327(4) -0.2065(3) 0.33993(18)
H20 H 0.5823 -0.1909 0.2997
C22 C 0.4463(3) -0.1099(3) 0.38278(15)
C23 C 0.3352(3) 0.0648(3) 0.42874(13)
C24 C 0.2864(3) 0.2016(3) 0.43685(15)
C25 C 0.2241(4) 0.2632(3) 0.49636(17)
H21 H 0.2086 0.2197 0.5355
C26 C 0.1847(4) 0.3917(3) 0.49710(19)
H22 H 0.1408 0.4352 0.5365
C27 C 0.2117(4) 0.4526(3) 0.4388(2)
H23 H 0.1879 0.5381 0.4378
C28 C 0.2746(4) 0.3842(3) 0.38222(19)
H24 H 0.2909 0.4255 0.3424
C29 C 0.6721(4) -0.0713(3) 0.17432(18)
C30 C 0.7503(4) 0.2632(3) 0.34609(16)
N1 N 0.3773(3) 0.3046(2) 0.20846(12)
N2 N 0.2220(3) 0.1296(2) 0.23275(12)
N3 N 0.2508(3) 0.3718(2) 0.11011(11)
N4 N 0.4218(3) 0.0152(2) 0.37526(12)
N5 N 0.3138(3) 0.2619(2) 0.38083(13)
N6 N 0.3051(3) -0.0219(2) 0.47210(12)
N7 N 0.6050(4) 0.0022(3) 0.21238(16)
N8 N 0.6638(3) 0.2103(3) 0.32639(14)
Cd1A Cd -0.46498(2) 0.857961(19) -0.287191(10)
Cd1A_2 Cd -0.46498(2) -0.142039(19) 0.712809(10)
S1A S -0.76464(15) 1.17395(11) -0.11883(7)
S2A S -0.87270(14) 0.66362(11) -0.37309(7)
C1A C -0.4427(3) 0.6077(2) -0.17894(14)
C2A C -0.5639(3) 0.5600(3) -0.20217(16)
H1A H -0.6197 0.5895 -0.2420
C3A C -0.5964(4) 0.4674(3) -0.16314(18)
H2A H -0.6737 0.4319 -0.1780
C4A C -0.5180(4) 0.4254(3) -0.10261(17)
H3A H -0.5456 0.3639 -0.0775
C5A C -0.3995(3) 0.4723(3) -0.07822(15)
H4A H -0.3472 0.4442 -0.0373
C6A C -0.3628(3) 0.5637(2) -0.11813(13)
C7A C -0.2632(3) 0.7042(2) -0.16702(13)
C8A C -0.1592(3) 0.7830(3) -0.18565(14)
C9A C -0.0098(3) 0.7659(3) -0.16125(16)
H5A H 0.0314 0.7036 -0.1296
C10A C 0.0797(3) 0.8429(3) -0.18446(18)
H6A H 0.1808 0.8332 -0.1683
C11A C 0.0149(4) 0.9334(3) -0.23177(18)
H7A H 0.0705 0.9872 -0.2478
C12A C -0.1352(4) 0.9424(3) -0.25497(18)
H8A H -0.1776 1.0021 -0.2879
C13A C -0.1621(3) 0.6244(3) -0.04564(14)
H9A H -0.1203 0.6955 -0.0445
H10A H -0.2333 0.6308 -0.0066
C14A C -0.0275(3) 0.5082(3) -0.03728(13)
H11A H 0.0590 0.5133 -0.0671
H12A H -0.0616 0.4372 -0.0514
C15A C -0.0315(4) -0.0403(4) 0.4783(2)
H13A H 0.0239 -0.0515 0.4343
H14A H -0.0114 -0.1204 0.5003
C16A C -0.2061(4) 0.0074(3) 0.46479(15)
H15A H -0.2369 -0.0490 0.4336
H16A H -0.2259 0.0865 0.4417
C17A C -0.3751(3) 0.1362(3) 0.55739(15)
C18A C -0.3816(4) 0.2556(3) 0.53635(19)
H17A H -0.3311 0.2717 0.4965
C19A C -0.4679(4) 0.3484(3) 0.5784(2)
H18A H -0.4784 0.4298 0.5657
C20A C -0.5398(5) 0.3243(3) 0.6392(2)
H19A H -0.5942 0.3900 0.6665
C21A C -0.5327(4) 0.2065(3) 0.66007(18)
H20A H -0.5823 0.1909 0.7003
C22A C -0.4463(3) 0.1099(3) 0.61722(15)
C23A C -0.3352(3) -0.0648(3) 0.57126(13)
C24A C -0.2864(3) -0.2016(3) 0.56315(15)
C25A C -0.2241(4) -0.2632(3) 0.50364(17)
H21A H -0.2086 -0.2197 0.4645
C26A C -0.1847(4) -0.3917(3) 0.50290(19)
H22A H -0.1408 -0.4352 0.4635
C27A C -0.2117(4) -0.4526(3) 0.5612(2)
H23A H -0.1879 -0.5381 0.5622
C28A C -0.2746(4) -0.3842(3) 0.61778(19)
H24A H -0.2909 -0.4255 0.6576
C29A C -0.6721(4) 1.0713(3) -0.17432(18)
C30A C -0.7503(4) 0.7368(3) -0.34609(16)
N1A N -0.3773(3) 0.6954(2) -0.20846(12)
N2A N -0.2220(3) 0.8704(2) -0.23275(12)
N3A N -0.2508(3) 0.6282(2) -0.11011(11)
N4A N -0.4218(3) -0.0152(2) 0.62474(12)
N4A_2 N -0.4218(3) 0.9848(2) -0.37526(12)
N5A N -0.3138(3) -0.2619(2) 0.61917(13)
N5A_2 N -0.3138(3) 0.7381(2) -0.38083(13)
N6A N -0.3051(3) 0.0219(2) 0.52790(12)
N7A N -0.6050(4) 0.9978(3) -0.21238(16)
N8A N -0.6638(3) 0.7897(3) -0.32639(14)
C31 C -0.1487(5) 0.1715(4) -0.0214(2)
H25 H -0.0682 0.1394 -0.0529
C32 C -0.3947(5) 0.1633(4) 0.0293(2)
H26 H -0.3774 0.2293 0.0566
H27 H -0.3994 0.0960 0.0590
H28 H -0.4917 0.1917 0.0049
C33 C -0.2772(7) 0.0233(4) -0.0645(3)
H29 H -0.1877 0.0034 -0.0949
H30 H -0.3711 0.0478 -0.0914
H31 H -0.2787 -0.0476 -0.0372
N9 N -0.2684(4) 0.1228(3) -0.01953(17)
O1 O -0.1372(4) 0.2553(3) 0.01536(18)
C34 C 0.1779(8) 0.7046(6) 0.2352(5)
H32 H 0.2026 0.7712 0.2592
H33 H 0.1441 0.7304 0.1892
H34 H 0.2692 0.6356 0.2329
C35 C 0.0094(7) 0.5694(6) 0.2402(3)
H35 H -0.0722 0.5519 0.2680
H36 H 0.0972 0.4977 0.2380
H37 H -0.0288 0.5919 0.1944
N10 N 0.0576(5) 0.6701(3) 0.27078(18)
C36 C -0.0507(13) 0.7140(8) 0.3205(5)
H38 H -0.1249 0.6732 0.3333
O2 O -0.0454(13) 0.8137(8) 0.3486(4)
C37? C 0.0561(12) 0.7464(10) 0.3273(5)
H39? H 0.1170 0.8017 0.3285
O3? O -0.0278(12) 0.7367(8) 0.3740(4)
loop_
_geom_bond_atom_site_label_1
_geom_bond_atom_site_label_2
_geom_bond_site_symmetry_1
_geom_bond_site_symmetry_2
Cd1 N1 1_555 1_555
S1 C29 1_555 1_555
S2 C30 1_555 1_555
C1 C2 1_555 1_555
C2 H1 1_555 1_555
C3 C2 1_555 1_555
H2 C3 1_555 1_555
C4 C3 1_555 1_555
H3 C4 1_555 1_555
C5 C4 1_555 1_555
H4 C5 1_555 1_555
C6 C1 1_555 1_555
C7 C8 1_555 1_555
C8 C9 1_555 1_555
C9 H5 1_555 1_555
C10 C9 1_555 1_555
H6 C10 1_555 1_555
C11 C10 1_555 1_555
H7 C11 1_555 1_555
C12 C11 1_555 1_555
H8 C12 1_555 1_555
C13 H9 1_555 1_555
H10 C13 1_555 1_555
C14 C13 1_555 1_555
H11 C14 1_555 1_555
H12 C14 1_555 1_555
C15 H13 1_555 1_555
H14 C15 1_555 1_555
C16 C15 1_555 1_555
H15 C16 1_555 1_555
H16 C16 1_555 1_555
C17 C18 1_555 1_555
C18 H17 1_555 1_555
C19 C18 1_555 1_555
H18 C19 1_555 1_555
C20 C19 1_555 1_555
H19 C20 1_555 1_555
C21 C20 1_555 1_555
H20 C21 1_555 1_555
C22 C17 1_555 1_555
C23 C24 1_555 1_555
C24 C25 1_555 1_555
C25 H21 1_555 1_555
C26 C25 1_555 1_555
H22 C26 1_555 1_555
C27 C26 1_555 1_555
H23 C27 1_555 1_555
C28 C27 1_555 1_555
H24 C28 1_555 1_555
C29 N7 1_555 1_555
C30 N8 1_555 1_555
C31 H25 1_555 1_555
C32 H26 1_555 1_555
H27 C32 1_555 1_555
H28 C32 1_555 1_555
C33 H29 1_555 1_555
H30 C33 1_555 1_555
H31 C33 1_555 1_555
C34 H32 1_555 1_555
H33 C34 1_555 1_555
H34 C34 1_555 1_555
C35 H35 1_555 1_555
H36 C35 1_555 1_555
H37 C35 1_555 1_555
N1 C1 1_555 1_555
N2 Cd1 1_555 1_555
N3 C6 1_555 1_555
N4 Cd1 1_555 1_555
N5 Cd1 1_555 1_555
N6 C16 1_555 1_555
N7 Cd1 1_555 1_555
N8 Cd1 1_555 1_555
N9 C31 1_555 1_555
N10 C34 1_555 1_555
O1 C31 1_555 1_555
C36 N10 1_555 1_555
H38 C36 1_555 1_555
O2 C36 1_555 1_555
Cd1A N1A 1_555 1_555
Cd1A_2 N4A 1_555 1_555
S1A C29A 1_555 1_555
S2A C30A 1_555 1_555
C1A C2A 1_555 1_555
C2A H1A 1_555 1_555
C3A C2A 1_555 1_555
H2A C3A 1_555 1_555
C4A C3A 1_555 1_555
H3A C4A 1_555 1_555
C5A C4A 1_555 1_555
H4A C5A 1_555 1_555
C6A C1A 1_555 1_555
C7A C8A 1_555 1_555
C8A C9A 1_555 1_555
C9A H5A 1_555 1_555
C10A C9A 1_555 1_555
H6A C10A 1_555 1_555
C11A C10A 1_555 1_555
H7A C11A 1_555 1_555
C12A C11A 1_555 1_555
H8A C12A 1_555 1_555
C13A H9A 1_555 1_555
H10A C13A 1_555 1_555
C14A C14 1_555 1_555
H11A C14A 1_555 1_555
H12A C14A 1_555 1_555
C15A C15 1_555 1_555
H13A C15A 1_555 1_555
H14A C15A 1_555 1_555
C16A C15A 1_555 1_555
H15A C16A 1_555 1_555
H16A C16A 1_555 1_555
C17A C18A 1_555 1_555
C18A H17A 1_555 1_555
C19A C18A 1_555 1_555
H18A C19A 1_555 1_555
C20A C19A 1_555 1_555
H19A C20A 1_555 1_555
C21A C20A 1_555 1_555
H20A C21A 1_555 1_555
C22A C17A 1_555 1_555
C23A C24A 1_555 1_555
C24A C25A 1_555 1_555
C25A H21A 1_555 1_555
C26A C25A 1_555 1_555
H22A C26A 1_555 1_555
C27A C26A 1_555 1_555
H23A C27A 1_555 1_555
C28A C27A 1_555 1_555
H24A C28A 1_555 1_555
C29A N7A 1_555 1_555
C30A N8A 1_555 1_555
N1A C1A 1_555 1_555
N2A Cd1A 1_555 1_555
N3A C6A 1_555 1_555
N4A C22A 1_555 1_555
N4A_2 Cd1A 1_555 1_555
N5A Cd1A_2 1_555 1_555
N5A_2 Cd1A 1_555 1_555
N6A C16A 1_555 1_555
N7A Cd1A 1_555 1_555
N8A Cd1A 1_555 1_555
C5 C6 1_555 1_555
C7 N1 1_555 1_555
C7 N3 1_555 1_555
C8 N2 1_555 1_555
C12 N2 1_555 1_555
C13 N3 1_555 1_555
C17 N6 1_555 1_555
C21 C22 1_555 1_555
C22 N4 1_555 1_555
C23 N4 1_555 1_555
C23 N6 1_555 1_555
C24 N5 1_555 1_555
C28 N5 1_555 1_555
C32 N9 1_555 1_555
C33 N9 1_555 1_555
C35 N10 1_555 1_555
C5A C6A 1_555 1_555
C7A N1A 1_555 1_555
C7A N3A 1_555 1_555
C8A N2A 1_555 1_555
C12A N2A 1_555 1_555
C13A C14A 1_555 1_555
C13A N3A 1_555 1_555
C17A N6A 1_555 1_555
C21A C22A 1_555 1_555
C23A N4A 1_555 1_555
C23A N6A 1_555 1_555
C24A N5A 1_555 1_555
C28A N5A 1_555 1_555

#END
