
#######################################################################
#
#                 Cambridge Crystallographic Data Centre
#                                CCDC 
#
#######################################################################
#
# If this CIF has been generated from an entry in the Cambridge 
# Structural Database, then it will include bibliographic, chemical, 
# crystal, experimental, refinement or atomic coordinate data resulting 
# from the CCDC's data processing and validation procedures.
#
#######################################################################

data_DOCFEH
_symmetry_cell_setting           triclinic
_symmetry_space_group_name_H-M   'P -1'
_symmetry_Int_Tables_number      2
_space_group_name_Hall           '-P 1'
loop_
_symmetry_equiv_pos_site_id
_symmetry_equiv_pos_as_xyz
1 x,y,z
2 -x,-y,-z
_cell_length_a                   11.232(2)
_cell_length_b                   19.180(4)
_cell_length_c                   8.7840(18)
_cell_angle_alpha                90.80(3)
_cell_angle_beta                 104.81(3)
_cell_angle_gamma                89.17(3)
_cell_volume                     1829.17
loop_
_atom_site_label
_atom_site_type_symbol
_atom_site_fract_x
_atom_site_fract_y
_atom_site_fract_z
Zn1 Zn 0.84820(2) 0.711982(13) 0.94803(2)
S1 S 0.66731(7) 0.62651(4) 1.35226(8)
N1 N 0.73094(15) 0.62666(9) 0.80727(18)
C1 C 0.6092(2) 0.62608(13) 0.7690(3)
H1 H 0.5678 0.6669 0.7843
N2 N 0.97483(15) 0.63068(9) 0.92066(18)
S2 S 1.15530(7) 0.87181(5) 1.24935(9)
C2 C 0.5401(2) 0.56898(13) 0.7081(3)
H2 H 0.4546 0.5709 0.6837
N3 N 1.01618(15) 0.53121(9) 0.80568(17)
C3 C 0.6014(2) 0.50902(14) 0.6844(2)
H3 H 0.5574 0.4694 0.6430
N4 N 0.86690(15) 0.76004(9) 0.71578(17)
C4 C 0.7291(2) 0.50778(12) 0.7224(2)
H4 H 0.7719 0.4675 0.7072
N5 N 0.69798(14) 0.78802(9) 0.87688(17)
C5 C 0.79166(18) 0.56830(11) 0.7838(2)
N6 N 0.62955(15) 0.88805(8) 0.75032(17)
C6 C 0.92703(17) 0.57552(10) 0.8338(2)
N7 N 0.79193(17) 0.67397(10) 1.13827(19)
C7 C 1.12907(18) 0.56101(11) 0.8784(2)
N8 N 0.97314(17) 0.78364(10) 1.0756(2)
C8 C 1.24906(19) 0.53974(13) 0.8862(2)
H5 H 1.2662 0.4992 0.8362
C9 C 1.3411(2) 0.58142(14) 0.9712(3)
H6 H 1.4227 0.5683 0.9809
C10 C 1.3153(2) 0.64337(14) 1.0440(3)
H7 H 1.3803 0.6706 1.0995
C11 C 1.1963(2) 0.66501(13) 1.0358(3)
H8 H 1.1797 0.7059 1.0852
C12 C 1.10155(18) 0.62280(11) 0.9498(2)
C13 C 1.0052(2) 0.46646(11) 0.7101(2)
H9 H 0.9463 0.4362 0.7391
H10 H 1.0843 0.4424 0.7344
C14 C 0.9648(3) 0.47915(15) 0.5350(3)
H11 H 0.9579 0.4340 0.4826
H12 H 0.8826 0.4994 0.5123
C15 C 0.50927(19) 0.96200(10) 0.5268(2)
H13 H 0.4381 0.9471 0.5609
H14 H 0.5164 0.9325 0.4390
C16 C 0.62455(19) 0.95374(11) 0.6615(2)
H15 H 0.6962 0.9554 0.6191
H16 H 0.6290 0.9929 0.7338
C17 C 0.56534(18) 0.87980(10) 0.8654(2)
C18 C 0.4732(2) 0.92038(12) 0.9015(2)
H17 H 0.4450 0.9615 0.8487
C19 C 0.4258(2) 0.89619(12) 1.0205(2)
H18 H 0.3627 0.9213 1.0479
C20 C 0.4692(2) 0.83531(13) 1.1010(2)
H19 H 0.4343 0.8211 1.1805
C21 C 0.56219(19) 0.79530(12) 1.0673(2)
H20 H 0.5915 0.7550 1.1230
C22 C 0.61053(18) 0.81845(10) 0.9444(2)
C23 C 0.70580(17) 0.83100(10) 0.7611(2)
C24 C 0.78393(18) 0.81034(11) 0.6554(2)
C25 C 0.7703(2) 0.83642(12) 0.5057(2)
H21 H 0.7104 0.8701 0.4659
C26 C 0.8476(2) 0.81159(13) 0.4156(2)
H22 H 0.8403 0.8283 0.3147
C27 C 0.9350(2) 0.76183(13) 0.4786(2)
H23 H 0.9902 0.7455 0.4230
C28 C 0.9391(2) 0.73636(12) 0.6280(2)
H24 H 0.9954 0.7010 0.6680
C29 C 0.7396(2) 0.65411(11) 1.2270(2)
C30 C 1.04811(19) 0.82018(12) 1.1471(2)
Zn1A Zn 1.15180(2) 0.288018(13) 0.05197(2)
Zn1A_2 Zn 0.15180(2) 1.288018(13) 0.05197(2)
S1A S 1.33269(7) 0.37349(4) -0.35226(8)
N1A N 1.26906(15) 0.37334(9) 0.19273(18)
C1A C 1.3908(2) 0.37392(13) 0.2310(3)
H1A H 1.4322 0.3331 0.2157
N2A N 1.02517(15) 0.36932(9) 0.07934(18)
S2A S 0.84470(7) 0.12819(5) -0.24935(9)
C2A C 1.4599(2) 0.43102(13) 0.2919(3)
H2A H 1.5454 0.4291 0.3163
N3A N 0.98382(15) 0.46879(9) 0.19432(17)
C3A C 1.3986(2) 0.49098(14) 0.3156(2)
H3A H 1.4426 0.5306 0.3570
N4A N 0.13310(15) 1.23996(9) 0.28422(17)
N4A_2 N 1.13310(15) 0.23996(9) 0.28422(17)
C4A C 1.2709(2) 0.49222(12) 0.2776(2)
H4A H 1.2281 0.5325 0.2928
N5A N 0.30202(14) 1.21198(9) 0.12312(17)
N5A_2 N 1.30202(14) 0.21198(9) 0.12312(17)
C5A C 1.20834(18) 0.43170(11) 0.2162(2)
N6A N 0.37045(15) 1.11195(8) 0.24968(17)
C6A C 1.07297(17) 0.42448(10) 0.1662(2)
N7A N 1.20807(17) 0.32603(10) -0.13827(19)
C7A C 0.87093(18) 0.43899(11) 0.1216(2)
N8A N 1.02686(17) 0.21636(10) -0.0756(2)
C8A C 0.75094(19) 0.46026(13) 0.1138(2)
H5A H 0.7338 0.5008 0.1638
C9A C 0.6589(2) 0.41858(14) 0.0288(3)
H6A H 0.5773 0.4317 0.0191
C10A C 0.6847(2) 0.35663(14) -0.0440(3)
H7A H 0.6197 0.3294 -0.0995
C11A C 0.8037(2) 0.33499(13) -0.0358(3)
H8A H 0.8203 0.2941 -0.0852
C12A C 0.89845(18) 0.37720(11) 0.0502(2)
C13A C 0.9948(2) 0.53354(11) 0.2899(2)
H9A H 1.0537 0.5638 0.2609
H10A H 0.9157 0.5576 0.2656
C14A C 1.0352(3) 0.52085(15) 0.4650(3)
H11A H 1.0421 0.5660 0.5174
H12A H 1.1174 0.5006 0.4877
C15A C 0.49073(19) 1.03800(10) 0.4732(2)
H13A H 0.5619 1.0529 0.4391
H14A H 0.4836 1.0675 0.5610
C16A C 0.37545(19) 1.04626(11) 0.3385(2)
H15A H 0.3038 1.0446 0.3809
H16A H 0.3710 1.0071 0.2662
C17A C 0.43466(18) 1.12020(10) 0.1346(2)
C18A C 0.5268(2) 1.07962(12) 0.0985(2)
H17A H 0.5550 1.0385 0.1513
C19A C 0.5742(2) 1.10381(12) -0.0205(2)
H18A H 0.6373 1.0787 -0.0479
C20A C 0.5308(2) 1.16469(13) -0.1010(2)
H19A H 0.5657 1.1789 -0.1805
C21A C 0.43781(19) 1.20470(12) -0.0673(2)
H20A H 0.4085 1.2450 -0.1230
C22A C 0.38947(18) 1.18155(10) 0.0556(2)
C23A C 0.29420(17) 1.16900(10) 0.2389(2)
C24A C 0.21607(18) 1.18966(11) 0.3446(2)
C25A C 0.2297(2) 1.16358(12) 0.4943(2)
H21A H 0.2896 1.1299 0.5341
C26A C 0.1524(2) 1.18841(13) 0.5844(2)
H22A H 0.1597 1.1717 0.6853
C27A C 0.0650(2) 1.23817(13) 0.5214(2)
H23A H 0.0098 1.2545 0.5770
C28A C 0.0609(2) 1.26364(12) 0.3720(2)
H24A H 0.0046 1.2990 0.3320
C29A C 1.2604(2) 0.34589(11) -0.2270(2)
C30A C 0.95189(19) 0.17982(12) -0.1471(2)
O1 O 1.25484(18) 1.01156(13) 0.6317(2)
N9 N 1.12198(18) 0.97753(11) 0.7663(2)
C31 C 1.1690(3) 0.97535(16) 0.6448(3)
H25 H 1.1352 0.9444 0.5632
C32 C 1.0195(3) 0.9336(2) 0.7759(4)
H26 H 0.9988 0.9033 0.6853
H27 H 0.9496 0.9624 0.7790
H28 H 1.0427 0.9061 0.8696
C33 C 1.1644(3) 1.02606(15) 0.8954(3)
H29 H 1.2323 1.0520 0.8785
H30 H 1.1906 1.0009 0.9922
H31 H 1.0986 1.0576 0.9014
N10 N 0.6721(2) 0.26993(12) 0.4383(3)
C34 C 0.7115(4) 0.2345(3) 0.3183(4)
H32 H 0.7751 0.2606 0.2909
H33 H 0.6433 0.2294 0.2274
H34 H 0.7431 0.1893 0.3547
C35 C 0.5762(3) 0.2389(2) 0.4938(4)
H35 H 0.5568 0.2682 0.5737
H36 H 0.6032 0.1939 0.5370
H37 H 0.5043 0.2336 0.4078
O2 O 0.8066(5) 0.3532(3) 0.5328(7)
C36 C 0.7116(6) 0.3236(3) 0.5475(8)
H38 H 0.6712 0.3362 0.6241
C37? C 0.7517(6) 0.3268(3) 0.4455(8)
H39? H 0.8094 0.3283 0.3863
O3? O 0.7394(5) 0.3734(3) 0.5344(7)
loop_
_geom_bond_atom_site_label_1
_geom_bond_atom_site_label_2
_geom_bond_site_symmetry_1
_geom_bond_site_symmetry_2
Zn1 N1 1_555 1_555
S1 C29 1_555 1_555
N1 C1 1_555 1_555
O1 C31 1_555 1_555
C1 H1 1_555 1_555
N2 Zn1 1_555 1_555
S2 C30 1_555 1_555
C2 C1 1_555 1_555
H2 C2 1_555 1_555
N3 C6 1_555 1_555
C3 C2 1_555 1_555
H3 C3 1_555 1_555
N4 Zn1 1_555 1_555
C4 C3 1_555 1_555
H4 C4 1_555 1_555
N5 Zn1 1_555 1_555
C5 N1 1_555 1_555
N6 C16 1_555 1_555
C6 N2 1_555 1_555
N7 Zn1 1_555 1_555
C7 N3 1_555 1_555
N8 Zn1 1_555 1_555
C8 C7 1_555 1_555
H5 C8 1_555 1_555
N9 C31 1_555 1_555
C9 C8 1_555 1_555
H6 C9 1_555 1_555
C10 C9 1_555 1_555
H7 C10 1_555 1_555
N10 C34 1_555 1_555
C11 C10 1_555 1_555
H8 C11 1_555 1_555
C12 N2 1_555 1_555
C13 N3 1_555 1_555
H9 C13 1_555 1_555
H10 C13 1_555 1_555
C14 C13 1_555 1_555
H11 C14 1_555 1_555
H12 C14 1_555 1_555
C15 H13 1_555 1_555
H14 C15 1_555 1_555
C16 C15 1_555 1_555
H15 C16 1_555 1_555
H16 C16 1_555 1_555
C17 N6 1_555 1_555
C18 C17 1_555 1_555
H17 C18 1_555 1_555
C19 C18 1_555 1_555
H18 C19 1_555 1_555
C20 C19 1_555 1_555
H19 C20 1_555 1_555
C21 C20 1_555 1_555
H20 C21 1_555 1_555
C22 N5 1_555 1_555
C23 N5 1_555 1_555
C24 N4 1_555 1_555
C25 C24 1_555 1_555
H21 C25 1_555 1_555
C26 C25 1_555 1_555
H22 C26 1_555 1_555
C27 C26 1_555 1_555
H23 C27 1_555 1_555
C28 N4 1_555 1_555
H24 C28 1_555 1_555
C29 N7 1_555 1_555
C30 N8 1_555 1_555
C31 H25 1_555 1_555
C32 N9 1_555 1_555
H26 C32 1_555 1_555
H27 C32 1_555 1_555
H28 C32 1_555 1_555
C33 N9 1_555 1_555
H29 C33 1_555 1_555
H30 C33 1_555 1_555
H31 C33 1_555 1_555
C34 H32 1_555 1_555
H33 C34 1_555 1_555
H34 C34 1_555 1_555
C35 N10 1_555 1_555
H35 C35 1_555 1_555
H36 C35 1_555 1_555
H37 C35 1_555 1_555
O2 C36 1_555 1_555
C36 N10 1_555 1_555
H38 C36 1_555 1_555
Zn1A N1A 1_555 1_555
Zn1A_2 N4A 1_555 1_555
S1A C29A 1_555 1_555
N1A C1A 1_555 1_555
C1A H1A 1_555 1_555
N2A Zn1A 1_555 1_555
S2A C30A 1_555 1_555
C2A C1A 1_555 1_555
H2A C2A 1_555 1_555
N3A C6A 1_555 1_555
C3A C2A 1_555 1_555
H3A C3A 1_555 1_555
N4A C24A 1_555 1_555
N4A_2 Zn1A 1_555 1_555
C4A C3A 1_555 1_555
H4A C4A 1_555 1_555
N5A Zn1A_2 1_555 1_555
N5A_2 Zn1A 1_555 1_555
C5A N1A 1_555 1_555
N6A C16A 1_555 1_555
C6A N2A 1_555 1_555
N7A Zn1A 1_555 1_555
C7A N3A 1_555 1_555
N8A Zn1A 1_555 1_555
C8A C7A 1_555 1_555
H5A C8A 1_555 1_555
C9A C8A 1_555 1_555
H6A C9A 1_555 1_555
C10A C9A 1_555 1_555
H7A C10A 1_555 1_555
C11A C10A 1_555 1_555
H8A C11A 1_555 1_555
C12A N2A 1_555 1_555
C13A N3A 1_555 1_555
H9A C13A 1_555 1_555
H10A C13A 1_555 1_555
C14A C14 1_555 1_555
H11A C14A 1_555 1_555
H12A C14A 1_555 1_555
C15A C15 1_555 1_555
H13A C15A 1_555 1_555
H14A C15A 1_555 1_555
C16A C15A 1_555 1_555
H15A C16A 1_555 1_555
H16A C16A 1_555 1_555
C17A N6A 1_555 1_555
C18A C17A 1_555 1_555
H17A C18A 1_555 1_555
C19A C18A 1_555 1_555
H18A C19A 1_555 1_555
C20A C19A 1_555 1_555
H19A C20A 1_555 1_555
C21A C20A 1_555 1_555
H20A C21A 1_555 1_555
C22A N5A 1_555 1_555
C23A N5A 1_555 1_555
C24A C23A 1_555 1_555
C25A C24A 1_555 1_555
H21A C25A 1_555 1_555
C26A C25A 1_555 1_555
H22A C26A 1_555 1_555
C27A C26A 1_555 1_555
H23A C27A 1_555 1_555
C28A N4A 1_555 1_555
H24A C28A 1_555 1_555
C29A N7A 1_555 1_555
C30A N8A 1_555 1_555
C4 C5 1_555 1_555
C5 C6 1_555 1_555
N6 C23 1_555 1_555
C7 C12 1_555 1_555
C11 C12 1_555 1_555
C17 C22 1_555 1_555
C21 C22 1_555 1_555
C23 C24 1_555 1_555
C27 C28 1_555 1_555
C4A C5A 1_555 1_555
C5A C6A 1_555 1_555
N6A C23A 1_555 1_555
C7A C12A 1_555 1_555
C11A C12A 1_555 1_555
C13A C14A 1_555 1_555
C17A C22A 1_555 1_555
C21A C22A 1_555 1_555
C27A C28A 1_555 1_555

#END
