
#######################################################################
#
#                 Cambridge Crystallographic Data Centre
#                                CCDC 
#
#######################################################################
#
# If this CIF has been generated from an entry in the Cambridge 
# Structural Database, then it will include bibliographic, chemical, 
# crystal, experimental, refinement or atomic coordinate data resulting 
# from the CCDC's data processing and validation procedures.
#
#######################################################################

data_DOCFAD
_symmetry_cell_setting           triclinic
_symmetry_space_group_name_H-M   'P -1'
_symmetry_Int_Tables_number      2
_space_group_name_Hall           '-P 1'
loop_
_symmetry_equiv_pos_site_id
_symmetry_equiv_pos_as_xyz
1 x,y,z
2 -x,-y,-z
_cell_length_a                   8.8395(18)
_cell_length_b                   11.248(2)
_cell_length_c                   19.255(4)
_cell_angle_alpha                89.55(3)
_cell_angle_beta                 89.49(3)
_cell_angle_gamma                74.81(3)
_cell_volume                     1847.47
loop_
_atom_site_label
_atom_site_type_symbol
_atom_site_fract_x
_atom_site_fract_y
_atom_site_fract_z
Mn1 Mn 0.54223(4) 0.85309(4) 0.712795(18)
S1 S 0.24149(12) 1.16519(9) 0.87649(5)
N1 N 0.6217(2) 0.69631(18) 0.78974(9)
C1 C 0.9914(3) 0.7685(3) 0.83806(14)
H1 H 1.0323 0.7078 0.8709
S2 S 0.13629(11) 0.66594(9) 0.62674(5)
N2 N 0.7794(2) 0.86861(18) 0.76372(10)
C2 C 1.0795(3) 0.8467(3) 0.81362(14)
H2 H 1.1800 0.8393 0.8302
N3 N 0.7497(2) 0.62865(18) 0.88919(9)
C3 C 1.0162(3) 0.9341(3) 0.76512(14)
H3 H 1.0720 0.9883 0.7487
N4 N 0.5783(2) 0.98020(19) 0.62783(9)
C4 C 0.8678(3) 0.9405(3) 0.74089(13)
H4 H 0.8270 0.9985 0.7066
N5 N 0.6888(2) 0.73675(19) 0.62343(11)
C5 C 0.8413(3) 0.7831(2) 0.81222(12)
N6 N 0.6948(2) 1.01987(19) 0.52944(10)
C6 C 0.7375(3) 0.7048(2) 0.83220(12)
N7 N 0.4097(3) 0.9863(2) 0.78545(12)
C7 C 0.5566(3) 0.6086(2) 0.81986(12)
N8 N 0.3498(3) 0.7892(2) 0.67425(11)
C8 C 0.4351(3) 0.5607(2) 0.79658(14)
H5 H 0.3800 0.5901 0.7563
C9 C 0.4002(3) 0.4677(3) 0.83594(13)
H6 H 0.3210 0.4332 0.8216
C10 C 0.4813(3) 0.4251(3) 0.89618(13)
H7 H 0.4554 0.3617 0.9209
C11 C 0.5989(3) 0.4726(2) 0.92121(13)
H8 H 0.6503 0.4451 0.9625
C12 C 0.6355(3) 0.5639(2) 0.88088(11)
C13 C 0.8386(3) 0.6243(2) 0.95418(12)
H9 H 0.7671 0.6295 0.9933
H10 H 0.8806 0.6956 0.9557
C14 C 0.9730(3) 0.5082(2) 0.96223(11)
H11 H 1.0600 0.5142 0.9325
H12 H 0.9388 0.4370 0.9479
C15 C 0.9653(4) 0.9687(5) 0.47827(17)
H13 H 0.9896 0.8843 0.4949
H14 H 1.0167 0.9672 0.4334
C16 C 0.7909(3) 1.0086(3) 0.46551(13)
H15 H 0.7658 1.0875 0.4416
H16 H 0.7631 0.9494 0.4351
C17 C 0.6227(3) 1.1341(2) 0.55948(13)
C18 C 0.6149(3) 1.2528(3) 0.53758(15)
H17 H 0.6629 1.2691 0.4968
C19 C 0.5313(3) 1.3455(3) 0.58015(16)
H18 H 0.5242 1.4269 0.5679
C20 C 0.4568(4) 1.3217(3) 0.64104(16)
H19 H 0.4005 1.3872 0.6678
C21 C 0.4655(3) 1.2023(3) 0.66218(14)
H20 H 0.4166 1.1861 0.7028
C22 C 0.5510(3) 1.1067(2) 0.61988(13)
C23 C 0.6641(3) 0.9315(2) 0.57318(11)
C24 C 0.7152(3) 0.7964(2) 0.56552(12)
C25 C 0.7775(3) 0.7336(3) 0.50585(14)
H21 H 0.7935 0.7763 0.4661
C26 C 0.8156(3) 0.6058(3) 0.50637(15)
H22 H 0.8581 0.5619 0.4669
C27 C 0.7902(3) 0.5445(3) 0.56543(15)
H23 H 0.8158 0.4589 0.5673
C28 C 0.7259(3) 0.6140(3) 0.62145(15)
H24 H 0.7065 0.5727 0.6612
C29 C 0.3396(3) 1.0608(3) 0.82284(14)
C30 C 0.2609(3) 0.7377(3) 0.65408(12)
Mn1A Mn 1.45777(4) 0.14691(4) 1.287205(18)
Mn1A_2 Mn 1.45777(4) 1.14691(4) 0.287205(18)
S1A S 1.75851(12) -0.16519(9) 1.12351(5)
N1A N 1.3783(2) 0.30369(18) 1.21026(9)
C1A C 1.0086(3) 0.2315(3) 1.16194(14)
H1A H 0.9677 0.2922 1.1291
S2A S 1.86371(11) 0.33406(9) 1.37326(5)
N2A N 1.2206(2) 0.13139(18) 1.23628(10)
C2A C 0.9205(3) 0.1533(3) 1.18638(14)
H2A H 0.8200 0.1607 1.1698
N3A N 1.2503(2) 0.37135(18) 1.11081(9)
C3A C 0.9838(3) 0.0659(3) 1.23488(14)
H3A H 0.9280 0.0117 1.2513
N4A N 1.4217(2) 1.01980(19) 0.37217(9)
N4A_2 N 1.4217(2) 0.01980(19) 1.37217(9)
C4A C 1.1322(3) 0.0595(3) 1.25911(13)
H4A H 1.1730 0.0015 1.2934
N5A N 1.3112(2) 1.26325(19) 0.37657(11)
N5A_2 N 1.3112(2) 0.26325(19) 1.37657(11)
C5A C 1.1587(3) 0.2169(2) 1.18778(12)
N6A N 1.3052(2) 0.98013(19) 0.47056(10)
C6A C 1.2625(3) 0.2952(2) 1.16780(12)
N7A N 1.5903(3) 0.0137(2) 1.21455(12)
C7A C 1.4434(3) 0.3914(2) 1.18014(12)
N8A N 1.6502(3) 0.2108(2) 1.32575(11)
C8A C 1.5649(3) 0.4393(2) 1.20342(14)
H5A H 1.6200 0.4099 1.2437
C9A C 1.5998(3) 0.5323(3) 1.16406(13)
H6A H 1.6790 0.5668 1.1784
C10A C 1.5187(3) 0.5749(3) 1.10382(13)
H7A H 1.5446 0.6383 1.0791
C11A C 1.4011(3) 0.5274(2) 1.07879(13)
H8A H 1.3497 0.5549 1.0375
C12A C 1.3645(3) 0.4361(2) 1.11912(11)
C13A C 1.1614(3) 0.3757(2) 1.04582(12)
H9A H 1.2329 0.3705 1.0067
H10A H 1.1194 0.3044 1.0443
C14A C 1.0270(3) 0.4918(2) 1.03777(11)
H11A H 0.9400 0.4858 1.0675
H12A H 1.0612 0.5630 1.0521
C15A C 1.0347(4) 1.0313(5) 0.52173(17)
H13A H 1.0104 1.1157 0.5051
H14A H 0.9833 1.0328 0.5666
C16A C 1.2091(3) 0.9914(3) 0.53449(13)
H15A H 1.2342 0.9125 0.5584
H16A H 1.2369 1.0506 0.5649
C17A C 1.3773(3) 0.8659(2) 0.44052(13)
C18A C 1.3851(3) 0.7472(3) 0.46242(15)
H17A H 1.3371 0.7309 0.5032
C19A C 1.4687(3) 0.6545(3) 0.41985(16)
H18A H 1.4758 0.5731 0.4321
C20A C 1.5432(4) 0.6783(3) 0.35896(16)
H19A H 1.5995 0.6128 0.3322
C21A C 1.5345(3) 0.7977(3) 0.33782(14)
H20A H 1.5834 0.8139 0.2972
C22A C 1.4490(3) 0.8933(2) 0.38012(13)
C23A C 1.3359(3) 1.0685(2) 0.42682(11)
C24A C 1.2848(3) 1.2036(2) 0.43448(12)
C25A C 1.2225(3) 1.2664(3) 0.49415(14)
H21A H 1.2065 1.2237 0.5339
C26A C 1.1844(3) 1.3942(3) 0.49363(15)
H22A H 1.1419 1.4381 0.5331
C27A C 1.2098(3) 1.4555(3) 0.43457(15)
H23A H 1.1842 1.5411 0.4327
C28A C 1.2741(3) 1.3860(3) 0.37855(15)
H24A H 1.2935 1.4273 0.3388
C29A C 1.6604(3) -0.0608(3) 1.17716(14)
C30A C 1.7391(3) 0.2623(3) 1.34592(12)
O1 O 0.8661(3) 1.2558(2) 1.01354(13)
N9 N 0.7318(3) 1.1228(2) 0.97864(13)
C31 C 0.8519(4) 1.1721(3) 0.97648(18)
H25 H 0.9313 1.1408 0.9444
C32 C 0.7225(5) 1.0209(4) 0.9346(2)
H26 H 0.8116 1.0008 0.9039
H27 H 0.6281 1.0439 0.9077
H28 H 0.7215 0.9505 0.9629
C33 C 0.6057(4) 1.1650(3) 1.02783(16)
H29 H 0.6228 1.2331 1.0535
H30 H 0.6020 1.0992 1.0593
H31 H 0.5081 1.1908 1.0035
N10 N -0.0622(4) 0.3287(3) 0.72925(13)
C34 C -0.0092(5) 0.4260(5) 0.7587(2)
H32 H -0.0637 0.4510 0.8016
H33 H -0.0293 0.4947 0.7270
H34 H 0.1014 0.3981 0.7672
C35 C -0.1801(6) 0.2906(4) 0.7665(3)
H35 H -0.2054 0.3380 0.8083
H36 H -0.1427 0.2048 0.7783
H37 H -0.2720 0.3030 0.7384
C36 C -0.0590(9) 0.2491(8) 0.6731(3)
H38 H -0.1183 0.1920 0.6717
O2 O 0.0288(9) 0.2620(7) 0.6264(3)
C37? C 0.0502(9) 0.2871(7) 0.6772(4)
H39? H 0.1262 0.3269 0.6645
O3? O 0.0364(10) 0.1896(7) 0.6496(3)
loop_
_geom_bond_atom_site_label_1
_geom_bond_atom_site_label_2
_geom_bond_site_symmetry_1
_geom_bond_site_symmetry_2
Mn1 N1 1_555 1_555
S1 C29 1_555 1_555
N1 C6 1_555 1_555
O1 C31 1_555 1_555
C1 H1 1_555 1_555
S2 C30 1_555 1_555
N2 Mn1 1_555 1_555
C2 C1 1_555 1_555
H2 C2 1_555 1_555
N3 C6 1_555 1_555
C3 C2 1_555 1_555
H3 C3 1_555 1_555
N4 Mn1 1_555 1_555
C4 N2 1_555 1_555
H4 C4 1_555 1_555
N5 Mn1 1_555 1_555
C5 C1 1_555 1_555
N6 C16 1_555 1_555
C6 C5 1_555 1_555
N7 Mn1 1_555 1_555
C7 N1 1_555 1_555
N8 Mn1 1_555 1_555
C8 C7 1_555 1_555
H5 C8 1_555 1_555
C9 C8 1_555 1_555
H6 C9 1_555 1_555
N9 C31 1_555 1_555
N10 C34 1_555 1_555
C10 C9 1_555 1_555
H7 C10 1_555 1_555
C11 C10 1_555 1_555
H8 C11 1_555 1_555
C12 N3 1_555 1_555
C13 N3 1_555 1_555
H9 C13 1_555 1_555
H10 C13 1_555 1_555
C14 C13 1_555 1_555
H11 C14 1_555 1_555
H12 C14 1_555 1_555
C15 H13 1_555 1_555
H14 C15 1_555 1_555
C16 C15 1_555 1_555
H15 C16 1_555 1_555
H16 C16 1_555 1_555
C17 N6 1_555 1_555
C18 C17 1_555 1_555
H17 C18 1_555 1_555
C19 C18 1_555 1_555
H18 C19 1_555 1_555
C20 C19 1_555 1_555
H19 C20 1_555 1_555
C21 C20 1_555 1_555
H20 C21 1_555 1_555
C22 N4 1_555 1_555
C23 N4 1_555 1_555
C24 N5 1_555 1_555
C25 C24 1_555 1_555
H21 C25 1_555 1_555
C26 C25 1_555 1_555
H22 C26 1_555 1_555
C27 C26 1_555 1_555
H23 C27 1_555 1_555
C28 N5 1_555 1_555
H24 C28 1_555 1_555
C29 N7 1_555 1_555
C30 N8 1_555 1_555
C31 H25 1_555 1_555
C32 N9 1_555 1_555
H26 C32 1_555 1_555
H27 C32 1_555 1_555
H28 C32 1_555 1_555
C33 N9 1_555 1_555
H29 C33 1_555 1_555
H30 C33 1_555 1_555
H31 C33 1_555 1_555
C34 H32 1_555 1_555
H33 C34 1_555 1_555
H34 C34 1_555 1_555
C35 N10 1_555 1_555
H35 C35 1_555 1_555
H36 C35 1_555 1_555
H37 C35 1_555 1_555
C36 N10 1_555 1_555
H38 C36 1_555 1_555
O2 C36 1_555 1_555
Mn1A N1A 1_555 1_555
Mn1A_2 N4A 1_555 1_555
S1A C29A 1_555 1_555
N1A C6A 1_555 1_555
C1A H1A 1_555 1_555
S2A C30A 1_555 1_555
N2A Mn1A 1_555 1_555
C2A C1A 1_555 1_555
H2A C2A 1_555 1_555
N3A C6A 1_555 1_555
C3A C2A 1_555 1_555
H3A C3A 1_555 1_555
N4A C22A 1_555 1_555
N4A_2 Mn1A 1_555 1_555
C4A N2A 1_555 1_555
H4A C4A 1_555 1_555
N5A Mn1A_2 1_555 1_555
N5A_2 Mn1A 1_555 1_555
C5A C1A 1_555 1_555
N6A C16A 1_555 1_555
C6A C5A 1_555 1_555
N7A Mn1A 1_555 1_555
C7A N1A 1_555 1_555
N8A Mn1A 1_555 1_555
C8A C7A 1_555 1_555
H5A C8A 1_555 1_555
C9A C8A 1_555 1_555
H6A C9A 1_555 1_555
C10A C9A 1_555 1_555
H7A C10A 1_555 1_555
C11A C10A 1_555 1_555
H8A C11A 1_555 1_555
C12A N3A 1_555 1_555
C13A N3A 1_555 1_555
H9A C13A 1_555 1_555
H10A C13A 1_555 1_555
C14A C14 1_555 1_555
H11A C14A 1_555 1_555
H12A C14A 1_555 1_555
C15A C15 1_555 1_555
H13A C15A 1_555 1_555
H14A C15A 1_555 1_555
C16A C15A 1_555 1_555
H15A C16A 1_555 1_555
H16A C16A 1_555 1_555
C17A N6A 1_555 1_555
C18A C17A 1_555 1_555
H17A C18A 1_555 1_555
C19A C18A 1_555 1_555
H18A C19A 1_555 1_555
C20A C19A 1_555 1_555
H19A C20A 1_555 1_555
C21A C20A 1_555 1_555
H20A C21A 1_555 1_555
C22A C17A 1_555 1_555
C23A N4A 1_555 1_555
C24A N5A 1_555 1_555
C25A C24A 1_555 1_555
H21A C25A 1_555 1_555
C26A C25A 1_555 1_555
H22A C26A 1_555 1_555
C27A C26A 1_555 1_555
H23A C27A 1_555 1_555
C28A N5A 1_555 1_555
H24A C28A 1_555 1_555
C29A N7A 1_555 1_555
C30A N8A 1_555 1_555
N2 C5 1_555 1_555
C3 C4 1_555 1_555
N6 C23 1_555 1_555
C7 C12 1_555 1_555
C11 C12 1_555 1_555
C17 C22 1_555 1_555
C21 C22 1_555 1_555
C23 C24 1_555 1_555
C27 C28 1_555 1_555
N2A C5A 1_555 1_555
C3A C4A 1_555 1_555
N6A C23A 1_555 1_555
C7A C12A 1_555 1_555
C11A C12A 1_555 1_555
C13A C14A 1_555 1_555
C21A C22A 1_555 1_555
C23A C24A 1_555 1_555
C27A C28A 1_555 1_555

#END
