
#######################################################################
#
#                 Cambridge Crystallographic Data Centre
#                                CCDC 
#
#######################################################################
#
# If this CIF has been generated from an entry in the Cambridge 
# Structural Database, then it will include bibliographic, chemical, 
# crystal, experimental, refinement or atomic coordinate data resulting 
# from the CCDC's data processing and validation procedures.
#
#######################################################################

data_DOCGEI
_symmetry_cell_setting           triclinic
_symmetry_space_group_name_H-M   'P -1'
_symmetry_Int_Tables_number      2
_space_group_name_Hall           '-P 1'
loop_
_symmetry_equiv_pos_site_id
_symmetry_equiv_pos_as_xyz
1 x,y,z
2 -x,-y,-z
_cell_length_a                   9.4767(5)
_cell_length_b                   10.9700(6)
_cell_length_c                   12.5346(6)
_cell_angle_alpha                107.182(5)
_cell_angle_beta                 95.659(5)
_cell_angle_gamma                90.737(5)
_cell_volume                     1237.66
loop_
_atom_site_label
_atom_site_type_symbol
_atom_site_fract_x
_atom_site_fract_y
_atom_site_fract_z
Nd1 Nd 0.239602(17) 0.461437(16) 0.483680(14)
O1 O 0.3625(3) 0.3665(3) 0.3053(2)
O2 O 0.1123(3) 0.5190(3) 0.3234(2)
H1 H 0.443(5) 0.390(4) 0.303(4)
H2 H 0.368(6) 0.293(6) 0.296(5)
H3 H 0.149(5) 0.540(4) 0.275(4)
H4 H 0.037(5) 0.551(4) 0.324(4)
O3 O 0.3865(2) 0.2930(2) 0.5113(2)
O4 O 0.6055(2) 0.3739(2) 0.5200(2)
O5 O 0.9114(2) 0.0417(2) 0.6454(2)
O6 O 0.7230(3) -0.0856(2) 0.7269(2)
H5 H 0.781(6) -0.118(6) 0.700(5)
C1 C 0.5188(3) 0.2932(3) 0.5341(3)
C2 C 0.5746(3) 0.1900(3) 0.5813(3)
C3 C 0.7210(3) 0.1665(3) 0.5875(3)
H6 H 0.7847 0.2144 0.5598
C4 C 0.7712(3) 0.0736(3) 0.6338(3)
C5 C 0.6772(3) 0.0029(3) 0.6756(3)
C6 C 0.5330(3) 0.0271(3) 0.6692(3)
H7 H 0.4692 -0.0204 0.6972
C7 C 0.4817(3) 0.1203(3) 0.6223(3)
H8 H 0.3833 0.1362 0.6183
C8 C 1.0132(4) 0.1249(4) 0.6211(3)
H9 H 0.9941 0.1238 0.5425
H10 H 1.1090 0.0958 0.6338
H11 H 1.0062 0.2121 0.6703
O7 O 0.3646(2) 0.5354(2) 0.67843(19)
O8 O 0.1647(2) 0.4241(2) 0.66022(19)
O9 O 0.4880(3) 0.7122(3) 1.1080(2)
O10 O 0.2871(3) 0.6131(3) 1.1922(2)
H12 H 0.350(5) 0.665(5) 1.222(4)
C9 C 0.2686(3) 0.4908(3) 0.7220(3)
C10 C 0.2765(3) 0.5200(3) 0.8470(3)
C11 C 0.3855(3) 0.6024(3) 0.9149(3)
H13 H 0.4562 0.6369 0.8819
C12 C 0.3894(4) 0.6334(3) 1.0307(3)
C13 C 0.2845(4) 0.5819(3) 1.0779(3)
C14 C 0.1792(4) 0.5002(4) 1.0120(3)
H14 H 0.1097 0.4647 1.0453
C15 C 0.1738(4) 0.4689(3) 0.8949(3)
H15 H 0.1001 0.4128 0.8485
C16 C 0.5942(4) 0.7730(4) 1.0673(3)
H16 H 0.6470 0.7082 1.0169
H17 H 0.6594 0.8246 1.1306
H18 H 0.5497 0.8283 1.0261
O11 O 0.1058(2) 0.2662(2) 0.3698(2)
O12 O -0.0804(2) 0.3687(2) 0.43886(19)
O13 O -0.0837(2) 0.0981(2) -0.0525(2)
O14 O -0.3432(3) 0.0183(3) -0.0460(2)
H19 H -0.295(5) 0.013(4) -0.100(4)
C17 C -0.0260(3) 0.2885(3) 0.3602(3)
C18 C -0.1130(3) 0.2206(3) 0.2536(3)
C19 C -0.0503(3) 0.1947(3) 0.1524(3)
H20 H 0.0456 0.2214 0.1530
C20 C -0.1290(3) 0.1304(3) 0.0521(3)
C21 C -0.2686(3) 0.0882(3) 0.0524(3)
C22 C -0.3315(3) 0.1151(3) 0.1515(3)
H21 H -0.4269 0.0871 0.1507
C23 C -0.2539(3) 0.1837(3) 0.2527(3)
H22 H -0.2974 0.2050 0.3206
C24 C 0.0447(4) 0.1570(4) -0.0655(3)
H23 H 0.0369 0.2499 -0.0423
H24 H 0.0632 0.1274 -0.1444
H25 H 0.1230 0.1344 -0.0187
Nd1A Nd 0.760398(17) 0.538563(16) 0.516320(14)
Nd1A_2 Nd -0.239602(17) 0.538563(16) 0.516320(14)
O4A O 0.3945(2) 0.6261(2) 0.4800(2)
O12A O 0.0804(2) 0.6313(2) 0.56114(19)
loop_
_geom_bond_atom_site_label_1
_geom_bond_atom_site_label_2
_geom_bond_site_symmetry_1
_geom_bond_site_symmetry_2
Nd1 O1 1_555 1_555
O1 H1 1_555 1_555
O2 Nd1 1_555 1_555
H2 O1 1_555 1_555
H3 O2 1_555 1_555
H4 O2 1_555 1_555
O3 Nd1 1_555 1_555
O4 C1 1_555 1_555
O5 C4 1_555 1_555
O6 H5 1_555 1_555
C1 O3 1_555 1_555
C2 C1 1_555 1_555
C3 C2 1_555 1_555
H6 C3 1_555 1_555
C4 C3 1_555 1_555
C5 O6 1_555 1_555
C6 C5 1_555 1_555
H7 C6 1_555 1_555
C7 C2 1_555 1_555
H8 C7 1_555 1_555
C8 O5 1_555 1_555
H9 C8 1_555 1_555
H10 C8 1_555 1_555
H11 C8 1_555 1_555
O7 Nd1 1_555 1_555
O8 Nd1 1_555 1_555
O9 C12 1_555 1_555
O10 H12 1_555 1_555
C9 O7 1_555 1_555
C10 C9 1_555 1_555
C11 C10 1_555 1_555
H13 C11 1_555 1_555
C12 C11 1_555 1_555
C13 O10 1_555 1_555
C14 C13 1_555 1_555
H14 C14 1_555 1_555
C15 C10 1_555 1_555
H15 C15 1_555 1_555
C16 O9 1_555 1_555
H16 C16 1_555 1_555
H17 C16 1_555 1_555
H18 C16 1_555 1_555
O11 Nd1 1_555 1_555
O12 C17 1_555 1_555
O13 C20 1_555 1_555
O14 H19 1_555 1_555
C17 O11 1_555 1_555
C18 C17 1_555 1_555
C19 C18 1_555 1_555
H20 C19 1_555 1_555
C20 C19 1_555 1_555
C21 O14 1_555 1_555
C22 C21 1_555 1_555
H21 C22 1_555 1_555
C23 C18 1_555 1_555
H22 C23 1_555 1_555
C24 O13 1_555 1_555
H23 C24 1_555 1_555
H24 C24 1_555 1_555
H25 C24 1_555 1_555
Nd1A O4 1_555 1_555
Nd1A_2 O12 1_555 1_555
O4A Nd1 1_555 1_555
O12A Nd1 1_555 1_555
C4 C5 1_555 1_555
C6 C7 1_555 1_555
O8 C9 1_555 1_555
C12 C13 1_555 1_555
C14 C15 1_555 1_555
C20 C21 1_555 1_555
C22 C23 1_555 1_555

#END
