
#######################################################################
#
#                 Cambridge Crystallographic Data Centre
#                                CCDC 
#
#######################################################################
#
# If this CIF has been generated from an entry in the Cambridge 
# Structural Database, then it will include bibliographic, chemical, 
# crystal, experimental, refinement or atomic coordinate data resulting 
# from the CCDC's data processing and validation procedures.
#
#######################################################################

data_DOCHEJ
_symmetry_cell_setting           triclinic
_symmetry_space_group_name_H-M   'P -1'
_symmetry_Int_Tables_number      2
_space_group_name_Hall           '-P 1'
loop_
_symmetry_equiv_pos_site_id
_symmetry_equiv_pos_as_xyz
1 x,y,z
2 -x,-y,-z
_cell_length_a                   4.2250(11)
_cell_length_b                   9.025(2)
_cell_length_c                   10.839(3)
_cell_angle_alpha                91.983(4)
_cell_angle_beta                 90.621(4)
_cell_angle_gamma                103.047(4)
_cell_volume                     402.314
loop_
_atom_site_label
_atom_site_type_symbol
_atom_site_fract_x
_atom_site_fract_y
_atom_site_fract_z
Rb1 Rb 0.78352(12) 1.18643(5) 0.61843(4)
O1 O 0.7329(9) 0.8508(4) 0.5657(3)
O2 O 0.2490(11) 0.5924(5) 0.5843(4)
O3 O 0.4322(11) 0.4249(5) 0.6824(4)
O4 O 0.9096(12) 0.6207(6) 1.0878(4)
O5 O 1.2817(12) 0.8258(6) 1.0866(4)
N1 N 1.0258(12) 0.9247(5) 0.7416(4)
N2 N 0.4349(10) 0.5577(5) 0.6591(4)
N3 N 1.0543(11) 0.7329(6) 1.0346(4)
C1 C 0.8008(12) 0.8193(6) 0.6710(5)
C2 C 0.6624(11) 0.6763(6) 0.7292(5)
C3 C 0.7469(12) 0.6462(6) 0.8461(5)
H1 H 0.6584 0.5533 0.8805
C4 C 0.9673(12) 0.7578(6) 0.9113(5)
C5 C 1.0995(14) 0.8935(6) 0.8547(5)
H2 H 1.2500 0.9671 0.8998
Rb1A Rb 0.21648(12) 0.81357(5) 0.38157(4)
Rb1A_2 Rb 1.21648(12) 0.81357(5) 0.38157(4)
Rb1_2 Rb -0.21648(12) 0.18643(5) 0.61843(4)
Rb1_3 Rb 0.78352(12) 0.18643(5) 0.61843(4)
Rb1A_3 Rb 1.21648(12) 0.81357(5) 1.38157(4)
O1A O 0.2671(9) 1.1492(4) 0.4343(3)
O1A_2 O 1.2671(9) 1.1492(4) 0.4343(3)
O2A O 0.7510(11) 1.4076(5) 0.4157(4)
O3_2 O 0.4322(11) 1.4249(5) 0.6824(4)
O3_3 O 1.4322(11) 1.4249(5) 0.6824(4)
O5A O 0.7183(12) 1.1742(6) 0.9134(4)
loop_
_geom_bond_atom_site_label_1
_geom_bond_atom_site_label_2
_geom_bond_site_symmetry_1
_geom_bond_site_symmetry_2
Rb1 O1 1_555 1_555
O1 C1 1_555 1_555
O2 N2 1_555 1_555
O3 N2 1_555 1_555
O4 N3 1_555 1_555
O5 N3 1_555 1_555
N1 Rb1 1_555 1_555
N2 C2 1_555 1_555
N3 C4 1_555 1_555
C1 N1 1_555 1_555
C2 C1 1_555 1_555
C3 C2 1_555 1_555
H1 C3 1_555 1_555
C4 C3 1_555 1_555
C5 N1 1_555 1_555
H2 C5 1_555 1_555
Rb1A O1 1_555 1_555
Rb1A_2 O1 1_555 1_555
Rb1_2 O3 1_555 1_555
Rb1_3 O3 1_555 1_555
Rb1A_3 O5 1_555 1_555
O1A Rb1 1_555 1_555
O1A_2 Rb1 1_555 1_555
O2A Rb1 1_555 1_555
O3_2 Rb1 1_555 1_555
O3_3 Rb1 1_555 1_555
O5A Rb1 1_555 1_555
O2 Rb1A 1_555 1_555
C4 C5 1_555 1_555
Rb1A O1A 1_555 1_555
Rb1A_2 O1A_2 1_555 1_555

#END
