
#######################################################################
#
#                 Cambridge Crystallographic Data Centre
#                                CCDC 
#
#######################################################################
#
# If this CIF has been generated from an entry in the Cambridge 
# Structural Database, then it will include bibliographic, chemical, 
# crystal, experimental, refinement or atomic coordinate data resulting 
# from the CCDC's data processing and validation procedures.
#
#######################################################################

data_DOCHOT
_symmetry_cell_setting           monoclinic
_symmetry_space_group_name_H-M   'P 21/c'
_symmetry_Int_Tables_number      14
_space_group_name_Hall           '-P 2ybc'
loop_
_symmetry_equiv_pos_site_id
_symmetry_equiv_pos_as_xyz
1 x,y,z
2 -x,1/2+y,1/2-z
3 -x,-y,-z
4 x,1/2-y,1/2+z
_cell_length_a                   4.0208(6)
_cell_length_b                   14.651(2)
_cell_length_c                   13.6397(19)
_cell_angle_alpha                90
_cell_angle_beta                 92.991(2)
_cell_angle_gamma                90
_cell_volume                     802.403
loop_
_atom_site_label
_atom_site_type_symbol
_atom_site_fract_x
_atom_site_fract_y
_atom_site_fract_z
Rb1 Rb 0.07395(6) 0.078008(17) 0.693709(17)
O1 O -0.4541(6) -0.07396(13) 0.66224(16)
O2 O -0.1892(7) -0.07837(15) 0.52960(18)
O3 O -0.5607(5) -0.18557(13) 0.39533(12)
O4 O -0.9673(6) -0.32188(17) 0.31799(15)
O5 O -0.7917(7) -0.45231(15) 0.37161(16)
N1 N -0.6186(6) -0.34786(15) 0.64581(15)
N2 N -0.3711(5) -0.11375(15) 0.58740(15)
N3 N -0.8272(6) -0.36917(17) 0.38065(15)
C1 C -0.5188(7) -0.26077(18) 0.65021(18)
H1 H -0.4642 -0.2360 0.7117
C2 C -0.4922(6) -0.20565(16) 0.56942(17)
C3 C -0.5814(6) -0.23395(17) 0.46980(17)
C4 C -0.7000(6) -0.32660(17) 0.47142(17)
C5 C -0.7046(7) -0.37877(19) 0.55524(18)
H2 H -0.7715 -0.4393 0.5488
Rb1_2 Rb -0.92605(6) 0.078008(17) 0.693709(17)
Rb1B Rb -0.07395(6) -0.078008(17) 0.306291(17)
Rb1B_2 Rb -1.07395(6) -0.078008(17) 0.306291(17)
Rb1C Rb -0.92605(6) -0.578008(17) 0.193709(17)
Rb1A Rb -1.07395(6) -0.421992(17) 0.806291(17)
Rb1A_2 Rb -0.07395(6) -0.421992(17) 0.806291(17)
O1_2 O 0.5459(6) -0.07396(13) 0.66224(16)
O2B O 0.1892(7) 0.07837(15) 0.47040(18)
O3B O -0.4393(5) 0.18557(13) 0.60467(12)
O3B_2 O 0.5607(5) 0.18557(13) 0.60467(12)
O4B O -0.0327(6) 0.32188(17) 0.68201(15)
O5C O 0.2083(7) -0.04769(15) 0.87161(16)
N1A N -0.3814(6) 0.15214(15) 0.85419(15)
N1A_2 N 0.6186(6) 0.15214(15) 0.85419(15)
loop_
_geom_bond_atom_site_label_1
_geom_bond_atom_site_label_2
_geom_bond_site_symmetry_1
_geom_bond_site_symmetry_2
Rb1 O1 1_555 1_555
O1 N2 1_555 1_555
O2 Rb1 1_555 1_555
O3 C3 1_555 1_555
O4 N3 1_555 1_555
O5 N3 1_555 1_555
N1 C1 1_555 1_555
N2 O2 1_555 1_555
N3 C4 1_555 1_555
C1 H1 1_555 1_555
C2 N2 1_555 1_555
C3 C2 1_555 1_555
C4 C3 1_555 1_555
C5 N1 1_555 1_555
H2 C5 1_555 1_555
Rb1_2 O1 1_555 1_555
Rb1B O2 1_555 1_555
Rb1B_2 O3 1_555 1_555
Rb1C O5 1_555 1_555
Rb1A N1 1_555 1_555
Rb1A_2 N1 1_555 1_555
O1_2 Rb1 1_555 1_555
O2B Rb1 1_555 1_555
O3B Rb1 1_555 1_555
O3B_2 Rb1 1_555 1_555
O4B Rb1 1_555 1_555
O5C Rb1 1_555 1_555
N1A Rb1 1_555 1_555
N1A_2 Rb1 1_555 1_555
O3 Rb1B 1_555 1_555
O4 Rb1B_2 1_555 1_555
C1 C2 1_555 1_555
C4 C5 1_555 1_555
Rb1_2 O3B 1_555 1_555
Rb1_2 N1A 1_555 1_555
Rb1B O2B 1_555 1_555

#END
