
#######################################################################
#
#                 Cambridge Crystallographic Data Centre
#                                CCDC 
#
#######################################################################
#
# If this CIF has been generated from an entry in the Cambridge 
# Structural Database, then it will include bibliographic, chemical, 
# crystal, experimental, refinement or atomic coordinate data resulting 
# from the CCDC's data processing and validation procedures.
#
#######################################################################

data_DOCHIN
_symmetry_cell_setting           monoclinic
_symmetry_space_group_name_H-M   'P 21/n'
_symmetry_Int_Tables_number      14
_space_group_name_Hall           '-P 2yn'
loop_
_symmetry_equiv_pos_site_id
_symmetry_equiv_pos_as_xyz
1 x,y,z
2 1/2-x,1/2+y,1/2-z
3 -x,-y,-z
4 1/2+x,1/2-y,1/2+z
_cell_length_a                   4.7828(6)
_cell_length_b                   20.297(3)
_cell_length_c                   9.4790(13)
_cell_angle_alpha                90
_cell_angle_beta                 95.5730(10)
_cell_angle_gamma                90
_cell_volume                     915.839
loop_
_atom_site_label
_atom_site_type_symbol
_atom_site_fract_x
_atom_site_fract_y
_atom_site_fract_z
Cs1 Cs -0.39793(3) 0.811084(6) 0.871163(13)
O1 O -0.9151(3) 0.79876(9) 1.1164(2)
O2 O -0.8936(3) 0.70415(8) 0.90020(17)
O3 O -0.4722(4) 0.68969(8) 1.10933(19)
O4 O -0.2031(4) 0.60534(8) 1.10295(17)
O5 O -0.3019(4) 0.44946(9) 0.7339(2)
O6 O -0.6712(4) 0.44973(9) 0.58403(18)
N1 N -0.4037(3) 0.63851(9) 1.05275(17)
N2 N -0.5240(4) 0.47439(9) 0.68396(19)
N3 N -0.9393(3) 0.62317(9) 0.73632(18)
C1 C -0.8019(4) 0.65121(10) 0.8576(2)
C2 C -0.8493(4) 0.56816(10) 0.6851(2)
H1 H -0.9473 0.5507 0.6041
C3 C -0.6132(4) 0.53424(10) 0.7459(2)
C4 C -0.4677(4) 0.55861(10) 0.86684(19)
H2 H -0.3102 0.5368 0.9091
C5 C -0.5599(4) 0.61557(10) 0.92349(19)
H3 H -0.851(6) 0.7662(11) 1.079(3)
H4 H -0.782(6) 0.8199(13) 1.155(3)
Cs1_2 Cs -1.39793(3) 0.811084(6) 0.871163(13)
Cs1C Cs -0.89793(3) 0.688916(6) 1.371163(13)
Cs1C_2 Cs 0.10207(3) 0.688916(6) 1.371163(13)
Cs1A Cs -0.10207(3) 0.311084(6) 0.628837(13)
Cs1A_2 Cs -1.10207(3) 0.311084(6) 0.628837(13)
Cs1C_3 Cs -0.89793(3) 0.688916(6) 0.371163(13)
O1_2 O 0.0849(3) 0.79876(9) 1.1164(2)
O1C O -0.4151(3) 0.70124(9) 0.6164(2)
O2_2 O 0.1064(3) 0.70415(8) 0.90020(17)
O3C O -0.9722(4) 0.81031(8) 0.60933(19)
O3C_2 O 0.0278(4) 0.81031(8) 0.60933(19)
O4C O -0.7031(4) 0.89466(8) 0.60295(17)
O5A O -0.1981(4) 0.94946(9) 0.7661(2)
O6A O -0.8288(4) 0.94973(9) 0.91597(18)
N3C N -0.4393(3) 0.87683(9) 1.23632(18)
H3_2 H 0.149(6) 0.7662(11) 1.079(3)
H3C H -0.351(6) 0.7338(11) 0.579(3)
H4_2 H 0.218(6) 0.8199(13) 1.155(3)
H4C H -0.282(6) 0.6801(13) 0.655(3)
loop_
_geom_bond_atom_site_label_1
_geom_bond_atom_site_label_2
_geom_bond_site_symmetry_1
_geom_bond_site_symmetry_2
Cs1 O1 1_555 1_555
O1 H3 1_555 1_555
O2 Cs1 1_555 1_555
O3 Cs1 1_555 1_555
O4 N1 1_555 1_555
O5 N2 1_555 1_555
O6 N2 1_555 1_555
N1 O3 1_555 1_555
N2 C3 1_555 1_555
N3 C1 1_555 1_555
C1 O2 1_555 1_555
C2 N3 1_555 1_555
H1 C2 1_555 1_555
C3 C2 1_555 1_555
C4 C3 1_555 1_555
H2 C4 1_555 1_555
C5 N1 1_555 1_555
H4 O1 1_555 1_555
Cs1_2 O1 1_555 1_555
Cs1C O1 1_555 1_555
Cs1C_2 O3 1_555 1_555
Cs1A O5 1_555 1_555
Cs1A_2 O6 1_555 1_555
Cs1C_3 N3 1_555 1_555
O1_2 Cs1 1_555 1_555
O1C Cs1 1_555 1_555
O2_2 Cs1 1_555 1_555
O3C Cs1 1_555 1_555
O3C_2 Cs1 1_555 1_555
O4C Cs1 1_555 1_555
O5A Cs1 1_555 1_555
O6A Cs1 1_555 1_555
N3C Cs1 1_555 1_555
H3_2 O1_2 1_555 1_555
H3C O1C 1_555 1_555
H4_2 O1_2 1_555 1_555
H4C O1C 1_555 1_555
O2 Cs1_2 1_555 1_555
O3 Cs1C 1_555 1_555
O4 Cs1C_2 1_555 1_555
C1 C5 1_555 1_555
C4 C5 1_555 1_555
Cs1_2 O3C 1_555 1_555
Cs1C_2 O1_2 1_555 1_555
Cs1C_3 O1C 1_555 1_555
Cs1C_3 O3C 1_555 1_555

#END
