
#######################################################################
#
#                 Cambridge Crystallographic Data Centre
#                                CCDC 
#
#######################################################################
#
# If this CIF has been generated from an entry in the Cambridge 
# Structural Database, then it will include bibliographic, chemical, 
# crystal, experimental, refinement or atomic coordinate data resulting 
# from the CCDC's data processing and validation procedures.
#
#######################################################################

data_DOCJEL
_symmetry_cell_setting           monoclinic
_symmetry_space_group_name_H-M   'C 2/c'
_symmetry_Int_Tables_number      15
_space_group_name_Hall           '-C 2yn'
loop_
_symmetry_equiv_pos_site_id
_symmetry_equiv_pos_as_xyz
1 x,y,z
2 1/2+x,1/2+y,z
3 -x,y,1/2-z
4 1/2-x,1/2+y,1/2-z
5 -x,-y,-z
6 1/2-x,1/2-y,-z
7 x,-y,1/2+z
8 1/2+x,1/2-y,1/2+z
_cell_length_a                   18.9211(15)
_cell_length_b                   7.7396(6)
_cell_length_c                   15.2842(11)
_cell_angle_alpha                90
_cell_angle_beta                 126.8900(10)
_cell_angle_gamma                90
_cell_volume                     1790.12
loop_
_atom_site_label
_atom_site_type_symbol
_atom_site_fract_x
_atom_site_fract_y
_atom_site_fract_z
Cs1 Cs 0.019540(12) 0.25560(2) 0.565617(16)
O1 O -0.14107(15) 0.1009(3) 0.33286(18)
O2 O -0.27126(18) 0.2101(4) 0.2264(2)
O3 O -0.36585(13) 0.0129(3) 0.03362(18)
O4 O -0.39778(19) -0.1802(4) -0.1488(2)
O5 O -0.36987(18) 0.0194(4) -0.2218(2)
O6 O -0.05158(13) 0.0764(3) 0.09376(18)
N1 N -0.20859(16) 0.1335(3) 0.2412(2)
N2 N -0.35529(17) -0.0577(3) -0.1422(2)
N3 N -0.12816(15) 0.0636(3) 0.07987(19)
C1 C -0.13244(18) 0.0931(4) 0.1632(2)
H1 H -0.0813 0.1203 0.2320
C2 C -0.21181(18) 0.0834(4) 0.1477(2)
C3 C -0.29405(19) 0.0290(4) 0.0483(2)
C4 C -0.2803(2) -0.0011(4) -0.0338(2)
C5 C -0.2023(2) 0.0177(4) -0.0183(2)
H2 H -0.1999 -0.0015 -0.0765
Cs1D Cs -0.019540(12) -0.25560(2) 0.434383(16)
Cs1D_2 Cs -0.019540(12) 0.74440(2) 0.434383(16)
Cs1G Cs -0.480460(12) 0.24440(2) 0.065617(16)
Cs1C Cs -0.519540(12) -0.24440(2) -0.065617(16)
Cs1A Cs -0.480460(12) -0.24440(2) -0.434383(16)
Cs1F Cs 0.019540(12) -0.25560(2) 0.065617(16)
Cs1B Cs -0.019540(12) 0.25560(2) -0.065617(16)
O1D O 0.14107(15) -0.1009(3) 0.66714(18)
O2G O 0.22874(18) 0.2899(4) 0.7264(2)
O3G O 0.13415(13) 0.4871(3) 0.53362(18)
O3C O -0.13415(13) 0.5129(3) 0.46638(18)
O4A O 0.10222(19) 0.3198(4) 0.8512(2)
O4C O -0.10222(19) 0.3198(4) 0.6488(2)
O5A O 0.13013(18) 0.5194(4) 0.7782(2)
O6F O -0.05158(13) -0.0764(3) 0.59376(18)
O6B O 0.05158(13) 0.0764(3) 0.40624(18)
loop_
_geom_bond_atom_site_label_1
_geom_bond_atom_site_label_2
_geom_bond_site_symmetry_1
_geom_bond_site_symmetry_2
Cs1 O1 1_555 1_555
O1 N1 1_555 1_555
O2 N1 1_555 1_555
O3 C3 1_555 1_555
O4 N2 1_555 1_555
O5 N2 1_555 1_555
O6 N3 1_555 1_555
N1 C2 1_555 1_555
N2 C4 1_555 1_555
N3 C1 1_555 1_555
C1 H1 1_555 1_555
C2 C1 1_555 1_555
C3 C2 1_555 1_555
C4 C3 1_555 1_555
C5 N3 1_555 1_555
H2 C5 1_555 1_555
Cs1D O1 1_555 1_555
Cs1D_2 O3G 1_555 1_555
Cs1G O2 1_555 1_555
Cs1C O3 1_555 1_555
Cs1A O4 1_555 1_555
Cs1F O6 1_555 1_555
Cs1B O6 1_555 1_555
O1D Cs1 1_555 1_555
O2G Cs1 1_555 1_555
O3G Cs1 1_555 1_555
O3C Cs1 1_555 1_555
O4A Cs1 1_555 1_555
O4C Cs1 1_555 1_555
O5A Cs1 1_555 1_555
O6F Cs1 1_555 1_555
O6B Cs1 1_555 1_555
O3 Cs1G 1_555 1_555
O4 Cs1C 1_555 1_555
O5 Cs1A 1_555 1_555
C4 C5 1_555 1_555
Cs1D O1D 1_555 1_555
Cs1D O6F 1_555 1_555
Cs1D O6B 1_555 1_555
Cs1D_2 O3C 1_555 1_555

#END
