
#######################################################################
#
#                 Cambridge Crystallographic Data Centre
#                                CCDC 
#
#######################################################################
#
# If this CIF has been generated from an entry in the Cambridge 
# Structural Database, then it will include bibliographic, chemical, 
# crystal, experimental, refinement or atomic coordinate data resulting 
# from the CCDC's data processing and validation procedures.
#
#######################################################################

data_DOCNIT
_symmetry_cell_setting           monoclinic
_symmetry_space_group_name_H-M   'P 21/n'
_symmetry_Int_Tables_number      14
_space_group_name_Hall           '-P 2yn'
loop_
_symmetry_equiv_pos_site_id
_symmetry_equiv_pos_as_xyz
1 x,y,z
2 1/2-x,1/2+y,1/2-z
3 -x,-y,-z
4 1/2+x,1/2-y,1/2+z
_cell_length_a                   15.1684(4)
_cell_length_b                   28.3635(6)
_cell_length_c                   23.0544(6)
_cell_angle_alpha                90
_cell_angle_beta                 106.297(2)
_cell_angle_gamma                90
_cell_volume                     9520.14
loop_
_atom_site_label
_atom_site_type_symbol
_atom_site_fract_x
_atom_site_fract_y
_atom_site_fract_z
Ag1 Ag 1.15322(3) -0.117617(13) 0.21148(2)
Ag2 Ag 1.02455(3) -0.041822(12) 0.187778(18)
Ag3 Ag 1.00367(3) 0.033537(12) 0.315922(17)
Ag4 Ag 0.85167(3) 0.098204(13) 0.304924(19)
Ag5 Ag 1.05586(3) 0.031999(13) 0.477680(18)
Ag6 Ag 0.95185(3) -0.035321(13) 0.021865(19)
C1 C 1.1846(4) -0.03796(16) 0.3062(3)
C2 C 1.2284(3) -0.01731(17) 0.3691(3)
H1 H 1.2346 0.0172 0.3650
H2 H 1.1858 -0.0225 0.3941
C3 C 1.3506(4) -0.0129(2) 0.4630(3)
H3 H 1.3021 -0.0163 0.4832
H4 H 1.3611 0.0207 0.4571
H5 H 1.4074 -0.0272 0.4880
C4 C 1.3939(4) -0.0269(2) 0.3705(3)
H6 H 1.3976 0.0072 0.3647
H7 H 1.3769 -0.0426 0.3311
H8 H 1.4537 -0.0386 0.3947
C5 C 1.3183(4) -0.08907(16) 0.4115(3)
H9 H 1.3777 -0.1002 0.4370
H10 H 1.3043 -0.1048 0.3721
H11 H 1.2703 -0.0965 0.4310
C6 C 0.9712(4) -0.13190(17) 0.1163(2)
C7 C 0.9168(4) -0.16189(17) 0.0630(3)
H12 H 0.8507 -0.1564 0.0580
H13 H 0.9304 -0.1500 0.0261
C8 C 0.8741(4) -0.2348(2) 0.0073(3)
H14 H 0.8092 -0.2281 0.0033
H15 H 0.8833 -0.2690 0.0073
H16 H 0.8915 -0.2207 -0.0266
C9 C 1.0303(4) -0.2260(2) 0.0698(3)
H17 H 1.0487 -0.2091 0.0379
H18 H 1.0360 -0.2600 0.0645
H19 H 1.0700 -0.2165 0.1094
C10 C 0.9051(4) -0.23580(19) 0.1177(3)
H20 H 0.9475 -0.2253 0.1560
H21 H 0.9073 -0.2702 0.1150
H22 H 0.8426 -0.2259 0.1159
C11 C 1.0444(4) 0.12583(17) 0.3820(2)
C12 C 1.0973(4) 0.15971(16) 0.4309(2)
H23 H 1.0893 0.1492 0.4700
H24 H 1.1635 0.1569 0.4337
C13 C 1.1314(5) 0.2366(2) 0.4769(3)
H25 H 1.1141 0.2700 0.4750
H26 H 1.1958 0.2338 0.4770
H27 H 1.1233 0.2226 0.5139
C14 C 0.9740(4) 0.21939(19) 0.4209(3)
H28 H 0.9608 0.2034 0.4553
H29 H 0.9337 0.2068 0.3832
H30 H 0.9632 0.2533 0.4233
C15 C 1.0899(4) 0.23115(18) 0.3670(3)
H31 H 1.0504 0.2156 0.3311
H32 H 1.1545 0.2258 0.3688
H33 H 1.0773 0.2651 0.3648
C16 C 0.8373(4) 0.02308(16) 0.2022(2)
C17 C 0.7945(4) 0.00214(19) 0.1392(3)
H34 H 0.8400 0.0044 0.1158
H35 H 0.7825 -0.0318 0.1438
C18 C 0.7185(4) 0.07731(17) 0.0931(3)
H36 H 0.7686 0.0815 0.0744
H37 H 0.7337 0.0936 0.1321
H38 H 0.6617 0.0905 0.0665
C19 C 0.6306(4) 0.0179(2) 0.1313(3)
H39 H 0.5730 0.0304 0.1050
H40 H 0.6455 0.0342 0.1703
H41 H 0.6238 -0.0160 0.1376
C20 C 0.6797(4) 0.00273(19) 0.0414(3)
H42 H 0.6730 -0.0313 0.0458
H43 H 0.7280 0.0088 0.0216
H44 H 0.6215 0.0159 0.0168
C21 C 1.0179(4) 0.05647(18) 0.0987(3)
C22 C 1.0165(4) 0.08300(19) 0.1557(3)
H45 H 0.9516 0.0888 0.1545
H46 H 1.0432 0.0623 0.1908
C23 C 1.1667(4) 0.1237(2) 0.1729(3)
H47 H 1.1929 0.1008 0.2050
H48 H 1.1978 0.1541 0.1833
H49 H 1.1750 0.1124 0.1347
C24 C 1.0257(4) 0.16431(18) 0.1176(3)
H50 H 1.0340 0.1530 0.0793
H51 H 1.0564 0.1949 0.1278
H52 H 0.9600 0.1679 0.1137
C25 C 1.0535(4) 0.14799(19) 0.2245(3)
H53 H 0.9879 0.1529 0.2196
H54 H 1.0863 0.1780 0.2348
H55 H 1.0778 0.1251 0.2569
C26 C 0.9714(4) -0.05755(18) 0.4026(3)
C27 C 0.9652(4) -0.08574(19) 0.3448(3)
H56 H 0.9399 -0.0646 0.3099
H57 H 1.0284 -0.0941 0.3446
C28 C 0.9140(4) -0.1503(2) 0.2757(3)
H58 H 0.9784 -0.1559 0.2773
H59 H 0.8868 -0.1280 0.2431
H60 H 0.8801 -0.1801 0.2681
C29 C 0.8109(4) -0.1195(2) 0.3303(4)
H61 H 0.7890 -0.0941 0.3009
H62 H 0.8057 -0.1096 0.3699
H63 H 0.7735 -0.1478 0.3171
C30 C 0.9469(5) -0.16582(19) 0.3832(3)
H64 H 0.9092 -0.1944 0.3750
H65 H 0.9462 -0.1528 0.4224
H66 H 1.0102 -0.1735 0.3839
C31 C 1.3920(5) -0.1686(2) 0.2716(3)
C32 C 1.1269(4) -0.24770(19) 0.3267(3)
C33 C 0.8731(4) 0.2564(2) 0.1773(4)
C34 C 0.6189(5) 0.1642(2) 0.2293(4)
C35 C 0.6386(5) 0.0214(2) 0.3448(4)
C36 C 0.7464(5) 0.1415(2) 0.4440(3)
C41 C 1.2985(5) -0.1231(2) 0.0659(3)
C42 C 1.3486(6) -0.0050(2) 0.1682(4)
F1 F 1.3624(3) -0.12680(12) 0.2492(2)
F2 F 1.4577(3) -0.18266(14) 0.2480(2)
F3 F 1.4271(3) -0.16420(16) 0.3305(2)
F4 F 1.1692(3) -0.28652(12) 0.3186(2)
F5 F 1.0955(3) -0.25327(13) 0.3749(2)
F6 F 1.0558(3) -0.24059(12) 0.2786(2)
F7 F 0.9330(3) 0.25167(14) 0.1449(3)
F8 F 0.9179(3) 0.24649(14) 0.2334(2)
F9 F 0.8466(3) 0.30011(12) 0.1727(2)
F10 F 0.6393(3) 0.12889(14) 0.1988(3)
F11 F 0.6075(4) 0.14504(19) 0.2798(3)
F12 F 0.5423(3) 0.18210(17) 0.1997(3)
F13 F 0.6021(3) -0.02104(16) 0.3287(3)
F14 F 0.5976(3) 0.04155(18) 0.3816(3)
F15 F 0.6229(3) 0.04657(17) 0.2941(3)
F16 F 0.7448(3) 0.16894(14) 0.3976(2)
F17 F 0.6653(3) 0.12482(17) 0.4392(2)
F18 F 0.7718(3) 0.16777(14) 0.4940(2)
F31 F 1.3567(3) -0.09008(13) 0.05743(19)
F32 F 1.2818(3) -0.15224(14) 0.0193(2)
F33 F 1.3368(3) -0.14527(15) 0.1159(2)
F34 F 1.4038(3) -0.01624(19) 0.1347(3)
F35 F 1.3774(3) -0.02973(17) 0.2198(3)
F36 F 1.3698(4) 0.03985(15) 0.1851(3)
N1 N 1.3220(3) -0.03706(14) 0.4030(2)
N2 N 0.9328(3) -0.21428(15) 0.0660(2)
N3 N 1.0712(3) 0.21117(15) 0.4226(2)
N4 N 0.7052(3) 0.02544(15) 0.1027(2)
N5 N 1.0667(3) 0.12956(14) 0.1667(2)
N6 N 0.9088(3) -0.13017(14) 0.3347(2)
N7 N 1.2213(3) -0.18750(15) 0.2756(2)
N8 N 0.7110(4) 0.2298(2) 0.1883(3)
N9 N 0.7979(3) 0.06776(16) 0.3875(2)
N12 N 1.2137(4) -0.06577(17) 0.1262(3)
O1 O 1.2257(3) -0.06781(12) 0.28444(18)
O2 O 1.1051(3) -0.02153(13) 0.28168(17)
O3 O 1.0184(3) -0.15160(12) 0.16270(19)
O4 O 0.9588(3) -0.08830(12) 0.10846(17)
O5 O 1.0698(3) 0.08294(12) 0.39149(17)
O6 O 0.9843(3) 0.14052(12) 0.33737(18)
O7 O 0.9140(3) 0.00446(12) 0.22859(17)
O8 O 0.7991(3) 0.05615(13) 0.22031(18)
O9 O 0.9800(3) 0.01612(12) 0.09627(17)
O10 O 1.0489(3) 0.07483(12) 0.05932(18)
O11 O 1.0143(3) -0.01956(12) 0.40335(17)
O12 O 0.9371(3) -0.07339(12) 0.44095(17)
O13 O 1.2700(4) -0.21304(17) 0.1893(2)
O14 O 1.3376(3) -0.25361(14) 0.2860(2)
O15 O 1.1467(3) -0.15862(13) 0.3496(2)
O16 O 1.2816(3) -0.20926(16) 0.3878(2)
O17 O 0.8197(3) 0.16939(17) 0.1615(3)
O18 O 0.7371(4) 0.2291(3) 0.0892(3)
O19 O 0.7900(3) 0.18107(15) 0.2825(2)
O20 O 0.6770(4) 0.24140(16) 0.2834(3)
O21 O 0.7952(3) -0.00639(15) 0.3328(2)
O22 O 0.7685(3) -0.01094(14) 0.4322(2)
O23 O 0.9151(3) 0.11888(14) 0.4539(2)
O24 O 0.8273(3) 0.06765(14) 0.5029(2)
O33 O 1.1339(4) -0.13413(18) 0.0732(3)
O34 O 1.1627(3) -0.06875(17) 0.0112(2)
O35 O 1.2180(4) 0.01391(15) 0.0743(2)
O36 O 1.1856(3) 0.00862(16) 0.1742(2)
S1 S 1.29866(11) -0.21233(4) 0.25355(7)
S2 S 1.20361(10) -0.19597(4) 0.33982(7)
S3 S 0.77700(11) 0.21511(6) 0.14910(8)
S4 S 0.71212(12) 0.20703(5) 0.25017(7)
S5 S 0.83218(10) 0.09428(4) 0.45127(6)
S6 S 0.76196(11) 0.01474(5) 0.37875(7)
S11 S 1.18901(11) -0.09533(5) 0.06608(9)
S12 S 1.22900(12) -0.01059(5) 0.13063(8)
Ag5B Ag 0.94414(3) -0.031999(13) 0.522320(18)
Ag6B Ag 1.04815(3) 0.035321(13) -0.021865(19)
O10B O 0.9511(3) -0.07483(12) -0.05932(18)
O12B O 1.0629(3) 0.07339(12) 0.55905(17)
C37 C 0.3990(5) 0.1493(2) 0.3253(3)
C38 C 0.3523(5) 0.1270(2) 0.5347(3)
F19 F 0.4837(3) 0.1381(2) 0.3550(2)
F20 F 0.3775(3) 0.12887(16) 0.2712(2)
F21 F 0.3979(4) 0.19617(15) 0.3169(2)
F22 F 0.3985(3) 0.10882(18) 0.5873(2)
F23 F 0.2843(3) 0.09632(15) 0.5078(2)
F24 F 0.3118(3) 0.16595(16) 0.5455(2)
N10 N 0.3567(4) 0.15860(16) 0.4290(3)
O25 O 0.3221(3) 0.08240(14) 0.3680(2)
O26 O 0.2340(3) 0.15443(18) 0.3345(2)
O27 O 0.4637(3) 0.09176(15) 0.4810(2)
O28 O 0.4887(4) 0.17271(17) 0.5171(3)
S7 S 0.31837(10) 0.13273(4) 0.36668(7)
S8 S 0.42694(11) 0.13690(5) 0.48687(7)
C39 C 0.1259(6) 0.6294(2) 0.4519(4)
C40 C 0.1200(5) 0.6477(3) 0.6675(3)
F25 F 0.0714(4) 0.6352(2) 0.3965(2)
F26 F 0.1757(4) 0.5925(2) 0.4516(3)
F27 F 0.1776(4) 0.66753(18) 0.4645(3)
F28 F 0.1595(4) 0.6767(2) 0.7119(2)
F29 F 0.0349(3) 0.66325(17) 0.6433(2)
F30 F 0.1137(4) 0.60633(19) 0.6919(3)
N11 N 0.1306(4) 0.60897(17) 0.5652(3)
O29 O 0.0033(3) 0.58105(18) 0.4834(3)
O30 O 0.0081(4) 0.66510(19) 0.5058(3)
O31 O 0.2689(3) 0.62281(18) 0.6460(2)
O32 O 0.1877(3) 0.69221(16) 0.5928(3)
S9 S 0.05461(11) 0.62279(5) 0.50535(8)
S10 S 0.18496(11) 0.64476(5) 0.61345(7)
loop_
_geom_bond_atom_site_label_1
_geom_bond_atom_site_label_2
_geom_bond_site_symmetry_1
_geom_bond_site_symmetry_2
Ag1 N7 1_555 1_555
Ag2 O2 1_555 1_555
Ag3 O2 1_555 1_555
Ag4 N9 1_555 1_555
Ag5 O5 1_555 1_555
Ag6 O4 1_555 1_555
C1 C2 1_555 1_555
C2 H1 1_555 1_555
H2 C2 1_555 1_555
C3 H3 1_555 1_555
H4 C3 1_555 1_555
H5 C3 1_555 1_555
C4 H6 1_555 1_555
H7 C4 1_555 1_555
H8 C4 1_555 1_555
C5 H9 1_555 1_555
H10 C5 1_555 1_555
H11 C5 1_555 1_555
C6 C7 1_555 1_555
C7 H12 1_555 1_555
H13 C7 1_555 1_555
C8 H14 1_555 1_555
H15 C8 1_555 1_555
H16 C8 1_555 1_555
C9 H17 1_555 1_555
H18 C9 1_555 1_555
H19 C9 1_555 1_555
C10 H20 1_555 1_555
H21 C10 1_555 1_555
H22 C10 1_555 1_555
C11 C12 1_555 1_555
C12 H23 1_555 1_555
H24 C12 1_555 1_555
C13 H25 1_555 1_555
H26 C13 1_555 1_555
H27 C13 1_555 1_555
C14 H28 1_555 1_555
H29 C14 1_555 1_555
H30 C14 1_555 1_555
C15 H31 1_555 1_555
H32 C15 1_555 1_555
H33 C15 1_555 1_555
C16 C17 1_555 1_555
C17 H34 1_555 1_555
H35 C17 1_555 1_555
C18 H36 1_555 1_555
H37 C18 1_555 1_555
H38 C18 1_555 1_555
C19 H39 1_555 1_555
H40 C19 1_555 1_555
H41 C19 1_555 1_555
C20 H42 1_555 1_555
H43 C20 1_555 1_555
H44 C20 1_555 1_555
C21 C22 1_555 1_555
C22 H45 1_555 1_555
H46 C22 1_555 1_555
C23 H47 1_555 1_555
H48 C23 1_555 1_555
H49 C23 1_555 1_555
C24 H50 1_555 1_555
H51 C24 1_555 1_555
H52 C24 1_555 1_555
C25 H53 1_555 1_555
H54 C25 1_555 1_555
H55 C25 1_555 1_555
C26 C27 1_555 1_555
C27 H56 1_555 1_555
H57 C27 1_555 1_555
C28 H58 1_555 1_555
H59 C28 1_555 1_555
H60 C28 1_555 1_555
C29 H61 1_555 1_555
H62 C29 1_555 1_555
H63 C29 1_555 1_555
C30 H64 1_555 1_555
H65 C30 1_555 1_555
H66 C30 1_555 1_555
C31 F1 1_555 1_555
C32 F4 1_555 1_555
C33 F7 1_555 1_555
C34 F10 1_555 1_555
C35 F13 1_555 1_555
C36 F16 1_555 1_555
C37 F19 1_555 1_555
C38 F22 1_555 1_555
C39 F25 1_555 1_555
C40 F28 1_555 1_555
C41 F31 1_555 1_555
C42 F34 1_555 1_555
F2 C31 1_555 1_555
F3 C31 1_555 1_555
F5 C32 1_555 1_555
F6 C32 1_555 1_555
F8 C33 1_555 1_555
F9 C33 1_555 1_555
F11 C34 1_555 1_555
F12 C34 1_555 1_555
F14 C35 1_555 1_555
F15 C35 1_555 1_555
F17 C36 1_555 1_555
F18 C36 1_555 1_555
F20 C37 1_555 1_555
F21 C37 1_555 1_555
F23 C38 1_555 1_555
F24 C38 1_555 1_555
F26 C39 1_555 1_555
F27 C39 1_555 1_555
F29 C40 1_555 1_555
F30 C40 1_555 1_555
F32 C41 1_555 1_555
F33 C41 1_555 1_555
F35 C42 1_555 1_555
F36 C42 1_555 1_555
N1 C2 1_555 1_555
N2 C7 1_555 1_555
N3 C12 1_555 1_555
N4 C17 1_555 1_555
N5 C22 1_555 1_555
N6 C27 1_555 1_555
N7 S1 1_555 1_555
N8 S3 1_555 1_555
N9 S5 1_555 1_555
N10 S7 1_555 1_555
N11 S9 1_555 1_555
N12 Ag1 1_555 1_555
O1 Ag1 1_555 1_555
O2 C1 1_555 1_555
O3 Ag1 1_555 1_555
O4 Ag2 1_555 1_555
O5 Ag3 1_555 1_555
O6 Ag4 1_555 1_555
O7 Ag2 1_555 1_555
O8 Ag4 1_555 1_555
O9 Ag2 1_555 1_555
O10 C21 1_555 1_555
O11 Ag3 1_555 1_555
O12 C26 1_555 1_555
O13 S1 1_555 1_555
O14 S1 1_555 1_555
O15 S2 1_555 1_555
O16 S2 1_555 1_555
O17 S3 1_555 1_555
O18 S3 1_555 1_555
O19 Ag4 1_555 1_555
O20 S4 1_555 1_555
O21 S6 1_555 1_555
O22 S6 1_555 1_555
O23 S5 1_555 1_555
O24 S5 1_555 1_555
O25 S7 1_555 1_555
O26 S7 1_555 1_555
O27 S8 1_555 1_555
O28 S8 1_555 1_555
O29 S9 1_555 1_555
O30 S9 1_555 1_555
O31 S10 1_555 1_555
O32 S10 1_555 1_555
O33 S11 1_555 1_555
O34 S11 1_555 1_555
O35 S12 1_555 1_555
O36 S12 1_555 1_555
S1 C31 1_555 1_555
S2 C32 1_555 1_555
S3 C33 1_555 1_555
S4 C34 1_555 1_555
S5 C36 1_555 1_555
S6 C35 1_555 1_555
S7 C37 1_555 1_555
S8 C38 1_555 1_555
S9 C39 1_555 1_555
S10 C40 1_555 1_555
S11 C41 1_555 1_555
S12 C42 1_555 1_555
Ag5B O12 1_555 1_555
Ag6B O10 1_555 1_555
O10B Ag6 1_555 1_555
O12B Ag5 1_555 1_555
Ag3 O7 1_555 1_555
Ag5 O11 1_555 1_555
Ag6 O9 1_555 1_555
C1 O1 1_555 1_555
C3 N1 1_555 1_555
C4 N1 1_555 1_555
C5 N1 1_555 1_555
C6 O3 1_555 1_555
C6 O4 1_555 1_555
C8 N2 1_555 1_555
C9 N2 1_555 1_555
C10 N2 1_555 1_555
C11 O5 1_555 1_555
C11 O6 1_555 1_555
C13 N3 1_555 1_555
C14 N3 1_555 1_555
C15 N3 1_555 1_555
C16 O7 1_555 1_555
C16 O8 1_555 1_555
C18 N4 1_555 1_555
C19 N4 1_555 1_555
C20 N4 1_555 1_555
C21 O9 1_555 1_555
C23 N5 1_555 1_555
C24 N5 1_555 1_555
C25 N5 1_555 1_555
C26 O11 1_555 1_555
C28 N6 1_555 1_555
C29 N6 1_555 1_555
C30 N6 1_555 1_555
N7 S2 1_555 1_555
N8 S4 1_555 1_555
N9 S6 1_555 1_555
N10 S8 1_555 1_555
N11 S10 1_555 1_555
N12 S11 1_555 1_555
N12 S12 1_555 1_555
O19 S4 1_555 1_555

#END
