
#######################################################################
#
#                 Cambridge Crystallographic Data Centre
#                                CCDC 
#
#######################################################################
#
# If this CIF has been generated from an entry in the Cambridge 
# Structural Database, then it will include bibliographic, chemical, 
# crystal, experimental, refinement or atomic coordinate data resulting 
# from the CCDC's data processing and validation procedures.
#
#######################################################################

data_DOCPUH
_symmetry_cell_setting           monoclinic
_symmetry_space_group_name_H-M   'C 2/c'
_symmetry_Int_Tables_number      15
_space_group_name_Hall           '-C 2yn'
loop_
_symmetry_equiv_pos_site_id
_symmetry_equiv_pos_as_xyz
1 x,y,z
2 1/2+x,1/2+y,z
3 -x,y,1/2-z
4 1/2-x,1/2+y,1/2-z
5 -x,-y,-z
6 1/2-x,1/2-y,-z
7 x,-y,1/2+z
8 1/2+x,1/2-y,1/2+z
_cell_length_a                   10.0594(6)
_cell_length_b                   21.8172(12)
_cell_length_c                   14.6047(8)
_cell_angle_alpha                90
_cell_angle_beta                 110.1090(10)
_cell_angle_gamma                90
_cell_volume                     3009.87
loop_
_atom_site_label
_atom_site_type_symbol
_atom_site_fract_x
_atom_site_fract_y
_atom_site_fract_z
O12 O 0.14263(16) 0.0860(10) 0.7893(15)
H19 H 0.1418 0.1208 0.7930
H20 H 0.1869 0.0787 0.7500
O13 O 0.0000 0.1975(8) 0.7500
H21 H 0.0700 0.2200 0.7856
H21B H -0.0700 0.2200 0.7144
Ce1 Ce 0.5000 0.112321(16) 0.7500
Zn1 Zn 0.0000 0.0000 0.5000
C1 C 0.2989(5) 0.1517(3) 0.5182(4)
C2 C 0.2550(6) 0.1805(3) 0.4282(4)
H1 H 0.1664 0.1706 0.3803
C3 C 0.3423(7) 0.2240(3) 0.4094(4)
H2 H 0.3136 0.2444 0.3482
C4 C 0.4716(6) 0.2380(2) 0.4798(4)
H3 H 0.5343 0.2667 0.4673
C5 C 0.5065(5) 0.2082(2) 0.5697(3)
C6 C 0.6429(5) 0.2183(2) 0.6543(4)
C7 C 0.2214(6) 0.1017(3) 0.5485(4)
C10 C 0.566(2) -0.1258(7) 0.8072(17)
H5 H 0.5788 -0.1678 0.8172
C11 C 0.5021(19) -0.0912(6) 0.8609(15)
H6 H 0.4756 -0.1088 0.9101
C12 C 0.4740(16) -0.0301(5) 0.8355(14)
C13 C 0.3813(10) 0.0072(3) 0.8652(10)
C14 C 0.231(3) -0.1110(11) 0.537(2)
H7 H 0.2574 -0.1280 0.4837
H8 H 0.1538 -0.1350 0.5452
H9 H 0.3135 -0.1126 0.5977
N1 N 0.4219(4) 0.16639(19) 0.5877(3)
N2 N 0.5000 -0.0021(4) 0.7500
O1 O 0.2832(4) 0.0804(2) 0.6337(3)
O2 O 0.1061(5) 0.0833(3) 0.4900(4)
O3 O 0.6495(4) 0.18830(16) 0.7324(2)
O4 O 0.7352(5) 0.2520(2) 0.6459(3)
O5 O 0.3882(4) 0.06472(19) 0.8501(3)
O7 O 0.308(3) -0.0218(8) 0.900(3)
O8 O 0.0612(9) 0.0146(4) 0.6428(6)
H13 H 0.0385 -0.0140 0.6660
H14 H 0.0146 0.0417 0.6619
O10 O 0.1911(15) -0.0543(6) 0.5178(13)
H17 H 0.2563 -0.0361 0.5037
Zn1F Zn 1.0000 0.0000 1.0000
C1B C 0.7011(5) 0.1517(3) 0.9818(4)
C2B C 0.7450(6) 0.1805(3) 1.0718(4)
H1B H 0.8336 0.1706 1.1197
C3B C 0.6577(7) 0.2240(3) 1.0906(4)
H2B H 0.6864 0.2444 1.1518
C4B C 0.5284(6) 0.2380(2) 1.0202(4)
H3B H 0.4657 0.2667 1.0327
C5B C 0.4935(5) 0.2082(2) 0.9303(3)
C6B C 0.3571(5) 0.2183(2) 0.8457(4)
C7B C 0.7786(6) 0.1017(3) 0.9515(4)
C10B C 0.434(2) -0.1258(7) 0.6928(17)
H5B H 0.4212 -0.1678 0.6828
C11B C 0.4979(19) -0.0912(6) 0.6391(15)
H6B H 0.5244 -0.1088 0.5899
C12B C 0.5260(16) -0.0301(5) 0.6645(14)
C13B C 0.6187(10) 0.0072(3) 0.6348(10)
C14D C -0.231(3) 0.1110(11) 0.463(2)
H7D H -0.2574 0.1280 0.5163
H8D H -0.1538 0.1350 0.4548
H9D H -0.3135 0.1126 0.4023
N1B N 0.5781(4) 0.16639(19) 0.9123(3)
O1B O 0.7168(4) 0.0804(2) 0.8663(3)
O2B O 0.8939(5) 0.0833(3) 1.0100(4)
O2D O -0.1061(5) -0.0833(3) 0.5100(4)
O3B O 0.3505(4) 0.18830(16) 0.7676(2)
O4B O 0.2648(5) 0.2520(2) 0.8541(3)
O5B O 0.6118(4) 0.06472(19) 0.6499(3)
O7B O 0.692(3) -0.0218(8) 0.600(3)
O8D O -0.0612(9) -0.0146(4) 0.3572(6)
H13D H -0.0385 0.0140 0.3340
H14D H -0.0146 -0.0417 0.3381
O10D O -0.1911(15) 0.0543(6) 0.4822(13)
H17D H -0.2563 0.0361 0.4963
C8? C 0.5879(15) -0.0340(5) 0.7247(13)
C9? C 0.6094(19) -0.0965(6) 0.7375(15)
H4? H 0.6559 -0.1180 0.7025
C15? C 0.155(2) -0.1035(9) 0.4673(15)
H10? H 0.2493 -0.1177 0.4704
H11? H 0.0866 -0.1122 0.4026
H12? H 0.1275 -0.1247 0.5170
O6? O 0.353(2) -0.0095(10) 0.948(3)
O9? O 0.0932(10) -0.0169(6) 0.6590(7)
H15? H 0.0697 -0.0402 0.6764
H16? H 0.0658 0.0198 0.6723
O11? O 0.1597(15) -0.0422(6) 0.4839(14)
H18? H 0.1802 -0.0199 0.4505
loop_
_geom_bond_atom_site_label_1
_geom_bond_atom_site_label_2
_geom_bond_site_symmetry_1
_geom_bond_site_symmetry_2
Ce1 N1 1_555 1_555
Zn1 O2 1_555 1_555
C1 C2 1_555 1_555
C2 H1 1_555 1_555
C3 C2 1_555 1_555
H2 C3 1_555 1_555
C4 C3 1_555 1_555
H3 C4 1_555 1_555
C5 C4 1_555 1_555
C6 C5 1_555 1_555
C7 C1 1_555 1_555
C10 H5 1_555 1_555
C11 C10 1_555 1_555
H6 C11 1_555 1_555
C12 C11 1_555 1_555
C13 C12 1_555 1_555
C14 H7 1_555 1_555
H8 C14 1_555 1_555
H9 C14 1_555 1_555
N1 C1 1_555 1_555
N2 Ce1 1_555 1_555
O1 Ce1 1_555 1_555
O2 C7 1_555 1_555
O3 Ce1 1_555 1_555
O4 C6 1_555 1_555
O5 Ce1 1_555 1_555
O7 C13 1_555 1_555
O8 Zn1 1_555 1_555
H13 O8 1_555 1_555
H14 O8 1_555 1_555
O10 Zn1 1_555 1_555
H17 O10 1_555 1_555
O12 H19 1_555 1_555
H20 O12 1_555 1_555
O13 H21 1_555 1_555
Zn1F O2B 1_555 1_555
C1B C2B 1_555 1_555
C2B H1B 1_555 1_555
C3B C2B 1_555 1_555
H2B C3B 1_555 1_555
C4B C3B 1_555 1_555
H3B C4B 1_555 1_555
C5B C4B 1_555 1_555
C6B C5B 1_555 1_555
C7B C1B 1_555 1_555
C10B C10 1_555 1_555
H5B C10B 1_555 1_555
C11B C10B 1_555 1_555
H6B C11B 1_555 1_555
C12B N2 1_555 1_555
C13B C12B 1_555 1_555
C14D H7D 1_555 1_555
H8D C14D 1_555 1_555
H9D C14D 1_555 1_555
N1B Ce1 1_555 1_555
O1B Ce1 1_555 1_555
O2B C7B 1_555 1_555
O2D Zn1 1_555 1_555
O3B Ce1 1_555 1_555
O4B C6B 1_555 1_555
O5B Ce1 1_555 1_555
O7B C13B 1_555 1_555
O8D Zn1 1_555 1_555
H13D O8D 1_555 1_555
H14D O8D 1_555 1_555
O10D Zn1 1_555 1_555
H17D O10D 1_555 1_555
H21B O13 1_555 1_555
C5 N1 1_555 1_555
C6 O3 1_555 1_555
C7 O1 1_555 1_555
C12 N2 1_555 1_555
C13 O5 1_555 1_555
C14 O10 1_555 1_555
C1B N1B 1_555 1_555
C5B N1B 1_555 1_555
C6B O3B 1_555 1_555
C7B O1B 1_555 1_555
C11B C12B 1_555 1_555
C13B O5B 1_555 1_555
C14D O10D 1_555 1_555

#END
