
#######################################################################
#
#                 Cambridge Crystallographic Data Centre
#                                CCDC 
#
#######################################################################
#
# If this CIF has been generated from an entry in the Cambridge 
# Structural Database, then it will include bibliographic, chemical, 
# crystal, experimental, refinement or atomic coordinate data resulting 
# from the CCDC's data processing and validation procedures.
#
#######################################################################

data_DOCPOB
_symmetry_cell_setting           triclinic
_symmetry_space_group_name_H-M   'P -1'
_symmetry_Int_Tables_number      2
_space_group_name_Hall           '-P 1'
loop_
_symmetry_equiv_pos_site_id
_symmetry_equiv_pos_as_xyz
1 x,y,z
2 -x,-y,-z
_cell_length_a                   10.2464(12)
_cell_length_b                   12.5259(14)
_cell_length_c                   13.6442(16)
_cell_angle_alpha                95.145(2)
_cell_angle_beta                 90.464(2)
_cell_angle_gamma                111.482(2)
_cell_volume                     1621.37
loop_
_atom_site_label
_atom_site_type_symbol
_atom_site_fract_x
_atom_site_fract_y
_atom_site_fract_z
Ce1 Ce 0.042041(14) 0.820052(11) 0.231546(10)
Zn1 Zn 0.5000 1.0000 0.5000
Zn2 Zn 0.5000 1.0000 0.0000
C1 C 0.2667(3) 1.0999(2) 0.2735(2)
C2 C 0.3340(3) 1.2165(2) 0.2626(2)
H1 H 0.4167 1.2606 0.2986
C3 C 0.2735(3) 1.2649(2) 0.1960(2)
H2 H 0.3160 1.3425 0.1864
C4 C 0.1496(3) 1.1968(2) 0.1441(2)
H3 H 0.1082 1.2278 0.0992
C5 C 0.0887(3) 1.0815(2) 0.1605(2)
C6 C -0.0463(3) 0.9979(2) 0.1099(2)
C7 C 0.3191(3) 1.0333(2) 0.3405(2)
C8 C -0.0469(3) 0.8008(2) 0.4687(2)
C9 C -0.0516(3) 0.7767(3) 0.5662(2)
H4 H -0.0927 0.8120 0.6127
C10 C 0.0063(3) 0.6991(3) 0.5927(2)
H5 H 0.0041 0.6809 0.6574
C11 C 0.0679(3) 0.6485(2) 0.5217(2)
H6 H 0.1078 0.5962 0.5380
C12 C 0.0687(3) 0.6776(2) 0.4258(2)
C13 C 0.1353(3) 0.6327(2) 0.3413(2)
C14 C -0.1079(3) 0.8823(2) 0.4292(2)
C15 C 0.0951(3) 0.7162(2) 0.0017(2)
C16 C 0.0717(3) 0.6534(2) -0.0904(2)
H7 H 0.1402 0.6708 -0.1370
C17 C -0.0571(3) 0.5639(2) -0.1106(2)
H8 H -0.0767 0.5210 -0.1719
C18 C -0.1569(3) 0.5387(2) -0.0386(2)
H9 H -0.2434 0.4787 -0.0507
C19 C -0.1239(3) 0.6054(2) 0.0517(2)
C20 C -0.2185(3) 0.5870(2) 0.1378(2)
C21 C 0.2279(3) 0.8156(2) 0.0339(2)
N1 N 0.1475(2) 1.03461(19) 0.22329(16)
N2 N 0.0118(2) 0.7522(2) 0.40031(17)
N3 N -0.0006(2) 0.69272(19) 0.07080(18)
O1 O 0.2500(2) 0.92416(16) 0.32983(14)
O2 O 0.4216(2) 1.08467(17) 0.39787(15)
O3 O -0.0763(2) 0.89243(17) 0.12748(15)
O4 O -0.1164(2) 1.03271(18) 0.05702(16)
O5 O -0.0891(2) 0.89572(18) 0.33732(15)
O6 O -0.1693(2) 0.9294(2) 0.48445(17)
O7 O 0.1366(2) 0.68002(17) 0.26126(16)
O8 O 0.1817(3) 0.5566(2) 0.35138(18)
O9 O 0.2298(2) 0.86202(17) 0.12219(15)
O10 O 0.3252(2) 0.84557(17) -0.02330(15)
O11 O -0.1733(2) 0.66294(18) 0.21183(16)
O12 O -0.3281(2) 0.50103(19) 0.13491(18)
O13 O 0.4501(2) 0.84818(17) 0.40259(16)
H10 H 0.5020 0.8698 0.3580
H11 H 0.3781 0.8471 0.3780
O14 O 0.6933(2) 1.07122(18) 0.44391(16)
H12 H 0.7374 1.0305 0.4435
H13 H 0.6983 1.1002 0.3934
O15 O 0.3740(2) 1.09291(17) 0.02605(16)
H14 H 0.2964 1.0631 -0.0007
H15 H 0.4046 1.1602 0.0149
O16 O 0.5095(2) 0.98766(19) 0.15587(16)
H16 H 0.5363 0.9341 0.1498
H17 H 0.4247 0.9486 0.1587
Ce1A Ce 0.957959(14) 1.179948(11) 0.768454(10)
Zn2_2 Zn 0.5000 1.0000 1.0000
C1A C 0.7333(3) 0.9001(2) 0.7265(2)
C2A C 0.6660(3) 0.7835(2) 0.7374(2)
H1A H 0.5833 0.7394 0.7014
C3A C 0.7265(3) 0.7351(2) 0.8040(2)
H2A H 0.6840 0.6575 0.8136
C4A C 0.8504(3) 0.8032(2) 0.8559(2)
H3A H 0.8918 0.7722 0.9008
C5A C 0.9113(3) 0.9185(2) 0.8395(2)
C6A C 1.0463(3) 1.0021(2) 0.8901(2)
C7A C 0.6809(3) 0.9667(2) 0.6595(2)
C8A C 1.0469(3) 1.1992(2) 0.5313(2)
C9A C 1.0516(3) 1.2233(3) 0.4338(2)
H4A H 1.0927 1.1880 0.3873
C10A C 0.9937(3) 1.3009(3) 0.4073(2)
H5A H 0.9959 1.3191 0.3426
C11A C 0.9321(3) 1.3515(2) 0.4783(2)
H6A H 0.8922 1.4038 0.4620
C12A C 0.9313(3) 1.3224(2) 0.5742(2)
C13A C 0.8647(3) 1.3673(2) 0.6587(2)
C14A C 1.1079(3) 1.1177(2) 0.5708(2)
C15A C 0.9049(3) 1.2838(2) 0.9983(2)
C16A C 0.9283(3) 1.3466(2) 1.0904(2)
H7A H 0.8598 1.3292 1.1370
C17A C 1.0571(3) 1.4361(2) 1.1106(2)
H8A H 1.0767 1.4790 1.1719
C18A C 1.1569(3) 1.4613(2) 1.0386(2)
H9A H 1.2434 1.5213 1.0507
C19A C 1.1239(3) 1.3946(2) 0.9483(2)
C20A C 1.2185(3) 1.4130(2) 0.8622(2)
C21A C 0.7721(3) 1.1844(2) 0.9661(2)
N1A N 0.8525(2) 0.96539(19) 0.77671(16)
N2A N 0.9882(2) 1.2478(2) 0.59969(17)
N3A N 1.0006(2) 1.30728(19) 0.92920(18)
O1A O 0.7500(2) 1.07584(16) 0.67017(14)
O2A O 0.5784(2) 0.91533(17) 0.60213(15)
O3A O 1.0763(2) 1.10757(17) 0.87252(15)
O4A O 1.1164(2) 0.96729(18) 0.94298(16)
O5A O 1.0891(2) 1.10428(18) 0.66268(15)
O6A O 1.1693(2) 1.0706(2) 0.51555(17)
O7A O 0.8634(2) 1.31998(17) 0.73874(16)
O8A O 0.8183(3) 1.4434(2) 0.64862(18)
O9A O 0.7702(2) 1.13798(17) 0.87781(15)
O10A O 0.6748(2) 1.15443(17) 1.02330(15)
O10A_2 O 0.6748(2) 1.15443(17) 0.02330(15)
O11A O 1.1733(2) 1.33706(18) 0.78817(16)
O12A O 1.3281(2) 1.49897(19) 0.86509(18)
O13A O 0.5499(2) 1.15182(17) 0.59741(16)
H10A H 0.4980 1.1302 0.6420
H11A H 0.6219 1.1529 0.6220
O14A O 0.3067(2) 0.92878(18) 0.55609(16)
H12A H 0.2626 0.9695 0.5565
H13A H 0.3017 0.8998 0.6066
O15A O 0.6260(2) 0.90709(17) -0.02605(16)
H14A H 0.7036 0.9369 0.0007
H15A H 0.5954 0.8398 -0.0149
O16A O 0.4905(2) 1.01234(19) -0.15587(16)
H16A H 0.4637 1.0659 -0.1498
H17A H 0.5753 1.0514 -0.1587
O17 O 0.7201(2) 0.1753(2) 0.27586(17)
H18 H 0.7120 0.2378 0.2837
H19 H 0.6698 0.1241 0.2318
O18 O 0.4741(3) 0.3221(2) 0.99982(19)
H20 H 0.5304 0.3718 1.0362
H21 H 0.5041 0.3245 0.9450
O19 O 0.6333(3) 0.8600(2) 0.24976(18)
H22 H 0.7204 0.8758 0.2673
H23 H 0.5729 0.7985 0.2259
O20 O 0.3174(3) 0.5081(2) 0.5083(2)
H24 H 0.2816 0.5161 0.4568
H25 H 0.3289 0.4467 0.4986
O21 O 0.5854(3) 0.6735(2) 0.4898(2)
H26 H 0.5047 0.6301 0.5069
H27 H 0.6043 0.7431 0.5016
O22 O 0.7134(4) 0.3930(3) 0.3059(2)
H28 H 0.6837 0.4203 0.3602
H29 H 0.6926 0.4228 0.2592
O23 O 0.3928(4) 0.6688(3) 0.1786(3)
H30 H 0.3091 0.6700 0.1994
H31 H 0.4151 0.6194 0.1970
O24 O 0.5110(7) 0.5577(7) 0.2891(4)
H32 H 0.5608 0.5414 0.2438
H33 H 0.5341 0.6028 0.3404
loop_
_geom_bond_atom_site_label_1
_geom_bond_atom_site_label_2
_geom_bond_site_symmetry_1
_geom_bond_site_symmetry_2
Ce1 N1 1_555 1_555
Zn1 O2 1_555 1_555
Zn2 O10 1_555 1_555
C1 C2 1_555 1_555
C2 H1 1_555 1_555
C3 C2 1_555 1_555
H2 C3 1_555 1_555
C4 C3 1_555 1_555
H3 C4 1_555 1_555
C5 C4 1_555 1_555
C6 C5 1_555 1_555
C7 C1 1_555 1_555
C8 C9 1_555 1_555
C9 H4 1_555 1_555
C10 C9 1_555 1_555
H5 C10 1_555 1_555
C11 C10 1_555 1_555
H6 C11 1_555 1_555
C12 C11 1_555 1_555
C13 C12 1_555 1_555
C14 C8 1_555 1_555
C15 C16 1_555 1_555
C16 H7 1_555 1_555
C17 C16 1_555 1_555
H8 C17 1_555 1_555
C18 C17 1_555 1_555
H9 C18 1_555 1_555
C19 C18 1_555 1_555
C20 C19 1_555 1_555
C21 C15 1_555 1_555
N1 C1 1_555 1_555
N2 Ce1 1_555 1_555
N3 Ce1 1_555 1_555
O1 Ce1 1_555 1_555
O2 C7 1_555 1_555
O3 Ce1 1_555 1_555
O4 C6 1_555 1_555
O5 Ce1 1_555 1_555
O6 C14 1_555 1_555
O7 Ce1 1_555 1_555
O8 C13 1_555 1_555
O9 Ce1 1_555 1_555
O10 C21 1_555 1_555
O11 Ce1 1_555 1_555
O12 C20 1_555 1_555
O13 Zn1 1_555 1_555
H10 O13 1_555 1_555
H11 O13 1_555 1_555
O14 Zn1 1_555 1_555
H12 O14 1_555 1_555
H13 O14 1_555 1_555
O15 Zn2 1_555 1_555
H14 O15 1_555 1_555
H15 O15 1_555 1_555
O16 Zn2 1_555 1_555
H16 O16 1_555 1_555
H17 O16 1_555 1_555
O17 H18 1_555 1_555
H19 O17 1_555 1_555
O18 H20 1_555 1_555
H21 O18 1_555 1_555
O19 H22 1_555 1_555
H23 O19 1_555 1_555
O20 H24 1_555 1_555
H25 O20 1_555 1_555
O21 H26 1_555 1_555
H27 O21 1_555 1_555
O22 H28 1_555 1_555
H29 O22 1_555 1_555
O23 H30 1_555 1_555
H31 O23 1_555 1_555
O24 H32 1_555 1_555
H33 O24 1_555 1_555
Ce1A N1A 1_555 1_555
Zn2_2 O10A 1_555 1_555
C1A C2A 1_555 1_555
C2A H1A 1_555 1_555
C3A C2A 1_555 1_555
H2A C3A 1_555 1_555
C4A C3A 1_555 1_555
H3A C4A 1_555 1_555
C5A C4A 1_555 1_555
C6A C5A 1_555 1_555
C7A C1A 1_555 1_555
C8A C9A 1_555 1_555
C9A H4A 1_555 1_555
C10A C9A 1_555 1_555
H5A C10A 1_555 1_555
C11A C10A 1_555 1_555
H6A C11A 1_555 1_555
C12A C11A 1_555 1_555
C13A C12A 1_555 1_555
C14A C8A 1_555 1_555
C15A C16A 1_555 1_555
C16A H7A 1_555 1_555
C17A C16A 1_555 1_555
H8A C17A 1_555 1_555
C18A C17A 1_555 1_555
H9A C18A 1_555 1_555
C19A C18A 1_555 1_555
C20A C19A 1_555 1_555
C21A C15A 1_555 1_555
N1A C1A 1_555 1_555
N2A Ce1A 1_555 1_555
N3A Ce1A 1_555 1_555
O1A Ce1A 1_555 1_555
O2A Zn1 1_555 1_555
O3A Ce1A 1_555 1_555
O4A C6A 1_555 1_555
O5A Ce1A 1_555 1_555
O6A C14A 1_555 1_555
O7A Ce1A 1_555 1_555
O8A C13A 1_555 1_555
O9A Ce1A 1_555 1_555
O10A C21A 1_555 1_555
O10A_2 Zn2 1_555 1_555
O11A Ce1A 1_555 1_555
O12A C20A 1_555 1_555
O13A Zn1 1_555 1_555
H10A O13A 1_555 1_555
H11A O13A 1_555 1_555
O14A Zn1 1_555 1_555
H12A O14A 1_555 1_555
H13A O14A 1_555 1_555
O15A Zn2 1_555 1_555
H14A O15A 1_555 1_555
H15A O15A 1_555 1_555
O16A Zn2 1_555 1_555
H16A O16A 1_555 1_555
H17A O16A 1_555 1_555
C5 N1 1_555 1_555
C6 O3 1_555 1_555
C7 O1 1_555 1_555
C8 N2 1_555 1_555
C12 N2 1_555 1_555
C13 O7 1_555 1_555
C14 O5 1_555 1_555
C15 N3 1_555 1_555
C19 N3 1_555 1_555
C20 O11 1_555 1_555
C21 O9 1_555 1_555
C5A N1A 1_555 1_555
C6A O3A 1_555 1_555
C7A O1A 1_555 1_555
C7A O2A 1_555 1_555
C8A N2A 1_555 1_555
C12A N2A 1_555 1_555
C13A O7A 1_555 1_555
C14A O5A 1_555 1_555
C15A N3A 1_555 1_555
C19A N3A 1_555 1_555
C20A O11A 1_555 1_555
C21A O9A 1_555 1_555

#END
