
#######################################################################
#
#                 Cambridge Crystallographic Data Centre
#                                CCDC 
#
#######################################################################
#
# If this CIF has been generated from an entry in the Cambridge 
# Structural Database, then it will include bibliographic, chemical, 
# crystal, experimental, refinement or atomic coordinate data resulting 
# from the CCDC's data processing and validation procedures.
#
#######################################################################

data_DOCQAO
_symmetry_cell_setting           monoclinic
_symmetry_space_group_name_H-M   'P 21/c'
_symmetry_Int_Tables_number      14
_space_group_name_Hall           '-P 2ybc'
loop_
_symmetry_equiv_pos_site_id
_symmetry_equiv_pos_as_xyz
1 x,y,z
2 -x,1/2+y,1/2-z
3 -x,-y,-z
4 x,1/2-y,1/2+z
_cell_length_a                   10.3824(13)
_cell_length_b                   22.829(3)
_cell_length_c                   14.3127(18)
_cell_angle_alpha                90
_cell_angle_beta                 110.667(2)
_cell_angle_gamma                90
_cell_volume                     3174.08
loop_
_atom_site_label
_atom_site_type_symbol
_atom_site_fract_x
_atom_site_fract_y
_atom_site_fract_z
Ce1 Ce 0.246441(15) 0.107580(7) 0.737051(11)
Zn1 Zn 0.5000 0.0000 0.5000
Zn2 Zn 0.0000 0.0000 1.0000
C1 C 0.2200(3) 0.14731(14) 0.4996(2)
C2 C 0.1784(4) 0.17607(16) 0.4087(2)
H1 H 0.2163 0.1666 0.3607
C3 C 0.0795(4) 0.21912(17) 0.3908(3)
H2 H 0.0514 0.2397 0.3309
C4 C 0.0217(4) 0.23178(16) 0.4627(3)
H3 H -0.0467 0.2600 0.4513
C5 C 0.0695(4) 0.20092(14) 0.5522(2)
C6 C 0.0155(4) 0.20881(15) 0.6365(3)
C7 C 0.3243(3) 0.09884(14) 0.5301(2)
C8 C 0.4093(4) 0.20402(14) 0.9203(2)
C9 C 0.4522(4) 0.23351(16) 1.0105(3)
H4 H 0.5158 0.2638 1.0227
C10 C 0.3982(4) 0.21692(16) 1.0823(3)
H5 H 0.4252 0.2362 1.1434
C11 C 0.3049(4) 0.17189(15) 1.0630(2)
H6 H 0.2675 0.1605 1.1104
C12 C 0.2677(3) 0.14387(13) 0.9717(2)
C13 C 0.1674(3) 0.09366(13) 0.9396(2)
C14 C 0.4562(4) 0.21701(17) 0.8343(3)
C15 C 0.3580(3) -0.03245(14) 0.7731(2)
C16 C 0.3630(4) -0.09258(16) 0.7643(3)
H7 H 0.4429 -0.1132 0.7990
C17 C 0.2479(4) -0.12136(16) 0.7034(3)
H8 H 0.2486 -0.1619 0.6967
C18 C 0.1304(4) -0.08944(15) 0.6519(3)
H9 H 0.0519 -0.1080 0.6094
C19 C 0.1326(3) -0.02965(13) 0.6653(2)
C20 C 0.0119(3) 0.01025(13) 0.6166(2)
C21 C 0.4762(3) 0.00521(16) 0.8364(2)
C22 C -0.2623(12) 0.1371(4) 1.0181(9)
H10 H -0.2630 0.1574 1.0767
H11 H -0.3551 0.1285 0.9758
H12 H -0.2192 0.1612 0.9827
C23 C -0.1971(10) 0.0908(4) 1.0430(8)
H13 H -0.2374 0.0701 1.0852
H14 H -0.1046 0.1016 1.0854
N1 N 0.1675(3) 0.16054(11) 0.56989(18)
N2 N 0.3198(3) 0.15994(11) 0.90236(18)
N3 N 0.2444(2) -0.00200(11) 0.72464(18)
O1 O 0.3512(2) 0.08049(10) 0.61913(15)
O2 O 0.3766(2) 0.07949(12) 0.47085(17)
O3 O 0.0850(3) 0.18152(11) 0.71694(17)
O4 O -0.0874(4) 0.23787(17) 0.6244(2)
O5 O 0.4013(3) 0.18449(11) 0.75703(17)
O6 O 0.5394(4) 0.25598(16) 0.8395(2)
O7 O 0.1504(2) 0.07320(10) 0.85386(16)
O8 O 0.1107(2) 0.07691(11) 0.99735(17)
O9 O 0.4489(2) 0.05947(10) 0.83432(17)
O10 O 0.5879(2) -0.01826(14) 0.8818(2)
O11 O 0.0361(2) 0.06455(9) 0.63562(15)
O12 O -0.0997(2) -0.01121(11) 0.56440(19)
O13 O 0.6552(2) 0.04427(11) 0.47207(19)
H20 H 0.7423 0.0313 0.4972
H21 H 0.6608 0.0788 0.4797
O14 O 0.5877(2) 0.01963(12) 0.65160(17)
H22 H 0.5281 0.0375 0.6630
H23 H 0.6620 0.0474 0.6650
O15 O 0.0564(3) 0.01506(13) 1.15190(19)
H24 H 0.0721 -0.0169 1.1869
H25 H 0.1091 0.0401 1.1785
O16 O -0.1820(3) 0.04779(13) 0.9723(2)
H26 H -0.2595 0.0313 0.9472
Ce1B Ce 0.753559(15) -0.107580(7) 0.262949(11)
Zn2_2 Zn 1.0000 0.0000 0.0000
C1B C 0.7800(3) -0.14731(14) 0.5004(2)
C2B C 0.8216(4) -0.17607(16) 0.5913(2)
H1B H 0.7837 -0.1666 0.6393
C3B C 0.9205(4) -0.21912(17) 0.6092(3)
H2B H 0.9486 -0.2397 0.6691
C4B C 0.9783(4) -0.23178(16) 0.5373(3)
H3B H 1.0467 -0.2600 0.5487
C5B C 0.9305(4) -0.20092(14) 0.4478(2)
C6B C 0.9845(4) -0.20881(15) 0.3635(3)
C7B C 0.6757(3) -0.09884(14) 0.4699(2)
C8B C 0.5907(4) -0.20402(14) 0.0797(2)
C9B C 0.5478(4) -0.23351(16) -0.0105(3)
H4B H 0.4842 -0.2638 -0.0227
C10B C 0.6018(4) -0.21692(16) -0.0823(3)
H5B H 0.5748 -0.2362 -0.1434
C11B C 0.6951(4) -0.17189(15) -0.0630(2)
H6B H 0.7325 -0.1605 -0.1104
C12B C 0.7323(3) -0.14387(13) 0.0283(2)
C13B C 0.8326(3) -0.09366(13) 0.0604(2)
C14B C 0.5438(4) -0.21701(17) 0.1657(3)
C15B C 0.6420(3) 0.03245(14) 0.2269(2)
C16B C 0.6370(4) 0.09258(16) 0.2357(3)
H7B H 0.5571 0.1132 0.2010
C17B C 0.7521(4) 0.12136(16) 0.2966(3)
H8B H 0.7514 0.1619 0.3033
C18B C 0.8696(4) 0.08944(15) 0.3481(3)
H9B H 0.9481 0.1080 0.3906
C19B C 0.8674(3) 0.02965(13) 0.3347(2)
C20B C 0.9881(3) -0.01025(13) 0.3834(2)
C21B C 0.5238(3) -0.00521(16) 0.1636(2)
C22B C 0.2623(12) -0.1371(4) 0.9819(9)
H10B H 0.2630 -0.1574 0.9233
H11B H 0.3551 -0.1285 1.0242
H12B H 0.2192 -0.1612 1.0173
C23B C 0.1971(10) -0.0908(4) 0.9570(8)
H13B H 0.2374 -0.0701 0.9148
H14B H 0.1046 -0.1016 0.9146
N1B N 0.8325(3) -0.16054(11) 0.43011(18)
N2B N 0.6802(3) -0.15994(11) 0.09764(18)
N3B N 0.7556(2) 0.00200(11) 0.27536(18)
O1B O 0.6488(2) -0.08049(10) 0.38087(15)
O2B O 0.6234(2) -0.07949(12) 0.52915(17)
O3B O 0.9150(3) -0.18152(11) 0.28306(17)
O4B O 1.0874(4) -0.23787(17) 0.3756(2)
O5B O 0.5987(3) -0.18449(11) 0.24297(17)
O6B O 0.4606(4) -0.25598(16) 0.1605(2)
O7B O 0.8496(2) -0.07320(10) 0.14614(16)
O8B O 0.8893(2) -0.07691(11) 0.00265(17)
O8B_2 O -0.1107(2) -0.07691(11) 1.00265(17)
O9B O 0.5511(2) -0.05947(10) 0.16568(17)
O10B O 0.4121(2) 0.01826(14) 0.1182(2)
O11B O 0.9639(2) -0.06455(9) 0.36438(15)
O12B O 1.0997(2) 0.01121(11) 0.43560(19)
O13B O 0.3448(2) -0.04427(11) 0.52793(19)
H20B H 0.2577 -0.0313 0.5028
H21B H 0.3392 -0.0788 0.5203
O14B O 0.4123(2) -0.01963(12) 0.34840(17)
H22B H 0.4719 -0.0375 0.3370
H23B H 0.3380 -0.0474 0.3350
O15B O -0.0564(3) -0.01506(13) 0.84810(19)
H24B H -0.0721 0.0169 0.8131
H25B H -0.1091 -0.0401 0.8215
O16B O 0.1820(3) -0.04779(13) 1.0277(2)
H26B H 0.2595 -0.0313 1.0528
C24 C 0.7552(7) 0.1987(4) 0.7563(5)
H15 H 0.7367 0.2099 0.8150
H16 H 0.6753 0.2058 0.6982
H17 H 0.8312 0.2211 0.7522
C25 C 0.7900(17) 0.1355(10) 0.7620(13)
H18 H 0.8681 0.1354 0.8242
H19 H 0.7150 0.1203 0.7803
O17 O 0.8206(3) 0.08594(14) 0.7186(2)
H27 H 0.8699 0.0949 0.6839
O18 O 0.6820(4) 0.16434(17) 0.4881(3)
H28 H 0.6495 0.1918 0.4390
H29 H 0.7327 0.1847 0.5250
O19 O 0.2811(3) 0.08745(17) 1.2443(2)
H30 H 0.3103 0.0726 1.3057
H31 H 0.3172 0.0709 1.1990
loop_
_geom_bond_atom_site_label_1
_geom_bond_atom_site_label_2
_geom_bond_site_symmetry_1
_geom_bond_site_symmetry_2
Ce1 N1 1_555 1_555
Zn1 O2 1_555 1_555
Zn2 O8 1_555 1_555
C1 C2 1_555 1_555
C2 H1 1_555 1_555
C3 C2 1_555 1_555
H2 C3 1_555 1_555
C4 C3 1_555 1_555
H3 C4 1_555 1_555
C5 C4 1_555 1_555
C6 C5 1_555 1_555
C7 C1 1_555 1_555
C8 C9 1_555 1_555
C9 H4 1_555 1_555
C10 C9 1_555 1_555
H5 C10 1_555 1_555
C11 C10 1_555 1_555
H6 C11 1_555 1_555
C12 C11 1_555 1_555
C13 C12 1_555 1_555
C14 C8 1_555 1_555
C15 C16 1_555 1_555
C16 H7 1_555 1_555
C17 C16 1_555 1_555
H8 C17 1_555 1_555
C18 C17 1_555 1_555
H9 C18 1_555 1_555
C19 C18 1_555 1_555
C20 C19 1_555 1_555
C21 C15 1_555 1_555
C22 H10 1_555 1_555
H11 C22 1_555 1_555
H12 C22 1_555 1_555
C23 C22 1_555 1_555
H13 C23 1_555 1_555
H14 C23 1_555 1_555
C24 H15 1_555 1_555
H16 C24 1_555 1_555
H17 C24 1_555 1_555
C25 C24 1_555 1_555
H18 C25 1_555 1_555
H19 C25 1_555 1_555
N1 C1 1_555 1_555
N2 Ce1 1_555 1_555
N3 Ce1 1_555 1_555
O1 Ce1 1_555 1_555
O2 C7 1_555 1_555
O3 Ce1 1_555 1_555
O4 C6 1_555 1_555
O5 Ce1 1_555 1_555
O6 C14 1_555 1_555
O7 Ce1 1_555 1_555
O8 C13 1_555 1_555
O9 Ce1 1_555 1_555
O10 C21 1_555 1_555
O11 Ce1 1_555 1_555
O12 C20 1_555 1_555
O13 Zn1 1_555 1_555
H20 O13 1_555 1_555
H21 O13 1_555 1_555
O14 Zn1 1_555 1_555
H22 O14 1_555 1_555
H23 O14 1_555 1_555
O15 Zn2 1_555 1_555
H24 O15 1_555 1_555
H25 O15 1_555 1_555
O16 Zn2 1_555 1_555
H26 O16 1_555 1_555
O17 C25 1_555 1_555
H27 O17 1_555 1_555
O18 H28 1_555 1_555
H29 O18 1_555 1_555
O19 H30 1_555 1_555
H31 O19 1_555 1_555
Ce1B N1B 1_555 1_555
Zn2_2 O8B 1_555 1_555
C1B C2B 1_555 1_555
C2B H1B 1_555 1_555
C3B C2B 1_555 1_555
H2B C3B 1_555 1_555
C4B C3B 1_555 1_555
H3B C4B 1_555 1_555
C5B C4B 1_555 1_555
C6B C5B 1_555 1_555
C7B C1B 1_555 1_555
C8B C9B 1_555 1_555
C9B H4B 1_555 1_555
C10B C9B 1_555 1_555
H5B C10B 1_555 1_555
C11B C10B 1_555 1_555
H6B C11B 1_555 1_555
C12B C11B 1_555 1_555
C13B C12B 1_555 1_555
C14B C8B 1_555 1_555
C15B C16B 1_555 1_555
C16B H7B 1_555 1_555
C17B C16B 1_555 1_555
H8B C17B 1_555 1_555
C18B C17B 1_555 1_555
H9B C18B 1_555 1_555
C19B C18B 1_555 1_555
C20B C19B 1_555 1_555
C21B C15B 1_555 1_555
C22B H10B 1_555 1_555
H11B C22B 1_555 1_555
H12B C22B 1_555 1_555
C23B C22B 1_555 1_555
H13B C23B 1_555 1_555
H14B C23B 1_555 1_555
N1B C1B 1_555 1_555
N2B Ce1B 1_555 1_555
N3B Ce1B 1_555 1_555
O1B Ce1B 1_555 1_555
O2B Zn1 1_555 1_555
O3B Ce1B 1_555 1_555
O4B C6B 1_555 1_555
O5B Ce1B 1_555 1_555
O6B C14B 1_555 1_555
O7B Ce1B 1_555 1_555
O8B C13B 1_555 1_555
O8B_2 Zn2 1_555 1_555
O9B Ce1B 1_555 1_555
O10B C21B 1_555 1_555
O11B Ce1B 1_555 1_555
O12B C20B 1_555 1_555
O13B Zn1 1_555 1_555
H20B O13B 1_555 1_555
H21B O13B 1_555 1_555
O14B Zn1 1_555 1_555
H22B O14B 1_555 1_555
H23B O14B 1_555 1_555
O15B Zn2 1_555 1_555
H24B O15B 1_555 1_555
H25B O15B 1_555 1_555
O16B Zn2 1_555 1_555
H26B O16B 1_555 1_555
C5 N1 1_555 1_555
C6 O3 1_555 1_555
C7 O1 1_555 1_555
C8 N2 1_555 1_555
C12 N2 1_555 1_555
C13 O7 1_555 1_555
C14 O5 1_555 1_555
C15 N3 1_555 1_555
C19 N3 1_555 1_555
C20 O11 1_555 1_555
C21 O9 1_555 1_555
C23 O16 1_555 1_555
C5B N1B 1_555 1_555
C6B O3B 1_555 1_555
C7B O1B 1_555 1_555
C7B O2B 1_555 1_555
C8B N2B 1_555 1_555
C12B N2B 1_555 1_555
C13B O7B 1_555 1_555
C14B O5B 1_555 1_555
C15B N3B 1_555 1_555
C19B N3B 1_555 1_555
C20B O11B 1_555 1_555
C21B O9B 1_555 1_555
C23B O16B 1_555 1_555

#END
