
#######################################################################
#
#                 Cambridge Crystallographic Data Centre
#                                CCDC 
#
#######################################################################
#
# If this CIF has been generated from an entry in the Cambridge 
# Structural Database, then it will include bibliographic, chemical, 
# crystal, experimental, refinement or atomic coordinate data resulting 
# from the CCDC's data processing and validation procedures.
#
#######################################################################

data_DOCQOC
_symmetry_cell_setting           monoclinic
_symmetry_space_group_name_H-M   'C c'
_symmetry_Int_Tables_number      9
_space_group_name_Hall           'C -2yc'
loop_
_symmetry_equiv_pos_site_id
_symmetry_equiv_pos_as_xyz
1 x,y,z
2 x,-y,1/2+z
3 1/2+x,1/2+y,z
4 1/2+x,1/2-y,1/2+z
_cell_length_a                   9.6829(17)
_cell_length_b                   25.235(4)
_cell_length_c                   11.947(2)
_cell_angle_alpha                90
_cell_angle_beta                 94.250(3)
_cell_angle_gamma                90
_cell_volume                     2911.2
loop_
_atom_site_label
_atom_site_type_symbol
_atom_site_fract_x
_atom_site_fract_y
_atom_site_fract_z
Ce1 Ce 0.183473(9) 0.132084(5) 0.728613(9)
Cd1 Cd -0.37277(3) 0.063757(9) 0.50951(2)
C1 C 0.2114(3) 0.21696(12) 0.5128(2)
C2 C 0.1854(3) 0.24450(15) 0.4130(3)
H1 H 0.2432 0.2718 0.3930
C3 C 0.0697(4) 0.22992(17) 0.3439(3)
H2 H 0.0498 0.2474 0.2761
C4 C -0.0157(3) 0.18960(15) 0.3754(3)
H3 H -0.0931 0.1796 0.3295
C5 C 0.0168(3) 0.16420(11) 0.4773(2)
C6 C -0.0675(3) 0.12182(13) 0.5250(3)
C7 C 0.3316(3) 0.22848(12) 0.5974(3)
C8 C 0.3620(3) 0.16753(12) 0.9725(3)
C9 C 0.3981(3) 0.19342(15) 1.0720(3)
H4 H 0.4727 0.1818 1.1192
C10 C 0.3207(4) 0.23731(17) 1.1006(3)
H5 H 0.3418 0.2551 1.1679
C11 C 0.2126(3) 0.25398(13) 1.0278(3)
H6 H 0.1614 0.2839 1.0438
C12 C 0.1816(3) 0.22549(12) 0.9306(2)
C13 C 0.0673(3) 0.23925(13) 0.8428(3)
C14 C 0.4380(3) 0.12096(14) 0.9261(3)
C15 C 0.2664(3) 0.00395(12) 0.6814(3)
C16 C 0.2808(4) -0.04994(13) 0.6943(4)
H7 H 0.3388 -0.0693 0.6510
C17 C 0.2054(6) -0.07474(16) 0.7746(5)
H8 H 0.2109 -0.1113 0.7843
C18 C 0.1242(5) -0.04541(17) 0.8382(5)
H9 H 0.0749 -0.0616 0.8926
C19 C 0.1147(4) 0.00880(13) 0.8220(3)
C20 C 0.0361(4) 0.04589(16) 0.8907(4)
C21 C 0.3475(3) 0.03711(12) 0.6058(3)
N1 N 0.1296(2) 0.17765(10) 0.5429(2)
N2 N 0.2536(2) 0.18292(10) 0.9047(2)
N3 N 0.1840(3) 0.03234(9) 0.7428(2)
O1 O 0.3434(2) 0.19523(9) 0.67950(19)
O2 O 0.4048(3) 0.26666(10) 0.5854(2)
O3 O -0.0229(2) 0.10384(9) 0.6214(2)
O4 O -0.1724(2) 0.10620(11) 0.4692(2)
O5 O 0.3856(2) 0.10303(9) 0.83377(19)
O6 O 0.5449(3) 0.10378(11) 0.9771(2)
O7 O 0.0456(2) 0.20369(9) 0.7664(2)
O8 O 0.0045(3) 0.28141(9) 0.8459(2)
O9 O 0.3131(2) 0.08588(9) 0.59772(19)
O10 O 0.4436(2) 0.01634(9) 0.5587(2)
O11 O 0.0503(3) 0.09541(10) 0.8669(2)
O12 O -0.0320(5) 0.03045(15) 0.9660(4)
O13 O -0.2362(4) 0.02088(15) 0.6505(3)
H10 H -0.2278 -0.0135 0.6590
H11 H -0.1490 0.0275 0.6732
O14 O -0.3990(3) 0.13099(9) 0.6342(3)
H12 H -0.4713 0.1412 0.6686
H13 H -0.3356 0.1431 0.6884
O15 O -0.4605(3) 0.11015(10) 0.3599(2)
H14 H -0.4729 0.1409 0.3767
H15 H -0.4439 0.1118 0.2926
O16 O -0.3501(4) -0.00632(11) 0.3938(3)
H16 H -0.2842 -0.0174 0.3582
H17 H -0.3894 -0.0367 0.3954
Cd1_2 Cd 0.62723(3) 0.063757(9) 0.50951(2)
O10_2 O -0.5564(2) 0.01634(9) 0.5587(2)
O17 O 0.7631(4) 0.13567(13) 0.8278(3)
H18 H 0.8233 0.1154 0.8142
H19 H 0.7011 0.1265 0.8701
O18 O 0.4394(6) 0.37513(15) 0.6151(4)
H20 H 0.4292 0.3420 0.6063
H21 H 0.4535 0.3988 0.5698
O19 O 0.6933(4) 0.08667(14) 0.1804(3)
H22 H 0.6523 0.0890 0.1190
H23 H 0.7697 0.0988 0.1601
loop_
_geom_bond_atom_site_label_1
_geom_bond_atom_site_label_2
_geom_bond_site_symmetry_1
_geom_bond_site_symmetry_2
Ce1 N1 1_555 1_555
Cd1 O4 1_555 1_555
C1 C2 1_555 1_555
C2 H1 1_555 1_555
C3 C2 1_555 1_555
H2 C3 1_555 1_555
C4 C3 1_555 1_555
H3 C4 1_555 1_555
C5 C4 1_555 1_555
C6 C5 1_555 1_555
C7 C1 1_555 1_555
C8 C9 1_555 1_555
C9 H4 1_555 1_555
C10 C9 1_555 1_555
H5 C10 1_555 1_555
C11 C10 1_555 1_555
H6 C11 1_555 1_555
C12 C11 1_555 1_555
C13 C12 1_555 1_555
C14 C8 1_555 1_555
C15 C16 1_555 1_555
C16 H7 1_555 1_555
C17 C16 1_555 1_555
H8 C17 1_555 1_555
C18 C17 1_555 1_555
H9 C18 1_555 1_555
C19 C18 1_555 1_555
C20 C19 1_555 1_555
C21 C15 1_555 1_555
N1 C1 1_555 1_555
N2 Ce1 1_555 1_555
N3 Ce1 1_555 1_555
O1 Ce1 1_555 1_555
O2 C7 1_555 1_555
O3 Ce1 1_555 1_555
O4 C6 1_555 1_555
O5 Ce1 1_555 1_555
O6 C14 1_555 1_555
O7 Ce1 1_555 1_555
O8 C13 1_555 1_555
O9 Ce1 1_555 1_555
O10 C21 1_555 1_555
O11 Ce1 1_555 1_555
O12 C20 1_555 1_555
O13 Cd1 1_555 1_555
H10 O13 1_555 1_555
H11 O13 1_555 1_555
O14 Cd1 1_555 1_555
H12 O14 1_555 1_555
H13 O14 1_555 1_555
O15 Cd1 1_555 1_555
H14 O15 1_555 1_555
H15 O15 1_555 1_555
O16 Cd1 1_555 1_555
H16 O16 1_555 1_555
H17 O16 1_555 1_555
O17 H18 1_555 1_555
H19 O17 1_555 1_555
O18 H20 1_555 1_555
H21 O18 1_555 1_555
O19 H22 1_555 1_555
H23 O19 1_555 1_555
Cd1_2 O10 1_555 1_555
O10_2 Cd1 1_555 1_555
C5 N1 1_555 1_555
C6 O3 1_555 1_555
C7 O1 1_555 1_555
C8 N2 1_555 1_555
C12 N2 1_555 1_555
C13 O7 1_555 1_555
C14 O5 1_555 1_555
C15 N3 1_555 1_555
C19 N3 1_555 1_555
C20 O11 1_555 1_555
C21 O9 1_555 1_555

#END
