
#######################################################################
#
#                 Cambridge Crystallographic Data Centre
#                                CCDC 
#
#######################################################################
#
# If this CIF has been generated from an entry in the Cambridge 
# Structural Database, then it will include bibliographic, chemical, 
# crystal, experimental, refinement or atomic coordinate data resulting 
# from the CCDC's data processing and validation procedures.
#
#######################################################################

data_DOCQES
_symmetry_cell_setting           monoclinic
_symmetry_space_group_name_H-M   'P 2/n'
_symmetry_Int_Tables_number      13
_space_group_name_Hall           '-P 2yac'
loop_
_symmetry_equiv_pos_site_id
_symmetry_equiv_pos_as_xyz
1 x,y,z
2 1/2-x,y,1/2-z
3 -x,-y,-z
4 1/2+x,-y,1/2+z
_cell_length_a                   13.4100(9)
_cell_length_b                   10.5921(7)
_cell_length_c                   34.730(2)
_cell_angle_alpha                90
_cell_angle_beta                 94.3640(10)
_cell_angle_gamma                90
_cell_volume                     4918.75
loop_
_atom_site_label
_atom_site_type_symbol
_atom_site_fract_x
_atom_site_fract_y
_atom_site_fract_z
Ce1 Ce 0.257897(14) 0.623140(19) 0.561700(6)
Cd1 Cd 0.0000 1.0000 0.5000
Cd2 Cd 0.5000 1.0000 0.5000
C1 C 0.0478(3) 0.7248(4) 0.60075(12)
C2 C -0.0297(4) 0.7347(6) 0.62477(15)
H1 H -0.0780 0.7974 0.6210
C3 C -0.0330(5) 0.6478(7) 0.65468(17)
H2 H -0.0847 0.6508 0.6710
C4 C 0.0393(5) 0.5590(7) 0.65985(15)
H3 H 0.0377 0.5010 0.6799
C5 C 0.1156(3) 0.5548(5) 0.63521(13)
C6 C 0.2007(4) 0.4624(6) 0.63721(16)
C7 C 0.0596(3) 0.8077(4) 0.56639(12)
C8 C 0.4783(4) 0.6997(5) 0.60915(13)
C9 C 0.5804(4) 0.7063(5) 0.61906(16)
H4 H 0.6062 0.7640 0.6374
C10 C 0.6429(4) 0.6247(6) 0.60106(19)
H5 H 0.7116 0.6272 0.6072
C11 C 0.6034(3) 0.5414(5) 0.57453(17)
H6 H 0.6446 0.4869 0.5620
C12 C 0.5011(3) 0.5385(4) 0.56629(13)
C13 C 0.4465(3) 0.4483(4) 0.53808(13)
C14 C 0.4010(4) 0.7833(5) 0.62555(15)
C15 C 0.2517(3) 0.7170(4) 0.46801(11)
C16 C 0.2237(3) 0.7250(5) 0.42926(13)
H7 H 0.2516 0.7860 0.4141
C17 C 0.1532(4) 0.6408(5) 0.41306(14)
H8 H 0.1324 0.6451 0.3869
C18 C 0.1146(3) 0.5505(5) 0.43636(13)
H9 H 0.0674 0.4929 0.4262
C19 C 0.1468(3) 0.5471(4) 0.47480(12)
C20 C 0.1118(3) 0.4527(4) 0.50371(13)
C21 C 0.3274(3) 0.8006(4) 0.49003(12)
N1 N 0.1176(3) 0.6376(3) 0.60596(10)
N2 N 0.4399(3) 0.6179(3) 0.58288(10)
N3 N 0.2131(2) 0.6300(3) 0.49041(9)
O1 O 0.1381(2) 0.7872(3) 0.54893(8)
O2 O -0.0037(2) 0.8896(3) 0.55715(10)
O3 O 0.2651(2) 0.4794(3) 0.61296(10)
O4 O 0.2054(5) 0.3800(6) 0.66182(18)
O5 O 0.3125(2) 0.7691(3) 0.61024(10)
O6 O 0.4279(4) 0.8554(6) 0.65177(17)
O7 O 0.3515(2) 0.4634(3) 0.53430(10)
O8 O 0.4936(3) 0.3669(3) 0.52210(12)
O9 O 0.3400(2) 0.7801(3) 0.52586(8)
O10 O 0.3708(2) 0.8828(3) 0.47204(10)
O11 O 0.1406(2) 0.4742(3) 0.53859(9)
O12 O 0.0588(3) 0.3642(3) 0.49176(11)
O19 O -0.0092(3) 1.1757(3) 0.53482(11)
H15 H 0.1879 1.0782 0.5202
H16 H 0.2098 0.9394 0.5100
O20 O 0.1712(3) 1.0187(4) 0.50555(16)
H17 H 0.0105 1.2466 0.5265
H18 H 0.0186 1.1803 0.5576
O21 O 0.5809(3) 0.8267(4) 0.52142(15)
H19 H 0.6119 0.7792 0.5081
H20 H 0.6196 0.8518 0.5390
O22 O 0.4281(4) 1.0172(5) 0.55774(14)
H21 H 0.3738 1.0004 0.5664
H22 H 0.4404 1.0898 0.5747
Ce1B Ce -0.257897(14) 1.376860(19) 0.438300(6)
Cd2_2 Cd -0.5000 1.0000 0.5000
C1B C -0.0478(3) 1.2752(4) 0.39925(12)
C2B C 0.0297(4) 1.2653(6) 0.37523(15)
H1B H 0.0780 1.2026 0.3790
C3B C 0.0330(5) 1.3522(7) 0.34532(17)
H2B H 0.0847 1.3492 0.3290
C4B C -0.0393(5) 1.4410(7) 0.34015(15)
H3B H -0.0377 1.4990 0.3201
C5B C -0.1156(3) 1.4452(5) 0.36479(13)
C6B C -0.2007(4) 1.5376(6) 0.36279(16)
C7B C -0.0596(3) 1.1923(4) 0.43361(12)
C8B C -0.4783(4) 1.3003(5) 0.39085(13)
C9B C -0.5804(4) 1.2937(5) 0.38094(16)
H4B H -0.6062 1.2360 0.3626
C10B C -0.6429(4) 1.3753(6) 0.39894(19)
H5B H -0.7116 1.3728 0.3928
C11B C -0.6034(3) 1.4586(5) 0.42547(17)
H6B H -0.6446 1.5131 0.4380
C12B C -0.5011(3) 1.4615(4) 0.43371(13)
C13B C -0.4465(3) 1.5517(4) 0.46192(13)
C14B C -0.4010(4) 1.2167(5) 0.37445(15)
C15B C -0.2517(3) 1.2830(4) 0.53199(11)
C16B C -0.2237(3) 1.2750(5) 0.57074(13)
H7B H -0.2516 1.2140 0.5859
C17B C -0.1532(4) 1.3592(5) 0.58694(14)
H8B H -0.1324 1.3549 0.6131
C18B C -0.1146(3) 1.4495(5) 0.56364(13)
H9B H -0.0674 1.5071 0.5738
C19B C -0.1468(3) 1.4529(4) 0.52520(12)
C20B C -0.1118(3) 1.5473(4) 0.49629(13)
C21B C -0.3274(3) 1.1994(4) 0.50997(12)
N1B N -0.1176(3) 1.3624(3) 0.39404(10)
N2B N -0.4399(3) 1.3821(3) 0.41712(10)
N3B N -0.2131(2) 1.3700(3) 0.50959(9)
O1B O -0.1381(2) 1.2128(3) 0.45107(8)
O2B O 0.0037(2) 1.1104(3) 0.44285(10)
O3B O -0.2651(2) 1.5206(3) 0.38704(10)
O4B O -0.2054(5) 1.6200(6) 0.33818(18)
O5B O -0.3125(2) 1.2309(3) 0.38976(10)
O6B O -0.4279(4) 1.1446(6) 0.34823(17)
O7B O -0.3515(2) 1.5366(3) 0.46570(10)
O8B O -0.4936(3) 1.6331(3) 0.47790(12)
O9B O -0.3400(2) 1.2199(3) 0.47414(8)
O10B O -0.3708(2) 1.1172(3) 0.52796(10)
O10B_2 O 0.6292(2) 1.1172(3) 0.52796(10)
O11B O -0.1406(2) 1.5258(3) 0.46141(9)
O12B O -0.0588(3) 1.6358(3) 0.50824(11)
O19B O 0.0092(3) 0.8243(3) 0.46518(11)
H15B H -0.1879 0.9218 0.4798
H16B H -0.2098 1.0606 0.4900
O20B O -0.1712(3) 0.9813(4) 0.49445(16)
H17B H -0.0105 0.7534 0.4735
H18B H -0.0186 0.8197 0.4424
O21B O 0.4191(3) 1.1733(4) 0.47858(15)
H19B H 0.3881 1.2208 0.4919
H20B H 0.3804 1.1482 0.4610
O22B O 0.5719(4) 0.9828(5) 0.44226(14)
H21B H 0.6262 0.9996 0.4336
H22B H 0.5596 0.9102 0.4253
Ce2 Ce 0.7500 0.66810(3) 0.7500
C22 C 0.5276(4) 0.5725(6) 0.70788(16)
C23 C 0.4571(6) 0.5031(8) 0.6861(2)
H10 H 0.3894 0.5217 0.6866
C24 C 0.4867(7) 0.4105(9) 0.6647(3)
H11 H 0.4392 0.3650 0.6495
C25 C 0.5861(7) 0.3783(6) 0.66409(19)
H12 H 0.6062 0.3112 0.6492
C26 C 0.6554(5) 0.4503(5) 0.68656(13)
C27 C 0.7668(5) 0.4311(5) 0.69047(13)
C28 C 0.5049(4) 0.6810(7) 0.73399(18)
C29 C 0.7526(6) 0.9655(5) 0.71650(16)
C30 C 0.7534(11) 1.0947(7) 0.7146(2)
H13 H 0.7560 1.1375 0.6914
C31 C 0.7500 1.1588(10) 0.7500
H14 H 0.7500 1.2466 0.7500
C32 C 0.7554(4) 0.8815(5) 0.68196(14)
N4 N 0.6249(3) 0.5460(4) 0.70735(11)
N5 N 0.7500 0.9038(5) 0.7500
O13 O 0.8154(3) 0.5066(3) 0.71380(10)
O14 O 0.8049(4) 0.3454(4) 0.67307(13)
O15 O 0.5804(3) 0.7338(4) 0.74974(11)
O16 O 0.4171(4) 0.7092(7) 0.73839(19)
O17 O 0.7518(3) 0.7648(3) 0.68901(9)
O18 O 0.7582(4) 0.9289(5) 0.64982(11)
C22A C 0.9724(4) 0.5725(6) 0.79212(16)
C23A C 1.0429(6) 0.5031(8) 0.8139(2)
H10A H 1.1106 0.5217 0.8134
C24A C 1.0133(7) 0.4105(9) 0.8353(3)
H11A H 1.0608 0.3650 0.8505
C25A C 0.9139(7) 0.3783(6) 0.83591(19)
H12A H 0.8938 0.3112 0.8508
C26A C 0.8446(5) 0.4503(5) 0.81344(13)
C27A C 0.7332(5) 0.4311(5) 0.80953(13)
C28A C 0.9951(4) 0.6810(7) 0.76601(18)
C29A C 0.7474(6) 0.9655(5) 0.78350(16)
C30A C 0.7466(11) 1.0947(7) 0.7854(2)
H13A H 0.7440 1.1375 0.8086
C32A C 0.7446(4) 0.8815(5) 0.81804(14)
N4A N 0.8751(3) 0.5460(4) 0.79265(11)
O13A O 0.6846(3) 0.5066(3) 0.78620(10)
O14A O 0.6951(4) 0.3454(4) 0.82693(13)
O15A O 0.9196(3) 0.7338(4) 0.75026(11)
O16A O 1.0829(4) 0.7092(7) 0.76161(19)
O17A O 0.7482(3) 0.7648(3) 0.81099(9)
O18A O 0.7418(4) 0.9289(5) 0.85018(11)
O23 O 0.2687(4) 1.2028(5) 0.55539(19)
H23 H 0.2194 1.2355 0.5714
H24 H 0.2999 1.2597 0.5419
O24 O 0.7588(5) 0.8673(8) 0.56740(18)
H25 H 0.7463 0.8884 0.5897
H26 H 0.8022 0.9153 0.5612
O25 O 0.1864(6) 0.9505(8) 0.6400(3)
H27 H 0.2400 0.9919 0.6497
H28 H 0.2100 0.8819 0.6297
O26 O 0.0725(10) 1.1583(9) 0.6091(3)
H29 H 0.0584 1.2207 0.6216
H30 H 0.0984 1.1207 0.6292
O27 O 0.5818(7) 1.0888(9) 0.6185(3)
H31 H 0.5253 1.0493 0.6310
H32 H 0.6330 1.0351 0.6284
O28 O 0.9819(13) 0.201(2) 0.6788(7)
H33 H 0.9936 0.1267 0.6876
H34 H 0.9327 0.2271 0.6725
O29 O 1.1909(5) 0.9588(6) 0.71199(18)
O30 O 1.2500 1.0802(10) 0.7500
O32 O 1.0256(12) 0.9361(17) 0.7086(5)
O33 O 1.3175(18) 0.988(2) 0.6902(7)
O34 O 1.2315(15) 0.795(2) 0.7056(6)
O31? O 1.1573(5) 0.8970(8) 0.7434(2)
O35? O 1.3539(19) 0.959(2) 0.7183(8)
O36? O 1.1656(9) 0.8649(14) 0.7498(4)
O37? O 1.1584(8) 0.9163(12) 0.7519(3)
loop_
_geom_bond_atom_site_label_1
_geom_bond_atom_site_label_2
_geom_bond_site_symmetry_1
_geom_bond_site_symmetry_2
Ce1 N1 1_555 1_555
Ce2 N4 1_555 1_555
Cd1 O2 1_555 1_555
Cd2 O10 1_555 1_555
C1 C2 1_555 1_555
C2 H1 1_555 1_555
C3 C2 1_555 1_555
H2 C3 1_555 1_555
C4 C3 1_555 1_555
H3 C4 1_555 1_555
C5 C4 1_555 1_555
C6 C5 1_555 1_555
C7 C1 1_555 1_555
C8 C9 1_555 1_555
C9 H4 1_555 1_555
C10 C9 1_555 1_555
H5 C10 1_555 1_555
C11 C10 1_555 1_555
H6 C11 1_555 1_555
C12 C11 1_555 1_555
C13 C12 1_555 1_555
C14 C8 1_555 1_555
C15 C16 1_555 1_555
C16 H7 1_555 1_555
C17 C16 1_555 1_555
H8 C17 1_555 1_555
C18 C17 1_555 1_555
H9 C18 1_555 1_555
C19 C18 1_555 1_555
C20 C19 1_555 1_555
C21 C15 1_555 1_555
C22 C23 1_555 1_555
C23 H10 1_555 1_555
C24 C23 1_555 1_555
H11 C24 1_555 1_555
C25 C24 1_555 1_555
H12 C25 1_555 1_555
C26 C25 1_555 1_555
C27 C26 1_555 1_555
C28 C22 1_555 1_555
C29 C30 1_555 1_555
C30 H13 1_555 1_555
C31 C30 1_555 1_555
H14 C31 1_555 1_555
C32 C29 1_555 1_555
N1 C1 1_555 1_555
N2 Ce1 1_555 1_555
N3 Ce1 1_555 1_555
N4 C22 1_555 1_555
N5 Ce2 1_555 1_555
O1 Ce1 1_555 1_555
O2 C7 1_555 1_555
O3 Ce1 1_555 1_555
O4 C6 1_555 1_555
O5 Ce1 1_555 1_555
O6 C14 1_555 1_555
O7 Ce1 1_555 1_555
O8 C13 1_555 1_555
O9 Ce1 1_555 1_555
O10 C21 1_555 1_555
O11 Ce1 1_555 1_555
O12 C20 1_555 1_555
O13 Ce2 1_555 1_555
O14 C27 1_555 1_555
O15 Ce2 1_555 1_555
O16 C28 1_555 1_555
O17 Ce2 1_555 1_555
O18 C32 1_555 1_555
O19 Cd1 1_555 1_555
H15 O20 1_555 1_555
H16 O20 1_555 1_555
O20 Cd1 1_555 1_555
H17 O19 1_555 1_555
H18 O19 1_555 1_555
O21 Cd2 1_555 1_555
H19 O21 1_555 1_555
H20 O21 1_555 1_555
O22 Cd2 1_555 1_555
H21 O22 1_555 1_555
H22 O22 1_555 1_555
O23 H23 1_555 1_555
H24 O23 1_555 1_555
O24 H25 1_555 1_555
H26 O24 1_555 1_555
O25 H27 1_555 1_555
H28 O25 1_555 1_555
O26 H29 1_555 1_555
H30 O26 1_555 1_555
O27 H31 1_555 1_555
H32 O27 1_555 1_555
O28 H33 1_555 1_555
H34 O28 1_555 1_555
Ce1B N1B 1_555 1_555
Cd2_2 O10B 1_555 1_555
C1B C2B 1_555 1_555
C2B H1B 1_555 1_555
C3B C2B 1_555 1_555
H2B C3B 1_555 1_555
C4B C3B 1_555 1_555
H3B C4B 1_555 1_555
C5B C4B 1_555 1_555
C6B C5B 1_555 1_555
C7B C1B 1_555 1_555
C8B C9B 1_555 1_555
C9B H4B 1_555 1_555
C10B C9B 1_555 1_555
H5B C10B 1_555 1_555
C11B C10B 1_555 1_555
H6B C11B 1_555 1_555
C12B C11B 1_555 1_555
C13B C12B 1_555 1_555
C14B C8B 1_555 1_555
C15B C16B 1_555 1_555
C16B H7B 1_555 1_555
C17B C16B 1_555 1_555
H8B C17B 1_555 1_555
C18B C17B 1_555 1_555
H9B C18B 1_555 1_555
C19B C18B 1_555 1_555
C20B C19B 1_555 1_555
C21B C15B 1_555 1_555
C22A C23A 1_555 1_555
C23A H10A 1_555 1_555
C24A C23A 1_555 1_555
H11A C24A 1_555 1_555
C25A C24A 1_555 1_555
H12A C25A 1_555 1_555
C26A C25A 1_555 1_555
C27A C26A 1_555 1_555
C28A C22A 1_555 1_555
C29A N5 1_555 1_555
C30A C31 1_555 1_555
H13A C30A 1_555 1_555
C32A C29A 1_555 1_555
N1B C1B 1_555 1_555
N2B Ce1B 1_555 1_555
N3B Ce1B 1_555 1_555
N4A Ce2 1_555 1_555
O1B Ce1B 1_555 1_555
O2B Cd1 1_555 1_555
O3B Ce1B 1_555 1_555
O4B C6B 1_555 1_555
O5B Ce1B 1_555 1_555
O6B C14B 1_555 1_555
O7B Ce1B 1_555 1_555
O8B C13B 1_555 1_555
O9B Ce1B 1_555 1_555
O10B C21B 1_555 1_555
O10B_2 Cd2 1_555 1_555
O11B Ce1B 1_555 1_555
O12B C20B 1_555 1_555
O13A Ce2 1_555 1_555
O14A C27A 1_555 1_555
O15A Ce2 1_555 1_555
O16A C28A 1_555 1_555
O17A Ce2 1_555 1_555
O18A C32A 1_555 1_555
O19B Cd1 1_555 1_555
H15B O20B 1_555 1_555
H16B O20B 1_555 1_555
O20B Cd1 1_555 1_555
H17B O19B 1_555 1_555
H18B O19B 1_555 1_555
O21B Cd2 1_555 1_555
H19B O21B 1_555 1_555
H20B O21B 1_555 1_555
O22B Cd2 1_555 1_555
H21B O22B 1_555 1_555
H22B O22B 1_555 1_555
C5 N1 1_555 1_555
C6 O3 1_555 1_555
C7 O1 1_555 1_555
C8 N2 1_555 1_555
C12 N2 1_555 1_555
C13 O7 1_555 1_555
C14 O5 1_555 1_555
C15 N3 1_555 1_555
C19 N3 1_555 1_555
C20 O11 1_555 1_555
C21 O9 1_555 1_555
C26 N4 1_555 1_555
C27 O13 1_555 1_555
C28 O15 1_555 1_555
C29 N5 1_555 1_555
C32 O17 1_555 1_555
C5B N1B 1_555 1_555
C6B O3B 1_555 1_555
C7B O1B 1_555 1_555
C7B O2B 1_555 1_555
C8B N2B 1_555 1_555
C12B N2B 1_555 1_555
C13B O7B 1_555 1_555
C14B O5B 1_555 1_555
C15B N3B 1_555 1_555
C19B N3B 1_555 1_555
C20B O11B 1_555 1_555
C21B O9B 1_555 1_555
C22A N4A 1_555 1_555
C26A N4A 1_555 1_555
C27A O13A 1_555 1_555
C28A O15A 1_555 1_555
C29A C30A 1_555 1_555
C32A O17A 1_555 1_555

#END
