
#######################################################################
#
#                 Cambridge Crystallographic Data Centre
#                                CCDC 
#
#######################################################################
#
# If this CIF has been generated from an entry in the Cambridge 
# Structural Database, then it will include bibliographic, chemical, 
# crystal, experimental, refinement or atomic coordinate data resulting 
# from the CCDC's data processing and validation procedures.
#
#######################################################################

data_DOCWOI
_symmetry_cell_setting           monoclinic
_symmetry_space_group_name_H-M   'P 21/c'
_symmetry_Int_Tables_number      14
_space_group_name_Hall           '-P 2ybc'
loop_
_symmetry_equiv_pos_site_id
_symmetry_equiv_pos_as_xyz
1 x,y,z
2 -x,1/2+y,1/2-z
3 -x,-y,-z
4 x,1/2-y,1/2+z
_cell_length_a                   13.088(4)
_cell_length_b                   7.049(2)
_cell_length_c                   14.137(4)
_cell_angle_alpha                90
_cell_angle_beta                 101.206(5)
_cell_angle_gamma                90
_cell_volume                     1279.38
loop_
_atom_site_label
_atom_site_type_symbol
_atom_site_fract_x
_atom_site_fract_y
_atom_site_fract_z
Ni1 Ni 0.97418(3) 1.03830(6) 1.10074(3)
O1 O 0.90374(18) 0.9334(3) 0.97236(15)
O2 O 1.01950(19) 1.1751(4) 1.23057(16)
O3 O 0.9567(2) 1.2789(4) 1.35648(15)
N1 N 0.8448(2) 1.0024(4) 1.15076(19)
C1 C 0.8041(3) 0.9031(5) 0.9427(2)
C2 C 0.7663(3) 0.8839(6) 0.8411(2)
H1 H 0.8117 0.9033 0.7989
C3 C 0.6666(3) 0.8383(7) 0.8055(3)
H2 H 0.6447 0.8310 0.7390
C4 C 0.5936(3) 0.8011(6) 0.8647(3)
C5 C 0.4914(3) 0.7417(7) 0.8268(3)
H3 H 0.4705 0.7284 0.7604
C6 C 0.4228(3) 0.7034(7) 0.8841(3)
H4 H 0.3558 0.6626 0.8576
C7 C 0.4537(3) 0.7259(6) 0.9838(3)
H5 H 0.4070 0.6989 1.0239
C8 C 0.5516(3) 0.7870(6) 1.0227(3)
H6 H 0.5697 0.8032 1.0891
C9 C 0.6268(3) 0.8268(5) 0.9660(2)
C10 C 0.7324(3) 0.8876(5) 1.0042(2)
C11 C 0.7572(3) 0.9404(5) 1.1054(2)
H7 H 0.7044 0.9278 1.1404
C12 C 0.8548(3) 1.0615(5) 1.2515(2)
H8 H 0.8590 0.9505 1.2927
H9 H 0.7940 1.1342 1.2591
C13 C 0.9515(3) 1.1808(5) 1.2809(2)
O4 O 0.9388(2) 1.3159(4) 1.04154(18)
H10 H 0.9378 1.3184 0.9793
C14 C 0.8506(4) 1.4267(6) 1.0469(3)
H11 H 0.7887 1.3561 1.0214
H12 H 0.8520 1.5408 1.0101
H13 H 0.8511 1.4589 1.1130
Ni1B Ni 1.02582(3) 0.96170(6) 0.89926(3)
Ni1A Ni 1.02582(3) 1.53830(6) 1.39926(3)
O1B O 1.09626(18) 1.0666(3) 1.02764(15)
O3A O 1.0433(2) 0.7789(4) 1.14352(15)
loop_
_geom_bond_atom_site_label_1
_geom_bond_atom_site_label_2
_geom_bond_site_symmetry_1
_geom_bond_site_symmetry_2
Ni1 O1 1_555 1_555
O1 C1 1_555 1_555
O2 Ni1 1_555 1_555
O3 C13 1_555 1_555
N1 Ni1 1_555 1_555
C1 C2 1_555 1_555
C2 H1 1_555 1_555
C3 C2 1_555 1_555
H2 C3 1_555 1_555
C4 C3 1_555 1_555
C5 C4 1_555 1_555
H3 C5 1_555 1_555
C6 C5 1_555 1_555
H4 C6 1_555 1_555
C7 C6 1_555 1_555
H5 C7 1_555 1_555
C8 C7 1_555 1_555
H6 C8 1_555 1_555
C9 C4 1_555 1_555
C10 C1 1_555 1_555
C11 N1 1_555 1_555
H7 C11 1_555 1_555
C12 N1 1_555 1_555
H8 C12 1_555 1_555
H9 C12 1_555 1_555
C13 O2 1_555 1_555
O4 Ni1 1_555 1_555
H10 O4 1_555 1_555
C14 O4 1_555 1_555
H11 C14 1_555 1_555
H12 C14 1_555 1_555
H13 C14 1_555 1_555
Ni1B O1 1_555 1_555
Ni1A O3 1_555 1_555
O1B Ni1 1_555 1_555
O3A Ni1 1_555 1_555
C8 C9 1_555 1_555
C9 C10 1_555 1_555
C10 C11 1_555 1_555
C12 C13 1_555 1_555
Ni1B O1B 1_555 1_555

#END
