
#######################################################################
#
#                 Cambridge Crystallographic Data Centre
#                                CCDC 
#
#######################################################################
#
# If this CIF has been generated from an entry in the Cambridge 
# Structural Database, then it will include bibliographic, chemical, 
# crystal, experimental, refinement or atomic coordinate data resulting 
# from the CCDC's data processing and validation procedures.
#
#######################################################################

data_DOCYEA
_symmetry_cell_setting           monoclinic
_symmetry_space_group_name_H-M   'P 21/c'
_symmetry_Int_Tables_number      14
_space_group_name_Hall           '-P 2ybc'
loop_
_symmetry_equiv_pos_site_id
_symmetry_equiv_pos_as_xyz
1 x,y,z
2 -x,1/2+y,1/2-z
3 -x,-y,-z
4 x,1/2-y,1/2+z
_cell_length_a                   7.6639(13)
_cell_length_b                   18.049(3)
_cell_length_c                   9.1059(15)
_cell_angle_alpha                90
_cell_angle_beta                 112.137(3)
_cell_angle_gamma                90
_cell_volume                     1166.73
loop_
_atom_site_label
_atom_site_type_symbol
_atom_site_fract_x
_atom_site_fract_y
_atom_site_fract_z
Mn1 Mn 0.5000 0.5000 0.5000
N1 N 0.3327(2) 0.58959(10) 0.8779(2)
N2 N 0.4584(2) 0.54409(10) 0.7152(2)
N3 N -0.3523(3) 0.79274(10) 0.8202(2)
N4 N -0.4697(2) 0.88274(9) 0.9199(2)
N5 N 0.1873(3) 0.50033(11) 0.3770(2)
N6 N 0.0824(3) 0.54269(11) 0.2933(2)
N7 N -0.0269(3) 0.58462(14) 0.2079(3)
C1 C 0.1921(3) 0.61776(14) 0.9382(3)
H1 H 0.2571 0.6462 1.0367
H2 H 0.1274 0.5754 0.9648
C2 C 0.0472(3) 0.66688(12) 0.8189(3)
H3 H -0.0371 0.6358 0.7313
H4 H 0.1125 0.7021 0.7735
C3 C -0.0709(3) 0.71029(12) 0.8912(3)
H5 H -0.1275 0.6759 0.9455
H6 H 0.0102 0.7457 0.9707
C4 C -0.2253(3) 0.75203(13) 0.7624(3)
H7 H -0.1667 0.7875 0.7117
H8 H -0.3003 0.7163 0.6802
C5 C 0.2997(3) 0.56270(12) 0.7314(3)
H9 H 0.1781 0.5578 0.6503
C6 C 0.5989(3) 0.55910(12) 0.8595(3)
H10 H 0.7294 0.5510 0.8844
C7 C 0.5243(3) 0.58713(12) 0.9609(3)
H11 H 0.5907 0.6020 1.0675
C8 C -0.3273(3) 0.86168(12) 0.8815(2)
H12 H -0.2201 0.8916 0.8955
C9 C -0.5921(3) 0.82360(12) 0.8814(3)
H13 H -0.7088 0.8220 0.8954
C10 C -0.5211(3) 0.76785(13) 0.8205(3)
H14 H -0.5773 0.7209 0.7851
Mn1C Mn -0.5000 1.0000 1.0000
Mn1C_2 Mn 1.5000 0.0000 0.0000
N1B N 0.6673(2) 0.41041(10) 0.1221(2)
N2B N 0.5416(2) 0.45591(10) 0.2848(2)
N3B N 1.3523(3) 0.20726(10) 0.1798(2)
N4B N 1.4697(2) 0.11726(9) 0.0801(2)
N4C N 0.5303(2) 0.61726(9) 0.4199(2)
N4A N 0.4697(2) 0.38274(9) 0.5801(2)
N5B N 0.8127(3) 0.49967(11) 0.6230(2)
N6B N 0.9176(3) 0.45731(11) 0.7067(2)
N7B N 1.0269(3) 0.41538(14) 0.7921(3)
C1B C 0.8079(3) 0.38224(14) 0.0618(3)
H1B H 0.7429 0.3538 -0.0367
H2B H 0.8726 0.4246 0.0352
C2B C 0.9528(3) 0.33312(12) 0.1811(3)
H3B H 1.0371 0.3642 0.2687
H4B H 0.8875 0.2979 0.2265
C3B C 1.0709(3) 0.28971(12) 0.1088(3)
H5B H 1.1275 0.3241 0.0545
H6B H 0.9898 0.2543 0.0293
C4B C 1.2253(3) 0.24797(13) 0.2376(3)
H7B H 1.1667 0.2125 0.2883
H8B H 1.3003 0.2837 0.3198
C5B C 0.7003(3) 0.43730(12) 0.2686(3)
H9B H 0.8219 0.4422 0.3497
C6B C 0.4011(3) 0.44090(12) 0.1405(3)
H10B H 0.2706 0.4490 0.1156
C7B C 0.4757(3) 0.41287(12) 0.0391(3)
H11B H 0.4093 0.3980 -0.0675
C8B C 1.3273(3) 0.13832(12) 0.1185(2)
H12B H 1.2201 0.1084 0.1045
C9B C 1.5921(3) 0.17640(12) 0.1186(3)
H13B H 1.7088 0.1780 0.1046
C10B C 1.5211(3) 0.23215(13) 0.1795(3)
H14B H 1.5773 0.2791 0.2149
loop_
_geom_bond_atom_site_label_1
_geom_bond_atom_site_label_2
_geom_bond_site_symmetry_1
_geom_bond_site_symmetry_2
Mn1 N2 1_555 1_555
N1 C1 1_555 1_555
N2 C5 1_555 1_555
N3 C4 1_555 1_555
N4 C8 1_555 1_555
N5 Mn1 1_555 1_555
N6 N5 1_555 1_555
N7 N6 1_555 1_555
C1 H1 1_555 1_555
H2 C1 1_555 1_555
C2 C1 1_555 1_555
H3 C2 1_555 1_555
H4 C2 1_555 1_555
C3 C2 1_555 1_555
H5 C3 1_555 1_555
H6 C3 1_555 1_555
C4 C3 1_555 1_555
H7 C4 1_555 1_555
H8 C4 1_555 1_555
C5 N1 1_555 1_555
H9 C5 1_555 1_555
C6 N2 1_555 1_555
H10 C6 1_555 1_555
C7 N1 1_555 1_555
H11 C7 1_555 1_555
C8 N3 1_555 1_555
H12 C8 1_555 1_555
C9 N4 1_555 1_555
H13 C9 1_555 1_555
C10 N3 1_555 1_555
H14 C10 1_555 1_555
Mn1C N4 1_555 1_555
Mn1C_2 N4B 1_555 1_555
N1B C1B 1_555 1_555
N2B Mn1 1_555 1_555
N3B C4B 1_555 1_555
N4B C8B 1_555 1_555
N4C Mn1 1_555 1_555
N4A Mn1 1_555 1_555
N5B Mn1 1_555 1_555
N6B N5B 1_555 1_555
N7B N6B 1_555 1_555
C1B H1B 1_555 1_555
H2B C1B 1_555 1_555
C2B C1B 1_555 1_555
H3B C2B 1_555 1_555
H4B C2B 1_555 1_555
C3B C2B 1_555 1_555
H5B C3B 1_555 1_555
H6B C3B 1_555 1_555
C4B C3B 1_555 1_555
H7B C4B 1_555 1_555
H8B C4B 1_555 1_555
C5B N1B 1_555 1_555
H9B C5B 1_555 1_555
C6B N2B 1_555 1_555
H10B C6B 1_555 1_555
C7B N1B 1_555 1_555
H11B C7B 1_555 1_555
C8B N3B 1_555 1_555
H12B C8B 1_555 1_555
C9B N4B 1_555 1_555
H13B C9B 1_555 1_555
C10B N3B 1_555 1_555
H14B C10B 1_555 1_555
C6 C7 1_555 1_555
C9 C10 1_555 1_555
N2B C5B 1_555 1_555
C6B C7B 1_555 1_555
C9B C10B 1_555 1_555

#END
