
#######################################################################
#
#                 Cambridge Crystallographic Data Centre
#                                CCDC 
#
#######################################################################
#
# If this CIF has been generated from an entry in the Cambridge 
# Structural Database, then it will include bibliographic, chemical, 
# crystal, experimental, refinement or atomic coordinate data resulting 
# from the CCDC's data processing and validation procedures.
#
#######################################################################

data_DOCYIE
_symmetry_cell_setting           triclinic
_symmetry_space_group_name_H-M   'P -1'
_symmetry_Int_Tables_number      2
_space_group_name_Hall           '-P 1'
loop_
_symmetry_equiv_pos_site_id
_symmetry_equiv_pos_as_xyz
1 x,y,z
2 -x,-y,-z
_cell_length_a                   6.6814(5)
_cell_length_b                   10.0929(7)
_cell_length_c                   15.4380(11)
_cell_angle_alpha                81.544(1)
_cell_angle_beta                 79.066(1)
_cell_angle_gamma                82.278(1)
_cell_volume                     1004.95
loop_
_atom_site_label
_atom_site_type_symbol
_atom_site_fract_x
_atom_site_fract_y
_atom_site_fract_z
Zn1 Zn 0.17365(3) 0.98165(2) 0.236640(14)
P1 P 0.63688(7) 0.99208(5) 0.28765(3)
P2 P 0.31948(7) 0.83768(5) 0.41773(3)
P3 P 0.81709(8) 0.44836(5) 0.29785(3)
O1 O 0.4913(2) 1.00514(14) 0.22353(9)
O2 O 0.5748(3) 1.10621(15) 0.34947(11)
H1 H 0.640(5) 1.155(3) 0.347(2)
O3 O 0.8590(2) 0.98235(15) 0.24905(10)
O4 O 0.1999(2) 0.83311(14) 0.34464(9)
O5 O 0.3108(3) 0.70021(15) 0.47946(10)
H2 H 0.283(5) 0.705(3) 0.527(2)
O6 O 0.2616(2) 0.95545(14) 0.46859(10)
O7 O 0.7781(2) 0.31125(14) 0.35102(9)
O8 O 0.7403(3) 0.45762(16) 0.20701(10)
H3 H 0.617(4) 0.428(3) 0.2150(18)
O9 O 1.0363(3) 0.47469(17) 0.27975(13)
C1 C 0.5938(3) 0.83638(17) 0.36524(12)
N1 N 0.7256(3) 0.83331(17) 0.43523(11)
H4 H 0.7091 0.7598 0.4744
H5 H 0.6886 0.9062 0.4631
H6 H 0.8567 0.8321 0.4094
C2 C 0.6764(3) 0.71793(18) 0.30995(13)
H7 H 0.6034 0.7285 0.2603
H8 H 0.8196 0.7263 0.2854
C3 C 0.6608(4) 0.5754(2) 0.35787(14)
H9 H 0.5189 0.5569 0.3679
H10 H 0.7012 0.5703 0.4155
N2 N 0.1700(2) 1.11254(16) 0.11510(11)
N3 N 0.2394(2) 0.84669(16) 0.13823(11)
C4 C 0.1287(3) 1.2467(2) 0.10821(15)
H11 H 0.0915 1.2877 0.1599
C5 C 0.1392(4) 1.3262(2) 0.02755(16)
H12 H 0.1116 1.4194 0.0251
C6 C 0.1909(3) 1.2669(2) -0.04938(15)
H13 H 0.1994 1.3193 -0.1045
C7 C 0.2300(3) 1.1283(2) -0.04355(14)
H14 H 0.2628 1.0856 -0.0946
C8 C 0.2193(3) 1.05375(19) 0.04039(13)
C9 C 0.2590(3) 0.90428(19) 0.05319(12)
C10 C 0.3115(3) 0.8286(2) -0.01730(14)
H15 H 0.3277 0.8703 -0.0757
C11 C 0.3393(4) 0.6896(2) 0.00100(15)
H16 H 0.3733 0.6364 -0.0451
C12 C 0.3163(4) 0.6310(2) 0.08780(16)
H17 H 0.3339 0.5377 0.1013
C13 C 0.2666(3) 0.7126(2) 0.15485(14)
H18 H 0.2516 0.6726 0.2136
O10 O 0.1254(2) 1.13260(16) 0.32528(12)
H19 H 0.0051 1.1651 0.3316
H20 H 0.137(5) 1.106(3) 0.368(2)
Zn1_2 Zn 1.17365(3) 0.98165(2) 0.236640(14)
O3_2 O -0.1410(2) 0.98235(15) 0.24905(10)
O11 O 0.4077(3) 0.3450(2) 0.22429(16)
H21 H 0.296(5) 0.383(3) 0.261(2)
H22 H 0.404(8) 0.265(5) 0.248(3)
O12 O 0.1918(5) 0.4145(3) 0.44565(19)
H23 H 0.162(7) 0.424(5) 0.399(3)
H24 H 0.171(12) 0.498(8) 0.459(5)
loop_
_geom_bond_atom_site_label_1
_geom_bond_atom_site_label_2
_geom_bond_site_symmetry_1
_geom_bond_site_symmetry_2
Zn1 O1 1_555 1_555
P1 O1 1_555 1_555
P2 O4 1_555 1_555
P3 O7 1_555 1_555
O2 P1 1_555 1_555
H1 O2 1_555 1_555
O3 P1 1_555 1_555
O4 Zn1 1_555 1_555
O5 P2 1_555 1_555
H2 O5 1_555 1_555
O6 P2 1_555 1_555
O8 P3 1_555 1_555
H3 O8 1_555 1_555
O9 P3 1_555 1_555
C1 P1 1_555 1_555
N1 C1 1_555 1_555
H4 N1 1_555 1_555
H5 N1 1_555 1_555
H6 N1 1_555 1_555
C2 C1 1_555 1_555
H7 C2 1_555 1_555
H8 C2 1_555 1_555
C3 P3 1_555 1_555
H9 C3 1_555 1_555
H10 C3 1_555 1_555
N2 Zn1 1_555 1_555
N3 Zn1 1_555 1_555
C4 N2 1_555 1_555
H11 C4 1_555 1_555
C5 C4 1_555 1_555
H12 C5 1_555 1_555
C6 C5 1_555 1_555
H13 C6 1_555 1_555
C7 C6 1_555 1_555
H14 C7 1_555 1_555
C8 N2 1_555 1_555
C9 N3 1_555 1_555
C10 C9 1_555 1_555
H15 C10 1_555 1_555
C11 C10 1_555 1_555
H16 C11 1_555 1_555
C12 C11 1_555 1_555
H17 C12 1_555 1_555
C13 N3 1_555 1_555
H18 C13 1_555 1_555
O10 Zn1 1_555 1_555
H19 O10 1_555 1_555
O11 H21 1_555 1_555
O12 H23 1_555 1_555
H20 O10 1_555 1_555
H22 O11 1_555 1_555
H24 O12 1_555 1_555
Zn1_2 O3 1_555 1_555
O3_2 Zn1 1_555 1_555
P2 C1 1_555 1_555
C2 C3 1_555 1_555
C7 C8 1_555 1_555
C8 C9 1_555 1_555
C12 C13 1_555 1_555

#END
