
#######################################################################
#
#                 Cambridge Crystallographic Data Centre
#                                CCDC 
#
#######################################################################
#
# If this CIF has been generated from an entry in the Cambridge 
# Structural Database, then it will include bibliographic, chemical, 
# crystal, experimental, refinement or atomic coordinate data resulting 
# from the CCDC's data processing and validation procedures.
#
#######################################################################

data_DOCYAW
_symmetry_cell_setting           triclinic
_symmetry_space_group_name_H-M   'P -1'
_symmetry_Int_Tables_number      2
_space_group_name_Hall           '-P 1'
loop_
_symmetry_equiv_pos_site_id
_symmetry_equiv_pos_as_xyz
1 x,y,z
2 -x,-y,-z
_cell_length_a                   7.5605(19)
_cell_length_b                   10.270(3)
_cell_length_c                   10.383(3)
_cell_angle_alpha                110.145(3)
_cell_angle_beta                 102.818(3)
_cell_angle_gamma                107.748(3)
_cell_volume                     670.975
loop_
_atom_site_label
_atom_site_type_symbol
_atom_site_fract_x
_atom_site_fract_y
_atom_site_fract_z
Mn1 Mn 0.0000 0.5000 0.5000
N1 N 0.27302(19) 0.66267(14) 0.22114(14)
N2 N 0.19033(19) 0.58853(15) 0.38370(14)
N3 N 0.06918(19) 1.07950(15) 0.26096(14)
N4 N 0.0086(2) 1.26934(15) 0.39358(15)
N5 N 0.5999(2) 0.70842(18) 0.89249(16)
N6 N 0.2752(2) 0.57612(18) 0.69059(16)
N7 N 0.7368(2) 0.64798(17) 1.09080(17)
C1 C 0.2531(2) 0.70044(18) 0.09616(17)
H1 H 0.1122 0.6800 0.0492
H2 H 0.2892 0.6337 0.0221
C2 C 0.3852(2) 0.86676(19) 0.14262(19)
H3 H 0.3768 0.8828 0.0531
H4 H 0.5254 0.8872 0.1922
C3 C 0.3305(2) 0.98144(18) 0.24579(19)
H5 H 0.3042 0.9500 0.3222
H6 H 0.4443 1.0830 0.2959
C4 C 0.1475(2) 0.99258(18) 0.16279(18)
H7 H 0.1822 1.0420 0.0996
H8 H 0.0420 0.8884 0.0976
C5 C 0.1266(2) 0.61448(17) 0.26965(17)
H9 H -0.0066 0.6007 0.2271
C6 C 0.3900(2) 0.62259(18) 0.40840(18)
H10 H 0.4778 0.6155 0.4842
C7 C 0.4422(2) 0.66739(19) 0.30919(19)
H11 H 0.5701 0.6963 0.3018
C8 C 0.0933(2) 1.22471(18) 0.29836(18)
H12 H 0.1628 1.2875 0.2608
C9 C -0.0735(3) 1.14489(19) 0.4178(2)
H13 H -0.1454 1.1416 0.4817
C10 C -0.0371(3) 1.02778(19) 0.3375(2)
H14 H -0.0772 0.9295 0.3348
C11 C 0.4244(2) 0.63154(19) 0.78818(18)
C12 C 0.6624(2) 0.66749(18) 0.99377(18)
Mn1_2 Mn 0.0000 1.5000 0.5000
Mn1_3 Mn 0.0000 -0.5000 0.5000
N1A N -0.27302(19) 0.33733(14) 0.77886(14)
N2A N -0.19033(19) 0.41147(15) 0.61630(14)
N3A N -0.06918(19) -0.07950(15) 0.73904(14)
N4A N -0.0086(2) -0.26934(15) 0.60642(15)
N4_2 N 0.0086(2) 0.26934(15) 0.39358(15)
N4A_2 N -0.0086(2) 0.73066(15) 0.60642(15)
N5A N -0.5999(2) 0.29158(18) 0.10751(16)
N6A N -0.2752(2) 0.42388(18) 0.30941(16)
N7A N -0.7368(2) 0.35202(17) -0.09080(17)
C1A C -0.2531(2) 0.29956(18) 0.90384(17)
H1A H -0.1122 0.3200 0.9508
H2A H -0.2892 0.3663 0.9779
C2A C -0.3852(2) 0.13324(19) 0.85738(19)
H3A H -0.3768 0.1172 0.9469
H4A H -0.5254 0.1128 0.8078
C3A C -0.3305(2) 0.01856(18) 0.75421(19)
H5A H -0.3042 0.0500 0.6778
H6A H -0.4443 -0.0830 0.7041
C4A C -0.1475(2) 0.00742(18) 0.83721(18)
H7A H -0.1822 -0.0420 0.9004
H8A H -0.0420 0.1116 0.9024
C5A C -0.1266(2) 0.38552(17) 0.73035(17)
H9A H 0.0066 0.3993 0.7729
C6A C -0.3900(2) 0.37741(18) 0.59160(18)
H10A H -0.4778 0.3845 0.5158
C7A C -0.4422(2) 0.33261(19) 0.69081(19)
H11A H -0.5701 0.3037 0.6982
C8A C -0.0933(2) -0.22471(18) 0.70164(18)
H12A H -0.1628 -0.2875 0.7392
C9A C 0.0735(3) -0.14489(19) 0.5822(2)
H13A H 0.1454 -0.1416 0.5183
C10A C 0.0371(3) -0.02778(19) 0.6625(2)
H14A H 0.0772 0.0705 0.6652
C11A C -0.4244(2) 0.36846(19) 0.21182(18)
C12A C -0.6624(2) 0.33251(18) 0.00623(18)
loop_
_geom_bond_atom_site_label_1
_geom_bond_atom_site_label_2
_geom_bond_site_symmetry_1
_geom_bond_site_symmetry_2
Mn1 N2 1_555 1_555
N1 C1 1_555 1_555
N2 C5 1_555 1_555
N3 C4 1_555 1_555
N4 C8 1_555 1_555
N5 C11 1_555 1_555
N6 Mn1 1_555 1_555
N7 C12 1_555 1_555
C1 H1 1_555 1_555
H2 C1 1_555 1_555
C2 C1 1_555 1_555
H3 C2 1_555 1_555
H4 C2 1_555 1_555
C3 C2 1_555 1_555
H5 C3 1_555 1_555
H6 C3 1_555 1_555
C4 C3 1_555 1_555
H7 C4 1_555 1_555
H8 C4 1_555 1_555
C5 N1 1_555 1_555
H9 C5 1_555 1_555
C6 N2 1_555 1_555
H10 C6 1_555 1_555
C7 N1 1_555 1_555
H11 C7 1_555 1_555
C8 N3 1_555 1_555
H12 C8 1_555 1_555
C9 N4 1_555 1_555
H13 C9 1_555 1_555
C10 N3 1_555 1_555
H14 C10 1_555 1_555
C11 N6 1_555 1_555
C12 N5 1_555 1_555
Mn1_2 N4 1_555 1_555
Mn1_3 N4A 1_555 1_555
N1A C1A 1_555 1_555
N2A Mn1 1_555 1_555
N3A C4A 1_555 1_555
N4A C8A 1_555 1_555
N4_2 Mn1 1_555 1_555
N4A_2 Mn1 1_555 1_555
N5A C11A 1_555 1_555
N6A Mn1 1_555 1_555
N7A C12A 1_555 1_555
C1A H1A 1_555 1_555
H2A C1A 1_555 1_555
C2A C1A 1_555 1_555
H3A C2A 1_555 1_555
H4A C2A 1_555 1_555
C3A C2A 1_555 1_555
H5A C3A 1_555 1_555
H6A C3A 1_555 1_555
C4A C3A 1_555 1_555
H7A C4A 1_555 1_555
H8A C4A 1_555 1_555
C5A N1A 1_555 1_555
H9A C5A 1_555 1_555
C6A N2A 1_555 1_555
H10A C6A 1_555 1_555
C7A N1A 1_555 1_555
H11A C7A 1_555 1_555
C8A N3A 1_555 1_555
H12A C8A 1_555 1_555
C9A N4A 1_555 1_555
H13A C9A 1_555 1_555
C10A N3A 1_555 1_555
H14A C10A 1_555 1_555
C11A N6A 1_555 1_555
C12A N5A 1_555 1_555
C6 C7 1_555 1_555
C9 C10 1_555 1_555
N2A C5A 1_555 1_555
C6A C7A 1_555 1_555
C9A C10A 1_555 1_555

#END
