
#######################################################################
#
#                 Cambridge Crystallographic Data Centre
#                                CCDC 
#
#######################################################################
#
# If this CIF has been generated from an entry in the Cambridge 
# Structural Database, then it will include bibliographic, chemical, 
# crystal, experimental, refinement or atomic coordinate data resulting 
# from the CCDC's data processing and validation procedures.
#
#######################################################################

data_DOCYUQ
_symmetry_cell_setting           triclinic
_symmetry_space_group_name_H-M   'P -1'
_symmetry_Int_Tables_number      2
_space_group_name_Hall           '-P 1'
loop_
_symmetry_equiv_pos_site_id
_symmetry_equiv_pos_as_xyz
1 x,y,z
2 -x,-y,-z
_cell_length_a                   6.9380(8)
_cell_length_b                   10.0430(11)
_cell_length_c                   15.6811(17)
_cell_angle_alpha                81.357(2)
_cell_angle_beta                 78.510(2)
_cell_angle_gamma                81.902(2)
_cell_volume                     1051.61
loop_
_atom_site_label
_atom_site_type_symbol
_atom_site_fract_x
_atom_site_fract_y
_atom_site_fract_z
C1 C -0.3633(5) 0.7537(3) 0.0932(2)
H1 H -0.4000 0.7980 0.1429
C2 C -0.3456(5) 0.8294(3) 0.0123(2)
H2 H -0.3671 0.9235 0.0075
C3 C -0.2957(5) 0.7649(3) -0.0616(2)
H3 H -0.2846 0.8145 -0.1171
C4 C -0.2624(5) 0.6252(3) -0.05204(18)
H4 H -0.2291 0.5792 -0.1011
C5 C -0.2789(3) 0.5540(3) 0.03152(16)
C6 C -0.2438(4) 0.4033(3) 0.04584(16)
C7 C -0.1925(4) 0.3263(3) -0.02317(18)
H5 H -0.1760 0.3682 -0.0808
C8 C -0.1660(5) 0.1867(3) -0.0054(2)
H6 H -0.1327 0.1335 -0.0510
C9 C -0.1892(5) 0.1270(3) 0.0806(2)
H7 H -0.1726 0.0332 0.0940
C10 C -0.2378(4) 0.2095(3) 0.14613(19)
H8 H -0.2521 0.1696 0.2042
C11 C 0.0816(4) 0.3403(2) 0.36741(15)
C12 C 0.1602(4) 0.2235(2) 0.31085(16)
H9 H 0.0843 0.2338 0.2641
H10 H 0.2963 0.2345 0.2836
C13 C 0.1546(5) 0.0785(3) 0.35739(18)
H11 H 0.0175 0.0611 0.3759
H12 H 0.2122 0.0709 0.4097
Cd1 Cd -0.33664(2) 0.486430(18) 0.238820(11)
H13 H 0.138(6) 0.668(4) 0.349(3)
H14 H 0.074(8) -0.083(6) 0.227(3)
H15 H -0.206(7) 0.207(5) 0.529(3)
H20 H -0.381(7) 0.600(5) 0.386(3)
H21 H -0.500(7) 0.681(4) 0.353(3)
N1 N -0.3297(3) 0.6177(2) 0.10321(14)
N2 N -0.2650(3) 0.3445(2) 0.12982(14)
N3 N 0.2118(4) 0.3353(2) 0.43486(15)
H22 H 0.1963 0.2613 0.4734
H23 H 0.1779 0.4085 0.4626
H24 H 0.3379 0.3333 0.4082
O1 O 0.3368(3) 0.4909(2) 0.25528(14)
O2 O -0.0128(3) 0.51368(19) 0.22770(12)
O3 O 0.0584(3) 0.6126(2) 0.35483(14)
O4 O -0.2979(3) 0.32307(19) 0.35324(12)
O5 O -0.2443(3) 0.45473(19) 0.47220(12)
O6 O -0.1752(4) 0.1985(2) 0.48483(14)
O7 O 0.4878(4) -0.0181(2) 0.2541(2)
O8 O 0.2646(3) -0.18545(17) 0.34730(12)
O9 O 0.1738(5) -0.0412(3) 0.21226(16)
O12 O -0.3911(3) 0.6416(2) 0.33987(15)
P1 P 0.12155(9) 0.49926(6) 0.29263(4)
P2 P -0.18136(10) 0.33589(6) 0.42259(4)
P3 P 0.28351(11) -0.04845(6) 0.29118(4)
Cd1_2 Cd 0.66336(2) 0.486430(18) 0.238820(11)
O1_2 O -0.6632(3) 0.4909(2) 0.25528(14)
H16 H 0.362(8) 0.018(5) 0.579(4)
H17 H 0.422(5) 0.103(5) 0.499(2)
O10 O 0.3123(8) 0.0922(6) 0.5504(3)
H18 H 0.717(3) 0.897(4) 0.255(3)
H19 H 0.865(6) 0.7691(15) 0.258(6)
O11 O 0.8516(7) 0.8551(4) 0.2451(4)
loop_
_geom_bond_atom_site_label_1
_geom_bond_atom_site_label_2
_geom_bond_site_symmetry_1
_geom_bond_site_symmetry_2
C1 H1 1_555 1_555
C2 C1 1_555 1_555
H2 C2 1_555 1_555
C3 C2 1_555 1_555
H3 C3 1_555 1_555
C4 C3 1_555 1_555
H4 C4 1_555 1_555
C5 C4 1_555 1_555
C6 C5 1_555 1_555
C7 C6 1_555 1_555
H5 C7 1_555 1_555
C8 C7 1_555 1_555
H6 C8 1_555 1_555
C9 C8 1_555 1_555
H7 C9 1_555 1_555
C10 C9 1_555 1_555
H8 C10 1_555 1_555
C11 C12 1_555 1_555
C12 H9 1_555 1_555
H10 C12 1_555 1_555
C13 C12 1_555 1_555
H11 C13 1_555 1_555
H12 C13 1_555 1_555
Cd1 N1 1_555 1_555
H13 O3 1_555 1_555
H14 O9 1_555 1_555
H15 O6 1_555 1_555
H16 O10 1_555 1_555
H17 O10 1_555 1_555
H18 O11 1_555 1_555
H19 O11 1_555 1_555
H20 O12 1_555 1_555
H21 O12 1_555 1_555
N1 C1 1_555 1_555
N2 C6 1_555 1_555
N3 C11 1_555 1_555
H22 N3 1_555 1_555
H23 N3 1_555 1_555
H24 N3 1_555 1_555
O1 P1 1_555 1_555
O2 Cd1 1_555 1_555
O3 P1 1_555 1_555
O4 Cd1 1_555 1_555
O5 P2 1_555 1_555
O6 P2 1_555 1_555
O7 P3 1_555 1_555
O8 P3 1_555 1_555
O9 P3 1_555 1_555
O12 Cd1 1_555 1_555
P1 C11 1_555 1_555
P2 C11 1_555 1_555
P3 C13 1_555 1_555
Cd1_2 O1 1_555 1_555
O1_2 Cd1 1_555 1_555
C5 N1 1_555 1_555
C10 N2 1_555 1_555
Cd1 N2 1_555 1_555
O2 P1 1_555 1_555
O4 P2 1_555 1_555

#END
