
#######################################################################
#
#                 Cambridge Crystallographic Data Centre
#                                CCDC 
#
#######################################################################
#
# If this CIF has been generated from an entry in the Cambridge 
# Structural Database, then it will include bibliographic, chemical, 
# crystal, experimental, refinement or atomic coordinate data resulting 
# from the CCDC's data processing and validation procedures.
#
#######################################################################

data_DODHUA
_symmetry_cell_setting           triclinic
_symmetry_space_group_name_H-M   'P -1'
_symmetry_Int_Tables_number      2
_space_group_name_Hall           '-P 1'
loop_
_symmetry_equiv_pos_site_id
_symmetry_equiv_pos_as_xyz
1 x,y,z
2 -x,-y,-z
_cell_length_a                   7.3096(17)
_cell_length_b                   12.267(3)
_cell_length_c                   13.891(3)
_cell_angle_alpha                82.960(4)
_cell_angle_beta                 80.951(4)
_cell_angle_gamma                72.897(4)
_cell_volume                     1171.82
loop_
_atom_site_label
_atom_site_type_symbol
_atom_site_fract_x
_atom_site_fract_y
_atom_site_fract_z
C1 C -0.0427(8) 0.1752(4) 0.7302(4)
C2 C -0.0813(8) 0.0947(5) 0.6804(5)
H1 H -0.2088 0.1007 0.6740
C3 C 0.0626(8) 0.0065(4) 0.6401(4)
H2 H 0.0331 -0.0474 0.6083
C4 C 0.2547(7) -0.0010(4) 0.6478(4)
C5 C 0.2985(7) 0.0808(4) 0.6941(3)
H3 H 0.4264 0.0768 0.6975
C6 C 0.1474(7) 0.1699(4) 0.7358(3)
C7 C 0.4068(7) -0.0940(4) 0.5990(4)
C8 C 0.5920(7) -0.1498(4) 0.6415(4)
C9 C 0.7561(8) -0.1972(5) 0.5782(4)
H4 H 0.7530 -0.1918 0.5111
C10 C 0.9264(8) -0.2534(5) 0.6189(4)
H5 H 1.0387 -0.2819 0.5770
C11 C 0.9343(8) -0.2676(5) 0.7149(4)
C12 C 0.7674(7) -0.2231(4) 0.7820(3)
C13 C 0.5977(8) -0.1631(4) 0.7422(4)
H6 H 0.4866 -0.1315 0.7838
C14 C -0.2080(7) 0.2666(4) 0.7727(4)
C15 C 0.2077(6) 0.2585(4) 0.7789(3)
C16 C 0.7642(8) -0.2405(5) 0.8888(4)
C17 C 1.1253(7) -0.3314(5) 0.7495(3)
C18 C -0.5418(9) 0.5815(5) 0.5611(4)
H7 H -0.5723 0.6399 0.6028
C19 C -0.5008(8) 0.6061(5) 0.4636(4)
H8 H -0.5006 0.6802 0.4396
C20 C -0.1700(10) 0.0719(6) 0.9890(6)
H9 H -0.2914 0.1209 0.9803
C21 C -0.1500(10) -0.0441(6) 1.0104(5)
H10 H -0.2577 -0.0716 1.0183
N1 N -0.5396(6) 0.4762(4) 0.5986(3)
N2 N -0.0213(7) 0.1152(5) 0.9804(4)
Ni1 Ni -0.58402(9) 0.43689(5) 0.74900(4)
Ni2 Ni -0.04793(11) 0.28756(7) 0.96054(5)
O1 O -0.3521(5) 0.2988(3) 0.7273(3)
O2 O -0.2039(6) 0.3063(4) 0.8494(3)
O3 O 0.1995(7) 0.2583(4) 0.8686(3)
O4 O 0.2695(5) 0.3282(3) 0.7176(2)
O5 O 0.3833(6) -0.1225(4) 0.5226(3)
O6 O 0.6099(6) -0.2105(5) 0.9427(3)
O7 O 0.9303(6) -0.2857(4) 0.9176(3)
O8 O 1.2456(6) -0.2812(3) 0.7537(3)
O9 O 1.1561(5) -0.4406(3) 0.7599(3)
O10 O -0.4136(6) 0.5418(3) 0.7660(3)
H11 H -0.491(10) 0.620(6) 0.764(5)
H12 H -0.309(11) 0.533(6) 0.714(5)
O11 O -0.6097(5) 0.4076(3) 0.9005(3)
H13 H -0.7080 0.3693 0.9220
H14 H -0.4888 0.3602 0.9194
C1_2 C -1.0427(8) 0.1752(4) 0.7302(4)
C2_2 C -1.0813(8) 0.0947(5) 0.6804(5)
H1_2 H -1.2088 0.1007 0.6740
C3_2 C -0.9374(8) 0.0065(4) 0.6401(4)
H2_2 H -0.9669 -0.0474 0.6083
C4_2 C -0.7453(7) -0.0010(4) 0.6478(4)
C5_2 C -0.7015(7) 0.0808(4) 0.6941(3)
H3_2 H -0.5736 0.0768 0.6975
C6_2 C -0.8526(7) 0.1699(4) 0.7358(3)
C7_2 C -0.5932(7) -0.0940(4) 0.5990(4)
C8_2 C -0.4080(7) -0.1498(4) 0.6415(4)
C9_2 C -0.2439(8) -0.1972(5) 0.5782(4)
H4_2 H -0.2470 -0.1918 0.5111
C10_2 C -0.0736(8) -0.2534(5) 0.6189(4)
H5_2 H 0.0387 -0.2819 0.5770
C11_2 C -0.0657(8) -0.2676(5) 0.7149(4)
C12_2 C -0.2326(7) -0.2231(4) 0.7820(3)
C13_2 C -0.4023(8) -0.1631(4) 0.7422(4)
H6_2 H -0.5134 -0.1315 0.7838
C14_2 C -1.2080(7) 0.2666(4) 0.7727(4)
C15_2 C -0.7923(6) 0.2585(4) 0.7789(3)
C16_2 C -0.2358(8) -0.2405(5) 0.8888(4)
C17_2 C 0.1253(7) -0.3314(5) 0.7495(3)
C18A C -0.4582(9) 0.4185(5) 0.4389(4)
H7A H -0.4277 0.3601 0.3972
C19A C -0.4992(8) 0.3939(5) 0.5364(4)
H8A H -0.4994 0.3198 0.5604
C20A C 0.1700(10) -0.0719(6) 1.0110(6)
H9A H 0.2914 -0.1209 1.0197
C21A C 0.1500(10) 0.0441(6) 0.9896(5)
H10A H 0.2577 0.0716 0.9817
N1A N -0.4604(6) 0.5238(4) 0.4014(3)
N2A N 0.0213(7) -0.1152(5) 1.0196(4)
N2_2 N -1.0213(7) 0.1152(5) 0.9804(4)
Ni1A Ni -0.41598(9) 0.56311(5) 0.25100(4)
Ni1_2 Ni 0.41598(9) 0.43689(5) 0.74900(4)
Ni1_3 Ni 1.41598(9) -0.56311(5) 0.74900(4)
Ni1_4 Ni -1.58402(9) 0.43689(5) 0.74900(4)
Ni1_5 Ni 0.41598(9) -0.56311(5) 0.74900(4)
Ni2_2 Ni -1.04793(11) 0.28756(7) 0.96054(5)
Ni2A Ni 1.04793(11) -0.28756(7) 1.03946(5)
Ni2A_2 Ni 0.04793(11) -0.28756(7) 1.03946(5)
O1_2 O -1.3521(5) 0.2988(3) 0.7273(3)
O1A O -0.6479(5) 0.7012(3) 0.2727(3)
O2_2 O -1.2039(6) 0.3063(4) 0.8494(3)
O3_2 O -0.8005(7) 0.2583(4) 0.8686(3)
O4_2 O -0.7305(5) 0.3282(3) 0.7176(2)
O4A O -0.2695(5) 0.6718(3) 0.2824(2)
O5_2 O -0.6167(6) -0.1225(4) 0.5226(3)
O6_2 O -0.3901(6) -0.2105(5) 0.9427(3)
O7_2 O -0.0697(6) -0.2857(4) 0.9176(3)
O7A O 0.0697(6) 0.2857(4) 1.0824(3)
O7A_2 O -0.9303(6) 0.2857(4) 1.0824(3)
O8_2 O 0.2456(6) -0.2812(3) 0.7537(3)
O9_2 O 0.1561(5) -0.4406(3) 0.7599(3)
O9_3 O -0.8439(5) 0.5594(3) 0.7599(3)
O9A O -0.1561(5) 0.4406(3) 0.2401(3)
O10A O -0.5864(6) 0.4582(3) 0.2340(3)
H11A H -0.509(10) 0.380(6) 0.236(5)
H12A H -0.691(11) 0.467(6) 0.286(5)
O11A O -0.3903(5) 0.5924(3) 0.0995(3)
H13A H -0.2920 0.6307 0.0780
H14A H -0.5112 0.6398 0.0806
O12 O 0.0714(17) 0.5292(8) 0.3803(11)
H15 H -0.0416 0.5695 0.3708
H16 H 0.1268 0.5722 0.4009
loop_
_geom_bond_atom_site_label_1
_geom_bond_atom_site_label_2
_geom_bond_site_symmetry_1
_geom_bond_site_symmetry_2
C1 C2 1_555 1_555
C2 H1 1_555 1_555
C3 C2 1_555 1_555
H2 C3 1_555 1_555
C4 C3 1_555 1_555
C5 C4 1_555 1_555
H3 C5 1_555 1_555
C6 C1 1_555 1_555
C7 C4 1_555 1_555
C8 C7 1_555 1_555
C9 C8 1_555 1_555
H4 C9 1_555 1_555
C10 C9 1_555 1_555
H5 C10 1_555 1_555
C11 C10 1_555 1_555
C12 C11 1_555 1_555
C13 C8 1_555 1_555
H6 C13 1_555 1_555
C14 C1 1_555 1_555
C15 C6 1_555 1_555
C16 C12 1_555 1_555
C17 C11 1_555 1_555
C18 H7 1_555 1_555
C19 C18 1_555 1_555
H8 C19 1_555 1_555
C20 H9 1_555 1_555
C21 C20 1_555 1_555
H10 C21 1_555 1_555
N1 C18 1_555 1_555
N2 C20 1_555 1_555
Ni1 N1 1_555 1_555
Ni2 N2 1_555 1_555
O1 C14 1_555 1_555
O2 C14 1_555 1_555
O3 C15 1_555 1_555
O4 C15 1_555 1_555
O5 C7 1_555 1_555
O6 C16 1_555 1_555
O7 C16 1_555 1_555
O8 C17 1_555 1_555
O9 C17 1_555 1_555
O10 Ni1 1_555 1_555
H11 O10 1_555 1_555
H12 O10 1_555 1_555
O11 Ni1 1_555 1_555
H13 O11 1_555 1_555
H14 O11 1_555 1_555
O12 H15 1_555 1_555
H16 O12 1_555 1_555
C1_2 C2_2 1_555 1_555
C2_2 H1_2 1_555 1_555
C3_2 C2_2 1_555 1_555
H2_2 C3_2 1_555 1_555
C4_2 C3_2 1_555 1_555
C5_2 C4_2 1_555 1_555
H3_2 C5_2 1_555 1_555
C6_2 C1_2 1_555 1_555
C7_2 C4_2 1_555 1_555
C8_2 C7_2 1_555 1_555
C9_2 C8_2 1_555 1_555
H4_2 C9_2 1_555 1_555
C10_2 C9_2 1_555 1_555
H5_2 C10_2 1_555 1_555
C11_2 C10_2 1_555 1_555
C12_2 C11_2 1_555 1_555
C13_2 C8_2 1_555 1_555
H6_2 C13_2 1_555 1_555
C14_2 C1_2 1_555 1_555
C15_2 C6_2 1_555 1_555
C16_2 C12_2 1_555 1_555
C17_2 C11_2 1_555 1_555
C18A H7A 1_555 1_555
C19A N1 1_555 1_555
H8A C19A 1_555 1_555
C20A H9A 1_555 1_555
C21A N2 1_555 1_555
H10A C21A 1_555 1_555
N1A C19 1_555 1_555
N2A C21 1_555 1_555
N2_2 Ni2_2 1_555 1_555
Ni1A N1A 1_555 1_555
Ni1_2 O4 1_555 1_555
Ni1_3 O9 1_555 1_555
Ni1_4 O1_2 1_555 1_555
Ni1_5 O9_2 1_555 1_555
Ni2_2 O2_2 1_555 1_555
Ni2A O7 1_555 1_555
Ni2A_2 N2A 1_555 1_555
O1_2 C14_2 1_555 1_555
O1A Ni1A 1_555 1_555
O2_2 C14_2 1_555 1_555
O3_2 C15_2 1_555 1_555
O4_2 Ni1 1_555 1_555
O4A Ni1A 1_555 1_555
O5_2 C7_2 1_555 1_555
O6_2 C16_2 1_555 1_555
O7_2 C16_2 1_555 1_555
O7A Ni2 1_555 1_555
O7A_2 Ni2_2 1_555 1_555
O8_2 C17_2 1_555 1_555
O9_2 C17_2 1_555 1_555
O9_3 Ni1 1_555 1_555
O9A Ni1A 1_555 1_555
O10A Ni1A 1_555 1_555
H11A O10A 1_555 1_555
H12A O10A 1_555 1_555
O11A Ni1A 1_555 1_555
H13A O11A 1_555 1_555
H14A O11A 1_555 1_555
C5 C6 1_555 1_555
C12 C13 1_555 1_555
Ni1 O1 1_555 1_555
Ni2 O2 1_555 1_555
Ni2 O3 1_555 1_555
C5_2 C6_2 1_555 1_555
C12_2 C13_2 1_555 1_555
C15_2 O4_2 1_555 1_555
C18A C19A 1_555 1_555
C18A N1A 1_555 1_555
C20A C21A 1_555 1_555
C20A N2A 1_555 1_555
Ni2_2 O3_2 1_555 1_555
Ni2A_2 O7_2 1_555 1_555

#END
