
#######################################################################
#
#                 Cambridge Crystallographic Data Centre
#                                CCDC 
#
#######################################################################
#
# If this CIF has been generated from an entry in the Cambridge 
# Structural Database, then it will include bibliographic, chemical, 
# crystal, experimental, refinement or atomic coordinate data resulting 
# from the CCDC's data processing and validation procedures.
#
#######################################################################

data_DODJEM
_symmetry_cell_setting           monoclinic
_symmetry_space_group_name_H-M   'P 21/c'
_symmetry_Int_Tables_number      14
_space_group_name_Hall           '-P 2ybc'
loop_
_symmetry_equiv_pos_site_id
_symmetry_equiv_pos_as_xyz
1 x,y,z
2 -x,1/2+y,1/2-z
3 -x,-y,-z
4 x,1/2-y,1/2+z
_cell_length_a                   10.2222(11)
_cell_length_b                   13.8563(16)
_cell_length_c                   26.712(3)
_cell_angle_alpha                90
_cell_angle_beta                 106.330(4)
_cell_angle_gamma                90
_cell_volume                     3630.9
loop_
_atom_site_label
_atom_site_type_symbol
_atom_site_fract_x
_atom_site_fract_y
_atom_site_fract_z
Y1 Y 0.28337(5) -0.16446(4) 0.12799(2)
O1 O 0.3899(5) -0.0700(4) 0.1987(2)
O3 O 0.2504(4) -0.2628(3) 0.19195(16)
O4 O 0.1585(4) -0.2656(4) 0.33167(17)
O5 O 0.3382(5) -0.3364(3) 0.41876(18)
O6 O 0.5614(4) -0.5765(3) 0.39965(16)
O7 O 0.0957(5) -0.0961(4) 0.1563(2)
O8 O 0.1512(5) -0.0203(3) 0.09591(19)
O9 O -0.0274(5) 0.0237(4) 0.1190(2)
O10 O 0.3368(6) -0.3279(4) 0.1006(2)
O11 O 0.4973(4) -0.2589(4) 0.15761(19)
O12 O 0.5258(6) -0.4042(4) 0.1327(3)
O13 O 0.2090(6) -0.1809(4) 0.03380(19)
O14 O 0.0761(5) -0.2375(4) 0.07575(19)
O15 O 0.0320(6) -0.2646(6) -0.0076(2)
N1 N 0.5330(6) -0.1782(4) 0.3470(2)
N2 N 0.3310(5) -0.2931(4) 0.27741(19)
H1 H 0.3117 -0.3023 0.3064
N3 N 0.3537(5) -0.5079(4) 0.37704(19)
H2 H 0.3078 -0.4567 0.3790
N4 N 0.3353(5) -0.5417(4) 0.2629(2)
N5 N 0.0691(6) -0.0283(4) 0.1235(2)
N6 N 0.4558(6) -0.3307(5) 0.1300(3)
N7 N 0.1026(6) -0.2289(5) 0.0332(2)
C1 C 0.6153(8) -0.1454(6) 0.3920(3)
H3 H 0.5931 -0.0873 0.4051
C2 C 0.7294(7) -0.1924(6) 0.4197(3)
H4 H 0.7869 -0.1651 0.4497
C3 C 0.7578(7) -0.2819(7) 0.4022(3)
H5 H 0.8330 -0.3173 0.4209
C4 C 0.6723(6) -0.3172(5) 0.3565(3)
H6 H 0.6887 -0.3774 0.3441
C5 C 0.5639(6) -0.2637(5) 0.3295(2)
C6 C 0.4740(6) -0.2962(5) 0.2781(2)
H7 H 0.4880 -0.2548 0.2507
H8 H 0.4981 -0.3616 0.2712
C7 C 0.2291(6) -0.2770(4) 0.2352(2)
C8 C 0.0879(6) -0.2822(4) 0.2401(2)
C9 C -0.0177(6) -0.2951(5) 0.1938(2)
H9 H 0.0030 -0.2959 0.1620
C10 C -0.1502(6) -0.3065(5) 0.1943(3)
H10 H -0.2188 -0.3162 0.1634
C11 C -0.1805(7) -0.3034(5) 0.2418(3)
H11 H -0.2703 -0.3112 0.2424
C12 C -0.0806(6) -0.2889(5) 0.2880(3)
H12 H -0.1030 -0.2859 0.3193
C13 C 0.0528(6) -0.2790(5) 0.2871(2)
C14 C 0.1330(6) -0.2547(5) 0.3811(2)
H13 H 0.0826 -0.3098 0.3883
H14 H 0.0800 -0.1968 0.3815
C15 C 0.2680(7) -0.2477(5) 0.4208(3)
H15 H 0.3194 -0.1937 0.4131
H16 H 0.2562 -0.2385 0.4553
C16 C 0.4652(7) -0.3517(5) 0.4528(3)
C17 C 0.5225(8) -0.2875(5) 0.4929(3)
H17 H 0.4748 -0.2325 0.4973
C18 C 0.6503(9) -0.3055(6) 0.5260(3)
H18 H 0.6880 -0.2621 0.5528
C19 C 0.7221(8) -0.3851(6) 0.5205(3)
H19 H 0.8087 -0.3958 0.5428
C20 C 0.6640(7) -0.4513(5) 0.4804(2)
H20 H 0.7120 -0.5067 0.4768
C21 C 0.5360(6) -0.4350(5) 0.4462(2)
C22 C 0.4842(6) -0.5107(5) 0.4055(2)
C23 C 0.2843(6) -0.5846(4) 0.3432(2)
H21 H 0.2050 -0.6040 0.3539
H22 H 0.3448 -0.6399 0.3474
C24 C 0.2394(6) -0.5569(4) 0.2865(2)
C25 C 0.1006(6) -0.5497(5) 0.2591(3)
H23 H 0.0343 -0.5589 0.2764
C26 C 0.0638(8) -0.5292(5) 0.2073(3)
H24 H -0.0276 -0.5269 0.1883
C27 C 0.1642(8) -0.5119(5) 0.1832(3)
H25 H 0.1427 -0.4950 0.1482
C28 C 0.2980(8) -0.5204(5) 0.2130(3)
H26 H 0.3661 -0.5105 0.1967
H28 H 0.375(7) -0.068(5) 0.218(2)
H29 H 0.537(12) -0.054(8) 0.214(4)
Y1A Y 0.71663(5) -0.66446(4) 0.37201(2)
O6A O 0.4386(4) -0.0765(3) 0.10035(16)
O2 O 0.3135(8) -0.0568(6) 0.2893(3)
H27 H 0.366(9) -0.096(7) 0.313(4)
H30 H 0.336(6) -0.016(4) 0.295(2)
loop_
_geom_bond_atom_site_label_1
_geom_bond_atom_site_label_2
_geom_bond_site_symmetry_1
_geom_bond_site_symmetry_2
Y1 O1 1_555 1_555
O1 H28 1_555 1_555
O2 H27 1_555 1_555
O3 Y1 1_555 1_555
O4 C13 1_555 1_555
O5 C15 1_555 1_555
O6 C22 1_555 1_555
O7 Y1 1_555 1_555
O8 Y1 1_555 1_555
O9 N5 1_555 1_555
O10 Y1 1_555 1_555
O11 Y1 1_555 1_555
O12 N6 1_555 1_555
O13 Y1 1_555 1_555
O14 Y1 1_555 1_555
O15 N7 1_555 1_555
N1 C1 1_555 1_555
N2 H1 1_555 1_555
N3 H2 1_555 1_555
N4 C24 1_555 1_555
N5 O7 1_555 1_555
N6 O10 1_555 1_555
N7 O13 1_555 1_555
C1 H3 1_555 1_555
C2 C1 1_555 1_555
H4 C2 1_555 1_555
C3 C2 1_555 1_555
H5 C3 1_555 1_555
C4 C3 1_555 1_555
H6 C4 1_555 1_555
C5 N1 1_555 1_555
C6 N2 1_555 1_555
H7 C6 1_555 1_555
H8 C6 1_555 1_555
C7 O3 1_555 1_555
C8 C7 1_555 1_555
C9 C8 1_555 1_555
H9 C9 1_555 1_555
C10 C9 1_555 1_555
H10 C10 1_555 1_555
C11 C10 1_555 1_555
H11 C11 1_555 1_555
C12 C11 1_555 1_555
H12 C12 1_555 1_555
C13 C8 1_555 1_555
C14 O4 1_555 1_555
H13 C14 1_555 1_555
H14 C14 1_555 1_555
C15 C14 1_555 1_555
H15 C15 1_555 1_555
H16 C15 1_555 1_555
C16 O5 1_555 1_555
C17 C16 1_555 1_555
H17 C17 1_555 1_555
C18 C17 1_555 1_555
H18 C18 1_555 1_555
C19 C18 1_555 1_555
H19 C19 1_555 1_555
C20 C19 1_555 1_555
H20 C20 1_555 1_555
C21 C16 1_555 1_555
C22 N3 1_555 1_555
C23 N3 1_555 1_555
H21 C23 1_555 1_555
H22 C23 1_555 1_555
C24 C23 1_555 1_555
C25 C24 1_555 1_555
H23 C25 1_555 1_555
C26 C25 1_555 1_555
H24 C26 1_555 1_555
C27 C26 1_555 1_555
H25 C27 1_555 1_555
C28 N4 1_555 1_555
H26 C28 1_555 1_555
H29 O1 1_555 1_555
H30 O2 1_555 1_555
Y1A O6 1_555 1_555
O6A Y1 1_555 1_555
O8 N5 1_555 1_555
O11 N6 1_555 1_555
O14 N7 1_555 1_555
N2 C7 1_555 1_555
C4 C5 1_555 1_555
C5 C6 1_555 1_555
C12 C13 1_555 1_555
C20 C21 1_555 1_555
C21 C22 1_555 1_555
C27 C28 1_555 1_555

#END
