
#######################################################################
#
#                 Cambridge Crystallographic Data Centre
#                                CCDC 
#
#######################################################################
#
# If this CIF has been generated from an entry in the Cambridge 
# Structural Database, then it will include bibliographic, chemical, 
# crystal, experimental, refinement or atomic coordinate data resulting 
# from the CCDC's data processing and validation procedures.
#
#######################################################################

data_DODKIR
_symmetry_cell_setting           tetragonal
_symmetry_space_group_name_H-M   'P 43 21 2'
_symmetry_Int_Tables_number      96
_space_group_name_Hall           'P 4nw 2abw'
loop_
_symmetry_equiv_pos_site_id
_symmetry_equiv_pos_as_xyz
1 x,y,z
2 -x,-y,1/2+z
3 1/2-y,1/2+x,3/4+z
4 1/2+y,1/2-x,1/4+z
5 1/2-x,1/2+y,3/4-z
6 1/2+x,1/2-y,1/4-z
7 y,x,-z
8 -y,-x,1/2-z
_cell_length_a                   10.4006(2)
_cell_length_b                   10.4006(2)
_cell_length_c                   32.0746(10)
_cell_angle_alpha                90
_cell_angle_beta                 90
_cell_angle_gamma                90
_cell_volume                     3469.59
loop_
_atom_site_label
_atom_site_type_symbol
_atom_site_fract_x
_atom_site_fract_y
_atom_site_fract_z
Ca1 Ca 0.71195(4) 0.94091(3) 0.107821(11)
O1 O 0.54945(15) 0.77588(16) 0.08348(4)
N1 N 0.19425(19) 0.43624(18) -0.03048(6)
O2 O 0.65187(16) 0.88844(16) 0.03667(4)
C1 C 0.56876(18) 0.80404(18) 0.04635(6)
O3 O 0.61263(16) 0.86503(17) -0.03933(5)
H1 H 0.6446 0.8933 -0.0178
O4 O 0.8202(2) 1.0801(2) 0.15454(6)
C2 C 0.0537(3) 0.2794(3) -0.05708(7)
H2 H 0.0855 0.3017 -0.0832
C3 C 0.34153(19) 0.58452(19) -0.01248(6)
O5 O 0.5452(2) 1.08842(18) 0.10936(6)
C4 C 0.49853(18) 0.74003(17) 0.01172(5)
O6 O 0.8606(2) 0.7767(2) 0.11119(6)
N2 N 0.25023(17) 0.48604(18) -0.00027(5)
C5 C 0.3670(2) 0.6213(2) -0.05336(7)
H3 H 0.3225 0.5825 -0.0751
C6 C 0.4572(2) 0.7140(2) -0.06193(7)
H4 H 0.4738 0.7366 -0.0895
C7 C 0.40784(19) 0.64501(19) 0.01949(6)
H5 H 0.3911 0.6213 0.0469
C8 C 0.52427(19) 0.7748(2) -0.02972(6)
O7 O 0.6282(2) 0.8807(2) 0.17400(5)
C9 C -0.0400(3) 0.1876(3) -0.05402(7)
H6 H -0.0728 0.1491 -0.0779
C10 C 0.0577(2) 0.3022(2) 0.01772(6)
H7 H 0.0918 0.3402 0.0415
C11 C -0.03603(19) 0.20940(19) 0.02179(6)
C12 C 0.1025(2) 0.3403(2) -0.02155(7)
C13 C -0.0824(2) 0.1656(2) 0.06387(6)
C14 C -0.0858(2) 0.1521(2) -0.01492(7)
O8 O -0.16568(17) 0.07606(16) 0.06389(5)
O9 O -0.04030(18) 0.21581(18) 0.09596(5)
O10 O -0.17825(17) 0.06267(17) -0.01391(5)
H8 H -0.1962 0.0461 0.0104
H9 H 0.821(3) 1.106(3) 0.1757(9)
H10 H 0.506(3) 1.062(3) 0.1364(11)
H11 H 0.863(3) 0.721(3) 0.0953(9)
H12 H 0.919(3) 0.751(4) 0.1286(13)
H13 H 0.610(4) 0.820(3) 0.1895(11)
H14 H 0.648(5) 0.935(4) 0.1859(16)
H15 H 0.521(4) 1.136(4) 0.0874(14)
H16 H 0.862(4) 1.136(3) 0.1396(11)
Ca1_2 Ca -0.28805(4) -0.05909(3) 0.107821(11)
O8_2 O 0.83432(17) 1.07606(16) 0.06389(5)
loop_
_geom_bond_atom_site_label_1
_geom_bond_atom_site_label_2
_geom_bond_site_symmetry_1
_geom_bond_site_symmetry_2
Ca1 O1 1_555 1_555
O1 C1 1_555 1_555
N1 N2 1_555 1_555
O2 Ca1 1_555 1_555
C1 O2 1_555 1_555
O3 H1 1_555 1_555
O4 Ca1 1_555 1_555
C2 H2 1_555 1_555
C3 N2 1_555 1_555
O5 Ca1 1_555 1_555
C4 C1 1_555 1_555
O6 Ca1 1_555 1_555
C5 C3 1_555 1_555
H3 C5 1_555 1_555
C6 C5 1_555 1_555
H4 C6 1_555 1_555
C7 C3 1_555 1_555
H5 C7 1_555 1_555
C8 O3 1_555 1_555
O7 Ca1 1_555 1_555
C9 C2 1_555 1_555
H6 C9 1_555 1_555
C10 H7 1_555 1_555
C11 C10 1_555 1_555
C12 N1 1_555 1_555
C13 C11 1_555 1_555
C14 C9 1_555 1_555
O8 C13 1_555 1_555
O9 C13 1_555 1_555
O10 C14 1_555 1_555
H8 O10 1_555 1_555
H9 O4 1_555 1_555
H10 O5 1_555 1_555
H11 O6 1_555 1_555
H12 O6 1_555 1_555
H13 O7 1_555 1_555
H14 O7 1_555 1_555
H15 O5 1_555 1_555
H16 O4 1_555 1_555
Ca1_2 O8 1_555 1_555
O8_2 Ca1 1_555 1_555
C2 C12 1_555 1_555
C4 C7 1_555 1_555
C4 C8 1_555 1_555
C6 C8 1_555 1_555
C10 C12 1_555 1_555
C11 C14 1_555 1_555

#END
