
#######################################################################
#
#                 Cambridge Crystallographic Data Centre
#                                CCDC 
#
#######################################################################
#
# If this CIF has been generated from an entry in the Cambridge 
# Structural Database, then it will include bibliographic, chemical, 
# crystal, experimental, refinement or atomic coordinate data resulting 
# from the CCDC's data processing and validation procedures.
#
#######################################################################

data_DODKOX
_symmetry_cell_setting           monoclinic
_symmetry_space_group_name_H-M   'P 21/c'
_symmetry_Int_Tables_number      14
_space_group_name_Hall           '-P 2ybc'
loop_
_symmetry_equiv_pos_site_id
_symmetry_equiv_pos_as_xyz
1 x,y,z
2 -x,1/2+y,1/2-z
3 -x,-y,-z
4 x,1/2-y,1/2+z
_cell_length_a                   9.5224(18)
_cell_length_b                   11.309(2)
_cell_length_c                   16.211(3)
_cell_angle_alpha                90
_cell_angle_beta                 106.648(3)
_cell_angle_gamma                90
_cell_volume                     1672.57
loop_
_atom_site_label
_atom_site_type_symbol
_atom_site_fract_x
_atom_site_fract_y
_atom_site_fract_z
Mg1 Mg 0.71150(14) 0.13767(11) 0.21115(8)
O1 O 0.5746(3) 0.2334(2) 0.10994(18)
O2 O 0.8425(3) 0.0437(3) 0.3127(2)
N1 N 0.0905(4) 0.6399(3) 0.0021(2)
O3 O 0.4696(4) 0.3592(3) 0.1788(2)
O4 O -0.3073(4) 1.0106(3) -0.0427(2)
H1 H -0.3046 1.0400 0.0039
O5 O 0.8745(4) 0.2543(3) 0.2117(2)
C1 C 0.4022(4) 0.3689(3) 0.0266(2)
O6 O 0.6539(4) 0.2400(3) 0.3033(2)
N2 N 0.1230(4) 0.6046(3) -0.0635(2)
C2 C 0.4881(4) 0.3190(3) 0.1121(2)
O7 O 0.5414(4) 0.0229(4) 0.2025(3)
O8 O 0.5150(4) 0.2384(3) -0.0531(2)
H2 H 0.5557 0.2163 -0.0039
C3 C -0.0230(5) 0.7973(4) 0.0577(3)
H3 H 0.0366 0.7762 0.1119
C4 C 0.3049(4) 0.4601(4) 0.0251(3)
H4 H 0.2934 0.4892 0.0765
C5 C 0.2236(4) 0.5087(3) -0.0535(3)
C6 C -0.2092(4) 0.9213(4) -0.0307(3)
C7 C -0.0117(4) 0.7345(4) -0.0135(3)
C8 C -0.1024(5) 0.7657(4) -0.0949(3)
H5 H -0.0981 0.7237 -0.1434
C9 C 0.4190(5) 0.3248(4) -0.0512(3)
C10 C -0.1199(4) 0.8904(4) 0.0509(3)
C11 C -0.1980(5) 0.8591(4) -0.1027(3)
H6 H -0.2561 0.8811 -0.1570
C12 C 0.2412(5) 0.4627(4) -0.1296(3)
H7 H 0.1872 0.4946 -0.1819
C13 C 0.3351(5) 0.3727(5) -0.1294(3)
H8 H 0.3438 0.3428 -0.1812
C14 C -0.1317(5) 0.9533(4) 0.1301(3)
O9 O -0.2247(3) 1.0381(3) 0.11936(19)
O10 O -0.0534(4) 0.9217(4) 0.2018(2)
H9 H 0.889(5) -0.008(4) 0.284(3)
H10 H 0.868(7) 0.055(6) 0.362(4)
H11 H 0.594(7) 0.291(6) 0.283(4)
H12 H 0.646(7) 0.245(6) 0.351(4)
H13 H 0.530(7) -0.013(6) 0.236(4)
H14 H 0.939(7) 0.300(6) 0.252(4)
H15 H 0.491(7) 0.007(6) 0.154(4)
H16 H 0.866(8) 0.294(7) 0.170(5)
Mg1_2 Mg -0.28850(14) 1.13767(11) 0.21115(8)
O9_2 O 0.7753(3) 0.0381(3) 0.11936(19)
loop_
_geom_bond_atom_site_label_1
_geom_bond_atom_site_label_2
_geom_bond_site_symmetry_1
_geom_bond_site_symmetry_2
Mg1 O1 1_555 1_555
O1 C2 1_555 1_555
O2 Mg1 1_555 1_555
N1 N2 1_555 1_555
O3 C2 1_555 1_555
O4 H1 1_555 1_555
O5 Mg1 1_555 1_555
C1 C2 1_555 1_555
O6 Mg1 1_555 1_555
N2 C5 1_555 1_555
O7 Mg1 1_555 1_555
O8 H2 1_555 1_555
C3 H3 1_555 1_555
C4 C1 1_555 1_555
H4 C4 1_555 1_555
C5 C4 1_555 1_555
C6 O4 1_555 1_555
C7 N1 1_555 1_555
C8 C7 1_555 1_555
H5 C8 1_555 1_555
C9 C1 1_555 1_555
C10 C3 1_555 1_555
C11 C6 1_555 1_555
H6 C11 1_555 1_555
C12 C5 1_555 1_555
H7 C12 1_555 1_555
C13 C9 1_555 1_555
H8 C13 1_555 1_555
C14 C10 1_555 1_555
O9 C14 1_555 1_555
O10 C14 1_555 1_555
H9 O2 1_555 1_555
H10 O2 1_555 1_555
H11 O6 1_555 1_555
H12 O6 1_555 1_555
H13 O7 1_555 1_555
H14 O5 1_555 1_555
H15 O7 1_555 1_555
H16 O5 1_555 1_555
Mg1_2 O9 1_555 1_555
O9_2 Mg1 1_555 1_555
O8 C9 1_555 1_555
C3 C7 1_555 1_555
C6 C10 1_555 1_555
C8 C11 1_555 1_555
C12 C13 1_555 1_555

#END
