
#######################################################################
#
#                 Cambridge Crystallographic Data Centre
#                                CCDC 
#
#######################################################################
#
# If this CIF has been generated from an entry in the Cambridge 
# Structural Database, then it will include bibliographic, chemical, 
# crystal, experimental, refinement or atomic coordinate data resulting 
# from the CCDC's data processing and validation procedures.
#
#######################################################################

data_DODLIS
_symmetry_cell_setting           monoclinic
_symmetry_space_group_name_H-M   'C 2/c'
_symmetry_Int_Tables_number      15
_space_group_name_Hall           '-C 2yn'
loop_
_symmetry_equiv_pos_site_id
_symmetry_equiv_pos_as_xyz
1 x,y,z
2 1/2+x,1/2+y,z
3 -x,y,1/2-z
4 1/2-x,1/2+y,1/2-z
5 -x,-y,-z
6 1/2-x,1/2-y,-z
7 x,-y,1/2+z
8 1/2+x,1/2-y,1/2+z
_cell_length_a                   25.951(11)
_cell_length_b                   14.364(6)
_cell_length_c                   19.628(8)
_cell_angle_alpha                90
_cell_angle_beta                 121.921(6)
_cell_angle_gamma                90
_cell_volume                     6210.11
loop_
_atom_site_label
_atom_site_type_symbol
_atom_site_fract_x
_atom_site_fract_y
_atom_site_fract_z
Sn1 Sn 0.30546(2) 0.59076(3) 0.30121(3)
F1 F 0.1750(2) 0.5791(3) 0.3501(4)
F2 F 0.0559(3) 0.6000(4) 0.2478(4)
F3 F -0.0096(2) 0.4633(5) 0.1418(4)
F4 F 0.0446(2) 0.3075(4) 0.1362(3)
O1 O 0.2789(2) 0.4740(4) 0.3600(3)
O2 O 0.2534(3) 0.3499(4) 0.4022(3)
O3 O 0.1532(2) 0.1972(3) 0.2349(3)
O4 O 0.2169(2) 0.2937(4) 0.2279(3)
C1 C 0.2413(3) 0.4178(5) 0.3568(4)
C2 C 0.1741(3) 0.4309(5) 0.2959(4)
C3 C 0.1446(4) 0.5095(6) 0.2976(5)
C4 C 0.0835(4) 0.5212(6) 0.2466(6)
C5 C 0.0500(4) 0.4521(7) 0.1933(6)
C6 C 0.0789(4) 0.3730(6) 0.1916(5)
C7 C 0.1404(3) 0.3600(5) 0.2415(4)
C8 C 0.1737(3) 0.2781(5) 0.2346(4)
C9 C 0.3638(3) 0.4916(5) 0.2928(4)
C10 C 0.3447(4) 0.4018(6) 0.2665(5)
H2 H 0.3074 0.3817 0.2572
C11 C 0.3802(4) 0.3416(6) 0.2540(6)
H3 H 0.3655 0.2825 0.2337
C12 C 0.4360(4) 0.3666(8) 0.2707(6)
H4 H 0.4603 0.3248 0.2637
C13 C 0.4558(4) 0.4550(8) 0.2982(7)
H5 H 0.4941 0.4733 0.3101
C14 C 0.4202(4) 0.5178(7) 0.3086(5)
H6 H 0.4343 0.5779 0.3264
C15 C 0.2156(4) 0.5888(5) 0.1986(4)
C16 C 0.1943(4) 0.5103(7) 0.1511(5)
H7 H 0.2202 0.4601 0.1622
C17 C 0.1341(5) 0.5051(9) 0.0862(6)
H8 H 0.1209 0.4528 0.0533
C18 C 0.0946(5) 0.5772(9) 0.0712(7)
H9 H 0.0539 0.5726 0.0306
C19 C 0.1157(5) 0.6536(9) 0.1159(7)
H10 H 0.0899 0.7041 0.1042
C20 C 0.1750(4) 0.6597(7) 0.1793(6)
H11 H 0.1878 0.7138 0.2099
C21 C 0.3410(4) 0.6584(5) 0.4141(5)
C22 C 0.4016(5) 0.6702(9) 0.4622(6)
H12 H 0.4269 0.6452 0.4467
C23 C 0.4271(5) 0.7188(10) 0.5344(6)
H13 H 0.4691 0.7257 0.5662
C24 C 0.3923(7) 0.7552(9) 0.5581(7)
H14 H 0.4095 0.7870 0.6066
C25 C 0.3312(7) 0.7455(11) 0.5108(8)
H15 H 0.3063 0.7709 0.5268
C26 C 0.3058(5) 0.6980(9) 0.4387(7)
H16 H 0.2638 0.6930 0.4064
Sn1C Sn 0.19454(2) 0.09076(3) 0.19879(3)
O3C O 0.3468(2) 0.6972(3) 0.2651(3)
N1 N 0.3541(4) 0.3598(8) 0.5464(5)
H1 H 0.3239 0.3567 0.4938
C27 C 0.3277(9) 0.4077(13) 0.5929(9)
H17 H 0.3003 0.3640 0.5957
H18 H 0.3609 0.4189 0.6475
C28 C 0.2966(8) 0.4912(13) 0.5622(9)
H19 H 0.2820 0.5130 0.5952
H20 H 0.2629 0.4815 0.5085
H21 H 0.3235 0.5367 0.5617
C29 C 0.4012(8) 0.4131(12) 0.5513(9)
H22 H 0.4350 0.4119 0.6066
H23 H 0.3873 0.4771 0.5388
C30 C 0.4247(6) 0.3860(12) 0.4992(8)
H24 H 0.4563 0.4283 0.5078
H25 H 0.3923 0.3883 0.4439
H26 H 0.4407 0.3239 0.5124
C31 C 0.3662(7) 0.2666(13) 0.5777(9)
H27 H 0.3687 0.2260 0.5400
H28 H 0.3324 0.2457 0.5817
C32 C 0.4224(10) 0.2573(19) 0.6568(12)
H29 H 0.4275 0.1935 0.6739
H30 H 0.4200 0.2959 0.6949
H31 H 0.4564 0.2762 0.6532
C33? C 0.3662(7) 0.2666(13) 0.5777(9)
H32? H 0.3571 0.2680 0.6196
H33? H 0.4100 0.2606 0.6052
C34? C 0.3432(15) 0.177(2) 0.5387(17)
H34? H 0.3608 0.1283 0.5780
H35? H 0.3538 0.1678 0.4991
H36? H 0.2998 0.1757 0.5132
loop_
_geom_bond_atom_site_label_1
_geom_bond_atom_site_label_2
_geom_bond_site_symmetry_1
_geom_bond_site_symmetry_2
Sn1 O1 1_555 1_555
F1 C3 1_555 1_555
F2 C4 1_555 1_555
F3 C5 1_555 1_555
F4 C6 1_555 1_555
N1 H1 1_555 1_555
O1 C1 1_555 1_555
O2 C1 1_555 1_555
O3 C8 1_555 1_555
O4 C8 1_555 1_555
C1 C2 1_555 1_555
C2 C3 1_555 1_555
C3 C4 1_555 1_555
C4 C5 1_555 1_555
C5 C6 1_555 1_555
C6 C7 1_555 1_555
C7 C2 1_555 1_555
C8 C7 1_555 1_555
C9 Sn1 1_555 1_555
C10 C9 1_555 1_555
H2 C10 1_555 1_555
C11 C10 1_555 1_555
H3 C11 1_555 1_555
C12 C11 1_555 1_555
H4 C12 1_555 1_555
C13 C12 1_555 1_555
H5 C13 1_555 1_555
C14 C9 1_555 1_555
H6 C14 1_555 1_555
C15 Sn1 1_555 1_555
C16 C15 1_555 1_555
H7 C16 1_555 1_555
C17 C16 1_555 1_555
H8 C17 1_555 1_555
C18 C17 1_555 1_555
H9 C18 1_555 1_555
C19 C18 1_555 1_555
H10 C19 1_555 1_555
C20 C15 1_555 1_555
H11 C20 1_555 1_555
C21 Sn1 1_555 1_555
C22 C21 1_555 1_555
H12 C22 1_555 1_555
C23 C22 1_555 1_555
H13 C23 1_555 1_555
C24 C23 1_555 1_555
H14 C24 1_555 1_555
C25 C24 1_555 1_555
H15 C25 1_555 1_555
C26 C21 1_555 1_555
H16 C26 1_555 1_555
C27 N1 1_555 1_555
H17 C27 1_555 1_555
H18 C27 1_555 1_555
C28 C27 1_555 1_555
H19 C28 1_555 1_555
H20 C28 1_555 1_555
H21 C28 1_555 1_555
C29 N1 1_555 1_555
H22 C29 1_555 1_555
H23 C29 1_555 1_555
C30 C29 1_555 1_555
H24 C30 1_555 1_555
H25 C30 1_555 1_555
H26 C30 1_555 1_555
C31 N1 1_555 1_555
H27 C31 1_555 1_555
H28 C31 1_555 1_555
C32 C31 1_555 1_555
H29 C32 1_555 1_555
H30 C32 1_555 1_555
H31 C32 1_555 1_555
Sn1C O3 1_555 1_555
O3C Sn1 1_555 1_555
C13 C14 1_555 1_555
C19 C20 1_555 1_555
C25 C26 1_555 1_555

#END
