
#######################################################################
#
#                 Cambridge Crystallographic Data Centre
#                                CCDC 
#
#######################################################################
#
# If this CIF has been generated from an entry in the Cambridge 
# Structural Database, then it will include bibliographic, chemical, 
# crystal, experimental, refinement or atomic coordinate data resulting 
# from the CCDC's data processing and validation procedures.
#
#######################################################################

data_DODLUE
_symmetry_cell_setting           monoclinic
_symmetry_space_group_name_H-M   'C 2/c'
_symmetry_Int_Tables_number      15
_space_group_name_Hall           '-C 2yn'
loop_
_symmetry_equiv_pos_site_id
_symmetry_equiv_pos_as_xyz
1 x,y,z
2 1/2+x,1/2+y,z
3 -x,y,1/2-z
4 1/2-x,1/2+y,1/2-z
5 -x,-y,-z
6 1/2-x,1/2-y,-z
7 x,-y,1/2+z
8 1/2+x,1/2-y,1/2+z
_cell_length_a                   26.317(4)
_cell_length_b                   16.004(3)
_cell_length_c                   7.6263(12)
_cell_angle_alpha                90
_cell_angle_beta                 93.471(2)
_cell_angle_gamma                90
_cell_volume                     3206.13
loop_
_atom_site_label
_atom_site_type_symbol
_atom_site_fract_x
_atom_site_fract_y
_atom_site_fract_z
Ho1 Ho 0.178248(11) 0.462879(18) 1.03517(4)
O1 O 0.22983(19) 0.4876(3) 1.3099(7)
O2 O 0.2682(2) 0.4214(3) 1.1052(7)
O3 O 0.3163(2) 0.1462(3) 1.1552(6)
O4 O 0.3201(2) 0.1121(3) 1.4393(7)
O5 O 0.0888(2) 0.4192(4) 1.0716(7)
O6 O 0.12762(18) 0.4882(3) 1.2874(6)
O7 O 0.1804(2) 0.3375(3) 1.2132(7)
H1 H 0.1749 0.2882 1.1752
H2 H 0.1867 0.3429 1.3232
C1 C 0.2694(3) 0.4490(4) 1.2572(9)
C2 C 0.3153(3) 0.4382(5) 1.3837(10)
H3 H 0.3267 0.4927 1.4255
H4 H 0.3055 0.4062 1.4843
C3 C 0.3590(3) 0.3944(5) 1.3023(10)
C4 C 0.3979(3) 0.4414(6) 1.2342(13)
H5 H 0.3971 0.4994 1.2417
C5 C 0.4374(3) 0.4028(7) 1.1559(14)
H6 H 0.4631 0.4348 1.1108
C6 C 0.4390(3) 0.3173(7) 1.1443(13)
H7 H 0.4660 0.2915 1.0922
C7 C 0.4007(3) 0.2693(5) 1.2100(10)
H8 H 0.4019 0.2113 1.2014
C8 C 0.3601(3) 0.3074(4) 1.2892(8)
C9 C 0.3164(3) 0.2568(4) 1.3610(9)
H9 H 0.2843 0.2800 1.3147
H10 H 0.3177 0.2625 1.4878
C10 C 0.3181(3) 0.1639(4) 1.3142(9)
C11 C 0.0905(3) 0.4401(5) 1.2252(10)
C12 C 0.0517(3) 0.4122(6) 1.3510(11)
H11 H 0.0270 0.4566 1.3622
H12 H 0.0688 0.4034 1.4658
C13 C 0.0240(3) 0.3343(5) 1.2969(9)
C14 C 0.0466(3) 0.2569(6) 1.3390(12)
H13 H 0.0785 0.2562 1.3984
C15 C 0.0236(4) 0.1823(6) 1.2963(14)
H14 H 0.0394 0.1322 1.3287
Ho1F Ho 0.178248(11) 0.537121(18) 0.53517(4)
Ho1F_2 Ho 0.178248(11) 0.537121(18) 1.53517(4)
Ho1E Ho 0.321752(11) 0.037121(18) 0.96483(4)
Ho1C Ho 0.321752(11) -0.037121(18) 1.46483(4)
Ho1B Ho -0.178248(11) 0.462879(18) 1.46483(4)
Ho1D Ho -0.178248(11) 0.537121(18) 0.96483(4)
Ho1C_2 Ho 0.321752(11) 0.962879(18) 0.46483(4)
Ho1E_2 Ho 0.321752(11) 1.037121(18) 0.96483(4)
O1F O 0.22983(19) 0.5124(3) 0.8099(7)
O1_2 O 0.22983(19) 0.4876(3) 0.3099(7)
O2F O 0.2682(2) 0.5786(3) 0.6052(7)
O3F O 0.3163(2) 0.8538(3) 0.6552(6)
O3E O 0.1837(2) 0.3538(3) 0.8448(6)
O3C O 0.1837(2) 0.6462(3) 0.3448(6)
O4F O 0.3201(2) 0.8879(3) 0.9393(7)
O4C O 0.1799(2) 0.6121(3) 1.0607(7)
O4E O 0.1799(2) 0.3879(3) 0.5607(7)
O5B O -0.0888(2) 0.4192(4) 1.4284(7)
O5F O 0.0888(2) 0.5808(4) 0.5716(7)
O6B O -0.12762(18) 0.4882(3) 1.2126(6)
O6F O 0.12762(18) 0.5118(3) 0.7874(6)
O6_2 O 0.12762(18) 0.4882(3) 0.2874(6)
O7F O 0.1804(2) 0.6625(3) 0.7132(7)
H1F H 0.1749 0.7118 0.6752
H2F H 0.1867 0.6571 0.8232
C1F C 0.2694(3) 0.5510(4) 0.7572(9)
C2F C 0.3153(3) 0.5618(5) 0.8837(10)
H3F H 0.3267 0.5073 0.9255
H4F H 0.3055 0.5938 0.9843
C3F C 0.3590(3) 0.6056(5) 0.8023(10)
C4F C 0.3979(3) 0.5586(6) 0.7342(13)
H5F H 0.3971 0.5006 0.7417
C5F C 0.4374(3) 0.5972(7) 0.6559(14)
H6F H 0.4631 0.5652 0.6108
C6F C 0.4390(3) 0.6827(7) 0.6443(13)
H7F H 0.4660 0.7085 0.5922
C7F C 0.4007(3) 0.7307(5) 0.7100(10)
H8F H 0.4019 0.7887 0.7014
C8F C 0.3601(3) 0.6926(4) 0.7892(8)
C9F C 0.3164(3) 0.7432(4) 0.8610(9)
H9F H 0.2843 0.7200 0.8147
H10F H 0.3177 0.7375 0.9878
C10F C 0.3181(3) 0.8361(4) 0.8142(9)
C11B C -0.0905(3) 0.4401(5) 1.2748(10)
C12B C -0.0517(3) 0.4122(6) 1.1490(11)
H11B H -0.0270 0.4566 1.1378
H12B H -0.0688 0.4034 1.0342
C13B C -0.0240(3) 0.3343(5) 1.2031(9)
C14B C -0.0466(3) 0.2569(6) 1.1610(12)
H13B H -0.0785 0.2562 1.1016
C15B C -0.0236(4) 0.1823(6) 1.2037(14)
H14B H -0.0394 0.1322 1.1713
O8 O 0.1750(3) 0.1683(4) 0.1487(9)
H15 H 0.2007 0.1566 0.0906
H16 H 0.1503 0.1933 0.0937
loop_
_geom_bond_atom_site_label_1
_geom_bond_atom_site_label_2
_geom_bond_site_symmetry_1
_geom_bond_site_symmetry_2
Ho1 O1 1_555 1_555
O1 C1 1_555 1_555
O2 Ho1 1_555 1_555
O3 C10 1_555 1_555
O4 C10 1_555 1_555
O5 Ho1 1_555 1_555
O6 Ho1 1_555 1_555
O7 Ho1 1_555 1_555
H1 O7 1_555 1_555
H2 O7 1_555 1_555
C1 O2 1_555 1_555
C2 C1 1_555 1_555
H3 C2 1_555 1_555
H4 C2 1_555 1_555
C3 C2 1_555 1_555
C4 C3 1_555 1_555
H5 C4 1_555 1_555
C5 C4 1_555 1_555
H6 C5 1_555 1_555
C6 C5 1_555 1_555
H7 C6 1_555 1_555
C7 C6 1_555 1_555
H8 C7 1_555 1_555
C8 C3 1_555 1_555
C9 C8 1_555 1_555
H9 C9 1_555 1_555
H10 C9 1_555 1_555
C10 C9 1_555 1_555
C11 O5 1_555 1_555
C12 C11 1_555 1_555
H11 C12 1_555 1_555
H12 C12 1_555 1_555
C13 C12 1_555 1_555
C14 C13 1_555 1_555
H13 C14 1_555 1_555
C15 C14 1_555 1_555
H14 C15 1_555 1_555
O8 H15 1_555 1_555
H16 O8 1_555 1_555
Ho1F O1F 1_555 1_555
Ho1F_2 O1 1_555 1_555
Ho1E O3 1_555 1_555
Ho1C O4 1_555 1_555
Ho1B O5B 1_555 1_555
Ho1D O6B 1_555 1_555
Ho1C_2 O3F 1_555 1_555
Ho1E_2 O4F 1_555 1_555
O1F Ho1 1_555 1_555
O1_2 Ho1F 1_555 1_555
O2F Ho1F 1_555 1_555
O3F C10F 1_555 1_555
O3E Ho1 1_555 1_555
O3C Ho1F 1_555 1_555
O4F C10F 1_555 1_555
O4C Ho1 1_555 1_555
O4E Ho1F 1_555 1_555
O5B C11B 1_555 1_555
O5F Ho1F 1_555 1_555
O6B Ho1B 1_555 1_555
O6F Ho1 1_555 1_555
O6_2 Ho1F 1_555 1_555
O7F Ho1F 1_555 1_555
H1F O7F 1_555 1_555
H2F O7F 1_555 1_555
C1F O1F 1_555 1_555
C2F C1F 1_555 1_555
H3F C2F 1_555 1_555
H4F C2F 1_555 1_555
C3F C2F 1_555 1_555
C4F C3F 1_555 1_555
H5F C4F 1_555 1_555
C5F C4F 1_555 1_555
H6F C5F 1_555 1_555
C6F C5F 1_555 1_555
H7F C6F 1_555 1_555
C7F C6F 1_555 1_555
H8F C7F 1_555 1_555
C8F C3F 1_555 1_555
C9F C8F 1_555 1_555
H9F C9F 1_555 1_555
H10F C9F 1_555 1_555
C10F C9F 1_555 1_555
C11B O6B 1_555 1_555
C12B C11B 1_555 1_555
H11B C12B 1_555 1_555
H12B C12B 1_555 1_555
C13B C13 1_555 1_555
C14B C13B 1_555 1_555
H13B C14B 1_555 1_555
C15B C15 1_555 1_555
H14B C15B 1_555 1_555
O6 C11 1_555 1_555
O6 Ho1F_2 1_555 1_555
C7 C8 1_555 1_555
Ho1F O6F 1_555 1_555
O2F C1F 1_555 1_555
C7F C8F 1_555 1_555
C12B C13B 1_555 1_555
C14B C15B 1_555 1_555

#END
