
#######################################################################
#
#                 Cambridge Crystallographic Data Centre
#                                CCDC 
#
#######################################################################
#
# If this CIF has been generated from an entry in the Cambridge 
# Structural Database, then it will include bibliographic, chemical, 
# crystal, experimental, refinement or atomic coordinate data resulting 
# from the CCDC's data processing and validation procedures.
#
#######################################################################

data_DODMIT
_symmetry_cell_setting           monoclinic
_symmetry_space_group_name_H-M   'C 2/c'
_symmetry_Int_Tables_number      15
_space_group_name_Hall           '-C 2yn'
loop_
_symmetry_equiv_pos_site_id
_symmetry_equiv_pos_as_xyz
1 x,y,z
2 1/2+x,1/2+y,z
3 -x,y,1/2-z
4 1/2-x,1/2+y,1/2-z
5 -x,-y,-z
6 1/2-x,1/2-y,-z
7 x,-y,1/2+z
8 1/2+x,1/2-y,1/2+z
_cell_length_a                   18.654(4)
_cell_length_b                   10.738(2)
_cell_length_c                   18.547(4)
_cell_angle_alpha                90
_cell_angle_beta                 108.46(3)
_cell_angle_gamma                90
_cell_volume                     3523.93
loop_
_atom_site_label
_atom_site_type_symbol
_atom_site_fract_x
_atom_site_fract_y
_atom_site_fract_z
C1 C -0.2133(5) 0.2138(11) -0.1890(5)
H1 H -0.1928 0.1647 -0.2189
C2 C -0.2812(5) 0.2760(11) -0.2214(5)
H2 H -0.3054 0.2712 -0.2736
C3 C -0.0036(8) 0.3775(10) 0.1223(9)
C4 C 0.1119(4) 0.1509(8) 0.0175(5)
C5 C -0.2064(5) 0.2973(10) -0.0682(5)
H3 H -0.1806 0.3062 -0.0166
C6 C -0.3128(4) 0.3450(8) -0.1762(4)
C7 C -0.2744(5) 0.3568(9) -0.0991(5)
H4 H -0.2947 0.4048 -0.0686
C8 C 0.2011(5) 0.1810(9) -0.0580(5)
H5 H 0.1685 0.1343 -0.0970
C9 C -0.1760(5) 0.2258(9) -0.1115(5)
C10 C 0.2325(5) 0.2721(9) 0.0658(5)
H6 H 0.2210 0.2867 0.1104
C11 C -0.3887(4) 0.4067(8) -0.2105(4)
C12 C -0.1036(5) 0.1547(9) -0.0758(5)
C13 C 0.1831(4) 0.2039(7) 0.0079(4)
C14 C -0.1100(15) 0.492(2) 0.140(2)
H7 H -0.1258 0.5765 0.1404
H8 H -0.1053 0.4529 0.1875
H9 H -0.1469 0.4475 0.0996
C15 C -0.004(2) 0.601(2) 0.106(2)
H10 H -0.0336 0.6712 0.1118
H11 H -0.0036 0.5957 0.0549
H12 H 0.0469 0.6103 0.1399
N1 N -0.0363(10) 0.4883(12) 0.1257(10)
O1 O -0.0730(4) 0.1716(7) -0.0060(4)
O2 O -0.0282(5) 0.2774(7) 0.1347(5)
O3 O 0.0947(3) 0.1832(7) 0.0750(4)
O4 O 0.0747(4) 0.0766(7) -0.0305(4)
O5 O -0.4185(4) 0.3976(8) -0.2807(3)
O6 O -0.0797(4) 0.0873(7) -0.1174(4)
O7 O -0.4163(3) 0.4609(5) -0.1661(3)
Er1 Er -0.001394(17) 0.07557(3) 0.102805(17)
C1G C 0.2867(5) 0.2862(11) 0.3110(5)
H1G H 0.3072 0.3353 0.2811
C2G C 0.2188(5) 0.2240(11) 0.2786(5)
H2G H 0.1946 0.2288 0.2264
C3G C 0.4964(8) 0.1225(10) 0.6223(9)
C4E C 0.3881(4) 0.3491(8) -0.0175(5)
C5G C 0.2936(5) 0.2027(10) 0.4318(5)
H3G H 0.3194 0.1938 0.4834
C6G C 0.1872(4) 0.1550(8) 0.3238(4)
C7G C 0.2256(5) 0.1432(9) 0.4009(5)
H4G H 0.2053 0.0952 0.4314
C8E C 0.2989(5) 0.3190(9) 0.0580(5)
H5E H 0.3315 0.3657 0.0970
C9G C 0.3240(5) 0.2742(9) 0.3885(5)
C10E C 0.2675(5) 0.2279(9) -0.0658(5)
H6E H 0.2790 0.2133 -0.1104
C11G C 0.1113(4) 0.0933(8) 0.2895(4)
C12G C 0.3964(5) 0.3453(9) 0.4242(5)
C13E C 0.3169(4) 0.2961(7) -0.0079(4)
C14G C 0.3900(15) 0.008(2) 0.640(2)
H7G H 0.3742 -0.0765 0.6404
H8G H 0.3947 0.0471 0.6875
H9G H 0.3531 0.0525 0.5996
C15G C 0.496(2) -0.101(2) 0.606(2)
H10G H 0.4664 -0.1712 0.6118
H11G H 0.4964 -0.0957 0.5549
H12G H 0.5469 -0.1103 0.6399
N1G N 0.4637(10) 0.0117(12) 0.6257(10)
O1G O 0.4270(4) 0.3284(7) 0.4940(4)
O2G O 0.4718(5) 0.2226(7) 0.6347(5)
O3E O 0.4053(3) 0.3168(7) -0.0750(4)
O3G O 0.5947(3) 0.3168(7) 0.5750(4)
O4E O 0.4253(4) 0.4234(7) 0.0305(4)
O4D O -0.0747(4) -0.0766(7) 0.0305(4)
O4C O 0.4253(4) 0.5766(7) 0.5305(4)
O5G O 0.0815(4) 0.1024(8) 0.2193(3)
O5_2 O 0.5815(4) 0.3976(8) 0.7193(3)
O6G O 0.4203(4) 0.4127(7) 0.3826(4)
O6D O 0.0797(4) -0.0873(7) 0.1174(4)
O6C O 0.5797(4) 0.5873(7) 0.6174(4)
O7G O 0.0837(3) 0.0391(5) 0.3339(3)
O7E O -0.0837(3) 0.0391(5) 0.1661(3)
O7B O 0.4163(3) 0.4609(5) 0.6661(3)
Er1G Er 0.498606(17) 0.42443(3) 0.602805(17)
Er1D Er 0.001394(17) -0.07557(3) -0.102805(17)
Er1G_2 Er -0.501394(17) 0.42443(3) -0.397195(17)
Er1E Er -0.498606(17) 0.42443(3) -0.102805(17)
Er1E_2 Er 0.501394(17) 0.42443(3) -0.102805(17)
Er1A Er 0.498606(17) 0.57557(3) 0.102805(17)
Er1C Er 0.501394(17) 0.57557(3) 0.397195(17)
Er1B Er 0.001394(17) 0.07557(3) 0.397195(17)
loop_
_geom_bond_atom_site_label_1
_geom_bond_atom_site_label_2
_geom_bond_site_symmetry_1
_geom_bond_site_symmetry_2
C1 H1 1_555 1_555
C2 C1 1_555 1_555
H2 C2 1_555 1_555
C3 N1 1_555 1_555
C4 C13 1_555 1_555
C5 H3 1_555 1_555
C6 C2 1_555 1_555
C7 C5 1_555 1_555
H4 C7 1_555 1_555
C8 H5 1_555 1_555
C9 C1 1_555 1_555
C10 H6 1_555 1_555
C11 C6 1_555 1_555
C12 C9 1_555 1_555
C13 C8 1_555 1_555
C14 H7 1_555 1_555
H8 C14 1_555 1_555
H9 C14 1_555 1_555
C15 H10 1_555 1_555
H11 C15 1_555 1_555
H12 C15 1_555 1_555
N1 C14 1_555 1_555
O1 C12 1_555 1_555
O2 C3 1_555 1_555
O3 C4 1_555 1_555
O4 C4 1_555 1_555
O5 C11 1_555 1_555
O6 C12 1_555 1_555
O7 C11 1_555 1_555
Er1 O1 1_555 1_555
C1G H1G 1_555 1_555
C2G C1G 1_555 1_555
H2G C2G 1_555 1_555
C3G N1G 1_555 1_555
C4E C13E 1_555 1_555
C5G H3G 1_555 1_555
C6G C2G 1_555 1_555
C7G C5G 1_555 1_555
H4G C7G 1_555 1_555
C8E C10 1_555 1_555
H5E C8E 1_555 1_555
C9G C1G 1_555 1_555
C10E C8 1_555 1_555
H6E C10E 1_555 1_555
C11G C6G 1_555 1_555
C12G C9G 1_555 1_555
C13E C8E 1_555 1_555
C14G H7G 1_555 1_555
H8G C14G 1_555 1_555
H9G C14G 1_555 1_555
C15G H10G 1_555 1_555
H11G C15G 1_555 1_555
H12G C15G 1_555 1_555
N1G C14G 1_555 1_555
O1G C12G 1_555 1_555
O2G C3G 1_555 1_555
O3E C4E 1_555 1_555
O3G Er1G 1_555 1_555
O4E C4E 1_555 1_555
O4D Er1 1_555 1_555
O4C Er1G 1_555 1_555
O5G Er1 1_555 1_555
O5_2 Er1G 1_555 1_555
O6G C12G 1_555 1_555
O6D Er1 1_555 1_555
O6C Er1G 1_555 1_555
O7G C11G 1_555 1_555
O7E Er1 1_555 1_555
O7B Er1G 1_555 1_555
Er1G O1G 1_555 1_555
Er1D O4 1_555 1_555
Er1G_2 O5 1_555 1_555
Er1E O7 1_555 1_555
Er1E_2 O3E 1_555 1_555
Er1A O4E 1_555 1_555
Er1C O6G 1_555 1_555
Er1B O7G 1_555 1_555
C5 C9 1_555 1_555
C6 C7 1_555 1_555
C10 C13 1_555 1_555
C15 N1 1_555 1_555
O2 Er1 1_555 1_555
O3 Er1 1_555 1_555
O6 Er1D 1_555 1_555
C5G C9G 1_555 1_555
C6G C7G 1_555 1_555
C10E C13E 1_555 1_555
C11G O5G 1_555 1_555
C15G N1G 1_555 1_555
O2G Er1G 1_555 1_555

#END
