
#######################################################################
#
#                 Cambridge Crystallographic Data Centre
#                                CCDC 
#
#######################################################################
#
# If this CIF has been generated from an entry in the Cambridge 
# Structural Database, then it will include bibliographic, chemical, 
# crystal, experimental, refinement or atomic coordinate data resulting 
# from the CCDC's data processing and validation procedures.
#
#######################################################################

data_DODNIU
_symmetry_cell_setting           triclinic
_symmetry_space_group_name_H-M   'P -1'
_symmetry_Int_Tables_number      2
_space_group_name_Hall           '-P 1'
loop_
_symmetry_equiv_pos_site_id
_symmetry_equiv_pos_as_xyz
1 x,y,z
2 -x,-y,-z
_cell_length_a                   9.5152(7)
_cell_length_b                   10.4989(8)
_cell_length_c                   10.5505(8)
_cell_angle_alpha                69.3380(10)
_cell_angle_beta                 87.3580(10)
_cell_angle_gamma                85.3750(10)
_cell_volume                     982.804
loop_
_atom_site_label
_atom_site_type_symbol
_atom_site_fract_x
_atom_site_fract_y
_atom_site_fract_z
Ag1 Ag 0.38351(3) 0.87144(3) 0.97889(3)
S1 S 0.71981(8) 0.47880(8) 1.42831(7)
S2 S 0.97697(8) 0.29053(8) 1.62833(8)
S3 S 0.73215(8) 0.89618(8) 0.81889(8)
O1 O 0.6082(3) 0.9544(3) 0.8675(3)
O2 O 0.8630(3) 0.9331(3) 0.8526(3)
O3 O 0.7268(3) 0.7561(2) 0.8339(2)
N1 N 0.4834(3) 0.7281(3) 1.1599(3)
N2 N 1.2267(3) 0.0216(3) 1.8609(3)
C1 C 0.5451(3) 0.6835(3) 1.2581(3)
C2 C 0.6189(3) 0.6316(3) 1.3820(3)
C3 C 0.6179(3) 0.6906(3) 1.4781(3)
H1 H 0.5680 0.7740 1.4702
C4 C 0.6996(3) 0.6131(3) 1.5903(3)
H2 H 0.7107 0.6392 1.6656
C5 C 0.7611(3) 0.4957(3) 1.5782(3)
C6 C 0.8522(3) 0.3940(3) 1.6762(3)
C7 C 0.8541(3) 0.3669(3) 1.8129(3)
H3 H 0.7936 0.4135 1.8574
C8 C 0.9548(3) 0.2632(3) 1.8798(3)
H4 H 0.9695 0.2329 1.9736
C9 C 1.0291(3) 0.2111(3) 1.7936(3)
C10 C 1.1380(4) 0.1053(3) 1.8290(3)
C17 C 0.7224(4) 0.9840(4) 0.6373(4)
F1 F 0.8332(3) 0.9502(3) 0.5731(2)
F2 F 0.6097(3) 0.9539(3) 0.5877(2)
F3 F 0.7131(3) 1.1190(2) 0.6042(2)
Ag1_2 Ag 1.38351(3) -0.12856(3) 1.97889(3)
N2_2 N 0.2267(3) 1.0216(3) 0.8609(3)
C11 C 0.6798(4) 0.4606(4) 0.1007(3)
H5 H 0.6258 0.5372 0.0451
C12 C 0.8231(4) 0.4654(4) 0.1078(4)
H6 H 0.8668 0.5457 0.0579
C13 C 0.9028(4) 0.3524(4) 0.1879(4)
H7 H 1.0008 0.3555 0.1921
C14 C 0.8390(4) 0.2358(4) 0.2613(4)
H8 H 0.8934 0.1591 0.3160
C15 C 0.6962(4) 0.2305(4) 0.2555(4)
H9 H 0.6531 0.1501 0.3059
C16 C 0.6152(4) 0.3434(4) 0.1754(4)
H10 H 0.5170 0.3403 0.1719
loop_
_geom_bond_atom_site_label_1
_geom_bond_atom_site_label_2
_geom_bond_site_symmetry_1
_geom_bond_site_symmetry_2
Ag1 O1 1_555 1_555
S1 C2 1_555 1_555
S2 C6 1_555 1_555
S3 O1 1_555 1_555
O2 S3 1_555 1_555
O3 S3 1_555 1_555
N1 Ag1 1_555 1_555
N2 C10 1_555 1_555
C1 N1 1_555 1_555
C2 C1 1_555 1_555
C3 C2 1_555 1_555
H1 C3 1_555 1_555
C4 C3 1_555 1_555
H2 C4 1_555 1_555
C5 S1 1_555 1_555
C6 C5 1_555 1_555
C7 C6 1_555 1_555
H3 C7 1_555 1_555
C8 C7 1_555 1_555
H4 C8 1_555 1_555
C9 S2 1_555 1_555
C10 C9 1_555 1_555
C11 H5 1_555 1_555
C12 C11 1_555 1_555
H6 C12 1_555 1_555
C13 C12 1_555 1_555
H7 C13 1_555 1_555
C14 C13 1_555 1_555
H8 C14 1_555 1_555
C15 C14 1_555 1_555
H9 C15 1_555 1_555
C16 C11 1_555 1_555
H10 C16 1_555 1_555
C17 S3 1_555 1_555
F1 C17 1_555 1_555
F2 C17 1_555 1_555
F3 C17 1_555 1_555
Ag1_2 N2 1_555 1_555
N2_2 Ag1 1_555 1_555
C4 C5 1_555 1_555
C8 C9 1_555 1_555
C15 C16 1_555 1_555

#END
