
#######################################################################
#
#                 Cambridge Crystallographic Data Centre
#                                CCDC 
#
#######################################################################
#
# If this CIF has been generated from an entry in the Cambridge 
# Structural Database, then it will include bibliographic, chemical, 
# crystal, experimental, refinement or atomic coordinate data resulting 
# from the CCDC's data processing and validation procedures.
#
#######################################################################

data_DODNCU
_symmetry_cell_setting           triclinic
_symmetry_space_group_name_H-M   'P -1'
_symmetry_Int_Tables_number      2
_space_group_name_Hall           '-P 1'
loop_
_symmetry_equiv_pos_site_id
_symmetry_equiv_pos_as_xyz
1 x,y,z
2 -x,-y,-z
_cell_length_a                   8.181(1)
_cell_length_b                   13.147(1)
_cell_length_c                   14.314(2)
_cell_angle_alpha                112.54(8)
_cell_angle_beta                 99.84(7)
_cell_angle_gamma                101.24(6)
_cell_volume                     1342.43
loop_
_atom_site_label
_atom_site_type_symbol
_atom_site_fract_x
_atom_site_fract_y
_atom_site_fract_z
Cl1 Cl 0.38950 0.77220 0.83090
Cl2 Cl 0.21990 0.37020 0.71450
Cl3 Cl 0.02910 0.58020 0.79550
Cl4 Cl 0.58510 0.56610 0.75390
Cl5 Cl 0.21020 0.54600 0.59750
Cl6 Cl 0.39590 0.59240 0.94690
Sb1 Sb 0.30590 0.57110 0.77160
Cu1 Cu 0.00000 0.00000 0.00000
C1 C 0.11760 0.22620 -0.02560
C2 C -0.78940 0.22810 -0.58420
C3 C -0.89890 0.26210 -0.65850
C4 C -0.94510 0.17560 -0.76750
C5 C 0.14690 0.33420 -0.03630
C6 C -0.02760 0.34750 -0.08570
C7 C -0.12270 0.25210 -0.19510
C8 C -0.26550 0.28300 -0.25040
C9 C -0.32730 0.20790 -0.36940
C10 C -0.46120 0.24690 -0.42490
C11 C -0.50780 0.17960 -0.54350
C12 C -0.61330 0.23160 -0.60550
C13 C -0.59510 0.02700 -0.23320
C14 C -0.53290 0.08740 -0.11430
C15 C -0.38470 0.05290 -0.07510
C16 C -0.96320 0.03610 -0.44150
C17 C -0.81280 0.00140 -0.39490
C18 C -0.74460 0.06570 -0.27530
H1 H 0.19700 0.39700 0.03100
H2 H -0.37800 0.13200 -0.38000
H3 H -0.56400 0.23700 -0.40200
H4 H -0.41600 0.32700 -0.40700
H5 H -0.40400 0.17700 -0.56400
H6 H -0.57500 0.10400 -0.56200
H7 H -0.55000 0.30900 -0.58600
H8 H -0.62900 0.18800 -0.67900
H9 H -0.84600 0.15200 -0.59500
H10 H -0.77400 0.28000 -0.51300
H11 H -1.00200 0.27000 -0.63800
H12 H 0.21200 0.33500 -0.08000
H13 H -0.83600 0.33400 -0.65300
H14 H -0.92400 0.11400 -0.42800
H15 H -1.05300 0.02700 -0.40800
H16 H -0.85000 -0.07900 -0.41400
H17 H -0.72100 0.01500 -0.42500
H18 H -0.70600 0.14600 -0.25600
H19 H -0.83600 0.05100 -0.24500
H20 H -0.63300 -0.05300 -0.25500
H21 H -0.50200 0.04500 -0.26100
H22 H -0.50000 0.16800 -0.09200
H23 H -0.10100 0.34900 -0.04100
H24 H -0.62500 0.06700 -0.08700
H25 H -0.00500 0.41900 -0.09000
H26 H -0.04100 0.23800 -0.23500
H27 H -0.17200 0.18400 -0.18900
H28 H -0.36300 0.27600 -0.22400
H29 H -0.22600 0.36100 -0.24200
H30 H -0.23100 0.21100 -0.39700
N1 N 0.09090 0.13990 -0.01990
N2 N -0.97600 0.10600 -0.85000
N3 N -0.27090 0.02470 -0.04940
N1A N -0.09090 -0.13990 0.01990
N2A N -0.02400 -0.10600 -0.15000
N3A N 0.27090 -0.02470 0.04940
N2_2 N 0.02400 0.10600 0.15000
C16A C -1.03680 -0.03610 -0.55850
C1A C -0.11760 -0.22620 0.02560
C17A C -1.18720 -0.00140 -0.60510
H14A H -1.07600 -0.11400 -0.57200
H15A H -0.94700 -0.02700 -0.59200
C5A C -0.14690 -0.33420 0.03630
C18A C -1.25540 -0.06570 -0.72470
H16A H -1.15000 0.07900 -0.58600
H17A H -1.27900 -0.01500 -0.57500
C6A C 0.02760 -0.34750 0.08570
H1A H -0.19700 -0.39700 -0.03100
H12A H -0.21200 -0.33500 0.08000
C13A C -1.40490 -0.02700 -0.76680
H18A H -1.29400 -0.14600 -0.74400
H19A H -1.16400 -0.05100 -0.75500
C7A C 0.12270 -0.25210 0.19510
H23A H 0.10100 -0.34900 0.04100
H25A H 0.00500 -0.41900 0.09000
C8A C 0.26550 -0.28300 0.25040
H26A H 0.04100 -0.23800 0.23500
H27A H 0.17200 -0.18400 0.18900
C9A C 0.32730 -0.20790 0.36940
H28A H 0.36300 -0.27600 0.22400
H29A H 0.22600 -0.36100 0.24200
C10A C 0.46120 -0.24690 0.42490
H2A H 0.37800 -0.13200 0.38000
H30A H 0.23100 -0.21100 0.39700
C14A C -1.46710 -0.08740 -0.88570
H20A H -1.36700 0.05300 -0.74500
H21A H -1.49800 -0.04500 -0.73900
Cu1_2 Cu -1.00000 0.00000 -1.00000
C15A C -1.61530 -0.05290 -0.92490
H22A H -1.50000 -0.16800 -0.90800
H24A H -1.37500 -0.06700 -0.91300
N3A_2 N -1.72910 -0.02470 -0.95060
Cu1_3 Cu -2.00000 0.00000 -1.00000
C11A C 0.50780 -0.17960 0.54350
H3A H 0.56400 -0.23700 0.40200
H4A H 0.41600 -0.32700 0.40700
C12A C 0.61330 -0.23160 0.60550
H5A H 0.40400 -0.17700 0.56400
H6A H 0.57500 -0.10400 0.56200
C2A C 0.78940 -0.22810 0.58420
H7A H 0.55000 -0.30900 0.58600
H8A H 0.62900 -0.18800 0.67900
C3A C 0.89890 -0.26210 0.65850
H9A H 0.84600 -0.15200 0.59500
H10A H 0.77400 -0.28000 0.51300
C4A C 0.94510 -0.17560 0.76750
H11A H 1.00200 -0.27000 0.63800
H13A H 0.83600 -0.33400 0.65300
N2A_2 N 0.97600 -0.10600 0.85000
Cu1_4 Cu 1.00000 0.00000 1.00000
loop_
_geom_bond_atom_site_label_1
_geom_bond_atom_site_label_2
_geom_bond_site_symmetry_1
_geom_bond_site_symmetry_2
Cl1 Sb1 1_555 1_555
Cl2 Sb1 1_555 1_555
Cl3 Sb1 1_555 1_555
Cl4 Sb1 1_555 1_555
Cl5 Sb1 1_555 1_555
Cl6 Sb1 1_555 1_555
Cu1 N1 1_555 1_555
C1 C5 1_555 1_555
C2 C3 1_555 1_555
C3 C4 1_555 1_555
C4 N2 1_555 1_555
C5 C6 1_555 1_555
C6 C7 1_555 1_555
C7 C8 1_555 1_555
C8 C9 1_555 1_555
C9 C10 1_555 1_555
C10 C11 1_555 1_555
C11 C12 1_555 1_555
C12 C2 1_555 1_555
C13 C14 1_555 1_555
C14 C15 1_555 1_555
C15 N3 1_555 1_555
C16 C17 1_555 1_555
C17 C18 1_555 1_555
C18 C13 1_555 1_555
H1 C5 1_555 1_555
H2 C9 1_555 1_555
H3 C10 1_555 1_555
H4 C10 1_555 1_555
H5 C11 1_555 1_555
H6 C11 1_555 1_555
H7 C12 1_555 1_555
H8 C12 1_555 1_555
H9 C2 1_555 1_555
H10 C2 1_555 1_555
H11 C3 1_555 1_555
H12 C5 1_555 1_555
H13 C3 1_555 1_555
H14 C16 1_555 1_555
H15 C16 1_555 1_555
H16 C17 1_555 1_555
H17 C17 1_555 1_555
H18 C18 1_555 1_555
H19 C18 1_555 1_555
H20 C13 1_555 1_555
H21 C13 1_555 1_555
H22 C14 1_555 1_555
H23 C6 1_555 1_555
H24 C14 1_555 1_555
H25 C6 1_555 1_555
H26 C7 1_555 1_555
H27 C7 1_555 1_555
H28 C8 1_555 1_555
H29 C8 1_555 1_555
H30 C9 1_555 1_555
N1 C1 1_555 1_555
N2 Cu1_2 1_555 1_555
N3 Cu1 1_555 1_555
N1A Cu1 1_555 1_555
N2A Cu1 1_555 1_555
N3A Cu1 1_555 1_555
N2_2 Cu1 1_555 1_555
C16A C16 1_555 1_555
C1A N1A 1_555 1_555
C17A C16A 1_555 1_555
H14A C16A 1_555 1_555
H15A C16A 1_555 1_555
C5A C1A 1_555 1_555
C18A C17A 1_555 1_555
H16A C17A 1_555 1_555
H17A C17A 1_555 1_555
C6A C5A 1_555 1_555
H1A C5A 1_555 1_555
H12A C5A 1_555 1_555
C13A C18A 1_555 1_555
H18A C18A 1_555 1_555
H19A C18A 1_555 1_555
C7A C6A 1_555 1_555
H23A C6A 1_555 1_555
H25A C6A 1_555 1_555
C8A C7A 1_555 1_555
H26A C7A 1_555 1_555
H27A C7A 1_555 1_555
C9A C8A 1_555 1_555
H28A C8A 1_555 1_555
H29A C8A 1_555 1_555
C10A C9A 1_555 1_555
H2A C9A 1_555 1_555
H30A C9A 1_555 1_555
C14A C13A 1_555 1_555
H20A C13A 1_555 1_555
H21A C13A 1_555 1_555
C15A C14A 1_555 1_555
H22A C14A 1_555 1_555
H24A C14A 1_555 1_555
N3A_2 C15A 1_555 1_555
Cu1_3 N3A_2 1_555 1_555
C11A C10A 1_555 1_555
H3A C10A 1_555 1_555
H4A C10A 1_555 1_555
C12A C11A 1_555 1_555
H5A C11A 1_555 1_555
H6A C11A 1_555 1_555
C2A C12A 1_555 1_555
H7A C12A 1_555 1_555
H8A C12A 1_555 1_555
C3A C2A 1_555 1_555
H9A C2A 1_555 1_555
H10A C2A 1_555 1_555
C4A C3A 1_555 1_555
H11A C3A 1_555 1_555
H13A C3A 1_555 1_555
N2A_2 C4A 1_555 1_555
Cu1_4 N2A_2 1_555 1_555

#END
