
#######################################################################
#
#                 Cambridge Crystallographic Data Centre
#                                CCDC 
#
#######################################################################
#
# If this CIF has been generated from an entry in the Cambridge 
# Structural Database, then it will include bibliographic, chemical, 
# crystal, experimental, refinement or atomic coordinate data resulting 
# from the CCDC's data processing and validation procedures.
#
#######################################################################

data_DODPIV
_symmetry_cell_setting           monoclinic
_symmetry_space_group_name_H-M   'C 2/c'
_symmetry_Int_Tables_number      15
_space_group_name_Hall           '-C 2yn'
loop_
_symmetry_equiv_pos_site_id
_symmetry_equiv_pos_as_xyz
1 x,y,z
2 1/2+x,1/2+y,z
3 x,-y,1/2+z
4 1/2+x,1/2-y,1/2+z
5 -x,-y,-z
6 1/2-x,1/2-y,-z
7 -x,y,1/2-z
8 1/2-x,1/2+y,1/2-z
_cell_length_a                   6.8902(6)
_cell_length_b                   17.1808(7)
_cell_length_c                   11.8999(5)
_cell_angle_alpha                90
_cell_angle_beta                 93.487(5)
_cell_angle_gamma                90
_cell_volume                     1406.09
loop_
_atom_site_label
_atom_site_type_symbol
_atom_site_fract_x
_atom_site_fract_y
_atom_site_fract_z
Pt1 Pt -0.5000 0.5000 0.0000
Cu1 Cu 0.0000 0.35883(3) -0.2500
C1 C -0.3242(5) 0.4196(2) -0.0591(3)
N1 N -0.2262(5) 0.37381(19) -0.0954(3)
C2 C 0.2853(5) 0.46307(19) -0.1065(3)
N2 N 0.1669(4) 0.43648(16) -0.1655(2)
N3 N -0.1659(4) 0.26787(15) -0.3081(2)
C3 C -0.0959(5) 0.19715(18) -0.2816(3)
C4 C -0.1967(6) 0.1303(2) -0.3116(3)
H1 H -0.136(6) 0.0836(16) -0.283(3)
C5 C -0.3759(6) 0.1360(2) -0.3698(3)
H2 H -0.445(6) 0.0922(18) -0.402(3)
C6 C -0.4489(6) 0.2087(2) -0.3969(3)
H3 H -0.574(5) 0.220(3) -0.434(4)
C7 C -0.3403(6) 0.2726(2) -0.3631(3)
H4 H -0.394(7) 0.3227(17) -0.381(3)
C1D C -0.6758(5) 0.5804(2) 0.0591(3)
C2D C -0.2853(5) 0.53693(19) 0.1065(3)
N1F N 0.2262(5) 0.37381(19) -0.4046(3)
N2F N -0.1669(4) 0.43648(16) -0.3345(2)
N3F N 0.1659(4) 0.26787(15) -0.1919(2)
C2_2 C -0.7147(5) 0.46307(19) -0.1065(3)
C3F C 0.0959(5) 0.19715(18) -0.2184(3)
N1D N -0.7738(5) 0.62619(19) 0.0954(3)
C1F C 0.3242(5) 0.4196(2) -0.4409(3)
C7F C 0.3403(6) 0.2726(2) -0.1369(3)
Pt1_2 Pt 0.5000 0.5000 0.0000
C4F C 0.1967(6) 0.1303(2) -0.1884(3)
Cu1B Cu -1.0000 0.64117(3) 0.2500
Pt1B Pt 0.5000 0.5000 -0.5000
C6F C 0.4489(6) 0.2087(2) -0.1031(3)
H4F H 0.394(7) 0.3227(17) -0.119(3)
H1F H 0.136(6) 0.0836(16) -0.217(3)
C5F C 0.3759(6) 0.1360(2) -0.1302(3)
H3F H 0.574(5) 0.220(3) -0.066(4)
H2F H 0.445(6) 0.0922(18) -0.098(3)
loop_
_geom_bond_atom_site_label_1
_geom_bond_atom_site_label_2
_geom_bond_site_symmetry_1
_geom_bond_site_symmetry_2
Pt1 C1 1_555 1_555
Cu1 N1 1_555 1_555
C1 N1 1_555 1_555
C2 N2 1_555 1_555
N2 Cu1 1_555 1_555
N3 Cu1 1_555 1_555
C3 N3 1_555 1_555
C4 C3 1_555 1_555
H1 C4 1_555 1_555
C5 C4 1_555 1_555
H2 C5 1_555 1_555
C6 C5 1_555 1_555
H3 C6 1_555 1_555
C7 N3 1_555 1_555
H4 C7 1_555 1_555
C1D Pt1 1_555 1_555
C2D Pt1 1_555 1_555
N1F Cu1 1_555 1_555
N2F Cu1 1_555 1_555
N3F Cu1 1_555 1_555
C2_2 Pt1 1_555 1_555
C3F C3 1_555 1_555
N1D C1D 1_555 1_555
C1F N1F 1_555 1_555
C7F N3F 1_555 1_555
Pt1_2 C2 1_555 1_555
C4F C3F 1_555 1_555
Cu1B N1D 1_555 1_555
Pt1B C1F 1_555 1_555
C6F C7F 1_555 1_555
H4F C7F 1_555 1_555
H1F C4F 1_555 1_555
C5F C4F 1_555 1_555
H3F C6F 1_555 1_555
H2F C5F 1_555 1_555
C6 C7 1_555 1_555
N3F C3F 1_555 1_555
C6F C5F 1_555 1_555

#END
