
#######################################################################
#
#                 Cambridge Crystallographic Data Centre
#                                CCDC 
#
#######################################################################
#
# If this CIF has been generated from an entry in the Cambridge 
# Structural Database, then it will include bibliographic, chemical, 
# crystal, experimental, refinement or atomic coordinate data resulting 
# from the CCDC's data processing and validation procedures.
#
#######################################################################

data_DODQET
_symmetry_cell_setting           monoclinic
_symmetry_space_group_name_H-M   'P 21/c'
_symmetry_Int_Tables_number      14
_space_group_name_Hall           '-P 2ybc'
loop_
_symmetry_equiv_pos_site_id
_symmetry_equiv_pos_as_xyz
1 x,y,z
2 -x,1/2+y,1/2-z
3 -x,-y,-z
4 x,1/2-y,1/2+z
_cell_length_a                   10.3911(11)
_cell_length_b                   6.9502(6)
_cell_length_c                   22.958(2)
_cell_angle_alpha                90
_cell_angle_beta                 100.658(7)
_cell_angle_gamma                90
_cell_volume                     1629.43
loop_
_atom_site_label
_atom_site_type_symbol
_atom_site_fract_x
_atom_site_fract_y
_atom_site_fract_z
Cu1 Cu 0.50334(13) 0.38817(19) 0.37533(7)
Cu2 Cu 0.39302(13) 0.13531(18) 0.46923(6)
Mo1 Mo 0.58031(9) -0.11524(13) 0.38138(5)
Mo2 Mo 0.33919(10) 0.63183(13) 0.45790(5)
O1 O 1.0665(8) 0.4672(15) 0.2594(4)
O2 O 0.4935(7) 0.1078(10) 0.3803(4)
O3 O 0.6565(8) -0.1100(11) 0.3214(4)
O4 O 0.3018(8) 0.1279(11) 0.5556(4)
O5 O 0.4795(8) 0.6706(10) 0.3756(4)
O6 O 0.4214(8) 0.3991(10) 0.4462(4)
O7 O 0.2698(8) 0.5874(12) 0.5187(4)
O8 O 0.2133(8) 0.6688(11) 0.4004(4)
O9 O 0.4342(7) -0.1430(10) 0.4751(4)
O10 O 0.3335(8) 0.3719(12) 0.2974(4)
H1 H 0.330(10) 0.392(18) 0.2604(15)
H2 H 0.256(4) 0.367(18) 0.304(4)
N1 N 0.6496(10) 0.3936(13) 0.3294(5)
N2 N 0.7890(9) 0.6171(12) 0.0773(4)
C1 C 0.6393(11) 0.3180(16) 0.2743(5)
H3 H 0.5633 0.2454 0.2586
C2 C 0.7331(11) 0.3414(15) 0.2404(6)
H4 H 0.7216 0.2889 0.2016
C3 C 0.8462(11) 0.4440(16) 0.2638(5)
C4 C 0.8620(11) 0.5115(15) 0.3211(5)
H5 H 0.9409 0.5737 0.3389
C5 C 0.7610(11) 0.4873(15) 0.3523(5)
H6 H 0.7707 0.5386 0.3912
C6 C 0.9592(11) 0.4806(17) 0.2313(6)
C7 C 0.8103(12) 0.5680(16) 0.1347(6)
H7 H 0.7373 0.5575 0.1540
C8 C 0.9342(11) 0.5320(17) 0.1671(5)
C9 C 1.0420(12) 0.5487(17) 0.1401(6)
H8 H 1.1277 0.5229 0.1614
C10 C 1.0223(11) 0.6031(16) 0.0823(5)
H9 H 1.0946 0.6164 0.0627
C11 C 0.8953(11) 0.6394(16) 0.0518(6)
H10 H 0.8834 0.6813 0.0118
Cu2B Cu 0.60698(13) -0.13531(18) 0.53077(6)
Cu2A Cu 0.60698(13) 0.63531(18) 0.03077(6)
Mo1B Mo 0.41969(9) 0.11524(13) 0.61862(5)
Mo1_2 Mo 0.58031(9) 0.88476(13) 0.38138(5)
Mo2_2 Mo 0.33919(10) -0.36817(13) 0.45790(5)
O4B O 0.6982(8) -0.1279(11) 0.4444(4)
O5_2 O 0.4795(8) -0.3294(10) 0.3756(4)
O9B O 0.5658(7) 0.1430(10) 0.5249(4)
O9_2 O 0.4342(7) 0.8570(10) 0.4751(4)
N2A N 0.2110(9) 0.1171(12) 0.4227(4)
loop_
_geom_bond_atom_site_label_1
_geom_bond_atom_site_label_2
_geom_bond_site_symmetry_1
_geom_bond_site_symmetry_2
Cu1 O2 1_555 1_555
Cu2 O2 1_555 1_555
Mo1 O2 1_555 1_555
Mo2 O6 1_555 1_555
O1 C6 1_555 1_555
O3 Mo1 1_555 1_555
O4 Cu2 1_555 1_555
O5 Cu1 1_555 1_555
O6 Cu1 1_555 1_555
O7 Mo2 1_555 1_555
O8 Mo2 1_555 1_555
O9 Cu2 1_555 1_555
O10 Cu1 1_555 1_555
H1 O10 1_555 1_555
H2 O10 1_555 1_555
N1 Cu1 1_555 1_555
N2 C7 1_555 1_555
C1 N1 1_555 1_555
H3 C1 1_555 1_555
C2 C1 1_555 1_555
H4 C2 1_555 1_555
C3 C2 1_555 1_555
C4 C3 1_555 1_555
H5 C4 1_555 1_555
C5 N1 1_555 1_555
H6 C5 1_555 1_555
C6 C3 1_555 1_555
C7 H7 1_555 1_555
C8 C6 1_555 1_555
C9 C8 1_555 1_555
H8 C9 1_555 1_555
C10 C9 1_555 1_555
H9 C10 1_555 1_555
C11 N2 1_555 1_555
H10 C11 1_555 1_555
Cu2B O9 1_555 1_555
Cu2A N2 1_555 1_555
Mo1B O4 1_555 1_555
Mo1_2 O5 1_555 1_555
Mo2_2 O9 1_555 1_555
O4B Mo1 1_555 1_555
O5_2 Mo1 1_555 1_555
O9B Cu2 1_555 1_555
O9_2 Mo2 1_555 1_555
N2A Cu2 1_555 1_555
Cu2 O6 1_555 1_555
C4 C5 1_555 1_555
C7 C8 1_555 1_555
C10 C11 1_555 1_555
Cu2B O4B 1_555 1_555
Cu2B O9B 1_555 1_555

#END
