
#######################################################################
#
#                 Cambridge Crystallographic Data Centre
#                                CCDC 
#
#######################################################################
#
# If this CIF has been generated from an entry in the Cambridge 
# Structural Database, then it will include bibliographic, chemical, 
# crystal, experimental, refinement or atomic coordinate data resulting 
# from the CCDC's data processing and validation procedures.
#
#######################################################################

data_DODQAP
_symmetry_cell_setting           triclinic
_symmetry_space_group_name_H-M   'P -1'
_symmetry_Int_Tables_number      2
_space_group_name_Hall           '-P 1'
loop_
_symmetry_equiv_pos_site_id
_symmetry_equiv_pos_as_xyz
1 x,y,z
2 -x,-y,-z
_cell_length_a                   7.8570(16)
_cell_length_b                   9.5323(19)
_cell_length_c                   10.929(2)
_cell_angle_alpha                91.16(3)
_cell_angle_beta                 98.11(3)
_cell_angle_gamma                94.23(3)
_cell_volume                     807.748
loop_
_atom_site_label
_atom_site_type_symbol
_atom_site_fract_x
_atom_site_fract_y
_atom_site_fract_z
H1 H 0.770(7) 0.887(6) 1.094(5)
H2 H 1.073(7) 0.743(6) 1.007(5)
C1 C 1.0990(6) 0.8182(5) 0.6695(5)
H3 H 1.1594 0.8547 0.7440
C2 C 1.1329(7) 0.8761(5) 0.5606(6)
H4 H 1.2163 0.9508 0.5618
C3 C 1.0448(7) 0.8244(6) 0.4508(6)
H5 H 1.0664 0.8641 0.3770
C4 C 0.9223(7) 0.7116(6) 0.4503(5)
H6 H 0.8603 0.6750 0.3764
C5 C 0.8939(6) 0.6544(5) 0.5620(5)
C6 C 0.7720(6) 0.5292(5) 0.5716(4)
C7 C 0.6968(7) 0.4475(6) 0.4683(5)
H7 H 0.7185 0.4720 0.3897
C8 C 0.5890(7) 0.3289(6) 0.4839(5)
H8 H 0.5372 0.2735 0.4159
C9 C 0.5598(7) 0.2946(6) 0.6018(6)
H9 H 0.4905 0.2144 0.6145
C10 C 0.6352(7) 0.3813(5) 0.7007(5)
H10 H 0.6151 0.3589 0.7801
H11 H 0.601(7) 1.279(5) 1.054(4)
H12 H 0.482(7) 1.256(8) 0.946(7)
In1 In 0.87769(4) 0.63355(3) 0.84035(3)
In2 In 1.0000 1.0000 1.0000
In3 In 0.5000 1.0000 1.0000
N1 N 0.9803(5) 0.7099(4) 0.6702(4)
N2 N 0.7369(5) 0.4973(4) 0.6848(4)
O1 O 0.6859(4) 0.7855(3) 0.8050(3)
O2 O 1.0225(5) 0.7789(4) 0.9665(3)
O3 O 1.0373(4) 0.4545(3) 0.8634(3)
O4 O 0.7600(4) 0.9623(4) 1.0683(3)
O5 O 0.5653(5) 1.2240(4) 0.9916(4)
O6 O 0.5453(4) 0.9986(4) 0.8098(3)
O7 O 1.3075(5) 0.5784(4) 0.8398(3)
O8 O 1.2836(4) 0.3248(4) 0.8484(3)
O9 O 1.2734(4) 0.4679(4) 1.0320(3)
O10 O 0.8570(4) 1.0090(4) 0.8150(3)
O11 O 0.6680(5) 0.9382(4) 0.6284(3)
S1 S 1.22869(15) 0.45669(12) 0.89381(10)
S2 S 0.68936(14) 0.93237(12) 0.76070(10)
H1A H 1.230(7) 1.113(6) 0.906(5)
H1A_2 H 0.230(7) 1.113(6) 0.906(5)
H2A H 0.927(7) 1.257(6) 0.993(5)
C1A C 0.9010(6) 1.1818(5) 1.3305(5)
H3A H 0.8406 1.1453 1.2560
C2A C 0.8671(7) 1.1239(5) 1.4394(6)
H4A H 0.7837 1.0492 1.4382
C3A C 0.9552(7) 1.1756(6) 1.5492(6)
H5A H 0.9336 1.1359 1.6230
C4A C 1.0777(7) 1.2884(6) 1.5497(5)
H6A H 1.1397 1.3250 1.6236
C5A C 1.1061(6) 1.3456(5) 1.4380(5)
C6A C 1.2280(6) 1.4708(5) 1.4284(4)
C7A C 1.3032(7) 1.5525(6) 1.5317(5)
H7A H 1.2815 1.5280 1.6103
C8A C 1.4110(7) 1.6711(6) 1.5161(5)
H8A H 1.4628 1.7265 1.5841
C9A C 1.4402(7) 1.7054(6) 1.3982(6)
H9A H 1.5095 1.7856 1.3855
C10A C 1.3648(7) 1.6187(5) 1.2993(5)
H10A H 1.3849 1.6411 1.2199
H11A H 0.399(7) 0.721(5) 0.946(4)
H12A H 0.518(7) 0.744(8) 1.054(7)
In1A In 1.12231(4) 1.36645(3) 1.15965(3)
In1A_2 In 1.12231(4) 0.36645(3) 1.15965(3)
In3_2 In 1.5000 1.0000 1.0000
N1A N 1.0197(5) 1.2901(4) 1.3298(4)
N2A N 1.2631(5) 1.5027(4) 1.3152(4)
O1A O 1.3141(4) 1.2145(3) 1.1950(3)
O2A O 0.9775(5) 1.2211(4) 1.0335(3)
O3A O 0.9627(4) 0.5455(3) 1.1366(3)
O3A_2 O 0.9627(4) 1.5455(3) 1.1366(3)
O4A O 1.2400(4) 1.0377(4) 0.9317(3)
O4A_2 O 0.2400(4) 1.0377(4) 0.9317(3)
O5A O 0.4347(5) 0.7760(4) 1.0084(4)
O6A O 1.4547(4) 1.0014(4) 1.1902(3)
O6A_2 O 0.4547(4) 1.0014(4) 1.1902(3)
O7A O 0.6925(5) 0.4216(4) 1.1602(3)
O8A O 0.7164(4) 0.6752(4) 1.1516(3)
O9A O 0.7266(4) 0.5321(4) 0.9680(3)
O9_2 O 1.2734(4) 1.4679(4) 1.0320(3)
O10A O 1.1430(4) 0.9910(4) 1.1850(3)
O11A O 1.3320(5) 1.0618(4) 1.3716(3)
S1A S 0.77131(15) 0.54331(12) 1.10619(10)
S2A S 1.31064(14) 1.06763(12) 1.23930(10)
loop_
_geom_bond_atom_site_label_1
_geom_bond_atom_site_label_2
_geom_bond_site_symmetry_1
_geom_bond_site_symmetry_2
H1 O4 1_555 1_555
H2 O2 1_555 1_555
C1 H3 1_555 1_555
C2 C1 1_555 1_555
H4 C2 1_555 1_555
C3 C2 1_555 1_555
H5 C3 1_555 1_555
C4 C3 1_555 1_555
H6 C4 1_555 1_555
C5 C4 1_555 1_555
C6 C5 1_555 1_555
C7 C6 1_555 1_555
H7 C7 1_555 1_555
C8 C7 1_555 1_555
H8 C8 1_555 1_555
C9 C8 1_555 1_555
H9 C9 1_555 1_555
C10 C9 1_555 1_555
H10 C10 1_555 1_555
H11 O5 1_555 1_555
H12 O5 1_555 1_555
In1 N1 1_555 1_555
In2 O2 1_555 1_555
In3 O4 1_555 1_555
N1 C1 1_555 1_555
N2 C6 1_555 1_555
O1 In1 1_555 1_555
O2 In1 1_555 1_555
O3 In1 1_555 1_555
O4 In2 1_555 1_555
O5 In3 1_555 1_555
O6 In3 1_555 1_555
O7 S1 1_555 1_555
O8 S1 1_555 1_555
O9 S1 1_555 1_555
O10 In2 1_555 1_555
O11 S2 1_555 1_555
S1 O3 1_555 1_555
S2 O1 1_555 1_555
H1A O4A 1_555 1_555
H1A_2 O4A_2 1_555 1_555
H2A O2A 1_555 1_555
C1A H3A 1_555 1_555
C2A C1A 1_555 1_555
H4A C2A 1_555 1_555
C3A C2A 1_555 1_555
H5A C3A 1_555 1_555
C4A C3A 1_555 1_555
H6A C4A 1_555 1_555
C5A C4A 1_555 1_555
C6A C5A 1_555 1_555
C7A C6A 1_555 1_555
H7A C7A 1_555 1_555
C8A C7A 1_555 1_555
H8A C8A 1_555 1_555
C9A C8A 1_555 1_555
H9A C9A 1_555 1_555
C10A C9A 1_555 1_555
H10A C10A 1_555 1_555
H11A O5A 1_555 1_555
H12A O5A 1_555 1_555
In1A N1A 1_555 1_555
In1A_2 O9 1_555 1_555
In3_2 O4A 1_555 1_555
N1A C1A 1_555 1_555
N2A C6A 1_555 1_555
O1A In1A 1_555 1_555
O2A In2 1_555 1_555
O3A In1A_2 1_555 1_555
O3A_2 In1A 1_555 1_555
O4A In2 1_555 1_555
O4A_2 In3 1_555 1_555
O5A In3 1_555 1_555
O6A In3_2 1_555 1_555
O6A_2 In3 1_555 1_555
O7A S1A 1_555 1_555
O8A S1A 1_555 1_555
O9A In1 1_555 1_555
O9_2 In1A 1_555 1_555
O10A In2 1_555 1_555
O11A S2A 1_555 1_555
S1A O3A 1_555 1_555
S2A O1A 1_555 1_555
C5 N1 1_555 1_555
C10 N2 1_555 1_555
In1 N2 1_555 1_555
O6 S2 1_555 1_555
O10 S2 1_555 1_555
C5A N1A 1_555 1_555
C10A N2A 1_555 1_555
In1A N2A 1_555 1_555
In1A O2A 1_555 1_555
O6A S2A 1_555 1_555
O9A S1A 1_555 1_555
O10A S2A 1_555 1_555

#END
