
#######################################################################
#
#                 Cambridge Crystallographic Data Centre
#                                CCDC 
#
#######################################################################
#
# If this CIF has been generated from an entry in the Cambridge 
# Structural Database, then it will include bibliographic, chemical, 
# crystal, experimental, refinement or atomic coordinate data resulting 
# from the CCDC's data processing and validation procedures.
#
#######################################################################

data_DODQIX
_symmetry_cell_setting           triclinic
_symmetry_space_group_name_H-M   'P -1'
_symmetry_Int_Tables_number      2
_space_group_name_Hall           '-P 1'
loop_
_symmetry_equiv_pos_site_id
_symmetry_equiv_pos_as_xyz
1 x,y,z
2 -x,-y,-z
_cell_length_a                   10.9000(3)
_cell_length_b                   11.7912(4)
_cell_length_c                   13.5584(4)
_cell_angle_alpha                97.987(2)
_cell_angle_beta                 102.482(2)
_cell_angle_gamma                117.481(2)
_cell_volume                     1450.98
loop_
_atom_site_label
_atom_site_type_symbol
_atom_site_fract_x
_atom_site_fract_y
_atom_site_fract_z
Cu1 Cu 0.47083(3) 0.28238(4) 0.08612(3)
Cu2 Cu -0.01239(3) 0.01689(4) 0.31403(3)
Mo1 Mo 0.315010(19) 0.313002(18) 0.305243(14)
Mo2 Mo 0.423670(19) 0.606760(18) 0.488170(14)
Mo3 Mo 0.23594(2) 0.32798(2) 0.534879(15)
Mo4 Mo 0.49959(2) 0.590200(19) 0.251283(15)
O1 O -0.1096(2) 0.3690(2) -0.09015(14)
O2 O -0.66862(19) -0.01961(19) 0.09534(14)
O3 O 0.39930(17) 0.24984(16) 0.24150(13)
O4 O 0.25995(16) 0.42547(16) 0.42458(12)
O5 O 0.13340(17) 0.19163(16) 0.25911(13)
O6 O 0.52900(16) 0.49718(15) 0.40560(12)
O7 O 0.36856(16) 0.27435(15) 0.44120(12)
O8 O 0.31297(17) 0.43644(16) 0.23114(12)
O9 O 0.41835(18) 0.65816(16) 0.37307(13)
O10 O 0.35141(18) 0.67826(17) 0.55487(14)
O11 O 0.08595(18) 0.17564(17) 0.46316(14)
O12 O 0.16911(19) 0.40687(18) 0.60048(14)
O13 O 0.67736(18) 0.72337(16) 0.35694(13)
O14 O 0.56500(19) 0.50629(17) 0.18602(14)
O15 O 0.4618(2) 0.67471(19) 0.16969(15)
N1 N 0.2831(2) 0.2558(2) 0.01326(15)
N2 N -0.3391(2) 0.3001(2) 0.12132(17)
N3 N -0.1965(2) 0.0109(2) 0.27257(17)
N4 N -0.9017(2) -0.0708(2) 0.30721(17)
C1 C 0.1641(2) 0.1759(2) 0.03670(18)
H1 H 0.1606 0.1044 0.0603
C2 C 0.0467(2) 0.1950(2) 0.02737(18)
H2 H -0.0318 0.1400 0.0475
C3 C 0.0476(2) 0.2975(2) -0.01243(18)
C4 C 0.1625(3) 0.3706(3) -0.0480(2)
H3 H 0.1613 0.4335 -0.0821
C5 C 0.2788(3) 0.3492(3) -0.0324(2)
H4 H 0.3570 0.4010 -0.0542
C6 C -0.0699(2) 0.3318(2) -0.01729(19)
C7 C -0.2742(2) 0.3004(2) 0.04800(19)
H5 H -0.3266 0.2838 -0.0215
C8 C -0.1322(2) 0.3245(2) 0.07061(18)
C9 C -0.0530(3) 0.3500(3) 0.1748(2)
H6 H 0.0418 0.3655 0.1928
C10 C -0.1199(3) 0.3518(3) 0.2508(2)
H7 H -0.0693 0.3698 0.3210
C11 C -0.2620(3) 0.3266(3) 0.2222(2)
H8 H -0.3053 0.3282 0.2741
C12 C -0.2669(3) -0.0088(2) 0.1722(2)
H9 H -0.2221 -0.0139 0.1221
C13 C -0.4029(2) -0.0218(2) 0.13960(19)
H10 H -0.4481 -0.0347 0.0691
C14 C -0.4712(2) -0.0152(2) 0.21381(19)
C15 C -0.3966(3) 0.0109(3) 0.3189(2)
H11 H -0.4370 0.0206 0.3710
C16 C -0.2604(3) 0.0221(3) 0.3444(2)
H12 H -0.2112 0.0381 0.4146
C17 C -0.6226(2) -0.0376(2) 0.17824(19)
C18 C -0.8129(2) -0.0388(2) 0.24824(18)
H13 H -0.8169 0.0161 0.2061
C19 C -0.7161(2) -0.0830(2) 0.24675(18)
C20 C -0.7147(3) -0.1705(3) 0.3049(2)
H14 H -0.6517 -0.2032 0.3047
C21 C -0.8093(3) -0.2081(3) 0.3633(2)
H15 H -0.8121 -0.2679 0.4021
C22 C -0.8991(3) -0.1560(3) 0.3631(2)
H16 H -0.9611 -0.1808 0.4035
Cu1_2 Cu -0.52917(3) 0.28238(4) 0.08612(3)
Cu2_2 Cu -1.01239(3) 0.01689(4) 0.31403(3)
Mo2A Mo 0.576330(19) 0.393240(18) 0.511830(14)
Mo3A Mo 0.76406(2) 0.67202(2) 0.465121(15)
O6A O 0.47100(16) 0.50282(15) 0.59440(12)
O7A O 0.63144(16) 0.72565(15) 0.55880(12)
O13A O 0.32264(18) 0.27663(16) 0.64306(13)
N2_2 N 0.6609(2) 0.3001(2) 0.12132(17)
N4_2 N 0.0983(2) -0.0708(2) 0.30721(17)
loop_
_geom_bond_atom_site_label_1
_geom_bond_atom_site_label_2
_geom_bond_site_symmetry_1
_geom_bond_site_symmetry_2
Cu1 O3 1_555 1_555
Cu2 O5 1_555 1_555
Mo1 O3 1_555 1_555
Mo2 O4 1_555 1_555
Mo3 O4 1_555 1_555
Mo4 O6 1_555 1_555
O1 C6 1_555 1_555
O2 C17 1_555 1_555
O4 Mo1 1_555 1_555
O5 Mo1 1_555 1_555
O6 Mo1 1_555 1_555
O7 Mo1 1_555 1_555
O8 Mo1 1_555 1_555
O9 Mo2 1_555 1_555
O10 Mo2 1_555 1_555
O11 Cu2 1_555 1_555
O12 Mo3 1_555 1_555
O13 Mo4 1_555 1_555
O14 Cu1 1_555 1_555
O15 Mo4 1_555 1_555
N1 Cu1 1_555 1_555
N2 C7 1_555 1_555
N3 Cu2 1_555 1_555
N4 C18 1_555 1_555
C1 N1 1_555 1_555
H1 C1 1_555 1_555
C2 C1 1_555 1_555
H2 C2 1_555 1_555
C3 C2 1_555 1_555
C4 C3 1_555 1_555
H3 C4 1_555 1_555
C5 N1 1_555 1_555
H4 C5 1_555 1_555
C6 C3 1_555 1_555
C7 H5 1_555 1_555
C8 C6 1_555 1_555
C9 C8 1_555 1_555
H6 C9 1_555 1_555
C10 C9 1_555 1_555
H7 C10 1_555 1_555
C11 N2 1_555 1_555
H8 C11 1_555 1_555
C12 N3 1_555 1_555
H9 C12 1_555 1_555
C13 C12 1_555 1_555
H10 C13 1_555 1_555
C14 C13 1_555 1_555
C15 C14 1_555 1_555
H11 C15 1_555 1_555
C16 N3 1_555 1_555
H12 C16 1_555 1_555
C17 C14 1_555 1_555
C18 H13 1_555 1_555
C19 C17 1_555 1_555
C20 C19 1_555 1_555
H14 C20 1_555 1_555
C21 C20 1_555 1_555
H15 C21 1_555 1_555
C22 N4 1_555 1_555
H16 C22 1_555 1_555
Cu1_2 N2 1_555 1_555
Cu2_2 N4 1_555 1_555
Mo2A O6 1_555 1_555
Mo3A O6 1_555 1_555
O6A Mo2 1_555 1_555
O7A Mo2 1_555 1_555
O13A Mo3 1_555 1_555
N2_2 Cu1 1_555 1_555
N4_2 Cu2 1_555 1_555
Mo2 O6 1_555 1_555
Mo3 O7 1_555 1_555
Mo3 O11 1_555 1_555
Mo3 O6A 1_555 1_555
Mo4 O8 1_555 1_555
Mo4 O9 1_555 1_555
Mo4 O14 1_555 1_555
O7 Mo2A 1_555 1_555
O13 Mo3A 1_555 1_555
C4 C5 1_555 1_555
C7 C8 1_555 1_555
C10 C11 1_555 1_555
C15 C16 1_555 1_555
C18 C19 1_555 1_555
C21 C22 1_555 1_555
Mo2A O6A 1_555 1_555
Mo3A O7A 1_555 1_555

#END
