
#######################################################################
#
#                 Cambridge Crystallographic Data Centre
#                                CCDC 
#
#######################################################################
#
# If this CIF has been generated from an entry in the Cambridge 
# Structural Database, then it will include bibliographic, chemical, 
# crystal, experimental, refinement or atomic coordinate data resulting 
# from the CCDC's data processing and validation procedures.
#
#######################################################################

data_DODRAQ
_symmetry_cell_setting           monoclinic
_symmetry_space_group_name_H-M   'P 21/c'
_symmetry_Int_Tables_number      14
_space_group_name_Hall           '-P 2ybc'
loop_
_symmetry_equiv_pos_site_id
_symmetry_equiv_pos_as_xyz
1 x,y,z
2 -x,1/2+y,1/2-z
3 -x,-y,-z
4 x,1/2-y,1/2+z
_cell_length_a                   5.3577(7)
_cell_length_b                   7.7503(10)
_cell_length_c                   17.816(2)
_cell_angle_alpha                90
_cell_angle_beta                 94.327(2)
_cell_angle_gamma                90
_cell_volume                     737.679
loop_
_atom_site_label
_atom_site_type_symbol
_atom_site_fract_x
_atom_site_fract_y
_atom_site_fract_z
Co1 Co 0.19314(8) 0.10161(7) 0.41734(3)
P1 P -0.29188(19) 0.24031(14) 0.48772(6)
H1 H -0.192(8) 0.400(5) 0.507(2)
O1 O -0.1489(6) 0.1750(6) 0.42380(18)
O2 O -0.2423(7) 0.1382(4) 0.55948(19)
O3 O -0.5666(6) 0.2605(4) 0.46339(19)
N1 N 0.2261(5) 0.1160(4) 0.30384(10)
C1 C 0.4254(4) 0.2010(4) 0.27455(13)
H2 H 0.5500 0.2506 0.3068
C2 C 0.4386(5) 0.2121(4) 0.19708(14)
H3 H 0.5720 0.2690 0.1775
C3 C 0.2524(6) 0.1381(5) 0.14889(10)
H4 H 0.2612 0.1455 0.0971
C4 C 0.0531(5) 0.0530(5) 0.17818(14)
H5 H -0.0715 0.0035 0.1459
C5 C 0.0399(4) 0.0419(4) 0.25565(15)
H6 H -0.0935 -0.0150 0.2752
Co1B Co -0.19314(8) -0.10161(7) 0.58266(3)
Co1_2 Co -0.80686(8) 0.10161(7) 0.41734(3)
O2B O 0.2423(7) -0.1382(4) 0.44052(19)
O3_2 O 0.4334(6) 0.2605(4) 0.46339(19)
loop_
_geom_bond_atom_site_label_1
_geom_bond_atom_site_label_2
_geom_bond_site_symmetry_1
_geom_bond_site_symmetry_2
Co1 O1 1_555 1_555
P1 H1 1_555 1_555
O1 P1 1_555 1_555
O2 P1 1_555 1_555
O3 P1 1_555 1_555
N1 Co1 1_555 1_555
C1 N1 1_555 1_555
H2 C1 1_555 1_555
C2 C1 1_555 1_555
H3 C2 1_555 1_555
C3 C2 1_555 1_555
H4 C3 1_555 1_555
C4 C3 1_555 1_555
H5 C4 1_555 1_555
C5 N1 1_555 1_555
H6 C5 1_555 1_555
Co1B O2 1_555 1_555
Co1_2 O3 1_555 1_555
O2B Co1 1_555 1_555
O3_2 Co1 1_555 1_555
C4 C5 1_555 1_555

#END
