
#######################################################################
#
#                 Cambridge Crystallographic Data Centre
#                                CCDC 
#
#######################################################################
#
# If this CIF has been generated from an entry in the Cambridge 
# Structural Database, then it will include bibliographic, chemical, 
# crystal, experimental, refinement or atomic coordinate data resulting 
# from the CCDC's data processing and validation procedures.
#
#######################################################################

data_DOFFOU
_symmetry_cell_setting           triclinic
_symmetry_space_group_name_H-M   'P -1'
_symmetry_Int_Tables_number      2
_space_group_name_Hall           '-P 1'
loop_
_symmetry_equiv_pos_site_id
_symmetry_equiv_pos_as_xyz
1 x,y,z
2 -x,-y,-z
_cell_length_a                   6.5384(4)
_cell_length_b                   8.3059(7)
_cell_length_c                   10.9620(6)
_cell_angle_alpha                110.646(7)
_cell_angle_beta                 94.732(5)
_cell_angle_gamma                106.160(6)
_cell_volume                     524.156
loop_
_atom_site_label
_atom_site_type_symbol
_atom_site_fract_x
_atom_site_fract_y
_atom_site_fract_z
Mn1 Mn 0.38860(4) 0.35521(3) 1.35748(2)
Cl1 Cl 0.18531(6) 0.13925(6) 1.14327(4)
O1 O 0.5813(2) 0.20592(17) 1.40293(12)
O2 O 1.1951(2) 0.29090(19) 1.48969(13)
O3 O 0.7152(2) 0.41713(18) 1.60916(14)
O4 O 1.33547(19) 0.49740(17) 1.69719(12)
C3 C 1.1929(2) 0.3554(2) 1.61111(15)
C4 C 0.6935(2) 0.2663(2) 1.51911(16)
C5 C 0.8029(2) 0.1453(2) 1.55449(16)
H9 H 0.8385 0.0667 1.4733
H10 H 0.7002 0.0650 1.5870
C6 C 1.0095(2) 0.2536(2) 1.66025(15)
H11 H 0.9769 0.3424 1.7373
H12 H 1.0583 0.1695 1.6913
Mn1_2 Mn -0.61140(4) 0.35521(3) 1.35748(2)
Mn1_3 Mn 1.38860(4) 0.35521(3) 1.35748(2)
Mn1A Mn 0.61140(4) 0.64479(3) 1.64252(2)
Mn1A_2 Mn 1.61140(4) 0.64479(3) 1.64252(2)
Mn1A_3 Mn -0.38860(4) 0.64479(3) 1.64252(2)
Cl1_2 Cl -0.81469(6) 0.13925(6) 1.14327(4)
O1_2 O -0.4187(2) 0.20592(17) 1.40293(12)
O2_2 O 0.1951(2) 0.29090(19) 1.48969(13)
O2_3 O -0.8049(2) 0.29090(19) 1.48969(13)
O3_2 O -0.2848(2) 0.41713(18) 1.60916(14)
O3A O 0.2848(2) 0.58287(18) 1.39084(14)
O3A_2 O -0.7152(2) 0.58287(18) 1.39084(14)
O4_2 O 0.33547(19) 0.49740(17) 1.69719(12)
O4A O 0.66453(19) 0.50260(17) 1.30281(12)
O4A_2 O -0.33547(19) 0.50260(17) 1.30281(12)
C3_2 C 0.1929(2) 0.3554(2) 1.61111(15)
C4_2 C -0.3065(2) 0.2663(2) 1.51911(16)
C5_2 C -0.1971(2) 0.1453(2) 1.55449(16)
H9_2 H -0.1615 0.0667 1.4733
H10_2 H -0.2998 0.0650 1.5870
C6_2 C 0.0095(2) 0.2536(2) 1.66025(15)
H11_2 H -0.0231 0.3424 1.7373
H12_2 H 0.0583 0.1695 1.6913
Cu1 Cu 0.5000 0.0000 1.0000
N1 N 0.3708(2) 0.05625(19) 0.85263(14)
H1 H 0.3946 -0.0132 0.7723
H2 H 0.2233 0.0305 0.8472
N2 N 0.7300(2) 0.24552(19) 1.05599(14)
H3 H 0.7062 0.3285 1.1302
H4 H 0.8655 0.2377 1.0758
C1 C 0.4771(3) 0.2523(2) 0.88381(19)
H5 H 0.4077 0.3260 0.9481
H6 H 0.4626 0.2764 0.8019
C2 C 0.7158(3) 0.3025(2) 0.94315(18)
H7 H 0.7892 0.2403 0.8750
H8 H 0.7884 0.4357 0.9743
N1A N 0.6292(2) -0.05625(19) 1.14737(14)
H1A H 0.6054 0.0132 1.2277
H2A H 0.7767 -0.0305 1.1528
N2A N 0.2700(2) -0.24552(19) 0.94401(14)
H3A H 0.2938 -0.3285 0.8698
H4A H 0.1345 -0.2377 0.9242
C1A C 0.5229(3) -0.2523(2) 1.11619(19)
H5A H 0.5923 -0.3260 1.0519
H6A H 0.5374 -0.2764 1.1981
C2A C 0.2842(3) -0.3025(2) 1.05685(18)
H7A H 0.2108 -0.2403 1.1250
H8A H 0.2116 -0.4357 1.0257
loop_
_geom_bond_atom_site_label_1
_geom_bond_atom_site_label_2
_geom_bond_site_symmetry_1
_geom_bond_site_symmetry_2
Mn1 Cl1 1_555 1_555
Cu1 N1 1_555 1_555
N1 H1 1_555 1_555
H2 N1 1_555 1_555
N2 Cu1 1_555 1_555
H3 N2 1_555 1_555
H4 N2 1_555 1_555
O1 Mn1 1_555 1_555
O2 C3 1_555 1_555
O3 C4 1_555 1_555
O4 C3 1_555 1_555
C1 N1 1_555 1_555
H5 C1 1_555 1_555
H6 C1 1_555 1_555
C2 N2 1_555 1_555
H7 C2 1_555 1_555
H8 C2 1_555 1_555
C3 C6 1_555 1_555
C4 O1 1_555 1_555
C5 C4 1_555 1_555
H9 C5 1_555 1_555
H10 C5 1_555 1_555
C6 C5 1_555 1_555
H11 C6 1_555 1_555
H12 C6 1_555 1_555
Mn1_2 Cl1_2 1_555 1_555
Mn1_3 O2 1_555 1_555
Mn1A O3 1_555 1_555
Mn1A_2 O4 1_555 1_555
Mn1A_3 O3_2 1_555 1_555
N1A Cu1 1_555 1_555
H1A N1A 1_555 1_555
H2A N1A 1_555 1_555
N2A Cu1 1_555 1_555
H3A N2A 1_555 1_555
H4A N2A 1_555 1_555
O1_2 Mn1_2 1_555 1_555
O2_2 Mn1 1_555 1_555
O2_3 Mn1_2 1_555 1_555
O3_2 C4_2 1_555 1_555
O3A Mn1 1_555 1_555
O3A_2 Mn1_2 1_555 1_555
O4_2 Mn1A 1_555 1_555
O4A Mn1 1_555 1_555
O4A_2 Mn1_2 1_555 1_555
C1A N1A 1_555 1_555
H5A C1A 1_555 1_555
H6A C1A 1_555 1_555
C2A N2A 1_555 1_555
H7A C2A 1_555 1_555
H8A C2A 1_555 1_555
C3_2 O2_2 1_555 1_555
C4_2 O1_2 1_555 1_555
C5_2 C4_2 1_555 1_555
H9_2 C5_2 1_555 1_555
H10_2 C5_2 1_555 1_555
C6_2 C3_2 1_555 1_555
H11_2 C6_2 1_555 1_555
H12_2 C6_2 1_555 1_555
C1 C2 1_555 1_555
O4_2 C3_2 1_555 1_555
C1A C2A 1_555 1_555
C5_2 C6_2 1_555 1_555

#END
