
#######################################################################
#
#                 Cambridge Crystallographic Data Centre
#                                CCDC 
#
#######################################################################
#
# If this CIF has been generated from an entry in the Cambridge 
# Structural Database, then it will include bibliographic, chemical, 
# crystal, experimental, refinement or atomic coordinate data resulting 
# from the CCDC's data processing and validation procedures.
#
#######################################################################

data_DOFGUB
_symmetry_cell_setting           monoclinic
_symmetry_space_group_name_H-M   'P 21/c'
_symmetry_Int_Tables_number      14
_space_group_name_Hall           '-P 2ybc'
loop_
_symmetry_equiv_pos_site_id
_symmetry_equiv_pos_as_xyz
1 x,y,z
2 -x,1/2+y,1/2-z
3 -x,-y,-z
4 x,1/2-y,1/2+z
_cell_length_a                   9.7098(2)
_cell_length_b                   17.8062(5)
_cell_length_c                   8.6065(2)
_cell_angle_alpha                90
_cell_angle_beta                 110.002(2)
_cell_angle_gamma                90
_cell_volume                     1398.26
loop_
_atom_site_label
_atom_site_type_symbol
_atom_site_fract_x
_atom_site_fract_y
_atom_site_fract_z
Cu1 Cu 0.34688(5) 0.16768(3) 0.12267(6)
O1 O 0.2133(3) 0.26312(18) 0.1616(4)
O2 O 0.3586(3) 0.29476(17) 0.4139(3)
N1 N 0.1617(4) 0.3800(2) 0.4781(4)
H1 H 0.0925 0.3773 0.5257
H2 H 0.1771 0.4286 0.4609
N2 N 0.5444(4) 0.2085(2) 0.2511(4)
H3 H 0.6011 0.2080 0.1874
H4 H 0.5354 0.2564 0.2792
N3 N 0.3699(4) 0.11507(19) 0.3368(4)
C1 C 0.2361(5) 0.2955(2) 0.2945(5)
C2 C 0.1148(5) 0.3388(2) 0.3215(5)
C3 C -0.0063(6) 0.3691(3) 0.1764(6)
H5 H -0.0506 0.4162 0.1903
H6 H 0.0002 0.3614 0.0675
C4 C -0.0337(6) 0.3029(3) 0.2639(7)
H7 H -0.0438 0.2547 0.2088
H8 H -0.0947 0.3096 0.3316
C5 C 0.2661(6) 0.0787(3) 0.3772(6)
H9 H 0.1747 0.0718 0.2963
C6 C 0.2890(6) 0.0512(3) 0.5328(7)
H10 H 0.2145 0.0265 0.5571
C7 C 0.4237(7) 0.0610(3) 0.6516(6)
H11 H 0.4423 0.0426 0.7579
C8 C 0.5313(6) 0.0983(3) 0.6127(6)
H12 H 0.6230 0.1057 0.6926
C9 C 0.5020(5) 0.1246(2) 0.4534(5)
C10 C 0.6149(5) 0.1644(3) 0.4010(5)
H13 H 0.6724 0.1973 0.4891
H14 H 0.6807 0.1279 0.3800
Cu1C Cu 0.34688(5) 0.33232(3) 0.62267(6)
O2C O 0.3586(3) 0.20524(17) -0.0861(3)
N1C N 0.1617(4) 0.1200(2) -0.0219(4)
H1C H 0.0925 0.1227 0.0257
H2C H 0.1771 0.0714 -0.0391
Cl1 Cl 0.78903(13) 0.08690(7) 0.08336(14)
O3 O 0.6784(7) 0.0398(4) 0.0856(9)
O4 O 0.8906(8) 0.0908(5) 0.2382(9)
O5 O 0.8480(7) 0.0559(3) -0.0310(7)
O6 O 0.7284(6) 0.1581(2) 0.0283(6)
loop_
_geom_bond_atom_site_label_1
_geom_bond_atom_site_label_2
_geom_bond_site_symmetry_1
_geom_bond_site_symmetry_2
Cu1 O1 1_555 1_555
Cl1 O3 1_555 1_555
O1 C1 1_555 1_555
O2 C1 1_555 1_555
O4 Cl1 1_555 1_555
O5 Cl1 1_555 1_555
O6 Cl1 1_555 1_555
N1 H1 1_555 1_555
H2 N1 1_555 1_555
N2 Cu1 1_555 1_555
H3 N2 1_555 1_555
H4 N2 1_555 1_555
N3 Cu1 1_555 1_555
C1 C2 1_555 1_555
C2 N1 1_555 1_555
C3 C2 1_555 1_555
H5 C3 1_555 1_555
H6 C3 1_555 1_555
C4 C2 1_555 1_555
H7 C4 1_555 1_555
H8 C4 1_555 1_555
C5 N3 1_555 1_555
H9 C5 1_555 1_555
C6 C5 1_555 1_555
H10 C6 1_555 1_555
C7 C6 1_555 1_555
H11 C7 1_555 1_555
C8 C7 1_555 1_555
H12 C8 1_555 1_555
C9 N3 1_555 1_555
C10 N2 1_555 1_555
H13 C10 1_555 1_555
H14 C10 1_555 1_555
Cu1C O2 1_555 1_555
O2C Cu1 1_555 1_555
N1C Cu1 1_555 1_555
H1C N1C 1_555 1_555
H2C N1C 1_555 1_555
N1 Cu1C 1_555 1_555
C3 C4 1_555 1_555
C8 C9 1_555 1_555
C9 C10 1_555 1_555

#END
