
#######################################################################
#
#                 Cambridge Crystallographic Data Centre
#                                CCDC 
#
#######################################################################
#
# If this CIF has been generated from an entry in the Cambridge 
# Structural Database, then it will include bibliographic, chemical, 
# crystal, experimental, refinement or atomic coordinate data resulting 
# from the CCDC's data processing and validation procedures.
#
#######################################################################

data_DOFHAI
_symmetry_cell_setting           monoclinic
_symmetry_space_group_name_H-M   'P 21/c'
_symmetry_Int_Tables_number      14
_space_group_name_Hall           '-P 2ybc'
loop_
_symmetry_equiv_pos_site_id
_symmetry_equiv_pos_as_xyz
1 x,y,z
2 -x,1/2+y,1/2-z
3 -x,-y,-z
4 x,1/2-y,1/2+z
_cell_length_a                   12.4498(1)
_cell_length_b                   17.1635(4)
_cell_length_c                   8.5718(3)
_cell_angle_alpha                90
_cell_angle_beta                 109.1061(9)
_cell_angle_gamma                90
_cell_volume                     1730.74
loop_
_atom_site_label
_atom_site_type_symbol
_atom_site_fract_x
_atom_site_fract_y
_atom_site_fract_z
Cu1 Cu 0.24041(3) 0.15790(2) 0.57806(4)
O1 O 0.14637(19) 0.26154(13) 0.6249(2)
O2 O 0.25202(16) 0.30100(12) 0.8735(2)
N1 N 0.0866(2) 0.37761(15) 0.9358(3)
H1 H 0.0879 0.4288 0.9139
H2 H 0.0352 0.3695 0.9873
N2 N 0.4086(2) 0.16463(14) 0.6882(3)
N3 N 0.2481(2) 0.10900(13) 0.7966(3)
C1 C 0.1583(2) 0.29548(15) 0.7563(3)
C2 C 0.0571(2) 0.33258(16) 0.7832(3)
C3 C -0.0417(3) 0.3575(2) 0.6371(4)
H3 H -0.0361 0.3495 0.5280
H4 H -0.0829 0.4039 0.6485
C4 C -0.0520(3) 0.2876(2) 0.7327(4)
H5 H -0.0996 0.2914 0.8023
H6 H -0.0527 0.2370 0.6818
C5 C 0.4869(3) 0.1916(2) 0.6284(4)
H7 H 0.4642 0.2109 0.5212
C6 C 0.6022(3) 0.1919(3) 0.7210(5)
H8 H 0.6553 0.2109 0.6754
C7 C 0.6362(3) 0.1644(2) 0.8777(6)
H9 H 0.7130 0.1651 0.9403
C8 C 0.5568(3) 0.1350(2) 0.9460(4)
C9 C 0.4428(2) 0.13641(16) 0.8443(3)
C10 C 0.3554(2) 0.10729(15) 0.9034(3)
C11 C 0.3837(3) 0.07832(18) 1.0644(3)
C12 C 0.2942(4) 0.0501(2) 1.1142(4)
H10 H 0.3084 0.0304 1.2202
C13 C 0.1867(3) 0.0518(2) 1.0058(4)
H11 H 0.1270 0.0326 1.0372
C14 C 0.1650(3) 0.08231(19) 0.8473(4)
H12 H 0.0905 0.0840 0.7756
C15 C 0.5828(3) 0.1048(2) 1.1079(4)
H13 H 0.6582 0.1031 1.1759
C16 C 0.5013(4) 0.0783(2) 1.1664(4)
H14 H 0.5214 0.0598 1.2742
Cu1C Cu 0.24041(3) 0.34210(2) 1.07806(4)
O2C O 0.25202(16) 0.19900(12) 0.3735(2)
N1C N 0.0866(2) 0.12239(15) 0.4358(3)
H1C H 0.0879 0.0712 0.4139
H2C H 0.0352 0.1305 0.4873
Cl1 Cl 0.80406(6) 0.07546(5) 0.55019(10)
O3 O 0.7116(2) 0.0239(2) 0.5160(4)
O4 O 0.8625(4) 0.0735(3) 0.7164(5)
O5 O 0.8756(4) 0.0503(2) 0.4631(8)
O6 O 0.7700(3) 0.15167(17) 0.4941(5)
loop_
_geom_bond_atom_site_label_1
_geom_bond_atom_site_label_2
_geom_bond_site_symmetry_1
_geom_bond_site_symmetry_2
Cu1 O1 1_555 1_555
Cl1 O3 1_555 1_555
O1 C1 1_555 1_555
O2 C1 1_555 1_555
O4 Cl1 1_555 1_555
O5 Cl1 1_555 1_555
O6 Cl1 1_555 1_555
N1 H1 1_555 1_555
H2 N1 1_555 1_555
N2 Cu1 1_555 1_555
N3 Cu1 1_555 1_555
C1 C2 1_555 1_555
C2 N1 1_555 1_555
C3 C2 1_555 1_555
H3 C3 1_555 1_555
H4 C3 1_555 1_555
C4 C2 1_555 1_555
H5 C4 1_555 1_555
H6 C4 1_555 1_555
C5 N2 1_555 1_555
H7 C5 1_555 1_555
C6 C5 1_555 1_555
H8 C6 1_555 1_555
C7 C6 1_555 1_555
H9 C7 1_555 1_555
C8 C7 1_555 1_555
C9 N2 1_555 1_555
C10 N3 1_555 1_555
C11 C10 1_555 1_555
C12 C11 1_555 1_555
H10 C12 1_555 1_555
C13 C12 1_555 1_555
H11 C13 1_555 1_555
C14 N3 1_555 1_555
H12 C14 1_555 1_555
C15 C8 1_555 1_555
H13 C15 1_555 1_555
C16 C11 1_555 1_555
H14 C16 1_555 1_555
Cu1C O2 1_555 1_555
O2C Cu1 1_555 1_555
N1C Cu1 1_555 1_555
H1C N1C 1_555 1_555
H2C N1C 1_555 1_555
N1 Cu1C 1_555 1_555
C3 C4 1_555 1_555
C8 C9 1_555 1_555
C9 C10 1_555 1_555
C13 C14 1_555 1_555
C15 C16 1_555 1_555

#END
