
#######################################################################
#
#                 Cambridge Crystallographic Data Centre
#                                CCDC 
#
#######################################################################
#
# If this CIF has been generated from an entry in the Cambridge 
# Structural Database, then it will include bibliographic, chemical, 
# crystal, experimental, refinement or atomic coordinate data resulting 
# from the CCDC's data processing and validation procedures.
#
#######################################################################

data_DOFNUJ
_symmetry_cell_setting           triclinic
_symmetry_space_group_name_H-M   'P 1'
_symmetry_Int_Tables_number      1
_space_group_name_Hall           'P 1'
loop_
_symmetry_equiv_pos_site_id
_symmetry_equiv_pos_as_xyz
1 x,y,z
_cell_length_a                   6.3104(6)
_cell_length_b                   11.2957(10)
_cell_length_c                   11.5156(11)
_cell_angle_alpha                113.259(6)
_cell_angle_beta                 97.630(6)
_cell_angle_gamma                94.944(6)
_cell_volume                     738.739
loop_
_atom_site_label
_atom_site_type_symbol
_atom_site_fract_x
_atom_site_fract_y
_atom_site_fract_z
O1 O -0.0134(7) 0.6224(5) 0.2854(5)
O2 O -0.2519(7) 0.6890(5) 0.1599(4)
O3 O 0.1466(7) 0.7364(5) 0.1723(4)
O4 O 0.4250(8) 0.8807(5) 0.1854(5)
O5 O 0.4232(8) 0.6528(5) -0.0950(5)
O6 O 0.7898(8) 0.8797(5) 0.0157(5)
N1 N 1.0686(9) 0.9711(6) -0.0426(6)
N2 N 0.4043(12) 0.5101(6) -0.3021(6)
C1 C 0.0106(11) 0.8766(7) 0.3564(6)
C2 C -0.3556(11) 0.5709(6) 0.1578(6)
C3 C -0.5573(12) 0.7596(7) 0.5322(7)
C4 C 0.5111(13) 0.5895(8) -0.1846(7)
C5 C -0.4009(13) 0.2150(8) 0.2483(7)
C6 C -0.2173(11) 0.4254(7) 0.2727(6)
C7 C -0.4098(12) 0.3411(7) 0.2524(6)
C8 C -0.2031(12) 0.7547(8) 0.6359(7)
C9 C -0.3021(11) 0.6426(7) 0.4046(6)
C10 C -0.1560(11) 0.6802(7) 0.5196(7)
C11 C -0.5402(12) 0.3659(7) -0.0288(7)
C12 C -0.3502(12) 0.4546(7) 0.0322(6)
C13 C -0.5059(12) 0.6814(7) 0.4136(7)
C14 C -0.3626(12) 0.2412(8) -0.1998(7)
C15 C -0.0942(11) 0.9487(7) 0.4588(6)
C16 C 0.1996(11) 0.9371(7) 0.3450(7)
C17 C 0.2735(11) 0.8513(7) 0.2299(7)
C18 C 0.2986(12) 1.0613(7) 0.4322(7)
C19 C -0.4057(12) 0.7946(7) 0.6433(7)
C20 C 0.0035(13) 1.0728(7) 0.5459(7)
C21 C 0.2027(11) 1.1282(8) 0.5330(7)
C22 C -0.1675(12) 0.4377(7) -0.0234(7)
C23 C -0.1721(12) 0.3315(8) -0.1384(7)
C24 C -0.2270(11) 0.5631(7) 0.2804(6)
C25 C -0.0183(12) 0.3830(7) 0.2937(7)
C26 C -0.5465(13) 0.2600(8) -0.1419(7)
C27 C 0.9698(12) 0.8811(7) -0.0115(7)
C28 C -0.2001(13) 0.1780(7) 0.2714(8)
C29 C -0.0160(12) 0.2637(8) 0.2932(7)
C30 C 1.2778(12) 0.9620(9) -0.0784(8)
C31 C 0.9601(14) 1.0769(8) -0.0494(8)
C32 C 0.5257(16) 0.4493(9) -0.4070(8)
C33 C 0.1699(14) 0.4988(9) -0.3317(8)
B1 B -0.0434(13) 0.7290(8) 0.2453(8)
Li1 Li 0.591(3) 0.7811(14) 0.0730(13)
H1 H -0.5092 0.5791 0.1681
H2 H -0.6944 0.7883 0.5363
H3 H 0.6644 0.5978 -0.1691
H4 H -0.5303 0.1561 0.2300
H5 H -0.5458 0.3691 0.2415
H6 H -0.0982 0.7794 0.7119
H7 H -0.0180 0.6527 0.5165
H8 H -0.6664 0.3791 0.0085
H9 H -0.6118 0.6543 0.3378
H10 H -0.3667 0.1687 -0.2789
H11 H -0.2295 0.9122 0.4673
H12 H 0.4312 1.0990 0.4216
H13 H -0.4399 0.8457 0.7245
H14 H -0.0649 1.1208 0.6149
H15 H 0.2703 1.2122 0.5945
H16 H -0.0388 0.4989 0.0171
H17 H -0.0460 0.3197 -0.1759
H18 H 0.1137 0.4382 0.3082
H19 H -0.6757 0.1991 -0.1814
H20 H 1.0464 0.8126 -0.0105
H21 H -0.1906 0.0948 0.2722
H22 H 0.1201 0.2375 0.3086
H23 H 1.2707 0.8810 -0.1548
H24 H 1.3827 0.9623 -0.0075
H25 H 1.3228 1.0366 -0.0974
H26 H 0.8384 1.0852 -0.0033
H27 H 0.9062 1.0586 -0.1395
H28 H 1.0623 1.1585 -0.0098
H29 H 0.4705 0.3558 -0.4517
H30 H 0.6796 0.4617 -0.3706
H31 H 0.5071 0.4901 -0.4678
H32 H 0.1299 0.5843 -0.3196
H33 H 0.1047 0.4676 -0.2744
H34 H 0.1173 0.4369 -0.4212
O2_2 O 0.7481(7) 0.6890(5) 0.1599(4)
Li1_2 Li -0.409(3) 0.7811(14) 0.0730(13)
loop_
_geom_bond_atom_site_label_1
_geom_bond_atom_site_label_2
_geom_bond_site_symmetry_1
_geom_bond_site_symmetry_2
O1 C24 1_555 1_555
O2 C2 1_555 1_555
O3 C17 1_555 1_555
O4 C17 1_555 1_555
O5 C4 1_555 1_555
O6 C27 1_555 1_555
N1 C27 1_555 1_555
N2 C4 1_555 1_555
C1 C15 1_555 1_555
C2 C12 1_555 1_555
C3 C13 1_555 1_555
C4 H3 1_555 1_555
C5 C7 1_555 1_555
C6 C7 1_555 1_555
C7 H5 1_555 1_555
C8 C10 1_555 1_555
C9 C10 1_555 1_555
C10 H7 1_555 1_555
C11 C12 1_555 1_555
C12 C22 1_555 1_555
C13 C9 1_555 1_555
C14 C23 1_555 1_555
C15 C20 1_555 1_555
C16 C1 1_555 1_555
C17 C16 1_555 1_555
C18 C16 1_555 1_555
C19 C3 1_555 1_555
C20 C21 1_555 1_555
C21 C18 1_555 1_555
C22 C23 1_555 1_555
C23 H17 1_555 1_555
C24 C2 1_555 1_555
C25 C6 1_555 1_555
C26 C11 1_555 1_555
C27 H20 1_555 1_555
C28 C5 1_555 1_555
C29 C25 1_555 1_555
C30 N1 1_555 1_555
C31 N1 1_555 1_555
C32 N2 1_555 1_555
C33 N2 1_555 1_555
B1 O1 1_555 1_555
Li1 O4 1_555 1_555
H1 C2 1_555 1_555
H2 C3 1_555 1_555
H4 C5 1_555 1_555
H6 C8 1_555 1_555
H8 C11 1_555 1_555
H9 C13 1_555 1_555
H10 C14 1_555 1_555
H11 C15 1_555 1_555
H12 C18 1_555 1_555
H13 C19 1_555 1_555
H14 C20 1_555 1_555
H15 C21 1_555 1_555
H16 C22 1_555 1_555
H18 C25 1_555 1_555
H19 C26 1_555 1_555
H21 C28 1_555 1_555
H22 C29 1_555 1_555
H23 C30 1_555 1_555
H24 C30 1_555 1_555
H25 C30 1_555 1_555
H26 C31 1_555 1_555
H27 C31 1_555 1_555
H28 C31 1_555 1_555
H29 C32 1_555 1_555
H30 C32 1_555 1_555
H31 C32 1_555 1_555
H32 C33 1_555 1_555
H33 C33 1_555 1_555
H34 C33 1_555 1_555
O2_2 Li1 1_555 1_555
Li1_2 O2 1_555 1_555
O2 B1 1_555 1_555
O3 B1 1_555 1_555
O5 Li1 1_555 1_555
O6 Li1 1_555 1_555
C1 B1 1_555 1_555
C6 C24 1_555 1_555
C8 C19 1_555 1_555
C9 C24 1_555 1_555
C14 C26 1_555 1_555
C28 C29 1_555 1_555

#END
