
#######################################################################
#
#                 Cambridge Crystallographic Data Centre
#                                CCDC 
#
#######################################################################
#
# If this CIF has been generated from an entry in the Cambridge 
# Structural Database, then it will include bibliographic, chemical, 
# crystal, experimental, refinement or atomic coordinate data resulting 
# from the CCDC's data processing and validation procedures.
#
#######################################################################

data_DOFQOF
_symmetry_cell_setting           monoclinic
_symmetry_space_group_name_H-M   'P 2/n'
_symmetry_Int_Tables_number      13
_space_group_name_Hall           '-P 2yac'
loop_
_symmetry_equiv_pos_site_id
_symmetry_equiv_pos_as_xyz
1 x,y,z
2 1/2-x,y,1/2-z
3 -x,-y,-z
4 1/2+x,-y,1/2+z
_cell_length_a                   12.7961(16)
_cell_length_b                   6.0721(8)
_cell_length_c                   13.6946(18)
_cell_angle_alpha                90
_cell_angle_beta                 119.5093(15)
_cell_angle_gamma                90
_cell_volume                     926.025
loop_
_atom_site_label
_atom_site_type_symbol
_atom_site_fract_x
_atom_site_fract_y
_atom_site_fract_z
Ag1 Ag 0.2500 0.02938(8) 0.7500
N1 N 0.3993(3) 0.2689(7) 0.7789(4)
N2 N 0.7090(4) 0.2220(7) 1.1109(3)
C1 C 0.5672(4) 0.5198(7) 0.7824(4)
H1 H 0.5576 0.5351 0.7057
C2 C 0.6927(4) 0.4290(8) 0.8657(3)
H2 H 0.7534 0.4804 0.8460
H3 H 0.6924 0.2660 0.8663
C3 C 0.7190(4) 0.5217(7) 0.9807(4)
H4 H 0.8009 0.5895 1.0183
C4 C 0.6249(5) 0.7045(7) 0.9553(4)
H5 H 0.5651 0.6564 0.9768
H6 H 0.6642 0.8406 0.9971
C5 C 0.5657(5) 0.7437(8) 0.8310(4)
H7 H 0.6113 0.8531 0.8131
H8 H 0.4824 0.7972 0.8013
C6 C 0.4708(4) 0.3794(8) 0.7795(4)
C7 C 0.7144(4) 0.3524(7) 1.0542(3)
Ag1C Ag 0.7500 -0.02938(8) 1.2500
Ag1C_2 Ag -0.2500 -0.02938(8) 0.2500
N1A N 0.1007(3) 0.2689(7) 0.7211(4)
N2A N -0.2090(4) 0.2220(7) 0.3891(3)
N2C N 0.2090(4) -0.2220(7) 0.6109(3)
N2B N 0.2910(4) -0.2220(7) 0.8891(3)
C1A C -0.0672(4) 0.5198(7) 0.7176(4)
H1A H -0.0576 0.5351 0.7943
C2A C -0.1927(4) 0.4290(8) 0.6343(3)
H2A H -0.2534 0.4804 0.6540
H3A H -0.1924 0.2660 0.6337
C3A C -0.2190(4) 0.5217(7) 0.5193(4)
H4A H -0.3009 0.5895 0.4817
C4A C -0.1249(5) 0.7045(7) 0.5447(4)
H5A H -0.0651 0.6564 0.5232
H6A H -0.1642 0.8406 0.5029
C5A C -0.0657(5) 0.7437(8) 0.6690(4)
H7A H -0.1113 0.8531 0.6869
H8A H 0.0176 0.7972 0.6987
C6A C 0.0292(4) 0.3794(8) 0.7205(4)
C7A C -0.2144(4) 0.3524(7) 0.4458(3)
Sb1 Sb 0.5000 0.0000 0.5000
F1 F 0.3481(4) 0.0998(11) 0.3989(5)
F2 F 0.5157(8) 0.1763(14) 0.6143(6)
F3 F 0.5645(6) 0.2166(16) 0.4537(5)
F1B F 0.6519(4) -0.0998(11) 0.6011(5)
F2B F 0.4843(8) -0.1763(14) 0.3857(6)
F3B F 0.4355(6) -0.2166(16) 0.5463(5)
F4? F 0.3781(6) 0.011(2) 0.5276(9)
F5? F 0.6025(8) 0.043(2) 0.6448(4)
F6? F 0.4893(13) 0.2894(7) 0.4775(12)
loop_
_geom_bond_atom_site_label_1
_geom_bond_atom_site_label_2
_geom_bond_site_symmetry_1
_geom_bond_site_symmetry_2
Ag1 N1 1_555 1_555
N1 C6 1_555 1_555
N2 C7 1_555 1_555
C1 H1 1_555 1_555
C2 C1 1_555 1_555
H2 C2 1_555 1_555
H3 C2 1_555 1_555
C3 C2 1_555 1_555
H4 C3 1_555 1_555
C4 C3 1_555 1_555
H5 C4 1_555 1_555
H6 C4 1_555 1_555
C5 C1 1_555 1_555
H7 C5 1_555 1_555
H8 C5 1_555 1_555
C6 C1 1_555 1_555
C7 C3 1_555 1_555
Sb1 F1 1_555 1_555
F2 Sb1 1_555 1_555
F3 Sb1 1_555 1_555
Ag1C N2 1_555 1_555
Ag1C_2 N2A 1_555 1_555
N1A Ag1 1_555 1_555
N2A C7A 1_555 1_555
N2C Ag1 1_555 1_555
N2B Ag1 1_555 1_555
C1A H1A 1_555 1_555
C2A C1A 1_555 1_555
H2A C2A 1_555 1_555
H3A C2A 1_555 1_555
C3A C2A 1_555 1_555
H4A C3A 1_555 1_555
C4A C3A 1_555 1_555
H5A C4A 1_555 1_555
H6A C4A 1_555 1_555
C5A C1A 1_555 1_555
H7A C5A 1_555 1_555
H8A C5A 1_555 1_555
C6A N1A 1_555 1_555
C7A C3A 1_555 1_555
F1B Sb1 1_555 1_555
F2B Sb1 1_555 1_555
F3B Sb1 1_555 1_555
C4 C5 1_555 1_555
C1A C6A 1_555 1_555
C4A C5A 1_555 1_555

#END
