
#######################################################################
#
#                 Cambridge Crystallographic Data Centre
#                                CCDC 
#
#######################################################################
#
# If this CIF has been generated from an entry in the Cambridge 
# Structural Database, then it will include bibliographic, chemical, 
# crystal, experimental, refinement or atomic coordinate data resulting 
# from the CCDC's data processing and validation procedures.
#
#######################################################################

data_DOFREV
_symmetry_cell_setting           orthorhombic
_symmetry_space_group_name_H-M   'P 21 21 21'
_symmetry_Int_Tables_number      19
_space_group_name_Hall           'P 2ac 2ab'
loop_
_symmetry_equiv_pos_site_id
_symmetry_equiv_pos_as_xyz
1 x,y,z
2 1/2+x,1/2-y,-z
3 -x,1/2+y,1/2-z
4 1/2-x,-y,1/2+z
_cell_length_a                   15.490(2)
_cell_length_b                   15.626(2)
_cell_length_c                   20.803(3)
_cell_angle_alpha                90
_cell_angle_beta                 90
_cell_angle_gamma                90
_cell_volume                     5035.3
loop_
_atom_site_label
_atom_site_type_symbol
_atom_site_fract_x
_atom_site_fract_y
_atom_site_fract_z
Cd1 Cd 0.2760 0.2328 0.4045
Cd2 Cd 0.4668 0.3188 0.2800
Cd3 Cd 0.4731 0.0693 0.3399
Cd4 Cd 0.5345 0.2658 0.4630
S1 S 0.1163(2) 0.2289(2) 0.4316(1)
S2 S 0.5114(2) 0.4126(1) 0.1868(1)
S3 S 0.3092(2) 0.3369(1) 0.3129(1)
S4 S 0.3113(1) 0.0895(1) 0.3545(1)
S5 S 0.3759(1) 0.2703(2) 0.4969(1)
S6 S 0.4989(2) 0.1666(1) 0.2434(1)
S7 S 0.5464(2) 0.3805(1) 0.3773(1)
S8 S 0.5806(1) 0.1201(1) 0.4221(1)
C1 C 0.0785(6) 0.1396(8) 0.3884(5)
C2 C 0.0598(7) 0.0635(8) 0.4197(8)
C3 C 0.0286(11) -0.0108(10) 0.3880(10)
C4 C 0.0287(11) 0.0023(13) 0.3255(9)
C5 C 0.0329(15) 0.0726(18) 0.2882(7)
C6 C 0.0699(9) 0.1382(12) 0.3259(6)
C7 C 0.4842(6) 0.3575(5) 0.1165(4)
C8 C 0.4067(7) 0.3724(7) 0.0842(5)
C9 C 0.3875(10) 0.3322(9) 0.0268(6)
C10 C 0.4476(11) 0.2760(9) 0.0023(6)
C11 C 0.5232(10) 0.2587(8) 0.0338(6)
C12 C 0.5426(8) 0.2996(7) 0.0905(5)
C13 C 0.2445(7) 0.2979(6) 0.2491(4)
C14 C 0.1644(10) 0.3338(10) 0.2404(8)
C15 C 0.1092(12) 0.3018(10) 0.1936(10)
C16 C 0.1340(13) 0.2408(9) 0.1522(7)
C17 C 0.2127(14) 0.2066(11) 0.1581(7)
C18 C 0.2698(9) 0.2360(9) 0.2060(6)
C19 C 0.2777(5) 0.0096(5) 0.4094(4)
C20 C 0.2641(7) 0.0242(6) 0.4733(4)
C21 C 0.2367(7) -0.0397(7) 0.5150(5)
C22 C 0.2183(8) -0.1173(7) 0.4914(5)
C23 C 0.2321(9) -0.1350(7) 0.4259(6)
C24 C 0.2609(7) -0.0725(6) 0.3849(5)
C25 C 0.3547(6) 0.3782(7) 0.5163(5)
C26 C 0.3672(7) 0.4438(7) 0.4700(7)
C27 C 0.3493(8) 0.5283(8) 0.4877(7)
C28 C 0.3208(9) 0.5475(9) 0.5496(10)
C29 C 0.3100(8) 0.4840(11) 0.5939(8)
C30 C 0.3264(7) 0.3983(8) 0.5776(6)
C31 C 0.6135(8) 0.1595(6) 0.2363(5)
C32 C 0.6677(7) 0.2219(8) 0.2410(6)
C33 C 0.7573(8) 0.2195(8) 0.2327(6)
C34 C 0.7891(14) 0.1475(10) 0.2159(14)
C35 C 0.7455(20) 0.0792(14) 0.2290(16)
C36 C 0.6434(14) 0.0850(9) 0.2168(16)
C37 C 0.6548(6) 0.3939(6) 0.3539(4)
C38 C 0.6750(7) 0.4601(7) 0.3136(5)
C39 C 0.7629(8) 0.4733(8) 0.2945(5)
C40 C 0.8276(7) 0.4240(9) 0.3205(5)
C41 C 0.8081(7) 0.3617(7) 0.3628(5)
C42 C 0.7210(7) 0.3439(6) 0.3792(5)
C43 C 0.5619(6) 0.0613(5) 0.4939(4)
C44 C 0.6295(7) 0.0526(6) 0.5371(5)
C45 C 0.6154(10) 0.0072(8) 0.5939(6)
C46 C 0.5390(9) -0.0289(8) 0.6069(5)
C47 C 0.4691(9) -0.0219(8) 0.5645(5)
C48 C 0.4831(7) 0.0241(7) 0.5073(4)
Cd3B Cd 0.5269 0.5693 0.1601
Cd4A Cd 0.0345 0.2342 0.5370
S1A S 0.6163(2) 0.2711(2) 0.5684(1)
S2B S 0.4886(2) -0.0874(1) 0.3132(1)
loop_
_geom_bond_atom_site_label_1
_geom_bond_atom_site_label_2
_geom_bond_site_symmetry_1
_geom_bond_site_symmetry_2
Cd1 S1 1_555 1_555
Cd2 S2 1_555 1_555
Cd3 S4 1_555 1_555
Cd4 S5 1_555 1_555
S1 C1 1_555 1_555
S2 C7 1_555 1_555
S3 Cd1 1_555 1_555
S4 Cd1 1_555 1_555
S5 Cd1 1_555 1_555
S6 Cd2 1_555 1_555
S7 Cd2 1_555 1_555
S8 Cd3 1_555 1_555
C1 C2 1_555 1_555
C2 C3 1_555 1_555
C3 C4 1_555 1_555
C4 C5 1_555 1_555
C5 C6 1_555 1_555
C6 C1 1_555 1_555
C7 C8 1_555 1_555
C8 C9 1_555 1_555
C9 C10 1_555 1_555
C10 C11 1_555 1_555
C11 C12 1_555 1_555
C12 C7 1_555 1_555
C13 S3 1_555 1_555
C14 C13 1_555 1_555
C15 C14 1_555 1_555
C16 C15 1_555 1_555
C17 C16 1_555 1_555
C18 C13 1_555 1_555
C19 S4 1_555 1_555
C20 C19 1_555 1_555
C21 C20 1_555 1_555
C22 C21 1_555 1_555
C23 C22 1_555 1_555
C24 C19 1_555 1_555
C25 S5 1_555 1_555
C26 C25 1_555 1_555
C27 C26 1_555 1_555
C28 C27 1_555 1_555
C29 C28 1_555 1_555
C30 C25 1_555 1_555
C31 S6 1_555 1_555
C32 C31 1_555 1_555
C33 C32 1_555 1_555
C34 C33 1_555 1_555
C35 C34 1_555 1_555
C36 C31 1_555 1_555
C37 S7 1_555 1_555
C38 C37 1_555 1_555
C39 C38 1_555 1_555
C40 C39 1_555 1_555
C41 C40 1_555 1_555
C42 C37 1_555 1_555
C43 S8 1_555 1_555
C44 C43 1_555 1_555
C45 C44 1_555 1_555
C46 C45 1_555 1_555
C47 C46 1_555 1_555
C48 C43 1_555 1_555
Cd3B S2 1_555 1_555
Cd4A S1 1_555 1_555
S1A Cd4 1_555 1_555
S2B Cd3 1_555 1_555
Cd2 S3 1_555 1_555
Cd3 S6 1_555 1_555
Cd4 S7 1_555 1_555
Cd4 S8 1_555 1_555
C17 C18 1_555 1_555
C23 C24 1_555 1_555
C29 C30 1_555 1_555
C35 C36 1_555 1_555
C41 C42 1_555 1_555
C47 C48 1_555 1_555

#END
