
#######################################################################
#
#                 Cambridge Crystallographic Data Centre
#                                CCDC 
#
#######################################################################
#
# If this CIF has been generated from an entry in the Cambridge 
# Structural Database, then it will include bibliographic, chemical, 
# crystal, experimental, refinement or atomic coordinate data resulting 
# from the CCDC's data processing and validation procedures.
#
#######################################################################

data_DOFRIA
_symmetry_cell_setting           monoclinic
_symmetry_space_group_name_H-M   'P 21/c'
_symmetry_Int_Tables_number      14
_space_group_name_Hall           '-P 2ybc'
loop_
_symmetry_equiv_pos_site_id
_symmetry_equiv_pos_as_xyz
1 x,y,z
2 -x,1/2+y,1/2-z
3 -x,-y,-z
4 x,1/2-y,1/2+z
_cell_length_a                   21.609(4)
_cell_length_b                   16.537(3)
_cell_length_c                   21.279(4)
_cell_angle_alpha                90.00
_cell_angle_beta                 100.25(3)
_cell_angle_gamma                90.00
_cell_volume                     7482.65
loop_
_atom_site_label
_atom_site_type_symbol
_atom_site_fract_x
_atom_site_fract_y
_atom_site_fract_z
C21 C 0.2656(5) 0.3050(6) 0.0605(6)
H13 H 0.2437 0.2682 0.0813
C22 C 0.2455(4) 0.3214(6) -0.0039(6)
H14 H 0.2101 0.2955 -0.0263
C23 C 0.2783(6) 0.3764(7) -0.0350(4)
H15 H 0.2648 0.3873 -0.0781
C24 C 0.3312(5) 0.4150(6) -0.0016(4)
C25 C 0.3513(4) 0.3987(5) 0.0629(4)
N5 N 0.3185(5) 0.3437(6) 0.0940(4)
C26 C 0.4353(6) 0.4947(7) 0.0710(3)
C27 C 0.4842(5) 0.5357(6) 0.1093(5)
H16 H 0.5060 0.5759 0.0918
C28 C 0.5004(5) 0.5166(7) 0.1738(5)
H17 H 0.5331 0.5440 0.1994
C29 C 0.4678(5) 0.4565(6) 0.1999(3)
H18 H 0.4787 0.4437 0.2430
N6 N 0.4190(4) 0.4155(5) 0.1616(4)
C30 C 0.4027(4) 0.4346(6) 0.0972(4)
N7 N 0.3106(5) 0.2398(8) 0.2288(4)
C31 C 0.3168(6) 0.1562(8) 0.2267(5)
H19 H 0.3464 0.1333 0.2052
C32 C 0.2789(7) 0.1069(7) 0.2567(6)
H20 H 0.2830 0.0510 0.2553
C33 C 0.2347(6) 0.1413(9) 0.2888(6)
H21 H 0.2093 0.1083 0.3089
C34 C 0.2285(5) 0.2248(10) 0.2909(5)
C35 C 0.2665(5) 0.2741(7) 0.2609(4)
N8 N 0.3028(5) 0.4012(7) 0.2291(5)
C36 C 0.2631(6) 0.3570(7) 0.2608(5)
C37 C 0.2207(6) 0.3968(10) 0.2921(6)
C38 C 0.2182(6) 0.4808(10) 0.2918(6)
H22 H 0.1899 0.5074 0.3128
C39 C 0.2579(7) 0.5249(7) 0.2601(7)
H23 H 0.2562 0.5811 0.2599
C40 C 0.3002(5) 0.4852(7) 0.2287(6)
H24 H 0.3268 0.5147 0.2075
C45 C 0.3683(10) 0.4689(12) -0.0305(9)
H29 H 0.3589 0.4775 -0.0743
C46 C 0.4181(10) 0.5088(12) 0.0053(7)
H30 H 0.4408 0.5459 -0.0144
Mo3 Mo 0.58508(6) 0.48086(8) 0.37255(6)
Mo4 Mo 0.43014(7) 0.58423(8) 0.35109(6)
Mo6 Mo 0.64381(7) 0.60947(9) 0.51490(6)
Mo8 Mo 0.49010(7) 0.71545(8) 0.49247(6)
V1 V 0.64854(9) 0.39724(11) 0.52103(9)
V2 V 0.44343(10) 0.37391(13) 0.36425(9)
O3 O 0.4219(5) 0.3225(6) 0.2998(5)
O6 O 0.6222(5) 0.5830(6) 0.4205(5)
O7 O 0.4760(5) 0.6800(6) 0.3996(5)
O8 O 0.7094(6) 0.6610(7) 0.5150(5)
O9 O 0.6731(6) 0.5076(6) 0.5308(6)
O10 O 0.4161(5) 0.4785(7) 0.3350(7)
O13 O 0.4033(6) 0.6258(7) 0.2828(5)
O14 O 0.4170(5) 0.2300(6) 0.1603(5)
O17 O 0.5222(5) 0.5690(6) 0.3422(5)
O19 O 0.4095(6) 0.6901(8) 0.4933(6)
O22 O 0.5781(6) 0.6916(8) 0.4767(5)
O23 O 0.7150(6) 0.3517(8) 0.5300(6)
O24 O 0.5256(5) 0.4069(6) 0.3490(6)
O26 O 0.6230(6) 0.4816(7) 0.3123(5)
O29 O 0.4936(8) 0.4967(10) 0.4307(7)
O30 O 0.3671(7) 0.5988(8) 0.3950(6)
O31 O 0.6332(7) 0.4198(7) 0.4317(6)
O32 O 0.4824(6) 0.2961(9) 0.4236(6)
O33 O 0.3738(7) 0.3706(10) 0.4074(6)
O34 O 0.4661(9) 0.4162(9) 0.4737(7)
O35 O 0.4883(6) 0.8160(6) 0.4829(5)
O45 O 0.5630(9) 0.4986(12) 0.4800(9)
O46 O 0.4595(8) 0.5678(11) 0.4650(9)
P2 P 0.5000 0.5000 0.5000
V6 V 0.56123(13) 0.66322(15) 0.38649(11)
Zn2 Zn 0.36167(10) 0.32524(11) 0.18863(9)
C47 C 0.1834(12) 0.3429(17) 0.3222(11)
H31 H 0.1547 0.3671 0.3442
C48 C 0.1844(11) 0.2599(18) 0.3227(12)
H32 H 0.1576 0.2293 0.3429
C21B C 0.7344(5) 0.6950(6) 0.9395(6)
C21A C 0.7344(5) 0.8050(6) 1.4395(6)
C21C C 0.2656(5) 0.1950(6) 1.5605(6)
C21_2 C 0.2656(5) 0.3050(6) 2.0605(6)
C21B_2 C 0.7344(5) 0.6950(6) 1.9395(6)
C21_3 C 0.2656(5) 0.3050(6) 1.0605(6)
C21A_2 C 0.7344(5) -0.1950(6) 2.4395(6)
C21A_3 C 0.7344(5) 0.8050(6) 0.4395(6)
C21_4 C 0.2656(5) 1.3050(6) 1.0605(6)
C21C_2 C 0.2656(5) 0.1950(6) 0.5605(6)
H13B H 0.7563 0.7318 0.9187
H13A H 0.7563 0.7682 1.4187
H13C H 0.2437 0.2318 1.5813
H13_2 H 0.2437 0.2682 2.0813
C22B C 0.7545(4) 0.6786(6) 1.0039(6)
C22A C 0.7545(4) 0.8214(6) 1.5039(6)
C22C C 0.2455(4) 0.1786(6) 1.4961(6)
C22_2 C 0.2455(4) 0.3214(6) 1.9961(6)
H14B H 0.7899 0.7045 1.0263
H14A H 0.7899 0.7955 1.5263
H14C H 0.2101 0.2045 1.4737
H14_2 H 0.2101 0.2955 1.9737
C23B C 0.7217(6) 0.6236(7) 1.0350(4)
C23A C 0.7217(6) 0.8764(7) 1.5350(4)
C23C C 0.2783(6) 0.1236(7) 1.4650(4)
C23_2 C 0.2783(6) 0.3764(7) 1.9650(4)
H15B H 0.7352 0.6127 1.0781
H15A H 0.7352 0.8873 1.5781
H15C H 0.2648 0.1127 1.4219
C24B C 0.6688(5) 0.5850(6) 1.0016(4)
C24A C 0.6688(5) 0.9150(6) 1.5016(4)
C24C C 0.3312(5) 0.0850(6) 1.4984(4)
C24_2 C 0.3312(5) 0.4150(6) 1.9984(4)
C25B C 0.6487(4) 0.6013(5) 0.9371(4)
C25A C 0.6487(4) 0.8987(5) 1.4371(4)
C25C C 0.3513(4) 0.1013(5) 1.5629(4)
C25_2 C 0.3513(4) 0.3987(5) 2.0629(4)
C25B_2 C 0.6487(4) 0.6013(5) 1.9371(4)
C25_3 C 0.3513(4) 0.3987(5) 1.0629(4)
C25A_2 C 0.6487(4) -0.1013(5) 2.4371(4)
C25A_3 C 0.6487(4) 0.8987(5) 0.4371(4)
C25_4 C 0.3513(4) 1.3987(5) 1.0629(4)
C25C_2 C 0.3513(4) 0.1013(5) 0.5629(4)
N5B N 0.6815(5) 0.6563(6) 0.9060(4)
N5A N 0.6815(5) 0.8437(6) 1.4060(4)
N5C N 0.3185(5) 0.1563(6) 1.5940(4)
N5_2 N 0.3185(5) 0.3437(6) 2.0940(4)
N5B_2 N 0.6815(5) 0.6563(6) 1.9060(4)
N5_3 N 0.3185(5) 0.3437(6) 1.0940(4)
N5A_2 N 0.6815(5) -0.1563(6) 2.4060(4)
N5A_3 N 0.6815(5) 0.8437(6) 0.4060(4)
N5_4 N 0.3185(5) 1.3437(6) 1.0940(4)
N5C_2 N 0.3185(5) 0.1563(6) 0.5940(4)
C26B C 0.5647(6) 0.5053(7) 0.9290(3)
C26A C 0.5647(6) 0.9947(7) 1.4290(3)
C26C C 0.4353(6) 0.0053(7) 1.5710(3)
C26_2 C 0.4353(6) 0.4947(7) 2.0710(3)
C27B C 0.5158(5) 0.4643(6) 0.8907(5)
C27A C 0.5158(5) 1.0357(6) 1.3907(5)
C27C C 0.4842(5) -0.0357(6) 1.6093(5)
C27_2 C 0.4842(5) 0.5357(6) 2.1093(5)
H16B H 0.4940 0.4241 0.9082
H16A H 0.4940 1.0759 1.4082
H16C H 0.5060 -0.0759 1.5918
C28B C 0.4996(5) 0.4834(7) 0.8262(5)
C28A C 0.4996(5) 1.0166(7) 1.3262(5)
C28C C 0.5004(5) -0.0166(7) 1.6738(5)
C28_2 C 0.5004(5) 0.5166(7) 2.1738(5)
H17B H 0.4669 0.4560 0.8006
H17A H 0.4669 1.0440 1.3006
H17C H 0.5331 -0.0440 1.6994
H17_2 H 0.5331 0.5440 2.1994
C29B C 0.5322(5) 0.5435(6) 0.8001(3)
C29A C 0.5322(5) 0.9565(6) 1.3001(3)
C29C C 0.4678(5) 0.0435(6) 1.6999(3)
C29_2 C 0.4678(5) 0.4565(6) 2.1999(3)
C29B_2 C 0.5322(5) 0.5435(6) 1.8001(3)
C29_3 C 0.4678(5) 0.4565(6) 1.1999(3)
C29A_2 C 0.5322(5) -0.0435(6) 2.3001(3)
C29A_3 C 0.5322(5) 0.9565(6) 0.3001(3)
C29_4 C 0.4678(5) 1.4565(6) 1.1999(3)
C29C_2 C 0.4678(5) 0.0435(6) 0.6999(3)
H18B H 0.5213 0.5563 0.7570
H18A H 0.5213 0.9437 1.2570
H18C H 0.4787 0.0563 1.7430
H18_2 H 0.4787 0.4437 2.2430
N6B N 0.5810(4) 0.5845(5) 0.8384(4)
N6A N 0.5810(4) 0.9155(5) 1.3384(4)
N6C N 0.4190(4) 0.0845(5) 1.6616(4)
N6_2 N 0.4190(4) 0.4155(5) 2.1616(4)
N6B_2 N 0.5810(4) 0.5845(5) 1.8384(4)
N6_3 N 0.4190(4) 0.4155(5) 1.1616(4)
N6A_2 N 0.5810(4) -0.0845(5) 2.3384(4)
N6A_3 N 0.5810(4) 0.9155(5) 0.3384(4)
N6_4 N 0.4190(4) 1.4155(5) 1.1616(4)
N6C_2 N 0.4190(4) 0.0845(5) 0.6616(4)
C30B C 0.5973(4) 0.5654(6) 0.9028(4)
C30A C 0.5973(4) 0.9346(6) 1.4028(4)
C30C C 0.4027(4) 0.0654(6) 1.5972(4)
C30_2 C 0.4027(4) 0.4346(6) 2.0972(4)
C30B_2 C 0.5973(4) 0.5654(6) 1.9028(4)
C30_3 C 0.4027(4) 0.4346(6) 1.0972(4)
C30A_2 C 0.5973(4) -0.0654(6) 2.4028(4)
C30A_3 C 0.5973(4) 0.9346(6) 0.4028(4)
C30_4 C 0.4027(4) 1.4346(6) 1.0972(4)
C30C_2 C 0.4027(4) 0.0654(6) 0.5972(4)
N7B N 0.6894(5) 0.7602(8) 0.7712(4)
N7A N 0.6894(5) 0.7398(8) 1.2712(4)
N7C N 0.3106(5) 0.2602(8) 1.7288(4)
N7_2 N 0.3106(5) 0.2398(8) 2.2288(4)
N7B_2 N 0.6894(5) 0.7602(8) 1.7712(4)
N7_3 N 0.3106(5) 0.2398(8) 1.2288(4)
N7A_2 N 0.6894(5) -0.2602(8) 2.2712(4)
N7A_3 N 0.6894(5) 0.7398(8) 0.2712(4)
N7_4 N 0.3106(5) 1.2398(8) 1.2288(4)
N7C_2 N 0.3106(5) 0.2602(8) 0.7288(4)
C31B C 0.6832(6) 0.8438(8) 0.7733(5)
C31A C 0.6832(6) 0.6562(8) 1.2733(5)
C31C C 0.3168(6) 0.3438(8) 1.7267(5)
C31_2 C 0.3168(6) 0.1562(8) 2.2267(5)
C31B_2 C 0.6832(6) 0.8438(8) 1.7733(5)
C31_3 C 0.3168(6) 0.1562(8) 1.2267(5)
C31A_2 C 0.6832(6) -0.3438(8) 2.2733(5)
C31A_3 C 0.6832(6) 0.6562(8) 0.2733(5)
C31_4 C 0.3168(6) 1.1562(8) 1.2267(5)
C31C_2 C 0.3168(6) 0.3438(8) 0.7267(5)
H19B H 0.6536 0.8667 0.7948
H19A H 0.6536 0.6333 1.2948
H19C H 0.3464 0.3667 1.7052
H19_2 H 0.3464 0.1333 2.2052
C32B C 0.7211(7) 0.8931(7) 0.7433(6)
C32A C 0.7211(7) 0.6069(7) 1.2433(6)
C32C C 0.2789(7) 0.3931(7) 1.7567(6)
C32_2 C 0.2789(7) 0.1069(7) 2.2567(6)
H20B H 0.7170 0.9490 0.7447
H20A H 0.7170 0.5510 1.2447
H20C H 0.2830 0.4490 1.7553
H20_2 H 0.2830 0.0510 2.2553
C33B C 0.7653(6) 0.8587(9) 0.7112(6)
C33A C 0.7653(6) 0.6413(9) 1.2112(6)
C33C C 0.2347(6) 0.3587(9) 1.7888(6)
C33_2 C 0.2347(6) 0.1413(9) 2.2888(6)
H21B H 0.7907 0.8917 0.6911
H21A H 0.7907 0.6083 1.1911
H21C H 0.2093 0.3917 1.8089
C34B C 0.7715(5) 0.7752(10) 0.7091(5)
C34A C 0.7715(5) 0.7248(10) 1.2091(5)
C34C C 0.2285(5) 0.2752(10) 1.7909(5)
C34_2 C 0.2285(5) 0.2248(10) 2.2909(5)
C35B C 0.7335(5) 0.7259(7) 0.7391(4)
C35A C 0.7335(5) 0.7741(7) 1.2391(4)
C35C C 0.2665(5) 0.2259(7) 1.7609(4)
C35_2 C 0.2665(5) 0.2741(7) 2.2609(4)
C35B_2 C 0.7335(5) 0.7259(7) 1.7391(4)
C35_3 C 0.2665(5) 0.2741(7) 1.2609(4)
C35A_2 C 0.7335(5) -0.2259(7) 2.2391(4)
C35A_3 C 0.7335(5) 0.7741(7) 0.2391(4)
C35_4 C 0.2665(5) 1.2741(7) 1.2609(4)
C35C_2 C 0.2665(5) 0.2259(7) 0.7609(4)
N8B N 0.6972(5) 0.5988(7) 0.7709(5)
N8A N 0.6972(5) 0.9012(7) 1.2709(5)
N8C N 0.3028(5) 0.0988(7) 1.7291(5)
N8_2 N 0.3028(5) 0.4012(7) 2.2291(5)
N8B_2 N 0.6972(5) 0.5988(7) 1.7709(5)
N8_3 N 0.3028(5) 0.4012(7) 1.2291(5)
N8A_2 N 0.6972(5) -0.0988(7) 2.2709(5)
N8A_3 N 0.6972(5) 0.9012(7) 0.2709(5)
N8_4 N 0.3028(5) 1.4012(7) 1.2291(5)
N8C_2 N 0.3028(5) 0.0988(7) 0.7291(5)
C36B C 0.7369(6) 0.6430(7) 0.7392(5)
C36A C 0.7369(6) 0.8570(7) 1.2392(5)
C36C C 0.2631(6) 0.1430(7) 1.7608(5)
C36_2 C 0.2631(6) 0.3570(7) 2.2608(5)
C36B_2 C 0.7369(6) 0.6430(7) 1.7392(5)
C36_3 C 0.2631(6) 0.3570(7) 1.2608(5)
C36A_2 C 0.7369(6) -0.1430(7) 2.2392(5)
C36A_3 C 0.7369(6) 0.8570(7) 0.2392(5)
C36_4 C 0.2631(6) 1.3570(7) 1.2608(5)
C36C_2 C 0.2631(6) 0.1430(7) 0.7608(5)
C37B C 0.7793(6) 0.6032(10) 0.7079(6)
C37A C 0.7793(6) 0.8968(10) 1.2079(6)
C37C C 0.2207(6) 0.1032(10) 1.7921(6)
C37_2 C 0.2207(6) 0.3968(10) 2.2921(6)
C38B C 0.7818(6) 0.5192(10) 0.7082(6)
C38A C 0.7818(6) 0.9808(10) 1.2082(6)
C38C C 0.2182(6) 0.0192(10) 1.7918(6)
C38_2 C 0.2182(6) 0.4808(10) 2.2918(6)
H22B H 0.8101 0.4926 0.6872
H22A H 0.8101 1.0074 1.1872
H22C H 0.1899 -0.0074 1.8128
C39B C 0.7421(7) 0.4751(7) 0.7399(7)
C39A C 0.7421(7) 1.0249(7) 1.2399(7)
C39C C 0.2579(7) -0.0249(7) 1.7601(7)
C39_2 C 0.2579(7) 0.5249(7) 2.2601(7)
H23B H 0.7438 0.4189 0.7401
H23A H 0.7438 1.0811 1.2401
H23C H 0.2562 -0.0811 1.7599
H23_2 H 0.2562 0.5811 2.2599
C40B C 0.6998(5) 0.5148(7) 0.7713(6)
C40A C 0.6998(5) 0.9852(7) 1.2713(6)
C40C C 0.3002(5) 0.0148(7) 1.7287(6)
C40_2 C 0.3002(5) 0.4852(7) 2.2287(6)
C40B_2 C 0.6998(5) 0.5148(7) 1.7713(6)
C40_3 C 0.3002(5) 0.4852(7) 1.2287(6)
C40A_2 C 0.6998(5) -0.0148(7) 2.2713(6)
C40A_3 C 0.6998(5) 0.9852(7) 0.2713(6)
C40_4 C 0.3002(5) 1.4852(7) 1.2287(6)
C40C_2 C 0.3002(5) 0.0148(7) 0.7287(6)
H24B H 0.6732 0.4853 0.7925
H24A H 0.6732 1.0147 1.2925
H24C H 0.3268 -0.0147 1.7075
H24_2 H 0.3268 0.5147 2.2075
C45C C 0.3683(10) 0.0311(12) 1.4695(9)
C45A C 0.6317(10) 0.9689(12) 1.5305(9)
C45B C 0.6317(10) 0.5311(12) 1.0305(9)
C45_2 C 0.3683(10) 0.4689(12) 1.9695(9)
H29C H 0.3589 0.0225 1.4257
H29A H 0.6411 0.9775 1.5743
H29B H 0.6411 0.5225 1.0743
C46C C 0.4181(10) -0.0088(12) 1.5053(7)
C46A C 0.5819(10) 1.0088(12) 1.4947(7)
C46B C 0.5819(10) 0.4912(12) 0.9947(7)
C46_2 C 0.4181(10) 0.5088(12) 2.0053(7)
H30C H 0.4408 -0.0459 1.4856
H30A H 0.5592 1.0459 1.5144
H30B H 0.5592 0.4541 1.0144
Mo3B Mo 0.41492(6) 0.51914(8) 0.62745(6)
Mo3C Mo 0.58508(6) 1.01914(8) 0.87255(6)
Mo3A Mo 0.41492(6) 0.98086(8) 1.12745(6)
Mo3_2 Mo 0.58508(6) 0.48086(8) 1.37255(6)
Mo3B_2 Mo 0.41492(6) 0.51914(8) 1.62745(6)
Mo3A_2 Mo 0.41492(6) -0.01914(8) 2.12745(6)
Mo3C_2 Mo 0.58508(6) 0.01914(8) 1.87255(6)
Mo3A_3 Mo 0.41492(6) -0.01914(8) 0.12745(6)
Mo3_3 Mo 0.58508(6) 0.48086(8) 2.37255(6)
Mo4B Mo 0.56986(7) 0.41577(8) 0.64891(6)
Mo4C Mo 0.43014(7) 0.91577(8) 0.85109(6)
Mo4A Mo 0.56986(7) 1.08423(8) 1.14891(6)
Mo4_2 Mo 0.43014(7) 0.58423(8) 1.35109(6)
Mo4B_2 Mo 0.56986(7) 0.41577(8) 1.64891(6)
Mo4C_2 Mo 0.43014(7) -0.08423(8) 1.85109(6)
Mo4A_2 Mo 0.56986(7) 0.08423(8) 2.14891(6)
Mo4A_3 Mo 0.56986(7) 0.08423(8) 0.14891(6)
Mo4_3 Mo 0.43014(7) 0.58423(8) 2.35109(6)
Mo6B Mo 0.35619(7) 0.39053(9) 0.48510(6)
Mo6A Mo 0.35619(7) 1.10947(9) 0.98510(6)
Mo6C Mo 0.64381(7) 0.89053(9) 1.01490(6)
Mo6_2 Mo 0.64381(7) 0.60947(9) 1.51490(6)
Mo6B_2 Mo 0.35619(7) 0.39053(9) 1.48510(6)
Mo6A_2 Mo 0.35619(7) 0.10947(9) 1.98510(6)
Mo6C_2 Mo 0.64381(7) -0.10947(9) 2.01490(6)
Mo6A_3 Mo 0.35619(7) 0.10947(9) -0.01490(6)
Mo6B_3 Mo 0.35619(7) 0.39053(9) 2.48510(6)
Mo8B Mo 0.50990(7) 0.28455(8) 0.50753(6)
Mo8C Mo 0.49010(7) 0.78455(8) 0.99247(6)
Mo8A Mo 0.50990(7) 1.21545(8) 1.00753(6)
Mo8_2 Mo 0.49010(7) 0.71545(8) 1.49247(6)
Mo8B_2 Mo 0.50990(7) 0.28455(8) 1.50753(6)
Mo8A_2 Mo 0.50990(7) 0.21545(8) 2.00753(6)
Mo8C_2 Mo 0.49010(7) -0.21545(8) 1.99247(6)
Mo8A_3 Mo 0.50990(7) 0.21545(8) 0.00753(6)
Mo8B_3 Mo 0.50990(7) 0.28455(8) 2.50753(6)
V1B V 0.35146(9) 0.60276(11) 0.47897(9)
V1A V 0.35146(9) 0.89724(11) 0.97897(9)
V1C V 0.64854(9) 1.10276(11) 1.02103(9)
V1_2 V 0.64854(9) 0.39724(11) 1.52103(9)
V1A_2 V 0.35146(9) -0.10276(11) 1.97897(9)
V1C_2 V 0.64854(9) 0.10276(11) 2.02103(9)
V1B_2 V 0.35146(9) 0.60276(11) 1.47897(9)
V2B V 0.55657(10) 0.62609(13) 0.63575(9)
V2A V 0.55657(10) 0.87391(13) 1.13575(9)
V2B_2 V 0.55657(10) 0.62609(13) 1.63575(9)
V2_2 V 0.44343(10) 0.37391(13) 1.36425(9)
V2C V 0.44343(10) 0.12609(13) 1.86425(9)
V2A_2 V 0.55657(10) -0.12609(13) 2.13575(9)
V2_3 V 0.44343(10) 0.37391(13) 2.36425(9)
V2C_2 V 0.44343(10) 1.12609(13) 0.86425(9)
V2A_3 V 0.55657(10) 0.87391(13) 0.13575(9)
V2_4 V 0.44343(10) 1.37391(13) 1.36425(9)
V2C_3 V 0.44343(10) 0.12609(13) 0.86425(9)
O3B O 0.5781(5) 0.6775(6) 0.7002(5)
O3A O 0.5781(5) 0.8225(6) 1.2002(5)
O3B_2 O 0.5781(5) 0.6775(6) 1.7002(5)
O3_2 O 0.4219(5) 0.3225(6) 1.2998(5)
O3C O 0.4219(5) 0.1775(6) 1.7998(5)
O3A_2 O 0.5781(5) -0.1775(6) 2.2002(5)
O3_3 O 0.4219(5) 0.3225(6) 2.2998(5)
O3C_2 O 0.4219(5) 1.1775(6) 0.7998(5)
O3A_3 O 0.5781(5) 0.8225(6) 0.2002(5)
O3_4 O 0.4219(5) 1.3225(6) 1.2998(5)
O3C_3 O 0.4219(5) 0.1775(6) 0.7998(5)
O6B O 0.3778(5) 0.4170(6) 0.5795(5)
O6C O 0.6222(5) 0.9170(6) 0.9205(5)
O6A O 0.3778(5) 1.0830(6) 1.0795(5)
O6_2 O 0.6222(5) 0.5830(6) 1.4205(5)
O6B_2 O 0.3778(5) 0.4170(6) 1.5795(5)
O6A_2 O 0.3778(5) 0.0830(6) 2.0795(5)
O6C_2 O 0.6222(5) -0.0830(6) 1.9205(5)
O6A_3 O 0.3778(5) 0.0830(6) 0.0795(5)
O7B O 0.5240(5) 0.3200(6) 0.6004(5)
O7C O 0.4760(5) 0.8200(6) 0.8996(5)
O7A O 0.5240(5) 1.1800(6) 1.1004(5)
O7_2 O 0.4760(5) 0.6800(6) 1.3996(5)
O7B_2 O 0.5240(5) 0.3200(6) 1.6004(5)
O7C_2 O 0.4760(5) -0.1800(6) 1.8996(5)
O7A_2 O 0.5240(5) 0.1800(6) 2.1004(5)
O7A_3 O 0.5240(5) 0.1800(6) 0.1004(5)
O8C O 0.7094(6) 0.8390(7) 1.0150(5)
O8_2 O 0.7094(6) 0.6610(7) 1.5150(5)
O8B O 0.2906(6) 0.3390(7) 1.4850(5)
O8A O 0.2906(6) 0.1610(7) 1.9850(5)
O8C_2 O 0.7094(6) -0.1610(7) 2.0150(5)
O8A_2 O 0.2906(6) 1.1610(7) 0.9850(5)
O8B_2 O 0.2906(6) 0.3390(7) 0.4850(5)
O8A_3 O 0.2906(6) 0.1610(7) -0.0150(5)
O9B O 0.3269(6) 0.4924(6) 0.4692(6)
O9A O 0.3269(6) 1.0076(6) 0.9692(6)
O9C O 0.6731(6) 0.9924(6) 1.0308(6)
O9_2 O 0.6731(6) 0.5076(6) 1.5308(6)
O9B_2 O 0.3269(6) 0.4924(6) 1.4692(6)
O9A_2 O 0.3269(6) 0.0076(6) 1.9692(6)
O9C_2 O 0.6731(6) -0.0076(6) 2.0308(6)
O9A_3 O 0.3269(6) 0.0076(6) -0.0308(6)
O10B O 0.5839(5) 0.5215(7) 1.6650(7)
O10_2 O 0.4161(5) 0.4785(7) 1.3350(7)
O10C O 0.4161(5) 0.0215(7) 1.8350(7)
O10A O 0.5839(5) -0.0215(7) 2.1650(7)
O10A_2 O 0.5839(5) 0.9785(7) 1.1650(7)
O10C_2 O 0.4161(5) 1.0215(7) 0.8350(7)
O10B_2 O 0.5839(5) 0.5215(7) 0.6650(7)
O10_3 O 0.4161(5) 0.4785(7) 2.3350(7)
O10A_3 O 0.5839(5) -0.0215(7) 0.1650(7)
O13B O 0.5967(6) 0.3742(7) 1.7172(5)
O13_2 O 0.4033(6) 0.6258(7) 1.2828(5)
O13C O 0.4033(6) -0.1258(7) 1.7828(5)
O13A O 0.5967(6) 0.1258(7) 2.2172(5)
O13A_2 O 0.5967(6) 1.1258(7) 1.2172(5)
O13C_2 O 0.4033(6) 0.8742(7) 0.7828(5)
O13B_2 O 0.5967(6) 0.3742(7) 0.7172(5)
O13A_3 O 0.5967(6) 0.1258(7) 0.2172(5)
O14B O 0.5830(5) 0.7700(6) 0.8397(5)
O14A O 0.5830(5) 0.7300(6) 1.3397(5)
O14C O 0.4170(5) 0.2700(6) 1.6603(5)
O14_2 O 0.4170(5) 0.2300(6) 2.1603(5)
O14A_2 O 0.5830(5) 0.7300(6) 0.3397(5)
O14_3 O 0.4170(5) 1.2300(6) 1.1603(5)
O14C_2 O 0.4170(5) 0.2700(6) 0.6603(5)
O14B_2 O 0.5830(5) 0.7700(6) 1.8397(5)
O14_4 O 0.4170(5) 0.2300(6) 1.1603(5)
O14B_3 O 0.5830(5) -0.2300(6) 1.8397(5)
O14A_3 O 0.5830(5) -0.2700(6) 2.3397(5)
O17B O 0.4778(5) 0.4310(6) 0.6578(5)
O17C O 0.5222(5) 0.9310(6) 0.8422(5)
O17A O 0.4778(5) 1.0690(6) 1.1578(5)
O17_2 O 0.5222(5) 0.5690(6) 1.3422(5)
O17B_2 O 0.4778(5) 0.4310(6) 1.6578(5)
O17C_2 O 0.5222(5) -0.0690(6) 1.8422(5)
O17A_2 O 0.4778(5) 0.0690(6) 2.1578(5)
O17A_3 O 0.4778(5) 0.0690(6) 0.1578(5)
O19B O 0.5905(6) 0.3099(8) 0.5067(6)
O19C O 0.4095(6) 0.8099(8) 0.9933(6)
O19A O 0.5905(6) 1.1901(8) 1.0067(6)
O19B_2 O 0.5905(6) 0.3099(8) 1.5067(6)
O19_2 O 0.4095(6) 0.6901(8) 1.4933(6)
O19C_2 O 0.4095(6) -0.1901(8) 1.9933(6)
O19A_2 O 0.5905(6) 0.1901(8) 2.0067(6)
O19A_3 O 0.5905(6) 0.1901(8) 0.0067(6)
O22C O 0.5781(6) 0.8084(8) 0.9767(5)
O22_2 O 0.5781(6) 0.6916(8) 1.4767(5)
O22B O 0.4219(6) 0.3084(8) 1.5233(5)
O22A O 0.4219(6) 0.1916(8) 2.0233(5)
O22C_2 O 0.5781(6) -0.1916(8) 1.9767(5)
O22A_2 O 0.4219(6) 1.1916(8) 1.0233(5)
O22B_2 O 0.4219(6) 0.3084(8) 0.5233(5)
O22A_3 O 0.4219(6) 0.1916(8) 0.0233(5)
O23B O 0.2850(6) 0.6483(8) 0.4700(6)
O23_2 O 0.7150(6) 0.3517(8) 1.5300(6)
O23A O 0.2850(6) -0.1483(8) 1.9700(6)
O23C O 0.7150(6) 0.1483(8) 2.0300(6)
O23C_2 O 0.7150(6) 1.1483(8) 1.0300(6)
O23A_2 O 0.2850(6) 0.8517(8) 0.9700(6)
O23B_2 O 0.2850(6) 0.6483(8) 1.4700(6)
O24B O 0.4744(5) 0.5931(6) 0.6510(6)
O24_2 O 0.5256(5) 0.4069(6) 1.3490(6)
O24B_2 O 0.4744(5) 0.5931(6) 1.6510(6)
O24A O 0.4744(5) -0.0931(6) 2.1510(6)
O24C O 0.5256(5) 0.0931(6) 1.8490(6)
O24A_2 O 0.4744(5) 0.9069(6) 1.1510(6)
O24C_2 O 0.5256(5) 1.0931(6) 0.8490(6)
O24_3 O 0.5256(5) 0.4069(6) 2.3490(6)
O24A_3 O 0.4744(5) -0.0931(6) 0.1510(6)
O26C O 0.6230(6) 0.0184(7) 1.8123(5)
O26A O 0.3770(6) -0.0184(7) 2.1877(5)
O26_2 O 0.6230(6) 0.4816(7) 1.3123(5)
O26A_2 O 0.3770(6) 0.9816(7) 1.1877(5)
O26C_2 O 0.6230(6) 1.0184(7) 0.8123(5)
O26B O 0.3770(6) 0.5184(7) 0.6877(5)
O26B_2 O 0.3770(6) 0.5184(7) 1.6877(5)
O26A_3 O 0.3770(6) -0.0184(7) 0.1877(5)
O29_2 O 0.4936(8) 0.4967(10) 1.4307(7)
O29B O 0.5064(8) 0.5033(10) 1.5693(7)
O29C O 0.4936(8) 0.0033(10) 1.9307(7)
O29A O 0.5064(8) -0.0033(10) 2.0693(7)
O29B_2 O 0.5064(8) 0.5033(10) 0.5693(7)
O29A_2 O 0.5064(8) 0.9967(10) 1.0693(7)
O29C_2 O 0.4936(8) 1.0033(10) 0.9307(7)
O29_3 O 0.4936(8) 0.4967(10) 2.4307(7)
O30B O 0.6329(7) 0.4012(8) 1.6050(6)
O30_2 O 0.3671(7) 0.5988(8) 1.3950(6)
O30C O 0.3671(7) -0.0988(8) 1.8950(6)
O30A O 0.6329(7) 0.0988(8) 2.1050(6)
O30A_2 O 0.6329(7) 1.0988(8) 1.1050(6)
O30C_2 O 0.3671(7) 0.9012(8) 0.8950(6)
O30B_2 O 0.6329(7) 0.4012(8) 0.6050(6)
O30A_3 O 0.6329(7) 0.0988(8) 0.1050(6)
O31B O 0.3668(7) 0.5802(7) 0.5683(6)
O31_2 O 0.6332(7) 0.4198(7) 1.4317(6)
O31A O 0.3668(7) -0.0802(7) 2.0683(6)
O31C O 0.6332(7) 0.0802(7) 1.9317(6)
O31C_2 O 0.6332(7) 1.0802(7) 0.9317(6)
O31A_2 O 0.3668(7) 0.9198(7) 1.0683(6)
O31B_2 O 0.3668(7) 0.5802(7) 1.5683(6)
O31A_3 O 0.3668(7) -0.0802(7) 0.0683(6)
O32A O 0.5176(6) 0.7961(9) 1.0764(6)
O32_2 O 0.4824(6) 0.2961(9) 1.4236(6)
O32B O 0.5176(6) 0.7039(9) 1.5764(6)
O32C O 0.4824(6) 0.2039(9) 1.9236(6)
O32A_2 O 0.5176(6) -0.2039(9) 2.0764(6)
O32C_2 O 0.4824(6) 1.2039(9) 0.9236(6)
O32B_2 O 0.5176(6) 0.7039(9) 0.5764(6)
O32_3 O 0.4824(6) 0.2961(9) 2.4236(6)
O32C_3 O 0.4824(6) 0.2039(9) -0.0764(6)
O33B O 0.6262(7) 0.6294(10) 1.5926(6)
O33_2 O 0.3738(7) 0.3706(10) 1.4074(6)
O33C O 0.3738(7) 0.1294(10) 1.9074(6)
O33A O 0.6262(7) -0.1294(10) 2.0926(6)
O33A_2 O 0.6262(7) 0.8706(10) 1.0926(6)
O33C_2 O 0.3738(7) 1.1294(10) 0.9074(6)
O33B_2 O 0.6262(7) 0.6294(10) 0.5926(6)
O33_3 O 0.3738(7) 0.3706(10) 2.4074(6)
O33C_3 O 0.3738(7) 0.1294(10) -0.0926(6)
O34_2 O 0.4661(9) 0.4162(9) 1.4737(7)
O34B O 0.5339(9) 0.5838(9) 1.5263(7)
O34C O 0.4661(9) 0.0838(9) 1.9737(7)
O34A O 0.5339(9) -0.0838(9) 2.0263(7)
O34A_2 O 0.5339(9) 0.9162(9) 1.0263(7)
O34B_2 O 0.5339(9) 0.5838(9) 0.5263(7)
O34_3 O 0.4661(9) 0.4162(9) 2.4737(7)
O34C_2 O 0.4661(9) 1.0838(9) 0.9737(7)
O35_2 O 0.4883(6) 0.8160(6) 1.4829(5)
O35A O 0.5117(6) 0.3160(6) 2.0171(5)
O35B O 0.5117(6) 0.1840(6) 1.5171(5)
O35C O 0.4883(6) 0.6840(6) 0.9829(5)
O35A_2 O 0.5117(6) 1.3160(6) 1.0171(5)
O35B_2 O 0.5117(6) 0.1840(6) 0.5171(5)
O35C_2 O 0.4883(6) -0.3160(6) 1.9829(5)
O35A_3 O 0.5117(6) 0.3160(6) 0.0171(5)
O45_2 O 0.5630(9) 0.4986(12) 1.4800(9)
O45B O 0.4370(9) 0.5014(12) 1.5200(9)
O45C O 0.5630(9) 0.0014(12) 1.9800(9)
O45A O 0.4370(9) -0.0014(12) 2.0200(9)
O45B_2 O 0.4370(9) 0.5014(12) 0.5200(9)
O45C_2 O 0.5630(9) 1.0014(12) 0.9800(9)
O45A_2 O 0.4370(9) 0.9986(12) 1.0200(9)
O46B O 0.5405(8) 0.4322(11) 1.5350(9)
O46_2 O 0.4595(8) 0.5678(11) 1.4650(9)
O46A O 0.5405(8) 0.0678(11) 2.0350(9)
O46C O 0.4595(8) -0.0678(11) 1.9650(9)
O46A_2 O 0.5405(8) 1.0678(11) 1.0350(9)
O46C_2 O 0.4595(8) 0.9322(11) 0.9650(9)
O46B_2 O 0.5405(8) 0.4322(11) 0.5350(9)
O46A_3 O 0.5405(8) 0.0678(11) 0.0350(9)
P2_2 P 0.5000 0.5000 1.5000
P2C P 0.5000 0.0000 2.0000
P2C_2 P 0.5000 1.0000 1.0000
P2_3 P 0.5000 0.5000 2.5000
V6C V 0.56123(13) 0.83678(15) 0.88649(11)
V6_2 V 0.56123(13) 0.66322(15) 1.38649(11)
V6B V 0.43877(13) 0.33678(15) 1.61351(11)
V6A V 0.43877(13) 0.16322(15) 2.11351(11)
V6A_2 V 0.43877(13) 1.16322(15) 1.11351(11)
V6B_2 V 0.43877(13) 0.33678(15) 0.61351(11)
V6A_3 V 0.43877(13) 0.16322(15) 0.11351(11)
V6C_2 V 0.56123(13) -0.16322(15) 1.88649(11)
V6C_3 V 0.56123(13) 0.83678(15) 1.88649(11)
V6A_4 V 0.43877(13) 0.16322(15) 1.11351(11)
V6_3 V 0.56123(13) -0.33678(15) 2.38649(11)
Zn2B Zn 0.63833(10) 0.67476(11) 0.81137(9)
Zn2A Zn 0.63833(10) 0.82524(11) 1.31137(9)
Zn2C Zn 0.36167(10) 0.17476(11) 1.68863(9)
Zn2_2 Zn 0.36167(10) 0.32524(11) 2.18863(9)
Zn2B_2 Zn 0.63833(10) 0.67476(11) 1.81137(9)
Zn2_3 Zn 0.36167(10) 0.32524(11) 1.18863(9)
Zn2A_2 Zn 0.63833(10) -0.17476(11) 2.31137(9)
Zn2A_3 Zn 0.63833(10) 0.82524(11) 0.31137(9)
Zn2_4 Zn 0.36167(10) 1.32524(11) 1.18863(9)
Zn2C_2 Zn 0.36167(10) 0.17476(11) 0.68863(9)
Zn2B_3 Zn 0.63833(10) -0.32524(11) 1.81137(9)
Zn2C_3 Zn 0.36167(10) 1.17476(11) 0.68863(9)
C47B C 0.8166(12) 0.6571(17) 0.6778(11)
C47A C 0.8166(12) 0.8429(17) 1.1778(11)
C47C C 0.1834(12) 0.1571(17) 1.8222(11)
C47_2 C 0.1834(12) 0.3429(17) 2.3222(11)
H31B H 0.8453 0.6329 0.6558
H31A H 0.8453 0.8671 1.1558
H31C H 0.1547 0.1329 1.8442
C48B C 0.8156(11) 0.7401(18) 0.6773(12)
C48A C 0.8156(11) 0.7599(18) 1.1773(12)
C48C C 0.1844(11) 0.2401(18) 1.8227(12)
C48_2 C 0.1844(11) 0.2599(18) 2.3227(12)
H32B H 0.8424 0.7707 0.6571
H32A H 0.8424 0.7293 1.1571
H32C H 0.1576 0.2707 1.8429
O48 O 0.8100(8) 0.1796(11) 0.1441(8)
O49 O 1.0754(14) 0.4438(19) 0.4670(13)
O50 O 0.9190(12) 0.4161(16) 0.5017(11)
O51 O 1.0000 0.5000 0.5000
C1 C 0.7150(4) 0.2564(6) 0.3958(4)
H1 H 0.7482 0.2501 0.4299
C2 C 0.6545(5) 0.2338(6) 0.4024(4)
H2 H 0.6473 0.2122 0.4408
C3 C 0.6049(4) 0.2433(7) 0.3516(6)
H3 H 0.5644 0.2281 0.3560
C4 C 0.6157(4) 0.2754(6) 0.2942(5)
C5 C 0.6762(5) 0.2981(5) 0.2876(4)
N1 N 0.7258(4) 0.2886(5) 0.3384(4)
C6 C 0.6408(4) 0.3371(7) 0.1783(5)
C7 C 0.6562(5) 0.3610(9) 0.1204(4)
H4 H 0.6250 0.3654 0.0843
C8 C 0.7183(6) 0.3783(9) 0.1164(4)
H5 H 0.7287 0.3943 0.0776
C9 C 0.7650(4) 0.3717(8) 0.1702(5)
H6 H 0.8066 0.3833 0.1676
N2 N 0.7496(4) 0.3478(6) 0.2281(4)
C10 C 0.6874(5) 0.3305(6) 0.2322(4)
C11 C 0.7721(4) 0.4878(7) 0.3756(5)
H7 H 0.7352 0.4620 0.3810
C12 C 0.7823(5) 0.5682(7) 0.3935(5)
H8 H 0.7521 0.5963 0.4109
C13 C 0.8375(6) 0.6066(5) 0.3854(6)
H9 H 0.8443 0.6604 0.3974
C14 C 0.8826(5) 0.5646(6) 0.3594(5)
C15 C 0.8725(4) 0.4842(6) 0.3415(4)
N3 N 0.8173(5) 0.4458(5) 0.3496(4)
C16 C 0.9735(6) 0.4727(6) 0.3095(5)
C17 C 1.0168(4) 0.4264(8) 0.2842(5)
H10 H 1.0557 0.4483 0.2805
C18 C 1.0021(5) 0.3475(8) 0.2645(5)
H11 H 1.0311 0.3166 0.2476
C19 C 0.9441(6) 0.3149(5) 0.2701(5)
H12 H 0.9342 0.2621 0.2569
N4 N 0.9007(4) 0.3612(6) 0.2954(4)
C20 C 0.9154(5) 0.4401(6) 0.3151(4)
C41 C 0.5664(9) 0.2906(11) 0.2437(9)
H25 H 0.5251 0.2798 0.2480
C42 C 0.5796(8) 0.3216(12) 0.1876(11)
H26 H 0.5464 0.3328 0.1545
C43 C 0.9404(9) 0.5985(12) 0.3503(10)
H27 H 0.9477 0.6530 0.3596
C44 C 0.9867(11) 0.5544(10) 0.3282(8)
H28 H 1.0253 0.5775 0.3257
Mo1 Mo 1.04813(6) 0.19042(8) 0.44776(6)
Mo2 Mo 0.94594(6) 0.17532(8) 0.57186(6)
Mo5 Mo 0.93862(8) 0.05647(8) 0.34120(6)
Mo7 Mo 0.83490(7) 0.04136(8) 0.46293(7)
V3 V 1.10589(10) 0.12893(12) 0.60446(9)
V4 V 0.90183(10) -0.01452(12) 0.61852(8)
O1 O 0.8732(5) 0.1472(6) 0.4991(4)
O2 O 0.9711(5) 0.1633(6) 0.3833(5)
O4 O 1.0643(6) 0.2801(7) 0.4219(7)
O5 O 0.9737(5) 0.2192(8) 0.4917(5)
O11 O 0.9180(6) 0.1000(7) 0.6195(6)
O12 O 0.9188(6) 0.2600(7) 0.5992(5)
O15 O 0.8622(5) 0.2719(6) 0.3998(5)
O16 O 0.9089(6) 0.0904(6) 0.2694(4)
O18 O 0.8699(7) 0.0914(7) 0.3889(6)
O20 O 0.8596(7) -0.0208(8) 0.6737(6)
O21 O 1.0267(6) 0.1736(10) 0.6115(5)
O25 O 1.0979(5) 0.1869(10) 0.5257(5)
O27 O 0.7597(5) 0.0693(7) 0.4448(5)
O28 O 1.0165(5) 0.0321(8) 0.3319(6)
O36 O 0.8149(7) 0.2073(7) 0.2691(6)
O37 O 0.9106(7) -0.0439(7) 0.3392(6)
O38 O 0.8384(8) -0.0566(8) 0.4270(7)
O39 O 1.1535(5) 0.1873(6) 0.6499(5)
O40 O 1.0935(6) 0.1261(8) 0.4058(6)
O41 O 0.8410(6) 0.0053(7) 0.5434(6)
O42 O 0.9397(8) 0.0007(10) 0.4446(7)
O43 O 0.9471(8) 0.0368(10) 0.5271(7)
O44 O 1.0136(7) 0.0883(9) 0.5176(7)
P1 P 1.0000 0.0000 0.5000
V5 V 0.90336(12) 0.19330(14) 0.42742(11)
Zn1 Zn 0.81203(9) 0.32426(11) 0.31484(8)
O47 O 1.0151(8) 0.0470(10) 0.4440(7)
C1B C 1.2850(4) -0.2564(6) 0.6042(4)
H1B H 1.2518 -0.2501 0.5701
C2B C 1.3455(5) -0.2338(6) 0.5976(4)
H2B H 1.3527 -0.2122 0.5592
C3B C 1.3951(4) -0.2433(7) 0.6484(6)
H3B H 1.4356 -0.2281 0.6440
C4B C 1.3843(4) -0.2754(6) 0.7058(5)
C5B C 1.3238(5) -0.2981(5) 0.7124(4)
N1B N 1.2742(4) -0.2886(5) 0.6616(4)
C6B C 1.3592(4) -0.3371(7) 0.8217(5)
C7B C 1.3438(5) -0.3610(9) 0.8796(4)
H4B H 1.3750 -0.3654 0.9157
C8B C 1.2817(6) -0.3783(9) 0.8836(4)
H5B H 1.2713 -0.3943 0.9224
C9B C 1.2350(4) -0.3717(8) 0.8298(5)
H6B H 1.1934 -0.3833 0.8324
N2B N 1.2504(4) -0.3478(6) 0.7719(4)
C10B C 1.3126(5) -0.3305(6) 0.7678(4)
C11B C 1.2279(4) -0.4878(7) 0.6244(5)
H7B H 1.2648 -0.4620 0.6190
C12B C 1.2177(5) -0.5682(7) 0.6065(5)
H8B H 1.2479 -0.5963 0.5891
C13B C 1.1625(6) -0.6066(5) 0.6146(6)
H9B H 1.1557 -0.6604 0.6026
C14B C 1.1174(5) -0.5646(6) 0.6406(5)
C15B C 1.1275(4) -0.4842(6) 0.6585(4)
N3B N 1.1827(5) -0.4458(5) 0.6504(4)
C16B C 1.0265(6) -0.4727(6) 0.6905(5)
C17B C 0.9832(4) -0.4264(8) 0.7158(5)
H10B H 0.9443 -0.4483 0.7195
C18B C 0.9979(5) -0.3475(8) 0.7355(5)
H11B H 0.9689 -0.3166 0.7524
C19B C 1.0559(6) -0.3149(5) 0.7299(5)
H12B H 1.0658 -0.2621 0.7431
N4B N 1.0993(4) -0.3612(6) 0.7046(4)
C20B C 1.0846(5) -0.4401(6) 0.6849(4)
C41B C 1.4336(9) -0.2906(11) 0.7563(9)
H25B H 1.4749 -0.2798 0.7520
C42B C 1.4204(8) -0.3216(12) 0.8124(11)
H26B H 1.4536 -0.3328 0.8455
C43B C 1.0596(9) -0.5985(12) 0.6497(10)
H27B H 1.0523 -0.6530 0.6404
C44B C 1.0133(11) -0.5544(10) 0.6718(8)
H28B H 0.9747 -0.5775 0.6743
Mo1B Mo 0.95187(6) -0.19042(8) 0.55224(6)
Mo2B Mo 1.05406(6) -0.17532(8) 0.42814(6)
Mo5B Mo 1.06138(8) -0.05647(8) 0.65880(6)
Mo7B Mo 1.16510(7) -0.04136(8) 0.53707(7)
V3B V 0.89411(10) -0.12893(12) 0.39554(9)
V4B V 1.09817(10) 0.01452(12) 0.38148(8)
O1B O 1.1268(5) -0.1472(6) 0.5009(4)
O2B O 1.0289(5) -0.1633(6) 0.6167(5)
O4B O 0.9357(6) -0.2801(7) 0.5781(7)
O5B O 1.0263(5) -0.2192(8) 0.5083(5)
O11B O 1.0820(6) -0.1000(7) 0.3805(6)
O12B O 1.0812(6) -0.2600(7) 0.4008(5)
O15B O 1.1378(5) -0.2719(6) 0.6002(5)
O16B O 1.0911(6) -0.0904(6) 0.7306(4)
O18B O 1.1301(7) -0.0914(7) 0.6111(6)
O20B O 1.1404(7) 0.0208(8) 0.3263(6)
O21B O 0.9733(6) -0.1736(10) 0.3885(5)
O25B O 0.9021(5) -0.1869(10) 0.4743(5)
O27B O 1.2403(5) -0.0693(7) 0.5552(5)
O28B O 0.9835(5) -0.0321(8) 0.6681(6)
O36B O 1.1851(7) -0.2073(7) 0.7309(6)
O37B O 1.0894(7) 0.0439(7) 0.6608(6)
O38B O 1.1616(8) 0.0566(8) 0.5730(7)
O39B O 0.8465(5) -0.1873(6) 0.3501(5)
O40B O 0.9065(6) -0.1261(8) 0.5942(6)
O41B O 1.1590(6) -0.0053(7) 0.4566(6)
O42B O 1.0603(8) -0.0007(10) 0.5554(7)
O43B O 1.0529(8) -0.0368(10) 0.4729(7)
O44B O 0.9864(7) -0.0883(9) 0.4824(7)
V5B V 1.09664(12) -0.19330(14) 0.57258(11)
Zn1B Zn 1.18797(9) -0.32426(11) 0.68516(8)
O47B O 0.9849(8) -0.0470(10) 0.5560(7)
loop_
_geom_bond_atom_site_label_1
_geom_bond_atom_site_label_2
_geom_bond_site_symmetry_1
_geom_bond_site_symmetry_2
C1 H1 1_555 1_555
C2 C1 1_555 1_555
H2 C2 1_555 1_555
C3 C2 1_555 1_555
H3 C3 1_555 1_555
C4 C3 1_555 1_555
C5 C4 1_555 1_555
N1 C1 1_555 1_555
C6 C7 1_555 1_555
C7 H4 1_555 1_555
C8 C7 1_555 1_555
H5 C8 1_555 1_555
C9 C8 1_555 1_555
H6 C9 1_555 1_555
N2 C9 1_555 1_555
C10 C5 1_555 1_555
C11 H7 1_555 1_555
C12 C11 1_555 1_555
H8 C12 1_555 1_555
C13 C12 1_555 1_555
H9 C13 1_555 1_555
C14 C13 1_555 1_555
C15 C14 1_555 1_555
N3 C11 1_555 1_555
C16 C17 1_555 1_555
C17 H10 1_555 1_555
C18 C17 1_555 1_555
H11 C18 1_555 1_555
C19 C18 1_555 1_555
H12 C19 1_555 1_555
N4 C19 1_555 1_555
C20 C15 1_555 1_555
C21 H13 1_555 1_555
C22 C21 1_555 1_555
H14 C22 1_555 1_555
C23 C22 1_555 1_555
H15 C23 1_555 1_555
C24 C23 1_555 1_555
C25 C24 1_555 1_555
N5 C21 1_555 1_555
C26 C27 1_555 1_555
C27 H16 1_555 1_555
C28 C27 1_555 1_555
H17 C28 1_555 1_555
C29 C28 1_555 1_555
H18 C29 1_555 1_555
N6 C29 1_555 1_555
C30 C25 1_555 1_555
N7 C31 1_555 1_555
C31 H19 1_555 1_555
C32 C31 1_555 1_555
H20 C32 1_555 1_555
C33 C32 1_555 1_555
H21 C33 1_555 1_555
C34 C33 1_555 1_555
C35 N7 1_555 1_555
N8 C36 1_555 1_555
C36 C35 1_555 1_555
C37 C36 1_555 1_555
C38 C37 1_555 1_555
H22 C38 1_555 1_555
C39 C38 1_555 1_555
H23 C39 1_555 1_555
C40 N8 1_555 1_555
H24 C40 1_555 1_555
C41 C4 1_555 1_555
H25 C41 1_555 1_555
C42 C6 1_555 1_555
H26 C42 1_555 1_555
C43 C14 1_555 1_555
H27 C43 1_555 1_555
C44 C16 1_555 1_555
H28 C44 1_555 1_555
C45 C24 1_555 1_555
H29 C45 1_555 1_555
C46 C26 1_555 1_555
H30 C46 1_555 1_555
Mo1 O2 1_555 1_555
Mo2 O1 1_555 1_555
Mo3 O6 1_555 1_555
Mo4 O7 1_555 1_555
Mo5 O2 1_555 1_555
Mo6 O6 1_555 1_555
Mo7 O1 1_555 1_555
Mo8 O7 1_555 1_555
V1 O9 1_555 1_555
V2 O3 1_555 1_555
V3 O21 1_555 1_555
V4 O11 1_555 1_555
O1 V5 1_555 1_555
O2 V5 1_555 1_555
O3 Zn2 1_555 1_555
O4 Mo1 1_555 1_555
O5 Mo1 1_555 1_555
O6 V6 1_555 1_555
O7 V6 1_555 1_555
O8 Mo6 1_555 1_555
O9 Mo6 1_555 1_555
O10 Mo4 1_555 1_555
O11 Mo2 1_555 1_555
O12 Mo2 1_555 1_555
O13 Mo4 1_555 1_555
O14 Zn2 1_555 1_555
O15 V5 1_555 1_555
O16 Mo5 1_555 1_555
O17 Mo3 1_555 1_555
O18 Mo5 1_555 1_555
O19 Mo8 1_555 1_555
O20 V4 1_555 1_555
O21 Mo2 1_555 1_555
O22 Mo6 1_555 1_555
O23 V1 1_555 1_555
O24 Mo3 1_555 1_555
O25 Mo1 1_555 1_555
O26 Mo3 1_555 1_555
O27 Mo7 1_555 1_555
O28 Mo5 1_555 1_555
O29 O34 1_555 1_555
O30 Mo4 1_555 1_555
O31 Mo3 1_555 1_555
O32 V2 1_555 1_555
O33 V2 1_555 1_555
O34 V2 1_555 1_555
O35 Mo8 1_555 1_555
O36 Zn1 1_555 1_555
O37 Mo5 1_555 1_555
O38 Mo7 1_555 1_555
O39 V3 1_555 1_555
O40 Mo1 1_555 1_555
O41 Mo7 1_555 1_555
O42 Mo5 1_555 1_555
O43 O42 1_555 1_555
O44 O43 1_555 1_555
O45 O29 1_555 1_555
O46 Mo4 1_555 1_555
P1 O42 1_555 1_555
P2 O29 1_555 1_555
V5 O5 1_555 1_555
V6 O17 1_555 1_555
Zn1 N1 1_555 1_555
Zn2 N5 1_555 1_555
O47 O42 1_555 1_555
C47 C37 1_555 1_555
H31 C47 1_555 1_555
C48 C34 1_555 1_555
H32 C48 1_555 1_555
C1B H1B 1_555 1_555
C2B C1B 1_555 1_555
H2B C2B 1_555 1_555
C3B C2B 1_555 1_555
H3B C3B 1_555 1_555
C4B C3B 1_555 1_555
C5B C4B 1_555 1_555
N1B C1B 1_555 1_555
C6B C7B 1_555 1_555
C7B H4B 1_555 1_555
C8B C7B 1_555 1_555
H5B C8B 1_555 1_555
C9B C8B 1_555 1_555
H6B C9B 1_555 1_555
N2B C9B 1_555 1_555
C10B C5B 1_555 1_555
C11B H7B 1_555 1_555
C12B C11B 1_555 1_555
H8B C12B 1_555 1_555
C13B C12B 1_555 1_555
H9B C13B 1_555 1_555
C14B C13B 1_555 1_555
C15B C14B 1_555 1_555
N3B C11B 1_555 1_555
C16B C17B 1_555 1_555
C17B H10B 1_555 1_555
C18B C17B 1_555 1_555
H11B C18B 1_555 1_555
C19B C18B 1_555 1_555
H12B C19B 1_555 1_555
N4B C19B 1_555 1_555
C20B C15B 1_555 1_555
C21B H13B 1_555 1_555
C21A H13A 1_555 1_555
C21C H13C 1_555 1_555
C21_2 H13_2 1_555 1_555
C21B_2 N5B_2 1_555 1_555
C21_3 N5_3 1_555 1_555
C21A_2 N5A_2 1_555 1_555
C21A_3 N5A_3 1_555 1_555
C21_4 N5_4 1_555 1_555
C21C_2 N5C_2 1_555 1_555
C22B C21B 1_555 1_555
C22A C21A 1_555 1_555
C22C C21C 1_555 1_555
C22_2 C21_2 1_555 1_555
H14B C22B 1_555 1_555
H14A C22A 1_555 1_555
H14C C22C 1_555 1_555
H14_2 C22_2 1_555 1_555
C23B C22B 1_555 1_555
C23A C22A 1_555 1_555
C23C C22C 1_555 1_555
C23_2 C22_2 1_555 1_555
H15B C23B 1_555 1_555
H15A C23A 1_555 1_555
H15C C23C 1_555 1_555
C24B C23B 1_555 1_555
C24A C23A 1_555 1_555
C24C C23C 1_555 1_555
C24_2 C23_2 1_555 1_555
C25B C24B 1_555 1_555
C25A C24A 1_555 1_555
C25C C24C 1_555 1_555
C25_2 C24_2 1_555 1_555
C25B_2 N5B_2 1_555 1_555
C25_3 N5_3 1_555 1_555
C25A_2 N5A_2 1_555 1_555
C25A_3 N5A_3 1_555 1_555
C25_4 N5_4 1_555 1_555
C25C_2 N5C_2 1_555 1_555
N5B C21B 1_555 1_555
N5A C21A 1_555 1_555
N5C C21C 1_555 1_555
N5_2 C21_2 1_555 1_555
N5B_2 Zn2B_2 1_555 1_555
N5_3 Zn2_3 1_555 1_555
N5A_2 Zn2A_2 1_555 1_555
N5A_3 Zn2A_3 1_555 1_555
N5_4 Zn2_4 1_555 1_555
N5C_2 Zn2C_2 1_555 1_555
C26B C27B 1_555 1_555
C26A C27A 1_555 1_555
C26C C27C 1_555 1_555
C26_2 C27_2 1_555 1_555
C27B H16B 1_555 1_555
C27A H16A 1_555 1_555
C27C H16C 1_555 1_555
C27_2 C28_2 1_555 1_555
C28B C27B 1_555 1_555
C28A C27A 1_555 1_555
C28C C27C 1_555 1_555
C28_2 H17_2 1_555 1_555
H17B C28B 1_555 1_555
H17A C28A 1_555 1_555
H17C C28C 1_555 1_555
C29B C28B 1_555 1_555
C29A C28A 1_555 1_555
C29C C28C 1_555 1_555
C29_2 C28_2 1_555 1_555
C29B_2 N6B_2 1_555 1_555
C29_3 N6_3 1_555 1_555
C29A_2 N6A_2 1_555 1_555
C29A_3 N6A_3 1_555 1_555
C29_4 N6_4 1_555 1_555
C29C_2 N6C_2 1_555 1_555
H18B C29B 1_555 1_555
H18A C29A 1_555 1_555
H18C C29C 1_555 1_555
H18_2 C29_2 1_555 1_555
N6B C29B 1_555 1_555
N6A C29A 1_555 1_555
N6C C29C 1_555 1_555
N6_2 C29_2 1_555 1_555
N6B_2 C30B_2 1_555 1_555
N6_3 C30_3 1_555 1_555
N6A_2 C30A_2 1_555 1_555
N6A_3 C30A_3 1_555 1_555
N6_4 C30_4 1_555 1_555
N6C_2 C30C_2 1_555 1_555
C30B C25B 1_555 1_555
C30A C25A 1_555 1_555
C30C C25C 1_555 1_555
C30_2 C25_2 1_555 1_555
N7B C31B 1_555 1_555
N7A C31A 1_555 1_555
N7C C31C 1_555 1_555
N7_2 C31_2 1_555 1_555
N7B_2 C31B_2 1_555 1_555
N7_3 C31_3 1_555 1_555
N7A_2 C31A_2 1_555 1_555
N7A_3 C31A_3 1_555 1_555
N7_4 C31_4 1_555 1_555
N7C_2 C31C_2 1_555 1_555
C31B H19B 1_555 1_555
C31A H19A 1_555 1_555
C31C H19C 1_555 1_555
C31_2 H19_2 1_555 1_555
C32B C31B 1_555 1_555
C32A C31A 1_555 1_555
C32C C31C 1_555 1_555
C32_2 C31_2 1_555 1_555
H20B C32B 1_555 1_555
H20A C32A 1_555 1_555
H20C C32C 1_555 1_555
H20_2 C32_2 1_555 1_555
C33B C32B 1_555 1_555
C33A C32A 1_555 1_555
C33C C32C 1_555 1_555
C33_2 C32_2 1_555 1_555
H21B C33B 1_555 1_555
H21A C33A 1_555 1_555
H21C C33C 1_555 1_555
C34B C33B 1_555 1_555
C34A C33A 1_555 1_555
C34C C33C 1_555 1_555
C34_2 C33_2 1_555 1_555
C35B N7B 1_555 1_555
C35A N7A 1_555 1_555
C35C N7C 1_555 1_555
C35_2 N7_2 1_555 1_555
C35B_2 N7B_2 1_555 1_555
C35_3 N7_3 1_555 1_555
C35A_2 N7A_2 1_555 1_555
C35A_3 N7A_3 1_555 1_555
C35_4 N7_4 1_555 1_555
C35C_2 N7C_2 1_555 1_555
N8B C36B 1_555 1_555
N8A C36A 1_555 1_555
N8C C36C 1_555 1_555
N8_2 C36_2 1_555 1_555
N8B_2 C36B_2 1_555 1_555
N8_3 C36_3 1_555 1_555
N8A_2 C36A_2 1_555 1_555
N8A_3 C36A_3 1_555 1_555
N8_4 C36_4 1_555 1_555
N8C_2 C36C_2 1_555 1_555
C36B C35B 1_555 1_555
C36A C35A 1_555 1_555
C36C C35C 1_555 1_555
C36_2 C35_2 1_555 1_555
C37B C36B 1_555 1_555
C37A C36A 1_555 1_555
C37C C36C 1_555 1_555
C37_2 C36_2 1_555 1_555
C38B C37B 1_555 1_555
C38A C37A 1_555 1_555
C38C C37C 1_555 1_555
C38_2 C37_2 1_555 1_555
H22B C38B 1_555 1_555
H22A C38A 1_555 1_555
H22C C38C 1_555 1_555
C39B C38B 1_555 1_555
C39A C38A 1_555 1_555
C39C C38C 1_555 1_555
C39_2 C38_2 1_555 1_555
H23B C39B 1_555 1_555
H23A C39A 1_555 1_555
H23C C39C 1_555 1_555
H23_2 C39_2 1_555 1_555
C40B N8B 1_555 1_555
C40A N8A 1_555 1_555
C40C N8C 1_555 1_555
C40_2 N8_2 1_555 1_555
C40B_2 N8B_2 1_555 1_555
C40_3 N8_3 1_555 1_555
C40A_2 N8A_2 1_555 1_555
C40A_3 N8A_3 1_555 1_555
C40_4 N8_4 1_555 1_555
C40C_2 N8C_2 1_555 1_555
H24B C40B 1_555 1_555
H24A C40A 1_555 1_555
H24C C40C 1_555 1_555
H24_2 C40_2 1_555 1_555
C41B C4B 1_555 1_555
H25B C41B 1_555 1_555
C42B C6B 1_555 1_555
H26B C42B 1_555 1_555
C43B C14B 1_555 1_555
H27B C43B 1_555 1_555
C44B C16B 1_555 1_555
H28B C44B 1_555 1_555
C45C C24C 1_555 1_555
C45A C24A 1_555 1_555
C45B C24B 1_555 1_555
C45_2 C24_2 1_555 1_555
H29C C45C 1_555 1_555
H29A C45A 1_555 1_555
H29B C45B 1_555 1_555
C46C C26C 1_555 1_555
C46A C26A 1_555 1_555
C46B C26B 1_555 1_555
C46_2 C26_2 1_555 1_555
H30C C46C 1_555 1_555
H30A C46A 1_555 1_555
H30B C46B 1_555 1_555
Mo1B O2B 1_555 1_555
Mo2B O1B 1_555 1_555
Mo3B O6B 1_555 1_555
Mo3C O6C 1_555 1_555
Mo3A O6A 1_555 1_555
Mo3_2 O6_2 1_555 1_555
Mo3B_2 O6B_2 1_555 1_555
Mo3A_2 O6A_2 1_555 1_555
Mo3C_2 O6C_2 1_555 1_555
Mo3A_3 O6A_3 1_555 1_555
Mo3_3 O24_3 1_555 1_555
Mo4B O7B 1_555 1_555
Mo4C O7C 1_555 1_555
Mo4A O7A 1_555 1_555
Mo4_2 O7_2 1_555 1_555
Mo4B_2 O7B_2 1_555 1_555
Mo4C_2 O7C_2 1_555 1_555
Mo4A_2 O7A_2 1_555 1_555
Mo4A_3 O7A_3 1_555 1_555
Mo4_3 O10_3 1_555 1_555
Mo5B O2B 1_555 1_555
Mo6B O33 1_555 1_555
Mo6A O6A 1_555 1_555
Mo6C O6C 1_555 1_555
Mo6_2 O6_2 1_555 1_555
Mo6B_2 O6B_2 1_555 1_555
Mo6A_2 O6A_2 1_555 1_555
Mo6C_2 O6C_2 1_555 1_555
Mo6A_3 O6A_3 1_555 1_555
Mo6B_3 O33_3 1_555 1_555
Mo7B O1B 1_555 1_555
Mo8B O32 1_555 1_555
Mo8C O7C 1_555 1_555
Mo8A O7A 1_555 1_555
Mo8_2 O7_2 1_555 1_555
Mo8B_2 O7B_2 1_555 1_555
Mo8A_2 O7A_2 1_555 1_555
Mo8C_2 O7C_2 1_555 1_555
Mo8A_3 O7A_3 1_555 1_555
Mo8B_3 O32_3 1_555 1_555
V1B O19 1_555 1_555
V1A O9A 1_555 1_555
V1C O9C 1_555 1_555
V1_2 O9_2 1_555 1_555
V1A_2 O9A_2 1_555 1_555
V1C_2 O9C_2 1_555 1_555
V1B_2 O9B_2 1_555 1_555
V2B O3B 1_555 1_555
V2A O3A 1_555 1_555
V2B_2 O3B_2 1_555 1_555
V2_2 O3_2 1_555 1_555
V2C O3C 1_555 1_555
V2A_2 O3A_2 1_555 1_555
V2_3 O3_3 1_555 1_555
V2C_2 O3C_2 1_555 1_555
V2A_3 O3A_3 1_555 1_555
V2_4 O3_4 1_555 1_555
V2C_3 O3C_3 1_555 1_555
V3B O37 1_555 1_555
V4B O28 1_555 1_555
O1B V5B 1_555 1_555
O2B V5B 1_555 1_555
O3B Zn2B 1_555 1_555
O3A Zn2A 1_555 1_555
O3B_2 Zn2B_2 1_555 1_555
O3_2 Zn2_3 1_555 1_555
O3C Zn2C 1_555 1_555
O3A_2 Zn2A_2 1_555 1_555
O3_3 Zn2_2 1_555 1_555
O3C_2 Zn2C_3 1_555 1_555
O3A_3 Zn2A_3 1_555 1_555
O3_4 Zn2_4 1_555 1_555
O3C_3 Zn2C_2 1_555 1_555
O4B Mo1B 1_555 1_555
O5B Mo1B 1_555 1_555
O6B Mo6B 1_555 1_555
O6C V6C 1_555 1_555
O6A V6A_2 1_555 1_555
O6_2 V6_2 1_555 1_555
O6B_2 V6B 1_555 1_555
O6A_2 V6A 1_555 1_555
O6C_2 V6C_2 1_555 1_555
O6A_3 V6A_3 1_555 1_555
O7B Mo8B 1_555 1_555
O7C V6C 1_555 1_555
O7A V6A_2 1_555 1_555
O7_2 V6_2 1_555 1_555
O7B_2 V6B 1_555 1_555
O7C_2 V6C_2 1_555 1_555
O7A_2 V6A 1_555 1_555
O7A_3 V6A_3 1_555 1_555
O8C Mo6C 1_555 1_555
O8_2 Mo6_2 1_555 1_555
O8B Mo6B_2 1_555 1_555
O8A Mo6A_2 1_555 1_555
O8C_2 Mo6C_2 1_555 1_555
O8A_2 Mo6A 1_555 1_555
O8B_2 Mo6B 1_555 1_555
O8A_3 Mo6A_3 1_555 1_555
O9B Mo6B 1_555 1_555
O9A Mo6A 1_555 1_555
O9C Mo6C 1_555 1_555
O9_2 Mo6_2 1_555 1_555
O9B_2 Mo6B_2 1_555 1_555
O9A_2 Mo6A_2 1_555 1_555
O9C_2 Mo6C_2 1_555 1_555
O9A_3 Mo6A_3 1_555 1_555
O10B Mo4B_2 1_555 1_555
O10_2 Mo4_2 1_555 1_555
O10C Mo4C_2 1_555 1_555
O10A Mo4A_2 1_555 1_555
O10A_2 Mo4A 1_555 1_555
O10C_2 Mo4C 1_555 1_555
O10B_2 Mo4B 1_555 1_555
O10_3 V2_3 1_555 1_555
O10A_3 Mo4A_3 1_555 1_555
O11B Mo2B 1_555 1_555
O12B Mo2B 1_555 1_555
O13B Mo4B_2 1_555 1_555
O13_2 Mo4_2 1_555 1_555
O13C Mo4C_2 1_555 1_555
O13A Mo4A_2 1_555 1_555
O13A_2 Mo4A 1_555 1_555
O13C_2 Mo4C 1_555 1_555
O13B_2 Mo4B 1_555 1_555
O13A_3 Mo4A_3 1_555 1_555
O14B V6C 1_555 1_555
O14A V6_2 1_555 1_555
O14C V6B 1_555 1_555
O14_2 V6A 1_555 1_555
O14A_2 V6 1_555 1_555
O14_3 V6A_2 1_555 1_555
O14C_2 V6B_2 1_555 1_555
O14B_2 V6C_3 1_555 1_555
O14_4 V6A_4 1_555 1_555
O14B_3 V6C_2 1_555 1_555
O14A_3 V6_3 1_555 1_555
O15B V5B 1_555 1_555
O16B Mo5B 1_555 1_555
O17B Mo3B 1_555 1_555
O17C Mo3C 1_555 1_555
O17A Mo3A 1_555 1_555
O17_2 Mo3_2 1_555 1_555
O17B_2 Mo3B_2 1_555 1_555
O17C_2 Mo3C_2 1_555 1_555
O17A_2 Mo3A_2 1_555 1_555
O17A_3 Mo3A_3 1_555 1_555
O18B Mo5B 1_555 1_555
O19B V1 1_555 1_555
O19C Mo8C 1_555 1_555
O19A Mo8A 1_555 1_555
O19B_2 Mo8B_2 1_555 1_555
O19_2 Mo8_2 1_555 1_555
O19C_2 Mo8C_2 1_555 1_555
O19A_2 Mo8A_2 1_555 1_555
O19A_3 Mo8A_3 1_555 1_555
O20B V4B 1_555 1_555
O21B Mo2B 1_555 1_555
O22C Mo6C 1_555 1_555
O22_2 Mo6_2 1_555 1_555
O22B Mo6B_2 1_555 1_555
O22A Mo6A_2 1_555 1_555
O22C_2 Mo6C_2 1_555 1_555
O22A_2 Mo6A 1_555 1_555
O22B_2 Mo6B 1_555 1_555
O22A_3 Mo6A_3 1_555 1_555
O23B V1B 1_555 1_555
O23_2 V1_2 1_555 1_555
O23A V1A_2 1_555 1_555
O23C V1C_2 1_555 1_555
O23C_2 V1C 1_555 1_555
O23A_2 V1A 1_555 1_555
O23B_2 V1B_2 1_555 1_555
O24B Mo3B 1_555 1_555
O24_2 Mo3_2 1_555 1_555
O24B_2 Mo3B_2 1_555 1_555
O24A Mo3A_2 1_555 1_555
O24C Mo3C_2 1_555 1_555
O24A_2 Mo3A 1_555 1_555
O24C_2 Mo3C 1_555 1_555
O24_3 V2_3 1_555 1_555
O24A_3 Mo3A_3 1_555 1_555
O25B Mo1B 1_555 1_555
O26C Mo3C_2 1_555 1_555
O26A Mo3A_2 1_555 1_555
O26_2 Mo3_2 1_555 1_555
O26A_2 Mo3A 1_555 1_555
O26C_2 Mo3C 1_555 1_555
O26B Mo3B 1_555 1_555
O26B_2 Mo3B_2 1_555 1_555
O26A_3 Mo3A_3 1_555 1_555
O27B Mo7B 1_555 1_555
O28B V4 1_555 1_555
O29_2 O34_2 1_555 1_555
O29B O34B 1_555 1_555
O29C O34C 1_555 1_555
O29A O34A 1_555 1_555
O29B_2 P2 1_555 1_555
O29A_2 O34A_2 1_555 1_555
O29C_2 O34C_2 1_555 1_555
O29_3 O34_3 1_555 1_555
O30B Mo4B_2 1_555 1_555
O30_2 Mo4_2 1_555 1_555
O30C Mo4C_2 1_555 1_555
O30A Mo4A_2 1_555 1_555
O30A_2 Mo4A 1_555 1_555
O30C_2 Mo4C 1_555 1_555
O30B_2 V1 1_555 1_555
O30A_3 Mo4A_3 1_555 1_555
O31B Mo3B 1_555 1_555
O31_2 Mo3_2 1_555 1_555
O31A Mo3A_2 1_555 1_555
O31C Mo3C_2 1_555 1_555
O31C_2 Mo3C 1_555 1_555
O31A_2 Mo3A 1_555 1_555
O31B_2 Mo3B_2 1_555 1_555
O31A_3 Mo3A_3 1_555 1_555
O32A Mo8C 1_555 1_555
O32_2 Mo8B_2 1_555 1_555
O32B Mo8_2 1_555 1_555
O32C Mo8A_2 1_555 1_555
O32A_2 Mo8C_2 1_555 1_555
O32C_2 Mo8A 1_555 1_555
O32B_2 Mo8 1_555 1_555
O32_3 V2_3 1_555 1_555
O32C_3 Mo8A_3 1_555 1_555
O33B Mo6_2 1_555 1_555
O33_2 Mo6B_2 1_555 1_555
O33C Mo6A_2 1_555 1_555
O33A Mo6C_2 1_555 1_555
O33A_2 Mo6C 1_555 1_555
O33C_2 Mo6A 1_555 1_555
O33B_2 Mo6 1_555 1_555
O33_3 V2_3 1_555 1_555
O33C_3 Mo6A_3 1_555 1_555
O34_2 V2_2 1_555 1_555
O34B V2B_2 1_555 1_555
O34C V2C 1_555 1_555
O34A V2A_2 1_555 1_555
O34A_2 V2A 1_555 1_555
O34B_2 P2 1_555 1_555
O34_3 V2_3 1_555 1_555
O34C_2 V2C_2 1_555 1_555
O35_2 Mo8_2 1_555 1_555
O35A Mo8A_2 1_555 1_555
O35B Mo8B_2 1_555 1_555
O35C Mo8C 1_555 1_555
O35A_2 Mo8A 1_555 1_555
O35B_2 Mo8B 1_555 1_555
O35C_2 Mo8C_2 1_555 1_555
O35A_3 Mo8A_3 1_555 1_555
O36B Zn1B 1_555 1_555
O37B V3 1_555 1_555
O38B V3 1_555 1_555
O39B V3B 1_555 1_555
O40B V4 1_555 1_555
O41B Mo7B 1_555 1_555
O42B P1 1_555 1_555
O43B P1 1_555 1_555
O44B P1 1_555 1_555
O45_2 O29_2 1_555 1_555
O45B O29B 1_555 1_555
O45C O29C 1_555 1_555
O45A O29A 1_555 1_555
O45B_2 O46 1_555 1_555
O45C_2 O29C_2 1_555 1_555
O45A_2 O29A_2 1_555 1_555
O46B Mo4B_2 1_555 1_555
O46_2 Mo4_2 1_555 1_555
O46A Mo4A_2 1_555 1_555
O46C Mo4C_2 1_555 1_555
O46A_2 Mo4A 1_555 1_555
O46C_2 Mo4C 1_555 1_555
O46B_2 O45 1_555 1_555
O46A_3 Mo4A_3 1_555 1_555
P2_2 O29_2 1_555 1_555
P2C O29C 1_555 1_555
P2C_2 O29A_2 1_555 1_555
P2_3 O34_3 1_555 1_555
V5B O5B 1_555 1_555
V6C O17C 1_555 1_555
V6_2 O17_2 1_555 1_555
V6B O17B_2 1_555 1_555
V6A O17A_2 1_555 1_555
V6A_2 O17A 1_555 1_555
V6B_2 O6B 1_555 1_555
V6A_3 O14 1_555 1_555
V6C_2 O17C_2 1_555 1_555
Zn1B N1B 1_555 1_555
Zn2B N5B 1_555 1_555
Zn2A N5A 1_555 1_555
Zn2C N5C 1_555 1_555
Zn2_2 N5_2 1_555 1_555
Zn2B_2 N6B_2 1_555 1_555
Zn2_3 N6_3 1_555 1_555
Zn2A_2 N6A_2 1_555 1_555
Zn2A_3 N6A_3 1_555 1_555
Zn2_4 N6_4 1_555 1_555
Zn2C_2 N6C_2 1_555 1_555
Zn2B_3 O14B_3 1_555 1_555
O47B O43 1_555 1_555
C47B C37B 1_555 1_555
C47A C37A 1_555 1_555
C47C C37C 1_555 1_555
C47_2 C37_2 1_555 1_555
H31B C47B 1_555 1_555
H31A C47A 1_555 1_555
H31C C47C 1_555 1_555
C48B C34B 1_555 1_555
C48A C34A 1_555 1_555
C48C C34C 1_555 1_555
C48_2 C34_2 1_555 1_555
H32B C48B 1_555 1_555
H32A C48A 1_555 1_555
H32C C48C 1_555 1_555
C5 N1 1_555 1_555
C6 C10 1_555 1_555
N2 C10 1_555 1_555
N2 Zn1 1_555 1_555
C15 N3 1_555 1_555
N3 Zn1 1_555 1_555
C16 C20 1_555 1_555
N4 C20 1_555 1_555
N4 Zn1 1_555 1_555
C25 N5 1_555 1_555
C26 C30 1_555 1_555
N6 C30 1_555 1_555
N6 Zn2 1_555 1_555
N7 Zn2 1_555 1_555
C34 C35 1_555 1_555
N8 Zn2 1_555 1_555
C39 C40 1_555 1_555
C41 C42 1_555 1_555
C43 C44 1_555 1_555
C45 C46 1_555 1_555
Mo2 O5 1_555 1_555
Mo4 O17 1_555 1_555
Mo7 O18 1_555 1_555
Mo8 O22 1_555 1_555
V1 O31 1_555 1_555
V2 O10 1_555 1_555
V2 O24 1_555 1_555
V3 O25 1_555 1_555
V4 O41 1_555 1_555
O15 Zn1 1_555 1_555
O18 V5 1_555 1_555
O22 V6 1_555 1_555
O29 O46 1_555 1_555
O30 V1B 1_555 1_555
O34 P2 1_555 1_555
O38 V3B 1_555 1_555
O40 V4B 1_555 1_555
O43 P1 1_555 1_555
O44 P1 1_555 1_555
O44 O47 1_555 1_555
O45 P2 1_555 1_555
O46 P2 1_555 1_555
P1 O47 1_555 1_555
P1 O47B 1_555 1_555
P2 O45B_2 1_555 1_555
P2 O46B_2 1_555 1_555
O47 O43B 1_555 1_555
C47 C48 1_555 1_555
C5B N1B 1_555 1_555
C6B C10B 1_555 1_555
N2B C10B 1_555 1_555
N2B Zn1B 1_555 1_555
C15B N3B 1_555 1_555
N3B Zn1B 1_555 1_555
C16B C20B 1_555 1_555
N4B C20B 1_555 1_555
N4B Zn1B 1_555 1_555
C25B N5B 1_555 1_555
C25A N5A 1_555 1_555
C25C N5C 1_555 1_555
C25_2 N5_2 1_555 1_555
C26B C30B 1_555 1_555
C26A C30A 1_555 1_555
C26C C30C 1_555 1_555
C26_2 C30_2 1_555 1_555
N6B C30B 1_555 1_555
N6B Zn2B 1_555 1_555
N6A C30A 1_555 1_555
N6A Zn2A 1_555 1_555
N6C C30C 1_555 1_555
N6C Zn2C 1_555 1_555
N6_2 C30_2 1_555 1_555
N6_2 Zn2_2 1_555 1_555
N7B Zn2B 1_555 1_555
N7A Zn2A 1_555 1_555
N7C Zn2C 1_555 1_555
N7_2 Zn2_2 1_555 1_555
N7B_2 Zn2B_2 1_555 1_555
N7_3 Zn2_3 1_555 1_555
N7A_2 Zn2A_2 1_555 1_555
N7A_3 Zn2A_3 1_555 1_555
N7_4 Zn2_4 1_555 1_555
N7C_2 Zn2C_2 1_555 1_555
C34B C35B 1_555 1_555
C34A C35A 1_555 1_555
C34C C35C 1_555 1_555
C34_2 C35_2 1_555 1_555
N8B Zn2B 1_555 1_555
N8A Zn2A 1_555 1_555
N8C Zn2C 1_555 1_555
N8_2 Zn2_2 1_555 1_555
N8B_2 Zn2B_2 1_555 1_555
N8_3 Zn2_3 1_555 1_555
N8A_2 Zn2A_2 1_555 1_555
N8A_3 Zn2A_3 1_555 1_555
N8_4 Zn2_4 1_555 1_555
N8C_2 Zn2C_2 1_555 1_555
C39B C40B 1_555 1_555
C39A C40A 1_555 1_555
C39C C40C 1_555 1_555
C39_2 C40_2 1_555 1_555
C41B C42B 1_555 1_555
C43B C44B 1_555 1_555
C45C C46C 1_555 1_555
C45A C46A 1_555 1_555
C45B C46B 1_555 1_555
Mo1B O40B 1_555 1_555
Mo2B O5B 1_555 1_555
Mo4B O17B 1_555 1_555
Mo4B O30B_2 1_555 1_555
Mo4B O46B_2 1_555 1_555
Mo4C O17C 1_555 1_555
Mo4A O17A 1_555 1_555
Mo4_2 O17_2 1_555 1_555
Mo4B_2 O17B_2 1_555 1_555
Mo4C_2 O17C_2 1_555 1_555
Mo4A_2 O17A_2 1_555 1_555
Mo4A_3 O17A_3 1_555 1_555
Mo5B O28B 1_555 1_555
Mo5B O37B 1_555 1_555
Mo5B O42B 1_555 1_555
Mo7B O18B 1_555 1_555
Mo7B O38B 1_555 1_555
Mo8B O19B 1_555 1_555
Mo8B O22B_2 1_555 1_555
Mo8C O22C 1_555 1_555
Mo8A O22A_2 1_555 1_555
Mo8_2 O22_2 1_555 1_555
Mo8B_2 O22B 1_555 1_555
Mo8A_2 O22A 1_555 1_555
Mo8C_2 O22C_2 1_555 1_555
Mo8A_3 O22A_3 1_555 1_555
V1B O9B 1_555 1_555
V1B O31B 1_555 1_555
V1A O19C 1_555 1_555
V1A O30C_2 1_555 1_555
V1A O31A_2 1_555 1_555
V1C O19A 1_555 1_555
V1C O30A_2 1_555 1_555
V1C O31C_2 1_555 1_555
V1_2 O19B_2 1_555 1_555
V1_2 O30B 1_555 1_555
V1_2 O31_2 1_555 1_555
V1A_2 O19C_2 1_555 1_555
V1A_2 O30C 1_555 1_555
V1A_2 O31A 1_555 1_555
V1C_2 O19A_2 1_555 1_555
V1C_2 O30A 1_555 1_555
V1C_2 O31C 1_555 1_555
V1B_2 O19_2 1_555 1_555
V1B_2 O30_2 1_555 1_555
V1B_2 O31B_2 1_555 1_555
V2B O10B_2 1_555 1_555
V2B O24B 1_555 1_555
V2B O32B_2 1_555 1_555
V2B O33B_2 1_555 1_555
V2B O34B_2 1_555 1_555
V2A O10A_2 1_555 1_555
V2A O24A_2 1_555 1_555
V2A O32A 1_555 1_555
V2A O33A_2 1_555 1_555
V2B_2 O10B 1_555 1_555
V2B_2 O24B_2 1_555 1_555
V2B_2 O32B 1_555 1_555
V2B_2 O33B 1_555 1_555
V2_2 O10_2 1_555 1_555
V2_2 O24_2 1_555 1_555
V2_2 O32_2 1_555 1_555
V2_2 O33_2 1_555 1_555
V2C O10C 1_555 1_555
V2C O24C 1_555 1_555
V2C O32C 1_555 1_555
V2C O33C 1_555 1_555
V2A_2 O10A 1_555 1_555
V2A_2 O24A 1_555 1_555
V2A_2 O32A_2 1_555 1_555
V2A_2 O33A 1_555 1_555
V2C_2 O10C_2 1_555 1_555
V2C_2 O24C_2 1_555 1_555
V2C_2 O32C_2 1_555 1_555
V2C_2 O33C_2 1_555 1_555
V3B O21B 1_555 1_555
V3B O25B 1_555 1_555
V4B O11B 1_555 1_555
V4B O41B 1_555 1_555
O7B V6B_2 1_555 1_555
O14B Zn2B 1_555 1_555
O14A Zn2A 1_555 1_555
O14C Zn2C 1_555 1_555
O14_2 Zn2_2 1_555 1_555
O14A_2 Zn2A_3 1_555 1_555
O14_3 Zn2_4 1_555 1_555
O14C_2 Zn2C_2 1_555 1_555
O14B_2 Zn2B_2 1_555 1_555
O14_4 Zn2_3 1_555 1_555
O14A_3 Zn2A_2 1_555 1_555
O15B Zn1B 1_555 1_555
O17B V6B_2 1_555 1_555
O17A_3 V6A_3 1_555 1_555
O18B V5B 1_555 1_555
O22C V6C 1_555 1_555
O22_2 V6_2 1_555 1_555
O22B V6B 1_555 1_555
O22A V6A 1_555 1_555
O22C_2 V6C_2 1_555 1_555
O22A_2 V6A_2 1_555 1_555
O22B_2 V6B_2 1_555 1_555
O22A_3 V6A_3 1_555 1_555
O29_2 O46_2 1_555 1_555
O29B O46B 1_555 1_555
O29B P2_2 1_555 1_555
O29C O46C 1_555 1_555
O29A O46A 1_555 1_555
O29A P2C 1_555 1_555
O29B_2 O34B_2 1_555 1_555
O29B_2 O45B_2 1_555 1_555
O29B_2 O46B_2 1_555 1_555
O29A_2 O46A_2 1_555 1_555
O29C_2 O46C_2 1_555 1_555
O29C_2 P2C_2 1_555 1_555
O34_2 P2_2 1_555 1_555
O34B P2_2 1_555 1_555
O34C P2C 1_555 1_555
O34A P2C 1_555 1_555
O34A_2 P2C_2 1_555 1_555
O34C_2 P2C_2 1_555 1_555
O42B O43B 1_555 1_555
O42B O47B 1_555 1_555
O43B O44B 1_555 1_555
O44B O47B 1_555 1_555
O45_2 O46B 1_555 1_555
O45_2 P2_2 1_555 1_555
O45B O46_2 1_555 1_555
O45B P2_2 1_555 1_555
O45C O46A 1_555 1_555
O45C P2C 1_555 1_555
O45A O46C 1_555 1_555
O45A P2C 1_555 1_555
O45C_2 O46A_2 1_555 1_555
O45C_2 P2C_2 1_555 1_555
O45A_2 O46C_2 1_555 1_555
O45A_2 P2C_2 1_555 1_555
O46B P2_2 1_555 1_555
O46_2 P2_2 1_555 1_555
O46A P2C 1_555 1_555
O46C P2C 1_555 1_555
O46A_2 P2C_2 1_555 1_555
O46C_2 P2C_2 1_555 1_555
C47B C48B 1_555 1_555
C47A C48A 1_555 1_555
C47C C48C 1_555 1_555

#END
