
#######################################################################
#
#                 Cambridge Crystallographic Data Centre
#                                CCDC 
#
#######################################################################
#
# If this CIF has been generated from an entry in the Cambridge 
# Structural Database, then it will include bibliographic, chemical, 
# crystal, experimental, refinement or atomic coordinate data resulting 
# from the CCDC's data processing and validation procedures.
#
#######################################################################

data_DOFREV10
_symmetry_cell_setting           orthorhombic
_symmetry_space_group_name_H-M   'P 21 21 21'
_symmetry_Int_Tables_number      19
_space_group_name_Hall           'P 2ac 2ab'
loop_
_symmetry_equiv_pos_site_id
_symmetry_equiv_pos_as_xyz
1 x,y,z
2 1/2+x,1/2-y,-z
3 -x,1/2+y,1/2-z
4 1/2-x,-y,1/2+z
_cell_length_a                   15.490(2)
_cell_length_b                   15.626(2)
_cell_length_c                   20.803(3)
_cell_angle_alpha                90
_cell_angle_beta                 90
_cell_angle_gamma                90
_cell_volume                     5035.3
loop_
_atom_site_label
_atom_site_type_symbol
_atom_site_fract_x
_atom_site_fract_y
_atom_site_fract_z
Cd1 Cd 0.27598(4) 0.23280(4) 0.40455(3)
Cd2 Cd 0.46685(5) 0.31887(4) 0.27997(3)
Cd3 Cd 0.47313(5) 0.06939(4) 0.33993(3)
Cd4 Cd 0.03444(5) 0.23421(4) 0.53699(3)
S1 S 0.1162(2) 0.2291(2) 0.4316(1)
S2 S 0.5110(3) 0.4126(2) 0.1871(1)
S3 S 0.3093(2) 0.3369(2) 0.3128(1)
S4 S 0.3116(2) 0.0895(1) 0.3547(1)
S5 S 0.3760(2) 0.2702(2) 0.4969(1)
S6 S 0.4992(2) 0.1666(2) 0.2436(1)
S7 S 0.5464(2) 0.3802(2) 0.3774(1)
S8 S 0.5805(2) 0.1200(2) 0.4220(1)
C1 C 0.0795(2) 0.1381(4) 0.3893(3)
C2 C 0.4860(3) 0.3585(2) 0.1148(2)
C3 C 0.2425(3) 0.2989(3) 0.2500(2)
C4 C 0.2759(2) 0.0086(2) 0.4080(2)
C5 C 0.3547(2) 0.3783(3) 0.5171(2)
C6 C 0.6132(3) 0.1599(7) 0.2401(4)
C7 C 0.6554(3) 0.3971(2) 0.3550(1)
C8 C 0.5634(2) 0.0619(2) 0.4940(2)
C9 C 0.0604(5) 0.0633(3) 0.4213(5)
C10 C 0.0314(5) -0.0085(4) 0.3879(6)
C11 C 0.0219(6) -0.0046(6) 0.3229(6)
C12 C 0.0402(7) 0.0686(8) 0.2902(5)
C13 C 0.0693(6) 0.1404(6) 0.3236(3)
C14 C 0.4092(4) 0.3736(4) 0.0835(3)
C15 C 0.3894(5) 0.3309(5) 0.0265(3)
C16 C 0.4467(6) 0.2738(5) 0.0016(3)
C17 C 0.5231(6) 0.2578(5) 0.0317(4)
C18 C 0.5429(5) 0.3005(4) 0.0887(3)
C19 C 0.1606(4) 0.3312(5) 0.2415(4)
C20 C 0.1079(6) 0.3012(7) 0.1920(5)
C21 C 0.1379(7) 0.2394(6) 0.1517(4)
C22 C 0.2186(7) 0.2064(7) 0.1591(4)
C23 C 0.2713(5) 0.2364(5) 0.2086(3)
C24 C 0.2645(4) 0.0256(3) 0.4723(2)
C25 C 0.2364(5) -0.0382(4) 0.5143(2)
C26 C 0.2199(4) -0.1180(4) 0.4913(3)
C27 C 0.2307(5) -0.1365(3) 0.4279(3)
C28 C 0.2588(4) -0.0727(2) 0.3859(3)
C29 C 0.3660(4) 0.4424(3) 0.4726(3)
C30 C 0.6288(4) 0.0522(4) 0.5381(2)
C31 C 0.6153(5) 0.0064(5) 0.5948(3)
C32 C 0.5366(6) -0.0294 0.6065(3)
C33 C 0.4709(5) -0.0202(5) 0.5636(3)
C34 C 0.4843(3) 0.0256(4) 0.5069(3)
H1 H 0.0676(8) 0.0609(4) 0.4691(5)
H2 H 0.0178(8) -0.0625(4) 0.4117(8)
H3 H 0.0011(7) -0.0561(8) 0.2990(8)
H4 H 0.0331(11) 0.0710(10) 0.2424(5)
H5 H 0.0829(9) 0.1944(7) 0.2998(2)
H6 H 0.3673(4) 0.4156(6) 0.1021(4)
H7 H 0.3334(6) 0.3423(7) 0.0041(4)
H8 H 0.4326(8) 0.2432(6) -0.0393(4)
H9 H 0.5649(8) 0.2157(7) 0.0131(5)
H10 H 0.5989(5) 0.2890(6) 0.1111(4)
H11 H 0.1389(4) 0.3766(8) 0.2713(6)
H12 H 0.0484(6) 0.3251(6) 0.1863(7)
H13 H 0.1001(9) 0.2179(8) 0.1162(5)
H14 H 0.2402(9) 0.1610(9) 0.1292(5)
H15 H 0.3307(6) 0.2125(7) 0.2143(5)
H16 H 0.2767(8) 0.0845(4) 0.4889(2)
H17 H 0.2283(7) -0.0250(5) 0.5610(2)
H18 H 0.1997(5) -0.1638(5) 0.5214(4)
H19 H 0.2185(7) -0.1954(3) 0.4113(4)
H20 H 0.2668(6) -0.0859(3) 0.3392(3)
H21 H 0.3866(6) 0.4275(3) 0.4284(3)
H22 H 0.3577(7) 0.5737(3) 0.4557(5)
H23 H 0.3093(6) 0.6082(4) 0.5602(6)
H24 H 0.2891(7) 0.4999(6) 0.6379(4)
H25 H 0.3179(6) 0.3537(5) 0.6105(2)
C35 C 0.3492(5) 0.5276(3) 0.4885(5)
C36 C 0.3213(5) 0.5472(4) 0.5488(5)
C37 C 0.3096(5) 0.4850(4) 0.5937(4)
C38 C 0.3264(4) 0.3998(4) 0.5777(3)
C39 C 0.6624(5) 0.2320(10) 0.2298(8)
C40 C 0.7522(5) 0.2267(16) 0.2270(10)
C41 C 0.7915(4) 0.1495(18) 0.2347(9)
C42 C 0.7444(6) 0.0774(15) 0.2450(10)
C43 C 0.6545(6) 0.0826(10) 0.2477(8)
C44 C 0.6771(3) 0.4609(3) 0.3124(3)
C45 C 0.7630(3) 0.4742(4) 0.2947(3)
C46 C 0.8258(4) 0.4235(5) 0.3199(3)
C47 C 0.8060(3) 0.3599(5) 0.3621(3)
C48 C 0.7201(3) 0.3466(3) 0.3798(2)
S2B S 0.4890(3) -0.0874(2) 0.3129(1)
S5A S -0.1240(2) 0.2298(2) 0.5031(1)
S7A S 0.0464(2) 0.1198(2) 0.6226(1)
S8A S 0.0805(2) 0.3800(2) 0.5780(1)
Cd3B Cd 0.52687(5) 0.56939(4) 0.16007(3)
Cd4A Cd 0.53444(5) 0.26579(4) 0.46301(3)
loop_
_geom_bond_atom_site_label_1
_geom_bond_atom_site_label_2
_geom_bond_site_symmetry_1
_geom_bond_site_symmetry_2
Cd1 S1 1_555 1_555
Cd2 S2 1_555 1_555
Cd3 S4 1_555 1_555
Cd4 S1 1_555 1_555
S1 C1 1_555 1_555
S2 C2 1_555 1_555
S3 Cd1 1_555 1_555
S4 Cd1 1_555 1_555
S5 Cd1 1_555 1_555
S6 Cd2 1_555 1_555
S7 Cd2 1_555 1_555
S8 Cd3 1_555 1_555
C1 C9 1_555 1_555
C2 C14 1_555 1_555
C3 S3 1_555 1_555
C4 S4 1_555 1_555
C5 S5 1_555 1_555
C6 S6 1_555 1_555
C7 S7 1_555 1_555
C8 S8 1_555 1_555
C9 C10 1_555 1_555
C10 C11 1_555 1_555
C11 C12 1_555 1_555
C12 C13 1_555 1_555
C13 C1 1_555 1_555
C14 C15 1_555 1_555
C15 C16 1_555 1_555
C16 C17 1_555 1_555
C17 C18 1_555 1_555
C18 C2 1_555 1_555
C19 C3 1_555 1_555
C20 C19 1_555 1_555
C21 C20 1_555 1_555
C22 C21 1_555 1_555
C23 C3 1_555 1_555
C24 C4 1_555 1_555
C25 C24 1_555 1_555
C26 C25 1_555 1_555
C27 C26 1_555 1_555
C28 C4 1_555 1_555
C29 C5 1_555 1_555
C30 C8 1_555 1_555
C31 C30 1_555 1_555
C32 C31 1_555 1_555
C33 C32 1_555 1_555
C34 C8 1_555 1_555
H1 C9 1_555 1_555
H2 C10 1_555 1_555
H3 C11 1_555 1_555
H4 C12 1_555 1_555
H5 C13 1_555 1_555
H6 C14 1_555 1_555
H7 C15 1_555 1_555
H8 C16 1_555 1_555
H9 C17 1_555 1_555
H10 C18 1_555 1_555
H11 C19 1_555 1_555
H12 C20 1_555 1_555
H13 C21 1_555 1_555
H14 C22 1_555 1_555
H15 C23 1_555 1_555
H16 C24 1_555 1_555
H17 C25 1_555 1_555
H18 C26 1_555 1_555
H19 C27 1_555 1_555
H20 C28 1_555 1_555
H21 C29 1_555 1_555
H22 C35 1_555 1_555
H23 C36 1_555 1_555
H24 C37 1_555 1_555
H25 C38 1_555 1_555
C35 C29 1_555 1_555
C36 C35 1_555 1_555
C37 C36 1_555 1_555
C38 C5 1_555 1_555
C39 C6 1_555 1_555
C40 C39 1_555 1_555
C41 C40 1_555 1_555
C42 C41 1_555 1_555
C43 C6 1_555 1_555
C44 C7 1_555 1_555
C45 C44 1_555 1_555
C46 C45 1_555 1_555
C47 C46 1_555 1_555
C48 C7 1_555 1_555
S2B Cd3 1_555 1_555
S5A Cd4 1_555 1_555
S7A Cd4 1_555 1_555
S8A Cd4 1_555 1_555
Cd3B S2 1_555 1_555
Cd4A S5 1_555 1_555
Cd2 S3 1_555 1_555
Cd3 S6 1_555 1_555
S7 Cd4A 1_555 1_555
S8 Cd4A 1_555 1_555
C22 C23 1_555 1_555
C27 C28 1_555 1_555
C33 C34 1_555 1_555
C37 C38 1_555 1_555
C42 C43 1_555 1_555
C47 C48 1_555 1_555

#END
