
#######################################################################
#
#                 Cambridge Crystallographic Data Centre
#                                CCDC 
#
#######################################################################
#
# If this CIF has been generated from an entry in the Cambridge 
# Structural Database, then it will include bibliographic, chemical, 
# crystal, experimental, refinement or atomic coordinate data resulting 
# from the CCDC's data processing and validation procedures.
#
#######################################################################

data_DOFVEA
_symmetry_cell_setting           orthorhombic
_symmetry_space_group_name_H-M   'P 21 21 21'
_symmetry_Int_Tables_number      19
_space_group_name_Hall           'P 2ac 2ab'
loop_
_symmetry_equiv_pos_site_id
_symmetry_equiv_pos_as_xyz
1 x,y,z
2 1/2-x,-y,1/2+z
3 1/2+x,1/2-y,-z
4 -x,1/2+y,1/2-z
_cell_length_a                   12.819(2)
_cell_length_b                   19.326(3)
_cell_length_c                   24.164(4)
_cell_angle_alpha                90
_cell_angle_beta                 90
_cell_angle_gamma                90
_cell_volume                     5986.39
loop_
_atom_site_label
_atom_site_type_symbol
_atom_site_fract_x
_atom_site_fract_y
_atom_site_fract_z
W1 W 0.28041(8) 0.95591(5) 0.98451(4)
W2 W 0.49897(9) 1.04147(5) 1.05734(4)
W3 W 0.70328(8) 1.10258(5) 0.98515(4)
W4 W 0.31737(9) 1.14574(5) 0.97009(4)
W5 W 0.67441(9) 0.91440(5) 0.84478(4)
W6 W 0.70748(8) 1.08562(5) 0.83174(4)
W7 W 0.52174(8) 1.20705(5) 0.89960(4)
W8 W 0.32458(9) 1.12972(5) 0.83204(4)
W9 W 0.44736(8) 0.84621(5) 0.92396(4)
W10 W 0.50968(9) 1.00696(5) 0.76679(4)
W11 W 0.66635(8) 0.93191(5) 0.99783(4)
W12 W 0.28295(8) 0.94017(5) 0.84682(4)
Ge1 Ge 0.49426(19) 1.02565(11) 0.91163(9)
O1 O 0.5679(14) 1.0265(8) 0.9714(7)
O2 O 0.5754(12) 1.0126(7) 0.8543(6)
O3 O 0.4325(11) 1.1042(7) 0.9054(6)
O4 O 0.4050(12) 0.9622(7) 0.9163(6)
O5 O 0.7047(12) 0.9263(7) 0.9209(6)
O6 O 0.5513(14) 0.8679(8) 0.8704(7)
O7 O 0.6014(12) 0.9311(7) 0.7747(6)
O8 O 0.7625(12) 0.9936(7) 0.8291(6)
O9 O 0.7545(14) 0.8487(9) 0.8261(7)
O10 O 0.8094(18) 1.1340(11) 0.8056(9)
O11 O 0.7354(13) 1.0854(8) 0.9092(7)
O12 O 0.6304(13) 1.0676(8) 0.7653(7)
O13 O 0.6133(13) 1.1587(8) 0.8492(7)
O14 O 0.5649(15) 1.2900(9) 0.8929(8)
O15 O 0.6077(13) 1.1699(7) 0.9553(7)
O16 O 0.4114(14) 1.2200(8) 0.9526(7)
O17 O 0.4139(12) 1.2068(7) 0.8420(6)
O18 O 0.2463(15) 1.1643(9) 0.7841(7)
O19 O 0.4287(14) 1.0864(8) 0.7872(7)
O20 O 0.2537(14) 1.1582(9) 0.8994(7)
O21 O 0.2703(13) 1.0378(8) 0.8444(7)
O22 O 0.1908(14) 0.9128(9) 0.8004(7)
O23 O 0.4013(14) 0.9536(9) 0.7994(7)
O24 O 0.2074(12) 0.9402(7) 0.9171(6)
O25 O 0.3470(13) 0.8533(8) 0.8663(7)
O26 O 0.3401(13) 0.8651(7) 0.9770(6)
O27 O 0.3922(15) 0.9795(8) 1.0307(7)
O28 O 0.2630(13) 1.0516(8) 0.9721(7)
O29 O 0.1822(14) 0.9389(8) 1.0314(7)
O30 O 0.4198(14) 1.1123(8) 1.0214(7)
O31 O 0.2319(15) 1.1894(9) 1.0119(8)
O32 O 0.4707(16) 1.0528(10) 1.1250(8)
O33 O 0.6208(13) 1.0996(8) 1.0530(7)
O34 O 0.4583(13) 0.7581(8) 0.9298(7)
O35 O 0.7422(14) 0.8706(8) 1.0260(7)
O36 O 0.5907(12) 0.9651(7) 1.0606(6)
O37 O 0.8033(16) 1.1530(10) 1.0076(8)
O38 O 0.7532(14) 1.0118(8) 1.0038(7)
O39 O 0.0159(14) 0.9987(9) 1.1973(7)
O40 O 0.5429(14) 0.8803(8) 0.9771(7)
O41 O 0.2140(19) 0.7832(12) 1.0865(10)
O42 O 0.309(2) 0.8653(13) 1.1278(11)
O43 O 0.0661(17) 0.8582(10) 1.1376(9)
O44 O -0.1075(16) 0.8794(9) 1.1209(7)
O45 O -0.0127(15) 1.0281(9) 1.0715(8)
O46 O -0.0506(15) 0.9311(9) 1.0249(6)
O49 O 0.291(2) 0.9821(15) 1.2042(12)
O50 O 0.201(2) 1.0850(13) 1.1159(11)
Na1 Na 0.1539(15) 0.9694(8) 1.1316(6)
C6 C 0.3981(12) 0.7769(9) 1.0822(8)
N2 N 0.3891(12) 0.7158(9) 1.0523(9)
C7 C 0.4783(15) 0.6803(8) 1.0359(8)
H5 H 0.4723 0.6394 1.0159
C8 C 0.5763(12) 0.7061(10) 1.0493(9)
H6 H 0.6359 0.6824 1.0383
C9 C 0.5852(12) 0.7673(10) 1.0791(10)
H7 H 0.6508 0.7845 1.0881
C10 C 0.4961(15) 0.8027(8) 1.0956(8)
H8 H 0.5021 0.8436 1.1156
C11 C -0.0625(13) 0.8012(7) 1.1890(6)
N3 N -0.1692(12) 0.7954(8) 1.1983(7)
C12 C -0.2069(10) 0.7460(9) 1.2350(8)
H9 H -0.2783 0.7422 1.2412
C13 C -0.1380(13) 0.7023(8) 1.2624(7)
H10 H -0.1632 0.6692 1.2869
C14 C -0.0313(12) 0.7080(8) 1.2531(7)
H11 H 0.0148 0.6788 1.2714
C15 C 0.0064(10) 0.7575(9) 1.2164(7)
H12 H 0.0778 0.7613 1.2102
C17 C -0.028(2) 0.8506(13) 1.1453(11)
C18 C 0.302(3) 0.8106(16) 1.1034(14)
C19 C -0.027(2) 0.9946(12) 1.0285(11)
C20 C -0.009(2) 1.0288(11) 0.9753(10)
C21 C -0.022(2) 0.9981(15) 0.9235(12)
H13 H -0.0402 0.9516 0.9215
C22 C -0.009(2) 1.0343(15) 0.8761(14)
H14 H -0.0190 1.0137 0.8417
C23 C 0.022(3) 1.1050(17) 0.8805(15)
H15 H 0.0363 1.1309 0.8489
C24 C 0.029(2) 1.1322(13) 0.9283(11)
H16 H 0.0432 1.1793 0.9298
N4 N 0.018(3) 1.0991(15) 0.9772(13)
W10A W -0.00968(9) 0.99304(5) 1.26679(4)
O39A O 0.4841(14) 1.0013(9) 0.6973(7)
O47 O 0.899(2) 1.0614(12) 0.7005(10)
O48 O 0.969(2) 0.9757(12) 0.7452(11)
C1 C 0.8237(14) 0.9552(9) 0.6914(8)
N1 N 0.7423(15) 0.9824(7) 0.6603(8)
C2 C 0.6704(13) 0.9384(9) 0.6355(7)
H1 H 0.6159 0.9566 0.6147
C3 C 0.6798(15) 0.8672(8) 0.6419(8)
H2 H 0.6316 0.8378 0.6254
C4 C 0.7611(17) 0.8400(7) 0.6731(9)
H3 H 0.7674 0.7924 0.6774
C5 C 0.8331(14) 0.8840(10) 0.6979(8)
H4 H 0.8875 0.8658 0.7187
C16 C 0.901(3) 0.9977(16) 0.7159(13)
O51 O 0.080(3) 0.7700(18) 0.7545(16)
O52 O 0.671(4) 0.737(2) 0.382(2)
O53 O 0.962(3) 0.6472(16) 0.7605(14)
O54 O 0.452(3) 0.7294(18) 0.4087(15)
O55 O 0.978(2) 0.8573(15) 0.8273(12)
loop_
_geom_bond_atom_site_label_1
_geom_bond_atom_site_label_2
_geom_bond_site_symmetry_1
_geom_bond_site_symmetry_2
W1 O4 1_555 1_555
W2 O1 1_555 1_555
W3 O1 1_555 1_555
W4 O3 1_555 1_555
W5 O2 1_555 1_555
W6 O2 1_555 1_555
W7 O3 1_555 1_555
W8 O3 1_555 1_555
W9 O4 1_555 1_555
W10 O2 1_555 1_555
W11 O1 1_555 1_555
W12 O4 1_555 1_555
Ge1 O1 1_555 1_555
O2 Ge1 1_555 1_555
O3 Ge1 1_555 1_555
O4 Ge1 1_555 1_555
O5 W5 1_555 1_555
O6 W5 1_555 1_555
O7 W5 1_555 1_555
O8 W5 1_555 1_555
O9 W5 1_555 1_555
O10 W6 1_555 1_555
O11 W3 1_555 1_555
O12 W6 1_555 1_555
O13 W6 1_555 1_555
O14 W7 1_555 1_555
O15 W3 1_555 1_555
O16 W4 1_555 1_555
O17 W7 1_555 1_555
O18 W8 1_555 1_555
O19 W8 1_555 1_555
O20 W4 1_555 1_555
O21 W8 1_555 1_555
O22 W12 1_555 1_555
O23 W10 1_555 1_555
O24 W1 1_555 1_555
O25 W9 1_555 1_555
O26 W1 1_555 1_555
O27 W1 1_555 1_555
O28 W1 1_555 1_555
O29 W1 1_555 1_555
O30 W2 1_555 1_555
O31 W4 1_555 1_555
O32 W2 1_555 1_555
O33 W2 1_555 1_555
O34 W9 1_555 1_555
O35 W11 1_555 1_555
O36 W2 1_555 1_555
O37 W3 1_555 1_555
O38 W3 1_555 1_555
O39 Na1 1_555 1_555
O40 W9 1_555 1_555
O41 C18 1_555 1_555
O42 Na1 1_555 1_555
O43 Na1 1_555 1_555
O44 C17 1_555 1_555
O45 Na1 1_555 1_555
O46 C19 1_555 1_555
O47 C16 1_555 1_555
O48 C16 1_555 1_555
O49 Na1 1_555 1_555
O50 Na1 1_555 1_555
Na1 O29 1_555 1_555
C1 N1 1_555 1_555
N1 C2 1_555 1_555
C2 H1 1_555 1_555
C3 C2 1_555 1_555
H2 C3 1_555 1_555
C4 C3 1_555 1_555
H3 C4 1_555 1_555
C5 C1 1_555 1_555
H4 C5 1_555 1_555
C6 N2 1_555 1_555
N2 C7 1_555 1_555
C7 H5 1_555 1_555
C8 C7 1_555 1_555
H6 C8 1_555 1_555
C9 C8 1_555 1_555
H7 C9 1_555 1_555
C10 C6 1_555 1_555
H8 C10 1_555 1_555
C11 N3 1_555 1_555
N3 C12 1_555 1_555
C12 H9 1_555 1_555
C13 C12 1_555 1_555
H10 C13 1_555 1_555
C14 C13 1_555 1_555
H11 C14 1_555 1_555
C15 C11 1_555 1_555
H12 C15 1_555 1_555
C16 C1 1_555 1_555
C17 O43 1_555 1_555
C18 O42 1_555 1_555
C19 O45 1_555 1_555
C20 C19 1_555 1_555
C21 C20 1_555 1_555
H13 C21 1_555 1_555
C22 C21 1_555 1_555
H14 C22 1_555 1_555
C23 C22 1_555 1_555
H15 C23 1_555 1_555
C24 C23 1_555 1_555
H16 C24 1_555 1_555
N4 C20 1_555 1_555
W10A O39 1_555 1_555
O39A W10 1_555 1_555
W2 O27 1_555 1_555
W3 O33 1_555 1_555
W4 O28 1_555 1_555
W4 O30 1_555 1_555
W6 O8 1_555 1_555
W6 O11 1_555 1_555
W7 O13 1_555 1_555
W7 O15 1_555 1_555
W7 O16 1_555 1_555
W8 O17 1_555 1_555
W8 O20 1_555 1_555
W9 O6 1_555 1_555
W9 O26 1_555 1_555
W10 O7 1_555 1_555
W10 O12 1_555 1_555
W10 O19 1_555 1_555
W11 O5 1_555 1_555
W11 O36 1_555 1_555
W11 O38 1_555 1_555
W11 O40 1_555 1_555
W12 O21 1_555 1_555
W12 O23 1_555 1_555
W12 O24 1_555 1_555
W12 O25 1_555 1_555
C4 C5 1_555 1_555
C6 C18 1_555 1_555
C9 C10 1_555 1_555
C11 C17 1_555 1_555
C14 C15 1_555 1_555
C24 N4 1_555 1_555

#END
