
#######################################################################
#
#                 Cambridge Crystallographic Data Centre
#                                CCDC 
#
#######################################################################
#
# If this CIF has been generated from an entry in the Cambridge 
# Structural Database, then it will include bibliographic, chemical, 
# crystal, experimental, refinement or atomic coordinate data resulting 
# from the CCDC's data processing and validation procedures.
#
#######################################################################

data_DOFWOL
_symmetry_cell_setting           monoclinic
_symmetry_space_group_name_H-M   'C 2/c'
_symmetry_Int_Tables_number      15
_space_group_name_Hall           '-C 2yn'
loop_
_symmetry_equiv_pos_site_id
_symmetry_equiv_pos_as_xyz
1 x,y,z
2 1/2+x,1/2+y,z
3 -x,y,1/2-z
4 1/2-x,1/2+y,1/2-z
5 -x,-y,-z
6 1/2-x,1/2-y,-z
7 x,-y,1/2+z
8 1/2+x,1/2-y,1/2+z
_cell_length_a                   8.9488(6)
_cell_length_b                   19.2589(18)
_cell_length_c                   9.9553(7)
_cell_angle_alpha                90
_cell_angle_beta                 98.396(6)
_cell_angle_gamma                90
_cell_volume                     1697.35
loop_
_atom_site_label
_atom_site_type_symbol
_atom_site_fract_x
_atom_site_fract_y
_atom_site_fract_z
C1 C 0.7867(3) 0.05725(15) 0.7112(3)
H1 H 0.8422 0.0989 0.6947
H2 H 0.8253 0.0194 0.6619
C2 C 0.8135(3) 0.04117(14) 0.8593(3)
H3 H 0.9166 0.0251 0.8837
H4 H 0.7469 0.0036 0.8773
C3 C 0.7879(3) 0.10191(13) 0.9472(2)
C4 C 0.8781(3) 0.12454(13) 1.0604(2)
H5 H 0.9741 0.1084 1.0946
C5 C 0.6694(3) 0.18367(14) 1.0305(2)
H6 H 0.5955 0.2157 1.0445
C6 C 0.3084(2) 0.23831(10) 0.92082(18)
C7 C 0.2337(2) 0.30040(10) 0.96328(18)
N1 N 0.6581(2) 0.14063(9) 0.92598(17)
N2 N 0.7993(3) 0.17560(13) 1.1134(2)
N3 N 0.6262(2) 0.06760(10) 0.65964(19)
O1 O 0.37938(17) 0.22647(7) 0.82322(14)
O2 O 0.2159(2) 0.36044(8) 0.91851(16)
Ni1 Ni 0.5000 0.140943(17) 0.7500
H8 H 0.582(3) 0.0278(14) 0.666(3)
H9 H 0.616(3) 0.0790(16) 0.588(3)
H10 H 0.831(5) 0.200(2) 1.195(4)
C1B C 0.2133(3) 0.05725(15) 0.7888(3)
H1B H 0.1578 0.0989 0.8053
H2B H 0.1747 0.0194 0.8381
C2B C 0.1865(3) 0.04117(14) 0.6407(3)
H3B H 0.0834 0.0251 0.6163
H4B H 0.2531 0.0036 0.6227
C3B C 0.2121(3) 0.10191(13) 0.5528(2)
C4B C 0.1219(3) 0.12454(13) 0.4396(2)
H5B H 0.0259 0.1084 0.4054
C5B C 0.3306(3) 0.18367(14) 0.4695(2)
H6B H 0.4045 0.2157 0.4555
C6E C 0.1916(2) 0.26169(10) 1.07918(18)
C7E C 0.2663(2) 0.19960(10) 1.03672(18)
N1B N 0.3419(2) 0.14063(9) 0.57402(17)
N2B N 0.2007(3) 0.17560(13) 0.3866(2)
N3B N 0.3738(2) 0.06760(10) 0.84036(19)
O1E O 0.12062(17) 0.27353(7) 1.17678(14)
O1B O 0.62062(17) 0.22647(7) 0.67678(14)
O2E O 0.2841(2) 0.13956(8) 1.08149(16)
Ni1G Ni 0.0000 0.359057(17) 1.2500
H8B H 0.418(3) 0.0278(14) 0.834(3)
H9B H 0.384(3) 0.0790(16) 0.912(3)
H10B H 0.169(5) 0.200(2) 0.305(4)
O3 O 0.5000 -0.06672(15) 0.7500
H7 H 0.565(4) -0.091(2) 0.801(4)
H7B H 0.435(4) -0.091(2) 0.699(4)
loop_
_geom_bond_atom_site_label_1
_geom_bond_atom_site_label_2
_geom_bond_site_symmetry_1
_geom_bond_site_symmetry_2
C1 H1 1_555 1_555
H2 C1 1_555 1_555
C2 C1 1_555 1_555
H3 C2 1_555 1_555
H4 C2 1_555 1_555
C3 C2 1_555 1_555
C4 C3 1_555 1_555
H5 C4 1_555 1_555
C5 H6 1_555 1_555
C6 C7 1_555 1_555
C7 O2 1_555 1_555
N1 C3 1_555 1_555
N2 C4 1_555 1_555
N3 C1 1_555 1_555
O1 C6 1_555 1_555
O3 H7 1_555 1_555
Ni1 N1 1_555 1_555
H8 N3 1_555 1_555
H9 N3 1_555 1_555
H10 N2 1_555 1_555
C1B H1B 1_555 1_555
H2B C1B 1_555 1_555
C2B C1B 1_555 1_555
H3B C2B 1_555 1_555
H4B C2B 1_555 1_555
C3B C2B 1_555 1_555
C4B C3B 1_555 1_555
H5B C4B 1_555 1_555
C5B H6B 1_555 1_555
C6E C7 1_555 1_555
C7E C6 1_555 1_555
N1B Ni1 1_555 1_555
N2B C4B 1_555 1_555
N3B Ni1 1_555 1_555
O1E C6E 1_555 1_555
O1B Ni1 1_555 1_555
O2E C7E 1_555 1_555
Ni1G O1E 1_555 1_555
H7B O3 1_555 1_555
H8B N3B 1_555 1_555
H9B N3B 1_555 1_555
H10B N2B 1_555 1_555
C5 N1 1_555 1_555
C5 N2 1_555 1_555
N3 Ni1 1_555 1_555
O1 Ni1 1_555 1_555
C1B N3B 1_555 1_555
C3B N1B 1_555 1_555
C5B N1B 1_555 1_555
C5B N2B 1_555 1_555
C6E C7E 1_555 1_555

#END
