
#######################################################################
#
#                 Cambridge Crystallographic Data Centre
#                                CCDC 
#
#######################################################################
#
# If this CIF has been generated from an entry in the Cambridge 
# Structural Database, then it will include bibliographic, chemical, 
# crystal, experimental, refinement or atomic coordinate data resulting 
# from the CCDC's data processing and validation procedures.
#
#######################################################################

data_DOFWIF
_symmetry_cell_setting           monoclinic
_symmetry_space_group_name_H-M   'P 21/n'
_symmetry_Int_Tables_number      14
_space_group_name_Hall           '-P 2yn'
loop_
_symmetry_equiv_pos_site_id
_symmetry_equiv_pos_as_xyz
1 x,y,z
2 1/2-x,1/2+y,1/2-z
3 -x,-y,-z
4 1/2+x,1/2-y,1/2+z
_cell_length_a                   8.668(7)
_cell_length_b                   7.935(6)
_cell_length_c                   11.1300(10)
_cell_angle_alpha                90
_cell_angle_beta                 103.914(6)
_cell_angle_gamma                90
_cell_volume                     743.066
loop_
_atom_site_label
_atom_site_type_symbol
_atom_site_fract_x
_atom_site_fract_y
_atom_site_fract_z
C1 C 0.00488(18) 0.87899(19) 0.46604(14)
C2 C 0.03701(19) 0.9554(2) 0.58926(15)
C3 C 0.3102(2) 0.3027(2) 0.48863(17)
H1 H 0.3060 0.2301 0.5534
C4 C 0.4252(2) 0.3012(2) 0.42466(18)
C5 C 0.2505(2) 0.4999(2) 0.35487(18)
H2 H 0.1998 0.5899 0.3080
C6 C 0.5705(3) 0.1966(3) 0.4347(3)
H3 H 0.5853 0.1252 0.5062
H4 H 0.6612 0.2689 0.4426
H5 H 0.5586 0.1284 0.3619
N1 N 0.20076(17) 0.42683(18) 0.44400(13)
N2 N 0.3845(2) 0.4276(2) 0.34023(16)
O1 O 0.00858(15) 0.73616(13) 0.42022(11)
O2 O -0.13045(17) 0.43103(18) 0.32299(12)
O3 O 0.08259(15) 0.90540(14) 0.69915(11)
Ni1 Ni 0.0000 0.5000 0.5000
H6 H -0.221(3) 0.472(3) 0.292(2)
H7 H -0.135(3) 0.333(4) 0.303(2)
H8 H 0.445(4) 0.461(4) 0.296(3)
C1B C -0.00488(18) 1.12101(19) 0.53396(14)
C2B C -0.03701(19) 1.0446(2) 0.41074(15)
C3B C -0.3102(2) 0.6973(2) 0.51137(17)
H1B H -0.3060 0.7699 0.4466
C4B C -0.4252(2) 0.6988(2) 0.57534(18)
C5B C -0.2505(2) 0.5001(2) 0.64513(18)
H2B H -0.1998 0.4101 0.6920
C6B C -0.5705(3) 0.8034(3) 0.5653(3)
H3B H -0.5853 0.8748 0.4938
H4B H -0.6612 0.7311 0.5574
H5B H -0.5586 0.8716 0.6381
N1B N -0.20076(17) 0.57317(18) 0.55600(13)
N2B N -0.3845(2) 0.5724(2) 0.65977(16)
O1B O -0.00858(15) 1.26384(13) 0.57978(11)
O1B_2 O -0.00858(15) 0.26384(13) 0.57978(11)
O2B O 0.13045(17) 0.56897(18) 0.67701(12)
O3B O -0.08259(15) 1.09460(14) 0.30085(11)
Ni1_2 Ni 0.0000 1.5000 0.5000
H6B H 0.221(3) 0.528(3) 0.708(2)
H7B H 0.135(3) 0.667(4) 0.697(2)
H8B H -0.445(4) 0.539(4) 0.704(3)
loop_
_geom_bond_atom_site_label_1
_geom_bond_atom_site_label_2
_geom_bond_site_symmetry_1
_geom_bond_site_symmetry_2
C1 C2 1_555 1_555
C2 O3 1_555 1_555
C3 H1 1_555 1_555
C4 C3 1_555 1_555
C5 H2 1_555 1_555
C6 C4 1_555 1_555
H3 C6 1_555 1_555
H4 C6 1_555 1_555
H5 C6 1_555 1_555
N1 C3 1_555 1_555
N2 C4 1_555 1_555
O1 C1 1_555 1_555
O2 Ni1 1_555 1_555
Ni1 N1 1_555 1_555
H6 O2 1_555 1_555
H7 O2 1_555 1_555
H8 N2 1_555 1_555
C1B C2 1_555 1_555
C2B C1 1_555 1_555
C3B H1B 1_555 1_555
C4B C3B 1_555 1_555
C5B H2B 1_555 1_555
C6B C4B 1_555 1_555
H3B C6B 1_555 1_555
H4B C6B 1_555 1_555
H5B C6B 1_555 1_555
N1B Ni1 1_555 1_555
N2B C4B 1_555 1_555
O1B C1B 1_555 1_555
O1B_2 Ni1 1_555 1_555
O2B Ni1 1_555 1_555
O3B C2B 1_555 1_555
Ni1_2 O1B 1_555 1_555
H6B O2B 1_555 1_555
H7B O2B 1_555 1_555
H8B N2B 1_555 1_555
C5 N1 1_555 1_555
C5 N2 1_555 1_555
O1 Ni1 1_555 1_555
C1B C2B 1_555 1_555
C3B N1B 1_555 1_555
C5B N1B 1_555 1_555
C5B N2B 1_555 1_555

#END
