
#######################################################################
#
#                 Cambridge Crystallographic Data Centre
#                                CCDC 
#
#######################################################################
#
# If this CIF has been generated from an entry in the Cambridge 
# Structural Database, then it will include bibliographic, chemical, 
# crystal, experimental, refinement or atomic coordinate data resulting 
# from the CCDC's data processing and validation procedures.
#
#######################################################################

data_DOFWUR
_symmetry_cell_setting           orthorhombic
_symmetry_space_group_name_H-M   'F d d 2'
_symmetry_Int_Tables_number      43
_space_group_name_Hall           'F 2 -2d'
loop_
_symmetry_equiv_pos_site_id
_symmetry_equiv_pos_as_xyz
1 x,y,z
2 -x,-y,z
3 1/4+x,1/4-y,1/4+z
4 1/4-x,1/4+y,1/4+z
5 x,1/2+y,1/2+z
6 -x,1/2-y,1/2+z
7 1/4+x,3/4-y,3/4+z
8 1/4-x,3/4+y,3/4+z
9 1/2+x,y,1/2+z
10 1/2-x,-y,1/2+z
11 3/4+x,1/4-y,3/4+z
12 3/4-x,1/4+y,3/4+z
13 1/2+x,1/2+y,z
14 1/2-x,1/2-y,z
15 3/4+x,3/4-y,1/4+z
16 3/4-x,3/4+y,1/4+z
_cell_length_a                   24.143(3)
_cell_length_b                   26.133(3)
_cell_length_c                   6.5855(7)
_cell_angle_alpha                90
_cell_angle_beta                 90
_cell_angle_gamma                90
_cell_volume                     4154.98
loop_
_atom_site_label
_atom_site_type_symbol
_atom_site_fract_x
_atom_site_fract_y
_atom_site_fract_z
Ba1 Ba 0.2500 0.2500 0.19373(7)
O1 O 0.31059(6) 0.23512(6) 0.5440(3)
O2 O 0.53708(6) 0.21729(6) 0.5016(3)
O3 O 0.45864(8) 0.35596(6) 0.4465(4)
O4 O 0.53246(7) 0.31984(6) 0.5535(4)
O5 O 0.51225(6) 0.11686(6) 0.4557(7)
O6 O 0.43507(8) 0.09200(6) 0.5708(4)
O7 O 0.35505(7) 0.21880(7) 0.0645(3)
H1 H 0.3835 0.2354 0.0821
H2 H 0.3613 0.1879 0.0469
O8 O 0.21882(6) 0.19620(5) -0.1597(2)
H3 H 0.2094 0.2172 -0.2486
H4 H 0.2425 0.1763 -0.2060
N1 N 0.36649(7) 0.23050(7) 0.5398(3)
N2 N 0.48369(7) 0.31817(7) 0.5026(3)
N3 N 0.46606(8) 0.12658(7) 0.5201(3)
C1 C 0.39864(8) 0.27272(8) 0.5261(3)
H7 H 0.3820 0.3048 0.5238
C2 C 0.45495(8) 0.26932(8) 0.5156(3)
C3 C 0.48582(9) 0.22125(8) 0.5136(3)
C4 C 0.44682(9) 0.17885(7) 0.5278(3)
C5 C 0.39002(8) 0.18425(8) 0.5420(4)
H8 H 0.3679 0.1553 0.5533
Ba1B Ba 0.5000 0.0000 0.44373(7)
Ba1C Ba 0.0000 0.5000 0.44373(7)
O1M O 0.18941(6) 0.26488(6) 0.5440(3)
O2M O -0.03708(6) 0.28271(6) 0.5016(3)
O3M O 0.04136(8) 0.14404(6) 0.4465(4)
O4M O -0.03246(7) 0.18016(6) 0.5535(4)
O5M O -0.01225(6) 0.38314(6) 0.4557(7)
O5J O 0.26225(6) 0.13314(6) 0.2057(7)
O5K O 0.23775(6) 0.36686(6) 0.2057(7)
O6M O 0.06493(8) 0.40800(6) 0.5708(4)
O6J O 0.18507(8) 0.15800(6) 0.3208(4)
O6K O 0.31493(8) 0.34200(6) 0.3208(4)
O7M O 0.14495(7) 0.28120(7) 0.0645(3)
H1M H 0.1165 0.2646 0.0821
H2M H 0.1387 0.3121 0.0469
O8M O 0.28118(6) 0.30380(5) -0.1597(2)
H3M H 0.2906 0.2828 -0.2486
H4M H 0.2575 0.3237 -0.2060
N1M N 0.13351(7) 0.26950(7) 0.5398(3)
N2M N 0.01631(7) 0.18183(7) 0.5026(3)
N3M N 0.03394(8) 0.37342(7) 0.5201(3)
C1M C 0.10136(8) 0.22728(8) 0.5261(3)
H7M H 0.1180 0.1952 0.5238
C2M C 0.04505(8) 0.23068(8) 0.5156(3)
C3M C 0.01418(9) 0.27875(8) 0.5136(3)
C4M C 0.05318(9) 0.32115(7) 0.5278(3)
C5M C 0.10998(8) 0.31575(8) 0.5420(4)
H8M H 0.1321 0.3447 0.5533
O9 O 0.62052(7) 0.13639(7) 0.3843(4)
H5 H 0.6491 0.1531 0.3648
H6 H 0.5977 0.1562 0.4359
loop_
_geom_bond_atom_site_label_1
_geom_bond_atom_site_label_2
_geom_bond_site_symmetry_1
_geom_bond_site_symmetry_2
Ba1 O1 1_555 1_555
O1 N1 1_555 1_555
O2 C3 1_555 1_555
O3 N2 1_555 1_555
O4 N2 1_555 1_555
O5 N3 1_555 1_555
O6 N3 1_555 1_555
O7 Ba1 1_555 1_555
H1 O7 1_555 1_555
H2 O7 1_555 1_555
O8 Ba1 1_555 1_555
H3 O8 1_555 1_555
H4 O8 1_555 1_555
O9 H5 1_555 1_555
H6 O9 1_555 1_555
N1 C1 1_555 1_555
N2 C2 1_555 1_555
N3 C4 1_555 1_555
C1 H7 1_555 1_555
C2 C1 1_555 1_555
C3 C2 1_555 1_555
C4 C3 1_555 1_555
C5 N1 1_555 1_555
H8 C5 1_555 1_555
Ba1B O5 1_555 1_555
Ba1C O5M 1_555 1_555
O1M Ba1 1_555 1_555
O2M C3M 1_555 1_555
O3M N2M 1_555 1_555
O4M N2M 1_555 1_555
O5M N3M 1_555 1_555
O5J Ba1 1_555 1_555
O5K Ba1 1_555 1_555
O6M Ba1C 1_555 1_555
O6J Ba1 1_555 1_555
O6K Ba1 1_555 1_555
O7M Ba1 1_555 1_555
H1M O7M 1_555 1_555
H2M O7M 1_555 1_555
O8M Ba1 1_555 1_555
H3M O8M 1_555 1_555
H4M O8M 1_555 1_555
N1M O1M 1_555 1_555
N2M C2M 1_555 1_555
N3M O6M 1_555 1_555
C1M N1M 1_555 1_555
H7M C1M 1_555 1_555
C2M C1M 1_555 1_555
C3M C2M 1_555 1_555
C4M N3M 1_555 1_555
C5M N1M 1_555 1_555
H8M C5M 1_555 1_555
O6 Ba1B 1_555 1_555
C4 C5 1_555 1_555
C3M C4M 1_555 1_555
C4M C5M 1_555 1_555

#END
