
#######################################################################
#
#                 Cambridge Crystallographic Data Centre
#                                CCDC 
#
#######################################################################
#
# If this CIF has been generated from an entry in the Cambridge 
# Structural Database, then it will include bibliographic, chemical, 
# crystal, experimental, refinement or atomic coordinate data resulting 
# from the CCDC's data processing and validation procedures.
#
#######################################################################

data_DOFZOO
_symmetry_cell_setting           monoclinic
_symmetry_space_group_name_H-M   'P 21/c'
_symmetry_Int_Tables_number      14
_space_group_name_Hall           '-P 2ybc'
loop_
_symmetry_equiv_pos_site_id
_symmetry_equiv_pos_as_xyz
1 x,y,z
2 -x,1/2+y,1/2-z
3 -x,-y,-z
4 x,1/2-y,1/2+z
_cell_length_a                   8.9669(7)
_cell_length_b                   7.3670(5)
_cell_length_c                   12.7577(9)
_cell_angle_alpha                90
_cell_angle_beta                 101.433(2)
_cell_angle_gamma                90
_cell_volume                     826.04
loop_
_atom_site_label
_atom_site_type_symbol
_atom_site_fract_x
_atom_site_fract_y
_atom_site_fract_z
Co1 Co 0.12716(2) 0.26016(3) 0.143675(14)
P1 P 0.10475(4) 0.38773(5) 0.38877(3)
O1 O 0.16103(15) 0.28262(16) 0.30298(9)
O2 O -0.08135(14) 0.41584(16) 0.12546(9)
H1 H -0.0914 0.4544 0.1840
O3 O 0.35060(15) 0.13122(17) 0.16710(10)
H2 H 0.4158 0.2087 0.1658
N1 N 0.24704(16) 0.66848(19) 0.52362(11)
C1 C 0.26263(19) 0.5417(2) 0.43645(13)
H3 H 0.3497 0.5407 0.4071
C2 C 0.3894(2) 0.7715(2) 0.56506(17)
H4 H 0.4401 0.7976 0.5063
H5 H 0.4570 0.6967 0.6163
O4 O -0.03815(14) 0.49823(16) 0.34665(9)
O5 O 0.08462(16) 0.26500(16) 0.48054(9)
C3 C 0.35991(18) 0.9482(2) 0.61835(13)
O6 O 0.22489(14) 0.98643(17) 0.61983(10)
O7 O 0.47581(16) 1.04368(19) 0.65224(13)
H6 H 0.370(3) 0.091(4) 0.221(2)
H7 H -0.081(3) 0.513(4) 0.089(2)
H8 H 0.355(4) 0.455(5) 0.481(3)
H9 H 0.178(3) 0.750(4) 0.495(2)
H10 H 0.212(3) 0.618(4) 0.576(2)
Co1A Co -0.12716(2) 0.76016(3) 0.356325(14)
Co1C Co 0.12716(2) 0.23984(3) 0.643675(14)
Co1C_2 Co 0.12716(2) 1.23984(3) 0.643675(14)
O4A O 0.03815(14) -0.00177(16) 0.15335(9)
O5C O 0.08462(16) 0.23500(16) -0.01946(9)
O6C O 0.22489(14) 0.51357(17) 0.11983(10)
loop_
_geom_bond_atom_site_label_1
_geom_bond_atom_site_label_2
_geom_bond_site_symmetry_1
_geom_bond_site_symmetry_2
Co1 O1 1_555 1_555
P1 O1 1_555 1_555
O2 Co1 1_555 1_555
H1 O2 1_555 1_555
O3 Co1 1_555 1_555
H2 O3 1_555 1_555
N1 C1 1_555 1_555
C1 P1 1_555 1_555
H3 C1 1_555 1_555
C2 N1 1_555 1_555
H4 C2 1_555 1_555
H5 C2 1_555 1_555
O4 P1 1_555 1_555
O5 P1 1_555 1_555
C3 C2 1_555 1_555
O6 C3 1_555 1_555
O7 C3 1_555 1_555
H6 O3 1_555 1_555
H7 O2 1_555 1_555
H8 C1 1_555 1_555
H9 N1 1_555 1_555
H10 N1 1_555 1_555
Co1A O4 1_555 1_555
Co1C O5 1_555 1_555
Co1C_2 O6 1_555 1_555
O4A Co1 1_555 1_555
O5C Co1 1_555 1_555
O6C Co1 1_555 1_555

#END
