
#######################################################################
#
#                 Cambridge Crystallographic Data Centre
#                                CCDC 
#
#######################################################################
#
# If this CIF has been generated from an entry in the Cambridge 
# Structural Database, then it will include bibliographic, chemical, 
# crystal, experimental, refinement or atomic coordinate data resulting 
# from the CCDC's data processing and validation procedures.
#
#######################################################################

data_DOGHUD
_symmetry_cell_setting           triclinic
_symmetry_space_group_name_H-M   'P -1'
_symmetry_Int_Tables_number      2
_space_group_name_Hall           '-P 1'
loop_
_symmetry_equiv_pos_site_id
_symmetry_equiv_pos_as_xyz
1 x,y,z
2 -x,-y,-z
_cell_length_a                   10.382(2)
_cell_length_b                   12.958(3)
_cell_length_c                   15.276(3)
_cell_angle_alpha                105.77(3)
_cell_angle_beta                 107.50(3)
_cell_angle_gamma                101.88(3)
_cell_volume                     1791.21
loop_
_atom_site_label
_atom_site_type_symbol
_atom_site_fract_x
_atom_site_fract_y
_atom_site_fract_z
Zn1 Zn 0.77602(3) 0.89923(2) 0.537040(18)
Zn2 Zn 0.5000 0.0000 0.5000
S1 S 0.19382(7) -0.42250(5) -0.03150(5)
S2 S 0.29847(7) -0.08204(5) 0.97884(4)
S3 S 0.96897(6) 0.69991(5) 0.75209(4)
N1 N 0.4066(2) -0.53968(18) -0.14884(16)
N2 N 0.92646(19) 0.81739(15) 0.52889(14)
N3 N 0.2108(2) 0.17393(18) 1.03743(15)
O1 O 0.32808(16) 0.00955(12) 0.38393(11)
O2 O 0.09612(17) -0.04226(13) 0.32649(11)
O3 O 0.23252(16) 0.05800(13) 0.57668(11)
O4 O 0.38420(15) 0.24237(12) 0.49846(11)
O5 O 0.36784(16) -0.05523(12) 0.56378(11)
O6 O 0.53506(16) 0.16694(12) 0.57897(10)
C1 C 0.2080(2) -0.05629(18) 0.31798(16)
C2 C 0.2052(2) -0.14536(18) 0.23134(16)
C3 C 0.0781(2) -0.22563(19) 0.16192(17)
H1 H -0.0075 -0.2238 0.1689
C4 C 0.0790(3) -0.3082(2) 0.08261(17)
H2 H -0.0062 -0.3618 0.0368
C5 C 0.2061(3) -0.31161(19) 0.07083(16)
C6 C 0.3330(2) -0.23033(18) 0.13908(16)
H3 H 0.4184 -0.2313 0.1316
C7 C 0.3315(2) -0.14782(18) 0.21839(16)
H4 H 0.4164 -0.0933 0.2636
C8 C 0.3674(3) -0.3856(2) -0.03951(18)
H5 H 0.4008 -0.3056 -0.0280
H6 H 0.4357 -0.4023 0.0094
C9 C 0.3513(3) -0.4549(2) -0.14189(18)
C10 C 0.2831(3) -0.4285(2) -0.22164(18)
H7 H 0.2441 -0.3698 -0.2136
C11 C 0.2741(3) -0.4914(2) -0.31395(19)
H8 H 0.2305 -0.4747 -0.3688
C12 C 0.3310(3) -0.5790(2) -0.32286(19)
H9 H 0.3268 -0.6227 -0.3837
C13 C 0.3939(3) -0.6001(2) -0.23967(19)
H10 H 0.4303 -0.6604 -0.2465
C14 C 0.9671(2) 0.75829(18) 0.58695(16)
C15 C 1.0450(2) 0.68735(19) 0.56666(18)
H11 H 1.0683 0.6445 0.6054
C16 C 1.0884(3) 0.6798(2) 0.48862(19)
H12 H 1.1408 0.6320 0.4743
C17 C 1.0527(3) 0.7442(2) 0.43230(19)
H13 H 1.0834 0.7428 0.3808
C18 C 0.9706(2) 0.81088(19) 0.45395(18)
H14 H 0.9447 0.8531 0.4151
C19 C 0.2993(2) -0.00636(18) 0.60581(16)
C20 C 0.2942(2) -0.02298(18) 0.69765(16)
C21 C 0.2308(2) 0.0356(2) 0.75293(17)
H15 H 0.1879 0.0852 0.7315
C22 C 0.2297(2) 0.0218(2) 0.83963(17)
H16 H 0.1878 0.0627 0.8763
C23 C 0.2921(2) -0.05378(19) 0.87150(16)
C24 C 0.3575(3) -0.11206(19) 0.81645(17)
H17 H 0.4009 -0.1615 0.8379
C25 C 0.3587(2) -0.09719(19) 0.73078(17)
H18 H 0.4025 -0.1367 0.6948
C26 C 0.1686(3) -0.0250(2) 1.01559(17)
H19 H 0.0902 -0.0340 0.9571
H20 H 0.1310 -0.0682 1.0503
C27 C 0.2302(2) 0.0986(2) 1.08092(17)
C28 C 0.3059(3) 0.1307(2) 1.18112(18)
H21 H 0.3151 0.0763 1.2096
C29 C 0.3673(3) 0.2440(2) 1.23805(19)
H22 H 0.4182 0.2670 1.3053
C30 C 0.3520(3) 0.3223(2) 1.1936(2)
H23 H 0.3940 0.3992 1.2296
C31 C 0.2721(3) 0.2834(2) 1.0936(2)
H24 H 0.2604 0.3364 1.0639
C32 C 0.5060(2) 0.24675(18) 0.55468(15)
C33 C 0.6223(2) 0.35795(18) 0.59857(16)
C34 C 0.7344(2) 0.38361(18) 0.68689(16)
H25 H 0.7387 0.3304 0.7171
C35 C 0.8395(2) 0.48702(18) 0.73015(17)
H26 H 0.9135 0.5030 0.7893
C36 C 0.8351(2) 0.56789(18) 0.68555(16)
C37 C 0.7257(2) 0.54125(18) 0.59538(16)
H27 H 0.7238 0.5930 0.5635
C38 C 0.6196(2) 0.43772(18) 0.55332(16)
H28 H 0.5457 0.4214 0.4940
C39 C 0.9252(2) 0.78090(18) 0.67538(16)
H29 H 0.8232 0.7672 0.6523
H30 H 0.9703 0.8603 0.7157
Zn1A Zn 0.22398(3) -0.89923(2) 0.462960(18)
Zn1A_2 Zn 0.22398(3) 0.10077(2) 0.462960(18)
Zn1_2 Zn 0.77602(3) -0.10077(2) 0.537040(18)
S1A S 0.80618(7) 0.42250(5) 1.03150(5)
S2A S 0.70153(7) 0.08204(5) 0.02116(4)
S3A S 0.03103(6) -0.69991(5) 0.24791(4)
N1A N 0.5934(2) 0.53968(18) 1.14884(16)
N2A N 0.07354(19) -0.81739(15) 0.47111(14)
N3A N 0.7892(2) -0.17393(18) -0.03743(15)
O1A O 0.67192(16) -0.00955(12) 0.61607(11)
O1A_2 O 0.67192(16) 0.99045(12) 0.61607(11)
O1_2 O 0.32808(16) -0.99045(12) 0.38393(11)
O2A O 0.90388(17) 0.04226(13) 0.67351(11)
O2A_2 O 0.90388(17) 1.04226(13) 0.67351(11)
O2_2 O 0.09612(17) -1.04226(13) 0.32649(11)
O3A O 0.76748(16) -0.05800(13) 0.42332(11)
O3A_2 O 0.76748(16) 0.94200(13) 0.42332(11)
O3_2 O 0.23252(16) -0.94200(13) 0.57668(11)
O4A O 0.61580(15) -0.24237(12) 0.50154(11)
O4A_2 O 0.61580(15) 0.75763(12) 0.50154(11)
O4_2 O 0.38420(15) -0.75763(12) 0.49846(11)
O5A O 0.63216(16) 0.05523(12) 0.43622(11)
O6A O 0.46494(16) -0.16694(12) 0.42103(10)
C1A C 0.7920(2) 0.05629(18) 0.68202(16)
C2A C 0.7948(2) 0.14536(18) 0.76866(16)
C3A C 0.9219(2) 0.22563(19) 0.83808(17)
H1A H 1.0075 0.2238 0.8311
C4A C 0.9210(3) 0.3082(2) 0.91739(17)
H2A H 1.0062 0.3618 0.9632
C5A C 0.7939(3) 0.31161(19) 0.92917(16)
C6A C 0.6670(2) 0.23033(18) 0.86092(16)
H3A H 0.5816 0.2313 0.8684
C7A C 0.6685(2) 0.14782(18) 0.78161(16)
H4A H 0.5836 0.0933 0.7364
C8A C 0.6326(3) 0.3856(2) 1.03951(18)
H5A H 0.5992 0.3056 1.0280
H6A H 0.5643 0.4023 0.9906
C9A C 0.6487(3) 0.4549(2) 1.14189(18)
C10A C 0.7169(3) 0.4285(2) 1.22164(18)
H7A H 0.7559 0.3698 1.2136
C11A C 0.7259(3) 0.4914(2) 1.31395(19)
H8A H 0.7695 0.4747 1.3688
C12A C 0.6690(3) 0.5790(2) 1.32286(19)
H9A H 0.6732 0.6227 1.3837
C13A C 0.6061(3) 0.6001(2) 1.23967(19)
H10A H 0.5697 0.6604 1.2465
C14A C 0.0329(2) -0.75829(18) 0.41305(16)
C15A C -0.0450(2) -0.68735(19) 0.43334(18)
H11A H -0.0683 -0.6445 0.3946
C16A C -0.0884(3) -0.6798(2) 0.51138(19)
H12A H -0.1408 -0.6320 0.5257
C17A C -0.0527(3) -0.7442(2) 0.56770(19)
H13A H -0.0834 -0.7428 0.6192
C18A C 0.0294(2) -0.81088(19) 0.54605(18)
H14A H 0.0553 -0.8531 0.5849
C19A C 0.7007(2) 0.00636(18) 0.39419(16)
C20A C 0.7058(2) 0.02298(18) 0.30235(16)
C21A C 0.7692(2) -0.0356(2) 0.24707(17)
H15A H 0.8121 -0.0852 0.2685
C22A C 0.7703(2) -0.0218(2) 0.16037(17)
H16A H 0.8122 -0.0627 0.1237
C23A C 0.7079(2) 0.05378(19) 0.12850(16)
C24A C 0.6425(3) 0.11206(19) 0.18355(17)
H17A H 0.5991 0.1615 0.1621
C25A C 0.6413(2) 0.09719(19) 0.26922(17)
H18A H 0.5975 0.1367 0.3052
C26A C 0.8314(3) 0.0250(2) -0.01559(17)
H19A H 0.9098 0.0340 0.0429
H20A H 0.8690 0.0682 -0.0503
C27A C 0.7698(2) -0.0986(2) -0.08092(17)
C28A C 0.6941(3) -0.1307(2) -0.18112(18)
H21A H 0.6849 -0.0763 -0.2096
C29A C 0.6327(3) -0.2440(2) -0.23805(19)
H22A H 0.5818 -0.2670 -0.3053
C30A C 0.6480(3) -0.3223(2) -0.1936(2)
H23A H 0.6060 -0.3992 -0.2296
C31A C 0.7279(3) -0.2834(2) -0.0936(2)
H24A H 0.7396 -0.3364 -0.0639
C32A C 0.4940(2) -0.24675(18) 0.44532(15)
C33A C 0.3777(2) -0.35795(18) 0.40143(16)
C34A C 0.2656(2) -0.38361(18) 0.31311(16)
H25A H 0.2613 -0.3304 0.2829
C35A C 0.1605(2) -0.48702(18) 0.26985(17)
H26A H 0.0865 -0.5030 0.2107
C36A C 0.1649(2) -0.56789(18) 0.31445(16)
C37A C 0.2743(2) -0.54125(18) 0.40462(16)
H27A H 0.2762 -0.5930 0.4365
C38A C 0.3804(2) -0.43772(18) 0.44668(16)
H28A H 0.4543 -0.4214 0.5060
C39A C 0.0748(2) -0.78090(18) 0.32462(16)
H29A H 0.1768 -0.7672 0.3477
H30A H 0.0297 -0.8603 0.2843
loop_
_geom_bond_atom_site_label_1
_geom_bond_atom_site_label_2
_geom_bond_site_symmetry_1
_geom_bond_site_symmetry_2
Zn1 N2 1_555 1_555
Zn2 O1 1_555 1_555
S1 C5 1_555 1_555
S2 C23 1_555 1_555
S3 C36 1_555 1_555
N1 C9 1_555 1_555
N2 C14 1_555 1_555
N3 C27 1_555 1_555
O1 C1 1_555 1_555
O2 C1 1_555 1_555
O3 C19 1_555 1_555
O4 C32 1_555 1_555
O5 Zn2 1_555 1_555
O6 Zn2 1_555 1_555
C1 C2 1_555 1_555
C2 C3 1_555 1_555
C3 H1 1_555 1_555
C4 C3 1_555 1_555
H2 C4 1_555 1_555
C5 C4 1_555 1_555
C6 C5 1_555 1_555
H3 C6 1_555 1_555
C7 C2 1_555 1_555
H4 C7 1_555 1_555
C8 S1 1_555 1_555
H5 C8 1_555 1_555
H6 C8 1_555 1_555
C9 C8 1_555 1_555
C10 C9 1_555 1_555
H7 C10 1_555 1_555
C11 C10 1_555 1_555
H8 C11 1_555 1_555
C12 C11 1_555 1_555
H9 C12 1_555 1_555
C13 N1 1_555 1_555
H10 C13 1_555 1_555
C14 C15 1_555 1_555
C15 H11 1_555 1_555
C16 C15 1_555 1_555
H12 C16 1_555 1_555
C17 C16 1_555 1_555
H13 C17 1_555 1_555
C18 N2 1_555 1_555
H14 C18 1_555 1_555
C19 O5 1_555 1_555
C20 C19 1_555 1_555
C21 C20 1_555 1_555
H15 C21 1_555 1_555
C22 C21 1_555 1_555
H16 C22 1_555 1_555
C23 C22 1_555 1_555
C24 C23 1_555 1_555
H17 C24 1_555 1_555
C25 C20 1_555 1_555
H18 C25 1_555 1_555
C26 S2 1_555 1_555
H19 C26 1_555 1_555
H20 C26 1_555 1_555
C27 C26 1_555 1_555
C28 C27 1_555 1_555
H21 C28 1_555 1_555
C29 C28 1_555 1_555
H22 C29 1_555 1_555
C30 C29 1_555 1_555
H23 C30 1_555 1_555
C31 N3 1_555 1_555
H24 C31 1_555 1_555
C32 O6 1_555 1_555
C33 C32 1_555 1_555
C34 C33 1_555 1_555
H25 C34 1_555 1_555
C35 C34 1_555 1_555
H26 C35 1_555 1_555
C36 C35 1_555 1_555
C37 C36 1_555 1_555
H27 C37 1_555 1_555
C38 C33 1_555 1_555
H28 C38 1_555 1_555
C39 S3 1_555 1_555
H29 C39 1_555 1_555
H30 C39 1_555 1_555
Zn1A N2A 1_555 1_555
Zn1A_2 O1 1_555 1_555
Zn1_2 O1A 1_555 1_555
S1A C5A 1_555 1_555
S2A C23A 1_555 1_555
S3A C36A 1_555 1_555
N1A C9A 1_555 1_555
N2A C14A 1_555 1_555
N3A C27A 1_555 1_555
O1A Zn2 1_555 1_555
O1A_2 Zn1 1_555 1_555
O1_2 Zn1A 1_555 1_555
O2A Zn1_2 1_555 1_555
O2A_2 Zn1 1_555 1_555
O2_2 Zn1A 1_555 1_555
O3A Zn1_2 1_555 1_555
O3A_2 Zn1 1_555 1_555
O3_2 Zn1A 1_555 1_555
O4A Zn1_2 1_555 1_555
O4A_2 Zn1 1_555 1_555
O4_2 Zn1A 1_555 1_555
O5A Zn2 1_555 1_555
O6A Zn2 1_555 1_555
C1A O1A 1_555 1_555
C2A C1A 1_555 1_555
C3A C2A 1_555 1_555
H1A C3A 1_555 1_555
C4A C3A 1_555 1_555
H2A C4A 1_555 1_555
C5A C4A 1_555 1_555
C6A C5A 1_555 1_555
H3A C6A 1_555 1_555
C7A C2A 1_555 1_555
H4A C7A 1_555 1_555
C8A S1A 1_555 1_555
H5A C8A 1_555 1_555
H6A C8A 1_555 1_555
C9A C8A 1_555 1_555
C10A C9A 1_555 1_555
H7A C10A 1_555 1_555
C11A C10A 1_555 1_555
H8A C11A 1_555 1_555
C12A C11A 1_555 1_555
H9A C12A 1_555 1_555
C13A N1A 1_555 1_555
H10A C13A 1_555 1_555
C14A C15A 1_555 1_555
C15A H11A 1_555 1_555
C16A C15A 1_555 1_555
H12A C16A 1_555 1_555
C17A C16A 1_555 1_555
H13A C17A 1_555 1_555
C18A N2A 1_555 1_555
H14A C18A 1_555 1_555
C19A O3A 1_555 1_555
C20A C19A 1_555 1_555
C21A C20A 1_555 1_555
H15A C21A 1_555 1_555
C22A C21A 1_555 1_555
H16A C22A 1_555 1_555
C23A C22A 1_555 1_555
C24A C23A 1_555 1_555
H17A C24A 1_555 1_555
C25A C20A 1_555 1_555
H18A C25A 1_555 1_555
C26A S2A 1_555 1_555
H19A C26A 1_555 1_555
H20A C26A 1_555 1_555
C27A C26A 1_555 1_555
C28A C27A 1_555 1_555
H21A C28A 1_555 1_555
C29A C28A 1_555 1_555
H22A C29A 1_555 1_555
C30A C29A 1_555 1_555
H23A C30A 1_555 1_555
C31A N3A 1_555 1_555
H24A C31A 1_555 1_555
C32A O4A 1_555 1_555
C33A C32A 1_555 1_555
C34A C33A 1_555 1_555
H25A C34A 1_555 1_555
C35A C34A 1_555 1_555
H26A C35A 1_555 1_555
C36A C35A 1_555 1_555
C37A C36A 1_555 1_555
H27A C37A 1_555 1_555
C38A C33A 1_555 1_555
H28A C38A 1_555 1_555
C39A S3A 1_555 1_555
H29A C39A 1_555 1_555
H30A C39A 1_555 1_555
O2 Zn1A_2 1_555 1_555
O3 Zn1A_2 1_555 1_555
O4 Zn1A_2 1_555 1_555
C6 C7 1_555 1_555
C12 C13 1_555 1_555
C14 C39 1_555 1_555
C17 C18 1_555 1_555
C24 C25 1_555 1_555
C30 C31 1_555 1_555
C37 C38 1_555 1_555
O2A C1A 1_555 1_555
O5A C19A 1_555 1_555
O6A C32A 1_555 1_555
C6A C7A 1_555 1_555
C12A C13A 1_555 1_555
C14A C39A 1_555 1_555
C17A C18A 1_555 1_555
C24A C25A 1_555 1_555
C30A C31A 1_555 1_555
C37A C38A 1_555 1_555

#END
