
#######################################################################
#
#                 Cambridge Crystallographic Data Centre
#                                CCDC 
#
#######################################################################
#
# If this CIF has been generated from an entry in the Cambridge 
# Structural Database, then it will include bibliographic, chemical, 
# crystal, experimental, refinement or atomic coordinate data resulting 
# from the CCDC's data processing and validation procedures.
#
#######################################################################

data_DOGHOX
_symmetry_cell_setting           monoclinic
_symmetry_space_group_name_H-M   'P 21/n'
_symmetry_Int_Tables_number      14
_space_group_name_Hall           '-P 2yn'
loop_
_symmetry_equiv_pos_site_id
_symmetry_equiv_pos_as_xyz
1 x,y,z
2 1/2-x,1/2+y,1/2-z
3 -x,-y,-z
4 1/2+x,1/2-y,1/2+z
_cell_length_a                   9.3416(19)
_cell_length_b                   20.947(4)
_cell_length_c                   12.521(3)
_cell_angle_alpha                90
_cell_angle_beta                 98.04(3)
_cell_angle_gamma                90
_cell_volume                     2426.01
loop_
_atom_site_label
_atom_site_type_symbol
_atom_site_fract_x
_atom_site_fract_y
_atom_site_fract_z
Zn1 Zn 0.73375(5) 0.13638(2) 0.94069(4)
C1 C 2.0096(5) 0.2715(2) 1.4291(4)
C2 C 1.8586(5) 0.2516(2) 1.3873(3)
C3 C 1.8045(6) 0.1931(2) 1.4168(5)
H1 H 1.8645 0.1648 1.4592
C4 C 1.6620(6) 0.1773(3) 1.3832(5)
H2 H 1.6272 0.1382 1.4039
C5 C 1.5703(5) 0.2175(2) 1.3202(4)
C6 C 1.6234(5) 0.2754(2) 1.2918(4)
H3 H 1.5632 0.3038 1.2497
C7 C 1.7653(5) 0.2914(2) 1.3256(4)
H4 H 1.7990 0.3309 1.3058
C8 C 1.3140(5) 0.2485(2) 1.1878(4)
H5 H 1.3809 0.2551 1.1362
H6 H 1.2973 0.2893 1.2206
C9 C 0.7806(6) 0.0283(3) 1.0983(5)
H7 H 0.8695 0.0259 1.0731
C10 C 0.7541(6) -0.0128(3) 1.1789(4)
H8 H 0.8250 -0.0417 1.2073
C11 C 0.6239(5) -0.0115(2) 1.2176(4)
C12 C 0.5269(6) 0.0329(3) 1.1727(5)
H9 H 0.4372 0.0361 1.1964
C13 C 0.5603(6) 0.0730(3) 1.0930(5)
H10 H 0.4915 0.1028 1.0645
C14 C 0.5842(6) -0.0580(2) 1.3002(4)
H11 H 0.5203 -0.0897 1.2628
H12 H 0.5292 -0.0350 1.3480
C15 C 1.0401(5) 0.1443(2) 1.0206(4)
H13 H 1.0395 0.1061 0.9829
C16 C 1.1678(5) 0.1656(2) 1.0759(4)
H14 H 1.2513 0.1414 1.0761
C17 C 1.1741(5) 0.2226(2) 1.1314(4)
C18 C 1.0456(5) 0.2546(2) 1.1300(4)
H15 H 1.0436 0.2926 1.1681
C19 C 0.9194(5) 0.2313(2) 1.0730(4)
H16 H 0.8344 0.2545 1.0724
C20 C 0.8324(5) 0.0500(2) 1.7977(4)
C21 C 0.8205(5) 0.0177(2) 1.6904(3)
C22 C 0.7569(6) 0.0466(2) 1.5970(4)
H17 H 0.7305 0.0893 1.5985
C23 C 0.7313(7) 0.0134(2) 1.5009(4)
H18 H 0.6891 0.0340 1.4386
C24 C 0.7679(5) -0.0501(2) 1.4968(4)
C25 C 0.8390(6) -0.0789(2) 1.5892(4)
H19 H 0.8696 -0.1211 1.5867
C26 C 0.8642(5) -0.0455(2) 1.6843(4)
H20 H 0.9113 -0.0655 1.7457
N1 N 0.6855(4) 0.07151(18) 1.0544(3)
N2 N 0.9159(4) 0.17644(18) 1.0187(3)
O1 O 2.0500(4) 0.32435(17) 1.3929(3)
O2 O 2.0843(4) 0.2401(2) 1.4972(4)
O3 O 0.7668(4) 0.10393(15) 1.8000(2)
O4 O 0.8995(4) 0.02484(18) 1.8777(3)
S1 S 1.38946(14) 0.19322(7) 1.28952(12)
S2 S 0.72909(18) -0.09945(6) 1.38234(10)
Zn1C Zn 2.23375(5) 0.36362(2) 1.44069(4)
Zn1_2 Zn 0.73375(5) 0.13638(2) 1.94069(4)
O1C O 0.5500(4) 0.17565(17) 0.8929(3)
O3_2 O 0.7668(4) 0.10393(15) 0.8000(2)
loop_
_geom_bond_atom_site_label_1
_geom_bond_atom_site_label_2
_geom_bond_site_symmetry_1
_geom_bond_site_symmetry_2
Zn1 N1 1_555 1_555
C1 C2 1_555 1_555
C2 C3 1_555 1_555
C3 H1 1_555 1_555
C4 C3 1_555 1_555
H2 C4 1_555 1_555
C5 C4 1_555 1_555
C6 C5 1_555 1_555
H3 C6 1_555 1_555
C7 C2 1_555 1_555
H4 C7 1_555 1_555
C8 H5 1_555 1_555
H6 C8 1_555 1_555
C9 H7 1_555 1_555
C10 C9 1_555 1_555
H8 C10 1_555 1_555
C11 C10 1_555 1_555
C12 C11 1_555 1_555
H9 C12 1_555 1_555
C13 C12 1_555 1_555
H10 C13 1_555 1_555
C14 C11 1_555 1_555
H11 C14 1_555 1_555
H12 C14 1_555 1_555
C15 H13 1_555 1_555
C16 C15 1_555 1_555
H14 C16 1_555 1_555
C17 C8 1_555 1_555
C18 C17 1_555 1_555
H15 C18 1_555 1_555
C19 C18 1_555 1_555
H16 C19 1_555 1_555
C20 C21 1_555 1_555
C21 C22 1_555 1_555
C22 H17 1_555 1_555
C23 C22 1_555 1_555
H18 C23 1_555 1_555
C24 C23 1_555 1_555
C25 C24 1_555 1_555
H19 C25 1_555 1_555
C26 C21 1_555 1_555
H20 C26 1_555 1_555
N1 C9 1_555 1_555
N2 Zn1 1_555 1_555
O1 C1 1_555 1_555
O2 C1 1_555 1_555
O3 C20 1_555 1_555
O4 C20 1_555 1_555
S1 C5 1_555 1_555
S2 C14 1_555 1_555
Zn1C O1 1_555 1_555
Zn1_2 O3 1_555 1_555
O1C Zn1 1_555 1_555
O3_2 Zn1 1_555 1_555
C6 C7 1_555 1_555
C8 S1 1_555 1_555
C13 N1 1_555 1_555
C15 N2 1_555 1_555
C16 C17 1_555 1_555
C19 N2 1_555 1_555
C24 S2 1_555 1_555
C25 C26 1_555 1_555

#END
