
#######################################################################
#
#                 Cambridge Crystallographic Data Centre
#                                CCDC 
#
#######################################################################
#
# If this CIF has been generated from an entry in the Cambridge 
# Structural Database, then it will include bibliographic, chemical, 
# crystal, experimental, refinement or atomic coordinate data resulting 
# from the CCDC's data processing and validation procedures.
#
#######################################################################

data_DOGJOY
_symmetry_cell_setting           orthorhombic
_symmetry_space_group_name_H-M   'I m a 2'
_symmetry_Int_Tables_number      46
_space_group_name_Hall           'I 2 -2a'
loop_
_symmetry_equiv_pos_site_id
_symmetry_equiv_pos_as_xyz
1 x,y,z
2 1/2+x,1/2+y,1/2+z
3 1/2-x,y,z
4 -x,1/2+y,1/2+z
5 1/2+x,-y,z
6 x,1/2-y,1/2+z
7 -x,-y,z
8 1/2-x,1/2-y,1/2+z
_cell_length_a                   17.872(7)
_cell_length_b                   11.305(2)
_cell_length_c                   12.931(4)
_cell_angle_alpha                90
_cell_angle_beta                 90
_cell_angle_gamma                90
_cell_volume                     2612.62
loop_
_atom_site_label
_atom_site_type_symbol
_atom_site_fract_x
_atom_site_fract_y
_atom_site_fract_z
N6 N 0.2500 0.6582(8) 0.6115(8)
C10 C 0.2500 0.5748(8) 0.5594(7)
C11 C 0.2500 0.4751(8) 0.4968(10)
Cu1 Cu 0.5000 -0.5000 0.5000
N1 N 0.5083(4) 0.1626(5) 0.5181(6)
C1 C 0.5121(5) 0.0508(7) 0.4625(6)
C2 C 0.5584(2) -0.2242(3) 0.4850(4)
N2 N 0.5838(2) -0.2858(3) 0.5770(3)
N3 N 0.5614(2) -0.3977(3) 0.5977(3)
C3 C 0.5946(3) -0.4243(6) 0.6896(4)
C4 C 0.6376(3) -0.3295(5) 0.7225(5)
C5 C 0.6303(3) -0.2435(5) 0.6524(4)
C6 C 0.4242(2) -0.2338(3) 0.5088(5)
N4 N 0.4033(2) -0.2999(3) 0.4171(3)
N5 N 0.4333(2) -0.4086(3) 0.4009(3)
C7 C 0.4057(3) -0.4450(4) 0.3123(4)
C8 C 0.3573(3) -0.3591(4) 0.2702(4)
C9 C 0.3591(3) -0.2697(5) 0.3388(5)
H1 H 0.4807 0.0567 0.3991
H2 H 0.5617 0.0356 0.4386
H3 H 0.5945 -0.1700 0.4618
H4 H 0.5467 -0.2803 0.4327
H5 H 0.5889 -0.4981 0.7240
H6 H 0.6679 -0.3302 0.7832
H7 H 0.6510 -0.1673 0.6578
H8 H 0.3831 -0.1834 0.5368
H9 H 0.4275 -0.2900 0.5654
H10 H 0.4160 -0.5177 0.2797
H11 H 0.3326 -0.3585 0.2058
H12 H 0.3310 -0.1980 0.3357
C1F C 0.4879(5) -0.0508(7) 0.4625(6)
N1F N 0.4917(4) -0.1626(5) 0.5181(6)
C2F C 0.4416(2) 0.2242(3) 0.4850(4)
N3F N 0.4386(2) -0.6023(3) 0.5977(3)
C6F C 0.5758(2) 0.2338(3) 0.5088(5)
H8F H 0.6169 0.1834 0.5368
H9F H 0.5725 0.2900 0.5654
N5F N 0.5667(2) -0.5914(3) 0.4009(3)
N4F N 0.5967(2) -0.7001(3) 0.4171(3)
C6F_2 C 0.5758(2) -0.7662(3) 0.5088(5)
N1_2 N 0.5083(4) -0.8374(5) 0.5181(6)
C2F_2 C 0.4416(2) -0.7758(3) 0.4850(4)
H8F_2 H 0.6169 -0.8166 0.5368
H9F_2 H 0.5725 -0.7100 0.5654
C9F C 0.6409(3) -0.7303(5) 0.3388(5)
C8F C 0.6427(3) -0.6409(4) 0.2702(4)
C7F C 0.5943(3) -0.5550(4) 0.3123(4)
H10F H 0.5840 -0.4823 0.2797
H11F H 0.6674 -0.6415 0.2058
H12F H 0.6690 -0.8020 0.3357
H3F H 0.4055 0.1700 0.4618
H4F H 0.4533 0.2803 0.4327
H1F H 0.5193 -0.0567 0.3991
H2F H 0.4383 -0.0356 0.4386
N2F N 0.4162(2) -0.7142(3) 0.5770(3)
C3F C 0.4054(3) -0.5757(6) 0.6896(4)
H3F_2 H 0.4055 -0.8300 0.4618
H4F_2 H 0.4533 -0.7197 0.4327
C5F C 0.3697(3) -0.7565(5) 0.6524(4)
C4F C 0.3624(3) -0.6705(5) 0.7225(5)
H5F H 0.4111 -0.5019 0.7240
H7F H 0.3490 -0.8327 0.6578
H6F H 0.3321 -0.6698 0.7832
loop_
_geom_bond_atom_site_label_1
_geom_bond_atom_site_label_2
_geom_bond_site_symmetry_1
_geom_bond_site_symmetry_2
Cu1 N3 1_555 1_555
N1 C1 1_555 1_555
C1 H1 1_555 1_555
C2 N2 1_555 1_555
N2 N3 1_555 1_555
N3 C3 1_555 1_555
C3 C4 1_555 1_555
C4 C5 1_555 1_555
C5 N2 1_555 1_555
C6 N4 1_555 1_555
N4 N5 1_555 1_555
N5 Cu1 1_555 1_555
C7 N5 1_555 1_555
C8 C7 1_555 1_555
C9 N4 1_555 1_555
N6 C10 1_555 1_555
C10 C11 1_555 1_555
H2 C1 1_555 1_555
H3 C2 1_555 1_555
H4 C2 1_555 1_555
H5 C3 1_555 1_555
H6 C4 1_555 1_555
H7 C5 1_555 1_555
H8 C6 1_555 1_555
H9 C6 1_555 1_555
H10 C7 1_555 1_555
H11 C8 1_555 1_555
H12 C9 1_555 1_555
C1F C1 1_555 1_555
N1F C2 1_555 1_555
C2F N1 1_555 1_555
N3F Cu1 1_555 1_555
C6F N1 1_555 1_555
H8F C6F 1_555 1_555
H9F C6F 1_555 1_555
N5F Cu1 1_555 1_555
N4F N5F 1_555 1_555
C6F_2 N4F 1_555 1_555
N1_2 C6F_2 1_555 1_555
C2F_2 N1_2 1_555 1_555
H8F_2 C6F_2 1_555 1_555
H9F_2 C6F_2 1_555 1_555
C9F N4F 1_555 1_555
C8F C9F 1_555 1_555
C7F N5F 1_555 1_555
H10F C7F 1_555 1_555
H11F C8F 1_555 1_555
H12F C9F 1_555 1_555
H3F C2F 1_555 1_555
H4F C2F 1_555 1_555
H1F C1F 1_555 1_555
H2F C1F 1_555 1_555
N2F N3F 1_555 1_555
C3F N3F 1_555 1_555
H3F_2 C2F_2 1_555 1_555
H4F_2 C2F_2 1_555 1_555
C5F N2F 1_555 1_555
C4F C3F 1_555 1_555
H5F C3F 1_555 1_555
H7F C5F 1_555 1_555
H6F C4F 1_555 1_555
C6 N1F 1_555 1_555
C8 C9 1_555 1_555
C1F N1F 1_555 1_555
C2F_2 N2F 1_555 1_555
C8F C7F 1_555 1_555
C5F C4F 1_555 1_555

#END
