
#######################################################################
#
#                 Cambridge Crystallographic Data Centre
#                                CCDC 
#
#######################################################################
#
# If this CIF has been generated from an entry in the Cambridge 
# Structural Database, then it will include bibliographic, chemical, 
# crystal, experimental, refinement or atomic coordinate data resulting 
# from the CCDC's data processing and validation procedures.
#
#######################################################################

data_DOGMES
_symmetry_cell_setting           triclinic
_symmetry_space_group_name_H-M   'P -1'
_symmetry_Int_Tables_number      2
_space_group_name_Hall           '-P 1'
loop_
_symmetry_equiv_pos_site_id
_symmetry_equiv_pos_as_xyz
1 x,y,z
2 -x,-y,-z
_cell_length_a                   10.331(10)
_cell_length_b                   11.426(11)
_cell_length_c                   14.246(14)
_cell_angle_alpha                90.45(5)
_cell_angle_beta                 107.79(5)
_cell_angle_gamma                112.76(4)
_cell_volume                     1461.24
loop_
_atom_site_label
_atom_site_type_symbol
_atom_site_fract_x
_atom_site_fract_y
_atom_site_fract_z
Co1 Co 0.5043(3) 0.6614(3) 0.7449(2)
N1 N 0.7140(15) 0.7072(14) 0.7384(12)
N2 N 0.7629(16) 0.6182(16) 0.7267(12)
N3 N 0.4321(17) 0.4984(14) 0.6537(12)
N4 N 0.5312(19) 0.4489(15) 0.6477(13)
O1 O 0.7065(16) 0.4556(15) 1.1908(11)
O2 O 0.4750(15) 0.3284(12) 1.1169(10)
O3 O 0.4803(17) 0.9095(15) 0.7860(14)
O4 O 0.3981(13) 0.7512(13) 0.6598(9)
C1 C 0.995(2) 0.590(2) 0.7245(19)
H1 H 0.9308 0.5001 0.7171
H2 H 1.0820 0.6124 0.7836
H3 H 1.0258 0.6076 0.6664
C2 C 0.908(3) 0.672(2) 0.7345(19)
C3 C 0.955(3) 0.802(2) 0.747(2)
H4 H 1.0503 0.8640 0.7540
C4 C 0.833(2) 0.8230(19) 0.7479(16)
C5 C 0.823(3) 0.947(2) 0.761(2)
H5 H 0.9175 1.0161 0.7661
H6 H 0.7997 0.9546 0.8207
H7 H 0.7453 0.9511 0.7036
C6 C 0.525(2) 0.2603(19) 0.5542(16)
H8 H 0.6268 0.2912 0.5987
H9 H 0.5228 0.2586 0.4857
H10 H 0.4684 0.1744 0.5652
C7 C 0.458(3) 0.345(2) 0.5737(18)
C8 C 0.310(2) 0.3330(18) 0.5243(14)
H11 H 0.2354 0.2718 0.4706
C9 C 0.302(2) 0.4335(19) 0.5749(17)
C10 C 0.167(2) 0.460(2) 0.5568(15)
H12 H 0.1904 0.5351 0.6021
H13 H 0.0881 0.3870 0.5678
H14 H 0.1340 0.4764 0.4886
C11 C 0.670(2) 0.4828(17) 0.7262(14)
H15 H 0.7200 0.4301 0.7111
C12 C 0.650(2) 0.4586(18) 0.8249(15)
C13 C 0.770(2) 0.5211(18) 0.9151(18)
H16 H 0.8611 0.5781 0.9105
C14 C 0.761(2) 0.5038(19) 1.0060(17)
H17 H 0.8427 0.5462 1.0640
C15 C 0.618(2) 0.4166(19) 1.0104(15)
C16 C 0.504(2) 0.3497(17) 0.9221(18)
H18 H 0.4132 0.2895 0.9251
C17 C 0.5206(19) 0.3684(17) 0.8326(14)
H19 H 0.4426 0.3191 0.7747
C18 C 0.609(2) 0.4048(19) 1.1168(18)
C19 C 0.399(2) 0.851(3) 0.697(2)
C20 C 0.291(2) 0.9050(19) 0.6378(19)
C21 C 0.199(2) 0.8456(19) 0.5436(16)
H20 H 0.2135 0.7803 0.5135
C22 C 0.080(2) 0.8812(19) 0.4897(17)
H21 H 0.0143 0.8362 0.4265
C23 C 0.062(2) 0.9829(18) 0.5313(17)
C24 C 0.270(2) 1.0089(18) 0.6761(15)
H22 H 0.3343 1.0537 0.7395
C25 C 0.164(2) 1.0463(18) 0.6273(16)
H23 H 0.1561 1.1160 0.6570
Co1A Co 0.4957(3) 0.3386(3) 1.2551(2)
Co1A_2 Co -0.5043(3) 1.3386(3) 0.2551(2)
N1A N 0.2860(15) 0.2928(14) 1.2616(12)
N2A N 0.2371(16) 0.3818(16) 1.2733(12)
N3A N 0.5679(17) 0.5016(14) 1.3463(12)
N4A N 0.4688(19) 0.5511(15) 1.3523(13)
O1A O 0.2935(16) 0.5444(15) 0.8092(11)
O2A O 0.5250(15) 0.6716(12) 0.8831(10)
O3A O -0.4803(17) 1.0905(15) 0.2140(14)
O4A O -0.3981(13) 1.2488(13) 0.3402(9)
O4A_2 O 0.6019(13) 0.2488(13) 1.3402(9)
C1A C 0.005(2) 0.410(2) 1.2755(19)
H1A H 0.0692 0.4999 1.2829
H2A H -0.0820 0.3876 1.2164
H3A H -0.0258 0.3924 1.3336
C2A C 0.092(3) 0.328(2) 1.2655(19)
C3A C 0.045(3) 0.198(2) 1.253(2)
H4A H -0.0503 0.1360 1.2460
C4A C 0.167(2) 0.1770(19) 1.2521(16)
C5A C 0.177(3) 0.053(2) 1.239(2)
H5A H 0.0825 -0.0161 1.2339
H6A H 0.2003 0.0454 1.1793
H7A H 0.2547 0.0489 1.2964
C6A C 0.475(2) 0.7397(19) 1.4458(16)
H8A H 0.3732 0.7088 1.4013
H9A H 0.4772 0.7414 1.5143
H10A H 0.5316 0.8256 1.4348
C7A C 0.542(3) 0.655(2) 1.4263(18)
C8A C 0.690(2) 0.6670(18) 1.4757(14)
H11A H 0.7646 0.7282 1.5294
C9A C 0.698(2) 0.5665(19) 1.4251(17)
C10A C 0.833(2) 0.540(2) 1.4432(15)
H12A H 0.8096 0.4649 1.3979
H13A H 0.9119 0.6130 1.4322
H14A H 0.8660 0.5236 1.5114
C11A C 0.330(2) 0.5172(17) 1.2738(14)
H15A H 0.2800 0.5699 1.2889
C12A C 0.350(2) 0.5414(18) 1.1751(15)
C13A C 0.230(2) 0.4789(18) 1.0849(18)
H16A H 0.1389 0.4219 1.0895
C14A C 0.239(2) 0.4962(19) 0.9940(17)
H17A H 0.1573 0.4538 0.9360
C15A C 0.382(2) 0.5834(19) 0.9896(15)
C16A C 0.496(2) 0.6503(17) 1.0779(18)
H18A H 0.5868 0.7105 1.0749
C17A C 0.4794(19) 0.6316(17) 1.1674(14)
H19A H 0.5574 0.6809 1.2253
C18A C 0.391(2) 0.5952(19) 0.8832(18)
C19A C -0.399(2) 1.149(3) 0.303(2)
C20A C -0.291(2) 1.0950(19) 0.3622(19)
C21A C -0.199(2) 1.1544(19) 0.4564(16)
H20A H -0.2135 1.2197 0.4865
C22A C -0.080(2) 1.1188(19) 0.5103(17)
H21A H -0.0143 1.1638 0.5735
C23A C -0.062(2) 1.0171(18) 0.4687(17)
C24A C -0.270(2) 0.9911(18) 0.3239(15)
H22A H -0.3343 0.9463 0.2605
C25A C -0.164(2) 0.9537(18) 0.3727(16)
H23A H -0.1561 0.8840 0.3430
O5 O 0.8278(16) 0.8222(15) 1.0276(11)
O6 O 0.1178(15) 0.2763(14) 0.7744(11)
O7 O -0.1699(17) 0.2878(16) 0.7474(16)
O8 O 0.673(2) 1.1485(18) 0.8701(19)
loop_
_geom_bond_atom_site_label_1
_geom_bond_atom_site_label_2
_geom_bond_site_symmetry_1
_geom_bond_site_symmetry_2
Co1 N1 1_555 1_555
N1 N2 1_555 1_555
N2 C2 1_555 1_555
N3 Co1 1_555 1_555
N4 N3 1_555 1_555
O1 C18 1_555 1_555
O2 C18 1_555 1_555
O3 C19 1_555 1_555
O4 Co1 1_555 1_555
C1 H1 1_555 1_555
H2 C1 1_555 1_555
H3 C1 1_555 1_555
C2 C1 1_555 1_555
C3 C2 1_555 1_555
H4 C3 1_555 1_555
C4 N1 1_555 1_555
C5 C4 1_555 1_555
H5 C5 1_555 1_555
H6 C5 1_555 1_555
H7 C5 1_555 1_555
C6 H8 1_555 1_555
H9 C6 1_555 1_555
H10 C6 1_555 1_555
C7 N4 1_555 1_555
C8 C7 1_555 1_555
H11 C8 1_555 1_555
C9 N3 1_555 1_555
C10 C9 1_555 1_555
H12 C10 1_555 1_555
H13 C10 1_555 1_555
H14 C10 1_555 1_555
C11 N2 1_555 1_555
H15 C11 1_555 1_555
C12 C11 1_555 1_555
C13 C12 1_555 1_555
H16 C13 1_555 1_555
C14 C13 1_555 1_555
H17 C14 1_555 1_555
C15 C14 1_555 1_555
C16 C15 1_555 1_555
H18 C16 1_555 1_555
C17 C12 1_555 1_555
H19 C17 1_555 1_555
C18 C15 1_555 1_555
C19 O4 1_555 1_555
C20 C19 1_555 1_555
C21 C20 1_555 1_555
H20 C21 1_555 1_555
C22 C21 1_555 1_555
H21 C22 1_555 1_555
C23 C22 1_555 1_555
C24 C20 1_555 1_555
H22 C24 1_555 1_555
C25 C23 1_555 1_555
H23 C25 1_555 1_555
Co1A O2 1_555 1_555
Co1A_2 O4A 1_555 1_555
N1A Co1A 1_555 1_555
N2A N1A 1_555 1_555
N3A Co1A 1_555 1_555
N4A N3A 1_555 1_555
O1A C18A 1_555 1_555
O2A Co1 1_555 1_555
O3A C19A 1_555 1_555
O4A C19A 1_555 1_555
O4A_2 Co1A 1_555 1_555
C1A H1A 1_555 1_555
H2A C1A 1_555 1_555
H3A C1A 1_555 1_555
C2A N2A 1_555 1_555
C3A C2A 1_555 1_555
H4A C3A 1_555 1_555
C4A N1A 1_555 1_555
C5A C4A 1_555 1_555
H5A C5A 1_555 1_555
H6A C5A 1_555 1_555
H7A C5A 1_555 1_555
C6A H8A 1_555 1_555
H9A C6A 1_555 1_555
H10A C6A 1_555 1_555
C7A N4A 1_555 1_555
C8A C7A 1_555 1_555
H11A C8A 1_555 1_555
C9A N3A 1_555 1_555
C10A C9A 1_555 1_555
H12A C10A 1_555 1_555
H13A C10A 1_555 1_555
H14A C10A 1_555 1_555
C11A N2A 1_555 1_555
H15A C11A 1_555 1_555
C12A C11A 1_555 1_555
C13A C12A 1_555 1_555
H16A C13A 1_555 1_555
C14A C13A 1_555 1_555
H17A C14A 1_555 1_555
C15A C14A 1_555 1_555
C16A C15A 1_555 1_555
H18A C16A 1_555 1_555
C17A C12A 1_555 1_555
H19A C17A 1_555 1_555
C18A O2A 1_555 1_555
C19A C20A 1_555 1_555
C20A C21A 1_555 1_555
C21A H20A 1_555 1_555
C22A C21A 1_555 1_555
H21A C22A 1_555 1_555
C23A C23 1_555 1_555
C24A C20A 1_555 1_555
H22A C24A 1_555 1_555
C25A C23A 1_555 1_555
H23A C25A 1_555 1_555
N4 C11 1_555 1_555
C3 C4 1_555 1_555
C6 C7 1_555 1_555
C8 C9 1_555 1_555
C16 C17 1_555 1_555
C24 C25 1_555 1_555
N4A C11A 1_555 1_555
C1A C2A 1_555 1_555
C3A C4A 1_555 1_555
C6A C7A 1_555 1_555
C8A C9A 1_555 1_555
C15A C18A 1_555 1_555
C16A C17A 1_555 1_555
C22A C23A 1_555 1_555
C24A C25A 1_555 1_555

#END
