
#######################################################################
#
#                 Cambridge Crystallographic Data Centre
#                                CCDC 
#
#######################################################################
#
# If this CIF has been generated from an entry in the Cambridge 
# Structural Database, then it will include bibliographic, chemical, 
# crystal, experimental, refinement or atomic coordinate data resulting 
# from the CCDC's data processing and validation procedures.
#
#######################################################################

data_DOGNIX
_symmetry_cell_setting           monoclinic
_symmetry_space_group_name_H-M   'C 2'
_symmetry_Int_Tables_number      5
_space_group_name_Hall           'C 2y'
loop_
_symmetry_equiv_pos_site_id
_symmetry_equiv_pos_as_xyz
1 x,y,z
2 -x,y,-z
3 1/2+x,1/2+y,z
4 1/2-x,1/2+y,-z
_cell_length_a                   40.679(1)
_cell_length_b                   25.385(1)
_cell_length_c                   15.644(1)
_cell_angle_alpha                90
_cell_angle_beta                 94.28(1)
_cell_angle_gamma                90
_cell_volume                     16109.5
loop_
_atom_site_label
_atom_site_type_symbol
_atom_site_fract_x
_atom_site_fract_y
_atom_site_fract_z
N7 N 0.8933(2) 0.6741(4) 0.6483(6)
P1 P 0.91470(6) 0.62328(12) 0.64400(17)
P2 P 0.88458(6) 0.72778(12) 0.60078(16)
C61 C 0.9543(3) 0.6302(4) 0.7015(7)
C62 C 0.9671(2) 0.6788(4) 0.7212(6)
H37 H 0.9553 0.7092 0.7031
C63 C 0.9976(2) 0.6836(6) 0.7682(7)
H38 H 1.0057 0.7175 0.7814
C64 C 1.0152(3) 0.6429(8) 0.7945(9)
H39 H 1.0359 0.6474 0.8243
C65 C 1.0024(3) 0.5921(7) 0.7774(9)
H40 H 1.0141 0.5622 0.7981
C66 C 0.9724(3) 0.5865(7) 0.7295(9)
H41 H 0.9643 0.5526 0.7160
C67 C 0.8945(3) 0.5681(5) 0.6979(7)
C68 C 0.8920(5) 0.5170(6) 0.6615(11)
H42 H 0.8988 0.5102 0.6065
C69 C 0.8798(4) 0.4795(8) 0.7074(11)
H43 H 0.8789 0.4453 0.6843
C70 C 0.8684(4) 0.4865(6) 0.7850(11)
H44 H 0.8590 0.4584 0.8137
C71 C 0.8709(5) 0.5363(7) 0.8217(12)
H45 H 0.8634 0.5423 0.8762
C72 C 0.8846(4) 0.5774(7) 0.7766(10)
H46 H 0.8869 0.6111 0.8011
C73 C 0.9216(3) 0.6053(5) 0.5360(8)
C74 C 0.8946(3) 0.5959(6) 0.4775(8)
H47 H 0.8730 0.5976 0.4945
C75 C 0.9008(4) 0.5834(7) 0.3911(8)
H48 H 0.8831 0.5749 0.3514
C76 C 0.9303(5) 0.5836(12) 0.3676(12)
H49 H 0.9338 0.5757 0.3103
C77 C 0.9550(5) 0.5943(15) 0.4197(12)
H50 H 0.9761 0.5939 0.3989
C78 C 0.9526(5) 0.6060(17) 0.5024(15)
H51 H 0.9716 0.6146 0.5377
C79 C 0.8400(3) 0.7338(5) 0.5802(6)
C80 C 0.8263(3) 0.7788(6) 0.5442(11)
H52 H 0.8400 0.8064 0.5286
C81 C 0.7921(4) 0.7839(8) 0.5306(11)
H53 H 0.7827 0.8148 0.5066
C82 C 0.7724(4) 0.7423(8) 0.5534(9)
H54 H 0.7493 0.7451 0.5458
C83 C 0.7864(3) 0.6980(9) 0.5864(11)
H55 H 0.7729 0.6697 0.6006
C84 C 0.8199(3) 0.6930(7) 0.5998(9)
H56 H 0.8292 0.6616 0.6225
C85 C 0.9034(2) 0.7343(5) 0.5005(6)
C86 C 0.8862(3) 0.7325(7) 0.4214(7)
H57 H 0.8631 0.7298 0.4188
C87 C 0.9007(5) 0.7343(9) 0.3499(8)
H58 H 0.8880 0.7308 0.2974
C88 C 0.9350(4) 0.7414(8) 0.3506(8)
H59 H 0.9459 0.7408 0.2997
C89 C 0.9521(3) 0.7495(8) 0.4300(9)
H60 H 0.9746 0.7585 0.4319
C90 C 0.9379(3) 0.7450(9) 0.5024(8)
H61 H 0.9503 0.7487 0.5551
C91 C 0.8966(3) 0.7832(6) 0.6664(7)
C92 C 0.9016(3) 0.8310(6) 0.6304(9)
H62 H 0.9003 0.8351 0.5705
C93 C 0.9090(3) 0.8743(7) 0.6846(9)
H63 H 0.9128 0.9074 0.6603
C94 C 0.9108(4) 0.8694(7) 0.7698(8)
H64 H 0.9145 0.8992 0.8046
C95 C 0.9071(3) 0.8221(7) 0.8058(8)
H65 H 0.9095 0.8190 0.8658
C96 C 0.8999(3) 0.7767(5) 0.7556(7)
H66 H 0.8975 0.7435 0.7810
N8 N 0.7223(2) 0.6456(3) -0.1776(5)
P3 P 0.72171(8) 0.58610(11) -0.14920(15)
P4 P 0.73025(7) 0.70007(11) -0.12938(14)
C97 C 0.7472(3) 0.5489(4) -0.2128(7)
C98 C 0.7553(4) 0.5688(6) -0.2903(7)
H67 H 0.7455 0.6007 -0.3095
C99 C 0.7779(5) 0.5435(7) -0.3435(9)
H68 H 0.7850 0.5574 -0.3947
C100 C 0.7888(4) 0.4904(9) -0.3045(17)
H69 H 0.8037 0.4701 -0.3339
C101 C 0.7792(5) 0.4719(7) -0.2360(11)
H70 H 0.7861 0.4378 -0.2193
C102 C 0.7595(4) 0.4986(6) -0.1852(9)
H71 H 0.7540 0.4843 -0.1327
C103 C 0.6803(3) 0.5611(5) -0.1704(7)
C104 C 0.6728(4) 0.5088(6) -0.1600(10)
H72 H 0.6897 0.4850 -0.1430
C105 C 0.6407(5) 0.4906(7) -0.1741(10)
H73 H 0.6355 0.4557 -0.1601
C106 C 0.6193(5) 0.5199(12) -0.205(2)
H74 H 0.5984 0.5055 -0.2200
C107 C 0.6238(6) 0.5730(15) -0.218(3)
H75 H 0.6062 0.5944 -0.2396
C108 C 0.6565(5) 0.5952(10) -0.1994(18)
H76 H 0.6609 0.6312 -0.2068
C109 C 0.7344(4) 0.5736(5) -0.0383(7)
C110 C 0.7140(4) 0.5670(5) 0.0211(7)
H77 H 0.6913 0.5674 0.0055
C111 C 0.7246(5) 0.5594(6) 0.1061(8)
H78 H 0.7098 0.5495 0.1466
C112 C 0.7536(7) 0.5659(8) 0.1268(12)
H79 H 0.7600 0.5653 0.1858
C113 C 0.7797(7) 0.5747(11) 0.0678(13)
H80 H 0.8020 0.5794 0.0863
C114 C 0.7683(5) 0.5752(8) -0.0144(9)
H81 H 0.7834 0.5767 -0.0572
C115 C 0.7127(3) 0.7530(5) -0.1966(5)
C116 C 0.7076(3) 0.7436(6) -0.2853(6)
H82 H 0.7124 0.7108 -0.3092
C117 C 0.6952(4) 0.7858(7) -0.3366(7)
H83 H 0.6914 0.7815 -0.3962
C118 C 0.6888(5) 0.8319(7) -0.2998(10)
H84 H 0.6809 0.8597 -0.3354
C119 C 0.6930(5) 0.8408(7) -0.2150(8)
H85 H 0.6876 0.8734 -0.1914
C120 C 0.7056(4) 0.8004(5) -0.1640(8)
H86 H 0.7093 0.8059 -0.1046
C121 C 0.7137(3) 0.7069(4) -0.0261(6)
C122 C 0.7321(4) 0.7000(5) 0.0510(6)
H87 H 0.7546 0.6910 0.0524
C123 C 0.7167(5) 0.7065(6) 0.1258(6)
H88 H 0.7295 0.7047 0.1783
C124 C 0.6848(6) 0.7152(6) 0.1267(10)
H89 H 0.6752 0.7189 0.1792
C125 C 0.6657(4) 0.7187(7) 0.0513(11)
H90 H 0.6427 0.7222 0.0523
C126 C 0.6798(4) 0.7173(6) -0.0270(8)
H91 H 0.6671 0.7232 -0.0787
C127 C 0.7738(3) 0.7120(4) -0.1134(6)
C128 C 0.7876(4) 0.7526(6) -0.0628(10)
H92 H 0.7736 0.7756 -0.0354
C129 C 0.8214(4) 0.7602(7) -0.0518(11)
H93 H 0.8300 0.7871 -0.0154
C130 C 0.8415(3) 0.7299(7) -0.0918(8)
H94 H 0.8644 0.7338 -0.0822
C131 C 0.8276(4) 0.6906(8) -0.1507(11)
H95 H 0.8414 0.6702 -0.1832
C132 C 0.7958(4) 0.6837(7) -0.1581(9)
H96 H 0.7873 0.6578 -0.1965
O14 O 0.7061(3) 1.3943(6) 0.2604(8)
O16 O 0.5198(4) 1.6261(7) 0.8918(9)
O17 O 0.5308(5) 1.6349(9) 1.0847(12)
O18 O 0.5162(8) 1.5017(15) 0.808(2)
Mo1 Mo 0.844556(14) 1.31072(3) 0.61633(4)
Ti1 Ti 0.56791(3) 1.32686(7) 0.90664(10)
S1 S 0.79645(5) 1.35891(8) 0.56705(13)
S2 S 0.86878(6) 1.37307(11) 0.52730(17)
C1 C 0.80627(19) 1.4134(3) 0.5068(5)
C2 C 0.8395(2) 1.4186(4) 0.4885(6)
C3 C 0.8500(2) 1.4606(4) 0.4395(8)
H1 H 0.8722 1.4635 0.4268
C4 C 0.8268(3) 1.4982(5) 0.4102(8)
H2 H 0.8335 1.5266 0.3771
C5 C 0.7942(2) 1.4949(4) 0.4283(7)
H3 H 0.7792 1.5208 0.4076
C6 C 0.78346(19) 1.4530(3) 0.4776(5)
C7 C 0.74826(19) 1.4563(3) 0.4944(5)
O1 O 0.72919(15) 1.4886(3) 0.4556(5)
N1 N 0.73635(16) 1.4246(3) 0.5537(5)
H4 H 0.7508 1.4042 0.5808
C8 C 0.70373(18) 1.4196(4) 0.5785(5)
C9 C 0.6983(2) 1.3866(6) 0.6467(7)
H5 H 0.7164 1.3705 0.6772
C10 C 0.6675(2) 1.3771(5) 0.6701(7)
H6 H 0.6647 1.3539 0.7158
C11 C 0.64000(19) 1.4005(4) 0.6287(5)
C12 C 0.6452(3) 1.4339(6) 0.5606(8)
H7 H 0.6273 1.4512 0.5316
C13 C 0.6760(2) 1.4416(6) 0.5359(8)
H8 H 0.6787 1.4628 0.4877
N2 N 0.60875(16) 1.3897(4) 0.6579(5)
H9 H 0.6081 1.3791 0.7107
C14 C 0.5792(2) 1.3944(5) 0.6098(6)
O2 O 0.5769(2) 1.4102(5) 0.5368(5)
C15 C 0.5499(2) 1.3768(6) 0.6514(7)
C16 C 0.5200(2) 1.3785(7) 0.6029(8)
H10 H 0.5191 1.3921 0.5468
C17 C 0.4914(3) 1.3606(8) 0.6360(9)
H11 H 0.4711 1.3650 0.6040
C18 C 0.4921(2) 1.3362(7) 0.7152(7)
H12 H 0.4728 1.3215 0.7350
C19 C 0.5213(2) 1.3340(5) 0.7640(7)
C20 C 0.5499(2) 1.3552(5) 0.7334(5)
O3 O 0.52549(13) 1.3135(4) 0.8437(4)
O4 O 0.57712(12) 1.3522(3) 0.7911(3)
S3 S 0.80458(5) 1.24304(9) 0.63256(14)
S4 S 0.86572(6) 1.24563(11) 0.52598(18)
C21 C 0.8106(2) 1.1922(4) 0.5636(5)
C22 C 0.8385(2) 1.1936(4) 0.5113(6)
C23 C 0.8431(3) 1.1539(5) 0.4526(8)
H13 H 0.8615 1.1551 0.4198
C24 C 0.8217(4) 1.1134(5) 0.4415(8)
H14 H 0.8243 1.0887 0.3978
C25 C 0.7953(3) 1.1077(5) 0.4946(7)
H15 H 0.7816 1.0778 0.4897
C26 C 0.7897(2) 1.1467(4) 0.5540(5)
C27 C 0.7626(2) 1.1361(4) 0.6116(6)
O5 O 0.75887(16) 1.0915(3) 0.6390(4)
N3 N 0.74240(19) 1.1772(3) 0.6271(5)
H16 H 0.7461 1.2066 0.6009
C28 C 0.7164(2) 1.1774(4) 0.6802(6)
C29 C 0.7073(3) 1.2259(4) 0.7116(9)
H17 H 0.7180 1.2566 0.6944
C30 C 0.6822(3) 1.2298(4) 0.7690(9)
H18 H 0.6772 1.2627 0.7923
C31 C 0.66503(19) 1.1853(4) 0.7913(6)
C32 C 0.6738(3) 1.1373(4) 0.7574(7)
H19 H 0.6629 1.1064 0.7721
C33 C 0.6989(2) 1.1350(4) 0.7018(7)
H20 H 0.7039 1.1022 0.6781
N4 N 0.63947(19) 1.1921(4) 0.8462(5)
H21 H 0.6327 1.2241 0.8538
C34 C 0.6246(3) 1.1536(5) 0.8882(8)
O6 O 0.6338(4) 1.1084(5) 0.8877(11)
C35 C 0.5971(3) 1.1707(5) 0.9408(7)
C36 C 0.5840(4) 1.1305(6) 0.9933(10)
H22 H 0.5915 1.0956 0.9903
C37 C 0.5607(4) 1.1432(7) 1.0469(10)
H23 H 0.5530 1.1173 1.0832
C38 C 0.5473(3) 1.1969(6) 1.0495(8)
H24 H 0.5305 1.2053 1.0853
C39 C 0.5599(2) 1.2338(5) 0.9988(5)
C40 C 0.5850(2) 1.2211(4) 0.9434(6)
O7 O 0.55056(15) 1.2835(3) 0.9977(4)
O8 O 0.59471(14) 1.2622(3) 0.8974(4)
S5 S 0.82733(5) 1.33723(9) 0.75232(13)
S6 S 0.89591(5) 1.30836(18) 0.69656(17)
C41 C 0.8605(2) 1.3368(5) 0.8304(6)
C42 C 0.8903(2) 1.3224(6) 0.8028(7)
C43 C 0.9192(3) 1.3160(13) 0.8639(9)
H25 H 0.9395 1.3034 0.8470
C44 C 0.9147(4) 1.3297(13) 0.9483(11)
H26 H 0.9325 1.3255 0.9895
C45 C 0.8862(3) 1.3488(10) 0.9743(9)
H27 H 0.8855 1.3622 1.0301
C46 C 0.8574(2) 1.3490(6) 0.9187(7)
C47 C 0.8266(3) 1.3680(5) 0.9591(6)
O9 O 0.8288(2) 1.3891(6) 1.0289(6)
N5 N 0.7972(2) 1.3559(5) 0.9212(6)
H28 H 0.7978 1.3357 0.8765
C48 C 0.7657(2) 1.3700(5) 0.9407(6)
C49 C 0.7389(2) 1.3481(5) 0.8938(6)
H29 H 0.7425 1.3241 0.8497
C50 C 0.7072(3) 1.3606(5) 0.9103(6)
H30 H 0.6896 1.3458 0.8762
C51 C 0.7004(2) 1.3957(4) 0.9782(6)
C52 C 0.7279(3) 1.4156(5) 1.0262(7)
H31 H 0.7247 1.4368 1.0742
C53 C 0.7597(3) 1.4053(5) 1.0053(7)
H32 H 0.7775 1.4224 1.0354
N6 N 0.6678(2) 1.4035(4) 0.9950(5)
H33 H 0.6533 1.3834 0.9675
C54 C 0.6559(3) 1.4400(5) 1.0510(9)
O10 O 0.6741(2) 1.4692(5) 1.0936(8)
C55 C 0.6196(3) 1.4437(5) 1.0498(8)
C56 C 0.6074(4) 1.4838(6) 1.0994(9)
H34 H 0.6219 1.5065 1.1310
C57 C 0.5729(4) 1.4901(6) 1.1018(10)
H35 H 0.5648 1.5171 1.1355
C58 C 0.5517(3) 1.4583(6) 1.0569(9)
H36 H 0.5288 1.4635 1.0581
C59 C 0.5636(3) 1.4178(5) 1.0091(7)
C60 C 0.5978(2) 1.4104(5) 1.0065(6)
O11 O 0.54433(16) 1.3844(3) 0.9595(4)
O12 O 0.60540(15) 1.3680(3) 0.9570(4)
Na1 Na 0.5000 1.3291(2) 1.0000
O13 O 0.7299(3) 1.4762(5) 0.2706(7)
O15 O 0.6691(3) 1.5378(6) 0.3427(8)
Li1 Li 0.7163(5) 1.5287(8) 0.3529(14)
Mo1A Mo 0.155444(14) 1.31072(3) 1.38367(4)
Ti1A Ti 0.43209(3) 1.32686(7) 1.09336(10)
S1A S 0.20355(5) 1.35891(8) 1.43295(13)
S2A S 0.13122(6) 1.37307(11) 1.47270(17)
C1A C 0.19373(19) 1.4134(3) 1.4932(5)
C2A C 0.1605(2) 1.4186(4) 1.5115(6)
C3A C 0.1500(2) 1.4606(4) 1.5605(8)
H1A H 0.1278 1.4635 1.5732
C4A C 0.1732(3) 1.4982(5) 1.5898(8)
H2A H 0.1665 1.5266 1.6229
C5A C 0.2058(2) 1.4949(4) 1.5717(7)
H3A H 0.2208 1.5208 1.5924
C6A C 0.21654(19) 1.4530(3) 1.5224(5)
C7A C 0.25174(19) 1.4563(3) 1.5056(5)
O1A O 0.27081(15) 1.4886(3) 1.5444(5)
N1A N 0.26365(16) 1.4246(3) 1.4463(5)
H4A H 0.2492 1.4042 1.4192
C8A C 0.29627(18) 1.4196(4) 1.4215(5)
C9A C 0.3017(2) 1.3866(6) 1.3533(7)
H5A H 0.2836 1.3705 1.3228
C10A C 0.3325(2) 1.3771(5) 1.3299(7)
H6A H 0.3353 1.3539 1.2842
C11A C 0.36000(19) 1.4005(4) 1.3713(5)
C12A C 0.3548(3) 1.4339(6) 1.4394(8)
H7A H 0.3727 1.4512 1.4684
C13A C 0.3240(2) 1.4416(6) 1.4641(8)
H8A H 0.3213 1.4628 1.5123
N2A N 0.39125(16) 1.3897(4) 1.3421(5)
H9A H 0.3919 1.3791 1.2893
C14A C 0.4208(2) 1.3944(5) 1.3902(6)
O2A O 0.4231(2) 1.4102(5) 1.4632(5)
C15A C 0.4501(2) 1.3768(6) 1.3486(7)
C16A C 0.4800(2) 1.3785(7) 1.3971(8)
H10A H 0.4809 1.3921 1.4532
C17A C 0.5086(3) 1.3606(8) 1.3640(9)
H11A H 0.5289 1.3650 1.3960
C18A C 0.5079(2) 1.3362(7) 1.2848(7)
H12A H 0.5272 1.3215 1.2650
C19A C 0.4787(2) 1.3340(5) 1.2360(7)
C20A C 0.4501(2) 1.3552(5) 1.2666(5)
O3A O 0.47451(13) 1.3135(4) 1.1563(4)
O4A O 0.42288(12) 1.3522(3) 1.2089(3)
S3A S 0.19542(5) 1.24304(9) 1.36744(14)
S4A S 0.13428(6) 1.24563(11) 1.47402(18)
C21A C 0.1894(2) 1.1922(4) 1.4364(5)
C22A C 0.1615(2) 1.1936(4) 1.4887(6)
C23A C 0.1569(3) 1.1539(5) 1.5474(8)
H13A H 0.1385 1.1551 1.5802
C24A C 0.1783(4) 1.1134(5) 1.5585(8)
H14A H 0.1757 1.0887 1.6022
C25A C 0.2047(3) 1.1077(5) 1.5054(7)
H15A H 0.2184 1.0778 1.5103
C26A C 0.2103(2) 1.1467(4) 1.4460(5)
C27A C 0.2374(2) 1.1361(4) 1.3884(6)
O5A O 0.24113(16) 1.0915(3) 1.3610(4)
O5C O 0.74113(16) 1.5915(3) 0.3610(4)
O5B O 0.25887(16) 1.5915(3) 1.6390(4)
N3A N 0.25760(19) 1.1772(3) 1.3729(5)
H16A H 0.2539 1.2066 1.3991
C28A C 0.2836(2) 1.1774(4) 1.3198(6)
C29A C 0.2927(3) 1.2259(4) 1.2884(9)
H17A H 0.2820 1.2566 1.3056
C30A C 0.3178(3) 1.2298(4) 1.2310(9)
H18A H 0.3228 1.2627 1.2077
C31A C 0.33497(19) 1.1853(4) 1.2087(6)
C32A C 0.3262(3) 1.1373(4) 1.2426(7)
H19A H 0.3371 1.1064 1.2279
C33A C 0.3011(2) 1.1350(4) 1.2982(7)
H20A H 0.2961 1.1022 1.3219
N4A N 0.36053(19) 1.1921(4) 1.1538(5)
H21A H 0.3673 1.2241 1.1462
C34A C 0.3754(3) 1.1536(5) 1.1118(8)
O6A O 0.3662(4) 1.1084(5) 1.1123(11)
C35A C 0.4029(3) 1.1707(5) 1.0592(7)
C36A C 0.4160(4) 1.1305(6) 1.0067(10)
H22A H 0.4085 1.0956 1.0097
C37A C 0.4393(4) 1.1432(7) 0.9531(10)
H23A H 0.4470 1.1173 0.9168
C38A C 0.4527(3) 1.1969(6) 0.9505(8)
H24A H 0.4695 1.2053 0.9147
C39A C 0.4401(2) 1.2338(5) 1.0012(5)
C40A C 0.4150(2) 1.2211(4) 1.0566(6)
O7A O 0.44944(15) 1.2835(3) 1.0023(4)
O8A O 0.40529(14) 1.2622(3) 1.1026(4)
S5A S 0.17267(5) 1.33723(9) 1.24768(13)
S6A S 0.10409(5) 1.30836(18) 1.30344(17)
C41A C 0.1395(2) 1.3368(5) 1.1696(6)
C42A C 0.1097(2) 1.3224(6) 1.1972(7)
C43A C 0.0808(3) 1.3160(13) 1.1361(9)
H25A H 0.0605 1.3034 1.1530
C44A C 0.0853(4) 1.3297(13) 1.0517(11)
H26A H 0.0675 1.3255 1.0105
C45A C 0.1138(3) 1.3488(10) 1.0257(9)
H27A H 0.1145 1.3622 0.9699
C46A C 0.1426(2) 1.3490(6) 1.0813(7)
C47A C 0.1734(3) 1.3680(5) 1.0409(6)
O9A O 0.1712(2) 1.3891(6) 0.9711(6)
N5A N 0.2028(2) 1.3559(5) 1.0788(6)
H28A H 0.2022 1.3357 1.1235
C48A C 0.2343(2) 1.3700(5) 1.0593(6)
C49A C 0.2611(2) 1.3481(5) 1.1062(6)
H29A H 0.2575 1.3241 1.1503
C50A C 0.2928(3) 1.3606(5) 1.0897(6)
H30A H 0.3104 1.3458 1.1238
C51A C 0.2996(2) 1.3957(4) 1.0218(6)
C52A C 0.2721(3) 1.4156(5) 0.9738(7)
H31A H 0.2753 1.4368 0.9258
C53A C 0.2403(3) 1.4053(5) 0.9947(7)
H32A H 0.2225 1.4224 0.9646
N6A N 0.3322(2) 1.4035(4) 1.0050(5)
H33A H 0.3467 1.3834 1.0325
C54A C 0.3441(3) 1.4400(5) 0.9490(9)
O10A O 0.3259(2) 1.4692(5) 0.9064(8)
C55A C 0.3804(3) 1.4437(5) 0.9502(8)
C56A C 0.3926(4) 1.4838(6) 0.9006(9)
H34A H 0.3781 1.5065 0.8690
C57A C 0.4271(4) 1.4901(6) 0.8982(10)
H35A H 0.4352 1.5171 0.8645
C58A C 0.4483(3) 1.4583(6) 0.9431(9)
H36A H 0.4712 1.4635 0.9419
C59A C 0.4364(3) 1.4178(5) 0.9909(7)
C60A C 0.4022(2) 1.4104(5) 0.9935(6)
O11A O 0.45567(16) 1.3844(3) 1.0405(4)
O12A O 0.39460(15) 1.3680(3) 1.0430(4)
O13A O 0.2701(3) 1.4762(5) 1.7294(7)
O15A O 0.3309(3) 1.5378(6) 1.6573(8)
Li1A Li 0.2837(5) 1.5287(8) 1.6471(14)
Li1C Li 0.7837(5) 1.0287(8) 0.6471(14)
Li1B Li 0.2163(5) 1.0287(8) 1.3529(14)
loop_
_geom_bond_atom_site_label_1
_geom_bond_atom_site_label_2
_geom_bond_site_symmetry_1
_geom_bond_site_symmetry_2
Mo1 S1 1_555 1_555
Ti1 O3 1_555 1_555
S1 C1 1_555 1_555
S2 Mo1 1_555 1_555
C1 C2 1_555 1_555
C2 S2 1_555 1_555
C3 C2 1_555 1_555
H1 C3 1_555 1_555
C4 C3 1_555 1_555
H2 C4 1_555 1_555
C5 C4 1_555 1_555
H3 C5 1_555 1_555
C6 C1 1_555 1_555
C7 C6 1_555 1_555
O1 C7 1_555 1_555
N1 C7 1_555 1_555
H4 N1 1_555 1_555
C8 N1 1_555 1_555
C9 C8 1_555 1_555
H5 C9 1_555 1_555
C10 C9 1_555 1_555
H6 C10 1_555 1_555
C11 C10 1_555 1_555
C12 C11 1_555 1_555
H7 C12 1_555 1_555
C13 C8 1_555 1_555
H8 C13 1_555 1_555
N2 C11 1_555 1_555
H9 N2 1_555 1_555
C14 N2 1_555 1_555
O2 C14 1_555 1_555
C15 C14 1_555 1_555
C16 C15 1_555 1_555
H10 C16 1_555 1_555
C17 C16 1_555 1_555
H11 C17 1_555 1_555
C18 C17 1_555 1_555
H12 C18 1_555 1_555
C19 C18 1_555 1_555
C20 C15 1_555 1_555
O3 C19 1_555 1_555
O4 Ti1 1_555 1_555
S3 Mo1 1_555 1_555
S4 Mo1 1_555 1_555
C21 S3 1_555 1_555
C22 S4 1_555 1_555
C23 C22 1_555 1_555
H13 C23 1_555 1_555
C24 C23 1_555 1_555
H14 C24 1_555 1_555
C25 C24 1_555 1_555
H15 C25 1_555 1_555
C26 C21 1_555 1_555
C27 C26 1_555 1_555
O5 C27 1_555 1_555
N3 C27 1_555 1_555
H16 N3 1_555 1_555
C28 N3 1_555 1_555
C29 C28 1_555 1_555
H17 C29 1_555 1_555
C30 C29 1_555 1_555
H18 C30 1_555 1_555
C31 C30 1_555 1_555
C32 C31 1_555 1_555
H19 C32 1_555 1_555
C33 C28 1_555 1_555
H20 C33 1_555 1_555
N4 C31 1_555 1_555
H21 N4 1_555 1_555
C34 N4 1_555 1_555
O6 C34 1_555 1_555
C35 C34 1_555 1_555
C36 C35 1_555 1_555
H22 C36 1_555 1_555
C37 C36 1_555 1_555
H23 C37 1_555 1_555
C38 C37 1_555 1_555
H24 C38 1_555 1_555
C39 C38 1_555 1_555
C40 C35 1_555 1_555
O7 Ti1 1_555 1_555
O8 Ti1 1_555 1_555
S5 Mo1 1_555 1_555
S6 Mo1 1_555 1_555
C41 S5 1_555 1_555
C42 S6 1_555 1_555
C43 C42 1_555 1_555
H25 C43 1_555 1_555
C44 C43 1_555 1_555
H26 C44 1_555 1_555
C45 C44 1_555 1_555
H27 C45 1_555 1_555
C46 C41 1_555 1_555
C47 C46 1_555 1_555
O9 C47 1_555 1_555
N5 C47 1_555 1_555
H28 N5 1_555 1_555
C48 N5 1_555 1_555
C49 C48 1_555 1_555
H29 C49 1_555 1_555
C50 C49 1_555 1_555
H30 C50 1_555 1_555
C51 C50 1_555 1_555
C52 C51 1_555 1_555
H31 C52 1_555 1_555
C53 C48 1_555 1_555
H32 C53 1_555 1_555
N6 C51 1_555 1_555
H33 N6 1_555 1_555
C54 N6 1_555 1_555
O10 C54 1_555 1_555
C55 C54 1_555 1_555
C56 C55 1_555 1_555
H34 C56 1_555 1_555
C57 C56 1_555 1_555
H35 C57 1_555 1_555
C58 C57 1_555 1_555
H36 C58 1_555 1_555
C59 C58 1_555 1_555
C60 C55 1_555 1_555
O11 Ti1 1_555 1_555
O12 Ti1 1_555 1_555
N7 P1 1_555 1_555
P1 C61 1_555 1_555
P2 N7 1_555 1_555
C61 C62 1_555 1_555
C62 H37 1_555 1_555
C63 C62 1_555 1_555
H38 C63 1_555 1_555
C64 C63 1_555 1_555
H39 C64 1_555 1_555
C65 C64 1_555 1_555
H40 C65 1_555 1_555
C66 C61 1_555 1_555
H41 C66 1_555 1_555
C67 P1 1_555 1_555
C68 C67 1_555 1_555
H42 C68 1_555 1_555
C69 C68 1_555 1_555
H43 C69 1_555 1_555
C70 C69 1_555 1_555
H44 C70 1_555 1_555
C71 C70 1_555 1_555
H45 C71 1_555 1_555
C72 C67 1_555 1_555
H46 C72 1_555 1_555
C73 P1 1_555 1_555
C74 C73 1_555 1_555
H47 C74 1_555 1_555
C75 C74 1_555 1_555
H48 C75 1_555 1_555
C76 C75 1_555 1_555
H49 C76 1_555 1_555
C77 C76 1_555 1_555
H50 C77 1_555 1_555
C78 C73 1_555 1_555
H51 C78 1_555 1_555
C79 P2 1_555 1_555
C80 C79 1_555 1_555
H52 C80 1_555 1_555
C81 C80 1_555 1_555
H53 C81 1_555 1_555
C82 C81 1_555 1_555
H54 C82 1_555 1_555
C83 C82 1_555 1_555
H55 C83 1_555 1_555
C84 C79 1_555 1_555
H56 C84 1_555 1_555
C85 P2 1_555 1_555
C86 C85 1_555 1_555
H57 C86 1_555 1_555
C87 C86 1_555 1_555
H58 C87 1_555 1_555
C88 C87 1_555 1_555
H59 C88 1_555 1_555
C89 C88 1_555 1_555
H60 C89 1_555 1_555
C90 C85 1_555 1_555
H61 C90 1_555 1_555
C91 P2 1_555 1_555
C92 C91 1_555 1_555
H62 C92 1_555 1_555
C93 C92 1_555 1_555
H63 C93 1_555 1_555
C94 C93 1_555 1_555
H64 C94 1_555 1_555
C95 C94 1_555 1_555
H65 C95 1_555 1_555
C96 C91 1_555 1_555
H66 C96 1_555 1_555
N8 P3 1_555 1_555
P3 C97 1_555 1_555
P4 N8 1_555 1_555
C97 C98 1_555 1_555
C98 H67 1_555 1_555
C99 C98 1_555 1_555
H68 C99 1_555 1_555
C100 C99 1_555 1_555
H69 C100 1_555 1_555
C101 C100 1_555 1_555
H70 C101 1_555 1_555
C102 C97 1_555 1_555
H71 C102 1_555 1_555
C103 P3 1_555 1_555
C104 C103 1_555 1_555
H72 C104 1_555 1_555
C105 C104 1_555 1_555
H73 C105 1_555 1_555
C106 C105 1_555 1_555
H74 C106 1_555 1_555
C107 C106 1_555 1_555
H75 C107 1_555 1_555
C108 C103 1_555 1_555
H76 C108 1_555 1_555
C109 P3 1_555 1_555
C110 C109 1_555 1_555
H77 C110 1_555 1_555
C111 C110 1_555 1_555
H78 C111 1_555 1_555
C112 C111 1_555 1_555
H79 C112 1_555 1_555
C113 C112 1_555 1_555
H80 C113 1_555 1_555
C114 C109 1_555 1_555
H81 C114 1_555 1_555
C115 P4 1_555 1_555
C116 C115 1_555 1_555
H82 C116 1_555 1_555
C117 C116 1_555 1_555
H83 C117 1_555 1_555
C118 C117 1_555 1_555
H84 C118 1_555 1_555
C119 C118 1_555 1_555
H85 C119 1_555 1_555
C120 C115 1_555 1_555
H86 C120 1_555 1_555
C121 P4 1_555 1_555
C122 C121 1_555 1_555
H87 C122 1_555 1_555
C123 C122 1_555 1_555
H88 C123 1_555 1_555
C124 C123 1_555 1_555
H89 C124 1_555 1_555
C125 C124 1_555 1_555
H90 C125 1_555 1_555
C126 C121 1_555 1_555
H91 C126 1_555 1_555
C127 P4 1_555 1_555
C128 C127 1_555 1_555
H92 C128 1_555 1_555
C129 C128 1_555 1_555
H93 C129 1_555 1_555
C130 C129 1_555 1_555
H94 C130 1_555 1_555
C131 C130 1_555 1_555
H95 C131 1_555 1_555
C132 C127 1_555 1_555
H96 C132 1_555 1_555
Na1 O3 1_555 1_555
O13 Li1 1_555 1_555
O15 Li1 1_555 1_555
Li1 O1 1_555 1_555
Mo1A S1A 1_555 1_555
Ti1A O3A 1_555 1_555
S1A C1A 1_555 1_555
S2A Mo1A 1_555 1_555
C1A C2A 1_555 1_555
C2A S2A 1_555 1_555
C3A C2A 1_555 1_555
H1A C3A 1_555 1_555
C4A C3A 1_555 1_555
H2A C4A 1_555 1_555
C5A C4A 1_555 1_555
H3A C5A 1_555 1_555
C6A C1A 1_555 1_555
C7A C6A 1_555 1_555
O1A C7A 1_555 1_555
N1A C7A 1_555 1_555
H4A N1A 1_555 1_555
C8A N1A 1_555 1_555
C9A C8A 1_555 1_555
H5A C9A 1_555 1_555
C10A C9A 1_555 1_555
H6A C10A 1_555 1_555
C11A C10A 1_555 1_555
C12A C11A 1_555 1_555
H7A C12A 1_555 1_555
C13A C8A 1_555 1_555
H8A C13A 1_555 1_555
N2A C11A 1_555 1_555
H9A N2A 1_555 1_555
C14A N2A 1_555 1_555
O2A C14A 1_555 1_555
C15A C14A 1_555 1_555
C16A C15A 1_555 1_555
H10A C16A 1_555 1_555
C17A C16A 1_555 1_555
H11A C17A 1_555 1_555
C18A C17A 1_555 1_555
H12A C18A 1_555 1_555
C19A C18A 1_555 1_555
C20A C15A 1_555 1_555
O3A Na1 1_555 1_555
O4A Ti1A 1_555 1_555
S3A Mo1A 1_555 1_555
S4A Mo1A 1_555 1_555
C21A S3A 1_555 1_555
C22A S4A 1_555 1_555
C23A C22A 1_555 1_555
H13A C23A 1_555 1_555
C24A C23A 1_555 1_555
H14A C24A 1_555 1_555
C25A C24A 1_555 1_555
H15A C25A 1_555 1_555
C26A C21A 1_555 1_555
C27A C26A 1_555 1_555
O5A C27A 1_555 1_555
O5C Li1 1_555 1_555
O5B Li1A 1_555 1_555
N3A C27A 1_555 1_555
H16A N3A 1_555 1_555
C28A N3A 1_555 1_555
C29A C28A 1_555 1_555
H17A C29A 1_555 1_555
C30A C29A 1_555 1_555
H18A C30A 1_555 1_555
C31A C30A 1_555 1_555
C32A C31A 1_555 1_555
H19A C32A 1_555 1_555
C33A C28A 1_555 1_555
H20A C33A 1_555 1_555
N4A C31A 1_555 1_555
H21A N4A 1_555 1_555
C34A N4A 1_555 1_555
O6A C34A 1_555 1_555
C35A C34A 1_555 1_555
C36A C35A 1_555 1_555
H22A C36A 1_555 1_555
C37A C36A 1_555 1_555
H23A C37A 1_555 1_555
C38A C37A 1_555 1_555
H24A C38A 1_555 1_555
C39A C38A 1_555 1_555
C40A C35A 1_555 1_555
O7A Na1 1_555 1_555
O8A Ti1A 1_555 1_555
S5A Mo1A 1_555 1_555
S6A Mo1A 1_555 1_555
C41A S5A 1_555 1_555
C42A S6A 1_555 1_555
C43A C42A 1_555 1_555
H25A C43A 1_555 1_555
C44A C43A 1_555 1_555
H26A C44A 1_555 1_555
C45A C44A 1_555 1_555
H27A C45A 1_555 1_555
C46A C41A 1_555 1_555
C47A C46A 1_555 1_555
O9A C47A 1_555 1_555
N5A C47A 1_555 1_555
H28A N5A 1_555 1_555
C48A N5A 1_555 1_555
C49A C48A 1_555 1_555
H29A C49A 1_555 1_555
C50A C49A 1_555 1_555
H30A C50A 1_555 1_555
C51A C50A 1_555 1_555
C52A C51A 1_555 1_555
H31A C52A 1_555 1_555
C53A C48A 1_555 1_555
H32A C53A 1_555 1_555
N6A C51A 1_555 1_555
H33A N6A 1_555 1_555
C54A N6A 1_555 1_555
O10A C54A 1_555 1_555
C55A C54A 1_555 1_555
C56A C55A 1_555 1_555
H34A C56A 1_555 1_555
C57A C56A 1_555 1_555
H35A C57A 1_555 1_555
C58A C57A 1_555 1_555
H36A C58A 1_555 1_555
C59A C58A 1_555 1_555
C60A C55A 1_555 1_555
O11A Na1 1_555 1_555
O12A Ti1A 1_555 1_555
O13A Li1A 1_555 1_555
O15A Li1A 1_555 1_555
Li1A O1A 1_555 1_555
Li1C O5 1_555 1_555
Li1B O5A 1_555 1_555
C5 C6 1_555 1_555
C12 C13 1_555 1_555
C19 C20 1_555 1_555
C20 O4 1_555 1_555
C21 C22 1_555 1_555
C25 C26 1_555 1_555
C32 C33 1_555 1_555
C39 C40 1_555 1_555
C39 O7 1_555 1_555
C40 O8 1_555 1_555
O7 Na1 1_555 1_555
C41 C42 1_555 1_555
C45 C46 1_555 1_555
C52 C53 1_555 1_555
C59 C60 1_555 1_555
C59 O11 1_555 1_555
C60 O12 1_555 1_555
O11 Na1 1_555 1_555
C65 C66 1_555 1_555
C71 C72 1_555 1_555
C77 C78 1_555 1_555
C83 C84 1_555 1_555
C89 C90 1_555 1_555
C95 C96 1_555 1_555
C101 C102 1_555 1_555
C107 C108 1_555 1_555
C113 C114 1_555 1_555
C119 C120 1_555 1_555
C125 C126 1_555 1_555
C131 C132 1_555 1_555
Ti1A O7A 1_555 1_555
Ti1A O11A 1_555 1_555
C5A C6A 1_555 1_555
C12A C13A 1_555 1_555
C19A C20A 1_555 1_555
C19A O3A 1_555 1_555
C20A O4A 1_555 1_555
C21A C22A 1_555 1_555
C25A C26A 1_555 1_555
C32A C33A 1_555 1_555
C39A C40A 1_555 1_555
C39A O7A 1_555 1_555
C40A O8A 1_555 1_555
C41A C42A 1_555 1_555
C45A C46A 1_555 1_555
C52A C53A 1_555 1_555
C59A C60A 1_555 1_555
C59A O11A 1_555 1_555
C60A O12A 1_555 1_555

#END
