
#######################################################################
#
#                 Cambridge Crystallographic Data Centre
#                                CCDC 
#
#######################################################################
#
# If this CIF has been generated from an entry in the Cambridge 
# Structural Database, then it will include bibliographic, chemical, 
# crystal, experimental, refinement or atomic coordinate data resulting 
# from the CCDC's data processing and validation procedures.
#
#######################################################################

data_DOGYAA
_symmetry_cell_setting           monoclinic
_symmetry_space_group_name_H-M   'P c'
_symmetry_Int_Tables_number      7
_space_group_name_Hall           'P -2yc'
loop_
_symmetry_equiv_pos_site_id
_symmetry_equiv_pos_as_xyz
1 x,y,z
2 x,-y,1/2+z
_cell_length_a                   9.5851(8)
_cell_length_b                   6.0542(5)
_cell_length_c                   9.5865(9)
_cell_angle_alpha                90
_cell_angle_beta                 103.269(3)
_cell_angle_gamma                90
_cell_volume                     541.454
loop_
_atom_site_label
_atom_site_type_symbol
_atom_site_fract_x
_atom_site_fract_y
_atom_site_fract_z
Fe1 Fe 0.36529(11) 0.7258(2) 0.77740(10)
Fe2 Fe 0.63804(12) 0.2262(2) 0.84019(11)
O1 O 0.2422(7) 0.6689(11) 0.5750(7)
O2 O 0.4704(7) 0.4209(9) 0.7076(6)
O3 O 0.2416(7) 0.4917(10) 0.3726(7)
O4 O 0.4769(7) 0.2746(9) 0.4954(6)
O5 O 0.2503(8) 1.0133(11) 0.7938(9)
H1 H 0.279(4) 1.087(8) 0.884(5)
O6 O 0.7615(7) 0.9927(10) 0.4917(7)
O7 O 0.5271(8) 0.7754(9) 0.5061(7)
O8 O 0.7626(7) 1.1696(11) 0.6928(7)
O9 O 0.5335(7) 0.9225(10) 0.7222(7)
O10 O 0.7558(8) 0.5113(10) 0.9138(9)
H2 H 0.716(3) 0.594(8) 0.980(7)
C1 C 0.2887(12) 0.5222(17) 0.5010(10)
C2 C 0.4269(11) 0.3977(13) 0.5757(9)
C3 C 0.7158(13) 1.0248(19) 0.5995(11)
C4 C 0.5785(10) 0.8994(13) 0.6106(9)
C5 C 0.0971(15) 1.034(3) 0.7530(15)
H3 H 0.0543 0.8900 0.7449
H4 H 0.0702 1.1087 0.6623
H5 H 0.0643 1.1178 0.8243
C6 C 0.9000(16) 0.521(2) 0.9464(19)
H6 H 0.9305 0.6667 0.9784
H7 H 0.9349 0.4850 0.8629
H8 H 0.9374 0.4163 1.0211
Fe1A Fe 0.36529(11) 0.2742(2) 0.27740(10)
Fe2A Fe 0.63804(12) 0.7738(2) 0.34019(11)
Fe2_2 Fe 0.63804(12) 1.2262(2) 0.84019(11)
O3A O 0.2416(7) 0.5083(10) 0.8726(7)
O4A O 0.4769(7) 0.7254(9) 0.9954(6)
O6A O 0.7615(7) 0.0073(10) 0.9917(7)
O7A O 0.5271(8) 0.2246(9) 1.0061(7)
O8_2 O 0.7626(7) 0.1696(11) 0.6928(7)
O9_2 O 0.5335(7) -0.0775(10) 0.7222(7)
loop_
_geom_bond_atom_site_label_1
_geom_bond_atom_site_label_2
_geom_bond_site_symmetry_1
_geom_bond_site_symmetry_2
Fe1 O1 1_555 1_555
Fe2 O2 1_555 1_555
O1 C1 1_555 1_555
O2 Fe1 1_555 1_555
O3 C1 1_555 1_555
O4 C2 1_555 1_555
O5 Fe1 1_555 1_555
H1 O5 1_555 1_555
O6 C3 1_555 1_555
O7 C4 1_555 1_555
O8 C3 1_555 1_555
O9 Fe1 1_555 1_555
O10 Fe2 1_555 1_555
H2 O10 1_555 1_555
C1 C2 1_555 1_555
C2 O2 1_555 1_555
C3 C4 1_555 1_555
C4 O9 1_555 1_555
C5 O5 1_555 1_555
H3 C5 1_555 1_555
H4 C5 1_555 1_555
H5 C5 1_555 1_555
C6 O10 1_555 1_555
H6 C6 1_555 1_555
H7 C6 1_555 1_555
H8 C6 1_555 1_555
Fe1A O3 1_555 1_555
Fe2A O6 1_555 1_555
Fe2_2 O8 1_555 1_555
O3A Fe1 1_555 1_555
O4A Fe1 1_555 1_555
O6A Fe2 1_555 1_555
O7A Fe2 1_555 1_555
O8_2 Fe2 1_555 1_555
O9_2 Fe2 1_555 1_555
O4 Fe1A 1_555 1_555
O7 Fe2A 1_555 1_555
O9 Fe2_2 1_555 1_555

#END
