
#######################################################################
#
#                 Cambridge Crystallographic Data Centre
#                                CCDC 
#
#######################################################################
#
# If this CIF has been generated from an entry in the Cambridge 
# Structural Database, then it will include bibliographic, chemical, 
# crystal, experimental, refinement or atomic coordinate data resulting 
# from the CCDC's data processing and validation procedures.
#
#######################################################################

data_DOGYUU01
_symmetry_cell_setting           triclinic
_symmetry_space_group_name_H-M   'P -1'
_symmetry_Int_Tables_number      2
_space_group_name_Hall           '-P 1'
loop_
_symmetry_equiv_pos_site_id
_symmetry_equiv_pos_as_xyz
1 x,y,z
2 -x,-y,-z
_cell_length_a                   7.4167(9)
_cell_length_b                   8.1502(10)
_cell_length_c                   9.5228(12)
_cell_angle_alpha                104.747(2)
_cell_angle_beta                 107.658(2)
_cell_angle_gamma                101.484(2)
_cell_volume                     506.034
loop_
_atom_site_label
_atom_site_type_symbol
_atom_site_fract_x
_atom_site_fract_y
_atom_site_fract_z
C1 C 0.2068(5) -0.5648(4) -0.4517(4)
H1 H 0.1047 -0.6119 -0.5497
C2 C 0.3998(5) -0.5281(5) -0.2131(4)
H2 H 0.4524 -0.5475 -0.1190
C3 C 0.4782(5) -0.3932(5) -0.2542(4)
H3 H 0.5935 -0.2995 -0.1928
C4 C 0.0950(5) -0.7988(4) -0.3483(4)
H4 H 0.1673 -0.8856 -0.3460
H5 H -0.0147 -0.8435 -0.4487
C5 C 0.0110(5) -0.7833(4) -0.2191(4)
N1 N 0.2266(4) -0.6324(4) -0.3368(3)
N2 N 0.3567(4) -0.4195(4) -0.4031(3)
H6 H 0.3750 -0.3518 -0.4568
O1 O -0.2890(3) -1.0888(3) -0.3981(2)
O2 O -0.2018(3) -0.9799(3) -0.1041(2)
O3 O 0.0217(3) -1.1193(3) -0.2195(2)
O4 O -0.2060(3) -0.6364(3) -0.0771(2)
O5 O -0.0648(3) -0.4712(3) -0.2312(2)
O6 O -0.3438(3) -0.7516(3) -0.3787(3)
O7 O 0.1644(3) -0.7118(3) -0.0644(2)
H7 H 0.2315 -0.6121 -0.0511
P1 P -0.12407(12) -1.01022(10) -0.23716(9)
P2 P -0.16460(12) -0.65161(10) -0.22756(9)
Cu1 Cu -0.07744(6) -0.75596(5) 0.06756(4)
Cu2 Cu -0.5000 -1.0000 -0.5000
O8 O -0.6091(4) -1.0271(4) -0.2725(3)
H8 H -0.698(6) -1.054(7) -0.232(5)
H9 H -0.509(5) -1.001(6) -0.185(4)
C1A C -1.2068(5) -1.4352(4) -0.5483(4)
H1A H -1.1047 -1.3881 -0.4503
C2A C -1.3998(5) -1.4719(5) -0.7869(4)
H2A H -1.4524 -1.4525 -0.8810
C3A C -1.4782(5) -1.6068(5) -0.7458(4)
H3A H -1.5935 -1.7005 -0.8072
C4A C -1.0950(5) -1.2012(4) -0.6517(4)
H4A H -1.1673 -1.1144 -0.6540
H5A H -0.9853 -1.1565 -0.5513
C5A C -1.0110(5) -1.2167(4) -0.7809(4)
N1A N -1.2266(4) -1.3676(4) -0.6632(3)
N2A N -1.3567(4) -1.5805(4) -0.5969(3)
H6A H -1.3750 -1.6482 -0.5432
O1A O -0.7110(3) -0.9112(3) -0.6019(2)
O2A O -0.7982(3) -1.0201(3) -0.8959(2)
O3A O -1.0217(3) -0.8807(3) -0.7805(2)
O3A_2 O -0.0217(3) -0.8807(3) 0.2195(2)
O3_2 O -0.9783(3) -1.1193(3) -1.2195(2)
O4A O -0.7940(3) -1.3636(3) -0.9229(2)
O5A O -0.9352(3) -1.5288(3) -0.7688(2)
O5A_2 O 0.0648(3) -0.5288(3) 0.2312(2)
O5_2 O -1.0648(3) -1.4712(3) -1.2312(2)
O6A O -0.6562(3) -1.2484(3) -0.6213(3)
O7A O -1.1644(3) -1.2882(3) -0.9356(2)
H7A H -1.2315 -1.3879 -0.9489
P1A P -0.87593(12) -0.98978(10) -0.76284(9)
P2A P -0.83540(12) -1.34839(10) -0.77244(9)
Cu1A Cu -0.92256(6) -1.24404(5) -1.06756(4)
Cu1A_2 Cu 0.07744(6) -1.24404(5) -0.06756(4)
Cu1A_3 Cu 0.07744(6) -0.24404(5) -0.06756(4)
Cu1_2 Cu -1.07744(6) -0.75596(5) -0.93244(4)
Cu1_3 Cu -1.07744(6) -1.75596(5) -0.93244(4)
O8A O -0.3909(4) -0.9729(4) -0.7275(3)
H8A H -0.302(6) -0.946(7) -0.768(5)
H9A H -0.491(5) -0.999(6) -0.815(4)
loop_
_geom_bond_atom_site_label_1
_geom_bond_atom_site_label_2
_geom_bond_site_symmetry_1
_geom_bond_site_symmetry_2
C1 H1 1_555 1_555
C2 H2 1_555 1_555
C3 C2 1_555 1_555
H3 C3 1_555 1_555
C4 H4 1_555 1_555
H5 C4 1_555 1_555
C5 C4 1_555 1_555
N1 C1 1_555 1_555
N2 C1 1_555 1_555
H6 N2 1_555 1_555
O1 P1 1_555 1_555
O2 P1 1_555 1_555
O3 P1 1_555 1_555
O4 P2 1_555 1_555
O5 P2 1_555 1_555
O6 P2 1_555 1_555
O7 C5 1_555 1_555
H7 O7 1_555 1_555
P1 C5 1_555 1_555
P2 C5 1_555 1_555
Cu1 O2 1_555 1_555
Cu2 O1 1_555 1_555
O8 Cu2 1_555 1_555
H8 O8 1_555 1_555
H9 O8 1_555 1_555
C1A H1A 1_555 1_555
C2A H2A 1_555 1_555
C3A C2A 1_555 1_555
H3A C3A 1_555 1_555
C4A H4A 1_555 1_555
H5A C4A 1_555 1_555
C5A C4A 1_555 1_555
N1A C1A 1_555 1_555
N2A C1A 1_555 1_555
H6A N2A 1_555 1_555
O1A Cu2 1_555 1_555
O2A P1A 1_555 1_555
O3A P1A 1_555 1_555
O3A_2 Cu1 1_555 1_555
O3_2 Cu1A 1_555 1_555
O4A P2A 1_555 1_555
O5A P2A 1_555 1_555
O5A_2 Cu1 1_555 1_555
O5_2 Cu1A 1_555 1_555
O6A Cu2 1_555 1_555
O7A C5A 1_555 1_555
H7A O7A 1_555 1_555
P1A C5A 1_555 1_555
P2A C5A 1_555 1_555
Cu1A O2A 1_555 1_555
Cu1A_2 O3 1_555 1_555
Cu1A_3 O5 1_555 1_555
Cu1_2 O3A 1_555 1_555
Cu1_3 O5A 1_555 1_555
O8A Cu2 1_555 1_555
H8A O8A 1_555 1_555
H9A O8A 1_555 1_555
C2 N1 1_555 1_555
C3 N2 1_555 1_555
C4 N1 1_555 1_555
O4 Cu1 1_555 1_555
O6 Cu2 1_555 1_555
O7 Cu1 1_555 1_555
C2A N1A 1_555 1_555
C3A N2A 1_555 1_555
C4A N1A 1_555 1_555
O1A P1A 1_555 1_555
O4A Cu1A 1_555 1_555
O6A P2A 1_555 1_555
O7A Cu1A 1_555 1_555

#END
