
#######################################################################
#
#                 Cambridge Crystallographic Data Centre
#                                CCDC 
#
#######################################################################
#
# If this CIF has been generated from an entry in the Cambridge 
# Structural Database, then it will include bibliographic, chemical, 
# crystal, experimental, refinement or atomic coordinate data resulting 
# from the CCDC's data processing and validation procedures.
#
#######################################################################

data_DOGZOP
_symmetry_cell_setting           monoclinic
_symmetry_space_group_name_H-M   'P 21/c'
_symmetry_Int_Tables_number      14
_space_group_name_Hall           '-P 2ybc'
loop_
_symmetry_equiv_pos_site_id
_symmetry_equiv_pos_as_xyz
1 x,y,z
2 -x,1/2+y,1/2-z
3 -x,-y,-z
4 x,1/2-y,1/2+z
_cell_length_a                   11.626(3)
_cell_length_b                   11.192(3)
_cell_length_c                   15.631(4)
_cell_angle_alpha                90
_cell_angle_beta                 110.536(5)
_cell_angle_gamma                90
_cell_volume                     1904.63
loop_
_atom_site_label
_atom_site_type_symbol
_atom_site_fract_x
_atom_site_fract_y
_atom_site_fract_z
Zn1 Zn 1.78075(3) 0.43304(2) 0.23324(2)
Zn2 Zn 1.0000 0.5000 0.5000
N1 N 1.6395(2) 0.44876(19) 0.28313(15)
N2 N 1.1554(2) 0.49624(18) 0.45817(15)
O1 O 0.89749(17) 0.56304(14) 0.27235(12)
O2 O 0.91773(17) 0.64034(15) 0.40777(12)
O3 O 0.65197(19) 0.89520(17) 0.60372(14)
O4 O 0.72175(18) 1.07819(16) 0.60033(12)
O5 O 0.90614(17) 1.36602(15) 0.40623(12)
O6 O 0.86103(18) 1.27728(16) 0.27392(12)
C1 C 0.9156(2) 1.2789(2) 0.35981(18)
C2 C 0.9881(2) 1.1702(2) 0.40424(18)
H1 H 1.0317 1.1859 0.4686
H2 H 1.0482 1.1520 0.3760
C3 C 0.9030(2) 1.0648(2) 0.39394(18)
C4 C 0.9135(3) 0.9656(2) 0.34403(18)
H3 H 0.9743 0.9633 0.3182
C5 C 0.8340(2) 0.8696(2) 0.33238(17)
C6 C 0.7436(2) 0.8745(2) 0.37022(17)
H4 H 0.6896 0.8106 0.3619
C7 C 0.7313(2) 0.9726(2) 0.42047(17)
C8 C 0.8132(2) 1.0666(2) 0.43234(17)
H5 H 0.8072 1.1323 0.4670
C9 C 0.8463(3) 0.7647(2) 0.27539(18)
H6 H 0.7668 0.7512 0.2283
H7 H 0.9027 0.7873 0.2449
C10 C 0.8897(2) 0.6475(2) 0.32378(17)
C11 C 0.6286(3) 0.9791(3) 0.45869(19)
H8 H 0.5804 1.0504 0.4350
H9 H 0.5752 0.9107 0.4368
C12 C 0.6708(2) 0.9817(2) 0.56186(19)
C13 C 1.6165(3) 0.3635(3) 0.3338(2)
H10 H 1.6647 0.2949 0.3449
C14 C 1.5260(3) 0.3704(3) 0.3707(2)
H11 H 1.5140 0.3073 0.4053
C15 C 1.4524(2) 0.4707(2) 0.35693(18)
C16 C 1.4771(3) 0.5595(2) 0.3041(2)
H12 H 1.4310 0.6295 0.2926
C17 C 1.5677(3) 0.5458(3) 0.2688(2)
H13 H 1.5806 0.6070 0.2329
C18 C 1.2231(3) 0.3970(2) 0.4678(2)
H14 H 1.2033 0.3316 0.4966
C19 C 1.3195(3) 0.3862(2) 0.43768(19)
H15 H 1.3631 0.3149 0.4462
C20 C 1.3528(3) 0.4818(2) 0.39430(18)
C21 C 1.2850(3) 0.5867(3) 0.3873(2)
H16 H 1.3048 0.6545 0.3609
C22 C 1.1898(3) 0.5896(3) 0.4190(2)
H17 H 1.1461 0.6605 0.4132
Zn1B Zn 0.21925(3) 0.56696(2) 0.76676(2)
Zn1_2 Zn 0.78075(3) 0.43304(2) 0.23324(2)
Zn1C Zn 0.78075(3) 1.06696(2) 0.73324(2)
Zn1_3 Zn 0.78075(3) 1.43304(2) 0.23324(2)
Zn1B_2 Zn 1.21925(3) 0.56696(2) 0.76676(2)
Zn1A Zn 1.21925(3) -0.06696(2) 0.26676(2)
Zn1B_3 Zn 1.21925(3) -0.43304(2) 0.76676(2)
Zn2_2 Zn 1.0000 1.5000 0.5000
Zn2_3 Zn 1.0000 -0.5000 0.5000
N1B N 0.3605(2) 0.55124(19) 0.71687(15)
N2B N 0.8446(2) 0.50376(18) 0.54183(15)
O1B O 1.10251(17) 0.43696(14) 0.72765(12)
O1_2 O 1.89749(17) 0.56304(14) 0.27235(12)
O1B_2 O 0.10251(17) 0.43696(14) 0.72765(12)
O2B O 1.08227(17) 0.35966(15) 0.59223(12)
O3B O 1.34803(19) 0.10480(17) 0.39628(14)
O4B O 1.27825(18) -0.07819(16) 0.39967(12)
O4C O 1.72175(18) 0.42181(16) 0.10033(12)
O4A O 0.27825(18) 0.57819(16) 0.89967(12)
O5B O 1.09386(17) -0.36602(15) 0.59377(12)
O5_2 O 0.90614(17) 0.36602(15) 0.40623(12)
O5B_2 O 1.09386(17) 0.63398(15) 0.59377(12)
O6B O 1.13897(18) -0.27728(16) 0.72608(12)
O6_2 O 1.86103(18) 0.27728(16) 0.27392(12)
O6B_2 O 0.13897(18) 0.72272(16) 0.72608(12)
C1B C 1.0844(2) -0.2789(2) 0.64019(18)
C2B C 1.0119(2) -0.1702(2) 0.59576(18)
H1B H 0.9683 -0.1859 0.5314
H2B H 0.9518 -0.1520 0.6240
C3B C 1.0970(2) -0.0648(2) 0.60606(18)
C4B C 1.0865(3) 0.0344(2) 0.65597(18)
H3B H 1.0257 0.0367 0.6818
C5B C 1.1660(2) 0.1304(2) 0.66762(17)
C6B C 1.2564(2) 0.1255(2) 0.62978(17)
H4B H 1.3104 0.1894 0.6381
C7B C 1.2687(2) 0.0274(2) 0.57953(17)
C8B C 1.1868(2) -0.0666(2) 0.56766(17)
H5B H 1.1928 -0.1323 0.5330
C9B C 1.1537(3) 0.2353(2) 0.72461(18)
H6B H 1.2332 0.2488 0.7717
H7B H 1.0973 0.2127 0.7551
C10B C 1.1103(2) 0.3525(2) 0.67622(17)
C11B C 1.3714(3) 0.0209(3) 0.54131(19)
H8B H 1.4196 -0.0504 0.5650
H9B H 1.4248 0.0893 0.5632
C12B C 1.3292(2) 0.0183(2) 0.43814(19)
C13B C 0.3835(3) 0.6365(3) 0.6662(2)
H10B H 0.3353 0.7051 0.6551
C14B C 0.4740(3) 0.6296(3) 0.6293(2)
H11B H 0.4860 0.6927 0.5947
C15B C 0.5476(2) 0.5293(2) 0.64307(18)
C16B C 0.5229(3) 0.4405(2) 0.6959(2)
H12B H 0.5690 0.3705 0.7074
C17B C 0.4323(3) 0.4542(3) 0.7312(2)
H13B H 0.4194 0.3930 0.7671
C18B C 0.7769(3) 0.6030(2) 0.5322(2)
H14B H 0.7967 0.6684 0.5034
C19B C 0.6805(3) 0.6138(2) 0.56232(19)
H15B H 0.6369 0.6851 0.5538
C20B C 0.6472(3) 0.5182(2) 0.60570(18)
C21B C 0.7150(3) 0.4133(3) 0.6127(2)
H16B H 0.6952 0.3455 0.6391
C22B C 0.8102(3) 0.4104(3) 0.5810(2)
H17B H 0.8539 0.3395 0.5868
loop_
_geom_bond_atom_site_label_1
_geom_bond_atom_site_label_2
_geom_bond_site_symmetry_1
_geom_bond_site_symmetry_2
Zn1 N1 1_555 1_555
Zn2 N2 1_555 1_555
N1 C13 1_555 1_555
N2 C18 1_555 1_555
O1 C10 1_555 1_555
O2 Zn2 1_555 1_555
O3 C12 1_555 1_555
O4 C12 1_555 1_555
O5 C1 1_555 1_555
O6 C1 1_555 1_555
C1 C2 1_555 1_555
C2 H1 1_555 1_555
H2 C2 1_555 1_555
C3 C2 1_555 1_555
C4 C3 1_555 1_555
H3 C4 1_555 1_555
C5 C4 1_555 1_555
C6 C5 1_555 1_555
H4 C6 1_555 1_555
C7 C6 1_555 1_555
C8 C3 1_555 1_555
H5 C8 1_555 1_555
C9 C5 1_555 1_555
H6 C9 1_555 1_555
H7 C9 1_555 1_555
C10 O2 1_555 1_555
C11 C7 1_555 1_555
H8 C11 1_555 1_555
H9 C11 1_555 1_555
C12 C11 1_555 1_555
C13 H10 1_555 1_555
C14 C13 1_555 1_555
H11 C14 1_555 1_555
C15 C14 1_555 1_555
C16 C15 1_555 1_555
H12 C16 1_555 1_555
C17 N1 1_555 1_555
H13 C17 1_555 1_555
C18 H14 1_555 1_555
C19 C18 1_555 1_555
H15 C19 1_555 1_555
C20 C15 1_555 1_555
C21 C20 1_555 1_555
H16 C21 1_555 1_555
C22 N2 1_555 1_555
H17 C22 1_555 1_555
Zn1B N1B 1_555 1_555
Zn1_2 O1 1_555 1_555
Zn1C O4 1_555 1_555
Zn1_3 O6 1_555 1_555
Zn1B_2 O1B 1_555 1_555
Zn1A O4B 1_555 1_555
Zn1B_3 O6B 1_555 1_555
Zn2_2 O5 1_555 1_555
Zn2_3 O5B 1_555 1_555
N1B C13B 1_555 1_555
N2B Zn2 1_555 1_555
O1B C10B 1_555 1_555
O1_2 Zn1 1_555 1_555
O1B_2 Zn1B 1_555 1_555
O2B Zn2 1_555 1_555
O3B C12B 1_555 1_555
O4B C12B 1_555 1_555
O4C Zn1 1_555 1_555
O4A Zn1B 1_555 1_555
O5B C1B 1_555 1_555
O5_2 Zn2 1_555 1_555
O5B_2 Zn2 1_555 1_555
O6B C1B 1_555 1_555
O6_2 Zn1 1_555 1_555
O6B_2 Zn1B 1_555 1_555
C1B C2B 1_555 1_555
C2B H1B 1_555 1_555
H2B C2B 1_555 1_555
C3B C2B 1_555 1_555
C4B C3B 1_555 1_555
H3B C4B 1_555 1_555
C5B C4B 1_555 1_555
C6B C5B 1_555 1_555
H4B C6B 1_555 1_555
C7B C6B 1_555 1_555
C8B C3B 1_555 1_555
H5B C8B 1_555 1_555
C9B C5B 1_555 1_555
H6B C9B 1_555 1_555
H7B C9B 1_555 1_555
C10B O2B 1_555 1_555
C11B C7B 1_555 1_555
H8B C11B 1_555 1_555
H9B C11B 1_555 1_555
C12B C11B 1_555 1_555
C13B H10B 1_555 1_555
C14B C13B 1_555 1_555
H11B C14B 1_555 1_555
C15B C14B 1_555 1_555
C16B C15B 1_555 1_555
H12B C16B 1_555 1_555
C17B N1B 1_555 1_555
H13B C17B 1_555 1_555
C18B N2B 1_555 1_555
H14B C18B 1_555 1_555
C19B C18B 1_555 1_555
H15B C19B 1_555 1_555
C20B C15B 1_555 1_555
C21B C20B 1_555 1_555
H16B C21B 1_555 1_555
C22B N2B 1_555 1_555
H17B C22B 1_555 1_555
C7 C8 1_555 1_555
C9 C10 1_555 1_555
C16 C17 1_555 1_555
C19 C20 1_555 1_555
C21 C22 1_555 1_555
C7B C8B 1_555 1_555
C9B C10B 1_555 1_555
C16B C17B 1_555 1_555
C19B C20B 1_555 1_555
C21B C22B 1_555 1_555

#END
