
#######################################################################
#
#                 Cambridge Crystallographic Data Centre
#                                CCDC 
#
#######################################################################
#
# If this CIF has been generated from an entry in the Cambridge 
# Structural Database, then it will include bibliographic, chemical, 
# crystal, experimental, refinement or atomic coordinate data resulting 
# from the CCDC's data processing and validation procedures.
#
#######################################################################

data_DOGZEF
_symmetry_cell_setting           triclinic
_symmetry_space_group_name_H-M   'P -1'
_symmetry_Int_Tables_number      2
_space_group_name_Hall           '-P 1'
loop_
_symmetry_equiv_pos_site_id
_symmetry_equiv_pos_as_xyz
1 x,y,z
2 -x,-y,-z
_cell_length_a                   9.152(3)
_cell_length_b                   12.333(4)
_cell_length_c                   13.340(6)
_cell_angle_alpha                65.60(4)
_cell_angle_beta                 71.20(4)
_cell_angle_gamma                76.03(4)
_cell_volume                     1287.79
loop_
_atom_site_label
_atom_site_type_symbol
_atom_site_fract_x
_atom_site_fract_y
_atom_site_fract_z
O1 O 0.3081(3) 0.3173(2) 0.1679(3)
H1 H 0.402(4) 0.284(3) 0.187(3)
H2 H 0.267(4) 0.261(3) 0.153(3)
O2 O 0.9685(7) 0.8974(6) 0.6084(5)
Zn1 Zn 1.11664(3) 0.80195(3) -0.07941(2)
N1 N 1.1941(2) 0.77760(17) 0.05477(16)
C1 C 1.1204(3) 0.8257(2) 0.1327(2)
H3 H 1.0243 0.8731 0.1337
N2 N 1.2001(2) 0.79813(17) 0.20977(16)
C2 C 1.3352(3) 0.7290(2) 0.1778(2)
H4 H 1.4150 0.6968 0.2148
C3 C 1.3310(3) 0.7163(2) 0.0841(2)
H5 H 1.4079 0.6732 0.0448
C4 C 1.1561(3) 0.8421(2) 0.3043(2)
H6 H 1.0532 0.8874 0.3074
H7 H 1.2285 0.8959 0.2899
C5 C 1.1559(3) 0.7406(2) 0.4185(2)
C6 C 1.0229(3) 0.6824(2) 0.4801(2)
C7 C 1.0182(3) 0.5929(2) 0.5878(2)
C8 C 1.1501(4) 0.5600(2) 0.6311(2)
C9 C 1.2848(3) 0.6151(2) 0.5680(2)
C10 C 1.2879(3) 0.7075(2) 0.4614(2)
C11 C 0.8831(3) 0.7135(3) 0.4322(3)
H8 H 0.7915 0.7312 0.4862
H9 H 0.8714 0.6467 0.4172
H10 H 0.8974 0.7823 0.3628
C12 C 0.8707(4) 0.5355(3) 0.6567(3)
H11 H 0.8970 0.4513 0.6961
H12 H 0.8085 0.5461 0.6067
H13 H 0.8130 0.5726 0.7109
C13 C 1.4280(4) 0.5797(3) 0.6130(3)
H14 H 1.4141 0.5102 0.6818
H15 H 1.4442 0.6448 0.6284
H16 H 1.5169 0.5618 0.5573
C14 C 1.4327(3) 0.7689(3) 0.3977(3)
H17 H 1.5229 0.7098 0.4018
H18 H 1.4367 0.8233 0.4312
H19 H 1.4306 0.8126 0.3195
C15 C 1.1488(4) 0.4642(2) 0.7481(2)
H20 H 1.0561 0.4261 0.7763
H21 H 1.2366 0.4041 0.7421
N3 N 1.1546(3) 0.51469(18) 0.82859(17)
C16 C 1.1074(3) 0.6274(2) 0.8244(2)
H22 H 1.0612 0.6871 0.7692
N4 N 1.1346(2) 0.64365(17) 0.90807(16)
C17 C 1.2030(3) 0.5339(2) 0.9687(2)
H23 H 1.2362 0.5174 1.0331
C18 C 1.2145(3) 0.4547(2) 0.9213(2)
H24 H 1.2555 0.3742 0.9465
O3 O 1.1906(2) 0.92185(16) -0.23320(15)
C19 C 1.3348(3) 0.8861(2) -0.2654(2)
O4 O 1.4031(2) 0.80346(19) -0.19904(16)
C20 C 1.4191(3) 0.9454(2) -0.3865(2)
C21 C 1.3400(3) 1.0149(2) -0.4690(2)
H25 H 1.2318 1.0255 -0.4489
C22 C 1.5813(3) 0.9311(2) -0.4191(2)
H26 H 1.6370 0.8848 -0.3649
O5 O 0.90611(18) 0.87059(16) -0.01638(15)
C23 C 0.8092(3) 0.8831(2) -0.0715(2)
O6 O 0.8402(2) 0.85017(18) -0.15221(17)
C24 C 0.6480(2) 0.9424(2) -0.0325(2)
C25 C 0.6098(3) 0.9783(2) 0.0591(2)
H27 H 0.6834 0.9641 0.0991
C26 C 0.5376(3) 0.9645(2) -0.0919(2)
H28 H 0.5625 0.9409 -0.1539
Zn1_2 Zn 1.11664(3) 0.80195(3) -1.07941(2)
Zn1_3 Zn 1.11664(3) 0.80195(3) 0.92059(2)
Zn1A Zn 1.88336(3) 1.19805(3) -0.92059(2)
Zn1A_2 Zn -0.11664(3) 1.19805(3) 0.07941(2)
N1_2 N 1.1941(2) 0.77760(17) -0.94523(16)
C1_2 C 1.1204(3) 0.8257(2) -0.8673(2)
H3_2 H 1.0243 0.8731 -0.8663
N2_2 N 1.2001(2) 0.79813(17) -0.79023(16)
C2_2 C 1.3352(3) 0.7290(2) -0.8222(2)
H4_2 H 1.4150 0.6968 -0.7852
C3_2 C 1.3310(3) 0.7163(2) -0.9159(2)
H5_2 H 1.4079 0.6732 -0.9552
C4_2 C 1.1561(3) 0.8421(2) -0.6957(2)
H6_2 H 1.0532 0.8874 -0.6926
H7_2 H 1.2285 0.8959 -0.7101
C5_2 C 1.1559(3) 0.7406(2) -0.5815(2)
C6_2 C 1.0229(3) 0.6824(2) -0.5199(2)
C7_2 C 1.0182(3) 0.5929(2) -0.4122(2)
C8_2 C 1.1501(4) 0.5600(2) -0.3689(2)
C9_2 C 1.2848(3) 0.6151(2) -0.4320(2)
C10_2 C 1.2879(3) 0.7075(2) -0.5386(2)
C11_2 C 0.8831(3) 0.7135(3) -0.5678(3)
H8_2 H 0.7915 0.7312 -0.5138
H9_2 H 0.8714 0.6467 -0.5828
H10_2 H 0.8974 0.7823 -0.6372
C12_2 C 0.8707(4) 0.5355(3) -0.3433(3)
H11_2 H 0.8970 0.4513 -0.3039
H12_2 H 0.8085 0.5461 -0.3933
H13_2 H 0.8130 0.5726 -0.2891
C13_2 C 1.4280(4) 0.5797(3) -0.3870(3)
H14_2 H 1.4141 0.5102 -0.3182
H15_2 H 1.4442 0.6448 -0.3716
H16_2 H 1.5169 0.5618 -0.4427
C14_2 C 1.4327(3) 0.7689(3) -0.6023(3)
H17_2 H 1.5229 0.7098 -0.5982
H18_2 H 1.4367 0.8233 -0.5688
H19_2 H 1.4306 0.8126 -0.6805
C15_2 C 1.1488(4) 0.4642(2) -0.2519(2)
H20_2 H 1.0561 0.4261 -0.2237
H21_2 H 1.2366 0.4041 -0.2579
N3_2 N 1.1546(3) 0.51469(18) -0.17141(17)
C16_2 C 1.1074(3) 0.6274(2) -0.1756(2)
H22_2 H 1.0612 0.6871 -0.2308
N4_2 N 1.1346(2) 0.64365(17) -0.09193(16)
N4_3 N 1.1346(2) 0.64365(17) -1.09193(16)
C17_2 C 1.2030(3) 0.5339(2) -0.0313(2)
H23_2 H 1.2362 0.5174 0.0331
C18_2 C 1.2145(3) 0.4547(2) -0.0787(2)
H24_2 H 1.2555 0.3742 -0.0535
O3A O 1.8094(2) 1.07815(16) -0.76680(15)
O3_2 O 1.1906(2) 0.92185(16) -1.23320(15)
C19A C 1.6652(3) 1.1139(2) -0.7346(2)
O4A O 1.5969(2) 1.19654(19) -0.80096(16)
C20A C 1.5809(3) 1.0546(2) -0.6135(2)
C21A C 1.6600(3) 0.9851(2) -0.5310(2)
H25A H 1.7682 0.9745 -0.5511
C22A C 1.4187(3) 1.0689(2) -0.5809(2)
H26A H 1.3630 1.1152 -0.6351
O5A O 0.09389(18) 1.12941(16) 0.01638(15)
O5_2 O 0.90611(18) 0.87059(16) -1.01638(15)
C23A C 0.1908(3) 1.1169(2) 0.0715(2)
O6A O 0.1598(2) 1.14983(18) 0.15221(17)
C24A C 0.3520(2) 1.0576(2) 0.0325(2)
C25A C 0.3902(3) 1.0217(2) -0.0591(2)
H27A H 0.3166 1.0359 -0.0991
C26A C 0.4624(3) 1.0355(2) 0.0919(2)
H28A H 0.4375 1.0591 0.1539
loop_
_geom_bond_atom_site_label_1
_geom_bond_atom_site_label_2
_geom_bond_site_symmetry_1
_geom_bond_site_symmetry_2
O1 H1 1_555 1_555
H2 O1 1_555 1_555
Zn1 N1 1_555 1_555
N1 C1 1_555 1_555
C1 H3 1_555 1_555
N2 C1 1_555 1_555
C2 N2 1_555 1_555
H4 C2 1_555 1_555
C3 N1 1_555 1_555
H5 C3 1_555 1_555
C4 N2 1_555 1_555
H6 C4 1_555 1_555
H7 C4 1_555 1_555
C5 C4 1_555 1_555
C6 C5 1_555 1_555
C7 C6 1_555 1_555
C8 C7 1_555 1_555
C9 C8 1_555 1_555
C10 C5 1_555 1_555
C11 C6 1_555 1_555
H8 C11 1_555 1_555
H9 C11 1_555 1_555
H10 C11 1_555 1_555
C12 C7 1_555 1_555
H11 C12 1_555 1_555
H12 C12 1_555 1_555
H13 C12 1_555 1_555
C13 C9 1_555 1_555
H14 C13 1_555 1_555
H15 C13 1_555 1_555
H16 C13 1_555 1_555
C14 C10 1_555 1_555
H17 C14 1_555 1_555
H18 C14 1_555 1_555
H19 C14 1_555 1_555
C15 C8 1_555 1_555
H20 C15 1_555 1_555
H21 C15 1_555 1_555
N3 C15 1_555 1_555
C16 N3 1_555 1_555
H22 C16 1_555 1_555
N4 C16 1_555 1_555
C17 N4 1_555 1_555
H23 C17 1_555 1_555
C18 N3 1_555 1_555
H24 C18 1_555 1_555
O3 Zn1 1_555 1_555
C19 O3 1_555 1_555
O4 C19 1_555 1_555
C20 C19 1_555 1_555
C21 C20 1_555 1_555
H25 C21 1_555 1_555
C22 C20 1_555 1_555
H26 C22 1_555 1_555
O5 Zn1 1_555 1_555
C23 O5 1_555 1_555
O6 C23 1_555 1_555
C24 C23 1_555 1_555
C25 C24 1_555 1_555
H27 C25 1_555 1_555
C26 C24 1_555 1_555
H28 C26 1_555 1_555
Zn1_2 N1_2 1_555 1_555
Zn1_3 N4 1_555 1_555
Zn1A O3A 1_555 1_555
Zn1A_2 O5A 1_555 1_555
N1_2 C1_2 1_555 1_555
C1_2 H3_2 1_555 1_555
N2_2 C1_2 1_555 1_555
C2_2 N2_2 1_555 1_555
H4_2 C2_2 1_555 1_555
C3_2 N1_2 1_555 1_555
H5_2 C3_2 1_555 1_555
C4_2 N2_2 1_555 1_555
H6_2 C4_2 1_555 1_555
H7_2 C4_2 1_555 1_555
C5_2 C4_2 1_555 1_555
C6_2 C5_2 1_555 1_555
C7_2 C6_2 1_555 1_555
C8_2 C7_2 1_555 1_555
C9_2 C8_2 1_555 1_555
C10_2 C5_2 1_555 1_555
C11_2 C6_2 1_555 1_555
H8_2 C11_2 1_555 1_555
H9_2 C11_2 1_555 1_555
H10_2 C11_2 1_555 1_555
C12_2 C7_2 1_555 1_555
H11_2 C12_2 1_555 1_555
H12_2 C12_2 1_555 1_555
H13_2 C12_2 1_555 1_555
C13_2 C9_2 1_555 1_555
H14_2 C13_2 1_555 1_555
H15_2 C13_2 1_555 1_555
H16_2 C13_2 1_555 1_555
C14_2 C10_2 1_555 1_555
H17_2 C14_2 1_555 1_555
H18_2 C14_2 1_555 1_555
H19_2 C14_2 1_555 1_555
C15_2 C8_2 1_555 1_555
H20_2 C15_2 1_555 1_555
H21_2 C15_2 1_555 1_555
N3_2 C15_2 1_555 1_555
C16_2 N3_2 1_555 1_555
H22_2 C16_2 1_555 1_555
N4_2 Zn1 1_555 1_555
N4_3 Zn1_2 1_555 1_555
C17_2 N4_2 1_555 1_555
H23_2 C17_2 1_555 1_555
C18_2 N3_2 1_555 1_555
H24_2 C18_2 1_555 1_555
O3A C19A 1_555 1_555
O3_2 Zn1_2 1_555 1_555
C19A O4A 1_555 1_555
C20A C19A 1_555 1_555
C21A C22 1_555 1_555
H25A C21A 1_555 1_555
C22A C21 1_555 1_555
H26A C22A 1_555 1_555
O5A C23A 1_555 1_555
O5_2 Zn1_2 1_555 1_555
C23A O6A 1_555 1_555
C24A C23A 1_555 1_555
C25A C26 1_555 1_555
H27A C25A 1_555 1_555
C26A C25 1_555 1_555
H28A C26A 1_555 1_555
C2 C3 1_555 1_555
C9 C10 1_555 1_555
C17 C18 1_555 1_555
C2_2 C3_2 1_555 1_555
C9_2 C10_2 1_555 1_555
C16_2 N4_2 1_555 1_555
C17_2 C18_2 1_555 1_555
C20A C21A 1_555 1_555
C20A C22A 1_555 1_555
C24A C25A 1_555 1_555
C24A C26A 1_555 1_555

#END
