
#######################################################################
#
#                 Cambridge Crystallographic Data Centre
#                                CCDC 
#
#######################################################################
#
# If this CIF has been generated from an entry in the Cambridge 
# Structural Database, then it will include bibliographic, chemical, 
# crystal, experimental, refinement or atomic coordinate data resulting 
# from the CCDC's data processing and validation procedures.
#
#######################################################################

data_DOGZAB
_symmetry_cell_setting           hexagonal
_symmetry_space_group_name_H-M   'P 61 2 2'
_symmetry_Int_Tables_number      178
_space_group_name_Hall           "P 61 2' (0,0,5)"
loop_
_symmetry_equiv_pos_site_id
_symmetry_equiv_pos_as_xyz
1 x,y,z
2 -y,x-y,1/3+z
3 -x+y,-x,2/3+z
4 -x,-y,1/2+z
5 y,-x+y,5/6+z
6 x-y,x,1/6+z
7 y,x,1/3-z
8 x-y,-y,-z
9 -x,-x+y,2/3-z
10 -y,-x,5/6-z
11 -x+y,y,1/2-z
12 x,x-y,1/6-z
_cell_length_a                   15.2699(9)
_cell_length_b                   15.2699(9)
_cell_length_c                   61.093(5)
_cell_angle_alpha                90
_cell_angle_beta                 90
_cell_angle_gamma                120
_cell_volume                     12336.6
loop_
_atom_site_label
_atom_site_type_symbol
_atom_site_fract_x
_atom_site_fract_y
_atom_site_fract_z
Cu1 Cu -0.17139(6) 0.82782(5) -0.662800(12)
Cu2 Cu -0.16506(6) 1.06054(6) -0.654958(13)
Cu3 Cu -0.05197(6) 0.85742(5) -0.571837(12)
O1 O -0.2372(3) 0.7646(3) -0.69042(7)
O2 O -0.2791(4) 0.6328(3) -0.71183(7)
O3 O -0.1753(3) 0.7804(3) -0.58901(7)
O4 O -0.2657(3) 0.6372(3) -0.60761(7)
O5 O -0.3004(4) 0.9723(4) -0.63607(10)
O6 O -0.3741(4) 0.9803(4) -0.60522(10)
O7 O 0.2014(3) 1.3086(3) -0.64954(7)
O8 O 0.1453(4) 1.4162(4) -0.65707(8)
O9 O -0.1635(4) 0.9531(3) -0.67012(7)
H1 H -0.189(6) 0.940(6) -0.6845(6)
O10 O -0.3070(5) 0.7853(4) -0.63608(10)
N1 N -0.0650(4) 0.8723(4) -0.64013(8)
N2 N 0.0413(4) 0.9262(4) -0.61121(8)
N3 N -0.0543(4) 1.0865(4) -0.63317(8)
N4 N 0.0633(4) 1.1065(4) -0.60868(8)
N5 N -0.1930(4) 0.6882(4) -0.65593(8)
H2 H -0.244(4) 0.660(5) -0.6473(10)
N6 N -0.0259(4) 0.7433(4) -0.58058(8)
H3 H 0.008(5) 0.733(5) -0.5703(9)
N7 N -0.1670(4) 1.1728(4) -0.63727(8)
H4 H -0.185(5) 1.185(6) -0.6498(7)
N8 N 0.2167(4) 1.3509(4) -0.60614(11)
H5 H 0.261(2) 1.383(3) -0.5948(5)
H6 H 0.241(3) 1.308(3) -0.6112(8)
C1 C -0.0480(5) 0.7953(5) -0.63366(10)
C2 C 0.0167(5) 0.8268(5) -0.61598(10)
C3 C -0.0104(5) 0.9481(5) -0.62612(10)
C4 C -0.0030(4) 1.0462(5) -0.62386(10)
C5 C -0.0186(5) 1.1786(5) -0.62295(10)
C6 C 0.0527(5) 1.1922(5) -0.60810(11)
C7 C -0.1014(5) 0.6966(5) -0.64538(11)
H7 H -0.0564 0.6931 -0.6566
H8 H -0.1209 0.6403 -0.6349
C8 C -0.2301(5) 0.6214(5) -0.67542(10)
H9 H -0.1736 0.6109 -0.6804
C9 C -0.2507(5) 0.6756(5) -0.69394(11)
C10 C -0.3201(6) 0.5177(5) -0.67105(11)
H10 H -0.3369 0.4779 -0.6850
C11 C -0.2983(8) 0.4597(6) -0.65353(13)
H11 H -0.2347 0.4616 -0.6569
H12 H -0.3535 0.3894 -0.6532
H13 H -0.2927 0.4911 -0.6392
C12 C -0.4112(6) 0.5248(7) -0.66432(15)
H14 H -0.4202 0.5693 -0.6745
H15 H -0.4012 0.5524 -0.6495
H16 H -0.4714 0.4573 -0.6646
C13 C 0.0404(5) 0.7677(5) -0.60044(10)
H17 H 0.1124 0.8071 -0.5961
H18 H 0.0288 0.7043 -0.6075
C14 C -0.1280(5) 0.6537(5) -0.58543(11)
H19 H -0.1196 0.6103 -0.5965
C15 C -0.1942(5) 0.6926(5) -0.59533(10)
C16 C -0.1776(5) 0.5899(5) -0.56479(11)
H20 H -0.1259 0.5789 -0.5572
C17 C -0.2179(7) 0.6365(6) -0.54827(12)
H21 H -0.2312 0.6005 -0.5343
H22 H -0.2808 0.6307 -0.5538
H23 H -0.1676 0.7079 -0.5461
C18 C -0.2669(7) 0.4851(6) -0.57134(14)
H24 H -0.2950 0.4434 -0.5582
H25 H -0.2427 0.4518 -0.5814
H26 H -0.3194 0.4937 -0.5785
C19 C -0.0608(5) 1.2426(5) -0.63037(11)
H27 H -0.0209 1.2857 -0.6428
H28 H -0.0590 1.2867 -0.6183
C20 C -0.2416(5) 1.1342(5) -0.61902(11)
H29 H -0.2023 1.1482 -0.6051
C21 C -0.3105(5) 1.0202(6) -0.62047(13)
C22 C -0.3015(5) 1.1890(5) -0.61750(11)
H30 H -0.3452 1.1633 -0.6042
C23 C -0.2342(6) 1.3021(6) -0.61483(12)
H31 H -0.2762 1.3335 -0.6129
H32 H -0.1919 1.3301 -0.6279
H33 H -0.1910 1.3160 -0.6019
C24 C -0.3704(6) 1.1659(7) -0.63692(12)
H34 H -0.4027 1.2075 -0.6362
H35 H -0.4225 1.0943 -0.6367
H36 H -0.3309 1.1810 -0.6504
C25 C 0.1162(5) 1.2807(5) -0.59432(11)
H37 H 0.1301 1.2582 -0.5802
H38 H 0.0800 1.3180 -0.5912
C26 C 0.2130(5) 1.4244(5) -0.62161(11)
H39 H 0.1599 1.4396 -0.6164
C27 C 0.1830(5) 1.3768(6) -0.64503(12)
C28 C 0.3152(6) 1.5241(5) -0.62209(12)
H40 H 0.3349 1.5457 -0.6066
C29 C 0.3045(8) 1.6080(6) -0.63355(14)
H41 H 0.3693 1.6715 -0.6331
H42 H 0.2528 1.6170 -0.6261
H43 H 0.2845 1.5890 -0.6488
C30 C 0.3992(6) 1.5131(7) -0.63229(14)
H44 H 0.4093 1.4642 -0.6238
H45 H 0.4618 1.5787 -0.6323
H46 H 0.3811 1.4891 -0.6474
Cu2H Cu 0.16506(6) 1.22560(8) -0.678375(13)
Cu3I Cu 0.14258(5) 1.05197(6) -0.594830(12)
O7H O -0.2014(3) 1.1072(4) -0.68379(7)
N2I N 0.0738(4) 0.9587(4) -0.55546(8)
N4I N -0.1065(4) 0.9367(4) -0.55799(8)
O11 O 0.5588(4) 1.6249(4) -0.59074(8)
O12 O 0.1877(4) 0.6564(4) -0.57205(9)
O13 O -0.4936(4) 0.7761(4) -0.60101(10)
O14 O 0.0188(8) 0.5037(8) -0.59326(18)
loop_
_geom_bond_atom_site_label_1
_geom_bond_atom_site_label_2
_geom_bond_site_symmetry_1
_geom_bond_site_symmetry_2
Cu1 O1 1_555 1_555
Cu2 O5 1_555 1_555
Cu3 O3 1_555 1_555
O1 C9 1_555 1_555
O2 C9 1_555 1_555
O3 C15 1_555 1_555
O4 C15 1_555 1_555
O5 C21 1_555 1_555
O6 C21 1_555 1_555
O7 C27 1_555 1_555
O8 C27 1_555 1_555
O9 Cu1 1_555 1_555
H1 O9 1_555 1_555
O10 Cu1 1_555 1_555
N1 Cu1 1_555 1_555
N2 C2 1_555 1_555
N3 Cu2 1_555 1_555
N4 C4 1_555 1_555
N5 Cu1 1_555 1_555
H2 N5 1_555 1_555
N6 Cu3 1_555 1_555
H3 N6 1_555 1_555
N7 Cu2 1_555 1_555
H4 N7 1_555 1_555
N8 H5 1_555 1_555
H6 N8 1_555 1_555
C1 N1 1_555 1_555
C2 C1 1_555 1_555
C3 N1 1_555 1_555
C4 N3 1_555 1_555
C5 N3 1_555 1_555
C6 N4 1_555 1_555
C7 N5 1_555 1_555
H7 C7 1_555 1_555
H8 C7 1_555 1_555
C8 N5 1_555 1_555
H9 C8 1_555 1_555
C9 C8 1_555 1_555
C10 C8 1_555 1_555
H10 C10 1_555 1_555
C11 C10 1_555 1_555
H11 C11 1_555 1_555
H12 C11 1_555 1_555
H13 C11 1_555 1_555
C12 C10 1_555 1_555
H14 C12 1_555 1_555
H15 C12 1_555 1_555
H16 C12 1_555 1_555
C13 N6 1_555 1_555
H17 C13 1_555 1_555
H18 C13 1_555 1_555
C14 N6 1_555 1_555
H19 C14 1_555 1_555
C15 C14 1_555 1_555
C16 C14 1_555 1_555
H20 C16 1_555 1_555
C17 C16 1_555 1_555
H21 C17 1_555 1_555
H22 C17 1_555 1_555
H23 C17 1_555 1_555
C18 C16 1_555 1_555
H24 C18 1_555 1_555
H25 C18 1_555 1_555
H26 C18 1_555 1_555
C19 N7 1_555 1_555
H27 C19 1_555 1_555
H28 C19 1_555 1_555
C20 N7 1_555 1_555
H29 C20 1_555 1_555
C21 C20 1_555 1_555
C22 C20 1_555 1_555
H30 C22 1_555 1_555
C23 C22 1_555 1_555
H31 C23 1_555 1_555
H32 C23 1_555 1_555
H33 C23 1_555 1_555
C24 C22 1_555 1_555
H34 C24 1_555 1_555
H35 C24 1_555 1_555
H36 C24 1_555 1_555
C25 N8 1_555 1_555
H37 C25 1_555 1_555
H38 C25 1_555 1_555
C26 N8 1_555 1_555
H39 C26 1_555 1_555
C27 C26 1_555 1_555
C28 C26 1_555 1_555
H40 C28 1_555 1_555
C29 C28 1_555 1_555
H41 C29 1_555 1_555
H42 C29 1_555 1_555
H43 C29 1_555 1_555
C30 C28 1_555 1_555
H44 C30 1_555 1_555
H45 C30 1_555 1_555
H46 C30 1_555 1_555
Cu2H O7 1_555 1_555
Cu3I N2 1_555 1_555
O7H Cu2 1_555 1_555
N2I Cu3 1_555 1_555
N4I Cu3 1_555 1_555
Cu2 O9 1_555 1_555
N2 C3 1_555 1_555
N4 Cu3I 1_555 1_555
C1 C7 1_555 1_555
C2 C13 1_555 1_555
C3 C4 1_555 1_555
C5 C6 1_555 1_555
C5 C19 1_555 1_555
C6 C25 1_555 1_555

#END
