
#######################################################################
#
#                 Cambridge Crystallographic Data Centre
#                                CCDC 
#
#######################################################################
#
# If this CIF has been generated from an entry in the Cambridge 
# Structural Database, then it will include bibliographic, chemical, 
# crystal, experimental, refinement or atomic coordinate data resulting 
# from the CCDC's data processing and validation procedures.
#
#######################################################################

data_DOGZUV
_symmetry_cell_setting           triclinic
_symmetry_space_group_name_H-M   'P -1'
_symmetry_Int_Tables_number      2
_space_group_name_Hall           '-P 1'
loop_
_symmetry_equiv_pos_site_id
_symmetry_equiv_pos_as_xyz
1 x,y,z
2 -x,-y,-z
_cell_length_a                   9.6558(12)
_cell_length_b                   9.8429(12)
_cell_length_c                   13.4437(16)
_cell_angle_alpha                105.134(2)
_cell_angle_beta                 104.420(2)
_cell_angle_gamma                104.882(2)
_cell_volume                     1121.52
loop_
_atom_site_label
_atom_site_type_symbol
_atom_site_fract_x
_atom_site_fract_y
_atom_site_fract_z
Zn1 Zn 0.0000 0.0000 0.0000
Zn2 Zn -0.29012(8) -0.01132(9) -0.24528(6)
O1 O 0.0505(5) 0.1726(5) -0.0580(4)
O3 O -0.1190(5) 0.1800(6) -0.1987(4)
O4 O 0.5517(5) 0.0464(5) -0.3297(4)
O5 O 0.5467(7) 0.1405(6) -0.1650(4)
O6 O 0.5405(5) 0.7790(6) -0.2393(4)
O7 O 0.7559(4) 0.9233(5) -0.1103(3)
N1 N -0.2343(6) 0.8569(6) 0.6339(4)
N2 N -0.0439(6) 0.1430(6) 0.1241(4)
C1 C 0.2331(7) 0.4178(7) -0.1273(5)
C2 C 0.3434(7) 0.5572(7) -0.0877(5)
H1 H 0.3318 0.6357 -0.0383
C3 C 0.4697(7) 0.5848(7) -0.1185(5)
C4 C 0.4858(7) 0.4650(8) -0.1913(5)
H2 H 0.5708 0.4816 -0.2132
C5 C 0.3800(7) 0.3238(8) -0.2316(5)
C6 C 0.2530(7) 0.3017(7) -0.1993(5)
H3 H 0.1795 0.2066 -0.2266
C7 C 0.0930(7) 0.3980(7) -0.0924(6)
H4 H 0.1254 0.4507 -0.0142
H5 H 0.0288 0.4441 -0.1289
C8 C 0.0005(7) 0.2381(7) -0.1172(6)
C9 C 0.5901(7) 0.7381(8) -0.0680(5)
H6 H 0.5569 0.8024 -0.0182
H7 H 0.6824 0.7302 -0.0246
C10 C 0.6286(7) 0.8133(7) -0.1461(6)
C11 C 0.3992(8) 0.1968(9) -0.3105(6)
H8 H 0.4345 0.2329 -0.3635
H9 H 0.3000 0.1193 -0.3500
C12 C 0.5069(8) 0.1268(7) -0.2613(6)
C13 C -0.1082(8) 0.9077(8) 0.6101(6)
H10 H -0.0496 1.0088 0.6442
C14 C -0.0613(8) 0.8212(8) 0.5398(6)
H11 H 0.0277 0.8639 0.5274
C15 C -0.1423(7) 0.6722(8) 0.4864(5)
C16 C -0.2750(9) 0.6185(9) 0.5068(6)
H12 H -0.3368 0.5184 0.4711
C17 C -0.3162(8) 0.7122(9) 0.5798(7)
H13 H -0.4062 0.6727 0.5922
C18 C -0.0927(9) 0.5759(9) 0.4106(6)
H14 H 0.0001 0.6191 0.4032
C19 C -0.1673(9) 0.4348(10) 0.3527(7)
H15 H -0.2614 0.3928 0.3588
C20 C -0.1171(8) 0.3360(8) 0.2787(6)
C21 C 0.0152(8) 0.3829(8) 0.2565(6)
H16 H 0.0833 0.4804 0.2935
C22 C 0.0451(8) 0.2851(8) 0.1799(6)
H17 H 0.1343 0.3200 0.1653
C23 C -0.1708(7) 0.0978(8) 0.1486(6)
H18 H -0.2350 -0.0015 0.1133
C24 C -0.2101(8) 0.1910(9) 0.2232(6)
H19 H -0.3006 0.1550 0.2359
Zn1_2 Zn 1.0000 1.0000 0.0000
Zn1_3 Zn -1.0000 -1.0000 0.0000
Zn2A Zn 0.29012(8) 0.01132(9) 0.24528(6)
Zn2_2 Zn 0.70988(8) -0.01132(9) -0.24528(6)
Zn2_3 Zn 0.70988(8) 0.98868(9) -0.24528(6)
Zn2_4 Zn -0.29012(8) 0.98868(9) 0.75472(6)
Zn2A_2 Zn -0.70988(8) 0.01132(9) 0.24528(6)
Zn2A_3 Zn -0.70988(8) -0.98868(9) 0.24528(6)
Zn2A_4 Zn 0.29012(8) -0.98868(9) -0.75472(6)
O1A O -0.0505(5) -0.1726(5) 0.0580(4)
O3A O 0.1190(5) -0.1800(6) 0.1987(4)
O4A O -0.5517(5) -0.0464(5) 0.3297(4)
O4_2 O -0.4483(5) 0.0464(5) -0.3297(4)
O4A_2 O 0.4483(5) -0.0464(5) 0.3297(4)
O5A O -0.5467(7) -0.1405(6) 0.1650(4)
O6A O -0.5405(5) -0.7790(6) 0.2393(4)
O6_2 O -0.4595(5) -0.2210(6) -0.2393(4)
O6A_2 O 0.4595(5) 0.2210(6) 0.2393(4)
O7A O -0.7559(4) -0.9233(5) 0.1103(3)
O7_2 O -0.2441(4) -0.0767(5) -0.1103(3)
O7A_2 O 0.2441(4) 0.0767(5) 0.1103(3)
N1A N 0.2343(6) -0.8569(6) -0.6339(4)
N1_2 N -0.2343(6) -0.1431(6) -0.3661(4)
N1A_2 N 0.2343(6) 0.1431(6) 0.3661(4)
N2A N 0.0439(6) -0.1430(6) -0.1241(4)
C1A C -0.2331(7) -0.4178(7) 0.1273(5)
C2A C -0.3434(7) -0.5572(7) 0.0877(5)
H1A H -0.3318 -0.6357 0.0383
C3A C -0.4697(7) -0.5848(7) 0.1185(5)
C4A C -0.4858(7) -0.4650(8) 0.1913(5)
H2A H -0.5708 -0.4816 0.2132
C5A C -0.3800(7) -0.3238(8) 0.2316(5)
C6A C -0.2530(7) -0.3017(7) 0.1993(5)
H3A H -0.1795 -0.2066 0.2266
C7A C -0.0930(7) -0.3980(7) 0.0924(6)
H4A H -0.1254 -0.4507 0.0142
H5A H -0.0288 -0.4441 0.1289
C8A C -0.0005(7) -0.2381(7) 0.1172(6)
C9A C -0.5901(7) -0.7381(8) 0.0680(5)
H6A H -0.5569 -0.8024 0.0182
H7A H -0.6824 -0.7302 0.0246
C10A C -0.6286(7) -0.8133(7) 0.1461(6)
C11A C -0.3992(8) -0.1968(9) 0.3105(6)
H8A H -0.4345 -0.2329 0.3635
H9A H -0.3000 -0.1193 0.3500
C12A C -0.5069(8) -0.1268(7) 0.2613(6)
C13A C 0.1082(8) -0.9077(8) -0.6101(6)
H10A H 0.0496 -1.0088 -0.6442
C14A C 0.0613(8) -0.8212(8) -0.5398(6)
H11A H -0.0277 -0.8639 -0.5274
C15A C 0.1423(7) -0.6722(8) -0.4864(5)
C16A C 0.2750(9) -0.6185(9) -0.5068(6)
H12A H 0.3368 -0.5184 -0.4711
C17A C 0.3162(8) -0.7122(9) -0.5798(7)
H13A H 0.4062 -0.6727 -0.5922
C18A C 0.0927(9) -0.5759(9) -0.4106(6)
H14A H -0.0001 -0.6191 -0.4032
C19A C 0.1673(9) -0.4348(10) -0.3527(7)
H15A H 0.2614 -0.3928 -0.3588
C20A C 0.1171(8) -0.3360(8) -0.2787(6)
C21A C -0.0152(8) -0.3829(8) -0.2565(6)
H16A H -0.0833 -0.4804 -0.2935
C22A C -0.0451(8) -0.2851(8) -0.1799(6)
H17A H -0.1343 -0.3200 -0.1653
C23A C 0.1708(7) -0.0978(8) -0.1486(6)
H18A H 0.2350 0.0015 -0.1133
C24A C 0.2101(8) -0.1910(9) -0.2232(6)
H19A H 0.3006 -0.1550 -0.2359
O2 O -0.3068(8) 0.1870(9) -0.4724(6)
loop_
_geom_bond_atom_site_label_1
_geom_bond_atom_site_label_2
_geom_bond_site_symmetry_1
_geom_bond_site_symmetry_2
Zn1 O1 1_555 1_555
Zn2 O3 1_555 1_555
O1 C8 1_555 1_555
O3 C8 1_555 1_555
O4 C12 1_555 1_555
O5 C12 1_555 1_555
O6 C10 1_555 1_555
O7 C10 1_555 1_555
N1 C13 1_555 1_555
N2 Zn1 1_555 1_555
C1 C2 1_555 1_555
C2 H1 1_555 1_555
C3 C2 1_555 1_555
C4 C3 1_555 1_555
H2 C4 1_555 1_555
C5 C4 1_555 1_555
C6 C1 1_555 1_555
H3 C6 1_555 1_555
C7 C1 1_555 1_555
H4 C7 1_555 1_555
H5 C7 1_555 1_555
C8 C7 1_555 1_555
C9 C3 1_555 1_555
H6 C9 1_555 1_555
H7 C9 1_555 1_555
C10 C9 1_555 1_555
C11 C5 1_555 1_555
H8 C11 1_555 1_555
H9 C11 1_555 1_555
C12 C11 1_555 1_555
C13 H10 1_555 1_555
C14 C13 1_555 1_555
H11 C14 1_555 1_555
C15 C14 1_555 1_555
C16 C15 1_555 1_555
H12 C16 1_555 1_555
C17 N1 1_555 1_555
H13 C17 1_555 1_555
C18 C15 1_555 1_555
H14 C18 1_555 1_555
C19 C18 1_555 1_555
H15 C19 1_555 1_555
C20 C19 1_555 1_555
C21 C20 1_555 1_555
H16 C21 1_555 1_555
C22 N2 1_555 1_555
H17 C22 1_555 1_555
C23 N2 1_555 1_555
H18 C23 1_555 1_555
C24 C20 1_555 1_555
H19 C24 1_555 1_555
Zn1_2 O7 1_555 1_555
Zn1_3 O7A 1_555 1_555
Zn2A O3A 1_555 1_555
Zn2_2 O4 1_555 1_555
Zn2_3 O6 1_555 1_555
Zn2_4 N1 1_555 1_555
Zn2A_2 O4A 1_555 1_555
Zn2A_3 O6A 1_555 1_555
Zn2A_4 N1A 1_555 1_555
O1A Zn1 1_555 1_555
O3A C8A 1_555 1_555
O4A C12A 1_555 1_555
O4_2 Zn2 1_555 1_555
O4A_2 Zn2A 1_555 1_555
O5A C12A 1_555 1_555
O6A C10A 1_555 1_555
O6_2 Zn2 1_555 1_555
O6A_2 Zn2A 1_555 1_555
O7A Zn2A_3 1_555 1_555
O7_2 Zn1 1_555 1_555
O7A_2 Zn1 1_555 1_555
N1A C13A 1_555 1_555
N1_2 Zn2 1_555 1_555
N1A_2 Zn2A 1_555 1_555
N2A Zn1 1_555 1_555
C1A C2A 1_555 1_555
C2A H1A 1_555 1_555
C3A C2A 1_555 1_555
C4A C3A 1_555 1_555
H2A C4A 1_555 1_555
C5A C4A 1_555 1_555
C6A C1A 1_555 1_555
H3A C6A 1_555 1_555
C7A C1A 1_555 1_555
H4A C7A 1_555 1_555
H5A C7A 1_555 1_555
C8A O1A 1_555 1_555
C9A C3A 1_555 1_555
H6A C9A 1_555 1_555
H7A C9A 1_555 1_555
C10A O7A 1_555 1_555
C11A C5A 1_555 1_555
H8A C11A 1_555 1_555
H9A C11A 1_555 1_555
C12A C11A 1_555 1_555
C13A H10A 1_555 1_555
C14A C13A 1_555 1_555
H11A C14A 1_555 1_555
C15A C14A 1_555 1_555
C16A C15A 1_555 1_555
H12A C16A 1_555 1_555
C17A N1A 1_555 1_555
H13A C17A 1_555 1_555
C18A C15A 1_555 1_555
H14A C18A 1_555 1_555
C19A C18A 1_555 1_555
H15A C19A 1_555 1_555
C20A C19A 1_555 1_555
C21A C20A 1_555 1_555
H16A C21A 1_555 1_555
C22A N2A 1_555 1_555
H17A C22A 1_555 1_555
C23A N2A 1_555 1_555
H18A C23A 1_555 1_555
C24A C20A 1_555 1_555
H19A C24A 1_555 1_555
Zn2 O7_2 1_555 1_555
O7 Zn2_3 1_555 1_555
C5 C6 1_555 1_555
C16 C17 1_555 1_555
C21 C22 1_555 1_555
C23 C24 1_555 1_555
Zn2A O7A_2 1_555 1_555
C5A C6A 1_555 1_555
C7A C8A 1_555 1_555
C9A C10A 1_555 1_555
C16A C17A 1_555 1_555
C21A C22A 1_555 1_555
C23A C24A 1_555 1_555

#END
