
#######################################################################
#
#                 Cambridge Crystallographic Data Centre
#                                CCDC 
#
#######################################################################
#
# If this CIF has been generated from an entry in the Cambridge 
# Structural Database, then it will include bibliographic, chemical, 
# crystal, experimental, refinement or atomic coordinate data resulting 
# from the CCDC's data processing and validation procedures.
#
#######################################################################

data_DOHBAE
_symmetry_cell_setting           monoclinic
_symmetry_space_group_name_H-M   'P 21/c'
_symmetry_Int_Tables_number      14
_space_group_name_Hall           '-P 2ybc'
loop_
_symmetry_equiv_pos_site_id
_symmetry_equiv_pos_as_xyz
1 x,y,z
2 -x,1/2+y,1/2-z
3 -x,-y,-z
4 x,1/2-y,1/2+z
_cell_length_a                   10.4037(9)
_cell_length_b                   15.0027(13)
_cell_length_c                   16.8420(14)
_cell_angle_alpha                90
_cell_angle_beta                 106.460(2)
_cell_angle_gamma                90
_cell_volume                     2521.03
loop_
_atom_site_label
_atom_site_type_symbol
_atom_site_fract_x
_atom_site_fract_y
_atom_site_fract_z
Zn1 Zn 0.13129(3) 0.734693(18) 0.034128(15)
Zn2 Zn -0.60792(2) 0.647480(19) 0.560300(15)
N1 N 0.02309(19) 0.74853(13) 0.11675(12)
N2 N -0.51665(19) 0.66611(13) 0.46749(12)
O1 O -0.46390(17) 0.58226(14) -0.36495(10)
O2 O -0.59722(19) 0.56689(16) -0.28724(12)
O3 O 0.05917(17) 0.62438(12) -0.02046(11)
O4 O 0.21888(19) 0.63306(13) -0.08114(12)
O5 O -0.06508(17) 0.33733(11) -0.45886(10)
O6 O -0.23693(15) 0.42998(11) -0.50462(10)
O7 O 0.31817(19) 0.74521(13) 0.09005(11)
C1 C -0.4900(2) 0.55219(17) -0.30119(13)
C2 C -0.3891(2) 0.49377(19) -0.24256(13)
H1 H -0.3877 0.5108 -0.1867
H2 H -0.4225 0.4331 -0.2507
C3 C -0.2457(2) 0.49249(15) -0.24636(13)
C4 C -0.1425(2) 0.49580(15) -0.17268(13)
H3 H -0.1633 0.5005 -0.1227
C5 C -0.0094(2) 0.49218(14) -0.17257(13)
C6 C 0.0212(2) 0.48851(15) -0.24746(13)
H4 H 0.1103 0.4882 -0.2480
C7 C -0.0800(2) 0.48523(15) -0.32174(12)
C8 C -0.2124(2) 0.48611(16) -0.32032(13)
H5 H -0.2803 0.4824 -0.3699
C9 C -0.0452(2) 0.48368(17) -0.40412(13)
H6 H 0.0502 0.4739 -0.3937
H7 H -0.0670 0.5410 -0.4313
C10 C -0.1214(2) 0.41112(16) -0.46030(13)
C11 C 0.1010(2) 0.49525(16) -0.09116(13)
H8 H 0.1816 0.4680 -0.0983
H9 H 0.0737 0.4616 -0.0495
C12 C 0.1303(2) 0.59045(16) -0.06247(12)
C13 C 0.0798(3) 0.7580(2) 0.19751(16)
H10 H 0.1726 0.7634 0.2162
C14 C 0.0086(3) 0.7603(2) 0.25480(17)
H11 H 0.0533 0.7665 0.3108
C15 C -0.1283(3) 0.75347(17) 0.22936(15)
C16 C -0.1882(3) 0.7434(2) 0.14524(17)
H12 H -0.2808 0.7378 0.1251
C17 C -0.1103(3) 0.7418(2) 0.09169(16)
H13 H -0.1524 0.7358 0.0354
C18 C -0.2055(3) 0.7538(2) 0.29290(17)
H14 H -0.1458 0.7354 0.3458
H15 H -0.2338 0.8144 0.2992
C19 C -0.3268(3) 0.6945(2) 0.27247(17)
H16 H -0.3009 0.6355 0.2591
H17 H -0.3922 0.7176 0.2237
C20 C -0.3913(3) 0.68683(18) 0.34199(15)
C21 C -0.3406(3) 0.6313(2) 0.40813(17)
H18 H -0.2628 0.5992 0.4117
C22 C -0.4038(2) 0.62272(19) 0.46936(16)
H19 H -0.3664 0.5851 0.5138
C23 C -0.5662(3) 0.71996(19) 0.40324(17)
H20 H -0.6448 0.7508 0.4007
C24 C -0.5076(3) 0.73247(19) 0.34029(17)
H21 H -0.5459 0.7713 0.2970
H26 H 0.361(3) 0.713(2) 0.0828(19)
Zn1A Zn -0.13129(3) 0.234693(18) -0.534128(15)
Zn2_2 Zn -0.60792(2) 0.647480(19) -0.439700(15)
Zn2B Zn -0.39208(2) 0.352520(19) -0.560300(15)
Zn2C Zn 0.39208(2) 0.852520(19) 0.060300(15)
O1_2 O -0.46390(17) 0.58226(14) 0.63505(10)
O5A O 0.06508(17) 0.83733(11) -0.04114(10)
O6B O -0.76307(15) 0.57002(11) 0.50462(10)
O7C O -0.68183(19) 0.75479(13) 0.59005(11)
H26C H -0.639(3) 0.787(2) 0.5828(19)
O8 O 0.5060(4) 0.6213(2) 0.0583(2)
H22 H 0.436(7) 0.585(5) 0.063(4)
H24 H 0.504(5) 0.611(4) 0.010(3)
O9 O 0.4045(3) 0.9615(2) 0.3717(2)
H23 H 0.348(3) 0.936(2) 0.3853(19)
H25 H 0.389(4) 0.971(3) 0.323(3)
loop_
_geom_bond_atom_site_label_1
_geom_bond_atom_site_label_2
_geom_bond_site_symmetry_1
_geom_bond_site_symmetry_2
Zn1 N1 1_555 1_555
Zn2 N2 1_555 1_555
N1 C13 1_555 1_555
N2 C22 1_555 1_555
O1 C1 1_555 1_555
O2 C1 1_555 1_555
O3 Zn1 1_555 1_555
O4 C12 1_555 1_555
O5 C10 1_555 1_555
O6 C10 1_555 1_555
O7 Zn1 1_555 1_555
O8 H22 1_555 1_555
O9 H23 1_555 1_555
C1 C2 1_555 1_555
C2 H1 1_555 1_555
H2 C2 1_555 1_555
C3 C2 1_555 1_555
C4 C3 1_555 1_555
H3 C4 1_555 1_555
C5 C4 1_555 1_555
C6 C5 1_555 1_555
H4 C6 1_555 1_555
C7 C6 1_555 1_555
C8 C3 1_555 1_555
H5 C8 1_555 1_555
C9 C7 1_555 1_555
H6 C9 1_555 1_555
H7 C9 1_555 1_555
C10 C9 1_555 1_555
C11 C5 1_555 1_555
H8 C11 1_555 1_555
H9 C11 1_555 1_555
C12 O3 1_555 1_555
C13 H10 1_555 1_555
C14 C13 1_555 1_555
H11 C14 1_555 1_555
C15 C14 1_555 1_555
C16 C15 1_555 1_555
H12 C16 1_555 1_555
C17 N1 1_555 1_555
H13 C17 1_555 1_555
C18 C15 1_555 1_555
H14 C18 1_555 1_555
H15 C18 1_555 1_555
C19 C18 1_555 1_555
H16 C19 1_555 1_555
H17 C19 1_555 1_555
C20 C19 1_555 1_555
C21 C20 1_555 1_555
H18 C21 1_555 1_555
C22 C21 1_555 1_555
H19 C22 1_555 1_555
C23 N2 1_555 1_555
H20 C23 1_555 1_555
C24 C20 1_555 1_555
H21 C24 1_555 1_555
H24 O8 1_555 1_555
H25 O9 1_555 1_555
H26 O7 1_555 1_555
Zn1A O5 1_555 1_555
Zn2_2 O1 1_555 1_555
Zn2B O6 1_555 1_555
Zn2C O7 1_555 1_555
O1_2 Zn2 1_555 1_555
O5A Zn1 1_555 1_555
O6B Zn2 1_555 1_555
O7C Zn2 1_555 1_555
H26C O7C 1_555 1_555
C7 C8 1_555 1_555
C11 C12 1_555 1_555
C16 C17 1_555 1_555
C23 C24 1_555 1_555

#END
