
#######################################################################
#
#                 Cambridge Crystallographic Data Centre
#                                CCDC 
#
#######################################################################
#
# If this CIF has been generated from an entry in the Cambridge 
# Structural Database, then it will include bibliographic, chemical, 
# crystal, experimental, refinement or atomic coordinate data resulting 
# from the CCDC's data processing and validation procedures.
#
#######################################################################

data_DOHBEI
_symmetry_cell_setting           triclinic
_symmetry_space_group_name_H-M   'P -1'
_symmetry_Int_Tables_number      2
_space_group_name_Hall           '-P 1'
loop_
_symmetry_equiv_pos_site_id
_symmetry_equiv_pos_as_xyz
1 x,y,z
2 -x,-y,-z
_cell_length_a                   9.2710(11)
_cell_length_b                   10.4023(12)
_cell_length_c                   14.4362(17)
_cell_angle_alpha                71.676(2)
_cell_angle_beta                 81.677(2)
_cell_angle_gamma                66.020(2)
_cell_volume                     1207.32
loop_
_atom_site_label
_atom_site_type_symbol
_atom_site_fract_x
_atom_site_fract_y
_atom_site_fract_z
Zn1 Zn 0.02087(4) 0.51084(4) 0.19472(2)
Zn2 Zn -0.00998(4) 1.30857(4) -0.58932(2)
N1 N 0.1632(3) 1.1444(3) -0.49922(17)
N2 N 0.1650(3) 0.5800(3) 0.08900(16)
O1 O 0.0604(3) 0.3173(2) 0.17360(14)
O2 O -0.0181(3) 0.2040(3) 0.31740(15)
O3 O 0.2309(3) -0.3487(3) 0.53295(15)
O4 O 0.1038(3) -0.4138(3) 0.45329(16)
O5 O 0.8481(3) -0.2011(3) 0.1808(2)
O6 O 0.8052(2) -0.3744(2) 0.14859(16)
O7 O 0.0634(3) 0.4530(3) 0.32869(16)
C1 C 0.0232(3) 0.2162(3) 0.2299(2)
C2 C 0.0320(3) 0.0952(3) 0.1899(2)
H1 H 0.0198 0.1324 0.1197
H2 H -0.0537 0.0633 0.2178
C3 C 0.1882(3) -0.0339(3) 0.21363(19)
C4 C 0.3221(3) -0.0291(3) 0.1595(2)
H3 H 0.3157 0.0553 0.1096
C5 C 0.4660(3) -0.1471(3) 0.1775(2)
C6 C 0.4740(3) -0.2709(3) 0.2540(2)
H4 H 0.5698 -0.3506 0.2677
C7 C 0.3419(3) -0.2773(3) 0.31001(19)
C8 C 0.1997(3) -0.1587(3) 0.2892(2)
H5 H 0.1103 -0.1628 0.3265
C9 C 0.3554(4) -0.4176(3) 0.3897(2)
H6 H 0.3562 -0.4898 0.3601
H7 H 0.4548 -0.4565 0.4225
C10 C 0.2226(4) -0.3945(3) 0.4636(2)
C11 C 0.6040(4) -0.1397(4) 0.1100(3)
H8 H 0.6002 -0.0403 0.0920
H9 H 0.5918 -0.1594 0.0509
C12 C 0.7650(4) -0.2436(3) 0.1504(2)
C13 C 0.2165(4) 1.0050(4) -0.5007(2)
H10 H 0.1699 0.9818 -0.5426
C14 C 0.3368(4) 0.8945(4) -0.4434(2)
H11 H 0.3689 0.7989 -0.4466
C15 C 0.4104(4) 0.9244(4) -0.3808(2)
C16 C 0.3547(4) 1.0681(4) -0.3798(2)
H12 H 0.4001 1.0940 -0.3387
C17 C 0.2335(4) 1.1737(4) -0.4382(2)
H13 H 0.1985 1.2698 -0.4354
C18 C 0.5411(4) 0.8015(4) -0.3166(2)
H14 H 0.5969 0.8430 -0.2903
H15 H 0.6156 0.7420 -0.3558
C19 C 0.4788(4) 0.7033(4) -0.2318(2)
H16 H 0.3972 0.6859 -0.2552
H17 H 0.5640 0.6094 -0.2072
C20 C 0.4131(4) 0.7738(4) -0.1520(2)
H18 H 0.3382 0.8725 -0.1801
H19 H 0.4987 0.7825 -0.1262
C21 C 0.3317(4) 0.6985(4) -0.0674(2)
C22 C 0.2751(4) 0.7573(4) 0.0102(2)
H20 H 0.2924 0.8388 0.0112
C23 C 0.1942(4) 0.6971(4) 0.0852(2)
H21 H 0.1574 0.7396 0.1363
C24 C 0.2197(4) 0.5206(4) 0.0155(2)
H22 H 0.2009 0.4388 0.0167
C25 C 0.3038(4) 0.5760(4) -0.0627(2)
H23 H 0.3417 0.5306 -0.1123
H24 H 0.067(5) 0.498(4) 0.349(3)
Zn1_2 Zn 1.02087(4) -0.48916(4) 0.19472(2)
Zn2_2 Zn -0.00998(4) 0.30857(4) 0.41068(2)
Zn2A Zn 0.00998(4) -0.30857(4) 0.58932(2)
O2_2 O -0.0181(3) 1.2040(3) -0.68260(15)
O3A O -0.2309(3) 1.3487(3) -0.53295(15)
O4A O -0.1038(3) 1.4138(3) -0.45329(16)
O6_2 O -0.1948(2) 0.6256(2) 0.14859(16)
O7_2 O 0.0634(3) 1.4530(3) -0.67131(16)
H24_2 H 0.067(5) 1.498(4) -0.651(3)
loop_
_geom_bond_atom_site_label_1
_geom_bond_atom_site_label_2
_geom_bond_site_symmetry_1
_geom_bond_site_symmetry_2
Zn1 N2 1_555 1_555
Zn2 N1 1_555 1_555
N1 C13 1_555 1_555
N2 C23 1_555 1_555
O1 Zn1 1_555 1_555
O2 C1 1_555 1_555
O3 C10 1_555 1_555
O4 C10 1_555 1_555
O5 C12 1_555 1_555
O6 C12 1_555 1_555
O7 Zn1 1_555 1_555
C1 O1 1_555 1_555
C2 C1 1_555 1_555
H1 C2 1_555 1_555
H2 C2 1_555 1_555
C3 C2 1_555 1_555
C4 C3 1_555 1_555
H3 C4 1_555 1_555
C5 C4 1_555 1_555
C6 C5 1_555 1_555
H4 C6 1_555 1_555
C7 C6 1_555 1_555
C8 C3 1_555 1_555
H5 C8 1_555 1_555
C9 C7 1_555 1_555
H6 C9 1_555 1_555
H7 C9 1_555 1_555
C10 C9 1_555 1_555
C11 C5 1_555 1_555
H8 C11 1_555 1_555
H9 C11 1_555 1_555
C12 C11 1_555 1_555
C13 H10 1_555 1_555
C14 C13 1_555 1_555
H11 C14 1_555 1_555
C15 C14 1_555 1_555
C16 C15 1_555 1_555
H12 C16 1_555 1_555
C17 N1 1_555 1_555
H13 C17 1_555 1_555
C18 C15 1_555 1_555
H14 C18 1_555 1_555
H15 C18 1_555 1_555
C19 C18 1_555 1_555
H16 C19 1_555 1_555
H17 C19 1_555 1_555
C20 C19 1_555 1_555
H18 C20 1_555 1_555
H19 C20 1_555 1_555
C21 C20 1_555 1_555
C22 C21 1_555 1_555
H20 C22 1_555 1_555
C23 C22 1_555 1_555
H21 C23 1_555 1_555
C24 N2 1_555 1_555
H22 C24 1_555 1_555
C25 C21 1_555 1_555
H23 C25 1_555 1_555
H24 O7 1_555 1_555
Zn1_2 O6 1_555 1_555
Zn2_2 O2 1_555 1_555
Zn2A O3 1_555 1_555
O2_2 Zn2 1_555 1_555
O3A Zn2 1_555 1_555
O4A Zn2 1_555 1_555
O6_2 Zn1 1_555 1_555
O7_2 Zn2 1_555 1_555
H24_2 O7_2 1_555 1_555
O4 Zn2A 1_555 1_555
O7 Zn2_2 1_555 1_555
C7 C8 1_555 1_555
C16 C17 1_555 1_555
C24 C25 1_555 1_555

#END
