
#######################################################################
#
#                 Cambridge Crystallographic Data Centre
#                                CCDC 
#
#######################################################################
#
# If this CIF has been generated from an entry in the Cambridge 
# Structural Database, then it will include bibliographic, chemical, 
# crystal, experimental, refinement or atomic coordinate data resulting 
# from the CCDC's data processing and validation procedures.
#
#######################################################################

data_DOHBOS
_symmetry_cell_setting           triclinic
_symmetry_space_group_name_H-M   'P -1'
_symmetry_Int_Tables_number      2
_space_group_name_Hall           '-P 1'
loop_
_symmetry_equiv_pos_site_id
_symmetry_equiv_pos_as_xyz
1 x,y,z
2 -x,-y,-z
_cell_length_a                   9.4888(16)
_cell_length_b                   9.7903(15)
_cell_length_c                   12.949(2)
_cell_angle_alpha                71.607(4)
_cell_angle_beta                 68.933(4)
_cell_angle_gamma                78.040(4)
_cell_volume                     1059.2
loop_
_atom_site_label
_atom_site_type_symbol
_atom_site_fract_x
_atom_site_fract_y
_atom_site_fract_z
Cd1 Cd 0.0000 0.0000 0.0000
Cd2 Cd -0.68650(15) 0.18161(14) -0.26368(11)
O1 O -0.4966(16) 0.3257(14) -0.4033(11)
O2 O -0.5416(17) 0.3074(16) -0.2209(12)
O3 O -0.0195(16) 0.2429(16) -0.0525(13)
O4 O 0.1211(16) 0.3540(15) -0.2301(13)
O5 O -0.7427(14) 0.9871(12) -0.1006(11)
O6 O -0.5375(15) 0.9520(14) -0.2406(12)
N1 N 0.0580(17) 0.0153(18) 0.1521(13)
N2 N 0.2441(18) 0.1357(17) 0.5987(14)
C1 C -0.353(2) 0.5272(19) -0.2692(16)
C2 C -0.221(2) 0.4871(19) -0.2376(16)
H1 H -0.1402 0.4256 -0.2742
C3 C -0.208(2) 0.5383(18) -0.1508(17)
C4 C -0.327(2) 0.6266(18) -0.1000(15)
H2 H -0.3170 0.6636 -0.0436
C5 C -0.461(2) 0.665(2) -0.1272(17)
C6 C -0.473(2) 0.614(2) -0.2147(17)
H3 H -0.5625 0.6395 -0.2359
C7 C -0.364(2) 0.474(2) -0.3625(17)
H4 H -0.2613 0.4314 -0.4014
H5 H -0.3933 0.5578 -0.4200
C8 C -0.474(2) 0.362(2) -0.3251(17)
C9 C -0.064(2) 0.4995(19) -0.1194(17)
H6 H 0.0051 0.5743 -0.1685
H7 H -0.0892 0.5021 -0.0389
C10 C 0.017(2) 0.3552(18) -0.1312(18)
C11 C -0.587(2) 0.761(2) -0.071(2)
H8 H -0.5632 0.7749 -0.0066
H9 H -0.6803 0.7113 -0.0374
C12 C -0.622(2) 0.908(2) -0.1437(16)
C13 C 0.179(2) -0.059(2) 0.1808(17)
H10 H 0.2394 -0.1282 0.1410
C14 C 0.221(2) -0.038(2) 0.2673(18)
H11 H 0.3100 -0.0905 0.2840
C15 C 0.133(2) 0.061(2) 0.3290(15)
C16 C 0.010(2) 0.137(2) 0.2973(18)
H12 H -0.0536 0.2051 0.3375
C17 C -0.023(2) 0.117(2) 0.2083(17)
H13 H -0.1046 0.1767 0.1851
C18 C 0.143(2) 0.225(2) 0.5520(18)
H14 H 0.0938 0.3066 0.5809
C19 C 0.108(2) 0.205(2) 0.4640(18)
H15 H 0.0390 0.2744 0.4316
C20 C 0.175(2) 0.084(2) 0.4217(15)
C21 C 0.283(2) -0.0056(19) 0.4674(15)
H16 H 0.3403 -0.0828 0.4357
C22 C 0.307(2) 0.017(2) 0.5594(16)
H17 H 0.3700 -0.0534 0.5968
Cd1_2 Cd -1.0000 1.0000 0.0000
Cd1_3 Cd 1.0000 -1.0000 0.0000
Cd2A Cd 0.68650(15) -0.18161(14) 0.26368(11)
Cd2_2 Cd 0.31350(15) 0.18161(14) -0.26368(11)
Cd2_3 Cd -0.68650(15) 1.18161(14) -0.26368(11)
Cd2_4 Cd 0.31350(15) 0.18161(14) 0.73632(11)
Cd2A_2 Cd -0.31350(15) -0.18161(14) 0.26368(11)
Cd2A_3 Cd 0.68650(15) -1.18161(14) 0.26368(11)
Cd2A_4 Cd -0.31350(15) -0.18161(14) -0.73632(11)
O1A O 0.4966(16) -0.3257(14) 0.4033(11)
O2A O 0.5416(17) -0.3074(16) 0.2209(12)
O3A O 0.0195(16) -0.2429(16) 0.0525(13)
O4A O -0.1211(16) -0.3540(15) 0.2301(13)
O4_2 O -0.8789(16) 0.3540(15) -0.2301(13)
O4A_2 O 0.8789(16) -0.3540(15) 0.2301(13)
O5A O 0.7427(14) -0.9871(12) 0.1006(11)
O5_2 O 0.2573(14) -0.0129(12) -0.1006(11)
O5A_2 O -0.2573(14) 0.0129(12) 0.1006(11)
O5_3 O -0.7427(14) -0.0129(12) -0.1006(11)
O5A_3 O 0.7427(14) 0.0129(12) 0.1006(11)
O6A O 0.5375(15) -0.9520(14) 0.2406(12)
O6_2 O -0.5375(15) -0.0480(14) -0.2406(12)
O6A_2 O 0.5375(15) 0.0480(14) 0.2406(12)
N1A N -0.0580(17) -0.0153(18) -0.1521(13)
N2A N -0.2441(18) -0.1357(17) -0.5987(14)
N2_2 N -0.7559(18) 0.1357(17) -0.4013(14)
N2A_2 N 0.7559(18) -0.1357(17) 0.4013(14)
C1A C 0.353(2) -0.5272(19) 0.2692(16)
C2A C 0.221(2) -0.4871(19) 0.2376(16)
H1A H 0.1402 -0.4256 0.2742
C3A C 0.208(2) -0.5383(18) 0.1508(17)
C4A C 0.327(2) -0.6266(18) 0.1000(15)
H2A H 0.3170 -0.6636 0.0436
C5A C 0.461(2) -0.665(2) 0.1272(17)
C6A C 0.473(2) -0.614(2) 0.2147(17)
H3A H 0.5625 -0.6395 0.2359
C7A C 0.364(2) -0.474(2) 0.3625(17)
H4A H 0.2613 -0.4314 0.4014
H5A H 0.3933 -0.5578 0.4200
C8A C 0.474(2) -0.362(2) 0.3251(17)
C9A C 0.064(2) -0.4995(19) 0.1194(17)
H6A H -0.0051 -0.5743 0.1685
H7A H 0.0892 -0.5021 0.0389
C10A C -0.017(2) -0.3552(18) 0.1312(18)
C11A C 0.587(2) -0.761(2) 0.071(2)
H8A H 0.5632 -0.7749 0.0066
H9A H 0.6803 -0.7113 0.0374
C12A C 0.622(2) -0.908(2) 0.1437(16)
C13A C -0.179(2) 0.059(2) -0.1808(17)
H10A H -0.2394 0.1282 -0.1410
C14A C -0.221(2) 0.038(2) -0.2673(18)
H11A H -0.3100 0.0905 -0.2840
C15A C -0.133(2) -0.061(2) -0.3290(15)
C16A C -0.010(2) -0.137(2) -0.2973(18)
H12A H 0.0536 -0.2051 -0.3375
C17A C 0.023(2) -0.117(2) -0.2083(17)
H13A H 0.1046 -0.1767 -0.1851
C18A C -0.143(2) -0.225(2) -0.5520(18)
H14A H -0.0938 -0.3066 -0.5809
C19A C -0.108(2) -0.205(2) -0.4640(18)
H15A H -0.0390 -0.2744 -0.4316
C20A C -0.175(2) -0.084(2) -0.4217(15)
C21A C -0.283(2) 0.0056(19) -0.4674(15)
H16A H -0.3403 0.0828 -0.4357
C22A C -0.307(2) -0.017(2) -0.5594(16)
H17A H -0.3700 0.0534 -0.5968
O7 O 0.749(2) 0.3765(17) 0.3820(15)
loop_
_geom_bond_atom_site_label_1
_geom_bond_atom_site_label_2
_geom_bond_site_symmetry_1
_geom_bond_site_symmetry_2
Cd1 O3 1_555 1_555
Cd2 O1 1_555 1_555
O1 C8 1_555 1_555
O2 Cd2 1_555 1_555
O3 C10 1_555 1_555
O4 C10 1_555 1_555
O5 C12 1_555 1_555
O6 C12 1_555 1_555
N1 Cd1 1_555 1_555
N2 C18 1_555 1_555
C1 C2 1_555 1_555
C2 H1 1_555 1_555
C3 C2 1_555 1_555
C4 C3 1_555 1_555
H2 C4 1_555 1_555
C5 C4 1_555 1_555
C6 C1 1_555 1_555
H3 C6 1_555 1_555
C7 C1 1_555 1_555
H4 C7 1_555 1_555
H5 C7 1_555 1_555
C8 O2 1_555 1_555
C9 C3 1_555 1_555
H6 C9 1_555 1_555
H7 C9 1_555 1_555
C10 C9 1_555 1_555
C11 C5 1_555 1_555
H8 C11 1_555 1_555
H9 C11 1_555 1_555
C12 C11 1_555 1_555
C13 N1 1_555 1_555
H10 C13 1_555 1_555
C14 C13 1_555 1_555
H11 C14 1_555 1_555
C15 C14 1_555 1_555
C16 C15 1_555 1_555
H12 C16 1_555 1_555
C17 N1 1_555 1_555
H13 C17 1_555 1_555
C18 H14 1_555 1_555
C19 C18 1_555 1_555
H15 C19 1_555 1_555
C20 C15 1_555 1_555
C21 C20 1_555 1_555
H16 C21 1_555 1_555
C22 N2 1_555 1_555
H17 C22 1_555 1_555
Cd1_2 O5 1_555 1_555
Cd1_3 O5A 1_555 1_555
Cd2A O1A 1_555 1_555
Cd2_2 O4 1_555 1_555
Cd2_3 O5 1_555 1_555
Cd2_4 N2 1_555 1_555
Cd2A_2 O4A 1_555 1_555
Cd2A_3 O5A 1_555 1_555
Cd2A_4 N2A 1_555 1_555
O1A C8A 1_555 1_555
O2A Cd2A 1_555 1_555
O3A Cd1 1_555 1_555
O4A C10A 1_555 1_555
O4_2 Cd2 1_555 1_555
O4A_2 Cd2A 1_555 1_555
O5A C12A 1_555 1_555
O5_2 Cd1 1_555 1_555
O5A_2 Cd1 1_555 1_555
O5_3 Cd2 1_555 1_555
O5A_3 Cd2A 1_555 1_555
O6A Cd2A_3 1_555 1_555
O6_2 Cd2 1_555 1_555
O6A_2 Cd2A 1_555 1_555
N1A Cd1 1_555 1_555
N2A C18A 1_555 1_555
N2_2 Cd2 1_555 1_555
N2A_2 Cd2A 1_555 1_555
C1A C2A 1_555 1_555
C2A H1A 1_555 1_555
C3A C2A 1_555 1_555
C4A C3A 1_555 1_555
H2A C4A 1_555 1_555
C5A C4A 1_555 1_555
C6A C1A 1_555 1_555
H3A C6A 1_555 1_555
C7A C1A 1_555 1_555
H4A C7A 1_555 1_555
H5A C7A 1_555 1_555
C8A O2A 1_555 1_555
C9A C3A 1_555 1_555
H6A C9A 1_555 1_555
H7A C9A 1_555 1_555
C10A O3A 1_555 1_555
C11A C5A 1_555 1_555
H8A C11A 1_555 1_555
H9A C11A 1_555 1_555
C12A O6A 1_555 1_555
C13A N1A 1_555 1_555
H10A C13A 1_555 1_555
C14A C13A 1_555 1_555
H11A C14A 1_555 1_555
C15A C14A 1_555 1_555
C16A C15A 1_555 1_555
H12A C16A 1_555 1_555
C17A N1A 1_555 1_555
H13A C17A 1_555 1_555
C18A H14A 1_555 1_555
C19A C18A 1_555 1_555
H15A C19A 1_555 1_555
C20A C15A 1_555 1_555
C21A C20A 1_555 1_555
H16A C21A 1_555 1_555
C22A N2A 1_555 1_555
H17A C22A 1_555 1_555
O6 Cd2_3 1_555 1_555
C5 C6 1_555 1_555
C7 C8 1_555 1_555
C16 C17 1_555 1_555
C19 C20 1_555 1_555
C21 C22 1_555 1_555
Cd2_2 O5_2 1_555 1_555
Cd2A_2 O5A_2 1_555 1_555
C5A C6A 1_555 1_555
C7A C8A 1_555 1_555
C9A C10A 1_555 1_555
C11A C12A 1_555 1_555
C16A C17A 1_555 1_555
C19A C20A 1_555 1_555
C21A C22A 1_555 1_555

#END
