
#######################################################################
#
#                 Cambridge Crystallographic Data Centre
#                                CCDC 
#
#######################################################################
#
# If this CIF has been generated from an entry in the Cambridge 
# Structural Database, then it will include bibliographic, chemical, 
# crystal, experimental, refinement or atomic coordinate data resulting 
# from the CCDC's data processing and validation procedures.
#
#######################################################################

data_DOHCUA
_symmetry_cell_setting           monoclinic
_symmetry_space_group_name_H-M   'C 2'
_symmetry_Int_Tables_number      5
_space_group_name_Hall           'C 2y'
loop_
_symmetry_equiv_pos_site_id
_symmetry_equiv_pos_as_xyz
1 x,y,z
2 -x,y,-z
3 1/2+x,1/2+y,z
4 1/2-x,1/2+y,-z
_cell_length_a                   29.744(3)
_cell_length_b                   9.3103(8)
_cell_length_c                   15.7335(14)
_cell_angle_alpha                90
_cell_angle_beta                 102.3020(10)
_cell_angle_gamma                90
_cell_volume                     4256.96
loop_
_atom_site_label
_atom_site_type_symbol
_atom_site_fract_x
_atom_site_fract_y
_atom_site_fract_z
Zn1 Zn 0.261247(9) 0.14172(3) 0.120906(17)
S1 S 0.28440(2) 0.31742(7) -0.06072(4)
N1 N 0.19457(8) 0.2387(3) 0.10223(15)
N2 N 0.03552(9) 0.3773(3) 0.12933(19)
N3 N -0.00414(9) 0.4633(3) 0.12592(19)
N4 N -0.16939(8) 0.5641(3) 0.14197(15)
O1 O 0.27023(7) 0.2217(2) 0.00312(13)
O2 O 0.26196(8) 0.2687(2) -0.14888(13)
O3 O 0.33461(7) 0.3169(3) -0.04869(14)
O4 O 0.26800(7) 0.4652(2) -0.04762(12)
O5 O 0.28427(7) 0.3293(2) 0.19891(12)
O6 O 0.25444(7) 0.0416(2) 0.23643(13)
C1 C 0.15994(10) 0.1671(3) 0.1276(2)
H1 H 0.1647 0.0720 0.1453
C2 C 0.11817(11) 0.2291(4) 0.1283(2)
H2 H 0.0955 0.1771 0.1473
C3 C 0.10999(10) 0.3714(3) 0.1000(2)
C4 C 0.14552(11) 0.4450(3) 0.07293(19)
H3 H 0.1417 0.5398 0.0541
C5 C 0.18654(10) 0.3734(3) 0.07478(18)
H4 H 0.2098 0.4222 0.0557
C6 C 0.06642(10) 0.4422(4) 0.1012(2)
H5 H 0.0615 0.5360 0.0811
C7 C -0.03596(11) 0.3900(4) 0.1488(2)
H6 H -0.0306 0.2947 0.1656
C8 C -0.08188(10) 0.4563(4) 0.14893(19)
C9 C -0.11693(10) 0.3656(4) 0.1633(2)
H7 H -0.1116 0.2685 0.1751
C10 C -0.16017(10) 0.4261(3) 0.1594(2)
H8 H -0.1837 0.3671 0.1694
C11 C -0.13499(9) 0.6498(4) 0.12985(18)
H9 H -0.1409 0.7469 0.1193
C12 C -0.09137(11) 0.5993(3) 0.1325(2)
H10 H -0.0684 0.6615 0.1233
H11 H 0.3022(11) 0.300(4) 0.2549(15)
H12 H 0.2987(12) 0.404(3) 0.177(2)
H13 H 0.2574(12) 0.107(3) 0.2793(19)
H14 H 0.2247(8) 0.001(4) 0.219(2)
Zn1B Zn -0.238753(9) 0.64172(3) 0.120906(17)
Zn1C Zn 0.238753(9) 0.64172(3) -0.120906(17)
N4B N 0.33061(8) 0.0641(3) 0.14197(15)
O4C O 0.23200(7) -0.0348(2) 0.04762(12)
Zn2 Zn 0.223998(9) 0.63856(4) 0.377822(17)
S2 S 0.22831(2) 0.79851(7) 0.58410(4)
N5 N 0.15678(8) 0.5568(3) 0.36973(15)
N6 N -0.00871(9) 0.4508(3) 0.38049(19)
N7 N -0.04773(9) 0.3625(3) 0.37502(19)
N8 N -0.20991(8) 0.2336(3) 0.38998(14)
O7 O 0.21789(7) 0.7176(2) 0.50315(12)
O8 O 0.26633(7) 0.7309(2) 0.64587(13)
O9 O 0.24147(6) 0.9466(2) 0.56499(12)
O10 O 0.18765(7) 0.8037(2) 0.62345(12)
O11 O 0.22378(7) 0.5552(2) 0.25369(12)
O12 O 0.19519(6) 0.8288(2) 0.31418(12)
C13 C 0.12390(9) 0.6375(4) 0.39461(17)
H15 H 0.1308 0.7311 0.4135
C14 C 0.08072(10) 0.5840(3) 0.3925(2)
H16 H 0.0586 0.6410 0.4100
C15 C 0.07005(10) 0.4439(4) 0.3640(2)
C16 C 0.10334(10) 0.3638(3) 0.3369(2)
H17 H 0.0972 0.2702 0.3171
C17 C 0.14613(10) 0.4246(3) 0.33955(19)
H18 H 0.1682 0.3713 0.3196
C18 C 0.02409(10) 0.3775(4) 0.3607(2)
H19 H 0.0192 0.2819 0.3442
C19 C -0.08062(10) 0.4332(4) 0.3960(2)
H20 H -0.0763 0.5289 0.4128
C20 C -0.12523(10) 0.3630(3) 0.39336(19)
C21 C -0.16107(10) 0.4383(3) 0.41562(19)
H21 H -0.1573 0.5343 0.4320
C22 C -0.20253(10) 0.3695(3) 0.41318(18)
H22 H -0.2263 0.4212 0.4286
C23 C -0.17535(10) 0.1602(3) 0.36718(19)
H23 H -0.1805 0.0653 0.3491
C24 C -0.13282(11) 0.2196(4) 0.3694(2)
H24 H -0.1094 0.1647 0.3551
H25 H 0.2313(13) 0.470(2) 0.229(2)
H26 H 0.2283(13) 0.631(3) 0.216(2)
H27 H 0.1714(9) 0.801(4) 0.2672(17)
H28 H 0.1806(12) 0.898(3) 0.344(2)
Zn2B Zn -0.276002(9) 0.13856(4) 0.377822(17)
Zn2C Zn 0.276002(9) 1.13856(4) 0.622178(17)
N8B N 0.29009(8) 0.7336(3) 0.38998(14)
O9C O 0.25853(6) 0.4466(2) 0.43501(12)
O13 O 0.30949(8) 0.5626(3) 0.12137(15)
H29 H 0.2889(9) 0.637(3) 0.119(2)
H30 H 0.3395(6) 0.587(4) 0.145(2)
O14 O 0.12323(9) 0.7763(4) 0.18704(16)
H31 H 0.1416(10) 0.761(4) 0.153(2)
H32 H 0.0926(7) 0.805(4) 0.177(2)
O15 O 0.17733(7) 0.0466(2) 0.41897(13)
H33 H 0.1861(12) 0.127(3) 0.394(2)
H34 H 0.1986(10) 0.020(4) 0.4724(16)
loop_
_geom_bond_atom_site_label_1
_geom_bond_atom_site_label_2
_geom_bond_site_symmetry_1
_geom_bond_site_symmetry_2
Zn1 N1 1_555 1_555
S1 O1 1_555 1_555
N1 C1 1_555 1_555
N2 N3 1_555 1_555
N3 C7 1_555 1_555
N4 C10 1_555 1_555
O1 Zn1 1_555 1_555
O2 S1 1_555 1_555
O3 S1 1_555 1_555
O4 S1 1_555 1_555
O5 Zn1 1_555 1_555
O6 Zn1 1_555 1_555
C1 H1 1_555 1_555
C2 C1 1_555 1_555
H2 C2 1_555 1_555
C3 C2 1_555 1_555
C4 C3 1_555 1_555
H3 C4 1_555 1_555
C5 N1 1_555 1_555
H4 C5 1_555 1_555
C6 N2 1_555 1_555
H5 C6 1_555 1_555
C7 H6 1_555 1_555
C8 C7 1_555 1_555
C9 C8 1_555 1_555
H7 C9 1_555 1_555
C10 C9 1_555 1_555
H8 C10 1_555 1_555
C11 N4 1_555 1_555
H9 C11 1_555 1_555
C12 C8 1_555 1_555
H10 C12 1_555 1_555
H11 O5 1_555 1_555
H12 O5 1_555 1_555
H13 O6 1_555 1_555
H14 O6 1_555 1_555
Zn2 N5 1_555 1_555
S2 O7 1_555 1_555
N5 C13 1_555 1_555
N6 N7 1_555 1_555
N7 C19 1_555 1_555
N8 C22 1_555 1_555
O7 Zn2 1_555 1_555
O8 S2 1_555 1_555
O9 S2 1_555 1_555
O10 S2 1_555 1_555
O11 Zn2 1_555 1_555
O12 Zn2 1_555 1_555
C13 H15 1_555 1_555
C14 C13 1_555 1_555
H16 C14 1_555 1_555
C15 C14 1_555 1_555
C16 C15 1_555 1_555
H17 C16 1_555 1_555
C17 N5 1_555 1_555
H18 C17 1_555 1_555
C18 N6 1_555 1_555
H19 C18 1_555 1_555
C19 H20 1_555 1_555
C20 C19 1_555 1_555
C21 C20 1_555 1_555
H21 C21 1_555 1_555
C22 C21 1_555 1_555
H22 C22 1_555 1_555
C23 N8 1_555 1_555
H23 C23 1_555 1_555
C24 C20 1_555 1_555
H24 C24 1_555 1_555
H25 O11 1_555 1_555
H26 O11 1_555 1_555
H27 O12 1_555 1_555
H28 O12 1_555 1_555
O13 H29 1_555 1_555
H30 O13 1_555 1_555
O14 H31 1_555 1_555
H32 O14 1_555 1_555
O15 H33 1_555 1_555
H34 O15 1_555 1_555
Zn1B N4 1_555 1_555
Zn1C O4 1_555 1_555
N4B Zn1 1_555 1_555
O4C Zn1 1_555 1_555
Zn2B N8 1_555 1_555
Zn2C O9 1_555 1_555
N8B Zn2 1_555 1_555
O9C Zn2 1_555 1_555
C3 C6 1_555 1_555
C4 C5 1_555 1_555
C11 C12 1_555 1_555
C15 C18 1_555 1_555
C16 C17 1_555 1_555
C23 C24 1_555 1_555

#END
