
#######################################################################
#
#                 Cambridge Crystallographic Data Centre
#                                CCDC 
#
#######################################################################
#
# If this CIF has been generated from an entry in the Cambridge 
# Structural Database, then it will include bibliographic, chemical, 
# crystal, experimental, refinement or atomic coordinate data resulting 
# from the CCDC's data processing and validation procedures.
#
#######################################################################

data_DOHCEJ
_symmetry_cell_setting           monoclinic
_symmetry_space_group_name_H-M   'P 21/n'
_symmetry_Int_Tables_number      14
_space_group_name_Hall           '-P 2yn'
loop_
_symmetry_equiv_pos_site_id
_symmetry_equiv_pos_as_xyz
1 x,y,z
2 1/2-x,1/2+y,1/2-z
3 -x,-y,-z
4 1/2+x,1/2-y,1/2+z
_cell_length_a                   9.805(2)
_cell_length_b                   25.549(5)
_cell_length_c                   21.396(4)
_cell_angle_alpha                90
_cell_angle_beta                 96.87(3)
_cell_angle_gamma                90
_cell_volume                     5321.38
loop_
_atom_site_label
_atom_site_type_symbol
_atom_site_fract_x
_atom_site_fract_y
_atom_site_fract_z
Ag1 Ag 0.40409(4) 0.554531(16) 0.256750(18)
Ag2 Ag 0.05979(5) 0.791210(16) -0.262370(18)
P1 P 0.55222(13) 0.49041(5) 0.30955(5)
P2 P -0.07653(14) 0.72354(5) -0.31301(6)
N1 N 0.2021(4) 0.55908(15) 0.19446(18)
N2 N 0.2896(5) 0.54267(19) 0.1010(2)
H1 H 0.364(8) 0.550(3) 0.124(3)
N3 N 0.1609(5) 0.77351(19) -0.1156(2)
H2 H 0.0837 0.7756 -0.1392
N4 N 0.2618(4) 0.79677(14) -0.20294(17)
N5 N 0.3576(5) 0.64683(19) 0.3533(2)
N6 N 0.6079(5) 0.61138(16) 0.15242(19)
O1 O 0.4233(5) 0.64406(16) 0.3065(2)
O2 O 0.2858(5) 0.6098(2) 0.3637(2)
O3 O 0.3672(6) 0.6850(2) 0.3874(3)
O4 O 0.5413(5) 0.61933(16) 0.19750(19)
O5 O 0.5949(4) 0.56864(15) 0.12448(19)
O6 O 0.6841(5) 0.64551(16) 0.13640(19)
C1 C 0.1780(5) 0.54941(18) 0.1323(2)
C2 C 0.0439(6) 0.54527(19) 0.1022(3)
H3 H 0.0290 0.5398 0.0589
C3 C -0.0648(6) 0.5492(2) 0.1358(3)
H4 H -0.1540 0.5454 0.1160
C4 C -0.0410(6) 0.5591(2) 0.2003(3)
H5 H -0.1130 0.5628 0.2246
C5 C 0.0929(6) 0.5632(2) 0.2263(3)
H6 H 0.1096 0.5693 0.2694
C6 C 0.2857(7) 0.5467(2) 0.0328(2)
H7 H 0.2174 0.5226 0.0129
H8 H 0.3743 0.5366 0.0208
C7 C 0.2513(6) 0.6021(2) 0.0088(2)
C8 C 0.3344(6) 0.6436(2) 0.0311(2)
H9 H 0.4109 0.6371 0.0601
C9 C 0.3061(6) 0.6939(2) 0.0112(2)
H10 H 0.3641 0.7209 0.0270
C10 C 0.1940(6) 0.7055(2) -0.0314(2)
C11 C 0.1128(6) 0.6648(2) -0.0547(3)
H11 H 0.0375 0.6714 -0.0843
C12 C 0.1410(7) 0.6139(2) -0.0348(3)
H12 H 0.0838 0.5870 -0.0514
C13 C 0.1587(6) 0.7615(2) -0.0488(2)
H13 H 0.0679 0.7691 -0.0375
H14 H 0.2233 0.7843 -0.0241
C14 C 0.2784(5) 0.78164(18) -0.1423(2)
C15 C 0.4101(6) 0.7744(2) -0.1093(2)
H15 H 0.4202 0.7634 -0.0676
C16 C 0.5221(6) 0.7838(2) -0.1394(3)
H16 H 0.6097 0.7788 -0.1184
C17 C 0.5063(6) 0.8008(2) -0.2008(3)
H17 H 0.5823 0.8079 -0.2216
C18 C 0.3757(6) 0.8068(2) -0.2305(2)
H18 H 0.3649 0.8185 -0.2720
C19 C 0.5794(5) 0.43443(19) 0.2588(2)
C20 C 0.5834(7) 0.3834(2) 0.2778(3)
H19 H 0.5707 0.3745 0.3188
C21 C 0.6072(8) 0.3447(3) 0.2341(5)
H20 H 0.6110 0.3098 0.2468
C22 C 0.6246(10) 0.3564(4) 0.1746(5)
H21 H 0.6414 0.3301 0.1464
C23 C 0.6175(10) 0.4070(4) 0.1562(4)
H22 H 0.6286 0.4152 0.1148
C24 C 0.5944(7) 0.4462(3) 0.1968(3)
H23 H 0.5888 0.4807 0.1829
C25 C 0.4964(5) 0.46388(18) 0.3813(2)
C26 C 0.3631(6) 0.4719(2) 0.3925(3)
H24 H 0.3029 0.4899 0.3632
C27 C 0.3174(8) 0.4532(3) 0.4478(3)
H25 H 0.2277 0.4595 0.4557
C28 C 0.4046(8) 0.4254(3) 0.4902(3)
H26 H 0.3732 0.4118 0.5262
C29 C 0.5362(8) 0.4178(3) 0.4799(3)
H27 H 0.5960 0.4000 0.5096
C30 C 0.5830(7) 0.4364(2) 0.4254(2)
H28 H 0.6735 0.4302 0.4184
C31 C 0.7265(5) 0.51273(18) 0.3349(2)
C32 C 0.8389(5) 0.4798(2) 0.3372(2)
H29 H 0.8279 0.4454 0.3233
C33 C 0.9675(6) 0.4981(2) 0.3603(3)
H30 H 1.0430 0.4760 0.3613
C34 C 0.9857(6) 0.5483(2) 0.3818(3)
H31 H 1.0725 0.5599 0.3984
C35 C 0.8753(6) 0.5817(2) 0.3786(3)
H32 H 0.8877 0.6162 0.3922
C36 C 0.7453(6) 0.56407(18) 0.3551(2)
H33 H 0.6706 0.5867 0.3530
C37 C -0.2503(5) 0.74243(18) -0.3455(2)
C38 C -0.2899(6) 0.79365(18) -0.3407(2)
H34 H -0.2282 0.8177 -0.3206
C39 C -0.4181(6) 0.8100(2) -0.3648(3)
H35 H -0.4428 0.8449 -0.3615
C40 C -0.5116(6) 0.7744(2) -0.3943(3)
H36 H -0.5997 0.7850 -0.4101
C41 C -0.4719(6) 0.7231(2) -0.3997(3)
H37 H -0.5335 0.6991 -0.4198
C42 C -0.3423(6) 0.70678(19) -0.3758(3)
H38 H -0.3166 0.6720 -0.3799
C43 C 0.0004(5) 0.69514(18) -0.3789(2)
C44 C 0.0954(6) 0.7247(2) -0.4070(3)
H39 H 0.1212 0.7576 -0.3911
C45 C 0.1520(6) 0.7053(3) -0.4591(3)
H40 H 0.2152 0.7254 -0.4777
C46 C 0.1157(7) 0.6571(3) -0.4831(3)
H41 H 0.1539 0.6445 -0.5179
C47 C 0.0229(8) 0.6273(2) -0.4559(3)
H42 H -0.0014 0.5944 -0.4719
C48 C -0.0346(7) 0.6463(2) -0.4047(3)
H43 H -0.0984 0.6259 -0.3869
C49 C -0.1006(5) 0.66741(18) -0.2623(2)
C50 C -0.2190(7) 0.6610(3) -0.2359(3)
H44 H -0.2903 0.6849 -0.2450
C51 C -0.2355(8) 0.6190(3) -0.1952(3)
H45 H -0.3165 0.6147 -0.1773
C52 C -0.1279(10) 0.5846(3) -0.1827(4)
H46 H -0.1378 0.5559 -0.1569
C53 C -0.0091(11) 0.5913(3) -0.2069(3)
H47 H 0.0638 0.5684 -0.1966
C54 C 0.0036(7) 0.6328(2) -0.2472(3)
H48 H 0.0856 0.6372 -0.2644
Ag2C Ag 0.55979(5) 0.708790(16) 0.237630(18)
O1C O -0.0767(5) 0.85594(16) -0.1935(2)
O4C O 0.0413(5) 0.88067(16) -0.30250(19)
O7 O 0.298(2) 0.4124(7) 0.0055(8)
O8? O 0.284(2) 0.3673(7) 0.0186(8)
loop_
_geom_bond_atom_site_label_1
_geom_bond_atom_site_label_2
_geom_bond_site_symmetry_1
_geom_bond_site_symmetry_2
Ag1 P1 1_555 1_555
Ag2 P2 1_555 1_555
P1 C19 1_555 1_555
P2 C37 1_555 1_555
N1 Ag1 1_555 1_555
N2 H1 1_555 1_555
N3 H2 1_555 1_555
N4 Ag2 1_555 1_555
N5 O1 1_555 1_555
N6 O4 1_555 1_555
O1 Ag1 1_555 1_555
O2 N5 1_555 1_555
O3 N5 1_555 1_555
O4 Ag1 1_555 1_555
O5 N6 1_555 1_555
O6 N6 1_555 1_555
C1 N1 1_555 1_555
C2 C1 1_555 1_555
H3 C2 1_555 1_555
C3 C2 1_555 1_555
H4 C3 1_555 1_555
C4 C3 1_555 1_555
H5 C4 1_555 1_555
C5 N1 1_555 1_555
H6 C5 1_555 1_555
C6 N2 1_555 1_555
H7 C6 1_555 1_555
H8 C6 1_555 1_555
C7 C6 1_555 1_555
C8 C7 1_555 1_555
H9 C8 1_555 1_555
C9 C8 1_555 1_555
H10 C9 1_555 1_555
C10 C9 1_555 1_555
C11 C10 1_555 1_555
H11 C11 1_555 1_555
C12 C7 1_555 1_555
H12 C12 1_555 1_555
C13 N3 1_555 1_555
H13 C13 1_555 1_555
H14 C13 1_555 1_555
C14 N3 1_555 1_555
C15 C14 1_555 1_555
H15 C15 1_555 1_555
C16 C15 1_555 1_555
H16 C16 1_555 1_555
C17 C16 1_555 1_555
H17 C17 1_555 1_555
C18 N4 1_555 1_555
H18 C18 1_555 1_555
C19 C20 1_555 1_555
C20 H19 1_555 1_555
C21 C20 1_555 1_555
H20 C21 1_555 1_555
C22 C21 1_555 1_555
H21 C22 1_555 1_555
C23 C22 1_555 1_555
H22 C23 1_555 1_555
C24 C19 1_555 1_555
H23 C24 1_555 1_555
C25 P1 1_555 1_555
C26 C25 1_555 1_555
H24 C26 1_555 1_555
C27 C26 1_555 1_555
H25 C27 1_555 1_555
C28 C27 1_555 1_555
H26 C28 1_555 1_555
C29 C28 1_555 1_555
H27 C29 1_555 1_555
C30 C25 1_555 1_555
H28 C30 1_555 1_555
C31 P1 1_555 1_555
C32 C31 1_555 1_555
H29 C32 1_555 1_555
C33 C32 1_555 1_555
H30 C33 1_555 1_555
C34 C33 1_555 1_555
H31 C34 1_555 1_555
C35 C34 1_555 1_555
H32 C35 1_555 1_555
C36 C31 1_555 1_555
H33 C36 1_555 1_555
C37 C38 1_555 1_555
C38 H34 1_555 1_555
C39 C38 1_555 1_555
H35 C39 1_555 1_555
C40 C39 1_555 1_555
H36 C40 1_555 1_555
C41 C40 1_555 1_555
H37 C41 1_555 1_555
C42 C37 1_555 1_555
H38 C42 1_555 1_555
C43 P2 1_555 1_555
C44 C43 1_555 1_555
H39 C44 1_555 1_555
C45 C44 1_555 1_555
H40 C45 1_555 1_555
C46 C45 1_555 1_555
H41 C46 1_555 1_555
C47 C46 1_555 1_555
H42 C47 1_555 1_555
C48 C43 1_555 1_555
H43 C48 1_555 1_555
C49 P2 1_555 1_555
C50 C49 1_555 1_555
H44 C50 1_555 1_555
C51 C50 1_555 1_555
H45 C51 1_555 1_555
C52 C51 1_555 1_555
H46 C52 1_555 1_555
C53 C52 1_555 1_555
H47 C53 1_555 1_555
C54 C49 1_555 1_555
H48 C54 1_555 1_555
Ag2C O1 1_555 1_555
O1C Ag2 1_555 1_555
O4C Ag2 1_555 1_555
N2 C1 1_555 1_555
N4 C14 1_555 1_555
O4 Ag2C 1_555 1_555
C4 C5 1_555 1_555
C10 C13 1_555 1_555
C11 C12 1_555 1_555
C17 C18 1_555 1_555
C23 C24 1_555 1_555
C29 C30 1_555 1_555
C35 C36 1_555 1_555
C41 C42 1_555 1_555
C47 C48 1_555 1_555
C53 C54 1_555 1_555

#END
