
#######################################################################
#
#                 Cambridge Crystallographic Data Centre
#                                CCDC 
#
#######################################################################
#
# If this CIF has been generated from an entry in the Cambridge 
# Structural Database, then it will include bibliographic, chemical, 
# crystal, experimental, refinement or atomic coordinate data resulting 
# from the CCDC's data processing and validation procedures.
#
#######################################################################

data_DOHCIO
_symmetry_cell_setting           monoclinic
_symmetry_space_group_name_H-M   'C 2'
_symmetry_Int_Tables_number      5
_space_group_name_Hall           'C 2y'
loop_
_symmetry_equiv_pos_site_id
_symmetry_equiv_pos_as_xyz
1 x,y,z
2 -x,y,-z
3 1/2+x,1/2+y,z
4 1/2-x,1/2+y,-z
_cell_length_a                   29.845(2)
_cell_length_b                   9.2860(7)
_cell_length_c                   15.6556(11)
_cell_angle_alpha                90
_cell_angle_beta                 102.0990(10)
_cell_angle_gamma                90
_cell_volume                     4242.43
loop_
_atom_site_label
_atom_site_type_symbol
_atom_site_fract_x
_atom_site_fract_y
_atom_site_fract_z
Co1 Co 0.761387(10) 0.53473(4) 0.620223(19)
S1 S 0.71584(2) 0.21019(7) 0.56105(4)
N1 N 0.69430(8) 0.6299(3) 0.60192(14)
N2 N 0.53464(9) 0.7674(3) 0.62840(18)
N3 N 0.49554(9) 0.8530(3) 0.62516(18)
N4 N 0.33061(8) 0.9537(3) 0.64160(14)
O1 O 0.73252(7) 0.3575(2) 0.54697(12)
O2 O 0.73064(7) 0.1128(2) 0.49883(13)
O3 O 0.66593(7) 0.2099(3) 0.54758(13)
O4 O 0.73722(8) 0.1629(2) 0.65040(13)
O5 O 0.78456(7) 0.7206(2) 0.69678(12)
O6 O 0.75426(7) 0.4348(2) 0.73572(12)
C1 C 0.68621(9) 0.7654(3) 0.57477(17)
H1 H 0.7093 0.8151 0.5557
C2 C 0.64502(10) 0.8362(3) 0.57351(17)
H2 H 0.6411 0.9316 0.5554
C3 C 0.60968(10) 0.7617(3) 0.59986(18)
C4 C 0.61772(10) 0.6194(3) 0.6272(2)
H3 H 0.5950 0.5664 0.6454
C5 C 0.65964(10) 0.5587(3) 0.6268(2)
H4 H 0.6644 0.4634 0.6445
C6 C 0.56633(10) 0.8329(3) 0.60129(19)
H5 H 0.5618 0.9276 0.5821
C7 C 0.46366(10) 0.7789(4) 0.6470(2)
H6 H 0.4689 0.6828 0.6628
C8 C 0.41801(9) 0.8447(4) 0.64759(18)
C9 C 0.40863(10) 0.9896(3) 0.63323(19)
H7 H 0.4317 1.0529 0.6258
C10 C 0.36483(9) 1.0395(4) 0.63008(17)
H8 H 0.3588 1.1368 0.6195
C11 C 0.33986(10) 0.8149(3) 0.65822(19)
H9 H 0.3164 0.7553 0.6680
C12 C 0.38295(10) 0.7546(3) 0.6616(2)
H10 H 0.3882 0.6570 0.6730
H11 H 0.8004(12) 0.699(4) 0.7539(14)
H12 H 0.7959(13) 0.803(3) 0.678(2)
H13 H 0.7495(13) 0.495(3) 0.7780(19)
H14 H 0.7423(14) 0.343(2) 0.737(2)
Co1B Co 0.261387(10) 1.03473(4) 0.620223(19)
Co1C Co 0.738613(10) 0.03473(4) 0.379777(19)
N4B N 0.83061(8) 0.4537(3) 0.64160(14)
O2C O 0.76936(7) 0.6128(2) 0.50117(13)
Co2 Co 0.775811(10) 0.53035(4) 0.120715(19)
S2 S 0.77139(2) 0.69216(7) -0.08422(4)
N5 N 0.70969(8) 0.6260(3) 0.11100(14)
N6 N 0.54790(9) 0.7552(3) 0.12561(18)
N7 N 0.50843(8) 0.8433(3) 0.11992(17)
N8 N 0.34349(7) 0.9477(3) 0.13075(14)
O7 O 0.75836(6) 0.8405(2) -0.06382(11)
O8 O 0.78209(7) 0.6096(2) -0.00279(12)
O9 O 0.73314(7) 0.6249(2) -0.14619(12)
O10 O 0.81180(6) 0.6969(2) -0.12404(11)
O11 O 0.80475(6) 0.7193(2) 0.18357(11)
O12 O 0.77630(7) 0.4476(2) 0.24550(12)
C13 C 0.70194(9) 0.7641(3) 0.08752(17)
H15 H 0.7256 0.8166 0.0721
C14 C 0.66076(9) 0.8317(3) 0.08507(18)
H16 H 0.6569 0.9278 0.0684
C15 C 0.62515(9) 0.7564(3) 0.10750(18)
C16 C 0.63270(10) 0.6114(3) 0.1320(2)
H17 H 0.6095 0.5562 0.1468
C17 C 0.67507(9) 0.5529(3) 0.13345(18)
H18 H 0.6801 0.4575 0.1509
C18 C 0.58078(10) 0.8257(3) 0.1056(2)
H19 H 0.5767 0.9220 0.0897
C19 C 0.47613(10) 0.7691(4) 0.1394(2)
H20 H 0.4811 0.6731 0.1554
C20 C 0.43037(9) 0.8350(4) 0.13678(18)
C21 C 0.41966(10) 0.9752(3) 0.10762(19)
H21 H 0.4416 1.0327 0.0901
C22 C 0.37601(9) 1.0278(4) 0.10510(17)
H22 H 0.3689 1.1211 0.0852
C23 C 0.35439(10) 0.8158(3) 0.16104(19)
H23 H 0.3324 0.7617 0.1808
C24 C 0.39739(10) 0.7553(3) 0.1645(2)
H24 H 0.4037 0.6620 0.1852
H25 H 0.8289(10) 0.689(4) 0.2281(18)
H26 H 0.8155(12) 0.789(3) 0.150(2)
H27 H 0.7744(13) 0.520(3) 0.286(2)
H28 H 0.7635(13) 0.364(3) 0.256(2)
Co2B Co 0.275811(10) 1.03035(4) 0.120715(19)
Co2C Co 0.724189(10) 1.03035(4) -0.120715(19)
N8B N 0.84349(7) 0.4477(3) 0.13075(14)
O7C O 0.74164(6) 0.3405(2) 0.06382(11)
O13 O 0.82287(7) 0.9400(2) 0.08072(13)
H29 H 0.8129(13) 1.022(3) 0.103(2)
H30 H 0.8087(12) 0.908(4) 0.0276(15)
O14 O 0.68950(9) 0.4556(3) 0.37640(14)
H31 H 0.7018(13) 0.536(3) 0.359(2)
H32 H 0.7039(12) 0.425(4) 0.4323(15)
O15 O 0.87599(8) 0.6707(4) 0.31373(15)
H33 H 0.9057(8) 0.700(5) 0.313(2)
H34 H 0.8674(11) 0.669(5) 0.3647(16)
loop_
_geom_bond_atom_site_label_1
_geom_bond_atom_site_label_2
_geom_bond_site_symmetry_1
_geom_bond_site_symmetry_2
Co1 N1 1_555 1_555
S1 O1 1_555 1_555
N1 C1 1_555 1_555
N2 N3 1_555 1_555
N3 C7 1_555 1_555
N4 C10 1_555 1_555
O1 Co1 1_555 1_555
O2 S1 1_555 1_555
O3 S1 1_555 1_555
O4 S1 1_555 1_555
O5 Co1 1_555 1_555
O6 Co1 1_555 1_555
C1 H1 1_555 1_555
C2 C1 1_555 1_555
H2 C2 1_555 1_555
C3 C2 1_555 1_555
C4 C3 1_555 1_555
H3 C4 1_555 1_555
C5 N1 1_555 1_555
H4 C5 1_555 1_555
C6 N2 1_555 1_555
H5 C6 1_555 1_555
C7 H6 1_555 1_555
C8 C7 1_555 1_555
C9 C8 1_555 1_555
H7 C9 1_555 1_555
C10 C9 1_555 1_555
H8 C10 1_555 1_555
C11 N4 1_555 1_555
H9 C11 1_555 1_555
C12 C8 1_555 1_555
H10 C12 1_555 1_555
H11 O5 1_555 1_555
H12 O5 1_555 1_555
H13 O6 1_555 1_555
H14 O6 1_555 1_555
Co2 N5 1_555 1_555
S2 O7 1_555 1_555
N5 C13 1_555 1_555
N6 N7 1_555 1_555
N7 C19 1_555 1_555
N8 C22 1_555 1_555
O7 Co2C 1_555 1_555
O8 Co2 1_555 1_555
O9 S2 1_555 1_555
O10 S2 1_555 1_555
O11 Co2 1_555 1_555
O12 Co2 1_555 1_555
C13 H15 1_555 1_555
C14 C13 1_555 1_555
H16 C14 1_555 1_555
C15 C14 1_555 1_555
C16 C15 1_555 1_555
H17 C16 1_555 1_555
C17 N5 1_555 1_555
H18 C17 1_555 1_555
C18 N6 1_555 1_555
H19 C18 1_555 1_555
C19 H20 1_555 1_555
C20 C19 1_555 1_555
C21 C20 1_555 1_555
H21 C21 1_555 1_555
C22 C21 1_555 1_555
H22 C22 1_555 1_555
C23 N8 1_555 1_555
H23 C23 1_555 1_555
C24 C20 1_555 1_555
H24 C24 1_555 1_555
H25 O11 1_555 1_555
H26 O11 1_555 1_555
H27 O12 1_555 1_555
H28 O12 1_555 1_555
O13 H29 1_555 1_555
H30 O13 1_555 1_555
O14 H31 1_555 1_555
H32 O14 1_555 1_555
O15 H33 1_555 1_555
H34 O15 1_555 1_555
Co1B N4 1_555 1_555
Co1C O2 1_555 1_555
N4B Co1 1_555 1_555
O2C Co1 1_555 1_555
Co2B N8 1_555 1_555
N8B Co2 1_555 1_555
O7C Co2 1_555 1_555
C3 C6 1_555 1_555
C4 C5 1_555 1_555
C11 C12 1_555 1_555
S2 O8 1_555 1_555
C15 C18 1_555 1_555
C16 C17 1_555 1_555
C23 C24 1_555 1_555

#END
