
#######################################################################
#
#                 Cambridge Crystallographic Data Centre
#                                CCDC 
#
#######################################################################
#
# If this CIF has been generated from an entry in the Cambridge 
# Structural Database, then it will include bibliographic, chemical, 
# crystal, experimental, refinement or atomic coordinate data resulting 
# from the CCDC's data processing and validation procedures.
#
#######################################################################

data_DOHCOT
_symmetry_cell_setting           monoclinic
_symmetry_space_group_name_H-M   'P 21/n'
_symmetry_Int_Tables_number      14
_space_group_name_Hall           '-P 2yn'
loop_
_symmetry_equiv_pos_site_id
_symmetry_equiv_pos_as_xyz
1 x,y,z
2 1/2-x,1/2+y,1/2-z
3 -x,-y,-z
4 1/2+x,1/2-y,1/2+z
_cell_length_a                   9.877(2)
_cell_length_b                   10.211(2)
_cell_length_c                   18.348(4)
_cell_angle_alpha                90
_cell_angle_beta                 97.28(3)
_cell_angle_gamma                90
_cell_volume                     1835.55
loop_
_atom_site_label
_atom_site_type_symbol
_atom_site_fract_x
_atom_site_fract_y
_atom_site_fract_z
Ag1 Ag 0.18849(5) 0.06777(4) 0.51343(2)
O1 O 0.0411(4) -0.0789(4) 0.5825(2)
O2 O 0.0231(5) -0.2651(4) 0.6305(3)
O3 O 0.2189(5) -0.1997(5) 0.6047(2)
N1 N 0.1516(4) 0.2307(4) 0.5881(2)
N2 N 0.1885(5) 0.3867(4) 0.5030(2)
H1 H 0.1887 0.3231 0.4723
N3 N 0.0969(6) -0.1828(5) 0.6060(2)
C1 C 0.1699(5) 0.3573(5) 0.5736(2)
C2 C 0.1742(5) 0.4521(5) 0.6285(3)
H2 H 0.1837 0.5402 0.6173
C3 C 0.1644(6) 0.4138(6) 0.6991(3)
H3 H 0.1697 0.4758 0.7365
C4 C 0.1466(6) 0.2834(6) 0.7148(3)
H4 H 0.1411 0.2555 0.7626
C5 C 0.1372(6) 0.1970(6) 0.6582(3)
H5 H 0.1199 0.1097 0.6680
C6 C 0.2077(6) 0.5179(5) 0.4765(3)
H6 H 0.2593 0.5688 0.5151
H7 H 0.1195 0.5595 0.4642
C7 C 0.2823(5) 0.5174(5) 0.4097(2)
C8 C 0.4006(5) 0.4456(5) 0.4082(3)
H8 H 0.4326 0.3931 0.4482
C9 C 0.4714(6) 0.4508(6) 0.3485(3)
H9 H 0.5513 0.4026 0.3482
C10 C 0.4237(6) 0.5280(5) 0.2887(3)
H10 H 0.4723 0.5318 0.2485
C11 C 0.3056(5) 0.5988(5) 0.2880(2)
C12 C 0.2360(5) 0.5925(5) 0.3488(2)
H11 H 0.1557 0.6401 0.3487
C13 C 0.2544(6) 0.6847(5) 0.2228(2)
H12 H 0.1616 0.7114 0.2274
H13 H 0.3100 0.7632 0.2247
N4 N 0.2562(5) 0.6229(4) 0.1517(2)
H14 H 0.3122 0.6520 0.1232
C14 C 0.1739(5) 0.5215(5) 0.1282(2)
C15 C 0.0758(5) 0.4709(5) 0.1693(3)
H15 H 0.0651 0.5072 0.2147
C16 C -0.0039(5) 0.3686(5) 0.1427(3)
H16 H -0.0682 0.3338 0.1702
C17 C 0.0111(6) 0.3170(5) 0.0750(3)
H17 H -0.0430 0.2476 0.0557
C18 C 0.1072(6) 0.3702(5) 0.0368(3)
H18 H 0.1178 0.3347 -0.0088
N5 N 0.1874(4) 0.4710(4) 0.06153(19)
Ag1B Ag -0.18849(5) -0.06777(4) 0.48657(2)
Ag1A Ag 0.31151(5) 0.56777(4) -0.01343(2)
O1B O -0.0411(4) 0.0789(4) 0.4175(2)
N5A N 0.3126(4) -0.0290(4) 0.43847(19)
loop_
_geom_bond_atom_site_label_1
_geom_bond_atom_site_label_2
_geom_bond_site_symmetry_1
_geom_bond_site_symmetry_2
Ag1 O1 1_555 1_555
O1 N3 1_555 1_555
O2 N3 1_555 1_555
O3 N3 1_555 1_555
N1 Ag1 1_555 1_555
N2 H1 1_555 1_555
C1 N1 1_555 1_555
C2 C1 1_555 1_555
H2 C2 1_555 1_555
C3 C2 1_555 1_555
H3 C3 1_555 1_555
C4 C3 1_555 1_555
H4 C4 1_555 1_555
C5 N1 1_555 1_555
H5 C5 1_555 1_555
C6 N2 1_555 1_555
H6 C6 1_555 1_555
H7 C6 1_555 1_555
C7 C6 1_555 1_555
C8 C7 1_555 1_555
H8 C8 1_555 1_555
C9 C8 1_555 1_555
H9 C9 1_555 1_555
C10 C9 1_555 1_555
H10 C10 1_555 1_555
C11 C10 1_555 1_555
C12 C7 1_555 1_555
H11 C12 1_555 1_555
C13 C11 1_555 1_555
H12 C13 1_555 1_555
H13 C13 1_555 1_555
N4 C13 1_555 1_555
H14 N4 1_555 1_555
C14 N4 1_555 1_555
C15 C14 1_555 1_555
H15 C15 1_555 1_555
C16 C15 1_555 1_555
H16 C16 1_555 1_555
C17 C16 1_555 1_555
H17 C17 1_555 1_555
C18 C17 1_555 1_555
H18 C18 1_555 1_555
N5 C14 1_555 1_555
Ag1B O1 1_555 1_555
Ag1A N5 1_555 1_555
O1B Ag1 1_555 1_555
N5A Ag1 1_555 1_555
N2 C1 1_555 1_555
C4 C5 1_555 1_555
C11 C12 1_555 1_555
C18 N5 1_555 1_555
Ag1B O1B 1_555 1_555

#END
