
#######################################################################
#
#                 Cambridge Crystallographic Data Centre
#                                CCDC 
#
#######################################################################
#
# If this CIF has been generated from an entry in the Cambridge 
# Structural Database, then it will include bibliographic, chemical, 
# crystal, experimental, refinement or atomic coordinate data resulting 
# from the CCDC's data processing and validation procedures.
#
#######################################################################

data_DOHCIN
_symmetry_cell_setting           triclinic
_symmetry_space_group_name_H-M   'P -1'
_symmetry_Int_Tables_number      2
_space_group_name_Hall           '-P 1'
loop_
_symmetry_equiv_pos_site_id
_symmetry_equiv_pos_as_xyz
1 x,y,z
2 -x,-y,-z
_cell_length_a                   10.6580(3)
_cell_length_b                   14.9873(5)
_cell_length_c                   16.3809(4)
_cell_angle_alpha                78.7423(8)
_cell_angle_beta                 78.9459(7)
_cell_angle_gamma                82.0829(8)
_cell_volume                     2504.93
loop_
_atom_site_label
_atom_site_type_symbol
_atom_site_fract_x
_atom_site_fract_y
_atom_site_fract_z
Ag1 Ag 0.61519(2) 0.768665(15) 0.735647(13)
P1 P 0.76591(7) 0.74088(5) 0.83665(5)
P2 P 0.46072(7) 0.66466(6) 0.72457(5)
N1 N 0.7616(3) 0.8124(2) 0.60425(18)
N2 N 0.8786(5) 0.7389(3) 0.4013(2)
H1 H 0.9181 0.7616 0.3524
N3 N 0.4929(3) 0.91586(19) 0.71591(18)
N4 N 0.2741(3) 1.0666(2) 0.8432(2)
H2 H 0.2329 1.1203 0.8353
C1 C 0.8780(3) 0.6387(2) 0.82116(19)
C2 C 0.8866(4) 0.6051(3) 0.7474(2)
H4 H 0.8376 0.6353 0.7070
C3 C 0.9671(5) 0.5272(3) 0.7325(3)
H5 H 0.9728 0.5061 0.6820
C4 C 1.0385(4) 0.4809(3) 0.7918(3)
H6 H 1.0898 0.4271 0.7828
C5 C 1.0337(4) 0.5146(3) 0.8642(3)
H7 H 1.0849 0.4849 0.9035
C6 C 0.9532(4) 0.5924(3) 0.8797(2)
H8 H 0.9495 0.6138 0.9298
C7 C 0.8690(3) 0.8323(2) 0.82165(19)
C8 C 0.9845(3) 0.8318(3) 0.7666(3)
H9 H 1.0149 0.7809 0.7411
C9 C 1.0555(4) 0.9058(3) 0.7486(3)
H10 H 1.1314 0.9053 0.7095
C10 C 1.0151(4) 0.9792(3) 0.7878(3)
H11 H 1.0636 1.0286 0.7765
C11 C 0.9034(6) 0.9797(3) 0.8434(3)
H12 H 0.8770 1.0288 0.8718
C12 C 0.8278(4) 0.9079(3) 0.8587(3)
H13 H 0.7487 0.9112 0.8944
C13 C 0.7033(3) 0.7214(2) 0.94990(18)
C14 C 0.7756(3) 0.7279(2) 1.0100(2)
H14 H 0.8579 0.7462 0.9931
C15 C 0.7255(4) 0.7072(2) 1.0958(2)
H15 H 0.7746 0.7103 1.1362
C16 C 0.6016(4) 0.6819(3) 1.1203(2)
H16 H 0.5678 0.6678 1.1774
C17 C 0.5286(4) 0.6776(3) 1.0613(3)
H17 H 0.4451 0.6616 1.0785
C18 C 0.5784(3) 0.6969(2) 0.9768(2)
H18 H 0.5283 0.6935 0.9370
C19 C 0.5212(3) 0.5498(2) 0.7033(2)
C20 C 0.6180(4) 0.5018(3) 0.7438(3)
H19 H 0.6488 0.5268 0.7828
C21 C 0.6704(4) 0.4142(3) 0.7261(4)
H20 H 0.7346 0.3811 0.7542
C22 C 0.6269(5) 0.3783(3) 0.6678(4)
H21 H 0.6627 0.3213 0.6555
C23 C 0.5325(6) 0.4249(4) 0.6280(4)
H22 H 0.5027 0.3993 0.5889
C24 C 0.4783(4) 0.5113(3) 0.6446(3)
H23 H 0.4134 0.5429 0.6163
C25 C 0.3569(3) 0.7088(2) 0.6462(2)
C26 C 0.4079(4) 0.7622(3) 0.5715(3)
H24 H 0.4914 0.7775 0.5643
C27 C 0.3371(5) 0.7932(4) 0.5076(3)
H25 H 0.3732 0.8285 0.4576
C28 C 0.2139(4) 0.7720(4) 0.5175(3)
H26 H 0.1654 0.7939 0.4749
C29 C 0.1619(4) 0.7184(4) 0.5906(3)
H27 H 0.0785 0.7032 0.5967
C30 C 0.2314(3) 0.6867(3) 0.6553(2)
H28 H 0.1948 0.6507 0.7047
C31 C 0.3537(3) 0.6488(2) 0.8267(2)
C32 C 0.3540(4) 0.5671(3) 0.8833(2)
H29 H 0.4011 0.5148 0.8665
C33 C 0.2845(5) 0.5623(4) 0.9651(3)
H30 H 0.2868 0.5075 1.0033
C34 C 0.2120(5) 0.6401(4) 0.9888(3)
H31 H 0.1643 0.6375 1.0429
C35 C 0.2104(4) 0.7208(3) 0.9329(3)
H32 H 0.1612 0.7726 0.9492
C36 C 0.2815(4) 0.7259(3) 0.8524(3)
H33 H 0.2809 0.7814 0.8152
C37 C 0.8004(4) 0.8960(3) 0.5876(3)
H34 H 0.7825 0.9317 0.6297
C38 C 0.8663(4) 0.9308(3) 0.5096(3)
H35 H 0.8909 0.9897 0.4991
C39 C 0.8953(4) 0.8784(3) 0.4476(3)
H36 H 0.9408 0.9013 0.3950
C40 C 0.8568(3) 0.7908(3) 0.4633(2)
C41 C 0.7898(3) 0.7614(2) 0.5442(2)
H37 H 0.7636 0.7029 0.5566
C42 C 0.8399(5) 0.6492(4) 0.4128(3)
H38 H 0.8400 0.6345 0.3576
H39 H 0.7522 0.6497 0.4430
C43 C 0.9236(4) 0.5727(3) 0.4608(2)
C44 C 1.0513(4) 0.5787(3) 0.4568(3)
H40 H 1.0874 0.6313 0.4276
C45 C 0.8732(4) 0.4926(3) 0.5045(3)
H41 H 0.7865 0.4872 0.5075
C46 C 0.4827(4) 0.9620(3) 0.6386(2)
H42 H 0.5289 0.9382 0.5920
C47 C 0.4057(4) 1.0440(3) 0.6254(2)
H43 H 0.4009 1.0745 0.5708
C48 C 0.3372(4) 1.0798(3) 0.6928(2)
H44 H 0.2858 1.1351 0.6844
C49 C 0.3445(3) 1.0328(2) 0.7749(2)
C50 C 0.4257(3) 0.9508(2) 0.7817(2)
H45 H 0.4331 0.9188 0.8355
C51 C 0.2664(4) 1.0157(3) 0.9281(2)
H46 H 0.2449 0.9548 0.9285
H47 H 0.1970 1.0452 0.9645
C52 C 0.3883(3) 1.0075(2) 0.9642(2)
C53 C 0.4183(4) 0.9328(3) 1.0245(2)
H48 H 0.3639 0.8867 1.0414
C54 C 0.4716(4) 1.0743(3) 0.9400(2)
H49 H 0.4538 1.1248 0.8994
Ag1A Ag 1.38481(2) 0.231335(15) 0.264353(13)
Ag1A_2 Ag 0.38481(2) 1.231335(15) 1.264353(13)
P1A P 1.23409(7) 0.25912(5) 0.16335(5)
P2A P 1.53928(7) 0.33534(6) 0.27543(5)
N1A N 1.2384(3) 0.1876(2) 0.39575(18)
N2A N 1.1214(5) 0.2611(3) 0.5987(2)
H1A H 1.0819 0.2384 0.6476
N3A N 0.5071(3) 1.08414(19) 1.28409(18)
N3A_2 N 1.5071(3) 0.08414(19) 0.28409(18)
N4A N 0.7259(3) 0.9334(2) 1.1568(2)
H2A H 0.7671 0.8797 1.1647
C1A C 1.1220(3) 0.3613(2) 0.17884(19)
C2A C 1.1134(4) 0.3949(3) 0.2526(2)
H4A H 1.1624 0.3647 0.2930
C3A C 1.0329(5) 0.4728(3) 0.2675(3)
H5A H 1.0272 0.4939 0.3180
C4A C 0.9615(4) 0.5191(3) 0.2082(3)
H6A H 0.9102 0.5729 0.2172
C5A C 0.9663(4) 0.4854(3) 0.1358(3)
H7A H 0.9151 0.5151 0.0965
C6A C 1.0468(4) 0.4076(3) 0.1203(2)
H8A H 1.0505 0.3862 0.0702
C7A C 1.1310(3) 0.1677(2) 0.17835(19)
C8A C 1.0155(3) 0.1682(3) 0.2334(3)
H9A H 0.9851 0.2191 0.2589
C9A C 0.9445(4) 0.0942(3) 0.2514(3)
H10A H 0.8686 0.0947 0.2905
C10A C 0.9849(4) 0.0208(3) 0.2122(3)
H11A H 0.9364 -0.0286 0.2235
C11A C 1.0966(6) 0.0203(3) 0.1566(3)
H12A H 1.1230 -0.0288 0.1282
C12A C 1.1722(4) 0.0921(3) 0.1413(3)
H13A H 1.2513 0.0888 0.1056
C13A C 1.2967(3) 0.2786(2) 0.05010(18)
C14A C 1.2244(3) 0.2721(2) -0.0100(2)
H14A H 1.1421 0.2538 0.0069
C15A C 1.2745(4) 0.2928(2) -0.0958(2)
H15A H 1.2254 0.2897 -0.1362
C16A C 1.3984(4) 0.3181(3) -0.1203(2)
H16A H 1.4322 0.3322 -0.1774
C17A C 1.4714(4) 0.3224(3) -0.0613(3)
H17A H 1.5549 0.3384 -0.0785
C18A C 1.4216(3) 0.3031(2) 0.0232(2)
H18A H 1.4717 0.3065 0.0630
C19A C 1.4788(3) 0.4502(2) 0.2967(2)
C20A C 1.3820(4) 0.4982(3) 0.2562(3)
H19A H 1.3512 0.4732 0.2172
C21A C 1.3296(4) 0.5858(3) 0.2739(4)
H20A H 1.2654 0.6189 0.2458
C22A C 1.3731(5) 0.6217(3) 0.3322(4)
H21A H 1.3373 0.6787 0.3445
C23A C 1.4675(6) 0.5751(4) 0.3720(4)
H22A H 1.4973 0.6007 0.4111
C24A C 1.5217(4) 0.4887(3) 0.3554(3)
H23A H 1.5866 0.4571 0.3837
C25A C 1.6431(3) 0.2912(2) 0.3538(2)
C26A C 1.5921(4) 0.2378(3) 0.4285(3)
H24A H 1.5086 0.2225 0.4357
C27A C 1.6629(5) 0.2068(4) 0.4924(3)
H25A H 1.6268 0.1715 0.5424
C28A C 1.7861(4) 0.2280(4) 0.4825(3)
H26A H 1.8346 0.2061 0.5251
C29A C 1.8381(4) 0.2816(4) 0.4094(3)
H27A H 1.9215 0.2968 0.4033
C30A C 1.7686(3) 0.3133(3) 0.3447(2)
H28A H 1.8052 0.3493 0.2953
C31A C 1.6463(3) 0.3512(2) 0.1733(2)
C32A C 1.6460(4) 0.4329(3) 0.1167(2)
H29A H 1.5989 0.4852 0.1335
C33A C 1.7155(5) 0.4377(4) 0.0349(3)
H30A H 1.7132 0.4925 -0.0033
C34A C 1.7880(5) 0.3599(4) 0.0112(3)
H31A H 1.8357 0.3625 -0.0429
C35A C 1.7896(4) 0.2792(3) 0.0671(3)
H32A H 1.8388 0.2274 0.0508
C36A C 1.7185(4) 0.2741(3) 0.1476(3)
H33A H 1.7191 0.2186 0.1848
C37A C 1.1996(4) 0.1040(3) 0.4124(3)
H34A H 1.2175 0.0683 0.3703
C38A C 1.1337(4) 0.0692(3) 0.4904(3)
H35A H 1.1091 0.0103 0.5009
C39A C 1.1047(4) 0.1216(3) 0.5524(3)
H36A H 1.0592 0.0987 0.6050
C40A C 1.1432(3) 0.2092(3) 0.5367(2)
C41A C 1.2102(3) 0.2386(2) 0.4558(2)
H37A H 1.2364 0.2971 0.4434
C42A C 1.1601(5) 0.3508(4) 0.5872(3)
H38A H 1.1600 0.3655 0.6424
H39A H 1.2478 0.3503 0.5570
C43A C 1.0764(4) 0.4273(3) 0.5392(2)
C44A C 0.9487(4) 0.4213(3) 0.5432(3)
H40A H 0.9126 0.3687 0.5724
C45A C 1.1268(4) 0.5074(3) 0.4955(3)
H41A H 1.2135 0.5128 0.4925
C46A C 0.5173(4) 1.0380(3) 1.3614(2)
H42A H 0.4711 1.0618 1.4080
C47A C 0.5943(4) 0.9560(3) 1.3746(2)
H43A H 0.5991 0.9255 1.4292
C48A C 0.6628(4) 0.9202(3) 1.3072(2)
H44A H 0.7142 0.8649 1.3156
C49A C 0.6555(3) 0.9672(2) 1.2251(2)
C50A C 0.5743(3) 1.0492(2) 1.2183(2)
H45A H 0.5669 1.0812 1.1645
C51A C 0.7336(4) 0.9843(3) 1.0719(2)
H46A H 0.7551 1.0452 1.0715
H47A H 0.8030 0.9548 1.0355
C52A C 0.6117(3) 0.9925(2) 1.0358(2)
C53A C 0.5817(4) 1.0672(3) 0.9755(2)
H48A H 0.6361 1.1133 0.9586
C54A C 0.5284(4) 0.9257(3) 1.0600(2)
H49A H 0.5462 0.8752 1.1006
N5 N 1.0271(4) 0.7864(3) 0.1639(3)
O1 O 0.9322(4) 0.7841(3) 0.2181(2)
O2 O 1.1350(5) 0.7686(4) 0.1723(4)
O3 O 1.0045(5) 0.8126(4) 0.0912(3)
O4 O 1.2024(5) 0.8357(5) 0.3121(3)
H3 H 1.1612 0.8312 0.2759
C55 C 1.3162(8) 0.8782(6) 0.2725(5)
H50 H 1.2942 0.9427 0.2559
H51 H 1.3554 0.8520 0.2236
H52 H 1.3754 0.8685 0.3116
loop_
_geom_bond_atom_site_label_1
_geom_bond_atom_site_label_2
_geom_bond_site_symmetry_1
_geom_bond_site_symmetry_2
Ag1 P1 1_555 1_555
P1 C1 1_555 1_555
P2 Ag1 1_555 1_555
N1 Ag1 1_555 1_555
N2 H1 1_555 1_555
N3 Ag1 1_555 1_555
N4 H2 1_555 1_555
N5 O1 1_555 1_555
O2 N5 1_555 1_555
O3 N5 1_555 1_555
O4 H3 1_555 1_555
C1 C2 1_555 1_555
C2 H4 1_555 1_555
C3 C2 1_555 1_555
H5 C3 1_555 1_555
C4 C3 1_555 1_555
H6 C4 1_555 1_555
C5 C4 1_555 1_555
H7 C5 1_555 1_555
C6 C1 1_555 1_555
H8 C6 1_555 1_555
C7 P1 1_555 1_555
C8 C7 1_555 1_555
H9 C8 1_555 1_555
C9 C8 1_555 1_555
H10 C9 1_555 1_555
C10 C9 1_555 1_555
H11 C10 1_555 1_555
C11 C10 1_555 1_555
H12 C11 1_555 1_555
C12 C7 1_555 1_555
H13 C12 1_555 1_555
C13 P1 1_555 1_555
C14 C13 1_555 1_555
H14 C14 1_555 1_555
C15 C14 1_555 1_555
H15 C15 1_555 1_555
C16 C15 1_555 1_555
H16 C16 1_555 1_555
C17 C16 1_555 1_555
H17 C17 1_555 1_555
C18 C13 1_555 1_555
H18 C18 1_555 1_555
C19 P2 1_555 1_555
C20 C19 1_555 1_555
H19 C20 1_555 1_555
C21 C20 1_555 1_555
H20 C21 1_555 1_555
C22 C21 1_555 1_555
H21 C22 1_555 1_555
C23 C22 1_555 1_555
H22 C23 1_555 1_555
C24 C19 1_555 1_555
H23 C24 1_555 1_555
C25 P2 1_555 1_555
C26 C25 1_555 1_555
H24 C26 1_555 1_555
C27 C26 1_555 1_555
H25 C27 1_555 1_555
C28 C27 1_555 1_555
H26 C28 1_555 1_555
C29 C28 1_555 1_555
H27 C29 1_555 1_555
C30 C25 1_555 1_555
H28 C30 1_555 1_555
C31 P2 1_555 1_555
C32 C31 1_555 1_555
H29 C32 1_555 1_555
C33 C32 1_555 1_555
H30 C33 1_555 1_555
C34 C33 1_555 1_555
H31 C34 1_555 1_555
C35 C34 1_555 1_555
H32 C35 1_555 1_555
C36 C31 1_555 1_555
H33 C36 1_555 1_555
C37 N1 1_555 1_555
H34 C37 1_555 1_555
C38 C37 1_555 1_555
H35 C38 1_555 1_555
C39 C38 1_555 1_555
H36 C39 1_555 1_555
C40 N2 1_555 1_555
C41 N1 1_555 1_555
H37 C41 1_555 1_555
C42 N2 1_555 1_555
H38 C42 1_555 1_555
H39 C42 1_555 1_555
C43 C42 1_555 1_555
C44 C43 1_555 1_555
H40 C44 1_555 1_555
C45 C43 1_555 1_555
H41 C45 1_555 1_555
C46 N3 1_555 1_555
H42 C46 1_555 1_555
C47 C46 1_555 1_555
H43 C47 1_555 1_555
C48 C47 1_555 1_555
H44 C48 1_555 1_555
C49 N4 1_555 1_555
C50 N3 1_555 1_555
H45 C50 1_555 1_555
C51 N4 1_555 1_555
H46 C51 1_555 1_555
H47 C51 1_555 1_555
C52 C51 1_555 1_555
C53 C52 1_555 1_555
H48 C53 1_555 1_555
C54 C52 1_555 1_555
H49 C54 1_555 1_555
C55 O4 1_555 1_555
H50 C55 1_555 1_555
H51 C55 1_555 1_555
H52 C55 1_555 1_555
Ag1A P1A 1_555 1_555
Ag1A_2 N3A 1_555 1_555
P1A C1A 1_555 1_555
P2A Ag1A 1_555 1_555
N1A Ag1A 1_555 1_555
N2A H1A 1_555 1_555
N3A C46A 1_555 1_555
N3A_2 Ag1A 1_555 1_555
N4A H2A 1_555 1_555
C1A C2A 1_555 1_555
C2A H4A 1_555 1_555
C3A C2A 1_555 1_555
H5A C3A 1_555 1_555
C4A C3A 1_555 1_555
H6A C4A 1_555 1_555
C5A C4A 1_555 1_555
H7A C5A 1_555 1_555
C6A C1A 1_555 1_555
H8A C6A 1_555 1_555
C7A P1A 1_555 1_555
C8A C7A 1_555 1_555
H9A C8A 1_555 1_555
C9A C8A 1_555 1_555
H10A C9A 1_555 1_555
C10A C9A 1_555 1_555
H11A C10A 1_555 1_555
C11A C10A 1_555 1_555
H12A C11A 1_555 1_555
C12A C7A 1_555 1_555
H13A C12A 1_555 1_555
C13A P1A 1_555 1_555
C14A C13A 1_555 1_555
H14A C14A 1_555 1_555
C15A C14A 1_555 1_555
H15A C15A 1_555 1_555
C16A C15A 1_555 1_555
H16A C16A 1_555 1_555
C17A C16A 1_555 1_555
H17A C17A 1_555 1_555
C18A C13A 1_555 1_555
H18A C18A 1_555 1_555
C19A P2A 1_555 1_555
C20A C19A 1_555 1_555
H19A C20A 1_555 1_555
C21A C20A 1_555 1_555
H20A C21A 1_555 1_555
C22A C21A 1_555 1_555
H21A C22A 1_555 1_555
C23A C22A 1_555 1_555
H22A C23A 1_555 1_555
C24A C19A 1_555 1_555
H23A C24A 1_555 1_555
C25A P2A 1_555 1_555
C26A C25A 1_555 1_555
H24A C26A 1_555 1_555
C27A C26A 1_555 1_555
H25A C27A 1_555 1_555
C28A C27A 1_555 1_555
H26A C28A 1_555 1_555
C29A C28A 1_555 1_555
H27A C29A 1_555 1_555
C30A C25A 1_555 1_555
H28A C30A 1_555 1_555
C31A P2A 1_555 1_555
C32A C31A 1_555 1_555
H29A C32A 1_555 1_555
C33A C32A 1_555 1_555
H30A C33A 1_555 1_555
C34A C33A 1_555 1_555
H31A C34A 1_555 1_555
C35A C34A 1_555 1_555
H32A C35A 1_555 1_555
C36A C31A 1_555 1_555
H33A C36A 1_555 1_555
C37A N1A 1_555 1_555
H34A C37A 1_555 1_555
C38A C37A 1_555 1_555
H35A C38A 1_555 1_555
C39A C38A 1_555 1_555
H36A C39A 1_555 1_555
C40A N2A 1_555 1_555
C41A N1A 1_555 1_555
H37A C41A 1_555 1_555
C42A N2A 1_555 1_555
H38A C42A 1_555 1_555
H39A C42A 1_555 1_555
C43A C42A 1_555 1_555
C44A C45 1_555 1_555
H40A C44A 1_555 1_555
C45A C44 1_555 1_555
H41A C45A 1_555 1_555
C46A H42A 1_555 1_555
C47A C46A 1_555 1_555
H43A C47A 1_555 1_555
C48A C47A 1_555 1_555
H44A C48A 1_555 1_555
C49A N4A 1_555 1_555
C50A N3A 1_555 1_555
H45A C50A 1_555 1_555
C51A N4A 1_555 1_555
H46A C51A 1_555 1_555
H47A C51A 1_555 1_555
C52A C51A 1_555 1_555
C53A C54 1_555 1_555
H48A C53A 1_555 1_555
C54A C53 1_555 1_555
H49A C54A 1_555 1_555
C5 C6 1_555 1_555
C11 C12 1_555 1_555
C17 C18 1_555 1_555
C23 C24 1_555 1_555
C29 C30 1_555 1_555
C35 C36 1_555 1_555
C39 C40 1_555 1_555
C40 C41 1_555 1_555
C48 C49 1_555 1_555
C49 C50 1_555 1_555
C5A C6A 1_555 1_555
C11A C12A 1_555 1_555
C17A C18A 1_555 1_555
C23A C24A 1_555 1_555
C29A C30A 1_555 1_555
C35A C36A 1_555 1_555
C39A C40A 1_555 1_555
C40A C41A 1_555 1_555
C43A C44A 1_555 1_555
C43A C45A 1_555 1_555
C48A C49A 1_555 1_555
C49A C50A 1_555 1_555
C52A C53A 1_555 1_555
C52A C54A 1_555 1_555

#END
