
#######################################################################
#
#                 Cambridge Crystallographic Data Centre
#                                CCDC 
#
#######################################################################
#
# If this CIF has been generated from an entry in the Cambridge 
# Structural Database, then it will include bibliographic, chemical, 
# crystal, experimental, refinement or atomic coordinate data resulting 
# from the CCDC's data processing and validation procedures.
#
#######################################################################

data_DOHCOU
_symmetry_cell_setting           monoclinic
_symmetry_space_group_name_H-M   'C 2'
_symmetry_Int_Tables_number      5
_space_group_name_Hall           'C 2y'
loop_
_symmetry_equiv_pos_site_id
_symmetry_equiv_pos_as_xyz
1 x,y,z
2 -x,y,-z
3 1/2+x,1/2+y,z
4 1/2-x,1/2+y,-z
_cell_length_a                   29.881(4)
_cell_length_b                   9.3128(13)
_cell_length_c                   15.675(2)
_cell_angle_alpha                90
_cell_angle_beta                 102.553(2)
_cell_angle_gamma                90
_cell_volume                     4257.7
loop_
_atom_site_label
_atom_site_type_symbol
_atom_site_fract_x
_atom_site_fract_y
_atom_site_fract_z
Co1 Co 0.724002(12) 0.49194(5) 0.87921(2)
S1 S 0.77111(2) 0.82989(8) 0.91540(4)
N1 N 0.79006(9) 0.3968(3) 0.88915(17)
N2 N 0.95178(10) 0.2641(4) 0.8750(2)
N3 N 0.99086(10) 0.1772(4) 0.8797(2)
N4 N 1.15626(9) 0.0729(3) 0.86935(17)
O1 O 0.75842(7) 0.6823(2) 0.93596(13)
O2 O 0.78168(8) 0.9138(2) 0.99682(14)
O3 O 0.81147(7) 0.8256(3) 0.87655(13)
O4 O 0.73261(8) 0.8974(3) 0.85220(15)
O5 O 0.69500(7) 0.3029(3) 0.81617(14)
O6 O 0.72330(8) 0.5756(3) 0.75428(14)
C1 C 0.82486(11) 0.4686(4) 0.8666(2)
H1 H 0.8201 0.5641 0.8498
C2 C 0.86670(12) 0.4091(4) 0.8670(2)
H2 H 0.8897 0.4635 0.8511
C3 C 0.87448(11) 0.2642(4) 0.8918(2)
C4 C 0.83876(11) 0.1892(4) 0.9140(2)
H3 H 0.8422 0.0928 0.9297
C5 C 0.79780(11) 0.2598(3) 0.9125(2)
H4 H 0.7743 0.2086 0.9287
C6 C 0.91862(11) 0.1948(4) 0.8934(2)
H5 H 0.9224 0.0982 0.9082
C7 C 1.02381(12) 0.2504(4) 0.8618(2)
H6 H 1.0192 0.3470 0.8477
C8 C 1.06929(11) 0.1853(4) 0.8631(2)
C9 C 1.10211(11) 0.2651(4) 0.8363(2)
H7 H 1.0956 0.3584 0.8162
C10 C 1.14523(11) 0.2062(4) 0.8391(2)
H8 H 1.1670 0.2607 0.8194
C11 C 1.12374(10) -0.0053(5) 0.8945(2)
H9 H 1.1310 -0.0982 0.9146
C12 C 1.08024(11) 0.0450(4) 0.8920(2)
H10 H 1.0585 -0.0131 0.9093
H11 H 0.6823(13) 0.236(4) 0.851(2)
H12 H 0.6704(10) 0.339(4) 0.774(2)
H13 H 0.7283(14) 0.498(3) 0.718(2)
H14 H 0.7393(14) 0.655(3) 0.737(3)
Co1B Co 1.224002(12) -0.00806(5) 0.87921(2)
Co1C Co 0.775998(12) 0.99194(5) 1.12079(2)
N4B N 0.65626(9) 0.5729(3) 0.86935(17)
O2C O 0.71832(8) 0.4138(2) 1.00318(14)
Co2 Co 0.738232(12) 0.48895(4) 0.37953(2)
S2 S 0.78436(2) 0.81254(8) 0.43975(4)
N5 N 0.80565(9) 0.3950(3) 0.39800(17)
N6 N 0.96489(10) 0.2559(4) 0.3711(2)
N7 N 1.00391(10) 0.1697(4) 0.3733(2)
N8 N 1.16908(9) 0.0705(3) 0.35779(17)
O7 O 0.76725(8) 0.6670(2) 0.45322(14)
O8 O 0.76992(8) 0.9112(3) 0.50152(15)
O9 O 0.83427(8) 0.8114(3) 0.45443(16)
O10 O 0.76351(9) 0.8591(3) 0.34912(15)
O11 O 0.74538(8) 0.5884(3) 0.26413(14)
O12 O 0.71506(8) 0.3029(3) 0.30307(14)
C13 C 0.83985(12) 0.4654(4) 0.3736(2)
H15 H 0.8351 0.5608 0.3566
C14 C 0.88183(12) 0.4042(4) 0.3724(2)
H16 H 0.9043 0.4565 0.3534
C15 C 0.88995(11) 0.2612(4) 0.4005(2)
C16 C 0.85496(12) 0.1882(4) 0.4277(2)
H17 H 0.8591 0.0936 0.4467
C17 C 0.81383(11) 0.2584(4) 0.4261(2)
H18 H 0.7908 0.2090 0.4453
C18 C 0.93338(12) 0.1905(4) 0.3987(2)
H19 H 0.9381 0.0961 0.4180
C19 C 1.03570(12) 0.2435(5) 0.3526(2)
H20 H 1.0304 0.3396 0.3378
C20 C 1.08158(11) 0.1787(4) 0.3516(2)
C21 C 1.11662(12) 0.2670(4) 0.3392(2)
H21 H 1.1113 0.3644 0.3283
C22 C 1.15974(11) 0.2097(4) 0.3430(2)
H22 H 1.1831 0.2706 0.3349
C23 C 1.13429(11) -0.0153(5) 0.3664(2)
H23 H 1.1400 -0.1130 0.3747
C24 C 1.09055(11) 0.0339(4) 0.3635(2)
H24 H 1.0674 -0.0295 0.3695
H25 H 0.7596(14) 0.549(4) 0.224(2)
H26 H 0.7472(16) 0.6912(19) 0.261(3)
H27 H 0.6970(12) 0.330(4) 0.2477(17)
H28 H 0.7041(14) 0.220(3) 0.322(2)
Co2B Co 1.238232(12) -0.01105(4) 0.37953(2)
Co2C Co 0.761768(12) 0.98895(4) 0.62047(2)
N8B N 0.66908(9) 0.5705(3) 0.35779(17)
O8C O 0.73008(8) 0.4112(3) 0.49848(15)
O13 O 0.67736(8) 0.0822(3) 0.91844(16)
H29 H 0.6893(12) -0.007(3) 0.901(3)
H30 H 0.6446(6) 0.069(4) 0.909(3)
O14 O 0.69050(10) 0.0661(3) 0.37608(18)
H31 H 0.7054(12) -0.016(3) 0.370(3)
H32 H 0.6614(9) 0.057(5) 0.389(3)
O15 O 0.62395(10) 0.3459(5) 0.68402(18)
H33 H 0.6032(13) 0.416(4) 0.691(3)
H34 H 0.6362(13) 0.352(5) 0.636(2)
loop_
_geom_bond_atom_site_label_1
_geom_bond_atom_site_label_2
_geom_bond_site_symmetry_1
_geom_bond_site_symmetry_2
Co1 N1 1_555 1_555
S1 O1 1_555 1_555
N1 C1 1_555 1_555
N2 N3 1_555 1_555
N3 C7 1_555 1_555
N4 C10 1_555 1_555
O1 Co1 1_555 1_555
O2 S1 1_555 1_555
O3 S1 1_555 1_555
O4 S1 1_555 1_555
O5 Co1 1_555 1_555
O6 Co1 1_555 1_555
C1 H1 1_555 1_555
C2 C1 1_555 1_555
H2 C2 1_555 1_555
C3 C2 1_555 1_555
C4 C3 1_555 1_555
H3 C4 1_555 1_555
C5 N1 1_555 1_555
H4 C5 1_555 1_555
C6 N2 1_555 1_555
H5 C6 1_555 1_555
C7 H6 1_555 1_555
C8 C7 1_555 1_555
C9 C8 1_555 1_555
H7 C9 1_555 1_555
C10 C9 1_555 1_555
H8 C10 1_555 1_555
C11 N4 1_555 1_555
H9 C11 1_555 1_555
C12 C8 1_555 1_555
H10 C12 1_555 1_555
H11 O5 1_555 1_555
H12 O5 1_555 1_555
H13 O6 1_555 1_555
H14 O6 1_555 1_555
Co2 N5 1_555 1_555
S2 O7 1_555 1_555
N5 C13 1_555 1_555
N6 N7 1_555 1_555
N7 C19 1_555 1_555
N8 C22 1_555 1_555
O7 Co2 1_555 1_555
O8 S2 1_555 1_555
O9 S2 1_555 1_555
O10 S2 1_555 1_555
O11 Co2 1_555 1_555
O12 Co2 1_555 1_555
C13 H15 1_555 1_555
C14 C13 1_555 1_555
H16 C14 1_555 1_555
C15 C14 1_555 1_555
C16 C15 1_555 1_555
H17 C16 1_555 1_555
C17 N5 1_555 1_555
H18 C17 1_555 1_555
C18 N6 1_555 1_555
H19 C18 1_555 1_555
C19 H20 1_555 1_555
C20 C19 1_555 1_555
C21 C20 1_555 1_555
H21 C21 1_555 1_555
C22 C21 1_555 1_555
H22 C22 1_555 1_555
C23 N8 1_555 1_555
H23 C23 1_555 1_555
C24 C20 1_555 1_555
H24 C24 1_555 1_555
H25 O11 1_555 1_555
H26 O11 1_555 1_555
H27 O12 1_555 1_555
H28 O12 1_555 1_555
O13 H29 1_555 1_555
H30 O13 1_555 1_555
O14 H31 1_555 1_555
H32 O14 1_555 1_555
O15 H33 1_555 1_555
H34 O15 1_555 1_555
Co1B N4 1_555 1_555
Co1C O2 1_555 1_555
N4B Co1 1_555 1_555
O2C Co1 1_555 1_555
Co2B N8 1_555 1_555
Co2C O8 1_555 1_555
N8B Co2 1_555 1_555
O8C Co2 1_555 1_555
C3 C6 1_555 1_555
C4 C5 1_555 1_555
C11 C12 1_555 1_555
C15 C18 1_555 1_555
C16 C17 1_555 1_555
C23 C24 1_555 1_555

#END
