
#######################################################################
#
#                 Cambridge Crystallographic Data Centre
#                                CCDC 
#
#######################################################################
#
# If this CIF has been generated from an entry in the Cambridge 
# Structural Database, then it will include bibliographic, chemical, 
# crystal, experimental, refinement or atomic coordinate data resulting 
# from the CCDC's data processing and validation procedures.
#
#######################################################################

data_DOHDIO
_symmetry_cell_setting           monoclinic
_symmetry_space_group_name_H-M   'P 21/c'
_symmetry_Int_Tables_number      14
_space_group_name_Hall           '-P 2ybc'
loop_
_symmetry_equiv_pos_site_id
_symmetry_equiv_pos_as_xyz
1 x,y,z
2 -x,1/2+y,1/2-z
3 -x,-y,-z
4 x,1/2-y,1/2+z
_cell_length_a                   12.1152(3)
_cell_length_b                   19.4631(4)
_cell_length_c                   6.56440(10)
_cell_angle_alpha                90
_cell_angle_beta                 90.4206(8)
_cell_angle_gamma                90
_cell_volume                     1547.84
loop_
_atom_site_label
_atom_site_type_symbol
_atom_site_fract_x
_atom_site_fract_y
_atom_site_fract_z
C1 C 0.6923(2) 0.85699(13) 0.0330(4)
H1 H 0.6698 0.8116 0.0164
C2 C 0.6183(2) 0.90863(15) -0.0127(4)
H2 H 0.5469 0.8984 -0.0563
C3 C 0.6526(2) 0.97543(15) 0.0079(4)
H3 H 0.6053 1.0113 -0.0262
C4 C 0.7574(2) 0.98900(13) 0.0792(4)
H4 H 0.785(2) 1.0350(13) 0.101(4)
C5 C 0.82671(19) 0.93478(12) 0.1256(3)
C6 C 0.9410(2) 0.94400(12) 0.2069(3)
C7 C 1.1751(2) 0.85355(13) 0.2765(3)
H5 H 1.1501 0.8134 0.2145
C8 C 1.2908(2) 0.85692(13) 0.3439(4)
C9 C 1.3585(2) 0.80083(16) 0.3044(4)
H6 H 1.3304 0.7629 0.2354
C10 C 1.4682(3) 0.8015(2) 0.3681(5)
H7 H 1.5141 0.7646 0.3382
C11 C 1.5083(3) 0.8562(2) 0.4741(5)
H8 H 1.5809 0.8560 0.5212
C12 C 1.4409(3) 0.9123(2) 0.5120(5)
H9 H 1.4700 0.9499 0.5815
C13 C 1.3315(2) 0.91395(16) 0.4491(4)
N1 N 0.79455(16) 0.86905(10) 0.0998(3)
N2 N 1.00157(16) 0.88788(9) 0.2242(3)
N3 N 1.10761(17) 0.90257(11) 0.2985(3)
N4 N 0.97634(18) 1.00804(10) 0.2522(3)
N5 N 0.82362(18) 0.70727(10) 0.0084(3)
N6 N 0.81521(16) 0.64831(11) 0.0627(3)
N7 N 0.8074(2) 0.59111(12) 0.1077(3)
N8 N 1.00849(17) 0.72047(10) 0.3769(3)
N9 N 1.08219(19) 0.68264(11) 0.3260(3)
N10 N 1.1545(2) 0.64735(13) 0.2829(4)
Mn1 Mn 0.91518(3) 0.786969(17) 0.17591(5)
N5C N 0.82362(18) 0.79273(10) 0.5084(3)
N8C N 1.00849(17) 0.77953(10) -0.1231(3)
Mn1C Mn 0.91518(3) 0.713031(17) -0.32409(5)
Mn1C_2 Mn 0.91518(3) 0.713031(17) 0.67591(5)
loop_
_geom_bond_atom_site_label_1
_geom_bond_atom_site_label_2
_geom_bond_site_symmetry_1
_geom_bond_site_symmetry_2
C1 H1 1_555 1_555
C2 C1 1_555 1_555
H2 C2 1_555 1_555
C3 C2 1_555 1_555
H3 C3 1_555 1_555
C4 C3 1_555 1_555
H4 C4 1_555 1_555
C5 C4 1_555 1_555
C6 C5 1_555 1_555
C7 H5 1_555 1_555
C8 C7 1_555 1_555
C9 C8 1_555 1_555
H6 C9 1_555 1_555
C10 C9 1_555 1_555
H7 C10 1_555 1_555
C11 C10 1_555 1_555
H8 C11 1_555 1_555
C12 C11 1_555 1_555
H9 C12 1_555 1_555
C13 C8 1_555 1_555
N1 C1 1_555 1_555
N2 C6 1_555 1_555
N3 C7 1_555 1_555
N4 C6 1_555 1_555
N5 N6 1_555 1_555
N6 N7 1_555 1_555
N8 N9 1_555 1_555
N9 N10 1_555 1_555
Mn1 N1 1_555 1_555
N5C Mn1 1_555 1_555
N8C Mn1 1_555 1_555
Mn1C N5 1_555 1_555
Mn1C_2 N8 1_555 1_555
C5 N1 1_555 1_555
C12 C13 1_555 1_555
N2 N3 1_555 1_555
N2 Mn1 1_555 1_555
N5 Mn1 1_555 1_555
N8 Mn1 1_555 1_555
N5C Mn1C_2 1_555 1_555
N8C Mn1C 1_555 1_555

#END
