
#######################################################################
#
#                 Cambridge Crystallographic Data Centre
#                                CCDC 
#
#######################################################################
#
# If this CIF has been generated from an entry in the Cambridge 
# Structural Database, then it will include bibliographic, chemical, 
# crystal, experimental, refinement or atomic coordinate data resulting 
# from the CCDC's data processing and validation procedures.
#
#######################################################################

data_DOHDAH
_symmetry_cell_setting           monoclinic
_symmetry_space_group_name_H-M   'C 2'
_symmetry_Int_Tables_number      5
_space_group_name_Hall           'C 2y'
loop_
_symmetry_equiv_pos_site_id
_symmetry_equiv_pos_as_xyz
1 x,y,z
2 -x,y,-z
3 1/2+x,1/2+y,z
4 1/2-x,1/2+y,-z
_cell_length_a                   29.750(3)
_cell_length_b                   9.3130(8)
_cell_length_c                   15.7483(14)
_cell_angle_alpha                90
_cell_angle_beta                 102.0960(10)
_cell_angle_gamma                90
_cell_volume                     4266.38
loop_
_atom_site_label
_atom_site_type_symbol
_atom_site_fract_x
_atom_site_fract_y
_atom_site_fract_z
Zn1 Zn 0.238843(10) 0.93891(4) 0.379212(19)
S1 S 0.21580(2) 0.76340(8) 0.56102(4)
N1 N 0.30542(8) 0.8422(3) 0.39759(17)
N2 N 0.46498(10) 0.7024(4) 0.3701(2)
N3 N 0.50435(10) 0.6177(4) 0.3748(2)
N4 N 0.66926(9) 0.5161(3) 0.35816(16)
O1 O 0.22999(8) 0.8575(3) 0.49696(14)
O2 O 0.23183(8) 0.6162(2) 0.54738(13)
O3 O 0.23829(8) 0.8122(3) 0.64880(14)
O4 O 0.16601(8) 0.7652(3) 0.55042(15)
O5 O 0.21575(7) 0.7505(3) 0.30117(13)
O6 O 0.24600(8) 1.0385(3) 0.26338(14)
C1 C 0.34017(11) 0.9128(3) 0.3721(2)
H1 H 0.3354 1.0076 0.3537
C2 C 0.38210(12) 0.8509(4) 0.3721(2)
H2 H 0.4051 0.9034 0.3543
C3 C 0.39001(11) 0.7091(4) 0.3991(2)
C4 C 0.35469(11) 0.6365(4) 0.4267(2)
H3 H 0.3586 0.5419 0.4457
C5 C 0.31344(11) 0.7083(4) 0.4255(2)
H4 H 0.2903 0.6597 0.4452
C6 C 0.43356(11) 0.6381(4) 0.3984(2)
H5 H 0.4384 0.5446 0.4190
C7 C 0.53592(11) 0.6885(4) 0.3509(2)
H6 H 0.5303 0.7828 0.3323
C8 C 0.58200(11) 0.6238(4) 0.3521(2)
C9 C 0.61678(11) 0.7138(4) 0.3357(2)
H7 H 0.6113 0.8104 0.3225
C10 C 0.66013(11) 0.6534(4) 0.3398(2)
H8 H 0.6837 0.7120 0.3292
C11 C 0.63521(10) 0.4307(4) 0.37143(19)
H9 H 0.6414 0.3340 0.3833
C12 C 0.59141(12) 0.4806(4) 0.3682(2)
H10 H 0.5684 0.4182 0.3767
H11 H 0.2008(13) 0.669(3) 0.320(2)
H12 H 0.1933(11) 0.781(4) 0.2488(17)
H13 H 0.2171(9) 1.028(4) 0.225(2)
H14 H 0.2582(12) 1.130(3) 0.257(3)
Zn1B Zn 0.738843(10) 0.43891(4) 0.379212(19)
Zn1C Zn 0.261157(10) 0.43891(4) 0.620788(19)
N4B N 0.16926(9) 1.0161(3) 0.35816(16)
O2C O 0.26817(8) 1.1162(2) 0.45262(13)
Zn2 Zn 0.224108(10) 0.94255(4) 0.877940(19)
S2 S 0.22821(2) 0.78257(8) 1.08410(4)
N5 N 0.29000(8) 0.8471(3) 0.88936(16)
N6 N 0.45207(9) 0.7178(3) 0.8751(2)
N7 N 0.49157(10) 0.6308(4) 0.8802(2)
N8 N 0.65688(8) 0.5247(3) 0.86993(16)
O7 O 0.21776(7) 0.8642(2) 1.00334(14)
O8 O 0.24147(7) 0.6352(2) 1.06498(13)
O9 O 0.18750(7) 0.7774(3) 1.12341(13)
O10 O 0.26640(7) 0.8509(2) 1.14584(14)
O11 O 0.19540(7) 0.7527(3) 0.81420(13)
O12 O 0.22411(8) 1.0250(3) 0.75319(13)
C13 C 0.32442(10) 0.9214(4) 0.8672(2)
H15 H 0.3193 1.0165 0.8497
C14 C 0.36716(11) 0.8620(4) 0.8696(2)
H16 H 0.3905 0.9169 0.8550
C15 C 0.37503(10) 0.7186(4) 0.8942(2)
C16 C 0.33886(11) 0.6428(4) 0.9153(2)
H17 H 0.3424 0.5464 0.9308
C17 C 0.29758(10) 0.7114(3) 0.91324(19)
H18 H 0.2739 0.6599 0.9294
C18 C 0.41992(11) 0.6486(4) 0.8958(2)
H19 H 0.4242 0.5528 0.9123
C19 C 0.52439(11) 0.7054(4) 0.8610(2)
H20 H 0.5197 0.8014 0.8452
C20 C 0.56998(11) 0.6373(4) 0.8642(2)
C21 C 0.60339(11) 0.7172(4) 0.8363(2)
H21 H 0.5971 0.8099 0.8152
C22 C 0.64670(11) 0.6565(4) 0.8404(2)
H22 H 0.6691 0.7103 0.8218
C23 C 0.62397(10) 0.4452(5) 0.89479(18)
H23 H 0.6309 0.3520 0.9144
C24 C 0.58045(11) 0.4978(4) 0.8920(2)
H24 H 0.5583 0.4402 0.9087
H25 H 0.1726(10) 0.789(4) 0.7664(19)
H26 H 0.1810(12) 0.676(3) 0.837(2)
H27 H 0.2196(14) 0.962(3) 0.7070(19)
H28 H 0.2369(14) 1.109(3) 0.743(2)
Zn2B Zn 0.724108(10) 0.44255(4) 0.877940(19)
Zn2C Zn 0.275892(10) 0.44255(4) 1.122060(19)
N8B N 0.15688(8) 1.0247(3) 0.86993(16)
O8C O 0.25853(7) 1.1352(2) 0.93502(13)
O13 O 0.17754(8) 0.5342(3) 0.91920(15)
H29 H 0.1938(13) 0.553(4) 0.9754(15)
H30 H 0.1883(13) 0.450(3) 0.897(2)
O14 O 0.12325(10) 0.8069(4) 0.68627(19)
H31 H 0.1312(12) 0.706(2) 0.694(3)
H32 H 0.0899(6) 0.806(4) 0.680(3)
O15 O 0.18975(9) 0.5178(3) 0.37844(16)
H33 H 0.2029(12) 0.434(3) 0.364(2)
H34 H 0.2112(12) 0.556(4) 0.4290(19)
O16 O 0.58410(14) 0.0656(6) 0.9105(3)
H35 H 0.5783(15) 0.056(6) 0.8539(13)
H36 H 0.5642(13) 0.092(5) 0.946(2)
loop_
_geom_bond_atom_site_label_1
_geom_bond_atom_site_label_2
_geom_bond_site_symmetry_1
_geom_bond_site_symmetry_2
Zn1 N1 1_555 1_555
S1 O1 1_555 1_555
N1 C1 1_555 1_555
N2 N3 1_555 1_555
N3 C7 1_555 1_555
N4 C10 1_555 1_555
O1 Zn1 1_555 1_555
O2 S1 1_555 1_555
O3 S1 1_555 1_555
O4 S1 1_555 1_555
O5 Zn1 1_555 1_555
O6 Zn1 1_555 1_555
C1 H1 1_555 1_555
C2 C1 1_555 1_555
H2 C2 1_555 1_555
C3 C2 1_555 1_555
C4 C3 1_555 1_555
H3 C4 1_555 1_555
C5 N1 1_555 1_555
H4 C5 1_555 1_555
C6 N2 1_555 1_555
H5 C6 1_555 1_555
C7 H6 1_555 1_555
C8 C7 1_555 1_555
C9 C8 1_555 1_555
H7 C9 1_555 1_555
C10 C9 1_555 1_555
H8 C10 1_555 1_555
C11 N4 1_555 1_555
H9 C11 1_555 1_555
C12 C8 1_555 1_555
H10 C12 1_555 1_555
H11 O5 1_555 1_555
H12 O5 1_555 1_555
H13 O6 1_555 1_555
H14 O6 1_555 1_555
Zn2 N5 1_555 1_555
S2 O7 1_555 1_555
N5 C13 1_555 1_555
N6 N7 1_555 1_555
N7 C19 1_555 1_555
N8 C22 1_555 1_555
O7 Zn2 1_555 1_555
O8 S2 1_555 1_555
O9 S2 1_555 1_555
O10 S2 1_555 1_555
O11 Zn2 1_555 1_555
O12 Zn2 1_555 1_555
C13 H15 1_555 1_555
C14 C13 1_555 1_555
H16 C14 1_555 1_555
C15 C14 1_555 1_555
C16 C15 1_555 1_555
H17 C16 1_555 1_555
C17 N5 1_555 1_555
H18 C17 1_555 1_555
C18 N6 1_555 1_555
H19 C18 1_555 1_555
C19 H20 1_555 1_555
C20 C19 1_555 1_555
C21 C20 1_555 1_555
H21 C21 1_555 1_555
C22 C21 1_555 1_555
H22 C22 1_555 1_555
C23 N8 1_555 1_555
H23 C23 1_555 1_555
C24 C20 1_555 1_555
H24 C24 1_555 1_555
H25 O11 1_555 1_555
H26 O11 1_555 1_555
H27 O12 1_555 1_555
H28 O12 1_555 1_555
O13 H29 1_555 1_555
H30 O13 1_555 1_555
O14 H31 1_555 1_555
H32 O14 1_555 1_555
O15 H33 1_555 1_555
H34 O15 1_555 1_555
O16 H35 1_555 1_555
H36 O16 1_555 1_555
Zn1B N4 1_555 1_555
Zn1C O2 1_555 1_555
N4B Zn1 1_555 1_555
O2C Zn1 1_555 1_555
Zn2B N8 1_555 1_555
Zn2C O8 1_555 1_555
N8B Zn2 1_555 1_555
O8C Zn2 1_555 1_555
C3 C6 1_555 1_555
C4 C5 1_555 1_555
C11 C12 1_555 1_555
C15 C18 1_555 1_555
C16 C17 1_555 1_555
C23 C24 1_555 1_555

#END
