
#######################################################################
#
#                 Cambridge Crystallographic Data Centre
#                                CCDC 
#
#######################################################################
#
# If this CIF has been generated from an entry in the Cambridge 
# Structural Database, then it will include bibliographic, chemical, 
# crystal, experimental, refinement or atomic coordinate data resulting 
# from the CCDC's data processing and validation procedures.
#
#######################################################################

data_DOHDAG
_symmetry_cell_setting           monoclinic
_symmetry_space_group_name_H-M   'P 21/n'
_symmetry_Int_Tables_number      14
_space_group_name_Hall           '-P 2yn'
loop_
_symmetry_equiv_pos_site_id
_symmetry_equiv_pos_as_xyz
1 x,y,z
2 1/2-x,1/2+y,1/2-z
3 -x,-y,-z
4 1/2+x,1/2-y,1/2+z
_cell_length_a                   7.7827(7)
_cell_length_b                   16.1812(13)
_cell_length_c                   14.9377(15)
_cell_angle_alpha                90
_cell_angle_beta                 98.664(3)
_cell_angle_gamma                90
_cell_volume                     1859.69
loop_
_atom_site_label
_atom_site_type_symbol
_atom_site_fract_x
_atom_site_fract_y
_atom_site_fract_z
Ag1 Ag 0.19903(10) 0.46537(5) 0.54483(6)
N1 N 0.3264(10) 0.5584(5) 0.4777(6)
N2 N 0.4268(10) 0.6134(5) 0.2542(5)
H1 H 0.4762 0.6537 0.2305
N3 N 0.6350(11) 0.6887(6) -0.1439(6)
H2 H 0.6763 0.6596 -0.1839
N4 N 0.3977(10) 0.8843(5) -0.1377(6)
C1 C 0.3970(14) 0.6207(7) 0.5268(7)
H3 H 0.3883 0.6235 0.5881
C2 C 0.4859(14) 0.6833(6) 0.4863(8)
H4 H 0.5369 0.7269 0.5213
C3 C 0.4968(12) 0.6801(6) 0.3978(7)
H5 H 0.5556 0.7213 0.3713
C4 C 0.4210(11) 0.6156(6) 0.3458(6)
C5 C 0.3372(12) 0.5557(6) 0.3896(7)
H6 H 0.2860 0.5115 0.3558
C6 C 0.3544(14) 0.5470(6) 0.1957(7)
H7 H 0.2378 0.5347 0.2074
H8 H 0.4247 0.4977 0.2086
C7 C 0.3483(12) 0.5707(6) 0.0971(6)
C8 C 0.1996(12) 0.5622(7) 0.0372(7)
H9 H 0.1007 0.5418 0.0577
C9 C 0.1907(14) 0.5824(7) -0.0515(8)
H10 H 0.0880 0.5743 -0.0912
C10 C 0.3373(14) 0.6156(6) -0.0833(7)
H11 H 0.3314 0.6317 -0.1434
C11 C 0.4898(12) 0.6238(6) -0.0238(7)
C12 C 0.4957(13) 0.6024(6) 0.0667(7)
H12 H 0.5982 0.6091 0.1069
C13 C 0.6551(13) 0.6587(7) -0.0528(7)
H13 H 0.6972 0.7035 -0.0123
H14 H 0.7433 0.6158 -0.0459
C14 C 0.5536(12) 0.7615(6) -0.1706(6)
C15 C 0.5352(14) 0.7856(8) -0.2597(7)
H15 H 0.5796 0.7524 -0.3016
C16 C 0.4530(16) 0.8571(9) -0.2873(8)
H16 H 0.4431 0.8736 -0.3475
C17 C 0.3828(14) 0.9061(7) -0.2238(8)
H17 H 0.3248 0.9547 -0.2428
C18 C 0.4766(12) 0.8130(7) -0.1118(7)
H18 H 0.4808 0.7965 -0.0518
Ag1A Ag 0.30097(10) 0.96537(5) -0.04483(6)
N4A N 0.1023(10) 0.3843(5) 0.6377(6)
Cl1 Cl 0.0154(4) 0.35056(17) 0.32275(17)
O1 O -0.016(2) 0.4055(10) 0.3896(10)
O2 O 0.077(2) 0.3922(11) 0.2527(10)
O3 O -0.1331(17) 0.3063(11) 0.2900(12)
O4 O 0.1441(19) 0.2943(10) 0.3618(12)
O5? O 0.110(2) 0.3547(12) 0.4081(8)
O6? O 0.1153(19) 0.3744(10) 0.2578(10)
O7? O -0.1288(17) 0.4049(8) 0.3181(12)
O8? O -0.052(2) 0.2717(6) 0.3039(11)
loop_
_geom_bond_atom_site_label_1
_geom_bond_atom_site_label_2
_geom_bond_site_symmetry_1
_geom_bond_site_symmetry_2
Ag1 N1 1_555 1_555
Cl1 O1 1_555 1_555
O2 Cl1 1_555 1_555
O3 Cl1 1_555 1_555
O4 Cl1 1_555 1_555
N1 C1 1_555 1_555
N2 H1 1_555 1_555
N3 H2 1_555 1_555
N4 C17 1_555 1_555
C1 H3 1_555 1_555
C2 C1 1_555 1_555
H4 C2 1_555 1_555
C3 C2 1_555 1_555
H5 C3 1_555 1_555
C4 N2 1_555 1_555
C5 N1 1_555 1_555
H6 C5 1_555 1_555
C6 N2 1_555 1_555
H7 C6 1_555 1_555
H8 C6 1_555 1_555
C7 C6 1_555 1_555
C8 C7 1_555 1_555
H9 C8 1_555 1_555
C9 C8 1_555 1_555
H10 C9 1_555 1_555
C10 C9 1_555 1_555
H11 C10 1_555 1_555
C11 C10 1_555 1_555
C12 C7 1_555 1_555
H12 C12 1_555 1_555
C13 N3 1_555 1_555
H13 C13 1_555 1_555
H14 C13 1_555 1_555
C14 N3 1_555 1_555
C15 C14 1_555 1_555
H15 C15 1_555 1_555
C16 C15 1_555 1_555
H16 C16 1_555 1_555
C17 C16 1_555 1_555
H17 C17 1_555 1_555
C18 N4 1_555 1_555
H18 C18 1_555 1_555
Ag1A N4 1_555 1_555
N4A Ag1 1_555 1_555
C3 C4 1_555 1_555
C4 C5 1_555 1_555
C11 C12 1_555 1_555
C11 C13 1_555 1_555
C14 C18 1_555 1_555

#END
