
#######################################################################
#
#                 Cambridge Crystallographic Data Centre
#                                CCDC 
#
#######################################################################
#
# If this CIF has been generated from an entry in the Cambridge 
# Structural Database, then it will include bibliographic, chemical, 
# crystal, experimental, refinement or atomic coordinate data resulting 
# from the CCDC's data processing and validation procedures.
#
#######################################################################

data_DOHDEK
_symmetry_cell_setting           triclinic
_symmetry_space_group_name_H-M   'P -1'
_symmetry_Int_Tables_number      2
_space_group_name_Hall           '-P 1'
loop_
_symmetry_equiv_pos_site_id
_symmetry_equiv_pos_as_xyz
1 x,y,z
2 -x,-y,-z
_cell_length_a                   7.4368(2)
_cell_length_b                   10.5408(3)
_cell_length_c                   13.3439(3)
_cell_angle_alpha                106.9842(12)
_cell_angle_beta                 93.0774(12)
_cell_angle_gamma                109.8723(12)
_cell_volume                     927.124
loop_
_atom_site_label
_atom_site_type_symbol
_atom_site_fract_x
_atom_site_fract_y
_atom_site_fract_z
Mn1 Mn 0.23212(8) 0.12303(5) 0.51912(5)
C1 C 0.0314(6) 0.1715(5) 0.3222(4)
H1 H -0.011(5) 0.063(4) 0.296(3)
C2 C -0.0155(7) 0.2460(5) 0.2629(4)
H2 H -0.0902 0.1974 0.1954
C3 C 0.0465(7) 0.3892(6) 0.3025(4)
H3 H 0.031(6) 0.448(5) 0.274(4)
C4 C 0.1545(7) 0.4588(5) 0.4028(4)
H4 H 0.190(5) 0.540(4) 0.427(3)
C5 C 0.1987(5) 0.3807(4) 0.4605(3)
C6 C 0.3144(5) 0.4451(4) 0.5693(3)
C7 C 0.5091(6) 0.3592(5) 0.7636(3)
H5 H 0.466(6) 0.256(5) 0.734(3)
C8 C 0.6229(6) 0.4218(4) 0.8704(3)
C9 C 0.6577(7) 0.3322(6) 0.9210(4)
H6 H 0.607(8) 0.241(6) 0.872(4)
C10 C 0.7561(7) 0.3882(6) 1.0225(4)
H7 H 0.7793 0.3288 1.0569
C11 C 0.8200(7) 0.5313(7) 1.0730(5)
H8 H 0.877(8) 0.559(6) 1.130(4)
C12 C 0.7846(6) 0.6126(5) 1.0161(4)
H10 H 0.369(6) 0.649(5) 0.580(3)
H11 H 0.420(6) 0.611(5) 0.676(4)
N1 N 0.1374(4) 0.2368(3) 0.4197(2)
N2 N 0.3485(4) 0.3579(3) 0.6141(3)
N3 N 0.4582(4) 0.4340(3) 0.7164(3)
N4 N 0.6872(5) 0.5638(4) 0.9191(3)
N5 N 0.3742(6) 0.5850(4) 0.6151(4)
N6 N 0.0364(5) -0.0866(3) 0.4050(3)
N7 N 0.0842(4) -0.1825(4) 0.3598(3)
N8 N 0.1269(6) -0.2757(4) 0.3152(3)
N9 N 0.3505(5) 0.0198(4) 0.6145(3)
N10 N 0.4315(4) -0.0594(3) 0.5888(2)
N11 N 0.5116(5) -0.1401(4) 0.5664(3)
Br1 Br 0.88103(9) 0.81421(7) 1.08202(5)
Mn1A Mn -0.23212(8) -0.12303(5) 0.48088(5)
Mn1A_2 Mn 0.76788(8) -0.12303(5) 0.48088(5)
N6A N -0.0364(5) 0.0866(3) 0.5950(3)
N11A N 0.4884(5) 0.1401(4) 0.4336(3)
C13 C 0.6226(11) 0.9031(6) 0.8677(6)
H9 H 0.625(7) 0.720(3) 0.853(8)
O1 O 0.5375(8) 0.7539(4) 0.8327(4)
loop_
_geom_bond_atom_site_label_1
_geom_bond_atom_site_label_2
_geom_bond_site_symmetry_1
_geom_bond_site_symmetry_2
Mn1 N1 1_555 1_555
C1 H1 1_555 1_555
C2 C1 1_555 1_555
H2 C2 1_555 1_555
C3 C2 1_555 1_555
H3 C3 1_555 1_555
C4 C3 1_555 1_555
H4 C4 1_555 1_555
C5 C4 1_555 1_555
C6 C5 1_555 1_555
C7 H5 1_555 1_555
C8 C7 1_555 1_555
C9 C8 1_555 1_555
H6 C9 1_555 1_555
C10 C9 1_555 1_555
H7 C10 1_555 1_555
C11 C10 1_555 1_555
H8 C11 1_555 1_555
C12 C11 1_555 1_555
C13 O1 1_555 1_555
H9 O1 1_555 1_555
H10 N5 1_555 1_555
H11 N5 1_555 1_555
N1 C1 1_555 1_555
N2 Mn1 1_555 1_555
N3 C7 1_555 1_555
N4 C8 1_555 1_555
N5 C6 1_555 1_555
N6 Mn1 1_555 1_555
N7 N6 1_555 1_555
N8 N7 1_555 1_555
N9 Mn1 1_555 1_555
N10 N9 1_555 1_555
N11 N10 1_555 1_555
Br1 C12 1_555 1_555
Mn1A N6 1_555 1_555
Mn1A_2 N11 1_555 1_555
N6A Mn1 1_555 1_555
N11A Mn1 1_555 1_555
C5 N1 1_555 1_555
C6 N2 1_555 1_555
C12 N4 1_555 1_555
N2 N3 1_555 1_555
Mn1A N6A 1_555 1_555

#END
