
#######################################################################
#
#                 Cambridge Crystallographic Data Centre
#                                CCDC 
#
#######################################################################
#
# If this CIF has been generated from an entry in the Cambridge 
# Structural Database, then it will include bibliographic, chemical, 
# crystal, experimental, refinement or atomic coordinate data resulting 
# from the CCDC's data processing and validation procedures.
#
#######################################################################

data_DOHFIQ
_symmetry_cell_setting           monoclinic
_symmetry_space_group_name_H-M   'P 21/c'
_symmetry_Int_Tables_number      14
_space_group_name_Hall           '-P 2ybc'
loop_
_symmetry_equiv_pos_site_id
_symmetry_equiv_pos_as_xyz
1 x,y,z
2 -x,1/2+y,1/2-z
3 -x,-y,-z
4 x,1/2-y,1/2+z
_cell_length_a                   8.7175(7)
_cell_length_b                   19.2237(16)
_cell_length_c                   10.4100(9)
_cell_angle_alpha                90
_cell_angle_beta                 102.9450(10)
_cell_angle_gamma                90
_cell_volume                     1700.2
loop_
_atom_site_label
_atom_site_type_symbol
_atom_site_fract_x
_atom_site_fract_y
_atom_site_fract_z
Cd1 Cd 0.5000 0.5000 0.5000
Cl1 Cl 0.86441(7) 0.39883(3) 0.66751(6)
O1 O 0.7025(3) 0.41789(14) 0.6259(3)
O2 O 0.8946(3) 0.33683(12) 0.6026(3)
O3 O 0.9023(4) 0.3897(2) 0.8033(3)
O4 O 0.9530(4) 0.45286(17) 0.6304(5)
N1 N 0.3502(2) 0.39469(10) 0.44648(19)
N2 N 0.1353(2) 0.33694(10) 0.3407(2)
N3 N -0.4254(2) 0.48048(11) 0.30758(19)
N4 N -0.2748(2) 0.43597(10) 0.18046(19)
C1 C 0.1950(3) 0.39026(12) 0.4215(2)
H1 H 0.1325 0.4210 0.4563
C2 C 0.3968(3) 0.33816(12) 0.3779(2)
C3 C 0.5462(3) 0.31460(13) 0.3717(3)
H2 H 0.6366 0.3362 0.4193
C4 C 0.5549(3) 0.25786(14) 0.2920(3)
H3 H 0.6534 0.2413 0.2861
C5 C 0.4199(3) 0.22465(13) 0.2198(3)
H4 H 0.4306 0.1875 0.1652
C6 C 0.2715(3) 0.24600(13) 0.2280(3)
H5 H 0.1815 0.2236 0.1815
C7 C 0.2629(3) 0.30274(12) 0.3093(2)
C8 C -0.2805(3) 0.46729(13) 0.2951(2)
H6 H -0.1913 0.4785 0.3592
C9 C -0.5231(3) 0.45623(12) 0.1908(2)
C10 C -0.6868(3) 0.45720(13) 0.1481(2)
H7 H -0.7502 0.4766 0.1996
C11 C -0.7509(3) 0.42824(14) 0.0263(2)
H8 H -0.8597 0.4277 -0.0039
C12 C -0.6562(3) 0.39981(14) -0.0524(2)
H9 H -0.7036 0.3809 -0.1339
C13 C -0.4937(3) 0.39908(14) -0.0122(2)
H10 H -0.4306 0.3803 -0.0646
C14 C -0.4299(3) 0.42794(12) 0.1108(2)
C15 C -0.0304(3) 0.31614(14) 0.2954(3)
H11 H -0.0919 0.3374 0.3519
H12 H -0.0385 0.2661 0.3032
C16 C -0.0991(3) 0.33741(14) 0.1529(3)
H13 H -0.0256 0.3243 0.0996
H14 H -0.1957 0.3116 0.1206
C17 C -0.1343(3) 0.41491(14) 0.1343(3)
H15 H -0.1493 0.4263 0.0416
H16 H -0.0444 0.4411 0.1821
Cd1_2 Cd -0.5000 0.5000 0.5000
Cd1_3 Cd 1.5000 0.5000 0.5000
Cl1B Cl 0.13559(7) 0.60117(3) 0.33249(6)
O1B O 0.2975(3) 0.58211(14) 0.3741(3)
O2B O 0.1054(3) 0.66317(12) 0.3974(3)
O3B O 0.0977(4) 0.6103(2) 0.1967(3)
O4B O 0.0470(4) 0.54714(17) 0.3696(5)
N1B N 0.6498(2) 0.60531(10) 0.55352(19)
N2B N 0.8647(2) 0.66306(10) 0.6593(2)
N3B N 1.4254(2) 0.51952(11) 0.69242(19)
N3_2 N 0.5746(2) 0.48048(11) 0.30758(19)
N3B_2 N 0.4254(2) 0.51952(11) 0.69242(19)
N4B N 1.2748(2) 0.56403(10) 0.81954(19)
C1B C 0.8050(3) 0.60974(12) 0.5785(2)
H1B H 0.8675 0.5790 0.5437
C2B C 0.6032(3) 0.66184(12) 0.6221(2)
C3B C 0.4538(3) 0.68540(13) 0.6283(3)
H2B H 0.3634 0.6638 0.5807
C4B C 0.4451(3) 0.74214(14) 0.7080(3)
H3B H 0.3466 0.7587 0.7139
C5B C 0.5801(3) 0.77535(13) 0.7802(3)
H4B H 0.5694 0.8125 0.8348
C6B C 0.7285(3) 0.75400(13) 0.7720(3)
H5B H 0.8185 0.7764 0.8185
C7B C 0.7371(3) 0.69726(12) 0.6907(2)
C8B C 1.2805(3) 0.53271(13) 0.7049(2)
H6B H 1.1913 0.5215 0.6408
C9B C 1.5231(3) 0.54377(12) 0.8092(2)
C10B C 1.6868(3) 0.54280(13) 0.8519(2)
H7B H 1.7502 0.5234 0.8004
C11B C 1.7509(3) 0.57176(14) 0.9737(2)
H8B H 1.8597 0.5723 1.0039
C12B C 1.6562(3) 0.60019(14) 1.0524(2)
H9B H 1.7036 0.6191 1.1339
C13B C 1.4937(3) 0.60092(14) 1.0122(2)
H10B H 1.4306 0.6197 1.0646
C14B C 1.4299(3) 0.57206(12) 0.8892(2)
C15B C 1.0304(3) 0.68386(14) 0.7046(3)
H11B H 1.0919 0.6626 0.6481
H12B H 1.0385 0.7339 0.6968
C16B C 1.0991(3) 0.66259(14) 0.8471(3)
H13B H 1.0256 0.6757 0.9004
H14B H 1.1957 0.6884 0.8794
C17B C 1.1343(3) 0.58509(14) 0.8657(3)
H15B H 1.1493 0.5737 0.9584
H16B H 1.0444 0.5589 0.8179
loop_
_geom_bond_atom_site_label_1
_geom_bond_atom_site_label_2
_geom_bond_site_symmetry_1
_geom_bond_site_symmetry_2
Cd1 O1 1_555 1_555
Cl1 O1 1_555 1_555
O2 Cl1 1_555 1_555
O3 Cl1 1_555 1_555
O4 Cl1 1_555 1_555
N1 Cd1 1_555 1_555
N2 C1 1_555 1_555
N3 C8 1_555 1_555
N4 C8 1_555 1_555
C1 N1 1_555 1_555
H1 C1 1_555 1_555
C2 N1 1_555 1_555
C3 C2 1_555 1_555
H2 C3 1_555 1_555
C4 C3 1_555 1_555
H3 C4 1_555 1_555
C5 C4 1_555 1_555
H4 C5 1_555 1_555
C6 C5 1_555 1_555
H5 C6 1_555 1_555
C7 N2 1_555 1_555
C8 H6 1_555 1_555
C9 N3 1_555 1_555
C10 C9 1_555 1_555
H7 C10 1_555 1_555
C11 C10 1_555 1_555
H8 C11 1_555 1_555
C12 C11 1_555 1_555
H9 C12 1_555 1_555
C13 C12 1_555 1_555
H10 C13 1_555 1_555
C14 N4 1_555 1_555
C15 N2 1_555 1_555
H11 C15 1_555 1_555
H12 C15 1_555 1_555
C16 C15 1_555 1_555
H13 C16 1_555 1_555
H14 C16 1_555 1_555
C17 N4 1_555 1_555
H15 C17 1_555 1_555
H16 C17 1_555 1_555
Cd1_2 N3 1_555 1_555
Cd1_3 N3B 1_555 1_555
Cl1B O1B 1_555 1_555
O1B Cd1 1_555 1_555
O2B Cl1B 1_555 1_555
O3B Cl1B 1_555 1_555
O4B Cl1B 1_555 1_555
N1B Cd1 1_555 1_555
N2B C1B 1_555 1_555
N3B C8B 1_555 1_555
N3_2 Cd1 1_555 1_555
N3B_2 Cd1 1_555 1_555
N4B C8B 1_555 1_555
C1B N1B 1_555 1_555
H1B C1B 1_555 1_555
C2B N1B 1_555 1_555
C3B C2B 1_555 1_555
H2B C3B 1_555 1_555
C4B C3B 1_555 1_555
H3B C4B 1_555 1_555
C5B C4B 1_555 1_555
H4B C5B 1_555 1_555
C6B C5B 1_555 1_555
H5B C6B 1_555 1_555
C7B N2B 1_555 1_555
C8B H6B 1_555 1_555
C9B N3B 1_555 1_555
C10B C9B 1_555 1_555
H7B C10B 1_555 1_555
C11B C10B 1_555 1_555
H8B C11B 1_555 1_555
C12B C11B 1_555 1_555
H9B C12B 1_555 1_555
C13B C12B 1_555 1_555
H10B C13B 1_555 1_555
C14B N4B 1_555 1_555
C15B N2B 1_555 1_555
H11B C15B 1_555 1_555
H12B C15B 1_555 1_555
C16B C15B 1_555 1_555
H13B C16B 1_555 1_555
H14B C16B 1_555 1_555
C17B N4B 1_555 1_555
H15B C17B 1_555 1_555
H16B C17B 1_555 1_555
C2 C7 1_555 1_555
C6 C7 1_555 1_555
C9 C14 1_555 1_555
C13 C14 1_555 1_555
C16 C17 1_555 1_555
C2B C7B 1_555 1_555
C6B C7B 1_555 1_555
C9B C14B 1_555 1_555
C13B C14B 1_555 1_555
C16B C17B 1_555 1_555

#END
