
#######################################################################
#
#                 Cambridge Crystallographic Data Centre
#                                CCDC 
#
#######################################################################
#
# If this CIF has been generated from an entry in the Cambridge 
# Structural Database, then it will include bibliographic, chemical, 
# crystal, experimental, refinement or atomic coordinate data resulting 
# from the CCDC's data processing and validation procedures.
#
#######################################################################

data_DOHFOW
_symmetry_cell_setting           triclinic
_symmetry_space_group_name_H-M   'P -1'
_symmetry_Int_Tables_number      2
_space_group_name_Hall           '-P 1'
loop_
_symmetry_equiv_pos_site_id
_symmetry_equiv_pos_as_xyz
1 x,y,z
2 -x,-y,-z
_cell_length_a                   9.0193(12)
_cell_length_b                   11.0750(15)
_cell_length_c                   12.8800(18)
_cell_angle_alpha                66.646(2)
_cell_angle_beta                 75.201(2)
_cell_angle_gamma                67.5560(10)
_cell_volume                     1083.45
loop_
_atom_site_label
_atom_site_type_symbol
_atom_site_fract_x
_atom_site_fract_y
_atom_site_fract_z
Cd1 Cd -0.34187(3) 0.87955(2) 0.66581(2)
S1 S -0.70906(9) 0.89102(8) 0.61307(7)
O1 O -0.5578(3) 0.8202(2) 0.6657(2)
O2 O -0.8480(3) 0.8942(3) 0.7014(2)
O3 O -0.7130(3) 1.0352(2) 0.53911(19)
O4 O -0.7133(3) 0.8160(2) 0.5419(2)
O5 O -0.5264(3) 1.1123(3) 0.6285(2)
O6 O -0.1618(3) 0.9947(3) 0.6538(2)
N1 N -0.1435(3) 0.6805(3) 0.6611(2)
N2 N 0.1090(3) 0.5370(3) 0.6586(2)
N3 N 0.3576(3) 0.2433(3) 0.9607(2)
N4 N 0.3947(3) 0.1735(3) 1.1433(2)
C1 C 0.0092(4) 0.6618(3) 0.6634(3)
H2 H 0.0444 0.7281 0.6678
C2 C -0.1438(4) 0.5590(3) 0.6529(3)
C3 C -0.2698(4) 0.5218(4) 0.6438(3)
H3 H -0.3755 0.5816 0.6430
C4 C -0.2307(5) 0.3921(4) 0.6361(3)
H4 H -0.3124 0.3639 0.6308
C5 C -0.0721(5) 0.3019(4) 0.6361(3)
H5 H -0.0511 0.2155 0.6305
C6 C 0.0530(4) 0.3376(3) 0.6439(3)
H6 H 0.1586 0.2779 0.6435
C7 C 0.0142(4) 0.4681(3) 0.6526(3)
C8 C 0.2854(4) 0.4880(4) 0.6602(3)
H7 H 0.3285 0.5630 0.6121
H8 H 0.3345 0.4131 0.6288
C9 C 0.3304(4) 0.4375(3) 0.7791(3)
H9 H 0.2799 0.5119 0.8109
H10 H 0.4466 0.4134 0.7749
C10 C 0.2787(4) 0.3128(4) 0.8573(3)
H11 H 0.1625 0.3423 0.8777
H12 H 0.3051 0.2479 0.8172
C11 C 0.2913(4) 0.2454(4) 1.0670(3)
H13 H 0.1836 0.2929 1.0847
C12 C 0.5176(4) 0.1609(3) 0.9678(3)
C13 C 0.6388(5) 0.1188(4) 0.8862(3)
H14 H 0.6217 0.1475 0.8107
C14 C 0.7855(5) 0.0324(4) 0.9232(3)
H15 H 0.8702 0.0017 0.8714
C15 C 0.8104(4) -0.0105(4) 1.0370(3)
H16 H 0.9112 -0.0696 1.0589
C16 C 0.6897(4) 0.0323(4) 1.1175(3)
H17 H 0.7075 0.0044 1.1927
C17 C 0.5403(4) 0.1188(3) 1.0813(3)
H21 H -0.470(4) 1.160(3) 0.578(2)
H22 H -0.603(3) 1.110(4) 0.602(3)
H23 H -0.064(2) 0.960(4) 0.668(3)
H24 H -0.175(5) 1.061(4) 0.590(2)
Cd1A Cd -0.65813(3) 1.12045(2) 0.33419(2)
Cd1A_2 Cd 0.34187(3) 0.12045(2) 1.33419(2)
O3A O -0.2870(3) 0.9648(2) 0.46089(19)
N4A N -0.3947(3) 0.8265(3) 0.8567(2)
O7 O 0.1090(4) 0.6860(4) 0.9235(3)
H1 H 0.1392 0.7417 0.8654
C18 C 0.2149(7) 0.6366(6) 1.0047(5)
H18 H 0.1995 0.7084 1.0340
H19 H 0.3243 0.6093 0.9698
H20 H 0.1933 0.5581 1.0659
loop_
_geom_bond_atom_site_label_1
_geom_bond_atom_site_label_2
_geom_bond_site_symmetry_1
_geom_bond_site_symmetry_2
Cd1 O1 1_555 1_555
S1 O1 1_555 1_555
O2 S1 1_555 1_555
O3 S1 1_555 1_555
O4 S1 1_555 1_555
O5 Cd1 1_555 1_555
O6 Cd1 1_555 1_555
O7 H1 1_555 1_555
N1 Cd1 1_555 1_555
N2 C1 1_555 1_555
N3 C10 1_555 1_555
N4 C11 1_555 1_555
C1 N1 1_555 1_555
H2 C1 1_555 1_555
C2 N1 1_555 1_555
C3 C2 1_555 1_555
H3 C3 1_555 1_555
C4 C3 1_555 1_555
H4 C4 1_555 1_555
C5 C4 1_555 1_555
H5 C5 1_555 1_555
C6 C5 1_555 1_555
H6 C6 1_555 1_555
C7 N2 1_555 1_555
C8 N2 1_555 1_555
H7 C8 1_555 1_555
H8 C8 1_555 1_555
C9 C8 1_555 1_555
H9 C9 1_555 1_555
H10 C9 1_555 1_555
C10 C9 1_555 1_555
H11 C10 1_555 1_555
H12 C10 1_555 1_555
C11 N3 1_555 1_555
H13 C11 1_555 1_555
C12 N3 1_555 1_555
C13 C12 1_555 1_555
H14 C13 1_555 1_555
C14 C13 1_555 1_555
H15 C14 1_555 1_555
C15 C14 1_555 1_555
H16 C15 1_555 1_555
C16 C15 1_555 1_555
H17 C16 1_555 1_555
C17 N4 1_555 1_555
C18 O7 1_555 1_555
H18 C18 1_555 1_555
H19 C18 1_555 1_555
H20 C18 1_555 1_555
H21 O5 1_555 1_555
H22 O5 1_555 1_555
H23 O6 1_555 1_555
H24 O6 1_555 1_555
Cd1A O3 1_555 1_555
Cd1A_2 N4 1_555 1_555
O3A Cd1 1_555 1_555
N4A Cd1 1_555 1_555
C2 C7 1_555 1_555
C6 C7 1_555 1_555
C12 C17 1_555 1_555
C16 C17 1_555 1_555

#END
