
#######################################################################
#
#                 Cambridge Crystallographic Data Centre
#                                CCDC 
#
#######################################################################
#
# If this CIF has been generated from an entry in the Cambridge 
# Structural Database, then it will include bibliographic, chemical, 
# crystal, experimental, refinement or atomic coordinate data resulting 
# from the CCDC's data processing and validation procedures.
#
#######################################################################

data_DOHGAK
_symmetry_cell_setting           triclinic
_symmetry_space_group_name_H-M   'P -1'
_symmetry_Int_Tables_number      2
_space_group_name_Hall           '-P 1'
loop_
_symmetry_equiv_pos_site_id
_symmetry_equiv_pos_as_xyz
1 x,y,z
2 -x,-y,-z
_cell_length_a                   8.4362(5)
_cell_length_b                   10.7119(7)
_cell_length_c                   19.9504(17)
_cell_angle_alpha                94.185(6)
_cell_angle_beta                 102.200(6)
_cell_angle_gamma                94.855(5)
_cell_volume                     1748.18
loop_
_atom_site_label
_atom_site_type_symbol
_atom_site_fract_x
_atom_site_fract_y
_atom_site_fract_z
Cd1 Cd 0.22219(5) 0.79606(4) 0.13844(2)
Br1 Br 0.39228(8) 0.73101(6) 0.04637(3)
Br2 Br -0.05744(9) 0.81390(7) 0.05734(4)
N1 N 0.3250(6) 1.0134(4) 0.1446(3)
N2 N 0.7136(5) 1.6290(4) 0.1976(2)
N3 N 0.7899(6) 1.9750(4) 0.1890(2)
N4 N 1.1296(6) 2.5816(4) 0.1554(3)
C1 C 0.4083(8) 1.0670(5) 0.2055(3)
H1 H 0.4216 1.0178 0.2436
C2 C 0.3087(7) 1.0828(6) 0.0908(3)
H2 H 0.2485 1.0456 0.0472
C3 C 0.4769(7) 1.1914(5) 0.2161(3)
H3 H 0.5335 1.2265 0.2607
C4 C 0.3757(7) 1.2061(5) 0.0962(3)
H4 H 0.3641 1.2517 0.0566
C5 C 0.4613(7) 1.2634(5) 0.1606(3)
C6 C 0.5408(7) 1.3940(5) 0.1711(3)
C7 C 0.5531(7) 1.4658(5) 0.2333(3)
H5 H 0.5007 1.4341 0.2672
C8 C 0.6107(7) 1.4471(5) 0.1202(3)
H6 H 0.5996 1.4024 0.0762
C9 C 0.6408(7) 1.5823(5) 0.2460(3)
H7 H 0.6503 1.6303 0.2889
C10 C 0.6954(7) 1.5650(6) 0.1353(3)
H8 H 0.7419 1.6019 0.1012
C11 C 0.8128(7) 1.7529(5) 0.2132(3)
H9 H 0.8929 1.7587 0.1835
H10 H 0.8732 1.7625 0.2619
C12 C 0.7003(7) 1.8567(5) 0.2004(3)
H11 H 0.6116 1.8296 0.1595
H12 H 0.6502 1.8715 0.2405
C13 C 0.7475(7) 2.0257(5) 0.1285(3)
H13 H 0.6659 1.9816 0.0924
C14 C 0.9098(7) 2.0337(5) 0.2403(3)
H14 H 0.9410 1.9954 0.2819
C15 C 0.8204(7) 2.1397(5) 0.1188(3)
H15 H 0.7904 2.1745 0.0760
C16 C 0.9863(7) 2.1476(5) 0.2327(3)
H16 H 1.0714 2.1874 0.2689
C17 C 0.9412(7) 2.2055(5) 0.1729(3)
C18 C 1.0082(7) 2.3345(5) 0.1663(3)
C19 C 1.0338(7) 2.3712(5) 0.1034(3)
H17 H 1.0104 2.3133 0.0633
C20 C 1.0461(7) 2.4223(5) 0.2232(3)
H18 H 1.0332 2.3996 0.2670
C21 C 1.0950(7) 2.4958(5) 0.1012(3)
H19 H 1.1131 2.5209 0.0585
C22 C 1.1034(7) 2.5447(6) 0.2148(3)
H20 H 1.1250 2.6053 0.2537
C23 C 0.3506(7) 0.8058(5) 0.3562(3)
C24 C 0.3118(7) 0.9001(6) 0.4000(3)
C25 C 0.3406(7) 0.8876(6) 0.4708(3)
H21 H 0.3118 0.9502 0.5009
C26 C 0.4107(8) 0.7847(6) 0.4969(3)
H22 H 0.4300 0.7770 0.5450
C27 C 0.4534(8) 0.6919(6) 0.4533(3)
H23 H 0.5039 0.6219 0.4714
C28 C 0.4212(7) 0.7030(6) 0.3829(3)
H24 H 0.4479 0.6393 0.3527
C29 C 0.3072(7) 0.8103(5) 0.2793(3)
C30 C 0.2545(7) 1.0221(6) 0.3764(3)
O1 O 0.4020(5) 0.7667(4) 0.24370(19)
O2 O 0.1770(5) 0.8536(4) 0.2526(2)
O3 O 0.3511(5) 1.0924(4) 0.3529(2)
O4 O 0.1177(5) 1.0476(4) 0.3860(2)
Cd1_2 Cd 1.22219(5) 2.79606(4) 0.13844(2)
N4_2 N 0.1296(6) 0.5816(4) 0.1554(3)
O5 O 0.0685(8) 1.2327(5) 0.4728(3)
H25 H 0.100(9) 1.173(5) 0.452(3)
H26 H 0.043(10) 1.224(6) 0.511(2)
O6 O 0.8983(6) 0.8510(4) 0.3962(3)
H27 H 0.979(6) 0.905(6) 0.397(5)
H28 H 0.804(4) 0.876(7) 0.385(5)
O7 O 0.9629(6) 0.5924(5) 0.3695(2)
H29 H 0.9576 0.6709 0.3772
H30 H 0.8859 0.5438 0.3780
O8 O 0.6906(7) 0.4630(5) 0.4064(3)
H31 H 0.732(7) 0.479(8) 0.4491(14)
H32 H 0.592(4) 0.431(7) 0.395(3)
O9 O -0.1723(7) 1.2568(6) 0.3593(3)
H33 H -0.226(5) 1.314(4) 0.373(3)
H34 H -0.099(8) 1.231(7) 0.390(2)
O10 O 0.2000(6) 0.4607(5) 0.4524(3)
H35 H 0.145(11) 0.505(9) 0.435(4)
H36 H 0.155(10) 0.383(8) 0.450(4)
O11 O 0.6673(6) 0.0180(5) 0.3509(2)
H37 H 0.726(6) 0.088(4) 0.357(4)
H38 H 0.568(3) 0.023(6) 0.353(4)
O12 O 0.3755(6) 1.3555(4) 0.3589(2)
H39 H 0.3292 1.3907 0.3878
H40 H 0.3527 1.2748 0.3522
loop_
_geom_bond_atom_site_label_1
_geom_bond_atom_site_label_2
_geom_bond_site_symmetry_1
_geom_bond_site_symmetry_2
Cd1 Br1 1_555 1_555
Br2 Cd1 1_555 1_555
N1 Cd1 1_555 1_555
N2 C9 1_555 1_555
N3 C12 1_555 1_555
N4 C21 1_555 1_555
C1 N1 1_555 1_555
H1 C1 1_555 1_555
C2 N1 1_555 1_555
H2 C2 1_555 1_555
C3 C1 1_555 1_555
H3 C3 1_555 1_555
C4 C2 1_555 1_555
H4 C4 1_555 1_555
C5 C3 1_555 1_555
C6 C5 1_555 1_555
C7 C6 1_555 1_555
H5 C7 1_555 1_555
C8 C6 1_555 1_555
H6 C8 1_555 1_555
C9 C7 1_555 1_555
H7 C9 1_555 1_555
C10 N2 1_555 1_555
H8 C10 1_555 1_555
C11 N2 1_555 1_555
H9 C11 1_555 1_555
H10 C11 1_555 1_555
C12 C11 1_555 1_555
H11 C12 1_555 1_555
H12 C12 1_555 1_555
C13 N3 1_555 1_555
H13 C13 1_555 1_555
C14 N3 1_555 1_555
H14 C14 1_555 1_555
C15 C13 1_555 1_555
H15 C15 1_555 1_555
C16 C14 1_555 1_555
H16 C16 1_555 1_555
C17 C15 1_555 1_555
C18 C17 1_555 1_555
C19 C18 1_555 1_555
H17 C19 1_555 1_555
C20 C18 1_555 1_555
H18 C20 1_555 1_555
C21 C19 1_555 1_555
H19 C21 1_555 1_555
C22 N4 1_555 1_555
H20 C22 1_555 1_555
C23 C24 1_555 1_555
C24 C25 1_555 1_555
C25 H21 1_555 1_555
C26 C25 1_555 1_555
H22 C26 1_555 1_555
C27 C26 1_555 1_555
H23 C27 1_555 1_555
C28 C23 1_555 1_555
H24 C28 1_555 1_555
C29 C23 1_555 1_555
C30 C24 1_555 1_555
O1 Cd1 1_555 1_555
O2 Cd1 1_555 1_555
O3 C30 1_555 1_555
O4 C30 1_555 1_555
O5 H25 1_555 1_555
H26 O5 1_555 1_555
O6 H27 1_555 1_555
H28 O6 1_555 1_555
O7 H29 1_555 1_555
H30 O7 1_555 1_555
O8 H31 1_555 1_555
H32 O8 1_555 1_555
O9 H33 1_555 1_555
H34 O9 1_555 1_555
O10 H35 1_555 1_555
H36 O10 1_555 1_555
O11 H37 1_555 1_555
H38 O11 1_555 1_555
O12 H39 1_555 1_555
H40 O12 1_555 1_555
Cd1_2 N4 1_555 1_555
N4_2 Cd1 1_555 1_555
C4 C5 1_555 1_555
C8 C10 1_555 1_555
C16 C17 1_555 1_555
C20 C22 1_555 1_555
C27 C28 1_555 1_555
C29 O1 1_555 1_555
C29 O2 1_555 1_555

#END
