
#######################################################################
#
#                 Cambridge Crystallographic Data Centre
#                                CCDC 
#
#######################################################################
#
# If this CIF has been generated from an entry in the Cambridge 
# Structural Database, then it will include bibliographic, chemical, 
# crystal, experimental, refinement or atomic coordinate data resulting 
# from the CCDC's data processing and validation procedures.
#
#######################################################################

data_DOHGEO
_symmetry_cell_setting           triclinic
_symmetry_space_group_name_H-M   'P -1'
_symmetry_Int_Tables_number      2
_space_group_name_Hall           '-P 1'
loop_
_symmetry_equiv_pos_site_id
_symmetry_equiv_pos_as_xyz
1 x,y,z
2 -x,-y,-z
_cell_length_a                   9.324(2)
_cell_length_b                   11.882(3)
_cell_length_c                   12.235(3)
_cell_angle_alpha                70.286(10)
_cell_angle_beta                 75.784(12)
_cell_angle_gamma                68.281(11)
_cell_volume                     1174.1
loop_
_atom_site_label
_atom_site_type_symbol
_atom_site_fract_x
_atom_site_fract_y
_atom_site_fract_z
Cd1 Cd 0.65624(4) 0.74273(4) 0.35426(3)
Br1 Br 0.68597(11) 0.96479(8) 0.23937(8)
O1 O 0.2743(6) 0.8247(6) 0.2975(5)
O2 O 0.4055(5) 0.8113(5) 0.4325(4)
O3 O 0.7026(5) 0.6633(4) 0.2008(4)
O4 O 0.9289(6) 0.6403(5) 0.2430(4)
N1 N 0.7381(6) 0.7395(5) 0.5205(4)
N2 N 0.9709(6) 0.8789(4) 0.9488(4)
C1 C 0.2830(6) 0.8465(5) 0.3871(5)
C2 C 0.1350(6) 0.9251(5) 0.4479(4)
C3 C -0.0078(6) 0.9567(5) 0.4109(5)
H1 H -0.0135 0.9271 0.3494
C4 C 0.1414(6) 0.9695(5) 0.5373(5)
H2 H 0.2385 0.9488 0.5631
C5 C 0.8496(7) 0.6253(5) 0.1841(5)
C6 C 0.9291(7) 0.5598(5) 0.0883(4)
C7 C 0.8395(7) 0.5342(5) 0.0295(5)
H3 H 0.7294 0.5572 0.0495
C8 C 1.0861(7) 0.5259(5) 0.0595(5)
H4 H 1.1467 0.5431 0.1003
C9 C 0.6405(7) 0.8166(7) 0.5839(6)
H5 H 0.5379 0.8605 0.5643
C10 C 0.8814(7) 0.6765(6) 0.5511(5)
H6 H 0.9517 0.6197 0.5083
C11 C 0.6794(7) 0.8362(7) 0.6753(6)
H7 H 0.6054 0.8925 0.7172
C12 C 0.9316(7) 0.6900(5) 0.6417(5)
H8 H 1.0343 0.6439 0.6600
C13 C 0.8290(6) 0.7726(5) 0.7061(4)
C14 C 0.8778(6) 0.8022(5) 0.7965(4)
C15 C 0.7685(7) 0.8631(6) 0.8759(5)
H9 H 0.6603 0.8796 0.8774
C16 C 1.0354(7) 0.7761(5) 0.8005(5)
H10 H 1.1124 0.7305 0.7507
C17 C 0.8186(7) 0.8993(6) 0.9525(5)
H11 H 0.7447 0.9388 1.0079
C18 C 1.0796(7) 0.8163(5) 0.8764(5)
H12 H 1.1870 0.7998 0.8778
C19 C 1.0201(8) 0.9289(6) 1.0252(5)
H13 H 1.1337 0.8902 1.0277
H14 H 0.9653 0.9083 1.1060
O5 O 0.6777(9) 0.5336(5) 0.4626(5)
H15 H 0.7115 0.4946 0.5252
H16 H 0.662(14) 0.492(3) 0.428(6)
O1A O -0.2743(6) 1.1753(6) 0.7025(5)
O2A O -0.4055(5) 1.1887(5) 0.5675(4)
C1A C -0.2830(6) 1.1535(5) 0.6129(5)
C2A C -0.1350(6) 1.0749(5) 0.5521(4)
C3A C 0.0078(6) 1.0433(5) 0.5891(5)
H1A H 0.0135 1.0729 0.6506
C4A C -0.1414(6) 1.0305(5) 0.4627(5)
H2A H -0.2385 1.0512 0.4369
O3A O 1.2974(5) 0.3367(4) -0.2008(4)
O4A O 1.0711(6) 0.3597(5) -0.2430(4)
C5A C 1.1504(7) 0.3747(5) -0.1841(5)
C6A C 1.0709(7) 0.4402(5) -0.0883(4)
C7A C 1.1605(7) 0.4658(5) -0.0295(5)
H3A H 1.2706 0.4428 -0.0495
C8A C 0.9139(7) 0.4741(5) -0.0595(5)
H4A H 0.8533 0.4569 -0.1003
N1A N 1.2619(6) 1.2605(5) 1.4795(4)
N2A N 1.0291(6) 1.1211(4) 1.0512(4)
C9A C 1.3595(7) 1.1834(7) 1.4161(6)
H5A H 1.4621 1.1395 1.4357
C10A C 1.1186(7) 1.3235(6) 1.4489(5)
H6A H 1.0483 1.3803 1.4917
C11A C 1.3206(7) 1.1638(7) 1.3247(6)
H7A H 1.3946 1.1075 1.2828
C12A C 1.0684(7) 1.3100(5) 1.3583(5)
H8A H 0.9657 1.3561 1.3400
C13A C 1.1710(6) 1.2274(5) 1.2939(4)
C14A C 1.1222(6) 1.1978(5) 1.2035(4)
C15A C 1.2315(7) 1.1369(6) 1.1241(5)
H9A H 1.3397 1.1204 1.1226
C16A C 0.9646(7) 1.2239(5) 1.1995(5)
H10A H 0.8876 1.2695 1.2493
C17A C 1.1814(7) 1.1007(6) 1.0475(5)
H11A H 1.2553 1.0612 0.9921
C18A C 0.9204(7) 1.1837(5) 1.1236(5)
H12A H 0.8130 1.2002 1.1222
C19A C 0.9799(8) 1.0711(6) 0.9748(5)
H13A H 0.8663 1.1098 0.9723
H14A H 1.0347 1.0917 0.8940
Cd1A Cd -0.65624(4) 1.25727(4) 0.64574(3)
Br1A Br -0.68597(11) 1.03521(8) 0.76063(8)
O5A O -0.6777(9) 1.4664(5) 0.5374(5)
H15A H -0.7115 1.5054 0.4748
H16A H -0.662(14) 1.508(3) 0.572(6)
Cd1A_2 Cd 1.34376(4) 0.25727(4) -0.35426(3)
Cd1A_3 Cd 1.34376(4) 1.25727(4) 1.64574(3)
O3A_2 O -0.7026(5) 1.3367(4) 0.7992(4)
O4A_2 O -0.9289(6) 1.3597(5) 0.7570(4)
N1A_2 N -0.7381(6) 1.2605(5) 0.4795(4)
O6 O 0.6620(6) 0.3727(5) 0.3539(5)
H17 H 0.591(7) 0.411(8) 0.314(7)
H18 H 0.647(10) 0.317(7) 0.412(6)
O7 O 0.7951(8) 0.3969(6) 0.6824(6)
H19 H 0.760(3) 0.3406(12) 0.6889(13)
H20 H 0.877(8) 0.372(4) 0.710(10)
O8 O 0.5422(8) 0.1684(8) -0.0806(5)
H21 H 0.460(7) 0.220(6) -0.102(8)
H22 H 0.607(8) 0.143(11) -0.133(6)
O9 O 0.4609(10) 0.4690(9) 0.1838(8)
H23 H 0.389(2) 0.518(2) 0.2152(12)
H24 H 0.436(5) 0.435(2) 0.1466(18)
O10 O 0.5839(12) 0.3172(11) 0.0300(10)
H25 H 0.5657 0.3759 -0.0292
H26 H 0.5637 0.2597 0.0208
loop_
_geom_bond_atom_site_label_1
_geom_bond_atom_site_label_2
_geom_bond_site_symmetry_1
_geom_bond_site_symmetry_2
Cd1 Br1 1_555 1_555
O1 C1 1_555 1_555
O2 Cd1 1_555 1_555
O3 Cd1 1_555 1_555
O4 Cd1 1_555 1_555
N1 Cd1 1_555 1_555
N2 C17 1_555 1_555
C1 O2 1_555 1_555
C2 C1 1_555 1_555
C3 C2 1_555 1_555
H1 C3 1_555 1_555
C4 C2 1_555 1_555
H2 C4 1_555 1_555
C5 O3 1_555 1_555
C6 C5 1_555 1_555
C7 C6 1_555 1_555
H3 C7 1_555 1_555
C8 C6 1_555 1_555
H4 C8 1_555 1_555
C9 N1 1_555 1_555
H5 C9 1_555 1_555
C10 N1 1_555 1_555
H6 C10 1_555 1_555
C11 C9 1_555 1_555
H7 C11 1_555 1_555
C12 C10 1_555 1_555
H8 C12 1_555 1_555
C13 C11 1_555 1_555
C14 C13 1_555 1_555
C15 C14 1_555 1_555
H9 C15 1_555 1_555
C16 C14 1_555 1_555
H10 C16 1_555 1_555
C17 C15 1_555 1_555
H11 C17 1_555 1_555
C18 N2 1_555 1_555
H12 C18 1_555 1_555
C19 N2 1_555 1_555
H13 C19 1_555 1_555
H14 C19 1_555 1_555
O5 Cd1 1_555 1_555
H15 O5 1_555 1_555
H16 O5 1_555 1_555
O6 H17 1_555 1_555
H18 O6 1_555 1_555
O7 H19 1_555 1_555
H20 O7 1_555 1_555
O8 H21 1_555 1_555
H22 O8 1_555 1_555
O9 H23 1_555 1_555
H24 O9 1_555 1_555
O10 H25 1_555 1_555
H26 O10 1_555 1_555
O1A C1A 1_555 1_555
O2A C1A 1_555 1_555
C1A C2A 1_555 1_555
C2A C3A 1_555 1_555
C3A C4 1_555 1_555
H1A C3A 1_555 1_555
C4A C3 1_555 1_555
H2A C4A 1_555 1_555
O3A C5A 1_555 1_555
O4A C5A 1_555 1_555
C5A C6A 1_555 1_555
C6A C7A 1_555 1_555
C7A C8 1_555 1_555
H3A C7A 1_555 1_555
C8A C7 1_555 1_555
H4A C8A 1_555 1_555
N1A C9A 1_555 1_555
N2A C17A 1_555 1_555
C9A H5A 1_555 1_555
C10A N1A 1_555 1_555
H6A C10A 1_555 1_555
C11A C9A 1_555 1_555
H7A C11A 1_555 1_555
C12A C10A 1_555 1_555
H8A C12A 1_555 1_555
C13A C11A 1_555 1_555
C14A C13A 1_555 1_555
C15A C14A 1_555 1_555
H9A C15A 1_555 1_555
C16A C14A 1_555 1_555
H10A C16A 1_555 1_555
C17A C15A 1_555 1_555
H11A C17A 1_555 1_555
C18A N2A 1_555 1_555
H12A C18A 1_555 1_555
C19A C19 1_555 1_555
H13A C19A 1_555 1_555
H14A C19A 1_555 1_555
Cd1A O2A 1_555 1_555
Br1A Cd1A 1_555 1_555
O5A Cd1A 1_555 1_555
H15A O5A 1_555 1_555
H16A O5A 1_555 1_555
Cd1A_2 O3A 1_555 1_555
Cd1A_3 N1A 1_555 1_555
O3A_2 Cd1A 1_555 1_555
O4A_2 Cd1A 1_555 1_555
N1A_2 Cd1A 1_555 1_555
O4 C5 1_555 1_555
C12 C13 1_555 1_555
C16 C18 1_555 1_555
C2A C4A 1_555 1_555
O4A Cd1A_2 1_555 1_555
C6A C8A 1_555 1_555
N2A C19A 1_555 1_555
C12A C13A 1_555 1_555
C16A C18A 1_555 1_555

#END
