
#######################################################################
#
#                 Cambridge Crystallographic Data Centre
#                                CCDC 
#
#######################################################################
#
# If this CIF has been generated from an entry in the Cambridge 
# Structural Database, then it will include bibliographic, chemical, 
# crystal, experimental, refinement or atomic coordinate data resulting 
# from the CCDC's data processing and validation procedures.
#
#######################################################################

data_DOHJUG
_symmetry_cell_setting           triclinic
_symmetry_space_group_name_H-M   'P -1'
_symmetry_Int_Tables_number      2
_space_group_name_Hall           '-P 1'
loop_
_symmetry_equiv_pos_site_id
_symmetry_equiv_pos_as_xyz
1 x,y,z
2 -x,-y,-z
_cell_length_a                   9.953(3)
_cell_length_b                   13.276(4)
_cell_length_c                   16.945(5)
_cell_angle_alpha                70.462(5)
_cell_angle_beta                 76.527(5)
_cell_angle_gamma                69.053(5)
_cell_volume                     1954.23
loop_
_atom_site_label
_atom_site_type_symbol
_atom_site_fract_x
_atom_site_fract_y
_atom_site_fract_z
C1 C 0.4570(3) 0.0486(2) 0.77337(14)
C2 C 0.3439(3) 0.1435(2) 0.78359(16)
H1 H 0.3197 0.1601 0.8352
O1 O 0.12143(17) 0.35421(12) 0.57745(9)
Zn1 Zn 0.0000 0.5000 0.5000
Zn2 Zn 0.07729(2) 0.291650(19) 0.431279(15)
Zn3 Zn 0.69280(3) 0.81983(2) -0.044956(16)
O2 O -0.10154(14) 0.40722(12) 0.45856(9)
O3 O 0.16516(17) 0.37932(13) 0.32559(10)
O4 O 0.22378(16) 0.22073(13) 0.50867(10)
O5 O 0.15855(17) 0.49687(14) 0.39660(9)
O6 O -0.16661(17) 0.26932(13) 0.56203(11)
C3 C -0.1995(2) 0.36328(17) 0.51257(14)
O7 O 0.5993(2) 0.74334(16) 0.06217(11)
N1 N 0.05528(18) 0.16309(14) 0.40526(11)
N2 N 0.1003(2) 0.28775(17) 0.07226(12)
C4 C 0.2083(2) 0.26138(18) 0.56992(13)
C5 C -0.3548(2) 0.43552(17) 0.50633(13)
O8 O 0.4773(2) -0.03485(16) 0.92114(11)
O9 O 0.7599(2) 0.91502(18) 0.00006(13)
C6 C 0.3011(2) 0.18947(18) 0.63938(14)
C7 C 0.1920(2) 0.46366(18) 0.33144(13)
C8 C -0.0842(2) 0.37431(19) 0.17051(15)
N3 N -0.0067(2) 0.03813(15) 0.37443(12)
C9 C 0.4428(2) 0.6294(2) 0.11783(14)
N4 N -0.2292(2) 0.33057(17) 0.31326(12)
C10 C -0.1960(2) 0.2229(2) 0.36548(14)
C11 C 0.2740(2) 0.52448(18) 0.25512(13)
C12 C 0.4133(3) 0.5352(2) 0.11680(14)
H2 H 0.4492 0.5074 0.0699
O10 O 0.6586(2) -0.10151(16) 0.83185(11)
C13 C 0.3308(3) 0.4819(2) 0.18500(14)
H3 H 0.3134 0.4181 0.1840
C14 C 0.5390(3) 0.6837(2) 0.04525(15)
O11 O 0.5587(2) 0.66779(18) -0.02493(11)
C15 C 0.4172(3) 0.0962(2) 0.62875(15)
H4 H 0.4428 0.0802 0.5769
C16 C -0.0496(2) 0.14587(18) 0.37913(13)
C17 C 0.2998(3) 0.6209(2) 0.25538(15)
H5 H 0.2597 0.6511 0.3009
C18 C -0.3894(2) 0.53983(18) 0.44661(14)
H6 H -0.3156 0.5663 0.4108
C19 C 0.0523(3) 0.3051(2) 0.14902(15)
H7 H 0.1144 0.2685 0.1902
C20 C 0.5354(3) -0.0332(2) 0.84677(16)
C21 C -0.4665(2) 0.39533(18) 0.55978(14)
H8 H -0.4442 0.3255 0.5994
C22 C -0.1292(3) 0.3928(2) 0.25762(15)
H9 H -0.1758 0.4724 0.2517
H10 H -0.0429 0.3702 0.2844
C23 C -0.0890(3) -0.0153(2) 0.34713(16)
H11 H -0.1854 -0.0033 0.3788
H12 H -0.0408 -0.0955 0.3601
N5 N -0.3152(2) 0.19342(19) 0.40330(14)
C24 C 0.4950(3) 0.0269(2) 0.69536(15)
H13 H 0.5735 -0.0348 0.6876
C25 C 0.1286(3) -0.01465(19) 0.40009(16)
H14 H 0.1837 -0.0889 0.4037
C26 C -0.1022(3) 0.0309(2) 0.25323(17)
C27 C 0.1663(2) 0.06193(18) 0.41898(14)
H15 H 0.2529 0.0490 0.4381
C28 C -0.3778(3) 0.3704(2) 0.31864(18)
H16 H -0.4333 0.4409 0.2903
C29 C 0.3853(3) 0.6723(2) 0.18764(15)
H17 H 0.4042 0.7354 0.1889
C30 C -0.1278(3) 0.4113(3) 0.02834(18)
H18 H -0.1878 0.4469 -0.0140
C31 C 0.2665(3) 0.2138(2) 0.71659(16)
H19 H 0.1911 0.2775 0.7236
C32 C 0.0092(3) 0.3411(2) 0.01282(17)
H20 H 0.0405 0.3298 -0.0406
C33 C -0.4278(3) 0.2859(3) 0.37381(19)
H21 H -0.5254 0.2904 0.3894
C34 C -0.2295(3) 0.1054(3) 0.22308(19)
H22 H -0.3098 0.1310 0.2603
C35 C -0.1755(3) 0.4285(2) 0.10728(18)
H23 H -0.2681 0.4758 0.1186
C36 C -0.2365(4) 0.1419(3) 0.1363(2)
H24 H -0.3212 0.1917 0.1147
N6 N 0.0099(3) 0.0319(3) 0.11058(17)
C37 C 0.0135(4) -0.0022(3) 0.1941(2)
H25 H 0.0998 -0.0517 0.2138
C38 C -0.1161(5) 0.1030(4) 0.0837(2)
H26 H -0.1216 0.1270 0.0260
H27 H 0.829(4) 0.942(3) -0.034(2)
H28 H 0.685(4) 0.963(3) 0.019(2)
C1A C -0.4570(3) 0.9514(2) 0.22663(14)
C2A C -0.3439(3) 0.8565(2) 0.21641(16)
H1A H -0.3197 0.8399 0.1648
O1A O -0.12143(17) 0.64579(12) 0.42255(9)
Zn1_2 Zn -1.0000 0.5000 0.5000
Zn2A Zn -1.07729(2) 0.708350(19) 0.568721(15)
Zn2A_2 Zn -0.07729(2) 0.708350(19) 0.568721(15)
Zn2A_3 Zn 0.92271(2) 0.708350(19) -0.431279(15)
Zn3A Zn -0.69280(3) 0.18017(2) 1.044956(16)
Zn3A_2 Zn 0.30720(3) 0.18017(2) 0.044956(16)
Zn3_2 Zn 0.69280(3) -0.18017(2) 0.955044(16)
Zn3A_3 Zn -0.69280(3) 1.18017(2) 0.044956(16)
O2A O -0.89846(14) 0.59278(12) 0.54144(9)
O2A_2 O 0.10154(14) 0.59278(12) 0.54144(9)
O3A O -0.16516(17) 0.62068(13) 0.67441(10)
O3A_2 O -1.16516(17) 0.62068(13) 0.67441(10)
O4A O -0.22378(16) 0.77927(13) 0.49133(10)
O4A_2 O -1.22378(16) 0.77927(13) 0.49133(10)
O5A O -0.15855(17) 0.50313(14) 0.60340(9)
O6A O -0.83339(17) 0.73068(13) 0.43797(11)
C3A C -0.8005(2) 0.63672(17) 0.48743(14)
O7A O -0.5993(2) 0.25666(16) 0.93783(11)
N1A N 0.94472(18) 0.83691(14) -0.40526(11)
N1A_2 N -1.05528(18) 0.83691(14) 0.59474(11)
N2A N 0.8997(2) 0.71225(17) -0.07226(12)
N2_2 N -0.8997(2) 0.28775(17) 1.07226(12)
C4A C -0.2083(2) 0.73862(18) 0.43008(13)
C5A C -0.6452(2) 0.56448(17) 0.49367(13)
O8A O -0.4773(2) 1.03485(16) 0.07886(11)
O8_2 O 0.4773(2) 0.96515(16) -0.07886(11)
O8A_2 O -0.4773(2) 0.03485(16) 1.07886(11)
O9A O -0.7599(2) 0.08498(18) 0.99994(13)
C6A C -0.3011(2) 0.81053(18) 0.36062(14)
C7A C -0.1920(2) 0.53634(18) 0.66856(13)
C8A C 1.0842(2) 0.62569(19) -0.17051(15)
N3A N 1.0067(2) 0.96187(15) -0.37443(12)
C9A C -0.4428(2) 0.3706(2) 0.88217(14)
N4A N 1.2292(2) 0.66943(17) -0.31326(12)
C10A C 1.1960(2) 0.7771(2) -0.36548(14)
C11A C -0.2740(2) 0.47552(18) 0.74488(13)
C12A C -0.4133(3) 0.4648(2) 0.88320(14)
H2A H -0.4492 0.4926 0.9301
O10A O -0.6586(2) 1.10151(16) 0.16815(11)
O10_2 O 0.6586(2) 0.89849(16) -0.16815(11)
O10A_2 O -0.6586(2) 0.10151(16) 1.16815(11)
C13A C -0.3308(3) 0.5181(2) 0.81500(14)
H3A H -0.3134 0.5819 0.8160
C14A C -0.5390(3) 0.3163(2) 0.95475(15)
O11A O -0.5587(2) 0.33221(18) 1.02493(11)
C15A C -0.4172(3) 0.9038(2) 0.37125(15)
H4A H -0.4428 0.9198 0.4231
C16A C 1.0496(2) 0.85413(18) -0.37913(13)
C17A C -0.2998(3) 0.3791(2) 0.74462(15)
H5A H -0.2597 0.3489 0.6991
C18A C -0.6106(2) 0.46017(18) 0.55339(14)
H6A H -0.6844 0.4337 0.5892
C19A C 0.9477(3) 0.6949(2) -0.14902(15)
H7A H 0.8856 0.7315 -0.1902
C20A C -0.5354(3) 1.0332(2) 0.15323(16)
C21A C -0.5335(2) 0.60467(18) 0.44022(14)
H8A H -0.5558 0.6745 0.4006
C22A C 1.1292(3) 0.6072(2) -0.25762(15)
H9A H 1.1758 0.5276 -0.2517
H10A H 1.0429 0.6298 -0.2844
C23A C 1.0890(3) 1.0153(2) -0.34713(16)
H11A H 1.1854 1.0033 -0.3788
H12A H 1.0408 1.0955 -0.3601
N5A N 1.3152(2) 0.80658(19) -0.40330(14)
C24A C -0.4950(3) 0.9731(2) 0.30464(15)
H13A H -0.5735 1.0348 0.3124
C25A C 0.8714(3) 1.01465(19) -0.40009(16)
H14A H 0.8163 1.0889 -0.4037
C26A C 1.1022(3) 0.9691(2) -0.25323(17)
C27A C 0.8337(2) 0.93807(18) -0.41898(14)
H15A H 0.7471 0.9510 -0.4381
C28A C 1.3778(3) 0.6296(2) -0.31864(18)
H16A H 1.4333 0.5591 -0.2903
C29A C -0.3853(3) 0.3277(2) 0.81236(15)
H17A H -0.4042 0.2646 0.8111
C30A C 1.1278(3) 0.5887(3) -0.02834(18)
H18A H 1.1878 0.5531 0.0140
C31A C -0.2665(3) 0.7862(2) 0.28341(16)
H19A H -0.1911 0.7225 0.2764
C32A C 0.9908(3) 0.6589(2) -0.01282(17)
H20A H 0.9595 0.6702 0.0406
C33A C 1.4278(3) 0.7141(3) -0.37381(19)
H21A H 1.5254 0.7096 -0.3894
C34A C 1.2295(3) 0.8946(3) -0.22308(19)
H22A H 1.3098 0.8690 -0.2603
C35A C 1.1755(3) 0.5715(2) -0.10728(18)
H23A H 1.2681 0.5242 -0.1186
C36A C 1.2365(4) 0.8581(3) -0.1363(2)
H24A H 1.3212 0.8083 -0.1147
N6A N 0.9901(3) 0.9681(3) -0.11058(17)
C37A C 0.9865(4) 1.0022(3) -0.1941(2)
H25A H 0.9002 1.0517 -0.2138
C38A C 1.1161(5) 0.8970(4) -0.0837(2)
H26A H 1.1216 0.8730 -0.0260
H27A H -0.829(4) 0.058(3) 1.034(2)
H28A H -0.685(4) 0.037(3) 0.981(2)
loop_
_geom_bond_atom_site_label_1
_geom_bond_atom_site_label_2
_geom_bond_site_symmetry_1
_geom_bond_site_symmetry_2
C1 C2 1_555 1_555
C2 H1 1_555 1_555
O1 Zn1 1_555 1_555
Zn1 O2 1_555 1_555
Zn2 O2 1_555 1_555
Zn3 O7 1_555 1_555
O2 C3 1_555 1_555
O3 Zn2 1_555 1_555
O4 Zn2 1_555 1_555
O5 Zn1 1_555 1_555
O6 C3 1_555 1_555
C3 C5 1_555 1_555
O7 C14 1_555 1_555
N1 Zn2 1_555 1_555
N2 C19 1_555 1_555
C4 O1 1_555 1_555
C5 C18 1_555 1_555
O8 C20 1_555 1_555
O9 Zn3 1_555 1_555
C6 C4 1_555 1_555
C7 O3 1_555 1_555
C8 C19 1_555 1_555
N3 C16 1_555 1_555
C9 C12 1_555 1_555
N4 C10 1_555 1_555
C10 C16 1_555 1_555
C11 C7 1_555 1_555
C12 H2 1_555 1_555
O10 C20 1_555 1_555
C13 C11 1_555 1_555
H3 C13 1_555 1_555
C14 C9 1_555 1_555
O11 C14 1_555 1_555
C15 C6 1_555 1_555
H4 C15 1_555 1_555
C16 N1 1_555 1_555
C17 C11 1_555 1_555
H5 C17 1_555 1_555
C18 H6 1_555 1_555
C19 H7 1_555 1_555
C20 C1 1_555 1_555
C21 C5 1_555 1_555
H8 C21 1_555 1_555
C22 C8 1_555 1_555
H9 C22 1_555 1_555
H10 C22 1_555 1_555
C23 N3 1_555 1_555
H11 C23 1_555 1_555
H12 C23 1_555 1_555
N5 C10 1_555 1_555
C24 C1 1_555 1_555
H13 C24 1_555 1_555
C25 N3 1_555 1_555
H14 C25 1_555 1_555
C26 C23 1_555 1_555
C27 N1 1_555 1_555
H15 C27 1_555 1_555
C28 N4 1_555 1_555
H16 C28 1_555 1_555
C29 C9 1_555 1_555
H17 C29 1_555 1_555
C30 H18 1_555 1_555
C31 C2 1_555 1_555
H19 C31 1_555 1_555
C32 N2 1_555 1_555
H20 C32 1_555 1_555
C33 N5 1_555 1_555
H21 C33 1_555 1_555
C34 C26 1_555 1_555
H22 C34 1_555 1_555
C35 C8 1_555 1_555
H23 C35 1_555 1_555
C36 C34 1_555 1_555
H24 C36 1_555 1_555
N6 C37 1_555 1_555
C37 C26 1_555 1_555
H25 C37 1_555 1_555
C38 C36 1_555 1_555
H26 C38 1_555 1_555
H27 O9 1_555 1_555
H28 O9 1_555 1_555
C1A C2A 1_555 1_555
C2A H1A 1_555 1_555
O1A Zn1 1_555 1_555
Zn1_2 O2A 1_555 1_555
Zn2A O2A 1_555 1_555
Zn2A_2 O2A_2 1_555 1_555
Zn2A_3 N1A 1_555 1_555
Zn3A O7A 1_555 1_555
Zn3A_2 N2 1_555 1_555
Zn3_2 O8 1_555 1_555
Zn3A_3 O8A 1_555 1_555
O2A C3A 1_555 1_555
O2A_2 Zn1 1_555 1_555
O3A Zn2A_2 1_555 1_555
O3A_2 Zn2A 1_555 1_555
O4A Zn2A_2 1_555 1_555
O4A_2 Zn2A 1_555 1_555
O5A Zn1 1_555 1_555
O6A C3A 1_555 1_555
C3A C5A 1_555 1_555
O7A C14A 1_555 1_555
N1A C16A 1_555 1_555
N1A_2 Zn2A 1_555 1_555
N2A Zn3 1_555 1_555
N2_2 Zn3A 1_555 1_555
C4A O1A 1_555 1_555
C5A C18A 1_555 1_555
O8A C20A 1_555 1_555
O8_2 Zn3 1_555 1_555
O8A_2 Zn3A 1_555 1_555
O9A Zn3A 1_555 1_555
C6A C4A 1_555 1_555
C7A O3A 1_555 1_555
C8A C19A 1_555 1_555
N3A C16A 1_555 1_555
C9A C12A 1_555 1_555
N4A C10A 1_555 1_555
C10A C16A 1_555 1_555
C11A C7A 1_555 1_555
C12A H2A 1_555 1_555
O10A Zn3A_3 1_555 1_555
O10_2 Zn3 1_555 1_555
O10A_2 Zn3A 1_555 1_555
C13A C11A 1_555 1_555
H3A C13A 1_555 1_555
C14A C9A 1_555 1_555
O11A C14A 1_555 1_555
C15A C6A 1_555 1_555
H4A C15A 1_555 1_555
C17A C11A 1_555 1_555
H5A C17A 1_555 1_555
C18A C21 1_555 1_555
H6A C18A 1_555 1_555
C19A N2A 1_555 1_555
H7A C19A 1_555 1_555
C20A C1A 1_555 1_555
C21A C18 1_555 1_555
H8A C21A 1_555 1_555
C22A C8A 1_555 1_555
H9A C22A 1_555 1_555
H10A C22A 1_555 1_555
C23A N3A 1_555 1_555
H11A C23A 1_555 1_555
H12A C23A 1_555 1_555
N5A C10A 1_555 1_555
C24A C1A 1_555 1_555
H13A C24A 1_555 1_555
C25A N3A 1_555 1_555
H14A C25A 1_555 1_555
C26A C23A 1_555 1_555
C27A N1A 1_555 1_555
H15A C27A 1_555 1_555
C28A N4A 1_555 1_555
H16A C28A 1_555 1_555
C29A C9A 1_555 1_555
H17A C29A 1_555 1_555
C30A H18A 1_555 1_555
C31A C2A 1_555 1_555
H19A C31A 1_555 1_555
C32A N2A 1_555 1_555
H20A C32A 1_555 1_555
C33A N5A 1_555 1_555
H21A C33A 1_555 1_555
C34A C26A 1_555 1_555
H22A C34A 1_555 1_555
C35A C8A 1_555 1_555
H23A C35A 1_555 1_555
C36A C34A 1_555 1_555
H24A C36A 1_555 1_555
N6A C37A 1_555 1_555
C37A C26A 1_555 1_555
H25A C37A 1_555 1_555
C38A C36A 1_555 1_555
H26A C38A 1_555 1_555
H27A O9A 1_555 1_555
H28A O9A 1_555 1_555
O4 C4 1_555 1_555
O5 C7 1_555 1_555
C6 C31 1_555 1_555
N4 C22 1_555 1_555
C12 C13 1_555 1_555
O10 Zn3_2 1_555 1_555
C15 C24 1_555 1_555
C17 C29 1_555 1_555
C25 C27 1_555 1_555
C28 C33 1_555 1_555
C30 C32 1_555 1_555
C30 C35 1_555 1_555
N6 C38 1_555 1_555
O4A C4A 1_555 1_555
O5A C7A 1_555 1_555
C5A C21A 1_555 1_555
C6A C31A 1_555 1_555
N4A C22A 1_555 1_555
C12A C13A 1_555 1_555
O10A C20A 1_555 1_555
C15A C24A 1_555 1_555
C17A C29A 1_555 1_555
C25A C27A 1_555 1_555
C28A C33A 1_555 1_555
C30A C32A 1_555 1_555
C30A C35A 1_555 1_555
N6A C38A 1_555 1_555

#END
