
#######################################################################
#
#                 Cambridge Crystallographic Data Centre
#                                CCDC 
#
#######################################################################
#
# If this CIF has been generated from an entry in the Cambridge 
# Structural Database, then it will include bibliographic, chemical, 
# crystal, experimental, refinement or atomic coordinate data resulting 
# from the CCDC's data processing and validation procedures.
#
#######################################################################

data_DOHJOZ01
_symmetry_cell_setting           rhombohedral
_symmetry_space_group_name_H-M   'R 3 c'
_symmetry_Int_Tables_number      161
_space_group_name_Hall           'R 3 -2"c'
loop_
_symmetry_equiv_pos_site_id
_symmetry_equiv_pos_as_xyz
1 x,y,z
2 -y,x-y,z
3 -x+y,-x,z
4 -y,-x,1/2+z
5 -x+y,y,1/2+z
6 x,x-y,1/2+z
7 2/3+x,1/3+y,1/3+z
8 2/3-y,1/3+x-y,1/3+z
9 2/3-x+y,1/3-x,1/3+z
10 2/3-y,1/3-x,5/6+z
11 2/3-x+y,1/3+y,5/6+z
12 2/3+x,1/3+x-y,5/6+z
13 1/3+x,2/3+y,2/3+z
14 1/3-y,2/3+x-y,2/3+z
15 1/3-x+y,2/3-x,2/3+z
16 1/3-y,2/3-x,1/6+z
17 1/3-x+y,2/3+y,1/6+z
18 1/3+x,2/3+x-y,1/6+z
_cell_length_a                   23.263(3)
_cell_length_b                   23.263(3)
_cell_length_c                   9.5560(19)
_cell_angle_alpha                90
_cell_angle_beta                 90
_cell_angle_gamma                120.00
_cell_volume                     4478.56
loop_
_atom_site_label
_atom_site_type_symbol
_atom_site_fract_x
_atom_site_fract_y
_atom_site_fract_z
Cd1 Cd 0.368047(10) 0.387669(10) 0.981450(14)
Cl1 Cl 0.28806(4) 0.40353(4) 1.14590(9)
Cl2 Cl 0.32863(4) 0.27644(3) 1.11545(7)
O1 O 0.41701(10) 0.50114(9) 0.9232(2)
N1 N 0.45539(11) 0.45514(11) 1.1393(3)
H1 H 0.4447 0.4387 1.2266
H2 H 0.4930 0.4559 1.1140
N2 N 0.46462(12) 0.51927(12) 1.1351(3)
H3 H 0.4825 0.5458 1.2047
S1 S 0.43459(6) 0.63444(5) 0.88358(13)
C1 C 0.4664(2) 0.71114(18) 0.9555(6)
H4 H 0.4640 0.7461 0.9144
C2 C 0.4955(2) 0.7150(2) 1.0789(5)
H5 H 0.5155 0.7535 1.1326
C3 C 0.49341(14) 0.66004(15) 1.1173(4)
H6 H 0.5123 0.6561 1.1999
C4 C 0.45988(14) 0.60730(14) 1.0216(4)
C5 C 0.44544(13) 0.53881(14) 1.0225(3)
Cd1G Cd 0.278998(10) 0.313711(14) 1.314783(14)
Cl1N Cl 0.44880(6) 0.37861(4) 0.81257(9)
Cl2N Cl 0.28114(5) 0.33804(4) 0.78212(7)
loop_
_geom_bond_atom_site_label_1
_geom_bond_atom_site_label_2
_geom_bond_site_symmetry_1
_geom_bond_site_symmetry_2
Cd1 Cl1 1_555 1_555
Cl1 Cd1G 1_555 1_555
Cl2 Cd1 1_555 1_555
O1 Cd1 1_555 1_555
N1 Cd1 1_555 1_555
H1 N1 1_555 1_555
H2 N1 1_555 1_555
N2 N1 1_555 1_555
H3 N2 1_555 1_555
S1 C1 1_555 1_555
C1 H4 1_555 1_555
C2 C1 1_555 1_555
H5 C2 1_555 1_555
C3 C2 1_555 1_555
H6 C3 1_555 1_555
C4 S1 1_555 1_555
C5 O1 1_555 1_555
Cd1G Cl2 1_555 1_555
Cl1N Cd1 1_555 1_555
Cl2N Cd1 1_555 1_555
N2 C5 1_555 1_555
C3 C4 1_555 1_555
C4 C5 1_555 1_555

#END
