
#######################################################################
#
#                 Cambridge Crystallographic Data Centre
#                                CCDC 
#
#######################################################################
#
# If this CIF has been generated from an entry in the Cambridge 
# Structural Database, then it will include bibliographic, chemical, 
# crystal, experimental, refinement or atomic coordinate data resulting 
# from the CCDC's data processing and validation procedures.
#
#######################################################################

data_DOHKAN
_symmetry_cell_setting           monoclinic
_symmetry_space_group_name_H-M   'P 21/c'
_symmetry_Int_Tables_number      14
_space_group_name_Hall           '-P 2ybc'
loop_
_symmetry_equiv_pos_site_id
_symmetry_equiv_pos_as_xyz
1 x,y,z
2 -x,1/2+y,1/2-z
3 -x,-y,-z
4 x,1/2-y,1/2+z
_cell_length_a                   14.0452(10)
_cell_length_b                   8.9061(7)
_cell_length_c                   20.0847(15)
_cell_angle_alpha                90
_cell_angle_beta                 97.3740(10)
_cell_angle_gamma                90
_cell_volume                     2491.58
loop_
_atom_site_label
_atom_site_type_symbol
_atom_site_fract_x
_atom_site_fract_y
_atom_site_fract_z
O1 O 0.35178(18) 1.1671(3) 0.34559(11)
O2 O 0.2158(2) 1.2105(3) 0.28017(15)
C1 C 0.3028(3) 1.1729(4) 0.28810(17)
N1 N 0.2778(2) 1.5055(3) 0.38234(16)
C2 C 0.3262(2) 1.6030(4) 0.42433(19)
H1 H 0.3482 1.5700 0.4675
C3 C 0.2479(3) 1.5546(5) 0.3201(2)
H2 H 0.2141 1.4889 0.2897
C4 C 0.2652(4) 1.6983(6) 0.2991(3)
C5 C 0.3128(4) 1.7971(5) 0.3441(3)
H3 H 0.3227 1.8957 0.3313
C6 C 0.3459(3) 1.7497(4) 0.4081(2)
C7 C 0.4019(3) 1.8561(5) 0.4565(3)
N2 N -0.0716(2) 1.6814(4) 0.61090(15)
C8 C -0.0283(3) 1.6276(6) 0.6697(2)
C9 C 0.0649(3) 1.5781(7) 0.6779(2)
H4 H 0.0920 1.5369 0.7185
C10 C 0.1178(3) 1.5902(6) 0.6250(3)
C11 C 0.0760(2) 1.6475(4) 0.56411(19)
C12 C 0.1313(3) 1.6523(4) 0.5056(2)
H5 H 0.1980 1.6301 0.5214
H6 H 0.1076 1.5731 0.4746
H7 H 0.4680 1.8231 0.4642
H8 H 0.4008 1.9551 0.4362
C13 C 0.3511(2) 1.1326(4) 0.22824(16)
C14 C 0.3117(2) 1.1752(4) 0.16441(16)
H9 H 0.2537 1.2268 0.1583
Cd1 Cd 0.238509(17) 1.24936(3) 0.410210(12)
C15 C 0.3143(3) 1.1896(4) 0.04007(17)
N3 N 0.1746(2) 2.0108(3) 0.43065(14)
N4 N 0.3649(2) 1.8678(3) 0.52121(17)
N5 N 0.1275(2) 1.7945(3) 0.46842(17)
O3 O 0.22577(19) 1.1834(4) 0.02513(13)
C16 C 0.3584(2) 1.1411(4) 0.10916(16)
C17 C -0.0186(2) 1.6908(4) 0.56006(18)
H10 H -0.0477 1.7291 0.5194
C18 C 0.1927(2) 1.9072(4) 0.47768(17)
C19 C 0.4427(2) 1.0597(4) 0.11816(18)
H11 H 0.4739 1.0365 0.0813
C20 C 0.4366(3) 1.0512(5) 0.23644(17)
H12 H 0.4639 1.0227 0.2792
O4 O 0.3699(2) 1.2285(3) -0.00199(14)
C21 C 0.4808(3) 1.0126(5) 0.18118(18)
H13 H 0.5364 0.9548 0.1867
C22 C 0.2731(2) 1.9007(4) 0.5323(2)
C23 C 0.0643(3) 1.8302(5) 0.4129(2)
H14 H 0.0117 1.7740 0.3944
C24 C 0.0935(3) 1.9622(5) 0.39056(19)
H15 H 0.0633 2.0136 0.3534
H16 H -0.0629 1.6238 0.7064
C25 C 0.4165(3) 1.8582(5) 0.5843(3)
H17 H 0.4818 1.8384 0.5942
H18 H 0.1817 1.5599 0.6299
N6 N 0.2644(2) 1.9096(5) 0.59628(17)
C26 C 0.3543(4) 1.8829(7) 0.6291(3)
H19 H 0.3703 1.8818 0.6755
H20 H 0.2446 1.7270 0.2550
N2B N 0.0716(2) 1.3186(4) 0.38910(15)
Cd1B Cd -0.238509(17) 1.75064(3) 0.589790(12)
Cd1_2 Cd 0.238509(17) 2.24936(3) 0.410210(12)
Cd1C Cd 0.238509(17) 1.25064(3) -0.089790(12)
N3_2 N 0.1746(2) 1.0108(3) 0.43065(14)
O3C O 0.22577(19) 1.3166(4) 0.52513(13)
O4C O 0.3699(2) 1.2715(3) 0.49801(14)
O5 O 0.1237(3) 0.4540(7) 0.1756(2)
loop_
_geom_bond_atom_site_label_1
_geom_bond_atom_site_label_2
_geom_bond_site_symmetry_1
_geom_bond_site_symmetry_2
O1 C1 1_555 1_555
O2 C1 1_555 1_555
C1 C13 1_555 1_555
N1 C2 1_555 1_555
C2 H1 1_555 1_555
C3 N1 1_555 1_555
H2 C3 1_555 1_555
C4 C3 1_555 1_555
C5 C4 1_555 1_555
H3 C5 1_555 1_555
C6 C2 1_555 1_555
C7 C6 1_555 1_555
N2 C8 1_555 1_555
C8 C9 1_555 1_555
C9 H4 1_555 1_555
C10 C9 1_555 1_555
C11 C10 1_555 1_555
C12 C11 1_555 1_555
H5 C12 1_555 1_555
H6 C12 1_555 1_555
H7 C7 1_555 1_555
H8 C7 1_555 1_555
C13 C14 1_555 1_555
C14 H9 1_555 1_555
Cd1 O1 1_555 1_555
C15 O3 1_555 1_555
N3 C18 1_555 1_555
N4 C7 1_555 1_555
N5 C12 1_555 1_555
O3 Cd1C 1_555 1_555
C16 C14 1_555 1_555
C17 N2 1_555 1_555
H10 C17 1_555 1_555
C18 N5 1_555 1_555
C19 C16 1_555 1_555
H11 C19 1_555 1_555
C20 C13 1_555 1_555
H12 C20 1_555 1_555
O4 C15 1_555 1_555
C21 C19 1_555 1_555
H13 C21 1_555 1_555
C22 N4 1_555 1_555
C23 N5 1_555 1_555
H14 C23 1_555 1_555
C24 N3 1_555 1_555
H15 C24 1_555 1_555
H16 C8 1_555 1_555
C25 N4 1_555 1_555
H17 C25 1_555 1_555
H18 C10 1_555 1_555
N6 C22 1_555 1_555
C26 C25 1_555 1_555
H19 C26 1_555 1_555
H20 C4 1_555 1_555
N2B Cd1 1_555 1_555
Cd1B N2 1_555 1_555
Cd1_2 N3 1_555 1_555
Cd1C O4 1_555 1_555
N3_2 Cd1 1_555 1_555
O3C Cd1 1_555 1_555
O4C Cd1 1_555 1_555
O2 Cd1 1_555 1_555
N1 Cd1 1_555 1_555
C5 C6 1_555 1_555
C11 C17 1_555 1_555
C15 C16 1_555 1_555
C18 C22 1_555 1_555
C20 C21 1_555 1_555
C23 C24 1_555 1_555
N6 C26 1_555 1_555

#END
