
#######################################################################
#
#                 Cambridge Crystallographic Data Centre
#                                CCDC 
#
#######################################################################
#
# If this CIF has been generated from an entry in the Cambridge 
# Structural Database, then it will include bibliographic, chemical, 
# crystal, experimental, refinement or atomic coordinate data resulting 
# from the CCDC's data processing and validation procedures.
#
#######################################################################

data_DOHPEW
_symmetry_cell_setting           triclinic
_symmetry_space_group_name_H-M   'P -1'
_symmetry_Int_Tables_number      2
_space_group_name_Hall           '-P 1'
loop_
_symmetry_equiv_pos_site_id
_symmetry_equiv_pos_as_xyz
1 x,y,z
2 -x,-y,-z
_cell_length_a                   9.541(6)
_cell_length_b                   13.119(8)
_cell_length_c                   13.292(8)
_cell_angle_alpha                96.377(7)
_cell_angle_beta                 96.457(6)
_cell_angle_gamma                99.000(7)
_cell_volume                     1618.74
loop_
_atom_site_label
_atom_site_type_symbol
_atom_site_fract_x
_atom_site_fract_y
_atom_site_fract_z
Sn1 Sn 0.16087(9) 0.41999(6) 0.19934(6)
Sn2 Sn -0.05611(10) 0.59013(7) 0.07315(6)
Sn3 Sn 0.31811(8) 0.85011(6) 0.63398(7)
Sn4 Sn 0.36068(8) 0.96278(6) 0.40832(6)
O1 O 0.0336(13) 0.5047(8) 0.3080(8)
O2 O 0.0157(13) 0.6443(8) 0.2389(7)
O3 O 0.1896(8) 0.8477(6) 0.4475(7)
O4 O 0.0619(10) 0.8780(7) 0.3108(7)
O5 O 0.2513(10) 0.3417(7) 0.0781(6)
O6 O 0.3501(11) 0.2761(8) 0.2056(7)
O7 O 0.6563(11) 0.2091(8) 0.1869(8)
O8 O 0.5188(9) 0.0922(6) 0.2483(6)
O9 O 0.0675(9) 0.4781(6) 0.0814(6)
O10 O 0.4300(7) 0.9462(6) 0.5546(6)
C1 C 0.0150(12) 0.5951(8) 0.3147(9)
C2 C -0.0152(10) 0.6484(8) 0.4137(8)
H1 H 0.0718 0.6548 0.4625
C3 C -0.1338(14) 0.5796(10) 0.4559(11)
H2 H -0.1254 0.5071 0.4389
H3 H -0.1212 0.5952 0.5297
C4 C -0.2764(14) 0.5948(11) 0.4154(12)
H4 H -0.3544 0.5470 0.4260
C5 C -0.3016(13) 0.6732(11) 0.3640(12)
H5 H -0.3958 0.6749 0.3382
C6 C -0.1880(12) 0.7581(9) 0.3455(11)
H6 H -0.2181 0.8247 0.3609
H7 H -0.1743 0.7496 0.2741
C7 C -0.0486(12) 0.7570(9) 0.4108(8)
H8 H -0.0620 0.7821 0.4807
C8 C 0.0728(11) 0.8325(8) 0.3843(9)
C9 C 0.3319(16) 0.2821(11) 0.1141(10)
C10 C 0.4106(18) 0.2247(12) 0.0402(10)
H9 H 0.5026 0.2689 0.0377
C11 C 0.334(3) 0.1991(17) -0.0672(11)
H10 H 0.2963 0.2597 -0.0865
H11 H 0.4023 0.1839 -0.1130
C12 C 0.217(3) 0.1109(19) -0.0804(14)
H12 H 0.1469 0.1018 -0.1369
C13 C 0.208(2) 0.0454(17) -0.0149(16)
H13 H 0.1317 -0.0096 -0.0281
C14 C 0.3118(17) 0.0491(13) 0.0814(12)
H14 H 0.2674 0.0696 0.1409
H15 H 0.3364 -0.0193 0.0868
C15 C 0.4413(16) 0.1244(11) 0.0774(10)
H16 H 0.4915 0.0918 0.0256
C16 C 0.5464(15) 0.1452(12) 0.1760(11)
C17 C 0.0320(18) 0.2901(11) 0.2353(13)
H17 H 0.0079 0.3045 0.3030
H18 H 0.0825 0.2323 0.2320
H19 H -0.0540 0.2735 0.1874
C18 C 0.3453(18) 0.5224(14) 0.2649(17)
H20 H 0.4211 0.5143 0.2244
H21 H 0.3727 0.5077 0.3328
H22 H 0.3273 0.5926 0.2676
C19 C 0.0655(18) 0.7312(11) 0.0560(11)
H23 H 0.0762 0.7331 -0.0147
H24 H 0.0185 0.7871 0.0796
H25 H 0.1582 0.7386 0.0953
C20 C -0.2592(18) 0.5202(16) 0.1000(14)
H26 H -0.2503 0.4615 0.1360
H27 H -0.3011 0.5698 0.1404
H28 H -0.3193 0.4974 0.0360
C21 C 0.3553(17) 0.7000(11) 0.5877(13)
H29 H 0.3598 0.6915 0.5155
H30 H 0.2787 0.6497 0.6029
H31 H 0.4442 0.6901 0.6235
C22 C 0.1502(13) 0.9234(11) 0.6745(11)
H32 H 0.1724 0.9962 0.6682
H33 H 0.1370 0.9150 0.7438
H34 H 0.0640 0.8927 0.6300
C23 C 0.4148(14) 0.8538(10) 0.2975(11)
H35 H 0.5155 0.8693 0.2934
H36 H 0.3620 0.8571 0.2324
H37 H 0.3916 0.7851 0.3162
C24 C 0.2537(13) 1.0910(10) 0.4037(11)
H38 H 0.1701 1.0791 0.4376
H39 H 0.2258 1.0996 0.3339
H40 H 0.3163 1.1526 0.4375
Sn2A Sn 0.05611(10) 0.40987(7) -0.07315(6)
Sn3A Sn 0.68189(8) 0.14989(6) 0.36602(7)
Sn4A Sn 0.63932(8) 1.03722(6) 0.59168(6)
O7A O 0.3437(11) 0.7909(8) 0.8131(8)
O8A O 0.4812(9) 0.9078(6) 0.7517(6)
O9A O -0.0675(9) 0.5219(6) -0.0814(6)
O10A O 0.5700(7) 1.0538(6) 0.4454(6)
loop_
_geom_bond_atom_site_label_1
_geom_bond_atom_site_label_2
_geom_bond_site_symmetry_1
_geom_bond_site_symmetry_2
Sn1 O1 1_555 1_555
Sn2 O2 1_555 1_555
Sn3 O3 1_555 1_555
Sn4 O3 1_555 1_555
O1 C1 1_555 1_555
O2 C1 1_555 1_555
O3 C8 1_555 1_555
O4 C8 1_555 1_555
O5 Sn1 1_555 1_555
O6 C9 1_555 1_555
O7 C16 1_555 1_555
O8 C16 1_555 1_555
O9 Sn1 1_555 1_555
O10 Sn3 1_555 1_555
C1 C2 1_555 1_555
C2 H1 1_555 1_555
C3 C2 1_555 1_555
H2 C3 1_555 1_555
H3 C3 1_555 1_555
C4 C3 1_555 1_555
H4 C4 1_555 1_555
C5 C4 1_555 1_555
H5 C5 1_555 1_555
C6 C5 1_555 1_555
H6 C6 1_555 1_555
H7 C6 1_555 1_555
C7 C2 1_555 1_555
H8 C7 1_555 1_555
C8 C7 1_555 1_555
C9 O5 1_555 1_555
C10 C9 1_555 1_555
H9 C10 1_555 1_555
C11 C10 1_555 1_555
H10 C11 1_555 1_555
H11 C11 1_555 1_555
C12 C11 1_555 1_555
H12 C12 1_555 1_555
C13 C12 1_555 1_555
H13 C13 1_555 1_555
C14 C13 1_555 1_555
H14 C14 1_555 1_555
H15 C14 1_555 1_555
C15 C10 1_555 1_555
H16 C15 1_555 1_555
C16 C15 1_555 1_555
C17 Sn1 1_555 1_555
H17 C17 1_555 1_555
H18 C17 1_555 1_555
H19 C17 1_555 1_555
C18 Sn1 1_555 1_555
H20 C18 1_555 1_555
H21 C18 1_555 1_555
H22 C18 1_555 1_555
C19 Sn2 1_555 1_555
H23 C19 1_555 1_555
H24 C19 1_555 1_555
H25 C19 1_555 1_555
C20 Sn2 1_555 1_555
H26 C20 1_555 1_555
H27 C20 1_555 1_555
H28 C20 1_555 1_555
C21 Sn3 1_555 1_555
H29 C21 1_555 1_555
H30 C21 1_555 1_555
H31 C21 1_555 1_555
C22 Sn3 1_555 1_555
H32 C22 1_555 1_555
H33 C22 1_555 1_555
H34 C22 1_555 1_555
C23 Sn4 1_555 1_555
H35 C23 1_555 1_555
H36 C23 1_555 1_555
H37 C23 1_555 1_555
C24 Sn4 1_555 1_555
H38 C24 1_555 1_555
H39 C24 1_555 1_555
H40 C24 1_555 1_555
Sn2A O9 1_555 1_555
Sn3A O7 1_555 1_555
Sn4A O10 1_555 1_555
O7A Sn3 1_555 1_555
O8A Sn3 1_555 1_555
O9A Sn2 1_555 1_555
O10A Sn4 1_555 1_555
Sn2 O9 1_555 1_555
Sn4 O10 1_555 1_555
O8 Sn3A 1_555 1_555
C6 C7 1_555 1_555
C14 C15 1_555 1_555
Sn2A O9A 1_555 1_555
Sn4A O10A 1_555 1_555

#END
