
#######################################################################
#
#                 Cambridge Crystallographic Data Centre
#                                CCDC 
#
#######################################################################
#
# If this CIF has been generated from an entry in the Cambridge 
# Structural Database, then it will include bibliographic, chemical, 
# crystal, experimental, refinement or atomic coordinate data resulting 
# from the CCDC's data processing and validation procedures.
#
#######################################################################

data_DOHPAS
_symmetry_cell_setting           orthorhombic
_symmetry_space_group_name_H-M   'I b a m'
_symmetry_Int_Tables_number      72
_space_group_name_Hall           '-I 2 2c'
loop_
_symmetry_equiv_pos_site_id
_symmetry_equiv_pos_as_xyz
1 x,y,z
2 1/2+x,1/2+y,1/2+z
3 -x,-y,z
4 x,-y,1/2-z
5 -x,y,1/2-z
6 1/2-x,1/2-y,1/2+z
7 1/2+x,1/2-y,-z
8 1/2-x,1/2+y,-z
9 -x,-y,-z
10 1/2-x,1/2-y,1/2-z
11 x,y,-z
12 -x,y,1/2+z
13 x,-y,1/2+z
14 1/2+x,1/2+y,1/2-z
15 1/2-x,1/2+y,z
16 1/2+x,1/2-y,z
_cell_length_a                   11.3130(16)
_cell_length_b                   13.5760(18)
_cell_length_c                   22.030(2)
_cell_angle_alpha                90
_cell_angle_beta                 90
_cell_angle_gamma                90
_cell_volume                     3383.48
loop_
_atom_site_label
_atom_site_type_symbol
_atom_site_fract_x
_atom_site_fract_y
_atom_site_fract_z
Sn1 Sn 0.20853(7) 0.5000 0.7500
Sn2 Sn 0.5000 0.5000 0.82602(4)
N1 N -0.1081(12) 0.6868(11) 1.0000
O1 O 0.1882(7) 0.5820(6) 0.8376(3)
O2 O 0.3292(6) 0.5025(6) 0.8895(3)
O3 O -0.1563(7) 0.7020(8) 1.0484(4)
O4 O 0.3844(8) 0.5000 0.7500
C1 C 0.2308(13) 0.5543(13) 1.0000
H1 H 0.3044 0.5237 1.0000
C2 C 0.1754(9) 0.5774(8) 0.9451(5)
C3 C 0.0650(9) 0.6229(8) 0.9456(5)
H2 H 0.0293 0.6406 0.9092
C4 C 0.0084(15) 0.6419(11) 1.0000
C5 C 0.2358(10) 0.5515(10) 0.8857(5)
C6 C 0.1429(10) 0.3726(10) 0.7919(5)
H3 H 0.1375 0.3206 0.7625
H4 H 0.0659 0.3858 0.8083
H5 H 0.1953 0.3531 0.8240
C7 C 0.5065(10) 0.6511(8) 0.8476(6)
H6 H 0.5201 0.6589 0.8903
H7 H 0.4327 0.6815 0.8369
H8 H 0.5695 0.6818 0.8253
Sn1J Sn 0.20853(7) 0.5000 1.2500
Sn2C Sn 0.5000 0.5000 0.67398(4)
Sn2J Sn 0.5000 0.5000 1.17398(4)
O1J O 0.1882(7) 0.5820(6) 1.1624(3)
O1C O 0.1882(7) 0.4180(6) 0.6624(3)
O2J O 0.3292(6) 0.5025(6) 1.1105(3)
O2B O 0.6708(6) 0.4975(6) 0.8895(3)
O3J O -0.1563(7) 0.7020(8) 0.9516(4)
O4B O 0.6156(8) 0.5000 0.7500
C2J C 0.1754(9) 0.5774(8) 1.0549(5)
C3J C 0.0650(9) 0.6229(8) 1.0544(5)
H2J H 0.0293 0.6406 1.0908
C5J C 0.2358(10) 0.5515(10) 1.1143(5)
C6C C 0.1429(10) 0.6274(10) 0.7081(5)
H3C H 0.1375 0.6794 0.7375
H4C H 0.0659 0.6142 0.6917
H5C H 0.1953 0.6469 0.6760
C7B C 0.4935(10) 0.3489(8) 0.8476(6)
H6B H 0.4799 0.3411 0.8903
H7B H 0.5673 0.3185 0.8369
H8B H 0.4305 0.3182 0.8253
loop_
_geom_bond_atom_site_label_1
_geom_bond_atom_site_label_2
_geom_bond_site_symmetry_1
_geom_bond_site_symmetry_2
Sn1 O1 1_555 1_555
Sn2 O2 1_555 1_555
N1 O3 1_555 1_555
O1 C5 1_555 1_555
O2 C5 1_555 1_555
O4 Sn1 1_555 1_555
C1 H1 1_555 1_555
C2 C1 1_555 1_555
C3 C2 1_555 1_555
H2 C3 1_555 1_555
C4 N1 1_555 1_555
C5 C2 1_555 1_555
C6 Sn1 1_555 1_555
H3 C6 1_555 1_555
H4 C6 1_555 1_555
H5 C6 1_555 1_555
C7 Sn2 1_555 1_555
H6 C7 1_555 1_555
H7 C7 1_555 1_555
H8 C7 1_555 1_555
Sn1J O1J 1_555 1_555
Sn2C O4 1_555 1_555
Sn2J O2J 1_555 1_555
O1J C5J 1_555 1_555
O1C Sn1 1_555 1_555
O2J C5J 1_555 1_555
O2B Sn2 1_555 1_555
O3J N1 1_555 1_555
O4B Sn2 1_555 1_555
C2J C1 1_555 1_555
C3J C4 1_555 1_555
H2J C3J 1_555 1_555
C5J C2J 1_555 1_555
C6C Sn1 1_555 1_555
H3C C6C 1_555 1_555
H4C C6C 1_555 1_555
H5C C6C 1_555 1_555
C7B Sn2 1_555 1_555
H6B C7B 1_555 1_555
H7B C7B 1_555 1_555
H8B C7B 1_555 1_555
Sn2 O4 1_555 1_555
C3 C4 1_555 1_555
Sn2C O4B 1_555 1_555
C2J C3J 1_555 1_555

#END
