
#######################################################################
#
#                 Cambridge Crystallographic Data Centre
#                                CCDC 
#
#######################################################################
#
# If this CIF has been generated from an entry in the Cambridge 
# Structural Database, then it will include bibliographic, chemical, 
# crystal, experimental, refinement or atomic coordinate data resulting 
# from the CCDC's data processing and validation procedures.
#
#######################################################################

data_DOHPOH
_symmetry_cell_setting           triclinic
_symmetry_space_group_name_H-M   'P -1'
_symmetry_Int_Tables_number      2
_space_group_name_Hall           '-P 1'
loop_
_symmetry_equiv_pos_site_id
_symmetry_equiv_pos_as_xyz
1 x,y,z
2 -x,-y,-z
_cell_length_a                   9.998(2)
_cell_length_b                   10.036(2)
_cell_length_c                   12.674(3)
_cell_angle_alpha                96.16(3)
_cell_angle_beta                 112.99(3)
_cell_angle_gamma                94.10(3)
_cell_volume                     1154.97
loop_
_atom_site_label
_atom_site_type_symbol
_atom_site_fract_x
_atom_site_fract_y
_atom_site_fract_z
Co1 Co 1.0000 0.0000 0.5000
Co2 Co 1.0000 -0.5000 0.5000
Co3 Co 1.0000 0.0000 0.0000
C1 C 1.1418(4) -0.2603(4) 0.4371(3)
C2 C 1.2739(4) -0.2103(4) 0.4161(3)
C3 C 1.4087(4) -0.2310(5) 0.4970(4)
H1 H 1.4125 -0.2742 0.5593
C4 C 1.5367(4) -0.1893(5) 0.4875(4)
H2 H 1.6257 -0.2046 0.5431
C5 C 1.5346(4) -0.1247(4) 0.3959(3)
C6 C 1.3995(4) -0.1036(4) 0.3147(3)
H3 H 1.3964 -0.0598 0.2529
C7 C 1.2697(4) -0.1458(4) 0.3227(3)
C8 C 1.1287(4) -0.1288(4) 0.2258(3)
C9 C 1.6726(4) -0.0786(4) 0.3823(4)
C10 C 1.1501(5) 0.2575(5) 0.1703(4)
H4 H 1.2257 0.2049 0.1988
C11 C 1.1709(5) 0.3901(5) 0.2198(4)
H5 H 1.2593 0.4257 0.2805
C12 C 1.0615(5) 0.4695(5) 0.1797(4)
H6 H 1.0740 0.5594 0.2123
C13 C 0.9306(4) 0.4122(4) 0.0884(3)
C14 C 0.9185(4) 0.2785(4) 0.0435(4)
H7 H 0.8313 0.2403 -0.0173
C15 C 0.8086(4) 0.4887(4) 0.0362(3)
C16 C 0.6094(4) 0.5479(4) -0.0705(3)
C17 C 0.4625(4) 0.5401(4) -0.1613(3)
C18 C 0.3817(5) 0.4170(4) -0.2156(4)
H8 H 0.4196 0.3377 -0.1932
C19 C 0.2464(5) 0.4113(4) -0.3022(4)
H9 H 0.1921 0.3272 -0.3357
C20 C 0.2653(5) 0.6406(4) -0.2872(4)
H10 H 0.2253 0.7185 -0.3115
C21 C 0.4010(5) 0.6548(4) -0.1973(4)
H11 H 0.4506 0.7401 -0.1615
N1 N 1.0255(4) 0.2011(4) 0.0829(3)
N2 N 0.6793(4) 0.4375(3) -0.0460(3)
N3 N 0.8138(4) 0.6214(3) 0.0602(3)
N4 N 0.6856(4) 0.6618(4) -0.0086(3)
N5 N 0.1880(4) 0.5221(3) -0.3413(3)
O1 O 1.0649(3) -0.1817(3) 0.4622(3)
O2 O 1.1221(3) -0.3855(3) 0.4347(2)
O3 O 1.1359(3) -0.0494(3) 0.1578(3)
O4 O 1.0144(3) -0.1958(3) 0.2179(3)
O5 O 1.6612(3) -0.0273(4) 0.2944(3)
O6 O 1.7916(3) -0.0952(3) 0.4620(3)
O7 O 0.9315(3) 0.0470(3) 0.3271(3)
O8 O 1.0802(4) -0.6644(3) 0.4302(3)
H12 H 1.0378 -0.6768 0.3563
H13 H 1.0624 -0.7361 0.4556
O9 O 0.8009(3) -0.0396(3) 0.0239(3)
H14 H 0.8384 0.0397 0.3051
H15 H 0.7360 0.0192 -0.0015
H16 H 0.8708 0.6828 0.1030
H17 H 0.9550 0.0082 0.2802
H18 H 0.7616 -0.1127 0.0080
C10A C -0.1501(5) -0.2575(5) -0.1703(4)
H4A H -0.2257 -0.2049 -0.1988
C11A C -0.1709(5) -0.3901(5) -0.2198(4)
H5A H -0.2593 -0.4257 -0.2805
C12A C -0.0615(5) -0.4695(5) -0.1797(4)
H6A H -0.0740 -0.5594 -0.2123
C13A C 0.0694(4) -0.4122(4) -0.0884(3)
C14A C 0.0815(4) -0.2785(4) -0.0435(4)
H7A H 0.1687 -0.2403 0.0173
C15A C 0.1914(4) -0.4887(4) -0.0362(3)
C16A C 0.3906(4) -0.5479(4) 0.0705(3)
C17A C 0.5375(4) -0.5401(4) 0.1613(3)
C18A C 0.6183(5) -0.4170(4) 0.2156(4)
H8A H 0.5804 -0.3377 0.1932
C19A C 0.7536(5) -0.4113(4) 0.3022(4)
H9A H 0.8079 -0.3272 0.3357
C20A C 0.7347(5) -0.6406(4) 0.2872(4)
H10A H 0.7747 -0.7185 0.3115
C21A C 0.5990(5) -0.6548(4) 0.1973(4)
H11A H 0.5494 -0.7401 0.1615
N1A N -0.0255(4) -0.2011(4) -0.0829(3)
N2A N 0.3207(4) -0.4375(3) 0.0460(3)
N3A N 0.1862(4) -0.6214(3) -0.0602(3)
N4A N 0.3144(4) -0.6618(4) 0.0086(3)
N5A N 0.8120(4) -0.5221(3) 0.3413(3)
H16A H 0.1292 -0.6828 -0.1030
C1A C 0.8582(4) 0.2603(4) 0.5629(3)
C2A C 0.7261(4) 0.2103(4) 0.5839(3)
C3A C 0.5913(4) 0.2310(5) 0.5030(4)
H1A H 0.5875 0.2742 0.4407
C4A C 0.4633(4) 0.1893(5) 0.5125(4)
H2A H 0.3743 0.2046 0.4569
C5A C 0.4654(4) 0.1247(4) 0.6041(3)
C6A C 0.6005(4) 0.1036(4) 0.6853(3)
H3A H 0.6036 0.0598 0.7471
C7A C 0.7303(4) 0.1458(4) 0.6773(3)
C8A C 0.8713(4) 0.1288(4) 0.7742(3)
C9A C 0.3274(4) 0.0786(4) 0.6177(4)
O1A O 0.9351(3) 0.1817(3) 0.5378(3)
O2A O 0.8779(3) 0.3855(3) 0.5653(2)
O3A O 0.8641(3) 0.0494(3) 0.8422(3)
O4A O 0.9856(3) 0.1958(3) 0.7821(3)
O5A O 0.3388(3) 0.0273(4) 0.7056(3)
O6A O 0.2084(3) 0.0952(3) 0.5380(3)
O7A O 1.0685(3) -0.0470(3) 0.6729(3)
H14A H 1.1616 -0.0397 0.6949
H17A H 1.0450 -0.0082 0.7198
O8A O 0.9198(4) -0.3356(3) 0.5698(3)
H12A H 0.9622 -0.3232 0.6437
H13A H 0.9376 -0.2639 0.5444
O9A O 1.1991(3) 0.0396(3) -0.0239(3)
H15A H 1.2640 -0.0192 0.0015
H18A H 1.2384 0.1127 -0.0080
Co1_2 Co 0.0000 0.0000 0.5000
Co1_3 Co 2.0000 0.0000 0.5000
Co2_2 Co 0.0000 0.5000 -0.5000
Co2_3 Co 1.0000 0.5000 0.5000
Co3_2 Co 0.0000 0.0000 0.0000
Co3_3 Co 1.0000 0.0000 1.0000
N1A_2 N 0.9745(4) -0.2011(4) -0.0829(3)
N5_2 N 1.1880(4) -0.4779(3) 0.6587(3)
O2A_2 O 0.8779(3) -0.6145(3) 0.5653(2)
O3A_2 O 0.8641(3) 0.0494(3) -0.1578(3)
O6_2 O 0.7916(3) -0.0952(3) 0.4620(3)
O6A_2 O 1.2084(3) 0.0952(3) 0.5380(3)
O10 O 0.5570(6) 0.1104(8) -0.0632(5)
H19 H 0.4874 0.0776 -0.1274
H20 H 0.5773 0.1944 -0.0621
O11? O 0.5345(16) 0.011(2) -0.0792(14)
H21? H 0.4833 -0.0462 -0.1384
H22? H 0.4805 0.0402 -0.0463
loop_
_geom_bond_atom_site_label_1
_geom_bond_atom_site_label_2
_geom_bond_site_symmetry_1
_geom_bond_site_symmetry_2
Co1 O1 1_555 1_555
Co2 O2 1_555 1_555
Co3 N1 1_555 1_555
C1 C2 1_555 1_555
C2 C3 1_555 1_555
C3 H1 1_555 1_555
C4 C3 1_555 1_555
H2 C4 1_555 1_555
C5 C4 1_555 1_555
C6 C5 1_555 1_555
H3 C6 1_555 1_555
C7 C2 1_555 1_555
C8 C7 1_555 1_555
C9 C5 1_555 1_555
C10 H4 1_555 1_555
C11 C10 1_555 1_555
H5 C11 1_555 1_555
C12 C11 1_555 1_555
H6 C12 1_555 1_555
C13 C12 1_555 1_555
C14 C13 1_555 1_555
H7 C14 1_555 1_555
C15 C13 1_555 1_555
C16 C17 1_555 1_555
C17 C18 1_555 1_555
C18 H8 1_555 1_555
C19 C18 1_555 1_555
H9 C19 1_555 1_555
C20 H10 1_555 1_555
C21 C17 1_555 1_555
H11 C21 1_555 1_555
N1 C10 1_555 1_555
N2 C15 1_555 1_555
N3 C15 1_555 1_555
N4 C16 1_555 1_555
N5 C19 1_555 1_555
O1 C1 1_555 1_555
O2 C1 1_555 1_555
O3 Co3 1_555 1_555
O4 C8 1_555 1_555
O5 C9 1_555 1_555
O6 C9 1_555 1_555
O7 Co1 1_555 1_555
O8 Co2 1_555 1_555
H12 O8 1_555 1_555
H13 O8 1_555 1_555
O9 Co3 1_555 1_555
H14 O7 1_555 1_555
H15 O9 1_555 1_555
H16 N3 1_555 1_555
H17 O7 1_555 1_555
H18 O9 1_555 1_555
O10 H19 1_555 1_555
H20 O10 1_555 1_555
C10A H4A 1_555 1_555
C11A C10A 1_555 1_555
H5A C11A 1_555 1_555
C12A C11A 1_555 1_555
H6A C12A 1_555 1_555
C13A C12A 1_555 1_555
C14A C13A 1_555 1_555
H7A C14A 1_555 1_555
C15A C13A 1_555 1_555
C16A C17A 1_555 1_555
C17A C18A 1_555 1_555
C18A H8A 1_555 1_555
C19A C18A 1_555 1_555
H9A C19A 1_555 1_555
C20A H10A 1_555 1_555
C21A C17A 1_555 1_555
H11A C21A 1_555 1_555
N1A C10A 1_555 1_555
N2A C15A 1_555 1_555
N3A C15A 1_555 1_555
N4A C16A 1_555 1_555
N5A Co2 1_555 1_555
H16A N3A 1_555 1_555
C1A C2A 1_555 1_555
C2A C3A 1_555 1_555
C3A H1A 1_555 1_555
C4A C3A 1_555 1_555
H2A C4A 1_555 1_555
C5A C4A 1_555 1_555
C6A C5A 1_555 1_555
H3A C6A 1_555 1_555
C7A C2A 1_555 1_555
C8A C7A 1_555 1_555
C9A C5A 1_555 1_555
O1A Co1 1_555 1_555
O2A C1A 1_555 1_555
O3A C8A 1_555 1_555
O4A C8A 1_555 1_555
O5A C9A 1_555 1_555
O6A C9A 1_555 1_555
O7A Co1 1_555 1_555
H14A O7A 1_555 1_555
H17A O7A 1_555 1_555
O8A Co2 1_555 1_555
H12A O8A 1_555 1_555
H13A O8A 1_555 1_555
O9A Co3 1_555 1_555
H15A O9A 1_555 1_555
H18A O9A 1_555 1_555
Co1_2 O6A 1_555 1_555
Co1_3 O6 1_555 1_555
Co2_2 N5 1_555 1_555
Co2_3 O2A 1_555 1_555
Co3_2 N1A 1_555 1_555
Co3_3 O3A 1_555 1_555
N1A_2 Co3 1_555 1_555
N5_2 Co2 1_555 1_555
O2A_2 Co2 1_555 1_555
O3A_2 Co3 1_555 1_555
O6_2 Co1 1_555 1_555
O6A_2 Co1 1_555 1_555
C6 C7 1_555 1_555
C8 O3 1_555 1_555
C14 N1 1_555 1_555
C16 N2 1_555 1_555
C20 C21 1_555 1_555
C20 N5 1_555 1_555
N3 N4 1_555 1_555
C14A N1A 1_555 1_555
C16A N2A 1_555 1_555
C19A N5A 1_555 1_555
C20A C21A 1_555 1_555
C20A N5A 1_555 1_555
N3A N4A 1_555 1_555
C1A O1A 1_555 1_555
C6A C7A 1_555 1_555

#END
