
#######################################################################
#
#                 Cambridge Crystallographic Data Centre
#                                CCDC 
#
#######################################################################
#
# If this CIF has been generated from an entry in the Cambridge 
# Structural Database, then it will include bibliographic, chemical, 
# crystal, experimental, refinement or atomic coordinate data resulting 
# from the CCDC's data processing and validation procedures.
#
#######################################################################

data_DOHPOG
_symmetry_cell_setting           orthorhombic
_symmetry_space_group_name_H-M   'P b c a'
_symmetry_Int_Tables_number      61
_space_group_name_Hall           '-P 2ac 2ab'
loop_
_symmetry_equiv_pos_site_id
_symmetry_equiv_pos_as_xyz
1 x,y,z
2 1/2-x,-y,1/2+z
3 -x,1/2+y,1/2-z
4 1/2+x,1/2-y,-z
5 -x,-y,-z
6 1/2+x,y,1/2-z
7 x,1/2-y,1/2+z
8 1/2-x,1/2+y,z
_cell_length_a                   18.596(6)
_cell_length_b                   9.476(3)
_cell_length_c                   19.051(6)
_cell_angle_alpha                90
_cell_angle_beta                 90
_cell_angle_gamma                90
_cell_volume                     3357.09
loop_
_atom_site_label
_atom_site_type_symbol
_atom_site_fract_x
_atom_site_fract_y
_atom_site_fract_z
Sn1 Sn 0.13889(5) 0.31606(10) 0.44270(4)
Sn2 Sn -0.00377(5) 0.40548(10) 0.57269(4)
O1 O 0.0551(4) 0.4233(9) 0.4832(4)
O2 O 0.1202(5) 0.1452(11) 0.5235(5)
O3 O 0.0715(5) 0.2400(11) 0.6152(5)
O4 O 0.1312(4) 0.0135(9) 0.8663(4)
O5 O 0.2305(5) 0.1210(10) 0.8356(5)
C1 C 0.1390(7) 0.0358(13) 0.6337(6)
H1 H 0.1496 -0.0450 0.6034
C2 C 0.2086(7) 0.0836(15) 0.6641(6)
H2 H 0.2001 0.1676 0.6920
H3 H 0.2408 0.1091 0.6261
C3 C 0.2455(8) -0.0279(15) 0.7104(6)
H4 H 0.2883 0.0125 0.7314
H5 H 0.2601 -0.1072 0.6815
C4 C 0.1951(7) -0.0794(14) 0.7681(6)
H6 H 0.2177 -0.1628 0.7889
C5 C 0.1238(7) -0.1284(14) 0.7372(7)
H7 H 0.0912 -0.1524 0.7752
H8 H 0.1318 -0.2129 0.7096
C6 C 0.0894(7) -0.0170(15) 0.6915(7)
H9 H 0.0462 -0.0558 0.6704
H10 H 0.0752 0.0621 0.7207
C7 C 0.1078(8) 0.1470(16) 0.5883(6)
C8 C 0.1869(7) 0.0264(14) 0.8258(6)
C9 C 0.2276(8) 0.383(2) 0.5000(8)
H11 H 0.2152 0.4665 0.5262
H12 H 0.2664 0.4048 0.4685
H13 H 0.2422 0.3102 0.5318
C10 C 0.1090(9) 0.1543(17) 0.3714(8)
H14 H 0.0597 0.1668 0.3579
H15 H 0.1146 0.0641 0.3936
H16 H 0.1391 0.1589 0.3306
C11 C 0.0417(8) 0.5343(17) 0.6513(8)
H17 H 0.0777 0.5941 0.6309
H18 H 0.0632 0.4760 0.6867
H19 H 0.0048 0.5915 0.6721
C12 C -0.0801(8) 0.2461(17) 0.5537(9)
H20 H -0.0795 0.2217 0.5048
H21 H -0.1270 0.2796 0.5664
H22 H -0.0684 0.1644 0.5813
Sn1F Sn 0.13889(5) 0.18394(10) 0.94270(4)
Sn2D Sn 0.00377(5) 0.59452(10) 0.42731(4)
O1D O -0.0551(4) 0.5767(9) 0.5168(4)
O4F O 0.1312(4) 0.4865(9) 0.3663(4)
O5F O 0.2305(5) 0.3790(10) 0.3356(5)
loop_
_geom_bond_atom_site_label_1
_geom_bond_atom_site_label_2
_geom_bond_site_symmetry_1
_geom_bond_site_symmetry_2
Sn1 O1 1_555 1_555
Sn2 O1 1_555 1_555
O1 Sn2D 1_555 1_555
O2 Sn1 1_555 1_555
O3 Sn2 1_555 1_555
O4 C8 1_555 1_555
O5 C8 1_555 1_555
C1 H1 1_555 1_555
C2 C1 1_555 1_555
H2 C2 1_555 1_555
H3 C2 1_555 1_555
C3 C2 1_555 1_555
H4 C3 1_555 1_555
H5 C3 1_555 1_555
C4 C3 1_555 1_555
H6 C4 1_555 1_555
C5 C4 1_555 1_555
H7 C5 1_555 1_555
H8 C5 1_555 1_555
C6 C1 1_555 1_555
H9 C6 1_555 1_555
H10 C6 1_555 1_555
C7 O2 1_555 1_555
C8 C4 1_555 1_555
C9 Sn1 1_555 1_555
H11 C9 1_555 1_555
H12 C9 1_555 1_555
H13 C9 1_555 1_555
C10 Sn1 1_555 1_555
H14 C10 1_555 1_555
H15 C10 1_555 1_555
H16 C10 1_555 1_555
C11 Sn2 1_555 1_555
H17 C11 1_555 1_555
H18 C11 1_555 1_555
H19 C11 1_555 1_555
C12 Sn2 1_555 1_555
H20 C12 1_555 1_555
H21 C12 1_555 1_555
H22 C12 1_555 1_555
Sn1F O4 1_555 1_555
Sn2D O1D 1_555 1_555
O1D Sn2 1_555 1_555
O4F Sn1 1_555 1_555
O5F Sn1 1_555 1_555
O3 C7 1_555 1_555
O5 Sn1F 1_555 1_555
C1 C7 1_555 1_555
C5 C6 1_555 1_555

#END
