
#######################################################################
#
#                 Cambridge Crystallographic Data Centre
#                                CCDC 
#
#######################################################################
#
# If this CIF has been generated from an entry in the Cambridge 
# Structural Database, then it will include bibliographic, chemical, 
# crystal, experimental, refinement or atomic coordinate data resulting 
# from the CCDC's data processing and validation procedures.
#
#######################################################################

data_DOHPUN
_symmetry_cell_setting           triclinic
_symmetry_space_group_name_H-M   'P -1'
_symmetry_Int_Tables_number      2
_space_group_name_Hall           '-P 1'
loop_
_symmetry_equiv_pos_site_id
_symmetry_equiv_pos_as_xyz
1 x,y,z
2 -x,-y,-z
_cell_length_a                   11.324(2)
_cell_length_b                   12.462(3)
_cell_length_c                   13.474(3)
_cell_angle_alpha                78.55(3)
_cell_angle_beta                 71.71(3)
_cell_angle_gamma                71.54(3)
_cell_volume                     1702.08
loop_
_atom_site_label
_atom_site_type_symbol
_atom_site_fract_x
_atom_site_fract_y
_atom_site_fract_z
Ni1 Ni 0.29277(11) 0.83619(9) 0.25073(9)
Ni2 Ni 0.5000 1.5000 0.0000
C1 C 0.1811(9) 1.0889(7) 0.1815(6)
C2 C 0.2057(8) 1.1967(7) 0.1132(7)
C3 C 0.3255(8) 1.1966(7) 0.0486(7)
H1 H 0.3901 1.1281 0.0427
C4 C 0.3550(8) 1.2939(7) -0.0084(7)
C5 C 0.2552(8) 1.3947(7) -0.0046(7)
C6 C 0.1304(9) 1.3951(8) 0.0587(7)
H2 H 0.0633 1.4619 0.0608
C7 C 0.1071(9) 1.2948(7) 0.1189(7)
H3 H 0.0250 1.2949 0.1625
C8 C 0.2764(9) 1.5050(8) -0.0701(8)
C9 C 0.4889(9) 1.2891(7) -0.0804(7)
C10 C 0.2175(8) 0.8759(7) 0.0515(7)
H4 H 0.2840 0.9107 0.0334
C11 C 0.1594(9) 0.8798(8) -0.0256(7)
C12 C 0.0612(9) 0.8271(8) 0.0042(9)
H5 H 0.0208 0.8241 -0.0451
C13 C 0.0232(10) 0.7801(9) 0.1036(8)
H6 H -0.0469 0.7496 0.1235
C14 C 0.0889(9) 0.7768(8) 0.1774(8)
H7 H 0.0657 0.7407 0.2451
C15 C 0.2043(9) 0.9363(7) -0.1295(7)
C16 C 0.3073(9) 1.0234(7) -0.2638(7)
C17 C 0.4090(9) 1.0768(7) -0.3292(7)
C18 C 0.4966(9) 1.0897(7) -0.2859(7)
H8 H 0.4905 1.0626 -0.2155
C19 C 0.5982(9) 1.1784(8) -0.4405(8)
H9 H 0.6629 1.2131 -0.4787
C20 C 0.5157(10) 1.1701(8) -0.4907(7)
H10 H 0.5247 1.1975 -0.5613
C21 C 0.4163(9) 1.1195(8) -0.4344(7)
H11 H 0.3566 1.1143 -0.4662
C22 C 0.4194(10) 0.5915(8) 0.3290(8)
H12 H 0.4920 0.6047 0.2777
C23 C 0.4356(9) 0.4935(8) 0.3944(7)
H13 H 0.5163 0.4404 0.3840
C24 C 0.3316(9) 0.4712(8) 0.4779(8)
H14 H 0.3420 0.4065 0.5260
C25 C 0.2119(10) 0.5517(8) 0.4843(7)
C26 C 0.2040(10) 0.6479(8) 0.4118(8)
H15 H 0.1232 0.7002 0.4178
C27 C 0.0966(9) 0.5381(7) 0.5652(8)
C28 C -0.0911(9) 0.5559(8) 0.6681(8)
C29 C -0.2310(9) 0.6039(7) 0.7184(7)
C30 C -0.2985(10) 0.7129(8) 0.6862(7)
H16 H -0.2582 0.7570 0.6298
C31 C -0.4260(10) 0.7541(8) 0.7394(8)
H17 H -0.4722 0.8272 0.7194
C32 C -0.4845(9) 0.6895(7) 0.8204(7)
H18 H -0.5720 0.7178 0.8528
C33 C -0.2961(9) 0.5421(7) 0.8031(7)
H19 H -0.2523 0.4685 0.8240
N1 N 0.1869(7) 0.8273(6) 0.1483(6)
N2 N 0.3061(7) 0.9798(6) -0.1612(6)
N3 N 0.1509(7) 0.9555(6) -0.2112(6)
H20 H 0.0839 0.9351 -0.2083
N4 N 0.2150(8) 1.0094(6) -0.2957(6)
N5 N 0.5931(7) 1.1402(6) -0.3396(6)
N6 N 0.3038(7) 0.6725(6) 0.3328(5)
N7 N -0.0212(7) 0.6066(6) 0.5804(6)
N8 N 0.0952(8) 0.4512(6) 0.6439(6)
H21 H 0.1620 0.3962 0.6506
N9 N -0.0255(7) 0.4623(6) 0.7110(6)
N10 N -0.4204(8) 0.5843(6) 0.8563(6)
O1 O 0.2812(6) 1.0044(5) 0.1826(4)
O2 O 0.0672(6) 1.0874(5) 0.2317(5)
O3 O 0.5460(6) 1.3584(5) -0.0780(5)
O4 O 0.5380(6) 1.2080(5) -0.1384(5)
O5 O 0.3232(6) 1.5652(5) -0.0373(5)
O6 O 0.2413(8) 1.5293(6) -0.1539(6)
O7 O 0.1202(6) 0.9016(5) 0.3650(5)
H22 H 0.107(15) 0.971(3) 0.343(9)
H23 H 0.111(15) 0.890(10) 0.431(3)
Ni1A Ni -0.29277(11) 1.16381(9) 0.74927(9)
C1A C -0.1811(9) 0.9111(7) 0.8185(6)
C2A C -0.2057(8) 0.8033(7) 0.8868(7)
C3A C -0.3255(8) 0.8034(7) 0.9514(7)
H1A H -0.3901 0.8719 0.9573
C4A C -0.3550(8) 0.7061(7) 1.0084(7)
C5A C -0.2552(8) 0.6053(7) 1.0046(7)
C6A C -0.1304(9) 0.6049(8) 0.9413(7)
H2A H -0.0633 0.5381 0.9392
C7A C -0.1071(9) 0.7052(7) 0.8811(7)
H3A H -0.0250 0.7051 0.8375
C8A C -0.2764(9) 0.4950(8) 1.0701(8)
C9A C -0.4889(9) 0.7109(7) 1.0804(7)
C10A C -0.2175(8) 1.1241(7) 0.9485(7)
H4A H -0.2840 1.0893 0.9666
C11A C -0.1594(9) 1.1202(8) 1.0256(7)
C12A C -0.0612(9) 1.1729(8) 0.9958(9)
H5A H -0.0208 1.1759 1.0451
C13A C -0.0232(10) 1.2199(9) 0.8964(8)
H6A H 0.0469 1.2504 0.8765
C14A C -0.0889(9) 1.2232(8) 0.8226(8)
H7A H -0.0657 1.2593 0.7549
C15A C -0.2043(9) 1.0637(7) 1.1295(7)
C16A C -0.3073(9) 0.9766(7) 1.2638(7)
C17A C -0.4090(9) 0.9232(7) 1.3292(7)
C18A C -0.4966(9) 0.9103(7) 1.2859(7)
H8A H -0.4905 0.9374 1.2155
C19A C -0.5982(9) 0.8216(8) 1.4405(8)
H9A H -0.6629 0.7869 1.4787
C20A C -0.5157(10) 0.8299(8) 1.4907(7)
H10A H -0.5247 0.8025 1.5613
C21A C -0.4163(9) 0.8805(8) 1.4344(7)
H11A H -0.3566 0.8857 1.4662
C22A C -0.4194(10) 1.4085(8) 0.6710(8)
H12A H -0.4920 1.3953 0.7223
C23A C -0.4356(9) 1.5065(8) 0.6056(7)
H13A H -0.5163 1.5596 0.6160
C24A C -0.3316(9) 1.5288(8) 0.5221(8)
H14A H -0.3420 1.5935 0.4740
C25A C -0.2119(10) 1.4483(8) 0.5157(7)
C26A C -0.2040(10) 1.3521(8) 0.5882(8)
H15A H -0.1232 1.2998 0.5822
C27A C -0.0966(9) 1.4619(7) 0.4348(8)
C28A C 0.0911(9) 1.4441(8) 0.3319(8)
C29A C 0.2310(9) 1.3961(7) 0.2816(7)
C30A C 0.2985(10) 1.2871(8) 0.3138(7)
H16A H 0.2582 1.2430 0.3702
C31A C 0.4260(10) 1.2459(8) 0.2606(8)
H17A H 0.4722 1.1728 0.2806
C32A C 0.4845(9) 1.3105(7) 0.1796(7)
H18A H 0.5720 1.2822 0.1472
C33A C 0.2961(9) 1.4579(7) 0.1969(7)
H19A H 0.2523 1.5315 0.1760
N1A N -0.1869(7) 1.1727(6) 0.8517(6)
N2A N -0.3061(7) 1.0202(6) 1.1612(6)
N3A N -0.1509(7) 1.0445(6) 1.2112(6)
H20A H -0.0839 1.0649 1.2083
N4A N -0.2150(8) 0.9906(6) 1.2957(6)
N5A N -0.5931(7) 0.8598(6) 1.3396(6)
N6A N -0.3038(7) 1.3275(6) 0.6672(5)
N7A N 0.0212(7) 1.3934(6) 0.4196(6)
N8A N -0.0952(8) 1.5488(6) 0.3561(6)
H21A H -0.1620 1.6038 0.3494
N9A N 0.0255(7) 1.5377(6) 0.2890(6)
N10A N 0.4204(8) 1.4157(6) 0.1437(6)
O1A O -0.2812(6) 0.9956(5) 0.8174(4)
O2A O -0.0672(6) 0.9126(5) 0.7683(5)
O3A O -0.5460(6) 0.6416(5) 1.0780(5)
O4A O -0.5380(6) 0.7920(5) 1.1384(5)
O5A O -0.3232(6) 0.4348(5) 1.0373(5)
O6A O -0.2413(8) 0.4707(6) 1.1539(6)
O7A O -0.1202(6) 1.0984(5) 0.6350(5)
H22A H -0.107(15) 1.029(3) 0.657(9)
H23A H -0.111(15) 1.110(10) 0.569(3)
Ni1_2 Ni -0.70723(11) 0.83619(9) 1.25073(9)
Ni1A_2 Ni 0.70723(11) 1.16381(9) -0.25073(9)
Ni2_2 Ni -0.5000 0.5000 1.0000
N5_2 N -0.4069(7) 1.1402(6) 0.6604(6)
N5A_2 N 0.4069(7) 0.8598(6) 0.3396(6)
N10_2 N 0.5796(8) 1.5843(6) -0.1437(6)
O3A_2 O 0.4540(6) 1.6416(5) 0.0780(5)
O4_2 O -0.4620(6) 1.2080(5) 0.8616(5)
O4A_2 O 0.4620(6) 0.7920(5) 0.1384(5)
O5A_2 O 0.6768(6) 1.4348(5) 0.0373(5)
O8 O -0.2665(10) 1.2956(8) 0.3128(10)
H24 H -0.2547 1.3584 0.2792
H25 H -0.2028 1.2599 0.3379
O9 O 0.2767(9) 0.3390(6) 0.7506(6)
H26 H 0.2431 0.4022 0.7765
H27 H 0.2932 0.2872 0.7998
O10 O 0.0593(15) 0.8085(12) 0.5930(11)
O11 O -0.1628(12) 0.9529(11) 0.5057(9)
H28 H -0.104(12) 0.889(8) 0.517(11)
H29 H -0.168(15) 0.953(12) 0.443(6)
loop_
_geom_bond_atom_site_label_1
_geom_bond_atom_site_label_2
_geom_bond_site_symmetry_1
_geom_bond_site_symmetry_2
Ni1 N1 1_555 1_555
Ni2 O3 1_555 1_555
C1 C2 1_555 1_555
C2 C3 1_555 1_555
C3 H1 1_555 1_555
C4 C3 1_555 1_555
C5 C4 1_555 1_555
C6 C5 1_555 1_555
H2 C6 1_555 1_555
C7 C2 1_555 1_555
H3 C7 1_555 1_555
C8 C5 1_555 1_555
C9 C4 1_555 1_555
C10 H4 1_555 1_555
C11 C10 1_555 1_555
C12 C11 1_555 1_555
H5 C12 1_555 1_555
C13 C12 1_555 1_555
H6 C13 1_555 1_555
C14 C13 1_555 1_555
H7 C14 1_555 1_555
C15 C11 1_555 1_555
C16 C17 1_555 1_555
C17 C18 1_555 1_555
C18 H8 1_555 1_555
C19 H9 1_555 1_555
C20 C19 1_555 1_555
H10 C20 1_555 1_555
C21 C17 1_555 1_555
H11 C21 1_555 1_555
C22 H12 1_555 1_555
C23 C22 1_555 1_555
H13 C23 1_555 1_555
C24 C23 1_555 1_555
H14 C24 1_555 1_555
C25 C24 1_555 1_555
C26 C25 1_555 1_555
H15 C26 1_555 1_555
C27 C25 1_555 1_555
C28 C29 1_555 1_555
C29 C30 1_555 1_555
C30 H16 1_555 1_555
C31 C30 1_555 1_555
H17 C31 1_555 1_555
C32 C31 1_555 1_555
H18 C32 1_555 1_555
C33 C29 1_555 1_555
H19 C33 1_555 1_555
N1 C10 1_555 1_555
N2 C15 1_555 1_555
N3 C15 1_555 1_555
H20 N3 1_555 1_555
N4 C16 1_555 1_555
N5 C18 1_555 1_555
N6 Ni1 1_555 1_555
N7 C27 1_555 1_555
N8 C27 1_555 1_555
H21 N8 1_555 1_555
N9 C28 1_555 1_555
N10 C32 1_555 1_555
O1 Ni1 1_555 1_555
O2 C1 1_555 1_555
O3 C9 1_555 1_555
O4 C9 1_555 1_555
O5 Ni2 1_555 1_555
O6 C8 1_555 1_555
O7 Ni1 1_555 1_555
H22 O7 1_555 1_555
H23 O7 1_555 1_555
O8 H24 1_555 1_555
H25 O8 1_555 1_555
O9 H26 1_555 1_555
H27 O9 1_555 1_555
O11 H28 1_555 1_555
H29 O11 1_555 1_555
Ni1A N1A 1_555 1_555
C1A C2A 1_555 1_555
C2A C3A 1_555 1_555
C3A H1A 1_555 1_555
C4A C3A 1_555 1_555
C5A C4A 1_555 1_555
C6A C5A 1_555 1_555
H2A C6A 1_555 1_555
C7A C2A 1_555 1_555
H3A C7A 1_555 1_555
C8A C5A 1_555 1_555
C9A C4A 1_555 1_555
C10A H4A 1_555 1_555
C11A C10A 1_555 1_555
C12A C11A 1_555 1_555
H5A C12A 1_555 1_555
C13A C12A 1_555 1_555
H6A C13A 1_555 1_555
C14A C13A 1_555 1_555
H7A C14A 1_555 1_555
C15A C11A 1_555 1_555
C16A C17A 1_555 1_555
C17A C18A 1_555 1_555
C18A H8A 1_555 1_555
C19A H9A 1_555 1_555
C20A C19A 1_555 1_555
H10A C20A 1_555 1_555
C21A C17A 1_555 1_555
H11A C21A 1_555 1_555
C22A H12A 1_555 1_555
C23A C22A 1_555 1_555
H13A C23A 1_555 1_555
C24A C23A 1_555 1_555
H14A C24A 1_555 1_555
C25A C24A 1_555 1_555
C26A C25A 1_555 1_555
H15A C26A 1_555 1_555
C27A C25A 1_555 1_555
C28A C29A 1_555 1_555
C29A C30A 1_555 1_555
C30A H16A 1_555 1_555
C31A C30A 1_555 1_555
H17A C31A 1_555 1_555
C32A C31A 1_555 1_555
H18A C32A 1_555 1_555
C33A C29A 1_555 1_555
H19A C33A 1_555 1_555
N1A C10A 1_555 1_555
N2A C15A 1_555 1_555
N3A C15A 1_555 1_555
H20A N3A 1_555 1_555
N4A C16A 1_555 1_555
N5A C18A 1_555 1_555
N6A Ni1A 1_555 1_555
N7A C27A 1_555 1_555
N8A C27A 1_555 1_555
H21A N8A 1_555 1_555
N9A C28A 1_555 1_555
N10A Ni2 1_555 1_555
O1A Ni1A 1_555 1_555
O2A C1A 1_555 1_555
O3A C9A 1_555 1_555
O4A C9A 1_555 1_555
O5A C8A 1_555 1_555
O6A C8A 1_555 1_555
O7A Ni1A 1_555 1_555
H22A O7A 1_555 1_555
H23A O7A 1_555 1_555
Ni1_2 N5A 1_555 1_555
Ni1A_2 N5 1_555 1_555
Ni2_2 N10 1_555 1_555
N5_2 Ni1A 1_555 1_555
N5A_2 Ni1 1_555 1_555
N10_2 Ni2 1_555 1_555
O3A_2 Ni2 1_555 1_555
O4_2 Ni1A 1_555 1_555
O4A_2 Ni1 1_555 1_555
O5A_2 Ni2 1_555 1_555
C1 O1 1_555 1_555
C6 C7 1_555 1_555
C8 O5 1_555 1_555
C14 N1 1_555 1_555
C16 N2 1_555 1_555
C19 N5 1_555 1_555
C20 C21 1_555 1_555
C22 N6 1_555 1_555
C26 N6 1_555 1_555
C28 N7 1_555 1_555
C33 N10 1_555 1_555
N3 N4 1_555 1_555
N8 N9 1_555 1_555
O4 Ni1A_2 1_555 1_555
C1A O1A 1_555 1_555
C6A C7A 1_555 1_555
C14A N1A 1_555 1_555
C16A N2A 1_555 1_555
C19A N5A 1_555 1_555
C20A C21A 1_555 1_555
C22A N6A 1_555 1_555
C26A N6A 1_555 1_555
C28A N7A 1_555 1_555
C32A N10A 1_555 1_555
C33A N10A 1_555 1_555
N3A N4A 1_555 1_555
N8A N9A 1_555 1_555
O3A Ni2_2 1_555 1_555
O4A Ni1_2 1_555 1_555
O5A Ni2_2 1_555 1_555

#END
