
#######################################################################
#
#                 Cambridge Crystallographic Data Centre
#                                CCDC 
#
#######################################################################
#
# If this CIF has been generated from an entry in the Cambridge 
# Structural Database, then it will include bibliographic, chemical, 
# crystal, experimental, refinement or atomic coordinate data resulting 
# from the CCDC's data processing and validation procedures.
#
#######################################################################

data_DOHPAT
_symmetry_cell_setting           monoclinic
_symmetry_space_group_name_H-M   'C 2/c'
_symmetry_Int_Tables_number      15
_space_group_name_Hall           '-C 2yn'
loop_
_symmetry_equiv_pos_site_id
_symmetry_equiv_pos_as_xyz
1 x,y,z
2 -x,y,1/2-z
3 1/2+x,1/2+y,z
4 1/2-x,1/2+y,1/2-z
5 -x,-y,-z
6 x,-y,1/2+z
7 1/2-x,1/2-y,-z
8 1/2+x,1/2-y,1/2+z
_cell_length_a                   15.633(3)
_cell_length_b                   12.490(3)
_cell_length_c                   20.931(4)
_cell_angle_alpha                90
_cell_angle_beta                 95.38(3)
_cell_angle_gamma                90
_cell_volume                     4068.9
loop_
_atom_site_label
_atom_site_type_symbol
_atom_site_fract_x
_atom_site_fract_y
_atom_site_fract_z
Zn1 Zn 0.96904(4) 0.61570(5) 0.55079(3)
Zn2 Zn 0.5000 1.14887(6) 0.7500
C1 C 0.8978(3) 0.7691(4) 0.6386(3)
C2 C 0.8350(3) 0.8561(4) 0.6512(3)
C3 C 0.8493(3) 0.9209(5) 0.7053(3)
H1 H 0.8982 0.9111 0.7335
C4 C 0.7906(4) 0.9999(5) 0.7171(3)
H2 H 0.8015 1.0436 0.7530
C5 C 0.7160(3) 1.0155(4) 0.6767(3)
C6 C 0.6512(3) 1.0960(4) 0.6967(3)
C7 C 0.7035(3) 0.9542(4) 0.6208(2)
C8 C 0.7631(3) 0.8737(4) 0.6090(3)
H3 H 0.7540 0.8319 0.5722
C9 C 0.6281(3) 0.9737(4) 0.5724(3)
C10 C 0.9457(4) 0.4149(5) 0.6399(3)
H4 H 1.0053 0.4102 0.6452
C11 C 0.8988(4) 0.3415(5) 0.6714(3)
H5 H 0.9261 0.2868 0.6956
C12 C 0.8106(4) 0.3509(5) 0.6661(3)
H6 H 0.7776 0.3038 0.6879
C13 C 0.7719(3) 0.4304(4) 0.6283(3)
C14 C 0.8245(4) 0.4988(5) 0.5973(3)
H7 H 0.7986 0.5525 0.5715
C15 C 0.6800(4) 0.4510(4) 0.6191(3)
C16 C 0.5605(3) 0.5238(4) 0.5918(3)
C17 C 0.4974(3) 0.6007(5) 0.5627(3)
C18 C 0.5250(4) 0.6872(5) 0.5292(3)
H8 H 0.5837 0.6956 0.5270
C19 C 0.3880(4) 0.7462(5) 0.5022(3)
H9 H 0.3503 0.7952 0.4813
C20 C 0.3549(4) 0.6631(6) 0.5343(4)
H10 H 0.2958 0.6565 0.5352
C21 C 0.4094(4) 0.5889(5) 0.5653(3)
H11 H 0.3876 0.5321 0.5875
N1 N 0.9101(3) 0.4922(4) 0.6024(2)
N2 N 0.6462(3) 0.5393(4) 0.5908(2)
N3 N 0.6161(3) 0.3879(4) 0.6355(2)
N4 N 0.5385(3) 0.4337(4) 0.6183(2)
N5 N 0.4718(3) 0.7600(4) 0.4997(2)
O1 O 0.8899(2) 0.7260(3) 0.58493(19)
O2 O 0.9557(2) 0.7461(3) 0.6824(2)
O3 O 0.5885(2) 1.0544(3) 0.72229(18)
O4 O 0.6643(2) 1.1921(3) 0.6920(2)
O5 O 0.5859(2) 1.0583(3) 0.57901(18)
O6 O 0.6134(2) 0.9066(3) 0.52835(19)
H12 H 0.622(4) 0.326(3) 0.655(3)
Zn1A Zn 0.03096(4) 0.61570(5) 0.94921(3)
C1A C 0.1022(3) 0.7691(4) 0.8614(3)
C2A C 0.1650(3) 0.8561(4) 0.8488(3)
C3A C 0.1507(3) 0.9209(5) 0.7947(3)
H1A H 0.1018 0.9111 0.7665
C4A C 0.2094(4) 0.9999(5) 0.7829(3)
H2A H 0.1985 1.0436 0.7470
C5A C 0.2840(3) 1.0155(4) 0.8233(3)
C6A C 0.3488(3) 1.0960(4) 0.8033(3)
C7A C 0.2965(3) 0.9542(4) 0.8792(2)
C8A C 0.2369(3) 0.8737(4) 0.8910(3)
H3A H 0.2460 0.8319 0.9278
C9A C 0.3719(3) 0.9737(4) 0.9276(3)
C10A C 0.0543(4) 0.4149(5) 0.8601(3)
H4A H -0.0053 0.4102 0.8548
C11A C 0.1012(4) 0.3415(5) 0.8286(3)
H5A H 0.0739 0.2868 0.8044
C12A C 0.1894(4) 0.3509(5) 0.8339(3)
H6A H 0.2224 0.3038 0.8121
C13A C 0.2281(3) 0.4304(4) 0.8717(3)
C14A C 0.1755(4) 0.4988(5) 0.9027(3)
H7A H 0.2014 0.5525 0.9285
C15A C 0.3200(4) 0.4510(4) 0.8809(3)
C16A C 0.4395(3) 0.5238(4) 0.9082(3)
C17A C 0.5026(3) 0.6007(5) 0.9373(3)
C18A C 0.4750(4) 0.6872(5) 0.9708(3)
H8A H 0.4163 0.6956 0.9730
C19A C 0.6120(4) 0.7462(5) 0.9978(3)
H9A H 0.6497 0.7952 1.0187
C20A C 0.6451(4) 0.6631(6) 0.9657(4)
H10A H 0.7042 0.6565 0.9648
C21A C 0.5906(4) 0.5889(5) 0.9347(3)
H11A H 0.6124 0.5321 0.9125
N1A N 0.0899(3) 0.4922(4) 0.8976(2)
N2A N 0.3538(3) 0.5393(4) 0.9092(2)
N3A N 0.3839(3) 0.3879(4) 0.8645(2)
N4A N 0.4615(3) 0.4337(4) 0.8817(2)
N5A N 0.5282(3) 0.7600(4) 1.0003(2)
O1A O 0.1101(2) 0.7260(3) 0.91507(19)
O2A O 0.0443(2) 0.7461(3) 0.8176(2)
O3A O 0.4115(2) 1.0544(3) 0.77771(18)
O4A O 0.3357(2) 1.1921(3) 0.8080(2)
O5A O 0.4141(2) 1.0583(3) 0.92099(18)
O6A O 0.3866(2) 0.9066(3) 0.97165(19)
H12A H 0.378(4) 0.326(3) 0.845(3)
Zn1B Zn 0.46904(4) 1.11570(5) 0.55079(3)
Zn1C Zn 0.53096(4) 1.11570(5) 0.94921(3)
Zn1F Zn 0.53096(4) 0.88430(5) 0.44921(3)
Zn1G Zn 0.46904(4) 0.88430(5) 1.05079(3)
Zn2B Zn 0.0000 0.64887(6) 0.7500
Zn2B_2 Zn 1.0000 0.64887(6) 0.7500
N5F N 1.0282(3) 0.7400(4) 0.5003(2)
N5G N -0.0282(3) 0.7400(4) 0.9997(2)
O2B O 0.4557(2) 1.2461(3) 0.6824(2)
O2C O 0.5443(2) 1.2461(3) 0.8176(2)
O5B O 1.0859(2) 0.5583(3) 0.57901(18)
O5C O -0.0859(2) 0.5583(3) 0.92099(18)
O6F O 0.8866(2) 0.5934(3) 0.47165(19)
O6G O 0.1134(2) 0.5934(3) 1.02835(19)
loop_
_geom_bond_atom_site_label_1
_geom_bond_atom_site_label_2
_geom_bond_site_symmetry_1
_geom_bond_site_symmetry_2
Zn1 N1 1_555 1_555
Zn2 O3 1_555 1_555
C1 C2 1_555 1_555
C2 C3 1_555 1_555
C3 H1 1_555 1_555
C4 C3 1_555 1_555
H2 C4 1_555 1_555
C5 C4 1_555 1_555
C6 C5 1_555 1_555
C7 C5 1_555 1_555
C8 C2 1_555 1_555
H3 C8 1_555 1_555
C9 C7 1_555 1_555
C10 H4 1_555 1_555
C11 C10 1_555 1_555
H5 C11 1_555 1_555
C12 C11 1_555 1_555
H6 C12 1_555 1_555
C13 C12 1_555 1_555
C14 C13 1_555 1_555
H7 C14 1_555 1_555
C15 C13 1_555 1_555
C16 C17 1_555 1_555
C17 C18 1_555 1_555
C18 H8 1_555 1_555
C19 H9 1_555 1_555
C20 C19 1_555 1_555
H10 C20 1_555 1_555
C21 C17 1_555 1_555
H11 C21 1_555 1_555
N1 C10 1_555 1_555
N2 C15 1_555 1_555
N3 C15 1_555 1_555
N4 C16 1_555 1_555
N5 C18 1_555 1_555
O1 Zn1 1_555 1_555
O2 C1 1_555 1_555
O3 C6 1_555 1_555
O4 C6 1_555 1_555
O5 C9 1_555 1_555
O6 C9 1_555 1_555
H12 N3 1_555 1_555
Zn1A N1A 1_555 1_555
C1A C2A 1_555 1_555
C2A C3A 1_555 1_555
C3A H1A 1_555 1_555
C4A C3A 1_555 1_555
H2A C4A 1_555 1_555
C5A C4A 1_555 1_555
C6A C5A 1_555 1_555
C7A C5A 1_555 1_555
C8A C2A 1_555 1_555
H3A C8A 1_555 1_555
C9A C7A 1_555 1_555
C10A H4A 1_555 1_555
C11A C10A 1_555 1_555
H5A C11A 1_555 1_555
C12A C11A 1_555 1_555
H6A C12A 1_555 1_555
C13A C12A 1_555 1_555
C14A C13A 1_555 1_555
H7A C14A 1_555 1_555
C15A C13A 1_555 1_555
C16A C17A 1_555 1_555
C17A C18A 1_555 1_555
C18A H8A 1_555 1_555
C19A H9A 1_555 1_555
C20A C19A 1_555 1_555
H10A C20A 1_555 1_555
C21A C17A 1_555 1_555
H11A C21A 1_555 1_555
N1A C10A 1_555 1_555
N2A C15A 1_555 1_555
N3A C15A 1_555 1_555
N4A C16A 1_555 1_555
N5A C18A 1_555 1_555
O1A Zn1A 1_555 1_555
O2A C1A 1_555 1_555
O3A Zn2 1_555 1_555
O4A C6A 1_555 1_555
O5A C9A 1_555 1_555
O6A C9A 1_555 1_555
H12A N3A 1_555 1_555
Zn1B O5 1_555 1_555
Zn1C O5A 1_555 1_555
Zn1F N5 1_555 1_555
Zn1G N5A 1_555 1_555
Zn2B O2A 1_555 1_555
Zn2B_2 O2 1_555 1_555
N5F Zn1 1_555 1_555
N5G Zn1A 1_555 1_555
O2B Zn2 1_555 1_555
O2C Zn2 1_555 1_555
O5B Zn1 1_555 1_555
O5C Zn1A 1_555 1_555
O6F Zn1 1_555 1_555
O6G Zn1A 1_555 1_555
C1 O1 1_555 1_555
C7 C8 1_555 1_555
C14 N1 1_555 1_555
C16 N2 1_555 1_555
C19 N5 1_555 1_555
C20 C21 1_555 1_555
N3 N4 1_555 1_555
O6 Zn1F 1_555 1_555
C1A O1A 1_555 1_555
C6A O3A 1_555 1_555
C7A C8A 1_555 1_555
C14A N1A 1_555 1_555
C16A N2A 1_555 1_555
C19A N5A 1_555 1_555
C20A C21A 1_555 1_555
N3A N4A 1_555 1_555
O6A Zn1G 1_555 1_555

#END
