
#######################################################################
#
#                 Cambridge Crystallographic Data Centre
#                                CCDC 
#
#######################################################################
#
# If this CIF has been generated from an entry in the Cambridge 
# Structural Database, then it will include bibliographic, chemical, 
# crystal, experimental, refinement or atomic coordinate data resulting 
# from the CCDC's data processing and validation procedures.
#
#######################################################################

data_DOHPIB
_symmetry_cell_setting           triclinic
_symmetry_space_group_name_H-M   'P -1'
_symmetry_Int_Tables_number      2
_space_group_name_Hall           '-P 1'
loop_
_symmetry_equiv_pos_site_id
_symmetry_equiv_pos_as_xyz
1 x,y,z
2 -x,-y,-z
_cell_length_a                   10.246(2)
_cell_length_b                   14.057(3)
_cell_length_c                   15.526(3)
_cell_angle_alpha                109.87(3)
_cell_angle_beta                 97.37(3)
_cell_angle_gamma                93.56(3)
_cell_volume                     2072.24
loop_
_atom_site_label
_atom_site_type_symbol
_atom_site_fract_x
_atom_site_fract_y
_atom_site_fract_z
Cd1 Cd 0.62672(8) 0.48478(6) 0.37940(5)
Cd2 Cd 0.39420(8) 0.49241(6) 0.18285(5)
Cd3 Cd 0.32146(8) 0.18242(6) 0.04879(5)
Cd4 Cd 0.67439(9) 0.81688(7) 0.46141(6)
C1 C 1.2444(10) 0.5982(8) 0.4021(7)
C2 C 0.8681(11) 0.5762(9) 0.3899(7)
C3 C 0.3210(10) 0.0975(7) 0.2226(7)
C4 C -0.0941(11) 0.4169(8) 0.1499(8)
H1 H -0.0723 0.4865 0.1649
C5 C 1.0340(11) 1.2232(8) 0.3154(7)
H2 H 1.0271 1.2688 0.2839
C6 C 1.2731(10) 0.6975(7) 0.4035(7)
C7 C 0.0593(12) -0.1668(8) 0.1972(8)
H3 H 0.1286 -0.1584 0.2451
C8 C 0.4715(11) 0.8424(7) 0.1696(7)
H4 H 0.4867 0.9055 0.1635
C9 C 0.4424(10) 0.1578(7) 0.2803(6)
C10 C 0.5364(12) 0.1135(8) 0.3235(7)
H5 H 0.5189 0.0459 0.3184
C11 C 0.1480(10) 0.3963(7) 0.1511(7)
C12 C 1.0092(10) 0.6206(8) 0.3944(7)
C13 C 0.9406(12) 1.1404(9) 0.2920(8)
H6 H 0.8706 1.1292 0.2439
C14 C -0.2615(10) 0.2741(7) 0.1107(6)
C15 C 0.6774(11) 0.2682(8) 0.3759(7)
H7 H 0.7607 0.3037 0.4027
C16 C 1.1695(11) 0.7577(8) 0.4014(7)
H8 H 1.1883 0.8246 0.4048
C17 C 0.5404(10) 0.7138(7) 0.2241(7)
H9 H 0.6059 0.6895 0.2557
C18 C -0.2242(10) 0.3797(7) 0.1405(7)
C19 C 0.5649(10) 0.8098(7) 0.2222(7)
C20 C 0.3365(12) 0.6874(8) 0.1360(8)
H10 H 0.2567 0.6466 0.1085
C21 C -0.4028(11) 0.2265(8) 0.0900(7)
C22 C -0.0307(10) 0.2479(8) 0.1119(7)
H11 H 0.0340 0.2035 0.1049
C23 C 1.4129(12) 0.7481(8) 0.4227(7)
C24 C 1.0400(12) 0.7191(9) 0.3944(8)
H12 H 0.9722 0.7590 0.3896
C25 C 1.0612(10) 1.0920(7) 0.4097(6)
H13 H 1.0715 1.0472 0.4418
C26 C 0.0541(11) -0.0967(7) 0.1512(7)
C27 C -0.0372(13) -0.2481(8) 0.1723(8)
H14 H -0.0331 -0.2954 0.2021
C28 C 0.1547(10) -0.0114(7) 0.1678(7)
C29 C 0.6881(11) 0.8744(7) 0.2764(7)
C30 C 0.9512(10) 1.0728(7) 0.3410(7)
C31 C 0.8525(11) 0.9853(7) 0.3260(7)
C32 C 0.6536(11) 0.1680(8) 0.3730(7)
H15 H 0.7151 0.1396 0.4036
C33 C -0.1626(10) 0.2107(7) 0.0972(7)
H16 H -0.1856 0.1407 0.0776
C34 C -0.1399(12) -0.2579(8) 0.1023(8)
H17 H -0.2039 -0.3138 0.0844
C35 C -0.0554(10) -0.1106(7) 0.0832(6)
H18 H -0.0631 -0.0636 0.0532
C36 C 1.1363(12) 1.2379(8) 0.3848(7)
H19 H 1.1977 1.2951 0.4013
C37 C 0.3547(11) 0.7798(8) 0.1261(7)
H20 H 0.2899 0.8005 0.0907
C38 C 1.3465(11) 0.5260(8) 0.4039(8)
C39 C -0.3227(10) 0.4577(8) 0.1598(7)
C40 C 0.4695(11) 0.2596(8) 0.2935(7)
H21 H 0.4062 0.2917 0.2685
N1 N 0.5869(9) 0.3145(6) 0.3422(6)
N2 N 0.2563(8) 0.0209(6) 0.2398(6)
N3 N 0.1576(9) 0.0372(6) 0.1091(6)
N4 N 0.2656(8) 0.1090(6) 0.1447(5)
N5 N -0.1520(8) -0.1908(6) 0.0589(6)
N6 N 0.4277(9) 0.6530(6) 0.1833(6)
N7 N 0.7531(8) 0.9485(6) 0.2541(5)
N8 N 0.7441(9) 0.8689(6) 0.3559(6)
N9 N 0.8526(9) 0.9404(6) 0.3885(6)
N10 N 1.1522(8) 1.1717(6) 0.4313(6)
O1 O 0.8514(7) 0.4858(6) 0.3857(5)
O2 O 0.7736(7) 0.6312(6) 0.3918(5)
O3 O 1.3554(8) 0.4835(5) 0.4620(5)
O4 O 1.4168(7) 0.5069(5) 0.3384(4)
O5 O 1.5066(7) 0.7065(6) 0.4529(5)
O6 O 1.4332(7) 0.8310(5) 0.4108(6)
O7 O 0.2392(7) 0.3396(5) 0.1502(5)
O8 O 0.1686(8) 0.4895(5) 0.1642(5)
O9 O -0.4032(7) 0.4546(5) 0.2153(5)
O10 O -0.3206(9) 0.5209(6) 0.1203(6)
O11 O -0.4907(7) 0.2751(5) 0.0617(5)
O12 O -0.4318(8) 0.1457(5) 0.0983(6)
O13 O 0.3926(10) 0.4247(8) 0.0243(6)
H22 H 0.4637 0.3964 0.0126
H23 H 0.3885 0.4723 0.0011
C41 C 0.0058(10) 0.3535(7) 0.1376(7)
C42 C 1.1115(12) 0.5605(9) 0.3979(7)
H24 H 1.0922 0.4948 0.3975
O14 O 0.3314(7) 0.0342(5) -0.0768(5)
H25 H 0.2938 0.0403 -0.1265
H26 H 0.2920 -0.0163 -0.0687
O15 O 0.6699(9) 0.9836(5) 0.5752(5)
H27 H 0.7129 0.9870 0.6270
H28 H 0.5902 0.9938 0.5813
Cd1_2 Cd -0.37328(8) 0.48478(6) 0.37940(5)
Cd1_3 Cd 1.62672(8) 0.48478(6) 0.37940(5)
Cd1A Cd 1.37328(8) 0.51522(6) 0.62060(5)
Cd2_2 Cd -0.60580(8) 0.49241(6) 0.18285(5)
Cd2_3 Cd 1.39420(8) 0.49241(6) 0.18285(5)
Cd3_2 Cd -0.67854(8) 0.18242(6) 0.04879(5)
Cd3A Cd -0.32146(8) -0.18242(6) -0.04879(5)
Cd4_2 Cd 1.67439(9) 0.81688(7) 0.46141(6)
Cd4A Cd 1.32561(9) 1.18312(7) 0.53859(6)
N5A N 0.1520(8) 0.1908(6) -0.0589(6)
N10A N 0.8478(8) 0.8283(6) 0.5687(6)
O3A O 0.6446(8) 0.5165(5) 0.5380(5)
O4_2 O 0.4168(7) 0.5069(5) 0.3384(4)
O5_2 O 0.5066(7) 0.7065(6) 0.4529(5)
O6_2 O 0.4332(7) 0.8310(5) 0.4108(6)
O9_2 O 0.5968(7) 0.4546(5) 0.2153(5)
O11_2 O 0.5093(7) 0.2751(5) 0.0617(5)
O12_2 O 0.5682(8) 0.1457(5) 0.0983(6)
loop_
_geom_bond_atom_site_label_1
_geom_bond_atom_site_label_2
_geom_bond_site_symmetry_1
_geom_bond_site_symmetry_2
Cd1 N1 1_555 1_555
Cd2 N6 1_555 1_555
Cd3 N4 1_555 1_555
Cd4 N8 1_555 1_555
C1 C6 1_555 1_555
C2 C12 1_555 1_555
C3 C9 1_555 1_555
C4 H1 1_555 1_555
C5 H2 1_555 1_555
C6 C16 1_555 1_555
C7 H3 1_555 1_555
C8 H4 1_555 1_555
C9 C10 1_555 1_555
C10 H5 1_555 1_555
C11 O7 1_555 1_555
C12 C24 1_555 1_555
C13 C5 1_555 1_555
H6 C13 1_555 1_555
C14 C18 1_555 1_555
C15 H7 1_555 1_555
C16 H8 1_555 1_555
C17 H9 1_555 1_555
C18 C4 1_555 1_555
C19 C8 1_555 1_555
C20 H10 1_555 1_555
C21 C14 1_555 1_555
C22 H11 1_555 1_555
C23 C6 1_555 1_555
C24 C16 1_555 1_555
H12 C24 1_555 1_555
C25 H13 1_555 1_555
C26 C7 1_555 1_555
C27 C7 1_555 1_555
H14 C27 1_555 1_555
C28 C26 1_555 1_555
C29 C19 1_555 1_555
C30 C13 1_555 1_555
C31 C30 1_555 1_555
C32 C10 1_555 1_555
H15 C32 1_555 1_555
C33 C14 1_555 1_555
H16 C33 1_555 1_555
C34 C27 1_555 1_555
H17 C34 1_555 1_555
C35 C26 1_555 1_555
H18 C35 1_555 1_555
C36 C5 1_555 1_555
H19 C36 1_555 1_555
C37 C8 1_555 1_555
H20 C37 1_555 1_555
C38 C1 1_555 1_555
C39 C18 1_555 1_555
C40 C9 1_555 1_555
H21 C40 1_555 1_555
N1 C15 1_555 1_555
N2 C3 1_555 1_555
N3 C28 1_555 1_555
N4 C3 1_555 1_555
N5 C34 1_555 1_555
N6 C17 1_555 1_555
N7 C29 1_555 1_555
N8 C29 1_555 1_555
N9 C31 1_555 1_555
N10 C25 1_555 1_555
O1 Cd1 1_555 1_555
O2 Cd1 1_555 1_555
O3 C38 1_555 1_555
O4 C38 1_555 1_555
O5 C23 1_555 1_555
O6 C23 1_555 1_555
O7 Cd2 1_555 1_555
O8 Cd2 1_555 1_555
O9 C39 1_555 1_555
O10 C39 1_555 1_555
O11 C21 1_555 1_555
O12 C21 1_555 1_555
O13 Cd2 1_555 1_555
H22 O13 1_555 1_555
H23 O13 1_555 1_555
C41 C4 1_555 1_555
C42 C1 1_555 1_555
H24 C42 1_555 1_555
O14 Cd3 1_555 1_555
H25 O14 1_555 1_555
H26 O14 1_555 1_555
O15 Cd4 1_555 1_555
H27 O15 1_555 1_555
H28 O15 1_555 1_555
Cd1_2 O9 1_555 1_555
Cd1_3 O4 1_555 1_555
Cd1A O3 1_555 1_555
Cd2_2 O9 1_555 1_555
Cd2_3 O4 1_555 1_555
Cd3_2 O11 1_555 1_555
Cd3A N5 1_555 1_555
Cd4_2 O5 1_555 1_555
Cd4A N10 1_555 1_555
N5A Cd3 1_555 1_555
N10A Cd4 1_555 1_555
O3A Cd1 1_555 1_555
O4_2 Cd1 1_555 1_555
O5_2 Cd4 1_555 1_555
O6_2 Cd4 1_555 1_555
O9_2 Cd1 1_555 1_555
O11_2 Cd3 1_555 1_555
O12_2 Cd3 1_555 1_555
Cd2 O4_2 1_555 1_555
Cd2 O9_2 1_555 1_555
Cd3 O7 1_555 1_555
Cd4 O2 1_555 1_555
C2 O1 1_555 1_555
C2 O2 1_555 1_555
C11 O8 1_555 1_555
C11 C41 1_555 1_555
C12 C42 1_555 1_555
C15 C32 1_555 1_555
C17 C19 1_555 1_555
C20 C37 1_555 1_555
C20 N6 1_555 1_555
C22 C33 1_555 1_555
C22 C41 1_555 1_555
C25 C30 1_555 1_555
C28 N2 1_555 1_555
C31 N7 1_555 1_555
C35 N5 1_555 1_555
C36 N10 1_555 1_555
C40 N1 1_555 1_555
N3 N4 1_555 1_555
N8 N9 1_555 1_555
O6 Cd4_2 1_555 1_555
O12 Cd3_2 1_555 1_555

#END
