
#######################################################################
#
#                 Cambridge Crystallographic Data Centre
#                                CCDC 
#
#######################################################################
#
# If this CIF has been generated from an entry in the Cambridge 
# Structural Database, then it will include bibliographic, chemical, 
# crystal, experimental, refinement or atomic coordinate data resulting 
# from the CCDC's data processing and validation procedures.
#
#######################################################################

data_DOHQOH
_symmetry_cell_setting           triclinic
_symmetry_space_group_name_H-M   'P -1'
_symmetry_Int_Tables_number      2
_space_group_name_Hall           '-P 1'
loop_
_symmetry_equiv_pos_site_id
_symmetry_equiv_pos_as_xyz
1 x,y,z
2 -x,-y,-z
_cell_length_a                   5.678(6)
_cell_length_b                   11.437(12)
_cell_length_c                   11.623(12)
_cell_angle_alpha                71.699(12)
_cell_angle_beta                 85.635(13)
_cell_angle_gamma                77.478(13)
_cell_volume                     699.54
loop_
_atom_site_label
_atom_site_type_symbol
_atom_site_fract_x
_atom_site_fract_y
_atom_site_fract_z
Co1 Co 0.5000 0.5000 0.5000
N1 N 1.1697(10) -0.0286(5) 0.7780(5)
N2 N 0.5033(8) 0.3139(4) 0.4903(4)
O1 O 0.7414(7) 0.4194(3) 0.6478(3)
O2 O 0.4838(8) 0.3916(5) 0.8039(4)
O3 O 0.1981(7) 0.4937(4) 0.6152(4)
H1 H 0.0713 0.4637 0.6226
H2 H 0.2666 0.4644 0.6838
S1 S 0.7544(3) 0.03659(16) 0.87863(17)
S2 S 1.1353(3) 0.20131(16) 0.78659(16)
C1 C 0.6871(11) 0.3755(5) 0.7582(5)
C2 C 0.8948(12) 0.2995(6) 0.8440(5)
H3 H 0.8282 0.2464 0.9158
H4 H 0.9640 0.3578 0.8693
C3 C 1.0311(11) 0.0627(6) 0.8102(5)
C4 C 1.0589(12) -0.1334(6) 0.8133(5)
C5 C 0.8295(12) -0.1157(6) 0.8690(5)
C6 C 0.7069(13) -0.2122(6) 0.9116(6)
H5 H 0.5576 -0.1995 0.9496
C7 C 0.8060(14) -0.3264(7) 0.8978(6)
H6 H 0.7231 -0.3919 0.9249
C8 C 1.0317(15) -0.3450(7) 0.8430(7)
H7 H 1.0997 -0.4241 0.8360
C9 C 1.1563(12) -0.2497(6) 0.7991(6)
H8 H 1.3044 -0.2632 0.7603
C10 C 0.6839(11) 0.2182(5) 0.5382(5)
H9 H 0.8137 0.2353 0.5698
C11 C 0.6896(11) 0.0961(5) 0.5437(6)
H10 H 0.8201 0.0333 0.5792
C12 C 0.5034(9) 0.0660(5) 0.4971(5)
C13 C 0.3184(11) 0.1649(6) 0.4437(6)
H11 H 0.1896 0.1501 0.4092
C14 C 0.3249(11) 0.2860(6) 0.4415(6)
H12 H 0.1991 0.3510 0.4044
Co1_2 Co 0.5000 -0.5000 0.5000
N1A N -0.1697(10) 1.0286(5) 0.2220(5)
N2A N 0.4967(8) -0.3139(4) 0.5097(4)
N2A_2 N 0.4967(8) 0.6861(4) 0.5097(4)
O1A O 0.2586(7) 0.5806(3) 0.3522(3)
O2A O 0.5162(8) 0.6084(5) 0.1961(4)
O3A O 0.8019(7) 0.5063(4) 0.3848(4)
H1A H 0.9287 0.5363 0.3774
H2A H 0.7334 0.5356 0.3162
S1A S 0.2456(3) 0.96341(16) 0.12137(17)
S2A S -0.1353(3) 0.79869(16) 0.21341(16)
C1A C 0.3129(11) 0.6245(5) 0.2418(5)
C2A C 0.1052(12) 0.7005(6) 0.1560(5)
H3A H 0.1718 0.7536 0.0842
H4A H 0.0360 0.6422 0.1307
C3A C -0.0311(11) 0.9373(6) 0.1898(5)
C4A C -0.0589(12) 1.1334(6) 0.1867(5)
C5A C 0.1705(12) 1.1157(6) 0.1310(5)
C6A C 0.2931(13) 1.2122(6) 0.0884(6)
H5A H 0.4424 1.1995 0.0504
C7A C 0.1940(14) 1.3264(7) 0.1022(6)
H6A H 0.2769 1.3919 0.0751
C8A C -0.0317(15) 1.3450(7) 0.1570(7)
H7A H -0.0997 1.4241 0.1640
C9A C -0.1563(12) 1.2497(6) 0.2009(6)
H8A H -0.3044 1.2632 0.2397
C10A C 0.3161(11) -0.2182(5) 0.4618(5)
H9A H 0.1863 -0.2353 0.4302
C11A C 0.3104(11) -0.0961(5) 0.4563(6)
H10A H 0.1799 -0.0333 0.4208
C12A C 0.4966(9) -0.0660(5) 0.5029(5)
C13A C 0.6816(11) -0.1649(6) 0.5563(6)
H11A H 0.8104 -0.1501 0.5908
C14A C 0.6751(11) -0.2860(6) 0.5585(6)
H12A H 0.8009 -0.3510 0.5956
loop_
_geom_bond_atom_site_label_1
_geom_bond_atom_site_label_2
_geom_bond_site_symmetry_1
_geom_bond_site_symmetry_2
Co1 N2 1_555 1_555
N1 C3 1_555 1_555
N2 C10 1_555 1_555
O1 Co1 1_555 1_555
O2 C1 1_555 1_555
O3 Co1 1_555 1_555
H1 O3 1_555 1_555
H2 O3 1_555 1_555
S1 C3 1_555 1_555
S2 C2 1_555 1_555
C1 O1 1_555 1_555
C2 C1 1_555 1_555
H3 C2 1_555 1_555
H4 C2 1_555 1_555
C3 S2 1_555 1_555
C4 N1 1_555 1_555
C5 S1 1_555 1_555
C6 C5 1_555 1_555
H5 C6 1_555 1_555
C7 C6 1_555 1_555
H6 C7 1_555 1_555
C8 C7 1_555 1_555
H7 C8 1_555 1_555
C9 C4 1_555 1_555
H8 C9 1_555 1_555
C10 H9 1_555 1_555
C11 C10 1_555 1_555
H10 C11 1_555 1_555
C12 C11 1_555 1_555
C13 C12 1_555 1_555
H11 C13 1_555 1_555
C14 N2 1_555 1_555
H12 C14 1_555 1_555
Co1_2 N2A 1_555 1_555
N1A C3A 1_555 1_555
N2A C10A 1_555 1_555
N2A_2 Co1 1_555 1_555
O1A Co1 1_555 1_555
O2A C1A 1_555 1_555
O3A Co1 1_555 1_555
H1A O3A 1_555 1_555
H2A O3A 1_555 1_555
S1A C3A 1_555 1_555
S2A C2A 1_555 1_555
C1A O1A 1_555 1_555
C2A C1A 1_555 1_555
H3A C2A 1_555 1_555
H4A C2A 1_555 1_555
C3A S2A 1_555 1_555
C4A N1A 1_555 1_555
C5A S1A 1_555 1_555
C6A C5A 1_555 1_555
H5A C6A 1_555 1_555
C7A C6A 1_555 1_555
H6A C7A 1_555 1_555
C8A C7A 1_555 1_555
H7A C8A 1_555 1_555
C9A C4A 1_555 1_555
H8A C9A 1_555 1_555
C10A H9A 1_555 1_555
C11A C10A 1_555 1_555
H10A C11A 1_555 1_555
C12A C12 1_555 1_555
C13A C12A 1_555 1_555
H11A C13A 1_555 1_555
C14A N2A 1_555 1_555
H12A C14A 1_555 1_555
C4 C5 1_555 1_555
C8 C9 1_555 1_555
C13 C14 1_555 1_555
C4A C5A 1_555 1_555
C8A C9A 1_555 1_555
C11A C12A 1_555 1_555
C13A C14A 1_555 1_555

#END
