
#######################################################################
#
#                 Cambridge Crystallographic Data Centre
#                                CCDC 
#
#######################################################################
#
# If this CIF has been generated from an entry in the Cambridge 
# Structural Database, then it will include bibliographic, chemical, 
# crystal, experimental, refinement or atomic coordinate data resulting 
# from the CCDC's data processing and validation procedures.
#
#######################################################################

data_DOHRAU
_symmetry_cell_setting           triclinic
_symmetry_space_group_name_H-M   'P -1'
_symmetry_Int_Tables_number      2
_space_group_name_Hall           '-P 1'
loop_
_symmetry_equiv_pos_site_id
_symmetry_equiv_pos_as_xyz
1 x,y,z
2 -x,-y,-z
_cell_length_a                   10.822(3)
_cell_length_b                   11.061(3)
_cell_length_c                   12.269(4)
_cell_angle_alpha                112.081(3)
_cell_angle_beta                 98.364(3)
_cell_angle_gamma                90.700(3)
_cell_volume                     1342.84
loop_
_atom_site_label
_atom_site_type_symbol
_atom_site_fract_x
_atom_site_fract_y
_atom_site_fract_z
Cu1 Cu 0.25033(4) 1.75525(4) 1.50004(4)
N1 N 0.0988(3) 1.2192(3) 1.1132(3)
N2 N 0.3981(3) 1.5421(3) 1.8822(3)
N3 N 0.2495(3) 1.5748(2) 1.4998(2)
N4 N 0.2500(3) 0.9343(2) 1.5000(2)
O1 O 0.1821(2) 1.6783(2) 1.32860(18)
O2 O 0.3854(2) 1.6757(2) 1.3308(2)
O3 O 0.3193(2) 1.8234(2) 1.67100(18)
O4 O 0.1152(2) 1.8200(3) 1.6706(2)
S1 S 0.33082(9) 1.31221(9) 1.18948(9)
S2 S 0.12001(9) 1.44725(9) 1.09310(8)
S3 S 0.16739(9) 1.57014(10) 1.80565(9)
S4 S 0.38101(9) 1.78856(9) 1.90587(8)
C1 C 0.2773(3) 1.6452(3) 1.2779(3)
C2 C 0.2549(4) 1.5640(3) 1.1453(3)
H1 H 0.3287 1.5170 1.1249
H2 H 0.2451 1.6227 1.1030
C3 C 0.1743(3) 1.3194(3) 1.1317(3)
C4 C 0.1635(3) 1.1258(3) 1.1440(3)
C5 C 0.2913(3) 1.1587(3) 1.1875(3)
C6 C 0.3679(4) 1.0729(4) 1.2203(3)
H3 H 0.4528 1.0954 1.2490
C7 C 0.3147(4) 0.9551(4) 1.2092(4)
H4 H 0.3639 0.8966 1.2304
C8 C 0.1879(4) 0.9221(4) 1.1665(4)
H5 H 0.1538 0.8415 1.1599
C9 C 0.1114(4) 1.0047(4) 1.1338(3)
H6 H 0.0266 0.9809 1.1054
C10 C 0.2239(3) 1.8321(3) 1.7224(3)
C11 C 0.2471(4) 1.8601(3) 1.8552(3)
H7 H 0.1732 1.8285 1.8755
H8 H 0.2576 1.9542 1.8984
C12 C 0.3243(3) 1.6261(3) 1.8644(3)
C13 C 0.3317(3) 1.4227(3) 1.8509(3)
C14 C 0.2048(3) 1.4184(3) 1.8063(3)
C15 C 0.1263(4) 1.3056(4) 1.7740(3)
H9 H 0.0418 1.3034 1.7444
C16 C 0.1766(4) 1.1981(4) 1.7868(3)
H10 H 0.1258 1.1218 1.7656
C17 C 0.3031(4) 1.2014(4) 1.8313(4)
H11 H 0.3354 1.1272 1.8395
C18 C 0.3810(4) 1.3122(4) 1.8633(3)
H12 H 0.4654 1.3133 1.8927
C19 C 0.3468(3) 1.5370(3) 1.5576(3)
H13 H 0.4146 1.5972 1.5988
C20 C 0.3505(3) 1.4129(3) 1.5587(3)
H14 H 0.4204 1.3907 1.5991
C21 C 0.2503(3) 1.3212(3) 1.4996(3)
C22 C 0.1495(3) 1.3616(3) 1.4397(3)
H15 H 0.0800 1.3039 1.3983
C23 C 0.1535(3) 1.4866(3) 1.4421(3)
H16 H 0.0856 1.5110 1.4012
C24 C 0.1496(3) 0.9756(3) 1.4510(3)
H17 H 0.0791 0.9176 1.4156
C25 C 0.1451(3) 1.0995(3) 1.4501(3)
H18 H 0.0721 1.1245 1.4167
C26 C 0.2500(3) 1.1868(3) 1.4993(3)
C27 C 0.3554(3) 1.1434(3) 1.5488(3)
H19 H 0.4284 1.1980 1.5820
C28 C 0.3506(3) 1.0191(3) 1.5482(3)
H20 H 0.4214 0.9924 1.5833
Cu1_2 Cu 0.25033(4) 0.75525(4) 1.50004(4)
N4_2 N 0.2500(3) 1.9343(2) 1.5000(2)
loop_
_geom_bond_atom_site_label_1
_geom_bond_atom_site_label_2
_geom_bond_site_symmetry_1
_geom_bond_site_symmetry_2
Cu1 N3 1_555 1_555
N1 C3 1_555 1_555
N2 C12 1_555 1_555
N3 C19 1_555 1_555
N4 C24 1_555 1_555
O1 Cu1 1_555 1_555
O2 C1 1_555 1_555
O3 Cu1 1_555 1_555
O4 C10 1_555 1_555
S1 C3 1_555 1_555
S2 C2 1_555 1_555
S3 C12 1_555 1_555
S4 C11 1_555 1_555
C1 O1 1_555 1_555
C2 C1 1_555 1_555
H1 C2 1_555 1_555
H2 C2 1_555 1_555
C3 S2 1_555 1_555
C4 N1 1_555 1_555
C5 S1 1_555 1_555
C6 C5 1_555 1_555
H3 C6 1_555 1_555
C7 C6 1_555 1_555
H4 C7 1_555 1_555
C8 C7 1_555 1_555
H5 C8 1_555 1_555
C9 C4 1_555 1_555
H6 C9 1_555 1_555
C10 O3 1_555 1_555
C11 C10 1_555 1_555
H7 C11 1_555 1_555
H8 C11 1_555 1_555
C12 S4 1_555 1_555
C13 N2 1_555 1_555
C14 S3 1_555 1_555
C15 C14 1_555 1_555
H9 C15 1_555 1_555
C16 C15 1_555 1_555
H10 C16 1_555 1_555
C17 C16 1_555 1_555
H11 C17 1_555 1_555
C18 C13 1_555 1_555
H12 C18 1_555 1_555
C19 H13 1_555 1_555
C20 C19 1_555 1_555
H14 C20 1_555 1_555
C21 C20 1_555 1_555
C22 C21 1_555 1_555
H15 C22 1_555 1_555
C23 N3 1_555 1_555
H16 C23 1_555 1_555
C24 H17 1_555 1_555
C25 C24 1_555 1_555
H18 C25 1_555 1_555
C26 C21 1_555 1_555
C27 C26 1_555 1_555
H19 C27 1_555 1_555
C28 N4 1_555 1_555
H20 C28 1_555 1_555
Cu1_2 N4 1_555 1_555
N4_2 Cu1 1_555 1_555
C4 C5 1_555 1_555
C8 C9 1_555 1_555
C13 C14 1_555 1_555
C17 C18 1_555 1_555
C22 C23 1_555 1_555
C25 C26 1_555 1_555
C27 C28 1_555 1_555

#END
