
#######################################################################
#
#                 Cambridge Crystallographic Data Centre
#                                CCDC 
#
#######################################################################
#
# If this CIF has been generated from an entry in the Cambridge 
# Structural Database, then it will include bibliographic, chemical, 
# crystal, experimental, refinement or atomic coordinate data resulting 
# from the CCDC's data processing and validation procedures.
#
#######################################################################

data_DOHXOP
_symmetry_cell_setting           monoclinic
_symmetry_space_group_name_H-M   'P 21/n'
_symmetry_Int_Tables_number      14
_space_group_name_Hall           '-P 2yn'
loop_
_symmetry_equiv_pos_site_id
_symmetry_equiv_pos_as_xyz
1 x,y,z
2 1/2-x,1/2+y,1/2-z
3 -x,-y,-z
4 1/2+x,1/2-y,1/2+z
_cell_length_a                   13.819(4)
_cell_length_b                   13.641(4)
_cell_length_c                   27.456(7)
_cell_angle_alpha                90
_cell_angle_beta                 91.330(5)
_cell_angle_gamma                90
_cell_volume                     5174.2
loop_
_atom_site_label
_atom_site_type_symbol
_atom_site_fract_x
_atom_site_fract_y
_atom_site_fract_z
Si1 Si 0.0000 0.0000 0.0000
W1 W 0.11140(4) -0.08763(4) -0.10639(2)
W2 W 0.16852(4) -0.19297(5) 0.008225(19)
W3 W 0.04948(4) -0.11311(5) 0.11342(2)
W4 W 0.13794(4) 0.12483(5) 0.09058(2)
W5 W 0.07804(5) 0.24298(4) -0.02091(2)
W6 W 0.24601(4) 0.04814(5) -0.018738(19)
O1 O 0.1633(8) -0.1261(9) -0.1578(4)
O2 O 0.0087(9) 0.1457(9) 0.1129(7)
O3 O 0.0547(8) 0.0316(10) -0.1286(8)
O4 O 0.2098(12) -0.0027(10) -0.0804(4)
O5 O 0.1522(12) -0.1818(10) -0.0616(4)
O6 O 0.2505(9) -0.2827(9) 0.0115(4)
O7 O 0.0516(9) -0.2659(13) 0.0061(4)
O8 O 0.1504(8) -0.1694(13) 0.0745(4)
O9 O 0.2502(13) -0.0845(11) 0.0062(4)
O10 O -0.0345(8) -0.2040(13) 0.0857(4)
O11 O 0.0742(8) -0.1629(9) 0.1681(3)
O12 O 0.1318(8) -0.0015(10) 0.1159(8)
O13 O 0.2011(8) 0.1819(9) 0.1338(4)
O14 O 0.2354(10) 0.0822(11) 0.0487(4)
O15 O 0.1083(10) 0.2283(11) 0.0451(4)
O16 O 0.1195(11) 0.3559(9) -0.0303(5)
O17 O 0.3631(8) 0.0713(12) -0.0266(4)
O18 O 0.1905(11) 0.1674(12) -0.0353(4)
O19 O -0.1004(10) 0.0421(11) 0.0198(5)
O20 O -0.0163(10) -0.0193(12) -0.0609(5)
O21 O 0.0846(11) 0.0747(13) 0.0074(5)
O22 O 0.0260(10) -0.1042(13) 0.0246(6)
O19B O 0.1004(10) -0.0421(11) -0.0198(5)
O20B O 0.0163(10) 0.0193(12) 0.0609(5)
O21B O -0.0846(11) -0.0747(13) -0.0074(5)
O22B O -0.0260(10) 0.1042(13) -0.0246(6)
W1B W -0.11140(4) 0.08763(4) 0.10639(2)
W2B W -0.16852(4) 0.19297(5) -0.008225(19)
W3B W -0.04948(4) 0.11311(5) -0.11342(2)
W4B W -0.13794(4) -0.12483(5) -0.09058(2)
W5B W -0.07804(5) -0.24298(4) 0.02091(2)
W6B W -0.24601(4) -0.04814(5) 0.018738(19)
O1B O -0.1633(8) 0.1261(9) 0.1578(4)
O2B O -0.0087(9) -0.1457(9) -0.1129(7)
O3B O -0.0547(8) -0.0316(10) 0.1286(8)
O4B O -0.2098(12) 0.0027(10) 0.0804(4)
O5B O -0.1522(12) 0.1818(10) 0.0616(4)
O6B O -0.2505(9) 0.2827(9) -0.0115(4)
O7B O -0.0516(9) 0.2659(13) -0.0061(4)
O8B O -0.1504(8) 0.1694(13) -0.0745(4)
O9B O -0.2502(13) 0.0845(11) -0.0062(4)
O10B O 0.0345(8) 0.2040(13) -0.0857(4)
O11B O -0.0742(8) 0.1629(9) -0.1681(3)
O12B O -0.1318(8) 0.0015(10) -0.1159(8)
O13B O -0.2011(8) -0.1819(9) -0.1338(4)
O14B O -0.2354(10) -0.0822(11) -0.0487(4)
O15B O -0.1083(10) -0.2283(11) -0.0451(4)
O16B O -0.1195(11) -0.3559(9) 0.0303(5)
O17B O -0.3631(8) -0.0713(12) 0.0266(4)
O18B O -0.1905(11) -0.1674(12) 0.0353(4)
O23 O 1.0645(19) 0.108(2) -0.2490(10)
O24 O 0.238(2) 0.094(2) -0.1860(11)
Ag1 Ag 0.02860(8) 0.13615(11) 0.38912(4)
Ag2 Ag 0.54168(8) 0.15573(12) -0.02400(4)
Ag3 Ag 0.06472(8) 0.06611(12) -0.44195(4)
Cl1 Cl -0.0174(3) 0.1270(3) 0.47637(12)
C1 C 0.2509(10) 0.1349(11) 0.3764(5)
H1 H 0.2486 0.1313 0.4102
C2 C 0.3407(10) 0.1329(11) 0.3552(5)
H2 H 0.3970 0.1280 0.3743
C3 C 0.3450(9) 0.1385(10) 0.3046(5)
C4 C 0.2582(10) 0.1459(12) 0.2778(5)
H3 H 0.2576 0.1491 0.2439
C5 C 0.1731(11) 0.1483(13) 0.3033(6)
H4 H 0.1154 0.1552 0.2855
C6 C 0.8682(11) 0.1315(16) 0.3049(5)
H5 H 0.9241 0.1277 0.2868
C7 C 0.7798(11) 0.1286(15) 0.2801(5)
H6 H 0.7766 0.1191 0.2466
C8 C 0.6962(8) 0.1401(12) 0.3065(4)
C9 C 0.7053(10) 0.1496(12) 0.3556(5)
H7 H 0.6500 0.1543 0.3742
C10 C 0.7959(10) 0.1525(12) 0.3785(4)
H8 H 0.8003 0.1637 0.4119
C11 C 0.4454(9) 0.1606(15) 0.0769(5)
H9 H 0.3889 0.1608 0.0578
C12 C 0.4371(11) 0.1554(14) 0.1262(5)
H10 H 0.3765 0.1523 0.1401
C13 C 0.5206(8) 0.1546(11) 0.1554(5)
C14 C 0.6068(9) 0.1638(15) 0.1324(5)
H11 H 0.6644 0.1653 0.1506
C15 C 0.6085(11) 0.1707(16) 0.0819(5)
H12 H 0.6676 0.1793 0.0670
C16 C 0.4386(9) 0.1383(10) 0.2793(4)
C17 C 0.6006(9) 0.1394(12) 0.2799(5)
C18 C 0.5181(9) 0.1472(11) 0.2085(5)
C19 C 0.6387(9) 0.1047(12) -0.1232(4)
H13 H 0.6944 0.0939 -0.1043
C20 C 0.6463(9) 0.1050(12) -0.1725(4)
H14 H 0.7069 0.1011 -0.1864
C21 C 0.5633(10) 0.1112(11) -0.2022(5)
C22 C 0.4743(10) 0.1236(13) -0.1789(5)
H15 H 0.4168 0.1297 -0.1969
C23 C 0.4750(10) 0.1264(13) -0.1287(5)
H16 H 0.4159 0.1337 -0.1135
C24 C 0.8345(10) 0.0899(11) -0.4231(5)
H17 H 0.8354 0.0859 -0.4569
C25 C 0.7461(9) 0.0983(11) -0.4006(5)
H18 H 0.6892 0.0994 -0.4193
C26 C 0.7425(9) 0.1049(9) -0.3511(4)
C27 C 0.8296(9) 0.1032(11) -0.3240(5)
H19 H 0.8300 0.1067 -0.2902
C28 C 0.9149(11) 0.0963(13) -0.3491(5)
H20 H 0.9727 0.0981 -0.3311
C29 C 0.2184(10) 0.1090(14) -0.3583(6)
H21 H 0.1615 0.1199 -0.3418
C30 C 0.3053(10) 0.1185(14) -0.3334(5)
H22 H 0.3061 0.1357 -0.3006
C31 C 0.3906(9) 0.1031(11) -0.3565(5)
C32 C 0.3851(10) 0.0786(12) -0.4062(5)
H23 H 0.4413 0.0685 -0.4235
C33 C 0.2979(10) 0.0699(11) -0.4285(5)
H24 H 0.2958 0.0532 -0.4614
C34 C 0.4855(9) 0.1058(10) -0.3289(4)
C35 C 0.5645(9) 0.1109(10) -0.2558(4)
C36 C 0.6491(9) 0.1084(10) -0.3258(4)
N1 N 0.1678(9) 0.1415(9) 0.3514(4)
N2 N 0.8778(8) 0.1395(11) 0.3535(4)
N3 N 0.5297(9) 0.1655(11) 0.0546(4)
N4 N 0.4335(8) 0.1478(9) 0.2306(4)
N5 N 0.5207(8) 0.1352(9) 0.3063(4)
N6 N 0.6033(7) 0.1426(11) 0.2323(4)
N7 N 0.5543(9) 0.1193(10) -0.1005(4)
N8 N 0.9202(8) 0.0872(10) -0.3973(4)
N9 N 0.2124(8) 0.0843(10) -0.4058(4)
N10 N 0.4800(8) 0.1098(9) -0.2803(4)
N11 N 0.6516(7) 0.1106(8) -0.2774(4)
N12 N 0.5673(7) 0.1064(9) -0.3533(3)
Ag1_2 Ag 1.02860(8) 0.13615(11) 0.38912(4)
Ag3_2 Ag 0.06472(8) 0.06611(12) 0.55805(4)
Ag3_3 Ag 1.06472(8) 0.06611(12) -0.44195(4)
Ag3B Ag -0.06472(8) -0.06611(12) 0.44195(4)
Cl1_2 Cl -0.0174(3) 0.1270(3) -0.52363(12)
Cl1B Cl 0.0174(3) -0.1270(3) -0.47637(12)
N2_2 N -0.1222(8) 0.1395(11) 0.3535(4)
N8_2 N -0.0798(8) 0.0872(10) -0.3973(4)
loop_
_geom_bond_atom_site_label_1
_geom_bond_atom_site_label_2
_geom_bond_site_symmetry_1
_geom_bond_site_symmetry_2
Ag1 Cl1 1_555 1_555
Ag2 N3 1_555 1_555
Ag3 N9 1_555 1_555
Cl1 Ag3_2 1_555 1_555
C1 H1 1_555 1_555
C2 C1 1_555 1_555
H2 C2 1_555 1_555
C3 C2 1_555 1_555
C4 C3 1_555 1_555
H3 C4 1_555 1_555
C5 C4 1_555 1_555
H4 C5 1_555 1_555
C6 H5 1_555 1_555
C7 C6 1_555 1_555
H6 C7 1_555 1_555
C8 C7 1_555 1_555
C9 C8 1_555 1_555
H7 C9 1_555 1_555
C10 C9 1_555 1_555
H8 C10 1_555 1_555
C11 H9 1_555 1_555
C12 C11 1_555 1_555
H10 C12 1_555 1_555
C13 C12 1_555 1_555
C14 C13 1_555 1_555
H11 C14 1_555 1_555
C15 C14 1_555 1_555
H12 C15 1_555 1_555
C16 C3 1_555 1_555
C17 C8 1_555 1_555
C18 C13 1_555 1_555
C19 H13 1_555 1_555
C20 C19 1_555 1_555
H14 C20 1_555 1_555
C21 C20 1_555 1_555
C22 C21 1_555 1_555
H15 C22 1_555 1_555
C23 C22 1_555 1_555
H16 C23 1_555 1_555
C24 H17 1_555 1_555
C25 C24 1_555 1_555
H18 C25 1_555 1_555
C26 C25 1_555 1_555
C27 C26 1_555 1_555
H19 C27 1_555 1_555
C28 C27 1_555 1_555
H20 C28 1_555 1_555
C29 H21 1_555 1_555
C30 C29 1_555 1_555
H22 C30 1_555 1_555
C31 C30 1_555 1_555
C32 C31 1_555 1_555
H23 C32 1_555 1_555
C33 C32 1_555 1_555
H24 C33 1_555 1_555
C34 C31 1_555 1_555
C35 C21 1_555 1_555
C36 C26 1_555 1_555
N1 Ag1 1_555 1_555
N2 C6 1_555 1_555
N3 C11 1_555 1_555
N4 C16 1_555 1_555
N5 C16 1_555 1_555
N6 C17 1_555 1_555
N7 Ag2 1_555 1_555
N8 C24 1_555 1_555
N9 C29 1_555 1_555
N10 C34 1_555 1_555
N11 C35 1_555 1_555
N12 C34 1_555 1_555
Si1 O19 1_555 1_555
W1 O1 1_555 1_555
W2 O5 1_555 1_555
W3 O8 1_555 1_555
W4 O2 1_555 1_555
W5 O15 1_555 1_555
W6 O4 1_555 1_555
O2 W1B 1_555 1_555
O3 W1 1_555 1_555
O4 W1 1_555 1_555
O5 W1 1_555 1_555
O6 W2 1_555 1_555
O7 W2 1_555 1_555
O8 W2 1_555 1_555
O9 W2 1_555 1_555
O10 W3 1_555 1_555
O11 W3 1_555 1_555
O12 W3 1_555 1_555
O13 W4 1_555 1_555
O14 W4 1_555 1_555
O15 W4 1_555 1_555
O16 W5 1_555 1_555
O17 W6 1_555 1_555
O18 W5 1_555 1_555
O19 W1B 1_555 1_555
O20 Si1 1_555 1_555
O21 Si1 1_555 1_555
O22 Si1 1_555 1_555
Ag1_2 N2 1_555 1_555
Ag3_3 N8 1_555 1_555
Ag3B Cl1 1_555 1_555
Cl1_2 Ag3 1_555 1_555
Cl1B Ag3 1_555 1_555
N2_2 Ag1 1_555 1_555
N8_2 Ag3 1_555 1_555
O19B Si1 1_555 1_555
O20B Si1 1_555 1_555
O21B Si1 1_555 1_555
O22B Si1 1_555 1_555
W1B O20B 1_555 1_555
W2B O19 1_555 1_555
W3B O3 1_555 1_555
W4B O20 1_555 1_555
W5B O7 1_555 1_555
W6B O19 1_555 1_555
O1B W1B 1_555 1_555
O2B W1 1_555 1_555
O3B W3 1_555 1_555
O4B W1B 1_555 1_555
O5B W1B 1_555 1_555
O6B W2B 1_555 1_555
O7B W5 1_555 1_555
O8B W2B 1_555 1_555
O9B W2B 1_555 1_555
O10B W5 1_555 1_555
O11B W3B 1_555 1_555
O12B W3B 1_555 1_555
O13B W4B 1_555 1_555
O14B W4B 1_555 1_555
O15B W4B 1_555 1_555
O16B W5B 1_555 1_555
O17B W6B 1_555 1_555
O18B W5B 1_555 1_555
C1 N1 1_555 1_555
C5 N1 1_555 1_555
C10 N2 1_555 1_555
C15 N3 1_555 1_555
C17 N5 1_555 1_555
C18 N4 1_555 1_555
C18 N6 1_555 1_555
C19 N7 1_555 1_555
C23 N7 1_555 1_555
C28 N8 1_555 1_555
C33 N9 1_555 1_555
C35 N10 1_555 1_555
C36 N11 1_555 1_555
C36 N12 1_555 1_555
W1 O20 1_555 1_555
W1 O19B 1_555 1_555
W2 O22 1_555 1_555
W2 O19B 1_555 1_555
W3 O22 1_555 1_555
W3 O20B 1_555 1_555
W4 O12 1_555 1_555
W4 O21 1_555 1_555
W4 O20B 1_555 1_555
W5 O21 1_555 1_555
W5 O22B 1_555 1_555
W6 O9 1_555 1_555
W6 O14 1_555 1_555
W6 O18 1_555 1_555
W6 O21 1_555 1_555
W6 O19B 1_555 1_555
O10 W5B 1_555 1_555
O20 W3B 1_555 1_555
O22 W5B 1_555 1_555
O21B W4B 1_555 1_555
O21B W5B 1_555 1_555
O21B W6B 1_555 1_555
O22B W2B 1_555 1_555
O22B W3B 1_555 1_555
W1B O3B 1_555 1_555
W2B O5B 1_555 1_555
W2B O7B 1_555 1_555
W3B O8B 1_555 1_555
W3B O10B 1_555 1_555
W4B O2B 1_555 1_555
W4B O12B 1_555 1_555
W5B O15B 1_555 1_555
W6B O4B 1_555 1_555
W6B O9B 1_555 1_555
W6B O14B 1_555 1_555
W6B O18B 1_555 1_555

#END
