
#######################################################################
#
#                 Cambridge Crystallographic Data Centre
#                                CCDC 
#
#######################################################################
#
# If this CIF has been generated from an entry in the Cambridge 
# Structural Database, then it will include bibliographic, chemical, 
# crystal, experimental, refinement or atomic coordinate data resulting 
# from the CCDC's data processing and validation procedures.
#
#######################################################################

data_DOHYEF
_symmetry_cell_setting           orthorhombic
_symmetry_space_group_name_H-M   'I 21 21 21'
_symmetry_Int_Tables_number      24
_space_group_name_Hall           'I 2b 2c'
loop_
_symmetry_equiv_pos_site_id
_symmetry_equiv_pos_as_xyz
1 x,y,z
2 -x,1/2-y,z
3 x,-y,1/2-z
4 -x,1/2+y,1/2-z
5 1/2+x,1/2+y,1/2+z
6 1/2-x,-y,1/2+z
7 1/2+x,1/2-y,-z
8 1/2-x,y,-z
_cell_length_a                   7.512(3)
_cell_length_b                   19.532(8)
_cell_length_c                   7.143(3)
_cell_angle_alpha                90
_cell_angle_beta                 90
_cell_angle_gamma                90
_cell_volume                     1048.05
loop_
_atom_site_label
_atom_site_type_symbol
_atom_site_fract_x
_atom_site_fract_y
_atom_site_fract_z
O1 O 0.5000 0.2500 0.0062(7)
H2 H 0.584 0.285 -0.065
H2A H 0.416 0.215 -0.065
Cd1 Cd 0.26266(5) 0.5000 0.2500
Br1 Br 0.49926(5) 0.452420(15) -0.00826(5)
N1 N 0.2670(6) 0.39401(12) 0.4054(4)
N2 N 0.3090(5) 0.18137(15) 0.6451(5)
N3 N 0.2500 0.28850(16) 0.5000
C1 C 0.2500 0.2163(2) 0.5000
C2 C 0.2755(6) 0.33043(16) 0.3512(4)
H1 H 0.2959 0.3160 0.2290
C3 C 0.2837(7) 0.11707(17) 0.5851(6)
H3 H 0.311 0.083 0.655
Cd1E Cd 0.23734(5) 0.5000 -0.2500
Cd1E_2 Cd 0.23734(5) 0.5000 0.7500
Br1B Br 0.49926(5) 0.547580(15) 0.50826(5)
Br1E Br 0.00074(5) 0.547580(15) 0.49174(5)
Br1G Br 0.00074(5) 0.452420(15) 0.00826(5)
N1G N 0.2330(6) 0.39401(12) 0.5946(4)
N1B N 0.2670(6) 0.60599(12) 0.0946(4)
N2G N 0.1910(5) 0.18137(15) 0.3549(5)
C2G C 0.2245(6) 0.33043(16) 0.6488(4)
H1G H 0.2041 0.3160 0.7710
C3G C 0.2163(7) 0.11707(17) 0.4149(6)
H3G H 0.189 0.083 0.345
N4? N 0.2837(7) 0.11707(17) 0.5851(6)
loop_
_geom_bond_atom_site_label_1
_geom_bond_atom_site_label_2
_geom_bond_site_symmetry_1
_geom_bond_site_symmetry_2
Cd1 Br1 1_555 1_555
Br1 Cd1E 1_555 1_555
N1 Cd1 1_555 1_555
N2 C1 1_555 1_555
N3 C1 1_555 1_555
C1 N2G 1_555 1_555
C2 N1 1_555 1_555
H1 C2 1_555 1_555
O1 H2 1_555 1_555
C3 N2 1_555 1_555
H3 C3 1_555 1_555
Cd1E Br1G 1_555 1_555
Cd1E_2 Br1B 1_555 1_555
Br1B Cd1 1_555 1_555
Br1E Cd1 1_555 1_555
Br1G Cd1 1_555 1_555
N1G N1 1_555 1_555
N1B Cd1 1_555 1_555
N2G C3G 1_555 1_555
C2G N3 1_555 1_555
H1G C2G 1_555 1_555
H2A O1 1_555 1_555
C3G C3 1_555 1_555
H3G C3G 1_555 1_555
N3 C2 1_555 1_555
Cd1E_2 Br1E 1_555 1_555
Cd1E_2 N1G 1_555 1_555
N1G C2G 1_555 1_555

#END
