
#######################################################################
#
#                 Cambridge Crystallographic Data Centre
#                                CCDC 
#
#######################################################################
#
# If this CIF has been generated from an entry in the Cambridge 
# Structural Database, then it will include bibliographic, chemical, 
# crystal, experimental, refinement or atomic coordinate data resulting 
# from the CCDC's data processing and validation procedures.
#
#######################################################################

data_DOHYUV
_symmetry_cell_setting           triclinic
_symmetry_space_group_name_H-M   'P -1'
_symmetry_Int_Tables_number      2
_space_group_name_Hall           '-P 1'
loop_
_symmetry_equiv_pos_site_id
_symmetry_equiv_pos_as_xyz
1 x,y,z
2 -x,-y,-z
_cell_length_a                   11.357(2)
_cell_length_b                   13.727(3)
_cell_length_c                   14.047(3)
_cell_angle_alpha                74.17(3)
_cell_angle_beta                 83.13(3)
_cell_angle_gamma                82.93(3)
_cell_volume                     2082.31
loop_
_atom_site_label
_atom_site_type_symbol
_atom_site_fract_x
_atom_site_fract_y
_atom_site_fract_z
Ag2 Ag 0.71598(15) 0.41308(16) 0.40595(13)
N3 N 0.5102(13) 0.3432(11) 0.5194(12)
N4 N 0.7046(12) 0.4616(10) 0.5476(13)
C11 C 0.4206(16) 0.2818(17) 0.5257(19)
H9 H 0.4165 0.2513 0.4748
C12 C 0.3382(18) 0.2655(13) 0.6054(18)
H10 H 0.2709 0.2344 0.6026
C13 C 0.3507(14) 0.2932(13) 0.6900(14)
H11 H 0.2972 0.2764 0.7461
C14 C 0.4474(14) 0.3478(13) 0.6886(13)
C15 C 0.4981(14) 0.3829(13) 0.7643(15)
C16 C 0.6046(14) 0.4352(12) 0.7123(16)
C17 C 0.6832(18) 0.4864(19) 0.7405(16)
H12 H 0.6778 0.4942 0.8047
C18 C 0.774(2) 0.5274(15) 0.668(2)
H13 H 0.8293 0.5632 0.6841
C19 C 0.7808(16) 0.5153(15) 0.574(2)
H14 H 0.8399 0.5450 0.5275
C20 C 0.6211(14) 0.4248(11) 0.6142(13)
C21 C 0.5229(13) 0.3666(11) 0.5990(13)
C22 C 0.5775(18) 0.3428(16) 0.245(2)
H15 H 0.5359 0.3023 0.2997
C23 C 0.546(2) 0.3451(16) 0.157(2)
H16 H 0.4836 0.3101 0.1509
C24 C 0.610(2) 0.4015(17) 0.0713(19)
H17 H 0.5912 0.4034 0.0080
C25 C 0.6997(18) 0.4533(17) 0.0837(17)
C26 C 0.7850(19) 0.5192(18) 0.0159(14)
C27 C 0.8535(17) 0.5565(14) 0.0801(15)
C28 C 0.9503(17) 0.6161(19) 0.0678(18)
H18 H 0.9845 0.6444 0.0042
C29 C 0.991(2) 0.6317(19) 0.1421(18)
H19 H 1.0525 0.6738 0.1319
C30 C 0.945(2) 0.5856(18) 0.2411(17)
H20 H 0.9763 0.5988 0.2941
C31 C 0.8182(15) 0.5089(13) 0.1828(14)
C32 C 0.7235(14) 0.4444(11) 0.1816(13)
O1 O 0.4601(13) 0.3722(11) 0.8498(12)
O2 O 0.791(2) 0.5467(19) -0.0710(13)
N5 N 0.6640(13) 0.3932(11) 0.2652(13)
N6 N 0.8575(14) 0.5238(12) 0.2601(12)
Ag1 Ag 1.00601(9) 0.11802(11) 1.01343(10)
C1 C 0.7419(12) 0.1264(14) 1.0944(13)
H1 H 0.7739 0.1173 1.1545
C2 C 0.6222(13) 0.1249(12) 1.0943(10)
H2 H 0.5750 0.1147 1.1544
C3 C 0.5703(11) 0.1377(12) 1.0105(11)
C4 C 0.6466(13) 0.1510(14) 0.9211(11)
H3 H 0.6158 0.1588 0.8608
C5 C 0.7638(12) 0.1522(14) 0.9251(11)
H4 H 0.8126 0.1617 0.8658
C6 C 0.4385(12) 0.1303(12) 1.0090(12)
C7 C 0.2695(13) 0.1185(13) 0.9278(12)
H5 H 0.2389 0.1145 0.8706
C8 C 0.3913(13) 0.1246(14) 0.9287(14)
H6 H 0.4411 0.1247 0.8711
C9 C 0.2417(14) 0.1200(17) 1.0926(14)
H7 H 0.1924 0.1159 1.1511
C10 C 0.3646(14) 0.1278(14) 1.0942(12)
H8 H 0.3946 0.1310 1.1519
N1 N 0.8155(10) 0.1405(11) 1.0103(10)
N2 N 0.1949(10) 0.1185(10) 1.0137(9)
W1 W 1.28227(4) -0.04153(5) 0.59572(4)
W2 W 0.74868(5) 0.10761(4) 0.62449(4)
W3 W 1.23078(5) 0.15074(5) 0.37629(5)
W4 W 1.03014(5) 0.06412(5) 0.72053(4)
W5 W 0.98176(5) 0.25783(5) 0.50273(6)
W6 W 1.05098(5) -0.19460(5) 0.71857(5)
O3 O 0.9744(10) 0.3811(10) 0.5044(12)
O4 O 1.1898(12) 0.0364(9) 0.6752(12)
O5 O 1.4131(11) -0.0628(12) 0.6435(14)
O6 O 1.0414(10) 0.0957(13) 0.8262(8)
O7 O 1.0347(13) 0.1933(13) 0.6287(13)
O8 O 0.8241(12) 0.2249(13) 0.5578(13)
O9 O 1.1146(13) 0.1928(14) 0.2816(12)
O10 O 1.2078(12) -0.1561(10) 0.6768(12)
O11 O 1.0738(11) -0.2858(9) 0.8243(9)
O12 O 0.7254(18) -0.0311(11) 0.6696(10)
O13 O 1.0690(14) -0.0308(13) 0.5989(13)
O14 O 0.9269(12) 0.2696(14) 0.3750(12)
O15 O 1.1387(12) 0.2402(14) 0.4469(11)
O16 O 0.8627(12) 0.0800(12) 0.7208(12)
O17 O 1.3146(13) -0.1133(9) 0.4973(9)
O18 O 0.6336(11) 0.1563(11) 0.6891(9)
O19 O 1.1432(14) -0.0013(15) 0.4753(13)
O20 O 0.9567(15) 0.0804(14) 0.5690(13)
O21 O 1.3357(11) 0.2251(10) 0.3148(9)
O22 O 1.2972(14) 0.0835(11) 0.4969(9)
O23 O 0.9681(13) -0.1164(12) 0.5662(11)
O24 O 1.0198(12) -0.0774(12) 0.7710(13)
Si1 Si 1.0000 0.0000 0.5000
Ag1_2 Ag 2.00601(9) 0.11802(11) 1.01343(10)
Ag1_3 Ag 0.00601(9) 0.11802(11) 1.01343(10)
Ag1A Ag 0.99399(9) -0.11802(11) -0.01343(10)
C1_2 C 1.7419(12) 0.1264(14) 1.0944(13)
C1_3 C -0.2581(12) 0.1264(14) 1.0944(13)
H1_2 H 1.7739 0.1173 1.1545
C2_2 C 1.6222(13) 0.1249(12) 1.0943(10)
H2_2 H 1.5750 0.1147 1.1544
C3_2 C 1.5703(11) 0.1377(12) 1.0105(11)
C4_2 C 1.6466(13) 0.1510(14) 0.9211(11)
H3_2 H 1.6158 0.1588 0.8608
C5_2 C 1.7638(12) 0.1522(14) 0.9251(11)
C5_3 C -0.2362(12) 0.1522(14) 0.9251(11)
H4_2 H 1.8126 0.1617 0.8658
C6_2 C 1.4385(12) 0.1303(12) 1.0090(12)
C7_2 C 1.2695(13) 0.1185(13) 0.9278(12)
C7_3 C 2.2695(13) 0.1185(13) 0.9278(12)
H5_2 H 1.2389 0.1145 0.8706
H5_3 H 2.2389 0.1145 0.8706
C8_2 C 1.3913(13) 0.1246(14) 0.9287(14)
C8_3 C 2.3913(13) 0.1246(14) 0.9287(14)
H6_2 H 1.4411 0.1247 0.8711
C9_2 C 1.2417(14) 0.1200(17) 1.0926(14)
C9_3 C 2.2417(14) 0.1200(17) 1.0926(14)
H7_2 H 1.1924 0.1159 1.1511
H7_3 H 2.1924 0.1159 1.1511
C10_2 C 1.3646(14) 0.1278(14) 1.0942(12)
C10_3 C 2.3646(14) 0.1278(14) 1.0942(12)
H8_2 H 1.3946 0.1310 1.1519
N1_2 N 1.8155(10) 0.1405(11) 1.0103(10)
N1_3 N -0.1845(10) 0.1405(11) 1.0103(10)
N2_2 N 1.1949(10) 0.1185(10) 1.0137(9)
N2_3 N 2.1949(10) 0.1185(10) 1.0137(9)
W1A W 0.71773(4) 0.04153(5) 0.40428(4)
W1_2 W 2.28227(4) -0.04153(5) 0.59572(4)
W1A_2 W 1.71773(4) 0.04153(5) 0.40428(4)
W2A W 1.25132(5) -0.10761(4) 0.37551(4)
W2_2 W 1.74868(5) 0.10761(4) 0.62449(4)
W2A_2 W 2.25132(5) -0.10761(4) 0.37551(4)
W3A W 0.76922(5) -0.15074(5) 0.62371(5)
W3_2 W 2.23078(5) 0.15074(5) 0.37629(5)
W3A_2 W 1.76922(5) -0.15074(5) 0.62371(5)
W4_2 W 2.03014(5) 0.06412(5) 0.72053(4)
W4A W 0.96986(5) -0.06412(5) 0.27947(4)
W4_3 W 0.03014(5) 0.06412(5) 0.72053(4)
W5A W 1.01824(5) -0.25783(5) 0.49727(6)
W5_2 W 1.98176(5) 0.25783(5) 0.50273(6)
W5A_2 W 2.01824(5) -0.25783(5) 0.49727(6)
W6A W 0.94902(5) 0.19460(5) 0.28143(5)
W6_2 W 2.05098(5) -0.19460(5) 0.71857(5)
W6A_2 W 1.94902(5) 0.19460(5) 0.28143(5)
O3A O 1.0256(10) -0.3811(10) 0.4956(12)
O3_2 O 1.9744(10) 0.3811(10) 0.5044(12)
O4A O 0.8102(12) -0.0364(9) 0.3248(12)
O4_2 O 2.1898(12) 0.0364(9) 0.6752(12)
O5A O 0.5869(11) 0.0628(12) 0.3565(14)
O5_2 O 2.4131(11) -0.0628(12) 0.6435(14)
O6_2 O 2.0414(10) 0.0957(13) 0.8262(8)
O6_3 O 0.0414(10) 0.0957(13) 0.8262(8)
O6A O 0.9586(10) -0.0957(13) 0.1738(8)
O7_2 O 2.0347(13) 0.1933(13) 0.6287(13)
O7A O 0.9653(13) -0.1933(13) 0.3713(13)
O8A O 1.1759(12) -0.2249(13) 0.4422(13)
O8_2 O 1.8241(12) 0.2249(13) 0.5578(13)
O9A O 0.8854(13) -0.1928(14) 0.7184(12)
O9A_2 O 1.8854(13) -0.1928(14) 0.7184(12)
O10A O 0.7922(12) 0.1561(10) 0.3232(12)
O10_2 O 2.2078(12) -0.1561(10) 0.6768(12)
O11A O 0.9262(11) 0.2858(9) 0.1757(9)
O11_2 O 2.0738(11) -0.2858(9) 0.8243(9)
O12A O 1.2746(18) 0.0311(11) 0.3304(10)
O12_2 O 1.7254(18) -0.0311(11) 0.6696(10)
O13A O 0.9310(14) 0.0308(13) 0.4011(13)
O13_2 O 2.0690(14) -0.0308(13) 0.5989(13)
O13A_2 O 1.9310(14) 0.0308(13) 0.4011(13)
O14A O 1.0731(12) -0.2696(14) 0.6250(12)
O14_2 O 1.9269(12) 0.2696(14) 0.3750(12)
O14A_2 O 2.0731(12) -0.2696(14) 0.6250(12)
O15A O 0.8613(12) -0.2402(14) 0.5531(11)
O15_2 O 2.1387(12) 0.2402(14) 0.4469(11)
O16A O 1.1373(12) -0.0800(12) 0.2792(12)
O16_2 O 1.8627(12) 0.0800(12) 0.7208(12)
O17A O 0.6854(13) 0.1133(9) 0.5027(9)
O17_2 O 2.3146(13) -0.1133(9) 0.4973(9)
O17A_2 O 1.6854(13) 0.1133(9) 0.5027(9)
O18A O 1.3664(11) -0.1563(11) 0.3109(9)
O18_2 O 1.6336(11) 0.1563(11) 0.6891(9)
O19A O 0.8568(14) 0.0013(15) 0.5247(13)
O19_2 O 2.1432(14) -0.0013(15) 0.4753(13)
O19A_2 O 1.8568(14) 0.0013(15) 0.5247(13)
O20A O 1.0433(15) -0.0804(14) 0.4310(13)
O20_2 O 1.9567(15) 0.0804(14) 0.5690(13)
O20A_2 O 2.0433(15) -0.0804(14) 0.4310(13)
O21A O 0.6643(11) -0.2251(10) 0.6852(9)
O22A O 0.7028(14) -0.0835(11) 0.5031(9)
O22_2 O 2.2972(14) 0.0835(11) 0.4969(9)
O23A O 1.0319(13) 0.1164(12) 0.4338(11)
O23_2 O 1.9681(13) -0.1164(12) 0.5662(11)
O23A_2 O 2.0319(13) 0.1164(12) 0.4338(11)
O24_2 O 2.0198(12) -0.0774(12) 0.7710(13)
O24A O 0.9802(12) 0.0774(12) 0.2290(13)
Si1_2 Si 2.0000 0.0000 0.5000
loop_
_geom_bond_atom_site_label_1
_geom_bond_atom_site_label_2
_geom_bond_site_symmetry_1
_geom_bond_site_symmetry_2
Ag1 N1 1_555 1_555
C1 H1 1_555 1_555
C2 C1 1_555 1_555
H2 C2 1_555 1_555
C3 C2 1_555 1_555
C4 C3 1_555 1_555
H3 C4 1_555 1_555
C5 C4 1_555 1_555
H4 C5 1_555 1_555
C6 C3 1_555 1_555
C7 H5 1_555 1_555
C8 C6 1_555 1_555
H6 C8 1_555 1_555
C9 H7 1_555 1_555
C10 C6 1_555 1_555
H8 C10 1_555 1_555
N1 C1 1_555 1_555
N2 C7 1_555 1_555
Ag2 N3 1_555 1_555
N3 C11 1_555 1_555
N4 Ag2 1_555 1_555
C11 H9 1_555 1_555
C12 C11 1_555 1_555
H10 C12 1_555 1_555
C13 C12 1_555 1_555
H11 C13 1_555 1_555
C14 C13 1_555 1_555
C15 C14 1_555 1_555
C16 C15 1_555 1_555
C17 C16 1_555 1_555
H12 C17 1_555 1_555
C18 C17 1_555 1_555
H13 C18 1_555 1_555
C19 N4 1_555 1_555
H14 C19 1_555 1_555
C20 N4 1_555 1_555
C21 N3 1_555 1_555
C22 H15 1_555 1_555
C23 C22 1_555 1_555
H16 C23 1_555 1_555
C24 C23 1_555 1_555
H17 C24 1_555 1_555
C25 C24 1_555 1_555
C26 C25 1_555 1_555
C27 C26 1_555 1_555
C28 C27 1_555 1_555
H18 C28 1_555 1_555
C29 C28 1_555 1_555
H19 C29 1_555 1_555
C30 C29 1_555 1_555
H20 C30 1_555 1_555
C31 C27 1_555 1_555
C32 C25 1_555 1_555
O1 C15 1_555 1_555
O2 C26 1_555 1_555
N5 Ag2 1_555 1_555
N6 Ag2 1_555 1_555
W1 O4 1_555 1_555
W2 O8 1_555 1_555
W3 O9 1_555 1_555
W4 O4 1_555 1_555
W5 O3 1_555 1_555
W6 O10 1_555 1_555
O5 W1 1_555 1_555
O6 Ag1 1_555 1_555
O7 W4 1_555 1_555
O8 W5 1_555 1_555
O9 W6A 1_555 1_555
O10 W1 1_555 1_555
O11 W6 1_555 1_555
O12 W2 1_555 1_555
O13 W1 1_555 1_555
O14 W5 1_555 1_555
O15 W3 1_555 1_555
O16 W2 1_555 1_555
O17 W1 1_555 1_555
O18 W2 1_555 1_555
O19 W1 1_555 1_555
O20 W2 1_555 1_555
O21 W3 1_555 1_555
O22 W1 1_555 1_555
O23 W6 1_555 1_555
O24 W4 1_555 1_555
Si1 O13 1_555 1_555
Ag1_2 N1_2 1_555 1_555
Ag1_3 N2 1_555 1_555
Ag1A O6A 1_555 1_555
C1_2 H1_2 1_555 1_555
C1_3 N1_3 1_555 1_555
C2_2 C1_2 1_555 1_555
H2_2 C2_2 1_555 1_555
C3_2 C2_2 1_555 1_555
C4_2 C3_2 1_555 1_555
H3_2 C4_2 1_555 1_555
C5_2 C4_2 1_555 1_555
C5_3 N1_3 1_555 1_555
H4_2 C5_2 1_555 1_555
C6_2 C3_2 1_555 1_555
C7_2 H5_2 1_555 1_555
C7_3 H5_3 1_555 1_555
C8_2 C6_2 1_555 1_555
C8_3 C7_3 1_555 1_555
H6_2 C8_2 1_555 1_555
C9_2 H7_2 1_555 1_555
C9_3 H7_3 1_555 1_555
C10_2 C6_2 1_555 1_555
C10_3 C9_3 1_555 1_555
H8_2 C10_2 1_555 1_555
N1_2 C1_2 1_555 1_555
N1_3 Ag1_3 1_555 1_555
N2_2 Ag1 1_555 1_555
N2_3 Ag1_2 1_555 1_555
W1A O4A 1_555 1_555
W1_2 O4_2 1_555 1_555
W1A_2 O13A_2 1_555 1_555
W2A O17 1_555 1_555
W2_2 O8_2 1_555 1_555
W2A_2 O17_2 1_555 1_555
W3A O12 1_555 1_555
W3_2 O15_2 1_555 1_555
W3A_2 O9A_2 1_555 1_555
W4_2 O4_2 1_555 1_555
W4A O4A 1_555 1_555
W4_3 O6_3 1_555 1_555
W5A O23 1_555 1_555
W5_2 O3_2 1_555 1_555
W5A_2 O14A_2 1_555 1_555
W6A O14 1_555 1_555
W6_2 O9A_2 1_555 1_555
W6A_2 O13A_2 1_555 1_555
O3A W5A 1_555 1_555
O5A W1A 1_555 1_555
O5_2 W1_2 1_555 1_555
O6_2 Ag1_2 1_555 1_555
O6_3 Ag1_3 1_555 1_555
O6A W4A 1_555 1_555
O7_2 W4_2 1_555 1_555
O7A W4A 1_555 1_555
O8A W2A 1_555 1_555
O8_2 W5_2 1_555 1_555
O9A W6 1_555 1_555
O10A W1A 1_555 1_555
O10_2 W1_2 1_555 1_555
O11A W6A 1_555 1_555
O11_2 W6_2 1_555 1_555
O12A W3 1_555 1_555
O12_2 W2_2 1_555 1_555
O13A Si1 1_555 1_555
O13_2 W1_2 1_555 1_555
O13A_2 O19A_2 1_555 1_555
O14A W6 1_555 1_555
O14_2 W5_2 1_555 1_555
O14A_2 W6_2 1_555 1_555
O15A W3A 1_555 1_555
O15_2 W5_2 1_555 1_555
O16A W2A 1_555 1_555
O16_2 W2_2 1_555 1_555
O17A W2 1_555 1_555
O17_2 W1_2 1_555 1_555
O17A_2 W1A_2 1_555 1_555
O18A W2A 1_555 1_555
O18_2 W2_2 1_555 1_555
O19A W2 1_555 1_555
O19_2 W1_2 1_555 1_555
O19A_2 W1A_2 1_555 1_555
O20A O19 1_555 1_555
O20_2 W2_2 1_555 1_555
O20A_2 W2A_2 1_555 1_555
O21A W3A 1_555 1_555
O22A W1A 1_555 1_555
O22_2 W1_2 1_555 1_555
O23A W3 1_555 1_555
O23_2 W3A_2 1_555 1_555
O23A_2 W3_2 1_555 1_555
O24_2 W4_2 1_555 1_555
O24A W4A 1_555 1_555
Si1_2 O13_2 1_555 1_555
C5 N1 1_555 1_555
C7 C8 1_555 1_555
C9 C10 1_555 1_555
C9 N2 1_555 1_555
C14 C21 1_555 1_555
C16 C20 1_555 1_555
C18 C19 1_555 1_555
C20 C21 1_555 1_555
C22 N5 1_555 1_555
C30 N6 1_555 1_555
C31 C32 1_555 1_555
C31 N6 1_555 1_555
C32 N5 1_555 1_555
W3 O19 1_555 1_555
W3 O22 1_555 1_555
W4 O6 1_555 1_555
W4 O13 1_555 1_555
W4 O16 1_555 1_555
W4 O20 1_555 1_555
W5 O7 1_555 1_555
W5 O15 1_555 1_555
W5 O20 1_555 1_555
W5 O23A 1_555 1_555
W6 O13 1_555 1_555
W6 O24 1_555 1_555
O13 O19 1_555 1_555
O13 O20 1_555 1_555
O13 O23 1_555 1_555
O19 Si1 1_555 1_555
O19 W2A 1_555 1_555
O19 O23A 1_555 1_555
O20 Si1 1_555 1_555
O20 O19A 1_555 1_555
O20 O23A 1_555 1_555
O23 Si1 1_555 1_555
O23 W3A 1_555 1_555
O23 O19A 1_555 1_555
O23 O20A 1_555 1_555
Si1 O19A 1_555 1_555
Si1 O20A 1_555 1_555
Si1 O23A 1_555 1_555
C5_2 N1_2 1_555 1_555
C7_2 C8_2 1_555 1_555
C7_2 N2_2 1_555 1_555
C7_3 N2_3 1_555 1_555
C9_2 C10_2 1_555 1_555
C9_2 N2_2 1_555 1_555
C9_3 N2_3 1_555 1_555
W1A O13A 1_555 1_555
W1A O17A 1_555 1_555
W1A O19A 1_555 1_555
W2A O12A 1_555 1_555
W2A O20A 1_555 1_555
W2_2 O17A_2 1_555 1_555
W2_2 O19A_2 1_555 1_555
W2A_2 O19_2 1_555 1_555
W3A O9A 1_555 1_555
W3A O19A 1_555 1_555
W3A O22A 1_555 1_555
W3_2 O19_2 1_555 1_555
W3_2 O22_2 1_555 1_555
W3A_2 O12_2 1_555 1_555
W3A_2 O19A_2 1_555 1_555
W4_2 O6_2 1_555 1_555
W4_2 O13_2 1_555 1_555
W4_2 O16_2 1_555 1_555
W4_2 O20_2 1_555 1_555
W4A O13A 1_555 1_555
W4A O16A 1_555 1_555
W4A O20A 1_555 1_555
W5A O7A 1_555 1_555
W5A O8A 1_555 1_555
W5A O14A 1_555 1_555
W5A O15A 1_555 1_555
W5A O20A 1_555 1_555
W5_2 O7_2 1_555 1_555
W5_2 O20_2 1_555 1_555
W5_2 O23A_2 1_555 1_555
W5A_2 O20A_2 1_555 1_555
W5A_2 O23_2 1_555 1_555
W6A O10A 1_555 1_555
W6A O13A 1_555 1_555
W6A O23A 1_555 1_555
W6A O24A 1_555 1_555
W6_2 O10_2 1_555 1_555
W6_2 O13_2 1_555 1_555
W6_2 O23_2 1_555 1_555
W6_2 O24_2 1_555 1_555
W6A_2 O14_2 1_555 1_555
W6A_2 O23A_2 1_555 1_555
O13A O19A 1_555 1_555
O13A O20A 1_555 1_555
O13A O23A 1_555 1_555
O13_2 O19_2 1_555 1_555
O13_2 O20_2 1_555 1_555
O13_2 O23_2 1_555 1_555
O13A_2 O20A_2 1_555 1_555
O13A_2 O23A_2 1_555 1_555
O13A_2 Si1_2 1_555 1_555
O19_2 O20A_2 1_555 1_555
O19_2 O23A_2 1_555 1_555
O19_2 Si1_2 1_555 1_555
O19A_2 O20_2 1_555 1_555
O19A_2 O23_2 1_555 1_555
O19A_2 Si1_2 1_555 1_555
O20_2 O23A_2 1_555 1_555
O20_2 Si1_2 1_555 1_555
O20A_2 O23_2 1_555 1_555
O20A_2 Si1_2 1_555 1_555
O23_2 Si1_2 1_555 1_555
O23A_2 Si1_2 1_555 1_555

#END
