
#######################################################################
#
#                 Cambridge Crystallographic Data Centre
#                                CCDC 
#
#######################################################################
#
# If this CIF has been generated from an entry in the Cambridge 
# Structural Database, then it will include bibliographic, chemical, 
# crystal, experimental, refinement or atomic coordinate data resulting 
# from the CCDC's data processing and validation procedures.
#
#######################################################################

data_DOHZOQ
_symmetry_cell_setting           monoclinic
_symmetry_space_group_name_H-M   'C 2/c'
_symmetry_Int_Tables_number      15
_space_group_name_Hall           '-C 2yn'
loop_
_symmetry_equiv_pos_site_id
_symmetry_equiv_pos_as_xyz
1 x,y,z
2 1/2+x,1/2+y,z
3 -x,y,1/2-z
4 1/2-x,1/2+y,1/2-z
5 -x,-y,-z
6 1/2-x,1/2-y,-z
7 x,-y,1/2+z
8 1/2+x,1/2-y,1/2+z
_cell_length_a                   11.1541(16)
_cell_length_b                   13.0599(17)
_cell_length_c                   20.679(3)
_cell_angle_alpha                90
_cell_angle_beta                 102.801(3)
_cell_angle_gamma                90
_cell_volume                     2937.47
loop_
_atom_site_label
_atom_site_type_symbol
_atom_site_fract_x
_atom_site_fract_y
_atom_site_fract_z
C13 C 0.0253(7) 0.0067(5) 0.2871(3)
N7 N 0.1181(8) -0.0175(7) 0.3149(4)
C13B C -0.0253(7) 0.0067(5) 0.2129(3)
N7B N -0.1181(8) -0.0175(7) 0.1851(4)
Co1 Co 0.2500 0.2500 0.5000
N1 N 0.3737(3) 0.1243(2) 0.33456(14)
N2 N 0.3409(3) 0.1807(2) 0.42936(13)
N3 N 0.3562(2) 0.56402(19) 0.49358(13)
N4 N 0.3004(2) 0.40239(19) 0.47713(13)
N5 N -0.0976(3) 0.2568(3) 0.33470(18)
N6 N 0.0874(3) 0.2636(2) 0.42308(14)
C1 C 0.3090(3) 0.1883(3) 0.36427(16)
H1 H 0.2475 0.2336 0.3412
C2 C 0.4319(4) 0.1080(3) 0.44159(18)
H2 H 0.4737 0.0857 0.4844
C3 C 0.4533(4) 0.0728(3) 0.38353(19)
H3 H 0.5118 0.0225 0.3780
C4 C 0.4310(4) 0.2044(3) 0.23692(19)
H4 H 0.4136 0.2007 0.1879
H5 H 0.3977 0.2703 0.2490
C5 C 0.3633(5) 0.1176(3) 0.26238(19)
H6 H 0.2753 0.1197 0.2395
H7 H 0.3974 0.0513 0.2517
C6 C 0.3379(3) 0.4743(2) 0.52174(16)
H8 H 0.3505 0.4639 0.5682
C7 C 0.2955(3) 0.4490(2) 0.41696(16)
H9 H 0.2715 0.4164 0.3750
C8 C 0.3299(3) 0.5478(2) 0.42650(16)
H10 H 0.3349 0.5967 0.3932
C9 C 0.2840(3) 0.7288(3) 0.53324(17)
H11 H 0.2254 0.6893 0.5530
H12 H 0.3142 0.7868 0.5633
C10 C 0.3928(3) 0.6599(2) 0.52932(17)
H13 H 0.4490 0.6977 0.5069
H14 H 0.4386 0.6437 0.5749
C11 C 0.0035(3) 0.2663(2) 0.38011(16)
C12 C -0.1315(5) 0.3222(3) 0.2885(2)
N8 N -0.2074(7) 0.3764(6) 0.2536(4)
Co1G Co 0.7500 0.2500 0.0000
Co1_2 Co 0.2500 1.2500 0.5000
N1B N 0.6263(3) 0.1243(2) 0.16544(14)
N2B N 0.6591(3) 0.1807(2) 0.07064(13)
N2E N 0.1591(3) 0.3193(2) 0.57064(13)
N3E N 0.1438(2) 0.93598(19) 0.50642(13)
N4E N 0.1996(2) 1.09761(19) 0.52287(13)
N4E_2 N 0.1996(2) 0.09761(19) 0.52287(13)
N5E N 0.5976(3) 0.2432(3) 0.66530(18)
N6E N 0.4126(3) 0.2364(2) 0.57692(14)
C1B C 0.6910(3) 0.1883(3) 0.13573(16)
H1B H 0.7525 0.2336 0.1588
C2B C 0.5681(4) 0.1080(3) 0.05841(18)
H2B H 0.5263 0.0857 0.0156
C3B C 0.5467(4) 0.0728(3) 0.11647(19)
H3B H 0.4882 0.0225 0.1220
C4B C 0.5690(4) 0.2044(3) 0.26308(19)
H4B H 0.5864 0.2007 0.3121
H5B H 0.6023 0.2703 0.2510
C5B C 0.6367(5) 0.1176(3) 0.23762(19)
H6B H 0.7247 0.1197 0.2605
H7B H 0.6026 0.0513 0.2483
C6E C 0.1621(3) 1.0257(2) 0.47826(16)
H8E H 0.1495 1.0361 0.4318
C7E C 0.2045(3) 1.0510(2) 0.58304(16)
H9E H 0.2285 1.0836 0.6250
C8E C 0.1701(3) 0.9522(2) 0.57350(16)
H10E H 0.1651 0.9033 0.6068
C9E C 0.2160(3) 0.7712(3) 0.46676(17)
H11E H 0.2746 0.8107 0.4470
H12E H 0.1858 0.7132 0.4367
C10E C 0.1072(3) 0.8401(2) 0.47068(17)
H13E H 0.0510 0.8023 0.4931
H14E H 0.0614 0.8563 0.4251
C11E C 0.4965(3) 0.2337(2) 0.61989(16)
C12E C 0.6315(5) 0.1778(3) 0.7115(2)
N8E N 0.7074(7) 0.1236(6) 0.7464(4)
N9? N -0.1350(10) 0.3690(6) 0.2359(4)
loop_
_geom_bond_atom_site_label_1
_geom_bond_atom_site_label_2
_geom_bond_site_symmetry_1
_geom_bond_site_symmetry_2
Co1 N2 1_555 1_555
N1 C1 1_555 1_555
N2 C1 1_555 1_555
N3 C6 1_555 1_555
N4 Co1 1_555 1_555
N5 C11 1_555 1_555
N6 Co1 1_555 1_555
C1 H1 1_555 1_555
C2 N2 1_555 1_555
H2 C2 1_555 1_555
C3 N1 1_555 1_555
H3 C3 1_555 1_555
C4 H4 1_555 1_555
H5 C4 1_555 1_555
C5 N1 1_555 1_555
H6 C5 1_555 1_555
H7 C5 1_555 1_555
C6 N4 1_555 1_555
H8 C6 1_555 1_555
C7 N4 1_555 1_555
H9 C7 1_555 1_555
C8 N3 1_555 1_555
H10 C8 1_555 1_555
C9 H11 1_555 1_555
H12 C9 1_555 1_555
C10 N3 1_555 1_555
H13 C10 1_555 1_555
H14 C10 1_555 1_555
C11 N6 1_555 1_555
C12 N5 1_555 1_555
C13 N7 1_555 1_555
N8 C12 1_555 1_555
Co1G N2B 1_555 1_555
Co1_2 N4E 1_555 1_555
N1B C1B 1_555 1_555
N2B C1B 1_555 1_555
N2E Co1 1_555 1_555
N3E C6E 1_555 1_555
N4E C6E 1_555 1_555
N4E_2 Co1 1_555 1_555
N5E C11E 1_555 1_555
N6E Co1 1_555 1_555
C1B H1B 1_555 1_555
C2B N2B 1_555 1_555
H2B C2B 1_555 1_555
C3B N1B 1_555 1_555
H3B C3B 1_555 1_555
C4B C4 1_555 1_555
H4B C4B 1_555 1_555
H5B C4B 1_555 1_555
C5B N1B 1_555 1_555
H6B C5B 1_555 1_555
H7B C5B 1_555 1_555
C6E H8E 1_555 1_555
C7E N4E 1_555 1_555
H9E C7E 1_555 1_555
C8E N3E 1_555 1_555
H10E C8E 1_555 1_555
C9E C9 1_555 1_555
H11E C9E 1_555 1_555
H12E C9E 1_555 1_555
C10E N3E 1_555 1_555
H13E C10E 1_555 1_555
H14E C10E 1_555 1_555
C11E N6E 1_555 1_555
C12E N5E 1_555 1_555
C13B C13 1_555 1_555
N7B C13B 1_555 1_555
N8E C12E 1_555 1_555
C2 C3 1_555 1_555
C4 C5 1_555 1_555
C7 C8 1_555 1_555
C9 C10 1_555 1_555
C2B C3B 1_555 1_555
C4B C5B 1_555 1_555
C7E C8E 1_555 1_555
C9E C10E 1_555 1_555

#END
