
#######################################################################
#
#                 Cambridge Crystallographic Data Centre
#                                CCDC 
#
#######################################################################
#
# If this CIF has been generated from an entry in the Cambridge 
# Structural Database, then it will include bibliographic, chemical, 
# crystal, experimental, refinement or atomic coordinate data resulting 
# from the CCDC's data processing and validation procedures.
#
#######################################################################

data_DOHZAC
_symmetry_cell_setting           triclinic
_symmetry_space_group_name_H-M   'P -1'
_symmetry_Int_Tables_number      2
_space_group_name_Hall           '-P 1'
loop_
_symmetry_equiv_pos_site_id
_symmetry_equiv_pos_as_xyz
1 x,y,z
2 -x,-y,-z
_cell_length_a                   5.6317(9)
_cell_length_b                   10.6231(18)
_cell_length_c                   11.1386(19)
_cell_angle_alpha                118.087(3)
_cell_angle_beta                 99.187(3)
_cell_angle_gamma                94.385(3)
_cell_volume                     571.498
loop_
_atom_site_label
_atom_site_type_symbol
_atom_site_fract_x
_atom_site_fract_y
_atom_site_fract_z
Cu1 Cu 1.0000 0.0000 1.0000
Cu2 Cu 1.49746(14) 0.15708(8) 1.03345(9)
O1 O 0.9085(9) 0.1146(6) 0.9108(6)
O2 O 1.2765(9) 0.2368(6) 0.9433(6)
O3 O 1.3034(9) 0.6561(5) 0.8750(6)
O4 O 1.0302(9) 0.6505(5) 0.7012(6)
O5 O 0.2541(11) 0.1165(7) 0.5599(7)
O6 O 0.2756(10) 0.2956(7) 0.5209(6)
O7 O 0.7108(7) 0.0374(5) 1.0776(5)
H1 H 0.7504 0.0697 1.1651
O8 O 1.3112(10) 0.1885(6) 1.2119(5)
H2 H 1.2302 0.2510 1.2595
H3 H 1.3885 0.1887 1.2841
N1 N 0.3622(11) 0.2286(7) 0.5760(6)
C1 C 1.0506(12) 0.2035(7) 0.8990(7)
C2 C 0.9345(12) 0.2760(7) 0.8223(7)
C3 C 1.0671(12) 0.3991(7) 0.8356(7)
H6 H 1.2229 0.4366 0.8930
C4 C 0.9675(12) 0.4673(7) 0.7629(7)
C5 C 0.7340(12) 0.4117(7) 0.6788(7)
H7 H 0.6649 0.4557 0.6301
C6 C 0.6054(12) 0.2895(8) 0.6687(7)
C7 C 0.7019(12) 0.2210(7) 0.7395(7)
H8 H 0.6115 0.1392 0.7314
C8 C 1.1108(13) 0.6024(7) 0.7779(8)
Cu2A Cu 0.50254(14) -0.15708(8) 0.96655(9)
Cu2A_2 Cu 1.50254(14) 0.84292(8) 0.96655(9)
Cu2_2 Cu 0.49746(14) 0.15708(8) 1.03345(9)
Cu2_3 Cu 0.49746(14) -0.84292(8) 1.03345(9)
Cu2A_3 Cu 1.50254(14) -0.15708(8) 0.96655(9)
O1A O 1.0915(9) -0.1146(6) 1.0892(6)
O2A O 0.7235(9) -0.2368(6) 1.0567(6)
O3A O 0.6966(9) -0.6561(5) 1.1250(6)
O3A_2 O 1.6966(9) 0.3439(5) 1.1250(6)
O3_2 O 0.3034(9) -0.3439(5) 0.8750(6)
O4A O 0.9698(9) -0.6505(5) 1.2988(6)
O5A O 1.7459(11) -0.1165(7) 1.4401(7)
O6A O 1.7244(10) -0.2956(7) 1.4791(6)
O7A O 1.2892(7) -0.0374(5) 0.9224(5)
O7_2 O 1.7108(7) 0.0374(5) 1.0776(5)
O7A_2 O 0.2892(7) -0.0374(5) 0.9224(5)
H1A H 1.2496 -0.0697 0.8349
H1_2 H 1.7504 0.0697 1.1651
H1A_2 H 0.2496 -0.0697 0.8349
O8A O 0.6888(10) -0.1885(6) 0.7881(5)
H2A H 0.7698 -0.2510 0.7405
H3A H 0.6115 -0.1887 0.7159
N1A N 1.6378(11) -0.2286(7) 1.4240(6)
C1A C 0.9494(12) -0.2035(7) 1.1010(7)
C2A C 1.0655(12) -0.2760(7) 1.1777(7)
C3A C 0.9329(12) -0.3991(7) 1.1644(7)
H6A H 0.7771 -0.4366 1.1070
C4A C 1.0325(12) -0.4673(7) 1.2371(7)
C5A C 1.2660(12) -0.4117(7) 1.3212(7)
H7A H 1.3351 -0.4557 1.3699
C6A C 1.3946(12) -0.2895(8) 1.3313(7)
C7A C 1.2981(12) -0.2210(7) 1.2605(7)
H8A H 1.3885 -0.1392 1.2686
C8A C 0.8892(13) -0.6024(7) 1.2221(8)
O9 O 0.7511(10) 0.1382(7) 0.3580(6)
H4 H 0.8311 0.2222 0.3876
H5 H 0.8269 0.0962 0.3970
loop_
_geom_bond_atom_site_label_1
_geom_bond_atom_site_label_2
_geom_bond_site_symmetry_1
_geom_bond_site_symmetry_2
Cu1 O1 1_555 1_555
Cu2 O2 1_555 1_555
O1 C1 1_555 1_555
O2 C1 1_555 1_555
O3 C8 1_555 1_555
O4 C8 1_555 1_555
O5 N1 1_555 1_555
O6 N1 1_555 1_555
O7 Cu1 1_555 1_555
H1 O7 1_555 1_555
O8 Cu1 1_555 1_555
H2 O8 1_555 1_555
H3 O8 1_555 1_555
O9 H4 1_555 1_555
H5 O9 1_555 1_555
N1 C6 1_555 1_555
C1 C2 1_555 1_555
C2 C3 1_555 1_555
C3 H6 1_555 1_555
C4 C3 1_555 1_555
C5 C4 1_555 1_555
H7 C5 1_555 1_555
C6 C5 1_555 1_555
C7 C2 1_555 1_555
H8 C7 1_555 1_555
C8 C4 1_555 1_555
Cu2A O7 1_555 1_555
Cu2A_2 O3 1_555 1_555
Cu2_2 O7 1_555 1_555
Cu2_3 O3A 1_555 1_555
Cu2A_3 O7A 1_555 1_555
O1A Cu1 1_555 1_555
O2A Cu2A 1_555 1_555
O3A C8A 1_555 1_555
O3A_2 Cu2 1_555 1_555
O3_2 Cu2A 1_555 1_555
O4A C8A 1_555 1_555
O5A N1A 1_555 1_555
O6A N1A 1_555 1_555
O7A Cu1 1_555 1_555
O7_2 Cu2 1_555 1_555
O7A_2 Cu2A 1_555 1_555
H1A O7A 1_555 1_555
H1_2 O7_2 1_555 1_555
H1A_2 O7A_2 1_555 1_555
O8A Cu1 1_555 1_555
H2A O8A 1_555 1_555
H3A O8A 1_555 1_555
N1A C6A 1_555 1_555
C1A O1A 1_555 1_555
C2A C1A 1_555 1_555
C3A C2A 1_555 1_555
H6A C3A 1_555 1_555
C4A C3A 1_555 1_555
C5A C4A 1_555 1_555
H7A C5A 1_555 1_555
C6A C5A 1_555 1_555
C7A C2A 1_555 1_555
H8A C7A 1_555 1_555
C8A C4A 1_555 1_555
Cu2 O8 1_555 1_555
Cu2 O7A 1_555 1_555
C6 C7 1_555 1_555
Cu2A O8A 1_555 1_555
Cu2_2 O7A_2 1_555 1_555
Cu2A_3 O7_2 1_555 1_555
O2A C1A 1_555 1_555
C6A C7A 1_555 1_555

#END
