
#######################################################################
#
#                 Cambridge Crystallographic Data Centre
#                                CCDC 
#
#######################################################################
#
# If this CIF has been generated from an entry in the Cambridge 
# Structural Database, then it will include bibliographic, chemical, 
# crystal, experimental, refinement or atomic coordinate data resulting 
# from the CCDC's data processing and validation procedures.
#
#######################################################################

data_DOHZUW
_symmetry_cell_setting           monoclinic
_symmetry_space_group_name_H-M   'P 21/c'
_symmetry_Int_Tables_number      14
_space_group_name_Hall           '-P 2ybc'
loop_
_symmetry_equiv_pos_site_id
_symmetry_equiv_pos_as_xyz
1 x,y,z
2 -x,1/2+y,1/2-z
3 -x,-y,-z
4 x,1/2-y,1/2+z
_cell_length_a                   7.8052(15)
_cell_length_b                   17.297(3)
_cell_length_c                   8.9172(18)
_cell_angle_alpha                90
_cell_angle_beta                 108.513(4)
_cell_angle_gamma                90
_cell_volume                     1141.58
loop_
_atom_site_label
_atom_site_type_symbol
_atom_site_fract_x
_atom_site_fract_y
_atom_site_fract_z
Cu1 Cu 0.0000 0.5000 0.5000
O1 O -0.3363(6) 0.5012(2) 0.3710(5)
O2 O -0.5408(8) 0.5588(5) 0.1655(7)
O3 O -0.4468(12) 0.6096(6) 0.3723(14)
N1 N 0.1615(5) 0.4062(2) 0.1348(4)
N2 N 0.0355(5) 0.4544(2) 0.3041(4)
N3 N 0.8405(5) 0.2010(2) 0.1777(4)
N4 N 0.9594(5) 0.1071(2) 0.0759(4)
N5 N -0.4377(5) 0.5443(2) 0.2853(5)
C1 C 0.2982(7) 0.3749(3) 0.0697(6)
H1 H 0.3557 0.4178 0.0320
H2 H 0.2382 0.3420 -0.0213
C2 C 0.4422(6) 0.3283(3) 0.1888(5)
H3 H 0.3841 0.2905 0.2388
H4 H 0.5150 0.3629 0.2716
C3 C 0.5671(7) 0.2855(3) 0.1136(6)
H5 H 0.4966 0.2482 0.0354
H6 H 0.6216 0.3226 0.0591
C4 C 0.7131(7) 0.2439(3) 0.2394(6)
H7 H 0.7812 0.2817 0.3175
H8 H 0.6567 0.2075 0.2937
C5 C 0.1899(6) 0.4319(3) 0.2841(5)
H9 H 0.3032 0.4337 0.3630
C6 C -0.0964(7) 0.4423(3) 0.1609(6)
H10 H -0.2201 0.4529 0.1387
C7 C -0.0187(6) 0.4124(3) 0.0570(5)
H11 H -0.0784 0.3986 -0.0487
C8 C 0.8177(7) 0.1298(3) 0.1148(6)
H12 H 0.7134 0.0997 0.1001
C9 C 1.0795(7) 0.1680(3) 0.1161(6)
H13 H 1.1939 0.1691 0.1020
C10 C 1.0077(7) 0.2255(3) 0.1787(6)
H14 H 1.0619 0.2733 0.2159
Cu1C Cu 1.0000 0.0000 0.0000
Cu1C_2 Cu -1.0000 1.0000 1.0000
O1B O 0.3363(6) 0.4988(2) 0.6290(5)
O2B O 0.5408(8) 0.4412(5) 0.8345(7)
O3B O 0.4468(12) 0.3904(6) 0.6277(14)
N1B N -0.1615(5) 0.5938(2) 0.8652(4)
N2B N -0.0355(5) 0.5456(2) 0.6959(4)
N3B N -0.8405(5) 0.7990(2) 0.8223(4)
N4B N -0.9594(5) 0.8929(2) 0.9241(4)
N4C N -0.0406(5) 0.3929(2) 0.5759(4)
N4A N 0.0406(5) 0.6071(2) 0.4241(4)
N5B N 0.4377(5) 0.4557(2) 0.7147(5)
C1B C -0.2982(7) 0.6251(3) 0.9303(6)
H1B H -0.3557 0.5822 0.9680
H2B H -0.2382 0.6580 1.0213
C2B C -0.4422(6) 0.6717(3) 0.8112(5)
H3B H -0.3841 0.7095 0.7612
H4B H -0.5150 0.6371 0.7284
C3B C -0.5671(7) 0.7145(3) 0.8864(6)
H5B H -0.4966 0.7518 0.9646
H6B H -0.6216 0.6774 0.9409
C4B C -0.7131(7) 0.7561(3) 0.7606(6)
H7B H -0.7812 0.7183 0.6825
H8B H -0.6567 0.7925 0.7063
C5B C -0.1899(6) 0.5681(3) 0.7159(5)
H9B H -0.3032 0.5663 0.6370
C6B C 0.0964(7) 0.5577(3) 0.8391(6)
H10B H 0.2201 0.5471 0.8613
C7B C 0.0187(6) 0.5876(3) 0.9430(5)
H11B H 0.0784 0.6014 1.0487
C8B C -0.8177(7) 0.8702(3) 0.8852(6)
H12B H -0.7134 0.9003 0.8999
C9B C -1.0795(7) 0.8320(3) 0.8839(6)
H13B H -1.1939 0.8309 0.8980
C10B C -1.0077(7) 0.7745(3) 0.8213(6)
H14B H -1.0619 0.7267 0.7841
loop_
_geom_bond_atom_site_label_1
_geom_bond_atom_site_label_2
_geom_bond_site_symmetry_1
_geom_bond_site_symmetry_2
Cu1 O1 1_555 1_555
O1 N5 1_555 1_555
O2 N5 1_555 1_555
O3 N5 1_555 1_555
N1 C1 1_555 1_555
N2 Cu1 1_555 1_555
N3 C4 1_555 1_555
N4 C8 1_555 1_555
C1 H1 1_555 1_555
H2 C1 1_555 1_555
C2 C1 1_555 1_555
H3 C2 1_555 1_555
H4 C2 1_555 1_555
C3 C2 1_555 1_555
H5 C3 1_555 1_555
H6 C3 1_555 1_555
C4 C3 1_555 1_555
H7 C4 1_555 1_555
H8 C4 1_555 1_555
C5 N1 1_555 1_555
H9 C5 1_555 1_555
C6 N2 1_555 1_555
H10 C6 1_555 1_555
C7 N1 1_555 1_555
H11 C7 1_555 1_555
C8 N3 1_555 1_555
H12 C8 1_555 1_555
C9 N4 1_555 1_555
H13 C9 1_555 1_555
C10 N3 1_555 1_555
H14 C10 1_555 1_555
Cu1C N4 1_555 1_555
Cu1C_2 N4B 1_555 1_555
O1B Cu1 1_555 1_555
O2B N5B 1_555 1_555
O3B N5B 1_555 1_555
N1B C1B 1_555 1_555
N2B Cu1 1_555 1_555
N3B C4B 1_555 1_555
N4B C8B 1_555 1_555
N4C Cu1 1_555 1_555
N4A Cu1 1_555 1_555
N5B O1B 1_555 1_555
C1B H1B 1_555 1_555
H2B C1B 1_555 1_555
C2B C1B 1_555 1_555
H3B C2B 1_555 1_555
H4B C2B 1_555 1_555
C3B C2B 1_555 1_555
H5B C3B 1_555 1_555
H6B C3B 1_555 1_555
C4B C3B 1_555 1_555
H7B C4B 1_555 1_555
H8B C4B 1_555 1_555
C5B N1B 1_555 1_555
H9B C5B 1_555 1_555
C6B N2B 1_555 1_555
H10B C6B 1_555 1_555
C7B N1B 1_555 1_555
H11B C7B 1_555 1_555
C8B N3B 1_555 1_555
H12B C8B 1_555 1_555
C9B N4B 1_555 1_555
H13B C9B 1_555 1_555
C10B N3B 1_555 1_555
H14B C10B 1_555 1_555
N2 C5 1_555 1_555
C6 C7 1_555 1_555
C9 C10 1_555 1_555
N2B C5B 1_555 1_555
C6B C7B 1_555 1_555
C9B C10B 1_555 1_555

#END
