
#######################################################################
#
#                 Cambridge Crystallographic Data Centre
#                                CCDC 
#
#######################################################################
#
# If this CIF has been generated from an entry in the Cambridge 
# Structural Database, then it will include bibliographic, chemical, 
# crystal, experimental, refinement or atomic coordinate data resulting 
# from the CCDC's data processing and validation procedures.
#
#######################################################################

data_DOHZIK
_symmetry_cell_setting           monoclinic
_symmetry_space_group_name_H-M   'P 21/c'
_symmetry_Int_Tables_number      14
_space_group_name_Hall           '-P 2ybc'
loop_
_symmetry_equiv_pos_site_id
_symmetry_equiv_pos_as_xyz
1 x,y,z
2 -x,1/2+y,1/2-z
3 -x,-y,-z
4 x,1/2-y,1/2+z
_cell_length_a                   8.9038(8)
_cell_length_b                   9.5907(9)
_cell_length_c                   14.3660(13)
_cell_angle_alpha                90
_cell_angle_beta                 91.068(2)
_cell_angle_gamma                90
_cell_volume                     1226.55
loop_
_atom_site_label
_atom_site_type_symbol
_atom_site_fract_x
_atom_site_fract_y
_atom_site_fract_z
Co1 Co 0.5000 0.0000 0.5000
S1 S 0.71973(5) 0.42245(5) 0.62405(3)
N1 N 0.34970(14) 0.04306(15) 0.21704(9)
N2 N 0.43122(14) 0.06259(14) 0.36247(9)
N3 N -0.07682(15) -0.03837(15) 0.36257(9)
N4 N -0.27976(14) -0.05314(14) 0.44857(9)
N5 N 0.57215(16) 0.20792(14) 0.52680(9)
C1 C 0.29330(19) -0.02485(19) 0.13223(11)
H1 H 0.3355 -0.1202 0.1290
H2 H 0.3286 0.0277 0.0775
C2 C 0.12214(19) -0.03363(19) 0.12781(11)
H3 H 0.0816 0.0614 0.1179
H4 H 0.0923 -0.0904 0.0730
C3 C 0.04908(18) -0.09608(17) 0.21400(11)
H5 H -0.0492 -0.1369 0.1956
H6 H 0.1134 -0.1723 0.2386
C4 C 0.02539(19) 0.01087(17) 0.29082(12)
H7 H 0.1237 0.0337 0.3203
H8 H -0.0158 0.0975 0.2628
C5 C 0.39994(17) -0.02442(17) 0.29344(11)
H9 H 0.4116 -0.1227 0.2974
C6 C 0.39906(17) 0.19363(17) 0.32747(11)
H10 H 0.4106 0.2786 0.3608
C7 C 0.34832(17) 0.18226(17) 0.23795(11)
H11 H 0.3179 0.2562 0.1979
C8 C -0.21445(18) 0.01259(17) 0.37912(11)
H12 H -0.2595 0.0870 0.3450
C9 C -0.17641(18) -0.15193(18) 0.47768(12)
H13 H -0.1909 -0.2163 0.5270
C10 C -0.05104(18) -0.14369(18) 0.42554(12)
H14 H 0.0367 -0.1995 0.4315
C11 C 0.63256(17) 0.29803(16) 0.56657(11)
Co1_2 Co -0.5000 0.0000 0.5000
Co1_3 Co 1.5000 0.0000 0.5000
S1B S 0.28027(5) -0.42245(5) 0.37595(3)
N1B N 0.65030(14) -0.04306(15) 0.78296(9)
N2B N 0.56878(14) -0.06259(14) 0.63753(9)
N3B N 1.07682(15) 0.03837(15) 0.63743(9)
N4B N 1.27976(14) 0.05314(14) 0.55143(9)
N4_2 N 0.72024(14) -0.05314(14) 0.44857(9)
N4B_2 N 0.27976(14) 0.05314(14) 0.55143(9)
N5B N 0.42785(16) -0.20792(14) 0.47320(9)
C1B C 0.70670(19) 0.02485(19) 0.86777(11)
H1B H 0.6645 0.1202 0.8710
H2B H 0.6714 -0.0277 0.9225
C2B C 0.87786(19) 0.03363(19) 0.87219(11)
H3B H 0.9184 -0.0614 0.8821
H4B H 0.9077 0.0904 0.9270
C3B C 0.95092(18) 0.09608(17) 0.78600(11)
H5B H 1.0492 0.1369 0.8044
H6B H 0.8866 0.1723 0.7614
C4B C 0.97461(19) -0.01087(17) 0.70918(12)
H7B H 0.8763 -0.0337 0.6797
H8B H 1.0158 -0.0975 0.7372
C5B C 0.60006(17) 0.02442(17) 0.70656(11)
H9B H 0.5884 0.1227 0.7026
C6B C 0.60094(17) -0.19363(17) 0.67253(11)
H10B H 0.5894 -0.2786 0.6392
C7B C 0.65168(17) -0.18226(17) 0.76205(11)
H11B H 0.6821 -0.2562 0.8021
C8B C 1.21445(18) -0.01259(17) 0.62088(11)
H12B H 1.2595 -0.0870 0.6550
C9B C 1.17641(18) 0.15193(18) 0.52232(12)
H13B H 1.1909 0.2163 0.4730
C10B C 1.05104(18) 0.14369(18) 0.57446(12)
H14B H 0.9633 0.1995 0.5685
C11B C 0.36744(17) -0.29803(16) 0.43343(11)
loop_
_geom_bond_atom_site_label_1
_geom_bond_atom_site_label_2
_geom_bond_site_symmetry_1
_geom_bond_site_symmetry_2
Co1 N2 1_555 1_555
S1 C11 1_555 1_555
N1 C1 1_555 1_555
N2 C5 1_555 1_555
N3 C4 1_555 1_555
N4 C8 1_555 1_555
N5 Co1 1_555 1_555
C1 H1 1_555 1_555
H2 C1 1_555 1_555
C2 C1 1_555 1_555
H3 C2 1_555 1_555
H4 C2 1_555 1_555
C3 C2 1_555 1_555
H5 C3 1_555 1_555
H6 C3 1_555 1_555
C4 C3 1_555 1_555
H7 C4 1_555 1_555
H8 C4 1_555 1_555
C5 N1 1_555 1_555
H9 C5 1_555 1_555
C6 N2 1_555 1_555
H10 C6 1_555 1_555
C7 N1 1_555 1_555
H11 C7 1_555 1_555
C8 N3 1_555 1_555
H12 C8 1_555 1_555
C9 N4 1_555 1_555
H13 C9 1_555 1_555
C10 N3 1_555 1_555
H14 C10 1_555 1_555
C11 N5 1_555 1_555
Co1_2 N4 1_555 1_555
Co1_3 N4B 1_555 1_555
S1B C11B 1_555 1_555
N1B C1B 1_555 1_555
N2B Co1 1_555 1_555
N3B C4B 1_555 1_555
N4B C8B 1_555 1_555
N4_2 Co1 1_555 1_555
N4B_2 Co1 1_555 1_555
N5B Co1 1_555 1_555
C1B H1B 1_555 1_555
H2B C1B 1_555 1_555
C2B C1B 1_555 1_555
H3B C2B 1_555 1_555
H4B C2B 1_555 1_555
C3B C2B 1_555 1_555
H5B C3B 1_555 1_555
H6B C3B 1_555 1_555
C4B C3B 1_555 1_555
H7B C4B 1_555 1_555
H8B C4B 1_555 1_555
C5B N1B 1_555 1_555
H9B C5B 1_555 1_555
C6B N2B 1_555 1_555
H10B C6B 1_555 1_555
C7B N1B 1_555 1_555
H11B C7B 1_555 1_555
C8B N3B 1_555 1_555
H12B C8B 1_555 1_555
C9B N4B 1_555 1_555
H13B C9B 1_555 1_555
C10B N3B 1_555 1_555
H14B C10B 1_555 1_555
C11B N5B 1_555 1_555
C6 C7 1_555 1_555
C9 C10 1_555 1_555
N2B C5B 1_555 1_555
C6B C7B 1_555 1_555
C9B C10B 1_555 1_555

#END
