
#######################################################################
#
#                 Cambridge Crystallographic Data Centre
#                                CCDC 
#
#######################################################################
#
# If this CIF has been generated from an entry in the Cambridge 
# Structural Database, then it will include bibliographic, chemical, 
# crystal, experimental, refinement or atomic coordinate data resulting 
# from the CCDC's data processing and validation procedures.
#
#######################################################################

data_DOJBEK
_symmetry_cell_setting           orthorhombic
_symmetry_space_group_name_H-M   'P b c a'
_symmetry_Int_Tables_number      61
_space_group_name_Hall           '-P 2ac 2ab'
loop_
_symmetry_equiv_pos_site_id
_symmetry_equiv_pos_as_xyz
1 x,y,z
2 1/2-x,-y,1/2+z
3 1/2+x,1/2-y,-z
4 -x,1/2+y,1/2-z
5 -x,-y,-z
6 1/2+x,y,1/2-z
7 1/2-x,1/2+y,z
8 x,1/2-y,1/2+z
_cell_length_a                   14.3450(1)
_cell_length_b                   5.8000(4)
_cell_length_c                   18.8380(5)
_cell_angle_alpha                90
_cell_angle_beta                 90
_cell_angle_gamma                90
_cell_volume                     1567.34
loop_
_atom_site_label
_atom_site_type_symbol
_atom_site_fract_x
_atom_site_fract_y
_atom_site_fract_z
Cd1 Cd 0.5000 0.0000 0.5000
Se1 Se 0.66378(5) 0.23163(15) 0.54579(4)
N1 N 0.5606(3) 0.6738(10) 0.5603(3)
C1 C 0.5992(5) 0.4989(10) 0.5560(3)
N2 N 0.4264(3) 0.1122(8) 0.6052(2)
C2 C 0.3735(5) 0.3008(12) 0.6101(4)
H1 H 0.3593 0.3803 0.5686
N3 N 0.3166(5) 0.3345(15) 0.7989(3)
C3 C 0.3388(4) 0.3843(13) 0.6736(3)
H2 H 0.3048 0.5209 0.6740
C4 C 0.3540(5) 0.2671(10) 0.7364(4)
C5 C 0.4083(5) 0.0681(13) 0.7305(3)
H3 H 0.4217 -0.0183 0.7709
C6 C 0.4420(5) -0.0008(10) 0.6659(3)
H4 H 0.4779 -0.1343 0.6641
H5 H 0.271(3) 0.428(9) 0.792(4)
H6 H 0.358(3) 0.342(13) 0.832(3)
Cd1_2 Cd 0.5000 1.0000 0.5000
Cd1_3 Cd 0.5000 -1.0000 0.5000
Se1D Se 0.33622(5) -0.23163(15) 0.45421(4)
N1D N 0.4394(3) -0.6738(10) 0.4397(3)
N1_2 N 0.5606(3) -0.3262(10) 0.5603(3)
N1D_2 N 0.4394(3) 0.3262(10) 0.4397(3)
C1D C 0.4008(5) -0.4989(10) 0.4440(3)
N2D N 0.5736(3) -0.1122(8) 0.3948(2)
C2D C 0.6265(5) -0.3008(12) 0.3899(4)
H1D H 0.6407 -0.3803 0.4314
N3D N 0.6834(5) -0.3345(15) 0.2011(3)
C3D C 0.6612(4) -0.3843(13) 0.3264(3)
H2D H 0.6952 -0.5209 0.3260
C4D C 0.6460(5) -0.2671(10) 0.2636(4)
C5D C 0.5917(5) -0.0681(13) 0.2695(3)
H3D H 0.5783 0.0183 0.2291
C6D C 0.5580(5) 0.0008(10) 0.3341(3)
H4D H 0.5221 0.1343 0.3359
H5D H 0.729(3) -0.428(9) 0.208(4)
H6D H 0.642(3) -0.342(13) 0.168(3)
loop_
_geom_bond_atom_site_label_1
_geom_bond_atom_site_label_2
_geom_bond_site_symmetry_1
_geom_bond_site_symmetry_2
Cd1 Se1 1_555 1_555
Se1 C1 1_555 1_555
N1 C1 1_555 1_555
N2 Cd1 1_555 1_555
C2 N2 1_555 1_555
H1 C2 1_555 1_555
N3 C4 1_555 1_555
C3 C2 1_555 1_555
H2 C3 1_555 1_555
C4 C3 1_555 1_555
C5 C4 1_555 1_555
H3 C5 1_555 1_555
C6 N2 1_555 1_555
H4 C6 1_555 1_555
H5 N3 1_555 1_555
H6 N3 1_555 1_555
Cd1_2 N1 1_555 1_555
Cd1_3 N1D 1_555 1_555
Se1D Cd1 1_555 1_555
N1D C1D 1_555 1_555
N1_2 Cd1 1_555 1_555
N1D_2 Cd1 1_555 1_555
C1D Se1D 1_555 1_555
N2D Cd1 1_555 1_555
C2D N2D 1_555 1_555
H1D C2D 1_555 1_555
N3D C4D 1_555 1_555
C3D C2D 1_555 1_555
H2D C3D 1_555 1_555
C4D C3D 1_555 1_555
C5D C4D 1_555 1_555
H3D C5D 1_555 1_555
C6D N2D 1_555 1_555
H4D C6D 1_555 1_555
H5D N3D 1_555 1_555
H6D N3D 1_555 1_555
C5 C6 1_555 1_555
C5D C6D 1_555 1_555

#END
