
#######################################################################
#
#                 Cambridge Crystallographic Data Centre
#                                CCDC 
#
#######################################################################
#
# If this CIF has been generated from an entry in the Cambridge 
# Structural Database, then it will include bibliographic, chemical, 
# crystal, experimental, refinement or atomic coordinate data resulting 
# from the CCDC's data processing and validation procedures.
#
#######################################################################

data_DOJCOW
_symmetry_cell_setting           orthorhombic
_symmetry_space_group_name_H-M   'P n a 21'
_symmetry_Int_Tables_number      33
_space_group_name_Hall           'P 2c -2n'
loop_
_symmetry_equiv_pos_site_id
_symmetry_equiv_pos_as_xyz
1 x,y,z
2 1/2-x,1/2+y,1/2+z
3 1/2+x,1/2-y,z
4 -x,-y,1/2+z
_cell_length_a                   11.5188(10)
_cell_length_b                   23.8743(13)
_cell_length_c                   14.0966(7)
_cell_angle_alpha                90
_cell_angle_beta                 90
_cell_angle_gamma                90
_cell_volume                     3876.61
loop_
_atom_site_label
_atom_site_type_symbol
_atom_site_fract_x
_atom_site_fract_y
_atom_site_fract_z
I1 I 0.56280(6) 0.35321(2) 0.91836(13)
I2 I 0.39500(6) -0.06011(3) 0.44183(13)
I3 I 0.06126(5) -0.05726(3) 1.23086(12)
Ag1 Ag 0.33518(6) 0.12060(3) 0.99299(9)
Ag2 Ag 0.42405(6) 0.11963(3) 0.75957(9)
Ag3 Ag 0.24299(5) 0.01841(3) 0.84211(10)
N1 N 0.4142(6) 0.1924(3) 0.9329(6)
N2 N 0.4705(6) 0.1865(3) 0.8477(5)
N3 N 0.3766(7) 0.0540(4) 0.6708(6)
N4 N 0.3190(6) 0.0093(3) 0.7104(6)
N5 N 0.1806(6) 0.0210(3) 0.9799(5)
N6 N 0.2422(6) 0.0512(3) 1.0464(5)
C1 C 0.2540(10) 0.2620(6) 1.0625(10)
C2 C 0.4419(13) 0.2399(7) 1.1421(9)
C3 C 0.3868(10) 0.2643(5) 1.0592(8)
C4 C 0.4350(8) 0.2441(4) 0.9663(6)
C5 C 0.5050(8) 0.2704(4) 0.9003(7)
C6 C 0.5264(7) 0.2344(4) 0.8280(7)
C7 C 0.5999(9) 0.2377(5) 0.7409(8)
C8 C 0.7230(11) 0.2298(8) 0.7608(12)
C9 C 0.5680(14) 0.2831(7) 0.6744(12)
C10 C 0.5947(10) 0.0875(7) 0.5505(12)
C11 C 0.4082(14) 0.1363(9) 0.5050(14)
C12 C 0.4742(11) 0.0798(6) 0.5192(8)
C13 C 0.4095(9) 0.0402(5) 0.5832(7)
C14 C 0.3709(7) -0.0135(4) 0.5648(7)
C15 C 0.3138(8) -0.0320(4) 0.6478(7)
C16 C 0.2574(8) -0.0872(4) 0.6661(8)
C17 C 0.3058(10) -0.1158(5) 0.7547(11)
C18 C 0.1265(9) -0.0830(6) 0.6743(10)
C19 C -0.0957(9) -0.0413(7) 0.9889(10)
C20 C 0.0667(12) -0.1151(5) 0.9772(9)
C21 C 0.0340(8) -0.0529(4) 0.9669(7)
C22 C 0.1111(7) -0.0162(4) 1.0245(6)
C23 C 0.1298(7) -0.0101(4) 1.1209(6)
C24 C 0.2117(7) 0.0330(4) 1.1336(6)
C25 C 0.2582(7) 0.0570(4) 1.2226(6)
C26 C 0.2027(10) 0.1126(5) 1.2433(8)
C27 C 0.3908(9) 0.0608(5) 1.2199(9)
H1 H 0.2260 0.2814 1.1175
H2 H 0.2224 0.2790 1.0064
H3 H 0.2302 0.2235 1.0654
H4 H 0.5228 0.2495 1.1405
H5 H 0.4078 0.2541 1.1994
H6 H 0.4335 0.1999 1.1403
H7 H 0.4053 0.3043 1.0617
H8 H 0.5794 0.2035 0.7064
H9 H 0.7361 0.1943 0.7908
H10 H 0.7664 0.2316 0.7027
H11 H 0.7479 0.2593 0.8023
H12 H 0.5759 0.3184 0.7062
H13 H 0.6174 0.2825 0.6195
H14 H 0.4888 0.2781 0.6550
H15 H 0.6350 0.0523 0.5518
H16 H 0.6335 0.1126 0.5077
H17 H 0.5942 0.1035 0.6130
H18 H 0.4466 0.1592 0.4587
H19 H 0.3306 0.1283 0.4840
H20 H 0.4053 0.1558 0.5645
H21 H 0.4779 0.0617 0.4569
H22 H 0.2747 -0.1117 0.6121
H23 H 0.2919 -0.0921 0.8085
H24 H 0.2676 -0.1511 0.7640
H25 H 0.3878 -0.1218 0.7477
H26 H 0.0958 -0.0681 0.6162
H27 H 0.0936 -0.1193 0.6857
H28 H 0.1072 -0.0584 0.7258
H29 H -0.1143 -0.0030 0.9750
H30 H -0.1430 -0.0656 0.9506
H31 H -0.1103 -0.0487 1.0547
H32 H 0.0597 -0.1263 1.0424
H33 H 0.0163 -0.1378 0.9388
H34 H 0.1455 -0.1201 0.9568
H35 H 0.0465 -0.0426 0.9004
H36 H 0.2375 0.0315 1.2744
H37 H 0.2035 0.1349 1.1866
H38 H 0.1240 0.1074 1.2639
H39 H 0.2458 0.1313 1.2922
H40 H 0.4130 0.0849 1.1685
H41 H 0.4187 0.0761 1.2786
H42 H 0.4237 0.0243 1.2105
I1B I 0.06280(6) 0.14679(2) 0.91836(13)
Ag1B Ag 0.83518(6) 0.37940(3) 0.99299(9)
loop_
_geom_bond_atom_site_label_1
_geom_bond_atom_site_label_2
_geom_bond_site_symmetry_1
_geom_bond_site_symmetry_2
I1 C5 1_555 1_555
I2 C14 1_555 1_555
I3 C23 1_555 1_555
Ag1 N1 1_555 1_555
Ag2 N2 1_555 1_555
Ag3 N4 1_555 1_555
N1 N2 1_555 1_555
N2 C6 1_555 1_555
N3 Ag2 1_555 1_555
N4 N3 1_555 1_555
N5 Ag3 1_555 1_555
N6 Ag1 1_555 1_555
C1 C3 1_555 1_555
C2 C3 1_555 1_555
C3 C4 1_555 1_555
C4 N1 1_555 1_555
C5 C4 1_555 1_555
C6 C5 1_555 1_555
C7 C6 1_555 1_555
C8 C7 1_555 1_555
C9 C7 1_555 1_555
C10 C12 1_555 1_555
C11 C12 1_555 1_555
C12 C13 1_555 1_555
C13 N3 1_555 1_555
C14 C13 1_555 1_555
C15 N4 1_555 1_555
C16 C15 1_555 1_555
C17 C16 1_555 1_555
C18 C16 1_555 1_555
C19 C21 1_555 1_555
C20 C21 1_555 1_555
C21 C22 1_555 1_555
C22 N5 1_555 1_555
C23 C22 1_555 1_555
C24 N6 1_555 1_555
C25 C24 1_555 1_555
C26 C25 1_555 1_555
C27 C25 1_555 1_555
H1 C1 1_555 1_555
H2 C1 1_555 1_555
H3 C1 1_555 1_555
H4 C2 1_555 1_555
H5 C2 1_555 1_555
H6 C2 1_555 1_555
H7 C3 1_555 1_555
H8 C7 1_555 1_555
H9 C8 1_555 1_555
H10 C8 1_555 1_555
H11 C8 1_555 1_555
H12 C9 1_555 1_555
H13 C9 1_555 1_555
H14 C9 1_555 1_555
H15 C10 1_555 1_555
H16 C10 1_555 1_555
H17 C10 1_555 1_555
H18 C11 1_555 1_555
H19 C11 1_555 1_555
H20 C11 1_555 1_555
H21 C12 1_555 1_555
H22 C16 1_555 1_555
H23 C17 1_555 1_555
H24 C17 1_555 1_555
H25 C17 1_555 1_555
H26 C18 1_555 1_555
H27 C18 1_555 1_555
H28 C18 1_555 1_555
H29 C19 1_555 1_555
H30 C19 1_555 1_555
H31 C19 1_555 1_555
H32 C20 1_555 1_555
H33 C20 1_555 1_555
H34 C20 1_555 1_555
H35 C21 1_555 1_555
H36 C25 1_555 1_555
H37 C26 1_555 1_555
H38 C26 1_555 1_555
H39 C26 1_555 1_555
H40 C27 1_555 1_555
H41 C27 1_555 1_555
H42 C27 1_555 1_555
I1B Ag1 1_555 1_555
Ag1B I1 1_555 1_555
N5 N6 1_555 1_555
C14 C15 1_555 1_555
C23 C24 1_555 1_555

#END
