
#######################################################################
#
#                 Cambridge Crystallographic Data Centre
#                                CCDC 
#
#######################################################################
#
# If this CIF has been generated from an entry in the Cambridge 
# Structural Database, then it will include bibliographic, chemical, 
# crystal, experimental, refinement or atomic coordinate data resulting 
# from the CCDC's data processing and validation procedures.
#
#######################################################################

data_DOJHEQ
_symmetry_cell_setting           triclinic
_symmetry_space_group_name_H-M   'P -1'
_symmetry_Int_Tables_number      2
_space_group_name_Hall           '-P 1'
loop_
_symmetry_equiv_pos_site_id
_symmetry_equiv_pos_as_xyz
1 x,y,z
2 -x,-y,-z
_cell_length_a                   9.6169(8)
_cell_length_b                   16.9846(15)
_cell_length_c                   17.5685(15)
_cell_angle_alpha                99.685(1)
_cell_angle_beta                 105.854(1)
_cell_angle_gamma                93.874(1)
_cell_volume                     2701.55
loop_
_atom_site_label
_atom_site_type_symbol
_atom_site_fract_x
_atom_site_fract_y
_atom_site_fract_z
Nd1 Nd 1.240740(15) 0.500601(9) 1.005997(8)
S1 S 1.09775(7) 0.57772(4) 0.70649(4)
S2 S 1.39347(8) 0.61867(5) 1.34779(5)
S3 S 1.29368(7) 0.25498(4) 1.15554(4)
O1 O 1.3923(2) 0.64026(12) 1.05236(13)
H1 H 1.3630 0.6748 1.0251
H2 H 1.4202 0.6612 1.1014
O2 O 1.3363(2) 0.36905(12) 0.97966(13)
H3 H 1.3077 0.3318 0.9988
H4 H 1.4199 0.3654 0.9759
O3 O 1.0384(3) 0.95773(16) 0.6265(2)
O4 O 0.9656(2) 0.58049(12) 0.72945(12)
O5 O 1.1042(2) 0.51840(13) 0.63943(12)
O6 O 1.3824(2) 0.51543(12) 0.91462(11)
O7 O 1.57004(19) 0.49926(13) 0.86473(11)
O8 O 1.3715(3) 0.23611(15) 1.42633(15)
O9 O 1.5396(2) 0.61966(16) 1.34125(14)
O10 O 1.3552(3) 0.68721(14) 1.39385(14)
O11 O 1.1377(2) 0.56806(14) 1.10340(12)
O12 O 0.9223(2) 0.57404(13) 1.12642(12)
O13 O 1.0337(4) -0.14620(17) 1.0572(2)
O14 O 1.3016(2) 0.25002(13) 1.07452(13)
O15 O 1.4199(2) 0.28702(13) 1.22215(13)
O16 O 1.1063(2) 0.40047(14) 1.04726(14)
O17 O 0.8857(2) 0.40207(12) 1.06542(12)
N1 N 1.2209(2) 0.56661(14) 0.78481(14)
H5 H 1.2026 0.5754 0.8305
N2 N 1.2908(3) 0.60672(16) 1.25592(14)
H6 H 1.3295 0.6039 1.2169
N3 N 1.1674(3) 0.30791(15) 1.16961(15)
H7 H 1.1842 0.3420 1.2142
N4 N 1.2228(3) 0.88758(16) 0.60905(17)
H8 H 1.2998 0.8904 0.5932
N5 N 1.2601(3) 0.33422(16) 1.48294(15)
H9 H 1.2058 0.3429 1.5143
N6 N 1.1051(3) -0.07638(17) 1.18605(19)
H10 H 1.1122 -0.0815 1.2348
C1 C 1.2110(4) 1.0185(2) 0.5729(3)
H11 H 1.1408 1.0266 0.5251
H12 H 1.2976 1.0036 0.5600
H13 H 1.2344 1.0674 0.6127
C2 C 1.1483(4) 0.9523(2) 0.6059(2)
C3 C 1.1907(3) 0.81644(18) 0.63492(18)
C4 C 1.0807(4) 0.80529(19) 0.6710(2)
H14 H 1.0241 0.8464 0.6793
C5 C 1.0551(3) 0.73310(19) 0.69440(19)
H15 H 0.9818 0.7261 0.7188
C6 C 1.1381(3) 0.67131(17) 0.68181(17)
C7 C 1.2491(3) 0.68256(19) 0.64640(19)
H16 H 1.3055 0.6414 0.6382
C8 C 1.2757(3) 0.7543(2) 0.6236(2)
H17 H 1.3507 0.7616 0.6005
C9 C 1.3627(3) 0.54231(18) 0.78267(16)
H18 H 1.4213 0.5869 0.7741
H19 H 1.3493 0.4980 0.7376
C10 C 1.4434(3) 0.51656(16) 0.86008(15)
C11 C 1.2551(5) 0.2060(2) 1.5230(3)
H20 H 1.3393 0.1882 1.5563
H21 H 1.2046 0.2353 1.5565
H22 H 1.1916 0.1601 1.4885
C12 C 1.3016(4) 0.2592(2) 1.4727(2)
C13 C 1.2942(3) 0.39954(18) 1.44905(17)
C14 C 1.2548(4) 0.4734(2) 1.47770(18)
H23 H 1.2081 0.4777 1.5179
C15 C 1.2840(4) 0.5407(2) 1.44737(18)
H24 H 1.2573 0.5899 1.4671
C16 C 1.3532(3) 0.53448(18) 1.38754(17)
C17 C 1.3918(3) 0.4606(2) 1.35796(19)
H25 H 1.4373 0.4562 1.3173
C18 C 1.3629(3) 0.3934(2) 1.38874(19)
H26 H 1.3896 0.3442 1.3690
C19 C 1.1322(3) 0.60075(18) 1.23882(16)
H27 H 1.0995 0.5597 1.2645
H28 H 1.1048 0.6516 1.2610
C20 C 1.0592(3) 0.57968(16) 1.14901(17)
C21 C 1.0419(6) -0.2204(2) 1.1619(3)
H29 H 1.1353 -0.2393 1.1784
H30 H 1.0045 -0.2090 1.2075
H31 H 0.9760 -0.2610 1.1209
C22 C 1.0575(4) -0.1444(2) 1.1287(3)
C23 C 1.1443(4) 0.00143(19) 1.1754(2)
C24 C 1.1364(4) 0.0204(2) 1.1006(2)
H32 H 1.1002 -0.0190 1.0542
C25 C 1.1822(4) 0.09763(19) 1.0946(2)
H33 H 1.1766 0.1098 1.0443
C26 C 1.2360(3) 0.15654(17) 1.16342(18)
C27 C 1.2421(4) 0.13864(19) 1.23828(19)
H34 H 1.2775 0.1783 1.2846
C28 C 1.1954(4) 0.0620(2) 1.2440(2)
H35 H 1.1981 0.0504 1.2942
C29 C 1.0262(3) 0.30056(17) 1.11021(17)
H36 H 1.0165 0.2534 1.0686
H37 H 0.9504 0.2929 1.1360
C30 C 1.0046(3) 0.37417(16) 1.07131(16)
Nd1A Nd 1.759260(15) 0.499399(9) 0.994003(8)
Nd1A_2 Nd 0.759260(15) 0.499399(9) 0.994003(8)
O7A O 1.42996(19) 0.50074(13) 1.13527(11)
O12A O 1.0777(2) 0.42596(13) 0.87358(12)
O17A O 1.1143(2) 0.59793(12) 0.93458(12)
O18 O 0.5225(3) 0.72503(16) 0.20732(16)
H38 H 0.5135 0.7285 0.2536
H39 H 0.5468 0.7701 0.1989
O19 O 0.4791(3) 0.89619(17) 0.54988(19)
H40 H 0.5282 0.8576 0.5544
H41 H 0.5216 0.9371 0.5832
O20 O 0.8753(4) 0.21867(17) 0.5802(2)
H42 H 0.9188 0.2169 0.6283
H43 H 0.8883 0.2646 0.5715
O21 O 0.0885(3) 0.35051(15) 0.60385(17)
H44 H 0.1253 0.3384 0.6488
H45 H 0.0695 0.3981 0.6113
O22 O 0.8959(3) 0.08863(17) 0.65207(18)
H46 H 0.9203 0.1328 0.6419
H47 H 0.9557 0.0566 0.6457
O23 O 0.5960(4) 0.0596(2) 0.6030(2)
H48 H 0.5465 0.0199 0.5548
H49 H 0.6863 0.0610 0.6135
O24 O 0.2073(4) 0.3408(2) 0.76111(18)
H50 H 0.2940 0.3358 0.7800
H51 H 0.1766 0.3700 0.7945
N7 N 0.6021(4) -0.1136(2) 0.2074(3)
N8 N 0.6523(3) 0.22685(19) 0.0254(2)
C31 C 0.6893(6) -0.1077(3) 0.1611(4)
H52 H 0.7395 -0.1513 0.1505
C32 C 0.7111(5) -0.0414(3) 0.1275(3)
H53 H 0.7742 -0.0410 0.0957
C33 C 0.6370(4) 0.0243(2) 0.1418(2)
C34 C 0.5489(4) 0.0194(2) 0.1918(2)
H54 H 0.4989 0.0623 0.2047
C35 C 0.5356(5) -0.0495(3) 0.2225(3)
H55 H 0.4759 -0.0509 0.2560
C36 C 0.6639(5) 0.1525(3) -0.0101(3)
H56 H 0.6741 0.1449 -0.0619
C37 C 0.6616(5) 0.0860(2) 0.0259(3)
H57 H 0.6707 0.0357 -0.0015
C38 C 0.6457(4) 0.0947(2) 0.1024(2)
C39 C 0.6335(4) 0.1717(2) 0.1393(2)
H58 H 0.6230 0.1810 0.1910
C40 C 0.6371(4) 0.2344(2) 0.0990(2)
H59 H 0.6282 0.2854 0.1251
loop_
_geom_bond_atom_site_label_1
_geom_bond_atom_site_label_2
_geom_bond_site_symmetry_1
_geom_bond_site_symmetry_2
Nd1 O1 1_555 1_555
S1 O4 1_555 1_555
S2 O9 1_555 1_555
S3 O14 1_555 1_555
O1 H1 1_555 1_555
H2 O1 1_555 1_555
O2 Nd1 1_555 1_555
H3 O2 1_555 1_555
H4 O2 1_555 1_555
O3 C2 1_555 1_555
O5 S1 1_555 1_555
O6 Nd1 1_555 1_555
O7 C10 1_555 1_555
O8 C12 1_555 1_555
O10 S2 1_555 1_555
O11 Nd1 1_555 1_555
O12 C20 1_555 1_555
O13 C22 1_555 1_555
O15 S3 1_555 1_555
O16 Nd1 1_555 1_555
O17 C30 1_555 1_555
N1 S1 1_555 1_555
H5 N1 1_555 1_555
N2 S2 1_555 1_555
H6 N2 1_555 1_555
N3 S3 1_555 1_555
H7 N3 1_555 1_555
N4 H8 1_555 1_555
N5 H9 1_555 1_555
N6 H10 1_555 1_555
C1 H11 1_555 1_555
H12 C1 1_555 1_555
H13 C1 1_555 1_555
C2 N4 1_555 1_555
C3 N4 1_555 1_555
C4 C3 1_555 1_555
H14 C4 1_555 1_555
C5 C4 1_555 1_555
H15 C5 1_555 1_555
C6 S1 1_555 1_555
C7 C6 1_555 1_555
H16 C7 1_555 1_555
C8 C3 1_555 1_555
H17 C8 1_555 1_555
C9 N1 1_555 1_555
H18 C9 1_555 1_555
H19 C9 1_555 1_555
C10 O6 1_555 1_555
C11 H20 1_555 1_555
H21 C11 1_555 1_555
H22 C11 1_555 1_555
C12 N5 1_555 1_555
C13 N5 1_555 1_555
C14 C13 1_555 1_555
H23 C14 1_555 1_555
C15 C14 1_555 1_555
H24 C15 1_555 1_555
C16 S2 1_555 1_555
C17 C16 1_555 1_555
H25 C17 1_555 1_555
C18 C13 1_555 1_555
H26 C18 1_555 1_555
C19 N2 1_555 1_555
H27 C19 1_555 1_555
H28 C19 1_555 1_555
C20 O11 1_555 1_555
C21 H29 1_555 1_555
H30 C21 1_555 1_555
H31 C21 1_555 1_555
C22 N6 1_555 1_555
C23 N6 1_555 1_555
C24 C23 1_555 1_555
H32 C24 1_555 1_555
C25 C24 1_555 1_555
H33 C25 1_555 1_555
C26 S3 1_555 1_555
C27 C26 1_555 1_555
H34 C27 1_555 1_555
C28 C23 1_555 1_555
H35 C28 1_555 1_555
C29 N3 1_555 1_555
H36 C29 1_555 1_555
H37 C29 1_555 1_555
C30 O16 1_555 1_555
O18 H38 1_555 1_555
H39 O18 1_555 1_555
O19 H40 1_555 1_555
H41 O19 1_555 1_555
O20 H42 1_555 1_555
H43 O20 1_555 1_555
O21 H44 1_555 1_555
H45 O21 1_555 1_555
O22 H46 1_555 1_555
H47 O22 1_555 1_555
O23 H48 1_555 1_555
H49 O23 1_555 1_555
O24 H50 1_555 1_555
H51 O24 1_555 1_555
N7 C31 1_555 1_555
N8 C36 1_555 1_555
C31 H52 1_555 1_555
C32 C31 1_555 1_555
H53 C32 1_555 1_555
C33 C32 1_555 1_555
C34 C33 1_555 1_555
H54 C34 1_555 1_555
C35 N7 1_555 1_555
H55 C35 1_555 1_555
C36 H56 1_555 1_555
C37 C36 1_555 1_555
H57 C37 1_555 1_555
C38 C33 1_555 1_555
C39 C38 1_555 1_555
H58 C39 1_555 1_555
C40 N8 1_555 1_555
H59 C40 1_555 1_555
Nd1A O7 1_555 1_555
Nd1A_2 O12 1_555 1_555
O7A Nd1 1_555 1_555
O12A Nd1 1_555 1_555
O17A Nd1 1_555 1_555
O17 Nd1A_2 1_555 1_555
C1 C2 1_555 1_555
C5 C6 1_555 1_555
C7 C8 1_555 1_555
C9 C10 1_555 1_555
C11 C12 1_555 1_555
C15 C16 1_555 1_555
C17 C18 1_555 1_555
C19 C20 1_555 1_555
C21 C22 1_555 1_555
C25 C26 1_555 1_555
C27 C28 1_555 1_555
C29 C30 1_555 1_555
C34 C35 1_555 1_555
C37 C38 1_555 1_555
C39 C40 1_555 1_555

#END
