
#######################################################################
#
#                 Cambridge Crystallographic Data Centre
#                                CCDC 
#
#######################################################################
#
# If this CIF has been generated from an entry in the Cambridge 
# Structural Database, then it will include bibliographic, chemical, 
# crystal, experimental, refinement or atomic coordinate data resulting 
# from the CCDC's data processing and validation procedures.
#
#######################################################################

data_DOJKAQ
_symmetry_cell_setting           monoclinic
_symmetry_space_group_name_H-M   'C 2/c'
_symmetry_Int_Tables_number      15
_space_group_name_Hall           '-C 2yn'
loop_
_symmetry_equiv_pos_site_id
_symmetry_equiv_pos_as_xyz
1 x,y,z
2 -x,y,1/2-z
3 1/2+x,1/2+y,z
4 1/2-x,1/2+y,1/2-z
5 -x,-y,-z
6 x,-y,1/2+z
7 1/2-x,1/2-y,-z
8 1/2+x,1/2-y,1/2+z
_cell_length_a                   15.288(2)
_cell_length_b                   15.615(2)
_cell_length_c                   18.563(4)
_cell_angle_alpha                90
_cell_angle_beta                 109.969(5)
_cell_angle_gamma                90
_cell_volume                     4164.97
loop_
_atom_site_label
_atom_site_type_symbol
_atom_site_fract_x
_atom_site_fract_y
_atom_site_fract_z
Zn1 Zn 0.28748(3) 0.25105(3) 0.08539(3)
I1 I 0.30841(3) -0.05806(3) 0.04944(3)
I2 I -0.00020(3) 0.17165(2) 0.12096(3)
O1 O 0.3638(3) 0.1586(2) 0.0571(2)
O2 O 0.3108(3) 0.1544(2) -0.0719(2)
O3 O 0.1299(2) 0.1606(2) -0.0625(2)
O4 O 0.1806(2) 0.1654(2) 0.0654(2)
O5 O 0.3377(3) 0.2427(2) 0.1991(2)
N1 N 0.3170(5) 0.2272(5) 0.3122(3)
C1 C 0.4316(3) 0.0607(3) -0.0037(3)
C2 C 0.4241(3) -0.0216(3) 0.0206(3)
C3 C 0.4915(4) -0.0817(3) 0.0248(3)
H1 H 0.4859 -0.1367 0.0419
C4 C 0.3614(3) 0.1303(3) -0.0075(3)
C5 C 0.0601(3) 0.0681(3) 0.0027(3)
C6 C 0.0046(3) 0.0689(3) 0.0487(3)
C7 C 0.0548(3) -0.0001(3) -0.0447(3)
H2 H 0.0921 -0.0006 -0.0751
C8 C 0.1297(3) 0.1381(3) 0.0027(3)
C9 C 0.2876(5) 0.2353(4) 0.2380(4)
H3 H 0.2236 0.2354 0.2125
C10 C 0.4141(9) 0.2259(13) 0.3524(6)
H4 H 0.4467 0.2332 0.3168
H5 H 0.4311 0.1720 0.3783
H6 H 0.4302 0.2715 0.3892
C11 C 0.2508(9) 0.2211(9) 0.3557(6)
H7 H 0.1888 0.2329 0.3219
H8 H 0.2680 0.2620 0.3968
H9 H 0.2532 0.1644 0.3764
I1D I 0.69159(3) 0.05806(3) -0.04944(3)
O1D O 0.6362(3) -0.1586(2) -0.0571(2)
O2D O 0.6892(3) -0.1544(2) 0.0719(2)
C1D C 0.5684(3) -0.0607(3) 0.0037(3)
C2D C 0.5759(3) 0.0216(3) -0.0206(3)
C3D C 0.5085(4) 0.0817(3) -0.0248(3)
H1D H 0.5141 0.1367 -0.0419
C4D C 0.6386(3) -0.1303(3) 0.0075(3)
I2D I 0.00020(3) -0.17165(2) -0.12096(3)
O3D O -0.1299(2) -0.1606(2) 0.0625(2)
O4D O -0.1806(2) -0.1654(2) -0.0654(2)
C5D C -0.0601(3) -0.0681(3) -0.0027(3)
C6D C -0.0046(3) -0.0689(3) -0.0487(3)
C7D C -0.0548(3) 0.0001(3) 0.0447(3)
H2D H -0.0921 0.0006 0.0751
C8D C -0.1297(3) -0.1381(3) -0.0027(3)
Zn1D Zn -0.28748(3) -0.25105(3) -0.08539(3)
O5D O -0.3377(3) -0.2427(2) -0.1991(2)
N1D N -0.3170(5) -0.2272(5) -0.3122(3)
C9D C -0.2876(5) -0.2353(4) -0.2380(4)
H3D H -0.2236 -0.2354 -0.2125
C10D C -0.4141(9) -0.2259(13) -0.3524(6)
H4D H -0.4467 -0.2332 -0.3168
H5D H -0.4311 -0.1720 -0.3783
H6D H -0.4302 -0.2715 -0.3892
C11D C -0.2508(9) -0.2211(9) -0.3557(6)
H7D H -0.1888 -0.2329 -0.3219
H8D H -0.2680 -0.2620 -0.3968
H9D H -0.2532 -0.1644 -0.3764
Zn1B Zn -0.21252(3) -0.24895(3) 0.08539(3)
Zn1B_2 Zn 0.78748(3) -0.24895(3) 0.08539(3)
Zn1D_2 Zn 0.71252(3) -0.25105(3) -0.08539(3)
Zn1F Zn 0.21252(3) 0.24895(3) -0.08539(3)
O1D_2 O -0.3638(3) -0.1586(2) -0.0571(2)
O2B O -0.1892(3) -0.3456(2) -0.0719(2)
O2F O 0.1892(3) 0.3456(2) 0.0719(2)
O3B O -0.3701(2) -0.3394(2) -0.0625(2)
O3F O 0.3701(2) 0.3394(2) 0.0625(2)
loop_
_geom_bond_atom_site_label_1
_geom_bond_atom_site_label_2
_geom_bond_site_symmetry_1
_geom_bond_site_symmetry_2
Zn1 O1 1_555 1_555
I1 C2 1_555 1_555
I2 C6 1_555 1_555
O1 C4 1_555 1_555
O2 C4 1_555 1_555
O3 C8 1_555 1_555
O4 Zn1 1_555 1_555
O5 Zn1 1_555 1_555
N1 C9 1_555 1_555
C1 C2 1_555 1_555
C2 C3 1_555 1_555
C3 H1 1_555 1_555
C4 C1 1_555 1_555
C5 C6 1_555 1_555
C6 C7D 1_555 1_555
C7 C5 1_555 1_555
H2 C7 1_555 1_555
C8 O4 1_555 1_555
C9 O5 1_555 1_555
H3 C9 1_555 1_555
C10 N1 1_555 1_555
H4 C10 1_555 1_555
H5 C10 1_555 1_555
H6 C10 1_555 1_555
C11 N1 1_555 1_555
H7 C11 1_555 1_555
H8 C11 1_555 1_555
H9 C11 1_555 1_555
I1D C2D 1_555 1_555
O1D C4D 1_555 1_555
O2D C4D 1_555 1_555
C1D C3 1_555 1_555
C2D C1D 1_555 1_555
C3D C1 1_555 1_555
H1D C3D 1_555 1_555
C4D C1D 1_555 1_555
I2D C6D 1_555 1_555
O3D C8D 1_555 1_555
O4D C8D 1_555 1_555
C5D C6D 1_555 1_555
C6D C7 1_555 1_555
C7D C5D 1_555 1_555
H2D C7D 1_555 1_555
C8D C5D 1_555 1_555
Zn1D O4D 1_555 1_555
O5D Zn1D 1_555 1_555
N1D C9D 1_555 1_555
C9D O5D 1_555 1_555
H3D C9D 1_555 1_555
C10D N1D 1_555 1_555
H4D C10D 1_555 1_555
H5D C10D 1_555 1_555
H6D C10D 1_555 1_555
C11D N1D 1_555 1_555
H7D C11D 1_555 1_555
H8D C11D 1_555 1_555
H9D C11D 1_555 1_555
Zn1B O3D 1_555 1_555
Zn1B_2 O2D 1_555 1_555
Zn1D_2 O1D 1_555 1_555
Zn1F O2 1_555 1_555
O1D_2 Zn1D 1_555 1_555
O2B Zn1D 1_555 1_555
O2F Zn1 1_555 1_555
O3B Zn1D 1_555 1_555
O3F Zn1 1_555 1_555
O3 Zn1F 1_555 1_555
C5 C8 1_555 1_555
C2D C3D 1_555 1_555

#END
