
#######################################################################
#
#                 Cambridge Crystallographic Data Centre
#                                CCDC 
#
#######################################################################
#
# If this CIF has been generated from an entry in the Cambridge 
# Structural Database, then it will include bibliographic, chemical, 
# crystal, experimental, refinement or atomic coordinate data resulting 
# from the CCDC's data processing and validation procedures.
#
#######################################################################

data_DOJKAP
_symmetry_cell_setting           triclinic
_symmetry_space_group_name_H-M   'P -1'
_symmetry_Int_Tables_number      2
_space_group_name_Hall           '-P 1'
loop_
_symmetry_equiv_pos_site_id
_symmetry_equiv_pos_as_xyz
1 x,y,z
2 -x,-y,-z
_cell_length_a                   13.250(3)
_cell_length_b                   16.539(4)
_cell_length_c                   18.526(5)
_cell_angle_alpha                88.519(5)
_cell_angle_beta                 81.887(4)
_cell_angle_gamma                83.185(4)
_cell_volume                     3990.62
loop_
_atom_site_label
_atom_site_type_symbol
_atom_site_fract_x
_atom_site_fract_y
_atom_site_fract_z
Si1 Si -0.51032(15) -0.66518(11) 0.23883(10)
Mo1 Mo -0.36795(7) -0.84817(4) 0.28201(5)
Mo2 Mo -0.43427(7) -0.82479(4) 0.11408(4)
Mo3 Mo -0.61219(7) -0.85307(4) 0.25703(5)
Mo4 Mo -0.76466(6) -0.66505(6) 0.20511(5)
Mo5 Mo -0.69453(6) -0.68994(5) 0.39089(4)
Mo6 Mo -0.45137(6) -0.68705(5) 0.41910(4)
Mo7 Mo -0.25365(6) -0.65510(6) 0.26444(5)
Mo8 Mo -0.31625(7) -0.63304(6) 0.09482(4)
Mo9 Mo -0.58490(7) -0.63443(6) 0.06432(4)
Mo10 Mo -0.66160(7) -0.48903(4) 0.18729(5)
Mo11 Mo -0.58971(7) -0.51583(4) 0.37218(4)
Mo12 Mo -0.39273(6) -0.48472(4) 0.21551(5)
O1 O -0.2861(5) -0.9237(4) 0.3127(4)
O2 O -0.3929(6) -0.8855(4) 0.0419(3)
O3 O -0.6866(6) -0.9300(4) 0.2725(4)
O4 O -0.8889(5) -0.6785(4) 0.2062(4)
O5 O -0.7924(5) -0.7168(4) 0.4512(3)
O6 O -0.3996(5) -0.7135(4) 0.4945(3)
O7 O -0.1357(5) -0.6659(5) 0.2867(4)
O8 O -0.2382(6) -0.6288(4) 0.0157(4)
O9 O -0.5949(5) -0.6342(4) -0.0253(3)
O10 O -0.7213(6) -0.3944(4) 0.1786(4)
O11 O -0.6247(6) -0.4298(3) 0.4189(3)
O12 O -0.3588(6) -0.3897(4) 0.2155(4)
O13 O -0.3484(5) -0.8776(3) 0.1811(3)
O14 O -0.5452(5) -0.8827(3) 0.1609(3)
O15 O -0.4923(5) -0.9031(3) 0.2938(3)
O16 O -0.4210(5) -0.7888(3) 0.3668(3)
O17 O -0.2806(5) -0.7662(3) 0.2585(3)
O18 O -0.3415(4) -0.7428(3) 0.0983(3)
O19 O -0.5300(4) -0.7464(3) 0.0777(3)
O20 O -0.7008(5) -0.7736(3) 0.2130(3)
O21 O -0.6501(4) -0.7918(3) 0.3423(3)
O22 O -0.5872(4) -0.7158(3) 0.4516(3)
O23 O -0.3393(5) -0.6515(3) 0.3549(3)
O24 O -0.2161(4) -0.6556(3) 0.1593(3)
O25 O -0.4501(4) -0.6103(3) 0.0649(3)
O26 O -0.7200(5) -0.6650(4) 0.1026(3)
O27 O -0.7604(4) -0.6591(3) 0.3076(3)
O28 O -0.6997(5) -0.5781(3) 0.4159(3)
O29 O -0.5045(5) -0.5751(3) 0.4377(3)
O30 O -0.2768(5) -0.5391(3) 0.2576(3)
O31 O -0.3254(5) -0.5195(3) 0.1223(3)
O32 O -0.6375(5) -0.5243(3) 0.0886(3)
O33 O -0.7803(5) -0.5469(4) 0.2016(3)
O34 O -0.6618(5) -0.4933(3) 0.2899(3)
O35 O -0.4716(5) -0.4908(3) 0.3111(3)
O36 O -0.5212(5) -0.4701(3) 0.1812(3)
O37 O -0.5486(4) -0.6460(3) 0.3246(3)
O38 O -0.4059(4) -0.6241(3) 0.2136(3)
O39 O -0.5999(4) -0.6265(3) 0.1912(3)
O40 O -0.4889(4) -0.7630(3) 0.2270(3)
Eu1 Eu -0.05217(3) -0.17154(2) 0.29390(2)
O41 O -0.0093(5) -0.1493(6) 0.1647(4)
H1 H -0.0349 -0.1060 0.1452
H2 H 0.0528 -0.1683 0.1514
O42 O -0.0842(6) -0.0252(4) 0.3037(4)
H3 H -0.1318 0.0048 0.2863
H4 H -0.0403 -0.0083 0.3272
O43 O -0.0060(5) -0.1266(4) 0.4065(3)
H5 H -0.0333 -0.0840 0.4296
H6 H 0.0418 -0.1602 0.4195
O44 O -0.1986(5) -0.1183(4) 0.2338(3)
O45 O -0.8447(6) -0.1800(6) 0.0711(4)
O46 O -0.1933(4) -0.1874(3) 0.3835(3)
O47 O -0.8769(5) -0.1613(4) 0.2588(4)
O48 O -0.1049(5) -0.2929(4) 0.2523(4)
O49 O 0.1611(8) -0.7371(5) -0.0730(5)
O50 O 0.0474(5) -0.2846(3) 0.3445(4)
O51 O -0.1302(6) -0.8163(4) 0.5050(5)
N1 N -0.2797(5) -0.1299(4) 0.2029(4)
N2 N -0.7538(6) -0.1715(5) 0.0903(4)
N3 N -0.2930(5) -0.1851(4) 0.3759(4)
N4 N -0.7910(5) -0.1682(4) 0.2889(4)
N5 N -0.0626(5) -0.3559(4) 0.2122(4)
N6 N 0.1249(7) -0.6774(6) -0.0251(4)
N7 N 0.0194(6) -0.3566(4) 0.3650(4)
N8 N -0.1109(6) -0.7424(4) 0.4799(5)
C1 C -0.3345(8) -0.0636(5) 0.1794(6)
H7 H -0.3100 -0.0132 0.1797
C2 C -0.4272(7) -0.0694(5) 0.1548(5)
H8 H -0.4653 -0.0226 0.1400
C3 C -0.4648(6) -0.1455(5) 0.1518(4)
C4 C -0.4008(7) -0.2110(5) 0.1735(5)
H9 H -0.4201 -0.2629 0.1705
C5 C -0.3114(6) -0.2035(5) 0.1989(4)
H10 H -0.2718 -0.2496 0.2137
C6 C -0.7364(8) -0.0979(7) 0.1148(6)
H11 H -0.7884 -0.0546 0.1188
C7 C -0.6411(7) -0.0879(6) 0.1335(6)
H12 H -0.6286 -0.0373 0.1486
C8 C -0.5637(6) -0.1533(5) 0.1298(5)
C9 C -0.5868(7) -0.2267(6) 0.1047(5)
H13 H -0.5368 -0.2715 0.1011
C10 C -0.6809(8) -0.2347(6) 0.0853(5)
H14 H -0.6941 -0.2844 0.0686
C11 C -0.3466(6) -0.1145(5) 0.3619(4)
H15 H -0.3156 -0.0668 0.3605
C12 C -0.4467(6) -0.1109(5) 0.3494(5)
H16 H -0.4818 -0.0612 0.3378
C13 C -0.4965(6) -0.1814(5) 0.3540(4)
C14 C -0.4392(6) -0.2539(5) 0.3723(5)
H17 H -0.4696 -0.3020 0.3777
C15 C -0.3376(7) -0.2544(5) 0.3824(4)
H18 H -0.2999 -0.3030 0.3938
C16 C -0.7585(7) -0.1018(6) 0.3153(5)
H19 H -0.8005 -0.0525 0.3173
C17 C -0.6664(6) -0.1059(5) 0.3388(5)
H20 H -0.6462 -0.0594 0.3569
C18 C -0.6002(6) -0.1789(5) 0.3365(4)
C19 C -0.6390(7) -0.2466(5) 0.3119(5)
H21 H -0.5996 -0.2970 0.3113
C20 C -0.7321(7) -0.2409(5) 0.2887(5)
H22 H -0.7557 -0.2871 0.2727
C21 C -0.1077(7) -0.4235(6) 0.2167(5)
H23 H -0.1671 -0.4266 0.2497
C22 C -0.0682(7) -0.4885(5) 0.1737(5)
H24 H -0.1008 -0.5356 0.1782
C23 C 0.0187(6) -0.4863(5) 0.1237(5)
C24 C 0.0651(7) -0.4144(6) 0.1210(5)
H25 H 0.1246 -0.4102 0.0885
C25 C 0.0244(8) -0.3501(6) 0.1655(5)
H26 H 0.0565 -0.3029 0.1635
C26 C 0.0439(9) -0.6854(6) 0.0246(6)
H27 H 0.0111 -0.7322 0.0260
C27 C 0.0087(7) -0.6237(6) 0.0741(5)
H28 H -0.0474 -0.6293 0.1095
C28 C 0.0571(6) -0.5538(5) 0.0708(4)
C29 C 0.1396(7) -0.5497(6) 0.0183(5)
H29 H 0.1730 -0.5030 0.0151
C30 C 0.1752(7) -0.6110(7) -0.0296(5)
H30 H 0.2325 -0.6072 -0.0643
C31 C -0.0666(7) -0.3627(5) 0.4115(5)
H31 H -0.1072 -0.3157 0.4291
C32 C -0.0953(6) -0.4368(5) 0.4333(5)
H32 H -0.1554 -0.4395 0.4654
C33 C -0.0367(6) -0.5080(5) 0.4086(4)
C34 C 0.0525(8) -0.4993(6) 0.3620(5)
H33 H 0.0942 -0.5457 0.3440
C35 C 0.0808(7) -0.4249(5) 0.3419(6)
H34 H 0.1426 -0.4208 0.3120
C36 C -0.1752(8) -0.6754(6) 0.5041(6)
H35 H -0.2347 -0.6806 0.5363
C37 C -0.1510(7) -0.6008(5) 0.4805(6)
H36 H -0.1951 -0.5552 0.4975
C38 C -0.0647(6) -0.5893(5) 0.4327(5)
C39 C -0.0030(8) -0.6602(5) 0.4064(6)
H37 H 0.0544 -0.6570 0.3716
C40 C -0.0289(9) -0.7340(6) 0.4328(7)
H38 H 0.0138 -0.7806 0.4166
Eu1_2 Eu -1.05217(3) -0.17154(2) 0.29390(2)
O47_2 O 0.1231(5) -0.1613(4) 0.2588(4)
O52 O -0.1352(5) -0.0217(4) 0.5104(4)
N9 N -0.2349(6) -0.0160(4) 0.5098(4)
C41 C -0.2871(7) -0.0780(5) 0.5318(5)
H39 H -0.2527 -0.1257 0.5483
C42 C -0.3926(7) -0.0726(5) 0.5306(5)
H40 H -0.4283 -0.1156 0.5488
C43 C -0.4461(6) -0.0029(5) 0.5022(4)
C44 C -0.3877(7) 0.0604(5) 0.4824(5)
H41 H -0.4202 0.1090 0.4662
C45 C -0.2850(7) 0.0546(5) 0.4856(5)
H42 H -0.2488 0.0986 0.4713
O52A O -0.8648(5) 0.0217(4) 0.4896(4)
N9A N -0.7651(6) 0.0160(4) 0.4902(4)
C41A C -0.7129(7) 0.0780(5) 0.4682(5)
H39A H -0.7473 0.1257 0.4517
C42A C -0.6074(7) 0.0726(5) 0.4694(5)
H40A H -0.5717 0.1156 0.4512
C43A C -0.5539(6) 0.0029(5) 0.4978(4)
C44A C -0.6123(7) -0.0604(5) 0.5176(5)
H41A H -0.5798 -0.1090 0.5338
C45A C -0.7150(7) -0.0546(5) 0.5144(5)
H42A H -0.7512 -0.0986 0.5287
O53 O -0.0022(6) -0.9301(5) 0.3928(4)
O54 O -0.3337(6) -0.4451(5) 0.4182(4)
O55 O -0.8711(15) -0.1597(12) 0.9295(10)
O56 O -0.7021(19) -0.8292(15) 0.0166(13)
O57 O -0.911(2) -0.9826(18) 0.9376(16)
O58 O -0.818(2) -0.8719(18) 0.9788(17)
N10 N -0.852(3) -0.896(2) 0.1369(19)
C46 C -0.929(3) -0.881(2) 0.190(2)
C47 C -0.997(2) -0.8397(19) 0.2291(17)
H43 H -1.0364 -0.8748 0.2606
H44 H -1.0407 -0.8076 0.1996
H45 H -0.9665 -0.8044 0.2581
loop_
_geom_bond_atom_site_label_1
_geom_bond_atom_site_label_2
_geom_bond_site_symmetry_1
_geom_bond_site_symmetry_2
Si1 O37 1_555 1_555
Mo1 O1 1_555 1_555
Mo2 O2 1_555 1_555
Mo3 O3 1_555 1_555
Mo4 O4 1_555 1_555
Mo5 O5 1_555 1_555
Mo6 O6 1_555 1_555
Mo7 O7 1_555 1_555
Mo8 O8 1_555 1_555
Mo9 O9 1_555 1_555
Mo10 O10 1_555 1_555
Mo11 O11 1_555 1_555
Mo12 O12 1_555 1_555
O13 Mo1 1_555 1_555
O14 Mo2 1_555 1_555
O15 Mo1 1_555 1_555
O16 Mo1 1_555 1_555
O17 Mo1 1_555 1_555
O18 Mo2 1_555 1_555
O19 Mo2 1_555 1_555
O20 Mo3 1_555 1_555
O21 Mo3 1_555 1_555
O22 Mo5 1_555 1_555
O23 Mo6 1_555 1_555
O24 Mo7 1_555 1_555
O25 Mo8 1_555 1_555
O26 Mo4 1_555 1_555
O27 Mo4 1_555 1_555
O28 Mo5 1_555 1_555
O29 Mo6 1_555 1_555
O30 Mo7 1_555 1_555
O31 Mo8 1_555 1_555
O32 Mo9 1_555 1_555
O33 Mo4 1_555 1_555
O34 Mo10 1_555 1_555
O35 Mo11 1_555 1_555
O36 Mo10 1_555 1_555
O37 Mo5 1_555 1_555
O38 Si1 1_555 1_555
O39 Si1 1_555 1_555
O40 Si1 1_555 1_555
Eu1 O41 1_555 1_555
O41 H1 1_555 1_555
H2 O41 1_555 1_555
O42 Eu1 1_555 1_555
H3 O42 1_555 1_555
H4 O42 1_555 1_555
O43 Eu1 1_555 1_555
H5 O43 1_555 1_555
H6 O43 1_555 1_555
O44 Eu1 1_555 1_555
O45 N2 1_555 1_555
O46 Eu1 1_555 1_555
O47 N4 1_555 1_555
O48 Eu1 1_555 1_555
O49 N6 1_555 1_555
O50 Eu1 1_555 1_555
O51 N8 1_555 1_555
O52 N9 1_555 1_555
N1 O44 1_555 1_555
N2 C6 1_555 1_555
N3 O46 1_555 1_555
N4 C16 1_555 1_555
N5 O48 1_555 1_555
N6 C26 1_555 1_555
N7 O50 1_555 1_555
N8 C36 1_555 1_555
N9 C41 1_555 1_555
C1 N1 1_555 1_555
H7 C1 1_555 1_555
C2 C1 1_555 1_555
H8 C2 1_555 1_555
C3 C2 1_555 1_555
C4 C3 1_555 1_555
H9 C4 1_555 1_555
C5 N1 1_555 1_555
H10 C5 1_555 1_555
C6 H11 1_555 1_555
C7 C6 1_555 1_555
H12 C7 1_555 1_555
C8 C3 1_555 1_555
C9 C8 1_555 1_555
H13 C9 1_555 1_555
C10 N2 1_555 1_555
H14 C10 1_555 1_555
C11 N3 1_555 1_555
H15 C11 1_555 1_555
C12 C11 1_555 1_555
H16 C12 1_555 1_555
C13 C12 1_555 1_555
C14 C13 1_555 1_555
H17 C14 1_555 1_555
C15 N3 1_555 1_555
H18 C15 1_555 1_555
C16 H19 1_555 1_555
C17 C16 1_555 1_555
H20 C17 1_555 1_555
C18 C13 1_555 1_555
C19 C18 1_555 1_555
H21 C19 1_555 1_555
C20 N4 1_555 1_555
H22 C20 1_555 1_555
C21 N5 1_555 1_555
H23 C21 1_555 1_555
C22 C21 1_555 1_555
H24 C22 1_555 1_555
C23 C22 1_555 1_555
C24 C23 1_555 1_555
H25 C24 1_555 1_555
C25 N5 1_555 1_555
H26 C25 1_555 1_555
C26 H27 1_555 1_555
C27 C26 1_555 1_555
H28 C27 1_555 1_555
C28 C23 1_555 1_555
C29 C28 1_555 1_555
H29 C29 1_555 1_555
C30 N6 1_555 1_555
H30 C30 1_555 1_555
C31 N7 1_555 1_555
H31 C31 1_555 1_555
C32 C31 1_555 1_555
H32 C32 1_555 1_555
C33 C32 1_555 1_555
C34 C33 1_555 1_555
H33 C34 1_555 1_555
C35 N7 1_555 1_555
H34 C35 1_555 1_555
C36 H35 1_555 1_555
C37 C36 1_555 1_555
H36 C37 1_555 1_555
C38 C33 1_555 1_555
C39 C38 1_555 1_555
H37 C39 1_555 1_555
C40 N8 1_555 1_555
H38 C40 1_555 1_555
C41 H39 1_555 1_555
C42 C41 1_555 1_555
H40 C42 1_555 1_555
C43 C42 1_555 1_555
C44 C43 1_555 1_555
H41 C44 1_555 1_555
C45 N9 1_555 1_555
H42 C45 1_555 1_555
N10 C46 1_555 1_555
C46 C47 1_555 1_555
C47 H43 1_555 1_555
H44 C47 1_555 1_555
H45 C47 1_555 1_555
Eu1_2 O47 1_555 1_555
O47_2 Eu1 1_555 1_555
O52A N9A 1_555 1_555
N9A C41A 1_555 1_555
C41A H39A 1_555 1_555
C42A C41A 1_555 1_555
H40A C42A 1_555 1_555
C43A C43 1_555 1_555
C44A C43A 1_555 1_555
H41A C44A 1_555 1_555
C45A N9A 1_555 1_555
H42A C45A 1_555 1_555
Mo1 O40 1_555 1_555
Mo2 O13 1_555 1_555
Mo2 O40 1_555 1_555
Mo3 O14 1_555 1_555
Mo3 O15 1_555 1_555
Mo3 O40 1_555 1_555
Mo4 O20 1_555 1_555
Mo4 O39 1_555 1_555
Mo5 O21 1_555 1_555
Mo5 O27 1_555 1_555
Mo6 O16 1_555 1_555
Mo6 O22 1_555 1_555
Mo6 O37 1_555 1_555
Mo7 O17 1_555 1_555
Mo7 O23 1_555 1_555
Mo7 O38 1_555 1_555
Mo8 O18 1_555 1_555
Mo8 O24 1_555 1_555
Mo8 O38 1_555 1_555
Mo9 O19 1_555 1_555
Mo9 O25 1_555 1_555
Mo9 O26 1_555 1_555
Mo9 O39 1_555 1_555
Mo10 O32 1_555 1_555
Mo10 O33 1_555 1_555
Mo10 O39 1_555 1_555
Mo11 O28 1_555 1_555
Mo11 O29 1_555 1_555
Mo11 O34 1_555 1_555
Mo11 O37 1_555 1_555
Mo12 O30 1_555 1_555
Mo12 O31 1_555 1_555
Mo12 O35 1_555 1_555
Mo12 O36 1_555 1_555
Mo12 O38 1_555 1_555
C4 C5 1_555 1_555
C7 C8 1_555 1_555
C9 C10 1_555 1_555
C14 C15 1_555 1_555
C17 C18 1_555 1_555
C19 C20 1_555 1_555
C24 C25 1_555 1_555
C27 C28 1_555 1_555
C29 C30 1_555 1_555
C34 C35 1_555 1_555
C37 C38 1_555 1_555
C39 C40 1_555 1_555
C44 C45 1_555 1_555
C42A C43A 1_555 1_555
C44A C45A 1_555 1_555

#END
