
#######################################################################
#
#                 Cambridge Crystallographic Data Centre
#                                CCDC 
#
#######################################################################
#
# If this CIF has been generated from an entry in the Cambridge 
# Structural Database, then it will include bibliographic, chemical, 
# crystal, experimental, refinement or atomic coordinate data resulting 
# from the CCDC's data processing and validation procedures.
#
#######################################################################

data_DOJLEV
_symmetry_cell_setting           triclinic
_symmetry_space_group_name_H-M   'P -1'
_symmetry_Int_Tables_number      2
_space_group_name_Hall           '-P 1'
loop_
_symmetry_equiv_pos_site_id
_symmetry_equiv_pos_as_xyz
1 x,y,z
2 -x,-y,-z
_cell_length_a                   6.3218(3)
_cell_length_b                   10.7689(5)
_cell_length_c                   13.2433(7)
_cell_angle_alpha                90.8760(10)
_cell_angle_beta                 93.4510(10)
_cell_angle_gamma                102.4800(10)
_cell_volume                     878.319
loop_
_atom_site_label
_atom_site_type_symbol
_atom_site_fract_x
_atom_site_fract_y
_atom_site_fract_z
Co1 Co 0.36129(4) 0.13061(2) 0.187709(18)
O1 O -0.3973(2) 0.21605(14) 0.28635(11)
O2 O -0.2753(2) 0.23754(13) 0.13532(10)
O3 O 0.2139(2) 0.23123(12) 0.09003(10)
O4 O 0.0752(2) 0.39263(12) 0.03988(9)
O5 O 0.5196(2) 0.49935(13) 0.11596(10)
O6 O 0.6873(2) 0.57831(17) 0.26126(13)
C1 C -0.2453(3) 0.25549(17) 0.22909(14)
C2 C 0.1458(3) 0.33184(16) 0.10836(13)
C3 C 0.5307(3) 0.51101(18) 0.21071(15)
C4 C -0.0305(3) 0.32689(17) 0.27571(14)
C5 C 0.1497(3) 0.37161(16) 0.21911(13)
C6 C 0.3385(3) 0.44672(17) 0.26762(14)
C7 C 0.3476(3) 0.4689(2) 0.37196(15)
H1 H 0.4733 0.5180 0.4043
C8 C 0.1740(3) 0.4195(2) 0.42801(15)
H2 H 0.1846 0.4323 0.4979
C9 C -0.0150(3) 0.3511(2) 0.37989(15)
H3 H -0.1342 0.3205 0.4174
O7 O 0.0613(2) -0.31001(16) 0.35081(12)
H4 H -0.0646 -0.3508 0.3298
O8 O 0.1189(2) -0.25073(15) 0.19344(11)
O9 O 0.4347(2) -0.01710(12) 0.11540(10)
O10 O 0.4844(2) -0.21003(12) 0.08336(10)
O11 O 0.9194(2) -0.03867(13) 0.13027(10)
O12 O 1.1177(2) 0.04981(13) 0.26853(10)
C10 C 0.1830(3) -0.25120(18) 0.28144(15)
C11 C 0.4883(3) -0.11977(17) 0.14259(13)
C12 C 0.9466(3) -0.01632(17) 0.22345(14)
C13 C 0.4056(3) -0.18618(18) 0.32058(15)
C14 C 0.5573(3) -0.12711(17) 0.25364(14)
C15 C 0.7695(3) -0.07321(17) 0.29149(14)
C16 C 0.8229(3) -0.0760(2) 0.39486(16)
H5 H 0.9639 -0.0401 0.4199
C17 C 0.6722(4) -0.1304(2) 0.46077(16)
H6 H 0.7099 -0.1296 0.5298
C18 C 0.4641(3) -0.1863(2) 0.42351(16)
H7 H 0.3621 -0.2244 0.4677
Co1_2 Co -0.63871(4) 0.13061(2) 0.187709(18)
Co1_3 Co 1.36129(4) 0.13061(2) 0.187709(18)
O1_2 O 0.6027(2) 0.21605(14) 0.28635(11)
O12_2 O 0.1177(2) 0.04981(13) 0.26853(10)
Na1 Na 0.21062(12) 0.29689(7) -0.10327(6)
Na2 Na 0.19434(16) -0.09627(8) -0.01867(7)
Na3 Na 0.29136(12) -0.40075(7) -0.00226(6)
loop_
_geom_bond_atom_site_label_1
_geom_bond_atom_site_label_2
_geom_bond_site_symmetry_1
_geom_bond_site_symmetry_2
Co1 O3 1_555 1_555
O1 C1 1_555 1_555
O2 C1 1_555 1_555
O3 C2 1_555 1_555
O4 C2 1_555 1_555
O5 C3 1_555 1_555
O6 C3 1_555 1_555
C1 C4 1_555 1_555
C2 C5 1_555 1_555
C3 C6 1_555 1_555
C4 C5 1_555 1_555
C5 C6 1_555 1_555
C6 C7 1_555 1_555
C7 H1 1_555 1_555
C8 C7 1_555 1_555
H2 C8 1_555 1_555
C9 C4 1_555 1_555
H3 C9 1_555 1_555
O7 H4 1_555 1_555
O8 C10 1_555 1_555
O9 Co1 1_555 1_555
O10 C11 1_555 1_555
O11 C12 1_555 1_555
O12 C12 1_555 1_555
C10 O7 1_555 1_555
C11 O9 1_555 1_555
C12 C15 1_555 1_555
C13 C10 1_555 1_555
C14 C11 1_555 1_555
C15 C14 1_555 1_555
C16 C15 1_555 1_555
H5 C16 1_555 1_555
C17 C16 1_555 1_555
H6 C17 1_555 1_555
C18 C13 1_555 1_555
H7 C18 1_555 1_555
Co1_2 O1 1_555 1_555
Co1_3 O12 1_555 1_555
O1_2 Co1 1_555 1_555
O12_2 Co1 1_555 1_555
C8 C9 1_555 1_555
C13 C14 1_555 1_555
C17 C18 1_555 1_555

#END
