
#######################################################################
#
#                 Cambridge Crystallographic Data Centre
#                                CCDC 
#
#######################################################################
#
# If this CIF has been generated from an entry in the Cambridge 
# Structural Database, then it will include bibliographic, chemical, 
# crystal, experimental, refinement or atomic coordinate data resulting 
# from the CCDC's data processing and validation procedures.
#
#######################################################################

data_DOJNEX
_symmetry_cell_setting           triclinic
_symmetry_space_group_name_H-M   'P -1'
_symmetry_Int_Tables_number      2
_space_group_name_Hall           '-P 1'
loop_
_symmetry_equiv_pos_site_id
_symmetry_equiv_pos_as_xyz
1 x,y,z
2 -x,-y,-z
_cell_length_a                   9.8870(9)
_cell_length_b                   11.2462(11)
_cell_length_c                   13.8696(13)
_cell_angle_alpha                109.393(2)
_cell_angle_beta                 94.632(2)
_cell_angle_gamma                105.814(2)
_cell_volume                     1374.48
loop_
_atom_site_label
_atom_site_type_symbol
_atom_site_fract_x
_atom_site_fract_y
_atom_site_fract_z
Zn1 Zn 0.53803(5) 0.84094(4) 0.32254(3)
C1 C 0.5287(4) 0.7859(4) 0.5206(3)
H1 H 0.5925 0.8698 0.5603
C2 C 0.4633(4) 0.6948(4) 0.5587(3)
H2 H 0.4729 0.7033 0.6281
C3 C 0.3970(4) 0.6167(4) 0.3899(3)
H3 H 0.3511 0.5598 0.3225
C4 C 0.2790(5) 0.4639(4) 0.4752(4)
H4 H 0.3161 0.4418 0.5316
H5 H 0.2690 0.3913 0.4102
C5 C 0.1340(4) 0.4808(4) 0.4887(4)
C6 C 0.0281(5) 0.4432(4) 0.4044(4)
C7 C -0.1024(5) 0.4624(4) 0.4151(4)
C8 C 0.3492(6) 0.9332(7) 0.2005(5)
H6 H 0.4178 0.9571 0.1624
C9 C 0.2167(7) 0.9440(8) 0.1908(5)
H7 H 0.1774 0.9761 0.1454
C10 C 0.2460(4) 0.8621(4) 0.3097(3)
H8 H 0.2283 0.8276 0.3615
C11 C 0.0044(5) 0.8922(5) 0.2772(4)
H9 H -0.0576 0.8006 0.2465
H10 H -0.0315 0.9431 0.2432
C12 C 0.0013(4) 0.9470(4) 0.3927(3)
C13 C -0.0581(4) 0.8669(4) 0.4448(4)
C14 C 0.0593(4) 1.0815(4) 0.4507(4)
C15 C 0.6525(5) 0.7720(5) 0.1220(4)
H11 H 0.6476 0.8481 0.1110
C16 C 0.6967(6) 0.6757(6) 0.0586(4)
H12 H 0.7280 0.6732 -0.0033
C17 C 0.6372(4) 0.6245(4) 0.1918(3)
H13 H 0.6205 0.5792 0.2371
C18 C 0.7212(6) 0.4571(5) 0.0634(5)
H14 H 0.6477 0.3937 0.0043
H15 H 0.7223 0.4194 0.1169
C19 C 0.8646(5) 0.4804(4) 0.0304(4)
C20 C 0.9900(5) 0.5272(4) 0.1016(3)
C21 C 0.8800(5) 0.4554(5) -0.0720(4)
F1 F 0.0519(3) 0.3871(4) 0.3078(2)
F2 F -0.2024(3) 0.4249(4) 0.3300(2)
F3 F -0.1157(3) 0.7348(2) 0.3939(2)
F4 F 0.1176(3) 1.1637(3) 0.4031(2)
F5 F 0.9844(4) 0.5569(4) 0.2028(2)
F6 F 0.7609(4) 0.4129(4) -0.1462(2)
N1 N 0.4871(4) 0.7366(3) 0.4141(3)
N2 N 0.3797(3) 0.5867(3) 0.4746(3)
N3 N 0.3666(4) 0.8816(3) 0.2749(3)
N4 N 0.1518(4) 0.8988(4) 0.2603(3)
N5 N 0.6156(4) 0.7387(3) 0.2059(3)
N6 N 0.6862(4) 0.5816(4) 0.1038(3)
N7 N 0.7309(4) 1.0918(4) 0.4007(3)
O1 O 0.6737(3) 1.0029(3) 0.4371(2)
O2 O 0.7039(5) 1.0610(4) 0.3065(3)
O3 O 0.8076(4) 1.2009(3) 0.4620(3)
C1A C -0.5287(4) 0.2141(4) 0.4794(3)
H1A H -0.5925 0.1302 0.4397
C2A C -0.4633(4) 0.3052(4) 0.4413(3)
H2A H -0.4729 0.2967 0.3719
C3A C -0.3970(4) 0.3833(4) 0.6101(3)
H3A H -0.3511 0.4402 0.6775
C4A C -0.2790(5) 0.5361(4) 0.5248(4)
H4A H -0.3161 0.5582 0.4684
H5A H -0.2690 0.6087 0.5898
C5A C -0.1340(4) 0.5192(4) 0.5113(4)
C6A C -0.0281(5) 0.5568(4) 0.5956(4)
C7A C 0.1024(5) 0.5376(4) 0.5849(4)
F1A F -0.0519(3) 0.6129(4) 0.6922(2)
F2A F 0.2024(3) 0.5751(4) 0.6700(2)
N1A N -0.4871(4) 0.2634(3) 0.5859(3)
N2A N -0.3797(3) 0.4133(3) 0.5254(3)
C8A C -0.3492(6) 1.0668(7) 0.7995(5)
H6A H -0.4178 1.0429 0.8376
C9A C -0.2167(7) 1.0560(8) 0.8092(5)
H7A H -0.1774 1.0239 0.8546
C10A C -0.2460(4) 1.1379(4) 0.6903(3)
H8A H -0.2283 1.1724 0.6385
C11A C -0.0044(5) 1.1078(5) 0.7228(4)
H9A H 0.0576 1.1994 0.7535
H10A H 0.0315 1.0569 0.7568
C12A C -0.0013(4) 1.0530(4) 0.6073(3)
C13A C 0.0581(4) 1.1331(4) 0.5552(4)
C14A C -0.0593(4) 0.9185(4) 0.5493(4)
F3A F 0.1157(3) 1.2652(2) 0.6061(2)
F4A F -0.1176(3) 0.8363(3) 0.5969(2)
N3A N -0.3666(4) 1.1184(3) 0.7251(3)
N4A N -0.1518(4) 1.1012(4) 0.7397(3)
C15A C 1.3475(5) 0.2280(5) -0.1220(4)
H11A H 1.3524 0.1519 -0.1110
C16A C 1.3033(6) 0.3243(6) -0.0586(4)
H12A H 1.2720 0.3268 0.0033
C17A C 1.3628(4) 0.3755(4) -0.1918(3)
H13A H 1.3795 0.4208 -0.2371
C18A C 1.2788(6) 0.5429(5) -0.0634(5)
H14A H 1.3523 0.6063 -0.0043
H15A H 1.2777 0.5806 -0.1169
C19A C 1.1354(5) 0.5196(4) -0.0304(4)
C20A C 1.0100(5) 0.4728(4) -0.1016(3)
C21A C 1.1200(5) 0.5446(5) 0.0720(4)
F5A F 1.0156(4) 0.4431(4) -0.2028(2)
F6A F 1.2391(4) 0.5871(4) 0.1462(2)
N5A N 1.3844(4) 0.2613(3) -0.2059(3)
N6A N 1.3138(4) 0.4184(4) -0.1038(3)
Zn1A Zn -0.53803(5) 0.15906(4) 0.67746(3)
N7A N -0.7309(4) -0.0918(4) 0.5993(3)
O1A O -0.6737(3) -0.0029(3) 0.5629(2)
O2A O -0.7039(5) -0.0610(4) 0.6935(3)
O3A O -0.8076(4) -0.2009(3) 0.5380(3)
Zn1A_2 Zn -0.53803(5) 1.15906(4) 0.67746(3)
Zn1A_3 Zn 1.46197(5) 0.15906(4) -0.32254(3)
N3A_2 N -0.3666(4) 0.1184(3) 0.7251(3)
N5A_2 N -0.6156(4) 0.2613(3) 0.7941(3)
N8 N 0.3757(8) 0.2903(6) 0.1760(4)
O4 O 0.4981(7) 0.3491(6) 0.2204(5)
O5 O 0.2806(8) 0.3386(9) 0.1926(6)
O6 O 0.3362(9) 0.1787(6) 0.1027(5)
O7 O 0.518(2) 0.0658(17) 0.0220(15)
H16 H 0.4573 0.0978 0.0525
H17 H 0.5994 0.1133 0.0596
O8 O 0.7554(16) 0.1808(11) 0.1110(7)
H18 H 0.8432 0.2016 0.1063
H19 H 0.7419 0.2152 0.1726
O9 O 0.0154(15) 0.111(2) 0.0644(16)
H20 H 0.1058 0.1447 0.0743
H21 H -0.0059 0.1598 0.1186
loop_
_geom_bond_atom_site_label_1
_geom_bond_atom_site_label_2
_geom_bond_site_symmetry_1
_geom_bond_site_symmetry_2
Zn1 N1 1_555 1_555
C1 H1 1_555 1_555
C2 C1 1_555 1_555
H2 C2 1_555 1_555
C3 H3 1_555 1_555
C4 H4 1_555 1_555
H5 C4 1_555 1_555
C5 C4 1_555 1_555
C6 C5 1_555 1_555
C7 C6 1_555 1_555
C8 H6 1_555 1_555
C9 C8 1_555 1_555
H7 C9 1_555 1_555
C10 H8 1_555 1_555
C11 H9 1_555 1_555
H10 C11 1_555 1_555
C12 C11 1_555 1_555
C13 C12 1_555 1_555
C14 C12 1_555 1_555
C15 H11 1_555 1_555
C16 C15 1_555 1_555
H12 C16 1_555 1_555
C17 H13 1_555 1_555
C18 H14 1_555 1_555
H15 C18 1_555 1_555
C19 C18 1_555 1_555
C20 C19 1_555 1_555
C21 C19 1_555 1_555
F1 C6 1_555 1_555
F2 C7 1_555 1_555
F3 C13 1_555 1_555
F4 C14 1_555 1_555
F5 C20 1_555 1_555
F6 C21 1_555 1_555
N1 C1 1_555 1_555
N2 C2 1_555 1_555
N3 Zn1 1_555 1_555
N4 C9 1_555 1_555
N5 Zn1 1_555 1_555
N6 C16 1_555 1_555
N7 O1 1_555 1_555
O1 Zn1 1_555 1_555
O2 N7 1_555 1_555
O3 N7 1_555 1_555
N8 O4 1_555 1_555
O5 N8 1_555 1_555
O6 N8 1_555 1_555
O7 H16 1_555 1_555
H17 O7 1_555 1_555
O8 H18 1_555 1_555
H19 O8 1_555 1_555
O9 H20 1_555 1_555
H21 O9 1_555 1_555
C1A H1A 1_555 1_555
C2A C1A 1_555 1_555
H2A C2A 1_555 1_555
C3A H3A 1_555 1_555
C4A H4A 1_555 1_555
H5A C4A 1_555 1_555
C5A C7 1_555 1_555
C6A C5A 1_555 1_555
C7A C5 1_555 1_555
F1A C6A 1_555 1_555
F2A C7A 1_555 1_555
N1A C1A 1_555 1_555
N2A C2A 1_555 1_555
C8A H6A 1_555 1_555
C9A C8A 1_555 1_555
H7A C9A 1_555 1_555
C10A H8A 1_555 1_555
C11A H9A 1_555 1_555
H10A C11A 1_555 1_555
C12A C11A 1_555 1_555
C13A C14 1_555 1_555
C14A C13 1_555 1_555
F3A C13A 1_555 1_555
F4A C14A 1_555 1_555
N3A C8A 1_555 1_555
N4A C9A 1_555 1_555
C15A H11A 1_555 1_555
C16A C15A 1_555 1_555
H12A C16A 1_555 1_555
C17A H13A 1_555 1_555
C18A H14A 1_555 1_555
H15A C18A 1_555 1_555
C19A C18A 1_555 1_555
C20A C21 1_555 1_555
C21A C20 1_555 1_555
F5A C20A 1_555 1_555
F6A C21A 1_555 1_555
N5A C15A 1_555 1_555
N6A C16A 1_555 1_555
Zn1A N1A 1_555 1_555
N7A O1A 1_555 1_555
O1A Zn1A 1_555 1_555
O2A N7A 1_555 1_555
O3A N7A 1_555 1_555
Zn1A_2 N3A 1_555 1_555
Zn1A_3 N5A 1_555 1_555
N3A_2 Zn1A 1_555 1_555
N5A_2 Zn1A 1_555 1_555
C3 N1 1_555 1_555
C3 N2 1_555 1_555
C4 N2 1_555 1_555
C8 N3 1_555 1_555
C10 N3 1_555 1_555
C10 N4 1_555 1_555
C11 N4 1_555 1_555
C15 N5 1_555 1_555
C17 N5 1_555 1_555
C17 N6 1_555 1_555
C18 N6 1_555 1_555
C3A N1A 1_555 1_555
C3A N2A 1_555 1_555
C4A C5A 1_555 1_555
C4A N2A 1_555 1_555
C6A C7A 1_555 1_555
C10A N3A 1_555 1_555
C10A N4A 1_555 1_555
C11A N4A 1_555 1_555
C12A C13A 1_555 1_555
C12A C14A 1_555 1_555
C17A N5A 1_555 1_555
C17A N6A 1_555 1_555
C18A N6A 1_555 1_555
C19A C20A 1_555 1_555
C19A C21A 1_555 1_555

#END
