
#######################################################################
#
#                 Cambridge Crystallographic Data Centre
#                                CCDC 
#
#######################################################################
#
# If this CIF has been generated from an entry in the Cambridge 
# Structural Database, then it will include bibliographic, chemical, 
# crystal, experimental, refinement or atomic coordinate data resulting 
# from the CCDC's data processing and validation procedures.
#
#######################################################################

data_DOJNAT
_symmetry_cell_setting           monoclinic
_symmetry_space_group_name_H-M   'C 2/c'
_symmetry_Int_Tables_number      15
_space_group_name_Hall           '-C 2yn'
loop_
_symmetry_equiv_pos_site_id
_symmetry_equiv_pos_as_xyz
1 x,y,z
2 -x,y,1/2-z
3 1/2+x,1/2+y,z
4 1/2-x,1/2+y,1/2-z
5 -x,-y,-z
6 x,-y,1/2+z
7 1/2-x,1/2-y,-z
8 1/2+x,1/2-y,1/2+z
_cell_length_a                   12.282(3)
_cell_length_b                   12.031(3)
_cell_length_c                   13.449(3)
_cell_angle_alpha                90
_cell_angle_beta                 99.757(8)
_cell_angle_gamma                90
_cell_volume                     1958.54
loop_
_atom_site_label
_atom_site_type_symbol
_atom_site_fract_x
_atom_site_fract_y
_atom_site_fract_z
Zn1 Zn 0.5000 0.49686(4) 0.2500
C1 C 0.3980(3) 0.4081(2) 0.4221(2)
H1 H 0.3323 0.4465 0.4011
C2 C 0.4198(3) 0.3435(3) 0.5057(2)
H2 H 0.3731 0.3297 0.5520
C3 C 0.5599(2) 0.3435(2) 0.4275(2)
H3 H 0.6290 0.3278 0.4113
C4 C 0.5776(3) 0.2179(2) 0.5787(2)
H4 H 0.5592 0.2299 0.6453
H5 H 0.6572 0.2233 0.5839
C5 C 0.5392(2) 0.1041(2) 0.5407(2)
C6 C 0.4472(2) 0.0535(2) 0.5667(2)
C7 C 0.4102(2) -0.0477(2) 0.5274(2)
C8 C 0.2812(2) 0.5583(3) 0.2067(2)
C9 C 0.1846(3) 0.6358(3) 0.1996(3)
H6 H 0.1581 0.6534 0.1301
H7 H 0.2072 0.7028 0.2361
H8 H 0.1267 0.6008 0.2281
F1 F 0.39232(15) 0.10364(14) 0.63273(15)
F2 F 0.32015(13) -0.09337(14) 0.55658(13)
N1 N 0.48635(18) 0.40831(17) 0.37349(17)
N2 N 0.52359(18) 0.30300(18) 0.50847(17)
O1 O 0.37613(16) 0.60172(15) 0.23866(15)
O2 O 0.26846(18) 0.45941(19) 0.18290(17)
C1D C 0.6020(3) -0.4081(2) 0.5779(2)
H1D H 0.6677 -0.4465 0.5989
C2D C 0.5802(3) -0.3435(3) 0.4943(2)
H2D H 0.6269 -0.3297 0.4480
C3D C 0.4401(2) -0.3435(2) 0.5725(2)
H3D H 0.3710 -0.3278 0.5887
C4D C 0.4224(3) -0.2179(2) 0.4213(2)
H4D H 0.4408 -0.2299 0.3547
H5D H 0.3428 -0.2233 0.4161
C5D C 0.4608(2) -0.1041(2) 0.4593(2)
C6D C 0.5528(2) -0.0535(2) 0.4333(2)
C7D C 0.5898(2) 0.0477(2) 0.4726(2)
F1D F 0.60768(15) -0.10364(14) 0.36727(15)
F2D F 0.67985(13) 0.09337(14) 0.44342(13)
N1D N 0.51365(18) -0.40831(17) 0.62651(17)
N2D N 0.47641(18) -0.30300(18) 0.49153(17)
C8A C 0.7188(2) 0.5583(3) 0.2933(2)
C9A C 0.8154(3) 0.6358(3) 0.3004(3)
H6A H 0.8419 0.6534 0.3699
H7A H 0.7928 0.7028 0.2639
H8A H 0.8733 0.6008 0.2719
O1A O 0.62387(16) 0.60172(15) 0.26134(15)
O2A O 0.73154(18) 0.45941(19) 0.31710(17)
Zn1D Zn 0.5000 -0.49686(4) 0.7500
N1A N 0.51365(18) 0.40831(17) 0.12651(17)
loop_
_geom_bond_atom_site_label_1
_geom_bond_atom_site_label_2
_geom_bond_site_symmetry_1
_geom_bond_site_symmetry_2
Zn1 N1 1_555 1_555
C1 H1 1_555 1_555
C2 C1 1_555 1_555
H2 C2 1_555 1_555
C3 H3 1_555 1_555
C4 H4 1_555 1_555
H5 C4 1_555 1_555
C5 C4 1_555 1_555
C6 C5 1_555 1_555
C7 C6 1_555 1_555
C8 C9 1_555 1_555
C9 H6 1_555 1_555
H7 C9 1_555 1_555
H8 C9 1_555 1_555
F1 C6 1_555 1_555
F2 C7 1_555 1_555
N1 C1 1_555 1_555
N2 C2 1_555 1_555
O1 Zn1 1_555 1_555
O2 C8 1_555 1_555
C1D H1D 1_555 1_555
C2D C1D 1_555 1_555
H2D C2D 1_555 1_555
C3D H3D 1_555 1_555
C4D H4D 1_555 1_555
H5D C4D 1_555 1_555
C5D C7 1_555 1_555
C6D C5D 1_555 1_555
C7D C5 1_555 1_555
F1D C6D 1_555 1_555
F2D C7D 1_555 1_555
N1D C1D 1_555 1_555
N2D C2D 1_555 1_555
C8A C9A 1_555 1_555
C9A H6A 1_555 1_555
H7A C9A 1_555 1_555
H8A C9A 1_555 1_555
O1A Zn1 1_555 1_555
O2A C8A 1_555 1_555
Zn1D N1D 1_555 1_555
N1A Zn1 1_555 1_555
C3 N1 1_555 1_555
C3 N2 1_555 1_555
C4 N2 1_555 1_555
C8 O1 1_555 1_555
C3D N1D 1_555 1_555
C3D N2D 1_555 1_555
C4D C5D 1_555 1_555
C4D N2D 1_555 1_555
C6D C7D 1_555 1_555
C8A O1A 1_555 1_555

#END
