
#######################################################################
#
#                 Cambridge Crystallographic Data Centre
#                                CCDC 
#
#######################################################################
#
# If this CIF has been generated from an entry in the Cambridge 
# Structural Database, then it will include bibliographic, chemical, 
# crystal, experimental, refinement or atomic coordinate data resulting 
# from the CCDC's data processing and validation procedures.
#
#######################################################################

data_DOJPOJ
_symmetry_cell_setting           monoclinic
_symmetry_space_group_name_H-M   'P 21/c'
_symmetry_Int_Tables_number      14
_space_group_name_Hall           '-P 2ybc'
loop_
_symmetry_equiv_pos_site_id
_symmetry_equiv_pos_as_xyz
1 x,y,z
2 -x,1/2+y,1/2-z
3 -x,-y,-z
4 x,1/2-y,1/2+z
_cell_length_a                   14.8316(6)
_cell_length_b                   20.3886(8)
_cell_length_c                   15.0330(6)
_cell_angle_alpha                90
_cell_angle_beta                 100.9570(10)
_cell_angle_gamma                90
_cell_volume                     4463.04
loop_
_atom_site_label
_atom_site_type_symbol
_atom_site_fract_x
_atom_site_fract_y
_atom_site_fract_z
C1 C 1.1093(3) 0.1028(2) 1.1353(3)
C2 C 1.1777(3) 0.10855(19) 1.2221(2)
C3 C 1.1923(3) 0.1676(2) 1.2686(3)
H1 H 1.1611 0.2050 1.2444
C4 C 1.2531(3) 0.1713(2) 1.3511(3)
H2 H 1.2622 0.2111 1.3816
C5 C 1.3003(3) 0.1161(2) 1.3881(3)
C6 C 1.2874(3) 0.0577(2) 1.3409(3)
H3 H 1.3200 0.0206 1.3642
C7 C 1.2261(3) 0.0538(2) 1.2588(3)
H4 H 1.2174 0.0140 1.2281
C8 C 1.3635(3) 0.1188(3) 1.4796(3)
H5 H 1.3997 0.1587 1.4837
H6 H 1.4056 0.0820 1.4852
C9 C 1.3111(3) 0.1170(4) 1.5584(3)
H7 H 1.2924 0.1627 1.5640
C10 C 1.3768(3) 0.1041(3) 1.6464(3)
C11 C 1.3836(4) 0.1536(3) 1.7195(4)
H8 H 1.4270 0.1390 1.7715
H9 H 1.3245 0.1592 1.7358
H10 H 1.4036 0.1946 1.6987
C12 C 1.2274(4) 0.0813(4) 1.5506(4)
H11 H 1.2404 0.0352 1.5435
H12 H 1.1862 0.0954 1.4959
C13 C 1.1778(3) 0.0885(4) 1.6300(4)
C14 C 1.1376(4) 0.1488(4) 1.6438(3)
H13 H 1.1400 0.1833 1.6038
C15 C 1.0925(3) 0.1577(3) 1.7195(3)
H14 H 1.0654 0.1975 1.7294
C16 C 1.0909(3) 0.1055(2) 1.7766(2)
C17 C 1.1314(3) 0.0471(3) 1.7583(3)
H15 H 1.1288 0.0114 1.7963
C18 C 1.1751(4) 0.0398(4) 1.6866(4)
H16 H 1.2030 0.0001 1.6779
C19 C 1.1821(3) -0.0895(2) 1.0449(3)
C20 C 1.2648(3) -0.0474(2) 1.0602(3)
C21 C 1.2687(3) 0.0090(2) 1.0110(4)
H17 H 1.2181 0.0223 0.9683
C22 C 1.3504(4) 0.0466(3) 1.0257(4)
H18 H 1.3553 0.0845 0.9925
C23 C 1.4250(3) 0.0242(4) 1.0936(5)
C24 C 1.4169(4) -0.0301(3) 1.1448(5)
H19 H 1.4645 -0.0424 1.1915
C25 C 1.3398(3) -0.0653(3) 1.1266(4)
H20 H 1.3359 -0.1034 1.1596
C26 C 1.5144(5) 0.0658(4) 1.1065(7)
H21 H 1.5480 0.0561 1.1670
H22 H 1.5506 0.0481 1.0648
C27 C 1.5161(4) 0.1292(3) 1.0978(8)
H23 H 1.5008 0.1371 1.0324
C28 C 1.4481(5) 0.1708(3) 1.1378(8)
C29 C 1.4483(7) 0.1652(4) 1.2363(9)
H24 H 1.4027 0.1940 1.2522
H25 H 1.5077 0.1771 1.2699
H26 H 1.4346 0.1208 1.2504
C30 C 1.6141(4) 0.1615(3) 1.1297(6)
H27 H 1.6242 0.1693 1.1945
H28 H 1.6611 0.1314 1.1179
C31 C 1.6228(3) 0.2242(3) 1.0826(5)
C32 C 1.5976(3) 0.2841(3) 1.1150(4)
H29 H 1.5776 0.2855 1.1700
C33 C 1.6018(3) 0.3413(2) 1.0670(3)
H30 H 1.5831 0.3807 1.0887
C34 C 1.6341(3) 0.3401(3) 0.9861(4)
C35 C 1.6627(4) 0.2813(4) 0.9555(5)
H31 H 1.6865 0.2804 0.9026
C36 C 1.6565(4) 0.2246(4) 1.0020(5)
H32 H 1.6751 0.1853 0.9795
C37 C 1.6370(4) 0.3997(3) 0.9293(4)
C38 C 0.8637(3) 0.1744(2) 1.1706(3)
H33 H 0.8694 0.1290 1.1691
C39 C 0.8265(3) 0.2021(3) 1.2399(3)
H34 H 0.8081 0.1758 1.2837
C40 C 0.8175(3) 0.2675(3) 1.2430(3)
H35 H 0.7933 0.2866 1.2895
C41 C 0.8439(3) 0.3070(3) 1.1773(4)
C42 C 0.8828(3) 0.2752(2) 1.1084(3)
C43 C 0.8373(4) 0.3760(3) 1.1746(5)
H36 H 0.8127 0.3974 1.2192
C44 C 0.8652(3) 0.4122(3) 1.1096(5)
H37 H 0.8578 0.4575 1.1094
C45 C 0.9066(3) 0.3815(2) 1.0404(4)
C46 C 0.9153(3) 0.3127(2) 1.0408(3)
C47 C 0.9908(3) 0.3136(2) 0.9189(3)
H38 H 1.0207 0.2915 0.8788
C48 C 0.9832(4) 0.3832(3) 0.9130(4)
H39 H 1.0069 0.4065 0.8695
C49 C 0.9398(4) 0.4148(3) 0.9738(5)
H40 H 0.9327 0.4600 0.9698
C50 C 1.0470(3) 0.1107(2) 1.8579(3)
N1 N 0.8916(2) 0.20955(17) 1.1063(2)
N2 N 0.9569(2) 0.27970(16) 0.9793(2)
O1 O 1.07816(19) 0.15508(14) 1.09593(18)
O2 O 1.0868(2) 0.04614(15) 1.10912(19)
O3 O 1.0148(2) 0.16515(15) 1.87468(19)
O4 O 1.0463(2) 0.06116(17) 1.9049(2)
O5 O 1.11030(17) -0.07162(13) 0.98801(18)
O6 O 1.1833(2) -0.14374(15) 1.08358(18)
O7 O 1.4215(3) 0.0544(2) 1.6583(2)
O8 O 1.3975(3) 0.2064(3) 1.0920(5)
O9 O 1.5911(3) 0.4492(2) 0.9548(3)
H41 H 1.5944 0.4808 0.9219
O10 O 1.6763(4) 0.4023(3) 0.8665(4)
Mn1 Mn 1.0000 0.0000 1.0000
Mn2 Mn 0.96080(4) 0.16942(3) 0.99436(4)
C1B C 0.8907(3) -0.1028(2) 0.8647(3)
C2B C 0.8223(3) -0.10855(19) 0.7779(2)
C3B C 0.8077(3) -0.1676(2) 0.7314(3)
H1B H 0.8389 -0.2050 0.7556
C4B C 0.7469(3) -0.1713(2) 0.6489(3)
H2B H 0.7378 -0.2111 0.6184
C5B C 0.6997(3) -0.1161(2) 0.6119(3)
C6B C 0.7126(3) -0.0577(2) 0.6591(3)
H3B H 0.6800 -0.0206 0.6358
C7B C 0.7739(3) -0.0538(2) 0.7412(3)
H4B H 0.7826 -0.0140 0.7719
C8B C 0.6365(3) -0.1188(3) 0.5204(3)
H5B H 0.6003 -0.1587 0.5163
H6B H 0.5944 -0.0820 0.5148
C9B C 0.6889(3) -0.1170(4) 0.4416(3)
H7B H 0.7076 -0.1627 0.4360
C10B C 0.6232(3) -0.1041(3) 0.3536(3)
C11B C 0.6164(4) -0.1536(3) 0.2805(4)
H8B H 0.5730 -0.1390 0.2285
H9B H 0.6755 -0.1592 0.2642
H10B H 0.5964 -0.1946 0.3013
C12B C 0.7726(4) -0.0813(4) 0.4494(4)
H11B H 0.7596 -0.0352 0.4565
H12B H 0.8138 -0.0954 0.5041
C13B C 0.8222(3) -0.0885(4) 0.3700(4)
C14B C 0.8624(4) -0.1488(4) 0.3562(3)
H13B H 0.8600 -0.1833 0.3962
C15B C 0.9075(3) -0.1577(3) 0.2805(3)
H14B H 0.9346 -0.1975 0.2706
C16B C 0.9091(3) -0.1055(2) 0.2234(2)
C17B C 0.8686(3) -0.0471(3) 0.2417(3)
H15B H 0.8712 -0.0114 0.2037
C18B C 0.8249(4) -0.0398(4) 0.3134(4)
H16B H 0.7970 -0.0001 0.3221
C19B C 0.8179(3) 0.0895(2) 0.9551(3)
C20B C 0.7352(3) 0.0474(2) 0.9398(3)
C21B C 0.7313(3) -0.0090(2) 0.9890(4)
H17B H 0.7819 -0.0223 1.0317
C22B C 0.6496(4) -0.0466(3) 0.9743(4)
H18B H 0.6447 -0.0845 1.0075
C23B C 0.5750(3) -0.0242(4) 0.9064(5)
C24B C 0.5831(4) 0.0301(3) 0.8552(5)
H19B H 0.5355 0.0424 0.8085
C25B C 0.6602(3) 0.0653(3) 0.8734(4)
H20B H 0.6641 0.1034 0.8404
C26B C 0.4856(5) -0.0658(4) 0.8935(7)
H21B H 0.4520 -0.0561 0.8330
H22B H 0.4494 -0.0481 0.9352
C27B C 0.4839(4) -0.1292(3) 0.9022(8)
H23B H 0.4992 -0.1371 0.9676
C28B C 0.5519(5) -0.1708(3) 0.8622(8)
C29B C 0.5517(7) -0.1652(4) 0.7637(9)
H24B H 0.5973 -0.1940 0.7478
H25B H 0.4923 -0.1771 0.7301
H26B H 0.5654 -0.1208 0.7496
C30B C 0.3859(4) -0.1615(3) 0.8703(6)
H27B H 0.3758 -0.1693 0.8055
H28B H 0.3389 -0.1314 0.8821
C31B C 0.3772(3) -0.2242(3) 0.9174(5)
C32B C 0.4024(3) -0.2841(3) 0.8850(4)
H29B H 0.4224 -0.2855 0.8300
C33B C 0.3982(3) -0.3413(2) 0.9330(3)
H30B H 0.4169 -0.3807 0.9113
C34B C 0.3659(3) -0.3401(3) 1.0139(4)
C35B C 0.3373(4) -0.2813(4) 1.0445(5)
H31B H 0.3135 -0.2804 1.0974
C36B C 0.3435(4) -0.2246(4) 0.9980(5)
H32B H 0.3249 -0.1853 1.0205
C37B C 0.3630(4) -0.3997(3) 1.0707(4)
C38B C 1.1363(3) -0.1744(2) 0.8294(3)
H33B H 1.1306 -0.1290 0.8309
C39B C 1.1735(3) -0.2021(3) 0.7601(3)
H34B H 1.1919 -0.1758 0.7163
C40B C 1.1825(3) -0.2675(3) 0.7570(3)
H35B H 1.2067 -0.2866 0.7105
C41B C 1.1561(3) -0.3070(3) 0.8227(4)
C42B C 1.1172(3) -0.2752(2) 0.8916(3)
C43B C 1.1627(4) -0.3760(3) 0.8254(5)
H36B H 1.1873 -0.3974 0.7808
C44B C 1.1348(3) -0.4122(3) 0.8904(5)
H37B H 1.1422 -0.4575 0.8906
C45B C 1.0934(3) -0.3815(2) 0.9596(4)
C46B C 1.0847(3) -0.3127(2) 0.9592(3)
C47B C 1.0092(3) -0.3136(2) 1.0811(3)
H38B H 0.9793 -0.2915 1.1212
C48B C 1.0168(4) -0.3832(3) 1.0870(4)
H39B H 0.9931 -0.4065 1.1305
C49B C 1.0602(4) -0.4148(3) 1.0262(5)
H40B H 1.0673 -0.4600 1.0302
C50B C 0.9530(3) -0.1107(2) 0.1421(3)
N1B N 1.1084(2) -0.20955(17) 0.8937(2)
N2B N 1.0431(2) -0.27970(16) 1.0207(2)
O1B O 0.92184(19) -0.15508(14) 0.90407(18)
O2B O 0.9132(2) -0.04614(15) 0.89088(19)
O3B O 0.9852(2) -0.16515(15) 0.12532(19)
O4B O 0.9537(2) -0.06116(17) 0.0951(2)
O5B O 0.88970(17) 0.07162(13) 1.01199(18)
O6B O 0.8167(2) 0.14374(15) 0.91642(18)
O7B O 0.5785(3) -0.0544(2) 0.3417(2)
O8B O 0.6025(3) -0.2064(3) 0.9080(5)
O9B O 0.4089(3) -0.4492(2) 1.0452(3)
H41B H 0.4056 -0.4808 1.0781
O10B O 0.3237(4) -0.4023(3) 1.1335(4)
Mn2B Mn 1.03920(4) -0.16942(3) 1.00564(4)
O3_2 O 1.0148(2) 0.16515(15) 0.87468(19)
O3B_2 O 0.9852(2) -0.16515(15) 1.12532(19)
O4_2 O 1.0463(2) 0.06116(17) 0.9049(2)
O4B_2 O 0.9537(2) -0.06116(17) 1.0951(2)
Mn1_2 Mn 1.0000 0.0000 0.0000
Mn1_3 Mn 1.0000 0.0000 2.0000
Mn2_2 Mn 0.96080(4) 0.16942(3) 1.99436(4)
Mn2B_2 Mn 1.03920(4) -0.16942(3) 0.00564(4)
O11 O 1.2164(5) 0.2197(4) 1.0140(6)
loop_
_geom_bond_atom_site_label_1
_geom_bond_atom_site_label_2
_geom_bond_site_symmetry_1
_geom_bond_site_symmetry_2
C1 C2 1_555 1_555
C2 C3 1_555 1_555
C3 H1 1_555 1_555
C4 C3 1_555 1_555
H2 C4 1_555 1_555
C5 C4 1_555 1_555
C6 C5 1_555 1_555
H3 C6 1_555 1_555
C7 C2 1_555 1_555
H4 C7 1_555 1_555
C8 C5 1_555 1_555
H5 C8 1_555 1_555
H6 C8 1_555 1_555
C9 C8 1_555 1_555
H7 C9 1_555 1_555
C10 C9 1_555 1_555
C11 C10 1_555 1_555
H8 C11 1_555 1_555
H9 C11 1_555 1_555
H10 C11 1_555 1_555
C12 C9 1_555 1_555
H11 C12 1_555 1_555
H12 C12 1_555 1_555
C13 C12 1_555 1_555
C14 C13 1_555 1_555
H13 C14 1_555 1_555
C15 C14 1_555 1_555
H14 C15 1_555 1_555
C16 C15 1_555 1_555
C17 C16 1_555 1_555
H15 C17 1_555 1_555
C18 C13 1_555 1_555
H16 C18 1_555 1_555
C19 C20 1_555 1_555
C20 C21 1_555 1_555
C21 H17 1_555 1_555
C22 C21 1_555 1_555
H18 C22 1_555 1_555
C23 C22 1_555 1_555
C24 C23 1_555 1_555
H19 C24 1_555 1_555
C25 C20 1_555 1_555
H20 C25 1_555 1_555
C26 C23 1_555 1_555
H21 C26 1_555 1_555
H22 C26 1_555 1_555
C27 C26 1_555 1_555
H23 C27 1_555 1_555
C28 C27 1_555 1_555
C29 C28 1_555 1_555
H24 C29 1_555 1_555
H25 C29 1_555 1_555
H26 C29 1_555 1_555
C30 C27 1_555 1_555
H27 C30 1_555 1_555
H28 C30 1_555 1_555
C31 C30 1_555 1_555
C32 C31 1_555 1_555
H29 C32 1_555 1_555
C33 C32 1_555 1_555
H30 C33 1_555 1_555
C34 C33 1_555 1_555
C35 C34 1_555 1_555
H31 C35 1_555 1_555
C36 C31 1_555 1_555
H32 C36 1_555 1_555
C37 C34 1_555 1_555
C38 H33 1_555 1_555
C39 C38 1_555 1_555
H34 C39 1_555 1_555
C40 C39 1_555 1_555
H35 C40 1_555 1_555
C41 C40 1_555 1_555
C42 C41 1_555 1_555
C43 C41 1_555 1_555
H36 C43 1_555 1_555
C44 C43 1_555 1_555
H37 C44 1_555 1_555
C45 C44 1_555 1_555
C46 C42 1_555 1_555
C47 H38 1_555 1_555
C48 C47 1_555 1_555
H39 C48 1_555 1_555
C49 C45 1_555 1_555
H40 C49 1_555 1_555
C50 C16 1_555 1_555
N1 C38 1_555 1_555
N2 C46 1_555 1_555
O1 C1 1_555 1_555
O2 C1 1_555 1_555
O3 C50 1_555 1_555
O4 C50 1_555 1_555
O5 C19 1_555 1_555
O6 C19 1_555 1_555
O7 C10 1_555 1_555
O8 C28 1_555 1_555
O9 C37 1_555 1_555
H41 O9 1_555 1_555
O10 C37 1_555 1_555
Mn1 O2 1_555 1_555
Mn2 N1 1_555 1_555
C1B C2B 1_555 1_555
C2B C3B 1_555 1_555
C3B H1B 1_555 1_555
C4B C3B 1_555 1_555
H2B C4B 1_555 1_555
C5B C4B 1_555 1_555
C6B C5B 1_555 1_555
H3B C6B 1_555 1_555
C7B C2B 1_555 1_555
H4B C7B 1_555 1_555
C8B C5B 1_555 1_555
H5B C8B 1_555 1_555
H6B C8B 1_555 1_555
C9B C8B 1_555 1_555
H7B C9B 1_555 1_555
C10B C9B 1_555 1_555
C11B C10B 1_555 1_555
H8B C11B 1_555 1_555
H9B C11B 1_555 1_555
H10B C11B 1_555 1_555
C12B C9B 1_555 1_555
H11B C12B 1_555 1_555
H12B C12B 1_555 1_555
C13B C12B 1_555 1_555
C14B C13B 1_555 1_555
H13B C14B 1_555 1_555
C15B C14B 1_555 1_555
H14B C15B 1_555 1_555
C16B C15B 1_555 1_555
C17B C16B 1_555 1_555
H15B C17B 1_555 1_555
C18B C13B 1_555 1_555
H16B C18B 1_555 1_555
C19B C20B 1_555 1_555
C20B C21B 1_555 1_555
C21B H17B 1_555 1_555
C22B C21B 1_555 1_555
H18B C22B 1_555 1_555
C23B C22B 1_555 1_555
C24B C23B 1_555 1_555
H19B C24B 1_555 1_555
C25B C20B 1_555 1_555
H20B C25B 1_555 1_555
C26B C23B 1_555 1_555
H21B C26B 1_555 1_555
H22B C26B 1_555 1_555
C27B C26B 1_555 1_555
H23B C27B 1_555 1_555
C28B C27B 1_555 1_555
C29B C28B 1_555 1_555
H24B C29B 1_555 1_555
H25B C29B 1_555 1_555
H26B C29B 1_555 1_555
C30B C27B 1_555 1_555
H27B C30B 1_555 1_555
H28B C30B 1_555 1_555
C31B C30B 1_555 1_555
C32B C31B 1_555 1_555
H29B C32B 1_555 1_555
C33B C32B 1_555 1_555
H30B C33B 1_555 1_555
C34B C33B 1_555 1_555
C35B C34B 1_555 1_555
H31B C35B 1_555 1_555
C36B C31B 1_555 1_555
H32B C36B 1_555 1_555
C37B C34B 1_555 1_555
C38B H33B 1_555 1_555
C39B C38B 1_555 1_555
H34B C39B 1_555 1_555
C40B C39B 1_555 1_555
H35B C40B 1_555 1_555
C41B C40B 1_555 1_555
C42B C41B 1_555 1_555
C43B C41B 1_555 1_555
H36B C43B 1_555 1_555
C44B C43B 1_555 1_555
H37B C44B 1_555 1_555
C45B C44B 1_555 1_555
C46B C42B 1_555 1_555
C47B H38B 1_555 1_555
C48B C47B 1_555 1_555
H39B C48B 1_555 1_555
C49B C45B 1_555 1_555
H40B C49B 1_555 1_555
C50B C16B 1_555 1_555
N1B C38B 1_555 1_555
N2B C46B 1_555 1_555
O1B C1B 1_555 1_555
O2B Mn1 1_555 1_555
O3B C50B 1_555 1_555
O4B C50B 1_555 1_555
O5B Mn1 1_555 1_555
O6B Mn2 1_555 1_555
O7B C10B 1_555 1_555
O8B C28B 1_555 1_555
O9B C37B 1_555 1_555
H41B O9B 1_555 1_555
O10B C37B 1_555 1_555
Mn2B O5 1_555 1_555
O3_2 Mn2 1_555 1_555
O3B_2 Mn2B 1_555 1_555
O4_2 Mn1 1_555 1_555
O4B_2 Mn1 1_555 1_555
Mn1_2 O4B 1_555 1_555
Mn1_3 O4 1_555 1_555
Mn2_2 O3 1_555 1_555
Mn2B_2 O3B 1_555 1_555
C6 C7 1_555 1_555
C17 C18 1_555 1_555
C24 C25 1_555 1_555
C35 C36 1_555 1_555
C42 N1 1_555 1_555
C45 C46 1_555 1_555
C47 N2 1_555 1_555
C48 C49 1_555 1_555
N2 Mn2 1_555 1_555
O1 Mn2 1_555 1_555
O5 Mn1 1_555 1_555
O6 Mn2B 1_555 1_555
Mn2 O5B 1_555 1_555
C1B O2B 1_555 1_555
C6B C7B 1_555 1_555
C17B C18B 1_555 1_555
C19B O5B 1_555 1_555
C19B O6B 1_555 1_555
C24B C25B 1_555 1_555
C35B C36B 1_555 1_555
C42B N1B 1_555 1_555
C45B C46B 1_555 1_555
C47B N2B 1_555 1_555
C48B C49B 1_555 1_555
N1B Mn2B 1_555 1_555
N2B Mn2B 1_555 1_555
O1B Mn2B 1_555 1_555

#END
