
#######################################################################
#
#                 Cambridge Crystallographic Data Centre
#                                CCDC 
#
#######################################################################
#
# If this CIF has been generated from an entry in the Cambridge 
# Structural Database, then it will include bibliographic, chemical, 
# crystal, experimental, refinement or atomic coordinate data resulting 
# from the CCDC's data processing and validation procedures.
#
#######################################################################

data_DOJTIH
_symmetry_cell_setting           triclinic
_symmetry_space_group_name_H-M   'P -1'
_symmetry_Int_Tables_number      2
_space_group_name_Hall           '-P 1'
loop_
_symmetry_equiv_pos_site_id
_symmetry_equiv_pos_as_xyz
1 x,y,z
2 -x,-y,-z
_cell_length_a                   3.3392(3)
_cell_length_b                   4.9297(3)
_cell_length_c                   7.4736(5)
_cell_angle_alpha                76.777(5)
_cell_angle_beta                 86.619(6)
_cell_angle_gamma                78.680(6)
_cell_volume                     117.42
loop_
_atom_site_label
_atom_site_type_symbol
_atom_site_fract_x
_atom_site_fract_y
_atom_site_fract_z
O1 O 0.89721(18) -0.18475(13) 0.71909(8)
O2 O 0.59625(19) 0.27147(13) 0.64509(8)
C1 C 0.7996(2) 0.06094(18) 0.75257(11)
C2 C 0.9194(3) 0.10644(17) 0.93227(11)
H1 H 0.867(4) 0.297(3) 0.9457(17)
Li1 Li 0.4499(5) 0.6788(3) 0.6228(2)
O1A O 1.10279(18) 0.18475(13) 1.28091(8)
O2A O 1.40375(19) -0.27147(13) 1.35491(8)
C1A C 1.2004(2) -0.06094(18) 1.24743(11)
C2A C 1.0806(3) -0.10644(17) 1.06773(11)
H1A H 1.133(4) -0.297(3) 1.0543(17)
Li1A Li 0.5501(5) 0.3212(3) 0.3772(2)
O1_2 O -0.10279(18) 0.81525(13) 0.71909(8)
O1_3 O 0.89721(18) 0.81525(13) 0.71909(8)
O1A_2 O 0.10279(18) 0.18475(13) 0.28091(8)
O1A_3 O 1.10279(18) 0.18475(13) 0.28091(8)
O2A_2 O 0.40375(19) 0.72853(13) 0.35491(8)
Li1_2 Li 0.4499(5) -0.3212(3) 0.6228(2)
Li1_3 Li 1.4499(5) -0.3212(3) 0.6228(2)
Li1_4 Li 1.4499(5) -0.3212(3) 1.6228(2)
Li1A_2 Li 0.5501(5) 0.3212(3) 1.3772(2)
Li1A_3 Li 1.5501(5) -0.6788(3) 1.3772(2)
Li1A_4 Li 1.5501(5) 0.3212(3) 1.3772(2)
loop_
_geom_bond_atom_site_label_1
_geom_bond_atom_site_label_2
_geom_bond_site_symmetry_1
_geom_bond_site_symmetry_2
O1 C1 1_555 1_555
O2 C1 1_555 1_555
C1 C2 1_555 1_555
C2 H1 1_555 1_555
Li1 O2 1_555 1_555
O1A C1A 1_555 1_555
O2A C1A 1_555 1_555
C1A C2A 1_555 1_555
C2A C2 1_555 1_555
H1A C2A 1_555 1_555
Li1A O2 1_555 1_555
O1_2 Li1 1_555 1_555
O1_3 Li1 1_555 1_555
O1A_2 Li1A 1_555 1_555
O1A_3 Li1A 1_555 1_555
O2A_2 Li1 1_555 1_555
Li1_2 O1 1_555 1_555
Li1_3 O1 1_555 1_555
Li1_4 O2A 1_555 1_555
Li1A_2 O1A 1_555 1_555
Li1A_3 O2A 1_555 1_555
Li1A_4 O1A 1_555 1_555
Li1A O2A_2 1_555 1_555

#END
