
#######################################################################
#
#                 Cambridge Crystallographic Data Centre
#                                CCDC 
#
#######################################################################
#
# If this CIF has been generated from an entry in the Cambridge 
# Structural Database, then it will include bibliographic, chemical, 
# crystal, experimental, refinement or atomic coordinate data resulting 
# from the CCDC's data processing and validation procedures.
#
#######################################################################

data_DOJVUU
_symmetry_cell_setting           orthorhombic
_symmetry_space_group_name_H-M   'P n m b'
_symmetry_Int_Tables_number      53
_space_group_name_Hall           '-P 2bc 2bc'
loop_
_symmetry_equiv_pos_site_id
_symmetry_equiv_pos_as_xyz
1 x,y,z
2 -x,1/2-y,1/2+z
3 x,1/2-y,1/2-z
4 -x,y,-z
5 -x,-y,-z
6 x,1/2+y,1/2-z
7 -x,1/2+y,1/2+z
8 x,-y,z
_cell_length_a                   5.5645(3)
_cell_length_b                   8.0881(3)
_cell_length_c                   10.9514(5)
_cell_angle_alpha                90
_cell_angle_beta                 90
_cell_angle_gamma                90
_cell_volume                     492.881
loop_
_atom_site_label
_atom_site_type_symbol
_atom_site_fract_x
_atom_site_fract_y
_atom_site_fract_z
Ca1 Ca 0.0000 0.00000 0.00000
N1 N 0.2299(2) 0.22924(19) 0.08356(12)
N2 N 0.7536(3) 0.50000 0.31405(18)
C1 C 0.4119(4) 0.50000 0.15881(19)
C2 C 0.3125(3) 0.35093(19) 0.11792(12)
C3 C 0.6005(4) 0.50000 0.24406(18)
Ca1E Ca 1.0000 0.50000 0.50000
Ca1_2 Ca 0.0000 1.00000 0.00000
Ca1E_2 Ca 1.0000 -0.50000 0.50000
Ca1_3 Ca 0.0000 -1.00000 0.00000
N1G N 0.2299(2) 0.77076(19) 0.08356(12)
N1G_2 N 0.2299(2) -0.22924(19) 0.08356(12)
N1_2 N 0.2299(2) -0.77076(19) 0.08356(12)
N1D N -0.2299(2) -0.22924(19) -0.08356(12)
N1C N -0.2299(2) 0.22924(19) -0.08356(12)
N2_2 N 0.7536(3) -0.50000 0.31405(18)
N2E N -0.2464(3) 0.00000 0.18595(18)
N2F N 0.2464(3) 0.00000 -0.18595(18)
C1_2 C 0.4119(4) -0.50000 0.15881(19)
C2G C 0.3125(3) 0.64907(19) 0.11792(12)
C2G_2 C 0.3125(3) -0.35093(19) 0.11792(12)
C2_2 C 0.3125(3) -0.64907(19) 0.11792(12)
C3_2 C 0.6005(4) -0.50000 0.24406(18)
loop_
_geom_bond_atom_site_label_1
_geom_bond_atom_site_label_2
_geom_bond_site_symmetry_1
_geom_bond_site_symmetry_2
Ca1 N1 1_555 1_555
N1 C2 1_555 1_555
N2 C3 1_555 1_555
C1 C2 1_555 1_555
C3 C1 1_555 1_555
Ca1E N2 1_555 1_555
Ca1_2 N1G 1_555 1_555
Ca1E_2 N2_2 1_555 1_555
Ca1_3 N1_2 1_555 1_555
N1G C2G 1_555 1_555
N1G_2 Ca1 1_555 1_555
N1_2 C2_2 1_555 1_555
N1D Ca1 1_555 1_555
N1C Ca1 1_555 1_555
N2_2 C3_2 1_555 1_555
N2E Ca1 1_555 1_555
N2F Ca1 1_555 1_555
C1_2 C2G_2 1_555 1_555
C2G C1 1_555 1_555
C2G_2 N1G_2 1_555 1_555
C2_2 C1_2 1_555 1_555
C3_2 C1_2 1_555 1_555

#END
