
#######################################################################
#
#                 Cambridge Crystallographic Data Centre
#                                CCDC 
#
#######################################################################
#
# If this CIF has been generated from an entry in the Cambridge 
# Structural Database, then it will include bibliographic, chemical, 
# crystal, experimental, refinement or atomic coordinate data resulting 
# from the CCDC's data processing and validation procedures.
#
#######################################################################

data_DOJWEG
_symmetry_cell_setting           monoclinic
_symmetry_space_group_name_H-M   'P 21/c'
_symmetry_Int_Tables_number      14
_space_group_name_Hall           '-P 2ybc'
loop_
_symmetry_equiv_pos_site_id
_symmetry_equiv_pos_as_xyz
1 x,y,z
2 -x,1/2+y,1/2-z
3 -x,-y,-z
4 x,1/2-y,1/2+z
_cell_length_a                   8.9979(9)
_cell_length_b                   14.5904(14)
_cell_length_c                   13.4092(13)
_cell_angle_alpha                90
_cell_angle_beta                 113.863(6)
_cell_angle_gamma                90
_cell_volume                     1609.91
loop_
_atom_site_label
_atom_site_type_symbol
_atom_site_fract_x
_atom_site_fract_y
_atom_site_fract_z
Cd1 Cd 0.80416(3) 0.748034(12) 0.39170(2)
N1 N 0.8122(4) 0.6295(2) 0.2847(3)
N2 N 0.8486(5) 0.5463(2) 0.1610(3)
N3 N 0.7498(4) 0.8652(2) 0.2722(3)
N4 N 0.7660(4) 0.9598(2) 0.1496(3)
O1 O 1.0124(5) 0.7216(3) 0.5695(3)
O2 O 1.0778(3) 0.7896(2) 0.4490(3)
O3 O 1.6226(4) 0.8149(2) 0.4653(3)
O4 O 1.5996(4) 0.67082(18) 0.4183(2)
C1 C 1.1157(7) 0.7578(2) 0.5423(5)
C2 C 1.2892(7) 0.7648(3) 0.6246(5)
H1 H 1.3216 0.7060 0.6605
H2 H 1.2941 0.8093 0.6797
C3 C 1.4123(4) 0.7928(3) 0.5775(3)
H3 H 1.3777 0.8501 0.5383
H4 H 1.5171 0.8031 0.6371
C4 C 1.4309(5) 0.7226(3) 0.5025(4)
H5 H 1.3273 0.7168 0.4404
H6 H 1.4532 0.6641 0.5402
C5 C 1.5594(6) 0.7387(2) 0.4599(4)
C6 C 0.7537(7) 0.4965(3) 0.1975(4)
H7 H 0.7116 0.4383 0.1745
C7 C 0.7329(6) 0.5478(2) 0.2732(3)
H8 H 0.6729 0.5305 0.3125
C8 C 0.8787(5) 0.6255(2) 0.2144(3)
H9 H 0.9398 0.6726 0.2031
C9 C 0.8951(7) 0.5206(3) 0.0718(4)
H10 H 0.9919 0.5531 0.0794
H11 H 0.8087 0.5361 0.0033
H12 H 0.9151 0.4559 0.0744
C10 C 0.6474(5) 0.9387(2) 0.2599(3)
H13 H 0.5820 0.9471 0.2979
C11 C 0.6569(5) 0.9960(2) 0.1844(3)
H14 H 0.5994 1.0504 0.1606
C12 C 0.8174(6) 0.9975(3) 0.0676(4)
H15 H 0.7342 0.9999 0.0116
H16 H 0.8533 1.0568 0.0863
H17 H 0.8631 0.9598 0.0523
C13 C 0.8198(5) 0.8811(2) 0.2043(3)
H18 H 0.8963 0.8429 0.1954
Cd1_2 Cd 1.80416(3) 0.748034(12) 0.39170(2)
O3_2 O 0.6226(4) 0.8149(2) 0.4653(3)
O4_2 O 0.5996(4) 0.67082(18) 0.4183(2)
loop_
_geom_bond_atom_site_label_1
_geom_bond_atom_site_label_2
_geom_bond_site_symmetry_1
_geom_bond_site_symmetry_2
Cd1 N1 1_555 1_555
N1 C7 1_555 1_555
N2 C6 1_555 1_555
N3 Cd1 1_555 1_555
N4 C11 1_555 1_555
O1 Cd1 1_555 1_555
O2 Cd1 1_555 1_555
O3 C5 1_555 1_555
O4 C5 1_555 1_555
C1 O1 1_555 1_555
C2 C1 1_555 1_555
H1 C2 1_555 1_555
H2 C2 1_555 1_555
C3 C2 1_555 1_555
H3 C3 1_555 1_555
H4 C3 1_555 1_555
C4 C3 1_555 1_555
H5 C4 1_555 1_555
H6 C4 1_555 1_555
C5 C4 1_555 1_555
C6 H7 1_555 1_555
C7 C6 1_555 1_555
H8 C7 1_555 1_555
C8 N1 1_555 1_555
H9 C8 1_555 1_555
C9 N2 1_555 1_555
H10 C9 1_555 1_555
H11 C9 1_555 1_555
H12 C9 1_555 1_555
C10 N3 1_555 1_555
H13 C10 1_555 1_555
C11 C10 1_555 1_555
H14 C11 1_555 1_555
C12 N4 1_555 1_555
H15 C12 1_555 1_555
H16 C12 1_555 1_555
H17 C12 1_555 1_555
C13 N3 1_555 1_555
H18 C13 1_555 1_555
Cd1_2 O3 1_555 1_555
O3_2 Cd1 1_555 1_555
O4_2 Cd1 1_555 1_555
N2 C8 1_555 1_555
N4 C13 1_555 1_555
O2 C1 1_555 1_555
O4 Cd1_2 1_555 1_555

#END
