
#######################################################################
#
#                 Cambridge Crystallographic Data Centre
#                                CCDC 
#
#######################################################################
#
# If this CIF has been generated from an entry in the Cambridge 
# Structural Database, then it will include bibliographic, chemical, 
# crystal, experimental, refinement or atomic coordinate data resulting 
# from the CCDC's data processing and validation procedures.
#
#######################################################################

data_DOJXIK
_symmetry_cell_setting           orthorhombic
_symmetry_space_group_name_H-M   'P n n a'
_symmetry_Int_Tables_number      52
_space_group_name_Hall           '-P 2a 2bc'
loop_
_symmetry_equiv_pos_site_id
_symmetry_equiv_pos_as_xyz
1 x,y,z
2 1/2-x,-y,z
3 x,1/2-y,1/2-z
4 1/2-x,1/2+y,1/2-z
5 -x,-y,-z
6 1/2+x,y,-z
7 -x,1/2+y,1/2+z
8 1/2+x,1/2-y,1/2+z
_cell_length_a                   9.5277(13)
_cell_length_b                   14.692(2)
_cell_length_c                   13.6772(18)
_cell_angle_alpha                90
_cell_angle_beta                 90
_cell_angle_gamma                90
_cell_volume                     1914.55
loop_
_atom_site_label
_atom_site_type_symbol
_atom_site_fract_x
_atom_site_fract_y
_atom_site_fract_z
H1 H 1.173(7) -0.004(3) -0.126(4)
H5 H 0.767(3) 0.423(3) -0.029(3)
H6 H 0.887(4) 0.4861(18) 0.111(2)
H7 H 0.804(3) 0.2760(17) -0.0593(19)
H8 H 1.0935(19) 0.2568(13) 0.1535(15)
La1 La 1.2500 0.0000 0.105809(11)
O1 O 1.07778(19) 0.11186(11) 0.05197(13)
O2 O 1.2500 0.0000 -0.0929(3)
O3 O 0.90947(17) 0.12045(10) -0.05717(11)
O4 O 1.03529(18) 0.49398(9) 0.26559(13)
O5 O 1.20195(15) 0.39033(10) 0.24799(11)
C1 C 1.0292(2) 0.29035(14) 0.11663(14)
C2 C 1.0054(2) 0.38018(13) 0.14248(15)
C3 C 0.9829(2) 0.15333(15) 0.00999(14)
C4 C 0.8340(3) 0.39100(18) 0.0143(2)
C5 C 0.9551(2) 0.25015(13) 0.04021(14)
C6 C 0.9067(3) 0.43043(17) 0.0905(2)
C7 C 0.8570(3) 0.30100(17) -0.00964(19)
C8 C 1.0865(2) 0.42396(14) 0.22350(14)
H1A H 1.327(7) 0.004(3) -0.126(4)
H5A H 1.733(3) -0.423(3) -0.029(3)
H6A H 1.613(4) -0.4861(18) 0.111(2)
H7A H 1.696(3) -0.2760(17) -0.0593(19)
H8A H 1.4065(19) -0.2568(13) 0.1535(15)
La1E La 0.7500 0.0000 -0.105809(11)
La1B La 1.2500 0.5000 0.394191(11)
La1E_2 La 1.7500 0.0000 -0.105809(11)
La1B_2 La 1.2500 -0.5000 0.394191(11)
O1A O 1.42222(19) -0.11186(11) 0.05197(13)
O3A O 1.59053(17) -0.12045(10) -0.05717(11)
O3E O 1.40947(17) 0.12045(10) 0.05717(11)
O3D O 1.09053(17) -0.12045(10) 0.05717(11)
O4A O 1.46471(18) -0.49398(9) 0.26559(13)
O4B O 1.03529(18) 0.00602(9) 0.23441(13)
O4C O 1.46471(18) -0.00602(9) 0.23441(13)
O5A O 1.29805(15) -0.39033(10) 0.24799(11)
O5B O 1.20195(15) 0.10967(10) 0.25201(11)
O5C O 1.29805(15) -0.10967(10) 0.25201(11)
C1A C 1.4708(2) -0.29035(14) 0.11663(14)
C2A C 1.4946(2) -0.38018(13) 0.14248(15)
C3A C 1.5171(2) -0.15333(15) 0.00999(14)
C4A C 1.6660(3) -0.39100(18) 0.0143(2)
C5A C 1.5449(2) -0.25015(13) 0.04021(14)
C6A C 1.5933(3) -0.43043(17) 0.0905(2)
C7A C 1.6430(3) -0.30100(17) -0.00964(19)
C8A C 1.4135(2) -0.42396(14) 0.22350(14)
H2 H 0.756(3) 0.670(3) 0.250(3)
H3 H 0.990(3) 0.632(2) 0.252(2)
H4 H 1.145(4) 0.7500 0.2500
N1 N 0.9664(3) 0.67835(16) 0.24654(17)
C9 C 1.0471(4) 0.7500 0.2500
C10 C 0.8312(3) 0.7050(2) 0.2479(3)
H2B H 0.756(3) 0.830(3) 0.250(3)
H3B H 0.990(3) 0.868(2) 0.248(2)
N1B N 0.9664(3) 0.82165(16) 0.25346(17)
C10B C 0.8312(3) 0.7950(2) 0.2521(3)
loop_
_geom_bond_atom_site_label_1
_geom_bond_atom_site_label_2
_geom_bond_site_symmetry_1
_geom_bond_site_symmetry_2
H1 O2 1_555 1_555
H2 C10 1_555 1_555
H3 N1 1_555 1_555
H4 C9 1_555 1_555
H5 C4 1_555 1_555
H6 C6 1_555 1_555
H7 C7 1_555 1_555
H8 C1 1_555 1_555
La1 O1 1_555 1_555
O1 C3 1_555 1_555
O2 La1 1_555 1_555
O3 C3 1_555 1_555
O4 C8 1_555 1_555
O5 C8 1_555 1_555
C1 C2 1_555 1_555
C2 C6 1_555 1_555
C3 C5 1_555 1_555
C4 C6 1_555 1_555
C5 C1 1_555 1_555
C7 C4 1_555 1_555
C8 C2 1_555 1_555
N1 C9 1_555 1_555
C9 N1B 1_555 1_555
C10 N1 1_555 1_555
H1A O2 1_555 1_555
H2B C10B 1_555 1_555
H3B N1B 1_555 1_555
H5A C4A 1_555 1_555
H6A C6A 1_555 1_555
H7A C7A 1_555 1_555
H8A C1A 1_555 1_555
La1E O3 1_555 1_555
La1B O4 1_555 1_555
La1E_2 O3A 1_555 1_555
La1B_2 O4A 1_555 1_555
O1A La1 1_555 1_555
O3A C3A 1_555 1_555
O3E La1 1_555 1_555
O3D La1 1_555 1_555
O4A C8A 1_555 1_555
O4B La1 1_555 1_555
O4C La1 1_555 1_555
O5A La1B_2 1_555 1_555
O5B La1 1_555 1_555
O5C La1 1_555 1_555
C1A C2A 1_555 1_555
C2A C6A 1_555 1_555
C3A O1A 1_555 1_555
C4A C6A 1_555 1_555
C5A C1A 1_555 1_555
C7A C4A 1_555 1_555
C8A O5A 1_555 1_555
N1B C10B 1_555 1_555
C10B C10 1_555 1_555
O5 La1B 1_555 1_555
C5 C7 1_555 1_555
C2A C8A 1_555 1_555
C3A C5A 1_555 1_555
C5A C7A 1_555 1_555

#END
