
#######################################################################
#
#                 Cambridge Crystallographic Data Centre
#                                CCDC 
#
#######################################################################
#
# If this CIF has been generated from an entry in the Cambridge 
# Structural Database, then it will include bibliographic, chemical, 
# crystal, experimental, refinement or atomic coordinate data resulting 
# from the CCDC's data processing and validation procedures.
#
#######################################################################

data_DOJXUW
_symmetry_cell_setting           orthorhombic
_symmetry_space_group_name_H-M   'P n n a'
_symmetry_Int_Tables_number      52
_space_group_name_Hall           '-P 2a 2bc'
loop_
_symmetry_equiv_pos_site_id
_symmetry_equiv_pos_as_xyz
1 x,y,z
2 1/2-x,-y,z
3 x,1/2-y,1/2-z
4 1/2-x,1/2+y,1/2-z
5 -x,-y,-z
6 1/2+x,y,-z
7 -x,1/2+y,1/2+z
8 1/2+x,1/2-y,1/2+z
_cell_length_a                   9.5107(2)
_cell_length_b                   14.6128(3)
_cell_length_c                   13.5317(3)
_cell_angle_alpha                90
_cell_angle_beta                 90
_cell_angle_gamma                90
_cell_volume                     1880.61
loop_
_atom_site_label
_atom_site_type_symbol
_atom_site_fract_x
_atom_site_fract_y
_atom_site_fract_z
Nd1 Nd 0.2500 0.5000 0.104375(14)
H1 H 0.323(10) 0.498(3) -0.123(5)
O1 O 0.0363(3) 0.49366(11) 0.23100(18)
O2 O 0.2047(2) 0.39144(13) 0.24975(14)
O3 O -0.0923(2) 0.11786(14) 0.55546(15)
O4 O 0.2500 0.5000 -0.0938(4)
O5 O 0.0828(3) 0.11130(14) 0.44985(17)
C1 C 0.0885(3) 0.42393(17) 0.27421(18)
C2 C 0.0072(3) 0.37995(17) 0.3558(2)
C3 C -0.0923(4) 0.4301(2) 0.4080(2)
H2 H -0.1095 0.4908 0.3913
C4 C -0.1658(4) 0.3900(2) 0.4848(3)
H3 H -0.2312 0.4242 0.5202
C5 C -0.1428(4) 0.2998(2) 0.5093(3)
C6 C -0.0433(3) 0.24899(17) 0.45907(19)
C7 C 0.0314(3) 0.28945(17) 0.38220(18)
H4 H 0.0984 0.2555 0.3481
C8 C -0.0154(2) 0.1517(2) 0.49004(18)
H7 H -0.199(4) 0.276(2) 0.557(2)
Nd1F Nd -0.2500 0.0000 0.604375(14)
Nd1B Nd 0.2500 0.0000 0.395625(14)
Nd1F_2 Nd 0.7500 1.0000 0.604375(14)
Nd1B_2 Nd 0.2500 1.0000 0.395625(14)
H1A H 0.177(10) 0.502(3) -0.123(5)
O1A O 0.4637(3) 0.50634(11) 0.23100(18)
O2A O 0.2953(2) 0.60856(13) 0.24975(14)
O3A O 0.5923(2) 0.88214(14) 0.55546(15)
O3F O 0.0923(2) 0.61786(14) 0.05546(15)
O3G O 0.4077(2) 0.38214(14) 0.05546(15)
O5A O 0.4172(3) 0.88870(14) 0.44985(17)
O5B O 0.0828(3) 0.38870(14) 0.05015(17)
O5C O 0.4172(3) 0.61130(14) 0.05015(17)
C1A C 0.4115(3) 0.57607(17) 0.27421(18)
C2A C 0.4928(3) 0.62005(17) 0.3558(2)
C3A C 0.5923(4) 0.5699(2) 0.4080(2)
H2A H 0.6095 0.5092 0.3913
C4A C 0.6658(4) 0.6100(2) 0.4848(3)
H3A H 0.7312 0.5758 0.5202
C5A C 0.6428(4) 0.7002(2) 0.5093(3)
C6A C 0.5433(3) 0.75101(17) 0.45907(19)
C7A C 0.4686(3) 0.71055(17) 0.38220(18)
H4A H 0.4016 0.7445 0.3481
C8A C 0.5154(2) 0.8483(2) 0.49004(18)
H7A H 0.699(4) 0.724(2) 0.557(2)
C9 C 0.4549(5) 0.2500 0.2500
H5 H 0.3571 0.2500 0.2500
N1 N 0.5354(3) 0.1780(2) 0.2487(2)
C10 C 0.6706(4) 0.2046(2) 0.2489(4)
H6 H 0.7491 0.1666 0.2476
H8 H 0.507(4) 0.127(3) 0.253(3)
N1B N 0.5354(3) 0.3220(2) 0.2513(2)
C10B C 0.6706(4) 0.2954(2) 0.2511(4)
H6B H 0.7491 0.3334 0.2524
H8B H 0.507(4) 0.373(3) 0.247(3)
loop_
_geom_bond_atom_site_label_1
_geom_bond_atom_site_label_2
_geom_bond_site_symmetry_1
_geom_bond_site_symmetry_2
Nd1 O1 1_555 1_555
H1 O4 1_555 1_555
O1 C1 1_555 1_555
O2 Nd1 1_555 1_555
O3 C8 1_555 1_555
O4 Nd1 1_555 1_555
O5 C8 1_555 1_555
C1 O2 1_555 1_555
C2 C1 1_555 1_555
C3 C2 1_555 1_555
H2 C3 1_555 1_555
C4 C3 1_555 1_555
H3 C4 1_555 1_555
C5 C4 1_555 1_555
C6 C5 1_555 1_555
C7 C2 1_555 1_555
H4 C7 1_555 1_555
C8 C6 1_555 1_555
C9 H5 1_555 1_555
N1 C9 1_555 1_555
C10 N1 1_555 1_555
H6 C10 1_555 1_555
H7 C5 1_555 1_555
H8 N1 1_555 1_555
Nd1F O3 1_555 1_555
Nd1B O5 1_555 1_555
Nd1F_2 O3A 1_555 1_555
Nd1B_2 O5A 1_555 1_555
H1A O4 1_555 1_555
O1A Nd1 1_555 1_555
O2A Nd1 1_555 1_555
O3A C8A 1_555 1_555
O3F Nd1 1_555 1_555
O3G Nd1 1_555 1_555
O5A C8A 1_555 1_555
O5B Nd1 1_555 1_555
O5C Nd1 1_555 1_555
C1A O1A 1_555 1_555
C2A C1A 1_555 1_555
C3A C2A 1_555 1_555
H2A C3A 1_555 1_555
C4A C3A 1_555 1_555
H3A C4A 1_555 1_555
C5A C4A 1_555 1_555
C6A C5A 1_555 1_555
C7A C2A 1_555 1_555
H4A C7A 1_555 1_555
C8A C6A 1_555 1_555
N1B C9 1_555 1_555
C10B C10 1_555 1_555
H6B C10B 1_555 1_555
H7A C5A 1_555 1_555
H8B N1B 1_555 1_555
C6 C7 1_555 1_555
O2A C1A 1_555 1_555
C6A C7A 1_555 1_555
N1B C10B 1_555 1_555

#END
