
#######################################################################
#
#                 Cambridge Crystallographic Data Centre
#                                CCDC 
#
#######################################################################
#
# If this CIF has been generated from an entry in the Cambridge 
# Structural Database, then it will include bibliographic, chemical, 
# crystal, experimental, refinement or atomic coordinate data resulting 
# from the CCDC's data processing and validation procedures.
#
#######################################################################

data_DOJXOQ
_symmetry_cell_setting           orthorhombic
_symmetry_space_group_name_H-M   'P n n a'
_symmetry_Int_Tables_number      52
_space_group_name_Hall           '-P 2a 2bc'
loop_
_symmetry_equiv_pos_site_id
_symmetry_equiv_pos_as_xyz
1 x,y,z
2 1/2-x,-y,z
3 1/2-x,1/2+y,1/2-z
4 x,1/2-y,1/2-z
5 -x,-y,-z
6 1/2+x,y,-z
7 1/2+x,1/2-y,1/2+z
8 -x,1/2+y,1/2+z
_cell_length_a                   9.5051(6)
_cell_length_b                   14.6243(10)
_cell_length_c                   13.5603(9)
_cell_angle_alpha                90
_cell_angle_beta                 90
_cell_angle_gamma                90
_cell_volume                     1884.96
loop_
_atom_site_label
_atom_site_type_symbol
_atom_site_fract_x
_atom_site_fract_y
_atom_site_fract_z
Pr1 Pr 1.2500 0.0000 0.604660(10)
O1 O 1.0819(2) 0.11096(11) 0.55062(13)
O2 O 1.2500 0.0000 0.4069(2)
O3 O 0.90769(18) 0.11830(10) 0.44381(11)
C3 C 1.0312(2) 0.28949(14) 0.61719(14)
O4 O 1.20456(16) 0.39117(10) 0.74982(11)
C4 C 1.0066(2) 0.37983(14) 0.64350(15)
C5 C 1.0879(2) 0.42415(14) 0.72530(15)
C6 C 0.9076(3) 0.43011(17) 0.5914(2)
C7 C 0.9840(2) 0.15192(15) 0.50985(14)
C8 C 0.9566(2) 0.24909(14) 0.54051(15)
C9 C 0.8572(3) 0.30033(17) 0.49019(19)
C10 C 0.8346(4) 0.39042(19) 0.5146(2)
O5 O 1.03577(18) 0.49361(9) 0.76841(13)
H1 H 1.096(2) 0.2549(14) 0.6496(16)
H2 H 0.804(3) 0.2749(19) 0.442(2)
H3 H 0.881(4) 0.488(2) 0.617(2)
H5 H 0.769(3) 0.422(3) 0.478(3)
H8 H 1.176(9) -0.009(5) 0.367(5)
Pr1E Pr 0.7500 0.0000 0.395340(10)
Pr1B Pr 1.2500 0.5000 0.895340(10)
Pr1E_2 Pr 1.7500 0.0000 0.395340(10)
Pr1B_2 Pr 1.2500 -0.5000 0.895340(10)
O1A O 1.4181(2) -0.11096(11) 0.55062(13)
O3A O 1.59231(18) -0.11830(10) 0.44381(11)
O3E O 1.40769(18) 0.11830(10) 0.55619(11)
O3D O 1.09231(18) -0.11830(10) 0.55619(11)
C3A C 1.4688(2) -0.28949(14) 0.61719(14)
O4A O 1.29544(16) -0.39117(10) 0.74982(11)
O4B O 1.29544(16) -0.10883(10) 0.75018(11)
O4C O 1.20456(16) 0.10883(10) 0.75018(11)
C4A C 1.4934(2) -0.37983(14) 0.64350(15)
C5A C 1.4121(2) -0.42415(14) 0.72530(15)
C6A C 1.5924(3) -0.43011(17) 0.5914(2)
C7A C 1.5160(2) -0.15192(15) 0.50985(14)
C8A C 1.5434(2) -0.24909(14) 0.54051(15)
C9A C 1.6428(3) -0.30033(17) 0.49019(19)
C10A C 1.6654(4) -0.39042(19) 0.5146(2)
O5A O 1.46423(18) -0.49361(9) 0.76841(13)
O5B O 1.46423(18) -0.00639(9) 0.73159(13)
O5C O 1.03577(18) 0.00639(9) 0.73159(13)
H1A H 1.404(2) -0.2549(14) 0.6496(16)
H2A H 1.696(3) -0.2749(19) 0.442(2)
H3A H 1.619(4) -0.488(2) 0.617(2)
H5A H 1.731(3) -0.422(3) 0.478(3)
H8A H 1.324(9) 0.009(5) 0.367(5)
C1 C 1.0450(4) 0.7500 0.7500
C2 C 0.8294(4) 0.7047(2) 0.7489(4)
N1 N 0.9645(3) 0.67796(16) 0.74826(19)
H4 H 1.141(5) 0.7500 0.7500
H6 H 0.991(3) 0.630(2) 0.750(2)
H7 H 0.760(3) 0.667(3) 0.754(4)
C2C C 0.8294(4) 0.7953(2) 0.7511(4)
N1C N 0.9645(3) 0.82204(16) 0.75174(19)
H6C H 0.991(3) 0.870(2) 0.750(2)
H7C H 0.760(3) 0.833(3) 0.746(4)
loop_
_geom_bond_atom_site_label_1
_geom_bond_atom_site_label_2
_geom_bond_site_symmetry_1
_geom_bond_site_symmetry_2
Pr1 O1 1_555 1_555
O1 C7 1_555 1_555
O2 Pr1 1_555 1_555
C1 N1 1_555 1_555
C2 N1 1_555 1_555
N1 H6 1_555 1_555
O3 C7 1_555 1_555
C3 C4 1_555 1_555
O4 C5 1_555 1_555
C4 C5 1_555 1_555
C5 O5 1_555 1_555
C6 C4 1_555 1_555
C7 C8 1_555 1_555
C8 C3 1_555 1_555
C9 C8 1_555 1_555
C10 C6 1_555 1_555
O5 Pr1B 1_555 1_555
H1 C3 1_555 1_555
H2 C9 1_555 1_555
H3 C6 1_555 1_555
H4 C1 1_555 1_555
H5 C10 1_555 1_555
H7 C2 1_555 1_555
H8 O2 1_555 1_555
Pr1E O3 1_555 1_555
Pr1B O4 1_555 1_555
Pr1E_2 O3A 1_555 1_555
Pr1B_2 O4A 1_555 1_555
O1A Pr1 1_555 1_555
C2C C2 1_555 1_555
N1C C1 1_555 1_555
O3A C7A 1_555 1_555
O3E Pr1 1_555 1_555
O3D Pr1 1_555 1_555
C3A C4A 1_555 1_555
O4A C5A 1_555 1_555
O4B Pr1 1_555 1_555
O4C Pr1 1_555 1_555
C4A C5A 1_555 1_555
C5A O5A 1_555 1_555
C6A C4A 1_555 1_555
C7A O1A 1_555 1_555
C8A C3A 1_555 1_555
C9A C8A 1_555 1_555
C10A C6A 1_555 1_555
O5A Pr1B_2 1_555 1_555
O5B Pr1 1_555 1_555
O5C Pr1 1_555 1_555
H1A C3A 1_555 1_555
H2A C9A 1_555 1_555
H3A C6A 1_555 1_555
H5A C10A 1_555 1_555
H6C N1C 1_555 1_555
H7C C2C 1_555 1_555
H8A O2 1_555 1_555
C9 C10 1_555 1_555
C2C N1C 1_555 1_555
C7A C8A 1_555 1_555
C9A C10A 1_555 1_555

#END
