
#######################################################################
#
#                 Cambridge Crystallographic Data Centre
#                                CCDC 
#
#######################################################################
#
# If this CIF has been generated from an entry in the Cambridge 
# Structural Database, then it will include bibliographic, chemical, 
# crystal, experimental, refinement or atomic coordinate data resulting 
# from the CCDC's data processing and validation procedures.
#
#######################################################################

data_DOJYOS
_symmetry_cell_setting           triclinic
_symmetry_space_group_name_H-M   'P -1'
_symmetry_Int_Tables_number      2
_space_group_name_Hall           '-P 1'
loop_
_symmetry_equiv_pos_site_id
_symmetry_equiv_pos_as_xyz
1 x,y,z
2 -x,-y,-z
_cell_length_a                   9.3105(9)
_cell_length_b                   13.2138(13)
_cell_length_c                   14.0990(14)
_cell_angle_alpha                102.310(2)
_cell_angle_beta                 108.444(2)
_cell_angle_gamma                108.378(2)
_cell_volume                     1464.15
loop_
_atom_site_label
_atom_site_type_symbol
_atom_site_fract_x
_atom_site_fract_y
_atom_site_fract_z
C1 C 0.9879(3) 0.8225(2) 0.64602(18)
C2 C 0.9201(3) 0.77748(19) 0.71906(17)
C3 C 0.7580(3) 0.6995(2) 0.67924(17)
H1 H 0.6892 0.6750 0.6072
C4 C 0.6984(3) 0.6579(2) 0.74757(18)
C5 C 0.7970(3) 0.6965(2) 0.85560(18)
H2 H 0.7556 0.6697 0.9016
C6 C 0.9588(3) 0.7760(2) 0.89337(17)
C7 C 1.0230(3) 0.8158(2) 0.82649(18)
H3 H 1.1332 0.8674 0.8529
C8 C 0.4460(3) 0.5633(2) 0.7597(2)
C9 C 0.3501(4) 0.6240(2) 0.7579(2)
H4 H 0.3548 0.6753 0.7217
C10 C 0.2467(4) 0.6082(2) 0.8103(2)
H5 H 0.1783 0.6468 0.8073
C11 C 0.2451(3) 0.5351(2) 0.8672(2)
C12 C 0.3424(4) 0.4749(3) 0.8684(3)
H6 H 0.3414 0.4258 0.9069
C13 C 0.4418(4) 0.4874(3) 0.8126(3)
H7 H 0.5046 0.4450 0.8111
C14 C 0.1402(4) 0.5205(2) 0.9268(2)
C15 C 1.0083(3) 0.8191(2) 1.07700(17)
C16 C 1.0680(3) 0.7762(2) 1.15325(18)
H8 H 1.1389 0.7409 1.1485
C17 C 1.0217(3) 0.7857(2) 1.23760(18)
H9 H 1.0638 0.7584 1.2908
C18 C 0.9127(3) 0.83585(19) 1.24348(16)
C19 C 0.8542(3) 0.8782(2) 1.16523(18)
H10 H 0.7804 0.9113 1.1682
C20 C 0.9040(3) 0.8719(3) 1.0828(2)
H11 H 0.8674 0.9031 1.0316
C21 C 0.8618(3) 0.84534(18) 1.33461(16)
O1 O 0.8702(2) 0.80998(19) 0.55876(14)
H12 H 0.9105 0.8304 0.5185
O2 O 1.1348(2) 0.86299(19) 0.66767(14)
O3 O 0.5388(2) 0.57391(18) 0.69990(15)
O4 O 1.0689(2) 0.8152(2) 0.99844(13)
O5 O 0.1755(3) 0.4864(2) 1.00322(19)
O6 O 0.0147(3) 0.5439(3) 0.8952(2)
H13 H -0.0382 0.5307 0.9312
O7 O 0.7269(2) 0.84880(16) 1.32268(13)
O8 O 0.96678(19) 0.84945(15) 1.42080(12)
C22 C 0.3385(3) 0.06139(19) 0.30239(17)
H14 H 0.2845 0.0901 0.3390
C23 C 0.3370(3) 0.0711(2) 0.20906(17)
H15 H 0.2834 0.1073 0.1703
C24 C 0.4854(3) -0.02186(18) 0.26172(15)
H16 H 0.5529 -0.0611 0.2639
C25 C 0.4655(3) 0.00774(18) 0.08972(16)
C26 C 0.4813(3) -0.08731(19) 0.04044(17)
H17 H 0.4683 -0.1467 0.0670
C27 C 0.4835(3) 0.0949(2) 0.04876(17)
H18 H 0.4720 0.1591 0.0812
C28 C 0.7247(3) 0.23165(17) 0.51215(16)
H19 H 0.7579 0.1938 0.4655
C29 C 0.6054(3) 0.2660(2) 0.6141(2)
H20 H 0.5390 0.2553 0.6516
C30 C 0.7012(4) 0.3676(2) 0.6164(2)
H21 H 0.7131 0.4386 0.6548
C31 C 0.8923(3) 0.42545(17) 0.52627(18)
C32 C 1.0299(3) 0.40982(18) 0.5228(2)
H22 H 1.0499 0.3493 0.5384
C33 C 0.8616(3) 0.51530(19) 0.5040(2)
H23 H 0.7685 0.5254 0.5070
Mn1 Mn 0.5000 0.0000 0.5000
N1 N 0.4315(2) 0.00296(14) 0.33569(13)
N2 N 0.4301(2) 0.01696(15) 0.18210(13)
N3 N 0.6197(2) 0.18077(14) 0.54888(13)
N4 N 0.7779(2) 0.34560(15) 0.55073(15)
O9 O 0.71593(19) -0.01432(14) 0.49762(12)
H24 H 0.8058(16) 0.0409(15) 0.531(2)
H25 H 0.713(3) -0.0626(16) 0.4488(16)
C22A C 0.6615(3) -0.06139(19) -0.30239(17)
H14A H 0.7155 -0.0901 -0.3390
C23A C 0.6630(3) -0.0711(2) -0.20906(17)
H15A H 0.7166 -0.1073 -0.1703
C24A C 0.5146(3) 0.02186(18) -0.26172(15)
H16A H 0.4471 0.0611 -0.2639
C25A C 0.5345(3) -0.00774(18) -0.08972(16)
C26A C 0.5187(3) 0.08731(19) -0.04044(17)
H17A H 0.5317 0.1467 -0.0670
C27A C 0.5165(3) -0.0949(2) -0.04876(17)
H18A H 0.5280 -0.1591 -0.0812
N1A N 0.5685(2) -0.00296(14) -0.33569(13)
N2A N 0.5699(2) -0.01696(15) -0.18210(13)
C28A C 1.2753(3) 0.76835(17) 0.48785(16)
H19A H 1.2421 0.8062 0.5345
C29A C 1.3946(3) 0.7340(2) 0.3859(2)
H20A H 1.4610 0.7447 0.3484
C30A C 1.2988(4) 0.6324(2) 0.3836(2)
H21A H 1.2869 0.5614 0.3452
C31A C 1.1077(3) 0.57455(17) 0.47373(18)
C32A C 0.9701(3) 0.59018(18) 0.4772(2)
H22A H 0.9501 0.6507 0.4616
C33A C 1.1384(3) 0.48470(19) 0.4960(2)
H23A H 1.2315 0.4746 0.4930
N3A N 1.3803(2) 0.81923(14) 0.45112(13)
N4A N 1.2221(2) 0.65440(15) 0.44927(15)
O9A O 0.28407(19) 0.01432(14) 0.50238(12)
H24A H 0.1942(16) -0.0409(15) 0.469(2)
H25A H 0.287(3) 0.0626(16) 0.5512(16)
Mn1_2 Mn 0.5000 0.0000 -0.5000
Mn1_3 Mn 1.5000 1.0000 0.5000
N1A_2 N 0.5685(2) -0.00296(14) 0.66431(13)
N3A_2 N 0.3803(2) -0.18077(14) 0.45112(13)
loop_
_geom_bond_atom_site_label_1
_geom_bond_atom_site_label_2
_geom_bond_site_symmetry_1
_geom_bond_site_symmetry_2
C1 C2 1_555 1_555
C2 C3 1_555 1_555
C3 H1 1_555 1_555
C4 C3 1_555 1_555
C5 C4 1_555 1_555
H2 C5 1_555 1_555
C6 C5 1_555 1_555
C7 C2 1_555 1_555
H3 C7 1_555 1_555
C8 C9 1_555 1_555
C9 H4 1_555 1_555
C10 C9 1_555 1_555
H5 C10 1_555 1_555
C11 C10 1_555 1_555
C12 C11 1_555 1_555
H6 C12 1_555 1_555
C13 C8 1_555 1_555
H7 C13 1_555 1_555
C14 C11 1_555 1_555
C15 C16 1_555 1_555
C16 H8 1_555 1_555
C17 C16 1_555 1_555
H9 C17 1_555 1_555
C18 C17 1_555 1_555
C19 C18 1_555 1_555
H10 C19 1_555 1_555
C20 C15 1_555 1_555
H11 C20 1_555 1_555
C21 C18 1_555 1_555
O1 C1 1_555 1_555
H12 O1 1_555 1_555
O2 C1 1_555 1_555
O3 C4 1_555 1_555
O4 C6 1_555 1_555
O5 C14 1_555 1_555
O6 C14 1_555 1_555
H13 O6 1_555 1_555
O7 C21 1_555 1_555
O8 C21 1_555 1_555
C22 H14 1_555 1_555
C23 C22 1_555 1_555
H15 C23 1_555 1_555
C24 H16 1_555 1_555
C25 C26 1_555 1_555
C26 H17 1_555 1_555
C27 C25 1_555 1_555
H18 C27 1_555 1_555
C28 H19 1_555 1_555
C29 H20 1_555 1_555
C30 C29 1_555 1_555
H21 C30 1_555 1_555
C31 C32 1_555 1_555
C32 H22 1_555 1_555
C33 C31 1_555 1_555
H23 C33 1_555 1_555
Mn1 N1 1_555 1_555
N1 C22 1_555 1_555
N2 C23 1_555 1_555
N3 C28 1_555 1_555
N4 C28 1_555 1_555
O9 Mn1 1_555 1_555
H24 O9 1_555 1_555
H25 O9 1_555 1_555
C22A H14A 1_555 1_555
C23A C22A 1_555 1_555
H15A C23A 1_555 1_555
C24A H16A 1_555 1_555
C25A C26A 1_555 1_555
C26A C27 1_555 1_555
H17A C26A 1_555 1_555
C27A C26 1_555 1_555
H18A C27A 1_555 1_555
N1A C22A 1_555 1_555
N2A C23A 1_555 1_555
C28A H19A 1_555 1_555
C29A H20A 1_555 1_555
C30A C29A 1_555 1_555
H21A C30A 1_555 1_555
C31A C32A 1_555 1_555
C32A C33 1_555 1_555
H22A C32A 1_555 1_555
C33A C32 1_555 1_555
H23A C33A 1_555 1_555
N3A C28A 1_555 1_555
N4A C28A 1_555 1_555
O9A Mn1 1_555 1_555
H24A O9A 1_555 1_555
H25A O9A 1_555 1_555
Mn1_2 N1A 1_555 1_555
Mn1_3 N3A 1_555 1_555
N1A_2 Mn1 1_555 1_555
N3A_2 Mn1 1_555 1_555
C6 C7 1_555 1_555
C8 O3 1_555 1_555
C12 C13 1_555 1_555
C15 O4 1_555 1_555
C19 C20 1_555 1_555
C24 N1 1_555 1_555
C24 N2 1_555 1_555
C25 N2 1_555 1_555
C29 N3 1_555 1_555
C30 N4 1_555 1_555
C31 N4 1_555 1_555
Mn1 N3 1_555 1_555
C24A N1A 1_555 1_555
C24A N2A 1_555 1_555
C25A C27A 1_555 1_555
C25A N2A 1_555 1_555
C29A N3A 1_555 1_555
C30A N4A 1_555 1_555
C31A C33A 1_555 1_555
C31A N4A 1_555 1_555

#END
