
#######################################################################
#
#                 Cambridge Crystallographic Data Centre
#                                CCDC 
#
#######################################################################
#
# If this CIF has been generated from an entry in the Cambridge 
# Structural Database, then it will include bibliographic, chemical, 
# crystal, experimental, refinement or atomic coordinate data resulting 
# from the CCDC's data processing and validation procedures.
#
#######################################################################

data_DOKGAM
_symmetry_cell_setting           monoclinic
_symmetry_space_group_name_H-M   'C 2/c'
_symmetry_Int_Tables_number      15
_space_group_name_Hall           '-C 2yn'
loop_
_symmetry_equiv_pos_site_id
_symmetry_equiv_pos_as_xyz
1 x,y,z
2 1/2+x,1/2+y,z
3 -x,y,1/2-z
4 1/2-x,1/2+y,1/2-z
5 -x,-y,-z
6 1/2-x,1/2-y,-z
7 x,-y,1/2+z
8 1/2+x,1/2-y,1/2+z
_cell_length_a                   30.011(10)
_cell_length_b                   6.584(2)
_cell_length_c                   18.263(7)
_cell_angle_alpha                90
_cell_angle_beta                 90.101(14)
_cell_angle_gamma                90
_cell_volume                     3608.62
loop_
_atom_site_label
_atom_site_type_symbol
_atom_site_fract_x
_atom_site_fract_y
_atom_site_fract_z
Mn1 Mn 0.262543(10) 0.33562(5) 0.146523(17)
O1 O 0.45613(6) -0.3840(3) 0.19358(12)
O2 O 0.38584(6) -0.3364(3) 0.18677(12)
O3 O 0.52121(6) 0.4562(3) 0.07203(11)
O4 O 0.54214(6) 0.1654(3) 0.02992(10)
O5 O 0.31568(5) 0.2345(3) 0.07418(9)
O6 O 0.35806(7) 0.4989(3) 0.04398(14)
O7 O 0.71570(5) -0.0507(3) 0.22778(9)
O8 O 0.69451(5) 0.2585(3) 0.26244(9)
O9 O 0.22826(7) 0.0482(3) 0.14702(11)
H1 H 0.2183 -0.0230 0.1120
H2 H 0.2389 -0.0297 0.1797
O10 O 0.22270(6) 0.4361(3) 0.05182(10)
H3 H 0.2089 0.5482 0.0500
H4 H 0.2099 0.3661 0.0191
O11 O 0.29053(6) 0.6460(3) 0.14786(11)
H5 H 0.3183 0.6526 0.1394
H6 H 0.2879 0.7291 0.1828
N1 N 0.51128(6) -0.1124(3) 0.14383(12)
H7 H 0.5075(6) -0.244(3) 0.1611(10)
N2 N 0.42369(6) -0.2829(3) 0.17355(11)
N3 N 0.51563(6) 0.2739(3) 0.06201(10)
C1 C 0.39437(7) 0.2015(3) 0.08280(11)
C2 C 0.39217(6) 0.0123(3) 0.11419(11)
H8 H 0.3639 -0.0495 0.1217
C3 C 0.43057(7) -0.0904(3) 0.13518(11)
C4 C 0.47408(6) -0.0090(3) 0.12359(11)
C5 C 0.47401(6) 0.1822(3) 0.08842(11)
C6 C 0.43609(7) 0.2868(3) 0.07029(11)
H9 H 0.4383 0.4182 0.0491
C7 C 0.35306(7) 0.3212(4) 0.06456(13)
C8 C 0.55478(6) -0.0425(3) 0.15956(12)
C9 C 0.58924(7) -0.1775(4) 0.14500(15)
H10 H 0.5833 -0.3009 0.1199
C10 C 0.63223(7) -0.1318(4) 0.16721(14)
H11 H 0.6556 -0.2256 0.1582
C11 C 0.64132(6) 0.0507(3) 0.20268(11)
C12 C 0.60695(7) 0.1884(3) 0.21457(11)
H12 H 0.6132 0.3158 0.2368
C13 C 0.56348(7) 0.1410(3) 0.19412(12)
H13 H 0.5399 0.2335 0.2038
C14 C 0.68718(6) 0.0915(3) 0.23247(11)
Mn1A Mn 0.762543(10) -0.16438(5) 0.146523(17)
Mn1B Mn 0.737457(10) 0.33562(5) 0.353477(17)
O7A O 0.21570(5) 0.4493(3) 0.22778(9)
O8B O 0.30549(5) 0.2585(3) 0.23756(9)
O12 O 0.20959(15) -0.1733(6) 0.0287(2)
O13? O 0.17134(16) -0.2040(6) 0.0648(2)
loop_
_geom_bond_atom_site_label_1
_geom_bond_atom_site_label_2
_geom_bond_site_symmetry_1
_geom_bond_site_symmetry_2
Mn1 O5 1_555 1_555
O1 N2 1_555 1_555
O2 N2 1_555 1_555
O3 N3 1_555 1_555
O4 N3 1_555 1_555
O5 C7 1_555 1_555
O6 C7 1_555 1_555
O7 C14 1_555 1_555
O8 C14 1_555 1_555
O9 Mn1 1_555 1_555
H1 O9 1_555 1_555
H2 O9 1_555 1_555
O10 Mn1 1_555 1_555
H3 O10 1_555 1_555
H4 O10 1_555 1_555
O11 Mn1 1_555 1_555
H5 O11 1_555 1_555
H6 O11 1_555 1_555
N1 H7 1_555 1_555
N2 C3 1_555 1_555
N3 C5 1_555 1_555
C1 C2 1_555 1_555
C2 H8 1_555 1_555
C3 C2 1_555 1_555
C4 N1 1_555 1_555
C5 C4 1_555 1_555
C6 C1 1_555 1_555
H9 C6 1_555 1_555
C7 C1 1_555 1_555
C8 N1 1_555 1_555
C9 C8 1_555 1_555
H10 C9 1_555 1_555
C10 C9 1_555 1_555
H11 C10 1_555 1_555
C11 C10 1_555 1_555
C12 C11 1_555 1_555
H12 C12 1_555 1_555
C13 C8 1_555 1_555
H13 C13 1_555 1_555
C14 C11 1_555 1_555
Mn1A O7 1_555 1_555
Mn1B O8 1_555 1_555
O7A Mn1 1_555 1_555
O8B Mn1 1_555 1_555
C3 C4 1_555 1_555
C5 C6 1_555 1_555
C12 C13 1_555 1_555

#END
