
#######################################################################
#
#                 Cambridge Crystallographic Data Centre
#                                CCDC 
#
#######################################################################
#
# If this CIF has been generated from an entry in the Cambridge 
# Structural Database, then it will include bibliographic, chemical, 
# crystal, experimental, refinement or atomic coordinate data resulting 
# from the CCDC's data processing and validation procedures.
#
#######################################################################

data_DOKJET
_symmetry_cell_setting           tetragonal
_symmetry_space_group_name_H-M   'P 41 21 2'
_symmetry_Int_Tables_number      92
_space_group_name_Hall           'P 4abw 2nw'
loop_
_symmetry_equiv_pos_site_id
_symmetry_equiv_pos_as_xyz
1 x,y,z
2 1/2+x,1/2-y,3/4-z
3 -x,-y,1/2+z
4 1/2-x,1/2+y,1/4-z
5 y,x,-z
6 1/2+y,1/2-x,3/4+z
7 1/2-y,1/2+x,1/4+z
8 -y,-x,1/2-z
_cell_length_a                   9.4587(13)
_cell_length_b                   9.4587(13)
_cell_length_c                   21.123(4)
_cell_angle_alpha                90
_cell_angle_beta                 90
_cell_angle_gamma                90
_cell_volume                     1889.81
loop_
_atom_site_label
_atom_site_type_symbol
_atom_site_fract_x
_atom_site_fract_y
_atom_site_fract_z
Cd1 Cd 0.96553(4) -0.03447(4) 1.0000
Cd2 Cd 1.22449(4) -0.59685(4) 0.925980(17)
C1 C 1.0215(6) -0.3473(6) 0.9593(3)
C2 C 1.1629(6) -0.2770(6) 0.9499(2)
C3 C 1.2969(7) -0.0760(6) 0.9498(3)
H1 H 1.3045 0.0215 0.9542
C4 C 1.4135(8) -0.1521(7) 0.9348(3)
H2 H 1.5014 -0.1088 0.9312
C5 C 1.3983(7) -0.2959(6) 0.9251(3)
H3 H 1.4762 -0.3501 0.9138
C6 C 1.0045(5) 0.1718(5) 0.8962(2)
C7 C 1.0070(5) 0.2635(5) 0.8350(2)
N1 N 1.2707(5) -0.3576(5) 0.9321(2)
N2 N 1.1700(5) -0.1381(5) 0.9584(2)
O1 O 1.0145(4) -0.4768(4) 0.9472(2)
O2 O 0.9237(5) -0.2718(4) 0.9779(2)
O3 O 0.9119(4) 0.0772(4) 0.90044(16)
O4 O 1.0949(4) 0.1969(4) 0.93744(17)
O5 O 0.9115(4) 0.2391(4) 0.79454(15)
O6 O 1.1028(4) 0.3514(4) 0.83068(18)
Cd2D Cd 0.40315(4) 0.22449(4) 1.074020(17)
Cd2A Cd 0.72449(4) 0.09685(4) 0.824020(17)
Cd2_2 Cd 1.22449(4) 0.40315(4) 0.925980(17)
Cd2E Cd 0.90315(4) 0.27551(4) 0.675980(17)
Cd2F Cd 1.09685(4) -0.27551(4) 1.175980(17)
Cd2D_2 Cd 1.40315(4) 0.22449(4) 1.074020(17)
Cd2C Cd 1.27551(4) -0.09685(4) 1.324020(17)
C1D C 0.6527(6) 0.0215(6) 1.0407(3)
C2D C 0.7230(6) 0.1629(6) 1.0501(2)
C3D C 0.9240(6) 0.2969(7) 1.0502(3)
H1D H 1.0215 0.3045 1.0458
C4D C 0.8479(7) 0.4135(8) 1.0652(3)
H2D H 0.8912 0.5014 1.0688
C5D C 0.7041(6) 0.3983(7) 1.0749(3)
H3D H 0.6499 0.4762 1.0862
C6D C 1.1718(5) 0.0045(5) 1.1038(2)
C7D C 1.2635(5) 0.0070(5) 1.1650(2)
N1D N 0.6424(5) 0.2707(5) 1.0679(2)
N2D N 0.8619(5) 0.1700(5) 1.0416(2)
O1D O 0.5232(4) 0.0145(4) 1.0528(2)
O2D O 0.7282(4) -0.0763(5) 1.0221(2)
O3D O 1.0772(4) -0.0881(4) 1.09956(16)
O3A O 1.4119(4) -0.5772(4) 0.84956(16)
O3F O 0.4228(4) 0.4119(4) 1.15044(16)
O4D O 1.1969(4) 0.0949(4) 1.06256(17)
O4_2 O 1.0949(4) -0.8031(4) 0.93744(17)
O4D_2 O 0.1969(4) 0.0949(4) 1.06256(17)
O5D O 1.2391(4) -0.0885(4) 1.20546(15)
O5A O 1.4115(4) -0.7391(4) 0.95546(15)
O5F O 1.2609(4) -0.5885(4) 1.04454(15)
O5A_2 O 0.4115(4) 0.2609(4) 0.95546(15)
O5F_2 O 0.2609(4) 0.4115(4) 1.04454(15)
O6D O 1.3514(4) 0.1028(4) 1.16932(18)
O6_2 O 1.1028(4) -0.6486(4) 0.83068(18)
O6D_2 O 0.3514(4) 0.1028(4) 1.16932(18)
O7 O 1.1896(11) -0.041(2) 0.8090(6)
H4 H 1.129(5) 0.001(4) 0.7855(18)
H5 H 1.268(10) -0.04(3) 0.787(7)
loop_
_geom_bond_atom_site_label_1
_geom_bond_atom_site_label_2
_geom_bond_site_symmetry_1
_geom_bond_site_symmetry_2
Cd1 N2 1_555 1_555
Cd2 N1 1_555 1_555
C1 C2 1_555 1_555
C2 N1 1_555 1_555
C3 H1 1_555 1_555
C4 C3 1_555 1_555
H2 C4 1_555 1_555
C5 C4 1_555 1_555
H3 C5 1_555 1_555
C6 C7 1_555 1_555
C7 O5 1_555 1_555
N1 C5 1_555 1_555
N2 C2 1_555 1_555
O1 Cd2 1_555 1_555
O2 Cd1 1_555 1_555
O3 Cd1 1_555 1_555
O4 Cd1 1_555 1_555
O5 Cd2A 1_555 1_555
O6 C7 1_555 1_555
O7 H4 1_555 1_555
H5 O7 1_555 1_555
Cd2D N1D 1_555 1_555
Cd2A O3 1_555 1_555
Cd2_2 O4 1_555 1_555
Cd2E O5 1_555 1_555
Cd2F O3D 1_555 1_555
Cd2D_2 O4D 1_555 1_555
Cd2C O5D 1_555 1_555
C1D C2D 1_555 1_555
C2D N1D 1_555 1_555
C3D H1D 1_555 1_555
C4D C3D 1_555 1_555
H2D C4D 1_555 1_555
C5D C4D 1_555 1_555
H3D C5D 1_555 1_555
C6D C7D 1_555 1_555
C7D O5D 1_555 1_555
N1D C5D 1_555 1_555
N2D Cd1 1_555 1_555
O1D Cd2D 1_555 1_555
O2D Cd1 1_555 1_555
O3D Cd1 1_555 1_555
O3A Cd2 1_555 1_555
O3F Cd2D 1_555 1_555
O4D Cd1 1_555 1_555
O4_2 Cd2 1_555 1_555
O4D_2 Cd2D 1_555 1_555
O5D Cd2F 1_555 1_555
O5A Cd2 1_555 1_555
O5F Cd2 1_555 1_555
O5A_2 Cd2D 1_555 1_555
O5F_2 Cd2D 1_555 1_555
O6D Cd2D_2 1_555 1_555
O6_2 Cd2 1_555 1_555
O6D_2 Cd2D 1_555 1_555
C1 O1 1_555 1_555
C1 O2 1_555 1_555
C3 N2 1_555 1_555
C6 O3 1_555 1_555
C6 O4 1_555 1_555
O6 Cd2_2 1_555 1_555
C1D O1D 1_555 1_555
C1D O2D 1_555 1_555
C2D N2D 1_555 1_555
C3D N2D 1_555 1_555
C6D O3D 1_555 1_555
C6D O4D 1_555 1_555
C7D O6D 1_555 1_555

#END
