
#######################################################################
#
#                 Cambridge Crystallographic Data Centre
#                                CCDC 
#
#######################################################################
#
# If this CIF has been generated from an entry in the Cambridge 
# Structural Database, then it will include bibliographic, chemical, 
# crystal, experimental, refinement or atomic coordinate data resulting 
# from the CCDC's data processing and validation procedures.
#
#######################################################################

data_DOKJIX
_symmetry_cell_setting           monoclinic
_symmetry_space_group_name_H-M   'P 21/c'
_symmetry_Int_Tables_number      14
_space_group_name_Hall           '-P 2ybc'
loop_
_symmetry_equiv_pos_site_id
_symmetry_equiv_pos_as_xyz
1 x,y,z
2 -x,1/2+y,1/2-z
3 -x,-y,-z
4 x,1/2-y,1/2+z
_cell_length_a                   10.391(3)
_cell_length_b                   16.868(5)
_cell_length_c                   11.273(3)
_cell_angle_alpha                90
_cell_angle_beta                 115.251(3)
_cell_angle_gamma                90
_cell_volume                     1787.08
loop_
_atom_site_label
_atom_site_type_symbol
_atom_site_fract_x
_atom_site_fract_y
_atom_site_fract_z
Cd1 Cd 0.33214(3) 0.812603(15) 0.90127(3)
Cd2 Cd -0.28900(3) 0.688126(15) 0.65014(3)
C1 C 0.0055(4) 0.7737(2) 0.7516(4)
C2 C 0.0583(4) 0.7009(2) 0.8262(4)
C3 C 0.0129(5) 0.5775(2) 0.8766(4)
H1 H -0.0501 0.5365 0.8690
C4 C 0.1538(5) 0.5672(2) 0.9561(4)
H2 H 0.1873 0.5196 1.0003
C5 C 0.2447(4) 0.6288(2) 0.9691(4)
H3 H 0.3410 0.6232 1.0242
C6 C 0.3299(4) 0.99988(19) 0.8713(4)
C7 C 0.2670(4) 1.0022(2) 0.9642(4)
C8 C 0.1805(5) 1.0741(3) 1.0807(5)
H4 H 0.1514 1.1222 1.1016
C9 C 0.1734(6) 1.0073(3) 1.1471(5)
H5 H 0.1427 1.0096 1.2134
C10 C 0.2134(5) 0.9367(3) 1.1119(5)
H6 H 0.2069 0.8902 1.1535
C11 C 0.4513(4) 0.76152(19) 1.2127(3)
C12 C 0.5890(4) 0.7433(2) 1.3397(4)
N1 N 0.0876(3) 0.83510(18) 0.7598(3)
N2 N -0.0001(4) 0.8889(2) 0.6775(4)
N3 N -0.1305(4) 0.8604(2) 0.6228(4)
N4 N -0.1287(3) 0.78562(18) 0.6691(3)
N5 N -0.0383(3) 0.64469(18) 0.8086(3)
N6 N 0.1973(3) 0.69694(17) 0.9039(3)
N7 N 0.3792(3) 0.93500(17) 0.8388(3)
N8 N 0.4332(4) 0.9588(2) 0.7563(4)
N9 N 0.4163(4) 1.0355(2) 0.7402(3)
N10 N 0.3502(3) 1.06317(18) 0.8116(3)
N11 N 0.2269(4) 1.07309(19) 0.9885(3)
N12 N 0.2611(4) 0.93318(19) 1.0199(3)
O1 O 0.4728(3) 0.78517(15) 1.1172(2)
O2 O 0.3339(3) 0.75124(15) 1.2148(2)
O3 O 0.5676(3) 0.71683(15) 1.4343(2)
O4 O 0.7060(3) 0.75562(16) 1.3390(2)
Cd1C Cd 0.33214(3) 0.687397(15) 1.40127(3)
Cd2A Cd 0.28900(3) 1.188126(15) 0.84986(3)
Cd2C Cd 0.71100(3) 0.811874(15) 1.15014(3)
Cd2_2 Cd 0.71100(3) 0.688126(15) 1.65014(3)
N10A N -0.3502(3) 0.56317(18) 0.6884(3)
N11A N -0.2269(4) 0.57309(19) 0.5115(3)
O1C O -0.5272(3) 0.71483(15) 0.6172(2)
O2C O 0.3339(3) 0.74876(15) 0.7148(2)
O3C O 0.5676(3) 0.78317(15) 0.9343(2)
O3_2 O -0.4324(3) 0.71683(15) 0.4343(2)
O4C O -0.2940(3) 0.74438(16) 0.8390(2)
O5 O 0.4516(9) 1.0851(7) 0.5040(11)
H7 H 0.470(8) 1.065(10) 0.585(7)
H8 H 0.359(3) 1.086(10) 0.466(10)
loop_
_geom_bond_atom_site_label_1
_geom_bond_atom_site_label_2
_geom_bond_site_symmetry_1
_geom_bond_site_symmetry_2
Cd1 N1 1_555 1_555
Cd2 N4 1_555 1_555
C1 C2 1_555 1_555
C2 N5 1_555 1_555
C3 H1 1_555 1_555
C4 C3 1_555 1_555
H2 C4 1_555 1_555
C5 C4 1_555 1_555
H3 C5 1_555 1_555
C6 C7 1_555 1_555
C7 N11 1_555 1_555
C8 H4 1_555 1_555
C9 C8 1_555 1_555
H5 C9 1_555 1_555
C10 C9 1_555 1_555
H6 C10 1_555 1_555
C11 C12 1_555 1_555
C12 O3 1_555 1_555
N1 C1 1_555 1_555
N2 N1 1_555 1_555
N3 N2 1_555 1_555
N4 C1 1_555 1_555
N5 Cd2 1_555 1_555
N6 Cd1 1_555 1_555
N7 Cd1 1_555 1_555
N8 N7 1_555 1_555
N9 N8 1_555 1_555
N10 C6 1_555 1_555
N11 C8 1_555 1_555
N12 Cd1 1_555 1_555
O1 Cd1 1_555 1_555
O2 C11 1_555 1_555
O3 Cd1C 1_555 1_555
O4 C12 1_555 1_555
O5 H7 1_555 1_555
H8 O5 1_555 1_555
Cd1C O2 1_555 1_555
Cd2A N10 1_555 1_555
Cd2C O1 1_555 1_555
Cd2_2 O3 1_555 1_555
N10A Cd2 1_555 1_555
N11A Cd2 1_555 1_555
O1C Cd2 1_555 1_555
O2C Cd1 1_555 1_555
O3C Cd1 1_555 1_555
O3_2 Cd2 1_555 1_555
O4C Cd2 1_555 1_555
C2 N6 1_555 1_555
C3 N5 1_555 1_555
C5 N6 1_555 1_555
C6 N7 1_555 1_555
C7 N12 1_555 1_555
C10 N12 1_555 1_555
C11 O1 1_555 1_555
N3 N4 1_555 1_555
N9 N10 1_555 1_555
N11 Cd2A 1_555 1_555
O4 Cd2C 1_555 1_555
Cd2C O3C 1_555 1_555

#END
