
#######################################################################
#
#                 Cambridge Crystallographic Data Centre
#                                CCDC 
#
#######################################################################
#
# If this CIF has been generated from an entry in the Cambridge 
# Structural Database, then it will include bibliographic, chemical, 
# crystal, experimental, refinement or atomic coordinate data resulting 
# from the CCDC's data processing and validation procedures.
#
#######################################################################

data_DOKKAQ
_symmetry_cell_setting           monoclinic
_symmetry_space_group_name_H-M   'C 2/c'
_symmetry_Int_Tables_number      15
_space_group_name_Hall           '-C 2yn'
loop_
_symmetry_equiv_pos_site_id
_symmetry_equiv_pos_as_xyz
1 x,y,z
2 1/2+x,1/2+y,z
3 -x,y,1/2-z
4 1/2-x,1/2+y,1/2-z
5 -x,-y,-z
6 1/2-x,1/2-y,-z
7 x,-y,1/2+z
8 1/2+x,1/2-y,1/2+z
_cell_length_a                   22.050(3)
_cell_length_b                   11.7652(13)
_cell_length_c                   46.352(6)
_cell_angle_alpha                90
_cell_angle_beta                 94.643(2)
_cell_angle_gamma                90
_cell_volume                     11985.3
loop_
_atom_site_label
_atom_site_type_symbol
_atom_site_fract_x
_atom_site_fract_y
_atom_site_fract_z
Cu1 Cu -0.12279(3) -0.18400(6) 0.197270(14)
Cu2 Cu -0.10232(3) 0.08740(6) 0.179410(15)
Cu3 Cu 0.00471(3) -0.09070(6) 0.172470(14)
Cu4 Cu -0.24607(3) -0.07974(6) 0.068880(14)
Cu5 Cu -0.10651(3) -0.03963(6) 0.051870(14)
Cu6 Cu -0.14751(3) -0.29404(6) 0.063100(14)
S1 S -0.12763(6) -0.10382(11) 0.12356(3)
O1 O -0.06429(17) -0.0537(3) 0.19631(7)
H1 H -0.0500 -0.0396 0.2135
O2 O -0.17795(15) -0.1447(3) 0.04813(7)
H2 H -0.1898 -0.1517 0.0303
O3 O -0.13556(18) -0.1958(3) 0.14416(8)
O4 O -0.08509(17) -0.0171(3) 0.13720(7)
O5 O -0.18476(17) -0.0477(3) 0.11430(8)
O6 O -0.09878(16) -0.1507(3) 0.09839(7)
N1 N -0.1896(2) -0.0749(4) 0.19823(10)
N2 N -0.1814(2) 0.0353(4) 0.19085(10)
N3 N -0.0207(2) 0.1480(4) 0.17583(10)
N4 N 0.0240(2) 0.0726(4) 0.17129(10)
N5 N -0.0035(2) -0.2494(4) 0.18378(10)
N6 N -0.0529(2) -0.2843(4) 0.19701(10)
N7 N -0.1807(2) -0.3142(4) 0.20141(11)
N8 N -0.1947(3) -0.3576(5) 0.22652(12)
H3 H -0.1791 -0.3349 0.2431
N9 N -0.1442(2) 0.2139(4) 0.15661(10)
N10 N -0.1728(2) 0.1879(4) 0.13052(10)
H4 H -0.1698 0.1240 0.1217
N11 N 0.0545(2) -0.1323(4) 0.13981(9)
N12 N 0.0294(2) -0.1590(4) 0.11317(10)
H5 H -0.0091 -0.1585 0.1083
N13 N -0.2232(2) 0.0696(4) 0.05497(10)
N14 N -0.1622(2) 0.0882(4) 0.05382(10)
N15 N -0.0558(2) -0.1642(4) 0.03908(9)
N16 N -0.0760(2) -0.2730(4) 0.04226(10)
N17 N -0.2255(2) -0.3199(4) 0.07786(10)
N18 N -0.2646(2) -0.2331(4) 0.08150(10)
N19 N -0.3190(2) -0.0169(4) 0.08752(11)
N20 N -0.3733(2) -0.0039(5) 0.07357(12)
H6 H -0.3800 -0.0077 0.0551
N21 N -0.0361(2) 0.0609(4) 0.06454(10)
N22 N -0.0221(2) 0.0937(4) 0.09191(10)
H7 H -0.0397 0.0696 0.1066
N23 N -0.1094(2) -0.4189(4) 0.08795(10)
N24 N -0.0929(2) -0.4010(4) 0.11616(10)
H8 H -0.0990 -0.3383 0.1250
C1 C -0.2470(3) -0.0865(6) 0.20377(15)
H9 H -0.2642 -0.1540 0.2096
C2 C -0.2782(3) 0.0148(6) 0.19971(15)
H10 H -0.3189 0.0297 0.2021
C3 C -0.2356(3) 0.0865(6) 0.19156(14)
H11 H -0.2427 0.1625 0.1870
C4 C 0.0024(3) 0.2520(5) 0.17497(14)
H12 H -0.0192 0.3189 0.1772
C5 C 0.0638(4) 0.2458(6) 0.17025(15)
H13 H 0.0911 0.3055 0.1690
C6 C 0.0751(3) 0.1299(6) 0.16784(14)
H14 H 0.1123 0.0976 0.1644
C7 C 0.0376(3) -0.3319(5) 0.18573(14)
H15 H 0.0752 -0.3295 0.1780
C8 C 0.0159(3) -0.4216(6) 0.20099(14)
H16 H 0.0356 -0.4896 0.2059
C9 C -0.0405(3) -0.3889(5) 0.20720(14)
H17 H -0.0669 -0.4330 0.2172
C10 C -0.2140(3) -0.3717(6) 0.18127(14)
H18 H -0.2141 -0.3596 0.1614
C11 C -0.2490(3) -0.4535(6) 0.19439(17)
H19 H -0.2759 -0.5057 0.1853
C12 C -0.2355(4) -0.4401(7) 0.22288(17)
H20 H -0.2518 -0.4813 0.2375
C13 C -0.1621(3) 0.3196(5) 0.16216(14)
H21 H -0.1496 0.3601 0.1788
C14 C -0.2011(3) 0.3606(6) 0.14015(14)
H22 H -0.2200 0.4313 0.1390
C15 C -0.2062(3) 0.2753(6) 0.12042(14)
H23 H -0.2293 0.2776 0.1027
C16 C 0.1137(3) -0.1459(6) 0.13812(14)
H24 H 0.1432 -0.1337 0.1533
C17 C 0.1259(3) -0.1807(6) 0.11048(16)
H25 H 0.1636 -0.1969 0.1038
C18 C 0.0712(3) -0.1859(6) 0.09553(14)
H26 H 0.0640 -0.2052 0.0761
C19 C -0.2516(3) 0.1670(5) 0.04806(13)
H27 H -0.2936 0.1770 0.0471
C20 C -0.2112(3) 0.2499(6) 0.04254(14)
H28 H -0.2196 0.3249 0.0373
C21 C -0.1545(3) 0.1976(5) 0.04645(14)
H29 H -0.1173 0.2327 0.0443
C22 C -0.0038(3) -0.1686(6) 0.02635(12)
H30 H 0.0196 -0.1061 0.0221
C23 C 0.0100(3) -0.2802(6) 0.02053(13)
H31 H 0.0433 -0.3077 0.0116
C24 C -0.0362(3) -0.3410(6) 0.03077(13)
H32 H -0.0394 -0.4198 0.0299
C25 C -0.2502(3) -0.4154(5) 0.08800(14)
H33 H -0.2324 -0.4871 0.0881
C26 C -0.3053(3) -0.3909(6) 0.09816(16)
H34 H -0.3318 -0.4409 0.1063
C27 C -0.3126(3) -0.2762(5) 0.09367(14)
H35 H -0.3462 -0.2343 0.0984
C28 C -0.3261(4) -0.0044(6) 0.11565(15)
H36 H -0.2959 -0.0082 0.1308
C29 C -0.3890(4) 0.0160(7) 0.11778(19)
H37 H -0.4080 0.0277 0.1347
C30 C -0.4156(4) 0.0153(8) 0.0911(2)
H38 H -0.4567 0.0265 0.0858
C31 C 0.0004(3) 0.1171(6) 0.04896(14)
H39 H 0.0011 0.1100 0.0290
C32 C 0.0377(3) 0.1880(6) 0.06591(17)
H40 H 0.0668 0.2382 0.0599
C33 C 0.0229(3) 0.1687(6) 0.09310(17)
H41 H 0.0411 0.2022 0.1098
C34 C -0.0925(3) -0.5253(5) 0.08324(14)
H42 H -0.0985 -0.5622 0.0655
C35 C -0.0649(3) -0.5738(6) 0.10784(16)
H43 H -0.0488 -0.6467 0.1099
C36 C -0.0663(3) -0.4914(6) 0.12874(15)
H44 H -0.0515 -0.4977 0.1480
N25 N 0.1321(3) -0.1645(5) 0.22271(13)
O7 O 0.1788(3) -0.2141(5) 0.21739(13)
O8 O 0.1106(2) -0.0883(4) 0.20682(10)
O9 O 0.1058(2) -0.1955(4) 0.24486(10)
N26 N -0.1625(3) -0.4627(5) -0.00039(14)
O10 O -0.1860(2) -0.4437(4) 0.02268(10)
O11 O -0.1737(2) -0.3972(4) -0.02198(10)
O12 O -0.1288(3) -0.5446(5) -0.00287(13)
Cu1B Cu 0.12279(3) -0.18400(6) 0.302730(14)
Cu4E Cu -0.25393(3) -0.42026(6) -0.068880(14)
O9B O -0.1058(2) -0.1955(4) 0.25514(10)
O11E O -0.3263(2) -0.1028(4) 0.02198(10)
O13 O 0.0000 -0.0723(5) 0.2500
H45 H -0.0270 -0.1170 0.2555
H45B H 0.0270 -0.1170 0.2445
O14 O -0.1943(2) -0.1687(4) -0.01079(8)
H46 H -0.2285 -0.1357 -0.0142
H47 H -0.1877 -0.2384 -0.0142
C37 C -0.1512(4) 0.0871(7) -0.02179(17)
H48 H -0.1564 0.0672 -0.0419
H49 H -0.1354 0.1630 -0.0198
H50 H -0.1897 0.0830 -0.0136
O15 O -0.1093(2) 0.0095(4) -0.00698(10)
H51 H -0.1264 -0.0548 -0.0055
C38 C -0.3958(7) -0.2413(11) 0.2552(3)
C39 C -0.3975(8) -0.3506(11) 0.2431(3)
H52 H -0.3817 -0.3481 0.2244
H53 H -0.4387 -0.3774 0.2412
H54 H -0.3731 -0.4012 0.2555
N27 N -0.3999(9) -0.1585(13) 0.2647(4)
loop_
_geom_bond_atom_site_label_1
_geom_bond_atom_site_label_2
_geom_bond_site_symmetry_1
_geom_bond_site_symmetry_2
Cu1 O1 1_555 1_555
Cu2 O1 1_555 1_555
Cu3 O1 1_555 1_555
Cu4 O2 1_555 1_555
Cu5 O2 1_555 1_555
Cu6 O2 1_555 1_555
S1 O3 1_555 1_555
O1 H1 1_555 1_555
O2 H2 1_555 1_555
O3 Cu1 1_555 1_555
O4 Cu2 1_555 1_555
O5 Cu4 1_555 1_555
O6 Cu5 1_555 1_555
N1 Cu1 1_555 1_555
N2 Cu2 1_555 1_555
N3 Cu2 1_555 1_555
N4 Cu3 1_555 1_555
N5 Cu3 1_555 1_555
N6 Cu1 1_555 1_555
N7 Cu1 1_555 1_555
N8 N7 1_555 1_555
H3 N8 1_555 1_555
N9 Cu2 1_555 1_555
N10 N9 1_555 1_555
H4 N10 1_555 1_555
N11 Cu3 1_555 1_555
N12 N11 1_555 1_555
H5 N12 1_555 1_555
N13 Cu4 1_555 1_555
N14 Cu5 1_555 1_555
N15 Cu5 1_555 1_555
N16 Cu6 1_555 1_555
N17 Cu6 1_555 1_555
N18 Cu4 1_555 1_555
N19 Cu4 1_555 1_555
N20 N19 1_555 1_555
H6 N20 1_555 1_555
N21 Cu5 1_555 1_555
N22 N21 1_555 1_555
H7 N22 1_555 1_555
N23 Cu6 1_555 1_555
N24 N23 1_555 1_555
H8 N24 1_555 1_555
C1 N1 1_555 1_555
H9 C1 1_555 1_555
C2 C1 1_555 1_555
H10 C2 1_555 1_555
C3 N2 1_555 1_555
H11 C3 1_555 1_555
C4 N3 1_555 1_555
H12 C4 1_555 1_555
C5 C4 1_555 1_555
H13 C5 1_555 1_555
C6 N4 1_555 1_555
H14 C6 1_555 1_555
C7 N5 1_555 1_555
H15 C7 1_555 1_555
C8 C7 1_555 1_555
H16 C8 1_555 1_555
C9 N6 1_555 1_555
H17 C9 1_555 1_555
C10 N7 1_555 1_555
H18 C10 1_555 1_555
C11 C10 1_555 1_555
H19 C11 1_555 1_555
C12 N8 1_555 1_555
H20 C12 1_555 1_555
C13 N9 1_555 1_555
H21 C13 1_555 1_555
C14 C13 1_555 1_555
H22 C14 1_555 1_555
C15 N10 1_555 1_555
H23 C15 1_555 1_555
C16 N11 1_555 1_555
H24 C16 1_555 1_555
C17 C16 1_555 1_555
H25 C17 1_555 1_555
C18 N12 1_555 1_555
H26 C18 1_555 1_555
C19 N13 1_555 1_555
H27 C19 1_555 1_555
C20 C19 1_555 1_555
H28 C20 1_555 1_555
C21 N14 1_555 1_555
H29 C21 1_555 1_555
C22 N15 1_555 1_555
H30 C22 1_555 1_555
C23 C22 1_555 1_555
H31 C23 1_555 1_555
C24 N16 1_555 1_555
H32 C24 1_555 1_555
C25 N17 1_555 1_555
H33 C25 1_555 1_555
C26 C25 1_555 1_555
H34 C26 1_555 1_555
C27 N18 1_555 1_555
H35 C27 1_555 1_555
C28 N19 1_555 1_555
H36 C28 1_555 1_555
C29 C28 1_555 1_555
H37 C29 1_555 1_555
C30 N20 1_555 1_555
H38 C30 1_555 1_555
C31 N21 1_555 1_555
H39 C31 1_555 1_555
C32 C31 1_555 1_555
H40 C32 1_555 1_555
C33 N22 1_555 1_555
H41 C33 1_555 1_555
C34 N23 1_555 1_555
H42 C34 1_555 1_555
C35 C34 1_555 1_555
H43 C35 1_555 1_555
C36 N24 1_555 1_555
H44 C36 1_555 1_555
N25 O7 1_555 1_555
O8 Cu3 1_555 1_555
O9 N25 1_555 1_555
N26 O10 1_555 1_555
O10 Cu6 1_555 1_555
O11 N26 1_555 1_555
O12 N26 1_555 1_555
O13 H45 1_555 1_555
O14 H46 1_555 1_555
H47 O14 1_555 1_555
C37 H48 1_555 1_555
H49 C37 1_555 1_555
H50 C37 1_555 1_555
O15 C37 1_555 1_555
H51 O15 1_555 1_555
C38 C39 1_555 1_555
C39 H52 1_555 1_555
H53 C39 1_555 1_555
H54 C39 1_555 1_555
N27 C38 1_555 1_555
Cu1B O9 1_555 1_555
Cu4E O11 1_555 1_555
O9B Cu1 1_555 1_555
O11E Cu4 1_555 1_555
H45B O13 1_555 1_555
Cu3 O4 1_555 1_555
Cu6 O6 1_555 1_555
S1 O4 1_555 1_555
S1 O5 1_555 1_555
S1 O6 1_555 1_555
N1 N2 1_555 1_555
N3 N4 1_555 1_555
N5 N6 1_555 1_555
N13 N14 1_555 1_555
N15 N16 1_555 1_555
N17 N18 1_555 1_555
C2 C3 1_555 1_555
C5 C6 1_555 1_555
C8 C9 1_555 1_555
C11 C12 1_555 1_555
C14 C15 1_555 1_555
C17 C18 1_555 1_555
C20 C21 1_555 1_555
C23 C24 1_555 1_555
C26 C27 1_555 1_555
C29 C30 1_555 1_555
C32 C33 1_555 1_555
C35 C36 1_555 1_555
N25 O8 1_555 1_555

#END
