
#######################################################################
#
#                 Cambridge Crystallographic Data Centre
#                                CCDC 
#
#######################################################################
#
# If this CIF has been generated from an entry in the Cambridge 
# Structural Database, then it will include bibliographic, chemical, 
# crystal, experimental, refinement or atomic coordinate data resulting 
# from the CCDC's data processing and validation procedures.
#
#######################################################################

data_DOKKIY
_symmetry_cell_setting           orthorhombic
_symmetry_space_group_name_H-M   'P 21 21 21'
_symmetry_Int_Tables_number      19
_space_group_name_Hall           'P 2ac 2ab'
loop_
_symmetry_equiv_pos_site_id
_symmetry_equiv_pos_as_xyz
1 x,y,z
2 1/2-x,-y,1/2+z
3 1/2+x,1/2-y,-z
4 -x,1/2+y,1/2-z
_cell_length_a                   11.9762(10)
_cell_length_b                   14.2223(12)
_cell_length_c                   15.5903(14)
_cell_angle_alpha                90
_cell_angle_beta                 90
_cell_angle_gamma                90
_cell_volume                     2655.48
loop_
_atom_site_label
_atom_site_type_symbol
_atom_site_fract_x
_atom_site_fract_y
_atom_site_fract_z
Cd1 Cd 0.63587(6) 0.18229(4) 0.14079(5)
Cd2 Cd 0.85694(6) 0.34447(4) 0.13159(5)
O1 O 0.6911(6) 0.0369(4) 0.1127(5)
O2 O 0.8241(6) 0.1884(4) 0.1606(5)
O3 O 0.9613(5) -0.1230(5) 0.3756(6)
O4 O 1.1089(6) -0.1184(5) 0.2325(5)
O5 O 0.6691(6) 0.3416(4) 0.1512(5)
O6 O 0.8005(6) 0.4862(5) 0.0883(5)
O7 O 0.5461(5) 0.6525(4) 0.3615(5)
O8 O 0.3975(5) 0.6618(5) 0.2211(5)
O9 O 0.6291(7) 0.2273(4) -0.0014(5)
O10 O 0.8585(7) 0.2761(4) -0.0038(4)
C1 C 0.7528(9) -0.1160(6) 0.1417(10)
H1 H 0.6824 -0.1294 0.1121
H2 H 0.7512 -0.1443 0.1990
H3 H 0.8150 -0.1426 0.1088
C2 C 0.7679(8) -0.0107(6) 0.1497(8)
C3 C 0.8594(11) 0.0298(6) 0.1982(7)
C4 C 0.8843(8) 0.1249(6) 0.1995(7)
C5 C 0.9827(9) 0.1604(7) 0.2460(8)
H4 H 1.0500 0.1491 0.2118
H5 H 0.9893 0.1276 0.3011
H6 H 0.9742 0.2280 0.2562
C6 C 0.8011(9) -0.0274(8) 0.3699(10)
H7 H 0.7408 -0.0732 0.3623
H8 H 0.7801 0.0322 0.3428
H9 H 0.8141 -0.0171 0.4313
C7 C 0.9084(10) -0.0650(7) 0.3281(8)
C8 C 0.9350(9) -0.0377(6) 0.2446(8)
C9 C 1.0297(9) -0.0679(6) 0.2002(8)
C10 C 1.0444(10) -0.0414(8) 0.1093(8)
H10 H 1.0638 0.0254 0.1055
H11 H 0.9747 -0.0528 0.0781
H12 H 1.1043 -0.0792 0.0840
C11 C 0.5100(9) 0.3775(7) 0.2358(8)
H13 H 0.4796 0.3204 0.2095
H14 H 0.4535 0.4273 0.2344
H15 H 0.5308 0.3644 0.2954
C12 C 0.6124(9) 0.4090(6) 0.1863(7)
C13 C 0.6394(10) 0.5023(6) 0.1781(7)
C14 C 0.7299(9) 0.5364(6) 0.1277(9)
C15 C 0.7482(9) 0.6412(6) 0.1151(9)
H16 H 0.8283 0.6538 0.1090
H17 H 0.7190 0.6754 0.1648
H18 H 0.7091 0.6620 0.0632
C16 C 0.7062(10) 0.5577(9) 0.3472(9)
H19 H 0.7583 0.6098 0.3570
H20 H 0.7393 0.5130 0.3067
H21 H 0.6909 0.5258 0.4017
C17 C 0.5980(9) 0.5957(7) 0.3104(9)
C18 C 0.5676(9) 0.5725(6) 0.2265(8)
C19 C 0.4718(10) 0.6105(7) 0.1844(8)
C20 C 0.4535(10) 0.5882(8) 0.0906(8)
H22 H 0.3795 0.6104 0.0730
H23 H 0.4584 0.5201 0.0818
H24 H 0.5108 0.6197 0.0561
Cd1C Cd 0.36413(6) 0.68229(4) 0.35921(5)
Cd2C Cd 1.14306(6) -0.15553(4) 0.36841(5)
O3C O 1.0387(5) 0.3770(5) 0.1244(6)
O4C O 0.8911(6) 0.3816(5) 0.2675(5)
O7C O 0.4539(5) 0.1525(4) 0.1385(5)
O8C O 0.6025(5) 0.1618(5) 0.2789(5)
O11 O 1.2512(9) -0.2273(8) 0.1242(8)
O12 O 1.0530(14) -0.2617(10) 0.0278(12)
O13 O 0.9771(16) -0.4337(10) -0.0261(11)
loop_
_geom_bond_atom_site_label_1
_geom_bond_atom_site_label_2
_geom_bond_site_symmetry_1
_geom_bond_site_symmetry_2
Cd1 O1 1_555 1_555
Cd2 O2 1_555 1_555
O1 C2 1_555 1_555
O2 Cd1 1_555 1_555
O3 C7 1_555 1_555
O4 C9 1_555 1_555
O5 Cd1 1_555 1_555
O6 Cd2 1_555 1_555
O7 C17 1_555 1_555
O8 C19 1_555 1_555
O9 Cd1 1_555 1_555
O10 Cd2 1_555 1_555
C1 H1 1_555 1_555
H2 C1 1_555 1_555
H3 C1 1_555 1_555
C2 C1 1_555 1_555
C3 C2 1_555 1_555
C4 O2 1_555 1_555
C5 C4 1_555 1_555
H4 C5 1_555 1_555
H5 C5 1_555 1_555
H6 C5 1_555 1_555
C6 H7 1_555 1_555
H8 C6 1_555 1_555
H9 C6 1_555 1_555
C7 C6 1_555 1_555
C8 C3 1_555 1_555
C9 C8 1_555 1_555
C10 C9 1_555 1_555
H10 C10 1_555 1_555
H11 C10 1_555 1_555
H12 C10 1_555 1_555
C11 H13 1_555 1_555
H14 C11 1_555 1_555
H15 C11 1_555 1_555
C12 O5 1_555 1_555
C13 C12 1_555 1_555
C14 O6 1_555 1_555
C15 C14 1_555 1_555
H16 C15 1_555 1_555
H17 C15 1_555 1_555
H18 C15 1_555 1_555
C16 H19 1_555 1_555
H20 C16 1_555 1_555
H21 C16 1_555 1_555
C17 C16 1_555 1_555
C18 C13 1_555 1_555
C19 C18 1_555 1_555
C20 C19 1_555 1_555
H22 C20 1_555 1_555
H23 C20 1_555 1_555
H24 C20 1_555 1_555
Cd1C O7 1_555 1_555
Cd2C O3 1_555 1_555
O3C Cd2 1_555 1_555
O4C Cd2 1_555 1_555
O7C Cd1 1_555 1_555
O8C Cd1 1_555 1_555
Cd2 O5 1_555 1_555
O4 Cd2C 1_555 1_555
O8 Cd1C 1_555 1_555
C3 C4 1_555 1_555
C7 C8 1_555 1_555
C11 C12 1_555 1_555
C13 C14 1_555 1_555
C17 C18 1_555 1_555

#END
