
#######################################################################
#
#                 Cambridge Crystallographic Data Centre
#                                CCDC 
#
#######################################################################
#
# If this CIF has been generated from an entry in the Cambridge 
# Structural Database, then it will include bibliographic, chemical, 
# crystal, experimental, refinement or atomic coordinate data resulting 
# from the CCDC's data processing and validation procedures.
#
#######################################################################

data_DOKPAV
_symmetry_cell_setting           monoclinic
_symmetry_space_group_name_H-M   'C c'
_symmetry_Int_Tables_number      9
_space_group_name_Hall           'C -2yc'
loop_
_symmetry_equiv_pos_site_id
_symmetry_equiv_pos_as_xyz
1 x,y,z
2 x,-y,1/2+z
3 1/2+x,1/2+y,z
4 1/2+x,1/2-y,1/2+z
_cell_length_a                   15.9384(15)
_cell_length_b                   11.9780(13)
_cell_length_c                   12.2500(12)
_cell_angle_alpha                90
_cell_angle_beta                 93.923(3)
_cell_angle_gamma                90
_cell_volume                     2333.17
loop_
_atom_site_label
_atom_site_type_symbol
_atom_site_fract_x
_atom_site_fract_y
_atom_site_fract_z
K1 K 0.00000(4) 0.47454(6) 0.21682(5)
O1 O 0.24017(12) 0.59370(16) 0.21238(15)
O2 O 0.16157(13) 0.49456(17) 0.32317(17)
O3 O 0.06988(12) 0.68228(17) 0.23467(16)
O4 O 0.00644(12) 0.79907(18) 0.34594(17)
O5 O 0.00130(14) 0.66037(19) 0.54690(19)
O6 O 0.00387(12) 0.84362(16) 0.58676(16)
O7 O 0.11334(13) 0.74703(19) 0.74775(17)
O8 O 0.24383(14) 0.8195(2) 0.76924(16)
O9 O 0.21262(12) 1.01475(17) 0.62012(17)
O10 O 0.35056(14) 1.0094(2) 0.6027(2)
O11 O 0.46060(11) 0.84967(17) 0.52597(15)
O12 O 0.39822(11) 0.88937(18) 0.36093(15)
O13 O 0.43658(13) 0.64440(18) 0.4373(2)
O14 O 0.34498(13) 0.50957(17) 0.38902(18)
C1 C 0.21436(17) 0.6737(2) 0.3849(2)
C2 C 0.13905(16) 0.7337(2) 0.4054(2)
C3 C 0.12493(17) 0.7667(2) 0.5152(2)
C4 C 0.18726(17) 0.7964(2) 0.5916(2)
C5 C 0.26673(17) 0.8469(2) 0.5573(2)
C6 C 0.31755(16) 0.7962(2) 0.4905(2)
C7 C 0.29393(17) 0.6899(2) 0.4338(2)
C8 C 0.20180(16) 0.5767(2) 0.3048(2)
C9 C 0.23627(19) 0.5005(2) 0.1373(2)
H1 H 0.2570 0.5238 0.0674
H2 H 0.1779 0.4751 0.1255
H3 H 0.2712 0.4393 0.1682
C10 C 0.07113(16) 0.7326(2) 0.3215(2)
C11 C -0.0658(2) 0.7962(3) 0.2675(3)
H4 H -0.1092 0.8469 0.2914
H5 H -0.0882 0.7201 0.2625
H6 H -0.0489 0.8198 0.1957
C12 C 0.03700(17) 0.7498(2) 0.5515(2)
C13 C -0.0782(2) 0.8334(3) 0.6290(3)
H7 H -0.0957 0.9061 0.6563
H8 H -0.0757 0.7790 0.6889
H9 H -0.1188 0.8082 0.5705
C14 C 0.17516(18) 0.7853(2) 0.7083(2)
C15 C 0.2412(2) 0.8029(4) 0.8860(3)
H10 H 0.2950 0.8255 0.9228
H11 H 0.2309 0.7239 0.9009
H12 H 0.1958 0.8481 0.9132
C16 C 0.28342(17) 0.9644(2) 0.5957(2)
C17 C 0.2228(2) 1.1263(3) 0.6664(3)
H13 H 0.1673 1.1600 0.6731
H14 H 0.2552 1.1725 0.6184
H15 H 0.2526 1.1216 0.7389
C18 C 0.39601(16) 0.8521(2) 0.4517(2)
C19 C 0.54031(16) 0.8831(2) 0.4851(2)
H16 H 0.5846 0.8789 0.5445
H17 H 0.5359 0.9599 0.4577
H18 H 0.5541 0.8330 0.4256
C20 C 0.35893(17) 0.6048(2) 0.4169(2)
C21 C 0.50537(19) 0.5688(3) 0.4230(3)
H19 H 0.5574 0.6003 0.4575
H20 H 0.5117 0.5578 0.3447
H21 H 0.4938 0.4969 0.4571
K1A K 0.00000(4) 0.52546(6) 0.71682(5)
K1C K 0.50000(4) 1.02546(6) 0.71682(5)
K1B K 0.50000(4) 0.97454(6) 0.21682(5)
O5A O 0.00130(14) 0.33963(19) 0.04690(19)
O10C O -0.14944(14) 0.4906(2) 0.1027(2)
O12B O -0.10178(11) 0.38937(18) 0.36093(15)
loop_
_geom_bond_atom_site_label_1
_geom_bond_atom_site_label_2
_geom_bond_site_symmetry_1
_geom_bond_site_symmetry_2
K1 O2 1_555 1_555
O1 C8 1_555 1_555
O2 C8 1_555 1_555
O3 K1 1_555 1_555
O4 C10 1_555 1_555
O5 C12 1_555 1_555
O6 C12 1_555 1_555
O7 C14 1_555 1_555
O8 C14 1_555 1_555
O9 C16 1_555 1_555
O10 C16 1_555 1_555
O11 C18 1_555 1_555
O12 C18 1_555 1_555
O13 C20 1_555 1_555
O14 C20 1_555 1_555
C1 C2 1_555 1_555
C2 C3 1_555 1_555
C3 C4 1_555 1_555
C4 C5 1_555 1_555
C5 C6 1_555 1_555
C6 C7 1_555 1_555
C7 C1 1_555 1_555
C8 C1 1_555 1_555
C9 O1 1_555 1_555
H1 C9 1_555 1_555
H2 C9 1_555 1_555
H3 C9 1_555 1_555
C10 O3 1_555 1_555
C11 O4 1_555 1_555
H4 C11 1_555 1_555
H5 C11 1_555 1_555
H6 C11 1_555 1_555
C12 C3 1_555 1_555
C13 O6 1_555 1_555
H7 C13 1_555 1_555
H8 C13 1_555 1_555
H9 C13 1_555 1_555
C14 C4 1_555 1_555
C15 O8 1_555 1_555
H10 C15 1_555 1_555
H11 C15 1_555 1_555
H12 C15 1_555 1_555
C16 C5 1_555 1_555
C17 O9 1_555 1_555
H13 C17 1_555 1_555
H14 C17 1_555 1_555
H15 C17 1_555 1_555
C18 C6 1_555 1_555
C19 O11 1_555 1_555
H16 C19 1_555 1_555
H17 C19 1_555 1_555
H18 C19 1_555 1_555
C20 C7 1_555 1_555
C21 O13 1_555 1_555
H19 C21 1_555 1_555
H20 C21 1_555 1_555
H21 C21 1_555 1_555
K1A O5 1_555 1_555
K1C O10 1_555 1_555
K1B O12 1_555 1_555
O5A K1 1_555 1_555
O10C K1 1_555 1_555
O12B K1 1_555 1_555
C2 C10 1_555 1_555

#END
