
#######################################################################
#
#                 Cambridge Crystallographic Data Centre
#                                CCDC 
#
#######################################################################
#
# If this CIF has been generated from an entry in the Cambridge 
# Structural Database, then it will include bibliographic, chemical, 
# crystal, experimental, refinement or atomic coordinate data resulting 
# from the CCDC's data processing and validation procedures.
#
#######################################################################

data_DOKRIE02
_symmetry_cell_setting           orthorhombic
_symmetry_space_group_name_H-M   'P c a 21'
_symmetry_Int_Tables_number      29
_space_group_name_Hall           'P 2c -2ac'
loop_
_symmetry_equiv_pos_site_id
_symmetry_equiv_pos_as_xyz
1 x,y,z
2 -x,-y,1/2+z
3 1/2+x,-y,z
4 1/2-x,y,1/2+z
_cell_length_a                   9.9915(8)
_cell_length_b                   12.8729(11)
_cell_length_c                   6.5646(6)
_cell_angle_alpha                90
_cell_angle_beta                 90
_cell_angle_gamma                90
_cell_volume                     844.336
loop_
_atom_site_label
_atom_site_type_symbol
_atom_site_fract_x
_atom_site_fract_y
_atom_site_fract_z
Tl1 Tl 0.10123(3) 0.54651(2) 0.98505(13)
O1 O 0.1649(8) 0.3693(6) 0.7145(13)
O2 O 0.2882(8) 0.2236(6) 0.6837(14)
H1 H 0.3578 0.2606 0.6933
O3 O 0.0136(8) 0.3456(6) 1.1235(13)
O4 O -0.1366(9) 0.4060(6) 0.9030(14)
C1 C 0.0556(11) 0.2049(8) 0.7326(17)
C2 C -0.0540(11) 0.2348(8) 0.8479(17)
C3 C -0.1669(11) 0.1696(9) 0.8620(17)
H2 H -0.2414 0.1906 0.9364
C4 C -0.1666(12) 0.0739(9) 0.7643(18)
H3 H -0.2403 0.0301 0.7743
C5 C -0.0552(14) 0.0439(9) 0.6512(18)
H4 H -0.0552 -0.0208 0.5881
C6 C 0.0550(12) 0.1074(9) 0.6303(19)
H5 H 0.1275 0.0870 0.5510
C7 C 0.1765(12) 0.2730(10) 0.7134(17)
C8 C -0.0587(10) 0.3365(7) 0.969(3)
Tl1A Tl -0.10123(3) 0.45349(2) 1.48505(13)
Tl1A_2 Tl -0.10123(3) 0.45349(2) 0.48505(13)
Tl1B Tl -0.39877(3) 0.45349(2) 0.98505(13)
O3A O -0.0136(8) 0.6544(6) 0.6235(13)
O4A O 0.1366(9) 0.5940(6) 1.4030(14)
O4B O 0.3634(9) 0.5940(6) 0.9030(14)
loop_
_geom_bond_atom_site_label_1
_geom_bond_atom_site_label_2
_geom_bond_site_symmetry_1
_geom_bond_site_symmetry_2
Tl1 O1 1_555 1_555
O1 C7 1_555 1_555
O2 H1 1_555 1_555
O3 Tl1 1_555 1_555
O4 Tl1 1_555 1_555
C1 C2 1_555 1_555
C2 C3 1_555 1_555
C3 H2 1_555 1_555
C4 C3 1_555 1_555
H3 C4 1_555 1_555
C5 C4 1_555 1_555
H4 C5 1_555 1_555
C6 C1 1_555 1_555
H5 C6 1_555 1_555
C7 O2 1_555 1_555
C8 O3 1_555 1_555
Tl1A O3 1_555 1_555
Tl1A_2 O4 1_555 1_555
Tl1B O4 1_555 1_555
O3A Tl1 1_555 1_555
O4A Tl1 1_555 1_555
O4B Tl1 1_555 1_555
O4 C8 1_555 1_555
C1 C7 1_555 1_555
C2 C8 1_555 1_555
C5 C6 1_555 1_555
Tl1A O4A 1_555 1_555
Tl1A_2 O3A 1_555 1_555

#END
