
#######################################################################
#
#                 Cambridge Crystallographic Data Centre
#                                CCDC 
#
#######################################################################
#
# If this CIF has been generated from an entry in the Cambridge 
# Structural Database, then it will include bibliographic, chemical, 
# crystal, experimental, refinement or atomic coordinate data resulting 
# from the CCDC's data processing and validation procedures.
#
#######################################################################

data_DOKSUT
_symmetry_cell_setting           monoclinic
_symmetry_space_group_name_H-M   'P 21/c'
_symmetry_Int_Tables_number      14
_space_group_name_Hall           '-P 2ybc'
loop_
_symmetry_equiv_pos_site_id
_symmetry_equiv_pos_as_xyz
1 x,y,z
2 -x,1/2+y,1/2-z
3 -x,-y,-z
4 x,1/2-y,1/2+z
_cell_length_a                   9.3734(5)
_cell_length_b                   18.5736(5)
_cell_length_c                   9.2232(3)
_cell_angle_alpha                90
_cell_angle_beta                 107.887(5)
_cell_angle_gamma                90
_cell_volume                     1528.12
loop_
_atom_site_label
_atom_site_type_symbol
_atom_site_fract_x
_atom_site_fract_y
_atom_site_fract_z
Cd1 Cd 0.76752(2) 0.71386(2) 0.59857(2)
Cl1 Cl 0.93746(8) 0.60853(4) 0.64777(10)
Cl2 Cl 0.66743(9) 0.72908(5) 0.82694(9)
N1 N 0.5580(3) 0.63796(14) 0.4855(3)
N2 N 0.4333(3) 0.63849(14) 0.5193(3)
N3 N 0.3435(3) 0.58682(14) 0.4368(3)
N4 N 0.0811(3) 0.61178(14) 0.3170(3)
N5 N -0.0734(3) 0.69046(15) 0.1728(3)
C1 C 0.5507(3) 0.58515(17) 0.3782(3)
C2 C 0.6555(4) 0.56288(19) 0.3073(4)
H1 H 0.7474 0.5859 0.3252
C3 C 0.6154(4) 0.5054(2) 0.2101(4)
H2 H 0.6824 0.4888 0.1612
C4 C 0.4756(4) 0.4704(2) 0.1818(4)
H3 H 0.4535 0.4314 0.1155
C5 C 0.3713(3) 0.49251(18) 0.2493(4)
H4 H 0.2792 0.4697 0.2308
C6 C 0.4121(3) 0.55134(16) 0.3474(3)
C7 C 0.1922(3) 0.57872(17) 0.4454(4)
H5 H 0.1697 0.5279 0.4486
H6 H 0.1865 0.6005 0.5391
C8 C -0.0028(3) 0.57495(18) 0.1894(4)
H7 H 0.0042 0.5264 0.1681
C9 C -0.0970(3) 0.62363(18) 0.1018(4)
H8 H -0.1674 0.6140 0.0080
C10 C 0.0346(3) 0.68157(17) 0.3025(3)
C11 C 0.1013(4) 0.73907(18) 0.4153(4)
H9 H 0.1366 0.7175 0.5158
H10 H 0.0233 0.7733 0.4158
C12 C 0.2320(4) 0.78032(18) 0.3859(4)
H11 H 0.3055 0.7462 0.3728
H12 H 0.1949 0.8078 0.2924
C13 C 0.3058(6) 0.8304(3) 0.5152(6)
H13 H 0.3898 0.8535 0.4959
H14 H 0.3397 0.8035 0.6083
H15 H 0.2349 0.8662 0.5239
Cd1C Cd -0.23248(2) 0.78614(2) 0.09857(2)
Cd1C_2 Cd 0.76752(2) 0.78614(2) 1.09857(2)
Cl2C Cl 0.66743(9) 0.77092(5) 0.32694(9)
N5C N 0.9266(3) 0.80954(15) 0.6728(3)
loop_
_geom_bond_atom_site_label_1
_geom_bond_atom_site_label_2
_geom_bond_site_symmetry_1
_geom_bond_site_symmetry_2
Cd1 Cl1 1_555 1_555
Cl2 Cd1 1_555 1_555
N1 Cd1 1_555 1_555
N2 N1 1_555 1_555
N3 N2 1_555 1_555
N4 C7 1_555 1_555
N5 C9 1_555 1_555
C1 N1 1_555 1_555
C2 C1 1_555 1_555
H1 C2 1_555 1_555
C3 C2 1_555 1_555
H2 C3 1_555 1_555
C4 C3 1_555 1_555
H3 C4 1_555 1_555
C5 C4 1_555 1_555
H4 C5 1_555 1_555
C6 N3 1_555 1_555
C7 N3 1_555 1_555
H5 C7 1_555 1_555
H6 C7 1_555 1_555
C8 N4 1_555 1_555
H7 C8 1_555 1_555
C9 C8 1_555 1_555
H8 C9 1_555 1_555
C10 N4 1_555 1_555
C11 C10 1_555 1_555
H9 C11 1_555 1_555
H10 C11 1_555 1_555
C12 C11 1_555 1_555
H11 C12 1_555 1_555
H12 C12 1_555 1_555
C13 C12 1_555 1_555
H13 C13 1_555 1_555
H14 C13 1_555 1_555
H15 C13 1_555 1_555
Cd1C N5 1_555 1_555
Cd1C_2 Cl2 1_555 1_555
Cl2C Cd1 1_555 1_555
N5C Cd1 1_555 1_555
N5 C10 1_555 1_555
C1 C6 1_555 1_555
C5 C6 1_555 1_555

#END
