
#######################################################################
#
#                 Cambridge Crystallographic Data Centre
#                                CCDC 
#
#######################################################################
#
# If this CIF has been generated from an entry in the Cambridge 
# Structural Database, then it will include bibliographic, chemical, 
# crystal, experimental, refinement or atomic coordinate data resulting 
# from the CCDC's data processing and validation procedures.
#
#######################################################################

data_DOKTII
_symmetry_cell_setting           monoclinic
_symmetry_space_group_name_H-M   'P 21/c'
_symmetry_Int_Tables_number      14
_space_group_name_Hall           '-P 2ybc'
loop_
_symmetry_equiv_pos_site_id
_symmetry_equiv_pos_as_xyz
1 x,y,z
2 -x,1/2+y,1/2-z
3 -x,-y,-z
4 x,1/2-y,1/2+z
_cell_length_a                   12.46876(11)
_cell_length_b                   15.99954(13)
_cell_length_c                   19.46996(19)
_cell_angle_alpha                90
_cell_angle_beta                 103.0585(9)
_cell_angle_gamma                90
_cell_volume                     3783.7
loop_
_atom_site_label
_atom_site_type_symbol
_atom_site_fract_x
_atom_site_fract_y
_atom_site_fract_z
Cd1 Cd 1.10765(2) 0.27965(2) 0.64056(2)
Cd2 Cd 0.37824(2) 0.30003(2) 0.60135(2)
Cl1 Cl 1.18896(6) 0.19770(5) 0.75313(4)
Cl2 Cl 0.30092(7) 0.37412(6) 0.48720(5)
O1 O 0.4169(2) 0.22044(19) 0.71237(15)
H1 H 0.3563(16) 0.218(3) 0.7261(17)
O2 O 1.0682(2) 0.3587(2) 0.53127(17)
H2 H 1.138(5) 0.363(4) 0.524(3)
N1 N 1.00762(18) 0.37719(15) 0.69168(12)
N2 N 0.92307(18) 0.41385(15) 0.65130(12)
N3 N 0.87582(18) 0.46317(13) 0.69206(11)
N4 N 0.67902(18) 0.45302(14) 0.67027(12)
N5 N 0.53531(19) 0.37024(16) 0.64827(13)
N6 N 0.47891(19) 0.19511(15) 0.55483(13)
N7 N 0.56881(19) 0.16428(16) 0.59462(13)
N8 N 0.61240(18) 0.11001(14) 0.55570(13)
N9 N 0.80973(18) 0.11915(14) 0.57586(13)
N10 N 0.95523(19) 0.19976(14) 0.59513(13)
N11 N 1.2228(2) 0.21015(15) 0.57842(14)
N12 N 1.22750(18) 0.13826(15) 0.57078(12)
N13 N 1.2303(3) 0.06706(19) 0.5607(2)
N14 N 1.2622(2) 0.36805(15) 0.66313(14)
N15 N 1.2664(2) 0.43360(16) 0.68977(15)
N16 N 1.2723(4) 0.4971(2) 0.7186(2)
C1 C 1.0154(2) 0.40173(18) 0.76045(15)
C2 C 1.0885(2) 0.3773(2) 0.82313(17)
H3 H 1.1446 0.3390 0.8233
C3 C 1.0730(3) 0.4128(2) 0.88359(17)
H4 H 1.1196 0.3980 0.9262
C4 C 0.9886(3) 0.4711(2) 0.88370(16)
H5 H 0.9817 0.4939 0.9264
C5 C 0.9165(2) 0.49529(19) 0.82318(15)
H6 H 0.8610 0.5341 0.8234
C6 C 0.9312(2) 0.45805(16) 0.76089(14)
C7 C 0.7714(2) 0.50400(16) 0.66190(15)
H7 H 0.7686 0.5575 0.6849
H8 H 0.7662 0.5143 0.6122
C8 C 0.6505(3) 0.4369(2) 0.73405(17)
H9 H 0.6856 0.4573 0.7781
C9 C 0.5626(3) 0.3863(3) 0.71967(18)
H10 H 0.5258 0.3653 0.7526
C10 C 0.6071(2) 0.41028(16) 0.61968(14)
C11 C 0.6060(3) 0.4094(2) 0.54342(15)
H11 H 0.6245 0.4648 0.5296
H12 H 0.5319 0.3969 0.5173
C12 C 0.6841(3) 0.3473(3) 0.52252(18)
H13 H 0.7593 0.3638 0.5434
H14 H 0.6720 0.2926 0.5411
C13 C 0.6693(5) 0.3413(5) 0.4438(2)
H15 H 0.5957 0.3232 0.4230
H16 H 0.7209 0.3017 0.4329
H17 H 0.6819 0.3951 0.4252
C14 C 0.4637(2) 0.16103(18) 0.48857(15)
C15 C 0.3813(2) 0.1747(2) 0.42714(17)
H18 H 0.3250 0.2132 0.4260
C16 C 0.3881(3) 0.1287(2) 0.36958(17)
H19 H 0.3355 0.1364 0.3278
C17 C 0.4726(3) 0.0696(2) 0.37136(17)
H20 H 0.4723 0.0380 0.3312
C18 C 0.5549(3) 0.05718(19) 0.42997(16)
H21 H 0.6114 0.0190 0.4306
C19 C 0.5490(2) 0.10522(17) 0.48872(15)
C20 C 0.7169(2) 0.06942(18) 0.58625(17)
H22 H 0.7229 0.0611 0.6363
H23 H 0.7188 0.0150 0.5646
C21 C 0.8389(2) 0.1289(2) 0.51200(16)
H24 H 0.8039 0.1060 0.4689
C22 C 0.9280(2) 0.1782(2) 0.52505(16)
H25 H 0.9659 0.1953 0.4915
C23 C 0.8825(2) 0.16237(17) 0.62529(14)
C24 C 0.8839(2) 0.1653(2) 0.70201(16)
H26 H 0.9583 0.1779 0.7278
H27 H 0.8651 0.1104 0.7167
C25 C 0.8060(3) 0.2290(2) 0.72234(17)
H28 H 0.8211 0.2838 0.7053
H29 H 0.7307 0.2143 0.7000
C26 C 0.8185(4) 0.2326(3) 0.8018(2)
H30 H 0.7681 0.2730 0.8129
H31 H 0.8926 0.2483 0.8239
H32 H 0.8028 0.1786 0.8187
C27 C 0.4863(5) 0.1610(4) 0.7492(3)
H33 H 0.4959 0.1167 0.7179
H34 H 0.4551 0.1388 0.7862
H35 H 0.5564 0.1859 0.7693
C28 C 0.9962(8) 0.3887(7) 0.4772(5)
H36 H 1.0094 0.3653 0.4345
H37 H 1.0033 0.4484 0.4761
H38 H 0.9233 0.3743 0.4815
Cd2_2 Cd 1.37824(2) 0.30003(2) 0.60135(2)
N11_2 N 0.2228(2) 0.21015(15) 0.57842(14)
N14_2 N 0.2622(2) 0.36805(15) 0.66313(14)
loop_
_geom_bond_atom_site_label_1
_geom_bond_atom_site_label_2
_geom_bond_site_symmetry_1
_geom_bond_site_symmetry_2
Cd1 Cl1 1_555 1_555
Cd2 Cl2 1_555 1_555
O1 Cd2 1_555 1_555
H1 O1 1_555 1_555
O2 Cd1 1_555 1_555
H2 O2 1_555 1_555
N1 Cd1 1_555 1_555
N2 N1 1_555 1_555
N3 N2 1_555 1_555
N4 C7 1_555 1_555
N5 Cd2 1_555 1_555
N6 Cd2 1_555 1_555
N7 N6 1_555 1_555
N8 N7 1_555 1_555
N9 C20 1_555 1_555
N10 Cd1 1_555 1_555
N11 Cd1 1_555 1_555
N12 N11 1_555 1_555
N13 N12 1_555 1_555
N14 Cd1 1_555 1_555
N15 N14 1_555 1_555
N16 N15 1_555 1_555
C1 N1 1_555 1_555
C2 C1 1_555 1_555
H3 C2 1_555 1_555
C3 C2 1_555 1_555
H4 C3 1_555 1_555
C4 C3 1_555 1_555
H5 C4 1_555 1_555
C5 C4 1_555 1_555
H6 C5 1_555 1_555
C6 N3 1_555 1_555
C7 N3 1_555 1_555
H7 C7 1_555 1_555
H8 C7 1_555 1_555
C8 N4 1_555 1_555
H9 C8 1_555 1_555
C9 N5 1_555 1_555
H10 C9 1_555 1_555
C10 N4 1_555 1_555
C11 C10 1_555 1_555
H11 C11 1_555 1_555
H12 C11 1_555 1_555
C12 C11 1_555 1_555
H13 C12 1_555 1_555
H14 C12 1_555 1_555
C13 C12 1_555 1_555
H15 C13 1_555 1_555
H16 C13 1_555 1_555
H17 C13 1_555 1_555
C14 N6 1_555 1_555
C15 C14 1_555 1_555
H18 C15 1_555 1_555
C16 C15 1_555 1_555
H19 C16 1_555 1_555
C17 C16 1_555 1_555
H20 C17 1_555 1_555
C18 C17 1_555 1_555
H21 C18 1_555 1_555
C19 N8 1_555 1_555
C20 N8 1_555 1_555
H22 C20 1_555 1_555
H23 C20 1_555 1_555
C21 N9 1_555 1_555
H24 C21 1_555 1_555
C22 N10 1_555 1_555
H25 C22 1_555 1_555
C23 N9 1_555 1_555
C24 C23 1_555 1_555
H26 C24 1_555 1_555
H27 C24 1_555 1_555
C25 C24 1_555 1_555
H28 C25 1_555 1_555
H29 C25 1_555 1_555
C26 C25 1_555 1_555
H30 C26 1_555 1_555
H31 C26 1_555 1_555
H32 C26 1_555 1_555
C27 O1 1_555 1_555
H33 C27 1_555 1_555
H34 C27 1_555 1_555
H35 C27 1_555 1_555
C28 O2 1_555 1_555
H36 C28 1_555 1_555
H37 C28 1_555 1_555
H38 C28 1_555 1_555
Cd2_2 N11 1_555 1_555
N11_2 Cd2 1_555 1_555
N14_2 Cd2 1_555 1_555
N5 C10 1_555 1_555
N10 C23 1_555 1_555
N14 Cd2_2 1_555 1_555
C1 C6 1_555 1_555
C5 C6 1_555 1_555
C8 C9 1_555 1_555
C14 C19 1_555 1_555
C18 C19 1_555 1_555
C21 C22 1_555 1_555

#END
