
#######################################################################
#
#                 Cambridge Crystallographic Data Centre
#                                CCDC 
#
#######################################################################
#
# If this CIF has been generated from an entry in the Cambridge 
# Structural Database, then it will include bibliographic, chemical, 
# crystal, experimental, refinement or atomic coordinate data resulting 
# from the CCDC's data processing and validation procedures.
#
#######################################################################

data_DOKTEE
_symmetry_cell_setting           triclinic
_symmetry_space_group_name_H-M   'P -1'
_symmetry_Int_Tables_number      2
_space_group_name_Hall           '-P 1'
loop_
_symmetry_equiv_pos_site_id
_symmetry_equiv_pos_as_xyz
1 x,y,z
2 -x,-y,-z
_cell_length_a                   9.5550(10)
_cell_length_b                   9.8491(12)
_cell_length_c                   9.8850(9)
_cell_angle_alpha                72.948(10)
_cell_angle_beta                 68.962(9)
_cell_angle_gamma                86.711(10)
_cell_volume                     828.885
loop_
_atom_site_label
_atom_site_type_symbol
_atom_site_fract_x
_atom_site_fract_y
_atom_site_fract_z
Cd1 Cd 0.18203(2) 0.11518(2) 0.68446(2)
N1 N 0.7929(3) 0.6517(3) 0.4774(3)
N2 N 0.7755(3) 0.4220(3) 0.5920(3)
N3 N 0.5922(3) 0.2259(2) 0.7300(3)
N4 N 0.4942(3) 0.2014(3) 0.6699(3)
N5 N 0.3646(3) 0.1604(3) 0.7790(3)
N6 N -0.0233(3) 0.1937(3) 0.8612(3)
N7 N -0.0692(3) 0.1475(3) 0.9943(3)
N8 N -0.1193(4) 0.1078(3) 1.1257(3)
N9 N 0.3715(3) 0.0162(4) 0.5246(3)
N10 N 0.5000 0.0000 0.5000
N11 N 0.0171(3) 0.0557(3) 0.5819(3)
N12 N 0.0000 0.0000 0.5000
C1 C 0.3771(3) 0.1568(3) 0.9144(3)
C2 C 0.2733(3) 0.1172(3) 1.0639(3)
H1 H 0.1745 0.0882 1.0867
C3 C 0.3250(4) 0.1237(4) 1.1736(3)
H2 H 0.2595 0.0978 1.2740
C4 C 0.4737(4) 0.1682(4) 1.1406(4)
H3 H 0.5034 0.1706 1.2198
C5 C 0.5761(3) 0.2079(3) 0.9958(3)
H4 H 0.6743 0.2383 0.9739
C6 C 0.5241(3) 0.2001(3) 0.8827(3)
C7 C 0.7468(3) 0.2701(3) 0.6319(3)
H5 H 0.8133 0.2212 0.6828
H6 H 0.7689 0.2427 0.5401
C8 C 0.8261(4) 0.4873(4) 0.6717(4)
H7 H 0.8499 0.4434 0.7572
C9 C 0.8345(4) 0.6267(4) 0.6020(4)
H8 H 0.8643 0.6969 0.6332
C10 C 0.7587(3) 0.5251(3) 0.4739(3)
C11 C 0.7030(5) 0.4931(4) 0.3614(4)
H9 H 0.6370 0.4078 0.4116
H10 H 0.6444 0.5708 0.3285
C12 C 0.8230(6) 0.4725(7) 0.2283(6)
H11 H 0.8734 0.3868 0.2582
H12 H 0.8963 0.5523 0.1840
C13 C 0.7579(8) 0.4598(6) 0.1090(6)
H13 H 0.8301 0.4192 0.0372
H14 H 0.7361 0.5525 0.0570
H15 H 0.6674 0.3998 0.1590
N9A N 0.6285(3) -0.0162(4) 0.4754(3)
N11A N -0.0171(3) -0.0557(3) 0.4181(3)
Cd1A Cd -0.18203(2) -0.11518(2) 0.31554(2)
N1A N -0.7929(3) -0.6517(3) 0.5226(3)
N2A N -0.7755(3) -0.4220(3) 0.4080(3)
N3A N -0.5922(3) -0.2259(2) 0.2700(3)
N4A N -0.4942(3) -0.2014(3) 0.3301(3)
N5A N -0.3646(3) -0.1604(3) 0.2210(3)
N6A N 0.0233(3) -0.1937(3) 0.1388(3)
N7A N 0.0692(3) -0.1475(3) 0.0057(3)
N8A N 0.1193(4) -0.1078(3) -0.1257(3)
C1A C -0.3771(3) -0.1568(3) 0.0856(3)
C2A C -0.2733(3) -0.1172(3) -0.0639(3)
H1A H -0.1745 -0.0882 -0.0867
C3A C -0.3250(4) -0.1237(4) -0.1736(3)
H2A H -0.2595 -0.0978 -0.2740
C4A C -0.4737(4) -0.1682(4) -0.1406(4)
H3A H -0.5034 -0.1706 -0.2198
C5A C -0.5761(3) -0.2079(3) 0.0042(3)
H4A H -0.6743 -0.2383 0.0261
C6A C -0.5241(3) -0.2001(3) 0.1173(3)
C7A C -0.7468(3) -0.2701(3) 0.3681(3)
H5A H -0.8133 -0.2212 0.3172
H6A H -0.7689 -0.2427 0.4599
C8A C -0.8261(4) -0.4873(4) 0.3283(4)
H7A H -0.8499 -0.4434 0.2428
C9A C -0.8345(4) -0.6267(4) 0.3980(4)
H8A H -0.8643 -0.6969 0.3668
C10A C -0.7587(3) -0.5251(3) 0.5261(3)
C11A C -0.7030(5) -0.4931(4) 0.6386(4)
H9A H -0.6370 -0.4078 0.5884
H10A H -0.6444 -0.5708 0.6715
C12A C -0.8230(6) -0.4725(7) 0.7717(6)
H11A H -0.8734 -0.3868 0.7418
H12A H -0.8963 -0.5523 0.8160
C13A C -0.7579(8) -0.4598(6) 0.8910(6)
H13A H -0.8301 -0.4192 0.9628
H14A H -0.7361 -0.5525 0.9430
H15A H -0.6674 -0.3998 0.8410
Cd1_2 Cd -0.81797(2) -0.88482(2) 0.68446(2)
Cd1_3 Cd 0.18203(2) 0.11518(2) -0.31554(2)
Cd1A_2 Cd -0.18203(2) -0.11518(2) 1.31554(2)
Cd1A_3 Cd 0.81797(2) -0.11518(2) 0.31554(2)
Cd1A_4 Cd 0.81797(2) 0.88482(2) 0.31554(2)
N1_2 N -0.2071(3) -0.3483(3) 0.4774(3)
N1A_2 N 0.2071(3) 0.3483(3) 0.5226(3)
N8_2 N -0.1193(4) 0.1078(3) 0.1257(3)
N8A_2 N 0.1193(4) -0.1078(3) 0.8743(3)
N9A_2 N -0.3715(3) -0.0162(4) 0.4754(3)
loop_
_geom_bond_atom_site_label_1
_geom_bond_atom_site_label_2
_geom_bond_site_symmetry_1
_geom_bond_site_symmetry_2
Cd1 N5 1_555 1_555
N1 C9 1_555 1_555
N2 C7 1_555 1_555
N3 N4 1_555 1_555
N4 N5 1_555 1_555
N5 C1 1_555 1_555
N6 Cd1 1_555 1_555
N7 N6 1_555 1_555
N8 N7 1_555 1_555
N9 Cd1 1_555 1_555
N10 N9 1_555 1_555
N11 Cd1 1_555 1_555
N12 N11 1_555 1_555
C1 C2 1_555 1_555
C2 H1 1_555 1_555
C3 C2 1_555 1_555
H2 C3 1_555 1_555
C4 C3 1_555 1_555
H3 C4 1_555 1_555
C5 C4 1_555 1_555
H4 C5 1_555 1_555
C6 N3 1_555 1_555
C7 N3 1_555 1_555
H5 C7 1_555 1_555
H6 C7 1_555 1_555
C8 N2 1_555 1_555
H7 C8 1_555 1_555
C9 C8 1_555 1_555
H8 C9 1_555 1_555
C10 N1 1_555 1_555
C11 C10 1_555 1_555
H9 C11 1_555 1_555
H10 C11 1_555 1_555
C12 C11 1_555 1_555
H11 C12 1_555 1_555
H12 C12 1_555 1_555
C13 C12 1_555 1_555
H13 C13 1_555 1_555
H14 C13 1_555 1_555
H15 C13 1_555 1_555
N9A N10 1_555 1_555
N11A N12 1_555 1_555
Cd1A N11A 1_555 1_555
N1A C9A 1_555 1_555
N2A C7A 1_555 1_555
N3A N4A 1_555 1_555
N4A N5A 1_555 1_555
N5A Cd1A 1_555 1_555
N6A Cd1A 1_555 1_555
N7A N6A 1_555 1_555
N8A N7A 1_555 1_555
C1A N5A 1_555 1_555
C2A C1A 1_555 1_555
H1A C2A 1_555 1_555
C3A C2A 1_555 1_555
H2A C3A 1_555 1_555
C4A C3A 1_555 1_555
H3A C4A 1_555 1_555
C5A C4A 1_555 1_555
H4A C5A 1_555 1_555
C6A N3A 1_555 1_555
C7A N3A 1_555 1_555
H5A C7A 1_555 1_555
H6A C7A 1_555 1_555
C8A N2A 1_555 1_555
H7A C8A 1_555 1_555
C9A C8A 1_555 1_555
H8A C9A 1_555 1_555
C10A N1A 1_555 1_555
C11A C10A 1_555 1_555
H9A C11A 1_555 1_555
H10A C11A 1_555 1_555
C12A C11A 1_555 1_555
H11A C12A 1_555 1_555
H12A C12A 1_555 1_555
C13A C12A 1_555 1_555
H13A C13A 1_555 1_555
H14A C13A 1_555 1_555
H15A C13A 1_555 1_555
Cd1_2 N1A 1_555 1_555
Cd1_3 N8A 1_555 1_555
Cd1A_2 N8 1_555 1_555
Cd1A_3 N9A 1_555 1_555
Cd1A_4 N1 1_555 1_555
N1_2 Cd1A 1_555 1_555
N1A_2 Cd1 1_555 1_555
N8_2 Cd1A 1_555 1_555
N8A_2 Cd1 1_555 1_555
N9A_2 Cd1A 1_555 1_555
N2 C10 1_555 1_555
C1 C6 1_555 1_555
C5 C6 1_555 1_555
N2A C10A 1_555 1_555
C1A C6A 1_555 1_555
C5A C6A 1_555 1_555

#END
