
#######################################################################
#
#                 Cambridge Crystallographic Data Centre
#                                CCDC 
#
#######################################################################
#
# If this CIF has been generated from an entry in the Cambridge 
# Structural Database, then it will include bibliographic, chemical, 
# crystal, experimental, refinement or atomic coordinate data resulting 
# from the CCDC's data processing and validation procedures.
#
#######################################################################

data_DOKTAA
_symmetry_cell_setting           triclinic
_symmetry_space_group_name_H-M   'P -1'
_symmetry_Int_Tables_number      2
_space_group_name_Hall           '-P 1'
loop_
_symmetry_equiv_pos_site_id
_symmetry_equiv_pos_as_xyz
1 x,y,z
2 -x,-y,-z
_cell_length_a                   9.4788(4)
_cell_length_b                   10.2419(5)
_cell_length_c                   10.5173(2)
_cell_angle_alpha                95.716(3)
_cell_angle_beta                 99.798(3)
_cell_angle_gamma                109.484(4)
_cell_volume                     934.988
loop_
_atom_site_label
_atom_site_type_symbol
_atom_site_fract_x
_atom_site_fract_y
_atom_site_fract_z
Cd1 Cd 0.63849(3) 0.31031(2) 0.11749(2)
S1 S 0.81277(11) 0.54591(10) 0.04080(11)
S2 S 0.61690(16) 0.20071(11) -0.14140(11)
N1 N 0.6691(4) 0.4356(4) 0.3261(3)
N2 N 0.7063(4) 0.5180(3) 0.5343(3)
N3 N 0.8787(4) 0.6367(3) 0.7397(3)
N4 N 1.0051(4) 0.6028(3) 0.7640(3)
N5 N 1.1223(4) 0.7175(3) 0.8154(3)
N6 N 0.5822(4) 0.6430(4) -0.0626(4)
N7 N 0.4884(4) -0.0914(4) -0.1568(4)
C1 C 0.6661(5) 0.5699(5) 0.3396(4)
H1 H 0.6510 0.6175 0.2707
C2 C 0.6879(6) 0.6213(5) 0.4651(4)
H2 H 0.6904 0.7094 0.4998
C3 C 0.7334(5) 0.5302(4) 0.6764(4)
H3 H 0.6520 0.5530 0.7068
H4 H 0.7307 0.4406 0.7005
C4 C 0.9149(4) 0.7771(4) 0.7761(3)
C5 C 0.8277(5) 0.8644(5) 0.7729(4)
H5 H 0.7219 0.8292 0.7423
C6 C 0.9076(6) 1.0039(5) 0.8171(5)
H6 H 0.8548 1.0659 0.8166
C7 C 1.0667(6) 1.0566(5) 0.8634(5)
H7 H 1.1160 1.1529 0.8915
C8 C 1.1527(5) 0.9731(4) 0.8692(4)
H8 H 1.2583 1.0096 0.9011
C9 C 1.0734(5) 0.8295(4) 0.8245(4)
C10 C 0.6938(5) 0.4077(4) 0.4457(4)
C11 C 0.7039(8) 0.2725(6) 0.4775(5)
H9 H 0.6547 0.2011 0.4000
H10 H 0.6462 0.2451 0.5445
C12 C 0.8622(12) 0.2736(10) 0.5242(8)
H11 H 0.9021 0.3225 0.6139
H12 H 0.9288 0.3234 0.4706
C13 C 0.8608(17) 0.1236(15) 0.5167(14)
H13 H 0.8805 0.0942 0.4341
H14 H 0.7623 0.0621 0.5249
H15 H 0.9387 0.1201 0.5864
C14 C 0.6756(4) 0.6005(4) -0.0193(3)
C15 C 0.5404(5) 0.0302(4) -0.1503(4)
Cd1A Cd 0.36151(3) -0.31031(2) -0.11749(2)
Cd1A_2 Cd 0.36151(3) 0.68969(2) -0.11749(2)
Cd1A_3 Cd 1.36151(3) 0.68969(2) 0.88251(2)
N5A N 0.8777(4) 0.2825(3) 0.1846(3)
N6A N 0.4178(4) 0.3570(4) 0.0626(4)
N7A N 0.5116(4) 0.0914(4) 0.1568(4)
loop_
_geom_bond_atom_site_label_1
_geom_bond_atom_site_label_2
_geom_bond_site_symmetry_1
_geom_bond_site_symmetry_2
Cd1 S1 1_555 1_555
S1 C14 1_555 1_555
S2 Cd1 1_555 1_555
N1 Cd1 1_555 1_555
N2 C2 1_555 1_555
N3 N4 1_555 1_555
N4 N5 1_555 1_555
N5 C9 1_555 1_555
N6 C14 1_555 1_555
N7 C15 1_555 1_555
C1 N1 1_555 1_555
H1 C1 1_555 1_555
C2 C1 1_555 1_555
H2 C2 1_555 1_555
C3 N2 1_555 1_555
H3 C3 1_555 1_555
H4 C3 1_555 1_555
C4 N3 1_555 1_555
C5 C4 1_555 1_555
H5 C5 1_555 1_555
C6 C5 1_555 1_555
H6 C6 1_555 1_555
C7 C6 1_555 1_555
H7 C7 1_555 1_555
C8 C7 1_555 1_555
H8 C8 1_555 1_555
C9 C4 1_555 1_555
C10 N1 1_555 1_555
C11 C10 1_555 1_555
H9 C11 1_555 1_555
H10 C11 1_555 1_555
C12 C11 1_555 1_555
H11 C12 1_555 1_555
H12 C12 1_555 1_555
C13 C12 1_555 1_555
H13 C13 1_555 1_555
H14 C13 1_555 1_555
H15 C13 1_555 1_555
C15 S2 1_555 1_555
Cd1A N7 1_555 1_555
Cd1A_2 N6 1_555 1_555
Cd1A_3 N5 1_555 1_555
N5A Cd1 1_555 1_555
N6A Cd1 1_555 1_555
N7A Cd1 1_555 1_555
N2 C10 1_555 1_555
N3 C3 1_555 1_555
C8 C9 1_555 1_555

#END
