
#######################################################################
#
#                 Cambridge Crystallographic Data Centre
#                                CCDC 
#
#######################################################################
#
# If this CIF has been generated from an entry in the Cambridge 
# Structural Database, then it will include bibliographic, chemical, 
# crystal, experimental, refinement or atomic coordinate data resulting 
# from the CCDC's data processing and validation procedures.
#
#######################################################################

data_DOKXUY
_symmetry_cell_setting           monoclinic
_symmetry_space_group_name_H-M   'C 2/c'
_symmetry_Int_Tables_number      15
_space_group_name_Hall           '-C 2yn'
loop_
_symmetry_equiv_pos_site_id
_symmetry_equiv_pos_as_xyz
1 x,y,z
2 -x,y,1/2-z
3 1/2+x,1/2+y,z
4 1/2-x,1/2+y,1/2-z
5 -x,-y,-z
6 x,-y,1/2+z
7 1/2-x,1/2-y,-z
8 1/2+x,1/2-y,1/2+z
_cell_length_a                   26.5918(9)
_cell_length_b                   13.5595(5)
_cell_length_c                   18.1128(6)
_cell_angle_alpha                90
_cell_angle_beta                 94.582(3)
_cell_angle_gamma                90
_cell_volume                     6510.09
loop_
_atom_site_label
_atom_site_type_symbol
_atom_site_fract_x
_atom_site_fract_y
_atom_site_fract_z
Cd1 Cd 0.33273(2) 0.98642(2) 0.42151(2)
O1 O 0.24765(12) 0.9116(3) 0.43149(18)
O2 O 0.17960(12) 0.9880(3) 0.3903(2)
O3 O 0.25232(11) 1.0396(2) 0.36238(19)
O4 O 0.36089(14) 1.1094(3) 0.3351(2)
O5 O 0.42120(14) 1.0376(3) 0.3973(2)
O6 O 0.43794(15) 1.1444(3) 0.3154(2)
N1 N 0.22577(14) 0.9791(3) 0.3943(2)
N2 N 0.40779(17) 1.0984(3) 0.3481(2)
N3 N 0.33836(13) 0.8733(3) 0.32477(19)
N4 N 0.30026(13) 0.8675(3) 0.27385(18)
N5 N 0.30982(12) 0.7931(3) 0.22801(18)
N6 N 0.31545(12) 0.8912(3) 0.00342(19)
N7 N 0.36605(13) 0.8724(3) 0.50402(19)
N8 N 0.40984(13) 0.7869(3) 0.5890(2)
N9 N 0.47487(14) 0.6704(3) 0.6297(2)
N10 N 0.46746(15) 0.5870(3) 0.6697(2)
N11 N 0.49651(17) 0.5184(4) 0.6480(3)
N12 N 0.29207(12) 0.8016(2) 0.09571(17)
C1 C 0.37357(15) 0.8018(3) 0.3107(2)
C2 C 0.41966(16) 0.7782(4) 0.3479(3)
H1 H 0.4324 0.8132 0.3894
C3 C 0.44543(18) 0.7012(4) 0.3206(3)
H2 H 0.4766 0.6839 0.3441
C4 C 0.42653(17) 0.6470(4) 0.2581(3)
H3 H 0.4454 0.5948 0.2417
C5 C 0.38108(16) 0.6691(3) 0.2209(2)
H4 H 0.3682 0.6333 0.1799
C6 C 0.35523(15) 0.7493(3) 0.2488(2)
C7 C 0.27332(15) 0.7717(3) 0.1657(2)
H5 H 0.2662 0.7016 0.1644
H6 H 0.2421 0.8063 0.1724
C8 C 0.30989(16) 0.7379(3) 0.0453(2)
H7 H 0.3117 0.6696 0.0493
C9 C 0.32424(16) 0.7928(3) -0.0109(2)
H8 H 0.3379 0.7685 -0.0529
C10 C 0.29572(15) 0.8944(3) 0.0683(2)
C11 C 0.2798(2) 0.9853(4) 0.1066(3)
H9 H 0.2907 0.9803 0.1589
H10 H 0.2968 1.0416 0.0869
C12 C 0.2247(3) 1.0031(5) 0.0986(4)
H11 H 0.2070 0.9465 0.1166
H12 H 0.2135 1.0130 0.0469
C13 C 0.2129(3) 1.0971(6) 0.1446(5)
H13 H 0.2346 1.1501 0.1321
H14 H 0.2184 1.0828 0.1965
H15 H 0.1783 1.1161 0.1332
C14 C 0.52871(19) 0.7115(4) 0.5255(3)
H16 H 0.5189 0.7767 0.5179
C15 C 0.5626(2) 0.6677(5) 0.4841(3)
H17 H 0.5756 0.7034 0.4461
C16 C 0.5787(2) 0.5693(6) 0.4970(3)
H18 H 0.6030 0.5428 0.4686
C17 C 0.5596(2) 0.5128(5) 0.5498(3)
H19 H 0.5698 0.4478 0.5575
C18 C 0.52385(17) 0.5564(4) 0.5921(3)
C19 C 0.50954(16) 0.6539(4) 0.5797(3)
C20 C 0.44848(18) 0.7594(4) 0.6478(3)
H20 H 0.4725 0.8129 0.6555
H21 H 0.4326 0.7494 0.6936
C21 C 0.36946(17) 0.7299(4) 0.5645(3)
H22 H 0.3620 0.6669 0.5808
C22 C 0.34290(17) 0.7822(4) 0.5126(3)
H23 H 0.3134 0.7612 0.4863
C23 C 0.40638(16) 0.8733(3) 0.5520(2)
C24 C 0.4408(2) 0.9589(4) 0.5669(3)
H24 H 0.4377 1.0037 0.5250
H25 H 0.4754 0.9358 0.5728
C25 C 0.4275(2) 1.0171(5) 0.6412(4)
H26 H 0.3928 1.0398 0.6350
H27 H 0.4303 0.9717 0.6827
C26 C 0.4588(3) 1.0975(7) 0.6575(5)
H28 H 0.4597 1.1384 0.6144
H29 H 0.4923 1.0746 0.6724
H30 H 0.4462 1.1350 0.6970
Cd1E Cd 0.33273(2) 1.01358(2) -0.07849(2)
N6E N 0.31545(12) 1.1088(3) 0.50342(19)
O7 O 0.1611(3) 0.8106(7) 0.2050(6)
H31 H 0.1598 0.8048 0.1599
C27 C 0.1358(4) 0.8847(8) 0.2215(6)
H32 H 0.1354 0.9322 0.1822
H33 H 0.1507 0.9136 0.2664
H34 H 0.1018 0.8648 0.2285
loop_
_geom_bond_atom_site_label_1
_geom_bond_atom_site_label_2
_geom_bond_site_symmetry_1
_geom_bond_site_symmetry_2
Cd1 O1 1_555 1_555
O1 N1 1_555 1_555
O2 N1 1_555 1_555
O3 Cd1 1_555 1_555
O4 Cd1 1_555 1_555
O5 Cd1 1_555 1_555
O6 N2 1_555 1_555
N1 O3 1_555 1_555
N2 O4 1_555 1_555
N3 Cd1 1_555 1_555
N4 N3 1_555 1_555
N5 N4 1_555 1_555
N6 C9 1_555 1_555
N7 Cd1 1_555 1_555
N8 C20 1_555 1_555
N9 N10 1_555 1_555
N10 N11 1_555 1_555
N11 C18 1_555 1_555
N12 C7 1_555 1_555
C1 N3 1_555 1_555
C2 C1 1_555 1_555
H1 C2 1_555 1_555
C3 C2 1_555 1_555
H2 C3 1_555 1_555
C4 C3 1_555 1_555
H3 C4 1_555 1_555
C5 C4 1_555 1_555
H4 C5 1_555 1_555
C6 N5 1_555 1_555
C7 N5 1_555 1_555
H5 C7 1_555 1_555
H6 C7 1_555 1_555
C8 N12 1_555 1_555
H7 C8 1_555 1_555
C9 C8 1_555 1_555
H8 C9 1_555 1_555
C10 N6 1_555 1_555
C11 C10 1_555 1_555
H9 C11 1_555 1_555
H10 C11 1_555 1_555
C12 C11 1_555 1_555
H11 C12 1_555 1_555
H12 C12 1_555 1_555
C13 C12 1_555 1_555
H13 C13 1_555 1_555
H14 C13 1_555 1_555
H15 C13 1_555 1_555
C14 H16 1_555 1_555
C15 C14 1_555 1_555
H17 C15 1_555 1_555
C16 C15 1_555 1_555
H18 C16 1_555 1_555
C17 C16 1_555 1_555
H19 C17 1_555 1_555
C18 C17 1_555 1_555
C19 N9 1_555 1_555
C20 N9 1_555 1_555
H20 C20 1_555 1_555
H21 C20 1_555 1_555
C21 N8 1_555 1_555
H22 C21 1_555 1_555
C22 N7 1_555 1_555
H23 C22 1_555 1_555
C23 N7 1_555 1_555
C24 C23 1_555 1_555
H24 C24 1_555 1_555
H25 C24 1_555 1_555
C25 C24 1_555 1_555
H26 C25 1_555 1_555
H27 C25 1_555 1_555
C26 C25 1_555 1_555
H28 C26 1_555 1_555
H29 C26 1_555 1_555
H30 C26 1_555 1_555
O7 H31 1_555 1_555
C27 O7 1_555 1_555
H32 C27 1_555 1_555
H33 C27 1_555 1_555
H34 C27 1_555 1_555
Cd1E N6 1_555 1_555
N6E Cd1 1_555 1_555
O5 N2 1_555 1_555
N8 C23 1_555 1_555
N12 C10 1_555 1_555
C1 C6 1_555 1_555
C5 C6 1_555 1_555
C14 C19 1_555 1_555
C18 C19 1_555 1_555
C21 C22 1_555 1_555

#END
