
#######################################################################
#
#                 Cambridge Crystallographic Data Centre
#                                CCDC 
#
#######################################################################
#
# If this CIF has been generated from an entry in the Cambridge 
# Structural Database, then it will include bibliographic, chemical, 
# crystal, experimental, refinement or atomic coordinate data resulting 
# from the CCDC's data processing and validation procedures.
#
#######################################################################

data_DOKYUZ
_symmetry_cell_setting           monoclinic
_symmetry_space_group_name_H-M   'P 21/c'
_symmetry_Int_Tables_number      14
_space_group_name_Hall           '-P 2ybc'
loop_
_symmetry_equiv_pos_site_id
_symmetry_equiv_pos_as_xyz
1 x,y,z
2 -x,1/2+y,1/2-z
3 -x,-y,-z
4 x,1/2-y,1/2+z
_cell_length_a                   13.931(3)
_cell_length_b                   18.433(4)
_cell_length_c                   22.377(7)
_cell_angle_alpha                90
_cell_angle_beta                 127.04(2)
_cell_angle_gamma                90
_cell_volume                     4586.7
loop_
_atom_site_label
_atom_site_type_symbol
_atom_site_fract_x
_atom_site_fract_y
_atom_site_fract_z
Cu1 Cu 0.74878(3) 0.63712(2) 0.25361(2)
Cu2 Cu 0.25337(3) 0.63179(2) 0.25556(2)
O1 O 0.6382(2) 0.67094(15) 0.31583(16)
O2 O 0.3683(2) 0.71347(14) 0.30580(13)
O3 O 1.1361(2) 0.55264(15) 0.20557(15)
N1 N 1.0981(2) 0.68165(16) 0.43608(16)
O4 O 1.1148(2) 0.56641(16) 0.29518(16)
N2 N 0.3853(2) 0.56329(17) 0.32470(19)
O5 O 0.8123(2) 0.54034(14) 0.25457(15)
O6 O 0.6854(2) 0.73246(14) 0.25228(14)
N3 N 0.3996(2) 0.58170(17) 0.07464(16)
N4 N 0.9043(2) 0.66150(18) 0.35251(17)
O7 O 0.8552(2) 0.60601(15) 0.19123(16)
O8 O 0.3787(2) 0.69440(15) 0.21246(15)
N5 N 0.5907(2) 0.61244(16) 0.15536(17)
C1 C 1.5905(3) 0.7110(2) 0.5515(2)
C2 C 1.0116(3) 0.6548(2) 0.3683(2)
H1 H 1.0256 0.6340 0.3363
N6 N 1.9483(2) 0.74171(18) 0.62929(18)
C3 C 1.2235(3) 0.68788(18) 0.46820(19)
C4 C 0.4960(3) 0.5683(2) 0.3447(2)
H2 H 0.5201 0.6019 0.3252
N7 N 2.1238(2) 0.79581(17) 0.69017(17)
C5 C 0.4072(3) 0.72877(19) 0.2681(2)
C6 C 1.4634(3) 0.70340(19) 0.52424(19)
C7 C 1.0883(3) 0.5368(2) 0.2380(2)
C8 C 0.8540(3) 0.5472(2) 0.2174(2)
C9 C 1.8258(3) 0.7284(2) 0.6017(2)
C10 C 0.4859(3) 0.60618(19) 0.1441(2)
H3 H 0.4738 0.6173 0.1797
C11 C 0.6384(3) 0.7274(2) 0.2866(2)
C12 C 2.0142(3) 0.7984(2) 0.6712(2)
H4 H 1.9861 0.8352 0.6854
C13 C 0.8939(3) 0.47920(19) 0.2011(2)
C14 C 0.5869(3) 0.7964(2) 0.2927(2)
C15 C 1.3762(3) 0.6849(2) 0.4505(2)
H5 H 1.3978 0.6772 0.4190
C16 C 1.2572(3) 0.6776(2) 0.4226(2)
H6 H 1.1997 0.6656 0.3726
C17 C 0.9970(3) 0.47684(19) 0.2033(2)
C18 C 0.1129(3) 0.5754(2) 0.0507(2)
H7 H 0.0753 0.6018 0.0667
C19 C 0.2802(3) 0.5613(2) 0.0479(2)
C20 C 1.3082(3) 0.7060(2) 0.5413(2)
H8 H 1.2858 0.7132 0.5726
N8 N 0.5682(3) 0.51897(17) 0.3965(2)
C21 C 0.4851(3) 0.7947(2) 0.2914(2)
C22 C 0.4533(3) 0.5720(3) 0.0397(2)
H9 H 0.4166 0.5550 -0.0087
C23 C 0.9353(3) 0.5010(2) 0.4851(2)
C24 C 0.2225(3) 0.5994(2) 0.0698(2)
H10 H 0.2567 0.6417 0.0977
C25 C 0.6940(3) 0.5099(2) 0.4281(3)
C26 C 1.4279(3) 0.7138(2) 0.5695(2)
H11 H 1.4849 0.7262 0.6195
C27 C 0.8447(4) 0.4984(3) 0.4090(3)
H12 H 0.8645 0.4936 0.3762
C28 C 1.0189(4) 0.4155(2) 0.1777(3)
H13 H 1.0861 0.4138 0.1781
C29 C 0.7813(4) 0.5109(2) 0.5034(3)
H14 H 0.7605 0.5148 0.5357
C30 C 0.5696(3) 0.5920(2) 0.0895(2)
H15 H 0.6266 0.5919 0.0805
C31 C 0.0580(3) 0.5134(2) 0.0088(2)
C32 C 1.8025(3) 0.7084(3) 0.6493(2)
H16 H 1.8658 0.7007 0.6995
C33 C 0.2269(3) 0.5001(3) 0.0044(3)
H17 H 0.2650 0.4741 -0.0115
C34 C 0.3899(4) 0.5092(2) 0.3679(3)
H18 H 0.3251 0.4934 0.3664
C35 C 0.4468(4) 0.8586(2) 0.3034(3)
H19 H 0.3807 0.8577 0.3041
C36 C 2.1272(4) 0.7340(3) 0.6577(3)
H20 H 2.1935 0.7177 0.6610
C37 C 0.9016(3) 0.5062(2) 0.5321(3)
H21 H 0.9606 0.5067 0.5837
C38 C 0.8189(4) 0.4197(2) 0.1754(3)
H22 H 0.7512 0.4210 0.1744
C39 C 2.0198(4) 0.7004(3) 0.6200(3)
H23 H 1.9985 0.6574 0.5930
C40 C 0.1168(4) 0.4779(3) -0.0153(3)
H24 H 0.0805 0.4374 -0.0460
C41 C 0.5022(4) 0.4820(3) 0.4130(3)
H25 H 0.5293 0.4453 0.4484
C42 C 0.9419(5) 0.3566(3) 0.1513(3)
H26 H 0.9569 0.3158 0.1336
C43 C 0.5042(6) 0.9233(3) 0.3143(4)
H27 H 0.4766 0.9658 0.3217
C44 C 0.8427(5) 0.3584(3) 0.1512(3)
H28 H 0.7921 0.3183 0.1348
C45 C 0.6447(4) 0.8618(3) 0.3039(3)
H29 H 0.7120 0.8632 0.3045
C46 C 0.6029(6) 0.9248(3) 0.3142(4)
H30 H 0.6417 0.9685 0.3211
C47 C 1.6851(3) 0.6991(3) 0.6247(2)
H31 H 1.6706 0.6845 0.6584
C48 C 1.0420(3) 0.7064(3) 0.4656(2)
H32 H 1.0785 0.7278 0.5122
C49 C 0.9237(3) 0.6935(3) 0.4137(2)
H33 H 0.8641 0.7048 0.4190
C50 C 1.6171(4) 0.7320(3) 0.5037(2)
H34 H 1.5546 0.7404 0.4535
C51 C 0.7235(4) 0.5030(3) 0.3802(3)
H35 H 0.6635 0.5014 0.3288
C52 C 1.7347(4) 0.7408(3) 0.5288(3)
H36 H 1.7510 0.7551 0.4958
N2B N 1.6147(2) 0.43671(17) 0.67530(19)
C4B C 1.5040(3) 0.4317(2) 0.6553(2)
H2B H 1.4799 0.3981 0.6748
N8B N 1.4318(3) 0.48103(17) 0.6035(2)
C23B C 1.0647(3) 0.4990(2) 0.5149(2)
C25B C 1.3060(3) 0.4901(2) 0.5719(3)
C27B C 1.1553(4) 0.5016(3) 0.5910(3)
H12B H 1.1355 0.5064 0.6238
C29B C 1.2187(4) 0.4891(2) 0.4966(3)
H14B H 1.2395 0.4852 0.4643
C34B C 1.6101(4) 0.4908(2) 0.6321(3)
H18B H 1.6749 0.5066 0.6336
C37B C 1.0984(3) 0.4938(2) 0.4679(3)
H21B H 1.0394 0.4933 0.4163
C41B C 1.4978(4) 0.5180(3) 0.5870(3)
H25B H 1.4707 0.5547 0.5516
C51B C 1.2765(4) 0.4970(3) 0.6198(3)
H35B H 1.3365 0.4986 0.6712
N3B N -0.3996(2) 0.41830(17) -0.07464(16)
N5B N -0.5907(2) 0.38756(16) -0.15536(17)
C10B C -0.4859(3) 0.39382(19) -0.1441(2)
H3B H -0.4738 0.3827 -0.1797
C18B C -0.1129(3) 0.4246(2) -0.0507(2)
H7B H -0.0753 0.3982 -0.0667
C19B C -0.2802(3) 0.4387(2) -0.0479(2)
C22B C -0.4533(3) 0.4280(3) -0.0397(2)
H9B H -0.4166 0.4450 0.0087
C24B C -0.2225(3) 0.4006(2) -0.0698(2)
H10B H -0.2567 0.3583 -0.0977
C30B C -0.5696(3) 0.4080(2) -0.0895(2)
H15B H -0.6266 0.4081 -0.0805
C31B C -0.0580(3) 0.4866(2) -0.0088(2)
C33B C -0.2269(3) 0.4999(3) -0.0044(3)
H17B H -0.2650 0.5259 0.0115
C40B C -0.1168(4) 0.5221(3) 0.0153(3)
H24B H -0.0805 0.5626 0.0460
Cu1B Cu -0.74878(3) 0.36288(2) -0.25361(2)
Cu2B Cu -0.25337(3) 0.36821(2) -0.25556(2)
O1B O -0.6382(2) 0.32906(15) -0.31583(16)
O2B O -0.3683(2) 0.28653(14) -0.30580(13)
O3B O -1.1361(2) 0.44736(15) -0.20557(15)
N1B N -1.0981(2) 0.31835(16) -0.43608(16)
O4B O -1.1148(2) 0.43359(16) -0.29518(16)
O5B O -0.8123(2) 0.45966(14) -0.25457(15)
O6B O -0.6854(2) 0.26754(14) -0.25228(14)
N4B N -0.9043(2) 0.33850(18) -0.35251(17)
O7B O -0.8552(2) 0.39399(15) -0.19123(16)
O8B O -0.3787(2) 0.30560(15) -0.21246(15)
C1B C -1.5905(3) 0.2890(2) -0.5515(2)
C2B C -1.0116(3) 0.3452(2) -0.3683(2)
H1B H -1.0256 0.3660 -0.3363
N6B N -1.9483(2) 0.25829(18) -0.62929(18)
C3B C -1.2235(3) 0.31212(18) -0.46820(19)
N7B N -2.1238(2) 0.20419(17) -0.69017(17)
C5B C -0.4072(3) 0.27123(19) -0.2681(2)
C6B C -1.4634(3) 0.29660(19) -0.52424(19)
C7B C -1.0883(3) 0.4632(2) -0.2380(2)
C8B C -0.8540(3) 0.4528(2) -0.2174(2)
C9B C -1.8258(3) 0.2716(2) -0.6017(2)
C11B C -0.6384(3) 0.2726(2) -0.2866(2)
C12B C -2.0142(3) 0.2016(2) -0.6712(2)
H4B H -1.9861 0.1648 -0.6854
C13B C -0.8939(3) 0.52080(19) -0.2011(2)
C14B C -0.5869(3) 0.2036(2) -0.2927(2)
C15B C -1.3762(3) 0.3151(2) -0.4505(2)
H5B H -1.3978 0.3228 -0.4190
C16B C -1.2572(3) 0.3224(2) -0.4226(2)
H6B H -1.1997 0.3344 -0.3726
C17B C -0.9970(3) 0.52316(19) -0.2033(2)
C20B C -1.3082(3) 0.2940(2) -0.5413(2)
H8B H -1.2858 0.2868 -0.5726
C21B C -0.4851(3) 0.2053(2) -0.2914(2)
C26B C -1.4279(3) 0.2862(2) -0.5695(2)
H11B H -1.4849 0.2738 -0.6195
C28B C -1.0189(4) 0.5845(2) -0.1777(3)
H13B H -1.0861 0.5862 -0.1781
C32B C -1.8025(3) 0.2916(3) -0.6493(2)
H16B H -1.8658 0.2993 -0.6995
C35B C -0.4468(4) 0.1414(2) -0.3034(3)
H19B H -0.3807 0.1423 -0.3041
C36B C -2.1272(4) 0.2660(3) -0.6577(3)
H20B H -2.1935 0.2823 -0.6610
C38B C -0.8189(4) 0.5803(2) -0.1754(3)
H22B H -0.7512 0.5790 -0.1744
C39B C -2.0198(4) 0.2996(3) -0.6200(3)
H23B H -1.9985 0.3426 -0.5930
C42B C -0.9419(5) 0.6434(3) -0.1513(3)
H26B H -0.9569 0.6842 -0.1336
C43B C -0.5042(6) 0.0767(3) -0.3143(4)
H27B H -0.4766 0.0342 -0.3217
C44B C -0.8427(5) 0.6416(3) -0.1512(3)
H28B H -0.7921 0.6817 -0.1348
C45B C -0.6447(4) 0.1382(3) -0.3039(3)
H29B H -0.7120 0.1368 -0.3045
C46B C -0.6029(6) 0.0752(3) -0.3142(4)
H30B H -0.6417 0.0315 -0.3211
C47B C -1.6851(3) 0.3009(3) -0.6247(2)
H31B H -1.6706 0.3155 -0.6584
C48B C -1.0420(3) 0.2936(3) -0.4656(2)
H32B H -1.0785 0.2722 -0.5122
C49B C -0.9237(3) 0.3065(3) -0.4137(2)
H33B H -0.8641 0.2952 -0.4190
C50B C -1.6171(4) 0.2680(3) -0.5037(2)
H34B H -1.5546 0.2596 -0.4535
C52B C -1.7347(4) 0.2592(3) -0.5288(3)
H36B H -1.7510 0.2449 -0.4958
Cu2_2 Cu 1.25337(3) 0.63179(2) 0.25556(2)
Cu2A Cu -2.25337(3) 0.13179(2) -0.75556(2)
Cu2B_2 Cu -1.25337(3) 0.36821(2) -0.25556(2)
Cu2B_3 Cu 1.74663(3) 0.36821(2) 0.74444(2)
Cu2C Cu 2.25337(3) 0.86821(2) 0.75556(2)
O3_2 O 0.1361(2) 0.55264(15) 0.20557(15)
O3B_2 O -0.1361(2) 0.44736(15) -0.20557(15)
N2B_2 N -0.3853(2) 0.43671(17) -0.32470(19)
N7A N -0.1238(2) 0.29581(17) -0.19017(17)
N7C N 0.1238(2) 0.70419(17) 0.19017(17)
loop_
_geom_bond_atom_site_label_1
_geom_bond_atom_site_label_2
_geom_bond_site_symmetry_1
_geom_bond_site_symmetry_2
Cu1 O1 1_555 1_555
Cu2 O2 1_555 1_555
O1 C11 1_555 1_555
O2 C5 1_555 1_555
O3 C7 1_555 1_555
N1 C2 1_555 1_555
O4 C7 1_555 1_555
N2 Cu2 1_555 1_555
O5 Cu1 1_555 1_555
O6 Cu1 1_555 1_555
N3 C10 1_555 1_555
N4 Cu1 1_555 1_555
O7 Cu1 1_555 1_555
O8 Cu2 1_555 1_555
N5 Cu1 1_555 1_555
C1 C6 1_555 1_555
C2 N4 1_555 1_555
H1 C2 1_555 1_555
N6 C9 1_555 1_555
C3 N1 1_555 1_555
C4 N2 1_555 1_555
H2 C4 1_555 1_555
N7 C12 1_555 1_555
C5 O8 1_555 1_555
C6 C15 1_555 1_555
C7 C17 1_555 1_555
C8 O5 1_555 1_555
C9 C32 1_555 1_555
C10 N5 1_555 1_555
H3 C10 1_555 1_555
C11 O6 1_555 1_555
C12 N6 1_555 1_555
H4 C12 1_555 1_555
C13 C8 1_555 1_555
C14 C11 1_555 1_555
C15 H5 1_555 1_555
C16 C3 1_555 1_555
H6 C16 1_555 1_555
C17 C13 1_555 1_555
C18 H7 1_555 1_555
C19 N3 1_555 1_555
C20 C3 1_555 1_555
H8 C20 1_555 1_555
N8 C4 1_555 1_555
C21 C5 1_555 1_555
C22 N3 1_555 1_555
H9 C22 1_555 1_555
C23 C27 1_555 1_555
C24 C18 1_555 1_555
H10 C24 1_555 1_555
C25 N8 1_555 1_555
C26 C6 1_555 1_555
H11 C26 1_555 1_555
C27 H12 1_555 1_555
C28 C17 1_555 1_555
H13 C28 1_555 1_555
C29 C25 1_555 1_555
H14 C29 1_555 1_555
C30 N5 1_555 1_555
H15 C30 1_555 1_555
C31 C18 1_555 1_555
C32 H16 1_555 1_555
C33 C19 1_555 1_555
H17 C33 1_555 1_555
C34 N2 1_555 1_555
H18 C34 1_555 1_555
C35 C21 1_555 1_555
H19 C35 1_555 1_555
C36 N7 1_555 1_555
H20 C36 1_555 1_555
C37 C23 1_555 1_555
H21 C37 1_555 1_555
C38 C13 1_555 1_555
H22 C38 1_555 1_555
C39 N6 1_555 1_555
H23 C39 1_555 1_555
C40 C31 1_555 1_555
H24 C40 1_555 1_555
C41 N8 1_555 1_555
H25 C41 1_555 1_555
C42 C28 1_555 1_555
H26 C42 1_555 1_555
C43 C35 1_555 1_555
H27 C43 1_555 1_555
C44 C38 1_555 1_555
H28 C44 1_555 1_555
C45 C14 1_555 1_555
H29 C45 1_555 1_555
C46 C43 1_555 1_555
H30 C46 1_555 1_555
C47 C1 1_555 1_555
H31 C47 1_555 1_555
C48 N1 1_555 1_555
H32 C48 1_555 1_555
C49 N4 1_555 1_555
H33 C49 1_555 1_555
C50 C1 1_555 1_555
H34 C50 1_555 1_555
C51 C25 1_555 1_555
H35 C51 1_555 1_555
C52 C9 1_555 1_555
H36 C52 1_555 1_555
N2B C4B 1_555 1_555
C4B H2B 1_555 1_555
N8B C4B 1_555 1_555
C23B C23 1_555 1_555
C25B N8B 1_555 1_555
C27B C23B 1_555 1_555
H12B C27B 1_555 1_555
C29B C25B 1_555 1_555
H14B C29B 1_555 1_555
C34B N2B 1_555 1_555
H18B C34B 1_555 1_555
C37B C23B 1_555 1_555
H21B C37B 1_555 1_555
C41B N8B 1_555 1_555
H25B C41B 1_555 1_555
C51B C25B 1_555 1_555
H35B C51B 1_555 1_555
N3B C10B 1_555 1_555
N5B C10B 1_555 1_555
C10B H3B 1_555 1_555
C18B H7B 1_555 1_555
C19B N3B 1_555 1_555
C22B N3B 1_555 1_555
H9B C22B 1_555 1_555
C24B C18B 1_555 1_555
H10B C24B 1_555 1_555
C30B N5B 1_555 1_555
H15B C30B 1_555 1_555
C31B C31 1_555 1_555
C33B C19B 1_555 1_555
H17B C33B 1_555 1_555
C40B C31B 1_555 1_555
H24B C40B 1_555 1_555
Cu1B N5B 1_555 1_555
Cu2B O2B 1_555 1_555
O1B Cu1B 1_555 1_555
O2B C5B 1_555 1_555
O3B C7B 1_555 1_555
N1B C2B 1_555 1_555
O4B C7B 1_555 1_555
O5B Cu1B 1_555 1_555
O6B Cu1B 1_555 1_555
N4B Cu1B 1_555 1_555
O7B Cu1B 1_555 1_555
O8B Cu2B 1_555 1_555
C1B C6B 1_555 1_555
C2B N4B 1_555 1_555
H1B C2B 1_555 1_555
N6B C9B 1_555 1_555
C3B N1B 1_555 1_555
N7B C12B 1_555 1_555
C5B O8B 1_555 1_555
C6B C15B 1_555 1_555
C7B C17B 1_555 1_555
C8B O5B 1_555 1_555
C9B C32B 1_555 1_555
C11B O1B 1_555 1_555
C12B N6B 1_555 1_555
H4B C12B 1_555 1_555
C13B C8B 1_555 1_555
C14B C11B 1_555 1_555
C15B H5B 1_555 1_555
C16B C3B 1_555 1_555
H6B C16B 1_555 1_555
C17B C13B 1_555 1_555
C20B C3B 1_555 1_555
H8B C20B 1_555 1_555
C21B C5B 1_555 1_555
C26B C6B 1_555 1_555
H11B C26B 1_555 1_555
C28B C17B 1_555 1_555
H13B C28B 1_555 1_555
C32B H16B 1_555 1_555
C35B C21B 1_555 1_555
H19B C35B 1_555 1_555
C36B N7B 1_555 1_555
H20B C36B 1_555 1_555
C38B C13B 1_555 1_555
H22B C38B 1_555 1_555
C39B N6B 1_555 1_555
H23B C39B 1_555 1_555
C42B C28B 1_555 1_555
H26B C42B 1_555 1_555
C43B C35B 1_555 1_555
H27B C43B 1_555 1_555
C44B C38B 1_555 1_555
H28B C44B 1_555 1_555
C45B C14B 1_555 1_555
H29B C45B 1_555 1_555
C46B C43B 1_555 1_555
H30B C46B 1_555 1_555
C47B C1B 1_555 1_555
H31B C47B 1_555 1_555
C48B N1B 1_555 1_555
H32B C48B 1_555 1_555
C49B N4B 1_555 1_555
H33B C49B 1_555 1_555
C50B C1B 1_555 1_555
H34B C50B 1_555 1_555
C52B C9B 1_555 1_555
H36B C52B 1_555 1_555
Cu2_2 O3 1_555 1_555
Cu2A N7B 1_555 1_555
Cu2B_2 O3B 1_555 1_555
Cu2B_3 N2B 1_555 1_555
Cu2C N7 1_555 1_555
O3_2 Cu2 1_555 1_555
O3B_2 Cu2B 1_555 1_555
N2B_2 Cu2B 1_555 1_555
N7A Cu2B 1_555 1_555
N7C Cu2 1_555 1_555
O7 C8 1_555 1_555
C14 C21 1_555 1_555
C15 C16 1_555 1_555
C19 C24 1_555 1_555
C20 C26 1_555 1_555
C22 C30 1_555 1_555
C27 C51 1_555 1_555
C29 C37 1_555 1_555
C32 C47 1_555 1_555
C33 C40 1_555 1_555
C34 C41 1_555 1_555
C36 C39 1_555 1_555
C42 C44 1_555 1_555
C45 C46 1_555 1_555
C48 C49 1_555 1_555
C50 C52 1_555 1_555
C27B C51B 1_555 1_555
C29B C37B 1_555 1_555
C34B C41B 1_555 1_555
C18B C31B 1_555 1_555
C19B C24B 1_555 1_555
C22B C30B 1_555 1_555
C33B C40B 1_555 1_555
O6B C11B 1_555 1_555
O7B C8B 1_555 1_555
C14B C21B 1_555 1_555
C15B C16B 1_555 1_555
C20B C26B 1_555 1_555
C32B C47B 1_555 1_555
C36B C39B 1_555 1_555
C42B C44B 1_555 1_555
C45B C46B 1_555 1_555
C48B C49B 1_555 1_555
C50B C52B 1_555 1_555

#END
