
#######################################################################
#
#                 Cambridge Crystallographic Data Centre
#                                CCDC 
#
#######################################################################
#
# If this CIF has been generated from an entry in the Cambridge 
# Structural Database, then it will include bibliographic, chemical, 
# crystal, experimental, refinement or atomic coordinate data resulting 
# from the CCDC's data processing and validation procedures.
#
#######################################################################

data_DOKZAG
_symmetry_cell_setting           triclinic
_symmetry_space_group_name_H-M   'P -1'
_symmetry_Int_Tables_number      2
_space_group_name_Hall           '-P 1'
loop_
_symmetry_equiv_pos_site_id
_symmetry_equiv_pos_as_xyz
1 x,y,z
2 -x,-y,-z
_cell_length_a                   16.195(3)
_cell_length_b                   23.027(5)
_cell_length_c                   23.751(5)
_cell_angle_alpha                72.72(3)
_cell_angle_beta                 75.60(3)
_cell_angle_gamma                82.82(3)
_cell_volume                     8179.27
loop_
_atom_site_label
_atom_site_type_symbol
_atom_site_fract_x
_atom_site_fract_y
_atom_site_fract_z
Cu1 Cu -0.02601(7) 0.54943(5) 0.03210(4)
Cu2 Cu 0.13426(7) 0.51958(5) 0.20140(5)
Cu3 Cu -0.06351(7) 0.39174(5) 0.09828(4)
Cu4 Cu 0.12693(7) 0.38121(5) 0.17863(5)
Cu5 Cu 0.12781(7) 0.37805(5) 0.30562(5)
Cu6 Cu -0.12063(7) 0.76079(5) -0.28263(4)
Cu7 Cu 0.26091(7) 0.20902(4) 0.45966(4)
Cu8 Cu 0.16624(7) 1.16548(4) -0.40406(4)
Cu9 Cu 0.21276(7) 0.30878(4) 0.52097(4)
Cu10 Cu 0.31416(7) 0.36361(4) 0.39195(4)
Cu11 Cu 0.34050(7) 0.13539(4) 0.67805(4)
Cu12 Cu 0.40726(7) 0.25946(4) 0.71199(4)
Cu13 Cu 0.40881(7) 0.12511(4) 0.80860(4)
Cu14 Cu 0.34500(7) 0.00055(4) 0.77426(4)
Cu15 Cu 0.57989(7) 0.09255(4) 0.89417(4)
Cu16 Cu 0.47802(7) 0.04969(4) 1.03014(4)
O1 O 0.0108(4) 0.4603(2) 0.0493(2)
O2 O 0.0986(4) 0.3266(2) 0.2588(2)
O3 O 0.1603(4) 0.4325(2) 0.2247(2)
O4 O 0.2344(3) 0.2989(2) 0.4383(2)
O5 O 0.2512(3) 0.2217(2) 0.5388(2)
O6 O 0.2818(4) 0.0731(2) 0.7409(2)
O7 O 0.4691(4) 0.1854(2) 0.7444(2)
O8 O 0.4926(3) 0.0384(2) 0.9494(2)
O9 O 0.1275(4) 0.5658(3) 0.0063(3)
O10 O 0.1675(4) 0.5580(3) -0.0879(3)
O11 O 0.1551(4) 0.4420(3) 0.1005(2)
O12 O 0.2095(4) 0.5169(3) 0.1202(3)
O13 O 0.1304(4) 0.5280(3) 0.2830(3)
O14 O 0.0826(4) 0.4409(3) 0.3482(3)
O15 O 0.2222(4) 0.4260(2) 0.4011(2)
O16 O 0.1583(4) 0.3903(3) 0.4981(2)
O17 O -0.0308(4) 0.6671(3) -0.0837(3)
O18 O -0.0921(4) 0.6291(3) 0.0148(2)
O19 O -0.1727(4) 0.6816(3) -0.1360(3)
O20 O -0.1236(4) 0.7696(3) -0.2006(3)
O21 O 0.3237(4) 0.3931(3) 0.2086(3)
O22 O 0.2652(4) 0.3633(2) 0.3075(2)
O23 O 0.2515(4) 0.2479(3) 0.2859(2)
O24 O 0.2610(4) 0.2025(3) 0.3808(2)
O25 O 0.0415(4) 0.2430(2) 0.3625(3)
O26 O 0.0946(4) 0.3176(2) 0.3840(2)
O27 O 0.1091(4) 0.1996(3) 0.4850(3)
O28 O 0.0670(4) 0.2224(3) 0.5733(2)
O29 O 0.1949(4) 1.3141(3) -0.3986(3)
O30 O 0.1699(4) 1.2176(3) -0.3411(3)
O31 O 0.2993(4) 1.1972(3) -0.2776(3)
O32 O 0.1960(4) 1.1504(3) -0.2002(3)
O33 O 0.3098(4) 0.1266(2) 0.4851(2)
O34 O 0.2495(4) 0.0965(3) 0.5842(3)
O35 O 0.3950(4) 0.0771(3) 0.6324(2)
O36 O 0.3692(4) -0.0157(3) 0.6946(3)
O37 O 0.2866(4) 0.0076(3) 0.8565(2)
O38 O 0.3593(4) 0.0660(2) 0.8848(2)
O39 O 0.3692(4) -0.0523(2) 0.9830(3)
O40 O 0.3229(4) -0.0388(3) 1.0752(3)
O41 O 0.3897(4) 0.2772(3) 0.7906(3)
O42 O 0.3572(4) 0.1843(3) 0.8529(3)
O43 O 0.4991(4) 0.1625(3) 0.9048(3)
O44 O 0.4338(4) 0.1325(2) 1.0032(2)
O45 O 0.4124(4) 0.3113(3) 0.4121(2)
O46 O 0.3695(4) 0.3172(2) 0.5074(2)
O47 O 0.3845(4) 0.1964(2) 0.6021(2)
O48 O 0.4622(4) 0.2540(2) 0.6291(2)
O49 O 0.4531(4) 0.0610(2) 0.7679(2)
O50 O 0.5537(5) 0.1064(3) 0.6877(3)
O51 O 0.5835(4) 0.0394(3) 0.8324(2)
O52 O 0.5455(4) -0.0544(2) 0.8889(2)
O53 O -0.0208(4) 0.5544(3) 0.1098(2)
O54 O 0.0027(4) 0.5069(3) 0.2020(3)
O55 O -0.0121(4) 0.3924(3) 0.1796(2)
O56 O -0.0658(4) 0.3594(3) 0.2792(3)
N1 N -0.1244(5) -0.1506(3) 0.6840(3)
N2 N -0.1243(5) -0.0646(3) 0.6130(3)
N3 N -0.1640(5) 0.2372(3) 0.2218(3)
N4 N -0.1328(4) 0.3200(3) 0.1477(3)
N5 N 0.0892(5) 1.1047(3) -0.3450(3)
N6 N 0.0531(5) 1.0258(3) -0.2663(3)
N7 N 0.1171(5) 0.6976(3) 0.1042(3)
N8 N 0.1271(5) 0.6079(3) 0.1695(3)
N9 N 0.3673(5) 0.3442(3) 0.6771(3)
N10 N 0.3483(5) 0.4320(3) 0.6125(3)
N11 N 0.3053(5) 0.7676(3) 0.2432(3)
N12 N 0.3418(4) 0.8477(3) 0.1662(3)
N13 N 0.3862(5) 0.4321(3) 0.3402(3)
N14 N 0.4159(5) 0.5159(3) 0.2666(3)
N15 N 0.4005(5) 0.8291(3) -0.1223(3)
N16 N 0.3826(5) 0.9162(3) -0.1897(3)
C1 C 0.1801(6) 0.5499(4) -0.0349(4)
C2 C 0.2654(5) 0.5204(4) -0.0255(4)
C3 C 0.3338(7) 0.5241(5) -0.0759(5)
H1 H 0.3271 0.5453 -0.1146
C4 C 0.4127(7) 0.4950(5) -0.0666(5)
H2 H 0.4590 0.4966 -0.0992
C5 C 0.4213(7) 0.4645(5) -0.0099(5)
H3 H 0.4739 0.4451 -0.0047
C6 C 0.3560(6) 0.4610(5) 0.0399(5)
H4 H 0.3642 0.4400 0.0783
C7 C 0.2760(6) 0.4896(4) 0.0320(4)
C8 C 0.2081(6) 0.4834(4) 0.0876(4)
C9 C -0.0420(6) 0.5196(4) 0.1633(4)
C10 C -0.1311(6) 0.4969(4) 0.1838(4)
C11 C -0.2016(6) 0.5354(4) 0.1693(4)
H5 H -0.1935 0.5748 0.1442
C12 C -0.2828(6) 0.5148(4) 0.1924(4)
H6 H -0.3294 0.5407 0.1834
C13 C -0.2961(7) 0.4550(5) 0.2296(5)
H7 H -0.3511 0.4415 0.2454
C14 C -0.2262(6) 0.4163(4) 0.2424(4)
H8 H -0.2343 0.3765 0.2664
C15 C -0.1429(6) 0.4371(4) 0.2190(4)
C16 C -0.0683(6) 0.3931(4) 0.2276(4)
C17 C -0.0842(6) 0.6694(4) -0.0366(4)
C18 C -0.1385(5) 0.7264(4) -0.0404(4)
C19 C -0.1567(6) 0.7529(4) 0.0075(4)
H9 H -0.1430 0.7312 0.0441
C20 C -0.1941(6) 0.8097(4) 0.0016(4)
H10 H -0.2040 0.8265 0.0339
C21 C -0.2182(7) 0.8438(4) -0.0519(5)
H11 H -0.2453 0.8824 -0.0551
C22 C -0.2005(6) 0.8184(4) -0.1002(4)
H12 H -0.2151 0.8407 -0.1363
C23 C -0.1619(5) 0.7610(4) -0.0958(3)
C24 C -0.1510(6) 0.7354(4) -0.1485(4)
C25 C 0.1046(6) 0.4946(4) 0.3355(4)
C26 C 0.0943(5) 0.5219(4) 0.3871(4)
C27 C 0.0546(5) 0.5805(4) 0.3820(4)
H13 H 0.0383 0.6021 0.3463
C28 C 0.0396(6) 0.6064(4) 0.4293(4)
H14 H 0.0133 0.6452 0.4255
C29 C 0.0635(6) 0.5746(4) 0.4821(5)
H15 H 0.0540 0.5923 0.5137
C30 C 0.1013(6) 0.5170(4) 0.4886(4)
H16 H 0.1169 0.4958 0.5247
C31 C 0.1164(5) 0.4901(3) 0.4410(4)
C32 C 0.1699(5) 0.4292(4) 0.4485(4)
C33 C 0.0418(5) 0.2778(4) 0.3945(4)
C34 C -0.0350(6) 0.2750(4) 0.4476(4)
C35 C -0.1110(6) 0.2996(4) 0.4341(4)
H17 H -0.1153 0.3149 0.3940
C36 C -0.1823(6) 0.3017(5) 0.4805(5)
H18 H -0.2339 0.3198 0.4717
C37 C -0.1757(6) 0.2769(5) 0.5400(4)
H19 H -0.2236 0.2763 0.5713
C38 C -0.0994(6) 0.2533(4) 0.5523(4)
H20 H -0.0953 0.2382 0.5925
C39 C -0.0271(6) 0.2509(4) 0.5071(4)
C40 C 0.0556(6) 0.2218(4) 0.5217(4)
C41 C 0.2891(6) 0.2353(4) 0.3272(4)
C42 C 0.3799(6) 0.2560(4) 0.3110(3)
C43 C 0.4461(6) 0.2170(4) 0.3289(4)
H21 H 0.4347 0.1785 0.3551
C44 C 0.5289(8) 0.2345(6) 0.3083(5)
H22 H 0.5730 0.2077 0.3206
C45 C 0.5471(7) 0.2921(6) 0.2690(5)
H23 H 0.6033 0.3034 0.2537
C46 C 0.4803(7) 0.3322(5) 0.2533(4)
H24 H 0.4921 0.3714 0.2287
C47 C 0.3961(6) 0.3157(4) 0.2730(4)
C48 C 0.3230(6) 0.3602(4) 0.2610(4)
C49 C 0.1778(5) 1.2726(4) -0.3486(4)
C50 C 0.1637(5) 1.2953(4) -0.2931(4)
C51 C 0.1244(6) 1.3516(4) -0.2933(4)
H25 H 0.1142 1.3777 -0.3295
C52 C 0.0995(6) 1.3706(5) -0.2412(5)
H26 H 0.0726 1.4089 -0.2421
C53 C 0.1154(7) 1.3314(5) -0.1872(5)
H27 H 0.0991 1.3434 -0.1518
C54 C 0.1552(6) 1.2752(4) -0.1864(4)
H28 H 0.1650 1.2490 -0.1501
C55 C 0.1811(6) 1.2567(4) -0.2386(4)
C56 C 0.2280(6) 1.1961(4) -0.2383(4)
C57 C 0.3003(6) 0.0889(4) 0.5372(4)
C58 C 0.3515(6) 0.0291(4) 0.5415(4)
C59 C 0.3596(7) 0.0032(4) 0.4947(4)
H29 H 0.3355 0.0235 0.4620
C60 C 0.4025(8) -0.0520(5) 0.4962(4)
H30 H 0.4089 -0.0689 0.4642
C61 C 0.4360(7) -0.0822(4) 0.5450(4)
H31 H 0.4653 -0.1198 0.5461
C62 C 0.4272(6) -0.0584(4) 0.5917(4)
H32 H 0.4500 -0.0801 0.6247
C63 C 0.3851(5) -0.0024(4) 0.5915(4)
C64 C 0.3815(6) 0.0224(4) 0.6438(4)
C65 C 0.4229(5) 0.3015(4) 0.4655(4)
C66 C 0.5043(6) 0.2680(4) 0.4768(4)
C67 C 0.5748(6) 0.2695(5) 0.4279(4)
H33 H 0.5700 0.2922 0.3892
C68 C 0.6503(6) 0.2380(5) 0.4363(4)
H34 H 0.6956 0.2382 0.4033
C69 C 0.6588(7) 0.2063(5) 0.4934(5)
H35 H 0.7105 0.1856 0.4990
C70 C 0.5928(6) 0.2045(4) 0.5419(4)
H36 H 0.6001 0.1827 0.5803
C71 C 0.5143(5) 0.2350(4) 0.5349(4)
C72 C 0.4458(5) 0.2285(4) 0.5927(4)
C73 C 0.5237(6) 0.0611(4) 0.7270(4)
C74 C 0.5713(5) 0.0006(4) 0.7293(4)
C75 C 0.5959(6) -0.0205(4) 0.6782(4)
H37 H 0.5833 0.0035 0.6419
C76 C 0.6384(7) -0.0761(4) 0.6801(4)
H38 H 0.6570 -0.0887 0.6451
C77 C 0.6533(7) -0.1129(5) 0.7341(4)
H39 H 0.6809 -0.1511 0.7354
C78 C 0.6284(6) -0.0949(4) 0.7864(4)
H40 H 0.6389 -0.1206 0.8227
C79 C 0.5872(5) -0.0372(4) 0.7845(4)
C80 C 0.5697(6) -0.0148(4) 0.8394(4)
C81 C 0.2978(5) 0.0332(4) 0.8933(4)
C82 C 0.2260(5) 0.0287(4) 0.9480(4)
C83 C 0.1481(6) 0.0561(4) 0.9384(4)
H41 H 0.1428 0.0753 0.8990
C84 C 0.0781(6) 0.0562(5) 0.9849(4)
H42 H 0.0269 0.0763 0.9772
C85 C 0.0849(7) 0.0259(5) 1.0431(4)
H43 H 0.0375 0.0238 1.0750
C86 C 0.1622(6) -0.0011(4) 1.0537(4)
H44 H 0.1666 -0.0201 1.0934
C87 C 0.2333(5) -0.0010(4) 1.0075(4)
C88 C 0.3143(5) -0.0330(4) 1.0225(4)
C89 C 0.3737(5) 0.2396(4) 0.8417(4)
C90 C 0.3699(6) 0.2647(4) 0.8935(4)
C91 C 0.3309(6) 0.3222(4) 0.8920(4)
H45 H 0.3108 0.3447 0.8581
C92 C 0.3215(6) 0.3463(4) 0.9394(4)
H46 H 0.2966 0.3854 0.9370
C93 C 0.3488(6) 0.3128(4) 0.9912(4)
H47 H 0.3410 0.3288 1.0239
C94 C 0.3871(6) 0.2562(4) 0.9936(4)
H48 H 0.4067 0.2344 1.0280
C95 C 0.3976(5) 0.2302(4) 0.9465(4)
C96 C 0.4478(6) 0.1697(4) 0.9511(4)
C97 C -0.1309(8) -0.1049(4) 0.7096(5)
H49 H -0.1334 -0.1098 0.7502
C98 C -0.1334(8) -0.0507(5) 0.6672(5)
H50 H -0.1398 -0.0122 0.6732
C99 C -0.1230(6) -0.1242(4) 0.6265(4)
H51 H -0.1212 -0.1455 0.5985
C100 C -0.1272(6) -0.0213(4) 0.5558(4)
C101 C -0.1222(7) -0.0421(4) 0.5064(5)
H52 H -0.1150 -0.0837 0.5101
C102 C -0.1277(7) -0.0017(4) 0.4513(4)
H53 H -0.1259 -0.0166 0.4187
C103 C -0.1358(6) 0.0608(4) 0.4435(4)
C104 C -0.1386(7) 0.0792(4) 0.4945(4)
H54 H -0.1436 0.1207 0.4913
C105 C -0.1345(7) 0.0390(4) 0.5495(4)
H55 H -0.1367 0.0534 0.5825
C106 C -0.1436(6) 0.1052(4) 0.3854(4)
C107 C -0.1849(7) 0.0939(4) 0.3466(4)
H56 H -0.2092 0.0566 0.3571
C108 C -0.1922(6) 0.1358(4) 0.2920(4)
H57 H -0.2203 0.1267 0.2662
C109 C -0.1570(6) 0.1909(4) 0.2773(4)
C110 C -0.1169(6) 0.2041(4) 0.3161(4)
H58 H -0.0943 0.2420 0.3064
C111 C -0.1103(7) 0.1615(4) 0.3690(4)
H59 H -0.0824 0.1707 0.3948
C112 C -0.2315(6) 0.2533(5) 0.1952(4)
H60 H -0.2813 0.2325 0.2060
C113 C -0.2131(6) 0.3051(4) 0.1501(4)
H61 H -0.2489 0.3268 0.1249
C114 C -0.1040(6) 0.2783(4) 0.1912(4)
H62 H -0.0506 0.2773 0.1996
C115 C 0.0033(6) 1.0993(4) -0.3311(4)
H63 H -0.0343 1.1259 -0.3518
C116 C -0.0208(6) 1.0506(5) -0.2832(4)
H64 H -0.0756 1.0371 -0.2659
C117 C 0.1166(6) 1.0586(4) -0.3039(4)
H65 H 0.1736 1.0503 -0.3016
C118 C 0.0619(6) 0.9754(4) -0.2144(4)
C119 C 0.1233(6) 0.9770(4) -0.1851(4)
H66 H 0.1566 1.0106 -0.1977
C120 C 0.1360(6) 0.9285(4) -0.1364(4)
H67 H 0.1812 0.9286 -0.1188
C121 C 0.0843(5) 0.8805(4) -0.1136(4)
C122 C 0.0212(6) 0.8804(4) -0.1437(4)
H68 H -0.0140 0.8478 -0.1300
C123 C 0.0091(6) 0.9277(4) -0.1937(4)
H69 H -0.0341 0.9270 -0.2130
C124 C 0.0944(6) 0.8314(4) -0.0574(4)
C125 C 0.1281(7) 0.8442(4) -0.0151(5)
H70 H 0.1455 0.8832 -0.0224
C126 C 0.1372(7) 0.8006(4) 0.0383(4)
H71 H 0.1603 0.8100 0.0665
C127 C 0.1105(6) 0.7425(4) 0.0483(4)
C128 C 0.0784(6) 0.7290(4) 0.0061(4)
H72 H 0.0626 0.6897 0.0125
C129 C 0.0692(7) 0.7734(4) -0.0465(4)
H73 H 0.0458 0.7639 -0.0745
C130 C 0.1132(8) 0.7072(5) 0.1594(4)
H74 H 0.1064 0.7446 0.1679
C131 C 0.1210(7) 0.6525(4) 0.1982(4)
H75 H 0.1221 0.6456 0.2386
C132 C 0.1247(6) 0.6371(4) 0.1132(4)
H76 H 0.1279 0.6180 0.0833
C133 C 0.3748(6) 0.3738(4) 0.6198(4)
H77 H 0.3961 0.3562 0.5882
C134 C 0.3207(7) 0.4412(4) 0.6688(4)
H78 H 0.2982 0.4773 0.6780
C135 C 0.3332(7) 0.3865(4) 0.7082(4)
H79 H 0.3205 0.3787 0.7500
C136 C 0.3489(6) 0.4781(4) 0.5567(4)
C137 C 0.3310(6) 0.4649(4) 0.5088(4)
H80 H 0.3198 0.4253 0.5118
C138 C 0.3295(7) 0.5105(4) 0.4559(4)
H81 H 0.3184 0.5007 0.4234
C139 C 0.3439(6) 0.5699(4) 0.4497(4)
C140 C 0.3654(7) 0.5820(4) 0.4978(4)
H82 H 0.3769 0.6216 0.4947
C141 C 0.3700(7) 0.5364(4) 0.5506(4)
H83 H 0.3871 0.5449 0.5817
C142 C 0.3372(6) 0.6184(4) 0.3935(4)
C143 C 0.2764(6) 0.6196(4) 0.3607(4)
H84 H 0.2412 0.5870 0.3729
C144 C 0.2662(6) 0.6671(4) 0.3110(4)
H85 H 0.2262 0.6660 0.2893
C145 C 0.3162(5) 0.7158(4) 0.2942(4)
C146 C 0.3748(6) 0.7183(4) 0.3269(4)
H86 H 0.4056 0.7528 0.3168
C147 C 0.3871(6) 0.6689(4) 0.3748(4)
H87 H 0.4293 0.6693 0.3949
C148 C 0.2336(6) 0.7931(5) 0.2256(4)
H88 H 0.1788 0.7794 0.2428
C149 C 0.2557(6) 0.8426(5) 0.1781(4)
H89 H 0.2183 0.8689 0.1570
C150 C 0.3707(6) 0.8002(4) 0.2061(4)
H90 H 0.4278 0.7912 0.2079
C151 C 0.3572(6) 0.4752(4) 0.2974(4)
H91 H 0.3032 0.4769 0.2898
C152 C 0.4656(6) 0.4465(4) 0.3367(4)
H92 H 0.5019 0.4243 0.3612
C153 C 0.4843(6) 0.4984(5) 0.2921(4)
H93 H 0.5347 0.5185 0.2809
C154 C 0.4089(5) 0.5635(4) 0.2121(4)
C155 C 0.4407(6) 0.6192(4) 0.2000(4)
H94 H 0.4672 0.6273 0.2272
C156 C 0.4331(6) 0.6636(4) 0.1469(4)
H95 H 0.4551 0.7015 0.1385
C157 C 0.3928(6) 0.6521(4) 0.1059(4)
C158 C 0.3608(6) 0.5957(4) 0.1202(4)
H96 H 0.3325 0.5875 0.0940
C159 C 0.3693(6) 0.5504(4) 0.1727(4)
H97 H 0.3487 0.5121 0.1810
C160 C 0.3903(6) 0.6980(4) 0.0467(4)
C161 C 0.3829(6) 0.7598(4) 0.0421(4)
H98 H 0.3753 0.7726 0.0768
C162 C 0.3868(6) 0.8027(4) -0.0132(4)
H99 H 0.3836 0.8440 -0.0159
C163 C 0.3954(6) 0.7837(4) -0.0640(4)
C164 C 0.4005(7) 0.7228(4) -0.0604(4)
H100 H 0.4063 0.7102 -0.0950
C165 C 0.3970(7) 0.6805(4) -0.0052(4)
H101 H 0.3992 0.6393 -0.0028
C166 C 0.4300(7) 0.8203(4) -0.1778(4)
H102 H 0.4532 0.7838 -0.1859
C167 C 0.4203(7) 0.8728(4) -0.2186(4)
H103 H 0.4365 0.8793 -0.2603
C168 C 0.3730(6) 0.8881(4) -0.1313(4)
H104 H 0.3503 0.9066 -0.1005
Cu1A Cu 0.02601(7) 0.45057(5) -0.03210(4)
Cu3A Cu 0.06351(7) 0.60826(5) -0.09828(4)
Cu4A Cu -0.12693(7) 0.61879(5) -0.17863(5)
Cu6_2 Cu -0.12063(7) -0.23921(5) 0.71737(4)
Cu6A Cu 0.12063(7) 0.23921(5) 0.28263(4)
Cu8_2 Cu 0.16624(7) 0.16548(4) 0.59594(4)
Cu9_2 Cu 0.21276(7) 1.30878(4) -0.47903(4)
Cu11_2 Cu 0.34050(7) 1.13539(4) -0.32195(4)
Cu12_2 Cu 0.40726(7) 1.25946(4) -0.28801(4)
Cu14_2 Cu 0.34500(7) 1.00055(4) -0.22574(4)
Cu15A Cu 0.42011(7) -0.09255(4) 1.10583(4)
Cu15A_2 Cu 0.42011(7) 0.90745(4) 0.10583(4)
Cu16A Cu 0.52198(7) -0.04969(4) 0.96986(4)
O1A O -0.0108(4) 0.5397(2) -0.0493(2)
O2A O -0.0986(4) 0.6734(2) -0.2588(2)
O5_2 O 0.2512(3) 1.2217(2) -0.4612(2)
O8A O 0.5074(3) -0.0384(2) 1.0506(2)
O9A O -0.1275(4) 0.4342(3) -0.0063(3)
O10A O -0.1675(4) 0.4420(3) 0.0879(3)
O17A O 0.0308(4) 0.3329(3) 0.0837(3)
O19A O 0.1727(4) 0.3184(3) 0.1360(3)
O23A O -0.2515(4) 0.7521(3) -0.2859(2)
O25A O -0.0415(4) 0.7570(2) -0.3625(3)
O28_2 O 0.0670(4) 1.2224(3) -0.4267(2)
O29_2 O 0.1949(4) 0.3141(3) 0.6014(3)
O31_2 O 0.2993(4) 0.1972(3) 0.7224(3)
O34_2 O 0.2495(4) 1.0965(3) -0.4158(3)
O39A O 0.6308(4) 0.0523(2) 1.0170(3)
O40A O 0.6771(4) 0.0388(3) 0.9248(3)
O52A O 0.4545(4) 0.0544(2) 1.1111(2)
N1_2 N -0.1244(5) 0.8494(3) -0.3160(3)
N12A N 0.6582(4) 0.1523(3) 0.8338(3)
N16_2 N 0.3826(5) -0.0838(3) 0.8103(3)
O57 O 0.0359(6) 0.7509(4) 0.3055(4)
O58 O 0.7847(6) 0.0032(5) 0.8054(5)
O59 O 1.0029(8) 0.1514(6) 0.8145(6)
O60 O 0.3779(9) 0.2807(7) 0.1463(6)
O61 O 0.7479(8) 0.0993(7) 0.6783(6)
O62 O 0.1367(13) 0.5373(9) 0.6403(9)
loop_
_geom_bond_atom_site_label_1
_geom_bond_atom_site_label_2
_geom_bond_site_symmetry_1
_geom_bond_site_symmetry_2
Cu1 O1 1_555 1_555
Cu2 O3 1_555 1_555
Cu3 O1 1_555 1_555
Cu4 O2 1_555 1_555
Cu5 O2 1_555 1_555
Cu6 O20 1_555 1_555
Cu7 O4 1_555 1_555
Cu8 O30 1_555 1_555
Cu9 O4 1_555 1_555
Cu10 O4 1_555 1_555
Cu11 O6 1_555 1_555
Cu12 O7 1_555 1_555
Cu13 O7 1_555 1_555
Cu14 O6 1_555 1_555
Cu15 O8 1_555 1_555
Cu16 O8 1_555 1_555
O1 Cu1A 1_555 1_555
O2 Cu6A 1_555 1_555
O3 Cu4 1_555 1_555
O5 Cu7 1_555 1_555
O8 Cu16A 1_555 1_555
O9 Cu1 1_555 1_555
O10 C1 1_555 1_555
O11 Cu4 1_555 1_555
O12 Cu2 1_555 1_555
O13 Cu2 1_555 1_555
O14 Cu5 1_555 1_555
O15 Cu10 1_555 1_555
O16 Cu9 1_555 1_555
O17 C17 1_555 1_555
O18 Cu1 1_555 1_555
O19 C24 1_555 1_555
O20 C24 1_555 1_555
O21 C48 1_555 1_555
O22 Cu5 1_555 1_555
O23 C41 1_555 1_555
O24 Cu7 1_555 1_555
O25 C33 1_555 1_555
O26 Cu5 1_555 1_555
O27 Cu7 1_555 1_555
O28 C40 1_555 1_555
O29 C49 1_555 1_555
O30 C49 1_555 1_555
O31 C56 1_555 1_555
O32 C56 1_555 1_555
O33 Cu7 1_555 1_555
O34 C57 1_555 1_555
O35 Cu11 1_555 1_555
O36 Cu14 1_555 1_555
O37 Cu14 1_555 1_555
O38 Cu13 1_555 1_555
O39 C88 1_555 1_555
O40 C88 1_555 1_555
O41 Cu12 1_555 1_555
O42 Cu13 1_555 1_555
O43 Cu15 1_555 1_555
O44 Cu16 1_555 1_555
O45 Cu10 1_555 1_555
O46 Cu9 1_555 1_555
O47 Cu11 1_555 1_555
O48 Cu12 1_555 1_555
O49 Cu13 1_555 1_555
O50 C73 1_555 1_555
O51 Cu15 1_555 1_555
O52 C80 1_555 1_555
O53 Cu1 1_555 1_555
O54 Cu2 1_555 1_555
O55 Cu3 1_555 1_555
O56 C16 1_555 1_555
N1 C97 1_555 1_555
N2 C98 1_555 1_555
N3 C109 1_555 1_555
N4 Cu3 1_555 1_555
N5 Cu8 1_555 1_555
N6 C116 1_555 1_555
N7 C127 1_555 1_555
N8 Cu2 1_555 1_555
N9 Cu12 1_555 1_555
N10 C133 1_555 1_555
N11 C145 1_555 1_555
N12 C149 1_555 1_555
N13 Cu10 1_555 1_555
N14 C151 1_555 1_555
N15 C163 1_555 1_555
N16 C167 1_555 1_555
C1 O9 1_555 1_555
C2 C1 1_555 1_555
C3 C2 1_555 1_555
H1 C3 1_555 1_555
C4 C3 1_555 1_555
H2 C4 1_555 1_555
C5 C4 1_555 1_555
H3 C5 1_555 1_555
C6 C5 1_555 1_555
H4 C6 1_555 1_555
C7 C2 1_555 1_555
C8 O11 1_555 1_555
C9 O53 1_555 1_555
C10 C9 1_555 1_555
C11 C10 1_555 1_555
H5 C11 1_555 1_555
C12 C11 1_555 1_555
H6 C12 1_555 1_555
C13 C12 1_555 1_555
H7 C13 1_555 1_555
C14 C13 1_555 1_555
H8 C14 1_555 1_555
C15 C10 1_555 1_555
C16 O55 1_555 1_555
C17 O18 1_555 1_555
C18 C17 1_555 1_555
C19 C18 1_555 1_555
H9 C19 1_555 1_555
C20 C19 1_555 1_555
H10 C20 1_555 1_555
C21 C20 1_555 1_555
H11 C21 1_555 1_555
C22 C21 1_555 1_555
H12 C22 1_555 1_555
C23 C18 1_555 1_555
C24 C23 1_555 1_555
C25 O13 1_555 1_555
C26 C25 1_555 1_555
C27 C26 1_555 1_555
H13 C27 1_555 1_555
C28 C27 1_555 1_555
H14 C28 1_555 1_555
C29 C28 1_555 1_555
H15 C29 1_555 1_555
C30 C29 1_555 1_555
H16 C30 1_555 1_555
C31 C26 1_555 1_555
C32 O15 1_555 1_555
C33 O26 1_555 1_555
C34 C33 1_555 1_555
C35 C34 1_555 1_555
H17 C35 1_555 1_555
C36 C35 1_555 1_555
H18 C36 1_555 1_555
C37 C36 1_555 1_555
H19 C37 1_555 1_555
C38 C37 1_555 1_555
H20 C38 1_555 1_555
C39 C34 1_555 1_555
C40 O27 1_555 1_555
C41 O24 1_555 1_555
C42 C41 1_555 1_555
C43 C42 1_555 1_555
H21 C43 1_555 1_555
C44 C43 1_555 1_555
H22 C44 1_555 1_555
C45 C44 1_555 1_555
H23 C45 1_555 1_555
C46 C45 1_555 1_555
H24 C46 1_555 1_555
C47 C42 1_555 1_555
C48 O22 1_555 1_555
C49 C50 1_555 1_555
C50 C51 1_555 1_555
C51 H25 1_555 1_555
C52 C51 1_555 1_555
H26 C52 1_555 1_555
C53 C52 1_555 1_555
H27 C53 1_555 1_555
C54 C53 1_555 1_555
H28 C54 1_555 1_555
C55 C50 1_555 1_555
C56 C55 1_555 1_555
C57 O33 1_555 1_555
C58 C57 1_555 1_555
C59 C58 1_555 1_555
H29 C59 1_555 1_555
C60 C59 1_555 1_555
H30 C60 1_555 1_555
C61 C60 1_555 1_555
H31 C61 1_555 1_555
C62 C61 1_555 1_555
H32 C62 1_555 1_555
C63 C58 1_555 1_555
C64 O35 1_555 1_555
C65 O45 1_555 1_555
C66 C65 1_555 1_555
C67 C66 1_555 1_555
H33 C67 1_555 1_555
C68 C67 1_555 1_555
H34 C68 1_555 1_555
C69 C68 1_555 1_555
H35 C69 1_555 1_555
C70 C69 1_555 1_555
H36 C70 1_555 1_555
C71 C66 1_555 1_555
C72 O47 1_555 1_555
C73 O49 1_555 1_555
C74 C73 1_555 1_555
C75 C74 1_555 1_555
H37 C75 1_555 1_555
C76 C75 1_555 1_555
H38 C76 1_555 1_555
C77 C76 1_555 1_555
H39 C77 1_555 1_555
C78 C77 1_555 1_555
H40 C78 1_555 1_555
C79 C74 1_555 1_555
C80 O51 1_555 1_555
C81 O37 1_555 1_555
C82 C81 1_555 1_555
C83 C82 1_555 1_555
H41 C83 1_555 1_555
C84 C83 1_555 1_555
H42 C84 1_555 1_555
C85 C84 1_555 1_555
H43 C85 1_555 1_555
C86 C85 1_555 1_555
H44 C86 1_555 1_555
C87 C82 1_555 1_555
C88 C87 1_555 1_555
C89 O41 1_555 1_555
C90 C89 1_555 1_555
C91 C90 1_555 1_555
H45 C91 1_555 1_555
C92 C91 1_555 1_555
H46 C92 1_555 1_555
C93 C92 1_555 1_555
H47 C93 1_555 1_555
C94 C93 1_555 1_555
H48 C94 1_555 1_555
C95 C90 1_555 1_555
C96 O43 1_555 1_555
C97 H49 1_555 1_555
C98 C97 1_555 1_555
H50 C98 1_555 1_555
C99 N1 1_555 1_555
H51 C99 1_555 1_555
C100 N2 1_555 1_555
C101 C100 1_555 1_555
H52 C101 1_555 1_555
C102 C101 1_555 1_555
H53 C102 1_555 1_555
C103 C102 1_555 1_555
C104 C103 1_555 1_555
H54 C104 1_555 1_555
C105 C100 1_555 1_555
H55 C105 1_555 1_555
C106 C103 1_555 1_555
C107 C106 1_555 1_555
H56 C107 1_555 1_555
C108 C107 1_555 1_555
H57 C108 1_555 1_555
C109 C108 1_555 1_555
C110 C109 1_555 1_555
H58 C110 1_555 1_555
C111 C106 1_555 1_555
H59 C111 1_555 1_555
C112 N3 1_555 1_555
H60 C112 1_555 1_555
C113 N4 1_555 1_555
H61 C113 1_555 1_555
C114 N3 1_555 1_555
H62 C114 1_555 1_555
C115 N5 1_555 1_555
H63 C115 1_555 1_555
C116 C115 1_555 1_555
H64 C116 1_555 1_555
C117 N5 1_555 1_555
H65 C117 1_555 1_555
C118 N6 1_555 1_555
C119 C118 1_555 1_555
H66 C119 1_555 1_555
C120 C119 1_555 1_555
H67 C120 1_555 1_555
C121 C120 1_555 1_555
C122 C121 1_555 1_555
H68 C122 1_555 1_555
C123 C118 1_555 1_555
H69 C123 1_555 1_555
C124 C121 1_555 1_555
C125 C124 1_555 1_555
H70 C125 1_555 1_555
C126 C125 1_555 1_555
H71 C126 1_555 1_555
C127 C126 1_555 1_555
C128 C127 1_555 1_555
H72 C128 1_555 1_555
C129 C124 1_555 1_555
H73 C129 1_555 1_555
C130 N7 1_555 1_555
H74 C130 1_555 1_555
C131 N8 1_555 1_555
H75 C131 1_555 1_555
C132 N7 1_555 1_555
H76 C132 1_555 1_555
C133 N9 1_555 1_555
H77 C133 1_555 1_555
C134 N10 1_555 1_555
H78 C134 1_555 1_555
C135 N9 1_555 1_555
H79 C135 1_555 1_555
C136 N10 1_555 1_555
C137 C136 1_555 1_555
H80 C137 1_555 1_555
C138 C137 1_555 1_555
H81 C138 1_555 1_555
C139 C138 1_555 1_555
C140 C139 1_555 1_555
H82 C140 1_555 1_555
C141 C136 1_555 1_555
H83 C141 1_555 1_555
C142 C139 1_555 1_555
C143 C142 1_555 1_555
H84 C143 1_555 1_555
C144 C143 1_555 1_555
H85 C144 1_555 1_555
C145 C144 1_555 1_555
C146 C145 1_555 1_555
H86 C146 1_555 1_555
C147 C142 1_555 1_555
H87 C147 1_555 1_555
C148 N11 1_555 1_555
H88 C148 1_555 1_555
C149 C148 1_555 1_555
H89 C149 1_555 1_555
C150 N11 1_555 1_555
H90 C150 1_555 1_555
C151 N13 1_555 1_555
H91 C151 1_555 1_555
C152 N13 1_555 1_555
H92 C152 1_555 1_555
C153 N14 1_555 1_555
H93 C153 1_555 1_555
C154 N14 1_555 1_555
C155 C154 1_555 1_555
H94 C155 1_555 1_555
C156 C155 1_555 1_555
H95 C156 1_555 1_555
C157 C156 1_555 1_555
C158 C157 1_555 1_555
H96 C158 1_555 1_555
C159 C154 1_555 1_555
H97 C159 1_555 1_555
C160 C157 1_555 1_555
C161 C160 1_555 1_555
H98 C161 1_555 1_555
C162 C161 1_555 1_555
H99 C162 1_555 1_555
C163 C162 1_555 1_555
C164 C163 1_555 1_555
H100 C164 1_555 1_555
C165 C160 1_555 1_555
H101 C165 1_555 1_555
C166 N15 1_555 1_555
H102 C166 1_555 1_555
C167 C166 1_555 1_555
H103 C167 1_555 1_555
C168 N15 1_555 1_555
H104 C168 1_555 1_555
Cu1A O1A 1_555 1_555
Cu3A O9 1_555 1_555
Cu4A O19 1_555 1_555
Cu6_2 N1 1_555 1_555
Cu6A O23 1_555 1_555
Cu8_2 O5 1_555 1_555
Cu9_2 O29 1_555 1_555
Cu11_2 O31 1_555 1_555
Cu12_2 O31 1_555 1_555
Cu14_2 N16 1_555 1_555
Cu15A O40 1_555 1_555
Cu15A_2 N12 1_555 1_555
Cu16A O39 1_555 1_555
O1A Cu1 1_555 1_555
O2A Cu6 1_555 1_555
O5_2 Cu8 1_555 1_555
O8A Cu16 1_555 1_555
O9A Cu3 1_555 1_555
O10A Cu3 1_555 1_555
O17A Cu3 1_555 1_555
O19A Cu4 1_555 1_555
O23A Cu6 1_555 1_555
O25A Cu6 1_555 1_555
O28_2 Cu8 1_555 1_555
O29_2 Cu9 1_555 1_555
O31_2 Cu11 1_555 1_555
O34_2 Cu8 1_555 1_555
O39A Cu16 1_555 1_555
O40A Cu15 1_555 1_555
O52A Cu16 1_555 1_555
N1_2 Cu6 1_555 1_555
N12A Cu15 1_555 1_555
N16_2 Cu14 1_555 1_555
Cu4 O55 1_555 1_555
Cu5 O3 1_555 1_555
Cu9 O5 1_555 1_555
Cu10 O22 1_555 1_555
Cu12 O31_2 1_555 1_555
Cu14 O49 1_555 1_555
O10 Cu3A 1_555 1_555
O12 C8 1_555 1_555
O14 C25 1_555 1_555
O16 C32 1_555 1_555
O17 Cu3A 1_555 1_555
O25 Cu6A 1_555 1_555
O28 Cu8_2 1_555 1_555
O34 Cu8_2 1_555 1_555
O36 C64 1_555 1_555
O38 C81 1_555 1_555
O42 C89 1_555 1_555
O44 C96 1_555 1_555
O46 C65 1_555 1_555
O48 C72 1_555 1_555
O52 Cu16A 1_555 1_555
O54 C9 1_555 1_555
N2 C99 1_555 1_555
N4 C114 1_555 1_555
N6 C117 1_555 1_555
N8 C132 1_555 1_555
N12 C150 1_555 1_555
N16 C168 1_555 1_555
C6 C7 1_555 1_555
C7 C8 1_555 1_555
C14 C15 1_555 1_555
C15 C16 1_555 1_555
C22 C23 1_555 1_555
C30 C31 1_555 1_555
C31 C32 1_555 1_555
C38 C39 1_555 1_555
C39 C40 1_555 1_555
C46 C47 1_555 1_555
C47 C48 1_555 1_555
C54 C55 1_555 1_555
C62 C63 1_555 1_555
C63 C64 1_555 1_555
C70 C71 1_555 1_555
C71 C72 1_555 1_555
C78 C79 1_555 1_555
C79 C80 1_555 1_555
C86 C87 1_555 1_555
C94 C95 1_555 1_555
C95 C96 1_555 1_555
C104 C105 1_555 1_555
C110 C111 1_555 1_555
C112 C113 1_555 1_555
C122 C123 1_555 1_555
C128 C129 1_555 1_555
C130 C131 1_555 1_555
C134 C135 1_555 1_555
C140 C141 1_555 1_555
C146 C147 1_555 1_555
C152 C153 1_555 1_555
C158 C159 1_555 1_555
C164 C165 1_555 1_555
Cu1A O9A 1_555 1_555
Cu3A O1A 1_555 1_555
Cu4A O2A 1_555 1_555
Cu9_2 O5_2 1_555 1_555
Cu15A O8A 1_555 1_555
Cu16A O8A 1_555 1_555

#END
