
#######################################################################
#
#                 Cambridge Crystallographic Data Centre
#                                CCDC 
#
#######################################################################
#
# If this CIF has been generated from an entry in the Cambridge 
# Structural Database, then it will include bibliographic, chemical, 
# crystal, experimental, refinement or atomic coordinate data resulting 
# from the CCDC's data processing and validation procedures.
#
#######################################################################

data_DOLDUE
_symmetry_cell_setting           orthorhombic
_symmetry_space_group_name_H-M   'F d d 2'
_symmetry_Int_Tables_number      43
_space_group_name_Hall           'F 2 -2d'
loop_
_symmetry_equiv_pos_site_id
_symmetry_equiv_pos_as_xyz
1 x,y,z
2 -x,-y,z
3 1/4-x,1/4+y,1/4+z
4 3/4+x,3/4-y,1/4+z
5 x,1/2+y,1/2+z
6 -x,1/2-y,1/2+z
7 1/4-x,3/4+y,3/4+z
8 3/4+x,1/4-y,3/4+z
9 1/2+x,y,1/2+z
10 1/2-x,-y,1/2+z
11 3/4-x,1/4+y,3/4+z
12 1/4+x,3/4-y,3/4+z
13 1/2+x,1/2+y,z
14 1/2-x,1/2-y,z
15 3/4-x,3/4+y,1/4+z
16 1/4+x,1/4-y,1/4+z
_cell_length_a                   16.0031(11)
_cell_length_b                   18.874(2)
_cell_length_c                   7.3205(8)
_cell_angle_alpha                90
_cell_angle_beta                 90
_cell_angle_gamma                90
_cell_volume                     2211.1
loop_
_atom_site_label
_atom_site_type_symbol
_atom_site_fract_x
_atom_site_fract_y
_atom_site_fract_z
Cd1 Cd 0.5000 0.5000 0.87379(9)
N1 N 0.44172(13) 0.57992(12) 0.6311(4)
N2 N 0.35730(14) 0.67396(12) 0.6321(4)
N3 N 0.43147(14) 0.69515(13) 0.5536(4)
H1 H 0.4446 0.7364 0.5124
N4 N 0.55734(15) 0.63830(14) 0.4745(3)
N5 N 0.67440(16) 0.60440(14) 0.3466(4)
N6 N 0.66711(15) 0.67745(14) 0.3298(4)
C1 C 0.47693(17) 0.63811(16) 0.5565(4)
C2 C 0.36548(18) 0.60650(17) 0.6747(4)
C3 C 0.60808(19) 0.58299(18) 0.4341(4)
H2 H 0.5971 0.5361 0.4647
C4 C 0.59665(17) 0.69613(16) 0.4055(4)
H3 H 0.5764 0.7422 0.4113
H4 H 0.3268 0.5838 0.7349
Cd1G Cd 0.2500 0.7500 0.62379(9)
Cd1B Cd 0.7500 0.7500 0.12379(9)
Cd1F Cd 0.7500 0.2500 0.62379(9)
Cd1C Cd 0.2500 0.2500 0.12379(9)
N1A N 0.55828(13) 0.42008(12) 0.6311(4)
N2A N 0.64270(14) 0.32604(12) 0.6321(4)
N2N N 0.39270(14) 0.42396(12) 0.8821(4)
N2O N 0.60730(14) 0.57604(12) 0.8821(4)
N3A N 0.56853(14) 0.30485(13) 0.5536(4)
H1A H 0.5554 0.2636 0.5124
N4A N 0.44266(15) 0.36170(14) 0.4745(3)
N5A N 0.32560(16) 0.39560(14) 0.3466(4)
N6A N 0.33289(15) 0.32255(14) 0.3298(4)
N6F N 0.58289(15) 0.42745(14) 1.0798(4)
N6G N 0.41711(15) 0.57255(14) 1.0798(4)
C1A C 0.52307(17) 0.36189(16) 0.5565(4)
C2A C 0.63452(18) 0.39350(17) 0.6747(4)
C3A C 0.39192(19) 0.41701(18) 0.4341(4)
H2A H 0.4029 0.4639 0.4647
C4A C 0.40335(17) 0.30387(16) 0.4055(4)
H3A H 0.4236 0.2578 0.4113
H4A H 0.6732 0.4162 0.7349
loop_
_geom_bond_atom_site_label_1
_geom_bond_atom_site_label_2
_geom_bond_site_symmetry_1
_geom_bond_site_symmetry_2
Cd1 N1 1_555 1_555
N1 C1 1_555 1_555
N2 N3 1_555 1_555
N3 H1 1_555 1_555
N4 C1 1_555 1_555
N5 N6 1_555 1_555
N6 C4 1_555 1_555
C1 N3 1_555 1_555
C2 N1 1_555 1_555
C3 N4 1_555 1_555
H2 C3 1_555 1_555
C4 N4 1_555 1_555
H3 C4 1_555 1_555
H4 C2 1_555 1_555
Cd1G N2 1_555 1_555
Cd1B N6 1_555 1_555
Cd1F N2A 1_555 1_555
Cd1C N6A 1_555 1_555
N1A Cd1 1_555 1_555
N2A N3A 1_555 1_555
N2N Cd1 1_555 1_555
N2O Cd1 1_555 1_555
N3A H1A 1_555 1_555
N4A C1A 1_555 1_555
N5A N6A 1_555 1_555
N6A C4A 1_555 1_555
N6F Cd1 1_555 1_555
N6G Cd1 1_555 1_555
C1A N1A 1_555 1_555
C2A N1A 1_555 1_555
C3A N4A 1_555 1_555
H2A C3A 1_555 1_555
C4A N4A 1_555 1_555
H3A C4A 1_555 1_555
H4A C2A 1_555 1_555
N2 C2 1_555 1_555
N5 C3 1_555 1_555
N2A C2A 1_555 1_555
N3A C1A 1_555 1_555
N5A C3A 1_555 1_555

#END
