
#######################################################################
#
#                 Cambridge Crystallographic Data Centre
#                                CCDC 
#
#######################################################################
#
# If this CIF has been generated from an entry in the Cambridge 
# Structural Database, then it will include bibliographic, chemical, 
# crystal, experimental, refinement or atomic coordinate data resulting 
# from the CCDC's data processing and validation procedures.
#
#######################################################################

data_DOLDIS
_symmetry_cell_setting           triclinic
_symmetry_space_group_name_H-M   'P -1'
_symmetry_Int_Tables_number      2
_space_group_name_Hall           '-P 1'
loop_
_symmetry_equiv_pos_site_id
_symmetry_equiv_pos_as_xyz
1 x,y,z
2 -x,-y,-z
_cell_length_a                   7.3959(3)
_cell_length_b                   11.6846(5)
_cell_length_c                   19.2198(9)
_cell_angle_alpha                72.4397(18)
_cell_angle_beta                 87.4181(16)
_cell_angle_gamma                86.092(2)
_cell_volume                     1579.33
loop_
_atom_site_label
_atom_site_type_symbol
_atom_site_fract_x
_atom_site_fract_y
_atom_site_fract_z
Mn1 Mn -0.39143(6) 0.00513(4) 0.18931(2)
Mn2 Mn -1.06370(6) -0.01470(4) 0.31388(2)
C1 C -0.5344(4) 0.2583(3) 0.08002(19)
H1 H -0.5877 0.2691 0.1225
C2 C -0.5524(5) 0.3515(3) 0.0163(2)
H2 H -0.6191 0.4223 0.0155
C3 C -0.4697(5) 0.3370(3) -0.0456(2)
H3 H -0.4769 0.3987 -0.0895
C4 C -0.3749(5) 0.2294(3) -0.04243(19)
H4 H -0.3166 0.2181 -0.0839
C5 C -0.3681(4) 0.1398(3) 0.02256(18)
C6 C -0.2775(4) 0.0189(3) 0.03076(17)
C7 C -0.1208(4) -0.2319(3) 0.15623(19)
H5 H -0.1319 -0.2044 0.1970
C8 C -0.0398(4) -0.3534(3) 0.16384(19)
C9 C -0.0400(4) -0.4040(3) 0.1070(2)
H6 H -0.0864 -0.3591 0.0621
C10 C 0.0282(5) -0.5203(3) 0.1166(2)
H7 H 0.0262 -0.5533 0.0783
C11 C 0.0979(5) -0.5869(3) 0.1811(2)
H8 H 0.1385 -0.6665 0.1878
C12 C 0.1087(6) -0.5364(4) 0.2369(2)
H9 H 0.1638 -0.5802 0.2802
C13 C 0.0371(5) -0.4203(3) 0.2284(2)
H10 H 0.0412 -0.3874 0.2667
C14 C -0.9266(4) -0.2663(3) 0.4292(2)
H11 H -0.8644 -0.2783 0.3886
C15 C -0.9174(5) -0.3571(3) 0.4939(2)
H12 H -0.8488 -0.4282 0.4972
C16 C -1.0108(5) -0.3410(3) 0.5533(2)
H13 H -1.0081 -0.4013 0.5978
C17 C -1.1105(5) -0.2328(3) 0.5461(2)
H14 H -1.1766 -0.2198 0.5856
C18 C -1.1095(4) -0.1455(3) 0.47979(18)
C19 C -1.2071(4) -0.0263(3) 0.46849(18)
C20 C -1.3127(4) 0.2345(3) 0.33833(18)
H15 H -1.2690 0.2142 0.2972
C21 C -1.3935(4) 0.3559(3) 0.33075(19)
C22 C -1.3913(5) 0.4418(3) 0.2634(2)
H16 H -1.3454 0.4211 0.2226
C23 C -1.4575(5) 0.5594(4) 0.2559(2)
H17 H -1.4545 0.6171 0.2104
C24 C -1.5268(5) 0.5899(4) 0.3154(3)
H18 H -1.5738 0.6678 0.3105
C25 C -1.5264(5) 0.5057(4) 0.3814(2)
H19 H -1.5712 0.5272 0.4220
C26 C -1.4612(5) 0.3886(3) 0.3904(2)
H20 H -1.4630 0.3322 0.4364
N1 N -1.0201(3) -0.1618(2) 0.42134(14)
N2 N -1.2133(3) 0.0463(2) 0.40171(14)
N3 N -1.3024(3) 0.1580(2) 0.40016(15)
N4 N -1.2826(3) 0.0015(2) 0.52627(14)
H21 H -1.3392 0.0703 0.5206
H22 H -1.2746 -0.0495 0.5691
N5 N -0.8386(3) 0.1007(2) 0.31698(15)
N6 N -0.7050(4) 0.1063(2) 0.28015(15)
N7 N -0.5729(4) 0.1161(3) 0.24399(17)
N8 N -0.1479(3) 0.0979(2) 0.20485(15)
N9 N -0.0550(4) 0.1451(3) 0.15223(17)
N10 N 0.0301(4) 0.1912(3) 0.10108(18)
N11 N -0.3052(3) -0.1111(2) 0.29696(15)
N12 N -0.4035(4) -0.1501(2) 0.34977(17)
N13 N -0.4927(4) -0.1884(3) 0.40135(18)
N14 N -0.6236(3) -0.1036(2) 0.18312(14)
N15 N -0.7489(4) -0.1140(2) 0.22467(15)
N16 N -0.8734(3) -0.1285(3) 0.26511(17)
N17 N -0.4454(3) 0.1540(2) 0.08440(14)
N18 N -0.2540(3) -0.0520(2) 0.09678(14)
N19 N -0.1753(3) -0.1643(2) 0.09569(14)
N20 N -0.2263(3) -0.0088(2) -0.02933(14)
H23 H -0.1734 -0.0779 -0.0263
H24 H -0.2460 0.0423 -0.0714
Mn2_2 Mn -0.06370(6) -0.01470(4) 0.31388(2)
N8_2 N -1.1479(3) 0.0979(2) 0.20485(15)
N11_2 N -1.3052(3) -0.1111(2) 0.29696(15)
loop_
_geom_bond_atom_site_label_1
_geom_bond_atom_site_label_2
_geom_bond_site_symmetry_1
_geom_bond_site_symmetry_2
Mn1 N7 1_555 1_555
Mn2 N1 1_555 1_555
C1 H1 1_555 1_555
C2 C1 1_555 1_555
H2 C2 1_555 1_555
C3 C2 1_555 1_555
H3 C3 1_555 1_555
C4 C3 1_555 1_555
H4 C4 1_555 1_555
C5 C4 1_555 1_555
C6 C5 1_555 1_555
C7 H5 1_555 1_555
C8 C7 1_555 1_555
C9 C8 1_555 1_555
H6 C9 1_555 1_555
C10 C9 1_555 1_555
H7 C10 1_555 1_555
C11 C10 1_555 1_555
H8 C11 1_555 1_555
C12 C11 1_555 1_555
H9 C12 1_555 1_555
C13 C8 1_555 1_555
H10 C13 1_555 1_555
C14 H11 1_555 1_555
C15 C14 1_555 1_555
H12 C15 1_555 1_555
C16 C15 1_555 1_555
H13 C16 1_555 1_555
C17 C16 1_555 1_555
H14 C17 1_555 1_555
C18 C17 1_555 1_555
C19 C18 1_555 1_555
C20 H15 1_555 1_555
C21 C20 1_555 1_555
C22 C21 1_555 1_555
H16 C22 1_555 1_555
C23 C22 1_555 1_555
H17 C23 1_555 1_555
C24 C23 1_555 1_555
H18 C24 1_555 1_555
C25 C24 1_555 1_555
H19 C25 1_555 1_555
C26 C21 1_555 1_555
H20 C26 1_555 1_555
N1 C14 1_555 1_555
N2 Mn2 1_555 1_555
N3 C20 1_555 1_555
N4 C19 1_555 1_555
H21 N4 1_555 1_555
H22 N4 1_555 1_555
N5 Mn2 1_555 1_555
N6 N5 1_555 1_555
N7 N6 1_555 1_555
N8 Mn1 1_555 1_555
N9 N8 1_555 1_555
N10 N9 1_555 1_555
N11 Mn1 1_555 1_555
N12 N11 1_555 1_555
N13 N12 1_555 1_555
N14 Mn1 1_555 1_555
N15 N14 1_555 1_555
N16 Mn2 1_555 1_555
N17 Mn1 1_555 1_555
N18 Mn1 1_555 1_555
N19 C7 1_555 1_555
N20 C6 1_555 1_555
H23 N20 1_555 1_555
H24 N20 1_555 1_555
Mn2_2 N8 1_555 1_555
N8_2 Mn2 1_555 1_555
N11_2 Mn2 1_555 1_555
C1 N17 1_555 1_555
C5 N17 1_555 1_555
C6 N18 1_555 1_555
C12 C13 1_555 1_555
C18 N1 1_555 1_555
C19 N2 1_555 1_555
C25 C26 1_555 1_555
N2 N3 1_555 1_555
N11 Mn2_2 1_555 1_555
N15 N16 1_555 1_555
N18 N19 1_555 1_555

#END
