
#######################################################################
#
#                 Cambridge Crystallographic Data Centre
#                                CCDC 
#
#######################################################################
#
# If this CIF has been generated from an entry in the Cambridge 
# Structural Database, then it will include bibliographic, chemical, 
# crystal, experimental, refinement or atomic coordinate data resulting 
# from the CCDC's data processing and validation procedures.
#
#######################################################################

data_DOLMEY
_symmetry_cell_setting           monoclinic
_symmetry_space_group_name_H-M   'P 21/n'
_symmetry_Int_Tables_number      14
_space_group_name_Hall           '-P 2yn'
loop_
_symmetry_equiv_pos_site_id
_symmetry_equiv_pos_as_xyz
1 x,y,z
2 1/2-x,1/2+y,1/2-z
3 -x,-y,-z
4 1/2+x,1/2-y,1/2+z
_cell_length_a                   9.1100(18)
_cell_length_b                   16.178(3)
_cell_length_c                   11.373(2)
_cell_angle_alpha                90
_cell_angle_beta                 98.99(3)
_cell_angle_gamma                90
_cell_volume                     1655.58
loop_
_atom_site_label
_atom_site_type_symbol
_atom_site_fract_x
_atom_site_fract_y
_atom_site_fract_z
Cu1 Cu 0.03873(5) 0.41837(3) 0.90604(5)
O1 O -0.1020(4) 0.3294(2) 0.7423(3)
H1 H -0.0803 0.2910 0.6969
H2 H -0.1168 0.3782 0.7155
V1 V -0.41291(7) 0.63514(4) 1.00135(6)
C1 C -0.2321(5) 0.1704(3) 1.1154(5)
H3 H -0.3127 0.1780 1.1554
O2 O -0.5607(4) 0.6018(2) 1.0777(3)
C2 C -0.2001(6) 0.0922(3) 1.0571(6)
H4 H -0.1176 0.0883 1.0184
H5 H -0.2624 0.0468 1.0590
V2 V -0.33533(7) 0.47348(4) 0.85355(6)
C3 C 0.0135(5) 0.2467(3) 1.1746(4)
H6 H 0.0495 0.2174 1.2434
O3 O -0.4403(4) 0.73149(19) 0.9624(3)
N1 N -0.1204(4) 0.2356(2) 1.1029(4)
O4 O -0.4145(3) 0.5737(2) 0.8694(3)
N2 N -0.0047(4) 0.3348(2) 1.0228(3)
C4 C 0.0834(5) 0.3090(3) 1.1256(4)
H7 H 0.1759 0.3306 1.1566
O5 O -0.3444(4) 0.4500(2) 0.7145(3)
C5 C -0.1268(5) 0.2893(3) 1.0135(4)
H8 H -0.2068 0.2942 0.9522
C6 C 0.3940(6) 0.6343(4) 0.5960(5)
H9 H 0.3792 0.5819 0.5623
H10 H 0.4681 0.6684 0.5753
C7 C 0.2995(5) 0.6633(3) 0.6828(5)
H11 H 0.3094 0.7149 0.7192
O6 O -0.1567(3) 0.47210(18) 0.9180(3)
N3 N 0.1884(4) 0.6015(2) 0.7051(3)
C8 C 0.0556(5) 0.5862(3) 0.6325(4)
H12 H 0.0185 0.6134 0.5622
N4 N 0.0800(4) 0.5004(2) 0.7880(3)
O7 O 0.2473(3) 0.3766(2) 0.9161(3)
C9 C -0.0104(5) 0.5235(3) 0.6837(4)
H13 H -0.1016 0.4998 0.6537
C10 C 0.1978(5) 0.5491(3) 0.7961(4)
H14 H 0.2775 0.5471 0.8580
Cu1B Cu -0.03873(5) 0.58163(3) 1.09396(5)
V1B V 0.41291(7) 0.36486(4) 0.99865(6)
O2B O -0.4393(4) 0.3982(2) 0.9223(3)
V2B V -0.66467(7) 0.52652(4) 1.14645(6)
O6B O 0.1567(3) 0.52790(18) 1.0820(3)
O7B O -0.2473(3) 0.6234(2) 1.0839(3)
loop_
_geom_bond_atom_site_label_1
_geom_bond_atom_site_label_2
_geom_bond_site_symmetry_1
_geom_bond_site_symmetry_2
Cu1 O1 1_555 1_555
O1 H1 1_555 1_555
H2 O1 1_555 1_555
V1 O2 1_555 1_555
C1 H3 1_555 1_555
O2 V2B 1_555 1_555
C2 C1 1_555 1_555
H4 C2 1_555 1_555
H5 C2 1_555 1_555
V2 O4 1_555 1_555
C3 H6 1_555 1_555
O3 V1 1_555 1_555
N1 C1 1_555 1_555
O4 V1 1_555 1_555
N2 Cu1 1_555 1_555
C4 C3 1_555 1_555
H7 C4 1_555 1_555
O5 V2 1_555 1_555
C5 N1 1_555 1_555
H8 C5 1_555 1_555
C6 H9 1_555 1_555
H10 C6 1_555 1_555
C7 C6 1_555 1_555
H11 C7 1_555 1_555
O6 Cu1 1_555 1_555
N3 C7 1_555 1_555
C8 N3 1_555 1_555
H12 C8 1_555 1_555
N4 Cu1 1_555 1_555
O7 Cu1 1_555 1_555
C9 C8 1_555 1_555
H13 C9 1_555 1_555
C10 N3 1_555 1_555
H14 C10 1_555 1_555
Cu1B O6 1_555 1_555
V1B O7 1_555 1_555
O2B V2 1_555 1_555
O6B Cu1 1_555 1_555
O7B V1 1_555 1_555
V2 O6 1_555 1_555
C3 N1 1_555 1_555
N2 C4 1_555 1_555
N2 C5 1_555 1_555
N4 C9 1_555 1_555
N4 C10 1_555 1_555
Cu1B O6B 1_555 1_555
Cu1B O7B 1_555 1_555

#END
