
#######################################################################
#
#                 Cambridge Crystallographic Data Centre
#                                CCDC 
#
#######################################################################
#
# If this CIF has been generated from an entry in the Cambridge 
# Structural Database, then it will include bibliographic, chemical, 
# crystal, experimental, refinement or atomic coordinate data resulting 
# from the CCDC's data processing and validation procedures.
#
#######################################################################

data_DOLPUR
_symmetry_cell_setting           monoclinic
_symmetry_space_group_name_H-M   'P 21/c'
_symmetry_Int_Tables_number      14
_space_group_name_Hall           '-P 2ybc'
loop_
_symmetry_equiv_pos_site_id
_symmetry_equiv_pos_as_xyz
1 x,y,z
2 -x,1/2+y,1/2-z
3 -x,-y,-z
4 x,1/2-y,1/2+z
_cell_length_a                   19.8290(2)
_cell_length_b                   14.3210(2)
_cell_length_c                   28.6903(3)
_cell_angle_alpha                90
_cell_angle_beta                 91.0550(10)
_cell_angle_gamma                90
_cell_volume                     8145.84
loop_
_atom_site_label
_atom_site_type_symbol
_atom_site_fract_x
_atom_site_fract_y
_atom_site_fract_z
N25 N 0.9089(6) 1.2896(8) 0.3512(4)
C64 C 0.8331(9) 1.2741(15) 0.3527(8)
H64 H 0.8135 1.2859 0.3224
H65 H 0.8139 1.3158 0.3750
H66 H 0.8242 1.2107 0.3616
O15 O 1.0065(17) 1.313(2) 0.3324(12)
C65 C 0.9523(16) 1.3049(16) 0.3116(9)
C66 C 0.9593(14) 1.2783(18) 0.3908(9)
H67 H 1.0037 1.2922 0.3799
H68 H 0.9581 1.2152 0.4020
H69 H 0.9483 1.3203 0.4156
C67 C 0.9057(16) 1.3106(19) 0.2708(11)
H70 H 0.9311 1.3202 0.2430
H71 H 0.8751 1.3619 0.2748
H72 H 0.8805 1.2535 0.2680
O16 O 0.8292(8) 1.3408(12) 0.4770(6)
N26 N 0.8058(11) 1.5289(15) 0.4904(12)
C68 C 0.8135(8) 1.4017(12) 0.5503(5)
H73 H 0.8409 1.3495 0.5598
H74 H 0.7668 1.3859 0.5532
H75 H 0.8240 1.4544 0.5698
C69 C 0.8279(14) 1.4258(17) 0.4997(7)
C70 C 0.8141(11) 1.5026(19) 0.4370(10)
H76 H 0.8226 1.4368 0.4342
H77 H 0.8512 1.5368 0.4245
H78 H 0.7735 1.5182 0.4200
C71 C 0.7920(17) 1.621(3) 0.513(2)
H79 H 0.7903 1.6122 0.5464
H80 H 0.7496 1.6447 0.5019
H81 H 0.8274 1.6639 0.5060
Ni1 Ni 0.77885(3) 1.01883(5) 0.18785(3)
Ni2 Ni 0.56296(3) 1.25168(5) 0.09287(2)
Ni3 Ni 0.64205(4) 1.32371(5) 0.29200(2)
Ni4 Ni 0.83457(3) 1.41858(5) 0.13997(2)
Ni5 Ni 0.70489(3) 1.25120(4) 0.17827(2)
O1 O 0.4857(3) 1.1562(5) 0.08639(19)
O2 O 1.00457(17) 0.9906(3) 0.38409(13)
O3 O 0.59502(16) 1.4570(2) 0.30073(11)
O4 O 0.82387(16) 1.9154(2) 0.14526(11)
O5 O 0.67640(16) 1.3393(2) 0.36286(10)
O6 O 0.57751(17) 1.2778(2) 0.34507(10)
O7 O 0.87928(16) 1.4319(2) 0.07545(11)
H1 H 0.8709 1.3830 0.0582
H2 H 0.9230 1.4373 0.0786
O8 O 1.07243(15) 0.9387(2) 0.32779(11)
O9 O 0.74650(15) 1.8784(2) 0.19648(12)
O10 O 0.3958(4) 1.2352(5) 0.0602(2)
N1 N 0.5250(3) 1.5253(5) 0.2539(2)
N2 N 0.81769(19) 1.5652(3) 0.13906(14)
N3 N 0.54918(17) 1.2630(3) 0.16415(12)
N4 N 0.63848(17) 1.3495(2) 0.09499(11)
N5 N 0.83058(18) 1.1320(2) 0.16585(13)
N6 N 0.85983(19) 0.9947(3) 0.23864(15)
N7 N 0.70075(18) 1.0475(3) 0.13983(13)
N8 N 0.62621(17) 1.1390(2) 0.10442(12)
N9 N 0.68721(18) 1.1939(3) 0.28296(12)
N10 N 0.72664(18) 1.0802(2) 0.23992(13)
N11 N 0.71711(18) 1.3889(3) 0.25914(12)
N12 N 0.79305(18) 1.4185(2) 0.20582(12)
N13 N 0.58049(19) 1.2590(3) 0.51945(12)
N14 N 0.58116(17) 1.2952(2) 0.23650(11)
N15 N 0.85120(17) 1.2764(3) 0.14450(13)
N16 N 0.60148(16) 1.2782(2) 0.19332(11)
N17 N 0.74225(17) 1.4011(2) 0.10690(12)
N18 N 0.80567(17) 1.2176(2) 0.16157(12)
N19 N 0.67394(16) 1.1332(2) 0.13791(11)
N20 N 0.70794(16) 1.1690(2) 0.24065(12)
N21 N 0.69537(16) 1.3394(2) 0.11966(11)
N22 N 0.74129(16) 1.3647(2) 0.21763(11)
C1 C 0.5389(4) 1.4949(5) 0.2898(3)
C2 C 0.4826(4) 1.5076(5) 0.3224(3)
H3 H 0.4455 1.5376 0.3065
H4 H 0.4974 1.5457 0.3482
H5 H 0.4684 1.4478 0.3338
C3 C 0.6950(4) 1.0133(4) 0.3759(2)
H6 H 0.6885 1.0017 0.4074
C4 C 0.5819(3) 1.5214(5) 0.2158(2)
H7 H 0.5651 1.5481 0.1872
H8 H 0.5946 1.4576 0.2106
H9 H 0.6206 1.5561 0.2267
C5 C 1.0054(3) 1.0882(4) 0.1314(3)
H10 H 1.0391 1.0433 0.1291
C6 C 0.9453(3) 0.9043(4) 0.2776(2)
H11 H 0.9687 0.8481 0.2798
C7 C 0.7181(4) 0.9406(4) 0.3473(2)
H12 H 0.7249 0.8817 0.3601
C8 C 0.9721(3) 1.2504(4) 0.1199(2)
H13 H 0.9812 1.3109 0.1100
C9 C 0.5876(3) 0.9305(4) 0.0344(2)
H14 H 0.5608 0.9069 0.0102
C10 C 0.6341(4) 0.8717(4) 0.0562(3)
H15 H 0.6378 0.8103 0.0460
C11 C 0.7946(3) 1.5891(5) 0.3207(2)
H16 H 0.7927 1.6268 0.3470
C12 C 0.6308(3) 1.5359(4) 0.0059(2)
H17 H 0.6035 1.5657 -0.0162
C13 C 0.3782(3) 1.2680(5) 0.2143(2)
H18 H 0.3324 1.2605 0.2080
C14 C 0.6976(3) 1.5673(4) 0.0128(2)
H19 H 0.7130 1.6169 -0.0050
C15 C 0.7490(3) 1.5175(4) 0.31539(18)
H20 H 0.7164 1.5056 0.3376
C16 C 1.0195(3) 1.1810(4) 0.1179(3)
H21 H 1.0624 1.1954 0.1073
C17 C 0.8442(3) 1.6069(4) 0.2873(2)
H22 H 0.8737 1.6565 0.2923
C18 C 0.8506(3) 1.5539(4) 0.24781(19)
H23 H 0.8843 1.5652 0.2264
C19 C 0.5315(2) 1.2514(3) 0.48686(16)
H24 H 0.4883 1.2361 0.4963
C20 C 0.9444(3) 1.0625(4) 0.1477(2)
H25 H 0.9351 1.0012 0.1561
C21 C 0.6819(3) 1.1015(4) 0.35843(19)
H26 H 0.6657 1.1489 0.3773
C22 C 0.9267(3) 1.0596(4) 0.3006(2)
H27 H 0.9366 1.1110 0.3194
C23 C 0.6578(2) 1.2971(4) 0.45898(16)
H28 H 0.7015 1.3127 0.4506
C24 C 0.8941(3) 0.9156(4) 0.2446(2)
H29 H 0.8831 0.8651 0.2255
C25 C 0.6048(3) 1.4627(4) 0.03076(18)
H30 H 0.5610 1.4416 0.0256
C26 C 0.8774(3) 1.0657(4) 0.2662(2)
H31 H 0.8552 1.1224 0.2621
C27 C 0.6747(4) 0.9017(4) 0.0924(3)
H32 H 0.7051 0.8616 0.1072
C28 C 0.5800(2) 1.0205(4) 0.04688(17)
H33 H 0.5488 1.0591 0.0319
C29 C 0.7308(3) 0.9545(4) 0.30080(19)
H34 H 0.7469 0.9067 0.2821
C30 C 0.8579(2) 1.7222(3) 0.13655(18)
H35 H 0.8921 1.7636 0.1289
C31 C 0.7474(2) 1.6901(3) 0.16437(18)
H36 H 0.7064 1.7097 0.1763
C32 C 0.7401(3) 1.5274(4) 0.04461(19)
H37 H 0.7844 1.5475 0.0486
C33 C 0.5423(3) 1.2655(4) 0.43965(16)
H38 H 0.5073 1.2582 0.4180
C34 C 0.8955(2) 1.1341(3) 0.15128(18)
C35 C 0.4229(2) 1.2562(5) 0.17864(19)
H39 H 0.4086 1.2408 0.1486
C36 C 0.3990(2) 1.2908(3) 0.25984(17)
H40 H 0.3666 1.2994 0.2825
C37 C 1.0173(2) 0.9684(3) 0.34322(18)
C38 C 0.7540(2) 1.4630(3) 0.27467(16)
C39 C 0.9611(2) 0.9772(3) 0.30698(18)
C40 C 0.6481(2) 1.4212(3) 0.06452(15)
C41 C 0.6686(2) 0.9956(3) 0.10628(18)
C42 C 0.6066(2) 1.2908(3) 0.42531(15)
C43 C 0.8032(2) 1.4812(3) 0.24147(16)
C44 C 0.7589(2) 1.5976(3) 0.15540(18)
H41 H 0.7245 1.5551 0.1609
C45 C 0.6427(2) 1.2798(3) 0.50512(15)
H42 H 0.6775 1.2829 0.5273
C46 C 0.7889(2) 1.8554(3) 0.16610(17)
C47 C 0.7181(2) 1.0442(3) 0.28314(16)
C48 C 0.6940(2) 1.1165(3) 0.31085(16)
C49 C 0.8654(2) 1.6273(3) 0.12959(17)
H43 H 0.9058 1.6057 0.1177
C50 C 0.6219(2) 1.0537(3) 0.08394(16)
C51 C 0.4920(2) 1.2689(3) 0.19041(15)
C52 C 0.9085(2) 1.2252(3) 0.13772(18)
C53 C 0.4658(2) 1.3007(3) 0.27191(15)
H44 H 0.4795 1.3143 0.3023
C54 C 0.7981(2) 1.7542(3) 0.15525(17)
C55 C 0.6210(2) 1.3049(3) 0.37469(15)
C56 C 0.7136(2) 1.4538(3) 0.07140(15)
C57 C 0.5125(2) 1.2893(3) 0.23611(14)
C58 C 0.4791(4) 1.4406(6) 0.1047(3)
H45 H 0.4477 1.4263 0.1288
H46 H 0.4607 1.4889 0.0850
H47 H 0.5208 1.4616 0.1186
C59 C 0.4233(4) 1.1649(6) 0.0757(2)
C60 C 0.3811(5) 1.0776(7) 0.0826(3)
H48 H 0.4093 1.0283 0.0946
H49 H 0.3613 1.0588 0.0533
H50 H 0.3461 1.0906 0.1043
C61 C 0.4579(4) 1.5619(6) 0.2317(3)
H51 H 0.4326 1.5103 0.2191
H52 H 0.4678 1.6051 0.2072
H53 H 0.4320 1.5928 0.2550
O11 O 0.4908(3) 1.3595(4) 0.07773(17)
H54 H 0.4524(13) 1.345(2) 0.065(2)
Ni1_2 Ni 0.77885(3) 2.01883(5) 0.18785(3)
Ni2C Ni 0.56296(3) 1.24832(5) 0.59287(2)
Ni4A Ni 1.16543(3) 0.91858(5) 0.36003(2)
O4_2 O 0.82387(16) 0.9154(2) 0.14526(11)
O8A O 0.92757(15) 1.4387(2) 0.17221(11)
O9_2 O 0.74650(15) 0.8784(2) 0.19648(12)
N13C N 0.58049(19) 1.2410(3) 0.01945(12)
C62? C 0.4454(7) 1.5588(12) 0.2507(7)
H55? H 0.4452 1.5256 0.2216
H56? H 0.4534 1.6239 0.2451
H57? H 0.4026 1.5512 0.2653
H58? H 0.4375 1.5295 0.3273
H59? H 0.5133 1.5405 0.3429
H60? H 0.4850 1.4419 0.3290
H61? H 0.5440 1.5495 0.2001
H62? H 0.5949 1.4658 0.1995
H63? H 0.6190 1.5646 0.2166
N23? N 0.4984(5) 1.5220(8) 0.2810(4)
C63? C 0.5610(6) 1.4939(8) 0.2702(4)
N24? N 0.4421(8) 1.2571(10) 0.0748(5)
O12? O 0.4761(6) 1.3311(8) 0.0799(3)
O13? O 0.4729(6) 1.1787(9) 0.0823(4)
O14? O 0.3811(8) 1.2602(11) 0.0635(5)
loop_
_geom_bond_atom_site_label_1
_geom_bond_atom_site_label_2
_geom_bond_site_symmetry_1
_geom_bond_site_symmetry_2
Ni1 N5 1_555 1_555
Ni2 O1 1_555 1_555
Ni3 O3 1_555 1_555
Ni4 O7 1_555 1_555
Ni5 N16 1_555 1_555
O1 C59 1_555 1_555
O2 C37 1_555 1_555
O3 C1 1_555 1_555
O4 C46 1_555 1_555
O5 Ni3 1_555 1_555
O6 Ni3 1_555 1_555
O7 H1 1_555 1_555
H2 O7 1_555 1_555
O8 C37 1_555 1_555
O9 C46 1_555 1_555
O10 C59 1_555 1_555
N1 C1 1_555 1_555
N2 Ni4 1_555 1_555
N3 Ni2 1_555 1_555
N4 Ni2 1_555 1_555
N5 N18 1_555 1_555
N6 Ni1 1_555 1_555
N7 Ni1 1_555 1_555
N8 Ni2 1_555 1_555
N9 Ni3 1_555 1_555
N10 Ni1 1_555 1_555
N11 Ni3 1_555 1_555
N12 Ni4 1_555 1_555
N13 C19 1_555 1_555
N14 Ni3 1_555 1_555
N15 Ni4 1_555 1_555
N16 N3 1_555 1_555
N17 Ni4 1_555 1_555
N18 Ni5 1_555 1_555
N19 Ni5 1_555 1_555
N20 Ni5 1_555 1_555
N21 Ni5 1_555 1_555
N22 Ni5 1_555 1_555
C1 C2 1_555 1_555
C2 H3 1_555 1_555
H4 C2 1_555 1_555
H5 C2 1_555 1_555
C3 H6 1_555 1_555
C4 N1 1_555 1_555
H7 C4 1_555 1_555
H8 C4 1_555 1_555
H9 C4 1_555 1_555
C5 H10 1_555 1_555
C6 H11 1_555 1_555
C7 C3 1_555 1_555
H12 C7 1_555 1_555
C8 H13 1_555 1_555
C9 H14 1_555 1_555
C10 C9 1_555 1_555
H15 C10 1_555 1_555
C11 H16 1_555 1_555
C12 H17 1_555 1_555
C13 H18 1_555 1_555
C14 C12 1_555 1_555
H19 C14 1_555 1_555
C15 C11 1_555 1_555
H20 C15 1_555 1_555
C16 C5 1_555 1_555
H21 C16 1_555 1_555
C17 C11 1_555 1_555
H22 C17 1_555 1_555
C18 C17 1_555 1_555
H23 C18 1_555 1_555
C19 H24 1_555 1_555
C20 C5 1_555 1_555
H25 C20 1_555 1_555
C21 C3 1_555 1_555
H26 C21 1_555 1_555
C22 H27 1_555 1_555
C23 H28 1_555 1_555
C24 N6 1_555 1_555
H29 C24 1_555 1_555
C25 C12 1_555 1_555
H30 C25 1_555 1_555
C26 N6 1_555 1_555
H31 C26 1_555 1_555
C27 C10 1_555 1_555
H32 C27 1_555 1_555
C28 C9 1_555 1_555
H33 C28 1_555 1_555
C29 C7 1_555 1_555
H34 C29 1_555 1_555
C30 H35 1_555 1_555
C31 H36 1_555 1_555
C32 C14 1_555 1_555
H37 C32 1_555 1_555
C33 C19 1_555 1_555
H38 C33 1_555 1_555
C34 N5 1_555 1_555
C35 C13 1_555 1_555
H39 C35 1_555 1_555
C36 C13 1_555 1_555
H40 C36 1_555 1_555
C37 C39 1_555 1_555
C38 N11 1_555 1_555
C39 C6 1_555 1_555
C40 N4 1_555 1_555
C41 N7 1_555 1_555
C42 C23 1_555 1_555
C43 N12 1_555 1_555
C44 N2 1_555 1_555
H41 C44 1_555 1_555
C45 N13 1_555 1_555
H42 C45 1_555 1_555
C46 C54 1_555 1_555
C47 N10 1_555 1_555
C48 N9 1_555 1_555
C49 N2 1_555 1_555
H43 C49 1_555 1_555
C50 N8 1_555 1_555
C51 N3 1_555 1_555
C52 N15 1_555 1_555
C53 C36 1_555 1_555
H44 C53 1_555 1_555
C54 C30 1_555 1_555
C55 O5 1_555 1_555
C56 N17 1_555 1_555
C57 N14 1_555 1_555
C58 H45 1_555 1_555
H46 C58 1_555 1_555
H47 C58 1_555 1_555
C59 C60 1_555 1_555
C60 H48 1_555 1_555
H49 C60 1_555 1_555
H50 C60 1_555 1_555
C61 N1 1_555 1_555
H51 C61 1_555 1_555
H52 C61 1_555 1_555
H53 C61 1_555 1_555
O11 Ni2 1_555 1_555
H54 O11 1_555 1_555
N25 C64 1_555 1_555
C64 H64 1_555 1_555
H65 C64 1_555 1_555
H66 C64 1_555 1_555
O15 C65 1_555 1_555
C65 N25 1_555 1_555
C66 N25 1_555 1_555
H67 C66 1_555 1_555
H68 C66 1_555 1_555
H69 C66 1_555 1_555
C67 C65 1_555 1_555
H70 C67 1_555 1_555
H71 C67 1_555 1_555
H72 C67 1_555 1_555
O16 C69 1_555 1_555
N26 C69 1_555 1_555
C68 H73 1_555 1_555
H74 C68 1_555 1_555
H75 C68 1_555 1_555
C69 C68 1_555 1_555
C70 N26 1_555 1_555
H76 C70 1_555 1_555
H77 C70 1_555 1_555
H78 C70 1_555 1_555
C71 N26 1_555 1_555
H79 C71 1_555 1_555
H80 C71 1_555 1_555
H81 C71 1_555 1_555
Ni1_2 O4 1_555 1_555
Ni2C N13 1_555 1_555
Ni4A O8 1_555 1_555
O4_2 Ni1 1_555 1_555
O8A Ni4 1_555 1_555
O9_2 Ni1 1_555 1_555
N13C Ni2 1_555 1_555
O6 C55 1_555 1_555
O9 Ni1_2 1_555 1_555
N4 N21 1_555 1_555
N7 N19 1_555 1_555
N8 N19 1_555 1_555
N9 N20 1_555 1_555
N10 N20 1_555 1_555
N11 N22 1_555 1_555
N12 N22 1_555 1_555
N14 N16 1_555 1_555
N15 N18 1_555 1_555
N17 N21 1_555 1_555
C6 C24 1_555 1_555
C8 C16 1_555 1_555
C8 C52 1_555 1_555
C15 C38 1_555 1_555
C18 C43 1_555 1_555
C20 C34 1_555 1_555
C21 C48 1_555 1_555
C22 C26 1_555 1_555
C22 C39 1_555 1_555
C23 C45 1_555 1_555
C25 C40 1_555 1_555
C27 C41 1_555 1_555
C28 C50 1_555 1_555
C29 C47 1_555 1_555
C30 C49 1_555 1_555
C31 C44 1_555 1_555
C31 C54 1_555 1_555
C32 C56 1_555 1_555
C33 C42 1_555 1_555
C34 C52 1_555 1_555
C35 C51 1_555 1_555
C38 C43 1_555 1_555
C40 C56 1_555 1_555
C41 C50 1_555 1_555
C42 C55 1_555 1_555
C47 C48 1_555 1_555
C51 C57 1_555 1_555
C53 C57 1_555 1_555
C58 O11 1_555 1_555

#END
