
#######################################################################
#
#                 Cambridge Crystallographic Data Centre
#                                CCDC 
#
#######################################################################
#
# If this CIF has been generated from an entry in the Cambridge 
# Structural Database, then it will include bibliographic, chemical, 
# crystal, experimental, refinement or atomic coordinate data resulting 
# from the CCDC's data processing and validation procedures.
#
#######################################################################

data_DOLSAA
_symmetry_cell_setting           monoclinic
_symmetry_space_group_name_H-M   'P 21/c'
_symmetry_Int_Tables_number      14
_space_group_name_Hall           '-P 2ybc'
loop_
_symmetry_equiv_pos_site_id
_symmetry_equiv_pos_as_xyz
1 x,y,z
2 -x,1/2+y,1/2-z
3 -x,-y,-z
4 x,1/2-y,1/2+z
_cell_length_a                   10.0299(13)
_cell_length_b                   21.642(3)
_cell_length_c                   8.5483(11)
_cell_angle_alpha                90
_cell_angle_beta                 97.937(2)
_cell_angle_gamma                90
_cell_volume                     1837.78
loop_
_atom_site_label
_atom_site_type_symbol
_atom_site_fract_x
_atom_site_fract_y
_atom_site_fract_z
Cu1 Cu 0.13677(3) 0.549424(15) 0.88507(4)
O1 O -0.04295(18) 0.58220(9) 0.8144(2)
O2 O -0.66589(19) 0.55052(9) 0.8637(2)
O3 O -0.1720(2) 0.51238(9) 0.9109(3)
O4 O -0.75149(19) 0.62541(9) 0.7062(3)
O5 O -0.3657(2) 0.73952(11) 0.5501(3)
H1 H -0.2881 0.7432 0.5250
O6 O -0.1176(2) 0.75371(9) 0.9243(3)
N1 N 0.1702(2) 0.62083(11) 1.0375(3)
N2 N 0.0831(2) 0.78499(11) 1.0520(3)
H2 H 0.1284 0.8179 1.0890
N3 N -0.1092(2) 0.97277(11) 0.7494(3)
C1 C 0.2693(3) 0.61753(14) 1.1580(4)
H3 H 0.3153 0.5794 1.1793
C2 C 0.1060(3) 0.67436(13) 1.0071(4)
H4 H 0.0347 0.6765 0.9216
C3 C 0.1395(3) 0.72687(13) 1.0960(4)
C4 C 0.2411(3) 0.72332(14) 1.2216(4)
H5 H 0.2654 0.7585 1.2858
C5 C 0.3070(3) 0.66764(14) 1.2524(4)
H6 H 0.3777 0.6641 1.3382
C6 C -0.1555(3) 0.56116(13) 0.8423(3)
C7 C -0.4986(3) 0.66721(13) 0.6600(4)
H7 H -0.5756 0.6904 0.6176
C8 C -0.5148(3) 0.61441(13) 0.7465(3)
C9 C -0.4032(3) 0.57979(13) 0.8065(3)
H8 H -0.4135 0.5432 0.8652
C10 C -0.2765(3) 0.59899(12) 0.7801(3)
C11 C -0.2613(3) 0.65260(13) 0.6958(4)
H9 H -0.1740 0.6660 0.6801
C12 C -0.0346(3) 0.79446(13) 0.9579(4)
C13 C -0.0596(3) 0.85840(13) 0.8925(4)
C14 C -0.1779(3) 0.87002(14) 0.7959(4)
H10 H -0.2442 0.8386 0.7763
C15 C -0.3729(3) 0.68659(14) 0.6347(4)
C16 C -0.6529(3) 0.59554(13) 0.7724(4)
C17 C 0.0333(3) 0.90594(13) 0.9182(4)
H11 H 0.1157 0.9001 0.9860
C18 C 0.0049(3) 0.96135(13) 0.8448(4)
H12 H 0.0698 0.9935 0.8626
C19 C -0.2003(3) 0.92707(14) 0.7276(4)
H13 H -0.2833 0.9345 0.6624
Cu1_2 Cu -0.86323(3) 0.549424(15) 0.88507(4)
Cu1A Cu -0.13677(3) 1.049424(15) 0.61493(4)
Cu1B Cu -0.13677(3) 0.450576(15) 1.11493(4)
O2_2 O 0.33411(19) 0.55052(9) 0.8637(2)
O3B O 0.1720(2) 0.48762(9) 1.0891(3)
O4_2 O 0.24851(19) 0.62541(9) 0.7062(3)
N3A N 0.1092(2) 0.47277(11) 0.7506(3)
loop_
_geom_bond_atom_site_label_1
_geom_bond_atom_site_label_2
_geom_bond_site_symmetry_1
_geom_bond_site_symmetry_2
Cu1 O1 1_555 1_555
O1 C6 1_555 1_555
O2 C16 1_555 1_555
O3 C6 1_555 1_555
O4 C16 1_555 1_555
O5 H1 1_555 1_555
O6 C12 1_555 1_555
N1 Cu1 1_555 1_555
N2 H2 1_555 1_555
N3 C18 1_555 1_555
C1 N1 1_555 1_555
H3 C1 1_555 1_555
C2 N1 1_555 1_555
H4 C2 1_555 1_555
C3 N2 1_555 1_555
C4 C3 1_555 1_555
H5 C4 1_555 1_555
C5 C1 1_555 1_555
H6 C5 1_555 1_555
C6 C10 1_555 1_555
C7 H7 1_555 1_555
C8 C7 1_555 1_555
C9 C8 1_555 1_555
H8 C9 1_555 1_555
C10 C9 1_555 1_555
C11 C10 1_555 1_555
H9 C11 1_555 1_555
C12 N2 1_555 1_555
C13 C12 1_555 1_555
C14 C13 1_555 1_555
H10 C14 1_555 1_555
C15 O5 1_555 1_555
C16 C8 1_555 1_555
C17 C13 1_555 1_555
H11 C17 1_555 1_555
C18 C17 1_555 1_555
H12 C18 1_555 1_555
C19 N3 1_555 1_555
H13 C19 1_555 1_555
Cu1_2 O2 1_555 1_555
Cu1A N3 1_555 1_555
Cu1B O3 1_555 1_555
O2_2 Cu1 1_555 1_555
O3B Cu1 1_555 1_555
O4_2 Cu1 1_555 1_555
N3A Cu1 1_555 1_555
O4 Cu1_2 1_555 1_555
C2 C3 1_555 1_555
C4 C5 1_555 1_555
C7 C15 1_555 1_555
C11 C15 1_555 1_555
C14 C19 1_555 1_555

#END
