
#######################################################################
#
#                 Cambridge Crystallographic Data Centre
#                                CCDC 
#
#######################################################################
#
# If this CIF has been generated from an entry in the Cambridge 
# Structural Database, then it will include bibliographic, chemical, 
# crystal, experimental, refinement or atomic coordinate data resulting 
# from the CCDC's data processing and validation procedures.
#
#######################################################################

data_DOLSUU
_symmetry_cell_setting           monoclinic
_symmetry_space_group_name_H-M   'I a'
_symmetry_Int_Tables_number      9
_space_group_name_Hall           'I -2ya'
loop_
_symmetry_equiv_pos_site_id
_symmetry_equiv_pos_as_xyz
1 x,y,z
2 1/2+x,-y,z
3 1/2+x,1/2+y,1/2+z
4 x,1/2-y,1/2+z
_cell_length_a                   10.0804(12)
_cell_length_b                   28.864(4)
_cell_length_c                   11.4871(14)
_cell_angle_alpha                90
_cell_angle_beta                 105.1980(10)
_cell_angle_gamma                90
_cell_volume                     3225.4
loop_
_atom_site_label
_atom_site_type_symbol
_atom_site_fract_x
_atom_site_fract_y
_atom_site_fract_z
Cu1 Cu -0.17429(4) -0.606979(12) -0.34036(3)
O1 O -0.0821(2) -0.66685(8) -0.4672(2)
O2 O 0.0233(2) -0.61459(8) -0.3326(2)
O3 O 0.5317(3) -0.58567(10) -0.2776(3)
O4 O 0.6286(2) -0.62154(8) -0.4059(2)
O5 O -0.2046(3) -0.55643(9) -0.1962(2)
H1 H -0.1933 -0.5255 -0.1947
H2 H -0.3008 -0.5589 -0.2209
O6 O -0.0327(3) -0.61102(9) -0.7238(3)
O7 O -0.3422(3) -0.77610(8) -0.3857(2)
N1 N -0.1842(3) -0.55409(10) -0.4628(3)
N2 N -0.0543(3) -0.53190(10) -0.7298(3)
H3 H -0.0394 -0.5071 -0.7690
N3 N 0.2228(4) -0.57059(11) -1.0241(3)
N4 N -0.1583(3) -0.65752(9) -0.2147(3)
N5 N -0.2234(3) -0.78258(10) -0.1875(3)
H4 H -0.1929 -0.8030 -0.1299
N6 N -0.4471(3) -0.93960(11) -0.2973(3)
C1 C -0.2469(4) -0.51407(12) -0.4561(3)
H5 H -0.2942 -0.5102 -0.3952
C2 C -0.2458(4) -0.47752(13) -0.5353(3)
H6 H -0.2887 -0.4489 -0.5265
C3 C -0.1820(4) -0.48357(12) -0.6260(3)
H7 H -0.1802 -0.4591 -0.6810
C4 C -0.1199(3) -0.52578(12) -0.6367(3)
C5 C -0.1220(4) -0.55990(12) -0.5519(3)
H8 H -0.0775 -0.5886 -0.5571
C6 C -0.0124(4) -0.57348(12) -0.7635(3)
C7 C 0.2461(4) -0.60235(13) -0.9352(4)
H9 H 0.3166 -0.6246 -0.9304
C8 C 0.1705(4) -0.60354(12) -0.8507(3)
H10 H 0.1885 -0.6265 -0.7892
C9 C 0.0676(4) -0.57074(12) -0.8568(3)
C10 C 0.0429(4) -0.53874(12) -0.9493(3)
H11 H -0.0272 -0.5161 -0.9567
C11 C 0.1228(4) -0.54021(13) -1.0315(3)
H12 H 0.1046 -0.5184 -1.0956
C12 C -0.2000(4) -0.70075(12) -0.2462(3)
H13 H -0.2412 -0.7076 -0.3287
C13 C -0.1843(3) -0.73618(11) -0.1601(3)
C14 C -0.1260(4) -0.72528(12) -0.0393(3)
H14 H -0.1144 -0.7485 0.0211
C15 C -0.0856(4) -0.68044(12) -0.0090(3)
H15 H -0.0471 -0.6722 0.0730
C16 C -0.1014(4) -0.64759(12) -0.0982(3)
H16 H -0.0710 -0.6169 -0.0767
C17 C -0.3035(4) -0.79911(12) -0.2936(3)
C18 C -0.4254(4) -0.91320(12) -0.1981(3)
H17 H -0.4462 -0.9261 -0.1289
C19 C -0.3750(4) -0.86868(12) -0.1900(3)
H18 H -0.3592 -0.8519 -0.1164
C20 C -0.3478(3) -0.84877(12) -0.2911(3)
C21 C -0.3716(4) -0.87507(13) -0.3952(3)
H19 H -0.3565 -0.8622 -0.4668
C22 C -0.4175(4) -0.92010(13) -0.3943(4)
H20 H -0.4287 -0.9382 -0.4653
C23 C 0.0241(3) -0.64621(11) -0.4116(3)
C24 C 0.1606(3) -0.65668(11) -0.4378(3)
C25 C 0.2780(4) -0.63179(12) -0.3845(3)
H21 H 0.2752 -0.6082 -0.3276
C26 C 0.4005(3) -0.64140(11) -0.4143(3)
C27 C 0.4027(4) -0.67699(12) -0.4961(3)
H22 H 0.4869 -0.6839 -0.5150
C28 C 0.2869(3) -0.70260(12) -0.5508(3)
C29 C 0.1643(4) -0.69110(11) -0.5209(3)
H23 H 0.0822 -0.7073 -0.5586
C30 C 0.2876(4) -0.74276(12) -0.6384(3)
C31 C 0.1646(5) -0.73904(15) -0.7477(4)
H24 H 0.0797 -0.7388 -0.7212
H25 H 0.1637 -0.7656 -0.8011
H26 H 0.1709 -0.7103 -0.7913
C32 C 0.4181(5) -0.74322(16) -0.6821(4)
H27 H 0.4235 -0.7146 -0.7263
H28 H 0.4160 -0.7699 -0.7354
H29 H 0.4985 -0.7456 -0.6125
C33 C 0.2808(5) -0.78858(13) -0.5721(4)
H30 H 0.3594 -0.7906 -0.5009
H31 H 0.2833 -0.8146 -0.6262
H32 H 0.1952 -0.7897 -0.5468
C34 C 0.5293(4) -0.61397(11) -0.3609(3)
Cu1_2 Cu 0.82571(4) -0.606979(12) -0.34036(3)
O4_2 O -0.3714(2) -0.62154(8) -0.4059(2)
O8 O 0.3732(3) -0.53316(10) -0.1724(3)
H33 H 0.418(4) -0.5498(12) -0.209(3)
H34 H 0.340(6) -0.5477(15) -0.124(4)
loop_
_geom_bond_atom_site_label_1
_geom_bond_atom_site_label_2
_geom_bond_site_symmetry_1
_geom_bond_site_symmetry_2
Cu1 O1 1_555 1_555
O1 C23 1_555 1_555
O2 Cu1 1_555 1_555
O3 C34 1_555 1_555
O4 C34 1_555 1_555
O5 Cu1 1_555 1_555
H1 O5 1_555 1_555
H2 O5 1_555 1_555
O6 C6 1_555 1_555
O7 C17 1_555 1_555
N1 Cu1 1_555 1_555
N2 H3 1_555 1_555
N3 C7 1_555 1_555
N4 Cu1 1_555 1_555
N5 H4 1_555 1_555
N6 C18 1_555 1_555
C1 N1 1_555 1_555
H5 C1 1_555 1_555
C2 C1 1_555 1_555
H6 C2 1_555 1_555
C3 C2 1_555 1_555
H7 C3 1_555 1_555
C4 N2 1_555 1_555
C5 N1 1_555 1_555
H8 C5 1_555 1_555
C6 N2 1_555 1_555
C7 H9 1_555 1_555
C8 C7 1_555 1_555
H10 C8 1_555 1_555
C9 C6 1_555 1_555
C10 C9 1_555 1_555
H11 C10 1_555 1_555
C11 N3 1_555 1_555
H12 C11 1_555 1_555
C12 N4 1_555 1_555
H13 C12 1_555 1_555
C13 N5 1_555 1_555
C14 C13 1_555 1_555
H14 C14 1_555 1_555
C15 C14 1_555 1_555
H15 C15 1_555 1_555
C16 N4 1_555 1_555
H16 C16 1_555 1_555
C17 N5 1_555 1_555
C18 H17 1_555 1_555
C19 C18 1_555 1_555
H18 C19 1_555 1_555
C20 C17 1_555 1_555
C21 C20 1_555 1_555
H19 C21 1_555 1_555
C22 N6 1_555 1_555
H20 C22 1_555 1_555
C23 O2 1_555 1_555
C24 C23 1_555 1_555
C25 C24 1_555 1_555
H21 C25 1_555 1_555
C26 C25 1_555 1_555
C27 C26 1_555 1_555
H22 C27 1_555 1_555
C28 C27 1_555 1_555
C29 C24 1_555 1_555
H23 C29 1_555 1_555
C30 C28 1_555 1_555
C31 C30 1_555 1_555
H24 C31 1_555 1_555
H25 C31 1_555 1_555
H26 C31 1_555 1_555
C32 C30 1_555 1_555
H27 C32 1_555 1_555
H28 C32 1_555 1_555
H29 C32 1_555 1_555
C33 C30 1_555 1_555
H30 C33 1_555 1_555
H31 C33 1_555 1_555
H32 C33 1_555 1_555
C34 C26 1_555 1_555
O8 H33 1_555 1_555
H34 O8 1_555 1_555
Cu1_2 O4 1_555 1_555
O4_2 Cu1 1_555 1_555
C3 C4 1_555 1_555
C4 C5 1_555 1_555
C8 C9 1_555 1_555
C10 C11 1_555 1_555
C12 C13 1_555 1_555
C15 C16 1_555 1_555
C19 C20 1_555 1_555
C21 C22 1_555 1_555
C28 C29 1_555 1_555

#END
