
#######################################################################
#
#                 Cambridge Crystallographic Data Centre
#                                CCDC 
#
#######################################################################
#
# If this CIF has been generated from an entry in the Cambridge 
# Structural Database, then it will include bibliographic, chemical, 
# crystal, experimental, refinement or atomic coordinate data resulting 
# from the CCDC's data processing and validation procedures.
#
#######################################################################

data_DOLSEE
_symmetry_cell_setting           triclinic
_symmetry_space_group_name_H-M   'P -1'
_symmetry_Int_Tables_number      2
_space_group_name_Hall           '-P 1'
loop_
_symmetry_equiv_pos_site_id
_symmetry_equiv_pos_as_xyz
1 x,y,z
2 -x,-y,-z
_cell_length_a                   8.506(5)
_cell_length_b                   10.114(3)
_cell_length_c                   11.567(3)
_cell_angle_alpha                114.459(3)
_cell_angle_beta                 102.154(4)
_cell_angle_gamma                98.935(4)
_cell_volume                     851.988
loop_
_atom_site_label
_atom_site_type_symbol
_atom_site_fract_x
_atom_site_fract_y
_atom_site_fract_z
Cu1 Cu 0.13839(3) 0.84667(3) 0.43466(3)
O1 O 0.6605(3) 1.3381(2) 1.10128(18)
O2 O 0.2122(2) 1.02238(17) 0.41248(16)
O3 O 0.10921(19) 1.20556(18) 0.53231(16)
O4 O 0.3540(2) 1.69337(17) 0.34000(16)
O5 O 0.16160(19) 1.65333(17) 0.43375(15)
N1 N 0.2534(2) 0.9555(2) 0.63425(19)
N2 N 0.5734(3) 1.2978(2) 0.8876(2)
H1 H 0.605(3) 1.321(3) 0.829(2)
N3 N 1.0075(2) 1.7356(2) 1.23494(19)
C1 C 1.0339(3) 1.7879(3) 1.1495(2)
H2 H 1.1183 1.8792 1.1819
C2 C 0.9427(3) 1.7137(3) 1.0161(2)
H3 H 0.9638 1.7539 0.9580
C3 C 0.8203(3) 1.5803(3) 0.9677(2)
H4 H 0.7553 1.5283 0.8763
C4 C 0.7942(3) 1.5239(3) 1.0545(2)
C5 C 0.8901(3) 1.6060(3) 1.1877(2)
H5 H 0.8715 1.5683 1.2478
C6 C 0.3745(3) 1.0864(2) 0.6964(2)
H6 H 0.4120 1.1294 0.6447
C7 C 0.4467(3) 1.1609(3) 0.8344(2)
C8 C 0.3889(3) 1.0994(3) 0.9104(2)
H7 H 0.4328 1.1491 1.0050
C9 C 0.2653(3) 0.9636(3) 0.8438(2)
H8 H 0.2245 0.9181 0.8927
C10 C 0.2018(3) 0.8947(3) 0.7074(2)
H9 H 0.1183 0.8009 0.6634
C11 C 0.6696(3) 1.3786(3) 1.0170(2)
C12 C 0.2725(3) 1.2498(2) 0.4018(2)
C13 C 0.3935(3) 1.2060(3) 0.3404(2)
H10 H 0.4184 1.1136 0.3282
C14 C 0.4772(3) 1.2960(3) 0.2974(2)
H11 H 0.5609 1.2665 0.2573
C15 C 0.4392(3) 1.4290(3) 0.3126(2)
H12 H 0.4978 1.4910 0.2835
C16 C 0.3159(3) 1.4729(2) 0.3701(2)
C17 C 0.2341(3) 1.3835(2) 0.4166(2)
H13 H 0.1520 1.4142 0.4584
C18 C 0.1898(3) 1.1541(2) 0.4546(2)
C19 C 0.2763(3) 1.6172(2) 0.3824(2)
Cu1_2 Cu 0.13839(3) 1.84667(3) 0.43466(3)
Cu1_3 Cu 1.13839(3) 1.84667(3) 1.43466(3)
Cu1A Cu -0.13839(3) 1.15333(3) 0.56534(3)
O3A O -0.10921(19) 0.79444(18) 0.46769(16)
O4_2 O 0.3540(2) 0.69337(17) 0.34000(16)
O5_2 O 0.16160(19) 0.65333(17) 0.43375(15)
N3_2 N 0.0075(2) 0.7356(2) 0.23494(19)
loop_
_geom_bond_atom_site_label_1
_geom_bond_atom_site_label_2
_geom_bond_site_symmetry_1
_geom_bond_site_symmetry_2
Cu1 O2 1_555 1_555
O1 C11 1_555 1_555
O2 C18 1_555 1_555
O3 C18 1_555 1_555
O4 C19 1_555 1_555
O5 C19 1_555 1_555
N1 Cu1 1_555 1_555
N2 H1 1_555 1_555
N3 C1 1_555 1_555
C1 H2 1_555 1_555
C2 C1 1_555 1_555
H3 C2 1_555 1_555
C3 C2 1_555 1_555
H4 C3 1_555 1_555
C4 C3 1_555 1_555
C5 N3 1_555 1_555
H5 C5 1_555 1_555
C6 N1 1_555 1_555
H6 C6 1_555 1_555
C7 N2 1_555 1_555
C8 C7 1_555 1_555
H7 C8 1_555 1_555
C9 C8 1_555 1_555
H8 C9 1_555 1_555
C10 N1 1_555 1_555
H9 C10 1_555 1_555
C11 N2 1_555 1_555
C12 C13 1_555 1_555
C13 H10 1_555 1_555
C14 C13 1_555 1_555
H11 C14 1_555 1_555
C15 C14 1_555 1_555
H12 C15 1_555 1_555
C16 C15 1_555 1_555
C17 C12 1_555 1_555
H13 C17 1_555 1_555
C18 C12 1_555 1_555
C19 C16 1_555 1_555
Cu1_2 O4 1_555 1_555
Cu1_3 N3 1_555 1_555
Cu1A O3 1_555 1_555
O3A Cu1 1_555 1_555
O4_2 Cu1 1_555 1_555
O5_2 Cu1 1_555 1_555
N3_2 Cu1 1_555 1_555
O5 Cu1_2 1_555 1_555
C4 C5 1_555 1_555
C4 C11 1_555 1_555
C6 C7 1_555 1_555
C9 C10 1_555 1_555
C16 C17 1_555 1_555

#END
