
#######################################################################
#
#                 Cambridge Crystallographic Data Centre
#                                CCDC 
#
#######################################################################
#
# If this CIF has been generated from an entry in the Cambridge 
# Structural Database, then it will include bibliographic, chemical, 
# crystal, experimental, refinement or atomic coordinate data resulting 
# from the CCDC's data processing and validation procedures.
#
#######################################################################

data_DOLZUB
_symmetry_cell_setting           monoclinic
_symmetry_space_group_name_H-M   'P 21/n'
_symmetry_Int_Tables_number      14
_space_group_name_Hall           '-P 2yn'
loop_
_symmetry_equiv_pos_site_id
_symmetry_equiv_pos_as_xyz
1 x,y,z
2 1/2-x,1/2+y,1/2-z
3 -x,-y,-z
4 1/2+x,1/2-y,1/2+z
_cell_length_a                   9.5433(3)
_cell_length_b                   10.2489(3)
_cell_length_c                   33.8234(11)
_cell_angle_alpha                90
_cell_angle_beta                 94.492(3)
_cell_angle_gamma                90
_cell_volume                     3298.05
loop_
_atom_site_label
_atom_site_type_symbol
_atom_site_fract_x
_atom_site_fract_y
_atom_site_fract_z
Cd1 Cd 0.27833(2) 0.42984(2) 0.713177(7)
Cd2 Cd 0.5000 -0.5000 0.5000
Cl1 Cl 0.44027(11) -0.72828(9) 0.52626(3)
O1 O 0.4004(3) 0.5705(2) 0.67582(8)
O2 O 0.1898(2) 0.6403(2) 0.68780(7)
O3 O 0.3392(2) 0.8461(2) 0.73664(6)
O4 O 0.2026(3) 1.0126(2) 0.71919(7)
N1 N 0.6179(3) 0.1414(3) 0.73140(7)
N2 N 0.6791(3) 0.2162(3) 0.70426(8)
N3 N 0.4652(3) 0.2917(2) 0.71503(7)
N4 N 0.7723(3) -0.3990(3) 0.60917(7)
N5 N 0.7140(3) -0.5081(3) 0.62391(8)
N6 N 0.6096(3) -0.4574(3) 0.56414(7)
N7 N -0.0484(3) 0.2383(3) 0.63267(8)
N8 N 0.0067(4) 0.3188(3) 0.60606(9)
N9 N 0.1211(3) 0.3414(3) 0.66635(8)
N10 N 0.0777(3) -0.3105(3) 0.51009(8)
N11 N 0.0589(4) -0.4047(3) 0.53738(9)
N12 N 0.2728(3) -0.4215(3) 0.51442(8)
C1 C 0.7423(3) -0.0641(3) 0.71980(9)
C2 C 0.6535(3) -0.1606(3) 0.70356(9)
H1 H 0.5627 -0.1689 0.7122
C3 C 0.6961(3) -0.2448(3) 0.67488(9)
H2 H 0.6338 -0.3086 0.6640
C4 C 0.8299(3) -0.2357(3) 0.66221(9)
C5 C 0.9206(3) -0.1418(3) 0.67931(9)
H3 H 1.0127 -0.1356 0.6714
C6 C 0.8769(3) -0.0574(3) 0.70771(9)
H4 H 0.9398 0.0055 0.7190
C7 C 0.6927(4) 0.0294(3) 0.75045(9)
H5 H 0.6299 -0.0166 0.7673
H6 H 0.7738 0.0609 0.7673
C8 C 0.8831(3) -0.3282(4) 0.63204(10)
H7 H 0.9374 -0.2785 0.6138
H8 H 0.9469 -0.3913 0.6458
C9 C 0.5832(3) 0.3048(3) 0.69539(9)
H9 H 0.5949 0.3719 0.6770
C10 C 0.4926(3) 0.1881(3) 0.73763(9)
H10 H 0.4320 0.1529 0.7555
C11 C 0.6183(4) -0.5388(3) 0.59564(9)
H11 H 0.5597 -0.6121 0.5972
C12 C 0.7086(4) -0.3710(3) 0.57403(9)
H12 H 0.7309 -0.2995 0.5583
C13 C -0.1294(4) 0.0571(3) 0.58866(9)
C14 C 0.0020(4) -0.0007(3) 0.58966(10)
H13 H 0.0703 0.0204 0.6102
C15 C 0.0341(4) -0.0892(3) 0.56071(10)
H14 H 0.1244 -0.1264 0.5616
C16 C -0.0650(4) -0.1234(3) 0.53062(9)
C17 C -0.1972(3) -0.0646(3) 0.52931(9)
H15 H -0.2655 -0.0858 0.5088
C18 C -0.2285(4) 0.0249(3) 0.55817(10)
H16 H -0.3179 0.0639 0.5570
C19 C -0.1657(4) 0.1535(4) 0.62012(10)
H17 H -0.2453 0.2071 0.6097
H18 H -0.1949 0.1056 0.6432
C20 C -0.0349(4) -0.2188(3) 0.49813(10)
H19 H -0.1207 -0.2679 0.4903
H20 H -0.0089 -0.1698 0.4749
C21 C 0.1060(5) 0.3786(4) 0.62800(11)
H21 H 0.1629 0.4431 0.6177
C22 C 0.0200(4) 0.2540(3) 0.66779(10)
H22 H -0.0005 0.2088 0.6908
C23 C 0.1785(5) -0.4676(4) 0.53866(11)
H23 H 0.1974 -0.5399 0.5553
C24 C 0.2035(4) -0.3226(3) 0.49679(10)
H24 H 0.2391 -0.2686 0.4775
C25 C 0.3348(3) 0.7810(3) 0.65180(9)
C26 C 0.3185(3) 0.9044(3) 0.66844(9)
C27 C 0.3460(4) 1.0145(3) 0.64615(11)
H25 H 0.3339 1.0979 0.6569
C28 C 0.3911(4) 1.0030(4) 0.60827(11)
H26 H 0.4096 1.0783 0.5937
C29 C 0.4088(4) 0.8811(4) 0.59200(10)
H27 H 0.4396 0.8729 0.5664
C30 C 0.3807(4) 0.7714(4) 0.61379(10)
H28 H 0.3928 0.6884 0.6027
C31 C 0.3059(3) 0.6560(3) 0.67366(9)
C32 C 0.2828(3) 0.9226(3) 0.71070(10)
Cd1B Cd 0.72167(2) -1.42984(2) 0.286823(7)
Cl1B Cl 0.55973(11) -0.27172(9) 0.47374(3)
O1B O 0.5996(3) -1.5705(2) 0.32418(8)
O2B O 0.8102(2) -1.6403(2) 0.31220(7)
O3B O 0.6608(2) -1.8461(2) 0.26336(6)
O4B O 0.7974(3) -2.0126(2) 0.28081(7)
N1B N 0.3821(3) -1.1414(3) 0.26860(7)
N2B N 0.3209(3) -1.2162(3) 0.29574(8)
N3B N 0.5348(3) -1.2917(2) 0.28497(7)
N4B N 0.2277(3) -0.6010(3) 0.39083(7)
N5B N 0.2860(3) -0.4919(3) 0.37609(8)
N6B N 0.3904(3) -0.5426(3) 0.43586(7)
N7B N 1.0484(3) -1.2383(3) 0.36733(8)
N8B N 0.9933(4) -1.3188(3) 0.39394(9)
N9B N 0.8789(3) -1.3414(3) 0.33365(8)
N10B N 0.9223(3) -0.6895(3) 0.48991(8)
N11B N 0.9411(4) -0.5953(3) 0.46262(9)
N12B N 0.7272(3) -0.5785(3) 0.48558(8)
C1B C 0.2577(3) -0.9359(3) 0.28020(9)
C2B C 0.3465(3) -0.8394(3) 0.29644(9)
H1B H 0.4373 -0.8311 0.2878
C3B C 0.3039(3) -0.7552(3) 0.32512(9)
H2B H 0.3662 -0.6914 0.3360
C4B C 0.1701(3) -0.7643(3) 0.33779(9)
C5B C 0.0794(3) -0.8582(3) 0.32069(9)
H3B H -0.0127 -0.8644 0.3286
C6B C 0.1231(3) -0.9426(3) 0.29229(9)
H4B H 0.0602 -1.0055 0.2810
C7B C 0.3073(4) -1.0294(3) 0.24955(9)
H5B H 0.3701 -0.9834 0.2327
H6B H 0.2262 -1.0609 0.2327
C8B C 0.1169(3) -0.6718(4) 0.36796(10)
H7B H 0.0626 -0.7215 0.3862
H8B H 0.0531 -0.6087 0.3542
C9B C 0.4168(3) -1.3048(3) 0.30461(9)
H9B H 0.4051 -1.3719 0.3230
C10B C 0.5074(3) -1.1881(3) 0.26237(9)
H10B H 0.5680 -1.1529 0.2445
C11B C 0.3817(4) -0.4612(3) 0.40436(9)
H11B H 0.4403 -0.3879 0.4028
C12B C 0.2914(4) -0.6290(3) 0.42597(9)
H12B H 0.2691 -0.7005 0.4417
C13B C 1.1294(4) -1.0571(3) 0.41134(9)
C14B C 0.9980(4) -0.9993(3) 0.41034(10)
H13B H 0.9297 -1.0204 0.3898
C15B C 0.9659(4) -0.9108(3) 0.43929(10)
H14B H 0.8756 -0.8736 0.4384
C16B C 1.0650(4) -0.8766(3) 0.46938(9)
C17B C 1.1972(3) -0.9354(3) 0.47069(9)
H15B H 1.2655 -0.9142 0.4912
C18B C 1.2285(4) -1.0249(3) 0.44183(10)
H16B H 1.3179 -1.0639 0.4430
C19B C 1.1657(4) -1.1535(4) 0.37988(10)
H17B H 1.2453 -1.2071 0.3903
H18B H 1.1949 -1.1056 0.3568
C20B C 1.0349(4) -0.7812(3) 0.50187(10)
H19B H 1.1207 -0.7321 0.5097
H20B H 1.0089 -0.8302 0.5251
C21B C 0.8940(5) -1.3786(4) 0.37200(11)
H21B H 0.8371 -1.4431 0.3823
C22B C 0.9800(4) -1.2540(3) 0.33221(10)
H22B H 1.0005 -1.2088 0.3092
C23B C 0.8215(5) -0.5324(4) 0.46134(11)
H23B H 0.8026 -0.4601 0.4447
C24B C 0.7965(4) -0.6774(3) 0.50321(10)
H24B H 0.7609 -0.7314 0.5225
C25B C 0.6652(3) -1.7810(3) 0.34820(9)
C26B C 0.6815(3) -1.9044(3) 0.33156(9)
C27B C 0.6540(4) -2.0145(3) 0.35385(11)
H25B H 0.6661 -2.0979 0.3431
C28B C 0.6089(4) -2.0030(4) 0.39173(11)
H26B H 0.5904 -2.0783 0.4063
C29B C 0.5912(4) -1.8811(4) 0.40800(10)
H27B H 0.5604 -1.8729 0.4336
C30B C 0.6193(4) -1.7714(4) 0.38621(10)
H28B H 0.6072 -1.6884 0.3973
C31B C 0.6941(3) -1.6560(3) 0.32634(9)
C32B C 0.7172(3) -1.9226(3) 0.28930(10)
Cd1A Cd 0.22167(2) 0.92984(2) 0.786823(7)
Cd1C Cd 0.77833(2) -1.92984(2) 0.213177(7)
O3A O 0.1608(2) 0.3461(2) 0.76336(6)
O3C O 0.8392(2) -1.3461(2) 0.23664(6)
O4A O 0.2974(3) 0.5126(2) 0.78081(7)
O4C O 0.7026(3) -1.5126(2) 0.21919(7)
loop_
_geom_bond_atom_site_label_1
_geom_bond_atom_site_label_2
_geom_bond_site_symmetry_1
_geom_bond_site_symmetry_2
Cd1 O1 1_555 1_555
Cd2 Cl1 1_555 1_555
O1 C31 1_555 1_555
O2 Cd1 1_555 1_555
O3 C32 1_555 1_555
O4 C32 1_555 1_555
N1 N2 1_555 1_555
N2 C9 1_555 1_555
N3 Cd1 1_555 1_555
N4 N5 1_555 1_555
N5 C11 1_555 1_555
N6 Cd2 1_555 1_555
N7 N8 1_555 1_555
N8 C21 1_555 1_555
N9 Cd1 1_555 1_555
N10 N11 1_555 1_555
N11 C23 1_555 1_555
N12 Cd2 1_555 1_555
C1 C2 1_555 1_555
C2 H1 1_555 1_555
C3 C2 1_555 1_555
H2 C3 1_555 1_555
C4 C3 1_555 1_555
C5 C4 1_555 1_555
H3 C5 1_555 1_555
C6 C1 1_555 1_555
H4 C6 1_555 1_555
C7 N1 1_555 1_555
H5 C7 1_555 1_555
H6 C7 1_555 1_555
C8 N4 1_555 1_555
H7 C8 1_555 1_555
H8 C8 1_555 1_555
C9 N3 1_555 1_555
H9 C9 1_555 1_555
C10 N1 1_555 1_555
H10 C10 1_555 1_555
C11 N6 1_555 1_555
H11 C11 1_555 1_555
C12 N4 1_555 1_555
H12 C12 1_555 1_555
C13 C14 1_555 1_555
C14 H13 1_555 1_555
C15 C14 1_555 1_555
H14 C15 1_555 1_555
C16 C15 1_555 1_555
C17 C16 1_555 1_555
H15 C17 1_555 1_555
C18 C13 1_555 1_555
H16 C18 1_555 1_555
C19 N7 1_555 1_555
H17 C19 1_555 1_555
H18 C19 1_555 1_555
C20 N10 1_555 1_555
H19 C20 1_555 1_555
H20 C20 1_555 1_555
C21 N9 1_555 1_555
H21 C21 1_555 1_555
C22 N7 1_555 1_555
H22 C22 1_555 1_555
C23 N12 1_555 1_555
H23 C23 1_555 1_555
C24 N10 1_555 1_555
H24 C24 1_555 1_555
C25 C26 1_555 1_555
C26 C27 1_555 1_555
C27 H25 1_555 1_555
C28 C27 1_555 1_555
H26 C28 1_555 1_555
C29 C28 1_555 1_555
H27 C29 1_555 1_555
C30 C25 1_555 1_555
H28 C30 1_555 1_555
C31 O2 1_555 1_555
C32 C26 1_555 1_555
Cd1B O1B 1_555 1_555
Cl1B Cd2 1_555 1_555
O1B C31B 1_555 1_555
O2B Cd1B 1_555 1_555
O3B C32B 1_555 1_555
O4B C32B 1_555 1_555
N1B N2B 1_555 1_555
N2B C9B 1_555 1_555
N3B Cd1B 1_555 1_555
N4B N5B 1_555 1_555
N5B C11B 1_555 1_555
N6B Cd2 1_555 1_555
N7B N8B 1_555 1_555
N8B C21B 1_555 1_555
N9B Cd1B 1_555 1_555
N10B N11B 1_555 1_555
N11B C23B 1_555 1_555
N12B Cd2 1_555 1_555
C1B C2B 1_555 1_555
C2B H1B 1_555 1_555
C3B C2B 1_555 1_555
H2B C3B 1_555 1_555
C4B C3B 1_555 1_555
C5B C4B 1_555 1_555
H3B C5B 1_555 1_555
C6B C1B 1_555 1_555
H4B C6B 1_555 1_555
C7B N1B 1_555 1_555
H5B C7B 1_555 1_555
H6B C7B 1_555 1_555
C8B N4B 1_555 1_555
H7B C8B 1_555 1_555
H8B C8B 1_555 1_555
C9B N3B 1_555 1_555
H9B C9B 1_555 1_555
C10B N1B 1_555 1_555
H10B C10B 1_555 1_555
C11B N6B 1_555 1_555
H11B C11B 1_555 1_555
C12B N4B 1_555 1_555
H12B C12B 1_555 1_555
C13B C14B 1_555 1_555
C14B H13B 1_555 1_555
C15B C14B 1_555 1_555
H14B C15B 1_555 1_555
C16B C15B 1_555 1_555
C17B C16B 1_555 1_555
H15B C17B 1_555 1_555
C18B C13B 1_555 1_555
H16B C18B 1_555 1_555
C19B N7B 1_555 1_555
H17B C19B 1_555 1_555
H18B C19B 1_555 1_555
C20B N10B 1_555 1_555
H19B C20B 1_555 1_555
H20B C20B 1_555 1_555
C21B N9B 1_555 1_555
H21B C21B 1_555 1_555
C22B N7B 1_555 1_555
H22B C22B 1_555 1_555
C23B N12B 1_555 1_555
H23B C23B 1_555 1_555
C24B N10B 1_555 1_555
H24B C24B 1_555 1_555
C25B C26B 1_555 1_555
C26B C27B 1_555 1_555
C27B H25B 1_555 1_555
C28B C27B 1_555 1_555
H26B C28B 1_555 1_555
C29B C28B 1_555 1_555
H27B C29B 1_555 1_555
C30B C25B 1_555 1_555
H28B C30B 1_555 1_555
C31B O2B 1_555 1_555
C32B C26B 1_555 1_555
Cd1A O3 1_555 1_555
Cd1C O3B 1_555 1_555
O3A Cd1 1_555 1_555
O3C Cd1B 1_555 1_555
O4A Cd1 1_555 1_555
O4C Cd1B 1_555 1_555
O4 Cd1A 1_555 1_555
N3 C10 1_555 1_555
N6 C12 1_555 1_555
N9 C22 1_555 1_555
N12 C24 1_555 1_555
C1 C7 1_555 1_555
C4 C8 1_555 1_555
C5 C6 1_555 1_555
C13 C19 1_555 1_555
C16 C20 1_555 1_555
C17 C18 1_555 1_555
C25 C31 1_555 1_555
C29 C30 1_555 1_555
O4B Cd1C 1_555 1_555
N3B C10B 1_555 1_555
N6B C12B 1_555 1_555
N9B C22B 1_555 1_555
N12B C24B 1_555 1_555
C1B C7B 1_555 1_555
C4B C8B 1_555 1_555
C5B C6B 1_555 1_555
C13B C19B 1_555 1_555
C16B C20B 1_555 1_555
C17B C18B 1_555 1_555
C25B C31B 1_555 1_555
C29B C30B 1_555 1_555

#END
