
#######################################################################
#
#                 Cambridge Crystallographic Data Centre
#                                CCDC 
#
#######################################################################
#
# If this CIF has been generated from an entry in the Cambridge 
# Structural Database, then it will include bibliographic, chemical, 
# crystal, experimental, refinement or atomic coordinate data resulting 
# from the CCDC's data processing and validation procedures.
#
#######################################################################

data_DOLZEL
_symmetry_cell_setting           monoclinic
_symmetry_space_group_name_H-M   'P 21/c'
_symmetry_Int_Tables_number      14
_space_group_name_Hall           '-P 2ybc'
loop_
_symmetry_equiv_pos_site_id
_symmetry_equiv_pos_as_xyz
1 x,y,z
2 -x,1/2+y,1/2-z
3 -x,-y,-z
4 x,1/2-y,1/2+z
_cell_length_a                   12.8342(10)
_cell_length_b                   10.9134(8)
_cell_length_c                   16.494(2)
_cell_angle_alpha                90
_cell_angle_beta                 125.687(7)
_cell_angle_gamma                90
_cell_volume                     1876.4
loop_
_atom_site_label
_atom_site_type_symbol
_atom_site_fract_x
_atom_site_fract_y
_atom_site_fract_z
Zn1 Zn 0.27165(4) 0.98593(4) 0.81763(4)
N1 N 0.1603(3) 0.9397(3) 0.8597(3)
N2 N 0.1997(3) 0.8570(3) 0.9338(3)
N3 N 0.1945(3) 0.5942(3) 1.1809(3)
N4 N 0.5377(4) 0.6969(3) 0.8647(3)
N5 N 0.5110(4) 0.5737(3) 0.8498(3)
N6 N 0.3042(3) 0.1685(3) 0.8217(3)
S1 S -0.02699(11) 0.92005(12) 0.87116(9)
S2 S -0.03044(11) 1.08494(12) 0.72097(10)
S3 S 0.35462(10) 0.66199(10) 0.88024(10)
S4 S 0.48067(10) 0.91051(10) 0.90994(9)
C1 C 0.0416(4) 0.9842(4) 0.8155(3)
C2 C 0.1126(4) 0.8367(4) 0.9490(3)
C3 C 0.1345(4) 0.7505(4) 1.0252(3)
C4 C 0.2368(5) 0.6693(5) 1.0677(4)
H1 H 0.2874 0.6658 1.0443
C5 C 0.2632(5) 0.5947(5) 1.1437(4)
H2 H 0.3325 0.5414 1.1711
C6 C 0.0606(4) 0.7467(5) 1.0607(4)
H3 H -0.0114 0.7965 1.0329
C7 C 0.0944(4) 0.6681(4) 1.1383(4)
H4 H 0.0437 0.6673 1.1618
C8 C 0.4637(4) 0.7557(4) 0.8812(3)
C9 C 0.4180(4) 0.5419(4) 0.8548(3)
C10 C 0.3763(4) 0.4132(4) 0.8423(3)
C11 C 0.4078(5) 0.3307(4) 0.7976(4)
H5 H 0.4529 0.3562 0.7725
H6 H 0.3974 0.1550 0.7613
C12 C 0.3728(5) 0.2102(4) 0.7900(4)
C13 C 0.2709(4) 0.2492(4) 0.8632(3)
H7 H 0.2224 0.2222 0.8849
C14 C 0.3050(4) 0.3714(4) 0.8754(3)
H8 H 0.2805 0.4248 0.9053
Zn1_2 Zn 0.27165(4) -0.01407(4) 0.81763(4)
Zn1C Zn 0.27165(4) 0.51407(4) 1.31763(4)
N3C N 0.1945(3) 0.9058(3) 0.6809(3)
N6_2 N 0.3042(3) 1.1685(3) 0.8217(3)
O1 O 0.7703(4) 0.8611(6) 0.9532(4)
loop_
_geom_bond_atom_site_label_1
_geom_bond_atom_site_label_2
_geom_bond_site_symmetry_1
_geom_bond_site_symmetry_2
Zn1 N1 1_555 1_555
N1 N2 1_555 1_555
N2 C2 1_555 1_555
N3 C5 1_555 1_555
N4 N5 1_555 1_555
N5 C9 1_555 1_555
N6 C12 1_555 1_555
S1 C1 1_555 1_555
S2 C1 1_555 1_555
S3 C8 1_555 1_555
S4 Zn1 1_555 1_555
C1 N1 1_555 1_555
C2 S1 1_555 1_555
C3 C2 1_555 1_555
C4 C3 1_555 1_555
H1 C4 1_555 1_555
C5 C4 1_555 1_555
H2 C5 1_555 1_555
C6 C3 1_555 1_555
H3 C6 1_555 1_555
C7 N3 1_555 1_555
H4 C7 1_555 1_555
C8 N4 1_555 1_555
C9 S3 1_555 1_555
C10 C9 1_555 1_555
C11 C10 1_555 1_555
H5 C11 1_555 1_555
H6 C12 1_555 1_555
C12 C11 1_555 1_555
C13 N6 1_555 1_555
H7 C13 1_555 1_555
C14 C10 1_555 1_555
H8 C14 1_555 1_555
Zn1_2 N6 1_555 1_555
Zn1C N3 1_555 1_555
N3C Zn1 1_555 1_555
N6_2 Zn1 1_555 1_555
S4 C8 1_555 1_555
C6 C7 1_555 1_555
C13 C14 1_555 1_555

#END
