
#######################################################################
#
#                 Cambridge Crystallographic Data Centre
#                                CCDC 
#
#######################################################################
#
# If this CIF has been generated from an entry in the Cambridge 
# Structural Database, then it will include bibliographic, chemical, 
# crystal, experimental, refinement or atomic coordinate data resulting 
# from the CCDC's data processing and validation procedures.
#
#######################################################################

data_DOMBIS
_symmetry_cell_setting           monoclinic
_symmetry_space_group_name_H-M   'P 21/n'
_symmetry_Int_Tables_number      14
_space_group_name_Hall           '-P 2yn'
loop_
_symmetry_equiv_pos_site_id
_symmetry_equiv_pos_as_xyz
1 x,y,z
2 1/2-x,1/2+y,1/2-z
3 -x,-y,-z
4 1/2+x,1/2-y,1/2+z
_cell_length_a                   10.3155(13)
_cell_length_b                   17.291(2)
_cell_length_c                   11.5812(13)
_cell_angle_alpha                90
_cell_angle_beta                 93.319(2)
_cell_angle_gamma                90
_cell_volume                     2062.22
loop_
_atom_site_label
_atom_site_type_symbol
_atom_site_fract_x
_atom_site_fract_y
_atom_site_fract_z
Zn1 Zn 0.30085(5) 0.17120(3) 0.09272(4)
Cl1 Cl 0.13001(12) 0.21851(6) 0.17799(11)
Cl2 Cl 0.28415(15) 0.10257(7) -0.06735(11)
N1 N 0.4176(3) 0.12190(17) 0.2216(3)
N2 N 0.7638(3) -0.01799(16) 0.4623(3)
N3 N 1.0889(3) -0.23278(17) 0.4435(3)
N4 N 0.8118(4) 0.1847(3) 1.1303(3)
H1 H 0.7451 0.2065 1.1575
H2 H 0.8852 0.1853 1.1695
C1 C 0.4136(5) 0.1480(2) 0.3299(4)
H3 H 0.3510 0.1845 0.3460
C2 C 0.4968(4) 0.1236(2) 0.4179(4)
H4 H 0.4906 0.1439 0.4917
C3 C 0.5921(4) 0.0679(2) 0.3976(3)
C4 C 0.5948(5) 0.0409(2) 0.2862(3)
H5 H 0.6555 0.0038 0.2678
C5 C 0.5084(5) 0.0685(2) 0.2023(4)
H6 H 0.5128 0.0493 0.1276
C6 C 0.6841(4) 0.0394(2) 0.4907(3)
C7 C 0.6885(4) 0.0705(2) 0.6019(3)
H7 H 0.6326 0.1107 0.6184
C8 C 0.7744(4) 0.0427(2) 0.6877(3)
C9 C 0.8540(4) -0.0176(2) 0.6565(3)
H8 H 0.9120 -0.0395 0.7116
C10 C 0.8480(4) -0.0456(2) 0.5442(3)
C11 C 1.1020(4) -0.2024(2) 0.5483(4)
H9 H 1.1640 -0.2234 0.6008
C12 C 1.0293(4) -0.1418(2) 0.5834(4)
H10 H 1.0437 -0.1219 0.6577
C13 C 0.9339(4) -0.10958(19) 0.5086(3)
C14 C 0.9237(4) -0.1392(2) 0.3976(3)
H11 H 0.8639 -0.1185 0.3428
C15 C 1.0032(5) -0.1997(2) 0.3687(4)
H12 H 0.9965 -0.2182 0.2932
C16 C 0.7814(4) 0.0761(2) 0.8057(3)
C17 C 0.8959(5) 0.0757(2) 0.8720(4)
H13 H 0.9676 0.0510 0.8438
C18 C 0.9085(5) 0.1112(3) 0.9805(4)
H14 H 0.9872 0.1101 1.0239
C19 C 0.8008(5) 0.1483(3) 1.0223(4)
C20 C 0.6850(5) 0.1464(3) 0.9577(4)
H15 H 0.6117 0.1688 0.9866
C21 C 0.6762(4) 0.1116(2) 0.8507(4)
H16 H 0.5972 0.1122 0.8078
Zn1A Zn 1.19915(5) -0.32880(3) 0.40728(4)
N3A N 0.4111(3) 0.26722(17) 0.0565(3)
loop_
_geom_bond_atom_site_label_1
_geom_bond_atom_site_label_2
_geom_bond_site_symmetry_1
_geom_bond_site_symmetry_2
Zn1 Cl1 1_555 1_555
Cl2 Zn1 1_555 1_555
N1 Zn1 1_555 1_555
N2 C6 1_555 1_555
N3 C11 1_555 1_555
N4 H1 1_555 1_555
H2 N4 1_555 1_555
C1 N1 1_555 1_555
H3 C1 1_555 1_555
C2 C1 1_555 1_555
H4 C2 1_555 1_555
C3 C2 1_555 1_555
C4 C3 1_555 1_555
H5 C4 1_555 1_555
C5 N1 1_555 1_555
H6 C5 1_555 1_555
C6 C3 1_555 1_555
C7 C6 1_555 1_555
H7 C7 1_555 1_555
C8 C7 1_555 1_555
C9 C8 1_555 1_555
H8 C9 1_555 1_555
C10 N2 1_555 1_555
C11 H9 1_555 1_555
C12 C11 1_555 1_555
H10 C12 1_555 1_555
C13 C10 1_555 1_555
C14 C13 1_555 1_555
H11 C14 1_555 1_555
C15 N3 1_555 1_555
H12 C15 1_555 1_555
C16 C8 1_555 1_555
C17 C16 1_555 1_555
H13 C17 1_555 1_555
C18 C17 1_555 1_555
H14 C18 1_555 1_555
C19 N4 1_555 1_555
C20 C19 1_555 1_555
H15 C20 1_555 1_555
C21 C16 1_555 1_555
H16 C21 1_555 1_555
Zn1A N3 1_555 1_555
N3A Zn1 1_555 1_555
C4 C5 1_555 1_555
C9 C10 1_555 1_555
C12 C13 1_555 1_555
C14 C15 1_555 1_555
C18 C19 1_555 1_555
C20 C21 1_555 1_555

#END
