
#######################################################################
#
#                 Cambridge Crystallographic Data Centre
#                                CCDC 
#
#######################################################################
#
# If this CIF has been generated from an entry in the Cambridge 
# Structural Database, then it will include bibliographic, chemical, 
# crystal, experimental, refinement or atomic coordinate data resulting 
# from the CCDC's data processing and validation procedures.
#
#######################################################################

data_DOMBEO
_symmetry_cell_setting           monoclinic
_symmetry_space_group_name_H-M   'P 21/n'
_symmetry_Int_Tables_number      14
_space_group_name_Hall           '-P 2yn'
loop_
_symmetry_equiv_pos_site_id
_symmetry_equiv_pos_as_xyz
1 x,y,z
2 1/2-x,1/2+y,1/2-z
3 -x,-y,-z
4 1/2+x,1/2-y,1/2+z
_cell_length_a                   9.9625(3)
_cell_length_b                   12.6941(3)
_cell_length_c                   14.4894(4)
_cell_angle_alpha                90
_cell_angle_beta                 108.681(3)
_cell_angle_gamma                90
_cell_volume                     1735.86
loop_
_atom_site_label
_atom_site_type_symbol
_atom_site_fract_x
_atom_site_fract_y
_atom_site_fract_z
Cd1 Cd 0.79446(3) 0.543836(19) 0.502921(19)
O1 O 1.0169(3) 0.4849(2) 0.6097(2)
O2 O 1.1211(3) 0.3413(2) 0.5780(2)
O3 O 0.7035(3) 0.1730(2) 0.8846(2)
O4 O 0.8500(3) 0.0429(2) 0.8842(2)
O5 O 0.5754(4) 0.5829(3) 0.3864(3)
N1 N 0.7406(3) 0.2142(2) 0.4108(2)
N2 N 0.6556(4) 0.2102(3) 0.4673(3)
N3 N 0.7386(3) 0.3737(2) 0.4648(2)
C1 C 0.8916(4) 0.0569(3) 0.4336(3)
C2 C 1.0298(5) 0.0732(4) 0.4387(4)
H1 H 1.0512 0.1233 0.3976
C3 C 1.1393(5) 0.0163(4) 0.5043(4)
H2 H 1.2336 0.0272 0.5066
C4 C 0.7740(5) 0.1201(3) 0.3637(3)
H3 H 0.8027 0.1413 0.3077
H4 H 0.6891 0.0761 0.3396
C5 C 0.6576(4) 0.3076(3) 0.4984(3)
H5 H 0.6075 0.3295 0.5401
C6 C 0.7895(4) 0.3115(3) 0.4106(3)
H6 H 0.8513 0.3330 0.3770
C7 C 0.9743(4) 0.3200(3) 0.6764(3)
C8 C 0.8952(4) 0.3666(3) 0.7288(3)
H7 H 0.8813 0.4399 0.7261
C9 C 0.8372(4) 0.3053(3) 0.7846(3)
H8 H 0.7837 0.3372 0.8198
C10 C 0.8565(4) 0.1968(3) 0.7895(3)
C11 C 0.9338(4) 0.1501(3) 0.7361(3)
H9 H 0.9467 0.0767 0.7386
C12 C 0.9919(4) 0.2107(3) 0.6791(3)
H10 H 1.0431 0.1785 0.6424
C13 C 1.0414(4) 0.3868(3) 0.6167(3)
C14 C 0.8008(4) 0.1330(3) 0.8558(3)
H11 H 0.510(8) 0.544(5) 0.379(6)
H12 H 0.559(8) 0.620(6) 0.348(5)
N1B N 1.2594(3) -0.2142(2) 0.5892(2)
N2B N 1.3444(4) -0.2102(3) 0.5327(3)
N3B N 1.2614(3) -0.3737(2) 0.5352(2)
C1B C 1.1084(4) -0.0569(3) 0.5664(3)
C2B C 0.9702(5) -0.0732(4) 0.5613(4)
H1B H 0.9488 -0.1233 0.6024
C3B C 0.8607(5) -0.0163(4) 0.4957(4)
H2B H 0.7664 -0.0272 0.4934
C4B C 1.2260(5) -0.1201(3) 0.6363(3)
H3B H 1.1973 -0.1413 0.6923
H4B H 1.3109 -0.0761 0.6604
C5B C 1.3424(4) -0.3076(3) 0.5016(3)
H5B H 1.3925 -0.3295 0.4599
C6B C 1.2105(4) -0.3115(3) 0.5894(3)
H6B H 1.1487 -0.3330 0.6230
Cd1B Cd 1.20554(3) -0.543836(19) 0.497079(19)
O1B O 0.9831(3) -0.4849(2) 0.3903(2)
O2B O 0.8789(3) -0.3413(2) 0.4220(2)
O3B O 1.2965(3) -0.1730(2) 0.1154(2)
O4B O 1.1500(3) -0.0429(2) 0.1158(2)
O5B O 1.4246(4) -0.5829(3) 0.6136(3)
C7B C 1.0257(4) -0.3200(3) 0.3236(3)
C8B C 1.1048(4) -0.3666(3) 0.2712(3)
H7B H 1.1187 -0.4399 0.2739
C9B C 1.1628(4) -0.3053(3) 0.2154(3)
H8B H 1.2163 -0.3372 0.1802
C10B C 1.1435(4) -0.1968(3) 0.2105(3)
C11B C 1.0662(4) -0.1501(3) 0.2639(3)
H9B H 1.0533 -0.0767 0.2614
C12B C 1.0081(4) -0.2107(3) 0.3209(3)
H10B H 0.9569 -0.1785 0.3576
C13B C 0.9586(4) -0.3868(3) 0.3833(3)
C14B C 1.1992(4) -0.1330(3) 0.1442(3)
H11B H 1.490(8) -0.544(5) 0.621(6)
H12B H 1.441(8) -0.620(6) 0.652(5)
Cd1_2 Cd 0.79446(3) -0.456164(19) 0.502921(19)
Cd1A Cd 0.70554(3) 0.043836(19) 0.997079(19)
Cd1B_2 Cd 1.20554(3) 0.456164(19) 0.497079(19)
Cd1C Cd 1.29446(3) -0.043836(19) 0.002921(19)
O2_2 O 1.1211(3) -0.6587(2) 0.5780(2)
O2B_2 O 0.8789(3) 0.6587(2) 0.4220(2)
O3A O 0.7965(3) 0.6730(2) 0.6154(2)
O3C O 1.2035(3) -0.6730(2) 0.3846(2)
O4A O 0.6500(3) 0.5429(2) 0.6158(2)
O4C O 1.3500(3) -0.5429(2) 0.3842(2)
O6 O 0.4671(3) 0.2488(2) 0.7418(3)
H13 H 0.5442 0.2315 0.7818
C15 C 0.4149(8) 0.1664(4) 0.6773(5)
H14 H 0.4866 0.1443 0.6492
H15 H 0.3311 0.1896 0.6259
H16 H 0.3905 0.1077 0.7118
loop_
_geom_bond_atom_site_label_1
_geom_bond_atom_site_label_2
_geom_bond_site_symmetry_1
_geom_bond_site_symmetry_2
Cd1 O1 1_555 1_555
O1 C13 1_555 1_555
O2 C13 1_555 1_555
O3 C14 1_555 1_555
O4 C14 1_555 1_555
O5 Cd1 1_555 1_555
N1 N2 1_555 1_555
N2 C5 1_555 1_555
N3 Cd1 1_555 1_555
C1 C2 1_555 1_555
C2 H1 1_555 1_555
C3 C2 1_555 1_555
H2 C3 1_555 1_555
C4 N1 1_555 1_555
H3 C4 1_555 1_555
H4 C4 1_555 1_555
C5 N3 1_555 1_555
H5 C5 1_555 1_555
C6 N1 1_555 1_555
H6 C6 1_555 1_555
C7 C8 1_555 1_555
C8 H7 1_555 1_555
C9 C8 1_555 1_555
H8 C9 1_555 1_555
C10 C9 1_555 1_555
C11 C10 1_555 1_555
H9 C11 1_555 1_555
C12 C7 1_555 1_555
H10 C12 1_555 1_555
C13 C7 1_555 1_555
C14 C10 1_555 1_555
H11 O5 1_555 1_555
H12 O5 1_555 1_555
O6 H13 1_555 1_555
C15 O6 1_555 1_555
H14 C15 1_555 1_555
H15 C15 1_555 1_555
H16 C15 1_555 1_555
N1B N2B 1_555 1_555
N2B C5B 1_555 1_555
N3B C5B 1_555 1_555
C1B C3 1_555 1_555
C2B C1B 1_555 1_555
H1B C2B 1_555 1_555
C3B C1 1_555 1_555
H2B C3B 1_555 1_555
C4B N1B 1_555 1_555
H3B C4B 1_555 1_555
H4B C4B 1_555 1_555
C5B H5B 1_555 1_555
C6B N1B 1_555 1_555
H6B C6B 1_555 1_555
Cd1B N3B 1_555 1_555
O1B Cd1B 1_555 1_555
O2B C13B 1_555 1_555
O3B C14B 1_555 1_555
O4B C14B 1_555 1_555
O5B Cd1B 1_555 1_555
C7B C8B 1_555 1_555
C8B H7B 1_555 1_555
C9B C8B 1_555 1_555
H8B C9B 1_555 1_555
C10B C9B 1_555 1_555
C11B C10B 1_555 1_555
H9B C11B 1_555 1_555
C12B C7B 1_555 1_555
H10B C12B 1_555 1_555
C13B O1B 1_555 1_555
C14B C10B 1_555 1_555
H11B O5B 1_555 1_555
H12B O5B 1_555 1_555
Cd1_2 O2B 1_555 1_555
Cd1A O3 1_555 1_555
Cd1B_2 O2 1_555 1_555
Cd1C O3B 1_555 1_555
O2_2 Cd1B 1_555 1_555
O2B_2 Cd1 1_555 1_555
O3A Cd1 1_555 1_555
O3C Cd1B 1_555 1_555
O4A Cd1 1_555 1_555
O4C Cd1B 1_555 1_555
O4 Cd1A 1_555 1_555
N3 C6 1_555 1_555
C1 C4 1_555 1_555
C11 C12 1_555 1_555
N3B C6B 1_555 1_555
C1B C4B 1_555 1_555
C2B C3B 1_555 1_555
O4B Cd1C 1_555 1_555
C7B C13B 1_555 1_555
C11B C12B 1_555 1_555

#END
