
#######################################################################
#
#                 Cambridge Crystallographic Data Centre
#                                CCDC 
#
#######################################################################
#
# If this CIF has been generated from an entry in the Cambridge 
# Structural Database, then it will include bibliographic, chemical, 
# crystal, experimental, refinement or atomic coordinate data resulting 
# from the CCDC's data processing and validation procedures.
#
#######################################################################

data_DOMBOY
_symmetry_cell_setting           monoclinic
_symmetry_space_group_name_H-M   'C 2/c'
_symmetry_Int_Tables_number      15
_space_group_name_Hall           '-C 2yn'
loop_
_symmetry_equiv_pos_site_id
_symmetry_equiv_pos_as_xyz
1 x,y,z
2 -x,y,1/2-z
3 1/2+x,1/2+y,z
4 1/2-x,1/2+y,1/2-z
5 -x,-y,-z
6 x,-y,1/2+z
7 1/2-x,1/2-y,-z
8 1/2+x,1/2-y,1/2+z
_cell_length_a                   37.167(5)
_cell_length_b                   9.4748(11)
_cell_length_c                   28.596(3)
_cell_angle_alpha                90
_cell_angle_beta                 118.357(2)
_cell_angle_gamma                90
_cell_volume                     8861.72
loop_
_atom_site_label
_atom_site_type_symbol
_atom_site_fract_x
_atom_site_fract_y
_atom_site_fract_z
Zn1 Zn 0.116270(12) -0.02357(4) 0.336240(14)
Zn2 Zn 0.124758(12) 0.47261(4) 0.436075(14)
N1 N 0.15845(8) -0.1041(3) 0.31215(10)
N2 N 0.22074(8) -0.2337(3) 0.19869(10)
N3 N 0.16539(8) -0.3897(3) 0.01273(10)
N4 N 0.45662(11) 0.1251(5) 0.32136(16)
H1 H 0.4659 0.1453 0.2998
H2 H 0.4703 0.1484 0.3543
N5 N 0.08519(8) 0.5591(3) 0.46468(10)
N6 N 0.02792(8) 0.7913(3) 0.57158(10)
N7 N 0.07586(9) 0.9595(3) 0.75657(11)
N8 N -0.21007(10) 1.0989(4) 0.36598(14)
H3 H -0.2175 1.1127 0.3329
H4 H -0.2265 1.1187 0.3784
O1 O 0.15193(7) 0.1640(2) 0.35955(9)
O2 O 0.15600(7) 0.3664(2) 0.40079(8)
O3 O 0.08609(7) 0.0903(2) 0.36906(9)
O4 O 0.08876(7) 0.2946(2) 0.40860(9)
O5 O 0.15726(7) 0.6622(2) 0.44933(8)
O6 O 0.15256(7) 0.8728(2) 0.41257(8)
O7 O 0.08809(7) 0.5822(3) 0.36387(8)
O8 O 0.08398(7) 0.7907(2) 0.32636(9)
C1 C 0.19833(11) -0.0815(4) 0.34087(13)
H5 H 0.2081 -0.0467 0.3752
C2 C 0.22582(10) -0.1067(4) 0.32276(13)
H6 H 0.2535 -0.0904 0.3447
C3 C 0.21214(10) -0.1568(4) 0.27160(13)
C4 C 0.17090(11) -0.1877(4) 0.24299(13)
H7 H 0.1604 -0.2272 0.2093
C5 C 0.14562(11) -0.1603(4) 0.26418(13)
H8 H 0.1180 -0.1820 0.2441
C6 C 0.23886(10) -0.1732(4) 0.24650(12)
C7 C 0.27815(10) -0.1210(4) 0.26819(13)
H9 H 0.2895 -0.0770 0.3012
C8 C 0.30098(10) -0.1329(4) 0.24179(12)
C9 C 0.28140(10) -0.1985(4) 0.19183(13)
H10 H 0.2954 -0.2123 0.1726
C10 C 0.24162(10) -0.2421(4) 0.17133(13)
C11 C 0.20473(11) -0.3624(4) 0.02970(14)
H11 H 0.2150 -0.3762 0.0061
C12 C 0.23125(11) -0.3149(4) 0.08008(13)
H12 H 0.2584 -0.2958 0.0896
C13 C 0.21674(10) -0.2961(4) 0.11638(12)
C14 C 0.17598(11) -0.3214(4) 0.09825(13)
H13 H 0.1647 -0.3090 0.1209
C15 C 0.15154(11) -0.3650(4) 0.04677(13)
H14 H 0.1238 -0.3777 0.0353
C16 C 0.34233(10) -0.0743(4) 0.26332(13)
C17 C 0.36551(11) -0.0400(4) 0.31725(15)
H15 H 0.3553 -0.0609 0.3405
C18 C 0.40317(12) 0.0241(5) 0.33637(16)
H16 H 0.4178 0.0471 0.3722
C19 C 0.41962(12) 0.0549(5) 0.30303(17)
C20 C 0.39759(12) 0.0172(4) 0.25035(16)
H17 H 0.4085 0.0334 0.2275
C21 C 0.36010(11) -0.0433(4) 0.23130(15)
H18 H 0.3457 -0.0650 0.1953
C22 C 0.04570(11) 0.5275(4) 0.44340(13)
H19 H 0.0349 0.4618 0.4160
C23 C 0.02007(11) 0.5874(4) 0.46007(13)
H20 H -0.0074 0.5621 0.4441
C24 C 0.03539(10) 0.6856(4) 0.50087(12)
C25 C 0.07654(11) 0.7127(4) 0.52432(14)
H21 H 0.0885 0.7730 0.5534
C26 C 0.10003(11) 0.6506(4) 0.50482(14)
H22 H 0.1276 0.6735 0.5204
C27 C 0.00955(10) 0.7613(4) 0.51967(13)
C28 C -0.03000(10) 0.8033(4) 0.48523(13)
H23 H -0.0419 0.7779 0.4496
C29 C -0.05205(9) 0.8833(4) 0.50377(12)
C30 C -0.03260(10) 0.9113(4) 0.55778(13)
H24 H -0.0462 0.9624 0.5724
C31 C 0.00661(10) 0.8646(4) 0.59019(12)
C32 C 0.03937(12) 1.0145(5) 0.72667(16)
H25 H 0.0293 1.0773 0.7426
C33 C 0.02927(10) 0.8961(4) 0.64834(13)
C34 C 0.01517(12) 0.9856(5) 0.67361(15)
H26 H -0.0106 1.0265 0.6550
C35 C 0.06688(13) 0.8377(4) 0.67923(14)
H27 H 0.0777 0.7745 0.6643
C36 C 0.08891(13) 0.8713(4) 0.73209(14)
H28 H 0.1144 0.8297 0.7518
C37 C -0.09358(10) 0.9345(4) 0.46752(13)
C38 C -0.10646(11) 0.9579(4) 0.41354(14)
H29 H -0.0889 0.9362 0.3999
C39 C -0.14432(12) 1.0118(4) 0.38038(15)
H30 H -0.1519 1.0266 0.3447
C40 C -0.17166(12) 1.0449(4) 0.39926(16)
C41 C -0.15871(12) 1.0229(4) 0.45346(15)
H31 H -0.1762 1.0444 0.4673
C42 C -0.12074(11) 0.9702(4) 0.48595(15)
H32 H -0.1128 0.9578 0.5218
C43 C 0.13999(10) 0.2491(4) 0.38216(12)
C44 C 0.10147(9) 0.2076(4) 0.38673(12)
C45 C 0.14035(10) 0.7509(4) 0.41254(12)
C46 C 0.10070(10) 0.7044(4) 0.36319(12)
Zn1_2 Zn 0.116270(12) 0.97643(4) 0.336240(14)
Zn1E Zn 0.116270(12) 1.02357(4) 0.836240(14)
Zn2E Zn 0.124758(12) -0.47261(4) -0.063925(14)
N3E N 0.16539(8) 0.3897(3) 0.51273(10)
N7E N 0.07586(9) 0.0405(3) 0.25657(11)
O6_2 O 0.15256(7) -0.1272(2) 0.41257(8)
O8_2 O 0.08398(7) -0.2093(2) 0.32636(9)
O9 O 0.22800(12) 0.5361(5) 0.41021(16)
O10 O 0.23214(18) 0.6966(6) 0.5429(2)
O11 O 0.2237(2) 1.0006(10) 0.4802(2)
O12 O 0.0000 0.6257(13) 0.2500
O13 O 0.0196(3) 0.3829(18) 0.2962(5)
loop_
_geom_bond_atom_site_label_1
_geom_bond_atom_site_label_2
_geom_bond_site_symmetry_1
_geom_bond_site_symmetry_2
Zn1 N1 1_555 1_555
Zn2 N5 1_555 1_555
N1 C1 1_555 1_555
N2 C6 1_555 1_555
N3 C11 1_555 1_555
N4 H1 1_555 1_555
H2 N4 1_555 1_555
N5 C22 1_555 1_555
N6 C27 1_555 1_555
N7 C32 1_555 1_555
N8 H3 1_555 1_555
H4 N8 1_555 1_555
O1 Zn1 1_555 1_555
O2 Zn2 1_555 1_555
O3 Zn1 1_555 1_555
O4 Zn2 1_555 1_555
O5 Zn2 1_555 1_555
O6 C45 1_555 1_555
O7 Zn2 1_555 1_555
O8 C46 1_555 1_555
C1 H5 1_555 1_555
C2 C1 1_555 1_555
H6 C2 1_555 1_555
C3 C2 1_555 1_555
C4 C3 1_555 1_555
H7 C4 1_555 1_555
C5 N1 1_555 1_555
H8 C5 1_555 1_555
C6 C3 1_555 1_555
C7 C6 1_555 1_555
H9 C7 1_555 1_555
C8 C7 1_555 1_555
C9 C8 1_555 1_555
H10 C9 1_555 1_555
C10 N2 1_555 1_555
C11 H11 1_555 1_555
C12 C11 1_555 1_555
H12 C12 1_555 1_555
C13 C10 1_555 1_555
C14 C13 1_555 1_555
H13 C14 1_555 1_555
C15 N3 1_555 1_555
H14 C15 1_555 1_555
C16 C8 1_555 1_555
C17 C16 1_555 1_555
H15 C17 1_555 1_555
C18 C17 1_555 1_555
H16 C18 1_555 1_555
C19 N4 1_555 1_555
C20 C19 1_555 1_555
H17 C20 1_555 1_555
C21 C16 1_555 1_555
H18 C21 1_555 1_555
C22 H19 1_555 1_555
C23 C22 1_555 1_555
H20 C23 1_555 1_555
C24 C23 1_555 1_555
C25 C24 1_555 1_555
H21 C25 1_555 1_555
C26 N5 1_555 1_555
H22 C26 1_555 1_555
C27 C24 1_555 1_555
C28 C27 1_555 1_555
H23 C28 1_555 1_555
C29 C28 1_555 1_555
C30 C29 1_555 1_555
H24 C30 1_555 1_555
C31 N6 1_555 1_555
C32 H25 1_555 1_555
C33 C31 1_555 1_555
C34 C32 1_555 1_555
H26 C34 1_555 1_555
C35 C33 1_555 1_555
H27 C35 1_555 1_555
C36 N7 1_555 1_555
H28 C36 1_555 1_555
C37 C29 1_555 1_555
C38 C37 1_555 1_555
H29 C38 1_555 1_555
C39 C38 1_555 1_555
H30 C39 1_555 1_555
C40 N8 1_555 1_555
C41 C40 1_555 1_555
H31 C41 1_555 1_555
C42 C37 1_555 1_555
H32 C42 1_555 1_555
C43 O1 1_555 1_555
C44 O3 1_555 1_555
C45 O5 1_555 1_555
C46 O7 1_555 1_555
Zn1_2 O6 1_555 1_555
Zn1E N7 1_555 1_555
Zn2E N3 1_555 1_555
N3E Zn2 1_555 1_555
N7E Zn1 1_555 1_555
O6_2 Zn1 1_555 1_555
O8_2 Zn1 1_555 1_555
O2 C43 1_555 1_555
O4 C44 1_555 1_555
O8 Zn1_2 1_555 1_555
C4 C5 1_555 1_555
C9 C10 1_555 1_555
C12 C13 1_555 1_555
C14 C15 1_555 1_555
C18 C19 1_555 1_555
C20 C21 1_555 1_555
C25 C26 1_555 1_555
C30 C31 1_555 1_555
C33 C34 1_555 1_555
C35 C36 1_555 1_555
C39 C40 1_555 1_555
C41 C42 1_555 1_555
C43 C44 1_555 1_555
C45 C46 1_555 1_555

#END
