
#######################################################################
#
#                 Cambridge Crystallographic Data Centre
#                                CCDC 
#
#######################################################################
#
# If this CIF has been generated from an entry in the Cambridge 
# Structural Database, then it will include bibliographic, chemical, 
# crystal, experimental, refinement or atomic coordinate data resulting 
# from the CCDC's data processing and validation procedures.
#
#######################################################################

data_DOMFIW
_symmetry_cell_setting           monoclinic
_symmetry_space_group_name_H-M   'C 2/m'
_symmetry_Int_Tables_number      12
_space_group_name_Hall           '-C 2y'
loop_
_symmetry_equiv_pos_site_id
_symmetry_equiv_pos_as_xyz
1 x,y,z
2 -x,y,-z
3 1/2+x,1/2+y,z
4 1/2-x,1/2+y,-z
5 -x,-y,-z
6 x,-y,z
7 1/2-x,1/2-y,-z
8 1/2+x,1/2-y,z
_cell_length_a                   33.0534(12)
_cell_length_b                   35.2658(13)
_cell_length_c                   11.3000(6)
_cell_angle_alpha                90
_cell_angle_beta                 109.685(3)
_cell_angle_gamma                90
_cell_volume                     12402.1
loop_
_atom_site_label
_atom_site_type_symbol
_atom_site_fract_x
_atom_site_fract_y
_atom_site_fract_z
Na1 Na -0.17867(9) 0.0000 0.1395(4)
Na2 Na 0.25145(7) 0.42474(6) 1.0017(3)
O12 O 0.25894(18) 0.36088(16) 1.0222(5)
O13 O -0.1104(3) 0.0000 0.2854(11)
O14 O 0.23445(18) 0.5000 0.4740(7)
Pr1 Pr 0.264076(12) 0.5000 0.79023(6)
O1 O 0.23127(13) 0.5000 0.9645(5)
O2 O 0.22886(11) 0.45690(9) 0.6094(4)
O3 O 0.18573(17) 0.5000 0.7639(7)
O4 O 0.23560(11) 0.42954(9) 0.7900(4)
O5 O -0.17378(12) 0.04424(11) -0.2003(5)
O6 O -0.18699(10) 0.04238(9) -0.0231(4)
Pr2 Pr 0.207775(12) 0.5000 1.15493(6)
N1 N 0.1907(2) 0.5000 0.8785(11)
C1 C 0.22108(16) 0.42929(14) 0.6735(7)
O7 O 0.16076(16) 0.5000 0.9266(7)
O8 O -0.19397(11) 0.43024(9) -0.0682(4)
O9 O -0.14743(10) 0.45520(10) -0.1484(4)
O10 O 0.25596(12) 0.04374(10) 0.6630(4)
O11 O 0.22102(11) 0.04328(10) 0.7974(4)
C2 C 0.19524(16) 0.39679(14) 0.6014(7)
C3 C -0.15948(16) 0.42905(14) -0.0886(6)
C4 C 0.18183(18) 0.36894(15) 0.6689(7)
C5 C 0.18231(17) 0.39552(16) 0.4743(7)
C6 C -0.12932(15) 0.39592(13) -0.0454(6)
H1 H 0.1904 0.3700 0.7579
C7 C 0.15560(19) 0.33982(16) 0.6021(7)
H2 H 0.1914 0.4148 0.4302
C8 C 0.15595(17) 0.36645(16) 0.4067(7)
C9 C -0.09210(16) 0.39434(17) -0.0715(6)
C10 C -0.13879(17) 0.36756(16) 0.0271(7)
C11 C 0.14104(17) 0.33849(15) 0.4706(6)
H3 H 0.1473 0.3203 0.6471
H4 H 0.1481 0.3655 0.3178
H5 H -0.0858 0.4133 -0.1225
C12 C -0.06336(17) 0.36502(16) -0.0233(6)
H6 H -0.1652 0.3682 0.0434
C13 C -0.10992(17) 0.33855(16) 0.0755(7)
C14 C 0.11034(15) 0.30823(14) 0.4019(6)
C15 C -0.07073(14) 0.33761(14) 0.0540(6)
H7 H -0.0379 0.3638 -0.0442
H8 H -0.1168 0.3191 0.1237
C16 C 0.06875(15) 0.32092(14) 0.3299(6)
C17 C 0.12454(16) 0.27100(15) 0.4154(6)
C18 C -0.03753(15) 0.30763(13) 0.1112(6)
N2 N 0.03725(11) 0.29871(11) 0.2532(4)
C19 C 0.05220(16) 0.35799(15) 0.3273(6)
N3 N 0.09935(12) 0.24002(11) 0.3719(4)
C20 C 0.16805(17) 0.25912(16) 0.4869(8)
C21 C 0.00111(15) 0.32038(14) 0.1986(6)
C22 C -0.04768(15) 0.27035(14) 0.0748(6)
H9 H 0.0396 0.2743 0.2404
H10 H 0.0671 0.3793 0.3730
C23 C 0.01040(17) 0.35753(16) 0.2461(7)
C24 C 0.12467(15) 0.20891(14) 0.4182(6)
C25 C 0.16818(17) 0.22085(16) 0.4885(7)
H11 H 0.1919 0.2753 0.5252
N4 N -0.02356(11) 0.23882(11) 0.1310(4)
C26 C -0.08707(15) 0.25751(14) -0.0226(6)
H12 H -0.0088 0.3785 0.2258
C27 C 0.11077(15) 0.17140(14) 0.4074(6)
H13 H 0.1921 0.2049 0.5279
C28 C -0.04715(15) 0.20759(13) 0.0784(5)
H14 H -0.1088 0.2732 -0.0769
C29 C -0.08677(16) 0.21978(15) -0.0211(6)
C30 C 0.14149(16) 0.14155(14) 0.4815(6)
C31 C 0.06984(15) 0.15910(14) 0.3382(6)
C32 C -0.03664(15) 0.17017(13) 0.1152(5)
H15 H -0.1082 0.2036 -0.0744
C33 C 0.1734(2) 0.12610(19) 0.4430(8)
C34 C 0.1391(2) 0.1288(2) 0.5933(8)
N5 N 0.03693(12) 0.18110(11) 0.2617(4)
C35 C 0.05487(17) 0.12070(14) 0.3270(6)
C36 C 0.00184(15) 0.15842(13) 0.2032(6)
C37 C -0.06984(15) 0.14021(13) 0.0628(6)
C38 C 0.19992(19) 0.09789(18) 0.5123(7)
H16 H 0.1771 0.1350 0.3680
C39 C 0.1662(2) 0.1017(2) 0.6610(7)
H17 H 0.1180 0.1392 0.6241
H18 H 0.0405 0.2063 0.2534
H19 H 0.0709 0.0994 0.3692
C40 C 0.01360(17) 0.12000(14) 0.2452(6)
C41 C -0.0790(3) 0.1278(3) -0.0549(8)
C42 C -0.0930(3) 0.1263(3) 0.1248(11)
C43 C 0.19673(16) 0.08571(14) 0.6225(6)
H20 H 0.2208 0.0868 0.4821
H21 H 0.1636 0.0937 0.7384
H22 H -0.0041 0.0982 0.2204
C44 C -0.1092(3) 0.0985(3) -0.1035(9)
H23 H -0.0649 0.1389 -0.1071
C45 C -0.1253(4) 0.0993(3) 0.0725(11)
H24 H -0.0879 0.1347 0.2085
C46 C 0.22589(17) 0.05607(15) 0.6987(7)
C47 C -0.13260(14) 0.08473(13) -0.0372(6)
H25 H -0.1129 0.0884 -0.1845
H26 H -0.1426 0.0914 0.1202
C48 C -0.16632(15) 0.05510(13) -0.0879(7)
O2A O -0.22886(11) 0.45690(9) 0.3906(4)
O4A O -0.23560(11) 0.42954(9) 0.2100(4)
O5A O 0.17378(12) 0.04424(11) 1.2003(5)
O6A O 0.18699(10) 0.04238(9) 1.0231(4)
C1A C -0.22108(16) 0.42929(14) 0.3265(7)
O8A O 0.19397(11) 0.43024(9) 1.0682(4)
O9A O 0.14743(10) 0.45520(10) 1.1484(4)
O10A O -0.25596(12) 0.04374(10) 0.3370(4)
O11A O -0.22102(11) 0.04328(10) 0.2026(4)
C2A C -0.19524(16) 0.39679(14) 0.3986(7)
C3A C 0.15948(16) 0.42905(14) 1.0886(6)
C4A C -0.18183(18) 0.36894(15) 0.3311(7)
C5A C -0.18231(17) 0.39552(16) 0.5257(7)
C6A C 0.12932(15) 0.39592(13) 1.0454(6)
H1A H -0.1904 0.3700 0.2421
C7A C -0.15560(19) 0.33982(16) 0.3979(7)
H2A H -0.1914 0.4148 0.5698
C8A C -0.15595(17) 0.36645(16) 0.5933(7)
C9A C 0.09210(16) 0.39434(17) 1.0715(6)
C10A C 0.13879(17) 0.36756(16) 0.9729(7)
C11A C -0.14104(17) 0.33849(15) 0.5294(6)
H3A H -0.1473 0.3203 0.3529
H4A H -0.1481 0.3655 0.6822
H5A H 0.0858 0.4133 1.1225
C12A C 0.06336(17) 0.36502(16) 1.0233(6)
H6A H 0.1652 0.3682 0.9566
C13A C 0.10992(17) 0.33855(16) 0.9245(7)
C14A C -0.11034(15) 0.30823(14) 0.5981(6)
C15A C 0.07073(14) 0.33761(14) 0.9460(6)
H7A H 0.0379 0.3638 1.0442
H8A H 0.1168 0.3191 0.8763
C16A C -0.06875(15) 0.32092(14) 0.6701(6)
C17A C -0.12454(16) 0.27100(15) 0.5846(6)
C18A C 0.03753(15) 0.30763(13) 0.8888(6)
N2A N -0.03725(11) 0.29871(11) 0.7468(4)
C19A C -0.05220(16) 0.35799(15) 0.6727(6)
N3A N -0.09935(12) 0.24002(11) 0.6281(4)
C20A C -0.16805(17) 0.25912(16) 0.5131(8)
C21A C -0.00111(15) 0.32038(14) 0.8014(6)
C22A C 0.04768(15) 0.27035(14) 0.9252(6)
H9A H -0.0396 0.2743 0.7596
H10A H -0.0671 0.3793 0.6270
C23A C -0.01040(17) 0.35753(16) 0.7539(7)
C24A C -0.12467(15) 0.20891(14) 0.5818(6)
C25A C -0.16818(17) 0.22085(16) 0.5115(7)
H11A H -0.1919 0.2753 0.4748
N4A N 0.02356(11) 0.23882(11) 0.8690(4)
C26A C 0.08707(15) 0.25751(14) 1.0226(6)
H12A H 0.0088 0.3785 0.7742
C27A C -0.11077(15) 0.17140(14) 0.5926(6)
H13A H -0.1921 0.2049 0.4721
C28A C 0.04715(15) 0.20759(13) 0.9216(5)
H14A H 0.1088 0.2732 1.0769
C29A C 0.08677(16) 0.21978(15) 1.0211(6)
C30A C -0.14149(16) 0.14155(14) 0.5185(6)
C31A C -0.06984(15) 0.15910(14) 0.6618(6)
C32A C 0.03664(15) 0.17017(13) 0.8848(5)
H15A H 0.1082 0.2036 1.0744
C33A C -0.1734(2) 0.12610(19) 0.5570(8)
C34A C -0.1391(2) 0.1288(2) 0.4067(8)
N5A N -0.03693(12) 0.18110(11) 0.7383(4)
C35A C -0.05487(17) 0.12070(14) 0.6730(6)
C36A C -0.00184(15) 0.15842(13) 0.7968(6)
C37A C 0.06984(15) 0.14021(13) 0.9372(6)
C38A C -0.19992(19) 0.09789(18) 0.4877(7)
H16A H -0.1771 0.1350 0.6320
C39A C -0.1662(2) 0.1017(2) 0.3390(7)
H17A H -0.1180 0.1392 0.3759
H18A H -0.0405 0.2063 0.7466
H19A H -0.0709 0.0994 0.6308
C40A C -0.01360(17) 0.12000(14) 0.7548(6)
C41A C 0.0790(3) 0.1278(3) 1.0549(8)
C42A C 0.0930(3) 0.1263(3) 0.8752(11)
C43A C -0.19673(16) 0.08571(14) 0.3775(6)
H20A H -0.2208 0.0868 0.5179
H21A H -0.1636 0.0937 0.2616
H22A H 0.0041 0.0982 0.7796
C44A C 0.1092(3) 0.0985(3) 1.1035(9)
H23A H 0.0649 0.1389 1.1071
C45A C 0.1253(4) 0.0993(3) 0.9275(11)
H24A H 0.0879 0.1347 0.7915
C46A C -0.22589(17) 0.05607(15) 0.3013(7)
C47A C 0.13260(14) 0.08473(13) 1.0372(6)
H25A H 0.1129 0.0884 1.1845
H26A H 0.1426 0.0914 0.8798
C48A C 0.16632(15) 0.05510(13) 1.0879(7)
Pr1A Pr -0.264076(12) 0.5000 0.20977(6)
Pr1B Pr -0.235924(12) 0.0000 -0.20977(6)
Pr1C Pr 0.235924(12) 0.0000 1.20977(6)
O2E O 0.22886(11) 0.54310(9) 0.6094(4)
O4E O 0.23560(11) 0.57046(9) 0.7900(4)
O5B O 0.32622(12) 0.54424(11) 0.7997(5)
O5G O 0.32622(12) 0.45576(11) 0.7997(5)
O6B O 0.31301(10) 0.54238(9) 0.9769(4)
O6G O 0.31301(10) 0.45762(9) 0.9769(4)
Pr2A Pr -0.207775(12) 0.5000 -0.15493(6)
Pr2B Pr -0.292225(12) 0.0000 0.15493(6)
Pr2C Pr 0.292225(12) 0.0000 0.84507(6)
O8D O 0.19397(11) 0.56976(9) 1.0682(4)
O9D O 0.14743(10) 0.54480(10) 1.1484(4)
O10C O 0.24404(12) 0.54374(10) 1.3370(4)
O10F O 0.24404(12) 0.45626(10) 1.3370(4)
O11C O 0.27898(11) 0.54328(10) 1.2026(4)
O11F O 0.27898(11) 0.45672(10) 1.2026(4)
H27? H 0.1799 0.5000 1.0106
loop_
_geom_bond_atom_site_label_1
_geom_bond_atom_site_label_2
_geom_bond_site_symmetry_1
_geom_bond_site_symmetry_2
Pr1 O1 1_555 1_555
O1 Pr2 1_555 1_555
O2 Pr1 1_555 1_555
O3 Pr1 1_555 1_555
O4 Pr1 1_555 1_555
O5 C48 1_555 1_555
O6 C48 1_555 1_555
Pr2 O7 1_555 1_555
N1 O1 1_555 1_555
C1 O2 1_555 1_555
O7 N1 1_555 1_555
O8 C3 1_555 1_555
O9 C3 1_555 1_555
O10 C46 1_555 1_555
O11 C46 1_555 1_555
C2 C1 1_555 1_555
C3 C6 1_555 1_555
C4 C2 1_555 1_555
C5 C2 1_555 1_555
C6 C9 1_555 1_555
H1 C4 1_555 1_555
C7 C4 1_555 1_555
H2 C5 1_555 1_555
C8 C5 1_555 1_555
C9 H5 1_555 1_555
C10 C6 1_555 1_555
C11 C7 1_555 1_555
H3 C7 1_555 1_555
H4 C8 1_555 1_555
C12 C9 1_555 1_555
H6 C10 1_555 1_555
C13 C10 1_555 1_555
C14 C11 1_555 1_555
C15 C12 1_555 1_555
H7 C12 1_555 1_555
H8 C13 1_555 1_555
C16 C14 1_555 1_555
C17 C14 1_555 1_555
C18 C15 1_555 1_555
N2 C16 1_555 1_555
C19 C16 1_555 1_555
N3 C17 1_555 1_555
C20 C17 1_555 1_555
C21 C18 1_555 1_555
C22 C18 1_555 1_555
H9 N2 1_555 1_555
H10 C19 1_555 1_555
C23 C19 1_555 1_555
C24 N3 1_555 1_555
C25 C20 1_555 1_555
H11 C20 1_555 1_555
N4 C22 1_555 1_555
C26 C22 1_555 1_555
H12 C23 1_555 1_555
C27 C24 1_555 1_555
H13 C25 1_555 1_555
C28 N4 1_555 1_555
H14 C26 1_555 1_555
C29 C26 1_555 1_555
C30 C27 1_555 1_555
C31 C27 1_555 1_555
C32 C28 1_555 1_555
H15 C29 1_555 1_555
C33 C30 1_555 1_555
C34 C30 1_555 1_555
N5 C31 1_555 1_555
C35 C31 1_555 1_555
C36 C32 1_555 1_555
C37 C32 1_555 1_555
C38 C33 1_555 1_555
H16 C33 1_555 1_555
C39 C34 1_555 1_555
H17 C34 1_555 1_555
H18 N5 1_555 1_555
H19 C35 1_555 1_555
C40 C35 1_555 1_555
C41 C37 1_555 1_555
C42 C37 1_555 1_555
C43 C38 1_555 1_555
H20 C38 1_555 1_555
H21 C39 1_555 1_555
H22 C40 1_555 1_555
C44 C41 1_555 1_555
H23 C41 1_555 1_555
C45 C42 1_555 1_555
H24 C42 1_555 1_555
C46 C43 1_555 1_555
C47 C44 1_555 1_555
H25 C44 1_555 1_555
H26 C45 1_555 1_555
C48 C47 1_555 1_555
O2A C1A 1_555 1_555
O4A C1A 1_555 1_555
O5A C48A 1_555 1_555
O6A C48A 1_555 1_555
C1A C2A 1_555 1_555
O8A Pr2 1_555 1_555
O9A Pr2 1_555 1_555
O10A C46A 1_555 1_555
O11A C46A 1_555 1_555
C2A C4A 1_555 1_555
C3A O8A 1_555 1_555
C4A H1A 1_555 1_555
C5A C2A 1_555 1_555
C6A C3A 1_555 1_555
C7A C4A 1_555 1_555
H2A C5A 1_555 1_555
C8A C5A 1_555 1_555
C9A C6A 1_555 1_555
C10A C6A 1_555 1_555
C11A C7A 1_555 1_555
H3A C7A 1_555 1_555
H4A C8A 1_555 1_555
H5A C9A 1_555 1_555
C12A C9A 1_555 1_555
H6A C10A 1_555 1_555
C13A C10A 1_555 1_555
C14A C11A 1_555 1_555
C15A C12A 1_555 1_555
H7A C12A 1_555 1_555
H8A C13A 1_555 1_555
C16A C14A 1_555 1_555
C17A C14A 1_555 1_555
C18A C15A 1_555 1_555
N2A C16A 1_555 1_555
C19A C16A 1_555 1_555
N3A C17A 1_555 1_555
C20A C17A 1_555 1_555
C21A C18A 1_555 1_555
C22A C18A 1_555 1_555
H9A N2A 1_555 1_555
H10A C19A 1_555 1_555
C23A C19A 1_555 1_555
C24A N3A 1_555 1_555
C25A C20A 1_555 1_555
H11A C20A 1_555 1_555
N4A C22A 1_555 1_555
C26A C22A 1_555 1_555
H12A C23A 1_555 1_555
C27A C24A 1_555 1_555
H13A C25A 1_555 1_555
C28A N4A 1_555 1_555
H14A C26A 1_555 1_555
C29A C26A 1_555 1_555
C30A C27A 1_555 1_555
C31A C27A 1_555 1_555
C32A C28A 1_555 1_555
H15A C29A 1_555 1_555
C33A C30A 1_555 1_555
C34A C30A 1_555 1_555
N5A C31A 1_555 1_555
C35A C31A 1_555 1_555
C36A C32A 1_555 1_555
C37A C32A 1_555 1_555
C38A C33A 1_555 1_555
H16A C33A 1_555 1_555
C39A C34A 1_555 1_555
H17A C34A 1_555 1_555
H18A N5A 1_555 1_555
H19A C35A 1_555 1_555
C40A C35A 1_555 1_555
C41A C37A 1_555 1_555
C42A C37A 1_555 1_555
C43A C38A 1_555 1_555
H20A C38A 1_555 1_555
H21A C39A 1_555 1_555
H22A C40A 1_555 1_555
C44A C41A 1_555 1_555
H23A C41A 1_555 1_555
C45A C42A 1_555 1_555
H24A C42A 1_555 1_555
C46A C43A 1_555 1_555
C47A C44A 1_555 1_555
H25A C44A 1_555 1_555
H26A C45A 1_555 1_555
C48A C47A 1_555 1_555
Pr1A O2A 1_555 1_555
Pr1B O5 1_555 1_555
Pr1C O5A 1_555 1_555
O2E Pr1 1_555 1_555
O4E Pr1 1_555 1_555
O5B Pr1 1_555 1_555
O5G Pr1 1_555 1_555
O6B Pr1 1_555 1_555
O6G Pr1 1_555 1_555
Pr2A O8 1_555 1_555
Pr2B O10A 1_555 1_555
Pr2C O10 1_555 1_555
O8D Pr2 1_555 1_555
O9D Pr2 1_555 1_555
O10C Pr2 1_555 1_555
O10F Pr2 1_555 1_555
O11C Pr2 1_555 1_555
O11F Pr2 1_555 1_555
O3 N1 1_555 1_555
O4 C1 1_555 1_555
O6 Pr1B 1_555 1_555
O9 Pr2A 1_555 1_555
O11 Pr2C 1_555 1_555
C8 C11 1_555 1_555
C13 C15 1_555 1_555
N2 C21 1_555 1_555
C21 C23 1_555 1_555
C24 C25 1_555 1_555
C28 C29 1_555 1_555
N5 C36 1_555 1_555
C36 C40 1_555 1_555
C39 C43 1_555 1_555
C45 C47 1_555 1_555
O4A Pr1A 1_555 1_555
O6A Pr1C 1_555 1_555
O9A C3A 1_555 1_555
O11A Pr2B 1_555 1_555
C8A C11A 1_555 1_555
C13A C15A 1_555 1_555
N2A C21A 1_555 1_555
C21A C23A 1_555 1_555
C24A C25A 1_555 1_555
C28A C29A 1_555 1_555
N5A C36A 1_555 1_555
C36A C40A 1_555 1_555
C39A C43A 1_555 1_555
C45A C47A 1_555 1_555

#END
