
#######################################################################
#
#                 Cambridge Crystallographic Data Centre
#                                CCDC 
#
#######################################################################
#
# If this CIF has been generated from an entry in the Cambridge 
# Structural Database, then it will include bibliographic, chemical, 
# crystal, experimental, refinement or atomic coordinate data resulting 
# from the CCDC's data processing and validation procedures.
#
#######################################################################

data_DOMGET
_symmetry_cell_setting           monoclinic
_symmetry_space_group_name_H-M   'C 2/m'
_symmetry_Int_Tables_number      12
_space_group_name_Hall           '-C 2y'
loop_
_symmetry_equiv_pos_site_id
_symmetry_equiv_pos_as_xyz
1 x,y,z
2 -x,y,-z
3 1/2+x,1/2+y,z
4 1/2-x,1/2+y,-z
5 -x,-y,-z
6 x,-y,z
7 1/2-x,1/2-y,-z
8 1/2+x,1/2-y,z
_cell_length_a                   32.7734(13)
_cell_length_b                   34.8731(14)
_cell_length_c                   11.4924(5)
_cell_angle_alpha                90
_cell_angle_beta                 109.7290(18)
_cell_angle_gamma                90
_cell_volume                     12363.8
loop_
_atom_site_label
_atom_site_type_symbol
_atom_site_fract_x
_atom_site_fract_y
_atom_site_fract_z
Dy1 Dy 0.292314(7) 0.0000 0.20509(2)
Dy2 Dy 0.237173(7) 0.0000 -0.23206(2)
Zn1 Zn 0.536237(13) 0.261399(12) 0.29527(4)
Na1 Na 0.32388(6) 0.5000 0.00731(19)
Na2 Na 0.75203(4) 0.07731(4) 0.01261(12)
Na3 Na 0.76674(7) 0.5000 0.49117(19)
O1 O 0.73418(8) 0.04067(7) 0.3585(2)
O2 O 0.76126(8) 0.45897(7) 0.3310(2)
O3 O 0.27068(10) 0.0000 -0.0130(3)
O4 O 0.72347(8) 0.45817(7) 0.1319(2)
O5 O 0.32347(8) 0.45856(7) 0.3534(2)
O6 O 0.35080(8) 0.04085(7) 0.3275(2)
O7 O 0.31201(7) 0.45938(7) 0.1537(2)
O8 O 0.31505(11) 0.0000 -0.1216(3)
O9 O 0.73652(8) 0.06778(7) 0.1878(2)
O10 O 0.34145(11) 0.0000 0.0881(3)
O11 O 0.30661(8) 0.06781(7) 0.1598(2)
O12 O 0.68634(14) 0.5000 0.4414(4)
H1 H 0.6761 0.5221 0.4850
O13 O 0.75959(13) 0.14060(9) 0.0065(3)
O14 O 0.84389(17) 0.5000 0.5412(5)
O15 O 0.51342(18) 0.25597(11) 0.1033(3)
N1 N 0.53963(9) 0.20287(8) 0.3301(3)
N2 N 0.47776(9) 0.26240(8) 0.3271(3)
N3 N 0.60268(9) 0.26146(8) 0.3307(3)
N4 N 0.53851(9) 0.32029(8) 0.3085(3)
N5 N 0.31085(16) 0.0000 -0.0171(5)
C1 C 0.70080(11) 0.41636(10) 0.2629(3)
C2 C 0.33257(11) 0.44698(10) 0.2617(3)
C3 C 0.57257(11) 0.17937(10) 0.3253(3)
C4 C 0.50413(11) 0.34392(10) 0.3005(3)
C5 C 0.73001(11) 0.44626(10) 0.2412(3)
C6 C 0.34054(11) 0.06893(10) 0.2534(3)
C7 C 0.37035(11) 0.10271(10) 0.2746(4)
C8 C 0.62821(11) 0.29291(11) 0.3352(4)
C9 C 0.46404(11) 0.19272(11) 0.3196(3)
C10 C 0.50419(12) 0.17988(10) 0.3153(3)
C11 C 0.43142(11) 0.36235(10) 0.3029(3)
C12 C 0.51530(12) 0.38324(10) 0.2821(4)
H2 H 0.4972 0.4051 0.2722
C13 C 0.61342(11) 0.33097(10) 0.3130(3)
C14 C 0.45344(11) 0.23127(10) 0.3336(3)
C15 C 0.72498(11) 0.06833(10) 0.2815(3)
C16 C 0.61437(12) 0.19146(11) 0.3348(4)
C17 C 0.69896(11) 0.10127(10) 0.3014(3)
C18 C 0.64444(11) 0.36057(10) 0.2979(4)
C19 C 0.45457(11) 0.29431(11) 0.3348(3)
C20 C 0.46508(11) 0.33213(10) 0.3150(3)
C21 C 0.57132(11) 0.34349(10) 0.2981(3)
C22 C 0.36753(11) 0.41807(10) 0.2784(3)
C23 C 0.62857(11) 0.22980(11) 0.3440(4)
C24 C 0.55679(12) 0.38274(11) 0.2816(4)
H3 H 0.5731 0.4043 0.2721
C25 C 0.43023(12) 0.16282(11) 0.3069(4)
C26 C 0.51519(13) 0.14084(11) 0.2977(4)
H4 H 0.4963 0.1194 0.2841
C27 C 0.64581(12) 0.16111(10) 0.3289(4)
C28 C 0.40737(12) 0.10337(11) 0.3760(4)
H5 H 0.4128 0.0834 0.4355
C29 C 0.70336(13) 0.40551(12) 0.3792(4)
H6 H 0.7244 0.4169 0.4489
C30 C 0.68754(14) 0.13115(11) 0.2167(4)
H7 H 0.6979 0.1313 0.1488
C31 C 0.55673(13) 0.14020(11) 0.3040(4)
H8 H 0.5728 0.1183 0.2961
C32 C 0.41546(12) 0.28244(11) 0.3568(4)
H9 H 0.3942 0.2988 0.3695
C33 C 0.43707(12) 0.13327(12) 0.3923(4)
H10 H 0.4625 0.1334 0.4633
C34 C 0.41495(12) 0.24389(12) 0.3557(4)
H11 H 0.3932 0.2279 0.3675
C35 C 0.36171(13) 0.13308(12) 0.1914(4)
H12 H 0.3356 0.1333 0.1226
C36 C 0.68529(12) 0.10230(11) 0.4036(4)
H13 H 0.6942 0.0828 0.4648
C37 C 0.67540(14) 0.37787(13) 0.3967(4)
H14 H 0.6777 0.3707 0.4784
C38 C 0.66138(14) 0.16064(12) 0.2295(4)
H15 H 0.6539 0.1808 0.1705
C39 C 0.67254(13) 0.24218(12) 0.3641(4)
H16 H 0.6972 0.2261 0.3795
C40 C 0.65864(12) 0.13182(11) 0.4161(4)
H17 H 0.6490 0.1320 0.4853
C41 C 0.38843(16) 0.40150(14) 0.3901(4)
H18 H 0.3813 0.4091 0.4603
C42 C 0.39113(13) 0.16309(12) 0.2083(4)
H19 H 0.3845 0.1840 0.1520
C43 C 0.67223(12) 0.28064(12) 0.3572(4)
H20 H 0.6964 0.2967 0.3653
C44 C 0.42022(15) 0.37344(14) 0.4031(4)
H21 H 0.4341 0.3620 0.4815
C45 C 0.67047(18) 0.39879(19) 0.1636(4)
H22 H 0.6684 0.4058 0.0819
C46 C 0.5000 0.2648(2) 0.0000
C47 C 0.38010(17) 0.40826(17) 0.1787(4)
H23 H 0.3675 0.4208 0.1016
C48 C 0.64304(18) 0.37098(18) 0.1818(4)
H24 H 0.6228 0.3589 0.1121
C49 C 0.41108(18) 0.38009(18) 0.1917(5)
H25 H 0.4185 0.3728 0.1217
H1E H 0.6761 0.4779 0.4850
O15A O 0.48658(18) 0.25597(11) -0.1033(3)
Zn1A Zn 0.463763(13) 0.261399(12) -0.29527(4)
Na2A Na 0.24797(4) 0.07731(4) -0.01261(12)
O1A O 0.26582(8) 0.04067(7) -0.3585(2)
O2A O 0.23874(8) 0.45897(7) -0.3310(2)
O4A O 0.27653(8) 0.45817(7) -0.1319(2)
O5A O 0.67653(8) 0.45856(7) -0.3534(2)
O6A O 0.64920(8) 0.04085(7) -0.3275(2)
O7A O 0.68799(7) 0.45938(7) -0.1537(2)
O9A O 0.26348(8) 0.06778(7) -0.1878(2)
O11A O 0.69339(8) 0.06781(7) -0.1598(2)
O13A O 0.24041(13) 0.14060(9) -0.0065(3)
N1A N 0.46037(9) 0.20287(8) -0.3301(3)
N2A N 0.52224(9) 0.26240(8) -0.3271(3)
N3A N 0.39732(9) 0.26146(8) -0.3307(3)
N4A N 0.46149(9) 0.32029(8) -0.3085(3)
C1A C 0.29920(11) 0.41636(10) -0.2629(3)
C2A C 0.66743(11) 0.44698(10) -0.2617(3)
C3A C 0.42743(11) 0.17937(10) -0.3253(3)
C4A C 0.49587(11) 0.34392(10) -0.3005(3)
C5A C 0.26999(11) 0.44626(10) -0.2412(3)
C6A C 0.65946(11) 0.06893(10) -0.2534(3)
C7A C 0.62965(11) 0.10271(10) -0.2746(4)
C8A C 0.37179(11) 0.29291(11) -0.3352(4)
C9A C 0.53596(11) 0.19272(11) -0.3196(3)
C10A C 0.49581(12) 0.17988(10) -0.3153(3)
C11A C 0.56858(11) 0.36235(10) -0.3029(3)
C12A C 0.48470(12) 0.38324(10) -0.2821(4)
H2A H 0.5028 0.4051 -0.2722
C13A C 0.38658(11) 0.33097(10) -0.3130(3)
C14A C 0.54656(11) 0.23127(10) -0.3336(3)
C15A C 0.27502(11) 0.06833(10) -0.2815(3)
C16A C 0.38563(12) 0.19146(11) -0.3348(4)
C17A C 0.30104(11) 0.10127(10) -0.3014(3)
C18A C 0.35556(11) 0.36057(10) -0.2979(4)
C19A C 0.54543(11) 0.29431(11) -0.3348(3)
C20A C 0.53492(11) 0.33213(10) -0.3150(3)
C21A C 0.42868(11) 0.34349(10) -0.2981(3)
C22A C 0.63247(11) 0.41807(10) -0.2784(3)
C23A C 0.37143(11) 0.22980(11) -0.3440(4)
C24A C 0.44321(12) 0.38274(11) -0.2816(4)
H3A H 0.4269 0.4043 -0.2721
C25A C 0.56977(12) 0.16282(11) -0.3069(4)
C26A C 0.48481(13) 0.14084(11) -0.2977(4)
H4A H 0.5037 0.1194 -0.2841
C27A C 0.35419(12) 0.16111(10) -0.3289(4)
C28A C 0.59263(12) 0.10337(11) -0.3760(4)
H5A H 0.5872 0.0834 -0.4355
C29A C 0.29664(13) 0.40551(12) -0.3792(4)
H6A H 0.2756 0.4169 -0.4489
C30A C 0.31246(14) 0.13115(11) -0.2167(4)
H7A H 0.3021 0.1313 -0.1488
C31A C 0.44327(13) 0.14020(11) -0.3040(4)
H8A H 0.4272 0.1183 -0.2961
C32A C 0.58454(12) 0.28244(11) -0.3568(4)
H9A H 0.6058 0.2988 -0.3695
C33A C 0.56293(12) 0.13327(12) -0.3923(4)
H10A H 0.5375 0.1334 -0.4633
C34A C 0.58505(12) 0.24389(12) -0.3557(4)
H11A H 0.6068 0.2279 -0.3675
C35A C 0.63829(13) 0.13308(12) -0.1914(4)
H12A H 0.6644 0.1333 -0.1226
C36A C 0.31471(12) 0.10230(11) -0.4036(4)
H13A H 0.3058 0.0828 -0.4648
C37A C 0.32460(14) 0.37787(13) -0.3967(4)
H14A H 0.3223 0.3707 -0.4784
C38A C 0.33862(14) 0.16064(12) -0.2295(4)
H15A H 0.3461 0.1808 -0.1705
C39A C 0.32746(13) 0.24218(12) -0.3641(4)
H16A H 0.3028 0.2261 -0.3795
C40A C 0.34136(12) 0.13182(11) -0.4161(4)
H17A H 0.3510 0.1320 -0.4853
C41A C 0.61157(16) 0.40150(14) -0.3901(4)
H18A H 0.6187 0.4091 -0.4603
C42A C 0.60887(13) 0.16309(12) -0.2083(4)
H19A H 0.6155 0.1840 -0.1520
C43A C 0.32777(12) 0.28064(12) -0.3572(4)
H20A H 0.3036 0.2967 -0.3653
C44A C 0.57978(15) 0.37344(14) -0.4031(4)
H21A H 0.5659 0.3620 -0.4815
C45A C 0.32953(18) 0.39879(19) -0.1636(4)
H22A H 0.3316 0.4058 -0.0819
C47A C 0.61990(17) 0.40826(17) -0.1787(4)
H23A H 0.6325 0.4208 -0.1016
C48A C 0.35696(18) 0.37098(18) -0.1818(4)
H24A H 0.3772 0.3589 -0.1121
C49A C 0.58892(18) 0.38009(18) -0.1917(5)
H25A H 0.5815 0.3728 -0.1217
Dy1A Dy 0.707686(7) 0.0000 -0.20509(2)
Dy1B Dy 0.792314(7) 0.5000 0.20509(2)
Dy1C Dy 0.207686(7) 0.5000 -0.20509(2)
Dy2A Dy 0.762827(7) 0.0000 0.23206(2)
Dy2B Dy 0.737173(7) 0.5000 -0.23206(2)
Dy2C Dy 0.262827(7) 0.5000 0.23206(2)
Na1A Na 0.67612(6) 0.5000 -0.00731(19)
Na2D Na 0.24797(4) -0.07731(4) -0.01261(12)
Na2F Na 0.74797(4) 0.42269(4) -0.01261(12)
Na2G Na 0.25203(4) 0.42269(4) 0.01261(12)
Na3A Na 0.23326(7) 0.5000 -0.49117(19)
Na3B Na 0.26674(7) 0.0000 -0.50883(19)
Na3C Na 0.73326(7) 0.0000 0.50883(19)
O1C O 0.76582(8) 0.54067(7) 0.6415(2)
O1D O 0.26582(8) -0.04067(7) -0.3585(2)
O1F O 0.76582(8) 0.45933(7) 0.6415(2)
O2B O 0.26126(8) -0.04103(7) 0.3310(2)
O2E O 0.76126(8) 0.54103(7) 0.3310(2)
O2G O 0.26126(8) 0.04103(7) 0.3310(2)
O3A O 0.72932(10) 0.0000 0.0130(3)
O4B O 0.22347(8) -0.04183(7) 0.1319(2)
O4D O 0.27653(8) 0.54183(7) -0.1319(2)
O4F O 0.77653(8) 0.04183(7) -0.1319(2)
O4G O 0.22347(8) 0.04183(7) 0.1319(2)
O5C O 0.17653(8) -0.04144(7) -0.3534(2)
O5F O 0.17653(8) 0.04144(7) -0.3534(2)
O6E O 0.35080(8) -0.04085(7) 0.3275(2)
O7C O 0.18799(7) -0.04062(7) -0.1537(2)
O7E O 0.31201(7) 0.54062(7) 0.1537(2)
O7F O 0.18799(7) 0.04062(7) -0.1537(2)
O7G O 0.81201(7) 0.04062(7) 0.1537(2)
O9D O 0.26348(8) -0.06778(7) -0.1878(2)
O11E O 0.30661(8) -0.06781(7) 0.1598(2)
loop_
_geom_bond_atom_site_label_1
_geom_bond_atom_site_label_2
_geom_bond_site_symmetry_1
_geom_bond_site_symmetry_2
Dy1 O3 1_555 1_555
Dy2 O3 1_555 1_555
Zn1 O15 1_555 1_555
Na1 O7 1_555 1_555
Na2 O9 1_555 1_555
Na3 O2 1_555 1_555
O1 C15 1_555 1_555
O2 C5 1_555 1_555
O3 N5 1_555 1_555
O4 C5 1_555 1_555
O5 C2 1_555 1_555
O6 Dy1 1_555 1_555
O7 C2 1_555 1_555
O8 Dy2 1_555 1_555
O9 C15 1_555 1_555
O10 Dy1 1_555 1_555
O11 Dy1 1_555 1_555
O12 Na3 1_555 1_555
H1 O12 1_555 1_555
O13 Na2 1_555 1_555
O14 Na3 1_555 1_555
O15 C46 1_555 1_555
N1 Zn1 1_555 1_555
N2 Zn1 1_555 1_555
N3 Zn1 1_555 1_555
N4 Zn1 1_555 1_555
N5 O8 1_555 1_555
C1 C5 1_555 1_555
C2 C22 1_555 1_555
C3 N1 1_555 1_555
C4 N4 1_555 1_555
C6 O6 1_555 1_555
C7 C6 1_555 1_555
C8 N3 1_555 1_555
C9 C10 1_555 1_555
C10 N1 1_555 1_555
C11 C20 1_555 1_555
C12 C4 1_555 1_555
H2 C12 1_555 1_555
C13 C8 1_555 1_555
C14 N2 1_555 1_555
C15 C17 1_555 1_555
C16 C3 1_555 1_555
C17 C30 1_555 1_555
C18 C13 1_555 1_555
C19 N2 1_555 1_555
C20 C4 1_555 1_555
C21 N4 1_555 1_555
C22 C41 1_555 1_555
C23 N3 1_555 1_555
C24 C12 1_555 1_555
H3 C24 1_555 1_555
C25 C9 1_555 1_555
C26 C10 1_555 1_555
H4 C26 1_555 1_555
C27 C16 1_555 1_555
C28 C7 1_555 1_555
H5 C28 1_555 1_555
C29 C1 1_555 1_555
H6 C29 1_555 1_555
C30 H7 1_555 1_555
C31 C3 1_555 1_555
H8 C31 1_555 1_555
C32 C19 1_555 1_555
H9 C32 1_555 1_555
C33 C25 1_555 1_555
H10 C33 1_555 1_555
C34 C14 1_555 1_555
H11 C34 1_555 1_555
C35 C7 1_555 1_555
H12 C35 1_555 1_555
C36 C17 1_555 1_555
H13 C36 1_555 1_555
C37 C18 1_555 1_555
H14 C37 1_555 1_555
C38 C27 1_555 1_555
H15 C38 1_555 1_555
C39 C23 1_555 1_555
H16 C39 1_555 1_555
C40 C27 1_555 1_555
H17 C40 1_555 1_555
C41 H18 1_555 1_555
C42 C25 1_555 1_555
H19 C42 1_555 1_555
C43 C8 1_555 1_555
H20 C43 1_555 1_555
C44 C11 1_555 1_555
H21 C44 1_555 1_555
C45 C1 1_555 1_555
H22 C45 1_555 1_555
C46 O15A 1_555 1_555
C47 C22 1_555 1_555
H23 C47 1_555 1_555
C48 C18 1_555 1_555
H24 C48 1_555 1_555
C49 C11 1_555 1_555
H25 C49 1_555 1_555
H1E O12 1_555 1_555
O15A Zn1A 1_555 1_555
Zn1A N1A 1_555 1_555
Na2A O3 1_555 1_555
O1A Dy2 1_555 1_555
O2A C5A 1_555 1_555
O4A Na1 1_555 1_555
O5A C2A 1_555 1_555
O6A C6A 1_555 1_555
O7A C2A 1_555 1_555
O9A Dy2 1_555 1_555
O11A Na2 1_555 1_555
O13A Na2A 1_555 1_555
N1A C3A 1_555 1_555
N2A Zn1A 1_555 1_555
N3A Zn1A 1_555 1_555
N4A Zn1A 1_555 1_555
C1A C5A 1_555 1_555
C2A C22A 1_555 1_555
C3A C16A 1_555 1_555
C4A N4A 1_555 1_555
C5A O4A 1_555 1_555
C6A O11A 1_555 1_555
C7A C6A 1_555 1_555
C8A N3A 1_555 1_555
C9A C10A 1_555 1_555
C10A N1A 1_555 1_555
C11A C20A 1_555 1_555
C12A C4A 1_555 1_555
H2A C12A 1_555 1_555
C13A C8A 1_555 1_555
C14A N2A 1_555 1_555
C15A O1A 1_555 1_555
C16A C23A 1_555 1_555
C17A C15A 1_555 1_555
C18A C13A 1_555 1_555
C19A N2A 1_555 1_555
C20A C4A 1_555 1_555
C21A N4A 1_555 1_555
C22A C41A 1_555 1_555
C23A N3A 1_555 1_555
C24A C12A 1_555 1_555
H3A C24A 1_555 1_555
C25A C9A 1_555 1_555
C26A C10A 1_555 1_555
H4A C26A 1_555 1_555
C27A C16A 1_555 1_555
C28A C7A 1_555 1_555
H5A C28A 1_555 1_555
C29A C1A 1_555 1_555
H6A C29A 1_555 1_555
C30A C17A 1_555 1_555
H7A C30A 1_555 1_555
C31A C3A 1_555 1_555
H8A C31A 1_555 1_555
C32A C19A 1_555 1_555
H9A C32A 1_555 1_555
C33A C25A 1_555 1_555
H10A C33A 1_555 1_555
C34A C14A 1_555 1_555
H11A C34A 1_555 1_555
C35A C7A 1_555 1_555
H12A C35A 1_555 1_555
C36A C17A 1_555 1_555
H13A C36A 1_555 1_555
C37A C18A 1_555 1_555
H14A C37A 1_555 1_555
C38A C27A 1_555 1_555
H15A C38A 1_555 1_555
C39A C23A 1_555 1_555
H16A C39A 1_555 1_555
C40A C27A 1_555 1_555
H17A C40A 1_555 1_555
C41A H18A 1_555 1_555
C42A C25A 1_555 1_555
H19A C42A 1_555 1_555
C43A C8A 1_555 1_555
H20A C43A 1_555 1_555
C44A C11A 1_555 1_555
H21A C44A 1_555 1_555
C45A C1A 1_555 1_555
H22A C45A 1_555 1_555
C47A C22A 1_555 1_555
H23A C47A 1_555 1_555
C48A C18A 1_555 1_555
H24A C48A 1_555 1_555
C49A C11A 1_555 1_555
H25A C49A 1_555 1_555
Dy1A O6A 1_555 1_555
Dy1B O2 1_555 1_555
Dy1C O2A 1_555 1_555
Dy2A O1 1_555 1_555
Dy2B O5A 1_555 1_555
Dy2C O5 1_555 1_555
Na1A O4 1_555 1_555
Na2D O3 1_555 1_555
Na2F O4 1_555 1_555
Na2G O7 1_555 1_555
Na3A O2A 1_555 1_555
Na3B O1A 1_555 1_555
Na3C O1 1_555 1_555
O1C Na3 1_555 1_555
O1D Dy2 1_555 1_555
O1F Na3 1_555 1_555
O2B Dy1 1_555 1_555
O2E Na3 1_555 1_555
O2G Dy1 1_555 1_555
O3A Na2 1_555 1_555
O4B Dy1 1_555 1_555
O4D Na1 1_555 1_555
O4F Na2 1_555 1_555
O4G Dy1 1_555 1_555
O5C Dy2 1_555 1_555
O5F Dy2 1_555 1_555
O6E Dy1 1_555 1_555
O7C Dy2 1_555 1_555
O7E Na1 1_555 1_555
O7F Dy2 1_555 1_555
O7G Na2 1_555 1_555
O9D Dy2 1_555 1_555
O11E Dy1 1_555 1_555
O4 Dy1B 1_555 1_555
O7 Dy2C 1_555 1_555
O9 Dy2A 1_555 1_555
O10 N5 1_555 1_555
O11 C6 1_555 1_555
O11 Na2A 1_555 1_555
C9 C14 1_555 1_555
C13 C21 1_555 1_555
C16 C23 1_555 1_555
C19 C20 1_555 1_555
C21 C24 1_555 1_555
C26 C31 1_555 1_555
C28 C33 1_555 1_555
C29 C37 1_555 1_555
C30 C38 1_555 1_555
C32 C34 1_555 1_555
C35 C42 1_555 1_555
C36 C40 1_555 1_555
C39 C43 1_555 1_555
C41 C44 1_555 1_555
C45 C48 1_555 1_555
C47 C49 1_555 1_555
Na2A O9A 1_555 1_555
Na2A O4G 1_555 1_555
Na2A O7F 1_555 1_555
O4A Dy1C 1_555 1_555
O4A Na2G 1_555 1_555
O7A Dy2B 1_555 1_555
O7A Na1A 1_555 1_555
O7A Na2F 1_555 1_555
O9A C15A 1_555 1_555
O11A Dy1A 1_555 1_555
C9A C14A 1_555 1_555
C13A C21A 1_555 1_555
C19A C20A 1_555 1_555
C21A C24A 1_555 1_555
C26A C31A 1_555 1_555
C28A C33A 1_555 1_555
C29A C37A 1_555 1_555
C30A C38A 1_555 1_555
C32A C34A 1_555 1_555
C35A C42A 1_555 1_555
C36A C40A 1_555 1_555
C39A C43A 1_555 1_555
C41A C44A 1_555 1_555
C45A C48A 1_555 1_555
C47A C49A 1_555 1_555
Dy1A O3A 1_555 1_555
Dy1A O4F 1_555 1_555
Dy1B O2E 1_555 1_555
Dy1C O4D 1_555 1_555
Dy2A O3A 1_555 1_555
Dy2A O7G 1_555 1_555
Dy2C O7E 1_555 1_555
Na2D O4B 1_555 1_555
Na2D O7C 1_555 1_555
Na2D O9D 1_555 1_555
Na2D O11E 1_555 1_555
Na3B O1D 1_555 1_555

#END
