
#######################################################################
#
#                 Cambridge Crystallographic Data Centre
#                                CCDC 
#
#######################################################################
#
# If this CIF has been generated from an entry in the Cambridge 
# Structural Database, then it will include bibliographic, chemical, 
# crystal, experimental, refinement or atomic coordinate data resulting 
# from the CCDC's data processing and validation procedures.
#
#######################################################################

data_DOMJEV
_symmetry_cell_setting           triclinic
_symmetry_space_group_name_H-M   'P -1'
_symmetry_Int_Tables_number      2
_space_group_name_Hall           '-P 1'
loop_
_symmetry_equiv_pos_site_id
_symmetry_equiv_pos_as_xyz
1 x,y,z
2 -x,-y,-z
_cell_length_a                   9.7780(12)
_cell_length_b                   16.147(4)
_cell_length_c                   16.211(5)
_cell_angle_alpha                89.47(2)
_cell_angle_beta                 103.855(16)
_cell_angle_gamma                105.407(16)
_cell_volume                     2391.66
loop_
_atom_site_label
_atom_site_type_symbol
_atom_site_fract_x
_atom_site_fract_y
_atom_site_fract_z
Ag1 Ag 0.85424(4) 0.22563(3) 0.73145(2)
P1 P 0.57988(13) 0.18232(8) 0.69060(8)
P2 P 0.95721(13) 0.23125(8) 0.88326(8)
N1 N 0.9207(4) 0.1388(3) 0.6407(3)
N2 N 0.9079(4) 0.3461(3) 0.6488(3)
O1 O 0.6848(3) 0.0921(2) 0.84529(19)
C1 C 0.5073(5) 0.2572(3) 0.7397(3)
C2 C 0.5902(6) 0.3413(3) 0.7591(3)
H1 H 0.6813 0.3584 0.7467
C3 C 0.5413(6) 0.4012(4) 0.7967(4)
H2 H 0.5995 0.4575 0.8093
C4 C 0.4072(7) 0.3770(4) 0.8150(4)
H3 H 0.3739 0.4165 0.8406
C5 C 0.3216(8) 0.2930(4) 0.7950(5)
H4 H 0.2308 0.2762 0.8079
C6 C 0.3691(6) 0.2333(4) 0.7561(4)
H5 H 0.3089 0.1777 0.7412
C7 C 0.4964(5) 0.1809(3) 0.5764(3)
C8 C 0.5290(6) 0.1268(4) 0.5221(3)
H6 H 0.5858 0.0901 0.5444
C9 C 0.4767(6) 0.1275(4) 0.4346(4)
H7 H 0.4976 0.0911 0.3981
C10 C 0.3935(7) 0.1825(4) 0.4025(4)
H8 H 0.3576 0.1827 0.3440
C11 C 0.3629(6) 0.2367(4) 0.4551(4)
H9 H 0.3077 0.2740 0.4321
C12 C 0.4136(6) 0.2365(4) 0.5426(3)
H10 H 0.3923 0.2734 0.5784
C13 C 0.4870(5) 0.0760(3) 0.7202(3)
C14 C 0.3523(5) 0.0241(3) 0.6696(3)
H11 H 0.3071 0.0441 0.6192
C15 C 0.2883(5) -0.0554(3) 0.6943(3)
H12 H 0.1989 -0.0880 0.6613
C16 C 0.3560(6) -0.0879(3) 0.7686(3)
H13 H 0.3129 -0.1423 0.7846
C17 C 0.4872(5) -0.0386(3) 0.8180(3)
H14 H 0.5340 -0.0599 0.8670
C18 C 0.5488(5) 0.0422(3) 0.7946(3)
C19 C 0.6833(5) 0.1491(3) 0.9087(3)
C20 C 0.5614(5) 0.1403(3) 0.9415(3)
H15 H 0.4757 0.0973 0.9194
C21 C 0.5701(6) 0.1968(3) 1.0075(3)
H16 H 0.4889 0.1923 1.0294
C22 C 0.6984(6) 0.2599(3) 1.0412(3)
H17 H 0.7047 0.2957 1.0874
C23 C 0.8164(5) 0.2697(3) 1.0066(3)
H18 H 0.9010 0.3136 1.0284
C24 C 0.8118(5) 0.2146(3) 0.9388(3)
C25 C 1.0543(5) 0.1506(3) 0.9241(3)
C26 C 1.0884(5) 0.1337(3) 1.0092(3)
H19 H 1.0608 0.1631 1.0487
C27 C 1.1647(5) 0.0721(3) 1.0357(3)
H20 H 1.1894 0.0614 1.0930
C28 C 1.2034(5) 0.0274(3) 0.9769(4)
H21 H 1.2533 -0.0137 0.9949
C29 C 1.1690(5) 0.0431(4) 0.8927(4)
H22 H 1.1945 0.0123 0.8533
C30 C 1.0951(5) 0.1057(3) 0.8658(3)
H23 H 1.0734 0.1172 0.8085
C31 C 1.0806(5) 0.3365(3) 0.9288(3)
C32 C 1.2124(6) 0.3468(3) 0.9878(3)
H24 H 1.2426 0.2988 1.0082
C33 C 1.3002(6) 0.4291(4) 1.0167(3)
H25 H 1.3882 0.4358 1.0572
C34 C 1.2582(6) 0.5012(3) 0.9860(3)
H26 H 1.3184 0.5560 1.0051
C35 C 1.1278(6) 0.4914(4) 0.9273(4)
H27 H 1.0986 0.5397 0.9071
C36 C 1.0390(6) 0.4100(3) 0.8979(3)
H28 H 0.9512 0.4039 0.8574
C37 C 0.8874(6) 0.0528(4) 0.6461(3)
H29 H 0.8411 0.0297 0.6882
C38 C 0.9168(6) -0.0034(4) 0.5936(3)
H30 H 0.8925 -0.0622 0.6014
C39 C 0.9831(5) 0.0291(3) 0.5291(3)
C40 C 1.0155(6) 0.1170(3) 0.5226(3)
H31 H 1.0584 0.1417 0.4797
C41 C 0.9850(6) 0.1692(4) 0.5794(3)
H32 H 1.0109 0.2284 0.5741
C42 C 1.0248(8) 0.4094(5) 0.6653(4)
H33 H 1.0886 0.4131 0.7187
C43 C 1.0629(9) 0.4718(5) 0.6106(4)
H34 H 1.1466 0.5172 0.6288
C44 C 0.9800(5) 0.4675(3) 0.5311(3)
C45 C 0.8569(7) 0.4021(5) 0.5124(5)
H35 H 0.7920 0.3972 0.4591
C46 C 0.8259(7) 0.3423(5) 0.5714(5)
H36 H 0.7418 0.2968 0.5553
Ag1A Ag 1.14576(4) -0.22563(3) 0.26855(2)
Ag1A_2 Ag 1.14576(4) 0.77437(3) 0.26855(2)
P1A P 1.42012(13) -0.18232(8) 0.30940(8)
P2A P 1.04279(13) -0.23125(8) 0.11674(8)
N1A N 1.0793(4) -0.1388(3) 0.3593(3)
N2A N 1.0921(4) 0.6539(3) 0.3512(3)
N2A_2 N 1.0921(4) -0.3461(3) 0.3512(3)
O1A O 1.3152(3) -0.0921(2) 0.15471(19)
C1A C 1.4927(5) -0.2572(3) 0.2603(3)
C2A C 1.4098(6) -0.3413(3) 0.2409(3)
H1A H 1.3187 -0.3584 0.2533
C3A C 1.4587(6) -0.4012(4) 0.2033(4)
H2A H 1.4005 -0.4575 0.1907
C4A C 1.5928(7) -0.3770(4) 0.1850(4)
H3A H 1.6261 -0.4165 0.1594
C5A C 1.6784(8) -0.2930(4) 0.2050(5)
H4A H 1.7692 -0.2762 0.1921
C6A C 1.6309(6) -0.2333(4) 0.2439(4)
H5A H 1.6911 -0.1777 0.2588
C7A C 1.5036(5) -0.1809(3) 0.4236(3)
C8A C 1.4710(6) -0.1268(4) 0.4779(3)
H6A H 1.4142 -0.0901 0.4556
C9A C 1.5233(6) -0.1275(4) 0.5654(4)
H7A H 1.5024 -0.0911 0.6019
C10A C 1.6065(7) -0.1825(4) 0.5975(4)
H8A H 1.6424 -0.1827 0.6560
C11A C 1.6371(6) -0.2367(4) 0.5449(4)
H9A H 1.6923 -0.2740 0.5679
C12A C 1.5864(6) -0.2365(4) 0.4574(3)
H10A H 1.6077 -0.2734 0.4216
C13A C 1.5130(5) -0.0760(3) 0.2798(3)
C14A C 1.6477(5) -0.0241(3) 0.3304(3)
H11A H 1.6929 -0.0441 0.3808
C15A C 1.7117(5) 0.0554(3) 0.3057(3)
H12A H 1.8011 0.0880 0.3387
C16A C 1.6440(6) 0.0879(3) 0.2314(3)
H13A H 1.6871 0.1423 0.2154
C17A C 1.5128(5) 0.0386(3) 0.1820(3)
H14A H 1.4660 0.0599 0.1330
C18A C 1.4512(5) -0.0422(3) 0.2054(3)
C19A C 1.3167(5) -0.1491(3) 0.0913(3)
C20A C 1.4386(5) -0.1403(3) 0.0585(3)
H15A H 1.5243 -0.0973 0.0806
C21A C 1.4299(6) -0.1968(3) -0.0075(3)
H16A H 1.5111 -0.1923 -0.0294
C22A C 1.3016(6) -0.2599(3) -0.0412(3)
H17A H 1.2953 -0.2957 -0.0874
C23A C 1.1836(5) -0.2697(3) -0.0066(3)
H18A H 1.0990 -0.3136 -0.0284
C24A C 1.1882(5) -0.2146(3) 0.0612(3)
C25A C 0.9457(5) -0.1506(3) 0.0759(3)
C26A C 0.9116(5) -0.1337(3) -0.0092(3)
H19A H 0.9392 -0.1631 -0.0487
C27A C 0.8353(5) -0.0721(3) -0.0357(3)
H20A H 0.8106 -0.0614 -0.0930
C28A C 0.7966(5) -0.0274(3) 0.0231(4)
H21A H 0.7467 0.0137 0.0051
C29A C 0.8310(5) -0.0431(4) 0.1073(4)
H22A H 0.8055 -0.0123 0.1467
C30A C 0.9049(5) -0.1057(3) 0.1342(3)
H23A H 0.9266 -0.1172 0.1915
C31A C 0.9194(5) -0.3365(3) 0.0712(3)
C32A C 0.7876(6) -0.3468(3) 0.0122(3)
H24A H 0.7574 -0.2988 -0.0082
C33A C 0.6998(6) -0.4291(4) -0.0167(3)
H25A H 0.6118 -0.4358 -0.0572
C34A C 0.7418(6) -0.5012(3) 0.0140(3)
H26A H 0.6816 -0.5560 -0.0051
C35A C 0.8722(6) -0.4914(4) 0.0727(4)
H27A H 0.9014 -0.5397 0.0929
C36A C 0.9610(6) -0.4100(3) 0.1021(3)
H28A H 1.0488 -0.4039 0.1426
C37A C 1.1126(6) -0.0528(4) 0.3539(3)
H29A H 1.1589 -0.0297 0.3118
C38A C 1.0832(6) 0.0034(4) 0.4064(3)
H30A H 1.1075 0.0622 0.3986
C39A C 1.0169(5) -0.0291(3) 0.4709(3)
C40A C 0.9845(6) -0.1170(3) 0.4774(3)
H31A H 0.9416 -0.1417 0.5203
C41A C 1.0150(6) -0.1692(4) 0.4206(3)
H32A H 0.9891 -0.2284 0.4259
C42A C 0.9752(8) 0.5906(5) 0.3347(4)
H33A H 0.9114 0.5869 0.2813
C43A C 0.9371(9) 0.5282(5) 0.3894(4)
H34A H 0.8534 0.4828 0.3712
C44A C 1.0200(5) 0.5325(3) 0.4689(3)
C45A C 1.1431(7) 0.5979(5) 0.4876(5)
H35A H 1.2080 0.6028 0.5409
C46A C 1.1741(7) 0.6577(5) 0.4286(5)
H36A H 1.2582 0.7032 0.4447
Cl1 Cl 0.62980(17) 0.41214(9) 0.21054(10)
Cl2 Cl 0.40719(14) 0.24676(9) 0.18067(8)
C47 C 0.5469(5) 0.3201(4) 0.2577(3)
H37 H 0.5049 0.3370 0.3011
H38 H 0.6205 0.2918 0.2851
S1 S 0.00581(15) 0.28792(10) 0.33586(10)
F1 F 0.2415(4) 0.3599(2) 0.2838(2)
F2 F 0.0836(5) 0.4332(3) 0.2626(4)
F3 F 0.0444(5) 0.3196(4) 0.1845(3)
O2 O -0.1425(4) 0.2914(3) 0.3068(4)
O3 O 0.0823(5) 0.3333(3) 0.4170(3)
O4 O 0.0308(4) 0.2052(3) 0.3245(3)
C49 C 0.0974(7) 0.3525(4) 0.2625(5)
Cl3? Cl 0.5289(3) 0.50871(16) 0.41496(16)
C48? C 0.3942(14) 0.5002(11) 0.4669(10)
H39? H 0.3141 0.4497 0.4444
H40? H 0.3569 0.5504 0.4584
loop_
_geom_bond_atom_site_label_1
_geom_bond_atom_site_label_2
_geom_bond_site_symmetry_1
_geom_bond_site_symmetry_2
Ag1 P1 1_555 1_555
P1 C1 1_555 1_555
P2 Ag1 1_555 1_555
Cl1 C47 1_555 1_555
Cl2 C47 1_555 1_555
S1 O2 1_555 1_555
F1 C49 1_555 1_555
F2 C49 1_555 1_555
F3 C49 1_555 1_555
N1 Ag1 1_555 1_555
N2 Ag1 1_555 1_555
O1 C18 1_555 1_555
O3 S1 1_555 1_555
O4 S1 1_555 1_555
C1 C2 1_555 1_555
C2 H1 1_555 1_555
C3 C2 1_555 1_555
H2 C3 1_555 1_555
C4 C3 1_555 1_555
H3 C4 1_555 1_555
C5 C4 1_555 1_555
H4 C5 1_555 1_555
C6 C1 1_555 1_555
H5 C6 1_555 1_555
C7 P1 1_555 1_555
C8 C7 1_555 1_555
H6 C8 1_555 1_555
C9 C8 1_555 1_555
H7 C9 1_555 1_555
C10 C9 1_555 1_555
H8 C10 1_555 1_555
C11 C10 1_555 1_555
H9 C11 1_555 1_555
C12 C7 1_555 1_555
H10 C12 1_555 1_555
C13 P1 1_555 1_555
C14 C13 1_555 1_555
H11 C14 1_555 1_555
C15 C14 1_555 1_555
H12 C15 1_555 1_555
C16 C15 1_555 1_555
H13 C16 1_555 1_555
C17 C16 1_555 1_555
H14 C17 1_555 1_555
C18 C13 1_555 1_555
C19 O1 1_555 1_555
C20 C19 1_555 1_555
H15 C20 1_555 1_555
C21 C20 1_555 1_555
H16 C21 1_555 1_555
C22 C21 1_555 1_555
H17 C22 1_555 1_555
C23 C22 1_555 1_555
H18 C23 1_555 1_555
C24 P2 1_555 1_555
C25 P2 1_555 1_555
C26 C25 1_555 1_555
H19 C26 1_555 1_555
C27 C26 1_555 1_555
H20 C27 1_555 1_555
C28 C27 1_555 1_555
H21 C28 1_555 1_555
C29 C28 1_555 1_555
H22 C29 1_555 1_555
C30 C25 1_555 1_555
H23 C30 1_555 1_555
C31 P2 1_555 1_555
C32 C31 1_555 1_555
H24 C32 1_555 1_555
C33 C32 1_555 1_555
H25 C33 1_555 1_555
C34 C33 1_555 1_555
H26 C34 1_555 1_555
C35 C34 1_555 1_555
H27 C35 1_555 1_555
C36 C31 1_555 1_555
H28 C36 1_555 1_555
C37 N1 1_555 1_555
H29 C37 1_555 1_555
C38 C37 1_555 1_555
H30 C38 1_555 1_555
C39 C38 1_555 1_555
C40 C39 1_555 1_555
H31 C40 1_555 1_555
C41 N1 1_555 1_555
H32 C41 1_555 1_555
C42 N2 1_555 1_555
H33 C42 1_555 1_555
C43 C42 1_555 1_555
H34 C43 1_555 1_555
C44 C43 1_555 1_555
C45 C44 1_555 1_555
H35 C45 1_555 1_555
C46 N2 1_555 1_555
H36 C46 1_555 1_555
C47 H37 1_555 1_555
H38 C47 1_555 1_555
C49 S1 1_555 1_555
Ag1A P1A 1_555 1_555
Ag1A_2 N2A 1_555 1_555
P1A C1A 1_555 1_555
P2A Ag1A 1_555 1_555
N1A Ag1A 1_555 1_555
N2A C42A 1_555 1_555
N2A_2 Ag1A 1_555 1_555
O1A C18A 1_555 1_555
C1A C2A 1_555 1_555
C2A H1A 1_555 1_555
C3A C2A 1_555 1_555
H2A C3A 1_555 1_555
C4A C3A 1_555 1_555
H3A C4A 1_555 1_555
C5A C4A 1_555 1_555
H4A C5A 1_555 1_555
C6A C1A 1_555 1_555
H5A C6A 1_555 1_555
C7A P1A 1_555 1_555
C8A C7A 1_555 1_555
H6A C8A 1_555 1_555
C9A C8A 1_555 1_555
H7A C9A 1_555 1_555
C10A C9A 1_555 1_555
H8A C10A 1_555 1_555
C11A C10A 1_555 1_555
H9A C11A 1_555 1_555
C12A C7A 1_555 1_555
H10A C12A 1_555 1_555
C13A P1A 1_555 1_555
C14A C13A 1_555 1_555
H11A C14A 1_555 1_555
C15A C14A 1_555 1_555
H12A C15A 1_555 1_555
C16A C15A 1_555 1_555
H13A C16A 1_555 1_555
C17A C16A 1_555 1_555
H14A C17A 1_555 1_555
C18A C13A 1_555 1_555
C19A O1A 1_555 1_555
C20A C19A 1_555 1_555
H15A C20A 1_555 1_555
C21A C20A 1_555 1_555
H16A C21A 1_555 1_555
C22A C21A 1_555 1_555
H17A C22A 1_555 1_555
C23A C22A 1_555 1_555
H18A C23A 1_555 1_555
C24A P2A 1_555 1_555
C25A P2A 1_555 1_555
C26A C25A 1_555 1_555
H19A C26A 1_555 1_555
C27A C26A 1_555 1_555
H20A C27A 1_555 1_555
C28A C27A 1_555 1_555
H21A C28A 1_555 1_555
C29A C28A 1_555 1_555
H22A C29A 1_555 1_555
C30A C25A 1_555 1_555
H23A C30A 1_555 1_555
C31A P2A 1_555 1_555
C32A C31A 1_555 1_555
H24A C32A 1_555 1_555
C33A C32A 1_555 1_555
H25A C33A 1_555 1_555
C34A C33A 1_555 1_555
H26A C34A 1_555 1_555
C35A C34A 1_555 1_555
H27A C35A 1_555 1_555
C36A C31A 1_555 1_555
H28A C36A 1_555 1_555
C37A N1A 1_555 1_555
H29A C37A 1_555 1_555
C38A C37A 1_555 1_555
H30A C38A 1_555 1_555
C39A C39 1_555 1_555
C40A C39A 1_555 1_555
H31A C40A 1_555 1_555
C41A N1A 1_555 1_555
H32A C41A 1_555 1_555
C42A H33A 1_555 1_555
C43A C42A 1_555 1_555
H34A C43A 1_555 1_555
C44A C44 1_555 1_555
C45A C44A 1_555 1_555
H35A C45A 1_555 1_555
C46A N2A 1_555 1_555
H36A C46A 1_555 1_555
C5 C6 1_555 1_555
C11 C12 1_555 1_555
C17 C18 1_555 1_555
C19 C24 1_555 1_555
C23 C24 1_555 1_555
C29 C30 1_555 1_555
C35 C36 1_555 1_555
C40 C41 1_555 1_555
C45 C46 1_555 1_555
C5A C6A 1_555 1_555
C11A C12A 1_555 1_555
C17A C18A 1_555 1_555
C19A C24A 1_555 1_555
C23A C24A 1_555 1_555
C29A C30A 1_555 1_555
C35A C36A 1_555 1_555
C38A C39A 1_555 1_555
C40A C41A 1_555 1_555
C43A C44A 1_555 1_555
C45A C46A 1_555 1_555

#END
