
#######################################################################
#
#                 Cambridge Crystallographic Data Centre
#                                CCDC 
#
#######################################################################
#
# If this CIF has been generated from an entry in the Cambridge 
# Structural Database, then it will include bibliographic, chemical, 
# crystal, experimental, refinement or atomic coordinate data resulting 
# from the CCDC's data processing and validation procedures.
#
#######################################################################

data_DOMKAT
_symmetry_cell_setting           triclinic
_symmetry_space_group_name_H-M   'P -1'
_symmetry_Int_Tables_number      2
_space_group_name_Hall           '-P 1'
loop_
_symmetry_equiv_pos_site_id
_symmetry_equiv_pos_as_xyz
1 x,y,z
2 -x,-y,-z
_cell_length_a                   12.0069(4)
_cell_length_b                   13.8090(4)
_cell_length_c                   17.8205(6)
_cell_angle_alpha                77.1170(15)
_cell_angle_beta                 75.4350(12)
_cell_angle_gamma                76.6300(12)
_cell_volume                     2739.29
loop_
_atom_site_label
_atom_site_type_symbol
_atom_site_fract_x
_atom_site_fract_y
_atom_site_fract_z
Dy1 Dy 0.196440(5) 0.033058(5) 0.067582(4)
Na1 Na -0.5000 1.0000 0.0000
O1 O -0.34448(9) 0.86043(8) -0.03153(7)
H1 H -0.3222 0.8118 0.0010
H2 H -0.3342 0.8359 -0.0724
O2 O 0.13857(11) 0.11813(9) -0.83013(7)
O3 O 0.12131(10) 0.16419(9) -0.01633(7)
O4 O -0.82466(10) 0.93012(9) -0.02347(7)
O5 O -0.65724(10) 0.98037(10) -0.04345(7)
O6 O 0.00156(10) 0.01484(9) 0.10754(7)
H3 H -0.0335 -0.0049 0.1560
H4 H -0.0466 0.0290 0.0755
O7 O -0.62872(10) 0.94679(10) -0.88135(7)
O8 O 0.27171(11) 0.20867(11) -0.83413(8)
O9 O 0.24643(12) 0.26790(11) -0.07735(8)
O10 O -0.79198(11) 0.89200(10) -0.82341(8)
N1 N -0.32446(12) 0.54271(10) -0.31427(8)
H5 H -0.3199 0.5387 -0.3636
N2 N -0.16019(12) 0.42780(11) -0.42769(8)
H6 H -0.2224 0.4759 -0.4296
N3 N -0.46014(13) 0.64767(11) -0.43175(8)
H7 H -0.4058 0.5929 -0.4274
N4 N -0.30747(12) 0.51841(11) -0.54016(8)
H8 H -0.3083 0.5254 -0.4921
C1 C -0.72044(14) 0.93202(12) -0.06237(9)
C2 C -0.66943(14) 0.87564(12) -0.12842(9)
C3 C -0.68683(15) 0.89390(12) -0.82477(9)
C4 C -0.56078(14) 0.75337(12) -0.24247(9)
C5 C -0.29098(15) 0.51240(12) -0.18898(9)
H9 H -0.2566 0.4834 -0.1446
C6 C -0.51270(15) 0.83141(14) -0.76232(10)
H10 H -0.4681 0.8684 -0.8065
C7 C -0.25011(14) 0.48660(12) -0.26679(9)
C8 C -0.49924(15) 0.81442(14) -0.22190(10)
H11 H -0.4193 0.8141 -0.2468
C9 C -0.10510(15) 0.30084(13) -0.16733(10)
H12 H -0.1786 0.2812 -0.1594
C10 C -0.03301(15) 0.25700(12) -0.11440(10)
H13 H -0.0569 0.2070 -0.0708
C11 C -0.73359(15) 0.81764(13) -0.15051(10)
H14 H -0.8140 0.8192 -0.1264
C12 C 0.07426(15) 0.28583(12) -0.12472(10)
C13 C -0.38732(15) 0.58554(13) -0.19114(9)
H15 H -0.4335 0.6174 -0.1485
C14 C -0.55219(14) 0.87514(13) -0.16614(10)
H16 H -0.5090 0.9166 -0.1534
C15 C -0.38164(15) 0.57524(13) -0.58714(9)
C16 C -0.07117(15) 0.37326(12) -0.23195(10)
C17 C -0.63069(15) 0.83461(13) -0.75876(9)
C18 C -0.49454(14) 0.68273(12) -0.29745(9)
C19 C 0.17615(14) 0.18086(13) -0.80509(10)
C20 C 0.09708(15) 0.22570(13) -0.73687(10)
C21 C -0.01381(15) 0.20237(13) -0.70411(10)
H17 H -0.0387 0.1533 -0.7227
C22 C -0.14660(14) 0.41919(12) -0.29047(9)
C23 C -0.40714(14) 0.60623(12) -0.27039(9)
C24 C -0.51631(15) 0.70246(13) -0.37353(10)
C25 C 0.13450(15) 0.29463(13) -0.70678(10)
H18 H 0.2109 0.3094 -0.7274
C26 C -0.08812(16) 0.25028(14) -0.64455(11)
H19 H -0.1636 0.2338 -0.6226
C27 C 0.06036(15) 0.34159(13) -0.64681(10)
H20 H 0.0871 0.3875 -0.6260
C28 C 0.10831(16) 0.35884(14) -0.18923(11)
H21 H 0.1812 0.3793 -0.1968
C29 C -0.05270(15) 0.32253(13) -0.61665(9)
C30 C -0.46777(15) 0.65962(13) -0.57039(9)
C31 C -0.67957(15) 0.75793(13) -0.20765(10)
H22 H -0.7238 0.7199 -0.2232
C32 C -0.46013(15) 0.77424(15) -0.70146(10)
H23 H -0.3794 0.7716 -0.7045
C33 C -0.10068(15) 0.37503(13) -0.48677(10)
C34 C -0.50293(15) 0.69272(13) -0.49793(9)
C35 C 0.03645(16) 0.40154(15) -0.24225(11)
H24 H 0.0608 0.4508 -0.2863
C36 C -0.13379(15) 0.38312(13) -0.55839(10)
C37 C -0.59813(15) 0.78655(14) -0.40417(10)
H25 H -0.6486 0.8367 -0.3763
C38 C 0.15426(15) 0.23685(13) -0.06946(10)
C39 C -0.23154(15) 0.44857(13) -0.58157(9)
C40 C -0.69517(16) 0.78097(15) -0.69352(11)
H26 H -0.7756 0.7828 -0.6908
C41 C -0.10608(15) 0.39269(13) -0.36510(10)
C42 C -0.26383(16) 0.45913(14) -0.65645(10)
H27 H -0.2270 0.4189 -0.6959
C43 C -0.52525(15) 0.72059(14) -0.63577(9)
C44 C -0.35524(16) 0.53608(14) -0.65988(10)
H28 H -0.3951 0.5603 -0.7021
C45 C -0.58965(15) 0.78063(14) -0.48039(10)
H29 H -0.6330 0.8262 -0.5158
C46 C -0.00377(17) 0.30435(15) -0.46044(11)
H30 H 0.0521 0.2582 -0.4897
C47 C -0.64333(16) 0.72499(15) -0.63248(11)
H31 H -0.6887 0.6892 -0.5879
C48 C -0.00680(17) 0.31554(15) -0.38640(11)
H32 H 0.0469 0.2791 -0.3543
Dy1A Dy -1.196440(5) 1.966942(5) -1.067582(4)
O2A O -1.13857(11) 1.88187(9) -0.16987(7)
O3A O -1.12131(10) 1.83581(9) -0.98367(7)
O4A O -0.17534(10) 1.06988(9) -0.97653(7)
O5A O -0.34276(10) 1.01963(10) -0.95655(7)
O6A O -1.00156(10) 1.98516(9) -1.10754(7)
H3A H -0.9665 2.0049 -1.1560
H4A H -0.9534 1.9710 -1.0755
O7A O -0.37128(10) 1.05321(10) -0.11865(7)
O8A O -1.27171(11) 1.79133(11) -0.16587(8)
O9A O -1.24643(12) 1.73210(11) -0.92265(8)
O10A O -0.20802(11) 1.10800(10) -0.17659(8)
N1A N -0.67554(12) 1.45729(10) -0.68573(8)
H5A H -0.6801 1.4613 -0.6364
N2A N -0.83981(12) 1.57220(11) -0.57231(8)
H6A H -0.7776 1.5241 -0.5704
N3A N -0.53986(13) 1.35233(11) -0.56825(8)
H7A H -0.5942 1.4071 -0.5726
N4A N -0.69253(12) 1.48159(11) -0.45984(8)
H8A H -0.6917 1.4746 -0.5079
C1A C -0.27956(14) 1.06798(12) -0.93763(9)
C2A C -0.33057(14) 1.12436(12) -0.87158(9)
C3A C -0.31317(15) 1.10610(12) -0.17523(9)
C4A C -0.43922(14) 1.24663(12) -0.75753(9)
C5A C -0.70902(15) 1.48760(12) -0.81102(9)
H9A H -0.7434 1.5166 -0.8554
C6A C -0.48730(15) 1.16859(14) -0.23768(10)
H10A H -0.5319 1.1316 -0.1935
C7A C -0.74989(14) 1.51340(12) -0.73321(9)
C8A C -0.50076(15) 1.18558(14) -0.77810(10)
H11A H -0.5807 1.1859 -0.7532
C9A C -0.89490(15) 1.69916(13) -0.83267(10)
H12A H -0.8214 1.7188 -0.8406
C10A C -0.96699(15) 1.74300(12) -0.88560(10)
H13A H -0.9431 1.7930 -0.9292
C11A C -0.26641(15) 1.18236(13) -0.84949(10)
H14A H -0.1860 1.1808 -0.8736
C12A C -1.07426(15) 1.71417(12) -0.87528(10)
C13A C -0.61268(15) 1.41446(13) -0.80886(9)
H15A H -0.5665 1.3826 -0.8515
C14A C -0.44781(14) 1.12486(13) -0.83386(10)
H16A H -0.4910 1.0834 -0.8466
C15A C -0.61836(15) 1.42476(13) -0.41286(9)
C16A C -0.92883(15) 1.62674(12) -0.76805(10)
C17A C -0.36931(15) 1.16539(13) -0.24124(9)
C18A C -0.50546(14) 1.31727(12) -0.70255(9)
C19A C -1.17615(14) 1.81914(13) -0.19491(10)
C20A C -1.09708(15) 1.77430(13) -0.26313(10)
C21A C -0.98619(15) 1.79763(13) -0.29589(10)
H17A H -0.9613 1.8467 -0.2773
C22A C -0.85340(14) 1.58081(12) -0.70953(9)
C23A C -0.59286(14) 1.39377(12) -0.72961(9)
C24A C -0.48369(15) 1.29754(13) -0.62647(10)
C25A C -1.13450(15) 1.70537(13) -0.29322(10)
H18A H -1.2109 1.6906 -0.2726
C26A C -0.91188(16) 1.74972(14) -0.35545(11)
H19A H -0.8364 1.7662 -0.3774
C27A C -1.06036(15) 1.65841(13) -0.35319(10)
H20A H -1.0871 1.6125 -0.3740
C28A C -1.10831(16) 1.64116(14) -0.81077(11)
H21A H -1.1812 1.6207 -0.8032
C29A C -0.94730(15) 1.67747(13) -0.38335(9)
C30A C -0.53223(15) 1.34038(13) -0.42961(9)
C31A C -0.32043(15) 1.24207(13) -0.79235(10)
H22A H -0.2762 1.2801 -0.7768
C32A C -0.53987(15) 1.22576(15) -0.29854(10)
H23A H -0.6206 1.2284 -0.2955
C33A C -0.89932(15) 1.62497(13) -0.51323(10)
C34A C -0.49707(15) 1.30728(13) -0.50207(9)
C35A C -1.03645(16) 1.59846(15) -0.75775(11)
H24A H -1.0608 1.5492 -0.7137
C36A C -0.86621(15) 1.61688(13) -0.44161(10)
C37A C -0.40187(15) 1.21345(14) -0.59583(10)
H25A H -0.3514 1.1633 -0.6237
C38A C -1.15426(15) 1.76315(13) -0.93054(10)
C39A C -0.76846(15) 1.55143(13) -0.41843(9)
C40A C -0.30483(16) 1.21903(15) -0.30648(11)
H26A H -0.2244 1.2172 -0.3092
C41A C -0.89392(15) 1.60731(13) -0.63490(10)
C42A C -0.73617(16) 1.54087(14) -0.34355(10)
H27A H -0.7730 1.5811 -0.3041
C43A C -0.47475(15) 1.27941(14) -0.36423(9)
C44A C -0.64476(16) 1.46392(14) -0.34012(10)
H28A H -0.6049 1.4397 -0.2979
C45A C -0.41035(15) 1.21937(14) -0.51961(10)
H29A H -0.3670 1.1738 -0.4842
C46A C -0.99623(17) 1.69565(15) -0.53956(11)
H30A H -1.0521 1.7418 -0.5103
C47A C -0.35667(16) 1.27501(15) -0.36752(11)
H31A H -0.3113 1.3108 -0.4121
C48A C -0.99320(17) 1.68446(15) -0.61360(11)
H32A H -1.0469 1.7209 -0.6457
O1A O 0.34448(9) 0.13957(8) 0.03153(7)
H1A H 0.3222 0.1882 -0.0010
H2A H 0.3342 0.1641 0.0724
Dy1_2 Dy -0.803560(5) 1.033058(5) -0.932418(4)
Dy1_3 Dy -0.803560(5) 1.033058(5) 0.067582(4)
Dy1_4 Dy 0.196440(5) 0.033058(5) -0.932418(4)
Dy1A_2 Dy -1.196440(5) 1.966942(5) -0.067582(4)
Dy1A_3 Dy -0.196440(5) 0.966942(5) -1.067582(4)
Dy1A_4 Dy -0.196440(5) 0.966942(5) -0.067582(4)
Na1_2 Na -0.5000 1.0000 -1.0000
Na1_3 Na 0.5000 0.0000 0.0000
O1_2 O -1.34448(9) 1.86043(8) -1.03153(7)
O1A_2 O -0.65552(9) 1.13957(8) 0.03153(7)
O2_2 O 0.13857(11) 0.11813(9) 0.16987(7)
O2A_2 O -1.13857(11) 1.88187(9) -1.16987(7)
O4_2 O 0.17534(10) -0.06988(9) -0.02347(7)
O4A_2 O -1.17534(10) 2.06988(9) -0.97653(7)
O5_2 O 0.34276(10) -0.01963(10) -0.04345(7)
O5A_2 O -1.34276(10) 2.01963(10) -0.95655(7)
O5A_3 O -0.34276(10) 1.01963(10) 0.04345(7)
O7_2 O -0.62872(10) 0.94679(10) 0.11865(7)
O7_3 O 0.37128(10) -0.05321(10) 0.11865(7)
O7A_2 O -1.37128(10) 2.05321(10) -1.11865(7)
O10_2 O 0.20802(11) -0.10800(10) 0.17659(8)
O10A_2 O -1.20802(11) 2.10800(10) -1.17659(8)
loop_
_geom_bond_atom_site_label_1
_geom_bond_atom_site_label_2
_geom_bond_site_symmetry_1
_geom_bond_site_symmetry_2
Dy1 O3 1_555 1_555
Na1 O1 1_555 1_555
O1 H1 1_555 1_555
H2 O1 1_555 1_555
O2 C19 1_555 1_555
O3 C38 1_555 1_555
O4 C1 1_555 1_555
O5 Na1 1_555 1_555
O6 Dy1 1_555 1_555
H3 O6 1_555 1_555
H4 O6 1_555 1_555
O7 C3 1_555 1_555
O8 C19 1_555 1_555
O9 C38 1_555 1_555
O10 C3 1_555 1_555
N1 H5 1_555 1_555
N2 H6 1_555 1_555
N3 H7 1_555 1_555
N4 H8 1_555 1_555
C1 O5 1_555 1_555
C2 C1 1_555 1_555
C3 C17 1_555 1_555
C4 C8 1_555 1_555
C5 H9 1_555 1_555
C6 H10 1_555 1_555
C7 N1 1_555 1_555
C8 H11 1_555 1_555
C9 H12 1_555 1_555
C10 C9 1_555 1_555
H13 C10 1_555 1_555
C11 C2 1_555 1_555
H14 C11 1_555 1_555
C12 C10 1_555 1_555
C13 C5 1_555 1_555
H15 C13 1_555 1_555
C14 C2 1_555 1_555
H16 C14 1_555 1_555
C15 N4 1_555 1_555
C16 C9 1_555 1_555
C17 C6 1_555 1_555
C18 C4 1_555 1_555
C19 C20 1_555 1_555
C20 C21 1_555 1_555
C21 H17 1_555 1_555
C22 C7 1_555 1_555
C23 N1 1_555 1_555
C24 N3 1_555 1_555
C25 C20 1_555 1_555
H18 C25 1_555 1_555
C26 C21 1_555 1_555
H19 C26 1_555 1_555
C27 C25 1_555 1_555
H20 C27 1_555 1_555
C28 C12 1_555 1_555
H21 C28 1_555 1_555
C29 C26 1_555 1_555
C30 C15 1_555 1_555
C31 C4 1_555 1_555
H22 C31 1_555 1_555
C32 C6 1_555 1_555
H23 C32 1_555 1_555
C33 N2 1_555 1_555
C34 N3 1_555 1_555
C35 C16 1_555 1_555
H24 C35 1_555 1_555
C36 C29 1_555 1_555
C37 C24 1_555 1_555
H25 C37 1_555 1_555
C38 C12 1_555 1_555
C39 N4 1_555 1_555
C40 C17 1_555 1_555
H26 C40 1_555 1_555
C41 N2 1_555 1_555
C42 C39 1_555 1_555
H27 C42 1_555 1_555
C43 C30 1_555 1_555
C44 C15 1_555 1_555
H28 C44 1_555 1_555
C45 C34 1_555 1_555
H29 C45 1_555 1_555
C46 C33 1_555 1_555
H30 C46 1_555 1_555
C47 C40 1_555 1_555
H31 C47 1_555 1_555
C48 C41 1_555 1_555
H32 C48 1_555 1_555
Dy1A O3A 1_555 1_555
O2A C19A 1_555 1_555
O3A C38A 1_555 1_555
O4A C1A 1_555 1_555
O5A C1A 1_555 1_555
O6A Dy1A 1_555 1_555
H3A O6A 1_555 1_555
H4A O6A 1_555 1_555
O7A Na1 1_555 1_555
O8A C19A 1_555 1_555
O9A C38A 1_555 1_555
O10A C3A 1_555 1_555
N1A H5A 1_555 1_555
N2A H6A 1_555 1_555
N3A H7A 1_555 1_555
N4A H8A 1_555 1_555
C1A C2A 1_555 1_555
C2A C11A 1_555 1_555
C3A O7A 1_555 1_555
C4A C8A 1_555 1_555
C5A H9A 1_555 1_555
C6A H10A 1_555 1_555
C7A N1A 1_555 1_555
C8A H11A 1_555 1_555
C9A H12A 1_555 1_555
C10A C9A 1_555 1_555
H13A C10A 1_555 1_555
C11A H14A 1_555 1_555
C12A C10A 1_555 1_555
C13A C5A 1_555 1_555
H15A C13A 1_555 1_555
C14A C2A 1_555 1_555
H16A C14A 1_555 1_555
C15A N4A 1_555 1_555
C16A C9A 1_555 1_555
C17A C3A 1_555 1_555
C18A C4A 1_555 1_555
C19A C20A 1_555 1_555
C20A C21A 1_555 1_555
C21A H17A 1_555 1_555
C22A C7A 1_555 1_555
C23A N1A 1_555 1_555
C24A N3A 1_555 1_555
C25A C20A 1_555 1_555
H18A C25A 1_555 1_555
C26A C21A 1_555 1_555
H19A C26A 1_555 1_555
C27A C25A 1_555 1_555
H20A C27A 1_555 1_555
C28A C12A 1_555 1_555
H21A C28A 1_555 1_555
C29A C26A 1_555 1_555
C30A C15A 1_555 1_555
C31A C4A 1_555 1_555
H22A C31A 1_555 1_555
C32A C6A 1_555 1_555
H23A C32A 1_555 1_555
C33A N2A 1_555 1_555
C34A N3A 1_555 1_555
C35A C16A 1_555 1_555
H24A C35A 1_555 1_555
C36A C29A 1_555 1_555
C37A C24A 1_555 1_555
H25A C37A 1_555 1_555
C38A C12A 1_555 1_555
C39A N4A 1_555 1_555
C40A C17A 1_555 1_555
H26A C40A 1_555 1_555
C41A N2A 1_555 1_555
C42A C39A 1_555 1_555
H27A C42A 1_555 1_555
C43A C30A 1_555 1_555
C44A C15A 1_555 1_555
H28A C44A 1_555 1_555
C45A C34A 1_555 1_555
H29A C45A 1_555 1_555
C46A C33A 1_555 1_555
H30A C46A 1_555 1_555
C47A C40A 1_555 1_555
H31A C47A 1_555 1_555
C48A C41A 1_555 1_555
H32A C48A 1_555 1_555
O1A Dy1 1_555 1_555
H1A O1A 1_555 1_555
H2A O1A 1_555 1_555
Dy1_2 O7 1_555 1_555
Dy1_3 O4 1_555 1_555
Dy1_4 O2 1_555 1_555
Dy1A_2 O2A 1_555 1_555
Dy1A_3 O4A 1_555 1_555
Dy1A_4 O1 1_555 1_555
Na1_2 O7 1_555 1_555
Na1_3 O1A 1_555 1_555
O1_2 Dy1A 1_555 1_555
O1A_2 Na1 1_555 1_555
O2_2 Dy1 1_555 1_555
O2A_2 Dy1A 1_555 1_555
O4_2 Dy1 1_555 1_555
O4A_2 Dy1A 1_555 1_555
O5_2 Dy1 1_555 1_555
O5A_2 Dy1A 1_555 1_555
O5A_3 Na1 1_555 1_555
O7_2 Na1 1_555 1_555
O7_3 Dy1 1_555 1_555
O7A_2 Dy1A 1_555 1_555
O10_2 Dy1 1_555 1_555
O10A_2 Dy1A 1_555 1_555
O5 Dy1_3 1_555 1_555
O10 Dy1_2 1_555 1_555
C5 C7 1_555 1_555
C8 C14 1_555 1_555
C11 C31 1_555 1_555
C13 C23 1_555 1_555
C16 C22 1_555 1_555
C18 C23 1_555 1_555
C18 C24 1_555 1_555
C22 C41 1_555 1_555
C27 C29 1_555 1_555
C28 C35 1_555 1_555
C30 C34 1_555 1_555
C32 C43 1_555 1_555
C33 C36 1_555 1_555
C36 C39 1_555 1_555
C37 C45 1_555 1_555
C42 C44 1_555 1_555
C43 C47 1_555 1_555
C46 C48 1_555 1_555
O5A Dy1A_3 1_555 1_555
O5A Na1_2 1_555 1_555
O7A Dy1A_4 1_555 1_555
O10A Dy1A_4 1_555 1_555
C5A C7A 1_555 1_555
C6A C17A 1_555 1_555
C8A C14A 1_555 1_555
C11A C31A 1_555 1_555
C13A C23A 1_555 1_555
C16A C22A 1_555 1_555
C18A C23A 1_555 1_555
C18A C24A 1_555 1_555
C22A C41A 1_555 1_555
C27A C29A 1_555 1_555
C28A C35A 1_555 1_555
C30A C34A 1_555 1_555
C32A C43A 1_555 1_555
C33A C36A 1_555 1_555
C36A C39A 1_555 1_555
C37A C45A 1_555 1_555
C42A C44A 1_555 1_555
C43A C47A 1_555 1_555
C46A C48A 1_555 1_555
Dy1_3 O1A_2 1_555 1_555
Dy1_3 O7_2 1_555 1_555
Dy1A_4 O5A_3 1_555 1_555
Na1_3 O5_2 1_555 1_555
Na1_3 O7_3 1_555 1_555

#END
