
#######################################################################
#
#                 Cambridge Crystallographic Data Centre
#                                CCDC 
#
#######################################################################
#
# If this CIF has been generated from an entry in the Cambridge 
# Structural Database, then it will include bibliographic, chemical, 
# crystal, experimental, refinement or atomic coordinate data resulting 
# from the CCDC's data processing and validation procedures.
#
#######################################################################

data_DOMQIG
_symmetry_cell_setting           triclinic
_symmetry_space_group_name_H-M   'P -1'
_symmetry_Int_Tables_number      2
_space_group_name_Hall           '-P 1'
loop_
_symmetry_equiv_pos_site_id
_symmetry_equiv_pos_as_xyz
1 x,y,z
2 -x,-y,-z
_cell_length_a                   7.1317(11)
_cell_length_b                   9.3823(15)
_cell_length_c                   12.482(2)
_cell_angle_alpha                80.310(2)
_cell_angle_beta                 87.568(2)
_cell_angle_gamma                79.188(2)
_cell_volume                     808.611
loop_
_atom_site_label
_atom_site_type_symbol
_atom_site_fract_x
_atom_site_fract_y
_atom_site_fract_z
N1 N 0.22958(16) 1.05929(12) 0.52266(9)
C1 C 0.27167(18) 0.95067(14) 0.46436(10)
C2 C 0.30949(18) 0.99446(14) 0.34461(10)
O1 O 0.34946(16) 0.90056(11) 0.28286(8)
N2 N 0.29082(17) 1.13684(12) 0.31272(9)
H1 H 0.264(2) 1.1952(19) 0.3557(14)
O2 O 0.30626(14) 1.19811(10) 0.20558(7)
C3 C 0.2757(2) 0.80389(16) 0.50816(12)
H2 H 0.307(3) 0.734(2) 0.4659(17)
C4 C 0.2324(2) 0.76943(16) 0.61730(12)
H3 H 0.230(3) 0.665(2) 0.6474(15)
C5 C 0.1884(2) 0.88071(16) 0.67882(11)
H4 H 0.161(3) 0.864(2) 0.7526(17)
C6 C 0.18871(18) 1.02465(14) 0.62836(10)
C7 C 0.14479(18) 1.14769(15) 0.69312(10)
N3 N 0.15254(19) 1.27991(13) 0.64125(11)
H5 H 0.173(3) 1.295(2) 0.5773(18)
O3 O 0.10897(15) 1.12175(11) 0.79389(8)
O4 O 0.13331(17) 1.39867(12) 0.69369(9)
O5 O 0.10051(16) 1.07953(12) 0.08163(9)
H6 H 0.039(3) 1.024(3) 0.1224(18)
H7 H 0.159(3) 1.114(2) 0.1265(17)
O6 O 0.40935(17) 0.93790(13) -0.09093(8)
H8 H 0.319(3) 0.985(2) -0.1287(17)
H9 H 0.487(3) 0.899(2) -0.1343(17)
O7 O 0.15813(16) 0.73633(12) 0.06962(11)
H10 H 0.089(4) 0.799(3) 0.016(3)
H11 H 0.102(3) 0.738(3) 0.130(2)
O8 O 0.50928(16) 0.56752(12) -0.13126(9)
H12 H 0.549(3) 0.646(3) -0.1633(18)
H13 H 0.522(3) 0.517(3) -0.179(2)
O9 O 0.69819(17) 0.70820(13) 0.08159(11)
H14 H 0.734(4) 0.698(3) 0.142(2)
H15 H 0.752(4) 0.769(3) 0.051(2)
O10 O 0.01320(17) 0.42810(13) 0.13711(9)
H16 H -0.005(4) 0.486(3) 0.182(2)
H17 H 0.097(3) 0.356(3) 0.1678(18)
Na1 Na 0.39520(8) 0.87308(6) 0.09512(4)
Na2 Na 0.24808(8) 0.52337(6) -0.01105(5)
O6A O 0.59065(17) 1.06210(13) 0.09093(8)
O8A O 0.49072(16) 0.43248(12) 0.13126(9)
O9A O 0.30181(17) 0.29180(13) -0.08159(11)
O10A O -0.01320(17) 0.57190(13) -0.13711(9)
Na1A Na 0.60480(8) 1.12692(6) -0.09512(4)
Na2A Na 0.75192(8) 0.47663(6) 0.01105(5)
Na2A_2 Na -0.24808(8) 0.47663(6) 0.01105(5)
O11 O 0.4783(2) 0.59582(14) 0.30596(11)
H18 H 0.591(4) 0.586(3) 0.310(2)
H19 H 0.437(4) 0.687(3) 0.300(2)
O12 O 0.1947(2) 0.41459(14) 0.40602(11)
H20 H 0.290(4) 0.463(3) 0.381(2)
H21 H 0.097(5) 0.467(4) 0.381(3)
loop_
_geom_bond_atom_site_label_1
_geom_bond_atom_site_label_2
_geom_bond_site_symmetry_1
_geom_bond_site_symmetry_2
N1 C1 1_555 1_555
C1 C2 1_555 1_555
C2 O1 1_555 1_555
O1 Na1 1_555 1_555
N2 C2 1_555 1_555
H1 N2 1_555 1_555
O2 N2 1_555 1_555
C3 C1 1_555 1_555
H2 C3 1_555 1_555
C4 C3 1_555 1_555
H3 C4 1_555 1_555
C5 C4 1_555 1_555
H4 C5 1_555 1_555
C6 N1 1_555 1_555
C7 C6 1_555 1_555
N3 C7 1_555 1_555
H5 N3 1_555 1_555
O3 C7 1_555 1_555
O4 N3 1_555 1_555
O5 H6 1_555 1_555
H7 O5 1_555 1_555
O6 H8 1_555 1_555
H9 O6 1_555 1_555
O7 H10 1_555 1_555
H11 O7 1_555 1_555
O8 H12 1_555 1_555
H13 O8 1_555 1_555
O9 H14 1_555 1_555
H15 O9 1_555 1_555
O10 H16 1_555 1_555
H17 O10 1_555 1_555
O11 H18 1_555 1_555
H19 O11 1_555 1_555
O12 H20 1_555 1_555
H21 O12 1_555 1_555
Na1 O5 1_555 1_555
Na2 O7 1_555 1_555
O6A Na1 1_555 1_555
O8A Na2 1_555 1_555
O9A Na2 1_555 1_555
O10A Na2 1_555 1_555
Na1A O6 1_555 1_555
Na2A O8 1_555 1_555
Na2A_2 O10 1_555 1_555
C5 C6 1_555 1_555
O6 Na1 1_555 1_555
O7 Na1 1_555 1_555
O8 Na2 1_555 1_555
O9 Na1 1_555 1_555
O9 Na2A 1_555 1_555
O10 Na2 1_555 1_555
O6A Na1A 1_555 1_555
O8A Na2A 1_555 1_555
O10A Na2A_2 1_555 1_555

#END
