
#######################################################################
#
#                 Cambridge Crystallographic Data Centre
#                                CCDC 
#
#######################################################################
#
# If this CIF has been generated from an entry in the Cambridge 
# Structural Database, then it will include bibliographic, chemical, 
# crystal, experimental, refinement or atomic coordinate data resulting 
# from the CCDC's data processing and validation procedures.
#
#######################################################################

data_DOMRII
_symmetry_cell_setting           triclinic
_symmetry_space_group_name_H-M   'P -1'
_symmetry_Int_Tables_number      2
_space_group_name_Hall           '-P 1'
loop_
_symmetry_equiv_pos_site_id
_symmetry_equiv_pos_as_xyz
1 x,y,z
2 -x,-y,-z
_cell_length_a                   9.557(4)
_cell_length_b                   12.567(5)
_cell_length_c                   13.080(5)
_cell_angle_alpha                79.933(7)
_cell_angle_beta                 88.379(6)
_cell_angle_gamma                83.369(6)
_cell_volume                     1536.36
loop_
_atom_site_label
_atom_site_type_symbol
_atom_site_fract_x
_atom_site_fract_y
_atom_site_fract_z
Cd1 Cd 0.25481(6) 0.08836(4) 1.10268(4)
N1 N 0.1585(6) 0.2059(5) 0.9643(4)
N2 N -0.0055(6) 0.2791(5) 0.8501(4)
N3 N -0.4517(6) 0.1837(5) 0.6600(5)
N4 N -0.3832(6) 0.0450(5) 0.7815(4)
N5 N 0.8328(6) 0.3104(5) 1.1313(4)
N6 N 0.6104(5) 0.1614(5) 1.2986(4)
O1 O 0.4926(5) 0.1318(4) 1.0563(3)
O2 O 0.3646(5) 0.2496(4) 1.1365(3)
O3 O 0.9693(5) 0.0621(4) 1.1170(4)
O4 O 1.0981(5) 0.1147(4) 1.2348(3)
C1 C 0.0469(8) 0.1920(6) 0.9142(5)
H1 H 0.0083 0.1263 0.9232
C2 C 0.1779(8) 0.3123(6) 0.9261(6)
H2 H 0.2501 0.3481 0.9456
C3 C 0.0772(8) 0.3575(6) 0.8563(5)
H3 H 0.0670 0.4285 0.8199
C4 C -0.1256(7) 0.2873(7) 0.7830(5)
H4 H -0.1916 0.3488 0.7945
H5 H -0.1728 0.2222 0.8015
C5 C -0.0859(7) 0.3010(6) 0.6696(5)
C6 C 0.0419(9) 0.2538(7) 0.6389(6)
H6 H 0.1037 0.2142 0.6889
C7 C 0.0801(9) 0.2639(8) 0.5360(7)
H7 H 0.1657 0.2292 0.5169
C8 C -0.0062(10) 0.3239(8) 0.4627(7)
H8 H 0.0191 0.3316 0.3928
C9 C -0.1321(9) 0.3735(7) 0.4931(6)
H9 H -0.1907 0.4156 0.4422
C10 C -0.1758(7) 0.3643(6) 0.5941(6)
C11 C -0.3135(7) 0.4205(6) 0.6233(5)
C12 C -0.3151(9) 0.5147(6) 0.6649(6)
H10 H -0.2312 0.5437 0.6711
C13 C -0.4402(9) 0.5662(7) 0.6973(6)
H11 H -0.4397 0.6284 0.7266
C14 C -0.5644(9) 0.5255(7) 0.6860(6)
H12 H -0.6481 0.5591 0.7093
C15 C -0.5657(9) 0.4360(7) 0.6408(6)
H13 H -0.6512 0.4117 0.6294
C16 C -0.4411(8) 0.3806(6) 0.6116(5)
C17 C -0.4473(8) 0.2752(6) 0.5724(5)
H14 H -0.5305 0.2810 0.5301
H15 H -0.3653 0.2614 0.5293
C18 C -0.5586(8) 0.1715(6) 0.7295(7)
H16 H -0.6451 0.2142 0.7262
C19 C -0.5177(8) 0.0874(7) 0.8033(6)
H17 H -0.5716 0.0615 0.8606
C20 C -0.3491(7) 0.1059(6) 0.6956(6)
H18 H -0.2623 0.0963 0.6625
C21 C 0.4765(7) 0.2148(6) 1.0957(5)
C22 C 0.6013(6) 0.2819(5) 1.0852(5)
C23 C 0.5985(7) 0.3681(5) 1.0042(5)
H19 H 0.5201 0.3873 0.9616
C24 C 0.7150(8) 0.4262(6) 0.9872(6)
H20 H 0.7165 0.4850 0.9332
C25 C 0.8268(7) 0.3941(6) 1.0519(6)
H21 H 0.9044 0.4331 1.0403
C26 C 0.7194(7) 0.2553(5) 1.1488(5)
C27 C 0.7290(7) 0.1684(6) 1.2412(5)
C28 C 0.6191(8) 0.0902(6) 1.3879(5)
H22 H 0.5367 0.0825 1.4267
C29 C 0.7375(8) 0.0287(6) 1.4263(6)
H23 H 0.7370 -0.0163 1.4908
C30 C 0.8598(7) 0.0345(6) 1.3670(5)
H24 H 0.9431 -0.0074 1.3904
C31 C 0.8552(7) 0.1043(5) 1.2715(5)
C32 C 0.9826(8) 0.0960(6) 1.1995(6)
O5 O 0.2499(5) -0.0524(4) 1.0120(3)
H25 H 0.1940 -0.0745 0.9729
H26 H 0.3253 -0.0895 0.9970
Cd1_2 Cd 1.25481(6) 0.08836(4) 1.10268(4)
Cd1A Cd -0.25481(6) -0.08836(4) 0.89732(4)
N4A N 0.3832(6) -0.0450(5) 1.2185(4)
O3_2 O -0.0307(5) 0.0621(4) 1.1170(4)
O4_2 O 0.0981(5) 0.1147(4) 1.2348(3)
O6 O 1.1018(5) 0.3799(4) 1.1908(4)
H27 H 1.1803 0.3450 1.1786
H28 H 1.0371 0.3447 1.1751
O7 O 1.2935(5) 0.1756(4) 1.3662(4)
H29 H 1.2372 0.1550 1.3265
H30 H 1.3703 0.1754 1.3318
loop_
_geom_bond_atom_site_label_1
_geom_bond_atom_site_label_2
_geom_bond_site_symmetry_1
_geom_bond_site_symmetry_2
Cd1 N1 1_555 1_555
N1 C1 1_555 1_555
N2 C1 1_555 1_555
N3 C17 1_555 1_555
N4 C19 1_555 1_555
N5 C25 1_555 1_555
N6 C27 1_555 1_555
O1 Cd1 1_555 1_555
O2 Cd1 1_555 1_555
O3 C32 1_555 1_555
O4 C32 1_555 1_555
C1 H1 1_555 1_555
C2 N1 1_555 1_555
H2 C2 1_555 1_555
C3 N2 1_555 1_555
H3 C3 1_555 1_555
C4 N2 1_555 1_555
H4 C4 1_555 1_555
H5 C4 1_555 1_555
C5 C4 1_555 1_555
C6 C5 1_555 1_555
H6 C6 1_555 1_555
C7 C6 1_555 1_555
H7 C7 1_555 1_555
C8 C7 1_555 1_555
H8 C8 1_555 1_555
C9 C8 1_555 1_555
H9 C9 1_555 1_555
C10 C5 1_555 1_555
C11 C10 1_555 1_555
C12 C11 1_555 1_555
H10 C12 1_555 1_555
C13 C12 1_555 1_555
H11 C13 1_555 1_555
C14 C13 1_555 1_555
H12 C14 1_555 1_555
C15 C14 1_555 1_555
H13 C15 1_555 1_555
C16 C11 1_555 1_555
C17 C16 1_555 1_555
H14 C17 1_555 1_555
H15 C17 1_555 1_555
C18 N3 1_555 1_555
H16 C18 1_555 1_555
C19 C18 1_555 1_555
H17 C19 1_555 1_555
C20 N3 1_555 1_555
H18 C20 1_555 1_555
C21 O1 1_555 1_555
C22 C21 1_555 1_555
C23 C22 1_555 1_555
H19 C23 1_555 1_555
C24 C23 1_555 1_555
H20 C24 1_555 1_555
C25 C24 1_555 1_555
H21 C25 1_555 1_555
C26 N5 1_555 1_555
C27 C26 1_555 1_555
C28 N6 1_555 1_555
H22 C28 1_555 1_555
C29 C28 1_555 1_555
H23 C29 1_555 1_555
C30 C29 1_555 1_555
H24 C30 1_555 1_555
C31 C27 1_555 1_555
C32 C31 1_555 1_555
O5 Cd1 1_555 1_555
H25 O5 1_555 1_555
H26 O5 1_555 1_555
O6 H27 1_555 1_555
H28 O6 1_555 1_555
O7 H29 1_555 1_555
H30 O7 1_555 1_555
Cd1_2 O3 1_555 1_555
Cd1A N4 1_555 1_555
N4A Cd1 1_555 1_555
O3_2 Cd1 1_555 1_555
O4_2 Cd1 1_555 1_555
N4 C20 1_555 1_555
O2 C21 1_555 1_555
O4 Cd1_2 1_555 1_555
C2 C3 1_555 1_555
C9 C10 1_555 1_555
C15 C16 1_555 1_555
C22 C26 1_555 1_555
C30 C31 1_555 1_555

#END
