
#######################################################################
#
#                 Cambridge Crystallographic Data Centre
#                                CCDC 
#
#######################################################################
#
# If this CIF has been generated from an entry in the Cambridge 
# Structural Database, then it will include bibliographic, chemical, 
# crystal, experimental, refinement or atomic coordinate data resulting 
# from the CCDC's data processing and validation procedures.
#
#######################################################################

data_DOMRUU
_symmetry_cell_setting           monoclinic
_symmetry_space_group_name_H-M   'P 21/n'
_symmetry_Int_Tables_number      14
_space_group_name_Hall           '-P 2yn'
loop_
_symmetry_equiv_pos_site_id
_symmetry_equiv_pos_as_xyz
1 x,y,z
2 1/2-x,1/2+y,1/2-z
3 -x,-y,-z
4 1/2+x,1/2-y,1/2+z
_cell_length_a                   8.544(5)
_cell_length_b                   16.047(15)
_cell_length_c                   22.414(19)
_cell_angle_alpha                90
_cell_angle_beta                 90.00
_cell_angle_gamma                90
_cell_volume                     3073.08
loop_
_atom_site_label
_atom_site_type_symbol
_atom_site_fract_x
_atom_site_fract_y
_atom_site_fract_z
C1 C 0.7820(4) 0.3395(2) 0.76268(13)
C2 C 0.9056(4) 0.29631(18) 0.72611(14)
C3 C 1.0579(4) 0.2954(2) 0.74747(15)
H1 H 1.0835 0.3231 0.7826
C4 C 1.1710(4) 0.2526(2) 0.71577(17)
H2 H 1.2740 0.2511 0.7291
C5 C 1.1281(4) 0.2122(2) 0.66409(17)
H3 H 1.2045 0.1822 0.6438
C6 C 0.8752(3) 0.25486(17) 0.67226(13)
C7 C 0.7208(4) 0.25946(18) 0.64192(12)
C8 C 0.5294(4) 0.3467(2) 0.60757(17)
H4 H 0.4874 0.4000 0.6052
C9 C 0.4508(4) 0.2833(2) 0.57999(17)
H5 H 0.3587 0.2935 0.5591
C10 C 0.5114(4) 0.2046(2) 0.58391(16)
H6 H 0.4614 0.1605 0.5650
C11 C 0.6467(4) 0.19086(19) 0.61591(14)
C12 C 0.7040(4) 0.1027(2) 0.61819(18)
C13 C 0.5183(3) 0.32481(18) 0.90197(13)
H7 H 0.4960 0.2969 0.8666
C14 C 0.6019(4) 0.4140(2) 0.96560(15)
H8 H 0.6502 0.4607 0.9818
C15 C 0.5288(4) 0.3543(2) 0.99739(14)
H9 H 0.5164 0.3520 1.0386
C16 C 0.3839(4) 0.22299(19) 0.96913(16)
H10 H 0.3801 0.2148 1.0120
H11 H 0.4355 0.1750 0.9517
C17 C 0.2199(3) 0.22797(18) 0.94551(13)
C18 C 0.1437(4) 0.3045(2) 0.94204(15)
H12 H 0.1957 0.3529 0.9534
C19 C -0.0079(4) 0.3089(2) 0.92200(17)
H13 H -0.0578 0.3603 0.9191
C20 C -0.0851(4) 0.2378(3) 0.90636(18)
H14 H -0.1882 0.2407 0.8932
C21 C -0.0108(4) 0.1617(2) 0.90994(17)
H15 H -0.0601 0.1176 0.9003
C22 C 0.1426(3) 0.15601(19) 0.92891(13)
C23 C 0.2223(3) 0.07318(19) 0.92916(14)
C24 C 0.2348(4) 0.0274(2) 0.98231(16)
H16 H 0.1913 0.0484 1.0172
C25 C 0.3104(5) -0.0477(2) 0.98330(18)
H17 H 0.3188 -0.0774 1.0188
C26 C 0.3743(4) -0.0793(2) 0.93122(19)
H18 H 0.4252 -0.1306 0.9319
C27 C 0.3631(4) -0.0355(2) 0.87832(18)
H19 H 0.4064 -0.0575 0.8437
C28 C 0.2877(3) 0.04110(18) 0.87637(14)
C29 C 0.2861(4) 0.0904(2) 0.81848(15)
H20 H 0.2244 0.1405 0.8243
H21 H 0.3923 0.1075 0.8093
C30 C 0.3026(4) 0.0127(3) 0.71882(17)
H22 H 0.4104 0.0141 0.7132
C31 C 0.1975(4) -0.0203(2) 0.68163(16)
H23 H 0.2199 -0.0455 0.6452
C32 C 0.0716(4) 0.0289(2) 0.75689(15)
H24 H -0.0090 0.0444 0.7825
N1 N 0.9847(3) 0.21337(16) 0.64141(12)
N2 N 0.6630(3) 0.33666(16) 0.63766(12)
N3 N 0.5947(3) 0.39564(14) 0.90501(11)
N4 N 0.4765(3) 0.29763(14) 0.95623(11)
N5 N 0.2224(3) 0.04431(16) 0.76690(12)
N6 N 0.0511(3) -0.01115(16) 0.70584(12)
O1 O 0.8155(3) 0.41185(14) 0.78088(10)
O2 O 0.6592(3) 0.30293(14) 0.77509(11)
O3 O 0.7578(3) 0.07869(14) 0.66706(12)
O4 O 0.6911(5) 0.0586(2) 0.57394(18)
Zn1 Zn 0.65610(4) 0.46309(2) 0.832545(15)
N6A N 0.4489(3) 0.48885(16) 0.79416(12)
O3A O 0.7422(3) 0.57869(14) 0.83294(12)
Zn1A Zn -0.15610(4) -0.03691(2) 0.667455(15)
Zn1A_2 Zn 0.84390(4) -0.03691(2) 0.667455(15)
O5 O 0.7320(4) 0.5146(2) 0.64273(17)
H25 H 0.8149 0.5372 0.6561
H26 H 0.7534 0.4688 0.6600
O6 O 0.6418(4) 0.13063(19) 0.77657(15)
H27 H 0.6453 0.1838 0.7762
H28 H 0.6876 0.1135 0.7452
O7 O 0.4112(11) 0.0043(5) 0.5392(4)
H29 H 0.4500 -0.0052 0.5709
H30 H 0.4401 -0.0166 0.5087
loop_
_geom_bond_atom_site_label_1
_geom_bond_atom_site_label_2
_geom_bond_site_symmetry_1
_geom_bond_site_symmetry_2
C1 C2 1_555 1_555
C2 C3 1_555 1_555
C3 H1 1_555 1_555
C4 C3 1_555 1_555
H2 C4 1_555 1_555
C5 C4 1_555 1_555
H3 C5 1_555 1_555
C6 C2 1_555 1_555
C7 C6 1_555 1_555
C8 H4 1_555 1_555
C9 C8 1_555 1_555
H5 C9 1_555 1_555
C10 C9 1_555 1_555
H6 C10 1_555 1_555
C11 C7 1_555 1_555
C12 C11 1_555 1_555
C13 H7 1_555 1_555
C14 H8 1_555 1_555
C15 C14 1_555 1_555
H9 C15 1_555 1_555
C16 H10 1_555 1_555
H11 C16 1_555 1_555
C17 C16 1_555 1_555
C18 C17 1_555 1_555
H12 C18 1_555 1_555
C19 C18 1_555 1_555
H13 C19 1_555 1_555
C20 C19 1_555 1_555
H14 C20 1_555 1_555
C21 C20 1_555 1_555
H15 C21 1_555 1_555
C22 C17 1_555 1_555
C23 C22 1_555 1_555
C24 C23 1_555 1_555
H16 C24 1_555 1_555
C25 C24 1_555 1_555
H17 C25 1_555 1_555
C26 C25 1_555 1_555
H18 C26 1_555 1_555
C27 C26 1_555 1_555
H19 C27 1_555 1_555
C28 C23 1_555 1_555
C29 C28 1_555 1_555
H20 C29 1_555 1_555
H21 C29 1_555 1_555
C30 H22 1_555 1_555
C31 C30 1_555 1_555
H23 C31 1_555 1_555
C32 H24 1_555 1_555
N1 C5 1_555 1_555
N2 C7 1_555 1_555
N3 C13 1_555 1_555
N4 C13 1_555 1_555
N5 C29 1_555 1_555
N6 C31 1_555 1_555
O1 C1 1_555 1_555
O2 C1 1_555 1_555
O3 C12 1_555 1_555
O4 C12 1_555 1_555
Zn1 N3 1_555 1_555
O5 H25 1_555 1_555
H26 O5 1_555 1_555
O6 H27 1_555 1_555
H28 O6 1_555 1_555
O7 H29 1_555 1_555
H30 O7 1_555 1_555
N6A Zn1 1_555 1_555
O3A Zn1 1_555 1_555
Zn1A N6 1_555 1_555
Zn1A_2 O3 1_555 1_555
C6 N1 1_555 1_555
C8 N2 1_555 1_555
C10 C11 1_555 1_555
C14 N3 1_555 1_555
C15 N4 1_555 1_555
C16 N4 1_555 1_555
C21 C22 1_555 1_555
C27 C28 1_555 1_555
C30 N5 1_555 1_555
C32 N5 1_555 1_555
C32 N6 1_555 1_555
O1 Zn1 1_555 1_555

#END
