
#######################################################################
#
#                 Cambridge Crystallographic Data Centre
#                                CCDC 
#
#######################################################################
#
# If this CIF has been generated from an entry in the Cambridge 
# Structural Database, then it will include bibliographic, chemical, 
# crystal, experimental, refinement or atomic coordinate data resulting 
# from the CCDC's data processing and validation procedures.
#
#######################################################################

data_DOMWAF
_symmetry_cell_setting           monoclinic
_symmetry_space_group_name_H-M   'P 21/c'
_symmetry_Int_Tables_number      14
_space_group_name_Hall           '-P 2ybc'
loop_
_symmetry_equiv_pos_site_id
_symmetry_equiv_pos_as_xyz
1 x,y,z
2 -x,1/2+y,1/2-z
3 -x,-y,-z
4 x,1/2-y,1/2+z
_cell_length_a                   10.1472(17)
_cell_length_b                   11.1713(19)
_cell_length_c                   15.584(3)
_cell_angle_alpha                90
_cell_angle_beta                 98.073(3)
_cell_angle_gamma                90
_cell_volume                     1749.06
loop_
_atom_site_label
_atom_site_type_symbol
_atom_site_fract_x
_atom_site_fract_y
_atom_site_fract_z
U1 U 0.96674(3) 0.62727(4) 0.74710(2)
P1 P 0.8045(2) 0.6076(2) 1.14799(16)
O1 O 0.8487(6) 0.5245(7) 0.7003(4)
O2 O 1.0851(6) 0.7313(7) 0.7929(4)
O3 O 0.8611(6) 0.7317(6) 1.1540(4)
O4 O 0.8735(6) 0.5188(7) 1.2105(4)
O5 O 0.9187(7) 0.5693(7) 0.8889(5)
O6 O 0.7985(6) 0.7174(7) 0.8300(4)
N1 N 1.0861(7) 0.6000(8) 0.6147(5)
N2 N 1.2444(7) 0.5633(8) 0.5348(5)
C1 C 0.6333(8) 0.6156(9) 1.1666(6)
C2 C 0.5661(10) 0.7213(11) 1.1607(8)
H1 H 0.6092 0.7905 1.1466
C3 C 0.4363(11) 0.7278(12) 1.1751(9)
H2 H 0.3908 0.8002 1.1692
C4 C 0.3743(10) 0.6267(14) 1.1983(8)
H3 H 0.2879 0.6319 1.2115
C5 C 0.4376(10) 0.5167(12) 1.2026(7)
H4 H 0.3935 0.4475 1.2157
C6 C 0.5689(9) 0.5124(10) 1.1867(6)
H5 H 0.6137 0.4396 1.1897
C7 C 0.8076(10) 0.5586(10) 1.0388(6)
H6 H 0.8986 0.5385 1.0323
H7 H 0.7553 0.4859 1.0296
C8 C 0.7560(8) 0.6471(10) 0.9691(6)
H8 H 0.6623 0.6313 0.9507
H9 H 0.7634 0.7270 0.9937
C9 C 0.8275(9) 0.6443(11) 0.8908(7)
C10 C 1.1960(9) 0.5441(10) 0.6092(7)
H10 H 1.2377 0.4950 0.6529
C11 C 1.0649(11) 0.6616(13) 0.5388(8)
H11 H 0.9940 0.7139 0.5243
C12 C 1.1567(11) 0.6391(12) 0.4872(8)
H12 H 1.1601 0.6682 0.4317
C13 C 1.3739(8) 0.5278(10) 0.5156(6)
C14 C 1.4261(9) 0.5818(11) 0.4500(7)
H13 H 1.3763 0.6386 0.4159
C15 C 1.5522(10) 0.5533(11) 0.4333(7)
H14 H 1.5866 0.5892 0.3873
N1B N 1.9139(7) 0.4000(8) 0.3853(5)
N2B N 1.7556(7) 0.4367(8) 0.4652(5)
C10B C 1.8040(9) 0.4559(10) 0.3908(7)
H10B H 1.7623 0.5050 0.3471
C11B C 1.9351(11) 0.3384(13) 0.4612(8)
H11B H 2.0060 0.2861 0.4757
C12B C 1.8433(11) 0.3609(12) 0.5128(8)
H12B H 1.8399 0.3318 0.5683
C13B C 1.6261(8) 0.4722(10) 0.4844(6)
C14B C 1.5739(9) 0.4182(11) 0.5500(7)
H13B H 1.6237 0.3614 0.5841
C15B C 1.4478(10) 0.4467(11) 0.5667(7)
H14B H 1.4134 0.4108 0.6127
U1B U 1.03326(3) 0.37273(4) 1.25290(2)
P1B P 1.1955(2) 0.3924(2) 0.85201(16)
O1B O 1.1513(6) 0.4755(7) 1.2997(4)
O2B O 0.9149(6) 0.2687(7) 1.2071(4)
O3B O 1.1389(6) 0.2683(6) 0.8460(4)
O4B O 1.1265(6) 0.4812(7) 0.7895(4)
O5B O 1.0813(7) 0.4307(7) 1.1111(5)
O6B O 1.2015(6) 0.2826(7) 1.1700(4)
C1B C 1.3667(8) 0.3844(9) 0.8334(6)
C2B C 1.4339(10) 0.2787(11) 0.8393(8)
H1B H 1.3908 0.2095 0.8534
C3B C 1.5637(11) 0.2722(12) 0.8249(9)
H2B H 1.6092 0.1998 0.8308
C4B C 1.6257(10) 0.3733(14) 0.8017(8)
H3B H 1.7121 0.3681 0.7885
C5B C 1.5624(10) 0.4833(12) 0.7974(7)
H4B H 1.6065 0.5525 0.7843
C6B C 1.4311(9) 0.4876(10) 0.8133(6)
H5B H 1.3863 0.5604 0.8103
C7B C 1.1924(10) 0.4414(10) 0.9612(6)
H6B H 1.1014 0.4615 0.9677
H7B H 1.2447 0.5141 0.9704
C8B C 1.2440(8) 0.3529(10) 1.0309(6)
H8B H 1.3377 0.3687 1.0493
H9B H 1.2366 0.2730 1.0063
C9B C 1.1725(9) 0.3557(11) 1.1092(7)
U1A U 1.03326(3) 0.12727(4) 0.75290(2)
U1B_2 U 2.03326(3) 0.37273(4) 0.25290(2)
U1C U 0.96674(3) 0.87273(4) 1.24710(2)
O3A O 1.1389(6) 0.2317(6) 1.3460(4)
O3C O 0.8611(6) 0.7683(6) 0.6540(4)
N1B_2 N 0.9139(7) 0.4000(8) 1.3853(5)
loop_
_geom_bond_atom_site_label_1
_geom_bond_atom_site_label_2
_geom_bond_site_symmetry_1
_geom_bond_site_symmetry_2
U1 O1 1_555 1_555
P1 O3 1_555 1_555
O2 U1 1_555 1_555
O3 U1C 1_555 1_555
O4 P1 1_555 1_555
O5 U1 1_555 1_555
O6 U1 1_555 1_555
N1 U1 1_555 1_555
N2 C10 1_555 1_555
C1 P1 1_555 1_555
C2 C1 1_555 1_555
H1 C2 1_555 1_555
C3 C2 1_555 1_555
H2 C3 1_555 1_555
C4 C3 1_555 1_555
H3 C4 1_555 1_555
C5 C4 1_555 1_555
H4 C5 1_555 1_555
C6 C1 1_555 1_555
H5 C6 1_555 1_555
C7 P1 1_555 1_555
H6 C7 1_555 1_555
H7 C7 1_555 1_555
C8 C7 1_555 1_555
H8 C8 1_555 1_555
H9 C8 1_555 1_555
C9 O5 1_555 1_555
C10 N1 1_555 1_555
H10 C10 1_555 1_555
C11 N1 1_555 1_555
H11 C11 1_555 1_555
C12 N2 1_555 1_555
H12 C12 1_555 1_555
C13 N2 1_555 1_555
C14 C13 1_555 1_555
H13 C14 1_555 1_555
C15 C14 1_555 1_555
H14 C15 1_555 1_555
N1B C10B 1_555 1_555
N2B C10B 1_555 1_555
C10B H10B 1_555 1_555
C11B N1B 1_555 1_555
H11B C11B 1_555 1_555
C12B N2B 1_555 1_555
H12B C12B 1_555 1_555
C13B C15 1_555 1_555
C14B C13B 1_555 1_555
H13B C14B 1_555 1_555
C15B C13 1_555 1_555
H14B C15B 1_555 1_555
U1B O4 1_555 1_555
P1B O3B 1_555 1_555
O1B U1B 1_555 1_555
O2B U1B 1_555 1_555
O3B U1A 1_555 1_555
O4B U1 1_555 1_555
O5B U1B 1_555 1_555
O6B U1B 1_555 1_555
C1B P1B 1_555 1_555
C2B C1B 1_555 1_555
H1B C2B 1_555 1_555
C3B C2B 1_555 1_555
H2B C3B 1_555 1_555
C4B C3B 1_555 1_555
H3B C4B 1_555 1_555
C5B C4B 1_555 1_555
H4B C5B 1_555 1_555
C6B C1B 1_555 1_555
H5B C6B 1_555 1_555
C7B P1B 1_555 1_555
H6B C7B 1_555 1_555
H7B C7B 1_555 1_555
C8B C7B 1_555 1_555
H8B C8B 1_555 1_555
H9B C8B 1_555 1_555
C9B O5B 1_555 1_555
U1B_2 N1B 1_555 1_555
O3A U1B 1_555 1_555
O3C U1 1_555 1_555
N1B_2 U1B 1_555 1_555
O6 C9 1_555 1_555
C5 C6 1_555 1_555
C8 C9 1_555 1_555
C11 C12 1_555 1_555
N2B C13B 1_555 1_555
C11B C12B 1_555 1_555
C14B C15B 1_555 1_555
P1B O4B 1_555 1_555
O6B C9B 1_555 1_555
C5B C6B 1_555 1_555
C8B C9B 1_555 1_555

#END
