
#######################################################################
#
#                 Cambridge Crystallographic Data Centre
#                                CCDC 
#
#######################################################################
#
# If this CIF has been generated from an entry in the Cambridge 
# Structural Database, then it will include bibliographic, chemical, 
# crystal, experimental, refinement or atomic coordinate data resulting 
# from the CCDC's data processing and validation procedures.
#
#######################################################################

data_DOMYUA
_symmetry_cell_setting           triclinic
_symmetry_space_group_name_H-M   'P -1'
_symmetry_Int_Tables_number      2
_space_group_name_Hall           '-P 1'
loop_
_symmetry_equiv_pos_site_id
_symmetry_equiv_pos_as_xyz
1 x,y,z
2 -x,-y,-z
_cell_length_a                   8.9512(7)
_cell_length_b                   12.1216(10)
_cell_length_c                   14.4833(11)
_cell_angle_alpha                85.640(1)
_cell_angle_beta                 74.600(1)
_cell_angle_gamma                87.585(2)
_cell_volume                     1510.28
loop_
_atom_site_label
_atom_site_type_symbol
_atom_site_fract_x
_atom_site_fract_y
_atom_site_fract_z
C1 C -0.3458(7) 0.2336(5) 0.7835(4)
C2 C -0.1671(6) 0.4213(5) 1.0212(4)
C3 C -0.3452(7) 0.6539(5) 0.6804(4)
C4 C 0.0184(7) 0.5577(5) 0.7592(4)
H1 H 0.0004 0.5929 0.8177
C5 C 0.1509(7) 0.5831(5) 0.6867(4)
H2 H 0.2214 0.6354 0.6953
C6 C 0.1788(6) 0.5312(5) 0.6016(4)
C7 C 0.0743(6) 0.4516(5) 0.5934(4)
H3 H 0.0931 0.4114 0.5375
C8 C -0.0576(6) 0.4328(5) 0.6690(4)
H4 H -0.1303 0.3809 0.6627
C9 C 0.3099(6) 0.5566(5) 0.5190(4)
H5 H 0.3320 0.5107 0.4664
C10 C 0.5954(6) 0.7331(5) 0.4222(4)
H6 H 0.5805 0.7772 0.4755
C11 C 0.9421(7) 0.8624(5) 0.2484(4)
H7 H 1.0167 0.9161 0.2479
C12 C 0.8284(7) 0.8386(5) 0.3315(4)
H8 H 0.8250 0.8755 0.3877
C13 C 0.7174(6) 0.7596(4) 0.3332(4)
C14 C 0.7288(6) 0.7076(5) 0.2489(4)
H9 H 0.6559 0.6535 0.2474
C15 C 0.8461(6) 0.7348(5) 0.1674(4)
H10 H 0.8531 0.6988 0.1103
C16 C -0.2210(6) 0.1468(4) 1.1802(4)
H11 H -0.1267 0.1853 1.1678
C17 C -0.3012(6) 0.1195(5) 1.2735(4)
H12 H -0.2631 0.1396 1.3250
C18 C -0.4388(7) 0.0621(5) 1.2921(4)
C19 C -0.4945(7) 0.0393(5) 1.2140(4)
H13 H -0.5905 0.0035 1.2243
C20 C -0.4086(7) 0.0693(5) 1.1220(4)
H14 H -0.4464 0.0537 1.0691
C21 C -0.5224(6) 0.0220(5) 1.3897(4)
H15 H -0.6257 -0.0029 1.4031
C22 C 0.1933(6) 0.0770(5) 1.0838(4)
C23 C 0.2281(7) 0.1891(5) 1.1116(5)
H16 H 0.1641 0.2461 1.0878
H17 H 0.3379 0.2048 1.0833
H18 H 0.2048 0.1888 1.1816
Hg1 Hg -0.34266(2) 0.480044(18) 0.859989(15)
Hg2 Hg -0.12291(2) 0.138220(17) 0.962010(13)
N1 N -0.3137(7) 0.2045(5) 0.7071(4)
N2 N -0.0887(6) 0.3448(4) 1.0287(4)
N3 N -0.2529(7) 0.6829(5) 0.6125(4)
N4 N -0.0856(5) 0.4851(4) 0.7499(3)
N5 N 0.3952(5) 0.6391(4) 0.5159(3)
N6 N 0.5098(5) 0.6497(4) 0.4266(3)
N7 N 0.9504(5) 0.8115(4) 0.1678(3)
N8 N -0.2734(5) 0.1199(4) 1.1058(3)
N9 N -0.4532(6) 0.0216(4) 1.4553(3)
O1 O 0.2731(5) -0.0056(3) 1.1002(3)
O2 O 0.0845(5) 0.0685(4) 1.0464(4)
S1 S -0.38946(18) 0.27412(12) 0.89622(11)
S2 S -0.27815(16) 0.53360(11) 1.01132(10)
S3 S -0.48743(18) 0.61257(15) 0.77732(11)
N9A N -0.5468(6) -0.0216(4) 1.5447(3)
C21A C -0.4776(6) -0.0220(5) 1.6103(4)
C18A C -0.5612(7) -0.0621(5) 1.7079(4)
C17A C -0.6988(6) -0.1195(5) 1.7265(4)
C16A C -0.7790(6) -0.1468(4) 1.8198(4)
H11A H -0.8733 -0.1853 1.8322
N8A N -0.7266(5) -0.1199(4) 1.8942(3)
C20A C -0.5914(7) -0.0693(5) 1.8780(4)
C19A C -0.5055(7) -0.0393(5) 1.7860(4)
H13A H -0.4095 -0.0035 1.7757
H14A H -0.5536 -0.0537 1.9309
H12A H -0.7369 -0.1396 1.6750
H15A H -0.3743 0.0029 1.5969
Hg2A Hg 1.12291(2) 0.861780(17) 0.037990(13)
C4A C 0.9816(7) 0.4423(5) 0.2408(4)
H1A H 0.9996 0.4071 0.1823
C5A C 0.8491(7) 0.4169(5) 0.3133(4)
H2A H 0.7786 0.3646 0.3047
C6A C 0.8212(6) 0.4688(5) 0.3984(4)
C7A C 0.9257(6) 0.5484(5) 0.4066(4)
H3A H 0.9069 0.5886 0.4625
C8A C 1.0576(6) 0.5672(5) 0.3310(4)
H4A H 1.1303 0.6191 0.3373
C9A C 0.6901(6) 0.4434(5) 0.4810(4)
H5A H 0.6680 0.4893 0.5336
C10A C 0.4046(6) 0.2669(5) 0.5778(4)
H6A H 0.4195 0.2228 0.5245
C11A C 0.0579(7) 0.1376(5) 0.7516(4)
H7A H -0.0167 0.0839 0.7521
C12A C 0.1716(7) 0.1614(5) 0.6685(4)
H8A H 0.1750 0.1245 0.6123
C13A C 0.2826(6) 0.2404(4) 0.6668(4)
C14A C 0.2712(6) 0.2924(5) 0.7511(4)
H9A H 0.3441 0.3465 0.7526
C15A C 0.1539(6) 0.2652(5) 0.8326(4)
H10A H 0.1469 0.3012 0.8897
N4A N 1.0856(5) 0.5149(4) 0.2501(3)
N5A N 0.6048(5) 0.3609(4) 0.4841(3)
N6A N 0.4902(5) 0.3503(4) 0.5734(3)
N7A N 0.0496(5) 0.1885(4) 0.8322(3)
C22A C -0.1933(6) -0.0770(5) 0.9162(4)
C23A C -0.2281(7) -0.1891(5) 0.8884(5)
H16A H -0.1641 -0.2461 0.9122
H17A H -0.3379 -0.2048 0.9167
H18A H -0.2048 -0.1888 0.8184
O1A O -0.2731(5) 0.0056(3) 0.8998(3)
O2A O -0.0845(5) -0.0685(4) 0.9536(4)
C2A C 1.1671(6) 0.5787(5) -0.0212(4)
N2A N 1.0887(6) 0.6552(4) -0.0287(4)
S2A S 1.27815(16) 0.46640(11) -0.01132(10)
C1A C 1.3458(7) 0.7664(5) 0.2165(4)
N1A N 1.3137(7) 0.7955(5) 0.2929(4)
S1A S 1.38946(18) 0.72588(12) 0.10378(11)
Hg1A Hg 1.34266(2) 0.519956(18) 0.140011(15)
C3A C 1.3452(7) 0.3461(5) 0.3196(4)
N3A N 1.2529(7) 0.3171(5) 0.3875(4)
S3A S 1.48743(18) 0.38743(15) 0.22268(11)
Hg2A_2 Hg 0.12291(2) -0.138220(17) 1.037990(13)
Hg2A_3 Hg -0.87709(2) -0.138220(17) 2.037990(13)
O2A_2 O 0.9155(5) 0.9315(4) -0.0464(4)
N8A_2 N 1.2734(5) 0.8801(4) -0.1058(3)
O1_2 O 1.2731(5) 0.9944(3) 0.1002(3)
O2_2 O 1.0845(5) 1.0685(4) 0.0464(4)
C24 C -0.0006(7) 0.8907(5) 0.5846(5)
C25 C 0.0856(8) 0.8158(5) 0.5127(5)
H19 H 0.1844 0.7935 0.5266
H20 H 0.1055 0.8539 0.4486
H21 H 0.0243 0.7500 0.5151
N10 N -0.0665(8) 0.9467(5) 0.6404(5)
loop_
_geom_bond_atom_site_label_1
_geom_bond_atom_site_label_2
_geom_bond_site_symmetry_1
_geom_bond_site_symmetry_2
C1 N1 1_555 1_555
C2 N2 1_555 1_555
C3 N3 1_555 1_555
C4 H1 1_555 1_555
C5 C4 1_555 1_555
H2 C5 1_555 1_555
C6 C5 1_555 1_555
C7 C6 1_555 1_555
H3 C7 1_555 1_555
C8 C7 1_555 1_555
H4 C8 1_555 1_555
C9 C6 1_555 1_555
H5 C9 1_555 1_555
C10 H6 1_555 1_555
C11 H7 1_555 1_555
C12 C11 1_555 1_555
H8 C12 1_555 1_555
C13 C10 1_555 1_555
C14 C13 1_555 1_555
H9 C14 1_555 1_555
C15 C14 1_555 1_555
H10 C15 1_555 1_555
C16 H11 1_555 1_555
C17 C16 1_555 1_555
H12 C17 1_555 1_555
C18 C17 1_555 1_555
C19 C18 1_555 1_555
H13 C19 1_555 1_555
C20 C19 1_555 1_555
H14 C20 1_555 1_555
C21 C18 1_555 1_555
H15 C21 1_555 1_555
C22 C23 1_555 1_555
C23 H16 1_555 1_555
H17 C23 1_555 1_555
H18 C23 1_555 1_555
Hg1 N4 1_555 1_555
Hg2 N2 1_555 1_555
N4 C4 1_555 1_555
N5 C9 1_555 1_555
N6 C10 1_555 1_555
N7 C11 1_555 1_555
N8 C16 1_555 1_555
N9 C21 1_555 1_555
O1 C22 1_555 1_555
O2 C22 1_555 1_555
S1 C1 1_555 1_555
S2 C2 1_555 1_555
S3 C3 1_555 1_555
C24 C25 1_555 1_555
C25 H19 1_555 1_555
H20 C25 1_555 1_555
H21 C25 1_555 1_555
N10 C24 1_555 1_555
N9A N9 1_555 1_555
C21A N9A 1_555 1_555
C18A C21A 1_555 1_555
C17A C18A 1_555 1_555
C16A C17A 1_555 1_555
H11A C16A 1_555 1_555
N8A C16A 1_555 1_555
C20A N8A 1_555 1_555
C19A C18A 1_555 1_555
H13A C19A 1_555 1_555
H14A C20A 1_555 1_555
H12A C17A 1_555 1_555
H15A C21A 1_555 1_555
Hg2A N7 1_555 1_555
C4A H1A 1_555 1_555
C5A C4A 1_555 1_555
H2A C5A 1_555 1_555
C6A C5A 1_555 1_555
C7A C6A 1_555 1_555
H3A C7A 1_555 1_555
C8A C7A 1_555 1_555
H4A C8A 1_555 1_555
C9A C6A 1_555 1_555
H5A C9A 1_555 1_555
C10A H6A 1_555 1_555
C11A H7A 1_555 1_555
C12A C11A 1_555 1_555
H8A C12A 1_555 1_555
C13A C10A 1_555 1_555
C14A C13A 1_555 1_555
H9A C14A 1_555 1_555
C15A C14A 1_555 1_555
H10A C15A 1_555 1_555
N4A C4A 1_555 1_555
N5A C9A 1_555 1_555
N6A C10A 1_555 1_555
N7A Hg2 1_555 1_555
C22A C23A 1_555 1_555
C23A H16A 1_555 1_555
H17A C23A 1_555 1_555
H18A C23A 1_555 1_555
O1A Hg2 1_555 1_555
O2A Hg2 1_555 1_555
C2A N2A 1_555 1_555
N2A Hg2A 1_555 1_555
S2A C2A 1_555 1_555
C1A N1A 1_555 1_555
S1A Hg2A 1_555 1_555
Hg1A N4A 1_555 1_555
C3A N3A 1_555 1_555
S3A Hg1A 1_555 1_555
Hg2A_2 O1 1_555 1_555
Hg2A_3 N8A 1_555 1_555
O2A_2 Hg2A 1_555 1_555
N8A_2 Hg2A 1_555 1_555
O1_2 Hg2A 1_555 1_555
O2_2 Hg2A 1_555 1_555
C8 N4 1_555 1_555
C12 C13 1_555 1_555
C15 N7 1_555 1_555
C20 N8 1_555 1_555
Hg1 S1 1_555 1_555
Hg1 S2 1_555 1_555
Hg1 S3 1_555 1_555
Hg2 S1 1_555 1_555
Hg2 O2 1_555 1_555
Hg2 N8 1_555 1_555
N5 N6 1_555 1_555
O2 Hg2A_2 1_555 1_555
C20A C19A 1_555 1_555
C8A N4A 1_555 1_555
C11A N7A 1_555 1_555
C12A C13A 1_555 1_555
C15A N7A 1_555 1_555
N5A N6A 1_555 1_555
C22A O1A 1_555 1_555
C22A O2A 1_555 1_555
O2A Hg2A_2 1_555 1_555
S2A Hg1A 1_555 1_555
C1A S1A 1_555 1_555
S1A Hg1A 1_555 1_555
C3A S3A 1_555 1_555

#END
