
#######################################################################
#
#                 Cambridge Crystallographic Data Centre
#                                CCDC 
#
#######################################################################
#
# If this CIF has been generated from an entry in the Cambridge 
# Structural Database, then it will include bibliographic, chemical, 
# crystal, experimental, refinement or atomic coordinate data resulting 
# from the CCDC's data processing and validation procedures.
#
#######################################################################

data_DOMYEK
_symmetry_cell_setting           monoclinic
_symmetry_space_group_name_H-M   'P 21/c'
_symmetry_Int_Tables_number      14
_space_group_name_Hall           '-P 2ybc'
loop_
_symmetry_equiv_pos_site_id
_symmetry_equiv_pos_as_xyz
1 x,y,z
2 -x,1/2+y,1/2-z
3 -x,-y,-z
4 x,1/2-y,1/2+z
_cell_length_a                   10.605(2)
_cell_length_b                   19.978(4)
_cell_length_c                   18.567(3)
_cell_angle_alpha                90
_cell_angle_beta                 94.398(3)
_cell_angle_gamma                90
_cell_volume                     3922.15
loop_
_atom_site_label
_atom_site_type_symbol
_atom_site_fract_x
_atom_site_fract_y
_atom_site_fract_z
Ag1 Ag 0.30545(3) 0.835011(15) 0.854800(16)
Ag2 Ag 0.40992(3) 1.010194(14) 0.597215(15)
P1 P 0.15046(8) 0.87228(4) 0.76522(5)
P2 P 0.35467(8) 0.92789(4) 0.68233(5)
O1 O 0.3217(4) 0.86680(18) 0.98029(18)
O2 O 0.1581(4) 0.8061(2) 0.9593(3)
O3 O 0.2139(6) 0.8367(3) 1.0682(2)
O4 O 0.3720(3) 1.01344(14) 0.46824(14)
O5 O 0.2262(3) 1.07883(18) 0.4981(2)
O6 O 0.2212(3) 1.0399(2) 0.38961(18)
N1 N 0.2286(5) 0.8373(2) 1.0036(2)
N2 N 0.2010(3) 0.90501(14) 0.68729(15)
N3 N 0.2704(3) 1.04497(17) 0.45132(19)
N4 N 0.5044(3) 0.61556(15) 0.88793(16)
N5 N 0.4053(3) 0.73352(15) 0.87162(16)
C1 C 0.0495(3) 0.80025(19) 0.7407(2)
C2 C 0.0520(4) 0.7642(2) 0.6794(3)
H1 H 0.0962 0.7806 0.6418
C3 C -0.0105(5) 0.7026(3) 0.6709(3)
H2 H -0.0065 0.6782 0.6284
C4 C -0.0769(6) 0.6789(3) 0.7250(4)
H3 H -0.1194 0.6382 0.7198
C5 C -0.0807(7) 0.7144(4) 0.7863(4)
H4 H -0.1263 0.6978 0.8232
C6 C -0.0187(6) 0.7750(3) 0.7958(3)
H5 H -0.0225 0.7987 0.8387
C7 C 0.0400(4) 0.93137(19) 0.8014(2)
C8 C -0.0827(4) 0.9414(3) 0.7710(3)
H6 H -0.1120 0.9167 0.7308
C9 C -0.1608(6) 0.9873(3) 0.7997(4)
H7 H -0.2423 0.9941 0.7788
C10 C -0.1177(7) 1.0226(3) 0.8587(4)
H8 H -0.1704 1.0541 0.8777
C11 C 0.0005(7) 1.0133(3) 0.8909(4)
H9 H 0.0271 1.0374 0.9322
C12 C 0.0814(5) 0.9675(2) 0.8616(2)
H10 H 0.1630 0.9614 0.8827
C13 C 0.1033(4) 0.9290(2) 0.6291(2)
H11 H 0.0231 0.9077 0.6388
C14 C 0.1328(4) 0.9071(3) 0.5545(2)
H12 H 0.2066 0.9302 0.5409
H13 H 0.0624 0.9172 0.5207
H14 H 0.1482 0.8597 0.5546
C15 C 0.0823(4) 1.0050(2) 0.6335(3)
H15 H 0.0668 1.0170 0.6821
H16 H 0.0108 1.0174 0.6015
H17 H 0.1562 1.0280 0.6197
C16 C 0.4477(3) 0.85280(18) 0.67052(19)
C17 C 0.5775(4) 0.8615(2) 0.6692(2)
H18 H 0.6133 0.9034 0.6785
C18 C 0.6538(5) 0.8075(3) 0.6540(3)
H19 H 0.7408 0.8135 0.6539
C19 C 0.6029(5) 0.7463(2) 0.6392(3)
H20 H 0.6549 0.7105 0.6293
C20 C 0.4740(5) 0.7371(2) 0.6390(2)
H21 H 0.4390 0.6954 0.6280
C21 C 0.3967(4) 0.79012(19) 0.6550(2)
H22 H 0.3099 0.7836 0.6553
C22 C 0.4092(3) 0.95921(18) 0.77148(18)
C23 C 0.4984(4) 0.9282(2) 0.8188(2)
H23 H 0.5310 0.8867 0.8072
C24 C 0.5396(5) 0.9595(3) 0.8839(2)
H24 H 0.5993 0.9385 0.9155
C25 C 0.4927(7) 1.0202(3) 0.9012(3)
H25 H 0.5214 1.0410 0.9442
C26 C 0.4032(7) 1.0509(3) 0.8553(3)
H26 H 0.3701 1.0920 0.8679
C27 C 0.3621(5) 1.0215(2) 0.7910(2)
H27 H 0.3023 1.0432 0.7600
C28 C 0.4756(5) 0.6446(2) 0.9585(2)
H28 H 0.5528 0.6475 0.9899
H29 H 0.4172 0.6155 0.9813
C29 C 0.4174(5) 0.7142(2) 0.9481(2)
H30 H 0.3345 0.7146 0.9669
H31 H 0.4700 0.7466 0.9752
C30 C 0.3285(4) 0.6832(2) 0.8311(3)
H32 H 0.3218 0.6949 0.7802
H33 H 0.2439 0.6830 0.8476
C31 C 0.3865(4) 0.6129(2) 0.8407(3)
H34 H 0.3266 0.5834 0.8617
H35 H 0.4039 0.5950 0.7940
C32 C 0.5337(4) 0.7327(2) 0.8454(2)
H36 H 0.5872 0.7647 0.8725
H37 H 0.5293 0.7455 0.7949
C33 C 0.5911(4) 0.6619(2) 0.8545(3)
H38 H 0.6095 0.6448 0.8076
H39 H 0.6700 0.6645 0.8844
Ag2A Ag 0.59008(3) 0.510194(14) 0.902785(15)
N4A N 0.4956(3) 1.11556(15) 0.61207(16)
N6 N 0.1189(10) 1.2327(4) 0.5060(4)
C34 C 0.2407(10) 1.3475(8) 0.5014(9)
H40 H 0.1927 1.3692 0.4622
H41 H 0.3243 1.3381 0.4877
H42 H 0.2459 1.3762 0.5430
C35 C 0.1826(10) 1.2890(10) 0.5177(6)
loop_
_geom_bond_atom_site_label_1
_geom_bond_atom_site_label_2
_geom_bond_site_symmetry_1
_geom_bond_site_symmetry_2
Ag1 P1 1_555 1_555
Ag2 P2 1_555 1_555
P1 N2 1_555 1_555
P2 N2 1_555 1_555
O1 Ag1 1_555 1_555
O2 Ag1 1_555 1_555
O3 N1 1_555 1_555
O4 Ag2 1_555 1_555
O5 N3 1_555 1_555
O6 N3 1_555 1_555
N1 O1 1_555 1_555
N2 C13 1_555 1_555
N3 O4 1_555 1_555
N4 C28 1_555 1_555
N5 Ag1 1_555 1_555
N6 C35 1_555 1_555
C1 P1 1_555 1_555
C2 C1 1_555 1_555
H1 C2 1_555 1_555
C3 C2 1_555 1_555
H2 C3 1_555 1_555
C4 C3 1_555 1_555
H3 C4 1_555 1_555
C5 C4 1_555 1_555
H4 C5 1_555 1_555
C6 C1 1_555 1_555
H5 C6 1_555 1_555
C7 P1 1_555 1_555
C8 C7 1_555 1_555
H6 C8 1_555 1_555
C9 C8 1_555 1_555
H7 C9 1_555 1_555
C10 C9 1_555 1_555
H8 C10 1_555 1_555
C11 C10 1_555 1_555
H9 C11 1_555 1_555
C12 C7 1_555 1_555
H10 C12 1_555 1_555
C13 H11 1_555 1_555
C14 C13 1_555 1_555
H12 C14 1_555 1_555
H13 C14 1_555 1_555
H14 C14 1_555 1_555
C15 C13 1_555 1_555
H15 C15 1_555 1_555
H16 C15 1_555 1_555
H17 C15 1_555 1_555
C16 P2 1_555 1_555
C17 C16 1_555 1_555
H18 C17 1_555 1_555
C18 C17 1_555 1_555
H19 C18 1_555 1_555
C19 C18 1_555 1_555
H20 C19 1_555 1_555
C20 C19 1_555 1_555
H21 C20 1_555 1_555
C21 C16 1_555 1_555
H22 C21 1_555 1_555
C22 P2 1_555 1_555
C23 C22 1_555 1_555
H23 C23 1_555 1_555
C24 C23 1_555 1_555
H24 C24 1_555 1_555
C25 C24 1_555 1_555
H25 C25 1_555 1_555
C26 C25 1_555 1_555
H26 C26 1_555 1_555
C27 C22 1_555 1_555
H27 C27 1_555 1_555
C28 H28 1_555 1_555
H29 C28 1_555 1_555
C29 N5 1_555 1_555
H30 C29 1_555 1_555
H31 C29 1_555 1_555
C30 N5 1_555 1_555
H32 C30 1_555 1_555
H33 C30 1_555 1_555
C31 N4 1_555 1_555
H34 C31 1_555 1_555
H35 C31 1_555 1_555
C32 N5 1_555 1_555
H36 C32 1_555 1_555
H37 C32 1_555 1_555
C33 N4 1_555 1_555
H38 C33 1_555 1_555
H39 C33 1_555 1_555
C34 H40 1_555 1_555
H41 C34 1_555 1_555
H42 C34 1_555 1_555
C35 C34 1_555 1_555
Ag2A N4 1_555 1_555
N4A Ag2 1_555 1_555
O2 N1 1_555 1_555
C5 C6 1_555 1_555
C11 C12 1_555 1_555
C20 C21 1_555 1_555
C26 C27 1_555 1_555
C28 C29 1_555 1_555
C30 C31 1_555 1_555
C32 C33 1_555 1_555

#END
