
#######################################################################
#
#                 Cambridge Crystallographic Data Centre
#                                CCDC 
#
#######################################################################
#
# If this CIF has been generated from an entry in the Cambridge 
# Structural Database, then it will include bibliographic, chemical, 
# crystal, experimental, refinement or atomic coordinate data resulting 
# from the CCDC's data processing and validation procedures.
#
#######################################################################

data_DONFET
_symmetry_cell_setting           triclinic
_symmetry_space_group_name_H-M   'P -1'
_symmetry_Int_Tables_number      2
_space_group_name_Hall           '-P 1'
loop_
_symmetry_equiv_pos_site_id
_symmetry_equiv_pos_as_xyz
1 x,y,z
2 -x,-y,-z
_cell_length_a                   9.5251(6)
_cell_length_b                   9.8837(6)
_cell_length_c                   16.3942(11)
_cell_angle_alpha                72.834(4)
_cell_angle_beta                 87.431(4)
_cell_angle_gamma                71.093(4)
_cell_volume                     1392.88
loop_
_atom_site_label
_atom_site_type_symbol
_atom_site_fract_x
_atom_site_fract_y
_atom_site_fract_z
Ni1 Ni 0.36970(3) 0.31396(3) 1.321319(18)
O1 O 0.2120(2) 0.5235(2) 1.45130(10)
O2 O 0.21274(17) 0.51666(17) 1.31725(10)
O3 O -0.45537(17) 1.12293(17) 1.32429(10)
O4 O -0.35890(19) 1.20049(18) 1.19949(11)
O5 O 0.3701(3) 0.8503(3) 0.95050(15)
H1 H 0.354(5) 0.830(5) 0.9055(16)
O6 O 0.1362(2) 0.8548(2) 0.96580(12)
N1 N 0.2751(2) 0.3339(2) 1.20367(12)
N2 N 0.1699(3) 0.4571(3) 0.76013(15)
N3 N 0.2405(2) 0.1910(2) 1.38748(12)
C1 C 0.0365(2) 0.7210(2) 1.34896(14)
C2 C -0.0911(3) 0.7287(3) 1.39441(14)
H2 H -0.0907 0.6498 1.4425
C3 C -0.2185(2) 0.8510(2) 1.36957(15)
H3 H -0.3034 0.8535 1.4002
C4 C -0.2197(2) 0.9709(2) 1.29853(14)
C5 C -0.0920(2) 0.9639(2) 1.25353(15)
H4 H -0.0923 1.0442 1.2064
C6 C 0.0361(2) 0.8407(2) 1.27675(14)
C7 C 0.1678(2) 0.8369(2) 1.22372(15)
C8 C 0.3065(3) 0.8151(3) 1.25815(17)
H5 H 0.3189 0.8033 1.3161
C9 C 0.4270(3) 0.8107(3) 1.20700(19)
H6 H 0.5189 0.7983 1.2307
C10 C 0.4120(3) 0.8245(3) 1.12164(18)
H7 H 0.4938 0.8191 1.0881
C11 C 0.2736(3) 0.8467(3) 1.08578(16)
C12 C 0.1528(3) 0.8552(2) 1.13683(15)
H8 H 0.0597 0.8736 1.1124
C13 C 0.1655(2) 0.5766(2) 1.37497(14)
C14 C -0.3548(3) 1.1074(2) 1.27176(15)
C15 C 0.2515(3) 0.8519(3) 0.99536(17)
C16 C 0.1835(3) 0.5426(3) 0.88051(16)
H9 H 0.1854 0.6211 0.9003
C17 C 0.1713(3) 0.5628(3) 0.79434(17)
H10 H 0.1635 0.6569 0.7574
C18 C 0.1759(3) 0.3262(4) 0.81544(18)
H11 H 0.1730 0.2504 0.7935
C19 C 0.1863(3) 0.2951(3) 0.90283(17)
H12 H 0.1887 0.2014 0.9382
C20 C 0.1930(3) 0.4050(3) 0.93768(15)
C21 C 0.2130(3) 0.3779(3) 1.03068(15)
C22 C 0.1798(3) 0.4966(3) 1.06496(16)
H13 H 0.1355 0.5941 1.0302
C23 C 0.2121(3) 0.4702(3) 1.14971(16)
H14 H 0.1889 0.5519 1.1710
C24 C 0.2981(3) 0.2193(3) 1.17218(17)
H15 H 0.3359 0.1227 1.2093
C25 C 0.2689(3) 0.2360(3) 1.08820(17)
H16 H 0.2867 0.1519 1.0696
C26 C 0.0936(3) 0.2543(3) 1.38139(17)
H17 H 0.0539 0.3525 1.3467
C27 C -0.0023(3) 0.1838(3) 1.42304(17)
H18 H -0.1042 0.2339 1.4157
C28 C 0.0511(2) 0.0385(3) 1.47598(14)
C29 C 0.2037(3) -0.0281(3) 1.48173(18)
H19 H 0.2461 -0.1265 1.5157
C30 C 0.2931(3) 0.0500(3) 1.43763(16)
H20 H 0.3954 0.0022 1.4430
O7 O 0.4647(2) 0.3108(2) 1.43477(12)
H21 H 0.529(2) 0.355(3) 1.420(2)
H22 H 0.391(2) 0.366(3) 1.454(2)
O8 O 0.49720(19) 0.44004(19) 1.25068(12)
H23 H 0.5544 0.3864 1.2227
H24 H 0.5477 0.4602 1.2842
N3A N -0.2405(2) -0.1910(2) 1.61252(12)
C26A C -0.0936(3) -0.2543(3) 1.61861(17)
H17A H -0.0539 -0.3525 1.6533
C27A C 0.0023(3) -0.1838(3) 1.57696(17)
H18A H 0.1042 -0.2339 1.5843
C28A C -0.0511(2) -0.0385(3) 1.52402(14)
C29A C -0.2037(3) 0.0281(3) 1.51827(18)
H19A H -0.2461 0.1265 1.4843
C30A C -0.2931(3) -0.0500(3) 1.56237(16)
H20A H -0.3954 -0.0022 1.5570
Ni1A Ni -0.36970(3) -0.31396(3) 1.678681(18)
O1A O -0.2120(2) -0.5235(2) 1.54870(10)
O2A O -0.21274(17) -0.51666(17) 1.68275(10)
O3A O 0.45537(17) -1.12293(17) 1.67571(10)
O4A O 0.35890(19) -1.20049(18) 1.80051(11)
O5A O -0.3701(3) -0.8503(3) 2.04950(15)
H1A H -0.354(5) -0.830(5) 2.0945(16)
O6A O -0.1362(2) -0.8548(2) 2.03420(12)
N1A N -0.2751(2) -0.3339(2) 1.79633(12)
N2A N -0.1699(3) -0.4571(3) 2.23987(15)
C1A C -0.0365(2) -0.7210(2) 1.65104(14)
C2A C 0.0911(3) -0.7287(3) 1.60559(14)
H2A H 0.0907 -0.6498 1.5575
C3A C 0.2185(2) -0.8510(2) 1.63043(15)
H3A H 0.3034 -0.8535 1.5998
C4A C 0.2197(2) -0.9709(2) 1.70147(14)
C5A C 0.0920(2) -0.9639(2) 1.74647(15)
H4A H 0.0923 -1.0442 1.7936
C6A C -0.0361(2) -0.8407(2) 1.72325(14)
C7A C -0.1678(2) -0.8369(2) 1.77628(15)
C8A C -0.3065(3) -0.8151(3) 1.74185(17)
H5A H -0.3189 -0.8033 1.6839
C9A C -0.4270(3) -0.8107(3) 1.79300(19)
H6A H -0.5189 -0.7983 1.7693
C10A C -0.4120(3) -0.8245(3) 1.87836(18)
H7A H -0.4938 -0.8191 1.9119
C11A C -0.2736(3) -0.8467(3) 1.91422(16)
C12A C -0.1528(3) -0.8552(2) 1.86317(15)
H8A H -0.0597 -0.8736 1.8876
C13A C -0.1655(2) -0.5766(2) 1.62503(14)
C14A C 0.3548(3) -1.1074(2) 1.72824(15)
C15A C -0.2515(3) -0.8519(3) 2.00464(17)
C16A C -0.1835(3) -0.5426(3) 2.11949(16)
H9A H -0.1854 -0.6211 2.0997
C17A C -0.1713(3) -0.5628(3) 2.20566(17)
H10A H -0.1635 -0.6569 2.2426
C18A C -0.1759(3) -0.3262(4) 2.18456(18)
H11A H -0.1730 -0.2504 2.2065
C19A C -0.1863(3) -0.2951(3) 2.09717(17)
H12A H -0.1887 -0.2014 2.0618
C20A C -0.1930(3) -0.4050(3) 2.06232(15)
C21A C -0.2130(3) -0.3779(3) 1.96932(15)
C22A C -0.1798(3) -0.4966(3) 1.93504(16)
H13A H -0.1355 -0.5941 1.9698
C23A C -0.2121(3) -0.4702(3) 1.85029(16)
H14A H -0.1889 -0.5519 1.8290
C24A C -0.2981(3) -0.2193(3) 1.82782(17)
H15A H -0.3359 -0.1227 1.7907
C25A C -0.2689(3) -0.2360(3) 1.91180(17)
H16A H -0.2867 -0.1519 1.9304
O7A O -0.4647(2) -0.3108(2) 1.56523(12)
H21A H -0.529(2) -0.355(3) 1.580(2)
H22A H -0.391(2) -0.366(3) 1.546(2)
O8A O -0.49720(19) -0.44004(19) 1.74932(12)
H23A H -0.5544 -0.3864 1.7773
H24A H -0.5477 -0.4602 1.7158
Ni1_2 Ni -0.63030(3) 1.31396(3) 1.321319(18)
Ni1A_2 Ni 0.63030(3) -1.31396(3) 1.678681(18)
O3_2 O 0.54463(17) 0.12293(17) 1.32429(10)
O3A_2 O -0.54463(17) -0.12293(17) 1.67571(10)
O9 O 0.6721(3) 0.4681(3) 0.39921(17)
H25 H 0.717(3) 0.463(4) 0.4443(11)
H26 H 0.721(4) 0.495(5) 0.3563(12)
loop_
_geom_bond_atom_site_label_1
_geom_bond_atom_site_label_2
_geom_bond_site_symmetry_1
_geom_bond_site_symmetry_2
Ni1 O2 1_555 1_555
O1 C13 1_555 1_555
O2 C13 1_555 1_555
O3 C14 1_555 1_555
O4 C14 1_555 1_555
O5 H1 1_555 1_555
O6 C15 1_555 1_555
N1 Ni1 1_555 1_555
N2 C17 1_555 1_555
N3 Ni1 1_555 1_555
C1 C2 1_555 1_555
C2 H2 1_555 1_555
C3 C2 1_555 1_555
H3 C3 1_555 1_555
C4 C3 1_555 1_555
C5 C4 1_555 1_555
H4 C5 1_555 1_555
C6 C1 1_555 1_555
C7 C6 1_555 1_555
C8 C7 1_555 1_555
H5 C8 1_555 1_555
C9 C8 1_555 1_555
H6 C9 1_555 1_555
C10 C9 1_555 1_555
H7 C10 1_555 1_555
C11 C10 1_555 1_555
C12 C7 1_555 1_555
H8 C12 1_555 1_555
C13 C1 1_555 1_555
C14 C4 1_555 1_555
C15 O5 1_555 1_555
C16 H9 1_555 1_555
C17 C16 1_555 1_555
H10 C17 1_555 1_555
C18 N2 1_555 1_555
H11 C18 1_555 1_555
C19 C18 1_555 1_555
H12 C19 1_555 1_555
C20 C16 1_555 1_555
C21 C20 1_555 1_555
C22 C21 1_555 1_555
H13 C22 1_555 1_555
C23 N1 1_555 1_555
H14 C23 1_555 1_555
C24 N1 1_555 1_555
H15 C24 1_555 1_555
C25 C21 1_555 1_555
H16 C25 1_555 1_555
C26 N3 1_555 1_555
H17 C26 1_555 1_555
C27 C26 1_555 1_555
H18 C27 1_555 1_555
C28 C27 1_555 1_555
C29 C28 1_555 1_555
H19 C29 1_555 1_555
C30 N3 1_555 1_555
H20 C30 1_555 1_555
O7 Ni1 1_555 1_555
H21 O7 1_555 1_555
H22 O7 1_555 1_555
O8 Ni1 1_555 1_555
H23 O8 1_555 1_555
H24 O8 1_555 1_555
O9 H25 1_555 1_555
H26 O9 1_555 1_555
N3A C26A 1_555 1_555
C26A H17A 1_555 1_555
C27A C26A 1_555 1_555
H18A C27A 1_555 1_555
C28A C28 1_555 1_555
C29A C28A 1_555 1_555
H19A C29A 1_555 1_555
C30A N3A 1_555 1_555
H20A C30A 1_555 1_555
Ni1A N3A 1_555 1_555
O1A C13A 1_555 1_555
O2A Ni1A 1_555 1_555
O3A C14A 1_555 1_555
O4A C14A 1_555 1_555
O5A H1A 1_555 1_555
O6A C15A 1_555 1_555
N1A Ni1A 1_555 1_555
N2A C17A 1_555 1_555
C1A C2A 1_555 1_555
C2A H2A 1_555 1_555
C3A C2A 1_555 1_555
H3A C3A 1_555 1_555
C4A C3A 1_555 1_555
C5A C4A 1_555 1_555
H4A C5A 1_555 1_555
C6A C1A 1_555 1_555
C7A C6A 1_555 1_555
C8A C7A 1_555 1_555
H5A C8A 1_555 1_555
C9A C8A 1_555 1_555
H6A C9A 1_555 1_555
C10A C9A 1_555 1_555
H7A C10A 1_555 1_555
C11A C10A 1_555 1_555
C12A C7A 1_555 1_555
H8A C12A 1_555 1_555
C13A O2A 1_555 1_555
C14A C4A 1_555 1_555
C15A O5A 1_555 1_555
C16A H9A 1_555 1_555
C17A C16A 1_555 1_555
H10A C17A 1_555 1_555
C18A N2A 1_555 1_555
H11A C18A 1_555 1_555
C19A C18A 1_555 1_555
H12A C19A 1_555 1_555
C20A C16A 1_555 1_555
C21A C20A 1_555 1_555
C22A C21A 1_555 1_555
H13A C22A 1_555 1_555
C23A N1A 1_555 1_555
H14A C23A 1_555 1_555
C24A N1A 1_555 1_555
H15A C24A 1_555 1_555
C25A C21A 1_555 1_555
H16A C25A 1_555 1_555
O7A Ni1A 1_555 1_555
H21A O7A 1_555 1_555
H22A O7A 1_555 1_555
O8A Ni1A 1_555 1_555
H23A O8A 1_555 1_555
H24A O8A 1_555 1_555
Ni1_2 O3 1_555 1_555
Ni1A_2 O3A 1_555 1_555
O3_2 Ni1 1_555 1_555
O3A_2 Ni1A 1_555 1_555
C5 C6 1_555 1_555
C11 C12 1_555 1_555
C11 C15 1_555 1_555
C19 C20 1_555 1_555
C22 C23 1_555 1_555
C24 C25 1_555 1_555
C29 C30 1_555 1_555
C27A C28A 1_555 1_555
C29A C30A 1_555 1_555
C1A C13A 1_555 1_555
C5A C6A 1_555 1_555
C11A C12A 1_555 1_555
C11A C15A 1_555 1_555
C19A C20A 1_555 1_555
C22A C23A 1_555 1_555
C24A C25A 1_555 1_555

#END
