
#######################################################################
#
#                 Cambridge Crystallographic Data Centre
#                                CCDC 
#
#######################################################################
#
# If this CIF has been generated from an entry in the Cambridge 
# Structural Database, then it will include bibliographic, chemical, 
# crystal, experimental, refinement or atomic coordinate data resulting 
# from the CCDC's data processing and validation procedures.
#
#######################################################################

data_DONGOE
_symmetry_cell_setting           monoclinic
_symmetry_space_group_name_H-M   'C 2/c'
_symmetry_Int_Tables_number      15
_space_group_name_Hall           '-C 2yn'
loop_
_symmetry_equiv_pos_site_id
_symmetry_equiv_pos_as_xyz
1 x,y,z
2 -x,y,1/2-z
3 1/2+x,1/2+y,z
4 1/2-x,1/2+y,1/2-z
5 -x,-y,-z
6 x,-y,1/2+z
7 1/2-x,1/2-y,-z
8 1/2+x,1/2-y,1/2+z
_cell_length_a                   23.205(3)
_cell_length_b                   9.0844(11)
_cell_length_c                   12.5312(15)
_cell_angle_alpha                90
_cell_angle_beta                 91.946(2)
_cell_angle_gamma                90
_cell_volume                     2640.1
loop_
_atom_site_label
_atom_site_type_symbol
_atom_site_fract_x
_atom_site_fract_y
_atom_site_fract_z
Cu1 Cu 0.36456(6) 0.24954(10) 0.09027(9)
O1 O 0.4339(2) 0.0633(5) 0.0759(4)
N1 N 0.3447(4) 0.4573(9) 0.0430(7)
N2 N 0.4051(4) 0.3645(8) 0.2122(6)
N3 N 0.4191(4) 0.6122(10) 0.2685(7)
N4 N 0.4570(4) 0.4118(11) 0.3740(7)
N5 N 0.4707(5) 0.6601(11) 0.4242(7)
H1 H 0.4899 0.6349 0.4812
H2 H 0.4649 0.7517 0.4101
N6 N 0.4394(5) 0.1767(10) 0.3195(7)
H3 H 0.4577 0.1464 0.3762
H4 H 0.4249 0.1142 0.2746
N7 N 0.3206(5) 0.1690(11) -0.0340(8)
N8 N 0.2716(6) 0.0563(14) -0.1880(12)
N9 N 0.3091(5) -0.1376(10) -0.3030(8)
C1 C 0.3142(5) 0.4989(13) -0.0462(8)
H5 H 0.2969 0.4265 -0.0889
C2 C 0.3080(5) 0.6397(14) -0.0753(10)
H6 H 0.2876 0.6646 -0.1379
C3 C 0.3331(7) 0.7506(10) -0.0087(12)
H7 H 0.3298 0.8492 -0.0278
C4 C 0.3616(5) 0.7128(14) 0.0812(9)
H8 H 0.3773 0.7843 0.1266
C5 C 0.3672(4) 0.5642(11) 0.1056(8)
C6 C 0.3991(4) 0.5141(12) 0.2026(7)
C7 C 0.4493(5) 0.5546(11) 0.3560(8)
C8 C 0.4336(5) 0.3193(12) 0.3015(8)
C9 C 0.3028(6) 0.1162(14) -0.1111(10)
C10 C 0.2955(5) -0.0442(11) -0.2494(8)
H9 H 0.421(5) 0.334(14) 0.092(9)
Cu1E Cu 0.36456(6) -0.24954(10) -0.40973(9)
N9E N 0.3091(5) 0.1376(10) 0.1970(8)
loop_
_geom_bond_atom_site_label_1
_geom_bond_atom_site_label_2
_geom_bond_site_symmetry_1
_geom_bond_site_symmetry_2
Cu1 O1 1_555 1_555
N1 Cu1 1_555 1_555
N2 Cu1 1_555 1_555
N3 C6 1_555 1_555
N4 C7 1_555 1_555
N5 H1 1_555 1_555
H2 N5 1_555 1_555
N6 H3 1_555 1_555
H4 N6 1_555 1_555
N7 Cu1 1_555 1_555
N8 C9 1_555 1_555
N9 C10 1_555 1_555
C1 N1 1_555 1_555
H5 C1 1_555 1_555
C2 C1 1_555 1_555
H6 C2 1_555 1_555
C3 C2 1_555 1_555
H7 C3 1_555 1_555
C4 C3 1_555 1_555
H8 C4 1_555 1_555
C5 N1 1_555 1_555
C6 N2 1_555 1_555
C7 N3 1_555 1_555
C8 N2 1_555 1_555
C9 N7 1_555 1_555
C10 N8 1_555 1_555
H9 Cu1 1_555 1_555
Cu1E N9 1_555 1_555
N9E Cu1 1_555 1_555
N4 C8 1_555 1_555
N5 C7 1_555 1_555
N6 C8 1_555 1_555
C4 C5 1_555 1_555
C5 C6 1_555 1_555

#END
