
#######################################################################
#
#                 Cambridge Crystallographic Data Centre
#                                CCDC 
#
#######################################################################
#
# If this CIF has been generated from an entry in the Cambridge 
# Structural Database, then it will include bibliographic, chemical, 
# crystal, experimental, refinement or atomic coordinate data resulting 
# from the CCDC's data processing and validation procedures.
#
#######################################################################

data_DONGUK
_symmetry_cell_setting           monoclinic
_symmetry_space_group_name_H-M   'P 21/n'
_symmetry_Int_Tables_number      14
_space_group_name_Hall           '-P 2yn'
loop_
_symmetry_equiv_pos_site_id
_symmetry_equiv_pos_as_xyz
1 x,y,z
2 1/2-x,1/2+y,1/2-z
3 -x,-y,-z
4 1/2+x,1/2-y,1/2+z
_cell_length_a                   7.179(5)
_cell_length_b                   14.380(10)
_cell_length_c                   14.585(10)
_cell_angle_alpha                90
_cell_angle_beta                 96.288(9)
_cell_angle_gamma                90
_cell_volume                     1496.61
loop_
_atom_site_label
_atom_site_type_symbol
_atom_site_fract_x
_atom_site_fract_y
_atom_site_fract_z
Co1 Co 0.17453(5) 0.72756(3) 1.08512(2)
N1 N 0.0545(3) 0.86168(16) 1.09904(15)
N2 N 0.4425(4) 0.93987(18) 1.25613(17)
N3 N 0.6851(4) 0.82550(19) 1.25689(16)
N4 N 0.3908(3) 0.80181(16) 1.16765(15)
N5 N 0.7192(4) 0.9549(2) 1.34850(18)
H1 H 0.8297 0.9359 1.3687
H2 H 0.6771 1.0061 1.3686
N6 N 0.6323(4) 0.6989(2) 1.16372(19)
H3 H 0.7446 0.6807 1.1814
H4 H 0.5613 0.6663 1.1248
N7 N 0.3210(4) 0.76273(18) 0.97268(17)
N8 N 0.5399(4) 0.8317(2) 0.87577(18)
N9 N -0.0621(4) 0.67409(19) 1.00386(18)
N10 N -0.3235(4) 0.57692(18) 0.9375(2)
N11 N -0.2918(4) 0.40912(18) 0.91502(17)
N12 N 0.5710(4) 0.81020(18) 0.71287(17)
C1 C -0.1135(5) 0.8902(2) 1.0594(2)
H5 H -0.1819 0.8511 1.0175
C2 C -0.1884(5) 0.9758(2) 1.0787(2)
H6 H -0.3050 0.9940 1.0503
C3 C -0.0864(6) 1.0333(3) 1.1407(2)
H7 H -0.1343 1.0910 1.1550
C4 C 0.0862(5) 1.0054(2) 1.1815(2)
H8 H 0.1568 1.0438 1.2233
C5 C 0.1524(4) 0.9192(2) 1.15886(18)
C6 C 0.3396(4) 0.8851(2) 1.19777(19)
C7 C 0.6127(5) 0.9047(2) 1.2858(2)
C8 C 0.5687(4) 0.7775(2) 1.1965(2)
C9 C 0.4194(5) 0.7909(2) 0.9235(2)
C10 C 0.5505(4) 0.8155(2) 0.7887(2)
C11 C -0.2992(4) 0.4879(2) 0.9261(2)
C12 C -0.1802(4) 0.6266(2) 0.9718(2)
Co1B Co -0.17453(5) 0.27244(3) 0.91488(2)
Co1C Co 0.67453(5) 0.77244(3) 0.58512(2)
N11B N 0.2918(4) 0.59088(18) 1.08498(17)
N12C N 0.0710(4) 0.68980(18) 1.21287(17)
loop_
_geom_bond_atom_site_label_1
_geom_bond_atom_site_label_2
_geom_bond_site_symmetry_1
_geom_bond_site_symmetry_2
Co1 N1 1_555 1_555
N1 C1 1_555 1_555
N2 C6 1_555 1_555
N3 C7 1_555 1_555
N4 Co1 1_555 1_555
N5 H1 1_555 1_555
H2 N5 1_555 1_555
N6 H3 1_555 1_555
H4 N6 1_555 1_555
N7 Co1 1_555 1_555
N8 C9 1_555 1_555
N9 Co1 1_555 1_555
N10 C11 1_555 1_555
N11 C11 1_555 1_555
N12 C10 1_555 1_555
C1 H5 1_555 1_555
C2 C1 1_555 1_555
H6 C2 1_555 1_555
C3 C2 1_555 1_555
H7 C3 1_555 1_555
C4 C3 1_555 1_555
H8 C4 1_555 1_555
C5 N1 1_555 1_555
C6 N4 1_555 1_555
C7 N2 1_555 1_555
C8 N3 1_555 1_555
C9 N7 1_555 1_555
C10 N8 1_555 1_555
C12 N9 1_555 1_555
Co1B N11 1_555 1_555
Co1C N12 1_555 1_555
N11B Co1 1_555 1_555
N12C Co1 1_555 1_555
N4 C8 1_555 1_555
N5 C7 1_555 1_555
N6 C8 1_555 1_555
N10 C12 1_555 1_555
C4 C5 1_555 1_555
C5 C6 1_555 1_555

#END
