
#######################################################################
#
#                 Cambridge Crystallographic Data Centre
#                                CCDC 
#
#######################################################################
#
# If this CIF has been generated from an entry in the Cambridge 
# Structural Database, then it will include bibliographic, chemical, 
# crystal, experimental, refinement or atomic coordinate data resulting 
# from the CCDC's data processing and validation procedures.
#
#######################################################################

data_DONHEV
_symmetry_cell_setting           monoclinic
_symmetry_space_group_name_H-M   'P 21/c'
_symmetry_Int_Tables_number      14
_space_group_name_Hall           '-P 2ybc'
loop_
_symmetry_equiv_pos_site_id
_symmetry_equiv_pos_as_xyz
1 x,y,z
2 -x,1/2+y,1/2-z
3 -x,-y,-z
4 x,1/2-y,1/2+z
_cell_length_a                   8.63530(10)
_cell_length_b                   16.7333(2)
_cell_length_c                   14.9571(2)
_cell_angle_alpha                90
_cell_angle_beta                 96.4950(10)
_cell_angle_gamma                90
_cell_volume                     2147.39
loop_
_atom_site_label
_atom_site_type_symbol
_atom_site_fract_x
_atom_site_fract_y
_atom_site_fract_z
Ag1 Ag 0.54807(2) 1.143745(10) 0.271276(11)
O1 O 0.0682(2) 1.08089(10) 0.61515(12)
O2 O 0.16465(17) 0.95579(8) 0.60845(9)
O3 O 0.0854(2) 0.68777(10) 0.62567(12)
O4 O 0.05809(19) 0.81356(8) 0.57045(10)
N1 N 0.4335(2) 1.10335(10) 0.38207(12)
N2 N 0.3254(2) 0.67779(10) 0.33664(11)
C1 C 0.3997(3) 1.15403(13) 0.44665(16)
H1 H 0.4377 1.2060 0.4461
C2 C 0.3115(3) 1.13241(13) 0.51346(15)
H2 H 0.2878 1.1696 0.5561
C3 C 0.2582(2) 1.05456(12) 0.51677(13)
C4 C 0.2958(3) 1.00125(12) 0.45218(14)
H3 H 0.2644 0.9481 0.4535
C5 C 0.3810(3) 1.02838(13) 0.38558(15)
H4 H 0.4030 0.9928 0.3410
C6 C 0.1531(3) 1.03399(13) 0.58583(14)
C7 C 0.0686(2) 0.92429(12) 0.66965(13)
C8 C 0.0352(2) 0.96300(12) 0.74543(13)
H5 H 0.0748 1.0138 0.7586
C9 C -0.0599(2) 0.92542(12) 0.80354(13)
C10 C -0.0978(3) 0.96324(13) 0.88334(14)
H6 H -0.0590 1.0140 0.8980
C11 C -0.1903(3) 0.92605(13) 0.93858(15)
H7 H -0.2129 0.9512 0.9910
C12 C -0.2518(3) 0.84965(13) 0.91664(15)
H8 H -0.3158 0.8249 0.9543
C13 C -0.2179(3) 0.81162(13) 0.84023(15)
H9 H -0.2596 0.7613 0.8263
C14 C -0.1202(2) 0.84803(12) 0.78220(14)
C15 C -0.0816(3) 0.80911(12) 0.70345(14)
H10 H -0.1207 0.7584 0.6888
C16 C 0.0127(3) 0.84617(12) 0.64949(13)
C17 C 0.1003(3) 0.73512(12) 0.56777(14)
C18 C 0.1718(2) 0.71699(12) 0.48384(13)
C19 C 0.2471(3) 0.64417(12) 0.48011(15)
H11 H 0.2470 0.6077 0.5270
C20 C 0.3221(3) 0.62663(13) 0.40622(15)
H12 H 0.3725 0.5777 0.4041
C21 C 0.2500(3) 0.74745(13) 0.33992(14)
H13 H 0.2499 0.7826 0.2918
C22 C 0.1720(3) 0.76926(12) 0.41208(14)
H14 H 0.1208 0.8181 0.4124
Ag1A Ag 0.45193(2) 0.643745(10) 0.228724(11)
N2A N 0.6746(2) 1.17779(10) 0.16336(11)
P1 P 0.55136(7) 0.89157(3) 0.19062(4)
F1 F 0.5564(2) 0.85477(10) 0.28926(11)
F2 F 0.61210(17) 0.97491(8) 0.23408(10)
F3 F 0.37716(16) 0.91828(9) 0.19669(10)
F4 F 0.4894(2) 0.80815(8) 0.14873(12)
F5 F 0.7259(2) 0.86496(11) 0.18524(15)
F6 F 0.5445(2) 0.92883(10) 0.09280(10)
loop_
_geom_bond_atom_site_label_1
_geom_bond_atom_site_label_2
_geom_bond_site_symmetry_1
_geom_bond_site_symmetry_2
Ag1 N1 1_555 1_555
O1 C6 1_555 1_555
O2 C6 1_555 1_555
O3 C17 1_555 1_555
O4 C16 1_555 1_555
N1 C1 1_555 1_555
N2 C20 1_555 1_555
C1 H1 1_555 1_555
C2 C1 1_555 1_555
H2 C2 1_555 1_555
C3 C2 1_555 1_555
C4 C3 1_555 1_555
H3 C4 1_555 1_555
C5 N1 1_555 1_555
H4 C5 1_555 1_555
C6 C3 1_555 1_555
C7 O2 1_555 1_555
C8 C7 1_555 1_555
H5 C8 1_555 1_555
C9 C8 1_555 1_555
C10 C9 1_555 1_555
H6 C10 1_555 1_555
C11 C10 1_555 1_555
H7 C11 1_555 1_555
C12 C11 1_555 1_555
H8 C12 1_555 1_555
C13 C12 1_555 1_555
H9 C13 1_555 1_555
C14 C9 1_555 1_555
C15 C14 1_555 1_555
H10 C15 1_555 1_555
C16 C7 1_555 1_555
C17 O4 1_555 1_555
C18 C17 1_555 1_555
C19 C18 1_555 1_555
H11 C19 1_555 1_555
C20 C19 1_555 1_555
H12 C20 1_555 1_555
C21 N2 1_555 1_555
H13 C21 1_555 1_555
C22 C18 1_555 1_555
H14 C22 1_555 1_555
P1 F1 1_555 1_555
F2 P1 1_555 1_555
F3 P1 1_555 1_555
F4 P1 1_555 1_555
F5 P1 1_555 1_555
F6 P1 1_555 1_555
Ag1A N2 1_555 1_555
N2A Ag1 1_555 1_555
C4 C5 1_555 1_555
C13 C14 1_555 1_555
C15 C16 1_555 1_555
C21 C22 1_555 1_555

#END
