
#######################################################################
#
#                 Cambridge Crystallographic Data Centre
#                                CCDC 
#
#######################################################################
#
# If this CIF has been generated from an entry in the Cambridge 
# Structural Database, then it will include bibliographic, chemical, 
# crystal, experimental, refinement or atomic coordinate data resulting 
# from the CCDC's data processing and validation procedures.
#
#######################################################################

data_DONHUL
_symmetry_cell_setting           triclinic
_symmetry_space_group_name_H-M   'P -1'
_symmetry_Int_Tables_number      2
_space_group_name_Hall           '-P 1'
loop_
_symmetry_equiv_pos_site_id
_symmetry_equiv_pos_as_xyz
1 x,y,z
2 -x,-y,-z
_cell_length_a                   15.47980(10)
_cell_length_b                   16.18950(10)
_cell_length_c                   18.9456(2)
_cell_angle_alpha                74.5920(10)
_cell_angle_beta                 67.8320(10)
_cell_angle_gamma                81.7800(10)
_cell_volume                     4234.11
loop_
_atom_site_label
_atom_site_type_symbol
_atom_site_fract_x
_atom_site_fract_y
_atom_site_fract_z
Ag1 Ag -0.22462(4) 0.24362(3) 0.01108(3)
Ag2 Ag -0.00778(4) 0.26793(3) -0.01246(3)
Ag3 Ag 0.17246(4) 0.22727(3) 0.02498(3)
Ag4 Ag 0.57998(4) 0.23279(4) -0.00817(3)
O1 O -0.0786(3) 0.2928(3) -0.4043(3)
O2 O -0.0790(4) 0.1496(3) -0.3594(3)
O3 O 0.0767(3) 0.0131(3) -0.2940(3)
O4 O 0.0986(4) 0.1477(3) -0.3683(3)
O5 O -0.3235(3) 0.4860(3) 0.3026(3)
O6 O -0.3446(3) 0.3504(3) 0.3750(2)
O7 O -0.1639(3) 0.2154(3) 0.4042(3)
O8 O -0.1674(3) 0.3593(3) 0.3629(2)
O9 O 0.4196(3) 0.2909(3) -0.3909(3)
O10 O 0.4132(3) 0.1473(3) -0.3542(3)
O11 O 0.5772(4) 0.0258(3) -0.2955(3)
O12 O 0.5909(3) 0.1622(3) -0.3652(2)
O13 O 0.1691(4) 0.4767(3) 0.2932(3)
O14 O 0.1735(4) 0.3400(3) 0.3606(3)
O15 O 0.3302(3) 0.2005(3) 0.3992(3)
O16 O 0.3487(3) 0.3427(3) 0.3575(3)
O17 O -0.2749(5) 0.0939(4) 0.0795(5)
O18 O -0.1442(5) 0.1111(4) 0.0793(4)
O19 O -0.0788(5) 0.4040(4) -0.0720(4)
O20 O 0.0606(5) 0.4143(4) -0.0882(4)
O21 O 0.1046(4) 0.0870(4) 0.0582(3)
O22 O 0.1999(5) 0.0740(4) 0.1152(4)
N1 N -0.1951(4) 0.2424(3) -0.1111(3)
N2 N 0.0333(4) 0.1995(3) -0.1077(3)
N3 N -0.2700(4) 0.3063(3) 0.1104(3)
N4 N -0.0388(4) 0.2713(3) 0.1107(3)
N5 N 0.2346(4) 0.2290(3) -0.1024(3)
N6 N 0.5973(4) 0.1909(4) -0.1129(3)
N7 N 0.1718(4) 0.2932(3) 0.1144(3)
N8 N 0.5253(4) 0.2433(3) 0.1136(3)
N9 N -0.2071(6) 0.0617(4) 0.0993(4)
N10 N -0.0104(6) 0.4494(4) -0.1006(4)
N11 N 0.1419(5) 0.0397(4) 0.1026(4)
C1 C -0.1840(5) 0.1669(4) -0.1306(4)
H1 H -0.1956 0.1161 -0.0900
C2 C -0.1565(4) 0.1596(4) -0.2071(4)
H2 H -0.1494 0.1049 -0.2188
C3 C -0.1393(4) 0.2337(4) -0.2663(4)
C4 C -0.1535(4) 0.3123(4) -0.2464(4)
H3 H -0.1446 0.3642 -0.2857
C5 C -0.1807(4) 0.3137(4) -0.1687(4)
H4 H -0.1896 0.3676 -0.1553
C6 C -0.0975(4) 0.2318(4) -0.3508(4)
C7 C -0.0084(5) 0.1353(4) -0.4287(4)
C8 C -0.0282(5) 0.1235(4) -0.4889(4)
H5 H -0.0904 0.1319 -0.4883
C9 C 0.0453(5) 0.0982(4) -0.5531(4)
C10 C 0.0274(5) 0.0824(4) -0.6163(4)
H6 H -0.0343 0.0901 -0.6168
C11 C 0.0988(5) 0.0559(4) -0.6766(4)
H7 H 0.0862 0.0460 -0.7189
C12 C 0.1895(5) 0.0436(4) -0.6761(4)
H8 H 0.2383 0.0250 -0.7181
C13 C 0.2091(5) 0.0579(4) -0.6157(4)
H9 H 0.2713 0.0490 -0.6161
C14 C 0.1374(5) 0.0859(4) -0.5526(4)
C15 C 0.1556(5) 0.1015(4) -0.4893(4)
H10 H 0.2174 0.0950 -0.4889
C16 C 0.0836(5) 0.1256(4) -0.4295(4)
C17 C 0.0837(4) 0.0873(4) -0.3004(4)
C18 C 0.0326(5) 0.1144(4) -0.0979(4)
H11 H 0.0179 0.0793 -0.0464
C19 C 0.0525(4) 0.0756(4) -0.1596(4)
H12 H 0.0510 0.0151 -0.1506
C20 C 0.0745(4) 0.1272(4) -0.2348(4)
C21 C 0.0788(4) 0.2147(4) -0.2458(4)
H13 H 0.0961 0.2510 -0.2969
C22 C 0.0576(5) 0.2481(4) -0.1816(4)
H14 H 0.0600 0.3083 -0.1894
C23 C -0.2960(5) 0.2555(4) 0.1828(4)
H15 H -0.2978 0.1956 0.1885
C24 C -0.3202(4) 0.2864(4) 0.2492(4)
H16 H -0.3382 0.2487 0.2997
C25 C -0.3175(4) 0.3737(4) 0.2404(3)
C26 C -0.2940(5) 0.4270(4) 0.1663(4)
H17 H -0.2941 0.4873 0.1591
C27 C -0.2704(5) 0.3908(4) 0.1028(4)
H18 H -0.2538 0.4273 0.0518
C28 C -0.3296(4) 0.4116(4) 0.3078(4)
C29 C -0.3303(5) 0.3728(4) 0.4365(4)
C30 C -0.4034(5) 0.3926(4) 0.4981(4)
H19 H -0.4655 0.3950 0.4990
C31 C -0.3859(4) 0.4097(4) 0.5609(3)
C32 C -0.4594(5) 0.4337(4) 0.6255(4)
H20 H -0.5220 0.4378 0.6274
C33 C -0.4404(5) 0.4510(4) 0.6853(4)
H21 H -0.4900 0.4669 0.7282
C34 C -0.3484(5) 0.4452(4) 0.6832(4)
H22 H -0.3360 0.4568 0.7250
C35 C -0.2764(5) 0.4229(4) 0.6217(4)
H23 H -0.2143 0.4198 0.6209
C36 C -0.2929(4) 0.4043(4) 0.5591(3)
C37 C -0.2184(5) 0.3835(4) 0.4931(4)
H24 H -0.1556 0.3794 0.4909
C38 C -0.2382(5) 0.3697(4) 0.4338(3)
C39 C -0.1455(4) 0.2782(4) 0.3520(4)
C40 C -0.0536(4) 0.1993(4) 0.1677(4)
H25 H -0.0427 0.1456 0.1535
C41 C -0.0841(4) 0.2000(4) 0.2459(4)
H26 H -0.0937 0.1478 0.2848
C42 C -0.1005(4) 0.2782(4) 0.2670(3)
C43 C -0.0826(4) 0.3531(4) 0.2087(4)
H27 H -0.0911 0.4074 0.2212
C44 C -0.0519(4) 0.3464(4) 0.1313(4)
H28 H -0.0396 0.3975 0.0910
C45 C 0.2546(5) 0.1550(4) -0.1253(4)
H29 H 0.2338 0.1035 -0.0872
C46 C 0.3042(5) 0.1503(4) -0.2022(4)
H30 H 0.3167 0.0967 -0.2166
C47 C 0.3351(4) 0.2253(4) -0.2574(3)
C48 C 0.3138(4) 0.3024(4) -0.2338(4)
H31 H 0.3337 0.3550 -0.2705
C49 C 0.2633(5) 0.3010(4) -0.1562(4)
H32 H 0.2484 0.3539 -0.1404
C50 C 0.3927(4) 0.2279(4) -0.3409(4)
C51 C 0.4860(5) 0.1385(4) -0.4241(4)
C52 C 0.4682(5) 0.1225(4) -0.4839(4)
H33 H 0.4058 0.1250 -0.4822
C53 C 0.5440(4) 0.1019(4) -0.5492(4)
C54 C 0.5296(5) 0.0821(4) -0.6120(4)
H34 H 0.4679 0.0843 -0.6121
C55 C 0.6031(5) 0.0597(4) -0.6728(4)
H35 H 0.5923 0.0470 -0.7149
C56 C 0.6942(5) 0.0555(4) -0.6734(4)
H36 H 0.7448 0.0397 -0.7159
C57 C 0.7111(5) 0.0738(4) -0.6135(4)
H37 H 0.7733 0.0700 -0.6143
C58 C 0.6363(5) 0.0985(4) -0.5501(4)
C59 C 0.6520(5) 0.1187(4) -0.4875(4)
H38 H 0.7138 0.1188 -0.4885
C60 C 0.5778(5) 0.1379(4) -0.4263(4)
C61 C 0.5868(4) 0.0991(4) -0.3006(4)
C62 C 0.5987(5) 0.1065(5) -0.1092(4)
H39 H 0.6007 0.0663 -0.0630
C63 C 0.5973(5) 0.0766(4) -0.1705(4)
H40 H 0.5988 0.0166 -0.1662
C64 C 0.5938(4) 0.1335(4) -0.2374(4)
C65 C 0.5941(5) 0.2202(4) -0.2421(4)
H41 H 0.5935 0.2613 -0.2883
C66 C 0.5953(5) 0.2460(4) -0.1790(4)
H42 H 0.5947 0.3057 -0.1825
C67 C 0.1648(5) 0.3779(4) 0.1074(4)
H43 H 0.1597 0.4143 0.0606
C68 C 0.1647(5) 0.4151(4) 0.1654(4)
H44 H 0.1601 0.4757 0.1582
C69 C 0.1715(4) 0.3625(4) 0.2340(4)
C70 C 0.1787(5) 0.2748(4) 0.2420(4)
H45 H 0.1834 0.2371 0.2885
C71 C 0.1791(5) 0.2427(4) 0.1811(4)
H46 H 0.1848 0.1823 0.1866
C72 C 0.1714(4) 0.4016(4) 0.2972(4)
C73 C 0.1845(5) 0.3643(4) 0.4226(4)
C74 C 0.1090(5) 0.3875(4) 0.4812(4)
H47 H 0.0482 0.3919 0.4789
C75 C 0.1224(5) 0.4050(4) 0.5458(4)
C76 C 0.0468(5) 0.4325(4) 0.6072(4)
H48 H -0.0143 0.4402 0.6051
C77 C 0.0614(5) 0.4480(4) 0.6693(4)
H49 H 0.0104 0.4663 0.7100
C78 C 0.1509(5) 0.4373(4) 0.6733(4)
H50 H 0.1599 0.4473 0.7172
C79 C 0.2257(5) 0.4123(4) 0.6142(4)
H51 H 0.2863 0.4062 0.6171
C80 C 0.2132(4) 0.3956(4) 0.5492(3)
C81 C 0.2898(5) 0.3712(4) 0.4864(4)
H52 H 0.3512 0.3647 0.4877
C82 C 0.2743(5) 0.3574(4) 0.4250(4)
C83 C 0.3622(5) 0.2610(4) 0.3478(4)
C84 C 0.4879(5) 0.1744(4) 0.1693(4)
H53 H 0.4980 0.1204 0.1560
C85 C 0.4356(5) 0.1790(4) 0.2451(4)
H54 H 0.4095 0.1289 0.2832
C86 C 0.4212(4) 0.2572(4) 0.2658(4)
C87 C 0.4602(4) 0.3288(4) 0.2087(4)
H55 H 0.4519 0.3833 0.2209
C88 C 0.5115(5) 0.3191(4) 0.1335(4)
H56 H 0.5382 0.3681 0.0942
Ag1_2 Ag 0.77538(4) 0.24362(3) 0.01108(3)
Ag4_2 Ag -0.42002(4) 0.23279(4) -0.00817(3)
Ag5 Ag 0.39225(6) 0.44743(5) 0.02895(5)
O23 O 0.3476(6) 0.4022(4) -0.0637(4)
O24 O 0.4067(4) 0.3112(4) 0.0049(4)
O25 O 0.4066(9) 0.5087(6) 0.1249(6)
O26 O 0.3646(6) 0.5918(4) 0.0452(4)
N12 N 0.3774(5) 0.3279(5) -0.0490(5)
N13 N 0.3833(5) 0.5811(5) 0.1033(5)
O27 O 0.3836(5) 0.1132(5) 0.0126(6)
H57 H 0.3895 0.1689 -0.0250
H58 H 0.3175 0.1077 0.0502
O28 O 0.4141(5) -0.0179(5) -0.0758(4)
H59 H 0.4108 0.0293 -0.0506
H60 H 0.4608 -0.0061 -0.1289
loop_
_geom_bond_atom_site_label_1
_geom_bond_atom_site_label_2
_geom_bond_site_symmetry_1
_geom_bond_site_symmetry_2
Ag1 O17 1_555 1_555
Ag2 Ag3 1_555 1_555
Ag3 O21 1_555 1_555
Ag4 N6 1_555 1_555
O1 C6 1_555 1_555
O2 C6 1_555 1_555
O3 C17 1_555 1_555
O4 C16 1_555 1_555
O5 C28 1_555 1_555
O6 C28 1_555 1_555
O7 C39 1_555 1_555
O8 C38 1_555 1_555
O9 C50 1_555 1_555
O10 C50 1_555 1_555
O11 C61 1_555 1_555
O12 C60 1_555 1_555
O13 C72 1_555 1_555
O14 C72 1_555 1_555
O15 C83 1_555 1_555
O16 C82 1_555 1_555
O17 N9 1_555 1_555
O18 Ag1 1_555 1_555
O19 Ag2 1_555 1_555
O20 Ag2 1_555 1_555
O21 N11 1_555 1_555
O22 Ag3 1_555 1_555
N1 Ag1 1_555 1_555
N2 Ag2 1_555 1_555
N3 Ag1 1_555 1_555
N4 Ag2 1_555 1_555
N5 Ag3 1_555 1_555
N6 C62 1_555 1_555
N7 Ag3 1_555 1_555
N8 Ag4 1_555 1_555
N9 O18 1_555 1_555
N10 O19 1_555 1_555
N11 O22 1_555 1_555
C1 N1 1_555 1_555
H1 C1 1_555 1_555
C2 C1 1_555 1_555
H2 C2 1_555 1_555
C3 C2 1_555 1_555
C4 C3 1_555 1_555
H3 C4 1_555 1_555
C5 N1 1_555 1_555
H4 C5 1_555 1_555
C6 C3 1_555 1_555
C7 O2 1_555 1_555
C8 C7 1_555 1_555
H5 C8 1_555 1_555
C9 C8 1_555 1_555
C10 C9 1_555 1_555
H6 C10 1_555 1_555
C11 C10 1_555 1_555
H7 C11 1_555 1_555
C12 C11 1_555 1_555
H8 C12 1_555 1_555
C13 C12 1_555 1_555
H9 C13 1_555 1_555
C14 C9 1_555 1_555
C15 C14 1_555 1_555
H10 C15 1_555 1_555
C16 C7 1_555 1_555
C17 O4 1_555 1_555
C18 N2 1_555 1_555
H11 C18 1_555 1_555
C19 C18 1_555 1_555
H12 C19 1_555 1_555
C20 C17 1_555 1_555
C21 C20 1_555 1_555
H13 C21 1_555 1_555
C22 N2 1_555 1_555
H14 C22 1_555 1_555
C23 N3 1_555 1_555
H15 C23 1_555 1_555
C24 C23 1_555 1_555
H16 C24 1_555 1_555
C25 C24 1_555 1_555
C26 C25 1_555 1_555
H17 C26 1_555 1_555
C27 N3 1_555 1_555
H18 C27 1_555 1_555
C28 C25 1_555 1_555
C29 O6 1_555 1_555
C30 C29 1_555 1_555
H19 C30 1_555 1_555
C31 C30 1_555 1_555
C32 C31 1_555 1_555
H20 C32 1_555 1_555
C33 C32 1_555 1_555
H21 C33 1_555 1_555
C34 C33 1_555 1_555
H22 C34 1_555 1_555
C35 C34 1_555 1_555
H23 C35 1_555 1_555
C36 C31 1_555 1_555
C37 C36 1_555 1_555
H24 C37 1_555 1_555
C38 C29 1_555 1_555
C39 O8 1_555 1_555
C40 N4 1_555 1_555
H25 C40 1_555 1_555
C41 C40 1_555 1_555
H26 C41 1_555 1_555
C42 C39 1_555 1_555
C43 C42 1_555 1_555
H27 C43 1_555 1_555
C44 N4 1_555 1_555
H28 C44 1_555 1_555
C45 N5 1_555 1_555
H29 C45 1_555 1_555
C46 C45 1_555 1_555
H30 C46 1_555 1_555
C47 C46 1_555 1_555
C48 C47 1_555 1_555
H31 C48 1_555 1_555
C49 N5 1_555 1_555
H32 C49 1_555 1_555
C50 C47 1_555 1_555
C51 O10 1_555 1_555
C52 C51 1_555 1_555
H33 C52 1_555 1_555
C53 C52 1_555 1_555
C54 C53 1_555 1_555
H34 C54 1_555 1_555
C55 C54 1_555 1_555
H35 C55 1_555 1_555
C56 C55 1_555 1_555
H36 C56 1_555 1_555
C57 C56 1_555 1_555
H37 C57 1_555 1_555
C58 C53 1_555 1_555
C59 C58 1_555 1_555
H38 C59 1_555 1_555
C60 C51 1_555 1_555
C61 O12 1_555 1_555
C62 H39 1_555 1_555
C63 C62 1_555 1_555
H40 C63 1_555 1_555
C64 C61 1_555 1_555
C65 C64 1_555 1_555
H41 C65 1_555 1_555
C66 N6 1_555 1_555
H42 C66 1_555 1_555
C67 N7 1_555 1_555
H43 C67 1_555 1_555
C68 C67 1_555 1_555
H44 C68 1_555 1_555
C69 C68 1_555 1_555
C70 C69 1_555 1_555
H45 C70 1_555 1_555
C71 N7 1_555 1_555
H46 C71 1_555 1_555
C72 C69 1_555 1_555
C73 O14 1_555 1_555
C74 C73 1_555 1_555
H47 C74 1_555 1_555
C75 C74 1_555 1_555
C76 C75 1_555 1_555
H48 C76 1_555 1_555
C77 C76 1_555 1_555
H49 C77 1_555 1_555
C78 C77 1_555 1_555
H50 C78 1_555 1_555
C79 C78 1_555 1_555
H51 C79 1_555 1_555
C80 C75 1_555 1_555
C81 C80 1_555 1_555
H52 C81 1_555 1_555
C82 C73 1_555 1_555
C83 O16 1_555 1_555
C84 N8 1_555 1_555
H53 C84 1_555 1_555
C85 C84 1_555 1_555
H54 C85 1_555 1_555
C86 C83 1_555 1_555
C87 C86 1_555 1_555
H55 C87 1_555 1_555
C88 N8 1_555 1_555
H56 C88 1_555 1_555
Ag5 O23 1_555 1_555
O23 N12 1_555 1_555
O24 Ag5 1_555 1_555
O25 Ag5 1_555 1_555
O26 Ag5 1_555 1_555
N12 O24 1_555 1_555
N13 O25 1_555 1_555
O27 H57 1_555 1_555
H58 O27 1_555 1_555
O28 H59 1_555 1_555
H60 O28 1_555 1_555
Ag1_2 Ag4 1_555 1_555
Ag4_2 Ag1 1_555 1_555
O20 N10 1_555 1_555
C4 C5 1_555 1_555
C13 C14 1_555 1_555
C15 C16 1_555 1_555
C19 C20 1_555 1_555
C21 C22 1_555 1_555
C26 C27 1_555 1_555
C35 C36 1_555 1_555
C37 C38 1_555 1_555
C41 C42 1_555 1_555
C43 C44 1_555 1_555
C48 C49 1_555 1_555
C57 C58 1_555 1_555
C59 C60 1_555 1_555
C63 C64 1_555 1_555
C65 C66 1_555 1_555
C70 C71 1_555 1_555
C79 C80 1_555 1_555
C81 C82 1_555 1_555
C85 C86 1_555 1_555
C87 C88 1_555 1_555
O26 N13 1_555 1_555

#END
