
#######################################################################
#
#                 Cambridge Crystallographic Data Centre
#                                CCDC 
#
#######################################################################
#
# If this CIF has been generated from an entry in the Cambridge 
# Structural Database, then it will include bibliographic, chemical, 
# crystal, experimental, refinement or atomic coordinate data resulting 
# from the CCDC's data processing and validation procedures.
#
#######################################################################

data_DONKEY
_symmetry_cell_setting           triclinic
_symmetry_space_group_name_H-M   'P -1'
_symmetry_Int_Tables_number      2
_space_group_name_Hall           '-P 1'
loop_
_symmetry_equiv_pos_site_id
_symmetry_equiv_pos_as_xyz
1 x,y,z
2 -x,-y,-z
_cell_length_a                   12.1230(6)
_cell_length_b                   16.8510(8)
_cell_length_c                   17.7160(8)
_cell_angle_alpha                106.672(4)
_cell_angle_beta                 109.300(4)
_cell_angle_gamma                99.890(4)
_cell_volume                     3126.67
loop_
_atom_site_label
_atom_site_type_symbol
_atom_site_fract_x
_atom_site_fract_y
_atom_site_fract_z
Zn1 Zn 0.42577(6) 0.30279(4) 0.20654(5)
Zn2 Zn -0.67189(7) -0.25833(5) -0.05890(5)
Zn3 Zn -0.29059(7) 0.33708(5) 0.36415(5)
C1 C 0.0016(6) -0.0896(4) 0.2178(4)
H1 H 0.0783 -0.0806 0.2594
C2 C -0.0253(6) -0.0191(4) 0.1982(4)
C3 C -0.1388(7) -0.0346(4) 0.1362(4)
C4 C -0.2234(7) -0.1171(4) 0.0956(4)
H2 H -0.3001 -0.1267 0.0537
C5 C -0.1921(6) -0.1833(4) 0.1183(4)
C6 C -0.0787(5) -0.1719(3) 0.1789(4)
C7 C -0.2826(11) 0.0363(8) 0.0888(10)
H3 H -0.3133 0.0302 0.1316
H4 H -0.3347 -0.0101 0.0341
C8 C -0.2815(16) 0.1268(10) 0.0808(9)
C9 C -0.3946(6) -0.2770(5) 0.0391(4)
H5 H -0.4153 -0.2283 0.0701
H6 H -0.4417 -0.3291 0.0402
C10 C -0.4321(7) -0.2838(4) -0.0527(4)
C11 C -0.0476(5) -0.2491(4) 0.1989(4)
H7 H -0.0682 -0.2951 0.1436
C12 C 0.0871(6) -0.2313(5) 0.2514(5)
H8 H 0.1012 -0.2824 0.2614
H9 H 0.1121 -0.1847 0.3055
H10 H 0.1335 -0.2154 0.2206
C13 C -0.1810(5) -0.2367(3) 0.2842(4)
H11 H -0.1721 -0.1798 0.2869
C14 C -0.1248(5) -0.2851(3) 0.2415(4)
C15 C -0.1409(5) -0.3694(4) 0.2365(4)
C16 C -0.2100(6) -0.4045(4) 0.2739(4)
H12 H -0.2212 -0.4621 0.2691
C17 C -0.2618(5) -0.3531(3) 0.3181(4)
C18 C -0.2501(5) -0.2682(3) 0.3232(4)
C19 C -0.0795(7) -0.4973(4) 0.1954(5)
H13 H -0.0643 -0.4935 0.2538
H14 H -0.0102 -0.5095 0.1837
C20 C -0.1929(6) -0.5721(4) 0.1342(4)
C21 C -0.3285(6) -0.4617(4) 0.3701(4)
H15 H -0.3414 -0.4583 0.4220
H16 H -0.2484 -0.4694 0.3788
C22 C -0.4229(6) -0.5391(4) 0.2969(4)
C23 C -0.3116(6) -0.2135(4) 0.3706(4)
H17 H -0.3937 -0.2512 0.3537
C24 C -0.2457(7) -0.1887(4) 0.4684(4)
H18 H -0.2859 -0.1548 0.4974
H19 H -0.1622 -0.1555 0.4875
H20 H -0.2478 -0.2404 0.4813
C25 C -0.2498(5) -0.0534(3) 0.3935(4)
H21 H -0.1830 -0.0453 0.4429
C26 C -0.3296(5) -0.1370(3) 0.3452(4)
C27 C -0.4274(5) -0.1465(3) 0.2728(4)
C28 C -0.4426(5) -0.0781(4) 0.2472(4)
H22 H -0.5073 -0.0867 0.1964
C29 C -0.3615(6) 0.0030(4) 0.2970(4)
C30 C -0.2643(5) 0.0174(3) 0.3725(4)
C31 C -0.6341(6) -0.2338(5) 0.1923(5)
H23 H -0.6455 -0.1808 0.2242
H24 H -0.6797 -0.2812 0.2008
C32 C -0.6869(7) -0.2478(5) 0.0977(5)
C33 C -0.4787(6) 0.0766(4) 0.2194(5)
H25 H -0.5458 0.0528 0.2323
H26 H -0.4944 0.0433 0.1603
C34 C -0.4652(6) 0.1713(4) 0.2324(4)
C35 C -0.1837(6) 0.1090(4) 0.4275(4)
H27 H -0.2387 0.1442 0.4347
C36 C -0.1015(8) 0.1186(4) 0.5173(4)
H28 H -0.1497 0.0936 0.5428
H29 H -0.0617 0.1789 0.5519
H30 H -0.0409 0.0893 0.5140
C37 C -0.0622(5) 0.0971(4) 0.3367(4)
H31 H -0.0801 0.0383 0.3275
C38 C -0.1096(5) 0.1479(3) 0.3865(4)
C39 C -0.0831(5) 0.2342(4) 0.3975(4)
C40 C -0.0086(6) 0.2696(4) 0.3645(5)
H32 H 0.0105 0.3287 0.3751
C41 C 0.0379(6) 0.2176(4) 0.3158(5)
C42 C 0.0106(6) 0.1290(4) 0.2997(4)
C43 C -0.0517(7) 0.3591(4) 0.5181(5)
H33 H 0.0267 0.3741 0.5143
H34 H -0.0397 0.3417 0.5672
C44 C -0.0982(6) 0.4371(4) 0.5311(4)
C45 C 0.1728(14) 0.3355(6) 0.3174(12)
H35 H 0.2064 0.3549 0.3797
H36 H 0.1178 0.3685 0.2997
C46 C 0.2703(17) 0.3481(9) 0.2879(15)
C47 C 0.0585(6) 0.0711(4) 0.2439(5)
H37 H 0.0615 0.0945 0.1997
C48 C 0.1908(7) 0.0777(4) 0.2982(6)
H38 H 0.2393 0.1374 0.3251
H39 H 0.2241 0.0456 0.2616
H40 H 0.1915 0.0541 0.3416
O1 O -0.1643(5) 0.0332(3) 0.1130(3)
O2 O -0.2078(11) 0.1712(5) 0.0805(6)
O3 O -0.3859(12) 0.1345(8) 0.0619(10)
O4 O -0.2708(4) -0.2664(3) 0.0824(3)
O5 O -0.5379(5) -0.2858(3) -0.0939(3)
O6 O -0.3557(4) -0.2908(3) -0.0856(3)
O7 O -0.0863(5) -0.4166(3) 0.1902(3)
O8 O -0.2746(6) -0.5630(3) 0.0786(4)
O9 O -0.1912(4) -0.6419(3) 0.1459(3)
O10 O -0.3299(4) -0.3829(3) 0.3578(3)
O11 O -0.4951(5) -0.5319(3) 0.2349(4)
O12 O -0.4252(4) -0.6111(3) 0.3034(3)
O13 O -0.5090(4) -0.2280(2) 0.2266(3)
O14 O -0.7966(7) -0.2766(10) 0.0608(6)
O15 O -0.6184(5) -0.2371(3) 0.0625(3)
O16 O -0.3689(4) 0.0743(3) 0.2754(4)
O17 O -0.5630(4) 0.1865(3) 0.1999(3)
O18 O -0.3618(4) 0.2238(3) 0.2691(3)
O19 O -0.1364(4) 0.2879(2) 0.4410(3)
O20 O -0.0367(5) 0.4995(3) 0.5982(3)
O21 O -0.1926(5) 0.4356(3) 0.4745(3)
O22 O 0.1114(5) 0.2489(3) 0.2815(4)
O23 O 0.368(2) 0.4055(19) 0.3483(17)
O24 O 0.2856(5) 0.3022(3) 0.2363(4)
O25 O -0.1836(5) 0.3888(3) 0.3104(3)
O26 O -0.4010(7) 0.2912(5) 0.4210(5)
Zn1_2 Zn -0.57423(6) -0.69721(4) 0.20654(5)
Zn1_3 Zn -0.57423(6) 0.30279(4) 0.20654(5)
Zn1A Zn -0.42577(6) -0.30279(4) -0.20654(5)
Zn2A Zn -0.32811(7) -0.74167(5) 0.05890(5)
Zn2A_2 Zn -0.32811(7) 0.25833(5) 0.05890(5)
Zn3_2 Zn -0.29059(7) -0.66292(5) 0.36415(5)
O2A O -0.7922(11) -0.1712(5) -0.0805(6)
O3A O -0.6141(12) -0.1345(8) -0.0619(10)
O6A O 0.3557(4) 0.2908(3) 0.0856(3)
O9A O -0.8088(4) -0.3581(3) -0.1459(3)
O12_2 O -0.4252(4) 0.3889(3) 0.3034(3)
O12_3 O 0.5748(4) 0.3889(3) 0.3034(3)
O17_2 O 0.4370(4) 0.1865(3) 0.1999(3)
C49 C 0.006(4) 0.1399(18) 0.0337(19)
H41 H 0.0017 0.0925 0.0535
H42 H 0.0671 0.1423 0.0103
H43 H -0.0718 0.1317 -0.0099
C50 C 0.0489(15) 0.2768(19) 0.0698(17)
H44 H 0.0726 0.3289 0.1190
H45 H -0.0265 0.2728 0.0261
H46 H 0.1115 0.2779 0.0479
N1 N 0.0333(18) 0.2070(15) 0.0933(12)
C51 C -0.5401(14) -0.4185(9) 0.1374(13)
H47 H -0.4567 -0.3888 0.1515
H48 H -0.5431 -0.4429 0.1797
H49 H -0.5873 -0.3782 0.1368
C52 C -0.7037(18) -0.5391(8) 0.0548(12)
H50 H -0.7451 -0.5910 0.0042
H51 H -0.7576 -0.5038 0.0581
H52 H -0.6799 -0.5542 0.1050
N2 N -0.592(3) -0.489(2) 0.0504(15)
O27 O -0.819(5) 0.070(3) 0.082(4)
O28 O -0.927(2) -0.4269(14) 0.0686(17)
O29 O -0.526(3) -0.108(5) 0.542(3)
O30 O -0.473(4) -0.002(4) 0.538(3)
O30A O -0.527(4) 0.002(4) 0.462(3)
loop_
_geom_bond_atom_site_label_1
_geom_bond_atom_site_label_2
_geom_bond_site_symmetry_1
_geom_bond_site_symmetry_2
Zn1 O24 1_555 1_555
Zn2 O5 1_555 1_555
Zn3 O18 1_555 1_555
C1 H1 1_555 1_555
C2 C1 1_555 1_555
C3 C2 1_555 1_555
C4 C3 1_555 1_555
H2 C4 1_555 1_555
C5 C4 1_555 1_555
C6 C1 1_555 1_555
C7 H3 1_555 1_555
H4 C7 1_555 1_555
C8 C7 1_555 1_555
C9 H5 1_555 1_555
H6 C9 1_555 1_555
C10 C9 1_555 1_555
C11 C6 1_555 1_555
H7 C11 1_555 1_555
C12 C11 1_555 1_555
H8 C12 1_555 1_555
H9 C12 1_555 1_555
H10 C12 1_555 1_555
C13 H11 1_555 1_555
C14 C11 1_555 1_555
C15 C14 1_555 1_555
C16 C15 1_555 1_555
H12 C16 1_555 1_555
C17 C16 1_555 1_555
C18 C13 1_555 1_555
C19 H13 1_555 1_555
H14 C19 1_555 1_555
C20 C19 1_555 1_555
C21 H15 1_555 1_555
H16 C21 1_555 1_555
C22 C21 1_555 1_555
C23 C18 1_555 1_555
H17 C23 1_555 1_555
C24 C23 1_555 1_555
H18 C24 1_555 1_555
H19 C24 1_555 1_555
H20 C24 1_555 1_555
C25 H21 1_555 1_555
C26 C23 1_555 1_555
C27 C26 1_555 1_555
C28 C27 1_555 1_555
H22 C28 1_555 1_555
C29 C28 1_555 1_555
C30 C25 1_555 1_555
C31 H23 1_555 1_555
H24 C31 1_555 1_555
C32 C31 1_555 1_555
C33 H25 1_555 1_555
H26 C33 1_555 1_555
C34 C33 1_555 1_555
C35 C30 1_555 1_555
H27 C35 1_555 1_555
C36 C35 1_555 1_555
H28 C36 1_555 1_555
H29 C36 1_555 1_555
H30 C36 1_555 1_555
C37 H31 1_555 1_555
C38 C35 1_555 1_555
C39 C38 1_555 1_555
C40 C39 1_555 1_555
H32 C40 1_555 1_555
C41 C40 1_555 1_555
C42 C37 1_555 1_555
C43 H33 1_555 1_555
H34 C43 1_555 1_555
C44 C43 1_555 1_555
C45 H35 1_555 1_555
H36 C45 1_555 1_555
C46 C45 1_555 1_555
C47 C2 1_555 1_555
H37 C47 1_555 1_555
C48 C47 1_555 1_555
H38 C48 1_555 1_555
H39 C48 1_555 1_555
H40 C48 1_555 1_555
O1 C3 1_555 1_555
O2 C8 1_555 1_555
O3 C8 1_555 1_555
O4 C5 1_555 1_555
O5 C10 1_555 1_555
O6 C10 1_555 1_555
O7 C15 1_555 1_555
O8 C20 1_555 1_555
O9 C20 1_555 1_555
O10 C17 1_555 1_555
O11 C22 1_555 1_555
O12 C22 1_555 1_555
O13 C27 1_555 1_555
O14 C32 1_555 1_555
O15 Zn2 1_555 1_555
O16 C29 1_555 1_555
O17 C34 1_555 1_555
O18 C34 1_555 1_555
O19 Zn3 1_555 1_555
O20 C44 1_555 1_555
O21 Zn3 1_555 1_555
O22 C41 1_555 1_555
O23 C46 1_555 1_555
O24 C46 1_555 1_555
O25 Zn3 1_555 1_555
O26 Zn3 1_555 1_555
C49 H41 1_555 1_555
H42 C49 1_555 1_555
H43 C49 1_555 1_555
C50 H44 1_555 1_555
H45 C50 1_555 1_555
H46 C50 1_555 1_555
N1 C49 1_555 1_555
C51 H47 1_555 1_555
H48 C51 1_555 1_555
H49 C51 1_555 1_555
C52 H50 1_555 1_555
H51 C52 1_555 1_555
H52 C52 1_555 1_555
N2 C51 1_555 1_555
Zn1_2 O12 1_555 1_555
Zn1_3 O17 1_555 1_555
Zn1A O6 1_555 1_555
Zn2A O9 1_555 1_555
Zn2A_2 O2 1_555 1_555
Zn3_2 O12 1_555 1_555
O2A Zn2 1_555 1_555
O3A Zn2 1_555 1_555
O6A Zn1 1_555 1_555
O9A Zn2 1_555 1_555
O12_2 Zn3 1_555 1_555
O12_3 Zn1 1_555 1_555
O17_2 Zn1 1_555 1_555
C5 C6 1_555 1_555
C7 O1 1_555 1_555
C9 O4 1_555 1_555
C13 C14 1_555 1_555
C17 C18 1_555 1_555
C19 O7 1_555 1_555
C21 O10 1_555 1_555
C25 C26 1_555 1_555
C29 C30 1_555 1_555
C31 O13 1_555 1_555
C32 O15 1_555 1_555
C33 O16 1_555 1_555
C37 C38 1_555 1_555
C39 O19 1_555 1_555
C41 C42 1_555 1_555
C42 C47 1_555 1_555
C43 O19 1_555 1_555
C44 O21 1_555 1_555
C45 O22 1_555 1_555
O3 Zn2A_2 1_555 1_555
C50 N1 1_555 1_555
C52 N2 1_555 1_555
Zn1_3 O12_2 1_555 1_555

#END
