
#######################################################################
#
#                 Cambridge Crystallographic Data Centre
#                                CCDC 
#
#######################################################################
#
# If this CIF has been generated from an entry in the Cambridge 
# Structural Database, then it will include bibliographic, chemical, 
# crystal, experimental, refinement or atomic coordinate data resulting 
# from the CCDC's data processing and validation procedures.
#
#######################################################################

data_DONNEA
_symmetry_cell_setting           monoclinic
_symmetry_space_group_name_H-M   'C 2/c'
_symmetry_Int_Tables_number      15
_space_group_name_Hall           '-C 2yc'
loop_
_symmetry_equiv_pos_site_id
_symmetry_equiv_pos_as_xyz
1 x,y,z
2 1/2+x,1/2+y,z
3 1/2-x,1/2+y,1/2-z
4 -x,y,1/2-z
5 -x,-y,-z
6 1/2-x,1/2-y,-z
7 1/2+x,1/2-y,1/2+z
8 x,-y,1/2+z
_cell_length_a                   19.1213(16)
_cell_length_b                   11.0629(9)
_cell_length_c                   6.7261(6)
_cell_angle_alpha                90
_cell_angle_beta                 108.512(1)
_cell_angle_gamma                90
_cell_volume                     1349.2
loop_
_atom_site_label
_atom_site_type_symbol
_atom_site_fract_x
_atom_site_fract_y
_atom_site_fract_z
Ga1 Ga 1.0000 1.0000 0.0000
O1 O 1.0877(1) 0.9010(2) 0.1548(2)
O2 O 1.0000 1.0785(2) 0.2500
O3 O 1.0713(1) 0.8754(2) 0.4682(2)
C1 C 1.1075(1) 0.8657(2) 0.3426(3)
C2 C 1.1813(1) 0.8053(2) 0.4228(4)
C3 C 1.2074(1) 0.7658(3) 0.6292(4)
H1 H 1.1790 0.7766 0.7172
C4 C 1.2245(2) 0.7893(3) 0.2959(4)
H2 H 1.2076 0.8160 0.1577
H6 H 1.0000 1.1516(10) 0.2500
Ga1C Ga 1.0000 1.0000 0.5000
Ga1A Ga 1.5000 0.5000 1.0000
Ga1B Ga 1.5000 0.5000 0.5000
O1E O 1.4123(1) 0.5990(2) 0.8452(2)
O1D O 0.9123(1) 1.0990(2) -0.1548(2)
O2D O 1.0000 0.9215(2) -0.2500
O3E O 1.4287(1) 0.6246(2) 0.5318(2)
O3C O 0.9287(1) 0.8754(2) 0.0318(2)
O3G O 1.0713(1) 1.1246(2) -0.0318(2)
C1E C 1.3925(1) 0.6343(2) 0.6574(3)
C2E C 1.3187(1) 0.6947(2) 0.5772(4)
C3E C 1.2926(1) 0.7342(3) 0.3708(4)
H1E H 1.3210 0.7234 0.2828
C4E C 1.2755(2) 0.7107(3) 0.7041(4)
H2E H 1.2924 0.6840 0.8423
H6D H 1.0000 0.8484(10) -0.2500
N1 N 1.0000 0.3265(5) 0.2500
C5 C 0.9414(5) 0.3883(7) 0.1417(14)
H3 H 0.8990 0.3459 0.0693
C6 C 0.9398(7) 0.5092(9) 0.130(3)
H4 H 0.8991 0.5503 0.0439
C7 C 1.0000 0.5687(12) 0.2500
H5 H 1.0000 0.6528 0.2500
C5C C 1.0586(5) 0.3883(7) 0.3583(14)
H3C H 1.1010 0.3459 0.4307
C6C C 1.0602(7) 0.5092(9) 0.370(3)
H4C H 1.1009 0.5503 0.4561
loop_
_geom_bond_atom_site_label_1
_geom_bond_atom_site_label_2
_geom_bond_site_symmetry_1
_geom_bond_site_symmetry_2
Ga1 O1 1_555 1_555
O1 C1 1_555 1_555
O2 Ga1 1_555 1_555
O3 C1 1_555 1_555
C1 C2 1_555 1_555
C2 C3 1_555 1_555
C3 H1 1_555 1_555
C4 C2 1_555 1_555
H2 C4 1_555 1_555
N1 C5 1_555 1_555
C5 H3 1_555 1_555
C6 C5 1_555 1_555
H4 C6 1_555 1_555
C7 C6 1_555 1_555
H5 C7 1_555 1_555
H6 O2 1_555 1_555
Ga1C O2 1_555 1_555
Ga1A O1E 1_555 1_555
Ga1B O3E 1_555 1_555
O1E C1E 1_555 1_555
O1D Ga1 1_555 1_555
O2D Ga1 1_555 1_555
O3E C1E 1_555 1_555
O3C Ga1 1_555 1_555
O3G Ga1 1_555 1_555
C1E C2E 1_555 1_555
C2E C3E 1_555 1_555
C3E C4 1_555 1_555
H1E C3E 1_555 1_555
C4E C3 1_555 1_555
H2E C4E 1_555 1_555
C5C N1 1_555 1_555
H3C C5C 1_555 1_555
C6C C7 1_555 1_555
H4C C6C 1_555 1_555
H6D O2D 1_555 1_555
O3 Ga1C 1_555 1_555
C2E C4E 1_555 1_555
C5C C6C 1_555 1_555

#END
