
#######################################################################
#
#                 Cambridge Crystallographic Data Centre
#                                CCDC 
#
#######################################################################
#
# If this CIF has been generated from an entry in the Cambridge 
# Structural Database, then it will include bibliographic, chemical, 
# crystal, experimental, refinement or atomic coordinate data resulting 
# from the CCDC's data processing and validation procedures.
#
#######################################################################

data_DONNIE
_symmetry_cell_setting           orthorhombic
_symmetry_space_group_name_H-M   'I m m a'
_symmetry_Int_Tables_number      74
_space_group_name_Hall           '-I 2b 2'
loop_
_symmetry_equiv_pos_site_id
_symmetry_equiv_pos_as_xyz
1 x,y,z
2 -x,1/2-y,z
3 -x,1/2+y,-z
4 x,-y,-z
5 1/2+x,1/2+y,1/2+z
6 1/2-x,-y,1/2+z
7 1/2-x,y,1/2-z
8 1/2+x,1/2-y,1/2-z
9 -x,-y,-z
10 x,1/2+y,-z
11 x,1/2-y,z
12 -x,y,z
13 1/2-x,1/2-y,1/2-z
14 1/2+x,y,1/2-z
15 1/2+x,-y,1/2+z
16 1/2-x,1/2+y,1/2+z
_cell_length_a                   17.287(11)
_cell_length_b                   6.727(5)
_cell_length_c                   12.461(9)
_cell_angle_alpha                90
_cell_angle_beta                 90
_cell_angle_gamma                90
_cell_volume                     1449.09
loop_
_atom_site_label
_atom_site_type_symbol
_atom_site_fract_x
_atom_site_fract_y
_atom_site_fract_z
Ga1 Ga 0.5000 0.0000 1.0000
O1 O 0.5000 0.2500 1.0697(6)
O2 O 0.5821(2) 0.0836(6) 0.9004(4)
C1 C 0.7164(4) 0.0730(11) 0.7805(9)
H1 H 0.6941 -0.0469 0.8011
C2 C 0.6825(6) 0.2500 0.8107(11)
C3 C 0.6093(5) 0.2500 0.8761(10)
Ga1A Ga 0.5000 0.5000 1.0000
Ga1E Ga 1.0000 0.0000 0.5000
Ga1D Ga 1.0000 0.5000 0.5000
O1B O 0.5000 -0.2500 0.9303(6)
O2J O 0.5821(2) 0.4164(6) 0.9004(4)
O2F O 0.9179(2) 0.0836(6) 0.5996(4)
O2L O 0.9179(2) 0.4164(6) 0.5996(4)
O2C O 0.5821(2) -0.0836(6) 1.0996(4)
O2H O 0.4179(2) -0.0836(6) 1.0996(4)
O2K O 0.4179(2) 0.0836(6) 0.9004(4)
C1F C 0.7836(4) 0.0730(11) 0.7195(9)
C1L C 0.7836(4) 0.4270(11) 0.7195(9)
C1J C 0.7164(4) 0.4270(11) 0.7805(9)
H1F H 0.8059 -0.0469 0.6989
H1J H 0.6941 0.5469 0.8011
H1L H 0.8059 0.5469 0.6989
C2F C 0.8175(6) 0.2500 0.6893(11)
C3F C 0.8907(5) 0.2500 0.6239(10)
N1 N 0.0341(12) 0.2500 0.204(2)
C4 C 0.053(3) 0.083(5) 0.154(3)
C5 C 0.127(4) 0.2500 0.035(5)
C6 C 0.100(3) 0.072(7) 0.068(4)
C4J C 0.053(3) 0.417(5) 0.154(3)
C6J C 0.100(3) 0.428(7) 0.068(4)
loop_
_geom_bond_atom_site_label_1
_geom_bond_atom_site_label_2
_geom_bond_site_symmetry_1
_geom_bond_site_symmetry_2
Ga1 O1 1_555 1_555
O1 Ga1A 1_555 1_555
O2 Ga1 1_555 1_555
C1 H1 1_555 1_555
C2 C1 1_555 1_555
C3 O2 1_555 1_555
N1 C4 1_555 1_555
C4 C6 1_555 1_555
C5 C6 1_555 1_555
Ga1A O2J 1_555 1_555
Ga1E O2F 1_555 1_555
Ga1D O2L 1_555 1_555
O1B Ga1 1_555 1_555
O2J C3 1_555 1_555
O2F C3F 1_555 1_555
O2L C3F 1_555 1_555
O2C Ga1 1_555 1_555
O2H Ga1 1_555 1_555
O2K Ga1 1_555 1_555
C1F C1 1_555 1_555
C1L C1J 1_555 1_555
C1J C2 1_555 1_555
H1F C1F 1_555 1_555
H1J C1J 1_555 1_555
H1L C1L 1_555 1_555
C2F C1F 1_555 1_555
C3F C2F 1_555 1_555
C4J N1 1_555 1_555
C6J C5 1_555 1_555
C2 C3 1_555 1_555
C1L C2F 1_555 1_555
C4J C6J 1_555 1_555

#END
