
#######################################################################
#
#                 Cambridge Crystallographic Data Centre
#                                CCDC 
#
#######################################################################
#
# If this CIF has been generated from an entry in the Cambridge 
# Structural Database, then it will include bibliographic, chemical, 
# crystal, experimental, refinement or atomic coordinate data resulting 
# from the CCDC's data processing and validation procedures.
#
#######################################################################

data_DONNAW01
_symmetry_cell_setting           orthorhombic
_symmetry_space_group_name_H-M   'P n m a'
_symmetry_Int_Tables_number      62
_space_group_name_Hall           '-P 2ac 2n'
loop_
_symmetry_equiv_pos_site_id
_symmetry_equiv_pos_as_xyz
1 x,y,z
2 1/2-x,-y,1/2+z
3 1/2+x,1/2-y,1/2-z
4 -x,1/2+y,-z
5 -x,-y,-z
6 1/2+x,y,1/2-z
7 1/2-x,1/2+y,1/2+z
8 x,1/2-y,z
_cell_length_a                   17.4370(2)
_cell_length_b                   6.7475(4)
_cell_length_c                   12.1541(4)
_cell_angle_alpha                90
_cell_angle_beta                 90
_cell_angle_gamma                90
_cell_volume                     1430
loop_
_atom_site_label
_atom_site_type_symbol
_atom_site_fract_x
_atom_site_fract_y
_atom_site_fract_z
Ga1 Ga 1.00000 0.0000 1.00000
O1 O 0.9936 0.2500 1.0734
O2 O 0.92632(11) 0.0830(3) 0.88584(19)
O3 O 0.58949(10) 0.0826(3) 0.5886(2)
C1 C 0.82814(19) 0.2500 0.7914(3)
C2 C 0.89907(17) 0.2500 0.8600(3)
C3 C 0.69218(17) 0.2500 0.6712(3)
C4 C 0.61762(18) 0.2500 0.6108(3)
C5 C 0.79127(17) 0.4288(3) 0.7651(3)
H1 H 0.8119(4) 0.5661(5) 0.7989(9)
C6 C 0.72605(16) 0.4274(3) 0.6995(3)
H2 H 0.7021(9) 0.5647(5) 0.6704(18)
Ga1C Ga 1.00000 0.5000 1.00000
Ga1A Ga 0.50000 0.0000 0.50000
Ga1B Ga 0.50000 0.5000 0.50000
O1C O 1.0064 -0.2500 0.9266
O2G O 0.92632(11) 0.4170(3) 0.88584(19)
O2D O 1.07368(11) -0.0830(3) 1.11416(19)
O3G O 0.58949(10) 0.4174(3) 0.5886(2)
O3A O 0.91051(10) -0.0826(3) 1.0886(2)
O3E O 1.08949(10) 0.0826(3) 0.9114(2)
C5G C 0.79127(17) 0.0712(3) 0.7651(3)
H1G H 0.8119(4) -0.0661(5) 0.7989(9)
C6G C 0.72605(16) 0.0726(3) 0.6995(3)
H2G H 0.7021(9) -0.0647(5) 0.6704(18)
loop_
_geom_bond_atom_site_label_1
_geom_bond_atom_site_label_2
_geom_bond_site_symmetry_1
_geom_bond_site_symmetry_2
Ga1 O1 1_555 1_555
O1 Ga1C 1_555 1_555
O2 Ga1 1_555 1_555
O3 C4 1_555 1_555
C1 C2 1_555 1_555
C2 O2 1_555 1_555
C3 C4 1_555 1_555
C4 O3G 1_555 1_555
C5 C1 1_555 1_555
H1 C5 1_555 1_555
C6 C3 1_555 1_555
H2 C6 1_555 1_555
Ga1C O2G 1_555 1_555
Ga1A O3 1_555 1_555
Ga1B O3G 1_555 1_555
O1C Ga1 1_555 1_555
O2G C2 1_555 1_555
O2D Ga1 1_555 1_555
O3A Ga1 1_555 1_555
O3E Ga1 1_555 1_555
C5G C1 1_555 1_555
H1G C5G 1_555 1_555
C6G C3 1_555 1_555
H2G C6G 1_555 1_555
C5 C6 1_555 1_555
C5G C6G 1_555 1_555

#END
