
#######################################################################
#
#                 Cambridge Crystallographic Data Centre
#                                CCDC 
#
#######################################################################
#
# If this CIF has been generated from an entry in the Cambridge 
# Structural Database, then it will include bibliographic, chemical, 
# crystal, experimental, refinement or atomic coordinate data resulting 
# from the CCDC's data processing and validation procedures.
#
#######################################################################

data_DONREE
_symmetry_cell_setting           monoclinic
_symmetry_space_group_name_H-M   'P 21/m'
_symmetry_Int_Tables_number      11
_space_group_name_Hall           '-P 2yb'
loop_
_symmetry_equiv_pos_site_id
_symmetry_equiv_pos_as_xyz
1 x,y,z
2 -x,1/2+y,-z
3 -x,-y,-z
4 x,1/2-y,z
_cell_length_a                   12.5552(8)
_cell_length_b                   18.0199(12)
_cell_length_c                   13.8109(10)
_cell_angle_alpha                90
_cell_angle_beta                 105.3590(10)
_cell_angle_gamma                90
_cell_volume                     3013.03
loop_
_atom_site_label
_atom_site_type_symbol
_atom_site_fract_x
_atom_site_fract_y
_atom_site_fract_z
H1 H 1.075(2) 0.2500 -0.348(5)
H2 H 0.794(3) 0.2500 0.470(5)
H3 H 1.088(4) 0.337(2) 0.442(3)
O1 O 0.9825(4) 0.2500 -0.1223(3)
C1 C 1.0881(5) 0.2500 -0.0860(5)
C2 C 1.1265(5) 0.2500 0.0273(5)
C3 C 1.0513(5) 0.2500 0.0843(5)
H4 H 0.9761 0.2500 0.0522
C4 C 1.2743(5) 0.2500 0.1788(5)
C5 C 1.0855(5) 0.2500 0.1882(5)
C6 C 1.0048(5) 0.2500 0.2512(5)
O2 O 0.9026(3) 0.2500 0.2039(3)
O3 O 1.0379(3) 0.2500 0.3438(3)
C7 C 1.1978(5) 0.2500 0.2368(5)
H5 H 1.2218 0.2500 0.3065
C8 C 1.4643(5) 0.2500 0.1793(5)
H6 H 1.4553 0.2936 0.1368
O4 O 1.3842(3) 0.2500 0.2339(3)
N1 N 1.4152(3) 0.34666(18) 0.4299(3)
N2 N 1.3322(3) 0.35769(19) 0.4712(3)
N3 N 1.3010(3) 0.4290(2) 0.4597(3)
C9 C 1.2384(5) 0.2500 0.0748(5)
H7 H 1.2896 0.2500 0.0370
O5 O 1.1553(4) 0.2500 -0.1368(4)
Zn1 Zn 1.15553(4) 0.45868(3) 0.48521(4)
Zn2 Zn 1.49183(5) 0.2500 0.43592(6)
Zn3 Zn 0.93796(6) 0.2500 -0.26796(6)
Zn4 Zn 0.94674(4) 0.33677(3) -0.48205(4)
Zn5 Zn 0.81112(6) 0.2500 0.29984(6)
O6 O 1.0075(3) 0.2500 -0.3810(3)
O7 O 1.5922(3) 0.2500 0.3459(3)
O8 O 0.8518(3) 0.2500 0.4492(3)
O9 O 1.0826(3) 0.36653(17) 0.4876(3)
N4 N 1.0752(3) 0.59765(18) 0.3660(3)
N5 N 1.0674(3) 0.62926(19) 0.2782(3)
N6 N 1.1589(3) 0.59519(19) 0.5994(3)
O10 O 1.6558(3) 0.2500 0.2104(3)
N7 N 1.7128(4) 0.2500 0.5846(4)
N8 N 1.7654(4) 0.2500 0.6821(4)
N9 N 1.1644(3) 0.52105(19) 0.6059(3)
C10 C 1.5783(5) 0.2500 0.2516(5)
C11 C 1.2039(4) 0.5036(3) 0.7050(4)
C12 C 1.2229(4) 0.5709(3) 0.7574(4)
N10 N 1.0950(3) 0.52457(18) 0.3652(3)
N11 N 1.6037(4) 0.2500 0.5720(4)
C13 C 1.5849(5) 0.2500 0.6648(5)
C14 C 1.6882(6) 0.2500 0.7353(5)
N12 N 1.1930(3) 0.6265(2) 0.6895(3)
C15 C 1.1005(4) 0.5093(2) 0.2703(4)
C16 C 1.3660(4) 0.4651(2) 0.4090(4)
C17 C 1.4399(4) 0.4127(2) 0.3899(4)
C18 C 1.3661(4) 0.5392(2) 0.3765(4)
H8 H 1.3193 0.5748 0.3915
C19 C 1.4883(6) 0.2500 0.6956(7)
H9 H 1.4192 0.2500 0.6494
C20 C 1.2256(4) 0.4350(3) 0.7557(5)
H10 H 1.2122 0.3901 0.7214
C21 C 1.5152(4) 0.4315(3) 0.3364(4)
H11 H 1.5648 0.3969 0.3236
C22 C 1.0933(4) 0.5777(3) 0.1169(4)
H12 H 1.0832 0.6218 0.0806
C23 C 1.6991(7) 0.2500 0.8390(6)
H13 H 1.7680 0.2500 0.8853
C24 C 1.2686(5) 0.5716(3) 0.8619(4)
H14 H 1.2831 0.6159 0.8978
C25 C 1.1252(5) 0.4418(3) 0.2273(4)
H15 H 1.1355 0.3974 0.2631
C26 C 1.1174(5) 0.5125(3) 0.0765(4)
H16 H 1.1237 0.5122 0.0109
C27 C 1.1329(5) 0.4457(3) 0.1318(5)
H17 H 1.1491 0.4027 0.1012
C28 C 1.4389(4) 0.5554(3) 0.3220(5)
H18 H 1.4391 0.6031 0.2962
C29 C 1.4992(8) 0.2500 0.7983(8)
H19 H 1.4358 0.2500 0.8211
C30 C 1.5133(5) 0.5030(3) 0.3033(5)
H20 H 1.5629 0.5173 0.2673
C31 C 1.2670(5) 0.4377(4) 0.8566(5)
H21 H 1.2799 0.3935 0.8925
C32 C 1.2907(5) 0.5045(4) 0.9083(5)
H22 H 1.3229 0.5033 0.9772
C33 C 1.6035(9) 0.2500 0.8691(8)
H23 H 1.6075 0.2500 0.9373
C34 C 1.0849(4) 0.5744(2) 0.2153(4)
H1_2 H 1.075(2) 0.2500 0.652(5)
H2_2 H 0.794(3) 0.2500 -0.530(5)
H3C H 1.088(4) 0.163(2) 0.442(3)
H3_2 H 1.088(4) 0.337(2) -0.558(3)
H6C H 1.4553 0.2064 0.1368
N1C N 1.4152(3) 0.15334(18) 0.4299(3)
N2C N 1.3322(3) 0.14231(19) 0.4712(3)
N3C N 1.3010(3) 0.0710(2) 0.4597(3)
Zn1C Zn 1.15553(4) 0.04132(3) 0.48521(4)
Zn1B Zn 0.84447(4) 0.54132(3) -0.48521(4)
Zn1B_2 Zn 0.84447(4) 0.54132(3) 0.51479(4)
Zn3A Zn 1.06204(6) 0.7500 0.26796(6)
Zn3_2 Zn 1.93796(6) 0.2500 0.73204(6)
Zn4_2 Zn 0.94674(4) 0.33677(3) 0.51795(4)
Zn4C Zn 0.94674(4) 0.16323(3) -0.48205(4)
Zn4C_2 Zn 0.94674(4) 0.16323(3) 0.51795(4)
Zn4B Zn 1.05326(4) 0.66323(3) 0.48205(4)
Zn5_2 Zn 1.81112(6) 0.2500 0.29984(6)
Zn5A Zn 1.18888(6) 0.7500 0.70016(6)
O6_2 O 1.0075(3) 0.2500 0.6190(3)
O8_2 O 0.8518(3) 0.2500 -0.5508(3)
O9C O 1.0826(3) 0.13347(17) 0.4876(3)
O9_2 O 1.0826(3) 0.36653(17) -0.5124(3)
N4B N 0.9248(3) 0.40235(18) -0.3660(3)
N4B_2 N 0.9248(3) 0.40235(18) 0.6340(3)
N5B N 0.9326(3) 0.37074(19) -0.2782(3)
N5A N 0.9326(3) 0.12926(19) -0.2782(3)
N6B N 0.8411(3) 0.40481(19) 0.4006(3)
N6B_2 N 0.8411(3) 0.40481(19) -0.5994(3)
O10_2 O 0.6558(3) 0.2500 0.2104(3)
N8_2 N 0.7654(4) 0.2500 -0.3179(4)
N9B N 0.8356(3) 0.47895(19) 0.3941(3)
N9C N 1.1644(3) -0.02105(19) 0.6059(3)
C11B C 0.7961(4) 0.4964(3) 0.2950(4)
C12B C 0.7771(4) 0.4291(3) 0.2426(4)
N10B N 0.9050(3) 0.47543(18) -0.3652(3)
N10C N 1.0950(3) -0.02457(18) 0.3652(3)
N12B N 0.8070(3) 0.3735(2) 0.3105(3)
N12A N 0.8070(3) 0.1265(2) 0.3105(3)
C15B C 0.8995(4) 0.4907(2) -0.2703(4)
C16C C 1.3660(4) 0.0349(2) 0.4090(4)
C17C C 1.4399(4) 0.0873(2) 0.3899(4)
C18C C 1.3661(4) -0.0392(2) 0.3765(4)
H8C H 1.3193 -0.0748 0.3915
C20B C 0.7744(4) 0.5650(3) 0.2443(5)
H10B H 0.7878 0.6099 0.2786
C21C C 1.5152(4) 0.0685(3) 0.3364(4)
H11C H 1.5648 0.1031 0.3236
C22B C 0.9067(4) 0.4223(3) -0.1169(4)
H12B H 0.9168 0.3782 -0.0806
C24B C 0.7314(5) 0.4284(3) 0.1381(4)
H14B H 0.7169 0.3841 0.1022
C25B C 0.8748(5) 0.5582(3) -0.2273(4)
H15B H 0.8645 0.6026 -0.2631
C26B C 0.8826(5) 0.4875(3) -0.0765(4)
H16B H 0.8763 0.4878 -0.0109
C27B C 0.8671(5) 0.5543(3) -0.1318(5)
H17B H 0.8509 0.5973 -0.1012
C28C C 1.4389(4) -0.0554(3) 0.3220(5)
H18C H 1.4391 -0.1031 0.2962
C30C C 1.5133(5) -0.0030(3) 0.3033(5)
H20C H 1.5629 -0.0173 0.2673
C31B C 0.7330(5) 0.5623(4) 0.1434(5)
H21B H 0.7201 0.6065 0.1075
C32B C 0.7093(5) 0.4955(4) 0.0917(5)
H22B H 0.6771 0.4967 0.0228
C34B C 0.9151(4) 0.4256(2) -0.2153(4)
O11 O 0.7715(7) 0.7500 0.3862(10)
loop_
_geom_bond_atom_site_label_1
_geom_bond_atom_site_label_2
_geom_bond_site_symmetry_1
_geom_bond_site_symmetry_2
H1 O6 1_555 1_555
H2 O8 1_555 1_555
H3 O9 1_555 1_555
O1 C1 1_555 1_555
C1 C2 1_555 1_555
C2 C3 1_555 1_555
C3 H4 1_555 1_555
C4 C7 1_555 1_555
C5 C3 1_555 1_555
C6 C5 1_555 1_555
O2 C6 1_555 1_555
O3 C6 1_555 1_555
C7 C5 1_555 1_555
H5 C7 1_555 1_555
C8 H6 1_555 1_555
O4 C4 1_555 1_555
N1 N2 1_555 1_555
N2 N3 1_555 1_555
N3 Zn1 1_555 1_555
C9 C2 1_555 1_555
H7 C9 1_555 1_555
O5 C1 1_555 1_555
Zn1 O9 1_555 1_555
Zn2 N1 1_555 1_555
Zn3 O1 1_555 1_555
Zn4 O6 1_555 1_555
Zn5 O2 1_555 1_555
O6 Zn3 1_555 1_555
O7 Zn2 1_555 1_555
O8 Zn5 1_555 1_555
O9 Zn4_2 1_555 1_555
N4 N5 1_555 1_555
N5 C34 1_555 1_555
N6 N9 1_555 1_555
O10 C10 1_555 1_555
N7 N8 1_555 1_555
N8 C14 1_555 1_555
N9 Zn1 1_555 1_555
C10 C8 1_555 1_555
C11 N9 1_555 1_555
C12 C11 1_555 1_555
N10 Zn1 1_555 1_555
N11 Zn2 1_555 1_555
C13 N11 1_555 1_555
C14 C13 1_555 1_555
N12 N6 1_555 1_555
C15 N10 1_555 1_555
C16 N3 1_555 1_555
C17 N1 1_555 1_555
C18 C16 1_555 1_555
H8 C18 1_555 1_555
C19 C13 1_555 1_555
H9 C19 1_555 1_555
C20 C11 1_555 1_555
H10 C20 1_555 1_555
C21 C17 1_555 1_555
H11 C21 1_555 1_555
C22 H12 1_555 1_555
C23 C14 1_555 1_555
H13 C23 1_555 1_555
C24 C12 1_555 1_555
H14 C24 1_555 1_555
C25 C15 1_555 1_555
H15 C25 1_555 1_555
C26 C22 1_555 1_555
H16 C26 1_555 1_555
C27 C25 1_555 1_555
H17 C27 1_555 1_555
C28 C18 1_555 1_555
H18 C28 1_555 1_555
C29 C19 1_555 1_555
H19 C29 1_555 1_555
C30 C21 1_555 1_555
H20 C30 1_555 1_555
C31 C20 1_555 1_555
H21 C31 1_555 1_555
C32 C24 1_555 1_555
H22 C32 1_555 1_555
C33 C23 1_555 1_555
H23 C33 1_555 1_555
C34 C15 1_555 1_555
H1_2 O6_2 1_555 1_555
H2_2 O8_2 1_555 1_555
H3C O9C 1_555 1_555
H3_2 O9_2 1_555 1_555
H6C C8 1_555 1_555
N1C Zn2 1_555 1_555
N2C N1C 1_555 1_555
N3C N2C 1_555 1_555
Zn1C N3C 1_555 1_555
Zn1B N10B 1_555 1_555
Zn1B_2 N9B 1_555 1_555
Zn3A N5 1_555 1_555
Zn3_2 N8 1_555 1_555
Zn4_2 O8 1_555 1_555
Zn4C O6 1_555 1_555
Zn4C_2 O8 1_555 1_555
Zn4B N4 1_555 1_555
Zn5_2 O10 1_555 1_555
Zn5A N12 1_555 1_555
O6_2 Zn4_2 1_555 1_555
O8_2 Zn4 1_555 1_555
O9C Zn1C 1_555 1_555
O9_2 Zn4 1_555 1_555
N4B Zn4 1_555 1_555
N4B_2 Zn4_2 1_555 1_555
N5B Zn3 1_555 1_555
N5A Zn3 1_555 1_555
N6B Zn4_2 1_555 1_555
N6B_2 Zn4 1_555 1_555
O10_2 Zn5 1_555 1_555
N8_2 Zn3 1_555 1_555
N9B N6B 1_555 1_555
N9C Zn1C 1_555 1_555
C11B N9B 1_555 1_555
C12B C11B 1_555 1_555
N10B N4B 1_555 1_555
N10C Zn1C 1_555 1_555
N12B Zn5 1_555 1_555
N12A Zn5 1_555 1_555
C15B N10B 1_555 1_555
C16C N3C 1_555 1_555
C17C N1C 1_555 1_555
C18C C16C 1_555 1_555
H8C C18C 1_555 1_555
C20B C11B 1_555 1_555
H10B C20B 1_555 1_555
C21C C17C 1_555 1_555
H11C C21C 1_555 1_555
C22B H12B 1_555 1_555
C24B C12B 1_555 1_555
H14B C24B 1_555 1_555
C25B C15B 1_555 1_555
H15B C25B 1_555 1_555
C26B C22B 1_555 1_555
H16B C26B 1_555 1_555
C27B C25B 1_555 1_555
H17B C27B 1_555 1_555
C28C C18C 1_555 1_555
H18C C28C 1_555 1_555
C30C C21C 1_555 1_555
H20C C30C 1_555 1_555
C31B C20B 1_555 1_555
H21B C31B 1_555 1_555
C32B C24B 1_555 1_555
H22B C32B 1_555 1_555
C34B N5B 1_555 1_555
C4 C9 1_555 1_555
C8 O4 1_555 1_555
O7 C10 1_555 1_555
N4 N10 1_555 1_555
N6 Zn4B 1_555 1_555
N7 N11 1_555 1_555
C12 N12 1_555 1_555
C16 C17 1_555 1_555
C22 C34 1_555 1_555
C26 C27 1_555 1_555
C28 C30 1_555 1_555
C29 C33 1_555 1_555
C31 C32 1_555 1_555
Zn4C O8_2 1_555 1_555
Zn4C_2 O6_2 1_555 1_555
Zn4C_2 O9C 1_555 1_555
N4B N5B 1_555 1_555
N6B N12B 1_555 1_555
C12B N12B 1_555 1_555
C15B C34B 1_555 1_555
C16C C17C 1_555 1_555
C22B C34B 1_555 1_555
C26B C27B 1_555 1_555
C28C C30C 1_555 1_555
C31B C32B 1_555 1_555

#END
