
#######################################################################
#
#                 Cambridge Crystallographic Data Centre
#                                CCDC 
#
#######################################################################
#
# If this CIF has been generated from an entry in the Cambridge 
# Structural Database, then it will include bibliographic, chemical, 
# crystal, experimental, refinement or atomic coordinate data resulting 
# from the CCDC's data processing and validation procedures.
#
#######################################################################

data_DOPBUF01
_symmetry_cell_setting           orthorhombic
_symmetry_space_group_name_H-M   'P n m a'
_symmetry_Int_Tables_number      62
_space_group_name_Hall           '-P 2ac 2n'
loop_
_symmetry_equiv_pos_site_id
_symmetry_equiv_pos_as_xyz
1 x,y,z
2 1/2-x,-y,1/2+z
3 1/2+x,1/2-y,1/2-z
4 -x,1/2+y,-z
5 -x,-y,-z
6 1/2+x,y,1/2-z
7 1/2-x,1/2+y,1/2+z
8 x,1/2-y,z
_cell_length_a                   12.727(11)
_cell_length_b                   21.352(19)
_cell_length_c                   5.153(5)
_cell_angle_alpha                90
_cell_angle_beta                 90
_cell_angle_gamma                90
_cell_volume                     1400.31
loop_
_atom_site_label
_atom_site_type_symbol
_atom_site_fract_x
_atom_site_fract_y
_atom_site_fract_z
Cu1 Cu 0.5504(3) 0.2500 0.1488(9)
Mn1 Mn 0.5000 0.0000 0.0000
O1 O 0.4365(3) 0.0764(2) 0.229(1)
O2 O 0.5960(3) 0.0784(2) -0.1235(9)
O3 O 0.6156(3) 0.1825(2) -0.0623(9)
O4 O 0.6177(3) -0.0211(2) 0.297(1)
O5 O 0.6739(4) 0.2500 0.470(2)
N1 N 0.4631(2) 0.1824(1) 0.2839(6)
C1 C 0.5728(3) 0.1294(2) -0.0161(9)
C2 C 0.4836(2) 0.1284(2) 0.1840(8)
C3 C 0.3782(3) 0.1893(2) 0.4727(9)
C4 C 0.3907(4) 0.2500 0.626(1)
H1 H 0.3033(5) 0.1892(4) 0.377(2)
H2 H 0.3757(6) 0.1497(4) 0.601(2)
H3 H 0.3328(9) 0.2500 0.785(3)
H4 H 0.4673(9) 0.2500 0.718(3)
H5 H 0.6575(6) 0.0157(4) 0.344(2)
H6 H 0.5989(5) -0.0420(4) 0.450(2)
H7 H 0.6662(6) 0.2848(5) 0.577(2)
O3G O 0.6156(3) 0.3175(2) -0.0623(9)
C1G C 0.5728(3) 0.3706(2) -0.0161(9)
O2G O 0.5960(3) 0.4216(2) -0.1235(9)
Mn1G Mn 0.5000 0.5000 0.0000
O1G O 0.4365(3) 0.4236(2) 0.229(1)
C2G C 0.4836(2) 0.3716(2) 0.1840(8)
N1G N 0.4631(2) 0.3176(1) 0.2839(6)
H7G H 0.6662(6) 0.2152(5) 0.577(2)
C3G C 0.3782(3) 0.3107(2) 0.4727(9)
H1G H 0.3033(5) 0.3108(4) 0.377(2)
H2G H 0.3757(6) 0.3503(4) 0.601(2)
O1D O 0.5635(3) -0.0764(2) -0.229(1)
O2D O 0.4040(3) -0.0784(2) 0.1235(9)
O4D O 0.3823(3) 0.0211(2) -0.297(1)
H5D H 0.3425(6) -0.0157(4) -0.344(2)
H6D H 0.4011(5) 0.0420(4) -0.450(2)
O6 O 0.2146(3) 0.0877(2) 0.072(1)
H8 H 0.1958(6) 0.0891(4) -0.098(2)
H9 H 0.2868(6) 0.0832(5) 0.087(2)
loop_
_geom_bond_atom_site_label_1
_geom_bond_atom_site_label_2
_geom_bond_site_symmetry_1
_geom_bond_site_symmetry_2
Cu1 O3 1_555 1_555
Mn1 O1 1_555 1_555
O1 C2 1_555 1_555
O2 Mn1 1_555 1_555
O3 C1 1_555 1_555
O4 Mn1 1_555 1_555
O5 Cu1 1_555 1_555
N1 Cu1 1_555 1_555
C1 O2 1_555 1_555
C2 N1 1_555 1_555
C3 N1 1_555 1_555
C4 C3 1_555 1_555
H1 C3 1_555 1_555
H2 C3 1_555 1_555
H3 C4 1_555 1_555
H4 C4 1_555 1_555
H5 O4 1_555 1_555
H6 O4 1_555 1_555
H7 O5 1_555 1_555
O6 H8 1_555 1_555
H9 O6 1_555 1_555
O3G Cu1 1_555 1_555
C1G O3G 1_555 1_555
O2G C1G 1_555 1_555
Mn1G O2G 1_555 1_555
O1G Mn1G 1_555 1_555
C2G C1G 1_555 1_555
N1G Cu1 1_555 1_555
H7G O5 1_555 1_555
C3G C4 1_555 1_555
H1G C3G 1_555 1_555
H2G C3G 1_555 1_555
O1D Mn1 1_555 1_555
O2D Mn1 1_555 1_555
O4D Mn1 1_555 1_555
H5D O4D 1_555 1_555
H6D O4D 1_555 1_555
C1 C2 1_555 1_555
O1G C2G 1_555 1_555
C2G N1G 1_555 1_555
N1G C3G 1_555 1_555

#END
