
#######################################################################
#
#                 Cambridge Crystallographic Data Centre
#                                CCDC 
#
#######################################################################
#
# If this CIF has been generated from an entry in the Cambridge 
# Structural Database, then it will include bibliographic, chemical, 
# crystal, experimental, refinement or atomic coordinate data resulting 
# from the CCDC's data processing and validation procedures.
#
#######################################################################

data_DOPBUF11
_symmetry_cell_setting           orthorhombic
_symmetry_space_group_name_H-M   'P n m a'
_symmetry_Int_Tables_number      62
_space_group_name_Hall           '-P 2ac 2n'
loop_
_symmetry_equiv_pos_site_id
_symmetry_equiv_pos_as_xyz
1 x,y,z
2 1/2-x,-y,1/2+z
3 1/2+x,1/2-y,1/2-z
4 -x,1/2+y,-z
5 -x,-y,-z
6 1/2+x,y,1/2-z
7 1/2-x,1/2+y,1/2+z
8 x,1/2-y,z
_cell_length_a                   12.7158(3)
_cell_length_b                   21.3520(5)
_cell_length_c                   5.1745(2)
_cell_angle_alpha                90
_cell_angle_beta                 90
_cell_angle_gamma                90
_cell_volume                     1404.92
loop_
_atom_site_label
_atom_site_type_symbol
_atom_site_fract_x
_atom_site_fract_y
_atom_site_fract_z
Cu1 Cu 0.050679(8) 0.2500 0.150042(19)
Mn1 Mn 0.0000 0.5000 0.0000
O1 O -0.06303(3) 0.423844(19) 0.22854(9)
O2 O 0.09575(4) 0.42089(2) -0.12554(9)
O3 O 0.11523(3) 0.317983(19) -0.06201(9)
O4 O -0.11791(4) 0.47868(2) -0.29552(9)
O5 O 0.17489(6) 0.2500 0.46535(14)
N1 N -0.03674(4) 0.31734(2) 0.28494(10)
C1 C 0.07282(4) 0.37043(2) -0.01580(10)
C2 C -0.01646(4) 0.37163(2) 0.18463(10)
C3 C -0.10898(6) 0.2500 0.62761(15)
C4 C -0.12204(5) 0.31020(3) 0.47259(12)
H1 H -0.1630(17) 0.2500 0.761(4)
H2 H -0.0382(16) 0.2500 0.706(4)
H3 H -0.1877(12) 0.3103(7) 0.388(3)
H4 H -0.1224(11) 0.3445(7) 0.585(3)
H5 H -0.1509(15) 0.5102(9) -0.342(4)
H6 H -0.1047(13) 0.4602(8) -0.426(3)
H7 H 0.1673(14) 0.2199(8) 0.559(3)
Mn1C Mn 0.0000 0.0000 0.0000
O1G O -0.06303(3) 0.076156(19) 0.22854(9)
O1D O 0.06303(3) 0.576156(19) -0.22854(9)
O2G O 0.09575(4) 0.07911(2) -0.12554(9)
O2D O -0.09575(4) 0.57911(2) 0.12554(9)
O3G O 0.11523(3) 0.182017(19) -0.06201(9)
O4D O 0.11791(4) 0.52132(2) 0.29552(9)
N1G N -0.03674(4) 0.18266(2) 0.28494(10)
C1G C 0.07282(4) 0.12957(2) -0.01580(10)
C2G C -0.01646(4) 0.12837(2) 0.18463(10)
C4G C -0.12204(5) 0.18980(3) 0.47259(12)
H3G H -0.1877(12) 0.1897(7) 0.388(3)
H4G H -0.1224(11) 0.1555(7) 0.585(3)
H5D H 0.1509(15) 0.4898(9) 0.342(4)
H6D H 0.1047(13) 0.5398(8) 0.426(3)
H7G H 0.1673(14) 0.2801(8) 0.559(3)
O6 O 0.21400(4) 0.41212(3) 0.42287(10)
H8 H 0.1986(14) 0.4119(8) 0.574(4)
H9 H 0.2733(15) 0.4166(8) 0.413(4)
loop_
_geom_bond_atom_site_label_1
_geom_bond_atom_site_label_2
_geom_bond_site_symmetry_1
_geom_bond_site_symmetry_2
Cu1 O3 1_555 1_555
Mn1 O1 1_555 1_555
O1 C2 1_555 1_555
O2 Mn1 1_555 1_555
O3 C1 1_555 1_555
O4 Mn1 1_555 1_555
O5 Cu1 1_555 1_555
N1 Cu1 1_555 1_555
C1 O2 1_555 1_555
C2 N1 1_555 1_555
C3 C4 1_555 1_555
C4 N1 1_555 1_555
H1 C3 1_555 1_555
H2 C3 1_555 1_555
H3 C4 1_555 1_555
H4 C4 1_555 1_555
H5 O4 1_555 1_555
H6 O4 1_555 1_555
H7 O5 1_555 1_555
O6 H8 1_555 1_555
H9 O6 1_555 1_555
Mn1C O1G 1_555 1_555
O1G C2G 1_555 1_555
O1D Mn1 1_555 1_555
O2G Mn1C 1_555 1_555
O2D Mn1 1_555 1_555
O3G Cu1 1_555 1_555
O4D Mn1 1_555 1_555
N1G Cu1 1_555 1_555
C1G O2G 1_555 1_555
C2G N1G 1_555 1_555
C4G C3 1_555 1_555
H3G C4G 1_555 1_555
H4G C4G 1_555 1_555
H5D O4D 1_555 1_555
H6D O4D 1_555 1_555
H7G O5 1_555 1_555
C1 C2 1_555 1_555
O3G C1G 1_555 1_555
N1G C4G 1_555 1_555
C1G C2G 1_555 1_555

#END
