
#######################################################################
#
#                 Cambridge Crystallographic Data Centre
#                                CCDC 
#
#######################################################################
#
# If this CIF has been generated from an entry in the Cambridge 
# Structural Database, then it will include bibliographic, chemical, 
# crystal, experimental, refinement or atomic coordinate data resulting 
# from the CCDC's data processing and validation procedures.
#
#######################################################################

data_DOPBUF10
_symmetry_cell_setting           orthorhombic
_symmetry_space_group_name_H-M   'P n m a'
_symmetry_Int_Tables_number      62
_space_group_name_Hall           '-P 2ac 2n'
loop_
_symmetry_equiv_pos_site_id
_symmetry_equiv_pos_as_xyz
1 x,y,z
2 1/2-x,-y,1/2+z
3 1/2+x,1/2-y,1/2-z
4 -x,1/2+y,-z
5 -x,-y,-z
6 1/2+x,y,1/2-z
7 1/2-x,1/2+y,1/2+z
8 x,1/2-y,z
_cell_length_a                   12.945(1)
_cell_length_b                   21.250(4)
_cell_length_c                   5.2105(8)
_cell_angle_alpha                90
_cell_angle_beta                 90
_cell_angle_gamma                90
_cell_volume                     1433.31
loop_
_atom_site_label
_atom_site_type_symbol
_atom_site_fract_x
_atom_site_fract_y
_atom_site_fract_z
Cu1 Cu 0.54886(3) 0.25000 0.15663(8)
Mn1 Mn 0.50000 0.00000 0.00000
O1 O 0.4376(1) 0.07589(7) 0.2299(3)
O2 O 0.5931(1) 0.07956(7) -0.1203(3)
O3 O 0.6129(1) 0.18214(7) -0.0530(3)
O4 O 0.6161(2) -0.02129(8) 0.2949(3)
O5 O 0.6740(2) 0.25000 0.4649(5)
N1 N 0.4633(1) 0.18259(8) 0.2863(4)
C1 C 0.5706(2) 0.1298(1) -0.0108(4)
C2 C 0.4827(2) 0.1284(1) 0.1877(4)
C3 C 0.3787(2) 0.1901(1) 0.4721(5)
C4 C 0.3901(3) 0.25000 0.6234(6)
H1 H 0.315(2) 0.190(1) 0.383(5)
H2 H 0.372(2) 0.157(1) 0.566(5)
H3 H 0.337(3) 0.250 0.759(8)
H4 H 0.458(2) 0.250 0.709(7)
H5 H 0.645(2) 0.006(1) 0.346(6)
H6 H 0.601(2) -0.039(1) 0.419(5)
H7 H 0.674(3) 0.287(2) 0.542(7)
O3G O 0.6129(1) 0.31786(7) -0.0530(3)
C1G C 0.5706(2) 0.3702(1) -0.0108(4)
O2G O 0.5931(1) 0.42044(7) -0.1203(3)
Mn1G Mn 0.50000 0.50000 0.00000
O1G O 0.4376(1) 0.42411(7) 0.2299(3)
C2G C 0.4827(2) 0.3716(1) 0.1877(4)
N1G N 0.4633(1) 0.31741(8) 0.2863(4)
H7G H 0.674(3) 0.213(2) 0.542(7)
C3G C 0.3787(2) 0.3099(1) 0.4721(5)
H1G H 0.315(2) 0.310(1) 0.383(5)
H2G H 0.372(2) 0.343(1) 0.566(5)
O1D O 0.5624(1) -0.07589(7) -0.2299(3)
O2D O 0.4069(1) -0.07956(7) 0.1203(3)
O4D O 0.3839(2) 0.02129(8) -0.2949(3)
H5D H 0.355(2) -0.006(1) -0.346(6)
H6D H 0.399(2) 0.039(1) -0.419(5)
O6 O 0.2142(2) 0.0879(1) 0.0635(4)
H8 H 0.199(2) 0.084(1) -0.082(6)
H9 H 0.263(2) 0.079(1) 0.063(6)
loop_
_geom_bond_atom_site_label_1
_geom_bond_atom_site_label_2
_geom_bond_site_symmetry_1
_geom_bond_site_symmetry_2
Cu1 O3 1_555 1_555
Mn1 O1 1_555 1_555
O1 C2 1_555 1_555
O2 Mn1 1_555 1_555
O3 C1 1_555 1_555
O4 Mn1 1_555 1_555
O5 Cu1 1_555 1_555
N1 Cu1 1_555 1_555
C1 O2 1_555 1_555
C2 N1 1_555 1_555
C3 N1 1_555 1_555
C4 C3 1_555 1_555
H1 C3 1_555 1_555
H2 C3 1_555 1_555
H3 C4 1_555 1_555
H4 C4 1_555 1_555
H5 O4 1_555 1_555
H6 O4 1_555 1_555
H7 O5 1_555 1_555
O6 H8 1_555 1_555
H9 O6 1_555 1_555
O3G Cu1 1_555 1_555
C1G O3G 1_555 1_555
O2G C1G 1_555 1_555
Mn1G O2G 1_555 1_555
O1G Mn1G 1_555 1_555
C2G C1G 1_555 1_555
N1G Cu1 1_555 1_555
H7G O5 1_555 1_555
C3G C4 1_555 1_555
H1G C3G 1_555 1_555
H2G C3G 1_555 1_555
O1D Mn1 1_555 1_555
O2D Mn1 1_555 1_555
O4D Mn1 1_555 1_555
H5D O4D 1_555 1_555
H6D O4D 1_555 1_555
C1 C2 1_555 1_555
O1G C2G 1_555 1_555
C2G N1G 1_555 1_555
N1G C3G 1_555 1_555

#END
