
#######################################################################
#
#                 Cambridge Crystallographic Data Centre
#                                CCDC 
#
#######################################################################
#
# If this CIF has been generated from an entry in the Cambridge 
# Structural Database, then it will include bibliographic, chemical, 
# crystal, experimental, refinement or atomic coordinate data resulting 
# from the CCDC's data processing and validation procedures.
#
#######################################################################

data_DOPBUF12
_symmetry_cell_setting           orthorhombic
_symmetry_space_group_name_H-M   'P n m a'
_symmetry_Int_Tables_number      62
_space_group_name_Hall           '-P 2ac 2n'
loop_
_symmetry_equiv_pos_site_id
_symmetry_equiv_pos_as_xyz
1 x,y,z
2 1/2-x,-y,1/2+z
3 -x,1/2+y,-z
4 1/2+x,1/2-y,1/2-z
5 -x,-y,-z
6 1/2+x,y,1/2-z
7 x,1/2-y,z
8 1/2-x,1/2+y,1/2+z
_cell_length_a                   12.7858(5)
_cell_length_b                   21.2972(8)
_cell_length_c                   5.1864(2)
_cell_angle_alpha                90
_cell_angle_beta                 90
_cell_angle_gamma                90
_cell_volume                     1412.27
loop_
_atom_site_label
_atom_site_type_symbol
_atom_site_fract_x
_atom_site_fract_y
_atom_site_fract_z
Cu1 Cu 0.44941(2) 0.2500 0.34678(4)
Mn1 Mn 0.5000 0.0000 0.5000
O1 O 0.5632(8) 0.07576(4) 0.2715(2)
O2 O 0.40510(9) 0.07902(5) 0.6238(2)
O3 O 0.38473(8) 0.18202(4) 0.5586(2)
O4 O 0.38152(9) -0.02113(5) 0.2040(2)
O5 O 0.3244(1) 0.2500 0.0356(3)
N1 N 0.53657(8) 0.18245(5) 0.2126(2)
C1 C 0.5165(1) 0.12807(6) 0.3141(2)
C2 C 0.4278(1) 0.12953(6) 0.5135(2)
C3 C 0.6089(2) 0.2500 -0.1283(3)
C4 C 0.6217(1) 0.18970(7) 0.0262(3)
H1 H 0.6717 0.2500 -0.2672
H2 H 0.39825 -0.04808 0.0538
H3 H 0.5293 0.2500 -0.1989
H4 H 0.6930 0.18731 0.1373
H5 H 0.34665 0.01805 0.1363
H6 H 0.6155 0.14937 -0.0988
H7 H 0.3325 0.21017 -0.0610
O1F O 0.5632(8) 0.42424(4) 0.2715(2)
O2F O 0.40510(9) 0.42098(5) 0.6238(2)
O3F O 0.38473(8) 0.31798(4) 0.5586(2)
N1F N 0.53657(8) 0.31755(5) 0.2126(2)
C1F C 0.5165(1) 0.37193(6) 0.3141(2)
C2F C 0.4278(1) 0.37047(6) 0.5135(2)
C4F C 0.6217(1) 0.31030(7) 0.0262(3)
H4F H 0.6930 0.31269 0.1373
H6F H 0.6155 0.35063 -0.0988
H7F H 0.3325 0.28983 -0.0610
O4D O 0.61848(9) 0.02113(5) 0.7960(2)
H2D H 0.60175 0.04808 0.9462
H5D H 0.65335 -0.01805 0.8637
Mn1B Mn 0.5000 0.5000 0.5000
O1D O 0.4368(8) -0.07576(4) 0.7285(2)
O2D O 0.59490(9) -0.07902(5) 0.3762(2)
O6 O 0.28574(9) 0.08813(6) 0.0730(2)
H8 H 0.21051 0.07670 0.0745
H9 H 0.30746 0.08368 -0.1091
loop_
_geom_bond_atom_site_label_1
_geom_bond_atom_site_label_2
_geom_bond_site_symmetry_1
_geom_bond_site_symmetry_2
Cu1 O3 1_555 1_555
Mn1 O1 1_555 1_555
O1 C1 1_555 1_555
O2 Mn1 1_555 1_555
O3 C2 1_555 1_555
O4 Mn1 1_555 1_555
O5 Cu1 1_555 1_555
N1 Cu1 1_555 1_555
C1 N1 1_555 1_555
C2 O2 1_555 1_555
C3 C4 1_555 1_555
C4 N1 1_555 1_555
H1 C3 1_555 1_555
H2 O4 1_555 1_555
H3 C3 1_555 1_555
H4 C4 1_555 1_555
H5 O4 1_555 1_555
H6 C4 1_555 1_555
H7 O5 1_555 1_555
O6 H8 1_555 1_555
H9 O6 1_555 1_555
O1F C1F 1_555 1_555
O2F C2F 1_555 1_555
O3F Cu1 1_555 1_555
N1F Cu1 1_555 1_555
C1F N1F 1_555 1_555
C2F O3F 1_555 1_555
C4F C3 1_555 1_555
H4F C4F 1_555 1_555
H6F C4F 1_555 1_555
H7F O5 1_555 1_555
O4D Mn1 1_555 1_555
H2D O4D 1_555 1_555
H5D O4D 1_555 1_555
Mn1B O1F 1_555 1_555
O1D Mn1 1_555 1_555
O2D Mn1 1_555 1_555
C1 C2 1_555 1_555
O2F Mn1B 1_555 1_555
N1F C4F 1_555 1_555
C1F C2F 1_555 1_555

#END
