
#######################################################################
#
#                 Cambridge Crystallographic Data Centre
#                                CCDC 
#
#######################################################################
#
# If this CIF has been generated from an entry in the Cambridge 
# Structural Database, then it will include bibliographic, chemical, 
# crystal, experimental, refinement or atomic coordinate data resulting 
# from the CCDC's data processing and validation procedures.
#
#######################################################################

data_DOPCIU
_symmetry_cell_setting           monoclinic
_symmetry_space_group_name_H-M   'P 21/c'
_symmetry_Int_Tables_number      14
_space_group_name_Hall           '-P 2ybc'
loop_
_symmetry_equiv_pos_site_id
_symmetry_equiv_pos_as_xyz
1 x,y,z
2 -x,1/2+y,1/2-z
3 -x,-y,-z
4 x,1/2-y,1/2+z
_cell_length_a                   8.4083(7)
_cell_length_b                   7.968(1)
_cell_length_c                   15.020(2)
_cell_angle_alpha                90
_cell_angle_beta                 93.95(1)
_cell_angle_gamma                90
_cell_volume                     1003.91
loop_
_atom_site_label
_atom_site_type_symbol
_atom_site_fract_x
_atom_site_fract_y
_atom_site_fract_z
Pr1 Pr 0.45110(3) 0.12403(3) 0.28508(1)
O1 O 0.3427(4) -0.1604(4) 0.2161(2)
O2 O 0.1776(4) 0.0509(5) 0.2191(3)
O3 O 0.6471(4) -0.1237(4) 0.3071(2)
O4 O 0.6557(5) 0.0573(5) 0.4172(2)
O5 O 0.3609(5) 0.3287(4) 0.3878(2)
O6 O 0.4187(5) 0.5947(4) 0.3570(2)
O7 O 0.3259(5) -0.0679(5) 0.3964(2)
C1 C 0.2013(6) -0.1020(6) 0.2070(3)
C2 C 0.0666(7) -0.2159(9) 0.1806(5)
C3 C 0.7142(6) -0.0656(6) 0.3810(3)
C4 C 0.8632(8) -0.1477(7) 0.4209(4)
C5 C 0.3520(6) 0.4842(6) 0.4007(3)
C6 C 0.2578(8) 0.5429(7) 0.4768(4)
H1 H 0.074 -0.325 0.206
H2 H 0.066 -0.225 0.116
H3 H -0.028 -0.162 0.195
H4 H 0.885 -0.122 0.481
H5 H 0.951 -0.110 0.387
H6 H 0.854 -0.267 0.413
H7 H 0.319 0.547 0.533
H8 H 0.172 0.465 0.480
H9 H 0.218 0.650 0.461
H10 H 0.346(9) -0.049(10) 0.450(5)
H11 H 0.342(10) -0.143(9) 0.384(5)
O1A O 0.6573(4) 0.3396(4) 0.2839(2)
O3A O 0.3529(4) 0.3763(4) 0.1929(2)
Pr1A Pr 0.54890(3) -0.37597(3) 0.21492(1)
O6A O 0.5813(5) 0.0947(4) 0.1430(2)
Pr1A_2 Pr 0.54890(3) 0.62403(3) 0.21492(1)
loop_
_geom_bond_atom_site_label_1
_geom_bond_atom_site_label_2
_geom_bond_site_symmetry_1
_geom_bond_site_symmetry_2
Pr1 O1 1_555 1_555
O1 C1 1_555 1_555
O2 Pr1 1_555 1_555
O3 Pr1 1_555 1_555
O4 Pr1 1_555 1_555
O5 Pr1 1_555 1_555
O6 C5 1_555 1_555
O7 Pr1 1_555 1_555
C1 O2 1_555 1_555
C2 C1 1_555 1_555
C3 O3 1_555 1_555
C4 C3 1_555 1_555
C5 O5 1_555 1_555
C6 C5 1_555 1_555
H1 C2 1_555 1_555
H2 C2 1_555 1_555
H3 C2 1_555 1_555
H4 C4 1_555 1_555
H5 C4 1_555 1_555
H6 C4 1_555 1_555
H7 C6 1_555 1_555
H8 C6 1_555 1_555
H9 C6 1_555 1_555
H10 O7 1_555 1_555
H11 O7 1_555 1_555
O1A Pr1 1_555 1_555
O3A Pr1 1_555 1_555
Pr1A O1 1_555 1_555
O6A Pr1 1_555 1_555
Pr1A_2 O6 1_555 1_555
O3 Pr1A 1_555 1_555
O4 C3 1_555 1_555
O1A Pr1A_2 1_555 1_555
O3A Pr1A_2 1_555 1_555

#END
