
#######################################################################
#
#                 Cambridge Crystallographic Data Centre
#                                CCDC 
#
#######################################################################
#
# If this CIF has been generated from an entry in the Cambridge 
# Structural Database, then it will include bibliographic, chemical, 
# crystal, experimental, refinement or atomic coordinate data resulting 
# from the CCDC's data processing and validation procedures.
#
#######################################################################

data_DOPJAV
_symmetry_cell_setting           orthorhombic
_symmetry_space_group_name_H-M   'P c n n'
_symmetry_Int_Tables_number      52
_space_group_name_Hall           '-P 2ab 2c'
loop_
_symmetry_equiv_pos_site_id
_symmetry_equiv_pos_as_xyz
1 x,y,z
2 1/2-x,1/2-y,z
3 x,-y,1/2-z
4 1/2-x,1/2+y,1/2-z
5 -x,-y,-z
6 1/2+x,1/2+y,-z
7 -x,y,1/2+z
8 1/2+x,1/2-y,1/2+z
_cell_length_a                   17.530(3)
_cell_length_b                   20.037(3)
_cell_length_c                   21.050(3)
_cell_angle_alpha                90
_cell_angle_beta                 90
_cell_angle_gamma                90
_cell_volume                     7393.78
loop_
_atom_site_label
_atom_site_type_symbol
_atom_site_fract_x
_atom_site_fract_y
_atom_site_fract_z
Cu1 Cu 0.13370(3) 0.58833(3) 0.04910(2)
Cu2 Cu -0.02299(3) 0.66596(3) 0.06968(2)
O1 O 0.11256(19) 0.43425(18) -0.10870(16)
O2 O 0.30639(19) 0.82026(17) -0.02280(16)
O3 O 0.4334(3) 0.6984(4) -0.1450(2)
O4 O 0.07029(18) 0.56458(15) -0.02492(14)
O5 O -0.0327(2) 0.70540(17) 0.15702(16)
O6 O -0.0345(2) 0.62929(18) -0.01511(15)
O7 O 0.3711(4) 0.6918(3) -0.3748(2)
O8 O 0.3986(2) 0.81603(16) 0.04809(14)
O9 O 0.0580(2) 0.61316(19) -0.24621(15)
O10 O -0.01250(18) 0.41866(15) -0.10694(15)
N1 N 0.2851(2) 0.6144(2) -0.40297(18)
O11 O 0.1773(2) 0.49957(18) -0.55253(16)
O12 O 0.4013(2) 0.5633(2) -0.53592(18)
O13 O 0.4324(2) 0.5666(2) 0.07078(18)
O14 O 0.4122(2) 0.5415(2) -0.43176(16)
O15 O 0.4464(2) 0.59377(18) -0.03114(18)
C1 C 0.3102(3) 0.6695(3) -0.1827(2)
O16 O 0.1913(2) 0.6113(2) 0.12780(17)
C2 C -0.0217(3) 0.5673(2) -0.1085(2)
O17 O 0.2411(3) 0.4840(2) -0.4627(2)
N2 N 0.1033(2) 0.5570(2) -0.15998(18)
C3 C 0.2375(3) 0.6450(3) -0.1694(2)
C4 C 0.2131(3) 0.6326(3) -0.2819(2)
C5 C 0.3594(3) 0.7898(2) 0.0026(2)
N3 N 0.3384(2) 0.6976(2) -0.07409(17)
C6 C 0.3160(3) 0.6549(3) -0.3614(2)
C7 C 0.3659(3) 0.6909(3) -0.1318(2)
C8 C 0.2211(3) 0.5191(3) -0.5079(2)
C9 C 0.0471(3) 0.4544(2) -0.11774(18)
C10 C 0.1893(3) 0.6274(3) -0.2191(2)
C11 C 0.2874(3) 0.6528(3) -0.2948(2)
C12 C 0.3350(3) 0.6732(3) -0.2454(2)
C13 C 0.3801(3) 0.5675(3) -0.4785(2)
C14 C 0.1108(3) 0.5995(2) -0.2088(2)
C15 C 0.0318(3) 0.5235(2) -0.1470(2)
C16 C 0.3089(3) 0.6123(3) -0.4693(2)
C17 C 0.4235(3) 0.6040(3) 0.0236(2)
C18 C 0.3838(3) 0.7192(2) -0.0197(2)
C19 C 0.0079(3) 0.5885(2) -0.0439(2)
C20 C 0.2440(3) 0.5925(3) -0.5129(2)
C21 C 0.3784(3) 0.6694(2) 0.0352(2)
Cu3 Cu 0.49424(4) 0.51478(3) -0.56087(3)
O18 O 0.4907(3) 0.5567(3) -0.6565(2)
O19 O -0.0585(3) 0.7514(2) 0.03449(19)
H1 H -0.0691 0.5433 -0.1025
H2 H -0.0329 0.6070 -0.1330
H3 H 0.2214 0.6404 -0.1276
H4 H 0.1785 0.6237 -0.3153
H5 H 0.2909 0.6888 -0.0680
H6 H 0.3834 0.6892 -0.2545
H7 H 0.3234 0.6578 -0.4812
H8 H 0.2585 0.6018 -0.5560
H9 H 0.1999 0.6198 -0.5026
H10 H 0.3254 0.6582 0.0422
H11 H 0.3978 0.6903 0.0734
H12 H 0.4389 0.7230 -0.0317
H13 H 0.1463 0.5445 -0.1328
H14 H 0.2588 0.5854 -0.3904
H15 H 0.0122 0.5129 -0.1862
Cu1A Cu 0.36630(3) 0.91167(3) 0.04910(2)
Cu1B Cu 0.13370(3) 0.41167(3) -0.54910(2)
Cu1D Cu -0.13370(3) 0.41167(3) -0.04910(2)
Cu2A Cu 0.52299(3) 0.83404(3) 0.06968(2)
Cu2D Cu 0.02299(3) 0.33404(3) -0.06968(2)
O1D O -0.11256(19) 0.56575(18) 0.10870(16)
O2A O 0.19361(19) 0.67974(17) -0.02280(16)
O8A O 0.1014(2) 0.68397(16) 0.04809(14)
O10D O 0.01250(18) 0.58134(15) 0.10694(15)
O11B O 0.1773(2) 0.50043(18) 0.05253(16)
O13B O 0.4324(2) 0.4334(2) -0.57078(18)
O14D O 0.5878(2) 0.4585(2) -0.56824(16)
O15F O 0.5536(2) 0.59377(18) -0.53114(18)
Cu3B Cu 0.49424(4) 0.48522(3) 0.06087(3)
Cu3D Cu 0.50576(4) 0.48522(3) -0.43913(3)
Cu3F Cu 0.50576(4) 0.51478(3) -0.06087(3)
O20 O -0.0754(4) 0.7833(4) -0.0869(3)
O21 O 0.3191(4) 0.5506(5) 0.1622(3)
O22 O 0.2500 0.7500 0.1471(4)
O23 O 0.2079(4) 0.4226(5) 0.1695(3)
O24 O 0.1788(6) 0.2827(7) 0.1682(6)
O25 O 0.1027(4) 0.5981(7) 0.2408(3)
O26 O 0.1184(8) 0.7653(8) 0.2196(8)
O27 O 0.3491(8) 0.4166(7) 0.2118(7)
loop_
_geom_bond_atom_site_label_1
_geom_bond_atom_site_label_2
_geom_bond_site_symmetry_1
_geom_bond_site_symmetry_2
Cu1 O4 1_555 1_555
Cu2 O5 1_555 1_555
O1 C9 1_555 1_555
O2 C5 1_555 1_555
O3 C7 1_555 1_555
O4 C19 1_555 1_555
O6 Cu2 1_555 1_555
O7 C6 1_555 1_555
O8 C5 1_555 1_555
O9 C14 1_555 1_555
O10 C9 1_555 1_555
N1 C6 1_555 1_555
O11 C8 1_555 1_555
O12 C13 1_555 1_555
O13 C17 1_555 1_555
O14 C13 1_555 1_555
O15 C17 1_555 1_555
C1 C3 1_555 1_555
O16 Cu1 1_555 1_555
C2 C15 1_555 1_555
O17 C8 1_555 1_555
N2 C14 1_555 1_555
C3 C10 1_555 1_555
C4 C10 1_555 1_555
C5 C18 1_555 1_555
N3 C7 1_555 1_555
C6 C11 1_555 1_555
C7 C1 1_555 1_555
C8 C20 1_555 1_555
C9 C15 1_555 1_555
C10 C14 1_555 1_555
C11 C4 1_555 1_555
C12 C1 1_555 1_555
C13 C16 1_555 1_555
C15 N2 1_555 1_555
C16 N1 1_555 1_555
C17 C21 1_555 1_555
C18 N3 1_555 1_555
C19 O6 1_555 1_555
C20 C16 1_555 1_555
C21 C18 1_555 1_555
Cu3 O12 1_555 1_555
O18 Cu3 1_555 1_555
O19 Cu2 1_555 1_555
H1 C2 1_555 1_555
H2 C2 1_555 1_555
H3 C3 1_555 1_555
H4 C4 1_555 1_555
H5 N3 1_555 1_555
H6 C12 1_555 1_555
H7 C16 1_555 1_555
H8 C20 1_555 1_555
H9 C20 1_555 1_555
H10 C21 1_555 1_555
H11 C21 1_555 1_555
H12 C18 1_555 1_555
H13 N2 1_555 1_555
H14 N1 1_555 1_555
H15 C15 1_555 1_555
Cu1A O2 1_555 1_555
Cu1B O11 1_555 1_555
Cu1D O10 1_555 1_555
Cu2A O8 1_555 1_555
Cu2D O1 1_555 1_555
O1D Cu2 1_555 1_555
O2A Cu1 1_555 1_555
O8A Cu1 1_555 1_555
O10D Cu1 1_555 1_555
O11B Cu1 1_555 1_555
O13B Cu3 1_555 1_555
O14D Cu3 1_555 1_555
O15F Cu3 1_555 1_555
Cu3B O13 1_555 1_555
Cu3D O14 1_555 1_555
Cu3F O15 1_555 1_555
Cu2 O8A 1_555 1_555
Cu2 O10D 1_555 1_555
O8 Cu1A 1_555 1_555
O10 Cu2D 1_555 1_555
C2 C19 1_555 1_555
C11 C12 1_555 1_555

#END
