
#######################################################################
#
#                 Cambridge Crystallographic Data Centre
#                                CCDC 
#
#######################################################################
#
# If this CIF has been generated from an entry in the Cambridge 
# Structural Database, then it will include bibliographic, chemical, 
# crystal, experimental, refinement or atomic coordinate data resulting 
# from the CCDC's data processing and validation procedures.
#
#######################################################################

data_DOPJOJ
_symmetry_cell_setting           monoclinic
_symmetry_space_group_name_H-M   'P 21/n'
_symmetry_Int_Tables_number      14
_space_group_name_Hall           '-P 2yn'
loop_
_symmetry_equiv_pos_site_id
_symmetry_equiv_pos_as_xyz
1 x,y,z
2 1/2-x,1/2+y,1/2-z
3 -x,-y,-z
4 1/2+x,1/2-y,1/2+z
_cell_length_a                   8.6889(1)
_cell_length_b                   12.4675(1)
_cell_length_c                   19.3325(1)
_cell_angle_alpha                90
_cell_angle_beta                 95.3245(2)
_cell_angle_gamma                90
_cell_volume                     2085.23
loop_
_atom_site_label
_atom_site_type_symbol
_atom_site_fract_x
_atom_site_fract_y
_atom_site_fract_z
Zn1 Zn -0.57626(3) 0.56041(2) 0.162039(15)
I1 I -0.42491(3) 0.736813(17) 0.163751(14)
I2 I -0.84537(2) 0.53953(2) 0.102473(13)
C1 C 0.1485(3) 0.16937(19) 0.06154(13)
C2 C 0.2955(3) 0.1464(2) 0.10377(14)
C3 C 0.3948(3) 0.0676(3) 0.08343(18)
H1 H 0.3726 0.0310 0.0418
C4 C 0.5267(4) 0.0445(3) 0.1258(3)
H2 H 0.5912 -0.0091 0.1116
C5 C 0.4732(5) 0.1695(3) 0.2040(2)
H3 H 0.5010 0.2067 0.2449
C6 C 0.3347(4) 0.1972(3) 0.16600(17)
H4 H 0.2702 0.2490 0.1824
C7 C -0.0920(3) 0.24045(18) 0.04972(13)
C8 C -0.2121(3) 0.30902(19) 0.07738(11)
C9 C -0.1768(3) 0.3663(2) 0.13863(14)
H5 H -0.0816 0.3582 0.1643
C10 C -0.2875(3) 0.4356(2) 0.16024(14)
H6 H -0.2632 0.4758 0.2003
C11 C -0.4630(3) 0.3895(2) 0.06833(13)
H7 H -0.5612 0.3961 0.0451
C12 C -0.3573(3) 0.3202(2) 0.04236(13)
H8 H -0.3839 0.2817 0.0018
C13 C -0.0097(3) 0.13901(19) -0.03557(12)
C14 C -0.0351(3) 0.0893(2) -0.10568(12)
C15 C -0.1613(3) 0.1147(2) -0.15183(13)
H9 H -0.2348 0.1637 -0.1397
C16 C -0.1763(3) 0.0656(2) -0.21661(13)
H10 H -0.2617 0.0821 -0.2474
C17 C 0.0484(3) -0.0301(2) -0.19133(13)
H11 H 0.1196 -0.0802 -0.2043
C18 C 0.0713(3) 0.0155(2) -0.12590(13)
H12 H 0.1570 -0.0032 -0.0959
N1 N -0.1268(3) 0.19401(18) -0.01216(10)
N2 N 0.1279(3) 0.12258(18) -0.00089(11)
N3 N 0.0432(3) 0.23138(17) 0.08879(11)
N4 N 0.5681(4) 0.0933(3) 0.1853(2)
N5 N -0.4268(3) 0.44724(17) 0.12635(11)
N6 N -0.0718(2) -0.00486(18) -0.23648(10)
Zn1C Zn -0.07626(3) -0.06041(2) -0.337961(15)
N6C N -0.5718(2) 0.50486(18) 0.26352(10)
loop_
_geom_bond_atom_site_label_1
_geom_bond_atom_site_label_2
_geom_bond_site_symmetry_1
_geom_bond_site_symmetry_2
Zn1 I1 1_555 1_555
I2 Zn1 1_555 1_555
C1 C2 1_555 1_555
C2 C3 1_555 1_555
C3 H1 1_555 1_555
C4 C3 1_555 1_555
H2 C4 1_555 1_555
C5 H3 1_555 1_555
C6 C2 1_555 1_555
H4 C6 1_555 1_555
C7 C8 1_555 1_555
C8 C9 1_555 1_555
C9 H5 1_555 1_555
C10 C9 1_555 1_555
H6 C10 1_555 1_555
C11 H7 1_555 1_555
C12 C8 1_555 1_555
H8 C12 1_555 1_555
C13 C14 1_555 1_555
C14 C15 1_555 1_555
C15 H9 1_555 1_555
C16 C15 1_555 1_555
H10 C16 1_555 1_555
C17 H11 1_555 1_555
C18 C14 1_555 1_555
H12 C18 1_555 1_555
N1 C7 1_555 1_555
N2 C1 1_555 1_555
N3 C1 1_555 1_555
N4 C4 1_555 1_555
N5 Zn1 1_555 1_555
N6 C16 1_555 1_555
Zn1C N6 1_555 1_555
N6C Zn1 1_555 1_555
C5 C6 1_555 1_555
C5 N4 1_555 1_555
C7 N3 1_555 1_555
C10 N5 1_555 1_555
C11 C12 1_555 1_555
C11 N5 1_555 1_555
C13 N1 1_555 1_555
C13 N2 1_555 1_555
C17 C18 1_555 1_555
C17 N6 1_555 1_555

#END
