
#######################################################################
#
#                 Cambridge Crystallographic Data Centre
#                                CCDC 
#
#######################################################################
#
# If this CIF has been generated from an entry in the Cambridge 
# Structural Database, then it will include bibliographic, chemical, 
# crystal, experimental, refinement or atomic coordinate data resulting 
# from the CCDC's data processing and validation procedures.
#
#######################################################################

data_DOPKIE
_symmetry_cell_setting           triclinic
_symmetry_space_group_name_H-M   'P -1'
_symmetry_Int_Tables_number      2
_space_group_name_Hall           '-P 1'
loop_
_symmetry_equiv_pos_site_id
_symmetry_equiv_pos_as_xyz
1 x,y,z
2 -x,-y,-z
_cell_length_a                   7.1354(14)
_cell_length_b                   9.3422(19)
_cell_length_c                   10.662(2)
_cell_angle_alpha                64.51(3)
_cell_angle_beta                 72.84(3)
_cell_angle_gamma                79.91(3)
_cell_volume                     612.032
loop_
_atom_site_label
_atom_site_type_symbol
_atom_site_fract_x
_atom_site_fract_y
_atom_site_fract_z
Zn1 Zn 0.5000 0.0000 0.0000
O1 O 0.5326(2) 0.59269(18) -0.81922(18)
O2 O 0.7168(2) 0.15903(18) -0.07053(18)
H1 H 0.6954 0.2575 -0.0860
N1 N 0.7842(4) 0.3290(3) -0.6012(3)
N2 N 0.8519(4) 0.4062(3) -0.7417(3)
N3 N 0.8953(4) 0.3160(3) -0.8135(3)
N4 N 0.8561(4) 0.1707(3) -0.7167(3)
N5 N 0.6023(4) -0.0477(3) -0.1963(3)
C1 C 0.6026(5) -0.1941(4) -0.1917(3)
H2 H 0.5591 -0.2765 -0.1032
C2 C 0.6641(5) -0.2276(4) -0.3116(3)
H3 H 0.6632 -0.3306 -0.3036
C3 C 0.7272(5) -0.1066(4) -0.4437(3)
H4 H 0.7699 -0.1269 -0.5261
C4 C 0.7259(4) 0.0456(3) -0.4523(3)
C5 C 0.6622(4) 0.0685(3) -0.3251(3)
H5 H 0.6614 0.1705 -0.3303
C6 C 0.7887(4) 0.1813(3) -0.5886(3)
C7 C 0.8672(5) 0.5768(3) -0.8117(3)
H6 H 0.9704 0.6023 -0.8997
H7 H 0.9043 0.6126 -0.7498
C8 C 0.6744(3) 0.6669(2) -0.8472(2)
O3 O 0.6894(3) 0.8161(2) -0.9024(2)
H8 H 0.834(3) 0.150(2) -0.116(4)
O1A O 0.4674(2) -0.59269(18) 0.81922(18)
O2A O 0.2832(2) -0.15903(18) 0.07053(18)
H1A H 0.3046 -0.2575 0.0860
N1A N 0.2158(4) -0.3290(3) 0.6012(3)
N2A N 0.1481(4) -0.4062(3) 0.7417(3)
N3A N 0.1047(4) -0.3160(3) 0.8135(3)
N4A N 0.1439(4) -0.1707(3) 0.7167(3)
N5A N 0.3977(4) 0.0477(3) 0.1963(3)
C1A C 0.3974(5) 0.1941(4) 0.1917(3)
H2A H 0.4409 0.2765 0.1032
C2A C 0.3359(5) 0.2276(4) 0.3116(3)
H3A H 0.3368 0.3306 0.3036
C3A C 0.2728(5) 0.1066(4) 0.4437(3)
H4A H 0.2301 0.1269 0.5261
C4A C 0.2741(4) -0.0456(3) 0.4523(3)
C5A C 0.3378(4) -0.0685(3) 0.3251(3)
H5A H 0.3386 -0.1705 0.3303
C6A C 0.2113(4) -0.1813(3) 0.5886(3)
C7A C 0.1328(5) -0.5768(3) 0.8117(3)
H6A H 0.0296 -0.6023 0.8997
H7A H 0.0957 -0.6126 0.7498
C8A C 0.3256(3) -0.6669(2) 0.8472(2)
O3A O 0.3106(3) -0.8161(2) 0.9024(2)
H8A H 0.166(3) -0.150(2) 0.116(4)
Zn1_2 Zn 0.5000 -1.0000 1.0000
Zn1_3 Zn 0.5000 1.0000 -1.0000
O3_2 O 0.6894(3) -0.1839(2) 0.0976(2)
O3A_2 O 0.3106(3) 0.1839(2) -0.0976(2)
O4 O 0.0730(3) 0.0977(2) 0.7889(2)
H9 H 0.154(5) 0.105(4) 0.829(4)
H10 H 0.099(5) 0.010(2) 0.781(4)
loop_
_geom_bond_atom_site_label_1
_geom_bond_atom_site_label_2
_geom_bond_site_symmetry_1
_geom_bond_site_symmetry_2
Zn1 O2 1_555 1_555
O1 C8 1_555 1_555
O2 H1 1_555 1_555
N1 N2 1_555 1_555
N2 N3 1_555 1_555
N3 N4 1_555 1_555
N4 C6 1_555 1_555
N5 Zn1 1_555 1_555
C1 N5 1_555 1_555
H2 C1 1_555 1_555
C2 C1 1_555 1_555
H3 C2 1_555 1_555
C3 C2 1_555 1_555
H4 C3 1_555 1_555
C4 C3 1_555 1_555
C5 N5 1_555 1_555
H5 C5 1_555 1_555
C6 N1 1_555 1_555
C7 N2 1_555 1_555
H6 C7 1_555 1_555
H7 C7 1_555 1_555
C8 C7 1_555 1_555
O3 C8 1_555 1_555
H8 O2 1_555 1_555
O4 H9 1_555 1_555
H10 O4 1_555 1_555
O1A C8A 1_555 1_555
O2A Zn1 1_555 1_555
H1A O2A 1_555 1_555
N1A N2A 1_555 1_555
N2A N3A 1_555 1_555
N3A N4A 1_555 1_555
N4A C6A 1_555 1_555
N5A Zn1 1_555 1_555
C1A N5A 1_555 1_555
H2A C1A 1_555 1_555
C2A C1A 1_555 1_555
H3A C2A 1_555 1_555
C3A C2A 1_555 1_555
H4A C3A 1_555 1_555
C4A C3A 1_555 1_555
C5A N5A 1_555 1_555
H5A C5A 1_555 1_555
C6A N1A 1_555 1_555
C7A N2A 1_555 1_555
H6A C7A 1_555 1_555
H7A C7A 1_555 1_555
C8A C7A 1_555 1_555
O3A C8A 1_555 1_555
H8A O2A 1_555 1_555
Zn1_2 O3A 1_555 1_555
Zn1_3 O3 1_555 1_555
O3_2 Zn1 1_555 1_555
O3A_2 Zn1 1_555 1_555
C4 C5 1_555 1_555
C4 C6 1_555 1_555
C4A C5A 1_555 1_555
C4A C6A 1_555 1_555

#END
