
#######################################################################
#
#                 Cambridge Crystallographic Data Centre
#                                CCDC 
#
#######################################################################
#
# If this CIF has been generated from an entry in the Cambridge 
# Structural Database, then it will include bibliographic, chemical, 
# crystal, experimental, refinement or atomic coordinate data resulting 
# from the CCDC's data processing and validation procedures.
#
#######################################################################

data_DOPKEA
_symmetry_cell_setting           monoclinic
_symmetry_space_group_name_H-M   'P 21/c'
_symmetry_Int_Tables_number      14
_space_group_name_Hall           '-P 2ybc'
loop_
_symmetry_equiv_pos_site_id
_symmetry_equiv_pos_as_xyz
1 x,y,z
2 -x,1/2+y,1/2-z
3 -x,-y,-z
4 x,1/2-y,1/2+z
_cell_length_a                   8.0445(16)
_cell_length_b                   21.141(4)
_cell_length_c                   13.565(3)
_cell_angle_alpha                90
_cell_angle_beta                 92.60(3)
_cell_angle_gamma                90
_cell_volume                     2304.61
loop_
_atom_site_label
_atom_site_type_symbol
_atom_site_fract_x
_atom_site_fract_y
_atom_site_fract_z
Sr1 Sr -0.24991(6) 0.53708(2) -0.53481(4)
O1 O -0.5268(5) 0.54851(19) -0.4268(3)
O2 O -0.3039(5) 0.5958(2) -0.3608(3)
O3 O -0.0889(6) 0.4458(2) -0.4665(4)
O4 O -0.1838(6) 0.5130(2) -0.7145(3)
H1 H -0.0894 0.4950 -0.7154
H2 H -0.2078 0.4888 -0.7406
O5 O -0.4057(5) 0.62017(19) -0.6372(3)
H3 H -0.4588 0.6490 -0.6084
H4 H -0.3440 0.6527 -0.6313
N1 N -0.4257(7) 0.6324(2) -0.1410(4)
N2 N -0.4885(6) 0.6593(3) -0.2230(4)
N3 N -0.4656(7) 0.7212(3) -0.2266(4)
N4 N -0.3843(7) 0.7362(2) -0.1444(4)
N5 N -0.1240(9) 0.7263(3) 0.1435(5)
N6 N -0.2565(6) 0.2521(2) -0.5065(4)
N7 N -0.2082(6) 0.2846(2) -0.4251(4)
N8 N -0.1443(7) 0.2488(2) -0.3533(4)
N9 N -0.1471(7) 0.1901(3) -0.3876(4)
N10 N -0.2141(10) 0.0295(3) -0.5883(6)
C1 C -0.4573(7) 0.5864(3) -0.3661(4)
C2 C -0.5742(8) 0.6230(3) -0.3032(5)
H5 H -0.6387 0.6520 -0.3451
H6 H -0.6513 0.5937 -0.2746
C3 C -0.3597(8) 0.6817(3) -0.0921(5)
C4 C -0.2758(7) 0.6782(3) 0.0071(5)
C5 C -0.2736(8) 0.6224(3) 0.0594(5)
H7 H -0.3253 0.5870 0.0311
C6 C -0.2007(8) 0.6173(3) 0.1484(4)
H8 H -0.2011 0.5788 0.1816
C7 C -0.1282(9) 0.6664(4) 0.1893(5)
H9 H -0.0768 0.6617 0.2516
C8 C -0.1998(9) 0.7316(3) 0.0495(5)
H10 H -0.1998 0.7698 0.0157
C9 C -0.0685(7) 0.3875(3) -0.4517(4)
C10 C -0.2207(7) 0.3528(3) -0.4180(5)
H11 H -0.2385 0.3642 -0.3500
H12 H -0.3172 0.3668 -0.4577
C11 C -0.2163(7) 0.1932(3) -0.4811(5)
C12 C -0.2469(7) 0.1389(3) -0.5451(4)
C13 C -0.3368(8) 0.1450(3) -0.6344(5)
H13 H -0.3786 0.1848 -0.6511
C14 C -0.3674(9) 0.0984(3) -0.6973(4)
H14 H -0.4284 0.1053 -0.7562
C15 C -0.3101(11) 0.0427(3) -0.6748(6)
H15 H -0.3340 0.0096 -0.7184
C16 C -0.1876(10) 0.0791(3) -0.5211(6)
H16 H -0.1308 0.0720 -0.4608
O6 O 0.0658(5) 0.3594(2) -0.4551(4)
Sr1B Sr -0.75009(6) 0.46292(2) -0.46519(4)
Sr1B_2 Sr 0.24991(6) 0.46292(2) -0.46519(4)
O1B O -0.4732(5) 0.45149(19) -0.5732(3)
O3B O 0.0889(6) 0.5542(2) -0.5335(4)
O6B O -0.0658(5) 0.6406(2) -0.5449(4)
O7 O 0.0154(6) 0.4108(2) -0.7700(4)
H17 H 0.0156 0.3953 -0.7122
H18 H 0.1152 0.4240 -0.7702
loop_
_geom_bond_atom_site_label_1
_geom_bond_atom_site_label_2
_geom_bond_site_symmetry_1
_geom_bond_site_symmetry_2
Sr1 O1 1_555 1_555
O1 C1 1_555 1_555
O2 Sr1 1_555 1_555
O3 Sr1 1_555 1_555
O4 Sr1 1_555 1_555
H1 O4 1_555 1_555
H2 O4 1_555 1_555
O5 Sr1 1_555 1_555
H3 O5 1_555 1_555
H4 O5 1_555 1_555
N1 N2 1_555 1_555
N2 N3 1_555 1_555
N3 N4 1_555 1_555
N4 C3 1_555 1_555
N5 C7 1_555 1_555
N6 N7 1_555 1_555
N7 N8 1_555 1_555
N8 N9 1_555 1_555
N9 C11 1_555 1_555
N10 C15 1_555 1_555
C1 O2 1_555 1_555
C2 N2 1_555 1_555
H5 C2 1_555 1_555
H6 C2 1_555 1_555
C3 N1 1_555 1_555
C4 C3 1_555 1_555
C5 C4 1_555 1_555
H7 C5 1_555 1_555
C6 C5 1_555 1_555
H8 C6 1_555 1_555
C7 C6 1_555 1_555
H9 C7 1_555 1_555
C8 N5 1_555 1_555
H10 C8 1_555 1_555
C9 O3 1_555 1_555
C10 N7 1_555 1_555
H11 C10 1_555 1_555
H12 C10 1_555 1_555
C11 N6 1_555 1_555
C12 C11 1_555 1_555
C13 C12 1_555 1_555
H13 C13 1_555 1_555
C14 C13 1_555 1_555
H14 C14 1_555 1_555
C15 C14 1_555 1_555
H15 C15 1_555 1_555
C16 N10 1_555 1_555
H16 C16 1_555 1_555
O6 C9 1_555 1_555
O7 H17 1_555 1_555
H18 O7 1_555 1_555
Sr1B O1 1_555 1_555
Sr1B_2 O3 1_555 1_555
O1B Sr1 1_555 1_555
O3B Sr1 1_555 1_555
O6B Sr1 1_555 1_555
C1 C2 1_555 1_555
C4 C8 1_555 1_555
C9 C10 1_555 1_555
C12 C16 1_555 1_555
O6 Sr1B_2 1_555 1_555
Sr1B O1B 1_555 1_555
Sr1B_2 O3B 1_555 1_555

#END
