
#######################################################################
#
#                 Cambridge Crystallographic Data Centre
#                                CCDC 
#
#######################################################################
#
# If this CIF has been generated from an entry in the Cambridge 
# Structural Database, then it will include bibliographic, chemical, 
# crystal, experimental, refinement or atomic coordinate data resulting 
# from the CCDC's data processing and validation procedures.
#
#######################################################################

data_DOPKOK
_symmetry_cell_setting           monoclinic
_symmetry_space_group_name_H-M   'P 21'
_symmetry_Int_Tables_number      4
_space_group_name_Hall           'P 2yb'
loop_
_symmetry_equiv_pos_site_id
_symmetry_equiv_pos_as_xyz
1 x,y,z
2 -x,1/2+y,-z
_cell_length_a                   7.8099(16)
_cell_length_b                   14.717(3)
_cell_length_c                   9.3942(19)
_cell_angle_alpha                90
_cell_angle_beta                 108.53(3)
_cell_angle_gamma                90
_cell_volume                     1023.78
loop_
_atom_site_label
_atom_site_type_symbol
_atom_site_fract_x
_atom_site_fract_y
_atom_site_fract_z
N1 N 0.7548(11) 0.7021(6) 1.4575(9)
C1 C 0.8389(15) 0.6346(8) 1.5502(12)
H1 H 0.9253 0.6489 1.6412
C2 C 0.7989(14) 0.5437(8) 1.5122(12)
H2 H 0.8596 0.4978 1.5767
C3 C 0.6689(15) 0.5223(7) 1.3787(13)
H3 H 0.6413 0.4619 1.3519
C4 C 0.6301(13) 0.6801(7) 1.3293(11)
H4 H 0.5725 0.7268 1.2652
C5 C 0.5806(14) 0.5911(7) 1.2853(11)
C6 C 0.4347(14) 0.5676(7) 1.1435(12)
Cu1 Cu 0.18292(15) 0.33181(8) 0.46675(12)
O1 O 0.5342(9) 0.3149(5) 0.3970(8)
O2 O 0.2349(9) 0.2951(5) 0.2808(7)
O3 O 0.3916(10) 0.3947(6) 0.8011(9)
O4 O 0.1155(10) 0.3669(5) 0.6432(7)
O5 O -0.1134(10) 0.3014(5) 0.3411(8)
H5 H -0.1778 0.3311 0.3828
N2 N -0.1759(12) -0.0358(5) -0.4016(10)
N3 N 0.3390(12) 0.6320(6) 1.0428(10)
N4 N 0.2184(14) 0.5877(6) 0.9371(12)
N5 N 0.2416(14) 0.4996(6) 0.9776(10)
N6 N 0.3754(13) 0.4845(6) 1.1041(11)
N7 N 0.1863(12) 0.1907(7) -0.0563(9)
N8 N 0.2007(14) 0.0456(6) 0.0241(12)
N9 N 0.3283(13) 0.0929(6) 0.1277(11)
C7 C -0.0572(14) -0.0090(7) -0.2710(12)
H6 H 0.0087 -0.0535 -0.2061
C8 C -0.0270(13) 0.0807(7) -0.2275(12)
C9 C -0.1281(14) 0.1482(7) -0.3251(12)
H7 H -0.1097 0.2092 -0.2993
C10 C -0.2546(18) 0.1230(8) -0.4590(14)
H8 H -0.3260 0.1660 -0.5237
C11 C -0.2712(16) 0.0297(7) -0.4939(12)
H9 H -0.3523 0.0122 -0.5858
C12 C 0.1201(15) 0.1063(7) -0.0852(12)
C13 C 0.4429(13) 0.2463(7) 0.1550(12)
H10 H 0.4469 0.2938 0.0844
H11 H 0.5618 0.2188 0.1910
C14 C 0.3992(16) 0.2906(6) 0.2913(12)
C15 C 0.1349(16) 0.4265(8) 0.8799(12)
H12 H 0.0154 0.4494 0.8258
H13 H 0.1211 0.3761 0.9419
C16 C 0.2268(15) 0.3925(7) 0.7664(11)
N10 N 0.3145(8) 0.1784(5) 0.0774(7)
H14 H -0.133(16) 0.326(7) 0.256(7)
N1A N 0.2452(11) 0.2021(6) 0.5425(9)
Cu1A Cu -0.18292(15) -0.16819(8) -0.46675(12)
Cu1A_2 Cu 0.81708(15) 0.83181(8) 1.53325(12)
N2A N 0.1759(12) 0.4642(5) 0.4016(10)
O6 O 0.7811(8) 0.3298(5) 0.0354(7)
H15 H 0.7599 0.2776 -0.0048
H16 H 0.7910 0.3668 -0.0310
O7 O 0.6917(14) 0.3645(8) 0.7036(12)
H17 H 0.6545 0.3637 0.6082
H18 H 0.6089 0.3880 0.7324
loop_
_geom_bond_atom_site_label_1
_geom_bond_atom_site_label_2
_geom_bond_site_symmetry_1
_geom_bond_site_symmetry_2
N1 C1 1_555 1_555
C1 H1 1_555 1_555
C2 C1 1_555 1_555
H2 C2 1_555 1_555
C3 C2 1_555 1_555
H3 C3 1_555 1_555
C4 N1 1_555 1_555
H4 C4 1_555 1_555
C5 C3 1_555 1_555
C6 C5 1_555 1_555
Cu1 O2 1_555 1_555
O1 C14 1_555 1_555
O2 C14 1_555 1_555
O3 C16 1_555 1_555
O4 Cu1 1_555 1_555
O5 Cu1 1_555 1_555
H5 O5 1_555 1_555
N2 C7 1_555 1_555
N3 C6 1_555 1_555
N4 N3 1_555 1_555
N5 N4 1_555 1_555
N6 C6 1_555 1_555
N7 C12 1_555 1_555
N8 N9 1_555 1_555
N9 N10 1_555 1_555
C7 H6 1_555 1_555
C8 C7 1_555 1_555
C9 C8 1_555 1_555
H7 C9 1_555 1_555
C10 C9 1_555 1_555
H8 C10 1_555 1_555
C11 N2 1_555 1_555
H9 C11 1_555 1_555
C12 N8 1_555 1_555
C13 H10 1_555 1_555
H11 C13 1_555 1_555
C14 C13 1_555 1_555
C15 N5 1_555 1_555
H12 C15 1_555 1_555
H13 C15 1_555 1_555
C16 O4 1_555 1_555
N10 N7 1_555 1_555
H14 O5 1_555 1_555
O6 H15 1_555 1_555
H16 O6 1_555 1_555
O7 H17 1_555 1_555
H18 O7 1_555 1_555
N1A Cu1 1_555 1_555
Cu1A N2 1_555 1_555
Cu1A_2 N1 1_555 1_555
N2A Cu1 1_555 1_555
C4 C5 1_555 1_555
N5 N6 1_555 1_555
C8 C12 1_555 1_555
C10 C11 1_555 1_555
C13 N10 1_555 1_555
C15 C16 1_555 1_555

#END
