
#######################################################################
#
#                 Cambridge Crystallographic Data Centre
#                                CCDC 
#
#######################################################################
#
# If this CIF has been generated from an entry in the Cambridge 
# Structural Database, then it will include bibliographic, chemical, 
# crystal, experimental, refinement or atomic coordinate data resulting 
# from the CCDC's data processing and validation procedures.
#
#######################################################################

data_DOPKAW
_symmetry_cell_setting           orthorhombic
_symmetry_space_group_name_H-M   'P b c a'
_symmetry_Int_Tables_number      61
_space_group_name_Hall           '-P 2ac 2ab'
loop_
_symmetry_equiv_pos_site_id
_symmetry_equiv_pos_as_xyz
1 x,y,z
2 1/2-x,-y,1/2+z
3 1/2+x,1/2-y,-z
4 -x,1/2+y,1/2-z
5 -x,-y,-z
6 1/2+x,y,1/2-z
7 1/2-x,1/2+y,z
8 x,1/2-y,1/2+z
_cell_length_a                   17.8543(3)
_cell_length_b                   15.2865(2)
_cell_length_c                   19.0223(2)
_cell_angle_alpha                90
_cell_angle_beta                 90
_cell_angle_gamma                90
_cell_volume                     5191.75
loop_
_atom_site_label
_atom_site_type_symbol
_atom_site_fract_x
_atom_site_fract_y
_atom_site_fract_z
Zn1 Zn 0.22557(5) -0.13197(6) 0.50873(5)
I1 I 0.23922(4) -0.03825(5) 0.61929(3)
I2 I 0.23113(6) -0.29227(4) 0.52281(5)
Zn2 Zn 0.37592(7) -0.08077(6) 0.66085(6)
I3 I 0.35206(6) -0.16035(6) 0.77556(4)
I4 I 0.45806(5) -0.14192(6) 0.56438(5)
C1 C -0.1012(4) 0.0499(5) 0.2399(4)
C2 C -0.1376(5) 0.0027(5) 0.1805(4)
C3 C -0.1572(7) 0.0470(6) 0.1201(5)
H1 H -0.1489 0.1069 0.1165
C4 C -0.1887(7) 0.0028(6) 0.0663(5)
H2 H -0.1980 0.0331 0.0248
C5 C -0.1887(6) -0.1246(5) 0.1265(5)
H3 H -0.2001 -0.1839 0.1292
C6 C -0.1534(6) -0.0853(6) 0.1821(5)
H4 H -0.1401 -0.1184 0.2212
C7 C -0.0336(5) 0.0465(5) 0.3395(4)
C8 C 0.0174(5) -0.0003(5) 0.3887(4)
C9 C 0.0241(5) -0.0908(5) 0.3885(5)
H5 H -0.0079 -0.1253 0.3616
C10 C 0.0798(5) -0.1285(6) 0.4293(5)
H6 H 0.0850 -0.1890 0.4285
C11 C 0.1150(5) 0.0044(5) 0.4732(4)
H7 H 0.1448 0.0369 0.5036
C12 C 0.0617(5) 0.0467(5) 0.4341(4)
H8 H 0.0555 0.1069 0.4383
C13 C -0.0785(5) 0.1744(5) 0.2993(4)
C14 C -0.0853(5) 0.2697(5) 0.3054(4)
C15 C -0.0456(6) 0.3158(6) 0.3559(5)
H9 H -0.0129 0.2864 0.3857
C16 C -0.0545(6) 0.4042(6) 0.3620(5)
H10 H -0.0277 0.4335 0.3966
C17 C -0.1363(7) 0.4075(7) 0.2706(6)
H11 H -0.1667 0.4392 0.2402
C18 C -0.1313(7) 0.3178(6) 0.2614(5)
H12 H -0.1586 0.2902 0.2261
N1 N -0.0628(4) 0.0006(4) 0.2863(4)
N2 N -0.1088(4) 0.1359(4) 0.2423(3)
N3 N -0.0420(4) 0.1326(4) 0.3493(4)
N4 N -0.0999(5) 0.4506(4) 0.3205(4)
N5 N 0.1257(4) -0.0826(4) 0.4692(4)
N6 N -0.2072(4) -0.0807(4) 0.0689(3)
Zn1E Zn -0.27443(5) -0.13197(6) -0.00873(5)
Zn2B Zn -0.12408(7) 0.58077(6) 0.33915(6)
N4B N 0.4001(5) 0.0494(4) 0.6795(4)
N6E N 0.2928(4) -0.0807(4) 0.4311(3)
loop_
_geom_bond_atom_site_label_1
_geom_bond_atom_site_label_2
_geom_bond_site_symmetry_1
_geom_bond_site_symmetry_2
Zn1 I1 1_555 1_555
I1 Zn2 1_555 1_555
I2 Zn1 1_555 1_555
Zn2 I3 1_555 1_555
I4 Zn2 1_555 1_555
C1 C2 1_555 1_555
C2 C3 1_555 1_555
C3 H1 1_555 1_555
C4 C3 1_555 1_555
H2 C4 1_555 1_555
C5 H3 1_555 1_555
C6 C2 1_555 1_555
H4 C6 1_555 1_555
C7 C8 1_555 1_555
C8 C9 1_555 1_555
C9 H5 1_555 1_555
C10 C9 1_555 1_555
H6 C10 1_555 1_555
C11 H7 1_555 1_555
C12 C8 1_555 1_555
H8 C12 1_555 1_555
C13 C14 1_555 1_555
C14 C15 1_555 1_555
C15 H9 1_555 1_555
C16 C15 1_555 1_555
H10 C16 1_555 1_555
C17 H11 1_555 1_555
C18 C14 1_555 1_555
H12 C18 1_555 1_555
N1 C1 1_555 1_555
N2 C1 1_555 1_555
N3 C7 1_555 1_555
N4 C16 1_555 1_555
N5 Zn1 1_555 1_555
N6 C4 1_555 1_555
Zn1E N6 1_555 1_555
Zn2B N4 1_555 1_555
N4B Zn2 1_555 1_555
N6E Zn1 1_555 1_555
C5 C6 1_555 1_555
C5 N6 1_555 1_555
C7 N1 1_555 1_555
C10 N5 1_555 1_555
C11 C12 1_555 1_555
C11 N5 1_555 1_555
C13 N2 1_555 1_555
C13 N3 1_555 1_555
C17 C18 1_555 1_555
C17 N4 1_555 1_555

#END
