
#######################################################################
#
#                 Cambridge Crystallographic Data Centre
#                                CCDC 
#
#######################################################################
#
# If this CIF has been generated from an entry in the Cambridge 
# Structural Database, then it will include bibliographic, chemical, 
# crystal, experimental, refinement or atomic coordinate data resulting 
# from the CCDC's data processing and validation procedures.
#
#######################################################################

data_DOPLAX
_symmetry_cell_setting           monoclinic
_symmetry_space_group_name_H-M   'C 2/c'
_symmetry_Int_Tables_number      15
_space_group_name_Hall           '-C 2yn'
loop_
_symmetry_equiv_pos_site_id
_symmetry_equiv_pos_as_xyz
1 x,y,z
2 -x,y,1/2-z
3 1/2+x,1/2+y,z
4 1/2-x,1/2+y,1/2-z
5 -x,-y,-z
6 x,-y,1/2+z
7 1/2-x,1/2-y,-z
8 1/2+x,1/2-y,1/2+z
_cell_length_a                   23.514(5)
_cell_length_b                   11.223(2)
_cell_length_c                   8.8121(18)
_cell_angle_alpha                90
_cell_angle_beta                 107.66(3)
_cell_angle_gamma                90
_cell_volume                     2215.9
loop_
_atom_site_label
_atom_site_type_symbol
_atom_site_fract_x
_atom_site_fract_y
_atom_site_fract_z
Eu1 Eu 0.0000 0.05162(5) 0.2500
Cl1 Cl 0.0000 -0.1824(3) 0.2500
O1 O 0.1039(3) 0.0702(6) 0.2550(9)
O2 O 0.0598(2) -0.0068(7) 0.0227(7)
O3 O 0.0018(3) 0.2266(6) 0.4047(7)
H1 H -0.001(6) 0.228(11) 0.499(6)
H2 H -0.027(6) 0.263(18) 0.34(2)
N1 N 0.2422(4) 0.0263(9) 0.3165(11)
N2 N 0.2111(4) 0.0949(10) 0.2017(10)
N3 N 0.2283(4) 0.2059(9) 0.2120(12)
N4 N 0.2765(3) 0.2086(8) 0.3439(11)
N5 N 0.4185(4) 0.1042(9) 0.7642(10)
C1 C 0.1039(4) 0.0417(6) 0.1212(10)
C2 C 0.1615(5) 0.0520(10) 0.0737(14)
H3 H 0.1714 -0.0255 0.0402
H4 H 0.1546 0.1059 -0.0162
C3 C 0.2828(4) 0.0997(9) 0.4061(11)
C4 C 0.3313(4) 0.0580(6) 0.5440(11)
C5 C 0.3387(5) -0.0605(7) 0.5815(16)
H5 H 0.3121 -0.1159 0.5202
C6 C 0.4235(5) -0.0093(11) 0.7909(14)
H6 H 0.4565 -0.0333 0.8739
C7 C 0.3713(4) 0.1388(8) 0.6376(11)
H7 H 0.3660 0.2195 0.6136
C8 C 0.3860(5) -0.0994(10) 0.7113(14)
H8 H 0.3917 -0.1789 0.7415
O1A O -0.1039(3) 0.0702(6) 0.2450(9)
O2A O -0.0598(2) -0.0068(7) 0.4773(7)
O3A O -0.0018(3) 0.2266(6) 0.0953(7)
H1A H 0.001(6) 0.228(11) 0.001(6)
H2A H 0.027(6) 0.263(18) 0.16(2)
N1A N -0.2422(4) 0.0263(9) 0.1835(11)
N2A N -0.2111(4) 0.0949(10) 0.2983(10)
N3A N -0.2283(4) 0.2059(9) 0.2880(12)
N4A N -0.2765(3) 0.2086(8) 0.1561(11)
N5A N -0.4185(4) 0.1042(9) -0.2642(10)
C1A C -0.1039(4) 0.0417(6) 0.3788(10)
C2A C -0.1615(5) 0.0520(10) 0.4263(14)
H3A H -0.1714 -0.0255 0.4598
H4A H -0.1546 0.1059 0.5162
C3A C -0.2828(4) 0.0997(9) 0.0939(11)
C4A C -0.3313(4) 0.0580(6) -0.0440(11)
C5A C -0.3387(5) -0.0605(7) -0.0815(16)
H5A H -0.3121 -0.1159 -0.0202
C6A C -0.4235(5) -0.0093(11) -0.2909(14)
H6A H -0.4565 -0.0333 -0.3739
C7A C -0.3713(4) 0.1388(8) -0.1376(11)
H7A H -0.3660 0.2195 -0.1136
C8A C -0.3860(5) -0.0994(10) -0.2113(14)
H8A H -0.3917 -0.1789 -0.2415
Eu1D Eu 0.0000 -0.05162(5) -0.2500
Eu1D_2 Eu 0.0000 -0.05162(5) 0.7500
O2D O -0.0598(2) 0.0068(7) -0.0227(7)
O2E O 0.0598(2) 0.0068(7) 0.5227(7)
loop_
_geom_bond_atom_site_label_1
_geom_bond_atom_site_label_2
_geom_bond_site_symmetry_1
_geom_bond_site_symmetry_2
Eu1 Cl1 1_555 1_555
O1 Eu1 1_555 1_555
O2 Eu1 1_555 1_555
O3 Eu1 1_555 1_555
H1 O3 1_555 1_555
H2 O3 1_555 1_555
N1 N2 1_555 1_555
N2 N3 1_555 1_555
N3 N4 1_555 1_555
N4 C3 1_555 1_555
N5 C6 1_555 1_555
C1 O1 1_555 1_555
C2 N2 1_555 1_555
H3 C2 1_555 1_555
H4 C2 1_555 1_555
C3 N1 1_555 1_555
C4 C3 1_555 1_555
C5 C4 1_555 1_555
H5 C5 1_555 1_555
C6 H6 1_555 1_555
C7 N5 1_555 1_555
H7 C7 1_555 1_555
C8 C5 1_555 1_555
H8 C8 1_555 1_555
O1A Eu1 1_555 1_555
O2A Eu1 1_555 1_555
O3A Eu1 1_555 1_555
H1A O3A 1_555 1_555
H2A O3A 1_555 1_555
N1A N2A 1_555 1_555
N2A N3A 1_555 1_555
N3A N4A 1_555 1_555
N4A C3A 1_555 1_555
N5A C6A 1_555 1_555
C1A O1A 1_555 1_555
C2A N2A 1_555 1_555
H3A C2A 1_555 1_555
H4A C2A 1_555 1_555
C3A N1A 1_555 1_555
C4A C3A 1_555 1_555
C5A C4A 1_555 1_555
H5A C5A 1_555 1_555
C6A H6A 1_555 1_555
C7A N5A 1_555 1_555
H7A C7A 1_555 1_555
C8A C5A 1_555 1_555
H8A C8A 1_555 1_555
Eu1D O2 1_555 1_555
Eu1D_2 O2A 1_555 1_555
O2D Eu1 1_555 1_555
O2E Eu1 1_555 1_555
O2 C1 1_555 1_555
C1 C2 1_555 1_555
C4 C7 1_555 1_555
C6 C8 1_555 1_555
O2A C1A 1_555 1_555
C1A C2A 1_555 1_555
C4A C7A 1_555 1_555
C6A C8A 1_555 1_555
Eu1D O2D 1_555 1_555
Eu1D_2 O2E 1_555 1_555

#END
