
#######################################################################
#
#                 Cambridge Crystallographic Data Centre
#                                CCDC 
#
#######################################################################
#
# If this CIF has been generated from an entry in the Cambridge 
# Structural Database, then it will include bibliographic, chemical, 
# crystal, experimental, refinement or atomic coordinate data resulting 
# from the CCDC's data processing and validation procedures.
#
#######################################################################

data_DOPLEB
_symmetry_cell_setting           monoclinic
_symmetry_space_group_name_H-M   'C 2/c'
_symmetry_Int_Tables_number      15
_space_group_name_Hall           '-C 2yn'
loop_
_symmetry_equiv_pos_site_id
_symmetry_equiv_pos_as_xyz
1 x,y,z
2 -x,y,1/2-z
3 1/2+x,1/2+y,z
4 1/2-x,1/2+y,1/2-z
5 -x,-y,-z
6 x,-y,1/2+z
7 1/2-x,1/2-y,-z
8 1/2+x,1/2-y,1/2+z
_cell_length_a                   23.432(5)
_cell_length_b                   11.161(2)
_cell_length_c                   8.8797(18)
_cell_angle_alpha                90
_cell_angle_beta                 107.95(3)
_cell_angle_gamma                90
_cell_volume                     2209.23
loop_
_atom_site_label
_atom_site_type_symbol
_atom_site_fract_x
_atom_site_fract_y
_atom_site_fract_z
O1 O 0.43993(18) -0.0105(5) 0.4852(5)
Tb1 Tb 0.5000 0.05392(3) 0.2500
Cl1 Cl 0.5000 -0.18289(19) 0.2500
O2 O 0.39831(13) 0.0690(2) 0.2531(3)
O3 O 0.50184(13) 0.2265(2) 0.4031(3)
H1 H 0.5036 0.2218 0.5003
H2 H 0.4836 0.2914 0.3668
N1 N 0.2578(2) 0.0237(6) 0.1845(7)
N2 N 0.2886(2) 0.0932(6) 0.2989(7)
N3 N 0.2712(3) 0.2065(6) 0.2862(7)
N4 N 0.2242(2) 0.2097(5) 0.1544(7)
N5 N 0.0822(3) 0.1041(6) -0.2650(7)
C1 C 0.3963(2) 0.0379(5) 0.3847(7)
C2 C 0.3390(3) 0.0515(7) 0.4293(8)
H3 H 0.3288 -0.0252 0.4656
H4 H 0.3461 0.1078 0.5163
C3 C 0.2173(2) 0.0982(6) 0.0956(7)
C4 C 0.1687(3) 0.0574(4) -0.0445(8)
C5 C 0.1613(3) -0.0625(5) -0.0818(10)
H5 H 0.1878 -0.1185 -0.0203
C6 C 0.1144(3) -0.0994(7) -0.2109(10)
H6 H 0.1090 -0.1796 -0.2402
C7 C 0.0758(3) -0.0114(7) -0.2948(9)
H7 H 0.0430 -0.0359 -0.3783
C8 C 0.1286(3) 0.1390(6) -0.1387(7)
H8 H 0.1338 0.2201 -0.1146
O1A O 0.56007(18) -0.0105(5) 0.0148(5)
O2A O 0.60169(13) 0.0690(2) 0.2469(3)
O3A O 0.49816(13) 0.2265(2) 0.0969(3)
H1A H 0.4964 0.2218 -0.0003
H2A H 0.5164 0.2914 0.1332
N1A N 0.7422(2) 0.0237(6) 0.3155(7)
N2A N 0.7114(2) 0.0932(6) 0.2011(7)
N3A N 0.7288(3) 0.2065(6) 0.2138(7)
N4A N 0.7758(2) 0.2097(5) 0.3456(7)
N5A N 0.9178(3) 0.1041(6) 0.7650(7)
C1A C 0.6037(2) 0.0379(5) 0.1153(7)
C2A C 0.6610(3) 0.0515(7) 0.0707(8)
H3A H 0.6712 -0.0252 0.0344
H4A H 0.6539 0.1078 -0.0163
C3A C 0.7827(2) 0.0982(6) 0.4044(7)
C4A C 0.8313(3) 0.0574(4) 0.5445(8)
C5A C 0.8387(3) -0.0625(5) 0.5818(10)
H5A H 0.8122 -0.1185 0.5203
C6A C 0.8856(3) -0.0994(7) 0.7109(10)
H6A H 0.8910 -0.1796 0.7402
C7A C 0.9242(3) -0.0114(7) 0.7948(9)
H7A H 0.9570 -0.0359 0.8783
C8A C 0.8714(3) 0.1390(6) 0.6387(7)
H8A H 0.8662 0.2201 0.6146
O1D O 0.56007(18) 0.0105(5) 0.5148(5)
O1E O 0.43993(18) 0.0105(5) -0.0148(5)
Tb1D Tb 0.5000 -0.05392(3) -0.2500
Tb1D_2 Tb 0.5000 -0.05392(3) 0.7500
loop_
_geom_bond_atom_site_label_1
_geom_bond_atom_site_label_2
_geom_bond_site_symmetry_1
_geom_bond_site_symmetry_2
O1 C1 1_555 1_555
Tb1 Cl1 1_555 1_555
O2 Tb1 1_555 1_555
O3 Tb1 1_555 1_555
H1 O3 1_555 1_555
H2 O3 1_555 1_555
N1 N2 1_555 1_555
N2 N3 1_555 1_555
N3 N4 1_555 1_555
N4 C3 1_555 1_555
N5 C7 1_555 1_555
C1 O2 1_555 1_555
C2 N2 1_555 1_555
H3 C2 1_555 1_555
H4 C2 1_555 1_555
C3 N1 1_555 1_555
C4 C3 1_555 1_555
C5 C4 1_555 1_555
H5 C5 1_555 1_555
C6 C5 1_555 1_555
H6 C6 1_555 1_555
C7 C6 1_555 1_555
H7 C7 1_555 1_555
C8 N5 1_555 1_555
H8 C8 1_555 1_555
O1A C1A 1_555 1_555
O2A Tb1 1_555 1_555
O3A Tb1 1_555 1_555
H1A O3A 1_555 1_555
H2A O3A 1_555 1_555
N1A N2A 1_555 1_555
N2A N3A 1_555 1_555
N3A N4A 1_555 1_555
N4A C3A 1_555 1_555
N5A C7A 1_555 1_555
C1A O2A 1_555 1_555
C2A N2A 1_555 1_555
H3A C2A 1_555 1_555
H4A C2A 1_555 1_555
C3A N1A 1_555 1_555
C4A C3A 1_555 1_555
C5A C4A 1_555 1_555
H5A C5A 1_555 1_555
C6A C5A 1_555 1_555
H6A C6A 1_555 1_555
C7A C6A 1_555 1_555
H7A C7A 1_555 1_555
C8A N5A 1_555 1_555
H8A C8A 1_555 1_555
O1D Tb1 1_555 1_555
O1E Tb1 1_555 1_555
Tb1D O1A 1_555 1_555
Tb1D_2 O1 1_555 1_555
C1 C2 1_555 1_555
C4 C8 1_555 1_555
C1A C2A 1_555 1_555
C4A C8A 1_555 1_555

#END
