
#######################################################################
#
#                 Cambridge Crystallographic Data Centre
#                                CCDC 
#
#######################################################################
#
# If this CIF has been generated from an entry in the Cambridge 
# Structural Database, then it will include bibliographic, chemical, 
# crystal, experimental, refinement or atomic coordinate data resulting 
# from the CCDC's data processing and validation procedures.
#
#######################################################################

data_DOPPUU
_symmetry_cell_setting           monoclinic
_symmetry_space_group_name_H-M   'P 21/n'
_symmetry_Int_Tables_number      14
_space_group_name_Hall           '-P 2yn'
loop_
_symmetry_equiv_pos_site_id
_symmetry_equiv_pos_as_xyz
1 x,y,z
2 1/2-x,1/2+y,1/2-z
3 -x,-y,-z
4 1/2+x,1/2-y,1/2+z
_cell_length_a                   13.804(5)
_cell_length_b                   8.326(3)
_cell_length_c                   27.131(10)
_cell_angle_alpha                90
_cell_angle_beta                 102.496(5)
_cell_angle_gamma                90
_cell_volume                     3044.36
loop_
_atom_site_label
_atom_site_type_symbol
_atom_site_fract_x
_atom_site_fract_y
_atom_site_fract_z
Mn1 Mn 0.77671(6) 1.08781(10) 0.34181(3)
As1 As 0.64619(4) 0.84315(6) 0.24184(2)
N1 N 0.9182(3) 0.9522(5) 0.33770(19)
N2 N 0.8875(3) 1.1412(5) 0.41542(18)
N3 N 0.6444(3) 1.2209(6) 0.35774(18)
N4 N 0.6994(3) 0.9185(6) 0.38702(18)
C1 C 0.4701(5) 0.9630(11) 0.4364(3)
H1 H 0.4319 0.9055 0.4546
C2 C 0.4408(5) 1.1068(10) 0.4199(3)
H2 H 0.3823 1.1480 0.4265
C3 C 0.4960(4) 1.2012(8) 0.3920(2)
C4 C 0.4669(5) 1.3524(9) 0.3715(3)
H3 H 0.4078 1.3978 0.3759
C5 C 0.5248(5) 1.4333(9) 0.3450(3)
H4 H 0.5054 1.5331 0.3309
C6 C 0.6136(5) 1.3640(8) 0.3396(3)
H5 H 0.6536 1.4214 0.3223
C7 C 0.5863(4) 1.1368(7) 0.3828(2)
C8 C 0.6170(4) 0.9793(7) 0.4000(2)
C9 C 0.7278(5) 0.7709(8) 0.4021(2)
H6 H 0.7838 0.7281 0.3932
C10 C 0.6756(6) 0.6757(8) 0.4313(3)
H7 H 0.6978 0.5734 0.4420
C11 C 0.5924(6) 0.7381(9) 0.4433(3)
H8 H 0.5574 0.6771 0.4623
C12 C 0.5585(5) 0.8919(8) 0.4276(3)
C13 C 1.1735(5) 0.9820(9) 0.4147(3)
H9 H 1.2372 0.9453 0.4149
C14 C 1.1594(5) 1.0791(9) 0.4524(3)
H10 H 1.2135 1.1098 0.4774
C15 C 1.0619(5) 1.1358(7) 0.4545(3)
C16 C 1.0422(6) 1.2347(9) 0.4929(3)
H11 H 1.0941 1.2701 0.5185
C17 C 0.9494(6) 1.2782(9) 0.4929(3)
H12 H 0.9360 1.3393 0.5194
C18 C 0.8719(5) 1.2318(8) 0.4530(2)
H13 H 0.8076 1.2656 0.4530
C19 C 0.9817(4) 1.0915(6) 0.4163(2)
C20 C 0.9981(4) 0.9905(7) 0.3755(2)
C21 C 0.9339(5) 0.8575(7) 0.3007(3)
H14 H 0.8798 0.8302 0.2752
C22 C 1.0264(5) 0.7971(8) 0.2979(3)
H15 H 1.0339 0.7325 0.2710
C23 C 1.1053(5) 0.8342(8) 0.3352(3)
H16 H 1.1676 0.7930 0.3344
C24 C 1.0937(4) 0.9341(7) 0.3748(3)
C25 C 0.3714(7) 0.8654(15) 0.2797(4)
H17 H 0.3476 0.8776 0.3090
C26 C 0.3061(6) 0.8559(15) 0.2338(5)
H18 H 0.2382 0.8554 0.2325
C27 C 0.3396(6) 0.8470(13) 0.1904(4)
H19 H 0.2949 0.8447 0.1593
C28 C 0.4409(5) 0.8415(9) 0.1926(3)
H20 H 0.4644 0.8332 0.1631
C29 C 0.5062(4) 0.8482(7) 0.2382(2)
C30 C 0.4715(5) 0.8571(11) 0.2824(3)
H21 H 0.5158 0.8574 0.3136
O1 O 0.6717(3) 0.8067(4) 0.18594(14)
O2 O 0.6899(3) 0.6877(4) 0.28237(15)
H22 H 0.7242 0.6281 0.2692
O3 O 0.7012(3) 1.0104(4) 0.26772(14)
Mn1A Mn 0.72329(6) 0.58781(10) 0.15819(3)
O1A O 0.8283(3) 1.3067(4) 0.31406(14)
Cl1 Cl 0.2215(2) 1.0654(3) 0.05873(10)
O4 O 0.3333(7) 1.0577(11) 0.0737(4)
O5 O 0.1905(7) 0.9061(9) 0.0531(3)
O6 O 0.1975(6) 1.1597(10) 0.0158(3)
O7 O 0.1890(4) 1.1394(7) 0.0991(2)
O8 O 0.5760(6) 1.0534(9) 0.1108(3)
H23 H 0.5977 0.9801 0.1322
H24 H 0.5131 1.0472 0.1029
loop_
_geom_bond_atom_site_label_1
_geom_bond_atom_site_label_2
_geom_bond_site_symmetry_1
_geom_bond_site_symmetry_2
Mn1 N1 1_555 1_555
As1 C29 1_555 1_555
Cl1 O4 1_555 1_555
N1 C20 1_555 1_555
N2 Mn1 1_555 1_555
N3 Mn1 1_555 1_555
N4 Mn1 1_555 1_555
C1 H1 1_555 1_555
C2 C1 1_555 1_555
H2 C2 1_555 1_555
C3 C2 1_555 1_555
C4 C3 1_555 1_555
H3 C4 1_555 1_555
C5 C4 1_555 1_555
H4 C5 1_555 1_555
C6 N3 1_555 1_555
H5 C6 1_555 1_555
C7 N3 1_555 1_555
C8 N4 1_555 1_555
C9 N4 1_555 1_555
H6 C9 1_555 1_555
C10 C9 1_555 1_555
H7 C10 1_555 1_555
C11 C10 1_555 1_555
H8 C11 1_555 1_555
C12 C1 1_555 1_555
C13 H9 1_555 1_555
C14 C13 1_555 1_555
H10 C14 1_555 1_555
C15 C14 1_555 1_555
C16 C15 1_555 1_555
H11 C16 1_555 1_555
C17 C16 1_555 1_555
H12 C17 1_555 1_555
C18 N2 1_555 1_555
H13 C18 1_555 1_555
C19 N2 1_555 1_555
C20 C19 1_555 1_555
C21 N1 1_555 1_555
H14 C21 1_555 1_555
C22 C21 1_555 1_555
H15 C22 1_555 1_555
C23 C22 1_555 1_555
H16 C23 1_555 1_555
C24 C13 1_555 1_555
C25 H17 1_555 1_555
C26 C25 1_555 1_555
H18 C26 1_555 1_555
C27 C26 1_555 1_555
H19 C27 1_555 1_555
C28 C27 1_555 1_555
H20 C28 1_555 1_555
C29 C28 1_555 1_555
C30 C25 1_555 1_555
H21 C30 1_555 1_555
O1 As1 1_555 1_555
O2 As1 1_555 1_555
H22 O2 1_555 1_555
O3 Mn1 1_555 1_555
O5 Cl1 1_555 1_555
O6 Cl1 1_555 1_555
O7 Cl1 1_555 1_555
O8 H23 1_555 1_555
H24 O8 1_555 1_555
Mn1A O1 1_555 1_555
O1A Mn1 1_555 1_555
As1 O3 1_555 1_555
C3 C7 1_555 1_555
C5 C6 1_555 1_555
C7 C8 1_555 1_555
C8 C12 1_555 1_555
C11 C12 1_555 1_555
C15 C19 1_555 1_555
C17 C18 1_555 1_555
C20 C24 1_555 1_555
C23 C24 1_555 1_555
C29 C30 1_555 1_555

#END
