
#######################################################################
#
#                 Cambridge Crystallographic Data Centre
#                                CCDC 
#
#######################################################################
#
# If this CIF has been generated from an entry in the Cambridge 
# Structural Database, then it will include bibliographic, chemical, 
# crystal, experimental, refinement or atomic coordinate data resulting 
# from the CCDC's data processing and validation procedures.
#
#######################################################################

data_DOPQEE01
_symmetry_cell_setting           monoclinic
_symmetry_space_group_name_H-M   'P 21/n'
_symmetry_Int_Tables_number      14
_space_group_name_Hall           '-P 2yn'
loop_
_symmetry_equiv_pos_site_id
_symmetry_equiv_pos_as_xyz
1 x,y,z
2 1/2-x,1/2+y,1/2-z
3 -x,-y,-z
4 1/2+x,1/2-y,1/2+z
_cell_length_a                   7.966(2)
_cell_length_b                   15.177(4)
_cell_length_c                   10.348(2)
_cell_angle_alpha                90
_cell_angle_beta                 111.98(1)
_cell_angle_gamma                90
_cell_volume                     1160.14
loop_
_atom_site_label
_atom_site_type_symbol
_atom_site_fract_x
_atom_site_fract_y
_atom_site_fract_z
Br1 Br 0.76313(6) 0.05442(3) 0.48076(5)
C1 C 1.0289(6) 0.2252(4) 0.2732(4)
C2 C 1.1173(6) 0.2972(4) 0.2469(4)
H1 H 1.0530 0.3460 0.1991
C3 C 1.3043(6) 0.2948(4) 0.2938(5)
H2 H 1.3685 0.3425 0.2794
C4 C 1.3935(6) 0.2209(4) 0.3618(5)
H3 H 1.5193 0.2185 0.3963
C5 C 1.2943(6) 0.1501(3) 0.3785(4)
H4 H 1.3557 0.0995 0.4216
C6 C 0.6798(6) 0.5198(4) 0.4460(5)
H5 H 0.6198 0.5732 0.4394
C7 C 0.7876(6) 0.4900(4) 0.5749(5)
H6 H 0.7966 0.5217 0.6542
C8 C 0.8816(6) 0.4138(4) 0.5868(5)
H7 H 0.9605 0.3945 0.6736
C9 C 0.8588(6) 0.3656(4) 0.4689(5)
H8 H 0.9179 0.3121 0.4744
C10 C 0.7448(6) 0.3991(4) 0.3413(5)
Cu1 Cu 0.97963(7) 0.03809(4) 0.36035(6)
N1 N 1.1133(5) 0.1515(3) 0.3350(4)
N2 N 0.6567(5) 0.4754(3) 0.3283(4)
S1 S 0.79117(16) 0.22097(9) 0.23251(12)
S2 S 0.70151(15) 0.34633(9) 0.17829(12)
Cu1B Cu 1.02037(7) -0.03809(4) 0.63965(6)
Br1B Br 1.23687(6) -0.05442(3) 0.51924(5)
N2A N 0.8433(5) -0.0246(3) 0.1717(4)
Cu1A Cu 0.52037(7) 0.53809(4) 0.13965(6)
loop_
_geom_bond_atom_site_label_1
_geom_bond_atom_site_label_2
_geom_bond_site_symmetry_1
_geom_bond_site_symmetry_2
Br1 Cu1 1_555 1_555
C1 C2 1_555 1_555
C2 H1 1_555 1_555
C3 C2 1_555 1_555
H2 C3 1_555 1_555
C4 C3 1_555 1_555
H3 C4 1_555 1_555
C5 C4 1_555 1_555
H4 C5 1_555 1_555
C6 H5 1_555 1_555
C7 C6 1_555 1_555
H6 C7 1_555 1_555
C8 C7 1_555 1_555
H7 C8 1_555 1_555
C9 C8 1_555 1_555
H8 C9 1_555 1_555
C10 C9 1_555 1_555
Cu1 N1 1_555 1_555
N1 C1 1_555 1_555
N2 C6 1_555 1_555
S1 C1 1_555 1_555
S2 C10 1_555 1_555
Cu1B Br1 1_555 1_555
Br1B Cu1 1_555 1_555
N2A Cu1 1_555 1_555
Cu1A N2 1_555 1_555
C5 N1 1_555 1_555
C10 N2 1_555 1_555
S1 S2 1_555 1_555
Cu1B Br1B 1_555 1_555

#END
