
#######################################################################
#
#                 Cambridge Crystallographic Data Centre
#                                CCDC 
#
#######################################################################
#
# If this CIF has been generated from an entry in the Cambridge 
# Structural Database, then it will include bibliographic, chemical, 
# crystal, experimental, refinement or atomic coordinate data resulting 
# from the CCDC's data processing and validation procedures.
#
#######################################################################

data_DOPSUY
_symmetry_cell_setting           triclinic
_symmetry_space_group_name_H-M   'P 1'
_symmetry_Int_Tables_number      1
_space_group_name_Hall           'P 1'
loop_
_symmetry_equiv_pos_site_id
_symmetry_equiv_pos_as_xyz
1 x,y,z
_cell_length_a                   9.0885(19)
_cell_length_b                   10.008(2)
_cell_length_c                   10.316(2)
_cell_angle_alpha                84.680(3)
_cell_angle_beta                 83.399(3)
_cell_angle_gamma                66.850(3)
_cell_volume                     855.885
loop_
_atom_site_label
_atom_site_type_symbol
_atom_site_fract_x
_atom_site_fract_y
_atom_site_fract_z
Ag1 Ag 0.87229(7) 1.02621(7) 1.94017(7)
C1 C 1.1349(13) 1.0645(12) 2.0847(10)
H1 H 1.0396 1.1245 2.1326
C2 C 1.2541(15) 0.9144(14) 1.9132(11)
H2 H 1.2454 0.8654 1.8415
C3 C 1.4050(14) 0.8965(14) 1.9409(12)
H3 H 1.4969 0.8396 1.8877
C4 C 1.4219(13) 0.9632(13) 2.0487(11)
H4 H 1.5254 0.9499 2.0711
C5 C 1.2822(13) 1.0507(12) 2.1236(10)
C6 C 1.2891(13) 1.1243(12) 2.2405(10)
H5 H 1.3856 1.1486 2.2278
H6 H 1.1938 1.2168 2.2475
C7 C 1.1555(12) 1.0858(11) 2.4636(10)
H7 H 1.1858 1.0162 2.5413
C8 C 1.0074(13) 1.0811(13) 2.4225(10)
H8 H 1.0307 0.9834 2.3917
H9 H 0.9691 1.1534 2.3491
C9 C 0.8739(13) 1.1145(14) 2.5378(11)
H10 H 0.7742 1.1152 2.5075
H11 H 0.9083 1.0377 2.6085
C10 C 0.8423(13) 1.2595(13) 2.5890(12)
H12 H 0.7642 1.2752 2.6669
H13 H 0.7927 1.3366 2.5217
C11 C 0.9943(13) 1.2747(13) 2.6263(12)
H14 H 0.9666 1.3749 2.6530
H15 H 1.0373 1.2064 2.7013
C12 C 1.1215(12) 1.2422(12) 2.5111(10)
H16 H 1.0764 1.3150 2.4382
C13 C 1.3726(13) 1.1455(12) 2.6278(11)
H17 H 1.4733 1.0871 2.5770
H18 H 1.3183 1.0793 2.6618
C14 C 1.4167(13) 1.2025(12) 2.7446(10)
C15 C 1.3126(14) 1.3175(12) 2.8107(11)
H19 H 1.2082 1.3727 2.7838
C16 C 1.3655(15) 1.3519(13) 2.9211(12)
H20 H 1.2941 1.4285 2.9733
C17 C 1.5213(15) 1.2745(13) 2.9543(11)
H21 H 1.5564 1.3005 3.0279
C18 C 1.5722(13) 1.1259(13) 2.7824(10)
H22 H 1.6437 1.0451 2.7350
C19 C 1.4383(13) 0.9265(12) 2.3864(11)
C20 C 1.4514(13) 0.8172(12) 2.4963(10)
C21 C 1.3424(14) 0.7521(13) 2.5278(12)
H23 H 1.2476 0.7820 2.4836
C22 C 1.3741(17) 0.6438(14) 2.6239(13)
H24 H 1.3005 0.5970 2.6426
C23 C 1.5032(15) 0.5987(13) 2.6944(13)
H25 H 1.5186 0.5247 2.7622
C24 C 1.6103(14) 0.6632(14) 2.6645(12)
H26 H 1.7039 0.6305 2.7106
C25 C 1.5884(13) 0.7733(12) 2.5706(10)
H27 H 1.6624 0.8198 2.5549
C26 C 1.3402(13) 1.3394(12) 2.4688(10)
C27 C 1.2360(13) 1.4683(12) 2.3866(10)
C28 C 1.3110(19) 1.4951(16) 2.2662(12)
H28 H 1.4152 1.4309 2.2351
C29 C 1.2200(19) 1.6268(15) 2.1918(13)
H29 H 1.2653 1.6461 2.1081
C30 C 1.0779(17) 1.7208(14) 2.2344(13)
H30 H 1.0227 1.8073 2.1844
C31 C 1.0105(16) 1.6871(14) 2.3588(13)
H31 H 0.9074 1.7521 2.3913
C32 C 1.0892(14) 1.5651(13) 2.4320(12)
H32 H 1.0420 1.5470 2.5152
N1 N 1.1205(11) 0.9951(12) 1.9796(9)
N2 N 1.2943(10) 1.0372(10) 2.3631(8)
N3 N 1.2715(10) 1.2535(10) 2.5405(8)
N4 N 1.6218(12) 1.1656(12) 2.8854(10)
O1 O 1.5612(9) 0.9135(9) 2.3133(8)
O2 O 1.4789(9) 1.3162(9) 2.4726(8)
N5 N 0.9583(15) 0.7273(15) 1.8134(15)
O3 O 0.9819(16) 0.6107(13) 1.7562(13)
O4 O 1.0614(14) 0.7213(14) 1.8931(13)
O5 O 0.8158(14) 0.8149(13) 1.8501(13)
O6 O 0.7732(10) 1.0386(10) 2.1885(8)
H33 H 0.8379 1.0312 2.2446
H34 H 0.6767 1.0499 2.2133
Ag1_2 Ag 1.87229(7) 1.02621(7) 2.94017(7)
N4_2 N 0.6218(12) 1.1656(12) 1.8854(10)
C33 C 0.8200(12) 1.4298(11) 2.1955(10)
H35 H 0.7792 1.4880 2.2728
H36 H 0.8876 1.3297 2.2221
H37 H 0.7296 1.4298 2.1521
O7 O 0.9213(8) 1.4966(7) 2.0992(6)
H38 H 0.8592 1.5706 2.0572
loop_
_geom_bond_atom_site_label_1
_geom_bond_atom_site_label_2
_geom_bond_site_symmetry_1
_geom_bond_site_symmetry_2
Ag1 N1 1_555 1_555
C1 H1 1_555 1_555
C2 H2 1_555 1_555
C3 C2 1_555 1_555
H3 C3 1_555 1_555
C4 C3 1_555 1_555
H4 C4 1_555 1_555
C5 C1 1_555 1_555
C6 C5 1_555 1_555
H5 C6 1_555 1_555
H6 C6 1_555 1_555
C7 H7 1_555 1_555
C8 C7 1_555 1_555
H8 C8 1_555 1_555
H9 C8 1_555 1_555
C9 C8 1_555 1_555
H10 C9 1_555 1_555
H11 C9 1_555 1_555
C10 C9 1_555 1_555
H12 C10 1_555 1_555
H13 C10 1_555 1_555
C11 C10 1_555 1_555
H14 C11 1_555 1_555
H15 C11 1_555 1_555
C12 C7 1_555 1_555
H16 C12 1_555 1_555
C13 H17 1_555 1_555
H18 C13 1_555 1_555
C14 C13 1_555 1_555
C15 C14 1_555 1_555
H19 C15 1_555 1_555
C16 C15 1_555 1_555
H20 C16 1_555 1_555
C17 C16 1_555 1_555
H21 C17 1_555 1_555
C18 C14 1_555 1_555
H22 C18 1_555 1_555
C19 C20 1_555 1_555
C20 C21 1_555 1_555
C21 H23 1_555 1_555
C22 C21 1_555 1_555
H24 C22 1_555 1_555
C23 C22 1_555 1_555
H25 C23 1_555 1_555
C24 C23 1_555 1_555
H26 C24 1_555 1_555
C25 C20 1_555 1_555
H27 C25 1_555 1_555
C26 C27 1_555 1_555
C27 C28 1_555 1_555
C28 H28 1_555 1_555
C29 C28 1_555 1_555
H29 C29 1_555 1_555
C30 C29 1_555 1_555
H30 C30 1_555 1_555
C31 C30 1_555 1_555
H31 C31 1_555 1_555
C32 C27 1_555 1_555
H32 C32 1_555 1_555
N1 C1 1_555 1_555
N2 C6 1_555 1_555
N3 C12 1_555 1_555
N4 C17 1_555 1_555
O1 C19 1_555 1_555
O2 C26 1_555 1_555
N5 O3 1_555 1_555
O4 N5 1_555 1_555
O5 Ag1 1_555 1_555
O6 Ag1 1_555 1_555
H33 O6 1_555 1_555
H34 O6 1_555 1_555
C33 H35 1_555 1_555
H36 C33 1_555 1_555
H37 C33 1_555 1_555
O7 C33 1_555 1_555
H38 O7 1_555 1_555
Ag1_2 N4 1_555 1_555
N4_2 Ag1 1_555 1_555
C2 N1 1_555 1_555
C4 C5 1_555 1_555
C7 N2 1_555 1_555
C11 C12 1_555 1_555
C13 N3 1_555 1_555
C18 N4 1_555 1_555
C19 N2 1_555 1_555
C24 C25 1_555 1_555
C26 N3 1_555 1_555
C31 C32 1_555 1_555
N5 O5 1_555 1_555

#END
