
#######################################################################
#
#                 Cambridge Crystallographic Data Centre
#                                CCDC 
#
#######################################################################
#
# If this CIF has been generated from an entry in the Cambridge 
# Structural Database, then it will include bibliographic, chemical, 
# crystal, experimental, refinement or atomic coordinate data resulting 
# from the CCDC's data processing and validation procedures.
#
#######################################################################

data_DOPSOS
_symmetry_cell_setting           monoclinic
_symmetry_space_group_name_H-M   'P 21/c'
_symmetry_Int_Tables_number      14
_space_group_name_Hall           '-P 2ybc'
loop_
_symmetry_equiv_pos_site_id
_symmetry_equiv_pos_as_xyz
1 x,y,z
2 -x,1/2+y,1/2-z
3 -x,-y,-z
4 x,1/2-y,1/2+z
_cell_length_a                   11.496(2)
_cell_length_b                   13.665(3)
_cell_length_c                   11.051(2)
_cell_angle_alpha                90
_cell_angle_beta                 116.53(3)
_cell_angle_gamma                90
_cell_volume                     1553.23
loop_
_atom_site_label
_atom_site_type_symbol
_atom_site_fract_x
_atom_site_fract_y
_atom_site_fract_z
Zn1 Zn 0.03492(6) 0.23958(4) 0.10306(6)
C1 C -0.3667(5) -0.1923(4) 0.0107(6)
C2 C -0.4168(6) -0.1800(5) 0.1033(7)
H1 H -0.3607 -0.1771 0.1953
C3 C -0.5478(7) -0.1719(6) 0.0604(9)
H2 H -0.5804 -0.1616 0.1227
C4 C -0.6319(7) -0.1792(6) -0.0757(9)
H3 H -0.7211 -0.1754 -0.1044
C5 C -0.5856(7) -0.1916(7) -0.1675(9)
H4 H -0.6429 -0.1962 -0.2590
C6 C -0.4520(6) -0.1975(6) -0.1253(7)
H5 H -0.4202 -0.2049 -0.1887
C7 C -0.1397(5) -0.0714(4) 0.0906(5)
H6 H -0.1631 -0.0408 0.1558
H7 H -0.0456 -0.0704 0.1282
C8 C -0.1960(6) -0.0105(4) -0.0388(6)
H8 H -0.1864 -0.0471 -0.1091
H9 H -0.2884 -0.0018 -0.0675
C9 C -0.1351(5) 0.0888(4) -0.0273(6)
C10 C -0.1539(5) 0.3922(4) 0.0884(6)
H10 H -0.1549 0.3692 0.1671
C11 C -0.1093(6) 0.4094(5) -0.0798(7)
H11 H -0.0732 0.4001 -0.1394
C12 C -0.1972(7) 0.4788(6) -0.0914(8)
H12 H -0.2322 0.5257 -0.1593
C13 C -0.3201(7) 0.5223(6) 0.0430(10)
H13 H -0.3294 0.5874 0.0049
H14 H -0.2883 0.5290 0.1400
C14 C -0.4516(6) 0.4728(6) -0.0158(8)
H15 H -0.4847 0.4681 -0.1132
H16 H -0.4418 0.4069 0.0200
N1 N -0.0816(4) 0.3549(3) 0.0338(5)
N2 N -0.2246(5) 0.4669(4) 0.0154(6)
O1 O -0.0493(4) 0.1141(3) 0.0900(4)
O2 O -0.1703(5) 0.1397(3) -0.1304(5)
O3 O -0.1695(4) -0.2434(3) -0.0422(4)
O4 O -0.1321(4) -0.2483(3) 0.2015(4)
P1 P -0.19281(13) -0.19638(10) 0.06874(13)
C10B C -0.8461(5) 0.6078(4) -0.0884(6)
H10B H -0.8451 0.6308 -0.1671
C11B C -0.8907(6) 0.5906(5) 0.0798(7)
H11B H -0.9268 0.5999 0.1394
C12B C -0.8028(7) 0.5212(6) 0.0914(8)
H12B H -0.7678 0.4743 0.1593
C13B C -0.6799(7) 0.4777(6) -0.0430(10)
H13B H -0.6706 0.4126 -0.0049
H14B H -0.7117 0.4710 -0.1400
C14B C -0.5484(6) 0.5272(6) 0.0158(8)
H15B H -0.5153 0.5319 0.1132
H16B H -0.5582 0.5931 -0.0200
N1B N -0.9184(4) 0.6451(3) -0.0338(5)
N2B N -0.7754(5) 0.5331(4) -0.0154(6)
Zn1B Zn -1.03492(6) 0.76042(4) -0.10306(6)
C1B C -0.6333(5) 1.1923(4) -0.0107(6)
C2B C -0.5832(6) 1.1800(5) -0.1033(7)
H1B H -0.6393 1.1771 -0.1953
C3B C -0.4522(7) 1.1719(6) -0.0604(9)
H2B H -0.4196 1.1616 -0.1227
C4B C -0.3681(7) 1.1792(6) 0.0757(9)
H3B H -0.2789 1.1754 0.1044
C5B C -0.4144(7) 1.1916(7) 0.1675(9)
H4B H -0.3571 1.1962 0.2590
C6B C -0.5480(6) 1.1975(6) 0.1253(7)
H5B H -0.5798 1.2049 0.1887
C7B C -0.8603(5) 1.0714(4) -0.0906(5)
H6B H -0.8369 1.0408 -0.1558
H7B H -0.9544 1.0704 -0.1282
C8B C -0.8040(6) 1.0105(4) 0.0388(6)
H8B H -0.8136 1.0471 0.1091
H9B H -0.7116 1.0018 0.0675
C9B C -0.8649(5) 0.9112(4) 0.0273(6)
O1B O -0.9507(4) 0.8859(3) -0.0900(4)
O2B O -0.8297(5) 0.8603(3) 0.1304(5)
O3B O -0.8305(4) 1.2434(3) 0.0422(4)
O4B O -0.8679(4) 1.2483(3) -0.2015(4)
P1B P -0.80719(13) 1.19638(10) -0.06874(13)
Zn1_2 Zn -0.96508(6) 1.23958(4) 0.10306(6)
Zn1A Zn -0.03492(6) -0.26042(4) 0.39694(6)
Zn1B_2 Zn -0.03492(6) -0.23958(4) -0.10306(6)
Zn1C Zn -0.96508(6) 1.26042(4) -0.39694(6)
O3_2 O -1.1695(4) 0.7566(3) -0.0422(4)
O3B_2 O 0.1695(4) 0.2434(3) 0.0422(4)
O4A O 0.1321(4) 0.2517(3) 0.2985(4)
O4C O -1.1321(4) 0.7483(3) -0.2985(4)
loop_
_geom_bond_atom_site_label_1
_geom_bond_atom_site_label_2
_geom_bond_site_symmetry_1
_geom_bond_site_symmetry_2
Zn1 N1 1_555 1_555
C1 C2 1_555 1_555
C2 H1 1_555 1_555
C3 C2 1_555 1_555
H2 C3 1_555 1_555
C4 C3 1_555 1_555
H3 C4 1_555 1_555
C5 C4 1_555 1_555
H4 C5 1_555 1_555
C6 C1 1_555 1_555
H5 C6 1_555 1_555
C7 H6 1_555 1_555
H7 C7 1_555 1_555
C8 C7 1_555 1_555
H8 C8 1_555 1_555
H9 C8 1_555 1_555
C9 C8 1_555 1_555
C10 H10 1_555 1_555
C11 H11 1_555 1_555
C12 C11 1_555 1_555
H12 C12 1_555 1_555
C13 H13 1_555 1_555
H14 C13 1_555 1_555
C14 C13 1_555 1_555
H15 C14 1_555 1_555
H16 C14 1_555 1_555
N1 C10 1_555 1_555
N2 C10 1_555 1_555
O1 Zn1 1_555 1_555
O2 C9 1_555 1_555
O3 P1 1_555 1_555
O4 P1 1_555 1_555
P1 C1 1_555 1_555
C10B H10B 1_555 1_555
C11B H11B 1_555 1_555
C12B C11B 1_555 1_555
H12B C12B 1_555 1_555
C13B H13B 1_555 1_555
H14B C13B 1_555 1_555
C14B C14 1_555 1_555
H15B C14B 1_555 1_555
H16B C14B 1_555 1_555
N1B C10B 1_555 1_555
N2B C10B 1_555 1_555
Zn1B N1B 1_555 1_555
C1B C2B 1_555 1_555
C2B H1B 1_555 1_555
C3B C2B 1_555 1_555
H2B C3B 1_555 1_555
C4B C3B 1_555 1_555
H3B C4B 1_555 1_555
C5B C4B 1_555 1_555
H4B C5B 1_555 1_555
C6B C1B 1_555 1_555
H5B C6B 1_555 1_555
C7B H6B 1_555 1_555
H7B C7B 1_555 1_555
C8B C7B 1_555 1_555
H8B C8B 1_555 1_555
H9B C8B 1_555 1_555
C9B C8B 1_555 1_555
O1B Zn1B 1_555 1_555
O2B C9B 1_555 1_555
O3B P1B 1_555 1_555
O4B P1B 1_555 1_555
P1B C1B 1_555 1_555
Zn1_2 O3B 1_555 1_555
Zn1A O4 1_555 1_555
Zn1B_2 O3 1_555 1_555
Zn1C O4B 1_555 1_555
O3_2 Zn1B 1_555 1_555
O3B_2 Zn1 1_555 1_555
O4A Zn1 1_555 1_555
O4C Zn1B 1_555 1_555
C5 C6 1_555 1_555
C7 P1 1_555 1_555
C9 O1 1_555 1_555
C11 N1 1_555 1_555
C12 N2 1_555 1_555
C13 N2 1_555 1_555
C11B N1B 1_555 1_555
C12B N2B 1_555 1_555
C13B C14B 1_555 1_555
C13B N2B 1_555 1_555
C5B C6B 1_555 1_555
C7B P1B 1_555 1_555
C9B O1B 1_555 1_555

#END
