
#######################################################################
#
#                 Cambridge Crystallographic Data Centre
#                                CCDC 
#
#######################################################################
#
# If this CIF has been generated from an entry in the Cambridge 
# Structural Database, then it will include bibliographic, chemical, 
# crystal, experimental, refinement or atomic coordinate data resulting 
# from the CCDC's data processing and validation procedures.
#
#######################################################################

data_DOPTAF
_symmetry_cell_setting           orthorhombic
_symmetry_space_group_name_H-M   'P 21 21 21'
_symmetry_Int_Tables_number      19
_space_group_name_Hall           'P 2ac 2ab'
loop_
_symmetry_equiv_pos_site_id
_symmetry_equiv_pos_as_xyz
1 x,y,z
2 1/2-x,-y,1/2+z
3 -x,1/2+y,1/2-z
4 1/2+x,1/2-y,-z
_cell_length_a                   10.9284(12)
_cell_length_b                   13.1429(14)
_cell_length_c                   23.209(2)
_cell_angle_alpha                90
_cell_angle_beta                 90
_cell_angle_gamma                90
_cell_volume                     3333.53
loop_
_atom_site_label
_atom_site_type_symbol
_atom_site_fract_x
_atom_site_fract_y
_atom_site_fract_z
Ag1 Ag 1.47575(6) 0.71665(5) 0.96548(2)
C1 C 1.3187(6) 0.7789(5) 0.8622(3)
H1 H 1.2748 0.7219 0.8738
C2 C 1.4683(7) 0.8968(5) 0.8808(3)
H2 H 1.5308 0.9210 0.9042
C3 C 1.4414(6) 0.9483(5) 0.8313(3)
H3 H 1.4824 1.0082 0.8223
C4 C 1.3524(6) 0.9105(5) 0.7947(3)
H4 H 1.3358 0.9425 0.7599
C5 C 1.2882(6) 0.8238(4) 0.8109(3)
C6 C 1.1888(5) 0.7775(5) 0.7738(3)
H5 H 1.1514 0.7218 0.7949
H6 H 1.1261 0.8284 0.7673
C7 C 1.1704(5) 0.7780(5) 0.6644(3)
H7 H 1.2054 0.7406 0.6318
C8 C 1.1965(7) 0.8901(5) 0.6544(3)
H8 H 1.1649 0.9295 0.6864
H9 H 1.2842 0.9009 0.6524
C9 C 1.1377(8) 0.9261(6) 0.5990(3)
H10 H 1.1758 0.8920 0.5666
H11 H 1.1510 0.9986 0.5947
C10 C 0.9996(8) 0.9041(6) 0.5988(4)
H12 H 0.9603 0.9429 0.6291
H13 H 0.9649 0.9253 0.5622
C11 C 0.9757(7) 0.7916(5) 0.6079(3)
H14 H 1.0097 0.7532 0.5760
H15 H 0.8882 0.7794 0.6090
C12 C 1.0348(6) 0.7553(4) 0.6654(2)
H16 H 0.9980 0.7943 0.6970
C13 C 1.0622(6) 0.5710(5) 0.6356(3)
H17 H 1.1001 0.5172 0.6580
H18 H 1.1260 0.6038 0.6133
C14 C 0.9704(7) 0.5240(4) 0.5946(2)
C15 C 0.8491(6) 0.5467(5) 0.5901(3)
H19 H 0.8148 0.5951 0.6144
C16 C 0.7782(7) 0.4998(6) 0.5506(3)
H20 H 0.6959 0.5169 0.5471
C17 C 0.8276(7) 0.4274(6) 0.5159(3)
H21 H 0.7775 0.3951 0.4891
C18 C 1.0160(7) 0.4490(4) 0.5568(3)
H22 H 1.0988 0.4328 0.5586
C19 C 1.3216(6) 0.6712(5) 0.7117(3)
C20 C 1.3677(7) 0.6178(5) 0.7655(3)
C21 C 1.4883(7) 0.6312(5) 0.7820(4)
H23 H 1.5399 0.6742 0.7614
C22 C 1.5311(9) 0.5783(7) 0.8306(5)
H24 H 1.6104 0.5902 0.8435
C23 C 1.4604(10) 0.5110(7) 0.8590(4)
H25 H 1.4914 0.4760 0.8906
C24 C 1.3385(9) 0.4936(7) 0.8404(5)
H26 H 1.2892 0.4464 0.8591
C25 C 1.2944(8) 0.5484(6) 0.7937(4)
H27 H 1.2144 0.5382 0.7814
C26 C 0.9543(6) 0.6076(5) 0.7222(3)
C27 C 0.8900(6) 0.6773(5) 0.7643(3)
C28 C 0.9161(6) 0.6675(5) 0.8228(3)
H28 H 0.9729 0.6195 0.8351
C29 C 0.8584(7) 0.7279(6) 0.8621(3)
H29 H 0.8778 0.7223 0.9010
C30 C 0.7719(8) 0.7971(7) 0.8446(4)
H30 H 0.7327 0.8378 0.8716
C31 C 0.7437(7) 0.8060(6) 0.7883(4)
H31 H 0.6843 0.8524 0.7768
C32 C 0.8027(6) 0.7463(5) 0.7471(3)
H32 H 0.7831 0.7530 0.7083
N1 N 1.4081(5) 0.8126(4) 0.8967(2)
N2 N 1.2310(4) 0.7390(4) 0.7178(2)
N3 N 1.0088(4) 0.6459(3) 0.6754(2)
N4 N 0.9467(6) 0.4004(4) 0.5187(2)
N5 N 1.6720(13) 0.8800(9) 1.0134(6)
O1 O 1.3682(6) 0.6502(6) 0.6650(3)
O2 O 0.9541(6) 0.5156(3) 0.7320(2)
O3 O 1.7469(8) 0.9282(7) 1.0450(5)
O4 O 1.5670(9) 0.8726(7) 1.0284(5)
O5 O 1.7184(8) 0.8178(6) 0.9848(5)
Ag1A Ag 1.02425(6) 0.28335(5) 0.46548(2)
N4A N 1.5533(6) 0.5996(4) 1.0187(2)
O6 O 1.624(2) 0.7348(18) 0.6081(10)
H33 H 1.5779 0.7033 0.6187
H34 H 1.6468 0.7699 0.5791
O7 O 1.686(3) 0.8389(17) 0.5106(11)
H35 H 1.7028 0.8970 0.5172
H36 H 1.7505 0.8221 0.4972
O8 O 1.399(3) 0.6950(18) 0.5493(11)
H37 H 1.3856 0.6764 0.5816
H38 H 1.4586 0.7012 0.5393
loop_
_geom_bond_atom_site_label_1
_geom_bond_atom_site_label_2
_geom_bond_site_symmetry_1
_geom_bond_site_symmetry_2
Ag1 N1 1_555 1_555
C1 H1 1_555 1_555
C2 H2 1_555 1_555
C3 C2 1_555 1_555
H3 C3 1_555 1_555
C4 C3 1_555 1_555
H4 C4 1_555 1_555
C5 C1 1_555 1_555
C6 C5 1_555 1_555
H5 C6 1_555 1_555
H6 C6 1_555 1_555
C7 H7 1_555 1_555
C8 C7 1_555 1_555
H8 C8 1_555 1_555
H9 C8 1_555 1_555
C9 C8 1_555 1_555
H10 C9 1_555 1_555
H11 C9 1_555 1_555
C10 C9 1_555 1_555
H12 C10 1_555 1_555
H13 C10 1_555 1_555
C11 C10 1_555 1_555
H14 C11 1_555 1_555
H15 C11 1_555 1_555
C12 C7 1_555 1_555
H16 C12 1_555 1_555
C13 H17 1_555 1_555
H18 C13 1_555 1_555
C14 C13 1_555 1_555
C15 C14 1_555 1_555
H19 C15 1_555 1_555
C16 C15 1_555 1_555
H20 C16 1_555 1_555
C17 C16 1_555 1_555
H21 C17 1_555 1_555
C18 C14 1_555 1_555
H22 C18 1_555 1_555
C19 C20 1_555 1_555
C20 C21 1_555 1_555
C21 H23 1_555 1_555
C22 C21 1_555 1_555
H24 C22 1_555 1_555
C23 C22 1_555 1_555
H25 C23 1_555 1_555
C24 C23 1_555 1_555
H26 C24 1_555 1_555
C25 C20 1_555 1_555
H27 C25 1_555 1_555
C26 C27 1_555 1_555
C27 C28 1_555 1_555
C28 H28 1_555 1_555
C29 C28 1_555 1_555
H29 C29 1_555 1_555
C30 C29 1_555 1_555
H30 C30 1_555 1_555
C31 C30 1_555 1_555
H31 C31 1_555 1_555
C32 C27 1_555 1_555
H32 C32 1_555 1_555
N1 C1 1_555 1_555
N2 C6 1_555 1_555
N3 C12 1_555 1_555
N4 C17 1_555 1_555
N5 O3 1_555 1_555
O1 C19 1_555 1_555
O2 C26 1_555 1_555
O4 Ag1 1_555 1_555
O5 N5 1_555 1_555
O6 H33 1_555 1_555
H34 O6 1_555 1_555
O7 H35 1_555 1_555
H36 O7 1_555 1_555
O8 H37 1_555 1_555
H38 O8 1_555 1_555
Ag1A N4 1_555 1_555
N4A Ag1 1_555 1_555
C2 N1 1_555 1_555
C4 C5 1_555 1_555
C7 N2 1_555 1_555
C11 C12 1_555 1_555
C13 N3 1_555 1_555
C18 N4 1_555 1_555
C19 N2 1_555 1_555
C24 C25 1_555 1_555
C26 N3 1_555 1_555
C31 C32 1_555 1_555
N5 O4 1_555 1_555

#END
