
#######################################################################
#
#                 Cambridge Crystallographic Data Centre
#                                CCDC 
#
#######################################################################
#
# If this CIF has been generated from an entry in the Cambridge 
# Structural Database, then it will include bibliographic, chemical, 
# crystal, experimental, refinement or atomic coordinate data resulting 
# from the CCDC's data processing and validation procedures.
#
#######################################################################

data_DOPTIN
_symmetry_cell_setting           orthorhombic
_symmetry_space_group_name_H-M   'P 21 21 21'
_symmetry_Int_Tables_number      19
_space_group_name_Hall           'P 2ac 2ab'
loop_
_symmetry_equiv_pos_site_id
_symmetry_equiv_pos_as_xyz
1 x,y,z
2 1/2-x,-y,1/2+z
3 -x,1/2+y,1/2-z
4 1/2+x,1/2-y,-z
_cell_length_a                   10.9131(16)
_cell_length_b                   13.0435(19)
_cell_length_c                   22.908(4)
_cell_angle_alpha                90
_cell_angle_beta                 90
_cell_angle_gamma                90
_cell_volume                     3260.84
loop_
_atom_site_label
_atom_site_type_symbol
_atom_site_fract_x
_atom_site_fract_y
_atom_site_fract_z
Ag1 Ag -0.51815(9) -0.28121(7) -0.03579(4)
C1 C -0.5138(11) -0.4509(6) 0.0561(4)
H1 H -0.5983 -0.4336 0.0571
C2 C -0.3211(12) -0.4257(9) 0.0164(5)
H2 H -0.2686 -0.3889 -0.0092
C3 C -0.2749(10) -0.5007(8) 0.0509(4)
H3 H -0.1913 -0.5199 0.0472
C4 C -0.3479(9) -0.5487(8) 0.0908(4)
H4 H -0.3137 -0.5984 0.1164
C5 C -0.4709(11) -0.5254(7) 0.0943(4)
C6 C -0.5620(9) -0.5744(8) 0.1354(5)
H5 H -0.6017 -0.5196 0.1586
H6 H -0.6266 -0.6080 0.1118
C7 C -0.4572(11) -0.6102(8) 0.2233(4)
C8 C -0.3914(10) -0.6819(8) 0.2659(5)
C9 C -0.3035(10) -0.7516(8) 0.2477(5)
H7 H -0.2824 -0.7585 0.2076
C10 C -0.2469(10) -0.8117(9) 0.2908(6)
H8 H -0.1867 -0.8602 0.2793
C11 C -0.2749(12) -0.8030(9) 0.3483(6)
H9 H -0.2353 -0.8453 0.3762
C12 C -0.3621(11) -0.7317(10) 0.3659(5)
H10 H -0.3827 -0.7255 0.4061
C13 C -0.4183(10) -0.6703(8) 0.3251(5)
H11 H -0.4756 -0.6198 0.3372
C14 C -0.5297(10) -0.7607(7) 0.1632(4)
H12 H -0.4917 -0.8003 0.1959
C15 C -0.4713(11) -0.7950(8) 0.1066(4)
H13 H -0.5066 -0.7551 0.0739
H14 H -0.3823 -0.7807 0.1080
C16 C -0.4907(13) -0.9077(8) 0.0953(5)
H15 H -0.4489 -0.9486 0.1257
H16 H -0.4557 -0.9265 0.0569
C17 C -0.6319(14) -0.9311(10) 0.0960(5)
H17 H -0.6717 -0.8950 0.0631
H18 H -0.6448 -1.0056 0.0905
C18 C -0.6889(11) -0.8990(9) 0.1506(5)
H19 H -0.6531 -0.9388 0.1833
H20 H -0.7777 -0.9142 0.1491
C19 C -0.6704(9) -0.7849(9) 0.1619(4)
H21 H -0.7065 -0.7469 0.1281
C20 C -0.8278(12) -0.6824(10) 0.2081(6)
C21 C -0.8716(12) -0.6301(9) 0.2605(6)
C22 C -0.8003(14) -0.5564(11) 0.2885(7)
H22 H -0.7193 -0.5437 0.2751
C23 C -0.8457(16) -0.5008(11) 0.3361(9)
H23 H -0.7944 -0.4535 0.3561
C24 C -0.9668(15) -0.5151(12) 0.3542(8)
H24 H -1.0005 -0.4757 0.3851
C25 C -1.0364(15) -0.5887(11) 0.3254(8)
H25 H -1.1169 -0.6026 0.3391
C26 C -0.9950(13) -0.6403(9) 0.2796(6)
H26 H -1.0488 -0.6849 0.2592
C27 C -0.6871(9) -0.7842(9) 0.2732(4)
H27 H -0.6224 -0.8362 0.2668
H28 H -0.6495 -0.7260 0.2945
C28 C -0.7838(9) -0.8296(8) 0.3103(5)
C29 C -0.8487(11) -0.9193(8) 0.2948(5)
H29 H -0.8305 -0.9541 0.2594
C30 C -0.9378(11) -0.9554(8) 0.3313(5)
H30 H -0.9789 -1.0175 0.3220
C31 C -0.9685(10) -0.9038(8) 0.3806(4)
H31 H -1.0326 -0.9300 0.4045
C32 C -0.8204(10) -0.7826(9) 0.3611(4)
H32 H -0.7792 -0.7214 0.3721
N1 N -0.4425(11) -0.4032(8) 0.0184(4)
N2 N -0.5115(8) -0.6488(5) 0.1749(3)
N3 N -0.7310(8) -0.7470(6) 0.2155(4)
N4 N -0.9117(8) -0.8174(7) 0.3970(4)
O1 O -0.4578(8) -0.5183(5) 0.2332(3)
O2 O -0.8774(9) -0.6686(10) 0.1603(4)
Ag1A Ag -0.98185(9) -0.71879(7) 0.46421(4)
N4A N -0.5883(8) -0.1826(7) -0.1030(4)
Cl1 Cl -0.3165(7) -0.1169(5) 0.0154(3)
O3 O -0.2695(12) -0.1995(9) -0.0157(6)
O4 O -0.2277(12) -0.0734(11) 0.0528(6)
O5 O -0.4272(11) -0.1380(11) 0.0415(6)
O6 O -0.3239(13) -0.0342(10) -0.0262(6)
O7 O -1.1381(14) -0.7237(13) 0.1242(7)
H33 H -1.0655 -0.7079 0.1343
H34 H -1.1523 -0.7595 0.0940
O8 O -0.6794(19) -0.6551(16) -0.0184(9)
H35 H -0.7398 -0.6779 0.0012
H36 H -0.6946 -0.5934 -0.0278
O9 O -0.881(2) -0.789(2) 0.0397(10)
H37 H -0.8789 -0.7568 0.0720
H38 H -0.9440 -0.7737 0.0599
loop_
_geom_bond_atom_site_label_1
_geom_bond_atom_site_label_2
_geom_bond_site_symmetry_1
_geom_bond_site_symmetry_2
Ag1 N1 1_555 1_555
C1 H1 1_555 1_555
C2 H2 1_555 1_555
C3 C2 1_555 1_555
H3 C3 1_555 1_555
C4 C3 1_555 1_555
H4 C4 1_555 1_555
C5 C1 1_555 1_555
C6 C5 1_555 1_555
H5 C6 1_555 1_555
H6 C6 1_555 1_555
C7 C8 1_555 1_555
C8 C9 1_555 1_555
C9 H7 1_555 1_555
C10 C9 1_555 1_555
H8 C10 1_555 1_555
C11 C10 1_555 1_555
H9 C11 1_555 1_555
C12 C11 1_555 1_555
H10 C12 1_555 1_555
C13 C8 1_555 1_555
H11 C13 1_555 1_555
C14 H12 1_555 1_555
C15 C14 1_555 1_555
H13 C15 1_555 1_555
H14 C15 1_555 1_555
C16 C15 1_555 1_555
H15 C16 1_555 1_555
H16 C16 1_555 1_555
C17 C16 1_555 1_555
H17 C17 1_555 1_555
H18 C17 1_555 1_555
C18 C17 1_555 1_555
H19 C18 1_555 1_555
H20 C18 1_555 1_555
C19 C14 1_555 1_555
H21 C19 1_555 1_555
C20 C21 1_555 1_555
C21 C22 1_555 1_555
C22 H22 1_555 1_555
C23 C22 1_555 1_555
H23 C23 1_555 1_555
C24 C23 1_555 1_555
H24 C24 1_555 1_555
C25 C24 1_555 1_555
H25 C25 1_555 1_555
C26 C21 1_555 1_555
H26 C26 1_555 1_555
C27 H27 1_555 1_555
H28 C27 1_555 1_555
C28 C27 1_555 1_555
C29 C28 1_555 1_555
H29 C29 1_555 1_555
C30 C29 1_555 1_555
H30 C30 1_555 1_555
C31 C30 1_555 1_555
H31 C31 1_555 1_555
C32 C28 1_555 1_555
H32 C32 1_555 1_555
N1 C1 1_555 1_555
N2 C6 1_555 1_555
N3 C19 1_555 1_555
N4 C31 1_555 1_555
O1 C7 1_555 1_555
O2 C20 1_555 1_555
Cl1 O3 1_555 1_555
O4 Cl1 1_555 1_555
O5 Cl1 1_555 1_555
O6 Cl1 1_555 1_555
O7 H33 1_555 1_555
H34 O7 1_555 1_555
O8 H35 1_555 1_555
H36 O8 1_555 1_555
O9 H37 1_555 1_555
H38 O9 1_555 1_555
Ag1A N4 1_555 1_555
N4A Ag1 1_555 1_555
C2 N1 1_555 1_555
C4 C5 1_555 1_555
C7 N2 1_555 1_555
C12 C13 1_555 1_555
C14 N2 1_555 1_555
C18 C19 1_555 1_555
C20 N3 1_555 1_555
C25 C26 1_555 1_555
C27 N3 1_555 1_555
C32 N4 1_555 1_555

#END
