
#######################################################################
#
#                 Cambridge Crystallographic Data Centre
#                                CCDC 
#
#######################################################################
#
# If this CIF has been generated from an entry in the Cambridge 
# Structural Database, then it will include bibliographic, chemical, 
# crystal, experimental, refinement or atomic coordinate data resulting 
# from the CCDC's data processing and validation procedures.
#
#######################################################################

data_DOPTEI
_symmetry_cell_setting           monoclinic
_symmetry_space_group_name_H-M   'C 2/c'
_symmetry_Int_Tables_number      15
_space_group_name_Hall           '-C 2yn'
loop_
_symmetry_equiv_pos_site_id
_symmetry_equiv_pos_as_xyz
1 x,y,z
2 -x,y,1/2-z
3 1/2+x,1/2+y,z
4 1/2-x,1/2+y,1/2-z
5 -x,-y,-z
6 x,-y,1/2+z
7 1/2-x,1/2-y,-z
8 1/2+x,1/2-y,1/2+z
_cell_length_a                   13.3035(17)
_cell_length_b                   11.6162(16)
_cell_length_c                   12.0194(17)
_cell_angle_alpha                90
_cell_angle_beta                 111.929(13)
_cell_angle_gamma                90
_cell_volume                     1723.04
loop_
_atom_site_label
_atom_site_type_symbol
_atom_site_fract_x
_atom_site_fract_y
_atom_site_fract_z
Ag1 Ag 0.08341(3) 0.53472(4) 0.15345(3)
N1 N 0.2494(3) 0.4086(4) 0.4082(4)
N2 N 0.1480(3) 0.4429(4) 0.3374(4)
N3 N 0.0927(3) 0.4516(4) 0.4057(4)
O1 O 0.0000 0.6860(6) 0.2500
N4 N 0.1538(3) 0.4210(4) 0.5198(4)
C1 C 0.2515(4) 0.3954(4) 0.5201(4)
N5 N 0.3376(4) 0.3574(4) 0.6127(4)
C2 C 0.3335(4) 0.3859(5) 0.3610(5)
H1 H 0.3055 0.4024 0.2748
H2 H 0.3963 0.4351 0.4020
H3 H 0.3553 0.3049 0.3744
H4 H 0.404(5) 0.352(5) 0.603(5)
H5 H -0.040(5) 0.728(6) 0.212(6)
H6 H 0.333(4) 0.351(4) 0.687(5)
Ag1A Ag -0.08341(3) 0.53472(4) 0.34655(3)
Ag1E Ag 0.08341(3) 0.46528(4) 0.65345(3)
Ag1D Ag -0.08341(3) 0.46528(4) -0.15345(3)
N1A N -0.2494(3) 0.4086(4) 0.0918(4)
N2A N -0.1480(3) 0.4429(4) 0.1626(4)
N3A N -0.0927(3) 0.4516(4) 0.0943(4)
N4A N -0.1538(3) 0.4210(4) -0.0198(4)
N4E N 0.1538(3) 0.5790(4) 0.0198(4)
N4D N -0.1538(3) 0.5790(4) 0.4802(4)
C1A C -0.2515(4) 0.3954(4) -0.0201(4)
N5A N -0.3376(4) 0.3574(4) -0.1127(4)
C2A C -0.3335(4) 0.3859(5) 0.1390(5)
H1A H -0.3055 0.4024 0.2252
H2A H -0.3963 0.4351 0.0980
H3A H -0.3553 0.3049 0.1256
H4A H -0.404(5) 0.352(5) -0.103(5)
H5A H 0.040(5) 0.728(6) 0.288(6)
H6A H -0.333(4) 0.351(4) -0.187(5)
Cl1 Cl -0.12937(10) 0.79886(12) -0.06532(11)
O2 O -0.2356(3) 0.8210(4) -0.1509(4)
O3 O -0.1095(4) 0.8630(4) 0.0424(4)
O4 O -0.1149(5) 0.6802(4) -0.0383(5)
O5 O -0.0548(4) 0.8373(6) -0.1190(5)
loop_
_geom_bond_atom_site_label_1
_geom_bond_atom_site_label_2
_geom_bond_site_symmetry_1
_geom_bond_site_symmetry_2
Ag1 N2 1_555 1_555
N1 N2 1_555 1_555
N2 N3 1_555 1_555
N3 N4 1_555 1_555
O1 Ag1 1_555 1_555
N4 C1 1_555 1_555
C1 N1 1_555 1_555
N5 C1 1_555 1_555
C2 N1 1_555 1_555
H1 C2 1_555 1_555
H2 C2 1_555 1_555
H3 C2 1_555 1_555
H4 N5 1_555 1_555
H5 O1 1_555 1_555
H6 N5 1_555 1_555
Cl1 O2 1_555 1_555
O3 Cl1 1_555 1_555
O4 Cl1 1_555 1_555
O5 Cl1 1_555 1_555
Ag1A N3 1_555 1_555
Ag1E N4 1_555 1_555
Ag1D N4A 1_555 1_555
N1A N2A 1_555 1_555
N2A Ag1A 1_555 1_555
N3A Ag1 1_555 1_555
N4A N3A 1_555 1_555
N4E Ag1 1_555 1_555
N4D Ag1A 1_555 1_555
C1A N1A 1_555 1_555
N5A C1A 1_555 1_555
C2A N1A 1_555 1_555
H1A C2A 1_555 1_555
H2A C2A 1_555 1_555
H3A C2A 1_555 1_555
H4A N5A 1_555 1_555
H5A O1 1_555 1_555
H6A N5A 1_555 1_555
O1 Ag1A 1_555 1_555
N2A N3A 1_555 1_555
N4A C1A 1_555 1_555

#END
