
#######################################################################
#
#                 Cambridge Crystallographic Data Centre
#                                CCDC 
#
#######################################################################
#
# If this CIF has been generated from an entry in the Cambridge 
# Structural Database, then it will include bibliographic, chemical, 
# crystal, experimental, refinement or atomic coordinate data resulting 
# from the CCDC's data processing and validation procedures.
#
#######################################################################

data_DOPTIM
_symmetry_cell_setting           monoclinic
_symmetry_space_group_name_H-M   'P 21/c'
_symmetry_Int_Tables_number      14
_space_group_name_Hall           '-P 2ybc'
loop_
_symmetry_equiv_pos_site_id
_symmetry_equiv_pos_as_xyz
1 x,y,z
2 -x,1/2+y,1/2-z
3 -x,-y,-z
4 x,1/2-y,1/2+z
_cell_length_a                   6.519(5)
_cell_length_b                   7.089(5)
_cell_length_c                   18.378(5)
_cell_angle_alpha                90
_cell_angle_beta                 96.901(5)
_cell_angle_gamma                90
_cell_volume                     843.153
loop_
_atom_site_label
_atom_site_type_symbol
_atom_site_fract_x
_atom_site_fract_y
_atom_site_fract_z
Ag1 Ag 0.96016(3) 0.21354(4) 0.835336(13)
Cl1 Cl 0.91060(12) 0.24474(11) 0.63210(4)
O1 O 0.9249(4) 0.3786(4) 0.57505(12)
O2 O 0.7065(4) 0.1688(5) 0.62777(16)
O3 O 0.9624(5) 0.3375(4) 0.70254(13)
O4 O 1.0558(4) 0.0947(4) 0.62613(16)
N1 N 1.3012(4) 0.2169(4) 0.85673(14)
N2 N 1.6394(4) 0.2167(4) 0.85636(15)
C1 C 1.2983(6) 0.2823(6) 0.98826(19)
N3 N 1.6012(5) 0.2521(4) 0.92472(16)
N4 N 1.4305(5) 0.1510(6) 0.74441(16)
N5 N 1.4023(4) 0.2502(4) 0.92303(15)
C2 C 1.4546(4) 0.1960(4) 0.81512(17)
H1 H 1.521(7) 0.161(6) 0.722(2)
H2 H 1.313(8) 0.153(8) 0.722(3)
H3 H 1.409(7) 0.301(6) 1.030(3)
H4 H 1.211(8) 0.179(6) 0.991(2)
H5 H 1.209(8) 0.387(7) 0.981(2)
Ag1A Ag 1.03984(3) 0.71354(4) 0.664664(13)
Ag1A_2 Ag 1.03984(3) -0.28646(4) 0.664664(13)
Ag1_2 Ag 1.96016(3) 0.21354(4) 0.835336(13)
O3A O 1.0376(5) -0.1625(4) 0.79746(13)
O4A O 0.9442(4) 0.5947(4) 0.87387(16)
N2_2 N 0.6394(4) 0.2167(4) 0.85636(15)
loop_
_geom_bond_atom_site_label_1
_geom_bond_atom_site_label_2
_geom_bond_site_symmetry_1
_geom_bond_site_symmetry_2
Ag1 O3 1_555 1_555
Cl1 O1 1_555 1_555
O2 Cl1 1_555 1_555
O3 Cl1 1_555 1_555
O4 Cl1 1_555 1_555
N1 Ag1 1_555 1_555
N2 N3 1_555 1_555
C1 N5 1_555 1_555
N3 N5 1_555 1_555
N4 C2 1_555 1_555
N5 N1 1_555 1_555
C2 N1 1_555 1_555
H1 N4 1_555 1_555
H2 N4 1_555 1_555
H3 C1 1_555 1_555
H4 C1 1_555 1_555
H5 C1 1_555 1_555
Ag1A O3 1_555 1_555
Ag1A_2 O4 1_555 1_555
Ag1_2 N2 1_555 1_555
O3A Ag1 1_555 1_555
O4A Ag1 1_555 1_555
N2_2 Ag1 1_555 1_555
N2 C2 1_555 1_555
Ag1A_2 O3A 1_555 1_555

#END
