
#######################################################################
#
#                 Cambridge Crystallographic Data Centre
#                                CCDC 
#
#######################################################################
#
# If this CIF has been generated from an entry in the Cambridge 
# Structural Database, then it will include bibliographic, chemical, 
# crystal, experimental, refinement or atomic coordinate data resulting 
# from the CCDC's data processing and validation procedures.
#
#######################################################################

data_DOPTEJ
_symmetry_cell_setting           triclinic
_symmetry_space_group_name_H-M   'P 1'
_symmetry_Int_Tables_number      1
_space_group_name_Hall           'P 1'
loop_
_symmetry_equiv_pos_site_id
_symmetry_equiv_pos_as_xyz
1 x,y,z
_cell_length_a                   9.1852(15)
_cell_length_b                   10.2742(17)
_cell_length_c                   10.3527(17)
_cell_angle_alpha                84.690(2)
_cell_angle_beta                 83.518(2)
_cell_angle_gamma                65.526(2)
_cell_volume                     882.39
loop_
_atom_site_label
_atom_site_type_symbol
_atom_site_fract_x
_atom_site_fract_y
_atom_site_fract_z
Ag1 Ag 0.61143(9) 0.94909(9) 0.27820(9)
C1 C 0.3224(12) 1.0263(12) 0.1119(10)
H1 H 0.3974 0.9463 0.0663
C2 C 0.2639(13) 1.1753(13) 0.2794(11)
H2 H 0.2949 1.2027 0.3534
C3 C 0.1096(14) 1.2521(13) 0.2405(12)
H3 H 0.0366 1.3325 0.2867
C4 C 0.0630(13) 1.2109(13) 0.1344(12)
H4 H -0.0428 1.2612 0.1081
C5 C 0.1707(11) 1.0973(10) 0.0680(10)
C6 C 0.1294(12) 1.0415(11) -0.0437(11)
H5 H 0.2306 0.9839 -0.0943
H6 H 0.0787 0.9759 -0.0086
C7 C -0.1221(10) 1.1337(10) -0.1588(10)
H7 H -0.1688 1.2055 -0.2314
C8 C -0.2495(13) 1.1726(14) -0.0403(11)
H8 H -0.2078 1.1035 0.0338
H9 H -0.2713 1.2694 -0.0134
C9 C -0.4026(13) 1.1692(15) -0.0757(14)
H10 H -0.4516 1.2479 -0.1411
H11 H -0.4792 1.1858 0.0028
C10 C -0.3742(13) 1.0239(13) -0.1316(13)
H12 H -0.3399 0.9468 -0.0624
H13 H -0.4759 1.0299 -0.1606
C11 C -0.2483(11) 0.9882(12) -0.2441(11)
H14 H -0.2876 1.0598 -0.3171
H15 H -0.2276 0.8930 -0.2743
C12 C -0.0920(10) 0.9873(11) -0.2044(9)
H16 H -0.0601 0.9180 -0.1276
C13 C 0.0332(12) 1.0227(11) -0.4290(10)
H17 H 0.1288 1.0453 -0.4432
H18 H -0.0628 1.1143 -0.4220
C14 C 0.0253(11) 0.9478(11) -0.5463(9)
C15 C 0.1588(12) 0.8668(12) -0.6224(10)
H19 H 0.2620 0.8554 -0.6026
C16 C 0.1437(12) 0.8018(13) -0.7277(11)
H20 H 0.2358 0.7445 -0.7804
C17 C -0.0083(13) 0.8219(13) -0.7549(11)
H21 H -0.0181 0.7763 -0.8271
C18 C -0.1224(12) 0.9679(14) -0.5800(10)
H22 H -0.2148 1.0292 -0.5300
C19 C 0.0906(12) 1.2288(12) -0.2061(11)
C20 C -0.0135(11) 1.3599(11) -0.2854(10)
C21 C -0.1607(12) 1.4577(12) -0.2362(12)
H23 H -0.2083 1.4398 -0.1540
C22 C -0.2382(14) 1.5854(12) -0.3119(14)
H24 H -0.3367 1.6569 -0.2785
C23 C -0.173(2) 1.6059(16) -0.4309(14)
H25 H -0.2286 1.6897 -0.4828
C24 C -0.0306(18) 1.5089(14) -0.4768(13)
H26 H 0.0126 1.5263 -0.5610
C25 C 0.0535(17) 1.3881(15) -0.4085(13)
H27 H 0.1559 1.3231 -0.4424
C26 C 0.1865(13) 0.8227(14) -0.2866(13)
C27 C 0.2010(11) 0.7167(10) -0.1761(10)
C28 C 0.0914(14) 0.6526(13) -0.1505(13)
H28 H 0.0007 0.6845 -0.1999
C29 C 0.1117(17) 0.5466(14) -0.0573(14)
H29 H 0.0369 0.5038 -0.0428
C30 C 0.2411(17) 0.5011(14) 0.0163(14)
H30 H 0.2555 0.4269 0.0820
C31 C 0.3527(14) 0.5645(14) -0.0057(12)
H31 H 0.4403 0.5356 0.0469
C32 C 0.3324(11) 0.6698(10) -0.1053(10)
H32 H 0.4099 0.7092 -0.1243
N1 N 0.3687(12) 1.0641(12) 0.2144(10)
N2 N 0.0252(10) 1.1453(9) -0.1314(9)
N3 N 0.0415(9) 0.9374(9) -0.3056(8)
N4 N -0.1438(11) 0.9029(12) -0.6841(10)
O1 O 0.2360(9) 1.2022(10) -0.2038(9)
O2 O 0.3062(9) 0.8115(9) -0.3622(8)
O3 O 0.5071(11) 0.9476(11) 0.5272(9)
H33 H 0.4461 0.9076 0.5605
H34 H 0.5897 0.9398 0.5626
Ag1_2 Ag -0.38857(9) 0.94909(9) -0.72180(9)
N4_2 N 0.8562(11) 0.9029(12) 0.3159(10)
Cl1 Cl 0.6921(4) 0.6356(5) 0.1459(4)
O4 O 0.688(3) 0.7371(17) 0.0398(17)
O5 O 0.5433(12) 0.6913(15) 0.2231(15)
O6 O 0.8140(16) 0.623(2) 0.2254(16)
O7 O 0.7389(12) 0.5011(8) 0.1019(9)
C33 C 0.5454(17) 1.3281(15) 0.5117(15)
H35 H 0.4733 1.3879 0.5804
H36 H 0.5458 1.3881 0.4324
H37 H 0.6544 1.2810 0.5400
O8 O 0.4910(11) 1.2215(10) 0.4855(10)
H38 H 0.4337 1.1864 0.5432
loop_
_geom_bond_atom_site_label_1
_geom_bond_atom_site_label_2
_geom_bond_site_symmetry_1
_geom_bond_site_symmetry_2
Ag1 N1 1_555 1_555
C1 H1 1_555 1_555
C2 H2 1_555 1_555
C3 C2 1_555 1_555
H3 C3 1_555 1_555
C4 C3 1_555 1_555
H4 C4 1_555 1_555
C5 C1 1_555 1_555
C6 C5 1_555 1_555
H5 C6 1_555 1_555
H6 C6 1_555 1_555
C7 H7 1_555 1_555
C8 C7 1_555 1_555
H8 C8 1_555 1_555
H9 C8 1_555 1_555
C9 C8 1_555 1_555
H10 C9 1_555 1_555
H11 C9 1_555 1_555
C10 C9 1_555 1_555
H12 C10 1_555 1_555
H13 C10 1_555 1_555
C11 C10 1_555 1_555
H14 C11 1_555 1_555
H15 C11 1_555 1_555
C12 C7 1_555 1_555
H16 C12 1_555 1_555
C13 H17 1_555 1_555
H18 C13 1_555 1_555
C14 C13 1_555 1_555
C15 C14 1_555 1_555
H19 C15 1_555 1_555
C16 C15 1_555 1_555
H20 C16 1_555 1_555
C17 C16 1_555 1_555
H21 C17 1_555 1_555
C18 C14 1_555 1_555
H22 C18 1_555 1_555
C19 C20 1_555 1_555
C20 C21 1_555 1_555
C21 H23 1_555 1_555
C22 C21 1_555 1_555
H24 C22 1_555 1_555
C23 C22 1_555 1_555
H25 C23 1_555 1_555
C24 C23 1_555 1_555
H26 C24 1_555 1_555
C25 C20 1_555 1_555
H27 C25 1_555 1_555
C26 C27 1_555 1_555
C27 C28 1_555 1_555
C28 H28 1_555 1_555
C29 C28 1_555 1_555
H29 C29 1_555 1_555
C30 C29 1_555 1_555
H30 C30 1_555 1_555
C31 C30 1_555 1_555
H31 C31 1_555 1_555
C32 C27 1_555 1_555
H32 C32 1_555 1_555
N1 C1 1_555 1_555
N2 C6 1_555 1_555
N3 C12 1_555 1_555
N4 C17 1_555 1_555
O1 C19 1_555 1_555
O2 C26 1_555 1_555
O3 Ag1 1_555 1_555
H33 O3 1_555 1_555
H34 O3 1_555 1_555
Cl1 O4 1_555 1_555
O5 Cl1 1_555 1_555
O6 Cl1 1_555 1_555
O7 Cl1 1_555 1_555
C33 H35 1_555 1_555
H36 C33 1_555 1_555
H37 C33 1_555 1_555
O8 C33 1_555 1_555
H38 O8 1_555 1_555
Ag1_2 N4 1_555 1_555
N4_2 Ag1 1_555 1_555
C2 N1 1_555 1_555
C4 C5 1_555 1_555
C7 N2 1_555 1_555
C11 C12 1_555 1_555
C13 N3 1_555 1_555
C18 N4 1_555 1_555
C19 N2 1_555 1_555
C24 C25 1_555 1_555
C26 N3 1_555 1_555
C31 C32 1_555 1_555

#END
