
#######################################################################
#
#                 Cambridge Crystallographic Data Centre
#                                CCDC 
#
#######################################################################
#
# If this CIF has been generated from an entry in the Cambridge 
# Structural Database, then it will include bibliographic, chemical, 
# crystal, experimental, refinement or atomic coordinate data resulting 
# from the CCDC's data processing and validation procedures.
#
#######################################################################

data_DOPVUA
_symmetry_cell_setting           triclinic
_symmetry_space_group_name_H-M   'P -1'
_symmetry_Int_Tables_number      2
_space_group_name_Hall           '-P 1'
loop_
_symmetry_equiv_pos_site_id
_symmetry_equiv_pos_as_xyz
1 x,y,z
2 -x,-y,-z
_cell_length_a                   8.4191(7)
_cell_length_b                   11.3237(9)
_cell_length_c                   12.6510(9)
_cell_angle_alpha                84.152(2)
_cell_angle_beta                 76.436(2)
_cell_angle_gamma                89.830(2)
_cell_volume                     1166.07
loop_
_atom_site_label
_atom_site_type_symbol
_atom_site_fract_x
_atom_site_fract_y
_atom_site_fract_z
Zn1 Zn 0.592336(14) 0.101149(10) 0.025162(10)
Si1 Si 0.60956(4) 0.29408(3) 0.37918(3)
O1 O 0.48417(9) -0.04758(7) 0.09904(6)
O2 O 0.84259(9) 0.03727(7) -0.00743(7)
C1 C 0.42573(13) -0.08876(9) 0.21265(9)
C2 C 0.40481(14) -0.22381(10) 0.22979(9)
C3 C 0.24899(15) -0.25228(11) 0.28182(10)
C4 C 0.15548(14) -0.14184(12) 0.30174(10)
C5 C 0.25424(14) -0.04698(10) 0.26105(9)
C6 C 0.54507(14) -0.04671(11) 0.27631(10)
H1 H 0.6530 -0.0796 0.2490
H2 H 0.5053 -0.0739 0.3541
H3 H 0.5533 0.0402 0.2665
C7 C 0.54534(16) -0.30308(11) 0.19623(11)
H4 H 0.6225 -0.2959 0.2425
H5 H 0.6005 -0.2799 0.1197
H6 H 0.5054 -0.3855 0.2044
C8 C 0.1724(2) -0.37354(13) 0.31835(13)
H7 H 0.2559 -0.4338 0.3018
H8 H 0.0864 -0.3856 0.2799
H9 H 0.1250 -0.3804 0.3973
C9 C -0.02059(16) -0.14384(16) 0.36314(12)
H10 H -0.0612 -0.0626 0.3628
H11 H -0.0300 -0.1781 0.4387
H12 H -0.0854 -0.1921 0.3279
C10 C 0.21914(17) 0.08184(12) 0.26477(12)
H13 H 0.1007 0.0927 0.2817
H14 H 0.2689 0.1252 0.1936
H15 H 0.2648 0.1123 0.3214
C11 C 0.58923(14) 0.29447(10) 0.23616(10)
C12 C 0.69965(14) 0.25396(10) 0.14891(10)
H16 H 0.8015 0.2195 0.1527
C13 C 0.63732(15) 0.27166(10) 0.05029(10)
H17 H 0.7165 0.3155 -0.0129
C14 C 0.48488(17) 0.33402(11) 0.08337(11)
H18 H 0.4167 0.3625 0.0367
C15 C 0.45648(16) 0.34469(11) 0.19276(11)
H19 H 0.3630 0.3800 0.2344
C16 C 0.75661(19) 0.17978(14) 0.41087(13)
H20 H 0.7185 0.1012 0.4001
H21 H 0.7638 0.1805 0.4870
H22 H 0.8646 0.1977 0.3622
C17 C 0.40568(17) 0.26288(13) 0.47601(11)
H23 H 0.3257 0.3182 0.4554
H24 H 0.4143 0.2729 0.5505
H25 H 0.3703 0.1812 0.4729
C18 C 0.6865(2) 0.44281(12) 0.40084(12)
H26 H 0.8002 0.4551 0.3595
H27 H 0.6804 0.4459 0.4788
H28 H 0.6191 0.5052 0.3755
C19 C 0.88378(13) -0.08622(10) -0.00410(11)
H29 H 0.9233 -0.1080 -0.0795
H30 H 0.7853 -0.1356 0.0316
C20 C 0.98591(13) 0.10995(11) -0.05820(11)
H31 H 0.9573 0.1949 -0.0593
H32 H 1.0273 0.0920 -0.1347
Zn1A Zn 0.407664(14) -0.101149(10) -0.025162(10)
Zn1A_2 Zn 1.407664(14) -0.101149(10) -0.025162(10)
Si1A Si 0.39044(4) -0.29408(3) -0.37918(3)
O1A O 0.51583(9) 0.04758(7) -0.09904(6)
O2A O 1.15741(9) -0.03727(7) 0.00743(7)
O2A_2 O 0.15741(9) -0.03727(7) 0.00743(7)
C1A C 0.57427(13) 0.08876(9) -0.21265(9)
C2A C 0.59519(14) 0.22381(10) -0.22979(9)
C3A C 0.75101(15) 0.25228(11) -0.28182(10)
C4A C 0.84452(14) 0.14184(12) -0.30174(10)
C5A C 0.74576(14) 0.04698(10) -0.26105(9)
C6A C 0.45493(14) 0.04671(11) -0.27631(10)
H1A H 0.3470 0.0796 -0.2490
H2A H 0.4947 0.0739 -0.3541
H3A H 0.4467 -0.0402 -0.2665
C7A C 0.45466(16) 0.30308(11) -0.19623(11)
H4A H 0.3775 0.2959 -0.2425
H5A H 0.3995 0.2799 -0.1197
H6A H 0.4946 0.3855 -0.2044
C8A C 0.8276(2) 0.37354(13) -0.31835(13)
H7A H 0.7441 0.4338 -0.3018
H8A H 0.9136 0.3856 -0.2799
H9A H 0.8750 0.3804 -0.3973
C9A C 1.02059(16) 0.14384(16) -0.36314(12)
H10A H 1.0612 0.0626 -0.3628
H11A H 1.0300 0.1781 -0.4387
H12A H 1.0854 0.1921 -0.3279
C10A C 0.78086(17) -0.08184(12) -0.26477(12)
H13A H 0.8993 -0.0927 -0.2817
H14A H 0.7311 -0.1252 -0.1936
H15A H 0.7352 -0.1123 -0.3214
C11A C 0.41077(14) -0.29447(10) -0.23616(10)
C12A C 0.30035(14) -0.25396(10) -0.14891(10)
H16A H 0.1985 -0.2195 -0.1527
C13A C 0.36268(15) -0.27166(10) -0.05029(10)
H17A H 0.2835 -0.3155 0.0129
C14A C 0.51512(17) -0.33402(11) -0.08337(11)
H18A H 0.5833 -0.3625 -0.0367
C15A C 0.54352(16) -0.34469(11) -0.19276(11)
H19A H 0.6370 -0.3800 -0.2344
C16A C 0.24339(19) -0.17978(14) -0.41087(13)
H20A H 0.2815 -0.1012 -0.4001
H21A H 0.2362 -0.1805 -0.4870
H22A H 0.1354 -0.1977 -0.3622
C17A C 0.59432(17) -0.26288(13) -0.47601(11)
H23A H 0.6743 -0.3182 -0.4554
H24A H 0.5857 -0.2729 -0.5505
H25A H 0.6297 -0.1812 -0.4729
C18A C 0.3135(2) -0.44281(12) -0.40084(12)
H26A H 0.1998 -0.4551 -0.3595
H27A H 0.3196 -0.4459 -0.4788
H28A H 0.3809 -0.5052 -0.3755
C19A C 1.11622(13) 0.08622(10) 0.00410(11)
H29A H 1.0767 0.1080 0.0795
H30A H 1.2147 0.1356 -0.0316
C20A C 1.01409(13) -0.10995(11) 0.05820(11)
H31A H 1.0427 -0.1949 0.0593
H32A H 0.9727 -0.0920 0.1347
O3 O 0.06672(11) 0.38452(8) 0.99998(8)
C21 C 0.09693(16) 0.46669(11) 0.90340(12)
H33 H 0.1107 0.4226 0.8383
H34 H 0.1994 0.5123 0.8973
C22 C 0.04318(17) 0.44849(12) 1.09342(12)
H35 H 0.1445 0.4937 1.0914
H36 H 0.0196 0.3920 1.1605
O3A O -0.06672(11) 0.61548(8) 1.00002(8)
C21A C -0.09693(16) 0.53331(11) 1.09660(12)
H33A H -0.1107 0.5774 1.1617
H34A H -0.1994 0.4877 1.1027
C22A C -0.04318(17) 0.55151(12) 0.90658(12)
H35A H -0.1445 0.5063 0.9086
H36A H -0.0196 0.6080 0.8395
loop_
_geom_bond_atom_site_label_1
_geom_bond_atom_site_label_2
_geom_bond_site_symmetry_1
_geom_bond_site_symmetry_2
Zn1 O1 1_555 1_555
Si1 C11 1_555 1_555
O1 C1 1_555 1_555
O2 Zn1 1_555 1_555
O3 C21 1_555 1_555
C1 C2 1_555 1_555
C2 C3 1_555 1_555
C3 C4 1_555 1_555
C4 C5 1_555 1_555
C5 C1 1_555 1_555
C6 C1 1_555 1_555
H1 C6 1_555 1_555
H2 C6 1_555 1_555
H3 C6 1_555 1_555
C7 C2 1_555 1_555
H4 C7 1_555 1_555
H5 C7 1_555 1_555
H6 C7 1_555 1_555
C8 C3 1_555 1_555
H7 C8 1_555 1_555
H8 C8 1_555 1_555
H9 C8 1_555 1_555
C9 C4 1_555 1_555
H10 C9 1_555 1_555
H11 C9 1_555 1_555
H12 C9 1_555 1_555
C10 C5 1_555 1_555
H13 C10 1_555 1_555
H14 C10 1_555 1_555
H15 C10 1_555 1_555
C11 C12 1_555 1_555
C12 H16 1_555 1_555
C13 Zn1 1_555 1_555
H17 C13 1_555 1_555
C14 C13 1_555 1_555
H18 C14 1_555 1_555
C15 C11 1_555 1_555
H19 C15 1_555 1_555
C16 Si1 1_555 1_555
H20 C16 1_555 1_555
H21 C16 1_555 1_555
H22 C16 1_555 1_555
C17 Si1 1_555 1_555
H23 C17 1_555 1_555
H24 C17 1_555 1_555
H25 C17 1_555 1_555
C18 Si1 1_555 1_555
H26 C18 1_555 1_555
H27 C18 1_555 1_555
H28 C18 1_555 1_555
C19 O2 1_555 1_555
H29 C19 1_555 1_555
H30 C19 1_555 1_555
C20 O2 1_555 1_555
H31 C20 1_555 1_555
H32 C20 1_555 1_555
C21 H33 1_555 1_555
H34 C21 1_555 1_555
C22 O3 1_555 1_555
H35 C22 1_555 1_555
H36 C22 1_555 1_555
Zn1A O1 1_555 1_555
Zn1A_2 O2A 1_555 1_555
Si1A C11A 1_555 1_555
O1A Zn1 1_555 1_555
O2A C19A 1_555 1_555
O2A_2 Zn1A 1_555 1_555
O3A C21A 1_555 1_555
C1A O1A 1_555 1_555
C2A C1A 1_555 1_555
C3A C2A 1_555 1_555
C4A C3A 1_555 1_555
C5A C1A 1_555 1_555
C6A C1A 1_555 1_555
H1A C6A 1_555 1_555
H2A C6A 1_555 1_555
H3A C6A 1_555 1_555
C7A C2A 1_555 1_555
H4A C7A 1_555 1_555
H5A C7A 1_555 1_555
H6A C7A 1_555 1_555
C8A C3A 1_555 1_555
H7A C8A 1_555 1_555
H8A C8A 1_555 1_555
H9A C8A 1_555 1_555
C9A C4A 1_555 1_555
H10A C9A 1_555 1_555
H11A C9A 1_555 1_555
H12A C9A 1_555 1_555
C10A C5A 1_555 1_555
H13A C10A 1_555 1_555
H14A C10A 1_555 1_555
H15A C10A 1_555 1_555
C11A C12A 1_555 1_555
C12A H16A 1_555 1_555
C13A Zn1A 1_555 1_555
H17A C13A 1_555 1_555
C14A C13A 1_555 1_555
H18A C14A 1_555 1_555
C15A C11A 1_555 1_555
H19A C15A 1_555 1_555
C16A Si1A 1_555 1_555
H20A C16A 1_555 1_555
H21A C16A 1_555 1_555
H22A C16A 1_555 1_555
C17A Si1A 1_555 1_555
H23A C17A 1_555 1_555
H24A C17A 1_555 1_555
H25A C17A 1_555 1_555
C18A Si1A 1_555 1_555
H26A C18A 1_555 1_555
H27A C18A 1_555 1_555
H28A C18A 1_555 1_555
C19A C20 1_555 1_555
H29A C19A 1_555 1_555
H30A C19A 1_555 1_555
C20A C19 1_555 1_555
H31A C20A 1_555 1_555
H32A C20A 1_555 1_555
C21A C22 1_555 1_555
H33A C21A 1_555 1_555
H34A C21A 1_555 1_555
C22A C21 1_555 1_555
H35A C22A 1_555 1_555
H36A C22A 1_555 1_555
C12 C13 1_555 1_555
C14 C15 1_555 1_555
Zn1A O1A 1_555 1_555
O2A C20A 1_555 1_555
O3A C22A 1_555 1_555
C4A C5A 1_555 1_555
C12A C13A 1_555 1_555
C14A C15A 1_555 1_555

#END
