
#######################################################################
#
#                 Cambridge Crystallographic Data Centre
#                                CCDC 
#
#######################################################################
#
# If this CIF has been generated from an entry in the Cambridge 
# Structural Database, then it will include bibliographic, chemical, 
# crystal, experimental, refinement or atomic coordinate data resulting 
# from the CCDC's data processing and validation procedures.
#
#######################################################################

data_DOPYAJ
_symmetry_cell_setting           orthorhombic
_symmetry_space_group_name_H-M   'P n m a'
_symmetry_Int_Tables_number      62
_space_group_name_Hall           '-P 2ac 2n'
loop_
_symmetry_equiv_pos_site_id
_symmetry_equiv_pos_as_xyz
1 x,y,z
2 1/2-x,-y,1/2+z
3 -x,1/2+y,-z
4 1/2+x,1/2-y,1/2-z
5 -x,-y,-z
6 1/2+x,y,1/2-z
7 x,1/2-y,z
8 1/2-x,1/2+y,1/2+z
_cell_length_a                   6.0621(4)
_cell_length_b                   10.2156(8)
_cell_length_c                   13.9518(8)
_cell_angle_alpha                90
_cell_angle_beta                 90
_cell_angle_gamma                90
_cell_volume                     864.007
loop_
_atom_site_label
_atom_site_type_symbol
_atom_site_fract_x
_atom_site_fract_y
_atom_site_fract_z
Zn1 Zn 0.60813(4) 0.2500 0.509966(18)
Cl1 Cl 0.32100(8) 0.2500 0.41202(4)
Cl2 Cl 0.51702(10) 0.2500 0.66491(4)
N1 N 0.8362(2) 0.40415(14) 0.49767(9)
C1 C 0.8862(2) 0.47287(15) 0.41766(11)
C2 C 0.9500(3) 0.43134(15) 0.57792(11)
H1 H 0.9173 0.3830 0.6343
C3 C 0.7707(3) 0.44388(17) 0.32588(11)
H2 H 0.8303 0.3631 0.2982
H3 H 0.7932 0.5165 0.2810
H4 H 0.6125 0.4329 0.3381
Zn1B Zn 1.39187(4) 0.7500 0.490034(18)
N1D N 1.1638(2) 0.59585(14) 0.50233(9)
N1F N 0.8362(2) 0.09585(14) 0.49767(9)
C1D C 1.1138(2) 0.52713(15) 0.58234(11)
C2D C 1.0500(3) 0.56866(15) 0.42208(11)
H1D H 1.0827 0.6170 0.3657
C3D C 1.2293(3) 0.55612(17) 0.67412(11)
H2D H 1.1697 0.6369 0.7018
H3D H 1.2068 0.4835 0.7190
H4D H 1.3875 0.5671 0.6619
loop_
_geom_bond_atom_site_label_1
_geom_bond_atom_site_label_2
_geom_bond_site_symmetry_1
_geom_bond_site_symmetry_2
Zn1 Cl1 1_555 1_555
Cl2 Zn1 1_555 1_555
N1 Zn1 1_555 1_555
C1 N1 1_555 1_555
C2 N1 1_555 1_555
H1 C2 1_555 1_555
C3 C1 1_555 1_555
H2 C3 1_555 1_555
H3 C3 1_555 1_555
H4 C3 1_555 1_555
Zn1B N1D 1_555 1_555
N1D C1D 1_555 1_555
N1F Zn1 1_555 1_555
C1D C2 1_555 1_555
C2D C1 1_555 1_555
H1D C2D 1_555 1_555
C3D C1D 1_555 1_555
H2D C3D 1_555 1_555
H3D C3D 1_555 1_555
H4D C3D 1_555 1_555
N1D C2D 1_555 1_555

#END
