
#######################################################################
#
#                 Cambridge Crystallographic Data Centre
#                                CCDC 
#
#######################################################################
#
# If this CIF has been generated from an entry in the Cambridge 
# Structural Database, then it will include bibliographic, chemical, 
# crystal, experimental, refinement or atomic coordinate data resulting 
# from the CCDC's data processing and validation procedures.
#
#######################################################################

data_DOPZAK
_symmetry_cell_setting           monoclinic
_symmetry_space_group_name_H-M   'C 2/c'
_symmetry_Int_Tables_number      15
_space_group_name_Hall           '-C 2yn'
loop_
_symmetry_equiv_pos_site_id
_symmetry_equiv_pos_as_xyz
1 x,y,z
2 -x,y,1/2-z
3 1/2+x,1/2+y,z
4 1/2-x,1/2+y,1/2-z
5 -x,-y,-z
6 x,-y,1/2+z
7 1/2-x,1/2-y,-z
8 1/2+x,1/2-y,1/2+z
_cell_length_a                   16.6286(13)
_cell_length_b                   6.8351(4)
_cell_length_c                   10.0199(8)
_cell_angle_alpha                90
_cell_angle_beta                 113.947(9)
_cell_angle_gamma                90
_cell_volume                     1040.81
loop_
_atom_site_label
_atom_site_type_symbol
_atom_site_fract_x
_atom_site_fract_y
_atom_site_fract_z
Zn1 Zn 0.5000 0.36132(7) 0.2500
I1 I 0.633887(14) 0.57426(3) 0.39289(2)
N1 N 0.49383(16) 0.1479(4) 0.4007(2)
C1 C 0.4230(2) 0.0364(4) 0.3816(3)
C2 C 0.56858(19) 0.1119(4) 0.5173(3)
H1 H 0.6185 0.1910 0.5322
C3 C 0.3371(2) 0.0730(4) 0.2563(3)
H2 H 0.3179 0.2072 0.2617
H3 H 0.2931 -0.0193 0.2604
H4 H 0.3440 0.0552 0.1644
Zn1D Zn 0.5000 -0.36132(7) 0.7500
I1A I 0.366113(14) 0.57426(3) 0.10711(2)
N1D N 0.50617(16) -0.1479(4) 0.5993(2)
N1A N 0.50617(16) 0.1479(4) 0.0993(2)
C1D C 0.5770(2) -0.0364(4) 0.6184(3)
C2D C 0.43142(19) -0.1119(4) 0.4827(3)
H1D H 0.3815 -0.1910 0.4678
C3D C 0.6629(2) -0.0730(4) 0.7437(3)
H2D H 0.6821 -0.2072 0.7383
H3D H 0.7069 0.0193 0.7396
H4D H 0.6560 -0.0552 0.8356
loop_
_geom_bond_atom_site_label_1
_geom_bond_atom_site_label_2
_geom_bond_site_symmetry_1
_geom_bond_site_symmetry_2
Zn1 I1 1_555 1_555
N1 Zn1 1_555 1_555
C1 N1 1_555 1_555
C2 N1 1_555 1_555
H1 C2 1_555 1_555
C3 C1 1_555 1_555
H2 C3 1_555 1_555
H3 C3 1_555 1_555
H4 C3 1_555 1_555
Zn1D N1D 1_555 1_555
I1A Zn1 1_555 1_555
N1D C1D 1_555 1_555
N1A Zn1 1_555 1_555
C1D C2 1_555 1_555
C2D C1 1_555 1_555
H1D C2D 1_555 1_555
C3D C1D 1_555 1_555
H2D C3D 1_555 1_555
H3D C3D 1_555 1_555
H4D C3D 1_555 1_555
N1D C2D 1_555 1_555

#END
