
#######################################################################
#
#                 Cambridge Crystallographic Data Centre
#                                CCDC 
#
#######################################################################
#
# If this CIF has been generated from an entry in the Cambridge 
# Structural Database, then it will include bibliographic, chemical, 
# crystal, experimental, refinement or atomic coordinate data resulting 
# from the CCDC's data processing and validation procedures.
#
#######################################################################

data_DOQBER
_symmetry_cell_setting           monoclinic
_symmetry_space_group_name_H-M   'P 21/n'
_symmetry_Int_Tables_number      14
_space_group_name_Hall           '-P 2yn'
loop_
_symmetry_equiv_pos_site_id
_symmetry_equiv_pos_as_xyz
1 x,y,z
2 1/2-x,1/2+y,1/2-z
3 -x,-y,-z
4 1/2+x,1/2-y,1/2+z
_cell_length_a                   8.1852(6)
_cell_length_b                   14.7701(11)
_cell_length_c                   14.1703(10)
_cell_angle_alpha                90
_cell_angle_beta                 106.469(7)
_cell_angle_gamma                90
_cell_volume                     1642.85
loop_
_atom_site_label
_atom_site_type_symbol
_atom_site_fract_x
_atom_site_fract_y
_atom_site_fract_z
C1 C 0.0228(7) 0.1207(4) 0.7072(4)
H1 H 0.0074 0.1103 0.7689
C2 C 0.1709(7) 0.1642(4) 0.7002(5)
H2 H 0.2537 0.1828 0.7565
C3 C 0.1912(7) 0.1786(4) 0.6100(4)
H3 H 0.2886 0.2076 0.6041
C4 C 0.0704(7) 0.1510(4) 0.5281(4)
H4 H 0.0835 0.1611 0.4659
C5 C -0.0725(7) 0.1076(3) 0.5391(4)
C6 C -0.2132(7) 0.0757(3) 0.4615(4)
C7 C -0.3775(7) 0.0435(4) 0.3184(4)
C8 C -0.3273(8) 0.0707(4) 0.1601(4)
H5 H -0.3875 0.0597 0.0924
H6 H -0.2198 0.0397 0.1763
H7 H -0.3082 0.1345 0.1704
C9 C -0.1385(7) -0.1489(4) 0.7105(4)
C10 C -0.1114(7) -0.2986(5) 0.7560(4)
N1 N -0.0950(5) 0.0943(3) 0.6279(3)
N2 N -0.3472(5) 0.0392(3) 0.4763(3)
N3 N -0.4551(5) 0.0164(3) 0.3853(3)
N4 N -0.4287(7) 0.0373(4) 0.2232(3)
N5 N -0.1951(6) -0.0793(3) 0.6917(4)
N6 N -0.1449(5) -0.3685(3) 0.7806(3)
N7 N -0.0542(6) -0.2232(3) 0.7271(4)
O1 O -0.2214(4) 0.0797(2) 0.3646(3)
Cu1 Cu -0.31738(8) 0.03569(4) 0.63260(5)
H8 H -0.530(6) 0.018(3) 0.193(3)
N3B N -0.5449(5) -0.0164(3) 0.6147(3)
N6A N -0.3551(5) 0.1315(3) 0.7194(3)
Cu1B Cu -0.68262(8) -0.03569(4) 0.36740(5)
Cu1A Cu -0.18262(8) -0.46431(4) 0.86740(5)
O2 O 0.4069(12) 0.7559(4) 0.6066(5)
O3 O 0.3057(11) 0.7193(5) 0.4431(6)
O4 O 0.4426(9) 0.6148(4) 0.5561(4)
O5 O 0.5763(15) 0.7310(10) 0.5160(9)
Cl1 Cl 0.4351(4) 0.70627(16) 0.52899(18)
O6 O -0.7247(6) -0.0117(3) 0.0817(3)
loop_
_geom_bond_atom_site_label_1
_geom_bond_atom_site_label_2
_geom_bond_site_symmetry_1
_geom_bond_site_symmetry_2
C1 H1 1_555 1_555
C2 C1 1_555 1_555
H2 C2 1_555 1_555
C3 C2 1_555 1_555
H3 C3 1_555 1_555
C4 C3 1_555 1_555
H4 C4 1_555 1_555
C5 C4 1_555 1_555
C6 C5 1_555 1_555
C7 N3 1_555 1_555
C8 H5 1_555 1_555
H6 C8 1_555 1_555
H7 C8 1_555 1_555
C9 N5 1_555 1_555
C10 N6 1_555 1_555
N1 C1 1_555 1_555
N2 C6 1_555 1_555
N3 N2 1_555 1_555
N4 C7 1_555 1_555
N5 Cu1 1_555 1_555
N6 Cu1A 1_555 1_555
N7 C9 1_555 1_555
O1 C6 1_555 1_555
O2 Cl1 1_555 1_555
O3 Cl1 1_555 1_555
O4 Cl1 1_555 1_555
O5 Cl1 1_555 1_555
Cu1 N1 1_555 1_555
H8 N4 1_555 1_555
N3B Cu1 1_555 1_555
N6A Cu1 1_555 1_555
Cu1B N3 1_555 1_555
C5 N1 1_555 1_555
C7 O1 1_555 1_555
C8 N4 1_555 1_555
C10 N7 1_555 1_555
N2 Cu1 1_555 1_555

#END
