
#######################################################################
#
#                 Cambridge Crystallographic Data Centre
#                                CCDC 
#
#######################################################################
#
# If this CIF has been generated from an entry in the Cambridge 
# Structural Database, then it will include bibliographic, chemical, 
# crystal, experimental, refinement or atomic coordinate data resulting 
# from the CCDC's data processing and validation procedures.
#
#######################################################################

data_DOQGUM
_symmetry_cell_setting           monoclinic
_symmetry_space_group_name_H-M   'P 21/c'
_symmetry_Int_Tables_number      14
_space_group_name_Hall           '-P 2ybc'
loop_
_symmetry_equiv_pos_site_id
_symmetry_equiv_pos_as_xyz
1 x,y,z
2 -x,1/2+y,1/2-z
3 -x,-y,-z
4 x,1/2-y,1/2+z
_cell_length_a                   7.1991(6)
_cell_length_b                   13.3838(11)
_cell_length_c                   10.2926(8)
_cell_angle_alpha                90
_cell_angle_beta                 98.8980(10)
_cell_angle_gamma                90
_cell_volume                     979.771
loop_
_atom_site_label
_atom_site_type_symbol
_atom_site_fract_x
_atom_site_fract_y
_atom_site_fract_z
La1 La 0.84072(2) 0.094057(12) 0.717622(17)
P1 P 1.21498(11) -0.05193(6) 0.92640(8)
O1 O 1.3978(4) -0.08400(17) 0.8708(3)
H1 H 1.4100 -0.0491 0.8072
O2 O 1.1353(3) 0.04476(16) 0.8685(2)
O3 O 1.2569(3) -0.05794(18) 1.0732(2)
O4 O 1.1496(3) -0.24478(15) 0.9240(2)
H2 H 1.1265 -0.2559 0.9982
O5 O 0.9213(4) -0.08891(16) 0.6673(3)
O6 O 1.0403(4) -0.24278(16) 0.6697(2)
O7 O 0.6901(3) 0.07647(18) 0.4793(3)
O8 O 0.4674(3) 0.00985(19) 0.3292(2)
O9 O 1.1378(4) 0.1167(2) 0.6065(3)
H3 H 1.2086 0.0660 0.6227
H4 H 1.1049 0.1224 0.5239
O10 O 0.5466(4) 0.2066(2) 0.7245(3)
H5 H 0.4733 0.1779 0.7700
H6 H 0.5813 0.2625 0.7593
C1 C 1.0546(4) -0.1560(2) 0.8737(3)
H9 H 0.9398 -0.1481 0.9129
C2 C 1.0026(4) -0.1629(2) 0.7255(3)
C3 C 0.5465(5) 0.0260(2) 0.4452(3)
La1B La 1.15928(2) -0.094057(12) 1.282378(17)
La1A La 1.15928(2) -0.405943(12) 0.782378(17)
La1B_2 La 0.15928(2) -0.094057(12) 0.282378(17)
La1C La 0.84072(2) 0.405943(12) 1.217622(17)
P1B P 0.78502(11) 0.05193(6) 1.07360(8)
O1B O 0.6022(4) 0.08400(17) 1.1292(3)
H1B H 0.5900 0.0491 1.1928
O2B O 0.8647(3) -0.04476(16) 1.1315(2)
O3B O 0.7431(3) 0.05794(18) 0.9268(2)
O4B O 0.8504(3) 0.24478(15) 1.0760(2)
O4A O 0.8504(3) 0.25522(15) 0.5760(2)
O4C O 1.1496(3) -0.25522(15) 1.4240(2)
H2B H 0.8735 0.2559 1.0018
H2A H 0.8735 0.2441 0.5018
H2C H 1.1265 -0.2441 1.4982
O5B O 1.0787(4) 0.08891(16) 1.3327(3)
O6B O 0.9597(4) 0.24278(16) 1.3303(2)
O6A O 0.9597(4) 0.25722(16) 0.8303(2)
O6C O 1.0403(4) -0.25722(16) 1.1697(2)
O7B O 0.3099(3) -0.07647(18) 0.5207(3)
O7B_2 O 1.3099(3) -0.07647(18) 1.5207(3)
O8B O 0.5326(3) -0.00985(19) 0.6708(2)
O8_2 O 1.4674(3) 0.00985(19) 1.3292(2)
O9B O 0.8622(4) -0.1167(2) 1.3935(3)
H3B H 0.7914 -0.0660 1.3773
H4B H 0.8951 -0.1224 1.4761
O10B O 1.4534(4) -0.2066(2) 1.2755(3)
H5B H 1.5267 -0.1779 1.2300
H6B H 1.4187 -0.2625 1.2407
C1B C 0.9454(4) 0.1560(2) 1.1263(3)
H9B H 1.0602 0.1481 1.0871
C2B C 0.9974(4) 0.1629(2) 1.2745(3)
C3B C 0.4535(5) -0.0260(2) 0.5548(3)
O11 O 0.3731(4) 0.2177(2) 0.9402(3)
H7 H 0.3865 0.1928 1.0170
H8 H 0.3821 0.2810 0.9456
loop_
_geom_bond_atom_site_label_1
_geom_bond_atom_site_label_2
_geom_bond_site_symmetry_1
_geom_bond_site_symmetry_2
La1 O2 1_555 1_555
P1 O1 1_555 1_555
O1 H1 1_555 1_555
O2 P1 1_555 1_555
O3 P1 1_555 1_555
O4 H2 1_555 1_555
O5 La1 1_555 1_555
O6 C2 1_555 1_555
O7 La1 1_555 1_555
O8 C3 1_555 1_555
O9 La1 1_555 1_555
H3 O9 1_555 1_555
H4 O9 1_555 1_555
O10 La1 1_555 1_555
H5 O10 1_555 1_555
H6 O10 1_555 1_555
O11 H7 1_555 1_555
H8 O11 1_555 1_555
C1 P1 1_555 1_555
H9 C1 1_555 1_555
C2 O5 1_555 1_555
C3 O7 1_555 1_555
La1B O3 1_555 1_555
La1A O4 1_555 1_555
La1B_2 O8 1_555 1_555
La1C O4B 1_555 1_555
P1B O1B 1_555 1_555
O1B H1B 1_555 1_555
O2B La1B 1_555 1_555
O3B La1 1_555 1_555
O4B H2B 1_555 1_555
O4A La1 1_555 1_555
O4C La1B 1_555 1_555
H2A O4A 1_555 1_555
H2C O4C 1_555 1_555
O5B La1B 1_555 1_555
O6B La1C 1_555 1_555
O6A La1 1_555 1_555
O6C La1B 1_555 1_555
O7B La1B_2 1_555 1_555
O7B_2 La1B 1_555 1_555
O8B La1 1_555 1_555
O8_2 La1B 1_555 1_555
O9B La1B 1_555 1_555
H3B O9B 1_555 1_555
H4B O9B 1_555 1_555
O10B La1B 1_555 1_555
H5B O10B 1_555 1_555
H6B O10B 1_555 1_555
C1B P1B 1_555 1_555
H9B C1B 1_555 1_555
C2B O5B 1_555 1_555
C3B C3 1_555 1_555
O4 C1 1_555 1_555
O6 La1A 1_555 1_555
C1 C2 1_555 1_555
P1B O2B 1_555 1_555
P1B O3B 1_555 1_555
O4B C1B 1_555 1_555
O6B C2B 1_555 1_555
O7B C3B 1_555 1_555
O8B C3B 1_555 1_555
C1B C2B 1_555 1_555

#END
