
#######################################################################
#
#                 Cambridge Crystallographic Data Centre
#                                CCDC 
#
#######################################################################
#
# If this CIF has been generated from an entry in the Cambridge 
# Structural Database, then it will include bibliographic, chemical, 
# crystal, experimental, refinement or atomic coordinate data resulting 
# from the CCDC's data processing and validation procedures.
#
#######################################################################

data_DOQGEV
_symmetry_cell_setting           monoclinic
_symmetry_space_group_name_H-M   'P 21/c'
_symmetry_Int_Tables_number      14
_space_group_name_Hall           '-P 2ybc'
loop_
_symmetry_equiv_pos_site_id
_symmetry_equiv_pos_as_xyz
1 x,y,z
2 -x,1/2+y,1/2-z
3 -x,-y,-z
4 x,1/2-y,1/2+z
_cell_length_a                   6.208(2)
_cell_length_b                   9.158(2)
_cell_length_c                   11.198(2)
_cell_angle_alpha                90
_cell_angle_beta                 90.89(3)
_cell_angle_gamma                90
_cell_volume                     636.562
loop_
_atom_site_label
_atom_site_type_symbol
_atom_site_fract_x
_atom_site_fract_y
_atom_site_fract_z
N1 N 0.468(3) 0.165(2) 0.750(1)
N2 N 0.122(2) -0.004(2) 0.898(1)
N3 N 0.120(2) -0.018(2) 0.606(1)
C1 C 0.534(3) 0.278(2) 0.748(2)
C2 C 0.186(3) 0.071(3) 0.995(2)
C3 C -0.063(3) -0.071(3) 0.904(2)
C4 C -0.065(3) 0.050(3) 0.602(2)
C5 C 0.178(3) -0.075(3) 0.501(2)
H1 H 0.3184 0.1242 0.9926
H2 H -0.1148 -0.1227 0.8345
H3 H -0.1213 0.0855 0.6762
H4 H 0.3080 -0.1331 0.4998
Cu1 Cu 0.3432(4) -0.0296(2) 0.7526(2)
Cu1A Cu 0.6568(4) 0.4704(2) 0.7474(2)
C3B C 0.063(3) 0.071(3) 1.096(2)
C2B C -0.186(3) -0.071(3) 1.005(2)
C5B C -0.178(3) 0.075(3) 0.499(2)
C4B C 0.065(3) -0.050(3) 0.398(2)
C1A C 0.466(3) -0.222(2) 0.752(2)
N2B N -0.122(2) 0.004(2) 1.102(1)
H2B H 0.1148 0.1227 1.1655
H1B H -0.3184 -0.1242 1.0074
N3B N -0.120(2) 0.018(2) 0.394(1)
H4B H -0.3080 0.1331 0.5002
H3B H 0.1213 -0.0855 0.3238
N1A N 0.532(3) -0.335(2) 0.750(1)
Cu1B Cu -0.3432(4) 0.0296(2) 1.2474(2)
Cu1B_2 Cu -0.3432(4) 0.0296(2) 0.2474(2)
Cu1A_2 Cu 0.6568(4) -0.5296(2) 0.7474(2)
N1B N -0.468(3) -0.165(2) 0.250(1)
N2B_2 N -0.122(2) 0.004(2) 0.102(1)
C1C C -0.466(3) 0.222(2) 0.248(2)
loop_
_geom_bond_atom_site_label_1
_geom_bond_atom_site_label_2
_geom_bond_site_symmetry_1
_geom_bond_site_symmetry_2
N1 C1 1_555 1_555
N2 C2 1_555 1_555
N3 C4 1_555 1_555
C1 Cu1A 1_555 1_555
C2 H1 1_555 1_555
C3 N2 1_555 1_555
C4 H3 1_555 1_555
C5 N3 1_555 1_555
H2 C3 1_555 1_555
H4 C5 1_555 1_555
Cu1 N1 1_555 1_555
C3B C2 1_555 1_555
C2B C3 1_555 1_555
C5B C4 1_555 1_555
C4B C5 1_555 1_555
C1A Cu1 1_555 1_555
N2B C3B 1_555 1_555
H2B C3B 1_555 1_555
H1B C2B 1_555 1_555
N3B C5B 1_555 1_555
H4B C5B 1_555 1_555
H3B C4B 1_555 1_555
N1A C1A 1_555 1_555
Cu1B N2B 1_555 1_555
Cu1B_2 N3B 1_555 1_555
Cu1A_2 N1A 1_555 1_555
N1B Cu1B_2 1_555 1_555
N2B_2 Cu1B_2 1_555 1_555
C1C Cu1B_2 1_555 1_555
N2 Cu1 1_555 1_555
N3 Cu1 1_555 1_555
C2B N2B 1_555 1_555
C4B N3B 1_555 1_555

#END
