
#######################################################################
#
#                 Cambridge Crystallographic Data Centre
#                                CCDC 
#
#######################################################################
#
# If this CIF has been generated from an entry in the Cambridge 
# Structural Database, then it will include bibliographic, chemical, 
# crystal, experimental, refinement or atomic coordinate data resulting 
# from the CCDC's data processing and validation procedures.
#
#######################################################################

data_DOQGIZ
_symmetry_cell_setting           monoclinic
_symmetry_space_group_name_H-M   'C 2/m'
_symmetry_Int_Tables_number      12
_space_group_name_Hall           '-C 2y'
loop_
_symmetry_equiv_pos_site_id
_symmetry_equiv_pos_as_xyz
1 x,y,z
2 -x,y,-z
3 1/2+x,1/2+y,z
4 1/2-x,1/2+y,-z
5 -x,-y,-z
6 x,-y,z
7 1/2-x,1/2-y,-z
8 1/2+x,1/2-y,z
_cell_length_a                   11.787(1)
_cell_length_b                   6.7313(8)
_cell_length_c                   5.151(1)
_cell_angle_alpha                90
_cell_angle_beta                 115.88(1)
_cell_angle_gamma                90
_cell_volume                     367.702
loop_
_atom_site_label
_atom_site_type_symbol
_atom_site_fract_x
_atom_site_fract_y
_atom_site_fract_z
Cu1 Cu 0.5000 0.5000 0.0000
O1 O 0.6891(5) 0.5000 0.199(1)
O2 O 0.6314(7) 0.5000 0.525(1)
N1 N 0.5000 0.2040(8) 0.0000
N2 N 0.7221(7) 0.5000 0.468(2)
C1 C 0.4338(5) 0.1008(7) 0.1080(9)
H1 H 0.385(5) 0.180(7) 0.16(1)
O1A O 0.3109(5) 0.5000 -0.199(1)
N2A N 0.2779(7) 0.5000 -0.468(2)
O2A O 0.3686(7) 0.5000 -0.525(1)
C1E C 0.4338(5) -0.1008(7) 0.1080(9)
N1E N 0.5000 -0.2040(8) 0.0000
Cu1E Cu 0.5000 -0.5000 0.0000
C1D C 0.5662(5) -0.1008(7) -0.1080(9)
C1A C 0.5662(5) 0.1008(7) -0.1080(9)
H1A H 0.615(5) 0.180(7) -0.16(1)
H1D H 0.615(5) -0.180(7) -0.16(1)
H1E H 0.385(5) -0.180(7) 0.16(1)
N1D N 0.5000 0.7960(8) 0.0000
loop_
_geom_bond_atom_site_label_1
_geom_bond_atom_site_label_2
_geom_bond_site_symmetry_1
_geom_bond_site_symmetry_2
Cu1 O1 1_555 1_555
O1 N2 1_555 1_555
O2 Cu1 1_555 1_555
N1 Cu1 1_555 1_555
N2 O2 1_555 1_555
C1 N1 1_555 1_555
H1 C1 1_555 1_555
O1A Cu1 1_555 1_555
N2A O1A 1_555 1_555
O2A Cu1 1_555 1_555
C1E C1 1_555 1_555
N1E C1E 1_555 1_555
Cu1E N1E 1_555 1_555
C1D N1E 1_555 1_555
C1A N1 1_555 1_555
H1A C1A 1_555 1_555
H1D C1D 1_555 1_555
H1E C1E 1_555 1_555
N1D Cu1 1_555 1_555
N2A O2A 1_555 1_555
C1D C1A 1_555 1_555

#END
