
#######################################################################
#
#                 Cambridge Crystallographic Data Centre
#                                CCDC 
#
#######################################################################
#
# If this CIF has been generated from an entry in the Cambridge 
# Structural Database, then it will include bibliographic, chemical, 
# crystal, experimental, refinement or atomic coordinate data resulting 
# from the CCDC's data processing and validation procedures.
#
#######################################################################

data_DOQHOH
_symmetry_cell_setting           monoclinic
_symmetry_space_group_name_H-M   'P 21/c'
_symmetry_Int_Tables_number      14
_space_group_name_Hall           '-P 2ybc'
loop_
_symmetry_equiv_pos_site_id
_symmetry_equiv_pos_as_xyz
1 x,y,z
2 -x,1/2+y,1/2-z
3 -x,-y,-z
4 x,1/2-y,1/2+z
_cell_length_a                   7.2351(6)
_cell_length_b                   13.0550(10)
_cell_length_c                   10.1999(8)
_cell_angle_alpha                90
_cell_angle_beta                 100.4270(10)
_cell_angle_gamma                90
_cell_volume                     947.514
loop_
_atom_site_label
_atom_site_type_symbol
_atom_site_fract_x
_atom_site_fract_y
_atom_site_fract_z
Sm1 Sm 0.83636(3) 0.094050(19) 0.71784(2)
P1 P 1.21159(18) -0.04910(10) 0.93059(12)
O1 O 1.3963(6) -0.0799(3) 0.8782(4)
H1 H 1.4070 -0.0441 0.8139
O2 O 1.1283(5) 0.0484(3) 0.8682(3)
O3 O 1.2535(5) -0.0537(3) 1.0795(3)
O4 O 1.1554(5) -0.2475(3) 0.9261(3)
H2 H 1.1341 -0.2601 1.0007
O5 O 0.9187(6) -0.0874(3) 0.6664(4)
O6 O 1.0390(5) -0.2450(3) 0.6694(3)
O7 O 0.6969(5) 0.0719(3) 0.4817(4)
O8 O 0.4660(5) 0.0095(3) 0.3273(3)
O9 O 1.1155(7) 0.1100(3) 0.6089(4)
H3 H 1.1864 0.0593 0.6250
H4 H 1.0827 0.1157 0.5262
O10 O 0.5592(6) 0.2059(4) 0.7207(5)
H5 H 0.4859 0.1772 0.7662
H6 H 0.5939 0.2618 0.7554
C1 C 1.0563(7) -0.1570(4) 0.8757(5)
H9 H 0.9427 -0.1507 0.9149
C2 C 1.0000(7) -0.1638(4) 0.7256(5)
C3 C 0.5468(7) 0.0242(4) 0.4451(5)
Sm1B Sm 1.16364(3) -0.094050(19) 1.28216(2)
Sm1A Sm 1.16364(3) -0.405950(19) 0.78216(2)
Sm1B_2 Sm 0.16364(3) -0.094050(19) 0.28216(2)
Sm1C Sm 0.83636(3) 0.405950(19) 1.21784(2)
P1B P 0.78841(18) 0.04910(10) 1.06941(12)
O1B O 0.6037(6) 0.0799(3) 1.1218(4)
H1B H 0.5930 0.0441 1.1861
O2B O 0.8717(5) -0.0484(3) 1.1318(3)
O3B O 0.7465(5) 0.0537(3) 0.9205(3)
O4B O 0.8446(5) 0.2475(3) 1.0739(3)
O4A O 0.8446(5) 0.2525(3) 0.5739(3)
O4C O 1.1554(5) -0.2525(3) 1.4261(3)
H2B H 0.8659 0.2601 0.9993
H2A H 0.8659 0.2399 0.4993
H2C H 1.1341 -0.2399 1.5007
O5B O 1.0813(6) 0.0874(3) 1.3336(4)
O6B O 0.9610(5) 0.2450(3) 1.3306(3)
O6A O 0.9610(5) 0.2550(3) 0.8306(3)
O6C O 1.0390(5) -0.2550(3) 1.1694(3)
O7B O 0.3031(5) -0.0719(3) 0.5183(4)
O7B_2 O 1.3031(5) -0.0719(3) 1.5183(4)
O8B O 0.5340(5) -0.0095(3) 0.6727(3)
O8_2 O 1.4660(5) 0.0095(3) 1.3273(3)
O9B O 0.8845(7) -0.1100(3) 1.3911(4)
H3B H 0.8136 -0.0593 1.3750
H4B H 0.9173 -0.1157 1.4738
O10B O 1.4408(6) -0.2059(4) 1.2793(5)
H5B H 1.5141 -0.1772 1.2338
H6B H 1.4061 -0.2618 1.2446
C1B C 0.9437(7) 0.1570(4) 1.1243(5)
H9B H 1.0573 0.1507 1.0851
C2B C 1.0000(7) 0.1638(4) 1.2744(5)
C3B C 0.4532(7) -0.0242(4) 0.5549(5)
O11 O 0.3797(7) 0.2231(4) 0.9312(5)
H7 H 0.3931 0.1982 1.0081
H8 H 0.3887 0.2863 0.9366
loop_
_geom_bond_atom_site_label_1
_geom_bond_atom_site_label_2
_geom_bond_site_symmetry_1
_geom_bond_site_symmetry_2
Sm1 O2 1_555 1_555
P1 O1 1_555 1_555
O1 H1 1_555 1_555
O2 P1 1_555 1_555
O3 P1 1_555 1_555
O4 H2 1_555 1_555
O5 Sm1 1_555 1_555
O6 C2 1_555 1_555
O7 Sm1 1_555 1_555
O8 C3 1_555 1_555
O9 Sm1 1_555 1_555
H3 O9 1_555 1_555
H4 O9 1_555 1_555
O10 Sm1 1_555 1_555
H5 O10 1_555 1_555
H6 O10 1_555 1_555
O11 H7 1_555 1_555
H8 O11 1_555 1_555
C1 P1 1_555 1_555
H9 C1 1_555 1_555
C2 O5 1_555 1_555
C3 O7 1_555 1_555
Sm1B O3 1_555 1_555
Sm1A O4 1_555 1_555
Sm1B_2 O8 1_555 1_555
Sm1C O4B 1_555 1_555
P1B O1B 1_555 1_555
O1B H1B 1_555 1_555
O2B Sm1B 1_555 1_555
O3B Sm1 1_555 1_555
O4B H2B 1_555 1_555
O4A Sm1 1_555 1_555
O4C Sm1B 1_555 1_555
H2A O4A 1_555 1_555
H2C O4C 1_555 1_555
O5B Sm1B 1_555 1_555
O6B Sm1C 1_555 1_555
O6A Sm1 1_555 1_555
O6C Sm1B 1_555 1_555
O7B Sm1B_2 1_555 1_555
O7B_2 Sm1B 1_555 1_555
O8B Sm1 1_555 1_555
O8_2 Sm1B 1_555 1_555
O9B Sm1B 1_555 1_555
H3B O9B 1_555 1_555
H4B O9B 1_555 1_555
O10B Sm1B 1_555 1_555
H5B O10B 1_555 1_555
H6B O10B 1_555 1_555
C1B P1B 1_555 1_555
H9B C1B 1_555 1_555
C2B O5B 1_555 1_555
C3B C3 1_555 1_555
O4 C1 1_555 1_555
O6 Sm1A 1_555 1_555
C1 C2 1_555 1_555
P1B O2B 1_555 1_555
P1B O3B 1_555 1_555
O4B C1B 1_555 1_555
O6B C2B 1_555 1_555
O7B C3B 1_555 1_555
O8B C3B 1_555 1_555
C1B C2B 1_555 1_555

#END
