
#######################################################################
#
#                 Cambridge Crystallographic Data Centre
#                                CCDC 
#
#######################################################################
#
# If this CIF has been generated from an entry in the Cambridge 
# Structural Database, then it will include bibliographic, chemical, 
# crystal, experimental, refinement or atomic coordinate data resulting 
# from the CCDC's data processing and validation procedures.
#
#######################################################################

data_DOQHUN
_symmetry_cell_setting           monoclinic
_symmetry_space_group_name_H-M   'P 21/c'
_symmetry_Int_Tables_number      14
_space_group_name_Hall           '-P 2ybc'
loop_
_symmetry_equiv_pos_site_id
_symmetry_equiv_pos_as_xyz
1 x,y,z
2 -x,1/2+y,1/2-z
3 -x,-y,-z
4 x,1/2-y,1/2+z
_cell_length_a                   7.2293(9)
_cell_length_b                   13.0429(16)
_cell_length_c                   10.1980(13)
_cell_angle_alpha                90
_cell_angle_beta                 100.541(2)
_cell_angle_gamma                90
_cell_volume                     945.353
loop_
_atom_site_label
_atom_site_type_symbol
_atom_site_fract_x
_atom_site_fract_y
_atom_site_fract_z
Eu1 Eu 0.83623(3) 0.093910(13) 0.717855(17)
P1 P 1.21135(13) -0.04897(7) 0.93108(9)
O1 O 1.3964(4) -0.0797(2) 0.8790(3)
H1 H 1.4071 -0.0438 0.8148
O2 O 1.1276(4) 0.0487(2) 0.8680(3)
O3 O 1.2529(4) -0.0533(2) 1.0801(3)
O4 O 1.1562(4) -0.2477(2) 0.9264(3)
H2 H 1.1354 -0.2607 1.0010
O5 O 0.9187(5) -0.0875(2) 0.6665(3)
O6 O 1.0386(4) -0.2454(2) 0.6694(3)
O7 O 0.6972(4) 0.0714(2) 0.4820(3)
O8 O 0.4665(4) 0.0090(2) 0.3275(3)
O9 O 1.1142(5) 0.1090(3) 0.6087(3)
H3 H 1.1850 0.0583 0.6249
H4 H 1.0813 0.1147 0.5261
O10 O 0.5602(5) 0.2053(3) 0.7203(4)
H5 H 0.4869 0.1766 0.7658
H6 H 0.5949 0.2612 0.7550
C1 C 1.0560(5) -0.1573(3) 0.8765(4)
H9 H 0.9423 -0.1513 0.9156
C2 C 1.0004(5) -0.1638(3) 0.7260(4)
C3 C 0.5476(5) 0.0244(3) 0.4448(4)
Eu1B Eu 1.16377(3) -0.093910(13) 1.282145(17)
Eu1A Eu 1.16377(3) -0.406090(13) 0.782145(17)
Eu1B_2 Eu 0.16377(3) -0.093910(13) 0.282145(17)
Eu1C Eu 0.83623(3) 0.406090(13) 1.217855(17)
P1B P 0.78865(13) 0.04897(7) 1.06892(9)
O1B O 0.6036(4) 0.0797(2) 1.1210(3)
H1B H 0.5929 0.0438 1.1852
O2B O 0.8724(4) -0.0487(2) 1.1320(3)
O3B O 0.7471(4) 0.0533(2) 0.9199(3)
O4B O 0.8438(4) 0.2477(2) 1.0736(3)
O4A O 0.8438(4) 0.2523(2) 0.5736(3)
O4C O 1.1562(4) -0.2523(2) 1.4264(3)
H2B H 0.8646 0.2607 0.9990
H2A H 0.8646 0.2393 0.4990
H2C H 1.1354 -0.2393 1.5010
O5B O 1.0813(5) 0.0875(2) 1.3335(3)
O6B O 0.9614(4) 0.2454(2) 1.3306(3)
O6A O 0.9614(4) 0.2546(2) 0.8306(3)
O6C O 1.0386(4) -0.2546(2) 1.1694(3)
O7B O 0.3028(4) -0.0714(2) 0.5180(3)
O7B_2 O 1.3028(4) -0.0714(2) 1.5180(3)
O8B O 0.5335(4) -0.0090(2) 0.6725(3)
O8_2 O 1.4665(4) 0.0090(2) 1.3275(3)
O9B O 0.8858(5) -0.1090(3) 1.3913(3)
H3B H 0.8150 -0.0583 1.3751
H4B H 0.9187 -0.1147 1.4739
O10B O 1.4398(5) -0.2053(3) 1.2797(4)
H5B H 1.5131 -0.1766 1.2342
H6B H 1.4051 -0.2612 1.2450
C1B C 0.9440(5) 0.1573(3) 1.1235(4)
H9B H 1.0577 0.1513 1.0844
C2B C 0.9996(5) 0.1638(3) 1.2740(4)
C3B C 0.4524(5) -0.0244(3) 0.5552(4)
O11 O 0.3798(6) 0.2239(3) 0.9308(5)
H7 H 0.3933 0.1990 1.0076
H8 H 0.3888 0.2872 0.9362
loop_
_geom_bond_atom_site_label_1
_geom_bond_atom_site_label_2
_geom_bond_site_symmetry_1
_geom_bond_site_symmetry_2
Eu1 O2 1_555 1_555
P1 O1 1_555 1_555
O1 H1 1_555 1_555
O2 P1 1_555 1_555
O3 P1 1_555 1_555
O4 H2 1_555 1_555
O5 Eu1 1_555 1_555
O6 C2 1_555 1_555
O7 Eu1 1_555 1_555
O8 C3 1_555 1_555
O9 Eu1 1_555 1_555
H3 O9 1_555 1_555
H4 O9 1_555 1_555
O10 Eu1 1_555 1_555
H5 O10 1_555 1_555
H6 O10 1_555 1_555
O11 H7 1_555 1_555
H8 O11 1_555 1_555
C1 P1 1_555 1_555
H9 C1 1_555 1_555
C2 O5 1_555 1_555
C3 O7 1_555 1_555
Eu1B O3 1_555 1_555
Eu1A O4 1_555 1_555
Eu1B_2 O8 1_555 1_555
Eu1C O4B 1_555 1_555
P1B O1B 1_555 1_555
O1B H1B 1_555 1_555
O2B Eu1B 1_555 1_555
O3B Eu1 1_555 1_555
O4B H2B 1_555 1_555
O4A Eu1 1_555 1_555
O4C Eu1B 1_555 1_555
H2A O4A 1_555 1_555
H2C O4C 1_555 1_555
O5B Eu1B 1_555 1_555
O6B Eu1C 1_555 1_555
O6A Eu1 1_555 1_555
O6C Eu1B 1_555 1_555
O7B Eu1B_2 1_555 1_555
O7B_2 Eu1B 1_555 1_555
O8B Eu1 1_555 1_555
O8_2 Eu1B 1_555 1_555
O9B Eu1B 1_555 1_555
H3B O9B 1_555 1_555
H4B O9B 1_555 1_555
O10B Eu1B 1_555 1_555
H5B O10B 1_555 1_555
H6B O10B 1_555 1_555
C1B P1B 1_555 1_555
H9B C1B 1_555 1_555
C2B O5B 1_555 1_555
C3B C3 1_555 1_555
O4 C1 1_555 1_555
O6 Eu1A 1_555 1_555
C1 C2 1_555 1_555
P1B O2B 1_555 1_555
P1B O3B 1_555 1_555
O4B C1B 1_555 1_555
O6B C2B 1_555 1_555
O7B C3B 1_555 1_555
O8B C3B 1_555 1_555
C1B C2B 1_555 1_555

#END
