
#######################################################################
#
#                 Cambridge Crystallographic Data Centre
#                                CCDC 
#
#######################################################################
#
# If this CIF has been generated from an entry in the Cambridge 
# Structural Database, then it will include bibliographic, chemical, 
# crystal, experimental, refinement or atomic coordinate data resulting 
# from the CCDC's data processing and validation procedures.
#
#######################################################################

data_DOQHIB
_symmetry_cell_setting           monoclinic
_symmetry_space_group_name_H-M   'P 21/c'
_symmetry_Int_Tables_number      14
_space_group_name_Hall           '-P 2ybc'
loop_
_symmetry_equiv_pos_site_id
_symmetry_equiv_pos_as_xyz
1 x,y,z
2 -x,1/2+y,1/2-z
3 -x,-y,-z
4 x,1/2-y,1/2+z
_cell_length_a                   7.2326(6)
_cell_length_b                   13.1558(11)
_cell_length_c                   10.2337(8)
_cell_angle_alpha                90
_cell_angle_beta                 100.1070(10)
_cell_angle_gamma                90
_cell_volume                     958.632
loop_
_atom_site_label
_atom_site_type_symbol
_atom_site_fract_x
_atom_site_fract_y
_atom_site_fract_z
Nd1 Nd 0.83700(3) 0.094506(15) 0.71813(2)
P1 P 1.21255(16) -0.04946(8) 0.92931(10)
O1 O 1.3963(5) -0.0804(2) 0.8759(3)
H1 H 1.4071 -0.0447 0.8120
O2 O 1.1304(5) 0.0477(2) 0.8686(3)
O3 O 1.2546(5) -0.0544(2) 1.0777(3)
O4 O 1.1539(5) -0.2464(2) 0.9252(3)
H2 H 1.1321 -0.2586 0.9996
O5 O 0.9191(5) -0.0874(2) 0.6662(3)
O6 O 1.0391(5) -0.2442(2) 0.6694(3)
O7 O 0.6949(5) 0.0731(2) 0.4814(3)
O8 O 0.4672(5) 0.0086(3) 0.3280(3)
O9 O 1.1213(6) 0.1114(3) 0.6083(4)
H3 H 1.1922 0.0607 0.6245
H4 H 1.0885 0.1171 0.5257
O10 O 0.5554(6) 0.2069(3) 0.7224(4)
H5 H 0.4821 0.1781 0.7679
H6 H 0.5901 0.2628 0.7572
C1 C 1.0559(6) -0.1562(3) 0.8748(4)
H9 H 0.9423 -0.1495 0.9140
C2 C 1.0003(6) -0.1634(3) 0.7255(4)
C3 C 0.5469(6) 0.0243(3) 0.4447(4)
Nd1B Nd 1.16300(3) -0.094506(15) 1.28187(2)
Nd1A Nd 1.16300(3) -0.405494(15) 0.78187(2)
Nd1B_2 Nd 0.16300(3) -0.094506(15) 0.28187(2)
Nd1C Nd 0.83700(3) 0.405494(15) 1.21813(2)
P1B P 0.78745(16) 0.04946(8) 1.07069(10)
O1B O 0.6037(5) 0.0804(2) 1.1241(3)
H1B H 0.5929 0.0447 1.1880
O2B O 0.8696(5) -0.0477(2) 1.1314(3)
O3B O 0.7454(5) 0.0544(2) 0.9223(3)
O4B O 0.8461(5) 0.2464(2) 1.0748(3)
O4A O 0.8461(5) 0.2536(2) 0.5748(3)
O4C O 1.1539(5) -0.2536(2) 1.4252(3)
H2B H 0.8679 0.2586 1.0004
H2A H 0.8679 0.2414 0.5004
H2C H 1.1321 -0.2414 1.4996
O5B O 1.0809(5) 0.0874(2) 1.3338(3)
O6B O 0.9609(5) 0.2442(2) 1.3306(3)
O6A O 0.9609(5) 0.2558(2) 0.8306(3)
O6C O 1.0391(5) -0.2558(2) 1.1694(3)
O7B O 0.3051(5) -0.0731(2) 0.5186(3)
O7B_2 O 1.3051(5) -0.0731(2) 1.5186(3)
O8B O 0.5328(5) -0.0086(3) 0.6720(3)
O8_2 O 1.4672(5) 0.0086(3) 1.3280(3)
O9B O 0.8787(6) -0.1114(3) 1.3917(4)
H3B H 0.8078 -0.0607 1.3755
H4B H 0.9115 -0.1171 1.4743
O10B O 1.4446(6) -0.2069(3) 1.2776(4)
H5B H 1.5179 -0.1781 1.2321
H6B H 1.4099 -0.2628 1.2428
C1B C 0.9441(6) 0.1562(3) 1.1252(4)
H9B H 1.0577 0.1495 1.0860
C2B C 0.9997(6) 0.1634(3) 1.2745(4)
C3B C 0.4531(6) -0.0243(3) 0.5553(4)
O11 O 0.3789(6) 0.2221(4) 0.9343(5)
H7 H 0.3923 0.1972 1.0111
H8 H 0.3878 0.2853 0.9397
loop_
_geom_bond_atom_site_label_1
_geom_bond_atom_site_label_2
_geom_bond_site_symmetry_1
_geom_bond_site_symmetry_2
Nd1 O2 1_555 1_555
P1 O1 1_555 1_555
O1 H1 1_555 1_555
O2 P1 1_555 1_555
O3 P1 1_555 1_555
O4 H2 1_555 1_555
O5 Nd1 1_555 1_555
O6 C2 1_555 1_555
O7 Nd1 1_555 1_555
O8 C3 1_555 1_555
O9 Nd1 1_555 1_555
H3 O9 1_555 1_555
H4 O9 1_555 1_555
O10 Nd1 1_555 1_555
H5 O10 1_555 1_555
H6 O10 1_555 1_555
O11 H7 1_555 1_555
H8 O11 1_555 1_555
C1 P1 1_555 1_555
H9 C1 1_555 1_555
C2 O5 1_555 1_555
C3 O7 1_555 1_555
Nd1B O3 1_555 1_555
Nd1A O4 1_555 1_555
Nd1B_2 O8 1_555 1_555
Nd1C O4B 1_555 1_555
P1B O1B 1_555 1_555
O1B H1B 1_555 1_555
O2B Nd1B 1_555 1_555
O3B Nd1 1_555 1_555
O4B H2B 1_555 1_555
O4A Nd1 1_555 1_555
O4C Nd1B 1_555 1_555
H2A O4A 1_555 1_555
H2C O4C 1_555 1_555
O5B Nd1B 1_555 1_555
O6B Nd1C 1_555 1_555
O6A Nd1 1_555 1_555
O6C Nd1B 1_555 1_555
O7B Nd1B_2 1_555 1_555
O7B_2 Nd1B 1_555 1_555
O8B Nd1 1_555 1_555
O8_2 Nd1B 1_555 1_555
O9B Nd1B 1_555 1_555
H3B O9B 1_555 1_555
H4B O9B 1_555 1_555
O10B Nd1B 1_555 1_555
H5B O10B 1_555 1_555
H6B O10B 1_555 1_555
C1B P1B 1_555 1_555
H9B C1B 1_555 1_555
C2B O5B 1_555 1_555
C3B C3 1_555 1_555
O4 C1 1_555 1_555
O6 Nd1A 1_555 1_555
C1 C2 1_555 1_555
P1B O2B 1_555 1_555
P1B O3B 1_555 1_555
O4B C1B 1_555 1_555
O6B C2B 1_555 1_555
O7B C3B 1_555 1_555
O8B C3B 1_555 1_555
C1B C2B 1_555 1_555

#END
