
#######################################################################
#
#                 Cambridge Crystallographic Data Centre
#                                CCDC 
#
#######################################################################
#
# If this CIF has been generated from an entry in the Cambridge 
# Structural Database, then it will include bibliographic, chemical, 
# crystal, experimental, refinement or atomic coordinate data resulting 
# from the CCDC's data processing and validation procedures.
#
#######################################################################

data_DOQHEX
_symmetry_cell_setting           monoclinic
_symmetry_space_group_name_H-M   'P 21/c'
_symmetry_Int_Tables_number      14
_space_group_name_Hall           '-P 2ybc'
loop_
_symmetry_equiv_pos_site_id
_symmetry_equiv_pos_as_xyz
1 x,y,z
2 -x,1/2+y,1/2-z
3 -x,-y,-z
4 x,1/2-y,1/2+z
_cell_length_a                   7.2300(7)
_cell_length_b                   13.2239(13)
_cell_length_c                   10.2535(10)
_cell_angle_alpha                90
_cell_angle_beta                 99.8690(10)
_cell_angle_gamma                90
_cell_volume                     965.818
loop_
_atom_site_label
_atom_site_type_symbol
_atom_site_fract_x
_atom_site_fract_y
_atom_site_fract_z
Pr1 Pr 0.83761(3) 0.094542(17) 0.71834(2)
P1 P 1.21308(16) -0.04994(8) 0.92834(11)
O1 O 1.3971(5) -0.0808(3) 0.8750(4)
H1 H 1.4083 -0.0454 0.8111
O2 O 1.1313(4) 0.0469(2) 0.8685(3)
O3 O 1.2552(5) -0.0554(3) 1.0765(3)
O4 O 1.1532(5) -0.2462(2) 0.9245(3)
H2 H 1.1315 -0.2584 0.9988
O5 O 0.9194(5) -0.0876(2) 0.6663(3)
O6 O 1.0396(5) -0.2435(2) 0.6690(3)
O7 O 0.6933(5) 0.0736(3) 0.4810(3)
O8 O 0.4680(5) 0.0087(3) 0.3283(3)
O9 O 1.1243(6) 0.1127(3) 0.6081(4)
H3 H 1.1952 0.0620 0.6243
H4 H 1.0914 0.1184 0.5255
O10 O 0.5534(6) 0.2069(3) 0.7227(4)
H5 H 0.4801 0.1782 0.7682
H6 H 0.5881 0.2628 0.7574
C1 C 1.0561(6) -0.1557(3) 0.8749(4)
H9 H 0.9422 -0.1488 0.9140
C2 C 1.0018(6) -0.1633(3) 0.7257(4)
C3 C 0.5478(6) 0.0243(3) 0.4458(4)
Pr1B Pr 1.16239(3) -0.094542(17) 1.28166(2)
Pr1A Pr 1.16239(3) -0.405458(17) 0.78166(2)
Pr1B_2 Pr 0.16239(3) -0.094542(17) 0.28166(2)
Pr1C Pr 0.83761(3) 0.405458(17) 1.21834(2)
P1B P 0.78692(16) 0.04994(8) 1.07166(11)
O1B O 0.6029(5) 0.0808(3) 1.1250(4)
H1B H 0.5917 0.0454 1.1889
O2B O 0.8687(4) -0.0469(2) 1.1315(3)
O3B O 0.7448(5) 0.0554(3) 0.9235(3)
O4B O 0.8468(5) 0.2462(2) 1.0755(3)
O4A O 0.8468(5) 0.2538(2) 0.5755(3)
O4C O 1.1532(5) -0.2538(2) 1.4245(3)
H2B H 0.8685 0.2584 1.0012
H2A H 0.8685 0.2416 0.5012
H2C H 1.1315 -0.2416 1.4988
O5B O 1.0806(5) 0.0876(2) 1.3337(3)
O6B O 0.9604(5) 0.2435(2) 1.3310(3)
O6A O 0.9604(5) 0.2565(2) 0.8310(3)
O6C O 1.0396(5) -0.2565(2) 1.1690(3)
O7B O 0.3067(5) -0.0736(3) 0.5190(3)
O7B_2 O 1.3067(5) -0.0736(3) 1.5190(3)
O8B O 0.5320(5) -0.0087(3) 0.6717(3)
O8_2 O 1.4680(5) 0.0087(3) 1.3283(3)
O9B O 0.8757(6) -0.1127(3) 1.3919(4)
H3B H 0.8048 -0.0620 1.3757
H4B H 0.9086 -0.1184 1.4745
O10B O 1.4466(6) -0.2069(3) 1.2773(4)
H5B H 1.5199 -0.1782 1.2318
H6B H 1.4119 -0.2628 1.2426
C1B C 0.9439(6) 0.1557(3) 1.1251(4)
H9B H 1.0578 0.1488 1.0860
C2B C 0.9982(6) 0.1633(3) 1.2743(4)
C3B C 0.4522(6) -0.0243(3) 0.5542(4)
O11 O 0.3776(6) 0.2212(4) 0.9362(5)
H7 H 0.3911 0.1963 1.0131
H8 H 0.3866 0.2844 0.9416
loop_
_geom_bond_atom_site_label_1
_geom_bond_atom_site_label_2
_geom_bond_site_symmetry_1
_geom_bond_site_symmetry_2
Pr1 O2 1_555 1_555
P1 O1 1_555 1_555
O1 H1 1_555 1_555
O2 P1 1_555 1_555
O3 P1 1_555 1_555
O4 H2 1_555 1_555
O5 Pr1 1_555 1_555
O6 C2 1_555 1_555
O7 Pr1 1_555 1_555
O8 C3 1_555 1_555
O9 Pr1 1_555 1_555
H3 O9 1_555 1_555
H4 O9 1_555 1_555
O10 Pr1 1_555 1_555
H5 O10 1_555 1_555
H6 O10 1_555 1_555
O11 H7 1_555 1_555
H8 O11 1_555 1_555
C1 P1 1_555 1_555
H9 C1 1_555 1_555
C2 O5 1_555 1_555
C3 O7 1_555 1_555
Pr1B O3 1_555 1_555
Pr1A O4 1_555 1_555
Pr1B_2 O8 1_555 1_555
Pr1C O4B 1_555 1_555
P1B O1B 1_555 1_555
O1B H1B 1_555 1_555
O2B Pr1B 1_555 1_555
O3B Pr1 1_555 1_555
O4B H2B 1_555 1_555
O4A Pr1 1_555 1_555
O4C Pr1B 1_555 1_555
H2A O4A 1_555 1_555
H2C O4C 1_555 1_555
O5B Pr1B 1_555 1_555
O6B Pr1C 1_555 1_555
O6A Pr1 1_555 1_555
O6C Pr1B 1_555 1_555
O7B Pr1B_2 1_555 1_555
O7B_2 Pr1B 1_555 1_555
O8B Pr1 1_555 1_555
O8_2 Pr1B 1_555 1_555
O9B Pr1B 1_555 1_555
H3B O9B 1_555 1_555
H4B O9B 1_555 1_555
O10B Pr1B 1_555 1_555
H5B O10B 1_555 1_555
H6B O10B 1_555 1_555
C1B P1B 1_555 1_555
H9B C1B 1_555 1_555
C2B O5B 1_555 1_555
C3B C3 1_555 1_555
O4 C1 1_555 1_555
O6 Pr1A 1_555 1_555
C1 C2 1_555 1_555
P1B O2B 1_555 1_555
P1B O3B 1_555 1_555
O4B C1B 1_555 1_555
O6B C2B 1_555 1_555
O7B C3B 1_555 1_555
O8B C3B 1_555 1_555
C1B C2B 1_555 1_555

#END
