
#######################################################################
#
#                 Cambridge Crystallographic Data Centre
#                                CCDC 
#
#######################################################################
#
# If this CIF has been generated from an entry in the Cambridge 
# Structural Database, then it will include bibliographic, chemical, 
# crystal, experimental, refinement or atomic coordinate data resulting 
# from the CCDC's data processing and validation procedures.
#
#######################################################################

data_DOQJUQ
_symmetry_cell_setting           monoclinic
_symmetry_space_group_name_H-M   'C 2/c'
_symmetry_Int_Tables_number      15
_space_group_name_Hall           '-C 2yn'
loop_
_symmetry_equiv_pos_site_id
_symmetry_equiv_pos_as_xyz
1 x,y,z
2 -x,y,1/2-z
3 1/2+x,1/2+y,z
4 1/2-x,1/2+y,1/2-z
5 -x,-y,-z
6 x,-y,1/2+z
7 1/2-x,1/2-y,-z
8 1/2+x,1/2-y,1/2+z
_cell_length_a                   24.737(4)
_cell_length_b                   9.1709(15)
_cell_length_c                   20.942(4)
_cell_angle_alpha                90
_cell_angle_beta                 121.807(3)
_cell_angle_gamma                90
_cell_volume                     4037.46
loop_
_atom_site_label
_atom_site_type_symbol
_atom_site_fract_x
_atom_site_fract_y
_atom_site_fract_z
Zn1 Zn 0.18928(2) -0.14510(5) 0.18927(3)
V1 V 0.32838(3) 0.06970(8) 0.50847(4)
P1 P 0.25602(5) 0.05878(11) 0.33247(6)
P2 P 0.24462(5) 0.32975(11) 0.40443(6)
O1 O 0.22150(14) -0.0807(3) 0.29266(16)
O2 O 0.31570(14) 0.0233(3) 0.40918(16)
O3 O 0.26857(14) 0.1561(3) 0.28360(16)
O4 O 0.30433(13) 0.2806(3) 0.47862(15)
O5 O 0.25934(14) 0.4200(3) 0.35513(16)
O6 O 0.19906(14) 0.4136(3) 0.41900(15)
O7 O 0.21049(15) 0.0643(3) 0.41853(16)
H1 H 0.2013 0.1121 0.4446
O8 O 0.31964(14) -0.1509(3) 0.52025(17)
H2 H 0.2921 -0.1851 0.4798
O9 O 0.40343(15) 0.0882(4) 0.55981(18)
N1 N 0.11986(18) 0.0247(4) 0.1291(2)
N2 N 0.10258(18) -0.2406(4) 0.1685(2)
C1 C 0.2057(2) 0.1566(4) 0.3589(2)
C2 C 0.1376(2) 0.1756(5) 0.2955(3)
H3 H 0.1190 0.0818 0.2760
H4 H 0.1364 0.2327 0.2563
H5 H 0.1141 0.2246 0.3138
C3 C 0.1293(3) 0.1558(6) 0.1107(3)
H6 H 0.1697 0.1785 0.1206
C4 C 0.0818(3) 0.2628(6) 0.0770(3)
H7 H 0.0901 0.3531 0.0638
C5 C 0.0231(3) 0.2310(6) 0.0641(3)
H8 H -0.0090 0.3004 0.0422
C6 C 0.0109(2) 0.0938(6) 0.0836(3)
C7 C 0.0613(2) -0.0053(5) 0.1160(3)
C8 C 0.0525(2) -0.1483(5) 0.1380(3)
C9 C -0.0062(3) -0.1854(6) 0.1287(3)
C10 C -0.0571(3) -0.0787(7) 0.0954(4)
H9 H -0.0962 -0.1017 0.0892
C11 C -0.0490(3) 0.0519(7) 0.0734(4)
H10 H -0.0829 0.1170 0.0510
C12 C -0.0120(3) -0.3240(6) 0.1515(4)
H11 H -0.0503 -0.3528 0.1459
C13 C 0.0384(3) -0.4178(7) 0.1819(4)
H12 H 0.0349 -0.5106 0.1974
C14 C 0.0951(3) -0.3716(6) 0.1894(4)
H13 H 0.1294 -0.4357 0.2101
Zn1C Zn 0.31072(2) 0.35490(5) 0.31073(3)
V1F V 0.17162(3) 0.43030(8) 0.49153(4)
O3C O 0.23143(14) -0.3439(3) 0.21640(16)
O5C O 0.24066(14) -0.0800(3) 0.14487(16)
O6F O 0.30094(14) 0.0864(3) 0.58100(15)
O10 O 0.27137(17) 0.7889(3) 0.61034(18)
H14 H 0.3024 0.7667 0.6538
H15 H 0.2797 0.8677 0.5959
loop_
_geom_bond_atom_site_label_1
_geom_bond_atom_site_label_2
_geom_bond_site_symmetry_1
_geom_bond_site_symmetry_2
Zn1 O1 1_555 1_555
V1 O2 1_555 1_555
P1 O1 1_555 1_555
P2 O4 1_555 1_555
O2 P1 1_555 1_555
O3 P1 1_555 1_555
O4 V1 1_555 1_555
O5 P2 1_555 1_555
O6 P2 1_555 1_555
O7 H1 1_555 1_555
O8 V1 1_555 1_555
H2 O8 1_555 1_555
O9 V1 1_555 1_555
N1 Zn1 1_555 1_555
N2 Zn1 1_555 1_555
C1 P1 1_555 1_555
C2 C1 1_555 1_555
H3 C2 1_555 1_555
H4 C2 1_555 1_555
H5 C2 1_555 1_555
C3 N1 1_555 1_555
H6 C3 1_555 1_555
C4 C3 1_555 1_555
H7 C4 1_555 1_555
C5 C4 1_555 1_555
H8 C5 1_555 1_555
C6 C5 1_555 1_555
C7 N1 1_555 1_555
C8 N2 1_555 1_555
C9 C8 1_555 1_555
C10 C9 1_555 1_555
H9 C10 1_555 1_555
C11 C6 1_555 1_555
H10 C11 1_555 1_555
C12 C9 1_555 1_555
H11 C12 1_555 1_555
C13 C12 1_555 1_555
H12 C13 1_555 1_555
C14 N2 1_555 1_555
H13 C14 1_555 1_555
O10 H14 1_555 1_555
H15 O10 1_555 1_555
Zn1C O3 1_555 1_555
V1F O6 1_555 1_555
O3C Zn1 1_555 1_555
O5C Zn1 1_555 1_555
O6F V1 1_555 1_555
P2 C1 1_555 1_555
O5 Zn1C 1_555 1_555
O7 C1 1_555 1_555
C6 C7 1_555 1_555
C7 C8 1_555 1_555
C10 C11 1_555 1_555
C13 C14 1_555 1_555

#END
