
#######################################################################
#
#                 Cambridge Crystallographic Data Centre
#                                CCDC 
#
#######################################################################
#
# If this CIF has been generated from an entry in the Cambridge 
# Structural Database, then it will include bibliographic, chemical, 
# crystal, experimental, refinement or atomic coordinate data resulting 
# from the CCDC's data processing and validation procedures.
#
#######################################################################

data_DOQJOK
_symmetry_cell_setting           monoclinic
_symmetry_space_group_name_H-M   'C 2/c'
_symmetry_Int_Tables_number      15
_space_group_name_Hall           '-C 2yn'
loop_
_symmetry_equiv_pos_site_id
_symmetry_equiv_pos_as_xyz
1 x,y,z
2 -x,y,1/2-z
3 1/2+x,1/2+y,z
4 1/2-x,1/2+y,1/2-z
5 -x,-y,-z
6 x,-y,1/2+z
7 1/2-x,1/2-y,-z
8 1/2+x,1/2-y,1/2+z
_cell_length_a                   24.702(4)
_cell_length_b                   9.1070(12)
_cell_length_c                   20.913(3)
_cell_angle_alpha                90
_cell_angle_beta                 124.178(2)
_cell_angle_gamma                90
_cell_volume                     3892.11
loop_
_atom_site_label
_atom_site_type_symbol
_atom_site_fract_x
_atom_site_fract_y
_atom_site_fract_z
Cu1 Cu 0.18482(4) 0.33705(7) 0.17704(4)
V1 V 0.16957(5) 0.06904(10) -0.01326(5)
P1 P 0.25732(7) 0.32692(16) 0.09738(8)
P2 P 0.24513(8) 0.05297(16) 0.16664(8)
O1 O 0.24247(18) 0.4137(4) 0.14713(19)
O2 O 0.19531(17) 0.2798(4) 0.01890(19)
O3 O 0.30352(17) 0.4147(4) 0.08558(19)
O4 O 0.23333(19) 0.1550(4) 0.2151(2)
O5 O 0.18329(18) 0.0226(4) 0.0866(2)
O6 O 0.28001(18) -0.0869(4) 0.2085(2)
O7 O 0.28967(19) 0.0601(4) 0.0809(2)
H1 H 0.2947 0.1138 0.0513
O8 O 0.17782(18) -0.1531(4) -0.0241(2)
H2 H 0.1994 -0.1668 -0.0423
O9 O 0.09224(18) 0.0922(4) -0.0685(2)
N1 N 0.1065(2) 0.2461(5) 0.1694(3)
N2 N 0.1209(2) 0.5060(5) 0.1254(3)
C1 C 0.2963(3) 0.1515(6) 0.1426(3)
C2 C 0.3666(3) 0.1673(7) 0.2082(3)
H3 H 0.3860 0.0717 0.2251
H4 H 0.3692 0.2177 0.2501
H5 H 0.3896 0.2224 0.1915
C3 C 0.1010(3) 0.1155(7) 0.1933(4)
H6 H 0.1357 0.0500 0.2132
C4 C 0.0450(4) 0.0722(8) 0.1901(4)
H7 H 0.0428 -0.0203 0.2074
C5 C -0.0057(3) 0.1675(8) 0.1616(4)
H8 H -0.0433 0.1396 0.1585
C6 C -0.0017(3) 0.3078(7) 0.1368(4)
C7 C -0.0524(3) 0.4159(8) 0.1061(4)
H9 H -0.0909 0.3948 0.1025
C8 C -0.0459(3) 0.5462(8) 0.0819(4)
H10 H -0.0801 0.6133 0.0612
C9 C 0.0134(3) 0.5854(7) 0.0873(3)
C10 C 0.0248(3) 0.7207(7) 0.0659(4)
H11 H -0.0074 0.7928 0.0454
C11 C 0.0833(3) 0.7477(7) 0.0752(4)
H12 H 0.0913 0.8379 0.0612
C12 C 0.1309(3) 0.6365(7) 0.1061(4)
H13 H 0.1709 0.6552 0.1132
C13 C 0.0629(3) 0.4807(7) 0.1164(3)
C14 C 0.0552(3) 0.3408(7) 0.1408(3)
Cu1C Cu 0.31518(4) -0.16295(7) 0.32296(4)
V1F V 0.33043(5) 0.43096(10) 0.01326(5)
O3F O 0.19648(17) 0.0853(4) -0.08558(19)
O6C O 0.21999(18) 0.4131(4) 0.2915(2)
O10 O 0.2258(2) 0.7868(4) 0.8864(2)
H14 H 0.2217 0.8796 0.8836
H15 H 0.2628 0.7638 0.9266
loop_
_geom_bond_atom_site_label_1
_geom_bond_atom_site_label_2
_geom_bond_site_symmetry_1
_geom_bond_site_symmetry_2
Cu1 O1 1_555 1_555
V1 O2 1_555 1_555
P1 O1 1_555 1_555
P2 O4 1_555 1_555
O2 P1 1_555 1_555
O3 P1 1_555 1_555
O4 Cu1 1_555 1_555
O5 V1 1_555 1_555
O6 P2 1_555 1_555
O7 H1 1_555 1_555
O8 V1 1_555 1_555
H2 O8 1_555 1_555
O9 V1 1_555 1_555
N1 Cu1 1_555 1_555
N2 Cu1 1_555 1_555
C1 P1 1_555 1_555
C2 C1 1_555 1_555
H3 C2 1_555 1_555
H4 C2 1_555 1_555
H5 C2 1_555 1_555
C3 N1 1_555 1_555
H6 C3 1_555 1_555
C4 C3 1_555 1_555
H7 C4 1_555 1_555
C5 C4 1_555 1_555
H8 C5 1_555 1_555
C6 C5 1_555 1_555
C7 C6 1_555 1_555
H9 C7 1_555 1_555
C8 C7 1_555 1_555
H10 C8 1_555 1_555
C9 C8 1_555 1_555
C10 C9 1_555 1_555
H11 C10 1_555 1_555
C11 C10 1_555 1_555
H12 C11 1_555 1_555
C12 N2 1_555 1_555
H13 C12 1_555 1_555
C13 N2 1_555 1_555
C14 N1 1_555 1_555
O10 H14 1_555 1_555
H15 O10 1_555 1_555
Cu1C O6 1_555 1_555
V1F O3 1_555 1_555
O3F V1 1_555 1_555
O6C Cu1 1_555 1_555
P2 O5 1_555 1_555
P2 C1 1_555 1_555
O7 C1 1_555 1_555
C6 C14 1_555 1_555
C9 C13 1_555 1_555
C11 C12 1_555 1_555
C13 C14 1_555 1_555

#END
