
#######################################################################
#
#                 Cambridge Crystallographic Data Centre
#                                CCDC 
#
#######################################################################
#
# If this CIF has been generated from an entry in the Cambridge 
# Structural Database, then it will include bibliographic, chemical, 
# crystal, experimental, refinement or atomic coordinate data resulting 
# from the CCDC's data processing and validation procedures.
#
#######################################################################

data_DOQKAW
_symmetry_cell_setting           monoclinic
_symmetry_space_group_name_H-M   'C 2/c'
_symmetry_Int_Tables_number      15
_space_group_name_Hall           '-C 2yn'
loop_
_symmetry_equiv_pos_site_id
_symmetry_equiv_pos_as_xyz
1 x,y,z
2 -x,y,1/2-z
3 1/2+x,1/2+y,z
4 1/2-x,1/2+y,1/2-z
5 -x,-y,-z
6 x,-y,1/2+z
7 1/2-x,1/2-y,-z
8 1/2+x,1/2-y,1/2+z
_cell_length_a                   18.349(5)
_cell_length_b                   20.616(5)
_cell_length_c                   17.669(5)
_cell_angle_alpha                90
_cell_angle_beta                 102.256(5)
_cell_angle_gamma                90
_cell_volume                     6531.55
loop_
_atom_site_label
_atom_site_type_symbol
_atom_site_fract_x
_atom_site_fract_y
_atom_site_fract_z
Cd1 Cd 0.0000 -0.45711(3) 0.2500
Cd2 Cd 0.18511(2) -0.41007(2) 0.20087(3)
Cd3 Cd 0.25277(3) -0.51869(2) 0.07250(3)
C1 C -0.0939(4) -0.1739(3) 0.1162(4)
C2 C -0.1136(4) -0.2375(3) 0.1215(4)
H1 H -0.1636 -0.2491 0.1129
C3 C -0.0587(4) -0.2844(3) 0.1397(4)
H2 H -0.0721 -0.3278 0.1408
C4 C 0.0163(4) -0.2672(3) 0.1563(4)
C5 C 0.0358(4) -0.2031(3) 0.1533(4)
H3 H 0.0857 -0.1910 0.1660
C6 C -0.0192(4) -0.1561(3) 0.1314(4)
H4 H -0.0059 -0.1130 0.1269
C7 C -0.1521(4) -0.1217(4) 0.0973(4)
C8 C 0.0745(4) -0.3187(3) 0.1792(4)
C9 C 0.4610(3) -0.3767(3) 0.2440(5)
H5 H 0.4353 -0.3376 0.2412
C10 C 0.4223(3) -0.4346(3) 0.2362(4)
C11 C 0.4613(3) -0.4918(3) 0.2422(4)
H6 H 0.4356 -0.5310 0.2358
C12 C 0.3382(4) -0.4331(4) 0.2220(4)
C13 C 0.2505(4) -0.3149(3) 0.0219(3)
C14 C 0.1900(4) -0.2761(3) 0.0235(4)
H7 H 0.1487 -0.2935 0.0389
C15 C 0.3104(4) -0.2882(3) -0.0026(4)
H8 H 0.3515 -0.3139 -0.0050
C16 C 0.2498(4) -0.3855(3) 0.0440(4)
C17 C 0.2252(4) -0.4383(3) 0.3896(4)
H9 H 0.2753 -0.4281 0.3946
C18 C 0.1242(4) -0.4676(3) 0.4146(4)
H10 H 0.0885 -0.4826 0.4407
C19 C 0.0423(4) -0.5850(3) 0.1431(4)
C20 C 0.0987(4) -0.5987(3) 0.1030(4)
C21 C 0.0986(5) -0.6557(4) 0.0613(4)
H11 H 0.1352 -0.6644 0.0335
C22 C 0.0423(6) -0.6986(4) 0.0630(5)
H12 H 0.0408 -0.7373 0.0356
C23 C -0.0130(5) -0.6863(4) 0.1042(5)
H13 H -0.0493 -0.7177 0.1042
C24 C -0.0164(4) -0.6296(4) 0.1451(4)
H14 H -0.0540 -0.6212 0.1718
N1 N 0.1088(3) -0.4524(2) 0.3410(3)
N2 N 0.1756(3) -0.4334(2) 0.3240(3)
N3 N 0.1960(3) -0.4597(3) 0.4489(3)
N4 N 0.0570(3) -0.5271(2) 0.1772(3)
N5 N 0.1212(3) -0.5060(2) 0.1586(3)
N6 N 0.1465(3) -0.5474(2) 0.1142(3)
O1 O 0.1358(3) -0.0694(2) 0.4292(3)
O2 O 0.2144(3) -0.1326(2) 0.3886(3)
O3 O 0.1421(3) -0.3017(2) 0.1920(3)
O4 O 0.0542(2) -0.3764(2) 0.1830(2)
O5 O 0.3018(2) -0.4848(2) 0.2032(2)
O6 O 0.3071(2) -0.3798(2) 0.2327(3)
O7 O 0.3024(3) -0.4211(2) 0.0344(3)
O8 O 0.1961(3) -0.40687(19) 0.0712(2)
Cd2A Cd -0.18511(2) -0.41007(2) 0.29913(3)
Cd2A_2 Cd 0.81489(2) -0.41007(2) 0.29913(3)
Cd2F Cd 0.31489(2) -0.08993(2) -0.20087(3)
Cd3E Cd 0.25277(3) -0.48131(2) 0.57250(3)
Cd3D Cd -0.25277(3) -0.48131(2) -0.07250(3)
Cd3A Cd -0.25277(3) -0.51869(2) 0.42750(3)
Cd3A_2 Cd 0.74723(3) -0.51869(2) 0.42750(3)
Cd3C Cd 0.24723(3) -0.01869(2) 0.42750(3)
Cd3B Cd -0.24723(3) -0.01869(2) 0.07250(3)
Cd3F Cd 0.24723(3) 0.01869(2) -0.07250(3)
C1A C 0.0939(4) -0.1739(3) 0.3838(4)
C2A C 0.1136(4) -0.2375(3) 0.3785(4)
H1A H 0.1636 -0.2491 0.3871
C3A C 0.0587(4) -0.2844(3) 0.3603(4)
H2A H 0.0721 -0.3278 0.3592
C4A C -0.0163(4) -0.2672(3) 0.3437(4)
C5A C -0.0358(4) -0.2031(3) 0.3467(4)
H3A H -0.0857 -0.1910 0.3340
C6A C 0.0192(4) -0.1561(3) 0.3686(4)
H4A H 0.0059 -0.1130 0.3731
C7A C 0.1521(4) -0.1217(4) 0.4027(4)
C8A C -0.0745(4) -0.3187(3) 0.3208(4)
C9A C 0.5390(3) -0.3767(3) 0.2560(5)
H5A H 0.5647 -0.3376 0.2588
C10A C 0.5777(3) -0.4346(3) 0.2638(4)
C11A C 0.5387(3) -0.4918(3) 0.2578(4)
H6A H 0.5644 -0.5310 0.2642
C12A C 0.6618(4) -0.4331(4) 0.2780(4)
C13F C 0.2495(4) -0.1851(3) -0.0219(3)
C14F C 0.3100(4) -0.2239(3) -0.0235(4)
H7F H 0.3513 -0.2065 -0.0389
C15F C 0.1896(4) -0.2118(3) 0.0026(4)
H8F H 0.1485 -0.1861 0.0050
C16F C 0.2502(4) -0.1145(3) -0.0440(4)
C17A C -0.2252(4) -0.4383(3) 0.1104(4)
H9A H -0.2753 -0.4281 0.1054
C18A C -0.1242(4) -0.4676(3) 0.0854(4)
H10A H -0.0885 -0.4826 0.0593
C19A C -0.0423(4) -0.5850(3) 0.3569(4)
C20A C -0.0987(4) -0.5987(3) 0.3970(4)
C21A C -0.0986(5) -0.6557(4) 0.4387(4)
H11A H -0.1352 -0.6644 0.4665
C22A C -0.0423(6) -0.6986(4) 0.4370(5)
H12A H -0.0408 -0.7373 0.4644
C23A C 0.0130(5) -0.6863(4) 0.3958(5)
H13A H 0.0493 -0.7177 0.3958
C24A C 0.0164(4) -0.6296(4) 0.3549(4)
H14A H 0.0540 -0.6212 0.3282
N1A N -0.1088(3) -0.4524(2) 0.1590(3)
N2A N -0.1756(3) -0.4334(2) 0.1760(3)
N3E N 0.1960(3) -0.5403(3) -0.0511(3)
N3A N -0.1960(3) -0.4597(3) 0.0511(3)
N3D N -0.1960(3) -0.5403(3) 0.5511(3)
N4A N -0.0570(3) -0.5271(2) 0.3228(3)
N5A N -0.1212(3) -0.5060(2) 0.3414(3)
N6A N -0.1465(3) -0.5474(2) 0.3858(3)
O1C O 0.3642(3) -0.5694(2) 0.0708(3)
O1B O -0.3642(3) -0.5694(2) 0.4292(3)
O1A O -0.1358(3) -0.0694(2) 0.0708(3)
O2C O 0.2856(3) -0.6326(2) 0.1114(3)
O2B O -0.2856(3) -0.6326(2) 0.3886(3)
O2A O -0.2144(3) -0.1326(2) 0.1114(3)
O3A O -0.1421(3) -0.3017(2) 0.3080(3)
O4A O -0.0542(2) -0.3764(2) 0.3170(2)
O5A O -0.3018(2) -0.4848(2) 0.2968(2)
O5A_2 O 0.6982(2) -0.4848(2) 0.2968(2)
O6A O -0.3071(2) -0.3798(2) 0.2673(3)
O6A_2 O 0.6929(2) -0.3798(2) 0.2673(3)
O7A O -0.3024(3) -0.4211(2) 0.4656(3)
O7F O 0.1976(3) -0.0789(2) -0.0344(3)
O8A O -0.1961(3) -0.40687(19) 0.4288(2)
O8F O 0.3039(3) -0.09313(19) -0.0712(2)
N7 N 0.7431(8) -0.6953(7) 0.2474(8)
H15 H 0.7430 -0.6929 0.2982
H16 H 0.7072 -0.7235 0.2256
C25 C 0.7262(10) -0.6326(8) 0.2129(10)
H17 H 0.6787 -0.6183 0.2212
H18 H 0.7246 -0.6352 0.1584
H19 H 0.7641 -0.6023 0.2363
C26 C 0.8109(8) -0.7183(8) 0.2385(10)
H20 H 0.8198 -0.7602 0.2624
H21 H 0.8495 -0.6889 0.2626
H22 H 0.8110 -0.7219 0.1844
C27? C 0.663(2) -0.584(2) 0.180(3)
C28? C 0.800(2) -0.632(2) 0.193(3)
H23? H 0.6550 -0.5388 0.1897
H24? H 0.6361 -0.6102 0.2090
H25? H 0.6456 -0.5923 0.1254
H26? H 0.8435 -0.6047 0.2089
H27? H 0.7959 -0.6445 0.1403
H28? H 0.8052 -0.6695 0.2256
H29? H 0.7403 -0.6037 0.2516
H30? H 0.7552 -0.5571 0.1979
N8? N 0.737(2) -0.5975(18) 0.201(3)
loop_
_geom_bond_atom_site_label_1
_geom_bond_atom_site_label_2
_geom_bond_site_symmetry_1
_geom_bond_site_symmetry_2
Cd1 N1 1_555 1_555
Cd2 N2 1_555 1_555
Cd3 N6 1_555 1_555
C1 C2 1_555 1_555
C2 H1 1_555 1_555
C3 C2 1_555 1_555
H2 C3 1_555 1_555
C4 C3 1_555 1_555
C5 C4 1_555 1_555
H3 C5 1_555 1_555
C6 C1 1_555 1_555
H4 C6 1_555 1_555
C7 C1 1_555 1_555
C8 C4 1_555 1_555
C9 H5 1_555 1_555
C10 C9 1_555 1_555
C11 C10 1_555 1_555
H6 C11 1_555 1_555
C12 C10 1_555 1_555
C13 C14 1_555 1_555
C14 H7 1_555 1_555
C15 C13 1_555 1_555
H8 C15 1_555 1_555
C16 C13 1_555 1_555
C17 H9 1_555 1_555
C18 H10 1_555 1_555
C19 C20 1_555 1_555
C20 C21 1_555 1_555
C21 H11 1_555 1_555
C22 C21 1_555 1_555
H12 C22 1_555 1_555
C23 C22 1_555 1_555
H13 C23 1_555 1_555
C24 C19 1_555 1_555
H14 C24 1_555 1_555
N1 C18 1_555 1_555
N2 C17 1_555 1_555
N3 C17 1_555 1_555
N4 Cd1 1_555 1_555
N5 Cd2 1_555 1_555
N6 C20 1_555 1_555
O1 Cd3C 1_555 1_555
O2 Cd3C 1_555 1_555
O3 Cd2 1_555 1_555
O4 Cd1 1_555 1_555
O5 Cd2 1_555 1_555
O6 Cd2 1_555 1_555
O7 Cd3 1_555 1_555
O8 Cd2 1_555 1_555
N7 H15 1_555 1_555
H16 N7 1_555 1_555
C25 N7 1_555 1_555
H17 C25 1_555 1_555
H18 C25 1_555 1_555
H19 C25 1_555 1_555
C26 N7 1_555 1_555
H20 C26 1_555 1_555
H21 C26 1_555 1_555
H22 C26 1_555 1_555
Cd2A N2A 1_555 1_555
Cd2A_2 O5A_2 1_555 1_555
Cd2F O8F 1_555 1_555
Cd3E N3 1_555 1_555
Cd3D N3A 1_555 1_555
Cd3A N3D 1_555 1_555
Cd3A_2 O5A_2 1_555 1_555
Cd3B O1A 1_555 1_555
Cd3F O7F 1_555 1_555
C1A C2A 1_555 1_555
C2A H1A 1_555 1_555
C3A C2A 1_555 1_555
H2A C3A 1_555 1_555
C4A C3A 1_555 1_555
C5A C4A 1_555 1_555
H3A C5A 1_555 1_555
C6A C1A 1_555 1_555
H4A C6A 1_555 1_555
C7A O1 1_555 1_555
C8A C4A 1_555 1_555
C9A C9 1_555 1_555
H5A C9A 1_555 1_555
C10A C9A 1_555 1_555
C11A C11 1_555 1_555
H6A C11A 1_555 1_555
C12A C10A 1_555 1_555
C13F C14F 1_555 1_555
C14F C15 1_555 1_555
H7F C14F 1_555 1_555
C15F C14 1_555 1_555
H8F C15F 1_555 1_555
C16F C13F 1_555 1_555
C17A H9A 1_555 1_555
C18A H10A 1_555 1_555
C19A C20A 1_555 1_555
C20A C21A 1_555 1_555
C21A H11A 1_555 1_555
C22A C21A 1_555 1_555
H12A C22A 1_555 1_555
C23A C22A 1_555 1_555
H13A C23A 1_555 1_555
C24A C19A 1_555 1_555
H14A C24A 1_555 1_555
N1A Cd1 1_555 1_555
N2A C17A 1_555 1_555
N3E Cd3 1_555 1_555
N3A C17A 1_555 1_555
N4A Cd1 1_555 1_555
N5A Cd2A 1_555 1_555
N6A Cd3A 1_555 1_555
O1C Cd3 1_555 1_555
O1B Cd3A 1_555 1_555
O1A C7 1_555 1_555
O2C Cd3 1_555 1_555
O2B Cd3A 1_555 1_555
O2A C7 1_555 1_555
O3A Cd2A 1_555 1_555
O4A Cd1 1_555 1_555
O5A Cd2A 1_555 1_555
O5A_2 C12A 1_555 1_555
O6A Cd2A 1_555 1_555
O6A_2 Cd2A_2 1_555 1_555
O7A Cd3A 1_555 1_555
O7F C16F 1_555 1_555
O8A Cd2A 1_555 1_555
O8F Cd3F 1_555 1_555
Cd2 O4 1_555 1_555
Cd3 O5 1_555 1_555
Cd3 O8 1_555 1_555
C5 C6 1_555 1_555
C8 O3 1_555 1_555
C8 O4 1_555 1_555
C12 O5 1_555 1_555
C12 O6 1_555 1_555
C16 O7 1_555 1_555
C16 O8 1_555 1_555
C18 N3 1_555 1_555
C19 N4 1_555 1_555
C23 C24 1_555 1_555
N1 N2 1_555 1_555
N4 N5 1_555 1_555
N5 N6 1_555 1_555
O2 C7A 1_555 1_555
Cd2A O4A 1_555 1_555
Cd3A O5A 1_555 1_555
Cd3A O8A 1_555 1_555
Cd3B O2A 1_555 1_555
C1A C7A 1_555 1_555
C5A C6A 1_555 1_555
C8A O3A 1_555 1_555
C8A O4A 1_555 1_555
C10A C11A 1_555 1_555
C12A O6A_2 1_555 1_555
C13F C15F 1_555 1_555
C16F O8F 1_555 1_555
C18A N1A 1_555 1_555
C18A N3A 1_555 1_555
C19A N4A 1_555 1_555
C20A N6A 1_555 1_555
C23A C24A 1_555 1_555
N1A N2A 1_555 1_555
N4A N5A 1_555 1_555
N5A N6A 1_555 1_555

#END
