
#######################################################################
#
#                 Cambridge Crystallographic Data Centre
#                                CCDC 
#
#######################################################################
#
# If this CIF has been generated from an entry in the Cambridge 
# Structural Database, then it will include bibliographic, chemical, 
# crystal, experimental, refinement or atomic coordinate data resulting 
# from the CCDC's data processing and validation procedures.
#
#######################################################################

data_DOQLUS
_symmetry_cell_setting           monoclinic
_symmetry_space_group_name_H-M   'C 2/c'
_symmetry_Int_Tables_number      15
_space_group_name_Hall           '-C 2yn'
loop_
_symmetry_equiv_pos_site_id
_symmetry_equiv_pos_as_xyz
1 x,y,z
2 -x,y,1/2-z
3 1/2+x,1/2+y,z
4 1/2-x,1/2+y,1/2-z
5 -x,-y,-z
6 x,-y,1/2+z
7 1/2-x,1/2-y,-z
8 1/2+x,1/2-y,1/2+z
_cell_length_a                   11.6497(15)
_cell_length_b                   5.6703(4)
_cell_length_c                   16.192(2)
_cell_angle_alpha                90
_cell_angle_beta                 116.988(17)
_cell_angle_gamma                90
_cell_volume                     953.122
loop_
_atom_site_label
_atom_site_type_symbol
_atom_site_fract_x
_atom_site_fract_y
_atom_site_fract_z
Ca1 Ca 1.0000 0.27547(8) 0.2500
N1 N 0.64623(13) -0.1701(3) 0.03861(9)
O1 O 0.85971(13) 0.5724(3) 0.25438(9)
O2 O 0.80507(11) 0.0349(2) 0.15939(7)
O3 O 1.06007(13) 0.0517(3) 0.14988(8)
N2 N 0.62182(13) 0.0482(2) -0.07920(9)
N3 N 0.58222(14) -0.1446(3) -0.05165(9)
N4 N 0.72843(13) 0.0108(2) 0.06994(9)
C1 C 0.71380(15) 0.1455(3) -0.00278(10)
H1 H 1.032(2) -0.074(4) 0.1265(15)
H2 H 0.808(3) 0.564(4) 0.2776(18)
H3 H 0.849(2) 0.693(5) 0.2312(16)
H4 H 1.089(3) 0.119(6) 0.1157(18)
N1F N 0.85377(13) 0.6701(3) -0.03861(9)
O2F O 0.69493(11) 0.4651(2) -0.15939(7)
N2F N 0.87818(13) 0.4518(2) 0.07920(9)
N3F N 0.91778(14) 0.6446(3) 0.05165(9)
N4F N 0.77157(13) 0.4892(2) -0.06994(9)
C1F C 0.78620(15) 0.3545(3) 0.00278(10)
O1A O 1.14029(13) 0.5724(3) 0.24562(9)
O3A O 0.93993(13) 0.0517(3) 0.35012(8)
H1A H 0.968(2) -0.074(4) 0.3735(15)
H2A H 1.192(3) 0.564(4) 0.2224(18)
H3A H 1.151(2) 0.693(5) 0.2688(16)
H4A H 0.911(3) 0.119(6) 0.3843(18)
Ca1F Ca 0.5000 0.22453(8) -0.2500
O2A O 1.19493(11) 0.0349(2) 0.34061(7)
N2G N 1.12182(13) 0.4518(2) 0.42080(9)
loop_
_geom_bond_atom_site_label_1
_geom_bond_atom_site_label_2
_geom_bond_site_symmetry_1
_geom_bond_site_symmetry_2
Ca1 O1 1_555 1_555
N1 N3 1_555 1_555
O1 H2 1_555 1_555
O2 Ca1 1_555 1_555
O3 Ca1 1_555 1_555
N2 N3 1_555 1_555
N4 N1 1_555 1_555
C1 N2 1_555 1_555
H1 O3 1_555 1_555
H3 O1 1_555 1_555
H4 O3 1_555 1_555
N1F N3F 1_555 1_555
O2F N4F 1_555 1_555
N2F Ca1 1_555 1_555
N3F N2F 1_555 1_555
N4F N1F 1_555 1_555
C1F C1 1_555 1_555
O1A Ca1 1_555 1_555
O3A Ca1 1_555 1_555
H1A O3A 1_555 1_555
H2A O1A 1_555 1_555
H3A O1A 1_555 1_555
H4A O3A 1_555 1_555
Ca1F N2 1_555 1_555
O2A Ca1 1_555 1_555
N2G Ca1 1_555 1_555
O2 N4 1_555 1_555
N4 C1 1_555 1_555
O2F Ca1F 1_555 1_555
N2F C1F 1_555 1_555
N4F C1F 1_555 1_555

#END
