
#######################################################################
#
#                 Cambridge Crystallographic Data Centre
#                                CCDC 
#
#######################################################################
#
# If this CIF has been generated from an entry in the Cambridge 
# Structural Database, then it will include bibliographic, chemical, 
# crystal, experimental, refinement or atomic coordinate data resulting 
# from the CCDC's data processing and validation procedures.
#
#######################################################################

data_DOQLIG
_symmetry_cell_setting           triclinic
_symmetry_space_group_name_H-M   'P -1'
_symmetry_Int_Tables_number      2
_space_group_name_Hall           '-P 1'
loop_
_symmetry_equiv_pos_site_id
_symmetry_equiv_pos_as_xyz
1 x,y,z
2 -x,-y,-z
_cell_length_a                   5.2896(5)
_cell_length_b                   6.3741(7)
_cell_length_c                   8.2552(9)
_cell_angle_alpha                105.928(9)
_cell_angle_beta                 98.073(9)
_cell_angle_gamma                111.860(10)
_cell_volume                     239.05
loop_
_atom_site_label
_atom_site_type_symbol
_atom_site_fract_x
_atom_site_fract_y
_atom_site_fract_z
O1 O 0.25429(19) 0.04323(15) 0.31108(11)
N1 N 0.2165(2) -0.08009(18) 0.14623(13)
N2 N 0.3288(2) -0.23668(19) 0.09936(14)
N3 N 0.2471(2) -0.32841(19) -0.07181(14)
N4 N 0.0859(2) -0.23424(19) -0.13734(13)
C1 C 0.0709(2) -0.0771(2) 0.00051(15)
O2 O -0.1768(2) 0.26601(17) 0.50016(12)
O3 O 0.5678(2) 0.56674(17) 0.34641(12)
Li1 Li 0.1710(5) 0.3528(4) 0.4052(3)
H1 H -0.344(4) 0.192(4) 0.430(3)
H2 H 0.501(4) 0.660(3) 0.307(2)
H3 H 0.620(4) 0.493(3) 0.262(3)
H4 H -0.173(4) 0.176(3) 0.562(2)
O1A O -0.25429(19) -0.04323(15) -0.31108(11)
N1A N -0.2165(2) 0.08009(18) -0.14623(13)
N2A N -0.3288(2) 0.23668(19) -0.09936(14)
N3A N -0.2471(2) 0.32841(19) 0.07181(14)
N4A N -0.0859(2) 0.23424(19) 0.13734(13)
C1A C -0.0709(2) 0.0771(2) -0.00051(15)
O2A O 0.1768(2) -0.26601(17) -0.50016(12)
O3A O -0.5678(2) -0.56674(17) -0.34641(12)
Li1A Li -0.1710(5) -0.3528(4) -0.4052(3)
H1A H 0.344(4) -0.192(4) -0.430(3)
H2A H -0.501(4) -0.660(3) -0.307(2)
H3A H -0.620(4) -0.493(3) -0.262(3)
H4A H 0.173(4) -0.176(3) -0.562(2)
O2_2 O -0.1768(2) -0.73399(17) -0.49984(12)
O2A_2 O 0.1768(2) 0.73399(17) 0.49984(12)
O3_2 O -0.4322(2) -0.43326(17) -0.65359(12)
O3A_2 O 0.4322(2) 0.43326(17) 0.65359(12)
Li1_2 Li -0.8290(5) -0.6472(4) -0.5948(3)
Li1_3 Li 0.1710(5) -0.6472(4) -0.5948(3)
Li1A_2 Li -0.1710(5) 0.6472(4) 0.5948(3)
Li1A_3 Li 0.8290(5) 0.6472(4) 0.5948(3)
loop_
_geom_bond_atom_site_label_1
_geom_bond_atom_site_label_2
_geom_bond_site_symmetry_1
_geom_bond_site_symmetry_2
O1 N1 1_555 1_555
N1 N2 1_555 1_555
N2 N3 1_555 1_555
N3 N4 1_555 1_555
N4 C1 1_555 1_555
C1 N1 1_555 1_555
O2 Li1 1_555 1_555
O3 Li1 1_555 1_555
Li1 O1 1_555 1_555
H1 O2 1_555 1_555
H2 O3 1_555 1_555
H3 O3 1_555 1_555
H4 O2 1_555 1_555
O1A N1A 1_555 1_555
N1A N2A 1_555 1_555
N2A N3A 1_555 1_555
N3A N4A 1_555 1_555
N4A Li1 1_555 1_555
C1A C1 1_555 1_555
O2A Li1A 1_555 1_555
O3A Li1A 1_555 1_555
Li1A N4 1_555 1_555
H1A O2A 1_555 1_555
H2A O3A 1_555 1_555
H3A O3A 1_555 1_555
H4A O2A 1_555 1_555
O2_2 Li1A 1_555 1_555
O2A_2 Li1 1_555 1_555
O3_2 Li1A 1_555 1_555
O3A_2 Li1 1_555 1_555
Li1_2 O3A 1_555 1_555
Li1_3 O2A 1_555 1_555
Li1A_2 O2 1_555 1_555
Li1A_3 O3 1_555 1_555
O1A Li1A 1_555 1_555
N1A C1A 1_555 1_555
N4A C1A 1_555 1_555
O2_2 Li1_3 1_555 1_555
O2A_2 Li1A_2 1_555 1_555
O3_2 Li1_2 1_555 1_555
O3A_2 Li1A_3 1_555 1_555

#END
