
#######################################################################
#
#                 Cambridge Crystallographic Data Centre
#                                CCDC 
#
#######################################################################
#
# If this CIF has been generated from an entry in the Cambridge 
# Structural Database, then it will include bibliographic, chemical, 
# crystal, experimental, refinement or atomic coordinate data resulting 
# from the CCDC's data processing and validation procedures.
#
#######################################################################

data_DOQMAX
_symmetry_cell_setting           orthorhombic
_symmetry_space_group_name_H-M   'C 2 2 21'
_symmetry_Int_Tables_number      20
_space_group_name_Hall           'C 2n 2'
loop_
_symmetry_equiv_pos_site_id
_symmetry_equiv_pos_as_xyz
1 x,y,z
2 -x,-y,1/2+z
3 x,-y,-z
4 -x,y,1/2-z
5 1/2+x,1/2+y,z
6 1/2-x,1/2-y,1/2+z
7 1/2+x,1/2-y,-z
8 1/2-x,1/2+y,1/2-z
_cell_length_a                   9.186(1)
_cell_length_b                   14.020(1)
_cell_length_c                   20.864(1)
_cell_angle_alpha                90
_cell_angle_beta                 90
_cell_angle_gamma                90
_cell_volume                     2687.03
loop_
_atom_site_label
_atom_site_type_symbol
_atom_site_fract_x
_atom_site_fract_y
_atom_site_fract_z
Ca1 Ca 0.0000 -0.5110(1) 0.2500
O1 O -0.7603(2) -0.4746(1) 0.2782(1)
O2 O -0.7314(2) -0.3223(1) 0.3078(1)
C1 C -0.6860(2) -0.4026(1) 0.2919(1)
C2 C -0.5211(2) -0.4170(1) 0.2852(1)
O3 O -0.4408(2) -0.3415(1) 0.3160(1)
O4 O -0.4613(2) -0.4208(1) 0.4087(1)
C3 C -0.4161(2) -0.3536(2) 0.3790(1)
C4 C -0.3269(2) -0.2751(2) 0.4062(1)
C5 C -0.3050(3) -0.2739(2) 0.4723(1)
C6 C -0.2214(3) -0.2033(2) 0.4996(1)
C7 C -0.1591(3) -0.1333(2) 0.4618(1)
C8 C -0.1810(3) -0.1350(2) 0.3966(1)
C9 C -0.2651(3) -0.2053(2) 0.3690(1)
O5 O -0.1207(2) -0.6448(1) 0.3011(1)
C10 C -0.2170(3) -0.6134(2) 0.3509(1)
C11 C -0.1316(3) -0.5589(2) 0.3991(1)
O6 O -0.0591(2) -0.4839(1) 0.3661(1)
C12 C -0.0231(4) -0.4246(3) 0.0921(2)
O7 O 0.0000 -0.3431(2) 0.2500
H1 H -0.4938(2) -0.4782(1) 0.3044(1)
H2 H -0.3468(3) -0.3208(2) 0.4980(1)
H3 H -0.2068(3) -0.2026(2) 0.5438(1)
H4 H -0.1028(3) -0.0855(2) 0.4803(1)
H5 H -0.1388(3) -0.0884(2) 0.3709(1)
H6 H -0.2800(3) -0.2053(2) 0.3249(1)
H7 H 0.1398(41) -0.7104(19) 0.2027(16)
H8 H 0.2629(3) -0.6680(2) 0.1289(1)
H9 H 0.2926(3) -0.5733(2) 0.1671(1)
H10 H 0.1959(3) -0.5329(2) 0.0684(1)
H11 H 0.0613(3) -0.6002(2) 0.0801(1)
H12 H -0.0623(40) -0.3728(23) 0.1181(17)
H13 H 0.0395(38) -0.3973(23) 0.0586(16)
H14 H -0.1050(41) -0.4673(22) 0.0623(14)
H15 H -0.0856(24) -0.3127(21) 0.2401(18)
C2C C -0.4789(2) -0.4170(1) 0.2148(1)
C1C C -0.3140(2) -0.4026(1) 0.2081(1)
O1C O -0.2397(2) -0.4746(1) 0.2218(1)
Ca1_2 Ca -1.0000 -0.5110(1) 0.2500
O1_2 O 0.2397(2) -0.4746(1) 0.2782(1)
O5C O 0.1207(2) -0.6448(1) 0.1989(1)
C10C C 0.2170(3) -0.6134(2) 0.1491(1)
C11C C 0.1316(3) -0.5589(2) 0.1009(1)
O6C O 0.0591(2) -0.4839(1) 0.1339(1)
H15C H 0.0856(24) -0.3127(21) 0.2599(18)
C12C C 0.0231(4) -0.4246(3) 0.4079(2)
H12C H 0.0623(40) -0.3728(23) 0.3819(17)
H13C H -0.0395(38) -0.3973(23) 0.4414(16)
H14C H 0.1050(41) -0.4673(22) 0.4377(14)
H10C H -0.1959(3) -0.5329(2) 0.4316(1)
H11C H -0.0613(3) -0.6002(2) 0.4199(1)
H8C H -0.2629(3) -0.6680(2) 0.3711(1)
H9C H -0.2926(3) -0.5733(2) 0.3329(1)
H7C H -0.1398(41) -0.7104(19) 0.2973(16)
O2C O -0.2686(2) -0.3223(1) 0.1922(1)
O3C O -0.5592(2) -0.3415(1) 0.1840(1)
C3C C -0.5839(2) -0.3536(2) 0.1210(1)
O4C O -0.5387(2) -0.4208(1) 0.0913(1)
C4C C -0.6731(2) -0.2751(2) 0.0938(1)
C5C C -0.6950(3) -0.2739(2) 0.0277(1)
C6C C -0.7786(3) -0.2033(2) 0.0004(1)
C7C C -0.8409(3) -0.1333(2) 0.0382(1)
C8C C -0.8190(3) -0.1350(2) 0.1034(1)
C9C C -0.7349(3) -0.2053(2) 0.1310(1)
H6C H -0.7200(3) -0.2053(2) 0.1751(1)
H5C H -0.8612(3) -0.0884(2) 0.1291(1)
H4C H -0.8972(3) -0.0855(2) 0.0197(1)
H3C H -0.7932(3) -0.2026(2) -0.0438(1)
H2C H -0.6532(3) -0.3208(2) 0.0020(1)
H1C H -0.5062(2) -0.4782(1) 0.1956(1)
loop_
_geom_bond_atom_site_label_1
_geom_bond_atom_site_label_2
_geom_bond_site_symmetry_1
_geom_bond_site_symmetry_2
Ca1 O5 1_555 1_555
O1 C1 1_555 1_555
O2 C1 1_555 1_555
C1 C2 1_555 1_555
C2 O3 1_555 1_555
O3 C3 1_555 1_555
O4 C3 1_555 1_555
C3 C4 1_555 1_555
C4 C5 1_555 1_555
C5 C6 1_555 1_555
C6 C7 1_555 1_555
C7 C8 1_555 1_555
C8 C9 1_555 1_555
C9 C4 1_555 1_555
O5 C10 1_555 1_555
C10 C11 1_555 1_555
C11 O6 1_555 1_555
O6 Ca1 1_555 1_555
C12 H12 1_555 1_555
O7 Ca1 1_555 1_555
H1 C2 1_555 1_555
H2 C5 1_555 1_555
H3 C6 1_555 1_555
H4 C7 1_555 1_555
H5 C8 1_555 1_555
H6 C9 1_555 1_555
H7 O5C 1_555 1_555
H8 C10C 1_555 1_555
H9 C10C 1_555 1_555
H10 C11C 1_555 1_555
H11 C11C 1_555 1_555
H13 C12 1_555 1_555
H14 C12 1_555 1_555
H15 O7 1_555 1_555
C2C C2 1_555 1_555
C1C C2C 1_555 1_555
O1C Ca1 1_555 1_555
Ca1_2 O1 1_555 1_555
O1_2 Ca1 1_555 1_555
O5C Ca1 1_555 1_555
C10C O5C 1_555 1_555
C11C C10C 1_555 1_555
O6C Ca1 1_555 1_555
H15C O7 1_555 1_555
C12C O6 1_555 1_555
H12C C12C 1_555 1_555
H13C C12C 1_555 1_555
H14C C12C 1_555 1_555
H10C C11 1_555 1_555
H11C C11 1_555 1_555
H8C C10 1_555 1_555
H9C C10 1_555 1_555
H7C O5 1_555 1_555
O2C C1C 1_555 1_555
O3C C2C 1_555 1_555
C3C O3C 1_555 1_555
O4C C3C 1_555 1_555
C4C C3C 1_555 1_555
C5C C4C 1_555 1_555
C6C C5C 1_555 1_555
C7C C6C 1_555 1_555
C8C C7C 1_555 1_555
C9C C4C 1_555 1_555
H6C C9C 1_555 1_555
H5C C8C 1_555 1_555
H4C C7C 1_555 1_555
H3C C6C 1_555 1_555
H2C C5C 1_555 1_555
H1C C2C 1_555 1_555
C12 O6C 1_555 1_555
C1C O1C 1_555 1_555
C11C O6C 1_555 1_555
C8C C9C 1_555 1_555

#END
