
#######################################################################
#
#                 Cambridge Crystallographic Data Centre
#                                CCDC 
#
#######################################################################
#
# If this CIF has been generated from an entry in the Cambridge 
# Structural Database, then it will include bibliographic, chemical, 
# crystal, experimental, refinement or atomic coordinate data resulting 
# from the CCDC's data processing and validation procedures.
#
#######################################################################

data_DOQQIL
_symmetry_cell_setting           orthorhombic
_symmetry_space_group_name_H-M   'I b c a'
_symmetry_Int_Tables_number      73
_space_group_name_Hall           '-I 2b 2c'
loop_
_symmetry_equiv_pos_site_id
_symmetry_equiv_pos_as_xyz
1 x,y,z
2 -x,1/2-y,z
3 x,-y,1/2-z
4 1/2-x,y,-z
5 1/2+x,1/2+y,1/2+z
6 1/2-x,-y,1/2+z
7 1/2+x,1/2-y,-z
8 -x,1/2+y,1/2-z
9 -x,-y,-z
10 x,1/2+y,-z
11 -x,y,1/2+z
12 1/2+x,-y,z
13 1/2-x,1/2-y,1/2-z
14 1/2+x,y,1/2-z
15 1/2-x,1/2+y,z
16 x,1/2-y,1/2+z
_cell_length_a                   8.2621(6)
_cell_length_b                   19.3780(15)
_cell_length_c                   21.87(2)
_cell_angle_alpha                90
_cell_angle_beta                 90
_cell_angle_gamma                90
_cell_volume                     3501.45
loop_
_atom_site_label
_atom_site_type_symbol
_atom_site_fract_x
_atom_site_fract_y
_atom_site_fract_z
U1 U 0.5000 0.2500 0.52894(2)
Cl1 Cl 0.4160(6) 0.36893(19) 0.7479(2)
C1 C 0.5000 0.2500 0.7488(8)
C2 C 0.5000 0.2500 0.6781(9)
O1 O 0.3758(11) 0.2319(6) 0.6436(4)
C3 C 0.4666(16) 0.3021(7) 0.7904(6)
O2 O 0.4263(11) 0.3254(4) 0.5276(4)
O3 O 0.7500 0.2870(5) 0.5000
N1 N 0.5000 0.2500 0.8968(7)
C4 C 0.4693(14) 0.3004(6) 0.8605(6)
H1 H 0.4451 0.3421 0.8795
Cl1A Cl 0.5840(6) 0.13107(19) 0.7479(2)
O1A O 0.6242(11) 0.2681(6) 0.6436(4)
C3A C 0.5334(16) 0.1979(7) 0.7904(6)
C4A C 0.5307(14) 0.1996(6) 0.8605(6)
H1A H 0.5549 0.1579 0.8795
O2A O 0.5737(11) 0.1746(4) 0.5276(4)
U1C U 1.0000 0.2500 0.47106(2)
U1J U 0.5000 0.2500 1.02894(2)
O3A O 0.2500 0.2130(5) 0.5000
N1J N 0.5000 0.2500 0.3968(7)
N2 N 0.7500 0.4108(8) 0.5000
H2 H 0.7500 0.3665 0.5000
Cl2 Cl 0.6330(7) 0.5413(2) 0.6345(3)
C5 C 0.701(2) 0.5048(8) 0.5560(11)
C6 C 0.700(2) 0.4408(8) 0.5537(11)
H3 H 0.6672 0.4143 0.5869
C7 C 0.7500 0.5363(12) 0.5000
H4 H 0.7500 0.586(13) 0.5000
Cl2C Cl 0.8670(7) 0.5413(2) 0.3655(3)
C5C C 0.799(2) 0.5048(8) 0.4440(11)
C6C C 0.800(2) 0.4408(8) 0.4463(11)
H3C H 0.8328 0.4143 0.4131
loop_
_geom_bond_atom_site_label_1
_geom_bond_atom_site_label_2
_geom_bond_site_symmetry_1
_geom_bond_site_symmetry_2
U1 O1 1_555 1_555
Cl1 C3 1_555 1_555
C1 C2 1_555 1_555
C2 O1 1_555 1_555
C3 C1 1_555 1_555
O2 U1 1_555 1_555
O3 U1 1_555 1_555
N1 C4 1_555 1_555
C4 C3 1_555 1_555
H1 C4 1_555 1_555
N2 H2 1_555 1_555
Cl2 C5 1_555 1_555
C5 C6 1_555 1_555
C6 N2 1_555 1_555
H3 C6 1_555 1_555
C7 C5 1_555 1_555
H4 C7 1_555 1_555
Cl1A C3A 1_555 1_555
O1A U1 1_555 1_555
C3A C1 1_555 1_555
C4A N1 1_555 1_555
H1A C4A 1_555 1_555
O2A U1 1_555 1_555
U1C O3 1_555 1_555
U1J N1 1_555 1_555
O3A U1 1_555 1_555
N1J U1 1_555 1_555
Cl2C C5C 1_555 1_555
C5C C7 1_555 1_555
C6C N2 1_555 1_555
H3C C6C 1_555 1_555
C2 O1A 1_555 1_555
C3A C4A 1_555 1_555
C5C C6C 1_555 1_555

#END
