
#######################################################################
#
#                 Cambridge Crystallographic Data Centre
#                                CCDC 
#
#######################################################################
#
# If this CIF has been generated from an entry in the Cambridge 
# Structural Database, then it will include bibliographic, chemical, 
# crystal, experimental, refinement or atomic coordinate data resulting 
# from the CCDC's data processing and validation procedures.
#
#######################################################################

data_DOQQOR
_symmetry_cell_setting           orthorhombic
_symmetry_space_group_name_H-M   'I b c a'
_symmetry_Int_Tables_number      73
_space_group_name_Hall           '-I 2b 2c'
loop_
_symmetry_equiv_pos_site_id
_symmetry_equiv_pos_as_xyz
1 x,y,z
2 -x,1/2-y,z
3 x,-y,1/2-z
4 -x,1/2+y,1/2-z
5 1/2+x,1/2+y,1/2+z
6 1/2-x,-y,1/2+z
7 1/2+x,1/2-y,-z
8 1/2-x,y,-z
9 -x,-y,-z
10 x,1/2+y,-z
11 -x,y,1/2+z
12 x,1/2-y,1/2+z
13 1/2-x,1/2-y,1/2-z
14 1/2+x,y,1/2-z
15 1/2-x,1/2+y,z
16 1/2+x,-y,z
_cell_length_a                   8.3785(3)
_cell_length_b                   19.4370(8)
_cell_length_c                   22.0629(10)
_cell_angle_alpha                90
_cell_angle_beta                 90
_cell_angle_gamma                90
_cell_volume                     3593.01
loop_
_atom_site_label
_atom_site_type_symbol
_atom_site_fract_x
_atom_site_fract_y
_atom_site_fract_z
U1 U 0.7500 0.777201(15) 0.5000
Br1 Br 0.63767(11) 0.49232(4) 0.62162(4)
C1 C 0.7097(7) 0.6089(3) 0.5497(3)
H1 H 0.6830 0.6332 0.5846
C2 C 0.7063(8) 0.5381(3) 0.5512(3)
C3 C 0.7500 0.5005(5) 0.5000
O1 O 0.8191(6) 0.7756(2) 0.5754(2)
O2 O 0.5000 0.7500 0.5354(3)
N1 N 0.7500 0.6436(4) 0.5000
O3 O 0.6298(6) 0.3921(2) 0.4806(3)
C4 C 0.7500 0.4229(5) 0.5000
Br1G Br 0.86233(11) 0.49232(4) 0.37838(4)
C1G C 0.7903(7) 0.6089(3) 0.4503(3)
H1G H 0.8170 0.6332 0.4154
C2G C 0.7937(8) 0.5381(3) 0.4488(3)
O3G O 0.8702(6) 0.3921(2) 0.5194(3)
O1G O 0.6809(6) 0.7756(2) 0.4246(2)
U1A U 0.2500 0.722799(15) 0.5000
U1I U 0.7500 0.277201(15) 0.5000
O2F O 1.0000 0.7500 0.4646(3)
O3I O 0.6298(6) 0.8921(2) 0.5194(3)
O3N O 0.8702(6) 0.8921(2) 0.4806(3)
Br2 Br 0.35728(17) 0.61727(8) 0.78989(6)
C5 C 0.5000 0.7500 0.7831(6)
H2 H 0.5000 0.7500 0.8252
C6 C 0.4393(10) 0.6973(5) 0.6895(4)
H3 H 0.3947 0.6609 0.6680
C7 C 0.4399(10) 0.6944(5) 0.7508(4)
N2 N 0.5000 0.7500 0.6587(4)
H4 H 0.5000 0.7500 0.6197
Br2A Br 0.64272(17) 0.88273(8) 0.78989(6)
C6A C 0.5607(10) 0.8027(5) 0.6895(4)
H3A H 0.6053 0.8391 0.6680
C7A C 0.5601(10) 0.8056(5) 0.7508(4)
loop_
_geom_bond_atom_site_label_1
_geom_bond_atom_site_label_2
_geom_bond_site_symmetry_1
_geom_bond_site_symmetry_2
U1 O1 1_555 1_555
Br1 C2 1_555 1_555
C1 H1 1_555 1_555
C2 C1 1_555 1_555
C3 C2 1_555 1_555
O2 U1 1_555 1_555
N1 U1 1_555 1_555
O3 C4 1_555 1_555
C4 C3 1_555 1_555
Br2 C7 1_555 1_555
C5 H2 1_555 1_555
C6 H3 1_555 1_555
C7 C5 1_555 1_555
N2 C6 1_555 1_555
H4 N2 1_555 1_555
Br1G C2G 1_555 1_555
C1G N1 1_555 1_555
H1G C1G 1_555 1_555
C2G C3 1_555 1_555
O3G C4 1_555 1_555
O1G U1 1_555 1_555
U1A O2 1_555 1_555
U1I O3 1_555 1_555
O2F U1 1_555 1_555
O3I U1 1_555 1_555
O3N U1 1_555 1_555
Br2A C7A 1_555 1_555
C6A N2 1_555 1_555
H3A C6A 1_555 1_555
C7A C5 1_555 1_555
C1 N1 1_555 1_555
C6 C7 1_555 1_555
C1G C2G 1_555 1_555
O3G U1I 1_555 1_555
C6A C7A 1_555 1_555

#END
