
#######################################################################
#
#                 Cambridge Crystallographic Data Centre
#                                CCDC 
#
#######################################################################
#
# If this CIF has been generated from an entry in the Cambridge 
# Structural Database, then it will include bibliographic, chemical, 
# crystal, experimental, refinement or atomic coordinate data resulting 
# from the CCDC's data processing and validation procedures.
#
#######################################################################

data_DOQROQ
_symmetry_cell_setting           triclinic
_symmetry_space_group_name_H-M   'P -1'
_symmetry_Int_Tables_number      2
_space_group_name_Hall           '-P 1'
loop_
_symmetry_equiv_pos_site_id
_symmetry_equiv_pos_as_xyz
1 x,y,z
2 -x,-y,-z
_cell_length_a                   7.706(6)
_cell_length_b                   9.509(6)
_cell_length_c                   10.236(11)
_cell_angle_alpha                97.58(4)
_cell_angle_beta                 106.08(4)
_cell_angle_gamma                108.936(17)
_cell_volume                     661.098
loop_
_atom_site_label
_atom_site_type_symbol
_atom_site_fract_x
_atom_site_fract_y
_atom_site_fract_z
Mn1 Mn 0.71619(9) 0.96144(7) 0.52116(7)
O1 O 0.5535(4) 1.1159(3) 0.4329(3)
O2 O 0.4484(5) 1.1312(5) 0.2102(4)
O3 O 0.8793(5) 1.0578(3) 0.3955(3)
O4 O 1.1696(4) 1.2030(3) 0.3966(3)
N1 N 0.9091(5) 1.1452(4) 0.7252(4)
N2 N 1.5494(5) 1.7551(4) 1.3240(4)
C1 C 0.5721(6) 1.1741(5) 0.3284(5)
C2 C 0.7558(7) 1.3089(5) 0.3528(5)
C3 C 0.9376(7) 1.3159(5) 0.3774(5)
C4 C 0.9980(6) 1.1822(5) 0.3914(4)
C5 C 1.0051(7) 1.1161(6) 0.8427(5)
C6 C 1.1352(7) 1.2268(5) 0.9608(5)
C7 C 1.1721(6) 1.3813(5) 0.9641(4)
C8 C 1.0679(7) 1.4114(6) 0.8450(5)
C9 C 0.9397(7) 1.2926(5) 0.7296(5)
C10 C 1.4722(7) 1.6109(5) 1.3362(5)
C11 C 1.3548(7) 1.4865(5) 1.2240(5)
C12 C 1.3089(6) 1.5077(5) 1.0884(5)
C13 C 1.3947(7) 1.6561(6) 1.0759(5)
C14 C 1.5113(7) 1.7736(6) 1.1934(5)
H1 H 0.727(8) 1.404(6) 0.342(6)
H2 H 1.049(8) 1.412(7) 0.385(6)
H3 H 0.975(7) 1.017(6) 0.843(5)
H4 H 1.211(6) 1.198(5) 1.036(5)
H5 H 1.077(7) 1.507(6) 0.846(5)
H6 H 0.861(7) 1.320(5) 0.651(5)
H7 H 1.290(6) 1.391(5) 1.245(5)
H8 H 1.495(6) 1.608(5) 1.433(5)
H9 H 1.372(8) 1.666(7) 0.997(6)
H10 H 1.571(8) 1.867(7) 1.177(6)
O1A O 0.4465(4) 0.8841(3) 0.5671(3)
O1A_2 O 1.4465(4) 0.8841(3) 0.5671(3)
O2A O 1.5516(5) 0.8688(5) 0.7898(4)
O3A O 1.1207(5) 0.9422(3) 0.6045(3)
O4A O 0.8304(4) 0.7970(3) 0.6034(3)
C1A C 1.4279(6) 0.8259(5) 0.6716(5)
C2A C 1.2442(7) 0.6911(5) 0.6472(5)
C3A C 1.0624(7) 0.6841(5) 0.6226(5)
C4A C 1.0020(6) 0.8178(5) 0.6086(4)
H1A H 1.273(8) 0.596(6) 0.658(6)
H2A H 0.951(8) 0.588(7) 0.615(6)
N1_2 N -0.0909(5) 0.1452(4) -0.2748(4)
N2_2 N 0.5494(5) 0.7551(4) 0.3240(4)
C5_2 C 0.0051(7) 0.1161(6) -0.1573(5)
C6_2 C 0.1352(7) 0.2268(5) -0.0392(5)
C7_2 C 0.1721(6) 0.3813(5) -0.0359(4)
C8_2 C 0.0679(7) 0.4114(6) -0.1550(5)
C9_2 C -0.0603(7) 0.2926(5) -0.2704(5)
C10_2 C 0.4722(7) 0.6109(5) 0.3362(5)
C11_2 C 0.3548(7) 0.4865(5) 0.2240(5)
C12_2 C 0.3089(6) 0.5077(5) 0.0884(5)
C13_2 C 0.3947(7) 0.6561(6) 0.0759(5)
C14_2 C 0.5113(7) 0.7736(6) 0.1934(5)
H3_2 H -0.025(7) 0.017(6) -0.157(5)
H4_2 H 0.211(6) 0.198(5) 0.036(5)
H5_2 H 0.077(7) 0.507(6) -0.154(5)
H6_2 H -0.139(7) 0.320(5) -0.349(5)
H7_2 H 0.290(6) 0.391(5) 0.245(5)
H8_2 H 0.495(6) 0.608(5) 0.433(5)
H9_2 H 0.372(8) 0.666(7) -0.003(6)
H10_2 H 0.571(8) 0.867(7) 0.177(6)
Mn1A Mn 0.28381(9) 1.03856(7) 0.47884(7)
Mn1A_2 Mn 1.28381(9) 1.03856(7) 0.47884(7)
Mn1_2 Mn 1.71619(9) 0.96144(7) 0.52116(7)
Mn1_3 Mn -0.28381(9) -0.03856(7) -0.47884(7)
Mn1_4 Mn 1.71619(9) 1.96144(7) 1.52116(7)
O1_2 O 1.5535(4) 1.1159(3) 0.4329(3)
N1A N 1.0909(5) 0.8548(4) 0.2748(4)
N2A N 1.4506(5) 1.2449(4) 0.6760(4)
O5 O 0.283(2) 0.9168(19) 0.9522(18)
loop_
_geom_bond_atom_site_label_1
_geom_bond_atom_site_label_2
_geom_bond_site_symmetry_1
_geom_bond_site_symmetry_2
Mn1 O1 1_555 1_555
O1 C1 1_555 1_555
O2 C1 1_555 1_555
O3 Mn1 1_555 1_555
O4 C4 1_555 1_555
N1 Mn1 1_555 1_555
N2 C10 1_555 1_555
C1 C2 1_555 1_555
C2 C3 1_555 1_555
C3 C4 1_555 1_555
C4 O3 1_555 1_555
C5 N1 1_555 1_555
C6 C5 1_555 1_555
C7 C6 1_555 1_555
C8 C7 1_555 1_555
C9 N1 1_555 1_555
C10 C11 1_555 1_555
C11 C12 1_555 1_555
C12 C7 1_555 1_555
C13 C12 1_555 1_555
C14 N2 1_555 1_555
H1 C2 1_555 1_555
H2 C3 1_555 1_555
H3 C5 1_555 1_555
H4 C6 1_555 1_555
H5 C8 1_555 1_555
H6 C9 1_555 1_555
H7 C11 1_555 1_555
H8 C10 1_555 1_555
H9 C13 1_555 1_555
H10 C14 1_555 1_555
O1A Mn1 1_555 1_555
O1A_2 C1A 1_555 1_555
O2A C1A 1_555 1_555
O3A C4A 1_555 1_555
O4A Mn1 1_555 1_555
C1A C2A 1_555 1_555
C2A C3A 1_555 1_555
C3A C4A 1_555 1_555
C4A O4A 1_555 1_555
H1A C2A 1_555 1_555
H2A C3A 1_555 1_555
N1_2 C5_2 1_555 1_555
N2_2 Mn1 1_555 1_555
C5_2 C6_2 1_555 1_555
C6_2 C7_2 1_555 1_555
C7_2 C8_2 1_555 1_555
C8_2 C9_2 1_555 1_555
C9_2 N1_2 1_555 1_555
C10_2 N2_2 1_555 1_555
C11_2 C10_2 1_555 1_555
C12_2 C7_2 1_555 1_555
C13_2 C12_2 1_555 1_555
C14_2 N2_2 1_555 1_555
H3_2 C5_2 1_555 1_555
H4_2 C6_2 1_555 1_555
H5_2 C8_2 1_555 1_555
H6_2 C9_2 1_555 1_555
H7_2 C11_2 1_555 1_555
H8_2 C10_2 1_555 1_555
H9_2 C13_2 1_555 1_555
H10_2 C14_2 1_555 1_555
Mn1A O1 1_555 1_555
Mn1A_2 O4 1_555 1_555
Mn1_2 O1A_2 1_555 1_555
Mn1_3 N1_2 1_555 1_555
Mn1_4 N2 1_555 1_555
O1_2 Mn1A_2 1_555 1_555
N1A Mn1A_2 1_555 1_555
N2A Mn1A_2 1_555 1_555
C8 C9 1_555 1_555
C13 C14 1_555 1_555
O1A Mn1A 1_555 1_555
O1A_2 Mn1A_2 1_555 1_555
O3A Mn1A_2 1_555 1_555
C11_2 C12_2 1_555 1_555
C13_2 C14_2 1_555 1_555
Mn1_2 O1_2 1_555 1_555

#END
