
#######################################################################
#
#                 Cambridge Crystallographic Data Centre
#                                CCDC 
#
#######################################################################
#
# If this CIF has been generated from an entry in the Cambridge 
# Structural Database, then it will include bibliographic, chemical, 
# crystal, experimental, refinement or atomic coordinate data resulting 
# from the CCDC's data processing and validation procedures.
#
#######################################################################

data_DOQRAE
_symmetry_cell_setting           monoclinic
_symmetry_space_group_name_H-M   'C 2/c'
_symmetry_Int_Tables_number      15
_space_group_name_Hall           '-C 2yn'
loop_
_symmetry_equiv_pos_site_id
_symmetry_equiv_pos_as_xyz
1 x,y,z
2 -x,y,1/2-z
3 1/2+x,1/2+y,z
4 1/2-x,1/2+y,1/2-z
5 -x,-y,-z
6 x,-y,1/2+z
7 1/2-x,1/2-y,-z
8 1/2+x,1/2-y,1/2+z
_cell_length_a                   12.6438(17)
_cell_length_b                   17.6395(18)
_cell_length_c                   12.524(2)
_cell_angle_alpha                90
_cell_angle_beta                 103.146(16)
_cell_angle_gamma                90
_cell_volume                     2720.03
loop_
_atom_site_label
_atom_site_type_symbol
_atom_site_fract_x
_atom_site_fract_y
_atom_site_fract_z
U1 U 0.0000 0.39141(5) 0.2500
Ag1 Ag 0.06122(18) 0.89225(10) 0.38047(18)
O1 O 0.0862(14) 0.4890(10) 0.3608(14)
O2 O -0.0995(14) 0.3908(9) 0.3256(15)
O3 O -0.1399(14) 0.8916(8) 0.3137(17)
O4 O 0.2546(15) 0.5181(10) 0.3532(19)
N1 N 0.0948(17) 0.7673(13) 0.3912(17)
C1 C 0.1656(18) 0.5347(11) 0.3615(19)
C2 C 0.046(2) 0.6419(13) 0.399(2)
H1 H -0.0057 0.6067 0.4085
N2 N 0.0954(17) 1.0148(12) 0.3926(17)
C3 C 0.138(2) 0.6170(11) 0.3754(17)
C4 C 0.0249(18) 0.7173(12) 0.408(2)
H2 H -0.0390 0.7327 0.4265
C5 C 0.195(2) 1.0382(15) 0.393(2)
H3 H 0.2491 1.0021 0.3940
C6 C 0.1886(18) 0.7469(14) 0.3689(19)
H4 H 0.2373 0.7840 0.3580
C7 C 0.0196(19) 1.0662(13) 0.391(2)
H5 H -0.0500 1.0499 0.3925
C8 C 0.2142(18) 0.6732(13) 0.362(2)
H6 H 0.2809 0.6594 0.3483
C9 C 0.2217(18) 1.1128(13) 0.391(2)
H7 H 0.2930 1.1270 0.3931
C10 C 0.0380(17) 1.1402(12) 0.3879(18)
H8 H -0.0190 1.1737 0.3870
C11 C 0.1400(17) 1.1692(12) 0.3859(18)
O5 O 0.2609(14) 1.2685(10) 0.3741(16)
O6 O 0.0821(14) 1.2981(9) 0.3657(13)
C12 C 0.1654(17) 1.2506(12) 0.3738(19)
O7 O 0.0000 0.8224(18) 0.2500
Ag1A Ag -0.06122(18) 0.89225(10) 0.11953(18)
O1A O -0.0862(14) 0.4890(10) 0.1392(14)
O2A O 0.0995(14) 0.3908(9) 0.1744(15)
O3A O 0.1399(14) 0.8916(8) 0.1863(17)
O4A O -0.2546(15) 0.5181(10) 0.1468(19)
N1A N -0.0948(17) 0.7673(13) 0.1088(17)
C1A C -0.1656(18) 0.5347(11) 0.1385(19)
C2A C -0.046(2) 0.6419(13) 0.101(2)
H1A H 0.0057 0.6067 0.0915
N2A N -0.0954(17) 1.0148(12) 0.1074(17)
C3A C -0.138(2) 0.6170(11) 0.1246(17)
C4A C -0.0249(18) 0.7173(12) 0.092(2)
H2A H 0.0390 0.7327 0.0735
C5A C -0.195(2) 1.0382(15) 0.107(2)
H3A H -0.2491 1.0021 0.1060
C6A C -0.1886(18) 0.7469(14) 0.1311(19)
H4A H -0.2373 0.7840 0.1420
C7A C -0.0196(19) 1.0662(13) 0.109(2)
H5A H 0.0500 1.0499 0.1075
C8A C -0.2142(18) 0.6732(13) 0.138(2)
H6A H -0.2809 0.6594 0.1517
C9A C -0.2217(18) 1.1128(13) 0.109(2)
H7A H -0.2930 1.1270 0.1069
C10A C -0.0380(17) 1.1402(12) 0.1121(18)
H8A H 0.0190 1.1737 0.1130
C11A C -0.1400(17) 1.1692(12) 0.1141(18)
O5A O -0.2609(14) 1.2685(10) 0.1259(16)
O6A O -0.0821(14) 1.2981(9) 0.1343(13)
C12A C -0.1654(17) 1.2506(12) 0.1262(19)
U1_2 U 0.0000 1.39141(5) 0.2500
O6_2 O 0.0821(14) 0.2981(9) 0.3657(13)
O6A_2 O -0.0821(14) 0.2981(9) 0.1343(13)
loop_
_geom_bond_atom_site_label_1
_geom_bond_atom_site_label_2
_geom_bond_site_symmetry_1
_geom_bond_site_symmetry_2
U1 O1 1_555 1_555
Ag1 O3 1_555 1_555
O1 C1 1_555 1_555
O2 U1 1_555 1_555
O4 C1 1_555 1_555
N1 Ag1 1_555 1_555
C1 C3 1_555 1_555
C2 H1 1_555 1_555
N2 Ag1 1_555 1_555
C3 C2 1_555 1_555
C4 N1 1_555 1_555
H2 C4 1_555 1_555
C5 N2 1_555 1_555
H3 C5 1_555 1_555
C6 N1 1_555 1_555
H4 C6 1_555 1_555
C7 N2 1_555 1_555
H5 C7 1_555 1_555
C8 C3 1_555 1_555
H6 C8 1_555 1_555
C9 C5 1_555 1_555
H7 C9 1_555 1_555
C10 C7 1_555 1_555
H8 C10 1_555 1_555
C11 C9 1_555 1_555
O5 C12 1_555 1_555
O6 C12 1_555 1_555
C12 C11 1_555 1_555
O7 Ag1 1_555 1_555
Ag1A O7 1_555 1_555
O1A U1 1_555 1_555
O2A U1 1_555 1_555
O3A Ag1A 1_555 1_555
O4A C1A 1_555 1_555
N1A Ag1A 1_555 1_555
C1A O1A 1_555 1_555
C2A H1A 1_555 1_555
N2A Ag1A 1_555 1_555
C3A C1A 1_555 1_555
C4A N1A 1_555 1_555
H2A C4A 1_555 1_555
C5A N2A 1_555 1_555
H3A C5A 1_555 1_555
C6A N1A 1_555 1_555
H4A C6A 1_555 1_555
C7A N2A 1_555 1_555
H5A C7A 1_555 1_555
C8A C3A 1_555 1_555
H6A C8A 1_555 1_555
C9A C5A 1_555 1_555
H7A C9A 1_555 1_555
C10A C7A 1_555 1_555
H8A C10A 1_555 1_555
C11A C9A 1_555 1_555
O5A C12A 1_555 1_555
O6A C12A 1_555 1_555
C12A C11A 1_555 1_555
U1_2 O6 1_555 1_555
O6_2 U1 1_555 1_555
O6A_2 U1 1_555 1_555
C2 C4 1_555 1_555
C6 C8 1_555 1_555
C10 C11 1_555 1_555
C2A C3A 1_555 1_555
C2A C4A 1_555 1_555
C6A C8A 1_555 1_555
C10A C11A 1_555 1_555
O6A U1_2 1_555 1_555

#END
