
#######################################################################
#
#                 Cambridge Crystallographic Data Centre
#                                CCDC 
#
#######################################################################
#
# If this CIF has been generated from an entry in the Cambridge 
# Structural Database, then it will include bibliographic, chemical, 
# crystal, experimental, refinement or atomic coordinate data resulting 
# from the CCDC's data processing and validation procedures.
#
#######################################################################

data_DORDUK
_symmetry_cell_setting           trigonal
_symmetry_space_group_name_H-M   'P 31 2 1'
_symmetry_Int_Tables_number      152
_space_group_name_Hall           'P 31 2"'
loop_
_symmetry_equiv_pos_site_id
_symmetry_equiv_pos_as_xyz
1 x,y,z
2 -y,x-y,1/3+z
3 -x+y,-x,2/3+z
4 y,x,-z
5 x-y,-y,2/3-z
6 -x,-x+y,1/3-z
_cell_length_a                   12.7624(2)
_cell_length_b                   12.7624(2)
_cell_length_c                   17.6291(5)
_cell_angle_alpha                90
_cell_angle_beta                 90
_cell_angle_gamma                120
_cell_volume                     2486.71
loop_
_atom_site_label
_atom_site_type_symbol
_atom_site_fract_x
_atom_site_fract_y
_atom_site_fract_z
In1 In 0.0000 0.37204(7) 0.1667
O1 O 0.2057(7) 0.5026(8) 0.1548(4)
O2 O 0.5161(8) 0.4936(7) 0.4142(4)
O3 O 0.1411(6) 0.3153(8) 0.1800(3)
O4 O 0.6477(7) 0.6696(8) 0.3677(4)
C1 C 0.3575(8) 0.4524(10) 0.1870(5)
C2 C 0.4135(9) 0.5383(10) 0.2543(5)
C3 C 0.5186(9) 0.5184(10) 0.2777(5)
H1 H 0.5862 0.5636 0.2427
C4 C 0.4700(14) 0.3846(13) 0.2654(7)
H2 H 0.5327 0.3709 0.2448
H3 H 0.4423 0.3412 0.3130
C5 C 0.3664(13) 0.3416(14) 0.2104(8)
H4 H 0.2916 0.2817 0.2342
H5 H 0.3809 0.3052 0.1663
C6 C 0.4293(11) 0.5113(16) 0.1109(6)
H6 H 0.5128 0.5342 0.1175
H7 H 0.4236 0.5816 0.0989
H8 H 0.3951 0.4537 0.0704
C7 C 0.3209(10) 0.5082(13) 0.3182(5)
H9 H 0.2885 0.4254 0.3334
H10 H 0.2565 0.5201 0.3005
H11 H 0.3598 0.5602 0.3608
C8 C 0.4584(16) 0.6745(12) 0.2340(9)
H12 H 0.5189 0.7009 0.1951
H13 H 0.4922 0.7237 0.2784
H14 H 0.3913 0.6819 0.2162
C9 C 0.2259(9) 0.4199(13) 0.1726(5)
C10 C 0.5631(10) 0.5616(12) 0.3586(6)
In1A In 0.62796(7) 0.62796(7) 0.5000
In1C In -0.62796(7) 0.0000 -0.1667
O1E O -0.2057(7) 0.2969(11) 0.1785(4)
O2E O -0.5161(8) -0.0225(11) -0.0809(4)
O2B O -0.0225(11) 0.4839(8) 0.0809(4)
O2D O 0.0225(11) 0.5064(7) 0.2525(4)
O3E O -0.1411(6) 0.1742(10) 0.1533(3)
O4E O -0.6477(7) 0.0219(11) -0.0344(4)
O4B O 0.0219(11) 0.3523(7) 0.0344(4)
O4D O -0.0219(11) 0.3304(8) 0.2990(4)
C1E C -0.3575(8) 0.0949(13) 0.1463(5)
C2E C -0.4135(9) 0.1248(13) 0.0790(5)
C3E C -0.5186(9) -0.0002(13) 0.0556(5)
H1E H -0.5862 -0.0226 0.0906
C4E C -0.4700(14) -0.0854(19) 0.0679(7)
H2E H -0.5327 -0.1618 0.0885
H3E H -0.4423 -0.1011 0.0203
C5E C -0.3664(13) -0.0248(19) 0.1229(8)
H4E H -0.2916 -0.0099 0.0991
H5E H -0.3809 -0.0757 0.1670
C6E C -0.4293(11) 0.0820(19) 0.2224(6)
H6E H -0.5128 0.0214 0.2158
H7E H -0.4236 0.1580 0.2344
H8E H -0.3951 0.0586 0.2629
C7E C -0.3209(10) 0.1873(16) 0.0151(5)
H9E H -0.2885 0.1369 -0.0001
H10E H -0.2565 0.2636 0.0328
H11E H -0.3598 0.2004 -0.0275
C8E C -0.4584(16) 0.2161(20) 0.0993(9)
H12E H -0.5189 0.1820 0.1382
H13E H -0.4922 0.2315 0.0549
H14E H -0.3913 0.2906 0.1171
C9E C -0.2259(9) 0.1940(16) 0.1607(5)
C10E C -0.5631(10) -0.0015(16) -0.0253(6)
C11 C 0.0343(16) 0.0911(15) 0.2975(8)
H15 H 0.0883 0.1450 0.3355
H16 H 0.0154 0.1361 0.2618
H17 H 0.0722 0.0528 0.2716
C12 C -0.172(3) -0.063(3) 0.2755(12)
H18 H -0.2443 -0.1243 0.2997
H19 H -0.1455 -0.0997 0.2384
H20 H -0.1887 -0.0056 0.2511
N1 N -0.0758(14) 0.0000 0.3333
C11D C -0.0568(22) -0.0911(15) 0.3692(8)
H15D H -0.0567 -0.1450 0.3312
H16D H -0.1207 -0.1361 0.4049
H17D H 0.0194 -0.0528 0.3951
C12D C -0.109(4) 0.063(3) 0.3912(12)
H18D H -0.1200 0.1243 0.3670
H19D H -0.0458 0.0997 0.4283
H20D H -0.1831 0.0056 0.4156
loop_
_geom_bond_atom_site_label_1
_geom_bond_atom_site_label_2
_geom_bond_site_symmetry_1
_geom_bond_site_symmetry_2
In1 O1 1_555 1_555
O1 C9 1_555 1_555
O2 C10 1_555 1_555
O3 In1 1_555 1_555
O4 C10 1_555 1_555
C1 C2 1_555 1_555
C2 C3 1_555 1_555
C3 H1 1_555 1_555
C4 C3 1_555 1_555
H2 C4 1_555 1_555
H3 C4 1_555 1_555
C5 C1 1_555 1_555
H4 C5 1_555 1_555
H5 C5 1_555 1_555
C6 C1 1_555 1_555
H6 C6 1_555 1_555
H7 C6 1_555 1_555
H8 C6 1_555 1_555
C7 C2 1_555 1_555
H9 C7 1_555 1_555
H10 C7 1_555 1_555
H11 C7 1_555 1_555
C8 C2 1_555 1_555
H12 C8 1_555 1_555
H13 C8 1_555 1_555
H14 C8 1_555 1_555
C9 O3 1_555 1_555
C10 C3 1_555 1_555
C11 H15 1_555 1_555
H16 C11 1_555 1_555
H17 C11 1_555 1_555
C12 H18 1_555 1_555
H19 C12 1_555 1_555
H20 C12 1_555 1_555
N1 C11 1_555 1_555
In1A O2 1_555 1_555
In1C O2E 1_555 1_555
O1E In1 1_555 1_555
O2E C10E 1_555 1_555
O2B In1 1_555 1_555
O2D In1 1_555 1_555
O3E In1 1_555 1_555
O4E In1C 1_555 1_555
O4B In1 1_555 1_555
O4D In1 1_555 1_555
C1E C2E 1_555 1_555
C2E C3E 1_555 1_555
C3E H1E 1_555 1_555
C4E C3E 1_555 1_555
H2E C4E 1_555 1_555
H3E C4E 1_555 1_555
C5E C1E 1_555 1_555
H4E C5E 1_555 1_555
H5E C5E 1_555 1_555
C6E C1E 1_555 1_555
H6E C6E 1_555 1_555
H7E C6E 1_555 1_555
H8E C6E 1_555 1_555
C7E C2E 1_555 1_555
H9E C7E 1_555 1_555
H10E C7E 1_555 1_555
H11E C7E 1_555 1_555
C8E C2E 1_555 1_555
H12E C8E 1_555 1_555
H13E C8E 1_555 1_555
H14E C8E 1_555 1_555
C9E O1E 1_555 1_555
C10E O4E 1_555 1_555
C11D N1 1_555 1_555
H15D C11D 1_555 1_555
H16D C11D 1_555 1_555
H17D C11D 1_555 1_555
C12D N1 1_555 1_555
H18D C12D 1_555 1_555
H19D C12D 1_555 1_555
H20D C12D 1_555 1_555
O4 In1A 1_555 1_555
C1 C9 1_555 1_555
C4 C5 1_555 1_555
C12 N1 1_555 1_555
O3E C9E 1_555 1_555
C1E C9E 1_555 1_555
C3E C10E 1_555 1_555
C4E C5E 1_555 1_555

#END
