
#######################################################################
#
#                 Cambridge Crystallographic Data Centre
#                                CCDC 
#
#######################################################################
#
# If this CIF has been generated from an entry in the Cambridge 
# Structural Database, then it will include bibliographic, chemical, 
# crystal, experimental, refinement or atomic coordinate data resulting 
# from the CCDC's data processing and validation procedures.
#
#######################################################################

data_DORFUN
_symmetry_cell_setting           monoclinic
_symmetry_space_group_name_H-M   'C 2/c'
_symmetry_Int_Tables_number      15
_space_group_name_Hall           '-C 2yn'
loop_
_symmetry_equiv_pos_site_id
_symmetry_equiv_pos_as_xyz
1 x,y,z
2 -x,y,1/2-z
3 1/2+x,1/2+y,z
4 1/2-x,1/2+y,1/2-z
5 -x,-y,-z
6 x,-y,1/2+z
7 1/2-x,1/2-y,-z
8 1/2+x,1/2-y,1/2+z
_cell_length_a                   18.284(14)
_cell_length_b                   11.632(8)
_cell_length_c                   16.118(12)
_cell_angle_alpha                90
_cell_angle_beta                 112.159(8)
_cell_angle_gamma                90
_cell_volume                     3174.78
loop_
_atom_site_label
_atom_site_type_symbol
_atom_site_fract_x
_atom_site_fract_y
_atom_site_fract_z
Zn1 Zn 0.76568(3) 0.32733(4) 0.84587(3)
C1 C 0.6866(3) 0.2450(4) 0.6590(3)
C2 C 0.6702(2) 0.2757(3) 0.5631(2)
C3 C 0.7060(2) 0.3727(3) 0.5450(2)
H1 H 0.7416 0.4148 0.5920
C4 C 0.6893(2) 0.4073(3) 0.4579(3)
C5 C 0.6373(2) 0.3411(3) 0.3873(3)
H2 H 0.6258 0.3642 0.3285
C6 C 0.6026(2) 0.2416(3) 0.4039(2)
C7 C 0.6191(2) 0.2099(3) 0.4926(3)
H3 H 0.5958 0.1443 0.5048
C8 C 0.5494(2) 0.1738(3) 0.3262(2)
C9 C 0.5485(3) 0.0536(4) 0.3259(3)
H4 H 0.5802 0.0131 0.3763
C10 C 0.5000 -0.0051(5) 0.2500
H5 H 0.5000 -0.0850 0.2500
C11 C 0.5000 0.2316(5) 0.2500
H6 H 0.5000 0.3116 0.2500
C12 C 0.7268(2) 0.5124(4) 0.4364(3)
C13 C 0.8584(3) 0.1188(4) 0.8562(3)
H7 H 0.8236 0.1124 0.7969
C14 C 0.9170(3) 0.0365(4) 0.8908(3)
H8 H 0.9216 -0.0233 0.8548
C15 C 0.9689(2) 0.0440(4) 0.9799(3)
C16 C 0.9590(3) 0.1364(5) 1.0287(3)
H9 H 0.9927 0.1458 1.0882
C17 C 0.8997(3) 0.2141(5) 0.9897(3)
H10 H 0.8940 0.2749 1.0242
N1 N 0.8502(2) 0.2068(3) 0.9051(2)
O1 O 0.7382(2) 0.3061(3) 0.71637(19)
O2 O 0.6492(3) 0.1655(3) 0.6770(2)
O3 O 0.7078(2) 0.5348(3) 0.3539(2)
O4 O 0.7740(2) 0.5719(3) 0.4965(2)
O5 O 0.8678(2) 0.4377(3) 0.8561(3)
O6 O 0.6751(2) 0.2080(3) 0.8507(2)
H11 H 0.860(3) 0.5102(13) 0.849(4)
H12 H 0.687(3) 0.152(3) 0.887(2)
H13 H 0.665(4) 0.183(4) 0.7978(13)
H14 H 0.898(3) 0.418(4) 0.829(3)
C1A C 0.3134(3) 0.2450(4) -0.1590(3)
C2A C 0.3298(2) 0.2757(3) -0.0631(2)
C3A C 0.2940(2) 0.3727(3) -0.0450(2)
H1A H 0.2584 0.4148 -0.0920
C4A C 0.3107(2) 0.4073(3) 0.0421(3)
C5A C 0.3627(2) 0.3411(3) 0.1127(3)
H2A H 0.3742 0.3642 0.1715
C6A C 0.3974(2) 0.2416(3) 0.0961(2)
C7A C 0.3809(2) 0.2099(3) 0.0074(3)
H3A H 0.4042 0.1443 -0.0048
C8A C 0.4506(2) 0.1738(3) 0.1738(2)
C9A C 0.4515(3) 0.0536(4) 0.1741(3)
H4A H 0.4198 0.0131 0.1237
C12A C 0.2732(2) 0.5124(4) 0.0636(3)
O1A O 0.2618(2) 0.3061(3) -0.21637(19)
O2A O 0.3508(3) 0.1655(3) -0.1770(2)
O3A O 0.2922(2) 0.5348(3) 0.1461(2)
O4A O 0.2260(2) 0.5719(3) 0.0035(2)
C13D C 1.1416(3) -0.1188(4) 1.1438(3)
H7D H 1.1764 -0.1124 1.2031
C14D C 1.0830(3) -0.0365(4) 1.1092(3)
H8D H 1.0784 0.0233 1.1452
C15D C 1.0311(2) -0.0440(4) 1.0201(3)
C16D C 1.0410(3) -0.1364(5) 0.9713(3)
H9D H 1.0073 -0.1458 0.9118
C17D C 1.1003(3) -0.2141(5) 1.0103(3)
H10D H 1.1060 -0.2749 0.9758
N1D N 1.1498(2) -0.2068(3) 1.0949(2)
Zn1A Zn 0.23432(3) 0.32733(4) -0.34587(3)
O5A O 0.1322(2) 0.4377(3) -0.3561(3)
O6A O 0.3249(2) 0.2080(3) -0.3507(2)
H11A H 0.140(3) 0.5102(13) -0.349(4)
H12A H 0.313(3) 0.152(3) -0.387(2)
H13A H 0.335(4) 0.183(4) -0.2978(13)
H14A H 0.102(3) 0.418(4) -0.329(3)
Zn1D Zn 0.23432(3) 0.67267(4) 0.15413(3)
Zn1D_2 Zn 1.23432(3) -0.32733(4) 1.15413(3)
Zn1E Zn 0.76568(3) 0.67267(4) 0.34587(3)
N1A N 0.1498(2) 0.2068(3) -0.4051(2)
O3D O 0.2922(2) 0.4652(3) -0.3539(2)
O3E O 0.7078(2) 0.4652(3) 0.8539(2)
loop_
_geom_bond_atom_site_label_1
_geom_bond_atom_site_label_2
_geom_bond_site_symmetry_1
_geom_bond_site_symmetry_2
Zn1 N1 1_555 1_555
C1 C2 1_555 1_555
C2 C3 1_555 1_555
C3 H1 1_555 1_555
C4 C3 1_555 1_555
C5 C4 1_555 1_555
H2 C5 1_555 1_555
C6 C5 1_555 1_555
C7 C2 1_555 1_555
H3 C7 1_555 1_555
C8 C6 1_555 1_555
C9 C8 1_555 1_555
H4 C9 1_555 1_555
C10 C9 1_555 1_555
H5 C10 1_555 1_555
C11 C8 1_555 1_555
H6 C11 1_555 1_555
C12 C4 1_555 1_555
C13 H7 1_555 1_555
C14 C13 1_555 1_555
H8 C14 1_555 1_555
C15 C14 1_555 1_555
C16 C15 1_555 1_555
H9 C16 1_555 1_555
C17 C16 1_555 1_555
H10 C17 1_555 1_555
N1 C13 1_555 1_555
O1 Zn1 1_555 1_555
O2 C1 1_555 1_555
O3 C12 1_555 1_555
O4 C12 1_555 1_555
O5 Zn1 1_555 1_555
O6 Zn1 1_555 1_555
H11 O5 1_555 1_555
H12 O6 1_555 1_555
H13 O6 1_555 1_555
H14 O5 1_555 1_555
C1A C2A 1_555 1_555
C2A C3A 1_555 1_555
C3A H1A 1_555 1_555
C4A C3A 1_555 1_555
C5A C4A 1_555 1_555
H2A C5A 1_555 1_555
C6A C5A 1_555 1_555
C7A C2A 1_555 1_555
H3A C7A 1_555 1_555
C8A C11 1_555 1_555
C9A C10 1_555 1_555
H4A C9A 1_555 1_555
C12A C4A 1_555 1_555
O1A C1A 1_555 1_555
O2A C1A 1_555 1_555
O3A C12A 1_555 1_555
O4A C12A 1_555 1_555
C13D H7D 1_555 1_555
C14D C13D 1_555 1_555
H8D C14D 1_555 1_555
C15D C15 1_555 1_555
C16D C15D 1_555 1_555
H9D C16D 1_555 1_555
C17D C16D 1_555 1_555
H10D C17D 1_555 1_555
N1D C13D 1_555 1_555
Zn1A O1A 1_555 1_555
O5A Zn1A 1_555 1_555
O6A Zn1A 1_555 1_555
H11A O5A 1_555 1_555
H12A O6A 1_555 1_555
H13A O6A 1_555 1_555
H14A O5A 1_555 1_555
Zn1D O3A 1_555 1_555
Zn1D_2 N1D 1_555 1_555
Zn1E O3 1_555 1_555
N1A Zn1A 1_555 1_555
O3D Zn1A 1_555 1_555
O3E Zn1 1_555 1_555
C1 O1 1_555 1_555
C6 C7 1_555 1_555
C17 N1 1_555 1_555
C6A C7A 1_555 1_555
C6A C8A 1_555 1_555
C8A C9A 1_555 1_555
C14D C15D 1_555 1_555
C17D N1D 1_555 1_555

#END
