
#######################################################################
#
#                 Cambridge Crystallographic Data Centre
#                                CCDC 
#
#######################################################################
#
# If this CIF has been generated from an entry in the Cambridge 
# Structural Database, then it will include bibliographic, chemical, 
# crystal, experimental, refinement or atomic coordinate data resulting 
# from the CCDC's data processing and validation procedures.
#
#######################################################################

data_DORFIA
_symmetry_cell_setting           orthorhombic
_symmetry_space_group_name_H-M   'P 21 21 21'
_symmetry_Int_Tables_number      19
_space_group_name_Hall           'P 2ac 2ab'
loop_
_symmetry_equiv_pos_site_id
_symmetry_equiv_pos_as_xyz
1 x,y,z
2 1/2-x,-y,1/2+z
3 1/2+x,1/2-y,-z
4 -x,1/2+y,1/2-z
_cell_length_a                   7.2182(7)
_cell_length_b                   12.1753(13)
_cell_length_c                   14.1824(15)
_cell_angle_alpha                90
_cell_angle_beta                 90
_cell_angle_gamma                90
_cell_volume                     1246.4
loop_
_atom_site_label
_atom_site_type_symbol
_atom_site_fract_x
_atom_site_fract_y
_atom_site_fract_z
Ni1 Ni 0.37680(8) 0.25496(5) 0.49049(4)
O1 O 0.4784(4) 0.2497(3) 0.3586(2)
O2 O 0.4475(6) 0.0912(3) 0.5092(3)
H1 H 0.5598 0.0764 0.5222
H2 H 0.3795 0.0379 0.5266
O3 O 0.7821(5) 0.2302(4) 0.3766(2)
O4 O 0.1242(4) 0.1980(2) 0.4443(2)
H3 H 0.1173 0.1296 0.4561
H4 H 0.0974 0.2070 0.3865
O5 O 0.4163(5) -0.0108(3) 0.0103(2)
O6 O 0.6936(4) -0.0832(3) 0.0376(3)
C1 C 0.6673(6) 0.2213(4) 0.2219(3)
C2 C 0.6673(10) 0.0966(5) 0.1930(4)
C3 C 0.6451(7) 0.1035(4) 0.0851(3)
H5 H 0.7684 0.1187 0.0594
C4 C 0.5273(10) 0.2014(5) 0.0626(5)
H6 H 0.4070 0.1788 0.0392
H7 H 0.5866 0.2474 0.0156
C5 C 0.5078(10) 0.2645(5) 0.1594(4)
H8 H 0.5192 0.3431 0.1500
H9 H 0.3888 0.2493 0.1883
C6 C 0.8462(9) 0.2730(7) 0.1931(5)
H10 H 0.8580 0.3436 0.2228
H11 H 0.8483 0.2819 0.1258
H12 H 0.9473 0.2269 0.2121
C7 C 0.8501(14) 0.0349(8) 0.2205(6)
H13 H 0.8251 -0.0422 0.2269
H14 H 0.8958 0.0632 0.2793
H15 H 0.9414 0.0460 0.1722
C8 C 0.5024(11) 0.0358(5) 0.2376(5)
H16 H 0.4915 -0.0358 0.2098
H17 H 0.3907 0.0766 0.2264
H18 H 0.5221 0.0287 0.3042
C9 C 0.6388(6) 0.2345(3) 0.3283(3)
C10 C 0.5803(7) -0.0047(4) 0.0407(3)
Ni1B Ni 0.87680(8) 0.24504(5) 0.50951(4)
Ni1B_2 Ni -0.12320(8) 0.24504(5) 0.50951(4)
Ni1C Ni 0.62320(8) -0.24504(5) 0.00951(4)
O3B O 0.2821(5) 0.2698(4) 0.6234(2)
O4B O 0.6242(4) 0.3020(2) 0.5557(2)
H3B H 0.6173 0.3704 0.5439
H4B H 0.5974 0.2930 0.6135
O6C O 0.3064(4) 0.4168(3) 0.4624(3)
loop_
_geom_bond_atom_site_label_1
_geom_bond_atom_site_label_2
_geom_bond_site_symmetry_1
_geom_bond_site_symmetry_2
Ni1 O1 1_555 1_555
O1 C9 1_555 1_555
O2 Ni1 1_555 1_555
H1 O2 1_555 1_555
H2 O2 1_555 1_555
O3 C9 1_555 1_555
O4 Ni1 1_555 1_555
H3 O4 1_555 1_555
H4 O4 1_555 1_555
O5 C10 1_555 1_555
O6 C10 1_555 1_555
C1 C2 1_555 1_555
C2 C3 1_555 1_555
C3 H5 1_555 1_555
C4 C3 1_555 1_555
H6 C4 1_555 1_555
H7 C4 1_555 1_555
C5 C1 1_555 1_555
H8 C5 1_555 1_555
H9 C5 1_555 1_555
C6 C1 1_555 1_555
H10 C6 1_555 1_555
H11 C6 1_555 1_555
H12 C6 1_555 1_555
C7 C2 1_555 1_555
H13 C7 1_555 1_555
H14 C7 1_555 1_555
H15 C7 1_555 1_555
C8 C2 1_555 1_555
H16 C8 1_555 1_555
H17 C8 1_555 1_555
H18 C8 1_555 1_555
C9 C1 1_555 1_555
C10 C3 1_555 1_555
Ni1B O3 1_555 1_555
Ni1B_2 O4 1_555 1_555
Ni1C O6 1_555 1_555
O3B Ni1 1_555 1_555
O4B Ni1 1_555 1_555
H3B O4B 1_555 1_555
H4B O4B 1_555 1_555
O6C Ni1 1_555 1_555
C4 C5 1_555 1_555
Ni1B O4B 1_555 1_555

#END
