
#######################################################################
#
#                 Cambridge Crystallographic Data Centre
#                                CCDC 
#
#######################################################################
#
# If this CIF has been generated from an entry in the Cambridge 
# Structural Database, then it will include bibliographic, chemical, 
# crystal, experimental, refinement or atomic coordinate data resulting 
# from the CCDC's data processing and validation procedures.
#
#######################################################################

data_DORFOG
_symmetry_cell_setting           tetragonal
_symmetry_space_group_name_H-M   'P 43'
_symmetry_Int_Tables_number      78
_space_group_name_Hall           'P 4cw'
loop_
_symmetry_equiv_pos_site_id
_symmetry_equiv_pos_as_xyz
1 x,y,z
2 -x,-y,1/2+z
3 -y,x,3/4+z
4 y,-x,1/4+z
_cell_length_a                   7.943
_cell_length_b                   7.943
_cell_length_c                   12.8125(2)
_cell_angle_alpha                90
_cell_angle_beta                 90
_cell_angle_gamma                90
_cell_volume                     808.357
loop_
_atom_site_label
_atom_site_type_symbol
_atom_site_fract_x
_atom_site_fract_y
_atom_site_fract_z
Mg1 Mg 0.53047(18) 0.88206(18) 0.21300(12)
O1 O 0.6685(4) 1.1034(4) 0.2423(3)
O2 O 0.3165(4) 1.0216(4) 0.2379(3)
H1 H 0.3189 1.0712 0.2967
H2 H 0.2678 1.0950 0.2002
O3 O 0.7523(4) 0.7423(4) 0.1908(3)
H3 H 0.7732 0.6853 0.2454
H4 H 0.7778 0.7197 0.1279
O4 O 0.7894(4) 1.3258(4) 0.1668(3)
O5 O 0.3001(4) 1.3819(4) -0.0993(3)
O7 O 0.4748(4) 1.1713(4) -0.1341(3)
O8 O 0.5496(4) 0.9849(4) 0.0651(3)
H7 H 0.5945 0.9263 0.0204
C1 C 0.7000(5) 1.1963(6) 0.1649(4)
C2 C 0.6176(5) 1.1530(5) 0.0604(4)
H8 H 0.7021 1.1591 0.0048
C3 C 0.4753(6) 1.2812(5) 0.0379(4)
H9 H 0.3824 1.2591 0.0851
H10 H 0.5167 1.3936 0.0527
C4 C 0.4105(5) 1.2766(6) -0.0725(4)
Mg1B Mg 0.11794(18) 1.53047(18) -0.03700(12)
Mg1A Mg 0.46953(18) 1.11794(18) -0.28700(12)
O5C O 0.3819(4) 0.6999(4) 0.1507(3)
O7A O 0.5252(4) 0.8287(4) 0.3659(3)
O6 O 0.0111(9) 0.9127(9) 0.3137(7)
H5 H -0.0302 0.9740 0.3617
H6 H 0.0465 0.8236 0.2843
loop_
_geom_bond_atom_site_label_1
_geom_bond_atom_site_label_2
_geom_bond_site_symmetry_1
_geom_bond_site_symmetry_2
Mg1 O1 1_555 1_555
O1 C1 1_555 1_555
O2 Mg1 1_555 1_555
H1 O2 1_555 1_555
H2 O2 1_555 1_555
O3 Mg1 1_555 1_555
H3 O3 1_555 1_555
H4 O3 1_555 1_555
O4 C1 1_555 1_555
O5 C4 1_555 1_555
O6 H5 1_555 1_555
H6 O6 1_555 1_555
O7 C4 1_555 1_555
O8 Mg1 1_555 1_555
H7 O8 1_555 1_555
C1 C2 1_555 1_555
C2 O8 1_555 1_555
H8 C2 1_555 1_555
C3 C2 1_555 1_555
H9 C3 1_555 1_555
H10 C3 1_555 1_555
C4 C3 1_555 1_555
Mg1B O5 1_555 1_555
Mg1A O7 1_555 1_555
O5C Mg1 1_555 1_555
O7A Mg1 1_555 1_555

#END
