
#######################################################################
#
#                 Cambridge Crystallographic Data Centre
#                                CCDC 
#
#######################################################################
#
# If this CIF has been generated from an entry in the Cambridge 
# Structural Database, then it will include bibliographic, chemical, 
# crystal, experimental, refinement or atomic coordinate data resulting 
# from the CCDC's data processing and validation procedures.
#
#######################################################################

data_DORGUO
_symmetry_cell_setting           monoclinic
_symmetry_space_group_name_H-M   'C 2/c'
_symmetry_Int_Tables_number      15
_space_group_name_Hall           '-C 2yn'
loop_
_symmetry_equiv_pos_site_id
_symmetry_equiv_pos_as_xyz
1 x,y,z
2 -x,y,1/2-z
3 1/2+x,1/2+y,z
4 1/2-x,1/2+y,1/2-z
5 -x,-y,-z
6 x,-y,1/2+z
7 1/2-x,1/2-y,-z
8 1/2+x,1/2-y,1/2+z
_cell_length_a                   22.040(16)
_cell_length_b                   13.585(8)
_cell_length_c                   14.953(11)
_cell_angle_alpha                90
_cell_angle_beta                 116.939(10)
_cell_angle_gamma                90
_cell_volume                     3991.31
loop_
_atom_site_label
_atom_site_type_symbol
_atom_site_fract_x
_atom_site_fract_y
_atom_site_fract_z
Ni1 Ni 0.30957(2) 0.27845(3) 0.15331(3)
C1 C 0.34009(17) 0.2385(2) -0.0317(3)
C2 C 0.41046(18) 0.2221(2) -0.0218(3)
C3 C 0.46776(18) 0.2464(3) 0.0669(3)
H1 H 0.4623 0.2725 0.1203
C4 C 0.53280(18) 0.2321(3) 0.0763(3)
C5 C 0.54049(18) 0.1928(3) -0.0040(3)
H2 H 0.5839 0.1850 0.0014
C6 C 0.48437(17) 0.1649(3) -0.0920(2)
C7 C 0.41957(18) 0.1799(3) -0.0998(3)
H3 H 0.3816 0.1614 -0.1583
C8 C 0.59417(18) 0.2547(3) 0.1740(3)
C9 C 0.49229(17) 0.1132(3) -0.1746(3)
C10 C 0.5000 0.1641(4) -0.2500
H4 H 0.5000 0.2326 -0.2500
C11 C 0.4920(2) 0.0107(3) -0.1760(3)
H5 H 0.4865 -0.0239 -0.1265
C12 C 0.5000 -0.0402(4) -0.2500
H6 H 0.5000 -0.1087 -0.2500
C13 C 0.3403(2) 0.0692(3) 0.1231(3)
H7 H 0.3750 0.1001 0.1147
C14 C 0.3362(2) -0.0322(3) 0.1167(3)
H8 H 0.3679 -0.0675 0.1044
C15 C 0.28578(19) -0.0814(3) 0.1283(3)
C16 C 0.2395(2) -0.0234(3) 0.1434(4)
H9 H 0.2031 -0.0524 0.1490
C17 C 0.2475(2) 0.0775(3) 0.1502(3)
H10 H 0.2164 0.1144 0.1621
C18 C 0.2802(2) -0.1890(3) 0.1297(3)
H11 H 0.2414 -0.2143 0.1307
C19 C 0.3250(2) -0.2529(3) 0.1296(3)
H12 H 0.3628 -0.2280 0.1250
C20 C 0.3205(2) -0.3606(3) 0.1362(3)
C21 C 0.3733(2) -0.4211(3) 0.1447(4)
H13 H 0.4119 -0.3936 0.1446
C22 C 0.3694(2) -0.5220(3) 0.1534(4)
H14 H 0.4061 -0.5605 0.1599
C23 C 0.2641(2) -0.5083(3) 0.1429(3)
H15 H 0.2254 -0.5375 0.1412
C24 C 0.2648(2) -0.4066(3) 0.1349(3)
H16 H 0.2276 -0.3697 0.1287
N1 N 0.29712(16) 0.1252(2) 0.1407(2)
N2 N 0.31547(15) -0.5665(2) 0.1530(2)
O1 O 0.33448(13) 0.28347(19) 0.03670(19)
O2 O 0.29090(12) 0.20613(18) -0.11091(19)
O3 O 0.58569(13) 0.2662(2) 0.25090(18)
O4 O 0.65271(13) 0.2606(2) 0.1785(2)
C1A C 0.65991(17) 0.2385(2) -0.4683(3)
C2A C 0.58954(18) 0.2221(2) -0.4782(3)
C3A C 0.53224(18) 0.2464(3) -0.5669(3)
H1A H 0.5377 0.2725 -0.6203
C4A C 0.46720(18) 0.2321(3) -0.5763(3)
C5A C 0.45951(18) 0.1928(3) -0.4960(3)
H2A H 0.4161 0.1850 -0.5014
C6A C 0.51563(17) 0.1649(3) -0.4080(2)
C7A C 0.58043(18) 0.1799(3) -0.4002(3)
H3A H 0.6184 0.1614 -0.3417
C8A C 0.40583(18) 0.2547(3) -0.6740(3)
C9A C 0.50771(17) 0.1132(3) -0.3254(3)
C11A C 0.5080(2) 0.0107(3) -0.3240(3)
H5A H 0.5135 -0.0239 -0.3735
O1A O 0.66552(13) 0.28347(19) -0.53670(19)
O2A O 0.70910(12) 0.20613(18) -0.38909(19)
O3A O 0.41431(13) 0.2662(2) -0.75090(18)
O4A O 0.34729(13) 0.2606(2) -0.6785(2)
Ni1A Ni 0.69043(2) 0.27845(3) -0.65331(3)
C13A C 0.6597(2) 0.0692(3) -0.6231(3)
H7A H 0.6250 0.1001 -0.6147
C14A C 0.6638(2) -0.0322(3) -0.6167(3)
H8A H 0.6321 -0.0675 -0.6044
C15A C 0.71422(19) -0.0814(3) -0.6283(3)
C16A C 0.7605(2) -0.0234(3) -0.6434(4)
H9A H 0.7969 -0.0524 -0.6490
C17A C 0.7525(2) 0.0775(3) -0.6502(3)
H10A H 0.7836 0.1144 -0.6621
C18A C 0.7198(2) -0.1890(3) -0.6297(3)
H11A H 0.7586 -0.2143 -0.6307
C19A C 0.6750(2) -0.2529(3) -0.6296(3)
H12A H 0.6372 -0.2280 -0.6250
C20A C 0.6795(2) -0.3606(3) -0.6362(3)
C21A C 0.6267(2) -0.4211(3) -0.6447(4)
H13A H 0.5881 -0.3936 -0.6446
C22A C 0.6306(2) -0.5220(3) -0.6534(4)
H14A H 0.5939 -0.5605 -0.6599
C23A C 0.7359(2) -0.5083(3) -0.6429(3)
H15A H 0.7746 -0.5375 -0.6412
C24A C 0.7352(2) -0.4066(3) -0.6349(3)
H16A H 0.7724 -0.3697 -0.6287
N1A N 0.70288(16) 0.1252(2) -0.6407(2)
N2A N 0.68453(15) -0.5665(2) -0.6530(2)
Ni1_2 Ni 0.30957(2) -0.72155(3) 0.15331(3)
Ni1_3 Ni 0.30957(2) 0.27845(3) -0.84669(3)
Ni1A_2 Ni 0.69043(2) -0.72155(3) -0.65331(3)
Ni1A_3 Ni 0.69043(2) 0.27845(3) 0.34669(3)
Ni1F Ni 0.19043(2) 0.22155(3) -0.15331(3)
Ni1G Ni 0.80957(2) 0.22155(3) -0.34669(3)
N2_2 N 0.31547(15) 0.4335(2) 0.1530(2)
N2A_2 N 0.68453(15) 0.4335(2) -0.6530(2)
O2F O 0.20910(12) 0.29387(18) 0.11091(19)
O2G O 0.79090(12) 0.29387(18) -0.61091(19)
O3_2 O 0.58569(13) 0.2662(2) -0.74910(18)
O3A_2 O 0.41431(13) 0.2662(2) 0.24910(18)
O4_2 O 0.65271(13) 0.2606(2) -0.8215(2)
O4A_2 O 0.34729(13) 0.2606(2) 0.3215(2)
O5 O 0.5281(8) 0.5150(10) 0.0571(10)
loop_
_geom_bond_atom_site_label_1
_geom_bond_atom_site_label_2
_geom_bond_site_symmetry_1
_geom_bond_site_symmetry_2
Ni1 N1 1_555 1_555
C1 C2 1_555 1_555
C2 C3 1_555 1_555
C3 H1 1_555 1_555
C4 C3 1_555 1_555
C5 C4 1_555 1_555
H2 C5 1_555 1_555
C6 C5 1_555 1_555
C7 C2 1_555 1_555
H3 C7 1_555 1_555
C8 C4 1_555 1_555
C9 C6 1_555 1_555
C10 C9 1_555 1_555
H4 C10 1_555 1_555
C11 C9 1_555 1_555
H5 C11 1_555 1_555
C12 C11 1_555 1_555
H6 C12 1_555 1_555
C13 H7 1_555 1_555
C14 C13 1_555 1_555
H8 C14 1_555 1_555
C15 C14 1_555 1_555
C16 C15 1_555 1_555
H9 C16 1_555 1_555
C17 C16 1_555 1_555
H10 C17 1_555 1_555
C18 C15 1_555 1_555
H11 C18 1_555 1_555
C19 C18 1_555 1_555
H12 C19 1_555 1_555
C20 C19 1_555 1_555
C21 C20 1_555 1_555
H13 C21 1_555 1_555
C22 C21 1_555 1_555
H14 C22 1_555 1_555
C23 H15 1_555 1_555
C24 C20 1_555 1_555
H16 C24 1_555 1_555
N1 C13 1_555 1_555
N2 C22 1_555 1_555
O1 Ni1 1_555 1_555
O2 C1 1_555 1_555
O3 C8 1_555 1_555
O4 C8 1_555 1_555
C1A C2A 1_555 1_555
C2A C3A 1_555 1_555
C3A H1A 1_555 1_555
C4A C3A 1_555 1_555
C5A C4A 1_555 1_555
H2A C5A 1_555 1_555
C6A C5A 1_555 1_555
C7A C2A 1_555 1_555
H3A C7A 1_555 1_555
C8A C4A 1_555 1_555
C9A C10 1_555 1_555
C11A C12 1_555 1_555
H5A C11A 1_555 1_555
O1A C1A 1_555 1_555
O2A C1A 1_555 1_555
O3A C8A 1_555 1_555
O4A C8A 1_555 1_555
Ni1A O1A 1_555 1_555
C13A H7A 1_555 1_555
C14A C13A 1_555 1_555
H8A C14A 1_555 1_555
C15A C14A 1_555 1_555
C16A C15A 1_555 1_555
H9A C16A 1_555 1_555
C17A C16A 1_555 1_555
H10A C17A 1_555 1_555
C18A C15A 1_555 1_555
H11A C18A 1_555 1_555
C19A C18A 1_555 1_555
H12A C19A 1_555 1_555
C20A C19A 1_555 1_555
C21A C20A 1_555 1_555
H13A C21A 1_555 1_555
C22A C21A 1_555 1_555
H14A C22A 1_555 1_555
C23A H15A 1_555 1_555
C24A C20A 1_555 1_555
H16A C24A 1_555 1_555
N1A Ni1A 1_555 1_555
N2A C22A 1_555 1_555
Ni1_2 N2 1_555 1_555
Ni1_3 O3A 1_555 1_555
Ni1A_2 N2A 1_555 1_555
Ni1A_3 O3 1_555 1_555
Ni1F O2 1_555 1_555
Ni1G O2A 1_555 1_555
N2_2 Ni1 1_555 1_555
N2A_2 Ni1A 1_555 1_555
O2F Ni1 1_555 1_555
O2G Ni1A 1_555 1_555
O3_2 Ni1A 1_555 1_555
O3A_2 Ni1 1_555 1_555
O4_2 Ni1A 1_555 1_555
O4A_2 Ni1 1_555 1_555
C1 O1 1_555 1_555
C6 C7 1_555 1_555
C17 N1 1_555 1_555
C23 C24 1_555 1_555
C23 N2 1_555 1_555
O4 Ni1A_3 1_555 1_555
C6A C7A 1_555 1_555
C6A C9A 1_555 1_555
C9A C11A 1_555 1_555
O4A Ni1_3 1_555 1_555
C13A N1A 1_555 1_555
C17A N1A 1_555 1_555
C23A C24A 1_555 1_555
C23A N2A 1_555 1_555

#END
