
#######################################################################
#
#                 Cambridge Crystallographic Data Centre
#                                CCDC 
#
#######################################################################
#
# If this CIF has been generated from an entry in the Cambridge 
# Structural Database, then it will include bibliographic, chemical, 
# crystal, experimental, refinement or atomic coordinate data resulting 
# from the CCDC's data processing and validation procedures.
#
#######################################################################

data_DORGAT
_symmetry_cell_setting           monoclinic
_symmetry_space_group_name_H-M   'P 21/c'
_symmetry_Int_Tables_number      14
_space_group_name_Hall           '-P 2ybc'
loop_
_symmetry_equiv_pos_site_id
_symmetry_equiv_pos_as_xyz
1 x,y,z
2 -x,1/2+y,1/2-z
3 -x,-y,-z
4 x,1/2-y,1/2+z
_cell_length_a                   17.0423(14)
_cell_length_b                   10.1042(8)
_cell_length_c                   20.6840(17)
_cell_angle_alpha                90
_cell_angle_beta                 93.869(1)
_cell_angle_gamma                90
_cell_volume                     3553.64
loop_
_atom_site_label
_atom_site_type_symbol
_atom_site_fract_x
_atom_site_fract_y
_atom_site_fract_z
Fe1 Fe 0.70104(4) 0.32781(6) 0.59377(3)
K1 K 0.61390(7) 0.06987(10) 0.49261(5)
O1 O 0.80256(18) 0.4300(3) 0.59843(16)
O2 O 0.7822(2) 0.1823(3) 0.58648(17)
O3 O 0.64648(19) 0.5043(3) 0.58425(14)
O4 O 0.6658(2) 0.3288(3) 0.49849(15)
O5 O 0.69797(18) 0.3601(3) 0.68772(14)
O6 O 0.61866(18) 0.1973(3) 0.61244(15)
O7 O 1.0109(3) 0.5877(5) 0.6731(3)
O8 O 0.5389(2) 0.8591(3) 0.54075(16)
O9 O 0.6287(2) 0.4556(4) 0.87077(16)
O10 O 0.7274(3) -0.1152(6) 0.4989(3)
N1 N 0.7507(2) 0.7725(4) 0.72084(16)
N2 N 0.8810(3) 0.6238(4) 0.6587(2)
H1 H 0.8348 0.5886 0.6475
N3 N 0.8641(2) 0.3508(4) 0.6172(2)
N4 N 0.6260(2) 0.7558(4) 0.61102(17)
H2 H 0.6512 0.6818 0.6212
N5 N 0.6190(2) 0.5325(4) 0.52284(17)
N6 N 0.6942(2) 0.5298(4) 0.78707(18)
H3 H 0.7053 0.5164 0.7467
N7 N 0.8439(3) -0.2237(7) 0.4938(3)
C1 C 0.9443(3) 0.5474(6) 0.6591(3)
C2 C 0.9337(3) 0.4026(5) 0.6429(3)
C3 C 0.9943(4) 0.3176(6) 0.6587(4)
H4 H 1.0436 0.3514 0.6754
C4 C 0.9843(4) 0.1819(7) 0.6507(4)
H5 H 1.0262 0.1231 0.6630
C5 C 0.9149(4) 0.1339(6) 0.6253(4)
H6 H 0.9092 0.0412 0.6190
C6 C 0.8509(3) 0.2174(5) 0.6079(3)
C7 C 0.5806(3) 0.7617(4) 0.5558(2)
C8 C 0.5833(3) 0.6509(4) 0.5079(2)
C9 C 0.5529(3) 0.6704(5) 0.4455(2)
H7 H 0.5265 0.7507 0.4342
C10 C 0.5607(3) 0.5730(5) 0.3988(2)
H8 H 0.5392 0.5868 0.3557
C11 C 0.5991(3) 0.4575(5) 0.4146(2)
H9 H 0.6052 0.3926 0.3821
C12 C 0.6296(3) 0.4339(4) 0.4780(2)
C13 C 0.6461(3) 0.4449(5) 0.8146(2)
C14 C 0.6102(3) 0.3366(4) 0.7725(2)
C15 C 0.5460(3) 0.2683(5) 0.7947(2)
H10 H 0.5286 0.2877 0.8363
C16 C 0.5076(3) 0.1725(5) 0.7565(2)
H11 H 0.4653 0.1247 0.7729
C17 C 0.5300(3) 0.1459(4) 0.6953(2)
H12 H 0.5021 0.0818 0.6691
C18 C 0.5932(3) 0.2124(4) 0.6715(2)
C19 C 0.6349(2) 0.3044(4) 0.7122(2)
C20 C 0.8356(3) 0.7944(6) 0.7330(3)
H13 H 0.8547 0.7399 0.7706
H14 H 0.8444 0.8884 0.7449
C21 C 0.7197(3) 0.8856(5) 0.6819(2)
H15 H 0.7536 0.8997 0.6455
H16 H 0.7229 0.9661 0.7092
C22 C 0.7138(3) 0.7713(5) 0.7834(2)
H17 H 0.6564 0.7846 0.7753
H18 H 0.7347 0.8461 0.8102
C23 C 0.8846(3) 0.7615(5) 0.6758(3)
H19 H 0.8656 0.8149 0.6378
H20 H 0.9401 0.7861 0.6871
C24 C 0.6349(3) 0.8683(5) 0.6545(2)
H21 H 0.6005 0.8562 0.6907
H22 H 0.6179 0.9496 0.6308
C25 C 0.7282(3) 0.6419(4) 0.8213(2)
H23 H 0.7856 0.6279 0.8292
H24 H 0.7054 0.6495 0.8639
C26 C 0.7971(4) -0.1163(8) 0.5044(4)
H27 H 0.8228 -0.0360 0.5172
C28 C 0.9292(4) -0.2097(14) 0.5073(5)
H29 H 0.9450 -0.2524 0.5486
H30 H 0.9429 -0.1156 0.5096
H31 H 0.9566 -0.2517 0.4725
C30 C 0.8093(7) -0.3488(8) 0.4708(5)
H32 H 0.8461 -0.3946 0.4441
H33 H 0.7601 -0.3313 0.4450
H34 H 0.7986 -0.4044 0.5080
K1_2 K 0.61390(7) 1.06987(10) 0.49261(5)
K1B K 0.38610(7) 0.93013(10) 0.50739(5)
K1C K 0.61390(7) 0.43013(10) 0.99261(5)
O8_2 O 0.5389(2) -0.1409(3) 0.54075(16)
O8B O 0.4611(2) 0.1409(3) 0.45925(16)
O9C O 0.6287(2) 0.0444(4) 0.37077(16)
N8 N 0.8325(5) 0.2286(8) 0.3485(4)
C32 C 0.8679(6) 0.1492(9) 0.3102(3)
O11 O 0.9029(5) 0.0488(8) 0.3246(4)
C33 C 0.8273(9) 0.1935(12) 0.4154(4)
C34 C 0.7918(9) 0.3459(11) 0.3261(6)
H25? H 0.7551 0.6119 0.8615
H26? H 0.6869 0.7024 0.8321
C27? C 0.7652(6) -0.2191(13) 0.4978(12)
H28? H 0.7374 -0.3004 0.4999
C29? C 0.883(2) -0.3533(19) 0.4897(17)
C31? C 0.894(2) -0.106(2) 0.4891(19)
C35? C 0.7869(8) 0.718(4) 0.7816(11)
C36? C 0.8087(12) 0.840(2) 0.683(2)
C37? C 0.8556(5) 0.1440(8) 0.4043(3)
C38? C 0.8666(9) 0.1751(13) 0.2917(4)
C39? C 0.7921(9) 0.3333(11) 0.3531(6)
C40? C 0.6748(13) 0.841(4) 0.7222(4)
H35? H 0.5830 0.9035 0.6605
H36? H 0.6639 0.9364 0.6331
H37? H 0.8102 0.7909 0.8083
H38? H 0.8300 0.6571 0.7714
H39? H 0.8224 0.9260 0.7041
H40? H 0.7841 0.8597 0.6393
H41? H 0.9140 0.7686 0.7175
H42? H 0.9150 0.8065 0.6445
H43? H 0.6829 0.9258 0.7454
H44? H 0.6390 0.7861 0.7469
N9? N 0.8366(5) 0.2128(8) 0.3522(4)
O12? O 0.8930(5) 0.0429(9) 0.4082(4)
loop_
_geom_bond_atom_site_label_1
_geom_bond_atom_site_label_2
_geom_bond_site_symmetry_1
_geom_bond_site_symmetry_2
Fe1 O1 1_555 1_555
K1 O4 1_555 1_555
O1 N3 1_555 1_555
O2 Fe1 1_555 1_555
O3 Fe1 1_555 1_555
O4 Fe1 1_555 1_555
O5 Fe1 1_555 1_555
O6 Fe1 1_555 1_555
O7 C1 1_555 1_555
O8 C7 1_555 1_555
O9 C13 1_555 1_555
O10 K1 1_555 1_555
N1 C20 1_555 1_555
N2 H1 1_555 1_555
N3 C2 1_555 1_555
N4 H2 1_555 1_555
N5 O3 1_555 1_555
N6 H3 1_555 1_555
N7 C26 1_555 1_555
C1 N2 1_555 1_555
C2 C1 1_555 1_555
C3 C2 1_555 1_555
H4 C3 1_555 1_555
C4 C3 1_555 1_555
H5 C4 1_555 1_555
C5 C4 1_555 1_555
H6 C5 1_555 1_555
C6 O2 1_555 1_555
C7 N4 1_555 1_555
C8 N5 1_555 1_555
C9 C8 1_555 1_555
H7 C9 1_555 1_555
C10 C9 1_555 1_555
H8 C10 1_555 1_555
C11 C10 1_555 1_555
H9 C11 1_555 1_555
C12 O4 1_555 1_555
C13 N6 1_555 1_555
C14 C13 1_555 1_555
C15 C14 1_555 1_555
H10 C15 1_555 1_555
C16 C15 1_555 1_555
H11 C16 1_555 1_555
C17 C16 1_555 1_555
H12 C17 1_555 1_555
C18 O6 1_555 1_555
C19 O5 1_555 1_555
C20 H13 1_555 1_555
H14 C20 1_555 1_555
C21 N1 1_555 1_555
H15 C21 1_555 1_555
H16 C21 1_555 1_555
C22 N1 1_555 1_555
H17 C22 1_555 1_555
H18 C22 1_555 1_555
C23 N2 1_555 1_555
H19 C23 1_555 1_555
H20 C23 1_555 1_555
C24 N4 1_555 1_555
H21 C24 1_555 1_555
H22 C24 1_555 1_555
C25 N6 1_555 1_555
H23 C25 1_555 1_555
H24 C25 1_555 1_555
C26 O10 1_555 1_555
H27 C26 1_555 1_555
C28 N7 1_555 1_555
H29 C28 1_555 1_555
H30 C28 1_555 1_555
H31 C28 1_555 1_555
C30 N7 1_555 1_555
H32 C30 1_555 1_555
H33 C30 1_555 1_555
H34 C30 1_555 1_555
N8 C32 1_555 1_555
C32 O11 1_555 1_555
C33 N8 1_555 1_555
C34 N8 1_555 1_555
K1_2 O8 1_555 1_555
K1B O8 1_555 1_555
K1C O9 1_555 1_555
O8_2 K1 1_555 1_555
O8B K1 1_555 1_555
O9C K1 1_555 1_555
K1 O6 1_555 1_555
N3 C6 1_555 1_555
N5 C12 1_555 1_555
C5 C6 1_555 1_555
C7 C8 1_555 1_555
C11 C12 1_555 1_555
C14 C19 1_555 1_555
C17 C18 1_555 1_555
C18 C19 1_555 1_555
C20 C23 1_555 1_555
C21 C24 1_555 1_555
C22 C25 1_555 1_555

#END
