
#######################################################################
#
#                 Cambridge Crystallographic Data Centre
#                                CCDC 
#
#######################################################################
#
# If this CIF has been generated from an entry in the Cambridge 
# Structural Database, then it will include bibliographic, chemical, 
# crystal, experimental, refinement or atomic coordinate data resulting 
# from the CCDC's data processing and validation procedures.
#
#######################################################################

data_DORGOI
_symmetry_cell_setting           monoclinic
_symmetry_space_group_name_H-M   'C 2/c'
_symmetry_Int_Tables_number      15
_space_group_name_Hall           '-C 2yn'
loop_
_symmetry_equiv_pos_site_id
_symmetry_equiv_pos_as_xyz
1 x,y,z
2 -x,y,1/2-z
3 1/2+x,1/2+y,z
4 1/2-x,1/2+y,1/2-z
5 -x,-y,-z
6 x,-y,1/2+z
7 1/2-x,1/2-y,-z
8 1/2+x,1/2-y,1/2+z
_cell_length_a                   22.146(12)
_cell_length_b                   13.686(7)
_cell_length_c                   14.997(8)
_cell_angle_alpha                90
_cell_angle_beta                 117.308(5)
_cell_angle_gamma                90
_cell_volume                     4038.87
loop_
_atom_site_label
_atom_site_type_symbol
_atom_site_fract_x
_atom_site_fract_y
_atom_site_fract_z
Co1 Co 0.308199(17) 0.77720(3) 0.14905(3)
O1 O 0.33517(11) 0.77812(15) 0.03589(15)
O2 O 0.29193(10) 0.70686(15) -0.11393(16)
O3 O 0.58641(11) 0.76744(17) 0.24987(16)
O4 O 0.65300(11) 0.7585(2) 0.17823(18)
N1 N 0.29516(12) 0.62121(18) 0.13750(18)
N2 N 0.31373(12) -0.06506(19) 0.14730(18)
C1 C 0.34092(13) 0.73652(19) -0.0336(2)
C2 C 0.41144(13) 0.7209(2) -0.0228(2)
C3 C 0.46836(14) 0.7465(2) 0.0660(2)
H1 H 0.4629 0.7733 0.1189
C4 C 0.53344(14) 0.7321(2) 0.0755(2)
C5 C 0.54111(14) 0.6916(2) -0.0042(2)
H2 H 0.5845 0.6835 0.0016
C6 C 0.48454(14) 0.6631(2) -0.09256(19)
C7 C 0.42001(13) 0.6781(2) -0.10077(19)
H3 H 0.3820 0.6594 -0.1592
C8 C 0.59489(14) 0.7551(2) 0.1731(2)
C9 C 0.49275(13) 0.6116(2) -0.17427(19)
C10 C 0.5000 0.6616(3) -0.2500
H4 H 0.5000 0.7296 -0.2500
C11 C 0.49235(15) 0.5095(2) -0.1758(2)
H5 H 0.4869 0.4752 -0.1265
C12 C 0.5000 0.4588(3) -0.2500
H6 H 0.5000 0.3909 -0.2500
C13 C 0.33927(15) 0.5658(2) 0.1221(2)
H7 H 0.3738 0.5969 0.1141
C14 C 0.33650(16) 0.4651(2) 0.1175(3)
H8 H 0.3686 0.4301 0.1068
C15 C 0.28539(15) 0.4161(2) 0.1290(2)
C16 C 0.23824(17) 0.4736(2) 0.1421(3)
H9 H 0.2021 0.4446 0.1475
C17 C 0.24537(17) 0.5742(2) 0.1469(3)
H10 H 0.2139 0.6111 0.1572
C18 C 0.28001(17) 0.3095(2) 0.1304(2)
H11 H 0.2417 0.2839 0.1322
C19 C 0.32495(17) 0.2462(2) 0.1292(3)
H12 H 0.3624 0.2714 0.1246
C20 C 0.32023(16) 0.1401(2) 0.1348(2)
C21 C 0.37264(19) 0.0796(3) 0.1415(3)
H13 H 0.4111 0.1068 0.1416
C22 C 0.36806(18) -0.0207(3) 0.1481(3)
H14 H 0.4042 -0.0591 0.1532
C23 C 0.26305(16) -0.0069(2) 0.1395(3)
H15 H 0.2247 -0.0360 0.1381
C24 C 0.26407(16) 0.0935(2) 0.1336(3)
H16 H 0.2273 0.1301 0.1288
O1A O 0.66483(11) 0.77812(15) -0.53589(15)
O2A O 0.70807(10) 0.70686(15) -0.38607(16)
O3A O 0.41359(11) 0.76744(17) -0.74987(16)
O4A O 0.34700(11) 0.7585(2) -0.67823(18)
C1A C 0.65908(13) 0.73652(19) -0.4664(2)
C2A C 0.58856(13) 0.7209(2) -0.4772(2)
C3A C 0.53164(14) 0.7465(2) -0.5660(2)
H1A H 0.5371 0.7733 -0.6189
C4A C 0.46656(14) 0.7321(2) -0.5755(2)
C5A C 0.45889(14) 0.6916(2) -0.4958(2)
H2A H 0.4155 0.6835 -0.5016
C6A C 0.51546(14) 0.6631(2) -0.40744(19)
C7A C 0.57999(13) 0.6781(2) -0.39923(19)
H3A H 0.6180 0.6594 -0.3408
C8A C 0.40511(14) 0.7551(2) -0.6731(2)
C9A C 0.50725(13) 0.6116(2) -0.32573(19)
C11A C 0.50765(15) 0.5095(2) -0.3242(2)
H5A H 0.5131 0.4752 -0.3735
Co1A Co 0.691801(17) 0.77720(3) -0.64905(3)
N1A N 0.70484(12) 0.62121(18) -0.63750(18)
N2A N 0.68627(12) -0.06506(19) -0.64730(18)
C13A C 0.66073(15) 0.5658(2) -0.6221(2)
H7A H 0.6262 0.5969 -0.6141
C14A C 0.66350(16) 0.4651(2) -0.6175(3)
H8A H 0.6314 0.4301 -0.6068
C15A C 0.71461(15) 0.4161(2) -0.6290(2)
C16A C 0.76176(17) 0.4736(2) -0.6421(3)
H9A H 0.7979 0.4446 -0.6475
C17A C 0.75463(17) 0.5742(2) -0.6469(3)
H10A H 0.7861 0.6111 -0.6572
C18A C 0.71999(17) 0.3095(2) -0.6304(2)
H11A H 0.7583 0.2839 -0.6322
C19A C 0.67505(17) 0.2462(2) -0.6292(3)
H12A H 0.6376 0.2714 -0.6246
C20A C 0.67977(16) 0.1401(2) -0.6348(2)
C21A C 0.62736(19) 0.0796(3) -0.6415(3)
H13A H 0.5889 0.1068 -0.6416
C22A C 0.63194(18) -0.0207(3) -0.6481(3)
H14A H 0.5958 -0.0591 -0.6532
C23A C 0.73695(16) -0.0069(2) -0.6395(3)
H15A H 0.7753 -0.0360 -0.6381
C24A C 0.73593(16) 0.0935(2) -0.6336(3)
H16A H 0.7727 0.1301 -0.6288
Co1_2 Co 0.308199(17) -0.22280(3) 0.14905(3)
Co1_3 Co 0.308199(17) 0.77720(3) -0.85095(3)
Co1A_2 Co 0.691801(17) -0.22280(3) -0.64905(3)
Co1A_3 Co 0.691801(17) 0.77720(3) 0.35095(3)
Co1F Co 0.191801(17) 0.72280(3) -0.14905(3)
Co1G Co 0.808199(17) 0.72280(3) -0.35095(3)
O2F O 0.20807(10) 0.79314(15) 0.11393(16)
O2G O 0.79193(10) 0.79314(15) -0.61393(16)
O3_2 O 0.58641(11) 0.76744(17) -0.75013(16)
O3A_2 O 0.41359(11) 0.76744(17) 0.25013(16)
O4_2 O 0.65300(11) 0.7585(2) -0.82177(18)
O4A_2 O 0.34700(11) 0.7585(2) 0.32177(18)
N2_2 N 0.31373(12) 0.93494(19) 0.14730(18)
N2A_2 N 0.68627(12) 0.93494(19) -0.64730(18)
loop_
_geom_bond_atom_site_label_1
_geom_bond_atom_site_label_2
_geom_bond_site_symmetry_1
_geom_bond_site_symmetry_2
Co1 O1 1_555 1_555
O1 C1 1_555 1_555
O2 C1 1_555 1_555
O3 C8 1_555 1_555
O4 C8 1_555 1_555
N1 Co1 1_555 1_555
N2 C22 1_555 1_555
C1 C2 1_555 1_555
C2 C3 1_555 1_555
C3 H1 1_555 1_555
C4 C3 1_555 1_555
C5 C4 1_555 1_555
H2 C5 1_555 1_555
C6 C5 1_555 1_555
C7 C2 1_555 1_555
H3 C7 1_555 1_555
C8 C4 1_555 1_555
C9 C6 1_555 1_555
C10 C9 1_555 1_555
H4 C10 1_555 1_555
C11 C9 1_555 1_555
H5 C11 1_555 1_555
C12 C11 1_555 1_555
H6 C12 1_555 1_555
C13 N1 1_555 1_555
H7 C13 1_555 1_555
C14 C13 1_555 1_555
H8 C14 1_555 1_555
C15 C14 1_555 1_555
C16 C15 1_555 1_555
H9 C16 1_555 1_555
C17 N1 1_555 1_555
H10 C17 1_555 1_555
C18 C15 1_555 1_555
H11 C18 1_555 1_555
C19 C18 1_555 1_555
H12 C19 1_555 1_555
C20 C19 1_555 1_555
C21 C20 1_555 1_555
H13 C21 1_555 1_555
C22 C21 1_555 1_555
H14 C22 1_555 1_555
C23 N2 1_555 1_555
H15 C23 1_555 1_555
C24 C20 1_555 1_555
H16 C24 1_555 1_555
O1A C1A 1_555 1_555
O2A C1A 1_555 1_555
O3A C8A 1_555 1_555
O4A C8A 1_555 1_555
C1A C2A 1_555 1_555
C2A C3A 1_555 1_555
C3A H1A 1_555 1_555
C4A C3A 1_555 1_555
C5A C4A 1_555 1_555
H2A C5A 1_555 1_555
C6A C5A 1_555 1_555
C7A C2A 1_555 1_555
H3A C7A 1_555 1_555
C8A C4A 1_555 1_555
C9A C10 1_555 1_555
C11A C12 1_555 1_555
H5A C11A 1_555 1_555
Co1A O1A 1_555 1_555
N1A Co1A 1_555 1_555
N2A C22A 1_555 1_555
C13A N1A 1_555 1_555
H7A C13A 1_555 1_555
C14A C13A 1_555 1_555
H8A C14A 1_555 1_555
C15A C14A 1_555 1_555
C16A C15A 1_555 1_555
H9A C16A 1_555 1_555
C17A N1A 1_555 1_555
H10A C17A 1_555 1_555
C18A C15A 1_555 1_555
H11A C18A 1_555 1_555
C19A C18A 1_555 1_555
H12A C19A 1_555 1_555
C20A C19A 1_555 1_555
C21A C20A 1_555 1_555
H13A C21A 1_555 1_555
C22A C21A 1_555 1_555
H14A C22A 1_555 1_555
C23A N2A 1_555 1_555
H15A C23A 1_555 1_555
C24A C20A 1_555 1_555
H16A C24A 1_555 1_555
Co1_2 N2 1_555 1_555
Co1_3 O3A 1_555 1_555
Co1A_2 N2A 1_555 1_555
Co1A_3 O3 1_555 1_555
Co1F O2 1_555 1_555
Co1G O2A 1_555 1_555
O2F Co1 1_555 1_555
O2G Co1A 1_555 1_555
O3_2 Co1A 1_555 1_555
O3A_2 Co1 1_555 1_555
O4_2 Co1A 1_555 1_555
O4A_2 Co1 1_555 1_555
N2_2 Co1 1_555 1_555
N2A_2 Co1A 1_555 1_555
O4 Co1A_3 1_555 1_555
C6 C7 1_555 1_555
C16 C17 1_555 1_555
C23 C24 1_555 1_555
O4A Co1_3 1_555 1_555
C6A C7A 1_555 1_555
C6A C9A 1_555 1_555
C9A C11A 1_555 1_555
C16A C17A 1_555 1_555
C23A C24A 1_555 1_555

#END
