
#######################################################################
#
#                 Cambridge Crystallographic Data Centre
#                                CCDC 
#
#######################################################################
#
# If this CIF has been generated from an entry in the Cambridge 
# Structural Database, then it will include bibliographic, chemical, 
# crystal, experimental, refinement or atomic coordinate data resulting 
# from the CCDC's data processing and validation procedures.
#
#######################################################################

data_DORHID
_symmetry_cell_setting           monoclinic
_symmetry_space_group_name_H-M   'C 2/c'
_symmetry_Int_Tables_number      15
_space_group_name_Hall           '-C 2yn'
loop_
_symmetry_equiv_pos_site_id
_symmetry_equiv_pos_as_xyz
1 x,y,z
2 -x,y,1/2-z
3 1/2+x,1/2+y,z
4 1/2-x,1/2+y,1/2-z
5 -x,-y,-z
6 x,-y,1/2+z
7 1/2-x,1/2-y,-z
8 1/2+x,1/2-y,1/2+z
_cell_length_a                   25.951(3)
_cell_length_b                   11.8662(14)
_cell_length_c                   20.436(4)
_cell_angle_alpha                90
_cell_angle_beta                 125.847(6)
_cell_angle_gamma                90
_cell_volume                     5101.05
loop_
_atom_site_label
_atom_site_type_symbol
_atom_site_fract_x
_atom_site_fract_y
_atom_site_fract_z
Zn1 Zn 0.55645(3) 0.53414(6) -0.16306(4)
C1 C 0.6810(3) 0.4572(6) 0.0724(4)
O1 O 0.6376(2) 0.5295(4) -0.0580(3)
C2 C 0.7740(3) 0.5328(6) 0.1911(4)
C3 C 0.7671(3) 0.4576(6) 0.2380(4)
N1 N 0.8166(3) 0.4747(5) 0.3190(3)
O2 O 0.9981(2) 0.8665(4) 0.3478(2)
O3 O 0.5821(3) 0.4030(7) -0.0472(3)
C4 C 0.7303(3) 0.5310(5) 0.1076(4)
H1 H 0.7349 0.5802 0.0759
O4 O 0.9199(2) 0.8559(4) 0.2152(3)
C5 C 0.9375(3) 0.6951(5) 0.3792(3)
H2 H 0.9734 0.7288 0.4238
C6 C 0.8597(3) 0.6843(5) 0.2340(3)
H3 H 0.8433 0.7087 0.1820
C7 C 0.8302(3) 0.5987(5) 0.2462(3)
C8 C 0.6297(3) 0.4619(6) -0.0168(4)
C9 C 0.8212(3) 0.4220(6) 0.3853(3)
C10 C 0.9142(3) 0.7339(5) 0.3005(3)
C11 C 0.8547(3) 0.5626(6) 0.3243(4)
C12 C 0.7185(4) 0.3774(7) 0.2025(4)
H4 H 0.7150 0.3242 0.2332
C13 C 0.9085(3) 0.6103(6) 0.3911(4)
H5 H 0.9245 0.5852 0.4428
C14 C 0.7703(3) 0.4226(7) 0.3889(4)
H6 H 0.7328 0.4577 0.3481
C15 C 0.9466(3) 0.8252(5) 0.2881(4)
C16 C 0.8784(4) 0.3183(7) 0.5082(4)
H7 H 0.9156 0.2826 0.5491
C17 C 0.8757(3) 0.3701(6) 0.4441(4)
H8 H 0.9107 0.3686 0.4423
C18 C 0.7737(4) 0.3722(7) 0.4517(4)
H9 H 0.7388 0.3742 0.4537
C19 C 0.8277(4) 0.3197(7) 0.5109(5)
H10 H 0.8298 0.2848 0.5531
C20 C 0.6764(4) 0.3811(7) 0.1206(4)
H11 H 0.6427 0.3303 0.0956
O5 O 0.5000 0.4321(6) -0.2500
Zn1A Zn 0.44355(3) 0.53414(6) -0.33694(4)
C1A C 0.3190(3) 0.4572(6) -0.5724(4)
O1A O 0.3624(2) 0.5295(4) -0.4420(3)
C2A C 0.2260(3) 0.5328(6) -0.6911(4)
C3A C 0.2329(3) 0.4576(6) -0.7380(4)
N1A N 0.1834(3) 0.4747(5) -0.8190(3)
O2A O 0.0019(2) 0.8665(4) -0.8478(2)
O3A O 0.4179(3) 0.4030(7) -0.4528(3)
C4A C 0.2697(3) 0.5310(5) -0.6076(4)
H1A H 0.2651 0.5802 -0.5759
O4A O 0.0801(2) 0.8559(4) -0.7152(3)
C5A C 0.0625(3) 0.6951(5) -0.8792(3)
H2A H 0.0266 0.7288 -0.9238
C6A C 0.1403(3) 0.6843(5) -0.7340(3)
H3A H 0.1567 0.7087 -0.6820
C7A C 0.1698(3) 0.5987(5) -0.7462(3)
C8A C 0.3703(3) 0.4619(6) -0.4832(4)
C9A C 0.1788(3) 0.4220(6) -0.8853(3)
C10A C 0.0858(3) 0.7339(5) -0.8005(3)
C11A C 0.1453(3) 0.5626(6) -0.8243(4)
C12A C 0.2815(4) 0.3774(7) -0.7025(4)
H4A H 0.2850 0.3242 -0.7332
C13A C 0.0915(3) 0.6103(6) -0.8911(4)
H5A H 0.0755 0.5852 -0.9428
C14A C 0.2297(3) 0.4226(7) -0.8889(4)
H6A H 0.2672 0.4577 -0.8481
C15A C 0.0534(3) 0.8252(5) -0.7881(4)
C16A C 0.1216(4) 0.3183(7) -1.0082(4)
H7A H 0.0844 0.2826 -1.0491
C17A C 0.1243(3) 0.3701(6) -0.9441(4)
H8A H 0.0893 0.3686 -0.9423
C18A C 0.2263(4) 0.3722(7) -0.9517(4)
H9A H 0.2612 0.3742 -0.9537
C19A C 0.1723(4) 0.3197(7) -1.0109(5)
H10A H 0.1702 0.2848 -1.0531
C20A C 0.3236(4) 0.3811(7) -0.6206(4)
H11A H 0.3573 0.3303 -0.5956
Zn1F Zn -0.05645(3) 0.96586(6) -0.83694(4)
Zn1F_2 Zn 0.94355(3) 0.96586(6) 0.16306(4)
Zn1G Zn 0.05645(3) 0.96586(6) -0.66306(4)
Zn1G_2 Zn 1.05645(3) 0.96586(6) 0.33694(4)
O2F O 0.5019(2) 0.6335(4) -0.3478(2)
O2G O 0.4981(2) 0.6335(4) -0.1522(2)
O4F O 0.5801(2) 0.6441(4) -0.2152(3)
O4G O 0.4199(2) 0.6441(4) -0.2848(3)
O6 O 0.4325(11) 0.3707(15) -0.117(2)
O7 O 0.3506(11) 0.339(2) -0.2148(15)
O8 O 0.4586(11) 0.236(6) -0.1453(15)
O9 O 0.5000 -0.006(5) -0.2500
O10 O 0.7140(18) 0.249(4) -0.0403(15)
O10F O 0.7860(18) 0.251(4) 0.0403(15)
loop_
_geom_bond_atom_site_label_1
_geom_bond_atom_site_label_2
_geom_bond_site_symmetry_1
_geom_bond_site_symmetry_2
Zn1 O1 1_555 1_555
C1 C4 1_555 1_555
O1 C8 1_555 1_555
C2 C3 1_555 1_555
C3 N1 1_555 1_555
N1 C9 1_555 1_555
O2 C15 1_555 1_555
O3 Zn1 1_555 1_555
C4 C2 1_555 1_555
H1 C4 1_555 1_555
O4 C15 1_555 1_555
C5 H2 1_555 1_555
C6 H3 1_555 1_555
C7 C2 1_555 1_555
C8 C1 1_555 1_555
C9 C14 1_555 1_555
C10 C5 1_555 1_555
C11 N1 1_555 1_555
C12 C3 1_555 1_555
H4 C12 1_555 1_555
C13 C5 1_555 1_555
H5 C13 1_555 1_555
C14 H6 1_555 1_555
C15 C10 1_555 1_555
C16 H7 1_555 1_555
C17 C9 1_555 1_555
H8 C17 1_555 1_555
C18 C14 1_555 1_555
H9 C18 1_555 1_555
C19 C16 1_555 1_555
H10 C19 1_555 1_555
C20 C1 1_555 1_555
H11 C20 1_555 1_555
O5 Zn1 1_555 1_555
Zn1A O5 1_555 1_555
C1A C4A 1_555 1_555
O1A Zn1A 1_555 1_555
C2A C3A 1_555 1_555
C3A N1A 1_555 1_555
N1A C9A 1_555 1_555
O2A C15A 1_555 1_555
O3A Zn1A 1_555 1_555
C4A C2A 1_555 1_555
H1A C4A 1_555 1_555
O4A C15A 1_555 1_555
C5A H2A 1_555 1_555
C6A H3A 1_555 1_555
C7A C2A 1_555 1_555
C8A C1A 1_555 1_555
C9A C14A 1_555 1_555
C10A C5A 1_555 1_555
C11A N1A 1_555 1_555
C12A C3A 1_555 1_555
H4A C12A 1_555 1_555
C13A C5A 1_555 1_555
H5A C13A 1_555 1_555
C14A H6A 1_555 1_555
C15A C10A 1_555 1_555
C16A H7A 1_555 1_555
C17A C9A 1_555 1_555
H8A C17A 1_555 1_555
C18A C14A 1_555 1_555
H9A C18A 1_555 1_555
C19A C16A 1_555 1_555
H10A C19A 1_555 1_555
C20A C1A 1_555 1_555
H11A C20A 1_555 1_555
Zn1F O2A 1_555 1_555
Zn1F_2 O4 1_555 1_555
Zn1G O4A 1_555 1_555
Zn1G_2 O2 1_555 1_555
O2F Zn1A 1_555 1_555
O2G Zn1 1_555 1_555
O4F Zn1 1_555 1_555
O4G Zn1A 1_555 1_555
O3 C8 1_555 1_555
C6 C7 1_555 1_555
C6 C10 1_555 1_555
C7 C11 1_555 1_555
C11 C13 1_555 1_555
C12 C20 1_555 1_555
C16 C17 1_555 1_555
C18 C19 1_555 1_555
O1A C8A 1_555 1_555
O3A C8A 1_555 1_555
C6A C7A 1_555 1_555
C6A C10A 1_555 1_555
C7A C11A 1_555 1_555
C11A C13A 1_555 1_555
C12A C20A 1_555 1_555
C16A C17A 1_555 1_555
C18A C19A 1_555 1_555

#END
