
#######################################################################
#
#                 Cambridge Crystallographic Data Centre
#                                CCDC 
#
#######################################################################
#
# If this CIF has been generated from an entry in the Cambridge 
# Structural Database, then it will include bibliographic, chemical, 
# crystal, experimental, refinement or atomic coordinate data resulting 
# from the CCDC's data processing and validation procedures.
#
#######################################################################

data_DORQAD01
_symmetry_cell_setting           triclinic
_symmetry_space_group_name_H-M   'P -1'
_symmetry_Int_Tables_number      2
_space_group_name_Hall           '-P 1'
loop_
_symmetry_equiv_pos_site_id
_symmetry_equiv_pos_as_xyz
1 x,y,z
2 -x,-y,-z
_cell_length_a                   8.2858(2)
_cell_length_b                   8.3482(1)
_cell_length_c                   13.8501(3)
_cell_angle_alpha                80.492(1)
_cell_angle_beta                 85.986(1)
_cell_angle_gamma                71.065(1)
_cell_volume                     893.604
loop_
_atom_site_label
_atom_site_type_symbol
_atom_site_fract_x
_atom_site_fract_y
_atom_site_fract_z
Ba1 Ba 0.594886(12) 0.229025(11) 0.966240(7)
O1 O 0.40654(15) 0.55839(14) 0.89217(9)
O2 O 0.81170(17) 0.39438(16) 0.85406(11)
O3 O 0.52248(16) 0.27809(14) 0.76304(8)
O4 O 0.17156(16) 0.78228(15) 0.89726(9)
O5 O 0.27246(17) 0.31007(17) 1.05622(10)
O6 O 0.39465(15) 0.05844(14) 0.89811(8)
O7 O 0.14560(16) 0.27041(17) 0.88540(9)
O8 O 0.52948(17) 0.75410(17) 0.73418(10)
O9 O 0.63365(17) 0.56221(19) 0.63856(11)
O10 O 0.66495(18) 0.1432(2) 0.64784(10)
O11 O 0.82643(19) -0.02213(17) 0.87763(10)
N1 N 0.51414(19) 0.65384(19) 0.68347(11)
N2 N 0.53482(19) 0.19227(18) 0.69706(10)
C1 C 0.3827(2) 0.1535(2) 0.67334(12)
C2 C 0.1008(2) 0.0894(2) 0.61804(13)
H1 H 0.0033 0.0664 0.5993
C3 C 0.2672(2) 0.1596(2) 0.85099(12)
C4 C 0.2291(2) 0.0986(2) 0.54965(13)
H2 H 0.2197 0.0822 0.4843
C5 C 0.1137(2) 0.1134(2) 0.71365(13)
H3 H 0.0238 0.1084 0.7593
C6 C 0.2731(2) 0.6669(2) 0.85483(12)
C7 C 0.2290(2) 0.65511(19) 0.75243(12)
C8 C 0.0257(2) 0.6227(2) 0.64535(14)
H4 H -0.0844 0.6162 0.6360
C9 C 0.0681(2) 0.6476(2) 0.73613(13)
H5 H -0.0145 0.6598 0.7878
C10 C 0.2563(2) 0.14484(19) 0.74390(12)
C11 C 0.3437(2) 0.6402(2) 0.67344(12)
C12 C 0.3038(2) 0.6170(2) 0.58225(13)
H6 H 0.3853 0.6079 0.5299
C13 C 0.3710(2) 0.1320(2) 0.57728(12)
H7 H 0.4592 0.1400 0.5310
C14 C 0.1439(2) 0.6074(2) 0.56865(13)
H8 H 0.1149 0.5904 0.5068
H9 H 0.207(4) 0.325(4) 1.009(2)
H10 H 0.788(3) 0.414(3) 0.7999(19)
H11 H 0.925(3) 0.348(3) 0.8608(18)
H12 H 0.247(4) 0.397(4) 1.079(2)
H13 H 0.787(3) -0.095(3) 0.8863(19)
H14 H 0.932(4) -0.072(3) 0.8864(18)
Ba1A Ba 0.405114(12) 0.770975(11) 1.033760(7)
Ba1A_2 Ba 0.405114(12) -0.229025(11) 1.033760(7)
O1A O 0.59346(15) 0.44161(14) 1.10783(9)
O4A O 0.82844(16) 0.21772(15) 1.10274(9)
O6A O 0.60535(15) -0.05844(14) 1.10189(8)
loop_
_geom_bond_atom_site_label_1
_geom_bond_atom_site_label_2
_geom_bond_site_symmetry_1
_geom_bond_site_symmetry_2
Ba1 O1 1_555 1_555
O1 C6 1_555 1_555
O2 Ba1 1_555 1_555
O3 Ba1 1_555 1_555
O4 C6 1_555 1_555
O5 Ba1 1_555 1_555
O6 Ba1 1_555 1_555
O7 C3 1_555 1_555
O8 N1 1_555 1_555
O9 N1 1_555 1_555
O10 N2 1_555 1_555
O11 Ba1 1_555 1_555
N1 C11 1_555 1_555
N2 O3 1_555 1_555
C1 N2 1_555 1_555
C2 H1 1_555 1_555
C3 O6 1_555 1_555
C4 C2 1_555 1_555
H2 C4 1_555 1_555
C5 C2 1_555 1_555
H3 C5 1_555 1_555
C6 C7 1_555 1_555
C7 C9 1_555 1_555
C8 H4 1_555 1_555
C9 C8 1_555 1_555
H5 C9 1_555 1_555
C10 C1 1_555 1_555
C11 C7 1_555 1_555
C12 C11 1_555 1_555
H6 C12 1_555 1_555
C13 C1 1_555 1_555
H7 C13 1_555 1_555
C14 C8 1_555 1_555
H8 C14 1_555 1_555
H9 O5 1_555 1_555
H10 O2 1_555 1_555
H11 O2 1_555 1_555
H12 O5 1_555 1_555
H13 O11 1_555 1_555
H14 O11 1_555 1_555
Ba1A O1 1_555 1_555
Ba1A_2 O6 1_555 1_555
O1A Ba1 1_555 1_555
O4A Ba1 1_555 1_555
O6A Ba1 1_555 1_555
O4 Ba1A 1_555 1_555
C3 C10 1_555 1_555
C4 C13 1_555 1_555
C5 C10 1_555 1_555
C12 C14 1_555 1_555
Ba1A O1A 1_555 1_555
Ba1A_2 O6A 1_555 1_555

#END
