
#######################################################################
#
#                 Cambridge Crystallographic Data Centre
#                                CCDC 
#
#######################################################################
#
# If this CIF has been generated from an entry in the Cambridge 
# Structural Database, then it will include bibliographic, chemical, 
# crystal, experimental, refinement or atomic coordinate data resulting 
# from the CCDC's data processing and validation procedures.
#
#######################################################################

data_DORSAF
_symmetry_cell_setting           monoclinic
_symmetry_space_group_name_H-M   'P 21/c'
_symmetry_Int_Tables_number      14
_space_group_name_Hall           '-P 2ybc'
loop_
_symmetry_equiv_pos_site_id
_symmetry_equiv_pos_as_xyz
1 x,y,z
2 -x,1/2+y,1/2-z
3 -x,-y,-z
4 x,1/2-y,1/2+z
_cell_length_a                   11.079(5)
_cell_length_b                   14.215(5)
_cell_length_c                   11.601(5)
_cell_angle_alpha                90
_cell_angle_beta                 112.594(5)
_cell_angle_gamma                90
_cell_volume                     1686.8
loop_
_atom_site_label
_atom_site_type_symbol
_atom_site_fract_x
_atom_site_fract_y
_atom_site_fract_z
Cu1 Cu 0.5000 -0.5000 0.0000
Cu2 Cu 0.62605(5) -0.30914(4) -0.02950(5)
S1 S 0.45533(10) -0.25341(8) 0.17225(10)
O1 O 0.5655(3) -0.4286(2) -0.1038(3)
H1 H 0.5160 -0.4225 -0.1977
O2 O 0.4809(3) -0.3153(2) 0.0818(3)
O3 O 0.4592(3) -0.1538(2) 0.1487(3)
O4 O 0.6665(3) -0.5057(2) 0.1432(3)
O5 O 0.7587(3) -0.3733(2) 0.1179(3)
N1 N 0.6902(3) -0.3139(3) 0.5575(3)
N2 N 0.5420(3) -0.2747(2) 0.3183(3)
C1 C 0.7661(5) -0.3263(4) 0.6838(5)
H2 H 0.7971 -0.2633 0.7261
C2 C 0.7972(5) -0.4125(4) 0.7392(6)
H3 H 0.8429 -0.4182 0.8128
C3 C 0.7527(5) -0.4909(4) 0.6638(6)
H4 H 0.7631 -0.5449 0.6819
C4 C 0.6749(5) -0.4810(4) 0.5380(5)
H5 H 0.6459 -0.5212 0.4843
C5 C 0.6430(4) -0.3905(3) 0.4860(4)
C6 C 0.5538(5) -0.3758(3) 0.3502(4)
H6 H 0.5904 -0.4111 0.2879
H7 H 0.4844 -0.3951 0.3579
C7 C 0.2981(4) -0.2800(3) 0.1495(4)
C8 C 0.7578(4) -0.4498(3) 0.1729(5)
C9 C 0.8759(6) -0.4775(4) 0.2858(6)
H8 H 0.9219 -0.4899 0.2416
H9 H 0.8619 -0.5089 0.3546
C10 C 0.9376(6) -0.4015(5) 0.3787(5)
H10 H 1.0112 -0.4266 0.4468
H11 H 0.9666 -0.3523 0.3387
H12 H 0.8755 -0.3765 0.4097
C11 C 0.2436(5) -0.2314(4) 0.2213(7)
H13 H 0.3008 -0.1891 0.3080
C12 C 0.1207(6) -0.2494(4) 0.2015(7)
H14 H 0.0911 -0.2178 0.2672
C13 C 0.0537(5) -0.3143(5) 0.1104(6)
H15 H -0.0376 -0.3377 0.0962
C14 C 0.1083(5) -0.3632(6) 0.0420(6)
H16 H 0.0680 -0.4071 -0.0179
C15 C 0.2335(5) -0.3463(5) 0.0620(5)
H17 H 0.2750 -0.3898 0.0121
Cu2B Cu 0.37395(5) -0.69086(4) 0.02950(5)
Cu2C Cu 0.62605(5) -0.19086(4) 0.47050(5)
Cu2C_2 Cu 0.62605(5) -0.19086(4) -0.52950(5)
S1C S 0.45533(10) -0.24659(8) -0.32775(10)
O1B O 0.4345(3) -0.5714(2) 0.1038(3)
H1B H 0.4840 -0.5775 0.1977
O2C O 0.4809(3) -0.1847(2) -0.4182(3)
O2B O 0.5191(3) -0.6847(2) -0.0818(3)
O3C O 0.4592(3) -0.3462(2) -0.3513(3)
O4B O 0.3335(3) -0.4943(2) -0.1432(3)
O5B O 0.2413(3) -0.6267(2) -0.1179(3)
N1C N 0.6902(3) -0.1861(3) 0.0575(3)
N1A N 0.3098(3) -0.8139(3) -0.0575(3)
N2C N 0.5420(3) -0.2253(2) -0.1817(3)
N2A N 0.4580(3) -0.7747(2) 0.1817(3)
C1C C 0.7661(5) -0.1737(4) 0.1838(5)
H2C H 0.7971 -0.2367 0.2261
C2C C 0.7972(5) -0.0875(4) 0.2392(6)
H3C H 0.8429 -0.0818 0.3128
C3C C 0.7527(5) -0.0091(4) 0.1638(6)
H4C H 0.7631 0.0449 0.1819
C4C C 0.6749(5) -0.0190(4) 0.0380(5)
H5C H 0.6459 0.0212 -0.0157
C5C C 0.6430(4) -0.1095(3) -0.0140(4)
C6C C 0.5538(5) -0.1242(3) -0.1498(4)
H6C H 0.5904 -0.0889 -0.2121
H7C H 0.4844 -0.1049 -0.1421
C7C C 0.2981(4) -0.2200(3) -0.3505(4)
C8B C 0.2422(4) -0.5502(3) -0.1729(5)
C9B C 0.1241(6) -0.5225(4) -0.2858(6)
H8B H 0.0781 -0.5101 -0.2416
H9B H 0.1381 -0.4911 -0.3546
C10B C 0.0624(6) -0.5985(5) -0.3787(5)
H10B H -0.0112 -0.5734 -0.4468
H11B H 0.0334 -0.6477 -0.3387
H12B H 0.1245 -0.6235 -0.4097
C11C C 0.2436(5) -0.2686(4) -0.2787(7)
H13C H 0.3008 -0.3109 -0.1920
C12C C 0.1207(6) -0.2506(4) -0.2985(7)
H14C H 0.0911 -0.2822 -0.2328
C13C C 0.0537(5) -0.1857(5) -0.3896(6)
H15C H -0.0376 -0.1623 -0.4038
C14C C 0.1083(5) -0.1368(6) -0.4580(6)
H16C H 0.0680 -0.0929 -0.5179
C15C C 0.2335(5) -0.1537(5) -0.4380(5)
H17C H 0.2750 -0.1102 -0.4879
loop_
_geom_bond_atom_site_label_1
_geom_bond_atom_site_label_2
_geom_bond_site_symmetry_1
_geom_bond_site_symmetry_2
Cu1 O1 1_555 1_555
Cu2 O1 1_555 1_555
S1 O2 1_555 1_555
O1 H1 1_555 1_555
O2 Cu2 1_555 1_555
O3 S1 1_555 1_555
O4 Cu1 1_555 1_555
O5 Cu2 1_555 1_555
N1 C1 1_555 1_555
N2 S1 1_555 1_555
C1 H2 1_555 1_555
C2 C1 1_555 1_555
H3 C2 1_555 1_555
C3 C2 1_555 1_555
H4 C3 1_555 1_555
C4 C3 1_555 1_555
H5 C4 1_555 1_555
C5 N1 1_555 1_555
C6 N2 1_555 1_555
H6 C6 1_555 1_555
H7 C6 1_555 1_555
C7 S1 1_555 1_555
C8 O4 1_555 1_555
C9 C8 1_555 1_555
H8 C9 1_555 1_555
H9 C9 1_555 1_555
C10 C9 1_555 1_555
H10 C10 1_555 1_555
H11 C10 1_555 1_555
H12 C10 1_555 1_555
C11 C7 1_555 1_555
H13 C11 1_555 1_555
C12 C11 1_555 1_555
H14 C12 1_555 1_555
C13 C12 1_555 1_555
H15 C13 1_555 1_555
C14 C13 1_555 1_555
H16 C14 1_555 1_555
C15 C7 1_555 1_555
H17 C15 1_555 1_555
Cu2B O1B 1_555 1_555
Cu2C N1 1_555 1_555
Cu2C_2 O2C 1_555 1_555
S1C O2C 1_555 1_555
O1B Cu1 1_555 1_555
H1B O1B 1_555 1_555
O2B Cu2B 1_555 1_555
O3C S1C 1_555 1_555
O4B Cu1 1_555 1_555
O5B Cu2B 1_555 1_555
N1C Cu2 1_555 1_555
N1A Cu2B 1_555 1_555
N2C Cu2 1_555 1_555
N2A Cu2B 1_555 1_555
C1C N1C 1_555 1_555
H2C C1C 1_555 1_555
C2C C1C 1_555 1_555
H3C C2C 1_555 1_555
C3C C2C 1_555 1_555
H4C C3C 1_555 1_555
C4C C3C 1_555 1_555
H5C C4C 1_555 1_555
C5C N1C 1_555 1_555
C6C N2C 1_555 1_555
H6C C6C 1_555 1_555
H7C C6C 1_555 1_555
C7C S1C 1_555 1_555
C8B O4B 1_555 1_555
C9B C8B 1_555 1_555
H8B C9B 1_555 1_555
H9B C9B 1_555 1_555
C10B C9B 1_555 1_555
H10B C10B 1_555 1_555
H11B C10B 1_555 1_555
H12B C10B 1_555 1_555
C11C C7C 1_555 1_555
H13C C11C 1_555 1_555
C12C C11C 1_555 1_555
H14C C12C 1_555 1_555
C13C C12C 1_555 1_555
H15C C13C 1_555 1_555
C14C C13C 1_555 1_555
H16C C14C 1_555 1_555
C15C C7C 1_555 1_555
H17C C15C 1_555 1_555
O5 C8 1_555 1_555
N2 Cu2C 1_555 1_555
C4 C5 1_555 1_555
C5 C6 1_555 1_555
C14 C15 1_555 1_555
S1C N2C 1_555 1_555
O5B C8B 1_555 1_555
C4C C5C 1_555 1_555
C5C C6C 1_555 1_555
C14C C15C 1_555 1_555

#END
