
#######################################################################
#
#                 Cambridge Crystallographic Data Centre
#                                CCDC 
#
#######################################################################
#
# If this CIF has been generated from an entry in the Cambridge 
# Structural Database, then it will include bibliographic, chemical, 
# crystal, experimental, refinement or atomic coordinate data resulting 
# from the CCDC's data processing and validation procedures.
#
#######################################################################

data_DORVUD01
_symmetry_cell_setting           monoclinic
_symmetry_space_group_name_H-M   'P 21'
_symmetry_Int_Tables_number      4
_space_group_name_Hall           'P 2yb'
loop_
_symmetry_equiv_pos_site_id
_symmetry_equiv_pos_as_xyz
1 x,y,z
2 -x,1/2+y,-z
_cell_length_a                   11.7473(5)
_cell_length_b                   7.3575(4)
_cell_length_c                   12.7693(6)
_cell_angle_alpha                90
_cell_angle_beta                 110.051(3)
_cell_angle_gamma                90
_cell_volume                     1036.77
loop_
_atom_site_label
_atom_site_type_symbol
_atom_site_fract_x
_atom_site_fract_y
_atom_site_fract_z
Cu1 Cu 0.17168(3) 0.74658(5) 0.58434(3)
N1 N 0.1395(3) 0.8789(5) 0.4402(3)
H1 H 0.086(4) 0.828(5) 0.401(3)
H2 H 0.113(4) 0.987(7) 0.444(3)
N2 N 0.2079(3) 0.6089(4) 0.7282(3)
H3 H 0.175(3) 0.510(6) 0.705(3)
H4 H 0.167(3) 0.660(6) 0.767(3)
N3 N 0.1687(3) 0.5135(5) 0.4993(3)
N4 N 0.2352(3) 0.9697(5) 0.6760(3)
N5 N 0.0962(3) 0.4004(4) 0.4601(3)
N6 N 0.0291(3) 0.2824(4) 0.4198(3)
N7 N 0.1696(3) 1.0908(4) 0.6802(2)
N8 N 0.1104(3) 1.2123(4) 0.6889(3)
C1 C 0.3308(5) 1.0265(10) 0.4535(4)
H5 H 0.3566 1.0077 0.5326
H6 H 0.2935 1.1439 0.4356
H7 H 0.3996 1.0201 0.4294
C2 C 0.2394(4) 0.8796(7) 0.3944(4)
H8 H 0.273(3) 0.750(7) 0.402(3)
C3 C 0.1955(4) 0.9026(5) 0.2679(3)
C4 C 0.0970(4) 1.0080(7) 0.2101(4)
H9 H 0.062(4) 1.076(7) 0.243(4)
C5 C 0.0608(5) 1.0282(7) 0.0961(4)
H10 H -0.004(4) 1.102(7) 0.064(4)
C6 C 0.1263(5) 0.9446(6) 0.0394(4)
Cl1 Cl 0.08227(17) 0.9736(2) -0.10462(11)
C7 C 0.2254(6) 0.8425(8) 0.0949(5)
H11 H 0.258(4) 0.796(7) 0.058(5)
C8 C 0.2585(5) 0.8217(7) 0.2082(4)
H12 H 0.327(5) 0.751(10) 0.244(4)
C9 C 0.3986(5) 0.4606(8) 0.7422(5)
H13 H 0.472(5) 0.455(8) 0.785(5)
H14 H 0.405(5) 0.512(9) 0.669(5)
H15 H 0.370(6) 0.337(10) 0.738(6)
C10 C 0.3359(3) 0.5866(5) 0.8002(3)
H16 H 0.375(3) 0.709(5) 0.810(3)
C11 C 0.3520(3) 0.5249(5) 0.9174(3)
C12 C 0.2679(4) 0.4201(6) 0.9430(4)
H17 H 0.198(4) 0.391(6) 0.886(4)
C13 C 0.2830(4) 0.3689(6) 1.0506(4)
H18 H 0.219(5) 0.296(7) 1.066(4)
C14 C 0.3891(4) 0.4192(5) 1.1351(3)
Cl2 Cl 0.40954(14) 0.3557(2) 1.27128(10)
C15 C 0.4767(4) 0.5172(6) 1.1127(4)
H19 H 0.531(5) 0.535(8) 1.165(5)
C16 C 0.4578(4) 0.5698(5) 1.0039(4)
H20 H 0.521(4) 0.639(7) 0.989(4)
Cu1A Cu -0.17168(3) 0.24658(5) 0.41566(3)
N6A N -0.0291(3) 0.7824(4) 0.5802(3)
loop_
_geom_bond_atom_site_label_1
_geom_bond_atom_site_label_2
_geom_bond_site_symmetry_1
_geom_bond_site_symmetry_2
Cu1 N1 1_555 1_555
N1 H1 1_555 1_555
H2 N1 1_555 1_555
N2 Cu1 1_555 1_555
H3 N2 1_555 1_555
H4 N2 1_555 1_555
N3 Cu1 1_555 1_555
N4 Cu1 1_555 1_555
N5 N3 1_555 1_555
N6 N5 1_555 1_555
N7 N4 1_555 1_555
N8 N7 1_555 1_555
C1 H5 1_555 1_555
H6 C1 1_555 1_555
H7 C1 1_555 1_555
C2 N1 1_555 1_555
H8 C2 1_555 1_555
C3 C2 1_555 1_555
C4 C3 1_555 1_555
H9 C4 1_555 1_555
C5 C4 1_555 1_555
H10 C5 1_555 1_555
C6 C5 1_555 1_555
Cl1 C6 1_555 1_555
C7 C6 1_555 1_555
H11 C7 1_555 1_555
C8 C3 1_555 1_555
H12 C8 1_555 1_555
C9 H13 1_555 1_555
H14 C9 1_555 1_555
H15 C9 1_555 1_555
C10 N2 1_555 1_555
H16 C10 1_555 1_555
C11 C10 1_555 1_555
C12 C11 1_555 1_555
H17 C12 1_555 1_555
C13 C12 1_555 1_555
H18 C13 1_555 1_555
C14 C13 1_555 1_555
Cl2 C14 1_555 1_555
C15 C14 1_555 1_555
H19 C15 1_555 1_555
C16 C11 1_555 1_555
H20 C16 1_555 1_555
Cu1A N6 1_555 1_555
N6A Cu1 1_555 1_555
C1 C2 1_555 1_555
C7 C8 1_555 1_555
C9 C10 1_555 1_555
C15 C16 1_555 1_555

#END
