
#######################################################################
#
#                 Cambridge Crystallographic Data Centre
#                                CCDC 
#
#######################################################################
#
# If this CIF has been generated from an entry in the Cambridge 
# Structural Database, then it will include bibliographic, chemical, 
# crystal, experimental, refinement or atomic coordinate data resulting 
# from the CCDC's data processing and validation procedures.
#
#######################################################################

data_DORVUD
_symmetry_cell_setting           monoclinic
_symmetry_space_group_name_H-M   'P 21'
_symmetry_Int_Tables_number      4
_space_group_name_Hall           'P 2yb'
loop_
_symmetry_equiv_pos_site_id
_symmetry_equiv_pos_as_xyz
1 x,y,z
2 -x,1/2+y,-z
_cell_length_a                   11.591(4)
_cell_length_b                   7.286(3)
_cell_length_c                   12.709(5)
_cell_angle_alpha                90
_cell_angle_beta                 109.591(6)
_cell_angle_gamma                90
_cell_volume                     1011.17
loop_
_atom_site_label
_atom_site_type_symbol
_atom_site_fract_x
_atom_site_fract_y
_atom_site_fract_z
Cu1 Cu 0.17292(4) 0.14699(6) 0.08367(3)
Cl1 Cl 0.08240(11) -0.07544(17) -0.60746(9)
Cl2 Cl 0.40934(11) 0.54054(16) 0.77126(9)
N1 N 0.1397(3) 0.0134(5) -0.0607(3)
H1 H 0.1208 -0.1037 -0.0508
H2 H 0.0735 0.0640 -0.1115
N2 N 0.2076(3) 0.2848(5) 0.2272(3)
H3 H 0.1738 0.3970 0.2110
H4 H 0.1690 0.2269 0.2684
N3 N 0.2372(3) -0.0788(5) 0.1753(3)
N4 N 0.1079(3) -0.3199(4) 0.1886(3)
N5 N 0.1703(3) -0.1989(5) 0.1805(3)
N6 N -0.0284(3) 0.1135(4) 0.0804(3)
N7 N -0.0977(3) -0.0047(5) 0.0405(3)
N8 N -0.1724(3) -0.1189(5) 0.0006(3)
C1 C 0.2636(4) 0.0735(6) -0.2928(4)
H5 H 0.3321 0.1436 -0.2552
C2 C 0.2289(4) 0.0537(6) -0.4076(4)
H6 H 0.2744 0.1082 -0.4470
C3 C 0.1265(4) -0.0473(6) -0.4624(3)
C4 C 0.0581(4) -0.1322(6) -0.4061(3)
H7 H -0.0113 -0.1999 -0.4443
C5 C 0.0958(4) -0.1137(6) -0.2910(4)
H8 H 0.0518 -0.1723 -0.2515
C6 C 0.1974(4) -0.0099(6) -0.2332(3)
C7 C 0.2406(4) 0.0124(6) -0.1072(3)
H9 H 0.2822 0.1313 -0.0896
C8 C 0.3341(4) -0.1363(8) -0.0485(4)
H10 H 0.3596 -0.1183 0.0309
H11 H 0.4039 -0.1282 -0.0728
H12 H 0.2971 -0.2552 -0.0668
C9 C 0.2650(4) 0.4737(6) 0.4407(3)
H13 H 0.1937 0.5072 0.3838
C10 C 0.2812(4) 0.5257(6) 0.5496(4)
H14 H 0.2210 0.5919 0.5663
C11 C 0.3892(4) 0.4771(6) 0.6338(3)
C12 C 0.4790(4) 0.3808(6) 0.6101(3)
H15 H 0.5516 0.3522 0.6669
C13 C 0.4615(3) 0.3261(5) 0.5015(3)
H16 H 0.5217 0.2583 0.4858
C14 C 0.3542(3) 0.3719(6) 0.4155(3)
C15 C 0.3382(3) 0.3088(5) 0.2977(3)
H17 H 0.3775 0.1884 0.3037
C16 C 0.4022(4) 0.4362(6) 0.2403(3)
H18 H 0.3939 0.3886 0.1677
H19 H 0.4874 0.4446 0.2841
H20 H 0.3657 0.5559 0.2327
Cu1A Cu -0.17292(4) -0.35301(6) -0.08367(3)
N8A N 0.1724(3) 0.3811(5) -0.0006(3)
loop_
_geom_bond_atom_site_label_1
_geom_bond_atom_site_label_2
_geom_bond_site_symmetry_1
_geom_bond_site_symmetry_2
Cu1 N1 1_555 1_555
Cl1 C3 1_555 1_555
Cl2 C11 1_555 1_555
N1 H1 1_555 1_555
H2 N1 1_555 1_555
N2 Cu1 1_555 1_555
H3 N2 1_555 1_555
H4 N2 1_555 1_555
N3 Cu1 1_555 1_555
N4 N5 1_555 1_555
N5 N3 1_555 1_555
N6 Cu1 1_555 1_555
N7 N6 1_555 1_555
N8 N7 1_555 1_555
C1 H5 1_555 1_555
C2 C1 1_555 1_555
H6 C2 1_555 1_555
C3 C2 1_555 1_555
C4 C3 1_555 1_555
H7 C4 1_555 1_555
C5 C4 1_555 1_555
H8 C5 1_555 1_555
C6 C1 1_555 1_555
C7 N1 1_555 1_555
H9 C7 1_555 1_555
C8 C7 1_555 1_555
H10 C8 1_555 1_555
H11 C8 1_555 1_555
H12 C8 1_555 1_555
C9 H13 1_555 1_555
C10 C9 1_555 1_555
H14 C10 1_555 1_555
C11 C10 1_555 1_555
C12 C11 1_555 1_555
H15 C12 1_555 1_555
C13 C12 1_555 1_555
H16 C13 1_555 1_555
C14 C9 1_555 1_555
C15 N2 1_555 1_555
H17 C15 1_555 1_555
C16 C15 1_555 1_555
H18 C16 1_555 1_555
H19 C16 1_555 1_555
H20 C16 1_555 1_555
Cu1A N8 1_555 1_555
N8A Cu1 1_555 1_555
C5 C6 1_555 1_555
C6 C7 1_555 1_555
C13 C14 1_555 1_555
C14 C15 1_555 1_555

#END
