
#######################################################################
#
#                 Cambridge Crystallographic Data Centre
#                                CCDC 
#
#######################################################################
#
# If this CIF has been generated from an entry in the Cambridge 
# Structural Database, then it will include bibliographic, chemical, 
# crystal, experimental, refinement or atomic coordinate data resulting 
# from the CCDC's data processing and validation procedures.
#
#######################################################################

data_DORWAK
_symmetry_cell_setting           monoclinic
_symmetry_space_group_name_H-M   'P 21'
_symmetry_Int_Tables_number      4
_space_group_name_Hall           'P 2yb'
loop_
_symmetry_equiv_pos_site_id
_symmetry_equiv_pos_as_xyz
1 x,y,z
2 -x,1/2+y,-z
_cell_length_a                   11.7698(3)
_cell_length_b                   7.4184(2)
_cell_length_c                   12.7549(3)
_cell_angle_alpha                90
_cell_angle_beta                 110.052(1)
_cell_angle_gamma                90
_cell_volume                     1046.16
loop_
_atom_site_label
_atom_site_type_symbol
_atom_site_fract_x
_atom_site_fract_y
_atom_site_fract_z
Cu1 Cu 0.171743(17) 0.25314(4) 0.579052(15)
N1 N 0.20973(16) 0.1155(3) 0.72253(14)
H1 H 0.1691(18) 0.163(3) 0.7515(16)
H2 H 0.117(2) 0.492(4) 0.4451(19)
N2 N 0.13560(17) 0.3865(3) 0.43430(15)
H3 H 0.072(3) 0.337(4) 0.392(2)
H4 H 0.183(2) 0.012(4) 0.7023(18)
N3 N 0.16751(19) 0.0231(3) 0.49318(16)
N4 N 0.23706(18) 0.4732(3) 0.67151(16)
N5 N 0.09499(15) -0.0904(3) 0.45680(12)
N6 N 0.02804(16) -0.2084(3) 0.41901(15)
N7 N 0.17385(16) 0.5960(3) 0.67627(12)
N8 N 0.11689(17) 0.7183(3) 0.68521(15)
C1 C 0.4040(2) -0.0242(5) 0.7420(2)
H5 H 0.3937 0.0191 0.6684
H6 H 0.3710 -0.1435 0.7371
H7 H 0.4885 -0.0270 0.7857
C2 C 0.33811(17) 0.1013(3) 0.79728(15)
H8 H 0.3747 0.2212 0.8029
C3 C 0.35156(17) 0.0398(3) 0.91413(15)
C4 C 0.26684(19) -0.0637(4) 0.93827(16)
H9 H 0.1977 -0.0999 0.8806
C5 C 0.2822(2) -0.1152(4) 1.04671(19)
H10 H 0.2228 -0.1840 1.0606
C6 C 0.3841(2) -0.0661(4) 1.13434(17)
C7 C 0.3982(3) -0.1229(5) 1.25291(19)
H11 H 0.3288 -0.1915 1.2521
H12 H 0.4051 -0.0176 1.2984
H13 H 0.4697 -0.1953 1.2829
C8 C 0.4698(2) 0.0340(4) 1.11086(17)
H14 H 0.5396 0.0674 1.1687
C9 C 0.45517(19) 0.0870(3) 1.00244(18)
H15 H 0.5152 0.1547 0.9888
C10 C 0.3265(3) 0.5326(7) 0.4471(2)
H16 H 0.3543 0.5093 0.5259
H17 H 0.2894 0.6495 0.4326
H18 H 0.3938 0.5290 0.4210
C11 C 0.23345(19) 0.3883(4) 0.38601(18)
H19 H 0.2740 0.2709 0.4012
C12 C 0.18823(18) 0.4170(3) 0.26073(17)
C13 C 0.0872(2) 0.5145(4) 0.20517(17)
H20 H 0.0423 0.5653 0.2451
C14 C 0.0497(2) 0.5396(4) 0.09026(18)
H21 H -0.0199 0.6060 0.0547
C15 C 0.1141(3) 0.4675(4) 0.02857(19)
C16 C 0.0717(4) 0.4987(5) -0.0969(2)
H22 H 0.1261 0.4400 -0.1274
H23 H 0.0704 0.6257 -0.1117
H24 H -0.0082 0.4501 -0.1307
C17 C 0.2168(3) 0.3723(5) 0.0840(2)
H25 H 0.2629 0.3248 0.0442
C18 C 0.2534(2) 0.3453(4) 0.1981(2)
H26 H 0.3226 0.2780 0.2335
Cu1A Cu -0.171743(17) -0.24686(4) 0.420948(15)
N6A N -0.02804(16) 0.2916(3) 0.58099(15)
loop_
_geom_bond_atom_site_label_1
_geom_bond_atom_site_label_2
_geom_bond_site_symmetry_1
_geom_bond_site_symmetry_2
Cu1 N1 1_555 1_555
N1 H1 1_555 1_555
H2 N2 1_555 1_555
N2 Cu1 1_555 1_555
H3 N2 1_555 1_555
H4 N1 1_555 1_555
N3 Cu1 1_555 1_555
N4 Cu1 1_555 1_555
N5 N3 1_555 1_555
N6 N5 1_555 1_555
N7 N4 1_555 1_555
N8 N7 1_555 1_555
C1 H5 1_555 1_555
H6 C1 1_555 1_555
H7 C1 1_555 1_555
C2 N1 1_555 1_555
H8 C2 1_555 1_555
C3 C2 1_555 1_555
C4 C3 1_555 1_555
H9 C4 1_555 1_555
C5 C4 1_555 1_555
H10 C5 1_555 1_555
C6 C5 1_555 1_555
C7 C6 1_555 1_555
H11 C7 1_555 1_555
H12 C7 1_555 1_555
H13 C7 1_555 1_555
C8 C6 1_555 1_555
H14 C8 1_555 1_555
C9 C3 1_555 1_555
H15 C9 1_555 1_555
C10 H16 1_555 1_555
H17 C10 1_555 1_555
H18 C10 1_555 1_555
C11 N2 1_555 1_555
H19 C11 1_555 1_555
C12 C11 1_555 1_555
C13 C12 1_555 1_555
H20 C13 1_555 1_555
C14 C13 1_555 1_555
H21 C14 1_555 1_555
C15 C14 1_555 1_555
C16 C15 1_555 1_555
H22 C16 1_555 1_555
H23 C16 1_555 1_555
H24 C16 1_555 1_555
C17 C15 1_555 1_555
H25 C17 1_555 1_555
C18 C12 1_555 1_555
H26 C18 1_555 1_555
Cu1A N6 1_555 1_555
N6A Cu1 1_555 1_555
C1 C2 1_555 1_555
C8 C9 1_555 1_555
C10 C11 1_555 1_555
C17 C18 1_555 1_555

#END
