
#######################################################################
#
#                 Cambridge Crystallographic Data Centre
#                                CCDC 
#
#######################################################################
#
# If this CIF has been generated from an entry in the Cambridge 
# Structural Database, then it will include bibliographic, chemical, 
# crystal, experimental, refinement or atomic coordinate data resulting 
# from the CCDC's data processing and validation procedures.
#
#######################################################################

data_DORWEO
_symmetry_cell_setting           monoclinic
_symmetry_space_group_name_H-M   'P 21'
_symmetry_Int_Tables_number      4
_space_group_name_Hall           'P 2yb'
loop_
_symmetry_equiv_pos_site_id
_symmetry_equiv_pos_as_xyz
1 x,y,z
2 -x,1/2+y,-z
_cell_length_a                   11.5685(4)
_cell_length_b                   7.3355(2)
_cell_length_c                   12.9121(4)
_cell_angle_alpha                90
_cell_angle_beta                 110.080(2)
_cell_angle_gamma                90
_cell_volume                     1029.13
loop_
_atom_site_label
_atom_site_type_symbol
_atom_site_fract_x
_atom_site_fract_y
_atom_site_fract_z
Cu1 Cu 0.67420(3) 0.44498(4) 0.58220(2)
N1 N 0.6400(2) 0.5763(3) 0.43904(17)
H1 H 0.616(3) 0.676(5) 0.441(2)
H2 H 0.572(3) 0.527(5) 0.392(3)
N2 N 0.7090(2) 0.3082(3) 0.72478(17)
H3 H 0.676(3) 0.205(5) 0.709(3)
H4 H 0.671(3) 0.362(4) 0.764(3)
N3 N 0.6730(2) 0.2110(3) 0.49988(17)
N4 N 0.73930(19) 0.6697(3) 0.67173(17)
N5 N 0.59795(18) 0.0974(3) 0.46054(16)
N6 N 0.5287(2) -0.0200(3) 0.42011(19)
N7 N 0.67264(19) 0.7912(3) 0.67630(15)
N8 N 0.6108(2) 0.9113(3) 0.68417(18)
C1 C 0.8352(3) 0.7210(6) 0.4523(3)
H5 H 0.862(3) 0.693(5) 0.529(3)
H6 H 0.806(3) 0.840(6) 0.431(3)
H7 H 0.909(4) 0.732(6) 0.431(3)
C2 C 0.7403(2) 0.5749(4) 0.3922(2)
H8 H 0.773(3) 0.450(6) 0.406(3)
C3 C 0.6961(2) 0.6012(4) 0.2684(2)
C4 C 0.5938(2) 0.7075(4) 0.2125(2)
H9 H 0.546(3) 0.752(5) 0.255(3)
C5 C 0.5567(3) 0.7289(4) 0.0990(2)
H10 H 0.491(3) 0.788(5) 0.070(3)
C6 C 0.6234(3) 0.6462(3) 0.0421(2)
Br1 Br 0.57545(3) 0.68492(4) -0.11278(2)
C7 C 0.7263(3) 0.5443(4) 0.0951(2)
H11 H 0.766(3) 0.489(5) 0.054(3)
C8 C 0.7608(3) 0.5201(4) 0.2087(2)
H12 H 0.840(3) 0.461(5) 0.252(3)
C9 C 0.9037(3) 0.1552(4) 0.7426(2)
H13 H 0.899(2) 0.189(4) 0.671(2)
H14 H 0.990(3) 0.159(4) 0.788(2)
H15 H 0.866(3) 0.042(5) 0.732(3)
C10 C 0.8390(2) 0.2869(3) 0.79668(19)
H16 H 0.878(3) 0.413(4) 0.802(2)
C11 C 0.8529(2) 0.2260(3) 0.91259(19)
C12 C 0.7620(2) 0.1252(4) 0.9360(2)
H17 H 0.687(3) 0.089(5) 0.877(3)
C13 C 0.7763(2) 0.0741(4) 1.0430(2)
H18 H 0.709(3) 0.012(4) 1.063(3)
C14 C 0.8836(2) 0.1206(3) 1.1271(2)
Br2 Br 0.90180(3) 0.05139(4) 1.27329(2)
C15 C 0.9766(2) 0.2173(3) 1.1068(2)
H19 H 1.045(3) 0.245(4) 1.164(3)
C16 C 0.9600(2) 0.2700(3) 0.9998(2)
H20 H 1.019(3) 0.343(5) 0.982(3)
Cu1A Cu 0.32580(3) -0.05502(4) 0.41780(2)
N6A N 0.4713(2) 0.4800(3) 0.57989(19)
loop_
_geom_bond_atom_site_label_1
_geom_bond_atom_site_label_2
_geom_bond_site_symmetry_1
_geom_bond_site_symmetry_2
Cu1 N1 1_555 1_555
N1 H1 1_555 1_555
H2 N1 1_555 1_555
N2 Cu1 1_555 1_555
H3 N2 1_555 1_555
H4 N2 1_555 1_555
N3 Cu1 1_555 1_555
N4 Cu1 1_555 1_555
N5 N3 1_555 1_555
N6 N5 1_555 1_555
N7 N4 1_555 1_555
N8 N7 1_555 1_555
C1 H5 1_555 1_555
H6 C1 1_555 1_555
H7 C1 1_555 1_555
C2 N1 1_555 1_555
H8 C2 1_555 1_555
C3 C2 1_555 1_555
C4 C3 1_555 1_555
H9 C4 1_555 1_555
C5 C4 1_555 1_555
H10 C5 1_555 1_555
C6 C5 1_555 1_555
Br1 C6 1_555 1_555
C7 C6 1_555 1_555
H11 C7 1_555 1_555
C8 C3 1_555 1_555
H12 C8 1_555 1_555
C9 H13 1_555 1_555
H14 C9 1_555 1_555
H15 C9 1_555 1_555
C10 N2 1_555 1_555
H16 C10 1_555 1_555
C11 C10 1_555 1_555
C12 C11 1_555 1_555
H17 C12 1_555 1_555
C13 C12 1_555 1_555
H18 C13 1_555 1_555
C14 C13 1_555 1_555
Br2 C14 1_555 1_555
C15 C14 1_555 1_555
H19 C15 1_555 1_555
C16 C11 1_555 1_555
H20 C16 1_555 1_555
Cu1A N6 1_555 1_555
N6A Cu1 1_555 1_555
C1 C2 1_555 1_555
C7 C8 1_555 1_555
C9 C10 1_555 1_555
C15 C16 1_555 1_555

#END
