
#######################################################################
#
#                 Cambridge Crystallographic Data Centre
#                                CCDC 
#
#######################################################################
#
# If this CIF has been generated from an entry in the Cambridge 
# Structural Database, then it will include bibliographic, chemical, 
# crystal, experimental, refinement or atomic coordinate data resulting 
# from the CCDC's data processing and validation procedures.
#
#######################################################################

data_DORXAL
_symmetry_cell_setting           orthorhombic
_symmetry_space_group_name_H-M   'P b c a'
_symmetry_Int_Tables_number      61
_space_group_name_Hall           '-P 2ac 2ab'
loop_
_symmetry_equiv_pos_site_id
_symmetry_equiv_pos_as_xyz
1 x,y,z
2 1/2-x,-y,1/2+z
3 1/2+x,1/2-y,-z
4 -x,1/2+y,1/2-z
5 -x,-y,-z
6 1/2+x,y,1/2-z
7 1/2-x,1/2+y,z
8 x,1/2-y,1/2+z
_cell_length_a                   16.4961(4)
_cell_length_b                   5.99686(13)
_cell_length_c                   26.1214(6)
_cell_angle_alpha                90
_cell_angle_beta                 90
_cell_angle_gamma                90
_cell_volume                     2584.05
loop_
_atom_site_label
_atom_site_type_symbol
_atom_site_fract_x
_atom_site_fract_y
_atom_site_fract_z
Cu1 Cu 0.25879(3) 0.85060(9) 0.48449(2)
Cu2 Cu 0.5000 1.0000 0.5000
N1 N 0.4525(2) 1.0760(8) 0.56856(14)
H1 H 0.4300 1.2118 0.5648
H2 H 0.4111 0.9804 0.5731
N2 N 0.23939(19) 0.6022(5) 0.53509(12)
N3 N 0.2443(2) 0.6016(5) 0.43550(12)
N4 N 0.2755(2) 0.5908(6) 0.39291(14)
N5 N 0.3021(3) 0.5804(8) 0.35327(18)
N6 N 0.40458(19) 0.7959(6) 0.48975(13)
N7 N 0.41316(19) 0.5980(6) 0.48626(14)
N8 N 0.2837(2) 0.5901(6) 0.57312(15)
N9 N 0.4152(2) 0.4064(6) 0.48219(19)
C1 C 0.3649(4) 1.3547(16) 0.7415(2)
H3 H 0.3366 1.4187 0.7686
C2 C 0.4468(3) 1.1743(11) 0.65967(18)
C3 C 0.5568(4) 0.9352(14) 0.6250(2)
H4 H 0.5353 0.7948 0.6363
H5 H 0.5906 0.9971 0.6513
H6 H 0.5883 0.9130 0.5945
C4 C 0.4325(5) 1.4517(12) 0.7236(3)
H7 H 0.4524 1.5797 0.7393
N10 N 0.3242(4) 0.5810(9) 0.6073(2)
C5 C 0.3799(5) 1.0696(12) 0.6788(3)
H8 H 0.3619 0.9366 0.6644
C6 C 0.3385(4) 1.1637(18) 0.7200(3)
H9 H 0.2924 1.0941 0.7328
C7 C 0.4927(5) 1.082(2) 0.6145(2)
H10 H 0.5257 1.2148 0.6075
C8 C 0.4724(4) 1.3639(11) 0.6825(2)
H11 H 0.5181 1.4361 0.6700
Cu1D Cu 0.74121(3) 1.14940(9) 0.51551(2)
N1D N 0.5475(2) 0.9240(8) 0.43144(14)
H1D H 0.5700 0.7882 0.4352
H2D H 0.5889 1.0196 0.4269
N2D N 0.76061(19) 1.3978(5) 0.46491(12)
N3D N 0.7557(2) 1.3984(5) 0.56450(12)
N4D N 0.7245(2) 1.4092(6) 0.60709(14)
N5D N 0.6979(3) 1.4196(8) 0.64673(18)
N6D N 0.59542(19) 1.2041(6) 0.51025(13)
N7D N 0.58684(19) 1.4020(6) 0.51374(14)
N8D N 0.7163(2) 1.4099(6) 0.42688(15)
N9D N 0.5848(2) 1.5936(6) 0.51781(19)
C1D C 0.6351(4) 0.6453(16) 0.2585(2)
H3D H 0.6634 0.5813 0.2314
C2D C 0.5532(3) 0.8257(11) 0.34033(18)
C3D C 0.4432(4) 1.0648(14) 0.3750(2)
H4D H 0.4647 1.2052 0.3637
H5D H 0.4094 1.0029 0.3487
H6D H 0.4117 1.0870 0.4055
C4D C 0.5675(5) 0.5483(12) 0.2764(3)
H7D H 0.5476 0.4203 0.2607
N10D N 0.6758(4) 1.4190(9) 0.3927(2)
C5D C 0.6201(5) 0.9304(12) 0.3212(3)
H8D H 0.6381 1.0634 0.3356
C6D C 0.6615(4) 0.8363(18) 0.2800(3)
H9D H 0.7076 0.9059 0.2672
C7D C 0.5073(5) 0.918(2) 0.3855(2)
H10D H 0.4743 0.7852 0.3925
C8D C 0.5276(4) 0.6361(11) 0.3175(2)
H11D H 0.4819 0.5639 0.3300
Cu1B Cu 0.75879(3) 1.64940(9) 0.51551(2)
Cu1F Cu 0.24121(3) 0.35060(9) 0.48449(2)
N2B N 0.73939(19) 0.8978(5) 0.46491(12)
N2F N 0.26061(19) 1.1022(5) 0.53509(12)
N3B N 0.7443(2) 0.8984(5) 0.56450(12)
N3F N 0.2557(2) 1.1016(5) 0.43550(12)
loop_
_geom_bond_atom_site_label_1
_geom_bond_atom_site_label_2
_geom_bond_site_symmetry_1
_geom_bond_site_symmetry_2
Cu1 N2 1_555 1_555
Cu2 N1 1_555 1_555
N1 H1 1_555 1_555
H2 N1 1_555 1_555
N2 N8 1_555 1_555
N3 Cu1 1_555 1_555
N4 N3 1_555 1_555
N5 N4 1_555 1_555
N6 Cu1 1_555 1_555
N7 N6 1_555 1_555
N8 N10 1_555 1_555
N9 N7 1_555 1_555
C1 H3 1_555 1_555
C2 C5 1_555 1_555
C3 H4 1_555 1_555
H5 C3 1_555 1_555
H6 C3 1_555 1_555
C4 C1 1_555 1_555
H7 C4 1_555 1_555
C5 H8 1_555 1_555
C6 C1 1_555 1_555
H9 C6 1_555 1_555
C7 N1 1_555 1_555
H10 C7 1_555 1_555
C8 C2 1_555 1_555
H11 C8 1_555 1_555
Cu1D N2D 1_555 1_555
N1D Cu2 1_555 1_555
H1D N1D 1_555 1_555
H2D N1D 1_555 1_555
N2D N8D 1_555 1_555
N3D Cu1D 1_555 1_555
N4D N3D 1_555 1_555
N5D N4D 1_555 1_555
N6D Cu2 1_555 1_555
N7D N6D 1_555 1_555
N8D N10D 1_555 1_555
N9D N7D 1_555 1_555
C1D H3D 1_555 1_555
C2D C5D 1_555 1_555
C3D H4D 1_555 1_555
H5D C3D 1_555 1_555
H6D C3D 1_555 1_555
C4D C1D 1_555 1_555
H7D C4D 1_555 1_555
C5D H8D 1_555 1_555
C6D C1D 1_555 1_555
H9D C6D 1_555 1_555
C7D N1D 1_555 1_555
H10D C7D 1_555 1_555
C8D C2D 1_555 1_555
H11D C8D 1_555 1_555
Cu1B N2D 1_555 1_555
Cu1F N2 1_555 1_555
N2B Cu1D 1_555 1_555
N2F Cu1 1_555 1_555
N3B Cu1D 1_555 1_555
N3F Cu1 1_555 1_555
Cu2 N6 1_555 1_555
N3 Cu1F 1_555 1_555
C2 C7 1_555 1_555
C3 C7 1_555 1_555
C4 C8 1_555 1_555
C5 C6 1_555 1_555
Cu1D N6D 1_555 1_555
N3D Cu1B 1_555 1_555
C2D C7D 1_555 1_555
C3D C7D 1_555 1_555
C4D C8D 1_555 1_555
C5D C6D 1_555 1_555

#END
