
#######################################################################
#
#                 Cambridge Crystallographic Data Centre
#                                CCDC 
#
#######################################################################
#
# If this CIF has been generated from an entry in the Cambridge 
# Structural Database, then it will include bibliographic, chemical, 
# crystal, experimental, refinement or atomic coordinate data resulting 
# from the CCDC's data processing and validation procedures.
#
#######################################################################

data_DOSCIZ
_symmetry_cell_setting           monoclinic
_symmetry_space_group_name_H-M   'P 21/n'
_symmetry_Int_Tables_number      14
_space_group_name_Hall           '-P 2yn'
loop_
_symmetry_equiv_pos_site_id
_symmetry_equiv_pos_as_xyz
1 x,y,z
2 1/2-x,1/2+y,1/2-z
3 -x,-y,-z
4 1/2+x,1/2-y,1/2+z
_cell_length_a                   12.8706(11)
_cell_length_b                   10.4407(5)
_cell_length_c                   16.3978(10)
_cell_angle_alpha                90
_cell_angle_beta                 103.466(7)
_cell_angle_gamma                90
_cell_volume                     2142.93
loop_
_atom_site_label
_atom_site_type_symbol
_atom_site_fract_x
_atom_site_fract_y
_atom_site_fract_z
Ag1 Ag 0.39895(3) 1.02212(3) 0.09292(2)
P1 P 0.33843(8) 0.85267(9) 0.16534(6)
C1 C 0.4005(3) 0.8460(4) 0.2767(2)
C2 C 0.5101(4) 0.8490(5) 0.2998(3)
H1 H 0.5491 0.8547 0.2589
C3 C 0.5631(4) 0.8438(6) 0.3836(3)
H2 H 0.6373 0.8424 0.3986
C4 C 0.5060(5) 0.8406(6) 0.4438(3)
H3 H 0.5417 0.8409 0.5001
C5 C 0.3984(5) 0.8370(7) 0.4229(3)
H4 H 0.3603 0.8318 0.4645
C6 C 0.3446(4) 0.8410(6) 0.3388(3)
H5 H 0.2703 0.8404 0.3244
C7 C 0.1950(3) 0.8433(4) 0.1563(2)
C8 C 0.1299(4) 0.9458(5) 0.1226(3)
H6 H 0.1597 1.0190 0.1051
C9 C 0.0196(4) 0.9384(7) 0.1152(3)
H7 H -0.0241 1.0067 0.0929
C10 C -0.0236(4) 0.8306(7) 0.1408(3)
H8 H -0.0969 0.8264 0.1362
C11 C 0.0390(4) 0.7294(6) 0.1731(3)
H9 H 0.0084 0.6565 0.1902
C12 C 0.1478(4) 0.7345(5) 0.1805(3)
H10 H 0.1900 0.6644 0.2019
C13 C 0.3658(3) 0.6967(4) 0.1254(2)
C14 C 0.4040(3) 0.5928(4) 0.1750(2)
H11 H 0.4248 0.6025 0.2329
C15 C 0.4118(4) 0.4741(4) 0.1395(3)
H12 H 0.4378 0.4047 0.1737
C16 C 0.3811(3) 0.4582(4) 0.0537(2)
C17 C 0.3490(4) 0.5636(4) 0.0034(2)
H13 H 0.3322 0.5546 -0.0546
C18 C 0.3416(4) 0.6816(4) 0.0384(2)
H14 H 0.3202 0.7521 0.0040
C19 C 0.3792(3) 0.3290(4) 0.0176(3)
O1 O 0.3686(3) 0.3281(3) -0.0636(2)
H15 H 0.3593 0.2544 -0.0811
O2 O 0.3831(3) 0.2332(3) 0.0587(2)
S1 S 0.67362(11) 1.01296(12) 0.11619(8)
O3 O 0.5764(3) 1.0727(6) 0.0805(4)
O4 O 0.6596(5) 0.8884(4) 0.1474(2)
O5 O 0.7493(4) 1.0277(4) 0.0657(2)
C20 C 0.7296(7) 1.0982(10) 0.2118(6)
F1 F 0.6719(5) 1.0889(6) 0.2646(3)
F2 F 0.7303(7) 1.2246(7) 0.1874(5)
F3 F 0.8213(5) 1.0653(12) 0.2423(3)
Ag1_2 Ag 0.39895(3) 0.02212(3) 0.09292(2)
O2_2 O 0.3831(3) 1.2332(3) 0.0587(2)
loop_
_geom_bond_atom_site_label_1
_geom_bond_atom_site_label_2
_geom_bond_site_symmetry_1
_geom_bond_site_symmetry_2
Ag1 P1 1_555 1_555
P1 C1 1_555 1_555
C1 C2 1_555 1_555
C2 H1 1_555 1_555
C3 C2 1_555 1_555
H2 C3 1_555 1_555
C4 C3 1_555 1_555
H3 C4 1_555 1_555
C5 C4 1_555 1_555
H4 C5 1_555 1_555
C6 C1 1_555 1_555
H5 C6 1_555 1_555
C7 P1 1_555 1_555
C8 C7 1_555 1_555
H6 C8 1_555 1_555
C9 C8 1_555 1_555
H7 C9 1_555 1_555
C10 C9 1_555 1_555
H8 C10 1_555 1_555
C11 C10 1_555 1_555
H9 C11 1_555 1_555
C12 C7 1_555 1_555
H10 C12 1_555 1_555
C13 P1 1_555 1_555
C14 C13 1_555 1_555
H11 C14 1_555 1_555
C15 C14 1_555 1_555
H12 C15 1_555 1_555
C16 C15 1_555 1_555
C17 C16 1_555 1_555
H13 C17 1_555 1_555
C18 C13 1_555 1_555
H14 C18 1_555 1_555
C19 C16 1_555 1_555
O1 C19 1_555 1_555
H15 O1 1_555 1_555
O2 C19 1_555 1_555
S1 O3 1_555 1_555
O3 Ag1 1_555 1_555
O4 S1 1_555 1_555
O5 S1 1_555 1_555
C20 S1 1_555 1_555
F1 C20 1_555 1_555
F2 C20 1_555 1_555
F3 C20 1_555 1_555
Ag1_2 O2 1_555 1_555
O2_2 Ag1 1_555 1_555
C5 C6 1_555 1_555
C11 C12 1_555 1_555
C17 C18 1_555 1_555

#END
