
#######################################################################
#
#                 Cambridge Crystallographic Data Centre
#                                CCDC 
#
#######################################################################
#
# If this CIF has been generated from an entry in the Cambridge 
# Structural Database, then it will include bibliographic, chemical, 
# crystal, experimental, refinement or atomic coordinate data resulting 
# from the CCDC's data processing and validation procedures.
#
#######################################################################

data_DOSKIF
_symmetry_cell_setting           triclinic
_symmetry_space_group_name_H-M   'P -1'
_symmetry_Int_Tables_number      2
_space_group_name_Hall           '-P 1'
loop_
_symmetry_equiv_pos_site_id
_symmetry_equiv_pos_as_xyz
1 x,y,z
2 -x,-y,-z
_cell_length_a                   7.377(4)
_cell_length_b                   11.372(2)
_cell_length_c                   14.806(2)
_cell_angle_alpha                90.31(1)
_cell_angle_beta                 91.06(2)
_cell_angle_gamma                108.32(2)
_cell_volume                     1178.86
loop_
_atom_site_label
_atom_site_type_symbol
_atom_site_fract_x
_atom_site_fract_y
_atom_site_fract_z
Cs1 Cs 0.08526(8) 0.47305(5) 0.24687(4)
O1 O -0.2685(9) 0.2791(5) 0.1375(4)
C1 C -0.243(2) 0.3100(8) 0.0448(6)
C2 C -0.286(1) 0.4298(9) 0.0340(6)
O2 O -0.1480(9) 0.5253(5) 0.0852(4)
C3 C -0.214(1) 0.6287(8) 0.1055(7)
C4 C -0.339(1) 0.6067(9) 0.1861(7)
O3 O -0.2254(9) 0.6105(6) 0.2643(4)
C5 C -0.333(2) 0.589(1) 0.3445(8)
C6 C -0.207(2) 0.575(1) 0.4211(7)
O4 O -0.1469(9) 0.4686(6) 0.4121(4)
C7 C -0.286(2) 0.358(1) 0.4404(6)
C8 C -0.241(1) 0.2479(9) 0.4030(6)
O5 O -0.2662(8) 0.2503(5) 0.3076(4)
C9 C -0.248(1) 0.1528(8) 0.2578(6)
C10 C -0.251(1) 0.1688(7) 0.1654(6)
C11 C -0.238(1) 0.0750(9) 0.1083(7)
C12 C -0.221(2) -0.0347(9) 0.1446(8)
C13 C -0.219(1) -0.0495(9) 0.2360(8)
C14 C -0.230(1) 0.0452(8) 0.2925(6)
C15 C 0.253(1) 0.1750(8) 0.3048(6)
C16 C 0.255(1) 0.0856(8) 0.3751(5)
C17 C 0.267(1) -0.0292(8) 0.3600(6)
C18 C 0.274(1) -0.0681(7) 0.2713(6)
C19 C 0.276(1) 0.0090(8) 0.1991(6)
C20 C 0.268(1) 0.1271(7) 0.2160(6)
O6 O 0.249(9) 0.2810(5) 0.3249(4)
N1 N 0.236(1) 0.1207(7) 0.4676(5)
O7 O 0.097(1) 0.1481(9) 0.4893(5)
O8 O 0.362(1) 0.1162(9) 0.5213(4)
N2 N 0.282(1) -0.1908(6) 0.2547(6)
O9 O 0.293(1) -0.2549(6) 0.3201(5)
O10 O 0.277(1) -0.2285(6) 0.1756(5)
N3 N 0.271(1) 0.2003(7) 0.1365(5)
O11 O 0.295(1) 0.1587(7) 0.0628(5)
O12 O 0.254(1) 0.3045(7) 0.1443(5)
O9_2 O 0.293(1) 0.7451(6) 0.3201(5)
O10_2 O 0.277(1) 0.7715(6) 0.1756(5)
Cs1_2 Cs 0.08526(8) -0.52695(5) 0.24687(4)
loop_
_geom_bond_atom_site_label_1
_geom_bond_atom_site_label_2
_geom_bond_site_symmetry_1
_geom_bond_site_symmetry_2
Cs1 O1 1_555 1_555
O1 C1 1_555 1_555
C1 C2 1_555 1_555
C2 O2 1_555 1_555
O2 Cs1 1_555 1_555
C3 O2 1_555 1_555
C4 C3 1_555 1_555
O3 Cs1 1_555 1_555
C5 O3 1_555 1_555
C6 C5 1_555 1_555
O4 Cs1 1_555 1_555
C7 O4 1_555 1_555
C8 C7 1_555 1_555
O5 Cs1 1_555 1_555
C9 O5 1_555 1_555
C10 O1 1_555 1_555
C11 C10 1_555 1_555
C12 C11 1_555 1_555
C13 C12 1_555 1_555
C14 C9 1_555 1_555
C15 C16 1_555 1_555
C16 C17 1_555 1_555
C17 C18 1_555 1_555
C18 C19 1_555 1_555
C19 C20 1_555 1_555
C20 C15 1_555 1_555
O6 Cs1 1_555 1_555
N1 C16 1_555 1_555
O7 N1 1_555 1_555
O8 N1 1_555 1_555
N2 C18 1_555 1_555
O9 N2 1_555 1_555
O10 N2 1_555 1_555
N3 C20 1_555 1_555
O11 N3 1_555 1_555
O12 Cs1 1_555 1_555
O9_2 Cs1 1_555 1_555
O10_2 Cs1 1_555 1_555
Cs1_2 O9 1_555 1_555
C4 O3 1_555 1_555
C6 O4 1_555 1_555
C8 O5 1_555 1_555
C9 C10 1_555 1_555
C13 C14 1_555 1_555
C15 O6 1_555 1_555
O10 Cs1_2 1_555 1_555
N3 O12 1_555 1_555

#END
