
#######################################################################
#
#                 Cambridge Crystallographic Data Centre
#                                CCDC 
#
#######################################################################
#
# If this CIF has been generated from an entry in the Cambridge 
# Structural Database, then it will include bibliographic, chemical, 
# crystal, experimental, refinement or atomic coordinate data resulting 
# from the CCDC's data processing and validation procedures.
#
#######################################################################

data_DOSROT
_symmetry_cell_setting           monoclinic
_symmetry_space_group_name_H-M   'C 2/c'
_symmetry_Int_Tables_number      15
_space_group_name_Hall           '-C 2yn'
loop_
_symmetry_equiv_pos_site_id
_symmetry_equiv_pos_as_xyz
1 x,y,z
2 -x,y,1/2-z
3 1/2+x,1/2+y,z
4 1/2-x,1/2+y,1/2-z
5 -x,-y,-z
6 x,-y,1/2+z
7 1/2-x,1/2-y,-z
8 1/2+x,1/2-y,1/2+z
_cell_length_a                   24.3039(11)
_cell_length_b                   9.1146(4)
_cell_length_c                   17.9687(8)
_cell_angle_alpha                90
_cell_angle_beta                 108.306(2)
_cell_angle_gamma                90
_cell_volume                     3778.99
loop_
_atom_site_label
_atom_site_type_symbol
_atom_site_fract_x
_atom_site_fract_y
_atom_site_fract_z
Ag1 Ag 0.202804(10) 1.10459(2) 0.028120(13)
P1 P 0.16176(4) 0.99608(9) 0.11785(5)
F1 F 0.41330(9) 1.3121(3) 0.11231(15)
F2 F 0.43314(9) 1.1666(3) 0.20986(13)
F3 F 0.41184(10) 1.0793(3) 0.09461(15)
O1 O 0.30058(9) 1.1947(2) 0.05980(12)
O2 O 0.32109(10) 1.1572(3) 0.18930(13)
N1 N 0.28197(12) 0.5513(3) 0.06728(15)
C1 C 0.21555(14) 0.8803(3) 0.18936(18)
H1 H 0.1970 0.8326 0.2249
H2 H 0.2476 0.9426 0.2215
C2 C 0.23959(13) 0.7647(3) 0.14843(17)
C3 C 0.21982(15) 0.6199(3) 0.14185(19)
H3 H 0.1913 0.5911 0.1650
C4 C 0.24181(15) 0.5195(3) 0.10171(19)
H4 H 0.2277 0.4216 0.0981
C5 C 0.30205(14) 0.6901(3) 0.07548(17)
H5 H 0.3314 0.7154 0.0531
C6 C 0.28208(14) 0.7970(3) 0.11473(18)
H6 H 0.2976 0.8934 0.1187
C7 C 0.10166(14) 0.8726(3) 0.07180(18)
C8 C 0.06932(15) 0.8991(3) -0.00628(19)
H7 H 0.0806 0.9757 -0.0343
C9 C 0.02116(15) 0.8152(4) -0.04311(19)
H8 H -0.0001 0.8337 -0.0964
C10 C 0.00372(15) 0.7046(4) -0.0029(2)
H9 H -0.0298 0.6480 -0.0280
C11 C 0.03594(15) 0.6774(4) 0.0746(2)
H10 H 0.0245 0.6006 0.1024
C12 C 0.08422(14) 0.7598(3) 0.11193(19)
H11 H 0.1057 0.7398 0.1650
C13 C 0.13193(14) 1.1116(3) 0.17865(18)
C14 C 0.13110(14) 1.2634(3) 0.16878(18)
H12 H 0.1489 1.3060 0.1338
C15 C 0.10444(15) 1.3525(4) 0.2098(2)
H13 H 0.1042 1.4558 0.2027
C16 C 0.07851(15) 1.2934(4) 0.26052(19)
H14 H 0.0597 1.3551 0.2876
C17 C 0.07999(16) 1.1420(4) 0.2720(2)
H15 H 0.0626 1.1005 0.3077
C18 C 0.10666(15) 1.0523(4) 0.23198(18)
H16 H 0.1079 0.9494 0.2407
C19 C 0.33349(14) 1.1799(3) 0.12901(18)
C20 C 0.39825(15) 1.1851(4) 0.1365(2)
Ag1F Ag 0.297196(10) 1.39541(2) -0.028120(13)
Ag1F_2 Ag 0.297196(10) 0.39541(2) -0.028120(13)
O1F O 0.19942(9) 1.3053(2) -0.05980(12)
N1F N 0.21803(12) 0.9487(3) -0.06728(15)
loop_
_geom_bond_atom_site_label_1
_geom_bond_atom_site_label_2
_geom_bond_site_symmetry_1
_geom_bond_site_symmetry_2
Ag1 P1 1_555 1_555
P1 C1 1_555 1_555
F1 C20 1_555 1_555
F2 C20 1_555 1_555
F3 C20 1_555 1_555
O1 Ag1 1_555 1_555
O2 C19 1_555 1_555
N1 C4 1_555 1_555
C1 H1 1_555 1_555
H2 C1 1_555 1_555
C2 C1 1_555 1_555
C3 C2 1_555 1_555
H3 C3 1_555 1_555
C4 C3 1_555 1_555
H4 C4 1_555 1_555
C5 N1 1_555 1_555
H5 C5 1_555 1_555
C6 C2 1_555 1_555
H6 C6 1_555 1_555
C7 P1 1_555 1_555
C8 C7 1_555 1_555
H7 C8 1_555 1_555
C9 C8 1_555 1_555
H8 C9 1_555 1_555
C10 C9 1_555 1_555
H9 C10 1_555 1_555
C11 C10 1_555 1_555
H10 C11 1_555 1_555
C12 C7 1_555 1_555
H11 C12 1_555 1_555
C13 P1 1_555 1_555
C14 C13 1_555 1_555
H12 C14 1_555 1_555
C15 C14 1_555 1_555
H13 C15 1_555 1_555
C16 C15 1_555 1_555
H14 C16 1_555 1_555
C17 C16 1_555 1_555
H15 C17 1_555 1_555
C18 C13 1_555 1_555
H16 C18 1_555 1_555
C19 O1 1_555 1_555
C20 C19 1_555 1_555
Ag1F O1 1_555 1_555
Ag1F_2 N1 1_555 1_555
O1F Ag1 1_555 1_555
N1F Ag1 1_555 1_555
C5 C6 1_555 1_555
C11 C12 1_555 1_555
C17 C18 1_555 1_555
Ag1F O1F 1_555 1_555

#END
