
#######################################################################
#
#                 Cambridge Crystallographic Data Centre
#                                CCDC 
#
#######################################################################
#
# If this CIF has been generated from an entry in the Cambridge 
# Structural Database, then it will include bibliographic, chemical, 
# crystal, experimental, refinement or atomic coordinate data resulting 
# from the CCDC's data processing and validation procedures.
#
#######################################################################

data_DOSRIN
_symmetry_cell_setting           triclinic
_symmetry_space_group_name_H-M   'P -1'
_symmetry_Int_Tables_number      2
_space_group_name_Hall           '-P 1'
loop_
_symmetry_equiv_pos_site_id
_symmetry_equiv_pos_as_xyz
1 x,y,z
2 -x,-y,-z
_cell_length_a                   8.6060(9)
_cell_length_b                   10.9368(11)
_cell_length_c                   14.4667(16)
_cell_angle_alpha                80.640(5)
_cell_angle_beta                 79.864(5)
_cell_angle_gamma                81.467(5)
_cell_volume                     1312.45
loop_
_atom_site_label
_atom_site_type_symbol
_atom_site_fract_x
_atom_site_fract_y
_atom_site_fract_z
Ag1 Ag 0.45117(3) 0.95181(2) 0.245834(16)
P1 P 0.17832(9) 0.92855(7) 0.25917(5)
N1 N 0.4045(3) 0.9706(2) -0.10431(17)
N2 N 0.6509(4) 0.7936(3) 0.2825(2)
N3 N 0.5055(4) 1.0618(3) 0.3644(2)
C1 C 0.1375(4) 0.8437(3) 0.1670(2)
H1 H 0.1682 0.7531 0.1840
H2 H 0.0221 0.8576 0.1636
C2 C 0.2288(4) 0.8881(3) 0.0719(2)
C3 C 0.3626(4) 0.8150(3) 0.0322(2)
H3 H 0.3971 0.7357 0.0648
C4 C 0.4448(4) 0.8589(3) -0.0548(2)
H4 H 0.5349 0.8071 -0.0811
C5 C 0.2773(3) 1.0420(3) -0.0648(2)
H5 H 0.2478 1.1222 -0.0978
C6 C 0.1872(3) 1.0048(3) 0.0213(2)
H6 H 0.0976 1.0584 0.0459
C7 C 0.0889(4) 0.8390(3) 0.3680(2)
C8 C -0.0395(4) 0.8849(3) 0.4304(2)
H7 H -0.0898 0.9677 0.4166
C9 C -0.0950(4) 0.8093(4) 0.5136(2)
H8 H -0.1825 0.8414 0.5565
C10 C -0.0241(5) 0.6892(3) 0.5339(2)
H9 H -0.0638 0.6379 0.5901
C11 C 0.1049(5) 0.6430(3) 0.4726(2)
H10 H 0.1544 0.5600 0.4869
C12 C 0.1625(4) 0.7174(3) 0.3902(2)
H11 H 0.2523 0.6856 0.3487
C13 C 0.0541(3) 1.0775(3) 0.24276(19)
C14 C 0.1256(4) 1.1868(3) 0.2323(2)
H12 H 0.2346 1.1819 0.2384
C15 C 0.0374(4) 1.3023(3) 0.2131(2)
H13 H 0.0862 1.3764 0.2060
C16 C -0.1208(4) 1.3100(3) 0.2045(2)
H14 H -0.1803 1.3894 0.1909
C17 C -0.1935(4) 1.2023(3) 0.2154(2)
H15 H -0.3028 1.2081 0.2097
C18 C -0.1066(4) 1.0863(3) 0.2345(2)
H16 H -0.1565 1.0127 0.2421
C19 C 0.7344(4) 0.7040(3) 0.2947(2)
C20 C 0.8446(5) 0.5914(3) 0.3095(3)
H17 H 0.9197 0.5821 0.2510
H18 H 0.7854 0.5189 0.3267
H19 H 0.9031 0.5969 0.3607
C21 C 0.5382(4) 1.1271(3) 0.4088(2)
C22 C 0.5840(7) 1.2114(4) 0.4643(3)
H20 H 0.7002 1.2054 0.4559
H21 H 0.5424 1.1885 0.5315
H22 H 0.5402 1.2973 0.4430
Ag1A Ag 0.54883(3) 1.04819(2) -0.245834(16)
N1A N 0.5955(3) 1.0294(2) 0.10431(17)
B1 B 0.4099(5) 0.4632(4) 0.2488(3)
F1 F 0.4439(14) 0.3663(9) 0.1947(6)
F2 F 0.5032(11) 0.5510(7) 0.1993(6)
F3 F 0.2555(6) 0.5202(7) 0.2442(7)
F4 F 0.4350(15) 0.4498(8) 0.3388(5)
N4 N 0.0749(11) 0.3459(4) 0.9334(3)
C23 C 0.1752(8) 0.4019(6) 0.9625(4)
C24 C 0.2695(5) 0.4914(5) 1.0009(3)
H23 H 0.3471 0.5263 0.9491
H24 H 0.3251 0.4439 1.0515
H25 H 0.1948 0.5593 1.0259
B2? B 0.4099(5) 0.4632(4) 0.2488(3)
F5? F 0.4429(18) 0.3539(12) 0.2068(11)
F6? F 0.5476(8) 0.4851(11) 0.2688(10)
F7? F 0.332(2) 0.5563(8) 0.2018(6)
F8? F 0.3182(12) 0.4194(7) 0.3297(6)
loop_
_geom_bond_atom_site_label_1
_geom_bond_atom_site_label_2
_geom_bond_site_symmetry_1
_geom_bond_site_symmetry_2
Ag1 P1 1_555 1_555
P1 C1 1_555 1_555
N1 C4 1_555 1_555
N2 Ag1 1_555 1_555
N3 Ag1 1_555 1_555
C1 H1 1_555 1_555
H2 C1 1_555 1_555
C2 C1 1_555 1_555
C3 C2 1_555 1_555
H3 C3 1_555 1_555
C4 C3 1_555 1_555
H4 C4 1_555 1_555
C5 N1 1_555 1_555
H5 C5 1_555 1_555
C6 C2 1_555 1_555
H6 C6 1_555 1_555
C7 P1 1_555 1_555
C8 C7 1_555 1_555
H7 C8 1_555 1_555
C9 C8 1_555 1_555
H8 C9 1_555 1_555
C10 C9 1_555 1_555
H9 C10 1_555 1_555
C11 C10 1_555 1_555
H10 C11 1_555 1_555
C12 C7 1_555 1_555
H11 C12 1_555 1_555
C13 P1 1_555 1_555
C14 C13 1_555 1_555
H12 C14 1_555 1_555
C15 C14 1_555 1_555
H13 C15 1_555 1_555
C16 C15 1_555 1_555
H14 C16 1_555 1_555
C17 C16 1_555 1_555
H15 C17 1_555 1_555
C18 C13 1_555 1_555
H16 C18 1_555 1_555
C19 N2 1_555 1_555
C20 C19 1_555 1_555
H17 C20 1_555 1_555
H18 C20 1_555 1_555
H19 C20 1_555 1_555
C21 N3 1_555 1_555
C22 C21 1_555 1_555
H20 C22 1_555 1_555
H21 C22 1_555 1_555
H22 C22 1_555 1_555
B1 F1 1_555 1_555
F2 B1 1_555 1_555
F3 B1 1_555 1_555
F4 B1 1_555 1_555
N4 C23 1_555 1_555
C23 C24 1_555 1_555
C24 H23 1_555 1_555
H24 C24 1_555 1_555
H25 C24 1_555 1_555
Ag1A N1 1_555 1_555
N1A Ag1 1_555 1_555
C5 C6 1_555 1_555
C11 C12 1_555 1_555
C17 C18 1_555 1_555

#END
