
#######################################################################
#
#                 Cambridge Crystallographic Data Centre
#                                CCDC 
#
#######################################################################
#
# If this CIF has been generated from an entry in the Cambridge 
# Structural Database, then it will include bibliographic, chemical, 
# crystal, experimental, refinement or atomic coordinate data resulting 
# from the CCDC's data processing and validation procedures.
#
#######################################################################

data_DOSREJ
_symmetry_cell_setting           monoclinic
_symmetry_space_group_name_H-M   'P 21/c'
_symmetry_Int_Tables_number      14
_space_group_name_Hall           '-P 2ybc'
loop_
_symmetry_equiv_pos_site_id
_symmetry_equiv_pos_as_xyz
1 x,y,z
2 -x,1/2+y,1/2-z
3 -x,-y,-z
4 x,1/2-y,1/2+z
_cell_length_a                   7.7386(8)
_cell_length_b                   27.933(3)
_cell_length_c                   10.4527(9)
_cell_angle_alpha                90
_cell_angle_beta                 97.830(3)
_cell_angle_gamma                90
_cell_volume                     2238.41
loop_
_atom_site_label
_atom_site_type_symbol
_atom_site_fract_x
_atom_site_fract_y
_atom_site_fract_z
Ag1 Ag 0.13351(3) 0.541867(9) 0.51440(2)
P1 P 0.19925(11) 0.60134(3) 0.67600(8)
F1 F -0.0388(4) 0.65829(10) 0.1125(2)
F2 F -0.1570(5) 0.59214(10) 0.0735(3)
F3 F -0.2360(4) 0.63729(15) 0.2187(3)
O1 O -0.0089(3) 0.55589(9) 0.3035(2)
O2 O 0.1533(3) 0.62254(9) 0.3208(2)
N1 N 0.7572(3) 0.52931(9) 0.5397(3)
C1 C 0.3931(4) 0.63523(11) 0.6386(3)
H1 H 0.3592 0.6571 0.5649
H2 H 0.4420 0.6546 0.7142
C2 C 0.5278(4) 0.59979(11) 0.6050(3)
C3 C 0.5365(4) 0.58793(12) 0.4772(3)
H3 H 0.4629 0.6036 0.4099
C4 C 0.6518(4) 0.55356(12) 0.4482(3)
H4 H 0.6577 0.5465 0.3600
C5 C 0.7504(4) 0.54140(12) 0.6624(3)
H5 H 0.8250 0.5251 0.7280
C6 C 0.6411(4) 0.57631(11) 0.6993(3)
H6 H 0.6431 0.5842 0.7879
C7 C 0.2592(4) 0.58156(11) 0.8421(3)
C8 C 0.2235(5) 0.53462(12) 0.8741(3)
H7 H 0.1720 0.5132 0.8094
C9 C 0.2635(6) 0.51916(14) 1.0012(4)
H8 H 0.2375 0.4872 1.0235
C10 C 0.3402(5) 0.54988(15) 1.0947(4)
H9 H 0.3685 0.5390 1.1811
C11 C 0.3764(5) 0.59638(14) 1.0637(3)
H10 H 0.4284 0.6175 1.1290
C12 C 0.3374(4) 0.61238(13) 0.9384(3)
H11 H 0.3636 0.6444 0.9174
C13 C 0.0352(4) 0.64799(11) 0.6830(3)
C14 C -0.0307(5) 0.66041(13) 0.7957(3)
H12 H 0.0144 0.6457 0.8752
C15 C -0.1625(5) 0.69435(14) 0.7921(4)
H13 H -0.2076 0.7026 0.8693
C16 C -0.2283(5) 0.71607(13) 0.6777(4)
H14 H -0.3170 0.7396 0.6760
C17 C -0.1646(5) 0.70341(14) 0.5655(4)
H15 H -0.2108 0.7180 0.4861
C18 C -0.0340(5) 0.66959(13) 0.5680(3)
H16 H 0.0087 0.6611 0.4901
C19 C 0.0314(4) 0.59737(13) 0.2742(3)
C20 C -0.0996(5) 0.62067(15) 0.1684(4)
Ag1B Ag -0.13351(3) 0.458133(9) 0.48560(2)
Ag1B_2 Ag 0.86649(3) 0.458133(9) 0.48560(2)
N1B N 0.2428(3) 0.47069(9) 0.4603(3)
N2 N 0.4497(6) 0.76173(16) 0.4292(4)
C21 C 0.3656(6) 0.74696(15) 0.3404(5)
C22 C 0.2627(7) 0.72876(16) 0.2247(5)
H17 H 0.1523 0.7463 0.2089
H18 H 0.2390 0.6947 0.2358
H19 H 0.3272 0.7330 0.1511
loop_
_geom_bond_atom_site_label_1
_geom_bond_atom_site_label_2
_geom_bond_site_symmetry_1
_geom_bond_site_symmetry_2
Ag1 P1 1_555 1_555
P1 C1 1_555 1_555
F1 C20 1_555 1_555
F2 C20 1_555 1_555
F3 C20 1_555 1_555
O1 Ag1 1_555 1_555
O2 C19 1_555 1_555
N1 C4 1_555 1_555
N2 C21 1_555 1_555
C1 H1 1_555 1_555
H2 C1 1_555 1_555
C2 C1 1_555 1_555
C3 C2 1_555 1_555
H3 C3 1_555 1_555
C4 C3 1_555 1_555
H4 C4 1_555 1_555
C5 N1 1_555 1_555
H5 C5 1_555 1_555
C6 C2 1_555 1_555
H6 C6 1_555 1_555
C7 P1 1_555 1_555
C8 C7 1_555 1_555
H7 C8 1_555 1_555
C9 C8 1_555 1_555
H8 C9 1_555 1_555
C10 C9 1_555 1_555
H9 C10 1_555 1_555
C11 C10 1_555 1_555
H10 C11 1_555 1_555
C12 C7 1_555 1_555
H11 C12 1_555 1_555
C13 P1 1_555 1_555
C14 C13 1_555 1_555
H12 C14 1_555 1_555
C15 C14 1_555 1_555
H13 C15 1_555 1_555
C16 C15 1_555 1_555
H14 C16 1_555 1_555
C17 C16 1_555 1_555
H15 C17 1_555 1_555
C18 C13 1_555 1_555
H16 C18 1_555 1_555
C19 O1 1_555 1_555
C20 C19 1_555 1_555
C21 C22 1_555 1_555
C22 H17 1_555 1_555
H18 C22 1_555 1_555
H19 C22 1_555 1_555
Ag1B Ag1 1_555 1_555
Ag1B_2 N1 1_555 1_555
N1B Ag1 1_555 1_555
C5 C6 1_555 1_555
C11 C12 1_555 1_555
C17 C18 1_555 1_555

#END
