
#######################################################################
#
#                 Cambridge Crystallographic Data Centre
#                                CCDC 
#
#######################################################################
#
# If this CIF has been generated from an entry in the Cambridge 
# Structural Database, then it will include bibliographic, chemical, 
# crystal, experimental, refinement or atomic coordinate data resulting 
# from the CCDC's data processing and validation procedures.
#
#######################################################################

data_DOSRAF
_symmetry_cell_setting           triclinic
_symmetry_space_group_name_H-M   'P -1'
_symmetry_Int_Tables_number      2
_space_group_name_Hall           '-P 1'
loop_
_symmetry_equiv_pos_site_id
_symmetry_equiv_pos_as_xyz
1 x,y,z
2 -x,-y,-z
_cell_length_a                   8.7089(4)
_cell_length_b                   11.1276(5)
_cell_length_c                   11.2426(5)
_cell_angle_alpha                87.816(3)
_cell_angle_beta                 83.551(3)
_cell_angle_gamma                70.806(3)
_cell_volume                     1022.43
loop_
_atom_site_label
_atom_site_type_symbol
_atom_site_fract_x
_atom_site_fract_y
_atom_site_fract_z
Ag1 Ag 0.29090(3) 0.55634(2) 0.59563(2)
S1 S 0.58289(11) 0.32186(9) 0.70779(8)
P1 P 0.16742(11) 0.75852(8) 0.68437(8)
F1 F 0.8024(4) 0.3928(4) 0.8023(3)
F2 F 0.6703(5) 0.2995(5) 0.9230(3)
F3 F 0.5551(5) 0.4895(4) 0.8711(3)
O1 O 0.5769(3) 0.4219(2) 0.6205(2)
O2 O 0.7051(4) 0.2030(3) 0.6751(3)
O3 O 0.4259(3) 0.3180(3) 0.7572(3)
N1 N -0.2213(3) 0.6051(3) 0.4673(3)
C1 C 0.0148(5) 0.8555(3) 0.5879(3)
H1 H -0.0622 0.9294 0.6333
H2 H 0.0702 0.8878 0.5184
C2 C -0.0774(4) 0.7748(3) 0.5450(3)
C3 C -0.0407(5) 0.7268(4) 0.4298(3)
H3 H 0.0347 0.7515 0.3749
C4 C -0.1128(5) 0.6442(4) 0.3952(3)
H4 H -0.0850 0.6124 0.3157
C5 C -0.2604(4) 0.6535(4) 0.5767(3)
H5 H -0.3374 0.6280 0.6292
C6 C -0.1944(5) 0.7396(3) 0.6181(3)
H6 H -0.2293 0.7742 0.6963
C7 C 0.0425(4) 0.7637(4) 0.8267(3)
C8 C 0.0103(6) 0.6569(4) 0.8720(4)
H7 H 0.0619 0.5773 0.8328
C9 C -0.0974(6) 0.6648(5) 0.9749(4)
H8 H -0.1219 0.5910 1.0035
C10 C -0.1678(5) 0.7760(5) 1.0349(4)
H9 H -0.2384 0.7797 1.1065
C11 C -0.1366(5) 0.8821(5) 0.9917(4)
H10 H -0.1862 0.9603 1.0335
C12 C -0.0333(5) 0.8784(4) 0.8871(4)
H11 H -0.0145 0.9538 0.8571
C13 C 0.2938(4) 0.8544(3) 0.7126(3)
C14 C 0.3104(5) 0.9530(4) 0.6405(4)
H12 H 0.2536 0.9748 0.5713
C15 C 0.4096(6) 1.0209(4) 0.6682(5)
H13 H 0.4195 1.0893 0.6181
C16 C 0.4932(5) 0.9904(4) 0.7665(4)
H14 H 0.5602 1.0379 0.7853
C17 C 0.4802(5) 0.8909(4) 0.8381(4)
H15 H 0.5390 0.8688 0.9064
C18 C 0.3817(5) 0.8227(4) 0.8111(3)
H16 H 0.3741 0.7533 0.8606
C19 C 0.6590(7) 0.3779(6) 0.8332(4)
Ag1A Ag -0.29090(3) 0.44366(2) 0.40437(2)
N1A N 0.2213(3) 0.3949(3) 0.5327(3)
loop_
_geom_bond_atom_site_label_1
_geom_bond_atom_site_label_2
_geom_bond_site_symmetry_1
_geom_bond_site_symmetry_2
Ag1 P1 1_555 1_555
S1 O1 1_555 1_555
P1 C1 1_555 1_555
F1 C19 1_555 1_555
F2 C19 1_555 1_555
F3 C19 1_555 1_555
O1 Ag1 1_555 1_555
O2 S1 1_555 1_555
O3 S1 1_555 1_555
N1 C4 1_555 1_555
C1 H1 1_555 1_555
H2 C1 1_555 1_555
C2 C1 1_555 1_555
C3 C2 1_555 1_555
H3 C3 1_555 1_555
C4 C3 1_555 1_555
H4 C4 1_555 1_555
C5 N1 1_555 1_555
H5 C5 1_555 1_555
C6 C2 1_555 1_555
H6 C6 1_555 1_555
C7 P1 1_555 1_555
C8 C7 1_555 1_555
H7 C8 1_555 1_555
C9 C8 1_555 1_555
H8 C9 1_555 1_555
C10 C9 1_555 1_555
H9 C10 1_555 1_555
C11 C10 1_555 1_555
H10 C11 1_555 1_555
C12 C7 1_555 1_555
H11 C12 1_555 1_555
C13 P1 1_555 1_555
C14 C13 1_555 1_555
H12 C14 1_555 1_555
C15 C14 1_555 1_555
H13 C15 1_555 1_555
C16 C15 1_555 1_555
H14 C16 1_555 1_555
C17 C16 1_555 1_555
H15 C17 1_555 1_555
C18 C13 1_555 1_555
H16 C18 1_555 1_555
C19 S1 1_555 1_555
Ag1A N1 1_555 1_555
N1A Ag1 1_555 1_555
C5 C6 1_555 1_555
C11 C12 1_555 1_555
C17 C18 1_555 1_555

#END
