
#######################################################################
#
#                 Cambridge Crystallographic Data Centre
#                                CCDC 
#
#######################################################################
#
# If this CIF has been generated from an entry in the Cambridge 
# Structural Database, then it will include bibliographic, chemical, 
# crystal, experimental, refinement or atomic coordinate data resulting 
# from the CCDC's data processing and validation procedures.
#
#######################################################################

data_DOSSAG
_symmetry_cell_setting           monoclinic
_symmetry_space_group_name_H-M   'P 21/n'
_symmetry_Int_Tables_number      14
_space_group_name_Hall           '-P 2yn'
loop_
_symmetry_equiv_pos_site_id
_symmetry_equiv_pos_as_xyz
1 x,y,z
2 1/2-x,1/2+y,1/2-z
3 -x,-y,-z
4 1/2+x,1/2-y,1/2+z
_cell_length_a                   17.163(4)
_cell_length_b                   10.560(3)
_cell_length_c                   17.885(3)
_cell_angle_alpha                90
_cell_angle_beta                 112.344(9)
_cell_angle_gamma                90
_cell_volume                     2998.12
loop_
_atom_site_label
_atom_site_type_symbol
_atom_site_fract_x
_atom_site_fract_y
_atom_site_fract_z
Ag1 Ag 0.592359(16) 0.70096(3) 0.241327(15)
P1 P 0.54935(5) 0.86502(9) 0.30824(5)
N1 N 0.78363(17) 1.1419(3) 0.26753(17)
N2 N 0.54464(18) 0.4994(3) 0.27116(18)
N3 N 0.49253(19) 0.6134(3) 0.12170(17)
C1 C 0.5427(2) 1.0267(3) 0.26756(19)
H1 H 0.5001 1.0292 0.2116
H2 H 0.5247 1.0859 0.3008
C2 C 0.6268(2) 1.0677(3) 0.26777(18)
C3 C 0.6598(2) 1.0130(3) 0.2153(2)
H3 H 0.6290 0.9496 0.1781
C4 C 0.7376(2) 1.0515(3) 0.2177(2)
H4 H 0.7595 1.0119 0.1822
C5 C 0.7513(2) 1.1945(3) 0.3172(2)
H5 H 0.7826 1.2594 0.3527
C6 C 0.6745(2) 1.1598(3) 0.3199(2)
H6 H 0.6549 1.1990 0.3573
C7 C 0.6084(2) 0.8845(3) 0.41651(19)
C8 C 0.5889(2) 0.9802(4) 0.4603(2)
H7 H 0.5445 1.0377 0.4334
C9 C 0.6340(2) 0.9919(4) 0.5430(2)
H8 H 0.6211 1.0584 0.5722
C10 C 0.6972(2) 0.9073(4) 0.5824(2)
H9 H 0.7280 0.9155 0.6389
C11 C 0.7159(3) 0.8109(4) 0.5403(2)
H10 H 0.7588 0.7516 0.5681
C12 C 0.6725(2) 0.7997(4) 0.4574(2)
H11 H 0.6867 0.7340 0.4285
C13 C 0.4432(2) 0.8301(3) 0.30216(19)
C14 C 0.4334(2) 0.7213(3) 0.3416(2)
H12 H 0.4815 0.6740 0.3739
C15 C 0.3537(2) 0.6813(4) 0.3342(2)
H13 H 0.3475 0.6070 0.3614
C16 C 0.2840(2) 0.7490(4) 0.2875(2)
H14 H 0.2295 0.7215 0.2825
C17 C 0.2926(2) 0.8570(4) 0.2478(2)
H15 H 0.2440 0.9032 0.2153
C18 C 0.3723(2) 0.8988(4) 0.2551(2)
H16 H 0.3781 0.9735 0.2281
C19 C 0.4728(3) 0.6598(4) 0.0471(2)
H17 H 0.5035 0.7307 0.0403
C20 C 0.4092(3) 0.6093(5) -0.0218(2)
C21 C 0.3673(3) 0.5049(5) -0.0101(3)
H18 H 0.3244 0.4668 -0.0552
C22 C 0.3865(3) 0.4550(4) 0.0655(3)
H19 H 0.3572 0.3828 0.0730
C23 C 0.4493(2) 0.5113(4) 0.1310(2)
C24 C 0.4715(2) 0.4615(3) 0.2145(2)
C25 C 0.4180(3) 0.3799(4) 0.2344(3)
H20 H 0.3663 0.3531 0.1940
C26 C 0.4408(3) 0.3390(4) 0.3126(3)
H21 H 0.4044 0.2839 0.3261
C27 C 0.5151(2) 0.3762(4) 0.3714(2)
C28 C 0.5649(2) 0.4561(4) 0.3467(2)
H22 H 0.6174 0.4820 0.3863
C29 C 0.3897(4) 0.6688(6) -0.1041(3)
H23 H 0.3353 0.7127 -0.1213
H24 H 0.3871 0.6026 -0.1434
H25 H 0.4340 0.7296 -0.1008
C30 C 0.5417(3) 0.3358(4) 0.4582(3)
H26 H 0.4981 0.2816 0.4642
H27 H 0.5496 0.4109 0.4925
H28 H 0.5948 0.2888 0.4745
Ag1A Ag 0.907641(16) 1.20096(3) 0.258673(15)
N1A N 0.71637(17) 0.6419(3) 0.23247(17)
S1 S 0.29431(6) 0.08770(9) 0.04111(6)
O1 O 0.3432(2) 0.1478(4) 0.1190(2)
O2 O 0.2335(2) -0.0013(4) 0.0497(2)
O3 O 0.2663(3) 0.1692(4) -0.0255(2)
C31 C 0.3713(4) -0.0137(7) 0.0270(3)
F1 F 0.4307(4) 0.0541(7) 0.0166(5)
F2 F 0.3356(3) -0.0871(4) -0.0377(2)
F3 F 0.4086(3) -0.0914(4) 0.0886(2)
C32? C 0.3994(8) 0.0793(15) 0.0393(7)
F4? F 0.4511(6) 0.1596(10) 0.0940(6)
F5? F 0.4063(7) 0.1082(13) -0.0309(6)
F6? F 0.4337(8) -0.0341(12) 0.0610(8)
O4? O 0.2960(8) 0.0498(12) 0.1115(7)
O5? O 0.2512(8) -0.0006(11) -0.0323(7)
O6? O 0.2673(8) 0.2172(11) 0.0073(8)
S2? S 0.29431(6) 0.08770(9) 0.04111(6)
loop_
_geom_bond_atom_site_label_1
_geom_bond_atom_site_label_2
_geom_bond_site_symmetry_1
_geom_bond_site_symmetry_2
Ag1 P1 1_555 1_555
P1 C1 1_555 1_555
N1 C4 1_555 1_555
N2 Ag1 1_555 1_555
N3 Ag1 1_555 1_555
C1 H1 1_555 1_555
H2 C1 1_555 1_555
C2 C1 1_555 1_555
C3 C2 1_555 1_555
H3 C3 1_555 1_555
C4 C3 1_555 1_555
H4 C4 1_555 1_555
C5 N1 1_555 1_555
H5 C5 1_555 1_555
C6 C2 1_555 1_555
H6 C6 1_555 1_555
C7 P1 1_555 1_555
C8 C7 1_555 1_555
H7 C8 1_555 1_555
C9 C8 1_555 1_555
H8 C9 1_555 1_555
C10 C9 1_555 1_555
H9 C10 1_555 1_555
C11 C10 1_555 1_555
H10 C11 1_555 1_555
C12 C7 1_555 1_555
H11 C12 1_555 1_555
C13 P1 1_555 1_555
C14 C13 1_555 1_555
H12 C14 1_555 1_555
C15 C14 1_555 1_555
H13 C15 1_555 1_555
C16 C15 1_555 1_555
H14 C16 1_555 1_555
C17 C16 1_555 1_555
H15 C17 1_555 1_555
C18 C13 1_555 1_555
H16 C18 1_555 1_555
C19 N3 1_555 1_555
H17 C19 1_555 1_555
C20 C19 1_555 1_555
C21 C20 1_555 1_555
H18 C21 1_555 1_555
C22 C21 1_555 1_555
H19 C22 1_555 1_555
C23 N3 1_555 1_555
C24 N2 1_555 1_555
C25 C24 1_555 1_555
H20 C25 1_555 1_555
C26 C25 1_555 1_555
H21 C26 1_555 1_555
C27 C26 1_555 1_555
C28 N2 1_555 1_555
H22 C28 1_555 1_555
C29 C20 1_555 1_555
H23 C29 1_555 1_555
H24 C29 1_555 1_555
H25 C29 1_555 1_555
C30 C27 1_555 1_555
H26 C30 1_555 1_555
H27 C30 1_555 1_555
H28 C30 1_555 1_555
S1 O1 1_555 1_555
O2 S1 1_555 1_555
O3 S1 1_555 1_555
C31 S1 1_555 1_555
F1 C31 1_555 1_555
F2 C31 1_555 1_555
F3 C31 1_555 1_555
Ag1A N1 1_555 1_555
N1A Ag1 1_555 1_555
C5 C6 1_555 1_555
C11 C12 1_555 1_555
C17 C18 1_555 1_555
C22 C23 1_555 1_555
C23 C24 1_555 1_555
C27 C28 1_555 1_555

#END
