
#######################################################################
#
#                 Cambridge Crystallographic Data Centre
#                                CCDC 
#
#######################################################################
#
# If this CIF has been generated from an entry in the Cambridge 
# Structural Database, then it will include bibliographic, chemical, 
# crystal, experimental, refinement or atomic coordinate data resulting 
# from the CCDC's data processing and validation procedures.
#
#######################################################################

data_DOSSIO
_symmetry_cell_setting           triclinic
_symmetry_space_group_name_H-M   'P -1'
_symmetry_Int_Tables_number      2
_space_group_name_Hall           '-P 1'
loop_
_symmetry_equiv_pos_site_id
_symmetry_equiv_pos_as_xyz
1 x,y,z
2 -x,-y,-z
_cell_length_a                   11.4103(19)
_cell_length_b                   13.537(2)
_cell_length_c                   13.744(2)
_cell_angle_alpha                92.193(8)
_cell_angle_beta                 113.884(8)
_cell_angle_gamma                111.568(7)
_cell_volume                     1760.97
loop_
_atom_site_label
_atom_site_type_symbol
_atom_site_fract_x
_atom_site_fract_y
_atom_site_fract_z
Ag1 Ag 0.335706(14) 0.707943(11) 0.389695(11)
P1 P 0.34560(5) 0.75141(4) 0.22830(4)
N1 N 0.62242(17) 1.14636(13) 0.47955(13)
N2 N 0.16108(16) 0.56018(13) 0.40505(13)
N3 N 0.44601(16) 0.62283(13) 0.51941(12)
C1 C 0.51126(18) 0.86394(15) 0.24777(15)
H1 H 0.5887 0.8398 0.2745
H2 H 0.5005 0.8836 0.1769
C2 C 0.54845(18) 0.96181(15) 0.32791(14)
C3 C 0.4913(2) 1.03709(16) 0.29759(15)
H3 H 0.4253 1.0269 0.2241
C4 C 0.5306(2) 1.12682(16) 0.37465(15)
H4 H 0.4904 1.1772 0.3519
C5 C 0.6774(2) 1.07362(16) 0.50848(15)
H5 H 0.7435 1.0860 0.5824
C6 C 0.6430(2) 0.98161(16) 0.43656(15)
H6 H 0.6842 0.9323 0.4616
C7 C 0.21174(18) 0.79563(14) 0.14432(14)
C8 C 0.20241(19) 0.81937(16) 0.04377(15)
H7 H 0.2652 0.8113 0.0185
C9 C 0.1021(2) 0.85448(16) -0.01857(16)
H8 H 0.0963 0.8708 -0.0865
C10 C 0.0095(2) 0.86606(17) 0.01767(17)
H9 H -0.0589 0.8907 -0.0253
C11 C 0.0167(2) 0.84183(17) 0.11614(17)
H10 H -0.0471 0.8493 0.1406
C12 C 0.11777(19) 0.80644(15) 0.17935(15)
H11 H 0.1225 0.7896 0.2469
C13 C 0.31949(19) 0.64170(15) 0.13017(14)
C14 C 0.4166(2) 0.64680(16) 0.09149(16)
H12 H 0.5031 0.7098 0.1172
C15 C 0.3868(2) 0.55958(18) 0.01526(18)
H13 H 0.4526 0.5640 -0.0119
C16 C 0.2626(2) 0.46633(18) -0.02156(17)
H14 H 0.2433 0.4071 -0.0736
C17 C 0.1663(2) 0.45973(17) 0.01784(16)
H15 H 0.0813 0.3956 -0.0065
C18 C 0.19436(19) 0.54685(16) 0.09280(15)
H16 H 0.1278 0.5422 0.1192
C19 C 0.58607(19) 0.65690(15) 0.57716(15)
H17 H 0.6454 0.7104 0.5548
C20 C 0.64985(19) 0.61898(16) 0.66765(15)
C21 C 0.5603(2) 0.54181(16) 0.69896(16)
H18 H 0.5989 0.5146 0.7613
C22 C 0.4162(2) 0.50441(16) 0.64031(16)
H19 H 0.3550 0.4510 0.6614
C23 C 0.36102(19) 0.54593(15) 0.54944(15)
C24 C 0.20615(19) 0.50421(15) 0.48003(15)
C25 C 0.1112(2) 0.40955(16) 0.48916(16)
H20 H 0.1440 0.3720 0.5437
C26 C -0.0307(2) 0.37040(16) 0.41898(17)
H21 H -0.0960 0.3059 0.4251
C27 C -0.0781(2) 0.42529(17) 0.33936(16)
C28 C 0.0228(2) 0.52096(17) 0.33767(16)
H22 H -0.0083 0.5611 0.2854
C29 C 0.8077(2) 0.65960(18) 0.72934(17)
H23 H 0.8520 0.7053 0.6894
H24 H 0.8328 0.5974 0.7370
H25 H 0.8411 0.7025 0.8018
C30 C -0.2308(2) 0.38343(19) 0.25753(18)
H26 H -0.2470 0.3396 0.1912
H27 H -0.2549 0.4450 0.2396
H28 H -0.2902 0.3384 0.2884
Ag1A Ag 0.664294(14) 1.292057(11) 0.610305(11)
N1A N 0.37758(17) 0.85364(13) 0.52045(13)
B1 B 0.1709(2) 0.23440(19) 0.69243(19)
F1 F 0.21049(13) 0.17579(10) 0.77187(10)
F2 F 0.21959(17) 0.34136(11) 0.74117(12)
F3 F 0.22930(15) 0.22824(12) 0.62234(10)
F4 F 0.02658(14) 0.18968(15) 0.63346(14)
C31 C 0.9662(3) 0.0689(2) 0.3648(2)
H29 H 0.9238 -0.0026 0.3811
H30 H 1.0151 0.1252 0.4329
Cl1 Cl 1.09048(7) 0.06745(5) 0.31909(6)
Cl2 Cl 0.83140(7) 0.09606(5) 0.26558(5)
C32 C 0.3349(2) 0.1445(2) 0.01318(18)
H31 H 0.3096 0.1716 -0.0550
H32 H 0.2509 0.0798 0.0042
Cl3 Cl 0.47370(6) 0.10622(5) 0.03411(5)
Cl4 Cl 0.38021(6) 0.24606(5) 0.12197(5)
loop_
_geom_bond_atom_site_label_1
_geom_bond_atom_site_label_2
_geom_bond_site_symmetry_1
_geom_bond_site_symmetry_2
Ag1 P1 1_555 1_555
P1 C1 1_555 1_555
N1 C4 1_555 1_555
N2 Ag1 1_555 1_555
N3 Ag1 1_555 1_555
C1 H1 1_555 1_555
H2 C1 1_555 1_555
C2 C1 1_555 1_555
C3 C2 1_555 1_555
H3 C3 1_555 1_555
C4 C3 1_555 1_555
H4 C4 1_555 1_555
C5 N1 1_555 1_555
H5 C5 1_555 1_555
C6 C2 1_555 1_555
H6 C6 1_555 1_555
C7 P1 1_555 1_555
C8 C7 1_555 1_555
H7 C8 1_555 1_555
C9 C8 1_555 1_555
H8 C9 1_555 1_555
C10 C9 1_555 1_555
H9 C10 1_555 1_555
C11 C10 1_555 1_555
H10 C11 1_555 1_555
C12 C7 1_555 1_555
H11 C12 1_555 1_555
C13 P1 1_555 1_555
C14 C13 1_555 1_555
H12 C14 1_555 1_555
C15 C14 1_555 1_555
H13 C15 1_555 1_555
C16 C15 1_555 1_555
H14 C16 1_555 1_555
C17 C16 1_555 1_555
H15 C17 1_555 1_555
C18 C13 1_555 1_555
H16 C18 1_555 1_555
C19 N3 1_555 1_555
H17 C19 1_555 1_555
C20 C19 1_555 1_555
C21 C20 1_555 1_555
H18 C21 1_555 1_555
C22 C21 1_555 1_555
H19 C22 1_555 1_555
C23 N3 1_555 1_555
C24 N2 1_555 1_555
C25 C24 1_555 1_555
H20 C25 1_555 1_555
C26 C25 1_555 1_555
H21 C26 1_555 1_555
C27 C26 1_555 1_555
C28 N2 1_555 1_555
H22 C28 1_555 1_555
C29 C20 1_555 1_555
H23 C29 1_555 1_555
H24 C29 1_555 1_555
H25 C29 1_555 1_555
C30 C27 1_555 1_555
H26 C30 1_555 1_555
H27 C30 1_555 1_555
H28 C30 1_555 1_555
B1 F1 1_555 1_555
F2 B1 1_555 1_555
F3 B1 1_555 1_555
F4 B1 1_555 1_555
C31 H29 1_555 1_555
H30 C31 1_555 1_555
Cl1 C31 1_555 1_555
Cl2 C31 1_555 1_555
C32 H31 1_555 1_555
H32 C32 1_555 1_555
Cl3 C32 1_555 1_555
Cl4 C32 1_555 1_555
Ag1A N1 1_555 1_555
N1A Ag1 1_555 1_555
C5 C6 1_555 1_555
C11 C12 1_555 1_555
C17 C18 1_555 1_555
C22 C23 1_555 1_555
C23 C24 1_555 1_555
C27 C28 1_555 1_555

#END
