
#######################################################################
#
#                 Cambridge Crystallographic Data Centre
#                                CCDC 
#
#######################################################################
#
# If this CIF has been generated from an entry in the Cambridge 
# Structural Database, then it will include bibliographic, chemical, 
# crystal, experimental, refinement or atomic coordinate data resulting 
# from the CCDC's data processing and validation procedures.
#
#######################################################################

data_DOSSEK
_symmetry_cell_setting           triclinic
_symmetry_space_group_name_H-M   'P -1'
_symmetry_Int_Tables_number      2
_space_group_name_Hall           '-P 1'
loop_
_symmetry_equiv_pos_site_id
_symmetry_equiv_pos_as_xyz
1 x,y,z
2 -x,-y,-z
_cell_length_a                   10.7913(7)
_cell_length_b                   15.3140(9)
_cell_length_c                   24.5005(15)
_cell_angle_alpha                74.212(2)
_cell_angle_beta                 89.7100(10)
_cell_angle_gamma                75.7750(10)
_cell_volume                     3768.4
loop_
_atom_site_label
_atom_site_type_symbol
_atom_site_fract_x
_atom_site_fract_y
_atom_site_fract_z
Ag1 Ag 0.62766(2) -0.069608(16) 0.325108(10)
Ag2 Ag 0.39047(2) 0.376827(16) 0.351479(10)
Ag3 Ag 1.40060(2) -0.282165(16) 0.019014(10)
S1 S 0.87526(10) -0.14733(6) 0.42572(4)
S2 S 0.15854(9) 0.45902(6) 0.23530(4)
S3 S 1.17523(8) -0.19038(5) -0.10056(4)
P1 P 0.44788(9) -0.11724(6) 0.36635(4)
P2 P 0.55676(8) 0.43188(5) 0.30213(3)
P3 P 1.57148(8) -0.22883(5) -0.02771(3)
F1 F 0.8233(2) 0.00970(15) 0.45510(11)
F2 F 0.9552(2) -0.10501(18) 0.51347(10)
F3 F 1.0178(2) -0.03564(18) 0.43379(12)
F4 F 0.1945(2) 0.30605(14) 0.20167(10)
F5 F 0.0593(2) 0.42541(15) 0.14796(9)
F6 F 0.0060(2) 0.35232(15) 0.22873(9)
F7 F 0.9970(2) -0.26935(16) -0.11948(9)
F8 F 1.0576(2) -0.18584(15) -0.19541(8)
F9 F 1.17893(19) -0.32130(13) -0.15106(8)
O1 O 0.8432(2) -0.09199(16) 0.36730(10)
O2 O 0.9911(3) -0.22255(17) 0.43410(11)
O3 O 0.7674(3) -0.16959(17) 0.45595(11)
O4 O 0.1963(2) 0.39853(16) 0.29239(10)
O5 O 0.2625(3) 0.48197(16) 0.20274(10)
O6 O 0.0465(3) 0.53468(16) 0.23124(11)
O7 O 1.2173(2) -0.26680(14) -0.04930(9)
O8 O 1.2779(2) -0.16451(15) -0.13407(10)
O9 O 1.0747(2) -0.11367(15) -0.09335(10)
N1 N 0.3880(3) 0.21888(18) 0.38840(11)
N2 N 0.6244(3) 0.08949(17) 0.28872(11)
N3 N 0.7495(3) -0.12176(18) 0.25637(11)
N4 N 1.2381(3) -0.24222(17) 0.07503(11)
N5 N 1.5950(3) -0.55781(17) -0.05473(11)
N6 N 0.2458(3) 0.43024(18) 0.41192(11)
C1 C 0.3867(3) -0.0727(2) 0.42710(13)
H1 H 0.2989 -0.0804 0.4336
H2 H 0.4419 -0.1095 0.4619
C2 C 0.3852(3) 0.0290(2) 0.41526(13)
C3 C 0.4956(3) 0.0555(2) 0.42384(13)
H3 H 0.5724 0.0091 0.4392
C4 C 0.4946(3) 0.1498(2) 0.41003(13)
H4 H 0.5716 0.1664 0.4160
C5 C 0.2815(3) 0.1927(2) 0.38074(15)
H5 H 0.2055 0.2404 0.3658
C6 C 0.2757(3) 0.1003(2) 0.39326(15)
H6 H 0.1974 0.0856 0.3869
C7 C 0.4640(3) -0.2434(2) 0.39367(13)
C8 C 0.5801(3) -0.3040(2) 0.38864(14)
H7 H 0.6484 -0.2789 0.3724
C9 C 0.5976(4) -0.4008(2) 0.40704(14)
H8 H 0.6770 -0.4414 0.4029
C10 C 0.5000(4) -0.4374(2) 0.43118(15)
H9 H 0.5117 -0.5035 0.4436
C11 C 0.3850(4) -0.3789(2) 0.43757(16)
H10 H 0.3182 -0.4048 0.4549
C12 C 0.3662(4) -0.2822(2) 0.41882(15)
H11 H 0.2864 -0.2422 0.4231
C13 C 0.3147(3) -0.0741(2) 0.31251(14)
C14 C 0.1895(3) -0.0810(2) 0.32245(16)
H12 H 0.1682 -0.1063 0.3601
C15 C 0.0957(4) -0.0516(3) 0.27828(18)
H13 H 0.0112 -0.0575 0.2857
C16 C 0.1256(4) -0.0135(3) 0.22307(18)
H14 H 0.0617 0.0062 0.1927
C17 C 0.2471(4) -0.0044(2) 0.21254(16)
H15 H 0.2671 0.0224 0.1749
C18 C 0.3412(3) -0.0341(2) 0.25676(14)
H16 H 0.4251 -0.0271 0.2489
C19 C 0.6034(3) 0.3858(2) 0.24055(13)
H17 H 0.5390 0.4189 0.2082
H18 H 0.6872 0.3971 0.2286
C20 C 0.6125(3) 0.2819(2) 0.25636(13)
C21 C 0.7248(3) 0.2155(2) 0.28107(14)
H19 H 0.7996 0.2346 0.2874
C22 C 0.7260(3) 0.1216(2) 0.29625(14)
H20 H 0.8035 0.0772 0.3130
C23 C 0.5162(3) 0.1544(2) 0.26455(14)
H21 H 0.4426 0.1338 0.2585
C24 C 0.5076(3) 0.2494(2) 0.24820(14)
H22 H 0.4293 0.2925 0.2313
C25 C 0.5284(3) 0.5582(2) 0.27059(13)
C26 C 0.4204(3) 0.6165(2) 0.28545(13)
H23 H 0.3643 0.5897 0.3109
C27 C 0.3943(3) 0.7129(2) 0.26344(14)
H24 H 0.3208 0.7521 0.2739
C28 C 0.4752(4) 0.7520(2) 0.22630(14)
H25 H 0.4578 0.8182 0.2113
C29 C 0.5812(4) 0.6951(2) 0.21088(15)
H26 H 0.6364 0.7224 0.1851
C30 C 0.6080(3) 0.5992(2) 0.23236(14)
H27 H 0.6810 0.5607 0.2211
C31 C 0.7049(3) 0.3949(2) 0.34733(14)
C32 C 0.8200(3) 0.4130(2) 0.32858(16)
H28 H 0.8236 0.4483 0.2904
C33 C 0.9294(4) 0.3804(3) 0.36475(17)
H29 H 1.0074 0.3935 0.3512
C34 C 0.9263(4) 0.3290(3) 0.42039(17)
H30 H 1.0016 0.3066 0.4452
C35 C 0.8128(4) 0.3106(3) 0.43940(15)
H31 H 0.8104 0.2750 0.4776
C36 C 0.7023(3) 0.3428(2) 0.40398(14)
H32 H 0.6245 0.3297 0.4179
C37 C 0.7774(3) -0.0576(2) 0.21183(13)
H33 H 0.7327 0.0063 0.2060
C38 C 0.8670(3) -0.0791(2) 0.17423(14)
H34 H 0.8817 -0.0310 0.1429
C39 C 0.9364(3) -0.1722(2) 0.18247(14)
C40 C 0.9065(3) -0.2392(2) 0.22781(14)
H35 H 0.9496 -0.3036 0.2346
C41 C 0.8138(3) -0.2114(2) 0.26281(15)
H36 H 0.7941 -0.2584 0.2933
C42 C 1.1342(3) -0.1698(2) 0.05560(14)
H37 H 1.1288 -0.1341 0.0169
C43 C 1.0361(3) -0.1448(2) 0.08844(14)
H38 H 0.9660 -0.0923 0.0726
C44 C 1.0391(3) -0.1964(2) 0.14503(14)
C45 C 1.1453(3) -0.2722(2) 0.16505(14)
H39 H 1.1515 -0.3102 0.2032
C46 C 1.2414(3) -0.2923(2) 0.12959(13)
H40 H 1.3132 -0.3440 0.1444
C47 C 1.6008(3) -0.2665(2) -0.09336(13)
H41 H 1.6844 -0.2574 -0.1071
H42 H 1.5332 -0.2276 -0.1233
C48 C 1.6009(3) -0.3685(2) -0.08187(12)
C49 C 1.7097(3) -0.4409(2) -0.05897(14)
H43 H 1.7884 -0.4272 -0.0521
C50 C 1.7013(3) -0.5325(2) -0.04644(14)
H44 H 1.7763 -0.5807 -0.0309
C51 C 1.4903(3) -0.4876(2) -0.07716(13)
H45 H 1.4130 -0.5034 -0.0838
C52 C 1.4905(3) -0.3941(2) -0.09092(13)
H46 H 1.4143 -0.3472 -0.1067
C53 C 1.7226(3) -0.2810(2) 0.01480(13)
C54 C 1.8393(3) -0.2716(2) -0.00789(15)
H47 H 1.8400 -0.2372 -0.0465
C55 C 1.9536(3) -0.3112(2) 0.02465(15)
H48 H 2.0321 -0.3044 0.0085
C56 C 1.9532(3) -0.3610(2) 0.08124(15)
H49 H 2.0316 -0.3884 0.1039
C57 C 1.8380(3) -0.3710(2) 0.10488(14)
H50 H 1.8376 -0.4051 0.1435
C58 C 1.7239(3) -0.3307(2) 0.07159(13)
H51 H 1.6454 -0.3372 0.0878
C59 C 1.5676(3) -0.1041(2) -0.05231(13)
C60 C 1.6466(3) -0.0652(2) -0.02657(14)
H52 H 1.7078 -0.1044 0.0033
C61 C 1.6363(3) 0.0308(2) -0.04428(15)
H53 H 1.6905 0.0569 -0.0266
C62 C 1.5468(3) 0.0885(2) -0.08786(14)
H54 H 1.5403 0.1540 -0.1003
C63 C 1.4684(4) 0.0506(2) -0.11274(15)
H55 H 1.4071 0.0903 -0.1424
C64 C 1.4766(3) -0.0450(2) -0.09542(14)
H56 H 1.4205 -0.0701 -0.1128
C65 C 0.1570(4) 0.5114(2) 0.39461(17)
H57 H 0.1595 0.5504 0.3573
C66 C 0.0621(4) 0.5416(3) 0.42774(17)
H58 H 0.0025 0.6009 0.4134
C67 C 0.0528(3) 0.4866(2) 0.48161(14)
C68 C 0.1452(3) 0.4020(2) 0.49941(14)
H59 H 0.1439 0.3611 0.5362
C69 C 0.2389(3) 0.3771(2) 0.46402(14)
H60 H 0.3015 0.3191 0.4776
C70 C 0.9198(4) -0.0651(3) 0.45847(18)
C71 C 0.1020(3) 0.3821(2) 0.20182(16)
C72 C 1.0981(3) -0.2444(2) -0.14385(14)
N6A N -0.2458(3) 0.56976(18) 0.58808(11)
C65A C -0.1570(4) 0.4886(2) 0.60539(17)
H57A H -0.1595 0.4496 0.6427
C66A C -0.0621(4) 0.4584(3) 0.57226(17)
H58A H -0.0025 0.3991 0.5866
C67A C -0.0528(3) 0.5134(2) 0.51839(14)
C68A C -0.1452(3) 0.5980(2) 0.50059(14)
H59A H -0.1439 0.6389 0.4638
C69A C -0.2389(3) 0.6229(2) 0.53598(14)
H60A H -0.3015 0.6809 0.5224
Ag1A Ag -0.62766(2) 1.069608(16) 0.674892(10)
Ag2A Ag -0.39047(2) 0.623173(16) 0.648521(10)
Ag3A Ag -1.40060(2) 1.282165(16) 0.980986(10)
S1A S -0.87526(10) 1.14733(6) 0.57428(4)
S2A S -0.15854(9) 0.54098(6) 0.76470(4)
S3A S -1.17523(8) 1.19038(5) 1.10056(4)
P1A P -0.44788(9) 1.11724(6) 0.63365(4)
P2A P -0.55676(8) 0.56812(5) 0.69787(3)
P3A P -1.57148(8) 1.22883(5) 1.02771(3)
F1A F -0.8233(2) 0.99030(15) 0.54490(11)
F2A F -0.9552(2) 1.10501(18) 0.48653(10)
F3A F -1.0178(2) 1.03564(18) 0.56621(12)
F4A F -0.1945(2) 0.69395(14) 0.79833(10)
F5A F -0.0593(2) 0.57459(15) 0.85204(9)
F6A F -0.0060(2) 0.64768(15) 0.77127(9)
F7A F -0.9970(2) 1.26935(16) 1.11948(9)
F8A F -1.0576(2) 1.18584(15) 1.19541(8)
F9A F -1.17893(19) 1.32130(13) 1.15106(8)
O1A O -0.8432(2) 1.09199(16) 0.63270(10)
O2A O -0.9911(3) 1.22255(17) 0.56590(11)
O3A O -0.7674(3) 1.16959(17) 0.54405(11)
O4A O -0.1963(2) 0.60147(16) 0.70761(10)
O5A O -0.2625(3) 0.51803(16) 0.79726(10)
O6A O -0.0465(3) 0.46532(16) 0.76876(11)
O7A O -1.2173(2) 1.26680(14) 1.04930(9)
O8A O -1.2779(2) 1.16451(15) 1.13407(10)
O9A O -1.0747(2) 1.11367(15) 1.09335(10)
N1A N -0.3880(3) 0.78112(18) 0.61160(11)
N2A N -0.6244(3) 0.91051(17) 0.71128(11)
N3A N -0.7495(3) 1.12176(18) 0.74363(11)
N4A N -1.2381(3) 1.24222(17) 0.92497(11)
N5A N -1.5950(3) 1.55781(17) 1.05473(11)
C1A C -0.3867(3) 1.0727(2) 0.57290(13)
H1A H -0.2989 1.0804 0.5664
H2A H -0.4419 1.1095 0.5381
C2A C -0.3852(3) 0.9710(2) 0.58474(13)
C3A C -0.4956(3) 0.9445(2) 0.57616(13)
H3A H -0.5724 0.9909 0.5608
C4A C -0.4946(3) 0.8502(2) 0.58997(13)
H4A H -0.5716 0.8336 0.5840
C5A C -0.2815(3) 0.8073(2) 0.61926(15)
H5A H -0.2055 0.7596 0.6342
C6A C -0.2757(3) 0.8997(2) 0.60674(15)
H6A H -0.1974 0.9144 0.6131
C7A C -0.4640(3) 1.2434(2) 0.60633(13)
C8A C -0.5801(3) 1.3040(2) 0.61136(14)
H7A H -0.6484 1.2789 0.6276
C9A C -0.5976(4) 1.4008(2) 0.59296(14)
H8A H -0.6770 1.4414 0.5971
C10A C -0.5000(4) 1.4374(2) 0.56882(15)
H9A H -0.5117 1.5035 0.5564
C11A C -0.3850(4) 1.3789(2) 0.56243(16)
H10A H -0.3182 1.4048 0.5451
C12A C -0.3662(4) 1.2822(2) 0.58118(15)
H11A H -0.2864 1.2422 0.5769
C13A C -0.3147(3) 1.0741(2) 0.68749(14)
C14A C -0.1895(3) 1.0810(2) 0.67755(16)
H12A H -0.1682 1.1063 0.6399
C15A C -0.0957(4) 1.0516(3) 0.72172(18)
H13A H -0.0112 1.0575 0.7143
C16A C -0.1256(4) 1.0135(3) 0.77693(18)
H14A H -0.0617 0.9938 0.8073
C17A C -0.2471(4) 1.0044(2) 0.78746(16)
H15A H -0.2671 0.9776 0.8251
C18A C -0.3412(3) 1.0341(2) 0.74324(14)
H16A H -0.4251 1.0271 0.7511
C19A C -0.6034(3) 0.6142(2) 0.75945(13)
H17A H -0.5390 0.5811 0.7918
H18A H -0.6872 0.6029 0.7714
C20A C -0.6125(3) 0.7181(2) 0.74364(13)
C21A C -0.7248(3) 0.7845(2) 0.71893(14)
H19A H -0.7996 0.7654 0.7126
C22A C -0.7260(3) 0.8784(2) 0.70375(14)
H20A H -0.8035 0.9228 0.6870
C23A C -0.5162(3) 0.8456(2) 0.73545(14)
H21A H -0.4426 0.8662 0.7415
C24A C -0.5076(3) 0.7506(2) 0.75180(14)
H22A H -0.4293 0.7075 0.7687
C25A C -0.5284(3) 0.4418(2) 0.72941(13)
C26A C -0.4204(3) 0.3835(2) 0.71455(13)
H23A H -0.3643 0.4103 0.6891
C27A C -0.3943(3) 0.2871(2) 0.73656(14)
H24A H -0.3208 0.2479 0.7261
C28A C -0.4752(4) 0.2480(2) 0.77370(14)
H25A H -0.4578 0.1818 0.7887
C29A C -0.5812(4) 0.3049(2) 0.78912(15)
H26A H -0.6364 0.2776 0.8149
C30A C -0.6080(3) 0.4008(2) 0.76764(14)
H27A H -0.6810 0.4393 0.7789
C31A C -0.7049(3) 0.6051(2) 0.65267(14)
C32A C -0.8200(3) 0.5870(2) 0.67142(16)
H28A H -0.8236 0.5517 0.7096
C33A C -0.9294(4) 0.6196(3) 0.63525(17)
H29A H -1.0074 0.6065 0.6488
C34A C -0.9263(4) 0.6710(3) 0.57961(17)
H30A H -1.0016 0.6934 0.5548
C35A C -0.8128(4) 0.6894(3) 0.56060(15)
H31A H -0.8104 0.7250 0.5224
C36A C -0.7023(3) 0.6572(2) 0.59602(14)
H32A H -0.6245 0.6703 0.5821
C37A C -0.7774(3) 1.0576(2) 0.78817(13)
H33A H -0.7327 0.9937 0.7940
C38A C -0.8670(3) 1.0791(2) 0.82577(14)
H34A H -0.8817 1.0310 0.8571
C39A C -0.9364(3) 1.1722(2) 0.81753(14)
C40A C -0.9065(3) 1.2392(2) 0.77219(14)
H35A H -0.9496 1.3036 0.7654
C41A C -0.8138(3) 1.2114(2) 0.73719(15)
H36A H -0.7941 1.2584 0.7067
C42A C -1.1342(3) 1.1698(2) 0.94440(14)
H37A H -1.1288 1.1341 0.9831
C43A C -1.0361(3) 1.1448(2) 0.91156(14)
H38A H -0.9660 1.0923 0.9274
C44A C -1.0391(3) 1.1964(2) 0.85497(14)
C45A C -1.1453(3) 1.2722(2) 0.83495(14)
H39A H -1.1515 1.3102 0.7968
C46A C -1.2414(3) 1.2923(2) 0.87041(13)
H40A H -1.3132 1.3440 0.8556
C47A C -1.6008(3) 1.2665(2) 1.09336(13)
H41A H -1.6844 1.2574 1.1071
H42A H -1.5332 1.2276 1.1233
C48A C -1.6009(3) 1.3685(2) 1.08187(12)
C49A C -1.7097(3) 1.4409(2) 1.05897(14)
H43A H -1.7884 1.4272 1.0521
C50A C -1.7013(3) 1.5325(2) 1.04644(14)
H44A H -1.7763 1.5807 1.0309
C51A C -1.4903(3) 1.4876(2) 1.07716(13)
H45A H -1.4130 1.5034 1.0838
C52A C -1.4905(3) 1.3941(2) 1.09092(13)
H46A H -1.4143 1.3472 1.1067
C53A C -1.7226(3) 1.2810(2) 0.98520(13)
C54A C -1.8393(3) 1.2716(2) 1.00789(15)
H47A H -1.8400 1.2372 1.0465
C55A C -1.9536(3) 1.3112(2) 0.97535(15)
H48A H -2.0321 1.3044 0.9915
C56A C -1.9532(3) 1.3610(2) 0.91876(15)
H49A H -2.0316 1.3884 0.8961
C57A C -1.8380(3) 1.3710(2) 0.89512(14)
H50A H -1.8376 1.4051 0.8565
C58A C -1.7239(3) 1.3307(2) 0.92841(13)
H51A H -1.6454 1.3372 0.9122
C59A C -1.5676(3) 1.1041(2) 1.05231(13)
C60A C -1.6466(3) 1.0652(2) 1.02657(14)
H52A H -1.7078 1.1044 0.9967
C61A C -1.6363(3) 0.9692(2) 1.04428(15)
H53A H -1.6905 0.9431 1.0266
C62A C -1.5468(3) 0.9115(2) 1.08786(14)
H54A H -1.5403 0.8460 1.1003
C63A C -1.4684(4) 0.9494(2) 1.11274(15)
H55A H -1.4071 0.9097 1.1424
C64A C -1.4766(3) 1.0450(2) 1.09542(14)
H56A H -1.4205 1.0701 1.1128
C70A C -0.9198(4) 1.0651(3) 0.54153(18)
C71A C -0.1020(3) 0.6179(2) 0.79818(16)
C72A C -1.0981(3) 1.2444(2) 1.14385(14)
Ag3_2 Ag -1.59940(2) 1.717835(16) 1.019014(10)
Ag3A_2 Ag 1.59940(2) -0.717835(16) -0.019014(10)
N5_2 N -1.4050(3) 1.44219(17) 0.94527(11)
N5A_2 N 1.4050(3) -0.44219(17) 0.05473(11)
loop_
_geom_bond_atom_site_label_1
_geom_bond_atom_site_label_2
_geom_bond_site_symmetry_1
_geom_bond_site_symmetry_2
Ag1 P1 1_555 1_555
Ag2 P2 1_555 1_555
Ag3 P3 1_555 1_555
S1 O1 1_555 1_555
S2 O4 1_555 1_555
S3 O7 1_555 1_555
P1 C1 1_555 1_555
P2 C19 1_555 1_555
P3 C47 1_555 1_555
F1 C70 1_555 1_555
F2 C70 1_555 1_555
F3 C70 1_555 1_555
F4 C71 1_555 1_555
F5 C71 1_555 1_555
F6 C71 1_555 1_555
F7 C72 1_555 1_555
F8 C72 1_555 1_555
F9 C72 1_555 1_555
O1 Ag1 1_555 1_555
O2 S1 1_555 1_555
O3 S1 1_555 1_555
O4 Ag2 1_555 1_555
O5 S2 1_555 1_555
O6 S2 1_555 1_555
O7 Ag3 1_555 1_555
O8 S3 1_555 1_555
O9 S3 1_555 1_555
N1 Ag2 1_555 1_555
N2 Ag1 1_555 1_555
N3 Ag1 1_555 1_555
N4 Ag3 1_555 1_555
N5 C50 1_555 1_555
N6 Ag2 1_555 1_555
C1 H1 1_555 1_555
H2 C1 1_555 1_555
C2 C1 1_555 1_555
C3 C2 1_555 1_555
H3 C3 1_555 1_555
C4 N1 1_555 1_555
H4 C4 1_555 1_555
C5 N1 1_555 1_555
H5 C5 1_555 1_555
C6 C2 1_555 1_555
H6 C6 1_555 1_555
C7 P1 1_555 1_555
C8 C7 1_555 1_555
H7 C8 1_555 1_555
C9 C8 1_555 1_555
H8 C9 1_555 1_555
C10 C9 1_555 1_555
H9 C10 1_555 1_555
C11 C10 1_555 1_555
H10 C11 1_555 1_555
C12 C7 1_555 1_555
H11 C12 1_555 1_555
C13 P1 1_555 1_555
C14 C13 1_555 1_555
H12 C14 1_555 1_555
C15 C14 1_555 1_555
H13 C15 1_555 1_555
C16 C15 1_555 1_555
H14 C16 1_555 1_555
C17 C16 1_555 1_555
H15 C17 1_555 1_555
C18 C13 1_555 1_555
H16 C18 1_555 1_555
C19 H17 1_555 1_555
H18 C19 1_555 1_555
C20 C19 1_555 1_555
C21 C20 1_555 1_555
H19 C21 1_555 1_555
C22 N2 1_555 1_555
H20 C22 1_555 1_555
C23 N2 1_555 1_555
H21 C23 1_555 1_555
C24 C20 1_555 1_555
H22 C24 1_555 1_555
C25 P2 1_555 1_555
C26 C25 1_555 1_555
H23 C26 1_555 1_555
C27 C26 1_555 1_555
H24 C27 1_555 1_555
C28 C27 1_555 1_555
H25 C28 1_555 1_555
C29 C28 1_555 1_555
H26 C29 1_555 1_555
C30 C25 1_555 1_555
H27 C30 1_555 1_555
C31 P2 1_555 1_555
C32 C31 1_555 1_555
H28 C32 1_555 1_555
C33 C32 1_555 1_555
H29 C33 1_555 1_555
C34 C33 1_555 1_555
H30 C34 1_555 1_555
C35 C34 1_555 1_555
H31 C35 1_555 1_555
C36 C31 1_555 1_555
H32 C36 1_555 1_555
C37 N3 1_555 1_555
H33 C37 1_555 1_555
C38 C37 1_555 1_555
H34 C38 1_555 1_555
C39 C38 1_555 1_555
C40 C39 1_555 1_555
H35 C40 1_555 1_555
C41 N3 1_555 1_555
H36 C41 1_555 1_555
C42 N4 1_555 1_555
H37 C42 1_555 1_555
C43 C42 1_555 1_555
H38 C43 1_555 1_555
C44 C39 1_555 1_555
C45 C44 1_555 1_555
H39 C45 1_555 1_555
C46 N4 1_555 1_555
H40 C46 1_555 1_555
C47 H41 1_555 1_555
H42 C47 1_555 1_555
C48 C47 1_555 1_555
C49 C48 1_555 1_555
H43 C49 1_555 1_555
C50 C49 1_555 1_555
H44 C50 1_555 1_555
C51 N5 1_555 1_555
H45 C51 1_555 1_555
C52 C48 1_555 1_555
H46 C52 1_555 1_555
C53 P3 1_555 1_555
C54 C53 1_555 1_555
H47 C54 1_555 1_555
C55 C54 1_555 1_555
H48 C55 1_555 1_555
C56 C55 1_555 1_555
H49 C56 1_555 1_555
C57 C56 1_555 1_555
H50 C57 1_555 1_555
C58 C53 1_555 1_555
H51 C58 1_555 1_555
C59 P3 1_555 1_555
C60 C59 1_555 1_555
H52 C60 1_555 1_555
C61 C60 1_555 1_555
H53 C61 1_555 1_555
C62 C61 1_555 1_555
H54 C62 1_555 1_555
C63 C62 1_555 1_555
H55 C63 1_555 1_555
C64 C59 1_555 1_555
H56 C64 1_555 1_555
C65 N6 1_555 1_555
H57 C65 1_555 1_555
C66 C65 1_555 1_555
H58 C66 1_555 1_555
C67 C66 1_555 1_555
C68 C67 1_555 1_555
H59 C68 1_555 1_555
C69 N6 1_555 1_555
H60 C69 1_555 1_555
C70 S1 1_555 1_555
C71 S2 1_555 1_555
C72 S3 1_555 1_555
N6A C65A 1_555 1_555
C65A H57A 1_555 1_555
C66A C65A 1_555 1_555
H58A C66A 1_555 1_555
C67A C67 1_555 1_555
C68A C67A 1_555 1_555
H59A C68A 1_555 1_555
C69A N6A 1_555 1_555
H60A C69A 1_555 1_555
Ag1A P1A 1_555 1_555
Ag2A N6A 1_555 1_555
Ag3A P3A 1_555 1_555
S1A O1A 1_555 1_555
S2A O4A 1_555 1_555
S3A O7A 1_555 1_555
P1A C1A 1_555 1_555
P2A Ag2A 1_555 1_555
P3A C47A 1_555 1_555
F1A C70A 1_555 1_555
F2A C70A 1_555 1_555
F3A C70A 1_555 1_555
F4A C71A 1_555 1_555
F5A C71A 1_555 1_555
F6A C71A 1_555 1_555
F7A C72A 1_555 1_555
F8A C72A 1_555 1_555
F9A C72A 1_555 1_555
O1A Ag1A 1_555 1_555
O2A S1A 1_555 1_555
O3A S1A 1_555 1_555
O4A Ag2A 1_555 1_555
O5A S2A 1_555 1_555
O6A S2A 1_555 1_555
O7A Ag3A 1_555 1_555
O8A S3A 1_555 1_555
O9A S3A 1_555 1_555
N1A Ag2A 1_555 1_555
N2A Ag1A 1_555 1_555
N3A Ag1A 1_555 1_555
N4A Ag3A 1_555 1_555
N5A C50A 1_555 1_555
C1A H1A 1_555 1_555
H2A C1A 1_555 1_555
C2A C1A 1_555 1_555
C3A C2A 1_555 1_555
H3A C3A 1_555 1_555
C4A N1A 1_555 1_555
H4A C4A 1_555 1_555
C5A N1A 1_555 1_555
H5A C5A 1_555 1_555
C6A C2A 1_555 1_555
H6A C6A 1_555 1_555
C7A P1A 1_555 1_555
C8A C7A 1_555 1_555
H7A C8A 1_555 1_555
C9A C8A 1_555 1_555
H8A C9A 1_555 1_555
C10A C9A 1_555 1_555
H9A C10A 1_555 1_555
C11A C10A 1_555 1_555
H10A C11A 1_555 1_555
C12A C7A 1_555 1_555
H11A C12A 1_555 1_555
C13A P1A 1_555 1_555
C14A C13A 1_555 1_555
H12A C14A 1_555 1_555
C15A C14A 1_555 1_555
H13A C15A 1_555 1_555
C16A C15A 1_555 1_555
H14A C16A 1_555 1_555
C17A C16A 1_555 1_555
H15A C17A 1_555 1_555
C18A C13A 1_555 1_555
H16A C18A 1_555 1_555
C19A P2A 1_555 1_555
H17A C19A 1_555 1_555
H18A C19A 1_555 1_555
C20A C19A 1_555 1_555
C21A C20A 1_555 1_555
H19A C21A 1_555 1_555
C22A N2A 1_555 1_555
H20A C22A 1_555 1_555
C23A N2A 1_555 1_555
H21A C23A 1_555 1_555
C24A C20A 1_555 1_555
H22A C24A 1_555 1_555
C25A P2A 1_555 1_555
C26A C25A 1_555 1_555
H23A C26A 1_555 1_555
C27A C26A 1_555 1_555
H24A C27A 1_555 1_555
C28A C27A 1_555 1_555
H25A C28A 1_555 1_555
C29A C28A 1_555 1_555
H26A C29A 1_555 1_555
C30A C25A 1_555 1_555
H27A C30A 1_555 1_555
C31A P2A 1_555 1_555
C32A C31A 1_555 1_555
H28A C32A 1_555 1_555
C33A C32A 1_555 1_555
H29A C33A 1_555 1_555
C34A C33A 1_555 1_555
H30A C34A 1_555 1_555
C35A C34A 1_555 1_555
H31A C35A 1_555 1_555
C36A C31A 1_555 1_555
H32A C36A 1_555 1_555
C37A N3A 1_555 1_555
H33A C37A 1_555 1_555
C38A C37A 1_555 1_555
H34A C38A 1_555 1_555
C39A C38A 1_555 1_555
C40A C39A 1_555 1_555
H35A C40A 1_555 1_555
C41A N3A 1_555 1_555
H36A C41A 1_555 1_555
C42A N4A 1_555 1_555
H37A C42A 1_555 1_555
C43A C42A 1_555 1_555
H38A C43A 1_555 1_555
C44A C39A 1_555 1_555
C45A C44A 1_555 1_555
H39A C45A 1_555 1_555
C46A N4A 1_555 1_555
H40A C46A 1_555 1_555
C47A H41A 1_555 1_555
H42A C47A 1_555 1_555
C48A C47A 1_555 1_555
C49A C48A 1_555 1_555
H43A C49A 1_555 1_555
C50A C49A 1_555 1_555
H44A C50A 1_555 1_555
C51A N5A 1_555 1_555
H45A C51A 1_555 1_555
C52A C48A 1_555 1_555
H46A C52A 1_555 1_555
C53A P3A 1_555 1_555
C54A C53A 1_555 1_555
H47A C54A 1_555 1_555
C55A C54A 1_555 1_555
H48A C55A 1_555 1_555
C56A C55A 1_555 1_555
H49A C56A 1_555 1_555
C57A C56A 1_555 1_555
H50A C57A 1_555 1_555
C58A C53A 1_555 1_555
H51A C58A 1_555 1_555
C59A P3A 1_555 1_555
C60A C59A 1_555 1_555
H52A C60A 1_555 1_555
C61A C60A 1_555 1_555
H53A C61A 1_555 1_555
C62A C61A 1_555 1_555
H54A C62A 1_555 1_555
C63A C62A 1_555 1_555
H55A C63A 1_555 1_555
C64A C59A 1_555 1_555
H56A C64A 1_555 1_555
C70A S1A 1_555 1_555
C71A S2A 1_555 1_555
C72A S3A 1_555 1_555
Ag3_2 N5A 1_555 1_555
Ag3A_2 N5 1_555 1_555
N5_2 Ag3A 1_555 1_555
N5A_2 Ag3 1_555 1_555
C3 C4 1_555 1_555
C5 C6 1_555 1_555
C11 C12 1_555 1_555
C17 C18 1_555 1_555
C21 C22 1_555 1_555
C23 C24 1_555 1_555
C29 C30 1_555 1_555
C35 C36 1_555 1_555
C40 C41 1_555 1_555
C43 C44 1_555 1_555
C45 C46 1_555 1_555
C51 C52 1_555 1_555
C57 C58 1_555 1_555
C63 C64 1_555 1_555
C68 C69 1_555 1_555
C66A C67A 1_555 1_555
C68A C69A 1_555 1_555
C3A C4A 1_555 1_555
C5A C6A 1_555 1_555
C11A C12A 1_555 1_555
C17A C18A 1_555 1_555
C21A C22A 1_555 1_555
C23A C24A 1_555 1_555
C29A C30A 1_555 1_555
C35A C36A 1_555 1_555
C40A C41A 1_555 1_555
C43A C44A 1_555 1_555
C45A C46A 1_555 1_555
C51A C52A 1_555 1_555
C57A C58A 1_555 1_555
C63A C64A 1_555 1_555

#END
