
#######################################################################
#
#                 Cambridge Crystallographic Data Centre
#                                CCDC 
#
#######################################################################
#
# If this CIF has been generated from an entry in the Cambridge 
# Structural Database, then it will include bibliographic, chemical, 
# crystal, experimental, refinement or atomic coordinate data resulting 
# from the CCDC's data processing and validation procedures.
#
#######################################################################

data_DOSWOY
_symmetry_cell_setting           monoclinic
_symmetry_space_group_name_H-M   'P 21/c'
_symmetry_Int_Tables_number      14
_space_group_name_Hall           '-P 2ybc'
loop_
_symmetry_equiv_pos_site_id
_symmetry_equiv_pos_as_xyz
1 x,y,z
2 -x,1/2+y,1/2-z
3 -x,-y,-z
4 x,1/2-y,1/2+z
_cell_length_a                   13.753(5)
_cell_length_b                   9.965(3)
_cell_length_c                   12.149(4)
_cell_angle_alpha                90
_cell_angle_beta                 105.336(4)
_cell_angle_gamma                90
_cell_volume                     1605.72
loop_
_atom_site_label
_atom_site_type_symbol
_atom_site_fract_x
_atom_site_fract_y
_atom_site_fract_z
Er1 Er 0.076616(8) 0.213963(10) 0.060175(8)
O1 O 0.24266(15) 0.2916(2) 0.09182(15)
O2 O 0.19082(14) 0.2507(2) 0.24396(14)
O3 O 0.65984(16) 0.3558(3) 0.46338(18)
O4 O 0.87663(17) -0.0042(2) 0.88733(16)
O5 O 0.91184(14) 0.1990(2) 0.95733(15)
O6 O 0.05649(14) 0.39141(17) -0.07722(13)
O7 O -0.01696(14) 0.59063(18) -0.12591(13)
O8 O 0.10644(17) 0.1218(2) -0.10396(15)
O9 O -0.01774(15) 0.1438(2) 0.19017(13)
C1 C 0.2618(2) 0.2806(3) 0.1996(2)
C2 C 0.3662(2) 0.3002(3) 0.2716(2)
C3 C 0.3918(2) 0.2651(4) 0.3868(3)
H1 H 0.3432 0.2305 0.4195
C4 C 0.4894(2) 0.2820(4) 0.4519(3)
H2 H 0.5067 0.2585 0.5287
C5 C 0.5611(2) 0.3333(4) 0.4039(2)
C6 C 0.5361(2) 0.3728(4) 0.2906(2)
H3 H 0.5844 0.4112 0.2592
C7 C 0.4389(2) 0.3546(4) 0.2251(2)
H4 H 0.4218 0.3792 0.1486
C8 C 0.6989(2) 0.2917(3) 0.5678(2)
C9 C 0.7239(2) 0.3706(3) 0.6638(2)
H5 H 0.7065 0.4610 0.6597
C10 C 0.7759(2) 0.3135(3) 0.7676(2)
H6 H 0.7933 0.3659 0.8333
C11 C 0.80161(18) 0.1781(3) 0.7727(2)
C12 C 0.7717(2) 0.1005(3) 0.6750(2)
H7 H 0.7862 0.0092 0.6784
C13 C 0.7200(2) 0.1582(4) 0.5716(2)
H8 H 0.7002 0.1061 0.5060
C14 C 0.86702(18) 0.1198(3) 0.88063(19)
C15 C 0.01140(18) 0.4952(2) -0.05842(17)
H9 H 0.094(3) 0.038(3) -0.131(3)
H10 H 0.135(2) 0.168(3) -0.143(2)
H11 H 0.019(3) 0.130(4) 0.265(3)
H12 H -0.064(2) 0.199(3) 0.188(2)
Er1B Er 0.923384(8) -0.213963(10) 0.939825(8)
Er1_2 Er 1.076616(8) 0.213963(10) 1.060175(8)
Er1B_2 Er -0.076616(8) 0.786037(10) -0.060175(8)
Er1B_3 Er -0.076616(8) -0.213963(10) -0.060175(8)
O1B O 0.75734(15) -0.2916(2) 0.90818(15)
O2B O 0.80918(14) -0.2507(2) 0.75604(14)
O3B O 0.34016(16) -0.3558(3) 0.53662(18)
O4B O 0.12337(17) 0.0042(2) 0.11267(16)
O5B O 0.08816(14) -0.1990(2) 0.04267(15)
O5_2 O -0.08816(14) 0.1990(2) -0.04267(15)
O5B_2 O 1.08816(14) -0.1990(2) 1.04267(15)
O6B O -0.05649(14) 0.60859(17) 0.07722(13)
O6B_2 O 0.94351(14) -0.39141(17) 1.07722(13)
O7B O 0.01696(14) 0.40937(18) 0.12591(13)
O7_2 O 0.98304(14) -0.40937(18) 0.87409(13)
O8B O 0.89356(17) -0.1218(2) 1.10396(15)
O9B O 1.01774(15) -0.1438(2) 0.80983(13)
C1B C 0.7382(2) -0.2806(3) 0.8004(2)
C2B C 0.6338(2) -0.3002(3) 0.7284(2)
C3B C 0.6082(2) -0.2651(4) 0.6132(3)
H1B H 0.6568 -0.2305 0.5805
C4B C 0.5106(2) -0.2820(4) 0.5481(3)
H2B H 0.4933 -0.2585 0.4713
C5B C 0.4389(2) -0.3333(4) 0.5961(2)
C6B C 0.4639(2) -0.3728(4) 0.7094(2)
H3B H 0.4156 -0.4112 0.7408
C7B C 0.5611(2) -0.3546(4) 0.7749(2)
H4B H 0.5782 -0.3792 0.8514
C8B C 0.3011(2) -0.2917(3) 0.4322(2)
C9B C 0.2761(2) -0.3706(3) 0.3362(2)
H5B H 0.2935 -0.4610 0.3403
C10B C 0.2241(2) -0.3135(3) 0.2324(2)
H6B H 0.2067 -0.3659 0.1667
C11B C 0.19839(18) -0.1781(3) 0.2273(2)
C12B C 0.2283(2) -0.1005(3) 0.3250(2)
H7B H 0.2138 -0.0092 0.3216
C13B C 0.2800(2) -0.1582(4) 0.4284(2)
H8B H 0.2998 -0.1061 0.4940
C14B C 0.13298(18) -0.1198(3) 0.11937(19)
C15B C -0.01140(18) 0.5048(2) 0.05842(17)
H9B H 0.906(3) -0.038(3) 1.131(3)
H10B H 0.865(2) -0.168(3) 1.143(2)
H11B H 0.981(3) -0.130(4) 0.735(3)
H12B H 1.064(2) -0.199(3) 0.812(2)
loop_
_geom_bond_atom_site_label_1
_geom_bond_atom_site_label_2
_geom_bond_site_symmetry_1
_geom_bond_site_symmetry_2
Er1 O1 1_555 1_555
O1 C1 1_555 1_555
O2 Er1 1_555 1_555
O3 C5 1_555 1_555
O4 C14 1_555 1_555
O5 C14 1_555 1_555
O6 Er1 1_555 1_555
O7 C15 1_555 1_555
O8 Er1 1_555 1_555
O9 Er1 1_555 1_555
C1 O2 1_555 1_555
C2 C1 1_555 1_555
C3 C2 1_555 1_555
H1 C3 1_555 1_555
C4 C3 1_555 1_555
H2 C4 1_555 1_555
C5 C4 1_555 1_555
C6 C5 1_555 1_555
H3 C6 1_555 1_555
C7 C2 1_555 1_555
H4 C7 1_555 1_555
C8 O3 1_555 1_555
C9 C8 1_555 1_555
H5 C9 1_555 1_555
C10 C9 1_555 1_555
H6 C10 1_555 1_555
C11 C10 1_555 1_555
C12 C11 1_555 1_555
H7 C12 1_555 1_555
C13 C8 1_555 1_555
H8 C13 1_555 1_555
C14 C11 1_555 1_555
C15 O6 1_555 1_555
H9 O8 1_555 1_555
H10 O8 1_555 1_555
H11 O9 1_555 1_555
H12 O9 1_555 1_555
Er1B O4 1_555 1_555
Er1_2 O5 1_555 1_555
Er1B_2 O7 1_555 1_555
Er1B_3 O5B 1_555 1_555
O1B Er1B 1_555 1_555
O2B Er1B 1_555 1_555
O3B C5B 1_555 1_555
O4B Er1 1_555 1_555
O5B C14B 1_555 1_555
O5_2 Er1 1_555 1_555
O5B_2 Er1B 1_555 1_555
O6B Er1B_2 1_555 1_555
O6B_2 Er1B 1_555 1_555
O7B Er1 1_555 1_555
O7_2 Er1B 1_555 1_555
O8B Er1B 1_555 1_555
O9B Er1B 1_555 1_555
C1B O1B 1_555 1_555
C2B C1B 1_555 1_555
C3B C2B 1_555 1_555
H1B C3B 1_555 1_555
C4B C3B 1_555 1_555
H2B C4B 1_555 1_555
C5B C4B 1_555 1_555
C6B C5B 1_555 1_555
H3B C6B 1_555 1_555
C7B C2B 1_555 1_555
H4B C7B 1_555 1_555
C8B O3B 1_555 1_555
C9B C8B 1_555 1_555
H5B C9B 1_555 1_555
C10B C9B 1_555 1_555
H6B C10B 1_555 1_555
C11B C10B 1_555 1_555
C12B C11B 1_555 1_555
H7B C12B 1_555 1_555
C13B C8B 1_555 1_555
H8B C13B 1_555 1_555
C14B O4B 1_555 1_555
C15B C15 1_555 1_555
H9B O8B 1_555 1_555
H10B O8B 1_555 1_555
H11B O9B 1_555 1_555
H12B O9B 1_555 1_555
C6 C7 1_555 1_555
C12 C13 1_555 1_555
O2B C1B 1_555 1_555
O6B C15B 1_555 1_555
O7B C15B 1_555 1_555
C6B C7B 1_555 1_555
C11B C14B 1_555 1_555
C12B C13B 1_555 1_555

#END
