
#######################################################################
#
#                 Cambridge Crystallographic Data Centre
#                                CCDC 
#
#######################################################################
#
# If this CIF has been generated from an entry in the Cambridge 
# Structural Database, then it will include bibliographic, chemical, 
# crystal, experimental, refinement or atomic coordinate data resulting 
# from the CCDC's data processing and validation procedures.
#
#######################################################################

data_DOSWIS
_symmetry_cell_setting           monoclinic
_symmetry_space_group_name_H-M   'P 21/c'
_symmetry_Int_Tables_number      14
_space_group_name_Hall           '-P 2ybc'
loop_
_symmetry_equiv_pos_site_id
_symmetry_equiv_pos_as_xyz
1 x,y,z
2 -x,1/2+y,1/2-z
3 -x,-y,-z
4 x,1/2-y,1/2+z
_cell_length_a                   13.787(6)
_cell_length_b                   10.048(5)
_cell_length_c                   12.208(5)
_cell_angle_alpha                90
_cell_angle_beta                 105.349(7)
_cell_angle_gamma                90
_cell_volume                     1630.87
loop_
_atom_site_label
_atom_site_type_symbol
_atom_site_fract_x
_atom_site_fract_y
_atom_site_fract_z
Y1 Y 0.42284(3) 0.21405(4) 0.93962(3)
O1 O 0.2561(2) 0.2916(3) 0.9070(2)
O2 O 0.3084(2) 0.2511(3) 0.7552(2)
O3 O -0.1604(2) 0.3560(4) 0.5357(3)
O4 O -0.3760(3) -0.0045(3) 0.1125(3)
O5 O -0.4119(2) 0.1989(3) 0.0426(2)
O6 O 0.4831(2) 0.4104(3) 0.8740(2)
O7 O 0.5567(2) 0.6080(3) 0.9229(2)
C1 C 0.2370(3) 0.2804(4) 0.7998(3)
C2 C 0.1335(3) 0.3004(4) 0.7274(4)
C3 C 0.1075(4) 0.2672(5) 0.6131(4)
H1 H 0.1563 0.2344 0.5802
C4 C 0.0106(4) 0.2825(5) 0.5481(4)
H2 H -0.0067 0.2575 0.4720
C5 C -0.0611(3) 0.3347(5) 0.5955(4)
C6 C -0.0366(4) 0.3727(6) 0.7076(4)
H3 H -0.0850 0.4102 0.7387
C7 C 0.0605(3) 0.3549(5) 0.7736(4)
H4 H 0.0773 0.3796 0.8497
C8 C -0.1992(3) 0.2922(6) 0.4311(4)
C9 C -0.2244(3) 0.3700(5) 0.3349(4)
H5 H -0.2071 0.4597 0.3386
C10 C -0.2763(3) 0.3128(4) 0.2314(4)
H6 H -0.2940 0.3643 0.1658
C11 C -0.3013(3) 0.1786(4) 0.2271(3)
C12 C -0.2720(3) 0.1003(5) 0.3249(4)
H7 H -0.2862 0.0097 0.3215
C13 C -0.2210(4) 0.1593(6) 0.4280(4)
H8 H -0.2020 0.1084 0.4939
C14 C -0.3669(3) 0.1199(5) 0.1191(3)
O8 O 0.5178(2) 0.1443(3) 0.8091(2)
O9 O 0.3926(3) 0.1218(3) 1.1046(2)
C15 C 0.5118(3) 0.5048(4) 0.9420(3)
H9 H 0.490(3) 0.125(4) 0.7399(13)
H10 H 0.560(3) 0.208(4) 0.820(3)
H11 H 0.361(3) 0.166(3) 1.143(3)
H12 H 0.412(4) 0.044(3) 1.129(4)
Y1B Y -0.42284(3) -0.21405(4) 0.06038(3)
Y1_2 Y -0.57716(3) 0.21405(4) -0.06038(3)
Y1B_2 Y 0.57716(3) 0.78595(4) 1.06038(3)
Y1B_3 Y 0.57716(3) -0.21405(4) 1.06038(3)
O1B O -0.2561(2) -0.2916(3) 0.0930(2)
O2B O -0.3084(2) -0.2511(3) 0.2448(2)
O3B O 0.1604(2) -0.3560(4) 0.4643(3)
O4B O 0.3760(3) 0.0045(3) 0.8875(3)
O5B O 0.4119(2) -0.1989(3) 0.9574(2)
O5_2 O 0.5881(2) 0.1989(3) 1.0426(2)
O5B_2 O -0.5881(2) -0.1989(3) -0.0426(2)
O6B O 0.5169(2) 0.5896(3) 1.1260(2)
O6B_2 O -0.4831(2) -0.4104(3) 0.1260(2)
O7B O 0.4433(2) 0.3920(3) 1.0771(2)
O7_2 O -0.4433(2) -0.3920(3) -0.0771(2)
C1B C -0.2370(3) -0.2804(4) 0.2002(3)
C2B C -0.1335(3) -0.3004(4) 0.2726(4)
C3B C -0.1075(4) -0.2672(5) 0.3869(4)
H1B H -0.1563 -0.2344 0.4198
C4B C -0.0106(4) -0.2825(5) 0.4519(4)
H2B H 0.0067 -0.2575 0.5280
C5B C 0.0611(3) -0.3347(5) 0.4045(4)
C6B C 0.0366(4) -0.3727(6) 0.2924(4)
H3B H 0.0850 -0.4102 0.2613
C7B C -0.0605(3) -0.3549(5) 0.2264(4)
H4B H -0.0773 -0.3796 0.1503
C8B C 0.1992(3) -0.2922(6) 0.5689(4)
C9B C 0.2244(3) -0.3700(5) 0.6651(4)
H5B H 0.2071 -0.4597 0.6614
C10B C 0.2763(3) -0.3128(4) 0.7686(4)
H6B H 0.2940 -0.3643 0.8342
C11B C 0.3013(3) -0.1786(4) 0.7729(3)
C12B C 0.2720(3) -0.1003(5) 0.6751(4)
H7B H 0.2862 -0.0097 0.6785
C13B C 0.2210(4) -0.1593(6) 0.5720(4)
H8B H 0.2020 -0.1084 0.5061
C14B C 0.3669(3) -0.1199(5) 0.8809(3)
O8B O -0.5178(2) -0.1443(3) 0.1909(2)
O9B O -0.3926(3) -0.1218(3) -0.1046(2)
C15B C 0.4882(3) 0.4952(4) 1.0580(3)
H9B H -0.490(3) -0.125(4) 0.2601(13)
H10B H -0.560(3) -0.208(4) 0.180(3)
H11B H -0.361(3) -0.166(3) -0.143(3)
H12B H -0.412(4) -0.044(3) -0.129(4)
loop_
_geom_bond_atom_site_label_1
_geom_bond_atom_site_label_2
_geom_bond_site_symmetry_1
_geom_bond_site_symmetry_2
Y1 O1 1_555 1_555
O1 C1 1_555 1_555
O2 Y1 1_555 1_555
O3 C5 1_555 1_555
O4 C14 1_555 1_555
O5 C14 1_555 1_555
O6 Y1 1_555 1_555
O7 C15 1_555 1_555
C1 O2 1_555 1_555
C2 C1 1_555 1_555
C3 C2 1_555 1_555
H1 C3 1_555 1_555
C4 C3 1_555 1_555
H2 C4 1_555 1_555
C5 C4 1_555 1_555
C6 C5 1_555 1_555
H3 C6 1_555 1_555
C7 C2 1_555 1_555
H4 C7 1_555 1_555
C8 O3 1_555 1_555
C9 C8 1_555 1_555
H5 C9 1_555 1_555
C10 C9 1_555 1_555
H6 C10 1_555 1_555
C11 C10 1_555 1_555
C12 C11 1_555 1_555
H7 C12 1_555 1_555
C13 C8 1_555 1_555
H8 C13 1_555 1_555
C14 C11 1_555 1_555
O8 Y1 1_555 1_555
O9 Y1 1_555 1_555
C15 O6 1_555 1_555
H9 O8 1_555 1_555
H10 O8 1_555 1_555
H11 O9 1_555 1_555
H12 O9 1_555 1_555
Y1B O4 1_555 1_555
Y1_2 O5 1_555 1_555
Y1B_2 O7 1_555 1_555
Y1B_3 O5B 1_555 1_555
O1B Y1B 1_555 1_555
O2B Y1B 1_555 1_555
O3B C5B 1_555 1_555
O4B Y1 1_555 1_555
O5B C14B 1_555 1_555
O5_2 Y1 1_555 1_555
O5B_2 Y1B 1_555 1_555
O6B Y1B_2 1_555 1_555
O6B_2 Y1B 1_555 1_555
O7B Y1 1_555 1_555
O7_2 Y1B 1_555 1_555
C1B O1B 1_555 1_555
C2B C1B 1_555 1_555
C3B C2B 1_555 1_555
H1B C3B 1_555 1_555
C4B C3B 1_555 1_555
H2B C4B 1_555 1_555
C5B C4B 1_555 1_555
C6B C5B 1_555 1_555
H3B C6B 1_555 1_555
C7B C2B 1_555 1_555
H4B C7B 1_555 1_555
C8B O3B 1_555 1_555
C9B C8B 1_555 1_555
H5B C9B 1_555 1_555
C10B C9B 1_555 1_555
H6B C10B 1_555 1_555
C11B C10B 1_555 1_555
C12B C11B 1_555 1_555
H7B C12B 1_555 1_555
C13B C8B 1_555 1_555
H8B C13B 1_555 1_555
C14B O4B 1_555 1_555
O8B Y1B 1_555 1_555
O9B Y1B 1_555 1_555
C15B C15 1_555 1_555
H9B O8B 1_555 1_555
H10B O8B 1_555 1_555
H11B O9B 1_555 1_555
H12B O9B 1_555 1_555
C6 C7 1_555 1_555
C12 C13 1_555 1_555
O2B C1B 1_555 1_555
O6B C15B 1_555 1_555
O7B C15B 1_555 1_555
C6B C7B 1_555 1_555
C11B C14B 1_555 1_555
C12B C13B 1_555 1_555

#END
