
#######################################################################
#
#                 Cambridge Crystallographic Data Centre
#                                CCDC 
#
#######################################################################
#
# If this CIF has been generated from an entry in the Cambridge 
# Structural Database, then it will include bibliographic, chemical, 
# crystal, experimental, refinement or atomic coordinate data resulting 
# from the CCDC's data processing and validation procedures.
#
#######################################################################

data_DOTDIA
_symmetry_cell_setting           monoclinic
_symmetry_space_group_name_H-M   'C 2/c'
_symmetry_Int_Tables_number      15
_space_group_name_Hall           '-C 2yn'
loop_
_symmetry_equiv_pos_site_id
_symmetry_equiv_pos_as_xyz
1 x,y,z
2 -x,y,1/2-z
3 1/2+x,1/2+y,z
4 1/2-x,1/2+y,1/2-z
5 -x,-y,-z
6 x,-y,1/2+z
7 1/2-x,1/2-y,-z
8 1/2+x,1/2-y,1/2+z
_cell_length_a                   31.9080(4)
_cell_length_b                   9.7803(2)
_cell_length_c                   25.3001(4)
_cell_angle_alpha                90
_cell_angle_beta                 122.0585(11)
_cell_angle_gamma                90
_cell_volume                     6691.4
loop_
_atom_site_label
_atom_site_type_symbol
_atom_site_fract_x
_atom_site_fract_y
_atom_site_fract_z
Au1 Au 0.133370(7) 0.37554(2) 0.370272(9)
C1 C 0.16079(18) 0.5707(5) 0.3933(2)
C2 C 0.16601(17) 0.6587(5) 0.3551(2)
C3 C 0.18294(18) 0.7912(5) 0.3710(2)
C4 C 0.1950(2) 0.8425(5) 0.4277(2)
C5 C 0.18978(19) 0.7582(5) 0.4676(2)
C6 C 0.1733(2) 0.6258(5) 0.4505(2)
F1 F 0.15527(11) 0.6154(3) 0.29801(14)
F2 F 0.18820(14) 0.8715(3) 0.33125(16)
F3 F 0.21167(13) 0.9707(3) 0.44444(16)
F4 F 0.20164(12) 0.8080(3) 0.52399(14)
F5 F 0.16998(12) 0.5495(3) 0.49277(14)
C7 C 0.10530(18) 0.1812(5) 0.3503(2)
C8 C 0.10009(16) 0.1037(5) 0.3920(2)
C9 C 0.08229(18) -0.0279(5) 0.3811(2)
C10 C 0.0685(2) -0.0882(5) 0.3258(2)
C11 C 0.07256(19) -0.0181(5) 0.2819(2)
C12 C 0.09143(19) 0.1128(5) 0.2953(2)
F6 F 0.11240(13) 0.1602(3) 0.44770(14)
F7 F 0.07934(14) -0.0981(3) 0.42501(16)
F8 F 0.05190(13) -0.2184(3) 0.31502(15)
F9 F 0.05926(14) -0.0779(3) 0.22733(15)
F10 F 0.09667(13) 0.1737(3) 0.25098(14)
Cu1 Cu 0.14809(2) 0.36144(6) 0.12324(3)
N1 N 0.09477(17) 0.3690(5) 0.0314(2)
C13 C 0.0708(2) 0.3941(5) -0.0202(3)
C14 C 0.03981(18) 0.4302(5) -0.0869(2)
H1 H 0.0584 0.4072 -0.1066
C15 C 0.0299(2) 0.5833(5) -0.0941(2)
H2 H 0.0611 0.6323 -0.0744
H3 H 0.0128 0.6093 -0.0734
C16 C -0.0016(2) 0.6230(6) -0.1633(3)
H4 H -0.0096 0.7195 -0.1667
H5 H 0.0174 0.6080 -0.1826
C17 C -0.04933(19) 0.5405(5) -0.1982(2)
H6 H -0.0650 0.5598 -0.2428
C18 C -0.0390(2) 0.3861(5) -0.1885(2)
H7 H -0.0702 0.3371 -0.2082
H8 H -0.0215 0.3579 -0.2084
C19 C -0.00862(19) 0.3489(5) -0.1202(2)
H9 H -0.0013 0.2518 -0.1159
H10 H -0.0274 0.3683 -0.1009
C20 C -0.08377(19) 0.5795(5) -0.1797(2)
N2 N -0.11058(17) 0.6068(4) -0.1643(2)
N3 N 0.18370(17) 0.1835(4) 0.1406(2)
C21 C 0.2038(2) 0.0875(5) 0.1405(2)
C22 C 0.23197(19) -0.0312(5) 0.1393(2)
H11 H 0.2601 0.0042 0.1379
C23 C 0.2004(2) -0.1167(5) 0.0807(2)
H12 H 0.1868 -0.0589 0.0441
H13 H 0.1732 -0.1578 0.0818
C24 C 0.2326(2) -0.2287(5) 0.0775(2)
H14 H 0.2122 -0.2862 0.0415
H15 H 0.2576 -0.1866 0.0721
C25 C 0.25783(19) -0.3172(5) 0.1360(2)
H16 H 0.2828 -0.3727 0.1345
C26 C 0.28464(19) -0.2315(5) 0.1954(2)
H17 H 0.2960 -0.2911 0.2311
H18 H 0.3136 -0.1901 0.1987
C27 C 0.2525(2) -0.1192(5) 0.1976(2)
H19 H 0.2256 -0.1595 0.1995
H20 H 0.2720 -0.0633 0.2345
C28 C 0.2222(2) -0.4123(5) 0.1370(2)
N4 N 0.19471(17) -0.4869(4) 0.13667(19)
Cu1D Cu -0.14809(2) 0.63856(6) -0.12324(3)
Cu1_2 Cu 0.14809(2) -0.63856(6) 0.12324(3)
N2D N 0.11058(17) 0.3932(4) 0.1643(2)
N4_2 N 0.19471(17) 0.5131(4) 0.13667(19)
C29 C 0.0724(3) 1.0484(8) 0.0999(5)
H21 H 0.0753 1.0826 0.0659
H22 H 0.0918 1.1079 0.1354
Cl1 Cl 0.09709(12) 0.8883(2) 0.1187(2)
Cl2 Cl 0.01121(9) 1.0580(2) 0.07809(11)
loop_
_geom_bond_atom_site_label_1
_geom_bond_atom_site_label_2
_geom_bond_site_symmetry_1
_geom_bond_site_symmetry_2
Au1 C1 1_555 1_555
Cu1 N1 1_555 1_555
C1 C2 1_555 1_555
C2 C3 1_555 1_555
C3 C4 1_555 1_555
C4 C5 1_555 1_555
C5 C6 1_555 1_555
C6 C1 1_555 1_555
F1 C2 1_555 1_555
F2 C3 1_555 1_555
F3 C4 1_555 1_555
F4 C5 1_555 1_555
F5 C6 1_555 1_555
C7 Au1 1_555 1_555
C8 C7 1_555 1_555
C9 C8 1_555 1_555
C10 C9 1_555 1_555
C11 C10 1_555 1_555
C12 C7 1_555 1_555
F6 C8 1_555 1_555
F7 C9 1_555 1_555
F8 C10 1_555 1_555
F9 C11 1_555 1_555
F10 C12 1_555 1_555
N1 C13 1_555 1_555
C13 C14 1_555 1_555
C14 H1 1_555 1_555
C15 C14 1_555 1_555
H2 C15 1_555 1_555
H3 C15 1_555 1_555
C16 C15 1_555 1_555
H4 C16 1_555 1_555
H5 C16 1_555 1_555
C17 C16 1_555 1_555
H6 C17 1_555 1_555
C18 C17 1_555 1_555
H7 C18 1_555 1_555
H8 C18 1_555 1_555
C19 C14 1_555 1_555
H9 C19 1_555 1_555
H10 C19 1_555 1_555
C20 C17 1_555 1_555
N2 C20 1_555 1_555
N3 Cu1 1_555 1_555
C21 N3 1_555 1_555
C22 C21 1_555 1_555
H11 C22 1_555 1_555
C23 C22 1_555 1_555
H12 C23 1_555 1_555
H13 C23 1_555 1_555
C24 C23 1_555 1_555
H14 C24 1_555 1_555
H15 C24 1_555 1_555
C25 C24 1_555 1_555
H16 C25 1_555 1_555
C26 C25 1_555 1_555
H17 C26 1_555 1_555
H18 C26 1_555 1_555
C27 C22 1_555 1_555
H19 C27 1_555 1_555
H20 C27 1_555 1_555
C28 C25 1_555 1_555
N4 C28 1_555 1_555
C29 H21 1_555 1_555
H22 C29 1_555 1_555
Cl1 C29 1_555 1_555
Cl2 C29 1_555 1_555
Cu1D N2 1_555 1_555
Cu1_2 N4 1_555 1_555
N2D Cu1 1_555 1_555
N4_2 Cu1 1_555 1_555
C11 C12 1_555 1_555
C18 C19 1_555 1_555
C26 C27 1_555 1_555

#END
