
#######################################################################
#
#                 Cambridge Crystallographic Data Centre
#                                CCDC 
#
#######################################################################
#
# If this CIF has been generated from an entry in the Cambridge 
# Structural Database, then it will include bibliographic, chemical, 
# crystal, experimental, refinement or atomic coordinate data resulting 
# from the CCDC's data processing and validation procedures.
#
#######################################################################

data_DOTFID
_symmetry_cell_setting           monoclinic
_symmetry_space_group_name_H-M   'C 2/c'
_symmetry_Int_Tables_number      15
_space_group_name_Hall           '-C 2yn'
loop_
_symmetry_equiv_pos_site_id
_symmetry_equiv_pos_as_xyz
1 x,y,z
2 -x,y,1/2-z
3 1/2+x,1/2+y,z
4 1/2-x,1/2+y,1/2-z
5 -x,-y,-z
6 x,-y,1/2+z
7 1/2-x,1/2-y,-z
8 1/2+x,1/2-y,1/2+z
_cell_length_a                   41.1895(11)
_cell_length_b                   20.6334(4)
_cell_length_c                   27.0979(8)
_cell_angle_alpha                90
_cell_angle_beta                 129.772(3)
_cell_angle_gamma                90
_cell_volume                     17700.7
loop_
_atom_site_label
_atom_site_type_symbol
_atom_site_fract_x
_atom_site_fract_y
_atom_site_fract_z
Cl1 Cl 0.6117(5) 0.9780(7) 0.9008(8)
O13 O 0.5818(18) 1.000(4) 0.921(4)
O14 O 0.6620(10) 1.003(4) 0.958(3)
O15 O 0.611(3) 0.8963(10) 0.894(5)
O16 O 0.592(2) 1.012(5) 0.830(2)
Cl2 Cl 0.8635(9) 1.1295(16) 0.8545(13)
O17 O 0.909(2) 1.129(6) 0.867(5)
O18 O 0.829(3) 1.180(5) 0.792(4)
O19 O 0.873(3) 1.156(5) 0.921(3)
O20 O 0.843(4) 1.054(3) 0.837(5)
Cl3 Cl 0.708(3) 0.726(4) 0.220(4)
O21 O 0.714(5) 0.645(5) 0.223(7)
O22 O 0.720(3) 0.752(4) 0.290(4)
O23 O 0.657(5) 0.745(10) 0.158(4)
O24 O 0.740(8) 0.763(11) 0.210(12)
Cu1 Cu 0.5000 0.7499(2) 0.7500
Cu2 Cu 0.25288(12) 0.99004(19) 0.1136(2)
O1 O 0.4876(10) 0.5220(10) 0.9296(13)
O2 O 0.5395(7) 0.4810(10) 0.9326(11)
O3 O 0.4044(8) 0.2749(12) 1.0170(13)
O4 O 0.4170(7) 0.3354(9) 0.9623(10)
O5 O 0.3930(16) 0.247(2) 0.672(2)
O6 O 0.4182(9) 0.2317(13) 0.7730(14)
O7 O 0.4796(9) 0.9707(10) 0.5358(13)
O8 O 0.5274(8) 1.0198(10) 0.6303(11)
O9 O 0.4272(13) 1.314(2) 0.615(2)
O10 O 0.3870(14) 1.2361(19) 0.5484(17)
O11 O 0.4170(8) 1.2127(13) 0.3025(12)
O12 O 0.4025(8) 1.1859(11) 0.3656(11)
N1 N 0.5039(8) 0.6788(10) 0.8054(11)
N2 N 0.2943(9) 0.4481(13) 0.9141(13)
N3 N 0.2998(9) 0.0744(13) 0.6466(15)
N4 N 0.5010(8) 0.8201(9) 0.6982(11)
N5 N 0.2917(10) 1.4228(13) 0.4466(15)
N6 N 0.2969(8) 1.0567(12) 0.1747(13)
N7 N 0.4211(12) 0.7541(13) 0.6739(16)
N8 N 0.2530(9) 1.0275(16) 0.0270(17)
C1 C 0.5344(10) 0.6343(14) 0.8318(15)
H1 H 0.5546 0.6379 0.8256
C2 C 0.5375(10) 0.5837(13) 0.8674(14)
H2 H 0.5596 0.5527 0.8854
C3 C 0.5090(10) 0.5778(12) 0.8771(14)
C4 C 0.4782(10) 0.6229(14) 0.8509(14)
H3 H 0.4578 0.6204 0.8566
C5 C 0.4769(10) 0.6732(13) 0.8152(15)
H4 H 0.4552 0.7048 0.7971
C6 C 0.5115(13) 0.5240(15) 0.9156(17)
C7 C 0.5472(11) 0.4305(15) 0.9770(16)
H5 H 0.5493 0.4508 1.0121
H6 H 0.5745 0.4092 0.9965
C8 C 0.3250(12) 0.4651(16) 0.9130(18)
H7 H 0.3242 0.5069 0.8975
C9 C 0.3579(11) 0.4245(16) 0.9333(15)
H8 H 0.3784 0.4378 0.9297
C10 C 0.3614(9) 0.3658(14) 0.9586(14)
C11 C 0.3306(12) 0.3482(17) 0.9616(18)
H9 H 0.3324 0.3082 0.9806
C12 C 0.2972(12) 0.3894(19) 0.937(2)
H10 H 0.2749 0.3751 0.9361
C13 C 0.3964(11) 0.3202(16) 0.9827(16)
C14 C 0.4514(10) 0.2910(14) 0.9811(16)
H11 H 0.4746 0.2929 1.0281
H12 H 0.4408 0.2459 0.9692
C15 C 0.3046(14) 0.100(2) 0.6066(19)
H13 H 0.2875 0.0852 0.5635
C16 C 0.3348(14) 0.149(2) 0.627(2)
H14 H 0.3366 0.1701 0.5978
C17 C 0.3610(12) 0.165(2) 0.690(2)
C18 C 0.3563(12) 0.1396(18) 0.7303(18)
H15 H 0.3735 0.1534 0.7738
C19 C 0.3265(12) 0.0940(19) 0.7079(18)
H16 H 0.3242 0.0745 0.7373
C20 C 0.393(2) 0.220(3) 0.712(3)
C21 C 0.4520(16) 0.278(2) 0.796(2)
H17 H 0.4415 0.3137 0.7646
H18 H 0.4759 0.2568 0.8027
C22 C 0.4661(11) 0.3052(16) 0.8576(17)
C23 C 0.4959(12) 0.3522(16) 0.8855(19)
H19 H 0.5058 0.3669 0.8640
C24 C 0.5127(9) 0.3799(13) 0.9443(15)
C25 C 0.4975(10) 0.3592(13) 0.9736(16)
H20 H 0.5084 0.3779 1.0136
C26 C 0.4666(10) 0.3116(14) 0.9472(16)
C27 C 0.4505(11) 0.2855(15) 0.8883(17)
H21 H 0.4287 0.2539 0.8686
C28 C 0.4749(9) 0.8196(13) 0.6343(14)
H22 H 0.4557 0.7846 0.6122
C29 C 0.4746(10) 0.8673(13) 0.5996(14)
H23 H 0.4558 0.8652 0.5541
C30 C 0.5026(10) 0.9197(13) 0.6321(15)
C31 C 0.5296(9) 0.9199(12) 0.6972(14)
H24 H 0.5488 0.9549 0.7202
C32 C 0.5292(10) 0.8694(13) 0.7297(15)
H25 H 0.5490 0.8689 0.7753
C33 C 0.5005(12) 0.9728(15) 0.593(2)
C34 C 0.5329(12) 1.0717(16) 0.5986(19)
H26 H 0.5348 1.0524 0.5671
H27 H 0.5595 1.0954 0.6310
C35 C 0.3229(12) 1.4376(18) 0.5062(19)
H28 H 0.3223 1.4786 0.5216
C36 C 0.3572(13) 1.397(2) 0.549(2)
H29 H 0.3789 1.4095 0.5923
C37 C 0.3585(14) 1.340(2) 0.527(2)
C38 C 0.3268(16) 1.324(2) 0.466(2)
H30 H 0.3272 1.2835 0.4490
C39 C 0.2920(14) 1.368(2) 0.426(2)
H31 H 0.2688 1.3556 0.3831
C40 C 0.3940(17) 1.293(3) 0.569(3)
C41 C 0.420(2) 1.189(3) 0.588(3)
H32 H 0.4078 1.1467 0.5864
H33 H 0.4397 1.2036 0.6333
C42 C 0.3267(11) 1.0721(17) 0.1723(16)
H34 H 0.3262 1.0542 0.1395
C43 C 0.3594(11) 1.1146(19) 0.2172(18)
H35 H 0.3809 1.1241 0.2148
C44 C 0.3610(10) 1.1425(15) 0.2644(14)
C45 C 0.3288(12) 1.1259(18) 0.2651(17)
H36 H 0.3287 1.1430 0.2976
C46 C 0.2970(12) 1.0852(19) 0.2197(19)
H37 H 0.2744 1.0768 0.2198
C47 C 0.3956(11) 1.1838(15) 0.3115(17)
C48 C 0.4377(12) 1.2233(17) 0.4180(14)
H38 H 0.4290 1.2688 0.4149
H39 H 0.4610 1.2228 0.4163
C49 C 0.4964(12) 1.1180(14) 0.5649(17)
C50 C 0.4761(13) 1.1346(16) 0.5891(17)
H40 H 0.4840 1.1133 0.6264
C51 C 0.4452(15) 1.1804(17) 0.5605(18)
C52 C 0.4314(13) 1.2103(16) 0.5028(18)
H41 H 0.4087 1.2405 0.4812
C53 C 0.4518(13) 1.1944(15) 0.4783(16)
C54 C 0.4835(12) 1.1492(15) 0.5098(16)
H42 H 0.4972 1.1387 0.4930
C55 C 0.3885(17) 0.766(2) 0.637(2)
C56 C 0.348(2) 0.788(4) 0.584(3)
H43 H 0.3267 0.7555 0.5732
H44 H 0.3464 0.7957 0.5473
H45 H 0.3416 0.8288 0.5958
C57 C 0.2554(14) 1.045(2) -0.009(2)
C58 C 0.258(2) 1.059(4) -0.058(3)
H46 H 0.2708 1.1020 -0.0501
H47 H 0.2295 1.0592 -0.0999
H48 H 0.2753 1.0264 -0.0576
N9 N 0.2503(12) 0.952(2) 0.2028(19)
C59 C 0.2506(14) 0.952(2) 0.242(2)
C60 C 0.244(3) 0.958(8) 0.290(3)
H49 H 0.2599 0.9234 0.3216
H50 H 0.2141 0.9541 0.2678
H51 H 0.2547 1.0002 0.3108
Cu2A Cu 0.74712(12) 0.99004(19) 1.3864(2)
O1A O 0.5124(10) 0.5220(10) 0.5704(13)
O2A O 0.4605(7) 0.4810(10) 0.5674(11)
O3A O 0.5956(8) 0.2749(12) 0.4830(13)
O4A O 0.5830(7) 0.3354(9) 0.5377(10)
O5A O 0.6070(16) 0.247(2) 0.828(2)
O6A O 0.5818(9) 0.2317(13) 0.7270(14)
O7A O 0.5204(9) 0.9707(10) 0.9642(13)
O8A O 0.4726(8) 1.0198(10) 0.8697(11)
O9A O 0.5728(13) 1.314(2) 0.885(2)
O10A O 0.6130(14) 1.2361(19) 0.9516(17)
O11A O 0.5830(8) 1.2127(13) 1.1975(12)
O12A O 0.5975(8) 1.1859(11) 1.1344(11)
N1A N 0.4961(8) 0.6788(10) 0.6946(11)
N2A N 0.7057(9) 0.4481(13) 0.5859(13)
N3A N 0.7002(9) 0.0744(13) 0.8534(15)
N4A N 0.4990(8) 0.8201(9) 0.8018(11)
N5A N 0.7083(10) 1.4228(13) 1.0534(15)
N6A N 0.7031(8) 1.0567(12) 1.3253(13)
N7A N 0.5789(12) 0.7541(13) 0.8261(16)
N8A N 0.7470(9) 1.0275(16) 1.4730(17)
C1A C 0.4656(10) 0.6343(14) 0.6682(15)
H1A H 0.4454 0.6379 0.6744
C2A C 0.4625(10) 0.5837(13) 0.6326(14)
H2A H 0.4404 0.5527 0.6146
C3A C 0.4910(10) 0.5778(12) 0.6229(14)
C4A C 0.5218(10) 0.6229(14) 0.6491(14)
H3A H 0.5422 0.6204 0.6434
C5A C 0.5231(10) 0.6732(13) 0.6848(15)
H4A H 0.5448 0.7048 0.7029
C6A C 0.4885(13) 0.5240(15) 0.5844(17)
C7A C 0.4528(11) 0.4305(15) 0.5230(16)
H5A H 0.4507 0.4508 0.4879
H6A H 0.4255 0.4092 0.5035
C8A C 0.6750(12) 0.4651(16) 0.5870(18)
H7A H 0.6758 0.5069 0.6025
C9A C 0.6421(11) 0.4245(16) 0.5667(15)
H8A H 0.6216 0.4378 0.5703
C10A C 0.6386(9) 0.3658(14) 0.5414(14)
C11A C 0.6694(12) 0.3482(17) 0.5384(18)
H9A H 0.6676 0.3082 0.5194
C12A C 0.7028(12) 0.3894(19) 0.563(2)
H10A H 0.7251 0.3751 0.5639
C13A C 0.6036(11) 0.3202(16) 0.5173(16)
C14A C 0.5486(10) 0.2910(14) 0.5189(16)
H11A H 0.5254 0.2929 0.4719
H12A H 0.5592 0.2459 0.5308
C15A C 0.6954(14) 0.100(2) 0.8934(19)
H13A H 0.7125 0.0852 0.9365
C16A C 0.6652(14) 0.149(2) 0.873(2)
H14A H 0.6634 0.1701 0.9022
C17A C 0.6390(12) 0.165(2) 0.810(2)
C18A C 0.6437(12) 0.1396(18) 0.7697(18)
H15A H 0.6265 0.1534 0.7262
C19A C 0.6735(12) 0.0940(19) 0.7921(18)
H16A H 0.6758 0.0745 0.7627
C20A C 0.607(2) 0.220(3) 0.788(3)
C21A C 0.5480(16) 0.278(2) 0.704(2)
H17A H 0.5585 0.3137 0.7354
H18A H 0.5241 0.2568 0.6973
C22A C 0.5339(11) 0.3052(16) 0.6424(17)
C23A C 0.5041(12) 0.3522(16) 0.6145(19)
H19A H 0.4942 0.3669 0.6360
C24A C 0.4873(9) 0.3799(13) 0.5557(15)
C25A C 0.5025(10) 0.3592(13) 0.5264(16)
H20A H 0.4916 0.3779 0.4864
C26A C 0.5334(10) 0.3116(14) 0.5528(16)
C27A C 0.5495(11) 0.2855(15) 0.6117(17)
H21A H 0.5713 0.2539 0.6314
C28A C 0.5251(9) 0.8196(13) 0.8657(14)
H22A H 0.5443 0.7846 0.8878
C29A C 0.5254(10) 0.8673(13) 0.9004(14)
H23A H 0.5442 0.8652 0.9459
C30A C 0.4974(10) 0.9197(13) 0.8679(15)
C31A C 0.4704(9) 0.9199(12) 0.8028(14)
H24A H 0.4512 0.9549 0.7798
C32A C 0.4708(10) 0.8694(13) 0.7703(15)
H25A H 0.4510 0.8689 0.7247
C33A C 0.4995(12) 0.9728(15) 0.907(2)
C34A C 0.4671(12) 1.0717(16) 0.9014(19)
H26A H 0.4652 1.0524 0.9329
H27A H 0.4405 1.0954 0.8690
C35A C 0.6771(12) 1.4376(18) 0.9938(19)
H28A H 0.6777 1.4786 0.9784
C36A C 0.6428(13) 1.397(2) 0.951(2)
H29A H 0.6211 1.4095 0.9077
C37A C 0.6415(14) 1.340(2) 0.973(2)
C38A C 0.6732(16) 1.324(2) 1.034(2)
H30A H 0.6728 1.2835 1.0510
C39A C 0.7080(14) 1.368(2) 1.074(2)
H31A H 0.7312 1.3556 1.1169
C40A C 0.6060(17) 1.293(3) 0.931(3)
C41A C 0.580(2) 1.189(3) 0.912(3)
H32A H 0.5922 1.1467 0.9136
H33A H 0.5603 1.2036 0.8667
C42A C 0.6733(11) 1.0721(17) 1.3277(16)
H34A H 0.6738 1.0542 1.3605
C43A C 0.6406(11) 1.1146(19) 1.2828(18)
H35A H 0.6191 1.1241 1.2852
C44A C 0.6390(10) 1.1425(15) 1.2356(14)
C45A C 0.6712(12) 1.1259(18) 1.2349(17)
H36A H 0.6713 1.1430 1.2024
C46A C 0.7030(12) 1.0852(19) 1.2803(19)
H37A H 0.7256 1.0768 1.2802
C47A C 0.6044(11) 1.1838(15) 1.1885(17)
C48A C 0.5623(12) 1.2233(17) 1.0820(14)
H38A H 0.5710 1.2688 1.0851
H39A H 0.5390 1.2228 1.0837
C49A C 0.5036(12) 1.1180(14) 0.9351(17)
C50A C 0.5239(13) 1.1346(16) 0.9109(17)
H40A H 0.5160 1.1133 0.8736
C51A C 0.5548(15) 1.1804(17) 0.9395(18)
C52A C 0.5686(13) 1.2103(16) 0.9972(18)
H41A H 0.5913 1.2405 1.0188
C53A C 0.5482(13) 1.1944(15) 1.0217(16)
C54A C 0.5165(12) 1.1492(15) 0.9902(16)
H42A H 0.5028 1.1387 1.0070
C55A C 0.6115(17) 0.766(2) 0.863(2)
C56A C 0.652(2) 0.788(4) 0.916(3)
H43A H 0.6733 0.7555 0.9268
H44A H 0.6536 0.7957 0.9527
H45A H 0.6584 0.8288 0.9042
C57A C 0.7446(14) 1.045(2) 1.509(2)
C58A C 0.742(2) 1.059(4) 1.558(3)
H46A H 0.7292 1.1020 1.5501
H47A H 0.7705 1.0592 1.5999
H48A H 0.7247 1.0264 1.5576
N9A N 0.7497(12) 0.952(2) 1.2972(19)
C59A C 0.7494(14) 0.952(2) 1.258(2)
C60A C 0.756(3) 0.958(8) 1.210(3)
H49A H 0.7401 0.9234 1.1784
H50A H 0.7859 0.9541 1.2322
H51A H 0.7453 1.0002 1.1892
Cu2B Cu 0.75288(12) 1.49004(19) 1.1136(2)
Cu2C Cu 0.24712(12) 1.49004(19) 0.3864(2)
Cu2D Cu 0.74712(12) 0.00996(19) 0.8864(2)
Cu2E Cu 0.25288(12) 0.00996(19) 0.6136(2)
Cu2F Cu 0.24712(12) 0.50996(19) 0.8864(2)
Cu2G Cu 0.75288(12) 0.50996(19) 0.6136(2)
N2F N 0.2057(9) 1.0519(13) 0.0859(13)
N2G N 0.7943(9) 1.0519(13) 1.4141(13)
N3D N 0.7002(9) 0.9256(13) 1.3534(15)
N3E N 0.2998(9) 0.9256(13) 0.1466(15)
N5B N 0.7917(10) 0.9228(13) 1.4466(15)
N5C N 0.2083(10) 0.9228(13) 0.0534(15)
loop_
_geom_bond_atom_site_label_1
_geom_bond_atom_site_label_2
_geom_bond_site_symmetry_1
_geom_bond_site_symmetry_2
Cu1 N1 1_555 1_555
Cu2 N6 1_555 1_555
O1 C6 1_555 1_555
O2 C6 1_555 1_555
O3 C13 1_555 1_555
O4 C13 1_555 1_555
O5 C20 1_555 1_555
O6 C20 1_555 1_555
O7 C33 1_555 1_555
O8 C33 1_555 1_555
O9 C40 1_555 1_555
O10 C40 1_555 1_555
O11 C47 1_555 1_555
O12 C47 1_555 1_555
N1 C1 1_555 1_555
N2 C8 1_555 1_555
N3 C15 1_555 1_555
N4 Cu1 1_555 1_555
N5 C35 1_555 1_555
N6 C42 1_555 1_555
N7 Cu1 1_555 1_555
N8 Cu2 1_555 1_555
C1 H1 1_555 1_555
C2 C1 1_555 1_555
H2 C2 1_555 1_555
C3 C2 1_555 1_555
C4 C3 1_555 1_555
H3 C4 1_555 1_555
C5 N1 1_555 1_555
H4 C5 1_555 1_555
C6 C3 1_555 1_555
C7 O2 1_555 1_555
H5 C7 1_555 1_555
H6 C7 1_555 1_555
C8 H7 1_555 1_555
C9 C8 1_555 1_555
H8 C9 1_555 1_555
C10 C9 1_555 1_555
C11 C10 1_555 1_555
H9 C11 1_555 1_555
C12 N2 1_555 1_555
H10 C12 1_555 1_555
C13 C10 1_555 1_555
C14 O4 1_555 1_555
H11 C14 1_555 1_555
H12 C14 1_555 1_555
C15 H13 1_555 1_555
C16 C15 1_555 1_555
H14 C16 1_555 1_555
C17 C16 1_555 1_555
C18 C17 1_555 1_555
H15 C18 1_555 1_555
C19 N3 1_555 1_555
H16 C19 1_555 1_555
C20 C17 1_555 1_555
C21 O6 1_555 1_555
H17 C21 1_555 1_555
H18 C21 1_555 1_555
C22 C21 1_555 1_555
C23 C22 1_555 1_555
H19 C23 1_555 1_555
C24 C7 1_555 1_555
C25 C24 1_555 1_555
H20 C25 1_555 1_555
C26 C14 1_555 1_555
C27 C22 1_555 1_555
H21 C27 1_555 1_555
C28 N4 1_555 1_555
H22 C28 1_555 1_555
C29 C28 1_555 1_555
H23 C29 1_555 1_555
C30 C29 1_555 1_555
C31 C30 1_555 1_555
H24 C31 1_555 1_555
C32 N4 1_555 1_555
H25 C32 1_555 1_555
C33 C30 1_555 1_555
C34 O8 1_555 1_555
H26 C34 1_555 1_555
H27 C34 1_555 1_555
C35 H28 1_555 1_555
C36 C35 1_555 1_555
H29 C36 1_555 1_555
C37 C36 1_555 1_555
C38 C37 1_555 1_555
H30 C38 1_555 1_555
C39 N5 1_555 1_555
H31 C39 1_555 1_555
C40 C37 1_555 1_555
C41 O10 1_555 1_555
H32 C41 1_555 1_555
H33 C41 1_555 1_555
C42 H34 1_555 1_555
C43 C42 1_555 1_555
H35 C43 1_555 1_555
C44 C43 1_555 1_555
C45 C44 1_555 1_555
H36 C45 1_555 1_555
C46 N6 1_555 1_555
H37 C46 1_555 1_555
C47 C44 1_555 1_555
C48 O12 1_555 1_555
H38 C48 1_555 1_555
H39 C48 1_555 1_555
C49 C34 1_555 1_555
C50 C49 1_555 1_555
H40 C50 1_555 1_555
C51 C41 1_555 1_555
C52 C51 1_555 1_555
H41 C52 1_555 1_555
C53 C48 1_555 1_555
C54 C49 1_555 1_555
H42 C54 1_555 1_555
C55 N7 1_555 1_555
C56 C55 1_555 1_555
H43 C56 1_555 1_555
H44 C56 1_555 1_555
H45 C56 1_555 1_555
C57 N8 1_555 1_555
C58 C57 1_555 1_555
H46 C58 1_555 1_555
H47 C58 1_555 1_555
H48 C58 1_555 1_555
N9 Cu2 1_555 1_555
C59 N9 1_555 1_555
C60 C59 1_555 1_555
H49 C60 1_555 1_555
H50 C60 1_555 1_555
H51 C60 1_555 1_555
Cl1 O13 1_555 1_555
O14 Cl1 1_555 1_555
O15 Cl1 1_555 1_555
O16 Cl1 1_555 1_555
Cl2 O17 1_555 1_555
O18 Cl2 1_555 1_555
O19 Cl2 1_555 1_555
O20 Cl2 1_555 1_555
Cl3 O21 1_555 1_555
O22 Cl3 1_555 1_555
O23 Cl3 1_555 1_555
O24 Cl3 1_555 1_555
Cu2A N6A 1_555 1_555
O1A C6A 1_555 1_555
O2A C6A 1_555 1_555
O3A C13A 1_555 1_555
O4A C13A 1_555 1_555
O5A C20A 1_555 1_555
O6A C20A 1_555 1_555
O7A C33A 1_555 1_555
O8A C33A 1_555 1_555
O9A C40A 1_555 1_555
O10A C40A 1_555 1_555
O11A C47A 1_555 1_555
O12A C47A 1_555 1_555
N1A Cu1 1_555 1_555
N2A C8A 1_555 1_555
N3A C15A 1_555 1_555
N4A Cu1 1_555 1_555
N5A C35A 1_555 1_555
N6A C42A 1_555 1_555
N7A Cu1 1_555 1_555
N8A Cu2A 1_555 1_555
C1A N1A 1_555 1_555
H1A C1A 1_555 1_555
C2A C1A 1_555 1_555
H2A C2A 1_555 1_555
C3A C2A 1_555 1_555
C4A C3A 1_555 1_555
H3A C4A 1_555 1_555
C5A N1A 1_555 1_555
H4A C5A 1_555 1_555
C6A C3A 1_555 1_555
C7A O2A 1_555 1_555
H5A C7A 1_555 1_555
H6A C7A 1_555 1_555
C8A H7A 1_555 1_555
C9A C8A 1_555 1_555
H8A C9A 1_555 1_555
C10A C9A 1_555 1_555
C11A C10A 1_555 1_555
H9A C11A 1_555 1_555
C12A N2A 1_555 1_555
H10A C12A 1_555 1_555
C13A C10A 1_555 1_555
C14A O4A 1_555 1_555
H11A C14A 1_555 1_555
H12A C14A 1_555 1_555
C15A H13A 1_555 1_555
C16A C15A 1_555 1_555
H14A C16A 1_555 1_555
C17A C16A 1_555 1_555
C18A C17A 1_555 1_555
H15A C18A 1_555 1_555
C19A N3A 1_555 1_555
H16A C19A 1_555 1_555
C20A C17A 1_555 1_555
C21A O6A 1_555 1_555
H17A C21A 1_555 1_555
H18A C21A 1_555 1_555
C22A C21A 1_555 1_555
C23A C22A 1_555 1_555
H19A C23A 1_555 1_555
C24A C7A 1_555 1_555
C25A C24A 1_555 1_555
H20A C25A 1_555 1_555
C26A C14A 1_555 1_555
C27A C22A 1_555 1_555
H21A C27A 1_555 1_555
C28A N4A 1_555 1_555
H22A C28A 1_555 1_555
C29A C28A 1_555 1_555
H23A C29A 1_555 1_555
C30A C29A 1_555 1_555
C31A C30A 1_555 1_555
H24A C31A 1_555 1_555
C32A N4A 1_555 1_555
H25A C32A 1_555 1_555
C33A C30A 1_555 1_555
C34A O8A 1_555 1_555
H26A C34A 1_555 1_555
H27A C34A 1_555 1_555
C35A H28A 1_555 1_555
C36A C35A 1_555 1_555
H29A C36A 1_555 1_555
C37A C36A 1_555 1_555
C38A C37A 1_555 1_555
H30A C38A 1_555 1_555
C39A N5A 1_555 1_555
H31A C39A 1_555 1_555
C40A C37A 1_555 1_555
C41A O10A 1_555 1_555
H32A C41A 1_555 1_555
H33A C41A 1_555 1_555
C42A H34A 1_555 1_555
C43A C42A 1_555 1_555
H35A C43A 1_555 1_555
C44A C43A 1_555 1_555
C45A C44A 1_555 1_555
H36A C45A 1_555 1_555
C46A N6A 1_555 1_555
H37A C46A 1_555 1_555
C47A C44A 1_555 1_555
C48A O12A 1_555 1_555
H38A C48A 1_555 1_555
H39A C48A 1_555 1_555
C49A C34A 1_555 1_555
C50A C49A 1_555 1_555
H40A C50A 1_555 1_555
C51A C41A 1_555 1_555
C52A C51A 1_555 1_555
H41A C52A 1_555 1_555
C53A C48A 1_555 1_555
C54A C49A 1_555 1_555
H42A C54A 1_555 1_555
C55A N7A 1_555 1_555
C56A C55A 1_555 1_555
H43A C56A 1_555 1_555
H44A C56A 1_555 1_555
H45A C56A 1_555 1_555
C57A N8A 1_555 1_555
C58A C57A 1_555 1_555
H46A C58A 1_555 1_555
H47A C58A 1_555 1_555
H48A C58A 1_555 1_555
N9A Cu2A 1_555 1_555
C59A N9A 1_555 1_555
C60A C59A 1_555 1_555
H49A C60A 1_555 1_555
H50A C60A 1_555 1_555
H51A C60A 1_555 1_555
Cu2B N5A 1_555 1_555
Cu2C N5 1_555 1_555
Cu2D N3A 1_555 1_555
Cu2E N3 1_555 1_555
Cu2F N2 1_555 1_555
Cu2G N2A 1_555 1_555
N2F Cu2 1_555 1_555
N2G Cu2A 1_555 1_555
N3D Cu2A 1_555 1_555
N3E Cu2 1_555 1_555
N5B Cu2A 1_555 1_555
N5C Cu2 1_555 1_555
C4 C5 1_555 1_555
C11 C12 1_555 1_555
C18 C19 1_555 1_555
C23 C24 1_555 1_555
C25 C26 1_555 1_555
C26 C27 1_555 1_555
C31 C32 1_555 1_555
C38 C39 1_555 1_555
C45 C46 1_555 1_555
C50 C51 1_555 1_555
C52 C53 1_555 1_555
C53 C54 1_555 1_555
C4A C5A 1_555 1_555
C11A C12A 1_555 1_555
C18A C19A 1_555 1_555
C23A C24A 1_555 1_555
C25A C26A 1_555 1_555
C26A C27A 1_555 1_555
C31A C32A 1_555 1_555
C38A C39A 1_555 1_555
C45A C46A 1_555 1_555
C50A C51A 1_555 1_555
C52A C53A 1_555 1_555
C53A C54A 1_555 1_555

#END
