
#######################################################################
#
#                 Cambridge Crystallographic Data Centre
#                                CCDC 
#
#######################################################################
#
# If this CIF has been generated from an entry in the Cambridge 
# Structural Database, then it will include bibliographic, chemical, 
# crystal, experimental, refinement or atomic coordinate data resulting 
# from the CCDC's data processing and validation procedures.
#
#######################################################################

data_DOTHIE
_symmetry_cell_setting           monoclinic
_symmetry_space_group_name_H-M   'P 21/n'
_symmetry_Int_Tables_number      14
_space_group_name_Hall           '-P 2yn'
loop_
_symmetry_equiv_pos_site_id
_symmetry_equiv_pos_as_xyz
1 x,y,z
2 1/2-x,1/2+y,1/2-z
3 -x,-y,-z
4 1/2+x,1/2-y,1/2+z
_cell_length_a                   9.168(5)
_cell_length_b                   9.959(5)
_cell_length_c                   9.850(5)
_cell_angle_alpha                90
_cell_angle_beta                 105.360(11)
_cell_angle_gamma                90
_cell_volume                     867.221
loop_
_atom_site_label
_atom_site_type_symbol
_atom_site_fract_x
_atom_site_fract_y
_atom_site_fract_z
Co1 Co 0.5000 0.5000 0.5000
N1 N 0.68147(15) 0.54145(15) 0.40573(14)
N2 N 0.85258(18) 0.50105(14) 0.28684(16)
H1 H 0.8966 0.4619 0.2280
N3 N 0.09706(17) 0.42159(16) 0.13619(17)
N4 N 0.34075(16) 0.48004(14) 0.30175(15)
N5 N 0.05023(16) 0.21019(15) 0.00124(16)
C1 C 0.79581(18) 0.63877(17) 0.44212(17)
C2 C 0.81521(19) 0.74693(17) 0.53568(18)
H2 H 0.7415 0.7678 0.5845
C3 C 0.9458(2) 0.82253(18) 0.55455(19)
H3 H 0.9620 0.8960 0.6183
C4 C 1.0547(2) 0.79378(18) 0.4823(2)
H4 H 1.1432 0.8477 0.4989
C5 C 1.03637(19) 0.68889(18) 0.38769(19)
H5 H 1.1098 0.6694 0.3382
C6 C 0.90463(19) 0.61304(17) 0.36853(18)
C7 C 0.7216(2) 0.46291(18) 0.31416(18)
H6 H 0.6644 0.3872 0.2717
C8 C 0.22969(19) 0.44736(17) 0.22241(17)
C9 C 0.07843(17) 0.30774(17) 0.06624(17)
Co1A Co 0.0000 0.0000 0.0000
Co1A_2 Co 1.0000 1.0000 1.0000
N1B N 0.31853(15) 0.45855(15) 0.59427(14)
N2B N 0.14742(18) 0.49895(14) 0.71316(16)
H1B H 0.1034 0.5381 0.7720
N3B N 0.90294(17) 0.57841(16) 0.86381(17)
N4B N 0.65925(16) 0.51996(14) 0.69825(15)
N5B N 0.94977(16) 0.78981(15) 0.99876(16)
N5A N 0.44977(16) 0.71019(15) 0.49876(16)
N5C N 0.55023(16) 0.28981(15) 0.50124(16)
C1B C 0.20419(18) 0.36123(17) 0.55788(17)
C2B C 0.18479(19) 0.25307(17) 0.46432(18)
H2B H 0.2585 0.2322 0.4155
C3B C 0.0542(2) 0.17747(18) 0.44545(19)
H3B H 0.0380 0.1040 0.3817
C4B C -0.0547(2) 0.20622(18) 0.5177(2)
H4B H -0.1432 0.1523 0.5011
C5B C -0.03637(19) 0.31111(18) 0.61231(19)
H5B H -0.1098 0.3306 0.6618
C6B C 0.09537(19) 0.38696(17) 0.63147(18)
C7B C 0.2784(2) 0.53709(18) 0.68584(18)
H6B H 0.3356 0.6128 0.7283
C8B C 0.77031(19) 0.55264(17) 0.77759(17)
C9B C 0.92157(17) 0.69226(17) 0.93376(17)
loop_
_geom_bond_atom_site_label_1
_geom_bond_atom_site_label_2
_geom_bond_site_symmetry_1
_geom_bond_site_symmetry_2
Co1 N1 1_555 1_555
N1 C1 1_555 1_555
N2 H1 1_555 1_555
N3 C8 1_555 1_555
N4 Co1 1_555 1_555
N5 C9 1_555 1_555
C1 C2 1_555 1_555
C2 H2 1_555 1_555
C3 C2 1_555 1_555
H3 C3 1_555 1_555
C4 C3 1_555 1_555
H4 C4 1_555 1_555
C5 C4 1_555 1_555
H5 C5 1_555 1_555
C6 N2 1_555 1_555
C7 N1 1_555 1_555
H6 C7 1_555 1_555
C8 N4 1_555 1_555
C9 N3 1_555 1_555
Co1A N5 1_555 1_555
Co1A_2 N5B 1_555 1_555
N1B Co1 1_555 1_555
N2B H1B 1_555 1_555
N3B C8B 1_555 1_555
N4B Co1 1_555 1_555
N5B C9B 1_555 1_555
N5A Co1 1_555 1_555
N5C Co1 1_555 1_555
C1B N1B 1_555 1_555
C2B C1B 1_555 1_555
H2B C2B 1_555 1_555
C3B C2B 1_555 1_555
H3B C3B 1_555 1_555
C4B C3B 1_555 1_555
H4B C4B 1_555 1_555
C5B C4B 1_555 1_555
H5B C5B 1_555 1_555
C6B N2B 1_555 1_555
C7B N1B 1_555 1_555
H6B C7B 1_555 1_555
C8B N4B 1_555 1_555
C9B N3B 1_555 1_555
N2 C7 1_555 1_555
C1 C6 1_555 1_555
C5 C6 1_555 1_555
N2B C7B 1_555 1_555
C1B C6B 1_555 1_555
C5B C6B 1_555 1_555

#END
