
#######################################################################
#
#                 Cambridge Crystallographic Data Centre
#                                CCDC 
#
#######################################################################
#
# If this CIF has been generated from an entry in the Cambridge 
# Structural Database, then it will include bibliographic, chemical, 
# crystal, experimental, refinement or atomic coordinate data resulting 
# from the CCDC's data processing and validation procedures.
#
#######################################################################

data_DOTJAZ
_symmetry_cell_setting           monoclinic
_symmetry_space_group_name_H-M   'C 2'
_symmetry_Int_Tables_number      5
_space_group_name_Hall           'C 2y'
loop_
_symmetry_equiv_pos_site_id
_symmetry_equiv_pos_as_xyz
1 x,y,z
2 -x,y,-z
3 1/2+x,1/2+y,z
4 1/2-x,1/2+y,-z
_cell_length_a                   20.520(6)
_cell_length_b                   10.281(3)
_cell_length_c                   13.813(4)
_cell_angle_alpha                90
_cell_angle_beta                 125.503(5)
_cell_angle_gamma                90
_cell_volume                     2372.31
loop_
_atom_site_label
_atom_site_type_symbol
_atom_site_fract_x
_atom_site_fract_y
_atom_site_fract_z
Zn1 Zn 0.74492(5) 0.04775(8) 0.88286(7)
C1 C 0.7601(4) 0.0466(12) 1.1934(6)
N1 N 0.8682(4) 0.2497(6) 1.0209(6)
H1 H 0.8413 0.2746 1.0493
N2 N 0.8391(4) 0.1624(7) 0.9320(6)
N3 N 0.7446(6) -0.1525(9) 1.4041(8)
C2 C 0.7644(5) 0.0265(12) 1.0882(8)
C3 C 0.9400(6) 0.2947(10) 1.0619(9)
C4 C 0.7569(7) 0.1702(10) 1.2298(9)
C5 C 0.7572(6) -0.0615(10) 1.2519(9)
H2 H 0.7619 -0.1471 1.2306
C6 C 0.7486(8) 0.1876(10) 1.3223(11)
H3 H 0.7482 0.2730 1.3482
C7 C 0.9613(5) 0.2365(8) 0.9929(8)
C8 C 0.9847(6) 0.3917(11) 1.1603(10)
H4 H 0.9529 0.4714 1.1388
H5 H 1.0359 0.4118 1.1733
H6 H 0.9946 0.3554 1.2333
C9 C 0.8981(5) 0.1538(8) 0.9156(8)
C10 C 0.7412(8) 0.0839(9) 1.3755(10)
H7 H 0.7321 0.0952 1.4350
C11 C 0.8893(6) 0.0670(12) 0.8214(8)
H8 H 0.9148 -0.0170 0.8566
H9 H 0.9149 0.1078 0.7873
H10 H 0.8323 0.0534 0.7586
C12 C 0.7475(7) -0.0415(10) 1.3403(9)
O1 O 0.8337(4) 0.2977(6) 1.1840(5)
N4 N 0.6445(4) 0.1232(7) 0.7407(6)
C13 C 0.5980(5) 0.0998(8) 0.6236(8)
C14 C 0.5324(5) 0.1823(9) 0.5644(8)
O2 O 0.8030(5) -0.0718(7) 1.0907(7)
C15 C 0.6191(6) -0.0059(11) 0.5713(9)
H11 H 0.6773 -0.0091 0.6132
H12 H 0.5936 0.0121 0.4868
H13 H 0.6001 -0.0897 0.5797
C16 C 0.7739(6) 0.2899(8) 1.1851(8)
O3 O 0.7265(4) 0.1020(6) 1.0028(5)
O4 O 0.7259(4) 0.3857(5) 1.1579(5)
C17 C 0.5071(12) 0.4025(19) 0.6366(18)
H14 H 0.4618 0.4185 0.5564
H15 H 0.4893 0.3933 0.6870
H16 H 0.5437 0.4742 0.6638
N5 N 0.6003(14) 0.209(2) 0.757(2)
H17 H 0.6060 0.2121 0.8267
C18 C 0.5334(14) 0.242(2) 0.661(2)
O5 O 0.7558(11) -0.1250(14) 1.5014(14)
O6 O 0.7856(9) -0.2553(14) 1.4121(13)
N1A N 1.1318(4) 0.2497(6) 0.9791(6)
H1A H 1.1587 0.2746 0.9507
N2A N 1.1609(4) 0.1624(7) 1.0680(6)
C3A C 1.0600(6) 0.2947(10) 0.9381(9)
C7A C 1.0387(5) 0.2365(8) 1.0071(8)
C8A C 1.0153(6) 0.3917(11) 0.8397(10)
H4A H 1.0471 0.4714 0.8612
H5A H 0.9641 0.4118 0.8267
H6A H 1.0054 0.3554 0.7667
C9A C 1.1019(5) 0.1538(8) 1.0844(8)
C11A C 1.1107(6) 0.0670(12) 1.1786(8)
H8A H 1.0852 -0.0170 1.1434
H9A H 1.0851 0.1078 1.2127
H10A H 1.1677 0.0534 1.2414
N4A N 0.3555(4) 0.1232(7) 0.2593(6)
C13A C 0.4020(5) 0.0998(8) 0.3764(8)
C14A C 0.4676(5) 0.1823(9) 0.4356(8)
C15A C 0.3809(6) -0.0059(11) 0.4287(9)
H11A H 0.3227 -0.0091 0.3868
H12A H 0.4064 0.0121 0.5132
H13A H 0.3999 -0.0897 0.4203
C17A C 0.4929(12) 0.4025(19) 0.3634(18)
H14A H 0.5382 0.4185 0.4436
H15A H 0.5107 0.3933 0.3130
H16A H 0.4563 0.4742 0.3362
N5A N 0.3997(14) 0.209(2) 0.243(2)
H17A H 0.3940 0.2121 0.1733
C18A C 0.4666(14) 0.242(2) 0.339(2)
Zn1A Zn 0.25508(5) 0.04775(8) 0.11714(7)
C1A C 0.2399(4) 0.0466(12) -0.1934(6)
N3A N 0.2554(6) -0.1525(9) -0.4041(8)
C2A C 0.2356(5) 0.0265(12) -0.0882(8)
C4A C 0.2431(7) 0.1702(10) -0.2298(9)
C5A C 0.2428(6) -0.0615(10) -0.2519(9)
H2A H 0.2381 -0.1471 -0.2306
C6A C 0.2514(8) 0.1876(10) -0.3223(11)
H3A H 0.2518 0.2730 -0.3482
C10A C 0.2588(8) 0.0839(9) -0.3755(10)
H7A H 0.2679 0.0952 -0.4350
C12A C 0.2525(7) -0.0415(10) -0.3403(9)
O1A O 0.1663(4) 0.2977(6) -0.1840(5)
O2A O 0.1970(5) -0.0718(7) -0.0907(7)
C16A C 0.2261(6) 0.2899(8) -0.1851(8)
O3A O 0.2735(4) 0.1020(6) -0.0028(5)
O4A O 0.2741(4) 0.3857(5) -0.1579(5)
O5A O 0.2442(11) -0.1250(14) -0.5014(14)
O6A O 0.2144(9) -0.2553(14) -0.4121(13)
Zn1A_2 Zn 1.25508(5) 0.04775(8) 1.11714(7)
Zn1B Zn 0.24492(5) 0.54775(8) -0.11714(7)
Zn1C Zn 0.75508(5) 0.54775(8) 1.11714(7)
N2A_2 N 0.1609(4) 0.1624(7) 0.0680(6)
O4B O 0.2259(4) -0.1143(5) 0.1579(5)
O4C O 0.7741(4) -0.1143(5) 0.8421(5)
O7 O 0.4284(12) 0.299(3) 0.0546(19)
N6? N 0.6137(14) 0.237(2) 0.750(2)
H18? H 0.6469 0.2967 0.8044
C19? C 0.5457(14) 0.278(2) 0.640(2)
C20? C 0.4743(12) 0.3411(19) 0.6504(17)
H19? H 0.4906 0.3618 0.7293
H20? H 0.4759 0.4183 0.6127
H21? H 0.4208 0.3070 0.6050
O8? O 0.7343(9) -0.2639(14) 1.3621(12)
O9? O 0.6990(11) -0.1432(14) 1.4410(14)
O10? O 0.456(2) 0.226(4) -0.002(4)
loop_
_geom_bond_atom_site_label_1
_geom_bond_atom_site_label_2
_geom_bond_site_symmetry_1
_geom_bond_site_symmetry_2
Zn1 N2 1_555 1_555
C1 C2 1_555 1_555
N1 H1 1_555 1_555
N2 N1 1_555 1_555
N3 C12 1_555 1_555
C2 O2 1_555 1_555
C3 N1 1_555 1_555
C4 C1 1_555 1_555
C5 C1 1_555 1_555
H2 C5 1_555 1_555
C6 C4 1_555 1_555
H3 C6 1_555 1_555
C7 C3 1_555 1_555
C8 C3 1_555 1_555
H4 C8 1_555 1_555
H5 C8 1_555 1_555
H6 C8 1_555 1_555
C9 N2 1_555 1_555
C10 C6 1_555 1_555
H7 C10 1_555 1_555
C11 C9 1_555 1_555
H8 C11 1_555 1_555
H9 C11 1_555 1_555
H10 C11 1_555 1_555
C12 C5 1_555 1_555
O1 C16 1_555 1_555
N4 Zn1 1_555 1_555
C13 N4 1_555 1_555
C14 C13 1_555 1_555
C15 C13 1_555 1_555
H11 C15 1_555 1_555
H12 C15 1_555 1_555
H13 C15 1_555 1_555
C16 C4 1_555 1_555
O3 Zn1 1_555 1_555
O4 C16 1_555 1_555
C17 H14 1_555 1_555
H15 C17 1_555 1_555
H16 C17 1_555 1_555
N5 N4 1_555 1_555
H17 N5 1_555 1_555
C18 C14 1_555 1_555
O5 N3 1_555 1_555
O6 N3 1_555 1_555
N1A H1A 1_555 1_555
N2A N1A 1_555 1_555
C3A N1A 1_555 1_555
C7A C7 1_555 1_555
C8A C3A 1_555 1_555
H4A C8A 1_555 1_555
H5A C8A 1_555 1_555
H6A C8A 1_555 1_555
C9A N2A 1_555 1_555
C11A C9A 1_555 1_555
H8A C11A 1_555 1_555
H9A C11A 1_555 1_555
H10A C11A 1_555 1_555
N4A C13A 1_555 1_555
C13A C14A 1_555 1_555
C14A C14 1_555 1_555
C15A C13A 1_555 1_555
H11A C15A 1_555 1_555
H12A C15A 1_555 1_555
H13A C15A 1_555 1_555
C17A H14A 1_555 1_555
H15A C17A 1_555 1_555
H16A C17A 1_555 1_555
N5A N4A 1_555 1_555
H17A N5A 1_555 1_555
C18A C14A 1_555 1_555
Zn1A N4A 1_555 1_555
C1A C2A 1_555 1_555
N3A C12A 1_555 1_555
C2A O2A 1_555 1_555
C4A C1A 1_555 1_555
C5A C1A 1_555 1_555
H2A C5A 1_555 1_555
C6A C4A 1_555 1_555
H3A C6A 1_555 1_555
C10A C6A 1_555 1_555
H7A C10A 1_555 1_555
C12A C5A 1_555 1_555
O1A C16A 1_555 1_555
C16A C4A 1_555 1_555
O3A Zn1A 1_555 1_555
O4A C16A 1_555 1_555
O5A N3A 1_555 1_555
O6A N3A 1_555 1_555
Zn1A_2 N2A 1_555 1_555
Zn1B O4A 1_555 1_555
Zn1C O4 1_555 1_555
N2A_2 Zn1A 1_555 1_555
O4B Zn1A 1_555 1_555
O4C Zn1 1_555 1_555
C2 O3 1_555 1_555
C7 C9 1_555 1_555
C10 C12 1_555 1_555
C17 C18 1_555 1_555
N5 C18 1_555 1_555
C3A C7A 1_555 1_555
C7A C9A 1_555 1_555
C17A C18A 1_555 1_555
N5A C18A 1_555 1_555
C2A O3A 1_555 1_555
C10A C12A 1_555 1_555

#END
