
#######################################################################
#
#                 Cambridge Crystallographic Data Centre
#                                CCDC 
#
#######################################################################
#
# If this CIF has been generated from an entry in the Cambridge 
# Structural Database, then it will include bibliographic, chemical, 
# crystal, experimental, refinement or atomic coordinate data resulting 
# from the CCDC's data processing and validation procedures.
#
#######################################################################

data_DOTTUC
_symmetry_cell_setting           trigonal
_symmetry_space_group_name_H-M   'P 32 2 1'
_symmetry_Int_Tables_number      154
_space_group_name_Hall           'P 32 2"'
loop_
_symmetry_equiv_pos_site_id
_symmetry_equiv_pos_as_xyz
1 x,y,z
2 -y,x-y,2/3+z
3 -x+y,-x,1/3+z
4 y,x,-z
5 x-y,-y,1/3-z
6 -x,-x+y,2/3-z
_cell_length_a                   12.9913(3)
_cell_length_b                   12.9913(3)
_cell_length_c                   17.3911(11)
_cell_angle_alpha                90
_cell_angle_beta                 90
_cell_angle_gamma                120
_cell_volume                     2541.93
loop_
_atom_site_label
_atom_site_type_symbol
_atom_site_fract_x
_atom_site_fract_y
_atom_site_fract_z
In1 In 0.62290(7) -0.37710(7) 0.5000
O1 O 0.6755(8) -0.1865(7) 0.4857(4)
O3 O 0.4884(7) -0.3086(7) 0.5129(4)
O4 O 0.5029(8) 0.0186(8) 0.2567(5)
O5 O 0.3327(8) -0.0236(8) 0.3021(4)
C1 C 0.5407(10) -0.1076(9) 0.4849(6)
C2 C 0.4558(11) -0.1338(10) 0.4135(6)
C3 C 0.4791(11) -0.0093(11) 0.3930(6)
H1 H 0.4369 0.0126 0.4304
C4 C 0.6151(13) 0.0743(13) 0.4055(9)
H2 H 0.6591 0.0826 0.3586
H3 H 0.6323 0.1525 0.4226
C5 C 0.6444(14) 0.0126(12) 0.4662(10)
H4 H 0.6691 0.0610 0.5124
H5 H 0.7105 0.0036 0.4491
C6 C 0.4918(16) -0.0907(18) 0.5615(7)
H6 H 0.5477 -0.0766 0.6019
H7 H 0.4176 -0.1611 0.5729
H8 H 0.4794 -0.0240 0.5574
C7 C 0.3295(12) -0.2154(14) 0.4318(10)
H9 H 0.2821 -0.2277 0.3866
H10 H 0.3047 -0.1815 0.4717
H11 H 0.3194 -0.2902 0.4488
C8 C 0.4793(14) -0.1943(11) 0.3527(6)
H12 H 0.4269 -0.2070 0.3103
H13 H 0.4663 -0.2695 0.3712
H14 H 0.5602 -0.1468 0.3361
C9 C 0.5711(12) -0.2056(12) 0.4963(5)
C10 C 0.4355(12) -0.0021(9) 0.3133(6)
In1A In 0.37710(7) 0.00000(10) 0.1667
In1B In 1.00000(10) -0.62290(7) 0.8333
O1C O 0.8135(7) -0.3245(8) 0.5143(4)
O3C O 0.6914(7) -0.5116(7) 0.4871(4)
O4C O 1.0186(8) -0.4971(8) 0.7433(5)
O4B O 0.5157(11) -0.5029(8) 0.5900(5)
O4E O 0.4971(8) -0.4843(11) 0.4100(5)
O5C O 0.9764(8) -0.6673(8) 0.6979(4)
O5B O 0.6437(11) -0.3327(8) 0.6354(4)
O5E O 0.6673(8) -0.3563(11) 0.3646(4)
C1C C 0.8924(9) -0.4593(10) 0.5151(6)
C2C C 0.8662(10) -0.5442(11) 0.5865(6)
C3C C 0.9907(11) -0.5209(11) 0.6070(6)
H1C H 1.0126 -0.5631 0.5696
C4C C 1.0743(13) -0.3849(13) 0.5945(9)
H2C H 1.0826 -0.3409 0.6414
H3C H 1.1525 -0.3677 0.5774
C5C C 1.0126(12) -0.3556(14) 0.5338(10)
H4C H 1.0610 -0.3309 0.4876
H5C H 1.0036 -0.2895 0.5509
C6C C 0.9093(18) -0.5082(16) 0.4385(7)
H6C H 0.9234 -0.4523 0.3981
H7C H 0.8389 -0.5824 0.4271
H8C H 0.9760 -0.5206 0.4426
C7C C 0.7846(14) -0.6705(12) 0.5682(10)
H9C H 0.7723 -0.7179 0.6134
H10C H 0.8185 -0.6953 0.5283
H11C H 0.7098 -0.6806 0.5512
C8C C 0.8057(11) -0.5207(14) 0.6473(6)
H12C H 0.7930 -0.5731 0.6897
H13C H 0.7305 -0.5337 0.6288
H14C H 0.8532 -0.4398 0.6639
C9C C 0.7944(12) -0.4289(12) 0.5037(5)
C10C C 0.9979(9) -0.5645(12) 0.6867(6)
O2 O 0.161(2) -0.637(2) 0.4460(12)
C11 C 0.950(4) -0.149(4) 0.2424(18)
H15 H 1.0106 -0.1578 0.2174
H16 H 0.9316 -0.0982 0.2118
H17 H 0.8796 -0.2250 0.2481
C12 C 0.9096(18) -0.0744(19) 0.3702(10)
H18 H 0.9347 -0.0441 0.4213
H19 H 0.8393 -0.1513 0.3729
H20 H 0.8928 -0.0211 0.3418
N1 N 1.0000 -0.0841(12) 0.3333
C11E C 1.050(4) -0.099(6) 0.4243(18)
H15E H 0.9894 -0.1684 0.4493
H16E H 1.0684 -0.0298 0.4549
H17E H 1.1204 -0.1046 0.4186
C12E C 1.0904(18) 0.0160(26) 0.2965(10)
H18E H 1.0653 0.0212 0.2454
H19E H 1.1607 0.0094 0.2938
H20E H 1.1072 0.0861 0.3249
loop_
_geom_bond_atom_site_label_1
_geom_bond_atom_site_label_2
_geom_bond_site_symmetry_1
_geom_bond_site_symmetry_2
In1 O1 1_555 1_555
O1 C9 1_555 1_555
O3 In1 1_555 1_555
O4 C10 1_555 1_555
O5 C10 1_555 1_555
C1 C2 1_555 1_555
C2 C3 1_555 1_555
C3 H1 1_555 1_555
C4 C3 1_555 1_555
H2 C4 1_555 1_555
H3 C4 1_555 1_555
C5 C1 1_555 1_555
H4 C5 1_555 1_555
H5 C5 1_555 1_555
C6 C1 1_555 1_555
H6 C6 1_555 1_555
H7 C6 1_555 1_555
H8 C6 1_555 1_555
C7 C2 1_555 1_555
H9 C7 1_555 1_555
H10 C7 1_555 1_555
H11 C7 1_555 1_555
C8 C2 1_555 1_555
H12 C8 1_555 1_555
H13 C8 1_555 1_555
H14 C8 1_555 1_555
C9 O3 1_555 1_555
C10 C3 1_555 1_555
C11 H15 1_555 1_555
H16 C11 1_555 1_555
H17 C11 1_555 1_555
C12 H18 1_555 1_555
H19 C12 1_555 1_555
H20 C12 1_555 1_555
N1 C11 1_555 1_555
In1A O4 1_555 1_555
In1B O4C 1_555 1_555
O1C In1 1_555 1_555
O3C In1 1_555 1_555
O4C C10C 1_555 1_555
O4B In1 1_555 1_555
O4E In1 1_555 1_555
O5C In1B 1_555 1_555
O5B In1 1_555 1_555
O5E In1 1_555 1_555
C1C C2C 1_555 1_555
C2C C3C 1_555 1_555
C3C H1C 1_555 1_555
C4C C3C 1_555 1_555
H2C C4C 1_555 1_555
H3C C4C 1_555 1_555
C5C C1C 1_555 1_555
H4C C5C 1_555 1_555
H5C C5C 1_555 1_555
C6C C1C 1_555 1_555
H6C C6C 1_555 1_555
H7C C6C 1_555 1_555
H8C C6C 1_555 1_555
C7C C2C 1_555 1_555
H9C C7C 1_555 1_555
H10C C7C 1_555 1_555
H11C C7C 1_555 1_555
C8C C2C 1_555 1_555
H12C C8C 1_555 1_555
H13C C8C 1_555 1_555
H14C C8C 1_555 1_555
C9C O1C 1_555 1_555
C10C O5C 1_555 1_555
C11E N1 1_555 1_555
H15E C11E 1_555 1_555
H16E C11E 1_555 1_555
H17E C11E 1_555 1_555
C12E N1 1_555 1_555
H18E C12E 1_555 1_555
H19E C12E 1_555 1_555
H20E C12E 1_555 1_555
O5 In1A 1_555 1_555
C1 C9 1_555 1_555
C4 C5 1_555 1_555
C12 N1 1_555 1_555
O3C C9C 1_555 1_555
C1C C9C 1_555 1_555
C3C C10C 1_555 1_555
C4C C5C 1_555 1_555

#END
