
#######################################################################
#
#                 Cambridge Crystallographic Data Centre
#                                CCDC 
#
#######################################################################
#
# If this CIF has been generated from an entry in the Cambridge 
# Structural Database, then it will include bibliographic, chemical, 
# crystal, experimental, refinement or atomic coordinate data resulting 
# from the CCDC's data processing and validation procedures.
#
#######################################################################

data_DOTTAI
_symmetry_cell_setting           triclinic
_symmetry_space_group_name_H-M   'P -1'
_symmetry_Int_Tables_number      2
_space_group_name_Hall           '-P 1'
loop_
_symmetry_equiv_pos_site_id
_symmetry_equiv_pos_as_xyz
1 x,y,z
2 -x,-y,-z
_cell_length_a                   7.8609(11)
_cell_length_b                   9.1213(13)
_cell_length_c                   9.6277(14)
_cell_angle_alpha                117.657(2)
_cell_angle_beta                 106.378(2)
_cell_angle_gamma                96.895(2)
_cell_volume                     560.477
loop_
_atom_site_label
_atom_site_type_symbol
_atom_site_fract_x
_atom_site_fract_y
_atom_site_fract_z
Hg1 Hg -0.66368(3) -0.19833(3) 0.26162(3)
N1 N -0.4652(6) -0.1167(6) 0.1747(6)
C1 C -0.4277(9) -0.2382(7) 0.0495(8)
H1 H -0.4866 -0.3543 0.0037
C2 C -0.3054(9) -0.1962(7) -0.0129(8)
H2 H -0.2799 -0.2836 -0.0973
C3 C -0.2193(7) -0.0237(7) 0.0495(7)
C4 C -0.2611(8) 0.0985(7) 0.1758(7)
H3 H -0.2066 0.2154 0.2208
C5 C -0.3815(8) 0.0515(7) 0.2367(8)
H4 H -0.4064 0.1373 0.3229
C6 C -0.0885(9) 0.0259(8) -0.0199(8)
H5 H -0.0560 0.1502 0.0283
H6 H -0.1507 -0.0300 -0.1421
S1 S -0.9348(2) -0.2023(2) 0.3257(2)
N2 N -1.0554(10) -0.4121(8) 0.1820(9)
C7 C -1.1469(10) -0.5523(8) 0.0804(9)
O1 O -0.3931(7) -0.1576(6) 0.5227(6)
O2 O -0.5112(8) -0.4027(6) 0.2797(6)
C8 C -0.3966(9) -0.3098(7) 0.4300(8)
C9 C -0.2663(14) -0.3894(13) 0.4962(12)
H7 H -0.2880 -0.5062 0.4078
H8 H -0.2864 -0.3899 0.5899
H9 H -0.1408 -0.3234 0.5337
Hg1A Hg 0.66368(3) 0.19833(3) -0.26162(3)
Hg1A_2 Hg -1.33632(3) -0.80167(3) -0.26162(3)
N1A N 0.4652(6) 0.1167(6) -0.1747(6)
C1A C 0.4277(9) 0.2382(7) -0.0495(8)
H1A H 0.4866 0.3543 -0.0037
C2A C 0.3054(9) 0.1962(7) 0.0129(8)
H2A H 0.2799 0.2836 0.0973
C3A C 0.2193(7) 0.0237(7) -0.0495(7)
C4A C 0.2611(8) -0.0985(7) -0.1758(7)
H3A H 0.2066 -0.2154 -0.2208
C5A C 0.3815(8) -0.0515(7) -0.2367(8)
H4A H 0.4064 -0.1373 -0.3229
C6A C 0.0885(9) -0.0259(8) 0.0199(8)
H5A H 0.0560 -0.1502 -0.0283
H6A H 0.1507 0.0300 0.1421
S1A S -1.0652(2) -0.7977(2) -0.3257(2)
S1A_2 S 0.9348(2) 0.2023(2) -0.3257(2)
N2A N -0.9446(10) -0.5879(8) -0.1820(9)
C7A C -0.8531(10) -0.4477(8) -0.0804(9)
C7_2 C 0.8531(10) 0.4477(8) 0.0804(9)
O1A O 0.3931(7) 0.1576(6) -0.5227(6)
O2A O 0.5112(8) 0.4027(6) -0.2797(6)
C8A C 0.3966(9) 0.3098(7) -0.4300(8)
C9A C 0.2663(14) 0.3894(13) -0.4962(12)
H7A H 0.2880 0.5062 -0.4078
H8A H 0.2864 0.3899 -0.5899
H9A H 0.1408 0.3234 -0.5337
loop_
_geom_bond_atom_site_label_1
_geom_bond_atom_site_label_2
_geom_bond_site_symmetry_1
_geom_bond_site_symmetry_2
Hg1 N1 1_555 1_555
N1 C1 1_555 1_555
C1 H1 1_555 1_555
C2 C1 1_555 1_555
H2 C2 1_555 1_555
C3 C2 1_555 1_555
C4 C3 1_555 1_555
H3 C4 1_555 1_555
C5 N1 1_555 1_555
H4 C5 1_555 1_555
C6 C3 1_555 1_555
H5 C6 1_555 1_555
H6 C6 1_555 1_555
S1 Hg1 1_555 1_555
N2 S1 1_555 1_555
C7 N2 1_555 1_555
O1 Hg1 1_555 1_555
O2 Hg1 1_555 1_555
C8 O1 1_555 1_555
C9 C8 1_555 1_555
H7 C9 1_555 1_555
H8 C9 1_555 1_555
H9 C9 1_555 1_555
Hg1A N1A 1_555 1_555
Hg1A_2 C7 1_555 1_555
N1A C1A 1_555 1_555
C1A H1A 1_555 1_555
C2A C1A 1_555 1_555
H2A C2A 1_555 1_555
C3A C2A 1_555 1_555
C4A C3A 1_555 1_555
H3A C4A 1_555 1_555
C5A N1A 1_555 1_555
H4A C5A 1_555 1_555
C6A C6 1_555 1_555
H5A C6A 1_555 1_555
H6A C6A 1_555 1_555
S1A Hg1A_2 1_555 1_555
S1A_2 Hg1A 1_555 1_555
N2A S1A 1_555 1_555
C7A Hg1 1_555 1_555
C7_2 Hg1A 1_555 1_555
O1A Hg1A 1_555 1_555
O2A Hg1A 1_555 1_555
C8A O1A 1_555 1_555
C9A C8A 1_555 1_555
H7A C9A 1_555 1_555
H8A C9A 1_555 1_555
H9A C9A 1_555 1_555
C4 C5 1_555 1_555
O2 C8 1_555 1_555
C3A C6A 1_555 1_555
C4A C5A 1_555 1_555
N2A C7A 1_555 1_555
O2A C8A 1_555 1_555

#END
