
#######################################################################
#
#                 Cambridge Crystallographic Data Centre
#                                CCDC 
#
#######################################################################
#
# If this CIF has been generated from an entry in the Cambridge 
# Structural Database, then it will include bibliographic, chemical, 
# crystal, experimental, refinement or atomic coordinate data resulting 
# from the CCDC's data processing and validation procedures.
#
#######################################################################

data_DOTVEP01
_symmetry_cell_setting           monoclinic
_symmetry_space_group_name_H-M   'P 21/c'
_symmetry_Int_Tables_number      14
_space_group_name_Hall           '-P 2ybc'
loop_
_symmetry_equiv_pos_site_id
_symmetry_equiv_pos_as_xyz
1 x,y,z
2 -x,1/2+y,1/2-z
3 -x,-y,-z
4 x,1/2-y,1/2+z
_cell_length_a                   12.3614(8)
_cell_length_b                   25.6247(17)
_cell_length_c                   13.7747(9)
_cell_angle_alpha                90
_cell_angle_beta                 93.4580(10)
_cell_angle_gamma                90
_cell_volume                     4355.29
loop_
_atom_site_label
_atom_site_type_symbol
_atom_site_fract_x
_atom_site_fract_y
_atom_site_fract_z
N1 N 0.9736(9) 0.4870(4) 0.7486(11)
C35 C 1.0138(19) 0.4527(7) 0.9147(16)
H17 H 0.9376 0.4559 0.9233
H18 H 1.0500 0.4843 0.9354
H19 H 1.0427 0.4239 0.9527
C36 C 1.0327(16) 0.4424(7) 0.8010(18)
H20 H 1.1093 0.4429 0.7893
H21 H 1.0025 0.4090 0.7800
C37 C 0.8199(18) 0.5173(8) 0.6572(16)
H22 H 0.8788 0.5269 0.6185
H23 H 0.7933 0.5477 0.6887
H24 H 0.7627 0.5021 0.6162
C38 C 0.8563(14) 0.4810(7) 0.7273(17)
H25 H 0.8407 0.4460 0.7037
H26 H 0.8185 0.4862 0.7862
C39 C 1.0657(18) 0.4870(10) 0.6476(14)
H27 H 1.0348 0.5111 0.5992
H28 H 1.1331 0.5026 0.6731
C40 C 1.098(3) 0.4370(13) 0.591(2)
H29 H 1.0397 0.4279 0.5445
H30 H 1.1101 0.4087 0.6361
H31 H 1.1623 0.4436 0.5580
Co1 Co 0.5000 0.5000 0.0000
O1 O 0.4357(3) 0.55741(13) 0.0803(3)
O2 O 0.4429(3) 0.44538(13) 0.0999(2)
O3 O 0.6539(3) 0.51640(12) 0.0865(2)
C1 C 0.3509(5) 0.58350(19) 0.0797(4)
C2 C 0.4834(5) 0.41075(19) 0.1528(4)
Co2 Co 0.69798(6) 0.44398(3) 0.11877(5)
O4 O 0.2804(3) 0.58651(15) 0.0101(3)
C3 C 0.3296(4) 0.61383(19) 0.1705(4)
O5 O 0.5828(3) 0.40456(14) 0.1744(3)
C4 C 0.4108(4) 0.37169(19) 0.1991(4)
O6 O 0.8453(3) 0.43999(15) 0.1781(3)
C5 C 0.3948(5) 0.6073(2) 0.2544(4)
C6 C 0.2429(4) 0.6480(2) 0.1717(4)
C7 C 0.4553(4) 0.3306(2) 0.2537(4)
C8 C 0.2996(4) 0.3755(2) 0.1910(4)
H1 H 0.4541 0.5849 0.2547
C9 C 0.3723(5) 0.6340(2) 0.3382(4)
H2 H 0.1990 0.6529 0.1151
C10 C 0.2202(4) 0.6745(2) 0.2539(4)
C11 C 0.3926(4) 0.29486(19) 0.2990(4)
H3 H 0.5303 0.3271 0.2598
C12 C 0.2346(4) 0.34038(19) 0.2358(4)
H4 H 0.2676 0.4025 0.1544
C13 C 0.2852(4) 0.6679(2) 0.3394(4)
H5 H 0.4163 0.6290 0.3946
H6 H 0.1612 0.6970 0.2530
H7 H 0.4251 0.2678 0.3350
C14 C 0.2813(4) 0.29928(19) 0.2911(4)
H8 H 0.1596 0.3439 0.2294
C15 C 0.2555(5) 0.6974(2) 0.4329(4)
C16 C 0.2143(4) 0.26198(19) 0.3530(4)
C17 C 0.2052(5) 0.7513(2) 0.4077(4)
C18 C 0.3558(8) 0.7079(4) 0.5019(6)
C19 C 0.1747(8) 0.6614(3) 0.4844(5)
C20 C 0.2609(4) 0.20583(19) 0.3530(4)
C21 C 0.2165(5) 0.2859(2) 0.4549(4)
C22 C 0.0960(5) 0.2575(2) 0.3140(5)
C23 C 0.2554(5) 0.7823(2) 0.3419(4)
C24 C 0.1133(5) 0.7701(2) 0.4506(4)
F1 F 0.4357(4) 0.7285(2) 0.4564(4)
F2 F 0.3309(4) 0.7402(2) 0.5739(3)
F3 F 0.3932(5) 0.6644(2) 0.5464(3)
F4 F 0.0812(4) 0.65795(16) 0.4336(4)
F5 F 0.2127(4) 0.61252(17) 0.4904(3)
F6 F 0.1562(5) 0.6768(2) 0.5730(3)
C25 C 0.2826(5) 0.1837(2) 0.2640(4)
C26 C 0.2742(5) 0.1748(2) 0.4362(4)
F7 F 0.1482(3) 0.26297(13) 0.5133(2)
F8 F 0.3151(3) 0.28259(13) 0.5003(2)
F9 F 0.1907(3) 0.33651(13) 0.4534(2)
F10 F 0.0874(3) 0.24721(14) 0.2181(2)
F11 F 0.0378(3) 0.30037(14) 0.3281(3)
F12 F 0.0443(3) 0.21820(14) 0.3570(3)
H9 H 0.3163 0.7699 0.3128
C27 C 0.2164(5) 0.8310(2) 0.3191(4)
H10 H 0.0794 0.7500 0.4961
C28 C 0.0732(5) 0.8190(2) 0.4247(4)
H11 H 0.2778 0.2041 0.2081
C29 C 0.3115(5) 0.1314(2) 0.2581(4)
C30 C 0.3035(5) 0.1235(2) 0.4285(4)
H12 H 0.2631 0.1890 0.4970
C31 C 0.1245(5) 0.8505(2) 0.3613(4)
H13 H 0.2515 0.8514 0.2749
H14 H 0.0100 0.8308 0.4509
C32 C 0.3206(4) 0.10064(19) 0.3408(4)
H15 H 0.3247 0.1170 0.1980
H16 H 0.3121 0.1035 0.4847
C33 C 0.0851(6) 0.9045(3) 0.3365(5)
C34 C 0.3380(5) 0.0429(2) 0.3336(4)
O7 O -0.0132(4) 0.9137(2) 0.3302(5)
O8 O 0.3355(4) 0.02098(16) 0.2535(3)
O1B O 0.5643(3) 0.44259(13) -0.0803(3)
O2B O 0.5571(3) 0.55462(13) -0.0999(2)
O3B O 0.3461(3) 0.48360(12) -0.0865(2)
C1B C 0.6491(5) 0.41650(19) -0.0797(4)
C2B C 0.5166(5) 0.58925(19) -0.1528(4)
Co2B Co 0.30202(6) 0.55602(3) -0.11877(5)
O4B O 0.7196(3) 0.41349(15) -0.0101(3)
C3B C 0.6704(4) 0.38617(19) -0.1705(4)
O5B O 0.4172(3) 0.59544(14) -0.1744(3)
C4B C 0.5892(4) 0.62831(19) -0.1991(4)
O6B O 0.1547(3) 0.56001(15) -0.1781(3)
C5B C 0.6052(5) 0.3927(2) -0.2544(4)
C6B C 0.7571(4) 0.3520(2) -0.1717(4)
C7B C 0.5447(4) 0.6694(2) -0.2537(4)
C8B C 0.7004(4) 0.6245(2) -0.1910(4)
H1B H 0.5459 0.4151 -0.2547
C9B C 0.6277(5) 0.3660(2) -0.3382(4)
H2B H 0.8010 0.3471 -0.1151
C10B C 0.7798(4) 0.3255(2) -0.2539(4)
C11B C 0.6074(4) 0.70514(19) -0.2990(4)
H3B H 0.4697 0.6729 -0.2598
C12B C 0.7654(4) 0.65962(19) -0.2358(4)
H4B H 0.7324 0.5975 -0.1544
C13B C 0.7148(4) 0.3321(2) -0.3394(4)
H5B H 0.5837 0.3710 -0.3946
H6B H 0.8388 0.3030 -0.2530
H7B H 0.5749 0.7322 -0.3350
C14B C 0.7187(4) 0.70072(19) -0.2911(4)
H8B H 0.8404 0.6561 -0.2294
C15B C 0.7445(5) 0.3026(2) -0.4329(4)
C16B C 0.7857(4) 0.73802(19) -0.3530(4)
C17B C 0.7948(5) 0.2487(2) -0.4077(4)
C18B C 0.6442(8) 0.2921(4) -0.5019(6)
C19B C 0.8253(8) 0.3386(3) -0.4844(5)
C20B C 0.7391(4) 0.79417(19) -0.3530(4)
C21B C 0.7835(5) 0.7141(2) -0.4549(4)
C22B C 0.9040(5) 0.7425(2) -0.3140(5)
C23B C 0.7446(5) 0.2177(2) -0.3419(4)
C24B C 0.8867(5) 0.2299(2) -0.4506(4)
F1B F 0.5643(4) 0.2715(2) -0.4564(4)
F2B F 0.6691(4) 0.2598(2) -0.5739(3)
F3B F 0.6068(5) 0.3356(2) -0.5464(3)
F4B F 0.9188(4) 0.34205(16) -0.4336(4)
F5B F 0.7873(4) 0.38748(17) -0.4904(3)
F6B F 0.8438(5) 0.3232(2) -0.5730(3)
C25B C 0.7174(5) 0.8163(2) -0.2640(4)
C26B C 0.7258(5) 0.8252(2) -0.4362(4)
F7B F 0.8518(3) 0.73703(13) -0.5133(2)
F8B F 0.6849(3) 0.71741(13) -0.5003(2)
F9B F 0.8093(3) 0.66349(13) -0.4534(2)
F10B F 0.9126(3) 0.75279(14) -0.2181(2)
F11B F 0.9622(3) 0.69963(14) -0.3281(3)
F12B F 0.9557(3) 0.78180(14) -0.3570(3)
H9B H 0.6837 0.2301 -0.3128
C27B C 0.7836(5) 0.1690(2) -0.3191(4)
H10B H 0.9206 0.2500 -0.4961
C28B C 0.9268(5) 0.1810(2) -0.4247(4)
H11B H 0.7222 0.7959 -0.2081
C29B C 0.6885(5) 0.8686(2) -0.2581(4)
C30B C 0.6965(5) 0.8765(2) -0.4285(4)
H12B H 0.7369 0.8110 -0.4970
C31B C 0.8755(5) 0.1495(2) -0.3613(4)
H13B H 0.7485 0.1486 -0.2749
H14B H 0.9900 0.1692 -0.4509
C32B C 0.6794(4) 0.89936(19) -0.3408(4)
H15B H 0.6753 0.8830 -0.1980
H16B H 0.6879 0.8965 -0.4847
C33B C 0.9149(6) 0.0955(3) -0.3365(5)
C34B C 0.6620(5) 0.9571(2) -0.3336(4)
O6A O 0.1547(3) 0.93999(15) 0.3219(3)
O3A O 0.3461(3) 0.01640(12) 0.4135(2)
O7B O 1.0132(4) 0.0863(2) -0.3302(5)
O6C O 0.8453(3) 0.06001(15) -0.3219(3)
O3C O 0.6539(3) 0.98360(12) -0.4135(2)
O8B O 0.6645(4) 0.97902(16) -0.2535(3)
Co2A Co 0.30202(6) 0.94398(3) 0.38123(5)
Co1A Co 0.5000 0.0000 0.5000
Co2A_2 Co 0.30202(6) -0.05602(3) 0.38123(5)
Co2C Co 0.69798(6) 0.05602(3) -0.38123(5)
Co1A_2 Co 0.5000 1.0000 -0.5000
Co2C_2 Co 0.69798(6) 1.05602(3) -0.38123(5)
loop_
_geom_bond_atom_site_label_1
_geom_bond_atom_site_label_2
_geom_bond_site_symmetry_1
_geom_bond_site_symmetry_2
Co1 O1 1_555 1_555
O1 C1 1_555 1_555
O2 Co1 1_555 1_555
O3 Co1 1_555 1_555
C1 O4 1_555 1_555
C2 O2 1_555 1_555
Co2 O3 1_555 1_555
O4 Co2B 1_555 1_555
C3 C1 1_555 1_555
O5 C2 1_555 1_555
C4 C2 1_555 1_555
O6 Co2 1_555 1_555
C5 C3 1_555 1_555
C6 C3 1_555 1_555
C7 C4 1_555 1_555
C8 C4 1_555 1_555
H1 C5 1_555 1_555
C9 C5 1_555 1_555
H2 C6 1_555 1_555
C10 C6 1_555 1_555
C11 C7 1_555 1_555
H3 C7 1_555 1_555
C12 C8 1_555 1_555
H4 C8 1_555 1_555
C13 C9 1_555 1_555
H5 C9 1_555 1_555
H6 C10 1_555 1_555
H7 C11 1_555 1_555
C14 C11 1_555 1_555
H8 C12 1_555 1_555
C15 C13 1_555 1_555
C16 C14 1_555 1_555
C17 C15 1_555 1_555
C18 C15 1_555 1_555
C19 C15 1_555 1_555
C20 C16 1_555 1_555
C21 C16 1_555 1_555
C22 C16 1_555 1_555
C23 C17 1_555 1_555
C24 C17 1_555 1_555
F1 C18 1_555 1_555
F2 C18 1_555 1_555
F3 C18 1_555 1_555
F4 C19 1_555 1_555
F5 C19 1_555 1_555
F6 C19 1_555 1_555
C25 C20 1_555 1_555
C26 C20 1_555 1_555
F7 C21 1_555 1_555
F8 C21 1_555 1_555
F9 C21 1_555 1_555
F10 C22 1_555 1_555
F11 C22 1_555 1_555
F12 C22 1_555 1_555
H9 C23 1_555 1_555
C27 C23 1_555 1_555
H10 C24 1_555 1_555
C28 C24 1_555 1_555
H11 C25 1_555 1_555
C29 C25 1_555 1_555
C30 C26 1_555 1_555
H12 C26 1_555 1_555
C31 C27 1_555 1_555
H13 C27 1_555 1_555
H14 C28 1_555 1_555
C32 C29 1_555 1_555
H15 C29 1_555 1_555
H16 C30 1_555 1_555
C33 C31 1_555 1_555
C34 C32 1_555 1_555
O7 C33 1_555 1_555
O8 C34 1_555 1_555
N1 C36 1_555 1_555
C35 H17 1_555 1_555
H18 C35 1_555 1_555
H19 C35 1_555 1_555
C36 C35 1_555 1_555
H20 C36 1_555 1_555
H21 C36 1_555 1_555
C37 H22 1_555 1_555
H23 C37 1_555 1_555
H24 C37 1_555 1_555
C38 N1 1_555 1_555
H25 C38 1_555 1_555
H26 C38 1_555 1_555
C39 N1 1_555 1_555
H27 C39 1_555 1_555
H28 C39 1_555 1_555
C40 C39 1_555 1_555
H29 C40 1_555 1_555
H30 C40 1_555 1_555
H31 C40 1_555 1_555
O1B Co1 1_555 1_555
O2B Co1 1_555 1_555
O3B Co1 1_555 1_555
C1B O1B 1_555 1_555
C2B O2B 1_555 1_555
Co2B O3B 1_555 1_555
O4B Co2 1_555 1_555
C3B C1B 1_555 1_555
O5B C2B 1_555 1_555
C4B C2B 1_555 1_555
O6B Co2B 1_555 1_555
C5B C3B 1_555 1_555
C6B C3B 1_555 1_555
C7B C4B 1_555 1_555
C8B C4B 1_555 1_555
H1B C5B 1_555 1_555
C9B C5B 1_555 1_555
H2B C6B 1_555 1_555
C10B C6B 1_555 1_555
C11B C7B 1_555 1_555
H3B C7B 1_555 1_555
C12B C8B 1_555 1_555
H4B C8B 1_555 1_555
C13B C9B 1_555 1_555
H5B C9B 1_555 1_555
H6B C10B 1_555 1_555
H7B C11B 1_555 1_555
C14B C11B 1_555 1_555
H8B C12B 1_555 1_555
C15B C13B 1_555 1_555
C16B C14B 1_555 1_555
C17B C15B 1_555 1_555
C18B C15B 1_555 1_555
C19B C15B 1_555 1_555
C20B C16B 1_555 1_555
C21B C16B 1_555 1_555
C22B C16B 1_555 1_555
C23B C17B 1_555 1_555
C24B C17B 1_555 1_555
F1B C18B 1_555 1_555
F2B C18B 1_555 1_555
F3B C18B 1_555 1_555
F4B C19B 1_555 1_555
F5B C19B 1_555 1_555
F6B C19B 1_555 1_555
C25B C20B 1_555 1_555
C26B C20B 1_555 1_555
F7B C21B 1_555 1_555
F8B C21B 1_555 1_555
F9B C21B 1_555 1_555
F10B C22B 1_555 1_555
F11B C22B 1_555 1_555
F12B C22B 1_555 1_555
H9B C23B 1_555 1_555
C27B C23B 1_555 1_555
H10B C24B 1_555 1_555
C28B C24B 1_555 1_555
H11B C25B 1_555 1_555
C29B C25B 1_555 1_555
C30B C26B 1_555 1_555
H12B C26B 1_555 1_555
C31B C27B 1_555 1_555
H13B C27B 1_555 1_555
H14B C28B 1_555 1_555
C32B C29B 1_555 1_555
H15B C29B 1_555 1_555
H16B C30B 1_555 1_555
C33B C31B 1_555 1_555
C34B C32B 1_555 1_555
O6A C33 1_555 1_555
O3A C34 1_555 1_555
O7B C33B 1_555 1_555
O6C C33B 1_555 1_555
O3C C34B 1_555 1_555
O8B C34B 1_555 1_555
Co2A O6A 1_555 1_555
Co1A O3A 1_555 1_555
Co2A_2 O3A 1_555 1_555
Co2C O6C 1_555 1_555
Co1A_2 O3C 1_555 1_555
Co2C_2 O3C 1_555 1_555
Co2 O5 1_555 1_555
C10 C13 1_555 1_555
C12 C14 1_555 1_555
C28 C31 1_555 1_555
C30 C32 1_555 1_555
C37 C38 1_555 1_555
C1B O4B 1_555 1_555
Co2B O5B 1_555 1_555
C10B C13B 1_555 1_555
C12B C14B 1_555 1_555
C28B C31B 1_555 1_555
C30B C32B 1_555 1_555

#END
