
#######################################################################
#
#                 Cambridge Crystallographic Data Centre
#                                CCDC 
#
#######################################################################
#
# If this CIF has been generated from an entry in the Cambridge 
# Structural Database, then it will include bibliographic, chemical, 
# crystal, experimental, refinement or atomic coordinate data resulting 
# from the CCDC's data processing and validation procedures.
#
#######################################################################

data_DOTVOZ
_symmetry_cell_setting           tetragonal
_symmetry_space_group_name_H-M   'I 41/a'
_symmetry_Int_Tables_number      88
_space_group_name_Hall           '-I 4ad'
loop_
_symmetry_equiv_pos_site_id
_symmetry_equiv_pos_as_xyz
1 x,y,z
2 1/2-x,-y,1/2+z
3 3/4-y,1/4+x,1/4+z
4 3/4+y,3/4-x,3/4+z
5 1/2+x,1/2+y,1/2+z
6 -x,1/2-y,z
7 1/4-y,3/4+x,3/4+z
8 1/4+y,1/4-x,1/4+z
9 -x,-y,-z
10 1/2+x,y,1/2-z
11 1/4+y,3/4-x,3/4-z
12 1/4-y,1/4+x,1/4-z
13 1/2-x,1/2-y,1/2-z
14 x,1/2+y,-z
15 3/4+y,1/4-x,1/4-z
16 3/4-y,3/4+x,3/4-z
_cell_length_a                   28.3363(3)
_cell_length_b                   28.3363(3)
_cell_length_c                   10.5361(3)
_cell_angle_alpha                90
_cell_angle_beta                 90
_cell_angle_gamma                90
_cell_volume                     8459.92
loop_
_atom_site_label
_atom_site_type_symbol
_atom_site_fract_x
_atom_site_fract_y
_atom_site_fract_z
Co1 Co 0.26790(3) 0.04223(3) 1.00842(9)
O1 O 0.20827(15) 0.49672(15) 1.0325(4)
O2 O 0.26840(15) 0.46449(14) 0.9373(4)
O3 O 0.23567(17) 0.10357(15) 0.9710(5)
O4 O 0.19272(16) 0.08374(15) 0.8019(5)
F1 F 0.1215(3) 0.30788(18) 0.6640(5)
C1 C 0.1995(2) 0.4170(2) 0.9652(6)
C2 C 0.1393(2) 0.2483(2) 0.8755(7)
F2 F 0.05128(18) 0.24559(17) 0.9622(7)
F3 F 0.03777(16) 0.32023(18) 0.9732(6)
F4 F 0.08799(19) 0.28728(17) 1.0987(6)
C3 C 0.1896(2) 0.3396(2) 0.8745(6)
H1 H 0.2014 0.3148 0.8259
C4 C 0.2055(2) 0.1126(2) 0.8848(6)
F5 F 0.0729(2) 0.35335(18) 0.7577(5)
F6 F 0.0543(2) 0.28163(19) 0.7217(7)
C5 C 0.1835(2) 0.1595(2) 0.8824(6)
C6 C 0.2268(2) 0.4610(2) 0.9798(6)
C7 C 0.1702(3) 0.2370(2) 0.9748(6)
H2 H 0.1757 0.2587 1.0394
C8 C 0.1929(3) 0.1931(2) 0.9772(7)
H3 H 0.2142 0.1861 1.0416
C9 C 0.0717(3) 0.2868(3) 0.9804(10)
C10 C 0.1539(3) 0.1714(3) 0.7879(9)
H4 H 0.1483 0.1496 0.7237
C11 C 0.1122(2) 0.2950(2) 0.8825(7)
C12 C 0.2175(2) 0.3790(2) 0.8985(7)
H5 H 0.2484 0.3799 0.8694
C13 C 0.1440(2) 0.33729(19) 0.9237(6)
C14 C 0.1542(3) 0.4142(2) 1.0157(7)
H6 H 0.1422 0.4389 1.0639
C15 C 0.1270(3) 0.3743(2) 0.9937(7)
H7 H 0.0967 0.3726 1.0271
C16 C 0.1311(3) 0.2154(3) 0.7819(8)
H8 H 0.1107 0.2223 0.7154
C17 C 0.0901(4) 0.3091(3) 0.7553(9)
Co1F Co 0.20777(3) 0.01790(3) 0.75842(9)
Co1J Co 0.29223(3) 0.48210(3) 0.74158(9)
Co1K Co 0.20777(3) 0.51790(3) 1.24158(9)
Co1M Co 0.26790(3) 0.54223(3) 0.99158(9)
O1M O 0.20827(15) -0.00328(15) 0.9675(4)
O1N O 0.24672(15) 0.04173(15) 1.2175(4)
O2M O 0.26840(15) -0.03551(14) 1.0627(4)
O2O O 0.28551(14) 0.01840(15) 0.8127(4)
O4G O 0.33374(15) 0.05728(16) 1.0519(5)
loop_
_geom_bond_atom_site_label_1
_geom_bond_atom_site_label_2
_geom_bond_site_symmetry_1
_geom_bond_site_symmetry_2
Co1 O3 1_555 1_555
O1 C6 1_555 1_555
O2 C6 1_555 1_555
O3 C4 1_555 1_555
O4 C4 1_555 1_555
F1 C17 1_555 1_555
C1 C6 1_555 1_555
C2 C7 1_555 1_555
F2 C9 1_555 1_555
F3 C9 1_555 1_555
F4 C9 1_555 1_555
C3 H1 1_555 1_555
C4 C5 1_555 1_555
F5 C17 1_555 1_555
F6 C17 1_555 1_555
C5 C8 1_555 1_555
C7 H2 1_555 1_555
C8 C7 1_555 1_555
H3 C8 1_555 1_555
C9 C11 1_555 1_555
C10 C5 1_555 1_555
H4 C10 1_555 1_555
C11 C2 1_555 1_555
C12 C1 1_555 1_555
H5 C12 1_555 1_555
C13 C3 1_555 1_555
C14 C1 1_555 1_555
H6 C14 1_555 1_555
C15 C13 1_555 1_555
H7 C15 1_555 1_555
C16 C2 1_555 1_555
H8 C16 1_555 1_555
C17 C11 1_555 1_555
Co1F O4 1_555 1_555
Co1J O2 1_555 1_555
Co1K O1 1_555 1_555
Co1M O1 1_555 1_555
O1M Co1 1_555 1_555
O1N Co1 1_555 1_555
O2M Co1 1_555 1_555
O2O Co1 1_555 1_555
O4G Co1 1_555 1_555
O2 Co1M 1_555 1_555
C3 C12 1_555 1_555
C10 C16 1_555 1_555
C11 C13 1_555 1_555
C14 C15 1_555 1_555
Co1F O1M 1_555 1_555
Co1F O2O 1_555 1_555

#END
