
#######################################################################
#
#                 Cambridge Crystallographic Data Centre
#                                CCDC 
#
#######################################################################
#
# If this CIF has been generated from an entry in the Cambridge 
# Structural Database, then it will include bibliographic, chemical, 
# crystal, experimental, refinement or atomic coordinate data resulting 
# from the CCDC's data processing and validation procedures.
#
#######################################################################

data_DOTVUF
_symmetry_cell_setting           tetragonal
_symmetry_space_group_name_H-M   'I 41/a'
_symmetry_Int_Tables_number      88
_space_group_name_Hall           '-I 4ad'
loop_
_symmetry_equiv_pos_site_id
_symmetry_equiv_pos_as_xyz
1 x,y,z
2 1/2-x,-y,1/2+z
3 3/4-y,1/4+x,1/4+z
4 3/4+y,3/4-x,3/4+z
5 1/2+x,1/2+y,1/2+z
6 -x,1/2-y,z
7 1/4-y,3/4+x,3/4+z
8 1/4+y,1/4-x,1/4+z
9 -x,-y,-z
10 1/2+x,y,1/2-z
11 1/4+y,3/4-x,3/4-z
12 1/4-y,1/4+x,1/4-z
13 1/2-x,1/2-y,1/2-z
14 x,1/2+y,-z
15 3/4+y,1/4-x,1/4-z
16 3/4-y,3/4+x,3/4-z
_cell_length_a                   28.5047(3)
_cell_length_b                   28.5047(3)
_cell_length_c                   10.5027(3)
_cell_angle_alpha                90
_cell_angle_beta                 90
_cell_angle_gamma                90
_cell_volume                     8533.63
loop_
_atom_site_label
_atom_site_type_symbol
_atom_site_fract_x
_atom_site_fract_y
_atom_site_fract_z
F1 F 0.55250(8) 0.71703(7) 0.7243(2)
F2 F 0.55007(6) 0.75200(6) 0.9667(3)
F3 F 0.53761(6) 0.67767(6) 0.9766(2)
F4 F 0.57169(8) 0.64547(6) 0.7594(2)
F5 F 0.58788(7) 0.71029(6) 1.1013(2)
F6 F 0.61990(9) 0.69106(7) 0.6634(2)
Mn1 Mn 0.768750(11) 0.954742(12) 1.00889(3)
O1 O 0.70829(5) 0.50348(5) 1.03324(16)
O2 O 0.76802(5) 0.53619(5) 0.93509(17)
O3 O 0.73642(6) 0.89215(6) 0.96846(19)
O4 O 0.69060(6) 0.91379(6) 0.80705(19)
C1 C 0.69868(8) 0.58211(8) 0.9637(2)
C2 C 0.63802(8) 0.75000(8) 0.8784(3)
C3 C 0.72648(8) 0.53872(8) 0.9788(2)
C4 C 0.68779(9) 0.65887(8) 0.8732(3)
H1 H 0.6993 0.6838 0.8252
C5 C 0.64291(8) 0.66127(7) 0.9231(3)
C6 C 0.71561(9) 0.62004(8) 0.8936(3)
H2 H 0.7458 0.6191 0.8605
C7 C 0.69178(10) 0.80360(9) 0.9761(3)
H3 H 0.7130 0.8102 1.0409
C8 C 0.70517(8) 0.88443(8) 0.8872(2)
C9 C 0.57131(10) 0.71064(9) 0.9837(4)
C10 C 0.68286(8) 0.83711(8) 0.8843(2)
C11 C 0.66990(9) 0.76081(8) 0.9735(3)
H4 H 0.6765 0.7388 1.0363
C12 C 0.65388(9) 0.58500(9) 1.0166(3)
H5 H 0.6425 0.5605 1.0661
C13 C 0.62640(9) 0.62423(9) 0.9956(3)
H6 H 0.5965 0.6257 1.0306
C14 C 0.61060(8) 0.70312(8) 0.8853(3)
C15 C 0.65108(11) 0.82616(9) 0.7892(3)
H7 H 0.6444 0.8482 0.7265
C16 C 0.62925(12) 0.78328(10) 0.7859(3)
H8 H 0.6083 0.7765 0.7206
C17 C 0.58844(13) 0.68988(10) 0.7580(4)
Mn1C Mn 0.704742(12) 0.981250(11) 0.75889(3)
Mn1M Mn 0.768750(11) 0.454742(12) 0.99111(3)
Mn1N Mn 0.704742(12) 0.481250(11) 1.24111(3)
Mn1O Mn 0.795258(12) 0.518750(11) 0.74111(3)
O1K O 0.74652(5) 0.95829(5) 1.21676(16)
O1M O 0.70829(5) 1.00348(5) 0.96676(16)
O2J O 0.78619(5) 0.98198(5) 0.81491(17)
O2M O 0.76802(5) 1.03619(5) 1.06491(17)
O4B O 0.83621(6) 0.94060(6) 1.05705(19)
loop_
_geom_bond_atom_site_label_1
_geom_bond_atom_site_label_2
_geom_bond_site_symmetry_1
_geom_bond_site_symmetry_2
F1 C17 1_555 1_555
F2 C9 1_555 1_555
F3 C9 1_555 1_555
F4 C17 1_555 1_555
F5 C9 1_555 1_555
F6 C17 1_555 1_555
Mn1 O3 1_555 1_555
O1 C3 1_555 1_555
O2 C3 1_555 1_555
O3 C8 1_555 1_555
O4 C8 1_555 1_555
C1 C3 1_555 1_555
C2 C11 1_555 1_555
C4 H1 1_555 1_555
C5 C4 1_555 1_555
C6 C1 1_555 1_555
H2 C6 1_555 1_555
C7 H3 1_555 1_555
C8 C10 1_555 1_555
C9 C14 1_555 1_555
C10 C7 1_555 1_555
C11 C7 1_555 1_555
H4 C11 1_555 1_555
C12 C1 1_555 1_555
H5 C12 1_555 1_555
C13 C5 1_555 1_555
H6 C13 1_555 1_555
C14 C2 1_555 1_555
C15 C10 1_555 1_555
H7 C15 1_555 1_555
C16 C2 1_555 1_555
H8 C16 1_555 1_555
C17 C14 1_555 1_555
Mn1C O4 1_555 1_555
Mn1M O1 1_555 1_555
Mn1N O1 1_555 1_555
Mn1O O2 1_555 1_555
O1K Mn1 1_555 1_555
O1M Mn1 1_555 1_555
O2J Mn1 1_555 1_555
O2M Mn1 1_555 1_555
O4B Mn1 1_555 1_555
O2 Mn1M 1_555 1_555
C4 C6 1_555 1_555
C5 C14 1_555 1_555
C12 C13 1_555 1_555
C15 C16 1_555 1_555
Mn1C O1M 1_555 1_555
Mn1C O2J 1_555 1_555

#END
