
#######################################################################
#
#                 Cambridge Crystallographic Data Centre
#                                CCDC 
#
#######################################################################
#
# If this CIF has been generated from an entry in the Cambridge 
# Structural Database, then it will include bibliographic, chemical, 
# crystal, experimental, refinement or atomic coordinate data resulting 
# from the CCDC's data processing and validation procedures.
#
#######################################################################

data_DOTVEP
_symmetry_cell_setting           triclinic
_symmetry_space_group_name_H-M   'P -1'
_symmetry_Int_Tables_number      2
_space_group_name_Hall           '-P 1'
loop_
_symmetry_equiv_pos_site_id
_symmetry_equiv_pos_as_xyz
1 x,y,z
2 -x,-y,-z
_cell_length_a                   12.7610(4)
_cell_length_b                   13.2384(4)
_cell_length_c                   13.7262(5)
_cell_angle_alpha                83.886(2)
_cell_angle_beta                 89.474(2)
_cell_angle_gamma                66.4220(10)
_cell_volume                     2111.74
loop_
_atom_site_label
_atom_site_type_symbol
_atom_site_fract_x
_atom_site_fract_y
_atom_site_fract_z
Co1 Co 1.0000 0.5000 0.5000
F1 F 0.6223(4) 0.2518(3) 0.1553(3)
F2 F 0.7580(4) 0.1186(3) 0.0969(3)
F3 F 0.5241(3) 0.1976(3) 0.3135(4)
F4 F 0.5657(3) 0.0258(3) 0.3045(4)
F5 F 0.6379(3) 0.0738(3) 0.4221(4)
F6 F 0.5937(3) 0.1113(3) 0.1213(4)
C1 C 0.7960(4) 0.2970(4) 0.3788(4)
H1 H 0.7635 0.3552 0.4168
C2 C 0.8943(4) 0.1195(4) 0.2737(4)
H2 H 0.9290 0.0578 0.2399
C3 C 0.9549(4) 0.1806(4) 0.2958(3)
H3 H 1.0294 0.1608 0.2752
C4 C 0.8540(4) -0.0928(4) 0.3520(3)
H4 H 0.8509 -0.0533 0.4048
C5 C 0.7938(4) -0.0983(4) 0.1904(4)
H5 H 0.7482 -0.0637 0.1341
O1 O 0.9379(3) 0.4015(3) 0.4335(2)
C6 C 0.8662(4) -0.2104(4) 0.1960(3)
H6 H 0.8702 -0.2495 0.1427
C7 C 0.9232(4) -0.2049(3) 0.3592(3)
H7 H 0.9639 -0.2408 0.4175
O2 O 1.0488(3) 0.3354(3) 0.3086(2)
C8 C 0.6094(5) 0.0959(5) 0.3263(7)
C9 C 0.9698(4) 0.3411(3) 0.3667(3)
C10 C 0.9066(4) 0.2705(4) 0.3481(3)
C11 C 0.7892(4) -0.0387(4) 0.2671(3)
C12 C 0.7821(4) 0.1491(4) 0.3012(3)
C13 C 0.7136(4) 0.0870(4) 0.2647(4)
C14 C 0.7334(4) 0.2400(4) 0.3546(4)
H8 H 0.6582 0.2616 0.3737
C15 C 0.6736(6) 0.1414(4) 0.1562(6)
O3 O 1.0433(2) -0.4391(2) 0.3671(2)
C16 C 1.0116(4) -0.3821(4) 0.2867(3)
O4 O 1.0493(3) -0.4273(3) 0.2093(2)
C17 C 0.9318(4) -0.2636(3) 0.2796(3)
Co2 Co 1.85342(6) -0.41800(5) 0.71491(5)
F7 F 1.5625(4) 0.2510(3) 0.8674(3)
F8 F 1.7334(4) 0.2413(3) 0.8681(3)
F9 F 1.7961(3) 0.1247(4) 0.5976(4)
O5 O 1.7698(4) -0.2991(3) 0.9773(3)
F10 F 1.7814(3) 0.2757(3) 0.6544(4)
F11 F 1.6051(4) 0.3645(3) 0.7702(3)
F12 F 1.8728(3) 0.1182(3) 0.7379(4)
C18 C 1.4711(4) 0.2029(4) 0.6828(3)
H9 H 1.4752 0.1561 0.7396
C19 C 1.5555(4) 0.2969(4) 0.5742(4)
H10 H 1.6162 0.3167 0.5581
O6 O 1.1666(2) 0.3759(3) 0.5142(2)
O7 O 1.2712(3) 0.3771(3) 0.3835(2)
C20 C 1.7135(4) -0.1254(4) 0.7463(3)
H11 H 1.7093 -0.1740 0.7040
C21 C 1.6902(4) -0.0152(4) 0.7106(3)
H12 H 1.6707 0.0086 0.6445
C22 C 1.7429(4) -0.1620(4) 0.8441(3)
C23 C 1.7798(5) 0.1746(6) 0.6796(7)
C24 C 1.2580(4) 0.3605(4) 0.4740(3)
C25 C 1.5646(4) 0.2265(4) 0.6583(3)
C26 C 1.3653(4) 0.3148(4) 0.5385(3)
C27 C 1.7277(5) 0.0202(4) 0.8700(4)
H13 H 1.7346 0.0677 0.9125
C28 C 1.3709(4) 0.2473(4) 0.6248(3)
H14 H 1.3082 0.2319 0.6435
C29 C 1.7492(5) -0.0880(4) 0.9045(4)
H15 H 1.7685 -0.1117 0.9706
C30 C 1.6422(7) 0.2593(5) 0.8100(6)
C31 C 1.6708(4) 0.1791(4) 0.7295(4)
C32 C 1.4589(4) 0.3386(4) 0.5136(4)
H16 H 1.4565 0.3829 0.4556
C33 C 1.6957(4) 0.0588(4) 0.7720(3)
O8 O 1.7741(3) -0.3499(3) 0.8298(2)
C34 C 1.7654(4) -0.2786(4) 0.8861(4)
F1A F 1.3777(4) -0.2518(3) 0.8447(3)
F2A F 1.2420(4) -0.1186(3) 0.9031(3)
F3A F 1.4759(3) -0.1976(3) 0.6865(4)
F4A F 1.4343(3) -0.0258(3) 0.6955(4)
F5A F 1.3621(3) -0.0738(3) 0.5779(4)
F6A F 1.4063(3) -0.1113(3) 0.8787(4)
C1A C 1.2040(4) -0.2970(4) 0.6212(4)
H1A H 1.2365 -0.3552 0.5832
C2A C 1.1057(4) -0.1195(4) 0.7263(4)
H2A H 1.0710 -0.0578 0.7601
C3A C 1.0451(4) -0.1806(4) 0.7042(3)
H3A H 0.9706 -0.1608 0.7248
C4A C 1.1460(4) 0.0928(4) 0.6480(3)
H4A H 1.1491 0.0533 0.5952
C5A C 1.2062(4) 0.0983(4) 0.8096(4)
H5A H 1.2518 0.0637 0.8659
O1A O 1.0621(3) -0.4015(3) 0.5665(2)
C6A C 1.1338(4) 0.2104(4) 0.8040(3)
H6A H 1.1298 0.2495 0.8573
C7A C 1.0768(4) 0.2049(3) 0.6408(3)
H7A H 1.0361 0.2408 0.5825
O2A O 0.9512(3) -0.3354(3) 0.6914(2)
C8A C 1.3906(5) -0.0959(5) 0.6737(7)
C9A C 1.0302(4) -0.3411(3) 0.6333(3)
C10A C 1.0934(4) -0.2705(4) 0.6519(3)
C11A C 1.2108(4) 0.0387(4) 0.7329(3)
C12A C 1.2179(4) -0.1491(4) 0.6988(3)
C13A C 1.2864(4) -0.0870(4) 0.7353(4)
C14A C 1.2666(4) -0.2400(4) 0.6454(4)
H8A H 1.3418 -0.2616 0.6263
C15A C 1.3264(6) -0.1414(4) 0.8438(6)
O3A O 0.9567(2) 0.4391(2) 0.6329(2)
C16A C 0.9884(4) 0.3821(4) 0.7133(3)
O4A O 0.9507(3) 0.4273(3) 0.7907(2)
C17A C 1.0682(4) 0.2636(3) 0.7204(3)
Co2A Co 0.14658(6) 1.41800(5) 0.28509(5)
F7A F 0.4375(4) 0.7490(3) 0.1326(3)
F8A F 0.2666(4) 0.7587(3) 0.1319(3)
F9A F 0.2039(3) 0.8753(4) 0.4024(4)
O5A O 0.2302(4) 1.2991(3) 0.0227(3)
F10A F 0.2186(3) 0.7243(3) 0.3456(4)
F11A F 0.3949(4) 0.6355(3) 0.2298(3)
F12A F 0.1272(3) 0.8818(3) 0.2621(4)
C18A C 0.5289(4) 0.7971(4) 0.3172(3)
H9A H 0.5248 0.8439 0.2604
C19A C 0.4445(4) 0.7031(4) 0.4258(4)
H10A H 0.3838 0.6833 0.4419
O6A O 0.8334(2) 0.6241(3) 0.4858(2)
O7A O 0.7288(3) 0.6229(3) 0.6165(2)
C20A C 0.2865(4) 1.1254(4) 0.2537(3)
H11A H 0.2907 1.1740 0.2960
C21A C 0.3098(4) 1.0152(4) 0.2894(3)
H12A H 0.3293 0.9914 0.3555
C22A C 0.2571(4) 1.1620(4) 0.1559(3)
C23A C 0.2202(5) 0.8254(6) 0.3204(7)
C24A C 0.7420(4) 0.6395(4) 0.5260(3)
C25A C 0.4354(4) 0.7735(4) 0.3417(3)
C26A C 0.6347(4) 0.6852(4) 0.4615(3)
C27A C 0.2723(5) 0.9798(4) 0.1300(4)
H13A H 0.2654 0.9323 0.0875
C28A C 0.6291(4) 0.7527(4) 0.3752(3)
H14A H 0.6918 0.7681 0.3565
C29A C 0.2508(5) 1.0880(4) 0.0955(4)
H15A H 0.2315 1.1117 0.0294
C30A C 0.3578(7) 0.7407(5) 0.1900(6)
C31A C 0.3292(4) 0.8209(4) 0.2705(4)
C32A C 0.5411(4) 0.6614(4) 0.4864(4)
H16A H 0.5435 0.6171 0.5444
C33A C 0.3043(4) 0.9412(4) 0.2280(3)
O8A O 0.2259(3) 1.3499(3) 0.1702(2)
C34A C 0.2346(4) 1.2786(4) 0.1139(4)
Co1_2 Co 1.0000 -0.5000 0.5000
O1A_2 O 1.0621(3) 0.5985(3) 0.5665(2)
O2_2 O 0.0488(3) 1.3354(3) 0.3086(2)
O2A_2 O 1.9512(3) -0.3354(3) 0.6914(2)
O3_2 O 0.0433(2) 1.5609(2) 0.3671(2)
O3_3 O 1.0433(2) 0.5609(2) 0.3671(2)
O3A_2 O 1.9567(2) -0.5609(2) 0.6329(2)
O4_2 O 0.0493(3) 1.5727(3) 0.2093(2)
O4A_2 O 1.9507(3) -0.5727(3) 0.7907(2)
Co2_2 Co 0.85342(6) -0.41800(5) 0.71491(5)
Co2_3 Co 0.85342(6) 0.58200(5) 0.71491(5)
Co2A_2 Co 1.14658(6) -0.58200(5) 0.28509(5)
Co2A_3 Co 1.14658(6) 0.41800(5) 0.28509(5)
O7_2 O 0.2712(3) 1.3771(3) 0.3835(2)
O7A_2 O 1.7288(3) -0.3771(3) 0.6165(2)
C35 C 0.5946(5) 0.5597(6) -0.0681(5)
H17 H 0.5513 0.5773 -0.0101
H18 H 0.5544 0.5365 -0.1137
H19 H 0.6046 0.6242 -0.0977
C36 C 0.7285(6) 0.4915(6) 0.1328(5)
H20 H 0.7577 0.4148 0.1618
H21 H 0.6459 0.5184 0.1265
C37 C 0.7083(5) 0.4688(5) -0.0417(4)
H22 H 0.7525 0.4532 -0.1002
H23 H 0.6978 0.4022 -0.0166
N1 N 0.7749(4) 0.4963(4) 0.0344(3)
C38 C 0.9008(5) 0.4237(5) 0.0289(4)
H24 H 0.9272 0.4442 -0.0336
H25 H 0.9422 0.4396 0.0800
C39 C 0.9312(6) 0.3007(6) 0.0395(6)
H26 H 0.9001 0.2801 0.0985
H27 H 1.0130 0.2615 0.0428
H28 H 0.9001 0.2821 -0.0159
C40 C 0.7588(7) 0.5582(6) 0.1995(5)
H29 H 0.8406 0.5320 0.2059
H30 H 0.7284 0.5507 0.2628
H31 H 0.7271 0.6348 0.1728
H32 H 0.769(4) 0.570(4) 0.013(3)
loop_
_geom_bond_atom_site_label_1
_geom_bond_atom_site_label_2
_geom_bond_site_symmetry_1
_geom_bond_site_symmetry_2
Co1 O1 1_555 1_555
F1 C15 1_555 1_555
F2 C15 1_555 1_555
F3 C8 1_555 1_555
F4 C8 1_555 1_555
F5 C8 1_555 1_555
F6 C15 1_555 1_555
C1 H1 1_555 1_555
C2 H2 1_555 1_555
C3 C2 1_555 1_555
H3 C3 1_555 1_555
C4 H4 1_555 1_555
C5 H5 1_555 1_555
O1 C9 1_555 1_555
C6 C5 1_555 1_555
H6 C6 1_555 1_555
C7 C4 1_555 1_555
H7 C7 1_555 1_555
O2 C9 1_555 1_555
C8 C13 1_555 1_555
C9 C10 1_555 1_555
C10 C1 1_555 1_555
C11 C4 1_555 1_555
C12 C2 1_555 1_555
C13 C11 1_555 1_555
C14 C1 1_555 1_555
H8 C14 1_555 1_555
C15 C13 1_555 1_555
O3 C16 1_555 1_555
C16 O4 1_555 1_555
O4 Co2A_2 1_555 1_555
C17 C6 1_555 1_555
Co2 O8 1_555 1_555
F7 C30 1_555 1_555
F8 C30 1_555 1_555
F9 C23 1_555 1_555
O5 C34 1_555 1_555
F10 C23 1_555 1_555
F11 C30 1_555 1_555
F12 C23 1_555 1_555
C18 H9 1_555 1_555
C19 H10 1_555 1_555
O6 Co1 1_555 1_555
O7 C24 1_555 1_555
C20 H11 1_555 1_555
C21 C20 1_555 1_555
H12 C21 1_555 1_555
C22 C20 1_555 1_555
C23 C31 1_555 1_555
C24 O6 1_555 1_555
C25 C18 1_555 1_555
C26 C24 1_555 1_555
C27 H13 1_555 1_555
C28 C18 1_555 1_555
H14 C28 1_555 1_555
C29 C22 1_555 1_555
H15 C29 1_555 1_555
C30 C31 1_555 1_555
C31 C25 1_555 1_555
C32 C19 1_555 1_555
H16 C32 1_555 1_555
C33 C21 1_555 1_555
O8 C34 1_555 1_555
C34 C22 1_555 1_555
C35 H17 1_555 1_555
H18 C35 1_555 1_555
H19 C35 1_555 1_555
C36 H20 1_555 1_555
H21 C36 1_555 1_555
C37 C35 1_555 1_555
H22 C37 1_555 1_555
H23 C37 1_555 1_555
N1 C36 1_555 1_555
C38 N1 1_555 1_555
H24 C38 1_555 1_555
H25 C38 1_555 1_555
C39 C38 1_555 1_555
H26 C39 1_555 1_555
H27 C39 1_555 1_555
H28 C39 1_555 1_555
C40 C36 1_555 1_555
H29 C40 1_555 1_555
H30 C40 1_555 1_555
H31 C40 1_555 1_555
H32 N1 1_555 1_555
F1A C15A 1_555 1_555
F2A C15A 1_555 1_555
F3A C8A 1_555 1_555
F4A C8A 1_555 1_555
F5A C8A 1_555 1_555
F6A C15A 1_555 1_555
C1A H1A 1_555 1_555
C2A H2A 1_555 1_555
C3A C2A 1_555 1_555
H3A C3A 1_555 1_555
C4A H4A 1_555 1_555
C5A H5A 1_555 1_555
O1A C9A 1_555 1_555
C6A C5A 1_555 1_555
H6A C6A 1_555 1_555
C7A C4A 1_555 1_555
H7A C7A 1_555 1_555
O2A C9A 1_555 1_555
C8A C13A 1_555 1_555
C9A C10A 1_555 1_555
C10A C1A 1_555 1_555
C11A C4A 1_555 1_555
C12A C2A 1_555 1_555
C13A C11A 1_555 1_555
C14A C1A 1_555 1_555
H8A C14A 1_555 1_555
C15A C13A 1_555 1_555
O3A Co1 1_555 1_555
C16A O3A 1_555 1_555
O4A C16A 1_555 1_555
C17A C6A 1_555 1_555
Co2A O8A 1_555 1_555
F7A C30A 1_555 1_555
F8A C30A 1_555 1_555
F9A C23A 1_555 1_555
O5A C34A 1_555 1_555
F10A C23A 1_555 1_555
F11A C30A 1_555 1_555
F12A C23A 1_555 1_555
C18A H9A 1_555 1_555
C19A H10A 1_555 1_555
O6A Co1 1_555 1_555
O7A C24A 1_555 1_555
C20A H11A 1_555 1_555
C21A C20A 1_555 1_555
H12A C21A 1_555 1_555
C22A C20A 1_555 1_555
C23A C31A 1_555 1_555
C24A O6A 1_555 1_555
C25A C18A 1_555 1_555
C26A C24A 1_555 1_555
C27A H13A 1_555 1_555
C28A C18A 1_555 1_555
H14A C28A 1_555 1_555
C29A C22A 1_555 1_555
H15A C29A 1_555 1_555
C30A C31A 1_555 1_555
C31A C25A 1_555 1_555
C32A C19A 1_555 1_555
H16A C32A 1_555 1_555
C33A C21A 1_555 1_555
O8A C34A 1_555 1_555
C34A C22A 1_555 1_555
Co1_2 O3 1_555 1_555
O1A_2 Co1 1_555 1_555
O2_2 Co2A 1_555 1_555
O2A_2 Co2 1_555 1_555
O3_2 Co2A 1_555 1_555
O3_3 Co1 1_555 1_555
O3A_2 Co2 1_555 1_555
O4_2 Co2A 1_555 1_555
O4A_2 Co2 1_555 1_555
Co2_2 O2A 1_555 1_555
Co2_3 O3A 1_555 1_555
Co2A_2 O3 1_555 1_555
Co2A_3 O2 1_555 1_555
O7_2 Co2A 1_555 1_555
O7A_2 Co2 1_555 1_555
C3 C10 1_555 1_555
C5 C11 1_555 1_555
C7 C17 1_555 1_555
C12 C13 1_555 1_555
C12 C14 1_555 1_555
C16 C17 1_555 1_555
C19 C25 1_555 1_555
O7 Co2A_3 1_555 1_555
C26 C28 1_555 1_555
C26 C32 1_555 1_555
C27 C29 1_555 1_555
C27 C33 1_555 1_555
C31 C33 1_555 1_555
C37 N1 1_555 1_555
C3A C10A 1_555 1_555
C5A C11A 1_555 1_555
O1A Co1_2 1_555 1_555
C7A C17A 1_555 1_555
C12A C13A 1_555 1_555
C12A C14A 1_555 1_555
C16A C17A 1_555 1_555
O4A Co2_3 1_555 1_555
C19A C25A 1_555 1_555
O7A Co2_3 1_555 1_555
C26A C28A 1_555 1_555
C26A C32A 1_555 1_555
C27A C29A 1_555 1_555
C27A C33A 1_555 1_555
C31A C33A 1_555 1_555
O3_3 Co2A_3 1_555 1_555

#END
