
#######################################################################
#
#                 Cambridge Crystallographic Data Centre
#                                CCDC 
#
#######################################################################
#
# If this CIF has been generated from an entry in the Cambridge 
# Structural Database, then it will include bibliographic, chemical, 
# crystal, experimental, refinement or atomic coordinate data resulting 
# from the CCDC's data processing and validation procedures.
#
#######################################################################

data_DOTWAM
_symmetry_cell_setting           orthorhombic
_symmetry_space_group_name_H-M   'P n a 21'
_symmetry_Int_Tables_number      33
_space_group_name_Hall           'P 2c -2n'
loop_
_symmetry_equiv_pos_site_id
_symmetry_equiv_pos_as_xyz
1 x,y,z
2 -x,-y,1/2+z
3 1/2+x,1/2-y,z
4 1/2-x,1/2+y,1/2+z
_cell_length_a                   26.673(7)
_cell_length_b                   9.769(3)
_cell_length_c                   10.315(3)
_cell_angle_alpha                90
_cell_angle_beta                 90
_cell_angle_gamma                90
_cell_volume                     2687.76
loop_
_atom_site_label
_atom_site_type_symbol
_atom_site_fract_x
_atom_site_fract_y
_atom_site_fract_z
H1 H 0.937(3) 0.164(9) 0.564(11)
O1 O 0.5595(2) -0.0247(7) 0.9503(6)
Co1 Co 0.48350(5) 0.17378(11) 0.38360(10)
Co2 Co 0.51546(4) 0.06543(11) 0.67563(11)
O2 O 0.5358(2) 0.1525(5) 0.5179(5)
O3 O 0.4847(2) 0.1302(6) 0.1982(6)
O4 O 0.5750(2) 0.1177(6) 0.7894(6)
C1 C 0.8860(3) 0.2718(9) 0.8610(9)
C2 C 0.6308(3) 0.1132(9) 0.9629(9)
C3 C 0.7688(3) 0.2405(10) 1.1534(9)
C4 C 0.8841(3) 0.3653(10) 0.9613(10)
H2 H 0.9079 0.4346 0.9656
C5 C 0.5853(3) 0.0668(10) 0.8937(10)
C6 C 0.8103(3) 0.2596(11) 1.0476(9)
C7 C 0.8125(3) 0.1681(10) 0.9495(9)
H3 H 0.7882 0.0999 0.9446
C8 C 0.6597(3) 0.2213(8) 0.9187(8)
H4 H 0.6497 0.2689 0.8450
C9 C 0.8470(4) 0.3573(10) 1.0565(10)
H5 H 0.8472 0.4181 1.1258
C10 C 0.7894(5) 0.1370(16) 1.2547(12)
C11 C 0.8495(3) 0.1728(10) 0.8568(10)
H6 H 0.8497 0.1083 0.7905
C12 C 0.7556(5) 0.3786(16) 1.2221(13)
C13 C 0.7199(3) 0.1944(10) 1.0896(9)
O5 O 0.4328(3) 0.3240(8) 0.4305(7)
F1 F 0.7495(3) 0.4792(7) 1.1423(8)
F2 F 0.7931(2) 0.0115(8) 1.2005(8)
F3 F 0.7920(2) 0.4158(7) 1.3062(7)
F4 F 0.7607(2) 0.1248(8) 1.3586(6)
N1 N 0.5272(3) 0.3460(8) 0.3273(8)
F5 F 0.7145(2) 0.3652(7) 1.2936(7)
C14 C 0.6901(3) 0.0858(10) 1.1356(9)
H7 H 0.7001 0.0373 1.2088
C15 C 0.5144(6) 0.2199(13) 0.1306(11)
H8 H 0.4957 0.2488 0.0547
H9 H 0.5432 0.1689 0.0995
F6 F 0.8343(3) 0.1726(8) 1.2932(7)
C16 C 0.7029(3) 0.2596(9) 0.9817(9)
H10 H 0.7212 0.3331 0.9493
C17 C 0.5013(6) 0.4682(13) 0.3705(19)
H11 H 0.5156 0.4970 0.4525
H12 H 0.5073 0.5407 0.3081
C18 C 0.6462(4) 0.0508(9) 1.0732(10)
H13 H 0.6264 -0.0183 1.1082
C19 C 0.4485(5) 0.4523(13) 0.3865(14)
H14 H 0.4369 0.5211 0.4473
H15 H 0.4324 0.4704 0.3040
O6 O 0.9283(3) 0.1932(7) 0.6778(9)
O7 O 0.9577(3) 0.3780(8) 0.7736(7)
C20 C 0.9267(4) 0.2773(12) 0.7624(9)
C21 C 0.5750(4) 0.3284(12) 0.3945(14)
H16 H 0.5979 0.2800 0.3377
H17 H 0.5892 0.4181 0.4112
C22 C 0.5322(5) 0.3359(14) 0.1903(13)
H18 H 0.5152 0.4140 0.1521
H19 H 0.5675 0.3445 0.1693
C23 C 0.5717(4) 0.2555(14) 0.5147(12)
H20 H 0.6041 0.2154 0.5334
H21 H 0.5643 0.3205 0.5833
O1A O 0.4405(2) 0.0247(7) 0.4503(6)
Co1A Co 0.51650(5) -0.17378(11) 0.88360(10)
Co2A Co 0.48454(4) -0.06543(11) 0.17563(11)
Co2B Co 1.01546(4) 0.43457(11) 0.67563(11)
O3A O 0.5153(2) -0.1302(6) 0.6982(6)
O7B O 0.4577(3) 0.1220(8) 0.7736(7)
loop_
_geom_bond_atom_site_label_1
_geom_bond_atom_site_label_2
_geom_bond_site_symmetry_1
_geom_bond_site_symmetry_2
H1 O6 1_555 1_555
O1 C5 1_555 1_555
Co1 O2 1_555 1_555
Co2 O2 1_555 1_555
O2 C23 1_555 1_555
O3 Co1 1_555 1_555
O4 Co2 1_555 1_555
C1 C4 1_555 1_555
C2 C5 1_555 1_555
C3 C6 1_555 1_555
C4 H2 1_555 1_555
C5 O4 1_555 1_555
C6 C7 1_555 1_555
C7 H3 1_555 1_555
C8 C2 1_555 1_555
H4 C8 1_555 1_555
C9 C4 1_555 1_555
H5 C9 1_555 1_555
C10 C3 1_555 1_555
C11 C1 1_555 1_555
H6 C11 1_555 1_555
C12 C3 1_555 1_555
C13 C3 1_555 1_555
O5 Co1 1_555 1_555
F1 C12 1_555 1_555
F2 C10 1_555 1_555
F3 C12 1_555 1_555
F4 C10 1_555 1_555
N1 Co1 1_555 1_555
F5 C12 1_555 1_555
C14 C13 1_555 1_555
H7 C14 1_555 1_555
C15 O3 1_555 1_555
H8 C15 1_555 1_555
H9 C15 1_555 1_555
F6 C10 1_555 1_555
C16 C8 1_555 1_555
H10 C16 1_555 1_555
C17 N1 1_555 1_555
H11 C17 1_555 1_555
H12 C17 1_555 1_555
C18 C2 1_555 1_555
H13 C18 1_555 1_555
C19 O5 1_555 1_555
H14 C19 1_555 1_555
H15 C19 1_555 1_555
O6 C20 1_555 1_555
O7 C20 1_555 1_555
C20 C1 1_555 1_555
C21 N1 1_555 1_555
H16 C21 1_555 1_555
H17 C21 1_555 1_555
C22 N1 1_555 1_555
H18 C22 1_555 1_555
H19 C22 1_555 1_555
C23 C21 1_555 1_555
H20 C23 1_555 1_555
H21 C23 1_555 1_555
O1A Co1 1_555 1_555
Co1A O1 1_555 1_555
Co2A O3 1_555 1_555
Co2B O7 1_555 1_555
O3A Co2 1_555 1_555
O7B Co2 1_555 1_555
C6 C9 1_555 1_555
C7 C11 1_555 1_555
C13 C16 1_555 1_555
C14 C18 1_555 1_555
C15 C22 1_555 1_555
C17 C19 1_555 1_555
Co1A O3A 1_555 1_555

#END
