
#######################################################################
#
#                 Cambridge Crystallographic Data Centre
#                                CCDC 
#
#######################################################################
#
# If this CIF has been generated from an entry in the Cambridge 
# Structural Database, then it will include bibliographic, chemical, 
# crystal, experimental, refinement or atomic coordinate data resulting 
# from the CCDC's data processing and validation procedures.
#
#######################################################################

data_DOTXUG01
_symmetry_cell_setting           monoclinic
_symmetry_space_group_name_H-M   'P 21'
_symmetry_Int_Tables_number      4
_space_group_name_Hall           'P 2yb'
loop_
_symmetry_equiv_pos_site_id
_symmetry_equiv_pos_as_xyz
1 x,y,z
2 -x,1/2+y,-z
_cell_length_a                   8.9396(9)
_cell_length_b                   13.2886(13)
_cell_length_c                   10.5204(11)
_cell_angle_alpha                90
_cell_angle_beta                 110.210(2)
_cell_angle_gamma                90
_cell_volume                     1172.82
loop_
_atom_site_label
_atom_site_type_symbol
_atom_site_fract_x
_atom_site_fract_y
_atom_site_fract_z
Co1 Co 0.34610(6) 0.36842(4) 0.18794(5)
Co2 Co 0.47220(6) 0.54238(4) 0.43142(5)
O1 O 0.5598(5) 0.6818(3) 0.4635(4)
H1 H 0.5089 0.7276 0.4877
H2 H 0.6480 0.6955 0.4535
N1 N 0.1803(5) 0.2657(3) 0.0641(4)
N2 N 0.4374(5) 0.3958(3) 0.0258(4)
O2 O 0.2560(4) 0.3317(2) 0.3415(3)
O3 O 0.2745(4) 0.4799(3) 0.4436(4)
O4 O -0.4446(4) 0.2840(2) 0.2826(3)
O5 O -0.4419(4) 0.4435(2) 0.3288(3)
O6 O -0.3229(4) 0.1112(2) -0.2479(3)
O7 O -0.1920(4) -0.0171(2) -0.1187(3)
O8 O 0.5882(4) 0.5167(2) -0.3652(3)
O9 O 0.6015(5) 0.3502(3) -0.3765(4)
C1 C 0.2153(5) 0.3941(3) 0.4130(4)
C2 C 0.0820(5) 0.3648(4) 0.4669(4)
C3 C -0.0842(7) 0.4083(5) 0.3717(6)
C4 C -0.1963(5) 0.3505(4) 0.4324(5)
H3 H -0.1852 0.3828 0.5189
C5 C -0.1345(9) 0.2463(6) 0.4641(8)
H4 H -0.1957 0.1994 0.3950
H5 H -0.1373 0.2246 0.5513
C6 C 0.0456(9) 0.2550(6) 0.4664(10)
H6 H 0.1184 0.2228 0.5467
H7 H 0.0559 0.2228 0.3871
C7 C 0.1139(10) 0.4114(8) 0.6076(8)
H8 H 0.2142 0.3875 0.6689
H9 H 0.0303 0.3924 0.6406
H10 H 0.1170 0.4834 0.6011
C8 C -0.0996(11) 0.5250(6) 0.3798(9)
H11 H -0.2026 0.5458 0.3198
H12 H -0.0183 0.5569 0.3536
H13 H -0.0873 0.5440 0.4709
C9 C -0.1148(9) 0.3866(6) 0.2299(7)
H14 H -0.1064 0.3154 0.2181
H15 H -0.0381 0.4211 0.2006
H16 H -0.2202 0.4088 0.1771
C10 C -0.3704(4) 0.3581(4) 0.3446(4)
C11 C -0.2065(5) 0.0740(3) -0.1560(4)
C12 C -0.0698(6) 0.1417(3) -0.0800(4)
C13 C 0.0481(6) 0.1086(4) 0.0368(5)
H17 H 0.0455 0.0432 0.0675
C14 C 0.1685(6) 0.1725(4) 0.1069(5)
H18 H 0.2446 0.1503 0.1871
C15 C 0.0691(6) 0.2957(4) -0.0494(5)
H19 H 0.0773 0.3602 -0.0807
C16 C -0.0572(6) 0.2375(4) -0.1235(5)
H20 H -0.1330 0.2624 -0.2021
C17 C 0.5801(6) 0.4293(3) -0.3224(5)
C18 C 0.5405(6) 0.4199(4) -0.1944(5)
C19 C 0.5390(6) 0.3259(4) -0.1381(5)
H21 H 0.5726 0.2693 -0.1726
C20 C 0.4863(6) 0.3181(4) -0.0290(5)
H22 H 0.4850 0.2547 0.0079
C21 C 0.4433(7) 0.4870(4) -0.0281(5)
H23 H 0.4127 0.5429 0.0101
C22 C 0.4926(6) 0.5012(4) -0.1375(5)
H24 H 0.4934 0.5654 -0.1725
Co1_2 Co -0.65390(6) 0.36842(4) 0.18794(5)
Co1A Co -0.34610(6) -0.13158(4) -0.18794(5)
Co2_2 Co -0.52780(6) 0.54238(4) 0.43142(5)
Co2A Co -0.47220(6) 0.04238(4) -0.43142(5)
Co2_3 Co 0.47220(6) 0.54238(4) -0.56858(5)
O4_2 O 0.5554(4) 0.2840(2) 0.2826(3)
O5_2 O 0.5581(4) 0.4435(2) 0.3288(3)
O6A O 0.3229(4) 0.6112(2) 0.2479(3)
O7A O 0.1920(4) 0.4829(2) 0.1187(3)
O8_2 O 0.5882(4) 0.5167(2) 0.6348(3)
loop_
_geom_bond_atom_site_label_1
_geom_bond_atom_site_label_2
_geom_bond_site_symmetry_1
_geom_bond_site_symmetry_2
Co1 N1 1_555 1_555
Co2 O1 1_555 1_555
O1 H1 1_555 1_555
H2 O1 1_555 1_555
N1 C14 1_555 1_555
N2 Co1 1_555 1_555
O2 Co1 1_555 1_555
O3 Co2 1_555 1_555
O4 C10 1_555 1_555
O5 C10 1_555 1_555
O6 C11 1_555 1_555
O7 C11 1_555 1_555
O8 C17 1_555 1_555
O9 C17 1_555 1_555
C1 O2 1_555 1_555
C2 C1 1_555 1_555
C3 C2 1_555 1_555
C4 C3 1_555 1_555
H3 C4 1_555 1_555
C5 C4 1_555 1_555
H4 C5 1_555 1_555
H5 C5 1_555 1_555
C6 C2 1_555 1_555
H6 C6 1_555 1_555
H7 C6 1_555 1_555
C7 C2 1_555 1_555
H8 C7 1_555 1_555
H9 C7 1_555 1_555
H10 C7 1_555 1_555
C8 C3 1_555 1_555
H11 C8 1_555 1_555
H12 C8 1_555 1_555
H13 C8 1_555 1_555
C9 C3 1_555 1_555
H14 C9 1_555 1_555
H15 C9 1_555 1_555
H16 C9 1_555 1_555
C10 C4 1_555 1_555
C11 C12 1_555 1_555
C12 C13 1_555 1_555
C13 H17 1_555 1_555
C14 C13 1_555 1_555
H18 C14 1_555 1_555
C15 N1 1_555 1_555
H19 C15 1_555 1_555
C16 C12 1_555 1_555
H20 C16 1_555 1_555
C17 C18 1_555 1_555
C18 C19 1_555 1_555
C19 H21 1_555 1_555
C20 N2 1_555 1_555
H22 C20 1_555 1_555
C21 N2 1_555 1_555
H23 C21 1_555 1_555
C22 C18 1_555 1_555
H24 C22 1_555 1_555
Co1_2 O4 1_555 1_555
Co1A O7 1_555 1_555
Co2_2 O5 1_555 1_555
Co2A O6 1_555 1_555
Co2_3 O8 1_555 1_555
O4_2 Co1 1_555 1_555
O5_2 Co1 1_555 1_555
O6A Co2 1_555 1_555
O7A Co1 1_555 1_555
O8_2 Co2 1_555 1_555
Co2 O5_2 1_555 1_555
O3 C1 1_555 1_555
O5 Co1_2 1_555 1_555
C5 C6 1_555 1_555
C15 C16 1_555 1_555
C19 C20 1_555 1_555
C21 C22 1_555 1_555

#END
