
#######################################################################
#
#                 Cambridge Crystallographic Data Centre
#                                CCDC 
#
#######################################################################
#
# If this CIF has been generated from an entry in the Cambridge 
# Structural Database, then it will include bibliographic, chemical, 
# crystal, experimental, refinement or atomic coordinate data resulting 
# from the CCDC's data processing and validation procedures.
#
#######################################################################

data_DOTXUG
_symmetry_cell_setting           monoclinic
_symmetry_space_group_name_H-M   'P 21'
_symmetry_Int_Tables_number      4
_space_group_name_Hall           'P 2yb'
loop_
_symmetry_equiv_pos_site_id
_symmetry_equiv_pos_as_xyz
1 x,y,z
2 -x,1/2+y,-z
_cell_length_a                   8.95430(10)
_cell_length_b                   13.3217(2)
_cell_length_c                   10.53710(10)
_cell_angle_alpha                90
_cell_angle_beta                 110.1950(10)
_cell_angle_gamma                90
_cell_volume                     1179.66
loop_
_atom_site_label
_atom_site_type_symbol
_atom_site_fract_x
_atom_site_fract_y
_atom_site_fract_z
Co1 Co 0.52814(7) 0.26407(4) 0.06858(6)
Co2 Co 0.65440(7) 0.09015(5) 0.31213(6)
O1 O 0.4397(5) 0.4038(3) 0.0345(4)
H1 H 0.5105 0.4443 0.0710
O2 O -0.2559(4) 0.0540(2) 0.1583(3)
O3 O -0.2745(4) 0.2016(3) 0.0569(4)
O4 O 0.4424(4) 0.1652(2) 0.1713(3)
O5 O 0.4456(4) 0.0056(2) 0.2180(3)
O6 O 0.3998(5) 0.0723(3) -0.1219(4)
O7 O 0.4114(4) 0.2381(2) -0.1343(3)
O8 O 0.8082(4) 0.2042(2) 0.3819(3)
O9 O 0.6775(4) 0.3326(2) 0.2518(3)
N1 N 0.5634(5) 0.1174(3) -0.5250(4)
N2 N 1.1808(5) 0.4870(3) 0.5650(4)
C1 C -0.0814(5) 0.0875(4) 0.0332(4)
C2 C 0.0854(7) 0.1272(5) 0.1312(6)
C3 C 0.1964(5) 0.0726(4) 0.0675(5)
H2 H 0.1844 0.1068 -0.0179
C4 C 0.1368(8) -0.0309(5) 0.0335(9)
H3 H 0.1991 -0.0783 0.1010
H4 H 0.1389 -0.0508 -0.0545
C5 C -0.0472(9) -0.0237(6) 0.0330(9)
H5 H -0.1207 -0.0556 -0.0469
H6 H -0.0564 -0.0559 0.1126
C6 C -0.1111(9) 0.1361(6) -0.1065(7)
H7 H -0.2115 0.1137 -0.1688
H8 H -0.0276 0.1170 -0.1394
H9 H -0.1125 0.2078 -0.0982
C7 C 0.0993(10) 0.2465(5) 0.1199(9)
H10 H 0.2013 0.2685 0.1801
H11 H 0.0168 0.2785 0.1440
H12 H 0.0883 0.2641 0.0287
C8 C 0.1151(7) 0.1096(10) 0.2691(6)
H13 H 0.1088 0.0389 0.2840
H14 H 0.0374 0.1443 0.2965
H15 H 0.2196 0.1335 0.3209
C9 C -0.2148(5) 0.1154(4) 0.0860(4)
C10 C 0.3702(5) 0.0800(4) 0.1553(4)
C11 C 0.5131(6) 0.0409(4) -0.4717(5)
H16 H 0.5112 -0.0222 -0.5101
C12 C 0.4624(6) 0.0487(4) -0.3612(5)
H17 H 0.4305 -0.0079 -0.3257
C13 C 0.4604(6) 0.1416(4) -0.3057(5)
C14 C 0.5073(6) 0.2227(4) -0.3624(5)
H18 H 0.5065 0.2868 -0.3277
C15 C 0.5560(6) 0.2079(4) -0.4722(5)
H19 H 0.5851 0.2637 -0.5114
C16 C 0.4174(6) 0.1505(4) -0.1783(5)
C17 C 1.0696(7) 0.5165(4) 0.4509(5)
H20 H 1.0785 0.5806 0.4193
C18 C 0.9425(6) 0.4589(4) 0.3767(5)
H21 H 0.8668 0.4841 0.2985
C19 C 0.9296(6) 0.3636(4) 0.4201(5)
C20 C 1.0469(6) 0.3307(4) 0.5365(5)
H22 H 1.0443 0.2655 0.5673
C21 C 1.1677(7) 0.3951(4) 0.6066(5)
H23 H 1.2432 0.3728 0.6868
C22 C 0.7940(6) 0.2959(3) 0.3439(5)
Co1_2 Co -0.47186(7) 0.26407(4) 0.06858(6)
Co2_2 Co -0.34560(7) 0.09015(5) 0.31213(6)
Co2_3 Co 0.65440(7) 0.09015(5) -0.68787(6)
Co2A Co 1.34560(7) 0.59015(5) 0.68787(6)
O2_2 O 0.7441(4) 0.0540(2) 0.1583(3)
O3_2 O 0.7255(4) 0.2016(3) 0.0569(4)
N1_2 N 0.5634(5) 0.1174(3) 0.4750(4)
N2A N 0.8192(5) -0.0130(3) 0.4350(4)
loop_
_geom_bond_atom_site_label_1
_geom_bond_atom_site_label_2
_geom_bond_site_symmetry_1
_geom_bond_site_symmetry_2
Co1 O1 1_555 1_555
Co2 O4 1_555 1_555
O1 H1 1_555 1_555
O2 C9 1_555 1_555
O3 C9 1_555 1_555
O4 Co1 1_555 1_555
O5 Co2 1_555 1_555
O6 C16 1_555 1_555
O7 Co1 1_555 1_555
O8 Co2 1_555 1_555
O9 Co1 1_555 1_555
N1 C11 1_555 1_555
N2 C17 1_555 1_555
C1 C2 1_555 1_555
C2 C3 1_555 1_555
C3 H2 1_555 1_555
C4 C3 1_555 1_555
H3 C4 1_555 1_555
H4 C4 1_555 1_555
C5 C1 1_555 1_555
H5 C5 1_555 1_555
H6 C5 1_555 1_555
C6 C1 1_555 1_555
H7 C6 1_555 1_555
H8 C6 1_555 1_555
H9 C6 1_555 1_555
C7 C2 1_555 1_555
H10 C7 1_555 1_555
H11 C7 1_555 1_555
H12 C7 1_555 1_555
C8 C2 1_555 1_555
H13 C8 1_555 1_555
H14 C8 1_555 1_555
H15 C8 1_555 1_555
C9 C1 1_555 1_555
C10 O4 1_555 1_555
C11 H16 1_555 1_555
C12 C11 1_555 1_555
H17 C12 1_555 1_555
C13 C12 1_555 1_555
C14 C13 1_555 1_555
H18 C14 1_555 1_555
C15 N1 1_555 1_555
H19 C15 1_555 1_555
C16 O7 1_555 1_555
C17 H20 1_555 1_555
C18 C17 1_555 1_555
H21 C18 1_555 1_555
C19 C18 1_555 1_555
C20 C19 1_555 1_555
H22 C20 1_555 1_555
C21 N2 1_555 1_555
H23 C21 1_555 1_555
C22 O8 1_555 1_555
Co1_2 O3 1_555 1_555
Co2_2 O2 1_555 1_555
Co2_3 N1 1_555 1_555
Co2A N2 1_555 1_555
O2_2 Co2 1_555 1_555
O3_2 Co1 1_555 1_555
N1_2 Co2 1_555 1_555
N2A Co2 1_555 1_555
O5 C10 1_555 1_555
O9 C22 1_555 1_555
C3 C10 1_555 1_555
C4 C5 1_555 1_555
C13 C16 1_555 1_555
C14 C15 1_555 1_555
C19 C22 1_555 1_555
C20 C21 1_555 1_555

#END
