
#######################################################################
#
#                 Cambridge Crystallographic Data Centre
#                                CCDC 
#
#######################################################################
#
# If this CIF has been generated from an entry in the Cambridge 
# Structural Database, then it will include bibliographic, chemical, 
# crystal, experimental, refinement or atomic coordinate data resulting 
# from the CCDC's data processing and validation procedures.
#
#######################################################################

data_DOTYUI01
_symmetry_cell_setting           triclinic
_symmetry_space_group_name_H-M   'P -1'
_symmetry_Int_Tables_number      2
_space_group_name_Hall           '-P 1'
loop_
_symmetry_equiv_pos_site_id
_symmetry_equiv_pos_as_xyz
1 x,y,z
2 -x,-y,-z
_cell_length_a                   8.6922(5)
_cell_length_b                   11.1186(6)
_cell_length_c                   11.8325(9)
_cell_angle_alpha                103.138(6)
_cell_angle_beta                 96.916(6)
_cell_angle_gamma                100.204(5)
_cell_volume                     1080.49
loop_
_atom_site_label
_atom_site_type_symbol
_atom_site_fract_x
_atom_site_fract_y
_atom_site_fract_z
Co1 Co 0.5000 0.0000 0.5000
O1 O 0.3929(12) 0.1092(10) 0.6124(10)
O2 O 0.6518(11) 0.0022(10) 0.6436(10)
N1 N 0.6428(14) 0.1609(12) 0.4784(13)
N2 N 0.9335(16) 0.4896(13) 0.4712(14)
C1 C 0.7956(17) 0.1611(15) 0.4942(16)
H1 H 0.8333 0.0906 0.5052
C2 C 0.8949(19) 0.2698(16) 0.4936(17)
H2 H 1.0039 0.2752 0.5047
C3 C 0.8361(18) 0.3700(15) 0.4771(15)
C4 C 0.675(2) 0.3603(16) 0.4584(18)
H3 H 0.6326 0.4273 0.4432
C5 C 0.5779(18) 0.2507(13) 0.4624(16)
H4 H 0.4684 0.2424 0.4537
C6 C 0.4734(14) 0.1268(12) 0.7142(12)
C7 C 0.6113(15) 0.0733(12) 0.7315(13)
C8 C 0.7023(18) 0.0934(15) 0.8422(16)
H5 H 0.7907 0.0577 0.8502
C9 C 0.6599(19) 0.1679(15) 0.9415(16)
C10 C 0.5238(18) 0.2199(15) 0.9240(16)
H6 H 0.4961 0.2694 0.9899
C11 C 0.4283(17) 0.2027(15) 0.8159(16)
C12 C 0.750(2) 0.1922(16) 1.0670(16)
C13 C 0.648(3) 0.151(3) 1.146(2)
H7 H 0.5755 0.2063 1.1616
H8 H 0.7116 0.1525 1.2189
H9 H 0.5888 0.0662 1.1102
C14 C 0.825(3) 0.3306(19) 1.115(2)
H10 H 0.8931 0.3572 1.0631
H11 H 0.8855 0.3440 1.1916
H12 H 0.7432 0.3787 1.1201
C15 C 0.891(3) 0.124(3) 1.068(2)
H13 H 0.8530 0.0375 1.0679
H14 H 0.9682 0.1652 1.1369
H15 H 0.9379 0.1271 0.9989
C16 C 0.2811(19) 0.2586(16) 0.7991(16)
C17 C 0.254(3) 0.334(2) 0.924(2)
H16 H 0.2156 0.2753 0.9677
H17 H 0.1771 0.3846 0.9131
H18 H 0.3521 0.3879 0.9669
C18 C 0.135(2) 0.156(2) 0.743(2)
H19 H 0.1484 0.1125 0.6663
H20 H 0.0440 0.1927 0.7374
H21 H 0.1215 0.0968 0.7913
C19 C 0.306(2) 0.3499(19) 0.721(2)
H22 H 0.4098 0.4037 0.7462
H23 H 0.2275 0.4007 0.7264
H24 H 0.2970 0.3029 0.6407
N1A N 1.3572(14) 0.8391(12) 0.5216(13)
N2A N 1.0665(16) 0.5104(13) 0.5288(14)
C1A C 1.2044(17) 0.8389(15) 0.5058(16)
H1A H 1.1667 0.9094 0.4948
C2A C 1.1051(19) 0.7302(16) 0.5064(17)
H2A H 0.9961 0.7248 0.4953
C3A C 1.1639(18) 0.6300(15) 0.5229(15)
C4A C 1.325(2) 0.6397(16) 0.5416(18)
H3A H 1.3674 0.5727 0.5568
C5A C 1.4221(18) 0.7493(13) 0.5376(16)
H4A H 1.5316 0.7576 0.5463
O1A O 0.6071(12) -0.1092(10) 0.3876(10)
O2A O 0.3482(11) -0.0022(10) 0.3564(10)
C6A C 0.5266(14) -0.1268(12) 0.2858(12)
C7A C 0.3887(15) -0.0733(12) 0.2685(13)
C8A C 0.2977(18) -0.0934(15) 0.1578(16)
H5A H 0.2093 -0.0577 0.1498
C9A C 0.3401(19) -0.1679(15) 0.0585(16)
C10A C 0.4762(18) -0.2199(15) 0.0760(16)
H6A H 0.5039 -0.2694 0.0101
C11A C 0.5717(17) -0.2027(15) 0.1841(16)
C12A C 0.250(2) -0.1922(16) -0.0670(16)
C13A C 0.352(3) -0.151(3) -0.146(2)
H7A H 0.4245 -0.2063 -0.1616
H8A H 0.2884 -0.1525 -0.2189
H9A H 0.4112 -0.0662 -0.1102
C14A C 0.175(3) -0.3306(19) -0.115(2)
H10A H 0.1069 -0.3572 -0.0631
H11A H 0.1145 -0.3440 -0.1916
H12A H 0.2568 -0.3787 -0.1201
C15A C 0.109(3) -0.124(3) -0.068(2)
H13A H 0.1470 -0.0375 -0.0679
H14A H 0.0318 -0.1652 -0.1369
H15A H 0.0621 -0.1271 0.0011
C16A C 0.7189(19) -0.2586(16) 0.2009(16)
C17A C 0.746(3) -0.334(2) 0.076(2)
H16A H 0.7844 -0.2753 0.0323
H17A H 0.8229 -0.3846 0.0869
H18A H 0.6479 -0.3879 0.0331
C18A C 0.865(2) -0.156(2) 0.257(2)
H19A H 0.8516 -0.1125 0.3337
H20A H 0.9560 -0.1927 0.2626
H21A H 0.8785 -0.0968 0.2087
C19A C 0.694(2) -0.3499(19) 0.279(2)
H22A H 0.5902 -0.4037 0.2538
H23A H 0.7725 -0.4007 0.2736
H24A H 0.7030 -0.3029 0.3593
Co1_2 Co 1.5000 1.0000 0.5000
N1A_2 N 0.3572(14) -0.1609(12) 0.5216(13)
loop_
_geom_bond_atom_site_label_1
_geom_bond_atom_site_label_2
_geom_bond_site_symmetry_1
_geom_bond_site_symmetry_2
Co1 O1 1_555 1_555
O1 C6 1_555 1_555
O2 Co1 1_555 1_555
N1 Co1 1_555 1_555
N2 C3 1_555 1_555
C1 N1 1_555 1_555
H1 C1 1_555 1_555
C2 C1 1_555 1_555
H2 C2 1_555 1_555
C3 C2 1_555 1_555
C4 C3 1_555 1_555
H3 C4 1_555 1_555
C5 N1 1_555 1_555
H4 C5 1_555 1_555
C6 C7 1_555 1_555
C7 O2 1_555 1_555
C8 C7 1_555 1_555
H5 C8 1_555 1_555
C9 C8 1_555 1_555
C10 C9 1_555 1_555
H6 C10 1_555 1_555
C11 C6 1_555 1_555
C12 C9 1_555 1_555
C13 C12 1_555 1_555
H7 C13 1_555 1_555
H8 C13 1_555 1_555
H9 C13 1_555 1_555
C14 C12 1_555 1_555
H10 C14 1_555 1_555
H11 C14 1_555 1_555
H12 C14 1_555 1_555
C15 C12 1_555 1_555
H13 C15 1_555 1_555
H14 C15 1_555 1_555
H15 C15 1_555 1_555
C16 C11 1_555 1_555
C17 C16 1_555 1_555
H16 C17 1_555 1_555
H17 C17 1_555 1_555
H18 C17 1_555 1_555
C18 C16 1_555 1_555
H19 C18 1_555 1_555
H20 C18 1_555 1_555
H21 C18 1_555 1_555
C19 C16 1_555 1_555
H22 C19 1_555 1_555
H23 C19 1_555 1_555
H24 C19 1_555 1_555
N1A C1A 1_555 1_555
N2A N2 1_555 1_555
C1A H1A 1_555 1_555
C2A C1A 1_555 1_555
H2A C2A 1_555 1_555
C3A N2A 1_555 1_555
C4A C3A 1_555 1_555
H3A C4A 1_555 1_555
C5A N1A 1_555 1_555
H4A C5A 1_555 1_555
O1A Co1 1_555 1_555
O2A Co1 1_555 1_555
C6A O1A 1_555 1_555
C7A O2A 1_555 1_555
C8A C7A 1_555 1_555
H5A C8A 1_555 1_555
C9A C8A 1_555 1_555
C10A C9A 1_555 1_555
H6A C10A 1_555 1_555
C11A C6A 1_555 1_555
C12A C9A 1_555 1_555
C13A C12A 1_555 1_555
H7A C13A 1_555 1_555
H8A C13A 1_555 1_555
H9A C13A 1_555 1_555
C14A C12A 1_555 1_555
H10A C14A 1_555 1_555
H11A C14A 1_555 1_555
H12A C14A 1_555 1_555
C15A C12A 1_555 1_555
H13A C15A 1_555 1_555
H14A C15A 1_555 1_555
H15A C15A 1_555 1_555
C16A C11A 1_555 1_555
C17A C16A 1_555 1_555
H16A C17A 1_555 1_555
H17A C17A 1_555 1_555
H18A C17A 1_555 1_555
C18A C16A 1_555 1_555
H19A C18A 1_555 1_555
H20A C18A 1_555 1_555
H21A C18A 1_555 1_555
C19A C16A 1_555 1_555
H22A C19A 1_555 1_555
H23A C19A 1_555 1_555
H24A C19A 1_555 1_555
Co1_2 N1A 1_555 1_555
N1A_2 Co1 1_555 1_555
C4 C5 1_555 1_555
C10 C11 1_555 1_555
C2A C3A 1_555 1_555
C4A C5A 1_555 1_555
C6A C7A 1_555 1_555
C10A C11A 1_555 1_555

#END
