
#######################################################################
#
#                 Cambridge Crystallographic Data Centre
#                                CCDC 
#
#######################################################################
#
# If this CIF has been generated from an entry in the Cambridge 
# Structural Database, then it will include bibliographic, chemical, 
# crystal, experimental, refinement or atomic coordinate data resulting 
# from the CCDC's data processing and validation procedures.
#
#######################################################################

data_DOTYIW
_symmetry_cell_setting           triclinic
_symmetry_space_group_name_H-M   'P -1'
_symmetry_Int_Tables_number      2
_space_group_name_Hall           '-P 1'
loop_
_symmetry_equiv_pos_site_id
_symmetry_equiv_pos_as_xyz
1 x,y,z
2 -x,-y,-z
_cell_length_a                   15.1825(12)
_cell_length_b                   15.2340(11)
_cell_length_c                   16.6588(14)
_cell_angle_alpha                101.638(7)
_cell_angle_beta                 96.941(7)
_cell_angle_gamma                101.291(6)
_cell_volume                     3648.83
loop_
_atom_site_label
_atom_site_type_symbol
_atom_site_fract_x
_atom_site_fract_y
_atom_site_fract_z
Co2 Co 0.5000 0.0000 0.5000
O5 O 0.4030(3) -0.0351(3) 0.4082(3)
O6 O 0.5799(3) 0.0026(3) 0.4218(3)
N3 N 0.4987(4) 0.1277(3) 0.5033(4)
C45 C 0.4365(5) -0.0332(4) 0.3392(5)
C46 C 0.3807(5) -0.0516(4) 0.2615(5)
H53 H 0.3177 -0.0650 0.2577
C47 C 0.4192(5) -0.0497(5) 0.1901(5)
C48 C 0.5145(5) -0.0294(5) 0.1989(5)
H54 H 0.5402 -0.0278 0.1511
C49 C 0.5736(5) -0.0116(4) 0.2743(5)
C50 C 0.5320(5) -0.0136(4) 0.3452(5)
C51 C 0.3629(6) -0.0725(6) 0.1036(5)
C52 C 0.2610(7) -0.0934(9) 0.1053(7)
H55 H 0.2455 -0.1444 0.1307
H56 H 0.2282 -0.1088 0.0495
H57 H 0.2452 -0.0404 0.1368
C53 C 0.3867(8) -0.1598(7) 0.0516(7)
H58 H 0.4497 -0.1461 0.0456
H59 H 0.3492 -0.1779 -0.0023
H60 H 0.3757 -0.2091 0.0797
C54 C 0.3854(8) 0.0047(8) 0.0599(7)
H61 H 0.3644 0.0568 0.0868
H62 H 0.3560 -0.0154 0.0029
H63 H 0.4502 0.0218 0.0623
C55 C 0.6769(5) 0.0065(5) 0.2796(5)
C56 C 0.7132(6) -0.0688(5) 0.3143(6)
H64 H 0.6932 -0.0719 0.3664
H65 H 0.7785 -0.0541 0.3226
H66 H 0.6903 -0.1272 0.2756
C57 C 0.7220(6) 0.1006(5) 0.3388(6)
H67 H 0.6969 0.1477 0.3204
H68 H 0.7865 0.1134 0.3388
H69 H 0.7107 0.0993 0.3941
C58 C 0.7069(6) 0.0058(5) 0.1947(5)
H70 H 0.6789 -0.0521 0.1569
H71 H 0.7720 0.0147 0.2010
H72 H 0.6887 0.0546 0.1731
C59 C 0.5774(5) 0.1888(4) 0.5124(5)
H73 H 0.6320 0.1700 0.5191
C60 C 0.5786(5) 0.2797(5) 0.5120(5)
H74 H 0.6342 0.3209 0.5176
C61 C 0.4991(5) 0.3105(4) 0.5034(4)
C62 C 0.4187(5) 0.2455(4) 0.4981(5)
H75 H 0.3633 0.2630 0.4949
C63 C 0.4209(5) 0.1559(5) 0.4975(5)
H76 H 0.3664 0.1134 0.4929
C64 C 0.4996(5) 0.4076(4) 0.5027(5)
C65 C 0.4213(5) 0.4345(5) 0.4754(5)
H77 H 0.3668 0.3904 0.4584
C66 C 0.4215(5) 0.5249(4) 0.4728(5)
H78 H 0.3674 0.5401 0.4541
N3A N 0.5013(4) 0.8723(3) 0.4967(4)
C59A C 0.4226(5) 0.8112(4) 0.4876(5)
H73A H 0.3680 0.8300 0.4809
C60A C 0.4214(5) 0.7203(5) 0.4880(5)
H74A H 0.3658 0.6791 0.4824
C61A C 0.5009(5) 0.6895(4) 0.4966(4)
C62A C 0.5813(5) 0.7545(4) 0.5019(5)
H75A H 0.6367 0.7370 0.5051
C63A C 0.5791(5) 0.8441(5) 0.5025(5)
H76A H 0.6336 0.8866 0.5071
C64A C 0.5004(5) 0.5924(4) 0.4973(5)
C65A C 0.5787(5) 0.5655(5) 0.5246(5)
H77A H 0.6332 0.6096 0.5416
C66A C 0.5785(5) 0.4751(4) 0.5272(5)
H78A H 0.6326 0.4599 0.5459
O5A O 0.5970(3) 0.0351(3) 0.5918(3)
O6A O 0.4201(3) -0.0026(3) 0.5782(3)
C45A C 0.5635(5) 0.0332(4) 0.6608(5)
C46A C 0.6193(5) 0.0516(4) 0.7385(5)
H53A H 0.6823 0.0650 0.7423
C47A C 0.5808(5) 0.0497(5) 0.8099(5)
C48A C 0.4855(5) 0.0294(5) 0.8011(5)
H54A H 0.4598 0.0278 0.8489
C49A C 0.4264(5) 0.0116(4) 0.7257(5)
C50A C 0.4680(5) 0.0136(4) 0.6548(5)
C51A C 0.6371(6) 0.0725(6) 0.8964(5)
C52A C 0.7390(7) 0.0934(9) 0.8947(7)
H55A H 0.7545 0.1444 0.8693
H56A H 0.7718 0.1088 0.9505
H57A H 0.7548 0.0404 0.8632
C53A C 0.6133(8) 0.1598(7) 0.9484(7)
H58A H 0.5503 0.1461 0.9544
H59A H 0.6508 0.1779 1.0023
H60A H 0.6243 0.2091 0.9203
C54A C 0.6146(8) -0.0047(8) 0.9401(7)
H61A H 0.6356 -0.0568 0.9132
H62A H 0.6440 0.0154 0.9971
H63A H 0.5498 -0.0218 0.9377
C55A C 0.3231(5) -0.0065(5) 0.7204(5)
C56A C 0.2868(6) 0.0688(5) 0.6857(6)
H64A H 0.3068 0.0719 0.6336
H65A H 0.2215 0.0541 0.6774
H66A H 0.3097 0.1272 0.7244
C57A C 0.2780(6) -0.1006(5) 0.6612(6)
H67A H 0.3031 -0.1477 0.6796
H68A H 0.2135 -0.1134 0.6612
H69A H 0.2893 -0.0993 0.6059
C58A C 0.2931(6) -0.0058(5) 0.8053(5)
H70A H 0.3211 0.0521 0.8431
H71A H 0.2280 -0.0147 0.7990
H72A H 0.3113 -0.0546 0.8269
Co2_2 Co 0.5000 1.0000 0.5000
N3A_2 N 0.5013(4) -0.1277(3) 0.4967(4)
Co1 Co 0.17442(7) 0.30545(7) 0.25249(8)
O1 O 0.2018(3) 0.3726(3) 0.3622(3)
O2 O 0.1528(3) 0.1978(3) 0.2915(3)
O3 O 0.1920(3) 0.4145(3) 0.2119(3)
O4 O 0.1470(3) 0.2408(3) 0.1388(3)
N1 N 1.0483(4) 0.3082(4) 0.2511(4)
N2 N 0.3015(4) 0.3028(4) 0.2548(4)
C1 C 0.9834(5) 0.2305(5) 0.2176(5)
H1 H 1.0009 0.1766 0.1958
C2 C 0.8931(5) 0.2289(5) 0.2150(5)
H2 H 0.8500 0.1752 0.1887
C3 C 0.8649(5) 0.3070(5) 0.2513(5)
C4 C 0.9318(5) 0.3862(5) 0.2866(5)
H3 H 0.9161 0.4400 0.3116
C5 C 1.0216(5) 0.3842(5) 0.2841(5)
H4 H 1.058(6) 0.435(5) 0.306(5)
C6 C 0.7668(5) 0.3046(5) 0.2531(5)
C7 C 0.7393(5) 0.3563(5) 0.3209(5)
H5 H 0.7829 0.3926 0.3654
C8 C 0.6488(5) 0.3541(5) 0.3226(5)
H6 H 0.6318 0.3885 0.3685
C9 C 0.5827(5) 0.3017(5) 0.2574(5)
C10 C 0.6095(5) 0.2488(5) 0.1896(5)
H7 H 0.5658 0.2110 0.1459
C11 C 0.7014(5) 0.2530(5) 0.1875(5)
H8 H 0.7189 0.2203 0.1410
C12 C 0.3285(5) 0.2236(5) 0.2394(5)
H9 H 0.2846 0.1687 0.2268
C13 C 0.4184(5) 0.2198(5) 0.2412(5)
H10 H 0.4343 0.1632 0.2313
C14 C 0.4860(5) 0.3013(5) 0.2580(5)
C15 C 0.4560(5) 0.3822(5) 0.2749(5)
H11 H 0.4981 0.4384 0.2877
C16 C 0.3666(5) 0.3807(5) 0.2730(5)
H12 H 0.3492 0.4365 0.2849
C17 C 0.1888(5) 0.3145(4) 0.4127(5)
C18 C 0.1971(5) 0.3449(5) 0.4976(5)
H13 H 0.2132 0.4078 0.5211
C19 C 0.1820(6) 0.2838(6) 0.5493(5)
C20 C 0.1598(5) 0.1897(5) 0.5110(5)
H14 H 0.1519 0.1479 0.5446
C21 C 0.1486(5) 0.1551(5) 0.4250(5)
C22 C 0.1631(4) 0.2193(4) 0.3744(5)
C23 C 0.1936(7) 0.3193(6) 0.6431(6)
C24 C 0.1469(10) 0.4016(7) 0.6626(7)
H15 H 0.1800 0.4532 0.6456
H16 H 0.1464 0.4182 0.7213
H17 H 0.0854 0.3843 0.6331
C25 C 0.2915(9) 0.3463(13) 0.6787(7)
H18 H 0.3171 0.2930 0.6706
H19 H 0.2989 0.3732 0.7371
H20 H 0.3221 0.3904 0.6516
C26 C 0.1433(10) 0.2492(7) 0.6848(7)
H21 H 0.0802 0.2311 0.6598
H22 H 0.1486 0.2760 0.7429
H23 H 0.1695 0.1962 0.6779
C27 C 0.1168(6) 0.0508(5) 0.3851(5)
C28 C 0.1192(7) -0.0071(5) 0.4486(6)
H24 H 0.1007 -0.0710 0.4210
H25 H 0.0784 0.0075 0.4865
H26 H 0.1800 0.0056 0.4789
C29 C 0.0187(5) 0.0333(6) 0.3404(6)
H27 H 0.0172 0.0660 0.2968
H28 H -0.0187 0.0544 0.3794
H29 H -0.0040 -0.0314 0.3170
C30 C 0.1803(6) 0.0210(5) 0.3241(6)
H30 H 0.1775 0.0534 0.2803
H31 H 0.1610 -0.0440 0.3007
H32 H 0.2417 0.0352 0.3532
C31 C 0.1756(5) 0.3956(5) 0.1333(5)
C32 C 0.1796(6) 0.4636(6) 0.0859(5)
H33 H 0.1941 0.5256 0.1127
C33 C 0.1623(7) 0.4385(6) 0.0030(6)
C34 C 0.1403(7) 0.3440(6) -0.0381(5)
H34 H 0.1308 0.3289 -0.0959
C35 C 0.1320(6) 0.2731(5) 0.0027(5)
C36 C 0.1504(5) 0.2979(5) 0.0904(5)
C37 C 0.1659(9) 0.5097(6) -0.0520(7)
C38 C 0.1841(11) 0.6085(6) 0.0012(7)
H35 H 0.1806 0.6504 -0.0345
H36 H 0.2438 0.6242 0.0342
H37 H 0.1394 0.6126 0.0370
C39 C 0.2476(10) 0.5025(8) -0.0999(7)
H38 H 0.2383 0.4411 -0.1331
H39 H 0.3032 0.5167 -0.0608
H40 H 0.2515 0.5453 -0.1352
C40 C 0.0783(9) 0.4895(7) -0.1108(7)
H41 H 0.0679 0.4286 -0.1453
H42 H 0.0814 0.5333 -0.1450
H43 H 0.0292 0.4935 -0.0799
C41 C 0.1049(7) 0.1695(6) -0.0422(5)
C42 C 0.1764(8) 0.1193(6) -0.0160(6)
H44 H 0.2340 0.1474 -0.0283
H45 H 0.1589 0.0560 -0.0457
H46 H 0.1816 0.1229 0.0426
C43 C 0.0124(7) 0.1287(6) -0.0188(7)
H47 H 0.0198 0.1326 0.0400
H48 H -0.0086 0.0655 -0.0483
H49 H -0.0314 0.1629 -0.0336
C44 C 0.0942(11) 0.1571(7) -0.1376(6)
H50 H 0.0435 0.1809 -0.1567
H51 H 0.0837 0.0929 -0.1637
H52 H 0.1488 0.1899 -0.1516
Co1_2 Co 1.17442(7) 0.30545(7) 0.25249(8)
N1_2 N 0.0483(4) 0.3082(4) 0.2511(4)
loop_
_geom_bond_atom_site_label_1
_geom_bond_atom_site_label_2
_geom_bond_site_symmetry_1
_geom_bond_site_symmetry_2
Co1 O1 1_555 1_555
O1 C17 1_555 1_555
O2 Co1 1_555 1_555
O3 Co1 1_555 1_555
O4 Co1 1_555 1_555
N1 C1 1_555 1_555
N2 Co1 1_555 1_555
C1 H1 1_555 1_555
C2 C1 1_555 1_555
H2 C2 1_555 1_555
C3 C2 1_555 1_555
C4 C3 1_555 1_555
H3 C4 1_555 1_555
C5 N1 1_555 1_555
H4 C5 1_555 1_555
C6 C3 1_555 1_555
C7 C6 1_555 1_555
H5 C7 1_555 1_555
C8 C7 1_555 1_555
H6 C8 1_555 1_555
C9 C8 1_555 1_555
C10 C9 1_555 1_555
H7 C10 1_555 1_555
C11 C6 1_555 1_555
H8 C11 1_555 1_555
C12 N2 1_555 1_555
H9 C12 1_555 1_555
C13 C12 1_555 1_555
H10 C13 1_555 1_555
C14 C9 1_555 1_555
C15 C14 1_555 1_555
H11 C15 1_555 1_555
C16 N2 1_555 1_555
H12 C16 1_555 1_555
C17 C18 1_555 1_555
C18 H13 1_555 1_555
C19 C18 1_555 1_555
C20 C19 1_555 1_555
H14 C20 1_555 1_555
C21 C20 1_555 1_555
C22 O2 1_555 1_555
C23 C19 1_555 1_555
C24 C23 1_555 1_555
H15 C24 1_555 1_555
H16 C24 1_555 1_555
H17 C24 1_555 1_555
C25 C23 1_555 1_555
H18 C25 1_555 1_555
H19 C25 1_555 1_555
H20 C25 1_555 1_555
C26 C23 1_555 1_555
H21 C26 1_555 1_555
H22 C26 1_555 1_555
H23 C26 1_555 1_555
C27 C21 1_555 1_555
C28 C27 1_555 1_555
H24 C28 1_555 1_555
H25 C28 1_555 1_555
H26 C28 1_555 1_555
C29 C27 1_555 1_555
H27 C29 1_555 1_555
H28 C29 1_555 1_555
H29 C29 1_555 1_555
C30 C27 1_555 1_555
H30 C30 1_555 1_555
H31 C30 1_555 1_555
H32 C30 1_555 1_555
C31 O3 1_555 1_555
C32 C31 1_555 1_555
H33 C32 1_555 1_555
C33 C32 1_555 1_555
C34 C33 1_555 1_555
H34 C34 1_555 1_555
C35 C34 1_555 1_555
C36 O4 1_555 1_555
C37 C33 1_555 1_555
C38 C37 1_555 1_555
H35 C38 1_555 1_555
H36 C38 1_555 1_555
H37 C38 1_555 1_555
C39 C37 1_555 1_555
H38 C39 1_555 1_555
H39 C39 1_555 1_555
H40 C39 1_555 1_555
C40 C37 1_555 1_555
H41 C40 1_555 1_555
H42 C40 1_555 1_555
H43 C40 1_555 1_555
C41 C35 1_555 1_555
C42 C41 1_555 1_555
H44 C42 1_555 1_555
H45 C42 1_555 1_555
H46 C42 1_555 1_555
C43 C41 1_555 1_555
H47 C43 1_555 1_555
H48 C43 1_555 1_555
H49 C43 1_555 1_555
C44 C41 1_555 1_555
H50 C44 1_555 1_555
H51 C44 1_555 1_555
H52 C44 1_555 1_555
Co2 O5 1_555 1_555
O5 C45 1_555 1_555
O6 Co2 1_555 1_555
N3 Co2 1_555 1_555
C45 C46 1_555 1_555
C46 H53 1_555 1_555
C47 C46 1_555 1_555
C48 C47 1_555 1_555
H54 C48 1_555 1_555
C49 C48 1_555 1_555
C50 O6 1_555 1_555
C51 C47 1_555 1_555
C52 C51 1_555 1_555
H55 C52 1_555 1_555
H56 C52 1_555 1_555
H57 C52 1_555 1_555
C53 C51 1_555 1_555
H58 C53 1_555 1_555
H59 C53 1_555 1_555
H60 C53 1_555 1_555
C54 C51 1_555 1_555
H61 C54 1_555 1_555
H62 C54 1_555 1_555
H63 C54 1_555 1_555
C55 C49 1_555 1_555
C56 C55 1_555 1_555
H64 C56 1_555 1_555
H65 C56 1_555 1_555
H66 C56 1_555 1_555
C57 C55 1_555 1_555
H67 C57 1_555 1_555
H68 C57 1_555 1_555
H69 C57 1_555 1_555
C58 C55 1_555 1_555
H70 C58 1_555 1_555
H71 C58 1_555 1_555
H72 C58 1_555 1_555
C59 N3 1_555 1_555
H73 C59 1_555 1_555
C60 C59 1_555 1_555
H74 C60 1_555 1_555
C61 C60 1_555 1_555
C62 C61 1_555 1_555
H75 C62 1_555 1_555
C63 N3 1_555 1_555
H76 C63 1_555 1_555
C64 C61 1_555 1_555
C65 C64 1_555 1_555
H77 C65 1_555 1_555
C66 C65 1_555 1_555
H78 C66 1_555 1_555
Co1_2 N1 1_555 1_555
N1_2 Co1 1_555 1_555
N3A C59A 1_555 1_555
C59A H73A 1_555 1_555
C60A C59A 1_555 1_555
H74A C60A 1_555 1_555
C61A C60A 1_555 1_555
C62A C61A 1_555 1_555
H75A C62A 1_555 1_555
C63A N3A 1_555 1_555
H76A C63A 1_555 1_555
C64A C66 1_555 1_555
C65A C64A 1_555 1_555
H77A C65A 1_555 1_555
C66A C64 1_555 1_555
H78A C66A 1_555 1_555
O5A Co2 1_555 1_555
O6A Co2 1_555 1_555
C45A O5A 1_555 1_555
C46A C45A 1_555 1_555
H53A C46A 1_555 1_555
C47A C46A 1_555 1_555
C48A C47A 1_555 1_555
H54A C48A 1_555 1_555
C49A C48A 1_555 1_555
C50A O6A 1_555 1_555
C51A C47A 1_555 1_555
C52A C51A 1_555 1_555
H55A C52A 1_555 1_555
H56A C52A 1_555 1_555
H57A C52A 1_555 1_555
C53A C51A 1_555 1_555
H58A C53A 1_555 1_555
H59A C53A 1_555 1_555
H60A C53A 1_555 1_555
C54A C51A 1_555 1_555
H61A C54A 1_555 1_555
H62A C54A 1_555 1_555
H63A C54A 1_555 1_555
C55A C49A 1_555 1_555
C56A C55A 1_555 1_555
H64A C56A 1_555 1_555
H65A C56A 1_555 1_555
H66A C56A 1_555 1_555
C57A C55A 1_555 1_555
H67A C57A 1_555 1_555
H68A C57A 1_555 1_555
H69A C57A 1_555 1_555
C58A C55A 1_555 1_555
H70A C58A 1_555 1_555
H71A C58A 1_555 1_555
H72A C58A 1_555 1_555
Co2_2 N3A 1_555 1_555
N3A_2 Co2 1_555 1_555
C4 C5 1_555 1_555
C10 C11 1_555 1_555
C13 C14 1_555 1_555
C15 C16 1_555 1_555
C17 C22 1_555 1_555
C21 C22 1_555 1_555
C31 C36 1_555 1_555
C35 C36 1_555 1_555
C45 C50 1_555 1_555
C49 C50 1_555 1_555
C62 C63 1_555 1_555
C61A C64A 1_555 1_555
C62A C63A 1_555 1_555
C65A C66A 1_555 1_555
C45A C50A 1_555 1_555
C49A C50A 1_555 1_555

#END
