
#######################################################################
#
#                 Cambridge Crystallographic Data Centre
#                                CCDC 
#
#######################################################################
#
# If this CIF has been generated from an entry in the Cambridge 
# Structural Database, then it will include bibliographic, chemical, 
# crystal, experimental, refinement or atomic coordinate data resulting 
# from the CCDC's data processing and validation procedures.
#
#######################################################################

data_DOTYES
_symmetry_cell_setting           monoclinic
_symmetry_space_group_name_H-M   'C 2/c'
_symmetry_Int_Tables_number      15
_space_group_name_Hall           '-C 2yn'
loop_
_symmetry_equiv_pos_site_id
_symmetry_equiv_pos_as_xyz
1 x,y,z
2 -x,y,1/2-z
3 1/2+x,1/2+y,z
4 1/2-x,1/2+y,1/2-z
5 -x,-y,-z
6 x,-y,1/2+z
7 1/2-x,1/2-y,-z
8 1/2+x,1/2-y,1/2+z
_cell_length_a                   28.5520(17)
_cell_length_b                   27.8454(17)
_cell_length_c                   27.887(2)
_cell_angle_alpha                90
_cell_angle_beta                 120.6100(10)
_cell_angle_gamma                90
_cell_volume                     19081.8
loop_
_atom_site_label
_atom_site_type_symbol
_atom_site_fract_x
_atom_site_fract_y
_atom_site_fract_z
Ni9 Ni 0.00946(13) 0.38030(12) 0.51769(13)
N10 N -0.0099(8) 0.3343(7) 0.5547(8)
H49 H -0.0103 0.3049 0.5411
H50 H 0.0153 0.3343 0.5912
N11 N -0.0482(8) 0.4173(7) 0.5147(9)
H51 H -0.0363 0.4475 0.5261
H52 H -0.0759 0.4188 0.4792
N12 N 0.0283(9) 0.4274(8) 0.4805(10)
H53 H -0.0021 0.4406 0.4524
H54 H 0.0481 0.4509 0.5045
N13 N 0.0648(10) 0.3423(9) 0.5157(11)
H55 H 0.0898 0.3330 0.5504
H56 H 0.0498 0.3159 0.4949
C18 C -0.0622(12) 0.3439(13) 0.5479(15)
H57 H -0.089(11) 0.334(10) 0.510(12)
C19 C -0.0691(14) 0.3962(10) 0.5510(14)
H58 H -0.0478 0.4077 0.5891
H59 H -0.1070 0.4044 0.5364
C20 C -0.0731(17) 0.3158(14) 0.5883(15)
H60 H -0.0835 0.2835 0.5750
H61 H -0.1021 0.3310 0.5907
H62 H -0.0408 0.3153 0.6245
C21 C 0.0585(19) 0.4053(17) 0.4596(19)
H63 H 0.0331 0.3909 0.4239
H64 H 0.0782 0.4301 0.4527
C22 C 0.0926(13) 0.3730(11) 0.4902(13)
H65 H 0.124(10) 0.389(8) 0.521(10)
C23 C 0.1155(16) 0.3342(14) 0.4678(16)
H66 H 0.0995 0.3036 0.4671
H67 H 0.1543 0.3323 0.4916
H68 H 0.1067 0.3425 0.4307
O68 O 0.2145(7) 0.3922(7) 0.9800(7)
O69 O 0.1177(9) 0.5033(10) 0.9023(7)
O70 O 0.4309(10) 0.7685(8) 0.4463(10)
O71 O 0.362(3) 0.263(2) 0.390(3)
W1 W 0.14493(3) 0.62793(3) 0.19992(3)
W2 W 0.22764(3) 0.62804(3) 0.14688(3)
W3 W 0.19343(3) 0.57842(3) 0.33850(3)
W4 W 0.26763(3) 0.41135(3) 0.35364(3)
W5 W 0.36485(3) 0.57968(3) 0.22854(3)
W6 W 0.35895(3) 0.41194(3) 0.29547(3)
W7 W 0.41043(3) 0.53648(3) 0.35685(3)
W8 W 0.14141(3) 0.45450(3) 0.27700(3)
W9 W 0.32045(3) 0.53570(3) 0.41408(3)
W10 W 0.31551(3) 0.45545(3) 0.16746(3)
W11 W 0.09327(3) 0.50417(3) 0.13620(3)
W12 W 0.11230(3) 0.37155(3) 0.16000(3)
W13 W 0.19790(3) 0.37127(3) 0.10803(3)
W14 W 0.17564(3) 0.50341(3) 0.08420(3)
W15 W 0.24136(3) 0.32862(3) 0.23843(3)
Ni1 Ni 0.42111(10) 0.62610(9) 0.45475(10)
Ni2 Ni 0.19318(9) 0.70465(9) 0.32315(10)
Ni3 Ni 0.34977(11) 0.53122(9) 0.55584(10)
Ni4 Ni 0.0000 0.44980(12) 0.2500
Ni5 Ni 0.26293(9) 0.70084(8) 0.26481(9)
Ni6 Ni 0.38018(9) 0.66170(8) 0.33446(9)
Ni7 Ni 0.30331(9) 0.66168(8) 0.38333(9)
Ni8 Ni 0.34620(10) 0.70489(9) 0.22319(10)
P1 P 0.27889(18) 0.58552(16) 0.28321(19)
P2 P 0.22292(19) 0.45127(16) 0.21584(19)
O1 O 0.3398(5) 0.5981(4) 0.4229(5)
O2 O 0.3472(4) 0.5109(4) 0.2033(4)
O3 O 0.1698(4) 0.5101(4) 0.3150(4)
O4 O 0.1686(5) 0.4320(4) 0.0795(5)
O5 O 0.3797(4) 0.6800(4) 0.4040(5)
O6 O 0.2631(5) 0.6762(4) 0.1947(5)
O7 O 0.3000(4) 0.6362(4) 0.3095(5)
O8 O 0.1632(5) 0.3212(5) 0.2034(5)
O9 O 0.1241(5) 0.3982(4) 0.2274(5)
O10 O 0.1469(5) 0.5889(4) 0.3588(5)
O11 O 0.2628(5) 0.2706(4) 0.2644(5)
O12 O 0.2193(5) 0.4557(4) 0.2681(5)
O13 O 0.1511(5) 0.5912(4) 0.2600(5)
O14 O 0.1853(4) 0.4890(4) 0.1707(4)
O15 O 0.3404(5) 0.7195(4) 0.2902(5)
O16 O 0.2021(5) 0.4006(4) 0.1913(5)
O17 O 0.2287(5) 0.3212(4) 0.1633(5)
O18 O 0.2632(4) 0.5576(4) 0.3213(5)
O19 O 0.2254(5) 0.6359(4) 0.3519(5)
O20 O 0.0811(5) 0.6517(4) 0.1736(5)
O21 O 0.1593(5) 0.6430(4) 0.1412(5)
O22 O 0.3246(4) 0.5585(4) 0.2800(5)
O23 O 0.3687(4) 0.5172(4) 0.3913(5)
O24 O 0.0232(5) 0.5110(4) 0.1003(5)
O25 O 0.3261(5) 0.4133(4) 0.3397(5)
O26 O 0.3638(5) 0.4170(4) 0.2290(5)
O27 O 0.3032(5) 0.6916(4) 0.4498(5)
O28 O 0.2923(5) 0.5905(4) 0.1712(5)
O29 O 0.2853(5) 0.4701(4) 0.3848(5)
O30 O 0.3550(5) 0.5171(4) 0.4836(5)
O31 O 0.1853(5) 0.6761(4) 0.2430(5)
O32 O 0.2293(5) 0.5921(4) 0.2245(5)
O33 O 0.1085(5) 0.4889(4) 0.2089(5)
O34 O 0.2811(5) 0.4557(4) 0.2289(5)
O35 O 0.3996(5) 0.5905(4) 0.1937(5)
O36 O 0.2670(5) 0.3993(4) 0.1385(5)
O37 O 0.3068(5) 0.3588(4) 0.2574(5)
O38 O 0.2424(5) 0.3582(4) 0.2978(5)
O39 O 0.0916(5) 0.4325(4) 0.1285(5)
O40 O 0.1889(5) 0.5648(4) 0.1098(5)
O41 O 0.1160(5) 0.5654(4) 0.1558(5)
O42 O 0.3874(5) 0.4706(4) 0.3186(5)
O43 O 0.4229(5) 0.5524(4) 0.2972(5)
O44 O 0.2507(5) 0.5513(4) 0.4058(5)
O45 O 0.3699(5) 0.6375(4) 0.2602(5)
O46 O 0.0853(5) 0.4480(4) 0.2847(5)
O47 O 0.2670(5) 0.7191(4) 0.3357(5)
O48 O 0.4743(5) 0.5172(5) 0.4059(5)
O49 O 0.4150(5) 0.3757(4) 0.3342(5)
O50 O 0.2915(6) 0.3744(4) 0.4090(5)
O51 O 0.1890(5) 0.3415(5) 0.0507(5)
O52 O 0.1289(5) 0.3541(4) 0.1029(5)
O53 O 0.1041(5) 0.5051(4) 0.0738(5)
O54 O 0.1582(5) 0.5097(4) 0.0161(5)
O55 O 0.3425(5) 0.4498(5) 0.1246(5)
O56 O 0.2190(5) 0.6533(4) 0.0872(5)
O57 O 0.3245(6) 0.5997(5) 0.5274(6)
O58 O 0.4296(6) 0.5564(7) 0.5962(6)
O59 O 0.2190(6) 0.7224(5) 0.4052(6)
O60 O 0.4271(6) 0.7220(6) 0.2657(7)
O61 O 0.4518(6) 0.6912(5) 0.3538(6)
O62 O 0.2497(5) 0.4894(4) 0.1186(5)
O63 O 0.4133(5) 0.5983(4) 0.3787(5)
O64 O 0.4128(6) 0.6604(5) 0.5191(5)
O65 O 0.0087(10) 0.3917(9) 0.3025(10)
O66 O 0.1928(5) 0.4152(4) 0.3357(5)
O67 O 0.0514(5) 0.3420(4) 0.1346(5)
N1 N 0.3449(7) 0.6882(6) 0.1515(7)
H1 H 0.3782 0.6785 0.1596
H2 H 0.3215 0.6638 0.1343
N2 N 0.0064(10) 0.5062(9) 0.3024(10)
H3 H -0.0168 0.5020 0.3148
H4 H 0.0405 0.5081 0.3319
N3 N 0.3214(9) 0.7706(6) 0.1835(8)
H5 H 0.2910 0.7797 0.1832
H6 H 0.3474 0.7925 0.2032
N4 N 0.3749(8) 0.4615(6) 0.5820(8)
H7 H 0.3985 0.4518 0.5715
H8 H 0.3914 0.4595 0.6193
N5 N 0.4657(7) 0.5688(6) 0.5034(8)
H9 H 0.4537 0.5602 0.5264
H10 H 0.4622 0.5435 0.4818
N6 N 0.4961(6) 0.6559(6) 0.4792(8)
H11 H 0.4959 0.6700 0.4500
H12 H 0.5047 0.6781 0.5058
N7 N 0.1165(6) 0.6864(6) 0.3044(8)
H13 H 0.1012 0.6665 0.2749
H14 H 0.1176 0.6714 0.3335
N8 N 0.1587(7) 0.7696(6) 0.2948(9)
H15 H 0.1747 0.7909 0.3229
H16 H 0.1654 0.7791 0.2680
N9 N 0.2729(7) 0.5006(6) 0.5144(7)
H17 H 0.2529 0.5114 0.5287
H18 H 0.2557 0.5083 0.4780
C1 C 0.2647(10) 0.7146(8) 0.4487(9)
C2 C 0.2740(8) 0.7379(8) 0.5011(9)
H19 H 0.3026 0.7616 0.5123
H20 H 0.2873 0.7136 0.5300
C3 C 0.3104(17) 0.7701(14) 0.1264(16)
H21 H 0.2715 0.7730 0.1012
H22 H 0.3275 0.7981 0.1210
C4 C 0.5212(10) 0.5834(11) 0.5349(12)
H23 H 0.5445 0.5553 0.5467
H24 H 0.5274 0.6004 0.5680
C5 C 0.4606(14) 0.7123(11) 0.3168(14)
C6 C 0.0983(13) 0.7712(12) 0.2716(15)
H25 H 0.0884 0.8003 0.2834
H26 H 0.0791 0.7706 0.2312
C7 C 0.0846(14) 0.7313(12) 0.2915(16)
H27 H 0.0471 0.7233 0.2644
H28 H 0.0853 0.7410 0.3253
C8 C 0.315(2) 0.7235(13) 0.0507(17)
H29 H 0.2789 0.7103 0.0286
H30 H 0.3409 0.7017 0.0507
H31 H 0.3167 0.7537 0.0352
C9 C -0.007(2) 0.5496(17) 0.268(2)
H32 H -0.047(15) 0.547(13) 0.245(15)
C10 C 0.001(2) 0.5999(18) 0.279(2)
H33 H 0.0360 0.6087 0.3108
H34 H -0.0287 0.6168 0.2789
C11 C 0.279(2) 0.4522(17) 0.521(2)
H35 H 0.270(14) 0.454(12) 0.550(14)
C12 C 0.2345(13) 0.4169(11) 0.4900(15)
H36 H 0.2496 0.3852 0.4956
H37 H 0.2155 0.4244 0.4509
H38 H 0.2096 0.4182 0.5035
C13 C 0.3277(14) 0.4328(12) 0.5566(15)
H39 H 0.3341 0.4072 0.5371
H40 H 0.3245 0.4180 0.5863
C14 C 0.3277(13) 0.7312(11) 0.1123(12)
H41 H 0.365(10) 0.743(9) 0.126(11)
C15 C 0.5362(17) 0.6158(14) 0.5011(17)
H42 H 0.520(13) 0.596(11) 0.467(13)
C16 C 0.5847(18) 0.6185(17) 0.509(2)
H43 H 0.5868 0.6453 0.4883
H44 H 0.5929 0.5894 0.4958
H45 H 0.6105 0.6227 0.5477
C17 C 0.519(2) 0.7259(18) 0.333(2)
H46 H 0.5189 0.7576 0.3193
H47 H 0.5322 0.7033 0.3167
H48 H 0.5417 0.7254 0.3727
O27F O 0.1968(5) 0.8084(4) 0.5502(5)
O59F O 0.2810(6) 0.7776(5) 0.5948(6)
C1F C 0.2353(10) 0.7854(8) 0.5513(9)
C2F C 0.2260(8) 0.7621(8) 0.4989(9)
H19F H 0.1974 0.7384 0.4877
H20F H 0.2127 0.7864 0.4700
N2A N -0.0064(10) 0.5062(9) 0.1976(10)
H3A H 0.0168 0.5020 0.1852
H4A H -0.0405 0.5081 0.1681
C9A C 0.007(2) 0.5496(17) 0.232(2)
H32A H 0.047(15) 0.547(13) 0.255(15)
C10A C -0.001(2) 0.5999(18) 0.221(2)
H33A H -0.0360 0.6087 0.1892
H34A H 0.0287 0.6168 0.2211
W1A W -0.14493(3) 0.62793(3) 0.30008(3)
W2A W -0.22764(3) 0.62804(3) 0.35312(3)
W3A W -0.19343(3) 0.57842(3) 0.16150(3)
W4A W -0.26763(3) 0.41135(3) 0.14636(3)
W5A W -0.36485(3) 0.57968(3) 0.27146(3)
W6A W -0.35895(3) 0.41194(3) 0.20453(3)
W7A W -0.41043(3) 0.53648(3) 0.14315(3)
W8A W -0.14141(3) 0.45450(3) 0.22300(3)
W9A W -0.32045(3) 0.53570(3) 0.08592(3)
W10A W -0.31551(3) 0.45545(3) 0.33254(3)
W11A W -0.09327(3) 0.50417(3) 0.36380(3)
W12A W -0.11230(3) 0.37155(3) 0.34000(3)
W13A W -0.19790(3) 0.37127(3) 0.39197(3)
W14A W -0.17564(3) 0.50341(3) 0.41580(3)
W15A W -0.24136(3) 0.32862(3) 0.26157(3)
Ni1A Ni -0.42111(10) 0.62610(9) 0.04525(10)
Ni2A Ni -0.19318(9) 0.70465(9) 0.17685(10)
Ni3A Ni -0.34977(11) 0.53122(9) -0.05584(10)
Ni5A Ni -0.26293(9) 0.70084(8) 0.23519(9)
Ni6A Ni -0.38018(9) 0.66170(8) 0.16554(9)
Ni7A Ni -0.30331(9) 0.66168(8) 0.11667(9)
Ni8A Ni -0.34620(10) 0.70489(9) 0.27681(10)
P1A P -0.27889(18) 0.58552(16) 0.21679(19)
P2A P -0.22292(19) 0.45127(16) 0.28416(19)
O1A O -0.3398(5) 0.5981(4) 0.0771(5)
O2A O -0.3472(4) 0.5109(4) 0.2967(4)
O3A O -0.1698(4) 0.5101(4) 0.1850(4)
O4A O -0.1686(5) 0.4320(4) 0.4205(5)
O5A O -0.3797(4) 0.6800(4) 0.0960(5)
O6A O -0.2631(5) 0.6762(4) 0.3053(5)
O7A O -0.3000(4) 0.6362(4) 0.1905(5)
O8A O -0.1632(5) 0.3212(5) 0.2966(5)
O9A O -0.1241(5) 0.3982(4) 0.2726(5)
O10A O -0.1469(5) 0.5889(4) 0.1412(5)
O11A O -0.2628(5) 0.2706(4) 0.2356(5)
O12A O -0.2193(5) 0.4557(4) 0.2319(5)
O13A O -0.1511(5) 0.5912(4) 0.2400(5)
O14A O -0.1853(4) 0.4890(4) 0.3293(4)
O15A O -0.3404(5) 0.7195(4) 0.2098(5)
O16A O -0.2021(5) 0.4006(4) 0.3087(5)
O17A O -0.2287(5) 0.3212(4) 0.3367(5)
O18A O -0.2632(4) 0.5576(4) 0.1787(5)
O19A O -0.2254(5) 0.6359(4) 0.1481(5)
O20A O -0.0811(5) 0.6517(4) 0.3264(5)
O21A O -0.1593(5) 0.6430(4) 0.3588(5)
O22A O -0.3246(4) 0.5585(4) 0.2200(5)
O23A O -0.3687(4) 0.5172(4) 0.1087(5)
O24A O -0.0232(5) 0.5110(4) 0.3997(5)
O25A O -0.3261(5) 0.4133(4) 0.1603(5)
O26A O -0.3638(5) 0.4170(4) 0.2710(5)
O28A O -0.2923(5) 0.5905(4) 0.3288(5)
O29A O -0.2853(5) 0.4701(4) 0.1152(5)
O30A O -0.3550(5) 0.5171(4) 0.0164(5)
O31A O -0.1853(5) 0.6761(4) 0.2570(5)
O32A O -0.2293(5) 0.5921(4) 0.2755(5)
O33A O -0.1085(5) 0.4889(4) 0.2911(5)
O34A O -0.2811(5) 0.4557(4) 0.2711(5)
O35A O -0.3996(5) 0.5905(4) 0.3063(5)
O36A O -0.2670(5) 0.3993(4) 0.3615(5)
O37A O -0.3068(5) 0.3588(4) 0.2426(5)
O38A O -0.2424(5) 0.3582(4) 0.2022(5)
O39A O -0.0916(5) 0.4325(4) 0.3715(5)
O40A O -0.1889(5) 0.5648(4) 0.3902(5)
O41A O -0.1160(5) 0.5654(4) 0.3442(5)
O42A O -0.3874(5) 0.4706(4) 0.1814(5)
O43A O -0.4229(5) 0.5524(4) 0.2028(5)
O44A O -0.2507(5) 0.5513(4) 0.0942(5)
O45A O -0.3699(5) 0.6375(4) 0.2398(5)
O46A O -0.0853(5) 0.4480(4) 0.2153(5)
O47A O -0.2670(5) 0.7191(4) 0.1643(5)
O48A O -0.4743(5) 0.5172(5) 0.0941(5)
O49A O -0.4150(5) 0.3757(4) 0.1658(5)
O50A O -0.2915(6) 0.3744(4) 0.0910(5)
O51A O -0.1890(5) 0.3415(5) 0.4493(5)
O52A O -0.1289(5) 0.3541(4) 0.3971(5)
O53A O -0.1041(5) 0.5051(4) 0.4262(5)
O54A O -0.1582(5) 0.5097(4) 0.4839(5)
O55A O -0.3425(5) 0.4498(5) 0.3754(5)
O56A O -0.2190(5) 0.6533(4) 0.4128(5)
O57A O -0.3245(6) 0.5997(5) -0.0274(6)
O58A O -0.4296(6) 0.5564(7) -0.0962(6)
O60A O -0.4271(6) 0.7220(6) 0.2343(7)
O61A O -0.4518(6) 0.6912(5) 0.1462(6)
O62A O -0.2497(5) 0.4894(4) 0.3814(5)
O63A O -0.4133(5) 0.5983(4) 0.1213(5)
O64A O -0.4128(6) 0.6604(5) -0.0191(5)
O65A O -0.0087(10) 0.3917(9) 0.1975(10)
O66A O -0.1928(5) 0.4152(4) 0.1643(5)
O67A O -0.0514(5) 0.3420(4) 0.3654(5)
N1A N -0.3449(7) 0.6882(6) 0.3485(7)
H1A H -0.3782 0.6785 0.3404
H2A H -0.3215 0.6638 0.3657
N3A N -0.3214(9) 0.7706(6) 0.3165(8)
H5A H -0.2910 0.7797 0.3168
H6A H -0.3474 0.7925 0.2968
N4A N -0.3749(8) 0.4615(6) -0.0820(8)
H7A H -0.3985 0.4518 -0.0715
H8A H -0.3914 0.4595 -0.1193
N5A N -0.4657(7) 0.5688(6) -0.0034(8)
H9A H -0.4537 0.5602 -0.0264
H10A H -0.4622 0.5435 0.0182
N6A N -0.4961(6) 0.6559(6) 0.0208(8)
H11A H -0.4959 0.6700 0.0500
H12A H -0.5047 0.6781 -0.0058
N7A N -0.1165(6) 0.6864(6) 0.1956(8)
H13A H -0.1012 0.6665 0.2251
H14A H -0.1176 0.6714 0.1665
N8A N -0.1587(7) 0.7696(6) 0.2052(9)
H15A H -0.1747 0.7909 0.1771
H16A H -0.1654 0.7791 0.2320
N9A N -0.2729(7) 0.5006(6) -0.0144(7)
H17A H -0.2529 0.5114 -0.0287
H18A H -0.2557 0.5083 0.0220
C3A C -0.3104(17) 0.7701(14) 0.3736(16)
H21A H -0.2715 0.7730 0.3988
H22A H -0.3275 0.7981 0.3790
C4A C -0.5212(10) 0.5834(11) -0.0349(12)
H23A H -0.5445 0.5553 -0.0467
H24A H -0.5274 0.6004 -0.0680
C5A C -0.4606(14) 0.7123(11) 0.1832(14)
C6A C -0.0983(13) 0.7712(12) 0.2284(15)
H25A H -0.0884 0.8003 0.2166
H26A H -0.0791 0.7706 0.2688
C7A C -0.0846(14) 0.7313(12) 0.2085(16)
H27A H -0.0471 0.7233 0.2356
H28A H -0.0853 0.7410 0.1747
C8A C -0.315(2) 0.7235(13) 0.4493(17)
H29A H -0.2789 0.7103 0.4714
H30A H -0.3409 0.7017 0.4493
H31A H -0.3167 0.7537 0.4648
C11A C -0.279(2) 0.4522(17) -0.021(2)
H35A H -0.270(14) 0.454(12) -0.050(14)
C12A C -0.2345(13) 0.4169(11) 0.0100(15)
H36A H -0.2496 0.3852 0.0044
H37A H -0.2155 0.4244 0.0491
H38A H -0.2096 0.4182 -0.0035
C13A C -0.3277(14) 0.4328(12) -0.0566(15)
H39A H -0.3341 0.4072 -0.0371
H40A H -0.3245 0.4180 -0.0863
C14A C -0.3277(13) 0.7312(11) 0.3877(12)
H41A H -0.365(10) 0.743(9) 0.374(11)
C15A C -0.5362(17) 0.6158(14) -0.0011(17)
H42A H -0.520(13) 0.596(11) 0.033(13)
C16A C -0.5847(18) 0.6185(17) -0.009(2)
H43A H -0.5868 0.6453 0.0117
H44A H -0.5929 0.5894 0.0042
H45A H -0.6105 0.6227 -0.0477
C17A C -0.519(2) 0.7259(18) 0.167(2)
H46A H -0.5189 0.7576 0.1807
H47A H -0.5322 0.7033 0.1833
H48A H -0.5417 0.7254 0.1273
Ni2F Ni 0.30682(9) 0.79535(9) 0.67685(10)
Ni3D Ni -0.34977(11) 0.46878(9) 0.44416(10)
Ni3E Ni 0.34977(11) 0.46878(9) 0.05584(10)
Ni5B Ni -0.23707(9) 0.20084(8) 0.26481(9)
Ni5C Ni 0.23707(9) 0.20084(8) 0.23519(9)
Ni7F Ni 0.19669(9) 0.83832(8) 0.61667(9)
O11B O -0.2372(5) 0.7706(4) 0.2644(5)
O11C O 0.2372(5) 0.7706(4) 0.2356(5)
O27A O -0.3032(5) 0.6916(4) 0.0502(5)
O55D O -0.3425(5) 0.5502(5) -0.1246(5)
O55E O 0.3425(5) 0.5502(5) 0.6246(5)
O59A O -0.2190(6) 0.7224(5) 0.0948(6)
loop_
_geom_bond_atom_site_label_1
_geom_bond_atom_site_label_2
_geom_bond_site_symmetry_1
_geom_bond_site_symmetry_2
W1 O13 1_555 1_555
W2 O6 1_555 1_555
W3 O3 1_555 1_555
W4 O12 1_555 1_555
W5 O2 1_555 1_555
W6 O25 1_555 1_555
W7 O22 1_555 1_555
W8 O3 1_555 1_555
W9 O1 1_555 1_555
W10 O2 1_555 1_555
W11 O14 1_555 1_555
W12 O8 1_555 1_555
W13 O4 1_555 1_555
W14 O4 1_555 1_555
W15 O8 1_555 1_555
Ni1 O1 1_555 1_555
Ni2 O19 1_555 1_555
Ni3 O30 1_555 1_555
Ni4 O46 1_555 1_555
Ni5 O6 1_555 1_555
Ni6 O5 1_555 1_555
Ni7 O1 1_555 1_555
Ni8 O6 1_555 1_555
P1 O7 1_555 1_555
P2 O12 1_555 1_555
O5 Ni1 1_555 1_555
O7 Ni5 1_555 1_555
O9 W8 1_555 1_555
O10 W3 1_555 1_555
O11 W15 1_555 1_555
O12 W8 1_555 1_555
O13 W3 1_555 1_555
O14 W14 1_555 1_555
O15 Ni5 1_555 1_555
O16 W12 1_555 1_555
O17 W13 1_555 1_555
O18 W3 1_555 1_555
O19 W3 1_555 1_555
O20 W1 1_555 1_555
O21 W1 1_555 1_555
O22 W5 1_555 1_555
O23 W7 1_555 1_555
O24 W11 1_555 1_555
O25 W4 1_555 1_555
O26 W6 1_555 1_555
O27 Ni7 1_555 1_555
O28 W2 1_555 1_555
O29 W4 1_555 1_555
O30 W9 1_555 1_555
O31 W1 1_555 1_555
O32 W1 1_555 1_555
O33 W8 1_555 1_555
O34 W6 1_555 1_555
O35 W5 1_555 1_555
O36 W10 1_555 1_555
O37 W6 1_555 1_555
O38 W4 1_555 1_555
O39 W11 1_555 1_555
O40 W2 1_555 1_555
O41 W1 1_555 1_555
O42 W6 1_555 1_555
O43 W5 1_555 1_555
O44 W3 1_555 1_555
O45 W5 1_555 1_555
O46 W8 1_555 1_555
O47 Ni2 1_555 1_555
O48 W7 1_555 1_555
O49 W6 1_555 1_555
O50 W4 1_555 1_555
O51 W13 1_555 1_555
O52 W12 1_555 1_555
O53 W11 1_555 1_555
O54 W14 1_555 1_555
O55 W10 1_555 1_555
O56 W2 1_555 1_555
O57 Ni3 1_555 1_555
O58 Ni3 1_555 1_555
O59 Ni2 1_555 1_555
O60 Ni8 1_555 1_555
O61 Ni6 1_555 1_555
O62 W10 1_555 1_555
O63 W7 1_555 1_555
O64 Ni1 1_555 1_555
O65 Ni4 1_555 1_555
O66 W4 1_555 1_555
O67 W12 1_555 1_555
N1 Ni8 1_555 1_555
H1 N1 1_555 1_555
H2 N1 1_555 1_555
N2 Ni4 1_555 1_555
H3 N2 1_555 1_555
H4 N2 1_555 1_555
N3 Ni8 1_555 1_555
H5 N3 1_555 1_555
H6 N3 1_555 1_555
N4 Ni3 1_555 1_555
H7 N4 1_555 1_555
H8 N4 1_555 1_555
N5 Ni1 1_555 1_555
H9 N5 1_555 1_555
H10 N5 1_555 1_555
N6 Ni1 1_555 1_555
H11 N6 1_555 1_555
H12 N6 1_555 1_555
N7 Ni2 1_555 1_555
H13 N7 1_555 1_555
H14 N7 1_555 1_555
N8 Ni2 1_555 1_555
H15 N8 1_555 1_555
H16 N8 1_555 1_555
N9 Ni3 1_555 1_555
H17 N9 1_555 1_555
H18 N9 1_555 1_555
C1 O27 1_555 1_555
C2 C1 1_555 1_555
H19 C2 1_555 1_555
H20 C2 1_555 1_555
C3 N3 1_555 1_555
H21 C3 1_555 1_555
H22 C3 1_555 1_555
C4 N5 1_555 1_555
H23 C4 1_555 1_555
H24 C4 1_555 1_555
C5 O60 1_555 1_555
C6 N8 1_555 1_555
H25 C6 1_555 1_555
H26 C6 1_555 1_555
C7 N7 1_555 1_555
H27 C7 1_555 1_555
H28 C7 1_555 1_555
C8 H29 1_555 1_555
H30 C8 1_555 1_555
H31 C8 1_555 1_555
C9 N2 1_555 1_555
H32 C9 1_555 1_555
C10 C9 1_555 1_555
H33 C10 1_555 1_555
H34 C10 1_555 1_555
C11 N9 1_555 1_555
H35 C11 1_555 1_555
C12 C11 1_555 1_555
H36 C12 1_555 1_555
H37 C12 1_555 1_555
H38 C12 1_555 1_555
C13 N4 1_555 1_555
H39 C13 1_555 1_555
H40 C13 1_555 1_555
C14 N1 1_555 1_555
H41 C14 1_555 1_555
C15 N6 1_555 1_555
H42 C15 1_555 1_555
C16 C15 1_555 1_555
H43 C16 1_555 1_555
H44 C16 1_555 1_555
H45 C16 1_555 1_555
C17 C5 1_555 1_555
H46 C17 1_555 1_555
H47 C17 1_555 1_555
H48 C17 1_555 1_555
Ni9 N10 1_555 1_555
N10 H49 1_555 1_555
H50 N10 1_555 1_555
N11 Ni9 1_555 1_555
H51 N11 1_555 1_555
H52 N11 1_555 1_555
N12 Ni9 1_555 1_555
H53 N12 1_555 1_555
H54 N12 1_555 1_555
N13 Ni9 1_555 1_555
H55 N13 1_555 1_555
H56 N13 1_555 1_555
C18 N10 1_555 1_555
H57 C18 1_555 1_555
C19 N11 1_555 1_555
H58 C19 1_555 1_555
H59 C19 1_555 1_555
C20 C18 1_555 1_555
H60 C20 1_555 1_555
H61 C20 1_555 1_555
H62 C20 1_555 1_555
C21 N12 1_555 1_555
H63 C21 1_555 1_555
H64 C21 1_555 1_555
C22 N13 1_555 1_555
H65 C22 1_555 1_555
C23 C22 1_555 1_555
H66 C23 1_555 1_555
H67 C23 1_555 1_555
H68 C23 1_555 1_555
O27F C1F 1_555 1_555
O59F C1F 1_555 1_555
C1F C2F 1_555 1_555
C2F C2 1_555 1_555
H19F C2F 1_555 1_555
H20F C2F 1_555 1_555
N2A Ni4 1_555 1_555
H3A N2A 1_555 1_555
H4A N2A 1_555 1_555
C9A C9 1_555 1_555
H32A C9A 1_555 1_555
C10A C10 1_555 1_555
H33A C10A 1_555 1_555
H34A C10A 1_555 1_555
W1A O13A 1_555 1_555
W2A O6A 1_555 1_555
W3A O3A 1_555 1_555
W4A O12A 1_555 1_555
W5A O2A 1_555 1_555
W6A O25A 1_555 1_555
W7A O22A 1_555 1_555
W8A O3A 1_555 1_555
W9A O1A 1_555 1_555
W10A O2A 1_555 1_555
W11A O14A 1_555 1_555
W12A O8A 1_555 1_555
W13A O4A 1_555 1_555
W14A O4A 1_555 1_555
W15A O8A 1_555 1_555
Ni1A O1A 1_555 1_555
Ni2A O19A 1_555 1_555
Ni3A O30A 1_555 1_555
Ni5A O6A 1_555 1_555
Ni6A O5A 1_555 1_555
Ni7A O1A 1_555 1_555
Ni8A O6A 1_555 1_555
P1A O7A 1_555 1_555
P2A O12A 1_555 1_555
O5A Ni1A 1_555 1_555
O7A Ni5A 1_555 1_555
O9A W8A 1_555 1_555
O10A W3A 1_555 1_555
O11A W15A 1_555 1_555
O12A W8A 1_555 1_555
O13A W3A 1_555 1_555
O14A W14A 1_555 1_555
O15A Ni5A 1_555 1_555
O16A W12A 1_555 1_555
O17A W13A 1_555 1_555
O18A W3A 1_555 1_555
O19A W3A 1_555 1_555
O20A W1A 1_555 1_555
O21A W1A 1_555 1_555
O22A W5A 1_555 1_555
O23A W7A 1_555 1_555
O24A W11A 1_555 1_555
O25A W4A 1_555 1_555
O26A W6A 1_555 1_555
O28A W2A 1_555 1_555
O29A W4A 1_555 1_555
O30A W9A 1_555 1_555
O31A W1A 1_555 1_555
O32A W1A 1_555 1_555
O33A W8A 1_555 1_555
O34A W6A 1_555 1_555
O35A W5A 1_555 1_555
O36A W10A 1_555 1_555
O37A W6A 1_555 1_555
O38A W4A 1_555 1_555
O39A W11A 1_555 1_555
O40A W2A 1_555 1_555
O41A W1A 1_555 1_555
O42A W6A 1_555 1_555
O43A W5A 1_555 1_555
O44A W3A 1_555 1_555
O45A W5A 1_555 1_555
O46A Ni4 1_555 1_555
O47A Ni2A 1_555 1_555
O48A W7A 1_555 1_555
O49A W6A 1_555 1_555
O50A W4A 1_555 1_555
O51A W13A 1_555 1_555
O52A W12A 1_555 1_555
O53A W11A 1_555 1_555
O54A W14A 1_555 1_555
O55A W10A 1_555 1_555
O56A W2A 1_555 1_555
O57A Ni3A 1_555 1_555
O58A Ni3A 1_555 1_555
O60A Ni8A 1_555 1_555
O61A Ni6A 1_555 1_555
O62A W10A 1_555 1_555
O63A W7A 1_555 1_555
O64A Ni1A 1_555 1_555
O65A Ni4 1_555 1_555
O66A W4A 1_555 1_555
O67A W12A 1_555 1_555
N1A Ni8A 1_555 1_555
H1A N1A 1_555 1_555
H2A N1A 1_555 1_555
N3A Ni8A 1_555 1_555
H5A N3A 1_555 1_555
H6A N3A 1_555 1_555
N4A Ni3A 1_555 1_555
H7A N4A 1_555 1_555
H8A N4A 1_555 1_555
N5A Ni1A 1_555 1_555
H9A N5A 1_555 1_555
H10A N5A 1_555 1_555
N6A Ni1A 1_555 1_555
H11A N6A 1_555 1_555
H12A N6A 1_555 1_555
N7A Ni2A 1_555 1_555
H13A N7A 1_555 1_555
H14A N7A 1_555 1_555
N8A Ni2A 1_555 1_555
H15A N8A 1_555 1_555
H16A N8A 1_555 1_555
N9A Ni3A 1_555 1_555
H17A N9A 1_555 1_555
H18A N9A 1_555 1_555
C3A N3A 1_555 1_555
H21A C3A 1_555 1_555
H22A C3A 1_555 1_555
C4A N5A 1_555 1_555
H23A C4A 1_555 1_555
H24A C4A 1_555 1_555
C5A O60A 1_555 1_555
C6A N8A 1_555 1_555
H25A C6A 1_555 1_555
H26A C6A 1_555 1_555
C7A N7A 1_555 1_555
H27A C7A 1_555 1_555
H28A C7A 1_555 1_555
C8A H29A 1_555 1_555
H30A C8A 1_555 1_555
H31A C8A 1_555 1_555
C11A N9A 1_555 1_555
H35A C11A 1_555 1_555
C12A C11A 1_555 1_555
H36A C12A 1_555 1_555
H37A C12A 1_555 1_555
H38A C12A 1_555 1_555
C13A N4A 1_555 1_555
H39A C13A 1_555 1_555
H40A C13A 1_555 1_555
C14A N1A 1_555 1_555
H41A C14A 1_555 1_555
C15A N6A 1_555 1_555
H42A C15A 1_555 1_555
C16A C15A 1_555 1_555
H43A C16A 1_555 1_555
H44A C16A 1_555 1_555
H45A C16A 1_555 1_555
C17A C5A 1_555 1_555
H46A C17A 1_555 1_555
H47A C17A 1_555 1_555
H48A C17A 1_555 1_555
Ni2F O59F 1_555 1_555
Ni3D O55A 1_555 1_555
Ni3E O55 1_555 1_555
Ni5B O11A 1_555 1_555
Ni5C O11 1_555 1_555
Ni7F O27F 1_555 1_555
O11B Ni5A 1_555 1_555
O11C Ni5 1_555 1_555
O27A Ni7A 1_555 1_555
O55D Ni3A 1_555 1_555
O55E Ni3 1_555 1_555
O59A Ni2A 1_555 1_555
W2 O21 1_555 1_555
W2 O32 1_555 1_555
W5 O28 1_555 1_555
W7 O42 1_555 1_555
W7 O43 1_555 1_555
W8 O66 1_555 1_555
W9 O18 1_555 1_555
W9 O23 1_555 1_555
W9 O29 1_555 1_555
W9 O44 1_555 1_555
W10 O26 1_555 1_555
W10 O34 1_555 1_555
W11 O33 1_555 1_555
W11 O41 1_555 1_555
W12 O9 1_555 1_555
W12 O39 1_555 1_555
W13 O16 1_555 1_555
W13 O36 1_555 1_555
W13 O52 1_555 1_555
W14 O40 1_555 1_555
W14 O53 1_555 1_555
W14 O62 1_555 1_555
W15 O16 1_555 1_555
W15 O17 1_555 1_555
W15 O37 1_555 1_555
W15 O38 1_555 1_555
Ni1 O63 1_555 1_555
Ni2 O31 1_555 1_555
Ni5 O31 1_555 1_555
Ni5 O47 1_555 1_555
Ni6 O7 1_555 1_555
Ni6 O15 1_555 1_555
Ni6 O45 1_555 1_555
Ni6 O63 1_555 1_555
Ni7 O5 1_555 1_555
Ni7 O7 1_555 1_555
Ni7 O19 1_555 1_555
Ni7 O47 1_555 1_555
Ni8 O15 1_555 1_555
Ni8 O45 1_555 1_555
P1 O18 1_555 1_555
P1 O22 1_555 1_555
P1 O32 1_555 1_555
P2 O14 1_555 1_555
P2 O16 1_555 1_555
P2 O34 1_555 1_555
O59 C1 1_555 1_555
O61 C5 1_555 1_555
C3 C14 1_555 1_555
C4 C15 1_555 1_555
C6 C7 1_555 1_555
C8 C14 1_555 1_555
C11 C13 1_555 1_555
C18 C19 1_555 1_555
C21 C22 1_555 1_555
N2A C9A 1_555 1_555
C9A C10A 1_555 1_555
W2A O21A 1_555 1_555
W2A O32A 1_555 1_555
W5A O28A 1_555 1_555
W7A O42A 1_555 1_555
W7A O43A 1_555 1_555
W8A O46A 1_555 1_555
W8A O66A 1_555 1_555
W9A O18A 1_555 1_555
W9A O23A 1_555 1_555
W9A O29A 1_555 1_555
W9A O44A 1_555 1_555
W10A O26A 1_555 1_555
W10A O34A 1_555 1_555
W11A O33A 1_555 1_555
W11A O41A 1_555 1_555
W12A O9A 1_555 1_555
W12A O39A 1_555 1_555
W13A O16A 1_555 1_555
W13A O36A 1_555 1_555
W13A O52A 1_555 1_555
W14A O40A 1_555 1_555
W14A O53A 1_555 1_555
W14A O62A 1_555 1_555
W15A O16A 1_555 1_555
W15A O17A 1_555 1_555
W15A O37A 1_555 1_555
W15A O38A 1_555 1_555
Ni1A O63A 1_555 1_555
Ni2A O31A 1_555 1_555
Ni5A O31A 1_555 1_555
Ni5A O47A 1_555 1_555
Ni6A O7A 1_555 1_555
Ni6A O15A 1_555 1_555
Ni6A O45A 1_555 1_555
Ni6A O63A 1_555 1_555
Ni7A O5A 1_555 1_555
Ni7A O7A 1_555 1_555
Ni7A O19A 1_555 1_555
Ni7A O47A 1_555 1_555
Ni8A O15A 1_555 1_555
Ni8A O45A 1_555 1_555
P1A O18A 1_555 1_555
P1A O22A 1_555 1_555
P1A O32A 1_555 1_555
P2A O14A 1_555 1_555
P2A O16A 1_555 1_555
P2A O34A 1_555 1_555
O61A C5A 1_555 1_555
C3A C14A 1_555 1_555
C4A C15A 1_555 1_555
C6A C7A 1_555 1_555
C8A C14A 1_555 1_555
C11A C13A 1_555 1_555

#END
