
#######################################################################
#
#                 Cambridge Crystallographic Data Centre
#                                CCDC 
#
#######################################################################
#
# If this CIF has been generated from an entry in the Cambridge 
# Structural Database, then it will include bibliographic, chemical, 
# crystal, experimental, refinement or atomic coordinate data resulting 
# from the CCDC's data processing and validation procedures.
#
#######################################################################

data_DOTYIW01
_symmetry_cell_setting           triclinic
_symmetry_space_group_name_H-M   'P -1'
_symmetry_Int_Tables_number      2
_space_group_name_Hall           '-P 1'
loop_
_symmetry_equiv_pos_site_id
_symmetry_equiv_pos_as_xyz
1 x,y,z
2 -x,-y,-z
_cell_length_a                   15.2442(15)
_cell_length_b                   15.2808(8)
_cell_length_c                   16.9964(10)
_cell_angle_alpha                100.843(5)
_cell_angle_beta                 99.057(8)
_cell_angle_gamma                100.687(7)
_cell_volume                     3744.45
loop_
_atom_site_label
_atom_site_type_symbol
_atom_site_fract_x
_atom_site_fract_y
_atom_site_fract_z
Co2 Co 0.5000 0.0000 0.5000
O5 O 0.4037(6) -0.0351(5) 0.4085(5)
O6 O 0.5780(6) 0.0037(5) 0.4231(6)
N3 N 0.4975(6) 0.1287(5) 0.5012(7)
C45 C 0.4343(9) -0.0334(8) 0.3385(8)
C46 C 0.3782(11) -0.0530(10) 0.2628(10)
H53 H 0.3154 -0.0696 0.2582
C47 C 0.4150(12) -0.0482(12) 0.1918(11)
C48 C 0.5110(12) -0.0279(11) 0.2018(10)
H54 H 0.5364 -0.0259 0.1557
C49 C 0.5680(10) -0.0112(9) 0.2761(10)
C50 C 0.5309(9) -0.0152(8) 0.3478(8)
C51 C 0.3559(15) -0.0709(16) 0.1055(11)
C52 C 0.258(2) -0.082(5) 0.1068(17)
H55 H 0.2367 -0.1366 0.1250
H56 H 0.2243 -0.0868 0.0527
H57 H 0.2482 -0.0302 0.1433
C53 C 0.375(4) -0.158(3) 0.059(2)
H58 H 0.4266 -0.1436 0.0351
H59 H 0.3225 -0.1894 0.0174
H60 H 0.3865 -0.1967 0.0965
C54 C 0.383(2) -0.009(4) 0.058(2)
H61 H 0.3423 0.0322 0.0557
H62 H 0.3815 -0.0416 0.0034
H63 H 0.4438 0.0259 0.0817
C55 C 0.6729(11) 0.0091(12) 0.2845(11)
C56 C 0.7110(13) -0.0671(15) 0.3194(15)
H64 H 0.6898 -0.0728 0.3689
H65 H 0.7763 -0.0511 0.3308
H66 H 0.6901 -0.1242 0.2800
C57 C 0.7151(13) 0.1017(13) 0.3401(13)
H67 H 0.6882 0.1472 0.3198
H68 H 0.7795 0.1157 0.3417
H69 H 0.7044 0.1010 0.3942
C58 C 0.7013(15) 0.0105(17) 0.2008(13)
H70 H 0.6875 -0.0507 0.1682
H71 H 0.7655 0.0357 0.2096
H72 H 0.6683 0.0473 0.1730
C59 C 0.5754(10) 0.1901(9) 0.5096(10)
H73 H 0.6299 0.1707 0.5150
C60 C 0.5778(10) 0.2783(9) 0.5104(11)
H74 H 0.6335 0.3186 0.5169
C61 C 0.4985(10) 0.3103(9) 0.5018(9)
C62 C 0.4191(9) 0.2452(8) 0.4945(10)
H75 H 0.3632 0.2620 0.4899
C63 C 0.4230(10) 0.1572(9) 0.4942(10)
H76 H 0.3686 0.1150 0.4885
C64 C 0.4985(9) 0.4082(8) 0.5014(9)
C65 C 0.4201(10) 0.4354(9) 0.4760(11)
H77 H 0.3653 0.3922 0.4588
C66 C 0.4209(10) 0.5223(9) 0.4753(10)
H78 H 0.3660 0.5381 0.4589
N3A N 0.5025(6) 0.8713(5) 0.4988(7)
C59A C 0.4246(10) 0.8099(9) 0.4904(10)
H73A H 0.3701 0.8293 0.4850
C60A C 0.4222(10) 0.7217(9) 0.4896(11)
H74A H 0.3665 0.6814 0.4831
C61A C 0.5015(10) 0.6897(9) 0.4982(9)
C62A C 0.5809(9) 0.7548(8) 0.5055(10)
H75A H 0.6368 0.7380 0.5101
C63A C 0.5770(10) 0.8428(9) 0.5058(10)
H76A H 0.6314 0.8850 0.5115
C64A C 0.5015(9) 0.5918(8) 0.4986(9)
C65A C 0.5799(10) 0.5646(9) 0.5240(11)
H77A H 0.6347 0.6078 0.5412
C66A C 0.5791(10) 0.4777(9) 0.5247(10)
H78A H 0.6340 0.4619 0.5411
O5A O 0.5963(6) 0.0351(5) 0.5915(5)
O6A O 0.4220(6) -0.0037(5) 0.5769(6)
C45A C 0.5657(9) 0.0334(8) 0.6615(8)
C46A C 0.6218(11) 0.0530(10) 0.7372(10)
H53A H 0.6846 0.0696 0.7418
C47A C 0.5850(12) 0.0482(12) 0.8082(11)
C48A C 0.4890(12) 0.0279(11) 0.7982(10)
H54A H 0.4636 0.0259 0.8443
C49A C 0.4320(10) 0.0112(9) 0.7239(10)
C50A C 0.4691(9) 0.0152(8) 0.6522(8)
C51A C 0.6441(15) 0.0709(16) 0.8945(11)
C52A C 0.742(2) 0.082(5) 0.8932(17)
H55A H 0.7633 0.1366 0.8750
H56A H 0.7757 0.0868 0.9473
H57A H 0.7518 0.0302 0.8567
C53A C 0.625(4) 0.158(3) 0.941(2)
H58A H 0.5734 0.1436 0.9649
H59A H 0.6775 0.1894 0.9826
H60A H 0.6135 0.1967 0.9035
C54A C 0.617(2) 0.009(4) 0.942(2)
H61A H 0.6577 -0.0322 0.9443
H62A H 0.6185 0.0416 0.9966
H63A H 0.5562 -0.0259 0.9183
C55A C 0.3271(11) -0.0091(12) 0.7155(11)
C56A C 0.2890(13) 0.0671(15) 0.6806(15)
H64A H 0.3102 0.0728 0.6311
H65A H 0.2237 0.0511 0.6692
H66A H 0.3099 0.1242 0.7200
C57A C 0.2849(13) -0.1017(13) 0.6599(13)
H67A H 0.3118 -0.1472 0.6802
H68A H 0.2205 -0.1157 0.6583
H69A H 0.2956 -0.1010 0.6058
C58A C 0.2987(15) -0.0105(17) 0.7992(13)
H70A H 0.3125 0.0507 0.8318
H71A H 0.2345 -0.0357 0.7904
H72A H 0.3317 -0.0473 0.8270
Co2_2 Co 0.5000 1.0000 0.5000
N3A_2 N 0.5025(6) -0.1287(5) 0.4988(7)
Co1 Co 0.16128(12) 0.30844(14) 0.25020(13)
O1 O 0.1948(6) 0.3764(6) 0.3680(6)
O2 O 0.1460(5) 0.1927(6) 0.2937(6)
O3 O 0.1726(6) 0.4251(6) 0.2052(6)
O4 O 0.1288(6) 0.2419(7) 0.1295(6)
N1 N 1.0270(7) 0.3113(8) 0.2461(8)
N2 N 0.2971(7) 0.3042(8) 0.2556(7)
C1 C 0.9688(8) 0.2336(10) 0.2100(9)
H1 H 0.9882 0.1824 0.1864
C2 C 0.8780(9) 0.2314(10) 0.2087(10)
H2 H 0.8346 0.1793 0.1802
C3 C 0.8502(8) 0.3059(9) 0.2493(9)
C4 C 0.9177(9) 0.3829(10) 0.2889(11)
H3 H 0.9027 0.4349 0.3164
C5 C 1.0077(9) 0.3810(10) 0.2869(11)
H4 H 1.0539 0.4308 0.3153
C6 C 0.7532(8) 0.3066(10) 0.2510(10)
C7 C 0.7274(9) 0.3541(11) 0.3174(10)
H5 H 0.7718 0.3872 0.3625
C8 C 0.6371(9) 0.3538(11) 0.3184(10)
H6 H 0.6215 0.3880 0.3633
C9 C 0.5691(9) 0.3028(10) 0.2529(10)
C10 C 0.5937(9) 0.2529(12) 0.1870(10)
H7 H 0.5487 0.2167 0.1437
C11 C 0.6837(9) 0.2560(12) 0.1841(10)
H8 H 0.6991 0.2244 0.1378
C12 C 0.3162(9) 0.2273(11) 0.2358(10)
H9 H 0.2700 0.1747 0.2185
C13 C 0.4076(10) 0.2213(11) 0.2398(11)
H10 H 0.4246 0.1654 0.2329
C14 C 0.4718(9) 0.3043(10) 0.2547(9)
C15 C 0.4443(10) 0.3842(11) 0.2740(12)
H11 H 0.4872 0.4393 0.2890
C16 C 0.3528(8) 0.3839(9) 0.2714(10)
H12 H 0.3323 0.4379 0.2804
C17 C 0.1815(8) 0.3170(8) 0.4113(8)
C18 C 0.1933(11) 0.3453(10) 0.4945(9)
H13 H 0.2096 0.4075 0.5183
C19 C 0.1816(14) 0.2833(12) 0.5439(11)
C20 C 0.1576(12) 0.1920(11) 0.5051(10)
H14 H 0.1489 0.1500 0.5378
C21 C 0.1454(10) 0.1571(10) 0.4219(9)
C22 C 0.1574(8) 0.2203(8) 0.3723(7)
C23 C 0.196(2) 0.3171(15) 0.6374(11)
C24 C 0.155(3) 0.397(2) 0.6564(17)
H15 H 0.1910 0.4492 0.6440
H16 H 0.1520 0.4101 0.7134
H17 H 0.0942 0.3840 0.6241
C25 C 0.288(3) 0.338(3) 0.6718(15)
H18 H 0.3192 0.3016 0.6382
H19 H 0.2968 0.3260 0.7255
H20 H 0.3131 0.4018 0.6754
C26 C 0.142(3) 0.248(2) 0.6737(17)
H21 H 0.0800 0.2308 0.6441
H22 H 0.1434 0.2744 0.7299
H23 H 0.1678 0.1952 0.6701
C27 C 0.1115(12) 0.0561(10) 0.3789(11)
C28 C 0.1220(19) -0.0035(14) 0.4489(14)
H24 H 0.1850 0.0074 0.4744
H25 H 0.0997 -0.0673 0.4241
H26 H 0.0874 0.0145 0.4893
C29 C 0.0152(13) 0.0375(14) 0.3392(12)
H27 H -0.0198 0.0572 0.3787
H28 H -0.0065 -0.0268 0.3165
H29 H 0.0089 0.0701 0.2962
C30 C 0.1715(14) 0.0234(11) 0.3207(13)
H30 H 0.1693 0.0557 0.2774
H31 H 0.1496 -0.0410 0.2980
H32 H 0.2331 0.0348 0.3500
C31 C 0.1592(10) 0.4002(9) 0.1283(8)
C32 C 0.1673(13) 0.4675(12) 0.0835(11)
H33 H 0.1821 0.5291 0.1093
C33 C 0.1526(17) 0.4395(16) -0.0013(12)
C34 C 0.1272(17) 0.3477(14) -0.0400(12)
H34 H 0.1142 0.3330 -0.0968
C35 C 0.1196(13) 0.2752(13) 0.0001(11)
C36 C 0.1362(9) 0.3034(9) 0.0878(8)
C37 C 0.157(3) 0.510(2) -0.0551(15)
C38 C 0.230(3) 0.506(2) -0.101(2)
H35 H 0.2825 0.4951 -0.0677
H36 H 0.2469 0.5624 -0.1175
H37 H 0.2098 0.4567 -0.1491
C39 C 0.175(4) 0.6068(17) -0.002(2)
H38 H 0.1492 0.6451 -0.0339
H39 H 0.2398 0.6307 0.0147
H40 H 0.1481 0.6054 0.0447
C40 C 0.069(3) 0.490(3) -0.120(2)
H41 H 0.0519 0.4253 -0.1438
H42 H 0.0794 0.5227 -0.1614
H43 H 0.0217 0.5081 -0.0944
C41 C 0.0957(17) 0.1744(14) -0.0421(11)
C42 C 0.163(2) 0.1238(18) -0.0177(16)
H44 H 0.2227 0.1571 -0.0189
H45 H 0.1502 0.0651 -0.0547
H46 H 0.1612 0.1156 0.0367
C43 C 0.087(3) 0.1601(18) -0.1361(15)
H47 H 0.0434 0.1928 -0.1569
H48 H 0.0659 0.0962 -0.1610
H49 H 0.1447 0.1826 -0.1485
C44 C 0.0027(19) 0.1314(16) -0.0262(16)
H50 H 0.0030 0.1468 0.0313
H51 H -0.0091 0.0662 -0.0446
H52 H -0.0440 0.1544 -0.0553
Co1_2 Co 1.16128(12) 0.30844(14) 0.25020(13)
N1_2 N 0.0270(7) 0.3113(8) 0.2461(8)
loop_
_geom_bond_atom_site_label_1
_geom_bond_atom_site_label_2
_geom_bond_site_symmetry_1
_geom_bond_site_symmetry_2
Co1 O1 1_555 1_555
O1 C17 1_555 1_555
O2 Co1 1_555 1_555
O3 Co1 1_555 1_555
O4 Co1 1_555 1_555
N1 C1 1_555 1_555
N2 Co1 1_555 1_555
C1 H1 1_555 1_555
C2 C1 1_555 1_555
H2 C2 1_555 1_555
C3 C2 1_555 1_555
C4 C3 1_555 1_555
H3 C4 1_555 1_555
C5 N1 1_555 1_555
H4 C5 1_555 1_555
C6 C3 1_555 1_555
C7 C6 1_555 1_555
H5 C7 1_555 1_555
C8 C7 1_555 1_555
H6 C8 1_555 1_555
C9 C8 1_555 1_555
C10 C9 1_555 1_555
H7 C10 1_555 1_555
C11 C6 1_555 1_555
H8 C11 1_555 1_555
C12 N2 1_555 1_555
H9 C12 1_555 1_555
C13 C12 1_555 1_555
H10 C13 1_555 1_555
C14 C9 1_555 1_555
C15 C14 1_555 1_555
H11 C15 1_555 1_555
C16 N2 1_555 1_555
H12 C16 1_555 1_555
C17 C18 1_555 1_555
C18 H13 1_555 1_555
C19 C18 1_555 1_555
C20 C19 1_555 1_555
H14 C20 1_555 1_555
C21 C20 1_555 1_555
C22 O2 1_555 1_555
C23 C19 1_555 1_555
C24 C23 1_555 1_555
H15 C24 1_555 1_555
H16 C24 1_555 1_555
H17 C24 1_555 1_555
C25 C23 1_555 1_555
H18 C25 1_555 1_555
H19 C25 1_555 1_555
H20 C25 1_555 1_555
C26 C23 1_555 1_555
H21 C26 1_555 1_555
H22 C26 1_555 1_555
H23 C26 1_555 1_555
C27 C21 1_555 1_555
C28 C27 1_555 1_555
H24 C28 1_555 1_555
H25 C28 1_555 1_555
H26 C28 1_555 1_555
C29 C27 1_555 1_555
H27 C29 1_555 1_555
H28 C29 1_555 1_555
H29 C29 1_555 1_555
C30 C27 1_555 1_555
H30 C30 1_555 1_555
H31 C30 1_555 1_555
H32 C30 1_555 1_555
C31 O3 1_555 1_555
C32 C31 1_555 1_555
H33 C32 1_555 1_555
C33 C32 1_555 1_555
C34 C33 1_555 1_555
H34 C34 1_555 1_555
C35 C34 1_555 1_555
C36 O4 1_555 1_555
C37 C33 1_555 1_555
C38 C37 1_555 1_555
H35 C38 1_555 1_555
H36 C38 1_555 1_555
H37 C38 1_555 1_555
C39 C37 1_555 1_555
H38 C39 1_555 1_555
H39 C39 1_555 1_555
H40 C39 1_555 1_555
C40 C37 1_555 1_555
H41 C40 1_555 1_555
H42 C40 1_555 1_555
H43 C40 1_555 1_555
C41 C35 1_555 1_555
C42 C41 1_555 1_555
H44 C42 1_555 1_555
H45 C42 1_555 1_555
H46 C42 1_555 1_555
C43 C41 1_555 1_555
H47 C43 1_555 1_555
H48 C43 1_555 1_555
H49 C43 1_555 1_555
C44 C41 1_555 1_555
H50 C44 1_555 1_555
H51 C44 1_555 1_555
H52 C44 1_555 1_555
Co2 O5 1_555 1_555
O5 C45 1_555 1_555
O6 Co2 1_555 1_555
N3 Co2 1_555 1_555
C45 C46 1_555 1_555
C46 H53 1_555 1_555
C47 C46 1_555 1_555
C48 C47 1_555 1_555
H54 C48 1_555 1_555
C49 C48 1_555 1_555
C50 O6 1_555 1_555
C51 C47 1_555 1_555
C52 C51 1_555 1_555
H55 C52 1_555 1_555
H56 C52 1_555 1_555
H57 C52 1_555 1_555
C53 C51 1_555 1_555
H58 C53 1_555 1_555
H59 C53 1_555 1_555
H60 C53 1_555 1_555
C54 C51 1_555 1_555
H61 C54 1_555 1_555
H62 C54 1_555 1_555
H63 C54 1_555 1_555
C55 C49 1_555 1_555
C56 C55 1_555 1_555
H64 C56 1_555 1_555
H65 C56 1_555 1_555
H66 C56 1_555 1_555
C57 C55 1_555 1_555
H67 C57 1_555 1_555
H68 C57 1_555 1_555
H69 C57 1_555 1_555
C58 C55 1_555 1_555
H70 C58 1_555 1_555
H71 C58 1_555 1_555
H72 C58 1_555 1_555
C59 N3 1_555 1_555
H73 C59 1_555 1_555
C60 C59 1_555 1_555
H74 C60 1_555 1_555
C61 C60 1_555 1_555
C62 C61 1_555 1_555
H75 C62 1_555 1_555
C63 N3 1_555 1_555
H76 C63 1_555 1_555
C64 C61 1_555 1_555
C65 C64 1_555 1_555
H77 C65 1_555 1_555
C66 C65 1_555 1_555
H78 C66 1_555 1_555
Co1_2 N1 1_555 1_555
N1_2 Co1 1_555 1_555
N3A C59A 1_555 1_555
C59A H73A 1_555 1_555
C60A C59A 1_555 1_555
H74A C60A 1_555 1_555
C61A C60A 1_555 1_555
C62A C61A 1_555 1_555
H75A C62A 1_555 1_555
C63A N3A 1_555 1_555
H76A C63A 1_555 1_555
C64A C66 1_555 1_555
C65A C64A 1_555 1_555
H77A C65A 1_555 1_555
C66A C64 1_555 1_555
H78A C66A 1_555 1_555
O5A Co2 1_555 1_555
O6A Co2 1_555 1_555
C45A O5A 1_555 1_555
C46A C45A 1_555 1_555
H53A C46A 1_555 1_555
C47A C46A 1_555 1_555
C48A C47A 1_555 1_555
H54A C48A 1_555 1_555
C49A C48A 1_555 1_555
C50A O6A 1_555 1_555
C51A C47A 1_555 1_555
C52A C51A 1_555 1_555
H55A C52A 1_555 1_555
H56A C52A 1_555 1_555
H57A C52A 1_555 1_555
C53A C51A 1_555 1_555
H58A C53A 1_555 1_555
H59A C53A 1_555 1_555
H60A C53A 1_555 1_555
C54A C51A 1_555 1_555
H61A C54A 1_555 1_555
H62A C54A 1_555 1_555
H63A C54A 1_555 1_555
C55A C49A 1_555 1_555
C56A C55A 1_555 1_555
H64A C56A 1_555 1_555
H65A C56A 1_555 1_555
H66A C56A 1_555 1_555
C57A C55A 1_555 1_555
H67A C57A 1_555 1_555
H68A C57A 1_555 1_555
H69A C57A 1_555 1_555
C58A C55A 1_555 1_555
H70A C58A 1_555 1_555
H71A C58A 1_555 1_555
H72A C58A 1_555 1_555
Co2_2 N3A 1_555 1_555
N3A_2 Co2 1_555 1_555
C4 C5 1_555 1_555
C10 C11 1_555 1_555
C13 C14 1_555 1_555
C15 C16 1_555 1_555
C17 C22 1_555 1_555
C21 C22 1_555 1_555
C31 C36 1_555 1_555
C35 C36 1_555 1_555
C45 C50 1_555 1_555
C49 C50 1_555 1_555
C62 C63 1_555 1_555
C61A C64A 1_555 1_555
C62A C63A 1_555 1_555
C65A C66A 1_555 1_555
C45A C50A 1_555 1_555
C49A C50A 1_555 1_555

#END
