
#######################################################################
#
#                 Cambridge Crystallographic Data Centre
#                                CCDC 
#
#######################################################################
#
# If this CIF has been generated from an entry in the Cambridge 
# Structural Database, then it will include bibliographic, chemical, 
# crystal, experimental, refinement or atomic coordinate data resulting 
# from the CCDC's data processing and validation procedures.
#
#######################################################################

data_DOTZIX
_symmetry_cell_setting           triclinic
_symmetry_space_group_name_H-M   'P -1'
_symmetry_Int_Tables_number      2
_space_group_name_Hall           '-P 1'
loop_
_symmetry_equiv_pos_site_id
_symmetry_equiv_pos_as_xyz
1 x,y,z
2 -x,-y,-z
_cell_length_a                   8.7245(12)
_cell_length_b                   11.1242(8)
_cell_length_c                   11.7352(8)
_cell_angle_alpha                104.632(6)
_cell_angle_beta                 98.382(9)
_cell_angle_gamma                97.482(8)
_cell_volume                     1073.5
loop_
_atom_site_label
_atom_site_type_symbol
_atom_site_fract_x
_atom_site_fract_y
_atom_site_fract_z
Co1 Co 1.0000 0.5000 1.0000
O1 O 1.1027(3) 0.3972(2) 0.8943(2)
O2 O 0.8554(3) 0.4991(2) 0.8652(2)
N1 N 0.8691(4) 0.3517(3) 1.0131(3)
C1 C 0.7132(5) 0.3449(4) 1.0042(3)
H1 H 0.6700 0.4155 0.9970
C2 C 0.6144(5) 0.2393(4) 1.0051(4)
H2 H 0.5071 0.2396 0.9998
C3 C 0.6743(5) 0.1314(4) 1.0138(3)
C4 C 0.8352(6) 0.1414(4) 1.0278(4)
H3 H 0.8816 0.0732 1.0380
C5 C 0.9279(5) 0.2499(4) 1.0269(4)
H4 H 1.0362 0.2532 1.0363
C6 C 0.5768(6) 0.0116(4) 1.0071(4)
H5 H 0.6292 -0.0547 1.0137
C7 C 0.8911(5) 0.4281(3) 0.7680(3)
C8 C 1.0259(5) 0.3735(3) 0.7825(3)
C9 C 1.0740(5) 0.2984(3) 0.6824(3)
C10 C 0.9797(5) 0.2817(4) 0.5726(3)
H6 H 1.0086 0.2322 0.5053
C11 C 0.8433(5) 0.3343(3) 0.5553(3)
C12 C 0.7985(5) 0.4077(3) 0.6539(3)
H7 H 0.7083 0.4433 0.6452
C13 C 1.2217(6) 0.2410(4) 0.6981(4)
C14 C 1.2512(8) 0.1641(6) 0.5774(5)
H8 H 1.1627 0.0978 0.5400
H9 H 1.3442 0.1281 0.5903
H10 H 1.2650 0.2183 0.5263
C15 C 1.2058(7) 0.1531(5) 0.7771(5)
H11 H 1.1948 0.2002 0.8553
H12 H 1.2980 0.1148 0.7838
H13 H 1.1147 0.0886 0.7424
C16 C 1.3650(6) 0.3452(5) 0.7540(5)
H14 H 1.3746 0.4006 0.7036
H15 H 1.4581 0.3081 0.7617
H16 H 1.3524 0.3922 0.8317
C17 C 0.7490(6) 0.3100(4) 0.4281(4)
C18 C 0.8571(8) 0.3545(7) 0.3506(5)
H17 H 0.8935 0.4438 0.3821
H18 H 0.8004 0.3364 0.2700
H19 H 0.9456 0.3115 0.3510
C19 C 0.6868(10) 0.1714(5) 0.3761(5)
H20 H 0.7730 0.1259 0.3736
H21 H 0.6287 0.1564 0.2964
H22 H 0.6188 0.1433 0.4251
C20 C 0.6125(9) 0.3794(7) 0.4264(5)
H23 H 0.5438 0.3536 0.4761
H24 H 0.5557 0.3604 0.3457
H25 H 0.6507 0.4685 0.4563
N1A N 0.1309(4) -0.3517(3) 0.9869(3)
C1A C 0.2868(5) -0.3449(4) 0.9958(3)
H1A H 0.3300 -0.4155 1.0030
C2A C 0.3856(5) -0.2393(4) 0.9949(4)
H2A H 0.4929 -0.2396 1.0002
C3A C 0.3257(5) -0.1314(4) 0.9862(3)
C4A C 0.1648(6) -0.1414(4) 0.9722(4)
H3A H 0.1184 -0.0732 0.9620
C5A C 0.0721(5) -0.2499(4) 0.9731(4)
H4A H -0.0362 -0.2532 0.9637
C6A C 0.4232(6) -0.0116(4) 0.9929(4)
H5A H 0.3708 0.0547 0.9863
O1A O 0.8973(3) 0.6028(2) 1.1057(2)
O2A O 1.1446(3) 0.5009(2) 1.1348(2)
C7A C 1.1089(5) 0.5719(3) 1.2320(3)
C8A C 0.9741(5) 0.6265(3) 1.2175(3)
C9A C 0.9260(5) 0.7016(3) 1.3176(3)
C10A C 1.0203(5) 0.7183(4) 1.4274(3)
H6A H 0.9914 0.7678 1.4947
C11A C 1.1567(5) 0.6657(3) 1.4447(3)
C12A C 1.2015(5) 0.5923(3) 1.3461(3)
H7A H 1.2917 0.5567 1.3548
C13A C 0.7783(6) 0.7590(4) 1.3019(4)
C14A C 0.7488(8) 0.8359(6) 1.4226(5)
H8A H 0.8373 0.9022 1.4600
H9A H 0.6558 0.8719 1.4097
H10A H 0.7350 0.7817 1.4737
C15A C 0.7942(7) 0.8469(5) 1.2229(5)
H11A H 0.8052 0.7998 1.1447
H12A H 0.7020 0.8852 1.2162
H13A H 0.8853 0.9114 1.2576
C16A C 0.6350(6) 0.6548(5) 1.2460(5)
H14A H 0.6254 0.5994 1.2964
H15A H 0.5419 0.6919 1.2383
H16A H 0.6476 0.6078 1.1683
C17A C 1.2510(6) 0.6900(4) 1.5719(4)
C18A C 1.1429(8) 0.6455(7) 1.6494(5)
H17A H 1.1065 0.5562 1.6179
H18A H 1.1996 0.6636 1.7300
H19A H 1.0544 0.6885 1.6490
C19A C 1.3132(10) 0.8286(5) 1.6239(5)
H20A H 1.2270 0.8741 1.6264
H21A H 1.3713 0.8436 1.7036
H22A H 1.3812 0.8567 1.5749
C20A C 1.3875(9) 0.6206(7) 1.5736(5)
H23A H 1.4562 0.6464 1.5239
H24A H 1.4443 0.6396 1.6543
H25A H 1.3493 0.5315 1.5437
Co1_2 Co 0.0000 -0.5000 1.0000
N1A_2 N 1.1309(4) 0.6483(3) 0.9869(3)
N2 N 0.1924(12) 0.1082(7) 0.2389(8)
C21 C 0.2853(10) -0.0778(6) 0.3002(6)
H26 H 0.3461 -0.1166 0.2438
H27 H 0.1959 -0.1382 0.3000
H28 H 0.3492 -0.0493 0.3790
C22 C 0.2334(9) 0.0264(7) 0.2674(6)
O3 O 0.3239(8) 0.3092(6) 0.1314(6)
loop_
_geom_bond_atom_site_label_1
_geom_bond_atom_site_label_2
_geom_bond_site_symmetry_1
_geom_bond_site_symmetry_2
Co1 O1 1_555 1_555
O1 C8 1_555 1_555
O2 Co1 1_555 1_555
N1 Co1 1_555 1_555
C1 N1 1_555 1_555
H1 C1 1_555 1_555
C2 C1 1_555 1_555
H2 C2 1_555 1_555
C3 C2 1_555 1_555
C4 C3 1_555 1_555
H3 C4 1_555 1_555
C5 N1 1_555 1_555
H4 C5 1_555 1_555
C6 C3 1_555 1_555
H5 C6 1_555 1_555
C7 O2 1_555 1_555
C8 C7 1_555 1_555
C9 C8 1_555 1_555
C10 C9 1_555 1_555
H6 C10 1_555 1_555
C11 C10 1_555 1_555
C12 C7 1_555 1_555
H7 C12 1_555 1_555
C13 C9 1_555 1_555
C14 C13 1_555 1_555
H8 C14 1_555 1_555
H9 C14 1_555 1_555
H10 C14 1_555 1_555
C15 C13 1_555 1_555
H11 C15 1_555 1_555
H12 C15 1_555 1_555
H13 C15 1_555 1_555
C16 C13 1_555 1_555
H14 C16 1_555 1_555
H15 C16 1_555 1_555
H16 C16 1_555 1_555
C17 C11 1_555 1_555
C18 C17 1_555 1_555
H17 C18 1_555 1_555
H18 C18 1_555 1_555
H19 C18 1_555 1_555
C19 C17 1_555 1_555
H20 C19 1_555 1_555
H21 C19 1_555 1_555
H22 C19 1_555 1_555
C20 C17 1_555 1_555
H23 C20 1_555 1_555
H24 C20 1_555 1_555
H25 C20 1_555 1_555
N2 C22 1_555 1_555
C21 H26 1_555 1_555
H27 C21 1_555 1_555
H28 C21 1_555 1_555
C22 C21 1_555 1_555
N1A C1A 1_555 1_555
C1A H1A 1_555 1_555
C2A C1A 1_555 1_555
H2A C2A 1_555 1_555
C3A C2A 1_555 1_555
C4A C3A 1_555 1_555
H3A C4A 1_555 1_555
C5A N1A 1_555 1_555
H4A C5A 1_555 1_555
C6A C6 1_555 1_555
H5A C6A 1_555 1_555
O1A Co1 1_555 1_555
O2A Co1 1_555 1_555
C7A O2A 1_555 1_555
C8A O1A 1_555 1_555
C9A C8A 1_555 1_555
C10A C9A 1_555 1_555
H6A C10A 1_555 1_555
C11A C10A 1_555 1_555
C12A C7A 1_555 1_555
H7A C12A 1_555 1_555
C13A C9A 1_555 1_555
C14A C13A 1_555 1_555
H8A C14A 1_555 1_555
H9A C14A 1_555 1_555
H10A C14A 1_555 1_555
C15A C13A 1_555 1_555
H11A C15A 1_555 1_555
H12A C15A 1_555 1_555
H13A C15A 1_555 1_555
C16A C13A 1_555 1_555
H14A C16A 1_555 1_555
H15A C16A 1_555 1_555
H16A C16A 1_555 1_555
C17A C11A 1_555 1_555
C18A C17A 1_555 1_555
H17A C18A 1_555 1_555
H18A C18A 1_555 1_555
H19A C18A 1_555 1_555
C19A C17A 1_555 1_555
H20A C19A 1_555 1_555
H21A C19A 1_555 1_555
H22A C19A 1_555 1_555
C20A C17A 1_555 1_555
H23A C20A 1_555 1_555
H24A C20A 1_555 1_555
H25A C20A 1_555 1_555
Co1_2 N1A 1_555 1_555
N1A_2 Co1 1_555 1_555
C4 C5 1_555 1_555
C11 C12 1_555 1_555
C3A C6A 1_555 1_555
C4A C5A 1_555 1_555
C7A C8A 1_555 1_555
C11A C12A 1_555 1_555

#END
