
#######################################################################
#
#                 Cambridge Crystallographic Data Centre
#                                CCDC 
#
#######################################################################
#
# If this CIF has been generated from an entry in the Cambridge 
# Structural Database, then it will include bibliographic, chemical, 
# crystal, experimental, refinement or atomic coordinate data resulting 
# from the CCDC's data processing and validation procedures.
#
#######################################################################

data_DOTZOD
_symmetry_cell_setting           triclinic
_symmetry_space_group_name_H-M   'P -1'
_symmetry_Int_Tables_number      2
_space_group_name_Hall           '-P 1'
loop_
_symmetry_equiv_pos_site_id
_symmetry_equiv_pos_as_xyz
1 x,y,z
2 -x,-y,-z
_cell_length_a                   8.6043(5)
_cell_length_b                   11.1246(6)
_cell_length_c                   11.7325(9)
_cell_angle_alpha                103.208(6)
_cell_angle_beta                 96.996(6)
_cell_angle_gamma                100.004(5)
_cell_volume                     1061.31
loop_
_atom_site_label
_atom_site_type_symbol
_atom_site_fract_x
_atom_site_fract_y
_atom_site_fract_z
Co1 Co 0.5000 0.0000 0.5000
O1 O 0.3989(2) 0.1027(2) 0.6053(2)
O2 O 0.6445(2) 0.00225(19) 0.6338(2)
N1 N 0.6377(3) 0.1519(2) 0.4821(3)
N2 N 0.9335(3) 0.4889(3) 0.4714(3)
C1 C 0.5786(4) 0.2503(3) 0.4626(3)
H1 H 0.4683 0.2440 0.4522
C2 C 0.6747(4) 0.3599(3) 0.4573(4)
H2 H 0.6303 0.4264 0.4423
C3 C 0.8367(4) 0.3701(3) 0.4743(3)
C4 C 0.8976(4) 0.2677(3) 0.4904(4)
H3 H 1.0073 0.2713 0.4989
C5 C 0.7947(4) 0.1606(3) 0.4937(3)
H4 H 0.8363 0.0914 0.5045
C6 C 0.4747(3) 0.1268(3) 0.7142(3)
C7 C 0.6098(3) 0.0735(3) 0.7307(3)
C8 C 0.7008(4) 0.0944(3) 0.8422(3)
H5 H 0.7906 0.0591 0.8504
C9 C 0.6590(4) 0.1669(3) 0.9407(3)
C10 C 0.5228(4) 0.2191(3) 0.9235(3)
H6 H 0.4944 0.2683 0.9899
C11 C 0.4285(4) 0.2024(3) 0.8147(3)
C12 C 0.7510(4) 0.1914(3) 1.0662(3)
C13 C 0.8206(7) 0.3320(5) 1.1150(5)
H7 H 0.8844 0.3615 1.0613
H8 H 0.8862 0.3466 1.1911
H9 H 0.7351 0.3768 1.1234
C14 C 0.8898(6) 0.1219(6) 1.0688(5)
H10 H 0.8493 0.0331 1.0353
H11 H 0.9412 0.1360 1.1495
H12 H 0.9657 0.1531 1.0234
C15 C 0.6428(6) 0.1464(6) 1.1468(4)
H13 H 0.5588 0.1930 1.1525
H14 H 0.7039 0.1594 1.2243
H15 H 0.5970 0.0581 1.1148
C16 C 0.2824(4) 0.2598(4) 0.8000(4)
C17 C 0.2535(6) 0.3339(5) 0.9195(5)
H16 H 0.2358 0.2781 0.9704
H17 H 0.1612 0.3699 0.9074
H18 H 0.3454 0.4001 0.9559
C18 C 0.1343(4) 0.1546(4) 0.7443(5)
H19 H 0.1477 0.1102 0.6669
H20 H 0.0412 0.1908 0.7374
H21 H 0.1213 0.0969 0.7937
C19 C 0.3054(5) 0.3501(4) 0.7202(5)
H22 H 0.3953 0.4181 0.7569
H23 H 0.2108 0.3837 0.7088
H24 H 0.3246 0.3055 0.6447
N1A N 1.3623(3) 0.8481(2) 0.5179(3)
N2A N 1.0665(3) 0.5111(3) 0.5286(3)
C1A C 1.4214(4) 0.7497(3) 0.5374(3)
H1A H 1.5317 0.7560 0.5478
C2A C 1.3253(4) 0.6401(3) 0.5427(4)
H2A H 1.3697 0.5736 0.5577
C3A C 1.1633(4) 0.6299(3) 0.5257(3)
C4A C 1.1024(4) 0.7323(3) 0.5096(4)
H3A H 0.9927 0.7287 0.5011
C5A C 1.2053(4) 0.8394(3) 0.5063(3)
H4A H 1.1637 0.9086 0.4955
O1A O 0.6011(2) -0.1027(2) 0.3947(2)
O2A O 0.3555(2) -0.00225(19) 0.3662(2)
C6A C 0.5253(3) -0.1268(3) 0.2858(3)
C7A C 0.3902(3) -0.0735(3) 0.2693(3)
C8A C 0.2992(4) -0.0944(3) 0.1578(3)
H5A H 0.2094 -0.0591 0.1496
C9A C 0.3410(4) -0.1669(3) 0.0593(3)
C10A C 0.4772(4) -0.2191(3) 0.0765(3)
H6A H 0.5056 -0.2683 0.0101
C11A C 0.5715(4) -0.2024(3) 0.1853(3)
C12A C 0.2490(4) -0.1914(3) -0.0662(3)
C13A C 0.1794(7) -0.3320(5) -0.1150(5)
H7A H 0.1156 -0.3615 -0.0613
H8A H 0.1138 -0.3466 -0.1911
H9A H 0.2649 -0.3768 -0.1234
C14A C 0.1102(6) -0.1219(6) -0.0688(5)
H10A H 0.1507 -0.0331 -0.0353
H11A H 0.0588 -0.1360 -0.1495
H12A H 0.0343 -0.1531 -0.0234
C15A C 0.3572(6) -0.1464(6) -0.1468(4)
H13A H 0.4412 -0.1930 -0.1525
H14A H 0.2961 -0.1594 -0.2243
H15A H 0.4030 -0.0581 -0.1148
C16A C 0.7176(4) -0.2598(4) 0.2000(4)
C17A C 0.7465(6) -0.3339(5) 0.0805(5)
H16A H 0.7642 -0.2781 0.0296
H17A H 0.8388 -0.3699 0.0926
H18A H 0.6546 -0.4001 0.0441
C18A C 0.8657(4) -0.1546(4) 0.2557(5)
H19A H 0.8523 -0.1102 0.3331
H20A H 0.9588 -0.1908 0.2626
H21A H 0.8787 -0.0969 0.2063
C19A C 0.6946(5) -0.3501(4) 0.2798(5)
H22A H 0.6047 -0.4181 0.2431
H23A H 0.7892 -0.3837 0.2912
H24A H 0.6754 -0.3055 0.3553
Co1_2 Co 1.5000 1.0000 0.5000
N1A_2 N 0.3623(3) -0.1519(2) 0.5179(3)
O3 O 0.1604(9) 0.1680(8) 0.3650(9)
N3 N 0.2998(10) 0.3869(7) 0.2750(9)
C20 C 0.2114(7) 0.5706(6) 0.2095(6)
H25 H 0.1517 0.5416 0.1302
H26 H 0.3040 0.6337 0.2115
H27 H 0.1453 0.6061 0.2627
C21 C 0.2599(8) 0.4690(7) 0.2445(7)
loop_
_geom_bond_atom_site_label_1
_geom_bond_atom_site_label_2
_geom_bond_site_symmetry_1
_geom_bond_site_symmetry_2
Co1 O1 1_555 1_555
O1 C6 1_555 1_555
O2 Co1 1_555 1_555
N1 Co1 1_555 1_555
N2 C3 1_555 1_555
C1 N1 1_555 1_555
H1 C1 1_555 1_555
C2 C1 1_555 1_555
H2 C2 1_555 1_555
C3 C2 1_555 1_555
C4 C3 1_555 1_555
H3 C4 1_555 1_555
C5 N1 1_555 1_555
H4 C5 1_555 1_555
C6 C7 1_555 1_555
C7 O2 1_555 1_555
C8 C7 1_555 1_555
H5 C8 1_555 1_555
C9 C8 1_555 1_555
C10 C9 1_555 1_555
H6 C10 1_555 1_555
C11 C6 1_555 1_555
C12 C9 1_555 1_555
C13 C12 1_555 1_555
H7 C13 1_555 1_555
H8 C13 1_555 1_555
H9 C13 1_555 1_555
C14 C12 1_555 1_555
H10 C14 1_555 1_555
H11 C14 1_555 1_555
H12 C14 1_555 1_555
C15 C12 1_555 1_555
H13 C15 1_555 1_555
H14 C15 1_555 1_555
H15 C15 1_555 1_555
C16 C11 1_555 1_555
C17 C16 1_555 1_555
H16 C17 1_555 1_555
H17 C17 1_555 1_555
H18 C17 1_555 1_555
C18 C16 1_555 1_555
H19 C18 1_555 1_555
H20 C18 1_555 1_555
H21 C18 1_555 1_555
C19 C16 1_555 1_555
H22 C19 1_555 1_555
H23 C19 1_555 1_555
H24 C19 1_555 1_555
N3 C21 1_555 1_555
C20 H25 1_555 1_555
H26 C20 1_555 1_555
H27 C20 1_555 1_555
C21 C20 1_555 1_555
N1A C1A 1_555 1_555
N2A N2 1_555 1_555
C1A H1A 1_555 1_555
C2A C1A 1_555 1_555
H2A C2A 1_555 1_555
C3A N2A 1_555 1_555
C4A C3A 1_555 1_555
H3A C4A 1_555 1_555
C5A N1A 1_555 1_555
H4A C5A 1_555 1_555
O1A Co1 1_555 1_555
O2A Co1 1_555 1_555
C6A O1A 1_555 1_555
C7A O2A 1_555 1_555
C8A C7A 1_555 1_555
H5A C8A 1_555 1_555
C9A C8A 1_555 1_555
C10A C9A 1_555 1_555
H6A C10A 1_555 1_555
C11A C6A 1_555 1_555
C12A C9A 1_555 1_555
C13A C12A 1_555 1_555
H7A C13A 1_555 1_555
H8A C13A 1_555 1_555
H9A C13A 1_555 1_555
C14A C12A 1_555 1_555
H10A C14A 1_555 1_555
H11A C14A 1_555 1_555
H12A C14A 1_555 1_555
C15A C12A 1_555 1_555
H13A C15A 1_555 1_555
H14A C15A 1_555 1_555
H15A C15A 1_555 1_555
C16A C11A 1_555 1_555
C17A C16A 1_555 1_555
H16A C17A 1_555 1_555
H17A C17A 1_555 1_555
H18A C17A 1_555 1_555
C18A C16A 1_555 1_555
H19A C18A 1_555 1_555
H20A C18A 1_555 1_555
H21A C18A 1_555 1_555
C19A C16A 1_555 1_555
H22A C19A 1_555 1_555
H23A C19A 1_555 1_555
H24A C19A 1_555 1_555
Co1_2 N1A 1_555 1_555
N1A_2 Co1 1_555 1_555
C4 C5 1_555 1_555
C10 C11 1_555 1_555
C2A C3A 1_555 1_555
C4A C5A 1_555 1_555
C6A C7A 1_555 1_555
C10A C11A 1_555 1_555

#END
