
#######################################################################
#
#                 Cambridge Crystallographic Data Centre
#                                CCDC 
#
#######################################################################
#
# If this CIF has been generated from an entry in the Cambridge 
# Structural Database, then it will include bibliographic, chemical, 
# crystal, experimental, refinement or atomic coordinate data resulting 
# from the CCDC's data processing and validation procedures.
#
#######################################################################

data_DOTZUJ
_symmetry_cell_setting           triclinic
_symmetry_space_group_name_H-M   'P -1'
_symmetry_Int_Tables_number      2
_space_group_name_Hall           '-P 1'
loop_
_symmetry_equiv_pos_site_id
_symmetry_equiv_pos_as_xyz
1 x,y,z
2 -x,-y,-z
_cell_length_a                   8.6772(7)
_cell_length_b                   11.0715(8)
_cell_length_c                   11.6911(10)
_cell_angle_alpha                104.675(7)
_cell_angle_beta                 98.570(7)
_cell_angle_gamma                97.190(8)
_cell_volume                     1058.69
loop_
_atom_site_label
_atom_site_type_symbol
_atom_site_fract_x
_atom_site_fract_y
_atom_site_fract_z
Co1 Co 0.0000 0.5000 0.0000
O1 O -0.1047(10) 0.6029(8) 0.1067(7)
O2 O 0.1468(10) 0.4997(8) 0.1360(7)
N1 N 0.1279(13) 0.6509(10) -0.0106(9)
C1 C 0.0663(16) 0.7501(12) -0.0235(12)
H1 H -0.0427 0.7464 -0.0330
C2 C 0.1642(19) 0.8628(13) -0.0231(13)
H2 H 0.1189 0.9327 -0.0314
C3 C 0.3239(15) 0.8698(12) -0.0108(12)
C4 C 0.3828(17) 0.7627(12) -0.0020(12)
H3 H 0.4913 0.7643 0.0056
C5 C 0.2891(15) 0.6548(12) -0.0039(12)
H4 H 0.3330 0.5830 -0.0008
C6 C 0.4207(17) 0.9902(13) -0.0047(13)
H5 H 0.3690 1.0584 -0.0075
C7 C 0.1102(15) 0.5706(11) 0.2330(11)
C8 C -0.0269(16) 0.6247(12) 0.2182(10)
C9 C -0.0761(17) 0.7018(13) 0.3191(12)
C10 C 0.0190(17) 0.7186(13) 0.4299(13)
H6 H -0.0097 0.7686 0.4974
C11 C 0.1582(17) 0.6643(12) 0.4472(13)
C12 C 0.2026(16) 0.5917(12) 0.3478(12)
H7 H 0.2940 0.5564 0.3562
C13 C -0.2263(17) 0.7564(14) 0.3040(13)
C14 C -0.256(2) 0.8342(17) 0.4263(14)
H8 H -0.2738 0.7791 0.4764
H9 H -0.3480 0.8728 0.4129
H10 H -0.1661 0.8988 0.4653
C15 C -0.213(2) 0.8458(15) 0.2224(14)
H11 H -0.1299 0.9163 0.2610
H12 H -0.3116 0.8761 0.2087
H13 H -0.1909 0.8005 0.1469
C16 C -0.3658(18) 0.6561(16) 0.2496(15)
H14 H -0.3490 0.6037 0.1749
H15 H -0.4576 0.6941 0.2349
H16 H -0.3815 0.6051 0.3036
C17 C 0.2501(17) 0.6915(13) 0.5753(13)
C18 C 0.313(3) 0.8291(15) 0.6280(15)
H17 H 0.3793 0.8577 0.5777
H18 H 0.3746 0.8429 0.7071
H19 H 0.2271 0.8755 0.6332
C19 C 0.147(2) 0.648(2) 0.6549(15)
H20 H 0.0754 0.7067 0.6743
H21 H 0.2116 0.6446 0.7276
H22 H 0.0871 0.5655 0.6134
C20 C 0.3901(19) 0.6176(17) 0.5759(15)
H23 H 0.3503 0.5283 0.5466
H24 H 0.4488 0.6368 0.6565
H25 H 0.4580 0.6419 0.5248
N1A N 0.8721(13) 1.3491(10) 0.0106(9)
C1A C 0.9337(16) 1.2499(12) 0.0235(12)
H1A H 1.0427 1.2536 0.0330
C2A C 0.8358(19) 1.1372(13) 0.0231(13)
H2A H 0.8811 1.0673 0.0314
C3A C 0.6761(15) 1.1302(12) 0.0108(12)
C4A C 0.6172(17) 1.2373(12) 0.0020(12)
H3A H 0.5087 1.2357 -0.0056
C5A C 0.7109(15) 1.3452(12) 0.0039(12)
H4A H 0.6670 1.4170 0.0008
C6A C 0.5793(17) 1.0098(13) 0.0047(13)
H5A H 0.6310 0.9416 0.0075
O1A O 0.1047(10) 0.3971(8) -0.1067(7)
O2A O -0.1468(10) 0.5003(8) -0.1360(7)
C7A C -0.1102(15) 0.4294(11) -0.2330(11)
C8A C 0.0269(16) 0.3753(12) -0.2182(10)
C9A C 0.0761(17) 0.2982(13) -0.3191(12)
C10A C -0.0190(17) 0.2814(13) -0.4299(13)
H6A H 0.0097 0.2314 -0.4974
C11A C -0.1582(17) 0.3357(12) -0.4472(13)
C12A C -0.2026(16) 0.4083(12) -0.3478(12)
H7A H -0.2940 0.4436 -0.3562
C13A C 0.2263(17) 0.2436(14) -0.3040(13)
C14A C 0.256(2) 0.1658(17) -0.4263(14)
H8A H 0.2738 0.2209 -0.4764
H9A H 0.3480 0.1272 -0.4129
H10A H 0.1661 0.1012 -0.4653
C15A C 0.213(2) 0.1542(15) -0.2224(14)
H11A H 0.1299 0.0837 -0.2610
H12A H 0.3116 0.1239 -0.2087
H13A H 0.1909 0.1995 -0.1469
C16A C 0.3658(18) 0.3439(16) -0.2496(15)
H14A H 0.3490 0.3963 -0.1749
H15A H 0.4576 0.3059 -0.2349
H16A H 0.3815 0.3949 -0.3036
C17A C -0.2501(17) 0.3085(13) -0.5753(13)
C18A C -0.313(3) 0.1709(15) -0.6280(15)
H17A H -0.3793 0.1423 -0.5777
H18A H -0.3746 0.1571 -0.7071
H19A H -0.2271 0.1245 -0.6332
C19A C -0.147(2) 0.352(2) -0.6549(15)
H20A H -0.0754 0.2933 -0.6743
H21A H -0.2116 0.3554 -0.7276
H22A H -0.0871 0.4345 -0.6134
C20A C -0.3901(19) 0.3824(17) -0.5759(15)
H23A H -0.3503 0.4717 -0.5466
H24A H -0.4488 0.3632 -0.6565
H25A H -0.4580 0.3581 -0.5248
Co1_2 Co 1.0000 1.5000 0.0000
N1A_2 N -0.1279(13) 0.3491(10) 0.0106(9)
loop_
_geom_bond_atom_site_label_1
_geom_bond_atom_site_label_2
_geom_bond_site_symmetry_1
_geom_bond_site_symmetry_2
Co1 O1 1_555 1_555
O1 C8 1_555 1_555
O2 Co1 1_555 1_555
N1 Co1 1_555 1_555
C1 N1 1_555 1_555
H1 C1 1_555 1_555
C2 C1 1_555 1_555
H2 C2 1_555 1_555
C3 C2 1_555 1_555
C4 C3 1_555 1_555
H3 C4 1_555 1_555
C5 N1 1_555 1_555
H4 C5 1_555 1_555
C6 C3 1_555 1_555
H5 C6 1_555 1_555
C7 O2 1_555 1_555
C8 C7 1_555 1_555
C9 C8 1_555 1_555
C10 C9 1_555 1_555
H6 C10 1_555 1_555
C11 C10 1_555 1_555
C12 C7 1_555 1_555
H7 C12 1_555 1_555
C13 C9 1_555 1_555
C14 C13 1_555 1_555
H8 C14 1_555 1_555
H9 C14 1_555 1_555
H10 C14 1_555 1_555
C15 C13 1_555 1_555
H11 C15 1_555 1_555
H12 C15 1_555 1_555
H13 C15 1_555 1_555
C16 C13 1_555 1_555
H14 C16 1_555 1_555
H15 C16 1_555 1_555
H16 C16 1_555 1_555
C17 C11 1_555 1_555
C18 C17 1_555 1_555
H17 C18 1_555 1_555
H18 C18 1_555 1_555
H19 C18 1_555 1_555
C19 C17 1_555 1_555
H20 C19 1_555 1_555
H21 C19 1_555 1_555
H22 C19 1_555 1_555
C20 C17 1_555 1_555
H23 C20 1_555 1_555
H24 C20 1_555 1_555
H25 C20 1_555 1_555
N1A C1A 1_555 1_555
C1A H1A 1_555 1_555
C2A C1A 1_555 1_555
H2A C2A 1_555 1_555
C3A C2A 1_555 1_555
C4A C3A 1_555 1_555
H3A C4A 1_555 1_555
C5A N1A 1_555 1_555
H4A C5A 1_555 1_555
C6A C6 1_555 1_555
H5A C6A 1_555 1_555
O1A Co1 1_555 1_555
O2A Co1 1_555 1_555
C7A O2A 1_555 1_555
C8A O1A 1_555 1_555
C9A C8A 1_555 1_555
C10A C9A 1_555 1_555
H6A C10A 1_555 1_555
C11A C10A 1_555 1_555
C12A C7A 1_555 1_555
H7A C12A 1_555 1_555
C13A C9A 1_555 1_555
C14A C13A 1_555 1_555
H8A C14A 1_555 1_555
H9A C14A 1_555 1_555
H10A C14A 1_555 1_555
C15A C13A 1_555 1_555
H11A C15A 1_555 1_555
H12A C15A 1_555 1_555
H13A C15A 1_555 1_555
C16A C13A 1_555 1_555
H14A C16A 1_555 1_555
H15A C16A 1_555 1_555
H16A C16A 1_555 1_555
C17A C11A 1_555 1_555
C18A C17A 1_555 1_555
H17A C18A 1_555 1_555
H18A C18A 1_555 1_555
H19A C18A 1_555 1_555
C19A C17A 1_555 1_555
H20A C19A 1_555 1_555
H21A C19A 1_555 1_555
H22A C19A 1_555 1_555
C20A C17A 1_555 1_555
H23A C20A 1_555 1_555
H24A C20A 1_555 1_555
H25A C20A 1_555 1_555
Co1_2 N1A 1_555 1_555
N1A_2 Co1 1_555 1_555
C4 C5 1_555 1_555
C11 C12 1_555 1_555
C3A C6A 1_555 1_555
C4A C5A 1_555 1_555
C7A C8A 1_555 1_555
C11A C12A 1_555 1_555

#END
