
#######################################################################
#
#                 Cambridge Crystallographic Data Centre
#                                CCDC 
#
#######################################################################
#
# If this CIF has been generated from an entry in the Cambridge 
# Structural Database, then it will include bibliographic, chemical, 
# crystal, experimental, refinement or atomic coordinate data resulting 
# from the CCDC's data processing and validation procedures.
#
#######################################################################

data_DOTZUJ01
_symmetry_cell_setting           triclinic
_symmetry_space_group_name_H-M   'P -1'
_symmetry_Int_Tables_number      2
_space_group_name_Hall           '-P 1'
loop_
_symmetry_equiv_pos_site_id
_symmetry_equiv_pos_as_xyz
1 x,y,z
2 -x,-y,-z
_cell_length_a                   8.7618(12)
_cell_length_b                   11.1934(8)
_cell_length_c                   11.7919(8)
_cell_angle_alpha                104.578(6)
_cell_angle_beta                 98.186(9)
_cell_angle_gamma                97.789(8)
_cell_volume                     1089.98
loop_
_atom_site_label
_atom_site_type_symbol
_atom_site_fract_x
_atom_site_fract_y
_atom_site_fract_z
Co1 Co 1.0000 0.5000 1.0000
O1 O 1.1135(14) 0.3903(9) 0.8865(9)
O2 O 0.8398(15) 0.4997(9) 0.8527(10)
N1 N 0.853(2) 0.3396(12) 1.0161(11)
C1 C 0.7101(19) 0.3464(15) 1.0049(15)
H1 H 0.6711 0.4180 0.9981
C2 C 0.618(2) 0.2373(15) 1.0039(16)
H2 H 0.5108 0.2349 0.9976
C3 C 0.675(2) 0.1314(14) 1.0115(14)
C4 C 0.832(2) 0.1393(16) 1.0267(16)
H3 H 0.8762 0.0711 1.0375
C5 C 0.929(2) 0.2492(15) 1.0263(16)
H4 H 1.0369 0.2570 1.0328
C6 C 0.579(2) 0.0095(16) 1.0073(17)
H5 H 0.6302 -0.0565 1.0150
C7 C 0.8883(18) 0.4284(12) 0.7683(12)
C8 C 1.0284(17) 0.3750(12) 0.7832(12)
C9 C 1.074(2) 0.2961(14) 0.6811(15)
C10 C 0.979(2) 0.2809(16) 0.5738(14)
H6 H 1.0060 0.2305 0.5066
C11 C 0.842(2) 0.3353(13) 0.5557(14)
C12 C 0.798(2) 0.4076(15) 0.6536(15)
H7 H 0.7085 0.4430 0.6444
C13 C 1.220(2) 0.2421(17) 0.6962(14)
C14 C 1.252(3) 0.166(2) 0.5717(19)
H8 H 1.1559 0.1410 0.5143
H9 H 1.2917 0.0919 0.5806
H10 H 1.3274 0.2171 0.5447
C15 C 1.362(3) 0.343(2) 0.7514(19)
H11 H 1.3740 0.3976 0.7013
H12 H 1.4532 0.3045 0.7595
H13 H 1.3494 0.3899 0.8286
C16 C 1.202(3) 0.153(2) 0.775(2)
H14 H 1.2522 0.1963 0.8557
H15 H 1.2507 0.0821 0.7464
H16 H 1.0931 0.1247 0.7726
C17 C 0.748(3) 0.3098(15) 0.4279(15)
C18 C 0.617(3) 0.384(3) 0.426(2)
H17 H 0.5480 0.3623 0.4772
H18 H 0.5593 0.3646 0.3463
H19 H 0.6596 0.4720 0.4541
C19 C 0.687(4) 0.1741(19) 0.376(2)
H20 H 0.7731 0.1294 0.3702
H21 H 0.6262 0.1602 0.2979
H22 H 0.6224 0.1446 0.4260
C20 C 0.853(3) 0.351(3) 0.350(2)
H23 H 0.9088 0.4350 0.3893
H24 H 0.7910 0.3503 0.2758
H25 H 0.9266 0.2957 0.3355
N1A N 0.147(2) -0.3396(12) 0.9839(11)
C1A C 0.2899(19) -0.3464(15) 0.9951(15)
H1A H 0.3289 -0.4180 1.0019
C2A C 0.382(2) -0.2373(15) 0.9961(16)
H2A H 0.4892 -0.2349 1.0024
C3A C 0.325(2) -0.1314(14) 0.9885(14)
C4A C 0.168(2) -0.1393(16) 0.9733(16)
H3A H 0.1238 -0.0711 0.9625
C5A C 0.071(2) -0.2492(15) 0.9737(16)
H4A H -0.0369 -0.2570 0.9672
C6A C 0.421(2) -0.0095(16) 0.9927(17)
H5A H 0.3698 0.0565 0.9850
O1A O 0.8865(14) 0.6097(9) 1.1135(9)
O2A O 1.1602(15) 0.5003(9) 1.1473(10)
C7A C 1.1117(18) 0.5716(12) 1.2317(12)
C8A C 0.9716(17) 0.6250(12) 1.2168(12)
C9A C 0.926(2) 0.7039(14) 1.3189(15)
C10A C 1.021(2) 0.7191(16) 1.4262(14)
H6A H 0.9940 0.7695 1.4934
C11A C 1.158(2) 0.6647(13) 1.4443(14)
C12A C 1.202(2) 0.5924(15) 1.3464(15)
H7A H 1.2915 0.5570 1.3556
C13A C 0.780(2) 0.7579(17) 1.3038(14)
C14A C 0.748(3) 0.834(2) 1.4283(19)
H8A H 0.8441 0.8590 1.4857
H9A H 0.7083 0.9081 1.4194
H10A H 0.6726 0.7829 1.4553
C15A C 0.638(3) 0.657(2) 1.2486(19)
H11A H 0.6260 0.6024 1.2987
H12A H 0.5468 0.6955 1.2405
H13A H 0.6506 0.6101 1.1714
C16A C 0.798(3) 0.847(2) 1.225(2)
H14A H 0.7478 0.8037 1.1443
H15A H 0.7493 0.9179 1.2536
H16A H 0.9069 0.8753 1.2274
C17A C 1.252(3) 0.6902(15) 1.5721(15)
C18A C 1.383(3) 0.616(3) 1.574(2)
H17A H 1.4520 0.6377 1.5228
H18A H 1.4407 0.6354 1.6537
H19A H 1.3404 0.5280 1.5459
C19A C 1.313(4) 0.8259(19) 1.624(2)
H20A H 1.2269 0.8706 1.6298
H21A H 1.3738 0.8398 1.7021
H22A H 1.3776 0.8554 1.5740
C20A C 1.147(3) 0.649(3) 1.650(2)
H23A H 1.0912 0.5650 1.6107
H24A H 1.2090 0.6497 1.7242
H25A H 1.0734 0.7043 1.6645
Co1_2 Co 0.0000 -0.5000 1.0000
N1A_2 N 1.147(2) 0.6604(12) 0.9839(11)
loop_
_geom_bond_atom_site_label_1
_geom_bond_atom_site_label_2
_geom_bond_site_symmetry_1
_geom_bond_site_symmetry_2
Co1 O1 1_555 1_555
O1 C8 1_555 1_555
O2 Co1 1_555 1_555
N1 Co1 1_555 1_555
C1 N1 1_555 1_555
H1 C1 1_555 1_555
C2 C1 1_555 1_555
H2 C2 1_555 1_555
C3 C2 1_555 1_555
C4 C3 1_555 1_555
H3 C4 1_555 1_555
C5 N1 1_555 1_555
H4 C5 1_555 1_555
C6 C3 1_555 1_555
H5 C6 1_555 1_555
C7 O2 1_555 1_555
C8 C7 1_555 1_555
C9 C8 1_555 1_555
C10 C9 1_555 1_555
H6 C10 1_555 1_555
C11 C10 1_555 1_555
C12 C7 1_555 1_555
H7 C12 1_555 1_555
C13 C9 1_555 1_555
C14 C13 1_555 1_555
H8 C14 1_555 1_555
H9 C14 1_555 1_555
H10 C14 1_555 1_555
C15 C13 1_555 1_555
H11 C15 1_555 1_555
H12 C15 1_555 1_555
H13 C15 1_555 1_555
C16 C13 1_555 1_555
H14 C16 1_555 1_555
H15 C16 1_555 1_555
H16 C16 1_555 1_555
C17 C11 1_555 1_555
C18 C17 1_555 1_555
H17 C18 1_555 1_555
H18 C18 1_555 1_555
H19 C18 1_555 1_555
C19 C17 1_555 1_555
H20 C19 1_555 1_555
H21 C19 1_555 1_555
H22 C19 1_555 1_555
C20 C17 1_555 1_555
H23 C20 1_555 1_555
H24 C20 1_555 1_555
H25 C20 1_555 1_555
N1A C1A 1_555 1_555
C1A H1A 1_555 1_555
C2A C1A 1_555 1_555
H2A C2A 1_555 1_555
C3A C2A 1_555 1_555
C4A C3A 1_555 1_555
H3A C4A 1_555 1_555
C5A N1A 1_555 1_555
H4A C5A 1_555 1_555
C6A C6 1_555 1_555
H5A C6A 1_555 1_555
O1A Co1 1_555 1_555
O2A Co1 1_555 1_555
C7A O2A 1_555 1_555
C8A O1A 1_555 1_555
C9A C8A 1_555 1_555
C10A C9A 1_555 1_555
H6A C10A 1_555 1_555
C11A C10A 1_555 1_555
C12A C7A 1_555 1_555
H7A C12A 1_555 1_555
C13A C9A 1_555 1_555
C14A C13A 1_555 1_555
H8A C14A 1_555 1_555
H9A C14A 1_555 1_555
H10A C14A 1_555 1_555
C15A C13A 1_555 1_555
H11A C15A 1_555 1_555
H12A C15A 1_555 1_555
H13A C15A 1_555 1_555
C16A C13A 1_555 1_555
H14A C16A 1_555 1_555
H15A C16A 1_555 1_555
H16A C16A 1_555 1_555
C17A C11A 1_555 1_555
C18A C17A 1_555 1_555
H17A C18A 1_555 1_555
H18A C18A 1_555 1_555
H19A C18A 1_555 1_555
C19A C17A 1_555 1_555
H20A C19A 1_555 1_555
H21A C19A 1_555 1_555
H22A C19A 1_555 1_555
C20A C17A 1_555 1_555
H23A C20A 1_555 1_555
H24A C20A 1_555 1_555
H25A C20A 1_555 1_555
Co1_2 N1A 1_555 1_555
N1A_2 Co1 1_555 1_555
C4 C5 1_555 1_555
C11 C12 1_555 1_555
C3A C6A 1_555 1_555
C4A C5A 1_555 1_555
C7A C8A 1_555 1_555
C11A C12A 1_555 1_555

#END
