
#######################################################################
#
#                 Cambridge Crystallographic Data Centre
#                                CCDC 
#
#######################################################################
#
# If this CIF has been generated from an entry in the Cambridge 
# Structural Database, then it will include bibliographic, chemical, 
# crystal, experimental, refinement or atomic coordinate data resulting 
# from the CCDC's data processing and validation procedures.
#
#######################################################################

data_DOVHEB
_symmetry_cell_setting           triclinic
_symmetry_space_group_name_H-M   'P -1'
_symmetry_Int_Tables_number      2
_space_group_name_Hall           '-P 1'
loop_
_symmetry_equiv_pos_site_id
_symmetry_equiv_pos_as_xyz
1 x,y,z
2 -x,-y,-z
_cell_length_a                   8.335(2)
_cell_length_b                   11.173(2)
_cell_length_c                   13.049(3)
_cell_angle_alpha                87.36(3)
_cell_angle_beta                 83.12(3)
_cell_angle_gamma                83.49(3)
_cell_volume                     1198.03
loop_
_atom_site_label
_atom_site_type_symbol
_atom_site_fract_x
_atom_site_fract_y
_atom_site_fract_z
Zn1 Zn -0.04760(6) -0.19010(5) 0.28474(4)
N1 N 0.0876(4) -0.2534(3) 0.3964(3)
N2 N 0.2121(4) -0.3676(4) 0.5096(3)
N3 N -0.2487(4) -0.2561(3) 0.2496(2)
N4 N -0.4132(4) -0.3695(3) 0.1898(3)
N5 N 0.0568(4) -0.0571(3) 0.2029(3)
N6 N 0.1938(4) 0.0457(3) 0.0814(3)
C1 C 0.1288(5) -0.3647(4) 0.4280(3)
H1 H 0.1033(5) -0.4328(4) 0.3976(3)
C2 C 0.1504(6) -0.1830(5) 0.4608(4)
H2 H 0.1414(6) -0.0993(5) 0.4570(4)
C3 C 0.2272(7) -0.2525(5) 0.5306(4)
H3 H 0.2802(7) -0.2265(5) 0.5829(4)
C4 C 0.2776(6) -0.4764(5) 0.5655(4)
H4 H 0.2369(6) -0.5463(5) 0.5406(4)
H5 H 0.2388(6) -0.4703(5) 0.6384(4)
C5 C 0.4611(7) -0.4946(6) 0.5527(4)
H6 H 0.5003(7) -0.4272(6) 0.5828(4)
H7 H 0.4956(7) -0.5668(6) 0.5919(4)
C6 C -0.2583(5) -0.3542(4) 0.1983(3)
H8 H -0.1691(5) -0.4058(4) 0.1716(3)
C7 C -0.4076(5) -0.2071(4) 0.2753(3)
H9 H -0.4401(5) -0.1374(4) 0.3121(3)
C8 C -0.5079(5) -0.2774(4) 0.2381(3)
H10 H -0.6208(5) -0.2648(4) 0.2444(3)
C9 C -0.4690(6) -0.4699(4) 0.1396(3)
H11 H -0.5787(6) -0.4813(4) 0.1695(3)
H12 H -0.3995(6) -0.5433(4) 0.1527(3)
C10 C -0.4670(6) -0.4478(4) 0.0244(3)
H13 H -0.3567(6) -0.4402(4) -0.0064(3)
H14 H -0.5332(6) -0.3729(4) 0.0108(3)
C11 C 0.1211(5) -0.0543(4) 0.1051(3)
H15 H 0.1163(5) -0.1142(4) 0.0587(3)
C12 C 0.0909(6) 0.0479(4) 0.2424(4)
H16 H 0.0594(6) 0.0720(4) 0.3097(4)
C13 C 0.1774(6) 0.1109(4) 0.1682(4)
H17 H 0.2175(6) 0.1841(4) 0.1753(4)
C14 C 0.2837(5) 0.0758(5) -0.0194(4)
H18 H 0.2487(5) 0.1581(5) -0.0403(4)
H19 H 0.2595(5) 0.0230(5) -0.0712(4)
C15 C 0.4667(6) 0.0617(5) -0.0127(4)
H20 H 0.5218(6) 0.0874(5) -0.0785(4)
H21 H 0.4894(6) 0.1147(5) 0.0393(4)
O7 O -0.1834(4) -0.0575(3) 0.3842(2)
O8 O 0.1080(3) -0.3279(3) 0.1756(2)
C5A C 0.5389(7) -0.5054(6) 0.4473(4)
C10A C -0.5330(6) -0.5522(4) -0.0244(3)
C15A C 0.5333(6) -0.0617(5) 0.0127(4)
C4A C 0.7224(6) -0.5236(5) 0.4345(4)
H6A H 0.4997(7) -0.5728(6) 0.4172(4)
H7A H 0.5044(7) -0.4332(6) 0.4081(4)
C9A C -0.5310(6) -0.5301(4) -0.1396(3)
H13A H -0.6433(6) -0.5598(4) 0.0064(3)
H14A H -0.4668(6) -0.6271(4) -0.0108(3)
C14A C 0.7163(5) -0.0758(5) 0.0194(4)
H20A H 0.4782(6) -0.0874(5) 0.0785(4)
H21A H 0.5106(6) -0.1147(5) -0.0393(4)
N2A N 0.7879(4) -0.6324(4) 0.4904(3)
H4A H 0.7631(6) -0.4537(5) 0.4594(4)
H5A H 0.7612(6) -0.5297(5) 0.3616(4)
N4A N -0.5868(4) -0.6305(3) -0.1898(3)
H11A H -0.4213(6) -0.5187(4) -0.1695(3)
H12A H -0.6005(6) -0.4567(4) -0.1527(3)
N6A N 0.8062(4) -0.0457(3) -0.0814(3)
H18A H 0.7513(5) -0.1581(5) 0.0403(4)
H19A H 0.7405(5) -0.0230(5) 0.0712(4)
C1A C 0.8712(5) -0.6353(4) 0.5720(3)
C3A C 0.7728(7) -0.7475(5) 0.4694(4)
C6A C -0.7417(5) -0.6458(4) -0.1983(3)
C8A C -0.4921(5) -0.7226(4) -0.2381(3)
C11A C 0.8789(5) 0.0543(4) -0.1051(3)
C13A C 0.8226(6) -0.1109(4) -0.1682(4)
N1A N 0.9124(4) -0.7466(3) 0.6036(3)
H1A H 0.8967(5) -0.5672(4) 0.6024(3)
C2A C 0.8496(6) -0.8170(5) 0.5392(4)
H3A H 0.7198(7) -0.7735(5) 0.4171(4)
N3A N -0.7513(4) -0.7439(3) -0.2496(2)
H8A H -0.8309(5) -0.5942(4) -0.1716(3)
C7A C -0.5924(5) -0.7929(4) -0.2753(3)
H10A H -0.3792(5) -0.7352(4) -0.2444(3)
N5A N 0.9432(4) 0.0571(3) -0.2029(3)
H15A H 0.8837(5) 0.1142(4) -0.0587(3)
C12A C 0.9091(6) -0.0479(4) -0.2424(4)
H17A H 0.7825(6) -0.1841(4) -0.1753(4)
Zn1A Zn 1.04760(6) -0.80990(5) 0.71526(4)
H2A H 0.8586(6) -0.9007(5) 0.5430(4)
Zn1A_2 Zn -0.95240(6) -0.80990(5) -0.28474(4)
H9A H -0.5599(5) -0.8626(4) -0.3121(3)
Zn1A_3 Zn 1.04760(6) 0.19010(5) -0.28474(4)
H16A H 0.9406(6) -0.0720(4) -0.3097(4)
N1A_2 N -1.0876(4) -0.7466(3) -0.3964(3)
N5A_2 N -1.0568(4) -0.9429(3) -0.2029(3)
O7A O -0.8166(4) -0.9425(3) -0.3842(2)
O8A O -1.1080(3) -0.6721(3) -0.1756(2)
O1 O 0.2072(8) -0.2454(6) 0.9308(5)
O2 O 0.0119(11) -0.3490(6) 0.9660(4)
O3 O 0.1288(5) -0.3380(4) 0.8130(3)
N7 N 0.1108(8) -0.3144(5) 0.9045(5)
O4 O -0.2047(8) -0.2705(6) 0.5582(6)
O5 O -0.3806(7) -0.1164(6) 0.5701(4)
O6 O -0.3853(6) -0.2598(4) 0.6865(4)
N8 N -0.3230(7) -0.2144(6) 0.6032(5)
O9 O 0.8654(6) -0.4392(3) 0.7529(4)
O10 O 0.3335(5) -0.1025(4) 0.7467(3)
loop_
_geom_bond_atom_site_label_1
_geom_bond_atom_site_label_2
_geom_bond_site_symmetry_1
_geom_bond_site_symmetry_2
Zn1 N1 1_555 1_555
O1 N7 1_555 1_555
O2 N7 1_555 1_555
O3 N7 1_555 1_555
O4 N8 1_555 1_555
O5 N8 1_555 1_555
O6 N8 1_555 1_555
N1 C1 1_555 1_555
N2 C1 1_555 1_555
N3 Zn1 1_555 1_555
N4 C6 1_555 1_555
N5 Zn1 1_555 1_555
N6 C11 1_555 1_555
C1 H1 1_555 1_555
C2 N1 1_555 1_555
H2 C2 1_555 1_555
C3 N2 1_555 1_555
H3 C3 1_555 1_555
C4 N2 1_555 1_555
H4 C4 1_555 1_555
H5 C4 1_555 1_555
C5 C4 1_555 1_555
H6 C5 1_555 1_555
H7 C5 1_555 1_555
C6 N3 1_555 1_555
H8 C6 1_555 1_555
C7 N3 1_555 1_555
H9 C7 1_555 1_555
C8 N4 1_555 1_555
H10 C8 1_555 1_555
C9 N4 1_555 1_555
H11 C9 1_555 1_555
H12 C9 1_555 1_555
C10 C9 1_555 1_555
H13 C10 1_555 1_555
H14 C10 1_555 1_555
C11 N5 1_555 1_555
H15 C11 1_555 1_555
C12 N5 1_555 1_555
H16 C12 1_555 1_555
C13 N6 1_555 1_555
H17 C13 1_555 1_555
C14 N6 1_555 1_555
H18 C14 1_555 1_555
H19 C14 1_555 1_555
C15 C14 1_555 1_555
H20 C15 1_555 1_555
H21 C15 1_555 1_555
O7 Zn1 1_555 1_555
O8 Zn1 1_555 1_555
C5A C5 1_555 1_555
C10A C10 1_555 1_555
C15A C15 1_555 1_555
C4A C5A 1_555 1_555
H6A C5A 1_555 1_555
H7A C5A 1_555 1_555
C9A C10A 1_555 1_555
H13A C10A 1_555 1_555
H14A C10A 1_555 1_555
C14A C15A 1_555 1_555
H20A C15A 1_555 1_555
H21A C15A 1_555 1_555
N2A C4A 1_555 1_555
H4A C4A 1_555 1_555
H5A C4A 1_555 1_555
N4A C9A 1_555 1_555
H11A C9A 1_555 1_555
H12A C9A 1_555 1_555
N6A C14A 1_555 1_555
H18A C14A 1_555 1_555
H19A C14A 1_555 1_555
C1A N2A 1_555 1_555
C3A N2A 1_555 1_555
C6A N4A 1_555 1_555
C8A N4A 1_555 1_555
C11A N6A 1_555 1_555
C13A N6A 1_555 1_555
N1A C1A 1_555 1_555
H1A C1A 1_555 1_555
C2A C3A 1_555 1_555
H3A C3A 1_555 1_555
N3A C6A 1_555 1_555
H8A C6A 1_555 1_555
C7A C8A 1_555 1_555
H10A C8A 1_555 1_555
N5A C11A 1_555 1_555
H15A C11A 1_555 1_555
C12A C13A 1_555 1_555
H17A C13A 1_555 1_555
Zn1A N1A 1_555 1_555
H2A C2A 1_555 1_555
Zn1A_2 N3A 1_555 1_555
H9A C7A 1_555 1_555
Zn1A_3 N5A 1_555 1_555
H16A C12A 1_555 1_555
N1A_2 Zn1A_2 1_555 1_555
N5A_2 Zn1A_2 1_555 1_555
O7A Zn1A_2 1_555 1_555
O8A Zn1A_2 1_555 1_555
C2 C3 1_555 1_555
C7 C8 1_555 1_555
C12 C13 1_555 1_555
N1A C2A 1_555 1_555
N3A C7A 1_555 1_555
N5A C12A 1_555 1_555

#END
