
#######################################################################
#
#                 Cambridge Crystallographic Data Centre
#                                CCDC 
#
#######################################################################
#
# If this CIF has been generated from an entry in the Cambridge 
# Structural Database, then it will include bibliographic, chemical, 
# crystal, experimental, refinement or atomic coordinate data resulting 
# from the CCDC's data processing and validation procedures.
#
#######################################################################

data_DOVKAA
_symmetry_cell_setting           triclinic
_symmetry_space_group_name_H-M   'P -1'
_symmetry_Int_Tables_number      2
_space_group_name_Hall           '-P 1'
loop_
_symmetry_equiv_pos_site_id
_symmetry_equiv_pos_as_xyz
1 x,y,z
2 -x,-y,-z
_cell_length_a                   8.561(2)
_cell_length_b                   11.054(2)
_cell_length_c                   13.012(3)
_cell_angle_alpha                85.99(3)
_cell_angle_beta                 83.91(3)
_cell_angle_gamma                85.62(3)
_cell_volume                     1218.47
loop_
_atom_site_label
_atom_site_type_symbol
_atom_site_fract_x
_atom_site_fract_y
_atom_site_fract_z
Cd1 Cd 0.06271(5) -0.82653(4) 0.19662(3)
S1 S 0.1734(2) -1.13507(14) 0.15723(12)
O1 O 0.1766(6) -1.0237(4) 0.2122(4)
O2 O 0.2584(7) -1.1201(6) 0.0539(4)
O3 O 0.0083(6) -1.1572(4) 0.1447(4)
O4 O 0.2450(7) -1.2365(4) 0.2168(4)
N1 N -0.0687(6) -0.6500(5) 0.1431(4)
N2 N -0.2005(6) -0.5241(5) 0.0403(4)
N3 N -0.0655(6) -0.8531(5) 0.3571(4)
N4 N -0.2023(6) -0.9484(6) 0.4871(4)
N5 N 0.2855(6) -0.7525(4) 0.2419(4)
N6 N 0.4454(7) -0.6377(5) 0.3065(4)
C1 C -0.1290(8) -0.6365(6) 0.0543(5)
H1 H -0.1233(8) -0.6965(6) 0.0070(5)
C2 C -0.1013(8) -0.5413(6) 0.1887(5)
H2 H -0.0724(8) -0.5242(6) 0.2528(5)
C3 C -0.1824(8) -0.4625(6) 0.1251(6)
H3 H -0.2183(8) -0.3827(6) 0.1371(6)
C4 C -0.2811(8) -0.4798(8) -0.0504(5)
H4 H -0.2373(8) -0.5245(8) -0.1095(5)
H5 H -0.2633(8) -0.3946(8) -0.0665(5)
C5 C -0.4519(11) -0.4940(19) -0.0321(8)
H6 H -0.4940(11) -0.4238(19) -0.0719(8)
H7 H -0.4630(11) -0.5624(19) -0.0730(8)
C6 C -0.1352(8) -0.9544(6) 0.3904(5)
H8 H -0.1367(8) -1.0212(6) 0.3509(5)
C7 C -0.0942(9) -0.7773(7) 0.4393(5)
H9 H -0.0622(9) -0.6989(7) 0.4399(5)
C8 C -0.1770(9) -0.8385(8) 0.5181(5)
H10 H -0.2107(9) -0.8094(8) 0.5827(5)
C9 C -0.2946(9) -1.0429(8) 0.5446(6)
H11 H -0.2485(9) -1.1226(8) 0.5269(6)
H12 H -0.2919(9) -1.0367(8) 0.6184(6)
C10 C -0.4567(13) -1.0289(15) 0.5197(14)
H13 H -0.4648(13) -1.1055(15) 0.4892(14)
H14 H -0.5124(13) -1.0389(15) 0.5884(14)
C11 C 0.2958(8) -0.6556(6) 0.2952(5)
H15 H 0.2097(8) -0.6065(6) 0.3212(5)
C12 C 0.4396(8) -0.7979(7) 0.2198(5)
H16 H 0.4705(8) -0.8661(7) 0.1827(5)
C13 C 0.5385(8) -0.7291(7) 0.2598(5)
H17 H 0.6476(8) -0.7410(7) 0.2564(5)
C14 C 0.4994(12) -0.5379(8) 0.3588(6)
H18 H 0.4443(12) -0.4625(8) 0.3360(6)
H19 H 0.6108(12) -0.5314(8) 0.3380(6)
C15 C 0.4745(10) -0.5528(7) 0.4735(5)
H20 H 0.5326(10) -0.6267(7) 0.4966(5)
H21 H 0.3636(10) -0.5620(7) 0.4942(5)
O5 O -0.1489(6) -0.9265(4) 0.1383(4)
O6 O 0.1757(7) -0.8289(5) 0.0196(4)
C5A C -0.5481(11) -0.5060(19) 0.0321(8)
C10A C -0.5433(13) -0.9711(15) 0.4803(14)
C15A C 0.5255(10) -0.4472(7) 0.5265(5)
C4A C -0.7189(8) -0.5202(8) 0.0504(5)
H6A H -0.5060(11) -0.5762(19) 0.0719(8)
H7A H -0.5370(11) -0.4376(19) 0.0730(8)
C9A C -0.7054(9) -0.9571(8) 0.4554(6)
H13A H -0.5352(13) -0.8945(15) 0.5108(14)
H14A H -0.4876(13) -0.9611(15) 0.4116(14)
C14A C 0.5006(12) -0.4621(8) 0.6412(6)
H20A H 0.4674(10) -0.3733(7) 0.5034(5)
H21A H 0.6364(10) -0.4380(7) 0.5058(5)
N2A N -0.7995(6) -0.4759(5) -0.0403(4)
H4A H -0.7627(8) -0.4755(8) 0.1095(5)
H5A H -0.7367(8) -0.6054(8) 0.0665(5)
N4A N -0.7977(6) -1.0516(6) 0.5129(4)
H11A H -0.7515(9) -0.8774(8) 0.4731(6)
H12A H -0.7081(9) -0.9633(8) 0.3816(6)
N6A N 0.5546(7) -0.3623(5) 0.6935(4)
H18A H 0.5557(12) -0.5375(8) 0.6640(6)
H19A H 0.3892(12) -0.4686(8) 0.6620(6)
C1A C -0.8710(8) -0.3635(6) -0.0543(5)
C3A C -0.8176(8) -0.5375(6) -0.1251(6)
C6A C -0.8648(8) -1.0456(6) 0.6096(5)
C8A C -0.8230(9) -1.1615(8) 0.4819(5)
C11A C 0.7042(8) -0.3444(6) 0.7048(5)
C13A C 0.4615(8) -0.2709(7) 0.7402(5)
N1A N -0.9313(6) -0.3500(5) -0.1431(4)
H1A H -0.8767(8) -0.3035(6) -0.0070(5)
C2A C -0.8987(8) -0.4587(6) -0.1887(5)
H3A H -0.7817(8) -0.6173(6) -0.1371(6)
N3A N -0.9345(6) -1.1469(5) 0.6429(4)
H8A H -0.8633(8) -0.9788(6) 0.6491(5)
C7A C -0.9058(9) -1.2227(7) 0.5607(5)
H10A H -0.7893(9) -1.1906(8) 0.4173(5)
N5A N 0.7145(6) -0.2475(4) 0.7581(4)
H15A H 0.7903(8) -0.3935(6) 0.6788(5)
C12A C 0.5604(8) -0.2021(7) 0.7802(5)
H17A H 0.3524(8) -0.2590(7) 0.7436(5)
Cd1A Cd -1.06271(5) -0.17347(4) -0.19662(3)
H2A H -0.9276(8) -0.4758(6) -0.2528(5)
Cd1A_2 Cd -1.06271(5) -1.17347(4) 0.80338(3)
H9A H -0.9378(9) -1.3011(7) 0.5601(5)
Cd1A_3 Cd 0.93729(5) -0.17347(4) 0.80338(3)
H16A H 0.5295(8) -0.1339(7) 0.8173(5)
O1A O -1.1766(6) -0.9763(4) 0.7878(4)
N1A_2 N -0.9313(6) -1.3500(5) 0.8569(4)
N5A_2 N -1.2855(6) -1.2475(4) 0.7581(4)
O5A O -0.8511(6) -1.0735(4) 0.8617(4)
O6A O -1.1757(7) -1.1711(5) 0.9804(4)
S1A S -1.1734(2) -0.86493(14) 0.84277(12)
O2A O -1.2584(7) -0.8799(6) 0.9461(4)
O3A O -1.0083(6) -0.8428(4) 0.8553(4)
O4A O -1.2450(7) -0.7635(4) 0.7832(4)
O7 O 0.4405(13) -0.9461(11) -0.0396(10)
O8 O 0.0488(19) -0.4359(13) 0.3921(12)
O9 O -0.5634(10) -0.7907(9) -0.2257(7)
O10 O 0.1658(8) -0.7389(6) 0.6731(5)
loop_
_geom_bond_atom_site_label_1
_geom_bond_atom_site_label_2
_geom_bond_site_symmetry_1
_geom_bond_site_symmetry_2
Cd1 O1 1_555 1_555
S1 O1 1_555 1_555
O2 S1 1_555 1_555
O3 S1 1_555 1_555
O4 S1 1_555 1_555
N1 Cd1 1_555 1_555
N2 C1 1_555 1_555
N3 Cd1 1_555 1_555
N4 C6 1_555 1_555
N5 Cd1 1_555 1_555
N6 C11 1_555 1_555
C1 N1 1_555 1_555
H1 C1 1_555 1_555
C2 N1 1_555 1_555
H2 C2 1_555 1_555
C3 N2 1_555 1_555
H3 C3 1_555 1_555
C4 N2 1_555 1_555
H4 C4 1_555 1_555
H5 C4 1_555 1_555
C5 C4 1_555 1_555
H6 C5 1_555 1_555
H7 C5 1_555 1_555
C6 N3 1_555 1_555
H8 C6 1_555 1_555
C7 N3 1_555 1_555
H9 C7 1_555 1_555
C8 N4 1_555 1_555
H10 C8 1_555 1_555
C9 N4 1_555 1_555
H11 C9 1_555 1_555
H12 C9 1_555 1_555
C10 C9 1_555 1_555
H13 C10 1_555 1_555
H14 C10 1_555 1_555
C11 N5 1_555 1_555
H15 C11 1_555 1_555
C12 N5 1_555 1_555
H16 C12 1_555 1_555
C13 N6 1_555 1_555
H17 C13 1_555 1_555
C14 N6 1_555 1_555
H18 C14 1_555 1_555
H19 C14 1_555 1_555
C15 C14 1_555 1_555
H20 C15 1_555 1_555
H21 C15 1_555 1_555
O5 Cd1 1_555 1_555
O6 Cd1 1_555 1_555
C5A C5 1_555 1_555
C10A C10 1_555 1_555
C15A C15 1_555 1_555
C4A C5A 1_555 1_555
H6A C5A 1_555 1_555
H7A C5A 1_555 1_555
C9A C10A 1_555 1_555
H13A C10A 1_555 1_555
H14A C10A 1_555 1_555
C14A C15A 1_555 1_555
H20A C15A 1_555 1_555
H21A C15A 1_555 1_555
N2A C4A 1_555 1_555
H4A C4A 1_555 1_555
H5A C4A 1_555 1_555
N4A C9A 1_555 1_555
H11A C9A 1_555 1_555
H12A C9A 1_555 1_555
N6A C14A 1_555 1_555
H18A C14A 1_555 1_555
H19A C14A 1_555 1_555
C1A N2A 1_555 1_555
C3A N2A 1_555 1_555
C6A N4A 1_555 1_555
C8A N4A 1_555 1_555
C11A N6A 1_555 1_555
C13A N6A 1_555 1_555
N1A C1A 1_555 1_555
H1A C1A 1_555 1_555
C2A C3A 1_555 1_555
H3A C3A 1_555 1_555
N3A C6A 1_555 1_555
H8A C6A 1_555 1_555
C7A C8A 1_555 1_555
H10A C8A 1_555 1_555
N5A C11A 1_555 1_555
H15A C11A 1_555 1_555
C12A C13A 1_555 1_555
H17A C13A 1_555 1_555
Cd1A N1A 1_555 1_555
H2A C2A 1_555 1_555
Cd1A_2 N3A 1_555 1_555
H9A C7A 1_555 1_555
Cd1A_3 N5A 1_555 1_555
H16A C12A 1_555 1_555
O1A Cd1A_2 1_555 1_555
N1A_2 Cd1A_2 1_555 1_555
N5A_2 Cd1A_2 1_555 1_555
O5A Cd1A_2 1_555 1_555
O6A Cd1A_2 1_555 1_555
S1A O1A 1_555 1_555
O2A S1A 1_555 1_555
O3A S1A 1_555 1_555
O4A S1A 1_555 1_555
C2 C3 1_555 1_555
C7 C8 1_555 1_555
C12 C13 1_555 1_555
N1A C2A 1_555 1_555
N3A C7A 1_555 1_555
N5A C12A 1_555 1_555

#END
