
#######################################################################
#
#                 Cambridge Crystallographic Data Centre
#                                CCDC 
#
#######################################################################
#
# If this CIF has been generated from an entry in the Cambridge 
# Structural Database, then it will include bibliographic, chemical, 
# crystal, experimental, refinement or atomic coordinate data resulting 
# from the CCDC's data processing and validation procedures.
#
#######################################################################

data_DOVKOQ
_symmetry_cell_setting           monoclinic
_symmetry_space_group_name_H-M   'C 2/c'
_symmetry_Int_Tables_number      15
_space_group_name_Hall           '-C 2yn'
loop_
_symmetry_equiv_pos_site_id
_symmetry_equiv_pos_as_xyz
1 x,y,z
2 -x,y,1/2-z
3 1/2+x,1/2+y,z
4 1/2-x,1/2+y,1/2-z
5 -x,-y,-z
6 x,-y,1/2+z
7 1/2-x,1/2-y,-z
8 1/2+x,1/2-y,1/2+z
_cell_length_a                   23.529(3)
_cell_length_b                   19.2568(6)
_cell_length_c                   16.5702(19)
_cell_angle_alpha                90
_cell_angle_beta                 134.70(2)
_cell_angle_gamma                90
_cell_volume                     5336.57
loop_
_atom_site_label
_atom_site_type_symbol
_atom_site_fract_x
_atom_site_fract_y
_atom_site_fract_z
Cu1 Cu 0.70761(4) 0.01594(3) 0.59534(5)
O1 O 0.63924(17) -0.01775(13) 0.9281(2)
O2 O 0.79923(18) 0.17661(14) 0.5687(2)
O3 O 0.66333(16) 0.12574(12) 0.5829(2)
O4 O 0.78861(17) 0.07589(13) 0.6225(2)
O5 O 0.76133(19) 0.07372(14) 1.0738(3)
N1 N 0.6283(2) -0.03935(15) 0.5785(3)
N2 N 0.6772(2) 0.23093(15) 0.5358(3)
H1 H 0.7051 0.2553 0.5304
N3 N 0.7734(2) -0.00264(15) 0.7596(3)
O6 O 0.6082(2) 0.03976(16) 0.7842(3)
C1 C 0.6536(3) -0.06191(18) 0.6764(4)
C2 C 0.7368(3) -0.04291(19) 0.7790(4)
C3 C 0.6971(2) 0.16447(19) 0.5677(3)
C4 C 0.5538(3) -0.05328(19) 0.4809(4)
H2 H 0.5364 -0.0370 0.4138
N4 N 0.7330(2) 0.12319(17) 0.9235(3)
H3 H 0.7014 0.1193 0.8512
C5 C 0.6108(3) 0.26318(18) 0.5101(4)
C6 C 0.6039(3) -0.0999(2) 0.6769(4)
H4 H 0.6222 -0.1155 0.7449
C7 C 0.7675(2) 0.1376(2) 0.5868(3)
C8 C 0.7766(3) -0.0638(2) 0.8881(4)
H5 H 0.7508 -0.0911 0.9006
C9 C 0.8488(3) 0.0168(2) 0.8474(4)
H6 H 0.8737 0.0446 0.8338
C10 C 0.7215(3) 0.0778(2) 0.9725(4)
C11 C 0.6191(3) 0.2877(2) 0.5955(4)
C12 C 0.5011(3) -0.09098(19) 0.4755(4)
H7 H 0.4496 -0.1004 0.4061
C13 C 0.6495(3) 0.0294(2) 0.8858(4)
C14 C 0.7906(3) 0.1763(3) 0.9765(5)
C15 C 0.5268(3) -0.1141(2) 0.5750(4)
H8 H 0.4925 -0.1393 0.5739
C16 C 0.8917(3) -0.0025(2) 0.9581(4)
H9 H 0.9443 0.0119 1.0180
C17 C 0.5413(3) 0.2702(3) 0.3990(4)
H10 H 0.5383 0.2554 0.3428
C18 C 0.8541(3) -0.0437(3) 0.9769(4)
H11 H 0.8816 -0.0578 1.0503
C19 C 0.7806(3) 0.2296(2) 0.9122(4)
C20 C 0.8386(3) 0.2811(2) 0.9663(5)
C21 C 0.4758(4) 0.2989(3) 0.3696(5)
H12 H 0.4283 0.3037 0.2935
C22 C 0.4806(4) 0.3208(3) 0.4538(5)
H13 H 0.4357 0.3385 0.4350
C23 C 0.5516(4) 0.3161(3) 0.5643(5)
H14 H 0.5551 0.3323 0.6205
C24 C 0.6979(4) 0.2893(3) 0.7182(4)
H15 H 0.7411 0.2883 0.7223
H16 H 0.7020 0.3322 0.7526
C25 C 0.7065(4) 0.2294(3) 0.7829(5)
H17 H 0.7075 0.1871 0.7521
H18 H 0.6593 0.2275 0.7696
C26 C 0.9031(7) 0.2461(9) 1.1525(10)
H19 H 0.9383 0.2542 1.2301
C27 C 0.8500(9) 0.1897(7) 1.1015(13)
H20 H 0.8518 0.1595 1.1471
C28 C 0.9019(18) 0.2922(17) 1.080(3)
H21 H 0.9407 0.3259 1.1095
H22 H 0.828(3) 0.3135(16) 0.921(3)
Cu1E Cu 0.70761(4) -0.01594(3) 1.09534(5)
O1E O 0.63924(17) 0.01775(13) 0.4281(2)
O5E O 0.76133(19) -0.07372(14) 0.5738(3)
O7 O 0.5000 -0.1082(2) 0.7500
O8 O 0.9416(3) -0.0086(7) 0.7581(5)
C29? C 0.9247(15) 0.1836(12) 1.1014(19)
H23? H 0.9760 0.1676 1.1640
C30? C 0.8617(14) 0.1397(12) 1.049(2)
H24? H 0.8659 0.0920 1.0609
C31? C 0.9155(16) 0.2515(18) 1.065(2)
H25? H 0.9607 0.2792 1.1052
O9? O 0.9555(12) 0.0531(19) 0.7578(15)
C32? C 0.8573(18) 0.1672(16) 1.081(2)
H26? H 0.8682 0.1271 1.1214
C33? C 0.9077(17) 0.2177(17) 1.126(2)
H27? H 0.9580 0.2105 1.1988
C34? C 0.895(4) 0.274(4) 1.083(6)
H28? H 0.9249 0.3126 1.1282
loop_
_geom_bond_atom_site_label_1
_geom_bond_atom_site_label_2
_geom_bond_site_symmetry_1
_geom_bond_site_symmetry_2
Cu1 O3 1_555 1_555
O1 C13 1_555 1_555
O2 C7 1_555 1_555
O3 C3 1_555 1_555
O4 Cu1 1_555 1_555
O5 C10 1_555 1_555
N1 Cu1 1_555 1_555
N2 H1 1_555 1_555
N3 Cu1 1_555 1_555
O6 C13 1_555 1_555
C1 N1 1_555 1_555
C2 N3 1_555 1_555
C3 N2 1_555 1_555
C4 N1 1_555 1_555
H2 C4 1_555 1_555
N4 H3 1_555 1_555
C5 N2 1_555 1_555
C6 C1 1_555 1_555
H4 C6 1_555 1_555
C7 O4 1_555 1_555
C8 C2 1_555 1_555
H5 C8 1_555 1_555
C9 N3 1_555 1_555
H6 C9 1_555 1_555
C10 N4 1_555 1_555
C11 C5 1_555 1_555
C12 C4 1_555 1_555
H7 C12 1_555 1_555
C13 C10 1_555 1_555
C14 N4 1_555 1_555
C15 C6 1_555 1_555
H8 C15 1_555 1_555
C16 C9 1_555 1_555
H9 C16 1_555 1_555
C17 C5 1_555 1_555
H10 C17 1_555 1_555
C18 C8 1_555 1_555
H11 C18 1_555 1_555
C19 C14 1_555 1_555
C20 C19 1_555 1_555
C21 C17 1_555 1_555
H12 C21 1_555 1_555
C22 C21 1_555 1_555
H13 C22 1_555 1_555
C23 C11 1_555 1_555
H14 C23 1_555 1_555
C24 C11 1_555 1_555
H15 C24 1_555 1_555
H16 C24 1_555 1_555
C25 C19 1_555 1_555
H17 C25 1_555 1_555
H18 C25 1_555 1_555
C26 H19 1_555 1_555
C27 C14 1_555 1_555
H20 C27 1_555 1_555
C28 C20 1_555 1_555
H21 C28 1_555 1_555
H22 C20 1_555 1_555
Cu1E O1 1_555 1_555
O1E Cu1 1_555 1_555
O5E Cu1 1_555 1_555
O5 Cu1E 1_555 1_555
C1 C2 1_555 1_555
C3 C7 1_555 1_555
C12 C15 1_555 1_555
C16 C18 1_555 1_555
C22 C23 1_555 1_555
C24 C25 1_555 1_555
C26 C27 1_555 1_555
C26 C28 1_555 1_555

#END
