
#######################################################################
#
#                 Cambridge Crystallographic Data Centre
#                                CCDC 
#
#######################################################################
#
# If this CIF has been generated from an entry in the Cambridge 
# Structural Database, then it will include bibliographic, chemical, 
# crystal, experimental, refinement or atomic coordinate data resulting 
# from the CCDC's data processing and validation procedures.
#
#######################################################################

data_DOVKEG
_symmetry_cell_setting           monoclinic
_symmetry_space_group_name_H-M   'P 21/n'
_symmetry_Int_Tables_number      14
_space_group_name_Hall           '-P 2yn'
loop_
_symmetry_equiv_pos_site_id
_symmetry_equiv_pos_as_xyz
1 x,y,z
2 1/2-x,1/2+y,1/2-z
3 -x,-y,-z
4 1/2+x,1/2-y,1/2+z
_cell_length_a                   13.7575(6)
_cell_length_b                   15.2378(6)
_cell_length_c                   15.4772(7)
_cell_angle_alpha                90
_cell_angle_beta                 107.356(4)
_cell_angle_gamma                90
_cell_volume                     3096.82
loop_
_atom_site_label
_atom_site_type_symbol
_atom_site_fract_x
_atom_site_fract_y
_atom_site_fract_z
Cu1 Cu 0.58891(5) 0.31940(4) 0.19430(4)
O1 O 0.5032(2) 0.4061(2) 0.1106(2)
O2 O 0.8367(3) 0.3301(2) 0.6492(2)
O3 O 0.5745(2) 0.42840(18) 0.29211(18)
N1 N 0.9087(3) 0.3711(2) 0.5152(2)
H1 H 0.8513 0.3845 0.5231
O4 O 1.0462(2) 0.2808(2) 0.5737(2)
O5 O 0.4199(3) 0.5337(3) 0.0988(2)
O6 O 0.9669(2) 0.2403(2) 0.7119(2)
N2 N 0.6901(3) 0.2465(2) 0.2869(2)
N3 N 0.7156(3) 0.3492(2) 0.1615(2)
N4 N 0.4959(3) 0.5618(2) 0.2788(2)
H2 H 0.4607 0.5987 0.2399
C1 C 0.7994(3) 0.3031(3) 0.2068(3)
C2 C 0.8650(4) 0.2042(3) 0.3442(3)
H3 H 0.9312 0.2074 0.3406
C3 C 0.9295(3) 0.4127(3) 0.4408(3)
C4 C 0.8876(4) 0.3054(3) 0.1805(3)
H4 H 0.9452 0.2745 0.2131
C5 C 0.7112(3) 0.5860(3) 0.3877(3)
H5 H 0.7560 0.6366 0.4009
H6 H 0.6865 0.5791 0.3225
C6 C 0.7715(3) 0.5036(3) 0.4300(3)
H7 H 0.7250 0.4541 0.4185
H8 H 0.7964 0.5118 0.4950
C7 C 0.5218(3) 0.5866(3) 0.3728(3)
C8 C 0.8614(3) 0.4803(3) 0.3962(3)
C9 C 0.5606(5) 0.6477(4) 0.5481(4)
H9 H 0.5740 0.6686 0.6069
C10 C 0.7860(3) 0.2498(3) 0.2827(3)
C11 C 0.9178(3) 0.2936(3) 0.6516(3)
C12 C 0.4770(3) 0.4762(3) 0.1417(3)
C13 C 0.8040(4) 0.4008(4) 0.0609(3)
H10 H 0.8044 0.4351 0.0113
C14 C 0.8885(4) 0.3537(4) 0.1061(4)
H11 H 0.9461 0.3544 0.0864
C15 C 0.8433(4) 0.1545(3) 0.4103(3)
H12 H 0.8947 0.1237 0.4520
C16 C 0.6226(3) 0.6015(3) 0.4237(3)
C17 C 0.4425(4) 0.6019(3) 0.4091(4)
H13 H 0.3758 0.5919 0.3739
C18 C 0.9633(4) 0.4998(3) 0.2946(3)
H14 H 0.9742 0.5285 0.2453
C19 C 0.7181(4) 0.3972(3) 0.0896(3)
H15 H 0.6606 0.4289 0.0582
C20 C 0.5212(3) 0.4873(3) 0.2465(3)
C21 C 0.6389(4) 0.6326(3) 0.5120(3)
H16 H 0.7053 0.6435 0.5476
C22 C 0.9651(3) 0.3139(3) 0.5749(3)
C23 C 0.7448(4) 0.1508(3) 0.4138(3)
H17 H 0.7287 0.1166 0.4575
C24 C 0.6690(4) 0.1985(3) 0.3515(3)
H18 H 0.6026 0.1969 0.3549
C25 C 1.0127(4) 0.3911(3) 0.4123(3)
H19 H 1.0568 0.3469 0.4417
C26 C 0.8810(4) 0.5215(3) 0.3226(3)
H20 H 0.8368 0.5650 0.2917
C27 C 1.0305(4) 0.4350(3) 0.3398(3)
H21 H 1.0873 0.4212 0.3215
C28 C 0.4615(5) 0.6314(4) 0.4962(5)
H22 H 0.4080 0.6404 0.5202
Cu1C Cu 1.08891(5) 0.18060(4) 0.69430(4)
O4C O 0.5462(2) 0.2192(2) 0.0737(2)
O6C O 0.4669(2) 0.2597(2) 0.2119(2)
O7 O 0.3734(3) 0.7016(3) 0.1585(3)
H23 H 0.377(5) 0.667(4) 0.113(4)
H24 H 0.312(3) 0.692(5) 0.164(5)
O8 O 0.1863(4) 0.6711(7) 0.1795(4)
H25 H 0.137(4) 0.636(4) 0.146(4)
H26 H 0.163(5) 0.682(5) 0.227(3)
S1 S 0.2236(2) 0.40072(14) 0.14170(14)
O9 O 0.1273(3) 0.4356(3) 0.0736(3)
C29 C 0.2553(6) 0.4771(4) 0.2299(3)
H27 H 0.2849 0.5281 0.2113
H28 H 0.3034 0.4515 0.2820
H29 H 0.1950 0.4938 0.2449
C30 C 0.1834(5) 0.3118(4) 0.1962(5)
H30 H 0.1244 0.3288 0.2130
H31 H 0.2372 0.2959 0.2495
H32 H 0.1670 0.2626 0.1558
O11 O -0.0141(6) 0.4116(5) -0.0816(5)
H39 H 0.033(7) 0.420(7) -0.026(5)
H40 H -0.049(8) 0.465(5) -0.081(5)
S2? S 0.1919(8) 0.4123(6) 0.1329(5)
O10? O 0.1211(8) 0.4705(7) 0.1470(7)
C31? C 0.1489(10) 0.3015(9) 0.1248(9)
H33? H 0.1192 0.2897 0.1725
H34? H 0.2054 0.2627 0.1304
H35? H 0.0987 0.2924 0.0673
C32? C 0.2906(10) 0.3995(9) 0.2429(9)
H36? H 0.3229 0.4551 0.2617
H37? H 0.3406 0.3578 0.2370
H38? H 0.2598 0.3790 0.2872
loop_
_geom_bond_atom_site_label_1
_geom_bond_atom_site_label_2
_geom_bond_site_symmetry_1
_geom_bond_site_symmetry_2
Cu1 O1 1_555 1_555
O1 C12 1_555 1_555
O2 C11 1_555 1_555
O3 Cu1 1_555 1_555
N1 H1 1_555 1_555
O4 C22 1_555 1_555
O5 C12 1_555 1_555
O6 C11 1_555 1_555
N2 Cu1 1_555 1_555
N3 Cu1 1_555 1_555
N4 H2 1_555 1_555
C1 N3 1_555 1_555
C2 H3 1_555 1_555
C3 N1 1_555 1_555
C4 C1 1_555 1_555
H4 C4 1_555 1_555
C5 H5 1_555 1_555
H6 C5 1_555 1_555
C6 C5 1_555 1_555
H7 C6 1_555 1_555
H8 C6 1_555 1_555
C7 N4 1_555 1_555
C8 C3 1_555 1_555
C9 H9 1_555 1_555
C10 N2 1_555 1_555
C11 C22 1_555 1_555
C12 C20 1_555 1_555
C13 H10 1_555 1_555
C14 C4 1_555 1_555
H11 C14 1_555 1_555
C15 C2 1_555 1_555
H12 C15 1_555 1_555
C16 C5 1_555 1_555
C17 C7 1_555 1_555
H13 C17 1_555 1_555
C18 H14 1_555 1_555
C19 N3 1_555 1_555
H15 C19 1_555 1_555
C20 O3 1_555 1_555
C21 C9 1_555 1_555
H16 C21 1_555 1_555
C22 N1 1_555 1_555
C23 C15 1_555 1_555
H17 C23 1_555 1_555
C24 N2 1_555 1_555
H18 C24 1_555 1_555
C25 C3 1_555 1_555
H19 C25 1_555 1_555
C26 C8 1_555 1_555
H20 C26 1_555 1_555
C27 C18 1_555 1_555
H21 C27 1_555 1_555
C28 C9 1_555 1_555
H22 C28 1_555 1_555
O7 H23 1_555 1_555
H24 O7 1_555 1_555
O8 H25 1_555 1_555
H26 O8 1_555 1_555
S1 O9 1_555 1_555
C29 S1 1_555 1_555
H27 C29 1_555 1_555
H28 C29 1_555 1_555
H29 C29 1_555 1_555
C30 S1 1_555 1_555
H30 C30 1_555 1_555
H31 C30 1_555 1_555
H32 C30 1_555 1_555
O11 H39 1_555 1_555
H40 O11 1_555 1_555
Cu1C O4 1_555 1_555
O4C Cu1 1_555 1_555
O6C Cu1 1_555 1_555
O6 Cu1C 1_555 1_555
N4 C20 1_555 1_555
C1 C10 1_555 1_555
C2 C10 1_555 1_555
C6 C8 1_555 1_555
C7 C16 1_555 1_555
C13 C14 1_555 1_555
C13 C19 1_555 1_555
C16 C21 1_555 1_555
C17 C28 1_555 1_555
C18 C26 1_555 1_555
C23 C24 1_555 1_555
C25 C27 1_555 1_555

#END
