
#######################################################################
#
#                 Cambridge Crystallographic Data Centre
#                                CCDC 
#
#######################################################################
#
# If this CIF has been generated from an entry in the Cambridge 
# Structural Database, then it will include bibliographic, chemical, 
# crystal, experimental, refinement or atomic coordinate data resulting 
# from the CCDC's data processing and validation procedures.
#
#######################################################################

data_DOVNUY
_symmetry_cell_setting           monoclinic
_symmetry_space_group_name_H-M   'C 2/m'
_symmetry_Int_Tables_number      12
_space_group_name_Hall           '-C 2y'
loop_
_symmetry_equiv_pos_site_id
_symmetry_equiv_pos_as_xyz
1 x,y,z
2 -x,y,-z
3 1/2+x,1/2+y,z
4 1/2-x,1/2+y,-z
5 -x,-y,-z
6 x,-y,z
7 1/2-x,1/2-y,-z
8 1/2+x,1/2-y,z
_cell_length_a                   9.0555(11)
_cell_length_b                   8.3909(10)
_cell_length_c                   6.6969(8)
_cell_angle_alpha                90
_cell_angle_beta                 109.428(8)
_cell_angle_gamma                90
_cell_volume                     479.882
loop_
_atom_site_label
_atom_site_type_symbol
_atom_site_fract_x
_atom_site_fract_y
_atom_site_fract_z
Cu1 Cu 0.5000 0.0000 0.5000
Br1 Br 0.5000 -0.28355(7) 0.5000
N1 N 0.4960(4) 0.0000 0.2024(5)
C1 C 0.6307(6) 0.0000 0.1648(7)
H1 H 0.7235 0.0000 0.2792
C2 C 0.3612(6) 0.0000 0.0393(7)
C3 C 0.2093(6) 0.0000 0.0795(8)
H2 H 0.1248 0.0000 -0.0530
H3 H 0.2025 0.0934 0.1588
Cu1_2 Cu 0.5000 0.0000 -0.5000
Br1D Br 0.5000 0.28355(7) 0.5000
N1A N 0.5040(4) 0.0000 -0.2024(5)
N1A_2 N 0.5040(4) 0.0000 0.7976(5)
C1A C 0.3693(6) 0.0000 -0.1648(7)
H1A H 0.2765 0.0000 -0.2792
C2A C 0.6388(6) 0.0000 -0.0393(7)
C3A C 0.7907(6) 0.0000 -0.0795(8)
H2A H 0.8752 0.0000 0.0530
H3A H 0.7975 0.0934 -0.1588
H3D H 0.7975 -0.0934 -0.1588
H3E H 0.2025 -0.0934 0.1588
loop_
_geom_bond_atom_site_label_1
_geom_bond_atom_site_label_2
_geom_bond_site_symmetry_1
_geom_bond_site_symmetry_2
Cu1 Br1 1_555 1_555
N1 Cu1 1_555 1_555
C1 N1 1_555 1_555
H1 C1 1_555 1_555
C2 N1 1_555 1_555
C3 C2 1_555 1_555
H2 C3 1_555 1_555
H3 C3 1_555 1_555
Cu1_2 N1A 1_555 1_555
Br1D Cu1 1_555 1_555
N1A C1A 1_555 1_555
N1A_2 Cu1 1_555 1_555
C1A C2 1_555 1_555
H1A C1A 1_555 1_555
C2A C1 1_555 1_555
C3A C2A 1_555 1_555
H2A C3A 1_555 1_555
H3A C3A 1_555 1_555
H3D C3A 1_555 1_555
H3E C3 1_555 1_555
N1A C2A 1_555 1_555

#END
