
#######################################################################
#
#                 Cambridge Crystallographic Data Centre
#                                CCDC 
#
#######################################################################
#
# If this CIF has been generated from an entry in the Cambridge 
# Structural Database, then it will include bibliographic, chemical, 
# crystal, experimental, refinement or atomic coordinate data resulting 
# from the CCDC's data processing and validation procedures.
#
#######################################################################

data_DOVNIN
_symmetry_cell_setting           orthorhombic
_symmetry_space_group_name_H-M   'P b c a'
_symmetry_Int_Tables_number      61
_space_group_name_Hall           '-P 2ac 2ab'
loop_
_symmetry_equiv_pos_site_id
_symmetry_equiv_pos_as_xyz
1 x,y,z
2 1/2-x,-y,1/2+z
3 -x,1/2+y,1/2-z
4 1/2+x,1/2-y,-z
5 -x,-y,-z
6 1/2+x,y,1/2-z
7 x,1/2-y,1/2+z
8 1/2-x,1/2+y,z
_cell_length_a                   16.9667(9)
_cell_length_b                   8.4375(4)
_cell_length_c                   19.9676(9)
_cell_angle_alpha                90
_cell_angle_beta                 90
_cell_angle_gamma                90
_cell_volume                     2858.49
loop_
_atom_site_label
_atom_site_type_symbol
_atom_site_fract_x
_atom_site_fract_y
_atom_site_fract_z
Ni1 Ni 0.5000 1.0000 0.5000
Ni2 Ni 0.37306(4) 0.62170(6) 0.75825(2)
C1 C 0.5499(3) 0.6200(5) 0.47688(19)
C2 C 0.5252(2) 0.6165(5) 0.54403(19)
C3 C 0.4763(2) 0.4971(5) 0.56679(18)
C4 C 0.6084(3) 0.7403(5) 0.45254(18)
C5 C 0.5546(3) 0.7409(5) 0.59299(19)
C6 C 0.4498(3) 0.4895(5) 0.63856(19)
O1 O 0.58897(17) 0.8848(3) 0.45053(13)
O2 O 0.67476(19) 0.6895(3) 0.43604(14)
O3 O 0.53050(18) 0.8827(3) 0.58618(12)
O4 O 0.60000(19) 0.6967(3) 0.63832(13)
O5 O 0.42063(17) 0.6109(3) 0.66437(13)
O6 O 0.45770(18) 0.3581(3) 0.66853(13)
O7 O 0.58497(19) 1.1604(3) 0.52971(15)
H1 H 0.613(2) 1.218(4) 0.5090(17)
H2 H 0.607(2) 1.133(5) 0.5632(14)
O8 O 0.34868(18) 0.3783(3) 0.76070(14)
H3 H 0.360(3) 0.335(4) 0.7948(11)
H4 H 0.376(2) 0.345(5) 0.7313(13)
O9 O 0.47939(19) 0.5722(3) 0.80409(13)
H5 H 0.473(3) 0.517(4) 0.8359(14)
H6 H 0.500(3) 0.653(3) 0.8164(17)
O10 O 0.39305(18) 0.8615(3) 0.75891(14)
H7 H 0.4331(17) 0.904(5) 0.7702(19)
H8 H 0.379(2) 0.900(5) 0.7244(14)
O11 O 0.26898(19) 0.6742(4) 0.71072(15)
H9 H 0.246(2) 0.604(4) 0.6923(19)
H10 H 0.2370(19) 0.724(4) 0.7318(18)
O12 O 0.32351(19) 0.6479(3) 0.85140(14)
H11 H 0.308(2) 0.736(2) 0.858(2)
H12 H 0.293(2) 0.586(3) 0.867(2)
C1D C 0.4501(3) 0.3800(5) 0.52312(19)
C2D C 0.4748(2) 0.3835(5) 0.45597(19)
C3D C 0.5237(2) 0.5029(5) 0.43321(18)
C4D C 0.3916(3) 0.2597(5) 0.54746(18)
C5D C 0.4454(3) 0.2591(5) 0.40701(19)
C6D C 0.5502(3) 0.5105(5) 0.36144(19)
O1D O 0.41103(17) 0.1152(3) 0.54947(13)
O2D O 0.32524(19) 0.3105(3) 0.56396(14)
O3D O 0.46950(18) 0.1173(3) 0.41382(12)
O4D O 0.40000(19) 0.3033(3) 0.36168(13)
O5D O 0.57937(17) 0.3891(3) 0.33563(13)
O6D O 0.54230(18) 0.6419(3) 0.33147(13)
Ni2D Ni 0.62694(4) 0.37830(6) 0.24175(2)
O8D O 0.65132(18) 0.6217(3) 0.23930(14)
H3D H 0.640(3) 0.665(4) 0.2052(11)
H4D H 0.624(2) 0.655(5) 0.2687(13)
O9D O 0.52061(19) 0.4278(3) 0.19591(13)
H5D H 0.527(3) 0.483(4) 0.1641(14)
H6D H 0.500(3) 0.347(3) 0.1836(17)
O10D O 0.60695(18) 0.1385(3) 0.24109(14)
H7D H 0.5669(17) 0.096(5) 0.2298(19)
H8D H 0.621(2) 0.100(5) 0.2756(14)
O11D O 0.73102(19) 0.3258(4) 0.28928(15)
H9D H 0.754(2) 0.396(4) 0.3077(19)
H10D H 0.7630(19) 0.276(4) 0.2682(18)
O12D O 0.67649(19) 0.3521(3) 0.14860(14)
H11D H 0.692(2) 0.264(2) 0.142(2)
H12D H 0.707(2) 0.414(3) 0.133(2)
O7D O 0.41503(19) 0.8396(3) 0.47029(15)
H1D H 0.387(2) 0.782(4) 0.4910(17)
H2D H 0.393(2) 0.867(5) 0.4368(14)
Ni1_2 Ni 0.5000 0.0000 0.5000
O1D_2 O 0.41103(17) 1.1152(3) 0.54947(13)
O3D_2 O 0.46950(18) 1.1173(3) 0.41382(12)
O13 O 0.6768(2) 1.0380(4) 0.35646(14)
H13 H 0.652(2) 1.003(5) 0.3869(15)
H14 H 0.700(3) 1.115(4) 0.3680(19)
O14 O 0.7057(2) 0.4525(4) 0.61121(15)
H15 H 0.671(2) 0.513(5) 0.6201(18)
H16 H 0.705(3) 0.436(5) 0.5720(10)
O15 O 0.8009(2) 0.8718(4) 0.47764(15)
H17 H 0.802(3) 0.957(3) 0.460(2)
H18 H 0.759(3) 0.830(4) 0.464(2)
loop_
_geom_bond_atom_site_label_1
_geom_bond_atom_site_label_2
_geom_bond_site_symmetry_1
_geom_bond_site_symmetry_2
Ni1 O1 1_555 1_555
Ni2 O5 1_555 1_555
C1 C2 1_555 1_555
C2 C3 1_555 1_555
C3 C6 1_555 1_555
C4 C1 1_555 1_555
C5 C2 1_555 1_555
C6 O5 1_555 1_555
O1 C4 1_555 1_555
O2 C4 1_555 1_555
O3 Ni1 1_555 1_555
O4 C5 1_555 1_555
O6 C6 1_555 1_555
O7 Ni1 1_555 1_555
H1 O7 1_555 1_555
H2 O7 1_555 1_555
O8 Ni2 1_555 1_555
H3 O8 1_555 1_555
H4 O8 1_555 1_555
O9 Ni2 1_555 1_555
H5 O9 1_555 1_555
H6 O9 1_555 1_555
O10 Ni2 1_555 1_555
H7 O10 1_555 1_555
H8 O10 1_555 1_555
O11 Ni2 1_555 1_555
H9 O11 1_555 1_555
H10 O11 1_555 1_555
O12 Ni2 1_555 1_555
H11 O12 1_555 1_555
H12 O12 1_555 1_555
O13 H13 1_555 1_555
H14 O13 1_555 1_555
O14 H15 1_555 1_555
H16 O14 1_555 1_555
O15 H17 1_555 1_555
H18 O15 1_555 1_555
C1D C3 1_555 1_555
C2D C1D 1_555 1_555
C3D C1 1_555 1_555
C4D C1D 1_555 1_555
C5D C2D 1_555 1_555
C6D C3D 1_555 1_555
O1D C4D 1_555 1_555
O2D C4D 1_555 1_555
O3D C5D 1_555 1_555
O4D C5D 1_555 1_555
O5D C6D 1_555 1_555
O6D C6D 1_555 1_555
Ni2D O5D 1_555 1_555
O8D Ni2D 1_555 1_555
H3D O8D 1_555 1_555
H4D O8D 1_555 1_555
O9D Ni2D 1_555 1_555
H5D O9D 1_555 1_555
H6D O9D 1_555 1_555
O10D Ni2D 1_555 1_555
H7D O10D 1_555 1_555
H8D O10D 1_555 1_555
O11D Ni2D 1_555 1_555
H9D O11D 1_555 1_555
H10D O11D 1_555 1_555
O12D Ni2D 1_555 1_555
H11D O12D 1_555 1_555
H12D O12D 1_555 1_555
O7D Ni1 1_555 1_555
H1D O7D 1_555 1_555
H2D O7D 1_555 1_555
Ni1_2 O1D 1_555 1_555
O1D_2 Ni1 1_555 1_555
O3D_2 Ni1 1_555 1_555
C5 O3 1_555 1_555
C2D C3D 1_555 1_555
O3D Ni1_2 1_555 1_555

#END
