
#######################################################################
#
#                 Cambridge Crystallographic Data Centre
#                                CCDC 
#
#######################################################################
#
# If this CIF has been generated from an entry in the Cambridge 
# Structural Database, then it will include bibliographic, chemical, 
# crystal, experimental, refinement or atomic coordinate data resulting 
# from the CCDC's data processing and validation procedures.
#
#######################################################################

data_DOVNOT
_symmetry_cell_setting           monoclinic
_symmetry_space_group_name_H-M   'C c'
_symmetry_Int_Tables_number      9
_space_group_name_Hall           'C -2yc'
loop_
_symmetry_equiv_pos_site_id
_symmetry_equiv_pos_as_xyz
1 x,y,z
2 x,-y,1/2+z
3 1/2+x,1/2+y,z
4 1/2+x,1/2-y,1/2+z
_cell_length_a                   27.350(2)
_cell_length_b                   9.5383(6)
_cell_length_c                   18.5428(16)
_cell_angle_alpha                90
_cell_angle_beta                 113.005(10)
_cell_angle_gamma                90
_cell_volume                     4452.6
loop_
_atom_site_label
_atom_site_type_symbol
_atom_site_fract_x
_atom_site_fract_y
_atom_site_fract_z
Cu1 Cu 0.48013(4) 0.10498(11) 0.76049(6)
Cu2 Cu 0.65687(4) 0.10482(12) 1.00421(6)
Cu3 Cu 0.64738(4) 0.61970(11) 0.93768(6)
C1 C 0.6064(4) 0.2007(9) 0.7662(6)
C2 C 0.6065(3) 0.3452(9) 0.7570(6)
C3 C 0.6119(3) 0.4011(9) 0.6903(5)
C4 C 0.6150(4) 0.3107(9) 0.6326(6)
C5 C 0.6131(3) 0.1671(9) 0.6424(6)
C6 C 0.6088(3) 0.1112(9) 0.7080(5)
C7 C 0.6044(3) 0.1422(9) 0.8403(6)
C8 C 0.6044(4) 0.4427(9) 0.8198(6)
C9 C 0.6152(4) 0.5588(9) 0.6795(5)
C10 C 0.6180(4) 0.3695(9) 0.5594(6)
C11 C 0.6171(4) 0.0738(9) 0.5773(6)
C12 C 0.6054(4) -0.0464(9) 0.7186(6)
O1 O 0.5644(2) 0.0857(6) 0.8419(4)
O2 O 0.6486(2) 0.1529(6) 0.8995(4)
O3 O 0.5757(3) 0.4105(7) 0.8546(4)
O4 O 0.6346(2) 0.5470(6) 0.8347(4)
O5 O 0.5733(2) 0.6273(6) 0.6665(4)
O6 O 0.6586(2) 0.6045(6) 0.6834(4)
O7 O 0.5850(3) 0.4536(7) 0.5196(4)
O8 O 0.6567(2) 0.3207(6) 0.5427(4)
O9 O 0.5813(2) 0.0827(6) 0.5114(4)
O10 O 0.6582(2) -0.0027(6) 0.5966(4)
O11 O 0.6261(2) -0.1002(6) 0.7826(4)
O12 O 0.5788(2) -0.1100(6) 0.6534(4)
H1 H 0.572(4) -0.196(3) 0.654(5)
O13 O 0.4781(2) 0.2022(6) 0.6663(4)
H2 H 0.486(4) 0.181(8) 0.628(4)
H3 H 0.488(4) 0.284(4) 0.682(5)
O14 O 0.4786(2) 0.2887(6) 0.8066(4)
H4 H 0.5049(18) 0.336(7) 0.809(5)
H5 H 0.4506(16) 0.334(7) 0.783(5)
O15 O 0.4697(3) 0.0159(7) 0.8484(4)
H6 H 0.488(3) 0.065(9) 0.888(3)
H7 H 0.4408(19) -0.006(9) 0.851(5)
O16 O 0.4787(3) -0.0740(6) 0.7086(4)
H8 H 0.452(2) -0.099(8) 0.670(4)
H9 H 0.493(3) -0.144(5) 0.736(4)
O17 O 0.6016(3) 0.2355(7) 1.0037(4)
H10 H 0.5714(15) 0.211(10) 1.000(5)
H11 H 0.599(3) 0.292(8) 0.968(4)
O18 O 0.7070(3) 0.2729(7) 1.0908(4)
H12 H 0.7394(8) 0.274(10) 1.120(4)
H13 H 0.689(2) 0.298(10) 1.116(4)
O19 O 0.7211(3) 0.0019(7) 1.0114(4)
H14 H 0.746(3) -0.016(8) 1.055(3)
H15 H 0.714(4) -0.072(5) 0.984(4)
O20 O 0.6971(3) 0.4654(7) 0.9789(4)
H16 H 0.716(3) 0.451(10) 1.0263(13)
H17 H 0.710(3) 0.424(9) 0.951(4)
O21 O 0.5937(3) 0.7707(6) 0.8904(4)
H18 H 0.595(4) 0.825(6) 0.927(3)
H19 H 0.599(4) 0.817(7) 0.856(4)
O22 O 0.7203(3) 0.7517(7) 0.9404(4)
H20 H 0.747(3) 0.701(8) 0.966(4)
H21 H 0.715(3) 0.744(9) 0.8926(14)
Cu2A Cu 0.65687(4) -0.10482(12) 0.50421(6)
Cu3A Cu 0.64738(4) 0.38030(11) 0.43768(6)
O8A O 0.6567(2) 0.6793(6) 1.0427(4)
O10A O 0.6582(2) 0.0027(6) 1.0966(4)
Cu4 Cu 0.31218(4) 0.61972(11) 0.73580(6)
Cu5 Cu 0.30868(4) 0.12372(11) 0.79907(6)
C13 C 0.3504(3) 0.3335(10) 0.5977(5)
C14 C 0.3483(3) 0.1876(9) 0.6074(6)
C15 C 0.3521(3) 0.0972(9) 0.5505(5)
C16 C 0.3557(3) 0.1501(9) 0.4840(6)
C17 C 0.3569(4) 0.2945(9) 0.4726(6)
C18 C 0.3544(3) 0.3875(9) 0.5300(5)
C19 C 0.3486(3) 0.4255(9) 0.6613(6)
C20 C 0.3427(4) 0.1299(9) 0.6791(6)
C21 C 0.3494(4) -0.0604(9) 0.5601(6)
C22 C 0.3572(4) 0.0554(9) 0.4205(6)
C23 C 0.3574(4) 0.3511(9) 0.3964(6)
C24 C 0.3548(4) 0.5413(9) 0.5175(6)
O23 O 0.3097(2) 0.5105(6) 0.6442(4)
O24 O 0.3838(2) 0.4178(6) 0.7287(4)
O25 O 0.3077(2) 0.1865(7) 0.6980(4)
O26 O 0.3723(3) 0.0335(6) 0.7158(4)
O27 O 0.3072(3) -0.1138(6) 0.5577(4)
O28 O 0.3909(2) -0.1287(6) 0.5675(4)
O29 O 0.3206(2) -0.0376(6) 0.3986(4)
O30 O 0.3919(3) 0.0711(6) 0.3940(4)
O31 O 0.3187(2) 0.3087(6) 0.3357(4)
O32 O 0.3923(3) 0.4318(6) 0.3962(4)
O33 O 0.3232(2) 0.5926(7) 0.4556(4)
O34 O 0.3883(2) 0.6112(6) 0.5743(4)
H22 H 0.388(4) 0.694(4) 0.559(5)
O35 O 0.3731(3) 0.7318(7) 0.7367(4)
H23 H 0.374(3) 0.816(4) 0.751(5)
H24 H 0.4042(13) 0.700(8) 0.753(5)
O36 O 0.2596(3) 0.7849(7) 0.6493(4)
H25 H 0.233(2) 0.781(9) 0.606(3)
H26 H 0.282(2) 0.841(8) 0.646(5)
O37 O 0.2469(3) 0.5200(7) 0.7319(4)
H27 H 0.235(3) 0.522(10) 0.767(3)
H28 H 0.223(2) 0.546(10) 0.689(2)
O38 O 0.3585(3) 0.2738(6) 0.8515(4)
H29 H 0.376(3) 0.331(7) 0.839(5)
H30 H 0.350(4) 0.303(8) 0.887(4)
O39 O 0.2544(3) -0.0206(7) 0.7495(4)
H31 H 0.262(3) -0.086(7) 0.725(4)
H32 H 0.2219(11) -0.001(8) 0.727(5)
O40 O 0.2360(3) 0.2527(7) 0.7995(4)
H33 H 0.208(2) 0.221(8) 0.764(4)
H34 H 0.243(3) 0.331(5) 0.785(5)
Cu4A Cu 0.31218(4) 0.38028(11) 0.23580(6)
Cu5A Cu 0.30868(4) -0.12372(11) 0.29907(6)
O29A O 0.3206(2) 0.0376(6) 0.8986(4)
O31A O 0.3187(2) 0.6913(6) 0.8357(4)
O41 O 0.4850(3) 0.1188(8) 0.5326(4)
H35 H 0.513(2) 0.140(11) 0.526(5)
H36 H 0.461(2) 0.100(11) 0.489(3)
O42 O 0.2331(4) 0.4391(8) 0.3610(6)
O43 O 0.4819(3) 0.6781(7) 0.7845(4)
H37 H 0.5119(19) 0.678(10) 0.822(4)
H38 H 0.486(4) 0.610(10) 0.751(5)
O44 O 0.7302(4) 0.3515(8) 0.8790(6)
O45 O 0.4850(2) 0.4897(6) 0.6709(4)
H39 H 0.4573(17) 0.525(9) 0.638(4)
H40 H 0.5118(18) 0.525(9) 0.667(5)
O46 O 0.5017(3) 0.1705(7) 0.9836(4)
H41 H 0.495(4) 0.138(8) 1.021(4)
H42 H 0.495(4) 0.256(3) 0.977(5)
O47 O 0.4824(3) 0.5608(7) 0.5041(4)
H43 H 0.459(2) 0.504(8) 0.477(6)
H44 H 0.5126(15) 0.525(9) 0.515(6)
loop_
_geom_bond_atom_site_label_1
_geom_bond_atom_site_label_2
_geom_bond_site_symmetry_1
_geom_bond_site_symmetry_2
Cu1 O1 1_555 1_555
Cu2 O2 1_555 1_555
Cu3 O4 1_555 1_555
C1 C2 1_555 1_555
C2 C3 1_555 1_555
C3 C4 1_555 1_555
C4 C5 1_555 1_555
C5 C6 1_555 1_555
C6 C1 1_555 1_555
C7 C1 1_555 1_555
C8 C2 1_555 1_555
C9 C3 1_555 1_555
C10 C4 1_555 1_555
C11 C5 1_555 1_555
C12 C6 1_555 1_555
O1 C7 1_555 1_555
O2 C7 1_555 1_555
O3 C8 1_555 1_555
O4 C8 1_555 1_555
O5 C9 1_555 1_555
O6 C9 1_555 1_555
O7 C10 1_555 1_555
O8 C10 1_555 1_555
O9 C11 1_555 1_555
O10 C11 1_555 1_555
O11 C12 1_555 1_555
O12 C12 1_555 1_555
H1 O12 1_555 1_555
O13 Cu1 1_555 1_555
H2 O13 1_555 1_555
H3 O13 1_555 1_555
O14 Cu1 1_555 1_555
H4 O14 1_555 1_555
H5 O14 1_555 1_555
O15 Cu1 1_555 1_555
H6 O15 1_555 1_555
H7 O15 1_555 1_555
O16 Cu1 1_555 1_555
H8 O16 1_555 1_555
H9 O16 1_555 1_555
O17 Cu2 1_555 1_555
H10 O17 1_555 1_555
H11 O17 1_555 1_555
O18 Cu2 1_555 1_555
H12 O18 1_555 1_555
H13 O18 1_555 1_555
O19 Cu2 1_555 1_555
H14 O19 1_555 1_555
H15 O19 1_555 1_555
O20 Cu3 1_555 1_555
H16 O20 1_555 1_555
H17 O20 1_555 1_555
O21 Cu3 1_555 1_555
H18 O21 1_555 1_555
H19 O21 1_555 1_555
O22 Cu3 1_555 1_555
H20 O22 1_555 1_555
H21 O22 1_555 1_555
Cu4 O23 1_555 1_555
Cu5 O25 1_555 1_555
C13 C14 1_555 1_555
C14 C15 1_555 1_555
C15 C16 1_555 1_555
C16 C17 1_555 1_555
C17 C18 1_555 1_555
C18 C13 1_555 1_555
C19 C13 1_555 1_555
C20 C14 1_555 1_555
C21 C15 1_555 1_555
C22 C16 1_555 1_555
C23 C17 1_555 1_555
C24 C18 1_555 1_555
O23 C19 1_555 1_555
O24 C19 1_555 1_555
O25 C20 1_555 1_555
O26 C20 1_555 1_555
O27 C21 1_555 1_555
O28 C21 1_555 1_555
O29 C22 1_555 1_555
O30 C22 1_555 1_555
O31 C23 1_555 1_555
O32 C23 1_555 1_555
O33 C24 1_555 1_555
O34 C24 1_555 1_555
H22 O34 1_555 1_555
O35 Cu4 1_555 1_555
H23 O35 1_555 1_555
H24 O35 1_555 1_555
O36 Cu4 1_555 1_555
H25 O36 1_555 1_555
H26 O36 1_555 1_555
O37 Cu4 1_555 1_555
H27 O37 1_555 1_555
H28 O37 1_555 1_555
O38 Cu5 1_555 1_555
H29 O38 1_555 1_555
H30 O38 1_555 1_555
O39 Cu5 1_555 1_555
H31 O39 1_555 1_555
H32 O39 1_555 1_555
O40 Cu5 1_555 1_555
H33 O40 1_555 1_555
H34 O40 1_555 1_555
O41 H35 1_555 1_555
H36 O41 1_555 1_555
O43 H37 1_555 1_555
H38 O43 1_555 1_555
O45 H39 1_555 1_555
H40 O45 1_555 1_555
O46 H41 1_555 1_555
H42 O46 1_555 1_555
O47 H43 1_555 1_555
H44 O47 1_555 1_555
Cu2A O10 1_555 1_555
Cu3A O8 1_555 1_555
O8A Cu3 1_555 1_555
O10A Cu2 1_555 1_555
Cu4A O31 1_555 1_555
Cu5A O29 1_555 1_555
O29A Cu5 1_555 1_555
O31A Cu4 1_555 1_555

#END
