
#######################################################################
#
#                 Cambridge Crystallographic Data Centre
#                                CCDC 
#
#######################################################################
#
# If this CIF has been generated from an entry in the Cambridge 
# Structural Database, then it will include bibliographic, chemical, 
# crystal, experimental, refinement or atomic coordinate data resulting 
# from the CCDC's data processing and validation procedures.
#
#######################################################################

data_DOVQAI
_symmetry_cell_setting           monoclinic
_symmetry_space_group_name_H-M   'P 21/c'
_symmetry_Int_Tables_number      14
_space_group_name_Hall           '-P 2ybc'
loop_
_symmetry_equiv_pos_site_id
_symmetry_equiv_pos_as_xyz
1 x,y,z
2 -x,1/2+y,1/2-z
3 -x,-y,-z
4 x,1/2-y,1/2+z
_cell_length_a                   21.4131(8)
_cell_length_b                   4.2319(2)
_cell_length_c                   19.1375(7)
_cell_angle_alpha                90
_cell_angle_beta                 105.3020(10)
_cell_angle_gamma                90
_cell_volume                     1672.72
loop_
_atom_site_label
_atom_site_type_symbol
_atom_site_fract_x
_atom_site_fract_y
_atom_site_fract_z
Cu1 Cu 0.29588(2) 0.01754(6) 0.94321(2)
Cu2 Cu 0.18497(2) 0.47231(6) 1.01354(2)
I1 I 0.31661(2) 0.53408(3) 1.02602(2)
I2 I 0.14907(2) 0.95414(3) 1.07298(2)
N1 N 0.32293(7) 0.0668(4) 0.84706(8)
N2 N 0.17657(7) 0.0690(4) 0.82004(8)
N3 N 0.20029(7) 0.1339(4) 0.89026(8)
N4 N 0.16050(7) 0.3348(4) 0.90854(8)
C1 C 0.43098(9) 0.2217(5) 0.91113(10)
H1 H 0.4254 0.1270 0.9541
C2 C 0.48849(10) 0.3665(6) 0.91147(12)
H2 H 0.5229 0.3658 0.9545
C3 C 0.49711(10) 0.5161(6) 0.84884(13)
H3 H 0.5367 0.6205 0.8505
C4 C 0.44877(10) 0.5117(5) 0.78575(12)
H4 H 0.4548 0.6147 0.7439
C5 C 0.38952(9) 0.3533(5) 0.78263(10)
C6 C 0.38009(8) 0.2140(5) 0.84659(9)
C7 C 0.33985(10) 0.3232(5) 0.71765(10)
H5 H 0.3443 0.4174 0.6742
C8 C 0.28524(9) 0.1561(5) 0.71829(10)
H6 H 0.2525 0.1214 0.6746
C9 C 0.27823(8) 0.0365(4) 0.78430(9)
C10 C 0.21607(9) -0.1309(5) 0.78582(10)
H7 H 0.1913 -0.1824 0.7357
H8 H 0.2265 -0.3312 0.8131
C11 C 0.12051(8) 0.2277(5) 0.79214(10)
H9 H 0.0942 0.2235 0.7437
C12 C 0.11011(8) 0.3968(4) 0.84970(9)
C13 C 0.05667(9) 0.6127(5) 0.85652(11)
H10 H 0.0343 0.6943 0.8079
H11 H 0.0757 0.7955 0.8870
C14 C 0.00703(9) 0.4554(5) 0.88933(11)
H12 H 0.0293 0.3287 0.9322
H13 H -0.0196 0.6180 0.9050
O1 O -0.03304(7) 0.2565(4) 0.83570(9)
H14 H -0.0607 0.1675 0.8530
Cu1_2 Cu 0.29588(2) 1.01754(6) 0.94321(2)
Cu2_2 Cu 0.18497(2) 1.47231(6) 1.01354(2)
I1_2 I 0.31661(2) -0.46592(3) 1.02602(2)
I2_2 I 0.14907(2) -0.04586(3) 1.07298(2)
loop_
_geom_bond_atom_site_label_1
_geom_bond_atom_site_label_2
_geom_bond_site_symmetry_1
_geom_bond_site_symmetry_2
Cu1 I1 1_555 1_555
Cu2 I1 1_555 1_555
I1 Cu1_2 1_555 1_555
I2 Cu2 1_555 1_555
N1 Cu1 1_555 1_555
N2 N3 1_555 1_555
N3 Cu1 1_555 1_555
N4 Cu2 1_555 1_555
C1 H1 1_555 1_555
C2 C1 1_555 1_555
H2 C2 1_555 1_555
C3 C2 1_555 1_555
H3 C3 1_555 1_555
C4 C3 1_555 1_555
H4 C4 1_555 1_555
C5 C4 1_555 1_555
C6 N1 1_555 1_555
C7 C5 1_555 1_555
H5 C7 1_555 1_555
C8 C7 1_555 1_555
H6 C8 1_555 1_555
C9 N1 1_555 1_555
C10 N2 1_555 1_555
H7 C10 1_555 1_555
H8 C10 1_555 1_555
C11 N2 1_555 1_555
H9 C11 1_555 1_555
C12 N4 1_555 1_555
C13 C12 1_555 1_555
H10 C13 1_555 1_555
H11 C13 1_555 1_555
C14 C13 1_555 1_555
H12 C14 1_555 1_555
H13 C14 1_555 1_555
O1 C14 1_555 1_555
H14 O1 1_555 1_555
Cu2_2 I2 1_555 1_555
I1_2 Cu1 1_555 1_555
I2_2 Cu2 1_555 1_555
N3 N4 1_555 1_555
C1 C6 1_555 1_555
C5 C6 1_555 1_555
C8 C9 1_555 1_555
C9 C10 1_555 1_555
C11 C12 1_555 1_555

#END
