
#######################################################################
#
#                 Cambridge Crystallographic Data Centre
#                                CCDC 
#
#######################################################################
#
# If this CIF has been generated from an entry in the Cambridge 
# Structural Database, then it will include bibliographic, chemical, 
# crystal, experimental, refinement or atomic coordinate data resulting 
# from the CCDC's data processing and validation procedures.
#
#######################################################################

data_DOWCOJ
_symmetry_cell_setting           monoclinic
_symmetry_space_group_name_H-M   'P 21/n'
_symmetry_Int_Tables_number      14
_space_group_name_Hall           '-P 2yn'
loop_
_symmetry_equiv_pos_site_id
_symmetry_equiv_pos_as_xyz
1 x,y,z
2 1/2-x,1/2+y,1/2-z
3 -x,-y,-z
4 1/2+x,1/2-y,1/2+z
_cell_length_a                   11.0172(11)
_cell_length_b                   16.2000(17)
_cell_length_c                   20.163(2)
_cell_angle_alpha                90
_cell_angle_beta                 92.5250(10)
_cell_angle_gamma                90
_cell_volume                     3595.17
loop_
_atom_site_label
_atom_site_type_symbol
_atom_site_fract_x
_atom_site_fract_y
_atom_site_fract_z
Cd1 Cd 0.37172(4) 0.53867(2) 0.055028(17)
Cd2 Cd 0.30055(4) 0.76760(2) 0.071691(18)
Cd3 Cd 0.39143(3) 0.94899(2) 0.182726(16)
Cl1 Cl 0.57315(12) 0.44787(8) 0.06798(6)
Cl2 Cl 0.47839(12) 0.67197(8) 0.09895(7)
Cl3 Cl 0.17546(12) 0.63278(8) 0.04806(6)
Cl4 Cl 0.46987(13) 0.89470(9) 0.07774(6)
Cl5 Cl 0.24637(13) 0.80718(9) 0.18675(6)
Cl6 Cl 0.19345(18) 0.84478(10) -0.01548(9)
N1 N 0.0304(4) 0.5843(3) 0.3346(2)
N2 N 0.2926(4) 0.5157(2) 0.32361(19)
N3 N 0.1273(3) 0.5297(2) 0.21318(17)
N4 N 0.3092(4) 0.4912(2) 0.16472(17)
H1 H 0.3759 0.4705 0.1872
N5 N -0.0153(4) 0.3897(3) 0.23735(18)
N6 N 0.2610(4) 0.4173(3) 0.03800(19)
C1 C 0.0178(6) 0.6156(4) 0.3947(3)
H2 H 0.0175 0.5796 0.4306
C2 C 0.0051(6) 0.6980(4) 0.4062(3)
H3 H -0.0032 0.7177 0.4491
C3 C 0.0049(5) 0.7514(4) 0.3533(3)
H4 H -0.0046 0.8079 0.3597
C4 C 0.0188(5) 0.7201(3) 0.2900(3)
H5 H 0.0195 0.7550 0.2534
C5 C 0.0316(4) 0.6361(3) 0.2828(3)
C6 C 0.0396(5) 0.5983(3) 0.2144(2)
H6 H -0.0400 0.5782 0.1997
H7 H 0.0633 0.6406 0.1835
C7 C 0.3554(5) 0.5190(3) 0.3811(3)
H8 H 0.3348 0.4834 0.4150
C8 C 0.4494(5) 0.5730(4) 0.3922(3)
H9 H 0.4921 0.5742 0.4330
C9 C 0.4797(5) 0.6255(4) 0.3421(3)
H10 H 0.5428 0.6632 0.3485
C10 C 0.4145(5) 0.6214(3) 0.2819(3)
H11 H 0.4334 0.6563 0.2472
C11 C 0.3221(4) 0.5655(3) 0.2739(2)
C12 C 0.2542(4) 0.5565(3) 0.2074(2)
H12 H 0.2552 0.6095 0.1839
C13 C -0.1016(5) 0.3356(3) 0.2511(3)
H13 H -0.1074 0.3181 0.2948
C14 C -0.1829(5) 0.3041(4) 0.2035(3)
H14 H -0.2418 0.2661 0.2147
C15 C -0.1745(5) 0.3304(4) 0.1396(3)
H15 H -0.2283 0.3107 0.1064
C16 C -0.0854(5) 0.3862(4) 0.1247(3)
H16 H -0.0788 0.4049 0.0813
C17 C -0.0064(4) 0.4142(3) 0.1744(2)
C18 C 0.0996(4) 0.4696(3) 0.1592(2)
H17 H 0.0820 0.4991 0.1174
C19 C 0.2199(4) 0.4241(3) 0.1558(2)
H18 H 0.2288 0.3856 0.1932
C20 C 0.2253(5) 0.3767(3) 0.0914(2)
C21 C 0.1847(6) 0.2965(4) 0.0879(3)
H19 H 0.1630 0.2686 0.1259
C22 C 0.1769(8) 0.2585(5) 0.0269(4)
H20 H 0.1479 0.2047 0.0233
C23 C 0.2118(8) 0.2995(5) -0.0286(4)
H21 H 0.2065 0.2743 -0.0700
C24 C 0.2546(6) 0.3786(4) -0.0216(3)
H22 H 0.2801 0.4065 -0.0588
Cd1B Cd 0.62828(4) 0.46133(2) -0.055028(17)
Cd3A Cd 0.10857(3) 0.44899(2) 0.317274(16)
Cl1B Cl 0.42685(12) 0.55213(8) -0.06798(6)
N1A N 0.4696(4) 1.0843(3) 0.1654(2)
N2A N 0.2074(4) 1.0157(2) 0.17639(19)
N3A N 0.3727(3) 1.0297(2) 0.28682(17)
N5A N 0.5153(4) 0.8897(3) 0.26265(18)
loop_
_geom_bond_atom_site_label_1
_geom_bond_atom_site_label_2
_geom_bond_site_symmetry_1
_geom_bond_site_symmetry_2
Cd1 Cl1 1_555 1_555
Cd2 Cl2 1_555 1_555
Cd3 Cl4 1_555 1_555
Cl1 Cd1B 1_555 1_555
Cl2 Cd1 1_555 1_555
Cl3 Cd1 1_555 1_555
Cl4 Cd2 1_555 1_555
Cl5 Cd2 1_555 1_555
Cl6 Cd2 1_555 1_555
N1 C1 1_555 1_555
N2 C7 1_555 1_555
N3 C6 1_555 1_555
N4 Cd1 1_555 1_555
H1 N4 1_555 1_555
N5 C13 1_555 1_555
N6 Cd1 1_555 1_555
C1 H2 1_555 1_555
C2 C1 1_555 1_555
H3 C2 1_555 1_555
C3 C2 1_555 1_555
H4 C3 1_555 1_555
C4 C3 1_555 1_555
H5 C4 1_555 1_555
C5 N1 1_555 1_555
C6 C5 1_555 1_555
H6 C6 1_555 1_555
H7 C6 1_555 1_555
C7 H8 1_555 1_555
C8 C7 1_555 1_555
H9 C8 1_555 1_555
C9 C8 1_555 1_555
H10 C9 1_555 1_555
C10 C9 1_555 1_555
H11 C10 1_555 1_555
C11 N2 1_555 1_555
C12 N3 1_555 1_555
H12 C12 1_555 1_555
C13 H13 1_555 1_555
C14 C13 1_555 1_555
H14 C14 1_555 1_555
C15 C14 1_555 1_555
H15 C15 1_555 1_555
C16 C15 1_555 1_555
H16 C16 1_555 1_555
C17 N5 1_555 1_555
C18 N3 1_555 1_555
H17 C18 1_555 1_555
C19 N4 1_555 1_555
H18 C19 1_555 1_555
C20 N6 1_555 1_555
C21 C20 1_555 1_555
H19 C21 1_555 1_555
C22 C21 1_555 1_555
H20 C22 1_555 1_555
C23 C22 1_555 1_555
H21 C23 1_555 1_555
C24 N6 1_555 1_555
H22 C24 1_555 1_555
Cd1B Cl1B 1_555 1_555
Cd3A N1 1_555 1_555
Cl1B Cd1 1_555 1_555
N1A Cd3 1_555 1_555
N2A Cd3 1_555 1_555
N3A Cd3 1_555 1_555
N5A Cd3 1_555 1_555
Cd2 Cl3 1_555 1_555
Cd3 Cl5 1_555 1_555
N2 Cd3A 1_555 1_555
N3 Cd3A 1_555 1_555
N4 C12 1_555 1_555
N5 Cd3A 1_555 1_555
C4 C5 1_555 1_555
C10 C11 1_555 1_555
C11 C12 1_555 1_555
C16 C17 1_555 1_555
C17 C18 1_555 1_555
C18 C19 1_555 1_555
C19 C20 1_555 1_555
C23 C24 1_555 1_555

#END
