
#######################################################################
#
#                 Cambridge Crystallographic Data Centre
#                                CCDC 
#
#######################################################################
#
# If this CIF has been generated from an entry in the Cambridge 
# Structural Database, then it will include bibliographic, chemical, 
# crystal, experimental, refinement or atomic coordinate data resulting 
# from the CCDC's data processing and validation procedures.
#
#######################################################################

data_DOWCUP
_symmetry_cell_setting           monoclinic
_symmetry_space_group_name_H-M   'P 21/n'
_symmetry_Int_Tables_number      14
_space_group_name_Hall           '-P 2yn'
loop_
_symmetry_equiv_pos_site_id
_symmetry_equiv_pos_as_xyz
1 x,y,z
2 1/2-x,1/2+y,1/2-z
3 -x,-y,-z
4 1/2+x,1/2-y,1/2+z
_cell_length_a                   11.0183(8)
_cell_length_b                   12.7649(9)
_cell_length_c                   21.2456(15)
_cell_angle_alpha                90
_cell_angle_beta                 97.5610(10)
_cell_angle_gamma                90
_cell_volume                     2962.16
loop_
_atom_site_label
_atom_site_type_symbol
_atom_site_fract_x
_atom_site_fract_y
_atom_site_fract_z
Cd1 Cd 0.06730(3) 0.71833(2) 0.255659(15)
Cd2 Cd 0.17961(3) 1.11520(2) 0.103382(16)
Cl1 Cl -0.04182(12) 1.13541(11) 0.06748(6)
Cl2 Cl 0.19406(9) 1.23130(9) 0.20594(5)
S1 S 0.30839(18) 1.37584(13) -0.04607(8)
N1 N -0.1515(3) 0.7505(3) 0.24938(19)
N2 N 0.0945(3) 0.6351(3) 0.16090(17)
N3 N 0.0039(3) 0.8362(3) 0.16552(16)
N4 N 0.1626(3) 0.9598(2) 0.16745(15)
H1 H 0.2141 0.9677 0.2043
N5 N 0.0625(3) 0.8904(3) 0.29479(17)
N6 N 0.2582(3) 0.9737(3) 0.05161(15)
N7 N 0.2576(4) 1.2310(4) 0.0385(2)
C1 C -0.2131(5) 0.7372(4) 0.2991(3)
H2 H -0.1797 0.6938 0.3320
C2 C -0.3231(5) 0.7847(5) 0.3038(3)
H3 H -0.3636 0.7742 0.3390
C3 C -0.3707(5) 0.8473(5) 0.2553(3)
H4 H -0.4459 0.8796 0.2569
C4 C -0.3096(4) 0.8636(4) 0.2042(3)
H5 H -0.3418 0.9077 0.1713
C5 C -0.1989(4) 0.8130(3) 0.2023(2)
C6 C -0.1280(3) 0.8221(4) 0.1470(2)
H6 H -0.1413 0.7593 0.1212
H7 H -0.1594 0.8811 0.1210
C7 C 0.1120(4) 0.5298(4) 0.1572(2)
H8 H 0.1143 0.4899 0.1939
C8 C 0.1264(5) 0.4806(4) 0.1017(3)
H9 H 0.1398 0.4087 0.1007
C9 C 0.1207(5) 0.5394(4) 0.0471(3)
H10 H 0.1309 0.5079 0.0086
C10 C 0.0999(4) 0.6454(4) 0.0501(2)
H11 H 0.0934 0.6859 0.0134
C11 C 0.0886(4) 0.6915(3) 0.1077(2)
C12 C 0.0763(3) 0.8085(3) 0.11445(19)
H12 H 0.0383 0.8385 0.0742
C13 C 0.0371(3) 0.9450(3) 0.18397(19)
H13 H -0.0184 0.9927 0.1579
C14 C 0.0285(4) 0.9670(3) 0.2530(2)
C15 C -0.0063(4) 1.0629(4) 0.2727(3)
H14 H -0.0285 1.1156 0.2431
C16 C -0.0086(5) 1.0814(4) 0.3360(3)
H15 H -0.0347 1.1457 0.3497
C17 C 0.0279(5) 1.0042(5) 0.3788(3)
H16 H 0.0295 1.0157 0.4221
C18 C 0.0622(4) 0.9093(4) 0.3567(2)
H17 H 0.0861 0.8563 0.3858
C19 C 0.1987(3) 0.8633(3) 0.13602(19)
H18 H 0.2474 0.8193 0.1677
C20 C 0.2711(4) 0.8823(3) 0.0812(2)
C21 C 0.3430(4) 0.8036(4) 0.0614(3)
H19 H 0.3526 0.7408 0.0837
C22 C 0.4005(4) 0.8189(5) 0.0082(3)
H20 H 0.4489 0.7665 -0.0060
C23 C 0.3854(5) 0.9118(5) -0.0230(3)
H21 H 0.4219 0.9236 -0.0594
C24 C 0.3158(4) 0.9872(4) 0.0000(2)
H22 H 0.3076 1.0513 -0.0210
C25 C 0.2763(5) 1.2853(4) 0.0058(2)
Cl3 Cl 0.05500(10) 0.56792(9) 0.32825(6)
Cd1A Cd 0.43270(3) 1.21833(2) 0.244341(15)
Cl2A Cl 0.30594(9) 0.73130(9) 0.29406(5)
loop_
_geom_bond_atom_site_label_1
_geom_bond_atom_site_label_2
_geom_bond_site_symmetry_1
_geom_bond_site_symmetry_2
Cd1 N1 1_555 1_555
Cd2 Cl1 1_555 1_555
Cl2 Cd2 1_555 1_555
S1 C25 1_555 1_555
N1 C1 1_555 1_555
N2 Cd1 1_555 1_555
N3 Cd1 1_555 1_555
N4 Cd2 1_555 1_555
H1 N4 1_555 1_555
N5 Cd1 1_555 1_555
N6 Cd2 1_555 1_555
N7 Cd2 1_555 1_555
C1 H2 1_555 1_555
C2 C1 1_555 1_555
H3 C2 1_555 1_555
C3 C2 1_555 1_555
H4 C3 1_555 1_555
C4 C3 1_555 1_555
H5 C4 1_555 1_555
C5 N1 1_555 1_555
C6 N3 1_555 1_555
H6 C6 1_555 1_555
H7 C6 1_555 1_555
C7 N2 1_555 1_555
H8 C7 1_555 1_555
C8 C7 1_555 1_555
H9 C8 1_555 1_555
C9 C8 1_555 1_555
H10 C9 1_555 1_555
C10 C9 1_555 1_555
H11 C10 1_555 1_555
C11 N2 1_555 1_555
C12 N3 1_555 1_555
H12 C12 1_555 1_555
C13 N3 1_555 1_555
H13 C13 1_555 1_555
C14 N5 1_555 1_555
C15 C14 1_555 1_555
H14 C15 1_555 1_555
C16 C15 1_555 1_555
H15 C16 1_555 1_555
C17 C16 1_555 1_555
H16 C17 1_555 1_555
C18 N5 1_555 1_555
H17 C18 1_555 1_555
C19 N4 1_555 1_555
H18 C19 1_555 1_555
C20 N6 1_555 1_555
C21 C20 1_555 1_555
H19 C21 1_555 1_555
C22 C21 1_555 1_555
H20 C22 1_555 1_555
C23 C22 1_555 1_555
H21 C23 1_555 1_555
C24 N6 1_555 1_555
H22 C24 1_555 1_555
C25 N7 1_555 1_555
Cl3 Cd1 1_555 1_555
Cd1A Cl2 1_555 1_555
Cl2A Cd1 1_555 1_555
N4 C13 1_555 1_555
C4 C5 1_555 1_555
C5 C6 1_555 1_555
C10 C11 1_555 1_555
C11 C12 1_555 1_555
C12 C19 1_555 1_555
C13 C14 1_555 1_555
C17 C18 1_555 1_555
C19 C20 1_555 1_555
C23 C24 1_555 1_555

#END
