
#######################################################################
#
#                 Cambridge Crystallographic Data Centre
#                                CCDC 
#
#######################################################################
#
# If this CIF has been generated from an entry in the Cambridge 
# Structural Database, then it will include bibliographic, chemical, 
# crystal, experimental, refinement or atomic coordinate data resulting 
# from the CCDC's data processing and validation procedures.
#
#######################################################################

data_DOWDAW
_symmetry_cell_setting           monoclinic
_symmetry_space_group_name_H-M   'C 2/c'
_symmetry_Int_Tables_number      15
_space_group_name_Hall           '-C 2yn'
loop_
_symmetry_equiv_pos_site_id
_symmetry_equiv_pos_as_xyz
1 x,y,z
2 -x,y,1/2-z
3 1/2+x,1/2+y,z
4 1/2-x,1/2+y,1/2-z
5 -x,-y,-z
6 x,-y,1/2+z
7 1/2-x,1/2-y,-z
8 1/2+x,1/2-y,1/2+z
_cell_length_a                   21.291(7)
_cell_length_b                   10.161(3)
_cell_length_c                   15.215(6)
_cell_angle_alpha                90
_cell_angle_beta                 120.542(10)
_cell_angle_gamma                90
_cell_volume                     2834.9
loop_
_atom_site_label
_atom_site_type_symbol
_atom_site_fract_x
_atom_site_fract_y
_atom_site_fract_z
Cu1 Cu 0.68344(7) 0.56409(11) 0.02155(9)
C1 C 0.6549(5) 0.3752(9) 0.1586(8)
C2 C 0.6645(5) 0.4128(8) 0.3227(7)
C3 C 0.7137(5) 0.3129(9) 0.3628(7)
C4 C 0.7301(5) 0.2336(10) 0.3021(8)
C5 C 0.7195(6) 0.1884(10) 0.1376(8)
H1 H 0.7520 0.1190 0.1780
H2 H 0.7427 0.2423 0.1105
H3 H 0.6757 0.1510 0.0824
C6 C 0.5790(6) 0.5458(10) 0.1696(8)
H4 H 0.5653 0.5520 0.0991
H5 H 0.5983 0.6288 0.2026
H6 H 0.5369 0.5240 0.1742
C7 C 0.7589(8) 0.2892(11) 0.4777(11)
C8 C 0.8327(6) 0.3637(9) 0.5381(8)
C9 C 0.8294(6) 0.4924(10) 0.5678(8)
C10 C 0.9569(7) 0.5170(11) 0.6133(10)
C11 C 0.8950(6) 0.3084(10) 0.5483(8)
C12 C 1.0229(6) 0.3320(12) 0.6026(11)
H7 H 1.0154 0.2418 0.5809
H8 H 1.0590 0.3365 0.6739
H9 H 1.0394 0.3809 0.5642
C13 C 0.8930(6) 0.7040(10) 0.6330(9)
H10 H 0.8460 0.7270 0.6228
H11 H 0.9040 0.7596 0.5916
H12 H 0.9293 0.7158 0.7036
N1 N 0.6350(4) 0.4423(7) 0.2202(6)
N2 N 0.7012(4) 0.2688(7) 0.2012(6)
N3 N 0.9547(4) 0.3878(8) 0.5859(7)
N4 N 0.8923(5) 0.5662(8) 0.6042(7)
O1 O 0.6311(4) 0.4090(6) 0.0685(5)
O2 O 0.7718(4) 0.1314(6) 0.3332(5)
O3 O 0.6454(4) 0.4838(6) 0.3750(5)
O4 O 0.8998(4) 0.1884(6) 0.5254(5)
O5 O 1.0098(5) 0.5876(8) 0.6431(8)
O6 O 0.7743(4) 0.5462(6) 0.5635(5)
C1F C 0.8451(5) 0.1248(9) 0.8414(8)
C2F C 0.8355(5) 0.0872(8) 0.6773(7)
C3F C 0.7863(5) 0.1871(9) 0.6372(7)
C4F C 0.7699(5) 0.2664(10) 0.6979(8)
C5F C 0.7805(6) 0.3116(10) 0.8624(8)
H1F H 0.7480 0.3810 0.8220
H2F H 0.7573 0.2577 0.8895
H3F H 0.8243 0.3490 0.9176
C6F C 0.9210(6) -0.0458(10) 0.8304(8)
H4F H 0.9347 -0.0520 0.9009
H5F H 0.9017 -0.1288 0.7974
H6F H 0.9631 -0.0240 0.8258
C7F C 0.7411(8) 0.2108(11) 0.5223(11)
C8F C 0.6673(6) 0.1363(9) 0.4619(8)
C9F C 0.6706(6) 0.0076(10) 0.4322(8)
C10F C 0.5431(7) -0.0170(11) 0.3867(10)
C11F C 0.6050(6) 0.1916(10) 0.4517(8)
C12F C 0.4771(6) 0.1680(12) 0.3974(11)
H7F H 0.4846 0.2582 0.4191
H8F H 0.4410 0.1635 0.3261
H9F H 0.4606 0.1191 0.4358
C13F C 0.6070(6) -0.2040(10) 0.3670(9)
H10F H 0.6540 -0.2270 0.3772
H11F H 0.5960 -0.2596 0.4084
H12F H 0.5707 -0.2158 0.2964
N1F N 0.8650(4) 0.0577(7) 0.7798(6)
N2F N 0.7988(4) 0.2312(7) 0.7988(6)
N3F N 0.5453(4) 0.1122(8) 0.4141(7)
N4F N 0.6077(5) -0.0662(8) 0.3958(7)
O1F O 0.8689(4) 0.0910(6) 0.9315(5)
O2F O 0.7282(4) 0.3686(6) 0.6668(5)
O3F O 0.8546(4) 0.0162(6) 0.6250(5)
O4F O 0.6002(4) 0.3116(6) 0.4746(5)
O5F O 0.4902(5) -0.0876(8) 0.3569(8)
O6F O 0.7257(4) -0.0462(6) 0.4365(5)
Cu1F Cu 0.81656(7) -0.06409(11) 0.97845(9)
Cu1C Cu 0.81656(7) 0.06409(11) 0.47845(9)
Cu1E Cu 0.68344(7) 0.43591(11) 0.52155(9)
O2C O 0.7282(4) 0.6314(6) 0.1668(5)
O2E O 0.7718(4) -0.1314(6) 0.8332(5)
O3C O 0.8546(4) -0.0162(6) 1.1250(5)
O3E O 0.6454(4) 0.5162(6) -0.1250(5)
O4C O 0.6002(4) 0.6884(6) -0.0254(5)
O4E O 0.8998(4) -0.1884(6) 1.0254(5)
O6C O 0.7257(4) 0.0462(6) 0.9365(5)
O6E O 0.7743(4) 0.4538(6) 0.0635(5)
O7 O 1.1549(13) 0.575(3) 0.6847(18)
loop_
_geom_bond_atom_site_label_1
_geom_bond_atom_site_label_2
_geom_bond_site_symmetry_1
_geom_bond_site_symmetry_2
Cu1 O1 1_555 1_555
C1 N1 1_555 1_555
C2 C3 1_555 1_555
C3 C4 1_555 1_555
C4 N2 1_555 1_555
C5 H1 1_555 1_555
H2 C5 1_555 1_555
H3 C5 1_555 1_555
C6 H4 1_555 1_555
H5 C6 1_555 1_555
H6 C6 1_555 1_555
C7 C3 1_555 1_555
C8 C7 1_555 1_555
C9 C8 1_555 1_555
C10 N3 1_555 1_555
C11 C8 1_555 1_555
C12 H7 1_555 1_555
H8 C12 1_555 1_555
H9 C12 1_555 1_555
C13 H10 1_555 1_555
H11 C13 1_555 1_555
H12 C13 1_555 1_555
N1 C2 1_555 1_555
N2 C1 1_555 1_555
N3 C11 1_555 1_555
N4 C9 1_555 1_555
O1 C1 1_555 1_555
O2 C4 1_555 1_555
O3 C2 1_555 1_555
O4 C11 1_555 1_555
O5 C10 1_555 1_555
O6 C9 1_555 1_555
C1F N1F 1_555 1_555
C2F C3F 1_555 1_555
C3F C4F 1_555 1_555
C4F N2F 1_555 1_555
C5F H1F 1_555 1_555
H2F C5F 1_555 1_555
H3F C5F 1_555 1_555
C6F H4F 1_555 1_555
H5F C6F 1_555 1_555
H6F C6F 1_555 1_555
C7F C7 1_555 1_555
C8F C7F 1_555 1_555
C9F C8F 1_555 1_555
C10F N3F 1_555 1_555
C11F C8F 1_555 1_555
C12F H7F 1_555 1_555
H8F C12F 1_555 1_555
H9F C12F 1_555 1_555
C13F H10F 1_555 1_555
H11F C13F 1_555 1_555
H12F C13F 1_555 1_555
N1F C2F 1_555 1_555
N2F C1F 1_555 1_555
N3F C11F 1_555 1_555
N4F C9F 1_555 1_555
O1F C1F 1_555 1_555
O2F C4F 1_555 1_555
O3F C2F 1_555 1_555
O4F C11F 1_555 1_555
O5F C10F 1_555 1_555
O6F C9F 1_555 1_555
Cu1F O1F 1_555 1_555
Cu1C O2 1_555 1_555
Cu1E O3 1_555 1_555
O2C Cu1 1_555 1_555
O2E Cu1F 1_555 1_555
O3C Cu1F 1_555 1_555
O3E Cu1 1_555 1_555
O4C Cu1 1_555 1_555
O4E Cu1F 1_555 1_555
O6C Cu1F 1_555 1_555
O6E Cu1 1_555 1_555
C5 N2 1_555 1_555
C6 N1 1_555 1_555
C10 N4 1_555 1_555
C12 N3 1_555 1_555
C13 N4 1_555 1_555
O4 Cu1C 1_555 1_555
O6 Cu1E 1_555 1_555
C3F C7F 1_555 1_555
C5F N2F 1_555 1_555
C6F N1F 1_555 1_555
C10F N4F 1_555 1_555
C12F N3F 1_555 1_555
C13F N4F 1_555 1_555
O2F Cu1E 1_555 1_555
O3F Cu1C 1_555 1_555
O4F Cu1E 1_555 1_555
O6F Cu1C 1_555 1_555

#END
