
#######################################################################
#
#                 Cambridge Crystallographic Data Centre
#                                CCDC 
#
#######################################################################
#
# If this CIF has been generated from an entry in the Cambridge 
# Structural Database, then it will include bibliographic, chemical, 
# crystal, experimental, refinement or atomic coordinate data resulting 
# from the CCDC's data processing and validation procedures.
#
#######################################################################

data_DOWGED
_symmetry_cell_setting           orthorhombic
_symmetry_space_group_name_H-M   'I b a 2'
_symmetry_Int_Tables_number      45
_space_group_name_Hall           'I 2 -2c'
loop_
_symmetry_equiv_pos_site_id
_symmetry_equiv_pos_as_xyz
1 x,y,z
2 -x,-y,z
3 1/2+x,1/2-y,z
4 1/2-x,1/2+y,z
5 1/2+x,1/2+y,1/2+z
6 1/2-x,1/2-y,1/2+z
7 x,-y,1/2+z
8 -x,y,1/2+z
_cell_length_a                   19.2600(4)
_cell_length_b                   21.0541(3)
_cell_length_c                   12.8450(2)
_cell_angle_alpha                90
_cell_angle_beta                 90
_cell_angle_gamma                90
_cell_volume                     5208.67
loop_
_atom_site_label
_atom_site_type_symbol
_atom_site_fract_x
_atom_site_fract_y
_atom_site_fract_z
Cu1 Cu 0.69767(3) 0.89040(2) 0.28415(4)
O1 O 0.73275(13) 0.80820(11) 0.3400(2)
O2 O 0.77661(17) 0.89654(14) 0.1912(3)
O3 O 0.6679(2) 0.96960(14) 0.2193(3)
O4 O 0.63418(13) 0.90317(11) 0.3989(3)
O5 O 0.63492(17) 0.83731(15) 0.1705(3)
C1 C 0.7174(2) 0.77964(16) 0.4227(3)
H1 H 0.8009(19) 0.9215(16) 0.208(4)
H2 H 0.798(2) 0.8690(14) 0.176(4)
H3 H 0.678(3) 0.981(2) 0.1676(17)
H4 H 0.667(3) 0.9974(14) 0.254(3)
H5 H 0.617(2) 0.9344(10) 0.397(4)
Cu2 Cu 0.68756(2) 0.89769(2) 0.52519(4)
H6 H 0.623(2) 0.8584(19) 0.129(3)
H7 H 0.595(3) 0.818(2) 0.176(4)
C2 C 0.7260(2) 0.70827(16) 0.4243(3)
O6 O 0.69350(14) 0.80400(12) 0.5052(2)
C3 C 0.6668(2) 0.67033(17) 0.4299(3)
C4 C 0.79186(19) 0.68037(17) 0.4224(3)
C5 C 0.6741(2) 0.60421(16) 0.4408(3)
C6 C 0.5951(2) 0.69878(16) 0.4226(3)
C7 C 0.7984(2) 0.61402(17) 0.4303(3)
C8 C 0.8559(2) 0.72067(17) 0.4111(4)
C9 C 0.73958(19) 0.57636(17) 0.4437(3)
C10 C 0.60880(19) 0.56386(16) 0.4490(3)
O7 O 0.58351(13) 0.72989(11) 0.3377(2)
O8 O 0.55212(14) 0.69122(13) 0.4922(2)
C11 C 0.87030(19) 0.58420(17) 0.4259(3)
O9 O 0.89737(13) 0.70133(11) 0.3404(2)
O10 O 0.86492(16) 0.76740(13) 0.4661(2)
C12 C 0.7472(2) 0.50595(16) 0.4610(3)
O11 O 0.57682(13) 0.55837(11) 0.3621(2)
O12 O 0.59102(14) 0.54011(12) 0.5308(2)
Cu3 Cu 0.48848(2) 0.76119(2) 0.33662(4)
O13 O 0.88402(14) 0.54882(13) 0.3510(2)
O14 O 0.91166(14) 0.59786(12) 0.4986(2)
O15 O 0.70909(14) 0.46758(11) 0.4174(2)
O16 O 0.79697(13) 0.49044(11) 0.5237(2)
Cu4 Cu 0.5000 0.5000 0.36831(5)
O17 O 0.51983(15) 0.83335(13) 0.4192(3)
O18 O 0.49726(19) 0.79357(14) 0.1599(3)
O19 O 0.45127(15) 0.68114(13) 0.2734(2)
O20 O 0.43418(15) 0.57324(12) 0.3995(3)
O21 O 0.5000 0.5000 0.2019(3)
H8 H 0.5511(14) 0.8517(17) 0.410(5)
H9 H 0.4919(15) 0.8545(16) 0.435(4)
H10 H 0.472(2) 0.8195(16) 0.153(3)
H11 H 0.495(3) 0.7739(17) 0.113(2)
H12 H 0.4729(19) 0.664(2) 0.236(3)
H13 H 0.4212(16) 0.694(2) 0.244(3)
O22 O 0.75711(16) 0.39181(13) 0.6515(2)
O23 O 0.91039(18) 0.40073(14) 0.6374(2)
H14 H 0.3976(9) 0.5653(19) 0.405(4)
H15 H 0.439(2) 0.6024(13) 0.370(3)
H16 H 0.498(3) 0.4720(6) 0.1683(16)
H17 H 0.7330(17) 0.3649(12) 0.654(4)
H18 H 0.7365(18) 0.4210(11) 0.656(4)
H19 H 0.899(3) 0.403(2) 0.6919(16)
H20 H 0.926(2) 0.4317(12) 0.627(3)
Cu3B Cu 0.98848(2) 0.73881(2) 0.33662(4)
O9B O 0.39737(13) 0.79867(11) 0.3404(2)
Cu2C Cu 0.81244(2) 0.39769(2) 0.52519(4)
O11A O 0.42318(13) 0.44163(11) 0.3621(2)
O20A O 0.56582(15) 0.42676(12) 0.3995(3)
O6C O 0.80650(14) 0.30400(12) 0.5052(2)
O4C O 0.86582(13) 0.40317(11) 0.3989(3)
H16A H 0.502(3) 0.5280(6) 0.1683(16)
C10A C 0.39120(19) 0.43614(16) 0.4490(3)
H14A H 0.6024(9) 0.4347(19) 0.405(4)
H15A H 0.561(2) 0.3976(13) 0.370(3)
C5A C 0.3259(2) 0.39579(16) 0.4408(3)
O12A O 0.40898(14) 0.45989(12) 0.5308(2)
C3A C 0.3332(2) 0.32967(17) 0.4299(3)
C9A C 0.26042(19) 0.42364(17) 0.4437(3)
C2A C 0.2740(2) 0.29173(16) 0.4243(3)
C6A C 0.4049(2) 0.30122(16) 0.4226(3)
C7A C 0.2016(2) 0.38598(17) 0.4303(3)
C12A C 0.2528(2) 0.49405(16) 0.4610(3)
O6B O 0.19350(14) 0.69600(12) 0.5052(2)
C4A C 0.20814(19) 0.31963(17) 0.4224(3)
C1A C 0.2826(2) 0.22036(16) 0.4227(3)
O7A O 0.41649(13) 0.27011(11) 0.3377(2)
O8A O 0.44788(14) 0.30878(13) 0.4922(2)
C11A C 0.12970(19) 0.41580(17) 0.4259(3)
O15A O 0.29091(14) 0.53242(11) 0.4174(2)
O16A O 0.20303(13) 0.50956(11) 0.5237(2)
Cu2B Cu 0.18756(2) 0.60231(2) 0.52519(4)
O9C O 0.60263(13) 0.20133(11) 0.3404(2)
C8A C 0.1441(2) 0.27933(17) 0.4111(4)
O1A O 0.26725(13) 0.19180(11) 0.3400(2)
O6A O 0.30650(14) 0.19600(12) 0.5052(2)
Cu3A Cu 0.51152(2) 0.23881(2) 0.33662(4)
O13A O 0.11598(14) 0.45118(13) 0.3510(2)
O14A O 0.08834(14) 0.40214(12) 0.4986(2)
O22A O 0.24289(16) 0.60819(13) 0.6515(2)
O23A O 0.08961(18) 0.59927(14) 0.6374(2)
O4B O 0.13418(13) 0.59683(11) 0.3989(3)
O9A O 0.10263(13) 0.29867(11) 0.3404(2)
O10A O 0.13508(16) 0.23260(13) 0.4661(2)
Cu1A Cu 0.30233(3) 0.10960(2) 0.28415(4)
Cu2A Cu 0.31244(2) 0.10231(2) 0.52519(4)
O17A O 0.48017(15) 0.16665(13) 0.4192(3)
O18A O 0.50274(19) 0.20643(14) 0.1599(3)
O19A O 0.54873(15) 0.31886(13) 0.2734(2)
H17A H 0.2670(17) 0.6351(12) 0.654(4)
H18A H 0.2635(18) 0.5790(11) 0.656(4)
H19A H 0.101(3) 0.597(2) 0.6919(16)
H20A H 0.074(2) 0.5683(12) 0.627(3)
Cu3C Cu 0.01152(2) 0.26119(2) 0.33662(4)
O2A O 0.22339(17) 0.10346(14) 0.1912(3)
O3A O 0.3321(2) 0.03040(14) 0.2193(3)
O4A O 0.36582(13) 0.09683(11) 0.3989(3)
O5A O 0.36508(17) 0.16269(15) 0.1705(3)
H8A H 0.4489(14) 0.1483(17) 0.410(5)
H9A H 0.5081(15) 0.1455(16) 0.435(4)
H10A H 0.528(2) 0.1805(16) 0.153(3)
H11A H 0.505(3) 0.2261(17) 0.113(2)
H12A H 0.5271(19) 0.336(2) 0.236(3)
H13A H 0.5788(16) 0.306(2) 0.244(3)
H1A H 0.1991(19) 0.0785(16) 0.208(4)
H2A H 0.202(2) 0.1310(14) 0.176(4)
H3A H 0.322(3) 0.019(2) 0.1676(17)
H4A H 0.333(3) 0.0026(14) 0.254(3)
H5A H 0.383(2) 0.0656(10) 0.397(4)
H6A H 0.377(2) 0.1416(19) 0.129(3)
H7A H 0.405(3) 0.182(2) 0.176(4)
O24 O 0.33023(18) 0.71952(14) 0.1747(3)
H21 H 0.332(2) 0.7406(18) 0.129(2)
H22 H 0.304(2) 0.732(2) 0.210(3)
O25 O 0.53263(19) 0.62476(16) 0.1356(3)
H23 H 0.5677(12) 0.638(2) 0.132(4)
H24 H 0.516(2) 0.627(2) 0.085(2)
O26 O 1.0000 0.5000 0.5781(4)
H25 H 1.0248(19) 0.484(2) 0.5441(16)
H25A H 0.9752(19) 0.516(2) 0.5441(16)
O27 O 0.83652(15) 1.01366(15) 0.1901(2)
H26 H 0.8634(17) 1.020(2) 0.229(2)
H27 H 0.854(2) 1.002(2) 0.143(2)
O28 O 0.6598(2) 0.30699(16) 0.6598(3)
H28 H 0.647(3) 0.287(2) 0.703(2)
H29 H 0.656(3) 0.2869(19) 0.613(2)
loop_
_geom_bond_atom_site_label_1
_geom_bond_atom_site_label_2
_geom_bond_site_symmetry_1
_geom_bond_site_symmetry_2
Cu1 O1 1_555 1_555
O1 C1 1_555 1_555
O2 Cu1 1_555 1_555
O3 Cu1 1_555 1_555
O4 Cu1 1_555 1_555
O5 Cu1 1_555 1_555
C1 C2 1_555 1_555
H1 O2 1_555 1_555
H2 O2 1_555 1_555
H3 O3 1_555 1_555
H4 O3 1_555 1_555
H5 O4 1_555 1_555
Cu2 O4 1_555 1_555
H6 O5 1_555 1_555
H7 O5 1_555 1_555
C2 C3 1_555 1_555
O6 C1 1_555 1_555
C3 C5 1_555 1_555
C4 C2 1_555 1_555
C5 C9 1_555 1_555
C6 C3 1_555 1_555
C7 C4 1_555 1_555
C8 C4 1_555 1_555
C9 C7 1_555 1_555
C10 C5 1_555 1_555
O7 C6 1_555 1_555
O8 C6 1_555 1_555
C11 C7 1_555 1_555
O9 C8 1_555 1_555
O10 C8 1_555 1_555
C12 C9 1_555 1_555
O11 C10 1_555 1_555
O12 C10 1_555 1_555
Cu3 O7 1_555 1_555
O13 C11 1_555 1_555
O14 C11 1_555 1_555
O15 C12 1_555 1_555
O16 C12 1_555 1_555
Cu4 O11 1_555 1_555
O17 Cu3 1_555 1_555
O18 Cu3 1_555 1_555
O19 Cu3 1_555 1_555
O20 Cu4 1_555 1_555
O21 Cu4 1_555 1_555
H8 O17 1_555 1_555
H9 O17 1_555 1_555
H10 O18 1_555 1_555
H11 O18 1_555 1_555
H12 O19 1_555 1_555
H13 O19 1_555 1_555
O22 H17 1_555 1_555
O23 H19 1_555 1_555
H14 O20 1_555 1_555
H15 O20 1_555 1_555
H16 O21 1_555 1_555
H18 O22 1_555 1_555
H20 O23 1_555 1_555
O24 H21 1_555 1_555
H22 O24 1_555 1_555
O25 H23 1_555 1_555
H24 O25 1_555 1_555
O26 H25 1_555 1_555
O27 H26 1_555 1_555
H27 O27 1_555 1_555
O28 H28 1_555 1_555
H29 O28 1_555 1_555
Cu3B O9 1_555 1_555
O9B Cu3 1_555 1_555
Cu2C O16 1_555 1_555
O11A Cu4 1_555 1_555
O20A Cu4 1_555 1_555
O6C Cu2C 1_555 1_555
O4C Cu2C 1_555 1_555
H16A O21 1_555 1_555
C10A O11A 1_555 1_555
H14A O20A 1_555 1_555
H15A O20A 1_555 1_555
C5A C10A 1_555 1_555
O12A C10A 1_555 1_555
C3A C5A 1_555 1_555
C9A C5A 1_555 1_555
C2A C3A 1_555 1_555
C6A C3A 1_555 1_555
C7A C9A 1_555 1_555
C12A C9A 1_555 1_555
O6B Cu2B 1_555 1_555
C4A C2A 1_555 1_555
C1A C2A 1_555 1_555
O7A C6A 1_555 1_555
O8A C6A 1_555 1_555
C11A C7A 1_555 1_555
O15A C12A 1_555 1_555
O16A C12A 1_555 1_555
Cu2B O16A 1_555 1_555
O9C Cu3A 1_555 1_555
C8A C4A 1_555 1_555
O1A C1A 1_555 1_555
O6A C1A 1_555 1_555
Cu3A O7A 1_555 1_555
O13A C11A 1_555 1_555
O14A C11A 1_555 1_555
O22A Cu2B 1_555 1_555
O23A Cu2B 1_555 1_555
O4B Cu2B 1_555 1_555
O9A C8A 1_555 1_555
O10A C8A 1_555 1_555
Cu1A O1A 1_555 1_555
Cu2A O6A 1_555 1_555
O17A Cu3A 1_555 1_555
O18A Cu3A 1_555 1_555
O19A Cu3A 1_555 1_555
H17A O22A 1_555 1_555
H18A O22A 1_555 1_555
H19A O23A 1_555 1_555
H20A O23A 1_555 1_555
Cu3C O9A 1_555 1_555
O2A Cu1A 1_555 1_555
O3A Cu1A 1_555 1_555
O4A Cu1A 1_555 1_555
O5A Cu1A 1_555 1_555
H8A O17A 1_555 1_555
H9A O17A 1_555 1_555
H10A O18A 1_555 1_555
H11A O18A 1_555 1_555
H12A O19A 1_555 1_555
H13A O19A 1_555 1_555
H1A O2A 1_555 1_555
H2A O2A 1_555 1_555
H3A O3A 1_555 1_555
H4A O3A 1_555 1_555
H5A O4A 1_555 1_555
H6A O5A 1_555 1_555
H7A O5A 1_555 1_555
H25A O26 1_555 1_555
Cu2 O6 1_555 1_555
O8 Cu3 1_555 1_555
O22 Cu2C 1_555 1_555
O23 Cu2C 1_555 1_555
C7A C4A 1_555 1_555
O8A Cu3A 1_555 1_555
Cu2A O4A 1_555 1_555

#END
