
#######################################################################
#
#                 Cambridge Crystallographic Data Centre
#                                CCDC 
#
#######################################################################
#
# If this CIF has been generated from an entry in the Cambridge 
# Structural Database, then it will include bibliographic, chemical, 
# crystal, experimental, refinement or atomic coordinate data resulting 
# from the CCDC's data processing and validation procedures.
#
#######################################################################

data_DOWGAZ
_symmetry_cell_setting           monoclinic
_symmetry_space_group_name_H-M   'P 21/c'
_symmetry_Int_Tables_number      14
_space_group_name_Hall           '-P 2ybc'
loop_
_symmetry_equiv_pos_site_id
_symmetry_equiv_pos_as_xyz
1 x,y,z
2 -x,1/2+y,1/2-z
3 -x,-y,-z
4 x,1/2-y,1/2+z
_cell_length_a                   6.7014(2)
_cell_length_b                   19.2147(6)
_cell_length_c                   23.0383(6)
_cell_angle_alpha                90
_cell_angle_beta                 92.119(3)
_cell_angle_gamma                90
_cell_volume                     2964.51
loop_
_atom_site_label
_atom_site_type_symbol
_atom_site_fract_x
_atom_site_fract_y
_atom_site_fract_z
Ni1 Ni 0.53582(11) 0.38120(4) 0.39681(3)
Ni2 Ni 0.55486(10) -0.03634(4) 0.63939(3)
K1 K 0.9417(2) 0.38870(8) 0.64886(6)
K2 K 0.9494(2) 0.38519(7) 0.85589(5)
C1 C 0.4261(8) 0.1956(3) 0.5753(2)
C2 C 0.4186(8) 0.2630(3) 0.5530(2)
C3 C 0.4226(8) 0.3196(3) 0.5906(2)
C4 C 0.4389(8) 0.3091(3) 0.6503(2)
C5 C 0.4508(8) 0.2427(3) 0.6727(2)
C6 C 0.4389(8) 0.1851(3) 0.6356(2)
C7 C 0.4397(8) 0.1356(3) 0.5326(2)
C8 C 0.4194(8) 0.2767(3) 0.4877(2)
C9 C 0.4294(9) 0.3942(3) 0.5697(2)
C10 C 0.4615(8) 0.3719(3) 0.6903(2)
C11 C 0.5007(8) 0.2335(3) 0.7372(2)
C12 C 0.4477(8) 0.1129(3) 0.6600(2)
O1 O 0.2977(6) 0.09409(19) 0.52584(14)
O2 O 0.6002(6) 0.13286(19) 0.50555(15)
O3 O 0.3125(6) 0.2392(2) 0.45416(15)
O4 O 0.5317(5) 0.32564(19) 0.47295(14)
O5 O 0.5889(6) 0.42527(19) 0.58219(15)
O6 O 0.2754(6) 0.41966(19) 0.54418(15)
O7 O 0.6201(6) 0.3742(2) 0.72038(15)
O8 O 0.3250(6) 0.41698(19) 0.68913(15)
O9 O 0.3766(6) 0.2583(2) 0.77159(14)
O10 O 0.6619(6) 0.2060(2) 0.75140(15)
O11 O 0.3601(6) 0.10137(19) 0.70687(15)
O12 O 0.5432(5) 0.06834(18) 0.63228(14)
O13 O 0.2937(6) 0.3276(2) 0.36072(15)
H1 H 0.270(9) 0.301(2) 0.3840(16)
H2 H 0.322(9) 0.308(2) 0.3336(13)
O14 O 0.3312(6) 0.4457(2) 0.43051(15)
H3 H 0.319(9) 0.435(2) 0.4622(10)
H4 H 0.360(9) 0.4845(12) 0.431(2)
O15 O 0.7699(6) 0.4394(2) 0.43068(16)
H5 H 0.857(6) 0.432(3) 0.411(2)
H6 H 0.779(8) 0.4763(14) 0.442(2)
O16 O 0.7437(6) 0.3174(2) 0.36482(15)
H7 H 0.772(9) 0.2853(18) 0.3833(18)
H8 H 0.705(9) 0.304(2) 0.3354(12)
O17 O 0.5348(7) 0.4410(2) 0.32104(16)
H9 H 0.559(10) 0.4801(12) 0.321(2)
H10 H 0.494(9) 0.431(3) 0.2910(13)
O18 O 0.7805(6) -0.0365(2) 0.58182(15)
H11 H 0.754(9) -0.050(3) 0.5514(12)
H12 H 0.834(8) -0.0018(18) 0.579(2)
O19 O 0.3356(6) -0.0396(2) 0.57481(14)
H13 H 0.334(9) -0.0029(12) 0.562(2)
H14 H 0.351(9) -0.0649(19) 0.5494(15)
O20 O 0.3340(6) -0.0370(2) 0.69715(14)
H15 H 0.309(9) -0.0005(12) 0.707(2)
H16 H 0.320(9) -0.0625(19) 0.7216(16)
O21 O 0.7769(6) -0.0316(2) 0.70398(15)
H17 H 0.800(9) 0.0066(12) 0.710(2)
H18 H 0.746(9) -0.048(2) 0.7322(14)
O22 O 0.5644(8) -0.1454(2) 0.63871(16)
H19 H 0.561(10) -0.171(2) 0.6641(15)
H20 H 0.573(10) -0.167(2) 0.6109(13)
O23 O 0.9684(6) 0.5372(3) 0.65719(18)
H21 H 1.003(9) 0.5756(14) 0.660(3)
H22 H 0.865(5) 0.539(3) 0.642(3)
O24 O 0.9968(6) 0.3119(2) 0.7569(2)
H23 H 0.914(6) 0.287(2) 0.746(3)
H24 H 1.093(5) 0.291(3) 0.759(3)
O25 O 0.9431(8) 0.3312(3) 0.5274(2)
H25 H 0.852(8) 0.331(3) 0.505(3)
H26 H 0.955(11) 0.3703(14) 0.535(3)
O26 O 0.9332(9) 0.2448(3) 0.6250(2)
H27 H 0.924(14) 0.2046(10) 0.624(3)
H28 H 0.906(14) 0.257(3) 0.5935(16)
O27 O 0.8825(7) 0.2898(2) 0.93955(17)
H29 H 0.838(7) 0.301(4) 0.9682(15)
H30 H 0.995(3) 0.284(4) 0.947(2)
K1_2 K -0.0583(2) 0.38870(8) 0.64886(6)
K2A K 0.0506(2) -0.11481(7) 0.64411(5)
K2A_2 K 1.0506(2) -0.11481(7) 0.64411(5)
O8_2 O 1.3250(6) 0.41698(19) 0.68913(15)
O18A O 1.2195(6) 0.4635(2) 0.91818(15)
O19A O 0.6644(6) 0.4604(2) 0.92519(14)
O20A O 0.6660(6) 0.4630(2) 0.80285(14)
O21A O 1.2231(6) 0.4684(2) 0.79602(15)
O22A O 1.4356(8) 0.3546(2) 0.86129(16)
O28 O 0.9397(7) 0.0946(3) 0.5791(2)
H31 H 1.026(6) 0.104(4) 0.559(2)
H32 H 0.843(5) 0.107(4) 0.563(3)
O29 O 0.9390(7) 0.0965(2) 0.73302(18)
H33 H 1.033(5) 0.111(3) 0.720(3)
H34 H 0.863(6) 0.126(2) 0.733(3)
loop_
_geom_bond_atom_site_label_1
_geom_bond_atom_site_label_2
_geom_bond_site_symmetry_1
_geom_bond_site_symmetry_2
Ni1 O4 1_555 1_555
Ni2 O12 1_555 1_555
K1 O5 1_555 1_555
K2 O24 1_555 1_555
C1 C2 1_555 1_555
C2 C3 1_555 1_555
C3 C4 1_555 1_555
C4 C5 1_555 1_555
C5 C6 1_555 1_555
C6 C1 1_555 1_555
C7 C1 1_555 1_555
C8 C2 1_555 1_555
C9 C3 1_555 1_555
C10 C4 1_555 1_555
C11 C5 1_555 1_555
C12 C6 1_555 1_555
O1 C7 1_555 1_555
O2 C7 1_555 1_555
O3 C8 1_555 1_555
O4 C8 1_555 1_555
O5 C9 1_555 1_555
O6 C9 1_555 1_555
O7 K1 1_555 1_555
O8 C10 1_555 1_555
O9 C11 1_555 1_555
O10 C11 1_555 1_555
O11 C12 1_555 1_555
O12 C12 1_555 1_555
O13 Ni1 1_555 1_555
H1 O13 1_555 1_555
H2 O13 1_555 1_555
O14 Ni1 1_555 1_555
H3 O14 1_555 1_555
H4 O14 1_555 1_555
O15 Ni1 1_555 1_555
H5 O15 1_555 1_555
H6 O15 1_555 1_555
O16 Ni1 1_555 1_555
H7 O16 1_555 1_555
H8 O16 1_555 1_555
O17 Ni1 1_555 1_555
H9 O17 1_555 1_555
H10 O17 1_555 1_555
O18 Ni2 1_555 1_555
H11 O18 1_555 1_555
H12 O18 1_555 1_555
O19 Ni2 1_555 1_555
H13 O19 1_555 1_555
H14 O19 1_555 1_555
O20 Ni2 1_555 1_555
H15 O20 1_555 1_555
H16 O20 1_555 1_555
O21 Ni2 1_555 1_555
H17 O21 1_555 1_555
H18 O21 1_555 1_555
O22 Ni2 1_555 1_555
H19 O22 1_555 1_555
H20 O22 1_555 1_555
O23 K1 1_555 1_555
H21 O23 1_555 1_555
H22 O23 1_555 1_555
O24 K1 1_555 1_555
H23 O24 1_555 1_555
H24 O24 1_555 1_555
O25 K1 1_555 1_555
H25 O25 1_555 1_555
H26 O25 1_555 1_555
O26 K1 1_555 1_555
H27 O26 1_555 1_555
H28 O26 1_555 1_555
O27 K2 1_555 1_555
H29 O27 1_555 1_555
H30 O27 1_555 1_555
O28 H31 1_555 1_555
H32 O28 1_555 1_555
O29 H33 1_555 1_555
H34 O29 1_555 1_555
K1_2 O8 1_555 1_555
K2A O19 1_555 1_555
K2A_2 O18 1_555 1_555
O8_2 K1 1_555 1_555
O18A K2 1_555 1_555
O19A K2 1_555 1_555
O20A K2 1_555 1_555
O21A K2 1_555 1_555
O22A K2 1_555 1_555
C10 O7 1_555 1_555
O20 K2A 1_555 1_555
O21 K2A_2 1_555 1_555
O22 K2A_2 1_555 1_555

#END
