
#######################################################################
#
#                 Cambridge Crystallographic Data Centre
#                                CCDC 
#
#######################################################################
#
# If this CIF has been generated from an entry in the Cambridge 
# Structural Database, then it will include bibliographic, chemical, 
# crystal, experimental, refinement or atomic coordinate data resulting 
# from the CCDC's data processing and validation procedures.
#
#######################################################################

data_DOWHEE
_symmetry_cell_setting           monoclinic
_symmetry_space_group_name_H-M   'C 2/c'
_symmetry_Int_Tables_number      15
_space_group_name_Hall           '-C 2yn'
loop_
_symmetry_equiv_pos_site_id
_symmetry_equiv_pos_as_xyz
1 x,y,z
2 -x,y,1/2-z
3 1/2+x,1/2+y,z
4 1/2-x,1/2+y,1/2-z
5 -x,-y,-z
6 x,-y,1/2+z
7 1/2-x,1/2-y,-z
8 1/2+x,1/2-y,1/2+z
_cell_length_a                   33.0036(8)
_cell_length_b                   8.55033(11)
_cell_length_c                   21.3589(4)
_cell_angle_alpha                90
_cell_angle_beta                 124.052(3)
_cell_angle_gamma                90
_cell_volume                     4993.8
loop_
_atom_site_label
_atom_site_type_symbol
_atom_site_fract_x
_atom_site_fract_y
_atom_site_fract_z
Co1 Co 0.626157(14) 0.40194(5) 0.91398(2)
N1 N 0.58947(8) 0.2425(3) 0.82881(11)
N2 N 0.59534(8) 0.0855(3) 0.83273(12)
H1 H 0.6187(9) 0.039(3) 0.8758(13)
C1 C 0.56961(10) 0.0192(3) 0.76315(15)
C2 C 0.54561(9) 0.1392(3) 0.71171(14)
C3 C 0.55889(9) 0.2755(3) 0.75496(13)
C4 C 0.54436(10) 0.4395(4) 0.72781(16)
H2 H 0.5520 0.5069 0.7702
H3 H 0.5092 0.4435 0.6889
H4 H 0.5623 0.4759 0.7064
C5 C 0.56970(13) -0.1529(4) 0.75263(19)
H5 H 0.5959 -0.2009 0.8000
H6 H 0.5751 -0.1744 0.7128
H7 H 0.5381 -0.1967 0.7382
C6 C 0.51322(10) 0.1297(4) 0.62687(14)
H8 H 0.4822 0.1851 0.6090
H9 H 0.5052 0.0186 0.6119
C7 C 0.53596(10) 0.1994(3) 0.58768(14)
C8 C 0.58580(10) 0.1942(4) 0.62002(15)
H10 H 0.6065 0.1451 0.6677
C9 C 0.60605(10) 0.2595(4) 0.58402(16)
H11 H 0.6403 0.2531 0.6071
C10 C 0.57691(10) 0.3339(3) 0.51492(14)
C11 C 0.52715(11) 0.3386(4) 0.48204(16)
H12 H 0.5064 0.3884 0.4345
C12 C 0.50720(11) 0.2709(4) 0.51807(17)
H13 H 0.4728 0.2739 0.4941
C13 C 0.59977(10) 0.4093(3) 0.47844(14)
O1 O 0.57485(7) 0.5099(2) 0.42632(10)
O2 O 0.64250(7) 0.3766(2) 0.50009(11)
N3 N 0.67588(8) 0.7148(3) 0.50830(11)
N4 N 0.72308(8) 0.6665(3) 0.55001(11)
H14 H 0.7339(11) 0.596(3) 0.5309(16)
C14 C 0.74773(9) 0.7303(3) 0.61943(13)
C15 C 0.71531(9) 0.8253(3) 0.62331(13)
C16 C 0.67090(9) 0.8126(3) 0.55274(13)
C17 C 0.62283(10) 0.8880(4) 0.52475(15)
H15 H 0.5967 0.8304 0.4808
H16 H 0.6233 0.9963 0.5102
H17 H 0.6169 0.8867 0.5648
C18 C 0.80045(10) 0.6965(4) 0.67673(15)
H18 H 0.8203 0.7848 0.6795
H19 H 0.8100 0.6018 0.6621
H20 H 0.8057 0.6806 0.7262
C19 C 0.72471(10) 0.9188(3) 0.68976(14)
H21 H 0.7023 1.0098 0.6709
H22 H 0.7586 0.9594 0.7177
C20 C 0.71787(9) 0.8263(3) 0.74406(13)
C21 C 0.67854(10) 0.7259(3) 0.71828(13)
H23 H 0.6560 0.7110 0.6655
C22 C 0.67163(9) 0.6472(3) 0.76823(14)
H24 H 0.6442 0.5804 0.7496
C23 C 0.70492(9) 0.6659(3) 0.84595(13)
C24 C 0.74428(9) 0.7656(3) 0.87215(13)
H25 H 0.7671 0.7792 0.9250
C25 C 0.75077(9) 0.8460(3) 0.82183(14)
H26 H 0.7778 0.9148 0.8405
C26 C 0.69814(9) 0.5750(3) 0.89980(13)
O3 O 0.65530(6) 0.5183(2) 0.87068(9)
O4 O 0.73337(6) 0.5561(2) 0.96653(9)
Co1E Co 0.626157(14) 0.59806(5) 0.41398(2)
O1E O 0.57485(7) 0.4901(2) 0.92632(10)
N3E N 0.67588(8) 0.2852(3) 1.00830(11)
H27 H 0.6953(8) 0.088(5) 0.4771(19)
H28 H 0.6568(15) 0.186(3) 0.459(2)
O5 O 0.66532(7) 0.1079(3) 0.44530(12)
loop_
_geom_bond_atom_site_label_1
_geom_bond_atom_site_label_2
_geom_bond_site_symmetry_1
_geom_bond_site_symmetry_2
Co1 N1 1_555 1_555
N1 N2 1_555 1_555
N2 H1 1_555 1_555
C1 N2 1_555 1_555
C2 C1 1_555 1_555
C3 N1 1_555 1_555
C4 C3 1_555 1_555
H2 C4 1_555 1_555
H3 C4 1_555 1_555
H4 C4 1_555 1_555
C5 C1 1_555 1_555
H5 C5 1_555 1_555
H6 C5 1_555 1_555
H7 C5 1_555 1_555
C6 C2 1_555 1_555
H8 C6 1_555 1_555
H9 C6 1_555 1_555
C7 C6 1_555 1_555
C8 C7 1_555 1_555
H10 C8 1_555 1_555
C9 C8 1_555 1_555
H11 C9 1_555 1_555
C10 C9 1_555 1_555
C11 C10 1_555 1_555
H12 C11 1_555 1_555
C12 C7 1_555 1_555
H13 C12 1_555 1_555
C13 C10 1_555 1_555
O1 C13 1_555 1_555
O2 C13 1_555 1_555
N3 N4 1_555 1_555
N4 H14 1_555 1_555
C14 N4 1_555 1_555
C15 C14 1_555 1_555
C16 N3 1_555 1_555
C17 C16 1_555 1_555
H15 C17 1_555 1_555
H16 C17 1_555 1_555
H17 C17 1_555 1_555
C18 C14 1_555 1_555
H18 C18 1_555 1_555
H19 C18 1_555 1_555
H20 C18 1_555 1_555
C19 C15 1_555 1_555
H21 C19 1_555 1_555
H22 C19 1_555 1_555
C20 C19 1_555 1_555
C21 C20 1_555 1_555
H23 C21 1_555 1_555
C22 C21 1_555 1_555
H24 C22 1_555 1_555
C23 C22 1_555 1_555
C24 C23 1_555 1_555
H25 C24 1_555 1_555
C25 C20 1_555 1_555
H26 C25 1_555 1_555
C26 C23 1_555 1_555
O3 Co1 1_555 1_555
O4 C26 1_555 1_555
H27 O5 1_555 1_555
H28 O5 1_555 1_555
Co1E O1 1_555 1_555
O1E Co1 1_555 1_555
N3E Co1 1_555 1_555
C2 C3 1_555 1_555
C11 C12 1_555 1_555
N3 Co1E 1_555 1_555
C15 C16 1_555 1_555
C24 C25 1_555 1_555
C26 O3 1_555 1_555

#END
