
#######################################################################
#
#                 Cambridge Crystallographic Data Centre
#                                CCDC 
#
#######################################################################
#
# If this CIF has been generated from an entry in the Cambridge 
# Structural Database, then it will include bibliographic, chemical, 
# crystal, experimental, refinement or atomic coordinate data resulting 
# from the CCDC's data processing and validation procedures.
#
#######################################################################

data_DOWHII
_symmetry_cell_setting           triclinic
_symmetry_space_group_name_H-M   'P -1'
_symmetry_Int_Tables_number      2
_space_group_name_Hall           '-P 1'
loop_
_symmetry_equiv_pos_site_id
_symmetry_equiv_pos_as_xyz
1 x,y,z
2 -x,-y,-z
_cell_length_a                   8.0390(16)
_cell_length_b                   9.2100(18)
_cell_length_c                   11.042(2)
_cell_angle_alpha                76.54(3)
_cell_angle_beta                 72.17(3)
_cell_angle_gamma                67.29(3)
_cell_volume                     711.8
loop_
_atom_site_label
_atom_site_type_symbol
_atom_site_fract_x
_atom_site_fract_y
_atom_site_fract_z
Cu1 Cu 0.5000 0.5000 0.0000
N1 N 0.4873(2) 0.3227(3) 0.93431(19)
N2 N 0.3386(2) 0.2718(3) 0.9801(2)
H1 H 0.246(3) 0.305(3) 1.049(2)
C1 C 0.3542(3) 0.1587(3) 0.9158(2)
C2 C 0.5204(3) 0.1323(3) 0.8244(2)
C3 C 0.5979(3) 0.2378(3) 0.8388(2)
C4 C 0.7795(3) 0.2578(3) 0.7643(3)
H2 H 0.7643 0.3254 0.6828
H3 H 0.8730 0.1537 0.7473
H4 H 0.8201 0.3075 0.8141
C5 C 0.2065(4) 0.0852(4) 0.9466(3)
H5 H 0.1279 0.1044 1.0328
H6 H 0.2649 -0.0294 0.9433
H7 H 0.1302 0.1326 0.8838
C6 C 0.6041(4) 0.0156(3) 0.7281(2)
H8 H 0.5345 -0.0592 0.7515
H9 H 0.7341 -0.0467 0.7326
C7 C 0.6018(3) 0.0938(3) 0.5920(2)
C8 C 0.4439(3) 0.2139(4) 0.5631(2)
H10 H 0.3364 0.2477 0.6303
C9 C 0.4400(3) 0.2852(4) 0.4380(2)
H11 H 0.3295 0.3652 0.4204
C10 C 0.5972(3) 0.2403(3) 0.3382(2)
C11 C 0.7546(3) 0.1193(3) 0.3662(2)
H12 H 0.8625 0.0863 0.2990
C12 C 0.7563(3) 0.0465(3) 0.4902(3)
H13 H 0.8647 -0.0376 0.5067
C13 C 0.5948(3) 0.3193(3) 0.2044(2)
O1 O 0.4368(2) 0.3961(2) 0.17791(15)
O2 O 0.7449(2) 0.3108(2) 0.12057(16)
N1A N 0.5127(2) 0.6773(3) -0.93431(19)
N2A N 0.6614(2) 0.7282(3) -0.9801(2)
H1A H 0.754(3) 0.695(3) -1.049(2)
C1A C 0.6458(3) 0.8413(3) -0.9158(2)
C2A C 0.4796(3) 0.8677(3) -0.8244(2)
C3A C 0.4021(3) 0.7622(3) -0.8388(2)
C4A C 0.2205(3) 0.7422(3) -0.7643(3)
H2A H 0.2357 0.6746 -0.6828
H3A H 0.1270 0.8463 -0.7473
H4A H 0.1799 0.6925 -0.8141
C5A C 0.7935(4) 0.9148(4) -0.9466(3)
H5A H 0.8721 0.8956 -1.0328
H6A H 0.7351 1.0294 -0.9433
H7A H 0.8698 0.8674 -0.8838
C6A C 0.3959(4) 0.9844(3) -0.7281(2)
H8A H 0.4655 1.0592 -0.7515
H9A H 0.2659 1.0467 -0.7326
C7A C 0.3982(3) 0.9062(3) -0.5920(2)
C8A C 0.5561(3) 0.7861(4) -0.5631(2)
H10A H 0.6636 0.7523 -0.6303
C9A C 0.5600(3) 0.7148(4) -0.4380(2)
H11A H 0.6705 0.6348 -0.4204
C10A C 0.4028(3) 0.7597(3) -0.3382(2)
C11A C 0.2454(3) 0.8807(3) -0.3662(2)
H12A H 0.1375 0.9137 -0.2990
C12A C 0.2437(3) 0.9535(3) -0.4902(3)
H13A H 0.1353 1.0376 -0.5067
C13A C 0.4052(3) 0.6807(3) -0.2044(2)
O1A O 0.5632(2) 0.6039(2) -0.17791(15)
O2A O 0.2551(2) 0.6892(2) -0.12057(16)
Cu1_2 Cu 0.5000 0.5000 -1.0000
Cu1_3 Cu 0.5000 0.5000 1.0000
N1_2 N 0.4873(2) 0.3227(3) -0.06569(19)
N1A_2 N 0.5127(2) 0.6773(3) 0.06569(19)
O3 O -0.0299(2) 0.6614(3) 0.81861(19)
H14 H 0.067(4) 0.660(5) 0.833(4)
C14 C 0.0396(4) 0.5615(5) 0.7245(3)
H15 H 0.1008 0.4528 0.7611
H16 H 0.1298 0.5970 0.6537
H17 H -0.0626 0.5643 0.6924
loop_
_geom_bond_atom_site_label_1
_geom_bond_atom_site_label_2
_geom_bond_site_symmetry_1
_geom_bond_site_symmetry_2
Cu1 O1 1_555 1_555
N1 N2 1_555 1_555
N2 H1 1_555 1_555
C1 N2 1_555 1_555
C2 C1 1_555 1_555
C3 N1 1_555 1_555
C4 C3 1_555 1_555
H2 C4 1_555 1_555
H3 C4 1_555 1_555
H4 C4 1_555 1_555
C5 C1 1_555 1_555
H5 C5 1_555 1_555
H6 C5 1_555 1_555
H7 C5 1_555 1_555
C6 C2 1_555 1_555
H8 C6 1_555 1_555
H9 C6 1_555 1_555
C7 C6 1_555 1_555
C8 C7 1_555 1_555
H10 C8 1_555 1_555
C9 C8 1_555 1_555
H11 C9 1_555 1_555
C10 C9 1_555 1_555
C11 C10 1_555 1_555
H12 C11 1_555 1_555
C12 C7 1_555 1_555
H13 C12 1_555 1_555
C13 C10 1_555 1_555
O1 C13 1_555 1_555
O2 Cu1 1_555 1_555
O3 H14 1_555 1_555
C14 O3 1_555 1_555
H15 C14 1_555 1_555
H16 C14 1_555 1_555
H17 C14 1_555 1_555
N1A N2A 1_555 1_555
N2A H1A 1_555 1_555
C1A N2A 1_555 1_555
C2A C1A 1_555 1_555
C3A N1A 1_555 1_555
C4A C3A 1_555 1_555
H2A C4A 1_555 1_555
H3A C4A 1_555 1_555
H4A C4A 1_555 1_555
C5A C1A 1_555 1_555
H5A C5A 1_555 1_555
H6A C5A 1_555 1_555
H7A C5A 1_555 1_555
C6A C2A 1_555 1_555
H8A C6A 1_555 1_555
H9A C6A 1_555 1_555
C7A C6A 1_555 1_555
C8A C7A 1_555 1_555
H10A C8A 1_555 1_555
C9A C8A 1_555 1_555
H11A C9A 1_555 1_555
C10A C9A 1_555 1_555
C11A C10A 1_555 1_555
H12A C11A 1_555 1_555
C12A C7A 1_555 1_555
H13A C12A 1_555 1_555
C13A C10A 1_555 1_555
O1A Cu1 1_555 1_555
O2A Cu1 1_555 1_555
Cu1_2 N1A 1_555 1_555
Cu1_3 N1 1_555 1_555
N1_2 Cu1 1_555 1_555
N1A_2 Cu1 1_555 1_555
C2 C3 1_555 1_555
C11 C12 1_555 1_555
C13 O2 1_555 1_555
C2A C3A 1_555 1_555
C11A C12A 1_555 1_555
C13A O1A 1_555 1_555
C13A O2A 1_555 1_555

#END
