
#######################################################################
#
#                 Cambridge Crystallographic Data Centre
#                                CCDC 
#
#######################################################################
#
# If this CIF has been generated from an entry in the Cambridge 
# Structural Database, then it will include bibliographic, chemical, 
# crystal, experimental, refinement or atomic coordinate data resulting 
# from the CCDC's data processing and validation procedures.
#
#######################################################################

data_DOXFEB
_symmetry_cell_setting           tetragonal
_symmetry_space_group_name_H-M   'P 41'
_symmetry_Int_Tables_number      76
_space_group_name_Hall           'P 4w'
loop_
_symmetry_equiv_pos_site_id
_symmetry_equiv_pos_as_xyz
1 x,y,z
2 -y,x,1/4+z
3 -x,-y,1/2+z
4 y,-x,3/4+z
_cell_length_a                   9.919(1)
_cell_length_b                   9.919(1)
_cell_length_c                   17.160(2)
_cell_angle_alpha                90
_cell_angle_beta                 90
_cell_angle_gamma                90
_cell_volume                     1688.31
loop_
_atom_site_label
_atom_site_type_symbol
_atom_site_fract_x
_atom_site_fract_y
_atom_site_fract_z
P1 P -0.0356(1) 0.8547(1) 0.1000
O1 O 0.1616(4) 1.0396(5) -0.0344(3)
C1 C -0.2112(4) 0.7916(4) 0.1214(2)
C2 C -0.3075(4) 0.9131(4) 0.1254(3)
C3 C -0.4542(4) 0.8646(4) 0.1385(3)
C4 C -0.4662(4) 0.7814(5) 0.2115(3)
C5 C -0.3696(4) 0.6618(5) 0.2093(3)
C6 C -0.2247(4) 0.7097(4) 0.1963(3)
C7 C 0.0591(3) 0.6915(4) 0.0880(3)
C8 C 0.1296(5) 0.6840(5) 0.0085(3)
C9 C 0.2074(5) 0.5518(6) -0.0033(4)
C10 C 0.3092(4) 0.5296(5) 0.0611(4)
C11 C 0.2418(5) 0.5336(5) 0.1408(4)
C12 C 0.1615(5) 0.6641(5) 0.1515(3)
C13 C 0.2273(4) 1.0901(5) -0.1017(3)
C14 C 0.3253(7) 1.1921(7) -0.0706(4)
C15 C 0.3596(8) 1.1329(8) 0.0098(4)
C16 C 0.2449(7) 1.0667(11) 0.0336(5)
Li1 Li -0.0195(7) 0.9681(7) -0.0269(5)
H1 H -0.2335 0.7310 0.0798
H2 H -0.2813 0.9705 0.1678
H3 H -0.3026 0.9625 0.0774
H4 H -0.4816 0.8109 0.0947
H5 H -0.5122 0.9417 0.1428
H6 H -0.4451 0.8367 0.2557
H7 H -0.5569 0.7486 0.2160
H8 H -0.3747 0.6142 0.2579
H9 H -0.3950 0.6025 0.1676
H10 H -0.1666 0.6325 0.1931
H11 H -0.1980 0.7649 0.2396
H12 H -0.0091 0.6231 0.0918
H13 H 0.1917 0.7579 0.0045
H14 H 0.0627 0.6914 -0.0316
H15 H 0.2538 0.5554 -0.0523
H16 H 0.1448 0.4780 -0.0037
H17 H 0.3513 0.4433 0.0540
H18 H 0.3764 0.5991 0.0587
H19 H 0.1815 0.4583 0.1452
H20 H 0.3096 0.5279 0.1805
H21 H 0.2241 0.7379 0.1527
H22 H 0.1147 0.6592 0.2004
H23 H 0.2736 1.0191 -0.1288
H24 H 0.1637 1.1320 -0.1362
H25 H 0.4040 1.1981 -0.1030
H26 H 0.2846 1.2795 -0.0660
H27 H 0.3825 1.2034 0.0458
H28 H 0.4334 1.0707 0.0058
H29 H 0.2685 0.9834 0.0586
H30 H 0.1959 1.1225 0.0695
Li1A Li 0.0319(7) 0.9805(7) 0.2231(5)
P1C P -0.1453(1) 1.0356(1) -0.1500
P1A P 0.1453(1) 0.9644(1) 0.3500
O1A O -0.0396(5) 1.1616(4) 0.2156(3)
C1C C -0.2084(4) 1.2112(4) -0.1286(2)
C7C C -0.3085(4) 0.9409(3) -0.1620(3)
Li1C Li -0.0319(7) 1.0195(7) -0.2769(5)
C1A C 0.2084(4) 0.7888(4) 0.3714(2)
C7A C 0.3085(4) 1.0591(3) 0.3380(3)
Li1B Li 0.0195(7) 1.0319(7) 0.4731(5)
C13A C -0.0901(5) 1.2273(4) 0.1483(3)
C16A C -0.0667(11) 1.2449(7) 0.2836(5)
C2C C -0.0869(4) 1.3075(4) -0.1246(3)
C6C C -0.2903(4) 1.2247(4) -0.0537(3)
H1C H -0.2690 1.2335 -0.1702
C8C C -0.3160(5) 0.8704(5) -0.2415(3)
C12C C -0.3359(5) 0.8385(5) -0.0985(3)
H12C H -0.3769 1.0091 -0.1582
P1B P 0.0356(1) 1.1453(1) -0.4000
O1C O 0.0396(5) 0.8384(4) -0.2844(3)
C2A C 0.0869(4) 0.6925(4) 0.3754(3)
C6A C 0.2903(4) 0.7753(4) 0.4463(3)
H1A H 0.2690 0.7665 0.3298
C8A C 0.3160(5) 1.1296(5) 0.2585(3)
C12A C 0.3359(5) 1.1615(5) 0.4015(3)
H12A H 0.3769 0.9909 0.3418
P1B_2 P 0.0356(1) 1.1453(1) 0.6000
O1B O -0.1616(4) 0.9604(5) 0.4656(3)
C14A C -0.1921(7) 1.3253(7) 0.1794(4)
H23A H -0.0191 1.2736 0.1212
H24A H -0.1320 1.1637 0.1138
C15A C -0.1329(8) 1.3596(8) 0.2598(4)
H29A H 0.0166 1.2685 0.3086
H30A H -0.1225 1.1959 0.3195
C3C C -0.1354(4) 1.4542(4) -0.1115(3)
H2C H -0.0295 1.2813 -0.0822
H3C H -0.0375 1.3026 -0.1726
C5C C -0.3382(5) 1.3696(4) -0.0407(3)
H10C H -0.3675 1.1666 -0.0569
H11C H -0.2351 1.1980 -0.0104
C9C C -0.4482(6) 0.7926(5) -0.2533(4)
H13C H -0.2421 0.8083 -0.2455
H14C H -0.3086 0.9373 -0.2816
C11C C -0.4664(5) 0.7582(5) -0.1092(4)
H21C H -0.2621 0.7759 -0.0973
H22C H -0.3408 0.8853 -0.0496
C1B C 0.2112(4) 1.2084(4) -0.3786(2)
C7B C -0.0591(3) 1.3085(4) -0.4120(3)
Li1B_2 Li 0.0195(7) 1.0319(7) -0.5269(5)
C13C C 0.0901(5) 0.7727(4) -0.3517(3)
C16C C 0.0667(11) 0.7551(7) -0.2164(5)
C3A C 0.1354(4) 0.5458(4) 0.3885(3)
H2A H 0.0295 0.7187 0.4178
H3A H 0.0375 0.6974 0.3274
C5A C 0.3382(5) 0.6304(4) 0.4593(3)
H10A H 0.3675 0.8334 0.4431
H11A H 0.2351 0.8020 0.4896
C9A C 0.4482(6) 1.2074(5) 0.2467(4)
H13A H 0.2421 1.1917 0.2545
H14A H 0.3086 1.0627 0.2184
C11A C 0.4664(5) 1.2418(5) 0.3908(4)
H21A H 0.2621 1.2241 0.4027
H22A H 0.3408 1.1147 0.4504
C13B C -0.2273(4) 0.9099(5) 0.3983(3)
C16B C -0.2449(7) 0.9333(11) 0.5336(5)
H25A H -0.1981 1.4040 0.1470
H26A H -0.2795 1.2846 0.1840
H27A H -0.2034 1.3825 0.2958
H28A H -0.0707 1.4334 0.2558
C4C C -0.2186(5) 1.4662(4) -0.0385(3)
H4C H -0.1891 1.4816 -0.1553
H5C H -0.0583 1.5122 -0.1072
H8C H -0.3858 1.3747 0.0079
H9C H -0.3975 1.3950 -0.0824
C10C C -0.4704(5) 0.6908(4) -0.1889(4)
H15C H -0.4446 0.7462 -0.3023
H16C H -0.5220 0.8552 -0.2537
H19C H -0.5417 0.8185 -0.1048
H20C H -0.4721 0.6904 -0.0695
C2B C 0.3075(4) 1.0869(4) -0.3746(3)
C6B C 0.2247(4) 1.2903(4) -0.3037(3)
H1B H 0.2335 1.2690 -0.4202
C8B C -0.1296(5) 1.3160(5) -0.4915(3)
C12B C -0.1615(5) 1.3359(5) -0.3485(3)
H12B H 0.0091 1.3769 -0.4082
C14C C 0.1921(7) 0.6747(7) -0.3206(4)
H23C H 0.0191 0.7264 -0.3788
H24C H 0.1320 0.8363 -0.3862
C15C C 0.1329(8) 0.6404(8) -0.2402(4)
H29C H -0.0166 0.7315 -0.1914
H30C H 0.1225 0.8041 -0.1805
C4A C 0.2186(5) 0.5338(4) 0.4615(3)
H4A H 0.1891 0.5184 0.3447
H5A H 0.0583 0.4878 0.3928
H8A H 0.3858 0.6253 0.5079
H9A H 0.3975 0.6050 0.4176
C10A C 0.4704(5) 1.3092(4) 0.3111(4)
H15A H 0.4446 1.2538 0.1977
H16A H 0.5220 1.1448 0.2463
H19A H 0.5417 1.1815 0.3952
H20A H 0.4721 1.3096 0.4305
C14B C -0.3253(7) 0.8079(7) 0.4294(4)
H23B H -0.2736 0.9809 0.3712
H24B H -0.1637 0.8680 0.3638
C15B C -0.3596(8) 0.8671(8) 0.5098(4)
H29B H -0.2685 1.0166 0.5586
H30B H -0.1959 0.8775 0.5695
H6C H -0.1633 1.4451 0.0057
H7C H -0.2514 1.5569 -0.0340
H17C H -0.5567 0.6487 -0.1960
H18C H -0.4009 0.6236 -0.1913
C3B C 0.4542(4) 1.1354(4) -0.3615(3)
H2B H 0.2813 1.0295 -0.3322
H3B H 0.3026 1.0375 -0.4226
C5B C 0.3696(4) 1.3382(5) -0.2907(3)
H10B H 0.1666 1.3675 -0.3069
H11B H 0.1980 1.2351 -0.2604
C9B C -0.2074(5) 1.4482(6) -0.5033(4)
H13B H -0.1917 1.2421 -0.4955
H14B H -0.0627 1.3086 -0.5316
C11B C -0.2418(5) 1.4664(5) -0.3592(4)
H21B H -0.2241 1.2621 -0.3473
H22B H -0.1147 1.3408 -0.2996
H25C H 0.1981 0.5960 -0.3530
H26C H 0.2795 0.7154 -0.3160
H27C H 0.2034 0.6175 -0.2042
H28C H 0.0707 0.5666 -0.2442
H6A H 0.1633 0.5549 0.5057
H7A H 0.2514 0.4431 0.4660
H17A H 0.5567 1.3513 0.3040
H18A H 0.4009 1.3764 0.3087
H25B H -0.4040 0.8019 0.3970
H26B H -0.2846 0.7205 0.4340
H27B H -0.3825 0.7966 0.5458
H28B H -0.4334 0.9293 0.5058
C4B C 0.4662(4) 1.2186(5) -0.2885(3)
H4B H 0.4816 1.1891 -0.4053
H5B H 0.5122 1.0583 -0.3572
H8B H 0.3747 1.3858 -0.2421
H9B H 0.3950 1.3975 -0.3324
C10B C -0.3092(4) 1.4704(5) -0.4389(4)
H15B H -0.2538 1.4446 -0.5523
H16B H -0.1448 1.5220 -0.5037
H19B H -0.1815 1.5417 -0.3548
H20B H -0.3096 1.4721 -0.3195
H6B H 0.4451 1.1633 -0.2443
H7B H 0.5569 1.2514 -0.2840
H17B H -0.3513 1.5567 -0.4460
H18B H -0.3764 1.4009 -0.4413
loop_
_geom_bond_atom_site_label_1
_geom_bond_atom_site_label_2
_geom_bond_site_symmetry_1
_geom_bond_site_symmetry_2
P1 C1 1_555 1_555
O1 C13 1_555 1_555
C1 C2 1_555 1_555
C2 C3 1_555 1_555
C3 C4 1_555 1_555
C4 C5 1_555 1_555
C5 C6 1_555 1_555
C6 C1 1_555 1_555
C7 P1 1_555 1_555
C8 C7 1_555 1_555
C9 C8 1_555 1_555
C10 C9 1_555 1_555
C11 C10 1_555 1_555
C12 C7 1_555 1_555
C13 C14 1_555 1_555
C14 C15 1_555 1_555
C15 C16 1_555 1_555
C16 O1 1_555 1_555
Li1 P1 1_555 1_555
H1 C1 1_555 1_555
H2 C2 1_555 1_555
H3 C2 1_555 1_555
H4 C3 1_555 1_555
H5 C3 1_555 1_555
H6 C4 1_555 1_555
H7 C4 1_555 1_555
H8 C5 1_555 1_555
H9 C5 1_555 1_555
H10 C6 1_555 1_555
H11 C6 1_555 1_555
H12 C7 1_555 1_555
H13 C8 1_555 1_555
H14 C8 1_555 1_555
H15 C9 1_555 1_555
H16 C9 1_555 1_555
H17 C10 1_555 1_555
H18 C10 1_555 1_555
H19 C11 1_555 1_555
H20 C11 1_555 1_555
H21 C12 1_555 1_555
H22 C12 1_555 1_555
H23 C13 1_555 1_555
H24 C13 1_555 1_555
H25 C14 1_555 1_555
H26 C14 1_555 1_555
H27 C15 1_555 1_555
H28 C15 1_555 1_555
H29 C16 1_555 1_555
H30 C16 1_555 1_555
Li1A P1 1_555 1_555
P1C Li1 1_555 1_555
P1A Li1A 1_555 1_555
O1A Li1A 1_555 1_555
C1C P1C 1_555 1_555
C7C P1C 1_555 1_555
Li1C P1C 1_555 1_555
C1A P1A 1_555 1_555
C7A P1A 1_555 1_555
Li1B P1A 1_555 1_555
C13A O1A 1_555 1_555
C16A O1A 1_555 1_555
C2C C1C 1_555 1_555
C6C C1C 1_555 1_555
H1C C1C 1_555 1_555
C8C C7C 1_555 1_555
C12C C7C 1_555 1_555
H12C C7C 1_555 1_555
P1B Li1C 1_555 1_555
O1C Li1C 1_555 1_555
C2A C1A 1_555 1_555
C6A C1A 1_555 1_555
H1A C1A 1_555 1_555
C8A C7A 1_555 1_555
C12A C7A 1_555 1_555
H12A C7A 1_555 1_555
P1B_2 Li1B 1_555 1_555
O1B Li1B 1_555 1_555
C14A C13A 1_555 1_555
H23A C13A 1_555 1_555
H24A C13A 1_555 1_555
C15A C16A 1_555 1_555
H29A C16A 1_555 1_555
H30A C16A 1_555 1_555
C3C C2C 1_555 1_555
H2C C2C 1_555 1_555
H3C C2C 1_555 1_555
C5C C6C 1_555 1_555
H10C C6C 1_555 1_555
H11C C6C 1_555 1_555
C9C C8C 1_555 1_555
H13C C8C 1_555 1_555
H14C C8C 1_555 1_555
C11C C12C 1_555 1_555
H21C C12C 1_555 1_555
H22C C12C 1_555 1_555
C1B P1B 1_555 1_555
C7B P1B 1_555 1_555
Li1B_2 P1B 1_555 1_555
C13C O1C 1_555 1_555
C16C O1C 1_555 1_555
C3A C2A 1_555 1_555
H2A C2A 1_555 1_555
H3A C2A 1_555 1_555
C5A C6A 1_555 1_555
H10A C6A 1_555 1_555
H11A C6A 1_555 1_555
C9A C8A 1_555 1_555
H13A C8A 1_555 1_555
H14A C8A 1_555 1_555
C11A C12A 1_555 1_555
H21A C12A 1_555 1_555
H22A C12A 1_555 1_555
C13B O1B 1_555 1_555
C16B O1B 1_555 1_555
H25A C14A 1_555 1_555
H26A C14A 1_555 1_555
H27A C15A 1_555 1_555
H28A C15A 1_555 1_555
C4C C3C 1_555 1_555
H4C C3C 1_555 1_555
H5C C3C 1_555 1_555
H8C C5C 1_555 1_555
H9C C5C 1_555 1_555
C10C C9C 1_555 1_555
H15C C9C 1_555 1_555
H16C C9C 1_555 1_555
H19C C11C 1_555 1_555
H20C C11C 1_555 1_555
C2B C1B 1_555 1_555
C6B C1B 1_555 1_555
H1B C1B 1_555 1_555
C8B C7B 1_555 1_555
C12B C7B 1_555 1_555
H12B C7B 1_555 1_555
C14C C13C 1_555 1_555
H23C C13C 1_555 1_555
H24C C13C 1_555 1_555
C15C C16C 1_555 1_555
H29C C16C 1_555 1_555
H30C C16C 1_555 1_555
C4A C3A 1_555 1_555
H4A C3A 1_555 1_555
H5A C3A 1_555 1_555
H8A C5A 1_555 1_555
H9A C5A 1_555 1_555
C10A C9A 1_555 1_555
H15A C9A 1_555 1_555
H16A C9A 1_555 1_555
H19A C11A 1_555 1_555
H20A C11A 1_555 1_555
C14B C13B 1_555 1_555
H23B C13B 1_555 1_555
H24B C13B 1_555 1_555
C15B C16B 1_555 1_555
H29B C16B 1_555 1_555
H30B C16B 1_555 1_555
H6C C4C 1_555 1_555
H7C C4C 1_555 1_555
H17C C10C 1_555 1_555
H18C C10C 1_555 1_555
C3B C2B 1_555 1_555
H2B C2B 1_555 1_555
H3B C2B 1_555 1_555
C5B C6B 1_555 1_555
H10B C6B 1_555 1_555
H11B C6B 1_555 1_555
C9B C8B 1_555 1_555
H13B C8B 1_555 1_555
H14B C8B 1_555 1_555
C11B C12B 1_555 1_555
H21B C12B 1_555 1_555
H22B C12B 1_555 1_555
H25C C14C 1_555 1_555
H26C C14C 1_555 1_555
H27C C15C 1_555 1_555
H28C C15C 1_555 1_555
H6A C4A 1_555 1_555
H7A C4A 1_555 1_555
H17A C10A 1_555 1_555
H18A C10A 1_555 1_555
H25B C14B 1_555 1_555
H26B C14B 1_555 1_555
H27B C15B 1_555 1_555
H28B C15B 1_555 1_555
C4B C3B 1_555 1_555
H4B C3B 1_555 1_555
H5B C3B 1_555 1_555
H8B C5B 1_555 1_555
H9B C5B 1_555 1_555
C10B C9B 1_555 1_555
H15B C9B 1_555 1_555
H16B C9B 1_555 1_555
H19B C11B 1_555 1_555
H20B C11B 1_555 1_555
H6B C4B 1_555 1_555
H7B C4B 1_555 1_555
H17B C10B 1_555 1_555
H18B C10B 1_555 1_555
O1 Li1 1_555 1_555
C11 C12 1_555 1_555
C14A C15A 1_555 1_555
C5C C4C 1_555 1_555
C11C C10C 1_555 1_555
C5A C4A 1_555 1_555
C11A C10A 1_555 1_555
C14C C15C 1_555 1_555
C14B C15B 1_555 1_555
C5B C4B 1_555 1_555
C11B C10B 1_555 1_555

#END
