
#######################################################################
#
#                 Cambridge Crystallographic Data Centre
#                                CCDC 
#
#######################################################################
#
# If this CIF has been generated from an entry in the Cambridge 
# Structural Database, then it will include bibliographic, chemical, 
# crystal, experimental, refinement or atomic coordinate data resulting 
# from the CCDC's data processing and validation procedures.
#
#######################################################################

data_DOXFAX
_symmetry_cell_setting           monoclinic
_symmetry_space_group_name_H-M   'I a'
_symmetry_Int_Tables_number      9
_space_group_name_Hall           'I -2ya'
loop_
_symmetry_equiv_pos_site_id
_symmetry_equiv_pos_as_xyz
1 x,y,z
2 1/2+x,1/2+y,1/2+z
3 1/2+x,-y,z
4 x,1/2-y,1/2+z
_cell_length_a                   8.662(1)
_cell_length_b                   21.438(4)
_cell_length_c                   10.389(3)
_cell_angle_alpha                90
_cell_angle_beta                 95.75(2)
_cell_angle_gamma                90
_cell_volume                     1919.49
loop_
_atom_site_label
_atom_site_type_symbol
_atom_site_fract_x
_atom_site_fract_y
_atom_site_fract_z
P1 P 0.3613 0.0380(1) 0.2438
O1 O -0.0141(10) 0.1221(4) 0.3052(9)
O2 O 0.0057(13) 0.0774(5) 0.0253(10)
Li1 Li 0.0586(26) 0.0515(9) 0.2028(19)
C1 C 0.3744(13) 0.0533(5) 0.4190(12)
C2 C 0.4667(15) 0.0964(5) 0.4865(13)
C3 C 0.4671(16) 0.1039(5) 0.6167(13)
C4 C 0.3799(17) 0.0671(6) 0.6887(14)
C5 C 0.2857(16) 0.0216(5) 0.6263(13)
C6 C 0.2824(14) 0.0161(5) 0.4927(12)
C7 C 0.4086(14) 0.1153(5) 0.1759(11)
C8 C 0.4791(17) 0.1152(6) 0.0642(15)
C9 C 0.5037(18) 0.1702(7) -0.0025(15)
C10 C 0.4512(18) 0.2261(6) 0.0447(15)
C11 C 0.3808(17) 0.2255(6) 0.1605(14)
C12 C 0.3618(18) 0.1710(5) 0.2232(14)
C13 C 0.0129(19) 0.1357(7) 0.4385(15)
C14 C -0.1058(24) 0.1826(9) 0.4700(19)
C15 C -0.1911(19) 0.1996(7) 0.3415(16)
C16 C -0.1678(23) 0.1479(8) 0.2622(19)
C17 C -0.1483(28) 0.0618(10) -0.0481(23)
C18 C -0.1542(29) 0.1174(10) -0.1506(23)
C19 C -0.0117(26) 0.1116(9) -0.1900(22)
C20 C 0.1090(37) 0.0960(13) -0.0593(30)
H1 H 0.5331 0.1223 0.4405
H2 H 0.5308 0.1358 0.6591
H3 H 0.3836 0.0725 0.7807
H4 H 0.2241 -0.0053 0.6744
H5 H 0.2145 -0.0143 0.4492
H6 H 0.5133 0.0763 0.0309
H7 H 0.5553 0.1694 -0.0800
H8 H 0.4629 0.2644 -0.0012
H9 H 0.3461 0.2639 0.1956
H10 H 0.3142 0.1714 0.3029
H11 H 0.0033 0.0985 0.4882
H12 H 0.1151 0.1528 0.4575
H13 H -0.1759 0.1646 0.5260
H14 H -0.0571 0.2186 0.5109
H15 H -0.1481 0.2366 0.3076
H16 H -0.2994 0.2057 0.3493
H17 H -0.2466 0.1170 0.2707
H18 H -0.1716 0.1608 0.1733
Li1B Li 0.5586(26) -0.0515(9) 0.2028(19)
P1B P -0.1387 -0.0380(1) 0.2438
loop_
_geom_bond_atom_site_label_1
_geom_bond_atom_site_label_2
_geom_bond_site_symmetry_1
_geom_bond_site_symmetry_2
P1 Li1 1_555 1_555
O1 Li1 1_555 1_555
O2 Li1 1_555 1_555
Li1 P1B 1_555 1_555
C1 P1 1_555 1_555
C2 C1 1_555 1_555
C3 C2 1_555 1_555
C4 C3 1_555 1_555
C5 C4 1_555 1_555
C6 C1 1_555 1_555
C7 P1 1_555 1_555
C8 C7 1_555 1_555
C9 C8 1_555 1_555
C10 C9 1_555 1_555
C11 C10 1_555 1_555
C12 C7 1_555 1_555
C13 O1 1_555 1_555
C14 C13 1_555 1_555
C15 C14 1_555 1_555
C16 O1 1_555 1_555
C17 O2 1_555 1_555
C18 C17 1_555 1_555
C19 C18 1_555 1_555
C20 O2 1_555 1_555
H1 C2 1_555 1_555
H2 C3 1_555 1_555
H3 C4 1_555 1_555
H4 C5 1_555 1_555
H5 C6 1_555 1_555
H6 C8 1_555 1_555
H7 C9 1_555 1_555
H8 C10 1_555 1_555
H9 C11 1_555 1_555
H10 C12 1_555 1_555
H11 C13 1_555 1_555
H12 C13 1_555 1_555
H13 C14 1_555 1_555
H14 C14 1_555 1_555
H15 C15 1_555 1_555
H16 C15 1_555 1_555
H17 C16 1_555 1_555
H18 C16 1_555 1_555
Li1B P1 1_555 1_555
C5 C6 1_555 1_555
C11 C12 1_555 1_555
C15 C16 1_555 1_555
C19 C20 1_555 1_555

#END
