
#######################################################################
#
#                 Cambridge Crystallographic Data Centre
#                                CCDC 
#
#######################################################################
#
# If this CIF has been generated from an entry in the Cambridge 
# Structural Database, then it will include bibliographic, chemical, 
# crystal, experimental, refinement or atomic coordinate data resulting 
# from the CCDC's data processing and validation procedures.
#
#######################################################################

data_DOXJIK
_symmetry_cell_setting           monoclinic
_symmetry_space_group_name_H-M   'P 21/c'
_symmetry_Int_Tables_number      14
_space_group_name_Hall           '-P 2ybc'
loop_
_symmetry_equiv_pos_site_id
_symmetry_equiv_pos_as_xyz
1 x,y,z
2 -x,1/2+y,1/2-z
3 -x,-y,-z
4 x,1/2-y,1/2+z
_cell_length_a                   11.203(2)
_cell_length_b                   7.138(2)
_cell_length_c                   14.409(2)
_cell_angle_alpha                90
_cell_angle_beta                 91.63(1)
_cell_angle_gamma                90
_cell_volume                     1151.78
loop_
_atom_site_label
_atom_site_type_symbol
_atom_site_fract_x
_atom_site_fract_y
_atom_site_fract_z
N1 N 0.3548(3) 0.1060(3) 0.04418(18)
N2 N 0.4258(3) 0.2507(3) 0.0699(2)
N3 N 0.3703(3) 0.4110(3) 0.05538(18)
N4 N 0.2599(3) 0.3758(3) 0.01874(19)
N5 N 0.1560(2) 0.0908(3) -0.02003(17)
N6 N 0.0759(3) 0.1929(4) -0.05564(19)
N7 N -0.0003(4) 0.2692(4) -0.0901(3)
C1 C 0.2562(3) 0.1916(4) 0.0135(2)
N8 N 0.6461(2) -0.0915(3) 0.19955(18)
N9 N 0.5727(3) -0.2365(3) 0.1790(2)
N10 N 0.6260(3) -0.3949(3) 0.20121(19)
N11 N 0.7370(3) -0.3595(3) 0.23650(19)
N12 N 0.8449(2) -0.0708(3) 0.26410(16)
N13 N 0.9229(3) -0.1673(4) 0.30621(19)
N14 N 0.9997(4) -0.2346(4) 0.3449(3)
C2 C 0.7437(3) -0.1736(4) 0.2337(2)
O1 O 0.7329(3) 0.2806(4) 0.3193(2)
O2 O 0.7329(3) 0.2715(3) 0.06975(19)
Na1 Na 0.59353(15) 0.24990(12) 0.18799(10)
Na2 Na 0.59447(15) 0.26509(13) 0.43837(10)
H1 H 0.786(3) 0.192(4) 0.070(2)
H2 H 0.793(4) 0.213(5) 0.312(3)
H3 H 0.758(3) 0.371(5) 0.308(2)
H4 H 0.764(3) 0.367(4) 0.048(2)
N1A N 0.6452(3) 0.6060(3) 0.45582(18)
N2C N 0.4258(3) 0.2493(3) 0.5699(2)
N3A N 0.6297(3) -0.0890(3) 0.44462(18)
N9A N 0.4273(3) 0.2635(3) 0.3210(2)
N10_2 N 0.6260(3) 0.6051(3) 0.20121(19)
O2C O 0.7329(3) 0.2285(3) 0.56975(19)
Na1A Na 0.40647(15) -0.25010(12) 0.31201(10)
Na1_2 Na 0.59353(15) -0.75010(12) 0.18799(10)
Na2A Na 0.40553(15) -0.23491(13) 0.06163(10)
Na2C Na 0.59447(15) 0.23491(13) -0.06163(10)
Na2A_2 Na 0.40553(15) 0.76509(13) 0.06163(10)
H1C H 0.786(3) 0.308(4) 0.570(2)
H4C H 0.764(3) 0.133(4) 0.548(2)
loop_
_geom_bond_atom_site_label_1
_geom_bond_atom_site_label_2
_geom_bond_site_symmetry_1
_geom_bond_site_symmetry_2
N1 N2 1_555 1_555
N2 N3 1_555 1_555
N3 N4 1_555 1_555
N4 C1 1_555 1_555
N5 N6 1_555 1_555
N6 N7 1_555 1_555
C1 N1 1_555 1_555
N8 N9 1_555 1_555
N9 N10 1_555 1_555
N10 N11 1_555 1_555
N11 C2 1_555 1_555
N12 N13 1_555 1_555
N13 N14 1_555 1_555
C2 N8 1_555 1_555
O1 Na1 1_555 1_555
O2 Na1 1_555 1_555
Na1 N2 1_555 1_555
Na2 O1 1_555 1_555
H1 O2 1_555 1_555
H2 O1 1_555 1_555
H3 O1 1_555 1_555
H4 O2 1_555 1_555
N1A Na2 1_555 1_555
N2C Na2 1_555 1_555
N3A Na2 1_555 1_555
N9A Na1 1_555 1_555
N10_2 Na1 1_555 1_555
O2C Na2 1_555 1_555
Na1A N9 1_555 1_555
Na1_2 N10 1_555 1_555
Na2A N1 1_555 1_555
Na2C N2 1_555 1_555
Na2A_2 N3 1_555 1_555
H1C O2C 1_555 1_555
H4C O2C 1_555 1_555
N5 C1 1_555 1_555
N8 Na1 1_555 1_555
N9 Na2A 1_555 1_555
N12 C2 1_555 1_555
O2 Na2C 1_555 1_555
Na2 N9A 1_555 1_555

#END
