
#######################################################################
#
#                 Cambridge Crystallographic Data Centre
#                                CCDC 
#
#######################################################################
#
# If this CIF has been generated from an entry in the Cambridge 
# Structural Database, then it will include bibliographic, chemical, 
# crystal, experimental, refinement or atomic coordinate data resulting 
# from the CCDC's data processing and validation procedures.
#
#######################################################################

data_DOXKIL
_symmetry_cell_setting           monoclinic
_symmetry_space_group_name_H-M   'P 21/c'
_symmetry_Int_Tables_number      14
_space_group_name_Hall           '-P 2ybc'
loop_
_symmetry_equiv_pos_site_id
_symmetry_equiv_pos_as_xyz
1 x,y,z
2 -x,1/2+y,1/2-z
3 -x,-y,-z
4 x,1/2-y,1/2+z
_cell_length_a                   9.7759(9)
_cell_length_b                   6.2990(6)
_cell_length_c                   8.4533(6)
_cell_angle_alpha                90
_cell_angle_beta                 96.720(8)
_cell_angle_gamma                90
_cell_volume                     516.964
loop_
_atom_site_label
_atom_site_type_symbol
_atom_site_fract_x
_atom_site_fract_y
_atom_site_fract_z
N1 N 0.8117(2) 0.0750(4) 0.1770(2)
N2 N 0.8382(2) 0.4167(4) 0.1463(2)
N3 N 0.8874(2) 0.2283(4) 0.1165(2)
N4 N 0.7279(2) 0.3945(4) 0.2281(2)
N5 N 0.6192(2) 0.0780(4) 0.3220(2)
C1 C 0.7174(2) 0.1860(4) 0.2423(3)
K1 K 0.83207(5) -0.26499(8) 0.43066(6)
N6 N 0.4584(2) 0.2696(3) 0.4547(3)
N7 N 0.5377(2) 0.1950(3) 0.3885(2)
N1C N 0.8117(2) -0.5750(4) 0.6770(2)
N2C N 0.8382(2) 0.0833(4) 0.6463(2)
N3A N 1.1126(2) -0.2717(4) 0.3835(2)
N4_2 N 0.7279(2) -0.6055(4) 0.2281(2)
K1C K 0.83207(5) -0.23501(8) -0.06934(6)
K1C_2 K 0.83207(5) 0.76499(8) -0.06934(6)
K1A K 1.16793(5) 0.23501(8) 0.06934(6)
K1_2 K 0.83207(5) 0.73501(8) 0.43066(6)
loop_
_geom_bond_atom_site_label_1
_geom_bond_atom_site_label_2
_geom_bond_site_symmetry_1
_geom_bond_site_symmetry_2
N1 N3 1_555 1_555
N2 N3 1_555 1_555
N3 K1A 1_555 1_555
N4 N2 1_555 1_555
N5 C1 1_555 1_555
C1 N1 1_555 1_555
K1 N1 1_555 1_555
N6 N7 1_555 1_555
N7 N5 1_555 1_555
N1C K1 1_555 1_555
N2C K1 1_555 1_555
N3A K1 1_555 1_555
N4_2 K1 1_555 1_555
K1C N1 1_555 1_555
K1C_2 N2 1_555 1_555
K1_2 N4 1_555 1_555
N4 C1 1_555 1_555
N5 K1 1_555 1_555

#END
