
#######################################################################
#
#                 Cambridge Crystallographic Data Centre
#                                CCDC 
#
#######################################################################
#
# If this CIF has been generated from an entry in the Cambridge 
# Structural Database, then it will include bibliographic, chemical, 
# crystal, experimental, refinement or atomic coordinate data resulting 
# from the CCDC's data processing and validation procedures.
#
#######################################################################

data_DOXQEN
_symmetry_cell_setting           triclinic
_symmetry_space_group_name_H-M   'P -1'
_symmetry_Int_Tables_number      2
_space_group_name_Hall           '-P 1'
loop_
_symmetry_equiv_pos_site_id
_symmetry_equiv_pos_as_xyz
1 x,y,z
2 -x,-y,-z
_cell_length_a                   13.671(3)
_cell_length_b                   13.975(3)
_cell_length_c                   14.413(3)
_cell_angle_alpha                63.85(3)
_cell_angle_beta                 87.23(3)
_cell_angle_gamma                65.53(3)
_cell_volume                     2219.19
loop_
_atom_site_label
_atom_site_type_symbol
_atom_site_fract_x
_atom_site_fract_y
_atom_site_fract_z
Cu3 Cu 0.8114(2) 0.7386(2) -0.6502(2)
N5 N 0.8875(16) 0.6766(15) -0.7420(14)
N6 N 0.9650(16) 0.6523(15) -0.5638(13)
C1 C 0.6537(13) 0.9510(12) -0.6506(12)
H1 H 0.6778 0.9892 -0.7113
C2 C 0.5796(15) 1.0145(13) -0.6100(13)
H2 H 0.5526 1.0966 -0.6426
C3 C 0.5446(16) 0.9591(14) -0.5223(14)
C4 C 0.5837(18) 0.8402(14) -0.4751(15)
H3 H 0.5595 0.8020 -0.4145
C5 C 0.6578(17) 0.7767(13) -0.5158(15)
H4 H 0.6848 0.6945 -0.4832
N7 N 0.6928(14) 0.8321(12) -0.6035(12)
C15 C 1.042(2) 0.6042(19) -0.6175(19)
C21 C 1.1542(19) 0.5433(19) -0.5763(17)
H16 H 1.2069 0.5133 -0.6120
C23 C 0.842(2) 0.678(2) -0.8239(19)
H17 H 0.7662 0.7154 -0.8427
C26 C 0.9989(17) 0.6122(15) -0.7088(14)
C29 C 1.0619(19) 0.5547(18) -0.7660(16)
H22 H 1.1371 0.5123 -0.7454
C30 C 1.183(3) 0.530(2) -0.471(2)
H23 H 1.2542 0.4884 -0.4365
C31 C 1.101(3) 0.581(2) -0.428(2)
H24 H 1.1180 0.5746 -0.3627
C32 C 0.999(2) 0.639(2) -0.4725(19)
H25 H 0.9469 0.6738 -0.4385
C34 C 1.014(3) 0.560(2) -0.852(2)
H27 H 1.0547 0.5222 -0.8897
C35 C 0.904(3) 0.624(3) -0.879(2)
H28 H 0.8701 0.6322 -0.9380
Cu3A Cu 0.1886(2) 1.2614(2) -0.3498(2)
N5A N 0.1125(16) 1.3234(15) -0.2580(14)
N6A N 0.0350(16) 1.3477(15) -0.4362(13)
C1A C 0.3463(13) 1.0490(12) -0.3494(12)
H1A H 0.3222 1.0108 -0.2887
C2A C 0.4204(15) 0.9855(13) -0.3900(13)
H2A H 0.4474 0.9034 -0.3574
C3A C 0.4554(16) 1.0409(14) -0.4777(14)
C4A C 0.4163(18) 1.1598(14) -0.5249(15)
H3A H 0.4405 1.1980 -0.5855
C5A C 0.3422(17) 1.2233(13) -0.4842(15)
H4A H 0.3152 1.3055 -0.5168
N7A N 0.3072(14) 1.1679(12) -0.3965(12)
C15A C -0.042(2) 1.3958(19) -0.3825(19)
C21A C -0.1542(19) 1.4567(19) -0.4237(17)
H16A H -0.2069 1.4867 -0.3880
C23A C 0.158(2) 1.322(2) -0.1761(19)
H17A H 0.2338 1.2846 -0.1573
C26A C 0.0011(17) 1.3878(15) -0.2912(14)
C29A C -0.0619(19) 1.4453(18) -0.2340(16)
H22A H -0.1371 1.4877 -0.2546
C30A C -0.183(3) 1.470(2) -0.529(2)
H23A H -0.2542 1.5116 -0.5635
C31A C -0.101(3) 1.419(2) -0.572(2)
H24A H -0.1180 1.4254 -0.6373
C32A C 0.001(2) 1.361(2) -0.5275(19)
H25A H 0.0531 1.3262 -0.5615
C34A C -0.014(3) 1.440(2) -0.148(2)
H27A H -0.0547 1.4778 -0.1103
C35A C 0.096(3) 1.376(3) -0.121(2)
H28A H 0.1299 1.3678 -0.0620
O23 O 0.225(4) 1.267(3) -0.662(3)
W1 W 0.77025(6) 1.32248(6) -1.00432(6)
W2 W 0.42239(7) 1.78981(6) -1.05045(6)
W3 W 0.32973(6) 1.73068(6) -1.23090(5)
W4 W 0.59117(7) 1.54050(7) -1.23605(5)
W5 W 0.68467(7) 1.62216(7) -1.07591(6)
W6 W 0.39033(7) 1.44038(8) -1.17125(6)
B1 B 0.5000 1.5000 -1.0000
Cu1 Cu -0.0976(2) 2.1771(2) -0.49250(18)
Cu2 Cu 0.5000 2.0000 -1.0000
O1 O 0.6341(13) 1.5680(12) -1.3535(11)
O2 O 0.3412(12) 1.4096(12) -1.2554(10)
O3 O 0.8974(13) 1.2369(14) -1.0082(11)
O4 O 0.5110(16) 1.4647(16) -1.2412(16)
O5 O 0.3681(16) 1.8187(16) -1.1851(14)
O6 O 0.7806(16) 1.4598(14) -1.0254(12)
O7 O 0.4600(14) 1.6820(14) -1.2795(15)
O8 O 0.5581(19) 1.7536(18) -1.1008(16)
O9 O 0.6960(16) 1.5885(15) -0.9315(14)
O10 O 0.3075(14) 1.6053(14) -1.2385(14)
O11 O 0.599(2) 1.493(2) -1.0576(19)
O12 O 0.540(2) 1.583(2) -0.9953(19)
O13 O 0.593(2) 1.379(2) -0.9502(19)
O14 O 0.6477(16) 1.6297(14) -1.2015(12)
O15 O 0.7058(15) 1.2213(15) -0.9953(12)
O16 O 0.7761(12) 1.6778(11) -1.1075(10)
O17 O 0.3861(12) 1.9319(11) -1.0805(10)
O18 O 0.2465(12) 1.8422(12) -1.3445(10)
O19 O 0.7750(16) 1.2685(15) -0.8606(12)
O20 O 0.7077(14) 1.4019(13) -1.1483(11)
O21 O 0.4976(15) 1.7179(15) -0.9187(12)
O22 O 0.462(2) 1.546(2) -1.1186(18)
N1 N -0.2367(15) 2.2400(14) -0.4407(12)
N2 N -0.0367(15) 2.1120(14) -0.3291(13)
N3 N 0.3926(16) 2.0205(16) -0.9116(13)
N4 N -0.0018(14) 2.1475(13) -0.5872(12)
C6 C -0.0305(17) 2.2071(16) -0.6970(14)
H5 H -0.1022 2.2627 -0.7268
C7 C 0.0442(17) 2.1859(17) -0.7623(15)
H6 H 0.0232 2.2305 -0.8346
C8 C 0.1000(16) 2.0626(16) -0.5495(14)
H7 H 0.1209 2.0169 -0.4772
C9 C 0.1501(16) 2.0986(15) -0.7205(14)
C10 C -0.0948(15) 2.1543(14) -0.1875(13)
H8 H -0.1508 2.1912 -0.1581
C11 C 0.2343(15) 2.0689(15) -0.7838(13)
C12 C 0.095(2) 2.0421(19) -0.1853(16)
H9 H 0.1667 1.9996 -0.1519
C13 C -0.2302(17) 2.2224(18) -0.3430(15)
C14 C -0.428(2) 2.335(2) -0.4607(18)
H10 H -0.4958 2.3802 -0.5040
C16 C -0.3219(17) 2.2571(15) -0.2976(15)
H11 H -0.3159 2.2456 -0.2291
C17 C 0.1740(17) 2.0399(16) -0.6116(13)
H12 H 0.2447 1.9822 -0.5800
C18 C 0.3434(18) 2.0298(17) -0.7521(15)
H13 H 0.3680 2.0183 -0.6873
C19 C 0.2853(18) 2.0533(17) -0.9393(14)
H14 H 0.2657 2.0583 -1.0028
C20 C 0.418(2) 2.007(2) -0.8220(16)
H15 H 0.4910 1.9809 -0.7994
C22 C -0.1160(18) 2.1596(17) -0.2863(14)
C24 C 0.063(2) 2.0597(19) -0.2814(17)
H18 H 0.1174 2.0316 -0.3164
C25 C 0.205(2) 2.0791(17) -0.8839(16)
H19 H 0.1328 2.1025 -0.9091
C27 C -0.422(2) 2.309(2) -0.3582(19)
H20 H -0.4849 2.3269 -0.3289
C28 C -0.338(2) 2.296(2) -0.4993(17)
H21 H -0.3439 2.3077 -0.5677
C33 C 0.0056(19) 2.0958(19) -0.1406(16)
H26 H 0.0206 2.0885 -0.0749
W1A W 0.22975(6) 1.67752(6) -0.99568(6)
W2A W 0.57761(7) 1.21019(6) -0.94955(6)
W3A W 0.67027(6) 1.26932(6) -0.76910(5)
W4A W 0.40883(7) 1.45950(7) -0.76395(5)
W5A W 0.31533(7) 1.37784(7) -0.92409(6)
W6A W 0.60967(7) 1.55962(8) -0.82875(6)
Cu1A Cu 1.0976(2) 1.8229(2) -1.50750(18)
Cu2_2 Cu 0.5000 1.0000 -1.0000
O1A O 0.3659(13) 1.4320(12) -0.6465(11)
O2A O 0.6588(12) 1.5904(12) -0.7446(10)
O3A O 0.1026(13) 1.7631(14) -0.9918(11)
O4A O 0.4890(16) 1.5353(16) -0.7588(16)
O5A O 0.6319(16) 1.1813(16) -0.8149(14)
O6A O 0.2194(16) 1.5402(14) -0.9746(12)
O7A O 0.5400(14) 1.3180(14) -0.7205(15)
O8A O 0.4419(19) 1.2464(18) -0.8992(16)
O9A O 0.3040(16) 1.4115(15) -1.0685(14)
O10A O 0.6925(14) 1.3947(14) -0.7615(14)
O11A O 0.401(2) 1.507(2) -0.9424(19)
O12A O 0.460(2) 1.417(2) -1.0047(19)
O13A O 0.407(2) 1.621(2) -1.0498(19)
O14A O 0.3523(16) 1.3703(14) -0.7985(12)
O15A O 0.2942(15) 1.7787(15) -1.0047(12)
O16A O 0.2239(12) 1.3222(11) -0.8925(10)
O17A O 0.6139(12) 2.0681(11) -0.9195(10)
O17A_2 O 0.6139(12) 1.0681(11) -0.9195(10)
O18A O 0.7535(12) 1.1578(12) -0.6555(10)
O19A O 0.2250(16) 1.7315(15) -1.1394(12)
O20A O 0.2923(14) 1.5981(13) -0.8517(11)
O21A O 0.5024(15) 1.2821(15) -1.0813(12)
O22A O 0.538(2) 1.454(2) -0.8814(18)
N1A N 1.2367(15) 1.7600(14) -1.5593(12)
N2A N 1.0367(15) 1.8880(14) -1.6709(13)
N3A N 0.6074(16) 1.9795(16) -1.0884(13)
N4A N 1.0018(14) 1.8525(13) -1.4128(12)
C6A C 1.0305(17) 1.7929(16) -1.3030(14)
H5A H 1.1022 1.7373 -1.2732
C7A C 0.9558(17) 1.8141(17) -1.2377(15)
H6A H 0.9768 1.7695 -1.1654
C8A C 0.9000(16) 1.9374(16) -1.4505(14)
H7A H 0.8791 1.9831 -1.5228
C9A C 0.8499(16) 1.9014(15) -1.2795(14)
C10A C 1.0948(15) 1.8457(14) -1.8125(13)
H8A H 1.1508 1.8088 -1.8419
C11A C 0.7657(15) 1.9311(15) -1.2162(13)
C12A C 0.905(2) 1.9579(19) -1.8147(16)
H9A H 0.8333 2.0004 -1.8481
C13A C 1.2302(17) 1.7776(18) -1.6570(15)
C14A C 1.428(2) 1.665(2) -1.5393(18)
H10A H 1.4958 1.6198 -1.4960
C16A C 1.3219(17) 1.7429(15) -1.7024(15)
H11A H 1.3159 1.7544 -1.7709
C17A C 0.8260(17) 1.9601(16) -1.3884(13)
H12A H 0.7553 2.0178 -1.4200
C18A C 0.6566(18) 1.9702(17) -1.2479(15)
H13A H 0.6320 1.9817 -1.3127
C19A C 0.7147(18) 1.9467(17) -1.0607(14)
H14A H 0.7343 1.9417 -0.9972
C20A C 0.582(2) 1.993(2) -1.1780(16)
H15A H 0.5090 2.0191 -1.2006
C22A C 1.1160(18) 1.8404(17) -1.7137(14)
C24A C 0.937(2) 1.9403(19) -1.7186(17)
H18A H 0.8826 1.9684 -1.6836
C25A C 0.795(2) 1.9209(17) -1.1161(16)
H19A H 0.8672 1.8975 -1.0909
C27A C 1.422(2) 1.691(2) -1.6418(19)
H20A H 1.4849 1.6731 -1.6711
C28A C 1.338(2) 1.704(2) -1.5007(17)
H21A H 1.3439 1.6923 -1.4323
C33A C 0.9944(19) 1.9042(19) -1.8594(16)
H26A H 0.9794 1.9115 -1.9251
loop_
_geom_bond_atom_site_label_1
_geom_bond_atom_site_label_2
_geom_bond_site_symmetry_1
_geom_bond_site_symmetry_2
W1 O3 1_555 1_555
W2 O5 1_555 1_555
W3 O5 1_555 1_555
W4 O1 1_555 1_555
W5 O6 1_555 1_555
W6 O2 1_555 1_555
B1 O11 1_555 1_555
Cu1 N1 1_555 1_555
Cu2 O17 1_555 1_555
Cu3 N5 1_555 1_555
O4 W4 1_555 1_555
O6 W1 1_555 1_555
O7 W3 1_555 1_555
O8 W2 1_555 1_555
O9 W5 1_555 1_555
O10 W3 1_555 1_555
O11 W1 1_555 1_555
O12 W2 1_555 1_555
O13 W1 1_555 1_555
O14 W4 1_555 1_555
O15 W1 1_555 1_555
O16 W5 1_555 1_555
O17 W2 1_555 1_555
O18 W3 1_555 1_555
O19 W1 1_555 1_555
O20 W1 1_555 1_555
O21 W2 1_555 1_555
O22 W3 1_555 1_555
N1 C13 1_555 1_555
N2 Cu1 1_555 1_555
N3 Cu2 1_555 1_555
N4 Cu1 1_555 1_555
N5 C23 1_555 1_555
N6 Cu3 1_555 1_555
C1 H1 1_555 1_555
C2 C1 1_555 1_555
H2 C2 1_555 1_555
C3 C2 1_555 1_555
C4 C3 1_555 1_555
H3 C4 1_555 1_555
C5 C4 1_555 1_555
H4 C5 1_555 1_555
N7 Cu3 1_555 1_555
C6 N4 1_555 1_555
H5 C6 1_555 1_555
C7 C6 1_555 1_555
H6 C7 1_555 1_555
C8 N4 1_555 1_555
H7 C8 1_555 1_555
C9 C7 1_555 1_555
C10 H8 1_555 1_555
C11 C9 1_555 1_555
C12 H9 1_555 1_555
C13 C16 1_555 1_555
C14 H10 1_555 1_555
C15 N6 1_555 1_555
C16 H11 1_555 1_555
C17 C8 1_555 1_555
H12 C17 1_555 1_555
C18 C11 1_555 1_555
H13 C18 1_555 1_555
C19 N3 1_555 1_555
H14 C19 1_555 1_555
C20 N3 1_555 1_555
H15 C20 1_555 1_555
C21 C15 1_555 1_555
H16 C21 1_555 1_555
C22 N2 1_555 1_555
C23 H17 1_555 1_555
C24 N2 1_555 1_555
H18 C24 1_555 1_555
C25 C11 1_555 1_555
H19 C25 1_555 1_555
C26 N5 1_555 1_555
C27 C14 1_555 1_555
H20 C27 1_555 1_555
C28 N1 1_555 1_555
H21 C28 1_555 1_555
C29 C26 1_555 1_555
H22 C29 1_555 1_555
C30 C21 1_555 1_555
H23 C30 1_555 1_555
C31 C30 1_555 1_555
H24 C31 1_555 1_555
C32 N6 1_555 1_555
H25 C32 1_555 1_555
C33 C10 1_555 1_555
H26 C33 1_555 1_555
C34 C29 1_555 1_555
H27 C34 1_555 1_555
C35 C23 1_555 1_555
H28 C35 1_555 1_555
W1A O3A 1_555 1_555
W2A O13 1_555 1_555
W3A O13 1_555 1_555
W4A O1A 1_555 1_555
W5A O6A 1_555 1_555
W6A O9 1_555 1_555
Cu1A N1A 1_555 1_555
Cu2_2 O17A_2 1_555 1_555
Cu3A N5A 1_555 1_555
O2A W6A 1_555 1_555
O4A W4A 1_555 1_555
O5A W2A 1_555 1_555
O6A W1A 1_555 1_555
O7A W3A 1_555 1_555
O8A W2A 1_555 1_555
O9A W6 1_555 1_555
O10A W3A 1_555 1_555
O11A B1 1_555 1_555
O12A W6 1_555 1_555
O13A W2 1_555 1_555
O14A W4A 1_555 1_555
O15A W2 1_555 1_555
O16A W5A 1_555 1_555
O17A Cu2 1_555 1_555
O17A_2 W2A 1_555 1_555
O18A W3A 1_555 1_555
O19A W3 1_555 1_555
O20A W1A 1_555 1_555
O21A W6 1_555 1_555
O22A B1 1_555 1_555
N1A C13A 1_555 1_555
N2A Cu1A 1_555 1_555
N3A Cu2 1_555 1_555
N4A Cu1A 1_555 1_555
N5A C23A 1_555 1_555
N6A Cu3A 1_555 1_555
C1A H1A 1_555 1_555
C2A C1A 1_555 1_555
H2A C2A 1_555 1_555
C3A C3 1_555 1_555
C4A C3A 1_555 1_555
H3A C4A 1_555 1_555
C5A C4A 1_555 1_555
H4A C5A 1_555 1_555
N7A Cu3A 1_555 1_555
C6A N4A 1_555 1_555
H5A C6A 1_555 1_555
C7A C6A 1_555 1_555
H6A C7A 1_555 1_555
C8A N4A 1_555 1_555
H7A C8A 1_555 1_555
C9A C7A 1_555 1_555
C10A H8A 1_555 1_555
C11A C9A 1_555 1_555
C12A H9A 1_555 1_555
C13A C16A 1_555 1_555
C14A H10A 1_555 1_555
C15A N6A 1_555 1_555
C16A H11A 1_555 1_555
C17A C8A 1_555 1_555
H12A C17A 1_555 1_555
C18A C11A 1_555 1_555
H13A C18A 1_555 1_555
C19A N3A 1_555 1_555
H14A C19A 1_555 1_555
C20A N3A 1_555 1_555
H15A C20A 1_555 1_555
C21A C15A 1_555 1_555
H16A C21A 1_555 1_555
C22A N2A 1_555 1_555
C23A H17A 1_555 1_555
C24A N2A 1_555 1_555
H18A C24A 1_555 1_555
C25A C11A 1_555 1_555
H19A C25A 1_555 1_555
C26A N5A 1_555 1_555
C27A C14A 1_555 1_555
H20A C27A 1_555 1_555
C28A N1A 1_555 1_555
H21A C28A 1_555 1_555
C29A C26A 1_555 1_555
H22A C29A 1_555 1_555
C30A C21A 1_555 1_555
H23A C30A 1_555 1_555
C31A C30A 1_555 1_555
H24A C31A 1_555 1_555
C32A N6A 1_555 1_555
H25A C32A 1_555 1_555
C33A C10A 1_555 1_555
H26A C33A 1_555 1_555
C34A C29A 1_555 1_555
H27A C34A 1_555 1_555
C35A C23A 1_555 1_555
H28A C35A 1_555 1_555
W3 O13A 1_555 1_555
W4 O7 1_555 1_555
W4 O11 1_555 1_555
W4 O20 1_555 1_555
W4 O22 1_555 1_555
W5 O8 1_555 1_555
W5 O11 1_555 1_555
W5 O12 1_555 1_555
W5 O14 1_555 1_555
W6 O4 1_555 1_555
W6 O10 1_555 1_555
W6 O22 1_555 1_555
B1 O12 1_555 1_555
B1 O13 1_555 1_555
B1 O22 1_555 1_555
B1 O12A 1_555 1_555
B1 O13A 1_555 1_555
O11 O12 1_555 1_555
O11 O13 1_555 1_555
O11 O22 1_555 1_555
O12 W6A 1_555 1_555
O12 O13A 1_555 1_555
O12 O22A 1_555 1_555
O13 O12A 1_555 1_555
O13 O22A 1_555 1_555
O15 W2A 1_555 1_555
O19 W3A 1_555 1_555
O21 W6A 1_555 1_555
O22 O12A 1_555 1_555
O22 O13A 1_555 1_555
C1 N7 1_555 1_555
C5 N7 1_555 1_555
C9 C17 1_555 1_555
C10 C22 1_555 1_555
C12 C24 1_555 1_555
C12 C33 1_555 1_555
C13 C22 1_555 1_555
C14 C28 1_555 1_555
C15 C26 1_555 1_555
C16 C27 1_555 1_555
C18 C20 1_555 1_555
C19 C25 1_555 1_555
C31 C32 1_555 1_555
C34 C35 1_555 1_555
W1A O11A 1_555 1_555
W1A O13A 1_555 1_555
W1A O15A 1_555 1_555
W1A O19A 1_555 1_555
W2A O12A 1_555 1_555
W2A O21A 1_555 1_555
W3A O5A 1_555 1_555
W3A O22A 1_555 1_555
W4A O7A 1_555 1_555
W4A O11A 1_555 1_555
W4A O20A 1_555 1_555
W4A O22A 1_555 1_555
W5A O8A 1_555 1_555
W5A O9A 1_555 1_555
W5A O11A 1_555 1_555
W5A O12A 1_555 1_555
W5A O14A 1_555 1_555
W6A O4A 1_555 1_555
W6A O10A 1_555 1_555
W6A O22A 1_555 1_555
O11A O12A 1_555 1_555
O11A O13A 1_555 1_555
O11A O22A 1_555 1_555
C1A N7A 1_555 1_555
C2A C3A 1_555 1_555
C5A N7A 1_555 1_555
C9A C17A 1_555 1_555
C10A C22A 1_555 1_555
C12A C24A 1_555 1_555
C12A C33A 1_555 1_555
C13A C22A 1_555 1_555
C14A C28A 1_555 1_555
C15A C26A 1_555 1_555
C16A C27A 1_555 1_555
C18A C20A 1_555 1_555
C19A C25A 1_555 1_555
C31A C32A 1_555 1_555
C34A C35A 1_555 1_555

#END
