
#######################################################################
#
#                 Cambridge Crystallographic Data Centre
#                                CCDC 
#
#######################################################################
#
# If this CIF has been generated from an entry in the Cambridge 
# Structural Database, then it will include bibliographic, chemical, 
# crystal, experimental, refinement or atomic coordinate data resulting 
# from the CCDC's data processing and validation procedures.
#
#######################################################################

data_DOYBUQ
_symmetry_cell_setting           orthorhombic
_symmetry_space_group_name_H-M   'F m m m'
_symmetry_Int_Tables_number      69
_space_group_name_Hall           '-F 2 2'
loop_
_symmetry_equiv_pos_site_id
_symmetry_equiv_pos_as_xyz
1 x,y,z
2 -x,-y,z
3 x,-y,-z
4 -x,y,-z
5 x,1/2+y,1/2+z
6 -x,1/2-y,1/2+z
7 x,1/2-y,1/2-z
8 -x,1/2+y,1/2-z
9 1/2+x,y,1/2+z
10 1/2-x,-y,1/2+z
11 1/2+x,-y,1/2-z
12 1/2-x,y,1/2-z
13 1/2+x,1/2+y,z
14 1/2-x,1/2-y,z
15 1/2+x,1/2-y,-z
16 1/2-x,1/2+y,-z
17 -x,-y,-z
18 x,y,-z
19 -x,y,z
20 x,-y,z
21 -x,1/2-y,1/2-z
22 x,1/2+y,1/2-z
23 -x,1/2+y,1/2+z
24 x,1/2-y,1/2+z
25 1/2-x,-y,1/2-z
26 1/2+x,y,1/2-z
27 1/2-x,y,1/2+z
28 1/2+x,-y,1/2+z
29 1/2-x,1/2-y,-z
30 1/2+x,1/2+y,-z
31 1/2-x,1/2+y,z
32 1/2+x,1/2-y,z
_cell_length_a                   14.652(4)
_cell_length_b                   14.894(4)
_cell_length_c                   29.736(8)
_cell_angle_alpha                90
_cell_angle_beta                 90
_cell_angle_gamma                90
_cell_volume                     6489.19
loop_
_atom_site_label
_atom_site_type_symbol
_atom_site_fract_x
_atom_site_fract_y
_atom_site_fract_z
Pt1 Pt 0.26694(2) 0.0000 0.374987(10)
Fe1 Fe 0.2500 0.2500 0.5000
Fe2 Fe 0.2500 0.2500 0.2500
N1 N 0.2572(3) 0.1474(3) 0.30008(18)
N2 N 0.2588(3) 0.1477(3) 0.45000(19)
N3 N 0.0951(5) 0.2438(4) 0.5000
N4 N 0.0956(5) 0.2500 0.2500
C1 C 0.2643(3) 0.0941(3) 0.42245(19)
C2 C 0.2635(4) 0.0936(4) 0.32740(19)
C3 C 0.0482(7) 0.1698(6) 0.5000
C4 C 0.0482(7) 0.3175(7) 0.5000
C5 C 0.0466(4) 0.3242(5) 0.2428(2)
H1 H 0.0793 0.1146 0.5000
H2 H 0.0793 0.3727 0.5000
H3 H 0.0774 0.3785 0.2376
N3R N -0.0951(5) 0.2438(4) 0.5000
C3R C -0.0482(7) 0.1698(6) 0.5000
C4R C -0.0482(7) 0.3175(7) 0.5000
H1R H -0.0793 0.1146 0.5000
H2R H -0.0793 0.3727 0.5000
N4R N -0.0956(5) 0.2500 0.2500
C5R C -0.0466(4) 0.3242(5) 0.2428(2)
H3R H -0.0774 0.3785 0.2376
C5T C -0.0466(4) 0.1758(5) 0.2572(2)
H3T H -0.0774 0.1215 0.2624
C5F C 0.0466(4) 0.1758(5) 0.2572(2)
H3F H 0.0774 0.1215 0.2624
N1S N 0.2572(3) -0.1474(3) 0.30008(18)
N2S N 0.2588(3) -0.1477(3) 0.45000(19)
C1S C 0.2643(3) -0.0941(3) 0.42245(19)
C2S C 0.2635(4) -0.0936(4) 0.32740(19)
Pt1B Pt 0.26694(2) 0.0000 0.625013(10)
N1Q N 0.2572(3) 0.1474(3) 0.69992(18)
N2Q N 0.2588(3) 0.1477(3) 0.55000(19)
C1Q C 0.2643(3) 0.0941(3) 0.57755(19)
C2Q C 0.2635(4) 0.0936(4) 0.67260(19)
N1B N 0.2572(3) -0.1474(3) 0.69992(18)
N2B N 0.2588(3) -0.1477(3) 0.55000(19)
C1B C 0.2643(3) -0.0941(3) 0.57755(19)
C2B C 0.2635(4) -0.0936(4) 0.67260(19)
Fe1R Fe -0.2500 0.2500 0.5000
Fe1S Fe 0.2500 -0.2500 0.5000
Fe2R Fe -0.2500 0.2500 0.2500
Fe2S Fe 0.2500 -0.2500 0.2500
Fe2B Fe 0.2500 -0.2500 0.7500
Fe2Q Fe 0.2500 0.2500 0.7500
N1F N 0.2572(3) 0.3526(3) 0.19992(18)
N1K N 0.2428(3) 0.1474(3) 0.19992(18)
N1M N 0.2428(3) 0.3526(3) 0.30008(18)
N2M N 0.2412(3) 0.3523(3) 0.45000(19)
N2BA N 0.2412(3) 0.3523(3) 0.55000(19)
N3M N 0.4049(5) 0.2562(4) 0.5000
N4K N 0.4044(5) 0.2500 0.2500
S1 S 0.0000 0.3057(4) 0.3715(2)
C6 C 0.0820(5) 0.2250(6) 0.3748(2)
C7 C 0.0505(4) 0.1389(6) 0.3766(2)
H4 H 0.1446 0.2388 0.3752
H5 H 0.0874 0.0873 0.3778
C6R C -0.0820(5) 0.2250(6) 0.3748(2)
C7R C -0.0505(4) 0.1389(6) 0.3766(2)
H4R H -0.1446 0.2388 0.3752
H5R H -0.0874 0.0873 0.3778
loop_
_geom_bond_atom_site_label_1
_geom_bond_atom_site_label_2
_geom_bond_site_symmetry_1
_geom_bond_site_symmetry_2
Pt1 C1 1_555 1_555
Fe1 N2 1_555 1_555
Fe2 N1 1_555 1_555
N1 C2 1_555 1_555
N2 C1 1_555 1_555
N3 Fe1 1_555 1_555
N4 Fe2 1_555 1_555
C2 Pt1 1_555 1_555
C3 N3 1_555 1_555
C4 N3 1_555 1_555
C5 N4 1_555 1_555
H1 C3 1_555 1_555
H2 C4 1_555 1_555
H3 C5 1_555 1_555
S1 C6 1_555 1_555
C6 C7 1_555 1_555
C7 H5 1_555 1_555
H4 C6 1_555 1_555
N3R C3R 1_555 1_555
C3R C3 1_555 1_555
C4R C4 1_555 1_555
H1R C3R 1_555 1_555
H2R C4R 1_555 1_555
N4R C5R 1_555 1_555
C5R C5 1_555 1_555
H3R C5R 1_555 1_555
C5T N4R 1_555 1_555
H3T C5T 1_555 1_555
C5F N4 1_555 1_555
H3F C5F 1_555 1_555
N1S C2S 1_555 1_555
N2S C1S 1_555 1_555
C1S Pt1 1_555 1_555
C2S Pt1 1_555 1_555
Pt1B C1Q 1_555 1_555
N1Q C2Q 1_555 1_555
N2Q Fe1 1_555 1_555
C1Q N2Q 1_555 1_555
C2Q Pt1B 1_555 1_555
N1B C2B 1_555 1_555
N2B C1B 1_555 1_555
C1B Pt1B 1_555 1_555
C2B Pt1B 1_555 1_555
Fe1R N3R 1_555 1_555
Fe1S N2S 1_555 1_555
Fe2R N4R 1_555 1_555
Fe2S N1S 1_555 1_555
Fe2B N1B 1_555 1_555
Fe2Q N1Q 1_555 1_555
N1F Fe2 1_555 1_555
N1K Fe2 1_555 1_555
N1M Fe2 1_555 1_555
N2M Fe1 1_555 1_555
N2BA Fe1 1_555 1_555
N3M Fe1 1_555 1_555
N4K Fe2 1_555 1_555
C6R S1 1_555 1_555
C7R C7 1_555 1_555
H4R C6R 1_555 1_555
H5R C7R 1_555 1_555
N3R C4R 1_555 1_555
C5T C5F 1_555 1_555
N2B Fe1S 1_555 1_555
C6R C7R 1_555 1_555

#END
