
#######################################################################
#
#                 Cambridge Crystallographic Data Centre
#                                CCDC 
#
#######################################################################
#
# If this CIF has been generated from an entry in the Cambridge 
# Structural Database, then it will include bibliographic, chemical, 
# crystal, experimental, refinement or atomic coordinate data resulting 
# from the CCDC's data processing and validation procedures.
#
#######################################################################

data_DOYBUQ01
_symmetry_cell_setting           orthorhombic
_symmetry_space_group_name_H-M   'F m m m'
_symmetry_Int_Tables_number      69
_space_group_name_Hall           '-F 2 2'
loop_
_symmetry_equiv_pos_site_id
_symmetry_equiv_pos_as_xyz
1 x,y,z
2 -x,-y,z
3 x,-y,-z
4 -x,y,-z
5 x,1/2+y,1/2+z
6 -x,1/2-y,1/2+z
7 x,1/2-y,1/2-z
8 -x,1/2+y,1/2-z
9 1/2+x,y,1/2+z
10 1/2-x,-y,1/2+z
11 1/2+x,-y,1/2-z
12 1/2-x,y,1/2-z
13 1/2+x,1/2+y,z
14 1/2-x,1/2-y,z
15 1/2+x,1/2-y,-z
16 1/2-x,1/2+y,-z
17 -x,-y,-z
18 x,y,-z
19 -x,y,z
20 x,-y,z
21 -x,1/2-y,1/2-z
22 x,1/2+y,1/2-z
23 -x,1/2+y,1/2+z
24 x,1/2-y,1/2+z
25 1/2-x,-y,1/2-z
26 1/2+x,y,1/2-z
27 1/2-x,y,1/2+z
28 1/2+x,-y,1/2+z
29 1/2-x,1/2-y,-z
30 1/2+x,1/2+y,-z
31 1/2-x,1/2+y,z
32 1/2+x,1/2-y,z
_cell_length_a                   14.195(3)
_cell_length_b                   14.644(3)
_cell_length_c                   29.175(6)
_cell_angle_alpha                90
_cell_angle_beta                 90
_cell_angle_gamma                90
_cell_volume                     6064.65
loop_
_atom_site_label
_atom_site_type_symbol
_atom_site_fract_x
_atom_site_fract_y
_atom_site_fract_z
Pt1 Pt 0.26950(2) 0.0000 0.374971(14)
Fe1 Fe 0.2500 0.2500 0.5000
Fe2 Fe 0.2500 0.2500 0.2500
N1 N 0.2597(4) 0.1513(4) 0.4512(2)
N2 N 0.2571(3) 0.1497(4) 0.2986(2)
N3 N 0.1021(7) 0.2437(5) 0.5000
N4 N 0.0999(7) 0.2500 0.2500
C1 C 0.2665(5) 0.0959(5) 0.4236(2)
C2 C 0.2654(4) 0.0955(5) 0.3263(2)
C3 C 0.0494(9) 0.1672(8) 0.5000
C4 C 0.0495(8) 0.3209(7) 0.5000
C5 C 0.0483(5) 0.1740(5) 0.2576(2)
H1 H 0.0810 0.1100 0.5000
H2 H 0.0813 0.3780 0.5000
H3 H 0.0803 0.1182 0.2633
N3R N -0.1021(7) 0.2437(5) 0.5000
C3R C -0.0494(9) 0.1672(8) 0.5000
C4R C -0.0495(8) 0.3209(7) 0.5000
H1R H -0.0810 0.1100 0.5000
H2R H -0.0813 0.3780 0.5000
N4R N -0.0999(7) 0.2500 0.2500
C5R C -0.0483(5) 0.1740(5) 0.2576(2)
H3R H -0.0803 0.1182 0.2633
C5T C -0.0483(5) 0.3260(5) 0.2424(2)
H3T H -0.0803 0.3818 0.2367
C5F C 0.0483(5) 0.3260(5) 0.2424(2)
H3F H 0.0803 0.3818 0.2367
N1S N 0.2597(4) -0.1513(4) 0.4512(2)
N2S N 0.2571(3) -0.1497(4) 0.2986(2)
C1S C 0.2665(5) -0.0959(5) 0.4236(2)
C2S C 0.2654(4) -0.0955(5) 0.3263(2)
Pt1B Pt 0.26950(2) 0.0000 0.625029(14)
N1Q N 0.2597(4) 0.1513(4) 0.5488(2)
N2Q N 0.2571(3) 0.1497(4) 0.7014(2)
C1Q C 0.2665(5) 0.0959(5) 0.5764(2)
C2Q C 0.2654(4) 0.0955(5) 0.6737(2)
N1B N 0.2597(4) -0.1513(4) 0.5488(2)
N2B N 0.2571(3) -0.1497(4) 0.7014(2)
C1B C 0.2665(5) -0.0959(5) 0.5764(2)
C2B C 0.2654(4) -0.0955(5) 0.6737(2)
Fe1R Fe -0.2500 0.2500 0.5000
Fe1S Fe 0.2500 -0.2500 0.5000
Fe2R Fe -0.2500 0.2500 0.2500
Fe2S Fe 0.2500 -0.2500 0.2500
Fe2B Fe 0.2500 -0.2500 0.7500
Fe2Q Fe 0.2500 0.2500 0.7500
N1M N 0.2403(4) 0.3487(4) 0.4512(2)
N1BA N 0.2403(4) 0.3487(4) 0.5488(2)
N2F N 0.2571(3) 0.3503(4) 0.2014(2)
N2K N 0.2429(3) 0.1497(4) 0.2014(2)
N2M N 0.2429(3) 0.3503(4) 0.2986(2)
N3M N 0.3979(7) 0.2563(5) 0.5000
N4K N 0.4001(7) 0.2500 0.2500
S1 S 0.0000 0.3102(2) 0.37023(11)
C6 C 0.0860(5) 0.2289(5) 0.3744(2)
C7 C 0.0503(4) 0.1438(6) 0.3784(2)
H4 H 0.1516 0.2422 0.3739
H5 H 0.0877 0.0903 0.3809
C6R C -0.0860(5) 0.2289(5) 0.3744(2)
C7R C -0.0503(4) 0.1438(6) 0.3784(2)
H4R H -0.1516 0.2422 0.3739
H5R H -0.0877 0.0903 0.3809
loop_
_geom_bond_atom_site_label_1
_geom_bond_atom_site_label_2
_geom_bond_site_symmetry_1
_geom_bond_site_symmetry_2
Pt1 C1 1_555 1_555
Fe1 N1 1_555 1_555
Fe2 N2 1_555 1_555
N1 C1 1_555 1_555
N2 C2 1_555 1_555
N3 Fe1 1_555 1_555
N4 Fe2 1_555 1_555
C2 Pt1 1_555 1_555
C3 N3 1_555 1_555
C4 N3 1_555 1_555
C5 N4 1_555 1_555
H1 C3 1_555 1_555
H2 C4 1_555 1_555
H3 C5 1_555 1_555
S1 C6 1_555 1_555
C6 C7 1_555 1_555
C7 H5 1_555 1_555
H4 C6 1_555 1_555
N3R C3R 1_555 1_555
C3R C3 1_555 1_555
C4R C4 1_555 1_555
H1R C3R 1_555 1_555
H2R C4R 1_555 1_555
N4R C5R 1_555 1_555
C5R C5 1_555 1_555
H3R C5R 1_555 1_555
C5T N4R 1_555 1_555
H3T C5T 1_555 1_555
C5F N4 1_555 1_555
H3F C5F 1_555 1_555
N1S C1S 1_555 1_555
N2S C2S 1_555 1_555
C1S Pt1 1_555 1_555
C2S Pt1 1_555 1_555
Pt1B C1Q 1_555 1_555
N1Q Fe1 1_555 1_555
N2Q C2Q 1_555 1_555
C1Q N1Q 1_555 1_555
C2Q Pt1B 1_555 1_555
N1B C1B 1_555 1_555
N2B C2B 1_555 1_555
C1B Pt1B 1_555 1_555
C2B Pt1B 1_555 1_555
Fe1R N3R 1_555 1_555
Fe1S N1S 1_555 1_555
Fe2R N4R 1_555 1_555
Fe2S N2S 1_555 1_555
Fe2B N2B 1_555 1_555
Fe2Q N2Q 1_555 1_555
N1M Fe1 1_555 1_555
N1BA Fe1 1_555 1_555
N2F Fe2 1_555 1_555
N2K Fe2 1_555 1_555
N2M Fe2 1_555 1_555
N3M Fe1 1_555 1_555
N4K Fe2 1_555 1_555
C6R S1 1_555 1_555
C7R C7 1_555 1_555
H4R C6R 1_555 1_555
H5R C7R 1_555 1_555
N3R C4R 1_555 1_555
C5T C5F 1_555 1_555
N1B Fe1S 1_555 1_555
C6R C7R 1_555 1_555

#END
