
#######################################################################
#
#                 Cambridge Crystallographic Data Centre
#                                CCDC 
#
#######################################################################
#
# If this CIF has been generated from an entry in the Cambridge 
# Structural Database, then it will include bibliographic, chemical, 
# crystal, experimental, refinement or atomic coordinate data resulting 
# from the CCDC's data processing and validation procedures.
#
#######################################################################

data_DOYBEY
_symmetry_cell_setting           orthorhombic
_symmetry_space_group_name_H-M   'P 21 21 21'
_symmetry_Int_Tables_number      19
_space_group_name_Hall           'P 2ac 2ab'
loop_
_symmetry_equiv_pos_site_id
_symmetry_equiv_pos_as_xyz
1 x,y,z
2 1/2+x,1/2-y,-z
3 -x,1/2+y,1/2-z
4 1/2-x,-y,1/2+z
_cell_length_a                   9.1120(5)
_cell_length_b                   13.3079(9)
_cell_length_c                   16.9553(11)
_cell_angle_alpha                90
_cell_angle_beta                 90
_cell_angle_gamma                90
_cell_volume                     2056.03
loop_
_atom_site_label
_atom_site_type_symbol
_atom_site_fract_x
_atom_site_fract_y
_atom_site_fract_z
Zn1 Zn 0.35331(6) 0.34537(4) 0.31971(3)
Zn2 Zn 0.56057(6) 0.51319(4) 0.23654(3)
O1 O 0.2462(5) 0.4692(2) 0.3406(3)
O2 O 0.3815(4) 0.5755(3) 0.2708(3)
C1 C 0.2692(6) 0.5534(4) 0.3092(3)
C2 C 0.1547(6) 0.6313(4) 0.3182(4)
C3 C 0.1604(6) 0.7182(4) 0.2840(3)
C4 C 0.0441(8) 0.7980(5) 0.2863(4)
O3 O 0.3628(5) 0.3272(3) 0.2067(2)
O4 O 0.5381(5) 0.4181(3) 0.1512(2)
C5 C 0.4457(7) 0.3474(4) 0.1507(3)
C6 C 0.4332(10) 0.2867(5) 0.0787(3)
C7 C 0.3547(9) 0.2055(5) 0.0741(4)
C8 C 0.3468(15) 0.1377(6) 0.0029(5)
O5 O 0.5376(5) 0.3431(3) 0.3752(2)
O6 O 0.6810(4) 0.4582(3) 0.3204(2)
C9 C 0.6530(6) 0.3915(4) 0.3703(3)
C10 C 0.7687(6) 0.3659(4) 0.4303(3)
C11 C 0.8945(6) 0.4107(4) 0.4343(3)
C12 C 1.0084(7) 0.3894(6) 0.4945(3)
O7 O 0.2168(4) 0.2485(2) 0.3629(2)
O8 O 0.3489(4) 0.1330(2) 0.3061(2)
C13 C 0.2340(5) 0.1586(3) 0.3423(3)
C14 C 0.1191(6) 0.0857(4) 0.3608(3)
C15 C -0.0046(6) 0.1096(4) 0.3936(4)
C16 C -0.1299(8) 0.0403(6) 0.4107(5)
H1 H 0.0718 0.6167 0.3512
H2 H 0.2474 0.7330 0.2543
H3 H 0.0913 0.8572 0.3063
H4 H -0.0369 0.7806 0.3199
H5 H 0.0089 0.8105 0.2339
H6 H 0.4857 0.3082 0.0327
H7 H 0.2974 0.1872 0.1194
H8 H 0.2589 0.1086 -0.0183
H9 H 0.4124 0.0851 0.0191
H10 H 0.3934 0.1781 -0.0368
H11 H 0.7481 0.3135 0.4676
H12 H 0.9155 0.4614 0.3957
H13 H 0.9792 0.3339 0.5270
H14 H 1.0255 0.4473 0.5269
H15 H 1.0969 0.3724 0.4667
H16 H 0.1361 0.0164 0.3480
H17 H -0.0170 0.1787 0.4085
H18 H -0.1405 0.0291 0.4663
H19 H -0.1241 -0.0232 0.3840
H20 H -0.2131 0.0771 0.3914
O8B O 0.6511(4) 0.6330(2) 0.1939(2)
Zn2B Zn 0.43943(6) 0.01319(4) 0.26346(3)
loop_
_geom_bond_atom_site_label_1
_geom_bond_atom_site_label_2
_geom_bond_site_symmetry_1
_geom_bond_site_symmetry_2
Zn1 O1 1_555 1_555
Zn2 O2 1_555 1_555
O1 C1 1_555 1_555
O2 C1 1_555 1_555
C1 C2 1_555 1_555
C2 C3 1_555 1_555
C3 C4 1_555 1_555
C4 H3 1_555 1_555
O3 Zn1 1_555 1_555
O4 Zn2 1_555 1_555
C5 O3 1_555 1_555
C6 C5 1_555 1_555
C7 C6 1_555 1_555
C8 C7 1_555 1_555
O5 Zn1 1_555 1_555
O6 Zn2 1_555 1_555
C9 O5 1_555 1_555
C10 C9 1_555 1_555
C11 C10 1_555 1_555
C12 C11 1_555 1_555
O7 Zn1 1_555 1_555
O8 C13 1_555 1_555
C13 O7 1_555 1_555
C14 C13 1_555 1_555
C15 C14 1_555 1_555
C16 C15 1_555 1_555
H1 C2 1_555 1_555
H2 C3 1_555 1_555
H4 C4 1_555 1_555
H5 C4 1_555 1_555
H6 C6 1_555 1_555
H7 C7 1_555 1_555
H8 C8 1_555 1_555
H9 C8 1_555 1_555
H10 C8 1_555 1_555
H11 C10 1_555 1_555
H12 C11 1_555 1_555
H13 C12 1_555 1_555
H14 C12 1_555 1_555
H15 C12 1_555 1_555
H16 C14 1_555 1_555
H17 C15 1_555 1_555
H18 C16 1_555 1_555
H19 C16 1_555 1_555
H20 C16 1_555 1_555
O8B Zn2 1_555 1_555
Zn2B O8 1_555 1_555
O4 C5 1_555 1_555
O6 C9 1_555 1_555

#END
