
#######################################################################
#
#                 Cambridge Crystallographic Data Centre
#                                CCDC 
#
#######################################################################
#
# If this CIF has been generated from an entry in the Cambridge 
# Structural Database, then it will include bibliographic, chemical, 
# crystal, experimental, refinement or atomic coordinate data resulting 
# from the CCDC's data processing and validation procedures.
#
#######################################################################

data_DOYPUE
_symmetry_cell_setting           hexagonal
_symmetry_space_group_name_H-M   'P 65'
_symmetry_Int_Tables_number      170
_space_group_name_Hall           'P 65'
loop_
_symmetry_equiv_pos_site_id
_symmetry_equiv_pos_as_xyz
1 x,y,z
2 x-y,x,5/6+z
3 -y,x-y,2/3+z
4 -x,-y,1/2+z
5 -x+y,-x,1/3+z
6 y,-x+y,1/6+z
_cell_length_a                   11.1993(9)
_cell_length_b                   11.1993(9)
_cell_length_c                   26.5836(18)
_cell_angle_alpha                90
_cell_angle_beta                 90
_cell_angle_gamma                120
_cell_volume                     2887.53
loop_
_atom_site_label
_atom_site_type_symbol
_atom_site_fract_x
_atom_site_fract_y
_atom_site_fract_z
Dy1 Dy 0.97387(4) 0.14509(4) 0.06279(3)
O1 O 0.7126(6) -0.1512(6) -0.0319(2)
C1 C 0.4845(10) -0.3132(10) 0.1241(4)
H1 H 0.4645 -0.2988 0.1567
O2 O 1.1829(6) 0.2170(6) 0.0980(2)
O3 O 1.2931(6) 0.1856(6) 0.1619(2)
O4 O 0.8676(6) 0.2865(6) 0.0447(2)
O5 O 0.9116(6) -0.0676(6) 0.1048(2)
C2 C 0.8555(9) -0.2507(8) 0.1621(3)
O6 O 0.7623(6) 0.0018(6) 0.0284(2)
O7 O 1.0554(6) 0.3872(6) 0.0881(2)
O8 O 0.9400(7) 0.4937(6) 0.0732(3)
C3 C 0.8499(8) -0.2846(8) 0.2127(3)
H2 H 0.8955 -0.2145 0.2362
O9 O 1.0172(6) -0.0184(6) 0.1792(2)
C4 C 0.7871(9) -0.3558(9) 0.1282(3)
H3 H 0.7858 -0.3367 0.0942
C5 C 1.4627(9) 0.1433(9) 0.0968(3)
H4 H 1.4684 0.1280 0.1308
N1 N 0.7809(7) -0.4149(7) 0.2285(3)
H5 H 0.7768 -0.4332 0.2601
C6 C 1.5349(10) 0.1472(9) 0.0126(4)
H6 H 1.5897 0.1344 -0.0106
N2 N 1.4453(7) 0.1849(8) -0.0031(3)
C7 C 1.3637(9) 0.2045(9) 0.0291(3)
H7 H 1.3037 0.2328 0.0172
C8 C 1.2735(9) 0.1951(8) 0.1165(3)
C9 C 0.7179(10) -0.5177(10) 0.1949(3)
H8 H 0.6722 -0.6086 0.2060
C10 C 0.6037(9) -0.2317(9) 0.0458(3)
C11 C 0.6994(9) -0.1189(9) 0.0121(3)
C12 C 1.3698(9) 0.1821(9) 0.0804(3)
C13 C 0.4221(10) -0.4448(10) 0.1035(4)
H9 H 0.3576 -0.5172 0.1231
C14 C 0.9324(9) -0.1017(9) 0.1473(4)
C15 C 1.5465(8) 0.1273(8) 0.0632(4)
H10 H 1.6103 0.1032 0.0744
N3 N 0.9536(8) 0.3929(8) 0.0687(3)
N4 N 0.4480(8) -0.4746(7) 0.0580(3)
C16 C 0.5767(9) -0.2047(10) 0.0948(3)
H11 H 0.6204 -0.1151 0.1072
C17 C 0.7200(10) -0.4907(9) 0.1452(4)
H12 H 0.6762 -0.5629 0.1224
C18 C 0.5391(9) -0.3654(9) 0.0313(3)
H13 H 0.5604 -0.3834 -0.0006
Dy1A Dy 0.82878(6) -0.02613(4) -0.10388(3)
Dy1E Dy 1.14509(4) 0.17122(6) 0.22946(3)
O1E O 0.8488(6) 0.1362(8) 0.1348(2)
O3A O 1.1075(8) 0.2931(6) -0.0048(2)
O9A O 1.0356(8) 0.0172(6) 0.0125(2)
loop_
_geom_bond_atom_site_label_1
_geom_bond_atom_site_label_2
_geom_bond_site_symmetry_1
_geom_bond_site_symmetry_2
Dy1 O2 1_555 1_555
O1 C11 1_555 1_555
C1 H1 1_555 1_555
O2 C8 1_555 1_555
O3 C8 1_555 1_555
O4 Dy1 1_555 1_555
O5 Dy1 1_555 1_555
C2 C3 1_555 1_555
O6 Dy1 1_555 1_555
O7 Dy1 1_555 1_555
O8 N3 1_555 1_555
C3 H2 1_555 1_555
O9 C14 1_555 1_555
C4 C2 1_555 1_555
H3 C4 1_555 1_555
C5 H4 1_555 1_555
N1 C3 1_555 1_555
H5 N1 1_555 1_555
C6 H6 1_555 1_555
N2 C6 1_555 1_555
C7 N2 1_555 1_555
H7 C7 1_555 1_555
C8 C12 1_555 1_555
C9 N1 1_555 1_555
H8 C9 1_555 1_555
C10 C11 1_555 1_555
C11 O6 1_555 1_555
C12 C5 1_555 1_555
C13 C1 1_555 1_555
H9 C13 1_555 1_555
C14 O5 1_555 1_555
C15 C5 1_555 1_555
H10 C15 1_555 1_555
N3 O4 1_555 1_555
N4 C13 1_555 1_555
C16 C1 1_555 1_555
H11 C16 1_555 1_555
C17 C4 1_555 1_555
H12 C17 1_555 1_555
C18 C10 1_555 1_555
H13 C18 1_555 1_555
Dy1A O1 1_555 1_555
Dy1E O3 1_555 1_555
O1E Dy1 1_555 1_555
O3A Dy1 1_555 1_555
O9A Dy1 1_555 1_555
C2 C14 1_555 1_555
O7 N3 1_555 1_555
O9 Dy1E 1_555 1_555
C6 C15 1_555 1_555
C7 C12 1_555 1_555
C9 C17 1_555 1_555
C10 C16 1_555 1_555
N4 C18 1_555 1_555

#END
