
#######################################################################
#
#                 Cambridge Crystallographic Data Centre
#                                CCDC 
#
#######################################################################
#
# If this CIF has been generated from an entry in the Cambridge 
# Structural Database, then it will include bibliographic, chemical, 
# crystal, experimental, refinement or atomic coordinate data resulting 
# from the CCDC's data processing and validation procedures.
#
#######################################################################

data_DOYQAL
_symmetry_cell_setting           hexagonal
_symmetry_space_group_name_H-M   'P 61'
_symmetry_Int_Tables_number      169
_space_group_name_Hall           'P 61'
loop_
_symmetry_equiv_pos_site_id
_symmetry_equiv_pos_as_xyz
1 x,y,z
2 x-y,x,1/6+z
3 -y,x-y,1/3+z
4 -x,-y,1/2+z
5 -x+y,-x,2/3+z
6 y,-x+y,5/6+z
_cell_length_a                   11.2159(8)
_cell_length_b                   11.2159(8)
_cell_length_c                   26.5973(18)
_cell_angle_alpha                90
_cell_angle_beta                 90
_cell_angle_gamma                120
_cell_volume                     2897.59
loop_
_atom_site_label
_atom_site_type_symbol
_atom_site_fract_x
_atom_site_fract_y
_atom_site_fract_z
Dy1 Dy 0.97373(4) 0.82860(4) 0.37322(3)
O1 O 1.0020(6) 0.7615(7) 0.5054(3)
O2 O 0.9653(7) 0.7841(7) 0.2416(3)
O3 O 1.1074(7) 0.8140(7) 0.3057(3)
O4 O 1.0549(7) 0.6682(7) 0.3985(3)
O5 O 0.8470(8) 0.7117(7) 0.4450(3)
N1 N 0.7814(9) 1.1968(9) 0.5395(4)
H1 H 0.7804 1.2144 0.5709
O6 O 1.0178(7) 1.0364(7) 0.4894(3)
O7 O 0.9129(7) 0.9798(7) 0.4149(3)
O8 O 0.8668(7) 0.5812(7) 0.3553(3)
C1 C 1.1855(10) 0.8168(10) 0.2245(4)
N2 N 0.9539(9) 0.5613(9) 0.3794(4)
C2 C 1.4197(10) 0.8739(10) 0.2065(4)
H2 H 1.5080 0.8997 0.2176
C3 C 0.7688(10) 0.6040(11) 0.5231(4)
O9 O 0.9394(8) 0.4463(7) 0.3837(3)
N3 N 1.2601(9) 0.8138(8) 0.1402(3)
C4 C 0.6870(11) 0.4850(11) 0.6014(4)
H3 H 0.7019 0.4649 0.6339
C5 C 0.7874(11) 1.1421(10) 0.4385(4)
H4 H 0.7871 1.1226 0.4046
C6 C 1.3187(10) 0.8568(10) 0.2399(4)
H5 H 1.3403 0.8726 0.2739
C7 C 1.3867(12) 0.8518(11) 0.1568(4)
H6 H 1.4542 0.8635 0.1338
C8 C 0.8559(10) 1.1050(11) 0.4733(4)
N4 N 0.5256(9) 0.4473(9) 0.5352(4)
C9 C 0.8487(10) 1.1345(10) 0.5235(4)
H7 H 0.8933 1.1094 0.5471
C10 C 1.0790(10) 0.8037(10) 0.2610(4)
C11 C 0.8811(10) 0.7007(9) 0.4890(4)
C12 C 0.9339(9) 1.0336(9) 0.4581(4)
C13 C 1.1606(12) 0.7973(11) 0.1733(4)
H8 H 1.0734 0.7723 0.1612
C14 C 0.7953(11) 0.5780(10) 0.5720(4)
H9 H 0.8846 0.6227 0.5846
C15 C 0.7194(12) 1.2088(12) 0.4558(5)
H10 H 0.6766 1.2380 0.4330
C16 C 0.6352(11) 0.5377(11) 0.5084(4)
H11 H 0.6175 0.5570 0.4761
C17 C 0.5555(12) 0.4225(12) 0.5811(5)
H12 H 0.4833 0.3590 0.6010
C18 C 0.7146(12) 1.2320(12) 0.5054(4)
H13 H 0.6645 1.2728 0.5163
Dy1A Dy 1.14513(6) 0.97373(4) 0.53989(3)
Dy1E Dy 0.82860(4) 0.85487(6) 0.20655(3)
O1E O 0.7615(7) 0.7595(9) 0.3387(3)
O2A O 1.1812(10) 0.9653(7) 0.4083(3)
O6E O 1.0364(7) 1.0186(10) 0.3227(3)
loop_
_geom_bond_atom_site_label_1
_geom_bond_atom_site_label_2
_geom_bond_site_symmetry_1
_geom_bond_site_symmetry_2
Dy1 O3 1_555 1_555
O1 C11 1_555 1_555
O2 C10 1_555 1_555
O3 C10 1_555 1_555
O4 Dy1 1_555 1_555
O5 Dy1 1_555 1_555
N1 H1 1_555 1_555
O6 C12 1_555 1_555
O7 Dy1 1_555 1_555
O8 Dy1 1_555 1_555
C1 C6 1_555 1_555
N2 O4 1_555 1_555
C2 H2 1_555 1_555
C3 C11 1_555 1_555
O9 N2 1_555 1_555
N3 C7 1_555 1_555
C4 H3 1_555 1_555
C5 H4 1_555 1_555
C6 C2 1_555 1_555
H5 C6 1_555 1_555
C7 C2 1_555 1_555
H6 C7 1_555 1_555
C8 C5 1_555 1_555
N4 C16 1_555 1_555
C9 N1 1_555 1_555
H7 C9 1_555 1_555
C10 C1 1_555 1_555
C11 O5 1_555 1_555
C12 O7 1_555 1_555
C13 C1 1_555 1_555
H8 C13 1_555 1_555
C14 C3 1_555 1_555
H9 C14 1_555 1_555
C15 C5 1_555 1_555
H10 C15 1_555 1_555
C16 C3 1_555 1_555
H11 C16 1_555 1_555
C17 C4 1_555 1_555
H12 C17 1_555 1_555
C18 N1 1_555 1_555
H13 C18 1_555 1_555
Dy1A O1 1_555 1_555
Dy1E O2 1_555 1_555
O1E Dy1 1_555 1_555
O2A Dy1 1_555 1_555
O6E Dy1 1_555 1_555
O6 Dy1A 1_555 1_555
O8 N2 1_555 1_555
N3 C13 1_555 1_555
C4 C14 1_555 1_555
C8 C9 1_555 1_555
C8 C12 1_555 1_555
N4 C17 1_555 1_555
C15 C18 1_555 1_555

#END
