
#######################################################################
#
#                 Cambridge Crystallographic Data Centre
#                                CCDC 
#
#######################################################################
#
# If this CIF has been generated from an entry in the Cambridge 
# Structural Database, then it will include bibliographic, chemical, 
# crystal, experimental, refinement or atomic coordinate data resulting 
# from the CCDC's data processing and validation procedures.
#
#######################################################################

data_DOYVOD
_symmetry_cell_setting           triclinic
_symmetry_space_group_name_H-M   'P -1'
_symmetry_Int_Tables_number      2
_space_group_name_Hall           '-P 1'
loop_
_symmetry_equiv_pos_site_id
_symmetry_equiv_pos_as_xyz
1 x,y,z
2 -x,-y,-z
_cell_length_a                   15.313(3)
_cell_length_b                   20.0541(19)
_cell_length_c                   20.2698(18)
_cell_angle_alpha                115.748(5)
_cell_angle_beta                 101.883(7)
_cell_angle_gamma                98.115(7)
_cell_volume                     5295.33
loop_
_atom_site_label
_atom_site_type_symbol
_atom_site_fract_x
_atom_site_fract_y
_atom_site_fract_z
Br1 Br 0.31131(8) 0.87278(7) 0.07562(7)
Br2 Br 0.29711(4) 0.34639(4) 0.84791(4)
Br3 Br 0.23210(4) 0.13774(3) 0.70130(4)
Cu1 Cu 0.36528(5) 0.25681(4) 0.74543(4)
Cu2 Cu 0.16301(5) 0.25356(4) 0.72614(4)
Cu3 Cu 0.26976(5) 0.21885(4) 0.85628(4)
P1 P 0.36471(11) 0.30516(9) 0.66336(9)
P2 P 0.40358(11) 0.20093(9) 0.90913(9)
P3 P 0.49341(11) 0.23309(9) 0.80000(9)
P4 P 0.13268(11) 0.19181(10) 0.87702(9)
P5 P 0.16723(12) 0.31174(9) 0.65363(10)
P6 P 0.03021(12) 0.21850(10) 0.74734(10)
C1 C 0.5805(5) 0.3874(4) 0.8803(4)
H1 H 0.5317 0.3901 0.8465
C2 C 0.5838(4) 0.3174(3) 0.8729(3)
C3 C 0.6567(4) 0.3157(4) 0.9270(4)
H2 H 0.6613 0.2695 0.9260
C4 C 0.6446(6) 0.4543(4) 0.9344(4)
H3 H 0.6399 0.5005 0.9356
C5 C 0.5451(4) 0.1750(3) 0.7283(4)
C6 C 0.7205(5) 0.3827(4) 0.9812(4)
H4 H 0.7693 0.3808 1.0157
C7 C 0.6306(4) 0.1622(4) 0.7451(4)
H5 H 0.6669 0.1832 0.7958
C8 C 0.6086(6) 0.0843(5) 0.6117(4)
H6 H 0.6298 0.0525 0.5726
C9 C 0.4932(5) 0.1419(4) 0.6526(4)
H7 H 0.4353 0.1505 0.6407
C10 C 0.7156(5) 0.4528(5) 0.9868(4)
H8 H 0.7591 0.4977 1.0250
C11 C 0.5250(6) 0.0962(5) 0.5935(5)
H9 H 0.4892 0.0743 0.5425
C12 C 0.6624(5) 0.1167(5) 0.6845(5)
H10 H 0.7212 0.1092 0.6951
C13 C 0.3903(4) 0.1265(3) 0.9382(3)
C14 C 0.4829(4) 0.2812(4) 0.9964(3)
C15 C 0.4712(5) 0.3531(4) 1.0180(4)
H11 H 0.4212 0.3598 0.9889
C16 C 0.3422(5) 0.1339(4) 0.9897(4)
H12 H 0.3151 0.1746 1.0063
C17 C 0.5572(5) 0.2720(4) 1.0410(4)
H13 H 0.5656 0.2233 1.0276
C18 C 0.4285(5) 0.0653(4) 0.9134(4)
H14 H 0.4634 0.0601 0.8798
C19 C 0.3673(6) 0.0203(4) 0.9901(4)
H15 H 0.3584 -0.0161 1.0066
C20 C 0.3325(6) 0.0820(4) 1.0182(4)
H16 H 0.3029 0.0895 1.0556
C21 C 0.5329(6) 0.4166(4) 1.0832(5)
H17 H 0.5264 0.4660 1.0971
C22 C 0.6038(6) 0.4034(5) 1.1258(4)
H18 H 0.6433 0.4445 1.1714
C23 C 0.4152(6) 0.0106(4) 0.9384(4)
H19 H 0.4389 -0.0320 0.9198
C24 C 0.6178(6) 0.3342(5) 1.1044(4)
H20 H 0.6692 0.3281 1.1327
C25 C 0.1153(4) 0.1121(3) 0.8975(3)
C26 C 0.1271(5) 0.0426(4) 0.8460(5)
H21 H 0.1408 0.0377 0.8018
C27 C 0.0967(5) 0.1171(4) 0.9646(4)
H22 H 0.0897 0.1627 1.0009
C28 C 0.0971(6) -0.0120(5) 0.9246(5)
H23 H 0.0882 -0.0541 0.9332
C29 C 0.0891(6) 0.0547(4) 0.9753(5)
H24 H 0.0778 0.0587 1.0201
C30 C 0.1184(6) -0.0193(5) 0.8603(5)
H25 H 0.1271 -0.0653 0.8262
C31 C 0.1090(4) 0.2694(3) 0.9550(3)
C32 C 0.0226(5) 0.2666(4) 0.9661(4)
H26 H -0.0266 0.2240 0.9321
C33 C 0.1832(5) 0.3321(4) 1.0060(4)
H27 H 0.2415 0.3343 0.9990
C34 C 0.0091(6) 0.3257(4) 1.0266(4)
H28 H -0.0496 0.3238 1.0328
C35 C 0.1683(7) 0.3925(5) 1.0686(5)
H29 H 0.2169 0.4353 1.1033
C36 C 0.0814(7) 0.3879(5) 1.0782(5)
H30 H 0.0719 0.4273 1.1200
C37 C 0.4739(4) 0.1724(3) 0.8435(3)
H31 H 0.5334 0.1723 0.8714
H32 H 0.4439 0.1204 0.8029
C38 C 0.0329(4) 0.1579(3) 0.7947(3)
H33 H -0.0223 0.1547 0.8107
H34 H 0.0312 0.1065 0.7575
C39 C -0.0175(4) 0.2944(4) 0.8031(3)
C40 C -0.0842(6) 0.4118(4) 0.8911(5)
H35 H -0.1058 0.4518 0.9217
C41 C 0.0337(5) 0.3687(4) 0.8385(4)
H36 H 0.0912 0.3796 0.8317
C42 C -0.1050(5) 0.2787(4) 0.8114(4)
H37 H -0.1404 0.2283 0.7883
C43 C 0.0024(6) 0.4273(5) 0.8834(5)
H38 H 0.0393 0.4774 0.9088
C44 C -0.1389(5) 0.3383(5) 0.8541(5)
H39 H -0.1985 0.3286 0.8576
C45 C -0.0629(4) 0.1561(4) 0.6552(4)
C46 C -0.1197(8) 0.0336(5) 0.5431(5)
H40 H -0.1144 -0.0157 0.5146
C47 C -0.1341(5) 0.1822(5) 0.6297(4)
H41 H -0.1393 0.2315 0.6582
C48 C -0.0573(6) 0.0828(5) 0.6111(4)
H42 H -0.0081 0.0667 0.6292
C49 C -0.1991(6) 0.1295(6) 0.5576(5)
H43 H -0.2483 0.1446 0.5378
C50 C -0.1912(8) 0.0580(6) 0.5172(5)
H44 H -0.2355 0.0245 0.4704
C51 C 0.3422(4) 0.2419(4) 0.5609(3)
C52 C 0.2971(6) 0.1183(5) 0.4518(5)
H45 H 0.2726 0.0656 0.4297
C53 C 0.3216(6) 0.1504(5) 0.4078(5)
H46 H 0.3186 0.1186 0.3573
C54 C 0.3096(5) 0.1654(4) 0.5291(4)
H47 H 0.2952 0.1440 0.5593
C55 C 0.3648(6) 0.2730(5) 0.5148(4)
H48 H 0.3905 0.3255 0.5366
C56 C 0.3494(7) 0.2264(5) 0.4369(4)
H49 H 0.3582 0.2477 0.4054
C57 C 0.4775(5) 0.3690(4) 0.6867(4)
C58 C 0.4963(5) 0.4469(4) 0.7202(4)
H50 H 0.4498 0.4711 0.7317
C59 C 0.5495(5) 0.3349(5) 0.6728(5)
H51 H 0.5389 0.2820 0.6517
C60 C 0.5870(6) 0.4910(5) 0.7377(5)
H52 H 0.5998 0.5442 0.7594
C61 C 0.6526(6) 0.4566(5) 0.7230(5)
H53 H 0.7122 0.4856 0.7352
C62 C 0.6343(6) 0.3786(5) 0.6899(5)
H54 H 0.6816 0.3552 0.6790
C63 C 0.1189(5) 0.2554(4) 0.5483(4)
C64 C 0.0836(6) 0.1803(5) 0.5182(5)
H55 H 0.0849 0.1589 0.5508
C65 C 0.0456(7) 0.1340(7) 0.4416(6)
H56 H 0.0166 0.0823 0.4212
C66 C 0.0522(7) 0.1673(7) 0.3950(6)
H57 H 0.0354 0.1365 0.3420
C67 C 0.1017(4) 0.3845(3) 0.6792(4)
C68 C 0.0917(6) 0.5129(5) 0.7552(5)
H58 H 0.1219 0.5635 0.7917
C69 C 0.0064(5) 0.3618(5) 0.6482(5)
H59 H -0.0226 0.3109 0.6121
C70 C 0.1391(6) 0.4587(4) 0.7304(5)
H60 H 0.2032 0.4748 0.7508
C71 C -0.0027(6) 0.4891(5) 0.7238(5)
H61 H -0.0378 0.5242 0.7390
C94 C 0.2831(4) 0.3653(3) 0.6707(4)
H80 H 0.3036 0.4097 0.7215
H81 H 0.2820 0.3836 0.6335
C95 C -0.0461(5) 0.4133(5) 0.6698(5)
H82 H -0.1100 0.3975 0.6484
C96 C 0.0828(7) 0.2443(6) 0.4257(5)
H83 H 0.0779 0.2667 0.3939
C97 C 0.1213(6) 0.2896(5) 0.5040(5)
H84 H 0.1479 0.3419 0.5255
Br4 Br 0.30583(5) 0.54198(4) 0.64552(4)
Br5 Br 0.26577(5) 0.61715(5) 0.48849(4)
Cu4 Cu 0.39000(6) 0.62901(5) 0.59807(5)
Cu5 Cu 0.21504(6) 0.62013(5) 0.60363(5)
P7 P 0.45109(13) 0.74067(10) 0.70108(10)
P8 P 0.25334(12) 0.73365(10) 0.70515(10)
C72 C 0.5598(5) 0.7050(4) 0.8011(4)
H62 H 0.5036 0.6805 0.8012
C73 C 0.6437(6) 0.7848(5) 0.7631(5)
H63 H 0.6455 0.8150 0.7390
C74 C 0.6417(6) 0.6998(5) 0.8415(4)
H64 H 0.6394 0.6719 0.8679
C75 C 0.5603(5) 0.7449(4) 0.7616(4)
C76 C 0.7286(6) 0.7767(5) 0.8049(5)
H65 H 0.7856 0.8005 0.8055
C77 C 0.7255(7) 0.7354(5) 0.8426(5)
H66 H 0.7799 0.7312 0.8691
C78 C 0.4716(5) 0.8264(4) 0.6896(4)
C79 C 0.4383(5) 0.8193(4) 0.6185(5)
H67 H 0.4083 0.7716 0.5760
C80 C 0.4960(6) 0.9547(5) 0.6731(7)
H68 H 0.5028 0.9982 0.6669
C81 C 0.5171(5) 0.8966(4) 0.7497(5)
H69 H 0.5396 0.9001 0.7976
C82 C 0.5323(6) 0.9625(5) 0.7445(6)
H70 H 0.5651 1.0097 0.7867
C83 C 0.2405(4) 0.8134(3) 0.6857(4)
C84 C 0.2608(5) 0.9461(4) 0.7200(5)
H71 H 0.2893 0.9972 0.7557
C85 C 0.2074(6) 0.9278(5) 0.6506(5)
H72 H 0.1948 0.9666 0.6397
C86 C 0.2737(5) 0.8890(4) 0.7386(4)
H73 H 0.3059 0.9025 0.7887
C87 C 0.1707(6) 0.8526(4) 0.5949(5)
H74 H 0.1340 0.8400 0.5464
C88 C 0.1898(5) 0.7955(4) 0.6129(4)
H75 H 0.1678 0.7444 0.5751
C89 C 0.1834(5) 0.7444(4) 0.7707(4)
C90 C 0.0929(5) 0.7081(6) 0.7353(6)
H76 H 0.0708 0.6784 0.6821
C91 C 0.2135(7) 0.7842(5) 0.8476(5)
H77 H 0.2765 0.8068 0.8718
C92 C 0.1542(7) 0.7931(6) 0.8925(6)
H78 H 0.1764 0.8222 0.9457
C93 C 0.0649(7) 0.7587(6) 0.8570(5)
H79 H 0.0242 0.7644 0.8862
C98 C 0.0315(8) 0.7164(7) 0.7812(7)
H85 H -0.0313 0.6924 0.7581
N1 N 0.4587(4) 0.5560(3) 0.5418(3)
N2 N 0.0881(4) 0.5510(3) 0.5443(3)
C99 C 0.4691(5) 0.5448(4) 0.4745(4)
H86 H 0.4469 0.5745 0.4537
C100 C 0.4892(5) 0.5085(4) 0.5654(4)
H87 H 0.4816 0.5120 0.6111
C101 C 0.0547(5) 0.4916(4) 0.5534(4)
H88 H 0.0912 0.4832 0.5904
C102 C 0.0315(5) 0.5578(4) 0.4896(5)
H89 H 0.0512 0.5978 0.4800
C103 C 0.4506(6) 0.8859(5) 0.6114(6)
H90 H 0.4274 0.8829 0.5638
C104 C 0.3752(5) 0.7592(4) 0.7625(4)
H91 H 0.3939 0.8130 0.8005
H92 H 0.3811 0.7294 0.7894
Br4A Br 0.69417(5) 0.45802(4) 0.35448(4)
Br5A Br 0.73423(5) 0.38285(5) 0.51151(4)
Cu4A Cu 0.61000(6) 0.37099(5) 0.40193(5)
Cu5A Cu 0.78496(6) 0.37987(5) 0.39637(5)
Cu5A_2 Cu -0.21504(6) 0.37987(5) 0.39637(5)
P7A P 0.54891(13) 0.25933(10) 0.29892(10)
P8A P 0.74666(12) 0.26635(10) 0.29485(10)
C72A C 0.4402(5) 0.2950(4) 0.1989(4)
H62A H 0.4964 0.3195 0.1988
C73A C 0.3563(6) 0.2152(5) 0.2369(5)
H63A H 0.3545 0.1850 0.2610
C74A C 0.3583(6) 0.3002(5) 0.1585(4)
H64A H 0.3606 0.3281 0.1321
C75A C 0.4397(5) 0.2551(4) 0.2384(4)
C76A C 0.2714(6) 0.2233(5) 0.1951(5)
H65A H 0.2144 0.1995 0.1945
C77A C 0.2745(7) 0.2646(5) 0.1574(5)
H66A H 0.2201 0.2688 0.1309
C78A C 0.5284(5) 0.1736(4) 0.3104(4)
C79A C 0.5617(5) 0.1807(4) 0.3815(5)
H67A H 0.5917 0.2284 0.4240
C80A C 0.5040(6) 0.0453(5) 0.3269(7)
H68A H 0.4972 0.0018 0.3331
C81A C 0.4829(5) 0.1034(4) 0.2503(5)
H69A H 0.4604 0.0999 0.2024
C82A C 0.4677(6) 0.0375(5) 0.2555(6)
H70A H 0.4349 -0.0097 0.2133
C83A C 0.7595(4) 0.1866(3) 0.3143(4)
C84A C 0.7392(5) 0.0539(4) 0.2800(5)
H71A H 0.7107 0.0028 0.2443
C85A C 0.7926(6) 0.0722(5) 0.3494(5)
H72A H 0.8052 0.0334 0.3603
C86A C 0.7263(5) 0.1110(4) 0.2614(4)
H73A H 0.6941 0.0975 0.2113
C87A C 0.8293(6) 0.1474(4) 0.4051(5)
H74A H 0.8660 0.1600 0.4536
C88A C 0.8102(5) 0.2045(4) 0.3871(4)
H75A H 0.8322 0.2556 0.4249
C89A C 0.8166(5) 0.2556(4) 0.2293(4)
C90A C 0.9071(5) 0.2919(6) 0.2647(6)
H76A H 0.9292 0.3216 0.3179
C91A C 0.7865(7) 0.2158(5) 0.1524(5)
H77A H 0.7235 0.1932 0.1282
C92A C 0.8458(7) 0.2069(6) 0.1075(6)
H78A H 0.8236 0.1778 0.0543
C93A C 0.9351(7) 0.2413(6) 0.1430(5)
H79A H 0.9758 0.2356 0.1138
C98A C 0.9685(8) 0.2836(7) 0.2188(7)
H85A H 1.0313 0.3076 0.2419
N1A N 0.5413(4) 0.4440(3) 0.4582(3)
N2A N -0.0881(4) 0.4490(3) 0.4557(3)
N2A_2 N 0.9119(4) 0.4490(3) 0.4557(3)
C99A C 0.5309(5) 0.4552(4) 0.5255(4)
H86A H 0.5531 0.4255 0.5463
C100A C 0.5108(5) 0.4915(4) 0.4346(4)
H87A H 0.5184 0.4880 0.3889
C101A C -0.0547(5) 0.5084(4) 0.4466(4)
H88A H -0.0912 0.5168 0.4096
C102A C -0.0315(5) 0.4422(4) 0.5104(5)
H89A H -0.0512 0.4022 0.5200
C103A C 0.5494(6) 0.1141(5) 0.3886(6)
H90A H 0.5726 0.1171 0.4362
C104A C 0.6248(5) 0.2408(4) 0.2375(4)
H91A H 0.6061 0.1870 0.1995
H92A H 0.6189 0.2706 0.2106
O1 O 0.1659(5) 0.9010(5) 0.1680(5)
H93 H 0.1957 0.8853 0.1377
C105 C 0.1734(9) 0.9981(8) 0.1966(10)
H94 H 0.2285 1.0291 0.2387
H95 H 0.1204 1.0108 0.2125
H96 H 0.1753 1.0076 0.1544
O2 O 0.1683(11) 0.4226(8) 0.3757(13)
H97 H 0.1202 0.3884 0.3568
C106 C 0.2481(13) 0.3897(9) 0.3826(17)
H98 H 0.2901 0.4049 0.3594
H99 H 0.2268 0.3348 0.3571
H100 H 0.2792 0.4081 0.4359
loop_
_geom_bond_atom_site_label_1
_geom_bond_atom_site_label_2
_geom_bond_site_symmetry_1
_geom_bond_site_symmetry_2
Br2 Cu1 1_555 1_555
Br3 Cu1 1_555 1_555
Cu1 P1 1_555 1_555
Cu2 Br2 1_555 1_555
Br4 Cu4 1_555 1_555
Cu3 Br2 1_555 1_555
Br5 Cu4 1_555 1_555
Cu4 P7 1_555 1_555
Cu5 Br4 1_555 1_555
P1 C51 1_555 1_555
P2 Cu3 1_555 1_555
P3 Cu1 1_555 1_555
P4 Cu3 1_555 1_555
P5 Cu2 1_555 1_555
P6 Cu2 1_555 1_555
C1 H1 1_555 1_555
C2 P3 1_555 1_555
C3 C2 1_555 1_555
H2 C3 1_555 1_555
C4 C1 1_555 1_555
H3 C4 1_555 1_555
C5 P3 1_555 1_555
C6 C3 1_555 1_555
H4 C6 1_555 1_555
C7 C5 1_555 1_555
H5 C7 1_555 1_555
C8 H6 1_555 1_555
C9 C5 1_555 1_555
H7 C9 1_555 1_555
C10 C4 1_555 1_555
H8 C10 1_555 1_555
C11 C8 1_555 1_555
H9 C11 1_555 1_555
C12 C7 1_555 1_555
H10 C12 1_555 1_555
C13 P2 1_555 1_555
C14 P2 1_555 1_555
C15 C14 1_555 1_555
H11 C15 1_555 1_555
C16 C13 1_555 1_555
H12 C16 1_555 1_555
C17 C14 1_555 1_555
H13 C17 1_555 1_555
C18 C13 1_555 1_555
H14 C18 1_555 1_555
C19 H15 1_555 1_555
C20 C16 1_555 1_555
H16 C20 1_555 1_555
C21 C15 1_555 1_555
H17 C21 1_555 1_555
C22 C21 1_555 1_555
H18 C22 1_555 1_555
C23 C18 1_555 1_555
H19 C23 1_555 1_555
C24 C17 1_555 1_555
H20 C24 1_555 1_555
C25 P4 1_555 1_555
C26 C25 1_555 1_555
H21 C26 1_555 1_555
C27 C25 1_555 1_555
H22 C27 1_555 1_555
C28 H23 1_555 1_555
C29 C27 1_555 1_555
H24 C29 1_555 1_555
C30 C26 1_555 1_555
H25 C30 1_555 1_555
C31 P4 1_555 1_555
C32 C31 1_555 1_555
H26 C32 1_555 1_555
C33 C31 1_555 1_555
H27 C33 1_555 1_555
C34 C32 1_555 1_555
H28 C34 1_555 1_555
C35 C33 1_555 1_555
H29 C35 1_555 1_555
C36 C34 1_555 1_555
H30 C36 1_555 1_555
C37 P2 1_555 1_555
H31 C37 1_555 1_555
H32 C37 1_555 1_555
C38 P4 1_555 1_555
H33 C38 1_555 1_555
H34 C38 1_555 1_555
C39 P6 1_555 1_555
C40 H35 1_555 1_555
C41 C39 1_555 1_555
H36 C41 1_555 1_555
C42 C39 1_555 1_555
H37 C42 1_555 1_555
C43 C40 1_555 1_555
H38 C43 1_555 1_555
C44 C40 1_555 1_555
H39 C44 1_555 1_555
C45 P6 1_555 1_555
C46 H40 1_555 1_555
C47 C45 1_555 1_555
H41 C47 1_555 1_555
C48 C45 1_555 1_555
H42 C48 1_555 1_555
C49 C47 1_555 1_555
H43 C49 1_555 1_555
C50 C46 1_555 1_555
H44 C50 1_555 1_555
C51 C54 1_555 1_555
C52 H45 1_555 1_555
C53 C52 1_555 1_555
H46 C53 1_555 1_555
C54 C52 1_555 1_555
H47 C54 1_555 1_555
C55 C51 1_555 1_555
H48 C55 1_555 1_555
C56 C53 1_555 1_555
H49 C56 1_555 1_555
C57 P1 1_555 1_555
C58 C57 1_555 1_555
H50 C58 1_555 1_555
C59 C57 1_555 1_555
H51 C59 1_555 1_555
C60 C58 1_555 1_555
H52 C60 1_555 1_555
C61 C60 1_555 1_555
H53 C61 1_555 1_555
C62 C59 1_555 1_555
H54 C62 1_555 1_555
C63 P5 1_555 1_555
C64 C63 1_555 1_555
H55 C64 1_555 1_555
C65 C64 1_555 1_555
H56 C65 1_555 1_555
C66 C65 1_555 1_555
H57 C66 1_555 1_555
C67 P5 1_555 1_555
C68 H58 1_555 1_555
C69 C67 1_555 1_555
H59 C69 1_555 1_555
C70 C67 1_555 1_555
H60 C70 1_555 1_555
C71 C68 1_555 1_555
H61 C71 1_555 1_555
P7 C75 1_555 1_555
P8 Cu5 1_555 1_555
C72 H62 1_555 1_555
C73 H63 1_555 1_555
C74 C72 1_555 1_555
H64 C74 1_555 1_555
C75 C72 1_555 1_555
C76 C73 1_555 1_555
H65 C76 1_555 1_555
C77 C74 1_555 1_555
H66 C77 1_555 1_555
C78 P7 1_555 1_555
C79 C78 1_555 1_555
H67 C79 1_555 1_555
C80 H68 1_555 1_555
C81 C78 1_555 1_555
H69 C81 1_555 1_555
C82 C80 1_555 1_555
H70 C82 1_555 1_555
C83 P8 1_555 1_555
C84 H71 1_555 1_555
C85 C84 1_555 1_555
H72 C85 1_555 1_555
C86 C83 1_555 1_555
H73 C86 1_555 1_555
C87 C85 1_555 1_555
H74 C87 1_555 1_555
C88 C83 1_555 1_555
H75 C88 1_555 1_555
C89 P8 1_555 1_555
C90 C89 1_555 1_555
H76 C90 1_555 1_555
C91 C89 1_555 1_555
H77 C91 1_555 1_555
C92 C91 1_555 1_555
H78 C92 1_555 1_555
C93 C92 1_555 1_555
H79 C93 1_555 1_555
C94 P1 1_555 1_555
H80 C94 1_555 1_555
H81 C94 1_555 1_555
C95 C69 1_555 1_555
H82 C95 1_555 1_555
C96 C66 1_555 1_555
H83 C96 1_555 1_555
C97 C63 1_555 1_555
H84 C97 1_555 1_555
C98 C90 1_555 1_555
H85 C98 1_555 1_555
N1 Cu4 1_555 1_555
N2 Cu5 1_555 1_555
C99 N1 1_555 1_555
H86 C99 1_555 1_555
C100 N1 1_555 1_555
H87 C100 1_555 1_555
C101 N2 1_555 1_555
H88 C101 1_555 1_555
C102 N2 1_555 1_555
H89 C102 1_555 1_555
C103 C79 1_555 1_555
H90 C103 1_555 1_555
C104 P7 1_555 1_555
H91 C104 1_555 1_555
H92 C104 1_555 1_555
O1 H93 1_555 1_555
C105 O1 1_555 1_555
H94 C105 1_555 1_555
H95 C105 1_555 1_555
H96 C105 1_555 1_555
O2 H97 1_555 1_555
C106 O2 1_555 1_555
H98 C106 1_555 1_555
H99 C106 1_555 1_555
H100 C106 1_555 1_555
Br4A Cu4A 1_555 1_555
Br5A Cu4A 1_555 1_555
Cu4A P7A 1_555 1_555
Cu5A Br4A 1_555 1_555
Cu5A_2 N2A 1_555 1_555
P7A C75A 1_555 1_555
P8A Cu5A 1_555 1_555
C72A H62A 1_555 1_555
C73A H63A 1_555 1_555
C74A C72A 1_555 1_555
H64A C74A 1_555 1_555
C75A C72A 1_555 1_555
C76A C73A 1_555 1_555
H65A C76A 1_555 1_555
C77A C74A 1_555 1_555
H66A C77A 1_555 1_555
C78A P7A 1_555 1_555
C79A C78A 1_555 1_555
H67A C79A 1_555 1_555
C80A H68A 1_555 1_555
C81A C78A 1_555 1_555
H69A C81A 1_555 1_555
C82A C80A 1_555 1_555
H70A C82A 1_555 1_555
C83A P8A 1_555 1_555
C84A H71A 1_555 1_555
C85A C84A 1_555 1_555
H72A C85A 1_555 1_555
C86A C83A 1_555 1_555
H73A C86A 1_555 1_555
C87A C85A 1_555 1_555
H74A C87A 1_555 1_555
C88A C83A 1_555 1_555
H75A C88A 1_555 1_555
C89A P8A 1_555 1_555
C90A C89A 1_555 1_555
H76A C90A 1_555 1_555
C91A C89A 1_555 1_555
H77A C91A 1_555 1_555
C92A C91A 1_555 1_555
H78A C92A 1_555 1_555
C93A C92A 1_555 1_555
H79A C93A 1_555 1_555
C98A C90A 1_555 1_555
H85A C98A 1_555 1_555
N1A Cu4A 1_555 1_555
N2A C101A 1_555 1_555
N2A_2 Cu5A 1_555 1_555
C99A C100 1_555 1_555
H86A C99A 1_555 1_555
C100A C99 1_555 1_555
H87A C100A 1_555 1_555
C101A C102 1_555 1_555
H88A C101A 1_555 1_555
C102A C101 1_555 1_555
H89A C102A 1_555 1_555
C103A C79A 1_555 1_555
H90A C103A 1_555 1_555
C104A P7A 1_555 1_555
H91A C104A 1_555 1_555
H92A C104A 1_555 1_555
Br3 Cu2 1_555 1_555
Br3 Cu3 1_555 1_555
Br5 Cu5 1_555 1_555
P3 C37 1_555 1_555
P5 C94 1_555 1_555
P6 C38 1_555 1_555
C1 C2 1_555 1_555
C6 C10 1_555 1_555
C8 C12 1_555 1_555
C9 C11 1_555 1_555
C19 C20 1_555 1_555
C19 C23 1_555 1_555
C22 C24 1_555 1_555
C28 C29 1_555 1_555
C28 C30 1_555 1_555
C35 C36 1_555 1_555
C41 C43 1_555 1_555
C42 C44 1_555 1_555
C46 C48 1_555 1_555
C49 C50 1_555 1_555
C55 C56 1_555 1_555
C61 C62 1_555 1_555
C68 C70 1_555 1_555
C71 C95 1_555 1_555
P8 C104 1_555 1_555
C73 C75 1_555 1_555
C76 C77 1_555 1_555
C80 C103 1_555 1_555
C81 C82 1_555 1_555
C84 C86 1_555 1_555
C87 C88 1_555 1_555
C93 C98 1_555 1_555
C96 C97 1_555 1_555
Br5A Cu5A 1_555 1_555
P8A C104A 1_555 1_555
C73A C75A 1_555 1_555
C76A C77A 1_555 1_555
C80A C103A 1_555 1_555
C81A C82A 1_555 1_555
C84A C86A 1_555 1_555
C87A C88A 1_555 1_555
C93A C98A 1_555 1_555
N1A C99A 1_555 1_555
N1A C100A 1_555 1_555
N2A C102A 1_555 1_555

#END
