
#######################################################################
#
#                 Cambridge Crystallographic Data Centre
#                                CCDC 
#
#######################################################################
#
# If this CIF has been generated from an entry in the Cambridge 
# Structural Database, then it will include bibliographic, chemical, 
# crystal, experimental, refinement or atomic coordinate data resulting 
# from the CCDC's data processing and validation procedures.
#
#######################################################################

data_DOYWIY
_symmetry_cell_setting           triclinic
_symmetry_space_group_name_H-M   'P -1'
_symmetry_Int_Tables_number      2
_space_group_name_Hall           '-P 1'
loop_
_symmetry_equiv_pos_site_id
_symmetry_equiv_pos_as_xyz
1 x,y,z
2 -x,-y,-z
_cell_length_a                   9.296(7)
_cell_length_b                   11.195(8)
_cell_length_c                   11.417(8)
_cell_angle_alpha                70.364(8)
_cell_angle_beta                 67.381(8)
_cell_angle_gamma                67.025(9)
_cell_volume                     985.303
loop_
_atom_site_label
_atom_site_type_symbol
_atom_site_fract_x
_atom_site_fract_y
_atom_site_fract_z
Co1 Co 0.5000 0.5000 0.5000
Co2 Co 0.14209(8) 0.47795(6) 0.72083(6)
Co3 Co 0.35236(8) 0.25999(6) 0.52629(6)
N1 N -0.2491(6) 0.7248(5) 0.6031(5)
N2 N -0.1130(6) 0.6236(5) 0.6056(5)
N3 N -0.0553(6) 0.6235(5) 0.6965(5)
O1 O 0.0770(6) 0.3154(5) 0.8138(5)
O2 O 0.2503(5) 0.1608(4) 0.6989(4)
O3 O 0.5804(5) 0.1638(4) 0.4816(4)
O4 O 0.6577(5) 0.3048(4) 0.5274(5)
O5 O 0.4862(6) 0.4939(5) 0.6872(4)
O6 O 0.2378(5) 0.5032(5) 0.8291(4)
O7 O 0.2900(5) 0.4435(4) 0.5495(4)
H1 H 0.2391 0.4945 0.4940
C1 C 0.1360(7) 0.1984(6) 0.7960(6)
C2 C 0.0645(7) 0.0952(6) 0.9012(6)
C3 C 0.1348(8) -0.0384(6) 0.8989(7)
H2 H 0.2246 -0.0645 0.8297
C4 C -0.0733(8) 0.1334(6) 1.0020(6)
H3 H -0.1245 0.2230 1.0029
C5 C 0.6856(7) 0.1966(6) 0.5017(6)
C6 C 0.8490(7) 0.0948(6) 0.4995(6)
C7 C 0.9026(7) -0.0100(6) 0.4397(6)
H4 H 0.8372 -0.0170 0.3993
C8 C 0.9476(7) 0.1045(6) 0.5605(7)
H5 H 0.9123 0.1745 0.6013
C9 C 0.3848(8) 0.4993(6) 0.7982(6)
C10 C 0.4457(7) 0.4996(6) 0.9029(5)
C11 C 0.6084(7) 0.4838(7) 0.8785(6)
H6 H 0.6815 0.4725 0.7973
C12 C 0.3367(8) 0.5153(7) 1.0239(6)
H7 H 0.2270 0.5253 1.0402
C13 C -0.2815(7) 0.7921(6) 0.6949(6)
C14 C -0.4120(8) 0.9060(7) 0.7309(7)
H8 H -0.4974 0.9473 0.6937
C15 C -0.4012(10) 0.9498(9) 0.8248(8)
H9 H -0.4810 1.0258 0.8499
C16 C -0.2771(10) 0.8867(9) 0.8852(9)
H10 H -0.2779 0.9211 0.9492
C17 C -0.1542(9) 0.7750(8) 0.8520(7)
H11 H -0.0717 0.7325 0.8923
C18 C -0.1588(8) 0.7281(6) 0.7543(6)
Co1_2 Co 1.5000 -0.5000 0.5000
Co1_3 Co 0.5000 0.5000 1.5000
Co2A Co 0.85791(8) 0.52205(6) 1.27917(6)
Co2A_2 Co -0.14209(8) -0.47795(6) 1.27917(6)
Co2A_3 Co 0.85791(8) 0.52205(6) 0.27917(6)
Co2A_4 Co -0.14209(8) 0.52205(6) 0.27917(6)
Co3A Co 1.64764(8) -0.25999(6) 0.47371(6)
Co3A_2 Co -0.35236(8) 0.74001(6) 0.47371(6)
Co3A_3 Co -0.35236(8) -0.25999(6) 1.47371(6)
Co3A_4 Co 0.64764(8) 0.74001(6) 0.47371(6)
N1A N 0.2491(6) 0.2752(5) 0.3969(5)
N1_2 N 1.7509(6) -0.2752(5) 0.6031(5)
N2A N 0.1130(6) 0.3764(5) 0.3944(5)
N3A N 0.0553(6) 0.3765(5) 0.3035(5)
N3A_2 N 1.0553(6) 0.3765(5) 1.3035(5)
O1A O -0.0770(6) -0.3154(5) 1.1862(5)
O1A_2 O 0.9230(6) 0.6846(5) 1.1862(5)
O2A O -0.2503(5) -0.1608(4) 1.3011(4)
O2A_2 O 1.7497(5) -0.1608(4) 0.3011(4)
O3A O 1.4196(5) -0.1638(4) 0.5184(4)
O4A O 1.3423(5) -0.3048(4) 0.4726(5)
O4A_2 O 0.3423(5) 0.6952(4) 0.4726(5)
O5A O 0.5138(6) 0.5061(5) 1.3128(4)
O5A_2 O 0.5138(6) 0.5061(5) 0.3128(4)
O6A O 0.7622(5) 0.4968(5) 1.1709(4)
O7A O 0.7100(5) 0.5565(4) 0.4505(4)
O7A_2 O 0.7100(5) 0.5565(4) 1.4505(4)
O7A_3 O 1.7100(5) -0.4435(4) 0.4505(4)
H1A H 0.7609 0.5055 0.5060
H1A_2 H 0.7609 0.5055 1.5060
H1A_3 H 1.7609 -0.4945 0.5060
C1A C -0.1360(7) -0.1984(6) 1.2040(6)
C2A C -0.0645(7) -0.0952(6) 1.0988(6)
C3A C -0.1348(8) 0.0384(6) 1.1011(7)
H2A H -0.2246 0.0645 1.1703
C4A C 0.0733(8) -0.1334(6) 0.9980(6)
H3A H 0.1245 -0.2230 0.9971
C5A C 1.3144(7) -0.1966(6) 0.4983(6)
C6A C 1.1510(7) -0.0948(6) 0.5005(6)
C7A C 1.0974(7) 0.0100(6) 0.5603(6)
H4A H 1.1628 0.0170 0.6007
C8A C 1.0524(7) -0.1045(6) 0.4395(7)
H5A H 1.0877 -0.1745 0.3987
C9A C 0.6152(8) 0.5007(6) 1.2018(6)
C10A C 0.5543(7) 0.5004(6) 1.0971(5)
C11A C 0.3916(7) 0.5162(7) 1.1215(6)
H6A H 0.3185 0.5275 1.2027
C12A C 0.6633(8) 0.4847(7) 0.9761(6)
H7A H 0.7730 0.4747 0.9598
C13A C 0.2815(7) 0.2079(6) 0.3051(6)
C14A C 0.4120(8) 0.0940(7) 0.2691(7)
H8A H 0.4974 0.0527 0.3063
C15A C 0.4012(10) 0.0502(9) 0.1752(8)
H9A H 0.4810 -0.0258 0.1501
C16A C 0.2771(10) 0.1133(9) 0.1148(9)
H10A H 0.2779 0.0789 0.0508
C17A C 0.1542(9) 0.2250(8) 0.1480(7)
H11A H 0.0717 0.2675 0.1077
C18A C 0.1588(8) 0.2719(6) 0.2457(6)
loop_
_geom_bond_atom_site_label_1
_geom_bond_atom_site_label_2
_geom_bond_site_symmetry_1
_geom_bond_site_symmetry_2
Co1 O4 1_555 1_555
Co2 N3 1_555 1_555
Co3 O2 1_555 1_555
N1 N2 1_555 1_555
N2 N3 1_555 1_555
N3 C18 1_555 1_555
O1 Co2 1_555 1_555
O2 C1 1_555 1_555
O3 Co3 1_555 1_555
O4 C5 1_555 1_555
O5 Co1 1_555 1_555
O6 Co2 1_555 1_555
O7 Co1 1_555 1_555
H1 O7 1_555 1_555
C1 O1 1_555 1_555
C2 C1 1_555 1_555
C3 C2 1_555 1_555
H2 C3 1_555 1_555
C4 C2 1_555 1_555
H3 C4 1_555 1_555
C5 O3 1_555 1_555
C6 C5 1_555 1_555
C7 C6 1_555 1_555
H4 C7 1_555 1_555
C8 C6 1_555 1_555
H5 C8 1_555 1_555
C9 O5 1_555 1_555
C10 C9 1_555 1_555
C11 C10 1_555 1_555
H6 C11 1_555 1_555
C12 C10 1_555 1_555
H7 C12 1_555 1_555
C13 N1 1_555 1_555
C14 C13 1_555 1_555
H8 C14 1_555 1_555
C15 C14 1_555 1_555
H9 C15 1_555 1_555
C16 C15 1_555 1_555
H10 C16 1_555 1_555
C17 C16 1_555 1_555
H11 C17 1_555 1_555
C18 C13 1_555 1_555
Co1_2 O4A 1_555 1_555
Co1_3 O5A 1_555 1_555
Co2A N3A_2 1_555 1_555
Co2A_2 O1A 1_555 1_555
Co2A_3 O7A 1_555 1_555
Co2A_4 N3A 1_555 1_555
Co3A N1_2 1_555 1_555
Co3A_2 N1 1_555 1_555
Co3A_3 O2A 1_555 1_555
Co3A_4 O7A 1_555 1_555
N1A Co3 1_555 1_555
N2A N1A 1_555 1_555
N3A N2A 1_555 1_555
O1A C1A 1_555 1_555
O1A_2 Co2A 1_555 1_555
O2A C1A 1_555 1_555
O2A_2 Co3A 1_555 1_555
O3A Co3A 1_555 1_555
O4A C5A 1_555 1_555
O4A_2 Co1 1_555 1_555
O5A C9A 1_555 1_555
O5A_2 Co1 1_555 1_555
O6A Co2A 1_555 1_555
O7A Co1 1_555 1_555
O7A_2 Co1_3 1_555 1_555
O7A_3 Co1_2 1_555 1_555
H1A O7A 1_555 1_555
H1A_2 O7A_2 1_555 1_555
H1A_3 O7A_3 1_555 1_555
C1A C2A 1_555 1_555
C2A C3A 1_555 1_555
C3A C4 1_555 1_555
H2A C3A 1_555 1_555
C4A C3 1_555 1_555
H3A C4A 1_555 1_555
C5A O3A 1_555 1_555
C6A C5A 1_555 1_555
C7A C8 1_555 1_555
H4A C7A 1_555 1_555
C8A C7 1_555 1_555
H5A C8A 1_555 1_555
C9A O6A 1_555 1_555
C10A C9A 1_555 1_555
C11A C12 1_555 1_555
H6A C11A 1_555 1_555
C12A C11 1_555 1_555
H7A C12A 1_555 1_555
C13A N1A 1_555 1_555
C14A C13A 1_555 1_555
H8A C14A 1_555 1_555
C15A C14A 1_555 1_555
H9A C15A 1_555 1_555
C16A C15A 1_555 1_555
H10A C16A 1_555 1_555
C17A C16A 1_555 1_555
H11A C17A 1_555 1_555
C18A N3A 1_555 1_555
Co2 O7 1_555 1_555
Co3 O7 1_555 1_555
O6 C9 1_555 1_555
C17 C18 1_555 1_555
Co2A O7A_2 1_555 1_555
Co3A O7A_3 1_555 1_555
C2A C4A 1_555 1_555
C6A C7A 1_555 1_555
C6A C8A 1_555 1_555
C10A C11A 1_555 1_555
C10A C12A 1_555 1_555
C13A C18A 1_555 1_555
C17A C18A 1_555 1_555

#END
