
#######################################################################
#
#                 Cambridge Crystallographic Data Centre
#                                CCDC 
#
#######################################################################
#
# If this CIF has been generated from an entry in the Cambridge 
# Structural Database, then it will include bibliographic, chemical, 
# crystal, experimental, refinement or atomic coordinate data resulting 
# from the CCDC's data processing and validation procedures.
#
#######################################################################

data_DOYWEU
_symmetry_cell_setting           triclinic
_symmetry_space_group_name_H-M   'P -1'
_symmetry_Int_Tables_number      2
_space_group_name_Hall           '-P 1'
loop_
_symmetry_equiv_pos_site_id
_symmetry_equiv_pos_as_xyz
1 x,y,z
2 -x,-y,-z
_cell_length_a                   9.719(4)
_cell_length_b                   10.443(4)
_cell_length_c                   17.730(7)
_cell_angle_alpha                88.465(5)
_cell_angle_beta                 85.151(5)
_cell_angle_gamma                79.243(4)
_cell_volume                     1761.45
loop_
_atom_site_label
_atom_site_type_symbol
_atom_site_fract_x
_atom_site_fract_y
_atom_site_fract_z
Cu1 Cu 0.77780(4) 0.36003(4) 0.99557(2)
N1 N 0.6056(3) 0.3849(3) 0.93577(18)
N2 N 0.6312(3) 0.5064(3) 1.06382(19)
N3 N 0.9507(3) 0.3627(3) 1.05128(17)
N4 N 0.8536(3) 0.5337(3) 0.94301(18)
N5 N 0.9010(4) 0.2309(4) 0.9188(2)
N6 N 0.9994(5) -0.0734(4) 0.7434(3)
N7 N 1.2471(5) 0.2347(6) 0.7393(3)
N8 N 0.7086(4) 0.2095(3) 1.0638(2)
N9 N 0.3966(6) 0.0043(6) 1.1979(4)
N10 N 0.7270(8) -0.2050(5) 1.0372(4)
C1 C 0.5938(4) 0.3255(4) 0.8716(2)
H1 H 0.6712 0.2696 0.8491
C2 C 0.4678(5) 0.3462(5) 0.8381(3)
H2 H 0.4584 0.3041 0.7938
C3 C 0.6433(4) 0.5684(4) 1.1267(3)
H3 H 0.7294 0.5537 1.1478
C4 C 0.4937(4) 0.4664(3) 0.9649(2)
C5 C 1.0026(4) 0.2746(4) 1.1031(2)
H4 H 0.9523 0.2104 1.1199
C6 C 1.1289(4) 0.2780(5) 1.1316(2)
H5 H 1.1666 0.2151 1.1660
C7 C 0.8023(4) 0.6231(5) 0.8922(2)
H6 H 0.7179 0.6180 0.8724
C8 C 1.0265(3) 0.4528(4) 1.0296(2)
C9 C 0.9699(4) 0.1825(4) 0.8681(2)
C10 C 1.0544(4) 0.1253(4) 0.8058(2)
C11 C 1.0230(5) 0.0146(4) 0.7731(2)
C12 C 1.1614(5) 0.1860(5) 0.7706(3)
C13 C 0.6575(4) 0.1203(4) 1.0803(2)
C14 C 0.6034(5) 0.0078(4) 1.0984(3)
C15 C 0.4887(6) 0.0090(5) 1.1519(4)
C16 C 0.6707(7) -0.1087(5) 1.0640(3)
Cu1A Cu 0.22220(4) 0.63997(4) 1.00443(2)
Cu1A_2 Cu 1.22220(4) 0.63997(4) 1.00443(2)
N1A N 0.3944(3) 0.6151(3) 1.06423(18)
N1A_2 N 1.3944(3) 0.6151(3) 1.06423(18)
N2A N 0.3688(3) 0.4936(3) 0.93618(19)
N2A_2 N 1.3688(3) 0.4936(3) 0.93618(19)
N3A N 1.0493(3) 0.6373(3) 0.94872(17)
N4A N 1.1464(3) 0.4663(3) 1.05699(18)
N5A N 1.0990(4) 0.7691(4) 1.0812(2)
N6A N 1.0006(5) 1.0734(4) 1.2566(3)
N7A N 0.7529(5) 0.7653(6) 1.2607(3)
N8A N 1.2914(4) 0.7905(3) 0.9362(2)
N9A N 1.6034(6) 0.9957(6) 0.8021(4)
N10A N 1.2730(8) 1.2050(5) 0.9628(4)
C1A C 0.4062(4) 0.6745(4) 1.1284(2)
H1A H 0.3288 0.7304 1.1509
C2A C 0.5322(5) 0.6538(5) 1.1619(3)
H2A H 0.5416 0.6959 1.2062
C3A C 0.3567(4) 0.4316(4) 0.8733(3)
H3A H 0.2706 0.4463 0.8522
C4A C 0.5063(4) 0.5336(3) 1.0351(2)
C5A C 0.9974(4) 0.7254(4) 0.8969(2)
H4A H 1.0477 0.7896 0.8801
C6A C 0.8711(4) 0.7220(5) 0.8684(2)
H5A H 0.8334 0.7849 0.8340
C7A C 1.1977(4) 0.3769(5) 1.1078(2)
H6A H 1.2821 0.3820 1.1276
C8A C 0.9735(3) 0.5472(4) 0.9704(2)
C9A C 1.0301(4) 0.8175(4) 1.1319(2)
C10A C 0.9456(4) 0.8747(4) 1.1942(2)
C11A C 0.9770(5) 0.9854(4) 1.2269(2)
C12A C 0.8386(5) 0.8140(5) 1.2294(3)
C13A C 1.3425(4) 0.8797(4) 0.9197(2)
C14A C 1.3966(5) 0.9922(4) 0.9016(3)
C15A C 1.5113(6) 0.9910(5) 0.8481(4)
C16A C 1.3293(7) 1.1087(5) 0.9360(3)
Cu2 Cu 0.21934(4) 0.14488(4) 0.48069(2)
N11 N 0.0269(3) 0.1391(3) 0.54915(19)
N12 N 0.1538(3) -0.0152(3) 0.43554(18)
N13 N 0.3410(3) 0.0082(3) 0.55945(18)
N14 N 0.4275(3) 0.1007(3) 0.42446(19)
N15 N 0.2634(4) 0.2967(3) 0.5339(2)
N16 N 0.2575(6) 0.7196(4) 0.5327(3)
N17 N 0.5675(5) 0.4579(6) 0.6555(3)
N18 N 0.1263(4) 0.2597(4) 0.3960(2)
N19 N -0.2327(4) 0.3659(4) 0.2497(2)
N20 N 0.1249(5) 0.5799(4) 0.2393(2)
C17 C -0.0376(5) 0.2181(4) 0.6039(3)
H7 H 0.0012 0.2887 0.6167
C18 C -0.1615(5) 0.1972(5) 0.6424(3)
H8 H -0.2060 0.2513 0.6814
C19 C 0.2161(5) -0.0936(4) 0.3794(3)
H9 H 0.2991 -0.0773 0.3543
C20 C -0.0358(4) 0.0432(3) 0.5309(2)
C21 C 0.2968(5) -0.0402(5) 0.6256(2)
H10 H 0.2020 -0.0204 0.6422
C22 C 0.3880(5) -0.1183(5) 0.6695(3)
H11 H 0.3571 -0.1509 0.7159
C23 C 0.4745(5) 0.1466(4) 0.3571(3)
H12 H 0.4108 0.1993 0.3279
C24 C 0.4765(4) -0.0253(3) 0.5371(2)
C25 C 0.3087(4) 0.3849(4) 0.5512(2)
C26 C 0.3624(4) 0.4902(4) 0.5729(2)
C27 C 0.4753(5) 0.4715(5) 0.6184(3)
C28 C 0.3052(5) 0.6162(5) 0.5494(3)
C29 C 0.0632(4) 0.3229(4) 0.3531(2)
C30 C -0.0064(4) 0.4057(4) 0.2991(2)
C31 C -0.1320(5) 0.3838(4) 0.2733(2)
C32 C 0.0628(5) 0.5034(4) 0.2667(2)
Cu2A Cu -0.21934(4) -0.14488(4) 0.51931(2)
Cu2A_2 Cu 0.78066(4) -0.14488(4) 0.51931(2)
N11A N -0.0269(3) -0.1391(3) 0.45085(19)
N11A_2 N 0.9731(3) -0.1391(3) 0.45085(19)
N12A N -0.1538(3) 0.0152(3) 0.56446(18)
N12A_2 N 0.8462(3) 0.0152(3) 0.56446(18)
N13A N 0.6590(3) -0.0082(3) 0.44055(18)
N14A N 0.5725(3) -0.1007(3) 0.57554(19)
N15A N 0.7366(4) -0.2967(3) 0.4661(2)
N16A N 0.7425(6) -0.7196(4) 0.4673(3)
N17A N 0.4325(5) -0.4579(6) 0.3445(3)
N18A N 0.8737(4) -0.2597(4) 0.6040(2)
N19A N 1.2327(4) -0.3659(4) 0.7503(2)
N20A N 0.8751(5) -0.5799(4) 0.7607(2)
C17A C 0.0376(5) -0.2181(4) 0.3961(3)
H7A H -0.0012 -0.2887 0.3833
C18A C 0.1615(5) -0.1972(5) 0.3576(3)
H8A H 0.2060 -0.2513 0.3186
C19A C -0.2161(5) 0.0936(4) 0.6206(3)
H9A H -0.2991 0.0773 0.6457
C20A C 0.0358(4) -0.0432(3) 0.4691(2)
C21A C 0.7032(5) 0.0402(5) 0.3744(2)
H10A H 0.7980 0.0204 0.3578
C22A C 0.6120(5) 0.1183(5) 0.3305(3)
H11A H 0.6429 0.1509 0.2841
C23A C 0.5255(5) -0.1466(4) 0.6429(3)
H12A H 0.5892 -0.1993 0.6721
C24A C 0.5235(4) 0.0253(3) 0.4629(2)
C25A C 0.6913(4) -0.3849(4) 0.4488(2)
C26A C 0.6376(4) -0.4902(4) 0.4271(2)
C27A C 0.5247(5) -0.4715(5) 0.3816(3)
C28A C 0.6948(5) -0.6162(5) 0.4506(3)
C29A C 0.9368(4) -0.3229(4) 0.6469(2)
C30A C 1.0064(4) -0.4057(4) 0.7009(2)
C31A C 1.1320(5) -0.3838(4) 0.7267(2)
C32A C 0.9372(5) -0.5034(4) 0.7333(2)
O1 O 0.5411(4) 0.6358(4) 0.7882(2)
H13 H 0.583(6) 0.594(7) 0.760(4)
H14 H 0.464(6) 0.667(6) 0.783(4)
loop_
_geom_bond_atom_site_label_1
_geom_bond_atom_site_label_2
_geom_bond_site_symmetry_1
_geom_bond_site_symmetry_2
Cu1 N1 1_555 1_555
N1 C1 1_555 1_555
N2 Cu1 1_555 1_555
N3 Cu1 1_555 1_555
N4 Cu1 1_555 1_555
N5 Cu1 1_555 1_555
N6 C11 1_555 1_555
N7 C12 1_555 1_555
N8 Cu1 1_555 1_555
N9 C15 1_555 1_555
N10 C16 1_555 1_555
C1 H1 1_555 1_555
C2 C1 1_555 1_555
H2 C2 1_555 1_555
C3 N2 1_555 1_555
H3 C3 1_555 1_555
C4 N1 1_555 1_555
C5 N3 1_555 1_555
H4 C5 1_555 1_555
C6 C5 1_555 1_555
H5 C6 1_555 1_555
C7 N4 1_555 1_555
H6 C7 1_555 1_555
C8 N3 1_555 1_555
C9 N5 1_555 1_555
C10 C9 1_555 1_555
C11 C10 1_555 1_555
C12 C10 1_555 1_555
C13 N8 1_555 1_555
C14 C13 1_555 1_555
C15 C14 1_555 1_555
C16 C14 1_555 1_555
Cu2 N11 1_555 1_555
N11 C17 1_555 1_555
N12 Cu2 1_555 1_555
N13 Cu2 1_555 1_555
N14 Cu2 1_555 1_555
N15 Cu2 1_555 1_555
N16 C28 1_555 1_555
N17 C27 1_555 1_555
N18 Cu2 1_555 1_555
N19 C31 1_555 1_555
N20 C32 1_555 1_555
C17 H7 1_555 1_555
C18 C17 1_555 1_555
H8 C18 1_555 1_555
C19 N12 1_555 1_555
H9 C19 1_555 1_555
C20 N11 1_555 1_555
C21 N13 1_555 1_555
H10 C21 1_555 1_555
C22 C21 1_555 1_555
H11 C22 1_555 1_555
C23 N14 1_555 1_555
H12 C23 1_555 1_555
C24 N13 1_555 1_555
C25 N15 1_555 1_555
C26 C25 1_555 1_555
C27 C26 1_555 1_555
C28 C26 1_555 1_555
C29 N18 1_555 1_555
C30 C29 1_555 1_555
C31 C30 1_555 1_555
C32 C30 1_555 1_555
O1 H13 1_555 1_555
H14 O1 1_555 1_555
Cu1A N1A 1_555 1_555
Cu1A_2 N1A_2 1_555 1_555
N1A C1A 1_555 1_555
N2A C4 1_555 1_555
N2A_2 Cu1A_2 1_555 1_555
N3A Cu1A_2 1_555 1_555
N4A C8 1_555 1_555
N5A Cu1A_2 1_555 1_555
N6A C11A 1_555 1_555
N7A C12A 1_555 1_555
N8A Cu1A_2 1_555 1_555
N9A C15A 1_555 1_555
N10A C16A 1_555 1_555
C1A H1A 1_555 1_555
C2A C3 1_555 1_555
H2A C2A 1_555 1_555
C3A C2 1_555 1_555
H3A C3A 1_555 1_555
C4A N2 1_555 1_555
C5A N3A 1_555 1_555
H4A C5A 1_555 1_555
C6A C7 1_555 1_555
H5A C6A 1_555 1_555
C7A C6 1_555 1_555
H6A C7A 1_555 1_555
C8A N4 1_555 1_555
C9A N5A 1_555 1_555
C10A C9A 1_555 1_555
C11A C10A 1_555 1_555
C12A C10A 1_555 1_555
C13A N8A 1_555 1_555
C14A C13A 1_555 1_555
C15A C14A 1_555 1_555
C16A C14A 1_555 1_555
Cu2A N11A 1_555 1_555
Cu2A_2 N11A_2 1_555 1_555
N11A C17A 1_555 1_555
N12A C20 1_555 1_555
N12A_2 Cu2A_2 1_555 1_555
N13A Cu2A_2 1_555 1_555
N14A C24 1_555 1_555
N15A Cu2A_2 1_555 1_555
N16A C28A 1_555 1_555
N17A C27A 1_555 1_555
N18A Cu2A_2 1_555 1_555
N19A C31A 1_555 1_555
N20A C32A 1_555 1_555
C17A H7A 1_555 1_555
C18A C19 1_555 1_555
H8A C18A 1_555 1_555
C19A C18 1_555 1_555
H9A C19A 1_555 1_555
C20A N12 1_555 1_555
C21A N13A 1_555 1_555
H10A C21A 1_555 1_555
C22A C23 1_555 1_555
H11A C22A 1_555 1_555
C23A C22 1_555 1_555
H12A C23A 1_555 1_555
C24A N14 1_555 1_555
C25A N15A 1_555 1_555
C26A C25A 1_555 1_555
C27A C26A 1_555 1_555
C28A C26A 1_555 1_555
C29A N18A 1_555 1_555
C30A C29A 1_555 1_555
C31A C30A 1_555 1_555
C32A C30A 1_555 1_555
C4 C4A 1_555 1_555
C8 C8A 1_555 1_555
C20 C20A 1_555 1_555
C24 C24A 1_555 1_555
Cu1A N2A 1_555 1_555
Cu1A_2 N4A 1_555 1_555
N1A C4A 1_555 1_555
N2A C3A 1_555 1_555
N3A C8A 1_555 1_555
N4A C7A 1_555 1_555
C1A C2A 1_555 1_555
C5A C6A 1_555 1_555
Cu2A N12A 1_555 1_555
Cu2A_2 N14A 1_555 1_555
N11A C20A 1_555 1_555
N12A C19A 1_555 1_555
N13A C24A 1_555 1_555
N14A C23A 1_555 1_555
C17A C18A 1_555 1_555
C21A C22A 1_555 1_555

#END
