
#######################################################################
#
#                 Cambridge Crystallographic Data Centre
#                                CCDC 
#
#######################################################################
#
# If this CIF has been generated from an entry in the Cambridge 
# Structural Database, then it will include bibliographic, chemical, 
# crystal, experimental, refinement or atomic coordinate data resulting 
# from the CCDC's data processing and validation procedures.
#
#######################################################################

data_DOYWOE
_symmetry_cell_setting           monoclinic
_symmetry_space_group_name_H-M   'P 21/c'
_symmetry_Int_Tables_number      14
_space_group_name_Hall           '-P 2ybc'
loop_
_symmetry_equiv_pos_site_id
_symmetry_equiv_pos_as_xyz
1 x,y,z
2 -x,1/2+y,1/2-z
3 -x,-y,-z
4 x,1/2-y,1/2+z
_cell_length_a                   4.8141(7)
_cell_length_b                   22.478(3)
_cell_length_c                   9.7759(14)
_cell_angle_alpha                90
_cell_angle_beta                 99.741(2)
_cell_angle_gamma                90
_cell_volume                     1042.61
loop_
_atom_site_label
_atom_site_type_symbol
_atom_site_fract_x
_atom_site_fract_y
_atom_site_fract_z
Co1 Co 1.06848(7) 0.314985(14) 0.83333(3)
N1 N 0.9782(5) 0.24443(11) 0.9391(2)
N2 N 1.0932(5) 0.23923(12) 1.0717(2)
N3 N 0.9728(6) 0.19453(11) 1.1295(3)
O1 O 0.8777(5) 0.38341(10) 0.9006(3)
O2 O 0.4704(4) 0.33626(10) 0.8717(2)
C1 C 0.7730(7) 0.20199(14) 0.9079(3)
C2 C 0.5810(7) 0.19031(15) 0.7866(4)
H1 H 0.5815 0.2121 0.7058
C3 C 0.3923(8) 0.14522(17) 0.7928(4)
H2 H 0.2590 0.1367 0.7147
C4 C 0.3949(8) 0.11153(17) 0.9139(4)
H3 H 0.2659 0.0807 0.9128
C5 C 0.5796(8) 0.12244(16) 1.0331(4)
H4 H 0.5794 0.0997 1.1126
C6 C 0.7697(7) 0.16944(14) 1.0304(3)
C7 C 0.6190(6) 0.38118(13) 0.9119(3)
C8 C 0.4978(6) 0.43533(13) 0.9706(3)
H5 H 0.3241 0.4236 1.0032
C9 C 0.4218(7) 0.48135(14) 0.8543(3)
H6 H 0.5892 0.4912 0.8160
H7 H 0.2848 0.4642 0.7806
C10 C 0.6992(7) 0.46206(14) 1.0934(3)
H8 H 0.7334 0.4332 1.1682
H9 H 0.8782 0.4710 1.0650
Co1C Co 1.06848(7) 0.185015(14) 0.33333(3)
Co1C_2 Co 1.06848(7) 0.185015(14) 1.33333(3)
Co1_2 Co 0.06848(7) 0.314985(14) 0.83333(3)
Co1B Co -0.06848(7) 0.685015(14) 1.16667(3)
Co1B_2 Co 0.93152(7) 0.685015(14) 1.16667(3)
N1C N 0.9782(5) 0.25557(11) 0.4391(2)
N2C N 1.0932(5) 0.26077(12) 0.5717(2)
N3C N 0.9728(6) 0.30547(11) 0.6295(3)
N3_2 N 0.9728(6) 0.19453(11) 0.1295(3)
O1B O 0.1223(5) 0.61659(10) 1.0994(3)
O1C O 0.8777(5) 0.11659(10) 0.4006(3)
O2B O 0.5296(4) 0.66374(10) 1.1283(2)
O2_2 O 1.4704(4) 0.33626(10) 0.8717(2)
O2C O 1.4704(4) 0.16374(10) 0.3717(2)
C1C C 0.7730(7) 0.29801(14) 0.4079(3)
C2C C 0.5810(7) 0.30969(15) 0.2866(4)
H1C H 0.5815 0.2879 0.2058
C3C C 0.3923(8) 0.35478(17) 0.2928(4)
H2C H 0.2590 0.3633 0.2147
C4C C 0.3949(8) 0.38847(17) 0.4139(4)
H3C H 0.2659 0.4193 0.4128
C5C C 0.5796(8) 0.37756(16) 0.5331(4)
H4C H 0.5794 0.4003 0.6126
C6C C 0.7697(7) 0.33056(14) 0.5304(3)
C7B C 0.3810(6) 0.61882(13) 1.0881(3)
C8B C 0.5022(6) 0.56467(13) 1.0294(3)
H5B H 0.6759 0.5764 0.9968
C9B C 0.5782(7) 0.51865(14) 1.1457(3)
H6B H 0.4108 0.5088 1.1840
H7B H 0.7152 0.5358 1.2194
C10B C 0.3008(7) 0.53794(14) 0.9066(3)
H8B H 0.2666 0.5668 0.8318
H9B H 0.1218 0.5290 0.9350
loop_
_geom_bond_atom_site_label_1
_geom_bond_atom_site_label_2
_geom_bond_site_symmetry_1
_geom_bond_site_symmetry_2
Co1 N1 1_555 1_555
N1 N2 1_555 1_555
N2 N3 1_555 1_555
N3 C6 1_555 1_555
O1 Co1 1_555 1_555
O2 C7 1_555 1_555
C1 N1 1_555 1_555
C2 C1 1_555 1_555
H1 C2 1_555 1_555
C3 C2 1_555 1_555
H2 C3 1_555 1_555
C4 C3 1_555 1_555
H3 C4 1_555 1_555
C5 C4 1_555 1_555
H4 C5 1_555 1_555
C6 C1 1_555 1_555
C7 O1 1_555 1_555
C8 C7 1_555 1_555
H5 C8 1_555 1_555
C9 C8 1_555 1_555
H6 C9 1_555 1_555
H7 C9 1_555 1_555
C10 C8 1_555 1_555
H8 C10 1_555 1_555
H9 C10 1_555 1_555
Co1C N1C 1_555 1_555
Co1C_2 N3 1_555 1_555
Co1_2 O2 1_555 1_555
Co1B O1B 1_555 1_555
Co1B_2 O2B 1_555 1_555
N1C N2C 1_555 1_555
N2C N3C 1_555 1_555
N3C Co1 1_555 1_555
N3_2 Co1C 1_555 1_555
O1B C7B 1_555 1_555
O1C Co1C 1_555 1_555
O2B C7B 1_555 1_555
O2_2 Co1 1_555 1_555
O2C Co1C 1_555 1_555
C1C N1C 1_555 1_555
C2C C1C 1_555 1_555
H1C C2C 1_555 1_555
C3C C2C 1_555 1_555
H2C C3C 1_555 1_555
C4C C3C 1_555 1_555
H3C C4C 1_555 1_555
C5C C4C 1_555 1_555
H4C C5C 1_555 1_555
C6C N3C 1_555 1_555
C7B C8B 1_555 1_555
C8B H5B 1_555 1_555
C9B C10 1_555 1_555
H6B C9B 1_555 1_555
H7B C9B 1_555 1_555
C10B C9 1_555 1_555
H8B C10B 1_555 1_555
H9B C10B 1_555 1_555
C5 C6 1_555 1_555
C1C C6C 1_555 1_555
C5C C6C 1_555 1_555
C8B C9B 1_555 1_555
C8B C10B 1_555 1_555

#END
