
#######################################################################
#
#                 Cambridge Crystallographic Data Centre
#                                CCDC 
#
#######################################################################
#
# If this CIF has been generated from an entry in the Cambridge 
# Structural Database, then it will include bibliographic, chemical, 
# crystal, experimental, refinement or atomic coordinate data resulting 
# from the CCDC's data processing and validation procedures.
#
#######################################################################

data_DOYWIZ
_symmetry_cell_setting           monoclinic
_symmetry_space_group_name_H-M   'P 21/a'
_symmetry_Int_Tables_number      14
_space_group_name_Hall           '-P 2yab'
loop_
_symmetry_equiv_pos_site_id
_symmetry_equiv_pos_as_xyz
1 x,y,z
2 1/2-x,1/2+y,-z
3 -x,-y,-z
4 1/2+x,1/2-y,z
_cell_length_a                   10.5666(18)
_cell_length_b                   19.798(2)
_cell_length_c                   16.860(3)
_cell_angle_alpha                90
_cell_angle_beta                 100.173(14)
_cell_angle_gamma                90
_cell_volume                     3471.62
loop_
_atom_site_label
_atom_site_type_symbol
_atom_site_fract_x
_atom_site_fract_y
_atom_site_fract_z
C1 C 0.4019(9) 0.0609(6) 0.8578(7)
C2 C 0.7825(7) 0.0906(5) 0.6048(6)
C3 C 0.4596(8) 0.1717(5) 0.6071(5)
H1 H 0.5365 0.1953 0.6211
C4 C 0.3665(7) 0.1976(4) 0.5461(5)
H2 H 0.3808 0.2386 0.5220
C5 C 0.2520(7) 0.1629(4) 0.5205(4)
C6 C 0.2331(7) 0.1039(4) 0.5634(4)
H3 H 0.1563 0.0800 0.5515
C7 C 0.3316(7) 0.0818(5) 0.6243(4)
H4 H 0.3190 0.0419 0.6510
C8 C 0.1524(7) 0.1900(5) 0.4565(5)
C9 C 0.1364(7) 0.2600(5) 0.4416(5)
H5 H 0.1835 0.2938 0.4718
C10 C 0.0379(7) 0.2713(5) 0.3735(5)
C11 C -0.0155(7) 0.2091(5) 0.3463(5)
C12 C 0.0630(7) 0.1544(5) 0.3971(5)
C13 C 0.0528(7) 0.0866(5) 0.3855(5)
H6 H 0.1137 0.0608 0.4191
C14 C -0.0356(8) 0.0497(5) 0.3307(5)
H7 H -0.0239 0.0031 0.3325
C15 C -0.1361(8) 0.0720(6) 0.2750(5)
H8 H -0.1847 0.0384 0.2454
C16 C -0.1765(9) 0.1373(6) 0.2560(6)
H9 H -0.2501 0.1413 0.2169
C17 C -0.1224(7) 0.1982(5) 0.2874(5)
H10 H -0.1643 0.2370 0.2654
C18 C -0.0023(7) 0.3412(5) 0.3474(6)
C19 C -0.0286(8) 0.3581(5) 0.2659(6)
H11 H -0.0282 0.3249 0.2269
C20 C -0.0559(7) 0.4260(5) 0.2425(5)
H12 H -0.0686 0.4373 0.1881
C21 C -0.0417(8) 0.4553(5) 0.3736(5)
H13 H -0.0481 0.4888 0.4114
C22 C -0.0112(8) 0.3926(5) 0.4018(6)
H14 H 0.0036 0.3840 0.4569
C23 C 0.8441(7) 0.0057(4) 0.8265(4)
H15 H 0.8445 -0.0109 0.7750
C24 C 0.9416(7) -0.0149(5) 0.8886(5)
H16 H 1.0024 -0.0463 0.8786
C25 C 0.9478(7) 0.0111(4) 0.9644(5)
C26 C 0.8543(8) 0.0545(4) 0.9770(5)
H17 H 0.8547 0.0734 1.0276
C27 C 0.7554(7) 0.0705(5) 0.9107(4)
H18 H 0.6894 0.0989 0.9196
C28 C 0.5670(9) 0.2226(6) 0.7979(6)
H19 H 0.5059 0.2062 0.8265
C29 C 0.6558(15) 0.3182(8) 0.7425(9)
H20 H 0.6406 0.3660 0.7394
H21 H 0.6443 0.2997 0.6890
H22 H 0.7421 0.3097 0.7696
C30 C 0.4739(12) 0.3308(7) 0.8126(9)
H23 H 0.4872 0.3769 0.7985
H24 H 0.4822 0.3270 0.8701
H25 H 0.3894 0.3167 0.7876
N1 N 0.4723(8) 0.0698(4) 0.8152(4)
N2 N 0.7236(6) 0.0884(4) 0.6606(4)
N3 N 0.4443(6) 0.1148(4) 0.6467(4)
N4 N 0.7528(6) 0.0468(4) 0.8368(4)
N5 N -0.0636(6) 0.4735(4) 0.2959(4)
N6 N 0.5695(8) 0.2880(5) 0.7849(6)
O1 O 0.6392(5) 0.1823(3) 0.7750(4)
Co1 Co 0.59812(10) 0.07783(6) 0.74052(7)
S1 S 0.2954(4) 0.0449(4) 0.9173(3)
S2 S 0.8601(3) 0.09421(17) 0.53264(18)
C23B C 1.1559(7) -0.0057(4) 1.1735(4)
H15B H 1.1555 0.0109 1.2250
C24B C 1.0584(7) 0.0149(5) 1.1114(5)
H16B H 0.9976 0.0463 1.1214
C25B C 1.0522(7) -0.0111(4) 1.0356(5)
C26B C 1.1457(8) -0.0545(4) 1.0230(5)
H17B H 1.1453 -0.0734 0.9724
C27B C 1.2446(7) -0.0705(5) 1.0893(4)
H18B H 1.3106 -0.0989 1.0804
N4B N 1.2472(6) -0.0468(4) 1.1632(4)
C1B C 1.5981(9) -0.0609(6) 1.1422(7)
C2B C 1.2175(7) -0.0906(5) 1.3952(6)
C3B C 1.5404(8) -0.1717(5) 1.3929(5)
H1B H 1.4635 -0.1953 1.3789
C4B C 1.6335(7) -0.1976(4) 1.4539(5)
H2B H 1.6192 -0.2386 1.4780
C5B C 1.7480(7) -0.1629(4) 1.4795(4)
C6B C 1.7669(7) -0.1039(4) 1.4366(4)
H3B H 1.8437 -0.0800 1.4485
C7B C 1.6684(7) -0.0818(5) 1.3757(4)
H4B H 1.6810 -0.0419 1.3490
C8B C 1.8476(7) -0.1900(5) 1.5435(5)
C9B C 1.8636(7) -0.2600(5) 1.5584(5)
H5B H 1.8165 -0.2938 1.5282
C10B C 1.9621(7) -0.2713(5) 1.6265(5)
C11B C 2.0155(7) -0.2091(5) 1.6537(5)
C12B C 1.9370(7) -0.1544(5) 1.6029(5)
C13B C 1.9472(7) -0.0866(5) 1.6145(5)
H6B H 1.8863 -0.0608 1.5809
C14B C 2.0356(8) -0.0497(5) 1.6693(5)
H7B H 2.0239 -0.0031 1.6675
C15B C 2.1361(8) -0.0720(6) 1.7250(5)
H8B H 2.1847 -0.0384 1.7546
C16B C 2.1765(9) -0.1373(6) 1.7440(6)
H9B H 2.2501 -0.1413 1.7831
C17B C 2.1224(7) -0.1982(5) 1.7126(5)
H10B H 2.1643 -0.2370 1.7346
C18B C 2.0023(7) -0.3412(5) 1.6526(6)
C19B C 2.0286(8) -0.3581(5) 1.7341(6)
H11B H 2.0282 -0.3249 1.7731
C20B C 2.0559(7) -0.4260(5) 1.7575(5)
H12B H 2.0686 -0.4373 1.8119
C21B C 2.0417(8) -0.4553(5) 1.6264(5)
H13B H 2.0481 -0.4888 1.5886
C22B C 2.0112(8) -0.3926(5) 1.5982(6)
H14B H 1.9964 -0.3840 1.5431
C28B C 1.4330(9) -0.2226(6) 1.2021(6)
H19B H 1.4941 -0.2062 1.1735
C29B C 1.3442(15) -0.3182(8) 1.2575(9)
H20B H 1.3594 -0.3660 1.2606
H21B H 1.3557 -0.2997 1.3110
H22B H 1.2579 -0.3097 1.2304
C30B C 1.5261(12) -0.3308(7) 1.1874(9)
H23B H 1.5128 -0.3769 1.2015
H24B H 1.5178 -0.3270 1.1299
H25B H 1.6106 -0.3167 1.2124
N1B N 1.5277(8) -0.0698(4) 1.1848(4)
N2B N 1.2764(6) -0.0884(4) 1.3394(4)
N3B N 1.5557(6) -0.1148(4) 1.3533(4)
N5B N 2.0636(6) -0.4735(4) 1.7041(4)
N6B N 1.4305(8) -0.2880(5) 1.2151(6)
O1B O 1.3608(5) -0.1823(3) 1.2250(4)
Co1B Co 1.40188(10) -0.07783(6) 1.25948(7)
S1B S 1.7046(4) -0.0449(4) 1.0827(3)
S2B S 1.1399(3) -0.09421(17) 1.46736(18)
N5A N 0.5636(6) -0.0265(4) 0.7041(4)
N5C N 1.4364(6) 0.0265(4) 1.2959(4)
Co1A Co -0.09812(10) 0.57783(6) 0.25948(7)
Co1C Co 2.09812(10) -0.57783(6) 1.74052(7)
O2 O -0.117(8) 0.277(2) 0.0456(15)
O3 O 0.049(7) 0.2303(18) 0.068(2)
C31 C 0.126(8) 0.284(4) 0.0367(17)
loop_
_geom_bond_atom_site_label_1
_geom_bond_atom_site_label_2
_geom_bond_site_symmetry_1
_geom_bond_site_symmetry_2
C1 N1 1_555 1_555
C2 N2 1_555 1_555
C3 H1 1_555 1_555
C4 C3 1_555 1_555
H2 C4 1_555 1_555
C5 C4 1_555 1_555
C6 C5 1_555 1_555
H3 C6 1_555 1_555
C7 C6 1_555 1_555
H4 C7 1_555 1_555
C8 C5 1_555 1_555
C9 C8 1_555 1_555
H5 C9 1_555 1_555
C10 C9 1_555 1_555
C11 C10 1_555 1_555
C12 C8 1_555 1_555
C13 C12 1_555 1_555
H6 C13 1_555 1_555
C14 C13 1_555 1_555
H7 C14 1_555 1_555
C15 C14 1_555 1_555
H8 C15 1_555 1_555
C16 C15 1_555 1_555
H9 C16 1_555 1_555
C17 C11 1_555 1_555
H10 C17 1_555 1_555
C18 C10 1_555 1_555
C19 C18 1_555 1_555
H11 C19 1_555 1_555
C20 C19 1_555 1_555
H12 C20 1_555 1_555
C21 H13 1_555 1_555
C22 C18 1_555 1_555
H14 C22 1_555 1_555
C23 H15 1_555 1_555
C24 C23 1_555 1_555
H16 C24 1_555 1_555
C25 C24 1_555 1_555
C26 C25 1_555 1_555
H17 C26 1_555 1_555
C27 C26 1_555 1_555
H18 C27 1_555 1_555
C28 H19 1_555 1_555
C29 H20 1_555 1_555
H21 C29 1_555 1_555
H22 C29 1_555 1_555
C30 H23 1_555 1_555
H24 C30 1_555 1_555
H25 C30 1_555 1_555
N1 Co1 1_555 1_555
N2 Co1 1_555 1_555
N3 C3 1_555 1_555
N4 C23 1_555 1_555
N5 C20 1_555 1_555
N6 C28 1_555 1_555
O1 C28 1_555 1_555
Co1 N3 1_555 1_555
S1 C1 1_555 1_555
S2 C2 1_555 1_555
O3 C31 1_555 1_555
C23B H15B 1_555 1_555
C24B C23B 1_555 1_555
H16B C24B 1_555 1_555
C25B C25 1_555 1_555
C26B C25B 1_555 1_555
H17B C26B 1_555 1_555
C27B C26B 1_555 1_555
H18B C27B 1_555 1_555
N4B C23B 1_555 1_555
C1B N1B 1_555 1_555
C2B N2B 1_555 1_555
C3B H1B 1_555 1_555
C4B C3B 1_555 1_555
H2B C4B 1_555 1_555
C5B C4B 1_555 1_555
C6B C5B 1_555 1_555
H3B C6B 1_555 1_555
C7B C6B 1_555 1_555
H4B C7B 1_555 1_555
C8B C5B 1_555 1_555
C9B C8B 1_555 1_555
H5B C9B 1_555 1_555
C10B C9B 1_555 1_555
C11B C10B 1_555 1_555
C12B C8B 1_555 1_555
C13B C12B 1_555 1_555
H6B C13B 1_555 1_555
C14B C13B 1_555 1_555
H7B C14B 1_555 1_555
C15B C14B 1_555 1_555
H8B C15B 1_555 1_555
C16B C15B 1_555 1_555
H9B C16B 1_555 1_555
C17B C11B 1_555 1_555
H10B C17B 1_555 1_555
C18B C10B 1_555 1_555
C19B C18B 1_555 1_555
H11B C19B 1_555 1_555
C20B C19B 1_555 1_555
H12B C20B 1_555 1_555
C21B H13B 1_555 1_555
C22B C18B 1_555 1_555
H14B C22B 1_555 1_555
C28B H19B 1_555 1_555
C29B H20B 1_555 1_555
H21B C29B 1_555 1_555
H22B C29B 1_555 1_555
C30B H23B 1_555 1_555
H24B C30B 1_555 1_555
H25B C30B 1_555 1_555
N1B Co1B 1_555 1_555
N2B Co1B 1_555 1_555
N3B C3B 1_555 1_555
N5B C20B 1_555 1_555
N6B C28B 1_555 1_555
O1B C28B 1_555 1_555
Co1B N4B 1_555 1_555
S1B C1B 1_555 1_555
S2B C2B 1_555 1_555
N5A Co1 1_555 1_555
N5C Co1B 1_555 1_555
Co1A N5 1_555 1_555
Co1C N5B 1_555 1_555
C7 N3 1_555 1_555
C11 C12 1_555 1_555
C16 C17 1_555 1_555
C21 C22 1_555 1_555
C21 N5 1_555 1_555
C27 N4 1_555 1_555
C29 N6 1_555 1_555
C30 N6 1_555 1_555
N4 Co1 1_555 1_555
O1 Co1 1_555 1_555
C24B C25B 1_555 1_555
C27B N4B 1_555 1_555
C7B N3B 1_555 1_555
C11B C12B 1_555 1_555
C16B C17B 1_555 1_555
C21B C22B 1_555 1_555
C21B N5B 1_555 1_555
C29B N6B 1_555 1_555
C30B N6B 1_555 1_555
N3B Co1B 1_555 1_555
O1B Co1B 1_555 1_555

#END
