
#######################################################################
#
#                 Cambridge Crystallographic Data Centre
#                                CCDC 
#
#######################################################################
#
# If this CIF has been generated from an entry in the Cambridge 
# Structural Database, then it will include bibliographic, chemical, 
# crystal, experimental, refinement or atomic coordinate data resulting 
# from the CCDC's data processing and validation procedures.
#
#######################################################################

data_DOYXIA
_symmetry_cell_setting           orthorhombic
_symmetry_space_group_name_H-M   'P 21 21 21'
_symmetry_Int_Tables_number      19
_space_group_name_Hall           'P 2ac 2ab'
loop_
_symmetry_equiv_pos_site_id
_symmetry_equiv_pos_as_xyz
1 x,y,z
2 1/2-x,-y,1/2+z
3 -x,1/2+y,1/2-z
4 1/2+x,1/2-y,-z
_cell_length_a                   13.734(3)
_cell_length_b                   16.582(3)
_cell_length_c                   17.723(4)
_cell_angle_alpha                90
_cell_angle_beta                 90
_cell_angle_gamma                90
_cell_volume                     4036.19
loop_
_atom_site_label
_atom_site_type_symbol
_atom_site_fract_x
_atom_site_fract_y
_atom_site_fract_z
C1 C 0.6957(4) 0.2206(3) 0.1386(4)
C2 C 0.6609(4) 0.1547(3) 0.1792(4)
C3 C 0.5639(4) 0.1323(4) 0.1736(5)
H1 H 0.5413 0.0881 0.2008
C4 C 0.5009(5) 0.1745(5) 0.1284(5)
H2 H 0.4354 0.1604 0.1267
C5 C 0.5351(5) 0.2384(5) 0.0854(5)
H3 H 0.4929 0.2660 0.0534
C6 C 0.6345(4) 0.2618(4) 0.0899(4)
C7 C 0.6696(4) 0.3235(3) 0.0379(4)
H4 H 0.6324 0.3343 -0.0048
C8 C 0.7786(5) 0.4213(4) -0.0078(4)
C9 C 0.7183(5) 0.4565(4) -0.0608(5)
H5 H 0.6536 0.4403 -0.0636
C10 C 0.7515(6) 0.5150(5) -0.1096(5)
H6 H 0.7107 0.5371 -0.1459
C11 C 0.8475(7) 0.5401(4) -0.1031(5)
H7 H 0.8704 0.5812 -0.1342
C12 C 0.9084(6) 0.5058(4) -0.0524(5)
H8 H 0.9731 0.5221 -0.0506
C13 C 0.8761(4) 0.4466(4) -0.0030(4)
C14 C 1.0269(4) 0.3977(4) 0.0400(4)
H9 H 1.0537 0.4243 -0.0012
C15 C 1.0917(5) 0.3501(4) 0.0855(4)
C16 C 1.1919(5) 0.3554(5) 0.0744(5)
H10 H 1.2158 0.3946 0.0418
C17 C 1.2563(5) 0.3055(6) 0.1095(6)
H11 H 1.3228 0.3108 0.1007
C18 C 1.2224(5) 0.2474(5) 0.1577(6)
H12 H 1.2666 0.2147 0.1830
C19 C 1.1252(4) 0.2367(4) 0.1693(5)
C20 C 1.0571(4) 0.2900(4) 0.1342(4)
C21 C 1.1395(6) 0.1334(5) 0.2643(6)
H13 H 1.1847 0.1014 0.2358
H14 H 1.0991 0.0987 0.2943
H15 H 1.1748 0.1694 0.2968
C22 C 0.7024(7) 0.0543(6) 0.2717(7)
H16 H 0.6679 0.0779 0.3133
H17 H 0.7591 0.0267 0.2901
H18 H 0.6608 0.0165 0.2462
C23 C 0.9166(6) 0.0743(4) 0.0511(4)
C24 C 0.9289(7) 0.0273(6) -0.0199(6)
H19 H 0.9418 0.0635 -0.0610
H20 H 0.8704 -0.0025 -0.0301
H21 H 0.9824 -0.0095 -0.0144
C25 C 0.9690(5) -0.0318(4) 0.2434(4)
C26 C 0.9268(8) -0.0929(5) 0.1939(6)
H22 H 0.8602 -0.1022 0.2080
H23 H 0.9629 -0.1422 0.1986
H24 H 0.9294 -0.0744 0.1426
C27 C 0.8668(6) 0.2713(5) 0.3253(5)
C28 C 0.8473(14) 0.2796(7) 0.4090(6)
H25 H 0.8355 0.3352 0.4209
H26 H 0.9028 0.2608 0.4369
H27 H 0.7913 0.2481 0.4223
C29 C 0.6938(6) 0.4692(6) 0.1838(6)
C30 C 0.6091(7) 0.5273(6) 0.1936(7)
H28 H 0.6254 0.5667 0.2312
H29 H 0.5524 0.4980 0.2093
H30 H 0.5962 0.5539 0.1466
N1 N 0.7485(3) 0.3639(3) 0.0474(3)
N2 N 0.9343(3) 0.4067(3) 0.0515(3)
O1 O 0.7892(3) 0.2411(2) 0.1488(3)
O2 O 0.7311(3) 0.1160(3) 0.2204(3)
O3 O 0.9635(3) 0.2763(2) 0.1492(3)
O4 O 1.0801(3) 0.1791(3) 0.2139(3)
O5 O 0.9855(3) 0.1133(3) 0.0760(3)
O6 O 0.8361(3) 0.0747(3) 0.0846(3)
O7 O 0.9410(3) 0.0385(3) 0.2365(3)
O8 O 1.0343(3) -0.0515(3) 0.2900(3)
O9 O 0.8918(4) 0.2014(3) 0.3014(3)
O10 O 0.8508(4) 0.3295(3) 0.2865(3)
O11 O 0.6869(4) 0.3980(4) 0.2055(3)
O12 O 0.7716(4) 0.4959(3) 0.1533(4)
Yb1 Yb 0.904212(18) 0.154208(13) 0.184115(15)
Yb2 Yb 0.845125(18) 0.368455(13) 0.163182(15)
O8B O 0.9657(3) 0.4485(3) 0.2100(3)
Yb2B Yb 1.154875(18) -0.131545(13) 0.336818(15)
O13 O 0.9194(10) 0.0711(8) 0.4131(8)
O14 O 0.8108(9) 0.0471(7) 0.5531(8)
O15 O 0.449(3) 0.341(2) 0.282(2)
O16 O 0.545(3) 0.235(2) 0.381(2)
O17 O 0.235(2) 0.1402(18) 0.441(2)
loop_
_geom_bond_atom_site_label_1
_geom_bond_atom_site_label_2
_geom_bond_site_symmetry_1
_geom_bond_site_symmetry_2
C1 C2 1_555 1_555
C2 C3 1_555 1_555
C3 H1 1_555 1_555
C4 C3 1_555 1_555
H2 C4 1_555 1_555
C5 C4 1_555 1_555
H3 C5 1_555 1_555
C6 C1 1_555 1_555
C7 C6 1_555 1_555
H4 C7 1_555 1_555
C8 C9 1_555 1_555
C9 H5 1_555 1_555
C10 C9 1_555 1_555
H6 C10 1_555 1_555
C11 C10 1_555 1_555
H7 C11 1_555 1_555
C12 C11 1_555 1_555
H8 C12 1_555 1_555
C13 C8 1_555 1_555
C14 H9 1_555 1_555
C15 C14 1_555 1_555
C16 C15 1_555 1_555
H10 C16 1_555 1_555
C17 C16 1_555 1_555
H11 C17 1_555 1_555
C18 C17 1_555 1_555
H12 C18 1_555 1_555
C19 C18 1_555 1_555
C20 C15 1_555 1_555
C21 H13 1_555 1_555
H14 C21 1_555 1_555
H15 C21 1_555 1_555
C22 H16 1_555 1_555
H17 C22 1_555 1_555
H18 C22 1_555 1_555
C23 C24 1_555 1_555
C24 H19 1_555 1_555
H20 C24 1_555 1_555
H21 C24 1_555 1_555
C25 C26 1_555 1_555
C26 H22 1_555 1_555
H23 C26 1_555 1_555
H24 C26 1_555 1_555
C27 C28 1_555 1_555
C28 H25 1_555 1_555
H26 C28 1_555 1_555
H27 C28 1_555 1_555
C29 C30 1_555 1_555
C30 H28 1_555 1_555
H29 C30 1_555 1_555
H30 C30 1_555 1_555
N1 C7 1_555 1_555
N2 C13 1_555 1_555
O1 C1 1_555 1_555
O2 C2 1_555 1_555
O3 C20 1_555 1_555
O4 C19 1_555 1_555
O5 C23 1_555 1_555
O6 C23 1_555 1_555
O7 C25 1_555 1_555
O8 C25 1_555 1_555
O9 C27 1_555 1_555
O10 C27 1_555 1_555
O11 C29 1_555 1_555
O12 C29 1_555 1_555
Yb1 O1 1_555 1_555
Yb2 N1 1_555 1_555
O8B Yb2 1_555 1_555
Yb2B O8 1_555 1_555
C5 C6 1_555 1_555
C8 N1 1_555 1_555
C12 C13 1_555 1_555
C14 N2 1_555 1_555
C19 C20 1_555 1_555
C21 O4 1_555 1_555
C22 O2 1_555 1_555
N2 Yb2 1_555 1_555
O1 Yb2 1_555 1_555
O2 Yb1 1_555 1_555
O3 Yb1 1_555 1_555
O3 Yb2 1_555 1_555
O4 Yb1 1_555 1_555
O5 Yb1 1_555 1_555
O6 Yb1 1_555 1_555
O7 Yb1 1_555 1_555
O9 Yb1 1_555 1_555
O10 Yb2 1_555 1_555
O11 Yb2 1_555 1_555
O12 Yb2 1_555 1_555

#END
