
#######################################################################
#
#                 Cambridge Crystallographic Data Centre
#                                CCDC 
#
#######################################################################
#
# If this CIF has been generated from an entry in the Cambridge 
# Structural Database, then it will include bibliographic, chemical, 
# crystal, experimental, refinement or atomic coordinate data resulting 
# from the CCDC's data processing and validation procedures.
#
#######################################################################

data_DOYYUM
_symmetry_cell_setting           triclinic
_symmetry_space_group_name_H-M   'P -1'
_symmetry_Int_Tables_number      2
_space_group_name_Hall           '-P 1'
loop_
_symmetry_equiv_pos_site_id
_symmetry_equiv_pos_as_xyz
1 x,y,z
2 -x,-y,-z
_cell_length_a                   5.9708(2)
_cell_length_b                   8.9554(3)
_cell_length_c                   12.3082(3)
_cell_angle_alpha                104.744(2)
_cell_angle_beta                 91.700(2)
_cell_angle_gamma                105.423(2)
_cell_volume                     610.186
loop_
_atom_site_label
_atom_site_type_symbol
_atom_site_fract_x
_atom_site_fract_y
_atom_site_fract_z
Eu1 Eu 0.23475(6) 0.78936(4) 0.40375(3)
C1 C 0.6841(13) 0.6863(8) 0.2889(6)
C2 C 0.5219(11) 0.6019(8) 0.1825(6)
H1 H 0.5881 0.6399 0.1202
H2 H 0.5025 0.4870 0.1649
C3 C 0.1479(13) 0.5654(8) 0.0973(6)
C4 C 0.0307(14) 0.4019(8) 0.0667(6)
H3 H 0.0508 0.3376 0.1127
C5 C 0.1143(12) 0.6633(8) 0.0318(6)
H4 H 0.1899 0.7731 0.0545
C6 C 0.4035(13) 1.0875(8) 0.3342(6)
C7 C 0.4819(14) 1.2343(8) 0.2906(6)
H5 H 0.4443 1.3243 0.3416
H6 H 0.6501 1.2623 0.2892
C8 C 0.4427(14) 1.1027(8) 0.0931(6)
C9 C 0.6217(13) 1.0373(8) 0.1044(6)
H7 H 0.7066 1.0620 0.1744
C10 C 0.3239(13) 1.0660(8) -0.0108(6)
H8 H 0.2035 1.1112 -0.0193
C11 C -0.0727(13) 0.5518(8) 0.5374(6)
O1 O 0.6084(9) 0.7729(6) 0.3663(5)
O2 O 0.8788(8) 0.6657(6) 0.2895(4)
O3 O 0.2987(8) 0.6326(5) 0.1968(4)
O4 O 0.2395(10) 0.9706(6) 0.2847(4)
O5 O 0.5185(10) 1.0881(6) 0.4230(4)
O6 O 0.3723(10) 1.2076(5) 0.1792(4)
O7 O -0.0222(9) 0.6967(5) 0.5376(4)
O8 O -0.2154(10) 0.4809(6) 0.5918(5)
O9 O 0.0000 1.0000 0.5000
H9 H 0.123(10) 1.046(12) 0.541(8)
Eu1A Eu -0.23475(6) 0.21064(4) -0.40375(3)
Eu1_2 Eu 1.23475(6) 0.78936(4) 0.40375(3)
Eu1A_2 Eu 0.76525(6) 1.21064(4) 0.59625(3)
Eu1A_3 Eu -0.23475(6) 0.21064(4) 0.59625(3)
Eu1A_4 Eu -0.23475(6) 1.21064(4) 0.59625(3)
Eu1A_5 Eu -1.23475(6) 0.21064(4) -0.40375(3)
Eu1A_6 Eu 0.76525(6) 1.21064(4) -0.40375(3)
Eu1_3 Eu 0.23475(6) 0.78936(4) -0.59625(3)
C1A C -0.6841(13) 0.3137(8) -0.2889(6)
C2A C -0.5219(11) 0.3981(8) -0.1825(6)
H1A H -0.5881 0.3601 -0.1202
H2A H -0.5025 0.5130 -0.1649
C3A C -0.1479(13) 0.4346(8) -0.0973(6)
C4A C -0.0307(14) 0.5981(8) -0.0667(6)
H3A H -0.0508 0.6624 -0.1127
C5A C -0.1143(12) 0.3367(8) -0.0318(6)
H4A H -0.1899 0.2269 -0.0545
C6A C 0.5965(13) 0.9125(8) -0.3342(6)
C7A C 0.5181(14) 0.7657(8) -0.2906(6)
H5A H 0.5557 0.6757 -0.3416
H6A H 0.3499 0.7377 -0.2892
C8A C 0.5573(14) 0.8973(8) -0.0931(6)
C9A C 0.3783(13) 0.9627(8) -0.1044(6)
H7A H 0.2934 0.9380 -0.1744
C10A C 0.6761(13) 0.9340(8) 0.0108(6)
H8A H 0.7965 0.8888 0.0193
C11A C 0.0727(13) 0.4482(8) 0.4626(6)
O1A O -0.6084(9) 0.2271(6) -0.3663(5)
O2A O -0.8788(8) 0.3343(6) -0.2895(4)
O2_2 O -0.1212(8) 0.6657(6) 0.2895(4)
O2A_2 O 0.1212(8) 0.3343(6) -0.2895(4)
O3A O -0.2987(8) 0.3674(5) -0.1968(4)
O4A O 0.7605(10) 1.0294(6) -0.2847(4)
O4A_2 O -0.2395(10) 0.0294(6) -0.2847(4)
O5A O 0.4815(10) 0.9119(6) -0.4230(4)
O5A_2 O 0.4815(10) 0.9119(6) 0.5770(4)
O5A_3 O -0.5185(10) -0.0881(6) -0.4230(4)
O5_2 O -0.4815(10) 0.0881(6) -0.5770(4)
O6A O 0.6277(10) 0.7924(5) -0.1792(4)
O7A O 0.0222(9) 0.3033(5) 0.4624(4)
O7A_2 O 0.0222(9) 0.3033(5) -0.5376(4)
O8A O 0.2154(10) 0.5191(6) 0.4082(5)
O8_2 O -0.2154(10) 0.4809(6) -0.4082(5)
O9_2 O 0.0000 0.0000 -0.5000
H9A H -0.123(10) 0.954(12) 0.459(8)
H9A_2 H -0.123(10) -0.046(12) -0.541(8)
H9_2 H 0.123(10) 0.046(12) -0.459(8)
loop_
_geom_bond_atom_site_label_1
_geom_bond_atom_site_label_2
_geom_bond_site_symmetry_1
_geom_bond_site_symmetry_2
Eu1 O1 1_555 1_555
C1 C2 1_555 1_555
C2 H1 1_555 1_555
H2 C2 1_555 1_555
C3 C4 1_555 1_555
C4 H3 1_555 1_555
C5 C3 1_555 1_555
H4 C5 1_555 1_555
C6 C7 1_555 1_555
C7 H5 1_555 1_555
H6 C7 1_555 1_555
C8 C9 1_555 1_555
C9 H7 1_555 1_555
C10 C8 1_555 1_555
H8 C10 1_555 1_555
C11 O7 1_555 1_555
O1 C1 1_555 1_555
O2 C1 1_555 1_555
O3 Eu1 1_555 1_555
O4 Eu1 1_555 1_555
O5 Eu1 1_555 1_555
O6 C7 1_555 1_555
O7 Eu1 1_555 1_555
O8 C11 1_555 1_555
O9 Eu1 1_555 1_555
H9 O9 1_555 1_555
Eu1A O1A 1_555 1_555
Eu1_2 O2 1_555 1_555
Eu1A_2 O5 1_555 1_555
Eu1A_3 O8 1_555 1_555
Eu1A_4 O9 1_555 1_555
Eu1A_5 O2A 1_555 1_555
Eu1A_6 O4A 1_555 1_555
Eu1_3 O5A 1_555 1_555
C1A C2A 1_555 1_555
C2A H1A 1_555 1_555
H2A C2A 1_555 1_555
C3A C4A 1_555 1_555
C4A C5 1_555 1_555
H3A C4A 1_555 1_555
C5A C4 1_555 1_555
H4A C5A 1_555 1_555
C6A C7A 1_555 1_555
C7A H5A 1_555 1_555
H6A C7A 1_555 1_555
C8A C9A 1_555 1_555
C9A C10 1_555 1_555
H7A C9A 1_555 1_555
C10A C9 1_555 1_555
H8A C10A 1_555 1_555
C11A C11 1_555 1_555
O1A C1A 1_555 1_555
O2A C1A 1_555 1_555
O2_2 Eu1 1_555 1_555
O2A_2 Eu1A 1_555 1_555
O3A Eu1A 1_555 1_555
O4A C6A 1_555 1_555
O4A_2 Eu1A 1_555 1_555
O5A Eu1A_6 1_555 1_555
O5A_2 Eu1 1_555 1_555
O5A_3 Eu1A 1_555 1_555
O5_2 Eu1A 1_555 1_555
O6A C7A 1_555 1_555
O7A Eu1A_3 1_555 1_555
O7A_2 Eu1A 1_555 1_555
O8A Eu1 1_555 1_555
O8_2 Eu1A 1_555 1_555
O9_2 Eu1A 1_555 1_555
H9A O9 1_555 1_555
H9A_2 O9_2 1_555 1_555
H9_2 O9_2 1_555 1_555
C2 O3 1_555 1_555
C3 O3 1_555 1_555
C6 O4 1_555 1_555
C6 O5 1_555 1_555
C8 O6 1_555 1_555
Eu1A_2 O5A_2 1_555 1_555
C2A O3A 1_555 1_555
C3A C5A 1_555 1_555
C3A O3A 1_555 1_555
C6A O5A 1_555 1_555
C8A C10A 1_555 1_555
C8A O6A 1_555 1_555
C11A O7A 1_555 1_555
C11A O8A 1_555 1_555

#END
