
#######################################################################
#
#                 Cambridge Crystallographic Data Centre
#                                CCDC 
#
#######################################################################
#
# If this CIF has been generated from an entry in the Cambridge 
# Structural Database, then it will include bibliographic, chemical, 
# crystal, experimental, refinement or atomic coordinate data resulting 
# from the CCDC's data processing and validation procedures.
#
#######################################################################

data_DOYYIZ
_symmetry_cell_setting           monoclinic
_symmetry_space_group_name_H-M   'P 21/n'
_symmetry_Int_Tables_number      14
_space_group_name_Hall           '-P 2yn'
loop_
_symmetry_equiv_pos_site_id
_symmetry_equiv_pos_as_xyz
1 x,y,z
2 1/2-x,1/2+y,1/2-z
3 -x,-y,-z
4 1/2+x,1/2-y,1/2+z
_cell_length_a                   9.190(2)
_cell_length_b                   11.407(4)
_cell_length_c                   21.088(3)
_cell_angle_alpha                90
_cell_angle_beta                 101.87(1)
_cell_angle_gamma                90
_cell_volume                     2163.39
loop_
_atom_site_label
_atom_site_type_symbol
_atom_site_fract_x
_atom_site_fract_y
_atom_site_fract_z
Sn1 Sn 0.20121(3) 0.21432(2) 0.26251(1)
Cl1 Cl 0.2156(1) 0.0199(1) 0.4380(1)
O1 O 0.0897(3) 0.0575(2) 0.2903(1)
O2 O 0.3142(3) 0.3947(2) 0.2421(1)
C1 C 0.1161(4) -0.0510(3) 0.2937(2)
C2 C 0.0517(4) -0.1157(3) 0.3439(2)
C3 C 0.0877(5) -0.0893(4) 0.4095(2)
C4 C 0.0258(6) -0.1488(5) 0.4545(3)
C5 C -0.0812(7) -0.2337(6) 0.4331(3)
C6 C -0.1243(6) -0.2599(5) 0.3678(4)
C7 C -0.0558(6) -0.2023(4) 0.3226(3)
C8 C 0.0865(4) 0.2003(3) 0.1637(2)
C9 C 0.0648(5) 0.2979(4) 0.1235(2)
C10 C -0.0092(6) 0.2868(5) 0.0594(3)
C11 C -0.0624(6) 0.1786(6) 0.0354(2)
C12 C -0.0445(6) 0.0825(2) 0.0749(2)
C13 C 0.0291(5) 0.0933(4) 0.1389(2)
C14 C 0.0969(5) 0.3112(3) 0.3274(2)
C15 C 0.1705(5) 0.3961(4) 0.3680(2)
C16 C 0.0985(7) 0.4583(5) 0.4096(2)
C17 C -0.0469(8) 0.4367(5) 0.4099(3)
C18 C -0.1223(7) 0.3523(6) 0.3704(4)
C19 C -0.0512(6) 0.2892(4) 0.3288(3)
C20 C 0.4164(4) 0.1471(4) 0.3044(2)
C21 C 0.4947(5) 0.0738(4) 0.2708(2)
C22 C 0.6315(6) 0.0291(4) 0.3005(3)
C23 C 0.6905(5) 0.0557(5) 0.3649(3)
C24 C 0.6143(5) 0.1265(5) 0.3982(2)
C25 C 0.4771(5) 0.1736(5) 0.3681(2)
H1 H 0.0571 -0.1317 0.5006
H2 H -0.1261 -0.2755 0.4650
H3 H -0.2045 -0.3164 0.3543
H4 H -0.0838 -0.2248 0.2758
H5 H 0.1031 0.3748 0.1406
H6 H -0.0239 0.3558 0.0307
H7 H -0.1145 0.1710 -0.0101
H8 H -0.0827 0.0060 0.0576
H9 H 0.0398 0.0243 0.1674
H10 H 0.2749 0.4135 0.3675
H11 H 0.1525 0.5181 0.4389
H12 H -0.0976 0.4813 0.4385
H13 H -0.2274 0.3362 0.3709
H14 H -0.1066 0.2297 0.2993
H15 H 0.4525 0.0532 0.2258
H16 H 0.6873 -0.0210 0.2763
H17 H 0.7877 0.0240 0.3861
H18 H 0.6547 0.1440 0.4439
H19 H 0.4243 0.2258 0.3927
C1A C 0.3839(4) 0.4490(3) 0.2063(2)
O2A O 0.1858(3) -0.1053(2) 0.2579(1)
O1A O 0.4103(3) 0.5575(2) 0.2097(1)
C2A C 0.4483(4) 0.3843(3) 0.1561(2)
Sn1A Sn 0.29879(3) -0.28568(2) 0.23749(1)
Sn1A_2 Sn 0.29879(3) 0.71432(2) 0.23749(1)
C3A C 0.4123(5) 0.4107(4) 0.0905(2)
C7A C 0.5558(6) 0.2977(4) 0.1774(3)
O1A_2 O 0.4103(3) -0.4425(2) 0.2097(1)
C8A C 0.4135(4) -0.2997(3) 0.3363(2)
C14A C 0.4031(5) -0.1888(3) 0.1726(2)
C20A C 0.0836(4) -0.3529(4) 0.1956(2)
Cl1A Cl 0.2844(1) 0.5199(1) 0.0620(1)
C4A C 0.4742(6) 0.3512(5) 0.0455(3)
C6A C 0.6243(6) 0.2401(5) 0.1322(4)
H4A H 0.5838 0.2752 0.2242
C9A C 0.4352(5) -0.2021(4) 0.3765(2)
C13A C 0.4709(5) -0.4067(4) 0.3611(2)
C15A C 0.3295(5) -0.1039(4) 0.1320(2)
C19A C 0.5512(6) -0.2108(4) 0.1712(3)
C21A C 0.0053(5) -0.4262(4) 0.2292(2)
C25A C 0.0229(5) -0.3264(5) 0.1319(2)
C5A C 0.5812(7) 0.2663(6) 0.0669(3)
H1A H 0.4429 0.3683 -0.0006
H3A H 0.7045 0.1836 0.1457
C10A C 0.5092(6) -0.2132(5) 0.4406(3)
H5A H 0.3969 -0.1252 0.3594
C12A C 0.5445(6) -0.4175(2) 0.4251(2)
H9A H 0.4602 -0.4757 0.3326
C16A C 0.4015(7) -0.0417(5) 0.0904(2)
H10A H 0.2251 -0.0865 0.1325
C18A C 0.6223(7) -0.1477(6) 0.1296(4)
H14A H 0.6066 -0.2703 0.2007
C22A C -0.1315(6) -0.4709(4) 0.1995(3)
H15A H 0.0475 -0.4468 0.2742
C24A C -0.1143(5) -0.3735(5) 0.1018(2)
H19A H 0.0757 -0.2742 0.1073
H2A H 0.6261 0.2245 0.0350
C11A C 0.5624(6) -0.3214(6) 0.4646(2)
H6A H 0.5239 -0.1442 0.4693
H8A H 0.5827 -0.4940 0.4424
C17A C 0.5469(8) -0.0633(5) 0.0901(3)
H11A H 0.3475 0.0181 0.0611
H13A H 0.7274 -0.1638 0.1291
C23A C -0.1905(5) -0.4443(5) 0.1351(3)
H16A H -0.1873 -0.5210 0.2237
H18A H -0.1547 -0.3560 0.0561
H7A H 0.6145 -0.3290 0.5101
H12A H 0.5976 -0.0187 0.0615
H17A H -0.2877 -0.4760 0.1139
loop_
_geom_bond_atom_site_label_1
_geom_bond_atom_site_label_2
_geom_bond_site_symmetry_1
_geom_bond_site_symmetry_2
Sn1 O1 1_555 1_555
Cl1 C3 1_555 1_555
O1 C1 1_555 1_555
O2 Sn1 1_555 1_555
C1 C2 1_555 1_555
C2 C3 1_555 1_555
C3 C4 1_555 1_555
C4 C5 1_555 1_555
C5 C6 1_555 1_555
C6 C7 1_555 1_555
C7 C2 1_555 1_555
C8 Sn1 1_555 1_555
C9 C8 1_555 1_555
C10 C9 1_555 1_555
C11 C10 1_555 1_555
C12 C11 1_555 1_555
C13 C8 1_555 1_555
C14 Sn1 1_555 1_555
C15 C14 1_555 1_555
C16 C15 1_555 1_555
C17 C16 1_555 1_555
C18 C17 1_555 1_555
C19 C14 1_555 1_555
C20 Sn1 1_555 1_555
C21 C20 1_555 1_555
C22 C21 1_555 1_555
C23 C22 1_555 1_555
C24 C23 1_555 1_555
C25 C20 1_555 1_555
H1 C4 1_555 1_555
H2 C5 1_555 1_555
H3 C6 1_555 1_555
H4 C7 1_555 1_555
H5 C9 1_555 1_555
H6 C10 1_555 1_555
H7 C11 1_555 1_555
H8 C12 1_555 1_555
H9 C13 1_555 1_555
H10 C15 1_555 1_555
H11 C16 1_555 1_555
H12 C17 1_555 1_555
H13 C18 1_555 1_555
H14 C19 1_555 1_555
H15 C21 1_555 1_555
H16 C22 1_555 1_555
H17 C23 1_555 1_555
H18 C24 1_555 1_555
H19 C25 1_555 1_555
C1A O2 1_555 1_555
O2A C1 1_555 1_555
O1A C1A 1_555 1_555
C2A C1A 1_555 1_555
Sn1A O2A 1_555 1_555
Sn1A_2 O1A 1_555 1_555
C3A C2A 1_555 1_555
C7A C2A 1_555 1_555
O1A_2 Sn1A 1_555 1_555
C8A Sn1A 1_555 1_555
C14A Sn1A 1_555 1_555
C20A Sn1A 1_555 1_555
Cl1A C3A 1_555 1_555
C4A C3A 1_555 1_555
C6A C7A 1_555 1_555
H4A C7A 1_555 1_555
C9A C8A 1_555 1_555
C13A C8A 1_555 1_555
C15A C14A 1_555 1_555
C19A C14A 1_555 1_555
C21A C20A 1_555 1_555
C25A C20A 1_555 1_555
C5A C4A 1_555 1_555
H1A C4A 1_555 1_555
H3A C6A 1_555 1_555
C10A C9A 1_555 1_555
H5A C9A 1_555 1_555
C12A C13A 1_555 1_555
H9A C13A 1_555 1_555
C16A C15A 1_555 1_555
H10A C15A 1_555 1_555
C18A C19A 1_555 1_555
H14A C19A 1_555 1_555
C22A C21A 1_555 1_555
H15A C21A 1_555 1_555
C24A C25A 1_555 1_555
H19A C25A 1_555 1_555
H2A C5A 1_555 1_555
C11A C10A 1_555 1_555
H6A C10A 1_555 1_555
H8A C12A 1_555 1_555
C17A C16A 1_555 1_555
H11A C16A 1_555 1_555
H13A C18A 1_555 1_555
C23A C22A 1_555 1_555
H16A C22A 1_555 1_555
H18A C24A 1_555 1_555
H7A C11A 1_555 1_555
H12A C17A 1_555 1_555
H17A C23A 1_555 1_555
C12 C13 1_555 1_555
C18 C19 1_555 1_555
C24 C25 1_555 1_555
C6A C5A 1_555 1_555
C12A C11A 1_555 1_555
C18A C17A 1_555 1_555
C24A C23A 1_555 1_555

#END
