
#######################################################################
#
#                 Cambridge Crystallographic Data Centre
#                                CCDC 
#
#######################################################################
#
# If this CIF has been generated from an entry in the Cambridge 
# Structural Database, then it will include bibliographic, chemical, 
# crystal, experimental, refinement or atomic coordinate data resulting 
# from the CCDC's data processing and validation procedures.
#
#######################################################################

data_DOYYEW
_symmetry_cell_setting           triclinic
_symmetry_space_group_name_H-M   'P -1'
_symmetry_Int_Tables_number      2
_space_group_name_Hall           '-P 1'
loop_
_symmetry_equiv_pos_site_id
_symmetry_equiv_pos_as_xyz
1 x,y,z
2 -x,-y,-z
_cell_length_a                   6.1117(3)
_cell_length_b                   9.0369(4)
_cell_length_c                   12.4000(5)
_cell_angle_alpha                104.943(3)
_cell_angle_beta                 92.795(3)
_cell_angle_gamma                104.297(3)
_cell_volume                     636.567
loop_
_atom_site_label
_atom_site_type_symbol
_atom_site_fract_x
_atom_site_fract_y
_atom_site_fract_z
C1 C -0.1835(5) 0.8191(4) 0.2188(3)
C2 C -0.0210(5) 0.9017(4) 0.3235(3)
H1 H -0.0039 1.0153 0.3420
H2 H -0.0796 0.8640 0.3856
C3 C 0.3491(5) 0.9368(3) 0.4046(2)
C4 C 0.3826(6) 0.8404(4) 0.4704(3)
H3 H 0.3036 0.7333 0.4497
C5 C 0.4650(6) 1.0954(4) 0.4326(3)
H4 H 0.4413 1.1585 0.3870
C6 C -0.1064(6) 0.5890(3) -0.1711(3)
C7 C -0.0284(7) 0.7336(4) -0.2124(3)
H5 H 0.1361 0.7614 -0.2090
H6 H -0.0698 0.8220 -0.1630
C8 C -0.0561(6) 0.6033(4) -0.4089(3)
C9 C -0.1765(6) 0.5648(4) -0.5135(3)
H7 H -0.2956 0.6093 -0.5226
C10 C 0.1234(6) 0.5393(4) -0.3943(3)
H8 H 0.2068 0.5655 -0.3241
C11 C 0.4359(6) 1.0534(3) 0.0382(3)
La1 La 0.26214(3) 0.710168(17) 0.098248(14)
O1 O -0.1168(4) 0.7328(3) 0.1384(2)
O2 O -0.3768(4) 0.8409(3) 0.2182(2)
O3 O 0.1939(4) 0.8705(3) 0.30636(18)
O4 O 0.0003(4) 0.5861(3) -0.08121(19)
O5 O -0.2727(4) 0.4766(3) -0.2222(2)
O6 O -0.1242(5) 0.7099(3) -0.32411(19)
O7 O 0.2930(5) 0.9879(3) 0.0917(2)
O8 O 0.4897(4) 1.1975(2) 0.0410(2)
O9 O 0.5000 0.5000 0.0000
H9 H 0.394(7) 0.451(6) -0.047(4)
C1A C 1.1835(5) 1.1809(4) 0.7812(3)
C2A C 1.0210(5) 1.0983(4) 0.6765(3)
H1A H 1.0039 0.9847 0.6580
H2A H 1.0796 1.1360 0.6144
C3A C 0.6509(5) 1.0632(3) 0.5954(2)
C4A C 0.6174(6) 1.1596(4) 0.5296(3)
H3A H 0.6964 1.2667 0.5503
C5A C 0.5350(6) 0.9046(4) 0.5674(3)
H4A H 0.5587 0.8415 0.6130
C6A C 0.1064(6) 0.4110(3) -0.8289(3)
C7A C 0.0284(7) 0.2664(4) -0.7876(3)
H5A H -0.1361 0.2386 -0.7910
H6A H 0.0698 0.1780 -0.8370
C8A C 0.0561(6) 0.3967(4) -0.5911(3)
C9A C 0.1765(6) 0.4352(4) -0.4865(3)
H7A H 0.2956 0.3907 -0.4774
C10A C -0.1234(6) 0.4607(4) -0.6057(3)
H8A H -0.2068 0.4345 -0.6759
C11A C 0.5641(6) 0.9466(3) -0.0382(3)
La1A La 0.73786(3) 1.289832(17) 0.901752(14)
La1_2 La -0.73786(3) 0.710168(17) 0.098248(14)
La1A_2 La -0.26214(3) 0.289832(17) -0.098248(14)
La1A_3 La 0.73786(3) 1.289832(17) -0.098248(14)
La1A_4 La 0.73786(3) 0.289832(17) -0.098248(14)
La1A_5 La 1.73786(3) 1.289832(17) 0.901752(14)
La1A_6 La -0.26214(3) 0.289832(17) -1.098248(14)
La1_3 La 0.26214(3) 0.710168(17) -0.901752(14)
O1A O 1.1168(4) 1.2672(3) 0.8616(2)
O2A O 1.3768(4) 1.1591(3) 0.7818(2)
O2_2 O 0.6232(4) 0.8409(3) 0.2182(2)
O2A_2 O 0.3768(4) 1.1591(3) 0.7818(2)
O3A O 0.8061(4) 1.1295(3) 0.69364(18)
O4A O -0.0003(4) 0.4139(3) -0.91879(19)
O4A_2 O -0.0003(4) 0.4139(3) 0.08121(19)
O4A_3 O 0.9997(4) 1.4139(3) 1.08121(19)
O4_2 O 1.0003(4) 1.5861(3) 0.91879(19)
O5A O 0.2727(4) 0.5234(3) -0.7778(2)
O5A_2 O 0.2727(4) 0.5234(3) 0.2222(2)
O5_2 O 0.7273(4) 1.4766(3) 0.7778(2)
O6A O 0.1242(5) 0.2901(3) -0.67589(19)
O7A O 0.7070(5) 1.0121(3) -0.0917(2)
O7A_2 O 0.7070(5) 1.0121(3) 0.9083(2)
O8A O 0.5103(4) 0.8025(2) -0.0410(2)
O8_2 O 0.4897(4) 1.1975(2) 1.0410(2)
O9_2 O 0.5000 1.5000 1.0000
H9A H 0.606(7) 0.549(6) 0.047(4)
H9A_2 H 0.606(7) 1.549(6) 1.047(4)
H9_2 H 0.394(7) 1.451(6) 0.953(4)
loop_
_geom_bond_atom_site_label_1
_geom_bond_atom_site_label_2
_geom_bond_site_symmetry_1
_geom_bond_site_symmetry_2
C1 C2 1_555 1_555
C2 H1 1_555 1_555
H2 C2 1_555 1_555
C3 C4 1_555 1_555
C4 H3 1_555 1_555
C5 C3 1_555 1_555
H4 C5 1_555 1_555
C6 C7 1_555 1_555
C7 H5 1_555 1_555
H6 C7 1_555 1_555
C8 C9 1_555 1_555
C9 H7 1_555 1_555
C10 C8 1_555 1_555
H8 C10 1_555 1_555
C11 O7 1_555 1_555
La1 O1 1_555 1_555
O1 C1 1_555 1_555
O2 C1 1_555 1_555
O3 C2 1_555 1_555
O4 C6 1_555 1_555
O5 C6 1_555 1_555
O6 C7 1_555 1_555
O7 La1 1_555 1_555
O8 C11 1_555 1_555
O9 La1 1_555 1_555
H9 O9 1_555 1_555
C1A C2A 1_555 1_555
C2A H1A 1_555 1_555
H2A C2A 1_555 1_555
C3A C4A 1_555 1_555
C4A C5 1_555 1_555
H3A C4A 1_555 1_555
C5A C4 1_555 1_555
H4A C5A 1_555 1_555
C6A C7A 1_555 1_555
C7A H5A 1_555 1_555
H6A C7A 1_555 1_555
C8A C9A 1_555 1_555
C9A C10 1_555 1_555
H7A C9A 1_555 1_555
C10A C9 1_555 1_555
H8A C10A 1_555 1_555
C11A C11 1_555 1_555
La1A O1A 1_555 1_555
La1_2 O2 1_555 1_555
La1A_2 O4 1_555 1_555
La1A_3 O8 1_555 1_555
La1A_4 O9 1_555 1_555
La1A_5 O2A 1_555 1_555
La1A_6 O4A 1_555 1_555
La1_3 O4A 1_555 1_555
O1A C1A 1_555 1_555
O2A C1A 1_555 1_555
O2_2 La1 1_555 1_555
O2A_2 La1A 1_555 1_555
O3A C2A 1_555 1_555
O4A C6A 1_555 1_555
O4A_2 La1 1_555 1_555
O4A_3 La1A 1_555 1_555
O4_2 La1A 1_555 1_555
O5A C6A 1_555 1_555
O5A_2 La1 1_555 1_555
O5_2 La1A 1_555 1_555
O6A C7A 1_555 1_555
O7A C11A 1_555 1_555
O7A_2 La1A 1_555 1_555
O8A La1 1_555 1_555
O8_2 La1A 1_555 1_555
O9_2 La1A 1_555 1_555
H9A O9 1_555 1_555
H9A_2 O9_2 1_555 1_555
H9_2 O9_2 1_555 1_555
C3 O3 1_555 1_555
C8 O6 1_555 1_555
La1 O3 1_555 1_555
La1 O4 1_555 1_555
O5 La1A_2 1_555 1_555
C3A C5A 1_555 1_555
C3A O3A 1_555 1_555
C8A C10A 1_555 1_555
C8A O6A 1_555 1_555
C11A O8A 1_555 1_555
La1A O3A 1_555 1_555
La1A_2 O4A_2 1_555 1_555
La1A_3 O7A 1_555 1_555
La1_3 O5A 1_555 1_555

#END
