
#######################################################################
#
#                 Cambridge Crystallographic Data Centre
#                                CCDC 
#
#######################################################################
#
# If this CIF has been generated from an entry in the Cambridge 
# Structural Database, then it will include bibliographic, chemical, 
# crystal, experimental, refinement or atomic coordinate data resulting 
# from the CCDC's data processing and validation procedures.
#
#######################################################################

data_DOYYIA
_symmetry_cell_setting           triclinic
_symmetry_space_group_name_H-M   'P -1'
_symmetry_Int_Tables_number      2
_space_group_name_Hall           '-P 1'
loop_
_symmetry_equiv_pos_site_id
_symmetry_equiv_pos_as_xyz
1 x,y,z
2 -x,-y,-z
_cell_length_a                   6.0448(2)
_cell_length_b                   8.9995(4)
_cell_length_c                   12.3673(5)
_cell_angle_alpha                104.980(2)
_cell_angle_beta                 92.234(2)
_cell_angle_gamma                104.979(2)
_cell_volume                     623.788
loop_
_atom_site_label
_atom_site_type_symbol
_atom_site_fract_x
_atom_site_fract_y
_atom_site_fract_z
C1 C 1.6836(5) 0.6812(4) 0.2844(3)
C2 C 1.5220(5) 0.5994(4) 0.1787(3)
H1 H 1.5853 0.6378 0.1169
H2 H 1.5018 0.4848 0.1598
C3 C 1.1495(5) 0.5639(4) 0.0966(2)
C4 C 1.1175(5) 0.6619(4) 0.0308(3)
H3 H 1.1969 0.7702 0.0522
C5 C 1.0339(5) 0.4034(4) 0.0669(3)
H4 H 1.0573 0.3395 0.1120
C6 C 1.3959(5) 1.0872(4) 0.3304(2)
C7 C 1.4735(6) 1.2337(4) 0.2892(3)
H5 H 1.4311 1.3217 0.3393
H6 H 1.6401 1.2635 0.2918
C8 C 1.4435(5) 1.1038(4) 0.0922(3)
C9 C 1.3220(5) 1.0658(4) -0.0127(3)
H7 H 1.2017 1.1101 -0.0213
C10 C 1.6234(6) 1.0372(4) 0.1052(3)
H8 H 1.7062 1.0618 0.1756
C11 C 1.0653(5) 0.4461(4) 0.4610(3)
H9 H 1.005(15) 1.029(10) 0.454(6)
O1 O 1.6161(4) 0.7695(3) 0.3649(2)
O2 O 1.8782(3) 0.6592(3) 0.28610(19)
O3 O 1.3049(3) 0.6321(3) 0.19523(17)
O4 O 1.2277(4) 0.9736(3) 0.28011(19)
O5 O 1.5050(4) 1.0850(3) 0.41992(18)
O6 O 1.3752(4) 1.2097(3) 0.17732(18)
O7 O 1.2097(4) 0.5150(3) 0.4078(2)
O8 O 1.0130(4) 0.3020(3) 0.45975(19)
Pr1 Pr 1.23740(2) 0.790266(18) 0.402892(13)
O9 O 1.0000 1.0000 0.5000
C1A C 0.3164(5) 0.3188(4) -0.2844(3)
C2A C 0.4780(5) 0.4006(4) -0.1787(3)
H1A H 0.4147 0.3622 -0.1169
H2A H 0.4982 0.5152 -0.1598
C3A C 0.8505(5) 0.4361(4) -0.0966(2)
C4A C 0.8825(5) 0.3381(4) -0.0308(3)
H3A H 0.8031 0.2298 -0.0522
C5A C 0.9661(5) 0.5966(4) -0.0669(3)
H4A H 0.9427 0.6605 -0.1120
C6A C 1.6041(5) 0.9128(4) -0.3304(2)
C7A C 1.5265(6) 0.7663(4) -0.2892(3)
H5A H 1.5689 0.6783 -0.3393
H6A H 1.3599 0.7365 -0.2918
C8A C 1.5565(5) 0.8962(4) -0.0922(3)
C9A C 1.6780(5) 0.9342(4) 0.0127(3)
H7A H 1.7983 0.8899 0.0213
C10A C 1.3766(6) 0.9628(4) -0.1052(3)
H8A H 1.2938 0.9382 -0.1756
C11A C 0.9347(5) 0.5539(4) 0.5390(3)
H9A H 0.995(15) 0.971(10) 0.546(6)
H9A_2 H 0.995(15) -0.029(10) -0.454(6)
H9_2 H 1.005(15) 0.029(10) -0.546(6)
O1A O 0.3839(4) 0.2305(3) -0.3649(2)
O2A O 0.1218(3) 0.3408(3) -0.28610(19)
O2_2 O 0.8782(3) 0.6592(3) 0.28610(19)
O2A_2 O 1.1218(3) 0.3408(3) -0.28610(19)
O3A O 0.6951(3) 0.3679(3) -0.19523(17)
O4A O 1.7723(4) 1.0264(3) -0.28011(19)
O4A_2 O 0.7723(4) 0.0264(3) -0.28011(19)
O5A O 1.4950(4) 0.9150(3) -0.41992(18)
O5A_2 O 1.4950(4) 0.9150(3) 0.58008(18)
O5A_3 O 0.4950(4) -0.0850(3) -0.41992(18)
O5_2 O 0.5050(4) 0.0850(3) -0.58008(18)
O6A O 1.6248(4) 0.7903(3) -0.17732(18)
O7A O 0.7903(4) 0.4850(3) 0.5922(2)
O7A_2 O 0.7903(4) 0.4850(3) -0.4078(2)
O8A O 0.9870(4) 0.6980(3) 0.54025(19)
O8_2 O 1.0130(4) 0.3020(3) -0.54025(19)
Pr1A Pr 0.76260(2) 0.209734(18) -0.402892(13)
Pr1_2 Pr 2.23740(2) 0.790266(18) 0.402892(13)
Pr1A_2 Pr 1.76260(2) 1.209734(18) 0.597108(13)
Pr1A_3 Pr 0.76260(2) 0.209734(18) 0.597108(13)
Pr1A_4 Pr 0.76260(2) 1.209734(18) 0.597108(13)
Pr1A_5 Pr -0.23740(2) 0.209734(18) -0.402892(13)
Pr1A_6 Pr 1.76260(2) 1.209734(18) -0.402892(13)
Pr1_3 Pr 1.23740(2) 0.790266(18) -0.597108(13)
O9_2 O 1.0000 0.0000 -0.5000
loop_
_geom_bond_atom_site_label_1
_geom_bond_atom_site_label_2
_geom_bond_site_symmetry_1
_geom_bond_site_symmetry_2
C1 C2 1_555 1_555
C2 H1 1_555 1_555
H2 C2 1_555 1_555
C3 C4 1_555 1_555
C4 H3 1_555 1_555
C5 C3 1_555 1_555
H4 C5 1_555 1_555
C6 C7 1_555 1_555
C7 H5 1_555 1_555
H6 C7 1_555 1_555
C8 C9 1_555 1_555
C9 H7 1_555 1_555
C10 C8 1_555 1_555
H8 C10 1_555 1_555
C11 O7 1_555 1_555
H9 O9 1_555 1_555
O1 C1 1_555 1_555
O2 C1 1_555 1_555
O3 C2 1_555 1_555
O4 C6 1_555 1_555
O5 C6 1_555 1_555
O6 C7 1_555 1_555
O7 Pr1 1_555 1_555
O8 C11 1_555 1_555
Pr1 O1 1_555 1_555
O9 Pr1 1_555 1_555
C1A C2A 1_555 1_555
C2A H1A 1_555 1_555
H2A C2A 1_555 1_555
C3A C4A 1_555 1_555
C4A C5 1_555 1_555
H3A C4A 1_555 1_555
C5A C4 1_555 1_555
H4A C5A 1_555 1_555
C6A C7A 1_555 1_555
C7A H5A 1_555 1_555
H6A C7A 1_555 1_555
C8A C9A 1_555 1_555
C9A C10 1_555 1_555
H7A C9A 1_555 1_555
C10A C9 1_555 1_555
H8A C10A 1_555 1_555
C11A C11 1_555 1_555
H9A O9 1_555 1_555
H9A_2 O9_2 1_555 1_555
H9_2 O9_2 1_555 1_555
O1A C1A 1_555 1_555
O2A C1A 1_555 1_555
O2_2 Pr1 1_555 1_555
O2A_2 Pr1A 1_555 1_555
O3A C2A 1_555 1_555
O4A C6A 1_555 1_555
O4A_2 Pr1A 1_555 1_555
O5A C6A 1_555 1_555
O5A_2 Pr1 1_555 1_555
O5A_3 Pr1A 1_555 1_555
O5_2 Pr1A 1_555 1_555
O6A C7A 1_555 1_555
O7A C11A 1_555 1_555
O7A_2 Pr1A 1_555 1_555
O8A Pr1 1_555 1_555
O8_2 Pr1A 1_555 1_555
Pr1A O1A 1_555 1_555
Pr1_2 O2 1_555 1_555
Pr1A_2 O5 1_555 1_555
Pr1A_3 O8 1_555 1_555
Pr1A_4 O9 1_555 1_555
Pr1A_5 O2A 1_555 1_555
Pr1A_6 O4A 1_555 1_555
Pr1_3 O5A 1_555 1_555
O9_2 Pr1A 1_555 1_555
C3 O3 1_555 1_555
C8 O6 1_555 1_555
O3 Pr1 1_555 1_555
O4 Pr1 1_555 1_555
O5 Pr1 1_555 1_555
C3A C5A 1_555 1_555
C3A O3A 1_555 1_555
C8A C10A 1_555 1_555
C8A O6A 1_555 1_555
C11A O8A 1_555 1_555
O3A Pr1A 1_555 1_555
O5A Pr1A_6 1_555 1_555
O5A_2 Pr1A_2 1_555 1_555
O7A Pr1A_3 1_555 1_555

#END
