
#######################################################################
#
#                 Cambridge Crystallographic Data Centre
#                                CCDC 
#
#######################################################################
#
# If this CIF has been generated from an entry in the Cambridge 
# Structural Database, then it will include bibliographic, chemical, 
# crystal, experimental, refinement or atomic coordinate data resulting 
# from the CCDC's data processing and validation procedures.
#
#######################################################################

data_DOYYOG
_symmetry_cell_setting           triclinic
_symmetry_space_group_name_H-M   'P -1'
_symmetry_Int_Tables_number      2
_space_group_name_Hall           '-P 1'
loop_
_symmetry_equiv_pos_site_id
_symmetry_equiv_pos_as_xyz
1 x,y,z
2 -x,-y,-z
_cell_length_a                   5.9865(1)
_cell_length_b                   8.9583(1)
_cell_length_c                   12.3253(2)
_cell_angle_alpha                104.824(1)
_cell_angle_beta                 91.847(1)
_cell_angle_gamma                105.356(1)
_cell_volume                     612.625
loop_
_atom_site_label
_atom_site_type_symbol
_atom_site_fract_x
_atom_site_fract_y
_atom_site_fract_z
C1 C -0.0986(5) 0.5869(4) 0.3324(2)
C2 C -0.0232(6) 0.7337(4) 0.2898(2)
H1 H -0.0653 0.8219 0.3403
H2 H 0.1451 0.7644 0.2909
C3 C -0.0562(5) 0.6036(3) 0.0927(2)
C4 C 0.1253(5) 0.5369(4) 0.1049(3)
H3 H 0.2096 0.5615 0.1750
C5 C -0.1792(6) 0.5661(4) -0.0118(3)
H4 H -0.3002 0.6109 -0.0199
C6 C 0.1827(5) 0.1841(3) -0.7128(2)
C7 C 0.0216(5) 0.1005(4) -0.8190(2)
H5 H 0.0872 0.1386 -0.8812
H6 H 0.0011 -0.0146 -0.8370
C8 C -0.3519(5) 0.0657(3) -0.9023(2)
C9 C -0.4673(5) -0.0972(4) -0.9335(3)
H7 H -0.4442 -0.1621 -0.8886
C10 C -0.6167(5) -0.1626(4) -1.0319(3)
H8 H -0.3042 0.2718 -0.9464
C11 C -0.5682(5) 0.0520(3) -0.4617(2)
O1 O 0.0130(4) 0.5864(2) 0.42198(17)
O2 O -0.2661(4) 0.4713(2) 0.28274(18)
O3 O -0.1244(4) 0.7091(3) 0.17920(17)
O4 O 0.1122(4) 0.2719(3) -0.63318(19)
O5 O -1.3798(3) -0.1629(3) -1.28948(18)
O6 O -0.1976(3) 0.1329(2) -0.80318(16)
O7 O -0.5175(4) 0.1972(2) -0.46090(19)
O8 O -0.2882(4) 0.0176(3) -0.59272(19)
O9 O -0.5000 0.5000 -0.5000
Sm1 Sm -0.26372(2) 0.290020(16) -0.596180(11)
H9 H -0.497(6) 0.460(4) -0.451(2)
C1A C 0.0986(5) 0.4131(4) -0.3324(2)
C2A C 0.0232(6) 0.2663(4) -0.2898(2)
H1A H 0.0653 0.1781 -0.3403
H2A H -0.1451 0.2356 -0.2909
C3A C 0.0562(5) 0.3964(3) -0.0927(2)
C4A C -0.1253(5) 0.4631(4) -0.1049(3)
H3A H -0.2096 0.4385 -0.1750
C5A C 0.1792(6) 0.4339(4) 0.0118(3)
H4A H 0.3002 0.3891 0.0199
C6A C -1.1827(5) -0.1841(3) -1.2872(2)
C7A C -1.0216(5) -0.1005(4) -1.1810(2)
H5A H -1.0872 -0.1386 -1.1188
H6A H -1.0011 0.0146 -1.1630
C8A C -0.6481(5) -0.0657(3) -1.0977(2)
C9A C -0.5327(5) 0.0972(4) -1.0665(3)
H7A H -0.5558 0.1621 -1.1114
C10A C -0.3833(5) 0.1626(4) -0.9681(3)
H8A H -0.6958 -0.2718 -1.0536
C11A C -0.4318(5) -0.0520(3) -0.5383(2)
O1A O -0.0130(4) 0.4136(2) -0.42198(17)
O1_2 O 0.0130(4) 0.5864(2) -0.57802(17)
O1A_2 O -1.0130(4) -0.5864(2) -1.42198(17)
O1_3 O -0.9870(4) -0.4136(2) -1.57802(17)
O2_2 O -0.2661(4) 0.4713(2) -0.71726(18)
O2A O -0.7339(4) -0.4713(2) -1.28274(18)
O2A_2 O 0.2661(4) 0.5287(2) -0.28274(18)
O3A O 0.1244(4) 0.2909(3) -0.17920(17)
O4A O -1.1122(4) -0.2719(3) -1.36682(19)
O5_2 O -0.3798(3) -0.1629(3) -1.28948(18)
O5A O 0.3798(3) 0.1629(3) -0.71052(18)
O5A_2 O -0.6202(3) 0.1629(3) -0.71052(18)
O6A O -0.8024(3) -0.1329(2) -1.19682(16)
O7A O -0.4825(4) -0.1972(2) -1.53910(19)
O7A_2 O -0.4825(4) -0.1972(2) -0.53910(19)
O8A O -0.7118(4) -0.0176(3) -1.40728(19)
O8A_2 O -0.7118(4) -0.0176(3) -0.40728(19)
O9_2 O -0.5000 -0.5000 -1.5000
Sm1A Sm 0.26372(2) 0.709980(16) -0.403820(11)
Sm1_2 Sm -0.26372(2) 0.290020(16) 0.403820(11)
Sm1A_2 Sm -0.73628(2) -0.290020(16) -1.403820(11)
Sm1A_3 Sm 0.26372(2) 0.709980(16) 0.596180(11)
Sm1A_4 Sm -1.73628(2) -0.290020(16) -1.403820(11)
Sm1_3 Sm 0.73628(2) 0.290020(16) -0.596180(11)
Sm1A_5 Sm -0.73628(2) 0.709980(16) -0.403820(11)
Sm1A_6 Sm -0.73628(2) -0.290020(16) -0.403820(11)
H9_2 H -0.497(6) -0.540(4) -1.451(2)
H9A H -0.503(6) -0.460(4) -1.549(2)
H9A_2 H -0.503(6) 0.540(4) -0.549(2)
loop_
_geom_bond_atom_site_label_1
_geom_bond_atom_site_label_2
_geom_bond_site_symmetry_1
_geom_bond_site_symmetry_2
C1 C2 1_555 1_555
C2 H1 1_555 1_555
H2 C2 1_555 1_555
C3 C4 1_555 1_555
C4 H3 1_555 1_555
C5 C3 1_555 1_555
H4 C5 1_555 1_555
C6 C7 1_555 1_555
C7 H5 1_555 1_555
H6 C7 1_555 1_555
C8 C9 1_555 1_555
C9 H7 1_555 1_555
C10 C9 1_555 1_555
H8 C10A 1_555 1_555
C11 O7 1_555 1_555
O1 C1 1_555 1_555
O2 C1 1_555 1_555
O3 C2 1_555 1_555
O4 C6 1_555 1_555
O5 C6A 1_555 1_555
O6 C7 1_555 1_555
O7 Sm1 1_555 1_555
O8 Sm1 1_555 1_555
O9 Sm1 1_555 1_555
Sm1 O4 1_555 1_555
H9 O9 1_555 1_555
C1A C2A 1_555 1_555
C2A H1A 1_555 1_555
H2A C2A 1_555 1_555
C3A C4A 1_555 1_555
C4A C5 1_555 1_555
H3A C4A 1_555 1_555
C5A C4 1_555 1_555
H4A C5A 1_555 1_555
C6A C7A 1_555 1_555
C7A H5A 1_555 1_555
H6A C7A 1_555 1_555
C8A C10 1_555 1_555
C9A C8A 1_555 1_555
H7A C9A 1_555 1_555
C10A C8 1_555 1_555
H8A C10 1_555 1_555
C11A C11 1_555 1_555
O1A Sm1 1_555 1_555
O1_2 Sm1 1_555 1_555
O1A_2 Sm1A_2 1_555 1_555
O1_3 Sm1A_2 1_555 1_555
O2_2 Sm1 1_555 1_555
O2A Sm1A_2 1_555 1_555
O2A_2 C1A 1_555 1_555
O3A C2A 1_555 1_555
O4A C6A 1_555 1_555
O5_2 Sm1A_2 1_555 1_555
O5A C6 1_555 1_555
O5A_2 Sm1 1_555 1_555
O6A C7A 1_555 1_555
O7A Sm1A_2 1_555 1_555
O7A_2 C11A 1_555 1_555
O8A Sm1A_2 1_555 1_555
O8A_2 C11 1_555 1_555
O9_2 Sm1A_2 1_555 1_555
Sm1A O1A 1_555 1_555
Sm1_2 O1 1_555 1_555
Sm1A_2 O4A 1_555 1_555
Sm1A_3 O1 1_555 1_555
Sm1A_4 O5 1_555 1_555
Sm1_3 O5A 1_555 1_555
Sm1A_5 O9 1_555 1_555
Sm1A_6 O7A_2 1_555 1_555
H9_2 O9_2 1_555 1_555
H9A O9_2 1_555 1_555
H9A_2 O9 1_555 1_555
C3 O3 1_555 1_555
C8 O6 1_555 1_555
O2 Sm1_2 1_555 1_555
O6 Sm1 1_555 1_555
O8 C11A 1_555 1_555
C1A O1A 1_555 1_555
C3A C5A 1_555 1_555
C3A O3A 1_555 1_555
C8A O6A 1_555 1_555
C9A C10A 1_555 1_555
O1_2 Sm1A 1_555 1_555
O2A_2 Sm1A 1_555 1_555
O6A Sm1A_2 1_555 1_555
O8A_2 Sm1A_6 1_555 1_555

#END
