
#######################################################################
#
#                 Cambridge Crystallographic Data Centre
#                                CCDC 
#
#######################################################################
#
# If this CIF has been generated from an entry in the Cambridge 
# Structural Database, then it will include bibliographic, chemical, 
# crystal, experimental, refinement or atomic coordinate data resulting 
# from the CCDC's data processing and validation procedures.
#
#######################################################################

data_DOYZUO
_symmetry_cell_setting           tetragonal
_symmetry_space_group_name_H-M   'I -4'
_symmetry_Int_Tables_number      82
_space_group_name_Hall           'I -4'
loop_
_symmetry_equiv_pos_site_id
_symmetry_equiv_pos_as_xyz
1 x,y,z
2 -x,-y,z
3 y,-x,-z
4 -y,x,-z
5 1/2+x,1/2+y,1/2+z
6 1/2-x,1/2-y,1/2+z
7 1/2+y,1/2-x,1/2-z
8 1/2-y,1/2+x,1/2-z
_cell_length_a                   18.9363(12)
_cell_length_b                   18.9363(12)
_cell_length_c                   8.2997(10)
_cell_angle_alpha                90
_cell_angle_beta                 90
_cell_angle_gamma                90
_cell_volume                     2976.14
loop_
_atom_site_label
_atom_site_type_symbol
_atom_site_fract_x
_atom_site_fract_y
_atom_site_fract_z
Dy1 Dy 0.080121(13) 0.058454(13) 0.16265(3)
O1 O 0.0940(2) 0.1710(2) 0.0571(4)
O2 O -0.0087(2) 0.1857(2) -0.0706(4)
O3 O 0.10090(19) -0.00835(19) 0.3940(4)
O4 O 0.13537(17) -0.01885(18) 0.6503(5)
O5 O -0.0425(2) 0.05752(19) 0.1148(4)
H1 H -0.0547 0.0903 0.1789
N1 N 0.1745(2) 0.1103(2) 0.3547(7)
N2 N 0.2536(3) 0.1669(3) 0.6094(6)
C1 C 0.0666(3) 0.2847(3) -0.0342(8)
C2 C 0.0866(3) 0.3100(3) -0.1876(8)
C3 C 0.0885(3) 0.2653(3) -0.3241(8)
H2 H 0.0757 0.2169 -0.3152
C4 C 0.1094(4) 0.2930(4) -0.4706(9)
H3 H 0.1095 0.2633 -0.5627
C5 C 0.1301(4) 0.3621(4) -0.4874(10)
H4 H 0.1454 0.3795 -0.5889
C6 C 0.1284(3) 0.4049(4) -0.3573(10)
H5 H 0.1431 0.4525 -0.3704
C7 C 0.1060(3) 0.3829(3) -0.2033(8)
C8 C 0.1010(4) 0.4285(4) -0.0706(9)
H6 H 0.1124 0.4771 -0.0828
C9 C 0.0797(4) 0.4033(4) 0.0775(9)
H7 H 0.0755 0.4345 0.1666
C10 C 0.0641(3) 0.3307(3) 0.0961(7)
H8 H 0.0517 0.3131 0.1994
C11 C 0.0486(3) 0.2079(3) -0.0138(7)
C12 C 0.1769(3) 0.0778(3) 0.4995(7)
C13 C 0.2127(3) 0.1691(3) 0.3388(8)
H9 H 0.2134 0.1926 0.2377
C14 C 0.2513(3) 0.1967(3) 0.4663(7)
H10 H 0.2772 0.2390 0.4494
C15 C 0.2162(3) 0.1064(3) 0.6256(7)
H11 H 0.2167 0.0826 0.7264
C16 C 0.1337(3) 0.0115(3) 0.5176(7)
Dy1A Dy -0.080121(13) -0.058454(13) 0.16265(3)
Dy1B Dy 0.058454(13) -0.080121(13) 0.83735(3)
Dy1C Dy -0.058454(13) 0.080121(13) -0.16265(3)
O2B O 0.1857(2) 0.0087(2) 0.0706(4)
O4C O 0.01885(18) 0.13537(17) 0.3497(5)
O5A O 0.0425(2) -0.05752(19) 0.1148(4)
O5B O 0.05752(19) 0.0425(2) -0.1148(4)
loop_
_geom_bond_atom_site_label_1
_geom_bond_atom_site_label_2
_geom_bond_site_symmetry_1
_geom_bond_site_symmetry_2
Dy1 O1 1_555 1_555
O1 C11 1_555 1_555
O2 C11 1_555 1_555
O3 Dy1 1_555 1_555
O4 C16 1_555 1_555
O5 Dy1 1_555 1_555
H1 O5 1_555 1_555
N1 Dy1 1_555 1_555
N2 C14 1_555 1_555
C1 C2 1_555 1_555
C2 C3 1_555 1_555
C3 H2 1_555 1_555
C4 C3 1_555 1_555
H3 C4 1_555 1_555
C5 C4 1_555 1_555
H4 C5 1_555 1_555
C6 C5 1_555 1_555
H5 C6 1_555 1_555
C7 C2 1_555 1_555
C8 C7 1_555 1_555
H6 C8 1_555 1_555
C9 C8 1_555 1_555
H7 C9 1_555 1_555
C10 C1 1_555 1_555
H8 C10 1_555 1_555
C11 C1 1_555 1_555
C12 N1 1_555 1_555
C13 N1 1_555 1_555
H9 C13 1_555 1_555
C14 C13 1_555 1_555
H10 C14 1_555 1_555
C15 N2 1_555 1_555
H11 C15 1_555 1_555
C16 O3 1_555 1_555
Dy1A O5 1_555 1_555
Dy1B O4 1_555 1_555
Dy1C O2 1_555 1_555
O2B Dy1 1_555 1_555
O4C Dy1 1_555 1_555
O5A Dy1 1_555 1_555
O5B Dy1 1_555 1_555
O5 Dy1C 1_555 1_555
C6 C7 1_555 1_555
C9 C10 1_555 1_555
C12 C15 1_555 1_555
C12 C16 1_555 1_555
Dy1A O5A 1_555 1_555
Dy1C O5B 1_555 1_555

#END
