
#######################################################################
#
#                 Cambridge Crystallographic Data Centre
#                                CCDC 
#
#######################################################################
#
# If this CIF has been generated from an entry in the Cambridge 
# Structural Database, then it will include bibliographic, chemical, 
# crystal, experimental, refinement or atomic coordinate data resulting 
# from the CCDC's data processing and validation procedures.
#
#######################################################################

data_DOYZUN
_symmetry_cell_setting           monoclinic
_symmetry_space_group_name_H-M   'P 21/c'
_symmetry_Int_Tables_number      14
_space_group_name_Hall           '-P 2ybc'
loop_
_symmetry_equiv_pos_site_id
_symmetry_equiv_pos_as_xyz
1 x,y,z
2 -x,1/2+y,1/2-z
3 -x,-y,-z
4 x,1/2-y,1/2+z
_cell_length_a                   12.407(2)
_cell_length_b                   6.6576(10)
_cell_length_c                   11.6333(18)
_cell_angle_alpha                90.00
_cell_angle_beta                 95.450(2)
_cell_angle_gamma                90.00
_cell_volume                     956.577
loop_
_atom_site_label
_atom_site_type_symbol
_atom_site_fract_x
_atom_site_fract_y
_atom_site_fract_z
Gd1 Gd -0.193500(11) 0.007470(18) 0.162750(12)
C1 C -0.3337(3) -0.4336(5) 0.0994(3)
H1 H -0.3340 -0.5273 0.0355
H2 H -0.4016 -0.4468 0.1337
O1 O -0.32092(17) -0.2333(3) 0.05966(17)
O2 O -0.21518(18) -0.6551(3) 0.21171(19)
O3 O -0.05666(17) 0.2033(3) 0.06815(18)
O4 O -0.3784(2) 0.0517(4) 0.2197(2)
H3 H -0.4198 -0.0244 0.1818
C2 C -0.2396(3) -0.4772(4) 0.1881(3)
O5 O -0.0154(2) -0.0217(4) 0.2628(3)
H4 H -0.0145 -0.1149 0.3089
C3 C -0.3632(3) 0.0337(5) -0.0729(3)
O6 O -0.19011(17) -0.3281(3) 0.23499(18)
O7 O -0.1961(3) 0.0196(4) 0.3799(2)
H5 H -0.2228 0.1261 0.3984
O8 O -0.28491(18) 0.1219(3) -0.01597(18)
O9 O -0.42403(18) 0.1134(3) -0.15233(19)
O10 O -0.09252(17) -0.1887(3) 0.02650(18)
C4 C -0.3856(3) -0.1823(5) -0.0435(3)
H6 H -0.4616 -0.1992 -0.0327
H7 H -0.3682 -0.2695 -0.1059
C5 C 0.0106(2) 0.1136(5) 0.0114(2)
H8 H 0.043(6) 0.033(8) 0.257(5)
H9 H -0.391(4) 0.155(7) 0.253(4)
H10 H -0.157(6) -0.046(9) 0.437(6)
Gd1_2 Gd -0.193500(11) -0.992530(18) 0.162750(12)
Gd1B Gd 0.193500(11) -0.007470(18) -0.162750(12)
Gd1B_2 Gd 0.193500(11) 0.992530(18) -0.162750(12)
C1B C 0.3337(3) 0.4336(5) -0.0994(3)
H1B H 0.3340 0.5273 -0.0355
H2B H 0.4016 0.4468 -0.1337
O1B O 0.32092(17) 0.2333(3) -0.05966(17)
O2_2 O -0.21518(18) 0.3449(3) 0.21171(19)
O2B O 0.21518(18) -0.3449(3) -0.21171(19)
O2B_2 O 0.21518(18) 0.6551(3) -0.21171(19)
O3B O 0.05666(17) -0.2033(3) -0.06815(18)
O4B O 0.3784(2) -0.0517(4) -0.2197(2)
H3B H 0.4198 0.0244 -0.1818
C2B C 0.2396(3) 0.4772(4) -0.1881(3)
O5B O 0.0154(2) 0.0217(4) -0.2628(3)
H4B H 0.0145 0.1149 -0.3089
C3B C 0.3632(3) -0.0337(5) 0.0729(3)
O6B O 0.19011(17) 0.3281(3) -0.23499(18)
O7B O 0.1961(3) -0.0196(4) -0.3799(2)
H5B H 0.2228 -0.1261 -0.3984
O8B O 0.28491(18) -0.1219(3) 0.01597(18)
O9B O 0.42403(18) -0.1134(3) 0.15233(19)
O10B O 0.09252(17) 0.1887(3) -0.02650(18)
C4B C 0.3856(3) 0.1823(5) 0.0435(3)
H6B H 0.4616 0.1992 0.0327
H7B H 0.3682 0.2695 0.1059
C5B C -0.0106(2) -0.1136(5) -0.0114(2)
H8B H -0.043(6) -0.033(8) -0.257(5)
H9B H 0.391(4) -0.155(7) -0.253(4)
H10B H 0.157(6) 0.046(9) -0.437(6)
loop_
_geom_bond_atom_site_label_1
_geom_bond_atom_site_label_2
_geom_bond_site_symmetry_1
_geom_bond_site_symmetry_2
Gd1 O1 1_555 1_555
C1 H1 1_555 1_555
H2 C1 1_555 1_555
O1 C1 1_555 1_555
O2 C2 1_555 1_555
O3 Gd1 1_555 1_555
O4 Gd1 1_555 1_555
H3 O4 1_555 1_555
C2 C1 1_555 1_555
O5 Gd1 1_555 1_555
H4 O5 1_555 1_555
C3 O8 1_555 1_555
O6 Gd1 1_555 1_555
O7 Gd1 1_555 1_555
H5 O7 1_555 1_555
O8 Gd1 1_555 1_555
O9 C3 1_555 1_555
O10 Gd1 1_555 1_555
C4 O1 1_555 1_555
H6 C4 1_555 1_555
H7 C4 1_555 1_555
C5 O3 1_555 1_555
H8 O5 1_555 1_555
H9 O4 1_555 1_555
H10 O7 1_555 1_555
Gd1_2 O2 1_555 1_555
Gd1B O1B 1_555 1_555
Gd1B_2 O2B_2 1_555 1_555
C1B H1B 1_555 1_555
H2B C1B 1_555 1_555
O1B C1B 1_555 1_555
O2_2 Gd1 1_555 1_555
O2B Gd1B 1_555 1_555
O2B_2 C2B 1_555 1_555
O3B Gd1B 1_555 1_555
O4B Gd1B 1_555 1_555
H3B O4B 1_555 1_555
C2B C1B 1_555 1_555
O5B Gd1B 1_555 1_555
H4B O5B 1_555 1_555
C3B O8B 1_555 1_555
O6B Gd1B 1_555 1_555
O7B Gd1B 1_555 1_555
H5B O7B 1_555 1_555
O8B Gd1B 1_555 1_555
O9B C3B 1_555 1_555
O10B C5 1_555 1_555
C4B O1B 1_555 1_555
H6B C4B 1_555 1_555
H7B C4B 1_555 1_555
C5B O10 1_555 1_555
H8B O5B 1_555 1_555
H9B O4B 1_555 1_555
H10B O7B 1_555 1_555
C2 O6 1_555 1_555
C3 C4 1_555 1_555
C5 C5B 1_555 1_555
Gd1B O10B 1_555 1_555
O3B C5B 1_555 1_555
C2B O6B 1_555 1_555
C3B C4B 1_555 1_555

#END
