
#######################################################################
#
#                 Cambridge Crystallographic Data Centre
#                                CCDC 
#
#######################################################################
#
# If this CIF has been generated from an entry in the Cambridge 
# Structural Database, then it will include bibliographic, chemical, 
# crystal, experimental, refinement or atomic coordinate data resulting 
# from the CCDC's data processing and validation procedures.
#
#######################################################################

data_DOYZOH
_symmetry_cell_setting           monoclinic
_symmetry_space_group_name_H-M   'P 21/c'
_symmetry_Int_Tables_number      14
_space_group_name_Hall           '-P 2ybc'
loop_
_symmetry_equiv_pos_site_id
_symmetry_equiv_pos_as_xyz
1 x,y,z
2 -x,1/2+y,1/2-z
3 -x,-y,-z
4 x,1/2-y,1/2+z
_cell_length_a                   12.6506(10)
_cell_length_b                   6.8782(5)
_cell_length_c                   11.7181(9)
_cell_angle_alpha                90
_cell_angle_beta                 95.5380(10)
_cell_angle_gamma                90
_cell_volume                     1014.87
loop_
_atom_site_label
_atom_site_type_symbol
_atom_site_fract_x
_atom_site_fract_y
_atom_site_fract_z
La1 La 0.195015(12) 0.01391(2) 0.831861(14)
C1 C 0.2448(3) -0.4694(5) 0.8140(3)
O1 O 0.38234(18) 0.0576(4) 0.7671(2)
H1 H 0.4246 -0.0096 0.8072
O2 O 0.0086(2) -0.0220(4) 0.7306(3)
H2 H 0.0075 -0.1126 0.6851
O3 O 0.05511(16) 0.1996(3) 0.93400(18)
O4 O 0.22251(17) -0.6425(3) 0.7944(2)
O5 O 0.19505(17) -0.3293(3) 0.76474(19)
O6 O 0.32647(16) -0.2272(3) 0.93879(17)
O7 O 0.42707(16) 0.1002(4) 1.15491(18)
O8 O 0.29412(16) 0.1189(3) 1.01651(17)
O9 O -0.09166(16) 0.1809(3) 1.02596(19)
O10 O 0.1903(3) 0.0295(5) 0.6089(3)
H3 H 0.2202 0.1288 0.5904
C2 C 0.3683(3) 0.0285(5) 1.0741(3)
C3 C 0.3881(2) -0.1803(5) 1.0428(3)
H4 H 0.4629 -0.1989 1.0338
H5 H 0.3691 -0.2656 1.1035
C4 C -0.0113(2) 0.1090(5) 0.9887(2)
C5 C 0.3376(2) -0.4233(5) 0.9016(3)
H6 H 0.3379 -0.5113 0.9663
H7 H 0.4040 -0.4387 0.8675
H8 H 0.399(3) 0.161(7) 0.732(3)
H9 H -0.042(4) 0.027(5) 0.745(4)
H10 H 0.155(7) -0.004(9) 0.571(7)
La1B La -0.195015(12) -0.01391(2) 1.168139(14)
La1_2 La 0.195015(12) -0.98609(2) 0.831861(14)
La1B_2 La -0.195015(12) 0.98609(2) 1.168139(14)
C1B C -0.2448(3) 0.4694(5) 1.1860(3)
O1B O -0.38234(18) -0.0576(4) 1.2329(2)
H1B H -0.4246 0.0096 1.1928
O2B O -0.0086(2) 0.0220(4) 1.2694(3)
H2B H -0.0075 0.1126 1.3149
O3B O -0.05511(16) -0.1996(3) 1.06600(18)
O4B O -0.22251(17) 0.6425(3) 1.2056(2)
O4_2 O 0.22251(17) 0.3575(3) 0.7944(2)
O4B_2 O -0.22251(17) -0.3575(3) 1.2056(2)
O5B O -0.19505(17) 0.3293(3) 1.23526(19)
O6B O -0.32647(16) 0.2272(3) 1.06121(17)
O7B O -0.42707(16) -0.1002(4) 0.84509(18)
O8B O -0.29412(16) -0.1189(3) 0.98349(17)
O9B O 0.09166(16) -0.1809(3) 0.97404(19)
O10B O -0.1903(3) -0.0295(5) 1.3911(3)
H3B H -0.2202 -0.1288 1.4096
C2B C -0.3683(3) -0.0285(5) 0.9259(3)
C3B C -0.3881(2) 0.1803(5) 0.9572(3)
H4B H -0.4629 0.1989 0.9662
H5B H -0.3691 0.2656 0.8965
C4B C 0.0113(2) -0.1090(5) 1.0113(2)
C5B C -0.3376(2) 0.4233(5) 1.0984(3)
H6B H -0.3379 0.5113 1.0337
H7B H -0.4040 0.4387 1.1325
H8B H -0.399(3) -0.161(7) 1.268(3)
H9B H 0.042(4) -0.027(5) 1.255(4)
H10B H -0.155(7) 0.004(9) 1.429(7)
loop_
_geom_bond_atom_site_label_1
_geom_bond_atom_site_label_2
_geom_bond_site_symmetry_1
_geom_bond_site_symmetry_2
La1 O1 1_555 1_555
C1 O4 1_555 1_555
O1 H1 1_555 1_555
O2 La1 1_555 1_555
H2 O2 1_555 1_555
O3 La1 1_555 1_555
O4 La1_2 1_555 1_555
O5 La1 1_555 1_555
O6 La1 1_555 1_555
O7 C2 1_555 1_555
O8 La1 1_555 1_555
O9 C4 1_555 1_555
O10 La1 1_555 1_555
H3 O10 1_555 1_555
C2 O8 1_555 1_555
C3 O6 1_555 1_555
H4 C3 1_555 1_555
H5 C3 1_555 1_555
C4 O3 1_555 1_555
C5 C1 1_555 1_555
H6 C5 1_555 1_555
H7 C5 1_555 1_555
H8 O1 1_555 1_555
H9 O2 1_555 1_555
H10 O10 1_555 1_555
La1B O9 1_555 1_555
La1B_2 O4B 1_555 1_555
C1B O4B 1_555 1_555
O1B La1B 1_555 1_555
H1B O1B 1_555 1_555
O2B La1B 1_555 1_555
H2B O2B 1_555 1_555
O3B La1B 1_555 1_555
O4_2 La1 1_555 1_555
O4B_2 La1B 1_555 1_555
O5B La1B 1_555 1_555
O6B La1B 1_555 1_555
O7B C2B 1_555 1_555
O8B La1B 1_555 1_555
O9B La1 1_555 1_555
O10B La1B 1_555 1_555
H3B O10B 1_555 1_555
C2B O8B 1_555 1_555
C3B O6B 1_555 1_555
H4B C3B 1_555 1_555
H5B C3B 1_555 1_555
C4B C4 1_555 1_555
C5B C1B 1_555 1_555
H6B C5B 1_555 1_555
H7B C5B 1_555 1_555
H8B O1B 1_555 1_555
H9B O2B 1_555 1_555
H10B O10B 1_555 1_555
C1 O5 1_555 1_555
O6 C5 1_555 1_555
C2 C3 1_555 1_555
C1B O5B 1_555 1_555
O3B C4B 1_555 1_555
O6B C5B 1_555 1_555
O9B C4B 1_555 1_555
C2B C3B 1_555 1_555

#END
