
#######################################################################
#
#                 Cambridge Crystallographic Data Centre
#                                CCDC 
#
#######################################################################
#
# If this CIF has been generated from an entry in the Cambridge 
# Structural Database, then it will include bibliographic, chemical, 
# crystal, experimental, refinement or atomic coordinate data resulting 
# from the CCDC's data processing and validation procedures.
#
#######################################################################

data_DOYZAT
_symmetry_cell_setting           triclinic
_symmetry_space_group_name_H-M   'P -1'
_symmetry_Int_Tables_number      2
_space_group_name_Hall           '-P 1'
loop_
_symmetry_equiv_pos_site_id
_symmetry_equiv_pos_as_xyz
1 x,y,z
2 -x,-y,-z
_cell_length_a                   5.9671(1)
_cell_length_b                   8.9770(2)
_cell_length_c                   12.2100(2)
_cell_angle_alpha                104.484(1)
_cell_angle_beta                 91.275(1)
_cell_angle_gamma                104.351(1)
_cell_volume                     611.022
loop_
_atom_site_label
_atom_site_type_symbol
_atom_site_fract_x
_atom_site_fract_y
_atom_site_fract_z
Tb1 Tb 0.27939(5) 0.71625(4) 0.59770(3)
C1 C -0.1767(11) 0.8078(8) 0.7141(7)
C2 C -0.0175(11) 0.8970(9) 0.8179(6)
H1 H -0.0040 1.0102 0.8319
H2 H -0.0793 0.8629 0.8831
C3 C 0.3542(11) 0.9359(8) 0.9027(6)
C4 C 0.4695(12) 1.0926(9) 0.9298(6)
H3 H 0.4503 1.1550 0.8817
C5 C 0.3839(12) 0.8403(8) 0.9710(6)
H4 H 0.3070 0.7324 0.9509
C6 C 0.0709(17) 0.4053(10) 0.6590(7)
C7 C 0.0184(13) 0.2627(9) 0.7091(6)
H5 H -0.1479 0.2277 0.7130
H6 H 0.0660 0.1759 0.6591
C8 C 0.0596(12) 0.4001(8) 0.9059(6)
C9 C 0.1812(12) 0.4358(9) 1.0108(6)
H7 H 0.3048 0.3918 1.0175
C10 C -0.1255(12) 0.4660(8) 0.8950(6)
H8 H -0.2092 0.4436 0.8251
C11 C 0.4253(18) 1.0489(12) 0.5374(8)
O1 O -0.0973(9) 0.7247(8) 0.6338(6)
O2 O -0.3783(8) 0.8211(7) 0.7124(5)
O3 O 0.2050(7) 0.8675(6) 0.8025(4)
O4 O 0.2358(11) 0.5224(7) 0.7016(6)
O5 O -0.0525(18) 0.3970(8) 0.5725(5)
O6 O 0.1316(9) 0.2970(6) 0.8181(4)
O7 O 0.2898(12) 0.9798(8) 0.5956(6)
O8 O 0.4560(14) 1.1870(9) 0.5305(7)
O9 O 0.5000 0.5000 0.5000
H9 H 0.474(15) 0.480(10) 0.561(4)
Tb1A Tb 0.72061(5) 1.28375(4) 1.40230(3)
Tb1_2 Tb -0.72061(5) 0.71625(4) 0.59770(3)
Tb1A_2 Tb -0.27939(5) 0.28375(4) 0.40230(3)
Tb1A_3 Tb 0.72061(5) 1.28375(4) 0.40230(3)
Tb1A_4 Tb 0.72061(5) 0.28375(4) 0.40230(3)
Tb1A_5 Tb 1.72061(5) 1.28375(4) 1.40230(3)
Tb1A_6 Tb -0.27939(5) 0.28375(4) 1.40230(3)
Tb1_3 Tb 0.27939(5) 0.71625(4) 1.59770(3)
C1A C 1.1767(11) 1.1922(8) 1.2859(7)
C2A C 1.0175(11) 1.1030(9) 1.1821(6)
H1A H 1.0040 0.9898 1.1681
H2A H 1.0793 1.1371 1.1169
C3A C 0.6458(11) 1.0641(8) 1.0973(6)
C4A C 0.5305(12) 0.9074(9) 1.0702(6)
H3A H 0.5497 0.8450 1.1183
C5A C 0.6161(12) 1.1597(8) 1.0290(6)
H4A H 0.6930 1.2676 1.0491
C6A C -0.0709(17) 0.5947(10) 1.3410(7)
C7A C -0.0184(13) 0.7373(9) 1.2909(6)
H5A H 0.1479 0.7723 1.2870
H6A H -0.0660 0.8241 1.3409
C8A C -0.0596(12) 0.5999(8) 1.0941(6)
C9A C -0.1812(12) 0.5642(9) 0.9892(6)
H7A H -0.3048 0.6082 0.9825
C10A C 0.1255(12) 0.5340(8) 1.1050(6)
H8A H 0.2092 0.5564 1.1749
C11A C 0.5747(18) 0.9511(12) 0.4626(8)
O1A O 1.0973(9) 1.2753(8) 1.3662(6)
O2A O 1.3783(8) 1.1789(7) 1.2876(5)
O2_2 O 0.6217(8) 0.8211(7) 0.7124(5)
O2A_2 O 0.3783(8) 1.1789(7) 1.2876(5)
O3A O 0.7950(7) 1.1325(6) 1.1975(4)
O4A O -0.2358(11) 0.4776(7) 1.2984(6)
O4A_2 O 0.7642(11) 1.4776(7) 1.2984(6)
O5A O 0.0525(18) 0.6030(8) 1.4275(5)
O5A_2 O 0.0525(18) 0.6030(8) 0.4275(5)
O5_2 O 0.9475(18) 1.3970(8) 1.5725(5)
O6A O -0.1316(9) 0.7030(6) 1.1819(4)
O7A O 0.7102(12) 1.0202(8) 0.4044(6)
O7A_2 O 0.7102(12) 1.0202(8) 1.4044(6)
O8A O 0.5440(14) 0.8130(9) 0.4695(7)
O8_2 O 0.4560(14) 1.1870(9) 1.5305(7)
O9_2 O 0.5000 1.5000 1.5000
H9A H 0.526(15) 0.520(10) 0.439(4)
H9A_2 H 0.526(15) 1.520(10) 1.439(4)
H9_2 H 0.474(15) 1.480(10) 1.561(4)
loop_
_geom_bond_atom_site_label_1
_geom_bond_atom_site_label_2
_geom_bond_site_symmetry_1
_geom_bond_site_symmetry_2
Tb1 O1 1_555 1_555
C1 C2 1_555 1_555
C2 H1 1_555 1_555
H2 C2 1_555 1_555
C3 C4 1_555 1_555
C4 H3 1_555 1_555
C5 C3 1_555 1_555
H4 C5 1_555 1_555
C6 C7 1_555 1_555
C7 H5 1_555 1_555
H6 C7 1_555 1_555
C8 C9 1_555 1_555
C9 H7 1_555 1_555
C10 C8 1_555 1_555
H8 C10 1_555 1_555
C11 O7 1_555 1_555
O1 C1 1_555 1_555
O2 C1 1_555 1_555
O3 Tb1 1_555 1_555
O4 Tb1 1_555 1_555
O5 C6 1_555 1_555
O6 C7 1_555 1_555
O7 Tb1 1_555 1_555
O8 C11 1_555 1_555
O9 Tb1 1_555 1_555
H9 O9 1_555 1_555
Tb1A O1A 1_555 1_555
Tb1_2 O2 1_555 1_555
Tb1A_2 O5 1_555 1_555
Tb1A_3 O8 1_555 1_555
Tb1A_4 O9 1_555 1_555
Tb1A_5 O2A 1_555 1_555
Tb1A_6 O4A 1_555 1_555
Tb1_3 O5A 1_555 1_555
C1A C2A 1_555 1_555
C2A H1A 1_555 1_555
H2A C2A 1_555 1_555
C3A C4A 1_555 1_555
C4A C5 1_555 1_555
H3A C4A 1_555 1_555
C5A C4 1_555 1_555
H4A C5A 1_555 1_555
C6A C7A 1_555 1_555
C7A H5A 1_555 1_555
H6A C7A 1_555 1_555
C8A C9A 1_555 1_555
C9A C10 1_555 1_555
H7A C9A 1_555 1_555
C10A C9 1_555 1_555
H8A C10A 1_555 1_555
C11A C11 1_555 1_555
O1A C1A 1_555 1_555
O2A C1A 1_555 1_555
O2_2 Tb1 1_555 1_555
O2A_2 Tb1A 1_555 1_555
O3A Tb1A 1_555 1_555
O4A C6A 1_555 1_555
O4A_2 Tb1A 1_555 1_555
O5A C6A 1_555 1_555
O5A_2 Tb1 1_555 1_555
O5_2 Tb1A 1_555 1_555
O6A C7A 1_555 1_555
O7A Tb1A_3 1_555 1_555
O7A_2 Tb1A 1_555 1_555
O8A Tb1 1_555 1_555
O8_2 Tb1A 1_555 1_555
O9_2 Tb1A 1_555 1_555
H9A O9 1_555 1_555
H9A_2 O9_2 1_555 1_555
H9_2 O9_2 1_555 1_555
C2 O3 1_555 1_555
C3 O3 1_555 1_555
C6 O4 1_555 1_555
C8 O6 1_555 1_555
C2A O3A 1_555 1_555
C3A C5A 1_555 1_555
C3A O3A 1_555 1_555
C8A C10A 1_555 1_555
C8A O6A 1_555 1_555
C11A O7A 1_555 1_555
C11A O8A 1_555 1_555

#END
