
#######################################################################
#
#                 Cambridge Crystallographic Data Centre
#                                CCDC 
#
#######################################################################
#
# If this CIF has been generated from an entry in the Cambridge 
# Structural Database, then it will include bibliographic, chemical, 
# crystal, experimental, refinement or atomic coordinate data resulting 
# from the CCDC's data processing and validation procedures.
#
#######################################################################

data_DOZBIE
_symmetry_cell_setting           monoclinic
_symmetry_space_group_name_H-M   'P 21/c'
_symmetry_Int_Tables_number      14
_space_group_name_Hall           '-P 2ybc'
loop_
_symmetry_equiv_pos_site_id
_symmetry_equiv_pos_as_xyz
1 x,y,z
2 -x,1/2+y,1/2-z
3 -x,-y,-z
4 x,1/2-y,1/2+z
_cell_length_a                   12.3706(16)
_cell_length_b                   6.6261(8)
_cell_length_c                   11.6005(15)
_cell_angle_alpha                90
_cell_angle_beta                 95.530(2)
_cell_angle_gamma                90
_cell_volume                     946.454
loop_
_atom_site_label
_atom_site_type_symbol
_atom_site_fract_x
_atom_site_fract_y
_atom_site_fract_z
Tb1 Tb 0.306661(13) 0.00700(2) 0.662258(14)
O1 O 0.2859(2) -0.6559(4) 0.7123(2)
O2 O 0.1794(2) -0.2335(4) 0.5596(2)
O3 O 0.1220(2) 0.0507(5) 0.7182(3)
H1 H 0.0806 -0.0255 0.6798
C1 C 0.1372(3) 0.0351(6) 0.4272(3)
O4 O 0.4431(2) 0.2035(4) 0.5680(2)
O5 O 0.3033(3) 0.0182(4) 0.8787(3)
H2 H 0.2770 0.1256 0.8973
O6 O 0.4836(3) -0.0222(5) 0.7625(3)
H3 H 0.4844 -0.1156 0.8089
O7 O 0.2156(2) 0.1220(4) 0.4844(2)
O8 O 0.3104(2) -0.3279(4) 0.7350(2)
O9 O 0.0762(2) 0.1146(4) 0.3478(2)
O10 O 0.5927(2) 0.1891(4) 0.4731(2)
C2 C 0.1146(3) -0.1829(5) 0.4562(3)
H4 H 0.0383 -0.2001 0.4668
H5 H 0.1321 -0.2703 0.3936
C3 C 0.5106(3) 0.1138(6) 0.5116(3)
C4 C 0.1670(3) -0.4346(6) 0.5990(3)
H6 H 0.1670 -0.5284 0.5349
H7 H 0.0989 -0.4485 0.6333
C5 C 0.2617(3) -0.4780(5) 0.6884(3)
H8 H 0.116(4) 0.147(8) 0.761(4)
H9 H 0.334(7) -0.057(12) 0.941(7)
H10 H 0.529(6) 0.038(10) 0.757(6)
Tb1B Tb 0.693339(13) -0.00700(2) 0.337742(14)
Tb1_2 Tb 0.306661(13) -0.99300(2) 0.662258(14)
Tb1B_2 Tb 0.693339(13) 0.99300(2) 0.337742(14)
O1B O 0.7141(2) 0.6559(4) 0.2877(2)
O1_2 O 0.2859(2) 0.3441(4) 0.7123(2)
O1B_2 O 0.7141(2) -0.3441(4) 0.2877(2)
O2B O 0.8206(2) 0.2335(4) 0.4404(2)
O3B O 0.8780(2) -0.0507(5) 0.2818(3)
H1B H 0.9194 0.0255 0.3202
C1B C 0.8628(3) -0.0351(6) 0.5728(3)
O4B O 0.5569(2) -0.2035(4) 0.4320(2)
O5B O 0.6967(3) -0.0182(4) 0.1213(3)
H2B H 0.7230 -0.1256 0.1027
O6B O 0.5164(3) 0.0222(5) 0.2375(3)
H3B H 0.5156 0.1156 0.1911
O7B O 0.7844(2) -0.1220(4) 0.5156(2)
O8B O 0.6896(2) 0.3279(4) 0.2650(2)
O9B O 0.9238(2) -0.1146(4) 0.6522(2)
O10B O 0.4073(2) -0.1891(4) 0.5269(2)
C2B C 0.8854(3) 0.1829(5) 0.5438(3)
H4B H 0.9617 0.2001 0.5332
H5B H 0.8679 0.2703 0.6064
C3B C 0.4894(3) -0.1138(6) 0.4884(3)
C4B C 0.8330(3) 0.4346(6) 0.4010(3)
H6B H 0.8330 0.5284 0.4651
H7B H 0.9011 0.4485 0.3667
C5B C 0.7383(3) 0.4780(5) 0.3116(3)
H8B H 0.884(4) -0.147(8) 0.239(4)
H9B H 0.666(7) 0.057(12) 0.059(7)
H10B H 0.471(6) -0.038(10) 0.243(6)
loop_
_geom_bond_atom_site_label_1
_geom_bond_atom_site_label_2
_geom_bond_site_symmetry_1
_geom_bond_site_symmetry_2
Tb1 O2 1_555 1_555
O1 C5 1_555 1_555
O2 C2 1_555 1_555
O3 Tb1 1_555 1_555
H1 O3 1_555 1_555
C1 O7 1_555 1_555
O4 Tb1 1_555 1_555
O5 Tb1 1_555 1_555
H2 O5 1_555 1_555
O6 Tb1 1_555 1_555
H3 O6 1_555 1_555
O7 Tb1 1_555 1_555
O8 Tb1 1_555 1_555
O9 C1 1_555 1_555
O10 C3 1_555 1_555
C2 C1 1_555 1_555
H4 C2 1_555 1_555
H5 C2 1_555 1_555
C3 O4 1_555 1_555
C4 O2 1_555 1_555
H6 C4 1_555 1_555
H7 C4 1_555 1_555
C5 O8 1_555 1_555
H8 O3 1_555 1_555
H9 O5 1_555 1_555
H10 O6 1_555 1_555
Tb1B O10 1_555 1_555
Tb1_2 O1 1_555 1_555
Tb1B_2 O1B 1_555 1_555
O1B C5B 1_555 1_555
O1_2 Tb1 1_555 1_555
O1B_2 Tb1B 1_555 1_555
O2B Tb1B 1_555 1_555
O3B Tb1B 1_555 1_555
H1B O3B 1_555 1_555
C1B O7B 1_555 1_555
O4B Tb1B 1_555 1_555
O5B Tb1B 1_555 1_555
H2B O5B 1_555 1_555
O6B Tb1B 1_555 1_555
H3B O6B 1_555 1_555
O7B Tb1B 1_555 1_555
O8B Tb1B 1_555 1_555
O9B C1B 1_555 1_555
O10B Tb1 1_555 1_555
C2B O2B 1_555 1_555
H4B C2B 1_555 1_555
H5B C2B 1_555 1_555
C3B C3 1_555 1_555
C4B O2B 1_555 1_555
H6B C4B 1_555 1_555
H7B C4B 1_555 1_555
C5B O8B 1_555 1_555
H8B O3B 1_555 1_555
H9B O5B 1_555 1_555
H10B O6B 1_555 1_555
C4 C5 1_555 1_555
C1B C2B 1_555 1_555
O4B C3B 1_555 1_555
O10B C3B 1_555 1_555
C4B C5B 1_555 1_555

#END
