
#######################################################################
#
#                 Cambridge Crystallographic Data Centre
#                                CCDC 
#
#######################################################################
#
# If this CIF has been generated from an entry in the Cambridge 
# Structural Database, then it will include bibliographic, chemical, 
# crystal, experimental, refinement or atomic coordinate data resulting 
# from the CCDC's data processing and validation procedures.
#
#######################################################################

data_DOZBEA
_symmetry_cell_setting           monoclinic
_symmetry_space_group_name_H-M   'P 21/c'
_symmetry_Int_Tables_number      14
_space_group_name_Hall           '-P 2ybc'
loop_
_symmetry_equiv_pos_site_id
_symmetry_equiv_pos_as_xyz
1 x,y,z
2 -x,1/2+y,1/2-z
3 -x,-y,-z
4 x,1/2-y,1/2+z
_cell_length_a                   12.6041(13)
_cell_length_b                   6.8303(7)
_cell_length_c                   11.6920(12)
_cell_angle_alpha                90
_cell_angle_beta                 95.5080(10)
_cell_angle_gamma                90
_cell_volume                     1001.91
loop_
_atom_site_label
_atom_site_type_symbol
_atom_site_fract_x
_atom_site_fract_y
_atom_site_fract_z
Ce1 Ce -0.305240(10) 0.012780(17) -0.167240(11)
O1 O -0.17464(13) -0.2289(2) -0.06130(15)
O2 O -0.27883(14) -0.6453(2) -0.20748(17)
C1 C -0.2561(2) -0.4709(3) -0.1870(2)
O3 O -0.48963(18) -0.0224(3) -0.2675(2)
H1 H -0.4907 -0.1136 -0.3131
O4 O -0.44448(14) 0.2005(2) -0.06639(16)
O5 O -0.07331(13) 0.1025(3) 0.15427(15)
O6 O -0.11855(15) 0.0561(3) -0.2306(2)
H2 H -0.0764 -0.0127 -0.1907
O7 O -0.30643(14) -0.3284(2) -0.23544(15)
O8 O -0.20758(14) 0.1196(3) 0.01590(15)
C2 C -0.1328(2) 0.0305(4) 0.0733(2)
O9 O -0.40800(14) -0.1823(3) -0.02558(16)
O10 O -0.3086(2) 0.0270(4) -0.3890(2)
H3 H -0.2794 0.1278 -0.4077
C3 C -0.1126(2) -0.1821(4) 0.0430(2)
H4 H -0.0376 -0.2014 0.0343
H5 H -0.1321 -0.2670 0.1041
C4 C -0.51085(18) 0.1107(4) -0.0112(2)
C5 C -0.1632(2) -0.4250(4) -0.0989(2)
H6 H -0.1629 -0.5141 -0.0342
H7 H -0.0964 -0.4399 -0.1329
H8 H -0.106(2) 0.154(5) -0.264(3)
H9 H -0.345(6) -0.007(8) -0.437(6)
H10 H -0.541(3) 0.032(5) -0.261(3)
Ce1B Ce -0.694760(10) -0.012780(17) 0.167240(11)
Ce1_2 Ce -0.305240(10) -0.987220(17) -0.167240(11)
Ce1B_2 Ce -0.694760(10) 0.987220(17) 0.167240(11)
O1B O -0.82536(13) 0.2289(2) 0.06130(15)
O2_2 O -0.27883(14) 0.3547(2) -0.20748(17)
O2B O -0.72117(14) -0.3547(2) 0.20748(17)
O2B_2 O -0.72117(14) 0.6453(2) 0.20748(17)
C1B C -0.7439(2) 0.4709(3) 0.1870(2)
O3B O -0.51037(18) 0.0224(3) 0.2675(2)
H1B H -0.5093 0.1136 0.3131
O4B O -0.55552(14) -0.2005(2) 0.06639(16)
O5B O -0.92669(13) -0.1025(3) -0.15427(15)
O6B O -0.88145(15) -0.0561(3) 0.2306(2)
H2B H -0.9236 0.0127 0.1907
O7B O -0.69357(14) 0.3284(2) 0.23544(15)
O8B O -0.79242(14) -0.1196(3) -0.01590(15)
C2B C -0.8672(2) -0.0305(4) -0.0733(2)
O9B O -0.59200(14) 0.1823(3) 0.02558(16)
O10B O -0.6914(2) -0.0270(4) 0.3890(2)
H3B H -0.7206 -0.1278 0.4077
C3B C -0.8874(2) 0.1821(4) -0.0430(2)
H4B H -0.9624 0.2014 -0.0343
H5B H -0.8679 0.2670 -0.1041
C4B C -0.48915(18) -0.1107(4) 0.0112(2)
C5B C -0.8368(2) 0.4250(4) 0.0989(2)
H6B H -0.8371 0.5141 0.0342
H7B H -0.9036 0.4399 0.1329
H8B H -0.894(2) -0.154(5) 0.264(3)
H9B H -0.655(6) 0.007(8) 0.437(6)
H10B H -0.459(3) -0.032(5) 0.261(3)
loop_
_geom_bond_atom_site_label_1
_geom_bond_atom_site_label_2
_geom_bond_site_symmetry_1
_geom_bond_site_symmetry_2
Ce1 O1 1_555 1_555
O1 C3 1_555 1_555
O2 C1 1_555 1_555
C1 O7 1_555 1_555
O3 Ce1 1_555 1_555
H1 O3 1_555 1_555
O4 Ce1 1_555 1_555
O5 C2 1_555 1_555
O6 Ce1 1_555 1_555
H2 O6 1_555 1_555
O7 Ce1 1_555 1_555
O8 Ce1 1_555 1_555
C2 O8 1_555 1_555
O9 Ce1 1_555 1_555
O10 Ce1 1_555 1_555
H3 O10 1_555 1_555
C3 C2 1_555 1_555
H4 C3 1_555 1_555
H5 C3 1_555 1_555
C4 O4 1_555 1_555
C5 O1 1_555 1_555
H6 C5 1_555 1_555
H7 C5 1_555 1_555
H8 O6 1_555 1_555
H9 O10 1_555 1_555
H10 O3 1_555 1_555
Ce1B O1B 1_555 1_555
Ce1_2 O2 1_555 1_555
Ce1B_2 O2B_2 1_555 1_555
O1B C3B 1_555 1_555
O2_2 Ce1 1_555 1_555
O2B Ce1B 1_555 1_555
O2B_2 C1B 1_555 1_555
C1B O7B 1_555 1_555
O3B Ce1B 1_555 1_555
H1B O3B 1_555 1_555
O4B Ce1B 1_555 1_555
O5B C2B 1_555 1_555
O6B Ce1B 1_555 1_555
H2B O6B 1_555 1_555
O7B Ce1B 1_555 1_555
O8B Ce1B 1_555 1_555
C2B O8B 1_555 1_555
O9B C4 1_555 1_555
O10B Ce1B 1_555 1_555
H3B O10B 1_555 1_555
C3B C2B 1_555 1_555
H4B C3B 1_555 1_555
H5B C3B 1_555 1_555
C4B O9 1_555 1_555
C5B O1B 1_555 1_555
H6B C5B 1_555 1_555
H7B C5B 1_555 1_555
H8B O6B 1_555 1_555
H9B O10B 1_555 1_555
H10B O3B 1_555 1_555
C1 C5 1_555 1_555
C4 C4B 1_555 1_555
Ce1B O9B 1_555 1_555
C1B C5B 1_555 1_555
O4B C4B 1_555 1_555

#END
