
#######################################################################
#
#                 Cambridge Crystallographic Data Centre
#                                CCDC 
#
#######################################################################
#
# If this CIF has been generated from an entry in the Cambridge 
# Structural Database, then it will include bibliographic, chemical, 
# crystal, experimental, refinement or atomic coordinate data resulting 
# from the CCDC's data processing and validation procedures.
#
#######################################################################

data_DOZBOK
_symmetry_cell_setting           monoclinic
_symmetry_space_group_name_H-M   'P 21/c'
_symmetry_Int_Tables_number      14
_space_group_name_Hall           '-P 2ybc'
loop_
_symmetry_equiv_pos_site_id
_symmetry_equiv_pos_as_xyz
1 x,y,z
2 -x,1/2+y,1/2-z
3 -x,-y,-z
4 x,1/2-y,1/2+z
_cell_length_a                   11.6810(16)
_cell_length_b                   6.5919(9)
_cell_length_c                   11.8163(16)
_cell_angle_alpha                90
_cell_angle_beta                 96.674(2)
_cell_angle_gamma                90
_cell_volume                     903.689
loop_
_atom_site_label
_atom_site_type_symbol
_atom_site_fract_x
_atom_site_fract_y
_atom_site_fract_z
Er1 Er -0.304110(12) 0.01687(2) -0.156670(12)
C1 C -0.2728(3) -0.4681(5) -0.1870(3)
O1 O -0.2994(2) -0.6455(4) -0.2168(2)
O2 O -0.3095(2) -0.3100(4) -0.2391(2)
O3 O -0.4368(3) 0.0222(4) -0.3149(3)
H1 H -0.4574 -0.0941 -0.3315
O4 O -0.1359(2) 0.0470(4) -0.2415(2)
H2 H -0.1311 0.1622 -0.2667
O5 O -0.17446(19) -0.2287(3) -0.05836(18)
C2 C -0.1320(3) 0.0368(5) 0.0759(3)
O6 O -0.4522(2) 0.2022(4) -0.0757(2)
O7 O -0.0715(2) 0.1114(4) 0.1600(2)
O8 O -0.2048(2) 0.1326(4) 0.01018(19)
C3 C -0.1171(3) -0.1855(5) 0.0519(3)
H3 H -0.0358 -0.2180 0.0547
H4 H -0.1497 -0.2666 0.1087
O9 O -0.4167(2) -0.1927(4) -0.0477(2)
C4 C -0.1906(4) -0.4401(6) -0.0800(3)
H5 H -0.2216 -0.5041 -0.0162
H6 H -0.1172 -0.5033 -0.0891
C5 C -0.5103(2) 0.1135(6) -0.0082(2)
H7 H -0.051(6) -0.004(7) -0.213(6)
H8 H -0.468(6) 0.141(12) -0.341(6)
Er1B Er -0.695890(12) -0.01687(2) 0.156670(12)
Er1_2 Er -0.304110(12) -0.98313(2) -0.156670(12)
Er1B_2 Er -0.695890(12) 0.98313(2) 0.156670(12)
C1B C -0.7272(3) 0.4681(5) 0.1870(3)
O1_2 O -0.2994(2) 0.3545(4) -0.2168(2)
O1B O -0.7006(2) -0.3545(4) 0.2168(2)
O1B_2 O -0.7006(2) 0.6455(4) 0.2168(2)
O2B O -0.6905(2) 0.3100(4) 0.2391(2)
O3B O -0.5632(3) -0.0222(4) 0.3149(3)
H1B H -0.5426 0.0941 0.3315
O4B O -0.8641(2) -0.0470(4) 0.2415(2)
H2B H -0.8689 -0.1622 0.2667
O5B O -0.82554(19) 0.2287(3) 0.05836(18)
C2B C -0.8680(3) -0.0368(5) -0.0759(3)
O6B O -0.5478(2) -0.2022(4) 0.0757(2)
O7B O -0.9285(2) -0.1114(4) -0.1600(2)
O8B O -0.7952(2) -0.1326(4) -0.01018(19)
C3B C -0.8829(3) 0.1855(5) -0.0519(3)
H3B H -0.9642 0.2180 -0.0547
H4B H -0.8503 0.2666 -0.1087
O9B O -0.5833(2) 0.1927(4) 0.0477(2)
C4B C -0.8094(4) 0.4401(6) 0.0800(3)
H5B H -0.7784 0.5041 0.0162
H6B H -0.8828 0.5033 0.0891
C5B C -0.4897(2) -0.1135(6) 0.0082(2)
H7B H -0.949(6) 0.004(7) 0.213(6)
H8B H -0.532(6) -0.141(12) 0.341(6)
loop_
_geom_bond_atom_site_label_1
_geom_bond_atom_site_label_2
_geom_bond_site_symmetry_1
_geom_bond_site_symmetry_2
Er1 O2 1_555 1_555
C1 O1 1_555 1_555
O1 Er1_2 1_555 1_555
O2 C1 1_555 1_555
O3 Er1 1_555 1_555
H1 O3 1_555 1_555
O4 Er1 1_555 1_555
H2 O4 1_555 1_555
O5 Er1 1_555 1_555
C2 O7 1_555 1_555
O6 Er1 1_555 1_555
O8 Er1 1_555 1_555
C3 O5 1_555 1_555
H3 C3 1_555 1_555
H4 C3 1_555 1_555
O9 Er1 1_555 1_555
C4 C1 1_555 1_555
H5 C4 1_555 1_555
H6 C4 1_555 1_555
C5 O6 1_555 1_555
H7 O4 1_555 1_555
H8 O3 1_555 1_555
Er1B O1B 1_555 1_555
Er1B_2 O1B_2 1_555 1_555
C1B O1B_2 1_555 1_555
O1_2 Er1 1_555 1_555
O2B Er1B 1_555 1_555
O3B Er1B 1_555 1_555
H1B O3B 1_555 1_555
O4B Er1B 1_555 1_555
H2B O4B 1_555 1_555
O5B Er1B 1_555 1_555
C2B O7B 1_555 1_555
O6B Er1B 1_555 1_555
O8B Er1B 1_555 1_555
C3B O5B 1_555 1_555
H3B C3B 1_555 1_555
H4B C3B 1_555 1_555
O9B C5 1_555 1_555
C4B C1B 1_555 1_555
H5B C4B 1_555 1_555
H6B C4B 1_555 1_555
C5B O9 1_555 1_555
H7B O4B 1_555 1_555
H8B O3B 1_555 1_555
O5 C4 1_555 1_555
C2 O8 1_555 1_555
C2 C3 1_555 1_555
C5 C5B 1_555 1_555
Er1B O9B 1_555 1_555
C1B O2B 1_555 1_555
O5B C4B 1_555 1_555
C2B O8B 1_555 1_555
C2B C3B 1_555 1_555
O6B C5B 1_555 1_555

#END
