
#######################################################################
#
#                 Cambridge Crystallographic Data Centre
#                                CCDC 
#
#######################################################################
#
# If this CIF has been generated from an entry in the Cambridge 
# Structural Database, then it will include bibliographic, chemical, 
# crystal, experimental, refinement or atomic coordinate data resulting 
# from the CCDC's data processing and validation procedures.
#
#######################################################################

data_DOZBAW
_symmetry_cell_setting           monoclinic
_symmetry_space_group_name_H-M   'P 21/c'
_symmetry_Int_Tables_number      14
_space_group_name_Hall           '-P 2ybc'
loop_
_symmetry_equiv_pos_site_id
_symmetry_equiv_pos_as_xyz
1 x,y,z
2 -x,1/2+y,1/2-z
3 -x,-y,-z
4 x,1/2-y,1/2+z
_cell_length_a                   12.5661(14)
_cell_length_b                   6.7919(7)
_cell_length_c                   11.6841(13)
_cell_angle_alpha                90
_cell_angle_beta                 95.435(2)
_cell_angle_gamma                90
_cell_volume                     992.728
loop_
_atom_site_label
_atom_site_type_symbol
_atom_site_fract_x
_atom_site_fract_y
_atom_site_fract_z
Pr1 Pr 0.194332(9) 0.488683(16) 0.333683(10)
C1 C 0.2431(2) 0.9729(3) 0.3125(2)
O1 O 0.05581(13) 0.2993(2) 0.43316(14)
O2 O 0.32415(13) 0.7297(2) 0.43896(14)
O3 O 0.22001(14) 1.1477(2) 0.29127(15)
O4 O 0.01134(18) 0.5227(3) 0.2338(2)
H1 H 0.0104 0.6136 0.1876
O5 O 0.38103(15) 0.4451(3) 0.27213(19)
H2 H 0.4228 0.5161 0.3114
C2 C -0.01089(17) 0.3884(4) 0.48859(18)
O6 O 0.42576(13) 0.3948(3) 0.65328(15)
O7 O 0.19273(14) 0.8288(2) 0.26466(14)
C3 C 0.3659(2) 0.4685(4) 0.5729(2)
O8 O 0.29036(14) 0.3799(3) 0.51600(14)
O9 O -0.09209(14) 0.3161(3) 0.52556(15)
O10 O 0.1927(2) 0.4742(3) 0.11328(19)
H3 H 0.2214 0.3721 0.0948
C4 C 0.3866(2) 0.6820(4) 0.5425(2)
H4 H 0.3678 0.7677 0.6039
H5 H 0.4618 0.7006 0.5330
C5 C 0.3361(2) 0.9267(4) 0.4005(2)
H6 H 0.4031 0.9407 0.3663
H7 H 0.3366 1.0171 0.4649
H8 H 0.395(3) 0.349(5) 0.237(3)
H9 H -0.040(4) 0.470(5) 0.242(4)
H10 H 0.168(5) 0.521(7) 0.064(5)
Pr1B Pr -0.194332(9) 0.511317(16) 0.666317(10)
Pr1_2 Pr 0.194332(9) 1.488683(16) 0.333683(10)
Pr1B_2 Pr -0.194332(9) -0.488683(16) 0.666317(10)
C1B C -0.2431(2) 0.0271(3) 0.6875(2)
O1B O -0.05581(13) 0.7007(2) 0.56684(14)
O2B O -0.32415(13) 0.2703(2) 0.56104(14)
O3B O -0.22001(14) -0.1477(2) 0.70873(15)
O3_2 O 0.22001(14) 0.1477(2) 0.29127(15)
O3B_2 O -0.22001(14) 0.8523(2) 0.70873(15)
O4B O -0.01134(18) 0.4773(3) 0.7662(2)
H1B H -0.0104 0.3864 0.8124
O5B O -0.38103(15) 0.5549(3) 0.72787(19)
H2B H -0.4228 0.4839 0.6886
C2B C 0.01089(17) 0.6116(4) 0.51141(18)
O6B O -0.42576(13) 0.6052(3) 0.34672(15)
O7B O -0.19273(14) 0.1712(2) 0.73534(14)
C3B C -0.3659(2) 0.5315(4) 0.4271(2)
O8B O -0.29036(14) 0.6201(3) 0.48400(14)
O9B O 0.09209(14) 0.6839(3) 0.47444(15)
O10B O -0.1927(2) 0.5258(3) 0.88672(19)
H3B H -0.2214 0.6279 0.9052
C4B C -0.3866(2) 0.3180(4) 0.4575(2)
H4B H -0.3678 0.2323 0.3961
H5B H -0.4618 0.2994 0.4670
C5B C -0.3361(2) 0.0733(4) 0.5995(2)
H6B H -0.4031 0.0593 0.6337
H7B H -0.3366 -0.0171 0.5351
H8B H -0.395(3) 0.651(5) 0.763(3)
H9B H 0.040(4) 0.530(5) 0.758(4)
H10B H -0.168(5) 0.479(7) 0.936(5)
loop_
_geom_bond_atom_site_label_1
_geom_bond_atom_site_label_2
_geom_bond_site_symmetry_1
_geom_bond_site_symmetry_2
Pr1 O1 1_555 1_555
C1 O3 1_555 1_555
O1 C2 1_555 1_555
O2 Pr1 1_555 1_555
O3 Pr1_2 1_555 1_555
O4 Pr1 1_555 1_555
H1 O4 1_555 1_555
O5 Pr1 1_555 1_555
H2 O5 1_555 1_555
C2 O9 1_555 1_555
O6 C3 1_555 1_555
O7 Pr1 1_555 1_555
C3 O8 1_555 1_555
O8 Pr1 1_555 1_555
O9 Pr1B 1_555 1_555
O10 Pr1 1_555 1_555
H3 O10 1_555 1_555
C4 O2 1_555 1_555
H4 C4 1_555 1_555
H5 C4 1_555 1_555
C5 C1 1_555 1_555
H6 C5 1_555 1_555
H7 C5 1_555 1_555
H8 O5 1_555 1_555
H9 O4 1_555 1_555
H10 O10 1_555 1_555
Pr1B O1B 1_555 1_555
Pr1B_2 O3B 1_555 1_555
C1B O3B 1_555 1_555
O1B C2B 1_555 1_555
O2B Pr1B 1_555 1_555
O3_2 Pr1 1_555 1_555
O3B_2 Pr1B 1_555 1_555
O4B Pr1B 1_555 1_555
H1B O4B 1_555 1_555
O5B Pr1B 1_555 1_555
H2B O5B 1_555 1_555
C2B C2 1_555 1_555
O6B C3B 1_555 1_555
O7B Pr1B 1_555 1_555
C3B O8B 1_555 1_555
O8B Pr1B 1_555 1_555
O9B Pr1 1_555 1_555
O10B Pr1B 1_555 1_555
H3B O10B 1_555 1_555
C4B O2B 1_555 1_555
H4B C4B 1_555 1_555
H5B C4B 1_555 1_555
C5B C1B 1_555 1_555
H6B C5B 1_555 1_555
H7B C5B 1_555 1_555
H8B O5B 1_555 1_555
H9B O4B 1_555 1_555
H10B O10B 1_555 1_555
C1 O7 1_555 1_555
O2 C5 1_555 1_555
C3 C4 1_555 1_555
C1B O7B 1_555 1_555
O2B C5B 1_555 1_555
C2B O9B 1_555 1_555
C3B C4B 1_555 1_555

#END
