
#######################################################################
#
#                 Cambridge Crystallographic Data Centre
#                                CCDC 
#
#######################################################################
#
# If this CIF has been generated from an entry in the Cambridge 
# Structural Database, then it will include bibliographic, chemical, 
# crystal, experimental, refinement or atomic coordinate data resulting 
# from the CCDC's data processing and validation procedures.
#
#######################################################################

data_DOZBEB
_symmetry_cell_setting           tetragonal
_symmetry_space_group_name_H-M   'I -4'
_symmetry_Int_Tables_number      82
_space_group_name_Hall           'I -4'
loop_
_symmetry_equiv_pos_site_id
_symmetry_equiv_pos_as_xyz
1 x,y,z
2 y,-x,-z
3 -x,-y,z
4 -y,x,-z
5 1/2+x,1/2+y,1/2+z
6 1/2+y,1/2-x,1/2-z
7 1/2-x,1/2-y,1/2+z
8 1/2-y,1/2+x,1/2-z
_cell_length_a                   19.0364(14)
_cell_length_b                   19.0364(14)
_cell_length_c                   8.3437(12)
_cell_angle_alpha                90
_cell_angle_beta                 90
_cell_angle_gamma                90
_cell_volume                     3023.63
loop_
_atom_site_label
_atom_site_type_symbol
_atom_site_fract_x
_atom_site_fract_y
_atom_site_fract_z
Gd1 Gd 0.059014(7) 0.080745(7) 0.837081(16)
O1 O 0.13571(10) 0.01853(10) 0.6497(3)
O2 O 0.10217(11) 0.00837(10) 0.3955(2)
O3 O 0.17216(11) 0.09466(11) 0.9439(3)
O4 O 0.18646(11) -0.00737(11) 1.0695(3)
O5 O 0.05740(9) -0.04177(10) 0.8846(2)
H1 H 0.0914 -0.0666 0.8170
N1 N 0.17515(12) -0.11018(13) 0.3605(3)
N2 N 0.25197(15) -0.16514(16) 0.6137(4)
C1 C 0.17714(14) -0.07792(14) 0.5018(4)
C2 C 0.21212(15) -0.16911(16) 0.3446(5)
H2 H 0.2124 -0.1926 0.2468
C3 C 0.24993(18) -0.19559(18) 0.4716(5)
H3 H 0.2752 -0.2369 0.4566
C4 C 0.21557(17) -0.10547(19) 0.6280(4)
H4 H 0.2160 -0.0818 0.7254
C5 C 0.13470(14) -0.01170(14) 0.5179(4)
C6 C 0.28547(17) 0.06661(18) 1.0338(5)
C7 C 0.31081(17) 0.08613(16) 1.1846(5)
C8 C 0.26744(19) 0.08913(18) 1.3216(5)
H5 H 0.2202 0.0771 1.3139
C9 C 0.2948(2) 0.1097(2) 1.4655(6)
H6 H 0.2661 0.1099 1.5557
C10 C 0.3629(3) 0.1299(2) 1.4798(7)
H7 H 0.3801 0.1449 1.5783
C11 C 0.4053(2) 0.1282(2) 1.3516(8)
H8 H 0.4516 0.1428 1.3635
C12 C 0.38260(19) 0.1053(2) 1.1994(6)
C13 C 0.4271(2) 0.1011(3) 1.0681(6)
H9 H 0.4744 0.1125 1.0792
C14 C 0.4018(2) 0.0802(3) 0.9224(6)
H10 H 0.4319 0.0771 0.8349
C15 C 0.32934(18) 0.0630(2) 0.9042(5)
H11 H 0.3120 0.0494 0.8047
C16 C 0.20843(16) 0.04945(16) 1.0152(4)
Gd1A Gd 0.080745(7) -0.059014(7) 0.162919(16)
Gd1A_2 Gd 0.080745(7) -0.059014(7) 1.162919(16)
Gd1B Gd -0.059014(7) -0.080745(7) 0.837081(16)
O2C O -0.00837(10) 0.10217(11) 0.6045(2)
O4C O 0.00737(11) 0.18646(11) 0.9305(3)
O5B O -0.05740(9) 0.04177(10) 0.8846(2)
O5C O 0.04177(10) 0.05740(9) 1.1154(2)
N1C N 0.11018(13) 0.17515(12) 0.6395(3)
loop_
_geom_bond_atom_site_label_1
_geom_bond_atom_site_label_2
_geom_bond_site_symmetry_1
_geom_bond_site_symmetry_2
Gd1 O1 1_555 1_555
O1 C5 1_555 1_555
O2 C5 1_555 1_555
O3 Gd1 1_555 1_555
O4 C16 1_555 1_555
O5 Gd1 1_555 1_555
H1 O5 1_555 1_555
N1 C1 1_555 1_555
N2 C3 1_555 1_555
C1 C4 1_555 1_555
C2 N1 1_555 1_555
H2 C2 1_555 1_555
C3 C2 1_555 1_555
H3 C3 1_555 1_555
C4 N2 1_555 1_555
H4 C4 1_555 1_555
C5 C1 1_555 1_555
C6 C7 1_555 1_555
C7 C8 1_555 1_555
C8 H5 1_555 1_555
C9 C8 1_555 1_555
H6 C9 1_555 1_555
C10 C9 1_555 1_555
H7 C10 1_555 1_555
C11 C10 1_555 1_555
H8 C11 1_555 1_555
C12 C7 1_555 1_555
C13 C12 1_555 1_555
H9 C13 1_555 1_555
C14 C13 1_555 1_555
H10 C14 1_555 1_555
C15 C6 1_555 1_555
H11 C15 1_555 1_555
C16 O3 1_555 1_555
Gd1A O2 1_555 1_555
Gd1A_2 O4 1_555 1_555
Gd1B O5 1_555 1_555
O2C Gd1 1_555 1_555
O4C Gd1 1_555 1_555
O5B Gd1 1_555 1_555
O5C Gd1 1_555 1_555
N1C Gd1 1_555 1_555
O5 Gd1A_2 1_555 1_555
N1 Gd1A 1_555 1_555
C6 C16 1_555 1_555
C11 C12 1_555 1_555
C14 C15 1_555 1_555
Gd1A_2 O5C 1_555 1_555
Gd1B O5B 1_555 1_555

#END
