
#######################################################################
#
#                 Cambridge Crystallographic Data Centre
#                                CCDC 
#
#######################################################################
#
# If this CIF has been generated from an entry in the Cambridge 
# Structural Database, then it will include bibliographic, chemical, 
# crystal, experimental, refinement or atomic coordinate data resulting 
# from the CCDC's data processing and validation procedures.
#
#######################################################################

data_DOZBAX
_symmetry_cell_setting           tetragonal
_symmetry_space_group_name_H-M   'I -4'
_symmetry_Int_Tables_number      82
_space_group_name_Hall           'I -4'
loop_
_symmetry_equiv_pos_site_id
_symmetry_equiv_pos_as_xyz
1 x,y,z
2 y,-x,-z
3 -x,-y,z
4 -y,x,-z
5 1/2+x,1/2+y,1/2+z
6 1/2+y,1/2-x,1/2-z
7 1/2-x,1/2-y,1/2+z
8 1/2-y,1/2+x,1/2-z
_cell_length_a                   18.885(7)
_cell_length_b                   18.885(7)
_cell_length_c                   8.222(3)
_cell_angle_alpha                90
_cell_angle_beta                 90
_cell_angle_gamma                90
_cell_volume                     2932.32
loop_
_atom_site_label
_atom_site_type_symbol
_atom_site_fract_x
_atom_site_fract_y
_atom_site_fract_z
Yb1 Yb 0.078069(15) 0.442427(15) 0.58777(3)
N1 N 0.1716(3) 0.3892(3) 0.4010(10)
N2 N 0.2535(4) 0.3327(4) 0.1482(8)
O1 O 0.0913(3) 0.3312(3) 0.6901(6)
O2 O -0.0108(3) 0.3165(3) 0.8234(7)
O3 O 0.0973(3) 0.5077(3) 0.3587(6)
O4 O 0.1330(3) 0.5172(3) 0.0994(6)
O5 O -0.0417(3) 0.4433(3) 0.6365(5)
H1 H -0.0675 0.4082 0.5673
C1 C 0.0636(5) 0.2170(4) 0.7806(11)
C2 C 0.0597(5) 0.1718(5) 0.6502(11)
H2 H 0.0451 0.1895 0.5473
C3 C 0.0769(7) 0.0998(6) 0.6667(14)
H3 H 0.0735 0.0693 0.5752
C4 C 0.0990(7) 0.0729(6) 0.8154(13)
H4 H 0.1099 0.0240 0.8264
C5 C 0.1052(5) 0.1187(5) 0.9502(13)
C6 C 0.1277(6) 0.0953(6) 1.1044(16)
H5 H 0.1419 0.0473 1.1159
C7 C 0.1302(6) 0.1374(6) 1.2358(15)
H6 H 0.1465 0.1193 1.3369
C8 C 0.1085(6) 0.2086(6) 1.2226(14)
H7 H 0.1080 0.2380 1.3163
C9 C 0.0880(5) 0.2356(5) 1.0752(11)
H8 H 0.0761 0.2843 1.0662
C10 C 0.0843(4) 0.1913(5) 0.9359(11)
C11 C 0.0465(4) 0.2946(4) 0.7628(10)
C12 C 0.1747(4) 0.4206(4) 0.2554(10)
C13 C 0.2164(4) 0.3930(5) 0.1289(10)
H9 H 0.2185 0.4173 0.0279
C14 C 0.2502(5) 0.3023(5) 0.2946(10)
H10 H 0.2760 0.2598 0.3132
C15 C 0.2094(4) 0.3311(4) 0.4231(11)
H11 H 0.2093 0.3085 0.5263
C16 C 0.1319(4) 0.4879(4) 0.2343(9)
Yb1B Yb -0.078069(15) 0.557573(15) 0.58777(3)
Yb1E Yb -0.057573(15) 0.421931(15) 0.91223(3)
Yb1G Yb 0.057573(15) 0.578069(15) -0.08777(3)
O2G O 0.1835(3) 0.4892(3) 0.6766(7)
O4E O 0.0172(3) 0.3670(3) 0.4006(6)
O5B O 0.0417(3) 0.5567(3) 0.6365(5)
O5G O 0.0567(3) 0.4583(3) 0.8635(5)
loop_
_geom_bond_atom_site_label_1
_geom_bond_atom_site_label_2
_geom_bond_site_symmetry_1
_geom_bond_site_symmetry_2
Yb1 N1 1_555 1_555
N1 C12 1_555 1_555
N2 C13 1_555 1_555
O1 Yb1 1_555 1_555
O2 C11 1_555 1_555
O3 Yb1 1_555 1_555
O4 C16 1_555 1_555
O5 Yb1 1_555 1_555
H1 O5 1_555 1_555
C1 C2 1_555 1_555
C2 H2 1_555 1_555
C3 C2 1_555 1_555
H3 C3 1_555 1_555
C4 C3 1_555 1_555
H4 C4 1_555 1_555
C5 C4 1_555 1_555
C6 C5 1_555 1_555
H5 C6 1_555 1_555
C7 C6 1_555 1_555
H6 C7 1_555 1_555
C8 C7 1_555 1_555
H7 C8 1_555 1_555
C9 C8 1_555 1_555
H8 C9 1_555 1_555
C10 C1 1_555 1_555
C11 O1 1_555 1_555
C12 C13 1_555 1_555
C13 H9 1_555 1_555
C14 N2 1_555 1_555
H10 C14 1_555 1_555
C15 N1 1_555 1_555
H11 C15 1_555 1_555
C16 O3 1_555 1_555
Yb1B O5 1_555 1_555
Yb1E O2 1_555 1_555
Yb1G O4 1_555 1_555
O2G Yb1 1_555 1_555
O4E Yb1 1_555 1_555
O5B Yb1 1_555 1_555
O5G Yb1 1_555 1_555
O5 Yb1E 1_555 1_555
C1 C11 1_555 1_555
C5 C10 1_555 1_555
C9 C10 1_555 1_555
C12 C16 1_555 1_555
C14 C15 1_555 1_555
Yb1B O5B 1_555 1_555
Yb1E O5G 1_555 1_555

#END
