
#######################################################################
#
#                 Cambridge Crystallographic Data Centre
#                                CCDC 
#
#######################################################################
#
# If this CIF has been generated from an entry in the Cambridge 
# Structural Database, then it will include bibliographic, chemical, 
# crystal, experimental, refinement or atomic coordinate data resulting 
# from the CCDC's data processing and validation procedures.
#
#######################################################################

data_DOZCIE
_symmetry_cell_setting           monoclinic
_symmetry_space_group_name_H-M   'P 21/n'
_symmetry_Int_Tables_number      14
_space_group_name_Hall           '-P 2yn'
loop_
_symmetry_equiv_pos_site_id
_symmetry_equiv_pos_as_xyz
1 x,y,z
2 1/2-x,1/2+y,1/2-z
3 -x,-y,-z
4 1/2+x,1/2-y,1/2+z
_cell_length_a                   10.623(1)
_cell_length_b                   9.993(2)
_cell_length_c                   13.068(1)
_cell_angle_alpha                90
_cell_angle_beta                 112.08(1)
_cell_angle_gamma                90
_cell_volume                     1285.5
loop_
_atom_site_label
_atom_site_type_symbol
_atom_site_fract_x
_atom_site_fract_y
_atom_site_fract_z
Sn1 Sn 0.17295(2) 0.08061(2) 0.22125(2)
O1 O 0.0242(2) -0.0774(2) 0.2132(2)
O2 O 0.3133(2) 0.2726(3) 0.2426(3)
O3 O 0.0221(3) -0.2024(3) 0.4315(2)
C1 C 0.0127(4) 0.2216(4) 0.1747(4)
C2 C 0.2850(4) 0.0469(4) 0.3911(3)
C3 C 0.2330(4) 0.0080(4) 0.0943(3)
C4 C 0.0064(6) -0.2052(6) 0.5348(4)
C5 C 0.0682(3) -0.1945(3) 0.2416(3)
C6 C -0.0290(3) -0.2936(3) 0.2584(3)
C7 C -0.0506(3) -0.2962(3) 0.3568(3)
C8 C -0.1397(4) -0.3904(5) 0.3699(4)
C9 C -0.2038(4) -0.4813(4) 0.2880(4)
C10 C -0.1808(4) -0.4804(5) 0.1938(4)
C11 C -0.0927(4) -0.3859(4) 0.1752(3)
H1 H -0.1566 -0.3915 0.4386
H2 H -0.2665 -0.5469 0.2983
H3 H -0.2260 -0.5470 0.1366
H4 H -0.0773 -0.3859 0.1059
H5 H 0.00000 0.2600 0.1000
H6 H -0.0744 0.1780 0.1670
H7 H 0.0307 0.2945 0.2273
H8 H 0.2250 0.00000 0.4200
H9 H 0.3662 -0.0081 0.4047
H10 H 0.3134 0.1317 0.4332
H11 H 0.1500 -0.0400 0.0400
H12 H 0.3089 -0.0558 0.1218
H13 H 0.2587 0.0808 0.0549
H14 H 0.0500 -0.2800 0.5800
H15 H -0.0899 -0.2061 0.5248
H16 H 0.0483 -0.1228 0.5766
C5A C 0.4318(3) 0.3055(3) 0.2584(3)
O2A O 0.1867(2) -0.2274(3) 0.2574(3)
O1A O 0.4758(2) 0.4226(2) 0.2868(2)
C6A C 0.5290(3) 0.2064(3) 0.2416(3)
Sn1A Sn 0.32705(2) -0.41939(2) 0.27875(2)
Sn1A_2 Sn 0.32705(2) 0.58061(2) 0.27875(2)
C7A C 0.5506(3) 0.2038(3) 0.1432(3)
C11A C 0.5927(4) 0.1141(4) 0.3248(3)
O1A_2 O 0.4758(2) -0.5774(2) 0.2868(2)
C1A C 0.4873(4) -0.2784(4) 0.3253(4)
C2A C 0.2150(4) -0.4531(4) 0.1089(3)
C3A C 0.2670(4) -0.4920(4) 0.4057(3)
O3A O 0.4779(3) 0.2976(3) 0.0685(2)
C8A C 0.6397(4) 0.1096(5) 0.1301(4)
C10A C 0.6808(4) 0.0196(5) 0.3062(4)
H4A H 0.5773 0.1141 0.3941
H5A H 0.50000 -0.2400 0.4000
H6A H 0.5744 -0.3220 0.3330
H7A H 0.4693 -0.2055 0.2727
H8A H 0.2750 -0.50000 0.0800
H9A H 0.1338 -0.5081 0.0953
H10A H 0.1866 -0.3683 0.0668
H11A H 0.3500 -0.5400 0.4600
H12A H 0.1911 -0.5558 0.3782
H13A H 0.2413 -0.4192 0.4451
C4A C 0.4936(6) 0.2948(6) -0.0348(4)
C9A C 0.7038(4) 0.0187(4) 0.2120(4)
H1A H 0.6566 0.1085 0.0614
H3A H 0.7260 -0.0470 0.3634
H14A H 0.4500 0.2200 -0.0800
H15A H 0.5899 0.2939 -0.0248
H16A H 0.4517 0.3772 -0.0766
H2A H 0.7665 -0.0469 0.2017
loop_
_geom_bond_atom_site_label_1
_geom_bond_atom_site_label_2
_geom_bond_site_symmetry_1
_geom_bond_site_symmetry_2
Sn1 O1 1_555 1_555
O1 C5 1_555 1_555
O2 Sn1 1_555 1_555
O3 C4 1_555 1_555
C1 Sn1 1_555 1_555
C2 Sn1 1_555 1_555
C3 Sn1 1_555 1_555
C4 H14 1_555 1_555
C5 C6 1_555 1_555
C6 C7 1_555 1_555
C7 O3 1_555 1_555
C8 C7 1_555 1_555
C9 C8 1_555 1_555
C10 C9 1_555 1_555
C11 C6 1_555 1_555
H1 C8 1_555 1_555
H2 C9 1_555 1_555
H3 C10 1_555 1_555
H4 C11 1_555 1_555
H5 C1 1_555 1_555
H6 C1 1_555 1_555
H7 C1 1_555 1_555
H8 C2 1_555 1_555
H9 C2 1_555 1_555
H10 C2 1_555 1_555
H11 C3 1_555 1_555
H12 C3 1_555 1_555
H13 C3 1_555 1_555
H15 C4 1_555 1_555
H16 C4 1_555 1_555
C5A O2 1_555 1_555
O2A C5 1_555 1_555
O1A C5A 1_555 1_555
C6A C5A 1_555 1_555
Sn1A O2A 1_555 1_555
Sn1A_2 O1A 1_555 1_555
C7A C6A 1_555 1_555
C11A C6A 1_555 1_555
O1A_2 Sn1A 1_555 1_555
C1A Sn1A 1_555 1_555
C2A Sn1A 1_555 1_555
C3A Sn1A 1_555 1_555
O3A C7A 1_555 1_555
C8A C7A 1_555 1_555
C10A C11A 1_555 1_555
H4A C11A 1_555 1_555
H5A C1A 1_555 1_555
H6A C1A 1_555 1_555
H7A C1A 1_555 1_555
H8A C2A 1_555 1_555
H9A C2A 1_555 1_555
H10A C2A 1_555 1_555
H11A C3A 1_555 1_555
H12A C3A 1_555 1_555
H13A C3A 1_555 1_555
C4A O3A 1_555 1_555
C9A C8A 1_555 1_555
H1A C8A 1_555 1_555
H3A C10A 1_555 1_555
H14A C4A 1_555 1_555
H15A C4A 1_555 1_555
H16A C4A 1_555 1_555
H2A C9A 1_555 1_555
C10 C11 1_555 1_555
C10A C9A 1_555 1_555

#END
