
#######################################################################
#
#                 Cambridge Crystallographic Data Centre
#                                CCDC 
#
#######################################################################
#
# If this CIF has been generated from an entry in the Cambridge 
# Structural Database, then it will include bibliographic, chemical, 
# crystal, experimental, refinement or atomic coordinate data resulting 
# from the CCDC's data processing and validation procedures.
#
#######################################################################

data_DOZDEC
_symmetry_cell_setting           orthorhombic
_symmetry_space_group_name_H-M   'P 21 n b'
_symmetry_Int_Tables_number      33
_space_group_name_Hall           'P -2bc 2a'
loop_
_symmetry_equiv_pos_site_id
_symmetry_equiv_pos_as_xyz
1 x,y,z
2 1/2+x,-y,-z
3 x,1/2+y,1/2-z
4 1/2+x,1/2-y,1/2+z
_cell_length_a                   6.6368(13)
_cell_length_b                   8.2203(16)
_cell_length_c                   30.123(6)
_cell_angle_alpha                90
_cell_angle_beta                 90
_cell_angle_gamma                90
_cell_volume                     1643.41
loop_
_atom_site_label
_atom_site_type_symbol
_atom_site_fract_x
_atom_site_fract_y
_atom_site_fract_z
Ca1 Ca 0.2128(3) 0.01465(13) 0.41212(4)
O1 O -0.2824(19) 0.1777(5) 0.52138(16)
O2 O 0.2102(15) 0.1749(6) 0.48959(16)
H1 H 0.2542 0.1156 0.5092
H2 H 0.097(7) 0.137(12) 0.494(4)
O3 O -0.1225(12) 0.0157(8) 0.4368(3)
O4 O -0.4521(11) 0.0185(8) 0.4342(3)
N1 N -0.2862(18) 0.5354(6) 0.45762(19)
H3 H -0.2886 0.5993 0.4802
C1 C -0.2909(17) 0.3735(7) 0.4647(2)
C2 C -0.2845(17) 0.0861(7) 0.43444(18)
O5 O -0.294(2) 0.4362(6) 0.54033(17)
C3 C -0.2782(17) 0.2684(7) 0.4290(2)
C4 C 0.3650(16) -0.0201(10) 0.2538(3)
O6 O 0.1780(16) -0.2542(7) 0.38466(19)
H4 H 0.2033 -0.3193 0.4045
H5 H 0.18(3) -0.306(12) 0.361(2)
C5 C -0.273(3) 0.5049(9) 0.3815(2)
H6 H -0.2732 0.5497 0.3532
C6 C -0.268(2) 0.3363(9) 0.3866(2)
H7 H -0.2579 0.2694 0.3618
N2 N 0.4031(12) -0.0059(9) 0.3329(2)
C7 C -0.278(3) 0.6019(8) 0.4166(3)
H8 H -0.2755 0.7142 0.4131
C8 C 0.5826(15) -0.0763(12) 0.3298(3)
H9 H 0.6594 -0.0897 0.3553
C9 C 0.2900(14) 0.0251(9) 0.2960(2)
C10 C 0.5476(18) -0.0989(13) 0.2521(3)
H10 H 0.5966 -0.1317 0.2246
C11 C 0.268(2) 0.0134(12) 0.2089(3)
C12 C 0.6600(19) -0.1312(11) 0.2889(3)
H11 H 0.7818 -0.1868 0.2871
O7 O 0.3340(18) -0.0614(11) 0.1772(2)
O8 O 0.1337(15) 0.1180(9) 0.2051(2)
H12 H 0.0478 0.1034 0.2243
C13 C -0.2850(18) 0.3235(7) 0.51296(19)
O9 O 0.0293(10) 0.0781(9) 0.3454(2)
O10 O -0.0138(14) 0.1717(9) 0.2772(2)
C14 C 0.0910(15) 0.0982(10) 0.3072(3)
O11 O 0.2319(16) 0.2981(6) 0.40213(17)
H13 H 0.2612 0.3416 0.4258
H14 H 0.292(17) 0.364(11) 0.386(3)
Ca1A Ca -0.2872(3) -0.01465(13) 0.58788(4)
Ca1_2 Ca -0.7872(3) 0.01465(13) 0.41212(4)
O1A O 0.2176(19) -0.1777(5) 0.47862(16)
O4_2 O 0.5479(11) 0.0185(8) 0.4342(3)
loop_
_geom_bond_atom_site_label_1
_geom_bond_atom_site_label_2
_geom_bond_site_symmetry_1
_geom_bond_site_symmetry_2
Ca1 O2 1_555 1_555
O1 C13 1_555 1_555
O2 H1 1_555 1_555
H2 O2 1_555 1_555
O3 Ca1 1_555 1_555
O4 C2 1_555 1_555
N1 H3 1_555 1_555
C1 N1 1_555 1_555
C2 O3 1_555 1_555
O5 C13 1_555 1_555
C3 C1 1_555 1_555
C4 C9 1_555 1_555
O6 Ca1 1_555 1_555
H4 O6 1_555 1_555
H5 O6 1_555 1_555
C5 H6 1_555 1_555
C6 C3 1_555 1_555
H7 C6 1_555 1_555
N2 Ca1 1_555 1_555
C7 N1 1_555 1_555
H8 C7 1_555 1_555
C8 N2 1_555 1_555
H9 C8 1_555 1_555
C9 N2 1_555 1_555
C10 C4 1_555 1_555
H10 C10 1_555 1_555
C11 C4 1_555 1_555
C12 C8 1_555 1_555
H11 C12 1_555 1_555
O7 C11 1_555 1_555
O8 C11 1_555 1_555
H12 O8 1_555 1_555
C13 C1 1_555 1_555
O9 Ca1 1_555 1_555
O10 C14 1_555 1_555
C14 C9 1_555 1_555
O11 Ca1 1_555 1_555
H13 O11 1_555 1_555
H14 O11 1_555 1_555
Ca1A O1 1_555 1_555
Ca1_2 O4 1_555 1_555
O1A Ca1 1_555 1_555
O4_2 Ca1 1_555 1_555
C2 C3 1_555 1_555
C5 C6 1_555 1_555
C5 C7 1_555 1_555
C10 C12 1_555 1_555
O9 C14 1_555 1_555

#END
