
#######################################################################
#
#                 Cambridge Crystallographic Data Centre
#                                CCDC 
#
#######################################################################
#
# If this CIF has been generated from an entry in the Cambridge 
# Structural Database, then it will include bibliographic, chemical, 
# crystal, experimental, refinement or atomic coordinate data resulting 
# from the CCDC's data processing and validation procedures.
#
#######################################################################

data_DOZDAY
_symmetry_cell_setting           triclinic
_symmetry_space_group_name_H-M   'P -1'
_symmetry_Int_Tables_number      2
_space_group_name_Hall           '-P 1'
loop_
_symmetry_equiv_pos_site_id
_symmetry_equiv_pos_as_xyz
1 x,y,z
2 -x,-y,-z
_cell_length_a                   7.8840(16)
_cell_length_b                   10.192(2)
_cell_length_c                   13.736(3)
_cell_angle_alpha                80.41(3)
_cell_angle_beta                 87.67(3)
_cell_angle_gamma                88.43(3)
_cell_volume                     1087.18
loop_
_atom_site_label
_atom_site_type_symbol
_atom_site_fract_x
_atom_site_fract_y
_atom_site_fract_z
Ca1 Ca 1.09226(10) 0.03560(7) 0.19325(6)
Ca2 Ca 1.56871(10) 0.60055(7) 0.17950(6)
C1 C 1.0698(5) 0.3598(4) 0.1837(3)
O1 O 1.8003(4) 0.6399(3) 0.0571(2)
H1 H 1.8815 0.5912 0.0752
H2 H 1.789(8) 0.660(6) -0.0032(14)
O2 O 1.0658(4) 0.4800(3) 0.1486(2)
O3 O 1.6055(5) 0.3883(3) 0.1306(2)
C2 C 0.9252(5) 0.5569(4) 0.3153(3)
O4 O 1.1386(4) 0.2688(3) 0.1428(2)
O5 O 1.3365(4) 0.6230(3) 0.0692(2)
H3 H 1.2636 0.5690 0.0911
H4 H 1.336(7) 0.626(6) 0.0087(13)
O6 O 0.8659(4) 0.0783(4) 0.0854(2)
H5 H 0.9005 0.1193 0.0322
H6 H 0.779(5) 0.125(5) 0.089(5)
O7 O 1.5609(4) 0.1721(3) 0.1429(2)
O8 O 1.3253(4) -0.0272(3) 0.2895(2)
O9 O 0.7946(4) 0.6087(3) 0.2783(2)
O10 O 0.9292(5) -0.1141(3) 0.3068(3)
H7 H 0.8287 -0.1048 0.2933
H8 H 0.970(8) -0.190(3) 0.322(5)
O11 O 1.0859(5) -0.1777(3) 0.1197(3)
H9 H 1.0038 -0.2214 0.1432
H10 H 1.159(6) -0.232(5) 0.107(4)
O12 O 1.5964(4) -0.0406(3) 0.3211(3)
O13 O 1.5858(4) 0.8454(3) 0.1368(2)
H11 H 1.6125 0.8760 0.1855
H12 H 1.517(6) 0.904(4) 0.116(4)
O14 O 1.0468(4) 0.6206(3) 0.3376(3)
O15 O 1.3177(4) 0.0444(3) 0.0671(2)
H13 H 1.3981 0.0846 0.0829
H14 H 1.312(7) 0.066(5) 0.0067(13)
N1 N 0.9801(4) 0.1827(3) 0.3146(2)
O16 O 1.3702(4) 0.6917(3) 0.2876(3)
H15 H 1.4013 0.7652 0.2953
H16 H 1.276(4) 0.665(6) 0.280(5)
N2 N 1.4709(5) 0.3962(3) 0.3090(2)
C3 C 0.9302(5) 0.4065(4) 0.3451(3)
C4 C 1.4870(5) 0.2761(4) 0.2807(3)
C5 C 1.4461(5) 0.1575(4) 0.3432(3)
C6 C 0.9878(5) 0.3159(4) 0.2848(3)
C7 C 1.4149(6) 0.4017(4) 0.4010(3)
H17 H 1.4041 0.4843 0.4211
C8 C 0.8666(6) 0.3569(4) 0.4388(3)
H18 H 0.8284 0.4150 0.4809
C9 C 1.5559(5) 0.2795(4) 0.1759(3)
C10 C 1.3845(6) 0.1667(4) 0.4381(3)
H19 H 1.3519 0.0905 0.4811
C11 C 0.9159(6) 0.1378(4) 0.4046(3)
H20 H 0.9081 0.0463 0.4245
C12 C 0.8599(6) 0.2209(4) 0.4703(3)
H21 H 0.8190 0.1861 0.5336
C13 C 1.4609(5) 0.0198(4) 0.3133(3)
C14 C 1.3717(7) 0.2886(5) 0.4683(3)
H22 H 1.3348 0.2954 0.5325
Ca2_2 Ca 0.56871(10) 0.60055(7) 0.17950(6)
O9_2 O 1.7946(4) 0.6087(3) 0.2783(2)
loop_
_geom_bond_atom_site_label_1
_geom_bond_atom_site_label_2
_geom_bond_site_symmetry_1
_geom_bond_site_symmetry_2
Ca1 O4 1_555 1_555
Ca2 O1 1_555 1_555
C1 O2 1_555 1_555
O1 H1 1_555 1_555
H2 O1 1_555 1_555
O3 Ca2 1_555 1_555
C2 O9 1_555 1_555
O4 C1 1_555 1_555
O5 Ca2 1_555 1_555
H3 O5 1_555 1_555
H4 O5 1_555 1_555
O6 Ca1 1_555 1_555
H5 O6 1_555 1_555
H6 O6 1_555 1_555
O7 C9 1_555 1_555
O8 Ca1 1_555 1_555
O9 Ca2_2 1_555 1_555
O10 Ca1 1_555 1_555
H7 O10 1_555 1_555
H8 O10 1_555 1_555
O11 Ca1 1_555 1_555
H9 O11 1_555 1_555
H10 O11 1_555 1_555
O12 C13 1_555 1_555
O13 Ca2 1_555 1_555
H11 O13 1_555 1_555
H12 O13 1_555 1_555
O14 C2 1_555 1_555
O15 Ca1 1_555 1_555
H13 O15 1_555 1_555
H14 O15 1_555 1_555
N1 Ca1 1_555 1_555
O16 Ca2 1_555 1_555
H15 O16 1_555 1_555
H16 O16 1_555 1_555
N2 Ca2 1_555 1_555
C3 C2 1_555 1_555
C4 N2 1_555 1_555
C5 C4 1_555 1_555
C6 C1 1_555 1_555
C7 N2 1_555 1_555
H17 C7 1_555 1_555
C8 C3 1_555 1_555
H18 C8 1_555 1_555
C9 O3 1_555 1_555
C10 C5 1_555 1_555
H19 C10 1_555 1_555
C11 N1 1_555 1_555
H20 C11 1_555 1_555
C12 C8 1_555 1_555
H21 C12 1_555 1_555
C13 O8 1_555 1_555
C14 C7 1_555 1_555
H22 C14 1_555 1_555
O9_2 Ca2 1_555 1_555
N1 C6 1_555 1_555
C3 C6 1_555 1_555
C4 C9 1_555 1_555
C5 C13 1_555 1_555
C10 C14 1_555 1_555
C11 C12 1_555 1_555

#END
