
#######################################################################
#
#                 Cambridge Crystallographic Data Centre
#                                CCDC 
#
#######################################################################
#
# If this CIF has been generated from an entry in the Cambridge 
# Structural Database, then it will include bibliographic, chemical, 
# crystal, experimental, refinement or atomic coordinate data resulting 
# from the CCDC's data processing and validation procedures.
#
#######################################################################

data_DOZFUU
_symmetry_cell_setting           monoclinic
_symmetry_space_group_name_H-M   'I 2/a'
_symmetry_Int_Tables_number      15
_space_group_name_Hall           '-I 2ya'
loop_
_symmetry_equiv_pos_site_id
_symmetry_equiv_pos_as_xyz
1 x,y,z
2 1/2-x,y,-z
3 1/2+x,1/2+y,1/2+z
4 -x,1/2+y,1/2-z
5 -x,-y,-z
6 1/2+x,-y,z
7 1/2-x,1/2-y,1/2-z
8 x,1/2-y,1/2+z
_cell_length_a                   23.279(5)
_cell_length_b                   7.837(5)
_cell_length_c                   26.776(5)
_cell_angle_alpha                90
_cell_angle_beta                 106.759(5)
_cell_angle_gamma                90
_cell_volume                     4677.46
loop_
_atom_site_label
_atom_site_type_symbol
_atom_site_fract_x
_atom_site_fract_y
_atom_site_fract_z
Zn1 Zn 0.510774(15) 0.14551(4) 0.037119(14)
F1 F 0.23944(10) 0.7212(3) -0.18591(9)
F2 F 0.12412(9) 0.2198(3) -0.19154(9)
F3 F 0.24734(10) 0.5138(3) -0.23503(9)
F4 F 0.08747(9) 0.4293(3) -0.24134(9)
F5 F 0.16647(10) 0.6623(3) -0.25382(9)
F6 F 0.15877(10) 0.2836(3) -0.25495(8)
O1 O 0.43102(10) 0.2299(3) -0.01033(10)
O2 O 0.41564(10) 0.0073(3) -0.06341(10)
O3 O 0.05144(11) 0.7362(3) -0.01134(10)
O4 O 0.03547(11) 0.9597(3) -0.06447(10)
N1 N 0.52705(11) 0.2983(3) 0.10094(11)
C1 C 0.27415(15) 0.4589(5) -0.10179(15)
C2 C 0.18407(14) 0.4716(4) -0.18047(13)
C3 C 0.08678(14) 0.7256(4) -0.08557(14)
C4 C 0.23897(14) 0.3754(4) -0.14517(13)
C5 C 0.10639(13) 0.5581(4) -0.07563(13)
H1 H 0.0986 0.4977 -0.0484
C6 C 0.14907(13) 0.5657(4) -0.14742(13)
C7 C 0.13769(14) 0.4815(4) -0.10657(14)
H2 H 0.1513 0.3701 -0.0993
C8 C 0.34452(14) 0.2277(4) -0.08244(14)
C9 C 0.32590(16) 0.3857(5) -0.07093(16)
C10 C 0.20924(17) 0.5947(5) -0.21393(16)
C11 C 0.13869(16) 0.3513(5) -0.21736(15)
C12 C 0.30933(16) 0.1441(5) -0.12588(15)
C13 C 0.25747(16) 0.2171(5) -0.15684(15)
C14 C 0.54367(19) 0.4604(6) 0.1011(2)
C15 C 0.09687(18) 0.8081(5) -0.12711(16)
C16 C 0.05544(14) 0.8134(5) -0.05103(14)
C17 C 0.40111(14) 0.1482(5) -0.04943(14)
C18 C 0.12783(16) 0.7305(5) -0.15819(15)
C19 C 0.5303(2) 0.3352(7) 0.18953(19)
C20 C 0.5543(2) 0.5629(7) 0.1441(2)
C21 C 0.52089(19) 0.2386(6) 0.14515(17)
C22 C 0.5479(2) 0.4969(8) 0.1888(2)
H3 H 0.1355(13) 0.798(4) -0.1858(13)
H4 H 0.0834(16) 0.925(5) -0.1344(15)
H5 H 0.2653(13) 0.558(4) -0.0923(12)
H6 H 0.2308(16) 0.152(4) -0.1847(15)
H7 H 0.3238(17) 0.044(5) -0.1316(16)
H8 H 0.5609(18) 0.683(5) 0.1392(16)
H9 H 0.3454(15) 0.438(4) -0.0450(15)
H10 H 0.5053(19) 0.125(5) 0.1425(17)
H11 H 0.5570(18) 0.563(6) 0.2153(18)
H12 H 0.5293(19) 0.289(5) 0.2185(19)
H13 H 0.5449(15) 0.493(4) 0.0746(14)
Zn1D Zn 0.489226(15) -0.14551(4) -0.037119(14)
Zn1E Zn 0.010774(15) 0.85449(4) 0.037119(14)
Zn1A Zn -0.010774(15) 1.14551(4) -0.037119(14)
Zn1A_2 Zn 0.989226(15) -0.85449(4) -0.037119(14)
Zn1E_2 Zn 1.010774(15) -1.14551(4) 0.037119(14)
F1D F 0.76056(10) -0.7212(3) 0.18591(9)
F2D F 0.87588(9) -0.2198(3) 0.19154(9)
F3D F 0.75266(10) -0.5138(3) 0.23503(9)
F4D F 0.91253(9) -0.4293(3) 0.24134(9)
F5D F 0.83353(10) -0.6623(3) 0.25382(9)
F6D F 0.84123(10) -0.2836(3) 0.25495(8)
O1D O 0.56898(10) -0.2299(3) 0.01033(10)
O2D O 0.58436(10) -0.0073(3) 0.06341(10)
O3D O 0.94856(11) -0.7362(3) 0.01134(10)
O3E O 0.55144(11) 0.2638(3) -0.01134(10)
O3A O 0.44856(11) -0.2638(3) 0.01134(10)
O4D O 0.96453(11) -0.9597(3) 0.06447(10)
O4A O 0.46453(11) -0.0403(3) 0.06447(10)
O4E O 0.53547(11) 0.0403(3) -0.06447(10)
N1D N 0.47295(11) -0.2983(3) -0.10094(11)
C1D C 0.72585(15) -0.4589(5) 0.10179(15)
C2D C 0.81593(14) -0.4716(4) 0.18047(13)
C3D C 0.91322(14) -0.7256(4) 0.08557(14)
C4D C 0.76103(14) -0.3754(4) 0.14517(13)
C5D C 0.89361(13) -0.5581(4) 0.07563(13)
H1D H 0.9014 -0.4977 0.0484
C6D C 0.85093(13) -0.5657(4) 0.14742(13)
C7D C 0.86231(14) -0.4815(4) 0.10657(14)
H2D H 0.8487 -0.3701 0.0993
C8D C 0.65548(14) -0.2277(4) 0.08244(14)
C9D C 0.67410(16) -0.3857(5) 0.07093(16)
C10D C 0.79076(17) -0.5947(5) 0.21393(16)
C11D C 0.86131(16) -0.3513(5) 0.21736(15)
C12D C 0.69067(16) -0.1441(5) 0.12588(15)
C13D C 0.74253(16) -0.2171(5) 0.15684(15)
C14D C 0.45633(19) -0.4604(6) -0.1011(2)
C15D C 0.90313(18) -0.8081(5) 0.12711(16)
C16D C 0.94456(14) -0.8134(5) 0.05103(14)
C17D C 0.59889(14) -0.1482(5) 0.04943(14)
C18D C 0.87217(16) -0.7305(5) 0.15819(15)
C19D C 0.4697(2) -0.3352(7) -0.18953(19)
C20D C 0.4457(2) -0.5629(7) -0.1441(2)
C21D C 0.47911(19) -0.2386(6) -0.14515(17)
C22D C 0.4521(2) -0.4969(8) -0.1888(2)
H3D H 0.8645(13) -0.798(4) 0.1858(13)
H4D H 0.9166(16) -0.925(5) 0.1344(15)
H5D H 0.7347(13) -0.558(4) 0.0923(12)
H6D H 0.7692(16) -0.152(4) 0.1847(15)
H7D H 0.6762(17) -0.044(5) 0.1316(16)
H8D H 0.4391(18) -0.683(5) -0.1392(16)
H9D H 0.6546(15) -0.438(4) 0.0450(15)
H10D H 0.4947(19) -0.125(5) -0.1425(17)
H11D H 0.4430(18) -0.563(6) -0.2153(18)
H12D H 0.4707(19) -0.289(5) -0.2185(19)
H13D H 0.4551(15) -0.493(4) -0.0746(14)
O5 O 0.7500 1.068(4) 1.0000
O6? O 0.7013(5) 0.9118(13) 0.9624(4)
H14? H 0.6868 0.8548 0.9814
O7? O 0.7193(8) 1.1736(16) 1.0319(6)
H15? H 0.7038 1.1101 1.0487
loop_
_geom_bond_atom_site_label_1
_geom_bond_atom_site_label_2
_geom_bond_site_symmetry_1
_geom_bond_site_symmetry_2
Zn1 O1 1_555 1_555
F1 C10 1_555 1_555
F2 C11 1_555 1_555
F3 C10 1_555 1_555
F4 C11 1_555 1_555
F5 C10 1_555 1_555
F6 C11 1_555 1_555
O1 C17 1_555 1_555
O2 C17 1_555 1_555
O3 C16 1_555 1_555
O4 C16 1_555 1_555
N1 Zn1 1_555 1_555
C1 C4 1_555 1_555
C2 C4 1_555 1_555
C3 C5 1_555 1_555
C4 C13 1_555 1_555
C5 H1 1_555 1_555
C6 C2 1_555 1_555
C7 C5 1_555 1_555
H2 C7 1_555 1_555
C8 C9 1_555 1_555
C9 C1 1_555 1_555
C10 C2 1_555 1_555
C11 C2 1_555 1_555
C12 C8 1_555 1_555
C13 C12 1_555 1_555
C14 N1 1_555 1_555
C15 C3 1_555 1_555
C16 C3 1_555 1_555
C17 C8 1_555 1_555
C18 C6 1_555 1_555
C19 C21 1_555 1_555
C20 C14 1_555 1_555
C21 N1 1_555 1_555
C22 C19 1_555 1_555
H3 C18 1_555 1_555
H4 C15 1_555 1_555
H5 C1 1_555 1_555
H6 C13 1_555 1_555
H7 C12 1_555 1_555
H8 C20 1_555 1_555
H9 C9 1_555 1_555
H10 C21 1_555 1_555
H11 C22 1_555 1_555
H12 C19 1_555 1_555
H13 C14 1_555 1_555
Zn1D O2 1_555 1_555
Zn1E O3 1_555 1_555
Zn1A O4 1_555 1_555
Zn1A_2 O3D 1_555 1_555
Zn1E_2 O4D 1_555 1_555
F1D C10D 1_555 1_555
F2D C11D 1_555 1_555
F3D C10D 1_555 1_555
F4D C11D 1_555 1_555
F5D C10D 1_555 1_555
F6D C11D 1_555 1_555
O1D Zn1D 1_555 1_555
O2D Zn1 1_555 1_555
O3D C16D 1_555 1_555
O3E Zn1 1_555 1_555
O3A Zn1D 1_555 1_555
O4D C16D 1_555 1_555
O4A Zn1 1_555 1_555
O4E Zn1D 1_555 1_555
N1D Zn1D 1_555 1_555
C1D C4D 1_555 1_555
C2D C4D 1_555 1_555
C3D C5D 1_555 1_555
C4D C13D 1_555 1_555
C5D H1D 1_555 1_555
C6D C2D 1_555 1_555
C7D C5D 1_555 1_555
H2D C7D 1_555 1_555
C8D C9D 1_555 1_555
C9D C1D 1_555 1_555
C10D C2D 1_555 1_555
C11D C2D 1_555 1_555
C12D C8D 1_555 1_555
C13D C12D 1_555 1_555
C14D N1D 1_555 1_555
C15D C3D 1_555 1_555
C16D C3D 1_555 1_555
C17D O1D 1_555 1_555
C18D C6D 1_555 1_555
C19D C21D 1_555 1_555
C20D C14D 1_555 1_555
C21D N1D 1_555 1_555
C22D C19D 1_555 1_555
H3D C18D 1_555 1_555
H4D C15D 1_555 1_555
H5D C1D 1_555 1_555
H6D C13D 1_555 1_555
H7D C12D 1_555 1_555
H8D C20D 1_555 1_555
H9D C9D 1_555 1_555
H10D C21D 1_555 1_555
H11D C22D 1_555 1_555
H12D C19D 1_555 1_555
H13D C14D 1_555 1_555
C6 C7 1_555 1_555
C15 C18 1_555 1_555
C20 C22 1_555 1_555
O2D C17D 1_555 1_555
C6D C7D 1_555 1_555
C8D C17D 1_555 1_555
C15D C18D 1_555 1_555
C20D C22D 1_555 1_555

#END
