
#######################################################################
#
#                 Cambridge Crystallographic Data Centre
#                                CCDC 
#
#######################################################################
#
# If this CIF has been generated from an entry in the Cambridge 
# Structural Database, then it will include bibliographic, chemical, 
# crystal, experimental, refinement or atomic coordinate data resulting 
# from the CCDC's data processing and validation procedures.
#
#######################################################################

data_DOZKIN
_symmetry_cell_setting           orthorhombic
_symmetry_space_group_name_H-M   'P 21 21 21'
_symmetry_Int_Tables_number      19
_space_group_name_Hall           'P 2ac 2ab'
loop_
_symmetry_equiv_pos_site_id
_symmetry_equiv_pos_as_xyz
1 x,y,z
2 1/2-x,-y,1/2+z
3 1/2+x,1/2-y,-z
4 -x,1/2+y,1/2-z
_cell_length_a                   7.828(1)
_cell_length_b                   8.273(1)
_cell_length_c                   27.154(4)
_cell_angle_alpha                90
_cell_angle_beta                 90
_cell_angle_gamma                90
_cell_volume                     1758.52
loop_
_atom_site_label
_atom_site_type_symbol
_atom_site_fract_x
_atom_site_fract_y
_atom_site_fract_z
Na1 Na 0.14400(16) 0.58164(16) 0.19459(4)
Na2 Na 0.65376(15) 0.05706(16) 0.19594(4)
O1 O 0.7031(3) -0.2199(3) 0.21533(8)
O2 O 0.7059(3) 0.3426(3) 0.18583(7)
O3 O 0.0598(3) 0.5799(3) 0.27717(7)
O4 O 0.1828(3) 0.3027(3) 0.18475(8)
O5 O 0.3733(3) 0.1064(3) 0.17219(7)
O6 O 0.1993(3) 0.8558(3) 0.21483(8)
O7 O 0.8699(3) 0.5460(3) 0.15950(7)
O8 O 0.4342(3) 0.5597(3) 0.21812(8)
C1 C 0.7863(4) 0.4187(4) 0.15292(10)
C2 C 0.5417(4) -0.0480(4) 0.08199(11)
N1 N 0.4406(3) 0.2312(3) 0.07568(9)
C3 C 0.2936(4) 0.2291(4) 0.15883(10)
C4 C 0.3227(4) 0.2947(4) 0.10853(11)
C5 C 0.7397(4) 0.1785(4) 0.09459(10)
C6 C 0.8727(4) 0.0684(5) 0.10043(11)
C7 C 0.5761(4) 0.1180(4) 0.08492(10)
C8 C 0.7746(4) 0.3564(4) 0.10006(11)
C9 C 0.3037(4) 0.4293(4) 0.03622(11)
C10 C 0.6786(5) -0.1536(4) 0.08956(12)
C11 C 0.4277(4) 0.3146(4) 0.03207(11)
C12 C 0.2374(4) 0.4177(4) 0.08431(11)
C13 C 0.8435(5) -0.0968(5) 0.09764(12)
C14 C 0.3662(5) -0.1126(4) 0.07216(12)
C15 C 0.3200(5) -0.1129(5) 0.01754(12)
H1 H 0.2684 -0.0114 0.0090
H2 H 0.2413 -0.1990 0.0108
H3 H 0.4219 -0.1281 -0.0016
H4 H 0.9877 0.1031 0.1078
H5 H 0.8817 0.3768 0.0840
H6 H 0.6847 0.4112 0.0839
H7 H 0.2639 0.4973 0.0115
H8 H 0.6567 -0.2747 0.0897
H9 H 0.4978 0.2921 0.0043
H10 H 0.1533 0.4843 0.0993
H11 H 0.9414 -0.1772 0.1013
H12 H 0.2843 -0.0476 0.0904
H13 H 0.3573 -0.2233 0.0854
H14 H 0.7341 -0.2229 0.2497
H15 H 0.7764 -0.2882 0.1950
H16 H -0.0023 0.6626 0.2906
H17 H -0.0054 0.4837 0.2860
H18 H 0.2369 0.8605 0.2495
H19 H 0.2713 0.9345 0.2032
H20 H 0.5105 0.4733 0.2097
H21 H 0.5037 0.6649 0.2164
Na1_2 Na 1.14400(16) 0.58164(16) 0.19459(4)
Na2C Na 0.34624(15) 0.55706(16) 0.30406(4)
O3C O 0.9402(3) 0.0799(3) 0.22283(7)
O7_2 O -0.1301(3) 0.5460(3) 0.15950(7)
O8C O 0.5658(3) 0.0597(3) 0.28188(8)
H16C H 1.0023 0.1626 0.2094
H17C H 1.0054 -0.0163 0.2140
H20C H 0.4895 -0.0267 0.2903
H21C H 0.4963 0.1649 0.2836
loop_
_geom_bond_atom_site_label_1
_geom_bond_atom_site_label_2
_geom_bond_site_symmetry_1
_geom_bond_site_symmetry_2
Na1 O3 1_555 1_555
Na2 O1 1_555 1_555
O1 H14 1_555 1_555
O2 Na2 1_555 1_555
O3 H16 1_555 1_555
O4 Na1 1_555 1_555
O5 Na2 1_555 1_555
O6 Na1 1_555 1_555
O7 C1 1_555 1_555
O8 Na1 1_555 1_555
C1 O2 1_555 1_555
C2 C7 1_555 1_555
N1 C4 1_555 1_555
C3 O4 1_555 1_555
C4 C3 1_555 1_555
C5 C6 1_555 1_555
C6 C13 1_555 1_555
C7 N1 1_555 1_555
C8 C1 1_555 1_555
C9 C11 1_555 1_555
C10 C2 1_555 1_555
C11 N1 1_555 1_555
C12 C4 1_555 1_555
C13 C10 1_555 1_555
C14 C2 1_555 1_555
C15 C14 1_555 1_555
H1 C15 1_555 1_555
H2 C15 1_555 1_555
H3 C15 1_555 1_555
H4 C6 1_555 1_555
H5 C8 1_555 1_555
H6 C8 1_555 1_555
H7 C9 1_555 1_555
H8 C10 1_555 1_555
H9 C11 1_555 1_555
H10 C12 1_555 1_555
H11 C13 1_555 1_555
H12 C14 1_555 1_555
H13 C14 1_555 1_555
H15 O1 1_555 1_555
H17 O3 1_555 1_555
H18 O6 1_555 1_555
H19 O6 1_555 1_555
H20 O8 1_555 1_555
H21 O8 1_555 1_555
Na1_2 O7 1_555 1_555
Na2C O3 1_555 1_555
O3C Na2 1_555 1_555
O7_2 Na1 1_555 1_555
O8C Na2 1_555 1_555
H16C O3C 1_555 1_555
H17C O3C 1_555 1_555
H20C O8C 1_555 1_555
H21C O8C 1_555 1_555
O5 C3 1_555 1_555
O8 Na2C 1_555 1_555
C5 C7 1_555 1_555
C5 C8 1_555 1_555
C9 C12 1_555 1_555

#END
