
#######################################################################
#
#                 Cambridge Crystallographic Data Centre
#                                CCDC 
#
#######################################################################
#
# If this CIF has been generated from an entry in the Cambridge 
# Structural Database, then it will include bibliographic, chemical, 
# crystal, experimental, refinement or atomic coordinate data resulting 
# from the CCDC's data processing and validation procedures.
#
#######################################################################

data_DOZMIP
_symmetry_cell_setting           monoclinic
_symmetry_space_group_name_H-M   'P 21/n'
_symmetry_Int_Tables_number      14
_space_group_name_Hall           '-P 2yn'
loop_
_symmetry_equiv_pos_site_id
_symmetry_equiv_pos_as_xyz
1 x,y,z
2 1/2-x,1/2+y,1/2-z
3 -x,-y,-z
4 1/2+x,1/2-y,1/2+z
_cell_length_a                   7.3590(5)
_cell_length_b                   14.620(1)
_cell_length_c                   9.9079(7)
_cell_angle_alpha                90
_cell_angle_beta                 106.406(1)
_cell_angle_gamma                90
_cell_volume                     1022.58
loop_
_atom_site_label
_atom_site_type_symbol
_atom_site_fract_x
_atom_site_fract_y
_atom_site_fract_z
Cu1 Cu 0.87440(4) 0.462453(19) 0.60120(3)
V1 V 1.03278(12) 0.50305(7) 0.02805(8)
P1 P 0.75528(8) 0.45507(4) 0.21756(6)
P2 P 0.84521(8) 0.64847(4) 0.17883(6)
O1 O 0.9025(2) 0.46097(11) 0.36293(17)
O2 O 0.9897(2) 0.64609(11) 0.32286(17)
O3 O 0.8491(2) 0.43273(12) 0.10237(17)
O4 O 0.5998(2) 0.38797(12) 0.22204(17)
O5 O 0.7564(3) 0.74443(13) 0.15143(18)
O6 O 0.9247(3) 0.61838(12) 0.06014(17)
O7 O 0.7757(3) 0.50007(13) -0.17031(19)
N1 N 0.7040(3) 0.57173(13) 0.5360(2)
N2 N 0.3765(3) 0.60441(13) 0.4435(2)
C1 C 0.5223(3) 0.54868(15) 0.4944(2)
C2 C 0.4175(3) 0.69283(16) 0.4289(2)
H1 H 0.3178 0.7352 0.3925
C3 C 0.7472(3) 0.66008(16) 0.5225(2)
H2 H 0.8757 0.6794 0.5512
C4 C 0.6048(3) 0.72282(16) 0.4668(2)
H3 H 0.6342 0.7850 0.4546
C5 C 0.6567(3) 0.56902(17) 0.1762(2)
H4 H 0.809(6) 0.781(3) 0.187(5)
H5 H 0.566(5) 0.571(2) 0.086(3)
H6 H 0.588(4) 0.588(2) 0.241(3)
Cu1B Cu 1.12560(4) 0.537547(19) 0.39880(3)
Cu1B_2 Cu 0.12560(4) 0.537547(19) 0.39880(3)
V1B V 0.96722(12) 0.49695(7) 0.97195(8)
V1B_2 V 0.96722(12) 0.49695(7) -0.02805(8)
V1_2 V 1.03278(12) 0.50305(7) 1.02805(8)
P1B P 1.24472(8) 0.54493(4) 0.78244(6)
P2B P 1.15479(8) 0.35153(4) 0.82117(6)
O1B O 1.0975(2) 0.53903(11) 0.63707(17)
O2B O 1.0103(2) 0.35391(11) 0.67714(17)
O3B O 1.1509(2) 0.56727(12) 0.89763(17)
O3B_2 O 1.1509(2) 0.56727(12) -0.10237(17)
O3_2 O 0.8491(2) 0.43273(12) 1.10237(17)
O4B O 1.4002(2) 0.61203(12) 0.77796(17)
O5B O 1.2436(3) 0.25557(13) 0.84857(18)
O6B O 1.0753(3) 0.38162(12) 0.93986(17)
O6B_2 O 1.0753(3) 0.38162(12) -0.06014(17)
O6_2 O 0.9247(3) 0.61838(12) 1.06014(17)
O7B O 1.2243(3) 0.49993(13) 0.17031(19)
O7B_2 O 1.2243(3) 0.49993(13) 1.17031(19)
O7_2 O 0.7757(3) 0.50007(13) 0.82969(19)
N1B N 0.2960(3) 0.42827(13) 0.4640(2)
N1B_2 N 1.2960(3) 0.42827(13) 0.4640(2)
N2B N 0.6235(3) 0.39559(13) 0.5565(2)
N2_2 N 1.3765(3) 0.60441(13) 0.4435(2)
C1B C 0.4777(3) 0.45132(15) 0.5056(2)
C2B C 0.5825(3) 0.30717(16) 0.5711(2)
H1B H 0.6822 0.2648 0.6075
C3B C 0.2528(3) 0.33992(16) 0.4775(2)
H2B H 0.1243 0.3206 0.4488
C4B C 0.3952(3) 0.27718(16) 0.5332(2)
H3B H 0.3658 0.2150 0.5454
C5B C 1.3433(3) 0.43098(17) 0.8238(2)
H4B H 1.191(6) 0.219(3) 0.813(5)
H5B H 1.434(5) 0.429(2) 0.914(3)
H6B H 1.412(4) 0.412(2) 0.759(3)
loop_
_geom_bond_atom_site_label_1
_geom_bond_atom_site_label_2
_geom_bond_site_symmetry_1
_geom_bond_site_symmetry_2
Cu1 O1 1_555 1_555
V1 O3 1_555 1_555
P1 O1 1_555 1_555
P2 O2 1_555 1_555
O1 Cu1B 1_555 1_555
O2 Cu1B 1_555 1_555
O3 P1 1_555 1_555
O4 P1 1_555 1_555
O5 P2 1_555 1_555
O6 V1 1_555 1_555
O7 V1 1_555 1_555
N1 Cu1 1_555 1_555
N2 C1 1_555 1_555
C1 N1 1_555 1_555
C2 N2 1_555 1_555
H1 C2 1_555 1_555
C3 N1 1_555 1_555
H2 C3 1_555 1_555
C4 C2 1_555 1_555
H3 C4 1_555 1_555
C5 P1 1_555 1_555
H4 O5 1_555 1_555
H5 C5 1_555 1_555
H6 C5 1_555 1_555
Cu1B O1B 1_555 1_555
Cu1B_2 N2 1_555 1_555
V1B V1_2 1_555 1_555
V1B_2 V1 1_555 1_555
V1_2 O3B 1_555 1_555
P1B O1B 1_555 1_555
P2B O2B 1_555 1_555
O1B Cu1 1_555 1_555
O2B Cu1 1_555 1_555
O3B V1B 1_555 1_555
O3B_2 V1 1_555 1_555
O3_2 V1B 1_555 1_555
O4B P1B 1_555 1_555
O5B P2B 1_555 1_555
O6B V1B 1_555 1_555
O6B_2 V1 1_555 1_555
O6_2 V1B 1_555 1_555
O7B V1 1_555 1_555
O7B_2 V1B 1_555 1_555
O7_2 V1B 1_555 1_555
N1B Cu1B_2 1_555 1_555
N1B_2 Cu1B 1_555 1_555
N2B Cu1 1_555 1_555
N2_2 Cu1B 1_555 1_555
C1B C1 1_555 1_555
C2B N2B 1_555 1_555
H1B C2B 1_555 1_555
C3B N1B 1_555 1_555
H2B C3B 1_555 1_555
C4B C2B 1_555 1_555
H3B C4B 1_555 1_555
C5B P1B 1_555 1_555
H4B O5B 1_555 1_555
H5B C5B 1_555 1_555
H6B C5B 1_555 1_555
P2 O6 1_555 1_555
P2 C5 1_555 1_555
O3 V1B_2 1_555 1_555
O6 V1B_2 1_555 1_555
O7 V1B_2 1_555 1_555
C3 C4 1_555 1_555
V1B_2 O3B_2 1_555 1_555
V1B_2 O6B_2 1_555 1_555
V1B_2 O7B 1_555 1_555
V1_2 O3_2 1_555 1_555
V1_2 O6B 1_555 1_555
V1_2 O6_2 1_555 1_555
V1_2 O7B_2 1_555 1_555
V1_2 O7_2 1_555 1_555
P1B O3B 1_555 1_555
P2B O6B 1_555 1_555
P2B C5B 1_555 1_555
N1B C1B 1_555 1_555
N2B C1B 1_555 1_555
C3B C4B 1_555 1_555

#END
