
#######################################################################
#
#                 Cambridge Crystallographic Data Centre
#                                CCDC 
#
#######################################################################
#
# If this CIF has been generated from an entry in the Cambridge 
# Structural Database, then it will include bibliographic, chemical, 
# crystal, experimental, refinement or atomic coordinate data resulting 
# from the CCDC's data processing and validation procedures.
#
#######################################################################

data_DOZMUB
_symmetry_cell_setting           triclinic
_symmetry_space_group_name_H-M   'P -1'
_symmetry_Int_Tables_number      2
_space_group_name_Hall           '-P 1'
loop_
_symmetry_equiv_pos_site_id
_symmetry_equiv_pos_as_xyz
1 x,y,z
2 -x,-y,-z
_cell_length_a                   8.1299(6)
_cell_length_b                   9.1492(6)
_cell_length_c                   9.1855(6)
_cell_angle_alpha                72.314(1)
_cell_angle_beta                 75.106(1)
_cell_angle_gamma                66.949(1)
_cell_volume                     591.494
loop_
_atom_site_label
_atom_site_type_symbol
_atom_site_fract_x
_atom_site_fract_y
_atom_site_fract_z
Cu1 Cu 0.24979(3) 0.01257(3) -0.23201(2)
P1 P 0.17491(6) -0.17872(5) 0.11002(5)
P2 P 0.61685(6) -0.60421(5) 0.31490(5)
O1 O 0.28182(17) -0.08569(16) -0.01621(14)
O2 O -0.01009(17) 0.07783(16) -0.20202(15)
O3 O 0.74760(17) -0.74239(15) 0.24162(15)
O4 O 0.70365(18) -0.52007(16) 0.37575(15)
O5 O 0.11804(17) -0.28599(16) 0.03911(15)
O6 O 0.48568(18) -0.67725(16) 0.44946(15)
O7 O 0.2423(2) 0.24718(18) -0.17446(17)
H1 H 0.2449 0.3196 -0.2564
N1 N 0.2590(2) 0.07653(18) -0.47007(17)
N2 N 0.5233(2) -0.05325(18) -0.30073(17)
C1 C 0.4267(2) 0.0361(2) -0.5468(2)
C2 C 0.3215(2) -0.3199(2) 0.2458(2)
H2 H 0.3737 -0.2592 0.2831
H3 H 0.2490 -0.3706 0.3362
C3 C 0.4761(2) -0.4549(2) 0.1774(2)
H4 H 0.5525 -0.4044 0.0909
H5 H 0.4238 -0.5110 0.1344
C4 C 0.1257(2) 0.1418(2) -0.5559(2)
H6 H 0.0033 0.1745 -0.5066
C5 C 0.1634(3) 0.1622(2) -0.7159(2)
H7 H 0.0685 0.2065 -0.7760
C6 C 0.6561(3) -0.1160(2) -0.2146(2)
H8 H 0.6268 -0.1290 -0.1055
H9 H 0.137(5) 0.280(4) -0.136(4)
Cu1A Cu -0.24979(3) -0.01257(3) 0.23201(2)
Cu1A_2 Cu 0.75021(3) -0.01257(3) -0.76799(2)
Cu1A_3 Cu 0.75021(3) -1.01257(3) 0.23201(2)
Cu1_2 Cu -0.75021(3) 1.01257(3) -0.23201(2)
P1A P -0.17491(6) 0.17872(5) -0.11002(5)
P2A P -0.61685(6) 0.60421(5) -0.31490(5)
O1A O -0.28182(17) 0.08569(16) 0.01621(14)
O2A O 0.01009(17) -0.07783(16) 0.20202(15)
O3_2 O -0.25240(17) 0.25761(15) 0.24162(15)
O3A O 0.25240(17) -0.25761(15) -0.24162(15)
O3A_2 O -0.74760(17) 0.74239(15) -0.24162(15)
O4A O -0.70365(18) 0.52007(16) -0.37575(15)
O5A O -0.11804(17) 0.28599(16) -0.03911(15)
O6A O -0.48568(18) 0.67725(16) -0.44946(15)
O7A O -0.2423(2) -0.24718(18) 0.17446(17)
H1A H -0.2449 -0.3196 0.2564
N1A N 0.7410(2) -0.07653(18) -0.52993(17)
N1A_2 N -0.2590(2) -0.07653(18) 0.47007(17)
N2A N 0.4767(2) 0.05325(18) -0.69927(17)
N2A_2 N -0.5233(2) 0.05325(18) 0.30073(17)
C1A C 0.5733(2) -0.0361(2) -0.4532(2)
C2A C -0.3215(2) 0.3199(2) -0.2458(2)
H2A H -0.3737 0.2592 -0.2831
H3A H -0.2490 0.3706 -0.3362
C3A C -0.4761(2) 0.4549(2) -0.1774(2)
H4A H -0.5525 0.4044 -0.0909
H5A H -0.4238 0.5110 -0.1344
C4A C 0.8743(2) -0.1418(2) -0.4441(2)
H6A H 0.9967 -0.1745 -0.4934
C5A C 0.8366(3) -0.1622(2) -0.2841(2)
H7A H 0.9315 -0.2065 -0.2240
C6A C 0.3439(3) 0.1160(2) -0.7854(2)
H8A H 0.3732 0.1290 -0.8945
H9A H -0.137(5) -0.280(4) 0.136(4)
loop_
_geom_bond_atom_site_label_1
_geom_bond_atom_site_label_2
_geom_bond_site_symmetry_1
_geom_bond_site_symmetry_2
Cu1 O1 1_555 1_555
P1 O1 1_555 1_555
P2 O3 1_555 1_555
O2 Cu1 1_555 1_555
O3 Cu1A_3 1_555 1_555
O4 P2 1_555 1_555
O5 P1 1_555 1_555
O6 P2 1_555 1_555
O7 Cu1 1_555 1_555
H1 O7 1_555 1_555
N1 Cu1 1_555 1_555
N2 Cu1 1_555 1_555
C1 N1 1_555 1_555
C2 P1 1_555 1_555
H2 C2 1_555 1_555
H3 C2 1_555 1_555
C3 P2 1_555 1_555
H4 C3 1_555 1_555
H5 C3 1_555 1_555
C4 N1 1_555 1_555
H6 C4 1_555 1_555
C5 C4 1_555 1_555
H7 C5 1_555 1_555
C6 N2 1_555 1_555
H8 C6 1_555 1_555
H9 O7 1_555 1_555
Cu1A O1A 1_555 1_555
Cu1A_2 N1A 1_555 1_555
Cu1_2 O3A_2 1_555 1_555
P1A O2 1_555 1_555
P2A O3A_2 1_555 1_555
O1A P1A 1_555 1_555
O2A P1 1_555 1_555
O3_2 Cu1A 1_555 1_555
O3A Cu1 1_555 1_555
O4A P2A 1_555 1_555
O5A P1A 1_555 1_555
O6A P2A 1_555 1_555
O7A Cu1A 1_555 1_555
H1A O7A 1_555 1_555
N1A C1A 1_555 1_555
N1A_2 Cu1A 1_555 1_555
N2A C1 1_555 1_555
N2A_2 Cu1A 1_555 1_555
C1A N2 1_555 1_555
C2A P1A 1_555 1_555
H2A C2A 1_555 1_555
H3A C2A 1_555 1_555
C3A P2A 1_555 1_555
H4A C3A 1_555 1_555
H5A C3A 1_555 1_555
C4A N1A 1_555 1_555
H6A C4A 1_555 1_555
C5A C6 1_555 1_555
H7A C5A 1_555 1_555
C6A C5 1_555 1_555
H8A C6A 1_555 1_555
H9A O7A 1_555 1_555
C1 C1A 1_555 1_555
C2 C3 1_555 1_555
Cu1A O2A 1_555 1_555
Cu1A_2 N2A 1_555 1_555
N2A C6A 1_555 1_555
C2A C3A 1_555 1_555
C4A C5A 1_555 1_555

#END
