
#######################################################################
#
#                 Cambridge Crystallographic Data Centre
#                                CCDC 
#
#######################################################################
#
# If this CIF has been generated from an entry in the Cambridge 
# Structural Database, then it will include bibliographic, chemical, 
# crystal, experimental, refinement or atomic coordinate data resulting 
# from the CCDC's data processing and validation procedures.
#
#######################################################################

data_DOZMOV
_symmetry_cell_setting           monoclinic
_symmetry_space_group_name_H-M   'P 21/c'
_symmetry_Int_Tables_number      14
_space_group_name_Hall           '-P 2ybc'
loop_
_symmetry_equiv_pos_site_id
_symmetry_equiv_pos_as_xyz
1 x,y,z
2 -x,1/2+y,1/2-z
3 -x,-y,-z
4 x,1/2-y,1/2+z
_cell_length_a                   13.440(2)
_cell_length_b                   8.275(1)
_cell_length_c                   20.316(3)
_cell_angle_alpha                90
_cell_angle_beta                 95.815(4)
_cell_angle_gamma                90
_cell_volume                     2247.84
loop_
_atom_site_label
_atom_site_type_symbol
_atom_site_fract_x
_atom_site_fract_y
_atom_site_fract_z
Cu1 Cu 0.13814(6) 0.80293(9) 0.06697(4)
Cu2 Cu 0.42563(6) 0.77318(9) 0.07810(4)
V1 V 0.22308(8) 0.88365(13) 0.32430(5)
P1 P 0.82739(13) 0.7434(2) 0.11066(9)
P2 P 0.63964(12) 0.7034(2) 0.17255(8)
P3 P 0.29143(12) 0.73235(19) 0.19084(8)
P4 P 0.26703(12) 0.50052(19) 0.08022(8)
O1 O 0.5789(3) 0.6882(6) 0.1071(2)
O2 O 0.3937(3) 0.7830(5) 0.1698(2)
O3 O 0.3608(3) 0.5690(5) 0.0557(2)
O4 O 0.2063(3) 0.8260(5) 0.1541(2)
O5 O 0.1700(3) 0.5801(5) 0.0519(2)
O6 O 0.2629(4) 0.3153(6) 0.0678(2)
O7 O 0.2919(3) 0.7442(5) 0.2658(2)
O8 O 0.6819(3) 0.5457(6) 0.2026(2)
O9 O 0.2356(4) 0.7563(6) 0.3850(2)
O10 O 0.1110(3) 0.8670(6) 0.2850(2)
O11 O 0.8172(4) 0.5616(6) 0.1165(2)
O12 O 0.5778(4) 0.7856(6) 0.2256(3)
O13 O 0.9379(4) 0.7949(7) 0.1352(3)
O14 O 0.8056(4) 0.8109(5) 0.0435(2)
O15 O 0.2590(3) 0.8974(6) 0.0069(2)
H1 H 0.2550 0.8502 -0.0298
N1 N 0.4678(4) 1.0096(6) 0.0830(3)
N2 N 0.5347(4) 1.2067(7) 0.0147(3)
N3 N 0.0408(4) 0.8005(6) -0.0169(3)
N4 N -0.0773(4) 0.9749(6) -0.0761(3)
C1 C 0.5375(5) 1.3152(8) 0.0638(3)
H2 H 0.5620 1.4210 0.0572
C2 C 0.5045(5) 1.2735(8) 0.1242(3)
H3 H 0.5066 1.3498 0.1593
C3 C 0.4691(5) 1.1200(8) 0.1323(3)
H4 H 0.4450 1.0908 0.1730
C4 C 0.5000(5) 1.0596(7) 0.0268(3)
C5 C -0.0935(5) 0.8648(8) -0.1237(3)
H5 H -0.1403 0.8866 -0.1609
C6 C -0.0430(5) 0.7186(8) -0.1196(3)
H6 H -0.0543 0.6407 -0.1539
C7 C -0.0097(5) 0.9384(7) -0.0256(3)
C8 C 0.2760(5) 0.5221(8) 0.1684(3)
C9 C 0.7472(5) 0.8323(8) 0.1668(3)
C10 C 0.0241(5) 0.6876(8) -0.0648(3)
H7 H 0.0584 0.5871 -0.0608
H9 H 0.245(6) 0.285(9) 0.034(4)
H10 H 0.321(6) 0.466(11) 0.188(4)
H11 H 0.214(5) 0.484(8) 0.183(3)
H12 H 0.785(5) 0.839(8) 0.214(3)
H13 H 0.726(5) 0.931(8) 0.155(3)
H14 H 0.242(6) 0.999(10) -0.008(4)
H15 H 0.530(6) 0.790(11) 0.211(4)
H16 H 0.957(6) 0.733(10) 0.165(4)
Cu1B Cu -0.13814(6) 1.19707(9) -0.06697(4)
Cu2A Cu 0.57437(6) 1.27318(9) 0.42190(4)
Cu2B Cu 0.57437(6) 1.22682(9) -0.07810(4)
Cu2B_2 Cu -0.42563(6) 1.22682(9) -0.07810(4)
V1B V -0.22308(8) 1.11635(13) -0.32430(5)
V1A V 0.77692(8) 0.38365(13) 0.17570(5)
P1A P 0.17261(13) 1.2434(2) 0.38934(9)
P2A P 0.36036(12) 1.2034(2) 0.32745(8)
P3B P -0.29143(12) 1.26765(19) -0.19084(8)
P4B P -0.26703(12) 1.49948(19) -0.08022(8)
O1A O 0.4211(3) 1.1882(6) 0.3929(2)
O2B O -0.3937(3) 1.2170(5) -0.1698(2)
O2A O 0.6063(3) 1.2830(5) 0.3302(2)
O3B O -0.3608(3) 1.4310(5) -0.0557(2)
O3A O 0.6392(3) 1.0690(5) 0.4443(2)
O4B O -0.2063(3) 1.1740(5) -0.1541(2)
O5B O -0.1700(3) 1.4199(5) -0.0519(2)
O6B O -0.2629(4) 1.6847(6) -0.0678(2)
O7B O -0.2919(3) 1.2558(5) -0.2658(2)
O8A O 0.3181(3) 1.0457(6) 0.2974(2)
O8C O -0.3181(3) 0.9543(6) -0.2974(2)
O9B O -0.2356(4) 1.2437(6) -0.3850(2)
O10B O -0.1110(3) 1.1330(6) -0.2850(2)
O11A O 0.1828(4) 1.0616(6) 0.3835(2)
O11C O -0.1828(4) 0.9384(6) -0.3835(2)
O12A O 0.4222(4) 1.2856(6) 0.2744(3)
O13A O 0.0621(4) 1.2949(7) 0.3648(3)
O14A O 0.1944(4) 1.3109(5) 0.4565(2)
O15B O -0.2590(3) 1.1026(6) -0.0069(2)
H1B H -0.2550 1.1498 0.0298
N1B N 0.5322(4) 0.9904(6) -0.0830(3)
N1A N 0.5322(4) 1.5096(6) 0.4170(3)
N2B N 0.4653(4) 0.7933(7) -0.0147(3)
N2C N 0.5347(4) 1.2933(7) 0.5147(3)
N3B N -0.0408(4) 1.1995(6) 0.0169(3)
N4B N 0.0773(4) 1.0251(6) 0.0761(3)
C1B C 0.4625(5) 0.6848(8) -0.0638(3)
H2B H 0.4380 0.5790 -0.0572
C2B C 0.4955(5) 0.7265(8) -0.1242(3)
H3B H 0.4934 0.6502 -0.1593
C3B C 0.5309(5) 0.8800(8) -0.1323(3)
H4B H 0.5550 0.9092 -0.1730
C4B C 0.5000(5) 0.9404(7) -0.0268(3)
C5B C 0.0935(5) 1.1352(8) 0.1237(3)
H5B H 0.1403 1.1134 0.1609
C6B C 0.0430(5) 1.2814(8) 0.1196(3)
H6B H 0.0543 1.3593 0.1539
C7B C 0.0097(5) 1.0616(7) 0.0256(3)
C8B C -0.2760(5) 1.4779(8) -0.1684(3)
C9A C 0.2528(5) 1.3323(8) 0.3332(3)
C10B C -0.0241(5) 1.3124(8) 0.0648(3)
H7B H -0.0584 1.4129 0.0608
H9B H -0.245(6) 1.715(9) -0.034(4)
H10B H -0.321(6) 1.534(11) -0.188(4)
H11B H -0.214(5) 1.516(8) -0.183(3)
H12A H 0.215(5) 1.339(8) 0.286(3)
H13A H 0.274(5) 1.431(8) 0.345(3)
H14B H -0.242(6) 1.001(10) 0.008(4)
H15A H 0.470(6) 1.290(11) 0.289(4)
H16A H 0.043(6) 1.233(10) 0.335(4)
O16 O 0.0362(5) 0.5974(8) 0.2204(3)
H8 H 0.048(7) 0.662(13) 0.245(5)
H17 H 0.000(6) 0.546(10) 0.231(4)
loop_
_geom_bond_atom_site_label_1
_geom_bond_atom_site_label_2
_geom_bond_site_symmetry_1
_geom_bond_site_symmetry_2
Cu1 O4 1_555 1_555
Cu2 O1 1_555 1_555
V1 O7 1_555 1_555
P1 O11 1_555 1_555
P2 O1 1_555 1_555
P3 O2 1_555 1_555
P4 O3 1_555 1_555
O2 Cu2 1_555 1_555
O3 Cu2 1_555 1_555
O4 P3 1_555 1_555
O5 Cu1 1_555 1_555
O6 P4 1_555 1_555
O7 P3 1_555 1_555
O8 P2 1_555 1_555
O9 V1 1_555 1_555
O10 V1 1_555 1_555
O11 V1A 1_555 1_555
O12 P2 1_555 1_555
O13 P1 1_555 1_555
O14 P1 1_555 1_555
O15 Cu1 1_555 1_555
H1 O15 1_555 1_555
O16 H8 1_555 1_555
N1 Cu2 1_555 1_555
N2 C1 1_555 1_555
N3 Cu1 1_555 1_555
N4 C5 1_555 1_555
C1 H2 1_555 1_555
C2 C1 1_555 1_555
H3 C2 1_555 1_555
C3 N1 1_555 1_555
H4 C3 1_555 1_555
C4 N1 1_555 1_555
C5 H5 1_555 1_555
C6 C5 1_555 1_555
H6 C6 1_555 1_555
C7 N3 1_555 1_555
C8 P3 1_555 1_555
C9 P1 1_555 1_555
C10 N3 1_555 1_555
H7 C10 1_555 1_555
H9 O6 1_555 1_555
H10 C8 1_555 1_555
H11 C8 1_555 1_555
H12 C9 1_555 1_555
H13 C9 1_555 1_555
H14 O15 1_555 1_555
H15 O12 1_555 1_555
H16 O13 1_555 1_555
H17 O16 1_555 1_555
Cu1B N4 1_555 1_555
Cu2A O1A 1_555 1_555
Cu2B N2 1_555 1_555
Cu2B_2 O2B 1_555 1_555
V1B O7B 1_555 1_555
V1A O8 1_555 1_555
P1A O11A 1_555 1_555
P2A O1A 1_555 1_555
P3B O2B 1_555 1_555
P4B O3B 1_555 1_555
O2A Cu2A 1_555 1_555
O3B Cu2B_2 1_555 1_555
O3A Cu2A 1_555 1_555
O4B Cu1B 1_555 1_555
O5B Cu1B 1_555 1_555
O6B P4B 1_555 1_555
O7B P3B 1_555 1_555
O8A V1 1_555 1_555
O8C V1B 1_555 1_555
O9B V1B 1_555 1_555
O10B V1B 1_555 1_555
O11A V1 1_555 1_555
O11C V1B 1_555 1_555
O12A P2A 1_555 1_555
O13A P1A 1_555 1_555
O14A P1A 1_555 1_555
O15B Cu1B 1_555 1_555
H1B O15B 1_555 1_555
N1B Cu2B 1_555 1_555
N1A Cu2A 1_555 1_555
N2B Cu2 1_555 1_555
N2C Cu2A 1_555 1_555
N3B Cu1B 1_555 1_555
N4B Cu1 1_555 1_555
C1B N2B 1_555 1_555
H2B C1B 1_555 1_555
C2B C1B 1_555 1_555
H3B C2B 1_555 1_555
C3B N1B 1_555 1_555
H4B C3B 1_555 1_555
C4B C4 1_555 1_555
C5B N4B 1_555 1_555
H5B C5B 1_555 1_555
C6B C5B 1_555 1_555
H6B C6B 1_555 1_555
C7B C7 1_555 1_555
C8B P3B 1_555 1_555
C9A P1A 1_555 1_555
C10B N3B 1_555 1_555
H7B C10B 1_555 1_555
H9B O6B 1_555 1_555
H10B C8B 1_555 1_555
H11B C8B 1_555 1_555
H12A C9A 1_555 1_555
H13A C9A 1_555 1_555
H14B O15B 1_555 1_555
H15A O12A 1_555 1_555
H16A O13A 1_555 1_555
P2 C9 1_555 1_555
P4 O5 1_555 1_555
P4 C8 1_555 1_555
N2 C4 1_555 1_555
N4 C7 1_555 1_555
C2 C3 1_555 1_555
C6 C10 1_555 1_555
P2A O8A 1_555 1_555
P2A C9A 1_555 1_555
P3B O4B 1_555 1_555
P4B O5B 1_555 1_555
P4B C8B 1_555 1_555
N1B C4B 1_555 1_555
N2B C4B 1_555 1_555
N3B C7B 1_555 1_555
N4B C7B 1_555 1_555
C2B C3B 1_555 1_555
C6B C10B 1_555 1_555

#END
