
#######################################################################
#
#                 Cambridge Crystallographic Data Centre
#                                CCDC 
#
#######################################################################
#
# If this CIF has been generated from an entry in the Cambridge 
# Structural Database, then it will include bibliographic, chemical, 
# crystal, experimental, refinement or atomic coordinate data resulting 
# from the CCDC's data processing and validation procedures.
#
#######################################################################

data_DOZNUC
_symmetry_cell_setting           orthorhombic
_symmetry_space_group_name_H-M   'P 21 21 21'
_symmetry_Int_Tables_number      19
_space_group_name_Hall           'P 2ac 2ab'
loop_
_symmetry_equiv_pos_site_id
_symmetry_equiv_pos_as_xyz
1 x,y,z
2 1/2-x,-y,1/2+z
3 -x,1/2+y,1/2-z
4 1/2+x,1/2-y,-z
_cell_length_a                   3.5976(3)
_cell_length_b                   8.4639(6)
_cell_length_c                   23.5459(17)
_cell_angle_alpha                90
_cell_angle_beta                 90
_cell_angle_gamma                90
_cell_volume                     716.966
loop_
_atom_site_label
_atom_site_type_symbol
_atom_site_fract_x
_atom_site_fract_y
_atom_site_fract_z
Ag1 Ag 0.88434(5) 0.85068(2) 0.225563(7)
C1 C 0.6934(6) 1.1989(3) 0.18628(10)
C2 C 0.5606(7) 1.0992(3) 0.13690(10)
C3 C 0.4179(7) 1.1704(3) 0.08798(9)
H1 H 0.3962 1.2821 0.0855
C4 C 0.3091(6) 1.0754(3) 0.04329(10)
H2 H 0.2180 1.1209 0.0091
C5 C 0.3348(7) 0.9123(3) 0.04902(10)
H3 H 0.2588 0.8445 0.0190
C6 C 0.4737(6) 0.8503(3) 0.09937(9)
C7 C 0.4865(6) 0.6726(3) 0.10675(10)
H4 H 0.625(9) 0.536(4) 0.1594(12)
N1 N 0.5908(6) 0.9421(2) 0.14258(8)
O1 O 0.5965(5) 1.34157(19) 0.18708(7)
O2 O 0.6347(7) 0.6301(2) 0.15529(7)
O3 O 0.3673(6) 0.58403(19) 0.07083(7)
O4 O 0.8923(4) 1.13508(18) 0.22381(6)
Ag1B Ag 1.11566(5) 1.35068(2) 0.274437(7)
O4B O 1.1077(4) 0.63508(18) 0.27619(6)
loop_
_geom_bond_atom_site_label_1
_geom_bond_atom_site_label_2
_geom_bond_site_symmetry_1
_geom_bond_site_symmetry_2
Ag1 N1 1_555 1_555
C1 C2 1_555 1_555
C2 C3 1_555 1_555
C3 H1 1_555 1_555
C4 C3 1_555 1_555
H2 C4 1_555 1_555
C5 C4 1_555 1_555
H3 C5 1_555 1_555
C6 C5 1_555 1_555
C7 C6 1_555 1_555
H4 O2 1_555 1_555
N1 C2 1_555 1_555
O1 C1 1_555 1_555
O2 C7 1_555 1_555
O3 C7 1_555 1_555
O4 Ag1 1_555 1_555
Ag1B O4 1_555 1_555
O4B Ag1 1_555 1_555
C1 O4 1_555 1_555
C6 N1 1_555 1_555

#END
