
#######################################################################
#
#                 Cambridge Crystallographic Data Centre
#                                CCDC 
#
#######################################################################
#
# If this CIF has been generated from an entry in the Cambridge 
# Structural Database, then it will include bibliographic, chemical, 
# crystal, experimental, refinement or atomic coordinate data resulting 
# from the CCDC's data processing and validation procedures.
#
#######################################################################

data_DOZNAI
_symmetry_cell_setting           monoclinic
_symmetry_space_group_name_H-M   'C 2/m'
_symmetry_Int_Tables_number      12
_space_group_name_Hall           '-C 2y'
loop_
_symmetry_equiv_pos_site_id
_symmetry_equiv_pos_as_xyz
1 x,y,z
2 -x,y,-z
3 1/2+x,1/2+y,z
4 1/2-x,1/2+y,-z
5 -x,-y,-z
6 x,-y,z
7 1/2-x,1/2-y,-z
8 1/2+x,1/2-y,z
_cell_length_a                   10.693(1)
_cell_length_b                   13.320(1)
_cell_length_c                   3.6804(4)
_cell_angle_alpha                90
_cell_angle_beta                 100.605(2)
_cell_angle_gamma                90
_cell_volume                     515.248
loop_
_atom_site_label
_atom_site_type_symbol
_atom_site_fract_x
_atom_site_fract_y
_atom_site_fract_z
Cu1 Cu 0.0000 0.290095(19) 0.5000
Cl1 Cl 0.0000 0.18765(4) 0.0000
N1 N 0.12039(11) 0.41018(9) 0.4410(3)
C1 C 0.30125(19) 0.5000 0.3202(6)
H1 H 0.3840 0.5000 0.2608
C2 C 0.23889(13) 0.41094(11) 0.3650(4)
H2 H 0.2807 0.3490 0.3415
C3 C 0.06652(18) 0.5000 0.4674(5)
Cu1_2 Cu 0.0000 0.290095(19) 1.5000
Cu1_3 Cu 0.0000 0.290095(19) -0.5000
Cu1D Cu 0.0000 0.709905(19) 0.5000
Cl1_2 Cl 0.0000 0.18765(4) 1.0000
Cl1_3 Cl 0.0000 0.18765(4) 2.0000
N1E N 0.12039(11) 0.58982(9) 0.4410(3)
N1A N -0.12039(11) 0.41018(9) 0.5590(3)
N1D N -0.12039(11) 0.58982(9) 0.5590(3)
N1_2 N 0.12039(11) 0.41018(9) 1.4410(3)
N1A_2 N -0.12039(11) 0.41018(9) 1.5590(3)
C1A C -0.30125(19) 0.5000 0.6798(6)
H1A H -0.3840 0.5000 0.7392
C2E C 0.23889(13) 0.58906(11) 0.3650(4)
C2A C -0.23889(13) 0.41094(11) 0.6350(4)
C2D C -0.23889(13) 0.58906(11) 0.6350(4)
H2D H -0.2807 0.6510 0.6585
H2A H -0.2807 0.3490 0.6585
H2E H 0.2807 0.6510 0.3415
C3A C -0.06652(18) 0.5000 0.5326(5)
loop_
_geom_bond_atom_site_label_1
_geom_bond_atom_site_label_2
_geom_bond_site_symmetry_1
_geom_bond_site_symmetry_2
Cu1 Cl1 1_555 1_555
Cl1 Cu1_3 1_555 1_555
N1 Cu1 1_555 1_555
C1 H1 1_555 1_555
C2 N1 1_555 1_555
H2 C2 1_555 1_555
C3 N1 1_555 1_555
Cu1_2 Cl1_2 1_555 1_555
Cu1D N1E 1_555 1_555
Cl1_2 Cu1 1_555 1_555
Cl1_3 Cu1_2 1_555 1_555
N1E C3 1_555 1_555
N1A Cu1 1_555 1_555
N1D Cu1D 1_555 1_555
N1_2 Cu1_2 1_555 1_555
N1A_2 Cu1_2 1_555 1_555
C1A H1A 1_555 1_555
C2E C1 1_555 1_555
C2A N1A 1_555 1_555
C2D N1D 1_555 1_555
H2D C2D 1_555 1_555
H2A C2A 1_555 1_555
H2E C2E 1_555 1_555
C3A C3 1_555 1_555
C1 C2 1_555 1_555
N1E C2E 1_555 1_555
N1A C3A 1_555 1_555
N1D C3A 1_555 1_555
C1A C2A 1_555 1_555
C1A C2D 1_555 1_555

#END
