
#######################################################################
#
#                 Cambridge Crystallographic Data Centre
#                                CCDC 
#
#######################################################################
#
# If this CIF has been generated from an entry in the Cambridge 
# Structural Database, then it will include bibliographic, chemical, 
# crystal, experimental, refinement or atomic coordinate data resulting 
# from the CCDC's data processing and validation procedures.
#
#######################################################################

data_DOZNEM
_symmetry_cell_setting           orthorhombic
_symmetry_space_group_name_H-M   'P 21 21 2'
_symmetry_Int_Tables_number      18
_space_group_name_Hall           'P 2 2ab'
loop_
_symmetry_equiv_pos_site_id
_symmetry_equiv_pos_as_xyz
1 x,y,z
2 -x,-y,z
3 1/2-x,1/2+y,-z
4 1/2+x,1/2-y,-z
_cell_length_a                   15.5417(12)
_cell_length_b                   15.5422(12)
_cell_length_c                   3.6476(3)
_cell_angle_alpha                90
_cell_angle_beta                 90
_cell_angle_gamma                90
_cell_volume                     881.086
loop_
_atom_site_label
_atom_site_type_symbol
_atom_site_fract_x
_atom_site_fract_y
_atom_site_fract_z
N4 N 0.4236(5) -0.9213(4) -0.640(2)
O3 O 0.4783(7) -0.9731(7) -0.610(3)
O4 O 0.4063(10) -0.8896(9) -0.978(2)
O5 O 0.3748(8) -0.8744(7) -0.359(3)
N4A N 0.5764(5) -1.0787(4) -0.640(2)
N4_2 N 0.4236(5) -0.9213(4) -1.640(2)
N4_3 N 0.4236(5) -0.9213(4) 0.360(2)
O3A O 0.5217(7) -1.0269(7) -0.610(3)
O4_2 O 0.4063(10) -0.8896(9) 0.022(2)
O5_2 O 0.3748(8) -0.8744(7) -1.359(3)
Ag1 Ag 0.5000 -0.5000 0.19542(13)
N1 N 0.2576(3) -0.2321(3) 0.2649(11)
N2 N 0.3093(3) -0.3949(3) 0.4037(16)
H1 H 0.3234 -0.4484 0.4556
H2 H 0.2574 -0.3758 0.4560
N3 N 0.0984(3) -0.1942(3) 0.4842(14)
H3 H 0.0461 -0.1855 0.5689
H4 H 0.1213 -0.2460 0.4939
O1 O 0.4405(2) -0.3652(2) 0.1643(13)
O2 O 0.1151(3) -0.0551(2) 0.3190(12)
C1 C 0.2322(3) -0.1505(3) 0.2094(13)
C2 C 0.2844(3) -0.0884(3) 0.0511(15)
H5 H 0.2649 -0.0309 0.0219
C3 C 0.3640(5) -0.1123(4) -0.0609(15)
H6 H 0.3994 -0.0721 -0.1867
C4 C 0.3948(4) -0.1956(3) 0.0067(14)
H7 H 0.4521 -0.2118 -0.0524
C5 C 0.3375(3) -0.2532(3) 0.1643(13)
C6 C 0.3657(3) -0.3436(3) 0.2479(12)
C7 C 0.1424(4) -0.1299(4) 0.3432(13)
Ag1B Ag 0.0000 0.0000 0.80458(13)
Ag1B_2 Ag 1.0000 -1.0000 0.80458(13)
N1A N 0.7424(3) -0.7679(3) 0.2649(11)
N2A N 0.6907(3) -0.6051(3) 0.4037(16)
H1A H 0.6766 -0.5516 0.4556
H2A H 0.7426 -0.6242 0.4560
N3A N 0.9016(3) -0.8058(3) 0.4842(14)
H3A H 0.9539 -0.8145 0.5689
H4A H 0.8787 -0.7540 0.4939
O1A O 0.5595(2) -0.6348(2) 0.1643(13)
O2A O 0.8849(3) -0.9449(2) 0.3190(12)
O2C O 0.6151(3) -0.4449(2) 0.6810(12)
O2B O 0.3849(3) -0.5551(2) 0.6810(12)
C1A C 0.7678(3) -0.8495(3) 0.2094(13)
C2A C 0.7156(3) -0.9116(3) 0.0511(15)
H5A H 0.7351 -0.9691 0.0219
C3A C 0.6360(5) -0.8877(4) -0.0609(15)
H6A H 0.6006 -0.9279 -0.1867
C4A C 0.6052(4) -0.8044(3) 0.0067(14)
H7A H 0.5479 -0.7882 -0.0524
C5A C 0.6625(3) -0.7468(3) 0.1643(13)
C6A C 0.6343(3) -0.6564(3) 0.2479(12)
C7A C 0.8576(4) -0.8701(4) 0.3432(13)
loop_
_geom_bond_atom_site_label_1
_geom_bond_atom_site_label_2
_geom_bond_site_symmetry_1
_geom_bond_site_symmetry_2
Ag1 O1 1_555 1_555
N1 C1 1_555 1_555
N2 H1 1_555 1_555
H2 N2 1_555 1_555
N3 H3 1_555 1_555
H4 N3 1_555 1_555
O1 C6 1_555 1_555
O2 C7 1_555 1_555
C1 C2 1_555 1_555
C2 H5 1_555 1_555
C3 C2 1_555 1_555
H6 C3 1_555 1_555
C4 C3 1_555 1_555
H7 C4 1_555 1_555
C5 N1 1_555 1_555
C6 N2 1_555 1_555
C7 N3 1_555 1_555
N4 O3 1_555 1_555
O3 O3A 1_555 1_555
O4 N4 1_555 1_555
O5 N4 1_555 1_555
Ag1B O2 1_555 1_555
Ag1B_2 O2A 1_555 1_555
N1A C1A 1_555 1_555
N2A H1A 1_555 1_555
H2A N2A 1_555 1_555
N3A H3A 1_555 1_555
H4A N3A 1_555 1_555
O1A Ag1 1_555 1_555
O2A C7A 1_555 1_555
O2C Ag1 1_555 1_555
O2B Ag1 1_555 1_555
C1A C2A 1_555 1_555
C2A H5A 1_555 1_555
C3A C2A 1_555 1_555
H6A C3A 1_555 1_555
C4A C3A 1_555 1_555
H7A C4A 1_555 1_555
C5A N1A 1_555 1_555
C6A N2A 1_555 1_555
C7A N3A 1_555 1_555
N4A O3A 1_555 1_555
N4_2 O5_2 1_555 1_555
N4_3 O4_2 1_555 1_555
O4_2 O5 1_555 1_555
O5_2 O4 1_555 1_555
C1 C7 1_555 1_555
C4 C5 1_555 1_555
C5 C6 1_555 1_555
O1A C6A 1_555 1_555
C1A C7A 1_555 1_555
C4A C5A 1_555 1_555
C5A C6A 1_555 1_555

#END
