
#######################################################################
#
#                 Cambridge Crystallographic Data Centre
#                                CCDC 
#
#######################################################################
#
# If this CIF has been generated from an entry in the Cambridge 
# Structural Database, then it will include bibliographic, chemical, 
# crystal, experimental, refinement or atomic coordinate data resulting 
# from the CCDC's data processing and validation procedures.
#
#######################################################################

data_DOZQUF
_symmetry_cell_setting           orthorhombic
_symmetry_space_group_name_H-M   'P 21 21 21'
_symmetry_Int_Tables_number      19
_space_group_name_Hall           'P 2ac 2ab'
loop_
_symmetry_equiv_pos_site_id
_symmetry_equiv_pos_as_xyz
1 x,y,z
2 1/2-x,-y,1/2+z
3 -x,1/2+y,1/2-z
4 1/2+x,1/2-y,-z
_cell_length_a                   7.4854(9)
_cell_length_b                   9.7820(11)
_cell_length_c                   9.9972(11)
_cell_angle_alpha                90
_cell_angle_beta                 90
_cell_angle_gamma                90
_cell_volume                     732.017
loop_
_atom_site_label
_atom_site_type_symbol
_atom_site_fract_x
_atom_site_fract_y
_atom_site_fract_z
Cu1 Cu 0.06103(5) 0.04383(3) 0.33383(3)
S1 S -0.05479(10) -0.02626(7) -0.16659(7)
O1 O 0.0252(3) 0.2323(2) 0.2720(2)
O2 O -0.0311(3) 0.35801(19) 0.0910(2)
O3 O 0.1317(4) -0.0511(4) -0.1868(3)
O4 O -0.1467(4) 0.0063(3) -0.2917(2)
O5 O -0.1481(5) -0.1329(3) -0.0940(3)
O6 O 0.0857(4) 0.1050(2) 0.5197(2)
N1 N 0.0323(4) -0.0012(2) 0.1427(2)
H1 H 0.1178 -0.0607 0.1180
H2 H -0.0745 -0.0414 0.1298
C1 C 0.0077(4) 0.2474(3) 0.1489(3)
C2 C 0.0445(4) 0.1228(3) 0.0596(3)
H3 H 0.1681 0.1300 0.0280
C3 C -0.0762(5) 0.1219(3) -0.0633(3)
H4 H -0.0497 0.2021 -0.1169
H5 H -0.1994 0.1292 -0.0340
H6 H 0.101(5) 0.1870(14) 0.535(4)
H7 H 0.017(6) 0.070(4) 0.575(4)
Cu1B Cu -0.06103(5) 0.54383(3) 0.16617(3)
Cu1A Cu 0.43897(5) -0.04383(3) -0.16617(3)
O2B O 0.0311(3) -0.14199(19) 0.4090(2)
O3A O 0.3683(4) 0.0511(4) 0.3132(3)
loop_
_geom_bond_atom_site_label_1
_geom_bond_atom_site_label_2
_geom_bond_site_symmetry_1
_geom_bond_site_symmetry_2
Cu1 O1 1_555 1_555
S1 O3 1_555 1_555
O1 C1 1_555 1_555
O2 C1 1_555 1_555
O3 Cu1A 1_555 1_555
O4 S1 1_555 1_555
O5 S1 1_555 1_555
O6 Cu1 1_555 1_555
N1 Cu1 1_555 1_555
H1 N1 1_555 1_555
H2 N1 1_555 1_555
C1 C2 1_555 1_555
C2 N1 1_555 1_555
H3 C2 1_555 1_555
C3 S1 1_555 1_555
H4 C3 1_555 1_555
H5 C3 1_555 1_555
H6 O6 1_555 1_555
H7 O6 1_555 1_555
Cu1B O2 1_555 1_555
O2B Cu1 1_555 1_555
O3A Cu1 1_555 1_555
C2 C3 1_555 1_555

#END
