
#######################################################################
#
#                 Cambridge Crystallographic Data Centre
#                                CCDC 
#
#######################################################################
#
# If this CIF has been generated from an entry in the Cambridge 
# Structural Database, then it will include bibliographic, chemical, 
# crystal, experimental, refinement or atomic coordinate data resulting 
# from the CCDC's data processing and validation procedures.
#
#######################################################################

data_DOZRAM
_symmetry_cell_setting           orthorhombic
_symmetry_space_group_name_H-M   'P 21 21 21'
_symmetry_Int_Tables_number      19
_space_group_name_Hall           'P 2ac 2ab'
loop_
_symmetry_equiv_pos_site_id
_symmetry_equiv_pos_as_xyz
1 x,y,z
2 1/2-x,-y,1/2+z
3 -x,1/2+y,1/2-z
4 1/2+x,1/2-y,-z
_cell_length_a                   7.0758(4)
_cell_length_b                   9.7611(5)
_cell_length_c                   10.4967(7)
_cell_angle_alpha                90
_cell_angle_beta                 90
_cell_angle_gamma                90
_cell_volume                     724.982
loop_
_atom_site_label
_atom_site_type_symbol
_atom_site_fract_x
_atom_site_fract_y
_atom_site_fract_z
Cd1 Cd 0.56808(2) 0.434960(16) -0.180570(17)
S1 S 0.42371(8) 0.49769(5) -0.69011(5)
C1 C 0.4560(3) 0.2264(2) -0.3856(2)
C2 C 0.4316(4) 0.3648(2) -0.4554(2)
H1 H 0.3010 0.3942 -0.4410
C3 C 0.4546(4) 0.3454(2) -0.5992(2)
H2 H 0.3635 0.2778 -0.6279
H3 H 0.5798 0.3091 -0.6158
N1 N 0.5543(4) 0.46873(18) -0.3963(2)
H4 H 0.5085 0.5529 -0.4127
H5 H 0.6712 0.4632 -0.4296
O1 O 0.4050(3) 0.12018(16) -0.44596(18)
O2 O 0.5967(5) 0.3173(3) 0.0056(2)
H6 H 0.529(6) 0.346(5) 0.051(5)
H7 H 0.655(8) 0.261(6) 0.008(5)
O3 O 0.5156(3) 0.22462(17) -0.27442(18)
O4 O 0.2641(2) 0.57199(19) -0.63365(18)
O5 O 0.5969(3) 0.57836(18) -0.6777(2)
O6 O 0.3848(3) 0.4532(2) -0.81880(19)
Cd1A Cd -0.06808(2) 0.565040(16) -0.680570(17)
Cd1A_2 Cd 0.93192(2) 0.565040(16) -0.680570(17)
Cd1B Cd 0.43192(2) -0.065040(16) -0.319430(17)
O1B O 0.5950(3) 0.62018(16) -0.05404(18)
O4A O 0.2359(2) 0.42801(19) -0.13365(18)
O5A O 0.9031(3) 0.42164(18) -0.1777(2)
loop_
_geom_bond_atom_site_label_1
_geom_bond_atom_site_label_2
_geom_bond_site_symmetry_1
_geom_bond_site_symmetry_2
Cd1 N1 1_555 1_555
S1 C3 1_555 1_555
C1 C2 1_555 1_555
C2 H1 1_555 1_555
C3 C2 1_555 1_555
H2 C3 1_555 1_555
H3 C3 1_555 1_555
N1 C2 1_555 1_555
H4 N1 1_555 1_555
H5 N1 1_555 1_555
O1 C1 1_555 1_555
O2 Cd1 1_555 1_555
H6 O2 1_555 1_555
H7 O2 1_555 1_555
O3 Cd1 1_555 1_555
O4 S1 1_555 1_555
O5 S1 1_555 1_555
O6 S1 1_555 1_555
Cd1A O4 1_555 1_555
Cd1A_2 O5 1_555 1_555
Cd1B O1 1_555 1_555
O1B Cd1 1_555 1_555
O4A Cd1 1_555 1_555
O5A Cd1 1_555 1_555
C1 O3 1_555 1_555

#END
