
#######################################################################
#
#                 Cambridge Crystallographic Data Centre
#                                CCDC 
#
#######################################################################
#
# If this CIF has been generated from an entry in the Cambridge 
# Structural Database, then it will include bibliographic, chemical, 
# crystal, experimental, refinement or atomic coordinate data resulting 
# from the CCDC's data processing and validation procedures.
#
#######################################################################

data_DOZXAT
_symmetry_cell_setting           monoclinic
_symmetry_space_group_name_H-M   'P 21'
_symmetry_Int_Tables_number      4
_space_group_name_Hall           'P 2yb'
loop_
_symmetry_equiv_pos_site_id
_symmetry_equiv_pos_as_xyz
1 x,y,z
2 -x,1/2+y,-z
_cell_length_a                   9.4542(9)
_cell_length_b                   7.5259(7)
_cell_length_c                   13.7688(12)
_cell_angle_alpha                90
_cell_angle_beta                 93.4327(12)
_cell_angle_gamma                90
_cell_volume                     977.911
loop_
_atom_site_label
_atom_site_type_symbol
_atom_site_fract_x
_atom_site_fract_y
_atom_site_fract_z
Cu1 Cu -0.85935(2) -0.76418(3) -0.07460(2)
Cl1 Cl -1.03387(4) -0.65213(6) 0.01842(3)
Cl2 Cl -0.68699(4) -0.85232(6) -0.17087(3)
N1 N -0.72461(14) -0.7677(2) 0.04343(10)
N2 N -0.55378(15) -0.8213(2) 0.15736(11)
N3 N -0.56904(16) -0.5400(2) 0.25261(11)
N4 N -0.99473(15) -0.7440(2) -0.19209(11)
N5 N -1.11522(14) -0.7824(2) -0.33379(10)
N6 N -1.23494(16) -0.4875(2) -0.34792(12)
O1 O -0.62766(14) -0.3937(2) 0.25287(11)
O2 O -0.48370(15) -0.5931(2) 0.31707(10)
O3 O -0.25978(16) -0.9283(2) 0.10083(11)
H1 H -0.216(3) -0.869(4) 0.083(2)
O4 O -1.23827(15) -0.3381(2) -0.31131(10)
O5 O -1.31059(14) -0.5350(2) -0.41890(11)
O6 O -0.95962(15) -0.8575(2) -0.51414(11)
H2 H -0.910(3) -0.800(4) -0.471(2)
C1 C -0.62827(18) -0.8871(3) 0.07811(13)
C2 C -0.71092(19) -0.6211(2) 0.10219(13)
H3 H -0.7656 -0.5154 0.0953
C3 C -0.60635(18) -0.6521(3) 0.17171(13)
C4 C -0.60606(19) -1.0693(3) 0.04056(14)
H4 H -0.6623 -1.0853 -0.0210
H5 H -0.6358 -1.1565 0.0881
H6 H -0.5055 -1.0865 0.0297
C5 C -0.44366(19) -0.9203(3) 0.21554(13)
H7 H -0.4552 -1.0489 0.2020
H8 H -0.4574 -0.9012 0.2855
C6 C -0.29417(19) -0.8651(3) 0.19439(14)
H9 H -0.2865 -0.7339 0.1963
H10 H -0.2262 -0.9143 0.2449
C7 C -1.02613(18) -0.8580(3) -0.26524(13)
C8 C -1.06483(19) -0.5890(3) -0.21462(13)
H11 H -1.0623 -0.4841 -0.1761
C9 C -1.13874(18) -0.6109(2) -0.30163(13)
C10 C -0.9741(2) -1.0440(3) -0.27103(14)
H12 H -0.9373 -1.0829 -0.2065
H13 H -0.8985 -1.0499 -0.3166
H14 H -1.0524 -1.1217 -0.2939
C11 C -1.1734(2) -0.8702(3) -0.42371(12)
H15 H -1.2765 -0.8473 -0.4318
H16 H -1.1593 -1.0002 -0.4177
C12 C -1.10267(19) -0.8038(3) -0.51274(13)
H17 H -1.1555 -0.8491 -0.5719
H18 H -1.1073 -0.6724 -0.5143
Cu1A Cu -0.14065(2) -1.26418(3) 0.07460(2)
O3A O -0.74022(16) -0.4283(2) -0.10083(11)
O7 O -0.76359(17) -0.6972(2) -0.38481(13)
H19 H -0.748(2) -0.729(4) -0.3383(17)
C13 C -0.6332(2) -0.6873(3) -0.43145(16)
H20 H -0.6005 -0.5638 -0.4319
H21 H -0.6474 -0.7303 -0.4985
H22 H -0.5620 -0.7612 -0.3960
loop_
_geom_bond_atom_site_label_1
_geom_bond_atom_site_label_2
_geom_bond_site_symmetry_1
_geom_bond_site_symmetry_2
Cu1 Cl1 1_555 1_555
Cl2 Cu1 1_555 1_555
N1 Cu1 1_555 1_555
N2 C1 1_555 1_555
N3 O1 1_555 1_555
N4 Cu1 1_555 1_555
N5 C7 1_555 1_555
N6 O4 1_555 1_555
O2 N3 1_555 1_555
O3 H1 1_555 1_555
O5 N6 1_555 1_555
O6 H2 1_555 1_555
C1 N1 1_555 1_555
C2 N1 1_555 1_555
H3 C2 1_555 1_555
C3 N2 1_555 1_555
C4 C1 1_555 1_555
H4 C4 1_555 1_555
H5 C4 1_555 1_555
H6 C4 1_555 1_555
C5 N2 1_555 1_555
H7 C5 1_555 1_555
H8 C5 1_555 1_555
C6 O3 1_555 1_555
H9 C6 1_555 1_555
H10 C6 1_555 1_555
C7 N4 1_555 1_555
C8 N4 1_555 1_555
H11 C8 1_555 1_555
C9 N5 1_555 1_555
C10 C7 1_555 1_555
H12 C10 1_555 1_555
H13 C10 1_555 1_555
H14 C10 1_555 1_555
C11 N5 1_555 1_555
H15 C11 1_555 1_555
H16 C11 1_555 1_555
C12 O6 1_555 1_555
H17 C12 1_555 1_555
H18 C12 1_555 1_555
O7 H19 1_555 1_555
C13 O7 1_555 1_555
H20 C13 1_555 1_555
H21 C13 1_555 1_555
H22 C13 1_555 1_555
Cu1A O3 1_555 1_555
O3A Cu1 1_555 1_555
N3 C3 1_555 1_555
N6 C9 1_555 1_555
C2 C3 1_555 1_555
C5 C6 1_555 1_555
C8 C9 1_555 1_555
C11 C12 1_555 1_555

#END
