
#######################################################################
#
#                 Cambridge Crystallographic Data Centre
#                                CCDC 
#
#######################################################################
#
# If this CIF has been generated from an entry in the Cambridge 
# Structural Database, then it will include bibliographic, chemical, 
# crystal, experimental, refinement or atomic coordinate data resulting 
# from the CCDC's data processing and validation procedures.
#
#######################################################################

data_DOZYEW
_symmetry_cell_setting           monoclinic
_symmetry_space_group_name_H-M   'P 21/n'
_symmetry_Int_Tables_number      14
_space_group_name_Hall           '-P 2yn'
loop_
_symmetry_equiv_pos_site_id
_symmetry_equiv_pos_as_xyz
1 x,y,z
2 1/2-x,1/2+y,1/2-z
3 -x,-y,-z
4 1/2+x,1/2-y,1/2+z
_cell_length_a                   6.633(5)
_cell_length_b                   21.146(7)
_cell_length_c                   7.698(4)
_cell_angle_alpha                90
_cell_angle_beta                 100.1(2)
_cell_angle_gamma                90
_cell_volume                     1063
loop_
_atom_site_label
_atom_site_type_symbol
_atom_site_fract_x
_atom_site_fract_y
_atom_site_fract_z
Cu1 Cu 0.5914(1) 0.5300 -0.3071(1)
N1 N 0.6599(5) 0.6081(1) -0.4328(4)
N2 N 0.5355(4) 0.5729(1) -0.0978(4)
O1 O 0.2990(4) 0.5219(1) -0.5190(3)
O2 O 0.4561(4) 0.5486(1) 0.1759(3)
O3 O 0.1010(4) 0.5971(1) -0.4417(4)
C1 C 0.4969(5) 0.5343(2) 0.0245(5)
C2 C 0.5869(6) 0.6689(2) -0.3740(5)
C3 C 0.6480(6) 0.6812(2) -0.1756(5)
C4 C 0.5981(8) 0.7506(2) -0.1421(6)
C5 C 0.8780(7) 0.6697(2) -0.1163(6)
C6 C 0.5222(7) 0.6410(2) -0.0677(5)
C7 C 0.1420(5) 0.5590(2) -0.5508(5)
C8 C 0.0071(6) 0.5534(3) -0.7303(6)
H1 H 0.7754(5) 0.6042(1) -0.4895(4)
H2 H 0.6418(6) 0.7019(2) -0.4353(5)
H3 H 0.4417(6) 0.6695(2) -0.4035(5)
H4 H 0.6729(8) 0.7773(2) -0.2068(6)
H5 H 0.6348(8) 0.7596(2) -0.0197(6)
H6 H 0.4556(8) 0.7576(2) -0.1790(6)
H7 H 0.9087(7) 0.6268(2) -0.1371(6)
H8 H 0.9150(7) 0.6788(2) 0.0061(6)
H9 H 0.9527(7) 0.6965(2) -0.1812(6)
H10 H 0.5450(7) 0.6626(2) 0.0423(5)
H11 H 0.3866(7) 0.6489(2) -0.1271(5)
H12 H -0.1027(6) 0.5827(3) -0.7385(6)
H13 H -0.0463(6) 0.5117(3) -0.7456(6)
H14 H 0.0855(6) 0.5623(3) -0.8194(6)
C1B C 0.5031(5) 0.4657(2) -0.0245(5)
N2B N 0.4645(4) 0.4271(1) 0.0978(4)
C6B C 0.4778(7) 0.3590(2) 0.0677(5)
C3B C 0.3520(6) 0.3188(2) 0.1756(5)
C2B C 0.4131(6) 0.3311(2) 0.3740(5)
N1B N 0.3401(5) 0.3919(1) 0.4328(4)
H1B H 0.2246(5) 0.3958(1) 0.4895(4)
H2B H 0.3582(6) 0.2981(2) 0.4353(5)
H3B H 0.5583(6) 0.3305(2) 0.4035(5)
C4B C 0.4019(8) 0.2494(2) 0.1421(6)
H4B H 0.3271(8) 0.2227(2) 0.2068(6)
H5B H 0.3652(8) 0.2404(2) 0.0197(6)
H6B H 0.5444(8) 0.2424(2) 0.1790(6)
C5B C 0.1220(7) 0.3303(2) 0.1163(6)
H7B H 0.0913(7) 0.3732(2) 0.1371(6)
H8B H 0.0850(7) 0.3212(2) -0.0061(6)
H9B H 0.0473(7) 0.3035(2) 0.1812(6)
H10B H 0.4550(7) 0.3374(2) -0.0423(5)
H11B H 0.6134(7) 0.3511(2) 0.1271(5)
O2B O 0.5439(4) 0.4514(1) -0.1759(3)
O1B O 0.7010(4) 0.4781(1) -0.4810(3)
O3B O 0.8990(4) 0.4029(1) -0.5583(4)
C7B C 0.8580(5) 0.4410(2) -0.4492(5)
C8B C 0.9929(6) 0.4466(3) -0.2697(6)
H12B H 1.1027(6) 0.4173(3) -0.2615(6)
H13B H 1.0463(6) 0.4883(3) -0.2544(6)
H14B H 0.9145(6) 0.4377(3) -0.1806(6)
Cu1B Cu 0.4086(1) 0.4700 0.3071(1)
Cu1B_2 Cu 0.4086(1) 0.4700 -0.6929(1)
O1_2 O 0.2990(4) 0.5219(1) 0.4810(3)
O1B_2 O 0.7010(4) 0.4781(1) 0.5190(3)
loop_
_geom_bond_atom_site_label_1
_geom_bond_atom_site_label_2
_geom_bond_site_symmetry_1
_geom_bond_site_symmetry_2
Cu1 N1 1_555 1_555
N1 C2 1_555 1_555
N2 Cu1 1_555 1_555
O1 Cu1 1_555 1_555
O2 C1 1_555 1_555
O3 C7 1_555 1_555
C1 N2 1_555 1_555
C2 C3 1_555 1_555
C3 C4 1_555 1_555
C4 H4 1_555 1_555
C5 C3 1_555 1_555
C6 N2 1_555 1_555
C7 O1 1_555 1_555
C8 C7 1_555 1_555
H1 N1 1_555 1_555
H2 C2 1_555 1_555
H3 C2 1_555 1_555
H5 C4 1_555 1_555
H6 C4 1_555 1_555
H7 C5 1_555 1_555
H8 C5 1_555 1_555
H9 C5 1_555 1_555
H10 C6 1_555 1_555
H11 C6 1_555 1_555
H12 C8 1_555 1_555
H13 C8 1_555 1_555
H14 C8 1_555 1_555
C1B C1 1_555 1_555
N2B C1B 1_555 1_555
C6B N2B 1_555 1_555
C3B C6B 1_555 1_555
C2B C3B 1_555 1_555
N1B C2B 1_555 1_555
H1B N1B 1_555 1_555
H2B C2B 1_555 1_555
H3B C2B 1_555 1_555
C4B C3B 1_555 1_555
H4B C4B 1_555 1_555
H5B C4B 1_555 1_555
H6B C4B 1_555 1_555
C5B C3B 1_555 1_555
H7B C5B 1_555 1_555
H8B C5B 1_555 1_555
H9B C5B 1_555 1_555
H10B C6B 1_555 1_555
H11B C6B 1_555 1_555
O2B Cu1 1_555 1_555
O1B Cu1 1_555 1_555
O3B C7B 1_555 1_555
C7B O1B 1_555 1_555
C8B C7B 1_555 1_555
H12B C8B 1_555 1_555
H13B C8B 1_555 1_555
H14B C8B 1_555 1_555
Cu1B O2 1_555 1_555
Cu1B_2 O1 1_555 1_555
O1_2 Cu1B 1_555 1_555
O1B_2 Cu1B 1_555 1_555
C3 C6 1_555 1_555
C1B O2B 1_555 1_555
N2B Cu1B 1_555 1_555
N1B Cu1B 1_555 1_555
O1B Cu1B_2 1_555 1_555

#END
