
#######################################################################
#
#                 Cambridge Crystallographic Data Centre
#                                CCDC 
#
#######################################################################
#
# If this CIF has been generated from an entry in the Cambridge 
# Structural Database, then it will include bibliographic, chemical, 
# crystal, experimental, refinement or atomic coordinate data resulting 
# from the CCDC's data processing and validation procedures.
#
#######################################################################

data_DOZYEY
_symmetry_cell_setting           tetragonal
_symmetry_space_group_name_H-M   'P 41'
_symmetry_Int_Tables_number      76
_space_group_name_Hall           'P 4w'
loop_
_symmetry_equiv_pos_site_id
_symmetry_equiv_pos_as_xyz
1 x,y,z
2 -x,-y,1/2+z
3 -y,x,1/4+z
4 y,-x,3/4+z
_cell_length_a                   13.4450(5)
_cell_length_b                   13.4450(5)
_cell_length_c                   16.6501(13)
_cell_angle_alpha                90
_cell_angle_beta                 90
_cell_angle_gamma                90
_cell_volume                     3009.81
loop_
_atom_site_label
_atom_site_type_symbol
_atom_site_fract_x
_atom_site_fract_y
_atom_site_fract_z
Ag1 Ag 0.69884(3) 0.29136(3) 0.06455(3)
Ag2 Ag 0.74037(3) 0.30600(3) 0.23625(3)
S1 S 0.12142(10) -0.25132(10) 0.30283(9)
S2 S 0.25012(11) -0.57053(9) 0.13612(9)
N1 N 0.5644(3) 0.2017(3) 0.0887(3)
N2 N 0.2165(3) 0.0844(3) 0.1506(3)
N3 N -0.1309(3) 0.2095(3) 0.2059(3)
N4 N 0.8173(3) 0.4079(3) 0.0710(3)
N5 N 0.6651(3) 0.4525(3) 0.1882(3)
O1 O 0.1812(3) -0.1699(3) 0.3310(2)
O2 O 0.0233(3) -0.2206(3) 0.2784(3)
O3 O 0.1200(3) -0.3350(3) 0.3570(2)
O4 O 0.1692(3) -0.6113(3) 0.1825(3)
O5 O 0.2449(3) -0.5961(3) 0.0519(3)
O6 O 0.3462(3) -0.5888(3) 0.1708(3)
C1 C 0.5608(4) 0.1044(4) 0.0743(4)
H1 H 0.6168 0.0732 0.0532
C2 C 0.4782(4) 0.0487(4) 0.0892(4)
H2 H 0.4794 -0.0191 0.0780
C3 C 0.3928(4) 0.0904(4) 0.1207(3)
C4 C 0.3967(4) 0.1912(4) 0.1349(3)
H3 H 0.3411 0.2243 0.1545
C5 C 0.4839(4) 0.2431(4) 0.1199(4)
H4 H 0.4859 0.3105 0.1325
C6 C 0.3007(4) 0.0314(3) 0.1384(3)
C7 C 0.3038(4) -0.0703(4) 0.1426(3)
H5 H 0.3640 -0.1037 0.1374
C8 C 0.2152(4) -0.1239(3) 0.1547(3)
C9 C 0.1297(4) -0.0698(4) 0.1636(4)
H6 H 0.0694 -0.1027 0.1705
C10 C 0.1317(4) 0.0337(4) 0.1626(3)
C11 C -0.1349(4) 0.1109(4) 0.2000(4)
H7 H -0.1964 0.0803 0.2065
C12 C -0.0541(4) 0.0514(4) 0.1848(4)
H8 H -0.0620 -0.0171 0.1805
C13 C 0.0392(4) 0.0934(4) 0.1759(3)
C14 C 0.0432(4) 0.1961(4) 0.1815(3)
H9 H 0.1037 0.2285 0.1750
C15 C -0.0395(4) 0.2498(4) 0.1964(4)
H10 H -0.0333 0.3186 0.2003
C16 C 0.2211(4) -0.2335(3) 0.1544(4)
C17 C 0.1801(3) -0.2949(4) 0.2142(3)
C18 C 0.1886(4) -0.3973(4) 0.2064(3)
H11 H 0.1621 -0.4380 0.2462
C19 C 0.2350(4) -0.4403(4) 0.1416(3)
C20 C 0.2766(4) -0.3803(4) 0.0828(4)
H12 H 0.3096 -0.4086 0.0393
C21 C 0.2684(4) -0.2771(4) 0.0893(4)
H13 H 0.2952 -0.2369 0.0493
C22 C 0.9059(4) 0.3856(5) 0.0384(4)
H14 H 0.9137 0.3236 0.0145
C23 C 0.9854(5) 0.4494(6) 0.0385(4)
H15 H 1.0458 0.4306 0.0158
C24 C 0.9741(5) 0.5415(5) 0.0728(5)
H16 H 1.0264 0.5867 0.0728
C25 C 0.8847(5) 0.5661(5) 0.1070(4)
H17 H 0.8755 0.6283 0.1303
C26 C 0.8078(4) 0.4969(4) 0.1063(3)
C27 C 0.7096(4) 0.5217(4) 0.1434(4)
C28 C 0.6686(5) 0.6144(4) 0.1310(4)
H18 H 0.7027 0.6620 0.1013
C29 C 0.5780(6) 0.6357(5) 0.1627(5)
H19 H 0.5492 0.6978 0.1544
C30 C 0.5293(5) 0.5649(5) 0.2070(4)
H20 H 0.4667 0.5777 0.2285
C31 C 0.5748(4) 0.4744(4) 0.2189(4)
H21 H 0.5421 0.4264 0.2493
O7 O 0.8066(4) 0.1723(3) -0.0021(3)
H22 H 0.794(6) 0.111(2) 0.005(5)
H23 H 0.784(6) 0.158(6) -0.048(2)
Ag2_2 Ag -0.25963(3) 0.30600(3) 0.23625(3)
Ag2C Ag 0.30600(3) -0.74037(3) -0.01375(3)
N3_2 N 0.8691(3) 0.2095(3) 0.2059(3)
O5B O 0.5961(3) 0.2449(3) 0.3019(3)
loop_
_geom_bond_atom_site_label_1
_geom_bond_atom_site_label_2
_geom_bond_site_symmetry_1
_geom_bond_site_symmetry_2
Ag1 Ag2 1_555 1_555
Ag2 N5 1_555 1_555
S1 O1 1_555 1_555
S2 O4 1_555 1_555
N1 Ag1 1_555 1_555
N2 C6 1_555 1_555
N3 C11 1_555 1_555
N4 Ag1 1_555 1_555
N5 C27 1_555 1_555
O2 S1 1_555 1_555
O3 S1 1_555 1_555
O5 S2 1_555 1_555
O6 S2 1_555 1_555
C1 N1 1_555 1_555
H1 C1 1_555 1_555
C2 C1 1_555 1_555
H2 C2 1_555 1_555
C3 C2 1_555 1_555
C4 C3 1_555 1_555
H3 C4 1_555 1_555
C5 N1 1_555 1_555
H4 C5 1_555 1_555
C6 C3 1_555 1_555
C7 C6 1_555 1_555
H5 C7 1_555 1_555
C8 C7 1_555 1_555
C9 C8 1_555 1_555
H6 C9 1_555 1_555
C10 N2 1_555 1_555
C11 H7 1_555 1_555
C12 C11 1_555 1_555
H8 C12 1_555 1_555
C13 C10 1_555 1_555
C14 C13 1_555 1_555
H9 C14 1_555 1_555
C15 N3 1_555 1_555
H10 C15 1_555 1_555
C16 C8 1_555 1_555
C17 S1 1_555 1_555
C18 C17 1_555 1_555
H11 C18 1_555 1_555
C19 S2 1_555 1_555
C20 C19 1_555 1_555
H12 C20 1_555 1_555
C21 C16 1_555 1_555
H13 C21 1_555 1_555
C22 N4 1_555 1_555
H14 C22 1_555 1_555
C23 C22 1_555 1_555
H15 C23 1_555 1_555
C24 C23 1_555 1_555
H16 C24 1_555 1_555
C25 C24 1_555 1_555
H17 C25 1_555 1_555
C26 N4 1_555 1_555
C27 C26 1_555 1_555
C28 C27 1_555 1_555
H18 C28 1_555 1_555
C29 C28 1_555 1_555
H19 C29 1_555 1_555
C30 C29 1_555 1_555
H20 C30 1_555 1_555
C31 N5 1_555 1_555
H21 C31 1_555 1_555
O7 Ag1 1_555 1_555
H22 O7 1_555 1_555
H23 O7 1_555 1_555
Ag2_2 N3 1_555 1_555
Ag2C O5 1_555 1_555
N3_2 Ag2 1_555 1_555
O5B Ag2 1_555 1_555
C4 C5 1_555 1_555
C9 C10 1_555 1_555
C12 C13 1_555 1_555
C14 C15 1_555 1_555
C16 C17 1_555 1_555
C18 C19 1_555 1_555
C20 C21 1_555 1_555
C25 C26 1_555 1_555
C30 C31 1_555 1_555

#END
