
#######################################################################
#
#                 Cambridge Crystallographic Data Centre
#                                CCDC 
#
#######################################################################
#
# If this CIF has been generated from an entry in the Cambridge 
# Structural Database, then it will include bibliographic, chemical, 
# crystal, experimental, refinement or atomic coordinate data resulting 
# from the CCDC's data processing and validation procedures.
#
#######################################################################

data_DOZYOI
_symmetry_cell_setting           monoclinic
_symmetry_space_group_name_H-M   'P 21/n'
_symmetry_Int_Tables_number      14
_space_group_name_Hall           '-P 2yn'
loop_
_symmetry_equiv_pos_site_id
_symmetry_equiv_pos_as_xyz
1 x,y,z
2 1/2-x,1/2+y,1/2-z
3 -x,-y,-z
4 1/2+x,1/2-y,1/2+z
_cell_length_a                   12.8817(14)
_cell_length_b                   14.2858(15)
_cell_length_c                   14.5100(17)
_cell_angle_alpha                90
_cell_angle_beta                 91.732(2)
_cell_angle_gamma                90
_cell_volume                     2668.99
loop_
_atom_site_label
_atom_site_type_symbol
_atom_site_fract_x
_atom_site_fract_y
_atom_site_fract_z
Cu1 Cu 0.40874(4) 0.53765(3) 0.18018(3)
Ni1 Ni 0.17420(4) 0.69329(3) -0.07702(3)
O1 O 0.2598(2) 0.73226(16) 0.03690(16)
O2 O 0.26989(19) 0.57901(15) -0.06255(16)
O3 O 0.0780(2) 0.62732(15) 0.01526(16)
O4 O 0.0099(2) 0.75625(16) 0.07535(19)
O5 O -0.22844(19) 0.73520(15) 0.33426(16)
O6 O -0.2434(2) 0.59682(16) 0.40489(17)
O7 O 0.0831(2) 0.81057(15) -0.07634(17)
H1 H 0.0553 0.8119 -0.0239
H2 H 0.1244 0.8570 -0.0763
N1 N 0.3419(3) 0.65641(19) 0.1602(2)
N2 N 0.4055(3) 0.5468(2) 0.3131(2)
N3 N 0.5147(3) 0.4421(2) 0.1876(2)
N4 N 0.3660(2) 0.50569(19) 0.0547(2)
N5 N -0.0866(2) 0.36195(18) 0.18874(19)
H3 H -0.1118 0.3367 0.2419
H4 H -0.0193 0.3413 0.1839
C1 C 0.3031(3) 0.6642(2) 0.0750(3)
C2 C 0.3354(3) 0.7301(2) 0.2243(3)
C3 C 0.3473(3) 0.7089(2) 0.3191(3)
C4 C 0.3366(3) 0.7808(3) 0.3841(3)
H5 H 0.3411 0.7658 0.4479
C5 C 0.3198(3) 0.8717(3) 0.3582(3)
H6 H 0.3130 0.9195 0.4031
C6 C 0.3131(3) 0.8925(3) 0.2651(3)
H7 H 0.3038 0.9558 0.2463
C7 C 0.3195(3) 0.8235(3) 0.1985(3)
H8 H 0.3130 0.8395 0.1351
C8 C 0.3747(3) 0.6186(3) 0.3577(3)
H9 H 0.3694 0.6117 0.4225
C9 C 0.4392(3) 0.4631(2) 0.3641(3)
H10 H 0.4014 0.4079 0.3391
H11 H 0.4218 0.4701 0.4297
C10 C 0.5550(4) 0.4472(3) 0.3572(3)
H12 H 0.5721 0.3843 0.3817
H13 H 0.5921 0.4937 0.3967
C11 C 0.3120(3) 0.5748(2) 0.0152(2)
C12 C 0.5951(3) 0.4547(3) 0.2591(3)
H14 H 0.6274 0.5170 0.2513
H15 H 0.6497 0.4069 0.2509
C13 C 0.5208(3) 0.3732(2) 0.1324(2)
H16 H 0.5747 0.3292 0.1449
C14 C 0.4539(3) 0.3553(2) 0.0527(2)
C15 C 0.3809(3) 0.4180(2) 0.0118(2)
C16 C 0.3252(3) 0.3892(2) -0.0668(2)
H17 H 0.2759 0.4304 -0.0951
C17 C 0.3406(3) 0.3007(2) -0.1046(3)
H18 H 0.3013 0.2820 -0.1579
C18 C 0.4127(3) 0.2403(3) -0.0651(3)
H19 H 0.4232 0.1801 -0.0910
C19 C 0.4681(3) 0.2676(3) 0.0110(3)
H20 H 0.5185 0.2260 0.0371
C20 C -0.0318(3) 0.6121(2) 0.1425(2)
C21 C -0.0894(3) 0.6565(2) 0.2095(2)
H21 H -0.0921 0.7229 0.2120
C22 C -0.1426(3) 0.6034(2) 0.2726(2)
C23 C -0.1388(3) 0.5061(2) 0.2679(2)
H22 H -0.1743 0.4696 0.3118
C24 C -0.0836(3) 0.4619(2) 0.1997(2)
C25 C -0.0309(3) 0.5152(2) 0.1367(2)
H23 H 0.0061 0.4853 0.0892
C26 C 0.0235(3) 0.6701(2) 0.0722(3)
C27 C -0.2087(3) 0.6488(2) 0.3431(2)
Ni1B Ni -0.17420(4) 0.30671(3) 0.07702(3)
Ni1C Ni -0.32580(4) 0.80671(3) 0.42298(3)
O5C O 0.27156(19) 0.76480(15) -0.16574(16)
N5B N 0.0866(2) 0.63805(18) -0.18874(19)
O9 O 0.8196(8) 0.4792(5) 0.5458(5)
O9B O 1.1804(8) 0.5208(5) 0.4542(5)
O8? O 0.9326(11) 0.5044(11) 0.4979(12)
O10? O 0.8982(11) 0.4712(7) 0.5756(8)
loop_
_geom_bond_atom_site_label_1
_geom_bond_atom_site_label_2
_geom_bond_site_symmetry_1
_geom_bond_site_symmetry_2
Cu1 N1 1_555 1_555
Ni1 O1 1_555 1_555
O1 C1 1_555 1_555
O2 Ni1 1_555 1_555
O3 Ni1 1_555 1_555
O4 C26 1_555 1_555
O5 C27 1_555 1_555
O6 C27 1_555 1_555
O7 Ni1 1_555 1_555
H1 O7 1_555 1_555
H2 O7 1_555 1_555
N1 C1 1_555 1_555
N2 Cu1 1_555 1_555
N3 Cu1 1_555 1_555
N4 Cu1 1_555 1_555
N5 H3 1_555 1_555
H4 N5 1_555 1_555
C1 C11 1_555 1_555
C2 N1 1_555 1_555
C3 C2 1_555 1_555
C4 C3 1_555 1_555
H5 C4 1_555 1_555
C5 C4 1_555 1_555
H6 C5 1_555 1_555
C6 C5 1_555 1_555
H7 C6 1_555 1_555
C7 C2 1_555 1_555
H8 C7 1_555 1_555
C8 N2 1_555 1_555
H9 C8 1_555 1_555
C9 N2 1_555 1_555
H10 C9 1_555 1_555
H11 C9 1_555 1_555
C10 C9 1_555 1_555
H12 C10 1_555 1_555
H13 C10 1_555 1_555
C11 O2 1_555 1_555
C12 N3 1_555 1_555
H14 C12 1_555 1_555
H15 C12 1_555 1_555
C13 N3 1_555 1_555
H16 C13 1_555 1_555
C14 C13 1_555 1_555
C15 N4 1_555 1_555
C16 C15 1_555 1_555
H17 C16 1_555 1_555
C17 C16 1_555 1_555
H18 C17 1_555 1_555
C18 C17 1_555 1_555
H19 C18 1_555 1_555
C19 C14 1_555 1_555
H20 C19 1_555 1_555
C20 C21 1_555 1_555
C21 H21 1_555 1_555
C22 C21 1_555 1_555
C23 C22 1_555 1_555
H22 C23 1_555 1_555
C24 N5 1_555 1_555
C25 C20 1_555 1_555
H23 C25 1_555 1_555
C26 O3 1_555 1_555
C27 C22 1_555 1_555
Ni1B N5 1_555 1_555
Ni1C O5 1_555 1_555
O5C Ni1 1_555 1_555
N5B Ni1 1_555 1_555
N4 C11 1_555 1_555
C3 C8 1_555 1_555
C6 C7 1_555 1_555
C10 C12 1_555 1_555
C14 C15 1_555 1_555
C18 C19 1_555 1_555
C20 C26 1_555 1_555
C23 C24 1_555 1_555
C24 C25 1_555 1_555

#END
