
#######################################################################
#
#                 Cambridge Crystallographic Data Centre
#                                CCDC 
#
#######################################################################
#
# If this CIF has been generated from an entry in the Cambridge 
# Structural Database, then it will include bibliographic, chemical, 
# crystal, experimental, refinement or atomic coordinate data resulting 
# from the CCDC's data processing and validation procedures.
#
#######################################################################

data_DOZZOI
_symmetry_cell_setting           orthorhombic
_symmetry_space_group_name_H-M   'A b a 2'
_symmetry_Int_Tables_number      41
_space_group_name_Hall           'A 2 -2ab'
loop_
_symmetry_equiv_pos_site_id
_symmetry_equiv_pos_as_xyz
1 x,y,z
2 -x,-y,z
3 1/2+x,1/2-y,z
4 1/2-x,1/2+y,z
5 x,1/2+y,1/2+z
6 -x,1/2-y,1/2+z
7 1/2+x,-y,1/2+z
8 1/2-x,y,1/2+z
_cell_length_a                   15.174(3)
_cell_length_b                   10.707(2)
_cell_length_c                   12.854(3)
_cell_angle_alpha                90
_cell_angle_beta                 90
_cell_angle_gamma                90
_cell_volume                     2088.36
loop_
_atom_site_label
_atom_site_type_symbol
_atom_site_fract_x
_atom_site_fract_y
_atom_site_fract_z
Cd1 Cd 0.175174(18) 0.65056(3) 0.37934(5)
N1 N 0.1729(3) 0.4597(4) 0.4581(5)
C1 C 0.1981(4) 0.3691(5) 0.4933(4)
S1 S 0.23431(9) 0.23938(13) 0.54494(11)
N2 N 0.1595(4) 0.8446(4) 0.3109(6)
C2 C 0.1676(3) 0.9488(7) 0.2950(5)
S2 S 0.17859(9) 1.09663(14) 0.26699(17)
N3 N 0.0698(3) 0.5589(3) 0.2572(3)
N4 N 0.0414(3) 0.4027(4) 0.1234(3)
C3 C 0.0000 0.5000 0.3207(5)
H1 H -0.0262 0.5622 0.3647
C4 C 0.1081(3) 0.4613(5) 0.1889(4)
H2 H 0.1530 0.4985 0.1450
H3 H 0.1361 0.3980 0.2315
C5 C 0.0272(3) 0.6534(4) 0.1896(5)
H4 H 0.0011 0.7179 0.2327
H5 H 0.0716 0.6923 0.1460
C6 C 0.0000 0.5000 0.0586(6)
H6 H -0.0440 0.4629 0.0148
O1 O 0.0510(3) 0.7002(4) 0.4804(3)
H7 H 0.0599 0.7668 0.5149
H8 H 0.0396 0.6414 0.5227
Cd1C Cd 0.324826(18) 1.15056(3) 0.37934(5)
Cd1C_2 Cd 0.324826(18) 0.15056(3) 0.37934(5)
Cd1A Cd -0.175174(18) 0.34944(3) 0.37934(5)
N1C N 0.3271(3) 0.9597(4) 0.4581(5)
C1C C 0.3019(4) 0.8691(5) 0.4933(4)
S1C S 0.26569(9) 0.73938(13) 0.54494(11)
S1_2 S 0.23431(9) 1.23938(13) 0.54494(11)
N2C N 0.3405(4) 0.3446(4) 0.3109(6)
N2C_2 N 0.3405(4) 1.3446(4) 0.3109(6)
C2C C 0.3324(3) 0.4488(7) 0.2950(5)
S2C S 0.32141(9) 0.59663(14) 0.26699(17)
N3A N -0.0698(3) 0.4411(3) 0.2572(3)
N3C N 0.4302(3) 1.0589(3) 0.2572(3)
N4A N -0.0414(3) 0.5973(4) 0.1234(3)
H1A H 0.0262 0.4378 0.3647
C4A C -0.1081(3) 0.5387(5) 0.1889(4)
H2A H -0.1530 0.5015 0.1450
H3A H -0.1361 0.6020 0.2315
C5A C -0.0272(3) 0.3466(4) 0.1896(5)
H4A H -0.0011 0.2821 0.2327
H5A H -0.0716 0.3077 0.1460
H6A H 0.0440 0.5371 0.0148
O1C O 0.4490(3) 1.2002(4) 0.4804(3)
H7C H 0.4401 1.2668 0.5149
H8C H 0.4604 1.1414 0.5227
O2 O 1.0000 0.5000 0.6157(6)
H9 H 0.9564 0.5192 0.6537
H9A H 1.0436 0.4808 0.6537
loop_
_geom_bond_atom_site_label_1
_geom_bond_atom_site_label_2
_geom_bond_site_symmetry_1
_geom_bond_site_symmetry_2
Cd1 N1 1_555 1_555
N1 C1 1_555 1_555
C1 S1 1_555 1_555
S1 Cd1C_2 1_555 1_555
N2 Cd1 1_555 1_555
C2 N2 1_555 1_555
S2 C2 1_555 1_555
N3 Cd1 1_555 1_555
N4 C4 1_555 1_555
C3 N3 1_555 1_555
H1 C3 1_555 1_555
C4 N3 1_555 1_555
H2 C4 1_555 1_555
H3 C4 1_555 1_555
C5 N3 1_555 1_555
H4 C5 1_555 1_555
H5 C5 1_555 1_555
C6 N4 1_555 1_555
H6 C6 1_555 1_555
O1 Cd1 1_555 1_555
H7 O1 1_555 1_555
H8 O1 1_555 1_555
O2 H9 1_555 1_555
Cd1C S2 1_555 1_555
Cd1C_2 N2C 1_555 1_555
Cd1A N3A 1_555 1_555
N1C Cd1C 1_555 1_555
C1C N1C 1_555 1_555
S1C Cd1 1_555 1_555
S1_2 Cd1C 1_555 1_555
N2C C2C 1_555 1_555
N2C_2 Cd1C 1_555 1_555
C2C S2C 1_555 1_555
S2C Cd1 1_555 1_555
N3A C3 1_555 1_555
N3C Cd1C 1_555 1_555
N4A C5 1_555 1_555
H1A C3 1_555 1_555
C4A N3A 1_555 1_555
H2A C4A 1_555 1_555
H3A C4A 1_555 1_555
C5A N4 1_555 1_555
H4A C5A 1_555 1_555
H5A C5A 1_555 1_555
H6A C6 1_555 1_555
O1C Cd1C 1_555 1_555
H7C O1C 1_555 1_555
H8C O1C 1_555 1_555
H9A O2 1_555 1_555
C6 N4A 1_555 1_555
C1C S1C 1_555 1_555
N3A C5A 1_555 1_555
N4A C4A 1_555 1_555

#END
