
#######################################################################
#
#                 Cambridge Crystallographic Data Centre
#                                CCDC 
#
#######################################################################
#
# If this CIF has been generated from an entry in the Cambridge 
# Structural Database, then it will include bibliographic, chemical, 
# crystal, experimental, refinement or atomic coordinate data resulting 
# from the CCDC's data processing and validation procedures.
#
#######################################################################

data_DPENPB01
_symmetry_cell_setting           monoclinic
_symmetry_space_group_name_H-M   'P 21'
_symmetry_Int_Tables_number      4
_space_group_name_Hall           'P 2yb'
loop_
_symmetry_equiv_pos_site_id
_symmetry_equiv_pos_as_xyz
1 x,y,z
2 -x,1/2+y,-z
_cell_length_a                   6.251(4)
_cell_length_b                   6.179(3)
_cell_length_c                   10.259(6)
_cell_angle_alpha                90
_cell_angle_beta                 107.72(2)
_cell_angle_gamma                90
_cell_volume                     377.453
loop_
_atom_site_label
_atom_site_type_symbol
_atom_site_fract_x
_atom_site_fract_y
_atom_site_fract_z
Pb1 Pb 0.70681(4) 0.20419(12) 0.44819(2)
S1 S 0.4620(3) 0.2363(4) 0.6251(2)
O1 O 0.9300(11) 0.4969(11) 0.5855(7)
O2 O 1.0202(11) 0.6382(11) 0.7971(7)
N1 N 0.9562(13) 0.0937(13) 0.6716(9)
H1 H 0.9180 -0.0416 0.6949
H2 H 1.1032 0.0912 0.6715
C1 C 0.6876(13) 0.2355(15) 0.7921(9)
C2 C 0.9226(13) 0.2620(12) 0.7695(9)
H3 H 1.0399 0.2389 0.8596
C3 C 0.9615(14) 0.4861(15) 0.7162(9)
C4 C 0.645(2) 0.410(2) 0.8842(13)
H4 H 0.7584 0.3999 0.9743
H5 H 0.4954 0.3902 0.8940
H6 H 0.6544 0.5519 0.8441
C5 C 0.680(2) 0.016(2) 0.8594(14)
H7 H 0.8064 0.0049 0.9436
H8 H 0.6895 -0.0998 0.7964
H9 H 0.5384 0.0031 0.8816
Pb1A Pb 0.29319(4) 0.70419(12) 0.55181(2)
Pb1A_2 Pb 0.29319(4) -0.29581(12) 0.55181(2)
Pb1A_3 Pb 1.29319(4) 0.70419(12) 0.55181(2)
S1A S 0.5380(3) -0.2637(4) 0.3749(2)
S1A_2 S 0.5380(3) 0.7363(4) 0.3749(2)
O1A O 1.0700(11) -0.0031(11) 0.4145(7)
loop_
_geom_bond_atom_site_label_1
_geom_bond_atom_site_label_2
_geom_bond_site_symmetry_1
_geom_bond_site_symmetry_2
Pb1 S1 1_555 1_555
S1 C1 1_555 1_555
O1 Pb1 1_555 1_555
O2 C3 1_555 1_555
N1 Pb1 1_555 1_555
H1 N1 1_555 1_555
H2 N1 1_555 1_555
C1 C2 1_555 1_555
C2 N1 1_555 1_555
H3 C2 1_555 1_555
C3 O1 1_555 1_555
C4 C1 1_555 1_555
H4 C4 1_555 1_555
H5 C4 1_555 1_555
H6 C4 1_555 1_555
C5 C1 1_555 1_555
H7 C5 1_555 1_555
H8 C5 1_555 1_555
H9 C5 1_555 1_555
Pb1A S1 1_555 1_555
Pb1A_2 S1 1_555 1_555
Pb1A_3 O1 1_555 1_555
S1A Pb1 1_555 1_555
S1A_2 Pb1 1_555 1_555
O1A Pb1 1_555 1_555
C2 C3 1_555 1_555
Pb1A S1A_2 1_555 1_555
Pb1A_2 S1A 1_555 1_555

#END
