
#######################################################################
#
#                 Cambridge Crystallographic Data Centre
#                                CCDC 
#
#######################################################################
#
# If this CIF has been generated from an entry in the Cambridge 
# Structural Database, then it will include bibliographic, chemical, 
# crystal, experimental, refinement or atomic coordinate data resulting 
# from the CCDC's data processing and validation procedures.
#
#######################################################################

data_DPPOPB10
_symmetry_cell_setting           triclinic
_symmetry_space_group_name_H-M   'P -1'
_symmetry_Int_Tables_number      2
_space_group_name_Hall           '-P 1'
loop_
_symmetry_equiv_pos_site_id
_symmetry_equiv_pos_as_xyz
1 x,y,z
2 -x,-y,-z
_cell_length_a                   12.167(5)
_cell_length_b                   10.937(4)
_cell_length_c                   8.695(6)
_cell_angle_alpha                96.40(3)
_cell_angle_beta                 105.96(4)
_cell_angle_gamma                91.05(5)
_cell_volume                     1104.06
loop_
_atom_site_label
_atom_site_type_symbol
_atom_site_fract_x
_atom_site_fract_y
_atom_site_fract_z
C1 C 0.16660 0.01510 -0.30780
C2 C 0.52210 0.10980 0.22440
C3 C 0.47280 -0.00580 0.19130
C4 C 0.36220 -0.02690 0.09350
C5 C -0.31870 0.40240 -0.17340
C6 C -0.34610 0.30130 -0.28430
C7 C -0.46120 0.27780 -0.38550
C8 C -0.53990 0.35430 -0.36070
C9 C -0.51720 0.44250 -0.23830
C10 C -0.40530 0.46950 -0.14110
C11 C -0.17140 0.46370 0.15290
C12 C 0.22360 0.10290 -0.36570
C13 C -0.21440 0.36920 0.21970
C14 C -0.21350 0.38980 0.38240
C15 C -0.16750 0.49750 0.47740
C16 C -0.12480 0.58800 0.41170
C17 C -0.12700 0.57380 0.24570
C18 C 0.22600 0.07900 -0.52650
C19 C 0.17340 -0.02370 -0.62350
C20 C 0.11900 -0.10720 -0.56500
C21 C 0.11530 -0.08920 -0.40480
C22 C 0.30270 0.06940 0.02860
C23 C 0.35180 0.18820 0.06200
C24 C 0.46480 0.20980 0.16220
H1 H 0.60240 0.12360 0.29390
H2 H 0.51580 -0.07490 0.23790
H3 H 0.32500 -0.11140 0.06910
H4 H -0.28370 0.24320 -0.29430
H5 H -0.48330 0.20500 -0.47090
H6 H -0.61740 0.34590 -0.44140
H7 H -0.58660 0.48800 -0.21490
H8 H -0.38580 0.54020 -0.04260
H9 H 0.26130 0.17930 -0.29550
H10 H -0.24590 0.28950 0.15290
H11 H -0.24610 0.32470 0.43030
H12 H -0.16510 0.50970 0.59310
H13 H -0.09140 0.66640 0.48060
H14 H -0.09810 0.64230 0.19710
H15 H 0.26750 0.13970 -0.57120
H16 H 0.17530 -0.03820 -0.73940
H17 H 0.08050 -0.18210 -0.63580
H18 H 0.07550 -0.15180 -0.36170
H19 H 0.30520 0.25810 0.01730
H20 H 0.50340 0.29430 0.18800
O1 O 0.09370 0.15800 -0.08950
O2 O 0.10830 -0.07540 -0.06150
O3 O -0.10740 0.32780 -0.08170
O4 O 0.13500 0.43960 0.10190
Pb1 Pb 0.02771 0.25023 0.10705
P1 P 0.15700 0.03990 -0.10220
P2 P -0.17320 0.44160 -0.05580
Pb1A Pb -0.02771 -0.25023 -0.10705
O2A O -0.10830 0.07540 0.06150
P2A P 0.17320 0.55840 0.05580
O4A O -0.13500 0.56040 -0.10190
O1A O -0.09370 -0.15800 0.08950
O3A O 0.10740 -0.32780 0.08170
O4A_2 O -0.13500 -0.43960 -0.10190
P1A P -0.15700 -0.03990 0.10220
C5A C 0.31870 0.59760 0.17340
C11A C 0.17140 0.53630 -0.15290
O3A_2 O 0.10740 0.67220 0.08170
Pb1A_2 Pb -0.02771 0.74977 -0.10705
C1A C -0.16660 -0.01510 0.30780
C22A C -0.30270 -0.06940 -0.02860
C6A C 0.34610 0.69870 0.28430
C10A C 0.40530 0.53050 0.14110
C13A C 0.21440 0.63080 -0.21970
C17A C 0.12700 0.42620 -0.24570
C12A C -0.22360 -0.10290 0.36570
C21A C -0.11530 0.08920 0.40480
C4A C -0.36220 0.02690 -0.09350
C23A C -0.35180 -0.18820 -0.06200
C7A C 0.46120 0.72220 0.38550
H4A H 0.28370 0.75680 0.29430
C9A C 0.51720 0.55750 0.23830
H8A H 0.38580 0.45980 0.04260
C14A C 0.21350 0.61020 -0.38240
H10A H 0.24590 0.71050 -0.15290
C16A C 0.12480 0.41200 -0.41170
H14A H 0.09810 0.35770 -0.19710
C18A C -0.22600 -0.07900 0.52650
H9A H -0.26130 -0.17930 0.29550
C20A C -0.11900 0.10720 0.56500
H18A H -0.07550 0.15180 0.36170
C3A C -0.47280 0.00580 -0.19130
H3A H -0.32500 0.11140 -0.06910
C24A C -0.46480 -0.20980 -0.16220
H19A H -0.30520 -0.25810 -0.01730
C8A C 0.53990 0.64570 0.36070
H5A H 0.48330 0.79500 0.47090
H7A H 0.58660 0.51200 0.21490
C15A C 0.16750 0.50250 -0.47740
H11A H 0.24610 0.67530 -0.43030
H13A H 0.09140 0.33360 -0.48060
C19A C -0.17340 0.02370 0.62350
H15A H -0.26750 -0.13970 0.57120
H17A H -0.08050 0.18210 0.63580
C2A C -0.52210 -0.10980 -0.22440
H2A H -0.51580 0.07490 -0.23790
H20A H -0.50340 -0.29430 -0.18800
H6A H 0.61740 0.65410 0.44140
H12A H 0.16510 0.49030 -0.59310
H16A H -0.17530 0.03820 0.73940
H1A H -0.60240 -0.12360 -0.29390
loop_
_geom_bond_atom_site_label_1
_geom_bond_atom_site_label_2
_geom_bond_site_symmetry_1
_geom_bond_site_symmetry_2
C1 C12 1_555 1_555
C2 C3 1_555 1_555
C3 C4 1_555 1_555
C4 C22 1_555 1_555
C5 C6 1_555 1_555
C6 C7 1_555 1_555
C7 C8 1_555 1_555
C8 C9 1_555 1_555
C9 C10 1_555 1_555
C10 C5 1_555 1_555
C11 C13 1_555 1_555
C12 C18 1_555 1_555
C13 C14 1_555 1_555
C14 C15 1_555 1_555
C15 C16 1_555 1_555
C16 C17 1_555 1_555
C17 C11 1_555 1_555
C18 C19 1_555 1_555
C19 C20 1_555 1_555
C20 C21 1_555 1_555
C21 C1 1_555 1_555
C22 C23 1_555 1_555
C23 C24 1_555 1_555
C24 C2 1_555 1_555
H1 C2 1_555 1_555
H2 C3 1_555 1_555
H3 C4 1_555 1_555
H4 C6 1_555 1_555
H5 C7 1_555 1_555
H6 C8 1_555 1_555
H7 C9 1_555 1_555
H8 C10 1_555 1_555
H9 C12 1_555 1_555
H10 C13 1_555 1_555
H11 C14 1_555 1_555
H12 C15 1_555 1_555
H13 C16 1_555 1_555
H14 C17 1_555 1_555
H15 C18 1_555 1_555
H16 C19 1_555 1_555
H17 C20 1_555 1_555
H18 C21 1_555 1_555
H19 C23 1_555 1_555
H20 C24 1_555 1_555
O1 Pb1 1_555 1_555
O2 P1 1_555 1_555
O3 Pb1 1_555 1_555
O4 Pb1 1_555 1_555
Pb1 O2A 1_555 1_555
P1 C1 1_555 1_555
P2 C5 1_555 1_555
Pb1A O2 1_555 1_555
O2A P1A 1_555 1_555
P2A O4 1_555 1_555
O4A P2 1_555 1_555
O1A Pb1A 1_555 1_555
O3A Pb1A 1_555 1_555
O4A_2 Pb1A 1_555 1_555
P1A O1A 1_555 1_555
C5A P2A 1_555 1_555
C11A P2A 1_555 1_555
O3A_2 P2A 1_555 1_555
Pb1A_2 O4A 1_555 1_555
C1A P1A 1_555 1_555
C22A P1A 1_555 1_555
C6A C5A 1_555 1_555
C10A C5A 1_555 1_555
C13A C11A 1_555 1_555
C17A C11A 1_555 1_555
C12A C1A 1_555 1_555
C21A C1A 1_555 1_555
C4A C22A 1_555 1_555
C23A C22A 1_555 1_555
C7A C6A 1_555 1_555
H4A C6A 1_555 1_555
C9A C10A 1_555 1_555
H8A C10A 1_555 1_555
C14A C13A 1_555 1_555
H10A C13A 1_555 1_555
C16A C17A 1_555 1_555
H14A C17A 1_555 1_555
C18A C12A 1_555 1_555
H9A C12A 1_555 1_555
C20A C21A 1_555 1_555
H18A C21A 1_555 1_555
C3A C4A 1_555 1_555
H3A C4A 1_555 1_555
C24A C23A 1_555 1_555
H19A C23A 1_555 1_555
C8A C7A 1_555 1_555
H5A C7A 1_555 1_555
H7A C9A 1_555 1_555
C15A C14A 1_555 1_555
H11A C14A 1_555 1_555
H13A C16A 1_555 1_555
C19A C18A 1_555 1_555
H15A C18A 1_555 1_555
H17A C20A 1_555 1_555
C2A C3A 1_555 1_555
H2A C3A 1_555 1_555
H20A C24A 1_555 1_555
H6A C8A 1_555 1_555
H12A C15A 1_555 1_555
H16A C19A 1_555 1_555
H1A C2A 1_555 1_555
C11 P2 1_555 1_555
C22 P1 1_555 1_555
O1 P1 1_555 1_555
O3 P2 1_555 1_555
O3A_2 Pb1A_2 1_555 1_555
C9A C8A 1_555 1_555
C16A C15A 1_555 1_555
C20A C19A 1_555 1_555
C24A C2A 1_555 1_555

#END
