
#######################################################################
#
#                 Cambridge Crystallographic Data Centre
#                                CCDC 
#
#######################################################################
#
# If this CIF has been generated from an entry in the Cambridge 
# Structural Database, then it will include bibliographic, chemical, 
# crystal, experimental, refinement or atomic coordinate data resulting 
# from the CCDC's data processing and validation procedures.
#
#######################################################################

data_DTHHGN10
_symmetry_cell_setting           monoclinic
_symmetry_space_group_name_H-M   'P 21/c'
_symmetry_Int_Tables_number      14
_space_group_name_Hall           '-P 2ybc'
loop_
_symmetry_equiv_pos_site_id
_symmetry_equiv_pos_as_xyz
1 x,y,z
2 -x,1/2+y,1/2-z
3 -x,-y,-z
4 x,1/2-y,1/2+z
_cell_length_a                   6.970(5)
_cell_length_b                   15.205(8)
_cell_length_c                   11.185(8)
_cell_angle_alpha                90
_cell_angle_beta                 96.0(6)
_cell_angle_gamma                90
_cell_volume                     1178.88
loop_
_atom_site_label
_atom_site_type_symbol
_atom_site_fract_x
_atom_site_fract_y
_atom_site_fract_z
Hg1 Hg 0.05799 0.12206 0.44165
Hg2 Hg 0.32424 0.18921 0.58566
S1 S -0.21416 0.07360 0.29347
S2 S 0.47057 0.34219 0.63863
C1 C -0.35275 0.17331 0.26327
C2 C -0.09823 0.06396 0.15751
C3 C -0.26293 0.05162 0.04448
C4 C 0.61469 0.36319 0.52519
C1C C 0.64725 0.32669 0.76327
S2C S -0.52943 0.15781 0.13863
C4C C -0.38531 0.13681 0.02519
C3C C 0.73707 0.44838 0.54448
S1C S 0.78584 0.42640 0.79347
Hg2C Hg -0.67576 0.31079 0.08566
C2C C 0.90177 0.43604 0.65751
Hg1C Hg 1.05799 0.37794 0.94165
Hg1C_2 Hg -0.94201 0.37794 -0.05835
Hg2C_2 Hg 1.32424 0.31079 1.08566
O1 O 0.28242 0.14686 0.79883
O2 O 0.06869 0.24284 0.75797
O3 O 0.06113 0.16480 0.90688
N1 N 0.13432 0.18935 0.82445
O4 O 0.59535 0.41546 0.19084
O5 O 0.86468 0.45154 0.12704
O6 O 0.68338 0.35208 0.05001
N2 N 0.71568 0.40515 0.12801
loop_
_geom_bond_atom_site_label_1
_geom_bond_atom_site_label_2
_geom_bond_site_symmetry_1
_geom_bond_site_symmetry_2
Hg1 Hg2 1_555 1_555
Hg2 S2 1_555 1_555
S1 Hg1 1_555 1_555
S2 C4 1_555 1_555
C1 S1 1_555 1_555
C2 S1 1_555 1_555
C3 C2 1_555 1_555
C4 C3C 1_555 1_555
O1 N1 1_555 1_555
O2 N1 1_555 1_555
O3 N1 1_555 1_555
O4 N2 1_555 1_555
O5 N2 1_555 1_555
O6 N2 1_555 1_555
C1C S2 1_555 1_555
S2C C1 1_555 1_555
C4C C3 1_555 1_555
C3C C2C 1_555 1_555
S1C C1C 1_555 1_555
Hg2C S2C 1_555 1_555
C2C S1C 1_555 1_555
Hg1C S1C 1_555 1_555
Hg1C_2 Hg2C 1_555 1_555
Hg2C_2 Hg1C 1_555 1_555
S2C C4C 1_555 1_555

#END
