
#######################################################################
#
#                 Cambridge Crystallographic Data Centre
#                                CCDC 
#
#######################################################################
#
# If this CIF has been generated from an entry in the Cambridge 
# Structural Database, then it will include bibliographic, chemical, 
# crystal, experimental, refinement or atomic coordinate data resulting 
# from the CCDC's data processing and validation procedures.
#
#######################################################################

data_DUBFEL
_symmetry_cell_setting           monoclinic
_symmetry_space_group_name_H-M   'P 21/n'
_symmetry_Int_Tables_number      14
_space_group_name_Hall           '-P 2yn'
loop_
_symmetry_equiv_pos_site_id
_symmetry_equiv_pos_as_xyz
1 x,y,z
2 1/2-x,1/2+y,1/2-z
3 -x,-y,-z
4 1/2+x,1/2-y,1/2+z
_cell_length_a                   13.142(3)
_cell_length_b                   16.742(5)
_cell_length_c                   10.842(2)
_cell_angle_alpha                90
_cell_angle_beta                 97.15(1)
_cell_angle_gamma                90
_cell_volume                     2366.94
loop_
_atom_site_label
_atom_site_type_symbol
_atom_site_fract_x
_atom_site_fract_y
_atom_site_fract_z
Mn1 Mn 0.9290(1) 0.07329(4) 0.5374(1)
O1 O 0.9275(3) 0.1150(2) 0.3741(3)
C1 C 0.9392(4) 0.1879(3) 0.3356(5)
O2 O 0.9436(3) 0.2012(2) 0.2246(3)
C2 C 0.9431(4) 0.2548(3) 0.4260(5)
C3 C 0.9332(4) 0.3325(3) 0.3789(5)
C4 C 0.9309(4) 0.3979(3) 0.4550(6)
C5 C 0.9399(4) 0.3860(3) 0.5834(6)
C6 C 0.9510(4) 0.3103(3) 0.6329(5)
C7 C 0.9531(3) 0.2430(3) 0.5566(5)
O3 O 0.9644(3) 0.1713(2) 0.6121(3)
O4 O 0.9329(2) 0.0304(2) 0.7022(3)
C8 C 0.8881(4) -0.0325(3) 0.7388(5)
O5 O 0.8907(3) -0.0470(2) 0.8526(3)
C9 C 0.8318(4) -0.0870(3) 0.6471(5)
C10 C 0.7681(4) -0.1455(3) 0.6901(5)
C11 C 0.7148(4) -0.1983(3) 0.6092(5)
C12 C 0.7243(4) -0.1945(3) 0.4830(5)
C13 C 0.7863(4) -0.1380(3) 0.4393(5)
C14 C 0.8414(4) -0.0838(3) 0.5199(4)
O6 O 0.9036(2) -0.0315(2) 0.4707(3)
N1 N 0.7566(3) 0.0951(2) 0.5405(4)
C15 C 0.6841(4) 0.0681(3) 0.4534(6)
C16 C 0.5811(4) 0.0802(4) 0.4582(6)
C17 C 0.5501(5) 0.1217(4) 0.5578(7)
C18 C 0.6241(5) 0.1502(4) 0.6472(6)
C19 C 0.7251(5) 0.1358(4) 0.6360(6)
Mn2 Mn 1.0000 0.0000 1.0000
O7 O 1.0442(3) 0.1038(2) 0.8962(3)
C20 C 1.0704(4) 0.1829(3) 0.9394(5)
C21 C 1.1610(5) 0.2130(4) 0.8851(7)
O8 O 1.1134(3) -0.0745(2) 0.9254(4)
C22 C 1.2062(5) -0.0435(5) 0.8899(8)
C23 C 1.2852(7) -0.1008(5) 0.8837(9)
H1 H 0.923(3) 0.336(3) 0.295(4)
H2 H 0.928(4) 0.447(3) 0.419(5)
H3 H 0.938(4) 0.430(3) 0.638(4)
H4 H 0.956(3) 0.300(3) 0.723(4)
H5 H 0.755(4) -0.147(3) 0.772(5)
H6 H 0.675(4) -0.233(3) 0.639(4)
H7 H 0.687(3) -0.227(3) 0.430(4)
H8 H 0.795(4) -0.136(3) 0.350(5)
H9 H 0.706(4) 0.037(4) 0.394(6)
H10 H 0.534(3) 0.060(3) 0.387(4)
H11 H 0.476(5) 0.126(4) 0.559(6)
H12 H 0.602(5) 0.179(4) 0.711(6)
H13 H 0.772(4) 0.146(3) 0.692(5)
H14 H 1.021(4) 0.099(3) 0.830(5)
H15 H 1.010(4) 0.217(3) 0.924(5)
H16 H 1.075(3) 0.182(3) 1.026(4)
H17 H 1.213(5) 0.176(4) 0.906(6)
H18 H 1.136(5) 0.217(4) 0.791(6)
H19 H 1.185(5) 0.260(4) 0.918(6)
H20 H 1.089(6) -0.114(5) 0.879(7)
H21 H 1.187(7) -0.011(5) 0.795(9)
H22 H 1.227(5) 0.000(4) 0.945(7)
H23 H 1.307 -0.123 0.966
H24 H 1.261 -0.145 0.831
H25 H 1.344 -0.078 0.854
O6B O 1.0964(2) 0.0315(2) 0.5293(3)
Mn1B Mn 1.0710(1) -0.07329(4) 0.4626(1)
O5B O 1.1093(3) 0.0470(2) 1.1474(3)
O7B O 0.9558(3) -0.1038(2) 1.1038(3)
O8B O 0.8866(3) 0.0745(2) 1.0746(4)
C14B C 1.1586(4) 0.0838(3) 0.4801(4)
O1B O 1.0725(3) -0.1150(2) 0.6259(3)
O3B O 1.0356(3) -0.1713(2) 0.3879(3)
O4B O 1.0671(2) -0.0304(2) 0.2978(3)
N1B N 1.2434(3) -0.0951(2) 0.4595(4)
C20B C 0.9296(4) -0.1829(3) 1.0606(5)
H14B H 0.979(4) -0.099(3) 1.170(5)
C22B C 0.7938(5) 0.0435(5) 1.1101(8)
H20B H 0.911(6) 0.114(5) 1.121(7)
C9B C 1.1682(4) 0.0870(3) 0.3529(5)
C13B C 1.2137(4) 0.1380(3) 0.5607(5)
C1B C 1.0608(4) -0.1879(3) 0.6644(5)
C7B C 1.0469(3) -0.2430(3) 0.4434(5)
C8B C 1.1119(4) 0.0325(3) 0.2612(5)
C15B C 1.3159(4) -0.0681(3) 0.5466(6)
C19B C 1.2749(5) -0.1358(4) 0.3640(6)
C21B C 0.8390(5) -0.2130(4) 1.1149(7)
H15B H 0.990(4) -0.217(3) 1.076(5)
H16B H 0.925(3) -0.182(3) 0.974(4)
C23B C 0.7148(7) 0.1008(5) 1.1163(9)
H21B H 0.813(7) 0.011(5) 1.205(9)
H22B H 0.773(5) 0.000(4) 1.055(7)
C10B C 1.2319(4) 0.1455(3) 0.3099(5)
C12B C 1.2757(4) 0.1945(3) 0.5170(5)
H8B H 1.205(4) 0.136(3) 0.650(5)
O2B O 1.0564(3) -0.2012(2) 0.7754(3)
C2B C 1.0569(4) -0.2548(3) 0.5740(5)
C6B C 1.0490(4) -0.3103(3) 0.3671(5)
C16B C 1.4189(4) -0.0802(4) 0.5418(6)
H9B H 1.294(4) -0.037(4) 0.606(6)
C18B C 1.3759(5) -0.1502(4) 0.3528(6)
H13B H 1.228(4) -0.146(3) 0.308(5)
H17B H 0.787(5) -0.176(4) 1.094(6)
H18B H 0.864(5) -0.217(4) 1.209(6)
H19B H 0.815(5) -0.260(4) 1.082(6)
H23B H 0.693 0.123 1.034
H24B H 0.739 0.145 1.169
H25B H 0.656 0.078 1.146
C11B C 1.2852(4) 0.1983(3) 0.3908(5)
H5B H 1.245(4) 0.147(3) 0.228(5)
H7B H 1.313(3) 0.227(3) 0.570(4)
C3B C 1.0668(4) -0.3325(3) 0.6211(5)
C5B C 1.0601(4) -0.3860(3) 0.4166(6)
H4B H 1.044(3) -0.300(3) 0.277(4)
C17B C 1.4499(5) -0.1217(4) 0.4422(7)
H10B H 1.466(3) -0.060(3) 0.613(4)
H12B H 1.398(5) -0.179(4) 0.289(6)
H6B H 1.325(4) 0.233(3) 0.361(4)
C4B C 1.0691(4) -0.3979(3) 0.5450(6)
H1B H 1.077(3) -0.336(3) 0.705(4)
H3B H 1.062(4) -0.430(3) 0.362(4)
H11B H 1.524(5) -0.126(4) 0.441(6)
H2B H 1.072(4) -0.447(3) 0.581(5)
O5B_2 O 1.1093(3) 0.0470(2) 0.1474(3)
Mn2_2 Mn 1.0000 0.0000 0.0000
loop_
_geom_bond_atom_site_label_1
_geom_bond_atom_site_label_2
_geom_bond_site_symmetry_1
_geom_bond_site_symmetry_2
Mn1 O1 1_555 1_555
O1 C1 1_555 1_555
C1 O2 1_555 1_555
C2 C1 1_555 1_555
C3 C2 1_555 1_555
C4 C3 1_555 1_555
C5 C4 1_555 1_555
C6 C5 1_555 1_555
C7 C2 1_555 1_555
O3 Mn1 1_555 1_555
O4 Mn1 1_555 1_555
C8 O4 1_555 1_555
O5 C8 1_555 1_555
C9 C8 1_555 1_555
C10 C9 1_555 1_555
C11 C10 1_555 1_555
C12 C11 1_555 1_555
C13 C12 1_555 1_555
C14 C9 1_555 1_555
O6 Mn1 1_555 1_555
N1 Mn1 1_555 1_555
C15 N1 1_555 1_555
C16 C15 1_555 1_555
C17 C16 1_555 1_555
C18 C17 1_555 1_555
C19 N1 1_555 1_555
Mn2 O5 1_555 1_555
O7 Mn2 1_555 1_555
C20 O7 1_555 1_555
C21 C20 1_555 1_555
O8 Mn2 1_555 1_555
C22 O8 1_555 1_555
C23 C22 1_555 1_555
H1 C3 1_555 1_555
H2 C4 1_555 1_555
H3 C5 1_555 1_555
H4 C6 1_555 1_555
H5 C10 1_555 1_555
H6 C11 1_555 1_555
H7 C12 1_555 1_555
H8 C13 1_555 1_555
H9 C15 1_555 1_555
H10 C16 1_555 1_555
H11 C17 1_555 1_555
H12 C18 1_555 1_555
H13 C19 1_555 1_555
H14 O7 1_555 1_555
H15 C20 1_555 1_555
H16 C20 1_555 1_555
H17 C21 1_555 1_555
H18 C21 1_555 1_555
H19 C21 1_555 1_555
H20 O8 1_555 1_555
H21 C22 1_555 1_555
H22 C22 1_555 1_555
H23 C23 1_555 1_555
H24 C23 1_555 1_555
H25 C23 1_555 1_555
O6B Mn1 1_555 1_555
Mn1B O6 1_555 1_555
O5B Mn2 1_555 1_555
O7B Mn2 1_555 1_555
O8B Mn2 1_555 1_555
C14B O6B 1_555 1_555
O1B Mn1B 1_555 1_555
O3B Mn1B 1_555 1_555
O4B Mn1B 1_555 1_555
N1B Mn1B 1_555 1_555
C20B O7B 1_555 1_555
H14B O7B 1_555 1_555
C22B O8B 1_555 1_555
H20B O8B 1_555 1_555
C9B C14B 1_555 1_555
C13B C14B 1_555 1_555
C1B O1B 1_555 1_555
C7B O3B 1_555 1_555
C8B O4B 1_555 1_555
C15B N1B 1_555 1_555
C19B N1B 1_555 1_555
C21B C20B 1_555 1_555
H15B C20B 1_555 1_555
H16B C20B 1_555 1_555
C23B C22B 1_555 1_555
H21B C22B 1_555 1_555
H22B C22B 1_555 1_555
C10B C9B 1_555 1_555
C12B C13B 1_555 1_555
H8B C13B 1_555 1_555
O2B C1B 1_555 1_555
C2B C1B 1_555 1_555
C6B C7B 1_555 1_555
C16B C15B 1_555 1_555
H9B C15B 1_555 1_555
C18B C19B 1_555 1_555
H13B C19B 1_555 1_555
H17B C21B 1_555 1_555
H18B C21B 1_555 1_555
H19B C21B 1_555 1_555
H23B C23B 1_555 1_555
H24B C23B 1_555 1_555
H25B C23B 1_555 1_555
C11B C10B 1_555 1_555
H5B C10B 1_555 1_555
H7B C12B 1_555 1_555
C3B C2B 1_555 1_555
C5B C6B 1_555 1_555
H4B C6B 1_555 1_555
C17B C16B 1_555 1_555
H10B C16B 1_555 1_555
H12B C18B 1_555 1_555
H6B C11B 1_555 1_555
C4B C3B 1_555 1_555
H1B C3B 1_555 1_555
H3B C5B 1_555 1_555
H11B C17B 1_555 1_555
H2B C4B 1_555 1_555
O5B_2 C8B 1_555 1_555
Mn2_2 O5B_2 1_555 1_555
C6 C7 1_555 1_555
C7 O3 1_555 1_555
C13 C14 1_555 1_555
C14 O6 1_555 1_555
C18 C19 1_555 1_555
O6B Mn1B 1_555 1_555
C9B C8B 1_555 1_555
C7B C2B 1_555 1_555
C12B C11B 1_555 1_555
C18B C17B 1_555 1_555
C5B C4B 1_555 1_555

#END
