
#######################################################################
#
#                 Cambridge Crystallographic Data Centre
#                                CCDC 
#
#######################################################################
#
# If this CIF has been generated from an entry in the Cambridge 
# Structural Database, then it will include bibliographic, chemical, 
# crystal, experimental, refinement or atomic coordinate data resulting 
# from the CCDC's data processing and validation procedures.
#
#######################################################################

data_DUBFEM
_symmetry_cell_setting           triclinic
_symmetry_space_group_name_H-M   'P -1'
_symmetry_Int_Tables_number      2
_space_group_name_Hall           '-P 1'
loop_
_symmetry_equiv_pos_site_id
_symmetry_equiv_pos_as_xyz
1 x,y,z
2 -x,-y,-z
_cell_length_a                   6.2382(3)
_cell_length_b                   7.8535(3)
_cell_length_c                   13.3962(5)
_cell_angle_alpha                83.135(3)
_cell_angle_beta                 86.437(3)
_cell_angle_gamma                74.536(3)
_cell_volume                     627.694
loop_
_atom_site_label
_atom_site_type_symbol
_atom_site_fract_x
_atom_site_fract_y
_atom_site_fract_z
C1 C 0.7288(12) 0.0988(9) 0.3220(5)
C2 C 0.6106(12) 0.0417(9) 0.4164(5)
C3 C 0.7208(12) -0.0453(10) 0.5009(5)
H1 H 0.8756 -0.0761 0.4992
C4 C 0.3106(18) 0.2093(13) -0.0094(7)
C5 C 0.1440(17) 0.1001(12) -0.0042(6)
C6 C 0.0703(18) 0.0532(12) -0.0904(6)
H2 H 0.1223 0.0934 -0.1530
C7 C -0.1270(13) 0.5265(11) 0.3692(6)
C8 C -0.3264(13) 0.5155(10) 0.4383(6)
C9 C -0.3072(14) 0.3857(10) 0.5208(6)
H3 H -0.1683 0.3077 0.5334
Eu1 Eu 0.20974(6) 0.20811(5) 0.23791(3)
N1 N 0.3874(10) 0.0867(8) 0.4150(4)
N2 N 0.0715(15) 0.0469(10) 0.0863(5)
N3 N -0.5200(11) 0.6317(8) 0.4172(5)
O1 O 0.6051(9) 0.1838(8) 0.2518(4)
O2 O 0.9350(8) 0.0672(7) 0.3208(4)
O3 O 0.3727(11) 0.2343(9) 0.0740(4)
O4 O 0.3750(14) 0.2682(9) -0.0920(5)
O5 O 0.0252(9) 0.3812(7) 0.3685(4)
O6 O -0.1269(10) 0.6675(7) 0.3191(5)
O8 O 0.2544(11) 0.5126(8) 0.2031(5)
H6 H 0.3133 0.5793 0.1609
H7 H 0.1613 0.5846 0.2386
O9 O -0.1248(10) 0.3870(8) 0.1566(4)
H8 H -0.1626 0.5008 0.1496
H9 H -0.2191 0.3304 0.1449
O10 O 0.3884(9) -0.1094(7) 0.2471(4)
H10 H 0.2972 -0.1391 0.2321
H11 H 0.4564 -0.1491 0.2165
C1A C 0.2712(12) -0.0988(9) 0.6780(5)
C2A C 0.3894(12) -0.0417(9) 0.5836(5)
C3A C 0.2792(12) 0.0453(10) 0.4991(5)
H1A H 0.1244 0.0761 0.5008
C4A C -0.3106(18) -0.2093(13) 0.0094(7)
C5A C -0.1440(17) -0.1001(12) 0.0042(6)
C6A C -0.0703(18) -0.0532(12) 0.0904(6)
H2A H -0.1223 -0.0934 0.1530
C7A C -0.8730(13) 0.4735(11) 0.6308(6)
C8A C -0.6736(13) 0.4845(10) 0.5617(6)
C9A C -0.6928(14) 0.6143(10) 0.4792(6)
H3A H -0.8317 0.6923 0.4666
Eu1A Eu 0.79026(6) -0.20811(5) 0.76209(3)
Eu1_2 Eu 1.20974(6) 0.20811(5) 0.23791(3)
Eu1A_2 Eu -0.20974(6) -0.20811(5) 0.76209(3)
Eu1A_3 Eu -0.20974(6) -0.20811(5) -0.23791(3)
Eu1A_4 Eu -1.20974(6) 0.79189(5) 0.76209(3)
N1A N 0.6126(10) -0.0867(8) 0.5850(4)
N2A N -0.0715(15) -0.0469(10) -0.0863(5)
N2A_2 N 0.9285(15) -0.0469(10) 0.9137(5)
N3A N -0.4800(11) 0.3683(8) 0.5828(5)
O1A O 0.3949(9) -0.1838(8) 0.7482(4)
O2A O 0.0650(8) -0.0672(7) 0.6792(4)
O2_2 O -0.0650(8) 0.0672(7) 0.3208(4)
O2A_2 O 1.0650(8) -0.0672(7) 0.6792(4)
O3A O -0.3727(11) -0.2343(9) -0.0740(4)
O3A_2 O 0.6273(11) -0.2343(9) 0.9260(4)
O4A O -0.3750(14) -0.2682(9) 0.0920(5)
O5A O -1.0252(9) 0.6188(7) 0.6315(4)
O5A_2 O 0.9748(9) -0.3812(7) 0.6315(4)
O6A O -0.8731(10) 0.3325(7) 0.6809(5)
O8A O 0.7456(11) -0.5126(8) 0.7969(5)
H6A H 0.6867 -0.5793 0.8391
H7A H 0.8387 -0.5846 0.7614
O9A O 1.1248(10) -0.3870(8) 0.8434(4)
H8A H 1.1626 -0.5008 0.8504
H9A H 1.2191 -0.3304 0.8551
O10A O 0.6116(9) 0.1094(7) 0.7529(4)
H10A H 0.7028 0.1391 0.7679
H11A H 0.5436 0.1491 0.7835
O7 O 0.345(4) 0.600(4) 1.007(2)
H4 H 0.4182 0.6729 0.9766
H5 H 0.2952 0.5654 0.9527
loop_
_geom_bond_atom_site_label_1
_geom_bond_atom_site_label_2
_geom_bond_site_symmetry_1
_geom_bond_site_symmetry_2
C1 C2 1_555 1_555
C2 C3 1_555 1_555
C3 H1 1_555 1_555
C4 C5 1_555 1_555
C5 C6 1_555 1_555
C6 H2 1_555 1_555
C7 C8 1_555 1_555
C8 C9 1_555 1_555
C9 H3 1_555 1_555
Eu1 N1 1_555 1_555
N1 C2 1_555 1_555
N2 C5 1_555 1_555
N3 C8 1_555 1_555
O1 C1 1_555 1_555
O2 C1 1_555 1_555
O3 C4 1_555 1_555
O4 C4 1_555 1_555
O5 C7 1_555 1_555
O6 C7 1_555 1_555
O7 H4 1_555 1_555
H5 O7 1_555 1_555
O8 Eu1 1_555 1_555
H6 O8 1_555 1_555
H7 O8 1_555 1_555
O9 Eu1 1_555 1_555
H8 O9 1_555 1_555
H9 O9 1_555 1_555
O10 Eu1 1_555 1_555
H10 O10 1_555 1_555
H11 O10 1_555 1_555
C1A C2A 1_555 1_555
C2A C3A 1_555 1_555
C3A N1 1_555 1_555
H1A C3A 1_555 1_555
C4A C5A 1_555 1_555
C5A C6A 1_555 1_555
C6A N2 1_555 1_555
H2A C6A 1_555 1_555
C7A C8A 1_555 1_555
C8A C9A 1_555 1_555
C9A N3 1_555 1_555
H3A C9A 1_555 1_555
Eu1A N1A 1_555 1_555
Eu1_2 O2 1_555 1_555
Eu1A_2 O2A 1_555 1_555
Eu1A_3 N2A 1_555 1_555
Eu1A_4 O5A 1_555 1_555
N1A C3 1_555 1_555
N2A C6 1_555 1_555
N2A_2 Eu1A 1_555 1_555
N3A C9 1_555 1_555
O1A C1A 1_555 1_555
O2A C1A 1_555 1_555
O2_2 Eu1 1_555 1_555
O2A_2 Eu1A 1_555 1_555
O3A C4A 1_555 1_555
O3A_2 Eu1A 1_555 1_555
O4A C4A 1_555 1_555
O5A C7A 1_555 1_555
O5A_2 Eu1A 1_555 1_555
O6A C7A 1_555 1_555
O8A Eu1A 1_555 1_555
H6A O8A 1_555 1_555
H7A O8A 1_555 1_555
O9A Eu1A 1_555 1_555
H8A O9A 1_555 1_555
H9A O9A 1_555 1_555
O10A Eu1A 1_555 1_555
H10A O10A 1_555 1_555
H11A O10A 1_555 1_555
Eu1 N2 1_555 1_555
Eu1 O1 1_555 1_555
Eu1 O3 1_555 1_555
Eu1 O5 1_555 1_555
C2A N1A 1_555 1_555
C5A N2A 1_555 1_555
C8A N3A 1_555 1_555
Eu1A O1A 1_555 1_555
Eu1A_3 O3A 1_555 1_555

#END
