
#######################################################################
#
#                 Cambridge Crystallographic Data Centre
#                                CCDC 
#
#######################################################################
#
# If this CIF has been generated from an entry in the Cambridge 
# Structural Database, then it will include bibliographic, chemical, 
# crystal, experimental, refinement or atomic coordinate data resulting 
# from the CCDC's data processing and validation procedures.
#
#######################################################################

data_DUBGIR
_symmetry_cell_setting           monoclinic
_symmetry_space_group_name_H-M   'P 21/n'
_symmetry_Int_Tables_number      14
_space_group_name_Hall           '-P 2yn'
loop_
_symmetry_equiv_pos_site_id
_symmetry_equiv_pos_as_xyz
1 x,y,z
2 1/2-x,1/2+y,1/2-z
3 -x,-y,-z
4 1/2+x,1/2-y,1/2+z
_cell_length_a                   8.2206(16)
_cell_length_b                   26.939(5)
_cell_length_c                   17.017(3)
_cell_angle_alpha                90
_cell_angle_beta                 95.952(4)
_cell_angle_gamma                90
_cell_volume                     3748.18
loop_
_atom_site_label
_atom_site_type_symbol
_atom_site_fract_x
_atom_site_fract_y
_atom_site_fract_z
Pr1 Pr 0.26593(3) 0.935310(9) 1.004529(14)
Ni1 Ni 1.02589(7) 0.75129(2) 0.75499(3)
Ni2 Ni -0.19703(8) 0.99730(2) 0.50566(4)
N1 N 0.9001(5) 0.76630(15) 0.6434(2)
N2 N 0.8370(5) 0.78501(15) 0.8122(2)
N3 N -0.1608(5) 0.99455(15) 0.6286(2)
N4 N 0.0034(5) 0.94967(16) 0.4981(2)
N5 N -0.2763(5) 0.78273(15) 1.2038(2)
N6 N -0.5006(6) 0.94217(14) 0.5026(2)
N7 N -0.0009(5) 0.91159(18) 0.4614(3)
N8 N -0.3601(6) 0.93868(16) 0.5196(3)
N9 N 0.7311(5) 0.99523(16) 1.3828(2)
N10 N -0.6428(6) 0.94320(17) 0.4848(3)
N11 N -0.0053(6) 0.8748(2) 0.4265(3)
C1 C 0.5916(6) 0.83202(18) 0.8871(3)
C2 C 0.7232(6) 0.78353(18) 0.4963(3)
C3 C 0.7532(6) 0.8448(2) 0.9030(3)
H1 H 0.7836 0.8695 0.9397
C4 C -0.0909(6) 0.99066(18) 0.7913(3)
C5 C -0.1559(6) 1.03292(19) 0.7545(3)
H2 H -0.1778 1.0607 0.7842
C6 C 0.8343(6) 0.81057(19) 0.6249(3)
H3 H 0.8487 0.8358 0.6623
C7 C 0.8781(6) 0.73040(18) 0.5877(3)
H4 H 0.9236 0.6993 0.5989
C8 C -0.1882(7) 1.0337(2) 0.6728(3)
H5 H -0.2303 1.0625 0.6483
C9 C 0.8703(6) 0.8211(2) 0.8646(3)
H6 H 0.9787 0.8308 0.8760
C10 C -0.0716(7) 0.94906(19) 0.7451(3)
H7 H -0.0346 0.9193 0.7681
C11 C -0.1081(7) 0.9527(2) 0.6646(3)
H8 H -0.0955 0.9247 0.6338
C12 C 0.7910(6) 0.73816(18) 0.5153(3)
H9 H 0.7782 0.7123 0.4789
C13 C 0.7457(6) 0.82086(19) 0.5531(3)
H10 H 0.7018 0.8523 0.5429
C14 C 0.6806(6) 0.7718(2) 0.7982(3)
H11 H 0.6547 0.7460 0.7628
C15 C 0.5551(6) 0.7938(2) 0.8326(3)
H12 H 0.4477 0.7834 0.8199
C16 C 0.5425(6) 0.99724(18) 1.1375(3)
C17 C 0.1014(6) 0.85844(18) 1.0947(3)
C18 C -0.0312(6) 0.99124(18) 0.8775(3)
C19 C -0.0263(6) 0.83062(18) 1.1347(3)
C20 C -0.1164(6) 0.79348(19) 1.0954(3)
H13 H -0.0959 0.7842 1.0447
C21 C 0.4607(6) 0.85906(17) 0.9265(3)
C22 C 0.6216(6) 0.95282(19) 1.2659(3)
H14 H 0.5883 0.9230 1.2418
C23 C -0.2370(6) 0.77034(19) 1.1319(3)
H15 H -0.2947 0.7446 1.1053
C24 C 0.6304(6) 0.79235(19) 0.4156(3)
C25 C -0.1879(6) 0.81899(19) 1.2418(3)
H16 H -0.2128 0.8287 1.2916
C26 C 0.6839(7) 0.9535(2) 1.3444(3)
H17 H 0.6936 0.9236 1.3718
C27 C -0.0611(6) 0.8424(2) 1.2093(3)
H18 H 0.0008 0.8663 1.2384
C28 C 0.6585(7) 1.0398(2) 1.2626(3)
H19 H 0.6525 1.0700 1.2361
C29 C 0.7171(7) 1.0378(2) 1.3415(3)
H20 H 0.7484 1.0673 1.3673
O1 O 1.1455(4) 0.82144(13) 0.7557(2)
H21 H 1.1940 0.8240 0.7161
O2 O 0.0692(4) 0.86754(13) 1.0221(2)
O3 O 0.3175(4) 0.86117(13) 0.8939(2)
O4 O 0.5037(4) 0.87870(13) 0.9931(2)
O5 O 0.2319(4) 0.87242(12) 1.1336(2)
O6 O 0.5451(5) 0.83049(15) 0.4067(2)
C30 C 0.6087(6) 0.99666(19) 1.2232(3)
O9 O 0.4605(4) 0.96048(13) 1.11182(19)
O10 O 0.2527(4) 1.03163(14) 0.9991(2)
O11 O 0.5729(4) 1.03424(13) 1.09727(19)
O12 O 0.0464(4) 0.95408(13) 0.90481(19)
O13 O -0.0577(4) 1.03012(12) 0.91549(19)
O14 O 0.6484(4) 0.75954(12) 0.36468(19)
O15 O 0.9093(5) 0.68229(13) 0.7587(2)
H22 H 0.9253 0.6708 0.8034
Pr1B Pr 0.73407(3) 1.064690(9) 0.995471(14)
Pr1B_2 Pr -0.26593(3) 1.064690(9) 0.995471(14)
Ni1C Ni -0.47411(7) 0.74871(2) 1.25499(3)
Ni1C_2 Ni 0.52589(7) 0.74871(2) 0.25499(3)
Ni2B Ni 0.19703(8) 1.00270(2) 0.49434(4)
Ni2_2 Ni 0.80297(8) 0.99730(2) 1.50566(4)
Ni2B_2 Ni -0.80297(8) 1.00270(2) 0.49434(4)
N4B N -0.0034(5) 1.05033(16) 0.5019(2)
N5C N 1.2237(5) 0.71727(15) 0.7038(2)
N9_2 N -0.2689(5) 0.99523(16) 0.3828(2)
N10B N -0.3572(6) 1.05680(17) 0.5152(3)
O11B O 0.4271(4) 0.96576(13) 0.90273(19)
O13B O 0.0577(4) 0.96988(12) 1.08451(19)
O14C O 1.1484(4) 0.74046(12) 0.86468(19)
O7 O 0.7229(7) 0.1851(2) 0.5066(3)
O8 O 0.6349(7) 0.15653(18) 0.3538(4)
loop_
_geom_bond_atom_site_label_1
_geom_bond_atom_site_label_2
_geom_bond_site_symmetry_1
_geom_bond_site_symmetry_2
Pr1 O2 1_555 1_555
Ni1 N1 1_555 1_555
Ni2 N3 1_555 1_555
N1 C6 1_555 1_555
N2 Ni1 1_555 1_555
N3 C8 1_555 1_555
N4 Ni2 1_555 1_555
N5 C23 1_555 1_555
N6 N8 1_555 1_555
N7 N4 1_555 1_555
N8 Ni2 1_555 1_555
N9 C26 1_555 1_555
N10 N6 1_555 1_555
N11 N7 1_555 1_555
C1 C3 1_555 1_555
C2 C12 1_555 1_555
C3 H1 1_555 1_555
C4 C5 1_555 1_555
C5 H2 1_555 1_555
C6 H3 1_555 1_555
C7 N1 1_555 1_555
H4 C7 1_555 1_555
C8 C5 1_555 1_555
H5 C8 1_555 1_555
C9 N2 1_555 1_555
H6 C9 1_555 1_555
C10 C4 1_555 1_555
H7 C10 1_555 1_555
C11 N3 1_555 1_555
H8 C11 1_555 1_555
C12 C7 1_555 1_555
H9 C12 1_555 1_555
C13 C2 1_555 1_555
H10 C13 1_555 1_555
C14 N2 1_555 1_555
H11 C14 1_555 1_555
C15 C1 1_555 1_555
H12 C15 1_555 1_555
C16 C30 1_555 1_555
C17 C19 1_555 1_555
C18 C4 1_555 1_555
C19 C20 1_555 1_555
C20 H13 1_555 1_555
C21 C1 1_555 1_555
C22 H14 1_555 1_555
C23 C20 1_555 1_555
H15 C23 1_555 1_555
C24 C2 1_555 1_555
C25 N5 1_555 1_555
H16 C25 1_555 1_555
C26 C22 1_555 1_555
H17 C26 1_555 1_555
C27 C19 1_555 1_555
H18 C27 1_555 1_555
C28 H19 1_555 1_555
C29 N9 1_555 1_555
H20 C29 1_555 1_555
O1 Ni1 1_555 1_555
H21 O1 1_555 1_555
O2 C17 1_555 1_555
O3 Pr1 1_555 1_555
O4 Pr1 1_555 1_555
O5 Pr1 1_555 1_555
O6 C24 1_555 1_555
C30 C22 1_555 1_555
O9 Pr1 1_555 1_555
O10 Pr1 1_555 1_555
O11 C16 1_555 1_555
O12 Pr1 1_555 1_555
O13 C18 1_555 1_555
O14 C24 1_555 1_555
O15 Ni1 1_555 1_555
H22 O15 1_555 1_555
Pr1B O11 1_555 1_555
Pr1B_2 O13 1_555 1_555
Ni1C N5 1_555 1_555
Ni1C_2 O14 1_555 1_555
Ni2B N4 1_555 1_555
Ni2_2 N9 1_555 1_555
Ni2B_2 N10 1_555 1_555
N4B Ni2 1_555 1_555
N5C Ni1 1_555 1_555
N9_2 Ni2 1_555 1_555
N10B Ni2 1_555 1_555
O11B Pr1 1_555 1_555
O13B Pr1 1_555 1_555
O14C Ni1 1_555 1_555
C3 C9 1_555 1_555
C6 C13 1_555 1_555
C10 C11 1_555 1_555
C14 C15 1_555 1_555
C16 O9 1_555 1_555
C17 O5 1_555 1_555
C18 O12 1_555 1_555
C21 O3 1_555 1_555
C21 O4 1_555 1_555
C25 C27 1_555 1_555
C28 C29 1_555 1_555
C28 C30 1_555 1_555
Ni2B N4B 1_555 1_555

#END
