
#######################################################################
#
#                 Cambridge Crystallographic Data Centre
#                                CCDC 
#
#######################################################################
#
# If this CIF has been generated from an entry in the Cambridge 
# Structural Database, then it will include bibliographic, chemical, 
# crystal, experimental, refinement or atomic coordinate data resulting 
# from the CCDC's data processing and validation procedures.
#
#######################################################################

data_DUBGOX
_symmetry_cell_setting           monoclinic
_symmetry_space_group_name_H-M   'P 21/n'
_symmetry_Int_Tables_number      14
_space_group_name_Hall           '-P 2yn'
loop_
_symmetry_equiv_pos_site_id
_symmetry_equiv_pos_as_xyz
1 x,y,z
2 1/2-x,1/2+y,1/2-z
3 -x,-y,-z
4 1/2+x,1/2-y,1/2+z
_cell_length_a                   8.207(3)
_cell_length_b                   26.902(11)
_cell_length_c                   16.964(7)
_cell_angle_alpha                90
_cell_angle_beta                 95.759(7)
_cell_angle_gamma                90
_cell_volume                     3726.49
loop_
_atom_site_label
_atom_site_type_symbol
_atom_site_fract_x
_atom_site_fract_y
_atom_site_fract_z
Nd1 Nd -0.26493(2) 0.435589(7) -0.004588(11)
Ni1 Ni 0.47520(6) 0.248937(18) -0.25538(3)
Ni2 Ni 0.19710(6) 0.497214(19) 0.49468(3)
O1 O -0.3150(3) 0.36146(10) 0.10639(17)
O2 O 0.8530(3) 0.24034(10) 0.13469(15)
O3 O 0.5918(5) 0.31759(14) -0.2605(2)
O4 O 0.3562(5) 0.17914(14) -0.2537(2)
O5 O -0.2313(3) 0.37290(10) -0.13330(17)
O6 O -0.0689(3) 0.36829(11) -0.02152(16)
O7 O -0.0479(3) 0.45441(11) 0.09526(16)
O8 O -0.2530(3) 0.53103(12) 0.00035(18)
O9 O 0.0575(3) 0.53011(10) 0.08425(15)
O10 O -0.4582(3) 0.46067(11) -0.11080(16)
O11 O -0.5729(3) 0.53440(11) -0.09633(16)
O12 O 0.9535(4) 0.16915(13) 0.09281(18)
N1 N 0.3572(4) 0.55626(14) 0.4855(2)
O13 O -0.5000(3) 0.37905(11) 0.00651(16)
N2 N 0.2771(4) 0.28308(12) -0.2039(2)
N3 N -0.8348(4) 0.28475(13) 0.18720(19)
N4 N 0.6003(4) 0.23395(12) -0.14408(19)
N5 N 0.1623(4) 0.49455(13) 0.37211(19)
N6 N -0.0033(4) 0.44977(13) 0.5023(2)
N7 N 0.0010(4) 0.41187(14) 0.5391(2)
N8 N 0.4980(4) 0.55780(12) 0.50230(19)
N9 N 0.6404(4) 0.56110(13) 0.5194(2)
N10 N -0.7312(4) 0.49535(13) -0.3822(2)
N11 N 0.0045(6) 0.37523(17) 0.5746(3)
C1 C -0.1012(5) 0.35905(15) -0.0942(2)
C2 C -0.5885(5) 0.33193(15) 0.1130(2)
C3 C 0.0262(5) 0.33140(15) -0.1343(2)
C4 C 0.7762(5) 0.21634(15) 0.0031(2)
C5 C -0.5412(5) 0.49722(15) -0.1366(2)
C6 C 0.0311(4) 0.49137(15) 0.1226(2)
C7 C -0.4584(5) 0.35912(15) 0.0727(2)
C8 C -0.7507(5) 0.34509(17) 0.0968(3)
C9 C 0.1109(6) 0.45282(18) 0.3357(3)
C10 C 0.0911(5) 0.49059(15) 0.2087(2)
C11 C -0.6827(6) 0.45347(17) -0.3439(3)
C12 C 0.8695(5) 0.20758(16) 0.0836(2)
C13 C 0.1884(6) 0.31921(17) -0.2420(3)
C14 C 0.1559(5) 0.53280(16) 0.2457(2)
C15 C -0.6777(5) 0.27115(17) 0.2009(3)
C16 C -0.7190(6) 0.53755(19) -0.3404(3)
C17 C -0.6210(6) 0.45240(17) -0.2654(3)
C18 C 0.0618(6) 0.34287(17) -0.2103(3)
C19 C 0.0725(6) 0.44895(17) 0.2548(3)
C20 C 0.7091(5) 0.26225(16) -0.0155(2)
C21 C -0.8687(5) 0.32137(17) 0.1353(3)
C22 C 0.6230(5) 0.26999(15) -0.0888(2)
C23 C 0.6655(6) 0.18936(17) -0.1249(3)
C24 C 0.2376(5) 0.27086(16) -0.1322(3)
C25 C -0.6083(5) 0.49641(15) -0.2222(2)
C26 C 0.1887(5) 0.53379(17) 0.3262(2)
C27 C 0.1162(5) 0.29378(17) -0.0951(3)
C28 C 0.7532(5) 0.17890(16) -0.0530(3)
C29 C -0.5528(5) 0.29341(18) 0.1661(3)
C30 C -0.6595(6) 0.53950(18) -0.2615(3)
H1 H 0.166(5) 0.5602(17) 0.219(3)
H2 H 0.227(5) 0.5620(16) 0.355(3)
H3 H 0.291(5) 0.2453(16) -0.108(2)
H4 H -0.588(6) 0.4235(17) -0.244(3)
H5 H 0.092(6) 0.4282(18) 0.367(3)
H6 H 0.005(5) 0.3673(14) -0.237(2)
H7 H -0.747(6) 0.5655(18) -0.369(3)
H8 H 0.650(5) 0.1653(16) -0.164(2)
H9 H 0.574(6) 0.3008(19) -0.101(3)
H10 H 0.107(5) 0.2874(16) -0.044(3)
H11 H 0.038(5) 0.4197(17) 0.235(3)
H12 H 0.798(6) 0.1426(19) -0.044(3)
H13 H 0.217(6) 0.3273(18) -0.295(3)
H14 H 0.735(5) 0.2855(17) 0.021(3)
H15 H -0.664(5) 0.2454(17) 0.240(3)
H16 H -0.449(6) 0.2810(18) 0.179(3)
H17 H -0.697(6) 0.4238(18) -0.372(3)
H18 H -0.780(5) 0.3733(17) 0.060(3)
H19 H -0.658(6) 0.5714(19) -0.242(3)
H20 H -0.990(6) 0.332(2) 0.128(3)
H21 H 0.544(8) 0.331(2) -0.316(4)
H22 H 0.619(6) 0.3320(17) -0.237(3)
H23 H 0.328(6) 0.1721(17) -0.281(2)
Nd1B Nd -0.73507(2) 0.564411(7) 0.004588(11)
Nd1B_2 Nd 0.26493(2) 0.564411(7) 0.004588(11)
Ni1C Ni -1.02480(6) 0.251063(18) 0.24462(3)
Ni1C_2 Ni 0.97520(6) 0.251063(18) 0.24462(3)
Ni2B Ni -0.19710(6) 0.502786(19) 0.50532(3)
Ni2B_2 Ni 0.80290(6) 0.502786(19) 0.50532(3)
Ni2_2 Ni -0.80290(6) 0.497214(19) -0.50532(3)
O2C O 0.3530(3) 0.25966(10) -0.36531(15)
O9B O -0.0575(3) 0.46989(10) -0.08425(15)
O11B O -0.4271(3) 0.46560(11) 0.09633(16)
N3C N 0.6652(4) 0.21525(13) -0.31280(19)
N6B N 0.0033(4) 0.55023(13) 0.4977(2)
N9B N 0.3596(4) 0.43890(13) 0.4806(2)
N10_2 N 0.2688(4) 0.49535(13) 0.6178(2)
O14 O 0.7269(6) 0.3146(2) 0.5068(3)
O15 O 0.1346(8) 0.15586(18) 0.8540(4)
loop_
_geom_bond_atom_site_label_1
_geom_bond_atom_site_label_2
_geom_bond_site_symmetry_1
_geom_bond_site_symmetry_2
Nd1 O1 1_555 1_555
Ni1 O3 1_555 1_555
Ni2 N1 1_555 1_555
O1 C7 1_555 1_555
O2 C12 1_555 1_555
O3 H21 1_555 1_555
O4 Ni1 1_555 1_555
O5 Nd1 1_555 1_555
O6 Nd1 1_555 1_555
O7 Nd1 1_555 1_555
O8 Nd1 1_555 1_555
O9 C6 1_555 1_555
O10 Nd1 1_555 1_555
O11 C5 1_555 1_555
O12 C12 1_555 1_555
N1 N8 1_555 1_555
O13 Nd1 1_555 1_555
N2 Ni1 1_555 1_555
N3 C15 1_555 1_555
N4 Ni1 1_555 1_555
N5 Ni2 1_555 1_555
N6 Ni2 1_555 1_555
N7 N6 1_555 1_555
N8 N9 1_555 1_555
N9 Ni2B_2 1_555 1_555
N10 C11 1_555 1_555
N11 N7 1_555 1_555
C1 O5 1_555 1_555
C2 C7 1_555 1_555
C3 C1 1_555 1_555
C4 C12 1_555 1_555
C5 O10 1_555 1_555
C6 O7 1_555 1_555
C7 O13 1_555 1_555
C8 C2 1_555 1_555
C9 N5 1_555 1_555
C10 C6 1_555 1_555
C11 C17 1_555 1_555
C13 N2 1_555 1_555
C14 C10 1_555 1_555
C15 C29 1_555 1_555
C16 N10 1_555 1_555
C17 C25 1_555 1_555
C18 C3 1_555 1_555
C19 C9 1_555 1_555
C20 C4 1_555 1_555
C21 N3 1_555 1_555
C22 N4 1_555 1_555
C23 N4 1_555 1_555
C24 N2 1_555 1_555
C25 C5 1_555 1_555
C26 N5 1_555 1_555
C27 C3 1_555 1_555
C28 C4 1_555 1_555
C29 C2 1_555 1_555
C30 C16 1_555 1_555
H1 C14 1_555 1_555
H2 C26 1_555 1_555
H3 C24 1_555 1_555
H4 C17 1_555 1_555
H5 C9 1_555 1_555
H6 C18 1_555 1_555
H7 C16 1_555 1_555
H8 C23 1_555 1_555
H9 C22 1_555 1_555
H10 C27 1_555 1_555
H11 C19 1_555 1_555
H12 C28 1_555 1_555
H13 C13 1_555 1_555
H14 C20 1_555 1_555
H15 C15 1_555 1_555
H16 C29 1_555 1_555
H17 C11 1_555 1_555
H18 C8 1_555 1_555
H19 C30 1_555 1_555
H20 C21 1_555 1_555
H22 O3 1_555 1_555
H23 O4 1_555 1_555
Nd1B O11 1_555 1_555
Nd1B_2 O9 1_555 1_555
Ni1C N3 1_555 1_555
Ni1C_2 O2 1_555 1_555
Ni2B N6 1_555 1_555
Ni2_2 N10 1_555 1_555
O2C Ni1 1_555 1_555
O9B Nd1 1_555 1_555
O11B Nd1 1_555 1_555
N3C Ni1 1_555 1_555
N6B Ni2 1_555 1_555
N9B Ni2 1_555 1_555
N10_2 Ni2 1_555 1_555
O6 C1 1_555 1_555
C8 C21 1_555 1_555
C10 C19 1_555 1_555
C13 C18 1_555 1_555
C14 C26 1_555 1_555
C20 C22 1_555 1_555
C23 C28 1_555 1_555
C24 C27 1_555 1_555
C25 C30 1_555 1_555
Ni2B N6B 1_555 1_555

#END
