
#######################################################################
#
#                 Cambridge Crystallographic Data Centre
#                                CCDC 
#
#######################################################################
#
# If this CIF has been generated from an entry in the Cambridge 
# Structural Database, then it will include bibliographic, chemical, 
# crystal, experimental, refinement or atomic coordinate data resulting 
# from the CCDC's data processing and validation procedures.
#
#######################################################################

data_DUBGAJ
_symmetry_cell_setting           triclinic
_symmetry_space_group_name_H-M   'P -1'
_symmetry_Int_Tables_number      2
_space_group_name_Hall           '-P 1'
loop_
_symmetry_equiv_pos_site_id
_symmetry_equiv_pos_as_xyz
1 x,y,z
2 -x,-y,-z
_cell_length_a                   6.4049(2)
_cell_length_b                   7.9925(2)
_cell_length_c                   13.5174(3)
_cell_angle_alpha                84.071(2)
_cell_angle_beta                 87.001(2)
_cell_angle_gamma                72.249(2)
_cell_volume                     655.343
loop_
_atom_site_label
_atom_site_type_symbol
_atom_site_fract_x
_atom_site_fract_y
_atom_site_fract_z
C1 C 0.7144(6) 0.6010(5) 0.3245(3)
C2 C 0.6048(6) 0.5428(5) 0.4172(3)
C3 C 0.7171(6) 0.4587(5) 0.5028(3)
H1 H 0.8691 0.4306 0.5023
C4 C 0.2923(7) 0.7060(6) -0.0086(4)
C5 C 0.1365(7) 0.5961(6) -0.0045(3)
C6 C 0.0726(7) 0.5448(6) -0.0903(3)
H2 H 0.1257 0.5796 -0.1518
C7 C -0.1356(7) 1.0278(6) 0.3757(3)
C8 C -0.3287(6) 1.0154(5) 0.4424(3)
N1 N 0.3858(5) 0.5825(4) 0.4151(3)
N2 N 0.0635(6) 0.5534(5) 0.0863(3)
O1 O 0.5895(4) 0.6800(4) 0.2548(2)
O2 O 0.9187(4) 0.5708(4) 0.3245(2)
O3 O 0.3472(5) 0.7380(5) 0.0734(2)
O4 O 0.3550(6) 0.7567(5) -0.0921(3)
O5 O 0.0210(5) 0.8840(4) 0.3759(2)
O6 O -0.1405(5) 1.1700(4) 0.3283(3)
O8 O 0.3805(5) 0.3828(4) 0.2467(2)
H5 H 0.4339 0.3017 0.2921
H6 H 0.4601 0.3391 0.1980
O9 O -0.1642(5) 0.8940(4) 0.1694(3)
H7 H -0.2099 1.0009 0.1470
H8 H -0.2831 0.8679 0.1711
O10 O 0.2200(6) 1.0173(4) 0.2069(3)
H9 H 0.2777 1.0882 0.1740
H10 H 0.1184 1.0906 0.2367
Pr1 Pr 0.19223(3) 0.70766(3) 0.240419(17)
C9 C -0.3054(7) 0.8885(6) 0.5223(3)
H11 H -0.1661 0.8124 0.5363
N3 N -0.5260(6) 1.1297(5) 0.4197(3)
C1A C 0.2856(6) 0.3990(5) 0.6755(3)
C2A C 0.3952(6) 0.4572(5) 0.5828(3)
C3A C 0.2829(6) 0.5413(5) 0.4972(3)
H1A H 0.1309 0.5694 0.4977
C4A C -0.2923(7) 0.2940(6) 0.0086(4)
C5A C -0.1365(7) 0.4039(6) 0.0045(3)
C6A C -0.0726(7) 0.4552(6) 0.0903(3)
H2A H -0.1257 0.4204 0.1518
C7A C -0.8644(7) 0.9722(6) 0.6243(3)
C8A C -0.6713(6) 0.9846(5) 0.5576(3)
N1A N 0.6142(5) 0.4175(4) 0.5849(3)
N2A N -0.0635(6) 0.4466(5) -0.0863(3)
N2A_2 N 0.9365(6) 0.4466(5) 0.9137(3)
O1A O 0.4105(4) 0.3200(4) 0.7452(2)
O2A O 0.0813(4) 0.4292(4) 0.6755(2)
O2_2 O -0.0813(4) 0.5708(4) 0.3245(2)
O2A_2 O 1.0813(4) 0.4292(4) 0.6755(2)
O3A O -0.3472(5) 0.2620(5) -0.0734(2)
O3A_2 O 0.6528(5) 0.2620(5) 0.9266(2)
O4A O -0.3550(6) 0.2433(5) 0.0921(3)
O5A O -1.0210(5) 1.1160(4) 0.6241(2)
O5A_2 O 0.9790(5) 0.1160(4) 0.6241(2)
O6A O -0.8595(5) 0.8300(4) 0.6717(3)
O8A O 0.6195(5) 0.6172(4) 0.7533(2)
H5A H 0.5661 0.6983 0.7079
H6A H 0.5399 0.6609 0.8020
O9A O 1.1642(5) 0.1060(4) 0.8306(3)
H7A H 1.2099 -0.0009 0.8530
H8A H 1.2831 0.1321 0.8289
O10A O 0.7800(6) -0.0173(4) 0.7931(3)
H9A H 0.7223 -0.0882 0.8260
H10A H 0.8816 -0.0906 0.7633
Pr1A Pr 0.80777(3) 0.29234(3) 0.759581(17)
Pr1_2 Pr 1.19223(3) 0.70766(3) 0.240419(17)
Pr1A_2 Pr -0.19223(3) 0.29234(3) 0.759581(17)
Pr1A_3 Pr -0.19223(3) 0.29234(3) -0.240419(17)
Pr1A_4 Pr -1.19223(3) 1.29234(3) 0.759581(17)
C9A C -0.6946(7) 1.1115(6) 0.4777(3)
H11A H -0.8339 1.1876 0.4637
N3A N -0.4740(6) 0.8703(5) 0.5803(3)
O7 O 0.3285(13) 0.1068(12) 0.0180(7)
H3 H 0.4546 0.1059 -0.0055
H4 H 0.2681 0.2175 0.0149
loop_
_geom_bond_atom_site_label_1
_geom_bond_atom_site_label_2
_geom_bond_site_symmetry_1
_geom_bond_site_symmetry_2
C1 C2 1_555 1_555
C2 C3 1_555 1_555
C3 H1 1_555 1_555
C4 C5 1_555 1_555
C5 C6 1_555 1_555
C6 H2 1_555 1_555
C7 C8 1_555 1_555
C8 C9 1_555 1_555
N1 C2 1_555 1_555
N2 C5 1_555 1_555
O1 C1 1_555 1_555
O2 C1 1_555 1_555
O3 C4 1_555 1_555
O4 C4 1_555 1_555
O5 C7 1_555 1_555
O6 C7 1_555 1_555
O7 H3 1_555 1_555
H4 O7 1_555 1_555
O8 H5 1_555 1_555
H6 O8 1_555 1_555
O9 H7 1_555 1_555
H8 O9 1_555 1_555
O10 H9 1_555 1_555
H10 O10 1_555 1_555
Pr1 N1 1_555 1_555
C9 H11 1_555 1_555
N3 C8 1_555 1_555
C1A C2A 1_555 1_555
C2A C3A 1_555 1_555
C3A N1 1_555 1_555
H1A C3A 1_555 1_555
C4A C5A 1_555 1_555
C5A C6A 1_555 1_555
C6A N2 1_555 1_555
H2A C6A 1_555 1_555
C7A C8A 1_555 1_555
C8A C9A 1_555 1_555
N1A C3 1_555 1_555
N2A C6 1_555 1_555
N2A_2 Pr1A 1_555 1_555
O1A C1A 1_555 1_555
O2A C1A 1_555 1_555
O2_2 Pr1 1_555 1_555
O2A_2 Pr1A 1_555 1_555
O3A C4A 1_555 1_555
O3A_2 Pr1A 1_555 1_555
O4A C4A 1_555 1_555
O5A C7A 1_555 1_555
O5A_2 Pr1A 1_555 1_555
O6A C7A 1_555 1_555
O8A H5A 1_555 1_555
H6A O8A 1_555 1_555
O9A H7A 1_555 1_555
H8A O9A 1_555 1_555
O10A H9A 1_555 1_555
H10A O10A 1_555 1_555
Pr1A N1A 1_555 1_555
Pr1_2 O2 1_555 1_555
Pr1A_2 O2A 1_555 1_555
Pr1A_3 N2A 1_555 1_555
Pr1A_4 O5A 1_555 1_555
C9A N3 1_555 1_555
H11A C9A 1_555 1_555
N3A C9 1_555 1_555
N2 Pr1 1_555 1_555
O1 Pr1 1_555 1_555
O3 Pr1 1_555 1_555
O5 Pr1 1_555 1_555
O8 Pr1 1_555 1_555
O9 Pr1 1_555 1_555
O10 Pr1 1_555 1_555
C2A N1A 1_555 1_555
C5A N2A 1_555 1_555
C8A N3A 1_555 1_555
O1A Pr1A 1_555 1_555
O3A Pr1A_3 1_555 1_555
O8A Pr1A 1_555 1_555
O9A Pr1A 1_555 1_555
O10A Pr1A 1_555 1_555

#END
