
#######################################################################
#
#                 Cambridge Crystallographic Data Centre
#                                CCDC 
#
#######################################################################
#
# If this CIF has been generated from an entry in the Cambridge 
# Structural Database, then it will include bibliographic, chemical, 
# crystal, experimental, refinement or atomic coordinate data resulting 
# from the CCDC's data processing and validation procedures.
#
#######################################################################

data_DUBGEN
_symmetry_cell_setting           triclinic
_symmetry_space_group_name_H-M   'P -1'
_symmetry_Int_Tables_number      2
_space_group_name_Hall           '-P 1'
loop_
_symmetry_equiv_pos_site_id
_symmetry_equiv_pos_as_xyz
1 x,y,z
2 -x,-y,-z
_cell_length_a                   6.2657(2)
_cell_length_b                   7.8714(2)
_cell_length_c                   13.4175(4)
_cell_angle_alpha                83.271(2)
_cell_angle_beta                 86.451(2)
_cell_angle_gamma                74.337(2)
_cell_volume                     632.469
loop_
_atom_site_label
_atom_site_type_symbol
_atom_site_fract_x
_atom_site_fract_y
_atom_site_fract_z
C1 C -0.2262(9) 0.4000(8) 0.1785(4)
C2 C -0.1120(8) 0.4593(8) 0.0839(4)
C3 C 0.2208(9) 0.4546(8) 0.0004(4)
H1 H 0.3750 0.4239 -0.0011
C4 C 0.1909(13) 0.2918(10) 0.5093(6)
C5 C 0.3562(12) 0.4020(10) 0.5045(5)
C6 C 0.5711(14) 0.5511(11) 0.4095(5)
H2 H 0.6239 0.5904 0.3472
C7 C 0.6288(9) -0.0265(9) 0.1307(5)
C8 C 0.8256(9) -0.0152(8) 0.0613(5)
C9 C 0.8066(9) 0.1132(8) -0.0205(5)
H3 H 0.6678 0.1904 -0.0335
N1 N 0.1119(7) 0.4128(6) 0.0852(4)
N2 N 0.4284(11) 0.4520(9) 0.4132(4)
N3 N 0.9794(8) 0.1317(7) -0.0821(4)
O1 O -0.1035(6) 0.3182(6) 0.2483(3)
O2 O -0.4335(6) 0.4325(6) 0.1781(3)
O3 O 0.1309(8) 0.2634(7) 0.4264(3)
O4 O 0.1258(11) 0.2333(8) 0.5923(4)
O5 O 0.4758(7) 0.1171(6) 0.1303(3)
O6 O 0.6293(7) -0.1685(6) 0.1802(4)
O8 O 0.1148(7) 0.6105(6) 0.2533(3)
H6 H 0.0426 0.6608 0.3049
H7 H 0.0655 0.6838 0.2007
O9 O 0.2496(8) -0.0139(7) 0.2959(4)
H8 H 0.3626 -0.0765 0.2650
H9 H 0.2300 -0.0969 0.3400
O10 O 0.6291(7) 0.1123(7) 0.3434(4)
H10 H 0.6780 0.0041 0.3312
H11 H 0.7359 0.1511 0.3159
Sm1 Sm 0.29215(4) 0.29202(4) 0.26185(2)
C1A C 0.2262(9) 0.6000(8) -0.1785(4)
C2A C 0.1120(8) 0.5407(8) -0.0839(4)
C3A C -0.2208(9) 0.5454(8) -0.0004(4)
H1A H -0.3750 0.5761 0.0011
C4A C 0.8091(13) 0.7082(10) 0.4907(6)
C5A C 0.6438(12) 0.5980(10) 0.4955(5)
C6A C 0.4289(14) 0.4489(11) 0.5905(5)
H2A H 0.3761 0.4096 0.6528
C7A C 1.3712(9) 0.0265(9) -0.1307(5)
C8A C 1.1744(9) 0.0152(8) -0.0613(5)
C9A C 1.1934(9) -0.1132(8) 0.0205(5)
H3A H 1.3322 -0.1904 0.0335
N1A N -0.1119(7) 0.5872(6) -0.0852(4)
N2A N 0.5716(11) 0.5480(9) 0.5868(4)
N2A_2 N -0.4284(11) 0.5480(9) -0.4132(4)
N3A N 1.0206(8) -0.1317(7) 0.0821(4)
O1A O 0.1035(6) 0.6818(6) -0.2483(3)
O2A O 0.4335(6) 0.5675(6) -0.1781(3)
O2_2 O 0.5665(6) 0.4325(6) 0.1781(3)
O2A_2 O -0.5665(6) 0.5675(6) -0.1781(3)
O3A O 0.8691(8) 0.7366(7) 0.5736(3)
O3A_2 O -0.1309(8) 0.7366(7) -0.4264(3)
O4A O 0.8742(11) 0.7667(8) 0.4077(4)
O5A O 1.5242(7) -0.1171(6) -0.1303(3)
O5A_2 O -0.4758(7) 0.8829(6) -0.1303(3)
O6A O 1.3707(7) 0.1685(6) -0.1802(4)
O8A O -0.1148(7) 0.3895(6) -0.2533(3)
H6A H -0.0426 0.3392 -0.3049
H7A H -0.0655 0.3162 -0.2007
O9A O -0.2496(8) 1.0139(7) -0.2959(4)
H8A H -0.3626 1.0765 -0.2650
H9A H -0.2300 1.0969 -0.3400
O10A O -0.6291(7) 0.8877(7) -0.3434(4)
H10A H -0.6780 0.9959 -0.3312
H11A H -0.7359 0.8489 -0.3159
Sm1A Sm -0.29215(4) 0.70798(4) -0.26185(2)
Sm1_2 Sm -0.70785(4) 0.29202(4) 0.26185(2)
Sm1A_2 Sm 0.70785(4) 0.70798(4) -0.26185(2)
Sm1A_3 Sm 0.70785(4) 0.70798(4) 0.73815(2)
Sm1A_4 Sm 1.70785(4) -0.29202(4) -0.26185(2)
O7 O 0.157(3) 0.895(2) 0.4952(14)
H4 H 0.2344 0.9424 0.4503
H5 H 0.2348 0.8623 0.5484
loop_
_geom_bond_atom_site_label_1
_geom_bond_atom_site_label_2
_geom_bond_site_symmetry_1
_geom_bond_site_symmetry_2
C1 C2 1_555 1_555
C2 N1 1_555 1_555
C3 H1 1_555 1_555
C4 C5 1_555 1_555
C5 N2 1_555 1_555
C6 H2 1_555 1_555
C7 C8 1_555 1_555
C8 C9 1_555 1_555
C9 H3 1_555 1_555
N1 C3 1_555 1_555
N2 C6 1_555 1_555
N3 C9 1_555 1_555
O1 C1 1_555 1_555
O2 C1 1_555 1_555
O3 C4 1_555 1_555
O4 C4 1_555 1_555
O5 C7 1_555 1_555
O6 C7 1_555 1_555
O7 H4 1_555 1_555
H5 O7 1_555 1_555
O8 H6 1_555 1_555
H7 O8 1_555 1_555
O9 H8 1_555 1_555
H9 O9 1_555 1_555
O10 H10 1_555 1_555
H11 O10 1_555 1_555
Sm1 N1 1_555 1_555
C1A C2A 1_555 1_555
C2A C3 1_555 1_555
C3A C2 1_555 1_555
H1A C3A 1_555 1_555
C4A C5A 1_555 1_555
C5A C6 1_555 1_555
C6A C5 1_555 1_555
H2A C6A 1_555 1_555
C7A C8A 1_555 1_555
C8A N3 1_555 1_555
C9A C8A 1_555 1_555
H3A C9A 1_555 1_555
N1A C2A 1_555 1_555
N2A C5A 1_555 1_555
N2A_2 Sm1A 1_555 1_555
N3A C8 1_555 1_555
O1A C1A 1_555 1_555
O2A C1A 1_555 1_555
O2_2 Sm1 1_555 1_555
O2A_2 Sm1A 1_555 1_555
O3A C4A 1_555 1_555
O3A_2 Sm1A 1_555 1_555
O4A C4A 1_555 1_555
O5A C7A 1_555 1_555
O5A_2 Sm1A 1_555 1_555
O6A C7A 1_555 1_555
O8A H6A 1_555 1_555
H7A O8A 1_555 1_555
O9A H8A 1_555 1_555
H9A O9A 1_555 1_555
O10A H10A 1_555 1_555
H11A O10A 1_555 1_555
Sm1A N1A 1_555 1_555
Sm1_2 O2 1_555 1_555
Sm1A_2 O2A 1_555 1_555
Sm1A_3 N2A 1_555 1_555
Sm1A_4 O5A 1_555 1_555
N2 Sm1 1_555 1_555
O1 Sm1 1_555 1_555
O3 Sm1 1_555 1_555
O5 Sm1 1_555 1_555
O8 Sm1 1_555 1_555
O9 Sm1 1_555 1_555
O10 Sm1 1_555 1_555
C3A N1A 1_555 1_555
C6A N2A 1_555 1_555
C9A N3A 1_555 1_555
O1A Sm1A 1_555 1_555
O3A Sm1A_3 1_555 1_555
O8A Sm1A 1_555 1_555
O9A Sm1A 1_555 1_555
O10A Sm1A 1_555 1_555

#END
