
#######################################################################
#
#                 Cambridge Crystallographic Data Centre
#                                CCDC 
#
#######################################################################
#
# If this CIF has been generated from an entry in the Cambridge 
# Structural Database, then it will include bibliographic, chemical, 
# crystal, experimental, refinement or atomic coordinate data resulting 
# from the CCDC's data processing and validation procedures.
#
#######################################################################

data_DUBKOC01
_symmetry_cell_setting           monoclinic
_symmetry_space_group_name_H-M   'P 21/c'
_symmetry_Int_Tables_number      14
_space_group_name_Hall           '-P 2ybc'
loop_
_symmetry_equiv_pos_site_id
_symmetry_equiv_pos_as_xyz
1 x,y,z
2 -x,1/2+y,1/2-z
3 -x,-y,-z
4 x,1/2-y,1/2+z
_cell_length_a                   7.380(5)
_cell_length_b                   20.931(13)
_cell_length_c                   16.474(9)
_cell_angle_alpha                90
_cell_angle_beta                 110.80(2)
_cell_angle_gamma                90
_cell_volume                     2378.9
loop_
_atom_site_label
_atom_site_type_symbol
_atom_site_fract_x
_atom_site_fract_y
_atom_site_fract_z
Ag1 Ag 0.70980(15) 0.33042(5) 0.73775(6)
S1 S 1.7262(5) 0.33529(13) 1.25261(19)
S2 S 1.9030(4) 0.38610(13) 1.59334(17)
O1 O 1.8463(13) 0.2842(3) 1.3000(5)
O2 O 1.5310(14) 0.3132(4) 1.2028(6)
O3 O 1.8130(14) 0.3712(4) 1.2034(5)
O4 O 1.8713(15) 0.4338(4) 1.6475(5)
O5 O 1.8216(11) 0.3256(3) 1.6025(5)
O6 O 2.1051(12) 0.3810(4) 1.6034(5)
O7 O 0.4213(11) 0.3011(3) 0.6457(5)
H1 H 0.3613 0.2727 0.6085
H2 H 0.3485 0.3338 0.6362
N1 N 1.5983(13) 0.7526(4) 1.0615(6)
H3 H 1.6177 0.7914 1.0492
N2 N 1.3651(11) 0.5328(4) 1.0590(5)
N3 N 0.9111(12) 0.3785(4) 0.8530(5)
C1 C 1.4392(14) 0.6550(5) 1.0182(7)
H4 H 1.3549 0.6292 0.9753
C2 C 1.4755(17) 0.7155(5) 0.9989(7)
H5 H 1.4162 0.7314 0.9430
C3 C 1.6896(18) 0.7312(6) 1.1411(8)
H6 H 1.7758 0.7582 1.1814
C4 C 1.6620(15) 0.6706(4) 1.1665(7)
H7 H 1.7276 0.6563 1.2227
C5 C 1.5294(14) 0.6309(4) 1.1033(6)
C6 C 1.4908(13) 0.5646(4) 1.1246(6)
C7 C 1.5768(14) 0.5391(4) 1.2064(7)
H8 H 1.6661 0.5629 1.2503
C8 C 1.5282(13) 0.4770(4) 1.2227(6)
C9 C 1.3886(14) 0.4457(4) 1.1543(6)
H9 H 1.3447 0.4057 1.1635
C10 C 1.3153(15) 0.4727(4) 1.0740(6)
C11 C 1.1741(14) 0.4394(4) 0.9985(6)
C12 C 1.1118(15) 0.3784(5) 1.0021(6)
H10 H 1.1583 0.3559 1.0542
C13 C 0.9815(16) 0.3497(5) 0.9301(7)
H11 H 0.9406 0.3084 0.9352
C14 C 0.9688(16) 0.4381(5) 0.8497(7)
H12 H 0.9178 0.4599 0.7973
C15 C 1.0970(13) 0.4690(5) 0.9178(6)
H13 H 1.1342 0.5105 0.9109
C16 C 1.6156(14) 0.4503(5) 1.3115(6)
C17 C 1.7067(14) 0.3890(4) 1.3332(6)
C18 C 1.7847(15) 0.3712(5) 1.4183(7)
H14 H 1.8391 0.3307 1.4312
C19 C 1.7869(14) 0.4099(5) 1.4854(6)
C20 C 1.6959(14) 0.4683(5) 1.4643(6)
H15 H 1.6891 0.4948 1.5084
C21 C 1.6156(14) 0.4881(5) 1.3800(6)
H16 H 1.5590 0.5284 1.3685
Ag1_2 Ag 1.70980(15) 0.33042(5) 1.73775(6)
Ag1C Ag 1.70980(15) 0.16958(5) 1.23775(6)
O1C O 0.8463(13) 0.2158(3) 0.8000(5)
O5_2 O 0.8216(11) 0.3256(3) 0.6025(5)
O8 O 0.2958(13) 0.3715(3) 0.4643(5)
O9 O 0.1398(14) 0.4379(4) 0.3140(6)
O10 O 0.0719(14) 0.2814(4) 0.1527(7)
loop_
_geom_bond_atom_site_label_1
_geom_bond_atom_site_label_2
_geom_bond_site_symmetry_1
_geom_bond_site_symmetry_2
Ag1 O7 1_555 1_555
S1 O1 1_555 1_555
S2 O4 1_555 1_555
O1 Ag1C 1_555 1_555
O2 S1 1_555 1_555
O3 S1 1_555 1_555
O5 S2 1_555 1_555
O6 S2 1_555 1_555
O7 H1 1_555 1_555
H2 O7 1_555 1_555
N1 H3 1_555 1_555
N2 C6 1_555 1_555
N3 Ag1 1_555 1_555
C1 H4 1_555 1_555
C2 N1 1_555 1_555
H5 C2 1_555 1_555
C3 N1 1_555 1_555
H6 C3 1_555 1_555
C4 C3 1_555 1_555
H7 C4 1_555 1_555
C5 C1 1_555 1_555
C6 C5 1_555 1_555
C7 C6 1_555 1_555
H8 C7 1_555 1_555
C8 C7 1_555 1_555
C9 C8 1_555 1_555
H9 C9 1_555 1_555
C10 N2 1_555 1_555
C11 C10 1_555 1_555
C12 C11 1_555 1_555
H10 C12 1_555 1_555
C13 N3 1_555 1_555
H11 C13 1_555 1_555
C14 N3 1_555 1_555
H12 C14 1_555 1_555
C15 C11 1_555 1_555
H13 C15 1_555 1_555
C16 C8 1_555 1_555
C17 S1 1_555 1_555
C18 C17 1_555 1_555
H14 C18 1_555 1_555
C19 S2 1_555 1_555
C20 C19 1_555 1_555
H15 C20 1_555 1_555
C21 C16 1_555 1_555
H16 C21 1_555 1_555
Ag1_2 O5 1_555 1_555
O1C Ag1 1_555 1_555
O5_2 Ag1 1_555 1_555
C1 C2 1_555 1_555
C4 C5 1_555 1_555
C9 C10 1_555 1_555
C12 C13 1_555 1_555
C14 C15 1_555 1_555
C16 C17 1_555 1_555
C18 C19 1_555 1_555
C20 C21 1_555 1_555

#END
