
#######################################################################
#
#                 Cambridge Crystallographic Data Centre
#                                CCDC 
#
#######################################################################
#
# If this CIF has been generated from an entry in the Cambridge 
# Structural Database, then it will include bibliographic, chemical, 
# crystal, experimental, refinement or atomic coordinate data resulting 
# from the CCDC's data processing and validation procedures.
#
#######################################################################

data_DUBKES
_symmetry_cell_setting           monoclinic
_symmetry_space_group_name_H-M   'C 2/c'
_symmetry_Int_Tables_number      15
_space_group_name_Hall           '-C 2yn'
loop_
_symmetry_equiv_pos_site_id
_symmetry_equiv_pos_as_xyz
1 x,y,z
2 -x,y,1/2-z
3 1/2+x,1/2+y,z
4 1/2-x,1/2+y,1/2-z
5 -x,-y,-z
6 x,-y,1/2+z
7 1/2-x,1/2-y,-z
8 1/2+x,1/2-y,1/2+z
_cell_length_a                   22.077(7)
_cell_length_b                   11.452(3)
_cell_length_c                   14.673(6)
_cell_angle_alpha                90
_cell_angle_beta                 111.428(9)
_cell_angle_gamma                90
_cell_volume                     3453.29
loop_
_atom_site_label
_atom_site_type_symbol
_atom_site_fract_x
_atom_site_fract_y
_atom_site_fract_z
Co1 Co 0.320395(19) 0.08232(4) 0.42868(3)
N1 N 0.72585(13) 0.4336(2) 0.8224(2)
N2 N 0.49937(13) 0.5629(2) 0.6140(2)
N3 N 0.35587(13) 0.9115(2) 0.4618(2)
O1 O 0.40408(11) 0.16130(19) 0.54203(18)
O2 O 0.32040(10) 0.27191(19) 0.46001(17)
O3 O 0.37159(12) 0.1146(2) 0.34286(18)
O4 O 0.32403(16) -0.0046(4) 0.2224(3)
O5 O 0.27259(12) 0.0587(2) 0.53282(19)
C1 C 0.68705(17) 0.3403(3) 0.8029(3)
H1 H 0.7049 0.2691 0.8302
C2 C 0.62244(16) 0.3433(3) 0.7449(3)
H2 H 0.5979 0.2751 0.7328
C3 C 0.59363(15) 0.4474(3) 0.7044(2)
C4 C 0.63348(16) 0.5442(3) 0.7224(3)
H3 H 0.6165 0.6164 0.6963
C5 C 0.69856(17) 0.5335(3) 0.7792(3)
H4 H 0.7249 0.5991 0.7881
C6 C 0.52309(15) 0.4552(3) 0.6436(2)
C7 C 0.48412(15) 0.3559(3) 0.6168(2)
H5 H 0.5014 0.2830 0.6401
C8 C 0.41972(14) 0.3664(3) 0.5556(2)
C9 C 0.39565(15) 0.4764(3) 0.5258(2)
H6 H 0.3525 0.4864 0.4846
C10 C 0.43637(16) 0.5723(3) 0.5579(2)
C11 C 0.31981(16) 0.8212(3) 0.4708(3)
H7 H 0.2757 0.8338 0.4564
C12 C 0.34382(17) 0.7121(3) 0.4999(3)
H8 H 0.3159 0.6521 0.5019
C13 C 0.41003(15) 0.6905(3) 0.5265(2)
C14 C 0.44850(16) 0.7834(3) 0.5205(2)
H9 H 0.4933 0.7742 0.5392
C15 C 0.41953(16) 0.8904(3) 0.4865(3)
H10 H 0.4459 0.9510 0.4804
C16 C 0.37884(15) 0.2600(3) 0.5182(2)
C17 C 0.3673(2) 0.0642(4) 0.2656(3)
C18 C 0.4236(2) 0.0797(4) 0.2313(3)
H11 H 0.4454 0.1531 0.2557
H12 H 0.4075 0.0820 0.1603
C19 C 0.47182(18) -0.0207(4) 0.2680(3)
H13 H 0.4895 -0.0186 0.3390
H14 H 0.4483 -0.0936 0.2485
H15 H 0.2424(18) 0.105(4) 0.529(4)
H16 H 0.293(2) 0.031(4) 0.589(2)
O3A O 0.62841(12) 0.1146(2) 0.15714(18)
O4A O 0.67597(16) -0.0046(4) 0.2776(3)
C17A C 0.6327(2) 0.0642(4) 0.2344(3)
C18A C 0.5764(2) 0.0797(4) 0.2687(3)
H11A H 0.5546 0.1531 0.2443
H12A H 0.5925 0.0820 0.3397
C19A C 0.52818(18) -0.0207(4) 0.2320(3)
H13A H 0.5105 -0.0186 0.1610
H14A H 0.5517 -0.0936 0.2515
Co1A Co 0.679605(19) 0.08232(4) 0.07132(3)
N1A N 0.27415(13) 0.4336(2) -0.3224(2)
N2A N 0.50063(13) 0.5629(2) -0.1140(2)
N3A N 0.64413(13) 0.9115(2) 0.0382(2)
O1A O 0.59592(11) 0.16130(19) -0.04203(18)
O2A O 0.67960(10) 0.27191(19) 0.03999(17)
O5A O 0.72741(12) 0.0587(2) -0.03282(19)
C1A C 0.31295(17) 0.3403(3) -0.3029(3)
H1A H 0.2951 0.2691 -0.3302
C2A C 0.37756(16) 0.3433(3) -0.2449(3)
H2A H 0.4021 0.2751 -0.2328
C3A C 0.40637(15) 0.4474(3) -0.2044(2)
C4A C 0.36652(16) 0.5442(3) -0.2224(3)
H3A H 0.3835 0.6164 -0.1963
C5A C 0.30144(17) 0.5335(3) -0.2792(3)
H4A H 0.2751 0.5991 -0.2881
C6A C 0.47691(15) 0.4552(3) -0.1436(2)
C7A C 0.51588(15) 0.3559(3) -0.1168(2)
H5A H 0.4986 0.2830 -0.1401
C8A C 0.58028(14) 0.3664(3) -0.0556(2)
C9A C 0.60435(15) 0.4764(3) -0.0258(2)
H6A H 0.6475 0.4864 0.0154
C10A C 0.56363(16) 0.5723(3) -0.0579(2)
C11A C 0.68019(16) 0.8212(3) 0.0292(3)
H7A H 0.7243 0.8338 0.0436
C12A C 0.65618(17) 0.7121(3) 0.0001(3)
H8A H 0.6841 0.6521 -0.0019
C13A C 0.58997(15) 0.6905(3) -0.0265(2)
C14A C 0.55150(16) 0.7834(3) -0.0205(2)
H9A H 0.5067 0.7742 -0.0392
C15A C 0.58047(16) 0.8904(3) 0.0135(3)
H10A H 0.5541 0.9510 0.0196
C16A C 0.62116(15) 0.2600(3) -0.0182(2)
H15A H 0.7576(18) 0.105(4) -0.029(4)
H16A H 0.707(2) 0.031(4) -0.089(2)
Co1_2 Co 0.320395(19) 1.08232(4) 0.42868(3)
Co1A_2 Co 0.679605(19) 1.08232(4) 0.07132(3)
Co1F Co 0.179605(19) 0.41768(4) -0.42868(3)
Co1G Co 0.820395(19) 0.41768(4) 0.92868(3)
N1F N 0.77415(13) 0.0664(2) 0.1776(2)
N1G N 0.22585(13) 0.0664(2) 0.3224(2)
N3_2 N 0.35587(13) -0.0885(2) 0.4618(2)
N3A_2 N 0.64413(13) -0.0885(2) 0.0382(2)
loop_
_geom_bond_atom_site_label_1
_geom_bond_atom_site_label_2
_geom_bond_site_symmetry_1
_geom_bond_site_symmetry_2
Co1 O1 1_555 1_555
N1 C1 1_555 1_555
N2 C6 1_555 1_555
N3 C11 1_555 1_555
O1 C16 1_555 1_555
O2 Co1 1_555 1_555
O3 Co1 1_555 1_555
O4 C17 1_555 1_555
O5 Co1 1_555 1_555
C1 H1 1_555 1_555
C2 C1 1_555 1_555
H2 C2 1_555 1_555
C3 C2 1_555 1_555
C4 C3 1_555 1_555
H3 C4 1_555 1_555
C5 N1 1_555 1_555
H4 C5 1_555 1_555
C6 C3 1_555 1_555
C7 C6 1_555 1_555
H5 C7 1_555 1_555
C8 C7 1_555 1_555
C9 C8 1_555 1_555
H6 C9 1_555 1_555
C10 N2 1_555 1_555
C11 H7 1_555 1_555
C12 C11 1_555 1_555
H8 C12 1_555 1_555
C13 C10 1_555 1_555
C14 C13 1_555 1_555
H9 C14 1_555 1_555
C15 N3 1_555 1_555
H10 C15 1_555 1_555
C16 O2 1_555 1_555
C17 O3 1_555 1_555
C18 C17 1_555 1_555
H11 C18 1_555 1_555
H12 C18 1_555 1_555
C19 C18 1_555 1_555
H13 C19 1_555 1_555
H14 C19 1_555 1_555
H15 O5 1_555 1_555
H16 O5 1_555 1_555
O3A C17A 1_555 1_555
O4A C17A 1_555 1_555
C17A C18A 1_555 1_555
C18A H11A 1_555 1_555
H12A C18A 1_555 1_555
C19A C19 1_555 1_555
H13A C19A 1_555 1_555
H14A C19A 1_555 1_555
Co1A O3A 1_555 1_555
N1A C1A 1_555 1_555
N2A C6A 1_555 1_555
N3A C11A 1_555 1_555
O1A Co1A 1_555 1_555
O2A Co1A 1_555 1_555
O5A Co1A 1_555 1_555
C1A H1A 1_555 1_555
C2A C1A 1_555 1_555
H2A C2A 1_555 1_555
C3A C2A 1_555 1_555
C4A C3A 1_555 1_555
H3A C4A 1_555 1_555
C5A N1A 1_555 1_555
H4A C5A 1_555 1_555
C6A C3A 1_555 1_555
C7A C6A 1_555 1_555
H5A C7A 1_555 1_555
C8A C7A 1_555 1_555
C9A C8A 1_555 1_555
H6A C9A 1_555 1_555
C10A N2A 1_555 1_555
C11A H7A 1_555 1_555
C12A C11A 1_555 1_555
H8A C12A 1_555 1_555
C13A C10A 1_555 1_555
C14A C13A 1_555 1_555
H9A C14A 1_555 1_555
C15A N3A 1_555 1_555
H10A C15A 1_555 1_555
C16A O1A 1_555 1_555
H15A O5A 1_555 1_555
H16A O5A 1_555 1_555
Co1_2 N3 1_555 1_555
Co1A_2 N3A 1_555 1_555
Co1F N1A 1_555 1_555
Co1G N1 1_555 1_555
N1F Co1A 1_555 1_555
N1G Co1 1_555 1_555
N3_2 Co1 1_555 1_555
N3A_2 Co1A 1_555 1_555
C4 C5 1_555 1_555
C8 C16 1_555 1_555
C9 C10 1_555 1_555
C12 C13 1_555 1_555
C14 C15 1_555 1_555
C18A C19A 1_555 1_555
O2A C16A 1_555 1_555
C4A C5A 1_555 1_555
C8A C16A 1_555 1_555
C9A C10A 1_555 1_555
C12A C13A 1_555 1_555
C14A C15A 1_555 1_555

#END
