
#######################################################################
#
#                 Cambridge Crystallographic Data Centre
#                                CCDC 
#
#######################################################################
#
# If this CIF has been generated from an entry in the Cambridge 
# Structural Database, then it will include bibliographic, chemical, 
# crystal, experimental, refinement or atomic coordinate data resulting 
# from the CCDC's data processing and validation procedures.
#
#######################################################################

data_DUBNAR
_symmetry_cell_setting           triclinic
_symmetry_space_group_name_H-M   'P -1'
_symmetry_Int_Tables_number      2
_space_group_name_Hall           '-P 1'
loop_
_symmetry_equiv_pos_site_id
_symmetry_equiv_pos_as_xyz
1 x,y,z
2 -x,-y,-z
_cell_length_a                   10.1410(12)
_cell_length_b                   11.447(3)
_cell_length_c                   12.2339(15)
_cell_angle_alpha                104.476(3)
_cell_angle_beta                 109.068(2)
_cell_angle_gamma                102.806(3)
_cell_volume                     1226.16
loop_
_atom_site_label
_atom_site_type_symbol
_atom_site_fract_x
_atom_site_fract_y
_atom_site_fract_z
Mn1 Mn 0.60071(5) 0.14494(4) 0.19624(4)
Ni1 Ni 0.45643(4) 0.58285(3) 0.26005(3)
O1 O 0.4895(2) 0.25697(18) 0.29691(18)
O2 O 0.6500(2) 0.33260(18) 0.18125(18)
O3 O 0.7437(2) 0.12649(19) 0.1040(2)
O4 O 0.6116(2) -0.0445(2) -0.0647(2)
O5 O 0.6600(2) -0.01598(19) 0.2547(2)
O6 O 0.7686(2) 0.18332(19) 0.38428(19)
N1 N 0.4270(2) 0.4448(2) 0.3200(2)
N2 N 0.3756(3) 0.6768(2) 0.3533(2)
N3 N 0.4383(3) 0.6832(2) 0.1592(2)
N4 N 0.5860(3) 0.5168(2) 0.2035(2)
C1 C 0.4923(3) 0.3613(3) 0.2838(3)
C2 C 0.3330(3) 0.4174(3) 0.3816(2)
C3 C 0.2721(3) 0.5117(3) 0.4231(3)
C4 C 0.1788(3) 0.4869(3) 0.4838(3)
H1 H 0.1403 0.5509 0.5128
C5 C 0.1417(3) 0.3730(3) 0.5023(3)
H2 H 0.0754 0.3565 0.5407
C6 C 0.2033(3) 0.2822(3) 0.4634(3)
H3 H 0.1798 0.2034 0.4769
C7 C 0.2979(3) 0.3038(3) 0.4055(3)
H4 H 0.3397 0.2405 0.3815
C8 C 0.3082(3) 0.6379(3) 0.4165(3)
H5 H 0.2792 0.6985 0.4637
C9 C 0.4122(4) 0.8136(3) 0.3678(3)
H6 H 0.5194 0.8510 0.3905
H7 H 0.3890 0.8594 0.4354
C10 C 0.3257(4) 0.8315(3) 0.2494(3)
H8 H 0.3777 0.9156 0.2493
H9 H 0.2268 0.8312 0.2461
C11 C 0.3079(3) 0.7264(3) 0.1356(3)
H10 H 0.2184 0.6530 0.1115
H11 H 0.2943 0.7588 0.0662
C12 C 0.5182(3) 0.7083(3) 0.0995(3)
H12 H 0.4925 0.7582 0.0495
C13 C 0.6438(3) 0.6669(3) 0.1023(3)
C14 C 0.6788(3) 0.5755(3) 0.1541(3)
C15 C 0.8081(3) 0.5478(3) 0.1570(3)
H13 H 0.8367 0.4890 0.1946
C16 C 0.8943(4) 0.6067(3) 0.1048(3)
H14 H 0.9818 0.5877 0.1081
C17 C 0.8555(4) 0.6919(3) 0.0482(3)
H15 H 0.9138 0.7294 0.0110
C18 C 0.7304(4) 0.7212(3) 0.0473(3)
H16 H 0.7024 0.7793 0.0085
C19 C 0.5866(3) 0.4062(3) 0.2177(3)
C20 C 0.7314(3) 0.0348(3) 0.0165(3)
C21 C 0.8712(3) 0.0176(3) 0.0078(3)
C22 C 0.8668(3) -0.0608(3) -0.1012(3)
H17 H 0.7753 -0.1024 -0.1712
C23 C 0.9947(3) -0.0790(3) -0.1087(3)
H18 H 0.9902 -0.1336 -0.1834
C24 C 0.7621(3) 0.0671(3) 0.3522(3)
C25 C 0.8827(3) 0.0310(3) 0.4298(3)
C26 C 0.9579(3) 0.0974(3) 0.5560(3)
H19 H 0.9289 0.1640 0.5948
C27 C 1.0744(3) 0.0675(3) 0.6257(3)
H20 H 1.1255 0.1142 0.7118
O3A O 1.2563(2) -0.12649(19) -0.1040(2)
O4A O 1.3884(2) 0.0445(2) 0.0647(2)
C20A C 1.2686(3) -0.0348(3) -0.0165(3)
C21A C 1.1288(3) -0.0176(3) -0.0078(3)
C22A C 1.1332(3) 0.0608(3) 0.1012(3)
H17A H 1.2247 0.1024 0.1712
C23A C 1.0053(3) 0.0790(3) 0.1087(3)
H18A H 1.0098 0.1336 0.1834
O5A O 1.3400(2) 0.01598(19) 0.7453(2)
O6A O 1.2314(2) -0.18332(19) 0.61572(19)
C24A C 1.2379(3) -0.0671(3) 0.6478(3)
C25A C 1.1173(3) -0.0310(3) 0.5702(3)
C26A C 1.0421(3) -0.0974(3) 0.4440(3)
H19A H 1.0711 -0.1640 0.4052
C27A C 0.9256(3) -0.0675(3) 0.3743(3)
H20A H 0.8745 -0.1142 0.2882
Mn1A Mn 0.39929(5) -0.14494(4) -0.19624(4)
Ni1A Ni 0.54357(4) -0.58285(3) -0.26005(3)
O1A O 0.5105(2) -0.25697(18) -0.29691(18)
O2A O 0.3500(2) -0.33260(18) -0.18125(18)
N1A N 0.5730(2) -0.4448(2) -0.3200(2)
N2A N 0.6244(3) -0.6768(2) -0.3533(2)
N3A N 0.5617(3) -0.6832(2) -0.1592(2)
N4A N 0.4140(3) -0.5168(2) -0.2035(2)
C1A C 0.5077(3) -0.3613(3) -0.2838(3)
C2A C 0.6670(3) -0.4174(3) -0.3816(2)
C3A C 0.7279(3) -0.5117(3) -0.4231(3)
C4A C 0.8212(3) -0.4869(3) -0.4838(3)
H1A H 0.8597 -0.5509 -0.5128
C5A C 0.8583(3) -0.3730(3) -0.5023(3)
H2A H 0.9246 -0.3565 -0.5407
C6A C 0.7967(3) -0.2822(3) -0.4634(3)
H3A H 0.8202 -0.2034 -0.4769
C7A C 0.7021(3) -0.3038(3) -0.4055(3)
H4A H 0.6603 -0.2405 -0.3815
C8A C 0.6918(3) -0.6379(3) -0.4165(3)
H5A H 0.7208 -0.6985 -0.4637
C9A C 0.5878(4) -0.8136(3) -0.3678(3)
H6A H 0.4806 -0.8510 -0.3905
H7A H 0.6110 -0.8594 -0.4354
C10A C 0.6743(4) -0.8315(3) -0.2494(3)
H8A H 0.6223 -0.9156 -0.2493
H9A H 0.7732 -0.8312 -0.2461
C11A C 0.6921(3) -0.7264(3) -0.1356(3)
H10A H 0.7816 -0.6530 -0.1115
H11A H 0.7057 -0.7588 -0.0662
C12A C 0.4818(3) -0.7083(3) -0.0995(3)
H12A H 0.5075 -0.7582 -0.0495
C13A C 0.3562(3) -0.6669(3) -0.1023(3)
C14A C 0.3212(3) -0.5755(3) -0.1541(3)
C15A C 0.1919(3) -0.5478(3) -0.1570(3)
H13A H 0.1633 -0.4890 -0.1946
C16A C 0.1057(4) -0.6067(3) -0.1048(3)
H14A H 0.0182 -0.5877 -0.1081
C17A C 0.1445(4) -0.6919(3) -0.0482(3)
H15A H 0.0862 -0.7294 -0.0110
C18A C 0.2696(4) -0.7212(3) -0.0473(3)
H16A H 0.2976 -0.7793 -0.0085
C19A C 0.4134(3) -0.4062(3) -0.2177(3)
Mn1_2 Mn 1.60071(5) 0.14494(4) 0.19624(4)
Mn1A_2 Mn 1.39929(5) -0.14494(4) -0.19624(4)
Mn1A_3 Mn 1.39929(5) -0.14494(4) 0.80376(4)
O3A_2 O 0.2563(2) -0.12649(19) -0.1040(2)
O4A_2 O 0.3884(2) 0.0445(2) 0.0647(2)
O5A_2 O 0.3400(2) 0.01598(19) -0.2547(2)
O6A_2 O 0.2314(2) -0.18332(19) -0.38428(19)
O7 O -0.0145(13) 0.3628(11) 0.1570(11)
loop_
_geom_bond_atom_site_label_1
_geom_bond_atom_site_label_2
_geom_bond_site_symmetry_1
_geom_bond_site_symmetry_2
Mn1 O1 1_555 1_555
Ni1 N1 1_555 1_555
O1 C1 1_555 1_555
O2 Mn1 1_555 1_555
O3 Mn1 1_555 1_555
O4 C20 1_555 1_555
O5 Mn1 1_555 1_555
O6 Mn1 1_555 1_555
N1 C1 1_555 1_555
N2 Ni1 1_555 1_555
N3 Ni1 1_555 1_555
N4 Ni1 1_555 1_555
C1 C19 1_555 1_555
C2 N1 1_555 1_555
C3 C2 1_555 1_555
C4 C3 1_555 1_555
H1 C4 1_555 1_555
C5 C4 1_555 1_555
H2 C5 1_555 1_555
C6 C5 1_555 1_555
H3 C6 1_555 1_555
C7 C2 1_555 1_555
H4 C7 1_555 1_555
C8 N2 1_555 1_555
H5 C8 1_555 1_555
C9 N2 1_555 1_555
H6 C9 1_555 1_555
H7 C9 1_555 1_555
C10 C9 1_555 1_555
H8 C10 1_555 1_555
H9 C10 1_555 1_555
C11 N3 1_555 1_555
H10 C11 1_555 1_555
H11 C11 1_555 1_555
C12 N3 1_555 1_555
H12 C12 1_555 1_555
C13 C12 1_555 1_555
C14 N4 1_555 1_555
C15 C14 1_555 1_555
H13 C15 1_555 1_555
C16 C15 1_555 1_555
H14 C16 1_555 1_555
C17 C16 1_555 1_555
H15 C17 1_555 1_555
C18 C13 1_555 1_555
H16 C18 1_555 1_555
C19 O2 1_555 1_555
C20 O3 1_555 1_555
C21 C20 1_555 1_555
C22 C21 1_555 1_555
H17 C22 1_555 1_555
C23 C22 1_555 1_555
H18 C23 1_555 1_555
C24 O5 1_555 1_555
C25 C24 1_555 1_555
C26 C25 1_555 1_555
H19 C26 1_555 1_555
C27 C26 1_555 1_555
H20 C27 1_555 1_555
O3A C20A 1_555 1_555
O4A C20A 1_555 1_555
C20A C21A 1_555 1_555
C21A C23 1_555 1_555
C22A C21A 1_555 1_555
H17A C22A 1_555 1_555
C23A C21 1_555 1_555
H18A C23A 1_555 1_555
O5A C24A 1_555 1_555
O6A C24A 1_555 1_555
C24A C25A 1_555 1_555
C25A C27 1_555 1_555
C26A C25A 1_555 1_555
H19A C26A 1_555 1_555
C27A C25 1_555 1_555
H20A C27A 1_555 1_555
Mn1A O4 1_555 1_555
Ni1A N1A 1_555 1_555
O1A Mn1A 1_555 1_555
O2A Mn1A 1_555 1_555
N1A C1A 1_555 1_555
N2A Ni1A 1_555 1_555
N3A Ni1A 1_555 1_555
N4A Ni1A 1_555 1_555
C1A O1A 1_555 1_555
C2A N1A 1_555 1_555
C3A C2A 1_555 1_555
C4A C3A 1_555 1_555
H1A C4A 1_555 1_555
C5A C4A 1_555 1_555
H2A C5A 1_555 1_555
C6A C5A 1_555 1_555
H3A C6A 1_555 1_555
C7A C2A 1_555 1_555
H4A C7A 1_555 1_555
C8A N2A 1_555 1_555
H5A C8A 1_555 1_555
C9A N2A 1_555 1_555
H6A C9A 1_555 1_555
H7A C9A 1_555 1_555
C10A C9A 1_555 1_555
H8A C10A 1_555 1_555
H9A C10A 1_555 1_555
C11A N3A 1_555 1_555
H10A C11A 1_555 1_555
H11A C11A 1_555 1_555
C12A N3A 1_555 1_555
H12A C12A 1_555 1_555
C13A C12A 1_555 1_555
C14A N4A 1_555 1_555
C15A C14A 1_555 1_555
H13A C15A 1_555 1_555
C16A C15A 1_555 1_555
H14A C16A 1_555 1_555
C17A C16A 1_555 1_555
H15A C17A 1_555 1_555
C18A C13A 1_555 1_555
H16A C18A 1_555 1_555
C19A O2A 1_555 1_555
Mn1_2 O4A 1_555 1_555
Mn1A_2 O3A 1_555 1_555
Mn1A_3 O5A 1_555 1_555
O3A_2 Mn1A 1_555 1_555
O4A_2 Mn1 1_555 1_555
O5A_2 Mn1A 1_555 1_555
O6A_2 Mn1A 1_555 1_555
O6 C24 1_555 1_555
N4 C19 1_555 1_555
C3 C8 1_555 1_555
C6 C7 1_555 1_555
C10 C11 1_555 1_555
C13 C14 1_555 1_555
C17 C18 1_555 1_555
C22A C23A 1_555 1_555
O6A Mn1A_3 1_555 1_555
C26A C27A 1_555 1_555
N4A C19A 1_555 1_555
C1A C19A 1_555 1_555
C3A C8A 1_555 1_555
C6A C7A 1_555 1_555
C10A C11A 1_555 1_555
C13A C14A 1_555 1_555
C17A C18A 1_555 1_555

#END
