
#######################################################################
#
#                 Cambridge Crystallographic Data Centre
#                                CCDC 
#
#######################################################################
#
# If this CIF has been generated from an entry in the Cambridge 
# Structural Database, then it will include bibliographic, chemical, 
# crystal, experimental, refinement or atomic coordinate data resulting 
# from the CCDC's data processing and validation procedures.
#
#######################################################################

data_DUBNEV
_symmetry_cell_setting           triclinic
_symmetry_space_group_name_H-M   'P -1'
_symmetry_Int_Tables_number      2
_space_group_name_Hall           '-P 1'
loop_
_symmetry_equiv_pos_site_id
_symmetry_equiv_pos_as_xyz
1 x,y,z
2 -x,-y,-z
_cell_length_a                   10.1579(7)
_cell_length_b                   10.9876(7)
_cell_length_c                   12.0233(8)
_cell_angle_alpha                104.9340(10)
_cell_angle_beta                 97.2920(10)
_cell_angle_gamma                101.5580(10)
_cell_volume                     1247.51
loop_
_atom_site_label
_atom_site_type_symbol
_atom_site_fract_x
_atom_site_fract_y
_atom_site_fract_z
Cu1 Cu 0.21587(4) -0.11717(3) -0.02246(3)
Mn1 Mn 0.31183(4) -0.12142(3) 0.42866(3)
O1 O 0.34823(19) -0.00096(17) 0.31015(16)
O2 O 0.2572(2) -0.25916(18) 0.24277(16)
O3 O 0.38285(18) 0.05903(17) 0.56394(16)
O4 O 0.53658(17) 0.22070(18) 0.53975(18)
O5 O -0.08584(18) 0.12260(19) 0.59293(19)
O6 O -0.16291(18) 0.2512(2) 0.50326(19)
N1 N 0.3425(2) -0.0093(2) 0.11465(19)
N2 N 0.2491(3) 0.0042(2) -0.1076(2)
N3 N 0.0529(3) -0.2161(2) -0.1314(2)
N4 N 0.2107(2) -0.2498(2) 0.05101(19)
N5 N 0.2570(2) 0.5070(2) 0.4015(2)
H1 H 0.2111 0.5668 0.4290
H2 H 0.3467 0.5412 0.4074
C1 C 0.3208(3) -0.0568(2) 0.2047(2)
C2 C 0.4242(3) 0.1170(3) 0.1345(2)
C3 C 0.4206(3) 0.1744(3) 0.0426(3)
C4 C 0.5029(4) 0.3007(3) 0.0628(3)
H3 H 0.5002 0.3391 0.0024
C5 C 0.5854(4) 0.3678(3) 0.1671(4)
H4 H 0.6352 0.4525 0.1793
C6 C 0.5947(4) 0.3081(4) 0.2560(3)
H5 H 0.6548 0.3516 0.3267
C7 C 0.5158(4) 0.1854(3) 0.2400(3)
H6 H 0.5233 0.1471 0.3003
C8 C 0.3370(3) 0.1135(3) -0.0718(3)
H7 H 0.3483 0.1592 -0.1265
C9 C 0.1678(5) -0.0337(4) -0.2284(3)
H8 H 0.1783 -0.1174 -0.2726
H9 H 0.2010 0.0297 -0.2679
C10 C 0.0198(5) -0.0411(4) -0.2235(4)
H10 H -0.0304 -0.0573 -0.3021
H11 H 0.0112 0.0421 -0.1766
C11 C -0.0447(4) -0.1464(4) -0.1721(3)
H12 H -0.0842 -0.1072 -0.1067
H13 H -0.1183 -0.2086 -0.2311
C12 C 0.0154(3) -0.3402(3) -0.1631(3)
H14 H -0.0633 -0.3789 -0.2201
C13 C 0.0841(3) -0.4254(3) -0.1187(3)
C14 C 0.1720(3) -0.3833(3) -0.0083(2)
C15 C 0.2220(3) -0.4753(3) 0.0345(3)
H15 H 0.2779 -0.4501 0.1081
C16 C 0.1884(3) -0.6042(3) -0.0329(3)
H16 H 0.2229 -0.6645 -0.0039
C17 C 0.1042(3) -0.6451(3) -0.1426(3)
H17 H 0.0847 -0.7314 -0.1879
C18 C 0.0505(3) -0.5568(3) -0.1831(3)
H18 H -0.0095 -0.5845 -0.2548
C19 C 0.2565(3) -0.2030(2) 0.1664(2)
C20 C 0.3069(2) 0.2373(2) 0.5222(2)
C21 C 0.1769(2) 0.1946(2) 0.5445(2)
H19 H 0.1582 0.1243 0.5746
C22 C 0.0756(2) 0.2577(2) 0.5216(2)
C23 C 0.1035(3) 0.3621(2) 0.4762(2)
H20 H 0.0345 0.4029 0.4601
C24 C 0.2339(3) 0.4071(2) 0.4542(2)
C25 C 0.3344(2) 0.3429(2) 0.4774(2)
H21 H 0.4213 0.3708 0.4627
C26 C 0.4160(2) 0.1673(2) 0.5435(2)
C27 C -0.0661(2) 0.2069(2) 0.5406(2)
Mn1A Mn -0.31183(4) 0.12142(3) 0.57134(3)
Mn1A_2 Mn 0.68817(4) 0.12142(3) 0.57134(3)
O4A O 0.46342(17) -0.22070(18) 0.46025(18)
O5A O 0.08584(18) -0.12260(19) 0.40707(19)
O6A O 0.16291(18) -0.2512(2) 0.49674(19)
loop_
_geom_bond_atom_site_label_1
_geom_bond_atom_site_label_2
_geom_bond_site_symmetry_1
_geom_bond_site_symmetry_2
Cu1 N1 1_555 1_555
Mn1 O1 1_555 1_555
O1 C1 1_555 1_555
O2 Mn1 1_555 1_555
O3 Mn1 1_555 1_555
O4 C26 1_555 1_555
O5 C27 1_555 1_555
O6 C27 1_555 1_555
N1 C1 1_555 1_555
N2 Cu1 1_555 1_555
N3 Cu1 1_555 1_555
N4 Cu1 1_555 1_555
N5 H1 1_555 1_555
H2 N5 1_555 1_555
C1 C19 1_555 1_555
C2 N1 1_555 1_555
C3 C2 1_555 1_555
C4 C3 1_555 1_555
H3 C4 1_555 1_555
C5 C4 1_555 1_555
H4 C5 1_555 1_555
C6 C5 1_555 1_555
H5 C6 1_555 1_555
C7 C2 1_555 1_555
H6 C7 1_555 1_555
C8 N2 1_555 1_555
H7 C8 1_555 1_555
C9 N2 1_555 1_555
H8 C9 1_555 1_555
H9 C9 1_555 1_555
C10 C9 1_555 1_555
H10 C10 1_555 1_555
H11 C10 1_555 1_555
C11 N3 1_555 1_555
H12 C11 1_555 1_555
H13 C11 1_555 1_555
C12 N3 1_555 1_555
H14 C12 1_555 1_555
C13 C12 1_555 1_555
C14 N4 1_555 1_555
C15 C14 1_555 1_555
H15 C15 1_555 1_555
C16 C15 1_555 1_555
H16 C16 1_555 1_555
C17 C16 1_555 1_555
H17 C17 1_555 1_555
C18 C13 1_555 1_555
H18 C18 1_555 1_555
C19 O2 1_555 1_555
C20 C21 1_555 1_555
C21 H19 1_555 1_555
C22 C21 1_555 1_555
C23 C22 1_555 1_555
H20 C23 1_555 1_555
C24 N5 1_555 1_555
C25 C20 1_555 1_555
H21 C25 1_555 1_555
C26 O3 1_555 1_555
C27 C22 1_555 1_555
Mn1A O5 1_555 1_555
Mn1A_2 O4 1_555 1_555
O4A Mn1 1_555 1_555
O5A Mn1 1_555 1_555
O6A Mn1 1_555 1_555
O6 Mn1A 1_555 1_555
N4 C19 1_555 1_555
C3 C8 1_555 1_555
C6 C7 1_555 1_555
C10 C11 1_555 1_555
C13 C14 1_555 1_555
C17 C18 1_555 1_555
C20 C26 1_555 1_555
C23 C24 1_555 1_555
C24 C25 1_555 1_555

#END
