
#######################################################################
#
#                 Cambridge Crystallographic Data Centre
#                                CCDC 
#
#######################################################################
#
# If this CIF has been generated from an entry in the Cambridge 
# Structural Database, then it will include bibliographic, chemical, 
# crystal, experimental, refinement or atomic coordinate data resulting 
# from the CCDC's data processing and validation procedures.
#
#######################################################################

data_DUBQIC
_symmetry_cell_setting           triclinic
_symmetry_space_group_name_H-M   'P -1'
_symmetry_Int_Tables_number      2
_space_group_name_Hall           '-P 1'
loop_
_symmetry_equiv_pos_site_id
_symmetry_equiv_pos_as_xyz
1 x,y,z
2 -x,-y,-z
_cell_length_a                   10.698(3)
_cell_length_b                   12.798(3)
_cell_length_c                   16.415(4)
_cell_angle_alpha                67.119(8)
_cell_angle_beta                 89.775(8)
_cell_angle_gamma                88.759(9)
_cell_volume                     2070.08
loop_
_atom_site_label
_atom_site_type_symbol
_atom_site_fract_x
_atom_site_fract_y
_atom_site_fract_z
Cd1 Cd -0.11217(9) 0.17085(9) 0.05849(5)
Cd2 Cd -0.10541(9) -0.17175(9) -0.55528(5)
C1 C -0.2225(14) -0.2458(17) -0.6706(8)
C2 C -0.2574(12) 0.0132(14) -0.0254(7)
H1 H -0.1901 -0.0350 0.0013
C3 C -0.2630(13) -0.3169(14) -0.7234(8)
H2 H -0.3532 -0.3108 -0.7304
H3 H -0.2413 -0.3960 -0.6894
C4 C -0.3319(11) -0.0167(13) -0.0768(8)
H4 H -0.3132 -0.0814 -0.0876
C5 C -0.2023(13) -0.2803(14) -0.8166(8)
H5 H -0.2166 -0.1987 -0.8492
C6 C -0.4379(12) 0.0491(13) -0.1143(7)
C7 C -0.0663(14) -0.3046(14) -0.8047(8)
H6 H -0.0514 -0.3860 -0.7784
H7 H -0.0334 -0.2725 -0.7648
C8 C -0.4585(12) 0.1423(14) -0.0951(8)
H8 H -0.5295 0.1877 -0.1171
C9 C 0.0017(13) -0.2543(14) -0.8941(8)
C10 C -0.3755(12) 0.1700(13) -0.0437(7)
H9 H -0.3923 0.2348 -0.0326
C11 C -0.2400(11) 0.2476(14) 0.1723(8)
C12 C -0.5227(13) 0.0201(15) -0.1760(8)
H10 H -0.5673 -0.0484 -0.1424
H11 H -0.5840 0.0810 -0.2019
C13 C -0.2932(14) 0.3049(14) 0.2313(8)
H12 H -0.2923 0.3864 0.1987
H13 H -0.3798 0.2836 0.2440
C14 C -0.4501(14) 0.0029(16) -0.2482(9)
H14 H -0.3914 0.0641 -0.2716
H15 H -0.4014 -0.0671 -0.2219
C15 C -0.2245(13) 0.2765(13) 0.3183(7)
H16 H -0.2306 0.1947 0.3526
C16 C -0.5225(12) -0.0025(14) -0.3243(8)
H17 H -0.5629 0.0705 -0.3567
H18 H -0.5871 -0.0586 -0.3021
C17 C -0.0897(13) 0.3043(14) 0.3049(8)
H19 H -0.0814 0.3860 0.2810
H20 H -0.0556 0.2764 0.2622
C18 C -0.3711(13) -0.1625(14) -0.4540(8)
H21 H -0.3872 -0.2267 -0.4654
C19 C -0.0116(12) 0.2502(16) 0.3944(9)
C20 C -0.4560(12) -0.1329(14) -0.4036(8)
H22 H -0.5256 -0.1770 -0.3806
C21 C -0.4359(13) -0.0342(15) -0.3873(8)
C22 C -0.3323(12) 0.0277(13) -0.4242(7)
H23 H -0.3165 0.0943 -0.4163
C23 C -0.2521(11) -0.0102(11) -0.4730(7)
H24 H -0.1828 0.0336 -0.4973
C24 C 0.1269(12) -0.8113(13) -0.8172(8)
H25 H 0.1164 -0.8890 -0.7877
C25 C 0.2087(12) -0.7600(14) -0.7837(9)
H26 H 0.2533 -0.8022 -0.7325
C26 C 0.2267(11) -0.6427(15) -0.8259(8)
C27 C 0.1622(12) -0.5835(13) -0.9024(8)
H27 H 0.1727 -0.5059 -0.9325
C28 C 0.0807(13) -0.6420(14) -0.9341(8)
H28 H 0.0391 -0.6014 -0.9871
C29 C 0.3147(13) -0.5787(14) -0.7874(9)
H29 H 0.3674 -0.6326 -0.7417
H30 H 0.3681 -0.5294 -0.8337
C30 C 0.2350(12) -0.5077(13) -0.7482(8)
H31 H 0.1853 -0.5580 -0.6998
H32 H 0.1782 -0.4579 -0.7932
C31 C 0.3195(11) -0.4351(12) -0.7137(7)
H33 H 0.3773 -0.4842 -0.6691
H34 H 0.3677 -0.3830 -0.7620
C32 C 0.1350(10) -0.2001(12) -0.6754(7)
H35 H 0.1247 -0.1218 -0.7032
C33 C 0.2186(11) -0.2529(12) -0.7130(8)
H36 H 0.2623 -0.2104 -0.7638
C34 C 0.2362(11) -0.3693(13) -0.6742(8)
C35 C 0.1715(11) -0.4264(13) -0.5962(8)
H37 H 0.1830 -0.5043 -0.5662
C36 C 0.0887(13) -0.3656(14) -0.5631(8)
H38 H 0.0454 -0.4051 -0.5114
C37 C -0.2619(15) -0.3442(14) -0.8671(9)
H39 H -0.2301 -0.3167 -0.9264
H40 H -0.3510 -0.3326 -0.8688
H41 H -0.2422 -0.4238 -0.8381
C38 C -0.2831(13) 0.3378(15) 0.3721(9)
H42 H -0.2306 0.3275 0.4220
H43 H -0.3639 0.3074 0.3923
H44 H -0.2918 0.4172 0.3359
N1 N -0.2721(10) 0.1095(10) -0.0086(6)
N2 N -0.2654(10) -0.1058(11) -0.4886(7)
N3 N 0.0575(10) -0.7545(11) -0.8932(6)
N4 N 0.0691(11) -0.2521(12) -0.6033(7)
O1 O -0.2335(8) -0.3007(9) -0.5846(5)
O2 O -0.0494(7) -0.0125(8) 0.1451(5)
O3 O -0.1828(8) -0.1506(10) -0.7059(5)
O4 O -0.0488(7) 0.0088(8) -0.6439(5)
O5 O 0.0671(8) -0.3206(8) -0.9188(5)
O6 O -0.0117(8) -0.1492(9) -0.9411(5)
O7 O -0.2492(9) 0.2959(9) 0.0908(5)
O8 O -0.1930(9) 0.1489(9) 0.2085(5)
O9 O -0.0178(9) 0.1494(9) 0.4393(5)
O10 O 0.0526(8) 0.3233(8) 0.4135(5)
Cd1_2 Cd -0.11217(9) -0.82915(9) -0.94151(5)
Cd1A Cd 0.11217(9) -0.17085(9) -1.05849(5)
Cd2A Cd 0.10541(9) 0.17175(9) 0.55528(5)
N3_2 N 0.0575(10) 0.2455(11) 0.1068(6)
O5A O -0.0671(8) 0.3206(8) -0.0812(5)
O6A O 0.0117(8) 0.1492(9) -0.0589(5)
O9A O 0.0178(9) -0.1494(9) -0.4393(5)
O10A O -0.0526(8) -0.3233(8) -0.4135(5)
loop_
_geom_bond_atom_site_label_1
_geom_bond_atom_site_label_2
_geom_bond_site_symmetry_1
_geom_bond_site_symmetry_2
Cd1 N1 1_555 1_555
Cd2 N2 1_555 1_555
C1 C3 1_555 1_555
C2 H1 1_555 1_555
C3 H2 1_555 1_555
H3 C3 1_555 1_555
C4 C2 1_555 1_555
H4 C4 1_555 1_555
C5 C3 1_555 1_555
H5 C5 1_555 1_555
C6 C4 1_555 1_555
C7 C5 1_555 1_555
H6 C7 1_555 1_555
H7 C7 1_555 1_555
C8 C6 1_555 1_555
H8 C8 1_555 1_555
C9 C7 1_555 1_555
C10 C8 1_555 1_555
H9 C10 1_555 1_555
C11 C13 1_555 1_555
C12 C6 1_555 1_555
H10 C12 1_555 1_555
H11 C12 1_555 1_555
C13 H12 1_555 1_555
H13 C13 1_555 1_555
C14 C12 1_555 1_555
H14 C14 1_555 1_555
H15 C14 1_555 1_555
C15 C13 1_555 1_555
H16 C15 1_555 1_555
C16 C14 1_555 1_555
H17 C16 1_555 1_555
H18 C16 1_555 1_555
C17 C15 1_555 1_555
H19 C17 1_555 1_555
H20 C17 1_555 1_555
C18 H21 1_555 1_555
C19 C17 1_555 1_555
C20 C18 1_555 1_555
H22 C20 1_555 1_555
C21 C16 1_555 1_555
C22 C21 1_555 1_555
H23 C22 1_555 1_555
C23 C22 1_555 1_555
H24 C23 1_555 1_555
C24 H25 1_555 1_555
C25 C24 1_555 1_555
H26 C25 1_555 1_555
C26 C25 1_555 1_555
C27 C26 1_555 1_555
H27 C27 1_555 1_555
C28 C27 1_555 1_555
H28 C28 1_555 1_555
C29 C26 1_555 1_555
H29 C29 1_555 1_555
H30 C29 1_555 1_555
C30 C29 1_555 1_555
H31 C30 1_555 1_555
H32 C30 1_555 1_555
C31 C30 1_555 1_555
H33 C31 1_555 1_555
H34 C31 1_555 1_555
C32 H35 1_555 1_555
C33 C32 1_555 1_555
H36 C33 1_555 1_555
C34 C31 1_555 1_555
C35 C34 1_555 1_555
H37 C35 1_555 1_555
C36 C35 1_555 1_555
H38 C36 1_555 1_555
C37 C5 1_555 1_555
H39 C37 1_555 1_555
H40 C37 1_555 1_555
H41 C37 1_555 1_555
C38 C15 1_555 1_555
H42 C38 1_555 1_555
H43 C38 1_555 1_555
H44 C38 1_555 1_555
N1 C2 1_555 1_555
N2 C18 1_555 1_555
N3 C24 1_555 1_555
N4 Cd2 1_555 1_555
O1 Cd2 1_555 1_555
O2 Cd1 1_555 1_555
O3 Cd2 1_555 1_555
O4 Cd2 1_555 1_555
O5 C9 1_555 1_555
O6 C9 1_555 1_555
O7 Cd1 1_555 1_555
O8 Cd1 1_555 1_555
O9 C19 1_555 1_555
O10 C19 1_555 1_555
Cd1_2 N3 1_555 1_555
Cd1A O5 1_555 1_555
Cd2A O9 1_555 1_555
N3_2 Cd1 1_555 1_555
O5A Cd1 1_555 1_555
O6A Cd1 1_555 1_555
O9A Cd2 1_555 1_555
O10A Cd2 1_555 1_555
C1 O1 1_555 1_555
C1 O3 1_555 1_555
C10 N1 1_555 1_555
C11 O7 1_555 1_555
C11 O8 1_555 1_555
C20 C21 1_555 1_555
C23 N2 1_555 1_555
C28 N3 1_555 1_555
C32 N4 1_555 1_555
C33 C34 1_555 1_555
C36 N4 1_555 1_555
O6 Cd1A 1_555 1_555
O10 Cd2A 1_555 1_555

#END
