
#######################################################################
#
#                 Cambridge Crystallographic Data Centre
#                                CCDC 
#
#######################################################################
#
# If this CIF has been generated from an entry in the Cambridge 
# Structural Database, then it will include bibliographic, chemical, 
# crystal, experimental, refinement or atomic coordinate data resulting 
# from the CCDC's data processing and validation procedures.
#
#######################################################################

data_DUBTUR
_symmetry_cell_setting           monoclinic
_symmetry_space_group_name_H-M   'P 21/c'
_symmetry_Int_Tables_number      14
_space_group_name_Hall           '-P 2ybc'
loop_
_symmetry_equiv_pos_site_id
_symmetry_equiv_pos_as_xyz
1 x,y,z
2 -x,1/2+y,1/2-z
3 -x,-y,-z
4 x,1/2-y,1/2+z
_cell_length_a                   8.7449(12)
_cell_length_b                   16.1697(5)
_cell_length_c                   13.309(2)
_cell_angle_alpha                90
_cell_angle_beta                 125.392(12)
_cell_angle_gamma                90
_cell_volume                     1534.16
loop_
_atom_site_label
_atom_site_type_symbol
_atom_site_fract_x
_atom_site_fract_y
_atom_site_fract_z
Co1 Co -0.72015(6) -0.01083(3) -0.11788(4)
Co2 Co -0.95022(7) 0.13844(3) -0.34238(4)
Co3 Co -0.49024(7) 0.08259(3) -0.19063(4)
O1 O -0.7114(3) 0.11138(13) -0.1748(2)
O2 O -0.4324(3) -0.01382(13) -0.0684(2)
N1 N -1.0050(4) 0.02121(17) -0.1848(3)
N2 N -1.0915(4) 0.07849(17) -0.2788(3)
N3 N -1.2850(4) 0.05284(17) -0.2242(3)
N4 N -0.7670(4) -0.13116(16) -0.0808(3)
N5 N -0.6830(4) -0.16089(17) 0.0364(3)
N6 N -0.8704(4) -0.25946(16) -0.0955(3)
N7 N -0.6889(4) -0.00125(16) -0.3289(3)
N8 N -0.7995(4) -0.04088(16) -0.3001(3)
N9 N -0.8927(4) -0.08150(16) -0.4875(3)
N10 N -0.7799(4) 0.20569(17) -0.3798(3)
N11 N -0.5907(4) 0.19061(17) -0.3154(3)
N12 N -0.6544(5) 0.3066(2) -0.4261(3)
C1 C -1.1260(5) 0.0076(2) -0.1567(3)
H1 H -1.1035 -0.0296 -0.0961
C2 C -1.2555(5) 0.0943(2) -0.2993(3)
H2 H -1.3425 0.1306 -0.3600
C3 C -0.8780(5) -0.1910(2) -0.1549(3)
H3 H -0.9543 -0.1860 -0.2403
C4 C -0.7457(5) -0.2371(2) 0.0226(3)
H4 H -0.7071 -0.2722 0.0886
C5 C -0.7483(5) -0.0276(2) -0.4396(3)
H5 H -0.6963 -0.0109 -0.4806
C6 C -0.9178(5) -0.08664(19) -0.3970(3)
H6 H -1.0098 -0.1193 -0.4024
C7 C -0.8085(6) 0.2746(2) -0.4429(4)
H7 H -0.9263 0.2985 -0.4947
C8 C -0.5243(6) 0.2524(2) -0.3456(4)
H8 H -0.3979 0.2576 -0.3135
Co1B Co -0.27985(6) 0.01083(3) 0.11788(4)
Co2A Co -1.04978(7) -0.36156(3) -0.15762(4)
Co2B Co -1.04978(7) -0.13844(3) -0.65762(4)
Co3_2 Co -1.49024(7) 0.08259(3) -0.19063(4)
Co3B Co -0.50976(7) -0.08259(3) 0.19063(4)
O2B O -0.5676(3) 0.01382(13) 0.0684(2)
N3_2 N -0.2850(4) 0.05284(17) -0.2242(3)
N5B N -0.3170(4) 0.16089(17) -0.0364(3)
N6A N -1.1296(4) 0.24054(16) -0.4045(3)
N9B N -1.1073(4) 0.08150(16) -0.5125(3)
O3 O -0.6632(12) 0.1448(6) -0.6143(8)
loop_
_geom_bond_atom_site_label_1
_geom_bond_atom_site_label_2
_geom_bond_site_symmetry_1
_geom_bond_site_symmetry_2
Co1 O1 1_555 1_555
Co2 O1 1_555 1_555
Co3 O1 1_555 1_555
O2 Co1 1_555 1_555
N1 Co1 1_555 1_555
N2 Co2 1_555 1_555
N3 C1 1_555 1_555
N4 Co1 1_555 1_555
N5 N4 1_555 1_555
N6 C3 1_555 1_555
N7 Co3 1_555 1_555
N8 Co1 1_555 1_555
N9 C5 1_555 1_555
N10 Co2 1_555 1_555
N11 Co3 1_555 1_555
N12 C7 1_555 1_555
C1 N1 1_555 1_555
H1 C1 1_555 1_555
C2 N2 1_555 1_555
H2 C2 1_555 1_555
C3 N4 1_555 1_555
H3 C3 1_555 1_555
C4 N5 1_555 1_555
H4 C4 1_555 1_555
C5 N7 1_555 1_555
H5 C5 1_555 1_555
C6 N8 1_555 1_555
H6 C6 1_555 1_555
C7 N10 1_555 1_555
H7 C7 1_555 1_555
C8 N11 1_555 1_555
H8 C8 1_555 1_555
Co1B O2 1_555 1_555
Co2A N6 1_555 1_555
Co2B N9 1_555 1_555
Co3_2 N3 1_555 1_555
Co3B N5 1_555 1_555
O2B Co1 1_555 1_555
N3_2 Co3 1_555 1_555
N5B Co3 1_555 1_555
N6A Co2 1_555 1_555
N9B Co2 1_555 1_555
Co3 O2 1_555 1_555
N1 N2 1_555 1_555
N3 C2 1_555 1_555
N6 C4 1_555 1_555
N7 N8 1_555 1_555
N9 C6 1_555 1_555
N10 N11 1_555 1_555
N12 C8 1_555 1_555
Co1B O2B 1_555 1_555
Co3B O2B 1_555 1_555

#END
