
#######################################################################
#
#                 Cambridge Crystallographic Data Centre
#                                CCDC 
#
#######################################################################
#
# If this CIF has been generated from an entry in the Cambridge 
# Structural Database, then it will include bibliographic, chemical, 
# crystal, experimental, refinement or atomic coordinate data resulting 
# from the CCDC's data processing and validation procedures.
#
#######################################################################

data_DUBWOO
_symmetry_cell_setting           monoclinic
_symmetry_space_group_name_H-M   'C c'
_symmetry_Int_Tables_number      9
_space_group_name_Hall           'C -2yc'
loop_
_symmetry_equiv_pos_site_id
_symmetry_equiv_pos_as_xyz
1 x,y,z
2 x,-y,1/2+z
3 1/2+x,1/2+y,z
4 1/2+x,1/2-y,1/2+z
_cell_length_a                   13.175(2)
_cell_length_b                   23.144(5)
_cell_length_c                   7.352(2)
_cell_angle_alpha                90
_cell_angle_beta                 123.10(5)
_cell_angle_gamma                90
_cell_volume                     1877.99
loop_
_atom_site_label
_atom_site_type_symbol
_atom_site_fract_x
_atom_site_fract_y
_atom_site_fract_z
Ag1 Ag 0.26943(4) 0.340309(19) 1.20510(6)
Ag2 Ag 0.06241(5) 0.41899(2) 0.70440(7)
Ag3 Ag 0.29772(4) 0.49844(2) 1.16227(6)
O1 O 0.1301(3) 0.33029(16) 0.8399(6)
O2 O 0.1458(3) 0.50899(15) 0.8000(6)
O3 O 0.3924(3) 0.41850(15) 1.3634(6)
N1 N -0.1577(5) 0.08292(19) 0.3669(8)
N2 N -0.1689(4) 0.7548(2) 0.3988(8)
N3 N 0.8640(5) 0.4238(2) 2.3969(8)
C1 C 0.0717(4) 0.2819(2) 0.7523(8)
C2 C -0.0398(5) 0.2815(2) 0.5475(9)
H1 H -0.0732 0.3163 0.4757
C3 C -0.0994(5) 0.2306(2) 0.4533(9)
H2 H -0.1731 0.2313 0.3199
C4 C -0.0503(5) 0.1785(3) 0.5558(9)
C5 C 0.0590(5) 0.1781(2) 0.7597(8)
H3 H 0.0917 0.1432 0.8310
C6 C 0.1176(5) 0.2285(2) 0.8537(9)
H4 H 0.1901 0.2273 0.9890
C7 C -0.1092(5) 0.1251(2) 0.4528(9)
C8 C 0.0873(5) 0.5578(2) 0.7171(8)
C9 C -0.0189(5) 0.5597(2) 0.5067(8)
H5 H -0.0458 0.5263 0.4228
C10 C -0.0839(5) 0.6104(2) 0.4228(8)
H6 H -0.1541 0.6107 0.2840
C11 C -0.0448(5) 0.6611(2) 0.5452(10)
C12 C 0.0623(5) 0.6603(2) 0.7515(8)
H7 H 0.0899 0.6941 0.8332
C13 C 0.1271(5) 0.6102(2) 0.8339(8)
H8 H 0.1990 0.6107 0.9702
C14 C -0.1130(5) 0.7131(2) 0.4627(8)
C15 C 0.4847(5) 0.4192(2) 1.5631(8)
C16 C 0.5387(5) 0.4714(2) 1.6750(8)
H9 H 0.5066 0.5062 1.6026
C17 C 0.6359(5) 0.4727(3) 1.8847(9)
H10 H 0.6701 0.5078 1.9520
C18 C 0.6838(5) 0.4208(3) 1.9978(9)
C19 C 0.6336(5) 0.3689(2) 1.8949(9)
H11 H 0.6654 0.3344 1.9699
C20 C 0.5368(5) 0.3678(2) 1.6824(8)
H12 H 0.5048 0.3324 1.6154
C21 C 0.7845(6) 0.4220(2) 2.2198(10)
Ag1B Ag -0.23057(4) 0.840309(19) 0.20510(6)
Ag2_2 Ag 1.06241(5) 0.41899(2) 2.70440(7)
Ag3A Ag 0.29772(4) 0.50156(2) 0.66227(6)
Ag3B Ag -0.20228(4) -0.00156(2) 0.16227(6)
O2A O 0.1458(3) 0.49101(15) 1.3000(6)
N1B N 0.3423(5) 0.58292(19) 1.3669(8)
N2B N 0.3311(4) 0.2548(2) 1.3988(8)
N3_2 N -0.1360(5) 0.4238(2) 0.3969(8)
loop_
_geom_bond_atom_site_label_1
_geom_bond_atom_site_label_2
_geom_bond_site_symmetry_1
_geom_bond_site_symmetry_2
Ag1 O1 1_555 1_555
Ag2 O1 1_555 1_555
Ag3 O2 1_555 1_555
O1 C1 1_555 1_555
O2 Ag2 1_555 1_555
O3 Ag1 1_555 1_555
N1 C7 1_555 1_555
N2 C14 1_555 1_555
N3 C21 1_555 1_555
C1 C2 1_555 1_555
C2 H1 1_555 1_555
C3 C2 1_555 1_555
H2 C3 1_555 1_555
C4 C3 1_555 1_555
C5 C4 1_555 1_555
H3 C5 1_555 1_555
C6 C1 1_555 1_555
H4 C6 1_555 1_555
C7 C4 1_555 1_555
C8 O2 1_555 1_555
C9 C8 1_555 1_555
H5 C9 1_555 1_555
C10 C9 1_555 1_555
H6 C10 1_555 1_555
C11 C10 1_555 1_555
C12 C11 1_555 1_555
H7 C12 1_555 1_555
C13 C8 1_555 1_555
H8 C13 1_555 1_555
C14 C11 1_555 1_555
C15 O3 1_555 1_555
C16 C15 1_555 1_555
H9 C16 1_555 1_555
C17 C16 1_555 1_555
H10 C17 1_555 1_555
C18 C17 1_555 1_555
C19 C18 1_555 1_555
H11 C19 1_555 1_555
C20 C15 1_555 1_555
H12 C20 1_555 1_555
C21 C18 1_555 1_555
Ag1B N2 1_555 1_555
Ag2_2 N3 1_555 1_555
Ag3A O2 1_555 1_555
Ag3B N1 1_555 1_555
O2A Ag3 1_555 1_555
N1B Ag3 1_555 1_555
N2B Ag1 1_555 1_555
N3_2 Ag2 1_555 1_555
Ag3 O3 1_555 1_555
C5 C6 1_555 1_555
C12 C13 1_555 1_555
C19 C20 1_555 1_555

#END
