
#######################################################################
#
#                 Cambridge Crystallographic Data Centre
#                                CCDC 
#
#######################################################################
#
# If this CIF has been generated from an entry in the Cambridge 
# Structural Database, then it will include bibliographic, chemical, 
# crystal, experimental, refinement or atomic coordinate data resulting 
# from the CCDC's data processing and validation procedures.
#
#######################################################################

data_DUBWIH02
_symmetry_cell_setting           monoclinic
_symmetry_space_group_name_H-M   'P 21/c'
_symmetry_Int_Tables_number      14
_space_group_name_Hall           '-P 2ybc'
loop_
_symmetry_equiv_pos_site_id
_symmetry_equiv_pos_as_xyz
1 x,y,z
2 -x,1/2+y,1/2-z
3 -x,-y,-z
4 x,1/2-y,1/2+z
_cell_length_a                   15.411(2)
_cell_length_b                   7.4635(12)
_cell_length_c                   11.4497(18)
_cell_angle_alpha                90
_cell_angle_beta                 91.279(2)
_cell_angle_gamma                90
_cell_volume                     1316.62
loop_
_atom_site_label
_atom_site_type_symbol
_atom_site_fract_x
_atom_site_fract_y
_atom_site_fract_z
Pb1 Pb 0.52133(2) 0.02291(5) 0.68865(3)
O1 O 0.4954(4) 0.3439(9) 0.6041(6)
H1 H 0.5373 0.4138 0.5890
H2 H 0.4547 0.3713 0.5561
O2 O 0.3922(4) -0.1812(9) 0.6905(6)
O3 O 0.4049(5) -0.0112(8) 0.5351(6)
O4 O 0.3653(5) 0.0428(10) 0.9565(6)
O5 O 0.4108(4) 0.1940(9) 0.7997(6)
C1 C 0.2668(7) -0.1472(12) 0.5635(8)
C2 C 0.2145(6) -0.2467(13) 0.6378(8)
H3 H 0.2393 -0.3045 0.7045
C3 C 0.1267(7) -0.2600(14) 0.6133(9)
H4 H 0.0912 -0.3258 0.6649
C4 C 0.0888(7) -0.1799(14) 0.5154(9)
H5 H 0.0281 -0.1886 0.5005
C5 C 0.1421(7) -0.0857(15) 0.4390(9)
H6 H 0.1177 -0.0324 0.3704
C6 C 0.2297(7) -0.0704(14) 0.4631(9)
H7 H 0.2654 -0.0068 0.4107
C7 C 0.3589(6) -0.1128(13) 0.5963(8)
C8 C 0.2589(7) 0.1484(13) 0.8169(8)
C9 C 0.1923(6) 0.0668(14) 0.8788(8)
H8 H 0.2054 0.0001 0.9477
C10 C 0.1066(7) 0.0842(15) 0.8385(8)
H9 H 0.0608 0.0323 0.8811
C11 C 0.0884(7) 0.1774(14) 0.7361(9)
H10 H 0.0301 0.1874 0.7080
C12 C 0.1545(7) 0.2555(15) 0.6749(9)
H11 H 0.1412 0.3211 0.6057
C13 C 0.2395(7) 0.2395(13) 0.7129(8)
H12 H 0.2848 0.2901 0.6687
C14 C 0.3510(6) 0.1267(12) 0.8612(8)
Pb1A Pb 0.47867(2) 0.52291(5) 0.81135(3)
O1A O 0.5046(4) -0.1561(9) 0.8959(6)
H1A H 0.4627 -0.0862 0.9110
H2A H 0.5453 -0.1287 0.9439
O5A O 0.5892(4) -0.3060(9) 0.7003(6)
loop_
_geom_bond_atom_site_label_1
_geom_bond_atom_site_label_2
_geom_bond_site_symmetry_1
_geom_bond_site_symmetry_2
Pb1 O1 1_555 1_555
O1 H1 1_555 1_555
H2 O1 1_555 1_555
O2 Pb1 1_555 1_555
O3 Pb1 1_555 1_555
O4 C14 1_555 1_555
O5 Pb1 1_555 1_555
C1 C2 1_555 1_555
C2 H3 1_555 1_555
C3 C2 1_555 1_555
H4 C3 1_555 1_555
C4 C3 1_555 1_555
H5 C4 1_555 1_555
C5 C4 1_555 1_555
H6 C5 1_555 1_555
C6 C1 1_555 1_555
H7 C6 1_555 1_555
C7 O2 1_555 1_555
C8 C9 1_555 1_555
C9 H8 1_555 1_555
C10 C9 1_555 1_555
H9 C10 1_555 1_555
C11 C10 1_555 1_555
H10 C11 1_555 1_555
C12 C11 1_555 1_555
H11 C12 1_555 1_555
C13 C8 1_555 1_555
H12 C13 1_555 1_555
C14 O5 1_555 1_555
Pb1A O1 1_555 1_555
O1A Pb1 1_555 1_555
H1A O1A 1_555 1_555
H2A O1A 1_555 1_555
O5A Pb1 1_555 1_555
O3 C7 1_555 1_555
O5 Pb1A 1_555 1_555
C1 C7 1_555 1_555
C5 C6 1_555 1_555
C8 C14 1_555 1_555
C12 C13 1_555 1_555

#END
