
#######################################################################
#
#                 Cambridge Crystallographic Data Centre
#                                CCDC 
#
#######################################################################
#
# If this CIF has been generated from an entry in the Cambridge 
# Structural Database, then it will include bibliographic, chemical, 
# crystal, experimental, refinement or atomic coordinate data resulting 
# from the CCDC's data processing and validation procedures.
#
#######################################################################

data_DUBWIH
_symmetry_cell_setting           monoclinic
_symmetry_space_group_name_H-M   'P 21/c'
_symmetry_Int_Tables_number      14
_space_group_name_Hall           '-P 2ybc'
loop_
_symmetry_equiv_pos_site_id
_symmetry_equiv_pos_as_xyz
1 x,y,z
2 -x,1/2+y,1/2-z
3 -x,-y,-z
4 x,1/2-y,1/2+z
_cell_length_a                   15.4118(12)
_cell_length_b                   7.5122(6)
_cell_length_c                   11.4856(9)
_cell_angle_alpha                90
_cell_angle_beta                 91.2930(10)
_cell_angle_gamma                90
_cell_volume                     1329.42
loop_
_atom_site_label
_atom_site_type_symbol
_atom_site_fract_x
_atom_site_fract_y
_atom_site_fract_z
Pb1 Pb 0.478855(16) 0.52214(3) 0.311202(19)
O1 O 0.6082(3) 0.3213(6) 0.3120(4)
O2 O 0.5947(4) 0.4879(5) 0.4674(4)
O3 O 0.5875(3) 0.6929(5) 0.1986(4)
O4 O 0.6356(4) 0.5476(7) 0.0428(4)
O5 O 0.4960(3) 0.3455(6) 0.1048(3)
H1 H 0.4562 0.3648 0.0539
H2 H 0.5374 0.3865 0.0651
C1 C 0.6397(4) 0.3861(8) 0.4045(5)
C2 C 0.7318(4) 0.3531(8) 0.4365(5)
C3 C 0.7840(5) 0.2548(9) 0.3639(5)
H3 H 0.7596 0.1994 0.2986
C4 C 0.8716(5) 0.2383(10) 0.3876(6)
H4 H 0.9062 0.1732 0.3378
C5 C 0.9082(5) 0.3177(10) 0.4847(6)
H5 H 0.9675 0.3082 0.4996
C6 C 0.8567(5) 0.4114(10) 0.5599(6)
H6 H 0.8810 0.4624 0.6268
C7 C 0.7695(5) 0.4291(9) 0.5356(6)
H7 H 0.7351 0.4930 0.5863
C8 C 0.6480(4) 0.6270(8) 0.1387(5)
C9 C 0.7395(4) 0.6483(7) 0.1816(5)
C10 C 0.8062(4) 0.5691(9) 0.1224(5)
H8 H 0.7938 0.5033 0.0554
C11 C 0.8914(5) 0.5869(11) 0.1619(6)
H9 H 0.9361 0.5359 0.1203
C12 C 0.9098(5) 0.6794(11) 0.2623(6)
H10 H 0.9668 0.6896 0.2898
C13 C 0.8433(5) 0.7573(10) 0.3222(6)
H11 H 0.8560 0.8209 0.3899
C14 C 0.7587(5) 0.7427(9) 0.2838(6)
H12 H 0.7144 0.7952 0.3254
Pb1A Pb 0.521145(16) 1.02214(3) 0.188798(19)
Pb1A_2 Pb 0.521145(16) 0.02214(3) 0.188798(19)
O3A O 0.4125(3) 0.1929(5) 0.3014(4)
O5A O 0.5040(3) 0.8455(6) 0.3952(3)
H1A H 0.5438 0.8648 0.4461
H2A H 0.4626 0.8865 0.4349
loop_
_geom_bond_atom_site_label_1
_geom_bond_atom_site_label_2
_geom_bond_site_symmetry_1
_geom_bond_site_symmetry_2
Pb1 O1 1_555 1_555
O1 C1 1_555 1_555
O2 Pb1 1_555 1_555
O3 Pb1 1_555 1_555
O4 C8 1_555 1_555
O5 Pb1 1_555 1_555
H1 O5 1_555 1_555
H2 O5 1_555 1_555
C1 O2 1_555 1_555
C2 C1 1_555 1_555
C3 C2 1_555 1_555
H3 C3 1_555 1_555
C4 C3 1_555 1_555
H4 C4 1_555 1_555
C5 C4 1_555 1_555
H5 C5 1_555 1_555
C6 C5 1_555 1_555
H6 C6 1_555 1_555
C7 C2 1_555 1_555
H7 C7 1_555 1_555
C8 O3 1_555 1_555
C9 C8 1_555 1_555
C10 C9 1_555 1_555
H8 C10 1_555 1_555
C11 C10 1_555 1_555
H9 C11 1_555 1_555
C12 C11 1_555 1_555
H10 C12 1_555 1_555
C13 C12 1_555 1_555
H11 C13 1_555 1_555
C14 C9 1_555 1_555
H12 C14 1_555 1_555
Pb1A O3 1_555 1_555
Pb1A_2 O5 1_555 1_555
O3A Pb1 1_555 1_555
O5A Pb1 1_555 1_555
H1A O5A 1_555 1_555
H2A O5A 1_555 1_555
C6 C7 1_555 1_555
C13 C14 1_555 1_555
Pb1A O5A 1_555 1_555
Pb1A_2 O3A 1_555 1_555

#END
