
#######################################################################
#
#                 Cambridge Crystallographic Data Centre
#                                CCDC 
#
#######################################################################
#
# If this CIF has been generated from an entry in the Cambridge 
# Structural Database, then it will include bibliographic, chemical, 
# crystal, experimental, refinement or atomic coordinate data resulting 
# from the CCDC's data processing and validation procedures.
#
#######################################################################

data_DUBWON
_symmetry_cell_setting           monoclinic
_symmetry_space_group_name_H-M   'P 21/n'
_symmetry_Int_Tables_number      14
_space_group_name_Hall           '-P 2yn'
loop_
_symmetry_equiv_pos_site_id
_symmetry_equiv_pos_as_xyz
1 x,y,z
2 1/2-x,1/2+y,1/2-z
3 -x,-y,-z
4 1/2+x,1/2-y,1/2+z
_cell_length_a                   9.1190(4)
_cell_length_b                   14.7355(6)
_cell_length_c                   14.4711(6)
_cell_angle_alpha                90
_cell_angle_beta                 107.7520(10)
_cell_angle_gamma                90
_cell_volume                     1851.94
loop_
_atom_site_label
_atom_site_type_symbol
_atom_site_fract_x
_atom_site_fract_y
_atom_site_fract_z
Zn1 Zn 0.72276(5) 0.65094(3) 0.63563(3)
Zn2 Zn 0.81689(5) 0.74739(3) 0.86581(3)
O1 O 0.6482(3) 0.70324(18) 0.74736(18)
O2 O 0.5239(3) 0.69042(19) 0.54535(18)
O3 O 0.2738(3) 0.7065(2) 0.48774(18)
O4 O -0.0743(3) 0.7091(2) 0.67563(19)
O5 O 0.0125(3) 0.7240(2) 0.83755(19)
O6 O 0.7196(4) 0.5270(2) 0.6874(2)
O7 O 0.7029(4) 0.3780(2) 0.6904(2)
O8 O 0.7888(3) 0.6054(2) 0.51459(19)
O9 O 0.8384(4) 0.6248(2) 0.9446(2)
N1 N 0.7454(4) 0.5608(2) 0.3589(2)
N2 N 0.7907(5) 0.4794(3) 0.9734(3)
C1 C 0.5022(4) 0.7046(3) 0.7454(3)
C2 C 0.3757(4) 0.7015(3) 0.6584(3)
C3 C 0.2254(4) 0.7048(3) 0.6639(3)
H1 H 0.1419 0.7020 0.6055
C4 C 0.1940(4) 0.7121(3) 0.7516(3)
C5 C 0.3178(4) 0.7163(3) 0.8370(3)
H2 H 0.2987 0.7221 0.8976
C6 C 0.4675(4) 0.7120(3) 0.8342(3)
H3 H 0.5495 0.7139 0.8933
C7 C 0.3937(4) 0.6988(3) 0.5587(3)
C8 C 0.0325(4) 0.7156(3) 0.7551(3)
C9 C 0.7218(4) 0.4501(3) 0.6507(3)
H4 H 0.7389 0.4467 0.5893
C10 C 0.7002(5) 0.5902(3) 0.4312(3)
H5 H 0.5933 0.6007 0.4196
C11 C 0.9072(5) 0.5454(3) 0.3685(3)
H6 H 0.9713 0.5693 0.4310
H7 H 0.9334 0.5765 0.3157
H8 H 0.9258 0.4802 0.3652
C12 C 0.6343(6) 0.5446(3) 0.2635(3)
H9 H 0.5303 0.5583 0.2659
H10 H 0.6395 0.4809 0.2453
H11 H 0.6584 0.5838 0.2154
C13 C 0.8027(5) 0.5464(3) 0.9161(3)
H12 H 0.7829 0.5339 0.8490
C14 C 0.8165(8) 0.4940(4) 1.0762(4)
H13 H 0.8540 0.5560 1.0933
H14 H 0.8933 0.4506 1.1134
H15 H 0.7197 0.4853 1.0912
C15 C 0.7510(7) 0.3869(3) 0.9373(4)
H16 H 0.7490 0.3835 0.8693
H17 H 0.6493 0.3709 0.9422
H18 H 0.8280 0.3444 0.9761
Zn1_2 Zn -0.27724(5) 0.65094(3) 0.63563(3)
Zn2C Zn 0.31689(5) 0.75261(3) 0.36581(3)
Zn2_2 Zn -0.18311(5) 0.74739(3) 0.86581(3)
Zn2A Zn 0.68311(5) 0.24739(3) 0.63419(3)
O3C O 0.7738(3) 0.7935(2) 0.98774(18)
O4_2 O 0.9257(3) 0.7091(2) 0.67563(19)
O5_2 O 1.0125(3) 0.7240(2) 0.83755(19)
O7A O 0.7971(4) 0.8780(2) 0.8096(2)
loop_
_geom_bond_atom_site_label_1
_geom_bond_atom_site_label_2
_geom_bond_site_symmetry_1
_geom_bond_site_symmetry_2
Zn1 O1 1_555 1_555
Zn2 O1 1_555 1_555
O1 C1 1_555 1_555
O2 Zn1 1_555 1_555
O3 C7 1_555 1_555
O4 C8 1_555 1_555
O5 C8 1_555 1_555
O6 Zn1 1_555 1_555
O7 C9 1_555 1_555
O8 Zn1 1_555 1_555
O9 Zn2 1_555 1_555
N1 C10 1_555 1_555
N2 C13 1_555 1_555
C1 C2 1_555 1_555
C2 C3 1_555 1_555
C3 H1 1_555 1_555
C4 C3 1_555 1_555
C5 C4 1_555 1_555
H2 C5 1_555 1_555
C6 C1 1_555 1_555
H3 C6 1_555 1_555
C7 O2 1_555 1_555
C8 C4 1_555 1_555
C9 O6 1_555 1_555
H4 C9 1_555 1_555
C10 O8 1_555 1_555
H5 C10 1_555 1_555
C11 N1 1_555 1_555
H6 C11 1_555 1_555
H7 C11 1_555 1_555
H8 C11 1_555 1_555
C12 N1 1_555 1_555
H9 C12 1_555 1_555
H10 C12 1_555 1_555
H11 C12 1_555 1_555
C13 O9 1_555 1_555
H12 C13 1_555 1_555
C14 N2 1_555 1_555
H13 C14 1_555 1_555
H14 C14 1_555 1_555
H15 C14 1_555 1_555
C15 N2 1_555 1_555
H16 C15 1_555 1_555
H17 C15 1_555 1_555
H18 C15 1_555 1_555
Zn1_2 O4 1_555 1_555
Zn2C O3 1_555 1_555
Zn2_2 O5 1_555 1_555
Zn2A O7 1_555 1_555
O3C Zn2 1_555 1_555
O4_2 Zn1 1_555 1_555
O5_2 Zn2 1_555 1_555
O7A Zn2 1_555 1_555
C2 C7 1_555 1_555
C5 C6 1_555 1_555

#END
