
#######################################################################
#
#                 Cambridge Crystallographic Data Centre
#                                CCDC 
#
#######################################################################
#
# If this CIF has been generated from an entry in the Cambridge 
# Structural Database, then it will include bibliographic, chemical, 
# crystal, experimental, refinement or atomic coordinate data resulting 
# from the CCDC's data processing and validation procedures.
#
#######################################################################

data_DUBXAA
_symmetry_cell_setting           triclinic
_symmetry_space_group_name_H-M   'P -1'
_symmetry_Int_Tables_number      2
_space_group_name_Hall           '-P 1'
loop_
_symmetry_equiv_pos_site_id
_symmetry_equiv_pos_as_xyz
1 x,y,z
2 -x,-y,-z
_cell_length_a                   9.7192(3)
_cell_length_b                   9.9936(5)
_cell_length_c                   10.4968(3)
_cell_angle_alpha                113.304(4)
_cell_angle_beta                 97.140(3)
_cell_angle_gamma                103.260(3)
_cell_volume                     884.649
loop_
_atom_site_label
_atom_site_type_symbol
_atom_site_fract_x
_atom_site_fract_y
_atom_site_fract_z
Ag1 Ag 0.421397(19) 0.410977(18) 0.802682(17)
Ag2 Ag 0.421385(19) 0.385653(19) 1.290598(17)
O1 O 0.22857(16) 0.20334(17) 0.81649(18)
O2 O 0.10698(15) -0.04467(17) 0.71974(19)
H1 H 0.0364 -0.0126 0.7220
O3 O 0.57621(18) 0.37804(17) 1.02125(17)
O4 O 0.4252(2) 0.21751(18) 1.07819(17)
O5 O 0.41174(19) -0.39642(18) 0.45762(18)
O6 O 0.5636(2) -0.23946(18) 0.39821(17)
O7 O 0.75751(16) -0.21312(17) 0.65497(17)
O8 O 0.87465(16) 0.03113(17) 0.7214(2)
C1 C 0.2265(2) 0.0702(2) 0.7685(2)
C2 C 0.4977(2) 0.2487(2) 0.9985(2)
C3 C 0.4930(2) 0.1181(2) 0.8600(2)
C4 C 0.3628(2) -0.0996(2) 0.6355(2)
H2 H 0.2755 -0.1617 0.5684
C5 C 0.3627(2) 0.0251(2) 0.7570(2)
C6 C 0.6223(2) -0.0377(2) 0.7128(2)
C7 C 0.4913(2) -0.1332(2) 0.6121(2)
C8 C 0.6218(2) 0.0862(2) 0.8348(2)
H3 H 0.7093 0.1493 0.9012
C9 C 0.4888(2) -0.2673(2) 0.4775(2)
C10 C 0.7617(2) -0.0765(2) 0.6939(2)
Ag1A Ag 0.578603(19) 0.589023(18) 1.197318(17)
Ag1A_2 Ag 0.578603(19) -0.410977(18) 0.197318(17)
Ag2A Ag 0.578615(19) 0.614347(19) 0.709402(17)
Ag2_2 Ag 0.421385(19) -0.614347(19) 0.290598(17)
Ag2A_2 Ag 0.578615(19) -0.385653(19) 0.709402(17)
O3A O 0.42379(18) 0.62196(17) 0.97875(17)
O5_2 O 0.41174(19) 0.60358(18) 1.45762(18)
O5A O 0.58826(19) 0.39642(18) 1.54238(18)
O6A O 0.4364(2) 0.23946(18) 0.60179(17)
O7A O 0.24249(16) 0.21312(17) 1.34503(17)
N1 N 0.0720(2) 0.4030(2) 0.1392(2)
N2 N -0.1309(2) 0.6318(3) 0.4369(2)
H4 H -0.1683 0.6777 0.5021
C11 C 0.0048(2) 0.4765(3) 0.2354(2)
C12 C -0.0362(3) 0.7091(3) 0.3890(3)
H5 H -0.0172 0.8144 0.4240
C13 C -0.1624(3) 0.4795(3) 0.3866(3)
H6 H -0.2296 0.4279 0.4204
C14 C -0.0985(3) 0.3988(3) 0.2872(3)
H7 H -0.1223 0.2931 0.2533
C15 C 0.0325(3) 0.6369(3) 0.2906(3)
H8 H 0.0981 0.6930 0.2592
C16 C 0.0426(3) 0.2378(3) 0.0780(3)
H9 H -0.0540 0.1883 0.0172
H10 H 0.0505 0.2065 0.1535
H11 H 0.1119 0.2095 0.0231
C17 C 0.1797(3) 0.4867(4) 0.0902(3)
H12 H 0.2588 0.5591 0.1700
H13 H 0.1351 0.5400 0.0473
H14 H 0.2160 0.4161 0.0210
loop_
_geom_bond_atom_site_label_1
_geom_bond_atom_site_label_2
_geom_bond_site_symmetry_1
_geom_bond_site_symmetry_2
Ag1 O1 1_555 1_555
Ag2 O4 1_555 1_555
O1 C1 1_555 1_555
O2 H1 1_555 1_555
O3 Ag1 1_555 1_555
O4 C2 1_555 1_555
O5 C9 1_555 1_555
O6 C9 1_555 1_555
O7 C10 1_555 1_555
O8 C10 1_555 1_555
C1 O2 1_555 1_555
C2 O3 1_555 1_555
C3 C2 1_555 1_555
C4 H2 1_555 1_555
C5 C1 1_555 1_555
C6 C7 1_555 1_555
C7 C4 1_555 1_555
C8 C3 1_555 1_555
H3 C8 1_555 1_555
C9 C7 1_555 1_555
C10 C6 1_555 1_555
N1 C11 1_555 1_555
N2 H4 1_555 1_555
C11 C14 1_555 1_555
C12 N2 1_555 1_555
H5 C12 1_555 1_555
C13 N2 1_555 1_555
H6 C13 1_555 1_555
C14 C13 1_555 1_555
H7 C14 1_555 1_555
C15 C11 1_555 1_555
H8 C15 1_555 1_555
C16 N1 1_555 1_555
H9 C16 1_555 1_555
H10 C16 1_555 1_555
H11 C16 1_555 1_555
C17 N1 1_555 1_555
H12 C17 1_555 1_555
H13 C17 1_555 1_555
H14 C17 1_555 1_555
Ag1A Ag2 1_555 1_555
Ag1A_2 O6 1_555 1_555
Ag2A Ag1 1_555 1_555
Ag2_2 O5 1_555 1_555
Ag2A_2 O5 1_555 1_555
O3A Ag1 1_555 1_555
O5_2 Ag2 1_555 1_555
O5A Ag2 1_555 1_555
O6A Ag1 1_555 1_555
O7A Ag2 1_555 1_555
O3 Ag1A 1_555 1_555
O7 Ag2A_2 1_555 1_555
C3 C5 1_555 1_555
C4 C5 1_555 1_555
C6 C8 1_555 1_555
C12 C15 1_555 1_555
Ag1A O3A 1_555 1_555
Ag1A_2 Ag2_2 1_555 1_555

#END
