
#######################################################################
#
#                 Cambridge Crystallographic Data Centre
#                                CCDC 
#
#######################################################################
#
# If this CIF has been generated from an entry in the Cambridge 
# Structural Database, then it will include bibliographic, chemical, 
# crystal, experimental, refinement or atomic coordinate data resulting 
# from the CCDC's data processing and validation procedures.
#
#######################################################################

data_DUBZUW
_symmetry_cell_setting           monoclinic
_symmetry_space_group_name_H-M   'P 21/c'
_symmetry_Int_Tables_number      14
_space_group_name_Hall           '-P 2ybc'
loop_
_symmetry_equiv_pos_site_id
_symmetry_equiv_pos_as_xyz
1 x,y,z
2 -x,1/2+y,1/2-z
3 -x,-y,-z
4 x,1/2-y,1/2+z
_cell_length_a                   10.0482(6)
_cell_length_b                   18.3968(11)
_cell_length_c                   8.0371(5)
_cell_angle_alpha                90
_cell_angle_beta                 95.3970(10)
_cell_angle_gamma                90
_cell_volume                     1479.11
loop_
_atom_site_label
_atom_site_type_symbol
_atom_site_fract_x
_atom_site_fract_y
_atom_site_fract_z
Er1 Er 0.364162(17) 0.105359(10) 0.24162(2)
Ag1 Ag -0.14913(4) 0.07254(2) -0.10694(4)
O1 O 0.2989(3) 0.21768(16) 0.3579(4)
O2 O 0.3493(3) 0.32200(16) 0.4921(4)
O3 O -0.0813(3) 0.0887(2) 0.1736(4)
O4 O 0.1381(3) 0.09487(18) 0.1482(4)
O5 O 0.3318(3) 0.01811(16) 0.0110(4)
O6 O 0.5023(3) 0.09455(15) 0.4957(4)
N1 N 0.5506(3) 0.20455(19) 0.2760(4)
N2 N 0.7204(4) 0.3245(2) 0.3075(5)
N3 N 0.1969(4) 0.09160(19) 0.4735(4)
N4 N -0.0028(4) 0.0827(2) 0.6909(4)
C1 C 0.3752(4) 0.2695(2) 0.4013(5)
C2 C 0.5118(4) 0.2678(2) 0.3374(5)
C3 C 0.5950(4) 0.3270(3) 0.3465(6)
H1 H 0.5621 0.3711 0.3818
C4 C 0.7614(5) 0.2604(3) 0.2544(6)
H2 H 0.8491 0.2554 0.2282
C5 C 0.6765(4) 0.2009(3) 0.2372(6)
H3 H 0.7082 0.1573 0.1976
C6 C 0.0371(4) 0.0914(2) 0.2309(5)
C7 C 0.0668(4) 0.0902(2) 0.4181(5)
C8 C -0.0327(4) 0.0862(3) 0.5258(5)
H4 H -0.1219 0.0860 0.4824
C9 C 0.1265(4) 0.0855(3) 0.7468(5)
H5 H 0.1508 0.0845 0.8614
C10 C 0.2255(4) 0.0900(3) 0.6381(6)
H6 H 0.3145 0.0920 0.6818
C11 C 0.4313(4) -0.0108(2) -0.0429(5)
C12 C 0.5388(4) 0.0323(2) 0.5434(5)
O8 O 0.4323(3) -0.05626(16) -0.1587(4)
O9 O 0.6284(3) 0.01649(16) 0.6555(4)
Er1C Er 0.364162(17) 0.394641(10) -0.25838(2)
Er1C_2 Er 0.364162(17) 0.394641(10) 0.74162(2)
Er1B Er 0.635838(17) -0.105359(10) -0.24162(2)
Er1B_2 Er 0.635838(17) -0.105359(10) 0.75838(2)
Er1_2 Er 0.364162(17) 0.105359(10) -0.75838(2)
Ag1B Ag 0.14913(4) -0.07254(2) 0.10694(4)
Ag1C Ag 0.85087(4) 0.42746(2) 0.39306(4)
Ag1_2 Ag -0.14913(4) 0.07254(2) 0.89306(4)
Ag1_3 Ag 0.85087(4) 0.07254(2) -0.10694(4)
Ag1_4 Ag -0.14913(4) 0.07254(2) -1.10694(4)
O1C O 0.2989(3) 0.28232(16) -0.1421(4)
O2C O 0.3493(3) 0.17800(16) -0.0079(4)
O2_2 O 0.3493(3) 0.32200(16) -0.5079(4)
O3_2 O -0.0813(3) 0.0887(2) -0.8264(4)
O3B O 0.0813(3) -0.0887(2) -0.1736(4)
O4_2 O 0.1381(3) 0.09487(18) -0.8518(4)
O4C O 0.1381(3) 0.40513(18) -0.3518(4)
O5B O 0.6682(3) -0.01811(16) -0.0110(4)
O5B_2 O -0.3318(3) -0.01811(16) -0.0110(4)
O5C O 0.3318(3) 0.48189(16) -0.4890(4)
O6B O 0.4977(3) -0.09455(15) 0.5043(4)
O6C O 0.5023(3) 0.40545(15) -0.0043(4)
N1C N 0.5506(3) 0.29545(19) -0.2240(4)
N2C N 0.7204(4) 0.1755(2) -0.1925(5)
N2C_2 N -0.2796(4) 0.1755(2) -0.1925(5)
N2A N 0.2796(4) -0.1755(2) 0.1925(5)
N3_2 N 0.1969(4) 0.09160(19) -0.5265(4)
N3C N 0.1969(4) 0.40840(19) -0.0265(4)
N4_2 N -0.0028(4) 0.0827(2) -0.3091(4)
N4B N 0.0028(4) -0.0827(2) 0.3091(4)
C1C C 0.3752(4) 0.2305(2) -0.0987(5)
C2C C 0.5118(4) 0.2322(2) -0.1626(5)
C3C C 0.5950(4) 0.1730(3) -0.1535(6)
H1C H 0.5621 0.1289 -0.1182
C4C C 0.7614(5) 0.2396(3) -0.2456(6)
H2C H 0.8491 0.2446 -0.2718
C5C C 0.6765(4) 0.2991(3) -0.2628(6)
H3C H 0.7082 0.3427 -0.3024
C6_2 C 0.0371(4) 0.0914(2) -0.7691(5)
C7_2 C 0.0668(4) 0.0902(2) -0.5819(5)
C8_2 C -0.0327(4) 0.0862(3) -0.4742(5)
H4_2 H -0.1219 0.0860 -0.5176
C9_2 C 0.1265(4) 0.0855(3) -0.2532(5)
H5_2 H 0.1508 0.0845 -0.1386
C10_2 C 0.2255(4) 0.0900(3) -0.3619(6)
H6_2 H 0.3145 0.0920 -0.3182
C11B C 0.5687(4) 0.0108(2) 0.0429(5)
C12B C 0.4612(4) -0.0323(2) 0.4566(5)
O8B O 0.5677(3) 0.05626(16) 0.1587(4)
O8A O 0.5677(3) 0.44374(16) -0.3413(4)
O9B O 0.3716(3) -0.01649(16) 0.3445(4)
O9A O 0.3716(3) 0.51649(16) -0.1555(4)
O7 O 0.0424(5) 0.2589(3) 0.4885(8)
H7 H 0.1096 0.2521 0.4314
H8 H 0.0662 0.2368 0.5816
loop_
_geom_bond_atom_site_label_1
_geom_bond_atom_site_label_2
_geom_bond_site_symmetry_1
_geom_bond_site_symmetry_2
Er1 O1 1_555 1_555
Ag1 O3 1_555 1_555
O1 C1 1_555 1_555
O2 C1 1_555 1_555
O3 C6 1_555 1_555
O4 Er1 1_555 1_555
O5 Er1 1_555 1_555
O6 Er1 1_555 1_555
N1 Er1 1_555 1_555
N2 C3 1_555 1_555
N3 Er1 1_555 1_555
N4 C8 1_555 1_555
C1 C2 1_555 1_555
C2 N1 1_555 1_555
C3 C2 1_555 1_555
H1 C3 1_555 1_555
C4 N2 1_555 1_555
H2 C4 1_555 1_555
C5 N1 1_555 1_555
H3 C5 1_555 1_555
C6 O4 1_555 1_555
C7 N3 1_555 1_555
C8 C7 1_555 1_555
H4 C8 1_555 1_555
C9 N4 1_555 1_555
H5 C9 1_555 1_555
C10 N3 1_555 1_555
H6 C10 1_555 1_555
C11 O5 1_555 1_555
C12 O6 1_555 1_555
O7 H7 1_555 1_555
H8 O7 1_555 1_555
O8 C11 1_555 1_555
O9 C12 1_555 1_555
Er1C O1C 1_555 1_555
Er1C_2 O2 1_555 1_555
Er1B O8 1_555 1_555
Er1B_2 O9 1_555 1_555
Er1_2 O4_2 1_555 1_555
Ag1B O5 1_555 1_555
Ag1C N2 1_555 1_555
Ag1_2 N4 1_555 1_555
Ag1_3 O5B 1_555 1_555
Ag1_4 O3_2 1_555 1_555
O1C C1C 1_555 1_555
O2C Er1 1_555 1_555
O2_2 Er1C 1_555 1_555
O3_2 C6_2 1_555 1_555
O3B Ag1B 1_555 1_555
O4_2 C6_2 1_555 1_555
O4C Er1C 1_555 1_555
O5B Er1B 1_555 1_555
O5B_2 Ag1 1_555 1_555
O5C Er1C 1_555 1_555
O6B Er1B_2 1_555 1_555
O6C Er1C 1_555 1_555
N1C Er1C 1_555 1_555
N2C Ag1_3 1_555 1_555
N2C_2 Ag1 1_555 1_555
N2A Ag1B 1_555 1_555
N3_2 Er1_2 1_555 1_555
N3C Er1C 1_555 1_555
N4_2 Ag1 1_555 1_555
N4B Ag1B 1_555 1_555
C1C O2C 1_555 1_555
C2C N1C 1_555 1_555
C3C N2C 1_555 1_555
H1C C3C 1_555 1_555
C4C N2C 1_555 1_555
H2C C4C 1_555 1_555
C5C N1C 1_555 1_555
H3C C5C 1_555 1_555
C6_2 C7_2 1_555 1_555
C7_2 N3_2 1_555 1_555
C8_2 N4_2 1_555 1_555
H4_2 C8_2 1_555 1_555
C9_2 N4_2 1_555 1_555
H5_2 C9_2 1_555 1_555
C10_2 N3_2 1_555 1_555
H6_2 C10_2 1_555 1_555
C11B C11 1_555 1_555
C12B C12 1_555 1_555
O8B Er1 1_555 1_555
O8A Er1C 1_555 1_555
O9B Er1 1_555 1_555
O9A Er1C 1_555 1_555
C4 C5 1_555 1_555
C6 C7 1_555 1_555
C9 C10 1_555 1_555
O5B C11B 1_555 1_555
O6B C12B 1_555 1_555
C1C C2C 1_555 1_555
C2C C3C 1_555 1_555
C4C C5C 1_555 1_555
C7_2 C8_2 1_555 1_555
C9_2 C10_2 1_555 1_555
C11B O8B 1_555 1_555
C12B O9B 1_555 1_555

#END
