
#######################################################################
#
#                 Cambridge Crystallographic Data Centre
#                                CCDC 
#
#######################################################################
#
# If this CIF has been generated from an entry in the Cambridge 
# Structural Database, then it will include bibliographic, chemical, 
# crystal, experimental, refinement or atomic coordinate data resulting 
# from the CCDC's data processing and validation procedures.
#
#######################################################################

data_DUCBAF
_symmetry_cell_setting           triclinic
_symmetry_space_group_name_H-M   'P -1'
_symmetry_Int_Tables_number      2
_space_group_name_Hall           '-P 1'
loop_
_symmetry_equiv_pos_site_id
_symmetry_equiv_pos_as_xyz
1 x,y,z
2 -x,-y,-z
_cell_length_a                   6.403(5)
_cell_length_b                   7.309(5)
_cell_length_c                   7.602(5)
_cell_angle_alpha                96.784(8)
_cell_angle_beta                 95.140(8)
_cell_angle_gamma                107.709(8)
_cell_volume                     333.562
loop_
_atom_site_label
_atom_site_type_symbol
_atom_site_fract_x
_atom_site_fract_y
_atom_site_fract_z
Ni1 Ni 0.5000 0.0000 1.0000
S1 S 0.37032(11) 0.32818(9) 0.81172(8)
O1 O 0.1697(3) -0.2599(3) 0.9900(3)
H1 H 0.1594 -0.3595 0.9190
H2 H 0.0660 -0.2844 1.0522
O2 O 0.1653(3) 0.3862(3) 0.7920(3)
O3 O 0.3059(3) 0.1287(3) 0.8709(2)
N1 N 0.4591(3) 0.1289(3) 0.2369(3)
C1 C 0.2579(4) 0.1289(4) 0.2770(4)
H3 H 0.1377 0.0841 0.1873
C2 C 0.2257(5) 0.1933(4) 0.4472(4)
H4 H 0.0857 0.1920 0.4721
C3 C 0.4053(4) 0.2601(3) 0.5805(3)
C4 C 0.6131(4) 0.2690(4) 0.5387(3)
H5 H 0.7370 0.3191 0.6247
C5 C 0.6316(4) 0.2014(4) 0.3656(4)
H6 H 0.7713 0.2066 0.3369
Ni1_2 Ni 0.5000 0.0000 0.0000
Ni1_3 Ni 0.5000 0.0000 2.0000
S1_2 S 0.37032(11) 0.32818(9) 1.81172(8)
O1A O 0.8303(3) 0.2599(3) 1.0100(3)
H1A H 0.8406 0.3595 1.0810
H2A H 0.9340 0.2844 0.9478
O2_2 O 0.1653(3) 0.3862(3) 1.7920(3)
O3_2 O 0.3059(3) 0.1287(3) 1.8709(2)
O3A O 0.6941(3) -0.1287(3) 1.1291(2)
N1_2 N 0.4591(3) 0.1289(3) 1.2369(3)
N1A N 0.5409(3) -0.1289(3) 0.7631(3)
C1_2 C 0.2579(4) 0.1289(4) 1.2770(4)
H3_2 H 0.1377 0.0841 1.1873
C2_2 C 0.2257(5) 0.1933(4) 1.4472(4)
H4_2 H 0.0857 0.1920 1.4721
C3_2 C 0.4053(4) 0.2601(3) 1.5805(3)
C4_2 C 0.6131(4) 0.2690(4) 1.5387(3)
H5_2 H 0.7370 0.3191 1.6247
C5_2 C 0.6316(4) 0.2014(4) 1.3656(4)
H6_2 H 0.7713 0.2066 1.3369
loop_
_geom_bond_atom_site_label_1
_geom_bond_atom_site_label_2
_geom_bond_site_symmetry_1
_geom_bond_site_symmetry_2
Ni1 O1 1_555 1_555
S1 O2 1_555 1_555
O1 H1 1_555 1_555
H2 O1 1_555 1_555
O3 Ni1 1_555 1_555
N1 C1 1_555 1_555
C1 H3 1_555 1_555
C2 C1 1_555 1_555
H4 C2 1_555 1_555
C3 S1 1_555 1_555
C4 C3 1_555 1_555
H5 C4 1_555 1_555
C5 N1 1_555 1_555
H6 C5 1_555 1_555
Ni1_2 N1 1_555 1_555
Ni1_3 O3_2 1_555 1_555
S1_2 O2_2 1_555 1_555
O1A Ni1 1_555 1_555
H1A O1A 1_555 1_555
H2A O1A 1_555 1_555
O3_2 S1_2 1_555 1_555
O3A Ni1 1_555 1_555
N1_2 Ni1 1_555 1_555
N1A Ni1 1_555 1_555
C1_2 N1_2 1_555 1_555
H3_2 C1_2 1_555 1_555
C2_2 C1_2 1_555 1_555
H4_2 C2_2 1_555 1_555
C3_2 S1_2 1_555 1_555
C4_2 C3_2 1_555 1_555
H5_2 C4_2 1_555 1_555
C5_2 N1_2 1_555 1_555
H6_2 C5_2 1_555 1_555
S1 O3 1_555 1_555
C2 C3 1_555 1_555
C4 C5 1_555 1_555
C2_2 C3_2 1_555 1_555
C4_2 C5_2 1_555 1_555

#END
