
#######################################################################
#
#                 Cambridge Crystallographic Data Centre
#                                CCDC 
#
#######################################################################
#
# If this CIF has been generated from an entry in the Cambridge 
# Structural Database, then it will include bibliographic, chemical, 
# crystal, experimental, refinement or atomic coordinate data resulting 
# from the CCDC's data processing and validation procedures.
#
#######################################################################

data_DUCBIM
_symmetry_cell_setting           tetragonal
_symmetry_space_group_name_H-M   'P 41 21 2'
_symmetry_Int_Tables_number      92
_space_group_name_Hall           'P 4abw 2nw'
loop_
_symmetry_equiv_pos_site_id
_symmetry_equiv_pos_as_xyz
1 x,y,z
2 1/2-y,1/2+x,1/4+z
3 -x,-y,1/2+z
4 1/2+y,1/2-x,3/4+z
5 y,x,-z
6 1/2+x,1/2-y,3/4-z
7 -y,-x,1/2-z
8 1/2-x,1/2+y,1/4-z
_cell_length_a                   7.8850(3)
_cell_length_b                   7.8850(3)
_cell_length_c                   26.359(2)
_cell_angle_alpha                90
_cell_angle_beta                 90
_cell_angle_gamma                90
_cell_volume                     1638.82
loop_
_atom_site_label
_atom_site_type_symbol
_atom_site_fract_x
_atom_site_fract_y
_atom_site_fract_z
Cd1 Cd 0.18819(3) 0.18819(2) 0.0000
N1 N 0.1865(2) -0.1029(3) -0.0066
C1 C 0.1491(3) -0.1293(3) -0.0564(1)
O1 O 0.1282(2) -0.0103(3) -0.0849(1)
N2 N 0.1318(3) -0.2973(3) -0.0746(1)
C2 C 0.0928(4) -0.3232(5) -0.1285(1)
C3 C 0.1527(3) 0.5625(3) -0.0443(1)
O2 O 0.1369(2) 0.4180(2) -0.0622(1)
C4 C 0.1932(3) 0.5957(4) 0.0086(1)
N3 N 0.2110(2) 0.4567(3) 0.0373(1)
O3 O 0.2450(3) 0.4728(3) 0.0839(1)
C5 C 0.2093(3) -0.2314(4) 0.0255(1)
N4 N 0.2433(3) -0.1986(4) 0.0732(1)
H1 H 0.1830 -0.4090 -0.1420
H2 H -0.0150 -0.3960 -0.1290
H3 H 0.0360 -0.2180 -0.1380
H4 H 0.2530 -0.1010 0.0850
H5 H 0.2770 -0.2740 0.0920
N1D N -0.1029(3) 0.1865(2) 0.0066
O1D O -0.0103(3) 0.1282(2) 0.0849(1)
O2D O 0.4180(2) 0.1369(2) 0.0622(1)
N3D N 0.4567(3) 0.2110(2) -0.0373(1)
C4_2 C 0.1932(3) -0.4043(4) 0.0086(1)
N2_2 N 0.1318(3) 0.7027(3) -0.0746(1)
C5_2 C 0.2093(3) 0.7686(4) 0.0255(1)
C3_2 C 0.1527(3) -0.4375(3) -0.0443(1)
N1_2 N 0.1865(2) 0.8971(3) -0.0066
N4_2 N 0.2433(3) 0.8014(4) 0.0732(1)
C1_2 C 0.1491(3) 0.8707(3) -0.0564(1)
C2_2 C 0.0928(4) 0.6768(5) -0.1285(1)
N3_2 N 0.2110(2) -0.5433(3) 0.0373(1)
O2_2 O 0.1369(2) -0.5820(2) -0.0622(1)
Cd1_2 Cd 0.18819(3) 1.18819(2) 0.0000
H4_2 H 0.2530 0.8990 0.0850
H5_2 H 0.2770 0.7260 0.0920
O1_2 O 0.1282(2) 0.9897(3) -0.0849(1)
H1_2 H 0.1830 0.5910 -0.1420
H2_2 H -0.0150 0.6040 -0.1290
H3_2 H 0.0360 0.7820 -0.1380
Cd1_3 Cd 0.18819(3) -0.81181(2) 0.0000
O3_2 O 0.2450(3) -0.5272(3) 0.0839(1)
loop_
_geom_bond_atom_site_label_1
_geom_bond_atom_site_label_2
_geom_bond_site_symmetry_1
_geom_bond_site_symmetry_2
Cd1 N1 1_555 1_555
N1 C1 1_555 1_555
C1 O1 1_555 1_555
O1 Cd1 1_555 1_555
N2 C1 1_555 1_555
C2 N2 1_555 1_555
C3 O2 1_555 1_555
O2 Cd1 1_555 1_555
C4 C3 1_555 1_555
N3 Cd1 1_555 1_555
O3 N3 1_555 1_555
C5 N1 1_555 1_555
N4 C5 1_555 1_555
H1 C2 1_555 1_555
H2 C2 1_555 1_555
H3 C2 1_555 1_555
H4 N4 1_555 1_555
H5 N4 1_555 1_555
N1D Cd1 1_555 1_555
O1D Cd1 1_555 1_555
O2D Cd1 1_555 1_555
N3D Cd1 1_555 1_555
C4_2 C5 1_555 1_555
N2_2 C3 1_555 1_555
C5_2 C4 1_555 1_555
C3_2 N2 1_555 1_555
N1_2 C5_2 1_555 1_555
N4_2 C5_2 1_555 1_555
C1_2 N2_2 1_555 1_555
C2_2 N2_2 1_555 1_555
N3_2 C4_2 1_555 1_555
O2_2 C3_2 1_555 1_555
Cd1_2 N1_2 1_555 1_555
H4_2 N4_2 1_555 1_555
H5_2 N4_2 1_555 1_555
O1_2 C1_2 1_555 1_555
H1_2 C2_2 1_555 1_555
H2_2 C2_2 1_555 1_555
H3_2 C2_2 1_555 1_555
Cd1_3 N3_2 1_555 1_555
O3_2 N3_2 1_555 1_555
C4 N3 1_555 1_555
C4_2 C3_2 1_555 1_555
N1_2 C1_2 1_555 1_555
O2_2 Cd1_3 1_555 1_555
Cd1_2 O1_2 1_555 1_555

#END
