
#######################################################################
#
#                 Cambridge Crystallographic Data Centre
#                                CCDC 
#
#######################################################################
#
# If this CIF has been generated from an entry in the Cambridge 
# Structural Database, then it will include bibliographic, chemical, 
# crystal, experimental, refinement or atomic coordinate data resulting 
# from the CCDC's data processing and validation procedures.
#
#######################################################################

data_DUCFIR
_symmetry_cell_setting           monoclinic
_symmetry_space_group_name_H-M   'P 21/c'
_symmetry_Int_Tables_number      14
_space_group_name_Hall           '-P 2ybc'
loop_
_symmetry_equiv_pos_site_id
_symmetry_equiv_pos_as_xyz
1 x,y,z
2 -x,1/2+y,1/2-z
3 -x,-y,-z
4 x,1/2-y,1/2+z
_cell_length_a                   8.8500(18)
_cell_length_b                   30.000(6)
_cell_length_c                   8.1800(16)
_cell_angle_alpha                90
_cell_angle_beta                 104.20(3)
_cell_angle_gamma                90
_cell_volume                     2105.43
loop_
_atom_site_label
_atom_site_type_symbol
_atom_site_fract_x
_atom_site_fract_y
_atom_site_fract_z
Mo1 Mo 0.94022(3) 0.077926(7) 0.24444(3)
Mo2 Mo 0.91241(2) -0.043690(7) 0.04605(3)
Mo3 Mo 1.17624(3) 0.001904(8) 0.44940(3)
Co1 Co 0.50391(4) 0.089018(12) 0.06007(5)
O1 O 1.2801(3) 0.03650(8) 0.5986(3)
O2 O 0.5665(3) 0.03455(8) -0.0653(4)
H1 H 0.658(5) 0.0285(14) -0.050(5)
H2 H 0.510(7) 0.032(2) -0.143(7)
O3 O 1.0242(3) 0.11899(7) 0.3787(3)
O4 O 0.4741(3) 0.05352(9) 0.2683(3)
H3 H 0.532(5) 0.0491(13) 0.353(5)
H4 H 0.393(6) 0.0491(15) 0.273(5)
O5 O 1.0015(2) 0.09505(6) 0.0482(2)
O6 O 0.7301(2) -0.06590(7) 0.0347(2)
O7 O 1.3101(2) -0.03788(8) 0.4323(3)
O8 O 0.9395(2) 0.03007(6) 0.4040(2)
O9 O 0.7441(2) 0.09196(7) 0.1883(3)
O10 O 1.0100(2) -0.04943(6) 0.2540(2)
O11 O 1.1531(2) 0.03816(6) 0.2547(2)
O12 O 0.8805(2) 0.01768(6) 0.0341(2)
N1 N 0.4321(3) 0.14828(9) 0.1543(3)
N2 N 0.3110(3) 0.19420(9) 0.2827(3)
N3 N 0.4271(4) 0.21845(10) 0.2439(4)
N4 N -0.3411(3) 0.35636(9) 0.1592(3)
N5 N -0.4917(5) 0.3509(2) 0.0901(5)
N6 N -0.4573(3) 0.37564(9) 0.3526(3)
C1 C 0.3160(4) 0.15295(10) 0.2295(4)
H5 H 0.250(4) 0.1307(12) 0.243(4)
C2 C 0.4956(4) 0.18936(11) 0.1676(5)
H6 H 0.577(5) 0.1952(13) 0.117(5)
C3 C 0.2112(5) 0.21268(12) 0.3847(5)
H7 H 0.159(4) 0.1901(13) 0.420(5)
H8 H 0.278(5) 0.2242(12) 0.485(5)
C4 C 0.1008(4) 0.24784(11) 0.2941(4)
C5 C -0.0383(5) 0.23641(13) 0.1834(6)
H9 H -0.058(5) 0.2082(16) 0.152(6)
C6 C -0.1421(5) 0.26925(14) 0.1057(5)
H10 H -0.231(5) 0.2628(14) 0.028(5)
C7 C -0.1085(4) 0.31379(12) 0.1398(4)
C8 C 0.0305(5) 0.32501(12) 0.2474(5)
H11 H 0.050(5) 0.3531(13) 0.266(5)
C9 C 0.1343(4) 0.29233(12) 0.3249(5)
H12 H 0.2278 0.3006 0.3987
C10 C -0.2226(5) 0.35010(14) 0.0631(5)
H13 H -0.274(5) 0.3421(13) -0.043(5)
H14 H -0.174(5) 0.3750(16) 0.065(6)
C11 C -0.5575(5) 0.3634(2) 0.2107(6)
H15 H -0.6649 0.3637 0.1976
C12 C -0.3243(4) 0.37301(15) 0.3098(5)
H16 H -0.224(6) 0.3779(16) 0.385(6)
Mo2B Mo 1.08759(2) 0.043690(7) -0.04605(3)
Mo3B Mo 0.82376(3) -0.001904(8) 0.55060(3)
Co1C Co -0.49609(4) 0.410982(12) 0.56007(5)
Co1B Co 0.49609(4) -0.089018(12) -0.06007(5)
O5B O 0.9985(2) -0.09505(6) -0.0482(2)
O6B O 0.2699(2) 0.06590(7) -0.0347(2)
O8B O 1.0605(2) -0.03007(6) 0.5960(2)
O11B O 0.8469(2) -0.03816(6) -0.2547(2)
O12B O 1.1195(2) -0.01768(6) -0.0341(2)
N6C N 0.5427(3) 0.12436(9) -0.1474(3)
loop_
_geom_bond_atom_site_label_1
_geom_bond_atom_site_label_2
_geom_bond_site_symmetry_1
_geom_bond_site_symmetry_2
Mo1 O3 1_555 1_555
Mo2 O6 1_555 1_555
Mo3 O1 1_555 1_555
Co1 O2 1_555 1_555
O2 H1 1_555 1_555
H2 O2 1_555 1_555
O4 Co1 1_555 1_555
H3 O4 1_555 1_555
H4 O4 1_555 1_555
O5 Mo1 1_555 1_555
O6 Co1B 1_555 1_555
O7 Mo3 1_555 1_555
O8 Mo1 1_555 1_555
O9 Mo1 1_555 1_555
O10 Mo2 1_555 1_555
O11 Mo1 1_555 1_555
O12 Mo1 1_555 1_555
N1 Co1 1_555 1_555
N2 N3 1_555 1_555
N3 C2 1_555 1_555
N4 N5 1_555 1_555
N5 C11 1_555 1_555
N6 C11 1_555 1_555
C1 N1 1_555 1_555
H5 C1 1_555 1_555
C2 N1 1_555 1_555
H6 C2 1_555 1_555
C3 N2 1_555 1_555
H7 C3 1_555 1_555
H8 C3 1_555 1_555
C4 C3 1_555 1_555
C5 C4 1_555 1_555
H9 C5 1_555 1_555
C6 C5 1_555 1_555
H10 C6 1_555 1_555
C7 C6 1_555 1_555
C8 C7 1_555 1_555
H11 C8 1_555 1_555
C9 C4 1_555 1_555
H12 C9 1_555 1_555
C10 N4 1_555 1_555
H13 C10 1_555 1_555
H14 C10 1_555 1_555
C11 H15 1_555 1_555
C12 N4 1_555 1_555
H16 C12 1_555 1_555
Mo2B O5 1_555 1_555
Mo3B O8 1_555 1_555
Co1C N6 1_555 1_555
O5B Mo2 1_555 1_555
O6B Co1 1_555 1_555
O8B Mo3 1_555 1_555
O11B Mo2 1_555 1_555
O12B Mo2 1_555 1_555
N6C Co1 1_555 1_555
Mo2 O12 1_555 1_555
Mo3 O8 1_555 1_555
Mo3 O10 1_555 1_555
Mo3 O11 1_555 1_555
Co1 O9 1_555 1_555
O11 Mo2B 1_555 1_555
O12 Mo2B 1_555 1_555
N2 C1 1_555 1_555
N6 C12 1_555 1_555
C7 C10 1_555 1_555
C8 C9 1_555 1_555
Mo2B O12B 1_555 1_555
Mo3B O8B 1_555 1_555

#END
