
#######################################################################
#
#                 Cambridge Crystallographic Data Centre
#                                CCDC 
#
#######################################################################
#
# If this CIF has been generated from an entry in the Cambridge 
# Structural Database, then it will include bibliographic, chemical, 
# crystal, experimental, refinement or atomic coordinate data resulting 
# from the CCDC's data processing and validation procedures.
#
#######################################################################

data_DUCFUD
_symmetry_cell_setting           triclinic
_symmetry_space_group_name_H-M   'P -1'
_symmetry_Int_Tables_number      2
_space_group_name_Hall           '-P 1'
loop_
_symmetry_equiv_pos_site_id
_symmetry_equiv_pos_as_xyz
1 x,y,z
2 -x,-y,-z
_cell_length_a                   10.100(2)
_cell_length_b                   12.650(3)
_cell_length_c                   13.047(3)
_cell_angle_alpha                89.15(3)
_cell_angle_beta                 67.55(3)
_cell_angle_gamma                74.80(3)
_cell_volume                     1479.91
loop_
_atom_site_label
_atom_site_type_symbol
_atom_site_fract_x
_atom_site_fract_y
_atom_site_fract_z
Mo1 Mo 0.96553(3) 0.64158(2) 0.47841(2)
Mo2 Mo 0.70132(3) 0.53119(2) 0.51504(2)
Mo3 Mo 1.07647(4) 0.64867(3) 0.69544(3)
Mo4 Mo 0.80771(3) 0.53234(2) 0.73252(2)
Ni1 Ni 0.82257(5) 0.31447(4) 0.92949(4)
N1 N 0.8510(3) 0.2047(2) 0.8025(2)
N2 N 0.9534(4) 0.0687(3) 0.6632(3)
N3 N 0.8357(4) 0.1435(3) 0.6539(3)
N4 N 0.2978(3) -0.1371(3) 0.7900(3)
N5 N 0.2141(5) -0.0501(3) 0.8677(3)
N6 N 0.2317(4) -0.2083(3) 0.9478(3)
N7 N 1.0432(3) 0.2697(3) 0.9061(3)
N8 N 1.2763(4) 0.2825(3) 0.8402(3)
N9 N 1.2398(3) 0.2445(2) 0.9425(2)
C1 C 0.7771(4) 0.2231(3) 0.7372(3)
H1 H 0.6954 0.2831 0.7476
C2 C 0.9580(5) 0.1089(3) 0.7535(3)
H2 H 1.0285 0.0748 0.7817
C3 C 0.7879(5) 0.1330(3) 0.5631(3)
H3 H 0.7455 0.2057 0.5460
H4 H 0.8739 0.0962 0.4971
C4 C 0.6737(4) 0.0686(3) 0.5925(3)
C5 C 0.5283(4) 0.1199(3) 0.6107(3)
H5 H 0.4987 0.1953 0.6062
C6 C 0.4245(4) 0.0595(3) 0.6360(3)
H6 H 0.3260 0.0946 0.6475
C7 C 0.4676(4) -0.0529(3) 0.6441(3)
C8 C 0.6120(4) -0.1033(3) 0.6275(3)
H7 H 0.6403 -0.1783 0.6346
C9 C 0.7168(4) -0.0453(3) 0.6004(3)
H8 H 0.8155 -0.0813 0.5873
C10 C 0.3558(5) -0.1192(3) 0.6711(3)
H9 H 0.2735 -0.0808 0.6514
H10 H 0.4029 -0.1898 0.6268
C11 C 0.3064(4) -0.2286(3) 0.8389(3)
H11 H 0.3582 -0.2985 0.8019
C12 C 0.1779(6) -0.0982(3) 0.9602(4)
H12 H 0.1191 -0.0589 1.0295
C13 C 1.1554(4) 0.2964(3) 0.8218(3)
H13 H 1.1465 0.3223 0.7569
C14 C 1.1017(4) 0.2377(3) 0.9799(3)
H14 H 1.0526 0.2138 1.0482
C15 C 1.3428(5) 0.2276(3) 0.9983(3)
H15 H 1.4169 0.2666 0.9624
H16 H 1.2882 0.2594 1.0749
C16 C 1.4221(4) 0.1075(3) 0.9974(3)
C17 C 1.4021(6) 0.0637(4) 1.0976(3)
H17 H 1.3368 0.1060 1.1640
C18 C 1.5194(6) 0.0449(4) 0.9011(4)
H18 H 1.5341 0.0748 0.8334
O2 O 1.0734(4) 0.7723(3) 0.7442(3)
O3 O 0.5968(3) 0.3795(3) 0.9623(3)
H21 H 0.528(6) 0.389(4) 1.016(5)
H22 H 0.572(7) 0.403(5) 0.926(5)
O4 O 1.1281(4) 0.5590(3) 0.7807(2)
O5 O 0.5363(3) 0.5384(3) 0.6242(2)
O6 O 0.7887(4) 0.4405(3) 1.0435(3)
H23 H 0.708(6) 0.473(4) 1.084(4)
H24 H 0.835(5) 0.434(4) 1.087(4)
O7 O 0.8678(3) 0.6519(2) 0.7611(2)
O8 O 0.7767(3) 0.62515(19) 0.58776(19)
O9 O 0.6572(3) 0.6207(2) 0.4288(2)
O10 O 0.6208(3) 0.5796(2) 0.8082(2)
O11 O 0.7464(3) 0.3929(2) 0.4363(2)
O12 O 0.9949(3) 0.72603(19) 0.5674(2)
O13 O 0.9063(3) 0.7279(2) 0.3964(2)
O14 O 0.9570(2) 0.49273(18) 0.41163(18)
O15 O 1.1751(2) 0.57667(18) 0.38270(18)
O16 O 0.8658(3) 0.4339(2) 0.8099(2)
Mo1A Mo 1.03447(3) 0.35842(2) 0.52159(2)
Mo2A Mo 1.29868(3) 0.46881(2) 0.48496(2)
Mo3A Mo 0.92353(4) 0.35133(3) 0.30456(3)
Mo4A Mo 1.19229(3) 0.46766(2) 0.26748(2)
Ni1A Ni 1.17743(5) 0.68553(4) 0.07051(4)
Ni1A_2 Ni 0.17743(5) -0.31447(4) 1.07051(4)
Ni1A_3 Ni 2.17743(5) -0.31447(4) 1.07051(4)
N1A N 0.1490(3) -0.2047(2) 1.1975(2)
N2A N 0.0466(4) -0.0687(3) 1.3368(3)
N3A N 0.1643(4) -0.1435(3) 1.3461(3)
N4A N 0.7022(3) 0.1371(3) 1.2100(3)
N5A N 0.7859(5) 0.0501(3) 1.1323(3)
N6A N 0.7683(4) 0.2083(3) 1.0522(3)
N7A N 1.9568(3) -0.2697(3) 1.0939(3)
N7A_2 N -0.0432(3) -0.2697(3) 1.0939(3)
N8A N 1.7237(4) -0.2825(3) 1.1598(3)
N9A N 1.7602(3) -0.2445(2) 1.0575(2)
C1A C 0.2229(4) -0.2231(3) 1.2628(3)
H1A H 0.3046 -0.2831 1.2524
C2A C 0.0420(5) -0.1089(3) 1.2465(3)
H2A H -0.0285 -0.0748 1.2183
C3A C 0.2121(5) -0.1330(3) 1.4369(3)
H3A H 0.2545 -0.2057 1.4540
H4A H 0.1261 -0.0962 1.5029
C4A C 0.3263(4) -0.0686(3) 1.4075(3)
C5A C 0.4717(4) -0.1199(3) 1.3893(3)
H5A H 0.5013 -0.1953 1.3938
C6A C 0.5755(4) -0.0595(3) 1.3640(3)
H6A H 0.6740 -0.0946 1.3525
C7A C 0.5324(4) 0.0529(3) 1.3559(3)
C8A C 0.3880(4) 0.1033(3) 1.3725(3)
H7A H 0.3597 0.1783 1.3654
C9A C 0.2832(4) 0.0453(3) 1.3996(3)
H8A H 0.1845 0.0813 1.4127
C10A C 0.6442(5) 0.1192(3) 1.3289(3)
H9A H 0.7265 0.0808 1.3486
H10A H 0.5971 0.1898 1.3732
C11A C 0.6936(4) 0.2286(3) 1.1611(3)
H11A H 0.6418 0.2985 1.1981
C12A C 0.8221(6) 0.0982(3) 1.0398(4)
H12A H 0.8809 0.0589 0.9705
C13A C 1.8446(4) -0.2964(3) 1.1782(3)
H13A H 1.8535 -0.3223 1.2431
C14A C 1.8983(4) -0.2377(3) 1.0201(3)
H14A H 1.9474 -0.2138 0.9518
C15A C 1.6572(5) -0.2276(3) 1.0017(3)
H15A H 1.5831 -0.2666 1.0376
H16A H 1.7118 -0.2594 0.9251
C16A C 1.5779(4) -0.1075(3) 1.0026(3)
C17A C 1.5979(6) -0.0637(4) 0.9024(3)
H17A H 1.6632 -0.1060 0.8360
C18A C 1.4806(6) -0.0449(4) 1.0989(4)
H18A H 1.4659 -0.0748 1.1666
O2A O 0.9266(4) 0.2277(3) 0.2558(3)
O3A O 0.4032(3) -0.3795(3) 1.0377(3)
H21A H 0.472(6) -0.389(4) 0.984(5)
H22A H 0.428(7) -0.403(5) 1.074(5)
O4A O 0.8719(4) 0.4410(3) 0.2193(2)
O5A O 1.4637(3) 0.4616(3) 0.3758(2)
O6A O 0.2113(4) -0.4405(3) 0.9565(3)
H23A H 0.292(6) -0.473(4) 0.916(4)
H24A H 0.165(5) -0.434(4) 0.913(4)
O7A O 1.1322(3) 0.3481(2) 0.2389(2)
O8A O 1.2233(3) 0.37485(19) 0.41224(19)
O9A O 1.3428(3) 0.3793(2) 0.5712(2)
O10A O 1.3792(3) 0.4204(2) 0.1918(2)
O11A O 1.2536(3) 0.6071(2) 0.5637(2)
O12A O 1.0051(3) 0.27397(19) 0.4326(2)
O13A O 1.0937(3) 0.2721(2) 0.6036(2)
O14A O 1.0430(2) 0.50727(18) 0.58837(18)
O15A O 0.8249(2) 0.42333(18) 0.61730(18)
O16A O 1.1342(3) 0.5661(2) 0.1901(2)
O16A_2 O 0.1342(3) -0.4339(2) 1.1901(2)
O1 O 1.4670(4) 0.4151(3) -0.1943(3)
H19 H 1.429(5) 0.378(4) -0.209(4)
H20 H 1.481(5) 0.441(4) -0.248(4)
loop_
_geom_bond_atom_site_label_1
_geom_bond_atom_site_label_2
_geom_bond_site_symmetry_1
_geom_bond_site_symmetry_2
Mo1 O8 1_555 1_555
Mo2 O5 1_555 1_555
Mo3 O2 1_555 1_555
Mo4 O7 1_555 1_555
Ni1 N1 1_555 1_555
N1 C1 1_555 1_555
N2 N3 1_555 1_555
N3 C1 1_555 1_555
N4 N5 1_555 1_555
N5 C12 1_555 1_555
N6 C11 1_555 1_555
N7 Ni1 1_555 1_555
N8 N9 1_555 1_555
N9 C14 1_555 1_555
C1 H1 1_555 1_555
C2 N1 1_555 1_555
H2 C2 1_555 1_555
C3 N3 1_555 1_555
H3 C3 1_555 1_555
H4 C3 1_555 1_555
C4 C3 1_555 1_555
C5 C4 1_555 1_555
H5 C5 1_555 1_555
C6 C5 1_555 1_555
H6 C6 1_555 1_555
C7 C6 1_555 1_555
C8 C7 1_555 1_555
H7 C8 1_555 1_555
C9 C4 1_555 1_555
H8 C9 1_555 1_555
C10 N4 1_555 1_555
H9 C10 1_555 1_555
H10 C10 1_555 1_555
C11 N4 1_555 1_555
H11 C11 1_555 1_555
C12 N6 1_555 1_555
H12 C12 1_555 1_555
C13 N7 1_555 1_555
H13 C13 1_555 1_555
C14 N7 1_555 1_555
H14 C14 1_555 1_555
C15 N9 1_555 1_555
H15 C15 1_555 1_555
H16 C15 1_555 1_555
C16 C15 1_555 1_555
C17 C16 1_555 1_555
H17 C17 1_555 1_555
C18 C16 1_555 1_555
H18 C18 1_555 1_555
O1 H19 1_555 1_555
H20 O1 1_555 1_555
O3 Ni1 1_555 1_555
H21 O3 1_555 1_555
H22 O3 1_555 1_555
O4 Mo3 1_555 1_555
O6 Ni1 1_555 1_555
H23 O6 1_555 1_555
H24 O6 1_555 1_555
O7 Mo3 1_555 1_555
O8 Mo2 1_555 1_555
O9 Mo2 1_555 1_555
O10 Mo4 1_555 1_555
O11 Mo2 1_555 1_555
O12 Mo1 1_555 1_555
O13 Mo1 1_555 1_555
O14 Mo1 1_555 1_555
O15 Mo1 1_555 1_555
O16 Mo4 1_555 1_555
Mo1A O14 1_555 1_555
Mo2A O15 1_555 1_555
Mo3A O11 1_555 1_555
Mo4A O14 1_555 1_555
Ni1A O16A 1_555 1_555
Ni1A_2 N6 1_555 1_555
Ni1A_3 N7A 1_555 1_555
N1A Ni1A_2 1_555 1_555
N2A N3A 1_555 1_555
N3A C1A 1_555 1_555
N4A N5A 1_555 1_555
N5A C12A 1_555 1_555
N6A Ni1 1_555 1_555
N7A C13A 1_555 1_555
N7A_2 Ni1A_2 1_555 1_555
N8A N9A 1_555 1_555
N9A C14A 1_555 1_555
C1A N1A 1_555 1_555
H1A C1A 1_555 1_555
C2A N1A 1_555 1_555
H2A C2A 1_555 1_555
C3A N3A 1_555 1_555
H3A C3A 1_555 1_555
H4A C3A 1_555 1_555
C4A C3A 1_555 1_555
C5A C4A 1_555 1_555
H5A C5A 1_555 1_555
C6A C5A 1_555 1_555
H6A C6A 1_555 1_555
C7A C6A 1_555 1_555
C8A C7A 1_555 1_555
H7A C8A 1_555 1_555
C9A C4A 1_555 1_555
H8A C9A 1_555 1_555
C10A N4A 1_555 1_555
H9A C10A 1_555 1_555
H10A C10A 1_555 1_555
C11A N4A 1_555 1_555
H11A C11A 1_555 1_555
C12A N6A 1_555 1_555
H12A C12A 1_555 1_555
C13A N8A 1_555 1_555
H13A C13A 1_555 1_555
C14A N7A 1_555 1_555
H14A C14A 1_555 1_555
C15A N9A 1_555 1_555
H15A C15A 1_555 1_555
H16A C15A 1_555 1_555
C16A C15A 1_555 1_555
C17A C18 1_555 1_555
H17A C17A 1_555 1_555
C18A C17 1_555 1_555
H18A C18A 1_555 1_555
O2A Mo3A 1_555 1_555
O3A Ni1A_2 1_555 1_555
H21A O3A 1_555 1_555
H22A O3A 1_555 1_555
O4A Mo3A 1_555 1_555
O5A Mo2A 1_555 1_555
O6A Ni1A_2 1_555 1_555
H23A O6A 1_555 1_555
H24A O6A 1_555 1_555
O7A Mo3A 1_555 1_555
O8A Mo1A 1_555 1_555
O9A Mo2A 1_555 1_555
O10A Mo4A 1_555 1_555
O11A Mo3 1_555 1_555
O12A Mo1A 1_555 1_555
O13A Mo1A 1_555 1_555
O14A Mo1 1_555 1_555
O15A Mo2 1_555 1_555
O16A Mo4A 1_555 1_555
O16A_2 Ni1A_2 1_555 1_555
Mo2 O14 1_555 1_555
Mo3 O12 1_555 1_555
Mo3 O14A 1_555 1_555
Mo4 O8 1_555 1_555
Mo4 O14A 1_555 1_555
Mo4 O15A 1_555 1_555
Ni1 O16 1_555 1_555
N2 C2 1_555 1_555
N8 C13 1_555 1_555
C7 C10 1_555 1_555
C8 C9 1_555 1_555
O14 Mo3A 1_555 1_555
O15 Mo4A 1_555 1_555
Mo1A O14A 1_555 1_555
Mo1A O15A 1_555 1_555
Mo2A O8A 1_555 1_555
Mo2A O11A 1_555 1_555
Mo2A O14A 1_555 1_555
Mo3A O12A 1_555 1_555
Mo4A O7A 1_555 1_555
Mo4A O8A 1_555 1_555
N2A C2A 1_555 1_555
N6A C11A 1_555 1_555
C7A C10A 1_555 1_555
C8A C9A 1_555 1_555
C16A C17A 1_555 1_555
C16A C18A 1_555 1_555

#END
