
#######################################################################
#
#                 Cambridge Crystallographic Data Centre
#                                CCDC 
#
#######################################################################
#
# If this CIF has been generated from an entry in the Cambridge 
# Structural Database, then it will include bibliographic, chemical, 
# crystal, experimental, refinement or atomic coordinate data resulting 
# from the CCDC's data processing and validation procedures.
#
#######################################################################

data_DUCGAK
_symmetry_cell_setting           monoclinic
_symmetry_space_group_name_H-M   'P 21/c'
_symmetry_Int_Tables_number      14
_space_group_name_Hall           '-P 2ybc'
loop_
_symmetry_equiv_pos_site_id
_symmetry_equiv_pos_as_xyz
1 x,y,z
2 -x,1/2+y,1/2-z
3 -x,-y,-z
4 x,1/2-y,1/2+z
_cell_length_a                   8.1300(16)
_cell_length_b                   29.670(6)
_cell_length_c                   8.9000(18)
_cell_angle_alpha                90
_cell_angle_beta                 102.70(3)
_cell_angle_gamma                90
_cell_volume                     2094.31
loop_
_atom_site_label
_atom_site_type_symbol
_atom_site_fract_x
_atom_site_fract_y
_atom_site_fract_z
Mo1 Mo -0.6778(2) -0.49926(6) -0.44850(19)
Mo2 Mo -0.4127(2) -0.54361(5) -0.05151(18)
Mo3 Mo -0.4537(2) -0.42062(5) -0.25177(19)
Cu1 Cu -0.0134(3) -0.40945(8) -0.0574(3)
O1 O -0.083(2) -0.4651(5) 0.0455(17)
O2 O -0.5153(16) -0.4037(4) -0.0516(15)
O3 O 0.0211(18) -0.4453(5) -0.2567(18)
O4 O -0.6661(17) -0.4634(5) -0.2542(15)
O5 O -0.4468(16) -0.4695(4) -0.4076(15)
O6 O -0.2607(19) -0.4038(5) -0.2055(15)
O7 O -0.7776(19) -0.4639(5) -0.5958(16)
O8 O -0.5479(18) -0.3808(5) -0.3871(17)
O9 O -0.5108(18) -0.5506(4) -0.2555(15)
O10 O -0.3845(17) -0.4810(4) -0.0428(15)
O11 O -0.2308(18) -0.5638(5) -0.0482(15)
O12 O -0.8094(19) -0.5404(5) -0.4385(18)
C1 C 0.061(3) -0.3677(11) 0.290(3)
H1 H 0.1777 -0.3699 0.3048
C2 C -0.194(2) -0.3710(8) 0.179(3)
H2 H -0.2972 -0.3764 0.1128
C3 C -0.291(3) -0.3478(9) 0.430(3)
H3 H -0.2343 -0.3380 0.5326
H4 H -0.3531 -0.3753 0.4392
C4 C -0.406(3) -0.3120(8) 0.350(3)
C5 C -0.545(4) -0.3245(8) 0.250(3)
H5 H -0.5694 -0.3549 0.2325
C6 C -0.650(3) -0.2927(8) 0.172(3)
H6 H -0.7451 -0.3018 0.0999
C7 C -0.620(3) -0.2471(7) 0.196(3)
C8 C -0.479(3) -0.2344(9) 0.302(3)
H7 H -0.4541 -0.2041 0.3211
C9 C -0.377(3) -0.2663(8) 0.379(3)
H8 H -0.2833 -0.2576 0.4532
C10 C -0.734(3) -0.2126(8) 0.107(3)
H9 H -0.8102 -0.2263 0.0194
H10 H -0.6692 -0.1894 0.0687
C11 C -1.016(3) -0.1888(7) 0.336(3)
H11 H -1.1077 -0.1965 0.3770
C12 C -0.828(3) -0.1510(7) 0.270(2)
H12 H -0.7561 -0.1282 0.2524
N1 N -0.054(2) -0.3774(6) 0.145(2)
N2 N -0.023(3) -0.3545(8) 0.409(3)
N3 N -0.173(2) -0.3545(6) 0.334(2)
N4 N -0.828(2) -0.1934(6) 0.214(2)
N5 N -0.938(3) -0.2176(6) 0.257(3)
N6 N -0.943(2) -0.1465(6) 0.3498(19)
Mo1B Mo -0.3222(2) -0.50074(6) -0.55150(19)
Mo2B Mo -0.5873(2) -0.45639(5) 0.05151(18)
Cu1C Cu -1.0134(3) -0.09055(8) 0.4426(3)
Cu1B Cu 0.0134(3) -0.59055(8) 0.0574(3)
O2B O -0.4847(16) -0.5963(4) 0.0516(15)
O4B O -0.3339(17) -0.5366(5) 0.2542(15)
O5B O -0.5532(16) -0.5305(4) -0.5924(15)
O10B O -0.6155(17) -0.5190(4) 0.0428(15)
O11B O 0.2308(18) -0.4362(5) 0.0482(15)
N6C N 0.057(2) -0.3535(6) -0.1502(19)
loop_
_geom_bond_atom_site_label_1
_geom_bond_atom_site_label_2
_geom_bond_site_symmetry_1
_geom_bond_site_symmetry_2
Mo1 O4 1_555 1_555
Mo2 O9 1_555 1_555
Mo3 O2 1_555 1_555
Cu1 O1 1_555 1_555
O2 Mo2B 1_555 1_555
O3 Cu1 1_555 1_555
O4 Mo3 1_555 1_555
O5 Mo1 1_555 1_555
O6 Mo3 1_555 1_555
O7 Mo1 1_555 1_555
O8 Mo3 1_555 1_555
O9 Mo1 1_555 1_555
O10 Mo2 1_555 1_555
O11 Mo2 1_555 1_555
O12 Mo1 1_555 1_555
C1 H1 1_555 1_555
C2 H2 1_555 1_555
C3 H3 1_555 1_555
H4 C3 1_555 1_555
C4 C3 1_555 1_555
C5 C4 1_555 1_555
H5 C5 1_555 1_555
C6 C5 1_555 1_555
H6 C6 1_555 1_555
C7 C6 1_555 1_555
C8 C7 1_555 1_555
H7 C8 1_555 1_555
C9 C4 1_555 1_555
H8 C9 1_555 1_555
C10 C7 1_555 1_555
H9 C10 1_555 1_555
H10 C10 1_555 1_555
C11 H11 1_555 1_555
C12 H12 1_555 1_555
N1 Cu1 1_555 1_555
N2 C1 1_555 1_555
N3 C2 1_555 1_555
N4 C10 1_555 1_555
N5 C11 1_555 1_555
N6 C11 1_555 1_555
Mo1B O5 1_555 1_555
Mo2B O4 1_555 1_555
Cu1C N6 1_555 1_555
Cu1B O11 1_555 1_555
O2B Mo2 1_555 1_555
O4B Mo2 1_555 1_555
O5B Mo1 1_555 1_555
O10B Mo2 1_555 1_555
O11B Cu1 1_555 1_555
N6C Cu1 1_555 1_555
Mo3 O5 1_555 1_555
Mo3 O10 1_555 1_555
Cu1 O6 1_555 1_555
O10 Mo2B 1_555 1_555
C1 N1 1_555 1_555
C2 N1 1_555 1_555
C3 N3 1_555 1_555
C8 C9 1_555 1_555
C12 N4 1_555 1_555
C12 N6 1_555 1_555
N2 N3 1_555 1_555
N4 N5 1_555 1_555
Mo1B O5B 1_555 1_555
Mo2B O10B 1_555 1_555

#END
