
#######################################################################
#
#                 Cambridge Crystallographic Data Centre
#                                CCDC 
#
#######################################################################
#
# If this CIF has been generated from an entry in the Cambridge 
# Structural Database, then it will include bibliographic, chemical, 
# crystal, experimental, refinement or atomic coordinate data resulting 
# from the CCDC's data processing and validation procedures.
#
#######################################################################

data_DUCGEO
_symmetry_cell_setting           monoclinic
_symmetry_space_group_name_H-M   'P 21/c'
_symmetry_Int_Tables_number      14
_space_group_name_Hall           '-P 2ybc'
loop_
_symmetry_equiv_pos_site_id
_symmetry_equiv_pos_as_xyz
1 x,y,z
2 -x,1/2+y,1/2-z
3 -x,-y,-z
4 x,1/2-y,1/2+z
_cell_length_a                   12.400(3)
_cell_length_b                   15.300(3)
_cell_length_c                   20.090(4)
_cell_angle_alpha                90
_cell_angle_beta                 103.70(3)
_cell_angle_gamma                90
_cell_volume                     3703.03
loop_
_atom_site_label
_atom_site_type_symbol
_atom_site_fract_x
_atom_site_fract_y
_atom_site_fract_z
Mo1 Mo 0.86294(3) 0.97465(3) 0.12878(2)
Mo2 Mo 1.13730(4) 0.94714(3) 0.18103(2)
Mo3 Mo 0.74329(4) 0.99718(3) -0.03483(2)
Mo4 Mo 1.00454(4) 0.88650(3) 0.00906(3)
Cu1 Cu 0.84947(5) 1.21510(4) 0.21814(3)
N1 N 0.7558(3) 1.2773(3) 0.1372(2)
N2 N 0.6373(4) 1.3751(3) 0.0780(3)
N3 N 0.6454(4) 1.3048(3) 0.0389(2)
N4 N -0.0641(3) 1.3498(3) -0.1988(2)
N5 N 0.0012(5) 1.4548(3) -0.1218(3)
N6 N 0.0427(4) 1.3755(3) -0.0987(2)
N7 N 0.9888(3) 1.2446(3) 0.1899(2)
N8 N 1.1118(4) 1.3164(4) 0.1443(3)
N9 N 1.1590(4) 1.2462(3) 0.1807(3)
N10 N 1.2895(3) 1.6825(3) 0.2533(2)
N11 N 1.4054(5) 1.6582(5) 0.1861(3)
N12 N 1.4351(3) 1.6112(3) 0.2430(2)
O1 O 1.2367(3) 1.0058(3) 0.2345(2)
O2 O 0.8327(4) 0.9084(3) 0.1882(2)
O3 O 1.0624(4) 0.7877(3) 0.0030(3)
O4 O 1.1791(5) 0.9425(3) 0.0990(2)
O5 O 1.0142(3) 1.0116(2) 0.1807(2)
O6 O 1.1388(3) 0.8468(2) 0.21796(18)
O7 O 0.6709(3) 1.0864(3) -0.0216(2)
O8 O 0.8748(3) 0.8844(3) -0.0475(2)
O9 O 0.6518(4) 0.9345(3) -0.08925(19)
O10 O 0.9752(3) 0.8862(2) 0.0946(2)
O11 O 0.8108(3) 1.0739(3) 0.14343(18)
O12 O 0.9125(3) 1.0338(2) 0.02811(17)
O13 O 0.7560(3) 0.9376(2) 0.04927(17)
C1 C 0.7153(4) 1.2477(4) 0.0743(3)
H1 H 0.7337 1.1944 0.0576
C2 C 0.7042(5) 1.3552(4) 0.1364(3)
H2 H 0.7156 1.3917 0.1745
C3 C 0.5802(5) 1.3010(5) -0.0326(3)
H3 H 0.5899 1.2442 -0.0518
H4 H 0.6072 1.3450 -0.0594
C4 C 0.4590(5) 1.3163(4) -0.0371(3)
C5 C 0.4147(5) 1.4002(4) -0.0474(4)
H5 H 0.4590 1.4463 -0.0553
C6 C 0.3056(5) 1.4156(4) -0.0460(4)
H6 H 0.2778 1.4723 -0.0520
C7 C 0.2373(5) 1.3487(4) -0.0360(3)
C8 C 0.2806(6) 1.2654(4) -0.0275(3)
H7 H 0.2353 1.2193 -0.0210
C9 C 0.3893(6) 1.2492(4) -0.0282(4)
H8 H 0.4163 1.1923 -0.0227
C10 C 0.1209(5) 1.3672(4) -0.0311(3)
H9 H 0.1201 1.4210 -0.0057
H10 H 0.0961 1.3204 -0.0058
C11 C -0.0642(5) 1.4355(4) -0.1822(3)
H11 H -0.1064 1.4771 -0.2107
C12 C 0.0047(4) 1.3145(4) -0.1446(3)
H12 H 0.0233 1.2556 -0.1398
C13 C 1.0097(5) 1.3125(4) 0.1515(3)
H13 H 0.9558 1.3532 0.1319
C14 C 1.0862(4) 1.2045(3) 0.2071(3)
H14 H 1.1009 1.1543 0.2339
C15 C 1.2765(5) 1.2233(4) 0.1851(4)
H15 H 1.2837 1.2008 0.1412
H16 H 1.2994 1.1778 0.2191
C16 C 1.3507(4) 1.3010(4) 0.2041(3)
C17 C 1.3853(6) 1.3274(5) 0.2712(4)
H17 H 1.3695 1.2934 0.3061
C18 C 1.4444(6) 1.4054(5) 0.2868(4)
H18 H 1.4661 1.4240 0.3321
C19 C 1.4707(4) 1.4547(4) 0.2364(3)
C20 C 1.4408(6) 1.4253(5) 0.1701(3)
H19 H 1.4608 1.4573 0.1356
C21 C 1.3817(6) 1.3490(5) 0.1541(3)
H20 H 1.3625 1.3299 0.1089
C22 C 1.5230(4) 1.5436(4) 0.2515(3)
H21 H 1.5682 1.5450 0.2981
H22 H 1.5706 1.5555 0.2206
C23 C 1.3660(4) 1.6264(4) 0.2826(3)
H23 H 1.3708 1.6009 0.3252
C24 C 1.3163(7) 1.7008(6) 0.1943(4)
H24 H 1.2763 1.7396 0.1620
Mo1B Mo 1.13706(3) 1.02535(3) -0.12878(2)
Mo2B Mo 0.86270(4) 1.05286(3) -0.18103(2)
Mo3B Mo 1.25671(4) 1.00282(3) 0.03483(2)
Mo4B Mo 0.99546(4) 1.11350(3) -0.00906(3)
Cu1C Cu -0.15053(5) 1.28490(4) -0.28186(3)
Cu1A Cu 1.15053(5) 1.71510(4) 0.28186(3)
Cu1A_2 Cu 1.15053(5) 0.71510(4) 0.28186(3)
Cu1C_2 Cu 0.84947(5) 1.28490(4) -0.28186(3)
Cu1B Cu 1.15053(5) 0.78490(4) -0.21814(3)
Cu1A_3 Cu 2.15053(5) 0.71510(4) 0.28186(3)
Cu1C_3 Cu 0.84947(5) 0.28490(4) -0.28186(3)
N1B N 1.2442(3) 0.7227(3) -0.1372(2)
N2B N 1.3627(4) 0.6249(3) -0.0780(3)
N3B N 1.3546(4) 0.6952(3) -0.0389(2)
N4C N 0.9359(3) 1.1502(3) 0.3012(2)
N4A N 1.0641(3) 0.8498(3) -0.3012(2)
N4B N 2.0641(3) 0.6502(3) 0.1988(2)
N5B N 1.9988(5) 0.5452(3) 0.1218(3)
N6B N 1.9573(4) 0.6245(3) 0.0987(2)
N7B N 1.0112(3) 0.7554(3) -0.1899(2)
N8B N 0.8882(4) 0.6836(4) -0.1443(3)
N9B N 0.8410(4) 0.7538(3) -0.1807(3)
N10A N 0.7105(3) 1.1825(3) 0.2467(2)
N10C N 1.2895(3) 0.8175(3) -0.2467(2)
N10B N 0.7105(3) 0.3175(3) -0.2533(2)
N11B N 0.5946(5) 0.3418(5) -0.1861(3)
N12B N 0.5649(3) 0.3888(3) -0.2430(2)
O1B O 0.7633(3) 0.9942(3) -0.2345(2)
O2B O 1.1673(4) 1.0916(3) -0.1882(2)
O3B O 0.9376(4) 1.2123(3) -0.0030(3)
O4B O 0.8209(5) 1.0575(3) -0.0990(2)
O5B O 0.9858(3) 0.9884(2) -0.1807(2)
O6A O 0.8612(3) 1.3468(2) 0.28204(18)
O6B O 0.8612(3) 1.1532(2) -0.21796(18)
O6C O 1.1388(3) 0.6532(2) -0.28204(18)
O7B O 1.3291(3) 0.9136(3) 0.0216(2)
O8B O 1.1252(3) 1.1156(3) 0.0475(2)
O9B O 1.3482(4) 1.0655(3) 0.08925(19)
O10B O 1.0248(3) 1.1138(2) -0.0946(2)
O11B O 1.1892(3) 0.9261(3) -0.14343(18)
O12B O 1.0875(3) 0.9662(2) -0.02811(17)
O13B O 1.2440(3) 1.0624(2) -0.04927(17)
C1B C 1.2847(4) 0.7523(4) -0.0743(3)
H1B H 1.2663 0.8056 -0.0576
C2B C 1.2958(5) 0.6448(4) -0.1364(3)
H2B H 1.2844 0.6083 -0.1745
C3B C 1.4198(5) 0.6990(5) 0.0326(3)
H3B H 1.4101 0.7558 0.0518
H4B H 1.3928 0.6550 0.0594
C4B C 1.5410(5) 0.6837(4) 0.0371(3)
C5B C 1.5853(5) 0.5998(4) 0.0474(4)
H5B H 1.5410 0.5537 0.0553
C6B C 1.6944(5) 0.5844(4) 0.0460(4)
H6B H 1.7222 0.5277 0.0520
C7B C 1.7627(5) 0.6513(4) 0.0360(3)
C8B C 1.7194(6) 0.7346(4) 0.0275(3)
H7B H 1.7647 0.7807 0.0210
C9B C 1.6107(6) 0.7508(4) 0.0282(4)
H8B H 1.5837 0.8077 0.0227
C10B C 1.8791(5) 0.6328(4) 0.0311(3)
H9B H 1.8799 0.5790 0.0057
H10B H 1.9039 0.6796 0.0058
C11B C 2.0642(5) 0.5645(4) 0.1822(3)
H11B H 2.1064 0.5229 0.2107
C12B C 1.9953(4) 0.6855(4) 0.1446(3)
H12B H 1.9767 0.7444 0.1398
C13B C 0.9903(5) 0.6875(4) -0.1515(3)
H13B H 1.0442 0.6468 -0.1319
C14B C 0.9138(4) 0.7955(3) -0.2071(3)
H14B H 0.8991 0.8457 -0.2339
C15B C 0.7235(5) 0.7767(4) -0.1851(4)
H15B H 0.7163 0.7992 -0.1412
H16B H 0.7006 0.8222 -0.2191
C16B C 0.6493(4) 0.6990(4) -0.2041(3)
C17B C 0.6147(6) 0.6726(5) -0.2712(4)
H17B H 0.6305 0.7066 -0.3061
C18B C 0.5556(6) 0.5946(5) -0.2868(4)
H18B H 0.5339 0.5760 -0.3321
C19B C 0.5293(4) 0.5453(4) -0.2364(3)
C20B C 0.5592(6) 0.5747(5) -0.1701(3)
H19B H 0.5392 0.5427 -0.1356
C21B C 0.6183(6) 0.6510(5) -0.1541(3)
H20B H 0.6375 0.6701 -0.1089
C22B C 0.4770(4) 0.4564(4) -0.2515(3)
H21B H 0.4318 0.4550 -0.2981
H22B H 0.4294 0.4445 -0.2206
C23B C 0.6340(4) 0.3736(4) -0.2826(3)
H23B H 0.6292 0.3991 -0.3252
C24B C 0.6837(7) 0.2992(6) -0.1943(4)
H24B H 0.7237 0.2604 -0.1620
loop_
_geom_bond_atom_site_label_1
_geom_bond_atom_site_label_2
_geom_bond_site_symmetry_1
_geom_bond_site_symmetry_2
Mo1 O2 1_555 1_555
Mo2 O1 1_555 1_555
Mo3 O7 1_555 1_555
Mo4 O3 1_555 1_555
Cu1 N1 1_555 1_555
N1 C1 1_555 1_555
N2 N3 1_555 1_555
N3 C1 1_555 1_555
N4 C11 1_555 1_555
N5 N6 1_555 1_555
N6 C10 1_555 1_555
N7 Cu1 1_555 1_555
N8 N9 1_555 1_555
N9 C14 1_555 1_555
N10 C23 1_555 1_555
N11 N12 1_555 1_555
N12 C22 1_555 1_555
O4 Mo2 1_555 1_555
O5 Mo1 1_555 1_555
O6 Mo2 1_555 1_555
O8 Mo3 1_555 1_555
O9 Mo3 1_555 1_555
O10 Mo1 1_555 1_555
O11 Mo1 1_555 1_555
O12 Mo1 1_555 1_555
O13 Mo1 1_555 1_555
C1 H1 1_555 1_555
C2 N1 1_555 1_555
H2 C2 1_555 1_555
C3 N3 1_555 1_555
H3 C3 1_555 1_555
H4 C3 1_555 1_555
C4 C3 1_555 1_555
C5 C4 1_555 1_555
H5 C5 1_555 1_555
C6 C5 1_555 1_555
H6 C6 1_555 1_555
C7 C6 1_555 1_555
C8 C7 1_555 1_555
H7 C8 1_555 1_555
C9 C4 1_555 1_555
H8 C9 1_555 1_555
C10 C7 1_555 1_555
H9 C10 1_555 1_555
H10 C10 1_555 1_555
C11 N5 1_555 1_555
H11 C11 1_555 1_555
C12 N4 1_555 1_555
H12 C12 1_555 1_555
C13 N7 1_555 1_555
H13 C13 1_555 1_555
C14 N7 1_555 1_555
H14 C14 1_555 1_555
C15 N9 1_555 1_555
H15 C15 1_555 1_555
H16 C15 1_555 1_555
C16 C15 1_555 1_555
C17 C16 1_555 1_555
H17 C17 1_555 1_555
C18 C17 1_555 1_555
H18 C18 1_555 1_555
C19 C18 1_555 1_555
C20 C19 1_555 1_555
H19 C20 1_555 1_555
C21 C16 1_555 1_555
H20 C21 1_555 1_555
C22 C19 1_555 1_555
H21 C22 1_555 1_555
H22 C22 1_555 1_555
C23 N12 1_555 1_555
H23 C23 1_555 1_555
C24 N10 1_555 1_555
H24 C24 1_555 1_555
Mo1B O2B 1_555 1_555
Mo2B O1B 1_555 1_555
Mo3B O4 1_555 1_555
Mo4B O12 1_555 1_555
Cu1C N4 1_555 1_555
Cu1A N10 1_555 1_555
Cu1A_2 O6 1_555 1_555
Cu1C_2 O6B 1_555 1_555
Cu1B N1B 1_555 1_555
Cu1A_3 N4B 1_555 1_555
Cu1C_3 N10B 1_555 1_555
N1B C1B 1_555 1_555
N2B N3B 1_555 1_555
N3B C1B 1_555 1_555
N4C Cu1 1_555 1_555
N4A Cu1B 1_555 1_555
N4B C11B 1_555 1_555
N5B N6B 1_555 1_555
N6B C10B 1_555 1_555
N7B Cu1B 1_555 1_555
N8B N9B 1_555 1_555
N9B C14B 1_555 1_555
N10A Cu1 1_555 1_555
N10C Cu1B 1_555 1_555
N10B C23B 1_555 1_555
N11B N12B 1_555 1_555
N12B C22B 1_555 1_555
O3B Mo4B 1_555 1_555
O4B Mo3 1_555 1_555
O5B Mo1B 1_555 1_555
O6A Cu1 1_555 1_555
O6B Mo2B 1_555 1_555
O6C Cu1B 1_555 1_555
O7B Mo3B 1_555 1_555
O8B Mo3B 1_555 1_555
O9B Mo3B 1_555 1_555
O10B Mo1B 1_555 1_555
O11B Mo1B 1_555 1_555
O12B Mo4 1_555 1_555
O13B Mo1B 1_555 1_555
C1B H1B 1_555 1_555
C2B N1B 1_555 1_555
H2B C2B 1_555 1_555
C3B N3B 1_555 1_555
H3B C3B 1_555 1_555
H4B C3B 1_555 1_555
C4B C3B 1_555 1_555
C5B C4B 1_555 1_555
H5B C5B 1_555 1_555
C6B C5B 1_555 1_555
H6B C6B 1_555 1_555
C7B C6B 1_555 1_555
C8B C7B 1_555 1_555
H7B C8B 1_555 1_555
C9B C4B 1_555 1_555
H8B C9B 1_555 1_555
C10B C7B 1_555 1_555
H9B C10B 1_555 1_555
H10B C10B 1_555 1_555
C11B N5B 1_555 1_555
H11B C11B 1_555 1_555
C12B N4B 1_555 1_555
H12B C12B 1_555 1_555
C13B N7B 1_555 1_555
H13B C13B 1_555 1_555
C14B N7B 1_555 1_555
H14B C14B 1_555 1_555
C15B N9B 1_555 1_555
H15B C15B 1_555 1_555
H16B C15B 1_555 1_555
C16B C15B 1_555 1_555
C17B C16B 1_555 1_555
H17B C17B 1_555 1_555
C18B C17B 1_555 1_555
H18B C18B 1_555 1_555
C19B C18B 1_555 1_555
C20B C19B 1_555 1_555
H19B C20B 1_555 1_555
C21B C16B 1_555 1_555
H20B C21B 1_555 1_555
C22B C19B 1_555 1_555
H21B C22B 1_555 1_555
H22B C22B 1_555 1_555
C23B N12B 1_555 1_555
H23B C23B 1_555 1_555
C24B N10B 1_555 1_555
H24B C24B 1_555 1_555
Mo2 O5 1_555 1_555
Mo2 O10 1_555 1_555
Mo3 O12 1_555 1_555
Mo3 O13 1_555 1_555
Mo4 O8 1_555 1_555
Mo4 O10 1_555 1_555
Cu1 O11 1_555 1_555
N2 C2 1_555 1_555
N6 C12 1_555 1_555
N8 C13 1_555 1_555
N11 C24 1_555 1_555
C8 C9 1_555 1_555
C20 C21 1_555 1_555
Mo1B O12B 1_555 1_555
Mo2B O4B 1_555 1_555
Mo2B O5B 1_555 1_555
Mo2B O10B 1_555 1_555
Mo3B O12B 1_555 1_555
Mo3B O13B 1_555 1_555
Mo4B O8B 1_555 1_555
Mo4B O10B 1_555 1_555
Cu1B O11B 1_555 1_555
N2B C2B 1_555 1_555
N6B C12B 1_555 1_555
N8B C13B 1_555 1_555
N11B C24B 1_555 1_555
C8B C9B 1_555 1_555
C20B C21B 1_555 1_555

#END
