
#######################################################################
#
#                 Cambridge Crystallographic Data Centre
#                                CCDC 
#
#######################################################################
#
# If this CIF has been generated from an entry in the Cambridge 
# Structural Database, then it will include bibliographic, chemical, 
# crystal, experimental, refinement or atomic coordinate data resulting 
# from the CCDC's data processing and validation procedures.
#
#######################################################################

data_DUCGUE
_symmetry_cell_setting           monoclinic
_symmetry_space_group_name_H-M   'P 21/n'
_symmetry_Int_Tables_number      14
_space_group_name_Hall           '-P 2yn'
loop_
_symmetry_equiv_pos_site_id
_symmetry_equiv_pos_as_xyz
1 x,y,z
2 1/2-x,1/2+y,1/2-z
3 -x,-y,-z
4 1/2+x,1/2-y,1/2+z
_cell_length_a                   12.740(3)
_cell_length_b                   22.950(5)
_cell_length_c                   13.030(3)
_cell_angle_alpha                90
_cell_angle_beta                 109.03(3)
_cell_angle_gamma                90
_cell_volume                     3601.54
loop_
_atom_site_label
_atom_site_type_symbol
_atom_site_fract_x
_atom_site_fract_y
_atom_site_fract_z
Mo1 Mo 0.82575(3) 0.105305(14) -0.09192(3)
Mo2 Mo 1.00012(3) 0.109963(15) 0.15918(3)
Mo3 Mo 0.90324(3) -0.042440(14) 0.04751(3)
Mo4 Mo 0.79413(4) -0.009150(18) -0.28132(4)
Cu2 Cu 0.64567(4) 0.23220(3) -0.18879(4)
N5 N 0.5728(3) 0.19553(16) -0.3235(3)
N6 N 0.4987(3) 0.18572(16) -0.5000(3)
N7 N 0.7870(3) 0.28122(16) -0.8767(3)
N8 N 0.7137(3) 0.26749(16) -1.0522(3)
O1 O 1.0874(4) 0.16452(15) 0.2208(3)
O2 O 1.1299(2) 0.07516(13) 0.0821(3)
O3 O 0.9131(3) 0.03627(13) 0.0383(2)
O4 O 0.8050(3) 0.15719(14) -0.1884(3)
O5 O 0.7185(3) 0.11389(15) -0.0427(3)
O6 O 0.8021(3) -0.05843(15) 0.1016(3)
O7 O 0.7626(3) 0.03585(13) -0.1778(3)
O8 O 0.8874(4) 0.11665(19) 0.2011(3)
O9 O 0.9723(2) 0.07213(14) -0.1362(2)
O10 O 1.0680(3) 0.04397(13) 0.2519(3)
O11 O 0.9413(2) 0.14440(11) 0.0189(2)
O12 O 0.7795(4) 0.0337(2) -0.3905(4)
O13 O 0.6949(3) -0.06045(18) -0.3188(4)
C15 C 0.5214(5) 0.1312(2) -0.4575(5)
H15 H 0.5083 0.0963 -0.4959
C16 C 0.5664(4) 0.1376(2) -0.3490(5)
H16 H 0.5894 0.1073 -0.2994
C17 C 0.5316(3) 0.2231(2) -0.4170(3)
H17 H 0.5262 0.2635 -0.4242
C18 C 0.4584(4) 0.2023(2) -0.6150(4)
H18 H 0.4192 0.1698 -0.6581
H19 H 0.4069 0.2346 -0.6252
C19 C 0.5540(4) 0.2198(2) -0.6525(4)
C20 C 0.5895(4) 0.2771(2) -0.6463(4)
H20 H 0.5523 0.3056 -0.6208
C21 C 0.6800(4) 0.2925(2) -0.6777(4)
H21 H 0.7044 0.3310 -0.6710
C22 C 0.7340(4) 0.2508(2) -0.7192(3)
C23 C 0.6983(4) 0.1939(2) -0.7268(4)
H22 H 0.7341 0.1657 -0.7547
C24 C 0.6093(4) 0.1781(2) -0.6931(4)
H23 H 0.5865 0.1394 -0.6978
C25 C 0.8280(4) 0.2673(2) -0.7603(4)
H24 H 0.8804 0.2353 -0.7478
H25 H 0.8669 0.3008 -0.7202
C26 C 0.7641(4) 0.3348(2) -0.9228(4)
H26 H 0.7774 0.3704 -0.8867
C27 C 0.7188(4) 0.3266(2) -1.0301(4)
H27 H 0.6946 0.3560 -1.0815
C28 C 0.7560(3) 0.2419(2) -0.9569(3)
H28 H 0.7633 0.2018 -0.9467
Mo1B Mo 1.17425(3) -0.105305(14) 0.09192(3)
Mo2B Mo 0.99988(3) -0.109963(15) -0.15918(3)
Mo3B Mo 1.09676(3) 0.042440(14) -0.04751(3)
Mo4B Mo 1.20587(4) 0.009150(18) 0.28132(4)
Cu2_2 Cu 0.64567(4) 0.23220(3) -1.18879(4)
Cu2C Cu 1.14567(4) 0.26780(3) 0.31121(4)
Cu2A Cu 0.85433(4) -0.26780(3) -0.31121(4)
Cu2C_2 Cu 1.14567(4) 0.26780(3) -0.68879(4)
Cu2B Cu 1.35433(4) -0.23220(3) 0.18879(4)
N5C N 1.0728(3) 0.30447(16) 0.1765(3)
N6C N 0.9987(3) 0.31428(16) 0.0000(3)
N7C N 1.2870(3) 0.21878(16) -0.3767(3)
N8_2 N 0.7137(3) 0.26749(16) -0.0522(3)
N8C N 1.2137(3) 0.23251(16) 0.4478(3)
N8C_2 N 1.2137(3) 0.23251(16) -0.5522(3)
O1C O 0.5874(4) 0.33548(15) -0.2792(3)
O1B O 0.9126(4) -0.16452(15) -0.2208(3)
O2B O 0.8701(2) -0.07516(13) -0.0821(3)
O3B O 1.0869(3) -0.03627(13) -0.0383(2)
O4B O 1.1950(3) -0.15719(14) 0.1884(3)
O4C O 1.3050(3) 0.34281(14) 0.3116(3)
O5B O 1.2815(3) -0.11389(15) 0.0427(3)
O6B O 1.1979(3) 0.05843(15) -0.1016(3)
O7B O 1.2374(3) -0.03585(13) 0.1778(3)
O8B O 1.1126(4) -0.11665(19) -0.2011(3)
O9B O 1.0277(2) -0.07213(14) 0.1362(2)
O10B O 0.9320(3) -0.04397(13) -0.2519(3)
O11B O 1.0587(2) -0.14440(11) -0.0189(2)
O12B O 1.2205(4) -0.0337(2) 0.3905(4)
O13B O 1.3051(3) 0.06045(18) 0.3188(4)
C15C C 1.0214(5) 0.3688(2) 0.0425(5)
H15C H 1.0083 0.4037 0.0041
C16C C 1.0664(4) 0.3624(2) 0.1510(5)
H16C H 1.0894 0.3927 0.2006
C17C C 1.0316(3) 0.2769(2) 0.0830(3)
H17C H 1.0262 0.2365 0.0758
C18C C 0.9584(4) 0.2977(2) -0.1150(4)
H18C H 0.9192 0.3302 -0.1581
H19C H 0.9069 0.2654 -0.1252
C19C C 1.0540(4) 0.2802(2) -0.1525(4)
C20C C 1.0895(4) 0.2229(2) -0.1463(4)
H20C H 1.0523 0.1944 -0.1208
C21C C 1.1800(4) 0.2075(2) -0.1777(4)
H21C H 1.2044 0.1690 -0.1710
C22C C 1.2340(4) 0.2492(2) -0.2192(3)
C23C C 1.1983(4) 0.3061(2) -0.2268(4)
H22C H 1.2341 0.3343 -0.2547
C24C C 1.1093(4) 0.3219(2) -0.1931(4)
H23C H 1.0865 0.3606 -0.1978
C25C C 1.3280(4) 0.2327(2) -0.2603(4)
H24C H 1.3804 0.2647 -0.2478
H25C H 1.3669 0.1992 -0.2202
C26C C 1.2641(4) 0.1652(2) -0.4228(4)
H26C H 1.2774 0.1296 -0.3867
C27C C 1.2188(4) 0.1734(2) -0.5301(4)
H27C H 1.1946 0.1440 -0.5815
C28C C 1.2560(3) 0.2581(2) -0.4569(3)
H28C H 1.2633 0.2982 -0.4467
Cu1 Cu 0.81040(7) -0.02049(3) 0.31606(7)
N1 N 0.6723(4) 0.0157(2) 0.2457(5)
N2 N 0.5298(3) 0.05261(17) 0.1195(4)
N3 N 0.4349(3) 0.36913(16) 0.0636(3)
N4 N 0.5679(4) 0.43447(18) 0.1033(4)
C1 C 0.6399(4) 0.0443(2) 0.1539(5)
H1 H 0.6871 0.0572 0.1173
C2 C 0.5800(7) 0.0058(3) 0.2735(8)
H2 H 0.5780 -0.0138 0.3352
C3 C 0.4931(6) 0.0289(3) 0.1983(8)
H3 H 0.4203 0.0290 0.1988
C4 C 0.4646(4) 0.0828(3) 0.0205(6)
H4 H 0.3955 0.0619 -0.0117
H5 H 0.5051 0.0820 -0.0308
C5 C 0.4382(4) 0.1459(2) 0.0390(4)
C6 C 0.4952(4) 0.1897(2) 0.0104(4)
H6 H 0.5499 0.1804 -0.0198
C7 C 0.4737(4) 0.2477(2) 0.0252(4)
H7 H 0.5153 0.2766 0.0067
C8 C 0.3908(3) 0.2630(2) 0.0674(4)
C9 C 0.3336(4) 0.2185(2) 0.0983(4)
H8 H 0.2790 0.2278 0.1285
C10 C 0.3564(4) 0.1601(2) 0.0851(4)
H9 H 0.3177 0.1308 0.1067
C11 C 0.3575(4) 0.3254(2) 0.0782(4)
H10 H 0.2851 0.3324 0.0249
H11 H 0.3504 0.3305 0.1495
C12 C 0.5113(4) 0.39730(19) 0.1425(4)
H12 H 0.5234 0.3916 0.2161
C13 C 0.4425(5) 0.3900(2) -0.0326(4)
H13 H 0.3997 0.3786 -0.1022
C14 C 0.5227(5) 0.4293(2) -0.0067(5)
H14 H 0.5452 0.4505 -0.0567
Cu1A Cu 0.68960(7) 0.47951(3) 0.18394(7)
N4A N 0.9321(4) -0.06553(18) 0.3967(4)
loop_
_geom_bond_atom_site_label_1
_geom_bond_atom_site_label_2
_geom_bond_site_symmetry_1
_geom_bond_site_symmetry_2
Mo1 O3 1_555 1_555
Mo2 O1 1_555 1_555
Mo3 O3 1_555 1_555
Mo4 O7 1_555 1_555
Cu1 N1 1_555 1_555
Cu2 N5 1_555 1_555
N1 C1 1_555 1_555
N2 C1 1_555 1_555
N3 C11 1_555 1_555
N4 C12 1_555 1_555
N5 C16 1_555 1_555
N6 C15 1_555 1_555
N7 C25 1_555 1_555
N8 C27 1_555 1_555
O1 Cu2C 1_555 1_555
O2 Mo2 1_555 1_555
O3 Mo2 1_555 1_555
O4 Mo1 1_555 1_555
O5 Mo1 1_555 1_555
O6 Mo3 1_555 1_555
O7 Mo1 1_555 1_555
O8 Mo2 1_555 1_555
O9 Mo1 1_555 1_555
O10 Mo2 1_555 1_555
O11 Mo1 1_555 1_555
O12 Mo4 1_555 1_555
O13 Mo4 1_555 1_555
C1 H1 1_555 1_555
C2 N1 1_555 1_555
H2 C2 1_555 1_555
C3 N2 1_555 1_555
H3 C3 1_555 1_555
C4 N2 1_555 1_555
H4 C4 1_555 1_555
H5 C4 1_555 1_555
C5 C4 1_555 1_555
C6 C5 1_555 1_555
H6 C6 1_555 1_555
C7 C6 1_555 1_555
H7 C7 1_555 1_555
C8 C7 1_555 1_555
C9 C8 1_555 1_555
H8 C9 1_555 1_555
C10 C5 1_555 1_555
H9 C10 1_555 1_555
C11 C8 1_555 1_555
H10 C11 1_555 1_555
H11 C11 1_555 1_555
C12 N3 1_555 1_555
H12 C12 1_555 1_555
C13 N3 1_555 1_555
H13 C13 1_555 1_555
C14 N4 1_555 1_555
H14 C14 1_555 1_555
C15 H15 1_555 1_555
C16 C15 1_555 1_555
H16 C16 1_555 1_555
C17 N5 1_555 1_555
H17 C17 1_555 1_555
C18 N6 1_555 1_555
H18 C18 1_555 1_555
H19 C18 1_555 1_555
C19 C18 1_555 1_555
C20 C19 1_555 1_555
H20 C20 1_555 1_555
C21 C20 1_555 1_555
H21 C21 1_555 1_555
C22 C21 1_555 1_555
C23 C22 1_555 1_555
H22 C23 1_555 1_555
C24 C19 1_555 1_555
H23 C24 1_555 1_555
C25 C22 1_555 1_555
H24 C25 1_555 1_555
H25 C25 1_555 1_555
C26 N7 1_555 1_555
H26 C26 1_555 1_555
C27 C26 1_555 1_555
H27 C27 1_555 1_555
C28 N7 1_555 1_555
H28 C28 1_555 1_555
Mo1B O3B 1_555 1_555
Mo2B O1B 1_555 1_555
Mo3B O2 1_555 1_555
Mo4B O10 1_555 1_555
Cu1A N4 1_555 1_555
Cu2_2 N8 1_555 1_555
Cu2C N5C 1_555 1_555
Cu2A O1B 1_555 1_555
Cu2C_2 N8C_2 1_555 1_555
Cu2B O4B 1_555 1_555
N4A Cu1 1_555 1_555
N5C C16C 1_555 1_555
N6C C15C 1_555 1_555
N7C C25C 1_555 1_555
N8_2 Cu2 1_555 1_555
N8C Cu2C 1_555 1_555
N8C_2 C27C 1_555 1_555
O1C Cu2 1_555 1_555
O2B Mo3 1_555 1_555
O3B Mo2B 1_555 1_555
O4B Mo1B 1_555 1_555
O4C Cu2C 1_555 1_555
O5B Mo1B 1_555 1_555
O6B Mo3B 1_555 1_555
O7B Mo1B 1_555 1_555
O8B Mo2B 1_555 1_555
O9B Mo3 1_555 1_555
O10B Mo4 1_555 1_555
O11B Mo1B 1_555 1_555
O12B Mo4B 1_555 1_555
O13B Mo4B 1_555 1_555
C15C H15C 1_555 1_555
C16C C15C 1_555 1_555
H16C C16C 1_555 1_555
C17C N5C 1_555 1_555
H17C C17C 1_555 1_555
C18C N6C 1_555 1_555
H18C C18C 1_555 1_555
H19C C18C 1_555 1_555
C19C C18C 1_555 1_555
C20C C19C 1_555 1_555
H20C C20C 1_555 1_555
C21C C20C 1_555 1_555
H21C C21C 1_555 1_555
C22C C21C 1_555 1_555
C23C C22C 1_555 1_555
H22C C23C 1_555 1_555
C24C C19C 1_555 1_555
H23C C24C 1_555 1_555
C25C C22C 1_555 1_555
H24C C25C 1_555 1_555
H25C C25C 1_555 1_555
C26C N7C 1_555 1_555
H26C C26C 1_555 1_555
C27C C26C 1_555 1_555
H27C C27C 1_555 1_555
C28C N7C 1_555 1_555
H28C C28C 1_555 1_555
Mo2 O11 1_555 1_555
Cu2 O4 1_555 1_555
N6 C17 1_555 1_555
N8 C28 1_555 1_555
O9 Mo3B 1_555 1_555
C2 C3 1_555 1_555
C9 C10 1_555 1_555
C13 C14 1_555 1_555
C23 C24 1_555 1_555
Mo1B O9B 1_555 1_555
Mo2B O2B 1_555 1_555
Mo2B O10B 1_555 1_555
Mo2B O11B 1_555 1_555
Mo3B O3B 1_555 1_555
Mo4B O7B 1_555 1_555
N6C C17C 1_555 1_555
N8C_2 C28C 1_555 1_555
C23C C24C 1_555 1_555

#END
