
#######################################################################
#
#                 Cambridge Crystallographic Data Centre
#                                CCDC 
#
#######################################################################
#
# If this CIF has been generated from an entry in the Cambridge 
# Structural Database, then it will include bibliographic, chemical, 
# crystal, experimental, refinement or atomic coordinate data resulting 
# from the CCDC's data processing and validation procedures.
#
#######################################################################

data_DUCGIS
_symmetry_cell_setting           triclinic
_symmetry_space_group_name_H-M   'P -1'
_symmetry_Int_Tables_number      2
_space_group_name_Hall           '-P 1'
loop_
_symmetry_equiv_pos_site_id
_symmetry_equiv_pos_as_xyz
1 x,y,z
2 -x,-y,-z
_cell_length_a                   11.900(2)
_cell_length_b                   13.700(3)
_cell_length_c                   23.640(5)
_cell_angle_alpha                104.36(3)
_cell_angle_beta                 91.70(3)
_cell_angle_gamma                109.63(3)
_cell_volume                     3489.56
loop_
_atom_site_label
_atom_site_type_symbol
_atom_site_fract_x
_atom_site_fract_y
_atom_site_fract_z
Mo1 Mo 0.15243(8) 0.51323(7) 0.51554(4)
Mo2 Mo 0.06736(9) 0.53781(8) 0.65490(4)
Mo3 Mo -0.01524(9) 0.30429(7) 0.41535(4)
Mo4 Mo 0.10444(9) 0.67100(7) 0.44721(4)
Cu3 Cu 0.17597(15) 0.29207(14) 0.27684(9)
O1 O 0.2743(7) 0.5124(7) 0.4797(4)
O3 O 0.2032(6) 0.5297(6) 0.5888(3)
O4 O 0.0269(6) 0.4902(5) 0.4423(3)
O5 O 0.0185(7) 0.3858(6) 0.6178(3)
O6 O 0.0588(7) 0.3600(5) 0.4979(3)
O7 O 0.1113(8) 0.3139(7) 0.3830(4)
O8 O 0.1592(7) 0.6584(5) 0.5252(3)
O9 O -0.0589(8) 0.5401(8) 0.6857(4)
O10 O 0.2267(8) 0.6632(7) 0.4145(4)
O11 O 0.1151(7) 0.6779(6) 0.6421(3)
O12 O -0.0812(9) 0.1719(7) 0.4089(4)
O13 O 0.1188(8) 0.8020(7) 0.4651(4)
O14 O 0.1717(9) 0.5571(8) 0.7111(4)
N13 N 0.0541(8) 0.1566(7) 0.2516(4)
N14 N -0.1138(8) 0.0232(7) 0.2279(4)
N15 N -0.0304(9) -0.0158(8) 0.2064(5)
N16 N -0.6839(9) -0.5876(7) 0.2881(4)
N17 N -0.5468(8) -0.4245(8) 0.3303(5)
N18 N -0.4989(8) -0.4838(7) 0.2902(4)
C25 C 0.0665(12) 0.0653(10) 0.2213(6)
H25 H 0.1405 0.0615 0.2118
C26 C -0.0628(10) 0.1276(9) 0.2556(6)
H26 H -0.1023 0.1723 0.2745
C27 C -0.2395(11) -0.0422(10) 0.2182(7)
H27 H -0.2832 -0.0013 0.2412
H28 H -0.2687 -0.0580 0.1770
C28 C -0.2658(9) -0.1460(9) 0.2342(5)
C29 C -0.2833(11) -0.2385(9) 0.1936(6)
H29 H -0.2723 -0.2386 0.1549
C30 C -0.3188(10) -0.3370(9) 0.2095(6)
H30 H -0.3329 -0.4013 0.1807
C31 C -0.3326(10) -0.3387(8) 0.2661(5)
C32 C -0.3177(10) -0.2425(9) 0.3076(5)
H31 H -0.3334 -0.2430 0.3459
C33 C -0.2800(10) -0.1461(10) 0.2930(5)
H32 H -0.2640 -0.0815 0.3219
C34 C -0.3711(10) -0.4418(9) 0.2834(6)
H33 H -0.3243 -0.4303 0.3204
H34 H -0.3529 -0.4957 0.2539
C35 C -0.5808(12) -0.5787(9) 0.2653(6)
H35 H -0.5687 -0.6322 0.2359
C36 C -0.6567(12) -0.4911(10) 0.3274(6)
H36 H -0.7120 -0.4729 0.3508
Mo1A Mo -0.15243(8) 0.48677(7) 0.48446(4)
Mo2A Mo -0.06736(9) 0.46219(8) 0.34510(4)
Mo3A Mo 0.01524(9) 0.69571(7) 0.58465(4)
Mo4A Mo -0.10444(9) 0.32900(7) 0.55279(4)
Cu3A Cu -0.17597(15) 0.70793(14) 0.72316(9)
Cu3_2 Cu -0.82403(15) -0.70793(14) 0.27684(9)
Cu3_3 Cu 1.17597(15) 1.29207(14) 0.27684(9)
O1A O -0.2743(7) 0.4876(7) 0.5203(4)
O3A O -0.2032(6) 0.4703(6) 0.4112(3)
O4A O -0.0269(6) 0.5098(5) 0.5577(3)
O5A O -0.0185(7) 0.6142(6) 0.3822(3)
O6A O -0.0588(7) 0.6400(5) 0.5021(3)
O7A O -0.1113(8) 0.6861(7) 0.6170(4)
O8A O -0.1592(7) 0.3416(5) 0.4748(3)
O9A O 0.0589(8) 0.4599(8) 0.3143(4)
O10A O -0.2267(8) 0.3368(7) 0.5855(4)
O11A O -0.1151(7) 0.3221(6) 0.3579(3)
O12A O 0.0812(9) 0.8281(7) 0.5911(4)
O13A O -0.1188(8) 0.1980(7) 0.5349(4)
O14A O -0.1717(9) 0.4429(8) 0.2889(4)
N13_2 N 1.0541(8) 1.1566(7) 0.2516(4)
N13A N -0.0541(8) 0.8434(7) 0.7484(4)
N14_2 N 0.8862(8) 1.0232(7) 0.2279(4)
N15_2 N 0.9696(9) 0.9842(8) 0.2064(5)
N16_2 N 0.3161(9) 0.4124(7) 0.2881(4)
N16A N -0.3161(9) 0.5876(7) 0.7119(4)
N17_2 N 0.4532(8) 0.5755(8) 0.3303(5)
N18_2 N 0.5011(8) 0.5162(7) 0.2902(4)
C25_2 C 1.0665(12) 1.0653(10) 0.2213(6)
H25_2 H 1.1405 1.0615 0.2118
C26_2 C 0.9372(10) 1.1276(9) 0.2556(6)
H26_2 H 0.8977 1.1723 0.2745
C27_2 C 0.7605(11) 0.9578(10) 0.2182(7)
H27_2 H 0.7168 0.9987 0.2412
H28_2 H 0.7313 0.9420 0.1770
C28_2 C 0.7342(9) 0.8540(9) 0.2342(5)
C29_2 C 0.7167(11) 0.7615(9) 0.1936(6)
H29_2 H 0.7277 0.7614 0.1549
C30_2 C 0.6812(10) 0.6630(9) 0.2095(6)
H30_2 H 0.6671 0.5987 0.1807
C31_2 C 0.6674(10) 0.6613(8) 0.2661(5)
C32_2 C 0.6823(10) 0.7575(9) 0.3076(5)
H31_2 H 0.6666 0.7570 0.3459
C33_2 C 0.7200(10) 0.8539(10) 0.2930(5)
H32_2 H 0.7360 0.9185 0.3219
C34_2 C 0.6289(10) 0.5582(9) 0.2834(6)
H33_2 H 0.6757 0.5697 0.3204
H34_2 H 0.6471 0.5043 0.2539
C35_2 C 0.4192(12) 0.4213(9) 0.2653(6)
H35_2 H 0.4313 0.3678 0.2359
C36_2 C 0.3433(12) 0.5089(10) 0.3274(6)
H36_2 H 0.2880 0.5271 0.3508
Mo5 Mo 0.31682(8) 0.06576(7) 1.11482(4)
Mo6 Mo 0.28597(8) -0.18578(7) 1.00110(4)
Mo7 Mo 0.55142(8) -0.00149(7) 1.06776(4)
Mo8 Mo 0.54516(9) 0.26153(7) 1.09287(4)
Cu2 Cu 0.09896(19) -0.02785(11) 0.92110(8)
O15 O 0.5663(7) -0.0769(6) 1.1140(3)
O16 O 0.3051(6) -0.0520(6) 0.9497(3)
O17 O 0.5291(6) 0.1178(5) 1.1184(3)
O18 O 0.3017(7) -0.2704(6) 1.0394(4)
O19 O 0.5245(7) 0.3297(6) 1.0448(4)
O20 O 0.4772(6) -0.1069(5) 0.9933(3)
O21 O 0.3010(6) -0.2582(5) 0.9247(3)
O22 O 0.3694(7) 0.1929(6) 1.0944(4)
O23 O 0.5791(9) 0.3508(7) 1.1594(4)
O24 O 0.1660(8) 0.0220(7) 1.0962(4)
O25 O 0.3365(8) 0.0839(7) 1.1886(4)
O26 O 0.1392(7) -0.2020(6) 0.9980(4)
O27 O 0.3536(6) -0.0528(6) 1.0683(3)
N7 N 0.1564(10) 0.1216(7) 0.9491(4)
N8 N 0.2711(9) 0.2922(7) 0.9854(5)
N9 N 0.1575(8) 0.2833(7) 0.9745(4)
N10 N 0.0174(9) 0.8255(7) 0.8882(4)
N11 N -0.1281(10) 0.6676(9) 0.8654(6)
N12 N -0.0267(9) 0.6556(7) 0.8463(4)
C13 C 0.0872(11) 0.1833(9) 0.9530(6)
H13 H 0.0045 0.1587 0.9424
C14 C 0.2701(11) 0.1942(8) 0.9671(5)
H14 H 0.3387 0.1759 0.9664
C15 C 0.1219(12) 0.3796(9) 0.9929(6)
H15 H 0.1886 0.4382 1.0184
H16 H 0.0551 0.3632 1.0159
C16 C 0.0866(10) 0.4162(8) 0.9438(5)
C17 C -0.0340(10) 0.4041(8) 0.9328(5)
H17 H -0.0906 0.3682 0.9540
C18 C 0.1660(12) 0.4671(9) 0.9102(6)
H18 H 0.2462 0.4743 0.9167
C19 C 0.1344(12) 0.5065(9) 0.8690(5)
H19 H 0.1908 0.5386 0.8466
C20 C 0.0140(12) 0.4990(8) 0.8599(5)
C21 C -0.0699(10) 0.4453(8) 0.8904(5)
H20 H -0.1503 0.4367 0.8829
C22 C -0.0241(15) 0.5520(9) 0.8165(6)
H21 H -0.1033 0.5062 0.7961
H22 H 0.0317 0.5597 0.7875
C23 C -0.0966(12) 0.7679(10) 0.8898(6)
H23 H -0.1498 0.7989 0.9076
C24 C 0.0587(11) 0.7503(9) 0.8602(5)
H24 H 0.1373 0.7632 0.8517
Mo5A Mo 0.68318(8) -0.06576(7) 0.88518(4)
Mo6A Mo 0.71403(8) 0.18578(7) 0.99890(4)
Mo7A Mo 0.44858(8) 0.00149(7) 0.93224(4)
Mo8A Mo 0.45484(9) -0.26153(7) 0.90713(4)
Cu2A Cu 0.90104(19) 0.02785(11) 1.07890(8)
Cu2_2 Cu 0.09896(19) 0.97215(11) 0.92110(8)
Cu2_3 Cu 0.09896(19) -1.02785(11) 0.92110(8)
O15A O 0.4337(7) 0.0769(6) 0.8860(3)
O16A O 0.6949(6) 0.0520(6) 1.0503(3)
O17A O 0.4709(6) -0.1178(5) 0.8816(3)
O18A O 0.6983(7) 0.2704(6) 0.9606(4)
O19A O 0.4755(7) -0.3297(6) 0.9552(4)
O20A O 0.5228(6) 0.1069(5) 1.0067(3)
O21A O 0.6990(6) 0.2582(5) 1.0753(3)
O22A O 0.6306(7) -0.1929(6) 0.9056(4)
O23A O 0.4209(9) -0.3508(7) 0.8406(4)
O24A O 0.8340(8) -0.0220(7) 0.9038(4)
O25A O 0.6635(8) -0.0839(7) 0.8114(4)
O26A O 0.8608(7) 0.2020(6) 1.0020(4)
O27A O 0.6464(6) 0.0528(6) 0.9317(3)
N7_2 N 0.1564(10) -0.8784(7) 0.9491(4)
N7A N 0.8436(10) -0.1216(7) 1.0509(4)
N8_2 N 0.2711(9) -0.7078(7) 0.9854(5)
N9_2 N 0.1575(8) -0.7167(7) 0.9745(4)
N10_2 N 0.0174(9) -0.1745(7) 0.8882(4)
N10A N 0.9826(9) 0.1745(7) 1.1118(4)
N11_2 N -0.1281(10) -0.3324(9) 0.8654(6)
N12_2 N -0.0267(9) -0.3444(7) 0.8463(4)
C13_2 C 0.0872(11) -0.8167(9) 0.9530(6)
H13_2 H 0.0045 -0.8413 0.9424
C14_2 C 0.2701(11) -0.8058(8) 0.9671(5)
H14_2 H 0.3387 -0.8241 0.9664
C15_2 C 0.1219(12) -0.6204(9) 0.9929(6)
H15_2 H 0.1886 -0.5618 1.0184
H16_2 H 0.0551 -0.6368 1.0159
C16_2 C 0.0866(10) -0.5838(8) 0.9438(5)
C17_2 C -0.0340(10) -0.5959(8) 0.9328(5)
H17_2 H -0.0906 -0.6318 0.9540
C18_2 C 0.1660(12) -0.5329(9) 0.9102(6)
H18_2 H 0.2462 -0.5257 0.9167
C19_2 C 0.1344(12) -0.4935(9) 0.8690(5)
H19_2 H 0.1908 -0.4614 0.8466
C20_2 C 0.0140(12) -0.5010(8) 0.8599(5)
C21_2 C -0.0699(10) -0.5547(8) 0.8904(5)
H20_2 H -0.1503 -0.5633 0.8829
C22_2 C -0.0241(15) -0.4480(9) 0.8165(6)
H21_2 H -0.1033 -0.4938 0.7961
H22_2 H 0.0317 -0.4403 0.7875
C23_2 C -0.0966(12) -0.2321(10) 0.8898(6)
H23_2 H -0.1498 -0.2011 0.9076
C24_2 C 0.0587(11) -0.2497(9) 0.8602(5)
H24_2 H 0.1373 -0.2368 0.8517
Cu1 Cu 0.43338(19) 0.51152(12) 0.57320(9)
N1 N 0.3854(11) 0.3631(8) 0.5439(5)
N2 N 0.2682(11) 0.1898(8) 0.5206(5)
N3 N 0.3880(11) 0.2007(8) 0.5215(4)
N4 N 0.5026(10) -0.3409(8) 0.6105(5)
N5 N 0.6381(11) -0.1779(9) 0.6435(6)
N6 N 0.5315(9) -0.1790(8) 0.6587(5)
C1 C 0.2726(14) 0.2908(11) 0.5364(7)
H1 H 0.2050 0.3099 0.5419
C2 C 0.4556(13) 0.3038(11) 0.5350(6)
H2 H 0.5391 0.3309 0.5379
C3 C 0.4267(19) 0.1101(14) 0.5069(6)
H3 H 0.5034 0.1314 0.4916
H4 H 0.3692 0.0535 0.4758
C4 C 0.4398(14) 0.0653(9) 0.5578(6)
C5 C 0.5476(14) 0.1065(9) 0.5923(6)
H5 H 0.6053 0.1681 0.5871
C6 C 0.5766(14) 0.0611(9) 0.6350(7)
H6 H 0.6531 0.0878 0.6558
C7 C 0.4862(12) -0.0251(9) 0.6448(5)
C8 C 0.3721(12) -0.0645(10) 0.6107(6)
H7 H 0.3100 -0.1212 0.6178
C9 C 0.3535(12) -0.0212(10) 0.5689(6)
H8 H 0.2789 -0.0505 0.5460
C10 C 0.5108(13) -0.0818(9) 0.6887(5)
H9 H 0.5808 -0.0338 0.7164
H10 H 0.4427 -0.1000 0.7106
C11 C 0.4486(14) -0.2785(10) 0.6371(7)
H11 H 0.3669 -0.2987 0.6407
C12 C 0.6163(15) -0.2777(12) 0.6131(7)
H12 H 0.6744 -0.3019 0.5954
Cu1_2 Cu 0.43338(19) 1.51152(12) 0.57320(9)
Cu1_3 Cu 0.43338(19) -0.48848(12) 0.57320(9)
N1_2 N 0.3854(11) 1.3631(8) 0.5439(5)
N2_2 N 0.2682(11) 1.1898(8) 0.5206(5)
N3_2 N 0.3880(11) 1.2007(8) 0.5215(4)
N4_2 N 0.5026(10) 0.6591(8) 0.6105(5)
N4_3 N 0.5026(10) 1.6591(8) 0.6105(5)
N5_2 N 0.6381(11) 0.8221(9) 0.6435(6)
N6_2 N 0.5315(9) 0.8210(8) 0.6587(5)
C1_2 C 0.2726(14) 1.2908(11) 0.5364(7)
H1_2 H 0.2050 1.3099 0.5419
C2_2 C 0.4556(13) 1.3038(11) 0.5350(6)
H2_2 H 0.5391 1.3309 0.5379
C3_2 C 0.4267(19) 1.1101(14) 0.5069(6)
H3_2 H 0.5034 1.1314 0.4916
H4_2 H 0.3692 1.0535 0.4758
C4_2 C 0.4398(14) 1.0653(9) 0.5578(6)
C5_2 C 0.5476(14) 1.1065(9) 0.5923(6)
H5_2 H 0.6053 1.1681 0.5871
C6_2 C 0.5766(14) 1.0611(9) 0.6350(7)
H6_2 H 0.6531 1.0878 0.6558
C7_2 C 0.4862(12) 0.9749(9) 0.6448(5)
C8_2 C 0.3721(12) 0.9355(10) 0.6107(6)
H7_2 H 0.3100 0.8788 0.6178
C9_2 C 0.3535(12) 0.9788(10) 0.5689(6)
H8_2 H 0.2789 0.9495 0.5460
C10_2 C 0.5108(13) 0.9182(9) 0.6887(5)
H9_2 H 0.5808 0.9662 0.7164
H10_2 H 0.4427 0.9000 0.7106
C11_2 C 0.4486(14) 0.7215(10) 0.6371(7)
H11_2 H 0.3669 0.7013 0.6407
C12_2 C 0.6163(15) 0.7223(12) 0.6131(7)
H12_2 H 0.6744 0.6981 0.5954
Cu4 Cu 0.5000 0.5000 1.0000
Cu5 Cu 1.0000 0.0000 0.5000
N19 N 0.5484(10) 0.4480(9) 0.9272(5)
N20 N 0.5753(8) 0.3408(6) 0.8505(4)
N21 N 0.6148(9) 0.4394(7) 0.8398(5)
N22 N 0.9827(11) 0.0406(9) 0.5788(5)
N23 N 0.9864(8) 0.1346(8) 0.6676(4)
N24 N 0.9289(12) 0.0336(9) 0.6682(5)
C37 C 0.5389(10) 0.3475(10) 0.9012(6)
H37 H 0.5098 0.2901 0.9176
C38 C 0.5977(13) 0.5008(10) 0.8864(6)
H38 H 0.6169 0.5746 0.8923
C39 C 0.5671(10) 0.2445(9) 0.8041(6)
H39 H 0.5155 0.2392 0.7700
H40 H 0.5296 0.1814 0.8178
C40 C 0.6859(10) 0.2437(8) 0.7856(5)
C41 C 0.7465(12) 0.1909(9) 0.8087(5)
H41 H 0.7163 0.1587 0.8380
C42 C 0.8520(11) 0.1854(10) 0.7887(5)
H42 H 0.8928 0.1497 0.8050
C43 C 0.8984(10) 0.2313(8) 0.7452(5)
C44 C 0.8382(10) 0.2852(8) 0.7224(5)
H43 H 0.8695 0.3183 0.6936
C45 C 0.7314(10) 0.2907(9) 0.7418(5)
H44 H 0.6903 0.3261 0.7255
C46 C 1.0128(10) 0.2206(11) 0.7223(6)
H45 H 1.0621 0.2882 0.7156
H46 H 1.0582 0.2055 0.7517
C47 C 1.0225(11) 0.1386(11) 0.6163(5)
H47 H 1.0694 0.2010 0.6072
C48 C 0.9277(17) -0.0210(12) 0.6140(7)
H48 H 0.8923 -0.0957 0.6008
Cu4_2 Cu 1.5000 -0.5000 0.0000
N19A N 1.4516(10) -0.4480(9) 0.0728(5)
N19A_2 N 0.4516(10) 0.5520(9) 1.0728(5)
N20A N 1.4247(8) -0.3408(6) 0.1495(4)
N21A N 1.3852(9) -0.4394(7) 0.1602(5)
N22A N 1.0173(11) -0.0406(9) 0.4212(5)
N23A N 1.0136(8) -0.1346(8) 0.3324(4)
N24A N 1.0711(12) -0.0336(9) 0.3318(5)
C37A C 1.4611(10) -0.3475(10) 0.0988(6)
H37A H 1.4902 -0.2901 0.0824
C38A C 1.4023(13) -0.5008(10) 0.1136(6)
H38A H 1.3831 -0.5746 0.1077
C39A C 1.4329(10) -0.2445(9) 0.1959(6)
H39A H 1.4845 -0.2392 0.2300
H40A H 1.4704 -0.1814 0.1822
C40A C 1.3141(10) -0.2437(8) 0.2144(5)
C41A C 1.2535(12) -0.1909(9) 0.1913(5)
H41A H 1.2837 -0.1587 0.1620
C42A C 1.1480(11) -0.1854(10) 0.2113(5)
H42A H 1.1072 -0.1497 0.1950
C43A C 1.1016(10) -0.2313(8) 0.2548(5)
C44A C 1.1618(10) -0.2852(8) 0.2776(5)
H43A H 1.1305 -0.3183 0.3064
C45A C 1.2686(10) -0.2907(9) 0.2582(5)
H44A H 1.3097 -0.3261 0.2745
C46A C 0.9872(10) -0.2206(11) 0.2777(6)
H45A H 0.9379 -0.2882 0.2844
H46A H 0.9418 -0.2055 0.2483
C47A C 0.9775(11) -0.1386(11) 0.3837(5)
H47A H 0.9306 -0.2010 0.3928
C48A C 1.0723(17) 0.0210(12) 0.3860(7)
H48A H 1.1077 0.0957 0.3992
O2 O 0.3016(10) 0.7970(8) 0.7735(4)
loop_
_geom_bond_atom_site_label_1
_geom_bond_atom_site_label_2
_geom_bond_site_symmetry_1
_geom_bond_site_symmetry_2
Mo1 O1 1_555 1_555
Mo2 O3 1_555 1_555
Mo3 O4 1_555 1_555
Mo4 O4 1_555 1_555
Mo5 O17 1_555 1_555
Mo6 O16 1_555 1_555
Mo7 O15 1_555 1_555
Mo8 O17 1_555 1_555
Cu1 N1 1_555 1_555
Cu2 O16 1_555 1_555
Cu3 O7 1_555 1_555
Cu4 N19 1_555 1_555
Cu5 N22 1_555 1_555
O3 Mo1 1_555 1_555
O4 Mo1 1_555 1_555
O5 Mo2 1_555 1_555
O6 Mo1 1_555 1_555
O7 Mo3 1_555 1_555
O8 Mo1 1_555 1_555
O9 Mo2 1_555 1_555
O10 Mo4 1_555 1_555
O11 Mo2 1_555 1_555
O12 Mo3 1_555 1_555
O13 Mo4 1_555 1_555
O14 Mo2 1_555 1_555
O16 Mo7A 1_555 1_555
O17 Mo7 1_555 1_555
O18 Mo6 1_555 1_555
O19 Mo8 1_555 1_555
O20 Mo6 1_555 1_555
O21 Mo6 1_555 1_555
O22 Mo5 1_555 1_555
O23 Mo8 1_555 1_555
O24 Mo5 1_555 1_555
O25 Mo5 1_555 1_555
O26 Mo6 1_555 1_555
O27 Mo5 1_555 1_555
N1 C1 1_555 1_555
N2 N3 1_555 1_555
N3 C2 1_555 1_555
N4 C11 1_555 1_555
N5 N6 1_555 1_555
N6 C10 1_555 1_555
N7 Cu2 1_555 1_555
N8 N9 1_555 1_555
N9 C13 1_555 1_555
N10 C23 1_555 1_555
N11 N12 1_555 1_555
N12 C22 1_555 1_555
N13 Cu3 1_555 1_555
N14 N15 1_555 1_555
N15 C25 1_555 1_555
N16 C35 1_555 1_555
N17 N18 1_555 1_555
N18 C34 1_555 1_555
N19 C37 1_555 1_555
N20 N21 1_555 1_555
N21 C38 1_555 1_555
N22 C47 1_555 1_555
N23 N24 1_555 1_555
N24 C48 1_555 1_555
C1 N2 1_555 1_555
H1 C1 1_555 1_555
C2 N1 1_555 1_555
H2 C2 1_555 1_555
C3 N3 1_555 1_555
H3 C3 1_555 1_555
H4 C3 1_555 1_555
C4 C3 1_555 1_555
C5 C4 1_555 1_555
H5 C5 1_555 1_555
C6 C5 1_555 1_555
H6 C6 1_555 1_555
C7 C6 1_555 1_555
C8 C7 1_555 1_555
H7 C8 1_555 1_555
C9 C4 1_555 1_555
H8 C9 1_555 1_555
C10 C7 1_555 1_555
H9 C10 1_555 1_555
H10 C10 1_555 1_555
C11 N6 1_555 1_555
H11 C11 1_555 1_555
C12 N4 1_555 1_555
H12 C12 1_555 1_555
C13 N7 1_555 1_555
H13 C13 1_555 1_555
C14 N7 1_555 1_555
H14 C14 1_555 1_555
C15 N9 1_555 1_555
H15 C15 1_555 1_555
H16 C15 1_555 1_555
C16 C15 1_555 1_555
C17 C16 1_555 1_555
H17 C17 1_555 1_555
C18 C16 1_555 1_555
H18 C18 1_555 1_555
C19 C18 1_555 1_555
H19 C19 1_555 1_555
C20 C19 1_555 1_555
C21 C17 1_555 1_555
H20 C21 1_555 1_555
C22 C20 1_555 1_555
H21 C22 1_555 1_555
H22 C22 1_555 1_555
C23 N11 1_555 1_555
H23 C23 1_555 1_555
C24 N10 1_555 1_555
H24 C24 1_555 1_555
C25 N13 1_555 1_555
H25 C25 1_555 1_555
C26 N13 1_555 1_555
H26 C26 1_555 1_555
C27 N14 1_555 1_555
H27 C27 1_555 1_555
H28 C27 1_555 1_555
C28 C27 1_555 1_555
C29 C28 1_555 1_555
H29 C29 1_555 1_555
C30 C29 1_555 1_555
H30 C30 1_555 1_555
C31 C30 1_555 1_555
C32 C31 1_555 1_555
H31 C32 1_555 1_555
C33 C28 1_555 1_555
H32 C33 1_555 1_555
C34 C31 1_555 1_555
H33 C34 1_555 1_555
H34 C34 1_555 1_555
C35 N18 1_555 1_555
H35 C35 1_555 1_555
C36 N16 1_555 1_555
H36 C36 1_555 1_555
C37 N20 1_555 1_555
H37 C37 1_555 1_555
C38 N19 1_555 1_555
H38 C38 1_555 1_555
C39 N20 1_555 1_555
H39 C39 1_555 1_555
H40 C39 1_555 1_555
C40 C39 1_555 1_555
C41 C40 1_555 1_555
H41 C41 1_555 1_555
C42 C41 1_555 1_555
H42 C42 1_555 1_555
C43 C42 1_555 1_555
C44 C43 1_555 1_555
H43 C44 1_555 1_555
C45 C40 1_555 1_555
H44 C45 1_555 1_555
C46 N23 1_555 1_555
H45 C46 1_555 1_555
H46 C46 1_555 1_555
C47 N23 1_555 1_555
H47 C47 1_555 1_555
C48 N22 1_555 1_555
H48 C48 1_555 1_555
Mo1A O4 1_555 1_555
Mo2A O4 1_555 1_555
Mo3A O8 1_555 1_555
Mo4A O5 1_555 1_555
Mo5A O17A 1_555 1_555
Mo6A O16A 1_555 1_555
Mo7A O20 1_555 1_555
Mo8A O20 1_555 1_555
Cu1_2 N1_2 1_555 1_555
Cu1_3 N4 1_555 1_555
Cu2A O16A 1_555 1_555
Cu2_2 N10 1_555 1_555
Cu2_3 N7_2 1_555 1_555
Cu3A O7A 1_555 1_555
Cu3_2 N16 1_555 1_555
Cu3_3 N13_2 1_555 1_555
Cu4_2 N19A 1_555 1_555
O1A Mo1A 1_555 1_555
O3A Mo1A 1_555 1_555
O4A Mo1 1_555 1_555
O5A Mo4 1_555 1_555
O6A Mo4 1_555 1_555
O7A Mo3A 1_555 1_555
O8A Mo3 1_555 1_555
O9A Mo2A 1_555 1_555
O10A Mo4A 1_555 1_555
O11A Mo3 1_555 1_555
O12A Mo3A 1_555 1_555
O13A Mo4A 1_555 1_555
O14A Mo2A 1_555 1_555
O15A Mo7A 1_555 1_555
O16A Mo7 1_555 1_555
O17A Mo7A 1_555 1_555
O18A Mo6A 1_555 1_555
O19A Mo8A 1_555 1_555
O20A Mo7 1_555 1_555
O21A Mo8 1_555 1_555
O22A Mo5A 1_555 1_555
O23A Mo8A 1_555 1_555
O24A Mo5A 1_555 1_555
O25A Mo5A 1_555 1_555
O26A Mo6A 1_555 1_555
O27A Mo5A 1_555 1_555
N1_2 C1_2 1_555 1_555
N2_2 N3_2 1_555 1_555
N3_2 C2_2 1_555 1_555
N4_2 Cu1 1_555 1_555
N4_3 Cu1_2 1_555 1_555
N5_2 N6_2 1_555 1_555
N6_2 C10_2 1_555 1_555
N7_2 C13_2 1_555 1_555
N7A Cu2A 1_555 1_555
N8_2 N9_2 1_555 1_555
N9_2 C13_2 1_555 1_555
N10_2 Cu2 1_555 1_555
N10A Cu2A 1_555 1_555
N11_2 N12_2 1_555 1_555
N12_2 C22_2 1_555 1_555
N13_2 C25_2 1_555 1_555
N13A Cu3A 1_555 1_555
N14_2 N15_2 1_555 1_555
N15_2 C25_2 1_555 1_555
N16_2 Cu3 1_555 1_555
N16A Cu3A 1_555 1_555
N17_2 N18_2 1_555 1_555
N18_2 C34_2 1_555 1_555
N19A C37A 1_555 1_555
N19A_2 Cu4 1_555 1_555
N20A N21A 1_555 1_555
N21A C38A 1_555 1_555
N22A Cu5 1_555 1_555
N23A N24A 1_555 1_555
N24A C48A 1_555 1_555
C1_2 N2_2 1_555 1_555
H1_2 C1_2 1_555 1_555
C2_2 N1_2 1_555 1_555
H2_2 C2_2 1_555 1_555
C3_2 N3_2 1_555 1_555
H3_2 C3_2 1_555 1_555
H4_2 C3_2 1_555 1_555
C4_2 C3_2 1_555 1_555
C5_2 C4_2 1_555 1_555
H5_2 C5_2 1_555 1_555
C6_2 C5_2 1_555 1_555
H6_2 C6_2 1_555 1_555
C7_2 C6_2 1_555 1_555
C8_2 C7_2 1_555 1_555
H7_2 C8_2 1_555 1_555
C9_2 C4_2 1_555 1_555
H8_2 C9_2 1_555 1_555
C10_2 C7_2 1_555 1_555
H9_2 C10_2 1_555 1_555
H10_2 C10_2 1_555 1_555
C11_2 N4_2 1_555 1_555
H11_2 C11_2 1_555 1_555
C12_2 N4_2 1_555 1_555
H12_2 C12_2 1_555 1_555
C13_2 H13_2 1_555 1_555
C14_2 N7_2 1_555 1_555
H14_2 C14_2 1_555 1_555
C15_2 N9_2 1_555 1_555
H15_2 C15_2 1_555 1_555
H16_2 C15_2 1_555 1_555
C16_2 C15_2 1_555 1_555
C17_2 C16_2 1_555 1_555
H17_2 C17_2 1_555 1_555
C18_2 C16_2 1_555 1_555
H18_2 C18_2 1_555 1_555
C19_2 C18_2 1_555 1_555
H19_2 C19_2 1_555 1_555
C20_2 C19_2 1_555 1_555
C21_2 C17_2 1_555 1_555
H20_2 C21_2 1_555 1_555
C22_2 C20_2 1_555 1_555
H21_2 C22_2 1_555 1_555
H22_2 C22_2 1_555 1_555
C23_2 N10_2 1_555 1_555
H23_2 C23_2 1_555 1_555
C24_2 N10_2 1_555 1_555
H24_2 C24_2 1_555 1_555
C25_2 H25_2 1_555 1_555
C26_2 N13_2 1_555 1_555
H26_2 C26_2 1_555 1_555
C27_2 N14_2 1_555 1_555
H27_2 C27_2 1_555 1_555
H28_2 C27_2 1_555 1_555
C28_2 C27_2 1_555 1_555
C29_2 C28_2 1_555 1_555
H29_2 C29_2 1_555 1_555
C30_2 C29_2 1_555 1_555
H30_2 C30_2 1_555 1_555
C31_2 C30_2 1_555 1_555
C32_2 C31_2 1_555 1_555
H31_2 C32_2 1_555 1_555
C33_2 C28_2 1_555 1_555
H32_2 C33_2 1_555 1_555
C34_2 C31_2 1_555 1_555
H33_2 C34_2 1_555 1_555
H34_2 C34_2 1_555 1_555
C35_2 N16_2 1_555 1_555
H35_2 C35_2 1_555 1_555
C36_2 N16_2 1_555 1_555
H36_2 C36_2 1_555 1_555
C37A N20A 1_555 1_555
H37A C37A 1_555 1_555
C38A N19A 1_555 1_555
H38A C38A 1_555 1_555
C39A N20A 1_555 1_555
H39A C39A 1_555 1_555
H40A C39A 1_555 1_555
C40A C39A 1_555 1_555
C41A C40A 1_555 1_555
H41A C41A 1_555 1_555
C42A C41A 1_555 1_555
H42A C42A 1_555 1_555
C43A C42A 1_555 1_555
C44A C43A 1_555 1_555
H43A C44A 1_555 1_555
C45A C40A 1_555 1_555
H44A C45A 1_555 1_555
C46A N23A 1_555 1_555
H45A C46A 1_555 1_555
H46A C46A 1_555 1_555
C47A N22A 1_555 1_555
H47A C47A 1_555 1_555
C48A N22A 1_555 1_555
H48A C48A 1_555 1_555
Mo2 O4A 1_555 1_555
Mo3 O6 1_555 1_555
Mo4 O8 1_555 1_555
Mo6 O27 1_555 1_555
Mo7 O20 1_555 1_555
Mo7 O27 1_555 1_555
Mo8 O22 1_555 1_555
Mo8 O20A 1_555 1_555
O6 Mo4A 1_555 1_555
O11 Mo3A 1_555 1_555
O21 Mo8A 1_555 1_555
N5 C12 1_555 1_555
N8 C14 1_555 1_555
N12 C24 1_555 1_555
N14 C26 1_555 1_555
N17 C36 1_555 1_555
C8 C9 1_555 1_555
C20 C21 1_555 1_555
C32 C33 1_555 1_555
C43 C46 1_555 1_555
C44 C45 1_555 1_555
Mo1A O4A 1_555 1_555
Mo1A O6A 1_555 1_555
Mo1A O8A 1_555 1_555
Mo2A O3A 1_555 1_555
Mo2A O5A 1_555 1_555
Mo2A O11A 1_555 1_555
Mo3A O4A 1_555 1_555
Mo3A O6A 1_555 1_555
Mo4A O4A 1_555 1_555
Mo4A O8A 1_555 1_555
Mo6A O20A 1_555 1_555
Mo6A O21A 1_555 1_555
Mo6A O27A 1_555 1_555
Mo7A O20A 1_555 1_555
Mo7A O27A 1_555 1_555
Mo8A O17A 1_555 1_555
Mo8A O22A 1_555 1_555
N5_2 C12_2 1_555 1_555
N6_2 C11_2 1_555 1_555
N8_2 C14_2 1_555 1_555
N11_2 C23_2 1_555 1_555
N12_2 C24_2 1_555 1_555
N14_2 C26_2 1_555 1_555
N17_2 C36_2 1_555 1_555
N18_2 C35_2 1_555 1_555
N23A C47A 1_555 1_555
C8_2 C9_2 1_555 1_555
C20_2 C21_2 1_555 1_555
C32_2 C33_2 1_555 1_555
C43A C46A 1_555 1_555
C44A C45A 1_555 1_555

#END
