
#######################################################################
#
#                 Cambridge Crystallographic Data Centre
#                                CCDC 
#
#######################################################################
#
# If this CIF has been generated from an entry in the Cambridge 
# Structural Database, then it will include bibliographic, chemical, 
# crystal, experimental, refinement or atomic coordinate data resulting 
# from the CCDC's data processing and validation procedures.
#
#######################################################################

data_DUCGOY
_symmetry_cell_setting           triclinic
_symmetry_space_group_name_H-M   'P -1'
_symmetry_Int_Tables_number      2
_space_group_name_Hall           '-P 1'
loop_
_symmetry_equiv_pos_site_id
_symmetry_equiv_pos_as_xyz
1 x,y,z
2 -x,-y,-z
_cell_length_a                   9.2800(19)
_cell_length_b                   10.750(2)
_cell_length_c                   11.890(2)
_cell_angle_alpha                77.91(3)
_cell_angle_beta                 74.46(3)
_cell_angle_gamma                80.58(3)
_cell_volume                     1110.13
loop_
_atom_site_label
_atom_site_type_symbol
_atom_site_fract_x
_atom_site_fract_y
_atom_site_fract_z
Ag1 Ag -0.36350(7) 0.64468(9) 0.71786(7)
Ag2 Ag -1.0000 0.5000 1.0000
N1 N -0.6045(7) 0.6547(6) 0.7788(5)
N2 N -0.8342(7) 0.6071(6) 0.8766(5)
N3 N -0.7088(7) 0.7409(6) 0.7347(5)
N4 N 0.1298(7) 0.4306(7) 0.3306(6)
C1 C 0.0059(10) 0.3831(9) 0.3981(8)
H1 H 0.0075 0.3037 0.4475
N5 N -0.0684(7) 0.5610(6) 0.3122(5)
C2 C -0.6872(9) 0.5741(7) 0.8636(6)
H2 H -0.6460 0.5026 0.9086
C3 C -0.8460(8) 0.7119(8) 0.7941(6)
H3 H -0.9359 0.7573 0.7806
C4 C -0.6636(9) 0.8437(7) 0.6364(6)
H4 H -0.7486 0.8795 0.6024
H5 H -0.6340 0.9110 0.6655
C5 C -0.5348(8) 0.7973(7) 0.5418(6)
C6 C -0.3967(9) 0.8445(7) 0.5169(6)
H6 H -0.371(9) 0.901(7) 0.567(7)
C7 C -0.2764(9) 0.8034(7) 0.4294(7)
C8 C -0.2980(9) 0.7128(8) 0.3670(6)
C9 C -0.4342(10) 0.6669(8) 0.3924(7)
H7 H -0.4476 0.6073 0.3506
C10 C -0.5521(9) 0.7090(8) 0.4801(7)
H8 H -0.650(10) 0.684(8) 0.490(7)
C11 C -0.1696(11) 0.6699(9) 0.2690(7)
H9 H -0.2108 0.6459 0.2107
H10 H -0.1119 0.7411 0.2299
C12 C 0.0770(9) 0.5409(9) 0.2777(9)
H11 H 0.1365 0.5980 0.2220
N6 N -0.1182(9) 0.4567(8) 0.3896(7)
H12 H -0.185(8) 0.829(7) 0.409(6)
Ag1A Ag -1.63650(7) 0.35532(9) 1.28214(7)
Ag1A_2 Ag 0.36350(7) 0.35532(9) 0.28214(7)
Ag1_2 Ag -2.36350(7) 0.64468(9) 1.71786(7)
N1A N -1.3955(7) 0.3453(6) 1.2212(5)
N2A N -1.1658(7) 0.3929(6) 1.1234(5)
N3A N -1.2912(7) 0.2591(6) 1.2653(5)
N4A N -2.1298(7) 0.5694(7) 1.6694(6)
N4A_2 N -0.1298(7) 0.5694(7) 0.6694(6)
N4_2 N -1.8702(7) 0.4306(7) 1.3306(6)
C1A C -2.0059(10) 0.6169(9) 1.6019(8)
H1A H -2.0075 0.6963 1.5525
N5A N -1.9316(7) 0.4390(6) 1.6878(5)
C2A C -1.3128(9) 0.4259(7) 1.1364(6)
H2A H -1.3540 0.4974 1.0914
C3A C -1.1540(8) 0.2881(8) 1.2059(6)
H3A H -1.0641 0.2427 1.2194
C4A C -1.3364(9) 0.1563(7) 1.3636(6)
H4A H -1.2514 0.1205 1.3976
H5A H -1.3660 0.0890 1.3345
C5A C -1.4652(8) 0.2027(7) 1.4582(6)
C6A C -1.6033(9) 0.1555(7) 1.4831(6)
H6A H -1.629(9) 0.099(7) 1.433(7)
C7A C -1.7236(9) 0.1966(7) 1.5706(7)
C8A C -1.7020(9) 0.2872(8) 1.6330(6)
C9A C -1.5658(10) 0.3331(8) 1.6076(7)
H7A H -1.5524 0.3927 1.6494
C10A C -1.4479(9) 0.2910(8) 1.5199(7)
H8A H -1.350(10) 0.316(8) 1.510(7)
C11A C -1.8304(11) 0.3301(9) 1.7310(7)
H9A H -1.7892 0.3541 1.7893
H10A H -1.8881 0.2589 1.7701
C12A C -2.0770(9) 0.4591(9) 1.7223(9)
H11A H -2.1365 0.4020 1.7780
N6A N -1.8818(9) 0.5433(8) 1.6104(7)
H12A H -1.815(8) 0.171(7) 1.591(6)
Mo1 Mo 0.57207(6) 0.98129(6) 0.12749(5)
Mo2 Mo 0.27431(7) 1.19999(6) 0.06445(5)
Mo3 Mo 0.64301(7) 1.22672(6) -0.07799(6)
Mo4 Mo 0.80068(7) 1.04476(7) -0.27633(5)
Ag3 Ag 1.008(3) 0.992(3) -0.008(3)
O1 O 0.5903(6) 1.3873(5) -0.0923(5)
O2 O 0.5171(5) 1.1651(4) 0.0840(4)
O3 O 0.7441(6) 0.9823(5) 0.1517(4)
O4 O 0.5866(5) 0.8086(4) 0.0974(4)
O5 O 0.6446(5) 1.0104(4) -0.0651(4)
O6 O 0.4472(6) 0.9636(5) 0.2667(4)
O7 O 0.2205(6) 1.1351(5) 0.2289(4)
O8 O 0.9630(6) 1.0395(6) -0.2337(5)
O9 O 0.8115(6) 1.2050(6) -0.0405(5)
O10 O 0.7099(6) 1.2084(5) -0.2402(4)
O11 O 0.2677(6) 1.3594(5) 0.0675(5)
O12 O 0.1138(5) 1.1879(5) 0.0236(4)
O13 O 0.8479(7) 1.0694(7) -0.4259(5)
Mo1A Mo 0.42793(6) 1.01871(6) -0.12749(5)
Mo1A_2 Mo 1.42793(6) 1.01871(6) -0.12749(5)
Mo2A Mo 0.72569(7) 0.80001(6) -0.06445(5)
Mo2_2 Mo 1.27431(7) 1.19999(6) 0.06445(5)
Mo3A Mo 0.35699(7) 0.77328(6) 0.07799(6)
Mo3A_2 Mo 1.35699(7) 0.77328(6) 0.07799(6)
Mo4A Mo 0.19932(7) 0.95524(7) 0.27633(5)
Ag3A Ag 0.992(3) 1.008(3) 0.008(3)
Ag3_2 Ag 0.008(3) 0.992(3) -0.008(3)
Ag3A_2 Ag -0.008(3) 1.008(3) 0.008(3)
O1A O 0.4097(6) 0.6127(5) 0.0923(5)
O2A O 0.4829(5) 0.8349(4) -0.0840(4)
O3A O 1.2559(6) 1.0177(5) -0.1517(4)
O3A_2 O 0.2559(6) 1.0177(5) -0.1517(4)
O4A O 0.4134(5) 1.1914(4) -0.0974(4)
O5A O 0.3554(5) 0.9896(4) 0.0651(4)
O6A O 0.5528(6) 1.0364(5) -0.2667(4)
O7A O 0.7795(6) 0.8649(5) -0.2289(4)
O8A O 0.0370(6) 0.9605(6) 0.2337(5)
O8A_2 O 1.0370(6) 0.9605(6) 0.2337(5)
O9A O 1.1885(6) 0.7950(6) 0.0405(5)
O9A_2 O 0.1885(6) 0.7950(6) 0.0405(5)
O10A O 0.2901(6) 0.7916(5) 0.2402(4)
O11A O 0.7323(6) 0.6406(5) -0.0675(5)
O12_2 O 1.1138(5) 1.1879(5) 0.0236(4)
O12A O 0.8862(5) 0.8121(5) -0.0236(4)
O13A O 0.1521(7) 0.9306(7) 0.4259(5)
loop_
_geom_bond_atom_site_label_1
_geom_bond_atom_site_label_2
_geom_bond_site_symmetry_1
_geom_bond_site_symmetry_2
Mo1 O2 1_555 1_555
Mo2 O2 1_555 1_555
Mo3 O1 1_555 1_555
Mo4 O5 1_555 1_555
Ag1 N1 1_555 1_555
Ag2 N2 1_555 1_555
Ag3 O3 1_555 1_555
N1 N3 1_555 1_555
N2 C2 1_555 1_555
N3 C3 1_555 1_555
N4 C1 1_555 1_555
C1 H1 1_555 1_555
N5 C11 1_555 1_555
O2 Mo3 1_555 1_555
O3 Mo1 1_555 1_555
O4 Mo1 1_555 1_555
O5 Mo1 1_555 1_555
O6 Mo1 1_555 1_555
O7 Mo2 1_555 1_555
O8 Mo4 1_555 1_555
O9 Mo3 1_555 1_555
O10 Mo3 1_555 1_555
O11 Mo2 1_555 1_555
O12 Mo2 1_555 1_555
O13 Mo4 1_555 1_555
C2 N1 1_555 1_555
H2 C2 1_555 1_555
C3 N2 1_555 1_555
H3 C3 1_555 1_555
C4 N3 1_555 1_555
H4 C4 1_555 1_555
H5 C4 1_555 1_555
C5 C4 1_555 1_555
C6 C5 1_555 1_555
H6 C6 1_555 1_555
C7 C6 1_555 1_555
C8 C7 1_555 1_555
C9 C8 1_555 1_555
H7 C9 1_555 1_555
C10 C5 1_555 1_555
H8 C10 1_555 1_555
C11 C8 1_555 1_555
H9 C11 1_555 1_555
H10 C11 1_555 1_555
C12 N4 1_555 1_555
H11 C12 1_555 1_555
N6 C1 1_555 1_555
H12 C7 1_555 1_555
Mo1A O5 1_555 1_555
Mo1A_2 O3A 1_555 1_555
Mo2A O4 1_555 1_555
Mo2_2 O12_2 1_555 1_555
Mo3A O4 1_555 1_555
Mo3A_2 O9A 1_555 1_555
Mo4A O6 1_555 1_555
Ag1A N1A 1_555 1_555
Ag1A_2 N4 1_555 1_555
Ag1_2 N4A 1_555 1_555
Ag3A Ag3 1_555 1_555
Ag3_2 O12 1_555 1_555
Ag3A_2 O12 1_555 1_555
N1A N3A 1_555 1_555
N2A Ag2 1_555 1_555
N3A C3A 1_555 1_555
N4A C1A 1_555 1_555
N4A_2 Ag1 1_555 1_555
N4_2 Ag1A 1_555 1_555
C1A H1A 1_555 1_555
N5A C11A 1_555 1_555
O1A Mo3A 1_555 1_555
O2A Mo1A 1_555 1_555
O3A Ag3 1_555 1_555
O3A_2 Mo1A 1_555 1_555
O4A Mo2 1_555 1_555
O5A Mo1 1_555 1_555
O6A Mo4 1_555 1_555
O7A Mo4 1_555 1_555
O8A Mo4A 1_555 1_555
O8A_2 Ag3A 1_555 1_555
O9A Ag3 1_555 1_555
O9A_2 Mo3A 1_555 1_555
O10A Mo3A 1_555 1_555
O11A Mo2A 1_555 1_555
O12_2 Ag3 1_555 1_555
O12A Ag3 1_555 1_555
O13A Mo4A 1_555 1_555
C2A N1A 1_555 1_555
H2A C2A 1_555 1_555
C3A N2A 1_555 1_555
H3A C3A 1_555 1_555
C4A N3A 1_555 1_555
H4A C4A 1_555 1_555
H5A C4A 1_555 1_555
C5A C4A 1_555 1_555
C6A C5A 1_555 1_555
H6A C6A 1_555 1_555
C7A C6A 1_555 1_555
C8A C7A 1_555 1_555
C9A C8A 1_555 1_555
H7A C9A 1_555 1_555
C10A C5A 1_555 1_555
H8A C10A 1_555 1_555
C11A C8A 1_555 1_555
H9A C11A 1_555 1_555
H10A C11A 1_555 1_555
C12A N4A 1_555 1_555
H11A C12A 1_555 1_555
N6A C1A 1_555 1_555
H12A C7A 1_555 1_555
Mo2 O5A 1_555 1_555
Mo3 O5 1_555 1_555
Mo3 O4A 1_555 1_555
Mo4 O10 1_555 1_555
Ag3 O8 1_555 1_555
Ag3 O9 1_555 1_555
N5 C12 1_555 1_555
N5 N6 1_555 1_555
O3 Ag3A 1_555 1_555
O5 Mo2A 1_555 1_555
O7 Mo4A 1_555 1_555
O9 Ag3A 1_555 1_555
C9 C10 1_555 1_555
Mo1A O4A 1_555 1_555
Mo1A O5A 1_555 1_555
Mo1A O6A 1_555 1_555
Mo2A O2A 1_555 1_555
Mo2A O7A 1_555 1_555
Mo2A O12A 1_555 1_555
Mo3A O2A 1_555 1_555
Mo3A O5A 1_555 1_555
Mo4A O5A 1_555 1_555
Mo4A O10A 1_555 1_555
Ag3A O3A 1_555 1_555
Ag3A O9A 1_555 1_555
Ag3A O12_2 1_555 1_555
Ag3A O12A 1_555 1_555
Ag3_2 Ag3A_2 1_555 1_555
Ag3_2 O3A_2 1_555 1_555
Ag3_2 O9A_2 1_555 1_555
Ag3A_2 O3A_2 1_555 1_555
Ag3A_2 O8A 1_555 1_555
Ag3A_2 O9A_2 1_555 1_555
N2A C2A 1_555 1_555
N5A C12A 1_555 1_555
N5A N6A 1_555 1_555
C9A C10A 1_555 1_555

#END
