
#######################################################################
#
#                 Cambridge Crystallographic Data Centre
#                                CCDC 
#
#######################################################################
#
# If this CIF has been generated from an entry in the Cambridge 
# Structural Database, then it will include bibliographic, chemical, 
# crystal, experimental, refinement or atomic coordinate data resulting 
# from the CCDC's data processing and validation procedures.
#
#######################################################################

data_DUCHEP
_symmetry_cell_setting           monoclinic
_symmetry_space_group_name_H-M   'P 21/c'
_symmetry_Int_Tables_number      14
_space_group_name_Hall           '-P 2ybc'
loop_
_symmetry_equiv_pos_site_id
_symmetry_equiv_pos_as_xyz
1 x,y,z
2 -x,1/2+y,1/2-z
3 -x,-y,-z
4 x,1/2-y,1/2+z
_cell_length_a                   8.8900(18)
_cell_length_b                   29.900(6)
_cell_length_c                   8.1800(16)
_cell_angle_alpha                90
_cell_angle_beta                 104.06(3)
_cell_angle_gamma                90
_cell_volume                     2109.19
loop_
_atom_site_label
_atom_site_type_symbol
_atom_site_fract_x
_atom_site_fract_y
_atom_site_fract_z
Mo1 Mo 0.93764(5) 0.077970(15) 0.24364(5)
Mo2 Mo 0.91319(5) -0.043920(14) 0.04540(5)
Mo3 Mo 1.17513(5) 0.002450(16) 0.44881(5)
Zn1 Zn 0.50104(8) 0.09045(2) 0.05998(8)
O1 O 0.8796(4) 0.01731(12) 0.0340(4)
O2 O 1.0106(5) -0.04971(13) 0.2537(5)
O3 O 1.1502(5) 0.03856(13) 0.2536(5)
O4 O 0.7418(5) 0.09113(14) 0.1896(5)
O5 O 1.3097(5) -0.03722(15) 0.4312(5)
O6 O 0.9394(4) 0.03010(13) 0.4043(4)
O7 O 0.7328(5) -0.06686(13) 0.0345(5)
O8 O 0.9975(5) 0.09535(12) 0.0474(5)
O9 O 1.0202(5) 0.11914(15) 0.3775(5)
O10 O 1.2767(5) 0.03768(16) 0.5971(5)
O11 O 0.4750(6) 0.05331(18) 0.2700(6)
O12 O 0.5620(7) 0.03401(18) -0.0693(7)
N1 N 0.4311(7) 0.14887(18) 0.1597(7)
C1 C 0.4904(9) 0.1908(2) 0.1706(9)
H1 H 0.5745 0.1986 0.1275
N2 N 0.3076(6) 0.19426(17) 0.2877(7)
N3 N -0.4582(7) 0.3750(2) 0.3520(7)
C2 C -0.5547(15) 0.3576(7) 0.2219(16)
H2 H -0.6600 0.3540 0.2150
N4 N -0.3422(7) 0.35598(19) 0.1599(6)
C3 C 0.3172(8) 0.1527(2) 0.2367(9)
H3 H 0.2529 0.1294 0.2528
N5 N 0.4190(8) 0.21959(19) 0.2473(8)
C4 C 0.2075(9) 0.2122(2) 0.3903(9)
H4 H 0.2715 0.2252 0.4923
H5 H 0.1483 0.1880 0.4228
C5 C 0.0974(8) 0.2472(2) 0.2975(8)
C6 C -0.0391(10) 0.2359(2) 0.1833(10)
H6 H -0.0621 0.2060 0.1588
C7 C -0.1424(9) 0.2686(3) 0.1049(10)
H7 H -0.2334 0.2603 0.0280
C8 C -0.1112(8) 0.3137(2) 0.1401(8)
C9 C 0.0257(9) 0.3246(2) 0.2520(9)
H8 H 0.0495 0.3546 0.2758
C10 C 0.1289(9) 0.2921(2) 0.3301(9)
H9 H 0.2207 0.3005 0.4055
C11 C -0.2245(9) 0.3495(3) 0.0630(9)
H10 H -0.2750 0.3413 -0.0520
H11 H -0.1693 0.3774 0.0598
N6 N -0.4881(12) 0.3456(6) 0.1006(13)
C12 C -0.3281(9) 0.3755(3) 0.3041(10)
H12 H -0.2366 0.3883 0.3661
Mo2B Mo 1.08681(5) 0.043920(14) -0.04540(5)
Mo3B Mo 0.82487(5) -0.002450(16) 0.55119(5)
Zn1B Zn 0.49896(8) -0.09045(2) -0.05998(8)
Zn1C Zn -0.49896(8) 0.40955(2) 0.55998(8)
O1B O 1.1204(4) -0.01731(12) -0.0340(4)
O3B O 0.8498(5) -0.03856(13) -0.2536(5)
O6B O 1.0606(4) -0.03010(13) 0.5957(4)
O7B O 0.2672(5) 0.06686(13) -0.0345(5)
O8B O 1.0025(5) -0.09535(12) -0.0474(5)
N3C N 0.5418(7) 0.1250(2) -0.1480(7)
loop_
_geom_bond_atom_site_label_1
_geom_bond_atom_site_label_2
_geom_bond_site_symmetry_1
_geom_bond_site_symmetry_2
Mo1 O1 1_555 1_555
Mo2 O1 1_555 1_555
Mo3 O2 1_555 1_555
Zn1 O4 1_555 1_555
O1 Mo2B 1_555 1_555
O2 Mo2 1_555 1_555
O3 Mo1 1_555 1_555
O4 Mo1 1_555 1_555
O5 Mo3 1_555 1_555
O6 Mo1 1_555 1_555
O7 Mo2 1_555 1_555
O8 Mo1 1_555 1_555
O9 Mo1 1_555 1_555
O10 Mo3 1_555 1_555
O11 Zn1 1_555 1_555
O12 Zn1 1_555 1_555
N1 Zn1 1_555 1_555
C1 N1 1_555 1_555
H1 C1 1_555 1_555
N2 C3 1_555 1_555
N3 C2 1_555 1_555
C2 H2 1_555 1_555
N4 C11 1_555 1_555
C3 N1 1_555 1_555
H3 C3 1_555 1_555
N5 C1 1_555 1_555
C4 N2 1_555 1_555
H4 C4 1_555 1_555
H5 C4 1_555 1_555
C5 C4 1_555 1_555
C6 C5 1_555 1_555
H6 C6 1_555 1_555
C7 C6 1_555 1_555
H7 C7 1_555 1_555
C8 C7 1_555 1_555
C9 C8 1_555 1_555
H8 C9 1_555 1_555
C10 C5 1_555 1_555
H9 C10 1_555 1_555
C11 C8 1_555 1_555
H10 C11 1_555 1_555
H11 C11 1_555 1_555
N6 C2 1_555 1_555
C12 N3 1_555 1_555
H12 C12 1_555 1_555
Mo2B O3 1_555 1_555
Mo3B O6 1_555 1_555
Zn1B O7 1_555 1_555
Zn1C N3 1_555 1_555
O1B Mo2 1_555 1_555
O3B Mo2 1_555 1_555
O6B Mo3 1_555 1_555
O7B Zn1 1_555 1_555
O8B Mo2 1_555 1_555
N3C Zn1 1_555 1_555
Mo3 O3 1_555 1_555
Mo3 O6 1_555 1_555
O8 Mo2B 1_555 1_555
N2 N5 1_555 1_555
N4 N6 1_555 1_555
N4 C12 1_555 1_555
C9 C10 1_555 1_555
Mo2B O1B 1_555 1_555
Mo3B O6B 1_555 1_555

#END
