
#######################################################################
#
#                 Cambridge Crystallographic Data Centre
#                                CCDC 
#
#######################################################################
#
# If this CIF has been generated from an entry in the Cambridge 
# Structural Database, then it will include bibliographic, chemical, 
# crystal, experimental, refinement or atomic coordinate data resulting 
# from the CCDC's data processing and validation procedures.
#
#######################################################################

data_DUCHIT
_symmetry_cell_setting           triclinic
_symmetry_space_group_name_H-M   'P -1'
_symmetry_Int_Tables_number      2
_space_group_name_Hall           '-P 1'
loop_
_symmetry_equiv_pos_site_id
_symmetry_equiv_pos_as_xyz
1 x,y,z
2 -x,-y,-z
_cell_length_a                   10.200(2)
_cell_length_b                   12.650(3)
_cell_length_c                   13.108(3)
_cell_angle_alpha                89.62(3)
_cell_angle_beta                 67.54(3)
_cell_angle_gamma                74.70(3)
_cell_volume                     1499.2
loop_
_atom_site_label
_atom_site_type_symbol
_atom_site_fract_x
_atom_site_fract_y
_atom_site_fract_z
Mo1 Mo 0.07194(4) 1.15380(3) 0.69549(3)
Mo2 Mo -0.19295(3) 1.03644(3) 0.73129(2)
Mo3 Mo 0.29604(4) 0.96985(3) 0.48744(3)
Mo4 Mo -0.03467(3) 1.14116(2) 0.47705(2)
Zn1 Zn -0.17554(5) 0.80948(4) 0.93338(4)
O1 O -0.4043(4) 0.8807(3) 0.9631(3)
H1 H -0.429(5) 0.913(4) 0.911(4)
H2 H -0.444(5) 0.899(4) 1.008(4)
O2 O -0.0916(3) 1.2263(2) 0.3937(2)
O3 O -0.2135(4) 0.9404(3) 1.0467(3)
H3 H -0.188(6) 0.890(5) 1.095(5)
H4 H -0.280(6) 0.981(4) 1.084(4)
O4 O -0.1740(3) 0.9252(2) 0.6168(2)
O5 O -0.0079(3) 1.2277(2) 0.5657(2)
O7 O -0.1337(3) 0.9401(2) 0.8088(2)
O8 O -0.1350(3) 1.1591(2) 0.7593(2)
O9 O 0.0417(3) 1.0096(2) 0.58838(19)
O10 O -0.2226(3) 1.1265(2) 0.5848(2)
O11 O -0.3784(3) 1.0838(3) 0.8062(2)
O12 O 0.4597(3) 0.9621(3) 0.3796(3)
O13 O 0.1217(4) 1.0653(3) 0.7820(3)
O14 O 0.3400(4) 0.8817(3) 0.5745(3)
O15 O 0.2506(3) 1.1101(3) 0.5650(2)
O16 O 0.0698(4) 1.2789(3) 0.7429(3)
N1 N -0.2358(4) 0.7033(3) 1.0576(3)
N2 N -0.2970(4) 0.6323(3) 1.2135(3)
N3 N -0.2137(5) 0.5459(4) 1.1356(3)
N4 N -0.8356(4) 0.3554(3) 1.3473(3)
N5 N -0.9478(5) 0.4318(3) 1.3372(3)
N6 N -0.8486(4) 0.2957(3) 1.1978(3)
N7 N 0.0475(4) 0.7699(3) 0.9083(3)
N8 N 0.2778(4) 0.7861(3) 0.8414(3)
N9 N 0.2451(4) 0.7453(3) 0.9413(3)
C1 C -0.3088(5) 0.7249(4) 1.1669(4)
H7 H -0.373(5) 0.786(4) 1.210(3)
C2 C -0.1811(6) 0.5916(4) 1.0431(4)
H8 H -0.1256 0.5517 0.9738
C3 C -0.3552(6) 0.6150(5) 1.3321(4)
H9 H -0.389(6) 0.712(5) 1.369(4)
H10 H -0.266(5) 0.578(4) 1.348(3)
C4 C -0.4672(5) 0.5498(4) 1.3580(3)
C5 C -0.6115(5) 0.6018(4) 1.3761(4)
H11 H -0.639(6) 0.694(5) 1.372(4)
C6 C -0.7164(5) 0.5426(4) 1.4027(4)
H12 H -0.8144 0.5787 1.4163
C7 C -0.6736(4) 0.4299(3) 1.4090(3)
C8 C -0.5278(5) 0.3768(4) 1.3896(3)
H13 H -0.551(7) 0.294(6) 1.407(5)
C9 C -0.4236(5) 0.4369(4) 1.3638(3)
H14 H -0.329(7) 0.381(5) 1.355(4)
C10 C -0.7880(5) 0.3652(4) 1.4386(3)
H15 H -0.899(5) 0.391(4) 1.510(3)
H16 H -0.799(6) 0.292(5) 1.481(4)
C11 C -0.9548(6) 0.3923(4) 1.2467(4)
H17 H -1.0251 0.4270 1.2192
C12 C -0.7780(4) 0.2754(3) 1.2651(3)
H18 H -0.714(4) 0.212(3) 1.263(3)
C13 C 0.1108(5) 0.7366(4) 0.9792(4)
H19 H 0.074(7) 0.710(5) 1.053(5)
C14 C 0.1558(5) 0.8005(4) 0.8247(4)
H20 H 0.138(6) 0.857(5) 0.764(4)
C15 C 0.3519(5) 0.7274(4) 0.9943(4)
H21 H 0.425(5) 0.771(3) 0.950(3)
H22 H 0.310(7) 0.778(5) 1.063(5)
C16 C 0.4259(5) 0.6087(4) 0.9964(3)
C17 C 0.4051(6) 0.5666(5) 1.0966(4)
H23 H 0.308(8) 0.604(6) 1.171(6)
C18 C 0.5219(7) 0.5417(5) 0.8995(4)
H24 H 0.5375 0.5695 0.8313
Mo1A Mo -0.07194(4) 0.84620(3) 0.30451(3)
Mo2A Mo 0.19295(3) 0.96356(3) 0.26871(2)
Mo3A Mo -0.29604(4) 1.03015(3) 0.51256(3)
Mo4A Mo 0.03467(3) 0.85884(2) 0.52295(2)
Zn1A Zn 0.17554(5) 1.19052(4) 0.06662(4)
Zn1A_2 Zn -0.82446(5) 0.19052(4) 1.06662(4)
Zn1A_3 Zn 1.17554(5) 0.19052(4) 1.06662(4)
O1A O -0.5957(4) 0.1193(3) 1.0369(3)
H1A H -0.571(5) 0.087(4) 1.089(4)
H2A H -0.556(5) 0.101(4) 0.992(4)
O2A O 0.0916(3) 0.7737(2) 0.6063(2)
O3A O -0.7865(4) 0.0596(3) 0.9533(3)
H3A H -0.812(6) 0.110(5) 0.905(5)
H4A H -0.720(6) 0.019(4) 0.916(4)
O4A O 0.1740(3) 1.0748(2) 0.3832(2)
O5A O 0.0079(3) 0.7723(2) 0.4343(2)
O7A O 0.1337(3) 1.0599(2) 0.1912(2)
O7A_2 O -0.8663(3) 0.0599(2) 1.1912(2)
O8A O 0.1350(3) 0.8409(2) 0.2407(2)
O9A O -0.0417(3) 0.9904(2) 0.41162(19)
O10A O 0.2226(3) 0.8735(2) 0.4152(2)
O11A O 0.3784(3) 0.9162(3) 0.1938(2)
O12A O -0.4597(3) 1.0379(3) 0.6204(3)
O13A O -0.1217(4) 0.9347(3) 0.2180(3)
O14A O -0.3400(4) 1.1183(3) 0.4255(3)
O15A O -0.2506(3) 0.8899(3) 0.4350(2)
O16A O -0.0698(4) 0.7211(3) 0.2571(3)
N1A N -0.7642(4) 0.2967(3) 0.9424(3)
N2A N -0.7030(4) 0.3677(3) 0.7865(3)
N3A N -0.7863(5) 0.4541(4) 0.8644(3)
N4A N -0.1644(4) 0.6446(3) 0.6527(3)
N5A N -0.0522(5) 0.5682(3) 0.6628(3)
N6A N -0.1514(4) 0.7043(3) 0.8022(3)
N7A N 0.9525(4) 0.2301(3) 1.0917(3)
N7A_2 N -1.0475(4) 0.2301(3) 1.0917(3)
N8A N 0.7222(4) 0.2139(3) 1.1586(3)
N9A N 0.7549(4) 0.2547(3) 1.0587(3)
C1A C -0.6912(5) 0.2751(4) 0.8331(4)
H7A H -0.627(5) 0.214(4) 0.790(3)
C2A C -0.8189(6) 0.4084(4) 0.9569(4)
H8A H -0.8744 0.4483 1.0262
C3A C -0.6448(6) 0.3850(5) 0.6679(4)
H9A H -0.611(6) 0.288(5) 0.631(4)
H10A H -0.734(5) 0.422(4) 0.652(3)
C4A C -0.5328(5) 0.4502(4) 0.6420(3)
C5A C -0.3885(5) 0.3982(4) 0.6239(4)
H11A H -0.361(6) 0.306(5) 0.628(4)
C6A C -0.2836(5) 0.4574(4) 0.5973(4)
H12A H -0.1856 0.4213 0.5837
C7A C -0.3264(4) 0.5701(3) 0.5910(3)
C8A C -0.4722(5) 0.6232(4) 0.6104(3)
H13A H -0.449(7) 0.706(6) 0.593(5)
C9A C -0.5764(5) 0.5631(4) 0.6362(3)
H14A H -0.671(7) 0.619(5) 0.645(4)
C10A C -0.2120(5) 0.6348(4) 0.5614(3)
H15A H -0.101(5) 0.609(4) 0.490(3)
H16A H -0.201(6) 0.708(5) 0.519(4)
C11A C -0.0452(6) 0.6077(4) 0.7533(4)
H17A H 0.0251 0.5730 0.7808
C12A C -0.2220(4) 0.7246(3) 0.7349(3)
H18A H -0.286(4) 0.788(3) 0.737(3)
C13A C 0.8892(5) 0.2634(4) 1.0208(4)
H19A H 0.926(7) 0.290(5) 0.947(5)
C14A C 0.8442(5) 0.1995(4) 1.1753(4)
H20A H 0.862(6) 0.143(5) 1.236(4)
C15A C 0.6481(5) 0.2726(4) 1.0057(4)
H21A H 0.575(5) 0.229(3) 1.050(3)
H22A H 0.690(7) 0.222(5) 0.937(5)
C16A C 0.5741(5) 0.3913(4) 1.0036(3)
C17A C 0.5949(6) 0.4334(5) 0.9034(4)
H23A H 0.692(8) 0.396(6) 0.829(6)
C18A C 0.4781(7) 0.4583(5) 1.1005(4)
H24A H 0.4625 0.4305 1.1687
O6 O 0.4699(4) 0.9166(3) 0.8016(3)
H5 H 0.417(6) 0.884(4) 0.780(4)
H6 H 0.581(10) 0.941(8) 0.732(7)
loop_
_geom_bond_atom_site_label_1
_geom_bond_atom_site_label_2
_geom_bond_site_symmetry_1
_geom_bond_site_symmetry_2
Mo1 O5 1_555 1_555
Mo2 O4 1_555 1_555
Mo3 O9 1_555 1_555
Mo4 O2 1_555 1_555
Zn1 O1 1_555 1_555
O1 H1 1_555 1_555
H2 O1 1_555 1_555
O3 Zn1 1_555 1_555
H3 O3 1_555 1_555
H4 O3 1_555 1_555
O4 Mo3A 1_555 1_555
O5 Mo4 1_555 1_555
O6 H5 1_555 1_555
H6 O6 1_555 1_555
O7 Mo2 1_555 1_555
O8 Mo1 1_555 1_555
O9 Mo1 1_555 1_555
O10 Mo2 1_555 1_555
O11 Mo2 1_555 1_555
O12 Mo3 1_555 1_555
O13 Mo1 1_555 1_555
O14 Mo3 1_555 1_555
O15 Mo1 1_555 1_555
O16 Mo1 1_555 1_555
N1 Zn1 1_555 1_555
N2 N3 1_555 1_555
N3 C2 1_555 1_555
N4 N5 1_555 1_555
N5 C11 1_555 1_555
N6 C11 1_555 1_555
N7 Zn1 1_555 1_555
N8 N9 1_555 1_555
N9 C13 1_555 1_555
C1 N1 1_555 1_555
H7 C1 1_555 1_555
C2 N1 1_555 1_555
H8 C2 1_555 1_555
C3 N2 1_555 1_555
H9 C3 1_555 1_555
H10 C3 1_555 1_555
C4 C3 1_555 1_555
C5 C4 1_555 1_555
H11 C5 1_555 1_555
C6 C5 1_555 1_555
H12 C6 1_555 1_555
C7 C6 1_555 1_555
C8 C7 1_555 1_555
H13 C8 1_555 1_555
C9 C4 1_555 1_555
H14 C9 1_555 1_555
C10 N4 1_555 1_555
H15 C10 1_555 1_555
H16 C10 1_555 1_555
C11 H17 1_555 1_555
C12 N4 1_555 1_555
H18 C12 1_555 1_555
C13 N7 1_555 1_555
H19 C13 1_555 1_555
C14 N7 1_555 1_555
H20 C14 1_555 1_555
C15 N9 1_555 1_555
H21 C15 1_555 1_555
H22 C15 1_555 1_555
C16 C15 1_555 1_555
C17 C16 1_555 1_555
H23 C17 1_555 1_555
C18 C16 1_555 1_555
H24 C18 1_555 1_555
Mo1A O5A 1_555 1_555
Mo2A O4A 1_555 1_555
Mo3A O10 1_555 1_555
Mo4A O4 1_555 1_555
Zn1A O7A 1_555 1_555
Zn1A_2 N6 1_555 1_555
Zn1A_3 N7A 1_555 1_555
O1A Zn1A_2 1_555 1_555
H1A O1A 1_555 1_555
H2A O1A 1_555 1_555
O2A Mo4A 1_555 1_555
O3A Zn1A_2 1_555 1_555
H3A O3A 1_555 1_555
H4A O3A 1_555 1_555
O4A Mo3 1_555 1_555
O5A Mo4A 1_555 1_555
O7A Mo2A 1_555 1_555
O7A_2 Zn1A_2 1_555 1_555
O8A Mo1A 1_555 1_555
O9A Mo4 1_555 1_555
O10A Mo3 1_555 1_555
O11A Mo2A 1_555 1_555
O12A Mo3A 1_555 1_555
O13A Mo1A 1_555 1_555
O14A Mo3A 1_555 1_555
O15A Mo1A 1_555 1_555
O16A Mo1A 1_555 1_555
N1A Zn1A_2 1_555 1_555
N2A N3A 1_555 1_555
N3A C2A 1_555 1_555
N4A N5A 1_555 1_555
N5A C11A 1_555 1_555
N6A Zn1 1_555 1_555
N7A C13A 1_555 1_555
N7A_2 Zn1A_2 1_555 1_555
N8A N9A 1_555 1_555
N9A C13A 1_555 1_555
C1A N1A 1_555 1_555
H7A C1A 1_555 1_555
C2A N1A 1_555 1_555
H8A C2A 1_555 1_555
C3A N2A 1_555 1_555
H9A C3A 1_555 1_555
H10A C3A 1_555 1_555
C4A C3A 1_555 1_555
C5A C4A 1_555 1_555
H11A C5A 1_555 1_555
C6A C5A 1_555 1_555
H12A C6A 1_555 1_555
C7A C6A 1_555 1_555
C8A C7A 1_555 1_555
H13A C8A 1_555 1_555
C9A C4A 1_555 1_555
H14A C9A 1_555 1_555
C10A N4A 1_555 1_555
H15A C10A 1_555 1_555
H16A C10A 1_555 1_555
C11A N6A 1_555 1_555
H17A C11A 1_555 1_555
C12A N4A 1_555 1_555
H18A C12A 1_555 1_555
C13A H19A 1_555 1_555
C14A N7A 1_555 1_555
H20A C14A 1_555 1_555
C15A N9A 1_555 1_555
H21A C15A 1_555 1_555
H22A C15A 1_555 1_555
C16A C15A 1_555 1_555
C17A C18 1_555 1_555
H23A C17A 1_555 1_555
C18A C17 1_555 1_555
H24A C18A 1_555 1_555
Mo2 O8 1_555 1_555
Mo2 O9 1_555 1_555
Mo3 O15 1_555 1_555
Mo4 O9 1_555 1_555
Mo4 O10 1_555 1_555
Mo4 O4A 1_555 1_555
Zn1 O7 1_555 1_555
O9 Mo4A 1_555 1_555
N2 C1 1_555 1_555
N6 C12 1_555 1_555
N8 C14 1_555 1_555
C7 C10 1_555 1_555
C8 C9 1_555 1_555
Mo1A O9A 1_555 1_555
Mo2A O8A 1_555 1_555
Mo2A O9A 1_555 1_555
Mo2A O10A 1_555 1_555
Mo3A O9A 1_555 1_555
Mo3A O15A 1_555 1_555
Mo4A O9A 1_555 1_555
Mo4A O10A 1_555 1_555
N2A C1A 1_555 1_555
N6A C12A 1_555 1_555
N8A C14A 1_555 1_555
C7A C10A 1_555 1_555
C8A C9A 1_555 1_555
C16A C17A 1_555 1_555
C16A C18A 1_555 1_555

#END
