
#######################################################################
#
#                 Cambridge Crystallographic Data Centre
#                                CCDC 
#
#######################################################################
#
# If this CIF has been generated from an entry in the Cambridge 
# Structural Database, then it will include bibliographic, chemical, 
# crystal, experimental, refinement or atomic coordinate data resulting 
# from the CCDC's data processing and validation procedures.
#
#######################################################################

data_DUCHAL
_symmetry_cell_setting           monoclinic
_symmetry_space_group_name_H-M   'P 21/n'
_symmetry_Int_Tables_number      14
_space_group_name_Hall           '-P 2yn'
loop_
_symmetry_equiv_pos_site_id
_symmetry_equiv_pos_as_xyz
1 x,y,z
2 1/2-x,1/2+y,1/2-z
3 -x,-y,-z
4 1/2+x,1/2-y,1/2+z
_cell_length_a                   12.700(3)
_cell_length_b                   23.150(5)
_cell_length_c                   13.200(3)
_cell_angle_alpha                90
_cell_angle_beta                 108.10(3)
_cell_angle_gamma                90
_cell_volume                     3688.82
loop_
_atom_site_label
_atom_site_type_symbol
_atom_site_fract_x
_atom_site_fract_y
_atom_site_fract_z
Mo1 Mo -0.17718(8) 0.10398(4) -0.09457(9)
Mo2 Mo -0.19587(11) -0.01271(6) -0.26294(13)
Mo3 Mo 0.09772(8) 0.03908(4) -0.05190(9)
Mo4 Mo -0.00193(9) 0.11307(5) 0.15074(9)
Ag1 Ag 0.14243(8) 0.26992(5) 0.29995(8)
C1 C 0.0211(10) 0.2821(6) 0.0618(10)
H1 H 0.0127 0.2422 0.0575
C2 C 0.0656(12) 0.3678(6) 0.1221(13)
H2 H 0.0949 0.3984 0.1677
C3 C 0.0163(12) 0.3723(6) 0.0166(12)
H3 H 0.0028 0.4062 -0.0233
C4 C -0.0508(11) 0.2974(6) -0.1327(11)
H4 H -0.0898 0.3286 -0.1779
H5 H -0.1022 0.2656 -0.1389
C5 C 0.0451(11) 0.2780(6) -0.1687(11)
C6 C 0.1031(11) 0.3173(6) -0.2054(11)
H6 H 0.0822 0.3559 -0.2095
C7 C 0.1942(10) 0.3008(7) -0.2377(11)
H7 H 0.2324 0.3283 -0.2641
C8 C 0.2266(10) 0.2438(6) -0.2301(10)
C9 C 0.1670(11) 0.2045(6) -0.1883(11)
H8 H 0.1891 0.1660 -0.1793
C10 C 0.0765(12) 0.2221(6) -0.1604(12)
H9 H 0.0363 0.1951 -0.1354
C11 C 0.3241(11) 0.2263(7) -0.2676(11)
H10 H 0.3772 0.2577 -0.2552
H11 H 0.3608 0.1929 -0.2279
C12 C 0.2575(10) 0.2522(6) -0.4590(12)
H12 H 0.2686 0.2917 -0.4476
C13 C 0.2602(13) 0.1606(6) -0.4310(14)
H13 H 0.2720 0.1247 -0.3976
C14 C 0.2180(11) 0.1691(6) -0.5349(13)
H14 H 0.1948 0.1403 -0.5861
N1 N 0.0662(8) 0.3108(5) 0.1523(8)
N2 N -0.0102(8) 0.3172(5) -0.0211(8)
N3 N 0.2839(8) 0.2129(5) -0.3803(9)
N4 N 0.2139(9) 0.2288(5) -0.5549(9)
O1 O -0.2096(10) 0.0288(5) -0.3685(11)
O2 O 0.0631(7) 0.0490(4) 0.2453(7)
O3 O -0.0586(6) 0.1430(3) 0.0104(6)
O4 O 0.1258(7) 0.0699(4) 0.0749(7)
O5 O -0.1097(10) 0.1255(6) 0.1956(9)
O6 O -0.1927(7) 0.1509(4) -0.1967(7)
O7 O -0.2392(7) 0.0343(4) -0.1687(8)
O8 O 0.1959(7) 0.0587(4) -0.1065(8)
O9 O 0.0894(10) 0.1655(4) 0.2036(9)
O10 O -0.2944(9) -0.0636(5) -0.2993(9)
O11 O -0.0297(8) 0.0626(4) -0.1367(8)
O12 O 0.1001(7) -0.0380(4) -0.0416(7)
O13 O -0.2844(7) 0.1193(4) -0.0488(9)
Mo1B Mo 0.17718(8) -0.10398(4) 0.09457(9)
Mo2B Mo 0.19587(11) 0.01271(6) 0.26294(13)
Mo3B Mo -0.09772(8) -0.03908(4) 0.05190(9)
Mo4B Mo 0.00193(9) -0.11307(5) -0.15074(9)
Ag1C Ag -0.35757(8) 0.23008(5) -0.20005(8)
Ag1B Ag -0.14243(8) -0.26992(5) -0.29995(8)
Ag1A Ag 0.35757(8) -0.23008(5) 0.20005(8)
Ag1_2 Ag 0.14243(8) 0.26992(5) -0.70005(8)
Ag1C_2 Ag -0.35757(8) 0.23008(5) -1.20005(8)
C1C C -0.4789(10) 0.2179(6) -0.4382(10)
H1C H -0.4873 0.2578 -0.4425
C2C C -0.4344(12) 0.1322(6) -0.3779(13)
H2C H -0.4051 0.1016 -0.3323
C3C C -0.4837(12) 0.1277(6) -0.4834(12)
H3C H -0.4972 0.0938 -0.5233
C4C C -0.5508(11) 0.2026(6) -0.6327(11)
H4C H -0.5898 0.1714 -0.6779
H5C H -0.6022 0.2344 -0.6389
C5C C -0.4549(11) 0.2220(6) -0.6687(11)
C6C C -0.3969(11) 0.1827(6) -0.7054(11)
H6C H -0.4178 0.1441 -0.7095
C7C C -0.3058(10) 0.1992(7) -0.7377(11)
H7C H -0.2676 0.1717 -0.7641
C8C C -0.2734(10) 0.2562(6) -0.7301(10)
C9C C -0.3330(11) 0.2955(6) -0.6883(11)
H8C H -0.3109 0.3340 -0.6793
C10C C -0.4235(12) 0.2779(6) -0.6604(12)
H9C H -0.4637 0.3049 -0.6354
C11C C -0.1759(11) 0.2737(7) -0.7676(11)
H10C H -0.1228 0.2423 -0.7552
H11C H -0.1392 0.3071 -0.7279
C12C C -0.2425(10) 0.2478(6) -0.9590(12)
H12C H -0.2314 0.2083 -0.9476
C13C C -0.2398(13) 0.3394(6) -0.9310(14)
H13C H -0.2280 0.3753 -0.8976
C14C C -0.2820(11) 0.3309(6) -1.0349(13)
H14C H -0.3052 0.3597 -1.0861
N1C N -0.4338(8) 0.1892(5) -0.3477(8)
N2C N -0.5102(8) 0.1828(5) -0.5211(8)
N3C N -0.2161(8) 0.2871(5) -0.8803(9)
N4_2 N 0.2139(9) 0.2288(5) 0.4451(9)
N4C N -0.2861(9) 0.2712(5) -0.0549(9)
N4C_2 N -0.2861(9) 0.2712(5) -1.0549(9)
O1B O 0.2096(10) -0.0288(5) 0.3685(11)
O2B O -0.0631(7) -0.0490(4) -0.2453(7)
O3B O 0.0586(6) -0.1430(3) -0.0104(6)
O4B O -0.1258(7) -0.0699(4) -0.0749(7)
O5B O 0.1097(10) -0.1255(6) -0.1956(9)
O6C O 0.3073(7) 0.3491(4) 0.3033(7)
O6B O 0.1927(7) -0.1509(4) 0.1967(7)
O7B O 0.2392(7) -0.0343(4) 0.1687(8)
O8B O -0.1959(7) -0.0587(4) 0.1065(8)
O9C O -0.4106(10) 0.3345(4) -0.2964(9)
O9B O -0.0894(10) -0.1655(4) -0.2036(9)
O10B O 0.2944(9) 0.0636(5) 0.2993(9)
O11B O 0.0297(8) -0.0626(4) 0.1367(8)
O12B O -0.1001(7) 0.0380(4) 0.0416(7)
O13B O 0.2844(7) -0.1193(4) 0.0488(9)
Ag2 Ag 0.32047(12) 0.51516(6) -0.18293(13)
C15 C 0.5137(11) 0.6040(6) -0.1279(13)
H15 H 0.5068 0.6091 -0.1996
C16 C 0.4906(13) 0.5734(6) 0.0145(13)
H16 H 0.4634 0.5537 0.0625
C17 C 0.5731(14) 0.6127(7) 0.0419(12)
H17 H 0.6141 0.6239 0.1104
C18 C 0.6590(11) 0.6784(7) -0.0636(13)
H18 H 0.6700 0.6737 -0.1327
H19 H 0.7304 0.6731 -0.0098
C19 C 0.6205(10) 0.7387(6) -0.0555(10)
C20 C 0.6795(10) 0.7840(6) -0.0827(11)
H20 H 0.7375 0.7758 -0.1095
C21 C 0.6527(10) 0.8396(6) -0.0704(12)
H21 H 0.6922 0.8691 -0.0897
C22 C 0.5657(11) 0.8538(6) -0.0288(12)
C23 C 0.5114(10) 0.8088(6) -0.0032(11)
H22 H 0.4550 0.8162 0.0262
C24 C 0.5366(11) 0.7522(6) -0.0190(12)
H23 H 0.4940 0.7227 -0.0039
C25 C 0.5374(12) 0.9140(6) -0.0065(14)
H24 H 0.4937 0.9131 0.0421
H25 H 0.6050 0.9352 0.0276
C26 C 0.3646(12) 0.9488(6) -0.1434(14)
H26 H 0.3155 0.9350 -0.1094
C27 C 0.4292(18) 0.9906(8) -0.258(2)
H27 H 0.4342 1.0103 -0.3179
C28 C 0.5130(18) 0.9711(8) -0.179(2)
H28 H 0.5873 0.9755 -0.1733
N5 N 0.4531(9) 0.5668(5) -0.0926(10)
N6 N 0.5839(9) 0.6325(5) -0.0507(9)
N7 N 0.4748(10) 0.9434(5) -0.1050(13)
N8 N 0.3341(11) 0.9765(6) -0.2366(14)
Ag2A Ag 0.17953(12) 1.01516(6) -0.31707(13)
N8A N 0.1659(11) 0.4765(6) -0.2634(14)
loop_
_geom_bond_atom_site_label_1
_geom_bond_atom_site_label_2
_geom_bond_site_symmetry_1
_geom_bond_site_symmetry_2
Mo1 O3 1_555 1_555
Mo2 O1 1_555 1_555
Mo3 O4 1_555 1_555
Mo4 O2 1_555 1_555
Ag1 N1 1_555 1_555
Ag2 N5 1_555 1_555
C1 H1 1_555 1_555
C2 H2 1_555 1_555
C3 C2 1_555 1_555
H3 C3 1_555 1_555
C4 H4 1_555 1_555
H5 C4 1_555 1_555
C5 C4 1_555 1_555
C6 C5 1_555 1_555
H6 C6 1_555 1_555
C7 C6 1_555 1_555
H7 C7 1_555 1_555
C8 C7 1_555 1_555
C9 C8 1_555 1_555
H8 C9 1_555 1_555
C10 C5 1_555 1_555
H9 C10 1_555 1_555
C11 C8 1_555 1_555
H10 C11 1_555 1_555
H11 C11 1_555 1_555
C12 H12 1_555 1_555
C13 H13 1_555 1_555
C14 C13 1_555 1_555
H14 C14 1_555 1_555
C15 H15 1_555 1_555
C16 H16 1_555 1_555
C17 C16 1_555 1_555
H17 C17 1_555 1_555
C18 H18 1_555 1_555
H19 C18 1_555 1_555
C19 C18 1_555 1_555
C20 C19 1_555 1_555
H20 C20 1_555 1_555
C21 C20 1_555 1_555
H21 C21 1_555 1_555
C22 C21 1_555 1_555
C23 C22 1_555 1_555
H22 C23 1_555 1_555
C24 C19 1_555 1_555
H23 C24 1_555 1_555
C25 C22 1_555 1_555
H24 C25 1_555 1_555
H25 C25 1_555 1_555
C26 H26 1_555 1_555
C27 H27 1_555 1_555
C28 C27 1_555 1_555
H28 C28 1_555 1_555
N1 C1 1_555 1_555
N2 C1 1_555 1_555
N3 C11 1_555 1_555
N4 C12 1_555 1_555
N5 C15 1_555 1_555
N6 C15 1_555 1_555
N7 C25 1_555 1_555
N8 C26 1_555 1_555
O2 Mo2B 1_555 1_555
O3 Mo4 1_555 1_555
O4 Mo4 1_555 1_555
O5 Mo4 1_555 1_555
O6 Mo1 1_555 1_555
O7 Mo1 1_555 1_555
O8 Mo3 1_555 1_555
O9 Mo4 1_555 1_555
O10 Mo2 1_555 1_555
O11 Mo1 1_555 1_555
O12 Mo3 1_555 1_555
O13 Mo1 1_555 1_555
Mo1B O12 1_555 1_555
Mo2B O1B 1_555 1_555
Mo3B O4B 1_555 1_555
Mo4B O12 1_555 1_555
Ag1C O6 1_555 1_555
Ag1B O9B 1_555 1_555
Ag1A O6B 1_555 1_555
Ag1_2 N4 1_555 1_555
Ag1C_2 N4C_2 1_555 1_555
Ag2A N8 1_555 1_555
C1C H1C 1_555 1_555
C2C H2C 1_555 1_555
C3C C2C 1_555 1_555
H3C C3C 1_555 1_555
C4C H4C 1_555 1_555
H5C C4C 1_555 1_555
C5C C4C 1_555 1_555
C6C C5C 1_555 1_555
H6C C6C 1_555 1_555
C7C C6C 1_555 1_555
H7C C7C 1_555 1_555
C8C C7C 1_555 1_555
C9C C8C 1_555 1_555
H8C C9C 1_555 1_555
C10C C5C 1_555 1_555
H9C C10C 1_555 1_555
C11C C8C 1_555 1_555
H10C C11C 1_555 1_555
H11C C11C 1_555 1_555
C12C H12C 1_555 1_555
C13C H13C 1_555 1_555
C14C C13C 1_555 1_555
H14C C14C 1_555 1_555
N1C Ag1C 1_555 1_555
N2C C1C 1_555 1_555
N3C C11C 1_555 1_555
N4_2 Ag1 1_555 1_555
N4C Ag1C 1_555 1_555
N4C_2 C12C 1_555 1_555
N8A Ag2 1_555 1_555
O2B Mo2 1_555 1_555
O3B Mo1B 1_555 1_555
O4B Mo4B 1_555 1_555
O5B Mo4B 1_555 1_555
O6C Ag1 1_555 1_555
O6B Mo1B 1_555 1_555
O7B Mo1B 1_555 1_555
O8B Mo3B 1_555 1_555
O9C Ag1C 1_555 1_555
O9B Mo4B 1_555 1_555
O10B Mo2B 1_555 1_555
O11B Mo1B 1_555 1_555
O12B Mo1 1_555 1_555
O13B Mo1B 1_555 1_555
Mo2 O7 1_555 1_555
Mo3 O11 1_555 1_555
Mo4 O12B 1_555 1_555
Ag1 O9 1_555 1_555
C2 N1 1_555 1_555
C3 N2 1_555 1_555
C4 N2 1_555 1_555
C9 C10 1_555 1_555
C12 N3 1_555 1_555
C13 N3 1_555 1_555
C14 N4 1_555 1_555
C16 N5 1_555 1_555
C17 N6 1_555 1_555
C18 N6 1_555 1_555
C23 C24 1_555 1_555
C26 N7 1_555 1_555
C27 N8 1_555 1_555
C28 N7 1_555 1_555
Mo2B O7B 1_555 1_555
Mo3B O11B 1_555 1_555
Mo3B O12B 1_555 1_555
Mo4B O2B 1_555 1_555
Mo4B O3B 1_555 1_555
C1C N1C 1_555 1_555
C2C N1C 1_555 1_555
C3C N2C 1_555 1_555
C4C N2C 1_555 1_555
C9C C10C 1_555 1_555
C12C N3C 1_555 1_555
C13C N3C 1_555 1_555
C14C N4C_2 1_555 1_555

#END
