
#######################################################################
#
#                 Cambridge Crystallographic Data Centre
#                                CCDC 
#
#######################################################################
#
# If this CIF has been generated from an entry in the Cambridge 
# Structural Database, then it will include bibliographic, chemical, 
# crystal, experimental, refinement or atomic coordinate data resulting 
# from the CCDC's data processing and validation procedures.
#
#######################################################################

data_DUCHIS
_symmetry_cell_setting           monoclinic
_symmetry_space_group_name_H-M   'P 1 1 21/b'
_symmetry_Int_Tables_number      14
_space_group_name_Hall           '-P 2bc'
loop_
_symmetry_equiv_pos_site_id
_symmetry_equiv_pos_as_xyz
1 x,y,z
2 -x,1/2-y,1/2+z
3 -x,-y,-z
4 x,1/2+y,1/2-z
_cell_length_a                   8.358(3)
_cell_length_b                   7.457(2)
_cell_length_c                   11.851(3)
_cell_angle_alpha                90
_cell_angle_beta                 90
_cell_angle_gamma                98.77(3)
_cell_volume                     729.985
loop_
_atom_site_label
_atom_site_type_symbol
_atom_site_fract_x
_atom_site_fract_y
_atom_site_fract_z
Cu1 Cu -1.6071(2) -0.6964(3) 0.0591(2)
Cu2 Cu -1.2394(2) -0.6208(3) -0.1664(2)
Cl1 Cl -1.3366(2) -0.6449(5) 0.0219(3)
Cl2 Cl -1.3787(4) -0.4019(4) -0.2432(3)
C1 C -1.1791(20) -0.1317(20) -0.0208(14)
C2 C -1.2827(18) -0.1385(19) 0.0690(14)
C3 C -1.2647(18) -0.2450(20) 0.1765(13)
C4 C -1.1084(19) -0.3161(18) 0.1799(13)
N1 N -0.9853(16) -0.3550(18) 0.1832(12)
Cl2C Cl -1.3787(4) -0.9019(4) -0.2568(3)
Cu1B Cu -1.3929(2) -0.3036(3) -0.0591(2)
Cl1B Cl -1.6634(2) -0.3551(5) -0.0219(3)
Cu2B Cu -0.7606(2) -0.3792(3) 0.1664(2)
Cu1_2 Cu -0.6071(2) -0.6964(3) 0.0591(2)
Cu2C Cu -1.2394(2) -0.1208(3) -0.3336(2)
N1B N -1.0147(16) -0.6450(18) -0.1832(12)
C4B C -0.8916(19) -0.6839(18) -0.1799(13)
C3B C -0.7353(18) -0.7550(20) -0.1765(13)
C2B C -0.7173(18) -0.8615(19) -0.0690(14)
C1B C -0.8209(20) -0.8683(20) 0.0208(14)
Cu2B_2 Cu -1.7606(2) -0.3792(3) 0.1664(2)
Cl2B Cl -1.6213(4) -0.5981(4) 0.2432(3)
C1B_2 C -1.8209(20) -0.8683(20) 0.0208(14)
C2B_2 C -1.7173(18) -0.8615(19) -0.0690(14)
Cu2A Cu -1.7606(2) -0.8792(3) 0.3336(2)
Cl2A Cl -1.6213(4) -0.0981(4) 0.2568(3)
N1_2 N -1.9853(16) -0.3550(18) 0.1832(12)
loop_
_geom_bond_atom_site_label_1
_geom_bond_atom_site_label_2
_geom_bond_site_symmetry_1
_geom_bond_site_symmetry_2
Cu1 Cl1 1_555 1_555
Cu2 Cl1 1_555 1_555
Cl1 Cu1B 1_555 1_555
Cl2 Cu2 1_555 1_555
C1 C2 1_555 1_555
C2 C3 1_555 1_555
C3 C4 1_555 1_555
C4 N1 1_555 1_555
N1 Cu2B 1_555 1_555
Cl2C Cu2 1_555 1_555
Cu1B Cl2 1_555 1_555
Cl1B Cu1 1_555 1_555
Cu1_2 C2B 1_555 1_555
Cu2C Cl2 1_555 1_555
N1B Cu2 1_555 1_555
C4B N1B 1_555 1_555
C3B C4B 1_555 1_555
C2B C3B 1_555 1_555
C1B Cu1_2 1_555 1_555
Cu2B_2 Cl1B 1_555 1_555
Cl2B Cu1 1_555 1_555
C1B_2 Cu1 1_555 1_555
C2B_2 Cu1 1_555 1_555
Cu2A Cl2B 1_555 1_555
Cl2A Cu2B_2 1_555 1_555
N1_2 Cu2B_2 1_555 1_555
C1 Cu1B 1_555 1_555
C2 Cu1B 1_555 1_555
Cu1B Cl1B 1_555 1_555
C2B C1B 1_555 1_555
Cu2B_2 Cl2B 1_555 1_555
C1B_2 C2B_2 1_555 1_555

#END
