
#######################################################################
#
#                 Cambridge Crystallographic Data Centre
#                                CCDC 
#
#######################################################################
#
# If this CIF has been generated from an entry in the Cambridge 
# Structural Database, then it will include bibliographic, chemical, 
# crystal, experimental, refinement or atomic coordinate data resulting 
# from the CCDC's data processing and validation procedures.
#
#######################################################################

data_DUCJOC
_symmetry_cell_setting           orthorhombic
_symmetry_space_group_name_H-M   'C m c a'
_symmetry_Int_Tables_number      64
_space_group_name_Hall           '-C 2ac 2'
loop_
_symmetry_equiv_pos_site_id
_symmetry_equiv_pos_as_xyz
1 x,y,z
2 -x,1/2-y,1/2+z
3 x,-y,-z
4 -x,1/2+y,1/2-z
5 1/2+x,1/2+y,z
6 1/2-x,-y,1/2+z
7 1/2+x,1/2-y,-z
8 1/2-x,y,1/2-z
9 -x,-y,-z
10 x,1/2+y,1/2-z
11 -x,y,z
12 x,1/2-y,1/2+z
13 1/2-x,1/2-y,-z
14 1/2+x,y,1/2-z
15 1/2-x,1/2+y,z
16 1/2+x,-y,1/2+z
_cell_length_a                   31.395(15)
_cell_length_b                   13.702(7)
_cell_length_c                   15.808(8)
_cell_angle_alpha                90
_cell_angle_beta                 90
_cell_angle_gamma                90
_cell_volume                     6800.2
loop_
_atom_site_label
_atom_site_type_symbol
_atom_site_fract_x
_atom_site_fract_y
_atom_site_fract_z
Ni1 Ni 0.0000 0.40331(5) 0.49782(4)
Ni2 Ni 0.2500 0.28651(8) 0.2500
O1 O 0.04435(10) 0.4127(2) 0.40668(19)
O2 O 0.04450(10) 0.5757(2) 0.41373(19)
O3 O 0.18839(12) 0.3149(3) 0.2853(3)
O4 O 0.21500(13) 0.3985(3) 0.1796(3)
N1 N 0.0000 0.5829(4) 0.2439(3)
N2 N 0.26060(15) 0.1861(4) 0.3445(3)
N3 N 0.0000 0.2568(4) 0.5058(3)
C1 C 0.05456(13) 0.4961(3) 0.3809(3)
C2 C 0.08256(14) 0.5017(3) 0.3037(3)
C3 C 0.11723(14) 0.4381(3) 0.2983(3)
H1 H 0.1207 0.3892 0.3386
C4 C 0.14672(16) 0.4475(4) 0.2328(3)
C5 C 0.1415(2) 0.5213(5) 0.1733(4)
H2 H 0.1615 0.5298 0.1306
C6 C 0.1066(2) 0.5815(4) 0.1778(4)
H3 H 0.1030 0.6294 0.1368
C7 C 0.07619(17) 0.5731(4) 0.2424(3)
C8 C 0.18502(17) 0.3827(4) 0.2309(3)
C9 C 0.03646(16) 0.6326(4) 0.2421(3)
C10 C 0.0375(2) 0.7347(4) 0.2402(4)
H4 H 0.0634 0.7678 0.2397
C11 C 0.0000 0.7851(6) 0.2394(5)
H5 H 0.0000 0.8530 0.2382
C12 C 0.2324(2) 0.1789(5) 0.4069(4)
H6 H 0.2104 0.2242 0.4092
C13 C 0.2342(2) 0.1075(6) 0.4684(4)
H7 H 0.2133 0.1054 0.5101
C14 C 0.26591(18) 0.0405(4) 0.4686(4)
C15 C 0.2953(3) 0.0508(7) 0.4076(6)
H8 H 0.3180 0.0074 0.4052
C16 C 0.2925(3) 0.1246(7) 0.3482(6)
H9 H 0.3143 0.1308 0.3089
C17 C -0.0344(2) 0.2079(5) 0.5043(7)
H10 H -0.0600 0.2419 0.5022
C18 C -0.0359(3) 0.1069(5) 0.5055(7)
H11 H -0.0621 0.0754 0.5091
C19 C 0.0000 0.0543(4) 0.5016(4)
O1J O -0.04435(10) 0.4127(2) 0.40668(19)
O2J O -0.04450(10) 0.5757(2) 0.41373(19)
O3J O -0.18839(12) 0.3149(3) 0.2853(3)
O4J O -0.21500(13) 0.3985(3) 0.1796(3)
C1J C -0.05456(13) 0.4961(3) 0.3809(3)
C2J C -0.08256(14) 0.5017(3) 0.3037(3)
C3J C -0.11723(14) 0.4381(3) 0.2983(3)
H1J H -0.1207 0.3892 0.3386
C4J C -0.14672(16) 0.4475(4) 0.2328(3)
C5J C -0.1415(2) 0.5213(5) 0.1733(4)
H2J H -0.1615 0.5298 0.1306
C6J C -0.1066(2) 0.5815(4) 0.1778(4)
H3J H -0.1030 0.6294 0.1368
C7J C -0.07619(17) 0.5731(4) 0.2424(3)
C8J C -0.18502(17) 0.3827(4) 0.2309(3)
C9J C -0.03646(16) 0.6326(4) 0.2421(3)
C10J C -0.0375(2) 0.7347(4) 0.2402(4)
H4J H -0.0634 0.7678 0.2397
N2B N 0.26060(15) -0.1861(4) 0.6555(3)
C12B C 0.2324(2) -0.1789(5) 0.5931(4)
H6B H 0.2104 -0.2242 0.5908
C13B C 0.2342(2) -0.1075(6) 0.5316(4)
H7B H 0.2133 -0.1054 0.4899
C14B C 0.26591(18) -0.0405(4) 0.5314(4)
C15B C 0.2953(3) -0.0508(7) 0.5924(6)
H8B H 0.3180 -0.0074 0.5948
C16B C 0.2925(3) -0.1246(7) 0.6518(6)
H9B H 0.3143 -0.1308 0.6911
N3B N 0.0000 -0.2568(4) 0.4942(3)
C17B C -0.0344(2) -0.2079(5) 0.4957(7)
H10B H -0.0600 -0.2419 0.4978
C18B C -0.0359(3) -0.1069(5) 0.4945(7)
H11B H -0.0621 -0.0754 0.4909
C19B C 0.0000 -0.0543(4) 0.4984(4)
C17H C 0.0344(2) -0.2079(5) 0.4957(7)
H10H H 0.0600 -0.2419 0.4978
C18H C 0.0359(3) -0.1069(5) 0.4945(7)
H11H H 0.0621 -0.0754 0.4909
C17J C 0.0344(2) 0.2079(5) 0.5043(7)
H10J H 0.0600 0.2419 0.5022
C18J C 0.0359(3) 0.1069(5) 0.5055(7)
H11J H 0.0621 0.0754 0.5091
Ni1B Ni 0.0000 -0.40331(5) 0.50218(4)
Ni2B Ni 0.2500 -0.28651(8) 0.7500
O1B O 0.04435(10) -0.4127(2) 0.59332(19)
O2B O 0.04450(10) -0.5757(2) 0.58627(19)
O3B O 0.18839(12) -0.3149(3) 0.7147(3)
O4B O 0.21500(13) -0.3985(3) 0.8204(3)
N1B N 0.0000 -0.5829(4) 0.7561(3)
C1B C 0.05456(13) -0.4961(3) 0.6191(3)
C2B C 0.08256(14) -0.5017(3) 0.6963(3)
C3B C 0.11723(14) -0.4381(3) 0.7017(3)
H1B H 0.1207 -0.3892 0.6614
C4B C 0.14672(16) -0.4475(4) 0.7672(3)
C5B C 0.1415(2) -0.5213(5) 0.8267(4)
H2B H 0.1615 -0.5298 0.8694
C6B C 0.1066(2) -0.5815(4) 0.8222(4)
H3B H 0.1030 -0.6294 0.8632
C7B C 0.07619(17) -0.5731(4) 0.7576(3)
C8B C 0.18502(17) -0.3827(4) 0.7691(3)
C9B C 0.03646(16) -0.6326(4) 0.7579(3)
C10B C 0.0375(2) -0.7347(4) 0.7598(4)
H4B H 0.0634 -0.7678 0.7603
C11B C 0.0000 -0.7851(6) 0.7606(5)
H5B H 0.0000 -0.8530 0.7618
O1H O -0.04435(10) -0.4127(2) 0.59332(19)
O2H O -0.04450(10) -0.5757(2) 0.58627(19)
O3H O -0.18839(12) -0.3149(3) 0.7147(3)
O4H O -0.21500(13) -0.3985(3) 0.8204(3)
C1H C -0.05456(13) -0.4961(3) 0.6191(3)
C2H C -0.08256(14) -0.5017(3) 0.6963(3)
C3H C -0.11723(14) -0.4381(3) 0.7017(3)
H1H H -0.1207 -0.3892 0.6614
C4H C -0.14672(16) -0.4475(4) 0.7672(3)
C5H C -0.1415(2) -0.5213(5) 0.8267(4)
H2H H -0.1615 -0.5298 0.8694
C6H C -0.1066(2) -0.5815(4) 0.8222(4)
H3H H -0.1030 -0.6294 0.8632
C7H C -0.07619(17) -0.5731(4) 0.7576(3)
C8H C -0.18502(17) -0.3827(4) 0.7691(3)
C9H C -0.03646(16) -0.6326(4) 0.7579(3)
C10H C -0.0375(2) -0.7347(4) 0.7598(4)
H4H H -0.0634 -0.7678 0.7603
N2G N 0.23940(15) 0.1861(4) 0.1555(3)
C12G C 0.2676(2) 0.1789(5) 0.0931(4)
H6G H 0.2896 0.2242 0.0908
C13G C 0.2658(2) 0.1075(6) 0.0316(4)
H7G H 0.2867 0.1054 -0.0101
C14G C 0.23409(18) 0.0405(4) 0.0314(4)
C15G C 0.2047(3) 0.0508(7) 0.0924(6)
H8G H 0.1820 0.0074 0.0948
C16G C 0.2075(3) 0.1246(7) 0.1518(6)
H9G H 0.1857 0.1308 0.1911
N2E N 0.23940(15) -0.1861(4) -0.1555(3)
C12E C 0.2676(2) -0.1789(5) -0.0931(4)
H6E H 0.2896 -0.2242 -0.0908
C13E C 0.2658(2) -0.1075(6) -0.0316(4)
H7E H 0.2867 -0.1054 0.0101
C14E C 0.23409(18) -0.0405(4) -0.0314(4)
C15E C 0.2047(3) -0.0508(7) -0.0924(6)
H8E H 0.1820 -0.0074 -0.0948
C16E C 0.2075(3) -0.1246(7) -0.1518(6)
H9E H 0.1857 -0.1308 -0.1911
Ni1_2 Ni 0.0000 -0.59669(5) 0.49782(4)
Ni1B_2 Ni 0.0000 0.59669(5) 0.50218(4)
Ni2B_2 Ni 0.2500 -0.28651(8) -0.2500
Ni2H Ni -0.2500 -0.28651(8) 0.7500
Ni2J Ni -0.2500 0.28651(8) 0.2500
O2_2 O 0.04450(10) -0.4243(2) 0.41373(19)
O2B_2 O 0.04450(10) 0.4243(2) 0.58627(19)
O2H_2 O -0.04450(10) 0.4243(2) 0.58627(19)
O2J_2 O -0.04450(10) -0.4243(2) 0.41373(19)
O3E O 0.31161(12) -0.3149(3) 0.7853(3)
O3G O 0.31161(12) 0.3149(3) 0.2147(3)
O4E O 0.28500(13) -0.3985(3) 0.6796(3)
O4G O 0.28500(13) 0.3985(3) 0.3204(3)
N2E_2 N 0.23940(15) -0.1861(4) 0.8445(3)
loop_
_geom_bond_atom_site_label_1
_geom_bond_atom_site_label_2
_geom_bond_site_symmetry_1
_geom_bond_site_symmetry_2
Ni1 O1 1_555 1_555
Ni2 O3 1_555 1_555
O1 C1 1_555 1_555
O2 C1 1_555 1_555
O3 C8 1_555 1_555
O4 Ni2 1_555 1_555
N1 C9 1_555 1_555
N2 Ni2 1_555 1_555
N3 Ni1 1_555 1_555
C1 C2 1_555 1_555
C2 C3 1_555 1_555
C3 H1 1_555 1_555
C4 C3 1_555 1_555
C5 C4 1_555 1_555
H2 C5 1_555 1_555
C6 C5 1_555 1_555
H3 C6 1_555 1_555
C7 C2 1_555 1_555
C8 O4 1_555 1_555
C9 C7 1_555 1_555
C10 C9 1_555 1_555
H4 C10 1_555 1_555
C11 C10 1_555 1_555
H5 C11 1_555 1_555
C12 N2 1_555 1_555
H6 C12 1_555 1_555
C13 C12 1_555 1_555
H7 C13 1_555 1_555
C14 C13 1_555 1_555
C15 C14 1_555 1_555
H8 C15 1_555 1_555
C16 N2 1_555 1_555
H9 C16 1_555 1_555
C17 N3 1_555 1_555
H10 C17 1_555 1_555
C18 C17 1_555 1_555
H11 C18 1_555 1_555
C19 C18 1_555 1_555
O1J Ni1 1_555 1_555
O2J C1J 1_555 1_555
O3J C8J 1_555 1_555
O4J C8J 1_555 1_555
C1J O1J 1_555 1_555
C2J C1J 1_555 1_555
C3J C2J 1_555 1_555
H1J C3J 1_555 1_555
C4J C3J 1_555 1_555
C5J C4J 1_555 1_555
H2J C5J 1_555 1_555
C6J C5J 1_555 1_555
H3J C6J 1_555 1_555
C7J C2J 1_555 1_555
C8J C4J 1_555 1_555
C9J N1 1_555 1_555
C10J C11 1_555 1_555
H4J C10J 1_555 1_555
N2B C12B 1_555 1_555
C12B H6B 1_555 1_555
C13B C12B 1_555 1_555
H7B C13B 1_555 1_555
C14B C14 1_555 1_555
C15B C14B 1_555 1_555
H8B C15B 1_555 1_555
C16B N2B 1_555 1_555
H9B C16B 1_555 1_555
N3B C17B 1_555 1_555
C17B H10B 1_555 1_555
C18B C17B 1_555 1_555
H11B C18B 1_555 1_555
C19B C19 1_555 1_555
C17H N3B 1_555 1_555
H10H C17H 1_555 1_555
C18H C19B 1_555 1_555
H11H C18H 1_555 1_555
C17J N3 1_555 1_555
H10J C17J 1_555 1_555
C18J C19 1_555 1_555
H11J C18J 1_555 1_555
Ni1B N3B 1_555 1_555
Ni2B N2B 1_555 1_555
O1B Ni1B 1_555 1_555
O2B C1B 1_555 1_555
O3B Ni2B 1_555 1_555
O4B Ni2B 1_555 1_555
N1B C9B 1_555 1_555
C1B O1B 1_555 1_555
C2B C1B 1_555 1_555
C3B C2B 1_555 1_555
H1B C3B 1_555 1_555
C4B C3B 1_555 1_555
C5B C4B 1_555 1_555
H2B C5B 1_555 1_555
C6B C5B 1_555 1_555
H3B C6B 1_555 1_555
C7B C2B 1_555 1_555
C8B O3B 1_555 1_555
C9B C7B 1_555 1_555
C10B C9B 1_555 1_555
H4B C10B 1_555 1_555
C11B C10B 1_555 1_555
H5B C11B 1_555 1_555
O1H Ni1B 1_555 1_555
O2H C1H 1_555 1_555
O3H C8H 1_555 1_555
O4H C8H 1_555 1_555
C1H O1H 1_555 1_555
C2H C1H 1_555 1_555
C3H C2H 1_555 1_555
H1H C3H 1_555 1_555
C4H C3H 1_555 1_555
C5H C4H 1_555 1_555
H2H C5H 1_555 1_555
C6H C5H 1_555 1_555
H3H C6H 1_555 1_555
C7H C2H 1_555 1_555
C8H C4H 1_555 1_555
C9H N1B 1_555 1_555
C10H C11B 1_555 1_555
H4H C10H 1_555 1_555
N2G Ni2 1_555 1_555
C12G N2G 1_555 1_555
H6G C12G 1_555 1_555
C13G C12G 1_555 1_555
H7G C13G 1_555 1_555
C14G C13G 1_555 1_555
C15G C14G 1_555 1_555
H8G C15G 1_555 1_555
C16G N2G 1_555 1_555
H9G C16G 1_555 1_555
N2E C12E 1_555 1_555
C12E H6E 1_555 1_555
C13E C12E 1_555 1_555
H7E C13E 1_555 1_555
C14E C14G 1_555 1_555
C15E C14E 1_555 1_555
H8E C15E 1_555 1_555
C16E N2E 1_555 1_555
H9E C16E 1_555 1_555
Ni1_2 O2B 1_555 1_555
Ni1B_2 O2 1_555 1_555
Ni2B_2 N2E 1_555 1_555
Ni2H O3H 1_555 1_555
Ni2J O3J 1_555 1_555
O2_2 Ni1B 1_555 1_555
O2B_2 Ni1 1_555 1_555
O2H_2 Ni1 1_555 1_555
O2J_2 Ni1B 1_555 1_555
O3E Ni2B 1_555 1_555
O3G Ni2 1_555 1_555
O4E Ni2B 1_555 1_555
O4G Ni2 1_555 1_555
N2E_2 Ni2B 1_555 1_555
C4 C8 1_555 1_555
C6 C7 1_555 1_555
C15 C16 1_555 1_555
O2J Ni1B_2 1_555 1_555
O4J Ni2J 1_555 1_555
C6J C7J 1_555 1_555
C7J C9J 1_555 1_555
C9J C10J 1_555 1_555
C13B C14B 1_555 1_555
C15B C16B 1_555 1_555
C18B C19B 1_555 1_555
C17H C18H 1_555 1_555
C17J C18J 1_555 1_555
O4B C8B 1_555 1_555
C4B C8B 1_555 1_555
C6B C7B 1_555 1_555
O2H Ni1_2 1_555 1_555
O4H Ni2H 1_555 1_555
C6H C7H 1_555 1_555
C7H C9H 1_555 1_555
C9H C10H 1_555 1_555
C15G C16G 1_555 1_555
C13E C14E 1_555 1_555
C15E C16E 1_555 1_555

#END
