
#######################################################################
#
#                 Cambridge Crystallographic Data Centre
#                                CCDC 
#
#######################################################################
#
# If this CIF has been generated from an entry in the Cambridge 
# Structural Database, then it will include bibliographic, chemical, 
# crystal, experimental, refinement or atomic coordinate data resulting 
# from the CCDC's data processing and validation procedures.
#
#######################################################################

data_DUCQAU
_symmetry_cell_setting           triclinic
_symmetry_space_group_name_H-M   'P -1'
_symmetry_Int_Tables_number      2
_space_group_name_Hall           '-P 1'
loop_
_symmetry_equiv_pos_site_id
_symmetry_equiv_pos_as_xyz
1 x,y,z
2 -x,-y,-z
_cell_length_a                   6.0367(12)
_cell_length_b                   7.6222(15)
_cell_length_c                   8.9353(18)
_cell_angle_alpha                98.330(4)
_cell_angle_beta                 99.814(3)
_cell_angle_gamma                96.734(4)
_cell_volume                     396.577
loop_
_atom_site_label
_atom_site_type_symbol
_atom_site_fract_x
_atom_site_fract_y
_atom_site_fract_z
Pr1 Pr 1.00780(5) 0.80762(4) 0.29489(3)
C1 C 1.4452(9) 1.0278(7) 0.5703(6)
C2 C 1.0808(10) 0.5659(7) -0.0322(7)
C3 C 0.8789(9) 0.5155(7) 0.5109(6)
O1 O 1.2322(6) 0.9964(5) 0.5514(4)
O2 O 1.5785(7) 1.1009(6) 0.6910(5)
O3 O 1.1296(7) 0.7232(5) 0.0431(5)
O4 O 1.1455(7) 0.5077(5) -0.1515(5)
O5 O 0.8004(7) 0.6413(5) 0.4552(5)
O6 O 0.7818(7) 0.4116(6) 0.5849(5)
O7 O 0.6751(7) 0.8292(7) 0.0928(5)
H1 H 0.5581 0.8534 0.1260
H2 H 0.6299 0.7771 0.0011
O8 O 1.0612(8) 1.0993(6) 0.2071(5)
H3 H 1.1653 1.1872 0.2227
H4 H 0.9752 1.1029 0.1239
Pr1A Pr 1.99220(5) 1.19238(4) 0.70511(3)
Pr1A_2 Pr 0.99220(5) 1.19238(4) 0.70511(3)
Pr1A_3 Pr 0.99220(5) 0.19238(4) -0.29489(3)
Pr1A_4 Pr 0.99220(5) 0.19238(4) 0.70511(3)
Pr1_2 Pr 2.00780(5) 0.80762(4) 0.29489(3)
C1A C 1.5548(9) 0.9722(7) 0.4297(6)
C2A C 0.9192(10) 0.4341(7) 0.0322(7)
C3A C 1.1211(9) 0.4845(7) 0.4891(6)
O1A O 1.7678(6) 1.0036(5) 0.4486(4)
O1A_2 O 0.7678(6) 1.0036(5) 0.4486(4)
O1_2 O 2.2322(6) 0.9964(5) 0.5514(4)
O2A O 1.4215(7) 0.8991(6) 0.3090(5)
O3A O 0.8704(7) 0.2768(5) -0.0431(5)
O3A_2 O 1.8704(7) 1.2768(5) 0.9569(5)
O4A O 0.8545(7) 0.4923(5) 0.1515(5)
O4_2 O 2.1455(7) 1.5077(5) 0.8485(5)
O5A O 1.1996(7) 0.3587(5) 0.5448(5)
O5A_2 O 2.1996(7) 1.3587(5) 0.5448(5)
O6A O 1.2182(7) 0.5884(6) 0.4151(5)
O6_2 O 1.7818(7) 1.4116(6) 0.5849(5)
O7A O 2.3249(7) 1.1708(7) 0.9072(5)
H1A H 2.4419 1.1466 0.8740
H2A H 2.3701 1.2229 0.9989
O8A O 1.9388(8) 0.9007(6) 0.7929(5)
H3A H 1.8347 0.8128 0.7773
H4A H 2.0248 0.8971 0.8761
O9 O 0.4213(9) 0.3694(7) 0.2101(6)
H5 H 0.4103 0.4339 0.2922
H6 H 0.5590 0.3823 0.2031
loop_
_geom_bond_atom_site_label_1
_geom_bond_atom_site_label_2
_geom_bond_site_symmetry_1
_geom_bond_site_symmetry_2
Pr1 O1 1_555 1_555
C1 O1 1_555 1_555
C2 O3 1_555 1_555
C3 O5 1_555 1_555
O1 Pr1A_2 1_555 1_555
O2 C1 1_555 1_555
O3 Pr1 1_555 1_555
O4 C2 1_555 1_555
O5 Pr1 1_555 1_555
O6 C3 1_555 1_555
O7 Pr1 1_555 1_555
H1 O7 1_555 1_555
H2 O7 1_555 1_555
O8 Pr1 1_555 1_555
H3 O8 1_555 1_555
H4 O8 1_555 1_555
O9 H5 1_555 1_555
H6 O9 1_555 1_555
Pr1A O2 1_555 1_555
Pr1A_2 O1A_2 1_555 1_555
Pr1A_3 O4 1_555 1_555
Pr1A_4 O6 1_555 1_555
Pr1_2 O1A 1_555 1_555
C1A C1 1_555 1_555
C2A C2 1_555 1_555
C3A C3 1_555 1_555
O1A Pr1A 1_555 1_555
O1A_2 Pr1 1_555 1_555
O1_2 Pr1A 1_555 1_555
O2A Pr1 1_555 1_555
O3A Pr1A_3 1_555 1_555
O3A_2 Pr1A 1_555 1_555
O4A Pr1 1_555 1_555
O4_2 Pr1A 1_555 1_555
O5A Pr1A_4 1_555 1_555
O5A_2 Pr1A 1_555 1_555
O6A Pr1 1_555 1_555
O6_2 Pr1A 1_555 1_555
O7A Pr1A 1_555 1_555
H1A O7A 1_555 1_555
H2A O7A 1_555 1_555
O8A Pr1A 1_555 1_555
H3A O8A 1_555 1_555
H4A O8A 1_555 1_555
Pr1_2 O1_2 1_555 1_555
C1A O1A 1_555 1_555
C1A O2A 1_555 1_555
C2A O3A 1_555 1_555
C2A O4A 1_555 1_555
C3A O5A 1_555 1_555
C3A O6A 1_555 1_555

#END
