
#######################################################################
#
#                 Cambridge Crystallographic Data Centre
#                                CCDC 
#
#######################################################################
#
# If this CIF has been generated from an entry in the Cambridge 
# Structural Database, then it will include bibliographic, chemical, 
# crystal, experimental, refinement or atomic coordinate data resulting 
# from the CCDC's data processing and validation procedures.
#
#######################################################################

data_DUCQUP
_symmetry_cell_setting           monoclinic
_symmetry_space_group_name_H-M   'P 21/n'
_symmetry_Int_Tables_number      14
_space_group_name_Hall           '-P 2yn'
loop_
_symmetry_equiv_pos_site_id
_symmetry_equiv_pos_as_xyz
1 x,y,z
2 1/2-x,1/2+y,1/2-z
3 -x,-y,-z
4 1/2+x,1/2-y,1/2+z
_cell_length_a                   13.989(3)
_cell_length_b                   9.6728(17)
_cell_length_c                   16.707(3)
_cell_angle_alpha                90
_cell_angle_beta                 108.66(2)
_cell_angle_gamma                90
_cell_volume                     2141.84
loop_
_atom_site_label
_atom_site_type_symbol
_atom_site_fract_x
_atom_site_fract_y
_atom_site_fract_z
Co1 Co 0.50000 0.50000 0.00000
Co2 Co 0.32425(15) 0.4301(2) 0.10226(12)
O1 O 0.4364(13) 0.5379(15) 0.1893(10)
O2 O 0.5600(12) 0.5419(16) 0.1300(9)
O3 O 0.7561(9) 0.9171(17) 0.5220(9)
O4 O 0.8831(10) 0.8635(16) 0.4768(10)
O5 O 0.4006(13) 0.3436(14) 0.0227(14)
O6 O 0.4006(12) 0.2241(15) 0.1315(10)
O7 O 0.2436(16) 0.427(2) 0.1836(14)
O8 O 0.1912(13) 0.317(2) 0.0270(12)
N1 N 0.253(2) 0.433(3) 0.326(2)
C1 C 0.5216(14) 0.566(2) 0.1850(10)
C2 C 0.5524(15) 0.694(3) 0.3232(13)
C3 C 0.5951(14) 0.634(2) 0.2634(11)
C4 C 0.6227(16) 0.754(3) 0.3956(15)
C5 C 0.7225(13) 0.778(2) 0.4003(12)
C6 C 0.7613(17) 0.720(3) 0.3413(13)
C7 C 0.6900(14) 0.656(3) 0.2686(13)
C8 C 0.7933(15) 0.857(2) 0.4753(13)
C9 C 0.4183(15) 0.2332(18) 0.0660(14)
C10 C 0.4559(19) 0.103(2) -0.0518(12)
C11 C 0.506(2) 0.004(2) 0.0856(16)
C12 C 0.4597(12) 0.1111(17) 0.0257(11)
C13 C 0.269(4) 0.472(5) 0.268(2)
C14 C 0.298(5) 0.520(10) 0.401(3)
C15 C 0.174(4) 0.355(8) 0.310(4)
H1 H 0.48330 0.69410 0.31470
H2 H 0.60170 0.77850 0.44110
H3 H 0.82990 0.72340 0.34810
H4 H 0.71180 0.62920 0.22380
H5 H 0.42550 0.17590 -0.08750
H6 H 0.51060 0.00790 0.14220
H7 H 0.27510 0.49040 0.44600
H8 H 0.27930 0.61470 0.38690
H9 H 0.37060 0.51210 0.41760
H10 H 0.15940 0.33620 0.36110
H11 H 0.18610 0.27020 0.28530
H12 H 0.11750 0.40200 0.27080
O5B O 0.5994(13) -0.3436(14) -0.0227(14)
O6B O 0.5994(12) -0.2241(15) -0.1315(10)
C9B C 0.5817(15) -0.2332(18) -0.0660(14)
C10B C 0.5441(19) -0.103(2) 0.0518(12)
C11B C 0.494(2) -0.004(2) -0.0856(16)
C12B C 0.5403(12) -0.1111(17) -0.0257(11)
H5B H 0.57450 -0.17590 0.08750
H6B H 0.48940 -0.00790 -0.14220
Co2B Co 0.67575(15) -0.4301(2) -0.10226(12)
O1B O 0.5636(13) -0.5379(15) -0.1893(10)
O2B O 0.4400(12) -0.5419(16) -0.1300(9)
O3B O 0.2439(9) -0.9171(17) -0.5220(9)
O4B O 0.1169(10) -0.8635(16) -0.4768(10)
O7B O 0.7564(16) -0.427(2) -0.1836(14)
O8B O 0.8088(13) -0.317(2) -0.0270(12)
N1B N 0.747(2) -0.433(3) -0.326(2)
C1B C 0.4784(14) -0.566(2) -0.1850(10)
C2B C 0.4476(15) -0.694(3) -0.3232(13)
C3B C 0.4049(14) -0.634(2) -0.2634(11)
C4B C 0.3773(16) -0.754(3) -0.3956(15)
C5B C 0.2775(13) -0.778(2) -0.4003(12)
C6B C 0.2387(17) -0.720(3) -0.3413(13)
C7B C 0.3100(14) -0.656(3) -0.2686(13)
C8B C 0.2067(15) -0.857(2) -0.4753(13)
C13B C 0.731(4) -0.472(5) -0.268(2)
C14B C 0.702(5) -0.520(10) -0.401(3)
C15B C 0.826(4) -0.355(8) -0.310(4)
H1B H 0.51670 -0.69410 -0.31470
H2B H 0.39830 -0.77850 -0.44110
H3B H 0.17010 -0.72340 -0.34810
H4B H 0.28820 -0.62920 -0.22380
H7B H 0.72490 -0.49040 -0.44600
H8B H 0.72070 -0.61470 -0.38690
H9B H 0.62940 -0.51210 -0.41760
H10B H 0.84060 -0.33620 -0.36110
H11B H 0.81390 -0.27020 -0.28530
H12B H 0.88250 -0.40200 -0.27080
Co1_2 Co 0.50000 -0.50000 0.00000
Co1A Co 0.00000 -1.00000 -0.50000
Co1A_2 Co 1.00000 1.00000 0.50000
Co2A Co 0.17575(15) -1.0699(2) -0.60226(12)
Co2C Co 0.82425(15) 1.0699(2) 0.60226(12)
O2B_2 O 0.4400(12) 0.4581(16) -0.1300(9)
O3A O 0.7439(9) -0.5829(17) -0.0220(9)
O3C O 0.2561(9) 0.5829(17) 0.0220(9)
O4A O 0.6169(10) 0.3635(16) 0.0232(10)
O4C O 0.3831(10) 0.6365(16) -0.0232(10)
O5B_2 O 0.5994(13) 0.6564(14) -0.0227(14)
loop_
_geom_bond_atom_site_label_1
_geom_bond_atom_site_label_2
_geom_bond_site_symmetry_1
_geom_bond_site_symmetry_2
Co1 O2 1_555 1_555
Co2 O1 1_555 1_555
O1 C1 1_555 1_555
O2 C1 1_555 1_555
O3 C8 1_555 1_555
O4 C8 1_555 1_555
O5 Co1 1_555 1_555
O6 Co2 1_555 1_555
O7 Co2 1_555 1_555
O8 Co2 1_555 1_555
N1 C13 1_555 1_555
C1 C3 1_555 1_555
C2 C3 1_555 1_555
C3 C7 1_555 1_555
C4 C2 1_555 1_555
C5 C4 1_555 1_555
C6 C5 1_555 1_555
C7 C6 1_555 1_555
C8 C5 1_555 1_555
C9 O5 1_555 1_555
C10 C12 1_555 1_555
C11 C12 1_555 1_555
C12 C9 1_555 1_555
C13 O7 1_555 1_555
C14 N1 1_555 1_555
C15 N1 1_555 1_555
H1 C2 1_555 1_555
H2 C4 1_555 1_555
H3 C6 1_555 1_555
H4 C7 1_555 1_555
H5 C10 1_555 1_555
H6 C11 1_555 1_555
H7 C14 1_555 1_555
H8 C14 1_555 1_555
H9 C14 1_555 1_555
H10 C15 1_555 1_555
H11 C15 1_555 1_555
H12 C15 1_555 1_555
O5B C9B 1_555 1_555
O6B C9B 1_555 1_555
C9B C12B 1_555 1_555
C10B C11 1_555 1_555
C11B C10 1_555 1_555
C12B C10B 1_555 1_555
H5B C10B 1_555 1_555
H6B C11B 1_555 1_555
Co2B O5B 1_555 1_555
O1B Co2B 1_555 1_555
O2B C1B 1_555 1_555
O3B C8B 1_555 1_555
O4B C8B 1_555 1_555
O7B Co2B 1_555 1_555
O8B Co2B 1_555 1_555
N1B C13B 1_555 1_555
C1B O1B 1_555 1_555
C2B C3B 1_555 1_555
C3B C1B 1_555 1_555
C4B C2B 1_555 1_555
C5B C4B 1_555 1_555
C6B C5B 1_555 1_555
C7B C3B 1_555 1_555
C8B C5B 1_555 1_555
C13B O7B 1_555 1_555
C14B N1B 1_555 1_555
C15B N1B 1_555 1_555
H1B C2B 1_555 1_555
H2B C4B 1_555 1_555
H3B C6B 1_555 1_555
H4B C7B 1_555 1_555
H7B C14B 1_555 1_555
H8B C14B 1_555 1_555
H9B C14B 1_555 1_555
H10B C15B 1_555 1_555
H11B C15B 1_555 1_555
H12B C15B 1_555 1_555
Co1_2 O5B 1_555 1_555
Co1A O4B 1_555 1_555
Co1A_2 O4 1_555 1_555
Co2A O3B 1_555 1_555
Co2C O3 1_555 1_555
O2B_2 Co1 1_555 1_555
O3A Co2B 1_555 1_555
O3C Co2 1_555 1_555
O4A Co1 1_555 1_555
O4C Co1 1_555 1_555
O5B_2 Co1 1_555 1_555
Co2 O5 1_555 1_555
O6 C9 1_555 1_555
O6B Co2B 1_555 1_555
C11B C12B 1_555 1_555
O2B Co1_2 1_555 1_555
C6B C7B 1_555 1_555

#END
