
#######################################################################
#
#                 Cambridge Crystallographic Data Centre
#                                CCDC 
#
#######################################################################
#
# If this CIF has been generated from an entry in the Cambridge 
# Structural Database, then it will include bibliographic, chemical, 
# crystal, experimental, refinement or atomic coordinate data resulting 
# from the CCDC's data processing and validation procedures.
#
#######################################################################

data_DUCREZ
_symmetry_cell_setting           monoclinic
_symmetry_space_group_name_H-M   'C 2/c'
_symmetry_Int_Tables_number      15
_space_group_name_Hall           '-C 2yn'
loop_
_symmetry_equiv_pos_site_id
_symmetry_equiv_pos_as_xyz
1 x,y,z
2 -x,y,1/2-z
3 1/2+x,1/2+y,z
4 1/2-x,1/2+y,1/2-z
5 -x,-y,-z
6 x,-y,1/2+z
7 1/2-x,1/2-y,-z
8 1/2+x,1/2-y,1/2+z
_cell_length_a                   33.231(6)
_cell_length_b                   14.3642(17)
_cell_length_c                   13.823(3)
_cell_angle_alpha                90
_cell_angle_beta                 108.931(16)
_cell_angle_gamma                90
_cell_volume                     6241.33
loop_
_atom_site_label
_atom_site_type_symbol
_atom_site_fract_x
_atom_site_fract_y
_atom_site_fract_z
Nd1 Nd 0.349783(14) 0.43585(3) -0.06095(3)
Pt1 Pt 0.308541(10) 0.775186(19) 0.07657(2)
C1 C 0.3149(3) 0.6590(6) 0.0072(6)
C2 C 0.3302(3) 0.2875(5) -0.2878(6)
C3 C 0.3023(3) 0.8936(6) 0.1443(6)
C4 C 0.2851(3) 0.8356(5) -0.0596(6)
C5 C 0.2743(3) 0.4274(6) 0.0670(7)
H1 H 0.2704 0.4877 0.0410
C6 C 0.2505(3) 0.3991(6) 0.1269(7)
H2 H 0.2307 0.4391 0.1391
C7 C 0.2562(3) 0.3117(7) 0.1679(7)
H3 H 0.2411 0.2918 0.2102
C8 C 0.2849(3) 0.2537(7) 0.1451(7)
H4 H 0.2891 0.1934 0.1709
C9 C 0.3075(3) 0.2860(5) 0.0832(6)
C10 C 0.3394(3) 0.2280(6) 0.0592(6)
C11 C 0.3405(3) 0.1306(7) 0.0718(7)
H5 H 0.3202 0.1003 0.0936
C12 C 0.3719(4) 0.0820(7) 0.0512(9)
H6 H 0.3729 0.0176 0.0582
C13 C 0.4015(4) 0.1255(7) 0.0211(8)
H7 H 0.4231 0.0914 0.0087
C14 C 0.4000(3) 0.2214(6) 0.0084(7)
C15 C 0.4318(3) 0.2724(6) -0.0214(6)
C16 C 0.4697(3) 0.2336(8) -0.0204(8)
H8 H 0.4750 0.1711 -0.0036
C17 C 0.4999(3) 0.2866(10) -0.0443(9)
H9 H 0.5255 0.2604 -0.0442
C18 C 0.4915(3) 0.3766(9) -0.0677(7)
H10 H 0.5112 0.4140 -0.0841
C19 C 0.4530(3) 0.4133(7) -0.0669(7)
H11 H 0.4472 0.4757 -0.0837
N1 N 0.3189(2) 0.5906(5) -0.0313(5)
N2 N 0.3413(2) 0.3263(5) -0.2114(5)
N3 N 0.2968(3) 0.9628(5) 0.1791(7)
N4 N 0.2716(3) 0.8690(5) -0.1384(6)
N5 N 0.4061(2) 0.5440(5) 0.1161(5)
N6 N 0.3027(2) 0.3734(5) 0.0445(5)
N7 N 0.3677(2) 0.2706(4) 0.0232(5)
N8 N 0.4242(2) 0.3633(5) -0.0434(5)
O1 O 0.38212(18) 0.4789(4) 0.1277(4)
O2 O 0.40884(19) 0.5548(4) 0.0286(4)
O3 O 0.4259(2) 0.5928(5) 0.1889(5)
O4 O 0.27728(18) 0.4401(4) -0.1750(4)
H21 H 0.2716 0.4145 -0.2333
H22 H 0.2556 0.4753 -0.1890
O5 O 0.3686(2) 0.5374(4) -0.1855(4)
H23 H 0.3769 0.5937 -0.1773
H24 H 0.3765 0.5152 -0.2334
Nd1E Nd 0.349783(14) 0.56415(3) -0.56095(3)
Nd1E_2 Nd 0.349783(14) 0.56415(3) 0.43905(3)
Pt1E Pt 0.308541(10) 0.224814(19) -0.42343(2)
C1E C 0.3149(3) 0.3410(6) -0.4928(6)
C2E C 0.3302(3) 0.7125(5) 0.2122(6)
C3E C 0.3023(3) 0.1064(6) -0.3557(6)
C4E C 0.2851(3) 0.1644(5) -0.5596(6)
C5E C 0.2743(3) 0.5726(6) -0.4330(7)
H1E H 0.2704 0.5123 -0.4590
C6E C 0.2505(3) 0.6009(6) -0.3731(7)
H2E H 0.2307 0.5609 -0.3609
C7E C 0.2562(3) 0.6883(7) -0.3321(7)
H3E H 0.2411 0.7082 -0.2898
C8E C 0.2849(3) 0.7463(7) -0.3549(7)
H4E H 0.2891 0.8066 -0.3291
C9E C 0.3075(3) 0.7140(5) -0.4168(6)
C10E C 0.3394(3) 0.7720(6) -0.4408(6)
C11E C 0.3405(3) 0.8694(7) -0.4282(7)
H5E H 0.3202 0.8997 -0.4064
C12E C 0.3719(4) 0.9180(7) -0.4488(9)
H6E H 0.3729 0.9824 -0.4418
C13E C 0.4015(4) 0.8745(7) -0.4789(8)
H7E H 0.4231 0.9086 -0.4913
C14E C 0.4000(3) 0.7786(6) -0.4916(7)
C15E C 0.4318(3) 0.7276(6) -0.5214(6)
C16E C 0.4697(3) 0.7664(8) -0.5204(8)
H8E H 0.4750 0.8289 -0.5036
C17E C 0.4999(3) 0.7134(10) -0.5443(9)
H9E H 0.5255 0.7396 -0.5442
C18E C 0.4915(3) 0.6234(9) -0.5677(7)
H10E H 0.5112 0.5860 -0.5841
C19E C 0.4530(3) 0.5867(7) -0.5669(7)
H11E H 0.4472 0.5243 -0.5837
N1E N 0.3189(2) 0.4094(5) -0.5313(5)
N2E N 0.3413(2) 0.6737(5) 0.2886(5)
N2E_2 N 0.3413(2) 0.6737(5) -0.7114(5)
N3E N 0.2968(3) 0.0372(5) -0.3209(7)
N4E N 0.2716(3) 0.1310(5) -0.6384(6)
N5E N 0.4061(2) 0.4560(5) -0.3839(5)
N6E N 0.3027(2) 0.6266(5) -0.4555(5)
N7E N 0.3677(2) 0.7294(4) -0.4768(5)
N8E N 0.4242(2) 0.6367(5) -0.5434(5)
O1E O 0.38212(18) 0.5211(4) -0.3723(4)
O2E O 0.40884(19) 0.4452(4) -0.4714(4)
O3E O 0.4259(2) 0.4072(5) -0.3111(5)
O4E O 0.27728(18) 0.5599(4) -0.6750(4)
H21E H 0.2716 0.5855 -0.7333
H22E H 0.2556 0.5247 -0.6890
O5E O 0.3686(2) 0.4626(4) -0.6855(4)
H23E H 0.3769 0.4063 -0.6773
H24E H 0.3765 0.4848 -0.7334
C20 C 0.5895(4) 0.0801(8) 0.1679(10)
H12 H 0.5883 0.0154 0.1653
C21 C 0.6217(3) 0.1261(8) 0.1448(8)
H13 H 0.6423 0.0937 0.1265
C22 C 0.6220(3) 0.2221(8) 0.1500(8)
H14 H 0.6435 0.2536 0.1340
C23 C 0.5593(3) 0.1288(7) 0.1946(8)
H15 H 0.5373 0.0984 0.2094
C24 C 0.5627(3) 0.2254(6) 0.1988(6)
C25 C 0.5303(3) 0.2810(6) 0.2270(6)
C26 C 0.5314(3) 0.3784(7) 0.2262(7)
H16 H 0.5527 0.4102 0.2100
C27 C 0.5000 0.4252(10) 0.2500
H17 H 0.5000 0.4899 0.2500
N9 N 0.5936(2) 0.2724(5) 0.1765(6)
N10 N 0.5000 0.2344(7) 0.2500
C20A C 0.4105(4) 0.0801(8) 0.3321(10)
H12A H 0.4117 0.0154 0.3347
C21A C 0.3783(3) 0.1261(8) 0.3552(8)
H13A H 0.3577 0.0937 0.3735
C22A C 0.3780(3) 0.2221(8) 0.3500(8)
H14A H 0.3565 0.2536 0.3660
C23A C 0.4407(3) 0.1288(7) 0.3054(8)
H15A H 0.4627 0.0984 0.2906
C24A C 0.4373(3) 0.2254(6) 0.3012(6)
C25A C 0.4697(3) 0.2810(6) 0.2730(6)
C26A C 0.4686(3) 0.3784(7) 0.2738(7)
H16A H 0.4473 0.4102 0.2900
N9A N 0.4064(2) 0.2724(5) 0.3235(6)
C28 C 0.4505(6) 0.8941(11) 0.1457(17)
C29 C 0.4263(8) 0.8338(13) 0.1910(18)
H18 H 0.3967 0.8499 0.1644
H19 H 0.4362 0.8416 0.2639
H20 H 0.4300 0.7701 0.1745
N11 N 0.4708(5) 0.9406(10) 0.1179(14)
loop_
_geom_bond_atom_site_label_1
_geom_bond_atom_site_label_2
_geom_bond_site_symmetry_1
_geom_bond_site_symmetry_2
Nd1 N1 1_555 1_555
Pt1 C1 1_555 1_555
C1 N1 1_555 1_555
C2 N2 1_555 1_555
C3 Pt1 1_555 1_555
C4 Pt1 1_555 1_555
C5 H1 1_555 1_555
C6 C5 1_555 1_555
H2 C6 1_555 1_555
C7 C6 1_555 1_555
H3 C7 1_555 1_555
C8 C7 1_555 1_555
H4 C8 1_555 1_555
C9 C8 1_555 1_555
C10 C9 1_555 1_555
C11 C10 1_555 1_555
H5 C11 1_555 1_555
C12 C11 1_555 1_555
H6 C12 1_555 1_555
C13 C12 1_555 1_555
H7 C13 1_555 1_555
C14 C13 1_555 1_555
C15 C14 1_555 1_555
C16 C15 1_555 1_555
H8 C16 1_555 1_555
C17 C16 1_555 1_555
H9 C17 1_555 1_555
C18 C17 1_555 1_555
H10 C18 1_555 1_555
C19 C18 1_555 1_555
H11 C19 1_555 1_555
C20 H12 1_555 1_555
C21 C20 1_555 1_555
H13 C21 1_555 1_555
C22 C21 1_555 1_555
H14 C22 1_555 1_555
C23 C20 1_555 1_555
H15 C23 1_555 1_555
C24 C23 1_555 1_555
C25 C24 1_555 1_555
C26 C25 1_555 1_555
H16 C26 1_555 1_555
C27 C26 1_555 1_555
H17 C27 1_555 1_555
C28 C29 1_555 1_555
C29 H18 1_555 1_555
H19 C29 1_555 1_555
H20 C29 1_555 1_555
N2 Nd1 1_555 1_555
N3 C3 1_555 1_555
N4 C4 1_555 1_555
N5 O1 1_555 1_555
N6 Nd1 1_555 1_555
N7 Nd1 1_555 1_555
N8 Nd1 1_555 1_555
N9 C22 1_555 1_555
N10 C25 1_555 1_555
N11 C28 1_555 1_555
O1 Nd1 1_555 1_555
O2 Nd1 1_555 1_555
O3 N5 1_555 1_555
O4 Nd1 1_555 1_555
H21 O4 1_555 1_555
H22 O4 1_555 1_555
O5 Nd1 1_555 1_555
H23 O5 1_555 1_555
H24 O5 1_555 1_555
Nd1E N1E 1_555 1_555
Nd1E_2 N2E 1_555 1_555
Pt1E C2 1_555 1_555
C1E Pt1E 1_555 1_555
C2E Pt1 1_555 1_555
C3E Pt1E 1_555 1_555
C4E Pt1E 1_555 1_555
C5E H1E 1_555 1_555
C6E C5E 1_555 1_555
H2E C6E 1_555 1_555
C7E C6E 1_555 1_555
H3E C7E 1_555 1_555
C8E C7E 1_555 1_555
H4E C8E 1_555 1_555
C9E C8E 1_555 1_555
C10E C9E 1_555 1_555
C11E C10E 1_555 1_555
H5E C11E 1_555 1_555
C12E C11E 1_555 1_555
H6E C12E 1_555 1_555
C13E C12E 1_555 1_555
H7E C13E 1_555 1_555
C14E C13E 1_555 1_555
C15E C14E 1_555 1_555
C16E C15E 1_555 1_555
H8E C16E 1_555 1_555
C17E C16E 1_555 1_555
H9E C17E 1_555 1_555
C18E C17E 1_555 1_555
H10E C18E 1_555 1_555
C19E C18E 1_555 1_555
H11E C19E 1_555 1_555
C20A H12A 1_555 1_555
C21A C20A 1_555 1_555
H13A C21A 1_555 1_555
C22A C21A 1_555 1_555
H14A C22A 1_555 1_555
C23A C20A 1_555 1_555
H15A C23A 1_555 1_555
C24A C23A 1_555 1_555
C25A N10 1_555 1_555
C26A C27 1_555 1_555
H16A C26A 1_555 1_555
N1E C1E 1_555 1_555
N2E C2E 1_555 1_555
N2E_2 Nd1E 1_555 1_555
N3E C3E 1_555 1_555
N4E C4E 1_555 1_555
N5E O1E 1_555 1_555
N6E Nd1E 1_555 1_555
N7E Nd1E 1_555 1_555
N8E Nd1E 1_555 1_555
N9A C22A 1_555 1_555
O1E Nd1E 1_555 1_555
O2E Nd1E 1_555 1_555
O3E N5E 1_555 1_555
O4E Nd1E 1_555 1_555
H21E O4E 1_555 1_555
H22E O4E 1_555 1_555
O5E Nd1E 1_555 1_555
H23E O5E 1_555 1_555
H24E O5E 1_555 1_555
C5 N6 1_555 1_555
C9 N6 1_555 1_555
C10 N7 1_555 1_555
C14 N7 1_555 1_555
C15 N8 1_555 1_555
C19 N8 1_555 1_555
C24 N9 1_555 1_555
N5 O2 1_555 1_555
C5E N6E 1_555 1_555
C9E N6E 1_555 1_555
C10E N7E 1_555 1_555
C14E N7E 1_555 1_555
C15E N8E 1_555 1_555
C19E N8E 1_555 1_555
C24A C25A 1_555 1_555
C24A N9A 1_555 1_555
C25A C26A 1_555 1_555
N5E O2E 1_555 1_555

#END
