
#######################################################################
#
#                 Cambridge Crystallographic Data Centre
#                                CCDC 
#
#######################################################################
#
# If this CIF has been generated from an entry in the Cambridge 
# Structural Database, then it will include bibliographic, chemical, 
# crystal, experimental, refinement or atomic coordinate data resulting 
# from the CCDC's data processing and validation procedures.
#
#######################################################################

data_DUCVEE
_symmetry_cell_setting           monoclinic
_symmetry_space_group_name_H-M   'C 2/c'
_symmetry_Int_Tables_number      15
_space_group_name_Hall           '-C 2yn'
loop_
_symmetry_equiv_pos_site_id
_symmetry_equiv_pos_as_xyz
1 x,y,z
2 -x,y,1/2-z
3 1/2+x,1/2+y,z
4 1/2-x,1/2+y,1/2-z
5 -x,-y,-z
6 x,-y,1/2+z
7 1/2-x,1/2-y,-z
8 1/2+x,1/2-y,1/2+z
_cell_length_a                   19.1017(12)
_cell_length_b                   16.2362(10)
_cell_length_c                   21.5575(13)
_cell_angle_alpha                90
_cell_angle_beta                 91.7510(10)
_cell_angle_gamma                90
_cell_volume                     6682.7
loop_
_atom_site_label
_atom_site_type_symbol
_atom_site_fract_x
_atom_site_fract_y
_atom_site_fract_z
Cd1 Cd 1.0000 -0.18232(3) 0.7500
Cd2 Cd 1.0000 0.39859(3) 0.7500
Cd3 Cd 0.782599(17) 0.11497(2) 0.615201(15)
N1 N 0.9226(2) -0.0854(2) 0.70765(17)
O1 O 0.83271(19) 0.1798(2) 0.53075(15)
O2 O 0.88498(18) 0.2957(2) 0.50186(15)
N2 N 0.8507(2) 0.2214(3) 0.65496(18)
O3 O 0.89697(18) -0.1882(2) 0.80716(15)
O4 O 0.79263(18) -0.1348(2) 0.82061(15)
H1 H 0.7684 -0.0971 0.8065
O5 O 0.71708(17) -0.0304(2) 0.77169(16)
C1 C 0.8946(3) -0.3966(3) 0.5975(2)
C2 C 0.8633(3) -0.3731(3) 0.6517(2)
H2 H 0.8197 -0.3942 0.6612
C3 C 0.9152(2) -0.0273(3) 0.6632(2)
N3 N 0.8523(2) 0.0116(2) 0.66266(17)
C4 C 0.8605(2) -0.0834(3) 0.7379(2)
N4 N 0.9193(3) 0.3191(3) 0.69900(19)
C5 C 0.8504(2) -0.1385(3) 0.7912(2)
C6 C 0.7467(2) 0.0044(3) 0.7256(2)
O6 O 0.71785(17) 0.0595(2) 0.69438(16)
C7 C 0.9718(2) -0.0077(3) 0.6203(2)
C8 C 0.8647(2) 0.2456(3) 0.5428(2)
C9 C 0.8967(3) -0.3183(3) 0.6918(2)
H3 H 0.8744 -0.3036 0.7280
C10 C 0.8523(3) 0.2272(3) 0.7693(2)
N5 N 0.9592(2) -0.2853(2) 0.68137(18)
C11 C 0.8748(3) 0.2559(3) 0.7079(2)
C12 C 0.8180(2) -0.0235(3) 0.7103(2)
C13 C 0.9914(3) -0.3107(4) 0.6298(2)
H4 H 1.0359 -0.2906 0.6222
C14 C 0.9218(3) 0.3268(3) 0.6354(2)
C15 C 0.8795(3) 0.2665(3) 0.6088(2)
C16 C 0.9611(3) -0.3653(4) 0.5879(2)
H5 H 0.9853 -0.3813 0.5531
O7 O 0.96599(19) 0.3979(2) 0.54936(15)
H6 H 0.9342 0.3697 0.5343
C17 C 0.9698(3) 0.3870(3) 0.6088(2)
C18 C 0.8039(3) -0.5034(3) 0.5673(2)
H7 H 0.7931 -0.5097 0.6088
C19 C 0.8720(3) -0.4456(3) 0.4883(2)
H8 H 0.9082 -0.4123 0.4751
C20 C 1.0784(3) 0.0267(3) 0.5384(2)
H9 H 1.1136 0.0388 0.5108
C21 C 1.0162(3) -0.0699(3) 0.6014(2)
H10 H 1.0105 -0.1232 0.6162
C22 C 0.9810(2) 0.0724(3) 0.5989(2)
H11 H 0.9522 0.1148 0.6118
C23 C 0.8386(3) 0.1168(4) 0.8425(3)
H12 H 0.8463 0.0623 0.8540
C24 C 0.8646(3) 0.1456(3) 0.7867(2)
H13 H 0.8898 0.1107 0.7615
C25 C 1.0696(3) -0.0528(3) 0.5604(2)
H14 H 1.0992 -0.0947 0.5478
C26 C 0.8019(3) 0.1679(4) 0.8807(2)
H15 H 0.7854 0.1484 0.9181
C27 C 0.8569(2) -0.4491(3) 0.5507(2)
C28 C 0.8153(3) 0.2786(4) 0.8075(2)
H16 H 0.8073 0.3333 0.7965
C29 C 1.0341(3) 0.0873(3) 0.5582(2)
C30 C 0.8331(3) -0.4919(3) 0.4455(2)
H17 H 0.8439 -0.4880 0.4038
C31 C 0.7677(3) -0.5477(3) 0.5222(2)
H18 H 0.7325 -0.5834 0.5344
C32 C 0.7901(3) 0.2475(4) 0.8630(2)
Br1 Br 1.04642(3) 0.19655(3) 0.52754(3)
Br2 Br 0.73206(4) 0.31496(4) 0.91198(3)
N6 N 0.7807(2) -0.5419(3) 0.46152(18)
O8 O 0.6885(2) 0.2041(3) 0.60864(17)
O9 O 0.9241(2) 0.5080(3) 0.7540(2)
O10 O 1.0126(2) 0.4252(3) 0.64230(17)
H19 H 0.917(3) 0.471(3) 0.783(2)
H20 H 0.8815(13) 0.503(4) 0.740(3)
H21 H 0.669(3) 0.210(4) 0.5728(14)
Cd3A Cd 1.217401(17) 0.11497(2) 0.884799(15)
N1A N 1.0774(2) -0.0854(2) 0.79235(17)
O1A O 1.16729(19) 0.1798(2) 0.96925(15)
O2A O 1.11502(18) 0.2957(2) 0.99814(15)
N2A N 1.1493(2) 0.2214(3) 0.84504(18)
O3A O 1.10303(18) -0.1882(2) 0.69284(15)
O4A O 1.20737(18) -0.1348(2) 0.67939(15)
H1A H 1.2316 -0.0971 0.6935
O5A O 1.28292(17) -0.0304(2) 0.72831(16)
C1A C 1.1054(3) -0.3966(3) 0.9025(2)
C2A C 1.1367(3) -0.3731(3) 0.8483(2)
H2A H 1.1803 -0.3942 0.8388
C3A C 1.0848(2) -0.0273(3) 0.8368(2)
N3A N 1.1477(2) 0.0116(2) 0.83734(17)
C4A C 1.1395(2) -0.0834(3) 0.7621(2)
N4A N 1.0807(3) 0.3191(3) 0.80100(19)
C5A C 1.1496(2) -0.1385(3) 0.7088(2)
C6A C 1.2533(2) 0.0044(3) 0.7744(2)
O6A O 1.28215(17) 0.0595(2) 0.80562(16)
C7A C 1.0282(2) -0.0077(3) 0.8797(2)
C8A C 1.1353(2) 0.2456(3) 0.9572(2)
C9A C 1.1033(3) -0.3183(3) 0.8082(2)
H3A H 1.1256 -0.3036 0.7720
C10A C 1.1477(3) 0.2272(3) 0.7307(2)
N5A N 1.0408(2) -0.2853(2) 0.81863(18)
C11A C 1.1252(3) 0.2559(3) 0.7921(2)
C12A C 1.1820(2) -0.0235(3) 0.7897(2)
C13A C 1.0086(3) -0.3107(4) 0.8702(2)
H4A H 0.9641 -0.2906 0.8778
C14A C 1.0782(3) 0.3268(3) 0.8646(2)
C15A C 1.1205(3) 0.2665(3) 0.8912(2)
C16A C 1.0389(3) -0.3653(4) 0.9121(2)
H5A H 1.0147 -0.3813 0.9469
O7A O 1.03401(19) 0.3979(2) 0.95064(15)
H6A H 1.0658 0.3697 0.9657
C17A C 1.0302(3) 0.3870(3) 0.8912(2)
C18A C 1.1961(3) -0.5034(3) 0.9327(2)
H7A H 1.2069 -0.5097 0.8912
C19A C 1.1280(3) -0.4456(3) 1.0117(2)
H8A H 1.0918 -0.4123 1.0249
C20A C 0.9216(3) 0.0267(3) 0.9616(2)
H9A H 0.8864 0.0388 0.9892
C21A C 0.9838(3) -0.0699(3) 0.8986(2)
H10A H 0.9895 -0.1232 0.8838
C22A C 1.0190(2) 0.0724(3) 0.9011(2)
H11A H 1.0478 0.1148 0.8882
C23A C 1.1614(3) 0.1168(4) 0.6575(3)
H12A H 1.1537 0.0623 0.6460
C24A C 1.1354(3) 0.1456(3) 0.7133(2)
H13A H 1.1102 0.1107 0.7385
C25A C 0.9304(3) -0.0528(3) 0.9396(2)
H14A H 0.9008 -0.0947 0.9522
C26A C 1.1981(3) 0.1679(4) 0.6193(2)
H15A H 1.2146 0.1484 0.5819
C27A C 1.1431(2) -0.4491(3) 0.9493(2)
C28A C 1.1847(3) 0.2786(4) 0.6925(2)
H16A H 1.1927 0.3333 0.7035
C29A C 0.9659(3) 0.0873(3) 0.9418(2)
C30A C 1.1669(3) -0.4919(3) 1.0545(2)
H17A H 1.1561 -0.4880 1.0962
C31A C 1.2323(3) -0.5477(3) 0.9778(2)
H18A H 1.2675 -0.5834 0.9656
C32A C 1.2099(3) 0.2475(4) 0.6370(2)
Br1A Br 0.95358(3) 0.19655(3) 0.97246(3)
Br2A Br 1.26794(4) 0.31496(4) 0.58802(3)
N6A N 1.2193(2) -0.5419(3) 1.03848(18)
O8A O 1.3115(2) 0.2041(3) 0.89136(17)
O9A O 1.0759(2) 0.5080(3) 0.7460(2)
O10A O 0.9874(2) 0.4252(3) 0.85770(17)
H19A H 1.083(3) 0.471(3) 0.717(2)
H20A H 1.1185(13) 0.503(4) 0.760(3)
H21A H 1.331(3) 0.210(4) 0.9272(14)
Cd3F Cd 0.717401(17) -0.61497(2) 0.384799(15)
Cd3G Cd 1.282599(17) -0.61497(2) 1.115201(15)
N6F N 0.7193(2) 0.0419(3) 0.53848(18)
N6G N 1.2807(2) 0.0419(3) 0.96152(18)
loop_
_geom_bond_atom_site_label_1
_geom_bond_atom_site_label_2
_geom_bond_site_symmetry_1
_geom_bond_site_symmetry_2
Cd1 N1 1_555 1_555
Cd2 N4 1_555 1_555
Cd3 O1 1_555 1_555
N1 C3 1_555 1_555
O1 C8 1_555 1_555
O2 C8 1_555 1_555
N2 Cd3 1_555 1_555
O3 Cd1 1_555 1_555
O4 H1 1_555 1_555
O5 C6 1_555 1_555
C1 C2 1_555 1_555
C2 H2 1_555 1_555
C3 N3 1_555 1_555
N3 Cd3 1_555 1_555
C4 N1 1_555 1_555
N4 C11 1_555 1_555
C5 O3 1_555 1_555
C6 O6 1_555 1_555
O6 Cd3 1_555 1_555
C7 C3 1_555 1_555
C8 C15 1_555 1_555
C9 C2 1_555 1_555
H3 C9 1_555 1_555
C10 C11 1_555 1_555
N5 Cd1 1_555 1_555
C11 N2 1_555 1_555
C12 N3 1_555 1_555
C13 N5 1_555 1_555
H4 C13 1_555 1_555
C14 N4 1_555 1_555
C15 N2 1_555 1_555
C16 C1 1_555 1_555
H5 C16 1_555 1_555
O7 H6 1_555 1_555
C17 C14 1_555 1_555
C18 H7 1_555 1_555
C19 H8 1_555 1_555
C20 H9 1_555 1_555
C21 C7 1_555 1_555
H10 C21 1_555 1_555
C22 C7 1_555 1_555
H11 C22 1_555 1_555
C23 H12 1_555 1_555
C24 C10 1_555 1_555
H13 C24 1_555 1_555
C25 C20 1_555 1_555
H14 C25 1_555 1_555
C26 C23 1_555 1_555
H15 C26 1_555 1_555
C27 C1 1_555 1_555
C28 C10 1_555 1_555
H16 C28 1_555 1_555
C29 C20 1_555 1_555
C30 C19 1_555 1_555
H17 C30 1_555 1_555
C31 C18 1_555 1_555
H18 C31 1_555 1_555
C32 C26 1_555 1_555
Br1 C29 1_555 1_555
Br2 C32 1_555 1_555
N6 C30 1_555 1_555
O8 Cd3 1_555 1_555
O9 Cd2 1_555 1_555
O10 Cd2 1_555 1_555
H19 O9 1_555 1_555
H20 O9 1_555 1_555
H21 O8 1_555 1_555
Cd3A O1A 1_555 1_555
N1A Cd1 1_555 1_555
O1A C8A 1_555 1_555
O2A C8A 1_555 1_555
N2A Cd3A 1_555 1_555
O3A Cd1 1_555 1_555
O4A H1A 1_555 1_555
O5A C6A 1_555 1_555
C1A C2A 1_555 1_555
C2A H2A 1_555 1_555
C3A N1A 1_555 1_555
N3A Cd3A 1_555 1_555
C4A N1A 1_555 1_555
N4A Cd2 1_555 1_555
C5A O3A 1_555 1_555
C6A O6A 1_555 1_555
O6A Cd3A 1_555 1_555
C7A C3A 1_555 1_555
C8A C15A 1_555 1_555
C9A C2A 1_555 1_555
H3A C9A 1_555 1_555
C10A C11A 1_555 1_555
N5A Cd1 1_555 1_555
C11A N2A 1_555 1_555
C12A N3A 1_555 1_555
C13A N5A 1_555 1_555
H4A C13A 1_555 1_555
C14A N4A 1_555 1_555
C15A N2A 1_555 1_555
C16A C1A 1_555 1_555
H5A C16A 1_555 1_555
O7A H6A 1_555 1_555
C17A C14A 1_555 1_555
C18A H7A 1_555 1_555
C19A H8A 1_555 1_555
C20A H9A 1_555 1_555
C21A C7A 1_555 1_555
H10A C21A 1_555 1_555
C22A C7A 1_555 1_555
H11A C22A 1_555 1_555
C23A H12A 1_555 1_555
C24A C10A 1_555 1_555
H13A C24A 1_555 1_555
C25A C20A 1_555 1_555
H14A C25A 1_555 1_555
C26A C23A 1_555 1_555
H15A C26A 1_555 1_555
C27A C1A 1_555 1_555
C28A C10A 1_555 1_555
H16A C28A 1_555 1_555
C29A C20A 1_555 1_555
C30A C19A 1_555 1_555
H17A C30A 1_555 1_555
C31A C18A 1_555 1_555
H18A C31A 1_555 1_555
C32A C26A 1_555 1_555
Br1A C29A 1_555 1_555
Br2A C32A 1_555 1_555
N6A C30A 1_555 1_555
O8A Cd3A 1_555 1_555
O9A Cd2 1_555 1_555
O10A Cd2 1_555 1_555
H19A O9A 1_555 1_555
H20A O9A 1_555 1_555
H21A O8A 1_555 1_555
Cd3F N6 1_555 1_555
Cd3G N6A 1_555 1_555
N6F Cd3 1_555 1_555
N6G Cd3A 1_555 1_555
O4 C5 1_555 1_555
C4 C5 1_555 1_555
C4 C12 1_555 1_555
C6 C12 1_555 1_555
C9 N5 1_555 1_555
C13 C16 1_555 1_555
C14 C15 1_555 1_555
O7 C17 1_555 1_555
C17 O10 1_555 1_555
C18 C27 1_555 1_555
C19 C27 1_555 1_555
C21 C25 1_555 1_555
C22 C29 1_555 1_555
C23 C24 1_555 1_555
C28 C32 1_555 1_555
C31 N6 1_555 1_555
O4A C5A 1_555 1_555
C3A N3A 1_555 1_555
C4A C5A 1_555 1_555
C4A C12A 1_555 1_555
N4A C11A 1_555 1_555
C6A C12A 1_555 1_555
C9A N5A 1_555 1_555
C13A C16A 1_555 1_555
C14A C15A 1_555 1_555
O7A C17A 1_555 1_555
C17A O10A 1_555 1_555
C18A C27A 1_555 1_555
C19A C27A 1_555 1_555
C21A C25A 1_555 1_555
C22A C29A 1_555 1_555
C23A C24A 1_555 1_555
C28A C32A 1_555 1_555
C31A N6A 1_555 1_555

#END
