
#######################################################################
#
#                 Cambridge Crystallographic Data Centre
#                                CCDC 
#
#######################################################################
#
# If this CIF has been generated from an entry in the Cambridge 
# Structural Database, then it will include bibliographic, chemical, 
# crystal, experimental, refinement or atomic coordinate data resulting 
# from the CCDC's data processing and validation procedures.
#
#######################################################################

data_DUDCEK01
_symmetry_cell_setting           orthorhombic
_symmetry_space_group_name_H-M   'P b a m'
_symmetry_Int_Tables_number      55
_space_group_name_Hall           '-P 2 2ab'
loop_
_symmetry_equiv_pos_site_id
_symmetry_equiv_pos_as_xyz
1 x,y,z
2 1/2-x,1/2+y,z
3 1/2+x,1/2-y,z
4 -x,-y,z
5 -x,-y,-z
6 1/2+x,1/2-y,-z
7 1/2-x,1/2+y,-z
8 x,y,-z
_cell_length_a                   7.865(2)
_cell_length_b                   13.130(2)
_cell_length_c                   16.104(2)
_cell_angle_alpha                90
_cell_angle_beta                 90
_cell_angle_gamma                90
_cell_volume                     1663.02
loop_
_atom_site_label
_atom_site_type_symbol
_atom_site_fract_x
_atom_site_fract_y
_atom_site_fract_z
Mn1 Mn 0.0000 0.0000 0.2503(3)
O3 O 0.0536(2) 0.1703(1) 0.2869(1)
O4 O 0.2365(2) 0.4335(1) 0.2141(1)
N1 N 0.0496(2) 0.1064(1) 0.1298(1)
N2 N 0.0245(3) 0.2098(1) 0.1518(3)
N3 N 0.3222(2) 0.4746(1) 0.3700(1)
N4 N 0.1736(2) 0.4192(1) 0.3497(3)
C1 C 0.1426(3) 0.4022(2) 0.2702(1)
C2 C 0.0235(3) 0.2331(1) 0.2316(1)
C3 C -0.0172(3) 0.3437(1) 0.2515(2)
H5 H 0.169(6) 0.094(3) 0.104(3)
H6 H -0.029(6) 0.098(3) 0.098(3)
H7 H 0.002(7) 0.251(4) 0.113(3)
H8 H 0.285(5) 0.537(3) 0.395(2)
H9 H 0.370(6) 0.444(3) 0.398(3)
H10 H 0.108(6) 0.393(3) 0.388(3)
H11 H -0.076(6) 0.380(3) 0.205(3)
H12 H -0.102(6) 0.344(3) 0.298(3)
O3C O -0.0536(2) -0.1703(1) 0.2869(1)
O4C O -0.2365(2) -0.4335(1) 0.2141(1)
N1C N -0.0496(2) -0.1064(1) 0.1298(1)
N2C N -0.0245(3) -0.2098(1) 0.1518(3)
N3C N -0.3222(2) -0.4746(1) 0.3700(1)
N4C N -0.1736(2) -0.4192(1) 0.3497(3)
C1C C -0.1426(3) -0.4022(2) 0.2702(1)
C2C C -0.0235(3) -0.2331(1) 0.2316(1)
C3C C 0.0172(3) -0.3437(1) 0.2515(2)
H5C H -0.169(6) -0.094(3) 0.104(3)
H6C H 0.029(6) -0.098(3) 0.098(3)
H7C H -0.002(7) -0.251(4) 0.113(3)
H8C H -0.285(5) -0.537(3) 0.395(2)
H9C H -0.370(6) -0.444(3) 0.398(3)
H10C H -0.108(6) -0.393(3) 0.388(3)
H11C H 0.076(6) -0.380(3) 0.205(3)
H12C H 0.102(6) -0.344(3) 0.298(3)
O4A O 0.2635(2) -0.0665(1) 0.2141(1)
O4B O -0.2635(2) 0.0665(1) 0.2141(1)
N3A N 0.1778(2) -0.0254(1) 0.3700(1)
N3B N -0.1778(2) 0.0254(1) 0.3700(1)
Mn1A Mn 0.5000 0.5000 0.2503(3)
Mn1A_2 Mn -0.5000 -0.5000 0.2503(3)
H8A H 0.215(5) 0.037(3) 0.395(2)
H9A H 0.130(6) -0.056(3) 0.398(3)
H8B H -0.215(5) -0.037(3) 0.395(2)
H9B H -0.130(6) 0.056(3) 0.398(3)
Cl1 Cl 0.1169(1) 0.6579(1) 0.0000
Cl2 Cl 0.0939(3) 0.6311(1) 0.5000
O1 O 0.0056(4) 0.1402(2) 0.5000
H1 H 0.129(4) 0.146(6) 0.5000
H2 H -0.048(5) 0.193(5) 0.5000
O2 O 0.2203(4) 0.9317(2) 0.0000
H3 H 0.275(5) 1.003(7) 0.0000
H4 H 0.243(2) 0.867(5) 0.0000
loop_
_geom_bond_atom_site_label_1
_geom_bond_atom_site_label_2
_geom_bond_site_symmetry_1
_geom_bond_site_symmetry_2
Mn1 O3 1_555 1_555
O1 H1 1_555 1_555
O2 H3 1_555 1_555
O3 C2 1_555 1_555
O4 C1 1_555 1_555
N1 Mn1 1_555 1_555
N2 N1 1_555 1_555
N3 N4 1_555 1_555
N4 C1 1_555 1_555
C1 C3 1_555 1_555
C2 N2 1_555 1_555
C3 C2 1_555 1_555
H2 O1 1_555 1_555
H4 O2 1_555 1_555
H5 N1 1_555 1_555
H6 N1 1_555 1_555
H7 N2 1_555 1_555
H8 N3 1_555 1_555
H9 N3 1_555 1_555
H10 N4 1_555 1_555
H11 C3 1_555 1_555
H12 C3 1_555 1_555
O3C Mn1 1_555 1_555
O4C C1C 1_555 1_555
N1C Mn1 1_555 1_555
N2C N1C 1_555 1_555
N3C N4C 1_555 1_555
N4C C1C 1_555 1_555
C1C C3C 1_555 1_555
C2C O3C 1_555 1_555
C3C C2C 1_555 1_555
H5C N1C 1_555 1_555
H6C N1C 1_555 1_555
H7C N2C 1_555 1_555
H8C N3C 1_555 1_555
H9C N3C 1_555 1_555
H10C N4C 1_555 1_555
H11C C3C 1_555 1_555
H12C C3C 1_555 1_555
O4A Mn1 1_555 1_555
O4B Mn1 1_555 1_555
N3A Mn1 1_555 1_555
N3B Mn1 1_555 1_555
Mn1A O4 1_555 1_555
Mn1A_2 O4C 1_555 1_555
H8A N3A 1_555 1_555
H9A N3A 1_555 1_555
H8B N3B 1_555 1_555
H9B N3B 1_555 1_555
N3 Mn1A 1_555 1_555
N2C C2C 1_555 1_555
N3C Mn1A_2 1_555 1_555

#END
