
#######################################################################
#
#                 Cambridge Crystallographic Data Centre
#                                CCDC 
#
#######################################################################
#
# If this CIF has been generated from an entry in the Cambridge 
# Structural Database, then it will include bibliographic, chemical, 
# crystal, experimental, refinement or atomic coordinate data resulting 
# from the CCDC's data processing and validation procedures.
#
#######################################################################

data_DUDCEK
_symmetry_cell_setting           orthorhombic
_symmetry_space_group_name_H-M   'F 2 2 2'
_symmetry_Int_Tables_number      22
_space_group_name_Hall           'F 2 2'
loop_
_symmetry_equiv_pos_site_id
_symmetry_equiv_pos_as_xyz
1 x,y,z
2 x,1/2+y,1/2+z
3 1/2+x,y,1/2+z
4 1/2+x,1/2+y,z
5 x,-y,-z
6 x,1/2-y,1/2-z
7 1/2+x,-y,1/2-z
8 1/2+x,1/2-y,-z
9 -x,y,-z
10 -x,1/2+y,1/2-z
11 1/2-x,y,1/2-z
12 1/2-x,1/2+y,-z
13 -x,-y,z
14 -x,1/2-y,1/2+z
15 1/2-x,-y,1/2+z
16 1/2-x,1/2-y,z
_cell_length_a                   7.322(3)
_cell_length_b                   14.563(3)
_cell_length_c                   15.070(3)
_cell_angle_alpha                90
_cell_angle_beta                 90
_cell_angle_gamma                90
_cell_volume                     1606.92
loop_
_atom_site_label
_atom_site_type_symbol
_atom_site_fract_x
_atom_site_fract_y
_atom_site_fract_z
Mn1 Mn 0.0000 0.0000 0.0000
O1 O -0.2553(3) -0.0447(1) -0.0914(1)
N1 N 0.1217(3) 0.1262(1) 0.0780(1)
N2 N 0.2790(3) 0.1043(1) 0.1288(1)
C1 C -0.3334(3) 0.0181(1) -0.1316(1)
C2 C -0.50 0.0000 -0.1896(1)
H1 H -0.466(3) -0.056(4) -0.242(3)
H2 H 0.039(5) 0.168(4) 0.123(4)
H3 H 0.146(4) 0.174(3) 0.037(2)
H4 H 0.332(2) 0.139(2) 0.162(3)
O1D O -0.2553(3) 0.0447(1) 0.0914(1)
O1H O 0.2553(3) -0.0447(1) 0.0914(1)
O1L O 0.2553(3) 0.0447(1) -0.0914(1)
N1D N 0.1217(3) -0.1262(1) -0.0780(1)
N1H N -0.1217(3) 0.1262(1) -0.0780(1)
N1L N -0.1217(3) -0.1262(1) 0.0780(1)
C1H C 0.3334(3) 0.0181(1) 0.1316(1)
N2H N -0.2790(3) 0.1043(1) -0.1288(1)
H1L H -0.534(3) 0.056(4) -0.242(3)
C1L C -0.6666(3) -0.0181(1) -0.1316(1)
C1D C -0.3334(3) -0.0181(1) 0.1316(1)
C1L_2 C 0.3334(3) -0.0181(1) -0.1316(1)
N2D N 0.2790(3) -0.1043(1) -0.1288(1)
H2D H 0.039(5) -0.168(4) -0.123(4)
H3D H 0.146(4) -0.174(3) -0.037(2)
H2H H -0.039(5) 0.168(4) -0.123(4)
H3H H -0.146(4) 0.174(3) -0.037(2)
N2L N -0.2790(3) -0.1043(1) 0.1288(1)
H2L H -0.039(5) -0.168(4) 0.123(4)
H3L H -0.146(4) -0.174(3) 0.037(2)
C2D C 0.50 0.0000 0.1896(1)
H4H H -0.332(2) 0.139(2) -0.162(3)
O1L_2 O -0.7447(3) 0.0447(1) -0.0914(1)
N2D_2 N -0.7210(3) -0.1043(1) -0.1288(1)
C2D_2 C -0.50 0.0000 0.1896(1)
C2_2 C 0.50 0.0000 -0.1896(1)
H4D H 0.332(2) -0.139(2) -0.162(3)
H4L H -0.332(2) -0.139(2) 0.162(3)
C1D_2 C 0.6666(3) -0.0181(1) 0.1316(1)
H1D H 0.534(3) 0.056(4) 0.242(3)
H1H H 0.466(3) -0.056(4) 0.242(3)
Mn1_2 Mn -1.0000 0.0000 0.0000
N1D_2 N -0.8783(3) -0.1262(1) -0.0780(1)
H4D_2 H -0.668(2) -0.139(2) -0.162(3)
C1H_2 C -0.6666(3) 0.0181(1) 0.1316(1)
H1D_2 H -0.466(3) 0.056(4) 0.242(3)
H1H_2 H -0.534(3) -0.056(4) 0.242(3)
C1_2 C 0.6666(3) 0.0181(1) -0.1316(1)
H1_2 H 0.534(3) -0.056(4) -0.242(3)
H1L_2 H 0.466(3) 0.056(4) -0.242(3)
O1D_2 O 0.7447(3) 0.0447(1) 0.0914(1)
N2L_2 N 0.7210(3) -0.1043(1) 0.1288(1)
H2D_2 H -0.961(5) -0.168(4) -0.123(4)
H3D_2 H -0.854(4) -0.174(3) -0.037(2)
O1H_2 O -0.7447(3) -0.0447(1) 0.0914(1)
N2_2 N -0.7210(3) 0.1043(1) 0.1288(1)
O1_2 O 0.7447(3) -0.0447(1) -0.0914(1)
N2H_2 N 0.7210(3) 0.1043(1) -0.1288(1)
Mn1_3 Mn 1.0000 0.0000 0.0000
N1L_2 N 0.8783(3) -0.1262(1) 0.0780(1)
H4L_2 H 0.668(2) -0.139(2) 0.162(3)
N1_2 N -0.8783(3) 0.1262(1) 0.0780(1)
H4_2 H -0.668(2) 0.139(2) 0.162(3)
N1H_2 N 0.8783(3) 0.1262(1) -0.0780(1)
H4H_2 H 0.668(2) 0.139(2) -0.162(3)
H2L_2 H 0.961(5) -0.168(4) 0.123(4)
H3L_2 H 0.854(4) -0.174(3) 0.037(2)
H2_2 H -0.961(5) 0.168(4) 0.123(4)
H3_2 H -0.854(4) 0.174(3) 0.037(2)
H2H_2 H 0.961(5) 0.168(4) -0.123(4)
H3H_2 H 0.854(4) 0.174(3) -0.037(2)
O1_3 O -1.2553(3) -0.0447(1) -0.0914(1)
O1D_3 O -1.2553(3) 0.0447(1) 0.0914(1)
N1H_3 N -1.1217(3) 0.1262(1) -0.0780(1)
N1L_3 N -1.1217(3) -0.1262(1) 0.0780(1)
H2L_3 H -1.039(5) -0.168(4) 0.123(4)
H3L_3 H -1.146(4) -0.174(3) 0.037(2)
H2H_3 H -1.039(5) 0.168(4) -0.123(4)
H3H_3 H -1.146(4) 0.174(3) -0.037(2)
Cl1 Cl 0.0000 0.2500 0.2500
O2 O 0.7500 0.2500 0.0669(2)
H5 H 0.702(3) 0.206(3) 0.090(3)
H5O H 0.798(3) 0.294(3) 0.090(3)
loop_
_geom_bond_atom_site_label_1
_geom_bond_atom_site_label_2
_geom_bond_site_symmetry_1
_geom_bond_site_symmetry_2
Mn1 O1 1_555 1_555
O1 C1 1_555 1_555
O2 H5 1_555 1_555
N1 Mn1 1_555 1_555
N2 N1 1_555 1_555
C1 C2 1_555 1_555
C2 H1 1_555 1_555
H2 N1 1_555 1_555
H3 N1 1_555 1_555
H4 N2 1_555 1_555
O1D Mn1 1_555 1_555
O1H Mn1 1_555 1_555
O1L Mn1 1_555 1_555
N1D Mn1 1_555 1_555
N1H Mn1 1_555 1_555
N1L Mn1 1_555 1_555
H5O O2 1_555 1_555
C1H N2 1_555 1_555
N2H C1 1_555 1_555
H1L C2 1_555 1_555
C1L C2 1_555 1_555
C1D O1D 1_555 1_555
C1L_2 O1L 1_555 1_555
N2D N1D 1_555 1_555
H2D N1D 1_555 1_555
H3D N1D 1_555 1_555
H2H N1H 1_555 1_555
H3H N1H 1_555 1_555
N2L N1L 1_555 1_555
H2L N1L 1_555 1_555
H3L N1L 1_555 1_555
C2D C1H 1_555 1_555
H4H N2H 1_555 1_555
O1L_2 C1L 1_555 1_555
N2D_2 C1L 1_555 1_555
C2D_2 C1D 1_555 1_555
C2_2 C1L_2 1_555 1_555
H4D N2D 1_555 1_555
H4L N2L 1_555 1_555
C1D_2 C2D 1_555 1_555
H1D C2D 1_555 1_555
H1H C2D 1_555 1_555
Mn1_2 O1L_2 1_555 1_555
N1D_2 N2D_2 1_555 1_555
H4D_2 N2D_2 1_555 1_555
C1H_2 C2D_2 1_555 1_555
H1D_2 C2D_2 1_555 1_555
H1H_2 C2D_2 1_555 1_555
C1_2 C2_2 1_555 1_555
H1_2 C2_2 1_555 1_555
H1L_2 C2_2 1_555 1_555
O1D_2 C1D_2 1_555 1_555
N2L_2 C1D_2 1_555 1_555
H2D_2 N1D_2 1_555 1_555
H3D_2 N1D_2 1_555 1_555
O1H_2 Mn1_2 1_555 1_555
N2_2 C1H_2 1_555 1_555
O1_2 C1_2 1_555 1_555
N2H_2 C1_2 1_555 1_555
Mn1_3 O1D_2 1_555 1_555
N1L_2 N2L_2 1_555 1_555
H4L_2 N2L_2 1_555 1_555
N1_2 Mn1_2 1_555 1_555
H4_2 N2_2 1_555 1_555
N1H_2 N2H_2 1_555 1_555
H4H_2 N2H_2 1_555 1_555
H2L_2 N1L_2 1_555 1_555
H3L_2 N1L_2 1_555 1_555
H2_2 N1_2 1_555 1_555
H3_2 N1_2 1_555 1_555
H2H_2 N1H_2 1_555 1_555
H3H_2 N1H_2 1_555 1_555
O1_3 Mn1_2 1_555 1_555
O1D_3 Mn1_2 1_555 1_555
N1H_3 Mn1_2 1_555 1_555
N1L_3 Mn1_2 1_555 1_555
H2L_3 N1L_3 1_555 1_555
H3L_3 N1L_3 1_555 1_555
H2H_3 N1H_3 1_555 1_555
H3H_3 N1H_3 1_555 1_555
O1H C1H 1_555 1_555
N1H N2H 1_555 1_555
C1D N2L 1_555 1_555
C1L_2 N2D 1_555 1_555
Mn1_2 N1D_2 1_555 1_555
C1H_2 O1H_2 1_555 1_555
N2_2 N1_2 1_555 1_555
O1_2 Mn1_3 1_555 1_555
Mn1_3 N1L_2 1_555 1_555
Mn1_3 N1H_2 1_555 1_555

#END
