
#######################################################################
#
#                 Cambridge Crystallographic Data Centre
#                                CCDC 
#
#######################################################################
#
# If this CIF has been generated from an entry in the Cambridge 
# Structural Database, then it will include bibliographic, chemical, 
# crystal, experimental, refinement or atomic coordinate data resulting 
# from the CCDC's data processing and validation procedures.
#
#######################################################################

data_DUDKAP
_symmetry_cell_setting           monoclinic
_symmetry_space_group_name_H-M   'P 21'
_symmetry_Int_Tables_number      4
_space_group_name_Hall           'P 2yb'
loop_
_symmetry_equiv_pos_site_id
_symmetry_equiv_pos_as_xyz
1 x,y,z
2 -x,1/2+y,-z
_cell_length_a                   8.94120(10)
_cell_length_b                   13.2661(2)
_cell_length_c                   10.5045(2)
_cell_angle_alpha                90
_cell_angle_beta                 110.2890(10)
_cell_angle_gamma                90
_cell_volume                     1168.68
loop_
_atom_site_label
_atom_site_type_symbol
_atom_site_fract_x
_atom_site_fract_y
_atom_site_fract_z
Co1 Co 0.65092(7) -0.12295(6) 0.31106(6)
Co2 Co 0.52368(7) -0.29887(5) 0.06860(7)
O1 O -0.2791(4) -0.2362(3) 0.0563(4)
O2 O 0.4369(4) -0.4391(4) 0.0382(4)
H1 H 0.5112 -0.4811 0.0745
H2 H 0.3696 -0.4552 -0.0386
O3 O -0.2593(4) -0.0856(3) 0.1571(4)
O4 O 0.4412(4) -0.0380(3) 0.2168(4)
O5 O 0.4396(4) -0.1985(3) 0.1710(4)
O6 O 0.4072(4) -0.2732(3) -0.1351(4)
O7 O 0.3969(5) -0.1059(4) -0.1222(4)
O8 O 0.6752(4) -0.3671(3) 0.2525(4)
O9 O 0.8068(4) -0.2372(3) 0.3807(4)
N1 N 0.5615(5) -0.1517(4) -0.5253(5)
N2 N 1.1823(5) -0.5202(4) 0.5646(5)
C1 C -0.0848(5) -0.1213(6) 0.0313(5)
C2 C 0.0814(7) -0.1591(8) 0.1311(7)
C3 C 0.1923(6) -0.1057(5) 0.0648(5)
H3 H 0.1800 -0.1411 -0.0201
C4 C 0.1335(8) -0.0018(6) 0.0294(9)
H4 H 0.1358 0.0176 -0.0590
H5 H 0.1953 0.0462 0.0969
C5 C -0.0532(8) -0.0106(8) 0.0283(9)
H6 H -0.0635 0.0226 0.1072
H7 H -0.1273 0.0201 -0.0529
C6 C -0.1167(10) -0.1708(7) -0.1083(8)
H8 H -0.2179 -0.1485 -0.1703
H9 H -0.1180 -0.2428 -0.0992
H10 H -0.0341 -0.1520 -0.1426
C7 C 0.0976(9) -0.2805(6) 0.1233(10)
H11 H 0.2004 -0.3013 0.1842
H12 H 0.0862 -0.2998 0.0323
H13 H 0.0158 -0.3124 0.1489
C8 C 0.1109(8) -0.1398(12) 0.2682(7)
H14 H 0.1035 -0.0686 0.2815
H15 H 0.2159 -0.1630 0.3208
H16 H 0.0335 -0.1745 0.2965
C9 C -0.2190(5) -0.1498(5) 0.0848(5)
C10 C 0.3667(5) -0.1128(5) 0.1543(5)
C11 C 0.5118(6) -0.0735(5) -0.4716(6)
H17 H 0.5123 -0.0100 -0.5089
C12 C 0.4588(6) -0.0823(5) -0.3622(6)
H18 H 0.4250 -0.0257 -0.3273
C13 C 0.4573(6) -0.1761(5) -0.3063(6)
C14 C 0.5055(6) -0.2578(5) -0.3616(6)
H19 H 0.5054 -0.3221 -0.3265
C15 C 0.5553(6) -0.2416(5) -0.4730(6)
H20 H 0.5857 -0.2972 -0.5121
C16 C 0.4161(6) -0.1849(5) -0.1773(6)
C17 C 1.0708(6) -0.5511(5) 0.4504(5)
H21 H 1.0802 -0.6154 0.4188
C18 C 0.9423(6) -0.4929(5) 0.3764(6)
H22 H 0.8657 -0.5182 0.2983
C19 C 0.9297(6) -0.3964(5) 0.4208(5)
C20 C 1.0490(6) -0.3637(6) 0.5383(6)
H23 H 1.0461 -0.2985 0.5698
C21 C 1.1697(6) -0.4268(5) 0.6073(6)
H24 H 1.2462 -0.4042 0.6871
C22 C 0.7935(5) -0.3296(4) 0.3440(5)
Co1A Co 1.34908(7) -0.62295(6) 0.68894(6)
Co1_2 Co 0.65092(7) -0.12295(6) -0.68894(6)
Co1_3 Co -0.34908(7) -0.12295(6) 0.31106(6)
Co2_2 Co -0.47632(7) -0.29887(5) 0.06860(7)
O1_2 O 0.7209(4) -0.2362(3) 0.0563(4)
O3_2 O 0.7407(4) -0.0856(3) 0.1571(4)
N1_2 N 0.5615(5) -0.1517(4) 0.4747(5)
N2A N 0.8177(5) -0.0202(4) 0.4354(5)
loop_
_geom_bond_atom_site_label_1
_geom_bond_atom_site_label_2
_geom_bond_site_symmetry_1
_geom_bond_site_symmetry_2
Co1 O4 1_555 1_555
Co2 O2 1_555 1_555
O1 C9 1_555 1_555
O2 H1 1_555 1_555
H2 O2 1_555 1_555
O3 C9 1_555 1_555
O4 C10 1_555 1_555
O5 Co1 1_555 1_555
O6 Co2 1_555 1_555
O7 C16 1_555 1_555
O8 Co2 1_555 1_555
O9 Co1 1_555 1_555
N1 C11 1_555 1_555
N2 C17 1_555 1_555
C1 C2 1_555 1_555
C2 C3 1_555 1_555
C3 H3 1_555 1_555
C4 C3 1_555 1_555
H4 C4 1_555 1_555
H5 C4 1_555 1_555
C5 C1 1_555 1_555
H6 C5 1_555 1_555
H7 C5 1_555 1_555
C6 C1 1_555 1_555
H8 C6 1_555 1_555
H9 C6 1_555 1_555
H10 C6 1_555 1_555
C7 C2 1_555 1_555
H11 C7 1_555 1_555
H12 C7 1_555 1_555
H13 C7 1_555 1_555
C8 C2 1_555 1_555
H14 C8 1_555 1_555
H15 C8 1_555 1_555
H16 C8 1_555 1_555
C9 C1 1_555 1_555
C10 O5 1_555 1_555
C11 H17 1_555 1_555
C12 C11 1_555 1_555
H18 C12 1_555 1_555
C13 C12 1_555 1_555
C14 C13 1_555 1_555
H19 C14 1_555 1_555
C15 N1 1_555 1_555
H20 C15 1_555 1_555
C16 O6 1_555 1_555
C17 H21 1_555 1_555
C18 C17 1_555 1_555
H22 C18 1_555 1_555
C19 C18 1_555 1_555
C20 C19 1_555 1_555
H23 C20 1_555 1_555
C21 N2 1_555 1_555
H24 C21 1_555 1_555
C22 O8 1_555 1_555
Co1A N2 1_555 1_555
Co1_2 N1 1_555 1_555
Co1_3 O3 1_555 1_555
Co2_2 O1 1_555 1_555
O1_2 Co2 1_555 1_555
O3_2 Co1 1_555 1_555
N1_2 Co1 1_555 1_555
N2A Co1 1_555 1_555
Co2 O5 1_555 1_555
O9 C22 1_555 1_555
C3 C10 1_555 1_555
C4 C5 1_555 1_555
C13 C16 1_555 1_555
C14 C15 1_555 1_555
C19 C22 1_555 1_555
C20 C21 1_555 1_555

#END
