
#######################################################################
#
#                 Cambridge Crystallographic Data Centre
#                                CCDC 
#
#######################################################################
#
# If this CIF has been generated from an entry in the Cambridge 
# Structural Database, then it will include bibliographic, chemical, 
# crystal, experimental, refinement or atomic coordinate data resulting 
# from the CCDC's data processing and validation procedures.
#
#######################################################################

data_DUDKET
_symmetry_cell_setting           orthorhombic
_symmetry_space_group_name_H-M   'P c a 21'
_symmetry_Int_Tables_number      29
_space_group_name_Hall           'P 2c -2ac'
loop_
_symmetry_equiv_pos_site_id
_symmetry_equiv_pos_as_xyz
1 x,y,z
2 -x,-y,1/2+z
3 1/2+x,-y,z
4 1/2-x,y,1/2+z
_cell_length_a                   19.6658(9)
_cell_length_b                   8.9899(4)
_cell_length_c                   13.6956(6)
_cell_angle_alpha                90
_cell_angle_beta                 90
_cell_angle_gamma                90
_cell_volume                     2421.29
loop_
_atom_site_label
_atom_site_type_symbol
_atom_site_fract_x
_atom_site_fract_y
_atom_site_fract_z
Co1 Co 0.71479(4) 0.27151(8) 0.93786(5)
Co2 Co 0.59868(4) 0.25062(9) 0.76386(7)
O1 O 0.7163(2) 1.0670(4) 0.8874(3)
O2 O 0.7377(2) 0.3139(5) 1.0753(3)
H1 H 0.7771 0.3523 1.0798
H2 H 0.7189 0.2823 1.1273
O3 O 0.6726(2) 1.0962(4) 0.7380(3)
O4 O 0.6665(2) 0.4060(4) 0.8391(3)
O5 O 0.6506(2) 0.4232(4) 0.6815(3)
O6 O 0.8154(2) 0.2502(5) 0.7500(3)
O7 O 0.8124(2) 0.3289(5) 0.9056(3)
O8 O 0.5579(2) 0.1311(5) 0.8758(3)
O9 O 0.6181(2) 0.2246(4) 1.0006(3)
N1 N 1.0183(3) 0.5893(5) 0.7831(4)
N2 N 0.4610(3) -0.1391(6) 1.1608(4)
C1 C 0.7377(3) 0.8751(6) 0.7726(5)
C2 C 0.6882(4) 0.7458(8) 0.8079(6)
C3 C 0.7228(3) 0.6109(6) 0.7571(5)
H3 H 0.7648 0.5882 0.7926
C4 C 0.7419(5) 0.6662(9) 0.6576(6)
H4 H 0.7080 0.6367 0.6100
H5 H 0.7855 0.6257 0.6380
C5 C 0.7459(5) 0.8443(9) 0.6651(6)
H6 H 0.7893 0.8807 0.6415
H7 H 0.7097 0.8906 0.6278
C6 C 0.8083(4) 0.8541(10) 0.8239(6)
H8 H 0.8388 0.9313 0.8032
H9 H 0.8269 0.7590 0.8065
H10 H 0.8025 0.8591 0.8934
C7 C 0.6924(5) 0.7223(9) 0.9237(6)
H11 H 0.6629 0.6421 0.9425
H12 H 0.6784 0.8119 0.9562
H13 H 0.7383 0.6988 0.9419
C8 C 0.6193(5) 0.7690(10) 0.7885(7)
H14 H 0.5934 0.6865 0.8130
H15 H 0.6125 0.7776 0.7194
H16 H 0.6046 0.8588 0.8200
C9 C 0.7070(3) 1.0251(7) 0.8016(5)
C10 C 0.6785(3) 0.4726(6) 0.7581(5)
C11 C 0.9938(3) 0.5567(7) 0.8735(5)
H17 H 1.0160 0.5952 0.9279
C12 C 0.9373(3) 0.4692(7) 0.8877(5)
H18 H 0.9216 0.4519 0.9508
C13 C 0.9033(3) 0.4060(7) 0.8086(5)
C14 C 0.9304(3) 0.4335(7) 0.7170(5)
H19 H 0.9108 0.3903 0.6621
C15 C 0.9864(3) 0.5250(7) 0.7071(5)
H20 H 1.0030 0.5431 0.6446
C16 C 0.8398(4) 0.3181(7) 0.8208(5)
C17 C 0.5179(3) -0.0702(7) 1.1878(5)
H21 H 0.5337 -0.0855 1.2510
C18 C 0.5545(3) 0.0215(7) 1.1281(4)
H22 H 0.5932 0.0693 1.1513
C19 C 0.5337(3) 0.0424(6) 1.0336(4)
C20 C 0.4755(4) -0.0291(8) 1.0039(5)
H23 H 0.4601 -0.0196 0.9399
C21 C 0.4403(4) -0.1148(8) 1.0697(5)
H24 H 0.3997 -0.1583 1.0495
C22 C 0.5743(3) 0.1420(7) 0.9648(4)
Co1_2 Co 0.71479(4) 1.27151(8) 0.93786(5)
Co2_2 Co 0.59868(4) 1.25062(9) 0.76386(7)
Co2B Co 1.09868(4) 0.74938(9) 0.76386(7)
Co2A Co 0.40132(4) -0.25062(9) 1.26386(7)
O1_2 O 0.7163(2) 0.0670(4) 0.8874(3)
O3_2 O 0.6726(2) 0.0962(4) 0.7380(3)
N1B N 0.5183(3) 0.4107(5) 0.7831(4)
N2A N 0.5390(3) 0.1391(6) 0.6608(4)
loop_
_geom_bond_atom_site_label_1
_geom_bond_atom_site_label_2
_geom_bond_site_symmetry_1
_geom_bond_site_symmetry_2
Co1 O2 1_555 1_555
Co2 O4 1_555 1_555
O1 C9 1_555 1_555
O2 H1 1_555 1_555
H2 O2 1_555 1_555
O3 C9 1_555 1_555
O4 Co1 1_555 1_555
O5 Co2 1_555 1_555
O6 C16 1_555 1_555
O7 Co1 1_555 1_555
O8 Co2 1_555 1_555
O9 Co1 1_555 1_555
N1 C11 1_555 1_555
N2 C17 1_555 1_555
C1 C2 1_555 1_555
C2 C3 1_555 1_555
C3 H3 1_555 1_555
C4 C3 1_555 1_555
H4 C4 1_555 1_555
H5 C4 1_555 1_555
C5 C1 1_555 1_555
H6 C5 1_555 1_555
H7 C5 1_555 1_555
C6 C1 1_555 1_555
H8 C6 1_555 1_555
H9 C6 1_555 1_555
H10 C6 1_555 1_555
C7 C2 1_555 1_555
H11 C7 1_555 1_555
H12 C7 1_555 1_555
H13 C7 1_555 1_555
C8 C2 1_555 1_555
H14 C8 1_555 1_555
H15 C8 1_555 1_555
H16 C8 1_555 1_555
C9 C1 1_555 1_555
C10 O4 1_555 1_555
C11 H17 1_555 1_555
C12 C11 1_555 1_555
H18 C12 1_555 1_555
C13 C12 1_555 1_555
C14 C13 1_555 1_555
H19 C14 1_555 1_555
C15 N1 1_555 1_555
H20 C15 1_555 1_555
C16 O7 1_555 1_555
C17 H21 1_555 1_555
C18 C17 1_555 1_555
H22 C18 1_555 1_555
C19 C18 1_555 1_555
C20 C19 1_555 1_555
H23 C20 1_555 1_555
C21 N2 1_555 1_555
H24 C21 1_555 1_555
C22 O8 1_555 1_555
Co1_2 O1 1_555 1_555
Co2_2 O3 1_555 1_555
Co2B N1 1_555 1_555
Co2A N2 1_555 1_555
O1_2 Co1 1_555 1_555
O3_2 Co2 1_555 1_555
N1B Co2 1_555 1_555
N2A Co2 1_555 1_555
O5 C10 1_555 1_555
O9 C22 1_555 1_555
C3 C10 1_555 1_555
C4 C5 1_555 1_555
C13 C16 1_555 1_555
C14 C15 1_555 1_555
C19 C22 1_555 1_555
C20 C21 1_555 1_555

#END
