
#######################################################################
#
#                 Cambridge Crystallographic Data Centre
#                                CCDC 
#
#######################################################################
#
# If this CIF has been generated from an entry in the Cambridge 
# Structural Database, then it will include bibliographic, chemical, 
# crystal, experimental, refinement or atomic coordinate data resulting 
# from the CCDC's data processing and validation procedures.
#
#######################################################################

data_DUDMEV
_symmetry_cell_setting           triclinic
_symmetry_space_group_name_H-M   'P -1'
_symmetry_Int_Tables_number      2
_space_group_name_Hall           '-P 1'
loop_
_symmetry_equiv_pos_site_id
_symmetry_equiv_pos_as_xyz
1 x,y,z
2 -x,-y,-z
_cell_length_a                   6.2150(8)
_cell_length_b                   7.8267(11)
_cell_length_c                   13.3972(15)
_cell_angle_alpha                83.035(9)
_cell_angle_beta                 86.478(9)
_cell_angle_gamma                75.221(10)
_cell_volume                     625.154
loop_
_atom_site_label
_atom_site_type_symbol
_atom_site_fract_x
_atom_site_fract_y
_atom_site_fract_z
Eu1 Eu 0.78752(11) 0.79117(10) 0.26271(5)
O1 O 0.3912(14) 0.8145(14) 0.2484(6)
N1 N 0.6109(16) 0.9140(14) 0.0852(7)
C1 C 0.3869(19) 0.9589(18) 0.0834(9)
C2 C 0.270(2) 0.8985(18) 0.1787(9)
O2 O 0.0628(14) 0.9349(13) 0.1793(6)
O3 O 0.6147(16) 1.1066(12) 0.2549(7)
H1 H 0.5646 1.1761 0.2002
H2 H 0.5576 1.1355 0.3154
O4 O 1.1212(17) 0.6118(14) 0.3448(8)
H3 H 1.1874 0.5003 0.3525
H4 H 1.2483 0.6540 0.3528
O5 O 0.9769(16) 0.6181(13) 0.1316(7)
O6 O 0.7410(18) 0.4888(15) 0.2977(8)
H5 H 0.8137 0.4047 0.2650
H6 H 0.6929 0.4433 0.3533
O7 O 0.6226(16) 0.7635(16) 0.4274(7)
N2 N 0.927(2) 0.9543(18) 0.4128(9)
O8 O 1.1241(17) 0.3327(14) 0.1816(8)
C3 C 1.124(2) 0.4732(19) 0.1321(10)
C4 C 1.330(2) 0.4833(18) 0.0611(10)
O9 O 0.623(2) 0.7315(15) 0.5935(7)
C5 C 0.850(3) 0.900(2) 0.5055(10)
C6 C 0.930(3) 0.949(2) 0.5900(11)
H7 H 0.8776 0.9102 0.6528
C7 C 0.688(3) 0.790(2) 0.5091(11)
N3 N 1.5179(19) 0.3704(15) 0.0832(8)
C8 C 1.309(2) 0.6123(19) -0.0211(10)
H8 H 1.1699 0.6895 -0.0335
C9 C 0.279(2) 1.0514(17) -0.0014(9)
H9 H 0.1248 1.0901 0.0009
Eu1A Eu 0.21248(11) 1.20883(10) -0.26271(5)
Eu1_2 Eu -0.21248(11) 0.79117(10) 0.26271(5)
Eu1A_2 Eu 1.21248(11) 1.20883(10) -0.26271(5)
Eu1A_3 Eu 2.21248(11) 0.20883(10) -0.26271(5)
Eu1A_4 Eu 1.21248(11) 1.20883(10) 0.73729(5)
O1A O 0.6088(14) 1.1855(14) -0.2484(6)
N1A N 0.3891(16) 1.0860(14) -0.0852(7)
C1A C 0.6131(19) 1.0411(18) -0.0834(9)
C2A C 0.730(2) 1.1015(18) -0.1787(9)
O2A O 0.9372(14) 1.0651(13) -0.1793(6)
O2_2 O 1.0628(14) 0.9349(13) 0.1793(6)
O2A_2 O -0.0628(14) 1.0651(13) -0.1793(6)
O3A O 0.3853(16) 0.8934(12) -0.2549(7)
H1A H 0.4354 0.8239 -0.2002
H2A H 0.4424 0.8645 -0.3154
O4A O -0.1212(17) 1.3882(14) -0.3448(8)
H3A H -0.1874 1.4997 -0.3525
H4A H -0.2483 1.3460 -0.3528
O5A O 2.0231(16) 0.3819(13) -0.1316(7)
O5A_2 O 0.0231(16) 1.3819(13) -0.1316(7)
O6A O 0.2590(18) 1.5112(15) -0.2977(8)
H5A H 0.1863 1.5953 -0.2650
H6A H 0.3071 1.5567 -0.3533
O7A O 1.3774(16) 1.2365(16) 0.5726(7)
O7A_2 O 0.3774(16) 1.2365(16) -0.4274(7)
N2A N 1.073(2) 1.0457(18) 0.5872(9)
N2A_2 N 0.073(2) 1.0457(18) -0.4128(9)
O8A O 1.8759(17) 0.6673(14) -0.1816(8)
C3A C 1.876(2) 0.5268(19) -0.1321(10)
C4A C 1.670(2) 0.5167(18) -0.0611(10)
O9A O 1.377(2) 1.2685(15) 0.4065(7)
C5A C 1.150(3) 1.100(2) 0.4945(10)
C6A C 1.070(3) 1.051(2) 0.4100(11)
H7A H 1.1224 1.0898 0.3472
C7A C 1.312(3) 1.210(2) 0.4909(11)
N3A N 1.4821(19) 0.6296(15) -0.0832(8)
C8A C 1.691(2) 0.3877(19) 0.0211(10)
H8A H 1.8301 0.3105 0.0335
C9A C 0.721(2) 0.9486(17) 0.0014(9)
H9A H 0.8752 0.9099 -0.0009
loop_
_geom_bond_atom_site_label_1
_geom_bond_atom_site_label_2
_geom_bond_site_symmetry_1
_geom_bond_site_symmetry_2
Eu1 O1 1_555 1_555
O1 C2 1_555 1_555
N1 Eu1 1_555 1_555
C1 N1 1_555 1_555
C2 C1 1_555 1_555
O2 C2 1_555 1_555
O3 Eu1 1_555 1_555
H1 O3 1_555 1_555
H2 O3 1_555 1_555
O4 Eu1 1_555 1_555
H3 O4 1_555 1_555
H4 O4 1_555 1_555
O5 Eu1 1_555 1_555
O6 Eu1 1_555 1_555
H5 O6 1_555 1_555
H6 O6 1_555 1_555
O7 Eu1 1_555 1_555
N2 Eu1 1_555 1_555
O8 C3 1_555 1_555
C3 O5 1_555 1_555
C4 C3 1_555 1_555
O9 C7 1_555 1_555
C5 N2 1_555 1_555
C6 C5 1_555 1_555
H7 C6 1_555 1_555
C7 O7 1_555 1_555
N3 C4 1_555 1_555
C8 C4 1_555 1_555
H8 C8 1_555 1_555
C9 C1 1_555 1_555
H9 C9 1_555 1_555
Eu1A O1A 1_555 1_555
Eu1_2 O2 1_555 1_555
Eu1A_2 O2A 1_555 1_555
Eu1A_3 O5A 1_555 1_555
Eu1A_4 O7A 1_555 1_555
O1A C2A 1_555 1_555
N1A C9 1_555 1_555
C1A N1A 1_555 1_555
C2A C1A 1_555 1_555
O2A C2A 1_555 1_555
O2_2 Eu1 1_555 1_555
O2A_2 Eu1A 1_555 1_555
O3A Eu1A 1_555 1_555
H1A O3A 1_555 1_555
H2A O3A 1_555 1_555
O4A Eu1A 1_555 1_555
H3A O4A 1_555 1_555
H4A O4A 1_555 1_555
O5A C3A 1_555 1_555
O5A_2 Eu1A 1_555 1_555
O6A Eu1A 1_555 1_555
H5A O6A 1_555 1_555
H6A O6A 1_555 1_555
O7A C7A 1_555 1_555
O7A_2 Eu1A 1_555 1_555
N2A C6 1_555 1_555
N2A_2 Eu1A 1_555 1_555
O8A C3A 1_555 1_555
C3A C4A 1_555 1_555
C4A N3A 1_555 1_555
O9A C7A 1_555 1_555
C5A N2A 1_555 1_555
C6A N2 1_555 1_555
H7A C6A 1_555 1_555
C7A C5A 1_555 1_555
N3A C8 1_555 1_555
C8A N3 1_555 1_555
H8A C8A 1_555 1_555
C9A N1 1_555 1_555
H9A C9A 1_555 1_555
C5 C7 1_555 1_555
Eu1A N1A 1_555 1_555
Eu1A_4 N2A 1_555 1_555
C1A C9A 1_555 1_555
C4A C8A 1_555 1_555
C5A C6A 1_555 1_555

#END
