
#######################################################################
#
#                 Cambridge Crystallographic Data Centre
#                                CCDC 
#
#######################################################################
#
# If this CIF has been generated from an entry in the Cambridge 
# Structural Database, then it will include bibliographic, chemical, 
# crystal, experimental, refinement or atomic coordinate data resulting 
# from the CCDC's data processing and validation procedures.
#
#######################################################################

data_DUDPEZ
_symmetry_cell_setting           orthorhombic
_symmetry_space_group_name_H-M   'P b c n'
_symmetry_Int_Tables_number      60
_space_group_name_Hall           '-P 2n 2ab'
loop_
_symmetry_equiv_pos_site_id
_symmetry_equiv_pos_as_xyz
1 x,y,z
2 1/2-x,1/2-y,1/2+z
3 1/2+x,1/2-y,-z
4 -x,y,1/2-z
5 -x,-y,-z
6 1/2+x,1/2+y,1/2-z
7 1/2-x,1/2+y,z
8 x,-y,1/2+z
_cell_length_a                   17.417(2)
_cell_length_b                   8.9963(8)
_cell_length_c                   11.3432(9)
_cell_angle_alpha                90
_cell_angle_beta                 90
_cell_angle_gamma                90
_cell_volume                     1777.35
loop_
_atom_site_label
_atom_site_type_symbol
_atom_site_fract_x
_atom_site_fract_y
_atom_site_fract_z
Cu1 Cu 0.59124(4) 0.47268(9) 0.55226(6)
N1 N 0.5985(3) 0.5577(5) 0.4041(4)
C1 C 0.5771(3) 0.5056(6) 0.3001(4)
N2 N 0.5974(3) 0.5920(5) 0.2074(4)
C2 C 0.6742(4) 0.7898(8) 0.4547(5)
H1 H 0.6734 0.7782 0.5361
C3 C 0.6374(3) 0.7090(6) 0.2576(5)
C4 C 0.6372(3) 0.6887(6) 0.3790(5)
C5 C 0.7115(4) 0.9070(8) 0.4015(7)
H2 H 0.7363 0.9770 0.4483
C6 C 0.5357(3) 0.3654(6) 0.2795(5)
C7 C 0.7130(4) 0.9231(8) 0.2809(7)
H3 H 0.7400 1.0028 0.2490
C8 C 0.5340(4) 0.0992(8) 0.2835(8)
H4 H 0.5552 0.0099 0.3089
C9 C 0.6766(4) 0.8269(7) 0.2055(5)
H5 H 0.6780 0.8398 0.1242
C10 C 0.5691(4) 0.2317(7) 0.3114(7)
H6 H 0.6155 0.2314 0.3519
N1C N 0.4015(3) 0.5577(5) 0.0959(4)
C1C C 0.4229(3) 0.5056(6) 0.1999(4)
N2C N 0.4026(3) 0.5920(5) 0.2926(4)
C2C C 0.3258(4) 0.7898(8) 0.0453(5)
H1C H 0.3266 0.7782 -0.0361
C3C C 0.3626(3) 0.7090(6) 0.2424(5)
C4C C 0.3628(3) 0.6887(6) 0.1210(5)
C5C C 0.2885(4) 0.9070(8) 0.0985(7)
H2C H 0.2637 0.9770 0.0517
C6C C 0.4643(3) 0.3654(6) 0.2205(5)
C7C C 0.2870(4) 0.9231(8) 0.2191(7)
H3C H 0.2600 1.0028 0.2510
C8C C 0.4660(4) 0.0992(8) 0.2165(8)
H4C H 0.4448 0.0099 0.1911
C9C C 0.3234(4) 0.8269(7) 0.2945(5)
H5C H 0.3220 0.8398 0.3758
C10C C 0.4309(4) 0.2317(7) 0.1886(7)
H6C H 0.3845 0.2314 0.1481
Cu1C Cu 0.40876(4) 0.47268(9) -0.05226(6)
Cu1D Cu 0.40876(4) 0.52732(9) 0.44774(6)
Cu1G Cu 0.59124(4) 0.52732(9) 0.05226(6)
N2D N 0.4026(3) 0.4080(5) -0.2074(4)
N2G N 0.5974(3) 0.4080(5) 0.7074(4)
loop_
_geom_bond_atom_site_label_1
_geom_bond_atom_site_label_2
_geom_bond_site_symmetry_1
_geom_bond_site_symmetry_2
Cu1 N1 1_555 1_555
N1 C1 1_555 1_555
C1 N2 1_555 1_555
N2 C3 1_555 1_555
C2 H1 1_555 1_555
C3 C4 1_555 1_555
C4 N1 1_555 1_555
C5 C2 1_555 1_555
H2 C5 1_555 1_555
C6 C1 1_555 1_555
C7 C5 1_555 1_555
H3 C7 1_555 1_555
C8 H4 1_555 1_555
C9 C3 1_555 1_555
H5 C9 1_555 1_555
C10 C6 1_555 1_555
H6 C10 1_555 1_555
N1C C1C 1_555 1_555
C1C N2C 1_555 1_555
N2C C3C 1_555 1_555
C2C H1C 1_555 1_555
C3C C4C 1_555 1_555
C4C N1C 1_555 1_555
C5C C2C 1_555 1_555
H2C C5C 1_555 1_555
C6C C6 1_555 1_555
C7C C5C 1_555 1_555
H3C C7C 1_555 1_555
C8C C8 1_555 1_555
H4C C8C 1_555 1_555
C9C C3C 1_555 1_555
H5C C9C 1_555 1_555
C10C C6C 1_555 1_555
H6C C10C 1_555 1_555
Cu1C N1C 1_555 1_555
Cu1D N2C 1_555 1_555
Cu1G N2 1_555 1_555
N2D Cu1C 1_555 1_555
N2G Cu1 1_555 1_555
C2 C4 1_555 1_555
C7 C9 1_555 1_555
C8 C10 1_555 1_555
C1C C6C 1_555 1_555
C2C C4C 1_555 1_555
C7C C9C 1_555 1_555
C8C C10C 1_555 1_555

#END
