
#######################################################################
#
#                 Cambridge Crystallographic Data Centre
#                                CCDC 
#
#######################################################################
#
# If this CIF has been generated from an entry in the Cambridge 
# Structural Database, then it will include bibliographic, chemical, 
# crystal, experimental, refinement or atomic coordinate data resulting 
# from the CCDC's data processing and validation procedures.
#
#######################################################################

data_DUDSIE
_symmetry_cell_setting           monoclinic
_symmetry_space_group_name_H-M   'P 21/c'
_symmetry_Int_Tables_number      14
_space_group_name_Hall           '-P 2ybc'
loop_
_symmetry_equiv_pos_site_id
_symmetry_equiv_pos_as_xyz
1 x,y,z
2 -x,1/2+y,1/2-z
3 -x,-y,-z
4 x,1/2-y,1/2+z
_cell_length_a                   9.6366(6)
_cell_length_b                   7.1292(3)
_cell_length_c                   10.7018(3)
_cell_angle_alpha                90
_cell_angle_beta                 99.603(4)
_cell_angle_gamma                90
_cell_volume                     724.925
loop_
_atom_site_label
_atom_site_type_symbol
_atom_site_fract_x
_atom_site_fract_y
_atom_site_fract_z
Cu1 Cu -0.5000 0.5000 -0.5000
O1 O 0.2276(2) 0.5721(3) -0.0083(2)
N1 N 0.3067(2) 0.5622(4) 0.3393(2)
N2 N -0.1459(3) 0.5681(4) 0.3638(2)
C1 C 0.1027(3) 0.5309(3) -0.0042(3)
C2 C 0.0191(3) 0.5207(3) 0.0972(3)
C3 C 0.0495(3) 0.5457(4) 0.2279(3)
C4 C 0.1916(3) 0.5570(4) 0.2902(2)
C5 C -0.0588(3) 0.5555(4) 0.3037(2)
O2 O -0.4218(2) 0.3150(3) -0.6126(2)
O3 O -0.6097(2) 0.2970(3) -0.4459(2)
H1 H -0.414(3) 0.366(5) -0.669(3)
H2 H -0.362(4) 0.267(5) -0.582(3)
H3 H -0.666(3) 0.321(5) -0.419(3)
H4 H -0.574(3) 0.211(5) -0.409(3)
C2B C -0.0191(3) 0.4793(3) -0.0972(3)
C1B C -0.1027(3) 0.4691(3) 0.0042(3)
O1B O -0.2276(2) 0.4279(3) 0.0083(2)
C3B C -0.0495(3) 0.4543(4) -0.2279(3)
C4B C -0.1916(3) 0.4430(4) -0.2902(2)
N1B N -0.3067(2) 0.4378(4) -0.3393(2)
Cu1_2 Cu 0.5000 0.5000 0.5000
N1_2 N -0.6933(2) 0.5622(4) -0.6607(2)
O2B O -0.5782(2) 0.6850(3) -0.3874(2)
H1B H -0.586(3) 0.634(5) -0.331(3)
H2B H -0.638(4) 0.733(5) -0.418(3)
O3B O -0.3903(2) 0.7030(3) -0.5541(2)
H3B H -0.334(3) 0.679(5) -0.581(3)
H4B H -0.426(3) 0.789(5) -0.591(3)
C5B C 0.0588(3) 0.4445(4) -0.3037(2)
N2B N 0.1459(3) 0.4319(4) -0.3638(2)
O4 O 0.5707(2) 0.4736(3) 0.1598(2)
H5 H 0.544(3) 0.570(5) 0.151(3)
H6 H 0.630(4) 0.466(5) 0.124(4)
loop_
_geom_bond_atom_site_label_1
_geom_bond_atom_site_label_2
_geom_bond_site_symmetry_1
_geom_bond_site_symmetry_2
Cu1 O2 1_555 1_555
O1 C1 1_555 1_555
N1 C4 1_555 1_555
N2 C5 1_555 1_555
C1 C2 1_555 1_555
C2 C3 1_555 1_555
C3 C4 1_555 1_555
C5 C3 1_555 1_555
O2 H1 1_555 1_555
O3 Cu1 1_555 1_555
O4 H5 1_555 1_555
H2 O2 1_555 1_555
H3 O3 1_555 1_555
H4 O3 1_555 1_555
H6 O4 1_555 1_555
C2B C1 1_555 1_555
C1B C2 1_555 1_555
O1B C1B 1_555 1_555
C3B C2B 1_555 1_555
C4B C3B 1_555 1_555
N1B Cu1 1_555 1_555
Cu1_2 N1 1_555 1_555
N1_2 Cu1 1_555 1_555
O2B Cu1 1_555 1_555
H1B O2B 1_555 1_555
H2B O2B 1_555 1_555
O3B Cu1 1_555 1_555
H3B O3B 1_555 1_555
H4B O3B 1_555 1_555
C5B C3B 1_555 1_555
N2B C5B 1_555 1_555
C2B C1B 1_555 1_555
C4B N1B 1_555 1_555

#END
