
#######################################################################
#
#                 Cambridge Crystallographic Data Centre
#                                CCDC 
#
#######################################################################
#
# If this CIF has been generated from an entry in the Cambridge 
# Structural Database, then it will include bibliographic, chemical, 
# crystal, experimental, refinement or atomic coordinate data resulting 
# from the CCDC's data processing and validation procedures.
#
#######################################################################

data_DUDSOK
_symmetry_cell_setting           monoclinic
_symmetry_space_group_name_H-M   'P 21/n'
_symmetry_Int_Tables_number      14
_space_group_name_Hall           '-P 2yn'
loop_
_symmetry_equiv_pos_site_id
_symmetry_equiv_pos_as_xyz
1 x,y,z
2 1/2+x,1/2-y,1/2+z
3 -x,-y,-z
4 1/2-x,1/2+y,1/2-z
_cell_length_a                   10.654(2)
_cell_length_b                   8.736(1)
_cell_length_c                   14.654(3)
_cell_angle_alpha                90
_cell_angle_beta                 109.01(2)
_cell_angle_gamma                90
_cell_volume                     1289.51
loop_
_atom_site_label
_atom_site_type_symbol
_atom_site_fract_x
_atom_site_fract_y
_atom_site_fract_z
Cu1 Cu 0.06521(3) -0.30114(3) -0.34472(2)
O1 O -0.4554(2) -0.2119(2) -0.4050(1)
N1 N 0.0720(2) -0.5237(3) -0.3354(2)
N2 N 0.0932(2) -0.2040(2) -0.2146(2)
N3 N -0.8923(2) 0.2123(2) -0.5718(2)
N4 N -0.8110(2) -0.1920(2) -0.3980(2)
C1 C -0.8133(2) 0.1230(2) -0.5342(2)
C2 C -0.7665(2) -0.1038(3) -0.4369(2)
C3 C -0.7205(2) 0.0104(2) -0.4870(1)
C4 C -0.5934(2) 0.0044(2) -0.4943(1)
C5 C -0.4801(2) -0.0971(2) -0.4570(1)
C6 C 0.0669(2) -0.6516(3) -0.3254(2)
C7 C 0.0590(4) -0.8153(3) -0.3117(3)
C8 C 0.1111(2) -0.1327(3) -0.1463(2)
C9 C 0.1356(3) -0.0415(3) -0.0599(2)
H1 H 0.045(5) -0.825(5) -0.267(4)
H2 H 0.012(5) -0.861(6) -0.364(4)
H3 H 0.139(4) -0.854(4) -0.296(3)
H4 H 0.119(3) -0.094(4) -0.009(2)
H5 H 0.218(4) -0.017(4) -0.031(2)
H6 H 0.0897 0.0596 -0.0773
C5B C -0.5199(2) 0.0971(2) -0.5430(1)
C4B C -0.4066(2) -0.0044(2) -0.5057(1)
O1B O -0.5446(2) 0.2119(2) -0.5950(1)
C3B C -0.2795(2) -0.0104(2) -0.5130(1)
Cu1_2 Cu -0.93479(3) -0.30114(3) -0.34472(2)
C1B C -0.1867(2) -0.1230(2) -0.4658(2)
C2B C -0.2335(2) 0.1038(3) -0.5631(2)
N3B N -0.1077(2) -0.2123(2) -0.4282(2)
N4B N -0.1890(2) 0.1920(2) -0.6020(2)
Cu1B Cu -1.06521(3) 0.30114(3) -0.65528(2)
Cu1B_2 Cu -0.06521(3) 0.30114(3) -0.65528(2)
N4_2 N 0.1890(2) -0.1920(2) -0.3980(2)
N1B N -0.0720(2) 0.5237(3) -0.6646(2)
N2B N -0.0932(2) 0.2040(2) -0.7854(2)
N3_2 N 0.1077(2) 0.2123(2) -0.5718(2)
C6B C -0.0669(2) 0.6516(3) -0.6746(2)
C8B C -0.1111(2) 0.1327(3) -0.8537(2)
C7B C -0.0590(4) 0.8153(3) -0.6883(3)
C9B C -0.1356(3) 0.0415(3) -0.9401(2)
H1B H -0.045(5) 0.825(5) -0.733(4)
H2B H -0.012(5) 0.861(6) -0.636(4)
H3B H -0.139(4) 0.854(4) -0.704(3)
H4B H -0.119(3) 0.094(4) -0.991(2)
H5B H -0.218(4) 0.017(4) -0.969(2)
H6B H -0.0897 -0.0596 -0.9227
N5 N -0.7319(3) 0.6903(3) -0.6203(2)
C10 C -0.7468(3) 0.5886(3) -0.6710(2)
C11 C -0.7652(3) 0.4571(4) -0.7331(2)
H7 H -0.706(4) 0.380(5) -0.701(3)
H8 H -0.833(3) 0.444(4) -0.754(2)
H9 H -0.735(3) 0.485(4) -0.784(2)
loop_
_geom_bond_atom_site_label_1
_geom_bond_atom_site_label_2
_geom_bond_site_symmetry_1
_geom_bond_site_symmetry_2
Cu1 N1 1_555 1_555
O1 C5 1_555 1_555
N1 C6 1_555 1_555
N2 Cu1 1_555 1_555
N3 C1 1_555 1_555
N4 C2 1_555 1_555
C1 C3 1_555 1_555
C2 C3 1_555 1_555
C3 C4 1_555 1_555
C4 C5 1_555 1_555
C5 C4B 1_555 1_555
C6 C7 1_555 1_555
C7 H1 1_555 1_555
C8 N2 1_555 1_555
C9 C8 1_555 1_555
H2 C7 1_555 1_555
H3 C7 1_555 1_555
H4 C9 1_555 1_555
H5 C9 1_555 1_555
H6 C9 1_555 1_555
N5 C10 1_555 1_555
C10 C11 1_555 1_555
C11 H7 1_555 1_555
H8 C11 1_555 1_555
H9 C11 1_555 1_555
C5B C4 1_555 1_555
C4B C5B 1_555 1_555
O1B C5B 1_555 1_555
C3B C4B 1_555 1_555
Cu1_2 N4 1_555 1_555
C1B C3B 1_555 1_555
C2B C3B 1_555 1_555
N3B Cu1 1_555 1_555
N4B C2B 1_555 1_555
Cu1B N3 1_555 1_555
Cu1B_2 N4B 1_555 1_555
N4_2 Cu1 1_555 1_555
N1B Cu1B_2 1_555 1_555
N2B Cu1B_2 1_555 1_555
N3_2 Cu1B_2 1_555 1_555
C6B N1B 1_555 1_555
C8B N2B 1_555 1_555
C7B C6B 1_555 1_555
C9B C8B 1_555 1_555
H1B C7B 1_555 1_555
H2B C7B 1_555 1_555
H3B C7B 1_555 1_555
H4B C9B 1_555 1_555
H5B C9B 1_555 1_555
H6B C9B 1_555 1_555
C1B N3B 1_555 1_555

#END
