
#######################################################################
#
#                 Cambridge Crystallographic Data Centre
#                                CCDC 
#
#######################################################################
#
# If this CIF has been generated from an entry in the Cambridge 
# Structural Database, then it will include bibliographic, chemical, 
# crystal, experimental, refinement or atomic coordinate data resulting 
# from the CCDC's data processing and validation procedures.
#
#######################################################################

data_DUDWOQ
_symmetry_cell_setting           monoclinic
_symmetry_space_group_name_H-M   'P 21/n'
_symmetry_Int_Tables_number      14
_space_group_name_Hall           '-P 2yn'
loop_
_symmetry_equiv_pos_site_id
_symmetry_equiv_pos_as_xyz
1 x,y,z
2 1/2-x,1/2+y,1/2-z
3 -x,-y,-z
4 1/2+x,1/2-y,1/2+z
_cell_length_a                   8.7086(5)
_cell_length_b                   37.248(2)
_cell_length_c                   22.1051(14)
_cell_angle_alpha                90
_cell_angle_beta                 90.193(3)
_cell_angle_gamma                90
_cell_volume                     7170.37
loop_
_atom_site_label
_atom_site_type_symbol
_atom_site_fract_x
_atom_site_fract_y
_atom_site_fract_z
Li1 Li 0.376(2) 0.7499(6) 0.8666(5)
Fe1 Fe -0.1274(2) 0.75027(4) 0.72824(6)
C1 C 0.1440(13) 0.7326(3) 0.7879(5)
C2 C 0.0928(13) 0.7689(3) 0.8165(5)
O1 O 0.0664(9) 0.72264(18) 0.7421(3)
O2 O -0.0256(10) 0.78197(19) 0.7926(3)
O3 O 0.1698(9) 0.7813(2) 0.8569(4)
O4 O 0.2552(10) 0.7163(2) 0.8101(4)
C3 C -0.1659(14) 0.7334(3) 0.6060(5)
C4 C -0.0719(14) 0.7698(3) 0.6079(5)
O5 O -0.1969(9) 0.72068(19) 0.6579(3)
O6 O -0.0542(9) 0.7811(2) 0.6618(3)
O7 O -0.0261(11) 0.7847(2) 0.5617(4)
O8 O -0.2035(12) 0.7198(2) 0.5572(4)
C5 C 0.6510(13) 0.7308(3) 0.8117(5)
C6 C 0.5969(12) 0.7667(3) 0.7853(4)
O9 O 0.7712(9) 0.71748(18) 0.7896(3)
O10 O 0.6781(9) 0.77712(18) 0.7399(3)
O11 O 0.4859(10) 0.7822(2) 0.8057(4)
O12 O 0.5741(9) 0.7176(2) 0.8535(4)
O13 O 0.3928(13) 0.7492(3) 0.9515(3)
H1 H 0.3188 0.7495 0.9765
H2 H 0.4739 0.7511 0.9728
Fe1_2 Fe 0.8726(2) 0.75027(4) 0.72824(6)
O9_2 O -0.2288(9) 0.71748(18) 0.7896(3)
O10_2 O -0.3219(9) 0.77712(18) 0.7399(3)
C7 C 0.5650(15) 0.3524(3) 0.5252(5)
H3 H 0.4562 0.3514 0.5121
H4 H 0.6212 0.3335 0.5031
C8 C 0.5732(13) 0.3446(3) 0.5911(5)
H5 H 0.6799 0.3486 0.6052
H6 H 0.5491 0.3189 0.5975
C9 C 0.4932(12) 0.4136(2) 0.6122(5)
C10 C 0.5712(13) 0.4232(3) 0.5621(5)
C11 C 0.5218(13) 0.4828(3) 0.6173(5)
C12 C 0.5172(12) 0.5180(3) 0.6359(5)
C13 C 0.5563(12) 0.5865(2) 0.6447(4)
C14 C 0.4804(12) 0.5762(3) 0.6946(4)
C15 C 0.4668(14) 0.6479(2) 0.7325(5)
H7 H 0.3832 0.6571 0.7063
H8 H 0.4717 0.6634 0.7688
C16 C 0.6146(14) 0.6507(3) 0.6994(5)
H9 H 0.6962 0.6390 0.7236
H10 H 0.6420 0.6764 0.6952
S1 S 0.6443(4) 0.39594(7) 0.50450(13)
S2 S 0.4471(4) 0.37084(7) 0.63669(12)
S3 S 0.4360(3) 0.44916(7) 0.65920(12)
S4 S 0.6040(3) 0.46897(6) 0.54960(12)
S5 S 0.6018(3) 0.55201(7) 0.59313(11)
S6 S 0.4382(3) 0.53126(7) 0.70302(12)
S7 S 0.4205(3) 0.60275(7) 0.75573(12)
S8 S 0.6094(3) 0.63011(7) 0.62379(12)
C17 C 0.3227(15) 0.6568(3) 0.9206(5)
H11 H 0.4316 0.6551 0.9081
H12 H 0.2908 0.6822 0.9170
C18 C 0.3092(14) 0.6453(3) 0.9855(5)
H13 H 0.1992 0.6429 0.9959
H14 H 0.3536 0.6642 1.0118
C19 C 0.3291(13) 0.5761(3) 0.9446(5)
C20 C 0.2528(13) 0.5856(3) 0.8940(5)
C21 C 0.2788(14) 0.5169(3) 0.8881(5)
C22 C 0.2749(14) 0.4823(3) 0.8693(5)
C23 C 0.2458(15) 0.4232(3) 0.8070(5)
C24 C 0.3186(15) 0.4139(3) 0.8584(5)
C25 C 0.3726(17) 0.3521(4) 0.8006(6)
H15 H 0.4452 0.3658 0.7750
H16 H 0.4102 0.3271 0.8026
C26 C 0.219(2) 0.3520(3) 0.7696(7)
H17 H 0.1385 0.3436 0.7977
H18 H 0.2211 0.3358 0.7341
S9 S 0.2049(4) 0.62929(7) 0.86931(13)
S10 S 0.4052(4) 0.60335(7) 1.00076(13)
S11 S 0.3621(4) 0.53038(7) 0.95473(13)
S12 S 0.1873(3) 0.55107(7) 0.84672(13)
S13 S 0.1904(4) 0.46875(7) 0.80100(13)
S14 S 0.3606(4) 0.44786(7) 0.90990(13)
S15 S 0.3802(4) 0.37094(7) 0.87705(13)
S16 S 0.1812(4) 0.39776(7) 0.74606(13)
C29 C 0.7940(15) 0.6472(3) 0.9800(5)
H23 H 0.6837 0.6431 0.9882
H24 H 0.8298 0.6667 1.0071
C30 C 0.8129(14) 0.6591(3) 0.9145(5)
H25 H 0.9235 0.6590 0.9043
H26 H 0.7755 0.6841 0.9105
C31 C 0.7591(13) 0.5887(3) 0.8881(5)
C32 C 0.8302(13) 0.5786(3) 0.9392(5)
C33 C 0.7805(13) 0.5193(3) 0.8855(5)
C34 C 0.7842(13) 0.4846(3) 0.8677(5)
C35 C 0.8389(13) 0.4174(3) 0.8570(5)
C36 C 0.7610(13) 0.4257(3) 0.8059(5)
C37 C 0.7759(18) 0.3554(3) 0.7669(6)
H27 H 0.7125 0.3369 0.7466
H28 H 0.8824 0.3527 0.7521
C38 C 0.7745(13) 0.3484(3) 0.8339(5)
H29 H 0.7971 0.3227 0.8410
H30 H 0.6701 0.3532 0.8495
S17 S 0.8989(4) 0.60701(7) 0.99678(13)
S18 S 0.7111(4) 0.63109(7) 0.86111(13)
S19 S 0.6892(3) 0.55282(7) 0.84337(13)
S20 S 0.8570(4) 0.53345(7) 0.95401(12)
S21 S 0.8658(4) 0.45068(7) 0.91076(12)
S22 S 0.6958(3) 0.47027(7) 0.80060(12)
S23 S 0.7051(4) 0.39958(7) 0.74482(13)
S24 S 0.9080(4) 0.37456(7) 0.87556(13)
C41 C 0.0659(16) 0.3400(3) 0.5732(6)
H35 H 0.1739 0.3355 0.5852
H36 H 0.0119 0.3166 0.5737
C42 C 0.0646(16) 0.3537(3) 0.5106(5)
H37 H -0.0429 0.3591 0.4991
H38 H 0.1018 0.3345 0.4835
C43 C 0.1057(13) 0.4208(3) 0.5529(5)
C44 C 0.0240(12) 0.4115(2) 0.6029(5)
C45 C 0.0454(13) 0.4804(3) 0.6080(5)
C46 C 0.0473(12) 0.5150(3) 0.6271(5)
C47 C 0.0155(13) 0.5729(3) 0.6894(5)
C48 C 0.0998(14) 0.5824(3) 0.6406(5)
C49 C 0.0291(13) 0.6513(3) 0.6612(5)
H39 H 0.0521 0.6770 0.6542
H40 H -0.0727 0.6463 0.6430
C50 C 0.0191(14) 0.6448(2) 0.7300(5)
H41 H -0.0523 0.6625 0.7478
H42 H 0.1216 0.6488 0.7482
S25 S -0.0197(3) 0.36847(7) 0.62911(13)
S26 S 0.1786(4) 0.39330(7) 0.49778(13)
S27 S 0.1290(4) 0.46712(7) 0.54043(13)
S28 S -0.0502(3) 0.44669(7) 0.64766(13)
S29 S -0.0512(4) 0.52878(7) 0.69264(13)
S30 S 0.1301(3) 0.54953(7) 0.58579(12)
S31 S 0.1670(3) 0.62551(7) 0.62342(13)
S32 S -0.0467(3) 0.59941(7) 0.74967(12)
C27? C 0.269(4) 0.3410(8) 0.8324(12)
H19? H 0.3106 0.3164 0.8347
H20? H 0.1608 0.3407 0.8463
C28? C 0.279(4) 0.3553(7) 0.7688(13)
H21? H 0.2398 0.3362 0.7417
H22? H 0.3892 0.3583 0.7596
C39? C 0.717(5) 0.3535(7) 0.772(2)
H31? H 0.6305 0.3479 0.7999
H32? H 0.7161 0.3362 0.7385
C40? C 0.868(4) 0.3523(9) 0.8059(12)
H33? H 0.9462 0.3609 0.7769
H34? H 0.8903 0.3266 0.8129
loop_
_geom_bond_atom_site_label_1
_geom_bond_atom_site_label_2
_geom_bond_site_symmetry_1
_geom_bond_site_symmetry_2
Li1 O3 1_555 1_555
Fe1 O1 1_555 1_555
C1 C2 1_555 1_555
C2 O2 1_555 1_555
O1 C1 1_555 1_555
O2 Fe1 1_555 1_555
O3 C2 1_555 1_555
O4 Li1 1_555 1_555
C3 C4 1_555 1_555
C4 O6 1_555 1_555
O5 Fe1 1_555 1_555
O6 Fe1 1_555 1_555
O7 C4 1_555 1_555
O8 C3 1_555 1_555
C5 C6 1_555 1_555
C6 O10 1_555 1_555
O9 C5 1_555 1_555
O10 Fe1_2 1_555 1_555
O11 Li1 1_555 1_555
O12 Li1 1_555 1_555
O13 Li1 1_555 1_555
H1 O13 1_555 1_555
H2 O13 1_555 1_555
C7 H3 1_555 1_555
H4 C7 1_555 1_555
C8 C7 1_555 1_555
H5 C8 1_555 1_555
H6 C8 1_555 1_555
C9 C10 1_555 1_555
C10 S1 1_555 1_555
C11 C12 1_555 1_555
C12 S5 1_555 1_555
C13 C14 1_555 1_555
C14 S6 1_555 1_555
C15 H7 1_555 1_555
H8 C15 1_555 1_555
C16 C15 1_555 1_555
H9 C16 1_555 1_555
H10 C16 1_555 1_555
S1 C7 1_555 1_555
S2 C8 1_555 1_555
S3 C9 1_555 1_555
S4 C10 1_555 1_555
S5 C13 1_555 1_555
S6 C12 1_555 1_555
S7 C14 1_555 1_555
S8 C13 1_555 1_555
C17 H11 1_555 1_555
H12 C17 1_555 1_555
C18 C17 1_555 1_555
H13 C18 1_555 1_555
H14 C18 1_555 1_555
C19 C20 1_555 1_555
C20 S9 1_555 1_555
C21 C22 1_555 1_555
C22 S13 1_555 1_555
C23 C24 1_555 1_555
C24 S14 1_555 1_555
C25 H15 1_555 1_555
H16 C25 1_555 1_555
C26 C25 1_555 1_555
H17 C26 1_555 1_555
H18 C26 1_555 1_555
S9 C17 1_555 1_555
S10 C18 1_555 1_555
S11 C19 1_555 1_555
S12 C20 1_555 1_555
S13 C23 1_555 1_555
S14 C22 1_555 1_555
S15 C24 1_555 1_555
S16 C23 1_555 1_555
C29 H23 1_555 1_555
H24 C29 1_555 1_555
C30 C29 1_555 1_555
H25 C30 1_555 1_555
H26 C30 1_555 1_555
C31 C32 1_555 1_555
C32 S17 1_555 1_555
C33 C34 1_555 1_555
C34 S21 1_555 1_555
C35 C36 1_555 1_555
C36 S22 1_555 1_555
C37 H27 1_555 1_555
H28 C37 1_555 1_555
C38 C37 1_555 1_555
H29 C38 1_555 1_555
H30 C38 1_555 1_555
S17 C29 1_555 1_555
S18 C30 1_555 1_555
S19 C31 1_555 1_555
S20 C32 1_555 1_555
S21 C35 1_555 1_555
S22 C34 1_555 1_555
S23 C36 1_555 1_555
S24 C35 1_555 1_555
C41 H35 1_555 1_555
H36 C41 1_555 1_555
C42 C41 1_555 1_555
H37 C42 1_555 1_555
H38 C42 1_555 1_555
C43 C44 1_555 1_555
C44 S25 1_555 1_555
C45 C46 1_555 1_555
C46 S29 1_555 1_555
C47 C48 1_555 1_555
C48 S30 1_555 1_555
C49 H39 1_555 1_555
H40 C49 1_555 1_555
C50 C49 1_555 1_555
H41 C50 1_555 1_555
H42 C50 1_555 1_555
S25 C41 1_555 1_555
S26 C42 1_555 1_555
S27 C43 1_555 1_555
S28 C44 1_555 1_555
S29 C47 1_555 1_555
S30 C46 1_555 1_555
S31 C48 1_555 1_555
S32 C47 1_555 1_555
Fe1_2 O9 1_555 1_555
O9_2 Fe1 1_555 1_555
O10_2 Fe1 1_555 1_555
C1 O4 1_555 1_555
C3 O5 1_555 1_555
C5 O12 1_555 1_555
C6 O11 1_555 1_555
C9 S2 1_555 1_555
C11 S3 1_555 1_555
C11 S4 1_555 1_555
C15 S7 1_555 1_555
C16 S8 1_555 1_555
C19 S10 1_555 1_555
C21 S11 1_555 1_555
C21 S12 1_555 1_555
C25 S15 1_555 1_555
C26 S16 1_555 1_555
C31 S18 1_555 1_555
C33 S19 1_555 1_555
C33 S20 1_555 1_555
C37 S23 1_555 1_555
C38 S24 1_555 1_555
C43 S26 1_555 1_555
C45 S27 1_555 1_555
C45 S28 1_555 1_555
C49 S31 1_555 1_555
C50 S32 1_555 1_555

#END
