
#######################################################################
#
#                 Cambridge Crystallographic Data Centre
#                                CCDC 
#
#######################################################################
#
# If this CIF has been generated from an entry in the Cambridge 
# Structural Database, then it will include bibliographic, chemical, 
# crystal, experimental, refinement or atomic coordinate data resulting 
# from the CCDC's data processing and validation procedures.
#
#######################################################################

data_DUDZIN
_symmetry_cell_setting           monoclinic
_symmetry_space_group_name_H-M   'C 2/c'
_symmetry_Int_Tables_number      15
_space_group_name_Hall           '-C 2yn'
loop_
_symmetry_equiv_pos_site_id
_symmetry_equiv_pos_as_xyz
1 x,y,z
2 -x,y,1/2-z
3 1/2+x,1/2+y,z
4 1/2-x,1/2+y,1/2-z
5 -x,-y,-z
6 x,-y,1/2+z
7 1/2-x,1/2-y,-z
8 1/2+x,1/2-y,1/2+z
_cell_length_a                   22.1623(6)
_cell_length_b                   7.1193(2)
_cell_length_c                   12.2911(3)
_cell_angle_alpha                90
_cell_angle_beta                 94.4320(10)
_cell_angle_gamma                90
_cell_volume                     1933.49
loop_
_atom_site_label
_atom_site_type_symbol
_atom_site_fract_x
_atom_site_fract_y
_atom_site_fract_z
Co1 Co 1.0000 -0.05145(3) 0.7500
O1 O 0.91572(4) -0.04830(13) 0.80894(9)
O2 O 0.86274(5) -0.17780(18) 0.66579(9)
O3 O 0.60114(6) -0.1312(3) 0.95577(12)
O4 O 0.96115(5) -0.06701(18) 0.58454(9)
H1 H 0.9245(12) -0.104(4) 0.600(2)
H2 H 0.9564(12) 0.019(4) 0.555(2)
N1 N 1.0000 0.2518(2) 0.7500
N2 N 1.0000 0.6436(2) 0.7500
C1 C 0.86731(5) -0.11157(17) 0.75983(11)
C2 C 0.81095(5) -0.10250(17) 0.82116(10)
C3 C 0.81105(6) -0.0089(2) 0.92052(11)
H3 H 0.8467 0.0439 0.9518
C4 C 0.75794(6) 0.0058(2) 0.97289(11)
H4 H 0.7580 0.0682 1.0394
C5 C 0.70463(6) -0.0726(2) 0.92617(12)
C6 C 0.70446(6) -0.1685(2) 0.82755(12)
H5 H 0.6689 -0.2222 0.7967
C7 C 0.75745(6) -0.18340(19) 0.77557(11)
H6 H 0.7574 -0.2478 0.7098
C8 C 0.64849(8) -0.0553(3) 0.98296(15)
H7 H 0.6472(7) 0.029(2) 1.0463(12)
C9 C 0.97461(6) 0.35053(18) 0.82681(11)
H8 H 0.9563 0.2869 0.8815
C10 C 0.97486(7) 0.54530(17) 0.82719(12)
H9 H 0.9571 0.6090 0.8825
C9A C 1.02539(6) 0.35053(18) 0.67319(11)
H8A H 1.0437 0.2869 0.6185
C10A C 1.02514(7) 0.54530(17) 0.67281(12)
H9A H 1.0429 0.6090 0.6175
O1A O 1.08428(4) -0.04830(13) 0.69106(9)
O2A O 1.13726(5) -0.17780(18) 0.83421(9)
O3A O 1.39886(6) -0.1312(3) 0.54423(12)
O4A O 1.03885(5) -0.06701(18) 0.91546(9)
H1A H 1.0755(12) -0.104(4) 0.900(2)
H2A H 1.0436(12) 0.019(4) 0.945(2)
C1A C 1.13269(5) -0.11157(17) 0.74017(11)
C2A C 1.18905(5) -0.10250(17) 0.67884(10)
C3A C 1.18895(6) -0.0089(2) 0.57948(11)
H3A H 1.1533 0.0439 0.5482
C4A C 1.24206(6) 0.0058(2) 0.52711(11)
H4A H 1.2420 0.0682 0.4606
C5A C 1.29537(6) -0.0726(2) 0.57383(12)
C6A C 1.29554(6) -0.1685(2) 0.67245(12)
H5A H 1.3311 -0.2222 0.7033
C7A C 1.24255(6) -0.18340(19) 0.72443(11)
H6A H 1.2426 -0.2478 0.7902
C8A C 1.35151(8) -0.0553(3) 0.51704(15)
H7A H 1.3528(7) 0.029(2) 0.4537(12)
Co1_2 Co 1.0000 0.94855(3) 0.7500
N2_2 N 1.0000 -0.3564(2) 0.7500
loop_
_geom_bond_atom_site_label_1
_geom_bond_atom_site_label_2
_geom_bond_site_symmetry_1
_geom_bond_site_symmetry_2
Co1 O1 1_555 1_555
O1 C1 1_555 1_555
O2 C1 1_555 1_555
O3 C8 1_555 1_555
O4 Co1 1_555 1_555
H1 O4 1_555 1_555
H2 O4 1_555 1_555
N1 Co1 1_555 1_555
N2 C10 1_555 1_555
C1 C2 1_555 1_555
C2 C3 1_555 1_555
C3 H3 1_555 1_555
C4 C3 1_555 1_555
H4 C4 1_555 1_555
C5 C4 1_555 1_555
C6 C5 1_555 1_555
H5 C6 1_555 1_555
C7 C2 1_555 1_555
H6 C7 1_555 1_555
C8 C5 1_555 1_555
H7 C8 1_555 1_555
C9 N1 1_555 1_555
H8 C9 1_555 1_555
C10 C9 1_555 1_555
H9 C10 1_555 1_555
C9A N1 1_555 1_555
H8A C9A 1_555 1_555
C10A N2 1_555 1_555
H9A C10A 1_555 1_555
O1A Co1 1_555 1_555
O2A C1A 1_555 1_555
O3A C8A 1_555 1_555
O4A Co1 1_555 1_555
H1A O4A 1_555 1_555
H2A O4A 1_555 1_555
C1A O1A 1_555 1_555
C2A C1A 1_555 1_555
C3A C2A 1_555 1_555
H3A C3A 1_555 1_555
C4A C3A 1_555 1_555
H4A C4A 1_555 1_555
C5A C4A 1_555 1_555
C6A C5A 1_555 1_555
H5A C6A 1_555 1_555
C7A C2A 1_555 1_555
H6A C7A 1_555 1_555
C8A C5A 1_555 1_555
H7A C8A 1_555 1_555
Co1_2 N2 1_555 1_555
N2_2 Co1 1_555 1_555
C6 C7 1_555 1_555
C9A C10A 1_555 1_555
C6A C7A 1_555 1_555

#END
