
#######################################################################
#
#                 Cambridge Crystallographic Data Centre
#                                CCDC 
#
#######################################################################
#
# If this CIF has been generated from an entry in the Cambridge 
# Structural Database, then it will include bibliographic, chemical, 
# crystal, experimental, refinement or atomic coordinate data resulting 
# from the CCDC's data processing and validation procedures.
#
#######################################################################

data_DUDZEH
_symmetry_cell_setting           monoclinic
_symmetry_space_group_name_H-M   'P 1 1 21/a'
_symmetry_Int_Tables_number      14
_space_group_name_Hall           '-P 2ac'
loop_
_symmetry_equiv_pos_site_id
_symmetry_equiv_pos_as_xyz
1 x,y,z
2 1/2-x,-y,1/2+z
3 -x,-y,-z
4 1/2+x,y,1/2-z
_cell_length_a                   11.357(4)
_cell_length_b                   9.649(3)
_cell_length_c                   11.729(3)
_cell_angle_alpha                90
_cell_angle_beta                 90
_cell_angle_gamma                116.72(2)
_cell_volume                     1148.05
loop_
_atom_site_label
_atom_site_type_symbol
_atom_site_fract_x
_atom_site_fract_y
_atom_site_fract_z
Co1 Co 0.33372(4) 0.10603(4) 0.14278(3)
O5 O 0.1951(2) -0.1210(2) 0.1680(2)
O6 O 0.4706(2) 0.0274(3) 0.1158(2)
O8 O 0.3857(1) 0.1295(2) 0.3145(1)
N1 N 0.4850(2) 0.3432(3) 0.1493(2)
N2 N 0.5413(2) 0.3627(2) 0.2597(2)
C1 C 0.4867(2) 0.2500(2) 0.3348(2)
C2 C 0.5552(3) 0.2713(3) 0.4473(2)
C3 C 0.6501(3) 0.2030(3) 0.4399(2)
N3 N 0.6944(2) 0.1768(3) 0.5374(2)
N4 N 0.7889(2) 0.1205(2) 0.5205(2)
O9 O 0.6868(2) 0.1774(2) 0.3461(1)
H1 H 0.462(2) 0.424(3) 0.145(2)
H2 H 0.544(3) 0.357(3) 0.099(2)
H3 H 0.615(2) 0.447(3) 0.277(3)
H4 H 0.663(3) 0.183(4) 0.603(3)
H5 H 0.858(2) 0.191(3) 0.571(2)
H6 H 0.756(2) 0.035(3) 0.573(2)
H7 H 0.494(2) 0.224(3) 0.505(2)
H8 H 0.597(3) 0.367(3) 0.467(3)
H9 H 0.114(3) -0.151(3) 0.195(3)
H10 H 0.207(3) -0.195(3) 0.168(3)
H11 H 0.478(3) -0.038(3) 0.161(2)
H12 H 0.547(3) 0.092(3) 0.105(2)
O9C O 0.1868(2) 0.1774(2) 0.1539(1)
N4C N 0.2889(2) 0.1205(2) -0.0205(2)
Co1C Co 0.83372(4) 0.10603(4) 0.35722(3)
H5C H 0.358(2) 0.191(3) -0.071(2)
H6C H 0.256(2) 0.035(3) -0.073(2)
S1 S 0.38018(6) -0.35425(7) 0.21077(5)
O1 O 0.4488(2) -0.1985(2) 0.2658(2)
O2 O 0.2545(1) -0.3667(2) 0.1635(1)
O3 O 0.4606(2) -0.3653(2) 0.1183(2)
O4 O 0.3536(2) -0.4746(2) 0.2958(2)
O7 O 0.2080(2) -0.7370(3) 0.4298(2)
H13 H 0.248(3) -0.668(3) 0.385(2)
H14 H 0.226(3) -0.703(3) 0.489(2)
loop_
_geom_bond_atom_site_label_1
_geom_bond_atom_site_label_2
_geom_bond_site_symmetry_1
_geom_bond_site_symmetry_2
Co1 O5 1_555 1_555
S1 O1 1_555 1_555
O2 S1 1_555 1_555
O3 S1 1_555 1_555
O4 S1 1_555 1_555
O5 H9 1_555 1_555
O6 Co1 1_555 1_555
O7 H13 1_555 1_555
O8 Co1 1_555 1_555
N1 Co1 1_555 1_555
N2 N1 1_555 1_555
C1 O8 1_555 1_555
C2 C1 1_555 1_555
C3 C2 1_555 1_555
N3 C3 1_555 1_555
N4 N3 1_555 1_555
O9 C3 1_555 1_555
H1 N1 1_555 1_555
H2 N1 1_555 1_555
H3 N2 1_555 1_555
H4 N3 1_555 1_555
H5 N4 1_555 1_555
H6 N4 1_555 1_555
H7 C2 1_555 1_555
H8 C2 1_555 1_555
H10 O5 1_555 1_555
H11 O6 1_555 1_555
H12 O6 1_555 1_555
H14 O7 1_555 1_555
O9C Co1 1_555 1_555
N4C Co1 1_555 1_555
Co1C N4 1_555 1_555
H5C N4C 1_555 1_555
H6C N4C 1_555 1_555
N2 C1 1_555 1_555
O9 Co1C 1_555 1_555

#END
