
#######################################################################
#
#                 Cambridge Crystallographic Data Centre
#                                CCDC 
#
#######################################################################
#
# If this CIF has been generated from an entry in the Cambridge 
# Structural Database, then it will include bibliographic, chemical, 
# crystal, experimental, refinement or atomic coordinate data resulting 
# from the CCDC's data processing and validation procedures.
#
#######################################################################

data_DUDZOT
_symmetry_cell_setting           triclinic
_symmetry_space_group_name_H-M   'P -1'
_symmetry_Int_Tables_number      2
_space_group_name_Hall           '-P 1'
loop_
_symmetry_equiv_pos_site_id
_symmetry_equiv_pos_as_xyz
1 x,y,z
2 -x,-y,-z
_cell_length_a                   4.5054(3)
_cell_length_b                   10.3354(7)
_cell_length_c                   10.8017(9)
_cell_angle_alpha                77.933(6)
_cell_angle_beta                 79.230(6)
_cell_angle_gamma                83.148(5)
_cell_volume                     481.516
loop_
_atom_site_label
_atom_site_type_symbol
_atom_site_fract_x
_atom_site_fract_y
_atom_site_fract_z
Gd1 Gd 1.17178(6) 0.11326(3) 0.57849(2)
O1 O 0.7849(8) 0.2520(4) 0.6800(3)
O2 O 0.3676(9) 0.1430(4) 0.7583(4)
O3 O 0.0518(9) 0.0494(4) 1.2482(3)
O4 O 0.7128(8) 0.0899(4) 0.4993(3)
O5 O 0.2490(9) 0.1775(4) 1.3498(4)
O6 O 1.2754(9) 0.3524(4) 0.5054(4)
H1 H 1.4613 0.3592 0.4658
H2 H 1.2485 0.3925 0.5705
N1 N 0.9250(11) 0.4682(5) 1.0490(4)
C1 C 0.5733(12) 0.2089(5) 0.7692(5)
C2 C 0.5710(12) 0.2414(6) 0.8999(5)
C3 C 0.7525(12) 0.3366(5) 0.9078(5)
H3 H 0.8754 0.3778 0.8346
C4 C 0.7509(12) 0.3708(5) 1.0264(5)
C5 C 0.5746(12) 0.3039(6) 1.1350(5)
H4 H 0.5754 0.3252 1.2144
C6 C 0.3977(12) 0.2061(5) 1.1270(5)
C7 C 0.3916(13) 0.1750(6) 1.0094(5)
H5 H 0.2701 0.1108 1.0029
C8 C 0.2190(12) 0.1369(5) 1.2507(5)
O1A O 1.2151(8) 0.7480(4) 1.3200(3)
N1A N 1.0750(11) 0.5318(5) 0.9510(4)
C1A C 1.4267(12) 0.7911(5) 1.2308(5)
C2A C 1.4290(12) 0.7586(6) 1.1001(5)
C3A C 1.2475(12) 0.6634(5) 1.0922(5)
H3A H 1.1246 0.6222 1.1654
C4A C 1.2491(12) 0.6292(5) 0.9736(5)
C5A C 1.4254(12) 0.6961(6) 0.8650(5)
H4A H 1.4246 0.6748 0.7856
C6A C 1.6023(12) 0.7939(5) 0.8730(5)
C7A C 1.6084(13) 0.8250(6) 0.9906(5)
H5A H 1.7299 0.8892 0.9971
C8A C 1.7810(12) 0.8631(5) 0.7493(5)
O2A O 1.6324(9) 0.8570(4) 1.2417(4)
O3A O 1.9482(9) 0.9506(4) 0.7518(3)
O5A O 1.7510(9) 0.8225(4) 0.6502(4)
Gd1A Gd -0.17178(6) -0.11326(3) 1.42151(2)
O4A O 0.2872(8) -0.0899(4) 1.5007(3)
O6A O -0.2754(9) -0.3524(4) 1.4946(4)
H1A H -0.4613 -0.3592 1.5342
H2A H -0.2485 -0.3925 1.4295
Gd1_2 Gd 0.17178(6) 0.11326(3) 0.57849(2)
Gd1_3 Gd 0.17178(6) 0.11326(3) 1.57849(2)
Gd1_4 Gd 2.17178(6) 1.11326(3) 0.57849(2)
Gd1A_2 Gd 0.82822(6) -0.11326(3) 0.42151(2)
Gd1A_3 Gd 0.82822(6) -0.11326(3) 1.42151(2)
Gd1A_4 Gd 0.82822(6) 0.88674(3) 1.42151(2)
Gd1A_5 Gd 1.82822(6) 0.88674(3) 0.42151(2)
Gd1A_6 Gd 1.82822(6) 0.88674(3) 1.42151(2)
O1A_2 O 0.2151(8) -0.2520(4) 1.3200(3)
O2_2 O 1.3676(9) 0.1430(4) 0.7583(4)
O2A_2 O -0.3676(9) -0.1430(4) 1.2417(4)
O3A_2 O 0.9482(9) -0.0494(4) 0.7518(3)
O4_2 O -0.2872(8) 0.0899(4) 1.4993(3)
O4_3 O 1.7128(8) 0.0899(4) 0.4993(3)
O4A_2 O -0.7128(8) -0.0899(4) 1.5007(3)
O4A_3 O 1.2872(8) -0.0899(4) 0.5007(3)
O5_2 O 1.2490(9) 0.1775(4) 0.3498(4)
O5A_2 O -0.2490(9) -0.1775(4) 1.6502(4)
O7 O 0.1775(9) 0.5543(4) 0.6494(4)
H6 H 0.1483 0.5364 0.7307
H7 H 0.0175 0.5928 0.6235
loop_
_geom_bond_atom_site_label_1
_geom_bond_atom_site_label_2
_geom_bond_site_symmetry_1
_geom_bond_site_symmetry_2
Gd1 O1 1_555 1_555
O1 C1 1_555 1_555
O2 C1 1_555 1_555
O3 C8 1_555 1_555
O4 Gd1 1_555 1_555
O5 C8 1_555 1_555
O6 Gd1 1_555 1_555
H1 O6 1_555 1_555
H2 O6 1_555 1_555
N1 C4 1_555 1_555
C1 C2 1_555 1_555
C2 C3 1_555 1_555
C3 H3 1_555 1_555
C4 C3 1_555 1_555
C5 C4 1_555 1_555
H4 C5 1_555 1_555
C6 C5 1_555 1_555
C7 C2 1_555 1_555
H5 C7 1_555 1_555
C8 C6 1_555 1_555
O7 H6 1_555 1_555
H7 O7 1_555 1_555
O1A C1A 1_555 1_555
N1A N1 1_555 1_555
C1A C2A 1_555 1_555
C2A C3A 1_555 1_555
C3A H3A 1_555 1_555
C4A N1A 1_555 1_555
C5A C4A 1_555 1_555
H4A C5A 1_555 1_555
C6A C5A 1_555 1_555
C7A C2A 1_555 1_555
H5A C7A 1_555 1_555
C8A C6A 1_555 1_555
O2A C1A 1_555 1_555
O3A C8A 1_555 1_555
O5A C8A 1_555 1_555
Gd1A O3 1_555 1_555
O4A Gd1A 1_555 1_555
O6A Gd1A 1_555 1_555
H1A O6A 1_555 1_555
H2A O6A 1_555 1_555
Gd1_2 O2 1_555 1_555
Gd1_3 O5 1_555 1_555
Gd1_4 O3A 1_555 1_555
Gd1A_2 O4 1_555 1_555
Gd1A_3 O4A 1_555 1_555
Gd1A_4 O1A 1_555 1_555
Gd1A_5 O5A 1_555 1_555
Gd1A_6 O2A 1_555 1_555
O1A_2 Gd1A 1_555 1_555
O2_2 Gd1 1_555 1_555
O2A_2 Gd1A 1_555 1_555
O3A_2 Gd1 1_555 1_555
O4_2 Gd1A 1_555 1_555
O4_3 Gd1 1_555 1_555
O4A_2 Gd1A 1_555 1_555
O4A_3 Gd1 1_555 1_555
O5_2 Gd1 1_555 1_555
O5A_2 Gd1A 1_555 1_555
O4 Gd1_2 1_555 1_555
C6 C7 1_555 1_555
C3A C4A 1_555 1_555
C6A C7A 1_555 1_555
O4A Gd1_3 1_555 1_555
Gd1_3 O4_2 1_555 1_555
Gd1A_2 O4A_3 1_555 1_555

#END
