
#######################################################################
#
#                 Cambridge Crystallographic Data Centre
#                                CCDC 
#
#######################################################################
#
# If this CIF has been generated from an entry in the Cambridge 
# Structural Database, then it will include bibliographic, chemical, 
# crystal, experimental, refinement or atomic coordinate data resulting 
# from the CCDC's data processing and validation procedures.
#
#######################################################################

data_DUFBUD
_symmetry_cell_setting           monoclinic
_symmetry_space_group_name_H-M   'P 21/c'
_symmetry_Int_Tables_number      14
_space_group_name_Hall           '-P 2ybc'
loop_
_symmetry_equiv_pos_site_id
_symmetry_equiv_pos_as_xyz
1 x,y,z
2 -x,1/2+y,1/2-z
3 -x,-y,-z
4 x,1/2-y,1/2+z
_cell_length_a                   8.6477(13)
_cell_length_b                   13.382(2)
_cell_length_c                   13.631(2)
_cell_angle_alpha                90
_cell_angle_beta                 105.650(4)
_cell_angle_gamma                90
_cell_volume                     1518.95
loop_
_atom_site_label
_atom_site_type_symbol
_atom_site_fract_x
_atom_site_fract_y
_atom_site_fract_z
Cu1 Cu 0.34078(5) 0.53860(4) 0.71523(4)
O1 O 0.5033(4) 0.5672(2) 0.8411(2)
O2 O 0.2256(3) 0.4295(2) 0.7666(2)
N1 N 0.4168(4) 0.6256(3) 0.6158(3)
N2 N -0.1691(4) 0.1567(3) 0.7590(3)
O3 O 0.6308(5) 0.4432(3) 0.7883(3)
C1 C 0.0404(5) 0.2986(3) 0.7147(3)
N3 N 0.2366(4) 0.4722(2) 0.5883(3)
N4 N 0.1425(4) 0.3899(2) 0.5937(3)
H1 H 0.0912 0.3535 0.5435
C2 C 0.3634(5) 0.5937(3) 0.5191(3)
C3 C -0.0141(6) 0.3063(3) 0.7996(4)
H2 H 0.0187 0.3594 0.8445
C4 C 0.1921(6) 0.4553(3) 0.4037(4)
H3 H 0.1883 0.3842 0.4122
H4 H 0.2586 0.4706 0.3595
H5 H 0.0854 0.4801 0.3742
C5 C 0.1463(5) 0.3775(3) 0.6913(3)
C6 C 0.5015(5) 0.7105(3) 0.6363(4)
H6 H 0.5366 0.7324 0.7034
C7 C 0.3982(5) 0.6456(3) 0.4389(3)
H7 H 0.3632 0.6224 0.3722
C8 C 0.6217(6) 0.5065(4) 0.8510(4)
C9 C -0.0138(6) 0.2175(4) 0.6506(4)
H8 H 0.0181 0.2095 0.5912
C10 C 0.2599(5) 0.5032(3) 0.5046(3)
C11 C -0.1179(6) 0.2351(3) 0.8187(4)
H9 H -0.1541 0.2425 0.8767
C12 C -0.1150(7) 0.1495(4) 0.6766(4)
H10 H -0.1479 0.0949 0.6339
C13 C 0.4878(6) 0.7339(3) 0.4623(4)
H11 H 0.5131 0.7705 0.4108
C14 C 0.7503(7) 0.5177(6) 0.9498(5)
H12 H 0.7893 0.5852 0.9564
H13 H 0.8372 0.4728 0.9504
H14 H 0.7065 0.5021 1.0056
C15 C 0.5377(6) 0.7659(3) 0.5610(4)
H15 H 0.5958 0.8249 0.5769
Cu1A Cu -0.34078(5) 0.03860(4) 0.78477(4)
N2A N 0.1691(4) 0.6567(3) 0.7410(3)
loop_
_geom_bond_atom_site_label_1
_geom_bond_atom_site_label_2
_geom_bond_site_symmetry_1
_geom_bond_site_symmetry_2
Cu1 O1 1_555 1_555
O1 C8 1_555 1_555
O2 Cu1 1_555 1_555
N1 Cu1 1_555 1_555
N2 C11 1_555 1_555
O3 Cu1 1_555 1_555
C1 C3 1_555 1_555
N3 Cu1 1_555 1_555
N4 N3 1_555 1_555
H1 N4 1_555 1_555
C2 N1 1_555 1_555
C3 H2 1_555 1_555
C4 H3 1_555 1_555
H4 C4 1_555 1_555
H5 C4 1_555 1_555
C5 O2 1_555 1_555
C6 N1 1_555 1_555
H6 C6 1_555 1_555
C7 C2 1_555 1_555
H7 C7 1_555 1_555
C8 O3 1_555 1_555
C9 C1 1_555 1_555
H8 C9 1_555 1_555
C10 N3 1_555 1_555
C11 C3 1_555 1_555
H9 C11 1_555 1_555
C12 N2 1_555 1_555
H10 C12 1_555 1_555
C13 C7 1_555 1_555
H11 C13 1_555 1_555
C14 C8 1_555 1_555
H12 C14 1_555 1_555
H13 C14 1_555 1_555
H14 C14 1_555 1_555
C15 C6 1_555 1_555
H15 C15 1_555 1_555
Cu1A N2 1_555 1_555
N2A Cu1 1_555 1_555
C1 C5 1_555 1_555
N4 C5 1_555 1_555
C2 C10 1_555 1_555
C4 C10 1_555 1_555
C9 C12 1_555 1_555
C13 C15 1_555 1_555

#END
