
#######################################################################
#
#                 Cambridge Crystallographic Data Centre
#                                CCDC 
#
#######################################################################
#
# If this CIF has been generated from an entry in the Cambridge 
# Structural Database, then it will include bibliographic, chemical, 
# crystal, experimental, refinement or atomic coordinate data resulting 
# from the CCDC's data processing and validation procedures.
#
#######################################################################

data_DUFCEO
_symmetry_cell_setting           monoclinic
_symmetry_space_group_name_H-M   'P 21'
_symmetry_Int_Tables_number      4
_space_group_name_Hall           'P 2yb'
loop_
_symmetry_equiv_pos_site_id
_symmetry_equiv_pos_as_xyz
1 x,y,z
2 -x,1/2+y,-z
_cell_length_a                   5.1471(18)
_cell_length_b                   25.614(9)
_cell_length_c                   8.181(3)
_cell_angle_alpha                90
_cell_angle_beta                 90.00
_cell_angle_gamma                90
_cell_volume                     1078.57
loop_
_atom_site_label
_atom_site_type_symbol
_atom_site_fract_x
_atom_site_fract_y
_atom_site_fract_z
Co1 Co 1.27419(14) 1.06427(6) 0.74398(9)
O1 O 1.0186(8) 1.00219(18) 0.8106(6)
N1 N 1.3332(11) 1.0251(2) 0.5177(7)
C1 C 0.7627(14) 0.8452(4) 0.7478(7)
C2 C 0.7755(13) 0.9956(3) 0.8123(7)
C3 C 0.6816(14) 0.9417(3) 0.7687(10)
H1 H 0.5078 0.9376 0.7404
C4 C 0.8319(17) 0.8996(3) 0.7682(9)
H2 H 1.0081 0.9060 0.7833
N2 N 1.2332(11) 0.9822(2) 0.2934(8)
C5 C 1.4602(13) 1.0103(3) 0.2586(8)
H3 H 1.5507 1.0118 0.1603
C6 C 1.5187(13) 1.0352(3) 0.4027(9)
H4 H 1.6643 1.0560 0.4196
C7 C 1.1671(13) 0.9929(3) 0.4493(8)
H5 H 1.0221 0.9792 0.5018
C8 C 0.8513(17) 0.7546(3) 0.8086(10)
H6 H 0.9552 0.7300 0.8607
C9 C 0.9103(16) 0.8069(3) 0.8229(9)
H7 H 1.0536 0.8168 0.8850
C10 C 0.5468(15) 0.8287(3) 0.6592(9)
H8 H 0.4433 0.8536 0.6079
C11 C 0.4823(16) 0.7771(3) 0.6455(8)
H9 H 0.3331 0.7680 0.5880
C12 C 1.0898(16) 0.9486(3) 0.1790(9)
H10 H 1.1365 0.9580 0.0680
H11 H 0.9051 0.9547 0.1921
C13 C 0.9826(16) 0.8612(3) 0.2947(10)
H12 H 0.8385 0.8769 0.3426
C14 C 1.3546(17) 0.8680(3) 0.1274(9)
H13 H 1.4640 0.8881 0.0625
C15 C 1.1457(17) 0.8902(3) 0.2054(10)
C16 C 1.0256(17) 0.8072(3) 0.3174(9)
H14 H 0.9151 0.7878 0.3838
C17 C 1.3996(15) 0.8145(3) 0.1473(9)
H15 H 1.5439 0.7995 0.0973
C18 C 1.2364(15) 0.7830(5) 0.2391(10)
C19 C 0.6333(14) 0.7376(3) 0.7150(9)
C20 C 0.5611(15) 0.6811(3) 0.6933(9)
H16 H 0.3752 0.6775 0.7095
H17 H 0.5992 0.6709 0.5817
C21 C 1.2980(16) 0.7270(3) 0.2626(9)
H18 H 1.4717 0.7178 0.2504
C22 C 1.1375(14) 0.6885(3) 0.2987(9)
H19 H 0.9607 0.6956 0.3058
N3 N 0.6938(11) 0.6455(2) 0.8033(7)
C23 C 1.2293(11) 0.6334(2) 0.3288(7)
C24 C 0.9132(14) 0.6196(3) 0.7704(9)
H20 H 1.0075 0.6202 0.6734
O2 O 1.0634(9) 0.59990(18) 0.3671(6)
O3 O 1.4717(9) 0.62620(19) 0.3211(6)
C25 C 0.9703(13) 0.5918(3) 0.9106(9)
H21 H 1.1105 0.5693 0.9232
N4 N 0.7879(11) 0.6027(2) 1.0288(7)
C26 C 0.6211(13) 0.6350(3) 0.9609(8)
H22 H 0.4751 0.6486 1.0125
O4 O 0.6062(9) 1.02779(19) 0.8538(6)
Co1_2 Co 0.27419(14) 1.06427(6) 0.74398(9)
Co1A Co 0.72581(14) 0.56427(6) 0.25602(9)
Co1A_2 Co 0.72581(14) 0.56427(6) 1.25602(9)
Co1A_3 Co 1.72581(14) 0.56427(6) 0.25602(9)
O2A O 0.9366(9) 1.09990(18) 0.6329(6)
O3A O 1.5283(9) 1.12620(19) 0.6789(6)
N4A N 1.2121(11) 1.1027(2) 0.9712(7)
O4_2 O 1.6062(9) 1.02779(19) 0.8538(6)
loop_
_geom_bond_atom_site_label_1
_geom_bond_atom_site_label_2
_geom_bond_site_symmetry_1
_geom_bond_site_symmetry_2
Co1 O1 1_555 1_555
O1 C2 1_555 1_555
N1 Co1 1_555 1_555
C1 C4 1_555 1_555
C2 C3 1_555 1_555
C3 H1 1_555 1_555
C4 C3 1_555 1_555
H2 C4 1_555 1_555
N2 C5 1_555 1_555
C5 H3 1_555 1_555
C6 N1 1_555 1_555
H4 C6 1_555 1_555
C7 N1 1_555 1_555
H5 C7 1_555 1_555
C8 H6 1_555 1_555
C9 C1 1_555 1_555
H7 C9 1_555 1_555
C10 C1 1_555 1_555
H8 C10 1_555 1_555
C11 C10 1_555 1_555
H9 C11 1_555 1_555
C12 N2 1_555 1_555
H10 C12 1_555 1_555
H11 C12 1_555 1_555
C13 H12 1_555 1_555
C14 H13 1_555 1_555
C15 C12 1_555 1_555
C16 C13 1_555 1_555
H14 C16 1_555 1_555
C17 C14 1_555 1_555
H15 C17 1_555 1_555
C18 C16 1_555 1_555
C19 C8 1_555 1_555
C20 C19 1_555 1_555
H16 C20 1_555 1_555
H17 C20 1_555 1_555
C21 C18 1_555 1_555
H18 C21 1_555 1_555
C22 C21 1_555 1_555
H19 C22 1_555 1_555
N3 C20 1_555 1_555
C23 C22 1_555 1_555
C24 N3 1_555 1_555
H20 C24 1_555 1_555
O2 C23 1_555 1_555
O3 C23 1_555 1_555
C25 C24 1_555 1_555
H21 C25 1_555 1_555
N4 C25 1_555 1_555
C26 N3 1_555 1_555
H22 C26 1_555 1_555
O4 C2 1_555 1_555
Co1_2 O4 1_555 1_555
Co1A O2 1_555 1_555
Co1A_2 N4 1_555 1_555
Co1A_3 O3 1_555 1_555
O2A Co1 1_555 1_555
O3A Co1 1_555 1_555
N4A Co1 1_555 1_555
O4_2 Co1 1_555 1_555
N2 C7 1_555 1_555
C5 C6 1_555 1_555
C8 C9 1_555 1_555
C11 C19 1_555 1_555
C13 C15 1_555 1_555
C14 C15 1_555 1_555
C17 C18 1_555 1_555
N4 C26 1_555 1_555

#END
