
#######################################################################
#
#                 Cambridge Crystallographic Data Centre
#                                CCDC 
#
#######################################################################
#
# If this CIF has been generated from an entry in the Cambridge 
# Structural Database, then it will include bibliographic, chemical, 
# crystal, experimental, refinement or atomic coordinate data resulting 
# from the CCDC's data processing and validation procedures.
#
#######################################################################

data_DUFCIS
_symmetry_cell_setting           triclinic
_symmetry_space_group_name_H-M   'P -1'
_symmetry_Int_Tables_number      2
_space_group_name_Hall           '-P 1'
loop_
_symmetry_equiv_pos_site_id
_symmetry_equiv_pos_as_xyz
1 x,y,z
2 -x,-y,-z
_cell_length_a                   11.39650(10)
_cell_length_b                   11.5112(6)
_cell_length_c                   12.04040(10)
_cell_angle_alpha                61.970(11)
_cell_angle_beta                 86.698(15)
_cell_angle_gamma                65.254(12)
_cell_volume                     1247.03
loop_
_atom_site_label
_atom_site_type_symbol
_atom_site_fract_x
_atom_site_fract_y
_atom_site_fract_z
Eu1 Eu 0.42341(3) 0.13987(3) 0.31690(3)
C1 C 1.2182(6) 0.1584(8) 0.1739(6)
C2 C 0.6477(5) 0.1310(6) 0.4297(5)
C3 C 0.6986(6) -0.1794(6) 0.4301(6)
C4 C 1.1128(10) 0.2036(11) 0.0699(7)
H1 H 1.0306 0.2785 0.0759
C5 C 1.1413(9) 0.2780(11) -0.0569(7)
H2 H 1.2112 0.2064 -0.0749
H3 H 1.1693 0.3494 -0.0609
H4 H 1.0619 0.3292 -0.1204
C6 C 0.7723(5) 0.1133(7) 0.4899(5)
H5 H 0.8175 0.0113 0.5638
C7 C 0.7352(7) 0.2216(8) 0.5393(6)
H6 H 0.6749 0.2054 0.5998
H7 H 0.8145 0.2072 0.5824
H8 H 0.6925 0.3222 0.4675
C8 C 0.8217(6) -0.2822(7) 0.4051(6)
H9 H 0.8907 -0.3422 0.4832
C9 C 0.7890(9) -0.3838(8) 0.3843(8)
H10 H 0.7533 -0.4351 0.4573
H11 H 0.7237 -0.3274 0.3063
H12 H 0.8686 -0.4557 0.3755
C10 C 1.0120(6) 0.0398(7) 0.1798(6)
C11 C 0.9075(6) 0.0602(7) 0.3382(6)
C12 C 0.9092(5) -0.1007(7) 0.2821(6)
C13 C 0.2782(7) 0.5107(8) 0.2258(7)
H13 H 0.2702 0.4671 0.3134
C14 C 0.2320(7) 0.6600(8) 0.1583(8)
H14 H 0.1913 0.7191 0.1969
C15 C 0.2471(7) 0.7215(8) 0.0315(8)
H15 H 0.2198 0.8243 -0.0178
C16 C 0.3002(7) 0.6359(8) -0.0220(7)
H16 H 0.3086 0.6784 -0.1095
C17 C 0.3430(6) 0.4845(7) 0.0512(6)
C18 C 0.4031(6) 0.3846(7) -0.0025(6)
C19 C 0.4070(7) 0.4383(9) -0.1320(7)
H17 H 0.3686 0.5411 -0.1898
C20 C 0.4683(8) 0.3386(10) -0.1751(7)
H18 H 0.4718 0.3726 -0.2634
C21 C 0.5240(8) 0.1905(9) -0.0898(7)
H19 H 0.5669 0.1205 -0.1174
C22 C 0.5155(7) 0.1471(8) 0.0363(7)
H20 H 0.5539 0.0447 0.0954
N1 N 1.0833(5) 0.0835(6) 0.0900(5)
H21 H 1.1120 0.0401 0.0435
N2 N 0.8616(5) 0.1359(6) 0.4002(5)
H22 H 0.8870 0.2035 0.3858
N3 N 0.8750(5) -0.2051(6) 0.2968(5)
H23 H 0.8858 -0.2288 0.2360
N4 N 0.9751(5) -0.0587(6) 0.1855(5)
N5 N 0.9813(5) 0.1026(6) 0.2526(5)
N6 N 0.8764(5) -0.0506(6) 0.3648(5)
N7 N 0.3339(5) 0.4226(5) 0.1759(5)
N8 N 0.4571(5) 0.2390(6) 0.0813(5)
O1 O 1.3241(4) 0.0452(5) 0.2108(4)
O2 O 1.1981(4) 0.2483(5) 0.2129(4)
O3 O 0.6014(4) 0.2167(4) 0.3138(4)
O4 O 0.5903(4) 0.0587(4) 0.5031(4)
O5 O 0.6141(4) -0.0672(4) 0.3364(4)
O6 O 0.6902(4) -0.2251(5) 0.5456(4)
Eu1_2 Eu 1.42341(3) 0.13987(3) 0.31690(3)
Eu1A Eu 0.57659(3) -0.13987(3) 0.68310(3)
O1_2 O 0.3241(4) 0.0452(5) 0.2108(4)
O2_2 O 0.1981(4) 0.2483(5) 0.2129(4)
O4A O 0.4097(4) -0.0587(4) 0.4969(4)
O6A O 0.3098(4) 0.2251(5) 0.4544(4)
O7 O 0.9944(5) 0.3213(6) 0.3484(6)
H24 H 1.0249 0.2649 0.4278
H25 H 1.0603 0.3151 0.3106
loop_
_geom_bond_atom_site_label_1
_geom_bond_atom_site_label_2
_geom_bond_site_symmetry_1
_geom_bond_site_symmetry_2
Eu1 N7 1_555 1_555
C1 C4 1_555 1_555
C2 C6 1_555 1_555
C3 C8 1_555 1_555
C4 H1 1_555 1_555
C5 C4 1_555 1_555
H2 C5 1_555 1_555
H3 C5 1_555 1_555
H4 C5 1_555 1_555
C6 H5 1_555 1_555
C7 C6 1_555 1_555
H6 C7 1_555 1_555
H7 C7 1_555 1_555
H8 C7 1_555 1_555
C8 H9 1_555 1_555
C9 C8 1_555 1_555
H10 C9 1_555 1_555
H11 C9 1_555 1_555
H12 C9 1_555 1_555
C10 N1 1_555 1_555
C11 N2 1_555 1_555
C12 N3 1_555 1_555
C13 H13 1_555 1_555
C14 C13 1_555 1_555
H14 C14 1_555 1_555
C15 C14 1_555 1_555
H15 C15 1_555 1_555
C16 C15 1_555 1_555
H16 C16 1_555 1_555
C17 C16 1_555 1_555
C18 C17 1_555 1_555
C19 C18 1_555 1_555
H17 C19 1_555 1_555
C20 C19 1_555 1_555
H18 C20 1_555 1_555
C21 C20 1_555 1_555
H19 C21 1_555 1_555
C22 C21 1_555 1_555
H20 C22 1_555 1_555
N1 C4 1_555 1_555
H21 N1 1_555 1_555
N2 C6 1_555 1_555
H22 N2 1_555 1_555
N3 C8 1_555 1_555
H23 N3 1_555 1_555
N4 C10 1_555 1_555
N5 C10 1_555 1_555
N6 C11 1_555 1_555
N7 C13 1_555 1_555
N8 Eu1 1_555 1_555
O1 C1 1_555 1_555
O2 C1 1_555 1_555
O3 Eu1 1_555 1_555
O4 Eu1 1_555 1_555
O5 Eu1 1_555 1_555
O6 C3 1_555 1_555
O7 H24 1_555 1_555
H25 O7 1_555 1_555
Eu1_2 O1 1_555 1_555
Eu1A O4 1_555 1_555
O1_2 Eu1 1_555 1_555
O2_2 Eu1 1_555 1_555
O4A Eu1 1_555 1_555
O6A Eu1 1_555 1_555
C2 O3 1_555 1_555
C2 O4 1_555 1_555
C3 O5 1_555 1_555
C11 N5 1_555 1_555
C12 N4 1_555 1_555
C12 N6 1_555 1_555
C17 N7 1_555 1_555
C18 N8 1_555 1_555
C22 N8 1_555 1_555
O2 Eu1_2 1_555 1_555
O6 Eu1A 1_555 1_555
Eu1A O4A 1_555 1_555

#END
