
#######################################################################
#
#                 Cambridge Crystallographic Data Centre
#                                CCDC 
#
#######################################################################
#
# If this CIF has been generated from an entry in the Cambridge 
# Structural Database, then it will include bibliographic, chemical, 
# crystal, experimental, refinement or atomic coordinate data resulting 
# from the CCDC's data processing and validation procedures.
#
#######################################################################

data_DUFDIS
_symmetry_cell_setting           monoclinic
_symmetry_space_group_name_H-M   'C 2/c'
_symmetry_Int_Tables_number      15
_space_group_name_Hall           '-C 2yn'
loop_
_symmetry_equiv_pos_site_id
_symmetry_equiv_pos_as_xyz
1 x,y,z
2 -x,y,1/2-z
3 1/2+x,1/2+y,z
4 1/2-x,1/2+y,1/2-z
5 -x,-y,-z
6 x,-y,1/2+z
7 1/2-x,1/2-y,-z
8 1/2+x,1/2-y,1/2+z
_cell_length_a                   16.634(3)
_cell_length_b                   13.812(2)
_cell_length_c                   11.169(2)
_cell_angle_alpha                90
_cell_angle_beta                 102.494(3)
_cell_angle_gamma                90
_cell_volume                     2505.3
loop_
_atom_site_label
_atom_site_type_symbol
_atom_site_fract_x
_atom_site_fract_y
_atom_site_fract_z
Cu1 Cu -0.09399(5) -0.07277(6) 0.14190(7)
Se1 Se 0.05985(4) 0.05911(5) 0.13358(6)
O1 O 0.0186(3) -0.0549(3) 0.1228(4)
O2 O 0.1026(3) 0.0576(3) 0.2870(4)
O3 O 0.1405(3) 0.0420(3) 0.0690(4)
N1 N -0.0835(4) -0.2172(4) 0.1212(5)
N2 N -0.2042(4) -0.1139(4) 0.1659(5)
C1 C -0.0187(5) -0.2633(5) 0.0950(6)
H1 H 0.0283 -0.2266 0.0877
C2 C -0.0177(5) -0.3627(5) 0.0780(6)
H2 H 0.0299 -0.3939 0.0624
C3 C -0.0891(5) -0.4170(5) 0.0842(6)
H3 H -0.0915 -0.4848 0.0691
C4 C -0.1541(5) -0.3688(5) 0.1125(6)
H4 H -0.2024 -0.4033 0.1191
C5 C -0.1500(5) -0.2683(5) 0.1320(6)
C6 C -0.2163(4) -0.2110(5) 0.1650(6)
C7 C -0.2878(5) -0.2495(6) 0.1914(7)
H5 H -0.2961 -0.3176 0.1901
C8 C -0.3464(5) -0.1881(5) 0.2193(7)
H6 H -0.3950 -0.2130 0.2399
C9 C -0.3332(5) -0.0910(6) 0.2168(7)
H7 H -0.3738 -0.0478 0.2338
C10 C -0.2622(4) -0.0541(5) 0.1901(6)
H8 H -0.2542 0.0140 0.1888
Cu1A Cu 0.09399(5) -0.07277(6) 0.35810(7)
Cu1D Cu 0.09399(5) 0.07277(6) -0.14190(7)
O2A O -0.1026(3) 0.0576(3) 0.2130(4)
O3D O -0.1405(3) -0.0420(3) -0.0690(4)
O4 O 0.1685(4) 0.1479(4) 0.5050(5)
H9 H 0.142(6) 0.143(7) 0.442(8)
H10 H 0.166(5) 0.091(6) 0.547(8)
O5 O 0.1656(4) 0.3524(4) 0.5285(6)
H11 H 0.154(6) 0.299(7) 0.513(9)
H12 H 0.213(6) 0.361(7) 0.514(9)
loop_
_geom_bond_atom_site_label_1
_geom_bond_atom_site_label_2
_geom_bond_site_symmetry_1
_geom_bond_site_symmetry_2
Cu1 O1 1_555 1_555
Se1 O1 1_555 1_555
O2 Se1 1_555 1_555
O3 Se1 1_555 1_555
N1 Cu1 1_555 1_555
N2 Cu1 1_555 1_555
C1 N1 1_555 1_555
H1 C1 1_555 1_555
C2 C1 1_555 1_555
H2 C2 1_555 1_555
C3 C2 1_555 1_555
H3 C3 1_555 1_555
C4 C3 1_555 1_555
H4 C4 1_555 1_555
C5 N1 1_555 1_555
C6 N2 1_555 1_555
C7 C6 1_555 1_555
H5 C7 1_555 1_555
C8 C7 1_555 1_555
H6 C8 1_555 1_555
C9 C8 1_555 1_555
H7 C9 1_555 1_555
C10 N2 1_555 1_555
H8 C10 1_555 1_555
O4 H9 1_555 1_555
H10 O4 1_555 1_555
O5 H11 1_555 1_555
H12 O5 1_555 1_555
Cu1A O2 1_555 1_555
Cu1D O3 1_555 1_555
O2A Cu1 1_555 1_555
O3D Cu1 1_555 1_555
C4 C5 1_555 1_555
C5 C6 1_555 1_555
C9 C10 1_555 1_555

#END
