
#######################################################################
#
#                 Cambridge Crystallographic Data Centre
#                                CCDC 
#
#######################################################################
#
# If this CIF has been generated from an entry in the Cambridge 
# Structural Database, then it will include bibliographic, chemical, 
# crystal, experimental, refinement or atomic coordinate data resulting 
# from the CCDC's data processing and validation procedures.
#
#######################################################################

data_DUFDOY
_symmetry_cell_setting           monoclinic
_symmetry_space_group_name_H-M   'C 2/c'
_symmetry_Int_Tables_number      15
_space_group_name_Hall           '-C 2yn'
loop_
_symmetry_equiv_pos_site_id
_symmetry_equiv_pos_as_xyz
1 x,y,z
2 -x,y,1/2-z
3 1/2+x,1/2+y,z
4 1/2-x,1/2+y,1/2-z
5 -x,-y,-z
6 x,-y,1/2+z
7 1/2-x,1/2-y,-z
8 1/2+x,1/2-y,1/2+z
_cell_length_a                   19.7502(5)
_cell_length_b                   14.0656(3)
_cell_length_c                   11.1977(3)
_cell_angle_alpha                90
_cell_angle_beta                 104.1590(10)
_cell_angle_gamma                90
_cell_volume                     3016.2
loop_
_atom_site_label
_atom_site_type_symbol
_atom_site_fract_x
_atom_site_fract_y
_atom_site_fract_z
O4 O 0.3221(4) 0.1261(5) -0.0036(6)
H9 H 0.310(7) 0.083(5) -0.051(6)
H10 H 0.335(5) 0.105(6) 0.065(3)
O5 O 0.1748(4) 0.1699(6) -0.0018(8)
H11 H 0.206(4) 0.155(7) -0.033(10)
H12 H 0.187(4) 0.222(3) 0.026(7)
Cu1 Cu 0.57620(3) -0.08008(5) 0.36751(6)
Se1 Se 0.44423(2) 0.05480(4) 0.35577(4)
O1 O 0.48143(18) -0.0549(3) 0.3771(3)
O2 O 0.4050(2) 0.0446(3) 0.2011(3)
O3 O 0.37842(19) 0.0429(3) 0.4237(4)
N1 N 0.5543(2) -0.2190(3) 0.3946(4)
N2 N 0.6657(2) -0.1399(4) 0.3467(4)
C1 C 0.4962(3) -0.2570(5) 0.4169(6)
H1 H 0.4610 -0.2166 0.4281
C2 C 0.4870(4) -0.3552(5) 0.4239(7)
H2 H 0.4458 -0.3796 0.4378
C3 C 0.5395(5) -0.4155(5) 0.4099(8)
H3 H 0.5337 -0.4809 0.4138
C4 C 0.6015(4) -0.3784(5) 0.3898(6)
C5 C 0.6053(3) -0.2797(4) 0.3806(5)
C6 C 0.6661(3) -0.2362(5) 0.3568(5)
C7 C 0.7222(3) -0.2926(6) 0.3421(6)
C8 C 0.7803(4) -0.2455(7) 0.3212(6)
H4 H 0.8188 -0.2803 0.3122
C9 C 0.7809(4) -0.1490(7) 0.3141(7)
H5 H 0.8197 -0.1176 0.3004
C10 C 0.7211(3) -0.0957(6) 0.3279(6)
H6 H 0.7215 -0.0297 0.3234
C11 C 0.6597(5) -0.4329(6) 0.3739(8)
H7 H 0.6577 -0.4988 0.3781
C12 C 0.7165(4) -0.3928(7) 0.3535(7)
H8 H 0.7536 -0.4312 0.3465
Cu1A Cu 0.42380(3) -0.08008(5) 0.13249(6)
Cu1D Cu 0.42380(3) 0.08008(5) 0.63249(6)
O2A O 0.5950(2) 0.0446(3) 0.2989(3)
O3D O 0.62158(19) -0.0429(3) 0.5763(4)
loop_
_geom_bond_atom_site_label_1
_geom_bond_atom_site_label_2
_geom_bond_site_symmetry_1
_geom_bond_site_symmetry_2
Cu1 O1 1_555 1_555
Se1 O1 1_555 1_555
O2 Se1 1_555 1_555
O3 Se1 1_555 1_555
N1 Cu1 1_555 1_555
N2 Cu1 1_555 1_555
C1 N1 1_555 1_555
H1 C1 1_555 1_555
C2 C1 1_555 1_555
H2 C2 1_555 1_555
C3 C2 1_555 1_555
H3 C3 1_555 1_555
C4 C3 1_555 1_555
C5 N1 1_555 1_555
C6 N2 1_555 1_555
C7 C6 1_555 1_555
C8 C7 1_555 1_555
H4 C8 1_555 1_555
C9 C8 1_555 1_555
H5 C9 1_555 1_555
C10 N2 1_555 1_555
H6 C10 1_555 1_555
C11 C4 1_555 1_555
H7 C11 1_555 1_555
C12 C7 1_555 1_555
H8 C12 1_555 1_555
O4 H9 1_555 1_555
H10 O4 1_555 1_555
O5 H11 1_555 1_555
H12 O5 1_555 1_555
Cu1A O2 1_555 1_555
Cu1D O3 1_555 1_555
O2A Cu1 1_555 1_555
O3D Cu1 1_555 1_555
C4 C5 1_555 1_555
C5 C6 1_555 1_555
C9 C10 1_555 1_555
C11 C12 1_555 1_555

#END
