
#######################################################################
#
#                 Cambridge Crystallographic Data Centre
#                                CCDC 
#
#######################################################################
#
# If this CIF has been generated from an entry in the Cambridge 
# Structural Database, then it will include bibliographic, chemical, 
# crystal, experimental, refinement or atomic coordinate data resulting 
# from the CCDC's data processing and validation procedures.
#
#######################################################################

data_DUFFIU
_symmetry_cell_setting           orthorhombic
_symmetry_space_group_name_H-M   'P b c a'
_symmetry_Int_Tables_number      61
_space_group_name_Hall           '-P 2ac 2ab'
loop_
_symmetry_equiv_pos_site_id
_symmetry_equiv_pos_as_xyz
1 x,y,z
2 1/2-x,-y,1/2+z
3 -x,1/2+y,1/2-z
4 1/2+x,1/2-y,-z
5 -x,-y,-z
6 1/2+x,y,1/2-z
7 x,1/2-y,1/2+z
8 1/2-x,1/2+y,z
_cell_length_a                   14.643(3)
_cell_length_b                   17.390(4)
_cell_length_c                   33.613(7)
_cell_angle_alpha                90
_cell_angle_beta                 90
_cell_angle_gamma                90
_cell_volume                     8559.27
loop_
_atom_site_label
_atom_site_type_symbol
_atom_site_fract_x
_atom_site_fract_y
_atom_site_fract_z
W1 W 0.59019(4) -1.06843(3) 0.592752(17)
Cu1 Cu 0.42940(14) -1.13677(12) 0.59342(6)
Cu2 Cu 0.54581(15) -1.13183(12) 0.66258(6)
Cu3 Cu 0.46106(14) -0.99530(12) 0.63377(7)
S1 S 0.6064(3) -1.0150(2) 0.65434(12)
S2 S 0.4555(3) -1.0208(2) 0.56851(13)
S3 S 0.5612(3) -1.1966(2) 0.60558(12)
N1 N 0.8002(8) -1.0778(7) 0.5668(4)
N2 N 0.7422(8) -1.0994(7) 0.5968(3)
N3 N 0.6184(9) -1.1065(8) 0.5296(4)
C1 C 0.7539(11) -0.8853(9) 0.5349(5)
N4 N 0.6954(9) -1.0848(7) 0.5095(3)
N5 N 0.7267(9) -0.9585(7) 0.5439(3)
C2 C 0.7577(12) -1.1707(11) 0.6628(5)
H1 H 0.7373 -1.1302 0.6800
H2 H 0.8061 -1.1987 0.6755
H3 H 0.7078 -1.2049 0.6573
C3 C 0.5760(12) -1.1531(9) 0.5036(5)
N6 N 0.3873(11) -1.0985(10) 0.6669(5)
C4 C 0.8811(10) -1.1390(9) 0.6126(5)
H4 H 0.9293 -1.1609 0.6266
N7 N 0.3148(10) -1.1805(9) 0.5883(5)
C5 C 0.9668(13) -1.0887(12) 0.5488(7)
H5 H 0.9873 -1.0365 0.5517
H6 H 0.9482 -1.0973 0.5218
H7 H 1.0156 -1.1232 0.5555
N8 N 0.6549(8) -0.9567(7) 0.5705(4)
C6 C 0.5319(10) -1.1943(9) 0.7456(5)
C7 C 0.5715(13) -0.8511(10) 0.6063(6)
H8 H 0.5117 -0.8695 0.5995
H9 H 0.5722 -0.7959 0.6052
H10 H 0.5868 -0.8677 0.6327
C8 C 0.7024(11) -0.8375(9) 0.5569(5)
H11 H 0.7082 -0.7843 0.5578
C9 C 0.7923(11) -1.1366(9) 0.6242(4)
N9 N 0.5417(10) -1.1774(10) 0.7142(4)
C10 C 0.6377(12) -0.8816(8) 0.5784(5)
C11 C 0.8859(11) -1.1029(9) 0.5767(5)
C12 C 0.7770(18) -1.1055(17) 0.4449(6)
H12 H 0.7743 -1.0538 0.4350
H13 H 0.7723 -1.1410 0.4231
H14 H 0.8339 -1.1134 0.4585
C13 C 0.6985(16) -1.1188(12) 0.4736(5)
B1 B 0.7687(12) -1.0329(10) 0.5302(6)
S4 S 0.2410(4) -1.1171(4) 0.71808(17)
S5 S 0.5102(3) -1.2224(3) 0.79145(13)
S6 S 0.1320(4) -1.1947(4) 0.61440(16)
C14 C 0.6217(14) -1.1598(11) 0.4688(5)
H15 H 0.6037 -1.1870 0.4464
C15 C 0.3256(12) -1.1099(9) 0.6868(5)
C16 C 0.2383(14) -1.1860(11) 0.6004(5)
C17 C 0.8304(16) -0.8696(12) 0.5064(7)
H16 H 0.8873 -0.8694 0.5206
H17 H 0.8211 -0.8205 0.4941
H18 H 0.8317 -0.9089 0.4864
C18 C 0.4843(14) -1.1907(11) 0.5118(6)
H19 H 0.4904 -1.2263 0.5334
H20 H 0.4643 -1.2177 0.4884
H21 H 0.4404 -1.1519 0.5186
N10 N 0.3822(12) -0.9223(8) 0.6566(5)
C19 C 0.3304(14) -0.8815(10) 0.6677(8)
Cu4 Cu 0.15720(15) -1.20830(13) 0.68352(7)
S7 S 0.2563(5) -0.8214(4) 0.6888(4)
S5E S 0.0102(3) -1.2224(3) 0.70855(13)
Cu4E Cu 0.65720(15) -1.20830(13) 0.81648(7)
Cu4G Cu 0.34280(15) -0.70830(13) 0.68352(7)
S7G S 0.2437(5) -1.3214(4) 0.6888(4)
N11 N 0.9669(13) -0.9371(8) 0.6870(5)
C20 C 1.014(3) -0.895(2) 0.7212(11)
H22 H 1.0597 -0.8614 0.7100
H23 H 0.9685 -0.8627 0.7340
C21 C 1.021(2) -1.0025(14) 0.6689(10)
H24 H 0.9839 -1.0305 0.6498
H25 H 1.0410 -1.0379 0.6894
C22 C 0.941(3) -0.8798(16) 0.6578(10)
H26 H 0.9957 -0.8605 0.6448
H27 H 0.9121 -0.8369 0.6712
C23 C 1.057(3) -0.941(2) 0.7514(10)
H28 H 1.0106 -0.9651 0.7675
H29 H 1.0943 -0.9089 0.7678
H30 H 1.0936 -0.9799 0.7391
C24 C 1.105(3) -0.964(3) 0.6477(14)
H31 H 1.1426 -1.0025 0.6356
H32 H 1.1409 -0.9359 0.6670
H33 H 1.0841 -0.9285 0.6276
C25 C 0.892(2) -0.9891(19) 0.7060(13)
H34 H 0.8651 -1.0227 0.6863
H35 H 0.9176 -1.0202 0.7273
C26 C 0.820(3) -0.9306(19) 0.7226(11)
H36 H 0.8363 -0.9164 0.7493
H37 H 0.7608 -0.9541 0.7226
H38 H 0.8191 -0.8856 0.7061
C27 C 0.877(3) -0.911(2) 0.6265(11)
H39 H 0.8616 -0.9632 0.6327
H40 H 0.9055 -0.9085 0.6009
H41 H 0.8219 -0.8804 0.6262
loop_
_geom_bond_atom_site_label_1
_geom_bond_atom_site_label_2
_geom_bond_site_symmetry_1
_geom_bond_site_symmetry_2
W1 S1 1_555 1_555
Cu1 S2 1_555 1_555
Cu2 S1 1_555 1_555
Cu3 S1 1_555 1_555
S2 W1 1_555 1_555
S3 W1 1_555 1_555
N1 N2 1_555 1_555
N2 W1 1_555 1_555
N3 W1 1_555 1_555
C1 N5 1_555 1_555
N4 N3 1_555 1_555
N5 N8 1_555 1_555
C2 H1 1_555 1_555
H2 C2 1_555 1_555
H3 C2 1_555 1_555
C3 N3 1_555 1_555
N6 Cu1 1_555 1_555
C4 H4 1_555 1_555
N7 Cu1 1_555 1_555
C5 H5 1_555 1_555
H6 C5 1_555 1_555
H7 C5 1_555 1_555
N8 W1 1_555 1_555
C6 N9 1_555 1_555
C7 H8 1_555 1_555
H9 C7 1_555 1_555
H10 C7 1_555 1_555
C8 C1 1_555 1_555
H11 C8 1_555 1_555
C9 N2 1_555 1_555
N9 Cu2 1_555 1_555
C10 N8 1_555 1_555
C11 N1 1_555 1_555
C12 H12 1_555 1_555
H13 C12 1_555 1_555
H14 C12 1_555 1_555
C13 N4 1_555 1_555
B1 N1 1_555 1_555
S4 C15 1_555 1_555
S5 C6 1_555 1_555
S6 C16 1_555 1_555
C14 C3 1_555 1_555
H15 C14 1_555 1_555
C15 N6 1_555 1_555
C16 N7 1_555 1_555
C17 C1 1_555 1_555
H16 C17 1_555 1_555
H17 C17 1_555 1_555
H18 C17 1_555 1_555
C18 C3 1_555 1_555
H19 C18 1_555 1_555
H20 C18 1_555 1_555
H21 C18 1_555 1_555
N10 Cu3 1_555 1_555
C19 N10 1_555 1_555
Cu4 S4 1_555 1_555
S7 C19 1_555 1_555
N11 C20 1_555 1_555
C20 H22 1_555 1_555
H23 C20 1_555 1_555
C21 N11 1_555 1_555
H24 C21 1_555 1_555
H25 C21 1_555 1_555
C22 N11 1_555 1_555
H26 C22 1_555 1_555
H27 C22 1_555 1_555
C23 C20 1_555 1_555
H28 C23 1_555 1_555
H29 C23 1_555 1_555
H30 C23 1_555 1_555
C24 C21 1_555 1_555
H31 C24 1_555 1_555
H32 C24 1_555 1_555
H33 C24 1_555 1_555
C25 N11 1_555 1_555
H34 C25 1_555 1_555
H35 C25 1_555 1_555
C26 C25 1_555 1_555
H36 C26 1_555 1_555
H37 C26 1_555 1_555
H38 C26 1_555 1_555
C27 C22 1_555 1_555
H39 C27 1_555 1_555
H40 C27 1_555 1_555
H41 C27 1_555 1_555
S5E Cu4 1_555 1_555
Cu4E S5 1_555 1_555
Cu4G S7 1_555 1_555
S7G Cu4 1_555 1_555
Cu1 S3 1_555 1_555
Cu2 S3 1_555 1_555
Cu2 N6 1_555 1_555
Cu3 S2 1_555 1_555
Cu3 N6 1_555 1_555
N4 B1 1_555 1_555
N5 B1 1_555 1_555
C2 C9 1_555 1_555
C4 C9 1_555 1_555
C4 C11 1_555 1_555
C5 C11 1_555 1_555
C7 C10 1_555 1_555
C8 C10 1_555 1_555
C12 C13 1_555 1_555
C13 C14 1_555 1_555
S6 Cu4 1_555 1_555

#END
