
#######################################################################
#
#                 Cambridge Crystallographic Data Centre
#                                CCDC 
#
#######################################################################
#
# If this CIF has been generated from an entry in the Cambridge 
# Structural Database, then it will include bibliographic, chemical, 
# crystal, experimental, refinement or atomic coordinate data resulting 
# from the CCDC's data processing and validation procedures.
#
#######################################################################

data_DUFGIW
_symmetry_cell_setting           monoclinic
_symmetry_space_group_name_H-M   'P 21/c'
_symmetry_Int_Tables_number      14
_space_group_name_Hall           '-P 2ybc'
loop_
_symmetry_equiv_pos_site_id
_symmetry_equiv_pos_as_xyz
1 x,y,z
2 -x,1/2+y,1/2-z
3 -x,-y,-z
4 x,1/2-y,1/2+z
_cell_length_a                   16.158(4)
_cell_length_b                   4.9733(12)
_cell_length_c                   9.159(2)
_cell_angle_alpha                90
_cell_angle_beta                 104.786(4)
_cell_angle_gamma                90
_cell_volume                     711.632
loop_
_atom_site_label
_atom_site_type_symbol
_atom_site_fract_x
_atom_site_fract_y
_atom_site_fract_z
Cu1 Cu 0.0000 0.5000 0.5000
S1 S 0.35991(10) 0.8878(4) 0.65739(17)
O1 O 0.04066(18) 0.2567(5) 0.3716(3)
O2 O 0.12081(19) 0.2380(6) 0.2073(3)
O3 O 0.08247(18) 0.7487(5) 0.4521(3)
H1 H 0.0874 0.9273 0.4831
C1 C 0.0974(3) 0.3559(8) 0.3079(4)
C2 C 0.1352(3) 0.6292(8) 0.3637(4)
H2 H 0.1350 0.7447 0.2769
C3 C 0.2264(3) 0.6039(10) 0.4626(5)
H3 H 0.2261 0.5045 0.5535
H4 H 0.2611 0.5054 0.4086
C4 C 0.2647(3) 0.8816(11) 0.5046(6)
H5 H 0.2218 0.9941 0.5315
H6 H 0.2778 0.9605 0.4162
C5 C 0.4329(4) 0.6999(18) 0.5828(9)
H7 H 0.4195 0.5120 0.5843
H8 H 0.4901 0.7305 0.6429
H9 H 0.4285 0.7555 0.4807
S1B S -0.35991(10) 0.1122(4) 0.34261(17)
O1B O -0.04066(18) 0.7433(5) 0.6284(3)
O2B O -0.12081(19) 0.7620(6) 0.7927(3)
O3B O -0.08247(18) 0.2513(5) 0.5479(3)
H1B H -0.0874 0.0727 0.5169
C1B C -0.0974(3) 0.6441(8) 0.6921(4)
C2B C -0.1352(3) 0.3708(8) 0.6363(4)
H2B H -0.1350 0.2553 0.7231
C3B C -0.2264(3) 0.3961(10) 0.5374(5)
H3B H -0.2261 0.4955 0.4465
H4B H -0.2611 0.4946 0.5914
C4B C -0.2647(3) 0.1184(11) 0.4954(6)
H5B H -0.2218 0.0059 0.4685
H6B H -0.2778 0.0395 0.5838
C5B C -0.4329(4) 0.3001(18) 0.4172(9)
H7B H -0.4195 0.4880 0.4157
H8B H -0.4901 0.2695 0.3571
H9B H -0.4285 0.2445 0.5193
Cu1A Cu 0.0000 0.0000 0.0000
Cu1A_2 Cu 0.0000 1.0000 1.0000
O2A O -0.12081(19) 0.7380(6) 0.2927(3)
O2C O 0.12081(19) 0.2620(6) 0.7073(3)
loop_
_geom_bond_atom_site_label_1
_geom_bond_atom_site_label_2
_geom_bond_site_symmetry_1
_geom_bond_site_symmetry_2
Cu1 O1 1_555 1_555
S1 C4 1_555 1_555
O1 C1 1_555 1_555
O2 C1 1_555 1_555
O3 Cu1 1_555 1_555
H1 O3 1_555 1_555
C1 C2 1_555 1_555
C2 O3 1_555 1_555
H2 C2 1_555 1_555
C3 C2 1_555 1_555
H3 C3 1_555 1_555
H4 C3 1_555 1_555
C4 C3 1_555 1_555
H5 C4 1_555 1_555
H6 C4 1_555 1_555
C5 S1 1_555 1_555
H7 C5 1_555 1_555
H8 C5 1_555 1_555
H9 C5 1_555 1_555
S1B C4B 1_555 1_555
O1B Cu1 1_555 1_555
O2B C1B 1_555 1_555
O3B Cu1 1_555 1_555
H1B O3B 1_555 1_555
C1B O1B 1_555 1_555
C2B O3B 1_555 1_555
H2B C2B 1_555 1_555
C3B C2B 1_555 1_555
H3B C3B 1_555 1_555
H4B C3B 1_555 1_555
C4B C3B 1_555 1_555
H5B C4B 1_555 1_555
H6B C4B 1_555 1_555
C5B S1B 1_555 1_555
H7B C5B 1_555 1_555
H8B C5B 1_555 1_555
H9B C5B 1_555 1_555
Cu1A O2 1_555 1_555
Cu1A_2 O2B 1_555 1_555
O2A Cu1 1_555 1_555
O2C Cu1 1_555 1_555
C1B C2B 1_555 1_555

#END
