
#######################################################################
#
#                 Cambridge Crystallographic Data Centre
#                                CCDC 
#
#######################################################################
#
# If this CIF has been generated from an entry in the Cambridge 
# Structural Database, then it will include bibliographic, chemical, 
# crystal, experimental, refinement or atomic coordinate data resulting 
# from the CCDC's data processing and validation procedures.
#
#######################################################################

data_DUFGAO
_symmetry_cell_setting           orthorhombic
_symmetry_space_group_name_H-M   'P n a 21'
_symmetry_Int_Tables_number      33
_space_group_name_Hall           'P 2c -2n'
loop_
_symmetry_equiv_pos_site_id
_symmetry_equiv_pos_as_xyz
1 x,y,z
2 -x,-y,1/2+z
3 1/2+x,1/2-y,z
4 1/2-x,1/2+y,1/2+z
_cell_length_a                   19.259(2)
_cell_length_b                   9.85070(12)
_cell_length_c                   16.3827(17)
_cell_angle_alpha                90
_cell_angle_beta                 90
_cell_angle_gamma                90
_cell_volume                     3108.04
loop_
_atom_site_label
_atom_site_type_symbol
_atom_site_fract_x
_atom_site_fract_y
_atom_site_fract_z
Ag1 Ag 0.12109(3) 0.35015(6) 0.05665(6)
P1 P 0.13451(10) 0.58946(19) 0.0554(3)
S1 S 0.29804(13) 0.1691(3) 0.0455(2)
F1 F 0.2701(6) 0.3671(10) -0.0576(7)
F2 F 0.3204(5) 0.4267(10) 0.0487(11)
F3 F 0.3807(5) 0.3246(12) -0.0361(8)
N1 N 0.0890(5) 0.2253(10) -0.0564(6)
N2 N -0.0680(5) -0.2033(10) -0.3500(6)
O1 O 0.2307(4) 0.1949(9) 0.0803(4)
O2 O 0.2982(6) 0.0719(11) -0.0229(7)
O3 O 0.3536(5) 0.1459(10) 0.1035(6)
C1 C 0.3172(8) 0.3260(16) -0.0034(10)
C2 C 0.1181(7) 0.1030(18) -0.0775(9)
H1 H 0.1598 0.0771 -0.0535
C3 C 0.0871(6) 0.0174(13) -0.1331(8)
H2 H 0.1049 -0.0693 -0.1416
C4 C 0.0281(5) 0.0616(11) -0.1775(6)
C5 C 0.0024(6) 0.1812(11) -0.1604(7)
H3 H -0.0368 0.2111 -0.1882
C6 C 0.0325(6) 0.2650(12) -0.1017(7)
H4 H 0.0137 0.3508 -0.0929
C7 C -0.0012(5) -0.1988(10) -0.3448(6)
H5 H 0.0245 -0.2549 -0.3790
C8 C 0.0348(5) -0.1143(11) -0.2905(7)
H6 H 0.0831 -0.1125 -0.2892
C9 C -0.0046(5) -0.0332(11) -0.2388(7)
C10 C -0.0770(6) -0.0330(14) -0.2471(9)
H7 H -0.1059 0.0200 -0.2146
C11 C -0.1024(7) -0.1192(15) -0.3082(8)
H8 H -0.1497 -0.1139 -0.3191
C12 C 0.1665(7) 0.6526(12) -0.0451(7)
C13 C 0.2238(7) 0.7318(15) -0.0588(8)
H9 H 0.2487 0.7614 -0.0136
C14 C 0.2463(7) 0.7695(18) -0.1325(9)
H10 H 0.2846 0.8264 -0.1380
C15 C 0.2110(7) 0.7216(14) -0.2011(8)
H11 H 0.2262 0.7416 -0.2536
C16 C 0.1538(8) 0.6448(12) -0.1882(7)
H12 H 0.1289 0.6140 -0.2331
C17 C 0.1314(7) 0.6109(12) -0.1127(7)
H13 H 0.0915 0.5584 -0.1069
C18 C 0.1886(7) 0.6578(12) 0.1332(8)
C19 C 0.2032(7) 0.7962(14) 0.1389(8)
H14 H 0.1846 0.8555 0.1005
C20 C 0.2473(7) 0.8503(15) 0.2042(9)
H15 H 0.2556 0.9430 0.2085
C21 C 0.2754(7) 0.762(2) 0.2577(10)
H16 H 0.3027 0.7931 0.3007
C22 C 0.2636(8) 0.6362(18) 0.2480(9)
H17 H 0.2846 0.5779 0.2852
C23 C 0.2226(7) 0.5751(16) 0.1873(9)
H18 H 0.2187 0.4811 0.1839
C24 C 0.0538(5) 0.6772(9) 0.0657(10)
C25 C 0.0378(6) 0.8028(12) 0.0363(8)
H19 H 0.0716 0.8478 0.0060
C26 C -0.0224(6) 0.8657(12) 0.0476(13)
H20 H -0.0297 0.9531 0.0278
C27 C -0.0764(7) 0.7942(14) 0.0916(9)
H21 H -0.1192 0.8351 0.1007
C28 C -0.0633(8) 0.6620(15) 0.1206(12)
H22 H -0.0981 0.6118 0.1458
C29 C 0.0009(7) 0.6099(13) 0.1111(9)
H23 H 0.0111 0.5267 0.1351
Ag1A Ag -0.12109(3) -0.35015(6) -0.44335(6)
N2A N 0.0680(5) 0.2033(10) 0.1500(6)
loop_
_geom_bond_atom_site_label_1
_geom_bond_atom_site_label_2
_geom_bond_site_symmetry_1
_geom_bond_site_symmetry_2
Ag1 P1 1_555 1_555
P1 C12 1_555 1_555
S1 O1 1_555 1_555
F1 C1 1_555 1_555
F2 C1 1_555 1_555
F3 C1 1_555 1_555
N1 Ag1 1_555 1_555
N2 C7 1_555 1_555
O1 Ag1 1_555 1_555
O2 S1 1_555 1_555
O3 S1 1_555 1_555
C1 S1 1_555 1_555
C2 N1 1_555 1_555
H1 C2 1_555 1_555
C3 C2 1_555 1_555
H2 C3 1_555 1_555
C4 C3 1_555 1_555
C5 C4 1_555 1_555
H3 C5 1_555 1_555
C6 N1 1_555 1_555
H4 C6 1_555 1_555
C7 H5 1_555 1_555
C8 C7 1_555 1_555
H6 C8 1_555 1_555
C9 C4 1_555 1_555
C10 C9 1_555 1_555
H7 C10 1_555 1_555
C11 N2 1_555 1_555
H8 C11 1_555 1_555
C12 C13 1_555 1_555
C13 H9 1_555 1_555
C14 C13 1_555 1_555
H10 C14 1_555 1_555
C15 C14 1_555 1_555
H11 C15 1_555 1_555
C16 C15 1_555 1_555
H12 C16 1_555 1_555
C17 C12 1_555 1_555
H13 C17 1_555 1_555
C18 P1 1_555 1_555
C19 C18 1_555 1_555
H14 C19 1_555 1_555
C20 C19 1_555 1_555
H15 C20 1_555 1_555
C21 C20 1_555 1_555
H16 C21 1_555 1_555
C22 C21 1_555 1_555
H17 C22 1_555 1_555
C23 C18 1_555 1_555
H18 C23 1_555 1_555
C24 P1 1_555 1_555
C25 C24 1_555 1_555
H19 C25 1_555 1_555
C26 C25 1_555 1_555
H20 C26 1_555 1_555
C27 C26 1_555 1_555
H21 C27 1_555 1_555
C28 C27 1_555 1_555
H22 C28 1_555 1_555
C29 C24 1_555 1_555
H23 C29 1_555 1_555
Ag1A N2 1_555 1_555
N2A Ag1 1_555 1_555
C5 C6 1_555 1_555
C8 C9 1_555 1_555
C10 C11 1_555 1_555
C16 C17 1_555 1_555
C22 C23 1_555 1_555
C28 C29 1_555 1_555

#END
