
#######################################################################
#
#                 Cambridge Crystallographic Data Centre
#                                CCDC 
#
#######################################################################
#
# If this CIF has been generated from an entry in the Cambridge 
# Structural Database, then it will include bibliographic, chemical, 
# crystal, experimental, refinement or atomic coordinate data resulting 
# from the CCDC's data processing and validation procedures.
#
#######################################################################

data_DUFHAP
_symmetry_cell_setting           monoclinic
_symmetry_space_group_name_H-M   'P 21/c'
_symmetry_Int_Tables_number      14
_space_group_name_Hall           '-P 2ybc'
loop_
_symmetry_equiv_pos_site_id
_symmetry_equiv_pos_as_xyz
1 x,y,z
2 -x,1/2+y,1/2-z
3 -x,-y,-z
4 x,1/2-y,1/2+z
_cell_length_a                   9.7533(3)
_cell_length_b                   16.7961(4)
_cell_length_c                   7.9741(2)
_cell_angle_alpha                90
_cell_angle_beta                 111.4780(10)
_cell_angle_gamma                90
_cell_volume                     1215.58
loop_
_atom_site_label
_atom_site_type_symbol
_atom_site_fract_x
_atom_site_fract_y
_atom_site_fract_z
I1 I 0.92480(2) 0.27968(2) 0.50133(2)
I2 I 0.50881(2) 0.30093(2) 0.59310(2)
Cu1 Cu 0.66876(4) 0.20855(2) 0.46058(5)
Cu2 Cu 0.80155(4) 0.32141(2) 0.73237(5)
C1 C 0.7264(3) 0.47020(16) 1.0125(4)
N1 N 0.8386(3) 0.43844(14) 0.7806(3)
N2 N 0.7063(3) 0.53184(14) 1.1112(3)
N3 N 0.8126(3) 0.56451(14) 0.8465(4)
C2 C 0.8780(3) 0.56574(18) 0.7206(4)
H1 H 0.9060 0.6104 0.6721
C3 C 0.6506(3) 0.50105(18) 1.2325(4)
H2 H 0.6264 0.5290 1.3185
C4 C 0.7902(3) 0.48718(16) 0.8788(4)
N4 N 0.6841(3) 0.40155(14) 1.0616(3)
C5 C 0.7499(3) 0.63144(17) 0.9132(5)
H3 H 0.6485 0.6399 0.8340
H4 H 0.8050 0.6796 0.9140
C6 C 0.8933(3) 0.48822(18) 0.6814(4)
H5 H 0.9346 0.4711 0.5995
C7 C 0.7564(3) 0.61357(17) 1.1018(4)
H6 H 0.8567 0.6199 1.1866
H7 H 0.6943 0.6508 1.1345
C8 C 0.6379(3) 0.42118(18) 1.2009(4)
H8 H 0.6032 0.3850 1.2641
I1C I 0.92480(2) 0.22032(2) 1.00133(2)
I2C I 0.50881(2) 0.19907(2) 0.09310(2)
Cu1C Cu 0.66876(4) 0.29145(2) 0.96058(5)
Cu2C Cu 0.80155(4) 0.17859(2) 0.23237(5)
N4C N 0.6841(3) 0.09845(14) 0.5616(3)
loop_
_geom_bond_atom_site_label_1
_geom_bond_atom_site_label_2
_geom_bond_site_symmetry_1
_geom_bond_site_symmetry_2
I1 Cu1 1_555 1_555
I2 Cu1 1_555 1_555
Cu1 I2C 1_555 1_555
Cu2 I1 1_555 1_555
C1 N2 1_555 1_555
N1 Cu2 1_555 1_555
N2 C3 1_555 1_555
N3 C2 1_555 1_555
C2 H1 1_555 1_555
C3 H2 1_555 1_555
C4 C1 1_555 1_555
N4 C1 1_555 1_555
C5 N3 1_555 1_555
H3 C5 1_555 1_555
H4 C5 1_555 1_555
C6 N1 1_555 1_555
H5 C6 1_555 1_555
C7 N2 1_555 1_555
H6 C7 1_555 1_555
H7 C7 1_555 1_555
C8 C3 1_555 1_555
H8 C8 1_555 1_555
I1C Cu2 1_555 1_555
I2C Cu2C 1_555 1_555
Cu1C I2 1_555 1_555
Cu2C I1 1_555 1_555
N4C Cu1 1_555 1_555
I2 Cu2 1_555 1_555
N1 C4 1_555 1_555
N3 C4 1_555 1_555
C2 C6 1_555 1_555
N4 C8 1_555 1_555
N4 Cu1C 1_555 1_555
C5 C7 1_555 1_555
I1C Cu1C 1_555 1_555

#END
