
#######################################################################
#
#                 Cambridge Crystallographic Data Centre
#                                CCDC 
#
#######################################################################
#
# If this CIF has been generated from an entry in the Cambridge 
# Structural Database, then it will include bibliographic, chemical, 
# crystal, experimental, refinement or atomic coordinate data resulting 
# from the CCDC's data processing and validation procedures.
#
#######################################################################

data_DUFHIW
_symmetry_cell_setting           monoclinic
_symmetry_space_group_name_H-M   'P 21/c'
_symmetry_Int_Tables_number      14
_space_group_name_Hall           '-P 2ybc'
loop_
_symmetry_equiv_pos_site_id
_symmetry_equiv_pos_as_xyz
1 x,y,z
2 -x,1/2+y,1/2-z
3 -x,-y,-z
4 x,1/2-y,1/2+z
_cell_length_a                   21.6519(4)
_cell_length_b                   21.3781(6)
_cell_length_c                   19.0730(5)
_cell_angle_alpha                90
_cell_angle_beta                 111.162(2)
_cell_angle_gamma                90
_cell_volume                     8233.08
loop_
_atom_site_label
_atom_site_type_symbol
_atom_site_fract_x
_atom_site_fract_y
_atom_site_fract_z
U1 U 0.420360(6) -0.382260(6) -0.250070(7)
U2 U -0.079360(6) -0.389250(6) -0.256520(7)
Li1 Li 0.5936(3) -0.3867(3) -0.2488(4)
Li2 Li 0.2497(3) -0.3810(3) -0.2468(4)
Li3 Li 0.0922(3) -0.3935(3) -0.2553(4)
Li4 Li 0.7525(3) -0.3783(3) -0.2487(4)
S1 S 0.62251(5) -0.40143(5) -0.39479(5)
S2 S 0.70710(4) -0.47586(5) -0.15158(6)
S3 S 0.68679(4) -0.26689(4) -0.19915(5)
S4 S 0.12572(4) -0.33537(4) -0.37998(5)
S5 S 0.17470(4) -0.50830(4) -0.26262(5)
S6 S 0.20134(4) -0.32052(4) -0.13068(5)
O1 O 0.50586(13) -0.38523(12) -0.24812(16)
O2 O 0.33589(12) -0.37881(12) -0.24875(14)
O3 O 0.00553(12) -0.39664(12) -0.25549(14)
O4 O -0.16413(12) -0.38351(12) -0.25686(15)
O5 O 0.57952(14) -0.40147(16) -0.35134(17)
O6 O 0.69081(14) -0.38866(13) -0.35058(17)
O7 O 0.59614(17) -0.37077(15) -0.46509(17)
O8 O 0.63858(12) -0.45672(14) -0.18579(16)
O9 O 0.75126(13) -0.44380(13) -0.18140(16)
O10 O 0.71753(15) -0.54087(14) -0.14063(19)
O11 O 0.62680(12) -0.30408(13) -0.22276(17)
O12 O 0.74427(12) -0.30107(13) -0.20061(16)
O13 O 0.69747(14) -0.22944(13) -0.13419(16)
O14 O 0.19163(11) -0.36186(12) -0.34968(14)
O15 O 0.09546(12) -0.32796(13) -0.32404(16)
O16 O 0.08388(14) -0.36018(14) -0.44983(16)
O17 O 0.23100(11) -0.46721(12) -0.22845(15)
O18 O 0.11152(11) -0.47573(12) -0.28776(14)
O19 O 0.18275(13) -0.55377(12) -0.31374(15)
O20 O 0.24699(11) -0.32180(12) -0.17041(14)
O21 O 0.14880(12) -0.36642(12) -0.15763(15)
O22 O 0.18080(12) -0.25973(12) -0.11663(14)
N1 N 0.44662(14) -0.46868(14) -0.14857(16)
N2 N 0.46535(14) -0.32497(14) -0.12152(17)
N3 N 0.41407(14) -0.26320(14) -0.27513(18)
N4 N 0.37291(14) -0.36604(14) -0.39494(17)
N5 N 0.39940(14) -0.49044(14) -0.31386(17)
N6 N -0.08435(14) -0.50975(14) -0.23988(16)
N7 N -0.03193(14) -0.41032(14) -0.11270(16)
N8 N -0.05349(14) -0.28274(14) -0.18874(16)
N9 N -0.11270(14) -0.30563(15) -0.36198(17)
N10 N -0.11760(14) -0.44441(15) -0.38596(17)
F1 F 0.64975(16) -0.51714(14) -0.35533(17)
F2 F 0.56354(12) -0.50423(14) -0.45629(18)
F3 F 0.65955(12) -0.49287(12) -0.46068(14)
F4 F 0.79333(14) -0.4564(2) -0.01867(16)
F5 F 0.69482(14) -0.46928(15) -0.02109(15)
F6 F 0.72118(19) -0.38238(14) -0.05997(19)
F7 F 0.72208(13) -0.17193(12) -0.26076(15)
F8 F 0.66362(14) -0.24138(13) -0.34021(14)
F9 F 0.61746(12) -0.17766(12) -0.28609(15)
F10 F 0.08526(12) -0.22211(12) -0.42584(15)
F11 F 0.16821(13) -0.25381(12) -0.45307(15)
F12 F 0.18297(12) -0.22636(11) -0.33997(15)
F13 F 0.12600(12) -0.59839(12) -0.20516(14)
F14 F 0.22970(12) -0.58065(12) -0.14568(14)
F15 F 0.15657(13) -0.51722(12) -0.13487(13)
F16 F 0.28018(12) -0.40477(12) -0.04387(14)
F17 F 0.21419(12) -0.36182(12) 0.00314(13)
F18 F 0.29853(11) -0.31119(12) -0.00069(13)
C1 C 0.62381(19) -0.4828(2) -0.4178(2)
C2 C 0.7304(2) -0.4441(3) -0.0579(3)
C3 C 0.67159(19) -0.2115(2) -0.2754(2)
C4 C 0.1413(2) -0.2550(2) -0.4006(2)
C5 C 0.17162(19) -0.55341(19) -0.1830(2)
C6 C 0.25095(19) -0.3514(2) -0.0384(2)
C7 C 0.39720(18) -0.49416(18) -0.1309(2)
H1 H 0.3554 -0.4760 -0.1499
C8 C 0.40663(19) -0.54651(18) -0.0853(2)
H2 H 0.3714 -0.5631 -0.0743
C9 C 0.4684(2) -0.57386(19) -0.0562(2)
H3 H 0.4757 -0.6089 -0.0254
C10 C 0.51927(19) -0.54731(18) -0.0744(2)
H4 H 0.5616 -0.5644 -0.0556
C11 C 0.50663(17) -0.49564(18) -0.1204(2)
H5 H 0.5411 -0.4786 -0.1325
C12 C 0.42652(18) -0.31486(17) -0.0811(2)
H6 H 0.3835 -0.3304 -0.0992
C13 C 0.44790(18) -0.28255(18) -0.0144(2)
H7 H 0.4200 -0.2772 0.0126
C14 C 0.51142(19) -0.25794(19) 0.0124(2)
H8 H 0.5268 -0.2352 0.0569
C15 C 0.55118(19) -0.26816(19) -0.0289(2)
H9 H 0.5941 -0.2524 -0.0124
C16 C 0.52713(18) -0.30168(19) -0.0945(2)
H10 H 0.5547 -0.3086 -0.1214
C17 C 0.46538(18) -0.23062(18) -0.2798(2)
H11 H 0.5042 -0.2519 -0.2748
C18 C 0.4631(2) -0.16695(19) -0.2915(3)
H12 H 0.4999 -0.1458 -0.2936
C19 C 0.4055(2) -0.1350(2) -0.3001(3)
H13 H 0.4026 -0.0921 -0.3085
C20 C 0.3526(2) -0.1677(2) -0.2961(3)
H14 H 0.3131 -0.1474 -0.3021
C21 C 0.35871(19) -0.23141(19) -0.2831(3)
H15 H 0.3227 -0.2532 -0.2798
C22 C 0.41092(19) -0.36912(17) -0.4368(2)
H16 H 0.4557 -0.3782 -0.4133
C23 C 0.3864(2) -0.35948(18) -0.5128(2)
H17 H 0.4143 -0.3621 -0.5401
C24 C 0.3206(2) -0.34603(19) -0.5486(2)
H18 H 0.3032 -0.3388 -0.6001
C25 C 0.2806(2) -0.34341(19) -0.5059(2)
H19 H 0.2356 -0.3348 -0.5284
C26 C 0.30828(18) -0.35371(18) -0.4306(2)
H20 H 0.2811 -0.3521 -0.4024
C27 C 0.44425(18) -0.51726(18) -0.3371(2)
H21 H 0.4837 -0.4961 -0.3294
C28 C 0.4348(2) -0.57474(19) -0.3720(2)
H22 H 0.4674 -0.5921 -0.3871
C29 C 0.3760(2) -0.60621(19) -0.3840(2)
H23 H 0.3680 -0.6449 -0.4079
C30 C 0.3295(2) -0.57898(18) -0.3599(2)
H24 H 0.2898 -0.5994 -0.3668
C31 C 0.34225(18) -0.52126(18) -0.3254(2)
H25 H 0.3105 -0.5030 -0.3097
C32 C -0.13944(19) -0.5370(2) -0.2379(2)
H26 H -0.1729 -0.5117 -0.2337
C33 C -0.1488(2) -0.6009(2) -0.2418(2)
H27 H -0.1881 -0.6180 -0.2409
C34 C -0.0991(2) -0.6395(2) -0.2472(2)
H28 H -0.1044 -0.6827 -0.2503
C35 C -0.0417(2) -0.61190(19) -0.2476(3)
H29 H -0.0071 -0.6364 -0.2503
C36 C -0.03603(19) -0.54734(18) -0.2441(2)
H30 H 0.0028 -0.5292 -0.2448
C37 C -0.07182(19) -0.41141(18) -0.0724(2)
H31 H -0.1174 -0.4086 -0.0976
C38 C -0.0473(2) -0.41654(19) 0.0049(2)
H32 H -0.0761 -0.4170 0.0311
C39 C 0.0196(2) -0.42092(19) 0.0430(2)
H33 H 0.0367 -0.4242 0.0951
C40 C 0.06134(19) -0.42034(18) 0.0024(2)
H34 H 0.1070 -0.4236 0.0267
C41 C 0.03376(17) -0.41487(18) -0.0750(2)
H35 H 0.0618 -0.4143 -0.1021
C42 C -0.10216(19) -0.24577(18) -0.1841(2)
H36 H -0.1458 -0.2585 -0.2085
C43 C -0.09104(19) -0.18995(19) -0.1450(2)
H37 H -0.1261 -0.1654 -0.1438
C44 C -0.0262(2) -0.17185(19) -0.1078(2)
H38 H -0.0169 -0.1349 -0.0801
C45 C 0.02447(19) -0.20853(19) -0.1117(2)
H39 H 0.0683 -0.1967 -0.0869
C46 C 0.00961(17) -0.26277(18) -0.1525(2)
H40 H 0.0442 -0.2870 -0.1555
C47 C -0.06846(18) -0.28430(19) -0.3911(2)
H41 H -0.0239 -0.2938 -0.3663
C48 C -0.0863(2) -0.2491(2) -0.4559(2)
H42 H -0.0545 -0.2351 -0.4746
C49 C -0.1523(2) -0.2350(2) -0.4923(3)
H43 H -0.1657 -0.2117 -0.5365
C50 C -0.1978(2) -0.2555(2) -0.4634(3)
H44 H -0.2425 -0.2463 -0.4873
C51 C -0.17655(18) -0.2900(2) -0.3982(2)
H45 H -0.2077 -0.3031 -0.3782
C52 C -0.0750(2) -0.4609(2) -0.4194(2)
H46 H -0.0309 -0.4492 -0.3966
C53 C -0.0933(2) -0.4941(3) -0.4852(3)
H47 H -0.0623 -0.5040 -0.5069
C54 C -0.1583(2) -0.5125(2) -0.5188(2)
H48 H -0.1720 -0.5355 -0.5632
C55 C -0.20241(19) -0.4962(2) -0.4853(2)
H49 H -0.2467 -0.5079 -0.5067
C56 C -0.18047(18) -0.46246(19) -0.4200(2)
H50 H -0.2110 -0.4515 -0.3982
Li4_2 Li -0.2475(3) -0.3783(3) -0.2487(4)
O4_2 O 0.83587(12) -0.38351(12) -0.25686(15)
loop_
_geom_bond_atom_site_label_1
_geom_bond_atom_site_label_2
_geom_bond_site_symmetry_1
_geom_bond_site_symmetry_2
U1 O1 1_555 1_555
U2 O3 1_555 1_555
Li1 O1 1_555 1_555
Li2 O2 1_555 1_555
Li3 O3 1_555 1_555
Li4 O6 1_555 1_555
S1 O5 1_555 1_555
S2 O8 1_555 1_555
S3 O11 1_555 1_555
S4 O14 1_555 1_555
S5 O17 1_555 1_555
S6 O20 1_555 1_555
O2 U1 1_555 1_555
O4 U2 1_555 1_555
O5 Li1 1_555 1_555
O6 S1 1_555 1_555
O7 S1 1_555 1_555
O8 Li1 1_555 1_555
O9 Li4 1_555 1_555
O10 S2 1_555 1_555
O11 Li1 1_555 1_555
O12 Li4 1_555 1_555
O13 S3 1_555 1_555
O14 Li2 1_555 1_555
O15 Li3 1_555 1_555
O16 S4 1_555 1_555
O17 Li2 1_555 1_555
O18 Li3 1_555 1_555
O19 S5 1_555 1_555
O20 Li2 1_555 1_555
O21 Li3 1_555 1_555
O22 S6 1_555 1_555
N1 U1 1_555 1_555
N2 U1 1_555 1_555
N3 U1 1_555 1_555
N4 U1 1_555 1_555
N5 U1 1_555 1_555
N6 U2 1_555 1_555
N7 U2 1_555 1_555
N8 U2 1_555 1_555
N9 U2 1_555 1_555
N10 U2 1_555 1_555
F1 C1 1_555 1_555
F2 C1 1_555 1_555
F3 C1 1_555 1_555
F4 C2 1_555 1_555
F5 C2 1_555 1_555
F6 C2 1_555 1_555
F7 C3 1_555 1_555
F8 C3 1_555 1_555
F9 C3 1_555 1_555
F10 C4 1_555 1_555
F11 C4 1_555 1_555
F12 C4 1_555 1_555
F13 C5 1_555 1_555
F14 C5 1_555 1_555
F15 C5 1_555 1_555
F16 C6 1_555 1_555
F17 C6 1_555 1_555
F18 C6 1_555 1_555
C1 S1 1_555 1_555
C2 S2 1_555 1_555
C3 S3 1_555 1_555
C4 S4 1_555 1_555
C5 S5 1_555 1_555
C6 S6 1_555 1_555
C7 N1 1_555 1_555
H1 C7 1_555 1_555
C8 C7 1_555 1_555
H2 C8 1_555 1_555
C9 C8 1_555 1_555
H3 C9 1_555 1_555
C10 C9 1_555 1_555
H4 C10 1_555 1_555
C11 N1 1_555 1_555
H5 C11 1_555 1_555
C12 N2 1_555 1_555
H6 C12 1_555 1_555
C13 C12 1_555 1_555
H7 C13 1_555 1_555
C14 C13 1_555 1_555
H8 C14 1_555 1_555
C15 C14 1_555 1_555
H9 C15 1_555 1_555
C16 N2 1_555 1_555
H10 C16 1_555 1_555
C17 N3 1_555 1_555
H11 C17 1_555 1_555
C18 C17 1_555 1_555
H12 C18 1_555 1_555
C19 C18 1_555 1_555
H13 C19 1_555 1_555
C20 C19 1_555 1_555
H14 C20 1_555 1_555
C21 N3 1_555 1_555
H15 C21 1_555 1_555
C22 N4 1_555 1_555
H16 C22 1_555 1_555
C23 C22 1_555 1_555
H17 C23 1_555 1_555
C24 C23 1_555 1_555
H18 C24 1_555 1_555
C25 C24 1_555 1_555
H19 C25 1_555 1_555
C26 N4 1_555 1_555
H20 C26 1_555 1_555
C27 N5 1_555 1_555
H21 C27 1_555 1_555
C28 C27 1_555 1_555
H22 C28 1_555 1_555
C29 C28 1_555 1_555
H23 C29 1_555 1_555
C30 C29 1_555 1_555
H24 C30 1_555 1_555
C31 N5 1_555 1_555
H25 C31 1_555 1_555
C32 N6 1_555 1_555
H26 C32 1_555 1_555
C33 C32 1_555 1_555
H27 C33 1_555 1_555
C34 C33 1_555 1_555
H28 C34 1_555 1_555
C35 C34 1_555 1_555
H29 C35 1_555 1_555
C36 N6 1_555 1_555
H30 C36 1_555 1_555
C37 N7 1_555 1_555
H31 C37 1_555 1_555
C38 C37 1_555 1_555
H32 C38 1_555 1_555
C39 C38 1_555 1_555
H33 C39 1_555 1_555
C40 C39 1_555 1_555
H34 C40 1_555 1_555
C41 N7 1_555 1_555
H35 C41 1_555 1_555
C42 N8 1_555 1_555
H36 C42 1_555 1_555
C43 C42 1_555 1_555
H37 C43 1_555 1_555
C44 C43 1_555 1_555
H38 C44 1_555 1_555
C45 C44 1_555 1_555
H39 C45 1_555 1_555
C46 N8 1_555 1_555
H40 C46 1_555 1_555
C47 N9 1_555 1_555
H41 C47 1_555 1_555
C48 C47 1_555 1_555
H42 C48 1_555 1_555
C49 C48 1_555 1_555
H43 C49 1_555 1_555
C50 C49 1_555 1_555
H44 C50 1_555 1_555
C51 N9 1_555 1_555
H45 C51 1_555 1_555
C52 N10 1_555 1_555
H46 C52 1_555 1_555
C53 C52 1_555 1_555
H47 C53 1_555 1_555
C54 C53 1_555 1_555
H48 C54 1_555 1_555
C55 C54 1_555 1_555
H49 C55 1_555 1_555
C56 N10 1_555 1_555
H50 C56 1_555 1_555
Li4_2 O4 1_555 1_555
O4_2 Li4 1_555 1_555
S2 O9 1_555 1_555
S3 O12 1_555 1_555
S4 O15 1_555 1_555
S5 O18 1_555 1_555
S6 O21 1_555 1_555
C10 C11 1_555 1_555
C15 C16 1_555 1_555
C20 C21 1_555 1_555
C25 C26 1_555 1_555
C30 C31 1_555 1_555
C35 C36 1_555 1_555
C40 C41 1_555 1_555
C45 C46 1_555 1_555
C50 C51 1_555 1_555
C55 C56 1_555 1_555

#END
