
#######################################################################
#
#                 Cambridge Crystallographic Data Centre
#                                CCDC 
#
#######################################################################
#
# If this CIF has been generated from an entry in the Cambridge 
# Structural Database, then it will include bibliographic, chemical, 
# crystal, experimental, refinement or atomic coordinate data resulting 
# from the CCDC's data processing and validation procedures.
#
#######################################################################

data_DUFKOG
_symmetry_cell_setting           monoclinic
_symmetry_space_group_name_H-M   'C 2'
_symmetry_Int_Tables_number      5
_space_group_name_Hall           'C 2y'
loop_
_symmetry_equiv_pos_site_id
_symmetry_equiv_pos_as_xyz
1 x,y,z
2 -x,y,-z
3 1/2+x,1/2+y,z
4 1/2-x,1/2+y,-z
_cell_length_a                   25.936(3)
_cell_length_b                   7.6100(10)
_cell_length_c                   16.558(2)
_cell_angle_alpha                90
_cell_angle_beta                 105.9470(10)
_cell_angle_gamma                90
_cell_volume                     3142.33
loop_
_atom_site_label
_atom_site_type_symbol
_atom_site_fract_x
_atom_site_fract_y
_atom_site_fract_z
Ni1 Ni 0.597307(15) 0.40365(5) 0.67450(2)
O1 O 0.60474(11) 0.5627(3) 0.77539(15)
O2 O 0.61536(12) 0.8484(3) 0.75373(15)
O3 O 0.5517(2) 1.2335(5) 0.9675(3)
O4 O 0.6076(2) 1.1642(6) 1.0856(2)
O5 O 0.74922(14) 0.6150(6) 1.2314(2)
O6 O 0.74860(12) 0.5416(4) 1.36005(18)
H1 H 0.7794 0.5109 1.3632
O7 O 0.60201(11) 0.7297(4) 1.47232(15)
O8 O 0.52278(10) 0.7991(4) 1.38463(15)
O9 O 0.55789(11) 0.8452(4) 1.10556(15)
O10 O 0.55877(10) 0.5870(3) 0.58680(15)
H2 H 0.5806 0.6322 0.5633
H3 H 0.5365 0.6633 0.5935
O11 O 0.59067(10) 0.2181(3) 0.57862(15)
H4 H 0.5603 0.1690 0.5674
H5 H 0.6104 0.1357 0.6054
O12 O 0.63494(10) 0.2056(3) 0.76250(15)
H6 H 0.6658 0.1937 0.7613
H7 H 0.6157 0.1105 0.7411
N1 N 0.5805(2) 1.1276(6) 1.0152(3)
N2 N 0.52207(11) 0.3328(4) 0.68552(18)
N3 N 0.17249(11) -0.0258(4) 0.66183(17)
C1 C 0.59380(15) 0.7568(5) 0.8779(2)
C2 C 0.59129(15) 0.9244(6) 0.9076(2)
H8 H 0.5960 1.0208 0.8758
C3 C 0.58170(16) 0.9490(5) 0.9856(2)
C4 C 0.57236(16) 0.8117(5) 1.0330(2)
C5 C 0.5742(2) 0.6438(6) 1.0031(3)
H9 H 0.5685 0.5476 1.0343
C6 C 0.5847(2) 0.6196(6) 0.9264(3)
H10 H 0.5856 0.5055 0.9067
C7 C 0.60535(14) 0.7216(5) 0.7945(2)
C8 C 0.58897(15) 0.7801(5) 1.1815(2)
C9 C 0.56580(15) 0.7873(5) 1.2472(2)
H11 H 0.5304 0.8238 1.2378
C10 C 0.59557(14) 0.7396(5) 1.3272(2)
C11 C 0.64735(16) 0.6804(5) 1.3394(2)
H12 H 0.6671 0.6465 1.3929
C12 C 0.67015(16) 0.6704(5) 1.2744(2)
C13 C 0.64123(15) 0.7234(5) 1.1935(2)
H13 H 0.6568 0.7205 1.1491
C14 C 0.57117(15) 0.7585(5) 1.4005(2)
C15 C 0.72629(17) 0.6051(6) 1.2850(3)
C16 C 0.51460(15) 0.2898(6) 0.7598(2)
H14 H 0.5442 0.2887 0.8066
C17 C 0.46563(15) 0.2474(6) 0.7704(2)
H15 H 0.4626 0.2196 0.8236
C18 C 0.42046(13) 0.2456(5) 0.7020(2)
C19 C 0.42865(14) 0.2879(5) 0.6257(2)
H16 H 0.4000 0.2866 0.5774
C20 C 0.47861(14) 0.3319(5) 0.6202(2)
H17 H 0.4825 0.3630 0.5679
C21 C 0.36673(13) 0.1995(6) 0.7134(2)
H18 H 0.3710 0.0989 0.7507
H19 H 0.3544 0.2971 0.7409
C22 C 0.32425(15) 0.1574(6) 0.6343(3)
H20 H 0.3381 0.0688 0.6037
H21 H 0.3172 0.2622 0.5997
C23 C 0.18449(15) -0.0301(5) 0.5896(2)
H22 H 0.1589 -0.0737 0.5430
C24 C 0.23272(15) 0.0262(6) 0.5790(2)
H23 H 0.2389 0.0197 0.5264
C25 C 0.27153(14) 0.0919(5) 0.6460(2)
C26 C 0.25944(15) 0.0972(6) 0.7228(2)
H24 H 0.2843 0.1408 0.7702
C27 C 0.21011(15) 0.0369(5) 0.7280(2)
H25 H 0.2028 0.0401 0.7798
Ni1B Ni 0.097307(15) -0.09635(5) 0.67450(2)
N3B N 0.67249(11) 0.4742(4) 0.66183(17)
O13 O 0.5000 1.0268(5) 0.5000
H26 H 0.5117 0.9498 0.4724
H26A H 0.4883 0.9498 0.5276
O14 O 0.84700(9) 0.4149(4) 0.38235(14)
H27 H 0.8611 0.4045 0.3422
H28 H 0.8658 0.3868 0.4316
loop_
_geom_bond_atom_site_label_1
_geom_bond_atom_site_label_2
_geom_bond_site_symmetry_1
_geom_bond_site_symmetry_2
Ni1 O1 1_555 1_555
O1 C7 1_555 1_555
O2 C7 1_555 1_555
O3 N1 1_555 1_555
O4 N1 1_555 1_555
O5 C15 1_555 1_555
O6 H1 1_555 1_555
O7 C14 1_555 1_555
O8 C14 1_555 1_555
O9 C4 1_555 1_555
O10 Ni1 1_555 1_555
H2 O10 1_555 1_555
H3 O10 1_555 1_555
O11 Ni1 1_555 1_555
H4 O11 1_555 1_555
H5 O11 1_555 1_555
O12 Ni1 1_555 1_555
H6 O12 1_555 1_555
H7 O12 1_555 1_555
N1 C3 1_555 1_555
N2 Ni1 1_555 1_555
N3 C23 1_555 1_555
C1 C2 1_555 1_555
C2 H8 1_555 1_555
C3 C2 1_555 1_555
C4 C3 1_555 1_555
C5 C4 1_555 1_555
H9 C5 1_555 1_555
C6 C1 1_555 1_555
H10 C6 1_555 1_555
C7 C1 1_555 1_555
C8 O9 1_555 1_555
C9 C8 1_555 1_555
H11 C9 1_555 1_555
C10 C9 1_555 1_555
C11 C10 1_555 1_555
H12 C11 1_555 1_555
C12 C11 1_555 1_555
C13 C8 1_555 1_555
H13 C13 1_555 1_555
C14 C10 1_555 1_555
C15 O6 1_555 1_555
C16 N2 1_555 1_555
H14 C16 1_555 1_555
C17 C16 1_555 1_555
H15 C17 1_555 1_555
C18 C17 1_555 1_555
C19 C18 1_555 1_555
H16 C19 1_555 1_555
C20 N2 1_555 1_555
H17 C20 1_555 1_555
C21 C18 1_555 1_555
H18 C21 1_555 1_555
H19 C21 1_555 1_555
C22 C21 1_555 1_555
H20 C22 1_555 1_555
H21 C22 1_555 1_555
C23 H22 1_555 1_555
C24 C23 1_555 1_555
H23 C24 1_555 1_555
C25 C22 1_555 1_555
C26 C25 1_555 1_555
H24 C26 1_555 1_555
C27 N3 1_555 1_555
H25 C27 1_555 1_555
O13 H26 1_555 1_555
O14 H27 1_555 1_555
H28 O14 1_555 1_555
Ni1B N3 1_555 1_555
N3B Ni1 1_555 1_555
H26A O13 1_555 1_555
C5 C6 1_555 1_555
C12 C13 1_555 1_555
C12 C15 1_555 1_555
C19 C20 1_555 1_555
C24 C25 1_555 1_555
C26 C27 1_555 1_555

#END
