
#######################################################################
#
#                 Cambridge Crystallographic Data Centre
#                                CCDC 
#
#######################################################################
#
# If this CIF has been generated from an entry in the Cambridge 
# Structural Database, then it will include bibliographic, chemical, 
# crystal, experimental, refinement or atomic coordinate data resulting 
# from the CCDC's data processing and validation procedures.
#
#######################################################################

data_DUFLIA
_symmetry_cell_setting           monoclinic
_symmetry_space_group_name_H-M   'P 21/c'
_symmetry_Int_Tables_number      14
_space_group_name_Hall           '-P 2ybc'
loop_
_symmetry_equiv_pos_site_id
_symmetry_equiv_pos_as_xyz
1 x,y,z
2 -x,1/2+y,1/2-z
3 -x,-y,-z
4 x,1/2-y,1/2+z
_cell_length_a                   14.4546(14)
_cell_length_b                   19.8462(17)
_cell_length_c                   21.938(2)
_cell_angle_alpha                90
_cell_angle_beta                 105.852(7)
_cell_angle_gamma                90
_cell_volume                     6054
loop_
_atom_site_label
_atom_site_type_symbol
_atom_site_fract_x
_atom_site_fract_y
_atom_site_fract_z
Pr1 Pr 0.62797(4) 0.22848(2) 0.34261(2)
Fe1 Fe 0.50479(11) -0.04510(6) 0.31610(6)
Fe2 Fe 0.69062(10) 0.35574(6) 0.59194(6)
O1 O 0.3935(5) -0.0240(3) 0.2473(3)
C1 C 0.3359(8) 0.0298(4) 0.2413(5)
C2 C 0.3651(7) 0.0908(4) 0.2757(5)
C3 C 0.3002(9) 0.1454(5) 0.2626(6)
H1 H 0.3194 0.1872 0.2835
C4 C 0.2115(9) 0.1406(5) 0.2215(6)
H2 H 0.1696 0.1784 0.2153
C5 C 0.1800(8) 0.0803(5) 0.1874(5)
C6 C 0.2453(8) 0.0282(5) 0.1987(5)
H3 H 0.2267 -0.0122 0.1754
C7 C 0.4574(8) 0.0992(4) 0.3220(5)
O2 O 0.5092(5) 0.0487(3) 0.3475(3)
O3 O 0.4873(5) 0.1583(3) 0.3381(4)
C8 C 0.0821(8) 0.0758(6) 0.1439(6)
H4 H 0.0726 0.0310 0.1243
H5 H 0.0741 0.1102 0.1109
H6 H 0.0346 0.0830 0.1677
O4 O 0.3861(5) 0.4771(3) 0.2137(3)
C9 C 0.3398(8) 0.4397(5) 0.2476(5)
C10 C 0.3711(7) 0.3744(4) 0.2703(4)
C11 C 0.3198(8) 0.3414(5) 0.3091(5)
H7 H 0.3406 0.2981 0.3258
C12 C 0.2440(8) 0.3694(5) 0.3226(5)
H8 H 0.2128 0.3459 0.3491
C13 C 0.2088(8) 0.4334(5) 0.2985(5)
C14 C 0.2583(8) 0.4674(5) 0.2618(5)
H9 H 0.2366 0.5108 0.2458
C15 C 0.4531(8) 0.3396(5) 0.2588(5)
O5 O 0.4973(5) 0.3638(3) 0.2186(3)
O6 O 0.4803(5) 0.2851(3) 0.2860(3)
C16 C 0.1215(8) 0.4638(6) 0.3117(6)
H10 H 0.1084 0.5078 0.2907
H11 H 0.1327 0.4695 0.3575
H12 H 0.0662 0.4340 0.2954
N1 N 0.4074(7) -0.0838(4) 0.3679(4)
C17 C 0.3153(9) -0.0987(5) 0.3408(6)
H13 H 0.2891 -0.0887 0.2971
C18 C 0.2558(10) -0.1283(5) 0.3735(6)
H14 H 0.1903 -0.1380 0.3529
C19 C 0.2951(10) -0.1432(5) 0.4371(6)
H15 H 0.2570 -0.1644 0.4606
C20 C 0.3893(11) -0.1271(5) 0.4660(6)
H16 H 0.4163 -0.1354 0.5099
C21 C 0.4439(9) -0.0987(4) 0.4300(5)
C22 C 0.5449(9) -0.0809(5) 0.4555(5)
C23 C 0.5928(12) -0.0816(7) 0.5199(6)
H17 H 0.5588 -0.0921 0.5502
C24 C 0.6885(14) -0.0672(8) 0.5393(6)
H18 H 0.7215 -0.0681 0.5832
C25 C 0.7381(12) -0.0511(7) 0.4950(6)
H19 H 0.8047 -0.0405 0.5081
C26 C 0.6869(10) -0.0511(6) 0.4300(6)
H20 H 0.7197 -0.0410 0.3990
N2 N 0.5929(7) -0.0651(4) 0.4117(4)
O7 O 0.6000(5) 0.2965(3) 0.6157(3)
C27 C 0.5122(7) 0.2801(4) 0.5805(4)
C28 C 0.4869(7) 0.2760(4) 0.5129(4)
C29 C 0.3959(8) 0.2562(5) 0.4806(5)
H21 H 0.3806 0.2512 0.4359
C30 C 0.3255(9) 0.2434(5) 0.5111(6)
H22 H 0.2621 0.2316 0.4875
C31 C 0.3493(9) 0.2480(5) 0.5770(5)
C32 C 0.4410(7) 0.2660(5) 0.6108(5)
H23 H 0.4562 0.2688 0.6557
C33 C 0.5590(7) 0.2894(4) 0.4767(5)
O8 O 0.6304(5) 0.3294(3) 0.5024(3)
O9 O 0.5487(5) 0.2655(3) 0.4231(3)
C34 C 0.2729(10) 0.2325(8) 0.6111(7)
H24 H 0.3006 0.2377 0.6569
H25 H 0.2502 0.1861 0.6018
H26 H 0.2187 0.2636 0.5966
C35 C 0.8755(7) 0.2807(5) 0.6334(5)
O10 O 0.7984(5) 0.3031(3) 0.5867(3)
C36 C 0.8950(8) 0.3040(5) 0.6956(5)
C37 C 0.9749(8) 0.2750(6) 0.7399(6)
H27 H 0.9908 0.2897 0.7827
C38 C 1.0297(8) 0.2267(6) 0.7227(6)
H28 H 1.0821 0.2076 0.7538
C39 C 1.0099(8) 0.2050(5) 0.6604(7)
C40 C 0.9344(7) 0.2324(5) 0.6160(6)
H29 H 0.9216 0.2186 0.5730
C41 C 0.8380(8) 0.3523(5) 0.7188(5)
O11 O 0.7542(5) 0.3717(3) 0.6827(3)
O12 O 0.8664(6) 0.3764(4) 0.7741(3)
C42 C 1.0700(9) 0.1498(6) 0.6416(7)
H30 H 1.1209 0.1356 0.6788
H31 H 1.0988 0.1670 0.6091
H32 H 1.0287 0.1111 0.6246
N3 N 0.5963(6) 0.4408(3) 0.5960(4)
C43 C 0.5213(7) 0.4375(5) 0.6204(5)
H33 H 0.5089 0.3962 0.6385
C44 C 0.4608(8) 0.4914(5) 0.6204(5)
H34 H 0.4074 0.4870 0.6376
C45 C 0.4796(8) 0.5521(5) 0.5948(5)
H35 H 0.4404 0.5904 0.5954
C46 C 0.5557(8) 0.5562(5) 0.5686(5)
H36 H 0.5680 0.5970 0.5495
C47 C 0.6143(7) 0.5004(4) 0.5702(4)
C48 C 0.6993(7) 0.5004(5) 0.5449(4)
C49 C 0.7279(8) 0.5573(5) 0.5175(5)
H37 H 0.6930 0.5983 0.5139
C50 C 0.8096(9) 0.5520(6) 0.4957(6)
H38 H 0.8322 0.5898 0.4774
C51 C 0.8573(9) 0.4911(6) 0.5008(6)
H39 H 0.9117 0.4863 0.4847
C52 C 0.8258(8) 0.4372(5) 0.5294(5)
H40 H 0.8603 0.3959 0.5340
N4 N 0.7470(6) 0.4415(4) 0.5510(4)
O13 O 0.7503(5) 0.2652(4) 0.4431(3)
H41 H 0.810(4) 0.277(6) 0.447(6)
H42 H 0.737(5) 0.290(5) 0.474(3)
O14 O 0.6658(6) 0.3546(3) 0.3395(3)
H43 H 0.647(8) 0.381(5) 0.307(4)
H44 H 0.727(4) 0.367(6) 0.354(5)
O15 O 0.6326(6) 0.1246(3) 0.2689(3)
H45 H 0.621(9) 0.083(3) 0.280(6)
H46 H 0.667(8) 0.127(6) 0.241(5)
O16 O 0.6413(6) 0.2629(3) 0.2332(3)
H47 H 0.605(7) 0.298(5) 0.212(3)
H48 H 0.656(9) 0.236(4) 0.205(3)
O17 O 0.7995(6) 0.2123(4) 0.3445(3)
H49 H 0.799(10) 0.191(6) 0.309(4)
H50 H 0.851(3) 0.229(6) 0.372(4)
O18 O 0.6784(6) 0.1241(3) 0.4083(3)
H51 H 0.736(4) 0.108(4) 0.427(5)
H52 H 0.631(7) 0.094(5) 0.394(6)
Fe1A Fe 0.49521(11) 0.45490(6) 0.18390(6)
O4A O 0.6139(5) -0.0229(3) 0.2863(3)
O5A O 0.5027(5) -0.1362(3) 0.2814(3)
N5 N 0.9995(11) 0.2860(8) 0.4722(8)
O19 O 0.9837(8) 0.3470(6) 0.4804(5)
O20 O 0.9467(10) 0.2451(8) 0.4562(6)
O21 O 1.0894(11) 0.2743(10) 0.4989(12)
O22 O 0.8558(6) 0.3828(4) 0.3686(4)
H53 H 0.8956 0.3731 0.4032
C53 C 0.8943(11) 0.3639(7) 0.3171(7)
H54 H 0.8939 0.4031 0.2899
H55 H 0.8548 0.3280 0.2923
H56 H 0.9604 0.3478 0.3340
O23 O 0.9914(16) 0.4606(12) 0.8484(11)
C54 C 1.0827(18) 0.4706(14) 0.8280(13)
O24 O 1.1477(17) -0.0575(12) 0.5859(11)
O25 O 0.976(2) -0.1164(16) 0.5327(15)
O26? O 1.058(3) 0.4089(18) 0.856(2)
O27? O 1.135(2) -0.0978(15) 0.5219(14)
loop_
_geom_bond_atom_site_label_1
_geom_bond_atom_site_label_2
_geom_bond_site_symmetry_1
_geom_bond_site_symmetry_2
Pr1 O3 1_555 1_555
Fe1 O1 1_555 1_555
Fe2 O7 1_555 1_555
O1 C1 1_555 1_555
C1 C2 1_555 1_555
C2 C3 1_555 1_555
C3 H1 1_555 1_555
C4 C3 1_555 1_555
H2 C4 1_555 1_555
C5 C4 1_555 1_555
C6 C1 1_555 1_555
H3 C6 1_555 1_555
C7 C2 1_555 1_555
O2 Fe1 1_555 1_555
O3 C7 1_555 1_555
C8 C5 1_555 1_555
H4 C8 1_555 1_555
H5 C8 1_555 1_555
H6 C8 1_555 1_555
O4 C9 1_555 1_555
C9 C10 1_555 1_555
C10 C11 1_555 1_555
C11 H7 1_555 1_555
C12 C11 1_555 1_555
H8 C12 1_555 1_555
C13 C12 1_555 1_555
C14 C9 1_555 1_555
H9 C14 1_555 1_555
C15 C10 1_555 1_555
O5 C15 1_555 1_555
O6 Pr1 1_555 1_555
C16 C13 1_555 1_555
H10 C16 1_555 1_555
H11 C16 1_555 1_555
H12 C16 1_555 1_555
N1 Fe1 1_555 1_555
C17 N1 1_555 1_555
H13 C17 1_555 1_555
C18 C17 1_555 1_555
H14 C18 1_555 1_555
C19 C18 1_555 1_555
H15 C19 1_555 1_555
C20 C19 1_555 1_555
H16 C20 1_555 1_555
C21 N1 1_555 1_555
C22 C21 1_555 1_555
C23 C22 1_555 1_555
H17 C23 1_555 1_555
C24 C23 1_555 1_555
H18 C24 1_555 1_555
C25 C24 1_555 1_555
H19 C25 1_555 1_555
C26 C25 1_555 1_555
H20 C26 1_555 1_555
N2 Fe1 1_555 1_555
O7 C27 1_555 1_555
C27 C28 1_555 1_555
C28 C29 1_555 1_555
C29 H21 1_555 1_555
C30 C29 1_555 1_555
H22 C30 1_555 1_555
C31 C30 1_555 1_555
C32 C27 1_555 1_555
H23 C32 1_555 1_555
C33 C28 1_555 1_555
O8 Fe2 1_555 1_555
O9 Pr1 1_555 1_555
C34 C31 1_555 1_555
H24 C34 1_555 1_555
H25 C34 1_555 1_555
H26 C34 1_555 1_555
C35 O10 1_555 1_555
O10 Fe2 1_555 1_555
C36 C35 1_555 1_555
C37 C36 1_555 1_555
H27 C37 1_555 1_555
C38 C37 1_555 1_555
H28 C38 1_555 1_555
C39 C38 1_555 1_555
C40 C35 1_555 1_555
H29 C40 1_555 1_555
C41 C36 1_555 1_555
O11 Fe2 1_555 1_555
O12 C41 1_555 1_555
C42 C39 1_555 1_555
H30 C42 1_555 1_555
H31 C42 1_555 1_555
H32 C42 1_555 1_555
N3 Fe2 1_555 1_555
C43 N3 1_555 1_555
H33 C43 1_555 1_555
C44 C43 1_555 1_555
H34 C44 1_555 1_555
C45 C44 1_555 1_555
H35 C45 1_555 1_555
C46 C45 1_555 1_555
H36 C46 1_555 1_555
C47 N3 1_555 1_555
C48 C47 1_555 1_555
C49 C48 1_555 1_555
H37 C49 1_555 1_555
C50 C49 1_555 1_555
H38 C50 1_555 1_555
C51 C50 1_555 1_555
H39 C51 1_555 1_555
C52 C51 1_555 1_555
H40 C52 1_555 1_555
N4 Fe2 1_555 1_555
O13 Pr1 1_555 1_555
H41 O13 1_555 1_555
H42 O13 1_555 1_555
O14 Pr1 1_555 1_555
H43 O14 1_555 1_555
H44 O14 1_555 1_555
O15 Pr1 1_555 1_555
H45 O15 1_555 1_555
H46 O15 1_555 1_555
O16 Pr1 1_555 1_555
H47 O16 1_555 1_555
H48 O16 1_555 1_555
O17 Pr1 1_555 1_555
H49 O17 1_555 1_555
H50 O17 1_555 1_555
O18 Pr1 1_555 1_555
H51 O18 1_555 1_555
H52 O18 1_555 1_555
N5 O19 1_555 1_555
O20 N5 1_555 1_555
O21 N5 1_555 1_555
O22 H53 1_555 1_555
C53 O22 1_555 1_555
H54 C53 1_555 1_555
H55 C53 1_555 1_555
H56 C53 1_555 1_555
O23 C54 1_555 1_555
Fe1A O4 1_555 1_555
O4A Fe1 1_555 1_555
O5A Fe1 1_555 1_555
C5 C6 1_555 1_555
C7 O2 1_555 1_555
C13 C14 1_555 1_555
C15 O6 1_555 1_555
O5 Fe1A 1_555 1_555
C20 C21 1_555 1_555
C22 N2 1_555 1_555
C26 N2 1_555 1_555
C31 C32 1_555 1_555
C33 O8 1_555 1_555
C33 O9 1_555 1_555
C39 C40 1_555 1_555
C41 O11 1_555 1_555
C46 C47 1_555 1_555
C48 N4 1_555 1_555
C52 N4 1_555 1_555

#END
