
#######################################################################
#
#                 Cambridge Crystallographic Data Centre
#                                CCDC 
#
#######################################################################
#
# If this CIF has been generated from an entry in the Cambridge 
# Structural Database, then it will include bibliographic, chemical, 
# crystal, experimental, refinement or atomic coordinate data resulting 
# from the CCDC's data processing and validation procedures.
#
#######################################################################

data_DUFLIB
_symmetry_cell_setting           triclinic
_symmetry_space_group_name_H-M   'P -1'
_symmetry_Int_Tables_number      2
_space_group_name_Hall           '-P 1'
loop_
_symmetry_equiv_pos_site_id
_symmetry_equiv_pos_as_xyz
1 x,y,z
2 -x,-y,-z
_cell_length_a                   8.4159(7)
_cell_length_b                   10.4095(9)
_cell_length_c                   13.4807(12)
_cell_angle_alpha                76.0820(10)
_cell_angle_beta                 72.1120(10)
_cell_angle_gamma                74.667(2)
_cell_volume                     1067.43
loop_
_atom_site_label
_atom_site_type_symbol
_atom_site_fract_x
_atom_site_fract_y
_atom_site_fract_z
Mn1 Mn 0.31176(6) 0.18226(5) 0.06957(4)
O1 O 0.4124(3) -0.1288(2) 0.00211(17)
O2 O 0.3190(3) -0.5958(2) 0.05082(18)
O3 O 0.3300(3) -0.7279(2) 0.20464(18)
O4 O 0.0353(3) -0.2789(2) 0.48813(19)
C1 C 0.1876(5) 0.3312(4) -0.2345(3)
H1 H 0.1533 0.3993 -0.2872
C2 C 0.2969(4) -0.2528(3) 0.1706(2)
O5 O 0.3005(3) -0.0208(2) 0.14070(19)
C3 C 0.3401(4) -0.1230(3) 0.0984(3)
O6 O 0.1636(3) -0.4891(2) 0.51617(19)
N1 N 0.2330(3) 0.1955(3) -0.2353(2)
N2 N 0.1286(4) -0.3824(3) 0.4568(2)
C4 C 0.2312(4) -0.4942(3) 0.3025(3)
H2 H 0.2128 -0.5750 0.3473
N3 N 0.2590(4) 0.2224(3) -0.0851(2)
C5 C 0.2750(4) 0.1345(4) -0.1451(3)
H3 H 0.3110 0.0416 -0.1270
C6 C 0.4337(4) 0.1185(3) -0.3968(3)
C7 C 0.3237(4) -0.3685(3) 0.1288(3)
H4 H 0.3642 -0.3654 0.0560
C8 C 0.2911(4) -0.4887(3) 0.1939(2)
C9 C 0.3169(4) -0.6131(3) 0.1461(3)
C10 C 0.5641(4) 0.0133(3) -0.3764(3)
H5 H 0.5436 -0.0538 -0.3173
C11 C 0.4662(4) 0.2195(3) -0.4856(3)
H6 H 0.3782 0.2913 -0.4992
C12 C 0.2544(4) 0.1284(4) -0.3246(3)
H7 H 0.1730 0.1790 -0.3648
H8 H 0.2309 0.0383 -0.2974
C13 C 0.2304(4) -0.2557(3) 0.2788(3)
H9 H 0.2072 -0.1781 0.3078
C14 C 0.1995(4) -0.3774(3) 0.3425(2)
C15 C 0.7592(4) 0.1045(4) -0.5320(3)
H10 H 0.8684 0.0977 -0.5773
C16 C 0.2030(5) 0.3460(4) -0.1409(3)
H11 H 0.1789 0.4281 -0.1179
C17 C 0.6291(4) 0.2134(4) -0.5538(3)
C18 C 0.6588(5) 0.3282(4) -0.6460(3)
H12 H 0.5506 0.3729 -0.6621
H13 H 0.6995 0.3938 -0.6249
C19 C 0.7257(5) 0.0075(4) -0.4437(3)
H14 H 0.8137 -0.0636 -0.4290
N4 N 0.7807(4) 0.2863(3) -0.7417(2)
C20 C 0.9519(4) 0.2746(4) -0.7666(3)
H15 H 1.0084 0.2951 -0.7248
C21 C 0.7470(5) 0.2428(4) -0.8200(3)
H16 H 0.6412 0.2357 -0.8237
N5 N 1.0290(4) 0.2310(3) -0.8567(2)
C22 C 0.8996(5) 0.2120(4) -0.8907(3)
H17 H 0.928(5) 0.171(4) -0.951(3)
Mn1_2 Mn 0.31176(6) -0.81774(5) 0.06957(4)
Mn1_3 Mn 1.31176(6) 0.18226(5) -0.93043(4)
Mn1A Mn 0.68824(6) -0.18226(5) -0.06957(4)
O1A O 0.5876(3) 0.1288(2) -0.00211(17)
O2_2 O 0.3190(3) 0.4042(2) 0.05082(18)
O3_2 O 0.3300(3) 0.2721(2) 0.20464(18)
N5_2 N 0.0290(4) 0.2310(3) 0.1433(2)
loop_
_geom_bond_atom_site_label_1
_geom_bond_atom_site_label_2
_geom_bond_site_symmetry_1
_geom_bond_site_symmetry_2
Mn1 O5 1_555 1_555
O1 C3 1_555 1_555
O2 C9 1_555 1_555
O3 C9 1_555 1_555
O4 N2 1_555 1_555
C1 H1 1_555 1_555
C2 C3 1_555 1_555
O5 C3 1_555 1_555
O6 N2 1_555 1_555
N1 C1 1_555 1_555
N2 C14 1_555 1_555
C4 H2 1_555 1_555
N3 Mn1 1_555 1_555
C5 N1 1_555 1_555
H3 C5 1_555 1_555
C6 C10 1_555 1_555
C7 C2 1_555 1_555
H4 C7 1_555 1_555
C8 C4 1_555 1_555
C9 C8 1_555 1_555
C10 H5 1_555 1_555
C11 C6 1_555 1_555
H6 C11 1_555 1_555
C12 N1 1_555 1_555
H7 C12 1_555 1_555
H8 C12 1_555 1_555
C13 C2 1_555 1_555
H9 C13 1_555 1_555
C14 C4 1_555 1_555
C15 H10 1_555 1_555
C16 C1 1_555 1_555
H11 C16 1_555 1_555
C17 C11 1_555 1_555
C18 C17 1_555 1_555
H12 C18 1_555 1_555
H13 C18 1_555 1_555
C19 C10 1_555 1_555
H14 C19 1_555 1_555
N4 C18 1_555 1_555
C20 N4 1_555 1_555
H15 C20 1_555 1_555
C21 N4 1_555 1_555
H16 C21 1_555 1_555
N5 C20 1_555 1_555
C22 C21 1_555 1_555
H17 C22 1_555 1_555
Mn1_2 O2 1_555 1_555
Mn1_3 N5 1_555 1_555
Mn1A O1 1_555 1_555
O1A Mn1 1_555 1_555
O2_2 Mn1 1_555 1_555
O3_2 Mn1 1_555 1_555
N5_2 Mn1 1_555 1_555
O3 Mn1_2 1_555 1_555
N3 C5 1_555 1_555
N3 C16 1_555 1_555
C6 C12 1_555 1_555
C7 C8 1_555 1_555
C13 C14 1_555 1_555
C15 C17 1_555 1_555
C15 C19 1_555 1_555
N5 C22 1_555 1_555

#END
