
#######################################################################
#
#                 Cambridge Crystallographic Data Centre
#                                CCDC 
#
#######################################################################
#
# If this CIF has been generated from an entry in the Cambridge 
# Structural Database, then it will include bibliographic, chemical, 
# crystal, experimental, refinement or atomic coordinate data resulting 
# from the CCDC's data processing and validation procedures.
#
#######################################################################

data_DUFLOH
_symmetry_cell_setting           monoclinic
_symmetry_space_group_name_H-M   'P 2/c'
_symmetry_Int_Tables_number      13
_space_group_name_Hall           '-P 2yc'
loop_
_symmetry_equiv_pos_site_id
_symmetry_equiv_pos_as_xyz
1 x,y,z
2 -x,y,1/2-z
3 -x,-y,-z
4 x,-y,1/2+z
_cell_length_a                   12.8682(8)
_cell_length_b                   8.9461(6)
_cell_length_c                   16.0563(10)
_cell_angle_alpha                90
_cell_angle_beta                 101.484(3)
_cell_angle_gamma                90
_cell_volume                     1811.4
loop_
_atom_site_label
_atom_site_type_symbol
_atom_site_fract_x
_atom_site_fract_y
_atom_site_fract_z
Zn1 Zn 1.42031(4) 0.18686(6) 0.00672(3)
Zn2 Zn 1.09171(4) 0.78596(5) -0.50674(3)
C1 C 1.2105(4) 0.5412(6) -0.2094(3)
C2 C 1.2546(5) 0.4251(7) -0.2607(3)
C3 C 1.1362(5) 0.6957(7) -0.3435(4)
C4 C 1.1599(5) 0.6692(7) -0.2482(3)
C5 C 1.3674(6) 0.3600(8) -0.3573(5)
H1 H 1.4165 0.3890 -0.3895
C6 C 1.3349(5) 0.2135(7) -0.3584(4)
C7 C 1.2219(5) 0.2762(7) -0.2606(4)
H2 H 1.1742 0.2474 -0.2270
C8 C 1.2232(4) 0.5289(6) -0.1200(4)
C9 C 1.2603(5) 0.1709(7) -0.3106(4)
H3 H 1.2364 0.0727 -0.3123
C10 C 1.3270(6) 0.4654(7) -0.3081(4)
H4 H 1.3496 0.5641 -0.3077
C11 C 1.1321(5) 0.7849(6) -0.1982(4)
H5 H 1.1061 0.8741 -0.2238
C12 C 1.1426(5) 0.7688(7) -0.1120(4)
C13 C 1.1138(5) 0.8969(7) -0.0599(4)
C14 C 1.1859(5) 0.6378(7) -0.0730(4)
H6 H 1.1896 0.6239 -0.0151
C15 C 1.2912(5) 0.4083(6) -0.0718(3)
C16 C 1.3789(5) 0.1010(8) -0.4128(4)
O1 O 1.0951(5) 0.5980(6) -0.3946(3)
O2 O 1.5093(5) 0.3321(6) 0.1135(4)
H7 H 1.5470 0.2794 0.1522
H8 H 1.5406 0.4111 0.1025
O3 O 1.3367(5) 0.0452(8) -0.1103(4)
H9 H 1.2731 0.0401 -0.1033
H10 H 1.3623 -0.0126 -0.0693
O4 O 1.1565(6) 0.8227(6) -0.3674(3)
O5 O 1.0058(5) 0.6615(7) -0.6233(4)
H11 H 0.9741 0.5797 -0.6181
H12 H 1.0145 0.7187 -0.5801
O6 O 1.0794(4) 0.8703(6) 0.0055(3)
O7 O 1.1305(4) 1.0260(5) -0.0858(3)
O8 O 1.3865(4) 0.4052(6) -0.0765(3)
O9 O 1.2520(4) 0.3148(5) -0.0263(3)
O10 O 1.4242(5) 0.1529(8) -0.4702(4)
O11 O 1.3671(6) -0.0349(6) -0.4010(4)
Zn1A Zn 1.57969(4) 0.18686(6) -0.50672(3)
Zn1C Zn 1.42031(4) -0.18686(6) -0.49328(3)
Zn2A Zn 0.90829(4) 0.78596(5) 0.00674(3)
Zn2C Zn 1.09171(4) 0.21404(5) -0.00674(3)
Zn2C_2 Zn 1.09171(4) 1.21404(5) -0.00674(3)
O6A O 0.9206(4) 0.8703(6) -0.5055(3)
O7C O 1.1305(4) 0.9740(5) -0.5858(3)
O9C O 1.2520(4) 0.6852(5) -0.5263(3)
O10A O 1.5758(5) 0.1529(8) -0.0298(4)
O11C O 1.3671(6) 0.0349(6) 0.0990(4)
O12 O 1.6075(6) 0.1405(9) 0.2348(5)
H13 H 1.6246 0.0850 0.1968
H14 H 1.6154 0.1081 0.2855
loop_
_geom_bond_atom_site_label_1
_geom_bond_atom_site_label_2
_geom_bond_site_symmetry_1
_geom_bond_site_symmetry_2
Zn1 O2 1_555 1_555
Zn2 O1 1_555 1_555
C1 C2 1_555 1_555
C2 C7 1_555 1_555
C3 C4 1_555 1_555
C4 C1 1_555 1_555
C5 H1 1_555 1_555
C6 C5 1_555 1_555
C7 H2 1_555 1_555
C8 C1 1_555 1_555
C9 C6 1_555 1_555
H3 C9 1_555 1_555
C10 C2 1_555 1_555
H4 C10 1_555 1_555
C11 C4 1_555 1_555
H5 C11 1_555 1_555
C12 C11 1_555 1_555
C13 C12 1_555 1_555
C14 C8 1_555 1_555
H6 C14 1_555 1_555
C15 C8 1_555 1_555
C16 C6 1_555 1_555
O1 C3 1_555 1_555
O2 H7 1_555 1_555
H8 O2 1_555 1_555
O3 Zn1 1_555 1_555
H9 O3 1_555 1_555
H10 O3 1_555 1_555
O4 Zn2 1_555 1_555
O5 Zn2 1_555 1_555
H11 O5 1_555 1_555
H12 O5 1_555 1_555
O6 C13 1_555 1_555
O7 C13 1_555 1_555
O8 Zn1 1_555 1_555
O9 Zn1 1_555 1_555
O10 C16 1_555 1_555
O11 C16 1_555 1_555
O12 H13 1_555 1_555
H14 O12 1_555 1_555
Zn1A O10 1_555 1_555
Zn1C O11 1_555 1_555
Zn2A O6 1_555 1_555
Zn2C O9 1_555 1_555
Zn2C_2 O7 1_555 1_555
O6A Zn2 1_555 1_555
O7C Zn2 1_555 1_555
O9C Zn2 1_555 1_555
O10A Zn1 1_555 1_555
O11C Zn1 1_555 1_555
C3 O4 1_555 1_555
C5 C10 1_555 1_555
C7 C9 1_555 1_555
C12 C14 1_555 1_555
C15 O8 1_555 1_555
C15 O9 1_555 1_555

#END
