
#######################################################################
#
#                 Cambridge Crystallographic Data Centre
#                                CCDC 
#
#######################################################################
#
# If this CIF has been generated from an entry in the Cambridge 
# Structural Database, then it will include bibliographic, chemical, 
# crystal, experimental, refinement or atomic coordinate data resulting 
# from the CCDC's data processing and validation procedures.
#
#######################################################################

data_DUFMAU
_symmetry_cell_setting           orthorhombic
_symmetry_space_group_name_H-M   'P b c a'
_symmetry_Int_Tables_number      61
_space_group_name_Hall           '-P 2ac 2ab'
loop_
_symmetry_equiv_pos_site_id
_symmetry_equiv_pos_as_xyz
1 x,y,z
2 1/2-x,-y,1/2+z
3 -x,1/2+y,1/2-z
4 1/2+x,1/2-y,-z
5 -x,-y,-z
6 1/2+x,y,1/2-z
7 x,1/2-y,1/2+z
8 1/2-x,1/2+y,z
_cell_length_a                   15.987(3)
_cell_length_b                   13.547(3)
_cell_length_c                   25.534(6)
_cell_angle_alpha                90
_cell_angle_beta                 90
_cell_angle_gamma                90
_cell_volume                     5530.05
loop_
_atom_site_label
_atom_site_type_symbol
_atom_site_fract_x
_atom_site_fract_y
_atom_site_fract_z
Zn1 Zn 0.19754(3) 0.28832(3) 0.481281(19)
Zn2 Zn 0.41385(3) -0.16649(4) 0.731233(19)
C1 C 0.4580(3) 0.4775(3) 0.49836(16)
C2 C 0.3120(3) -0.3395(3) 0.76704(17)
H1 H 0.2702 -0.3043 0.7500
C3 C 0.0774(3) 0.0780(3) 0.63512(16)
H2 H 0.0284 0.1097 0.6251
C4 C 0.1540(3) 0.1120(3) 0.61560(15)
C5 C 0.4703(3) 0.1491(3) 0.57563(16)
C6 C 0.2280(3) 0.0651(3) 0.63195(16)
C7 C 0.0728(3) -0.0029(3) 0.66951(15)
C8 C 0.2228(3) -0.0138(3) 0.66742(16)
C9 C 0.3237(3) -0.5622(3) 0.85447(16)
C10 C 0.3500(3) -0.4776(3) 0.82154(16)
C11 C 0.3001(3) -0.0600(4) 0.69205(18)
C12 C 0.4321(3) -0.4452(3) 0.81678(17)
H3 H 0.4752 -0.4805 0.8325
C13 C 0.1521(3) 0.1975(3) 0.57666(16)
C14 C 0.4285(3) 0.2081(3) 0.61200(18)
H4 H 0.4540 0.2652 0.6245
C15 C 0.3494(3) 0.1827(3) 0.62968(17)
H5 H 0.3214 0.2231 0.6533
C16 C 0.2899(3) -0.4238(3) 0.79428(17)
H6 H 0.2345 -0.4446 0.7944
C17 C 0.1459(3) -0.0478(3) 0.68454(16)
H7 H 0.1437 -0.1023 0.7067
C18 C 0.4275(3) 0.4152(4) 0.53659(18)
H8 H 0.4603 0.4018 0.5658
C19 C 0.3123(3) 0.0963(3) 0.61183(15)
C20 C 0.4495(3) -0.3605(3) 0.78865(18)
H9 H 0.5049 -0.3399 0.7867
C21 C 0.3542(3) 0.0360(3) 0.57673(17)
H10 H 0.3295 -0.0222 0.5653
C22 C 0.3494(3) 0.3723(4) 0.53244(18)
H11 H 0.3310 0.3323 0.5597
C23 C 0.4331(3) 0.0623(3) 0.55862(17)
H12 H 0.4611 0.0216 0.5351
C24 C 0.4039(3) 0.4931(4) 0.45681(19)
H13 H 0.4194 0.5358 0.4300
C25 C 0.3279(3) 0.4466(4) 0.4547(2)
H14 H 0.2940 0.4585 0.4257
C26 C 0.3635(3) -0.5851(3) 0.90168(17)
H15 H 0.4124 -0.5526 0.9113
C27 C 0.3297(3) -0.6567(3) 0.93408(18)
H16 H 0.3572 -0.6711 0.9652
C28 C 0.2239(3) -0.6872(3) 0.87661(17)
H17 H 0.1764 -0.7227 0.8674
C29 C 0.2538(3) -0.6178(3) 0.84186(17)
H18 H 0.2270 -0.6083 0.8099
C30 C -0.0102(3) -0.0409(3) 0.68962(17)
C31 C 0.5541(3) 0.1813(4) 0.55618(17)
O1 O 0.20494(18) 0.1948(2) 0.53950(12)
O2 O 0.48370(19) -0.1873(2) 0.66718(11)
H19 H 0.4574 -0.2036 0.6396
H20 H 0.4447 -0.1471 0.6746
O3 O 0.2949(2) -0.1502(3) 0.70518(16)
O4 O 0.0993(2) 0.2636(2) 0.58164(12)
O5 O 0.3631(2) -0.0115(3) 0.70113(14)
O6 O -0.00463(19) -0.1177(2) 0.71897(12)
O7 O -0.0758(2) 0.0009(3) 0.67830(13)
O8 O 0.60364(19) 0.1176(2) 0.53644(13)
O9 O 0.5765(2) 0.2693(3) 0.55987(14)
N1 N 0.2991(2) 0.3850(2) 0.49167(13)
N2 N 0.3910(2) -0.3060(3) 0.76395(13)
N3 N 0.2597(2) -0.7063(3) 0.92310(13)
C1D C 0.5420(3) 0.5225(3) 0.50164(16)
C18D C 0.5725(3) 0.5848(4) 0.46341(18)
H8D H 0.5397 0.5982 0.4342
C22D C 0.6506(3) 0.6277(4) 0.46756(18)
H11D H 0.6690 0.6677 0.4403
C24D C 0.5961(3) 0.5069(4) 0.54319(19)
H13D H 0.5806 0.4642 0.5700
C25D C 0.6721(3) 0.5534(4) 0.5453(2)
H14D H 0.7060 0.5415 0.5743
N1D N 0.7009(2) 0.6150(2) 0.50833(13)
Zn1D Zn 0.80246(3) 0.71168(3) 0.518719(19)
Zn2D Zn 0.58615(3) 1.16649(4) 0.268767(19)
C2D C 0.6880(3) 1.3395(3) 0.23296(17)
H1D H 0.7298 1.3043 0.2500
C3D C 0.9226(3) 0.9220(3) 0.36488(16)
H2D H 0.9716 0.8903 0.3749
C4D C 0.8460(3) 0.8880(3) 0.38440(15)
C5D C 0.5297(3) 0.8509(3) 0.42437(16)
C6D C 0.7720(3) 0.9349(3) 0.36805(16)
C7D C 0.9272(3) 1.0029(3) 0.33049(15)
C8D C 0.7772(3) 1.0138(3) 0.33258(16)
C9D C 0.6763(3) 1.5622(3) 0.14553(16)
C10D C 0.6500(3) 1.4776(3) 0.17846(16)
C11D C 0.6999(3) 1.0600(4) 0.30795(18)
C12D C 0.5679(3) 1.4452(3) 0.18322(17)
H3D H 0.5248 1.4805 0.1675
C13D C 0.8479(3) 0.8025(3) 0.42334(16)
C14D C 0.5715(3) 0.7919(3) 0.38800(18)
H4D H 0.5460 0.7348 0.3755
C15D C 0.6506(3) 0.8173(3) 0.37032(17)
H5D H 0.6786 0.7769 0.3467
C16D C 0.7101(3) 1.4238(3) 0.20572(17)
H6D H 0.7655 1.4446 0.2056
C17D C 0.8541(3) 1.0478(3) 0.31546(16)
H7D H 0.8563 1.1023 0.2933
C19D C 0.6877(3) 0.9037(3) 0.38817(15)
C20D C 0.5505(3) 1.3605(3) 0.21135(18)
H9D H 0.4951 1.3399 0.2133
C21D C 0.6458(3) 0.9640(3) 0.42327(17)
H10D H 0.6705 1.0222 0.4347
C23D C 0.5669(3) 0.9377(3) 0.44138(17)
H12D H 0.5389 0.9784 0.4649
C26D C 0.6365(3) 1.5851(3) 0.09832(17)
H15D H 0.5876 1.5526 0.0887
C27D C 0.6703(3) 1.6567(3) 0.06592(18)
H16D H 0.6428 1.6711 0.0348
C28D C 0.7761(3) 1.6872(3) 0.12339(17)
H17D H 0.8236 1.7227 0.1326
C29D C 0.7462(3) 1.6178(3) 0.15814(17)
H18D H 0.7730 1.6083 0.1901
C30D C 1.0102(3) 1.0409(3) 0.31038(17)
C31D C 0.4459(3) 0.8187(4) 0.44382(17)
O1D O 0.79506(18) 0.8052(2) 0.46050(12)
O2D O 0.51630(19) 1.1873(2) 0.33282(11)
H19D H 0.5426 1.2036 0.3604
H20D H 0.5553 1.1471 0.3254
O3D O 0.7051(2) 1.1502(3) 0.29482(16)
O4D O 0.9007(2) 0.7364(2) 0.41836(12)
O5D O 0.6369(2) 1.0115(3) 0.29887(14)
O6D O 1.00463(19) 1.1177(2) 0.28103(12)
O7D O 1.0758(2) 0.9991(3) 0.32170(13)
O8D O 0.39636(19) 0.8824(2) 0.46356(13)
O9D O 0.4235(2) 0.7307(3) 0.44013(14)
N2D N 0.6090(2) 1.3060(3) 0.23605(13)
N3D N 0.7403(2) 1.7063(3) 0.07690(13)
Zn1B Zn 0.80246(3) 1.78832(3) 0.018719(19)
Zn1C Zn 0.69754(3) 0.21168(3) 0.518719(19)
Zn1F Zn 0.19754(3) -0.78832(3) 0.981281(19)
Zn1G Zn 0.30246(3) 0.78832(3) 0.481281(19)
Zn2A Zn 1.08615(3) 1.16649(4) 0.231233(19)
Zn2E Zn -0.08615(3) -0.16649(4) 0.768767(19)
O6A O 0.50463(19) 1.1177(2) 0.21897(12)
O6E O 0.49537(19) -0.1177(2) 0.78103(12)
O8C O 0.10364(19) 0.3824(2) 0.46356(13)
O8G O 0.89636(19) 0.6176(2) 0.53644(13)
O9C O 0.0765(2) 0.2307(3) 0.44013(14)
O9G O 0.9235(2) 0.7693(3) 0.55987(14)
N3B N 0.7403(2) 0.7937(3) 0.57690(13)
N3F N 0.2597(2) 0.2063(3) 0.42310(13)
O10 O 0.6097(3) -0.3058(3) 0.6872(3)
H21 H 0.5992 -0.3671 0.6844
H22 H 0.5664 -0.2704 0.6916
loop_
_geom_bond_atom_site_label_1
_geom_bond_atom_site_label_2
_geom_bond_site_symmetry_1
_geom_bond_site_symmetry_2
Zn1 O1 1_555 1_555
Zn2 O2 1_555 1_555
C1 C18 1_555 1_555
C2 H1 1_555 1_555
C3 H2 1_555 1_555
C4 C3 1_555 1_555
C5 C14 1_555 1_555
C6 C4 1_555 1_555
C7 C3 1_555 1_555
C8 C6 1_555 1_555
C9 C10 1_555 1_555
C10 C12 1_555 1_555
C11 C8 1_555 1_555
C12 H3 1_555 1_555
C13 C4 1_555 1_555
C14 H4 1_555 1_555
C15 C14 1_555 1_555
H5 C15 1_555 1_555
C16 C2 1_555 1_555
H6 C16 1_555 1_555
C17 C7 1_555 1_555
H7 C17 1_555 1_555
C18 H8 1_555 1_555
C19 C6 1_555 1_555
C20 C12 1_555 1_555
H9 C20 1_555 1_555
C21 C19 1_555 1_555
H10 C21 1_555 1_555
C22 C18 1_555 1_555
H11 C22 1_555 1_555
C23 C5 1_555 1_555
H12 C23 1_555 1_555
C24 C1 1_555 1_555
H13 C24 1_555 1_555
C25 C24 1_555 1_555
H14 C25 1_555 1_555
C26 C9 1_555 1_555
H15 C26 1_555 1_555
C27 C26 1_555 1_555
H16 C27 1_555 1_555
C28 H17 1_555 1_555
C29 C9 1_555 1_555
H18 C29 1_555 1_555
C30 C7 1_555 1_555
C31 C5 1_555 1_555
O1 C13 1_555 1_555
O2 H19 1_555 1_555
H20 O2 1_555 1_555
O3 Zn2 1_555 1_555
O4 C13 1_555 1_555
O5 Zn2 1_555 1_555
O6 C30 1_555 1_555
O7 C30 1_555 1_555
O8 C31 1_555 1_555
O9 C31 1_555 1_555
N1 Zn1 1_555 1_555
N2 Zn2 1_555 1_555
N3 C27 1_555 1_555
O10 H21 1_555 1_555
H22 O10 1_555 1_555
C1D C1 1_555 1_555
C18D C1D 1_555 1_555
H8D C18D 1_555 1_555
C22D C18D 1_555 1_555
H11D C22D 1_555 1_555
C24D C1D 1_555 1_555
H13D C24D 1_555 1_555
C25D C24D 1_555 1_555
H14D C25D 1_555 1_555
N1D C22D 1_555 1_555
Zn1D N1D 1_555 1_555
Zn2D O2D 1_555 1_555
C2D H1D 1_555 1_555
C3D H2D 1_555 1_555
C4D C3D 1_555 1_555
C5D C14D 1_555 1_555
C6D C4D 1_555 1_555
C7D C3D 1_555 1_555
C8D C6D 1_555 1_555
C9D C10D 1_555 1_555
C10D C12D 1_555 1_555
C11D C8D 1_555 1_555
C12D H3D 1_555 1_555
C13D C4D 1_555 1_555
C14D H4D 1_555 1_555
C15D C14D 1_555 1_555
H5D C15D 1_555 1_555
C16D C2D 1_555 1_555
H6D C16D 1_555 1_555
C17D C7D 1_555 1_555
H7D C17D 1_555 1_555
C19D C6D 1_555 1_555
C20D C12D 1_555 1_555
H9D C20D 1_555 1_555
C21D C19D 1_555 1_555
H10D C21D 1_555 1_555
C23D C5D 1_555 1_555
H12D C23D 1_555 1_555
C26D C9D 1_555 1_555
H15D C26D 1_555 1_555
C27D C26D 1_555 1_555
H16D C27D 1_555 1_555
C28D H17D 1_555 1_555
C29D C9D 1_555 1_555
H18D C29D 1_555 1_555
C30D C7D 1_555 1_555
C31D C5D 1_555 1_555
O1D Zn1D 1_555 1_555
O2D H19D 1_555 1_555
H20D O2D 1_555 1_555
O3D Zn2D 1_555 1_555
O4D C13D 1_555 1_555
O5D Zn2D 1_555 1_555
O6D C30D 1_555 1_555
O7D C30D 1_555 1_555
O8D C31D 1_555 1_555
O9D C31D 1_555 1_555
N2D Zn2D 1_555 1_555
N3D C27D 1_555 1_555
Zn1B N3D 1_555 1_555
Zn1C O8 1_555 1_555
Zn1F N3 1_555 1_555
Zn1G O8D 1_555 1_555
Zn2A O6D 1_555 1_555
Zn2E O6 1_555 1_555
O6A Zn2D 1_555 1_555
O6E Zn2 1_555 1_555
O8C Zn1 1_555 1_555
O8G Zn1D 1_555 1_555
O9C Zn1 1_555 1_555
O9G Zn1D 1_555 1_555
N3B Zn1D 1_555 1_555
N3F Zn1 1_555 1_555
C2 N2 1_555 1_555
C8 C17 1_555 1_555
C10 C16 1_555 1_555
C11 O3 1_555 1_555
C11 O5 1_555 1_555
C15 C19 1_555 1_555
C20 N2 1_555 1_555
C21 C23 1_555 1_555
C22 N1 1_555 1_555
C25 N1 1_555 1_555
C28 C29 1_555 1_555
C28 N3 1_555 1_555
O9 Zn1C 1_555 1_555
C25D N1D 1_555 1_555
C2D N2D 1_555 1_555
C8D C17D 1_555 1_555
C10D C16D 1_555 1_555
C11D O3D 1_555 1_555
C11D O5D 1_555 1_555
C13D O1D 1_555 1_555
C15D C19D 1_555 1_555
C20D N2D 1_555 1_555
C21D C23D 1_555 1_555
C28D C29D 1_555 1_555
C28D N3D 1_555 1_555
O9D Zn1G 1_555 1_555

#END
