
#######################################################################
#
#                 Cambridge Crystallographic Data Centre
#                                CCDC 
#
#######################################################################
#
# If this CIF has been generated from an entry in the Cambridge 
# Structural Database, then it will include bibliographic, chemical, 
# crystal, experimental, refinement or atomic coordinate data resulting 
# from the CCDC's data processing and validation procedures.
#
#######################################################################

data_DUFMAT
_symmetry_cell_setting           orthorhombic
_symmetry_space_group_name_H-M   'P c a 21'
_symmetry_Int_Tables_number      29
_space_group_name_Hall           'P 2c -2ac'
loop_
_symmetry_equiv_pos_site_id
_symmetry_equiv_pos_as_xyz
1 x,y,z
2 -x,-y,1/2+z
3 1/2-x,y,1/2+z
4 1/2+x,-y,z
_cell_length_a                   8.862(3)
_cell_length_b                   20.877(5)
_cell_length_c                   11.706(6)
_cell_angle_alpha                90
_cell_angle_beta                 90
_cell_angle_gamma                90
_cell_volume                     2165.75
loop_
_atom_site_label
_atom_site_type_symbol
_atom_site_fract_x
_atom_site_fract_y
_atom_site_fract_z
Fe1 Fe -0.98290(8) -1.24172(4) -0.58215(12)
O1 O -0.9641(5) -1.3290(2) -0.5115(4)
O2 O -0.8400(5) -1.1770(3) -0.5097(4)
O3 O -1.0988(5) -1.5101(3) -0.6099(6)
O4 O -0.7900(6) -0.9805(3) -0.5322(6)
O5 O -0.7921(5) -1.2764(3) -0.6901(5)
H1 H -0.7369 -1.2889 -0.6362
N1 N -1.1328(6) -1.2852(3) -0.6974(5)
N2 N -1.0359(6) -1.1647(3) -0.6902(5)
N3 N -1.3462(6) -1.2191(3) -0.9472(6)
C1 C -1.0028(9) -1.3852(4) -0.5385(6)
C2 C -1.1032(8) -1.3977(4) -0.6329(7)
C3 C -1.1569(7) -1.3470(4) -0.7038(6)
H2 H -1.2200 -1.3600 -0.7651
C4 C -1.1915(9) -1.2437(4) -0.7828(7)
C5 C -1.2984(8) -1.2586(4) -0.8677(8)
H3 H -1.3392 -1.3007 -0.8676
C6 C -1.2906(8) -1.1595(3) -0.9451(6)
H4 H -1.3219 -1.1302 -1.0026
C7 C -1.1903(7) -1.1386(4) -0.8634(6)
H5 H -1.1559 -1.0955 -0.8647
C8 C -1.1386(7) -1.1803(4) -0.7787(6)
C9 C -0.9955(7) -1.1045(4) -0.6798(6)
H6 H -1.0391 -1.0751 -0.7323
C10 C -0.8917(7) -1.0783(4) -0.5971(7)
C11 C -0.8190(8) -1.1173(4) -0.5181(7)
C12 C -0.9370(9) -1.4363(4) -0.4650(7)
H7 H -0.8791 -1.4166 -0.4028
H8 H -0.8702 -1.4634 -0.5109
H9 H -1.0183 -1.4624 -0.4328
C13 C -1.1479(9) -1.4630(4) -0.6581(8)
C14 C -1.2638(8) -1.4748(3) -0.7522(7)
H10 H -1.2854 -1.5208 -0.7572
H11 H -1.2234 -1.4598 -0.8254
H12 H -1.3569 -1.4516 -0.7345
C15 C -0.7021(8) -1.0927(4) -0.4335(7)
H13 H -0.6428 -1.1288 -0.4043
H14 H -0.7532 -1.0712 -0.3699
H15 H -0.6349 -1.0623 -0.4720
C16 C -0.8697(8) -1.0091(4) -0.6007(8)
C17 C -0.9433(7) -0.9680(3) -0.6926(7)
H16 H -0.9150 -0.9230 -0.6812
H17 H -1.0533 -0.9722 -0.6877
H18 H -0.9091 -0.9822 -0.7681
C18 C -0.7081(12) -1.2412(5) -0.7652(11)
H19 H -0.7747 -1.2220 -0.8226
H20 H -0.6347 -1.2691 -0.8032
H21 H -0.6547 -1.2073 -0.7238
Fe1B Fe -1.51710(8) -1.24172(4) -1.08215(12)
N3B N -1.1538(6) -1.2191(3) -0.4472(6)
O6 O -0.5821(6) -1.3609(3) -0.6123(6)
H22 H -0.5941 -1.4007 -0.6172
C19 C -0.5162(12) -1.3461(5) -0.5077(9)
H23 H -0.5872 -1.3558 -0.4460
H24 H -0.4906 -1.3005 -0.5058
H25 H -0.4243 -1.3716 -0.4977
loop_
_geom_bond_atom_site_label_1
_geom_bond_atom_site_label_2
_geom_bond_site_symmetry_1
_geom_bond_site_symmetry_2
Fe1 O1 1_555 1_555
O1 C1 1_555 1_555
O2 Fe1 1_555 1_555
O3 C13 1_555 1_555
O4 C16 1_555 1_555
O5 Fe1 1_555 1_555
H1 O5 1_555 1_555
N1 Fe1 1_555 1_555
N2 Fe1 1_555 1_555
N3 C5 1_555 1_555
C1 C2 1_555 1_555
C2 C3 1_555 1_555
C3 N1 1_555 1_555
H2 C3 1_555 1_555
C4 N1 1_555 1_555
C5 C4 1_555 1_555
H3 C5 1_555 1_555
C6 N3 1_555 1_555
H4 C6 1_555 1_555
C7 C6 1_555 1_555
H5 C7 1_555 1_555
C8 N2 1_555 1_555
C9 N2 1_555 1_555
H6 C9 1_555 1_555
C10 C9 1_555 1_555
C11 O2 1_555 1_555
C12 C1 1_555 1_555
H7 C12 1_555 1_555
H8 C12 1_555 1_555
H9 C12 1_555 1_555
C13 C2 1_555 1_555
C14 C13 1_555 1_555
H10 C14 1_555 1_555
H11 C14 1_555 1_555
H12 C14 1_555 1_555
C15 C11 1_555 1_555
H13 C15 1_555 1_555
H14 C15 1_555 1_555
H15 C15 1_555 1_555
C16 C10 1_555 1_555
C17 C16 1_555 1_555
H16 C17 1_555 1_555
H17 C17 1_555 1_555
H18 C17 1_555 1_555
C18 O5 1_555 1_555
H19 C18 1_555 1_555
H20 C18 1_555 1_555
H21 C18 1_555 1_555
O6 H22 1_555 1_555
C19 O6 1_555 1_555
H23 C19 1_555 1_555
H24 C19 1_555 1_555
H25 C19 1_555 1_555
Fe1B N3 1_555 1_555
N3B Fe1 1_555 1_555
C4 C8 1_555 1_555
C7 C8 1_555 1_555
C10 C11 1_555 1_555

#END
