
#######################################################################
#
#                 Cambridge Crystallographic Data Centre
#                                CCDC 
#
#######################################################################
#
# If this CIF has been generated from an entry in the Cambridge 
# Structural Database, then it will include bibliographic, chemical, 
# crystal, experimental, refinement or atomic coordinate data resulting 
# from the CCDC's data processing and validation procedures.
#
#######################################################################

data_DUFMIC
_symmetry_cell_setting           triclinic
_symmetry_space_group_name_H-M   'P -1'
_symmetry_Int_Tables_number      2
_space_group_name_Hall           '-P 1'
loop_
_symmetry_equiv_pos_site_id
_symmetry_equiv_pos_as_xyz
1 x,y,z
2 -x,-y,-z
_cell_length_a                   10.165(3)
_cell_length_b                   11.197(3)
_cell_length_c                   13.910(4)
_cell_angle_alpha                107.499(6)
_cell_angle_beta                 95.853(5)
_cell_angle_gamma                97.126(6)
_cell_volume                     1481.96
loop_
_atom_site_label
_atom_site_type_symbol
_atom_site_fract_x
_atom_site_fract_y
_atom_site_fract_z
C1 C -0.0662(2) 0.2739(2) 0.77536(17)
C2 C -0.2101(2) 0.2100(2) 0.74258(16)
C3 C -0.2409(2) 0.0850(2) 0.67855(17)
H1 H -0.1718 0.0404 0.6583
C4 C -0.3732(2) 0.0254(2) 0.64417(17)
C5 C -0.4739(2) 0.0944(2) 0.67525(16)
H2 H -0.5628 0.0563 0.6523
C6 C -0.4457(2) 0.21923(19) 0.73997(15)
C7 C -0.3128(2) 0.2757(2) 0.77395(16)
H3 H -0.2927 0.3585 0.8183
C8 C -0.5567(2) 0.2927(2) 0.77370(17)
C9 C -0.4050(3) -0.1101(2) 0.5751(2)
H4 H -0.3541 -0.1204 0.5196
H5 H -0.4989 -0.1308 0.5489
H6 H -0.3822 -0.1655 0.6129
C10 C 0.3491(2) 0.6507(2) 0.92545(18)
H7 H 0.4292 0.6292 0.9041
C11 C 0.1484(2) 0.6379(2) 0.95846(18)
H8 H 0.0620 0.6045 0.9637
C12 C 0.1993(3) 0.7623(2) 0.98945(19)
H9 H 0.1556 0.8292 1.0196
C13 C 0.4177(2) 0.8868(2) 0.98222(18)
C14 C 0.4660(3) 0.9631(2) 1.08084(18)
H10 H 0.4418 0.9368 1.1349
C15 C 0.5502(3) 1.0789(2) 1.10125(18)
C16 C 0.1429(3) 0.5430(2) 0.67384(18)
H11 H 0.1138 0.6037 0.7255
C17 C 0.1505(3) 0.5495(2) 0.57909(18)
H12 H 0.1289 0.6139 0.5540
C18 C 0.2142(2) 0.3745(2) 0.59300(16)
H13 H 0.2436 0.2964 0.5766
C19 C 0.2083(2) 0.3976(2) 0.42066(16)
C20 C 0.2956(2) 0.4688(2) 0.37995(17)
C21 C 0.2977(2) 0.4211(2) 0.27558(17)
H14 H 0.3567 0.4642 0.2457
C22 C 0.2143(2) 0.3113(2) 0.21525(16)
C23 C 0.1279(2) 0.2390(2) 0.25603(17)
C24 C 0.1283(2) 0.2860(2) 0.36090(17)
H15 H 0.0728 0.2406 0.3915
C25 C 0.0331(3) 0.1202(3) 0.1939(2)
H16 H -0.0010 0.1288 0.1298
H17 H -0.0399 0.1071 0.2302
H18 H 0.0799 0.0489 0.1821
C26 C 0.3842(3) 0.5914(3) 0.4429(2)
H19 H 0.3346 0.6603 0.4497
H20 H 0.4605 0.6054 0.4100
H21 H 0.4140 0.5866 0.5092
C27 C 0.2052(2) 0.3532(2) 0.04961(16)
H22 H 0.1933 0.4373 0.0751
C28 C 0.2294(3) 0.1744(2) -0.05127(18)
H23 H 0.2374 0.1106 -0.1103
C29 C 0.2318(3) 0.1608(2) 0.04172(19)
H24 H 0.2420 0.0878 0.0585
C30 C 0.6038(4) 1.1585(3) 1.2099(2)
H25 H 0.6954 1.1955 1.2140
H26 H 0.5987 1.1060 1.2531
H27 H 0.5513 1.2247 1.2316
N1 N 0.24195(18) 0.56787(16) 0.91818(13)
N2 N 0.32799(19) 0.77120(16) 0.96788(14)
N3 N 0.18422(19) 0.43415(18) 0.68315(13)
N4 N 0.1968(2) 0.44095(18) 0.52728(14)
N5 N 0.2162(2) 0.27564(17) 0.10690(13)
N6 N 0.21335(19) 0.29563(17) -0.04648(13)
O1 O 0.02329(15) 0.21123(17) 0.74030(14)
O2 O -0.03771(16) 0.38471(16) 0.83385(13)
O3 O -0.67549(15) 0.23209(16) 0.74821(13)
O4 O -0.52995(18) 0.40654(17) 0.82333(15)
Mn1 Mn 0.19828(3) 0.36608(3) 0.81902(2)
C10A C 0.6509(2) 1.3493(2) 1.07455(18)
H7A H 0.5708 1.3708 1.0959
C11A C 0.8516(2) 1.3621(2) 1.04154(18)
H8A H 0.9380 1.3955 1.0363
C12A C 0.8007(3) 1.2377(2) 1.01055(19)
H9A H 0.8444 1.1708 0.9804
C13A C 0.5823(2) 1.1132(2) 1.01778(18)
C14A C 0.5340(3) 1.0369(2) 0.91916(18)
H10A H 0.5582 1.0632 0.8651
C15A C 0.4498(3) 0.9211(2) 0.89875(18)
C30A C 0.3962(4) 0.8415(3) 0.7901(2)
H25A H 0.3046 0.8045 0.7860
H26A H 0.4013 0.8940 0.7469
H27A H 0.4487 0.7753 0.7684
N1A N 0.75805(18) 1.43213(16) 1.08182(13)
N2A N 0.67201(19) 1.22880(16) 1.03212(14)
C1A C 1.0662(2) 1.7261(2) 1.22464(17)
C2A C 1.2101(2) 1.7900(2) 1.25742(16)
C3A C 1.2409(2) 1.9150(2) 1.32145(17)
H1A H 1.1718 1.9596 1.3417
C4A C 1.3732(2) 1.9746(2) 1.35583(17)
C5A C 1.4739(2) 1.9056(2) 1.32475(16)
H2A H 1.5628 1.9437 1.3477
C6A C 1.4457(2) 1.78077(19) 1.26003(15)
C7A C 1.3128(2) 1.7243(2) 1.22605(16)
H3A H 1.2927 1.6415 1.1817
C8A C 1.5567(2) 1.7073(2) 1.22630(17)
C9A C 1.4050(3) 2.1101(2) 1.4249(2)
H4A H 1.3541 2.1204 1.4804
H5A H 1.4989 2.1308 1.4511
H6A H 1.3822 2.1655 1.3871
C16A C 0.8571(3) 1.4570(2) 1.32616(18)
H11A H 0.8862 1.3963 1.2745
C17A C 0.8495(3) 1.4505(2) 1.42091(18)
H12A H 0.8711 1.3861 1.4460
C18A C 0.7858(2) 1.6255(2) 1.40700(16)
H13A H 0.7564 1.7036 1.4234
C19A C 0.7917(2) 1.6024(2) 1.57934(16)
C20A C 0.7044(2) 1.5312(2) 1.62005(17)
C21A C 0.7023(2) 1.5789(2) 1.72442(17)
H14A H 0.6433 1.5358 1.7543
C22A C 0.7857(2) 1.6887(2) 1.78475(16)
C23A C 0.8721(2) 1.7610(2) 1.74397(17)
C24A C 0.8717(2) 1.7140(2) 1.63910(17)
H15A H 0.9272 1.7594 1.6085
C25A C 0.9669(3) 1.8798(3) 1.8061(2)
H16A H 1.0010 1.8712 1.8702
H17A H 1.0399 1.8929 1.7698
H18A H 0.9201 1.9511 1.8179
C26A C 0.6158(3) 1.4086(3) 1.5571(2)
H19A H 0.6654 1.3397 1.5503
H20A H 0.5395 1.3946 1.5900
H21A H 0.5860 1.4134 1.4908
C27A C 0.7948(2) 1.6468(2) 1.95039(16)
H22A H 0.8067 1.5627 1.9249
C28A C 0.7706(3) 1.8256(2) 2.05127(18)
H23A H 0.7626 1.8894 2.1103
C29A C 0.7682(3) 1.8392(2) 1.95828(19)
H24A H 0.7580 1.9122 1.9415
N3A N 0.81578(19) 1.56585(18) 1.31685(13)
N4A N 0.8032(2) 1.55905(18) 1.47272(14)
N5A N 0.7838(2) 1.72436(17) 1.89310(13)
N6A N 0.78665(19) 1.70437(17) 2.04648(13)
O1A O 0.97671(15) 1.78877(17) 1.25970(14)
O2A O 1.03771(16) 1.61529(16) 1.16615(13)
O3A O 1.67549(15) 1.76791(16) 1.25179(13)
O4A O 1.52995(18) 1.59346(17) 1.17667(15)
Mn1A Mn 0.80172(3) 1.63392(3) 1.18098(2)
N6_2 N 0.21335(19) 0.29563(17) 0.95352(13)
N6A_2 N 0.78665(19) 1.70437(17) 1.04648(13)
O3_2 O 0.32451(15) 0.23209(16) 0.74821(13)
O3A_2 O 0.67549(15) 1.76791(16) 1.25179(13)
Mn1_2 Mn -0.80172(3) 0.36608(3) 0.81902(2)
Mn1_3 Mn 0.19828(3) 0.36608(3) -0.18098(2)
Mn1A_2 Mn 0.80172(3) 1.63392(3) 2.18098(2)
Mn1A_3 Mn 1.80172(3) 1.63392(3) 1.18098(2)
O5 O 0.9034(4) 0.2138(2) 0.5088(2)
H28 H 0.9419 0.1511 0.5105
H29 H 0.8232 0.1869 0.4789
O6 O 0.8509(3) 0.9712(2) 0.3792(3)
H30 H 0.8996 0.9239 0.3986
H31 H 0.8030 0.9292 0.3225
loop_
_geom_bond_atom_site_label_1
_geom_bond_atom_site_label_2
_geom_bond_site_symmetry_1
_geom_bond_site_symmetry_2
C1 C2 1_555 1_555
C2 C3 1_555 1_555
C3 H1 1_555 1_555
C4 C3 1_555 1_555
C5 C4 1_555 1_555
H2 C5 1_555 1_555
C6 C5 1_555 1_555
C7 C2 1_555 1_555
H3 C7 1_555 1_555
C8 C6 1_555 1_555
C9 C4 1_555 1_555
H4 C9 1_555 1_555
H5 C9 1_555 1_555
H6 C9 1_555 1_555
C10 H7 1_555 1_555
C11 H8 1_555 1_555
C12 C11 1_555 1_555
H9 C12 1_555 1_555
C13 C14 1_555 1_555
C14 H10 1_555 1_555
C15 C14 1_555 1_555
C16 H11 1_555 1_555
C17 C16 1_555 1_555
H12 C17 1_555 1_555
C18 H13 1_555 1_555
C19 C20 1_555 1_555
C20 C21 1_555 1_555
C21 H14 1_555 1_555
C22 C21 1_555 1_555
C23 C22 1_555 1_555
C24 C19 1_555 1_555
H15 C24 1_555 1_555
C25 C23 1_555 1_555
H16 C25 1_555 1_555
H17 C25 1_555 1_555
H18 C25 1_555 1_555
C26 C20 1_555 1_555
H19 C26 1_555 1_555
H20 C26 1_555 1_555
H21 C26 1_555 1_555
C27 H22 1_555 1_555
C28 H23 1_555 1_555
C29 C28 1_555 1_555
H24 C29 1_555 1_555
C30 C15 1_555 1_555
H25 C30 1_555 1_555
H26 C30 1_555 1_555
H27 C30 1_555 1_555
N1 C10 1_555 1_555
N2 C10 1_555 1_555
N3 C16 1_555 1_555
N4 C17 1_555 1_555
N5 C22 1_555 1_555
N6 C27 1_555 1_555
O1 C1 1_555 1_555
O2 C1 1_555 1_555
O3 C8 1_555 1_555
O4 C8 1_555 1_555
Mn1 N1 1_555 1_555
O5 H28 1_555 1_555
H29 O5 1_555 1_555
O6 H30 1_555 1_555
H31 O6 1_555 1_555
C10A H7A 1_555 1_555
C11A H8A 1_555 1_555
C12A C11A 1_555 1_555
H9A C12A 1_555 1_555
C13A C15 1_555 1_555
C14A C13A 1_555 1_555
H10A C14A 1_555 1_555
C15A C13 1_555 1_555
C30A C15A 1_555 1_555
H25A C30A 1_555 1_555
H26A C30A 1_555 1_555
H27A C30A 1_555 1_555
N1A C10A 1_555 1_555
N2A C10A 1_555 1_555
C1A C2A 1_555 1_555
C2A C3A 1_555 1_555
C3A H1A 1_555 1_555
C4A C3A 1_555 1_555
C5A C4A 1_555 1_555
H2A C5A 1_555 1_555
C6A C5A 1_555 1_555
C7A C2A 1_555 1_555
H3A C7A 1_555 1_555
C8A C6A 1_555 1_555
C9A C4A 1_555 1_555
H4A C9A 1_555 1_555
H5A C9A 1_555 1_555
H6A C9A 1_555 1_555
C16A H11A 1_555 1_555
C17A C16A 1_555 1_555
H12A C17A 1_555 1_555
C18A H13A 1_555 1_555
C19A C20A 1_555 1_555
C20A C21A 1_555 1_555
C21A H14A 1_555 1_555
C22A C21A 1_555 1_555
C23A C22A 1_555 1_555
C24A C19A 1_555 1_555
H15A C24A 1_555 1_555
C25A C23A 1_555 1_555
H16A C25A 1_555 1_555
H17A C25A 1_555 1_555
H18A C25A 1_555 1_555
C26A C20A 1_555 1_555
H19A C26A 1_555 1_555
H20A C26A 1_555 1_555
H21A C26A 1_555 1_555
C27A H22A 1_555 1_555
C28A H23A 1_555 1_555
C29A C28A 1_555 1_555
H24A C29A 1_555 1_555
N3A C16A 1_555 1_555
N4A C17A 1_555 1_555
N5A C22A 1_555 1_555
N6A C27A 1_555 1_555
O1A C1A 1_555 1_555
O2A C1A 1_555 1_555
O3A C8A 1_555 1_555
O4A C8A 1_555 1_555
Mn1A N1A 1_555 1_555
N6_2 Mn1 1_555 1_555
N6A_2 Mn1A 1_555 1_555
O3_2 Mn1 1_555 1_555
O3A_2 Mn1A 1_555 1_555
Mn1_2 O3 1_555 1_555
Mn1_3 N6 1_555 1_555
Mn1A_2 N6A 1_555 1_555
Mn1A_3 O3A 1_555 1_555
C6 C7 1_555 1_555
C11 N1 1_555 1_555
C12 N2 1_555 1_555
C13 N2 1_555 1_555
C18 N3 1_555 1_555
C18 N4 1_555 1_555
C19 N4 1_555 1_555
C23 C24 1_555 1_555
C27 N5 1_555 1_555
C28 N6 1_555 1_555
C29 N5 1_555 1_555
N3 Mn1 1_555 1_555
O1 Mn1 1_555 1_555
O2 Mn1 1_555 1_555
C11A N1A 1_555 1_555
C12A N2A 1_555 1_555
C13A N2A 1_555 1_555
C14A C15A 1_555 1_555
C6A C7A 1_555 1_555
C18A N3A 1_555 1_555
C18A N4A 1_555 1_555
C19A N4A 1_555 1_555
C23A C24A 1_555 1_555
C27A N5A 1_555 1_555
C28A N6A 1_555 1_555
C29A N5A 1_555 1_555
N3A Mn1A 1_555 1_555
O1A Mn1A 1_555 1_555
O2A Mn1A 1_555 1_555

#END
