
#######################################################################
#
#                 Cambridge Crystallographic Data Centre
#                                CCDC 
#
#######################################################################
#
# If this CIF has been generated from an entry in the Cambridge 
# Structural Database, then it will include bibliographic, chemical, 
# crystal, experimental, refinement or atomic coordinate data resulting 
# from the CCDC's data processing and validation procedures.
#
#######################################################################

data_DUFMIB
_symmetry_cell_setting           monoclinic
_symmetry_space_group_name_H-M   'P 21/n'
_symmetry_Int_Tables_number      14
_space_group_name_Hall           '-P 2yn'
loop_
_symmetry_equiv_pos_site_id
_symmetry_equiv_pos_as_xyz
1 x,y,z
2 1/2-x,1/2+y,1/2-z
3 -x,-y,-z
4 1/2+x,1/2-y,1/2+z
_cell_length_a                   8.5874(13)
_cell_length_b                   7.1738(14)
_cell_length_c                   19.093(5)
_cell_angle_alpha                90
_cell_angle_beta                 99.509(15)
_cell_angle_gamma                90
_cell_volume                     1160.05
loop_
_atom_site_label
_atom_site_type_symbol
_atom_site_fract_x
_atom_site_fract_y
_atom_site_fract_z
C1 C 0.6418(9) -0.0949(10) 0.2872(4)
C2 C 0.5468(9) -0.0809(11) 0.2129(4)
H1 H 0.5503 0.0512 0.2002
C3 C 0.3723(9) -0.1226(11) 0.2141(4)
C4 C 0.6114(8) -0.1825(12) 0.1563(4)
H2 H 0.5437 -0.1633 0.1116
H3 H 0.6169 -0.3133 0.1671
H4 H 0.7152 -0.1367 0.1535
C5 C 0.6162(9) 0.1877(10) 0.4670(4)
H5 H 0.6895 0.1424 0.4405
C6 C 0.6659(9) 0.2352(10) 0.5369(4)
C7 C 0.5590(10) 0.3062(11) 0.5774(4)
H6 H 0.5917 0.3420 0.6243
C8 C 0.4047(9) 0.3218(10) 0.5463(4)
H7 H 0.3298 0.3666 0.5721
C9 C 0.3607(9) 0.2702(10) 0.4760(4)
H8 H 0.2551 0.2811 0.4554
Cu1 Cu 0.40219(10) 0.13561(12) 0.33135(5)
O1 O 0.7708(6) -0.1767(7) 0.2967(2)
O2 O 0.5918(5) -0.0125(6) 0.3378(2)
O3 O 0.5033(6) 0.3817(7) 0.2861(3)
O4 O 0.3058(5) -0.2465(7) 0.1726(3)
O5 O 0.3001(5) -0.0244(7) 0.2540(3)
I1 I 0.90408(6) 0.19583(7) 0.58070(3)
N1 N 0.4641(7) 0.2049(8) 0.4359(3)
Cu1A Cu 0.09781(10) -0.36439(12) 0.16865(5)
O4A O 0.1942(5) 0.2535(7) 0.3274(3)
loop_
_geom_bond_atom_site_label_1
_geom_bond_atom_site_label_2
_geom_bond_site_symmetry_1
_geom_bond_site_symmetry_2
C1 C2 1_555 1_555
C2 H1 1_555 1_555
C3 C2 1_555 1_555
C4 C2 1_555 1_555
H2 C4 1_555 1_555
H3 C4 1_555 1_555
H4 C4 1_555 1_555
C5 H5 1_555 1_555
C6 C5 1_555 1_555
C7 C6 1_555 1_555
H6 C7 1_555 1_555
C8 C7 1_555 1_555
H7 C8 1_555 1_555
C9 C8 1_555 1_555
H8 C9 1_555 1_555
Cu1 O2 1_555 1_555
O1 C1 1_555 1_555
O2 C1 1_555 1_555
O3 Cu1 1_555 1_555
O4 C3 1_555 1_555
O5 C3 1_555 1_555
I1 C6 1_555 1_555
N1 C5 1_555 1_555
Cu1A O4 1_555 1_555
O4A Cu1 1_555 1_555
C9 N1 1_555 1_555
Cu1 O5 1_555 1_555
Cu1 N1 1_555 1_555

#END
