
#######################################################################
#
#                 Cambridge Crystallographic Data Centre
#                                CCDC 
#
#######################################################################
#
# If this CIF has been generated from an entry in the Cambridge 
# Structural Database, then it will include bibliographic, chemical, 
# crystal, experimental, refinement or atomic coordinate data resulting 
# from the CCDC's data processing and validation procedures.
#
#######################################################################

data_DUFMOH
_symmetry_cell_setting           monoclinic
_symmetry_space_group_name_H-M   'P 21/n'
_symmetry_Int_Tables_number      14
_space_group_name_Hall           '-P 2yn'
loop_
_symmetry_equiv_pos_site_id
_symmetry_equiv_pos_as_xyz
1 x,y,z
2 1/2-x,1/2+y,1/2-z
3 -x,-y,-z
4 1/2+x,1/2-y,1/2+z
_cell_length_a                   17.375(4)
_cell_length_b                   7.3305(14)
_cell_length_c                   14.247(3)
_cell_angle_alpha                90
_cell_angle_beta                 111.409(15)
_cell_angle_gamma                90
_cell_volume                     1689.39
loop_
_atom_site_label
_atom_site_type_symbol
_atom_site_fract_x
_atom_site_fract_y
_atom_site_fract_z
C1 C 0.3023(3) -0.7332(6) -0.1459(4)
C2 C 0.3817(3) -0.6888(7) -0.0589(4)
C3 C 0.4555(3) -0.6660(6) -0.0945(4)
C4 C 0.4009(4) -0.8117(10) 0.0304(5)
C5 C 0.3679(3) -0.3255(7) -0.4494(4)
C6 C 0.4090(3) -0.2698(7) -0.5109(5)
C7 C 0.4940(3) -0.2711(6) -0.4751(4)
C8 C 0.5331(3) -0.3313(7) -0.3772(5)
C9 C 0.4884(3) -0.3823(7) -0.3207(5)
C10 C 0.5407(3) -0.2098(6) -0.5387(4)
C11 C 0.6265(4) -0.2199(8) -0.5038(5)
C12 C 0.6667(4) -0.1592(8) -0.5659(6)
C13 C 0.6223(4) -0.0937(7) -0.6586(5)
C14 C 0.5381(4) -0.0883(7) -0.6871(5)
N1 N 0.4055(2) -0.3806(5) -0.3551(3)
N2 N 0.4970(3) -0.1434(5) -0.6307(3)
O1 O 0.26103(19) -0.8694(4) -0.1386(3)
O2 O 0.27823(19) -0.6257(5) -0.2195(3)
O3 O 0.3771(4) -0.2228(7) -0.1555(4)
O4 O 0.5237(2) -0.7270(5) -0.0431(3)
O6 O 0.44355(18) -0.5772(4) -0.1746(3)
Cu1 Cu 0.34524(4) -0.45700(7) -0.26316(5)
H1 H 0.379(3) -0.576(7) -0.021(4)
H2 H 0.396(5) -0.258(9) -0.100(7)
H3 H 0.339(6) -0.189(12) -0.159(8)
H6 H 0.420(4) -0.942(9) 0.010(5)
H7 H 0.441(4) -0.756(9) 0.078(6)
H10 H 0.352(4) -0.818(7) 0.053(5)
H11 H 0.317(3) -0.316(6) -0.464(4)
H14 H 0.377(3) -0.242(7) -0.578(4)
H15 H 0.586(3) -0.328(7) -0.355(5)
H16 H 0.516(2) -0.422(5) -0.257(3)
H17 H 0.647(3) -0.267(7) -0.443(4)
H18 H 0.726(4) -0.179(7) -0.537(5)
H19 H 0.650(3) -0.042(7) -0.703(4)
H20 H 0.508(3) -0.041(7) -0.749(4)
O1A O 0.23897(19) -0.3694(4) -0.3614(3)
Cu1A Cu 0.15476(4) -0.95700(7) -0.23684(5)
O5 O -0.1689(3) -0.4581(7) -0.2591(4)
H4 H -0.187(4) -0.574(9) -0.298(5)
H5 H -0.231(4) -0.452(8) -0.326(5)
O7 O -0.1471(3) -1.1463(8) -0.3748(5)
H8 H -0.112(4) -1.181(9) -0.397(6)
H9 H -0.145(5) -1.234(10) -0.335(7)
O8 O -0.2115(3) -0.8276(7) -0.3173(4)
H12 H -0.190(4) -0.938(9) -0.334(5)
H13 H -0.232(3) -0.875(8) -0.292(5)
loop_
_geom_bond_atom_site_label_1
_geom_bond_atom_site_label_2
_geom_bond_site_symmetry_1
_geom_bond_site_symmetry_2
C1 C2 1_555 1_555
C2 C3 1_555 1_555
C3 O4 1_555 1_555
C4 C2 1_555 1_555
C5 C6 1_555 1_555
C6 C7 1_555 1_555
C7 C8 1_555 1_555
C8 C9 1_555 1_555
C9 N1 1_555 1_555
C10 C7 1_555 1_555
C11 C10 1_555 1_555
C12 C11 1_555 1_555
C13 C12 1_555 1_555
C14 C13 1_555 1_555
N1 C5 1_555 1_555
N2 C10 1_555 1_555
O1 C1 1_555 1_555
O2 C1 1_555 1_555
O3 Cu1 1_555 1_555
O5 H4 1_555 1_555
O6 C3 1_555 1_555
O7 H8 1_555 1_555
O8 H12 1_555 1_555
Cu1 N1 1_555 1_555
H1 C2 1_555 1_555
H2 O3 1_555 1_555
H3 O3 1_555 1_555
H5 O5 1_555 1_555
H6 C4 1_555 1_555
H7 C4 1_555 1_555
H9 O7 1_555 1_555
H10 C4 1_555 1_555
H11 C5 1_555 1_555
H13 O8 1_555 1_555
H14 C6 1_555 1_555
H15 C8 1_555 1_555
H16 C9 1_555 1_555
H17 C11 1_555 1_555
H18 C12 1_555 1_555
H19 C13 1_555 1_555
H20 C14 1_555 1_555
O1A Cu1 1_555 1_555
Cu1A O1 1_555 1_555
C14 N2 1_555 1_555
O2 Cu1 1_555 1_555
O6 Cu1 1_555 1_555

#END
