
#######################################################################
#
#                 Cambridge Crystallographic Data Centre
#                                CCDC 
#
#######################################################################
#
# If this CIF has been generated from an entry in the Cambridge 
# Structural Database, then it will include bibliographic, chemical, 
# crystal, experimental, refinement or atomic coordinate data resulting 
# from the CCDC's data processing and validation procedures.
#
#######################################################################

data_DUFMEX
_symmetry_cell_setting           triclinic
_symmetry_space_group_name_H-M   'P -1'
_symmetry_Int_Tables_number      2
_space_group_name_Hall           '-P 1'
loop_
_symmetry_equiv_pos_site_id
_symmetry_equiv_pos_as_xyz
1 x,y,z
2 -x,-y,-z
_cell_length_a                   11.5630(3)
_cell_length_b                   11.6015(3)
_cell_length_c                   19.6310(5)
_cell_angle_alpha                81.352(2)
_cell_angle_beta                 79.5960(10)
_cell_angle_gamma                89.3590(10)
_cell_volume                     2560.37
loop_
_atom_site_label
_atom_site_type_symbol
_atom_site_fract_x
_atom_site_fract_y
_atom_site_fract_z
Fe1 Fe 0.28295(3) 0.40208(3) 0.320474(19)
O1 O 0.40388(16) 0.38120(15) 0.38358(10)
O2 O 0.35169(16) 0.42810(15) 0.21621(9)
O3 O 0.2176(3) 0.5571(3) 0.03880(13)
O4 O 0.3902(2) 0.3804(3) 0.59529(12)
N1 N 0.1604(2) 0.37737(18) 0.41599(11)
N2 N 0.1218(2) 0.41223(18) 0.28394(11)
N3 N 0.2967(2) 1.20896(18) 0.32044(11)
N4 N 0.2908(2) 0.59525(18) 0.32274(11)
N5 N -0.1612(3) 0.3087(3) 0.44666(17)
C1 C 0.3126(3) 0.4527(2) 0.15943(14)
C2 C 0.1914(3) 0.4769(2) 0.15906(14)
C3 C 0.1048(3) 0.4516(2) 0.22040(14)
H1 H 0.0255 0.4646 0.2149
C4 C 0.0239(2) 0.3794(2) 0.33727(14)
C5 C -0.0880(3) 0.3542(3) 0.32643(16)
H2 H -0.1017 0.3603 0.2798
C6 C -0.1779(3) 0.3214(3) 0.37989(16)
H3 H -0.2536 0.3072 0.3703
C7 C -0.0523(3) 0.3276(3) 0.45981(17)
H4 H -0.0409 0.3160 0.5071
C8 C 0.0433(2) 0.3631(2) 0.40721(14)
C9 C 0.1837(2) 0.3741(2) 0.47926(14)
H5 H 0.1179 0.3736 0.5161
C10 C 0.2957(3) 0.3713(2) 0.49879(14)
C11 C 0.4020(3) 0.3656(2) 0.44886(15)
C12 C 0.4006(3) 0.4471(3) 0.09398(16)
H6 H 0.4239 0.5263 0.0709
H7 H 0.3654 0.4062 0.0623
H8 H 0.4699 0.4050 0.1059
C13 C 0.5177(3) 0.3363(3) 0.47035(17)
H9 H 0.5701 0.3060 0.4322
H10 H 0.5056 0.2770 0.5123
H11 H 0.5531 0.4065 0.4806
C14 C 0.1502(3) 0.5215(3) 0.09343(16)
C15 C 0.0203(3) 0.5274(3) 0.09308(18)
H12 H 0.0073 0.5598 0.0461
H13 H -0.0166 0.5772 0.1267
H14 H -0.0146 0.4488 0.1062
C16 C 0.2988(3) 0.3679(3) 0.57349(16)
C17 C 0.1868(3) 0.3506(3) 0.62677(16)
H15 H 0.2052 0.3444 0.6740
H16 H 0.1467 0.2789 0.6222
H17 H 0.1354 0.4172 0.6188
C18 C 0.2717(3) 0.6722(2) 0.26836(15)
H18 H 0.2556 0.6430 0.2283
C19 C 0.2739(3) 0.7907(2) 0.26646(15)
H19 H 0.2601 0.8407 0.2258
C20 C 0.2963(2) 0.8379(2) 0.32390(14)
C21 C 0.3161(3) 0.7586(2) 0.38052(16)
H20 H 0.3318 0.7854 0.4214
C22 C 0.3132(3) 0.6411(2) 0.37777(16)
H21 H 0.3281 0.5891 0.4174
C23 C 0.2991(2) 0.9661(2) 0.32312(14)
C24 C 0.3309(3) 1.0424(2) 0.26147(15)
H22 H 0.3540 1.0129 0.2185
C25 C 0.3292(3) 1.1604(2) 0.26189(15)
H23 H 0.3522 1.2105 0.2187
C26 C 0.2698(3) 1.1351(2) 0.38027(14)
H24 H 0.2493 1.1667 0.4227
C27 C 0.2701(2) 1.0153(2) 0.38404(14)
H25 H 0.2506 0.9668 0.4281
Fe1_2 Fe 0.28295(3) 1.40208(3) 0.320474(19)
N3_2 N 0.2967(2) 0.20896(18) 0.32044(11)
Fe2 Fe 0.68536(3) 0.12785(3) 0.187979(19)
O5 O 0.55557(16) 0.13355(16) 0.13108(10)
O6 O 0.62508(16) 0.09669(15) 0.29275(9)
O7 O 0.7793(2) -0.0702(3) 0.45547(12)
O8 O 0.7387(2) 0.1711(3) -0.10518(13)
N6 N 0.79926(19) 0.15370(18) 0.08949(11)
N7 N 0.85079(19) 0.12030(18) 0.21828(11)
N8 N 0.66870(19) 0.31940(17) 0.18923(11)
N9 N 0.67894(19) 0.93128(18) 0.18928(12)
N10 N 1.1229(3) 0.2182(3) 0.04816(17)
C28 C 0.6697(3) 0.0535(2) 0.34510(14)
C29 C 0.7924(3) 0.0349(3) 0.34092(14)
C30 C 0.8744(3) 0.0728(2) 0.27881(14)
H26 H 0.9552 0.0626 0.2815
C31 C 0.9450(2) 0.1546(2) 0.16247(14)
C32 C 1.0596(3) 0.1788(3) 0.16963(16)
H27 H 1.0776 0.1744 0.2153
C33 C 1.1455(3) 0.2083(3) 0.11343(16)
H28 H 1.2232 0.2223 0.1202
C34 C 1.0120(3) 0.1986(3) 0.03872(16)
H29 H 0.9971 0.2053 -0.0077
C35 C 0.9191(2) 0.1690(2) 0.09424(14)
C36 C 0.7695(3) 0.1654(2) 0.02805(14)
H30 H 0.8318 0.1780 -0.0112
C37 C 0.6531(3) 0.1615(2) 0.01329(14)
C38 C 0.5518(2) 0.1408(2) 0.06637(15)
C39 C 0.5825(3) 0.0237(3) 0.41228(17)
H31 H 0.5056 0.0551 0.4058
H32 H 0.6093 0.0577 0.4496
H33 H 0.5758 -0.0613 0.4252
C40 C 0.4304(3) 0.1197(3) 0.05209(17)
H34 H 0.3862 0.0663 0.0913
H35 H 0.4370 0.0853 0.0089
H36 H 0.3893 0.1939 0.0467
C41 C 0.8406(3) -0.0213(3) 0.40189(16)
C42 C 0.9712(3) -0.0213(4) 0.3996(2)
H37 H 0.9881 -0.0590 0.4448
H38 H 1.0013 0.0593 0.3901
H39 H 1.0094 -0.0640 0.3625
C43 C 0.6505(3) 0.1834(3) -0.06169(17)
C44 C 0.5428(3) 0.2275(4) -0.09037(19)
H40 H 0.5669 0.2807 -0.1344
H41 H 0.4931 0.2690 -0.0563
H42 H 0.4983 0.1614 -0.0990
C45 C 0.7014(3) 0.3946(2) 0.13037(14)
H43 H 0.7250 0.3643 0.0877
C46 C 0.7024(3) 0.5138(2) 0.12829(14)
H44 H 0.7259 0.5636 0.0850
C47 C 0.6692(2) 0.5610(2) 0.18977(14)
C48 C 0.6327(3) 0.4826(2) 0.25032(14)
H45 H 0.6075 0.5106 0.2936
C49 C 0.6326(3) 0.3650(2) 0.24824(14)
H46 H 0.6059 0.3135 0.2905
C50 C 0.6720(2) 0.6887(2) 0.18994(14)
C51 C 0.7430(3) 0.7628(2) 0.13720(17)
H47 H 0.7912 0.7319 0.0999
C52 C 0.7439(3) 0.8807(2) 0.13890(17)
H48 H 0.7935 0.9291 0.1021
C53 C 0.6098(2) 0.8599(2) 0.23962(14)
H49 H 0.5616 0.8936 0.2757
C54 C 0.6038(2) 0.7405(2) 0.24267(14)
H50 H 0.5537 0.6942 0.2803
Fe2_2 Fe 0.68536(3) 1.12785(3) 0.187979(19)
N9_2 N 0.67894(19) -0.06872(18) 0.18928(12)
C55 C 1.0089(8) 0.2078(10) -0.2123(5)
H51 H 0.9755 0.2859 -0.2189
H52 H 0.9757 0.1582 -0.2404
H53 H 1.0945 0.2134 -0.2272
O9 O 0.9795(5) 0.1555(7) -0.1357(3)
H54 H 0.9065 0.1565 -0.1219
C56? C 1.0010(8) 0.1566(10) -0.2046(5)
H55? H 0.9591 0.1790 -0.2436
H56? H 0.9793 0.0762 -0.1830
H57? H 1.0860 0.1622 -0.2221
H58? H 0.8989 0.2215 -0.1352
O10? O 0.9700(6) 0.2326(9) -0.1539(4)
loop_
_geom_bond_atom_site_label_1
_geom_bond_atom_site_label_2
_geom_bond_site_symmetry_1
_geom_bond_site_symmetry_2
Fe1 O1 1_555 1_555
O1 C11 1_555 1_555
O2 Fe1 1_555 1_555
O3 C14 1_555 1_555
O4 C16 1_555 1_555
N1 Fe1 1_555 1_555
N2 Fe1 1_555 1_555
N3 C25 1_555 1_555
N4 Fe1 1_555 1_555
N5 C6 1_555 1_555
C1 O2 1_555 1_555
C2 C1 1_555 1_555
C3 N2 1_555 1_555
H1 C3 1_555 1_555
C4 N2 1_555 1_555
C5 C4 1_555 1_555
H2 C5 1_555 1_555
C6 C5 1_555 1_555
H3 C6 1_555 1_555
C7 N5 1_555 1_555
H4 C7 1_555 1_555
C8 N1 1_555 1_555
C9 N1 1_555 1_555
H5 C9 1_555 1_555
C10 C9 1_555 1_555
C11 C10 1_555 1_555
C12 C1 1_555 1_555
H6 C12 1_555 1_555
H7 C12 1_555 1_555
H8 C12 1_555 1_555
C13 C11 1_555 1_555
H9 C13 1_555 1_555
H10 C13 1_555 1_555
H11 C13 1_555 1_555
C14 C2 1_555 1_555
C15 C14 1_555 1_555
H12 C15 1_555 1_555
H13 C15 1_555 1_555
H14 C15 1_555 1_555
C16 C10 1_555 1_555
C17 C16 1_555 1_555
H15 C17 1_555 1_555
H16 C17 1_555 1_555
H17 C17 1_555 1_555
C18 N4 1_555 1_555
H18 C18 1_555 1_555
C19 C18 1_555 1_555
H19 C19 1_555 1_555
C20 C19 1_555 1_555
C21 C20 1_555 1_555
H20 C21 1_555 1_555
C22 N4 1_555 1_555
H21 C22 1_555 1_555
C23 C20 1_555 1_555
C24 C23 1_555 1_555
H22 C24 1_555 1_555
C25 C24 1_555 1_555
H23 C25 1_555 1_555
C26 N3 1_555 1_555
H24 C26 1_555 1_555
C27 C23 1_555 1_555
H25 C27 1_555 1_555
Fe2 O5 1_555 1_555
O5 C38 1_555 1_555
O6 Fe2 1_555 1_555
O7 C41 1_555 1_555
O8 C43 1_555 1_555
N6 Fe2 1_555 1_555
N7 Fe2 1_555 1_555
N8 Fe2 1_555 1_555
N9 C52 1_555 1_555
N10 C33 1_555 1_555
C28 O6 1_555 1_555
C29 C28 1_555 1_555
C30 N7 1_555 1_555
H26 C30 1_555 1_555
C31 N7 1_555 1_555
C32 C31 1_555 1_555
H27 C32 1_555 1_555
C33 C32 1_555 1_555
H28 C33 1_555 1_555
C34 N10 1_555 1_555
H29 C34 1_555 1_555
C35 N6 1_555 1_555
C36 N6 1_555 1_555
H30 C36 1_555 1_555
C37 C36 1_555 1_555
C38 C37 1_555 1_555
C39 C28 1_555 1_555
H31 C39 1_555 1_555
H32 C39 1_555 1_555
H33 C39 1_555 1_555
C40 C38 1_555 1_555
H34 C40 1_555 1_555
H35 C40 1_555 1_555
H36 C40 1_555 1_555
C41 C29 1_555 1_555
C42 C41 1_555 1_555
H37 C42 1_555 1_555
H38 C42 1_555 1_555
H39 C42 1_555 1_555
C43 C37 1_555 1_555
C44 C43 1_555 1_555
H40 C44 1_555 1_555
H41 C44 1_555 1_555
H42 C44 1_555 1_555
C45 N8 1_555 1_555
H43 C45 1_555 1_555
C46 C45 1_555 1_555
H44 C46 1_555 1_555
C47 C46 1_555 1_555
C48 C47 1_555 1_555
H45 C48 1_555 1_555
C49 N8 1_555 1_555
H46 C49 1_555 1_555
C50 C47 1_555 1_555
C51 C50 1_555 1_555
H47 C51 1_555 1_555
C52 C51 1_555 1_555
H48 C52 1_555 1_555
C53 N9 1_555 1_555
H49 C53 1_555 1_555
C54 C50 1_555 1_555
H50 C54 1_555 1_555
C55 H51 1_555 1_555
H52 C55 1_555 1_555
H53 C55 1_555 1_555
O9 C55 1_555 1_555
H54 O9 1_555 1_555
Fe1_2 N3 1_555 1_555
N3_2 Fe1 1_555 1_555
Fe2_2 N9 1_555 1_555
N9_2 Fe2 1_555 1_555
C2 C3 1_555 1_555
C4 C8 1_555 1_555
C7 C8 1_555 1_555
C21 C22 1_555 1_555
C26 C27 1_555 1_555
C29 C30 1_555 1_555
C31 C35 1_555 1_555
C34 C35 1_555 1_555
C48 C49 1_555 1_555
C53 C54 1_555 1_555

#END
