
#######################################################################
#
#                 Cambridge Crystallographic Data Centre
#                                CCDC 
#
#######################################################################
#
# If this CIF has been generated from an entry in the Cambridge 
# Structural Database, then it will include bibliographic, chemical, 
# crystal, experimental, refinement or atomic coordinate data resulting 
# from the CCDC's data processing and validation procedures.
#
#######################################################################

data_DUFQAW
_symmetry_cell_setting           monoclinic
_symmetry_space_group_name_H-M   'C 2/c'
_symmetry_Int_Tables_number      15
_space_group_name_Hall           '-C 2yn'
loop_
_symmetry_equiv_pos_site_id
_symmetry_equiv_pos_as_xyz
1 x,y,z
2 1/2+x,1/2+y,z
3 x,-y,1/2+z
4 1/2+x,1/2-y,1/2+z
5 -x,-y,-z
6 1/2-x,1/2-y,-z
7 -x,y,1/2-z
8 1/2-x,1/2+y,1/2-z
_cell_length_a                   28.4958(1)
_cell_length_b                   10.2352(2)
_cell_length_c                   14.8060(2)
_cell_angle_alpha                90
_cell_angle_beta                 117.203(1)
_cell_angle_gamma                90
_cell_volume                     3840.68
loop_
_atom_site_label
_atom_site_type_symbol
_atom_site_fract_x
_atom_site_fract_y
_atom_site_fract_z
Cu1 Cu -0.16291(4) 0.45323(10) 0.32241(7)
O1 O -0.2770(3) 0.3184(7) 0.2757(6)
O2 O -0.2922(3) 0.5290(7) 0.2927(6)
H1 H -0.3098 0.4985 0.3186
N1 N -0.1052(3) 0.3188(7) 0.3588(5)
N2 N -0.1001(3) 0.5773(7) 0.3264(5)
N3 N -0.1681(2) 0.5087(8) -0.0512(4)
C1 C -0.1081(4) 0.1924(9) 0.3738(7)
H2 H -0.1394 0.1594 0.3695
C2 C -0.0667(5) 0.1068(10) 0.3957(8)
H3 H -0.0704 0.0188 0.4070
C3 C -0.0202(5) 0.1519(11) 0.4009(8)
H4 H 0.0074 0.0946 0.4132
C4 C -0.0149(4) 0.2865(10) 0.3873(7)
C5 C 0.0319(4) 0.3441(13) 0.3936(8)
H5 H 0.0606 0.2912 0.4048
C6 C 0.0355(4) 0.4750(13) 0.3835(8)
H6 H 0.0669 0.5104 0.3899
C7 C -0.0082(4) 0.5596(10) 0.3631(7)
C8 C -0.0063(4) 0.6946(11) 0.3516(7)
H7 H 0.0251 0.7351 0.3626
C9 C -0.0514(5) 0.7668(10) 0.3238(8)
H8 H -0.0514 0.8561 0.3123
C10 C -0.0973(4) 0.7044(9) 0.3129(7)
H9 H -0.1274 0.7547 0.2954
C11 C -0.0561(3) 0.5043(9) 0.3522(6)
C12 C -0.0591(3) 0.3663(9) 0.3634(6)
C13 C -0.2715(3) 0.4332(9) 0.2633(6)
C14 C -0.2389(3) 0.4848(9) 0.2152(6)
H10 H -0.2474 0.5728 0.1861
C15 C -0.2164(3) 0.4022(9) 0.1742(6)
H11 H -0.2292 0.3120 0.1672
C16 C -0.1977(3) 0.4384(8) 0.1008(6)
C17 C -0.1862(4) 0.3430(9) 0.0479(6)
H12 H -0.1877 0.2553 0.0629
C18 C -0.1725(4) 0.3768(9) -0.0267(6)
H13 H -0.1658 0.3107 -0.0625
C19 C -0.1797(4) 0.5945(9) -0.0007(6)
H14 H -0.1785 0.6819 -0.0166
C20 C -0.1938(4) 0.5675(8) 0.0751(6)
H15 H -0.2007 0.6356 0.1089
N3B N -0.1681(2) 0.4913(8) 0.4488(4)
Cu1B Cu -0.16291(4) 0.54677(10) -0.17759(7)
B1 B -0.1254(6) 0.0115(14) 0.5753(11)
F1 F -0.0894(6) 0.0957(15) 0.5926(9)
F2 F -0.1683(7) 0.073(2) 0.551(2)
F3 F -0.1224(9) -0.0568(18) 0.6493(10)
F4 F -0.1338(6) -0.0635(11) 0.4947(10)
loop_
_geom_bond_atom_site_label_1
_geom_bond_atom_site_label_2
_geom_bond_site_symmetry_1
_geom_bond_site_symmetry_2
Cu1 N1 1_555 1_555
O1 C13 1_555 1_555
O2 H1 1_555 1_555
N1 C1 1_555 1_555
N2 Cu1 1_555 1_555
N3 C18 1_555 1_555
B1 F1 1_555 1_555
F2 B1 1_555 1_555
F3 B1 1_555 1_555
F4 B1 1_555 1_555
C1 H2 1_555 1_555
C2 C1 1_555 1_555
H3 C2 1_555 1_555
C3 C2 1_555 1_555
H4 C3 1_555 1_555
C4 C3 1_555 1_555
C5 C4 1_555 1_555
H5 C5 1_555 1_555
C6 C5 1_555 1_555
H6 C6 1_555 1_555
C7 C6 1_555 1_555
C8 C7 1_555 1_555
H7 C8 1_555 1_555
C9 C8 1_555 1_555
H8 C9 1_555 1_555
C10 N2 1_555 1_555
H9 C10 1_555 1_555
C11 N2 1_555 1_555
C12 N1 1_555 1_555
C13 O2 1_555 1_555
C14 Cu1 1_555 1_555
H10 C14 1_555 1_555
C15 Cu1 1_555 1_555
H11 C15 1_555 1_555
C16 C15 1_555 1_555
C17 C16 1_555 1_555
H12 C17 1_555 1_555
C18 C17 1_555 1_555
H13 C18 1_555 1_555
C19 N3 1_555 1_555
H14 C19 1_555 1_555
C20 C16 1_555 1_555
H15 C20 1_555 1_555
N3B Cu1 1_555 1_555
Cu1B N3 1_555 1_555
C4 C12 1_555 1_555
C7 C11 1_555 1_555
C9 C10 1_555 1_555
C11 C12 1_555 1_555
C13 C14 1_555 1_555
C14 C15 1_555 1_555
C19 C20 1_555 1_555

#END
