
#######################################################################
#
#                 Cambridge Crystallographic Data Centre
#                                CCDC 
#
#######################################################################
#
# If this CIF has been generated from an entry in the Cambridge 
# Structural Database, then it will include bibliographic, chemical, 
# crystal, experimental, refinement or atomic coordinate data resulting 
# from the CCDC's data processing and validation procedures.
#
#######################################################################

data_DUFROM
_symmetry_cell_setting           monoclinic
_symmetry_space_group_name_H-M   'P 21/c'
_symmetry_Int_Tables_number      14
_space_group_name_Hall           '-P 2ybc'
loop_
_symmetry_equiv_pos_site_id
_symmetry_equiv_pos_as_xyz
1 x,y,z
2 -x,1/2+y,1/2-z
3 -x,-y,-z
4 x,1/2-y,1/2+z
_cell_length_a                   6.58490(10)
_cell_length_b                   8.56600(10)
_cell_length_c                   14.7660(2)
_cell_angle_alpha                90
_cell_angle_beta                 112.4700(10)
_cell_angle_gamma                90
_cell_volume                     769.661
loop_
_atom_site_label
_atom_site_type_symbol
_atom_site_fract_x
_atom_site_fract_y
_atom_site_fract_z
Gd1 Gd 0.33324(3) 0.259997(19) 0.087048(12)
K1 K 0.03163(17) 0.34569(13) -0.19922(8)
S1 S 0.74161(14) 0.33588(10) -0.02340(7)
O1 O 0.5610(5) 0.2632(3) -0.0027(2)
O2 O 0.1810(5) 0.0924(4) -0.0530(2)
H1 H 0.0639 0.0458 -0.0774
H2 H 0.2579 0.0527 -0.0792
O3 O 0.7071(5) 0.3126(4) -0.1258(2)
O4 O 0.9492(5) 0.2636(3) 0.0411(3)
O5 O 0.7527(5) 0.5053(3) -0.0006(2)
O6 O 0.6046(5) 0.0544(3) 0.1565(2)
O7 O 0.2181(4) 0.0531(3) 0.1720(2)
C1 C 0.5852(6) -0.0365(4) 0.2196(3)
C2 C 0.3628(6) -0.0315(4) 0.2316(3)
O8 O 0.7293(5) -0.1259(3) 0.2743(2)
O9 O 0.3448(4) -0.1086(3) 0.2997(2)
Gd1_2 Gd 1.33324(3) 0.259997(19) 0.087048(12)
Gd1B Gd 0.66676(3) 0.740003(19) -0.087048(12)
Gd1A Gd 0.66676(3) -0.240003(19) 0.412952(12)
K1_2 K 1.03163(17) 0.34569(13) -0.19922(8)
K1B K 0.96837(17) 0.65431(13) 0.19922(8)
K1C K 1.03163(17) 0.15431(13) 0.30078(8)
K1C_2 K 0.03163(17) 0.15431(13) 0.30078(8)
K1B_2 K 0.96837(17) -0.34569(13) 0.19922(8)
K1B_3 K -0.03163(17) -0.34569(13) 0.19922(8)
O3_2 O -0.2929(5) 0.3126(4) -0.1258(2)
O4_2 O -0.0508(5) 0.2636(3) 0.0411(3)
O5B O 0.2473(5) 0.4947(3) 0.0006(2)
O6C O -0.3954(5) 0.4456(3) -0.3435(2)
O7C O 0.2181(4) 0.4469(3) -0.3280(2)
O8A O 0.2707(5) 0.3741(3) 0.2257(2)
O8B O 0.2707(5) 0.1259(3) -0.2743(2)
O8C O -0.2707(5) 0.6259(3) -0.2257(2)
O9A O 0.6552(4) 0.3914(3) 0.2003(2)
O9B O -0.3448(4) 0.1086(3) -0.2997(2)
O9C O 0.3448(4) 0.6086(3) -0.2003(2)
loop_
_geom_bond_atom_site_label_1
_geom_bond_atom_site_label_2
_geom_bond_site_symmetry_1
_geom_bond_site_symmetry_2
Gd1 O1 1_555 1_555
K1 O2 1_555 1_555
S1 O1 1_555 1_555
O2 Gd1 1_555 1_555
H1 O2 1_555 1_555
H2 O2 1_555 1_555
O3 S1 1_555 1_555
O4 S1 1_555 1_555
O5 S1 1_555 1_555
O6 Gd1 1_555 1_555
O7 Gd1 1_555 1_555
C1 O6 1_555 1_555
C2 O7 1_555 1_555
O8 C1 1_555 1_555
O9 C2 1_555 1_555
Gd1_2 O4 1_555 1_555
Gd1B O5 1_555 1_555
Gd1A O8 1_555 1_555
K1_2 O3 1_555 1_555
K1B O5 1_555 1_555
K1C O6 1_555 1_555
K1C_2 O7 1_555 1_555
K1B_2 O8 1_555 1_555
K1B_3 O9 1_555 1_555
O3_2 K1 1_555 1_555
O4_2 Gd1 1_555 1_555
O5B Gd1 1_555 1_555
O6C K1 1_555 1_555
O7C K1 1_555 1_555
O8A Gd1 1_555 1_555
O8B K1 1_555 1_555
O8C K1 1_555 1_555
O9A Gd1 1_555 1_555
O9B K1 1_555 1_555
O9C K1 1_555 1_555
K1 O5B 1_555 1_555
C1 C2 1_555 1_555
O8 K1C 1_555 1_555
O9 Gd1A 1_555 1_555
O9 K1C_2 1_555 1_555
Gd1B O9C 1_555 1_555
K1B O9A 1_555 1_555
K1C O9A 1_555 1_555
K1C_2 O8A 1_555 1_555

#END
