
#######################################################################
#
#                 Cambridge Crystallographic Data Centre
#                                CCDC 
#
#######################################################################
#
# If this CIF has been generated from an entry in the Cambridge 
# Structural Database, then it will include bibliographic, chemical, 
# crystal, experimental, refinement or atomic coordinate data resulting 
# from the CCDC's data processing and validation procedures.
#
#######################################################################

data_DUFTEF
_symmetry_cell_setting           monoclinic
_symmetry_space_group_name_H-M   'P 21/n'
_symmetry_Int_Tables_number      14
_space_group_name_Hall           '-P 2yn'
loop_
_symmetry_equiv_pos_site_id
_symmetry_equiv_pos_as_xyz
1 x,y,z
2 1/2-x,1/2+y,1/2-z
3 -x,-y,-z
4 1/2+x,1/2-y,1/2+z
_cell_length_a                   10.070(4)
_cell_length_b                   23.375(10)
_cell_length_c                   10.302(4)
_cell_angle_alpha                90
_cell_angle_beta                 96.679(3)
_cell_angle_gamma                90
_cell_volume                     2408.49
loop_
_atom_site_label
_atom_site_type_symbol
_atom_site_fract_x
_atom_site_fract_y
_atom_site_fract_z
Cd1 Cd -0.13999(2) 0.429463(11) 0.28962(2)
O1 O -0.3185(2) 0.43515(11) 1.1228(2)
N1 N 0.3018(3) 0.40456(12) 0.3070(3)
N2 N 0.4041(3) 0.34099(13) 0.0616(3)
O2 O -0.2956(2) 0.43622(11) 0.4313(2)
N3 N 0.0922(3) 0.41764(13) 0.3319(3)
C1 C -0.3049(3) 0.44014(13) 0.6595(3)
O3 O -0.1045(2) 0.42914(11) 0.5576(2)
N4 N 0.4641(3) 0.25431(13) 0.1455(3)
N5 N 0.4439(3) 0.34467(13) 0.1930(3)
N6 N 0.3469(3) 0.17259(13) -0.2124(3)
N7 N 0.2902(3) 0.38721(16) 0.4314(3)
C2 C -0.2413(3) 0.43493(13) 0.7868(3)
H1 H -0.1495 0.4290 0.8009
C3 C 0.1829(3) 0.42224(14) 0.2509(3)
H2 H 0.1665 0.4360 0.1658
N8 N 0.5815(3) 0.19439(15) 0.5178(4)
C4 C 0.5685(4) 0.31171(17) 0.4802(4)
H3 H 0.5660 0.3512 0.4684
C5 C 0.3421(4) 0.29122(18) -0.2022(4)
H4 H 0.3409 0.3310 -0.1993
C6 C 0.4280(3) 0.40073(15) 0.2517(4)
H5 H 0.5013 0.4073 0.3199
H6 H 0.4313 0.4302 0.1858
C7 C 0.4198(3) 0.28581(16) 0.0387(4)
C8 C 0.3028(4) 0.26295(18) -0.3172(4)
H7 H 0.2743 0.2832 -0.3931
C9 C 0.4783(3) 0.29221(16) 0.2420(4)
C10 C -0.5156(3) 0.45211(16) 0.7466(3)
H8 H -0.6076 0.4578 0.7329
C11 C -0.3153(3) 0.43864(14) 0.8927(3)
C12 C 0.5332(4) 0.21682(18) 0.4026(4)
H9 H 0.5032 0.1918 0.3352
C13 C 0.3835(3) 0.25993(16) -0.0908(4)
C14 C 0.1642(4) 0.3960(2) 0.4408(4)
H10 H 0.1258 0.3880 0.5166
C15 C 0.3846(3) 0.20087(16) -0.1014(4)
H11 H 0.4133 0.1797 -0.0270
C16 C -0.4517(3) 0.44662(15) 0.8718(3)
H12 H -0.5010 0.4483 0.9427
C17 C -0.2476(4) 0.43452(14) 1.0312(3)
C18 C -0.2285(3) 0.43514(14) 0.5436(3)
C19 C 0.5251(3) 0.27548(16) 0.3772(4)
C20 C -0.4422(3) 0.44909(15) 0.6415(3)
H13 H -0.4855 0.4531 0.5572
C21 C 0.3062(4) 0.20406(17) -0.3183(4)
H14 H 0.2789 0.1852 -0.3964
C22 C 0.6207(4) 0.2304(2) 0.6141(4)
H15 H 0.6534 0.2153 0.6951
C23 C 0.6155(4) 0.28872(18) 0.6002(4)
H16 H 0.6432 0.3124 0.6706
O4 O -0.1118(2) 0.52641(11) 0.2912(2)
H17 H -0.1293 0.5500 0.2287
H18 H -0.0839 0.5455 0.3592
O5 O -0.1224(3) 0.43036(11) 1.0519(2)
Cd1_2 Cd -0.13999(2) 0.429463(11) 1.28962(2)
Cd1C Cd 0.36001(2) 0.070537(11) -0.21038(2)
O1_2 O -0.3185(2) 0.43515(11) 0.1228(2)
N6C N -0.1531(3) 0.32741(13) 0.2876(3)
O5_2 O -0.1224(3) 0.43036(11) 0.0519(2)
O6 O -0.1138(3) 0.57538(13) 0.0558(3)
H19 H -0.127(5) 0.6107(7) 0.039(5)
H20 H -0.052(4) 0.5599(16) 0.018(5)
loop_
_geom_bond_atom_site_label_1
_geom_bond_atom_site_label_2
_geom_bond_site_symmetry_1
_geom_bond_site_symmetry_2
Cd1 O2 1_555 1_555
O1 C17 1_555 1_555
N1 N7 1_555 1_555
N2 N5 1_555 1_555
O2 C18 1_555 1_555
N3 Cd1 1_555 1_555
C1 C2 1_555 1_555
O3 Cd1 1_555 1_555
N4 C7 1_555 1_555
N5 C6 1_555 1_555
N6 C15 1_555 1_555
N7 C14 1_555 1_555
C2 H1 1_555 1_555
C3 N1 1_555 1_555
H2 C3 1_555 1_555
N8 C12 1_555 1_555
C4 H3 1_555 1_555
C5 H4 1_555 1_555
C6 N1 1_555 1_555
H5 C6 1_555 1_555
H6 C6 1_555 1_555
C7 N2 1_555 1_555
C8 C5 1_555 1_555
H7 C8 1_555 1_555
C9 N4 1_555 1_555
C10 H8 1_555 1_555
C11 C2 1_555 1_555
C12 H9 1_555 1_555
C13 C5 1_555 1_555
C14 N3 1_555 1_555
H10 C14 1_555 1_555
C15 C13 1_555 1_555
H11 C15 1_555 1_555
C16 C10 1_555 1_555
H12 C16 1_555 1_555
C17 C11 1_555 1_555
C18 C1 1_555 1_555
C19 C4 1_555 1_555
C20 C1 1_555 1_555
H13 C20 1_555 1_555
C21 N6 1_555 1_555
H14 C21 1_555 1_555
C22 N8 1_555 1_555
H15 C22 1_555 1_555
C23 C4 1_555 1_555
H16 C23 1_555 1_555
O4 Cd1 1_555 1_555
H17 O4 1_555 1_555
H18 O4 1_555 1_555
O5 C17 1_555 1_555
O6 H19 1_555 1_555
H20 O6 1_555 1_555
Cd1_2 O1 1_555 1_555
Cd1C N6 1_555 1_555
O1_2 Cd1 1_555 1_555
N6C Cd1 1_555 1_555
O5_2 Cd1 1_555 1_555
N3 C3 1_555 1_555
O3 C18 1_555 1_555
N5 C9 1_555 1_555
C7 C13 1_555 1_555
C8 C21 1_555 1_555
C9 C19 1_555 1_555
C10 C20 1_555 1_555
C11 C16 1_555 1_555
C12 C19 1_555 1_555
C22 C23 1_555 1_555
O5 Cd1_2 1_555 1_555

#END
