
#######################################################################
#
#                 Cambridge Crystallographic Data Centre
#                                CCDC 
#
#######################################################################
#
# If this CIF has been generated from an entry in the Cambridge 
# Structural Database, then it will include bibliographic, chemical, 
# crystal, experimental, refinement or atomic coordinate data resulting 
# from the CCDC's data processing and validation procedures.
#
#######################################################################

data_DUFTAB
_symmetry_cell_setting           orthorhombic
_symmetry_space_group_name_H-M   'P c n b'
_symmetry_Int_Tables_number      60
_space_group_name_Hall           '-P 2b 2ac'
loop_
_symmetry_equiv_pos_site_id
_symmetry_equiv_pos_as_xyz
1 x,y,z
2 -x,1/2-y,z
3 1/2+x,-y,1/2-z
4 1/2-x,1/2+y,1/2-z
5 -x,-y,-z
6 x,1/2+y,-z
7 1/2-x,y,1/2+z
8 1/2+x,1/2-y,1/2+z
_cell_length_a                   10.899(3)
_cell_length_b                   18.363(7)
_cell_length_c                   25.401(4)
_cell_angle_alpha                90
_cell_angle_beta                 90
_cell_angle_gamma                90
_cell_volume                     5083.71
loop_
_atom_site_label
_atom_site_type_symbol
_atom_site_fract_x
_atom_site_fract_y
_atom_site_fract_z
Cd1 Cd 0.11212(3) 0.048339(18) 0.166450(14)
O1 O 0.3273(3) 0.07908(17) 0.17454(14)
O2 O 0.1955(3) 0.1662(2) 0.15778(17)
N1 N 0.3376(4) 0.0160(2) 0.57845(16)
C1 C 0.3034(5) 0.1447(3) 0.16564(18)
C2 C 0.4066(4) 0.1995(2) 0.16309(18)
N2 N 0.0438(4) 0.1195(2) 0.49688(16)
N3 N 0.0548(4) 0.0863(2) 0.24959(16)
C3 C 0.2131(5) 0.0274(3) 0.5012(2)
N4 N -0.0341(4) 0.0943(2) 0.32516(15)
C4 C 0.6198(5) 0.2272(3) 0.1622(2)
H1 H 0.7010 0.2116 0.1614
C5 C -0.0012(5) 0.0503(3) 0.28665(19)
H2 H -0.0160 0.0004 0.2860
N5 N 0.0690(5) 0.0418(3) 0.42847(17)
C6 C -0.0387(5) 0.1359(3) 0.46049(19)
C7 C 0.5257(5) 0.1769(3) 0.1625(2)
H3 H 0.5437 0.1274 0.1623
N6 N -0.0247(4) 0.0892(3) 0.41883(16)
C8 C 0.1088(6) 0.0636(3) 0.47487(19)
N7 N -0.2801(8) 0.2537(4) 0.5183(4)
C9 C 0.4002(5) -0.0376(3) 0.5541(2)
H4 H 0.4631 -0.0609 0.5722
C10 C 0.2467(6) 0.0469(3) 0.55180(19)
H5 H 0.2029 0.0840 0.5682
C11 C 0.2802(6) -0.0271(3) 0.4767(2)
H6 H 0.2614 -0.0416 0.4426
C12 C -0.2567(8) 0.2855(4) 0.4285(3)
H7 H -0.2787 0.3153 0.4005
C13 C -0.3122(9) 0.2927(5) 0.4734(5)
H8 H -0.3767 0.3256 0.4757
C14 C -0.1332(6) 0.1928(3) 0.4644(2)
N8 N 0.0005(6) 0.1632(3) 0.3146(2)
C15 C -0.0998(5) 0.0769(3) 0.3730(2)
H9 H -0.1730 0.1068 0.3752
H10 H -0.1251 0.0263 0.3720
C16 C 0.0552(7) 0.1552(3) 0.2689(2)
H11 H 0.0915 0.1939 0.2511
C17 C -0.1681(7) 0.2356(4) 0.4220(3)
H12 H -0.1305 0.2299 0.3894
C18 C 0.3742(6) -0.0589(4) 0.5036(3)
H13 H 0.4207 -0.0952 0.4877
C19 C -0.1863(7) 0.2051(4) 0.5127(3)
H14 H -0.1577 0.1800 0.5420
O3 O -0.0260(6) -0.0522(3) 0.1758(2)
O4 O 0.1661(5) -0.0750(2) 0.1950(2)
C20 C 0.0590(8) -0.0960(4) 0.1880(2)
C21 C 0.0273(7) -0.1755(3) 0.1925(2)
C22 C 0.1185(8) -0.2272(4) 0.1955(3)
H15 H 0.1999 -0.2124 0.1984
C23 C -0.0913(7) -0.1994(4) 0.1941(3)
H16 H -0.1548 -0.1656 0.1943
O5 O -0.0624(4) 0.1048(2) 0.13112(17)
H17 H -0.0939 0.0801 0.1062
H18 H -0.0988 0.1457 0.1321
O1A O 0.6727(3) 0.42092(17) 0.17454(14)
O2A O 0.8045(3) 0.3338(2) 0.15778(17)
C1A C 0.6966(5) 0.3553(3) 0.16564(18)
C2A C 0.5934(4) 0.3005(2) 0.16309(18)
C4A C 0.3802(5) 0.2728(3) 0.1622(2)
H1A H 0.2990 0.2884 0.1614
C7A C 0.4743(5) 0.3231(3) 0.1625(2)
H3A H 0.4563 0.3726 0.1623
O3A O 0.0260(6) -0.4478(3) 0.1758(2)
O4A O -0.1661(5) -0.4250(2) 0.1950(2)
C20A C -0.0590(8) -0.4040(4) 0.1880(2)
C21A C -0.0273(7) -0.3245(3) 0.1925(2)
C22A C -0.1185(8) -0.2728(4) 0.1955(3)
H15A H -0.1999 -0.2876 0.1984
C23A C 0.0913(7) -0.3006(4) 0.1941(3)
H16A H 0.1548 -0.3344 0.1943
Cd1A Cd -0.11212(3) -0.548339(18) 0.166450(14)
N1A N -0.3376(4) -0.5160(2) 0.57845(16)
N2A N -0.0438(4) -0.6195(2) 0.49688(16)
N3A N -0.0548(4) -0.5863(2) 0.24959(16)
C3A C -0.2131(5) -0.5274(3) 0.5012(2)
N4A N 0.0341(4) -0.5943(2) 0.32516(15)
C5A C 0.0012(5) -0.5503(3) 0.28665(19)
H2A H 0.0160 -0.5004 0.2860
N5A N -0.0690(5) -0.5418(3) 0.42847(17)
C6A C 0.0387(5) -0.6359(3) 0.46049(19)
N6A N 0.0247(4) -0.5892(3) 0.41883(16)
C8A C -0.1088(6) -0.5636(3) 0.47487(19)
N7A N 0.2801(8) -0.7537(4) 0.5183(4)
C9A C -0.4002(5) -0.4624(3) 0.5541(2)
H4A H -0.4631 -0.4391 0.5722
C10A C -0.2467(6) -0.5469(3) 0.55180(19)
H5A H -0.2029 -0.5840 0.5682
C11A C -0.2802(6) -0.4729(3) 0.4767(2)
H6A H -0.2614 -0.4584 0.4426
C12A C 0.2567(8) -0.7855(4) 0.4285(3)
H7A H 0.2787 -0.8153 0.4005
C13A C 0.3122(9) -0.7927(5) 0.4734(5)
H8A H 0.3767 -0.8256 0.4757
C14A C 0.1332(6) -0.6928(3) 0.4644(2)
N8A N -0.0005(6) -0.6632(3) 0.3146(2)
C15A C 0.0998(5) -0.5769(3) 0.3730(2)
H9A H 0.1730 -0.6068 0.3752
H10A H 0.1251 -0.5263 0.3720
C16A C -0.0552(7) -0.6552(3) 0.2689(2)
H11A H -0.0915 -0.6939 0.2511
C17A C 0.1681(7) -0.7356(4) 0.4220(3)
H12A H 0.1305 -0.7299 0.3894
C18A C -0.3742(6) -0.4411(4) 0.5036(3)
H13A H -0.4207 -0.4048 0.4877
C19A C 0.1863(7) -0.7051(4) 0.5127(3)
H14A H 0.1577 -0.6800 0.5420
O5A O 0.0624(4) -0.6048(2) 0.13112(17)
H17A H 0.0939 -0.5801 0.1062
H18A H 0.0988 -0.6457 0.1321
Cd1A_2 Cd 0.88788(3) 0.451661(18) 0.166450(14)
Cd1F Cd 0.38788(3) 0.048339(18) 0.666450(14)
Cd1G Cd -0.38788(3) -0.548339(18) 0.666450(14)
O1A_2 O -0.3273(3) -0.57908(17) 0.17454(14)
O2A_2 O -0.1955(3) -0.6662(2) 0.15778(17)
N1F N 0.1624(4) 0.0160(2) 0.07845(16)
N1G N -0.1624(4) -0.5160(2) 0.07845(16)
O6 O -0.2428(6) 0.0526(4) 0.1948(3)
H19 H -0.1967 0.0157 0.1991
H20 H -0.3138 0.0415 0.2060
O7 O 0.0581(10) 0.2533(6) 0.1013(4)
loop_
_geom_bond_atom_site_label_1
_geom_bond_atom_site_label_2
_geom_bond_site_symmetry_1
_geom_bond_site_symmetry_2
Cd1 O1 1_555 1_555
O1 C1 1_555 1_555
O2 Cd1 1_555 1_555
N1 C9 1_555 1_555
C1 O2 1_555 1_555
C2 C1 1_555 1_555
N2 C6 1_555 1_555
N3 Cd1 1_555 1_555
C3 C8 1_555 1_555
N4 C5 1_555 1_555
C4 H1 1_555 1_555
C5 N3 1_555 1_555
H2 C5 1_555 1_555
N5 N6 1_555 1_555
C6 N6 1_555 1_555
C7 C2 1_555 1_555
H3 C7 1_555 1_555
N6 C15 1_555 1_555
C8 N2 1_555 1_555
N7 C13 1_555 1_555
C9 H4 1_555 1_555
C10 N1 1_555 1_555
H5 C10 1_555 1_555
C11 C3 1_555 1_555
H6 C11 1_555 1_555
C12 H7 1_555 1_555
C13 C12 1_555 1_555
H8 C13 1_555 1_555
C14 C6 1_555 1_555
N8 N4 1_555 1_555
C15 N4 1_555 1_555
H9 C15 1_555 1_555
H10 C15 1_555 1_555
C16 N3 1_555 1_555
H11 C16 1_555 1_555
C17 C12 1_555 1_555
H12 C17 1_555 1_555
C18 C9 1_555 1_555
H13 C18 1_555 1_555
C19 N7 1_555 1_555
H14 C19 1_555 1_555
O3 Cd1 1_555 1_555
O4 Cd1 1_555 1_555
C20 O3 1_555 1_555
C21 C20 1_555 1_555
C22 C21 1_555 1_555
H15 C22 1_555 1_555
C23 C21 1_555 1_555
H16 C23 1_555 1_555
O5 Cd1 1_555 1_555
H17 O5 1_555 1_555
H18 O5 1_555 1_555
O6 H19 1_555 1_555
H20 O6 1_555 1_555
O1A C1A 1_555 1_555
O2A C1A 1_555 1_555
C1A C2A 1_555 1_555
C2A C4 1_555 1_555
C4A C2 1_555 1_555
H1A C4A 1_555 1_555
C7A C2A 1_555 1_555
H3A C7A 1_555 1_555
O3A C20A 1_555 1_555
O4A C20A 1_555 1_555
C20A C21A 1_555 1_555
C21A C22A 1_555 1_555
C22A C23 1_555 1_555
H15A C22A 1_555 1_555
C23A C22 1_555 1_555
H16A C23A 1_555 1_555
Cd1A O3A 1_555 1_555
N1A C9A 1_555 1_555
N2A C6A 1_555 1_555
N3A Cd1A 1_555 1_555
C3A C8A 1_555 1_555
N4A C5A 1_555 1_555
C5A N3A 1_555 1_555
H2A C5A 1_555 1_555
N5A N6A 1_555 1_555
C6A N6A 1_555 1_555
N6A C15A 1_555 1_555
C8A N2A 1_555 1_555
N7A C13A 1_555 1_555
C9A H4A 1_555 1_555
C10A N1A 1_555 1_555
H5A C10A 1_555 1_555
C11A C3A 1_555 1_555
H6A C11A 1_555 1_555
C12A H7A 1_555 1_555
C13A C12A 1_555 1_555
H8A C13A 1_555 1_555
C14A C6A 1_555 1_555
N8A N4A 1_555 1_555
C15A N4A 1_555 1_555
H9A C15A 1_555 1_555
H10A C15A 1_555 1_555
C16A N3A 1_555 1_555
H11A C16A 1_555 1_555
C17A C12A 1_555 1_555
H12A C17A 1_555 1_555
C18A C9A 1_555 1_555
H13A C18A 1_555 1_555
C19A N7A 1_555 1_555
H14A C19A 1_555 1_555
O5A Cd1A 1_555 1_555
H17A O5A 1_555 1_555
H18A O5A 1_555 1_555
Cd1A_2 O1A 1_555 1_555
Cd1F N1 1_555 1_555
Cd1G N1A 1_555 1_555
O1A_2 Cd1A 1_555 1_555
O2A_2 Cd1A 1_555 1_555
N1F Cd1 1_555 1_555
N1G Cd1A 1_555 1_555
C3 C10 1_555 1_555
C4 C7 1_555 1_555
N5 C8 1_555 1_555
C11 C18 1_555 1_555
C14 C17 1_555 1_555
C14 C19 1_555 1_555
N8 C16 1_555 1_555
O4 C20 1_555 1_555
O2A Cd1A_2 1_555 1_555
C4A C7A 1_555 1_555
O4A Cd1A 1_555 1_555
C21A C23A 1_555 1_555
C3A C10A 1_555 1_555
N5A C8A 1_555 1_555
C11A C18A 1_555 1_555
C14A C17A 1_555 1_555
C14A C19A 1_555 1_555
N8A C16A 1_555 1_555

#END
