
#######################################################################
#
#                 Cambridge Crystallographic Data Centre
#                                CCDC 
#
#######################################################################
#
# If this CIF has been generated from an entry in the Cambridge 
# Structural Database, then it will include bibliographic, chemical, 
# crystal, experimental, refinement or atomic coordinate data resulting 
# from the CCDC's data processing and validation procedures.
#
#######################################################################

data_DUFTIJ
_symmetry_cell_setting           monoclinic
_symmetry_space_group_name_H-M   'C 2/c'
_symmetry_Int_Tables_number      15
_space_group_name_Hall           '-C 2yn'
loop_
_symmetry_equiv_pos_site_id
_symmetry_equiv_pos_as_xyz
1 x,y,z
2 -x,y,1/2-z
3 1/2+x,1/2+y,z
4 1/2-x,1/2+y,1/2-z
5 -x,-y,-z
6 x,-y,1/2+z
7 1/2-x,1/2-y,-z
8 1/2+x,1/2-y,1/2+z
_cell_length_a                   17.580(8)
_cell_length_b                   15.730(8)
_cell_length_c                   17.456(7)
_cell_angle_alpha                90
_cell_angle_beta                 92.433(4)
_cell_angle_gamma                90
_cell_volume                     4822.82
loop_
_atom_site_label
_atom_site_type_symbol
_atom_site_fract_x
_atom_site_fract_y
_atom_site_fract_z
Cu1 Cu 0.19942(3) -0.00397(4) 0.27807(3)
N1 N 0.1638(2) 0.2453(3) 0.0582(2)
O1 O 0.16367(18) 0.1080(2) 0.30258(17)
O2 O 0.24234(17) 0.3986(2) 0.25707(16)
N2 N 0.1193(2) 0.1883(3) -0.0522(2)
O3 O 0.1695(2) 0.5062(2) 0.2879(2)
C1 C 0.1384(2) 0.2810(3) 0.3089(2)
H1 H 0.1846 0.2618 0.2914
C2 C 0.1315(2) 0.0929(3) 0.0581(2)
C3 C 0.1823(3) 0.3944(3) 0.0222(2)
N3 N 0.1530(2) 0.0079(3) 0.1698(2)
N4 N 0.1345(2) 0.2727(3) -0.0615(2)
N5 N 0.2474(2) 0.4843(3) 0.1149(2)
O4 O 0.0517(2) 0.0778(3) 0.3500(2)
C4 C 0.0855(3) 0.2220(3) 0.3320(3)
C5 C 0.1591(3) 0.3061(3) 0.0062(3)
C6 C 0.1375(2) 0.1758(3) 0.0215(2)
C7 C 0.1024(3) 0.0214(4) 0.0204(3)
H2 H 0.0844 0.0254 -0.0303
C8 C 0.0554(3) 0.3958(4) 0.3366(3)
H3 H 0.0452 0.4537 0.3380
C9 C 0.1000(3) 0.1286(3) 0.3281(3)
C10 C 0.1817(3) 0.4292(3) 0.2834(2)
C11 C 0.1247(2) 0.3667(3) 0.3110(2)
C12 C 0.2233(2) 0.4082(3) 0.0910(2)
H4 H 0.2346 0.3615 0.1221
C13 C 0.1560(2) 0.0825(3) 0.1330(2)
H5 H 0.1757 0.1294 0.1596
C14 C 0.1916(4) 0.5421(4) 0.0005(3)
H6 H 0.1818 0.5895 -0.0302
C15 C 0.1000(3) -0.0547(4) 0.0576(3)
H7 H 0.0810 -0.1028 0.0323
C16 C 0.2331(3) 0.5509(4) 0.0698(3)
H8 H 0.2510 0.6042 0.0847
C17 C 0.1257(3) -0.0598(4) 0.1324(3)
H9 H 0.1242 -0.1118 0.1577
C18 C 0.0023(3) 0.3381(4) 0.3597(4)
H10 H -0.0439 0.3577 0.3769
C19 C 0.0161(3) 0.2529(4) 0.3579(3)
H11 H -0.0206 0.2150 0.3738
C20 C 0.1655(4) 0.4642(4) -0.0224(3)
H12 H 0.1365 0.4585 -0.0679
N6 N 0.0375(4) 0.3177(4) -0.1494(3)
C21 C 0.1153(4) 0.3068(4) -0.1423(3)
H13 H 0.1410 0.3605 -0.1498
H14 H 0.1319 0.2668 -0.1805
N7 N 0.0047(4) 0.3927(4) -0.1421(4)
C22 C -0.0687(5) 0.3768(7) -0.1589(5)
H15 H -0.1055 0.4192 -0.1627
N8 N -0.0849(4) 0.2924(7) -0.1701(5)
C23 C -0.0165(6) 0.2591(6) -0.1660(7)
H16 H -0.0064 0.2018 -0.1736
O5 O 0.0889(2) -0.0829(3) 0.3102(2)
H17 H 0.067(4) -0.036(2) 0.317(3)
H18 H 0.096(4) -0.114(3) 0.350(2)
Cu1C Cu 0.30058(3) 0.49603(4) 0.22193(3)
O2C O 0.25766(17) -0.1014(2) 0.24293(16)
O3C O 0.3305(2) 0.0062(2) 0.2121(2)
N5C N 0.2526(2) -0.0157(3) 0.3851(2)
loop_
_geom_bond_atom_site_label_1
_geom_bond_atom_site_label_2
_geom_bond_site_symmetry_1
_geom_bond_site_symmetry_2
Cu1 O1 1_555 1_555
N1 C5 1_555 1_555
O1 C9 1_555 1_555
O2 C10 1_555 1_555
N2 N4 1_555 1_555
O3 C10 1_555 1_555
C1 H1 1_555 1_555
C2 C6 1_555 1_555
C3 C5 1_555 1_555
N3 Cu1 1_555 1_555
N4 C5 1_555 1_555
N5 C12 1_555 1_555
O4 C9 1_555 1_555
C4 C1 1_555 1_555
C6 N1 1_555 1_555
C7 C2 1_555 1_555
H2 C7 1_555 1_555
C8 H3 1_555 1_555
C9 C4 1_555 1_555
C10 C11 1_555 1_555
C11 C1 1_555 1_555
C12 C3 1_555 1_555
H4 C12 1_555 1_555
C13 C2 1_555 1_555
H5 C13 1_555 1_555
C14 H6 1_555 1_555
C15 C7 1_555 1_555
H7 C15 1_555 1_555
C16 N5 1_555 1_555
H8 C16 1_555 1_555
C17 N3 1_555 1_555
H9 C17 1_555 1_555
C18 C8 1_555 1_555
H10 C18 1_555 1_555
C19 C4 1_555 1_555
H11 C19 1_555 1_555
C20 C3 1_555 1_555
H12 C20 1_555 1_555
N6 C21 1_555 1_555
C21 N4 1_555 1_555
H13 C21 1_555 1_555
H14 C21 1_555 1_555
N7 N6 1_555 1_555
C22 N7 1_555 1_555
H15 C22 1_555 1_555
N8 C22 1_555 1_555
C23 N6 1_555 1_555
H16 C23 1_555 1_555
O5 Cu1 1_555 1_555
H17 O5 1_555 1_555
H18 O5 1_555 1_555
Cu1C O2 1_555 1_555
O2C Cu1 1_555 1_555
O3C Cu1 1_555 1_555
N5C Cu1 1_555 1_555
N2 C6 1_555 1_555
O3 Cu1C 1_555 1_555
N3 C13 1_555 1_555
N5 Cu1C 1_555 1_555
C8 C11 1_555 1_555
C14 C16 1_555 1_555
C14 C20 1_555 1_555
C15 C17 1_555 1_555
C18 C19 1_555 1_555
N8 C23 1_555 1_555

#END
