
#######################################################################
#
#                 Cambridge Crystallographic Data Centre
#                                CCDC 
#
#######################################################################
#
# If this CIF has been generated from an entry in the Cambridge 
# Structural Database, then it will include bibliographic, chemical, 
# crystal, experimental, refinement or atomic coordinate data resulting 
# from the CCDC's data processing and validation procedures.
#
#######################################################################

data_DUFTOP
_symmetry_cell_setting           monoclinic
_symmetry_space_group_name_H-M   'P 21/n'
_symmetry_Int_Tables_number      14
_space_group_name_Hall           '-P 2yn'
loop_
_symmetry_equiv_pos_site_id
_symmetry_equiv_pos_as_xyz
1 x,y,z
2 1/2-x,1/2+y,1/2-z
3 -x,-y,-z
4 1/2+x,1/2-y,1/2+z
_cell_length_a                   10.819(5)
_cell_length_b                   14.454(7)
_cell_length_c                   15.564(10)
_cell_angle_alpha                90
_cell_angle_beta                 101.204(5)
_cell_angle_gamma                90
_cell_volume                     2387.48
loop_
_atom_site_label
_atom_site_type_symbol
_atom_site_fract_x
_atom_site_fract_y
_atom_site_fract_z
Cu1 Cu 0.54556(4) 0.08493(3) 0.64578(3)
C1 C 0.1597(4) 0.5185(3) 0.4300(3)
N1 N 0.0527(3) 0.4704(2) 0.2874(2)
O1 O -0.3212(2) 0.11699(19) 0.5141(2)
N2 N 0.3253(3) 0.4255(2) 0.5257(2)
C2 C 0.0614(4) 0.5777(3) 0.4373(3)
H1 H 0.0634 0.6126 0.4878
O2 O -0.2727(2) 0.07083(19) 0.6525(2)
N3 N 0.4354(3) 0.5386(2) 0.6060(2)
N4 N 0.3373(3) 0.5744(2) 0.5479(2)
N5 N 0.2769(4) 0.7110(2) 0.6137(3)
O3 O 0.3160(3) 0.1195(2) 0.4915(2)
C3 C 0.0587(4) 0.1213(3) 0.4957(3)
H2 H 0.0822 0.1314 0.4421
C4 C -0.1049(3) 0.1035(3) 0.5793(3)
C5 C -0.2429(3) 0.0960(3) 0.5813(3)
C6 C 0.4942(4) 0.2884(3) 0.6261(3)
H3 H 0.4238 0.2689 0.5860
N6 N 0.1600(4) 0.6878(3) 0.6273(3)
O4 O 0.3644(2) 0.0966(2) 0.63562(19)
N7 N 0.2501(5) 0.7936(3) 0.7248(3)
N8 N 0.5739(3) 0.2236(2) 0.6670(2)
C7 C 0.3246(4) 0.6742(3) 0.5414(3)
H4 H 0.4060 0.7016 0.5401
H5 H 0.2678 0.6902 0.4871
C8 C 0.1127(3) 0.0981(3) 0.6494(3)
H6 H 0.1737 0.0921 0.7002
C9 C 0.1493(3) 0.1097(3) 0.5704(3)
C10 C 0.5115(4) 0.3813(3) 0.6404(3)
C11 C -0.0403(4) 0.5288(3) 0.2960(3)
H7 H -0.1098 0.5324 0.2503
C12 C 0.1497(4) 0.4658(3) 0.3548(3)
H8 H 0.2145 0.4247 0.3510
C13 C 0.2867(4) 0.1089(3) 0.5635(3)
C14 C 0.6962(4) 0.3450(3) 0.7447(3)
H9 H 0.7656 0.3628 0.7865
C15 C 0.4233(4) 0.4487(3) 0.5909(3)
C16 C -0.0681(4) 0.1178(3) 0.5008(3)
H10 H -0.1289 0.1253 0.4502
C17 C 0.2716(4) 0.5059(3) 0.5006(3)
C18 C -0.0137(4) 0.0952(3) 0.6544(3)
H11 H -0.0371 0.0876 0.7084
C19 C -0.0394(4) 0.5836(3) 0.3678(3)
H12 H -0.1056 0.6240 0.3698
C20 C 0.6155(4) 0.4097(3) 0.7021(3)
H13 H 0.6297 0.4723 0.7141
C21 C 0.3283(5) 0.7728(3) 0.6723(4)
H14 H 0.4082 0.7981 0.6761
C22 C 0.6744(4) 0.2534(3) 0.7254(3)
H15 H 0.7313 0.2099 0.7539
C23 C 0.1511(5) 0.7392(4) 0.6949(4)
H16 H 0.0803 0.7380 0.7206
O5 O 0.5211(2) -0.04458(17) 0.59898(19)
H17 H 0.5786 -0.0605 0.5714
H18 H 0.4468 -0.0582 0.5729
Cu1_2 Cu -0.45444(4) 0.08493(3) 0.64578(3)
Cu1C Cu 0.04556(4) 0.41507(3) 0.14578(3)
N1C N 0.5527(3) 0.0296(2) 0.7874(2)
O1_2 O 0.6788(2) 0.11699(19) 0.5141(2)
O2_2 O 0.7273(2) 0.07083(19) 0.6525(2)
O6 O 0.3741(4) 0.2771(2) 0.4010(3)
H19 H 0.3830 0.2266 0.4301
H20 H 0.3614 0.3251 0.4302
loop_
_geom_bond_atom_site_label_1
_geom_bond_atom_site_label_2
_geom_bond_site_symmetry_1
_geom_bond_site_symmetry_2
Cu1 O4 1_555 1_555
C1 C2 1_555 1_555
N1 C11 1_555 1_555
O1 C5 1_555 1_555
N2 C15 1_555 1_555
C2 H1 1_555 1_555
O2 C5 1_555 1_555
N3 N4 1_555 1_555
N4 C7 1_555 1_555
N5 N6 1_555 1_555
O3 C13 1_555 1_555
C3 H2 1_555 1_555
C4 C5 1_555 1_555
C6 H3 1_555 1_555
N6 C23 1_555 1_555
O4 C13 1_555 1_555
N7 C21 1_555 1_555
N8 Cu1 1_555 1_555
C7 N5 1_555 1_555
H4 C7 1_555 1_555
H5 C7 1_555 1_555
C8 H6 1_555 1_555
C9 C3 1_555 1_555
C10 C6 1_555 1_555
C11 H7 1_555 1_555
C12 C1 1_555 1_555
H8 C12 1_555 1_555
C13 C9 1_555 1_555
C14 H9 1_555 1_555
C15 N3 1_555 1_555
C16 C3 1_555 1_555
H10 C16 1_555 1_555
C17 C1 1_555 1_555
C18 C4 1_555 1_555
H11 C18 1_555 1_555
C19 C2 1_555 1_555
H12 C19 1_555 1_555
C20 C10 1_555 1_555
H13 C20 1_555 1_555
C21 N5 1_555 1_555
H14 C21 1_555 1_555
C22 N8 1_555 1_555
H15 C22 1_555 1_555
C23 N7 1_555 1_555
H16 C23 1_555 1_555
O5 Cu1 1_555 1_555
H17 O5 1_555 1_555
H18 O5 1_555 1_555
O6 H19 1_555 1_555
H20 O6 1_555 1_555
Cu1_2 O1 1_555 1_555
Cu1C N1 1_555 1_555
N1C Cu1 1_555 1_555
O1_2 Cu1 1_555 1_555
O2_2 Cu1 1_555 1_555
N1 C12 1_555 1_555
N2 C17 1_555 1_555
O2 Cu1_2 1_555 1_555
N4 C17 1_555 1_555
C4 C16 1_555 1_555
C6 N8 1_555 1_555
C8 C9 1_555 1_555
C8 C18 1_555 1_555
C10 C15 1_555 1_555
C11 C19 1_555 1_555
C14 C20 1_555 1_555
C14 C22 1_555 1_555

#END
