
#######################################################################
#
#                 Cambridge Crystallographic Data Centre
#                                CCDC 
#
#######################################################################
#
# If this CIF has been generated from an entry in the Cambridge 
# Structural Database, then it will include bibliographic, chemical, 
# crystal, experimental, refinement or atomic coordinate data resulting 
# from the CCDC's data processing and validation procedures.
#
#######################################################################

data_DUFXUY
_symmetry_cell_setting           monoclinic
_symmetry_space_group_name_H-M   'P 21/c'
_symmetry_Int_Tables_number      14
_space_group_name_Hall           '-P 2ybc'
loop_
_symmetry_equiv_pos_site_id
_symmetry_equiv_pos_as_xyz
1 x,y,z
2 -x,1/2+y,1/2-z
3 -x,-y,-z
4 x,1/2-y,1/2+z
_cell_length_a                   10.6973(19)
_cell_length_b                   7.3463(13)
_cell_length_c                   12.439(2)
_cell_angle_alpha                90
_cell_angle_beta                 110.358(3)
_cell_angle_gamma                90
_cell_volume                     916.467
loop_
_atom_site_label
_atom_site_type_symbol
_atom_site_fract_x
_atom_site_fract_y
_atom_site_fract_z
Co1 Co 0.59838(4) 0.25934(5) -0.09300(3)
P1 P 0.59416(7) 0.12129(10) 0.14963(6)
O1 O 0.5541(2) 0.2672(3) 0.05505(18)
O2 O 0.6530(2) 0.2091(3) 0.26684(18)
O3 O 0.4766(2) -0.0018(3) 0.14195(18)
O4 O 0.6665(2) 0.5516(3) -0.0568(2)
H1 H 0.6010 0.6173 -0.0457
H2 H 0.7016 0.4858 -0.0239
O5 O 0.4043(2) 0.3869(3) -0.18209(19)
H3 H 0.4035 0.4294 -0.2433
H4 H 0.4021 0.4749 -0.1443
N1 N 0.8004(2) 0.1809(4) 0.0079(2)
C1 C 0.9001(3) 0.2590(4) -0.0174(3)
H5 H 0.8787 0.3308 -0.0829
C2 C 1.0325(4) 0.2384(5) 0.0487(4)
H6 H 1.0989 0.2927 0.0273
C3 C 1.0645(3) 0.1358(5) 0.1471(3)
H7 H 1.1531 0.1203 0.1939
C4 C 0.9632(3) 0.0564(5) 0.1751(3)
H8 H 0.9828 -0.0115 0.2421
C5 C 0.8319(3) 0.0782(4) 0.1032(3)
C6 C 0.7201(3) -0.0197(4) 0.1247(3)
H9 H 0.7580 -0.0982 0.1908
H10 H 0.6766 -0.0974 0.0593
Co1C Co 0.59838(4) 0.24066(5) 0.40700(3)
Co1B Co 0.40162(4) -0.25934(5) 0.09300(3)
O2C O 0.6530(2) 0.2909(3) -0.23316(18)
O3B O 0.5234(2) 0.0018(3) -0.14195(18)
loop_
_geom_bond_atom_site_label_1
_geom_bond_atom_site_label_2
_geom_bond_site_symmetry_1
_geom_bond_site_symmetry_2
Co1 O1 1_555 1_555
P1 O1 1_555 1_555
O2 P1 1_555 1_555
O3 P1 1_555 1_555
O4 Co1 1_555 1_555
H1 O4 1_555 1_555
H2 O4 1_555 1_555
O5 Co1 1_555 1_555
H3 O5 1_555 1_555
H4 O5 1_555 1_555
N1 Co1 1_555 1_555
C1 N1 1_555 1_555
H5 C1 1_555 1_555
C2 C1 1_555 1_555
H6 C2 1_555 1_555
C3 C2 1_555 1_555
H7 C3 1_555 1_555
C4 C3 1_555 1_555
H8 C4 1_555 1_555
C5 N1 1_555 1_555
C6 P1 1_555 1_555
H9 C6 1_555 1_555
H10 C6 1_555 1_555
Co1C O2 1_555 1_555
Co1B O3 1_555 1_555
O2C Co1 1_555 1_555
O3B Co1 1_555 1_555
C4 C5 1_555 1_555
C5 C6 1_555 1_555

#END
