
#######################################################################
#
#                 Cambridge Crystallographic Data Centre
#                                CCDC 
#
#######################################################################
#
# If this CIF has been generated from an entry in the Cambridge 
# Structural Database, then it will include bibliographic, chemical, 
# crystal, experimental, refinement or atomic coordinate data resulting 
# from the CCDC's data processing and validation procedures.
#
#######################################################################

data_DUFYEJ
_symmetry_cell_setting           monoclinic
_symmetry_space_group_name_H-M   'P 21/n'
_symmetry_Int_Tables_number      14
_space_group_name_Hall           '-P 2yn'
loop_
_symmetry_equiv_pos_site_id
_symmetry_equiv_pos_as_xyz
1 x,y,z
2 1/2-x,1/2+y,1/2-z
3 -x,-y,-z
4 1/2+x,1/2-y,1/2+z
_cell_length_a                   9.84502(34)
_cell_length_b                   8.89545(40)
_cell_length_c                   9.67324(43)
_cell_angle_alpha                90
_cell_angle_beta                 112.3307(22)
_cell_angle_gamma                90
_cell_volume                     783.612
loop_
_atom_site_label
_atom_site_type_symbol
_atom_site_fract_x
_atom_site_fract_y
_atom_site_fract_z
Co1 Co 0.27899(31) 0.36621(33) 0.43265(31)
C1 C 0.32310(24) 0.48839(40) 0.74829(25)
N1 N 0.21694(32) 0.42451(50) 0.61958(31)
C2 C 0.08559(48) 0.38102(50) 0.61920(36)
C3 C 0.05395(33) 0.39837(54) 0.74472(41)
C4 C 0.15866(37) 0.45962(54) 0.87423(33)
C5 C 0.29319(43) 0.50517(44) 0.87525(40)
C6 C 0.46905(72) 0.54044(73) 0.74656(47)
P1 P 0.56856(58) 0.37502(65) 0.69218(53)
O1 O 0.7111(11) 0.4584(11) 0.68726(99)
O2 O 0.6254(10) 0.2716(12) 0.8277(12)
O3 O 0.4816(11) 0.31110(96) 0.5484(11)
Co1B Co 0.72101(31) 0.63379(33) 0.56735(31)
Co1C Co 0.77899(31) 0.13379(33) 0.93265(31)
O1B O 0.2889(11) 0.5416(11) 0.31274(99)
O2C O 0.1254(10) 0.2284(12) 0.3277(12)
loop_
_geom_bond_atom_site_label_1
_geom_bond_atom_site_label_2
_geom_bond_site_symmetry_1
_geom_bond_site_symmetry_2
Co1 N1 1_555 1_555
C1 N1 1_555 1_555
N1 C2 1_555 1_555
C2 C3 1_555 1_555
C3 C4 1_555 1_555
C4 C5 1_555 1_555
C5 C1 1_555 1_555
C6 C1 1_555 1_555
P1 C6 1_555 1_555
O1 P1 1_555 1_555
O2 P1 1_555 1_555
O3 Co1 1_555 1_555
Co1B O1 1_555 1_555
Co1C O2 1_555 1_555
O1B Co1 1_555 1_555
O2C Co1 1_555 1_555
P1 O3 1_555 1_555

#END
