
#######################################################################
#
#                 Cambridge Crystallographic Data Centre
#                                CCDC 
#
#######################################################################
#
# If this CIF has been generated from an entry in the Cambridge 
# Structural Database, then it will include bibliographic, chemical, 
# crystal, experimental, refinement or atomic coordinate data resulting 
# from the CCDC's data processing and validation procedures.
#
#######################################################################

data_DUFYAF
_symmetry_cell_setting           monoclinic
_symmetry_space_group_name_H-M   'P 21/n'
_symmetry_Int_Tables_number      14
_space_group_name_Hall           '-P 2yn'
loop_
_symmetry_equiv_pos_site_id
_symmetry_equiv_pos_as_xyz
1 x,y,z
2 1/2-x,1/2+y,1/2-z
3 -x,-y,-z
4 1/2+x,1/2-y,1/2+z
_cell_length_a                   8.85200(21)
_cell_length_b                   7.89607(13)
_cell_length_c                   12.79133(31)
_cell_angle_alpha                90
_cell_angle_beta                 112.2063(13)
_cell_angle_gamma                90
_cell_volume                     827.749
loop_
_atom_site_label
_atom_site_type_symbol
_atom_site_fract_x
_atom_site_fract_y
_atom_site_fract_z
O1 O -0.1140(13) 0.51920(94) 0.37263(64)
Co1 Co -0.20678(30) 0.76034(36) 0.40063(17)
C1 C -0.29571(25) 0.89034(33) 0.59986(18)
N1 N -0.35991(30) 0.79996(51) 0.49934(22)
C2 C -0.51029(46) 0.70589(52) 0.47130(23)
C3 C -0.59255(32) 0.70360(52) 0.54620(31)
C4 C -0.52727(33) 0.79341(60) 0.64985(20)
C5 C -0.37927(42) 0.88851(46) 0.67711(22)
C6 C -0.13761(60) 0.99173(73) 0.62717(32)
P1 P 0.04380(63) 0.86819(46) 0.64668(40)
O2 O 0.1821(11) 1.0111(11) 0.67597(67)
O3 O 0.10044(98) 0.7826(12) 0.75437(63)
O4 O 0.00270(85) 0.7688(11) 0.54579(63)
Co1B Co 0.20678(30) 1.23966(36) 0.59937(17)
Co1C Co 0.29322(30) 0.73966(36) 0.90063(17)
O2B O -0.1821(11) 0.9889(11) 0.32403(67)
O3C O -0.39956(98) 0.7174(12) 0.25437(63)
loop_
_geom_bond_atom_site_label_1
_geom_bond_atom_site_label_2
_geom_bond_site_symmetry_1
_geom_bond_site_symmetry_2
O1 Co1 1_555 1_555
Co1 N1 1_555 1_555
C1 N1 1_555 1_555
N1 C2 1_555 1_555
C2 C3 1_555 1_555
C3 C4 1_555 1_555
C4 C5 1_555 1_555
C5 C1 1_555 1_555
C6 C1 1_555 1_555
P1 C6 1_555 1_555
O2 P1 1_555 1_555
O3 P1 1_555 1_555
O4 Co1 1_555 1_555
Co1B O2 1_555 1_555
Co1C O3 1_555 1_555
O2B Co1 1_555 1_555
O3C Co1 1_555 1_555
P1 O4 1_555 1_555

#END
