
#######################################################################
#
#                 Cambridge Crystallographic Data Centre
#                                CCDC 
#
#######################################################################
#
# If this CIF has been generated from an entry in the Cambridge 
# Structural Database, then it will include bibliographic, chemical, 
# crystal, experimental, refinement or atomic coordinate data resulting 
# from the CCDC's data processing and validation procedures.
#
#######################################################################

data_DUGBAK
_symmetry_cell_setting           triclinic
_symmetry_space_group_name_H-M   'P -1'
_symmetry_Int_Tables_number      2
_space_group_name_Hall           '-P 1'
loop_
_symmetry_equiv_pos_site_id
_symmetry_equiv_pos_as_xyz
1 x,y,z
2 -x,-y,-z
_cell_length_a                   10.3556(8)
_cell_length_b                   10.9941(8)
_cell_length_c                   22.5493(17)
_cell_angle_alpha                96.459(2)
_cell_angle_beta                 90.358(2)
_cell_angle_gamma                98.278(2)
_cell_volume                     2523.72
loop_
_atom_site_label
_atom_site_type_symbol
_atom_site_fract_x
_atom_site_fract_y
_atom_site_fract_z
Zn1 Zn -0.00314(3) -0.65350(3) 0.35541(2)
Zn2 Zn -0.39611(3) -0.22906(3) 0.05617(2)
N1 N -0.3788(3) -0.1014(3) 0.12816(12)
N2 N -0.3852(3) -0.0202(3) 0.22298(13)
H1 H -0.3948 -0.0156 0.2610
N3 N -0.0136(3) -0.7773(2) 0.28258(12)
N4 N -0.0011(3) -0.8579(3) 0.18799(13)
H2 H 0.0117 -0.8624 0.1502
N5 N -0.0058(3) -0.6850(3) 0.44201(13)
N6 N -0.0507(3) -0.7388(3) 0.53164(13)
N7 N -0.3646(3) -1.1812(3) 0.87510(13)
N8 N -0.3939(3) -1.2222(3) 0.96773(12)
O1 O -0.1367(2) -0.5424(2) 0.34337(11)
O2 O -0.2641(2) -0.7094(2) 0.36572(12)
O3 O -0.7423(3) -0.6988(2) 0.38427(14)
O4 O -0.8304(2) -0.5514(2) 0.34734(11)
O5 O -0.2514(2) -0.3272(2) 0.06684(12)
O6 O -0.1223(2) -0.1662(2) 0.03827(12)
O7 O 0.3637(2) -0.1688(2) 0.04530(11)
O8 O 0.4374(2) -0.3392(2) 0.06617(11)
S1 S -0.44968(12) -0.27338(9) 0.20326(4)
S2 S 0.06177(12) -0.60553(8) 0.20731(4)
C1 C -0.4024(3) -0.1237(3) 0.18454(15)
C2 C -0.3491(3) 0.0782(3) 0.19022(16)
C3 C -0.3227(4) 0.2049(3) 0.20750(18)
H3 H -0.3240 0.2378 0.2473
C4 C -0.2948(4) 0.2785(3) 0.1627(2)
H4 H -0.2767 0.3638 0.1723
C5 C -0.2928(4) 0.2282(4) 0.10233(18)
H5 H -0.2745 0.2810 0.0730
C6 C -0.3175(3) 0.1019(3) 0.08598(16)
H6 H -0.3146 0.0684 0.0463
C7 C -0.3467(3) 0.0268(3) 0.13129(16)
C8 C -0.4469(3) -0.2456(3) 0.28420(15)
H7 H -0.3652 -0.1961 0.2985
H8 H -0.5180 -0.2014 0.2976
C9 C -0.4616(3) -0.3701(3) 0.30778(15)
C10 C -0.3528(3) -0.4270(3) 0.31729(15)
H9 H -0.2702 -0.3882 0.3089
C11 C -0.3665(3) -0.5417(3) 0.33934(14)
C12 C -0.4898(3) -0.5979(3) 0.35277(14)
H10 H -0.4992 -0.6734 0.3684
C13 C -0.5999(3) -0.5428(3) 0.34313(15)
C14 C -0.5851(3) -0.4290(3) 0.32040(15)
H11 H -0.6583 -0.3920 0.3136
C15 C -0.2486(3) -0.6038(3) 0.35014(14)
C16 C -0.7341(3) -0.6037(3) 0.35935(15)
C17 C 0.0131(3) -0.7543(3) 0.22675(15)
C18 C -0.0407(3) -0.9566(3) 0.22052(15)
C19 C -0.0668(4) -1.0832(3) 0.20220(18)
H12 H -0.0614 -1.1159 0.1626
C20 C -0.1014(4) -1.1572(3) 0.2474(2)
H13 H -0.1193 -1.2426 0.2379
C21 C -0.1099(4) -1.1074(3) 0.30615(19)
H14 H -0.1334 -1.1604 0.3349
C22 C -0.0846(4) -0.9804(3) 0.32362(17)
H15 H -0.0921 -0.9475 0.3631
C23 C -0.0475(3) -0.9054(3) 0.27925(15)
C24 C 0.0460(3) -0.6320(3) 0.12618(16)
H16 H 0.1116 -0.6805 0.1102
H17 H -0.0394 -0.6772 0.1144
C25 C 0.0637(3) -0.5079(3) 0.10206(15)
C26 C -0.0425(3) -0.4499(3) 0.08983(16)
H18 H -0.1266 -0.4878 0.0965
C27 C -0.0240(3) -0.3348(3) 0.06747(14)
C28 C 0.1018(3) -0.2798(3) 0.05716(14)
H19 H 0.1146 -0.2040 0.0418
C29 C 0.2080(3) -0.3363(3) 0.06947(14)
C30 C 0.1888(3) -0.4500(3) 0.09221(15)
H20 H 0.2604 -0.4877 0.1009
C31 C -0.1409(3) -0.2702(3) 0.05635(14)
C32 C 0.3449(3) -0.2751(3) 0.05936(13)
C33 C -0.0848(4) -0.7574(4) 0.47335(16)
H21 H -0.1550 -0.8139 0.4571
C34 C 0.0816(4) -0.6166(4) 0.48324(17)
H22 H 0.1490 -0.5564 0.4743
C35 C 0.0563(4) -0.6487(4) 0.53856(17)
H23 H 0.1019 -0.6165 0.5738
C36 C -0.1123(4) -0.7999(4) 0.57959(16)
C37 C -0.1533(5) -0.9271(4) 0.57172(17)
H24 H -0.1436 -0.9726 0.5351
C38 C -0.2087(5) -0.9856(4) 0.61877(17)
H25 H -0.2375 -1.0703 0.6132
C39 C -0.2223(4) -0.9179(4) 0.67534(16)
C40 C -0.1789(4) -0.7912(3) 0.68099(16)
H26 H -0.1872 -0.7446 0.7174
C41 C -0.1235(4) -0.7322(4) 0.63390(17)
H27 H -0.0942 -0.6476 0.6391
C42 C -0.2678(3) -0.9829(3) 0.72692(16)
C43 C -0.3153(5) -1.1074(4) 0.72032(17)
H28 H -0.3262 -1.1490 0.6820
C44 C -0.3475(5) -1.1730(4) 0.76799(18)
H29 H -0.3775 -1.2574 0.7616
C45 C -0.3348(3) -1.1126(3) 0.82531(15)
C46 C -0.2914(4) -0.9880(4) 0.83375(17)
H30 H -0.2835 -0.9466 0.8722
C47 C -0.2593(4) -0.9236(4) 0.78540(17)
H31 H -0.2313 -0.8389 0.7919
C48 C -0.3653(3) -1.1335(3) 0.93274(15)
H32 H -0.3480 -1.0495 0.9462
C49 C -0.4141(4) -1.3312(4) 0.93054(17)
H33 H -0.4365 -1.4093 0.9428
C50 C -0.3964(4) -1.3077(3) 0.87350(17)
H34 H -0.4041 -1.3654 0.8397
Zn1_2 Zn -1.00314(3) -0.65350(3) 0.35541(2)
Zn2_2 Zn -0.39611(3) -1.22906(3) 1.05617(2)
Zn2_3 Zn 0.60389(3) -0.22906(3) 0.05617(2)
N8_2 N -0.3939(3) -0.2222(3) -0.03227(12)
O4_2 O 0.1696(2) -0.5514(2) 0.34734(11)
O8_2 O -0.5626(2) -0.3392(2) 0.06617(11)
O9 O 0.2991(8) 0.0609(6) 0.5636(3)
N9 N 0.4496(7) 0.2156(6) 0.5310(2)
C51 C 0.3256(10) 0.1566(11) 0.5396(4)
H35 H 0.2561 0.1918 0.5262
C52 C 0.4673(19) 0.3181(11) 0.5086(5)
H36 H 0.3846 0.3387 0.4968
H37 H 0.5093 0.3822 0.5377
H38 H 0.5214 0.3106 0.4743
C53 C 0.5300(18) 0.1475(12) 0.5538(5)
H39 H 0.6100 0.1537 0.5323
H40 H 0.4897 0.0627 0.5503
H41 H 0.5482 0.1772 0.5951
O10 O -0.4084(3) 0.0544(3) 0.34523(14)
H42 H -0.3946 0.1300 0.3597
H43 H -0.3988 0.0110 0.3734
O11 O 0.0380(4) -0.9320(3) 0.06952(13)
H44 H 0.0687 -1.0000 0.0679
H45 H 0.0789 -0.8888 0.0447
loop_
_geom_bond_atom_site_label_1
_geom_bond_atom_site_label_2
_geom_bond_site_symmetry_1
_geom_bond_site_symmetry_2
Zn1 N3 1_555 1_555
Zn2 N1 1_555 1_555
N1 C1 1_555 1_555
N2 H1 1_555 1_555
N3 C17 1_555 1_555
N4 H2 1_555 1_555
N5 Zn1 1_555 1_555
N6 C33 1_555 1_555
N7 C45 1_555 1_555
N8 C48 1_555 1_555
O1 Zn1 1_555 1_555
O2 C15 1_555 1_555
O3 C16 1_555 1_555
O4 C16 1_555 1_555
O5 Zn2 1_555 1_555
O6 C31 1_555 1_555
O7 C32 1_555 1_555
O8 C32 1_555 1_555
S1 C1 1_555 1_555
S2 C17 1_555 1_555
C1 N2 1_555 1_555
C2 N2 1_555 1_555
C3 C2 1_555 1_555
H3 C3 1_555 1_555
C4 C3 1_555 1_555
H4 C4 1_555 1_555
C5 C4 1_555 1_555
H5 C5 1_555 1_555
C6 C5 1_555 1_555
H6 C6 1_555 1_555
C7 N1 1_555 1_555
C8 S1 1_555 1_555
H7 C8 1_555 1_555
H8 C8 1_555 1_555
C9 C8 1_555 1_555
C10 C9 1_555 1_555
H9 C10 1_555 1_555
C11 C10 1_555 1_555
C12 C11 1_555 1_555
H10 C12 1_555 1_555
C13 C12 1_555 1_555
C14 C9 1_555 1_555
H11 C14 1_555 1_555
C15 O1 1_555 1_555
C16 C13 1_555 1_555
C17 N4 1_555 1_555
C18 N4 1_555 1_555
C19 C18 1_555 1_555
H12 C19 1_555 1_555
C20 C19 1_555 1_555
H13 C20 1_555 1_555
C21 C20 1_555 1_555
H14 C21 1_555 1_555
C22 C21 1_555 1_555
H15 C22 1_555 1_555
C23 N3 1_555 1_555
C24 S2 1_555 1_555
H16 C24 1_555 1_555
H17 C24 1_555 1_555
C25 C24 1_555 1_555
C26 C25 1_555 1_555
H18 C26 1_555 1_555
C27 C26 1_555 1_555
C28 C27 1_555 1_555
H19 C28 1_555 1_555
C29 C28 1_555 1_555
C30 C25 1_555 1_555
H20 C30 1_555 1_555
C31 O5 1_555 1_555
C32 C29 1_555 1_555
C33 N5 1_555 1_555
H21 C33 1_555 1_555
C34 N5 1_555 1_555
H22 C34 1_555 1_555
C35 N6 1_555 1_555
H23 C35 1_555 1_555
C36 N6 1_555 1_555
C37 C36 1_555 1_555
H24 C37 1_555 1_555
C38 C37 1_555 1_555
H25 C38 1_555 1_555
C39 C38 1_555 1_555
C40 C39 1_555 1_555
H26 C40 1_555 1_555
C41 C36 1_555 1_555
H27 C41 1_555 1_555
C42 C39 1_555 1_555
C43 C42 1_555 1_555
H28 C43 1_555 1_555
C44 C43 1_555 1_555
H29 C44 1_555 1_555
C45 C44 1_555 1_555
C46 C45 1_555 1_555
H30 C46 1_555 1_555
C47 C42 1_555 1_555
H31 C47 1_555 1_555
C48 N7 1_555 1_555
H32 C48 1_555 1_555
C49 N8 1_555 1_555
H33 C49 1_555 1_555
C50 N7 1_555 1_555
H34 C50 1_555 1_555
O9 C51 1_555 1_555
N9 C51 1_555 1_555
C51 H35 1_555 1_555
C52 N9 1_555 1_555
H36 C52 1_555 1_555
H37 C52 1_555 1_555
H38 C52 1_555 1_555
C53 N9 1_555 1_555
H39 C53 1_555 1_555
H40 C53 1_555 1_555
H41 C53 1_555 1_555
O10 H42 1_555 1_555
H43 O10 1_555 1_555
O11 H44 1_555 1_555
H45 O11 1_555 1_555
Zn1_2 O4 1_555 1_555
Zn2_2 N8 1_555 1_555
Zn2_3 O8 1_555 1_555
N8_2 Zn2 1_555 1_555
O4_2 Zn1 1_555 1_555
O8_2 Zn2 1_555 1_555
C2 C7 1_555 1_555
C6 C7 1_555 1_555
C11 C15 1_555 1_555
C13 C14 1_555 1_555
C18 C23 1_555 1_555
C22 C23 1_555 1_555
C27 C31 1_555 1_555
C29 C30 1_555 1_555
C34 C35 1_555 1_555
C40 C41 1_555 1_555
C46 C47 1_555 1_555
C49 C50 1_555 1_555

#END
