
#######################################################################
#
#                 Cambridge Crystallographic Data Centre
#                                CCDC 
#
#######################################################################
#
# If this CIF has been generated from an entry in the Cambridge 
# Structural Database, then it will include bibliographic, chemical, 
# crystal, experimental, refinement or atomic coordinate data resulting 
# from the CCDC's data processing and validation procedures.
#
#######################################################################

data_DUGDOA
_symmetry_cell_setting           orthorhombic
_symmetry_space_group_name_H-M   'F d d d'
_symmetry_Int_Tables_number      70
_space_group_name_Hall           '-F 2uv 2vw'
loop_
_symmetry_equiv_pos_site_id
_symmetry_equiv_pos_as_xyz
1 x,y,z
2 3/4-x,3/4-y,z
3 3/4-x,y,3/4-z
4 x,3/4-y,3/4-z
5 x,1/2+y,1/2+z
6 3/4-x,1/4-y,1/2+z
7 3/4-x,1/2+y,1/4-z
8 x,1/4-y,1/4-z
9 1/2+x,y,1/2+z
10 1/4-x,3/4-y,1/2+z
11 1/4-x,y,1/4-z
12 1/2+x,3/4-y,1/4-z
13 1/2+x,1/2+y,z
14 1/4-x,1/4-y,z
15 1/4-x,1/2+y,3/4-z
16 1/2+x,1/4-y,3/4-z
17 -x,-y,-z
18 1/4+x,1/4+y,-z
19 1/4+x,-y,1/4+z
20 -x,1/4+y,1/4+z
21 -x,1/2-y,1/2-z
22 1/4+x,3/4+y,1/2-z
23 1/4+x,1/2-y,3/4+z
24 -x,3/4+y,3/4+z
25 1/2-x,-y,1/2-z
26 3/4+x,1/4+y,1/2-z
27 3/4+x,-y,3/4+z
28 1/2-x,1/4+y,3/4+z
29 1/2-x,1/2-y,-z
30 3/4+x,3/4+y,-z
31 3/4+x,1/2-y,1/4+z
32 1/2-x,3/4+y,1/4+z
_cell_length_a                   22.543(5)
_cell_length_b                   29.134(6)
_cell_length_c                   29.168(6)
_cell_angle_alpha                90
_cell_angle_beta                 90
_cell_angle_gamma                90
_cell_volume                     19156.6
loop_
_atom_site_label
_atom_site_type_symbol
_atom_site_fract_x
_atom_site_fract_y
_atom_site_fract_z
Eu1 Eu 1.05526(2) 1.04847(2) 0.52698(2)
O1 O 1.0672(3) 0.9937(3) 0.5876(2)
O2 O 0.9989(3) 0.9639(3) 0.5424(2)
O3 O 0.6549(3) 0.6807(3) 0.7155(4)
O4 O 0.7030(3) 0.6223(2) 0.7501(3)
O5 O 1.1450(3) 0.7572(4) 0.9844(3)
O6 O 1.2071(3) 0.8053(3) 0.9487(3)
O7 O 1.0610(6) 1.0966(4) 0.5980(3)
H1 H 1.0872 1.0757 0.6024
H2 H 1.0755 1.1219 0.5892
C1 C 1.0292(4) 0.9639(4) 0.5795(3)
C2 C 1.0159(4) 0.9282(3) 0.6152(3)
C3 C 0.9698(5) 0.8975(4) 0.6108(3)
H3 H 0.9471 0.8973 0.5842
C4 C 0.9575(5) 0.8675(5) 0.6451(3)
H4 H 0.9258 0.8474 0.6414
C5 C 0.9899(4) 0.8654(3) 0.6854(3)
C6 C 1.0372(4) 0.8961(4) 0.6885(3)
H5 H 1.0605 0.8963 0.7148
C7 C 1.0505(4) 0.9263(4) 0.6537(3)
H6 H 1.0832 0.9455 0.6563
C8 C 0.9744(4) 0.8340(4) 0.7239(4)
C9 C 0.9236(5) 0.8069(4) 0.7222(4)
H7 H 0.8990 0.8091 0.6967
C10 C 0.9083(5) 0.7766(4) 0.7574(4)
C11 C 0.9450(5) 0.7752(5) 0.7955(4)
H8 H 0.9345 0.7564 0.8199
C12 C 0.9972(5) 0.8010(5) 0.7984(4)
C13 C 1.0094(5) 0.8311(4) 0.7633(4)
H9 H 1.0422 0.8502 0.7659
C14 C 1.0369(6) 0.7978(5) 0.8391(4)
C15 C 1.0238(6) 0.7731(5) 0.8770(5)
H10 H 0.9876 0.7579 0.8783
C16 C 1.0617(6) 0.7697(6) 0.9138(5)
H11 H 1.0496 0.7535 0.9396
C17 C 1.1154(5) 0.7888(4) 0.9134(4)
C18 C 1.1308(7) 0.8126(6) 0.8757(5)
H12 H 1.1681 0.8262 0.8740
C19 C 1.0923(7) 0.8168(7) 0.8401(5)
H13 H 1.1044 0.8337 0.8147
C20 C 1.1584(5) 0.7840(5) 0.9524(4)
C21 C 0.8537(5) 0.7481(4) 0.7545(5)
C22 C 0.8060(5) 0.7622(4) 0.7272(5)
H14 H 0.8076 0.7905 0.7125
C23 C 0.7566(5) 0.7349(4) 0.7219(5)
H15 H 0.7250 0.7453 0.7043
C24 C 0.7535(4) 0.6922(3) 0.7425(4)
C25 C 0.7995(4) 0.6783(4) 0.7698(4)
H16 H 0.7978 0.6499 0.7843
C26 C 0.8490(5) 0.7065(4) 0.7763(4)
H17 H 0.8793 0.6969 0.7957
C27 C 0.7005(4) 0.6630(3) 0.7360(4)
Eu1F Eu 0.69474(2) 0.54847(2) 0.72302(2)
Eu1I Eu 1.19474(2) 0.70153(2) 1.02698(2)
Eu1K Eu 0.55526(2) 0.70153(2) 0.72302(2)
Eu1P Eu 0.94474(2) 0.95153(2) 0.47302(2)
Eu1U Eu 1.30526(2) 0.79847(2) 0.97302(2)
O2P O 1.0011(3) 1.0361(3) 0.4576(2)
O3K O 1.1549(3) 1.0693(3) 0.5345(4)
O4F O 1.0470(3) 1.1223(2) 0.4999(3)
O5I O 1.1050(3) 0.9928(4) 0.4844(3)
O6Y O 0.9571(3) 1.0553(3) 0.5513(3)
loop_
_geom_bond_atom_site_label_1
_geom_bond_atom_site_label_2
_geom_bond_site_symmetry_1
_geom_bond_site_symmetry_2
Eu1 O1 1_555 1_555
O1 C1 1_555 1_555
O2 Eu1 1_555 1_555
O3 C27 1_555 1_555
O4 C27 1_555 1_555
O5 C20 1_555 1_555
O6 C20 1_555 1_555
O7 Eu1 1_555 1_555
H1 O7 1_555 1_555
H2 O7 1_555 1_555
C1 O2 1_555 1_555
C2 C1 1_555 1_555
C3 C2 1_555 1_555
H3 C3 1_555 1_555
C4 C3 1_555 1_555
H4 C4 1_555 1_555
C5 C4 1_555 1_555
C6 C5 1_555 1_555
H5 C6 1_555 1_555
C7 C2 1_555 1_555
H6 C7 1_555 1_555
C8 C5 1_555 1_555
C9 C8 1_555 1_555
H7 C9 1_555 1_555
C10 C9 1_555 1_555
C11 C10 1_555 1_555
H8 C11 1_555 1_555
C12 C11 1_555 1_555
C13 C8 1_555 1_555
H9 C13 1_555 1_555
C14 C12 1_555 1_555
C15 C14 1_555 1_555
H10 C15 1_555 1_555
C16 C15 1_555 1_555
H11 C16 1_555 1_555
C17 C16 1_555 1_555
C18 C17 1_555 1_555
H12 C18 1_555 1_555
C19 C14 1_555 1_555
H13 C19 1_555 1_555
C20 C17 1_555 1_555
C21 C10 1_555 1_555
C22 C21 1_555 1_555
H14 C22 1_555 1_555
C23 C22 1_555 1_555
H15 C23 1_555 1_555
C24 C23 1_555 1_555
C25 C24 1_555 1_555
H16 C25 1_555 1_555
C26 C21 1_555 1_555
H17 C26 1_555 1_555
C27 C24 1_555 1_555
Eu1F O4 1_555 1_555
Eu1I O5 1_555 1_555
Eu1K O3 1_555 1_555
Eu1P O2 1_555 1_555
Eu1U O6 1_555 1_555
O2P Eu1 1_555 1_555
O3K Eu1 1_555 1_555
O4F Eu1 1_555 1_555
O5I Eu1 1_555 1_555
O6Y Eu1 1_555 1_555
C6 C7 1_555 1_555
C12 C13 1_555 1_555
C18 C19 1_555 1_555
C25 C26 1_555 1_555
Eu1P O2P 1_555 1_555

#END
