
#######################################################################
#
#                 Cambridge Crystallographic Data Centre
#                                CCDC 
#
#######################################################################
#
# If this CIF has been generated from an entry in the Cambridge 
# Structural Database, then it will include bibliographic, chemical, 
# crystal, experimental, refinement or atomic coordinate data resulting 
# from the CCDC's data processing and validation procedures.
#
#######################################################################

data_DUGFIW
_symmetry_cell_setting           monoclinic
_symmetry_space_group_name_H-M   'C 2'
_symmetry_Int_Tables_number      5
_space_group_name_Hall           'C 2y'
loop_
_symmetry_equiv_pos_site_id
_symmetry_equiv_pos_as_xyz
1 x,y,z
2 -x,y,-z
3 1/2+x,1/2+y,z
4 1/2-x,1/2+y,-z
_cell_length_a                   20.434(4)
_cell_length_b                   9.921(2)
_cell_length_c                   14.065(3)
_cell_angle_alpha                90
_cell_angle_beta                 133.25(3)
_cell_angle_gamma                90
_cell_volume                     2076.83
loop_
_atom_site_label
_atom_site_type_symbol
_atom_site_fract_x
_atom_site_fract_y
_atom_site_fract_z
Zn1 Zn 0.0000 0.66818(10) 0.5000
Zn2 Zn 0.5000 0.49650(9) 1.0000
N1 N 0.5554(3) 0.3616(5) 0.9610(5)
N2 N 0.5646(4) 0.2021(6) 0.8594(6)
H1 H 0.5485 0.1390 0.8051
N3 N 0.0902(5) 0.8320(7) 0.6043(8)
O1 O 0.1176(4) 0.5468(5) 0.5749(5)
O2 O 0.0021(3) 0.5664(5) 0.3667(5)
O3 O -0.0219(4) 0.1938(7) 0.0956(6)
O4 O 0.0991(3) 0.0832(5) 0.1743(4)
S1 S 0.39643(11) 0.2362(2) 0.76010(17)
C1 C 0.5115(4) 0.2670(7) 0.8666(6)
C2 C 0.6507(4) 0.2538(8) 0.9549(7)
C3 C 0.7316(5) 0.2252(10) 0.9897(9)
H2 H 0.7352 0.1596 0.9463
C4 C 0.8040(5) 0.2961(9) 1.0886(9)
H3 H 0.8588 0.2792 1.1139
C5 C 0.7993(5) 0.3955(9) 1.1552(7)
H4 H 0.8508 0.4434 1.2224
C6 C 0.7201(4) 0.4233(8) 1.1229(6)
H5 H 0.7171 0.4866 1.1685
C7 C 0.6451(4) 0.3517(7) 1.0188(6)
C8 C 0.3602(4) 0.3189(9) 0.6134(7)
H6 H 0.3845 0.4095 0.6344
H7 H 0.3819 0.2687 0.5805
C9 C 0.2586(4) 0.3236(7) 0.5115(6)
C10 C 0.2146(4) 0.4071(7) 0.5323(6)
H8 H 0.2474 0.4522 0.6113
C11 C 0.1226(4) 0.4231(7) 0.4360(6)
C12 C 0.0733(4) 0.3496(7) 0.3225(7)
H9 H 0.0113 0.3598 0.2585
C13 C 0.1150(4) 0.2606(7) 0.3025(6)
C14 C 0.2086(4) 0.2492(8) 0.3984(6)
H10 H 0.2375 0.1905 0.3856
C15 C 0.0786(4) 0.5166(7) 0.4611(6)
C16 C 0.0592(4) 0.1740(8) 0.1816(6)
C17 C 0.1764(7) 0.8293(11) 0.6986(11)
H11 H 0.2055 0.7466 0.7325
C18 C 0.0483(7) 0.9542(8) 0.5536(9)
C19 C 0.2277(10) 0.9489(13) 0.7516(14)
H12 H 0.2899 0.9443 0.8187
C20 C 0.1875(11) 1.0672(14) 0.7063(14)
H13 H 0.2217 1.1456 0.7426
C21 C 0.0943(9) 1.0759(11) 0.6043(12)
C22 C 0.0446(9) 1.1997(8) 0.5482(12)
H14 H 0.0752 1.2813 0.5798
N3A N -0.0902(5) 0.8320(7) 0.3957(8)
C17A C -0.1764(7) 0.8293(11) 0.3014(11)
H11A H -0.2055 0.7466 0.2675
C18A C -0.0483(7) 0.9542(8) 0.4464(9)
C19A C -0.2277(10) 0.9489(13) 0.2484(14)
H12A H -0.2899 0.9443 0.1813
C20A C -0.1875(11) 1.0672(14) 0.2937(14)
H13A H -0.2217 1.1456 0.2574
C21A C -0.0943(9) 1.0759(11) 0.3957(12)
C22A C -0.0446(9) 1.1997(8) 0.4518(12)
H14A H -0.0752 1.2813 0.4202
N1A N -0.5554(3) 0.3616(5) 0.0390(5)
N2A N -0.5646(4) 0.2021(6) 0.1406(6)
H1A H -0.5485 0.1390 0.1949
O1A O -0.1176(4) 0.5468(5) 0.4251(5)
O2A O -0.0021(3) 0.5664(5) 0.6333(5)
O3A O 0.0219(4) 0.1938(7) 0.9044(6)
O4A O -0.0991(3) 0.0832(5) 0.8257(4)
S1A S -0.39643(11) 0.2362(2) 0.23990(17)
C1A C -0.5115(4) 0.2670(7) 0.1334(6)
C2A C -0.6507(4) 0.2538(8) 0.0451(7)
C3A C -0.7316(5) 0.2252(10) 0.0103(9)
H2A H -0.7352 0.1596 0.0537
C4A C -0.8040(5) 0.2961(9) -0.0886(9)
H3A H -0.8588 0.2792 -0.1139
C5A C -0.7993(5) 0.3955(9) -0.1552(7)
H4A H -0.8508 0.4434 -0.2224
C6A C -0.7201(4) 0.4233(8) -0.1229(6)
H5A H -0.7171 0.4866 -0.1685
C7A C -0.6451(4) 0.3517(7) -0.0188(6)
C8A C -0.3602(4) 0.3189(9) 0.3866(7)
H6A H -0.3845 0.4095 0.3656
H7A H -0.3819 0.2687 0.4195
C9A C -0.2586(4) 0.3236(7) 0.4885(6)
C10A C -0.2146(4) 0.4071(7) 0.4677(6)
H8A H -0.2474 0.4522 0.3887
C11A C -0.1226(4) 0.4231(7) 0.5640(6)
C12A C -0.0733(4) 0.3496(7) 0.6775(7)
H9A H -0.0113 0.3598 0.7415
C13A C -0.1150(4) 0.2606(7) 0.6975(6)
C14A C -0.2086(4) 0.2492(8) 0.6016(6)
H10A H -0.2375 0.1905 0.6144
C15A C -0.0786(4) 0.5166(7) 0.5389(6)
C16A C -0.0592(4) 0.1740(8) 0.8184(6)
Zn2_2 Zn -0.5000 0.49650(9) 0.0000
Zn2B Zn 0.0000 -0.00350(9) 0.0000
Zn2B_2 Zn 0.0000 -0.00350(9) 1.0000
N1A_2 N 0.4446(3) 0.3616(5) 1.0390(5)
O4B O 0.5991(3) 0.5832(5) 1.1743(4)
O4C O 0.4009(3) 0.5832(5) 0.8257(4)
loop_
_geom_bond_atom_site_label_1
_geom_bond_atom_site_label_2
_geom_bond_site_symmetry_1
_geom_bond_site_symmetry_2
Zn1 N3 1_555 1_555
Zn2 N1 1_555 1_555
N1 C1 1_555 1_555
N2 H1 1_555 1_555
N3 C17 1_555 1_555
O1 Zn1 1_555 1_555
O2 Zn1 1_555 1_555
O3 C16 1_555 1_555
O4 C16 1_555 1_555
S1 C1 1_555 1_555
C1 N2 1_555 1_555
C2 N2 1_555 1_555
C3 C2 1_555 1_555
H2 C3 1_555 1_555
C4 C3 1_555 1_555
H3 C4 1_555 1_555
C5 C4 1_555 1_555
H4 C5 1_555 1_555
C6 C5 1_555 1_555
H5 C6 1_555 1_555
C7 N1 1_555 1_555
C8 S1 1_555 1_555
H6 C8 1_555 1_555
H7 C8 1_555 1_555
C9 C8 1_555 1_555
C10 C9 1_555 1_555
H8 C10 1_555 1_555
C11 C10 1_555 1_555
C12 C11 1_555 1_555
H9 C12 1_555 1_555
C13 C12 1_555 1_555
C14 C9 1_555 1_555
H10 C14 1_555 1_555
C15 O1 1_555 1_555
C16 C13 1_555 1_555
C17 H11 1_555 1_555
C18 N3 1_555 1_555
C19 C17 1_555 1_555
H12 C19 1_555 1_555
C20 C19 1_555 1_555
H13 C20 1_555 1_555
C21 C18 1_555 1_555
C22 C21 1_555 1_555
H14 C22 1_555 1_555
N3A Zn1 1_555 1_555
C17A N3A 1_555 1_555
H11A C17A 1_555 1_555
C18A C18 1_555 1_555
C19A C17A 1_555 1_555
H12A C19A 1_555 1_555
C20A C19A 1_555 1_555
H13A C20A 1_555 1_555
C21A C18A 1_555 1_555
C22A C22 1_555 1_555
H14A C22A 1_555 1_555
N1A C1A 1_555 1_555
N2A H1A 1_555 1_555
O1A Zn1 1_555 1_555
O2A Zn1 1_555 1_555
O3A C16A 1_555 1_555
O4A C16A 1_555 1_555
S1A C1A 1_555 1_555
C1A N2A 1_555 1_555
C2A N2A 1_555 1_555
C3A C2A 1_555 1_555
H2A C3A 1_555 1_555
C4A C3A 1_555 1_555
H3A C4A 1_555 1_555
C5A C4A 1_555 1_555
H4A C5A 1_555 1_555
C6A C5A 1_555 1_555
H5A C6A 1_555 1_555
C7A N1A 1_555 1_555
C8A S1A 1_555 1_555
H6A C8A 1_555 1_555
H7A C8A 1_555 1_555
C9A C8A 1_555 1_555
C10A C9A 1_555 1_555
H8A C10A 1_555 1_555
C11A C10A 1_555 1_555
C12A C11A 1_555 1_555
H9A C12A 1_555 1_555
C13A C12A 1_555 1_555
C14A C9A 1_555 1_555
H10A C14A 1_555 1_555
C15A O1A 1_555 1_555
C16A C13A 1_555 1_555
Zn2_2 N1A 1_555 1_555
Zn2B O4 1_555 1_555
Zn2B_2 O4A 1_555 1_555
N1A_2 Zn2 1_555 1_555
O4B Zn2 1_555 1_555
O4C Zn2 1_555 1_555
O2 C15 1_555 1_555
C2 C7 1_555 1_555
C6 C7 1_555 1_555
C11 C15 1_555 1_555
C13 C14 1_555 1_555
C20 C21 1_555 1_555
N3A C18A 1_555 1_555
C20A C21A 1_555 1_555
C21A C22A 1_555 1_555
O2A C15A 1_555 1_555
C2A C7A 1_555 1_555
C6A C7A 1_555 1_555
C11A C15A 1_555 1_555
C13A C14A 1_555 1_555

#END
