
#######################################################################
#
#                 Cambridge Crystallographic Data Centre
#                                CCDC 
#
#######################################################################
#
# If this CIF has been generated from an entry in the Cambridge 
# Structural Database, then it will include bibliographic, chemical, 
# crystal, experimental, refinement or atomic coordinate data resulting 
# from the CCDC's data processing and validation procedures.
#
#######################################################################

data_DUGFAO
_symmetry_cell_setting           monoclinic
_symmetry_space_group_name_H-M   'P 21/c'
_symmetry_Int_Tables_number      14
_space_group_name_Hall           '-P 2ybc'
loop_
_symmetry_equiv_pos_site_id
_symmetry_equiv_pos_as_xyz
1 x,y,z
2 -x,1/2+y,1/2-z
3 -x,-y,-z
4 x,1/2-y,1/2+z
_cell_length_a                   10.304(2)
_cell_length_b                   12.582(3)
_cell_length_c                   17.040(3)
_cell_angle_alpha                90
_cell_angle_beta                 98.60(3)
_cell_angle_gamma                90
_cell_volume                     2184.31
loop_
_atom_site_label
_atom_site_type_symbol
_atom_site_fract_x
_atom_site_fract_y
_atom_site_fract_z
Zn1 Zn 0.88337(3) 0.87255(3) 0.47348(2)
O1 O 0.8718(2) 0.49454(18) 0.91243(12)
O2 O 1.0527(2) 0.3967(2) 0.91231(12)
O3 O 1.1423(3) 0.2238(3) 0.66577(18)
O4 O 0.9901(2) 0.23060(19) 0.55948(13)
N1 N 0.7011(2) 0.8215(2) 0.48271(16)
N2 N 0.5408(3) 0.7214(2) 0.5169(2)
H1 H 0.5024 0.6704 0.5379
S1 S 0.79362(10) 0.65431(9) 0.57199(8)
C1 C 0.6719(3) 0.7356(3) 0.5214(2)
C2 C 0.5804(3) 0.8658(2) 0.4505(2)
C3 C 0.5516(4) 0.9576(3) 0.4052(2)
H2 H 0.6172 1.0003 0.3900
C4 C 0.4182(4) 0.9817(4) 0.3840(3)
H3 H 0.3951 1.0421 0.3536
C5 C 0.3201(4) 0.9195(4) 0.4063(3)
H4 H 0.2331 0.9394 0.3910
C6 C 0.3475(4) 0.8294(4) 0.4503(3)
H5 H 0.2812 0.7870 0.4650
C7 C 0.4800(3) 0.8041(3) 0.4722(2)
C8 C 0.7003(3) 0.5517(2) 0.61385(18)
H6 H 0.6417 0.5833 0.6469
H7 H 0.6483 0.5114 0.5719
C9 C 0.7986(3) 0.4807(2) 0.66267(17)
C10 C 0.8261(3) 0.4922(2) 0.74457(17)
H8 H 0.7811 0.5428 0.7698
C11 C 0.9206(3) 0.4287(2) 0.78939(16)
C12 C 0.9898(3) 0.3543(2) 0.75138(18)
H9 H 1.0553 0.3138 0.7808
C13 C 0.9615(3) 0.3403(2) 0.66941(18)
C14 C 0.8656(3) 0.4031(2) 0.62562(17)
H10 H 0.8458 0.3934 0.5710
C15 C 1.0371(4) 0.2589(3) 0.62978(19)
C16 C 0.9505(3) 0.4419(2) 0.87835(16)
Zn1A Zn 1.11663(3) 0.37255(3) 1.02652(2)
Zn1B Zn 1.11663(3) 0.12745(3) 0.52652(2)
Zn1C Zn 0.88337(3) 0.62745(3) 0.97348(2)
O1C O 0.8718(2) 1.00546(18) 0.41243(12)
O2A O 0.9473(2) 0.8967(2) 0.58769(12)
O4B O 1.0099(2) 0.76940(19) 0.44052(13)
O5 O 0.3522(11) 0.2798(10) 0.7800(6)
H11 H 0.3379 0.3263 0.7436
H12 H 0.3739 0.2232 0.7580
O6? O 0.4642(16) 0.2610(12) 0.7507(9)
H13? H 0.5219 0.2990 0.7334
H14? H 0.4598 0.2039 0.7238
loop_
_geom_bond_atom_site_label_1
_geom_bond_atom_site_label_2
_geom_bond_site_symmetry_1
_geom_bond_site_symmetry_2
Zn1 N1 1_555 1_555
O1 C16 1_555 1_555
O2 C16 1_555 1_555
O3 C15 1_555 1_555
O4 C15 1_555 1_555
N1 C1 1_555 1_555
N2 H1 1_555 1_555
S1 C1 1_555 1_555
C1 N2 1_555 1_555
C2 N1 1_555 1_555
C3 C2 1_555 1_555
H2 C3 1_555 1_555
C4 C3 1_555 1_555
H3 C4 1_555 1_555
C5 C4 1_555 1_555
H4 C5 1_555 1_555
C6 C5 1_555 1_555
H5 C6 1_555 1_555
C7 N2 1_555 1_555
C8 S1 1_555 1_555
H6 C8 1_555 1_555
H7 C8 1_555 1_555
C9 C8 1_555 1_555
C10 C9 1_555 1_555
H8 C10 1_555 1_555
C11 C10 1_555 1_555
C12 C11 1_555 1_555
H9 C12 1_555 1_555
C13 C12 1_555 1_555
C14 C9 1_555 1_555
H10 C14 1_555 1_555
C15 C13 1_555 1_555
C16 C11 1_555 1_555
O5 H11 1_555 1_555
H12 O5 1_555 1_555
Zn1A O2 1_555 1_555
Zn1B O4 1_555 1_555
Zn1C O1 1_555 1_555
O1C Zn1 1_555 1_555
O2A Zn1 1_555 1_555
O4B Zn1 1_555 1_555
C2 C7 1_555 1_555
C6 C7 1_555 1_555
C13 C14 1_555 1_555

#END
