
#######################################################################
#
#                 Cambridge Crystallographic Data Centre
#                                CCDC 
#
#######################################################################
#
# If this CIF has been generated from an entry in the Cambridge 
# Structural Database, then it will include bibliographic, chemical, 
# crystal, experimental, refinement or atomic coordinate data resulting 
# from the CCDC's data processing and validation procedures.
#
#######################################################################

data_DUGHIY
_symmetry_cell_setting           monoclinic
_symmetry_space_group_name_H-M   'P 21/c'
_symmetry_Int_Tables_number      14
_space_group_name_Hall           '-P 2ybc'
loop_
_symmetry_equiv_pos_site_id
_symmetry_equiv_pos_as_xyz
1 x,y,z
2 -x,1/2+y,1/2-z
3 -x,-y,-z
4 x,1/2-y,1/2+z
_cell_length_a                   5.8703(2)
_cell_length_b                   23.9827(7)
_cell_length_c                   15.6932(5)
_cell_angle_alpha                90
_cell_angle_beta                 92.9530(10)
_cell_angle_gamma                90
_cell_volume                     2206.44
loop_
_atom_site_label
_atom_site_type_symbol
_atom_site_fract_x
_atom_site_fract_y
_atom_site_fract_z
Ag1 Ag 0.32902(2) 0.55838(2) 0.01751(2)
Ag2 Ag -0.14120(3) 0.55868(2) 0.10683(2)
C1 C 0.3205(3) 0.61909(8) 0.30007(11)
C2 C 0.4769(3) 0.63291(8) 0.36668(12)
H1 H 0.6212 0.6478 0.3540
C3 C 0.4257(3) 0.62526(9) 0.45071(12)
H2 H 0.5329 0.6355 0.4954
C4 C 0.2171(4) 0.60250(9) 0.46982(12)
H3 H 0.1825 0.5964 0.5276
C5 C 0.0603(3) 0.58873(9) 0.40485(13)
H4 H -0.0825 0.5732 0.4180
C6 C 0.1099(3) 0.59747(8) 0.32017(12)
H5 H -0.0005 0.5886 0.2758
C7 C 0.3942(3) 0.70485(8) 0.17833(11)
C8 C 0.5814(4) 0.73644(9) 0.20778(13)
H6 H 0.7148 0.7182 0.2306
C9 C 0.5750(4) 0.79393(10) 0.20416(14)
H7 H 0.7031 0.8151 0.2246
C10 C 0.3827(4) 0.82043(10) 0.17086(14)
H8 H 0.3775 0.8600 0.1690
C11 C 0.1977(4) 0.78983(10) 0.14025(15)
H9 H 0.0665 0.8083 0.1162
C12 C 0.2023(4) 0.73208(9) 0.14447(13)
H10 H 0.0734 0.7111 0.1241
C13 C 0.2719(3) 0.44747(7) 0.21095(11)
C14 C 0.4867(3) 0.47161(8) 0.22263(12)
H11 H 0.5744 0.4787 0.1746
C15 C 0.5742(3) 0.48539(9) 0.30387(12)
H12 H 0.7198 0.5025 0.3112
C16 C 0.4495(4) 0.47417(9) 0.37375(12)
H13 H 0.5093 0.4835 0.4293
C17 C 0.2376(4) 0.44942(9) 0.36316(13)
H14 H 0.1523 0.4416 0.4116
C18 C 0.1488(4) 0.43598(9) 0.28244(13)
H15 H 0.0031 0.4188 0.2757
C19 C 0.1077(3) 0.36094(8) 0.09242(12)
C20 C -0.0844(4) 0.33556(9) 0.12405(13)
H16 H -0.1953 0.3575 0.1506
C21 C -0.1137(4) 0.27827(10) 0.11678(15)
H17 H -0.2438 0.2610 0.1389
C22 C 0.0452(5) 0.24654(10) 0.07764(16)
H18 H 0.0240 0.2074 0.0728
C23 C 0.2361(4) 0.27102(10) 0.04519(16)
H19 H 0.3448 0.2488 0.0178
C24 C 0.2673(4) 0.32806(9) 0.05292(13)
H20 H 0.3987 0.3449 0.0311
O1 O 0.6411(2) 0.61059(6) 0.18540(9)
O2 O 0.2186(2) 0.60467(6) 0.13131(8)
O3 O 0.3156(2) 0.45477(5) 0.04075(8)
O4 O -0.0834(2) 0.46250(5) 0.09986(8)
P1 P 0.39985(8) 0.62998(2) 0.19139(3)
P2 P 0.14971(8) 0.43497(2) 0.10505(3)
Ag1B Ag -0.32902(2) 0.44162(2) -0.01751(2)
Ag1B_2 Ag 0.67098(2) 0.44162(2) -0.01751(2)
Ag2_2 Ag 0.85880(3) 0.55868(2) 0.10683(2)
Ag2B Ag 0.14120(3) 0.44132(2) -0.10683(2)
O1_2 O -0.3589(2) 0.61059(6) 0.18540(9)
O3B O -0.3156(2) 0.54523(5) -0.04075(8)
O3B_2 O 0.6844(2) 0.54523(5) -0.04075(8)
O4B O 0.0834(2) 0.53750(5) -0.09986(8)
loop_
_geom_bond_atom_site_label_1
_geom_bond_atom_site_label_2
_geom_bond_site_symmetry_1
_geom_bond_site_symmetry_2
Ag1 O2 1_555 1_555
Ag2 O2 1_555 1_555
C1 C2 1_555 1_555
C2 H1 1_555 1_555
C3 C2 1_555 1_555
H2 C3 1_555 1_555
C4 C3 1_555 1_555
H3 C4 1_555 1_555
C5 C4 1_555 1_555
H4 C5 1_555 1_555
C6 C1 1_555 1_555
H5 C6 1_555 1_555
C7 C8 1_555 1_555
C8 H6 1_555 1_555
C9 C8 1_555 1_555
H7 C9 1_555 1_555
C10 C9 1_555 1_555
H8 C10 1_555 1_555
C11 C10 1_555 1_555
H9 C11 1_555 1_555
C12 C7 1_555 1_555
H10 C12 1_555 1_555
C13 C14 1_555 1_555
C14 H11 1_555 1_555
C15 C14 1_555 1_555
H12 C15 1_555 1_555
C16 C15 1_555 1_555
H13 C16 1_555 1_555
C17 C16 1_555 1_555
H14 C17 1_555 1_555
C18 C13 1_555 1_555
H15 C18 1_555 1_555
C19 C20 1_555 1_555
C20 H16 1_555 1_555
C21 C20 1_555 1_555
H17 C21 1_555 1_555
C22 C21 1_555 1_555
H18 C22 1_555 1_555
C23 C22 1_555 1_555
H19 C23 1_555 1_555
C24 C19 1_555 1_555
H20 C24 1_555 1_555
O1 P1 1_555 1_555
O2 P1 1_555 1_555
O3 Ag1 1_555 1_555
O4 Ag2 1_555 1_555
P1 C1 1_555 1_555
P2 C13 1_555 1_555
Ag1B O4 1_555 1_555
Ag1B_2 O3 1_555 1_555
Ag2_2 O1 1_555 1_555
Ag2B O3 1_555 1_555
O1_2 Ag2 1_555 1_555
O3B Ag2 1_555 1_555
O3B_2 Ag1 1_555 1_555
O4B Ag1 1_555 1_555
C5 C6 1_555 1_555
C7 P1 1_555 1_555
C11 C12 1_555 1_555
C17 C18 1_555 1_555
C19 P2 1_555 1_555
C23 C24 1_555 1_555
O3 P2 1_555 1_555
O4 P2 1_555 1_555
Ag1B O3B 1_555 1_555
Ag1B_2 O3B_2 1_555 1_555
Ag2_2 O3B_2 1_555 1_555
Ag2B O4B 1_555 1_555

#END
