
#######################################################################
#
#                 Cambridge Crystallographic Data Centre
#                                CCDC 
#
#######################################################################
#
# If this CIF has been generated from an entry in the Cambridge 
# Structural Database, then it will include bibliographic, chemical, 
# crystal, experimental, refinement or atomic coordinate data resulting 
# from the CCDC's data processing and validation procedures.
#
#######################################################################

data_DUGKUN
_symmetry_cell_setting           triclinic
_symmetry_space_group_name_H-M   'P -1'
_symmetry_Int_Tables_number      2
_space_group_name_Hall           '-P 1'
loop_
_symmetry_equiv_pos_site_id
_symmetry_equiv_pos_as_xyz
1 x,y,z
2 -x,-y,-z
_cell_length_a                   8.1656(7)
_cell_length_b                   9.5473(8)
_cell_length_c                   16.4220(13)
_cell_angle_alpha                92.325(7)
_cell_angle_beta                 90.617(6)
_cell_angle_gamma                96.040(7)
_cell_volume                     1271.95
loop_
_atom_site_label
_atom_site_type_symbol
_atom_site_fract_x
_atom_site_fract_y
_atom_site_fract_z
Bi1 Bi 0.46744(3) 1.40947(2) 0.25231(2)
N1 N 0.7235(7) 1.6359(6) 0.5233(3)
H1 H 0.6590 1.6390 0.4818
N2 N 0.4397(7) 0.9025(6) 0.1924(4)
H2 H 0.4758 0.9813 0.2168
O1 O 0.6078(6) 1.5303(5) 0.3801(3)
O2 O 0.5937(6) 1.3014(4) 0.3557(3)
O3 O 0.8328(7) 1.7695(5) 0.6311(3)
O4 O 0.4581(6) 1.1757(4) 0.2089(3)
O5 O 0.3645(6) 1.2990(5) 0.1128(3)
C1 C 0.7405(7) 1.3932(7) 0.4760(4)
C2 C 0.7801(8) 1.5035(7) 0.5351(4)
C3 C 0.8771(8) 1.4797(8) 0.6029(4)
H3 H 0.9034 1.5508 0.6427
C4 C 0.9328(9) 1.3495(8) 0.6099(5)
H4 H 0.9981 1.3345 0.6548
C5 C 0.8954(9) 1.2408(8) 0.5529(4)
H5 H 0.9352 1.1541 0.5593
C6 C 0.7991(8) 1.2620(7) 0.4871(4)
H6 H 0.7719 1.1884 0.4489
C7 C 0.6416(8) 1.4093(7) 0.4011(4)
C8 C 0.7551(9) 1.7585(8) 0.5672(4)
C9 C 0.6835(10) 1.8806(7) 0.5308(5)
H7 H 0.7118 1.9641 0.5647
H8 H 0.5659 1.8611 0.5270
H9 H 0.7271 1.8947 0.4773
C10 C 0.3460(8) 1.0493(8) 0.0884(4)
C11 C 0.3698(8) 0.9147(7) 0.1130(4)
C12 C 0.3272(9) 0.7971(8) 0.0629(4)
H10 H 0.3480 0.7084 0.0792
C13 C 0.2541(10) 0.8122(9) -0.0111(5)
H11 H 0.2248 0.7326 -0.0448
C14 C 0.2227(10) 0.9429(10) -0.0371(5)
H12 H 0.1694 0.9516 -0.0867
C15 C 0.2727(9) 1.0606(9) 0.0127(4)
H13 H 0.2566 1.1494 -0.0050
C16 C 0.3900(7) 1.1819(7) 0.1379(4)
C17 C 0.7140(8) 1.4468(7) 0.1948(4)
C18 C 0.7433(12) 1.5425(10) 0.1354(7)
H14 H 0.6599 1.5941 0.1180
C19 C 0.8995(14) 1.5619(13) 0.1012(8)
H15 H 0.9214 1.6292 0.0623
C20 C 1.0195(12) 1.4830(10) 0.1244(7)
H16 H 1.1220 1.4947 0.1000
C21 C 0.9915(9) 1.3880(10) 0.1825(5)
H17 H 1.0753 1.3362 0.1991
C22 C 0.8385(8) 1.3677(8) 0.2174(4)
H18 H 0.8186 1.3004 0.2564
O6 O 0.4301(6) 0.6670(5) 0.2074(3)
C23 C 0.4581(9) 0.7883(7) 0.2350(4)
C24 C 0.5133(10) 0.8204(8) 0.3217(4)
H19 H 0.5228 0.7338 0.3482
H20 H 0.4342 0.8717 0.3495
H21 H 0.6183 0.8761 0.3228
Bi1_2 Bi 0.46744(3) 0.40947(2) 0.25231(2)
O6_2 O 0.4301(6) 1.6670(5) 0.2074(3)
O7 O 1.0814(10) 1.9952(7) 0.6602(4)
H22 H 1.0392 1.9134 0.6562
C25 C 1.109(2) 2.032(2) 0.7367(11)
H23 H 1.1869 2.1154 0.7423
H24 H 1.1523 1.9563 0.7651
C26 C 0.952(3) 2.059(2) 0.7691(12)
H25 H 0.9644 2.0860 0.8260
H26 H 0.8753 1.9760 0.7624
H27 H 0.9106 2.1345 0.7406
H28? H 1.0563 2.0597 0.6327
C27? C 1.008(4) 2.013(3) 0.7530(17)
H29? H 0.8888 2.0071 0.7493
H30? H 1.0365 1.9354 0.7846
C28? C 1.069(2) 2.147(2) 0.7967(12)
H31? H 1.0199 2.1503 0.8495
H32? H 1.0408 2.2244 0.7662
H33? H 1.1867 2.1518 0.8030
loop_
_geom_bond_atom_site_label_1
_geom_bond_atom_site_label_2
_geom_bond_site_symmetry_1
_geom_bond_site_symmetry_2
Bi1 O1 1_555 1_555
N1 H1 1_555 1_555
N2 H2 1_555 1_555
O1 C7 1_555 1_555
O2 Bi1 1_555 1_555
O3 C8 1_555 1_555
O4 Bi1 1_555 1_555
O5 Bi1 1_555 1_555
C1 C2 1_555 1_555
C2 N1 1_555 1_555
C3 C2 1_555 1_555
H3 C3 1_555 1_555
C4 C3 1_555 1_555
H4 C4 1_555 1_555
C5 C4 1_555 1_555
H5 C5 1_555 1_555
C6 C1 1_555 1_555
H6 C6 1_555 1_555
C7 O2 1_555 1_555
C8 N1 1_555 1_555
C9 C8 1_555 1_555
H7 C9 1_555 1_555
H8 C9 1_555 1_555
H9 C9 1_555 1_555
C10 C11 1_555 1_555
C11 N2 1_555 1_555
C12 C11 1_555 1_555
H10 C12 1_555 1_555
C13 C12 1_555 1_555
H11 C13 1_555 1_555
C14 C13 1_555 1_555
H12 C14 1_555 1_555
C15 C10 1_555 1_555
H13 C15 1_555 1_555
C16 O4 1_555 1_555
C17 Bi1 1_555 1_555
C18 C17 1_555 1_555
H14 C18 1_555 1_555
C19 C18 1_555 1_555
H15 C19 1_555 1_555
C20 C19 1_555 1_555
H16 C20 1_555 1_555
C21 C20 1_555 1_555
H17 C21 1_555 1_555
C22 C17 1_555 1_555
H18 C22 1_555 1_555
O6 C23 1_555 1_555
C23 N2 1_555 1_555
C24 C23 1_555 1_555
H19 C24 1_555 1_555
H20 C24 1_555 1_555
H21 C24 1_555 1_555
O7 H22 1_555 1_555
C25 O7 1_555 1_555
H23 C25 1_555 1_555
H24 C25 1_555 1_555
C26 C25 1_555 1_555
H25 C26 1_555 1_555
H26 C26 1_555 1_555
H27 C26 1_555 1_555
Bi1_2 O6 1_555 1_555
O6_2 Bi1 1_555 1_555
O5 C16 1_555 1_555
C1 C7 1_555 1_555
C5 C6 1_555 1_555
C10 C16 1_555 1_555
C14 C15 1_555 1_555
C21 C22 1_555 1_555

#END
