
#######################################################################
#
#                 Cambridge Crystallographic Data Centre
#                                CCDC 
#
#######################################################################
#
# If this CIF has been generated from an entry in the Cambridge 
# Structural Database, then it will include bibliographic, chemical, 
# crystal, experimental, refinement or atomic coordinate data resulting 
# from the CCDC's data processing and validation procedures.
#
#######################################################################

data_DUGLAU
_symmetry_cell_setting           orthorhombic
_symmetry_space_group_name_H-M   'P b c a'
_symmetry_Int_Tables_number      61
_space_group_name_Hall           '-P 2ac 2ab'
loop_
_symmetry_equiv_pos_site_id
_symmetry_equiv_pos_as_xyz
1 x,y,z
2 1/2-x,-y,1/2+z
3 -x,1/2+y,1/2-z
4 1/2+x,1/2-y,-z
5 -x,-y,-z
6 1/2+x,y,1/2-z
7 x,1/2-y,1/2+z
8 1/2-x,1/2+y,z
_cell_length_a                   14.522(4)
_cell_length_b                   14.964(4)
_cell_length_c                   24.548(7)
_cell_angle_alpha                90
_cell_angle_beta                 90
_cell_angle_gamma                90
_cell_volume                     5334.46
loop_
_atom_site_label
_atom_site_type_symbol
_atom_site_fract_x
_atom_site_fract_y
_atom_site_fract_z
Bi1 Bi 0.83572(3) -0.33797(3) 0.45387(2)
O1 O 0.7002(6) -0.3916(6) 0.4235(4)
O2 O 0.6536(6) -0.2777(6) 0.4748(4)
O3 O 0.4852(5) -0.2646(5) 0.5037(3)
H1 H 0.5383 -0.2620 0.5150
O4 O 0.3242(5) -0.3380(5) 0.5124(4)
O5 O 0.9955(6) -0.4167(5) 0.4464(3)
O6 O 1.1407(5) -0.5115(5) 0.4463(3)
H2 H 1.1131 -0.4637 0.4465
O7 O 1.2305(6) -0.6524(6) 0.4131(4)
O8 O 0.8672(6) -0.4686(6) 0.4096(4)
C1 C 0.8560(10) -0.2677(8) 0.3754(6)
C2 C 0.9297(9) -0.2084(9) 0.3686(6)
H3 H 0.9706 -0.1989 0.3972
C3 C 0.9423(10) -0.1640(10) 0.3196(7)
H4 H 0.9917 -0.1251 0.3153
C4 C 0.8826(13) -0.1771(10) 0.2783(7)
H5 H 0.8911 -0.1468 0.2456
C5 C 0.8077(13) -0.2361(11) 0.2841(7)
H6 H 0.7663 -0.2448 0.2557
C6 C 0.7974(11) -0.2796(11) 0.3320(7)
H7 H 0.7486 -0.3194 0.3358
C7 C 0.5440(8) -0.3860(8) 0.4466(5)
C8 C 0.4745(8) -0.3408(8) 0.4715(4)
C9 C 0.3845(8) -0.3809(8) 0.4792(5)
C10 C 0.3649(8) -0.4578(8) 0.4513(5)
H8 H 0.3063 -0.4827 0.4530
C11 C 0.4343(8) -0.4988(8) 0.4199(5)
H9 H 0.4205 -0.5496 0.3996
C12 C 0.5206(9) -0.4652(8) 0.4190(6)
H10 H 0.5660 -0.4953 0.3995
C13 C 0.6345(9) -0.3483(10) 0.4491(6)
C14 C 0.2563(8) -0.3939(8) 0.5395(5)
H11 H 0.2177 -0.3573 0.5622
H12 H 0.2871 -0.4375 0.5616
H13 H 0.2191 -0.4236 0.5127
C15 C 0.9992(8) -0.5592(8) 0.4025(5)
C16 C 1.0937(9) -0.5716(9) 0.4151(5)
C17 C 1.1389(9) -0.6491(8) 0.3969(7)
C18 C 1.0916(9) -0.7105(9) 0.3677(5)
H14 H 1.1214 -0.7619 0.3558
C19 C 1.0002(10) -0.6981(8) 0.3553(5)
H15 H 0.9687 -0.7413 0.3355
C20 C 0.9560(9) -0.6240(8) 0.3718(5)
H16 H 0.8946 -0.6161 0.3621
C21 C 0.9539(9) -0.4782(9) 0.4198(6)
C22 C 1.2818(9) -0.7264(10) 0.3934(6)
H17 H 1.3431 -0.7243 0.4080
H18 H 1.2845 -0.7241 0.3543
H19 H 1.2525 -0.7809 0.4045
Bi1C Bi 0.33572(3) -0.16203(3) 0.54613(2)
O3C O 0.9852(5) -0.2354(5) 0.4963(3)
O4C O 0.8242(5) -0.1620(5) 0.4876(4)
C23 C 0.2282(13) -0.4675(13) 0.2642(9)
C24 C 0.1709(14) -0.4568(10) 0.2201(7)
H20 H 0.1892 -0.4766 0.1859
C25 C 0.0871(15) -0.4169(12) 0.2268(9)
H21 H 0.0483 -0.4107 0.1968
C26 C 0.0589(13) -0.3862(11) 0.2761(9)
H22 H 0.0020 -0.3584 0.2798
C27 C 0.1159(13) -0.3967(12) 0.3206(8)
H23 H 0.0973 -0.3762 0.3546
C28 C 0.1993(13) -0.4370(12) 0.3147(7)
H24 H 0.2373 -0.4442 0.3449
C29 C 0.3194(12) -0.5145(14) 0.2579(9)
H25 H 0.3504 -0.5160 0.2925
H26 H 0.3567 -0.4830 0.2320
H27 H 0.3093 -0.5745 0.2454
loop_
_geom_bond_atom_site_label_1
_geom_bond_atom_site_label_2
_geom_bond_site_symmetry_1
_geom_bond_site_symmetry_2
Bi1 O1 1_555 1_555
O1 C13 1_555 1_555
O2 Bi1 1_555 1_555
O3 H1 1_555 1_555
O4 C9 1_555 1_555
O5 Bi1 1_555 1_555
O6 H2 1_555 1_555
O7 C17 1_555 1_555
O8 Bi1 1_555 1_555
C1 Bi1 1_555 1_555
C2 C1 1_555 1_555
H3 C2 1_555 1_555
C3 C2 1_555 1_555
H4 C3 1_555 1_555
C4 C3 1_555 1_555
H5 C4 1_555 1_555
C5 C4 1_555 1_555
H6 C5 1_555 1_555
C6 C1 1_555 1_555
H7 C6 1_555 1_555
C7 C8 1_555 1_555
C8 O3 1_555 1_555
C9 C8 1_555 1_555
C10 C9 1_555 1_555
H8 C10 1_555 1_555
C11 C10 1_555 1_555
H9 C11 1_555 1_555
C12 C7 1_555 1_555
H10 C12 1_555 1_555
C13 O2 1_555 1_555
C14 O4 1_555 1_555
H11 C14 1_555 1_555
H12 C14 1_555 1_555
H13 C14 1_555 1_555
C15 C16 1_555 1_555
C16 O6 1_555 1_555
C17 C16 1_555 1_555
C18 C17 1_555 1_555
H14 C18 1_555 1_555
C19 C18 1_555 1_555
H15 C19 1_555 1_555
C20 C15 1_555 1_555
H16 C20 1_555 1_555
C21 O5 1_555 1_555
C22 O7 1_555 1_555
H17 C22 1_555 1_555
H18 C22 1_555 1_555
H19 C22 1_555 1_555
C23 C24 1_555 1_555
C24 H20 1_555 1_555
C25 C24 1_555 1_555
H21 C25 1_555 1_555
C26 C25 1_555 1_555
H22 C26 1_555 1_555
C27 C26 1_555 1_555
H23 C27 1_555 1_555
C28 C23 1_555 1_555
H24 C28 1_555 1_555
C29 C23 1_555 1_555
H25 C29 1_555 1_555
H26 C29 1_555 1_555
H27 C29 1_555 1_555
Bi1C O3 1_555 1_555
O3C Bi1 1_555 1_555
O4C Bi1 1_555 1_555
O4 Bi1C 1_555 1_555
O8 C21 1_555 1_555
C5 C6 1_555 1_555
C7 C13 1_555 1_555
C11 C12 1_555 1_555
C15 C21 1_555 1_555
C19 C20 1_555 1_555
C27 C28 1_555 1_555

#END
