
#######################################################################
#
#                 Cambridge Crystallographic Data Centre
#                                CCDC 
#
#######################################################################
#
# If this CIF has been generated from an entry in the Cambridge 
# Structural Database, then it will include bibliographic, chemical, 
# crystal, experimental, refinement or atomic coordinate data resulting 
# from the CCDC's data processing and validation procedures.
#
#######################################################################

data_DUGNEA
_symmetry_cell_setting           monoclinic
_symmetry_space_group_name_H-M   'P 21/c'
_symmetry_Int_Tables_number      14
_space_group_name_Hall           '-P 2ybc'
loop_
_symmetry_equiv_pos_site_id
_symmetry_equiv_pos_as_xyz
1 x,y,z
2 -x,1/2+y,1/2-z
3 -x,-y,-z
4 x,1/2-y,1/2+z
_cell_length_a                   15.9219(11)
_cell_length_b                   7.8232(6)
_cell_length_c                   23.3545(17)
_cell_angle_alpha                90
_cell_angle_beta                 93.0960(10)
_cell_angle_gamma                90
_cell_volume                     2904.8
loop_
_atom_site_label
_atom_site_type_symbol
_atom_site_fract_x
_atom_site_fract_y
_atom_site_fract_z
Co1 Co 0.750048(14) 0.56267(3) 0.034281(9)
Co2 Co 1.0000 1.5000 0.5000
Co3 Co 0.5000 0.5000 0.5000
O1 O 0.84390(8) 0.74474(16) 0.04209(5)
O2 O 0.89327(8) 1.01043(15) 0.05161(6)
O3 O 0.66144(8) 0.75588(18) 0.03986(5)
O4 O 0.59649(8) 0.99457(16) 0.06254(5)
O5 O 0.94710(8) 1.31905(17) 0.44271(5)
O6 O 0.91417(8) 1.47310(17) 0.36384(6)
O7 O 0.75387(8) 0.91566(18) 0.44407(5)
O8 O 0.64818(8) 1.05081(18) 0.47940(5)
O9 O 0.84114(10) 0.36022(19) 0.02539(6)
H1 H 0.8568 0.3595 -0.0075
H2 H 0.8486(16) 0.267(2) 0.0432(7)
O10 O 1.05238(8) 1.30050(17) 0.54744(5)
H3 H 1.0892 1.2551 0.5295
H4 H 1.0720(11) 1.342(3) 0.5790(6)
O11 O 0.49260(8) 0.77184(17) 0.49218(6)
H5 H 0.5374 0.8144 0.5037
H6 H 0.4506(6) 0.832(2) 0.5012(10)
N1 N 0.73852(10) 0.49616(19) 0.12088(6)
N2 N 0.75411(10) 0.5342(2) 0.30037(6)
H7 H 0.8053 0.5475 0.3134
N3 N 0.58526(9) 0.51769(19) 0.43235(6)
C1 C 0.84835(10) 0.8887(2) 0.06664(7)
C2 C 0.80120(10) 0.9188(2) 0.11985(7)
C3 C 0.71388(10) 0.9201(2) 0.12136(7)
C4 C 0.65384(10) 0.8865(2) 0.07029(7)
C5 C 0.67807(11) 0.9611(2) 0.17240(7)
H8 H 0.6197 0.9658 0.1726
C6 C 0.72438(11) 0.9955(2) 0.22342(7)
C7 C 0.81333(11) 0.9878(2) 0.22212(7)
C8 C 0.84896(11) 0.9542(2) 0.17013(7)
H9 H 0.9072 0.9555 0.1690
C9 C 0.87218(10) 1.0093(2) 0.27337(7)
C10 C 0.87473(10) 1.1585(2) 0.30547(7)
H10 H 0.8413 1.2508 0.2937
C11 C 0.92699(10) 1.1717(2) 0.35522(7)
C12 C 0.97655(11) 1.0338(2) 0.37285(8)
H11 H 1.0087 1.0391 0.4072
C13 C 0.97808(11) 0.8882(2) 0.33919(8)
H12 H 1.0136 0.7981 0.3499
C14 C 0.92662(11) 0.8766(2) 0.28947(8)
H13 H 0.9285 0.7793 0.2667
C15 C 0.92942(10) 1.3353(2) 0.38944(7)
C16 C 0.67630(11) 1.0389(2) 0.27467(7)
C17 C 0.70104(11) 0.9913(2) 0.33072(7)
H14 H 0.7504 0.9292 0.3375
C18 C 0.65304(11) 1.0352(2) 0.37668(7)
C19 C 0.57711(11) 1.1212(3) 0.36705(7)
H15 H 0.5441 1.1474 0.3975
C20 C 0.55112(11) 1.1675(3) 0.31168(8)
H16 H 0.5004 1.2247 0.3049
C21 C 0.60027(11) 1.1290(2) 0.26634(7)
H17 H 0.5826 1.1635 0.2295
C22 C 0.68662(12) 0.9965(2) 0.43614(7)
C23 C 0.81115(12) 0.4971(2) 0.15258(8)
H18 H 0.8608 0.4899 0.1335
C24 C 0.81720(12) 0.5080(2) 0.21105(8)
H19 H 0.8698 0.5080 0.2305
C25 C 0.74416(11) 0.5193(2) 0.24182(8)
C26 C 0.66799(12) 0.5079(2) 0.20913(8)
H20 H 0.6173 0.5071 0.2271
C27 C 0.66839(12) 0.4980(2) 0.15050(8)
H21 H 0.6168 0.4922 0.1299
C28 C 0.69478(11) 0.5315(2) 0.34225(8)
C29 C 0.61445(11) 0.6015(2) 0.33655(8)
H22 H 0.5957 0.6542 0.3025
C30 C 0.56308(11) 0.5916(2) 0.38196(7)
H23 H 0.5096 0.6393 0.3774
C31 C 0.66360(11) 0.4556(2) 0.43811(8)
H24 H 0.6812 0.4067 0.4730
C32 C 0.71933(12) 0.4601(3) 0.39540(8)
H25 H 0.7732 0.4159 0.4018
Co1B Co 0.249952(14) 0.43733(3) 0.965719(9)
O1B O 0.15610(8) 0.25526(16) 0.95791(5)
O2B O 0.10673(8) -0.01043(15) 0.94839(6)
O3B O 0.33856(8) 0.24412(18) 0.96014(5)
O4B O 0.40351(8) 0.00543(16) 0.93746(5)
O5B O 0.05290(8) -0.31905(17) 0.55729(5)
O6B O 0.08583(8) -0.47310(17) 0.63616(6)
O7B O 0.24613(8) 0.08434(18) 0.55593(5)
O8B O 0.35182(8) -0.05081(18) 0.52060(5)
O9B O 0.15886(10) 0.63978(19) 0.97461(6)
H1B H 0.1432 0.6405 1.0075
H2B H 0.1514(16) 0.733(2) 0.9568(7)
O11B O 0.50740(8) 0.22816(17) 0.50782(6)
H5B H 0.4626 0.1856 0.4963
H6B H 0.5494(6) 0.168(2) 0.4988(10)
N1B N 0.26148(10) 0.50384(19) 0.87912(6)
N2B N 0.24589(10) 0.4658(2) 0.69963(6)
H7B H 0.1947 0.4525 0.6866
N3B N 0.41474(9) 0.48231(19) 0.56765(6)
C1B C 0.15165(10) 0.1113(2) 0.93336(7)
C2B C 0.19880(10) 0.0812(2) 0.88015(7)
C3B C 0.28612(10) 0.0799(2) 0.87864(7)
C4B C 0.34616(10) 0.1135(2) 0.92971(7)
C5B C 0.32193(11) 0.0389(2) 0.82760(7)
H8B H 0.3803 0.0342 0.8274
C6B C 0.27562(11) 0.0045(2) 0.77658(7)
C7B C 0.18667(11) 0.0122(2) 0.77788(7)
C8B C 0.15104(11) 0.0458(2) 0.82987(7)
H9B H 0.0928 0.0445 0.8310
C9B C 0.12782(10) -0.0093(2) 0.72663(7)
C10B C 0.12527(10) -0.1585(2) 0.69453(7)
H10B H 0.1587 -0.2508 0.7063
C11B C 0.07301(10) -0.1717(2) 0.64478(7)
C12B C 0.02345(11) -0.0338(2) 0.62715(8)
H11B H -0.0087 -0.0391 0.5928
C13B C 0.02192(11) 0.1118(2) 0.66081(8)
H12B H -0.0136 0.2019 0.6501
C14B C 0.07338(11) 0.1234(2) 0.71053(8)
H13B H 0.0715 0.2207 0.7333
C15B C 0.07058(10) -0.3353(2) 0.61056(7)
C16B C 0.32370(11) -0.0389(2) 0.72533(7)
C17B C 0.29896(11) 0.0087(2) 0.66928(7)
H14B H 0.2496 0.0708 0.6625
C18B C 0.34696(11) -0.0352(2) 0.62332(7)
C19B C 0.42289(11) -0.1212(3) 0.63295(7)
H15B H 0.4559 -0.1474 0.6025
C20B C 0.44888(11) -0.1675(3) 0.68832(8)
H16B H 0.4996 -0.2247 0.6951
C21B C 0.39973(11) -0.1290(2) 0.73366(7)
H17B H 0.4174 -0.1635 0.7705
C22B C 0.31338(12) 0.0035(2) 0.56386(7)
C23B C 0.18885(12) 0.5029(2) 0.84742(8)
H18B H 0.1392 0.5101 0.8665
C24B C 0.18280(12) 0.4920(2) 0.78895(8)
H19B H 0.1302 0.4920 0.7695
C25B C 0.25584(11) 0.4807(2) 0.75818(8)
C26B C 0.33201(12) 0.4921(2) 0.79087(8)
H20B H 0.3827 0.4929 0.7729
C27B C 0.33161(12) 0.5020(2) 0.84950(8)
H21B H 0.3832 0.5078 0.8701
C28B C 0.30522(11) 0.4685(2) 0.65775(8)
C29B C 0.38555(11) 0.3985(2) 0.66345(8)
H22B H 0.4043 0.3458 0.6975
C30B C 0.43692(11) 0.4084(2) 0.61804(7)
H23B H 0.4904 0.3607 0.6226
C31B C 0.33640(11) 0.5444(2) 0.56189(8)
H24B H 0.3188 0.5933 0.5270
C32B C 0.28067(12) 0.5399(3) 0.60460(8)
H25B H 0.2268 0.5841 0.5982
O10B O 0.94762(8) 1.69950(17) 0.45256(5)
H3B H 0.9108 1.7449 0.4705
H4B H 0.9280(11) 1.658(3) 0.4210(6)
Co1A Co 0.249952(14) 0.06267(3) 0.465719(9)
Co1C Co 0.750048(14) 0.93733(3) 0.534281(9)
Co2_2 Co 0.0000 -0.5000 0.5000
Co2A Co 0.0000 0.0000 1.0000
Co2A_2 Co 1.0000 1.0000 0.0000
Co3A Co 0.5000 0.0000 1.0000
Co3A_2 Co 0.5000 1.0000 0.0000
O2A O 1.10673(8) 1.51043(15) 0.44839(6)
O2C O 0.89327(8) 1.48957(15) 0.55161(6)
O4A O 0.40351(8) 0.49457(16) 0.43746(5)
O4C O 0.59649(8) 0.50543(16) 0.56254(5)
O5B_2 O 1.05290(8) 1.68095(17) 0.55729(5)
O7A O 0.24613(8) 0.41566(18) 1.05593(5)
O7C O 0.75387(8) 0.58434(18) -0.05593(5)
O8A O 0.35182(8) 0.55081(18) 1.02060(5)
O8C O 0.64818(8) 0.44919(18) -0.02060(5)
loop_
_geom_bond_atom_site_label_1
_geom_bond_atom_site_label_2
_geom_bond_site_symmetry_1
_geom_bond_site_symmetry_2
Co1 O1 1_555 1_555
Co2 O5 1_555 1_555
Co3 O11 1_555 1_555
O1 C1 1_555 1_555
O2 C1 1_555 1_555
O3 Co1 1_555 1_555
O4 C4 1_555 1_555
O5 C15 1_555 1_555
O6 C15 1_555 1_555
O7 C22 1_555 1_555
O8 C22 1_555 1_555
O9 Co1 1_555 1_555
H1 O9 1_555 1_555
H2 O9 1_555 1_555
O10 Co2 1_555 1_555
H3 O10 1_555 1_555
H4 O10 1_555 1_555
O11 H5 1_555 1_555
H6 O11 1_555 1_555
N1 Co1 1_555 1_555
N2 H7 1_555 1_555
N3 Co3 1_555 1_555
C1 C2 1_555 1_555
C2 C3 1_555 1_555
C3 C4 1_555 1_555
C4 O3 1_555 1_555
C5 C3 1_555 1_555
H8 C5 1_555 1_555
C6 C5 1_555 1_555
C7 C6 1_555 1_555
C8 C2 1_555 1_555
H9 C8 1_555 1_555
C9 C7 1_555 1_555
C10 C9 1_555 1_555
H10 C10 1_555 1_555
C11 C10 1_555 1_555
C12 C11 1_555 1_555
H11 C12 1_555 1_555
C13 C12 1_555 1_555
H12 C13 1_555 1_555
C14 C9 1_555 1_555
H13 C14 1_555 1_555
C15 C11 1_555 1_555
C16 C6 1_555 1_555
C17 C16 1_555 1_555
H14 C17 1_555 1_555
C18 C17 1_555 1_555
C19 C18 1_555 1_555
H15 C19 1_555 1_555
C20 C19 1_555 1_555
H16 C20 1_555 1_555
C21 C16 1_555 1_555
H17 C21 1_555 1_555
C22 C18 1_555 1_555
C23 N1 1_555 1_555
H18 C23 1_555 1_555
C24 C23 1_555 1_555
H19 C24 1_555 1_555
C25 N2 1_555 1_555
C26 C25 1_555 1_555
H20 C26 1_555 1_555
C27 N1 1_555 1_555
H21 C27 1_555 1_555
C28 N2 1_555 1_555
C29 C28 1_555 1_555
H22 C29 1_555 1_555
C30 N3 1_555 1_555
H23 C30 1_555 1_555
C31 N3 1_555 1_555
H24 C31 1_555 1_555
C32 C28 1_555 1_555
H25 C32 1_555 1_555
Co1B O1B 1_555 1_555
O1B C1B 1_555 1_555
O2B C1B 1_555 1_555
O3B Co1B 1_555 1_555
O4B C4B 1_555 1_555
O5B C15B 1_555 1_555
O6B C15B 1_555 1_555
O7B C22B 1_555 1_555
O8B C22B 1_555 1_555
O9B Co1B 1_555 1_555
H1B O9B 1_555 1_555
H2B O9B 1_555 1_555
O11B Co3 1_555 1_555
H5B O11B 1_555 1_555
H6B O11B 1_555 1_555
N1B Co1B 1_555 1_555
N2B H7B 1_555 1_555
N3B Co3 1_555 1_555
C1B C2B 1_555 1_555
C2B C3B 1_555 1_555
C3B C4B 1_555 1_555
C4B O3B 1_555 1_555
C5B C3B 1_555 1_555
H8B C5B 1_555 1_555
C6B C5B 1_555 1_555
C7B C6B 1_555 1_555
C8B C2B 1_555 1_555
H9B C8B 1_555 1_555
C9B C7B 1_555 1_555
C10B C9B 1_555 1_555
H10B C10B 1_555 1_555
C11B C10B 1_555 1_555
C12B C11B 1_555 1_555
H11B C12B 1_555 1_555
C13B C12B 1_555 1_555
H12B C13B 1_555 1_555
C14B C9B 1_555 1_555
H13B C14B 1_555 1_555
C15B C11B 1_555 1_555
C16B C6B 1_555 1_555
C17B C16B 1_555 1_555
H14B C17B 1_555 1_555
C18B C17B 1_555 1_555
C19B C18B 1_555 1_555
H15B C19B 1_555 1_555
C20B C19B 1_555 1_555
H16B C20B 1_555 1_555
C21B C16B 1_555 1_555
H17B C21B 1_555 1_555
C22B C18B 1_555 1_555
C23B N1B 1_555 1_555
H18B C23B 1_555 1_555
C24B C23B 1_555 1_555
H19B C24B 1_555 1_555
C25B N2B 1_555 1_555
C26B C25B 1_555 1_555
H20B C26B 1_555 1_555
C27B N1B 1_555 1_555
H21B C27B 1_555 1_555
C28B N2B 1_555 1_555
C29B C28B 1_555 1_555
H22B C29B 1_555 1_555
C30B N3B 1_555 1_555
H23B C30B 1_555 1_555
C31B N3B 1_555 1_555
H24B C31B 1_555 1_555
C32B C28B 1_555 1_555
H25B C32B 1_555 1_555
O10B Co2 1_555 1_555
H3B O10B 1_555 1_555
H4B O10B 1_555 1_555
Co1A O7B 1_555 1_555
Co1C O7 1_555 1_555
Co2_2 O5B 1_555 1_555
Co2A O2B 1_555 1_555
Co2A_2 O2 1_555 1_555
Co3A O4B 1_555 1_555
Co3A_2 O4 1_555 1_555
O2A Co2 1_555 1_555
O2C Co2 1_555 1_555
O4A Co3 1_555 1_555
O4C Co3 1_555 1_555
O5B_2 Co2 1_555 1_555
O7A Co1B 1_555 1_555
O7C Co1 1_555 1_555
O8A Co1B 1_555 1_555
O8C Co1 1_555 1_555
O8 Co1C 1_555 1_555
C7 C8 1_555 1_555
C13 C14 1_555 1_555
C20 C21 1_555 1_555
C24 C25 1_555 1_555
C26 C27 1_555 1_555
C29 C30 1_555 1_555
C31 C32 1_555 1_555
O8B Co1A 1_555 1_555
C7B C8B 1_555 1_555
C13B C14B 1_555 1_555
C20B C21B 1_555 1_555
C24B C25B 1_555 1_555
C26B C27B 1_555 1_555
C29B C30B 1_555 1_555
C31B C32B 1_555 1_555

#END
