
#######################################################################
#
#                 Cambridge Crystallographic Data Centre
#                                CCDC 
#
#######################################################################
#
# If this CIF has been generated from an entry in the Cambridge 
# Structural Database, then it will include bibliographic, chemical, 
# crystal, experimental, refinement or atomic coordinate data resulting 
# from the CCDC's data processing and validation procedures.
#
#######################################################################

data_DUGPUR
_symmetry_cell_setting           triclinic
_symmetry_space_group_name_H-M   'P -1'
_symmetry_Int_Tables_number      2
_space_group_name_Hall           '-P 1'
loop_
_symmetry_equiv_pos_site_id
_symmetry_equiv_pos_as_xyz
1 x,y,z
2 -x,-y,-z
_cell_length_a                   6.2659(2)
_cell_length_b                   9.8383(2)
_cell_length_c                   10.4758(2)
_cell_angle_alpha                99.7269(15)
_cell_angle_beta                 103.6343(14)
_cell_angle_gamma                107.8791(14)
_cell_volume                     576.593
loop_
_atom_site_label
_atom_site_type_symbol
_atom_site_fract_x
_atom_site_fract_y
_atom_site_fract_z
La1 La -0.236800(18) 0.477658(11) 0.157853(10)
P1 P 0.40165(8) 0.62413(5) 0.23185(5)
P2 P 0.17603(9) 0.80940(5) 0.09752(5)
O1 O 0.1855(2) 0.54987(15) 0.27249(14)
O2 O -0.0510(2) 0.72194(15) 0.12023(14)
O3 O 0.6294(2) 0.62389(15) 0.32471(13)
O4 O 0.3853(2) 0.55039(15) 0.08640(13)
O5 O 0.1973(3) 0.97368(15) 0.11039(15)
O6 O 0.1966(3) 0.75044(16) -0.04028(14)
O7 O -0.6196(3) 0.26677(17) 0.10490(17)
O9 O -0.2367(4) 0.3614(2) 0.3636(2)
C1 C 0.4235(3) 0.8131(2) 0.23153(19)
C2 C 0.4583(3) 0.9086(2) 0.37037(19)
C3 C 0.2734(4) 0.9057(2) 0.4236(2)
C4 C 0.6837(4) 1.0037(2) 0.4487(2)
H1 H 0.558(6) 0.853(4) 0.203(3)
H2 H 0.118(6) 0.844(4) 0.374(3)
H3 H 0.807(6) 1.008(4) 0.414(3)
H4 H 0.113(5) 1.003(3) 0.148(3)
H7 H -0.721(4) 0.267(4) 0.039(2)
H8 H -0.635(6) 0.1797(12) 0.097(3)
H11 H -0.363(3) 0.339(4) 0.380(3)
H12 H -0.112(3) 0.379(4) 0.422(3)
La1A La 1.236800(18) 1.522342(11) 0.842147(10)
La1_2 La 0.763200(18) 0.477658(11) 0.157853(10)
La1A_2 La 0.236800(18) 0.522342(11) -0.157853(10)
La1A_3 La 0.236800(18) 1.522342(11) 0.842147(10)
La1_3 La 0.763200(18) 1.477658(11) 1.157853(10)
P1A P 0.59835(8) 1.37587(5) 0.76815(5)
P2A P 0.82397(9) 1.19060(5) 0.90248(5)
O1A O 0.8145(2) 1.45013(15) 0.72751(14)
O2A O 1.0510(2) 1.27806(15) 0.87977(14)
O3A O 0.3706(2) 1.37611(15) 0.67529(13)
O3_2 O -0.3706(2) 0.62389(15) 0.32471(13)
O3A_2 O 1.3706(2) 1.37611(15) 0.67529(13)
O4A O 0.6147(2) 1.44961(15) 0.91360(13)
O4_2 O -0.6147(2) 0.55039(15) 0.08640(13)
O4A_2 O -0.3853(2) 0.44961(15) -0.08640(13)
O4A_3 O 1.6147(2) 1.44961(15) 0.91360(13)
O4_3 O 1.3853(2) 1.55039(15) 1.08640(13)
O5A O 0.8027(3) 1.02632(15) 0.88961(15)
O6A O 0.8034(3) 1.24956(16) 1.04028(14)
O6A_2 O -0.1966(3) 0.24956(16) 0.04028(14)
O6_2 O 1.1966(3) 1.75044(16) 0.95972(14)
O7A O 1.6196(3) 1.73323(17) 0.89510(17)
O9A O 1.2367(4) 1.6386(2) 0.6364(2)
C1A C 0.5765(3) 1.1869(2) 0.76847(19)
C2A C 0.5417(3) 1.0914(2) 0.62963(19)
C3A C 0.7266(4) 1.0943(2) 0.5764(2)
C4A C 0.3163(4) 0.9963(2) 0.5513(2)
H1A H 0.442(6) 1.147(4) 0.797(3)
H2A H 0.882(6) 1.156(4) 0.626(3)
H3A H 0.193(6) 0.992(4) 0.586(3)
H4A H 0.887(5) 0.997(3) 0.852(3)
H7A H 1.721(4) 1.733(4) 0.961(2)
H8A H 1.635(6) 1.8203(12) 0.903(3)
H11A H 1.363(3) 1.661(4) 0.620(3)
H12A H 1.112(3) 1.621(4) 0.578(3)
O8 O 0.0389(3) 0.90816(19) -0.22026(16)
H5 H 0.101(5) 0.870(3) -0.166(3)
H6 H -0.059(4) 0.838(2) -0.282(2)
O10 O 0.6851(4) 0.6683(2) 0.59384(17)
H9 H 0.693(6) 0.659(3) 0.5158(13)
H10 H 0.722(6) 0.601(2) 0.618(3)
loop_
_geom_bond_atom_site_label_1
_geom_bond_atom_site_label_2
_geom_bond_site_symmetry_1
_geom_bond_site_symmetry_2
La1 O1 1_555 1_555
P1 O1 1_555 1_555
P2 O2 1_555 1_555
O2 La1 1_555 1_555
O3 P1 1_555 1_555
O4 P1 1_555 1_555
O5 P2 1_555 1_555
O6 P2 1_555 1_555
O7 La1 1_555 1_555
O8 H5 1_555 1_555
O9 La1 1_555 1_555
O10 H9 1_555 1_555
C1 P1 1_555 1_555
C2 C1 1_555 1_555
C3 C2 1_555 1_555
C4 C2 1_555 1_555
H1 C1 1_555 1_555
H2 C3 1_555 1_555
H3 C4 1_555 1_555
H4 O5 1_555 1_555
H6 O8 1_555 1_555
H7 O7 1_555 1_555
H8 O7 1_555 1_555
H10 O10 1_555 1_555
H11 O9 1_555 1_555
H12 O9 1_555 1_555
La1A O1A 1_555 1_555
La1_2 O3 1_555 1_555
La1A_2 O4 1_555 1_555
La1A_3 O3A 1_555 1_555
La1_3 O4A 1_555 1_555
P1A O1A 1_555 1_555
P2A O2A 1_555 1_555
O2A La1A 1_555 1_555
O3A P1A 1_555 1_555
O3_2 La1 1_555 1_555
O3A_2 La1A 1_555 1_555
O4A La1A_3 1_555 1_555
O4_2 La1 1_555 1_555
O4A_2 La1 1_555 1_555
O4A_3 La1A 1_555 1_555
O4_3 La1A 1_555 1_555
O5A P2A 1_555 1_555
O6A La1_3 1_555 1_555
O6A_2 La1 1_555 1_555
O6_2 La1A 1_555 1_555
O7A La1A 1_555 1_555
O9A La1A 1_555 1_555
C1A P1A 1_555 1_555
C2A C1A 1_555 1_555
C3A C4 1_555 1_555
C4A C3 1_555 1_555
H1A C1A 1_555 1_555
H2A C3A 1_555 1_555
H3A C4A 1_555 1_555
H4A O5A 1_555 1_555
H7A O7A 1_555 1_555
H8A O7A 1_555 1_555
H11A O9A 1_555 1_555
H12A O9A 1_555 1_555
P2 C1 1_555 1_555
O4 La1_2 1_555 1_555
O6 La1A_2 1_555 1_555
P1A O4A 1_555 1_555
P2A O6A 1_555 1_555
P2A C1A 1_555 1_555
C2A C3A 1_555 1_555
C2A C4A 1_555 1_555

#END
