
#######################################################################
#
#                 Cambridge Crystallographic Data Centre
#                                CCDC 
#
#######################################################################
#
# If this CIF has been generated from an entry in the Cambridge 
# Structural Database, then it will include bibliographic, chemical, 
# crystal, experimental, refinement or atomic coordinate data resulting 
# from the CCDC's data processing and validation procedures.
#
#######################################################################

data_DUGQAY
_symmetry_cell_setting           monoclinic
_symmetry_space_group_name_H-M   'P 21/n'
_symmetry_Int_Tables_number      14
_space_group_name_Hall           '-P 2yn'
loop_
_symmetry_equiv_pos_site_id
_symmetry_equiv_pos_as_xyz
1 x,y,z
2 1/2-x,1/2+y,1/2-z
3 -x,-y,-z
4 1/2+x,1/2-y,1/2+z
_cell_length_a                   8.975
_cell_length_b                   21.691
_cell_length_c                   10.186
_cell_angle_alpha                90
_cell_angle_beta                 105.56
_cell_angle_gamma                90
_cell_volume                     1910.3
loop_
_atom_site_label
_atom_site_type_symbol
_atom_site_fract_x
_atom_site_fract_y
_atom_site_fract_z
La1 La 0.514650(14) 0.019690(6) -0.248270(12)
P1 P 0.28486(6) -0.08736(3) -0.07764(6)
P2 P 0.00067(6) -0.37748(3) 0.03698(6)
P3 P 0.28807(6) -0.44802(3) 0.07120(6)
P4 P 0.61800(6) -0.11604(3) -0.00892(6)
Na1 Na 0.87890(11) -0.04136(5) 0.25828(10)
O1 O 0.7172(2) -0.17529(8) -0.01885(18)
O2 O 0.65103(18) -0.06529(7) -0.09793(16)
O3 O 0.63396(18) -0.09794(7) 0.13709(16)
O4 O 0.1219(2) -0.11867(9) -0.14520(19)
O5 O 0.30902(18) -0.03280(7) -0.15954(16)
O6 O 0.28873(17) -0.07570(8) 0.06915(16)
O7 O -0.04625(18) -0.38239(8) -0.11641(16)
O8 O -0.0598(2) -0.31521(9) 0.08368(19)
O9 O -0.05756(18) -0.42826(8) 0.10944(17)
O10 O 0.47138(19) -0.44136(8) 0.12303(18)
O11 O 0.24343(18) -0.45921(7) -0.07989(16)
O12 O 0.24204(19) -0.49647(8) 0.15797(16)
O13 O 1.0834(2) -0.09132(10) 0.4255(2)
O16 O 0.9729(3) -0.05652(13) 0.0808(2)
C1 C 0.4258(3) -0.14591(11) -0.0866(2)
C2 C 0.3870(2) -0.20784(10) -0.0343(2)
C3 C 0.4151(3) -0.22080(11) 0.1039(2)
C4 C 0.3636(3) -0.27579(11) 0.1463(2)
C5 C 0.2819(2) -0.31876(10) 0.0530(2)
C6 C 0.2614(3) -0.30715(11) -0.0858(2)
C7 C 0.3128(3) -0.25238(11) -0.1281(2)
C8 C 0.2109(2) -0.37428(11) 0.1036(2)
H1 H 0.462(3) -0.1917(13) 0.168(3)
H2 H 0.382(3) -0.2835(13) 0.239(3)
H3 H 0.422(3) -0.1495(13) -0.173(3)
H4 H 0.231(3) -0.3725(13) 0.198(3)
H5 H 0.211(3) -0.3349(12) -0.152(3)
H6 H 0.295(3) -0.2440(12) -0.221(3)
H7 H 0.805(4) -0.1739(15) 0.010(3)
H8 H 0.085(5) -0.1036(19) -0.204(4)
H9 H -0.034(4) -0.2882(16) 0.063(3)
H10 H 0.504(3) -0.4299(14) 0.071(3)
H14 H 1.059(5) -0.0603(18) 0.077(4)
H15 H 0.912(5) -0.0495(18) 0.008(4)
H16 H 1.105(5) -0.129(2) 0.407(5)
H17 H 1.162(5) -0.073(2) 0.419(4)
La1B La 0.485350(14) -0.019690(6) 0.248270(12)
La1A La -0.014650(14) -0.480310(6) -0.251730(12)
La1C La 0.014650(14) -0.519690(6) 0.251730(12)
Na1A Na 0.62110(11) -0.54136(5) 0.24172(10)
Na1B Na 0.12110(11) 0.04136(5) -0.25828(10)
Na1C Na 0.37890(11) -0.45864(5) -0.24172(10)
O3B O 0.36604(18) 0.09794(7) -0.13709(16)
O5B O 0.69098(18) 0.03280(7) 0.15954(16)
O6B O 0.71127(17) 0.07570(8) -0.06915(16)
O7A O 0.54625(18) 0.11761(8) -0.38359(16)
O9C O 0.44244(18) -0.07174(8) -0.39056(17)
O10A O 1.02862(19) 0.05864(8) 0.37697(18)
O11A O 0.25657(18) 0.04079(7) -0.42011(16)
O11C O 0.74343(18) -0.04079(7) 0.42011(16)
O12C O 0.74204(19) -0.00353(8) -0.34203(16)
H10A H 0.996(3) 0.0701(14) 0.429(3)
O14 O 0.5187(2) -0.30026(9) -0.4535(3)
H11 H 0.561(5) -0.314(2) -0.500(5)
H12 H 0.574(4) -0.3070(17) -0.370(4)
O15 O 0.1711(3) -0.19746(12) -0.6778(2)
H13 H 0.240(4) -0.1882(17) -0.662(4)
loop_
_geom_bond_atom_site_label_1
_geom_bond_atom_site_label_2
_geom_bond_site_symmetry_1
_geom_bond_site_symmetry_2
La1 O2 1_555 1_555
P1 O4 1_555 1_555
P2 O7 1_555 1_555
P3 O10 1_555 1_555
P4 O1 1_555 1_555
Na1 O3 1_555 1_555
O1 H7 1_555 1_555
O2 P4 1_555 1_555
O3 P4 1_555 1_555
O4 H8 1_555 1_555
O5 La1 1_555 1_555
O6 P1 1_555 1_555
O7 La1A 1_555 1_555
O8 P2 1_555 1_555
O9 P2 1_555 1_555
O10 H10 1_555 1_555
O11 P3 1_555 1_555
O12 P3 1_555 1_555
O13 Na1 1_555 1_555
O14 H11 1_555 1_555
O15 H13 1_555 1_555
O16 Na1 1_555 1_555
C1 P1 1_555 1_555
C2 C1 1_555 1_555
C3 C2 1_555 1_555
C4 C3 1_555 1_555
C5 C4 1_555 1_555
C6 C5 1_555 1_555
C7 C2 1_555 1_555
C8 P2 1_555 1_555
H1 C3 1_555 1_555
H2 C4 1_555 1_555
H3 C1 1_555 1_555
H4 C8 1_555 1_555
H5 C6 1_555 1_555
H6 C7 1_555 1_555
H9 O8 1_555 1_555
H12 O14 1_555 1_555
H14 O16 1_555 1_555
H15 O16 1_555 1_555
H16 O13 1_555 1_555
H17 O13 1_555 1_555
La1B O3 1_555 1_555
La1A O11 1_555 1_555
La1C O9 1_555 1_555
Na1A O10 1_555 1_555
Na1B O5 1_555 1_555
Na1C O11 1_555 1_555
O3B La1 1_555 1_555
O5B Na1 1_555 1_555
O6B La1 1_555 1_555
O7A La1 1_555 1_555
O9C La1 1_555 1_555
O10A Na1 1_555 1_555
O11A La1 1_555 1_555
O11C Na1 1_555 1_555
O12C La1 1_555 1_555
H10A O10A 1_555 1_555
P1 O5 1_555 1_555
P3 C8 1_555 1_555
P4 C1 1_555 1_555
O6 La1B 1_555 1_555
O12 La1C 1_555 1_555
C5 C8 1_555 1_555
C6 C7 1_555 1_555
La1B O5B 1_555 1_555
La1B O11C 1_555 1_555
Na1B O3B 1_555 1_555
Na1B O11A 1_555 1_555

#END
