
#######################################################################
#
#                 Cambridge Crystallographic Data Centre
#                                CCDC 
#
#######################################################################
#
# If this CIF has been generated from an entry in the Cambridge 
# Structural Database, then it will include bibliographic, chemical, 
# crystal, experimental, refinement or atomic coordinate data resulting 
# from the CCDC's data processing and validation procedures.
#
#######################################################################

data_DUGQEC
_symmetry_cell_setting           triclinic
_symmetry_space_group_name_H-M   'P -1'
_symmetry_Int_Tables_number      2
_space_group_name_Hall           '-P 1'
loop_
_symmetry_equiv_pos_site_id
_symmetry_equiv_pos_as_xyz
1 x,y,z
2 -x,-y,-z
_cell_length_a                   5.673
_cell_length_b                   12.193
_cell_length_c                   14.474
_cell_angle_alpha                73.03
_cell_angle_beta                 85.47
_cell_angle_gamma                76.74
_cell_volume                     931.978
loop_
_atom_site_label
_atom_site_type_symbol
_atom_site_fract_x
_atom_site_fract_y
_atom_site_fract_z
Nd1 Nd 0.09914(3) 0.949427(14) 0.292935(12)
P1 P -0.32911(15) 0.73319(7) 0.33803(6)
P2 P -0.47675(15) 0.79644(7) 0.13108(6)
P3 P -0.70628(15) 0.22689(7) 0.16077(6)
P4 P -0.50294(15) 0.11804(7) 0.35949(6)
O1 O -0.2133(5) 0.6193(2) 0.41900(18)
O2 O -0.1693(4) 0.82027(18) 0.31566(16)
O3 O -0.5881(4) 0.77481(18) 0.36731(15)
O4 O -0.6729(4) 0.8794(2) 0.16582(16)
O5 O -0.2796(4) 0.8576(2) 0.07007(16)
O6 O -0.5629(4) 0.7335(2) 0.06694(18)
O7 O -0.8725(6) 0.3436(3) 0.0996(2)
O8 O -0.4621(4) 0.20993(19) 0.10979(16)
O9 O -0.8345(4) 0.12823(19) 0.17898(16)
O10 O -0.6434(4) 0.02277(19) 0.37437(17)
O11 O -0.2453(4) 0.08732(19) 0.32802(17)
O12 O -0.5238(5) 0.1575(2) 0.45497(18)
O13 O -0.1344(5) 1.0137(2) 0.1284(2)
O14 O 0.0213(7) 0.8878(3) 0.4761(3)
C1 C -0.3272(6) 0.6797(3) 0.2329(2)
C2 C -0.4169(6) 0.5676(3) 0.2502(2)
C3 C -0.6357(6) 0.5506(3) 0.2966(2)
C4 C -0.7139(6) 0.4486(3) 0.3066(2)
C5 C -0.5769(6) 0.3597(3) 0.2698(2)
C6 C -0.3576(6) 0.3758(3) 0.2248(2)
C7 C -0.2802(6) 0.4779(3) 0.2155(3)
C8 C -0.6704(6) 0.2503(3) 0.2769(2)
H1 H -0.162(5) 0.667(2) 0.214(2)
H2 H -0.728(6) 0.607(3) 0.318(2)
H3 H -0.857(6) 0.436(3) 0.342(2)
H4 H -0.267(6) 0.319(3) 0.205(2)
H5 H -0.130(6) 0.490(3) 0.182(2)
H6 H -0.835(6) 0.259(3) 0.302(2)
H7 H -0.121(8) 0.625(4) 0.444(3)
H8 H -0.205(10) 0.923(5) 0.086(4)
H9 H -0.561(10) 0.754(5) 0.001(4)
H10 H -0.845(14) 0.369(6) 0.094(6)
H11 H -0.433(8) 0.122(4) 0.491(3)
H12 H -0.028(8) 1.028(4) 0.091(3)
H13 H -0.228(7) 1.066(4) 0.134(3)
H14 H -0.043(9) 0.867(5) 0.489(4)
Nd1_2 Nd -0.90086(3) 0.949427(14) 0.292935(12)
Nd1_3 Nd -0.90086(3) -0.050573(14) 0.292935(12)
Nd1_4 Nd 0.09914(3) -0.050573(14) 0.292935(12)
O3_2 O 0.4119(4) 0.77481(18) 0.36731(15)
O4_2 O 0.3271(4) 0.8794(2) 0.16582(16)
O9_2 O 0.1655(4) 1.12823(19) 0.17898(16)
O10_2 O 0.3566(4) 1.02277(19) 0.37437(17)
O11_2 O -0.2453(4) 1.08732(19) 0.32802(17)
O15 O 0.1613(6) 0.6346(3) 0.5101(3)
H15 H 0.220(9) 0.600(4) 0.525(4)
O16 O 0.2254(8) 1.5495(3) 0.0467(3)
H16 H 0.109(6) 1.611(3) 0.041(2)
loop_
_geom_bond_atom_site_label_1
_geom_bond_atom_site_label_2
_geom_bond_site_symmetry_1
_geom_bond_site_symmetry_2
Nd1 O2 1_555 1_555
P1 O1 1_555 1_555
P2 O4 1_555 1_555
P3 O7 1_555 1_555
P4 O10 1_555 1_555
O1 H7 1_555 1_555
O2 P1 1_555 1_555
O3 P1 1_555 1_555
O4 Nd1_2 1_555 1_555
O5 P2 1_555 1_555
O6 P2 1_555 1_555
O7 H10 1_555 1_555
O8 P3 1_555 1_555
O9 P3 1_555 1_555
O10 Nd1_3 1_555 1_555
O11 P4 1_555 1_555
O12 P4 1_555 1_555
O13 Nd1 1_555 1_555
O14 Nd1 1_555 1_555
O15 H15 1_555 1_555
O16 H16 1_555 1_555
C1 P1 1_555 1_555
C2 C1 1_555 1_555
C3 C2 1_555 1_555
C4 C3 1_555 1_555
C5 C4 1_555 1_555
C6 C5 1_555 1_555
C7 C2 1_555 1_555
C8 P3 1_555 1_555
H1 C1 1_555 1_555
H2 C3 1_555 1_555
H3 C4 1_555 1_555
H4 C6 1_555 1_555
H5 C7 1_555 1_555
H6 C8 1_555 1_555
H8 O5 1_555 1_555
H9 O6 1_555 1_555
H11 O12 1_555 1_555
H12 O13 1_555 1_555
H13 O13 1_555 1_555
H14 O14 1_555 1_555
Nd1_2 O3 1_555 1_555
Nd1_3 O9 1_555 1_555
Nd1_4 O11 1_555 1_555
O3_2 Nd1 1_555 1_555
O4_2 Nd1 1_555 1_555
O9_2 Nd1 1_555 1_555
O10_2 Nd1 1_555 1_555
O11_2 Nd1 1_555 1_555
P2 C1 1_555 1_555
P4 C8 1_555 1_555
C5 C8 1_555 1_555
C6 C7 1_555 1_555

#END
