
#######################################################################
#
#                 Cambridge Crystallographic Data Centre
#                                CCDC 
#
#######################################################################
#
# If this CIF has been generated from an entry in the Cambridge 
# Structural Database, then it will include bibliographic, chemical, 
# crystal, experimental, refinement or atomic coordinate data resulting 
# from the CCDC's data processing and validation procedures.
#
#######################################################################

data_DUGSAA
_symmetry_cell_setting           monoclinic
_symmetry_space_group_name_H-M   'P 21/m'
_symmetry_Int_Tables_number      11
_space_group_name_Hall           '-P 2yb'
loop_
_symmetry_equiv_pos_site_id
_symmetry_equiv_pos_as_xyz
1 x,y,z
2 -x,1/2+y,-z
3 -x,-y,-z
4 x,1/2-y,z
_cell_length_a                   6.513(3)
_cell_length_b                   5.753(2)
_cell_length_c                   9.023(4)
_cell_angle_alpha                90
_cell_angle_beta                 106.344(7)
_cell_angle_gamma                90
_cell_volume                     324.423
loop_
_atom_site_label
_atom_site_type_symbol
_atom_site_fract_x
_atom_site_fract_y
_atom_site_fract_z
Pu1 Pu 0.65206(12) 0.2500 0.28504(8)
P1 P 0.6737(8) 0.2500 -0.1189(6)
O1 O 0.695(3) 0.2500 0.055(2)
O2 O 0.353(3) 0.2500 0.406(4)
O3 O 0.572(4) 0.032(4) -0.190(2)
C1 C 0.940(4) 0.184(4) -0.138(3)
P2 P 0.9888(8) 0.2500 -0.3199(6)
O4 O 0.786(2) 0.2500 -0.451(2)
O5 O 1.110(4) 0.463(4) -0.3250(18)
Pu1A Pu 0.34794(12) -0.2500 -0.28504(8)
Pu1_2 Pu 0.65206(12) 0.2500 -0.71496(8)
Pu1A_2 Pu 1.34794(12) 0.7500 -0.28504(8)
Pu1A_3 Pu 0.34794(12) 0.7500 -0.28504(8)
Pu1A_4 Pu 1.34794(12) -0.2500 -0.28504(8)
O3C O 0.572(4) 0.468(4) -0.190(2)
O3A O 0.428(4) 0.532(4) 0.190(2)
O3B O 0.428(4) -0.032(4) 0.190(2)
C1C C 0.940(4) 0.316(4) -0.138(3)
O4_2 O 0.786(2) 0.2500 0.549(2)
O5C O 1.110(4) 0.037(4) -0.3250(18)
O5A O 0.890(4) -0.037(4) 0.3250(18)
O5B O 0.890(4) 0.537(4) 0.3250(18)
loop_
_geom_bond_atom_site_label_1
_geom_bond_atom_site_label_2
_geom_bond_site_symmetry_1
_geom_bond_site_symmetry_2
Pu1 O1 1_555 1_555
P1 O1 1_555 1_555
O2 Pu1 1_555 1_555
O3 P1 1_555 1_555
C1 P1 1_555 1_555
P2 C1 1_555 1_555
O4 P2 1_555 1_555
O5 P2 1_555 1_555
Pu1A O3 1_555 1_555
Pu1_2 O4 1_555 1_555
Pu1A_2 O5 1_555 1_555
Pu1A_3 O3C 1_555 1_555
Pu1A_4 O5C 1_555 1_555
O3C P1 1_555 1_555
O3A Pu1 1_555 1_555
O3B Pu1 1_555 1_555
C1C P1 1_555 1_555
O4_2 Pu1 1_555 1_555
O5C P2 1_555 1_555
O5A Pu1 1_555 1_555
O5B Pu1 1_555 1_555
C1 C1C 1_555 1_555
P2 C1C 1_555 1_555

#END
