
#######################################################################
#
#                 Cambridge Crystallographic Data Centre
#                                CCDC 
#
#######################################################################
#
# If this CIF has been generated from an entry in the Cambridge 
# Structural Database, then it will include bibliographic, chemical, 
# crystal, experimental, refinement or atomic coordinate data resulting 
# from the CCDC's data processing and validation procedures.
#
#######################################################################

data_DUGVOS
_symmetry_cell_setting           triclinic
_symmetry_space_group_name_H-M   'P -1'
_symmetry_Int_Tables_number      2
_space_group_name_Hall           '-P 1'
loop_
_symmetry_equiv_pos_site_id
_symmetry_equiv_pos_as_xyz
1 x,y,z
2 -x,-y,-z
_cell_length_a                   15.3856(9)
_cell_length_b                   19.1418(11)
_cell_length_c                   25.7169(15)
_cell_angle_alpha                89.9060(10)
_cell_angle_beta                 73.9590(10)
_cell_angle_gamma                78.1820(10)
_cell_volume                     7112.48
loop_
_atom_site_label
_atom_site_type_symbol
_atom_site_fract_x
_atom_site_fract_y
_atom_site_fract_z
Zn1 Zn -0.40099(4) 0.25559(3) 0.65694(2)
Cl1 Cl -0.46101(8) 0.26626(9) 0.74862(5)
Cl2 Cl -0.31473(10) 0.14265(7) 0.63608(5)
Cl3 Cl -0.31850(12) 0.33985(9) 0.63229(7)
Cl4 Cl -0.51724(13) 0.26802(13) 0.61650(8)
Zn2 Zn 0.40102(4) 0.24359(4) 1.00947(3)
Cl5 Cl 0.30439(12) 0.16855(9) 1.03740(7)
Cl6 Cl 0.45289(9) 0.23456(11) 0.91817(6)
Cl7 Cl 0.32320(14) 0.35635(9) 1.03503(8)
Cl8 Cl 0.52377(14) 0.21482(14) 1.04483(8)
N49 N -0.0037(6) 0.7345(3) 0.6768(3)
O35 O 0.0759(5) 0.7394(3) 0.6554(3)
O36 O -0.0474(6) 0.7735(4) 0.7132(3)
O37 O -0.0360(5) 0.6896(4) 0.6594(3)
N50 N -0.0015(9) 0.2299(6) 0.8238(3)
O38 O 0.0671(7) 0.2464(5) 0.8227(6)
O39 O -0.0281(8) 0.1870(6) 0.8527(5)
O40 O -0.0524(9) 0.2728(8) 0.8026(5)
O1 O 0.0778(3) 0.35719(17) 0.57590(12)
O2 O -0.0111(2) 0.50747(16) 0.61677(13)
O3 O 0.0122(2) 0.38955(16) 0.76011(12)
O4 O 0.1836(2) 0.44555(16) 0.60634(13)
O5 O -0.1108(2) 0.42589(16) 0.68818(14)
O6 O -0.0952(2) 0.92505(16) 0.84456(13)
O7 O 0.0165(3) 1.00164(18) 0.87841(14)
O8 O 0.0981(3) 0.85342(17) 0.89041(13)
O9 O 0.0242(2) 0.88538(16) 0.72981(12)
O10 O 0.2046(2) 0.94016(17) 0.81601(15)
Gd1 Gd 0.052378(15) 0.408044(10) 0.663695(8)
Gd2 Gd 0.068718(15) 0.903150(10) 0.810666(8)
C1 C 0.2324(3) 0.2797(2) 0.68939(15)
C2 C 0.3355(3) 0.2002(2) 0.72363(16)
H1 H 0.4029 0.1980 0.7108
C3 C 0.3020(3) 0.1586(2) 0.68348(16)
H2 H 0.3543 0.1329 0.6535
C4 C 0.2634(3) 0.1121(2) 0.76912(16)
C5 C 0.1957(3) 0.2052(2) 0.62474(16)
H3 H 0.1837 0.2499 0.6068
H4 H 0.2366 0.1689 0.5971
C6 C 0.2223(3) 0.0528(2) 0.69673(18)
H5 H 0.2277 0.0120 0.7196
H6 H 0.2623 0.0373 0.6601
C7 C 0.0253(3) 0.2280(2) 0.66525(15)
C8 C 0.1004(3) 0.10895(19) 0.64967(15)
H7 H 0.1330 0.0810 0.6149
C9 C -0.0039(3) 0.1140(2) 0.66454(15)
H8 H -0.0229 0.0963 0.6341
C10 C 0.0566(3) 0.0483(2) 0.72694(16)
C11 C -0.1375(3) 0.2236(2) 0.68067(17)
H9 H -0.1393 0.2714 0.6668
H10 H -0.1592 0.1954 0.6570
C12 C -0.1111(3) 0.0564(2) 0.73841(17)
H11 H -0.1028 0.0136 0.7589
H12 H -0.1423 0.0469 0.7116
C13 C -0.2370(3) 0.2925(2) 0.76382(18)
C14 C -0.2373(3) 0.1708(2) 0.76026(17)
H13 H -0.2714 0.1503 0.7388
C15 C -0.3017(3) 0.2054(2) 0.81507(17)
H14 H -0.3659 0.1995 0.8201
C16 C -0.1885(3) 0.1129(2) 0.83009(17)
C17 C -0.3599(3) 0.3361(2) 0.84909(18)
H15 H -0.3672 0.3804 0.8300
H16 H -0.4207 0.3235 0.8612
C18 C -0.3040(3) 0.1758(2) 0.91176(18)
H17 H -0.2801 0.1327 0.9283
H18 H -0.3708 0.1799 0.9187
C19 C -0.2871(3) 0.4037(2) 0.90091(19)
C20 C -0.3472(3) 0.3088(2) 0.94373(17)
H19 H -0.4136 0.3074 0.9575
C21 C -0.3153(3) 0.3499(2) 0.98490(18)
H20 H -0.3674 0.3713 1.0166
C22 C -0.2343(3) 0.2296(2) 0.97235(17)
C23 C -0.2328(3) 0.4545(2) 0.9710(2)
H21 H -0.2593 0.4642 1.0103
H22 H -0.2451 0.4995 0.9535
C24 C -0.1972(3) 0.3053(3) 1.03749(18)
H23 H -0.1875 0.2625 1.0580
H24 H -0.2331 0.3454 1.0633
C25 C -0.0696(3) 0.4700(2) 0.94624(15)
C26 C -0.0917(3) 0.3524(2) 0.95647(16)
H25 H -0.1073 0.3245 0.9292
C27 C 0.0121(3) 0.3520(2) 0.94171(16)
H26 H 0.0456 0.3249 0.9067
C28 C -0.0289(3) 0.2974(2) 1.02324(16)
C29 C 0.1005(3) 0.4514(2) 0.92278(18)
H27 H 0.0909 0.4968 0.9054
H28 H 0.1193 0.4598 0.9553
C30 C 0.1375(3) 0.3027(2) 0.98755(16)
H29 H 0.1483 0.3432 1.0063
H30 H 0.1489 0.2603 1.0081
C31 C 0.1858(3) 0.3956(2) 0.83129(16)
C32 C 0.2394(3) 0.3469(2) 0.90310(16)
H31 H 0.2756 0.3692 0.9221
C33 C 0.3006(3) 0.3071(2) 0.84955(16)
H32 H 0.3665 0.3092 0.8430
C34 C 0.2297(3) 0.2261(2) 0.90592(17)
C35 C 0.3019(3) 0.3330(2) 0.75123(16)
H33 H 0.3691 0.3262 0.7441
H34 H 0.2807 0.3764 0.7340
C36 C 0.3415(3) 0.1748(2) 0.81992(16)
H35 H 0.3427 0.1313 0.8401
H36 H 0.4051 0.1820 0.8074
C37 C 0.0503(3) 0.55052(19) 0.74983(16)
C38 C 0.1020(3) 0.6065(2) 0.81132(15)
H37 H 0.1350 0.5758 0.8339
C39 C -0.0031(3) 0.61508(19) 0.83294(15)
H38 H -0.0216 0.5974 0.8697
C40 C 0.0325(3) 0.7274(2) 0.82223(15)
C41 C -0.1163(3) 0.5595(2) 0.7981(2)
H39 H -0.1103 0.5166 0.7756
H40 H -0.1443 0.5501 0.8358
C42 C -0.1322(3) 0.7272(2) 0.86195(16)
H41 H -0.1546 0.7003 0.8936
H42 H -0.1312 0.7749 0.8751
C43 C -0.2015(3) 0.6168(2) 0.73581(19)
C44 C -0.2388(3) 0.6768(2) 0.82015(18)
H43 H -0.2712 0.6587 0.8546
C45 C -0.3068(3) 0.7124(2) 0.78914(18)
H44 H -0.3711 0.7091 0.8081
C46 C -0.2316(3) 0.7978(2) 0.81105(17)
C47 C -0.3183(3) 0.6814(2) 0.69428(19)
H45 H -0.3856 0.6915 0.7103
H46 H -0.3010 0.6369 0.6715
C48 C -0.3554(3) 0.8435(3) 0.76902(19)
H47 H -0.4179 0.8338 0.7777
H48 H -0.3594 0.8878 0.7893
C49 C -0.2336(3) 0.7264(3) 0.6100(2)
C50 C -0.3447(3) 0.8128(2) 0.66992(19)
H49 H -0.4118 0.8157 0.6763
C51 C -0.3034(3) 0.8482(2) 0.61790(19)
H50 H -0.3516 0.8696 0.6004
C52 C -0.2780(3) 0.9056(2) 0.6910(2)
C53 C -0.1849(3) 0.7951(3) 0.5301(2)
H51 H -0.2183 0.8338 0.5135
H52 H -0.1763 0.7503 0.5090
C54 C -0.2180(3) 0.9503(2) 0.6018(2)
H53 H -0.2292 0.9964 0.6217
H54 H -0.2437 0.9584 0.5708
C55 C -0.0166(3) 0.7900(2) 0.48757(17)
C56 C -0.0775(3) 0.8449(2) 0.57450(17)
H55 H -0.0945 0.8200 0.6084
C57 C 0.0262(3) 0.8432(2) 0.55510(16)
H56 H 0.0595 0.8147 0.5786
C58 C -0.0529(4) 0.9621(2) 0.57339(18)
C59 C 0.1482(3) 0.7937(3) 0.46632(17)
H57 H 0.1574 0.7508 0.4430
H58 H 0.1587 0.8334 0.4429
C60 C 0.1167(3) 0.9425(2) 0.54097(19)
H59 H 0.1093 0.9886 0.5600
H60 H 0.1313 0.9495 0.5020
C61 C 0.2460(3) 0.7169(3) 0.51425(17)
C62 C 0.2557(3) 0.8377(2) 0.51261(17)
H61 H 0.2906 0.8592 0.4806
C63 C 0.3206(3) 0.7966(2) 0.54511(16)
H62 H 0.3857 0.8005 0.5295
C64 C 0.2050(3) 0.8873(2) 0.60259(17)
C65 C 0.3616(3) 0.6641(2) 0.56173(17)
H63 H 0.4251 0.6708 0.5555
H64 H 0.3644 0.6206 0.5408
C66 C 0.3241(3) 0.8214(2) 0.64266(17)
H65 H 0.3061 0.8653 0.6661
H66 H 0.3914 0.8116 0.6270
C67 C 0.2712(3) 0.6059(2) 0.63738(18)
C68 C 0.3479(3) 0.6874(2) 0.66144(17)
H67 H 0.4157 0.6818 0.6542
C69 C 0.3059(3) 0.6488(2) 0.71187(16)
H68 H 0.3542 0.6199 0.7264
C70 C 0.2445(3) 0.7705(2) 0.72694(16)
C71 C 0.2164(3) 0.5491(2) 0.72307(17)
H69 H 0.2168 0.5102 0.6982
H70 H 0.2560 0.5295 0.7459
C72 C 0.2023(3) 0.6985(2) 0.80550(16)
H71 H 0.2424 0.6617 0.8198
H72 H 0.1929 0.7435 0.8263
N1 N 0.2821(2) 0.27301(17) 0.72622(13)
N2 N 0.2428(2) 0.21587(16) 0.66442(13)
N3 N 0.3105(2) 0.16379(17) 0.77345(13)
N4 N 0.2543(2) 0.11002(17) 0.71775(14)
N5 N 0.1095(2) 0.18323(17) 0.64669(13)
N6 N -0.0424(2) 0.19053(16) 0.67761(13)
N7 N 0.1265(2) 0.07433(17) 0.69494(13)
N8 N -0.0202(2) 0.06972(16) 0.71014(13)
N9 N -0.1997(2) 0.22969(18) 0.73411(14)
N10 N -0.2960(2) 0.27939(18) 0.81157(14)
N11 N -0.1700(2) 0.11596(17) 0.77550(14)
N12 N -0.2616(2) 0.16748(17) 0.85431(14)
N13 N -0.3296(3) 0.34896(18) 0.89600(15)
N14 N -0.2758(3) 0.40379(19) 0.95250(15)
N15 N -0.2886(2) 0.23750(18) 0.93789(15)
N16 N -0.2485(3) 0.29373(19) 0.99997(14)
N17 N -0.1336(2) 0.42763(19) 0.95883(17)
N18 N 0.0151(2) 0.42619(17) 0.93809(15)
N19 N -0.1081(3) 0.3206(2) 1.00892(14)
N20 N 0.0412(2) 0.3175(2) 0.98576(14)
N21 N 0.1724(2) 0.40000(17) 0.88615(13)
N22 N 0.2600(2) 0.34393(17) 0.80880(13)
N23 N 0.2008(2) 0.29086(18) 0.93387(13)
N24 N 0.2859(2) 0.23415(17) 0.85595(13)
N25 N 0.1230(2) 0.57469(17) 0.75714(13)
N26 N -0.0242(2) 0.57255(16) 0.79300(14)
N27 N 0.1142(2) 0.67901(16) 0.81329(13)
N28 N -0.0377(2) 0.69098(17) 0.83256(13)
N29 N -0.1777(3) 0.61865(19) 0.78223(16)
N30 N -0.2732(3) 0.6717(2) 0.73740(16)
N31 N -0.1950(2) 0.73387(18) 0.82940(14)
N32 N -0.2962(3) 0.78576(19) 0.78736(16)
N33 N -0.2928(3) 0.7400(2) 0.66033(16)
N34 N -0.2374(3) 0.7898(2) 0.58448(16)
N35 N -0.3257(3) 0.8546(2) 0.71187(16)
N36 N -0.2634(3) 0.90275(19) 0.63628(16)
N37 N -0.0936(3) 0.8094(2) 0.52932(15)
N38 N 0.0534(3) 0.8100(2) 0.50121(14)
N39 N -0.1182(3) 0.9211(2) 0.58212(18)
N40 N 0.0316(3) 0.91751(19) 0.55827(18)
N41 N 0.2140(3) 0.7821(2) 0.49719(14)
N42 N 0.3092(3) 0.7242(2) 0.54172(14)
N43 N 0.1916(3) 0.8916(2) 0.55218(14)
N44 N 0.2804(2) 0.83237(18) 0.59946(14)
N45 N 0.3242(3) 0.65400(19) 0.61865(14)
N46 N 0.2549(2) 0.60450(17) 0.69158(14)
N47 N 0.2988(2) 0.76207(17) 0.67548(13)
N48 N 0.2485(2) 0.70665(17) 0.74945(13)
O11 O 0.1864(2) 0.33773(14) 0.68025(11)
O12 O 0.01297(19) 0.29390(14) 0.66953(11)
O13 O -0.2222(2) 0.35133(15) 0.75070(13)
O14 O -0.2633(2) 0.44597(17) 0.86783(14)
O15 O -0.0867(2) 0.53495(14) 0.94296(12)
O16 O 0.1365(2) 0.43557(14) 0.80773(11)
O17 O 0.2353(2) 0.07396(16) 0.80530(12)
O18 O 0.0620(2) 0.01029(14) 0.76576(11)
O19 O -0.1468(2) 0.06975(14) 0.85487(12)
O20 O -0.1823(2) 0.17434(17) 0.97783(13)
O21 O -0.0230(2) 0.26587(17) 1.06413(12)
O22 O 0.2085(2) 0.17066(15) 0.92301(12)
O23 O 0.0530(2) 0.51277(14) 0.70999(12)
O24 O -0.1665(2) 0.57215(16) 0.69878(13)
O25 O -0.1850(3) 0.66934(18) 0.58977(15)
O26 O -0.0109(2) 0.75915(18) 0.44510(12)
O27 O 0.2236(3) 0.66164(17) 0.50622(13)
O28 O 0.2433(2) 0.56906(16) 0.60866(12)
O29 O 0.02304(19) 0.79252(13) 0.82243(11)
O30 O -0.2120(2) 0.85529(15) 0.81676(13)
O31 O -0.2531(2) 0.94778(17) 0.71636(14)
O32 O -0.0690(3) 1.02753(15) 0.57842(14)
O33 O 0.1601(2) 0.92553(15) 0.64267(12)
O34 O 0.2001(2) 0.82946(15) 0.75111(12)
Gd2_2 Gd 0.068718(15) -0.096850(10) 0.810666(8)
O18_2 O 0.0620(2) 1.01029(14) 0.76576(11)
loop_
_geom_bond_atom_site_label_1
_geom_bond_atom_site_label_2
_geom_bond_site_symmetry_1
_geom_bond_site_symmetry_2
O1 Gd1 1_555 1_555
O2 Gd1 1_555 1_555
O3 Gd1 1_555 1_555
O4 Gd1 1_555 1_555
O5 Gd1 1_555 1_555
O6 Gd2 1_555 1_555
O7 Gd2 1_555 1_555
O8 Gd2 1_555 1_555
O9 Gd2 1_555 1_555
O10 Gd2 1_555 1_555
Gd1 O11 1_555 1_555
Gd2 O29 1_555 1_555
C1 N1 1_555 1_555
C2 H1 1_555 1_555
C3 C2 1_555 1_555
H2 C3 1_555 1_555
C4 N3 1_555 1_555
C5 H3 1_555 1_555
H4 C5 1_555 1_555
C6 H5 1_555 1_555
H6 C6 1_555 1_555
C7 N5 1_555 1_555
C8 H7 1_555 1_555
C9 C8 1_555 1_555
H8 C9 1_555 1_555
C10 N7 1_555 1_555
C11 H9 1_555 1_555
H10 C11 1_555 1_555
C12 H11 1_555 1_555
H12 C12 1_555 1_555
C13 N9 1_555 1_555
C14 H13 1_555 1_555
C15 C14 1_555 1_555
H14 C15 1_555 1_555
C16 N11 1_555 1_555
C17 H15 1_555 1_555
H16 C17 1_555 1_555
C18 H17 1_555 1_555
H18 C18 1_555 1_555
C19 N13 1_555 1_555
C20 H19 1_555 1_555
C21 C20 1_555 1_555
H20 C21 1_555 1_555
C22 N15 1_555 1_555
C23 H21 1_555 1_555
H22 C23 1_555 1_555
C24 H23 1_555 1_555
H24 C24 1_555 1_555
C25 N17 1_555 1_555
C26 H25 1_555 1_555
C27 C26 1_555 1_555
H26 C27 1_555 1_555
C28 N19 1_555 1_555
C29 H27 1_555 1_555
H28 C29 1_555 1_555
C30 H29 1_555 1_555
H30 C30 1_555 1_555
C31 N21 1_555 1_555
C32 H31 1_555 1_555
C33 C32 1_555 1_555
H32 C33 1_555 1_555
C34 N23 1_555 1_555
C35 H33 1_555 1_555
H34 C35 1_555 1_555
C36 H35 1_555 1_555
H36 C36 1_555 1_555
C37 N25 1_555 1_555
C38 H37 1_555 1_555
C39 C38 1_555 1_555
H38 C39 1_555 1_555
C40 N27 1_555 1_555
C41 H39 1_555 1_555
H40 C41 1_555 1_555
C42 H41 1_555 1_555
H42 C42 1_555 1_555
C43 N29 1_555 1_555
C44 H43 1_555 1_555
C45 C44 1_555 1_555
H44 C45 1_555 1_555
C46 N31 1_555 1_555
C47 H45 1_555 1_555
H46 C47 1_555 1_555
C48 H47 1_555 1_555
H48 C48 1_555 1_555
C49 N33 1_555 1_555
C50 H49 1_555 1_555
C51 C50 1_555 1_555
H50 C51 1_555 1_555
C52 N35 1_555 1_555
C53 H51 1_555 1_555
H52 C53 1_555 1_555
C54 H53 1_555 1_555
H54 C54 1_555 1_555
C55 N37 1_555 1_555
C56 H55 1_555 1_555
C57 C56 1_555 1_555
H56 C57 1_555 1_555
C58 N39 1_555 1_555
C59 H57 1_555 1_555
H58 C59 1_555 1_555
C60 H59 1_555 1_555
H60 C60 1_555 1_555
C61 N41 1_555 1_555
C62 H61 1_555 1_555
C63 C62 1_555 1_555
H62 C63 1_555 1_555
C64 N43 1_555 1_555
C65 H63 1_555 1_555
H64 C65 1_555 1_555
C66 H65 1_555 1_555
H66 C66 1_555 1_555
C67 N45 1_555 1_555
C68 H67 1_555 1_555
C69 C68 1_555 1_555
H68 C69 1_555 1_555
C70 N47 1_555 1_555
C71 H69 1_555 1_555
H70 C71 1_555 1_555
C72 H71 1_555 1_555
H72 C72 1_555 1_555
N1 C2 1_555 1_555
N2 C1 1_555 1_555
N3 C2 1_555 1_555
N4 C3 1_555 1_555
N5 C5 1_555 1_555
N6 C7 1_555 1_555
N7 C6 1_555 1_555
N8 C9 1_555 1_555
N9 C11 1_555 1_555
N10 C13 1_555 1_555
N11 C12 1_555 1_555
N12 C15 1_555 1_555
N13 C17 1_555 1_555
N14 C19 1_555 1_555
N15 C18 1_555 1_555
N16 C21 1_555 1_555
N17 C23 1_555 1_555
N18 C25 1_555 1_555
N19 C24 1_555 1_555
N20 C27 1_555 1_555
N21 C29 1_555 1_555
N22 C31 1_555 1_555
N23 C30 1_555 1_555
N24 C33 1_555 1_555
N25 C38 1_555 1_555
N26 C37 1_555 1_555
N27 C38 1_555 1_555
N28 C39 1_555 1_555
N29 C41 1_555 1_555
N30 C43 1_555 1_555
N31 C42 1_555 1_555
N32 C45 1_555 1_555
N33 C47 1_555 1_555
N34 C49 1_555 1_555
N35 C48 1_555 1_555
N36 C51 1_555 1_555
N37 C53 1_555 1_555
N38 C55 1_555 1_555
N39 C54 1_555 1_555
N40 C57 1_555 1_555
N41 C59 1_555 1_555
N42 C61 1_555 1_555
N43 C60 1_555 1_555
N44 C63 1_555 1_555
N45 C65 1_555 1_555
N46 C67 1_555 1_555
N47 C66 1_555 1_555
N48 C69 1_555 1_555
O11 C1 1_555 1_555
O12 Gd1 1_555 1_555
O13 C13 1_555 1_555
O14 C19 1_555 1_555
O15 C25 1_555 1_555
O16 C31 1_555 1_555
O17 C4 1_555 1_555
O18 C10 1_555 1_555
O19 C16 1_555 1_555
O20 C22 1_555 1_555
O21 C28 1_555 1_555
O22 C34 1_555 1_555
O23 Gd1 1_555 1_555
O24 C43 1_555 1_555
O25 C49 1_555 1_555
O26 C55 1_555 1_555
O27 C61 1_555 1_555
O28 C67 1_555 1_555
O29 C40 1_555 1_555
O30 C46 1_555 1_555
O31 C52 1_555 1_555
O32 C58 1_555 1_555
O33 C64 1_555 1_555
O34 Gd2 1_555 1_555
Zn1 Cl1 1_555 1_555
Cl2 Zn1 1_555 1_555
Cl3 Zn1 1_555 1_555
Cl4 Zn1 1_555 1_555
Zn2 Cl5 1_555 1_555
Cl6 Zn2 1_555 1_555
Cl7 Zn2 1_555 1_555
Cl8 Zn2 1_555 1_555
N49 O35 1_555 1_555
O36 N49 1_555 1_555
O37 N49 1_555 1_555
N50 O38 1_555 1_555
O39 N50 1_555 1_555
O40 N50 1_555 1_555
Gd2_2 O18 1_555 1_555
O18_2 Gd2 1_555 1_555
C3 N2 1_555 1_555
C4 N4 1_555 1_555
C5 N2 1_555 1_555
C6 N4 1_555 1_555
C7 O12 1_555 1_555
C8 N5 1_555 1_555
C8 N7 1_555 1_555
C9 N6 1_555 1_555
C10 N8 1_555 1_555
C11 N6 1_555 1_555
C12 N8 1_555 1_555
C14 N9 1_555 1_555
C14 N11 1_555 1_555
C15 N10 1_555 1_555
C16 N12 1_555 1_555
C17 N10 1_555 1_555
C18 N12 1_555 1_555
C20 N13 1_555 1_555
C20 N15 1_555 1_555
C21 N14 1_555 1_555
C22 N16 1_555 1_555
C23 N14 1_555 1_555
C24 N16 1_555 1_555
C26 N17 1_555 1_555
C26 N19 1_555 1_555
C27 N18 1_555 1_555
C28 N20 1_555 1_555
C29 N18 1_555 1_555
C30 N20 1_555 1_555
C32 N21 1_555 1_555
C32 N23 1_555 1_555
C33 N22 1_555 1_555
C34 N24 1_555 1_555
C35 N1 1_555 1_555
C35 N22 1_555 1_555
C36 N3 1_555 1_555
C36 N24 1_555 1_555
C37 O23 1_555 1_555
C39 N26 1_555 1_555
C40 N28 1_555 1_555
C41 N26 1_555 1_555
C42 N28 1_555 1_555
C44 N29 1_555 1_555
C44 N31 1_555 1_555
C45 N30 1_555 1_555
C46 N32 1_555 1_555
C47 N30 1_555 1_555
C48 N32 1_555 1_555
C50 N33 1_555 1_555
C50 N35 1_555 1_555
C51 N34 1_555 1_555
C52 N36 1_555 1_555
C53 N34 1_555 1_555
C54 N36 1_555 1_555
C56 N37 1_555 1_555
C56 N39 1_555 1_555
C57 N38 1_555 1_555
C58 N40 1_555 1_555
C59 N38 1_555 1_555
C60 N40 1_555 1_555
C62 N41 1_555 1_555
C62 N43 1_555 1_555
C63 N42 1_555 1_555
C64 N44 1_555 1_555
C65 N42 1_555 1_555
C66 N44 1_555 1_555
C68 N45 1_555 1_555
C68 N47 1_555 1_555
C69 N46 1_555 1_555
C70 N48 1_555 1_555
C70 O34 1_555 1_555
C71 N25 1_555 1_555
C71 N46 1_555 1_555
C72 N27 1_555 1_555
C72 N48 1_555 1_555

#END
