
#######################################################################
#
#                 Cambridge Crystallographic Data Centre
#                                CCDC 
#
#######################################################################
#
# If this CIF has been generated from an entry in the Cambridge 
# Structural Database, then it will include bibliographic, chemical, 
# crystal, experimental, refinement or atomic coordinate data resulting 
# from the CCDC's data processing and validation procedures.
#
#######################################################################

data_DUGVUY
_symmetry_cell_setting           triclinic
_symmetry_space_group_name_H-M   'P -1'
_symmetry_Int_Tables_number      2
_space_group_name_Hall           '-P 1'
loop_
_symmetry_equiv_pos_site_id
_symmetry_equiv_pos_as_xyz
1 x,y,z
2 -x,-y,-z
_cell_length_a                   15.3346(5)
_cell_length_b                   19.0921(7)
_cell_length_c                   25.6638(9)
_cell_angle_alpha                89.8580(10)
_cell_angle_beta                 73.8490(10)
_cell_angle_gamma                78.1560(10)
_cell_volume                     7051.46
loop_
_atom_site_label
_atom_site_type_symbol
_atom_site_fract_x
_atom_site_fract_y
_atom_site_fract_z
Zn1 Zn 0.59960(3) 0.25700(3) 0.65715(2)
Cl1 Cl 0.53910(7) 0.26785(7) 0.74905(4)
Cl2 Cl 0.68506(8) 0.14357(6) 0.63676(5)
Cl3 Cl 0.68290(11) 0.34146(7) 0.63287(6)
Cl4 Cl 0.48387(11) 0.27000(12) 0.61591(7)
Zn2 Zn 1.40094(4) 0.24054(3) 1.00925(2)
Cl5 Cl 1.45336(8) 0.23088(9) 0.91785(5)
Cl6 Cl 1.32373(13) 0.35417(8) 1.03387(7)
Cl7 Cl 1.30284(10) 0.16624(8) 1.03760(6)
Cl8 Cl 1.52357(12) 0.21107(12) 1.04508(7)
N49 N 0.9972(5) 0.7340(3) 0.6769(2)
O35 O 1.0781(4) 0.7385(3) 0.6560(3)
O36 O 0.9527(5) 0.7735(4) 0.7140(2)
O37 O 0.9634(5) 0.6906(4) 0.6591(3)
N50 N 0.9988(8) 0.2321(6) 0.8242(3)
O38 O 1.0708(6) 0.2460(4) 0.8291(4)
O39 O 0.9738(8) 0.1843(6) 0.8528(5)
O40 O 0.9522(9) 0.2687(7) 0.8004(5)
O1 O 1.0781(2) 0.35804(14) 0.57562(10)
O2 O 1.0118(2) 0.38924(14) 0.75983(10)
O3 O 1.1828(2) 0.44620(14) 0.60561(11)
O4 O 0.9889(2) 0.50815(15) 0.61686(11)
O5 O 0.88889(19) 0.42655(14) 0.68795(12)
O6 O 1.1005(2) 0.85323(15) 0.88983(12)
O7 O 1.0260(2) 0.88471(14) 0.72987(11)
O8 O 1.2070(2) 0.93976(14) 0.81545(13)
O9 O 0.90654(19) 0.92509(14) 0.84404(12)
O10 O 1.0185(2) 1.00188(16) 0.87780(13)
Tb1 Tb 1.052302(12) 0.408413(8) 0.663460(6)
Tb2 Tb 1.070595(12) 0.902884(8) 0.810216(6)
C1 C 1.2328(2) 0.28085(18) 0.68905(13)
C2 C 1.3367(2) 0.20014(18) 0.72311(14)
H1 H 1.4043 0.1982 0.7101
C3 C 1.3033(2) 0.15974(19) 0.68241(14)
H2 H 1.3558 0.1344 0.6522
C4 C 1.2650(2) 0.11229(18) 0.76824(15)
C5 C 1.1965(2) 0.20572(19) 0.62393(13)
H3 H 1.2380 0.1697 0.5960
H4 H 1.1842 0.2507 0.6062
C6 C 1.2236(2) 0.05310(18) 0.69544(16)
H5 H 1.2295 0.0118 0.7179
H6 H 1.2633 0.0381 0.6585
C7 C 1.0256(2) 0.22875(18) 0.66505(13)
C8 C 1.1020(2) 0.10903(17) 0.64874(14)
H7 H 1.1346 0.0811 0.6139
C9 C 0.9961(2) 0.11434(16) 0.66433(13)
H8 H 0.9767 0.0967 0.6340
C10 C 1.0574(2) 0.04825(16) 0.72660(14)
C11 C 0.8624(2) 0.22386(19) 0.68059(14)
H9 H 0.8608 0.2720 0.6670
H10 H 0.8405 0.1960 0.6567
C12 C 0.8902(2) 0.05649(18) 0.73871(15)
H11 H 0.8992 0.0137 0.7594
H12 H 0.8587 0.0463 0.7121
C13 C 0.7625(3) 0.29258(19) 0.76441(16)
C14 C 0.7631(2) 0.17013(18) 0.76012(14)
H13 H 0.7292 0.1494 0.7385
C15 C 0.6982(2) 0.20457(18) 0.81521(15)
H14 H 0.6339 0.1982 0.8206
C16 C 0.8124(2) 0.11363(18) 0.83041(15)
C17 C 0.6387(3) 0.3363(2) 0.84972(16)
H15 H 0.6318 0.3806 0.8305
H16 H 0.5778 0.3236 0.8616
C18 C 0.6960(3) 0.1752(2) 0.91187(16)
H17 H 0.7194 0.1317 0.9285
H18 H 0.6290 0.1795 0.9183
C19 C 0.7109(3) 0.40477(19) 0.90149(17)
C20 C 0.6512(3) 0.30878(19) 0.94428(15)
H19 H 0.5847 0.3069 0.9583
C21 C 0.6829(3) 0.3497(2) 0.98525(16)
H20 H 0.6303 0.3712 1.0169
C22 C 0.7654(3) 0.2292(2) 0.97282(15)
C23 C 0.7653(3) 0.4548(2) 0.97187(17)
H21 H 0.7394 0.4637 1.0113
H22 H 0.7521 0.5003 0.9549
C24 C 0.8006(3) 0.3057(2) 1.03838(15)
H23 H 0.8101 0.2630 1.0590
H24 H 0.7645 0.3461 1.0641
C25 C 0.9294(3) 0.47027(19) 0.94642(14)
C26 C 0.9077(2) 0.35261(18) 0.95740(14)
H25 H 0.8924 0.3242 0.9303
C27 C 1.0114(2) 0.35206(18) 0.94190(14)
H26 H 1.0447 0.3255 0.9065
C28 C 0.9703(3) 0.2971(2) 1.02382(15)
C29 C 1.1005(2) 0.45124(19) 0.92313(15)
H27 H 1.0908 0.4968 0.9057
H28 H 1.1201 0.4597 0.9554
C30 C 1.1372(3) 0.3016(2) 0.98787(14)
H29 H 1.1480 0.3419 1.0070
H30 H 1.1488 0.2587 1.0081
C31 C 1.1847(2) 0.39666(18) 0.83149(14)
C32 C 1.2394(2) 0.34686(19) 0.90294(14)
H31 H 1.2758 0.3691 0.9219
C33 C 1.3009(2) 0.30736(17) 0.84863(14)
H32 H 1.3669 0.3098 0.8419
C34 C 1.2303(3) 0.22558(19) 0.90529(14)
C35 C 1.3022(2) 0.33413(17) 0.75083(13)
H33 H 1.3696 0.3279 0.7435
H34 H 1.2800 0.3776 0.7338
C36 C 1.3434(3) 0.17419(19) 0.81932(14)
H35 H 1.4072 0.1815 0.8069
H36 H 1.3445 0.1304 0.8394
C37 C 1.0503(2) 0.55053(17) 0.74967(14)
C38 C 1.1031(2) 0.60607(17) 0.81149(13)
H37 H 1.1361 0.5751 0.8340
C39 C 0.9974(2) 0.61458(17) 0.83310(14)
H38 H 0.9786 0.5968 0.8699
C40 C 1.0339(2) 0.72706(17) 0.82229(13)
C41 C 0.8840(3) 0.55968(18) 0.79891(17)
H39 H 0.8563 0.5507 0.8369
H40 H 0.8895 0.5164 0.7767
C42 C 0.8687(3) 0.72717(19) 0.86223(14)
H41 H 0.8464 0.6999 0.8938
H42 H 0.8692 0.7750 0.8758
C43 C 0.7980(3) 0.6163(2) 0.73650(16)
C44 C 0.7613(2) 0.6769(2) 0.82116(16)
H43 H 0.7292 0.6589 0.8559
C45 C 0.6923(3) 0.7124(2) 0.79023(16)
H44 H 0.6277 0.7093 0.8095
C46 C 0.7693(3) 0.79762(19) 0.81131(15)
C47 C 0.6801(3) 0.6829(2) 0.69553(18)
H45 H 0.6126 0.6937 0.7118
H46 H 0.6966 0.6384 0.6727
C48 C 0.6440(3) 0.8438(2) 0.76976(17)
H47 H 0.6395 0.8883 0.7902
H48 H 0.5815 0.8337 0.7784
C49 C 0.7653(3) 0.7266(2) 0.61097(18)
C50 C 0.6548(3) 0.8140(2) 0.67070(16)
H49 H 0.5872 0.8173 0.6774
C51 C 0.6964(3) 0.8485(2) 0.61775(17)
H50 H 0.6482 0.8696 0.6000
C52 C 0.7229(3) 0.9062(2) 0.69161(17)
C53 C 0.8165(3) 0.7946(2) 0.53055(17)
H51 H 0.7834 0.8333 0.5136
H52 H 0.8250 0.7496 0.5097
C54 C 0.7821(3) 0.9503(2) 0.60145(18)
H53 H 0.7706 0.9970 0.6208
H54 H 0.7570 0.9576 0.5702
C55 C 0.9845(3) 0.78886(19) 0.48764(15)
C56 C 0.9231(3) 0.84513(18) 0.57457(14)
H55 H 0.9060 0.8205 0.6087
C57 C 1.0282(3) 0.84271(19) 0.55498(14)
H56 H 1.0615 0.8140 0.5785
C58 C 0.9476(3) 0.9624(2) 0.57283(16)
C59 C 1.1499(3) 0.7932(2) 0.46584(15)
H57 H 1.1592 0.7501 0.4426
H58 H 1.1604 0.8329 0.4423
C60 C 1.1190(3) 0.9424(2) 0.54001(18)
H59 H 1.1337 0.9485 0.5008
H60 H 1.1119 0.9890 0.5585
C61 C 1.2488(3) 0.7163(2) 0.51404(14)
C62 C 1.2585(3) 0.8374(2) 0.51196(15)
H61 H 1.2937 0.8589 0.4799
C63 C 1.3219(3) 0.7970(2) 0.54476(14)
H62 H 1.3873 0.8012 0.5292
C64 C 1.2074(3) 0.88660(19) 0.60196(15)
C65 C 1.3644(3) 0.6639(2) 0.56050(15)
H63 H 1.4282 0.6705 0.5539
H64 H 1.3669 0.6205 0.5393
C66 C 1.3262(3) 0.82031(18) 0.64206(14)
H65 H 1.3088 0.8643 0.6655
H66 H 1.3938 0.8103 0.6262
C67 C 1.2729(3) 0.60501(19) 0.63740(15)
C68 C 1.3500(2) 0.68727(18) 0.66085(15)
H67 H 1.4180 0.6818 0.6538
C69 C 1.3084(2) 0.64811(18) 0.71150(15)
H68 H 1.3573 0.6195 0.7259
C70 C 1.2470(2) 0.77027(18) 0.72671(14)
C71 C 1.2178(2) 0.54857(18) 0.72289(15)
H69 H 1.2181 0.5097 0.6979
H70 H 1.2570 0.5285 0.7459
C72 C 1.2048(2) 0.69770(18) 0.80534(14)
H71 H 1.1962 0.7424 0.8266
H72 H 1.2451 0.6601 0.8191
N1 N 1.28278(19) 0.27318(15) 0.72569(11)
N2 N 1.24331(19) 0.21621(15) 0.66381(11)
N3 N 1.3123(2) 0.16380(15) 0.77270(11)
N4 N 1.2556(2) 0.10994(15) 0.71678(12)
N5 N 1.1100(2) 0.18303(14) 0.64594(11)
N6 N 0.9580(2) 0.19029(15) 0.67739(11)
N7 N 1.1278(2) 0.07457(14) 0.69422(12)
N8 N 0.9801(2) 0.06960(14) 0.70995(12)
N9 N 0.8001(2) 0.22956(15) 0.73428(12)
N10 N 0.7034(2) 0.27939(15) 0.81218(13)
N11 N 0.8305(2) 0.11556(15) 0.77578(12)
N12 N 0.7399(2) 0.16736(15) 0.85445(12)
N13 N 0.6679(2) 0.34943(16) 0.89703(13)
N14 N 0.7225(2) 0.40371(16) 0.95294(13)
N15 N 0.7114(2) 0.23726(16) 0.93860(13)
N16 N 0.7499(2) 0.29413(16) 1.00082(12)
N17 N 0.8649(2) 0.42797(16) 0.95856(15)
N18 N 1.0147(2) 0.42690(15) 0.93935(13)
N19 N 0.8904(2) 0.32100(18) 1.00952(12)
N20 N 1.0410(2) 0.31649(17) 0.98620(13)
N21 N 1.1721(2) 0.40012(15) 0.88632(11)
N22 N 1.2601(2) 0.34411(14) 0.80874(11)
N23 N 1.2006(2) 0.29055(15) 0.93378(11)
N24 N 1.2868(2) 0.23398(15) 0.85584(12)
N25 N 1.1241(2) 0.57429(14) 0.75679(11)
N26 N 0.9762(2) 0.57235(15) 0.79304(12)
N27 N 1.11583(19) 0.67887(14) 0.81322(11)
N28 N 0.96350(19) 0.69162(14) 0.83286(11)
N29 N 0.8223(2) 0.61841(16) 0.78311(13)
N30 N 0.7253(2) 0.67202(16) 0.73851(13)
N31 N 0.8052(2) 0.73419(16) 0.82978(12)
N32 N 0.7035(2) 0.78630(17) 0.78811(14)
N33 N 0.7058(2) 0.74076(18) 0.66139(14)
N34 N 0.7629(2) 0.79000(18) 0.58507(14)
N35 N 0.6742(2) 0.85519(17) 0.71218(13)
N36 N 0.7356(2) 0.90362(17) 0.63671(14)
N37 N 0.9072(2) 0.80865(19) 0.52970(13)
N38 N 1.0547(2) 0.80960(19) 0.50099(13)
N39 N 0.8824(2) 0.92145(17) 0.58213(16)
N40 N 1.0326(2) 0.91716(16) 0.55837(15)
N41 N 1.2163(2) 0.78180(17) 0.49692(12)
N42 N 1.3120(2) 0.72382(17) 0.54121(12)
N43 N 1.1937(2) 0.89123(17) 0.55178(13)
N44 N 1.2822(2) 0.83225(17) 0.59879(12)
N45 N 1.3277(2) 0.65296(16) 0.61783(12)
N46 N 1.2578(2) 0.60316(15) 0.69153(12)
N47 N 1.3014(2) 0.76156(16) 0.67503(12)
N48 N 1.2502(2) 0.70669(15) 0.74949(12)
O11 O 1.18645(17) 0.33831(13) 0.68000(10)
O12 O 1.01209(17) 0.29486(12) 0.66961(10)
O13 O 0.77734(19) 0.35212(14) 0.75130(11)
O14 O 0.7346(2) 0.44641(15) 0.86843(12)
O15 O 0.91214(19) 0.53532(13) 0.94290(11)
O16 O 1.13604(18) 0.43558(13) 0.80774(10)
O17 O 1.2372(2) 0.07349(14) 0.80432(11)
O18 O 1.06384(18) 0.00971(12) 0.76526(10)
O19 O 0.8543(2) 0.06941(13) 0.85520(11)
O20 O 0.8181(2) 0.17421(15) 0.97871(12)
O21 O 0.9766(2) 0.26447(16) 1.06418(10)
O22 O 1.2093(2) 0.16935(14) 0.92221(11)
O23 O 1.05360(18) 0.51250(12) 0.70979(10)
O24 O 0.8331(2) 0.57126(14) 0.69889(12)
O25 O 0.8139(2) 0.66856(16) 0.59079(13)
O26 O 0.9904(2) 0.75798(15) 0.44491(11)
O27 O 1.2256(2) 0.66065(15) 0.50562(11)
O28 O 1.2451(2) 0.56855(14) 0.60820(11)
O29 O 1.02445(17) 0.79229(11) 0.82239(10)
O30 O 0.78881(19) 0.85521(14) 0.81702(11)
O31 O 0.7476(2) 0.94829(15) 0.71616(12)
O32 O 0.9325(2) 1.02788(14) 0.57792(13)
O33 O 1.16210(19) 0.92488(14) 0.64212(11)
O34 O 1.20210(17) 0.82917(13) 0.75062(10)
Tb2_2 Tb 1.070595(12) -0.097116(8) 0.810216(6)
O18_2 O 1.06384(18) 1.00971(12) 0.76526(10)
loop_
_geom_bond_atom_site_label_1
_geom_bond_atom_site_label_2
_geom_bond_site_symmetry_1
_geom_bond_site_symmetry_2
O1 Tb1 1_555 1_555
O2 Tb1 1_555 1_555
O3 Tb1 1_555 1_555
O4 Tb1 1_555 1_555
O5 Tb1 1_555 1_555
O6 Tb2 1_555 1_555
O7 Tb2 1_555 1_555
O8 Tb2 1_555 1_555
O9 Tb2 1_555 1_555
O10 Tb2 1_555 1_555
Tb1 O11 1_555 1_555
Tb2 O29 1_555 1_555
C1 N1 1_555 1_555
C2 H1 1_555 1_555
C3 C2 1_555 1_555
H2 C3 1_555 1_555
C4 N3 1_555 1_555
C5 H3 1_555 1_555
H4 C5 1_555 1_555
C6 H5 1_555 1_555
H6 C6 1_555 1_555
C7 N5 1_555 1_555
C8 H7 1_555 1_555
C9 C8 1_555 1_555
H8 C9 1_555 1_555
C10 N7 1_555 1_555
C11 H9 1_555 1_555
H10 C11 1_555 1_555
C12 H11 1_555 1_555
H12 C12 1_555 1_555
C13 N9 1_555 1_555
C14 H13 1_555 1_555
C15 C14 1_555 1_555
H14 C15 1_555 1_555
C16 N11 1_555 1_555
C17 H15 1_555 1_555
H16 C17 1_555 1_555
C18 H17 1_555 1_555
H18 C18 1_555 1_555
C19 N13 1_555 1_555
C20 H19 1_555 1_555
C21 C20 1_555 1_555
H20 C21 1_555 1_555
C22 N15 1_555 1_555
C23 H21 1_555 1_555
H22 C23 1_555 1_555
C24 H23 1_555 1_555
H24 C24 1_555 1_555
C25 N17 1_555 1_555
C26 H25 1_555 1_555
C27 C26 1_555 1_555
H26 C27 1_555 1_555
C28 N19 1_555 1_555
C29 H27 1_555 1_555
H28 C29 1_555 1_555
C30 H29 1_555 1_555
H30 C30 1_555 1_555
C31 N21 1_555 1_555
C32 H31 1_555 1_555
C33 C32 1_555 1_555
H32 C33 1_555 1_555
C34 N23 1_555 1_555
C35 H33 1_555 1_555
H34 C35 1_555 1_555
C36 H35 1_555 1_555
H36 C36 1_555 1_555
C37 N25 1_555 1_555
C38 H37 1_555 1_555
C39 C38 1_555 1_555
H38 C39 1_555 1_555
C40 N27 1_555 1_555
C41 H39 1_555 1_555
H40 C41 1_555 1_555
C42 H41 1_555 1_555
H42 C42 1_555 1_555
C43 N29 1_555 1_555
C44 H43 1_555 1_555
C45 C44 1_555 1_555
H44 C45 1_555 1_555
C46 N31 1_555 1_555
C47 H45 1_555 1_555
H46 C47 1_555 1_555
C48 H47 1_555 1_555
H48 C48 1_555 1_555
C49 N33 1_555 1_555
C50 H49 1_555 1_555
C51 C50 1_555 1_555
H50 C51 1_555 1_555
C52 N35 1_555 1_555
C53 H51 1_555 1_555
H52 C53 1_555 1_555
C54 H53 1_555 1_555
H54 C54 1_555 1_555
C55 N37 1_555 1_555
C56 H55 1_555 1_555
C57 C56 1_555 1_555
H56 C57 1_555 1_555
C58 N39 1_555 1_555
C59 H57 1_555 1_555
H58 C59 1_555 1_555
C60 H59 1_555 1_555
H60 C60 1_555 1_555
C61 N41 1_555 1_555
C62 H61 1_555 1_555
C63 C62 1_555 1_555
H62 C63 1_555 1_555
C64 N43 1_555 1_555
C65 H63 1_555 1_555
H64 C65 1_555 1_555
C66 H65 1_555 1_555
H66 C66 1_555 1_555
C67 N45 1_555 1_555
C68 H67 1_555 1_555
C69 C68 1_555 1_555
H68 C69 1_555 1_555
C70 N47 1_555 1_555
C71 H69 1_555 1_555
H70 C71 1_555 1_555
C72 H71 1_555 1_555
H72 C72 1_555 1_555
N1 C2 1_555 1_555
N2 C1 1_555 1_555
N3 C2 1_555 1_555
N4 C3 1_555 1_555
N5 C5 1_555 1_555
N6 C7 1_555 1_555
N7 C6 1_555 1_555
N8 C9 1_555 1_555
N9 C11 1_555 1_555
N10 C13 1_555 1_555
N11 C12 1_555 1_555
N12 C15 1_555 1_555
N13 C17 1_555 1_555
N14 C19 1_555 1_555
N15 C18 1_555 1_555
N16 C21 1_555 1_555
N17 C23 1_555 1_555
N18 C25 1_555 1_555
N19 C24 1_555 1_555
N20 C27 1_555 1_555
N21 C29 1_555 1_555
N22 C31 1_555 1_555
N23 C30 1_555 1_555
N24 C33 1_555 1_555
N25 C38 1_555 1_555
N26 C37 1_555 1_555
N27 C38 1_555 1_555
N28 C39 1_555 1_555
N29 C41 1_555 1_555
N30 C43 1_555 1_555
N31 C42 1_555 1_555
N32 C45 1_555 1_555
N33 C47 1_555 1_555
N34 C49 1_555 1_555
N35 C48 1_555 1_555
N36 C51 1_555 1_555
N37 C53 1_555 1_555
N38 C55 1_555 1_555
N39 C54 1_555 1_555
N40 C57 1_555 1_555
N41 C59 1_555 1_555
N42 C61 1_555 1_555
N43 C60 1_555 1_555
N44 C63 1_555 1_555
N45 C65 1_555 1_555
N46 C67 1_555 1_555
N47 C66 1_555 1_555
N48 C69 1_555 1_555
O11 C1 1_555 1_555
O12 Tb1 1_555 1_555
O13 C13 1_555 1_555
O14 C19 1_555 1_555
O15 C25 1_555 1_555
O16 C31 1_555 1_555
O17 C4 1_555 1_555
O18 C10 1_555 1_555
O19 C16 1_555 1_555
O20 C22 1_555 1_555
O21 C28 1_555 1_555
O22 C34 1_555 1_555
O23 Tb1 1_555 1_555
O24 C43 1_555 1_555
O25 C49 1_555 1_555
O26 C55 1_555 1_555
O27 C61 1_555 1_555
O28 C67 1_555 1_555
O29 C40 1_555 1_555
O30 C46 1_555 1_555
O31 C52 1_555 1_555
O32 C58 1_555 1_555
O33 C64 1_555 1_555
O34 Tb2 1_555 1_555
Zn1 Cl1 1_555 1_555
Cl2 Zn1 1_555 1_555
Cl3 Zn1 1_555 1_555
Cl4 Zn1 1_555 1_555
Zn2 Cl5 1_555 1_555
Cl6 Zn2 1_555 1_555
Cl7 Zn2 1_555 1_555
Cl8 Zn2 1_555 1_555
N49 O35 1_555 1_555
O36 N49 1_555 1_555
O37 N49 1_555 1_555
N50 O38 1_555 1_555
O39 N50 1_555 1_555
O40 N50 1_555 1_555
Tb2_2 O18 1_555 1_555
O18_2 Tb2 1_555 1_555
C3 N2 1_555 1_555
C4 N4 1_555 1_555
C5 N2 1_555 1_555
C6 N4 1_555 1_555
C7 O12 1_555 1_555
C8 N5 1_555 1_555
C8 N7 1_555 1_555
C9 N6 1_555 1_555
C10 N8 1_555 1_555
C11 N6 1_555 1_555
C12 N8 1_555 1_555
C14 N9 1_555 1_555
C14 N11 1_555 1_555
C15 N10 1_555 1_555
C16 N12 1_555 1_555
C17 N10 1_555 1_555
C18 N12 1_555 1_555
C20 N13 1_555 1_555
C20 N15 1_555 1_555
C21 N14 1_555 1_555
C22 N16 1_555 1_555
C23 N14 1_555 1_555
C24 N16 1_555 1_555
C26 N17 1_555 1_555
C26 N19 1_555 1_555
C27 N18 1_555 1_555
C28 N20 1_555 1_555
C29 N18 1_555 1_555
C30 N20 1_555 1_555
C32 N21 1_555 1_555
C32 N23 1_555 1_555
C33 N22 1_555 1_555
C34 N24 1_555 1_555
C35 N1 1_555 1_555
C35 N22 1_555 1_555
C36 N3 1_555 1_555
C36 N24 1_555 1_555
C37 O23 1_555 1_555
C39 N26 1_555 1_555
C40 N28 1_555 1_555
C41 N26 1_555 1_555
C42 N28 1_555 1_555
C44 N29 1_555 1_555
C44 N31 1_555 1_555
C45 N30 1_555 1_555
C46 N32 1_555 1_555
C47 N30 1_555 1_555
C48 N32 1_555 1_555
C50 N33 1_555 1_555
C50 N35 1_555 1_555
C51 N34 1_555 1_555
C52 N36 1_555 1_555
C53 N34 1_555 1_555
C54 N36 1_555 1_555
C56 N37 1_555 1_555
C56 N39 1_555 1_555
C57 N38 1_555 1_555
C58 N40 1_555 1_555
C59 N38 1_555 1_555
C60 N40 1_555 1_555
C62 N41 1_555 1_555
C62 N43 1_555 1_555
C63 N42 1_555 1_555
C64 N44 1_555 1_555
C65 N42 1_555 1_555
C66 N44 1_555 1_555
C68 N45 1_555 1_555
C68 N47 1_555 1_555
C69 N46 1_555 1_555
C70 N48 1_555 1_555
C70 O34 1_555 1_555
C71 N25 1_555 1_555
C71 N46 1_555 1_555
C72 N27 1_555 1_555
C72 N48 1_555 1_555

#END
