
#######################################################################
#
#                 Cambridge Crystallographic Data Centre
#                                CCDC 
#
#######################################################################
#
# If this CIF has been generated from an entry in the Cambridge 
# Structural Database, then it will include bibliographic, chemical, 
# crystal, experimental, refinement or atomic coordinate data resulting 
# from the CCDC's data processing and validation procedures.
#
#######################################################################

data_DUGWAF
_symmetry_cell_setting           triclinic
_symmetry_space_group_name_H-M   'P -1'
_symmetry_Int_Tables_number      2
_space_group_name_Hall           '-P 1'
loop_
_symmetry_equiv_pos_site_id
_symmetry_equiv_pos_as_xyz
1 x,y,z
2 -x,-y,-z
_cell_length_a                   15.4230(11)
_cell_length_b                   19.0919(13)
_cell_length_c                   25.6889(18)
_cell_angle_alpha                89.860(2)
_cell_angle_beta                 73.886(3)
_cell_angle_gamma                78.313(2)
_cell_volume                     7104.73
loop_
_atom_site_label
_atom_site_type_symbol
_atom_site_fract_x
_atom_site_fract_y
_atom_site_fract_z
Zn1 Zn 0.90076(5) 1.24410(5) 0.00967(3)
Cl1 Cl 0.95268(12) 1.23494(14) -0.08164(7)
Cl2 Cl 0.80423(15) 1.16864(12) 0.03770(10)
Cl3 Cl 1.02371(19) 1.2146(2) 0.04417(11)
Cl4 Cl 0.82207(19) 1.35639(13) 0.03523(10)
Zn2 Zn 0.90101(5) 1.74527(4) 0.34265(3)
Cl5 Cl 0.96140(10) 1.73460(11) 0.25102(7)
Cl6 Cl 0.81400(12) 1.85802(9) 0.36361(7)
Cl7 Cl 0.81863(16) 1.66063(12) 0.36726(9)
Cl8 Cl 1.01646(16) 1.73339(18) 0.38319(11)
N49 N 0.5038(7) 1.2664(4) 0.3240(3)
O35 O 0.4226(6) 1.2634(4) 0.3436(4)
O36 O 0.5502(7) 1.2244(6) 0.2867(4)
O37 O 0.5365(8) 1.3094(7) 0.3416(5)
N50 N 0.5027(8) 1.7680(6) 0.1778(4)
O38 O 0.4278(7) 1.7556(7) 0.1746(6)
O39 O 0.5244(12) 1.8205(8) 0.1523(7)
O40 O 0.5552(9) 1.7219(8) 0.1958(6)
O1 O 0.5086(3) 1.4954(2) 0.38260(17)
O2 O 0.6083(3) 1.57410(19) 0.31186(18)
O3 O 0.3162(3) 1.5554(2) 0.39227(16)
O4 O 0.4203(3) 1.6436(2) 0.42343(14)
O5 O 0.4867(3) 1.6115(2) 0.24052(15)
O6 O 0.5934(3) 1.07547(18) 0.15749(17)
O7 O 0.4032(3) 1.1475(2) 0.11121(17)
O8 O 0.2955(3) 1.0610(2) 0.1848(2)
O9 O 0.4742(3) 1.11525(19) 0.27047(15)
O10 O 0.4814(4) 1.0005(2) 0.1230(2)
Dy1 Dy 0.446128(17) 1.593030(11) 0.335934(9)
Dy2 Dy 0.430957(17) 1.097784(11) 0.190390(9)
C1 C 0.4732(3) 1.7722(2) 0.3347(2)
C2 C 0.5034(3) 1.8860(2) 0.33595(19)
H1 H 0.5223 1.9036 0.3664
C3 C 0.3988(4) 1.8912(2) 0.35039(19)
H2 H 0.3662 1.9190 0.3852
C4 C 0.4435(3) 1.9522(2) 0.27342(19)
C5 C 0.3033(4) 1.7961(3) 0.3750(2)
H3 H 0.2623 1.8335 0.4018
H4 H 0.3135 1.7520 0.3941
C6 C 0.2771(4) 1.9481(3) 0.3034(2)
H5 H 0.2372 1.9631 0.3402
H6 H 0.2715 1.9893 0.2809
C7 C 0.2678(3) 1.7202(3) 0.3103(2)
C8 C 0.1981(3) 1.8413(3) 0.3165(2)
H7 H 0.1462 1.8668 0.3467
C9 C 0.1647(3) 1.8011(3) 0.2765(2)
H8 H 0.0974 1.8033 0.2894
C10 C 0.2365(3) 1.8890(3) 0.2307(2)
C11 C 0.1980(4) 1.6676(3) 0.2483(2)
H9 H 0.2182 1.6239 0.2657
H10 H 0.1310 1.6748 0.2550
C12 C 0.1568(4) 1.8262(3) 0.1806(2)
H11 H 0.1544 1.8700 0.1606
H12 H 0.0938 1.8180 0.1936
C13 C 0.3146(4) 1.6042(3) 0.1680(2)
C14 C 0.2004(3) 1.6938(2) 0.15061(19)
H13 H 0.1348 1.6913 0.1571
C15 C 0.2617(4) 1.6539(3) 0.0966(2)
H14 H 0.2255 1.6316 0.0777
C16 C 0.2711(3) 1.7744(3) 0.0937(2)
C17 C 0.4000(4) 1.5494(3) 0.0769(2)
H15 H 0.4089 1.5037 0.0943
H16 H 0.3816 1.5412 0.0442
C18 C 0.3639(4) 1.6980(3) 0.0119(2)
H17 H 0.3530 1.6577 -0.0073
H18 H 0.3528 1.7408 -0.0085
C19 C 0.5700(4) 1.5308(3) 0.0543(2)
C20 C 0.4879(4) 1.6492(3) 0.0586(2)
H19 H 0.4550 1.6765 0.0936
C21 C 0.5912(3) 1.6480(3) 0.0428(2)
H20 H 0.6069 1.6760 0.0699
C22 C 0.5296(4) 1.7032(3) -0.0232(2)
C23 C 0.7330(4) 1.5468(3) 0.0290(2)
H21 H 0.7456 1.5012 0.0458
H22 H 0.7596 1.5381 -0.0104
C24 C 0.6976(4) 1.6955(4) -0.0374(2)
H23 H 0.7335 1.6556 -0.0634
H24 H 0.6881 1.7386 -0.0577
C25 C 0.7873(4) 1.5958(3) 0.0983(2)
C26 C 0.8145(4) 1.6517(3) 0.0155(2)
H25 H 0.8665 1.6306 -0.0163
C27 C 0.8467(4) 1.6912(3) 0.0565(2)
H26 H 0.9131 1.6921 0.0425
C28 C 0.7349(4) 1.7710(3) 0.0278(2)
C29 C 0.8577(4) 1.6642(3) 0.1512(2)
H27 H 0.8642 1.6198 0.1704
H28 H 0.9186 1.6766 0.1395
C30 C 0.8043(4) 1.8251(3) 0.0886(2)
H29 H 0.8709 1.8211 0.0821
H30 H 0.7807 1.8687 0.0723
C31 C 0.7367(4) 1.7071(3) 0.2358(2)
C32 C 0.8011(3) 1.7947(3) 0.1856(2)
H31 H 0.8651 1.8009 0.1806
C33 C 0.7360(4) 1.8292(3) 0.2402(2)
H32 H 0.7698 1.8497 0.2619
C34 C 0.6883(4) 1.8872(3) 0.1701(2)
C35 C 0.6361(4) 1.7768(3) 0.3192(2)
H33 H 0.6575 1.8049 0.3432
H34 H 0.6379 1.7287 0.3329
C36 C 0.6101(4) 1.9443(3) 0.2617(2)
H35 H 0.6020 1.9869 0.2409
H36 H 0.6407 1.9544 0.2887
C37 C 0.4501(4) 1.4503(2) 0.2499(2)
C38 C 0.5033(3) 1.3859(2) 0.16736(19)
H37 H 0.5219 1.4036 0.1305
C39 C 0.3983(3) 1.3937(2) 0.1891(2)
H38 H 0.3653 1.4240 0.1663
C40 C 0.4674(3) 1.2735(2) 0.17868(18)
C41 C 0.2839(4) 1.4505(3) 0.2769(2)
H39 H 0.2454 1.4697 0.2534
H40 H 0.2820 1.4898 0.3019
C42 C 0.2974(4) 1.3025(3) 0.1950(2)
H41 H 0.2577 1.3404 0.1814
H42 H 0.3058 1.2581 0.1735
C43 C 0.2291(4) 1.3949(3) 0.3635(2)
C44 C 0.1933(3) 1.3519(3) 0.2889(2)
H43 H 0.1445 1.3804 0.2747
C45 C 0.1529(3) 1.3118(3) 0.3394(2)
H44 H 0.0854 1.3168 0.3467
C46 C 0.2563(3) 1.2285(3) 0.2731(2)
C47 C 0.1382(4) 1.3371(3) 0.4384(2)
H45 H 0.0747 1.3306 0.4449
H46 H 0.1360 1.3806 0.4593
C48 C 0.1771(4) 1.1798(3) 0.3577(2)
H47 H 0.1943 1.1359 0.3342
H48 H 0.1100 1.1897 0.3736
C49 C 0.2541(4) 1.2844(4) 0.4863(2)
C50 C 0.1811(4) 1.2032(3) 0.4553(2)
H49 H 0.1161 1.1991 0.4709
C51 C 0.2433(4) 1.1638(3) 0.4881(2)
H50 H 0.2079 1.1426 0.5202
C52 C 0.2939(4) 1.1138(3) 0.3980(2)
C53 C 0.3520(4) 1.2064(4) 0.5342(2)
H51 H 0.3422 1.1661 0.5572
H52 H 0.3426 1.2491 0.5579
C54 C 0.3828(4) 1.0582(3) 0.4600(3)
H53 H 0.3680 1.0517 0.4991
H54 H 0.3902 1.0117 0.4414
C55 C 0.5162(4) 1.2104(3) 0.5131(2)
C56 C 0.4733(4) 1.1569(3) 0.4450(2)
H55 H 0.4413 1.1852 0.4209
C57 C 0.5777(4) 1.1542(3) 0.4262(2)
H56 H 0.5950 1.1788 0.3921
C58 C 0.5521(4) 1.0385(3) 0.4275(2)
C59 C 0.6836(5) 1.2045(4) 0.4707(3)
H57 H 0.6749 1.2493 0.4918
H58 H 0.7159 1.1656 0.4876
C60 C 0.7174(4) 1.0499(3) 0.3985(3)
H59 H 0.7430 1.0415 0.4294
H60 H 0.7284 1.0037 0.3785
C61 C 0.7335(4) 1.2738(3) 0.3907(3)
C62 C 0.8032(4) 1.1522(3) 0.3830(3)
H61 H 0.8515 1.1309 0.4004
C63 C 0.8437(4) 1.1874(3) 0.3305(2)
H62 H 0.9106 1.1851 0.3239
C64 C 0.7766(4) 1.0945(3) 0.3102(2)
C65 C 0.8162(4) 1.3177(3) 0.3066(3)
H63 H 0.7986 1.3621 0.3295
H64 H 0.8832 1.3080 0.2906
C66 C 0.8552(4) 1.1572(3) 0.2318(2)
H65 H 0.9170 1.1679 0.2232
H66 H 0.8601 1.1128 0.2112
C67 C 0.7005(4) 1.3832(3) 0.2651(2)
C68 C 0.8054(4) 1.2887(3) 0.2114(2)
H67 H 0.8695 1.2925 0.1924
C69 C 0.7381(4) 1.3232(3) 0.1809(2)
H68 H 0.7705 1.3417 0.1465
C70 C 0.7307(4) 1.2023(3) 0.1891(2)
C71 C 0.6158(4) 1.4407(3) 0.2023(2)
H69 H 0.6101 1.4838 0.2247
H70 H 0.6440 1.4499 0.1645
C72 C 0.6323(3) 1.2730(3) 0.1388(2)
H71 H 0.6313 1.2251 0.1257
H72 H 0.6548 1.2999 0.1071
N1 N 0.5412(3) 1.8096(2) 0.32242(16)
N2 N 0.3900(3) 1.8168(2) 0.35355(16)
N3 N 0.5196(3) 1.9307(2) 0.28984(17)
N4 N 0.3731(3) 1.9266(2) 0.30504(17)
N5 N 0.2573(3) 1.7843(2) 0.33523(17)
N6 N 0.2181(3) 1.7276(2) 0.27368(17)
N7 N 0.2458(3) 1.8909(2) 0.28189(17)
N8 N 0.1897(3) 1.8367(2) 0.22637(16)
N9 N 0.2405(3) 1.6567(2) 0.19092(16)
N10 N 0.3279(3) 1.6008(2) 0.11358(16)
N11 N 0.2142(3) 1.7663(2) 0.14384(17)
N12 N 0.2997(3) 1.7094(2) 0.06624(17)
N13 N 0.4845(3) 1.5736(2) 0.0621(2)
N14 N 0.6334(3) 1.5731(2) 0.0413(2)
N15 N 0.4589(3) 1.6831(3) 0.01380(18)
N16 N 0.6089(3) 1.6798(3) -0.00890(18)
N17 N 0.7753(3) 1.5963(2) 0.0480(2)
N18 N 0.8296(3) 1.6508(2) 0.10375(19)
N19 N 0.7484(3) 1.7067(3) 0.00060(19)
N20 N 0.7892(3) 1.7635(2) 0.06165(19)
N21 N 0.7951(3) 1.7205(2) 0.18861(18)
N22 N 0.6986(3) 1.7710(2) 0.26624(18)
N23 N 0.7606(3) 1.8320(2) 0.14640(19)
N24 N 0.6697(3) 1.8843(2) 0.22496(18)
N25 N 0.5242(3) 1.4283(2) 0.20741(18)
N26 N 0.3764(3) 1.4266(2) 0.24411(16)
N27 N 0.5372(3) 1.3095(2) 0.16825(16)
N28 N 0.3864(3) 1.3211(2) 0.18765(17)
N29 N 0.2445(3) 1.3960(2) 0.30792(18)
N30 N 0.1751(3) 1.3472(2) 0.38156(18)
N31 N 0.2522(3) 1.2931(2) 0.25038(17)
N32 N 0.2014(3) 1.2381(2) 0.32510(18)
N33 N 0.1912(3) 1.2758(3) 0.45851(18)
N34 N 0.2853(3) 1.2183(3) 0.50309(19)
N35 N 0.2203(3) 1.1677(2) 0.40047(17)
N36 N 0.3078(3) 1.1088(2) 0.44833(18)
N37 N 0.4456(3) 1.1913(3) 0.49894(19)
N38 N 0.5938(3) 1.1908(3) 0.47054(19)
N39 N 0.4675(4) 1.0833(2) 0.4424(2)
N40 N 0.6175(4) 1.0791(3) 0.4184(2)
N41 N 0.7378(3) 1.2095(3) 0.4159(2)
N42 N 0.7921(4) 1.2592(3) 0.3406(2)
N43 N 0.7629(3) 1.0972(2) 0.36402(19)
N44 N 0.8255(3) 1.1455(2) 0.2892(2)
N45 N 0.7722(3) 1.3278(2) 0.2637(2)
N46 N 0.6771(3) 1.3814(2) 0.2184(2)
N47 N 0.7952(3) 1.2145(2) 0.2137(2)
N48 N 0.6944(3) 1.2665(2) 0.17069(19)
O11 O 0.4868(2) 1.70598(17) 0.32963(14)
O12 O 0.3138(2) 1.66271(17) 0.31933(14)
O13 O 0.3629(3) 1.56492(18) 0.19240(15)
O14 O 0.5863(3) 1.46546(19) 0.05729(15)
O15 O 0.7622(3) 1.5549(2) 0.13262(18)
O16 O 0.7211(3) 1.64833(19) 0.24876(17)
O17 O 0.6473(3) 1.9313(2) 0.14535(17)
O18 O 0.4374(3) 1.99049(19) 0.23468(14)
O19 O 0.2650(3) 1.9266(2) 0.19421(16)
O20 O 0.2922(3) 1.83068(19) 0.07757(16)
O21 O 0.5233(3) 1.7347(2) -0.06425(15)
O22 O 0.6825(3) 1.8274(2) 0.02266(17)
O23 O 0.4463(3) 1.4892(2) 0.29010(15)
O24 O 0.2563(3) 1.4321(2) 0.39174(17)
O25 O 0.2764(3) 1.3398(2) 0.49425(17)
O26 O 0.5109(3) 1.2414(2) 0.55556(16)
O27 O 0.6853(3) 1.3306(2) 0.4108(2)
O28 O 0.6648(3) 1.4283(2) 0.30254(18)
O29 O 0.4774(2) 1.20829(18) 0.17866(14)
O30 O 0.3005(2) 1.17113(18) 0.24990(14)
O31 O 0.3400(3) 1.0748(2) 0.35821(16)
O32 O 0.5673(3) 0.9725(2) 0.42176(19)
O33 O 0.7515(3) 1.0527(2) 0.28396(19)
O34 O 0.7110(3) 1.14547(19) 0.18357(16)
Dy2_2 Dy 0.430957(17) 2.097784(11) 0.190390(9)
O18_2 O 0.4374(3) 0.99049(19) 0.23468(14)
loop_
_geom_bond_atom_site_label_1
_geom_bond_atom_site_label_2
_geom_bond_site_symmetry_1
_geom_bond_site_symmetry_2
O1 Dy1 1_555 1_555
O2 Dy1 1_555 1_555
O3 Dy1 1_555 1_555
O4 Dy1 1_555 1_555
O5 Dy1 1_555 1_555
O6 Dy2 1_555 1_555
O7 Dy2 1_555 1_555
O8 Dy2 1_555 1_555
O9 Dy2 1_555 1_555
O10 Dy2 1_555 1_555
Dy1 O11 1_555 1_555
Dy2 O29 1_555 1_555
C1 N1 1_555 1_555
C2 H1 1_555 1_555
C3 C2 1_555 1_555
H2 C3 1_555 1_555
C4 N3 1_555 1_555
C5 H3 1_555 1_555
H4 C5 1_555 1_555
C6 H5 1_555 1_555
H6 C6 1_555 1_555
C7 N5 1_555 1_555
C8 H7 1_555 1_555
C9 C8 1_555 1_555
H8 C9 1_555 1_555
C10 N7 1_555 1_555
C11 H9 1_555 1_555
H10 C11 1_555 1_555
C12 H11 1_555 1_555
H12 C12 1_555 1_555
C13 N9 1_555 1_555
C14 H13 1_555 1_555
C15 C14 1_555 1_555
H14 C15 1_555 1_555
C16 N11 1_555 1_555
C17 H15 1_555 1_555
H16 C17 1_555 1_555
C18 H17 1_555 1_555
H18 C18 1_555 1_555
C19 N13 1_555 1_555
C20 H19 1_555 1_555
C21 C20 1_555 1_555
H20 C21 1_555 1_555
C22 N15 1_555 1_555
C23 H21 1_555 1_555
H22 C23 1_555 1_555
C24 H23 1_555 1_555
H24 C24 1_555 1_555
C25 N17 1_555 1_555
C26 H25 1_555 1_555
C27 C26 1_555 1_555
H26 C27 1_555 1_555
C28 N19 1_555 1_555
C29 H27 1_555 1_555
H28 C29 1_555 1_555
C30 H29 1_555 1_555
H30 C30 1_555 1_555
C31 N21 1_555 1_555
C32 H31 1_555 1_555
C33 C32 1_555 1_555
H32 C33 1_555 1_555
C34 N23 1_555 1_555
C35 H33 1_555 1_555
H34 C35 1_555 1_555
C36 H35 1_555 1_555
H36 C36 1_555 1_555
C37 N25 1_555 1_555
C38 H37 1_555 1_555
C39 C38 1_555 1_555
H38 C39 1_555 1_555
C40 N27 1_555 1_555
C41 H39 1_555 1_555
H40 C41 1_555 1_555
C42 H41 1_555 1_555
H42 C42 1_555 1_555
C43 N29 1_555 1_555
C44 H43 1_555 1_555
C45 C44 1_555 1_555
H44 C45 1_555 1_555
C46 N31 1_555 1_555
C47 H45 1_555 1_555
H46 C47 1_555 1_555
C48 H47 1_555 1_555
H48 C48 1_555 1_555
C49 N33 1_555 1_555
C50 H49 1_555 1_555
C51 C50 1_555 1_555
H50 C51 1_555 1_555
C52 N35 1_555 1_555
C53 H51 1_555 1_555
H52 C53 1_555 1_555
C54 H53 1_555 1_555
H54 C54 1_555 1_555
C55 N37 1_555 1_555
C56 H55 1_555 1_555
C57 C56 1_555 1_555
H56 C57 1_555 1_555
C58 N39 1_555 1_555
C59 H57 1_555 1_555
H58 C59 1_555 1_555
C60 H59 1_555 1_555
H60 C60 1_555 1_555
C61 N41 1_555 1_555
C62 H61 1_555 1_555
C63 C62 1_555 1_555
H62 C63 1_555 1_555
C64 N43 1_555 1_555
C65 H63 1_555 1_555
H64 C65 1_555 1_555
C66 H65 1_555 1_555
H66 C66 1_555 1_555
C67 N45 1_555 1_555
C68 H67 1_555 1_555
C69 C68 1_555 1_555
H68 C69 1_555 1_555
C70 N47 1_555 1_555
C71 H69 1_555 1_555
H70 C71 1_555 1_555
C72 H71 1_555 1_555
H72 C72 1_555 1_555
N1 C2 1_555 1_555
N2 C1 1_555 1_555
N3 C2 1_555 1_555
N4 C3 1_555 1_555
N5 C5 1_555 1_555
N6 C7 1_555 1_555
N7 C6 1_555 1_555
N8 C9 1_555 1_555
N9 C11 1_555 1_555
N10 C13 1_555 1_555
N11 C12 1_555 1_555
N12 C15 1_555 1_555
N13 C17 1_555 1_555
N14 C19 1_555 1_555
N15 C18 1_555 1_555
N16 C21 1_555 1_555
N17 C23 1_555 1_555
N18 C25 1_555 1_555
N19 C24 1_555 1_555
N20 C27 1_555 1_555
N21 C29 1_555 1_555
N22 C31 1_555 1_555
N23 C30 1_555 1_555
N24 C33 1_555 1_555
N25 C38 1_555 1_555
N26 C37 1_555 1_555
N27 C38 1_555 1_555
N28 C39 1_555 1_555
N29 C41 1_555 1_555
N30 C43 1_555 1_555
N31 C42 1_555 1_555
N32 C45 1_555 1_555
N33 C47 1_555 1_555
N34 C49 1_555 1_555
N35 C48 1_555 1_555
N36 C51 1_555 1_555
N37 C53 1_555 1_555
N38 C55 1_555 1_555
N39 C54 1_555 1_555
N40 C57 1_555 1_555
N41 C59 1_555 1_555
N42 C61 1_555 1_555
N43 C60 1_555 1_555
N44 C63 1_555 1_555
N45 C65 1_555 1_555
N46 C67 1_555 1_555
N47 C66 1_555 1_555
N48 C69 1_555 1_555
O11 C1 1_555 1_555
O12 Dy1 1_555 1_555
O13 C13 1_555 1_555
O14 C19 1_555 1_555
O15 C25 1_555 1_555
O16 C31 1_555 1_555
O17 C34 1_555 1_555
O18 C4 1_555 1_555
O19 C10 1_555 1_555
O20 C16 1_555 1_555
O21 C22 1_555 1_555
O22 C28 1_555 1_555
O23 Dy1 1_555 1_555
O24 C43 1_555 1_555
O25 C49 1_555 1_555
O26 C55 1_555 1_555
O27 C61 1_555 1_555
O28 C67 1_555 1_555
O29 C40 1_555 1_555
O30 Dy2 1_555 1_555
O31 C52 1_555 1_555
O32 C58 1_555 1_555
O33 C64 1_555 1_555
O34 C70 1_555 1_555
Zn1 Cl1 1_555 1_555
Cl2 Zn1 1_555 1_555
Cl3 Zn1 1_555 1_555
Cl4 Zn1 1_555 1_555
Zn2 Cl5 1_555 1_555
Cl6 Zn2 1_555 1_555
Cl7 Zn2 1_555 1_555
Cl8 Zn2 1_555 1_555
N49 O35 1_555 1_555
O36 N49 1_555 1_555
O37 N49 1_555 1_555
N50 O38 1_555 1_555
O39 N50 1_555 1_555
O40 N50 1_555 1_555
Dy2_2 O18 1_555 1_555
O18_2 Dy2 1_555 1_555
C3 N2 1_555 1_555
C4 N4 1_555 1_555
C5 N2 1_555 1_555
C6 N4 1_555 1_555
C7 O12 1_555 1_555
C8 N5 1_555 1_555
C8 N7 1_555 1_555
C9 N6 1_555 1_555
C10 N8 1_555 1_555
C11 N6 1_555 1_555
C12 N8 1_555 1_555
C14 N9 1_555 1_555
C14 N11 1_555 1_555
C15 N10 1_555 1_555
C16 N12 1_555 1_555
C17 N10 1_555 1_555
C18 N12 1_555 1_555
C20 N13 1_555 1_555
C20 N15 1_555 1_555
C21 N14 1_555 1_555
C22 N16 1_555 1_555
C23 N14 1_555 1_555
C24 N16 1_555 1_555
C26 N17 1_555 1_555
C26 N19 1_555 1_555
C27 N18 1_555 1_555
C28 N20 1_555 1_555
C29 N18 1_555 1_555
C30 N20 1_555 1_555
C32 N21 1_555 1_555
C32 N23 1_555 1_555
C33 N22 1_555 1_555
C34 N24 1_555 1_555
C35 N1 1_555 1_555
C35 N22 1_555 1_555
C36 N3 1_555 1_555
C36 N24 1_555 1_555
C37 O23 1_555 1_555
C39 N26 1_555 1_555
C40 N28 1_555 1_555
C41 N26 1_555 1_555
C42 N28 1_555 1_555
C44 N29 1_555 1_555
C44 N31 1_555 1_555
C45 N30 1_555 1_555
C46 N32 1_555 1_555
C46 O30 1_555 1_555
C47 N30 1_555 1_555
C48 N32 1_555 1_555
C50 N33 1_555 1_555
C50 N35 1_555 1_555
C51 N34 1_555 1_555
C52 N36 1_555 1_555
C53 N34 1_555 1_555
C54 N36 1_555 1_555
C56 N37 1_555 1_555
C56 N39 1_555 1_555
C57 N38 1_555 1_555
C58 N40 1_555 1_555
C59 N38 1_555 1_555
C60 N40 1_555 1_555
C62 N41 1_555 1_555
C62 N43 1_555 1_555
C63 N42 1_555 1_555
C64 N44 1_555 1_555
C65 N42 1_555 1_555
C66 N44 1_555 1_555
C68 N45 1_555 1_555
C68 N47 1_555 1_555
C69 N46 1_555 1_555
C70 N48 1_555 1_555
C71 N25 1_555 1_555
C71 N46 1_555 1_555
C72 N27 1_555 1_555
C72 N48 1_555 1_555

#END
