
#######################################################################
#
#                 Cambridge Crystallographic Data Centre
#                                CCDC 
#
#######################################################################
#
# If this CIF has been generated from an entry in the Cambridge 
# Structural Database, then it will include bibliographic, chemical, 
# crystal, experimental, refinement or atomic coordinate data resulting 
# from the CCDC's data processing and validation procedures.
#
#######################################################################

data_DUGWEJ
_symmetry_cell_setting           triclinic
_symmetry_space_group_name_H-M   'P -1'
_symmetry_Int_Tables_number      2
_space_group_name_Hall           '-P 1'
loop_
_symmetry_equiv_pos_site_id
_symmetry_equiv_pos_as_xyz
1 x,y,z
2 -x,-y,-z
_cell_length_a                   15.3656(6)
_cell_length_b                   19.0438(8)
_cell_length_c                   25.6740(10)
_cell_angle_alpha                89.8730(10)
_cell_angle_beta                 73.8250(10)
_cell_angle_gamma                78.1370(10)
_cell_volume                     7049.1
loop_
_atom_site_label
_atom_site_type_symbol
_atom_site_fract_x
_atom_site_fract_y
_atom_site_fract_z
Zn1 Zn 0.09892(9) -0.24194(8) 0.48997(5)
Cl1 Cl 0.1959(2) -0.16667(19) 0.46189(14)
Cl2 Cl 0.04689(17) -0.2321(2) 0.58197(10)
Cl3 Cl -0.0248(3) -0.2124(3) 0.45523(17)
Cl4 Cl 0.1775(3) -0.35502(18) 0.46491(15)
Zn2 Zn 0.09888(8) -0.74429(7) 0.15715(5)
Cl5 Cl 0.18605(19) -0.85709(14) 0.13646(10)
Cl6 Cl 0.03861(16) -0.73379(17) 0.24904(9)
Cl7 Cl 0.1818(2) -0.65932(17) 0.13269(14)
Cl8 Cl -0.0160(3) -0.7335(3) 0.11588(15)
N49 N 0.498(2) -0.7693(13) 0.3229(7)
O35 O 0.5690(14) -0.7548(12) 0.3266(13)
O36 O 0.476(2) -0.8172(15) 0.3518(12)
O37 O 0.453(2) -0.7301(17) 0.3014(11)
N50 N 0.4986(7) -0.2681(5) 0.1764(4)
O38 O 0.4474(9) -0.2232(8) 0.2133(5)
O39 O 0.5807(7) -0.2629(7) 0.1557(6)
O40 O 0.4632(12) -0.3110(10) 0.1566(7)
O1 O 0.5137(4) -0.6122(3) 0.2592(2)
O2 O 0.5794(5) -0.6433(3) 0.0773(2)
O3 O 0.3926(4) -0.5741(3) 0.1886(3)
O4 O 0.4921(5) -0.4949(3) 0.1173(2)
O5 O 0.6839(5) -0.5563(3) 0.1075(3)
O6 O 0.5260(4) -0.1167(3) 0.2301(2)
O7 O 0.5977(5) -0.1467(3) 0.3888(2)
O8 O 0.7046(4) -0.0622(3) 0.3143(3)
O9 O 0.4079(4) -0.0757(3) 0.3423(2)
O10 O 0.5185(6) 0.0007(3) 0.3763(3)
Ho1 Ho 0.55430(2) -0.593224(17) 0.164175(13)
Ho2 Ho 0.56957(2) -0.098105(16) 0.309537(13)
C1 C 0.7327(5) -0.7196(4) 0.1902(3)
C2 C 0.8363(5) -0.8013(4) 0.2232(3)
H1 H 0.9039 -0.8034 0.2103
C3 C 0.8036(5) -0.8416(4) 0.1846(3)
H2 H 0.8563 -0.8673 0.1545
C4 C 0.7635(5) -0.8891(4) 0.2695(3)
C5 C 0.6954(5) -0.7948(4) 0.1270(3)
H3 H 0.7369 -0.8303 0.0986
H4 H 0.6834 -0.7493 0.1098
C6 C 0.7227(5) -0.9487(4) 0.1964(3)
H5 H 0.7627 -0.9646 0.1597
H6 H 0.7278 -0.9897 0.2193
C7 C 0.5272(5) -0.7716(4) 0.1654(3)
C8 C 0.6007(5) -0.8915(4) 0.1488(3)
H7 H 0.6329 -0.9194 0.1138
C9 C 0.4969(5) -0.8865(4) 0.1642(3)
H8 H 0.4772 -0.9038 0.1339
C10 C 0.5571(5) -0.9528(4) 0.2273(3)
C11 C 0.3636(6) -0.7765(4) 0.1800(3)
H9 H 0.3618 -0.7284 0.1661
H10 H 0.3424 -0.8051 0.1563
C12 C 0.3901(6) -0.9441(4) 0.2387(3)
H11 H 0.3591 -0.9547 0.2120
H12 H 0.3986 -0.9867 0.2597
C13 C 0.2636(5) -0.7068(4) 0.2646(3)
C14 C 0.2639(5) -0.8289(4) 0.2593(3)
H13 H 0.2302 -0.8492 0.2373
C15 C 0.1984(5) -0.7955(4) 0.3149(3)
H14 H 0.1342 -0.8017 0.3200
C16 C 0.3123(5) -0.8866(4) 0.3299(3)
C17 C 0.1399(6) -0.6639(4) 0.3494(4)
H15 H 0.1315 -0.6194 0.3304
H16 H 0.0795 -0.6774 0.3616
C18 C 0.1951(6) -0.8245(4) 0.4116(3)
H17 H 0.1282 -0.8198 0.4177
H18 H 0.2177 -0.8680 0.4285
C19 C 0.2122(6) -0.5961(5) 0.4011(4)
C20 C 0.1526(6) -0.6912(4) 0.4443(3)
H19 H 0.0861 -0.6923 0.4589
C21 C 0.1847(6) -0.6514(4) 0.4840(4)
H20 H 0.1320 -0.6300 0.5156
C22 C 0.2659(5) -0.7718(4) 0.4716(3)
C23 C 0.2662(6) -0.5461(4) 0.4717(4)
H21 H 0.2399 -0.5373 0.5112
H22 H 0.2531 -0.5004 0.4549
C24 C 0.3008(6) -0.6959(5) 0.5383(3)
H23 H 0.3103 -0.7390 0.5586
H24 H 0.2650 -0.6556 0.5642
C25 C 0.4281(6) -0.5309(4) 0.4465(3)
C26 C 0.4086(6) -0.6480(4) 0.4571(3)
H25 H 0.3935 -0.6760 0.4296
C27 C 0.5126(5) -0.6492(4) 0.4422(3)
H26 H 0.5462 -0.6761 0.4070
C28 C 0.4701(6) -0.7033(4) 0.5240(3)
C29 C 0.5994(6) -0.5496(4) 0.4241(3)
H27 H 0.5900 -0.5033 0.4075
H28 H 0.6184 -0.5424 0.4568
C30 C 0.6369(6) -0.6988(4) 0.4882(3)
H29 H 0.6473 -0.6580 0.5071
H30 H 0.6487 -0.7415 0.5088
C31 C 0.6847(5) -0.6042(4) 0.3317(3)
C32 C 0.7393(5) -0.6537(4) 0.4035(3)
H31 H 0.7754 -0.6311 0.4225
C33 C 0.8007(5) -0.6942(4) 0.3495(3)
H32 H 0.8668 -0.6921 0.3426
C34 C 0.7290(5) -0.7761(4) 0.4068(3)
C35 C 0.8028(5) -0.6674(4) 0.2514(3)
H33 H 0.8702 -0.6749 0.2445
H34 H 0.7824 -0.6237 0.2341
C36 C 0.8428(5) -0.8272(4) 0.3198(3)
H35 H 0.9064 -0.8197 0.3070
H36 H 0.8445 -0.8710 0.3399
C37 C 0.5502(5) -0.4508(4) 0.2495(3)
C38 C 0.6020(5) -0.3946(4) 0.3118(3)
H37 H 0.6346 -0.4254 0.3346
C39 C 0.4975(5) -0.3865(4) 0.3323(3)
H38 H 0.4784 -0.4040 0.3692
C40 C 0.5333(5) -0.2735(4) 0.3212(3)
C41 C 0.3846(6) -0.4414(4) 0.2986(4)
H39 H 0.3563 -0.4500 0.3366
H40 H 0.3902 -0.4849 0.2765
C42 C 0.3684(5) -0.2734(4) 0.3614(3)
H41 H 0.3461 -0.3007 0.3930
H42 H 0.3691 -0.2255 0.3749
C43 C 0.2994(6) -0.3839(4) 0.2345(4)
C44 C 0.2615(5) -0.3239(4) 0.3200(3)
H43 H 0.2286 -0.3420 0.3545
C45 C 0.1950(6) -0.2886(5) 0.2887(4)
H44 H 0.1304 -0.2916 0.3079
C46 C 0.2691(5) -0.2032(4) 0.3104(3)
C47 C 0.1828(7) -0.3178(5) 0.1943(4)
H45 H 0.1154 -0.3078 0.2102
H46 H 0.2004 -0.3624 0.1714
C48 C 0.1446(6) -0.1572(5) 0.2686(3)
H47 H 0.1397 -0.1126 0.2893
H48 H 0.0826 -0.1679 0.2776
C49 C 0.2669(7) -0.2730(5) 0.1096(4)
C50 C 0.1560(6) -0.1856(5) 0.1700(4)
H49 H 0.0887 -0.1827 0.1766
C51 C 0.1947(6) -0.1513(5) 0.1189(4)
H50 H 0.1454 -0.1302 0.1020
C52 C 0.2234(6) -0.0936(5) 0.1906(3)
C53 C 0.3159(6) -0.2044(5) 0.0298(3)
H51 H 0.2830 -0.1655 0.0129
H52 H 0.3244 -0.2494 0.0088
C54 C 0.2826(7) -0.0485(5) 0.1014(4)
H53 H 0.2717 -0.0023 0.1214
H54 H 0.2578 -0.0399 0.0701
C55 C 0.4830(6) -0.2105(4) -0.0133(3)
C56 C 0.4219(6) -0.1546(4) 0.0738(3)
H55 H 0.4044 -0.1798 0.1076
C57 C 0.5271(6) -0.1571(4) 0.0548(3)
H56 H 0.5596 -0.1855 0.0788
C58 C 0.4471(7) -0.0377(4) 0.0729(3)
C59 C 0.6484(6) -0.2070(5) -0.0334(3)
H57 H 0.6585 -0.1666 -0.0564
H58 H 0.6581 -0.2496 -0.0574
C60 C 0.6193(6) -0.0587(5) 0.0397(4)
H59 H 0.6346 -0.0529 0.0005
H60 H 0.6129 -0.0120 0.0579
C61 C 0.7478(6) -0.2845(5) 0.0136(3)
C62 C 0.7563(6) -0.1637(5) 0.0120(3)
H61 H 0.7915 -0.1422 -0.0201
C63 C 0.8204(6) -0.2043(5) 0.0447(3)
H62 H 0.8857 -0.2003 0.0289
C64 C 0.7053(6) -0.1127(4) 0.1021(3)
C65 C 0.8620(6) -0.3373(5) 0.0612(3)
H63 H 0.9263 -0.3318 0.0538
H64 H 0.8628 -0.3807 0.0405
C66 C 0.8245(6) -0.1796(4) 0.1423(3)
H65 H 0.8060 -0.1353 0.1658
H66 H 0.8920 -0.1891 0.1268
C67 C 0.7723(6) -0.3960(4) 0.1370(3)
C68 C 0.8486(6) -0.3128(4) 0.1606(3)
H67 H 0.9164 -0.3179 0.1534
C69 C 0.8082(5) -0.3511(4) 0.2113(3)
H68 H 0.8574 -0.3798 0.2253
C70 C 0.7457(5) -0.2296(4) 0.2258(3)
C71 C 0.7183(5) -0.4521(4) 0.2225(3)
H69 H 0.7578 -0.4720 0.2454
H70 H 0.7191 -0.4910 0.1974
C72 C 0.7042(5) -0.3040(4) 0.3063(3)
H71 H 0.7438 -0.3427 0.3197
H72 H 0.6962 -0.2598 0.3282
N1 N 0.7821(4) -0.7280(3) 0.2263(2)
N2 N 0.7428(5) -0.7852(3) 0.1644(2)
N3 N 0.8106(4) -0.8375(3) 0.2738(2)
N4 N 0.7556(5) -0.8913(3) 0.2174(3)
N5 N 0.6102(4) -0.8172(3) 0.1460(2)
N6 N 0.4592(4) -0.8097(3) 0.1779(2)
N7 N 0.6280(4) -0.9271(3) 0.1947(2)
N8 N 0.4806(4) -0.9311(3) 0.2101(2)
N9 N 0.3011(5) -0.7705(3) 0.2341(3)
N10 N 0.2044(5) -0.7203(3) 0.3113(3)
N11 N 0.3304(4) -0.8847(3) 0.2750(3)
N12 N 0.2399(4) -0.8331(3) 0.3540(3)
N13 N 0.1688(5) -0.6500(4) 0.3961(3)
N14 N 0.2227(5) -0.5965(4) 0.4528(3)
N15 N 0.2104(5) -0.7632(4) 0.4377(3)
N16 N 0.2505(5) -0.7067(4) 0.5007(3)
N17 N 0.3656(5) -0.5721(4) 0.4591(3)
N18 N 0.5139(5) -0.5741(4) 0.4390(3)
N19 N 0.3914(5) -0.6805(4) 0.5086(3)
N20 N 0.5404(5) -0.6845(4) 0.4864(3)
N21 N 0.6716(4) -0.6007(3) 0.3864(2)
N22 N 0.7596(4) -0.6567(3) 0.3094(2)
N23 N 0.7011(4) -0.7105(3) 0.4340(3)
N24 N 0.7860(5) -0.7671(3) 0.3563(3)
N25 N 0.6236(4) -0.4266(3) 0.2570(2)
N26 N 0.4761(4) -0.4287(3) 0.2930(3)
N27 N 0.6153(4) -0.3214(3) 0.3129(2)
N28 N 0.4629(4) -0.3093(3) 0.3320(2)
N29 N 0.3240(5) -0.3824(3) 0.2822(3)
N30 N 0.2263(5) -0.3286(4) 0.2377(3)
N31 N 0.3051(5) -0.2662(3) 0.3293(3)
N32 N 0.2049(5) -0.2142(4) 0.2863(3)
N33 N 0.2070(5) -0.2596(4) 0.1602(3)
N34 N 0.2615(5) -0.2093(4) 0.0844(3)
N35 N 0.1732(5) -0.1451(4) 0.2116(3)
N36 N 0.2354(5) -0.0962(4) 0.1360(3)
N37 N 0.4073(5) -0.1905(4) 0.0285(3)
N38 N 0.5545(5) -0.1917(4) 0.0005(3)
N39 N 0.3828(5) -0.0789(4) 0.0822(3)
N40 N 0.5318(6) -0.0826(4) 0.0579(3)
N41 N 0.7157(5) -0.2195(4) -0.0034(3)
N42 N 0.8104(5) -0.2765(4) 0.0415(3)
N43 N 0.6916(5) -0.1093(4) 0.0517(3)
N44 N 0.7812(5) -0.1685(4) 0.0987(3)
N45 N 0.8271(5) -0.3478(4) 0.1184(3)
N46 N 0.7566(5) -0.3966(4) 0.1917(3)
N47 N 0.7999(4) -0.2389(3) 0.1754(3)
N48 N 0.7497(4) -0.2940(3) 0.2498(2)
O11 O 0.6864(4) -0.6630(3) 0.1804(2)
O12 O 0.5140(4) -0.7059(2) 0.1701(2)
O13 O 0.2784(4) -0.6480(3) 0.2512(2)
O14 O 0.2345(5) -0.5527(3) 0.3677(3)
O15 O 0.4132(4) -0.4654(3) 0.4432(2)
O16 O 0.6359(4) -0.5650(3) 0.3081(2)
O17 O 0.7358(4) -0.9276(3) 0.3057(2)
O18 O 0.5628(4) -0.9914(3) 0.2650(2)
O19 O 0.3529(4) -0.9308(3) 0.3545(2)
O20 O 0.3170(4) -0.8265(3) 0.4777(3)
O21 O 0.4761(4) -0.7361(3) 0.5645(2)
O22 O 0.7086(4) -0.8313(3) 0.4226(2)
O23 O 0.5542(4) -0.4895(3) 0.2100(2)
O24 O 0.3360(5) -0.4294(3) 0.1975(3)
O25 O 0.3135(5) -0.3305(4) 0.0900(3)
O26 O 0.4896(5) -0.2420(3) -0.0556(2)
O27 O 0.7244(5) -0.3407(4) 0.0059(3)
O28 O 0.7439(5) -0.4329(3) 0.1086(2)
O29 O 0.5239(4) -0.2078(3) 0.3216(2)
O30 O 0.2882(4) -0.1451(3) 0.3168(2)
O31 O 0.2464(5) -0.0516(3) 0.2165(3)
O32 O 0.4321(5) 0.0277(3) 0.0774(3)
O33 O 0.6603(4) -0.0751(3) 0.1420(2)
O34 O 0.7004(4) -0.1714(3) 0.2505(2)
Ho2_2 Ho 0.56957(2) -1.098105(16) 0.309537(13)
O18_2 O 0.5628(4) 0.0086(3) 0.2650(2)
loop_
_geom_bond_atom_site_label_1
_geom_bond_atom_site_label_2
_geom_bond_site_symmetry_1
_geom_bond_site_symmetry_2
O1 Ho1 1_555 1_555
O2 Ho1 1_555 1_555
O3 Ho1 1_555 1_555
O4 Ho1 1_555 1_555
O5 Ho1 1_555 1_555
O6 Ho2 1_555 1_555
O7 Ho2 1_555 1_555
O8 Ho2 1_555 1_555
O9 Ho2 1_555 1_555
O10 Ho2 1_555 1_555
Ho1 O11 1_555 1_555
Ho2 O29 1_555 1_555
C1 N1 1_555 1_555
C2 H1 1_555 1_555
C3 C2 1_555 1_555
H2 C3 1_555 1_555
C4 N3 1_555 1_555
C5 H3 1_555 1_555
H4 C5 1_555 1_555
C6 H5 1_555 1_555
H6 C6 1_555 1_555
C7 N5 1_555 1_555
C8 H7 1_555 1_555
C9 C8 1_555 1_555
H8 C9 1_555 1_555
C10 N7 1_555 1_555
C11 H9 1_555 1_555
H10 C11 1_555 1_555
C12 H11 1_555 1_555
H12 C12 1_555 1_555
C13 N9 1_555 1_555
C14 H13 1_555 1_555
C15 C14 1_555 1_555
H14 C15 1_555 1_555
C16 N11 1_555 1_555
C17 H15 1_555 1_555
H16 C17 1_555 1_555
C18 H17 1_555 1_555
H18 C18 1_555 1_555
C19 N13 1_555 1_555
C20 H19 1_555 1_555
C21 C20 1_555 1_555
H20 C21 1_555 1_555
C22 N15 1_555 1_555
C23 H21 1_555 1_555
H22 C23 1_555 1_555
C24 H23 1_555 1_555
H24 C24 1_555 1_555
C25 N17 1_555 1_555
C26 H25 1_555 1_555
C27 C26 1_555 1_555
H26 C27 1_555 1_555
C28 N19 1_555 1_555
C29 H27 1_555 1_555
H28 C29 1_555 1_555
C30 H29 1_555 1_555
H30 C30 1_555 1_555
C31 N21 1_555 1_555
C32 H31 1_555 1_555
C33 C32 1_555 1_555
H32 C33 1_555 1_555
C34 N23 1_555 1_555
C35 H33 1_555 1_555
H34 C35 1_555 1_555
C36 H35 1_555 1_555
H36 C36 1_555 1_555
C37 N25 1_555 1_555
C38 H37 1_555 1_555
C39 C38 1_555 1_555
H38 C39 1_555 1_555
C40 N27 1_555 1_555
C41 H39 1_555 1_555
H40 C41 1_555 1_555
C42 H41 1_555 1_555
H42 C42 1_555 1_555
C43 N29 1_555 1_555
C44 H43 1_555 1_555
C45 C44 1_555 1_555
H44 C45 1_555 1_555
C46 N31 1_555 1_555
C47 H45 1_555 1_555
H46 C47 1_555 1_555
C48 H47 1_555 1_555
H48 C48 1_555 1_555
C49 N33 1_555 1_555
C50 H49 1_555 1_555
C51 C50 1_555 1_555
H50 C51 1_555 1_555
C52 N35 1_555 1_555
C53 H51 1_555 1_555
H52 C53 1_555 1_555
C54 H53 1_555 1_555
H54 C54 1_555 1_555
C55 N37 1_555 1_555
C56 H55 1_555 1_555
C57 C56 1_555 1_555
H56 C57 1_555 1_555
C58 N39 1_555 1_555
C59 H57 1_555 1_555
H58 C59 1_555 1_555
C60 H59 1_555 1_555
H60 C60 1_555 1_555
C61 N41 1_555 1_555
C62 H61 1_555 1_555
C63 C62 1_555 1_555
H62 C63 1_555 1_555
C64 N43 1_555 1_555
C65 H63 1_555 1_555
H64 C65 1_555 1_555
C66 H65 1_555 1_555
H66 C66 1_555 1_555
C67 N45 1_555 1_555
C68 H67 1_555 1_555
C69 C68 1_555 1_555
H68 C69 1_555 1_555
C70 N47 1_555 1_555
C71 H69 1_555 1_555
H70 C71 1_555 1_555
C72 H71 1_555 1_555
H72 C72 1_555 1_555
N1 C2 1_555 1_555
N2 C1 1_555 1_555
N3 C2 1_555 1_555
N4 C3 1_555 1_555
N5 C5 1_555 1_555
N6 C7 1_555 1_555
N7 C6 1_555 1_555
N8 C9 1_555 1_555
N9 C11 1_555 1_555
N10 C13 1_555 1_555
N11 C12 1_555 1_555
N12 C15 1_555 1_555
N13 C17 1_555 1_555
N14 C19 1_555 1_555
N15 C18 1_555 1_555
N16 C21 1_555 1_555
N17 C23 1_555 1_555
N18 C25 1_555 1_555
N19 C24 1_555 1_555
N20 C27 1_555 1_555
N21 C29 1_555 1_555
N22 C31 1_555 1_555
N23 C30 1_555 1_555
N24 C33 1_555 1_555
N25 C38 1_555 1_555
N26 C37 1_555 1_555
N27 C38 1_555 1_555
N28 C39 1_555 1_555
N29 C41 1_555 1_555
N30 C43 1_555 1_555
N31 C42 1_555 1_555
N32 C45 1_555 1_555
N33 C47 1_555 1_555
N34 C49 1_555 1_555
N35 C48 1_555 1_555
N36 C51 1_555 1_555
N37 C53 1_555 1_555
N38 C55 1_555 1_555
N39 C54 1_555 1_555
N40 C57 1_555 1_555
N41 C59 1_555 1_555
N42 C61 1_555 1_555
N43 C60 1_555 1_555
N44 C63 1_555 1_555
N45 C65 1_555 1_555
N46 C67 1_555 1_555
N47 C66 1_555 1_555
N48 C69 1_555 1_555
O11 C1 1_555 1_555
O12 Ho1 1_555 1_555
O13 C13 1_555 1_555
O14 C19 1_555 1_555
O15 C25 1_555 1_555
O16 C31 1_555 1_555
O17 C4 1_555 1_555
O18 C10 1_555 1_555
O19 C16 1_555 1_555
O20 C22 1_555 1_555
O21 C28 1_555 1_555
O22 C34 1_555 1_555
O23 Ho1 1_555 1_555
O24 C43 1_555 1_555
O25 C49 1_555 1_555
O26 C55 1_555 1_555
O27 C61 1_555 1_555
O28 C67 1_555 1_555
O29 C40 1_555 1_555
O30 C46 1_555 1_555
O31 C52 1_555 1_555
O32 C58 1_555 1_555
O33 C64 1_555 1_555
O34 Ho2 1_555 1_555
Zn1 Cl1 1_555 1_555
Cl2 Zn1 1_555 1_555
Cl3 Zn1 1_555 1_555
Cl4 Zn1 1_555 1_555
Zn2 Cl5 1_555 1_555
Cl6 Zn2 1_555 1_555
Cl7 Zn2 1_555 1_555
Cl8 Zn2 1_555 1_555
N49 O35 1_555 1_555
O36 N49 1_555 1_555
O37 N49 1_555 1_555
N50 O38 1_555 1_555
O39 N50 1_555 1_555
O40 N50 1_555 1_555
Ho2_2 O18 1_555 1_555
O18_2 Ho2 1_555 1_555
C3 N2 1_555 1_555
C4 N4 1_555 1_555
C5 N2 1_555 1_555
C6 N4 1_555 1_555
C7 O12 1_555 1_555
C8 N5 1_555 1_555
C8 N7 1_555 1_555
C9 N6 1_555 1_555
C10 N8 1_555 1_555
C11 N6 1_555 1_555
C12 N8 1_555 1_555
C14 N9 1_555 1_555
C14 N11 1_555 1_555
C15 N10 1_555 1_555
C16 N12 1_555 1_555
C17 N10 1_555 1_555
C18 N12 1_555 1_555
C20 N13 1_555 1_555
C20 N15 1_555 1_555
C21 N14 1_555 1_555
C22 N16 1_555 1_555
C23 N14 1_555 1_555
C24 N16 1_555 1_555
C26 N17 1_555 1_555
C26 N19 1_555 1_555
C27 N18 1_555 1_555
C28 N20 1_555 1_555
C29 N18 1_555 1_555
C30 N20 1_555 1_555
C32 N21 1_555 1_555
C32 N23 1_555 1_555
C33 N22 1_555 1_555
C34 N24 1_555 1_555
C35 N1 1_555 1_555
C35 N22 1_555 1_555
C36 N3 1_555 1_555
C36 N24 1_555 1_555
C37 O23 1_555 1_555
C39 N26 1_555 1_555
C40 N28 1_555 1_555
C41 N26 1_555 1_555
C42 N28 1_555 1_555
C44 N29 1_555 1_555
C44 N31 1_555 1_555
C45 N30 1_555 1_555
C46 N32 1_555 1_555
C47 N30 1_555 1_555
C48 N32 1_555 1_555
C50 N33 1_555 1_555
C50 N35 1_555 1_555
C51 N34 1_555 1_555
C52 N36 1_555 1_555
C53 N34 1_555 1_555
C54 N36 1_555 1_555
C56 N37 1_555 1_555
C56 N39 1_555 1_555
C57 N38 1_555 1_555
C58 N40 1_555 1_555
C59 N38 1_555 1_555
C60 N40 1_555 1_555
C62 N41 1_555 1_555
C62 N43 1_555 1_555
C63 N42 1_555 1_555
C64 N44 1_555 1_555
C65 N42 1_555 1_555
C66 N44 1_555 1_555
C68 N45 1_555 1_555
C68 N47 1_555 1_555
C69 N46 1_555 1_555
C70 N48 1_555 1_555
C70 O34 1_555 1_555
C71 N25 1_555 1_555
C71 N46 1_555 1_555
C72 N27 1_555 1_555
C72 N48 1_555 1_555

#END
