
#######################################################################
#
#                 Cambridge Crystallographic Data Centre
#                                CCDC 
#
#######################################################################
#
# If this CIF has been generated from an entry in the Cambridge 
# Structural Database, then it will include bibliographic, chemical, 
# crystal, experimental, refinement or atomic coordinate data resulting 
# from the CCDC's data processing and validation procedures.
#
#######################################################################

data_DUGYAF
_symmetry_cell_setting           monoclinic
_symmetry_space_group_name_H-M   'P 21/c'
_symmetry_Int_Tables_number      14
_space_group_name_Hall           '-P 2ybc'
loop_
_symmetry_equiv_pos_site_id
_symmetry_equiv_pos_as_xyz
1 x,y,z
2 -x,1/2+y,1/2-z
3 -x,-y,-z
4 x,1/2-y,1/2+z
_cell_length_a                   14.341(4)
_cell_length_b                   15.473(2)
_cell_length_c                   12.822(2)
_cell_angle_alpha                90
_cell_angle_beta                 114.11(2)
_cell_angle_gamma                90
_cell_volume                     2596.97
loop_
_atom_site_label
_atom_site_type_symbol
_atom_site_fract_x
_atom_site_fract_y
_atom_site_fract_z
Cu1 Cu 0.16196(6) 0.57160(5) 0.44227(6)
Cu2 Cu 0.21406(6) 0.17934(5) 0.46662(6)
N1 N 0.1447(4) 0.4413(3) 0.4080(4)
C1 C 0.2012(5) 0.3731(4) 0.4604(5)
N2 N 0.1600(4) 0.2968(3) 0.4136(4)
C2 C 0.0711(5) 0.3180(4) 0.3237(5)
C3 C 0.0616(5) 0.4055(4) 0.3205(5)
N3 N -0.1248(4) 0.6220(3) 0.1874(4)
C4 C -0.0246(5) 0.6090(4) 0.2293(5)
N4 N 0.0181(4) 0.5966(3) 0.3428(4)
C5 C -0.0612(5) 0.6015(4) 0.3747(6)
C6 C -0.1487(5) 0.6172(4) 0.2797(5)
N5 N 0.2143(5) 0.6644(4) 0.3587(5)
C7 C 0.3244(6) 0.6778(6) 0.4164(8)
C8 C 0.3746(6) 0.5970(7) 0.4833(8)
N6 N 0.3145(4) 0.5668(4) 0.5482(5)
C9 C 0.3322(6) 0.6211(6) 0.6501(7)
C10 C 0.2519(6) 0.6006(6) 0.6929(6)
N7 N 0.1504(5) 0.6092(4) 0.5977(5)
N8 N 0.3635(4) 0.2048(4) 0.4676(5)
C11 C 0.4332(6) 0.1347(6) 0.5301(7)
C12 C 0.3741(7) 0.0527(6) 0.5110(7)
N9 N 0.2831(5) 0.0652(4) 0.5356(5)
C13 C 0.3055(7) 0.0674(5) 0.6600(6)
C14 C 0.2135(7) 0.1020(5) 0.6743(7)
N10 N 0.1860(5) 0.1850(4) 0.6112(5)
H1 H 0.265(6) 0.377(5) 0.529(6)
H2 H 0.025(6) 0.278(5) 0.271(6)
H3 H 0.008(6) 0.437(5) 0.268(6)
H4 H 0.011(6) 0.605(5) 0.179(6)
H5 H -0.051(6) 0.594(5) 0.447(7)
H6 H -0.220(6) 0.625(5) 0.276(6)
H7 H 0.183(6) 0.712(5) 0.347(7)
H8 H 0.200(6) 0.651(5) 0.280(7)
H9 H 0.344(7) 0.728(6) 0.468(7)
H10 H 0.356(7) 0.690(6) 0.363(7)
H11 H 0.446(7) 0.612(6) 0.533(8)
H12 H 0.362(7) 0.557(6) 0.424(8)
H13 H 0.328(6) 0.524(5) 0.571(7)
H14 H 0.332(7) 0.686(6) 0.628(7)
H15 H 0.393(7) 0.601(6) 0.717(7)
H16 H 0.259(7) 0.633(5) 0.761(7)
H17 H 0.258(7) 0.542(5) 0.718(7)
H18 H 0.125(6) 0.653(5) 0.592(7)
H19 H 0.107(6) 0.578(5) 0.605(7)
H20 H 0.390(6) 0.256(5) 0.502(6)
H21 H 0.360(6) 0.207(5) 0.394(7)
H22 H 0.461(7) 0.145(6) 0.614(7)
H23 H 0.497(7) 0.132(6) 0.507(7)
H24 H 0.418(7) 0.014(6) 0.563(7)
H25 H 0.352(7) 0.038(6) 0.427(7)
H26 H 0.242(6) 0.028(5) 0.515(7)
H27 H 0.365(7) 0.100(6) 0.701(7)
H28 H 0.315(6) 0.013(6) 0.693(7)
H29 H 0.232(7) 0.115(5) 0.753(7)
H30 H 0.155(7) 0.067(6) 0.636(7)
H31 H 0.220(7) 0.223(5) 0.654(7)
H32 H 0.121(6) 0.196(5) 0.591(7)
N3A N 0.1248(4) 0.1220(3) 0.3126(4)
Cu2A Cu -0.21406(6) 0.67934(5) 0.03338(6)
Cl1 Cl 0.53737(12) 0.64386(11) 0.26334(14)
O1 O 0.5835(6) 0.5710(5) 0.2367(7)
O2 O 0.6015(6) 0.7147(5) 0.2682(6)
O3 O 0.4404(5) 0.6544(5) 0.1802(7)
O4 O 0.5388(5) 0.6282(5) 0.3727(6)
Cl2 Cl 0.12960(15) 0.64537(11) 0.00838(15)
O5 O 0.0557(8) 0.7085(6) -0.0274(9)
O6 O 0.1765(8) 0.6405(8) -0.0648(8)
O7 O 0.0776(10) 0.5689(6) -0.0037(11)
O8 O 0.1968(7) 0.6573(10) 0.1160(7)
loop_
_geom_bond_atom_site_label_1
_geom_bond_atom_site_label_2
_geom_bond_site_symmetry_1
_geom_bond_site_symmetry_2
Cu1 N1 1_555 1_555
Cu2 N2 1_555 1_555
N1 C1 1_555 1_555
C1 N2 1_555 1_555
N2 C2 1_555 1_555
C2 C3 1_555 1_555
C3 N1 1_555 1_555
N3 C4 1_555 1_555
C4 N4 1_555 1_555
N4 Cu1 1_555 1_555
C5 N4 1_555 1_555
C6 N3 1_555 1_555
N5 Cu1 1_555 1_555
C7 N5 1_555 1_555
C8 C7 1_555 1_555
N6 Cu1 1_555 1_555
C9 N6 1_555 1_555
C10 C9 1_555 1_555
N7 Cu1 1_555 1_555
N8 Cu2 1_555 1_555
C11 N8 1_555 1_555
C12 C11 1_555 1_555
N9 Cu2 1_555 1_555
C13 N9 1_555 1_555
C14 C13 1_555 1_555
N10 Cu2 1_555 1_555
Cl1 O1 1_555 1_555
O2 Cl1 1_555 1_555
O3 Cl1 1_555 1_555
O4 Cl1 1_555 1_555
Cl2 O5 1_555 1_555
O6 Cl2 1_555 1_555
O7 Cl2 1_555 1_555
O8 Cl2 1_555 1_555
H1 C1 1_555 1_555
H2 C2 1_555 1_555
H3 C3 1_555 1_555
H4 C4 1_555 1_555
H5 C5 1_555 1_555
H6 C6 1_555 1_555
H7 N5 1_555 1_555
H8 N5 1_555 1_555
H9 C7 1_555 1_555
H10 C7 1_555 1_555
H11 C8 1_555 1_555
H12 C8 1_555 1_555
H13 N6 1_555 1_555
H14 C9 1_555 1_555
H15 C9 1_555 1_555
H16 C10 1_555 1_555
H17 C10 1_555 1_555
H18 N7 1_555 1_555
H19 N7 1_555 1_555
H20 N8 1_555 1_555
H21 N8 1_555 1_555
H22 C11 1_555 1_555
H23 C11 1_555 1_555
H24 C12 1_555 1_555
H25 C12 1_555 1_555
H26 N9 1_555 1_555
H27 C13 1_555 1_555
H28 C13 1_555 1_555
H29 C14 1_555 1_555
H30 C14 1_555 1_555
H31 N10 1_555 1_555
H32 N10 1_555 1_555
N3A Cu2 1_555 1_555
Cu2A N3 1_555 1_555
C5 C6 1_555 1_555
C8 N6 1_555 1_555
C10 N7 1_555 1_555
C12 N9 1_555 1_555
C14 N10 1_555 1_555

#END
