
#######################################################################
#
#                 Cambridge Crystallographic Data Centre
#                                CCDC 
#
#######################################################################
#
# If this CIF has been generated from an entry in the Cambridge 
# Structural Database, then it will include bibliographic, chemical, 
# crystal, experimental, refinement or atomic coordinate data resulting 
# from the CCDC's data processing and validation procedures.
#
#######################################################################

data_DUGYOU
_symmetry_cell_setting           triclinic
_symmetry_space_group_name_H-M   'P -1'
_symmetry_Int_Tables_number      2
_space_group_name_Hall           '-P 1'
loop_
_symmetry_equiv_pos_site_id
_symmetry_equiv_pos_as_xyz
1 x,y,z
2 -x,-y,-z
_cell_length_a                   10.0121(16)
_cell_length_b                   11.0949(18)
_cell_length_c                   17.737(3)
_cell_angle_alpha                104.988(3)
_cell_angle_beta                 99.792(3)
_cell_angle_gamma                105.608(3)
_cell_volume                     1771.21
loop_
_atom_site_label
_atom_site_type_symbol
_atom_site_fract_x
_atom_site_fract_y
_atom_site_fract_z
H1 H 0.026(4) 0.230(5) 0.1640(14)
H2 H 0.056(6) 0.200(4) 0.234(3)
O13 O 0.0831(3) 0.2573(3) 0.21072(19)
H3 H 0.46(2) 0.384(16) 0.447(6)
H4 H 0.487(4) 0.4959(12) 0.425(2)
O14 O 0.4542(4) 0.4117(5) 0.4070(3)
H5 H 1.167(4) 0.344(3) 0.0404(17)
H6 H 1.0624(17) 0.409(4) 0.066(2)
H7 H 0.223(3) -0.597(2) -1.734(2)
H8 H 0.349(4) -0.544(4) -1.6677(17)
Zn1 Zn 0.89191(3) -0.09886(3) -0.794040(18)
Zn2 Zn 1.27465(3) 0.59302(3) 0.089957(18)
Zn3 Zn 0.35098(3) -0.32712(3) -1.691830(19)
O1 O 0.9805(2) 0.07970(19) -0.71435(11)
O2 O 0.8417(2) -0.0310(2) -0.88420(11)
O3 O 1.3336(2) 0.5925(2) -0.01016(12)
O4 O 1.1582(2) 0.4126(2) 0.08158(12)
O5 O 0.3042(3) -0.5206(2) -1.70987(16)
O6 O 0.4896(3) -0.2295(3) -1.57927(14)
O7 O 0.2633(3) -0.2753(3) -1.58493(14)
O8 O 0.9683(2) -0.0393(2) -0.63261(13)
O9 O 0.8179(2) -0.2249(2) -0.96740(12)
O10 O 1.1147(2) 0.5977(2) -0.03508(12)
O11 O 0.5181(3) 0.0186(2) -1.20772(12)
O12 O 1.2465(3) 0.5417(2) -0.38012(12)
N1 N 1.1937(2) -0.2893(2) -0.76067(13)
N2 N 1.1784(2) -0.3023(2) -0.84154(13)
N3 N 1.0338(2) -0.1969(2) -0.79753(13)
N4 N 0.4740(2) -0.3412(2) -0.83645(13)
N5 N 0.5043(2) -0.2907(2) -0.75316(13)
N6 N 0.7015(2) -0.2136(2) -0.79034(13)
C1 C 1.2230(3) 0.5893(3) -0.05889(17)
C2 C 1.2289(3) 0.5747(3) -0.14385(16)
C3 C 1.3564(4) 0.5863(4) -0.16544(19)
H9 H 1.4402 0.6035 -0.1265
C4 C 1.3608(4) 0.5723(4) -0.24492(19)
H10 H 1.4472 0.5810 -0.2593
C5 C 1.2377(4) 0.5459(3) -0.30166(17)
C6 C 1.1089(4) 0.5302(3) -0.28232(18)
H11 H 1.0250 0.5094 -0.3220
C7 C 1.1051(3) 0.5458(3) -0.20298(18)
H12 H 1.0182 0.5367 -0.1892
C8 C 1.1785(3) 0.4231(3) -0.44222(17)
C9 C 1.1463(4) 0.3031(3) -0.42992(17)
H13 H 1.1625 0.2984 -0.3777
C10 C 1.0898(3) 0.1892(3) -0.49536(17)
H14 H 1.0693 0.1076 -0.4869
C11 C 1.0631(3) 0.1942(3) -0.57363(16)
C12 C 1.0937(4) 0.3167(3) -0.58423(17)
H15 H 1.0753 0.3223 -0.6362
C13 C 1.1509(4) 0.4311(3) -0.51900(17)
H16 H 1.1707 0.5131 -0.5269
C14 C 1.0010(3) 0.0692(3) -0.64300(17)
C15 C 0.8041(3) -0.1136(3) -0.95451(17)
C16 C 0.7360(3) -0.0757(3) -1.02243(16)
C17 C 0.7094(4) -0.1530(3) -1.10159(18)
H17 H 0.7380 -0.2274 -1.1123
C18 C 0.6415(4) -0.1230(3) -1.16516(18)
H18 H 0.6275 -0.1749 -1.2181
C19 C 0.5946(3) -0.0155(3) -1.14955(17)
C20 C 0.6205(4) 0.0636(3) -1.07108(17)
H19 H 0.5900 0.1369 -1.0604
C21 C 0.6915(3) 0.0341(3) -1.00870(17)
H20 H 0.7102 0.0891 -0.9560
C22 C 0.4916(4) -0.0489(3) -1.28983(17)
C23 C 0.6006(4) -0.0473(3) -1.32745(19)
H21 H 0.6958 -0.0084 -1.2974
C24 C 0.5680(4) -0.1040(3) -1.41038(19)
H22 H 0.6416 -0.1022 -1.4362
C25 C 0.4278(3) -0.1631(3) -1.45480(17)
C26 C 0.3189(3) -0.1656(3) -1.41630(18)
H23 H 0.2237 -0.2054 -1.4462
C27 C 0.3510(4) -0.1089(3) -1.33287(18)
H24 H 0.2779 -0.1116 -1.3067
C28 C 0.3911(5) -0.2254(3) -1.5452(2)
C29 C 1.0834(3) -0.2466(3) -0.86041(16)
H25 H 1.0533 -0.2419 -0.9118
C30 C 1.1056(3) -0.2266(3) -0.73742(16)
H26 H 1.0942 -0.2053 -0.6852
C31 C 0.6394(3) -0.2163(3) -0.72881(16)
H27 H 0.6873 -0.1703 -0.6749
C32 C 0.5943(3) -0.2926(3) -0.85501(17)
H28 H 0.6039 -0.3112 -0.9076
Zn2_2 Zn 1.27465(3) -0.40698(3) -0.910043(18)
Zn2_3 Zn 0.27465(3) -0.40698(3) -0.910043(18)
Zn3_2 Zn 1.35098(3) -0.32712(3) -0.691830(19)
Zn3_3 Zn 0.35098(3) -0.32712(3) -0.691830(19)
N1_2 N 0.1937(2) -0.2893(2) -1.76067(13)
N2_2 N 1.1784(2) 0.6977(2) 0.15846(13)
N4_2 N 1.4740(2) 0.6588(2) 0.16355(13)
N5_2 N 0.5043(2) -0.2907(2) -1.75316(13)
loop_
_geom_bond_atom_site_label_1
_geom_bond_atom_site_label_2
_geom_bond_site_symmetry_1
_geom_bond_site_symmetry_2
H1 O13 1_555 1_555
H2 O13 1_555 1_555
H3 O14 1_555 1_555
H4 O14 1_555 1_555
H5 O4 1_555 1_555
H6 O4 1_555 1_555
H7 O5 1_555 1_555
H8 O5 1_555 1_555
Zn1 O1 1_555 1_555
Zn2 O3 1_555 1_555
Zn3 O5 1_555 1_555
O1 C14 1_555 1_555
O2 Zn1 1_555 1_555
O3 C1 1_555 1_555
O4 Zn2 1_555 1_555
O6 Zn3 1_555 1_555
O7 Zn3 1_555 1_555
O8 C14 1_555 1_555
O9 C15 1_555 1_555
O10 C1 1_555 1_555
O11 C19 1_555 1_555
O12 C5 1_555 1_555
N1 N2 1_555 1_555
N2 C29 1_555 1_555
N3 Zn1 1_555 1_555
N4 N5 1_555 1_555
N5 C31 1_555 1_555
N6 Zn1 1_555 1_555
C1 C2 1_555 1_555
C2 C3 1_555 1_555
C3 H9 1_555 1_555
C4 C3 1_555 1_555
H10 C4 1_555 1_555
C5 C4 1_555 1_555
C6 C5 1_555 1_555
H11 C6 1_555 1_555
C7 C2 1_555 1_555
H12 C7 1_555 1_555
C8 O12 1_555 1_555
C9 C8 1_555 1_555
H13 C9 1_555 1_555
C10 C9 1_555 1_555
H14 C10 1_555 1_555
C11 C10 1_555 1_555
C12 C11 1_555 1_555
H15 C12 1_555 1_555
C13 C8 1_555 1_555
H16 C13 1_555 1_555
C14 C11 1_555 1_555
C15 O2 1_555 1_555
C16 C15 1_555 1_555
C17 C16 1_555 1_555
H17 C17 1_555 1_555
C18 C17 1_555 1_555
H18 C18 1_555 1_555
C19 C18 1_555 1_555
C20 C19 1_555 1_555
H19 C20 1_555 1_555
C21 C16 1_555 1_555
H20 C21 1_555 1_555
C22 O11 1_555 1_555
C23 C22 1_555 1_555
H21 C23 1_555 1_555
C24 C23 1_555 1_555
H22 C24 1_555 1_555
C25 C24 1_555 1_555
C26 C25 1_555 1_555
H23 C26 1_555 1_555
C27 C22 1_555 1_555
H24 C27 1_555 1_555
C28 O6 1_555 1_555
C29 N3 1_555 1_555
H25 C29 1_555 1_555
C30 N1 1_555 1_555
H26 C30 1_555 1_555
C31 N6 1_555 1_555
H27 C31 1_555 1_555
C32 N4 1_555 1_555
H28 C32 1_555 1_555
Zn2_2 N2 1_555 1_555
Zn2_3 N4 1_555 1_555
Zn3_2 N1 1_555 1_555
Zn3_3 N5 1_555 1_555
N1_2 Zn3 1_555 1_555
N2_2 Zn2 1_555 1_555
N4_2 Zn2 1_555 1_555
N5_2 Zn3 1_555 1_555
O7 C28 1_555 1_555
N3 C30 1_555 1_555
N6 C32 1_555 1_555
C6 C7 1_555 1_555
C12 C13 1_555 1_555
C20 C21 1_555 1_555
C25 C28 1_555 1_555
C26 C27 1_555 1_555

#END
