
#######################################################################
#
#                 Cambridge Crystallographic Data Centre
#                                CCDC 
#
#######################################################################
#
# If this CIF has been generated from an entry in the Cambridge 
# Structural Database, then it will include bibliographic, chemical, 
# crystal, experimental, refinement or atomic coordinate data resulting 
# from the CCDC's data processing and validation procedures.
#
#######################################################################

data_DUGYUA
_symmetry_cell_setting           monoclinic
_symmetry_space_group_name_H-M   'C 2/c'
_symmetry_Int_Tables_number      15
_space_group_name_Hall           '-C 2yn'
loop_
_symmetry_equiv_pos_site_id
_symmetry_equiv_pos_as_xyz
1 x,y,z
2 -x,y,1/2-z
3 1/2+x,1/2+y,z
4 1/2-x,1/2+y,1/2-z
5 -x,-y,-z
6 x,-y,1/2+z
7 1/2-x,1/2-y,-z
8 1/2+x,1/2-y,1/2+z
_cell_length_a                   9.812(2)
_cell_length_b                   36.015(8)
_cell_length_c                   21.799(5)
_cell_angle_alpha                90
_cell_angle_beta                 101.814(4)
_cell_angle_gamma                90
_cell_volume                     7540.14
loop_
_atom_site_label
_atom_site_type_symbol
_atom_site_fract_x
_atom_site_fract_y
_atom_site_fract_z
Zn1 Zn -0.94444(6) -0.132970(14) 0.05058(3)
Zn2 Zn -0.52148(6) 0.136723(15) 0.38063(3)
Zn3 Zn -0.52865(6) 0.282540(14) 0.51739(3)
Zn4 Zn -0.5000 0.25003(2) 0.2500
O1 O -0.8934(7) -0.07946(12) 0.0557(3)
O2 O -1.0104(9) -0.09363(14) 0.1219(4)
O3 O -0.5363(4) 0.08647(10) 0.35058(18)
O4 O -0.5628(4) 0.17607(9) 0.31402(15)
O5 O -0.5619(7) -0.22999(13) 0.4722(3)
O6 O -0.4130(6) -0.24282(14) 0.4180(3)
O7 O -0.6600(4) 0.21623(9) 0.24054(17)
O8 O -0.4749(5) 0.06955(11) 0.4499(2)
O9 O -1.0382(5) 0.08278(11) 0.1328(2)
O10 O -0.6120(8) -0.08498(12) 0.3047(2)
N1 N -1.1206(4) -0.14633(10) -0.01343(19)
N2 N -1.1310(4) -0.18074(10) -0.04211(19)
N3 N -1.3278(4) -0.15047(11) -0.07751(19)
N4 N -0.8032(4) -0.14862(11) -0.00182(19)
N5 N -0.8135(4) -0.18323(10) -0.02822(19)
N6 N -0.6576(4) -0.15130(11) -0.06662(19)
N7 N -0.5407(4) 0.28707(10) 0.42294(18)
N8 N -0.5509(4) 0.32144(10) 0.39405(18)
N9 N -0.5106(5) 0.27929(10) 0.32633(19)
C1 C -0.5126(6) 0.06177(14) 0.3937(3)
C2 C -0.5345(6) 0.02265(14) 0.3711(3)
C3 C -0.5969(7) 0.01448(15) 0.3105(3)
H1 H -0.6218 0.0339 0.2822
C4 C -0.6240(8) -0.02135(16) 0.2902(3)
H2 H -0.6696 -0.0259 0.2491
C5 C -0.5841(9) -0.05016(16) 0.3302(3)
C6 C -0.5208(9) -0.04318(17) 0.3918(3)
H3 H -0.4962 -0.0627 0.4197
C7 C -0.4942(8) -0.00689(17) 0.4117(3)
H4 H -0.4487 -0.0023 0.4527
C8 C -0.5751(11) -0.11649(17) 0.3414(3)
C9 C -0.4605(9) -0.1364(2) 0.3352(4)
H5 H -0.4003 -0.1272 0.3109
C10 C -0.4345(7) -0.16985(19) 0.3648(3)
H6 H -0.3566 -0.1835 0.3604
C11 C -0.5211(7) -0.18349(15) 0.4007(3)
C12 C -0.6359(10) -0.16329(18) 0.4072(4)
H7 H -0.6959 -0.1724 0.4316
C13 C -0.6627(12) -0.1293(2) 0.3773(4)
H8 H -0.7399 -0.1154 0.3819
C14 C -0.4959(8) -0.22087(17) 0.4311(3)
C15 C -0.6526(5) 0.18410(12) 0.2654(2)
C16 C -0.7555(5) 0.15628(12) 0.2337(2)
C17 C -0.8840(5) 0.16783(13) 0.2004(2)
H9 H -0.9077 0.1929 0.1995
C18 C -0.9772(6) 0.14218(14) 0.1685(3)
H10 H -1.0652 0.1497 0.1476
C19 C -0.9391(6) 0.10537(13) 0.1678(3)
C20 C -0.8112(6) 0.09362(14) 0.1994(3)
H11 H -0.7857 0.0688 0.1984
C21 C -0.7211(6) 0.11916(14) 0.2325(2)
H12 H -0.6347 0.1112 0.2547
C22 C -1.0081(7) 0.04519(15) 0.1268(3)
C23 C -0.9264(10) 0.03379(18) 0.0877(4)
H13 H -0.8833 0.0512 0.0664
C24 C -0.9068(9) -0.00347(18) 0.0791(4)
H14 H -0.8498 -0.0111 0.0523
C25 C -0.9690(6) -0.02918(15) 0.1092(3)
C26 C -1.0477(11) -0.0176(2) 0.1490(5)
H15 H -1.0902 -0.0350 0.1705
C27 C -1.0663(11) 0.0200(2) 0.1584(6)
H16 H -1.1194 0.0277 0.1868
C28 C -0.9561(7) -0.06979(17) 0.0957(4)
C29 C -1.2541(5) -0.18171(13) -0.0795(2)
H17 H -1.2869 -0.2019 -0.1049
C30 C -1.2402(5) -0.12949(13) -0.0358(2)
H18 H -1.2615 -0.1057 -0.0241
C31 C -0.7257(5) -0.18374(13) -0.0660(2)
H19 H -0.7119 -0.2043 -0.0899
C32 C -0.7107(5) -0.13050(14) -0.0258(2)
H20 H -0.6847 -0.1061 -0.0158
C33 C -0.5329(6) 0.31527(13) 0.3369(2)
H21 H -0.5354 0.3338 0.3070
C34 C -0.5179(5) 0.26329(13) 0.3811(2)
H22 H -0.5078 0.2379 0.3885
Zn1A Zn -0.05556(6) -0.132970(14) 0.44942(3)
Zn1C Zn -0.55556(6) 0.367030(14) 0.44942(3)
Zn1B Zn -0.44444(6) 0.367030(14) 0.05058(3)
Zn1E Zn 0.05556(6) 0.132970(14) 0.55058(3)
Zn1E_2 Zn -0.94444(6) 0.132970(14) 0.55058(3)
Zn2A Zn -0.47852(6) 0.136723(15) 0.11937(3)
Zn2E Zn -1.52148(6) -0.136723(15) -0.11937(3)
Zn2E_2 Zn -0.52148(6) -0.136723(15) -0.11937(3)
Zn2D Zn -0.47852(6) -0.136723(15) 0.61937(3)
Zn3A Zn -0.47135(6) 0.282540(14) -0.01739(3)
Zn3D Zn -0.47135(6) -0.282540(14) 0.48261(3)
Zn3C Zn -0.97135(6) -0.217460(14) -0.01739(3)
Zn3F Zn 0.02865(6) 0.217460(14) 0.48261(3)
Zn3F_2 Zn -0.97135(6) 0.217460(14) 0.48261(3)
O1A O -0.1066(7) -0.07946(12) 0.4443(3)
O2A O 0.0104(9) -0.09363(14) 0.3781(4)
O3D O -0.4637(4) -0.08647(10) 0.64942(18)
O3A O -0.4637(4) 0.08647(10) 0.14942(18)
O4A O -0.4372(4) 0.17607(9) 0.18598(15)
O5D O -0.4381(7) 0.22999(13) 0.5278(3)
O5E O -0.5619(7) 0.22999(13) -0.0278(3)
O6D O -0.5870(6) 0.24282(14) 0.5820(3)
O6E O -0.4130(6) 0.24282(14) -0.0820(3)
O7A O -0.3400(4) 0.21623(9) 0.25946(17)
O8D O -0.5251(5) -0.06955(11) 0.5501(2)
O9A O 0.0382(5) 0.08278(11) 0.3672(2)
O10D O -0.3880(8) 0.08498(12) 0.6953(2)
N1E N -0.1206(4) 0.14633(10) 0.48657(19)
N1A N 0.1206(4) -0.14633(10) 0.51343(19)
N2E N -0.1310(4) 0.18074(10) 0.45789(19)
N2C N -0.3690(4) 0.31926(10) 0.54211(19)
N2B N -0.6310(4) 0.31926(10) -0.04211(19)
N3E N -0.3278(4) 0.15047(11) 0.42249(19)
N3D N -0.6722(4) 0.15047(11) 0.07751(19)
N4E N -0.8032(4) 0.14862(11) 0.49818(19)
N4A N -0.1968(4) -0.14862(11) 0.50182(19)
N5E N -0.8135(4) 0.18323(10) 0.47178(19)
N5C N -0.6865(4) 0.31677(10) 0.52822(19)
N5B N -0.3135(4) 0.31677(10) -0.02822(19)
N6E N -0.6576(4) 0.15130(11) 0.43338(19)
N6D N -0.3424(4) 0.15130(11) 0.06662(19)
N7A N -0.4593(4) 0.28707(10) 0.07706(18)
N8A N -0.4491(4) 0.32144(10) 0.10595(18)
N8C N -0.9491(4) -0.17856(10) 0.10595(18)
N8B N -0.0509(4) -0.17856(10) 0.39405(18)
N9A N -0.4894(5) 0.27929(10) 0.17367(19)
C1D C -0.4874(6) -0.06177(14) 0.6063(3)
C2D C -0.4655(6) -0.02265(14) 0.6289(3)
C3D C -0.4031(7) -0.01448(15) 0.6895(3)
H1D H -0.3782 -0.0339 0.7178
C4D C -0.3760(8) 0.02135(16) 0.7098(3)
H2D H -0.3304 0.0259 0.7509
C5D C -0.4159(9) 0.05016(16) 0.6698(3)
C6D C -0.4792(9) 0.04318(17) 0.6082(3)
H3D H -0.5038 0.0627 0.5803
C7D C -0.5058(8) 0.00689(17) 0.5883(3)
H4D H -0.5513 0.0023 0.5473
C8D C -0.4249(11) 0.11649(17) 0.6586(3)
C9D C -0.5395(9) 0.1364(2) 0.6648(4)
H5D H -0.5997 0.1272 0.6891
C10D C -0.5655(7) 0.16985(19) 0.6352(3)
H6D H -0.6434 0.1835 0.6396
C11D C -0.4789(7) 0.18349(15) 0.5993(3)
C12D C -0.3641(10) 0.16329(18) 0.5928(4)
H7D H -0.3041 0.1724 0.5684
C13D C -0.3373(12) 0.1293(2) 0.6227(4)
H8D H -0.2601 0.1154 0.6181
C14D C -0.5041(8) 0.22087(17) 0.5689(3)
C15A C -0.3474(5) 0.18410(12) 0.2346(2)
C16A C -0.2445(5) 0.15628(12) 0.2663(2)
C17A C -0.1160(5) 0.16783(13) 0.2996(2)
H9A H -0.0923 0.1929 0.3005
C18A C -0.0228(6) 0.14218(14) 0.3315(3)
H10A H 0.0652 0.1497 0.3524
C19A C -0.0609(6) 0.10537(13) 0.3322(3)
C20A C -0.1888(6) 0.09362(14) 0.3006(3)
H11A H -0.2143 0.0688 0.3016
C21A C -0.2789(6) 0.11916(14) 0.2675(2)
H12A H -0.3653 0.1112 0.2453
C22A C 0.0081(7) 0.04519(15) 0.3732(3)
C23A C -0.0736(10) 0.03379(18) 0.4123(4)
H13A H -0.1167 0.0512 0.4336
C24A C -0.0932(9) -0.00347(18) 0.4209(4)
H14A H -0.1502 -0.0111 0.4477
C25A C -0.0310(6) -0.02918(15) 0.3908(3)
C26A C 0.0477(11) -0.0176(2) 0.3510(5)
H15A H 0.0902 -0.0350 0.3295
C27A C 0.0663(11) 0.0200(2) 0.3416(6)
H16A H 0.1194 0.0277 0.3132
C28A C -0.0439(7) -0.06979(17) 0.4043(4)
C29E C -0.2541(5) 0.18171(13) 0.4205(2)
H17E H -0.2869 0.2019 0.3951
C30E C -0.2402(5) 0.12949(13) 0.4642(2)
H18E H -0.2615 0.1057 0.4759
C31E C -0.7257(5) 0.18374(13) 0.4340(2)
H19E H -0.7119 0.2043 0.4101
C32E C -0.7107(5) 0.13050(14) 0.4742(2)
H20E H -0.6847 0.1061 0.4842
C33A C -0.4671(6) 0.31527(13) 0.1631(2)
H21A H -0.4646 0.3338 0.1930
C34A C -0.4821(5) 0.26329(13) 0.1189(2)
H22A H -0.4922 0.2379 0.1115
O11 O -1.0000 -0.1145(3) 0.2500
loop_
_geom_bond_atom_site_label_1
_geom_bond_atom_site_label_2
_geom_bond_site_symmetry_1
_geom_bond_site_symmetry_2
Zn1 O1 1_555 1_555
Zn2 O3 1_555 1_555
Zn3 N7 1_555 1_555
Zn4 O7 1_555 1_555
O1 C28 1_555 1_555
O2 Zn1 1_555 1_555
O3 C1 1_555 1_555
O4 Zn2 1_555 1_555
O5 C14 1_555 1_555
O6 C14 1_555 1_555
O7 C15 1_555 1_555
O8 C1 1_555 1_555
O9 C19 1_555 1_555
O10 C5 1_555 1_555
N1 Zn1 1_555 1_555
N2 N1 1_555 1_555
N3 C29 1_555 1_555
N4 Zn1 1_555 1_555
N5 N4 1_555 1_555
N6 C31 1_555 1_555
N7 N8 1_555 1_555
N8 C33 1_555 1_555
N9 Zn4 1_555 1_555
C1 C2 1_555 1_555
C2 C3 1_555 1_555
C3 H1 1_555 1_555
C4 C3 1_555 1_555
H2 C4 1_555 1_555
C5 C4 1_555 1_555
C6 C5 1_555 1_555
H3 C6 1_555 1_555
C7 C2 1_555 1_555
H4 C7 1_555 1_555
C8 O10 1_555 1_555
C9 C8 1_555 1_555
H5 C9 1_555 1_555
C10 C9 1_555 1_555
H6 C10 1_555 1_555
C11 C10 1_555 1_555
C12 C11 1_555 1_555
H7 C12 1_555 1_555
C13 C8 1_555 1_555
H8 C13 1_555 1_555
C14 C11 1_555 1_555
C15 O4 1_555 1_555
C16 C15 1_555 1_555
C17 C16 1_555 1_555
H9 C17 1_555 1_555
C18 C17 1_555 1_555
H10 C18 1_555 1_555
C19 C18 1_555 1_555
C20 C19 1_555 1_555
H11 C20 1_555 1_555
C21 C16 1_555 1_555
H12 C21 1_555 1_555
C22 O9 1_555 1_555
C23 C22 1_555 1_555
H13 C23 1_555 1_555
C24 C23 1_555 1_555
H14 C24 1_555 1_555
C25 C24 1_555 1_555
C26 C25 1_555 1_555
H15 C26 1_555 1_555
C27 C22 1_555 1_555
H16 C27 1_555 1_555
C28 O2 1_555 1_555
C29 N2 1_555 1_555
H17 C29 1_555 1_555
C30 N1 1_555 1_555
H18 C30 1_555 1_555
C31 N5 1_555 1_555
H19 C31 1_555 1_555
C32 N4 1_555 1_555
H20 C32 1_555 1_555
C33 N9 1_555 1_555
H21 C33 1_555 1_555
C34 N7 1_555 1_555
H22 C34 1_555 1_555
Zn1A O1A 1_555 1_555
Zn1C N8 1_555 1_555
Zn1B N8A 1_555 1_555
Zn1E N1E 1_555 1_555
Zn1E_2 N4E 1_555 1_555
Zn2A O3A 1_555 1_555
Zn2E N3 1_555 1_555
Zn2E_2 N6 1_555 1_555
Zn2D O3D 1_555 1_555
Zn3A O5E 1_555 1_555
Zn3D O5 1_555 1_555
Zn3C N2 1_555 1_555
Zn3F N2E 1_555 1_555
Zn3F_2 N5E 1_555 1_555
O1A C28A 1_555 1_555
O2A Zn1A 1_555 1_555
O3D C1D 1_555 1_555
O4A Zn2A 1_555 1_555
O5D Zn3 1_555 1_555
O6D Zn3 1_555 1_555
O6E Zn3A 1_555 1_555
O7A Zn4 1_555 1_555
O8D C1D 1_555 1_555
O9A C19A 1_555 1_555
O10D C5D 1_555 1_555
N1E N2E 1_555 1_555
N1A Zn1A 1_555 1_555
N2E C29E 1_555 1_555
N2C Zn3 1_555 1_555
N2B Zn3A 1_555 1_555
N3E Zn2 1_555 1_555
N3D Zn2A 1_555 1_555
N4E N5E 1_555 1_555
N4A Zn1A 1_555 1_555
N5E C31E 1_555 1_555
N5C Zn3 1_555 1_555
N5B Zn3A 1_555 1_555
N6E Zn2 1_555 1_555
N6D Zn2A 1_555 1_555
N7A Zn3A 1_555 1_555
N8A N7A 1_555 1_555
N8C Zn1 1_555 1_555
N8B Zn1A 1_555 1_555
N9A Zn4 1_555 1_555
C1D C2D 1_555 1_555
C2D C3D 1_555 1_555
C3D H1D 1_555 1_555
C4D C3D 1_555 1_555
H2D C4D 1_555 1_555
C5D C4D 1_555 1_555
C6D C5D 1_555 1_555
H3D C6D 1_555 1_555
C7D C2D 1_555 1_555
H4D C7D 1_555 1_555
C8D O10D 1_555 1_555
C9D C8D 1_555 1_555
H5D C9D 1_555 1_555
C10D C9D 1_555 1_555
H6D C10D 1_555 1_555
C11D C10D 1_555 1_555
C12D C11D 1_555 1_555
H7D C12D 1_555 1_555
C13D C8D 1_555 1_555
H8D C13D 1_555 1_555
C14D O5D 1_555 1_555
C15A O4A 1_555 1_555
C16A C15A 1_555 1_555
C17A C16A 1_555 1_555
H9A C17A 1_555 1_555
C18A C17A 1_555 1_555
H10A C18A 1_555 1_555
C19A C18A 1_555 1_555
C20A C19A 1_555 1_555
H11A C20A 1_555 1_555
C21A C16A 1_555 1_555
H12A C21A 1_555 1_555
C22A O9A 1_555 1_555
C23A C22A 1_555 1_555
H13A C23A 1_555 1_555
C24A C23A 1_555 1_555
H14A C24A 1_555 1_555
C25A C24A 1_555 1_555
C26A C25A 1_555 1_555
H15A C26A 1_555 1_555
C27A C22A 1_555 1_555
H16A C27A 1_555 1_555
C28A O2A 1_555 1_555
C29E N3E 1_555 1_555
H17E C29E 1_555 1_555
C30E N1E 1_555 1_555
H18E C30E 1_555 1_555
C31E N6E 1_555 1_555
H19E C31E 1_555 1_555
C32E N4E 1_555 1_555
H20E C32E 1_555 1_555
C33A N8A 1_555 1_555
H21A C33A 1_555 1_555
C34A N7A 1_555 1_555
H22A C34A 1_555 1_555
O6 Zn3D 1_555 1_555
N3 C30 1_555 1_555
N5 Zn3C 1_555 1_555
N6 C32 1_555 1_555
N9 C34 1_555 1_555
C6 C7 1_555 1_555
C12 C13 1_555 1_555
C20 C21 1_555 1_555
C25 C28 1_555 1_555
C26 C27 1_555 1_555
O6D C14D 1_555 1_555
O7A C15A 1_555 1_555
N3E C30E 1_555 1_555
N6E C32E 1_555 1_555
N9A C33A 1_555 1_555
N9A C34A 1_555 1_555
C6D C7D 1_555 1_555
C11D C14D 1_555 1_555
C12D C13D 1_555 1_555
C20A C21A 1_555 1_555
C25A C28A 1_555 1_555
C26A C27A 1_555 1_555

#END
