
#######################################################################
#
#                 Cambridge Crystallographic Data Centre
#                                CCDC 
#
#######################################################################
#
# If this CIF has been generated from an entry in the Cambridge 
# Structural Database, then it will include bibliographic, chemical, 
# crystal, experimental, refinement or atomic coordinate data resulting 
# from the CCDC's data processing and validation procedures.
#
#######################################################################

data_DUGZAI
_symmetry_cell_setting           monoclinic
_symmetry_space_group_name_H-M   'C 2/c'
_symmetry_Int_Tables_number      15
_space_group_name_Hall           '-C 2yn'
loop_
_symmetry_equiv_pos_site_id
_symmetry_equiv_pos_as_xyz
1 x,y,z
2 -x,y,1/2-z
3 1/2+x,1/2+y,z
4 1/2-x,1/2+y,1/2-z
5 -x,-y,-z
6 x,-y,1/2+z
7 1/2-x,1/2-y,-z
8 1/2+x,1/2-y,1/2+z
_cell_length_a                   55.7522(10)
_cell_length_b                   7.55570(10)
_cell_length_c                   14.1327(3)
_cell_angle_alpha                90
_cell_angle_beta                 100.0120(10)
_cell_angle_gamma                90
_cell_volume                     5862.69
loop_
_atom_site_label
_atom_site_type_symbol
_atom_site_fract_x
_atom_site_fract_y
_atom_site_fract_z
Zn1 Zn 0.359942(5) 0.37125(4) 0.02508(2)
Zn2 Zn 0.387440(6) 0.54638(4) -0.15660(2)
O1 O 0.39387(4) 1.2599(3) 0.00910(15)
O2 O 0.37554(4) 0.5945(3) 0.08198(16)
O3 O 0.34961(4) 0.8034(3) -0.38369(15)
O4 O 0.39694(4) 1.2931(3) -0.14534(16)
O5 O 0.34279(4) 1.2305(3) -0.09207(15)
O6 O 0.39441(5) 0.6814(3) -0.03588(17)
O7 O 0.35129(4) 1.4832(3) -0.1552(2)
O8 O 0.37731(4) 0.7002(4) -0.26898(16)
N1 N 0.32475(5) 0.5165(4) 0.01490(19)
N2 N 0.42429(5) 0.5977(4) -0.1802(2)
C1 C 0.31240(6) 1.1126(4) -0.2607(2)
C2 C 0.32237(5) 0.9447(4) -0.2484(2)
C3 C 0.39769(6) 0.8634(4) 0.1021(2)
H1 H 0.3878 0.9635 0.0758
H2 H 0.3955 0.8480 0.1681
C4 C 0.42398(6) 0.9052(4) 0.1011(2)
C5 C 0.38856(5) 0.6984(4) 0.0454(2)
C6 C 0.34158(5) 1.3316(4) -0.1619(2)
C7 C 0.35918(5) 0.7951(4) -0.2976(2)
C8 C 0.43213(6) 0.9898(4) 0.0246(3)
C9 C 0.32804(7) 1.2752(4) -0.2587(2)
H3 H 0.3178 1.3727 -0.2857
H4 H 0.3399 1.2549 -0.3005
C10 C 0.40111(5) 1.2133(4) -0.0656(2)
C11 C 0.34958(6) 0.9113(5) -0.2263(2)
H5 H 0.3579 1.0243 -0.2233
H6 H 0.3535 0.8572 -0.1632
N3 N 0.25766(6) 0.7857(6) -0.0173(3)
C12 C 0.44105(8) 0.8529(5) 0.1804(3)
H7 H 0.4357 0.7963 0.2312
C13 C 0.41583(7) 1.0436(4) -0.0663(3)
H8 H 0.4045 0.9475 -0.0855
H9 H 0.4258 1.0553 -0.1158
C14 C 0.30690(7) 0.7998(5) -0.2540(3)
H10 H 0.3136 0.6868 -0.2459
N4 N 0.49818(7) 0.6108(6) -0.2094(3)
C15 C 0.28714(7) 1.1304(6) -0.2767(3)
H11 H 0.2803 1.2428 -0.2839
C16 C 0.30466(6) 0.4265(6) 0.0217(3)
H12 H 0.3059 0.3054 0.0332
C17 C 0.32246(7) 0.6888(5) -0.0032(3)
H13 H 0.3365 0.7522 -0.0083
C18 C 0.42962(7) 0.6274(5) -0.2668(3)
H14 H 0.4170 0.6442 -0.3185
C19 C 0.30058(7) 0.7807(6) -0.0149(3)
H15 H 0.2998 0.9011 -0.0286
C20 C 0.47216(7) 0.6101(6) -0.2058(4)
C21 C 0.45359(7) 0.6341(6) -0.2822(4)
H16 H 0.4570 0.6545 -0.3434
C22 C 0.28016(7) 0.6851(7) -0.0053(3)
C23 C 0.28200(7) 0.8190(6) -0.2712(3)
H17 H 0.2719 0.7201 -0.2755
C24 C 0.44271(7) 0.5778(8) -0.1068(4)
H18 H 0.4390 0.5585 -0.0459
C25 C 0.45719(7) 1.0182(5) 0.0324(4)
H19 H 0.4629 1.0748 -0.0176
C26 C 0.28191(7) 0.5058(7) 0.0124(3)
H20 H 0.2682 0.4395 0.0180
C27 C 0.27220(6) 0.9850(7) -0.2819(3)
H21 H 0.2554 0.9995 -0.2927
C28 C 0.46543(9) 0.8823(7) 0.1858(5)
H22 H 0.4764 0.8458 0.2396
C29 C 0.46670(8) 0.5842(9) -0.1163(4)
H23 H 0.4790 0.5712 -0.0631
C30 C 0.47367(8) 0.9653(7) 0.1118(5)
H24 H 0.4902 0.9860 0.1149
N1F N 0.17525(5) 0.9835(4) -0.01490(19)
N3F N 0.24234(6) 0.7143(6) 0.0173(3)
C16F C 0.19534(6) 1.0735(6) -0.0217(3)
H12F H 0.1941 1.1946 -0.0332
C17F C 0.17754(7) 0.8112(5) 0.0032(3)
H13F H 0.1635 0.7478 0.0083
C19F C 0.19942(7) 0.7193(6) 0.0149(3)
H15F H 0.2002 0.5989 0.0286
C22F C 0.21984(7) 0.8149(7) 0.0053(3)
C26F C 0.21809(7) 0.9942(7) -0.0124(3)
H20F H 0.2318 1.0605 -0.0180
N2A N 0.57571(5) 0.5977(4) -0.3198(2)
N4A N 0.50182(7) 0.6108(6) -0.2906(3)
C18A C 0.57038(7) 0.6274(5) -0.2332(3)
H14A H 0.5830 0.6442 -0.1815
C20A C 0.52784(7) 0.6101(6) -0.2942(4)
C21A C 0.54641(7) 0.6341(6) -0.2178(4)
H16A H 0.5430 0.6545 -0.1566
C24A C 0.55729(7) 0.5778(8) -0.3932(4)
H18A H 0.5610 0.5585 -0.4541
C29A C 0.53330(8) 0.5842(9) -0.3837(4)
H23A H 0.5210 0.5712 -0.4369
Zn1A Zn 0.640058(5) 0.37125(4) -0.52508(2)
Zn2A Zn 0.612560(6) 0.54638(4) -0.34340(2)
O1A O 0.60613(4) 1.2599(3) -0.50910(15)
O2A O 0.62446(4) 0.5945(3) -0.58198(16)
O3A O 0.65039(4) 0.8034(3) -0.11631(15)
O4A O 0.60306(4) 1.2931(3) -0.35466(16)
O5A O 0.65721(4) 1.2305(3) -0.40793(15)
O6A O 0.60559(5) 0.6814(3) -0.46412(17)
O7A O 0.64871(4) 1.4832(3) -0.3448(2)
O8A O 0.62269(4) 0.7002(4) -0.23102(16)
C1A C 0.68760(6) 1.1126(4) -0.2393(2)
C2A C 0.67763(5) 0.9447(4) -0.2516(2)
C3A C 0.60231(6) 0.8634(4) -0.6021(2)
H1A H 0.6122 0.9635 -0.5758
H2A H 0.6045 0.8480 -0.6681
C4A C 0.57602(6) 0.9052(4) -0.6011(2)
C5A C 0.61144(5) 0.6984(4) -0.5454(2)
C6A C 0.65842(5) 1.3316(4) -0.3381(2)
C7A C 0.64082(5) 0.7951(4) -0.2024(2)
C8A C 0.56787(6) 0.9898(4) -0.5246(3)
C9A C 0.67196(7) 1.2752(4) -0.2413(2)
H3A H 0.6822 1.3727 -0.2143
H4A H 0.6601 1.2549 -0.1995
C10A C 0.59889(5) 1.2133(4) -0.4344(2)
C11A C 0.65042(6) 0.9113(5) -0.2737(2)
H5A H 0.6421 1.0243 -0.2767
H6A H 0.6465 0.8572 -0.3368
C12A C 0.55895(8) 0.8529(5) -0.6804(3)
H7A H 0.5643 0.7963 -0.7312
C13A C 0.58417(7) 1.0436(4) -0.4337(3)
H8A H 0.5955 0.9475 -0.4145
H9A H 0.5742 1.0553 -0.3842
C14A C 0.69310(7) 0.7998(5) -0.2460(3)
H10A H 0.6864 0.6868 -0.2541
C15A C 0.71286(7) 1.1304(6) -0.2233(3)
H11A H 0.7197 1.2428 -0.2161
C23A C 0.71800(7) 0.8190(6) -0.2288(3)
H17A H 0.7281 0.7201 -0.2245
C25A C 0.54281(7) 1.0182(5) -0.5324(4)
H19A H 0.5371 1.0748 -0.4824
C27A C 0.72780(6) 0.9850(7) -0.2181(3)
H21A H 0.7446 0.9995 -0.2073
C28A C 0.53457(9) 0.8823(7) -0.6858(5)
H22A H 0.5236 0.8458 -0.7396
C30A C 0.52633(8) 0.9653(7) -0.6118(5)
H24A H 0.5098 0.9860 -0.6149
Zn1_2 Zn 0.359942(5) 1.37125(4) 0.02508(2)
Zn1A_2 Zn 0.640058(5) 1.37125(4) -0.52508(2)
Zn1D Zn 0.640058(5) 0.62875(4) -0.02508(2)
Zn1E Zn 0.359942(5) 0.62875(4) -0.47492(2)
Zn1F Zn 0.140058(5) 1.12875(4) -0.02508(2)
Zn2_2 Zn 0.387440(6) 1.54638(4) -0.15660(2)
Zn2A_2 Zn 0.612560(6) 1.54638(4) -0.34340(2)
O1_2 O 0.39387(4) 0.2599(3) 0.00910(15)
O1A_2 O 0.60613(4) 0.2599(3) -0.50910(15)
O3D O 0.65039(4) 0.1966(3) -0.61631(15)
O3E O 0.34961(4) 0.1966(3) 0.11631(15)
O4_2 O 0.39694(4) 0.2931(3) -0.14534(16)
O4A_2 O 0.60306(4) 0.2931(3) -0.35466(16)
O5_2 O 0.34279(4) 0.2305(3) -0.09207(15)
O5A_2 O 0.65721(4) 0.2305(3) -0.40793(15)
O7_2 O 0.35129(4) 0.4832(3) -0.1552(2)
O7A_2 O 0.64871(4) 0.4832(3) -0.3448(2)
N1A N 0.67525(5) 0.5165(4) -0.51490(19)
loop_
_geom_bond_atom_site_label_1
_geom_bond_atom_site_label_2
_geom_bond_site_symmetry_1
_geom_bond_site_symmetry_2
Zn1 O2 1_555 1_555
Zn2 O6 1_555 1_555
O1 C10 1_555 1_555
O2 C5 1_555 1_555
O3 C7 1_555 1_555
O4 C10 1_555 1_555
O5 C6 1_555 1_555
O6 C5 1_555 1_555
O7 C6 1_555 1_555
O8 Zn2 1_555 1_555
N1 Zn1 1_555 1_555
N2 Zn2 1_555 1_555
C1 C2 1_555 1_555
C2 C11 1_555 1_555
C3 H1 1_555 1_555
H2 C3 1_555 1_555
C4 C3 1_555 1_555
C5 C3 1_555 1_555
C6 C9 1_555 1_555
C7 O8 1_555 1_555
C8 C4 1_555 1_555
C9 C1 1_555 1_555
H3 C9 1_555 1_555
H4 C9 1_555 1_555
C10 C13 1_555 1_555
C11 C7 1_555 1_555
H5 C11 1_555 1_555
H6 C11 1_555 1_555
N3 C22 1_555 1_555
C12 C4 1_555 1_555
H7 C12 1_555 1_555
C13 C8 1_555 1_555
H8 C13 1_555 1_555
H9 C13 1_555 1_555
C14 C2 1_555 1_555
H10 C14 1_555 1_555
N4 C20 1_555 1_555
C15 C1 1_555 1_555
H11 C15 1_555 1_555
C16 N1 1_555 1_555
H12 C16 1_555 1_555
C17 N1 1_555 1_555
H13 C17 1_555 1_555
C18 N2 1_555 1_555
H14 C18 1_555 1_555
C19 C17 1_555 1_555
H15 C19 1_555 1_555
C20 C21 1_555 1_555
C21 C18 1_555 1_555
H16 C21 1_555 1_555
C22 C19 1_555 1_555
C23 C14 1_555 1_555
H17 C23 1_555 1_555
C24 N2 1_555 1_555
H18 C24 1_555 1_555
C25 C8 1_555 1_555
H19 C25 1_555 1_555
C26 C16 1_555 1_555
H20 C26 1_555 1_555
C27 C15 1_555 1_555
H21 C27 1_555 1_555
C28 C12 1_555 1_555
H22 C28 1_555 1_555
C29 C20 1_555 1_555
H23 C29 1_555 1_555
C30 C25 1_555 1_555
H24 C30 1_555 1_555
N1F C16F 1_555 1_555
N3F N3 1_555 1_555
C16F H12F 1_555 1_555
C17F N1F 1_555 1_555
H13F C17F 1_555 1_555
C19F C17F 1_555 1_555
H15F C19F 1_555 1_555
C22F N3F 1_555 1_555
C26F C16F 1_555 1_555
H20F C26F 1_555 1_555
N2A C18A 1_555 1_555
N4A N4 1_555 1_555
C18A H14A 1_555 1_555
C20A N4A 1_555 1_555
C21A C18A 1_555 1_555
H16A C21A 1_555 1_555
C24A N2A 1_555 1_555
H18A C24A 1_555 1_555
C29A C20A 1_555 1_555
H23A C29A 1_555 1_555
Zn1A O2A 1_555 1_555
Zn2A N2A 1_555 1_555
O1A C10A 1_555 1_555
O2A C5A 1_555 1_555
O3A C7A 1_555 1_555
O4A C10A 1_555 1_555
O5A C6A 1_555 1_555
O6A Zn2A 1_555 1_555
O7A C6A 1_555 1_555
O8A Zn2A 1_555 1_555
C1A C2A 1_555 1_555
C2A C11A 1_555 1_555
C3A H1A 1_555 1_555
H2A C3A 1_555 1_555
C4A C3A 1_555 1_555
C5A O6A 1_555 1_555
C6A C9A 1_555 1_555
C7A O8A 1_555 1_555
C8A C4A 1_555 1_555
C9A C1A 1_555 1_555
H3A C9A 1_555 1_555
H4A C9A 1_555 1_555
C10A C13A 1_555 1_555
C11A C7A 1_555 1_555
H5A C11A 1_555 1_555
H6A C11A 1_555 1_555
C12A C4A 1_555 1_555
H7A C12A 1_555 1_555
C13A C8A 1_555 1_555
H8A C13A 1_555 1_555
H9A C13A 1_555 1_555
C14A C2A 1_555 1_555
H10A C14A 1_555 1_555
C15A C1A 1_555 1_555
H11A C15A 1_555 1_555
C23A C14A 1_555 1_555
H17A C23A 1_555 1_555
C25A C8A 1_555 1_555
H19A C25A 1_555 1_555
C27A C15A 1_555 1_555
H21A C27A 1_555 1_555
C28A C12A 1_555 1_555
H22A C28A 1_555 1_555
C30A C25A 1_555 1_555
H24A C30A 1_555 1_555
Zn1_2 O1 1_555 1_555
Zn1A_2 O1A 1_555 1_555
Zn1D O3A 1_555 1_555
Zn1E O3 1_555 1_555
Zn1F N1F 1_555 1_555
Zn2_2 O4 1_555 1_555
Zn2A_2 O4A 1_555 1_555
O1_2 Zn1 1_555 1_555
O1A_2 Zn1A 1_555 1_555
O3D Zn1A 1_555 1_555
O3E Zn1 1_555 1_555
O4_2 Zn2 1_555 1_555
O4A_2 Zn2A 1_555 1_555
O5_2 Zn1 1_555 1_555
O5A_2 Zn1A 1_555 1_555
O7_2 Zn2 1_555 1_555
O7A_2 Zn2A 1_555 1_555
N1A Zn1A 1_555 1_555
O5 Zn1_2 1_555 1_555
O7 Zn2_2 1_555 1_555
C22 C26 1_555 1_555
C23 C27 1_555 1_555
C24 C29 1_555 1_555
C28 C30 1_555 1_555
C19F C22F 1_555 1_555
C22F C26F 1_555 1_555
C20A C21A 1_555 1_555
C24A C29A 1_555 1_555
O5A Zn1A_2 1_555 1_555
O7A Zn2A_2 1_555 1_555
C3A C5A 1_555 1_555
C23A C27A 1_555 1_555
C28A C30A 1_555 1_555

#END
