
#######################################################################
#
#                 Cambridge Crystallographic Data Centre
#                                CCDC 
#
#######################################################################
#
# If this CIF has been generated from an entry in the Cambridge 
# Structural Database, then it will include bibliographic, chemical, 
# crystal, experimental, refinement or atomic coordinate data resulting 
# from the CCDC's data processing and validation procedures.
#
#######################################################################

data_DUHDAN
_symmetry_cell_setting           monoclinic
_symmetry_space_group_name_H-M   'C 2/c'
_symmetry_Int_Tables_number      15
_space_group_name_Hall           '-C 2yn'
loop_
_symmetry_equiv_pos_site_id
_symmetry_equiv_pos_as_xyz
1 x,y,z
2 -x,y,1/2-z
3 1/2+x,1/2+y,z
4 1/2-x,1/2+y,1/2-z
5 -x,-y,-z
6 x,-y,1/2+z
7 1/2-x,1/2-y,-z
8 1/2+x,1/2-y,1/2+z
_cell_length_a                   30.4130(12)
_cell_length_b                   9.8290(4)
_cell_length_c                   20.2090(8)
_cell_angle_alpha                90
_cell_angle_beta                 107.291(4)
_cell_angle_gamma                90
_cell_volume                     5768.05
loop_
_atom_site_label
_atom_site_type_symbol
_atom_site_fract_x
_atom_site_fract_y
_atom_site_fract_z
Cd1 Cd 0.267918(11) 0.05194(3) 0.662053(16)
C1 C 0.17277(16) 0.0302(5) 0.6238(2)
C2 C 0.12578(15) -0.0264(4) 0.6141(2)
C3 C 0.1230(2) -0.1569(5) 0.6400(3)
H1 H 0.1501 -0.2054 0.6591
C4 C 0.0821(2) -0.2160(6) 0.6385(4)
H2 H 0.0813 -0.3034 0.6557
C5 C 0.0425(2) -0.1446(7) 0.6113(4)
H3 H 0.0144 -0.1829 0.6110
C6 C 0.04332(17) -0.0167(6) 0.5843(3)
H4 H 0.0157 0.0289 0.5646
C7 C 0.08505(16) 0.0468(5) 0.5857(3)
C8 C 0.08406(15) 0.1834(5) 0.5555(2)
C9 C 0.10202(17) 0.2115(6) 0.5017(3)
H5 H 0.1179 0.1438 0.4861
C10 C 0.09694(17) 0.3379(6) 0.4705(3)
H6 H 0.1094 0.3539 0.4344
C11 C 0.06041(16) 0.2873(5) 0.5763(3)
H7 H 0.0472 0.2708 0.6116
C12 C 0.05588(17) 0.4146(6) 0.5463(3)
H8 H 0.0407 0.4830 0.5627
C13 C 0.07346(16) 0.4418(6) 0.4925(3)
C14 C 0.06769(18) 0.5832(7) 0.4616(3)
H9 H 0.0384 0.5896 0.4257
H10 H 0.0678 0.6494 0.4972
C15 C 0.09733(17) 0.7201(5) 0.3875(3)
C16 C 0.0666(2) 0.8248(6) 0.3863(4)
H11 H 0.0494 0.8257 0.4175
C17 C 0.0617(2) 0.9283(6) 0.3380(4)
H12 H 0.0409 0.9982 0.3368
C18 C 0.0870(2) 0.9298(6) 0.2920(4)
H13 H 0.0828 0.9982 0.2589
C19 C 0.11877(18) 0.8276(5) 0.2960(3)
H14 H 0.1373 0.8304 0.2667
C20 C 0.12383(15) 0.7210(5) 0.3424(2)
C21 C 0.15786(16) 0.6104(5) 0.3421(2)
C22 C 0.31637(18) 0.3145(5) 0.6138(3)
H15 H 0.3463 0.2867 0.6368
C23 C 0.3046(2) 0.4311(5) 0.5780(3)
H16 H 0.3245 0.4990 0.5727
C24 C 0.24295(17) 0.3158(4) 0.5725(2)
H17 H 0.2122 0.2903 0.5615
C25 C 0.2283(2) 0.5379(5) 0.5119(2)
H18 H 0.1980 0.5006 0.4891
H19 H 0.2410 0.5716 0.4764
C26 C 0.22356(19) 0.6547(5) 0.5582(2)
H20 H 0.2527 0.7025 0.5745
H21 H 0.2007 0.7183 0.5317
C27 C 0.17207(17) 0.5304(5) 0.6150(3)
H22 H 0.1491 0.5033 0.5754
C28 C 0.17420(16) 0.5026(5) 0.6801(3)
H23 H 0.1525 0.4521 0.6938
C29 C 0.23400(16) 0.6210(4) 0.6847(2)
H24 H 0.2616 0.6684 0.7010
N1 N 0.27737(13) 0.2439(4) 0.6109(2)
N2 N 0.25795(14) 0.4306(3) 0.55127(19)
N3 N 0.21000(13) 0.6061(4) 0.61737(18)
N4 N 0.21288(12) 0.5592(4) 0.72403(18)
O1 O 0.20007(11) -0.0394(3) 0.6008(2)
O2 O 0.18540(12) 0.1349(4) 0.6578(2)
O3 O 0.14627(13) 0.4895(4) 0.3366(2)
O4 O 0.19805(10) 0.6481(3) 0.34684(17)
O5 O 0.10338(11) 0.6119(4) 0.4336(2)
Cd1C Cd 0.232082(11) 0.55194(3) 0.837947(16)
Cd1F Cd 0.232082(11) 0.44806(3) 0.337947(16)
N4C N 0.28712(12) 0.0592(4) 0.77597(18)
O3F O 0.35373(13) 0.0105(4) 0.6634(2)
O4F O 0.30195(10) -0.1481(3) 0.65316(17)
O6 O 0.0000 0.457(2) 0.2500
O7? O 0.0391(5) 0.331(3) 0.2889(8)
loop_
_geom_bond_atom_site_label_1
_geom_bond_atom_site_label_2
_geom_bond_site_symmetry_1
_geom_bond_site_symmetry_2
Cd1 N1 1_555 1_555
C1 C2 1_555 1_555
C2 C3 1_555 1_555
C3 H1 1_555 1_555
C4 C3 1_555 1_555
H2 C4 1_555 1_555
C5 C4 1_555 1_555
H3 C5 1_555 1_555
C6 C5 1_555 1_555
H4 C6 1_555 1_555
C7 C2 1_555 1_555
C8 C7 1_555 1_555
C9 C8 1_555 1_555
H5 C9 1_555 1_555
C10 C9 1_555 1_555
H6 C10 1_555 1_555
C11 C8 1_555 1_555
H7 C11 1_555 1_555
C12 C11 1_555 1_555
H8 C12 1_555 1_555
C13 C10 1_555 1_555
C14 C13 1_555 1_555
H9 C14 1_555 1_555
H10 C14 1_555 1_555
C15 C16 1_555 1_555
C16 H11 1_555 1_555
C17 C16 1_555 1_555
H12 C17 1_555 1_555
C18 C17 1_555 1_555
H13 C18 1_555 1_555
C19 C18 1_555 1_555
H14 C19 1_555 1_555
C20 C15 1_555 1_555
C21 C20 1_555 1_555
C22 H15 1_555 1_555
C23 C22 1_555 1_555
H16 C23 1_555 1_555
C24 H17 1_555 1_555
C25 H18 1_555 1_555
H19 C25 1_555 1_555
C26 C25 1_555 1_555
H20 C26 1_555 1_555
H21 C26 1_555 1_555
C27 H22 1_555 1_555
C28 C27 1_555 1_555
H23 C28 1_555 1_555
C29 H24 1_555 1_555
N1 C22 1_555 1_555
N2 C23 1_555 1_555
N3 C26 1_555 1_555
N4 C28 1_555 1_555
O1 Cd1 1_555 1_555
O2 Cd1 1_555 1_555
O3 C21 1_555 1_555
O4 C21 1_555 1_555
O5 C14 1_555 1_555
Cd1C N4 1_555 1_555
Cd1F O3 1_555 1_555
N4C Cd1 1_555 1_555
O3F Cd1 1_555 1_555
O4F Cd1 1_555 1_555
C1 O1 1_555 1_555
C1 O2 1_555 1_555
C6 C7 1_555 1_555
C12 C13 1_555 1_555
C15 O5 1_555 1_555
C19 C20 1_555 1_555
C24 N1 1_555 1_555
C24 N2 1_555 1_555
C25 N2 1_555 1_555
C27 N3 1_555 1_555
C29 N3 1_555 1_555
C29 N4 1_555 1_555
O4 Cd1F 1_555 1_555

#END
