
#######################################################################
#
#                 Cambridge Crystallographic Data Centre
#                                CCDC 
#
#######################################################################
#
# If this CIF has been generated from an entry in the Cambridge 
# Structural Database, then it will include bibliographic, chemical, 
# crystal, experimental, refinement or atomic coordinate data resulting 
# from the CCDC's data processing and validation procedures.
#
#######################################################################

data_DUHDOA
_symmetry_cell_setting           monoclinic
_symmetry_space_group_name_H-M   'P 21/c'
_symmetry_Int_Tables_number      14
_space_group_name_Hall           '-P 2ybc'
loop_
_symmetry_equiv_pos_site_id
_symmetry_equiv_pos_as_xyz
1 x,y,z
2 -x,1/2+y,1/2-z
3 -x,-y,-z
4 x,1/2-y,1/2+z
_cell_length_a                   8.1670(5)
_cell_length_b                   25.5551(15)
_cell_length_c                   8.0352(5)
_cell_angle_alpha                90
_cell_angle_beta                 109.2180(10)
_cell_angle_gamma                90
_cell_volume                     1583.56
loop_
_atom_site_label
_atom_site_type_symbol
_atom_site_fract_x
_atom_site_fract_y
_atom_site_fract_z
Cd1 Cd 0.24970(3) 0.341765(9) 0.11023(3)
S1 S 0.46597(12) 0.42159(4) 0.25162(12)
S2 S 0.41932(13) 0.53648(4) 0.17480(14)
S3 S 0.45190(12) 0.16909(3) 0.39697(14)
S4 S 0.09248(16) 0.35522(4) 0.35315(15)
N1 N 0.0001(3) 0.32346(11) -0.1276(4)
N2 N 0.1366(3) 0.41945(9) -0.0536(3)
N3 N 0.2117(3) 0.46724(10) -0.0064(4)
H1 H 0.1666 0.4947 -0.0658
N4 N 0.3164(4) 0.26040(12) 0.2147(4)
N5 N -0.0416(5) 0.45444(14) 0.2464(5)
C1 C -0.0688(5) 0.27656(14) -0.1659(6)
H2 H -0.0169 0.2488 -0.0927
C2 C -0.2130(5) 0.26667(18) -0.3079(6)
H3 H -0.2581 0.2330 -0.3295
C3 C -0.2899(5) 0.3070(2) -0.4176(7)
H4 H -0.3882 0.3012 -0.5151
C4 C -0.2190(5) 0.35621(19) -0.3809(6)
H5 H -0.2685 0.3843 -0.4536
C5 C -0.0744(4) 0.36326(13) -0.2357(5)
C6 C 0.0043(4) 0.41479(13) -0.1903(5)
H6 H -0.0417 0.4437 -0.2604
C7 C 0.3576(4) 0.47108(12) 0.1344(4)
C8 C 0.6239(5) 0.53242(16) 0.3463(5)
H7 H 0.6073 0.5196 0.4518
H8 H 0.6760 0.5665 0.3679
H9 H 0.6985 0.5090 0.3113
C9 C 0.3692(4) 0.22243(12) 0.2890(5)
C10 C 0.0112(5) 0.41349(14) 0.2887(5)
Cd1C Cd 0.24970(3) 0.158235(9) 0.61023(3)
S3C S 0.45190(12) 0.33091(3) -0.10303(14)
loop_
_geom_bond_atom_site_label_1
_geom_bond_atom_site_label_2
_geom_bond_site_symmetry_1
_geom_bond_site_symmetry_2
Cd1 S1 1_555 1_555
S1 C7 1_555 1_555
S2 C7 1_555 1_555
S3 C9 1_555 1_555
S4 Cd1 1_555 1_555
N1 Cd1 1_555 1_555
N2 Cd1 1_555 1_555
N3 N2 1_555 1_555
H1 N3 1_555 1_555
N4 Cd1 1_555 1_555
N5 C10 1_555 1_555
C1 N1 1_555 1_555
H2 C1 1_555 1_555
C2 C1 1_555 1_555
H3 C2 1_555 1_555
C3 C2 1_555 1_555
H4 C3 1_555 1_555
C4 C3 1_555 1_555
H5 C4 1_555 1_555
C5 N1 1_555 1_555
C6 N2 1_555 1_555
H6 C6 1_555 1_555
C7 N3 1_555 1_555
C8 S2 1_555 1_555
H7 C8 1_555 1_555
H8 C8 1_555 1_555
H9 C8 1_555 1_555
C9 N4 1_555 1_555
C10 S4 1_555 1_555
Cd1C S3 1_555 1_555
S3C Cd1 1_555 1_555
C4 C5 1_555 1_555
C5 C6 1_555 1_555

#END
