
#######################################################################
#
#                 Cambridge Crystallographic Data Centre
#                                CCDC 
#
#######################################################################
#
# If this CIF has been generated from an entry in the Cambridge 
# Structural Database, then it will include bibliographic, chemical, 
# crystal, experimental, refinement or atomic coordinate data resulting 
# from the CCDC's data processing and validation procedures.
#
#######################################################################

data_DUHFET
_symmetry_cell_setting           monoclinic
_symmetry_space_group_name_H-M   'P 21/c'
_symmetry_Int_Tables_number      14
_space_group_name_Hall           '-P 2ybc'
loop_
_symmetry_equiv_pos_site_id
_symmetry_equiv_pos_as_xyz
1 x,y,z
2 -x,1/2+y,1/2-z
3 -x,-y,-z
4 x,1/2-y,1/2+z
_cell_length_a                   12.4370(11)
_cell_length_b                   22.6920(13)
_cell_length_c                   11.5970(8)
_cell_angle_alpha                90
_cell_angle_beta                 113.116(9)
_cell_angle_gamma                90
_cell_volume                     3010.13
loop_
_atom_site_label
_atom_site_type_symbol
_atom_site_fract_x
_atom_site_fract_y
_atom_site_fract_z
Cd1 Cd 0.03948(3) 0.015257(13) 0.67494(2)
C1 C -0.0992(4) 0.41023(19) 0.9111(4)
C2 C -0.1477(4) 0.35249(19) 0.9320(3)
C3 C -0.2380(4) 0.3566(2) 0.9733(3)
H1 H -0.2590 0.3931 0.9944
C4 C -0.2976(5) 0.3057(3) 0.9834(4)
H2 H -0.3590 0.3086 1.0098
C5 C -0.2660(5) 0.2522(2) 0.9545(4)
H3 H -0.3058 0.2185 0.9610
C6 C -0.1756(5) 0.2479(2) 0.9159(4)
H4 H -0.1539 0.2109 0.8979
C7 C -0.1150(4) 0.2975(2) 0.9029(3)
C8 C -0.0131(4) 0.28756(17) 0.8690(3)
C9 C 0.0953(5) 0.31080(18) 0.9382(4)
H5 H 0.1026 0.3373 1.0020
C10 C 0.1958(4) 0.29612(18) 0.9165(4)
H6 H 0.2682 0.3117 0.9668
C11 C -0.0193(4) 0.24867(18) 0.7735(3)
H7 H -0.0905 0.2313 0.7253
C12 C 0.0787(5) 0.23534(19) 0.7487(4)
H8 H 0.0714 0.2103 0.6825
C13 C 0.1854(5) 0.25854(19) 0.8203(4)
C14 C 0.2920(4) 0.2437(2) 0.7951(4)
H9 H 0.2879 0.2625 0.7184
H10 H 0.3620 0.2572 0.8636
C15 C 0.3754(4) 0.1573(2) 0.7437(4)
C16 C 0.4707(4) 0.1884(2) 0.7386(4)
H11 H 0.4817 0.2280 0.7607
C17 C 0.5469(5) 0.1596(2) 0.7006(4)
H12 H 0.6099 0.1802 0.6964
C18 C 0.5343(5) 0.1010(2) 0.6681(4)
H13 H 0.5859 0.0826 0.6394
C19 C 0.4417(5) 0.0696(2) 0.6794(4)
H14 H 0.4354 0.0292 0.6639
C20 C 0.3601(4) 0.0975(2) 0.7129(3)
C21 C 0.2567(4) 0.0642(2) 0.7158(4)
C22 C 0.1159(5) 0.1080(2) 0.9166(4)
H15 H 0.1776 0.1167 0.8931
C23 C 0.1098(5) 0.13673(19) 1.0217(4)
H16 H 0.1663 0.1641 1.0668
C24 C 0.0201(6) 0.1236(2) 1.0554(4)
H17 H 0.0159 0.1416 1.1255
C25 C -0.0653(5) 0.0839(2) 0.9875(4)
C26 C -0.0547(4) 0.05683(18) 0.8828(3)
C27 C -0.1635(6) 0.0687(2) 1.0158(4)
H18 H -0.1719 0.0867 1.0838
C28 C -0.2426(5) 0.0302(2) 0.9492(4)
H19 H -0.3043 0.0210 0.9723
C29 C -0.2352(4) 0.00222(19) 0.8418(3)
C30 C -0.1412(4) 0.01584(19) 0.8088(3)
C31 C -0.3173(4) -0.0381(2) 0.7664(4)
H20 H -0.3813 -0.0482 0.7848
C32 C -0.3041(4) -0.0630(2) 0.6657(4)
H21 H -0.3588 -0.0896 0.6141
C33 C -0.2067(4) -0.0475(2) 0.6424(4)
H22 H -0.1970 -0.0650 0.5747
N1 N 0.0365(4) 0.06913(14) 0.8507(3)
N2 N -0.1271(3) -0.00950(15) 0.7105(3)
O1 O -0.0943(2) 0.45344(11) 0.9825(2)
O2 O -0.0711(2) 0.41552(10) 0.8186(2)
O3 O 0.1581(3) 0.08348(12) 0.6464(2)
O4 O 0.2705(2) 0.01903(14) 0.7815(2)
O5 O 0.2945(3) 0.18206(14) 0.7838(3)
Cd1A Cd -0.03948(3) 0.515257(13) 0.82506(2)
Cd1C Cd 0.03948(3) 0.484743(13) 1.17494(2)
O1A O 0.0943(2) -0.04656(11) 0.5175(2)
O1C O -0.0943(2) 0.04656(11) 0.4825(2)
O2A O 0.0711(2) -0.08448(10) 0.6814(2)
C34 C 0.4355(7) -0.1108(3) 0.9013(7)
H23 H 0.4514 -0.1039 0.9890
H24 H 0.3534 -0.1207 0.8592
C35 C 0.5005(6) -0.1570(3) 0.8923(6)
H25 H 0.4843 -0.1907 0.9329
H26 H 0.5819 -0.1472 0.9319
H27 H 0.4812 -0.1659 0.8055
O6 O 0.4575(4) -0.05863(18) 0.8490(4)
H28 H 0.4139 -0.0570 0.7746
loop_
_geom_bond_atom_site_label_1
_geom_bond_atom_site_label_2
_geom_bond_site_symmetry_1
_geom_bond_site_symmetry_2
Cd1 N1 1_555 1_555
C1 C2 1_555 1_555
C2 C3 1_555 1_555
C3 H1 1_555 1_555
C4 C3 1_555 1_555
H2 C4 1_555 1_555
C5 C4 1_555 1_555
H3 C5 1_555 1_555
C6 C5 1_555 1_555
H4 C6 1_555 1_555
C7 C2 1_555 1_555
C8 C7 1_555 1_555
C9 C8 1_555 1_555
H5 C9 1_555 1_555
C10 C9 1_555 1_555
H6 C10 1_555 1_555
C11 C8 1_555 1_555
H7 C11 1_555 1_555
C12 C11 1_555 1_555
H8 C12 1_555 1_555
C13 C10 1_555 1_555
C14 C13 1_555 1_555
H9 C14 1_555 1_555
H10 C14 1_555 1_555
C15 C16 1_555 1_555
C16 H11 1_555 1_555
C17 C16 1_555 1_555
H12 C17 1_555 1_555
C18 C17 1_555 1_555
H13 C18 1_555 1_555
C19 C18 1_555 1_555
H14 C19 1_555 1_555
C20 C15 1_555 1_555
C21 C20 1_555 1_555
C22 H15 1_555 1_555
C23 C22 1_555 1_555
H16 C23 1_555 1_555
C24 C23 1_555 1_555
H17 C24 1_555 1_555
C25 C24 1_555 1_555
C26 C25 1_555 1_555
C27 C25 1_555 1_555
H18 C27 1_555 1_555
C28 C27 1_555 1_555
H19 C28 1_555 1_555
C29 C28 1_555 1_555
C30 C26 1_555 1_555
C31 C29 1_555 1_555
H20 C31 1_555 1_555
C32 C31 1_555 1_555
H21 C32 1_555 1_555
C33 C32 1_555 1_555
H22 C33 1_555 1_555
N1 C22 1_555 1_555
N2 Cd1 1_555 1_555
O1 C1 1_555 1_555
O2 C1 1_555 1_555
O3 Cd1 1_555 1_555
O4 Cd1 1_555 1_555
O5 C14 1_555 1_555
C34 H23 1_555 1_555
H24 C34 1_555 1_555
C35 C34 1_555 1_555
H25 C35 1_555 1_555
H26 C35 1_555 1_555
H27 C35 1_555 1_555
O6 C34 1_555 1_555
H28 O6 1_555 1_555
Cd1A O1 1_555 1_555
Cd1C O1 1_555 1_555
O1A Cd1 1_555 1_555
O1C Cd1 1_555 1_555
O2A Cd1 1_555 1_555
C6 C7 1_555 1_555
C12 C13 1_555 1_555
C15 O5 1_555 1_555
C19 C20 1_555 1_555
C21 O3 1_555 1_555
C21 O4 1_555 1_555
C26 N1 1_555 1_555
C29 C30 1_555 1_555
C30 N2 1_555 1_555
C33 N2 1_555 1_555
O2 Cd1A 1_555 1_555

#END
