
#######################################################################
#
#                 Cambridge Crystallographic Data Centre
#                                CCDC 
#
#######################################################################
#
# If this CIF has been generated from an entry in the Cambridge 
# Structural Database, then it will include bibliographic, chemical, 
# crystal, experimental, refinement or atomic coordinate data resulting 
# from the CCDC's data processing and validation procedures.
#
#######################################################################

data_DUHFOD
_symmetry_cell_setting           monoclinic
_symmetry_space_group_name_H-M   'P 21/c'
_symmetry_Int_Tables_number      14
_space_group_name_Hall           '-P 2ybc'
loop_
_symmetry_equiv_pos_site_id
_symmetry_equiv_pos_as_xyz
1 x,y,z
2 -x,1/2+y,1/2-z
3 -x,-y,-z
4 x,1/2-y,1/2+z
_cell_length_a                   11.2680(3)
_cell_length_b                   15.2590(4)
_cell_length_c                   19.6740(6)
_cell_angle_alpha                90
_cell_angle_beta                 97.639(3)
_cell_angle_gamma                90
_cell_volume                     3352.7
loop_
_atom_site_label
_atom_site_type_symbol
_atom_site_fract_x
_atom_site_fract_y
_atom_site_fract_z
Zn1 Zn 0.52745(3) 0.139347(19) 0.154735(15)
C1 C 0.6876(3) 0.28453(19) 0.19383(15)
C2 C 0.7740(2) 0.32236(18) 0.25118(14)
C3 C 0.7821(3) 0.41328(18) 0.25517(15)
H1 H 0.7380 0.4470 0.2215
C4 C 0.8536(3) 0.4544(2) 0.30757(16)
H2 H 0.8562 0.5152 0.3100
C5 C 0.9217(3) 0.4043(2) 0.35672(16)
H3 H 0.9705 0.4316 0.3924
C6 C 0.9176(3) 0.3143(2) 0.35318(15)
H4 H 0.9651 0.2815 0.3861
C7 C 0.8433(2) 0.27141(18) 0.30103(14)
C8 C 0.8472(3) 0.17463(19) 0.29925(15)
C9 C 0.8668(3) 0.12912(19) 0.24050(17)
H5 H 0.8721 0.1603 0.2004
C10 C 0.8789(3) 0.0388(2) 0.23982(18)
H6 H 0.8900 0.0104 0.1993
C11 C 0.8414(3) 0.1245(2) 0.35673(18)
H7 H 0.8284 0.1524 0.3971
C12 C 0.8542(3) 0.0338(2) 0.35703(18)
H8 H 0.8490 0.0021 0.3969
C13 C 0.8746(3) -0.0088(2) 0.29825(18)
C14 C 0.9016(3) -0.1067(2) 0.2973(2)
H9 H 0.8662 -0.1318 0.2541
H10 H 0.9875 -0.1158 0.3018
C15 C 0.9081(3) -0.2242(2) 0.38028(19)
C16 C 1.0292(3) -0.2241(2) 0.4072(2)
H11 H 1.0760 -0.1749 0.4024
C17 C 1.0786(3) -0.2959(3) 0.4403(2)
H12 H 1.1595 -0.2953 0.4576
C18 C 1.0119(3) -0.3698(2) 0.44885(18)
H13 H 1.0466 -0.4186 0.4718
C19 C 0.8930(3) -0.3694(2) 0.42262(16)
H14 H 0.8469 -0.4184 0.4292
C20 C 0.8382(2) -0.29849(18) 0.38654(14)
C21 C 0.7092(2) -0.30620(17) 0.35618(13)
C22 C 0.8394(4) -0.5034(2) 0.0613(2)
H15 H 0.8733 -0.5300 0.1037
H16 H 0.8973 -0.5039 0.0296
H17 H 0.7697 -0.5357 0.0422
C23 C 0.8044(3) -0.41003(18) 0.07432(16)
C24 C 0.7532(3) -0.35713(19) 0.02141(16)
H18 H 0.7434 -0.3784 -0.0233
C25 C 0.7166(3) -0.27293(18) 0.03417(14)
H19 H 0.6828 -0.2382 -0.0022
C26 C 0.8214(3) -0.37567(19) 0.13969(16)
H20 H 0.8594 -0.4095 0.1755
C27 C 0.7833(2) -0.29231(18) 0.15327(15)
H21 H 0.7938 -0.2713 0.1980
C28 C 0.7292(2) -0.23947(17) 0.10010(13)
C29 C 0.6843(2) -0.15054(17) 0.11379(13)
C30 C 0.6804(2) -0.08492(16) 0.06408(13)
H22 H 0.7080 -0.0962 0.0225
C31 C 0.6353(2) -0.00314(16) 0.07690(12)
C32 C 0.6429(2) -0.12997(17) 0.17531(13)
H23 H 0.6441 -0.1721 0.2095
C33 C 0.6000(2) -0.04689(16) 0.18562(13)
C34 C 0.6265(2) 0.07076(16) 0.02763(13)
C35 C 0.6527(2) 0.06298(18) -0.03883(13)
H24 H 0.6761 0.0092 -0.0550
C36 C 0.6439(2) 0.13563(18) -0.08103(14)
H25 H 0.6611 0.1317 -0.1259
C37 C 0.6091(3) 0.21374(19) -0.05544(14)
H26 H 0.6034 0.2639 -0.0825
C38 C 0.5828(2) 0.21690(17) 0.01056(14)
H27 H 0.5586 0.2700 0.0273
C39 C 0.5555(2) -0.01793(17) 0.24992(13)
C40 C 0.5583(3) -0.07021(19) 0.30743(14)
H28 H 0.5859 -0.1276 0.3072
C41 C 0.5194(3) -0.0353(2) 0.36506(15)
H29 H 0.5196 -0.0695 0.4042
C42 C 0.4803(3) 0.0500(2) 0.36467(15)
H30 H 0.4558 0.0750 0.4036
C43 C 0.4784(3) 0.0971(2) 0.30529(15)
H31 H 0.4508 0.1546 0.3045
N1 N 0.59039(19) 0.14725(13) 0.05172(11)
N2 N 0.59621(17) 0.01478(13) 0.13698(10)
N3 N 0.51433(19) 0.06459(14) 0.24843(11)
O1 O 0.6840(2) 0.31626(15) 0.13656(12)
O2 O 0.62162(18) 0.22417(13) 0.21114(10)
O3 O 0.67473(19) -0.26982(15) 0.30141(11)
O4 O 0.64189(16) -0.35272(12) 0.38873(9)
O5 O 0.8538(2) -0.14907(15) 0.35285(17)
Zn1A Zn 0.47255(3) -0.360653(19) 0.345265(15)
O4A O 0.35811(16) 0.14728(12) 0.11127(9)
loop_
_geom_bond_atom_site_label_1
_geom_bond_atom_site_label_2
_geom_bond_site_symmetry_1
_geom_bond_site_symmetry_2
Zn1 N1 1_555 1_555
C1 C2 1_555 1_555
C2 C3 1_555 1_555
C3 H1 1_555 1_555
C4 C3 1_555 1_555
H2 C4 1_555 1_555
C5 C4 1_555 1_555
H3 C5 1_555 1_555
C6 C5 1_555 1_555
H4 C6 1_555 1_555
C7 C2 1_555 1_555
C8 C7 1_555 1_555
C9 C8 1_555 1_555
H5 C9 1_555 1_555
C10 C9 1_555 1_555
H6 C10 1_555 1_555
C11 C8 1_555 1_555
H7 C11 1_555 1_555
C12 C11 1_555 1_555
H8 C12 1_555 1_555
C13 C10 1_555 1_555
C14 C13 1_555 1_555
H9 C14 1_555 1_555
H10 C14 1_555 1_555
C15 C16 1_555 1_555
C16 H11 1_555 1_555
C17 C16 1_555 1_555
H12 C17 1_555 1_555
C18 C17 1_555 1_555
H13 C18 1_555 1_555
C19 C18 1_555 1_555
H14 C19 1_555 1_555
C20 C15 1_555 1_555
C21 C20 1_555 1_555
C22 H15 1_555 1_555
H16 C22 1_555 1_555
H17 C22 1_555 1_555
C23 C22 1_555 1_555
C24 C23 1_555 1_555
H18 C24 1_555 1_555
C25 C24 1_555 1_555
H19 C25 1_555 1_555
C26 C23 1_555 1_555
H20 C26 1_555 1_555
C27 C26 1_555 1_555
H21 C27 1_555 1_555
C28 C25 1_555 1_555
C29 C28 1_555 1_555
C30 C29 1_555 1_555
H22 C30 1_555 1_555
C31 C30 1_555 1_555
C32 C29 1_555 1_555
H23 C32 1_555 1_555
C33 C32 1_555 1_555
C34 C31 1_555 1_555
C35 C34 1_555 1_555
H24 C35 1_555 1_555
C36 C35 1_555 1_555
H25 C36 1_555 1_555
C37 C36 1_555 1_555
H26 C37 1_555 1_555
C38 C37 1_555 1_555
H27 C38 1_555 1_555
C39 C33 1_555 1_555
C40 C39 1_555 1_555
H28 C40 1_555 1_555
C41 C40 1_555 1_555
H29 C41 1_555 1_555
C42 C41 1_555 1_555
H30 C42 1_555 1_555
C43 C42 1_555 1_555
H31 C43 1_555 1_555
N1 C34 1_555 1_555
N2 Zn1 1_555 1_555
N3 Zn1 1_555 1_555
O1 C1 1_555 1_555
O2 Zn1 1_555 1_555
O3 C21 1_555 1_555
O4 C21 1_555 1_555
O5 C14 1_555 1_555
Zn1A O4 1_555 1_555
O4A Zn1 1_555 1_555
C1 O2 1_555 1_555
C6 C7 1_555 1_555
C12 C13 1_555 1_555
C15 O5 1_555 1_555
C19 C20 1_555 1_555
C27 C28 1_555 1_555
C31 N2 1_555 1_555
C33 N2 1_555 1_555
C38 N1 1_555 1_555
C39 N3 1_555 1_555
C43 N3 1_555 1_555

#END
