
#######################################################################
#
#                 Cambridge Crystallographic Data Centre
#                                CCDC 
#
#######################################################################
#
# If this CIF has been generated from an entry in the Cambridge 
# Structural Database, then it will include bibliographic, chemical, 
# crystal, experimental, refinement or atomic coordinate data resulting 
# from the CCDC's data processing and validation procedures.
#
#######################################################################

data_DUHFIW
_symmetry_cell_setting           monoclinic
_symmetry_space_group_name_H-M   'P 21/c'
_symmetry_Int_Tables_number      14
_space_group_name_Hall           '-P 2ybc'
loop_
_symmetry_equiv_pos_site_id
_symmetry_equiv_pos_as_xyz
1 x,y,z
2 -x,1/2+y,1/2-z
3 -x,-y,-z
4 x,1/2-y,1/2+z
_cell_length_a                   11.896(3)
_cell_length_b                   7.2696(14)
_cell_length_c                   13.505(3)
_cell_angle_alpha                90
_cell_angle_beta                 96.259(3)
_cell_angle_gamma                90
_cell_volume                     1160.94
loop_
_atom_site_label
_atom_site_type_symbol
_atom_site_fract_x
_atom_site_fract_y
_atom_site_fract_z
Gd1 Gd 0.283337(12) 0.28362(2) 0.703522(11)
O1 O 0.46782(18) 0.4287(3) 0.74763(16)
O2 O 0.58731(18) 0.5825(3) 0.85710(16)
O3 O 0.3449(2) 1.0594(3) 1.05119(16)
O4 O 0.25022(19) 0.8881(3) 1.14877(16)
O5 O 0.10951(19) 0.3347(3) 0.77338(17)
O6 O 0.00718(19) 0.4715(3) 0.88248(16)
O7 O 0.3762(2) 0.1238(3) 0.85200(17)
H1 H 0.425(3) 0.051(4) 0.838(3)
H2 H 0.369(3) 0.110(5) 0.9117(19)
O8 O 0.1937(2) -0.0211(3) 0.71872(18)
H3 H 0.129(2) -0.034(5) 0.690(3)
H4 H 0.225(3) -0.109(4) 0.709(3)
O9 O 0.1329(2) 0.2581(3) 0.56658(18)
H5 H 0.081(3) 0.185(4) 0.571(3)
H6 H 0.121(3) 0.314(5) 0.513(2)
N1 N 0.2963(2) 0.4907(3) 0.85098(19)
C1 C 0.3938(3) 0.5761(4) 0.8822(2)
C2 C 0.4007(3) 0.7107(4) 0.9553(2)
H9 H 0.4699 0.7730 0.9744
C3 C 0.3035(3) 0.7525(4) 1.0003(2)
C4 C 0.2043(3) 0.6563(4) 0.9712(2)
H10 H 0.1385 0.6761 1.0037
C5 C 0.2035(3) 0.5320(4) 0.8944(2)
C6 C 0.4912(3) 0.5242(4) 0.8255(2)
C7 C 0.3007(3) 0.9081(4) 1.0720(2)
C8 C 0.0974(3) 0.4387(4) 0.8469(2)
Gd1A Gd 0.716663(12) 0.78362(2) 0.796478(11)
Gd1C Gd 0.283337(12) 1.21638(2) 1.203522(11)
O2A O 0.41269(18) 0.0825(3) 0.64290(16)
O3C O 0.3449(2) 0.4406(3) 0.55119(16)
O4C O 0.25022(19) 0.6119(3) 0.64877(16)
O10 O 0.0781(2) 0.4862(3) 0.40873(19)
H7 H 0.106(4) 0.505(6) 0.357(2)
H8 H 0.016(3) 0.531(5) 0.392(3)
loop_
_geom_bond_atom_site_label_1
_geom_bond_atom_site_label_2
_geom_bond_site_symmetry_1
_geom_bond_site_symmetry_2
Gd1 O1 1_555 1_555
O1 C6 1_555 1_555
O2 C6 1_555 1_555
O3 C7 1_555 1_555
O4 C7 1_555 1_555
O5 Gd1 1_555 1_555
O6 C8 1_555 1_555
O7 Gd1 1_555 1_555
H1 O7 1_555 1_555
H2 O7 1_555 1_555
O8 Gd1 1_555 1_555
H3 O8 1_555 1_555
H4 O8 1_555 1_555
O9 Gd1 1_555 1_555
H5 O9 1_555 1_555
H6 O9 1_555 1_555
O10 H7 1_555 1_555
H8 O10 1_555 1_555
N1 Gd1 1_555 1_555
C1 N1 1_555 1_555
C2 C1 1_555 1_555
H9 C2 1_555 1_555
C3 C2 1_555 1_555
C4 C3 1_555 1_555
H10 C4 1_555 1_555
C5 N1 1_555 1_555
C6 C1 1_555 1_555
C7 C3 1_555 1_555
C8 O5 1_555 1_555
Gd1A O2 1_555 1_555
Gd1C O3 1_555 1_555
O2A Gd1 1_555 1_555
O3C Gd1 1_555 1_555
O4C Gd1 1_555 1_555
O4 Gd1C 1_555 1_555
C4 C5 1_555 1_555
C5 C8 1_555 1_555

#END
