
#######################################################################
#
#                 Cambridge Crystallographic Data Centre
#                                CCDC 
#
#######################################################################
#
# If this CIF has been generated from an entry in the Cambridge 
# Structural Database, then it will include bibliographic, chemical, 
# crystal, experimental, refinement or atomic coordinate data resulting 
# from the CCDC's data processing and validation procedures.
#
#######################################################################

data_DUHFOC
_symmetry_cell_setting           monoclinic
_symmetry_space_group_name_H-M   'P 21/c'
_symmetry_Int_Tables_number      14
_space_group_name_Hall           '-P 2ybc'
loop_
_symmetry_equiv_pos_site_id
_symmetry_equiv_pos_as_xyz
1 x,y,z
2 -x,1/2+y,1/2-z
3 -x,-y,-z
4 x,1/2-y,1/2+z
_cell_length_a                   11.4549(17)
_cell_length_b                   11.0447(16)
_cell_length_c                   17.089(3)
_cell_angle_alpha                90
_cell_angle_beta                 92.738(3)
_cell_angle_gamma                90
_cell_volume                     2159.56
loop_
_atom_site_label
_atom_site_type_symbol
_atom_site_fract_x
_atom_site_fract_y
_atom_site_fract_z
C1 C 0.7777(4) 0.2923(4) 0.8056(3)
C2 C 0.7006(4) 0.2254(4) 0.8489(3)
H1 H 0.6435 0.2656 0.8757
C3 C 0.7071(4) 0.0989(5) 0.8528(3)
C4 C 0.7949(5) 0.0449(4) 0.8134(3)
C5 C 0.8756(5) 0.1090(5) 0.7707(4)
H2 H 0.9351 0.0692 0.7458
C6 C 0.8644(5) 0.2338(5) 0.7665(4)
H3 H 0.9154 0.2786 0.7373
C7 C 0.6158(5) 0.0338(4) 0.8994(3)
C8 C 0.5609(4) 0.2511(4) 0.6504(3)
H4 H 0.5129 0.2936 0.6831
C9 C 0.5560(4) 0.1262(4) 0.6501(3)
H5 H 0.5067 0.0860 0.6831
C10 C 0.6248(5) 0.0607(4) 0.6005(3)
C11 C 0.6982(4) 0.1266(4) 0.5532(3)
H6 H 0.7454 0.0869 0.5186
C12 C 0.6997(4) 0.2501(4) 0.5582(3)
H7 H 0.7504 0.2924 0.5273
C13 C 0.6233(4) -0.0732(4) 0.5994(3)
C14 C 0.6096(4) -0.1390(4) 0.6673(3)
H8 H 0.5960 -0.0992 0.7140
C15 C 0.6162(5) -0.2632(4) 0.6656(3)
H9 H 0.6098 -0.3057 0.7122
C16 C 0.6431(5) -0.2628(4) 0.5338(3)
H10 H 0.6541 -0.3054 0.4878
C17 C 0.6397(5) -0.1375(4) 0.5304(3)
H11 H 0.6482 -0.0971 0.4833
N1 N 0.8084(4) -0.0879(4) 0.8167(3)
N2 N 0.6323(4) 0.3136(3) 0.6052(3)
N3 N 0.6313(4) -0.3253(4) 0.5997(3)
O1 O 0.8669(3) 0.4957(3) 0.7649(2)
O2 O 0.6584(3) 0.4755(3) 0.7539(2)
O3 O 0.7549(4) 0.4910(3) 0.8822(2)
O4 O 0.5260(3) 0.0046(3) 0.8591(2)
O5 O 0.6357(3) 0.0231(3) 0.9703(2)
O6 O 0.8116(3) 0.4917(4) 0.6061(2)
O7 O 0.7382(3) -0.1481(3) 0.8514(3)
O8 O 0.8888(4) -0.1338(4) 0.7835(3)
S1 S 0.76325(13) 0.45326(12) 0.80248(9)
Cu1 Cu 0.63413(5) 0.49342(5) 0.60435(4)
H16 H 0.833(5) 0.486(5) 0.653(3)
H17 H 0.843(5) 0.543(5) 0.576(3)
C1A C 0.2223(4) 0.7923(4) 0.6944(3)
C2A C 0.2994(4) 0.7254(4) 0.6511(3)
H1A H 0.3565 0.7656 0.6243
C3A C 0.2929(4) 0.5989(5) 0.6472(3)
C4A C 0.2051(5) 0.5449(4) 0.6866(3)
C5A C 0.1244(5) 0.6090(5) 0.7293(4)
H2A H 0.0649 0.5692 0.7542
C6A C 0.1356(5) 0.7338(5) 0.7335(4)
H3A H 0.0846 0.7786 0.7627
C7A C 0.3842(5) 0.5338(4) 0.6006(3)
C8_2 C 0.5609(4) 1.2511(4) 0.6504(3)
H4_2 H 0.5129 1.2936 0.6831
C9_2 C 0.5560(4) 1.1262(4) 0.6501(3)
H5_2 H 0.5067 1.0860 0.6831
C10_2 C 0.6248(5) 1.0607(4) 0.6005(3)
C11_2 C 0.6982(4) 1.1266(4) 0.5532(3)
H6_2 H 0.7454 1.0869 0.5186
C12_2 C 0.6997(4) 1.2501(4) 0.5582(3)
H7_2 H 0.7504 1.2924 0.5273
C13_2 C 0.6233(4) 0.9268(4) 0.5994(3)
C14_2 C 0.6096(4) 0.8610(4) 0.6673(3)
H8_2 H 0.5960 0.9008 0.7140
C15_2 C 0.6162(5) 0.7368(4) 0.6656(3)
H9_2 H 0.6098 0.6943 0.7122
C16_2 C 0.6431(5) 0.7372(4) 0.5338(3)
H10_2 H 0.6541 0.6946 0.4878
C17_2 C 0.6397(5) 0.8625(4) 0.5304(3)
H11_2 H 0.6482 0.9029 0.4833
N1A N 0.1916(4) 0.4121(4) 0.6833(3)
N2_2 N 0.6323(4) 1.3136(3) 0.6052(3)
N3_2 N 0.6313(4) 0.6747(4) 0.5997(3)
N3_3 N 0.6313(4) 1.6747(4) 0.5997(3)
O1A O 0.1331(3) 0.9957(3) 0.7351(2)
O2A O 0.3416(3) 0.9755(3) 0.7461(2)
O2_2 O 0.6584(3) 1.4755(3) 0.7539(2)
O3A O 0.2451(4) 0.9910(3) 0.6178(2)
O4A O 0.4740(3) 0.5046(3) 0.6409(2)
O4A_2 O 0.4740(3) 1.5046(3) 0.6409(2)
O5A O 0.3643(3) 0.5231(3) 0.5297(2)
O5C O 0.6357(3) 0.4769(3) 0.4703(2)
O5C_2 O 0.6357(3) 1.4769(3) 0.4703(2)
O6_2 O 0.8116(3) 1.4917(4) 0.6061(2)
O7A O 0.2618(3) 0.3519(3) 0.6486(3)
O8A O 0.1112(4) 0.3662(4) 0.7165(3)
S1A S 0.23675(13) 0.95326(12) 0.69752(9)
Cu1_2 Cu 0.63413(5) 1.49342(5) 0.60435(4)
Cu1_3 Cu 0.63413(5) -0.50658(5) 0.60435(4)
Cu1A Cu 0.36587(5) -0.00658(5) 0.89565(4)
Cu1C Cu 0.63413(5) 0.00658(5) 1.10435(4)
Cu1A_2 Cu 0.36587(5) 0.99342(5) 0.89565(4)
Cu1B Cu 0.36587(5) 0.50658(5) 0.39565(4)
H16_2 H 0.833(5) 1.486(5) 0.653(3)
H17_2 H 0.843(5) 1.543(5) 0.576(3)
C18 C 0.0395(6) 0.2255(6) 1.0226(4)
H12 H 0.0316 0.1641 1.0593
C19 C 0.0134(6) 0.3431(6) 1.0445(4)
H13 H -0.0057 0.3597 1.0957
C20 C 0.0160(5) 0.4360(5) 0.9900(4)
C21 C 0.0488(5) 0.4042(6) 0.9165(4)
H14 H 0.0509 0.4629 0.8776
C22 C 0.0790(5) 0.2855(6) 0.8995(4)
H15 H 0.1028 0.2677 0.8495
N4 N 0.0754(4) 0.1954(5) 0.9520(3)
C18B C -0.0395(6) 0.7745(6) 0.9774(4)
H12B H -0.0316 0.8359 0.9407
C19B C -0.0134(6) 0.6569(6) 0.9555(4)
H13B H 0.0057 0.6403 0.9043
C20B C -0.0160(5) 0.5640(5) 1.0100(4)
C21B C -0.0488(5) 0.5958(6) 1.0835(4)
H14B H -0.0509 0.5371 1.1224
C22B C -0.0790(5) 0.7145(6) 1.1005(4)
H15B H -0.1028 0.7323 1.1505
N4B N -0.0754(4) 0.8046(5) 1.0480(3)
loop_
_geom_bond_atom_site_label_1
_geom_bond_atom_site_label_2
_geom_bond_site_symmetry_1
_geom_bond_site_symmetry_2
C1 C2 1_555 1_555
C2 H1 1_555 1_555
C3 C2 1_555 1_555
C4 C3 1_555 1_555
C5 C4 1_555 1_555
H2 C5 1_555 1_555
C6 C1 1_555 1_555
H3 C6 1_555 1_555
C7 C3 1_555 1_555
C8 H4 1_555 1_555
C9 C8 1_555 1_555
H5 C9 1_555 1_555
C10 C9 1_555 1_555
C11 C10 1_555 1_555
H6 C11 1_555 1_555
C12 C11 1_555 1_555
H7 C12 1_555 1_555
C13 C10 1_555 1_555
C14 C13 1_555 1_555
H8 C14 1_555 1_555
C15 C14 1_555 1_555
H9 C15 1_555 1_555
C16 H10 1_555 1_555
C17 C13 1_555 1_555
H11 C17 1_555 1_555
C18 H12 1_555 1_555
C19 C18 1_555 1_555
H13 C19 1_555 1_555
C20 C19 1_555 1_555
C21 C20 1_555 1_555
H14 C21 1_555 1_555
C22 C21 1_555 1_555
H15 C22 1_555 1_555
N1 C4 1_555 1_555
N2 C8 1_555 1_555
N3 C15 1_555 1_555
N4 C18 1_555 1_555
O1 S1 1_555 1_555
O2 S1 1_555 1_555
O3 S1 1_555 1_555
O4 C7 1_555 1_555
O5 C7 1_555 1_555
O6 Cu1 1_555 1_555
O7 N1 1_555 1_555
O8 N1 1_555 1_555
S1 C1 1_555 1_555
Cu1 N2 1_555 1_555
H16 O6 1_555 1_555
H17 O6 1_555 1_555
C1A C2A 1_555 1_555
C2A H1A 1_555 1_555
C3A C2A 1_555 1_555
C4A C3A 1_555 1_555
C5A C4A 1_555 1_555
H2A C5A 1_555 1_555
C6A C1A 1_555 1_555
H3A C6A 1_555 1_555
C7A C3A 1_555 1_555
C8_2 H4_2 1_555 1_555
C9_2 C8_2 1_555 1_555
H5_2 C9_2 1_555 1_555
C10_2 C9_2 1_555 1_555
C11_2 C10_2 1_555 1_555
H6_2 C11_2 1_555 1_555
C12_2 C11_2 1_555 1_555
H7_2 C12_2 1_555 1_555
C13_2 C10_2 1_555 1_555
C14_2 C13_2 1_555 1_555
H8_2 C14_2 1_555 1_555
C15_2 C14_2 1_555 1_555
H9_2 C15_2 1_555 1_555
C16_2 H10_2 1_555 1_555
C17_2 C13_2 1_555 1_555
H11_2 C17_2 1_555 1_555
C18B H12B 1_555 1_555
C19B C18B 1_555 1_555
H13B C19B 1_555 1_555
C20B C20 1_555 1_555
C21B C20B 1_555 1_555
H14B C21B 1_555 1_555
C22B C21B 1_555 1_555
H15B C22B 1_555 1_555
N1A C4A 1_555 1_555
N2_2 C8_2 1_555 1_555
N3_2 Cu1 1_555 1_555
N3_3 Cu1_2 1_555 1_555
N4B C18B 1_555 1_555
O1A S1A 1_555 1_555
O2A S1A 1_555 1_555
O2_2 Cu1_2 1_555 1_555
O3A S1A 1_555 1_555
O4A Cu1 1_555 1_555
O4A_2 Cu1_2 1_555 1_555
O5A C7A 1_555 1_555
O5C Cu1 1_555 1_555
O5C_2 Cu1_2 1_555 1_555
O6_2 Cu1_2 1_555 1_555
O7A N1A 1_555 1_555
O8A N1A 1_555 1_555
S1A C1A 1_555 1_555
Cu1_2 N2_2 1_555 1_555
Cu1_3 N3 1_555 1_555
Cu1A O4 1_555 1_555
Cu1C O5 1_555 1_555
Cu1A_2 O2A 1_555 1_555
Cu1B O5A 1_555 1_555
H16_2 O6_2 1_555 1_555
H17_2 O6_2 1_555 1_555
C5 C6 1_555 1_555
C12 N2 1_555 1_555
C16 C17 1_555 1_555
C16 N3 1_555 1_555
C22 N4 1_555 1_555
O2 Cu1 1_555 1_555
C5A C6A 1_555 1_555
C7A O4A 1_555 1_555
C12_2 N2_2 1_555 1_555
C15_2 N3_2 1_555 1_555
C16_2 C17_2 1_555 1_555
C16_2 N3_2 1_555 1_555
C19B C20B 1_555 1_555
C22B N4B 1_555 1_555

#END
