
#######################################################################
#
#                 Cambridge Crystallographic Data Centre
#                                CCDC 
#
#######################################################################
#
# If this CIF has been generated from an entry in the Cambridge 
# Structural Database, then it will include bibliographic, chemical, 
# crystal, experimental, refinement or atomic coordinate data resulting 
# from the CCDC's data processing and validation procedures.
#
#######################################################################

data_DUHHUL
_symmetry_cell_setting           monoclinic
_symmetry_space_group_name_H-M   'C 2/c'
_symmetry_Int_Tables_number      15
_space_group_name_Hall           '-C 2yn'
loop_
_symmetry_equiv_pos_site_id
_symmetry_equiv_pos_as_xyz
1 x,y,z
2 -x,y,1/2-z
3 1/2+x,1/2+y,z
4 1/2-x,1/2+y,1/2-z
5 -x,-y,-z
6 x,-y,1/2+z
7 1/2-x,1/2-y,-z
8 1/2+x,1/2-y,1/2+z
_cell_length_a                   18.0556(16)
_cell_length_b                   18.7708(17)
_cell_length_c                   12.1154(11)
_cell_angle_alpha                90
_cell_angle_beta                 112.4252(16)
_cell_angle_gamma                90
_cell_volume                     3795.62
loop_
_atom_site_label
_atom_site_type_symbol
_atom_site_fract_x
_atom_site_fract_y
_atom_site_fract_z
Cd1 Cd 0.12582(7) 1.04276(4) 0.03071(7)
N1 N 0.1770(5) 1.1422(5) 0.1607(7)
N2 N 0.1169(5) 1.1450(4) -0.0824(7)
O1 O 0.0738(4) 0.9717(4) -0.1366(8)
O2 O 0.0105(6) 0.9255(4) -0.0287(8)
O3 O 0.2183(8) 0.5367(7) -0.1912(13)
O4 O 0.2547(5) 0.4867(4) -0.0140(10)
O5 O 0.1374(8) 0.9873(6) 0.1972(10)
H1 H 0.1021 1.0019 0.2225
H2 H 0.1818 0.9972 0.2532
C1 C 0.2090(7) 1.1414(8) 0.2797(10)
H3 H 0.2128 1.0983 0.3193
C2 C 0.2372(8) 1.2036(9) 0.3469(12)
H4 H 0.2588 1.2014 0.4298
C3 C 0.2329(8) 1.2664(9) 0.2913(15)
H5 H 0.2533 1.3074 0.3355
C4 C 0.1982(6) 1.2695(6) 0.1682(13)
C5 C 0.1938(8) 1.3337(7) 0.1021(18)
H6 H 0.2114 1.3761 0.1436
C6 C 0.1656(9) 1.3347(7) -0.0154(19)
H7 H 0.1640 1.3774 -0.0551
C7 C 0.1380(7) 1.2717(6) -0.0814(13)
C8 C 0.1116(8) 1.2694(9) -0.2064(16)
H8 H 0.1107 1.3110 -0.2486
C9 C 0.0878(8) 1.2081(10) -0.2652(13)
H9 H 0.0694 1.2068 -0.3481
C10 C 0.0909(7) 1.1459(7) -0.2000(10)
H10 H 0.0739 1.1034 -0.2414
C11 C 0.1720(5) 1.2056(5) 0.1056(10)
C12 C 0.1401(6) 1.2068(5) -0.0219(10)
C13 C 0.0373(7) 0.9234(5) -0.1136(9)
C14 C 0.0150(5) 0.8571(4) -0.1884(7)
C15 C 0.0331(5) 0.7922(4) -0.1296(7)
H11 H 0.0563 0.7925 -0.0466
C16 C 0.0186(5) 0.7270(4) -0.1872(7)
C17 C 0.0489(5) 0.6606(4) -0.1174(7)
C18 C 0.0296(6) 0.6425(5) -0.0211(8)
H12 H -0.0067 0.6701 -0.0024
C19 C 0.0641(8) 0.5833(6) 0.0479(9)
H13 H 0.0492 0.5703 0.1105
C20 C 0.1197(7) 0.5444(5) 0.0241(10)
H14 H 0.1433 0.5056 0.0726
C21 C 0.1431(5) 0.5609(4) -0.0726(9)
C22 C 0.1024(5) 0.6183(4) -0.1433(8)
H15 H 0.1121 0.6285 -0.2117
C23 C 0.2115(7) 0.5263(5) -0.0968(14)
O1A O -0.0738(4) 0.9717(4) -0.3634(8)
O2A O -0.0105(6) 0.9255(4) -0.4713(8)
O3A O -0.2183(8) 0.5367(7) -0.3088(13)
O4A O -0.2547(5) 0.4867(4) -0.4860(10)
C13A C -0.0373(7) 0.9234(5) -0.3864(9)
C14A C -0.0150(5) 0.8571(4) -0.3116(7)
C15A C -0.0331(5) 0.7922(4) -0.3704(7)
H11A H -0.0563 0.7925 -0.4534
C16A C -0.0186(5) 0.7270(4) -0.3128(7)
C17A C -0.0489(5) 0.6606(4) -0.3826(7)
C18A C -0.0296(6) 0.6425(5) -0.4789(8)
H12A H 0.0067 0.6701 -0.4976
C19A C -0.0641(8) 0.5833(6) -0.5479(9)
H13A H -0.0492 0.5703 -0.6105
C20A C -0.1197(7) 0.5444(5) -0.5241(10)
H14A H -0.1433 0.5056 -0.5726
C21A C -0.1431(5) 0.5609(4) -0.4274(9)
C22A C -0.1024(5) 0.6183(4) -0.3567(8)
H15A H -0.1121 0.6285 -0.2883
C23A C -0.2115(7) 0.5263(5) -0.4032(14)
Cd1A Cd -0.12582(7) 1.04276(4) -0.53071(7)
N1A N -0.1770(5) 1.1422(5) -0.6607(7)
N2A N -0.1169(5) 1.1450(4) -0.4176(7)
O5A O -0.1374(8) 0.9873(6) -0.6972(10)
H1A H -0.1021 1.0019 -0.7225
H2A H -0.1818 0.9972 -0.7532
C1A C -0.2090(7) 1.1414(8) -0.7797(10)
H3A H -0.2128 1.0983 -0.8193
C2A C -0.2372(8) 1.2036(9) -0.8469(12)
H4A H -0.2588 1.2014 -0.9298
C3A C -0.2329(8) 1.2664(9) -0.7913(15)
H5A H -0.2533 1.3074 -0.8355
C4A C -0.1982(6) 1.2695(6) -0.6682(13)
C5A C -0.1938(8) 1.3337(7) -0.6021(18)
H6A H -0.2114 1.3761 -0.6436
C6A C -0.1656(9) 1.3347(7) -0.4846(19)
H7A H -0.1640 1.3774 -0.4449
C7A C -0.1380(7) 1.2717(6) -0.4186(13)
C8A C -0.1116(8) 1.2694(9) -0.2936(16)
H8A H -0.1107 1.3110 -0.2514
C9A C -0.0878(8) 1.2081(10) -0.2348(13)
H9A H -0.0694 1.2068 -0.1519
C10A C -0.0909(7) 1.1459(7) -0.3000(10)
H10A H -0.0739 1.1034 -0.2586
C11A C -0.1720(5) 1.2056(5) -0.6056(10)
C12A C -0.1401(6) 1.2068(5) -0.4781(10)
Cd1D Cd -0.12582(7) 0.95724(4) -0.03071(7)
Cd1E Cd 0.12582(7) 0.95724(4) -0.46929(7)
Cd1F Cd 0.37418(7) 0.45724(4) -0.03071(7)
Cd1G Cd -0.37418(7) 0.45724(4) -0.46929(7)
O2D O -0.0105(6) 1.0745(4) 0.0287(8)
O2E O 0.0105(6) 1.0745(4) -0.5287(8)
O4F O 0.2453(5) 1.0133(4) 0.0140(10)
O4G O -0.2453(5) 1.0133(4) -0.5140(10)
loop_
_geom_bond_atom_site_label_1
_geom_bond_atom_site_label_2
_geom_bond_site_symmetry_1
_geom_bond_site_symmetry_2
Cd1 N1 1_555 1_555
N1 C1 1_555 1_555
N2 Cd1 1_555 1_555
O1 Cd1 1_555 1_555
O2 C13 1_555 1_555
O3 C23 1_555 1_555
O4 C23 1_555 1_555
O5 Cd1 1_555 1_555
H1 O5 1_555 1_555
H2 O5 1_555 1_555
C1 H3 1_555 1_555
C2 C1 1_555 1_555
H4 C2 1_555 1_555
C3 C2 1_555 1_555
H5 C3 1_555 1_555
C4 C3 1_555 1_555
C5 C4 1_555 1_555
H6 C5 1_555 1_555
C6 C5 1_555 1_555
H7 C6 1_555 1_555
C7 C6 1_555 1_555
C8 C7 1_555 1_555
H8 C8 1_555 1_555
C9 C8 1_555 1_555
H9 C9 1_555 1_555
C10 N2 1_555 1_555
H10 C10 1_555 1_555
C11 N1 1_555 1_555
C12 N2 1_555 1_555
C13 O1 1_555 1_555
C14 C13 1_555 1_555
C15 C14 1_555 1_555
H11 C15 1_555 1_555
C16 C15 1_555 1_555
C17 C16 1_555 1_555
C18 C17 1_555 1_555
H12 C18 1_555 1_555
C19 C18 1_555 1_555
H13 C19 1_555 1_555
C20 C19 1_555 1_555
H14 C20 1_555 1_555
C21 C20 1_555 1_555
C22 C17 1_555 1_555
H15 C22 1_555 1_555
C23 C21 1_555 1_555
O1A C13A 1_555 1_555
O2A C13A 1_555 1_555
O3A C23A 1_555 1_555
O4A C23A 1_555 1_555
C13A C14A 1_555 1_555
C14A C14 1_555 1_555
C15A C14A 1_555 1_555
H11A C15A 1_555 1_555
C16A C16 1_555 1_555
C17A C16A 1_555 1_555
C18A C17A 1_555 1_555
H12A C18A 1_555 1_555
C19A C18A 1_555 1_555
H13A C19A 1_555 1_555
C20A C19A 1_555 1_555
H14A C20A 1_555 1_555
C21A C20A 1_555 1_555
C22A C17A 1_555 1_555
H15A C22A 1_555 1_555
C23A C21A 1_555 1_555
Cd1A O1A 1_555 1_555
N1A Cd1A 1_555 1_555
N2A Cd1A 1_555 1_555
O5A Cd1A 1_555 1_555
H1A O5A 1_555 1_555
H2A O5A 1_555 1_555
C1A N1A 1_555 1_555
H3A C1A 1_555 1_555
C2A C1A 1_555 1_555
H4A C2A 1_555 1_555
C3A C2A 1_555 1_555
H5A C3A 1_555 1_555
C4A C3A 1_555 1_555
C5A C4A 1_555 1_555
H6A C5A 1_555 1_555
C6A C5A 1_555 1_555
H7A C6A 1_555 1_555
C7A C6A 1_555 1_555
C8A C7A 1_555 1_555
H8A C8A 1_555 1_555
C9A C8A 1_555 1_555
H9A C9A 1_555 1_555
C10A N2A 1_555 1_555
H10A C10A 1_555 1_555
C11A N1A 1_555 1_555
C12A N2A 1_555 1_555
Cd1D O2 1_555 1_555
Cd1E O2A 1_555 1_555
Cd1F O4 1_555 1_555
Cd1G O4A 1_555 1_555
O2D Cd1 1_555 1_555
O2E Cd1A 1_555 1_555
O4F Cd1 1_555 1_555
O4G Cd1A 1_555 1_555
C4 C11 1_555 1_555
C7 C12 1_555 1_555
C9 C10 1_555 1_555
C11 C12 1_555 1_555
C21 C22 1_555 1_555
C15A C16A 1_555 1_555
C21A C22A 1_555 1_555
C4A C11A 1_555 1_555
C7A C12A 1_555 1_555
C9A C10A 1_555 1_555
C11A C12A 1_555 1_555

#END
