
#######################################################################
#
#                 Cambridge Crystallographic Data Centre
#                                CCDC 
#
#######################################################################
#
# If this CIF has been generated from an entry in the Cambridge 
# Structural Database, then it will include bibliographic, chemical, 
# crystal, experimental, refinement or atomic coordinate data resulting 
# from the CCDC's data processing and validation procedures.
#
#######################################################################

data_DUHHIZ
_symmetry_cell_setting           triclinic
_symmetry_space_group_name_H-M   'P -1'
_symmetry_Int_Tables_number      2
_space_group_name_Hall           '-P 1'
loop_
_symmetry_equiv_pos_site_id
_symmetry_equiv_pos_as_xyz
1 x,y,z
2 -x,-y,-z
_cell_length_a                   8.864
_cell_length_b                   11.707
_cell_length_c                   13.803
_cell_angle_alpha                70.47
_cell_angle_beta                 87.29
_cell_angle_gamma                77.10
_cell_volume                     1315.29
loop_
_atom_site_label
_atom_site_type_symbol
_atom_site_fract_x
_atom_site_fract_y
_atom_site_fract_z
Zn1 Zn 0.19489(5) 0.22637(4) 1.05684(3)
N1 N 0.1361(3) 0.0550(3) 1.1017(2)
N2 N -0.0475(4) 0.2788(3) 1.0863(2)
N3 N -0.2493(4) 0.2081(3) 1.1537(3)
N4 N -0.0488(4) -0.0492(3) 1.1509(3)
O1 O 0.2016(3) 0.2959(2) 0.90372(18)
O2 O 0.4180(4) 0.1660(3) 0.8887(2)
O3 O 0.3357(3) 0.0285(2) 0.7663(3)
O4 O 0.5478(3) 0.0635(2) 0.6824(2)
O5 O 0.2356(3) 0.3609(2) 0.10614(18)
O6 O 0.2510(3) 0.2120(2) 0.25591(18)
O7 O 0.3206(3) 1.0189(2) 0.49653(19)
O8 O 0.4292(3) 0.8478(2) 0.62293(19)
C1 C 0.3039(4) 0.2522(3) 0.8528(3)
C2 C 0.2900(4) 0.3088(3) 0.7374(2)
C3 C 0.2334(4) 0.4356(3) 0.6890(2)
H1 H 0.1928 0.4843 0.7293
C4 C 0.2349(4) 0.4928(3) 0.5829(2)
C5 C 0.2918(4) 0.4198(3) 0.5210(2)
C6 C 0.3510(4) 0.2929(3) 0.5702(3)
H2 H 0.3920 0.2441 0.5302
C7 C 0.3514(4) 0.2372(3) 0.6750(2)
C8 C 0.4143(4) 0.0989(3) 0.7142(3)
C9 C 0.1105(4) 0.8893(3) 0.4518(3)
H3 H 0.0862 0.9754 0.4223
C10 C 0.0252(4) 0.8197(3) 0.4249(3)
H4 H -0.0578 0.8587 0.3781
C11 C 0.0627(4) 0.6904(3) 0.4676(3)
H5 H 0.0054 0.6435 0.4484
C12 C 0.1848(4) 0.6316(3) 0.5384(2)
C13 C 0.2674(4) 0.7038(3) 0.5669(3)
H6 H 0.3471 0.6656 0.6164
C14 C 0.2323(4) 0.8321(3) 0.5225(2)
C15 C 0.3346(4) 0.9053(3) 0.5485(3)
C16 C 0.3295(4) 0.5214(3) 0.1937(3)
H7 H 0.3390 0.5418 0.1228
C17 C 0.3618(4) 0.5970(3) 0.2431(3)
H8 H 0.3941 0.6690 0.2052
C18 C 0.3476(4) 0.5692(3) 0.3480(3)
H9 H 0.3717 0.6219 0.3797
C19 C 0.2978(4) 0.4635(3) 0.4067(2)
C20 C 0.2629(4) 0.3870(3) 0.3558(2)
H10 H 0.2262 0.3170 0.3933
C21 C 0.2817(4) 0.4126(3) 0.2515(3)
C22 C 0.2545(4) 0.3239(3) 0.2008(3)
C23 C 0.1940(5) -0.0680(4) 1.1112(4)
H11 H 0.2954 -0.1018 1.0990
C24 C 0.0820(5) -0.1311(4) 1.1406(4)
H12 H 0.0914 -0.2153 1.1519
C25 C -0.0112(4) 0.0610(3) 1.1265(3)
C26 C -0.1066(4) 0.1809(3) 1.1223(3)
C27 C -0.2854(6) 0.3337(4) 1.1350(5)
H13 H -0.3787 0.3804 1.1481
C28 C -0.1606(5) 0.3761(4) 1.0942(4)
H14 H -0.1520 0.4585 1.0743
O9 O 0.4389(3) 0.1439(3) 1.0784(2)
H15 H 0.4626 0.1250 1.0245
H16 H 0.4559 0.0747 1.1271
Zn2 Zn 0.60296(4) -0.08451(3) 0.64424(3)
Zn1_2 Zn 0.19489(5) 0.22637(4) 0.05684(3)
O5_2 O 0.2356(3) 0.3609(2) 1.10614(18)
O6A O 0.7490(3) -0.2120(2) 0.74409(18)
O7A O 0.6794(3) -0.0189(2) 0.50347(19)
O8_2 O 0.4292(3) -0.1522(2) 0.62293(19)
Zn2_2 Zn 0.60296(4) 0.91549(3) 0.64424(3)
Zn2A Zn 0.39704(4) 0.08451(3) 0.35576(3)
Zn2A_2 Zn 0.39704(4) 1.08451(3) 0.35576(3)
loop_
_geom_bond_atom_site_label_1
_geom_bond_atom_site_label_2
_geom_bond_site_symmetry_1
_geom_bond_site_symmetry_2
Zn1 N1 1_555 1_555
N1 C23 1_555 1_555
N2 Zn1 1_555 1_555
N3 C26 1_555 1_555
N4 C24 1_555 1_555
O1 Zn1 1_555 1_555
O2 C1 1_555 1_555
O3 C8 1_555 1_555
O4 C8 1_555 1_555
O5 C22 1_555 1_555
O6 C22 1_555 1_555
O7 C15 1_555 1_555
O8 C15 1_555 1_555
C1 O1 1_555 1_555
C2 C1 1_555 1_555
C3 C2 1_555 1_555
H1 C3 1_555 1_555
C4 C3 1_555 1_555
C5 C4 1_555 1_555
C6 C5 1_555 1_555
H2 C6 1_555 1_555
C7 C2 1_555 1_555
C8 C7 1_555 1_555
C9 H3 1_555 1_555
C10 C9 1_555 1_555
H4 C10 1_555 1_555
C11 C10 1_555 1_555
H5 C11 1_555 1_555
C12 C4 1_555 1_555
C13 C12 1_555 1_555
H6 C13 1_555 1_555
C14 C9 1_555 1_555
C15 C14 1_555 1_555
C16 H7 1_555 1_555
C17 C16 1_555 1_555
H8 C17 1_555 1_555
C18 C17 1_555 1_555
H9 C18 1_555 1_555
C19 C5 1_555 1_555
C20 C19 1_555 1_555
H10 C20 1_555 1_555
C21 C16 1_555 1_555
C22 C21 1_555 1_555
C23 H11 1_555 1_555
C24 C23 1_555 1_555
H12 C24 1_555 1_555
C25 N1 1_555 1_555
C26 N2 1_555 1_555
C27 N3 1_555 1_555
H13 C27 1_555 1_555
C28 N2 1_555 1_555
H14 C28 1_555 1_555
O9 Zn1 1_555 1_555
H15 O9 1_555 1_555
H16 O9 1_555 1_555
Zn2 O4 1_555 1_555
Zn1_2 O5 1_555 1_555
O5_2 Zn1 1_555 1_555
O6A Zn2 1_555 1_555
O7A Zn2 1_555 1_555
O8_2 Zn2 1_555 1_555
Zn2_2 O8 1_555 1_555
Zn2A O6 1_555 1_555
Zn2A_2 O7 1_555 1_555
N4 C25 1_555 1_555
C6 C7 1_555 1_555
C11 C12 1_555 1_555
C13 C14 1_555 1_555
C18 C19 1_555 1_555
C20 C21 1_555 1_555
C25 C26 1_555 1_555
C27 C28 1_555 1_555

#END
