
#######################################################################
#
#                 Cambridge Crystallographic Data Centre
#                                CCDC 
#
#######################################################################
#
# If this CIF has been generated from an entry in the Cambridge 
# Structural Database, then it will include bibliographic, chemical, 
# crystal, experimental, refinement or atomic coordinate data resulting 
# from the CCDC's data processing and validation procedures.
#
#######################################################################

data_DUHHUK
_symmetry_cell_setting           monoclinic
_symmetry_space_group_name_H-M   'P 21/c'
_symmetry_Int_Tables_number      14
_space_group_name_Hall           '-P 2ybc'
loop_
_symmetry_equiv_pos_site_id
_symmetry_equiv_pos_as_xyz
1 x,y,z
2 -x,1/2+y,1/2-z
3 -x,-y,-z
4 x,1/2-y,1/2+z
_cell_length_a                   12.2151(14)
_cell_length_b                   8.3703(10)
_cell_length_c                   13.4698(16)
_cell_angle_alpha                90
_cell_angle_beta                 102.3320(10)
_cell_angle_gamma                90
_cell_volume                     1345.43
loop_
_atom_site_label
_atom_site_type_symbol
_atom_site_fract_x
_atom_site_fract_y
_atom_site_fract_z
Dy1 Dy 0.197015(13) 0.232131(18) 0.818183(11)
C1 C 0.5158(3) 0.5574(5) 0.8746(3)
H1 H 0.5247 0.6677 0.8750
C2 C 0.4095(3) 0.4901(4) 0.8567(3)
C3 C 0.4836(3) 0.2361(4) 0.8735(3)
C4 C 0.6084(3) 0.4572(5) 0.8919(3)
H2 H 0.6805 0.4990 0.9030
C5 C 0.5912(3) 0.2933(5) 0.8922(3)
H3 H 0.6518 0.2233 0.9049
N1 N 0.3933(2) 0.3321(3) 0.8555(2)
C6 C 0.3019(3) 0.5872(4) 0.8367(3)
O1 O 0.2131(2) 0.5091(3) 0.82690(18)
O2 O 0.3085(3) 0.7328(3) 0.8293(3)
C7 C 0.4611(3) 0.0608(4) 0.8716(3)
O3 O 0.3508(2) 0.0270(3) 0.8468(2)
O4 O 0.5333(2) -0.0385(3) 0.8889(3)
C8 C 0.2072(3) 0.1845(4) 1.0625(2)
C9 C 0.1581(3) 0.0254(4) 1.0222(2)
O5 O 0.2310(2) 0.2782(3) 0.9969(2)
N2 N 0.1355(2) 0.0186(3) 0.9205(2)
C10 C 0.0664(3) -0.2478(4) 0.9275(3)
H4 H 0.0339 -0.3386 0.8937
C11 C 0.0876(3) -0.1133(4) 0.8745(2)
O6 O 0.1092(2) 0.0071(3) 0.72203(17)
O7 O 0.2198(2) 0.2145(3) 1.15526(19)
C12 C 0.0590(3) -0.0988(4) 0.7607(2)
C13 C 0.1386(3) -0.1020(4) 1.0812(3)
H5 H 0.1539 -0.0945 1.1517
C14 C 0.0953(3) -0.2420(4) 1.0324(3)
H6 H 0.0858 -0.3317 1.0703
O8 O -0.0153(2) -0.1898(3) 0.71176(18)
H7 H 0.334(3) 0.822(3) 0.838(3)
Dy1C Dy 0.197015(13) 0.267869(18) 1.318183(11)
Dy1A Dy -0.197015(13) -0.267869(18) 0.681817(11)
O7C O 0.2198(2) 0.2855(3) 0.65526(19)
O8A O 0.0153(2) 0.3102(3) 0.78824(18)
loop_
_geom_bond_atom_site_label_1
_geom_bond_atom_site_label_2
_geom_bond_site_symmetry_1
_geom_bond_site_symmetry_2
Dy1 N1 1_555 1_555
C1 H1 1_555 1_555
C2 C1 1_555 1_555
C3 C5 1_555 1_555
C4 C1 1_555 1_555
H2 C4 1_555 1_555
C5 C4 1_555 1_555
H3 C5 1_555 1_555
N1 C2 1_555 1_555
C6 C2 1_555 1_555
O1 Dy1 1_555 1_555
O2 C6 1_555 1_555
C7 C3 1_555 1_555
O3 Dy1 1_555 1_555
O4 C7 1_555 1_555
C8 C9 1_555 1_555
C9 N2 1_555 1_555
O5 Dy1 1_555 1_555
N2 Dy1 1_555 1_555
C10 H4 1_555 1_555
C11 N2 1_555 1_555
O6 Dy1 1_555 1_555
O7 C8 1_555 1_555
C12 C11 1_555 1_555
C13 C9 1_555 1_555
H5 C13 1_555 1_555
C14 C10 1_555 1_555
H6 C14 1_555 1_555
O8 C12 1_555 1_555
H7 O2 1_555 1_555
Dy1C O7 1_555 1_555
Dy1A O8 1_555 1_555
O7C Dy1 1_555 1_555
O8A Dy1 1_555 1_555
C3 N1 1_555 1_555
C6 O1 1_555 1_555
C7 O3 1_555 1_555
C8 O5 1_555 1_555
C10 C11 1_555 1_555
O6 C12 1_555 1_555
C13 C14 1_555 1_555

#END
