
#######################################################################
#
#                 Cambridge Crystallographic Data Centre
#                                CCDC 
#
#######################################################################
#
# If this CIF has been generated from an entry in the Cambridge 
# Structural Database, then it will include bibliographic, chemical, 
# crystal, experimental, refinement or atomic coordinate data resulting 
# from the CCDC's data processing and validation procedures.
#
#######################################################################

data_DUHLIC
_symmetry_cell_setting           triclinic
_symmetry_space_group_name_H-M   'P -1'
_symmetry_Int_Tables_number      2
_space_group_name_Hall           '-P 1'
loop_
_symmetry_equiv_pos_site_id
_symmetry_equiv_pos_as_xyz
1 x,y,z
2 -x,-y,-z
_cell_length_a                   7.920(2)
_cell_length_b                   9.663(2)
_cell_length_c                   9.675(2)
_cell_angle_alpha                92.940(4)
_cell_angle_beta                 108.555(3)
_cell_angle_gamma                106.164(4)
_cell_volume                     666.197
loop_
_atom_site_label
_atom_site_type_symbol
_atom_site_fract_x
_atom_site_fract_y
_atom_site_fract_z
Cd1 Cd 0.49223(2) 0.741369(17) 0.821503(17)
C1 C 0.1758(4) 0.4289(3) 0.6244(3)
H1 H 0.1605 0.4120 0.7141
C2 C 0.0730(4) 0.3235(3) 0.5038(4)
H2 H -0.0085 0.2366 0.5120
C3 C 0.0924(4) 0.3483(3) 0.3708(3)
H3 H 0.0232 0.2791 0.2869
C4 C 0.2164(4) 0.4777(3) 0.3633(3)
H4 H 0.2317 0.4967 0.2741
C5 C 0.3179(3) 0.5791(3) 0.4901(3)
C6 C 0.4569(3) 0.7167(3) 0.4902(3)
C7 C 0.4998(4) 0.7780(3) 0.3728(3)
H5 H 0.4419 0.7414 0.2727
C8 C 0.4002(3) 0.9947(2) 0.9452(2)
C9 C 0.4082(3) 0.5038(2) 1.0129(2)
C10 C 0.6454(4) 0.9036(3) 0.4371(3)
H6 H 0.7065 0.9693 0.3884
N1 N 0.2973(3) 0.5554(2) 0.6200(2)
N2 N 0.5697(3) 0.8005(2) 0.6184(2)
N3 N 0.6837(3) 0.9143(2) 0.5838(2)
H7 H 0.7701 0.9847 0.6474
O1 O 0.3288(2) 0.89932(18) 0.83387(18)
O2 O 0.3257(2) 1.0843(2) 0.9777(2)
O3 O 0.3446(2) 0.60271(19) 0.9645(2)
O4 O 0.3377(2) 0.41014(18) 1.07962(18)
Cd1A Cd 0.50777(2) 1.258631(17) 1.178497(17)
Cd1A_2 Cd 0.50777(2) 0.258631(17) 1.178497(17)
C1A C 0.8242(4) 1.5711(3) 1.3756(3)
H1A H 0.8395 1.5880 1.2859
C2A C 0.9270(4) 1.6765(3) 1.4962(4)
H2A H 1.0085 1.7634 1.4880
C3A C 0.9076(4) 1.6517(3) 1.6292(3)
H3A H 0.9768 1.7209 1.7131
C4A C 0.7836(4) 1.5223(3) 1.6367(3)
H4A H 0.7683 1.5033 1.7259
C5A C 0.6821(3) 1.4209(3) 1.5099(3)
C6A C 0.5431(3) 1.2833(3) 1.5098(3)
C7A C 0.5002(4) 1.2220(3) 1.6272(3)
H5A H 0.5581 1.2586 1.7273
C8A C 0.5998(3) 1.0053(2) 1.0548(2)
C9A C 0.5918(3) 0.4962(2) 0.9871(2)
C10A C 0.3546(4) 1.0964(3) 1.5629(3)
H6A H 0.2935 1.0307 1.6116
N1A N 0.7027(3) 1.4446(2) 1.3800(2)
N2A N 0.4303(3) 1.1995(2) 1.3816(2)
N3A N 0.3163(3) 1.0857(2) 1.4162(2)
H7A H 0.2299 1.0153 1.3526
O1A O 0.6712(2) 1.10068(18) 1.16613(18)
O2A O 0.6743(2) 0.9157(2) 1.0223(2)
O3A O 0.6554(2) 0.39729(19) 1.0355(2)
O3A_2 O 0.6554(2) 1.39729(19) 1.0355(2)
O4A O 0.6623(2) 0.58986(18) 0.92038(18)
O4_2 O 0.3377(2) 1.41014(18) 1.07962(18)
O5 O -0.0175(3) 0.1137(3) 0.7858(3)
H8 H -0.063(4) 0.067(5) 0.841(4)
H9 H 0.0949(15) 0.126(5) 0.805(4)
O6 O 0.0648(3) 0.6774(3) 0.0467(3)
H10 H -0.016(4) 0.703(5) -0.013(4)
H11 H 0.143(5) 0.660(5) 0.015(4)
loop_
_geom_bond_atom_site_label_1
_geom_bond_atom_site_label_2
_geom_bond_site_symmetry_1
_geom_bond_site_symmetry_2
Cd1 N1 1_555 1_555
C1 H1 1_555 1_555
C2 C1 1_555 1_555
H2 C2 1_555 1_555
C3 C2 1_555 1_555
H3 C3 1_555 1_555
C4 C3 1_555 1_555
H4 C4 1_555 1_555
C5 C4 1_555 1_555
C6 C5 1_555 1_555
C7 C6 1_555 1_555
H5 C7 1_555 1_555
C8 O1 1_555 1_555
C9 O3 1_555 1_555
C10 C7 1_555 1_555
H6 C10 1_555 1_555
N1 C1 1_555 1_555
N2 Cd1 1_555 1_555
N3 C10 1_555 1_555
H7 N3 1_555 1_555
O1 Cd1 1_555 1_555
O2 C8 1_555 1_555
O3 Cd1 1_555 1_555
O4 C9 1_555 1_555
O5 H8 1_555 1_555
H9 O5 1_555 1_555
O6 H10 1_555 1_555
H11 O6 1_555 1_555
Cd1A O2 1_555 1_555
Cd1A_2 O4 1_555 1_555
C1A H1A 1_555 1_555
C2A C1A 1_555 1_555
H2A C2A 1_555 1_555
C3A C2A 1_555 1_555
H3A C3A 1_555 1_555
C4A C3A 1_555 1_555
H4A C4A 1_555 1_555
C5A C4A 1_555 1_555
C6A C5A 1_555 1_555
C7A C6A 1_555 1_555
H5A C7A 1_555 1_555
C8A C8 1_555 1_555
C9A C9 1_555 1_555
C10A C7A 1_555 1_555
H6A C10A 1_555 1_555
N1A Cd1A 1_555 1_555
N2A Cd1A 1_555 1_555
N3A C10A 1_555 1_555
H7A N3A 1_555 1_555
O1A Cd1A 1_555 1_555
O2A Cd1 1_555 1_555
O3A Cd1A_2 1_555 1_555
O3A_2 Cd1A 1_555 1_555
O4A Cd1 1_555 1_555
O4_2 Cd1A 1_555 1_555
C5 N1 1_555 1_555
C6 N2 1_555 1_555
N2 N3 1_555 1_555
C1A N1A 1_555 1_555
C5A N1A 1_555 1_555
C6A N2A 1_555 1_555
C8A O1A 1_555 1_555
C8A O2A 1_555 1_555
C9A O3A 1_555 1_555
C9A O4A 1_555 1_555
N2A N3A 1_555 1_555

#END
