
#######################################################################
#
#                 Cambridge Crystallographic Data Centre
#                                CCDC 
#
#######################################################################
#
# If this CIF has been generated from an entry in the Cambridge 
# Structural Database, then it will include bibliographic, chemical, 
# crystal, experimental, refinement or atomic coordinate data resulting 
# from the CCDC's data processing and validation procedures.
#
#######################################################################

data_DUHMID
_symmetry_cell_setting           triclinic
_symmetry_space_group_name_H-M   'P -1'
_symmetry_Int_Tables_number      2
_space_group_name_Hall           '-P 1'
loop_
_symmetry_equiv_pos_site_id
_symmetry_equiv_pos_as_xyz
1 x,y,z
2 -x,-y,-z
_cell_length_a                   8.999(4)
_cell_length_b                   10.094(5)
_cell_length_c                   19.135(9)
_cell_angle_alpha                91.569(2)
_cell_angle_beta                 97.412(2)
_cell_angle_gamma                107.2970(10)
_cell_volume                     1641.7
loop_
_atom_site_label
_atom_site_type_symbol
_atom_site_fract_x
_atom_site_fract_y
_atom_site_fract_z
Cd1 Cd 1.00480(4) 0.38577(3) 0.225104(18)
C1 C 1.1972(5) 0.0604(4) 0.2777(2)
C2 C 1.1223(5) -0.0803(4) 0.2609(2)
H1 H 1.0213 -0.1085 0.2356
C3 C 1.1944(5) -0.1792(4) 0.2807(3)
C4 C 1.3417(6) -0.1373(5) 0.3199(3)
H2 H 1.3912 -0.2030 0.3338
C5 C 1.4174(7) 0.0042(5) 0.3388(4)
H3 H 1.5160 0.0321 0.3661
C6 C 1.3463(6) 0.1006(4) 0.3170(3)
H4 H 1.3982 0.1945 0.3286
C7 C 1.1201(5) 0.1677(4) 0.2559(2)
C8 C 1.1160(6) -0.3314(4) 0.2579(3)
C9 C 0.8368(5) 0.3983(4) 0.0619(3)
C10 C 0.9382(5) 0.2779(4) -0.0073(3)
C11 C 1.0091(5) 0.2847(4) 0.0620(3)
C12 C 1.1305(5) 0.2252(5) 0.0782(3)
H5 H 1.1816 0.2307 0.1241
C13 C 1.1713(6) 0.1578(5) 0.0230(3)
H6 H 1.2508 0.1166 0.0323
C14 C 1.0957(7) 0.1504(5) -0.0465(3)
H7 H 1.1259 0.1042 -0.0822
C15 C 0.9780(6) 0.2099(5) -0.0627(3)
H8 H 0.9273 0.2050 -0.1087
C16 C 0.7360(6) 0.3751(5) -0.0689(3)
H9 H 0.8028 0.4043 -0.1051
H10 H 0.6951 0.4508 -0.0578
C17 C 0.6000(5) 0.2504(5) -0.0985(3)
C18 C 0.5282(7) 0.2494(8) -0.1653(4)
H11 H 0.5632 0.3235 -0.1931
C19 C 0.4334(7) 0.0358(6) -0.0846(4)
H12 H 0.4025 -0.0386 -0.0565
C20 C 0.3551(7) 0.0276(7) -0.1501(4)
H13 H 0.2709 -0.0506 -0.1666
C21 C 0.3998(9) 0.1337(9) -0.1915(4)
H14 H 0.3464 0.1303 -0.2368
C22 C 0.7366(5) 0.4795(5) 0.0837(3)
H15 H 0.7208 0.5396 0.0467
H16 H 0.7913 0.5383 0.1258
C23 C 0.5763(5) 0.3899(6) 0.0990(3)
H17 H 0.5053 0.4460 0.0978
H18 H 0.5327 0.3148 0.0625
C24 C 0.5874(5) 0.3296(5) 0.1699(3)
H19 H 0.6709 0.2866 0.1739
H20 H 0.4896 0.2577 0.1730
C25 C 0.6199(6) 0.4398(6) 0.2313(3)
H21 H 0.6838 0.5279 0.2173
H22 H 0.5209 0.4514 0.2404
C26 C 0.7019(5) 0.4049(4) 0.2978(3)
C27 C 0.8663(5) 0.3384(4) 0.3716(3)
C28 C 0.7624(6) 0.3761(5) 0.4110(3)
C29 C 0.7740(7) 0.3682(6) 0.4831(3)
H23 H 0.7049 0.3938 0.5089
C30 C 0.8936(8) 0.3203(6) 0.5157(3)
H24 H 0.9041 0.3127 0.5642
C31 C 0.9978(8) 0.2837(6) 0.4772(3)
H25 H 1.0771 0.2527 0.5005
C32 C 0.9856(7) 0.2924(6) 0.4051(3)
H26 H 1.0558 0.2680 0.3796
C33 C 0.5476(6) 0.4866(5) 0.3825(3)
H27 H 0.5031 0.4439 0.4229
H28 H 0.4624 0.4723 0.3437
C34 C 0.6237(6) 0.6427(5) 0.4007(3)
C35 C 0.7335(7) 0.7272(6) 0.3636(3)
H29 H 0.7665 0.6903 0.3255
C36 C 0.6326(9) 0.8280(7) 0.4733(4)
H30 H 0.5974 0.8639 0.5110
C37 C 0.7406(8) 0.9175(7) 0.4395(4)
H31 H 0.7782 1.0116 0.4540
C38 C 0.7924(7) 0.8662(6) 0.3841(4)
H32 H 0.8671 0.9249 0.3604
N1 N 0.9426(4) 0.3586(4) 0.1048(2)
N2 N 0.8308(4) 0.3523(4) -0.0064(2)
N3 N 0.8258(5) 0.3584(4) 0.3010(2)
N4 N 0.6604(4) 0.4188(4) 0.3627(2)
N5 N 0.5553(6) 0.1478(5) -0.0578(3)
N6 N 0.5738(6) 0.6912(5) 0.4555(3)
O1 O 1.2047(4) 0.2932(3) 0.2595(2)
O2 O 0.9777(4) 0.1328(3) 0.2335(2)
O3 O 0.9799(5) -0.3671(3) 0.2257(2)
O4 O 1.1913(5) -0.4144(3) 0.2701(3)
Cd1_2 Cd 1.00480(4) -0.61423(3) 0.225104(18)
O3_2 O 0.9799(5) 0.6329(3) 0.2257(2)
O4_2 O 1.1913(5) 0.5856(3) 0.2701(3)
loop_
_geom_bond_atom_site_label_1
_geom_bond_atom_site_label_2
_geom_bond_site_symmetry_1
_geom_bond_site_symmetry_2
Cd1 N1 1_555 1_555
C1 C2 1_555 1_555
C2 H1 1_555 1_555
C3 C2 1_555 1_555
C4 C3 1_555 1_555
H2 C4 1_555 1_555
C5 C4 1_555 1_555
H3 C5 1_555 1_555
C6 C1 1_555 1_555
H4 C6 1_555 1_555
C7 C1 1_555 1_555
C8 C3 1_555 1_555
C9 C22 1_555 1_555
C10 C11 1_555 1_555
C11 C12 1_555 1_555
C12 H5 1_555 1_555
C13 C12 1_555 1_555
H6 C13 1_555 1_555
C14 C13 1_555 1_555
H7 C14 1_555 1_555
C15 C10 1_555 1_555
H8 C15 1_555 1_555
C16 H9 1_555 1_555
H10 C16 1_555 1_555
C17 C16 1_555 1_555
C18 C17 1_555 1_555
H11 C18 1_555 1_555
C19 H12 1_555 1_555
C20 C19 1_555 1_555
H13 C20 1_555 1_555
C21 C18 1_555 1_555
H14 C21 1_555 1_555
C22 H15 1_555 1_555
H16 C22 1_555 1_555
C23 C22 1_555 1_555
H17 C23 1_555 1_555
H18 C23 1_555 1_555
C24 C23 1_555 1_555
H19 C24 1_555 1_555
H20 C24 1_555 1_555
C25 C24 1_555 1_555
H21 C25 1_555 1_555
H22 C25 1_555 1_555
C26 C25 1_555 1_555
C27 C28 1_555 1_555
C28 C29 1_555 1_555
C29 H23 1_555 1_555
C30 C29 1_555 1_555
H24 C30 1_555 1_555
C31 C30 1_555 1_555
H25 C31 1_555 1_555
C32 C27 1_555 1_555
H26 C32 1_555 1_555
C33 H27 1_555 1_555
H28 C33 1_555 1_555
C34 C33 1_555 1_555
C35 C34 1_555 1_555
H29 C35 1_555 1_555
C36 H30 1_555 1_555
C37 C36 1_555 1_555
H31 C37 1_555 1_555
C38 C35 1_555 1_555
H32 C38 1_555 1_555
N1 C9 1_555 1_555
N2 C9 1_555 1_555
N3 Cd1 1_555 1_555
N4 C26 1_555 1_555
N5 C17 1_555 1_555
N6 C34 1_555 1_555
O1 Cd1 1_555 1_555
O2 Cd1 1_555 1_555
O3 C8 1_555 1_555
O4 C8 1_555 1_555
Cd1_2 O3 1_555 1_555
O3_2 Cd1 1_555 1_555
O4_2 Cd1 1_555 1_555
C5 C6 1_555 1_555
C7 O1 1_555 1_555
C7 O2 1_555 1_555
C10 N2 1_555 1_555
C11 N1 1_555 1_555
C14 C15 1_555 1_555
C16 N2 1_555 1_555
C19 N5 1_555 1_555
C20 C21 1_555 1_555
C26 N3 1_555 1_555
C27 N3 1_555 1_555
C28 N4 1_555 1_555
C31 C32 1_555 1_555
C33 N4 1_555 1_555
C36 N6 1_555 1_555
C37 C38 1_555 1_555
O4 Cd1_2 1_555 1_555

#END
