
#######################################################################
#
#                 Cambridge Crystallographic Data Centre
#                                CCDC 
#
#######################################################################
#
# If this CIF has been generated from an entry in the Cambridge 
# Structural Database, then it will include bibliographic, chemical, 
# crystal, experimental, refinement or atomic coordinate data resulting 
# from the CCDC's data processing and validation procedures.
#
#######################################################################

data_DUHPUT
_symmetry_cell_setting           orthorhombic
_symmetry_space_group_name_H-M   'P c c n'
_symmetry_Int_Tables_number      56
_space_group_name_Hall           '-P 2ab 2ac'
loop_
_symmetry_equiv_pos_site_id
_symmetry_equiv_pos_as_xyz
1 x,y,z
2 1/2-x,1/2-y,z
3 1/2+x,-y,1/2-z
4 -x,1/2+y,1/2-z
5 -x,-y,-z
6 1/2+x,1/2+y,-z
7 1/2-x,y,1/2+z
8 x,1/2-y,1/2+z
_cell_length_a                   14.5337(12)
_cell_length_b                   16.0115(15)
_cell_length_c                   15.7172(17)
_cell_angle_alpha                90
_cell_angle_beta                 90
_cell_angle_gamma                90
_cell_volume                     3657.49
loop_
_atom_site_label
_atom_site_type_symbol
_atom_site_fract_x
_atom_site_fract_y
_atom_site_fract_z
Fe1 Fe 0.750 0.250 0.75095(6)
S1 S 1.00000(13) 0.06040(14) 0.76085(12)
N1 N 0.6817(3) 0.1838(2) 0.6621(2)
N2 N 0.8162(3) 0.3160(2) 0.8394(2)
N3 N 0.8496(3) 0.1685(2) 0.7509(3)
C1 C 0.5909(3) 0.1743(3) 0.6656(3)
H1 H 0.5578 0.2051 0.7073
C2 C 0.5418(3) 0.1224(3) 0.6124(3)
H2 H 0.4768 0.1187 0.6176
C3 C 0.5876(3) 0.0754(3) 0.5510(3)
C4 C 0.6838(3) 0.0877(3) 0.5439(3)
H3 H 0.7183 0.06 0.501
C5 C 0.7265(3) 0.1413(3) 0.6011(3)
H4 H 0.7912 0.1482 0.5969
C6 C 0.5426(3) 0.0148(3) 0.4948(3)
H5 H 0.5767 -0.0051 0.4474
C7 C 0.8653(3) 0.2805(3) 0.9033(3)
H6 H 0.861 0.2218 0.9109
C8 C 0.9211(3) 0.3252(3) 0.9578(3)
H7 H 0.9559 0.2971 1.0002
C9 C 0.9263(3) 0.4128(3) 0.9504(3)
C10 C 0.8725(3) 0.4497(3) 0.8881(3)
H8 H 0.8724 0.5087 0.8815
C11 C 0.8188(3) 0.4003(3) 0.8356(3)
H9 H 0.7815 0.4274 0.7943
C12 C 0.9881(4) 0.4599(3) 1.0058(3)
H10 H 1.0132 0.4317 1.0536
C13 C 0.9119(4) 0.1230(4) 0.7549(3)
N1D N 0.3183(3) -0.1838(2) 0.3379(2)
C1D C 0.4091(3) -0.1743(3) 0.3344(3)
H1D H 0.4422 -0.2051 0.2927
C2D C 0.4582(3) -0.1224(3) 0.3876(3)
H2D H 0.5232 -0.1187 0.3824
C3D C 0.4124(3) -0.0754(3) 0.4490(3)
C4D C 0.3162(3) -0.0877(3) 0.4561(3)
H3D H 0.2817 -0.06 0.499
C5D C 0.2735(3) -0.1413(3) 0.3989(3)
H4D H 0.2088 -0.1482 0.4031
C6D C 0.4574(3) -0.0148(3) 0.5052(3)
H5D H 0.4233 0.0051 0.5526
N2D N 1.1838(3) 0.6840(2) 1.1606(2)
C7D C 1.1347(3) 0.7195(3) 1.0967(3)
H6D H 1.139 0.7782 1.0891
C8D C 1.0789(3) 0.6748(3) 1.0422(3)
H7D H 1.0441 0.7029 0.9998
C9D C 1.0737(3) 0.5872(3) 1.0496(3)
C10D C 1.1275(3) 0.5503(3) 1.1119(3)
H8D H 1.1276 0.4913 1.1185
C11D C 1.1812(3) 0.5997(3) 1.1644(3)
H9D H 1.2185 0.5726 1.2057
C12D C 1.0119(4) 0.5401(3) 0.9942(3)
H10D H 0.9868 0.5683 0.9464
S1A S 0.50000(13) 0.43960(14) 0.76085(12)
N3A N 0.6504(3) 0.3315(2) 0.7509(3)
C13A C 0.5881(4) 0.3770(4) 0.7549(3)
Fe1D Fe 0.250 -0.250 0.24905(6)
Fe1D_2 Fe 1.250 0.750 1.24905(6)
N1A N 0.8183(3) 0.3162(2) 0.6621(2)
N2A N 0.6838(3) 0.1840(2) 0.8394(2)
O1 O 0.1194(7) 0.1875(7) 0.9103(11)
H11 H 0.086(3) 0.182(5) 0.8662(16)
H12 H 0.121(6) 0.2389(12) 0.923(3)
O2 O 0.7353(19) 0.8776(10) 0.4679(13)
H13 H 0.748(9) 0.836(4) 0.436(6)
H14 H 0.73(3) 0.860(8) 0.519(3)
N4 N 0.7094(7) 0.6036(15) 0.83724(19)
C14 C 0.6887(7) 0.5997(11) 0.76014(19)
C15 C 0.6619(6) 0.5996(10) 0.67058(18)
H15 H 0.6782 0.6534 0.6448
H16 H 0.5954 0.5908 0.666
H17 H 0.6943 0.5546 0.6408
N5 N 0.1339(11) 0.2629(17) 0.0401(17)
C16 C 0.142(3) 0.298(2) 0.119(2)
C17 C 0.1274(18) 0.276(2) 0.212(2)
H18 H 0.1654 0.3126 0.2473
H19 H 0.145 0.2177 0.2213
H20 H 0.0624 0.2836 0.2265
loop_
_geom_bond_atom_site_label_1
_geom_bond_atom_site_label_2
_geom_bond_site_symmetry_1
_geom_bond_site_symmetry_2
Fe1 N1 1_555 1_555
S1 C13 1_555 1_555
N1 C1 1_555 1_555
N2 Fe1 1_555 1_555
N3 Fe1 1_555 1_555
C1 H1 1_555 1_555
C2 C1 1_555 1_555
H2 C2 1_555 1_555
C3 C2 1_555 1_555
C4 C3 1_555 1_555
H3 C4 1_555 1_555
C5 N1 1_555 1_555
H4 C5 1_555 1_555
C6 C3 1_555 1_555
H5 C6 1_555 1_555
C7 N2 1_555 1_555
H6 C7 1_555 1_555
C8 C7 1_555 1_555
H7 C8 1_555 1_555
C9 C8 1_555 1_555
C10 C9 1_555 1_555
H8 C10 1_555 1_555
C11 N2 1_555 1_555
H9 C11 1_555 1_555
C12 C9 1_555 1_555
H10 C12 1_555 1_555
C13 N3 1_555 1_555
O1 H11 1_555 1_555
H12 O1 1_555 1_555
O2 H13 1_555 1_555
H14 O2 1_555 1_555
N4 C14 1_555 1_555
C14 C15 1_555 1_555
C15 H15 1_555 1_555
H16 C15 1_555 1_555
H17 C15 1_555 1_555
N5 C16 1_555 1_555
C16 C17 1_555 1_555
C17 H18 1_555 1_555
H19 C17 1_555 1_555
H20 C17 1_555 1_555
N1D C1D 1_555 1_555
C1D H1D 1_555 1_555
C2D C1D 1_555 1_555
H2D C2D 1_555 1_555
C3D C2D 1_555 1_555
C4D C3D 1_555 1_555
H3D C4D 1_555 1_555
C5D N1D 1_555 1_555
H4D C5D 1_555 1_555
C6D C6 1_555 1_555
H5D C6D 1_555 1_555
N2D C7D 1_555 1_555
C7D H6D 1_555 1_555
C8D C7D 1_555 1_555
H7D C8D 1_555 1_555
C9D C8D 1_555 1_555
C10D C9D 1_555 1_555
H8D C10D 1_555 1_555
C11D N2D 1_555 1_555
H9D C11D 1_555 1_555
C12D C12 1_555 1_555
H10D C12D 1_555 1_555
S1A C13A 1_555 1_555
N3A Fe1 1_555 1_555
C13A N3A 1_555 1_555
Fe1D N1D 1_555 1_555
Fe1D_2 N2D 1_555 1_555
N1A Fe1 1_555 1_555
N2A Fe1 1_555 1_555
C4 C5 1_555 1_555
C10 C11 1_555 1_555
C3D C6D 1_555 1_555
C4D C5D 1_555 1_555
C9D C12D 1_555 1_555
C10D C11D 1_555 1_555

#END
