
#######################################################################
#
#                 Cambridge Crystallographic Data Centre
#                                CCDC 
#
#######################################################################
#
# If this CIF has been generated from an entry in the Cambridge 
# Structural Database, then it will include bibliographic, chemical, 
# crystal, experimental, refinement or atomic coordinate data resulting 
# from the CCDC's data processing and validation procedures.
#
#######################################################################

data_DUHPUT01
_symmetry_cell_setting           tetragonal
_symmetry_space_group_name_H-M   'P 4/n c c'
_symmetry_Int_Tables_number      130
_space_group_name_Hall           '-P 4a 2ac'
loop_
_symmetry_equiv_pos_site_id
_symmetry_equiv_pos_as_xyz
1 x,y,z
2 1/2-x,1/2-y,z
3 1/2+x,-y,1/2-z
4 -x,1/2+y,1/2-z
5 -y,-x,1/2-z
6 1/2+y,1/2+x,1/2-z
7 y,1/2-x,z
8 1/2-y,x,z
9 -x,-y,-z
10 1/2+x,1/2+y,-z
11 1/2-x,y,1/2+z
12 x,1/2-y,1/2+z
13 y,x,1/2+z
14 1/2-y,1/2-x,1/2+z
15 -y,1/2+x,-z
16 1/2+y,-x,-z
_cell_length_a                   16.066(5)
_cell_length_b                   16.066(5)
_cell_length_c                   15.410(5)
_cell_angle_alpha                90
_cell_angle_beta                 90
_cell_angle_gamma                90
_cell_volume                     3977.57
loop_
_atom_site_label
_atom_site_type_symbol
_atom_site_fract_x
_atom_site_fract_y
_atom_site_fract_z
O1 O 0.3758(7) 0.2937(6) 0.6057(8)
H6 H 0.347(2) 0.2494(13) 0.6038(11)
H7 H 0.3728(10) 0.3125(14) 0.6572(9)
N3 N 0.3791(15) 0.2718(17) 0.2693(13)
C8 C 0.375(2) 0.224(2) 0.345(3)
C9 C 0.3676(11) 0.1730(6) 0.4230(9)
H8 H 0.4217 0.1542 0.4405
H9 H 0.3329 0.1257 0.4107
H10 H 0.343 0.2052 0.4688
Fe1 Fe 0.750 0.250 0.250
N1 N 0.68071(12) 0.32145(12) 0.34960(14)
S1 S 0.9473(4) 0.4790(4) 0.2454(8)
N2 N 0.84316(17) 0.34316(17) 0.250
C1 C 0.57137(16) 0.41444(16) 0.45356(18)
C2 C 0.62324(18) 0.45222(17) 0.39325(19)
H1 H 0.6221 0.5097 0.3862
C3 C 0.57787(19) 0.32871(18) 0.46168(19)
H2 H 0.546 0.3006 0.5026
C4 C 0.63186(18) 0.28521(17) 0.40870(18)
H3 H 0.6344 0.2276 0.4145
C5 C 0.5105(2) 0.46058(19) 0.50589(19)
H4 H 0.4845 0.4321 0.5509
C6 C 0.67648(17) 0.40443(16) 0.34370(19)
H5 H 0.7111 0.4312 0.3042
C7 C 0.8928(2) 0.3928(2) 0.250
N1H N 0.31929(12) 0.67855(12) 0.65040(14)
C1H C 0.42863(16) 0.58556(16) 0.54644(18)
C2H C 0.37676(18) 0.54778(17) 0.60675(19)
H1H H 0.3779 0.4903 0.6138
C3H C 0.42213(19) 0.67129(18) 0.53832(19)
H2H H 0.454 0.6994 0.4974
C4H C 0.36814(18) 0.71479(17) 0.59130(18)
H3H H 0.3656 0.7724 0.5855
C5H C 0.4895(2) 0.53942(19) 0.49411(19)
H4H H 0.5155 0.5679 0.4491
C6H C 0.32352(17) 0.59557(16) 0.65630(19)
H5H H 0.2889 0.5688 0.6958
S1E S 0.9790(4) 0.4473(4) 0.2546(8)
N1A N 0.81929(12) 0.17855(12) 0.34960(14)
S1A S 0.5527(4) 0.0210(4) 0.2454(8)
N2A N 0.65684(17) 0.15684(17) 0.250
C1A C 0.92863(16) 0.08556(16) 0.45356(18)
C2A C 0.87676(18) 0.04778(17) 0.39325(19)
H1A H 0.8779 -0.0097 0.3862
C3A C 0.92213(19) 0.17129(18) 0.46168(19)
H2A H 0.954 0.1994 0.5026
C4A C 0.86814(18) 0.21479(17) 0.40870(18)
H3A H 0.8656 0.2724 0.4145
C5A C 0.9895(2) 0.03942(19) 0.50589(19)
H4A H 1.0155 0.0679 0.5509
C6A C 0.82352(17) 0.09557(16) 0.34370(19)
H5A H 0.7889 0.0688 0.3042
C7A C 0.6072(2) 0.1072(2) 0.250
N1I N 1.18071(12) -0.17855(12) 0.65040(14)
C1I C 1.07137(16) -0.08556(16) 0.54644(18)
C2I C 1.12324(18) -0.04778(17) 0.60675(19)
H1I H 1.1221 0.0097 0.6138
C3I C 1.07787(19) -0.17129(18) 0.53832(19)
H2I H 1.046 -0.1994 0.4974
C4I C 1.13186(18) -0.21479(17) 0.59130(18)
H3I H 1.1344 -0.2724 0.5855
C5I C 1.0105(2) -0.03942(19) 0.49411(19)
H4I H 0.9845 -0.0679 0.4491
C6I C 1.17648(17) -0.09557(16) 0.65630(19)
H5I H 1.2111 -0.0688 0.6958
S1D S 0.5210(4) 0.0527(4) 0.2546(8)
Fe1H Fe 0.250 0.750 0.750
Fe1H_2 Fe 1.250 -0.250 0.750
N1D N 0.67855(12) 0.31929(12) 0.15040(14)
N1E N 0.82145(12) 0.18071(12) 0.15040(14)
loop_
_geom_bond_atom_site_label_1
_geom_bond_atom_site_label_2
_geom_bond_site_symmetry_1
_geom_bond_site_symmetry_2
Fe1 N1 1_555 1_555
N1 C4 1_555 1_555
S1 C7 1_555 1_555
N2 Fe1 1_555 1_555
C1 C2 1_555 1_555
C2 H1 1_555 1_555
C3 C1 1_555 1_555
H2 C3 1_555 1_555
C4 C3 1_555 1_555
H3 C4 1_555 1_555
C5 C1 1_555 1_555
H4 C5 1_555 1_555
C6 N1 1_555 1_555
H5 C6 1_555 1_555
C7 N2 1_555 1_555
O1 H6 1_555 1_555
H7 O1 1_555 1_555
N3 C8 1_555 1_555
C8 C9 1_555 1_555
C9 H8 1_555 1_555
H9 C9 1_555 1_555
H10 C9 1_555 1_555
N1H C4H 1_555 1_555
C1H C2H 1_555 1_555
C2H H1H 1_555 1_555
C3H C1H 1_555 1_555
H2H C3H 1_555 1_555
C4H C3H 1_555 1_555
H3H C4H 1_555 1_555
C5H C5 1_555 1_555
H4H C5H 1_555 1_555
C6H N1H 1_555 1_555
H5H C6H 1_555 1_555
S1E S1 1_555 1_555
N1A Fe1 1_555 1_555
S1A C7A 1_555 1_555
N2A Fe1 1_555 1_555
C1A C2A 1_555 1_555
C2A H1A 1_555 1_555
C3A C1A 1_555 1_555
H2A C3A 1_555 1_555
C4A N1A 1_555 1_555
H3A C4A 1_555 1_555
C5A C1A 1_555 1_555
H4A C5A 1_555 1_555
C6A N1A 1_555 1_555
H5A C6A 1_555 1_555
C7A N2A 1_555 1_555
N1I C4I 1_555 1_555
C1I C2I 1_555 1_555
C2I H1I 1_555 1_555
C3I C1I 1_555 1_555
H2I C3I 1_555 1_555
C4I C3I 1_555 1_555
H3I C4I 1_555 1_555
C5I C5A 1_555 1_555
H4I C5I 1_555 1_555
C6I N1I 1_555 1_555
H5I C6I 1_555 1_555
S1D S1A 1_555 1_555
Fe1H N1H 1_555 1_555
Fe1H_2 N1I 1_555 1_555
N1D Fe1 1_555 1_555
N1E Fe1 1_555 1_555
C2 C6 1_555 1_555
C7 S1E 1_555 1_555
C1H C5H 1_555 1_555
C2H C6H 1_555 1_555
C2A C6A 1_555 1_555
C3A C4A 1_555 1_555
C7A S1D 1_555 1_555
C1I C5I 1_555 1_555
C2I C6I 1_555 1_555

#END
