
#######################################################################
#
#                 Cambridge Crystallographic Data Centre
#                                CCDC 
#
#######################################################################
#
# If this CIF has been generated from an entry in the Cambridge 
# Structural Database, then it will include bibliographic, chemical, 
# crystal, experimental, refinement or atomic coordinate data resulting 
# from the CCDC's data processing and validation procedures.
#
#######################################################################

data_DUHPUS
_symmetry_cell_setting           orthorhombic
_symmetry_space_group_name_H-M   'C m c m'
_symmetry_Int_Tables_number      63
_space_group_name_Hall           '-C 2n 2'
loop_
_symmetry_equiv_pos_site_id
_symmetry_equiv_pos_as_xyz
1 x,y,z
2 -x,-y,1/2+z
3 -x,y,1/2-z
4 x,-y,-z
5 1/2+x,1/2+y,z
6 1/2-x,1/2-y,1/2+z
7 1/2-x,1/2+y,1/2-z
8 1/2+x,1/2-y,-z
9 -x,-y,-z
10 x,y,1/2-z
11 x,-y,1/2+z
12 -x,y,z
13 1/2-x,1/2-y,-z
14 1/2+x,1/2+y,1/2-z
15 1/2+x,1/2-y,1/2+z
16 1/2-x,1/2+y,z
_cell_length_a                   9.2518(9)
_cell_length_b                   8.8244(9)
_cell_length_c                   14.7531(8)
_cell_angle_alpha                90
_cell_angle_beta                 90
_cell_angle_gamma                90
_cell_volume                     1204.47
loop_
_atom_site_label
_atom_site_type_symbol
_atom_site_fract_x
_atom_site_fract_y
_atom_site_fract_z
Hg1 Hg 0.5000 0.22915(6) 0.51455(3)
C1 C 0.5000 0.0735(12) 0.6983(7)
H1 H 0.5849 0.0205 0.6763
C2 C 0.3708(8) 0.3114(9) 0.6975(5)
H2 H 0.2843 0.2615 0.6754
H3 H 0.3704 0.4150 0.6754
Cl1 Cl 0.2906(3) 0.0000 0.5000
Cl2 Cl 0.5000 0.3087(3) 0.3653(2)
N1 N 0.5000 0.2318(11) 0.6631(6)
Hg1C Hg 0.5000 -0.22915(6) 0.48545(3)
Hg1B Hg 0.5000 0.22915(6) 0.98545(3)
C1B C 0.5000 0.0735(12) 0.8017(7)
H1B H 0.4151 0.0205 0.8237
H1I H 0.5849 0.0205 0.8237
H1K H 0.4151 0.0205 0.6763
C2B C 0.6292(8) 0.3114(9) 0.8025(5)
C2K C 0.6292(8) 0.3114(9) 0.6975(5)
C2I C 0.3708(8) 0.3114(9) 0.8025(5)
H2B H 0.7157 0.2615 0.8246
H2I H 0.2843 0.2615 0.8246
H2K H 0.7157 0.2615 0.6754
H3B H 0.6296 0.4150 0.8246
H3I H 0.3704 0.4150 0.8246
H3K H 0.6296 0.4150 0.6754
Cl1H Cl 0.7094(3) 0.0000 0.5000
Cl2C Cl 0.5000 -0.3087(3) 0.6347(2)
N1B N 0.5000 0.2318(11) 0.8369(6)
N1C N 0.5000 -0.2318(11) 0.3369(6)
loop_
_geom_bond_atom_site_label_1
_geom_bond_atom_site_label_2
_geom_bond_site_symmetry_1
_geom_bond_site_symmetry_2
Hg1 Cl1 1_555 1_555
C1 H1 1_555 1_555
C2 H2 1_555 1_555
H3 C2 1_555 1_555
Cl1 Hg1C 1_555 1_555
Cl2 Hg1 1_555 1_555
N1 Hg1 1_555 1_555
Hg1C Cl1H 1_555 1_555
Hg1B N1B 1_555 1_555
C1B C1 1_555 1_555
H1B C1B 1_555 1_555
H1I C1B 1_555 1_555
H1K C1 1_555 1_555
C2B C2K 1_555 1_555
C2K N1 1_555 1_555
C2I C2 1_555 1_555
H2B C2B 1_555 1_555
H2I C2I 1_555 1_555
H2K C2K 1_555 1_555
H3B C2B 1_555 1_555
H3I C2I 1_555 1_555
H3K C2K 1_555 1_555
Cl1H Hg1 1_555 1_555
Cl2C Hg1C 1_555 1_555
N1B C1B 1_555 1_555
N1C Hg1C 1_555 1_555
C1 N1 1_555 1_555
C2 N1 1_555 1_555
C2B N1B 1_555 1_555
C2I N1B 1_555 1_555

#END
