
#######################################################################
#
#                 Cambridge Crystallographic Data Centre
#                                CCDC 
#
#######################################################################
#
# If this CIF has been generated from an entry in the Cambridge 
# Structural Database, then it will include bibliographic, chemical, 
# crystal, experimental, refinement or atomic coordinate data resulting 
# from the CCDC's data processing and validation procedures.
#
#######################################################################

data_DUHQON
_symmetry_cell_setting           triclinic
_symmetry_space_group_name_H-M   'P -1'
_symmetry_Int_Tables_number      2
_space_group_name_Hall           '-P 1'
loop_
_symmetry_equiv_pos_site_id
_symmetry_equiv_pos_as_xyz
1 x,y,z
2 -x,-y,-z
_cell_length_a                   4.707(2)
_cell_length_b                   9.444(3)
_cell_length_c                   10.901(5)
_cell_angle_alpha                72.569(5)
_cell_angle_beta                 82.956(4)
_cell_angle_gamma                76.766(5)
_cell_volume                     449.288
loop_
_atom_site_label
_atom_site_type_symbol
_atom_site_fract_x
_atom_site_fract_y
_atom_site_fract_z
O1 O 0.6552(9) 0.2222(4) 0.7045(4)
Cu1 Cu 0.5000 0.5000 0.5000
C1 C 0.3713(15) 0.0609(6) 0.6676(7)
H3 H 0.5335 -0.0154 0.6519
H4 H 0.2185 0.0731 0.6122
H5 H 0.2995 0.0307 0.7559
C2 C 0.4695(11) 0.2091(5) 0.6405(5)
C3 C 0.2141(12) 0.7070(5) 0.6631(5)
H6 H 0.3249 0.7797 0.6221
C4 C 0.0188(11) 0.7151(5) 0.7622(5)
H7 H -0.0301 0.7928 0.8017
C5 C 0.0373(10) 0.5061(5) 0.7114(4)
H8 H -0.0006 0.4136 0.7116
C6 C -0.4029(12) 0.6328(6) 0.9800(5)
H9 H -0.3379 0.7225 0.9666
C7 C -0.3994(11) 0.4103(6) 0.9189(5)
H10 H -0.3317 0.3495 0.8640
C8 C -0.3014(10) 0.5423(5) 0.8984(4)
N1 N 0.2268(9) 0.5756(4) 0.6310(4)
N2 N -0.0957(8) 0.5866(4) 0.7941(4)
O3 O 0.3507(8) 0.3154(4) 0.5476(3)
O1A O 0.3448(9) 0.7778(4) 0.2955(4)
Cu1_2 Cu -1.5000 0.5000 1.5000
C1A C 0.6287(15) 0.9391(6) 0.3324(7)
H3A H 0.4665 1.0154 0.3481
H4A H 0.7815 0.9269 0.3878
H5A H 0.7005 0.9693 0.2441
C2A C 0.5305(11) 0.7909(5) 0.3595(5)
C3A C -1.2141(12) 0.2930(5) 1.3369(5)
H6A H -1.3249 0.2203 1.3779
C4A C -1.0188(11) 0.2849(5) 1.2378(5)
H7A H -0.9699 0.2072 1.1983
C5A C -1.0373(10) 0.4939(5) 1.2886(4)
H8A H -0.9994 0.5864 1.2884
C6A C -0.5971(12) 0.3672(6) 1.0200(5)
H9A H -0.6621 0.2775 1.0334
C7A C -0.6006(11) 0.5897(6) 1.0811(5)
H10A H -0.6683 0.6505 1.1360
C8A C -0.6986(10) 0.4577(5) 1.1016(4)
N1A N -1.2268(9) 0.4244(4) 1.3690(4)
N1A_2 N 0.7732(9) 0.4244(4) 0.3690(4)
N2A N -0.9043(8) 0.4134(4) 1.2059(4)
O3A O 0.6493(8) 0.6846(4) 0.4524(3)
O2 O 0.7740(10) -0.0100(5) 0.9321(4)
H1 H 0.7709 0.0285 0.9990
H2 H 0.7337 0.0638 0.8652
loop_
_geom_bond_atom_site_label_1
_geom_bond_atom_site_label_2
_geom_bond_site_symmetry_1
_geom_bond_site_symmetry_2
O1 C2 1_555 1_555
O2 H1 1_555 1_555
H2 O2 1_555 1_555
Cu1 N1 1_555 1_555
C1 H3 1_555 1_555
H4 C1 1_555 1_555
H5 C1 1_555 1_555
C2 C1 1_555 1_555
C3 H6 1_555 1_555
C4 C3 1_555 1_555
H7 C4 1_555 1_555
C5 H8 1_555 1_555
C6 H9 1_555 1_555
C7 H10 1_555 1_555
C8 C6 1_555 1_555
N1 C3 1_555 1_555
N2 C4 1_555 1_555
O3 Cu1 1_555 1_555
O1A C2A 1_555 1_555
Cu1_2 N1A 1_555 1_555
C1A H3A 1_555 1_555
H4A C1A 1_555 1_555
H5A C1A 1_555 1_555
C2A C1A 1_555 1_555
C3A H6A 1_555 1_555
C4A C3A 1_555 1_555
H7A C4A 1_555 1_555
C5A H8A 1_555 1_555
C6A C7 1_555 1_555
H9A C6A 1_555 1_555
C7A C6 1_555 1_555
H10A C7A 1_555 1_555
C8A C6A 1_555 1_555
N1A C3A 1_555 1_555
N1A_2 Cu1 1_555 1_555
N2A C4A 1_555 1_555
O3A Cu1 1_555 1_555
C2 O3 1_555 1_555
C5 N1 1_555 1_555
C5 N2 1_555 1_555
C7 C8 1_555 1_555
C8 N2 1_555 1_555
C2A O3A 1_555 1_555
C5A N1A 1_555 1_555
C5A N2A 1_555 1_555
C7A C8A 1_555 1_555
C8A N2A 1_555 1_555

#END
