
#######################################################################
#
#                 Cambridge Crystallographic Data Centre
#                                CCDC 
#
#######################################################################
#
# If this CIF has been generated from an entry in the Cambridge 
# Structural Database, then it will include bibliographic, chemical, 
# crystal, experimental, refinement or atomic coordinate data resulting 
# from the CCDC's data processing and validation procedures.
#
#######################################################################

data_DUHQII
_symmetry_cell_setting           orthorhombic
_symmetry_space_group_name_H-M   'P n n 2'
_symmetry_Int_Tables_number      34
_space_group_name_Hall           'P 2 -2n'
loop_
_symmetry_equiv_pos_site_id
_symmetry_equiv_pos_as_xyz
1 x,y,z
2 -x,-y,z
3 1/2-x,1/2+y,1/2+z
4 1/2+x,1/2-y,1/2+z
_cell_length_a                   22.6110(10)
_cell_length_b                   22.6110(10)
_cell_length_c                   15.3980(7)
_cell_angle_alpha                90
_cell_angle_beta                 90
_cell_angle_gamma                90
_cell_volume                     7872.34
loop_
_atom_site_label
_atom_site_type_symbol
_atom_site_fract_x
_atom_site_fract_y
_atom_site_fract_z
Fe1 Fe 0.24941(5) 0.25805(3) 0.18603(6)
N1 N 0.1800(2) 0.2553(2) 0.2885(4)
C1 C 0.1355(3) 0.2968(4) 0.2831(5)
H1 H 0.1395 0.3294 0.2467
C2 C 0.0839(3) 0.2893(3) 0.3332(5)
H2 H 0.0525 0.3154 0.3263
C3 C 0.0793(3) 0.2437(3) 0.3923(5)
C4 C 0.1266(3) 0.2060(4) 0.4001(5)
H3 H 0.1266 0.1759 0.4413
C5 C 0.1750(3) 0.2141(4) 0.3442(5)
H4 H 0.206 0.1872 0.3483
C6 C 0.0246(4) 0.2350(4) 0.4472(6)
H5 H 0.0268 0.2094 0.4943
N2 N 0.1771(3) 0.2635(3) 0.0900(4)
C7 C 0.1333(3) 0.2238(3) 0.0943(5)
H6 H 0.1378 0.1917 0.1314
C8 C 0.0805(3) 0.2280(4) 0.0455(5)
H7 H 0.0503 0.2006 0.0532
C9 C 0.0745(3) 0.2730(4) -0.0133(5)
C10 C 0.1213(3) 0.3132(4) -0.0217(5)
H8 H 0.1194 0.3443 -0.0612
C11 C 0.1714(3) 0.3049(4) 0.0318(4)
H9 H 0.2028 0.331 0.0249
C12 C 0.0218(3) 0.2811(3) -0.0684(6)
H10 H 0.0232 0.3081 -0.114
N3 N -0.1793(3) 0.2401(3) 0.5849(4)
C13 C -0.1739(3) 0.2824(3) 0.5258(5)
H11 H -0.2051 0.3089 0.5199
C14 C -0.1269(3) 0.2896(3) 0.4740(5)
H12 H -0.1265 0.319 0.4318
C15 C -0.0791(3) 0.2522(3) 0.4846(6)
C16 C -0.0858(3) 0.2067(3) 0.5441(5)
H13 H -0.0562 0.1785 0.5511
C17 C -0.1365(3) 0.2039(3) 0.5923(5)
H14 H -0.1399 0.1737 0.633
C18 C -0.0261(3) 0.2619(3) 0.4317(6)
H15 H -0.0283 0.2882 0.3853
N4 N -0.1805(3) 0.2504(2) -0.2166(4)
C19 C -0.1731(3) 0.2126(4) -0.1555(5)
H16 H -0.2023 0.1841 -0.1484
C20 C -0.1254(3) 0.2107(3) -0.0990(5)
H17 H -0.1233 0.182 -0.0557
C21 C -0.0811(3) 0.2520(3) -0.1082(5)
C22 C -0.0878(3) 0.2943(3) -0.1705(5)
H18 H -0.0597 0.3241 -0.1766
C23 C -0.1366(3) 0.2929(4) -0.2246(5)
H19 H -0.1401 0.3214 -0.2679
C24 C -0.0272(3) 0.2510(3) -0.0548(6)
H20 H -0.0278 0.2265 -0.0063
N5 N 0.2456(3) 0.1662(2) 0.1792(5)
C25 C 0.2452(4) 0.1161(3) 0.1821(6)
S1 S 0.2442(2) 0.04468(11) 0.1903(3)
N6 N 0.2506(3) 0.3513(2) 0.1943(5)
C26 C 0.2492(4) 0.4015(3) 0.1884(6)
S2 S 0.24805(17) 0.47319(10) 0.1837(2)
Fe1C Fe -0.25059(5) 0.24195(3) -0.31397(6)
Fe1C_2 Fe -0.25059(5) 0.24195(3) 0.68603(6)
N3C N 0.3207(3) 0.2599(3) 0.0849(4)
N4C N 0.3195(3) 0.2496(2) 0.2834(4)
Fe2 Fe 0.24704(5) 0.25818(3) 0.69355(6)
N7 N 0.2518(3) 0.3302(2) 0.5938(4)
C27 C 0.2144(4) 0.3329(3) 0.5273(5)
H21 H 0.1882 0.3019 0.5174
C28 C 0.2140(4) 0.3809(3) 0.4732(5)
H22 H 0.1881 0.3816 0.4264
C29 C 0.2514(4) 0.4286(3) 0.4866(4)
C30 C 0.2897(4) 0.4230(3) 0.5536(5)
H23 H 0.3168 0.453 0.565
C31 C 0.2889(4) 0.3735(3) 0.6048(5)
H24 H 0.3162 0.3706 0.6497
C32 C 0.2474(4) 0.4814(3) 0.4319(6)
H25 H 0.2254 0.4772 0.3812
N8 N 0.2541(3) 0.6870(2) 0.2917(4)
C33 C 0.2957(3) 0.6835(3) 0.3544(5)
H26 H 0.3215 0.715 0.3627
C34 C 0.3006(4) 0.6342(3) 0.4064(5)
H27 H 0.3298 0.6333 0.449
C35 C 0.2630(4) 0.5855(3) 0.3970(5)
C36 C 0.2215(3) 0.5911(3) 0.3325(5)
H28 H 0.1952 0.5601 0.3228
C37 C 0.2176(4) 0.6413(3) 0.2815(5)
H29 H 0.1886 0.6431 0.2388
C38 C 0.2697(3) 0.5316(3) 0.4444(6)
H30 H 0.2946 0.534 0.4923
N9 N 0.2477(3) 0.3279(2) 0.7925(3)
C39 C 0.2083(3) 0.3734(3) 0.7900(5)
H31 H 0.1764 0.3689 0.7524
C40 C 0.2101(3) 0.4239(3) 0.8357(5)
H32 H 0.1812 0.4528 0.8297
C41 C 0.2588(4) 0.4310(3) 0.8938(5)
C42 C 0.2992(4) 0.3875(3) 0.8995(5)
H33 H 0.3315 0.3916 0.9363
C43 C 0.2925(4) 0.3359(3) 0.8496(5)
H34 H 0.3202 0.3059 0.8561
C44 C 0.2670(4) 0.4856(3) 0.9406(6)
H35 H 0.2977 0.4854 0.9808
N10 N 0.2557(3) 0.6885(3) 1.0932(3)
C45 C 0.2939(4) 0.6458(3) 1.0950(5)
H36 H 0.3255 0.6501 1.1332
C46 C 0.2926(4) 0.5951(3) 1.0466(5)
H37 H 0.322 0.5666 1.0518
C47 C 0.2456(4) 0.5879(3) 0.9894(5)
C48 C 0.2058(4) 0.6336(3) 0.9839(5)
H38 H 0.1749 0.631 0.9442
C49 C 0.2104(4) 0.6829(3) 1.0351(4)
H39 H 0.1824 0.7128 1.0302
C50 C 0.2385(4) 0.5338(3) 0.9353(6)
H40 H 0.2096 0.5356 0.8923
N11 N 0.3404(3) 0.2548(2) 0.6971(5)
C51 C 0.3899(4) 0.2491(3) 0.6932(6)
S3 S 0.45940(13) 0.2393(2) 0.6892(3)
N12 N 0.1555(2) 0.2606(2) 0.6937(4)
C52 C 0.1062(4) 0.2580(3) 0.6908(6)
S4 S 0.03400(13) 0.24877(18) 0.6903(3)
Fe2B Fe 0.25296(5) 0.75818(3) 0.19355(6)
Fe2B_2 Fe 0.25296(5) 0.75818(3) 1.19355(6)
N8B N 0.2459(3) 0.1870(2) 0.7917(4)
N10B N 0.2443(3) 0.1885(3) 0.5932(3)
O1 O 0.4547(3) 0.5735(3) -0.0016(4)
H41 H 0.4386(12) 0.5533(10) 0.0385(6)
H42 H 0.4408(14) 0.5611(14) -0.0498(5)
O2 O 0.4248(3) 0.0471(4) 0.3729(5)
H43 H 0.4369(10) 0.0378(5) 0.4233(5)
H44 H 0.4544(6) 0.0597(12) 0.3444(8)
O3 O 0.0517(4) 0.4272(3) 0.8355(5)
H45 H 0.0431(13) 0.4172(7) 0.7837(7)
H46 H 0.0655(10) 0.4622(4) 0.8334(9)
O4 O 0.4219(3) 0.4531(4) 0.0404(4)
H47 H 0.4100(7) 0.4609(15) 0.0916(7)
H48 H 0.4578(4) 0.4421(13) 0.0444(13)
N13 N 0.0791(5) 0.5436(5) 0.0634(7)
C53 C 0.0780(6) 0.5827(6) 0.1298(7)
H49 H 0.0789 0.6228 0.1164
C54 C 0.0756(5) 0.5667(5) 0.2161(8)
H50 H 0.0696 0.5941 0.2604
C55 C 0.0830(6) 0.5033(5) 0.2329(6)
C56 C 0.0774(6) 0.4654(6) 0.1646(7)
H51 H 0.0711 0.4254 0.1756
C57 C 0.0807(6) 0.4841(6) 0.0813(8)
H52 H 0.0839 0.4569 0.0363
C58 C 0.0801(5) 0.4775(5) 0.3204(5)
H53 H 0.0757 0.4366 0.3238
N14 N 0.0778(5) 0.4369(5) 0.6499(7)
C59 C 0.0588(6) 0.4016(5) 0.5826(7)
H54 H 0.0482 0.3627 0.5949
C60 C 0.0548(5) 0.4214(5) 0.4959(7)
H55 H 0.0363 0.3991 0.453
C61 C 0.0811(5) 0.4786(5) 0.4780(5)
C62 C 0.0988(6) 0.5144(6) 0.5473(8)
H56 H 0.1175 0.5504 0.5373
C63 C 0.0883(6) 0.4955(5) 0.6292(8)
H57 H 0.0881 0.5233 0.6738
C64 C 0.0830(5) 0.5051(5) 0.3913(5)
H58 H 0.0866 0.546 0.3883
N15 N 0.5595(5) 0.5711(5) 0.2217(7)
C65 C 0.5967(6) 0.5529(6) 0.2857(8)
H59 H 0.6333 0.5372 0.2707
C66 C 0.5814(6) 0.5573(5) 0.3735(8)
H60 H 0.6086 0.5468 0.4161
C67 C 0.5233(6) 0.5783(5) 0.3983(5)
C68 C 0.4845(6) 0.5971(6) 0.3325(8)
H61 H 0.4449 0.6057 0.343
C69 C 0.5093(6) 0.6017(6) 0.2529(8)
H62 H 0.4914 0.6279 0.2145
C70 C 0.5000(5) 0.5790(5) 0.4865(5)
H63 H 0.4591 0.5808 0.4911
N16 N 0.4597(6) 0.5851(5) 0.8252(8)
C71 C 0.4240(7) 0.5805(6) 0.7554(7)
H64 H 0.3837 0.5794 0.7677
C72 C 0.4382(6) 0.5772(6) 0.6678(8)
H65 H 0.4091 0.5731 0.6256
C73 C 0.5013(6) 0.5803(7) 0.6443(6)
C74 C 0.5373(6) 0.5872(6) 0.7162(8)
H66 H 0.5778 0.5888 0.7066
C75 C 0.5181(7) 0.5919(7) 0.8003(9)
H67 H 0.546 0.6001 0.8431
C76 C 0.5277(5) 0.5774(6) 0.5571(5)
H68 H 0.5686 0.5742 0.5541
loop_
_geom_bond_atom_site_label_1
_geom_bond_atom_site_label_2
_geom_bond_site_symmetry_1
_geom_bond_site_symmetry_2
Fe1 N1 1_555 1_555
N1 C1 1_555 1_555
C1 H1 1_555 1_555
C2 C1 1_555 1_555
H2 C2 1_555 1_555
C3 C2 1_555 1_555
C4 C3 1_555 1_555
H3 C4 1_555 1_555
C5 N1 1_555 1_555
H4 C5 1_555 1_555
C6 C3 1_555 1_555
H5 C6 1_555 1_555
N2 Fe1 1_555 1_555
C7 N2 1_555 1_555
H6 C7 1_555 1_555
C8 C7 1_555 1_555
H7 C8 1_555 1_555
C9 C8 1_555 1_555
C10 C9 1_555 1_555
H8 C10 1_555 1_555
C11 N2 1_555 1_555
H9 C11 1_555 1_555
C12 C9 1_555 1_555
H10 C12 1_555 1_555
N3 C13 1_555 1_555
C13 H11 1_555 1_555
C14 C13 1_555 1_555
H12 C14 1_555 1_555
C15 C14 1_555 1_555
C16 C15 1_555 1_555
H13 C16 1_555 1_555
C17 N3 1_555 1_555
H14 C17 1_555 1_555
C18 C6 1_555 1_555
H15 C18 1_555 1_555
N4 C19 1_555 1_555
C19 H16 1_555 1_555
C20 C19 1_555 1_555
H17 C20 1_555 1_555
C21 C20 1_555 1_555
C22 C21 1_555 1_555
H18 C22 1_555 1_555
C23 N4 1_555 1_555
H19 C23 1_555 1_555
C24 C12 1_555 1_555
H20 C24 1_555 1_555
N5 Fe1 1_555 1_555
C25 N5 1_555 1_555
S1 C25 1_555 1_555
N6 Fe1 1_555 1_555
C26 N6 1_555 1_555
S2 C26 1_555 1_555
Fe2 N7 1_555 1_555
N7 C27 1_555 1_555
C27 H21 1_555 1_555
C28 C27 1_555 1_555
H22 C28 1_555 1_555
C29 C28 1_555 1_555
C30 C29 1_555 1_555
H23 C30 1_555 1_555
C31 N7 1_555 1_555
H24 C31 1_555 1_555
C32 C29 1_555 1_555
H25 C32 1_555 1_555
N8 C33 1_555 1_555
C33 H26 1_555 1_555
C34 C33 1_555 1_555
H27 C34 1_555 1_555
C35 C34 1_555 1_555
C36 C35 1_555 1_555
H28 C36 1_555 1_555
C37 N8 1_555 1_555
H29 C37 1_555 1_555
C38 C32 1_555 1_555
H30 C38 1_555 1_555
N9 Fe2 1_555 1_555
C39 N9 1_555 1_555
H31 C39 1_555 1_555
C40 C39 1_555 1_555
H32 C40 1_555 1_555
C41 C40 1_555 1_555
C42 C41 1_555 1_555
H33 C42 1_555 1_555
C43 N9 1_555 1_555
H34 C43 1_555 1_555
C44 C41 1_555 1_555
H35 C44 1_555 1_555
N10 C45 1_555 1_555
C45 H36 1_555 1_555
C46 C45 1_555 1_555
H37 C46 1_555 1_555
C47 C46 1_555 1_555
C48 C47 1_555 1_555
H38 C48 1_555 1_555
C49 N10 1_555 1_555
H39 C49 1_555 1_555
C50 C44 1_555 1_555
H40 C50 1_555 1_555
N11 Fe2 1_555 1_555
C51 N11 1_555 1_555
S3 C51 1_555 1_555
N12 Fe2 1_555 1_555
C52 N12 1_555 1_555
S4 C52 1_555 1_555
O1 H41 1_555 1_555
H42 O1 1_555 1_555
O2 H43 1_555 1_555
H44 O2 1_555 1_555
O3 H45 1_555 1_555
H46 O3 1_555 1_555
O4 H47 1_555 1_555
H48 O4 1_555 1_555
N13 C53 1_555 1_555
C53 H49 1_555 1_555
C54 C53 1_555 1_555
H50 C54 1_555 1_555
C55 C54 1_555 1_555
C56 C55 1_555 1_555
H51 C56 1_555 1_555
C57 N13 1_555 1_555
H52 C57 1_555 1_555
C58 C55 1_555 1_555
H53 C58 1_555 1_555
N14 C59 1_555 1_555
C59 H54 1_555 1_555
C60 C59 1_555 1_555
H55 C60 1_555 1_555
C61 C60 1_555 1_555
C62 C61 1_555 1_555
H56 C62 1_555 1_555
C63 N14 1_555 1_555
H57 C63 1_555 1_555
C64 C58 1_555 1_555
H58 C64 1_555 1_555
N15 C65 1_555 1_555
C65 H59 1_555 1_555
C66 C65 1_555 1_555
H60 C66 1_555 1_555
C67 C66 1_555 1_555
C68 C67 1_555 1_555
H61 C68 1_555 1_555
C69 N15 1_555 1_555
H62 C69 1_555 1_555
C70 C67 1_555 1_555
H63 C70 1_555 1_555
N16 C71 1_555 1_555
C71 H64 1_555 1_555
C72 C71 1_555 1_555
H65 C72 1_555 1_555
C73 C72 1_555 1_555
C74 C73 1_555 1_555
H66 C74 1_555 1_555
C75 N16 1_555 1_555
H67 C75 1_555 1_555
C76 C70 1_555 1_555
H68 C76 1_555 1_555
Fe1C N4 1_555 1_555
Fe1C_2 N3 1_555 1_555
N3C Fe1 1_555 1_555
N4C Fe1 1_555 1_555
Fe2B N8 1_555 1_555
Fe2B_2 N10 1_555 1_555
N8B Fe2 1_555 1_555
N10B Fe2 1_555 1_555
C4 C5 1_555 1_555
C10 C11 1_555 1_555
C15 C18 1_555 1_555
C16 C17 1_555 1_555
C21 C24 1_555 1_555
C22 C23 1_555 1_555
C30 C31 1_555 1_555
C35 C38 1_555 1_555
C36 C37 1_555 1_555
C42 C43 1_555 1_555
C47 C50 1_555 1_555
C48 C49 1_555 1_555
C56 C57 1_555 1_555
C61 C64 1_555 1_555
C62 C63 1_555 1_555
C68 C69 1_555 1_555
C73 C76 1_555 1_555
C74 C75 1_555 1_555

#END
