
#######################################################################
#
#                 Cambridge Crystallographic Data Centre
#                                CCDC 
#
#######################################################################
#
# If this CIF has been generated from an entry in the Cambridge 
# Structural Database, then it will include bibliographic, chemical, 
# crystal, experimental, refinement or atomic coordinate data resulting 
# from the CCDC's data processing and validation procedures.
#
#######################################################################

data_DUHQII01
_symmetry_cell_setting           orthorhombic
_symmetry_space_group_name_H-M   'P n n 2'
_symmetry_Int_Tables_number      34
_space_group_name_Hall           'P 2 -2n'
loop_
_symmetry_equiv_pos_site_id
_symmetry_equiv_pos_as_xyz
1 x,y,z
2 -x,-y,z
3 1/2-x,1/2+y,1/2+z
4 1/2+x,1/2-y,1/2+z
_cell_length_a                   21.683(4)
_cell_length_b                   21.645(5)
_cell_length_c                   15.372(2)
_cell_angle_alpha                90
_cell_angle_beta                 90
_cell_angle_gamma                90
_cell_volume                     7214.52
loop_
_atom_site_label
_atom_site_type_symbol
_atom_site_fract_x
_atom_site_fract_y
_atom_site_fract_z
Fe1 Fe 0.24755(16) 0.25846(17) 0.1871(6)
N1 N 0.1818(11) 0.2581(13) 0.2792(15)
C1 C 0.1355(12) 0.2974(16) 0.277(2)
H1 H 0.137 0.3314 0.2376
C2 C 0.0851(12) 0.2902(15) 0.330(2)
H2 H 0.0522 0.319 0.3246
C3 C 0.0798(10) 0.2455(15) 0.3870(17)
C4 C 0.1320(10) 0.2074(14) 0.399(2)
H3 H 0.1338 0.1785 0.4459
C5 C 0.1837(11) 0.2142(15) 0.338(2)
H4 H 0.2179 0.187 0.3402
C6 C 0.0254(9) 0.2387(15) 0.4447(18)
H5 H 0.0306 0.2144 0.4956
N2 N -0.1869(11) 0.2415(12) 0.6010(16)
C7 C -0.1825(11) 0.2827(14) 0.5287(19)
H6 H -0.2171 0.308 0.516
C8 C -0.1347(11) 0.2877(13) 0.479(2)
H7 H -0.1354 0.319 0.4361
C9 C -0.0833(12) 0.2521(12) 0.4845(16)
C10 C -0.0868(12) 0.2064(12) 0.5561(17)
H8 H -0.0524 0.1808 0.5686
C11 C -0.1365(11) 0.2013(15) 0.601(2)
H9 H -0.1392 0.1665 0.6388
C12 C -0.0290(11) 0.2629(14) 0.432(2)
H10 H -0.0333 0.2902 0.384
N3 N 0.1824(11) 0.2611(12) 0.1014(16)
C13 C 0.1337(11) 0.2248(13) 0.1097(19)
H11 H 0.1349 0.1953 0.1553
C14 C 0.0809(11) 0.2255(13) 0.0582(19)
H12 H 0.0485 0.1969 0.0682
C15 C 0.0765(11) 0.2703(14) -0.010(2)
C16 C 0.1256(11) 0.3119(13) -0.016(2)
H13 H 0.1241 0.345 -0.0569
C17 C 0.1777(11) 0.3046(13) 0.039(2)
H14 H 0.2115 0.332 0.0311
C18 C 0.0240(10) 0.2801(13) -0.067(2)
H15 H 0.0277 0.3083 -0.1137
N4 N -0.1872(12) 0.2479(13) -0.2233(16)
C19 C -0.1801(12) 0.2070(15) -0.161(2)
H16 H -0.2108 0.1759 -0.1549
C20 C -0.1304(12) 0.2059(14) -0.101(2)
H17 H -0.1279 0.1762 -0.0554
C21 C -0.0842(14) 0.2522(15) -0.113(2)
C22 C -0.0912(12) 0.2929(14) -0.175(2)
H18 H -0.0613 0.3246 -0.182
C23 C -0.1440(12) 0.2902(15) -0.232(2)
H19 H -0.1476 0.3199 -0.2773
C24 C -0.0309(11) 0.2497(13) -0.054(2)
H20 H -0.0348 0.2251 -0.0036
N5 N 0.2454(11) 0.1658(9) 0.183(3)
C25 C 0.2417(12) 0.1199(11) 0.190(3)
S1 S 0.2404(5) 0.0420(3) 0.1889(10)
N6 N 0.2515(10) 0.3489(9) 0.195(2)
C26 C 0.2505(14) 0.3997(11) 0.191(3)
S2 S 0.2510(4) 0.4754(3) 0.1836(9)
Fe1C Fe -0.25245(16) 0.24154(17) -0.3129(6)
Fe1C_2 Fe -0.25245(16) 0.24154(17) 0.6871(6)
N2C N 0.3131(11) 0.2585(12) 0.1010(16)
N4C N 0.3128(12) 0.2521(13) 0.2767(16)
Fe2 Fe 0.24413(15) 0.25928(16) 0.6904(5)
N7 N 0.2483(10) 0.3259(11) 0.6012(15)
C27 C 0.2095(12) 0.3304(12) 0.5289(18)
H21 H 0.1796 0.2992 0.5186
C28 C 0.2138(11) 0.3769(13) 0.4756(18)
H22 H 0.189 0.3749 0.4247
C29 C 0.2498(12) 0.4280(14) 0.4843(18)
C30 C 0.2924(11) 0.4223(13) 0.5596(18)
H23 H 0.3212 0.4542 0.5719
C31 C 0.2900(11) 0.3711(13) 0.6104(19)
H24 H 0.3198 0.3671 0.6555
C32 C 0.2469(14) 0.4824(12) 0.4277(19)
H25 H 0.2238 0.479 0.3754
N8 N 0.2592(11) 0.6931(12) 0.2827(15)
C33 C 0.3002(11) 0.6923(13) 0.3444(19)
H26 H 0.3266 0.7269 0.3524
C34 C 0.3060(11) 0.6408(13) 0.3996(19)
H27 H 0.3372 0.6403 0.443
C35 C 0.2675(12) 0.5918(13) 0.3915(19)
C36 C 0.2257(11) 0.5935(12) 0.3309(18)
H28 H 0.1992 0.5589 0.324
C37 C 0.2180(12) 0.6438(13) 0.2757(19)
H29 H 0.1855 0.6446 0.2343
C38 C 0.2742(12) 0.5363(13) 0.444(2)
H30 H 0.3 0.5387 0.494
N9 N 0.2458(11) 0.3246(12) 0.7844(15)
C39 C 0.2070(11) 0.3732(12) 0.7786(18)
H31 H 0.1768 0.3743 0.7338
C40 C 0.2110(11) 0.4216(13) 0.8375(18)
H32 H 0.1781 0.4505 0.8402
C41 C 0.2597(12) 0.4293(14) 0.8912(19)
C42 C 0.2992(12) 0.3808(12) 0.8958(19)
H33 H 0.3323 0.3812 0.9363
C43 C 0.2908(12) 0.3305(13) 0.841(2)
H34 H 0.32 0.2978 0.8445
C44 C 0.2685(10) 0.4852(12) 0.939(2)
H35 H 0.2998 0.4843 0.9826
N10 N 0.2566(10) 0.6934(12) 1.1006(16)
C45 C 0.2968(11) 0.6468(14) 1.1039(19)
H36 H 0.329 0.6497 1.1455
C46 C 0.2955(11) 0.5949(14) 1.052(2)
H37 H 0.3257 0.5634 1.0584
C47 C 0.2485(13) 0.5901(14) 0.990(2)
C48 C 0.2071(12) 0.6418(13) 0.984(2)
H38 H 0.1761 0.6421 0.9407
C49 C 0.2111(12) 0.6889(13) 1.039(2)
H39 H 0.1812 0.7209 1.0357
C50 C 0.2386(11) 0.5374(13) 0.931(2)
H40 H 0.2095 0.5414 0.8851
N11 N 0.3318(6) 0.2548(9) 0.6932(19)
C51 C 0.3883(8) 0.2493(12) 0.697(2)
S3 S 0.4617(3) 0.2404(5) 0.6919(9)
N12 N 0.1556(7) 0.2610(10) 0.691(2)
C52 C 0.1002(9) 0.2583(11) 0.689(3)
S4 S 0.0262(2) 0.2528(5) 0.6919(10)
Fe2B Fe 0.25587(15) 0.75928(16) 0.1904(5)
Fe2B_2 Fe 0.25587(15) 0.75928(16) 1.1904(5)
N8B N 0.2408(11) 0.1931(12) 0.7827(15)
N10B N 0.2434(10) 0.1934(12) 0.6006(16)
O1 O 0.4563(10) 0.5800(9) 0.0110(10)
H41 H 0.4341(16) 0.5482(12) 0.020(2)
H42 H 0.4655(8) 0.5805(19) -0.0427(9)
O2 O 0.4239(7) 0.0449(9) 0.3622(9)
H43 H 0.4129(13) 0.049(7) 0.4149(13)
H44 H 0.4628(8) 0.050(6) 0.360(2)
O3 O 0.0484(9) 0.4219(8) 0.8292(10)
H45 H 0.054(3) 0.4152(18) 0.7754(11)
H46 H 0.0697(18) 0.4534(11) 0.843(2)
O4 O 0.4189(7) 0.4566(10) 0.0495(10)
H47 H 0.421(2) 0.464(2) 0.1037(11)
H48 H 0.4513(9) 0.4369(16) 0.0355(17)
N13 N 0.0836(11) 0.5424(10) 0.0506(13)
C53 C 0.0796(13) 0.5808(10) 0.1168(13)
H49 H 0.0757 0.6236 0.1044
C54 C 0.0807(11) 0.5629(9) 0.2029(13)
H50 H 0.0812 0.5931 0.2476
C55 C 0.0810(13) 0.5000(9) 0.2241(10)
C56 C 0.0800(13) 0.4602(10) 0.1540(13)
H51 H 0.0778 0.417 0.1642
C57 C 0.0821(14) 0.4816(11) 0.0693(14)
H52 H 0.0825 0.4526 0.0229
C58 C 0.0762(14) 0.4757(13) 0.3117(11)
H53 H 0.0677 0.4329 0.3174
N14 N 0.0765(11) 0.4359(10) 0.6445(13)
C59 C 0.0539(14) 0.4037(11) 0.5792(14)
H54 H 0.035 0.3653 0.592
C60 C 0.0560(12) 0.4223(11) 0.4933(14)
H55 H 0.0415 0.3956 0.4487
C61 C 0.0798(12) 0.4805(10) 0.4724(10)
C62 C 0.1006(13) 0.5153(11) 0.5421(14)
H56 H 0.1141 0.5565 0.5328
C63 C 0.1020(12) 0.4904(10) 0.6254(14)
H57 H 0.1217 0.5131 0.6704
C64 C 0.0826(12) 0.5084(12) 0.3867(11)
H58 H 0.0893 0.5517 0.3828
N15 N 0.5708(10) 0.5721(13) 0.2347(14)
C65 C 0.6015(11) 0.5521(16) 0.3026(16)
H59 H 0.6423 0.5372 0.2936
C66 C 0.5782(11) 0.5513(15) 0.3864(15)
H60 H 0.601 0.5327 0.4323
C67 C 0.5209(11) 0.5783(15) 0.4027(10)
C68 C 0.4897(12) 0.6000(16) 0.3309(15)
H61 H 0.453 0.6232 0.3389
C69 C 0.5108(10) 0.5888(15) 0.2467(15)
H62 H 0.4838 0.5928 0.1984
C70 C 0.4961(13) 0.5808(16) 0.4903(11)
H63 H 0.4526 0.5842 0.495
N16 N 0.4615(10) 0.5864(15) 0.8275(14)
C71 C 0.4234(11) 0.5842(17) 0.7612(15)
H64 H 0.3805 0.5851 0.7734
C72 C 0.4409(10) 0.5808(15) 0.6755(16)
H65 H 0.4107 0.5776 0.6309
C73 C 0.5034(10) 0.5821(17) 0.6547(10)
C74 C 0.5435(10) 0.5791(16) 0.7256(15)
H66 H 0.5861 0.5715 0.7159
C75 C 0.5221(11) 0.5869(18) 0.8100(15)
H67 H 0.5508 0.5926 0.856
C76 C 0.5279(14) 0.5789(18) 0.5670(11)
H68 H 0.5714 0.5749 0.5623
loop_
_geom_bond_atom_site_label_1
_geom_bond_atom_site_label_2
_geom_bond_site_symmetry_1
_geom_bond_site_symmetry_2
Fe1 N1 1_555 1_555
N1 C1 1_555 1_555
C1 H1 1_555 1_555
C2 C1 1_555 1_555
H2 C2 1_555 1_555
C3 C2 1_555 1_555
C4 C3 1_555 1_555
H3 C4 1_555 1_555
C5 N1 1_555 1_555
H4 C5 1_555 1_555
C6 C3 1_555 1_555
H5 C6 1_555 1_555
N2 C7 1_555 1_555
C7 H6 1_555 1_555
C8 C7 1_555 1_555
H7 C8 1_555 1_555
C9 C8 1_555 1_555
C10 C9 1_555 1_555
H8 C10 1_555 1_555
C11 N2 1_555 1_555
H9 C11 1_555 1_555
C12 C6 1_555 1_555
H10 C12 1_555 1_555
N3 Fe1 1_555 1_555
C13 N3 1_555 1_555
H11 C13 1_555 1_555
C14 C13 1_555 1_555
H12 C14 1_555 1_555
C15 C14 1_555 1_555
C16 C15 1_555 1_555
H13 C16 1_555 1_555
C17 N3 1_555 1_555
H14 C17 1_555 1_555
C18 C15 1_555 1_555
H15 C18 1_555 1_555
N4 C19 1_555 1_555
C19 H16 1_555 1_555
C20 C19 1_555 1_555
H17 C20 1_555 1_555
C21 C20 1_555 1_555
C22 C21 1_555 1_555
H18 C22 1_555 1_555
C23 N4 1_555 1_555
H19 C23 1_555 1_555
C24 C18 1_555 1_555
H20 C24 1_555 1_555
N5 Fe1 1_555 1_555
C25 N5 1_555 1_555
S1 C25 1_555 1_555
N6 Fe1 1_555 1_555
C26 N6 1_555 1_555
S2 C26 1_555 1_555
Fe2 N7 1_555 1_555
N7 C27 1_555 1_555
C27 H21 1_555 1_555
C28 C27 1_555 1_555
H22 C28 1_555 1_555
C29 C28 1_555 1_555
C30 C29 1_555 1_555
H23 C30 1_555 1_555
C31 N7 1_555 1_555
H24 C31 1_555 1_555
C32 C29 1_555 1_555
H25 C32 1_555 1_555
N8 C33 1_555 1_555
C33 H26 1_555 1_555
C34 C33 1_555 1_555
H27 C34 1_555 1_555
C35 C34 1_555 1_555
C36 C35 1_555 1_555
H28 C36 1_555 1_555
C37 N8 1_555 1_555
H29 C37 1_555 1_555
C38 C32 1_555 1_555
H30 C38 1_555 1_555
N9 Fe2 1_555 1_555
C39 N9 1_555 1_555
H31 C39 1_555 1_555
C40 C39 1_555 1_555
H32 C40 1_555 1_555
C41 C40 1_555 1_555
C42 C41 1_555 1_555
H33 C42 1_555 1_555
C43 N9 1_555 1_555
H34 C43 1_555 1_555
C44 C41 1_555 1_555
H35 C44 1_555 1_555
N10 C45 1_555 1_555
C45 H36 1_555 1_555
C46 C45 1_555 1_555
H37 C46 1_555 1_555
C47 C46 1_555 1_555
C48 C47 1_555 1_555
H38 C48 1_555 1_555
C49 N10 1_555 1_555
H39 C49 1_555 1_555
C50 C44 1_555 1_555
H40 C50 1_555 1_555
N11 Fe2 1_555 1_555
C51 N11 1_555 1_555
S3 C51 1_555 1_555
N12 Fe2 1_555 1_555
C52 N12 1_555 1_555
S4 C52 1_555 1_555
O1 H41 1_555 1_555
H42 O1 1_555 1_555
O2 H43 1_555 1_555
H44 O2 1_555 1_555
O3 H45 1_555 1_555
H46 O3 1_555 1_555
O4 H47 1_555 1_555
H48 O4 1_555 1_555
N13 C53 1_555 1_555
C53 H49 1_555 1_555
C54 C53 1_555 1_555
H50 C54 1_555 1_555
C55 C54 1_555 1_555
C56 C55 1_555 1_555
H51 C56 1_555 1_555
C57 N13 1_555 1_555
H52 C57 1_555 1_555
C58 C55 1_555 1_555
H53 C58 1_555 1_555
N14 C59 1_555 1_555
C59 H54 1_555 1_555
C60 C59 1_555 1_555
H55 C60 1_555 1_555
C61 C60 1_555 1_555
C62 C61 1_555 1_555
H56 C62 1_555 1_555
C63 N14 1_555 1_555
H57 C63 1_555 1_555
C64 C58 1_555 1_555
H58 C64 1_555 1_555
N15 C65 1_555 1_555
C65 H59 1_555 1_555
C66 C65 1_555 1_555
H60 C66 1_555 1_555
C67 C66 1_555 1_555
C68 C67 1_555 1_555
H61 C68 1_555 1_555
C69 N15 1_555 1_555
H62 C69 1_555 1_555
C70 C67 1_555 1_555
H63 C70 1_555 1_555
N16 C71 1_555 1_555
C71 H64 1_555 1_555
C72 C71 1_555 1_555
H65 C72 1_555 1_555
C73 C72 1_555 1_555
C74 C73 1_555 1_555
H66 C74 1_555 1_555
C75 N16 1_555 1_555
H67 C75 1_555 1_555
C76 C70 1_555 1_555
H68 C76 1_555 1_555
Fe1C N4 1_555 1_555
Fe1C_2 N2 1_555 1_555
N2C Fe1 1_555 1_555
N4C Fe1 1_555 1_555
Fe2B N8 1_555 1_555
Fe2B_2 N10 1_555 1_555
N8B Fe2 1_555 1_555
N10B Fe2 1_555 1_555
C4 C5 1_555 1_555
C9 C12 1_555 1_555
C10 C11 1_555 1_555
C16 C17 1_555 1_555
C21 C24 1_555 1_555
C22 C23 1_555 1_555
C30 C31 1_555 1_555
C35 C38 1_555 1_555
C36 C37 1_555 1_555
C42 C43 1_555 1_555
C47 C50 1_555 1_555
C48 C49 1_555 1_555
C56 C57 1_555 1_555
C61 C64 1_555 1_555
C62 C63 1_555 1_555
C68 C69 1_555 1_555
C73 C76 1_555 1_555
C74 C75 1_555 1_555

#END
