
#######################################################################
#
#                 Cambridge Crystallographic Data Centre
#                                CCDC 
#
#######################################################################
#
# If this CIF has been generated from an entry in the Cambridge 
# Structural Database, then it will include bibliographic, chemical, 
# crystal, experimental, refinement or atomic coordinate data resulting 
# from the CCDC's data processing and validation procedures.
#
#######################################################################

data_DUHQUS
_symmetry_cell_setting           triclinic
_symmetry_space_group_name_H-M   'P -1'
_symmetry_Int_Tables_number      2
_space_group_name_Hall           '-P 1'
loop_
_symmetry_equiv_pos_site_id
_symmetry_equiv_pos_as_xyz
1 x,y,z
2 -x,-y,-z
_cell_length_a                   6.618(3)
_cell_length_b                   9.394(4)
_cell_length_c                   13.250(6)
_cell_angle_alpha                104.488(10)
_cell_angle_beta                 90.033(10)
_cell_angle_gamma                110.571(8)
_cell_volume                     743.131
loop_
_atom_site_label
_atom_site_type_symbol
_atom_site_fract_x
_atom_site_fract_y
_atom_site_fract_z
Au1 Au 0.64281(10) 0.78547(7) 0.70844(5)
N1 N 0.7266(16) 0.9524(11) 0.6206(7)
H1 H 0.6975 0.8955 0.5504
C1 C 0.959(2) 1.0519(16) 0.6360(10)
H2 H 0.9913 1.1174 0.5858
H3 H 1.0468 0.9841 0.6226
C2 C 1.018(2) 1.1586(15) 0.7482(10)
H4 H 1.1733 1.2271 0.7576
H5 H 0.9941 1.0932 0.7983
C3 C 0.878(2) 1.2610(15) 0.7702(11)
H6 H 0.9079 1.3231 0.8445
H7 H 0.9156 1.3357 0.7261
C4 C 0.640(2) 1.1598(15) 0.7473(10)
H8 H 0.5536 1.2283 0.7557
H9 H 0.5982 1.0957 0.7982
C5 C 0.592(2) 1.0519(14) 0.6372(10)
H10 H 0.4362 0.9834 0.6253
H11 H 0.6207 1.1160 0.5862
N2 N 0.563(2) 0.6204(13) 0.7971(8)
H12 H 0.5148 0.5214 0.7493
C6 C 0.746(3) 0.6271(19) 0.8638(12)
H13 H 0.8640 0.6159 0.8203
H14 H 0.6983 0.5389 0.8971
C7 C 0.829(2) 0.7831(18) 0.9476(12)
H15 H 0.9530 0.7872 0.9916
H16 H 0.8809 0.8708 0.9140
C8 C 0.654(2) 0.8031(16) 1.0155(9)
H17 H 0.7064 0.9097 1.0649
H18 H 0.6155 0.7245 1.0568
C9 C 0.451(2) 0.7808(18) 0.9462(11)
H19 H 0.3314 0.7833 0.9903
H20 H 0.4847 0.8687 0.9128
C10 C 0.382(3) 0.6255(19) 0.8623(12)
H21 H 0.3401 0.5370 0.8953
H22 H 0.2540 0.6141 0.8176
Ag1 Ag 0.76348(17) 0.50010(14) 0.50009(10)
Cl1 Cl 0.5759(5) 0.6526(3) 0.4150(2)
Cl2 Cl 1.0916(6) 0.6837(4) 0.6362(3)
Cl1A Cl 0.4241(5) 0.3474(3) 0.5850(2)
Cl2A Cl 0.9084(6) 0.3163(4) 0.3638(3)
Ag1A Ag 0.23652(17) 0.49990(14) 0.49991(10)
Ag1A_2 Ag 1.23652(17) 0.49990(14) 0.49991(10)
loop_
_geom_bond_atom_site_label_1
_geom_bond_atom_site_label_2
_geom_bond_site_symmetry_1
_geom_bond_site_symmetry_2
Au1 N1 1_555 1_555
N1 H1 1_555 1_555
C1 N1 1_555 1_555
H2 C1 1_555 1_555
H3 C1 1_555 1_555
C2 C1 1_555 1_555
H4 C2 1_555 1_555
H5 C2 1_555 1_555
C3 C2 1_555 1_555
H6 C3 1_555 1_555
H7 C3 1_555 1_555
C4 C3 1_555 1_555
H8 C4 1_555 1_555
H9 C4 1_555 1_555
C5 N1 1_555 1_555
H10 C5 1_555 1_555
H11 C5 1_555 1_555
N2 Au1 1_555 1_555
H12 N2 1_555 1_555
C6 N2 1_555 1_555
H13 C6 1_555 1_555
H14 C6 1_555 1_555
C7 C6 1_555 1_555
H15 C7 1_555 1_555
H16 C7 1_555 1_555
C8 C7 1_555 1_555
H17 C8 1_555 1_555
H18 C8 1_555 1_555
C9 C8 1_555 1_555
H19 C9 1_555 1_555
H20 C9 1_555 1_555
C10 N2 1_555 1_555
H21 C10 1_555 1_555
H22 C10 1_555 1_555
Ag1 Cl1 1_555 1_555
Cl1 Ag1A 1_555 1_555
Cl2 Ag1 1_555 1_555
Cl1A Ag1 1_555 1_555
Cl2A Ag1 1_555 1_555
Ag1A Cl1A 1_555 1_555
Ag1A_2 Cl2 1_555 1_555
C4 C5 1_555 1_555
C9 C10 1_555 1_555
Cl2A Ag1A_2 1_555 1_555

#END
