
#######################################################################
#
#                 Cambridge Crystallographic Data Centre
#                                CCDC 
#
#######################################################################
#
# If this CIF has been generated from an entry in the Cambridge 
# Structural Database, then it will include bibliographic, chemical, 
# crystal, experimental, refinement or atomic coordinate data resulting 
# from the CCDC's data processing and validation procedures.
#
#######################################################################

data_DUJPEF
_symmetry_cell_setting           monoclinic
_symmetry_space_group_name_H-M   'P 21/c'
_symmetry_Int_Tables_number      14
_space_group_name_Hall           '-P 2ybc'
loop_
_symmetry_equiv_pos_site_id
_symmetry_equiv_pos_as_xyz
1 x,y,z
2 -x,1/2+y,1/2-z
3 -x,-y,-z
4 x,1/2-y,1/2+z
_cell_length_a                   6.9719(2)
_cell_length_b                   13.4790(3)
_cell_length_c                   10.0899(2)
_cell_angle_alpha                90
_cell_angle_beta                 103.570(2)
_cell_angle_gamma                90
_cell_volume                     921.721
loop_
_atom_site_label
_atom_site_type_symbol
_atom_site_fract_x
_atom_site_fract_y
_atom_site_fract_z
Sc1 Sc 0.09891(6) 0.03576(3) 0.37857(4)
N1 N 0.1344(3) 0.21825(14) 0.35903(18)
C1 C 0.0379(3) 0.28468(17) 0.2689(2)
H1 H -0.0457 0.2601 0.1900
N2 N 0.0511(3) 0.38309(14) 0.28227(18)
C2 C 0.1699(3) 0.41732(16) 0.3977(2)
C3 C 0.2758(3) 0.35515(17) 0.4962(2)
H2 H 0.3576 0.3798 0.5758
C4 C 0.2553(3) 0.25472(17) 0.4718(2)
C5 C 0.3665(4) 0.17923(18) 0.5722(2)
O1 O 0.3421(2) 0.08881(11) 0.53422(16)
O2 O 0.4674(3) 0.20871(14) 0.68011(18)
C6 C 0.1755(3) 0.52838(17) 0.4134(2)
O3 O 0.0793(3) 0.57748(12) 0.31343(17)
O4 O 0.2695(3) 0.56425(12) 0.52212(17)
O5 O -0.1008(2) 0.07697(11) 0.48600(16)
O6 O 0.3431(2) 0.00135(12) 0.28793(16)
H3 H -0.1710 0.1290 0.4798
H4 H 0.3387 -0.0239 0.2092
H5 H 0.4448 -0.0259 0.3390
Sc1A Sc -0.09891(6) 0.53576(3) 0.12143(4)
Sc1B Sc -0.09891(6) -0.03576(3) 0.62143(4)
O3A O -0.0793(3) 0.07748(12) 0.18657(17)
O5B O 0.1008(2) -0.07697(11) 0.51400(16)
O7 O 0.6763(3) 0.23520(13) 0.42813(19)
H6 H 0.6066 0.2464 0.3480
H7 H 0.6931 0.2947 0.4639
loop_
_geom_bond_atom_site_label_1
_geom_bond_atom_site_label_2
_geom_bond_site_symmetry_1
_geom_bond_site_symmetry_2
Sc1 N1 1_555 1_555
N1 C1 1_555 1_555
C1 H1 1_555 1_555
N2 C1 1_555 1_555
C2 N2 1_555 1_555
C3 C2 1_555 1_555
H2 C3 1_555 1_555
C4 N1 1_555 1_555
C5 C4 1_555 1_555
O1 Sc1 1_555 1_555
O2 C5 1_555 1_555
C6 C2 1_555 1_555
O3 C6 1_555 1_555
O4 C6 1_555 1_555
O5 Sc1 1_555 1_555
O6 Sc1 1_555 1_555
H3 O5 1_555 1_555
H4 O6 1_555 1_555
H5 O6 1_555 1_555
O7 H6 1_555 1_555
H7 O7 1_555 1_555
Sc1A O3 1_555 1_555
Sc1B O5 1_555 1_555
O3A Sc1 1_555 1_555
O5B Sc1 1_555 1_555
C3 C4 1_555 1_555
C5 O1 1_555 1_555
Sc1B O5B 1_555 1_555

#END
