
#######################################################################
#
#                 Cambridge Crystallographic Data Centre
#                                CCDC 
#
#######################################################################
#
# If this CIF has been generated from an entry in the Cambridge 
# Structural Database, then it will include bibliographic, chemical, 
# crystal, experimental, refinement or atomic coordinate data resulting 
# from the CCDC's data processing and validation procedures.
#
#######################################################################

data_DUJPON
_symmetry_cell_setting           monoclinic
_symmetry_space_group_name_H-M   'P 21/c'
_symmetry_Int_Tables_number      14
_space_group_name_Hall           '-P 2ybc'
loop_
_symmetry_equiv_pos_site_id
_symmetry_equiv_pos_as_xyz
1 x,y,z
2 -x,1/2+y,1/2-z
3 -x,-y,-z
4 x,1/2-y,1/2+z
_cell_length_a                   9.961(2)
_cell_length_b                   5.306(1)
_cell_length_c                   22.621(4)
_cell_angle_alpha                90
_cell_angle_beta                 96.81(2)
_cell_angle_gamma                90
_cell_volume                     1187.15
loop_
_atom_site_label
_atom_site_type_symbol
_atom_site_fract_x
_atom_site_fract_y
_atom_site_fract_z
Cu1 Cu 0.06008(9) 0.34315(17) 0.05606(4)
O1 O 0.5109(6) 0.5646(11) 0.2110(2)
O2 O 0.6705(5) 0.2759(11) 0.1984(2)
N1 N 0.2471(6) 0.2180(11) 0.0808(3)
C1 C 0.3316(7) 0.3269(16) 0.1239(3)
C2 C 0.4634(7) 0.2422(14) 0.1390(3)
C3 C 0.5061(8) 0.0367(15) 0.1095(3)
C4 C 0.4202(8) -0.0770(15) 0.0646(3)
C5 C 0.2904(8) 0.0208(16) 0.0513(3)
C6 C 0.5490(9) 0.3807(17) 0.1866(3)
C7 C 0.7590(9) 0.3808(18) 0.2478(4)
C8 C 0.8309(12) 0.5993(22) 0.2304(5)
N2 N -0.1151(6) 0.4750(12) 0.0168(2)
N3 N -0.2182(8) 0.5005(12) 0.0390(3)
N4 N -0.3177(7) 0.5236(16) 0.0592(3)
N5 N 0.0736(7) 0.6723(14) 0.1205(3)
N6 N 0.0242(6) 0.8647(11) 0.1064(2)
N7 N -0.0288(7) 1.0599(14) 0.0921(4)
H1 H 0.2999 0.4674 0.1451
H2 H 0.5956 -0.0289 0.1201
H3 H 0.4492 -0.2194 0.0432
H4 H 0.2300 -0.0549 0.0201
H5 H 0.7063 0.4291 0.2788
H6 H 0.8237 0.2551 0.2626
H7 H 0.8849 0.5140 0.2029
H8 H 0.8896 0.6498 0.2662
H9 H 0.7881 0.7491 0.2110
N2B N 0.1151(6) 0.5250(12) -0.0168(2)
Cu1B Cu -0.06008(9) 0.65685(17) -0.05606(4)
N7_2 N -0.0288(7) 0.0599(14) 0.0921(4)
Cu1_2 Cu 0.06008(9) 1.34315(17) 0.05606(4)
loop_
_geom_bond_atom_site_label_1
_geom_bond_atom_site_label_2
_geom_bond_site_symmetry_1
_geom_bond_site_symmetry_2
Cu1 N1 1_555 1_555
O1 C6 1_555 1_555
O2 C6 1_555 1_555
N1 C1 1_555 1_555
C1 C2 1_555 1_555
C2 C3 1_555 1_555
C3 C4 1_555 1_555
C4 C5 1_555 1_555
C5 N1 1_555 1_555
C6 C2 1_555 1_555
C7 O2 1_555 1_555
C8 C7 1_555 1_555
N2 Cu1 1_555 1_555
N3 N2 1_555 1_555
N4 N3 1_555 1_555
N5 Cu1 1_555 1_555
N6 N5 1_555 1_555
N7 N6 1_555 1_555
H1 C1 1_555 1_555
H2 C3 1_555 1_555
H3 C4 1_555 1_555
H4 C5 1_555 1_555
H5 C7 1_555 1_555
H6 C7 1_555 1_555
H7 C8 1_555 1_555
H8 C8 1_555 1_555
H9 C8 1_555 1_555
N2B Cu1 1_555 1_555
Cu1B N2 1_555 1_555
N7_2 Cu1 1_555 1_555
Cu1_2 N7 1_555 1_555
N2B Cu1B 1_555 1_555

#END
