
#######################################################################
#
#                 Cambridge Crystallographic Data Centre
#                                CCDC 
#
#######################################################################
#
# If this CIF has been generated from an entry in the Cambridge 
# Structural Database, then it will include bibliographic, chemical, 
# crystal, experimental, refinement or atomic coordinate data resulting 
# from the CCDC's data processing and validation procedures.
#
#######################################################################

data_DUJQEG
_symmetry_cell_setting           triclinic
_symmetry_space_group_name_H-M   'P -1'
_symmetry_Int_Tables_number      2
_space_group_name_Hall           '-P 1'
loop_
_symmetry_equiv_pos_site_id
_symmetry_equiv_pos_as_xyz
1 x,y,z
2 -x,-y,-z
_cell_length_a                   10.4402(9)
_cell_length_b                   11.6067(10)
_cell_length_c                   12.9663(11)
_cell_angle_alpha                65.2140(10)
_cell_angle_beta                 79.6010(10)
_cell_angle_gamma                83.4400(10)
_cell_volume                     1401.73
loop_
_atom_site_label
_atom_site_type_symbol
_atom_site_fract_x
_atom_site_fract_y
_atom_site_fract_z
Co1 Co 0.53348(4) 0.28502(3) 0.61939(3)
O1 O 0.5407(2) 0.39554(18) 0.44921(17)
O2 O 0.57622(19) 0.59382(17) 0.31986(17)
O3 O 0.4287(2) 0.08642(19) 0.3235(2)
O4 O 0.5155(3) 0.0939(2) 0.1513(2)
O5 O 0.6550(2) 0.14320(18) 0.58793(19)
H1 H 0.629(3) 0.0672(19) 0.619(3)
H2 H 0.731(2) 0.139(3) 0.605(3)
O6 O 0.5201(2) 0.15266(19) 0.79675(18)
H3 H 0.463(3) 0.167(3) 0.846(2)
H4 H 0.510(3) 0.0761(19) 0.807(3)
O7 O -0.0852(2) 0.0897(2) 0.6297(2)
O8 O 0.0947(2) -0.5466(2) 0.7511(2)
N1 N 0.3573(2) 0.1960(2) 0.6241(2)
N2 N -0.0043(2) -0.1124(2) 0.7084(2)
N3 N -0.2945(2) -0.6359(2) 0.6352(2)
N4 N 0.0050(2) -0.3470(2) 0.6887(2)
C1 C 0.2480(3) 0.2126(3) 0.6901(3)
H5 H 0.2485 0.2683 0.7267
C2 C 0.1350(3) 0.1520(3) 0.7065(3)
H6 H 0.0586 0.1683 0.7515
C3 C 0.1337(3) 0.0672(3) 0.6570(3)
C4 C 0.2462(3) 0.0484(3) 0.5902(3)
H7 H 0.2490 -0.0091 0.5549
C5 C 0.3550(3) 0.1149(3) 0.5758(2)
H8 H 0.4317 0.1021 0.5291
C6 C 0.0057(3) 0.0130(3) 0.6657(3)
C7 C -0.1250(3) -0.1680(3) 0.7131(3)
H9 H -0.1900 -0.0994 0.6789
H10 H -0.1610 -0.2183 0.7942
C8 C 0.0948(3) -0.2100(3) 0.7590(3)
H11 H 0.0630 -0.2610 0.8410
H12 H 0.1753 -0.1694 0.7544
C9 C 0.1241(3) -0.2955(3) 0.6951(3)
H13 H 0.1682 -0.2466 0.6163
H14 H 0.1843 -0.3665 0.7345
C10 C -0.1003(3) -0.2526(3) 0.6486(3)
H15 H -0.1809 -0.2964 0.6596
H16 H -0.0772 -0.2000 0.5655
C11 C 0.0054(3) -0.4709(3) 0.7104(3)
C12 C -0.2423(3) -0.5280(3) 0.5570(3)
H17 H -0.2711 -0.4907 0.4840
C13 C -0.1488(3) -0.4678(3) 0.5768(3)
H18 H -0.1153 -0.3907 0.5187
C14 C -0.1042(3) -0.5208(3) 0.6819(3)
C15 C -0.1556(3) -0.6346(3) 0.7625(3)
H19 H -0.1265 -0.6751 0.8353
C16 C -0.2493(3) -0.6883(3) 0.7362(3)
H20 H -0.2835 -0.7663 0.7923
C17 C 0.5730(3) 0.4325(2) 0.2547(2)
C18 C 0.5312(3) 0.3133(3) 0.2802(3)
H21 H 0.4926 0.2627 0.3561
C19 C 0.5454(3) 0.2671(3) 0.1959(3)
C20 C 0.6059(3) 0.3405(3) 0.0858(3)
H22 H 0.6183 0.3079 0.0285
C21 C 0.6485(3) 0.4604(3) 0.0583(3)
C22 C 0.6289(3) 0.5066(3) 0.1434(3)
H23 H 0.6542 0.5898 0.1252
C23 C 0.5621(3) 0.4775(3) 0.3487(2)
C24 C 0.4924(3) 0.1392(3) 0.2265(3)
C25 C 0.7158(4) 0.5383(3) -0.0599(3)
H24 H 0.7377 0.6198 -0.0634
H25 H 0.6579 0.5533 -0.1164
H26 H 0.7958 0.4925 -0.0772
Co1_2 Co -0.46652(4) -0.71498(3) 0.61939(3)
Co1A Co 0.46652(4) 0.71498(3) 0.38061(3)
O2A O 0.42378(19) 0.40618(17) 0.68014(17)
N3_2 N 0.7055(2) 0.3641(2) 0.6352(2)
O9 O 0.3455(3) 0.1448(2) -0.0078(2)
H27 H 0.386(4) 0.144(4) 0.044(3)
H28 H 0.308(4) 0.077(3) 0.013(3)
O10 O 0.2661(4) -0.0814(3) 0.0002(3)
H29 H 0.320(3) -0.089(5) -0.058(3)
H30 H 0.184(2) -0.094(5) -0.015(4)
O11 O 0.0000 0.0000 0.0000
O12 O 0.0935(3) 0.2493(4) -0.0266(3)
H31 H 0.097(2) 0.310(3) -0.094(2)
H32 H 0.1708 0.2226 -0.0169
loop_
_geom_bond_atom_site_label_1
_geom_bond_atom_site_label_2
_geom_bond_site_symmetry_1
_geom_bond_site_symmetry_2
Co1 O1 1_555 1_555
O1 C23 1_555 1_555
O2 C23 1_555 1_555
O3 C24 1_555 1_555
O4 C24 1_555 1_555
O5 Co1 1_555 1_555
H1 O5 1_555 1_555
H2 O5 1_555 1_555
O6 Co1 1_555 1_555
H3 O6 1_555 1_555
H4 O6 1_555 1_555
O7 C6 1_555 1_555
O8 C11 1_555 1_555
N1 Co1 1_555 1_555
N2 C6 1_555 1_555
N3 C12 1_555 1_555
N4 C9 1_555 1_555
C1 N1 1_555 1_555
H5 C1 1_555 1_555
C2 C1 1_555 1_555
H6 C2 1_555 1_555
C3 C2 1_555 1_555
C4 C3 1_555 1_555
H7 C4 1_555 1_555
C5 N1 1_555 1_555
H8 C5 1_555 1_555
C6 C3 1_555 1_555
C7 N2 1_555 1_555
H9 C7 1_555 1_555
H10 C7 1_555 1_555
C8 N2 1_555 1_555
H11 C8 1_555 1_555
H12 C8 1_555 1_555
C9 C8 1_555 1_555
H13 C9 1_555 1_555
H14 C9 1_555 1_555
C10 N4 1_555 1_555
H15 C10 1_555 1_555
H16 C10 1_555 1_555
C11 N4 1_555 1_555
C12 H17 1_555 1_555
C13 C12 1_555 1_555
H18 C13 1_555 1_555
C14 C11 1_555 1_555
C15 C14 1_555 1_555
H19 C15 1_555 1_555
C16 N3 1_555 1_555
H20 C16 1_555 1_555
C17 C18 1_555 1_555
C18 H21 1_555 1_555
C19 C18 1_555 1_555
C20 C19 1_555 1_555
H22 C20 1_555 1_555
C21 C20 1_555 1_555
C22 C17 1_555 1_555
H23 C22 1_555 1_555
C23 C17 1_555 1_555
C24 C19 1_555 1_555
C25 C21 1_555 1_555
H24 C25 1_555 1_555
H25 C25 1_555 1_555
H26 C25 1_555 1_555
O9 H27 1_555 1_555
H28 O9 1_555 1_555
O10 H29 1_555 1_555
H30 O10 1_555 1_555
O12 H31 1_555 1_555
H32 O12 1_555 1_555
Co1_2 N3 1_555 1_555
Co1A O2 1_555 1_555
O2A Co1 1_555 1_555
N3_2 Co1 1_555 1_555
C4 C5 1_555 1_555
C7 C10 1_555 1_555
C13 C14 1_555 1_555
C15 C16 1_555 1_555
C21 C22 1_555 1_555

#END
