
#######################################################################
#
#                 Cambridge Crystallographic Data Centre
#                                CCDC 
#
#######################################################################
#
# If this CIF has been generated from an entry in the Cambridge 
# Structural Database, then it will include bibliographic, chemical, 
# crystal, experimental, refinement or atomic coordinate data resulting 
# from the CCDC's data processing and validation procedures.
#
#######################################################################

data_DUJQAC
_symmetry_cell_setting           triclinic
_symmetry_space_group_name_H-M   'P -1'
_symmetry_Int_Tables_number      2
_space_group_name_Hall           '-P 1'
loop_
_symmetry_equiv_pos_site_id
_symmetry_equiv_pos_as_xyz
1 x,y,z
2 -x,-y,-z
_cell_length_a                   9.719(6)
_cell_length_b                   10.105(6)
_cell_length_c                   14.317(8)
_cell_angle_alpha                99.882(7)
_cell_angle_beta                 96.803(7)
_cell_angle_gamma                107.499(7)
_cell_volume                     1299.29
loop_
_atom_site_label
_atom_site_type_symbol
_atom_site_fract_x
_atom_site_fract_y
_atom_site_fract_z
Co1 Co 0.11914(8) 0.86730(7) 0.45838(5)
O1 O 0.5715(6) 0.9956(4) 0.9078(3)
O2 O 0.7604(5) 1.7279(4) 0.9742(3)
O3 O 0.5753(4) 1.4557(4) 0.3149(3)
O4 O 0.0989(4) 1.6466(4) 0.4530(3)
O5 O 0.0720(4) 1.1603(4) 0.4950(3)
O6 O 0.2980(4) 1.7848(3) 0.4173(3)
O7 O 0.2233(4) 1.0605(3) 0.4300(3)
N1 N 0.7579(6) 1.5050(5) 0.9750(3)
N2 N 0.5719(5) 1.2225(5) 0.9208(3)
N3 N 1.0045(5) 1.8046(4) 1.3127(3)
N4 N 0.2447(5) 0.9417(4) 0.6015(3)
C1 C 0.5337(7) 1.3328(6) 0.8812(4)
H1 H 0.4735 1.3721 0.9219
H2 H 0.4750 1.2914 0.8155
C2 C 0.6708(8) 1.4501(6) 0.8775(4)
H3 H 0.7281 1.4130 0.8332
H4 H 0.6446 1.5272 0.8535
C3 C 0.2823(7) 0.9697(6) 0.7719(4)
H5 H 0.2421 0.9548 0.8281
C4 C 0.6633(7) 1.2762(6) 1.0174(4)
H6 H 0.6919 1.1985 1.0387
H7 H 0.6063 1.3095 1.0637
C5 C 0.7924(7) 1.6432(6) 1.0182(4)
C6 C 0.7988(7) 1.3969(6) 1.0165(4)
H8 H 0.8537 1.4394 1.0832
H9 H 0.8632 1.3607 0.9781
C7 C 0.4831(7) 1.0599(6) 0.6958(4)
H10 H 0.5844 1.1073 0.6984
C8 C 0.6325(7) 1.3396(6) 0.3004(5)
H11 H 0.7186 1.3655 0.2695
H12 H 0.5571 1.2553 0.2591
H13 H 0.6608 1.3186 0.3628
C9 C 0.5302(7) 1.0839(6) 0.8747(4)
C10 C 0.4287(6) 1.0395(5) 0.7787(4)
C11 C 0.8056(6) 1.6396(6) 1.1949(4)
H14 H 0.7153 1.5633 1.1808
C12 C 0.3872(6) 1.0098(6) 0.6095(4)
H15 H 0.4246 1.0245 0.5524
C13 C 0.9966(6) 1.8085(5) 1.1458(4)
H16 H 1.0395 1.8512 1.0975
C14 C 0.4051(6) 1.5535(5) 0.3751(4)
H17 H 0.4573 1.6407 0.3600
C15 C 0.1932(6) 0.9209(6) 0.6809(4)
H18 H 0.0919 0.8709 0.6759
C16 C 0.8658(6) 1.6927(5) 1.1214(4)
C17 C 1.0617(6) 1.8591(5) 1.2422(4)
H19 H 1.1513 1.9362 1.2587
C18 C 0.2565(6) 1.2999(5) 0.4251(4)
C19 C 0.2055(6) 1.4161(5) 0.4413(4)
H20 H 0.1212 1.4098 0.4701
C20 C 0.3804(6) 1.3108(5) 0.3833(4)
H21 H 0.4147 1.2318 0.3724
C21 C 0.8761(6) 1.6972(5) 1.2886(4)
H22 H 0.8325 1.6596 1.3385
C22 C 0.2795(6) 1.5410(5) 0.4147(4)
C23 C 0.4546(6) 1.4357(5) 0.3574(4)
C24 C 0.2222(6) 1.6663(5) 0.4298(4)
C25 C 0.1787(6) 1.1661(5) 0.4533(4)
Co1_2 Co 0.11914(8) 1.86730(7) 0.45838(5)
Co1_3 Co 1.11914(8) 1.86730(7) 1.45838(5)
Co1A Co -0.11914(8) 1.13270(7) 0.54162(5)
O4_2 O 0.0989(4) 0.6466(4) 0.4530(3)
O5A O -0.0720(4) 0.8397(4) 0.5050(3)
O6_2 O 0.2980(4) 0.7848(3) 0.4173(3)
N3_2 N 0.0045(5) 0.8046(4) 0.3127(3)
O8 O 0.8335(5) 1.0175(4) 1.0141(3)
H23 H 0.752(4) 1.012(6) 0.980(4)
H24 H 0.844(6) 0.942(4) 1.025(5)
O9 O 0.9439(6) 1.8139(6) 0.8286(4)
H25 H 0.859(4) 1.794(8) 0.848(5)
H26 H 0.991(7) 1.765(8) 0.854(5)
O10 O 0.9873(7) 1.4347(6) 1.2309(4)
H27 H 0.991(10) 1.452(8) 1.2923(18)
H28 H 1.024(9) 1.367(7) 1.218(5)
loop_
_geom_bond_atom_site_label_1
_geom_bond_atom_site_label_2
_geom_bond_site_symmetry_1
_geom_bond_site_symmetry_2
Co1 O7 1_555 1_555
O1 C9 1_555 1_555
O2 C5 1_555 1_555
O3 C8 1_555 1_555
O4 C24 1_555 1_555
O5 C25 1_555 1_555
O6 C24 1_555 1_555
O7 C25 1_555 1_555
N1 C2 1_555 1_555
N2 C1 1_555 1_555
N3 C17 1_555 1_555
N4 Co1 1_555 1_555
C1 H1 1_555 1_555
H2 C1 1_555 1_555
C2 C1 1_555 1_555
H3 C2 1_555 1_555
H4 C2 1_555 1_555
C3 H5 1_555 1_555
C4 N2 1_555 1_555
H6 C4 1_555 1_555
H7 C4 1_555 1_555
C5 N1 1_555 1_555
C6 N1 1_555 1_555
H8 C6 1_555 1_555
H9 C6 1_555 1_555
C7 H10 1_555 1_555
C8 H11 1_555 1_555
H12 C8 1_555 1_555
H13 C8 1_555 1_555
C9 N2 1_555 1_555
C10 C3 1_555 1_555
C11 H14 1_555 1_555
C12 N4 1_555 1_555
H15 C12 1_555 1_555
C13 H16 1_555 1_555
C14 H17 1_555 1_555
C15 N4 1_555 1_555
H18 C15 1_555 1_555
C16 C5 1_555 1_555
C17 C13 1_555 1_555
H19 C17 1_555 1_555
C18 C19 1_555 1_555
C19 H20 1_555 1_555
C20 C18 1_555 1_555
H21 C20 1_555 1_555
C21 N3 1_555 1_555
H22 C21 1_555 1_555
C22 C14 1_555 1_555
C23 O3 1_555 1_555
C24 C22 1_555 1_555
C25 C18 1_555 1_555
O8 H23 1_555 1_555
H24 O8 1_555 1_555
O9 H25 1_555 1_555
H26 O9 1_555 1_555
O10 H27 1_555 1_555
H28 O10 1_555 1_555
Co1_2 O4 1_555 1_555
Co1_3 N3 1_555 1_555
Co1A O5 1_555 1_555
O4_2 Co1 1_555 1_555
O5A Co1 1_555 1_555
O6_2 Co1 1_555 1_555
N3_2 Co1 1_555 1_555
O6 Co1_2 1_555 1_555
C3 C15 1_555 1_555
C4 C6 1_555 1_555
C7 C10 1_555 1_555
C7 C12 1_555 1_555
C9 C10 1_555 1_555
C11 C16 1_555 1_555
C11 C21 1_555 1_555
C13 C16 1_555 1_555
C14 C23 1_555 1_555
C19 C22 1_555 1_555
C20 C23 1_555 1_555

#END
