
#######################################################################
#
#                 Cambridge Crystallographic Data Centre
#                                CCDC 
#
#######################################################################
#
# If this CIF has been generated from an entry in the Cambridge 
# Structural Database, then it will include bibliographic, chemical, 
# crystal, experimental, refinement or atomic coordinate data resulting 
# from the CCDC's data processing and validation procedures.
#
#######################################################################

data_DUJQIK
_symmetry_cell_setting           monoclinic
_symmetry_space_group_name_H-M   'P 21/c'
_symmetry_Int_Tables_number      14
_space_group_name_Hall           '-P 2ybc'
loop_
_symmetry_equiv_pos_site_id
_symmetry_equiv_pos_as_xyz
1 x,y,z
2 -x,1/2+y,1/2-z
3 -x,-y,-z
4 x,1/2-y,1/2+z
_cell_length_a                   11.7119(12)
_cell_length_b                   22.872(2)
_cell_length_c                   9.6529(10)
_cell_angle_alpha                90
_cell_angle_beta                 98.8720(10)
_cell_angle_gamma                90
_cell_volume                     2554.83
loop_
_atom_site_label
_atom_site_type_symbol
_atom_site_fract_x
_atom_site_fract_y
_atom_site_fract_z
Ni1 Ni 0.0000 0.5000 0.5000
O1 O -0.09325(14) 0.62982(6) 0.39519(15)
O2 O -0.15842(12) 0.51797(6) 0.37510(14)
H1 H -0.1680 0.4960 0.2981
H2 H -0.1619 0.5553 0.3489
O3 O 0.26229(14) 0.67973(6) 0.93564(16)
H3 H 0.3071 0.6819 1.0123
O4 O 0.22808(13) 0.54100(7) -0.12323(14)
O5 O 0.27448(13) 0.77727(6) 0.94996(15)
O6 O 0.02334(12) 0.58357(6) 0.56267(13)
N1 N 0.40325(16) 0.53529(8) 0.01392(17)
N2 N 0.09226(15) 0.51423(7) 0.33186(17)
C1 C 0.4653(2) 0.54357(11) -0.1052(2)
H4 H 0.5253 0.5740 -0.0823
H5 H 0.4108 0.5569 -0.1879
C2 C 0.13461(19) 0.48752(9) 0.1058(2)
H6 H 0.1164 0.4641 0.0240
C3 C 0.23334(18) 0.73213(9) 0.8910(2)
C4 C 0.17900(18) 0.55310(9) 0.3417(2)
H7 H 0.1947 0.5762 0.4242
C5 C 0.02612(19) 0.79184(9) 0.5865(2)
C6 C -0.0145(2) 0.85080(9) 0.5273(2)
H8 H 0.0487 0.8703 0.4897
H9 H -0.0384 0.8749 0.6017
H10 H -0.0801 0.8454 0.4521
C7 C 0.07127(19) 0.48236(9) 0.2145(2)
H11 H 0.0098 0.4548 0.2055
C8 C 0.02276(18) 0.68583(9) 0.5754(2)
C9 C 0.14651(18) 0.73440(9) 0.7619(2)
C10 C 0.10466(18) 0.68317(9) 0.6954(2)
H12 H 0.1321 0.6463 0.7320
C11 C -0.01993(17) 0.62952(9) 0.5051(2)
C12 C 0.24648(18) 0.56118(9) 0.2380(2)
H13 H 0.3066 0.5895 0.2488
C13 C -0.01594(18) 0.74018(9) 0.5216(2)
H14 H -0.0720 0.7419 0.4393
C14 C 0.22494(18) 0.52716(9) 0.1172(2)
C15 C 0.10705(19) 0.78812(9) 0.7073(2)
H15 H 0.1360 0.8230 0.7534
C16 C 0.28685(19) 0.53455(9) -0.0069(2)
C17 C 0.4784(2) 0.51346(10) 0.1395(2)
H16 H 0.4322 0.5070 0.2158
H17 H 0.5388 0.5428 0.1719
O4B O 0.77192(13) 0.45900(7) 0.12323(14)
N1B N 0.59675(16) 0.46471(8) -0.01392(17)
N2B N 0.90774(15) 0.48577(7) -0.33186(17)
C1B C 0.5347(2) 0.45643(11) 0.1052(2)
H4B H 0.4747 0.4260 0.0823
H5B H 0.5892 0.4431 0.1879
C2B C 0.86539(19) 0.51248(9) -0.1058(2)
H6B H 0.8836 0.5359 -0.0240
C4B C 0.82100(18) 0.44690(9) -0.3417(2)
H7B H 0.8053 0.4238 -0.4242
C7B C 0.92873(19) 0.51764(9) -0.2145(2)
H11B H 0.9902 0.5452 -0.2055
C12B C 0.75352(18) 0.43882(9) -0.2380(2)
H13B H 0.6934 0.4105 -0.2488
C14B C 0.77506(18) 0.47284(9) -0.1172(2)
C16B C 0.71315(19) 0.46545(9) 0.0069(2)
C17B C 0.5216(2) 0.48654(10) -0.1395(2)
H16B H 0.5678 0.4930 -0.2158
H17B H 0.4612 0.4572 -0.1719
O1B O 0.09325(14) 0.37018(6) 0.60481(15)
O2B O 0.15842(12) 0.48203(6) 0.62490(14)
H1B H 0.1680 0.5040 0.7019
H2B H 0.1619 0.4447 0.6511
O3B O -0.26229(14) 0.32027(6) 0.06436(16)
H3B H -0.3071 0.3181 -0.0123
O5B O -0.27448(13) 0.22273(6) 0.05004(15)
O6B O -0.02334(12) 0.41643(6) 0.43733(13)
C3B C -0.23334(18) 0.26787(9) 0.1090(2)
C5B C -0.02612(19) 0.20816(9) 0.4135(2)
C6B C 0.0145(2) 0.14920(9) 0.4727(2)
H8B H -0.0487 0.1297 0.5103
H9B H 0.0384 0.1251 0.3983
H10B H 0.0801 0.1546 0.5479
C8B C -0.02276(18) 0.31417(9) 0.4246(2)
C9B C -0.14651(18) 0.26560(9) 0.2381(2)
C10B C -0.10466(18) 0.31683(9) 0.3046(2)
H12B H -0.1321 0.3537 0.2680
C11B C 0.01993(17) 0.37048(9) 0.4949(2)
C13B C 0.01594(18) 0.25982(9) 0.4784(2)
H14B H 0.0720 0.2581 0.5607
C15B C -0.10705(19) 0.21188(9) 0.2927(2)
H15B H -0.1360 0.1770 0.2466
Ni1_2 Ni 1.0000 0.5000 -0.5000
N2B_2 N -0.09226(15) 0.48577(7) 0.66814(17)
O7 O 0.21122(14) 0.20636(7) 0.25943(15)
H18 H 0.1791 0.1765 0.2206
O8 O 0.30184(15) 0.14077(7) 0.41059(18)
O9 O 0.58296(14) 0.22590(6) 0.80980(15)
H19 H 0.6272 0.2271 0.8870
O10 O 0.59203(13) 0.32326(7) 0.83442(15)
C18 C 0.3366(2) 0.40868(10) 0.4056(3)
H20 H 0.2745 0.4259 0.4497
H21 H 0.3118 0.4061 0.3041
H22 H 0.4057 0.4333 0.4250
C19 C 0.46923(18) 0.28415(9) 0.6387(2)
C20 C 0.44223(19) 0.33986(9) 0.5860(2)
H23 H 0.4781 0.3729 0.6341
C21 C 0.41759(18) 0.23532(10) 0.5699(2)
H24 H 0.4366 0.1972 0.6051
C22 C 0.33785(18) 0.24300(9) 0.4491(2)
C23 C 0.55362(19) 0.27888(10) 0.7694(2)
C24 C 0.28278(19) 0.19077(10) 0.3728(2)
C25 C 0.3641(2) 0.34809(10) 0.4645(2)
C26 C 0.31151(19) 0.29912(10) 0.3979(2)
H25 H 0.2563 0.3040 0.3157
loop_
_geom_bond_atom_site_label_1
_geom_bond_atom_site_label_2
_geom_bond_site_symmetry_1
_geom_bond_site_symmetry_2
Ni1 O2 1_555 1_555
O1 C11 1_555 1_555
O2 H1 1_555 1_555
H2 O2 1_555 1_555
O3 H3 1_555 1_555
O4 C16 1_555 1_555
O5 C3 1_555 1_555
O6 Ni1 1_555 1_555
N1 C1 1_555 1_555
N2 Ni1 1_555 1_555
C1 H4 1_555 1_555
H5 C1 1_555 1_555
C2 H6 1_555 1_555
C3 O3 1_555 1_555
C4 N2 1_555 1_555
H7 C4 1_555 1_555
C5 C6 1_555 1_555
C6 H8 1_555 1_555
H9 C6 1_555 1_555
H10 C6 1_555 1_555
C7 N2 1_555 1_555
H11 C7 1_555 1_555
C8 C10 1_555 1_555
C9 C3 1_555 1_555
C10 C9 1_555 1_555
H12 C10 1_555 1_555
C11 O6 1_555 1_555
C12 C4 1_555 1_555
H13 C12 1_555 1_555
C13 C5 1_555 1_555
H14 C13 1_555 1_555
C14 C2 1_555 1_555
C15 C5 1_555 1_555
H15 C15 1_555 1_555
C16 N1 1_555 1_555
C17 N1 1_555 1_555
H16 C17 1_555 1_555
H17 C17 1_555 1_555
O7 H18 1_555 1_555
O8 C24 1_555 1_555
O9 H19 1_555 1_555
O10 C23 1_555 1_555
C18 H20 1_555 1_555
H21 C18 1_555 1_555
H22 C18 1_555 1_555
C19 C20 1_555 1_555
C20 H23 1_555 1_555
C21 C19 1_555 1_555
H24 C21 1_555 1_555
C22 C21 1_555 1_555
C23 O9 1_555 1_555
C24 O7 1_555 1_555
C25 C18 1_555 1_555
C26 C22 1_555 1_555
H25 C26 1_555 1_555
O4B C16B 1_555 1_555
N1B C1B 1_555 1_555
N2B C4B 1_555 1_555
C1B C17 1_555 1_555
H4B C1B 1_555 1_555
H5B C1B 1_555 1_555
C2B H6B 1_555 1_555
C4B H7B 1_555 1_555
C7B N2B 1_555 1_555
H11B C7B 1_555 1_555
C12B C4B 1_555 1_555
H13B C12B 1_555 1_555
C14B C2B 1_555 1_555
C16B N1B 1_555 1_555
C17B C1 1_555 1_555
H16B C17B 1_555 1_555
H17B C17B 1_555 1_555
O1B C11B 1_555 1_555
O2B Ni1 1_555 1_555
H1B O2B 1_555 1_555
H2B O2B 1_555 1_555
O3B H3B 1_555 1_555
O5B C3B 1_555 1_555
O6B Ni1 1_555 1_555
C3B O3B 1_555 1_555
C5B C6B 1_555 1_555
C6B H8B 1_555 1_555
H9B C6B 1_555 1_555
H10B C6B 1_555 1_555
C8B C10B 1_555 1_555
C9B C3B 1_555 1_555
C10B C9B 1_555 1_555
H12B C10B 1_555 1_555
C11B O6B 1_555 1_555
C13B C5B 1_555 1_555
H14B C13B 1_555 1_555
C15B C5B 1_555 1_555
H15B C15B 1_555 1_555
Ni1_2 N2B 1_555 1_555
N2B_2 Ni1 1_555 1_555
C2 C7 1_555 1_555
C8 C11 1_555 1_555
C8 C13 1_555 1_555
C9 C15 1_555 1_555
C12 C14 1_555 1_555
C14 C16 1_555 1_555
C19 C23 1_555 1_555
C20 C25 1_555 1_555
C22 C24 1_555 1_555
C25 C26 1_555 1_555
N1B C17B 1_555 1_555
C2B C7B 1_555 1_555
C12B C14B 1_555 1_555
C14B C16B 1_555 1_555
C8B C11B 1_555 1_555
C8B C13B 1_555 1_555
C9B C15B 1_555 1_555

#END
