
#######################################################################
#
#                 Cambridge Crystallographic Data Centre
#                                CCDC 
#
#######################################################################
#
# If this CIF has been generated from an entry in the Cambridge 
# Structural Database, then it will include bibliographic, chemical, 
# crystal, experimental, refinement or atomic coordinate data resulting 
# from the CCDC's data processing and validation procedures.
#
#######################################################################

data_DUJRUX
_symmetry_cell_setting           monoclinic
_symmetry_space_group_name_H-M   'P 21/c'
_symmetry_Int_Tables_number      14
_space_group_name_Hall           '-P 2ybc'
loop_
_symmetry_equiv_pos_site_id
_symmetry_equiv_pos_as_xyz
1 x,y,z
2 -x,1/2+y,1/2-z
3 -x,-y,-z
4 x,1/2-y,1/2+z
_cell_length_a                   16.0601(12)
_cell_length_b                   8.5048(6)
_cell_length_c                   12.7168(10)
_cell_angle_alpha                90
_cell_angle_beta                 112.395(9)
_cell_angle_gamma                90
_cell_volume                     1605.96
loop_
_atom_site_label
_atom_site_type_symbol
_atom_site_fract_x
_atom_site_fract_y
_atom_site_fract_z
Mn1 Mn 0.11656(3) 0.76145(6) 0.21499(4)
O1 O 0.03987(16) 0.7293(3) 0.0659(2)
O2 O 0.20977(16) 0.6411(3) 0.1964(2)
N1 N 0.04340(19) 0.9318(3) 0.2347(2)
O3 O -0.07821(17) 1.0910(3) 0.1916(2)
N2 N 0.20674(19) 0.8423(4) 0.3586(2)
C1 C -0.0418(2) 0.7897(4) 0.0080(3)
C2 C -0.0797(2) 0.9123(4) 0.0493(3)
C3 C 0.0841(2) 1.0190(5) 0.3422(3)
H1 H 0.0395 1.0355 0.3755
H2 H 0.1046 1.1211 0.3278
C4 C -0.0365(2) 0.9827(4) 0.1641(3)
C5 C 0.3422(2) 0.7253(4) 0.3523(3)
C6 C -0.1637(2) 0.9720(5) -0.0217(3)
H3 H -0.1890 1.0543 0.0042
C7 C -0.2096(2) 0.9120(5) -0.1284(3)
H4 H -0.2641 0.9560 -0.1754
C8 C 0.2926(2) 0.8193(4) 0.4007(3)
H5 H 0.3253 0.8690 0.4692
C9 C -0.1741(3) 0.7856(5) -0.1655(3)
H6 H -0.2065 0.7403 -0.2358
C10 C -0.0912(3) 0.7267(4) -0.0989(3)
H7 H -0.0675 0.6430 -0.1256
C11 C 0.4394(3) 0.7142(5) 0.4089(3)
C12 C 0.3472(3) 0.5292(5) 0.2149(3)
H8 H 0.3172 0.4654 0.1525
C13 C 0.2970(2) 0.6365(5) 0.2541(3)
C14 C 0.1620(3) 0.9278(5) 0.4231(3)
H9 H 0.2044 0.9990 0.4767
H10 H 0.1409 0.8540 0.4655
C15 C 0.4373(3) 0.5188(5) 0.2669(4)
H11 H 0.4683 0.4493 0.2386
C16 C 0.4906(3) 0.7981(5) 0.5070(4)
H12 H 0.4613 0.8656 0.5392
C17 C 0.4861(3) 0.6107(5) 0.3636(4)
C18 C 0.6277(3) 0.6832(6) 0.5109(5)
H13 H 0.6901 0.6750 0.5437
C19 C 0.5827(3) 0.7838(6) 0.5573(4)
H14 H 0.6148 0.8415 0.6223
C20 C 0.5803(3) 0.5971(6) 0.4178(4)
H15 H 0.6108 0.5273 0.3888
Mn1A Mn -0.11656(3) 1.26145(6) 0.28501(4)
O3A O 0.07821(17) 0.5910(3) 0.3084(2)
loop_
_geom_bond_atom_site_label_1
_geom_bond_atom_site_label_2
_geom_bond_site_symmetry_1
_geom_bond_site_symmetry_2
Mn1 O1 1_555 1_555
O1 C1 1_555 1_555
O2 Mn1 1_555 1_555
N1 Mn1 1_555 1_555
O3 C4 1_555 1_555
N2 Mn1 1_555 1_555
C1 C2 1_555 1_555
C2 C4 1_555 1_555
C3 N1 1_555 1_555
H1 C3 1_555 1_555
H2 C3 1_555 1_555
C4 N1 1_555 1_555
C5 C8 1_555 1_555
C6 C2 1_555 1_555
H3 C6 1_555 1_555
C7 C6 1_555 1_555
H4 C7 1_555 1_555
C8 N2 1_555 1_555
H5 C8 1_555 1_555
C9 C7 1_555 1_555
H6 C9 1_555 1_555
C10 C1 1_555 1_555
H7 C10 1_555 1_555
C11 C5 1_555 1_555
C12 H8 1_555 1_555
C13 O2 1_555 1_555
C14 N2 1_555 1_555
H9 C14 1_555 1_555
H10 C14 1_555 1_555
C15 C12 1_555 1_555
H11 C15 1_555 1_555
C16 C11 1_555 1_555
H12 C16 1_555 1_555
C17 C11 1_555 1_555
C18 H13 1_555 1_555
C19 C16 1_555 1_555
H14 C19 1_555 1_555
C20 C17 1_555 1_555
H15 C20 1_555 1_555
Mn1A O3 1_555 1_555
O3A Mn1 1_555 1_555
C3 C14 1_555 1_555
C5 C13 1_555 1_555
C9 C10 1_555 1_555
C12 C13 1_555 1_555
C15 C17 1_555 1_555
C18 C19 1_555 1_555
C18 C20 1_555 1_555

#END
