
#######################################################################
#
#                 Cambridge Crystallographic Data Centre
#                                CCDC 
#
#######################################################################
#
# If this CIF has been generated from an entry in the Cambridge 
# Structural Database, then it will include bibliographic, chemical, 
# crystal, experimental, refinement or atomic coordinate data resulting 
# from the CCDC's data processing and validation procedures.
#
#######################################################################

data_DUJVOV
_symmetry_cell_setting           triclinic
_symmetry_space_group_name_H-M   'P -1'
_symmetry_Int_Tables_number      2
_space_group_name_Hall           '-P 1'
loop_
_symmetry_equiv_pos_site_id
_symmetry_equiv_pos_as_xyz
1 x,y,z
2 -x,-y,-z
_cell_length_a                   8.1559(11)
_cell_length_b                   11.6473(11)
_cell_length_c                   14.3976(16)
_cell_angle_alpha                110.607(2)
_cell_angle_beta                 101.531(2)
_cell_angle_gamma                93.7250(10)
_cell_volume                     1240.61
loop_
_atom_site_label
_atom_site_type_symbol
_atom_site_fract_x
_atom_site_fract_y
_atom_site_fract_z
Y1 Y 0.44534(7) 0.76787(5) 0.91820(4)
S1 S -0.00036(17) -0.00801(13) 0.29352(11)
S2 S 0.39467(18) -0.33672(12) 0.11780(10)
N1 N 0.2643(6) 0.5644(4) 0.8014(3)
N2 N 0.5462(5) 0.6464(4) 0.7595(3)
N3 N 0.2369(6) 0.1742(4) 0.5087(3)
H1 H 0.1445 0.1280 0.5008
N4 N 0.4834(6) 0.2343(4) 0.4843(3)
O1 O 0.0150(5) 0.1127(3) 0.2855(3)
O2 O -0.0421(5) -0.0034(4) 0.3884(3)
O3 O -0.1080(5) -0.1042(4) 0.2045(3)
O4 O 0.2848(5) -0.4340(3) 0.1255(3)
O5 O 0.3337(5) -0.3171(3) 0.0227(3)
O6 O 0.5716(5) -0.3519(3) 0.1347(3)
O7 O 0.2526(5) 0.8960(3) 0.9754(3)
O8 O 0.3755(4) 1.0796(3) 1.0928(3)
C1 C 0.1169(7) 0.5279(5) 0.8181(4)
H2 H 0.0818 0.5804 0.8737
C2 C 0.0155(7) 0.4179(5) 0.7579(4)
H3 H -0.0878 0.3988 0.7711
C3 C 0.0664(7) 0.3365(5) 0.6785(4)
H4 H 0.0000 0.2603 0.6386
C4 C 0.2191(7) 0.3686(5) 0.6577(4)
C5 C 0.2917(7) 0.2930(5) 0.5793(4)
C6 C 0.4421(7) 0.3277(5) 0.5623(4)
C7 C 0.5349(7) 0.4503(5) 0.6203(4)
C8 C 0.6836(7) 0.4991(5) 0.6023(4)
H5 H 0.7316 0.4503 0.5514
C9 C 0.7555(7) 0.6182(5) 0.6602(4)
H6 H 0.8515 0.6521 0.6480
C10 C 0.6849(7) 0.6889(5) 0.7378(4)
H7 H 0.7365 0.7700 0.7767
C11 C 0.4697(6) 0.5284(5) 0.7001(4)
C12 C 0.3144(6) 0.4867(5) 0.7209(4)
C13 C 0.3557(7) 0.1435(5) 0.4541(4)
C14 C 0.3511(7) 0.0223(4) 0.3721(4)
C15 C 0.2051(6) -0.0520(5) 0.2985(4)
C16 C 0.2213(6) -0.1600(5) 0.2220(4)
H8 H 0.1255 -0.2083 0.1732
C17 C 0.3801(7) -0.1976(5) 0.2172(4)
C18 C 0.5226(7) -0.1281(5) 0.2903(4)
H9 H 0.6280 -0.1537 0.2883
C19 C 0.5069(7) -0.0200(5) 0.3665(4)
H10 H 0.6033 0.0264 0.4157
C20 C 0.2450(7) 1.0045(5) 1.0335(4)
C21 C 0.0745(7) 1.0478(5) 1.0344(5)
H11 H 0.0603 1.0749 1.1038
H12 H 0.0739 1.1192 1.0145
O9 O 0.5857(5) 0.8959(4) 1.0884(3)
H13 H 0.549(7) 0.962(3) 1.116(4)
H14 H 0.679(4) 0.889(5) 1.124(4)
O10 O 0.6717(5) 0.6735(4) 0.9705(3)
H15 H 0.680(7) 0.605(3) 0.926(3)
H16 H 0.673(8) 0.671(5) 1.028(2)
O11 O 0.2847(6) 0.8111(4) 0.7845(3)
H17 H 0.198(5) 0.848(5) 0.791(5)
H18 H 0.278(8) 0.776(5) 0.7214(18)
O7A O -0.2526(5) 1.1040(3) 1.0246(3)
O8A O -0.3755(4) 0.9204(3) 0.9072(3)
C20A C -0.2450(7) 0.9955(5) 0.9665(4)
C21A C -0.0745(7) 0.9522(5) 0.9656(5)
H11A H -0.0603 0.9251 0.8962
H12A H -0.0739 0.8808 0.9855
Y1A Y -0.44534(7) 1.23213(5) 1.08180(4)
S1A S 0.00036(17) 2.00801(13) 1.70648(11)
S2A S -0.39467(18) 2.33672(12) 1.88220(10)
N1A N -0.2643(6) 1.4356(4) 1.1986(3)
N2A N -0.5462(5) 1.3536(4) 1.2405(3)
N3A N -0.2369(6) 1.8258(4) 1.4913(3)
H1A H -0.1445 1.8720 1.4992
N4A N -0.4834(6) 1.7657(4) 1.5157(3)
O1A O -0.0150(5) 1.8873(3) 1.7145(3)
O2A O 0.0421(5) 2.0034(4) 1.6116(3)
O3A O 0.1080(5) 2.1042(4) 1.7955(3)
O4A O -0.2848(5) 2.4340(3) 1.8745(3)
O5A O -0.3337(5) 2.3171(3) 1.9773(3)
O6A O -0.5716(5) 2.3519(3) 1.8653(3)
C1A C -0.1169(7) 1.4721(5) 1.1819(4)
H2A H -0.0818 1.4196 1.1263
C2A C -0.0155(7) 1.5821(5) 1.2421(4)
H3A H 0.0878 1.6012 1.2289
C3A C -0.0664(7) 1.6635(5) 1.3215(4)
H4A H 0.0000 1.7397 1.3614
C4A C -0.2191(7) 1.6314(5) 1.3423(4)
C5A C -0.2917(7) 1.7070(5) 1.4207(4)
C6A C -0.4421(7) 1.6723(5) 1.4377(4)
C7A C -0.5349(7) 1.5497(5) 1.3797(4)
C8A C -0.6836(7) 1.5009(5) 1.3977(4)
H5A H -0.7316 1.5497 1.4486
C9A C -0.7555(7) 1.3818(5) 1.3398(4)
H6A H -0.8515 1.3479 1.3520
C10A C -0.6849(7) 1.3111(5) 1.2622(4)
H7A H -0.7365 1.2300 1.2233
C11A C -0.4697(6) 1.4716(5) 1.2999(4)
C12A C -0.3144(6) 1.5133(5) 1.2791(4)
C13A C -0.3557(7) 1.8565(5) 1.5459(4)
C14A C -0.3511(7) 1.9777(4) 1.6279(4)
C15A C -0.2051(6) 2.0520(5) 1.7015(4)
C16A C -0.2213(6) 2.1600(5) 1.7780(4)
H8A H -0.1255 2.2083 1.8268
C17A C -0.3801(7) 2.1976(5) 1.7828(4)
C18A C -0.5226(7) 2.1281(5) 1.7097(4)
H9A H -0.6280 2.1537 1.7117
C19A C -0.5069(7) 2.0200(5) 1.6335(4)
H10A H -0.6033 1.9736 1.5843
O9A O -0.5857(5) 1.1041(4) 0.9116(3)
H13A H -0.549(7) 1.038(3) 0.884(4)
H14A H -0.679(4) 1.111(5) 0.876(4)
O10A O -0.6717(5) 1.3265(4) 1.0295(3)
H15A H -0.680(7) 1.395(3) 1.074(3)
H16A H -0.673(8) 1.329(5) 0.972(2)
O11A O -0.2847(6) 1.1889(4) 1.2155(3)
H17A H -0.198(5) 1.152(5) 1.209(5)
H18A H -0.278(8) 1.224(5) 1.2786(18)
Y1_2 Y -0.55466(7) 0.76787(5) 0.91820(4)
Y1_3 Y 0.44534(7) -0.23213(5) -0.08180(4)
Y1A_2 Y -0.44534(7) 2.23213(5) 2.08180(4)
Y1A_3 Y 0.55466(7) 1.23213(5) 1.08180(4)
O5_2 O 0.3337(5) 0.6829(3) 1.0227(3)
O5A_2 O -0.3337(5) 1.3171(3) 0.9773(3)
O8_2 O -0.6245(4) 1.0796(3) 1.0928(3)
O8A_2 O 0.6245(4) 0.9204(3) 0.9072(3)
O12 O 0.2171(6) 0.7443(5) 0.5800(4)
H19 H 0.302(6) 0.777(6) 0.567(5)
H20 H 0.178(9) 0.675(4) 0.576(6)
loop_
_geom_bond_atom_site_label_1
_geom_bond_atom_site_label_2
_geom_bond_site_symmetry_1
_geom_bond_site_symmetry_2
Y1 N1 1_555 1_555
S1 O1 1_555 1_555
S2 O4 1_555 1_555
N1 C1 1_555 1_555
N2 Y1 1_555 1_555
N3 H1 1_555 1_555
N4 C6 1_555 1_555
O2 S1 1_555 1_555
O3 S1 1_555 1_555
O5 S2 1_555 1_555
O6 S2 1_555 1_555
O7 Y1 1_555 1_555
O8 C20 1_555 1_555
C1 H2 1_555 1_555
C2 C1 1_555 1_555
H3 C2 1_555 1_555
C3 C2 1_555 1_555
H4 C3 1_555 1_555
C4 C3 1_555 1_555
C5 N3 1_555 1_555
C6 C5 1_555 1_555
C7 C6 1_555 1_555
C8 C7 1_555 1_555
H5 C8 1_555 1_555
C9 C8 1_555 1_555
H6 C9 1_555 1_555
C10 N2 1_555 1_555
H7 C10 1_555 1_555
C11 N2 1_555 1_555
C12 N1 1_555 1_555
C13 N3 1_555 1_555
C14 C13 1_555 1_555
C15 S1 1_555 1_555
C16 C15 1_555 1_555
H8 C16 1_555 1_555
C17 S2 1_555 1_555
C18 C17 1_555 1_555
H9 C18 1_555 1_555
C19 C14 1_555 1_555
H10 C19 1_555 1_555
C20 O7 1_555 1_555
C21 C20 1_555 1_555
H11 C21 1_555 1_555
H12 C21 1_555 1_555
O9 Y1 1_555 1_555
H13 O9 1_555 1_555
H14 O9 1_555 1_555
O10 Y1 1_555 1_555
H15 O10 1_555 1_555
H16 O10 1_555 1_555
O11 Y1 1_555 1_555
H17 O11 1_555 1_555
H18 O11 1_555 1_555
O12 H19 1_555 1_555
H20 O12 1_555 1_555
O7A C20A 1_555 1_555
O8A C20A 1_555 1_555
C20A C21A 1_555 1_555
C21A C21 1_555 1_555
H11A C21A 1_555 1_555
H12A C21A 1_555 1_555
Y1A O7A 1_555 1_555
S1A O1A 1_555 1_555
S2A O4A 1_555 1_555
N1A Y1A 1_555 1_555
N2A Y1A 1_555 1_555
N3A H1A 1_555 1_555
N4A C6A 1_555 1_555
O2A S1A 1_555 1_555
O3A S1A 1_555 1_555
O5A S2A 1_555 1_555
O6A S2A 1_555 1_555
C1A N1A 1_555 1_555
H2A C1A 1_555 1_555
C2A C1A 1_555 1_555
H3A C2A 1_555 1_555
C3A C2A 1_555 1_555
H4A C3A 1_555 1_555
C4A C3A 1_555 1_555
C5A N3A 1_555 1_555
C6A C5A 1_555 1_555
C7A C6A 1_555 1_555
C8A C7A 1_555 1_555
H5A C8A 1_555 1_555
C9A C8A 1_555 1_555
H6A C9A 1_555 1_555
C10A N2A 1_555 1_555
H7A C10A 1_555 1_555
C11A N2A 1_555 1_555
C12A N1A 1_555 1_555
C13A N3A 1_555 1_555
C14A C13A 1_555 1_555
C15A S1A 1_555 1_555
C16A C15A 1_555 1_555
H8A C16A 1_555 1_555
C17A S2A 1_555 1_555
C18A C17A 1_555 1_555
H9A C18A 1_555 1_555
C19A C14A 1_555 1_555
H10A C19A 1_555 1_555
O9A Y1A 1_555 1_555
H13A O9A 1_555 1_555
H14A O9A 1_555 1_555
O10A Y1A 1_555 1_555
H15A O10A 1_555 1_555
H16A O10A 1_555 1_555
O11A Y1A 1_555 1_555
H17A O11A 1_555 1_555
H18A O11A 1_555 1_555
Y1_2 O8A 1_555 1_555
Y1_3 O5 1_555 1_555
Y1A_2 O5A 1_555 1_555
Y1A_3 O8 1_555 1_555
O5_2 Y1 1_555 1_555
O5A_2 Y1A 1_555 1_555
O8_2 Y1A 1_555 1_555
O8A_2 Y1 1_555 1_555
N4 C13 1_555 1_555
C4 C5 1_555 1_555
C4 C12 1_555 1_555
C7 C11 1_555 1_555
C9 C10 1_555 1_555
C11 C12 1_555 1_555
C14 C15 1_555 1_555
C16 C17 1_555 1_555
C18 C19 1_555 1_555
N4A C13A 1_555 1_555
C4A C5A 1_555 1_555
C4A C12A 1_555 1_555
C7A C11A 1_555 1_555
C9A C10A 1_555 1_555
C11A C12A 1_555 1_555
C14A C15A 1_555 1_555
C16A C17A 1_555 1_555
C18A C19A 1_555 1_555

#END
