
#######################################################################
#
#                 Cambridge Crystallographic Data Centre
#                                CCDC 
#
#######################################################################
#
# If this CIF has been generated from an entry in the Cambridge 
# Structural Database, then it will include bibliographic, chemical, 
# crystal, experimental, refinement or atomic coordinate data resulting 
# from the CCDC's data processing and validation procedures.
#
#######################################################################

data_DUJVUB
_symmetry_cell_setting           monoclinic
_symmetry_space_group_name_H-M   'C 2/c'
_symmetry_Int_Tables_number      15
_space_group_name_Hall           '-C 2yn'
loop_
_symmetry_equiv_pos_site_id
_symmetry_equiv_pos_as_xyz
1 x,y,z
2 -x,y,1/2-z
3 1/2+x,1/2+y,z
4 1/2-x,1/2+y,1/2-z
5 -x,-y,-z
6 x,-y,1/2+z
7 1/2-x,1/2-y,-z
8 1/2+x,1/2-y,1/2+z
_cell_length_a                   19.735(5)
_cell_length_b                   9.240(5)
_cell_length_c                   16.192(5)
_cell_angle_alpha                90
_cell_angle_beta                 109.654(5)
_cell_angle_gamma                90
_cell_volume                     2780.62
loop_
_atom_site_label
_atom_site_type_symbol
_atom_site_fract_x
_atom_site_fract_y
_atom_site_fract_z
Zn1 Zn 0.5000 0.27632(6) 0.2500
O1 O 0.44813(15) 0.1790(3) 0.31638(17)
O2 O 0.3827(2) 0.0578(4) 0.20194(18)
N1 N 0.44368(15) 0.4069(3) 0.15090(18)
N2 N 0.36703(17) 0.5610(3) 0.0662(2)
C1 C 0.4017(2) 0.0842(4) 0.2799(2)
C2 C 0.37022(19) 0.0035(4) 0.3385(2)
C3 C 0.3992(2) 0.0169(5) 0.4290(2)
H1 H 0.4382 0.0781 0.4535
C4 C 0.3710(2) -0.0590(5) 0.4830(3)
H2 H 0.3921 -0.0506 0.5435
C5 C 0.3116(2) -0.1477(5) 0.4485(3)
C6 C 0.2832(2) -0.1632(5) 0.3585(3)
H3 H 0.2441 -0.2243 0.3342
C7 C 0.3123(2) -0.0884(5) 0.3036(3)
H4 H 0.2926 -0.1003 0.2432
C8 C 0.2813(2) -0.2194(5) 0.5112(3)
H5 H 0.3093 -0.2200 0.5703
C9 C 0.3943(2) 0.5040(4) 0.1485(2)
C10 C 0.3726(2) 0.5451(5) 0.2246(3)
H6 H 0.3774 0.4629 0.2624
H7 H 0.3234 0.5769 0.2042
H8 H 0.4029 0.6220 0.2565
C11 C 0.4485(2) 0.4019(5) 0.0680(2)
H9 H 0.4794 0.3425 0.0509
C12 C 0.4020(2) 0.4949(5) 0.0161(3)
H10 H 0.3947 0.5120 -0.0429
C13 C 0.3079(2) 0.6582(4) 0.0330(2)
C14 C 0.3046(2) 0.7837(5) 0.0776(3)
H11 H 0.3413 0.8063 0.1295
C15 C 0.2534(2) 0.6247(5) -0.0450(3)
H12 H 0.2561 0.5404 -0.0751
O1F O 0.05187(15) -0.6790(3) 0.68362(17)
O2F O 0.1173(2) -0.5578(4) 0.79806(18)
C1F C 0.0983(2) -0.5842(4) 0.7201(2)
C2F C 0.12978(19) -0.5035(4) 0.6615(2)
C3F C 0.1008(2) -0.5169(5) 0.5710(2)
H1F H 0.0618 -0.5781 0.5465
C4F C 0.1290(2) -0.4410(5) 0.5170(3)
H2F H 0.1079 -0.4494 0.4565
C5F C 0.1884(2) -0.3523(5) 0.5515(3)
C6F C 0.2168(2) -0.3368(5) 0.6415(3)
H3F H 0.2559 -0.2757 0.6658
C7F C 0.1877(2) -0.4116(5) 0.6964(3)
H4F H 0.2074 -0.3997 0.7568
C8F C 0.2187(2) -0.2806(5) 0.4888(3)
H5F H 0.1907 -0.2800 0.4297
N1F N 0.05632(15) 1.0931(3) -0.15090(18)
N2F N 0.13297(17) 0.9390(3) -0.0662(2)
C9F C 0.1057(2) 0.9960(4) -0.1485(2)
C10F C 0.1274(2) 0.9549(5) -0.2246(3)
H6F H 0.1226 1.0371 -0.2624
H7F H 0.1766 0.9231 -0.2042
H8F H 0.0971 0.8780 -0.2565
C11F C 0.0515(2) 1.0981(5) -0.0680(2)
H9F H 0.0206 1.1575 -0.0509
C12F C 0.0980(2) 1.0051(5) -0.0161(3)
H10F H 0.1053 0.9880 0.0429
C13F C 0.1921(2) 0.8418(4) -0.0330(2)
C14F C 0.1954(2) 0.7163(5) -0.0776(3)
H11F H 0.1587 0.6937 -0.1295
C15F C 0.2466(2) 0.8753(5) 0.0450(3)
H12F H 0.2439 0.9596 0.0751
Zn1F Zn 0.0000 -0.77632(6) 0.7500
Zn1F_2 Zn 0.0000 1.22368(6) -0.2500
O1A O 0.55187(15) 0.1790(3) 0.18362(17)
N1A N 0.55632(15) 0.4069(3) 0.34910(18)
O3 O 1.0000 0.3116(13) 0.2500
H13 H 1.0156 0.3364 0.2139
H13A H 0.9844 0.3364 0.2861
loop_
_geom_bond_atom_site_label_1
_geom_bond_atom_site_label_2
_geom_bond_site_symmetry_1
_geom_bond_site_symmetry_2
Zn1 O1 1_555 1_555
O1 C1 1_555 1_555
O2 C1 1_555 1_555
N1 Zn1 1_555 1_555
N2 C9 1_555 1_555
C1 C2 1_555 1_555
C2 C3 1_555 1_555
C3 H1 1_555 1_555
C4 C3 1_555 1_555
H2 C4 1_555 1_555
C5 C4 1_555 1_555
C6 C5 1_555 1_555
H3 C6 1_555 1_555
C7 C2 1_555 1_555
H4 C7 1_555 1_555
C8 C5 1_555 1_555
H5 C8 1_555 1_555
C9 N1 1_555 1_555
C10 C9 1_555 1_555
H6 C10 1_555 1_555
H7 C10 1_555 1_555
H8 C10 1_555 1_555
C11 N1 1_555 1_555
H9 C11 1_555 1_555
C12 N2 1_555 1_555
H10 C12 1_555 1_555
C13 N2 1_555 1_555
C14 C13 1_555 1_555
H11 C14 1_555 1_555
C15 C13 1_555 1_555
H12 C15 1_555 1_555
O3 H13 1_555 1_555
O1F C1F 1_555 1_555
O2F C1F 1_555 1_555
C1F C2F 1_555 1_555
C2F C3F 1_555 1_555
C3F H1F 1_555 1_555
C4F C3F 1_555 1_555
H2F C4F 1_555 1_555
C5F C4F 1_555 1_555
C6F C5F 1_555 1_555
H3F C6F 1_555 1_555
C7F C2F 1_555 1_555
H4F C7F 1_555 1_555
C8F C8 1_555 1_555
H5F C8F 1_555 1_555
N1F C9F 1_555 1_555
N2F C9F 1_555 1_555
C9F C10F 1_555 1_555
C10F H6F 1_555 1_555
H7F C10F 1_555 1_555
H8F C10F 1_555 1_555
C11F N1F 1_555 1_555
H9F C11F 1_555 1_555
C12F N2F 1_555 1_555
H10F C12F 1_555 1_555
C13F N2F 1_555 1_555
C14F C15 1_555 1_555
H11F C14F 1_555 1_555
C15F C14 1_555 1_555
H12F C15F 1_555 1_555
Zn1F O1F 1_555 1_555
Zn1F_2 N1F 1_555 1_555
O1A Zn1 1_555 1_555
N1A Zn1 1_555 1_555
H13A O3 1_555 1_555
C6 C7 1_555 1_555
C11 C12 1_555 1_555
C5F C8F 1_555 1_555
C6F C7F 1_555 1_555
C11F C12F 1_555 1_555
C13F C14F 1_555 1_555
C13F C15F 1_555 1_555

#END
