
#######################################################################
#
#                 Cambridge Crystallographic Data Centre
#                                CCDC 
#
#######################################################################
#
# If this CIF has been generated from an entry in the Cambridge 
# Structural Database, then it will include bibliographic, chemical, 
# crystal, experimental, refinement or atomic coordinate data resulting 
# from the CCDC's data processing and validation procedures.
#
#######################################################################

data_DUJWAI
_symmetry_cell_setting           monoclinic
_symmetry_space_group_name_H-M   'P 21/n'
_symmetry_Int_Tables_number      14
_space_group_name_Hall           '-P 2yn'
loop_
_symmetry_equiv_pos_site_id
_symmetry_equiv_pos_as_xyz
1 x,y,z
2 1/2-x,1/2+y,1/2-z
3 -x,-y,-z
4 1/2+x,1/2-y,1/2+z
_cell_length_a                   9.7714(8)
_cell_length_b                   22.9583(17)
_cell_length_c                   11.5707(9)
_cell_angle_alpha                90
_cell_angle_beta                 106.3600(10)
_cell_angle_gamma                90
_cell_volume                     2490.61
loop_
_atom_site_label
_atom_site_type_symbol
_atom_site_fract_x
_atom_site_fract_y
_atom_site_fract_z
La1 La -0.41089(2) 0.554721(9) 0.657019(17)
S1 S 0.83664(9) 0.89372(4) 0.87462(8)
S2 S 0.31459(11) 0.86189(5) 0.56403(10)
N1 N -0.1258(3) 0.57342(14) 0.7353(3)
N2 N -0.2946(3) 0.66115(14) 0.6175(3)
N3 N 0.2853(3) 0.70425(14) 0.7811(3)
N4 N 0.1479(3) 0.77876(14) 0.6992(3)
H1 H 0.1237 0.8134 0.6729
O1 O 0.8014(3) 0.95237(11) 0.8270(3)
O2 O 0.8876(3) 0.89352(12) 1.0064(2)
O3 O 0.9276(3) 0.86262(14) 0.8178(3)
O4 O 0.2779(5) 0.81189(17) 0.4886(3)
O5 O 0.1943(4) 0.88453(17) 0.6028(4)
O6 O 0.3861(3) 0.90744(15) 0.5155(3)
O7 O -0.3926(3) 0.52631(12) 0.4575(2)
O8 O -0.3817(3) 0.49080(15) 0.2856(3)
C1 C -0.0431(4) 0.53063(18) 0.7949(4)
H2 H -0.0860 0.4957 0.8057
C2 C 0.1030(4) 0.5355(2) 0.8413(4)
H3 H 0.1557 0.5045 0.8832
C3 C 0.1707(4) 0.58615(18) 0.8255(4)
H4 H 0.2694 0.5896 0.8536
C4 C 0.0869(4) 0.63220(16) 0.7661(3)
C5 C 0.1444(4) 0.68732(17) 0.7494(3)
C6 C 0.0584(4) 0.73297(17) 0.6979(4)
C7 C -0.0948(4) 0.72764(17) 0.6510(4)
C8 C -0.1867(4) 0.77195(18) 0.5925(4)
H5 H -0.1515 0.8088 0.5835
C9 C -0.3284(4) 0.76023(18) 0.5489(4)
H6 H -0.3910 0.7889 0.5086
C10 C -0.3791(4) 0.70505(18) 0.5650(4)
H7 H -0.4768 0.6984 0.5379
C11 C -0.1521(4) 0.67187(16) 0.6620(3)
C12 C -0.0619(4) 0.62485(16) 0.7226(3)
C13 C 0.2816(4) 0.75925(17) 0.7496(4)
C14 C 0.4129(4) 0.79554(16) 0.7751(3)
C15 C 0.5190(4) 0.78255(18) 0.8792(4)
H8 H 0.5038 0.7528 0.9286
C16 C 0.6476(4) 0.81259(18) 0.9122(4)
H9 H 0.7168 0.8033 0.9833
C17 C 0.6716(4) 0.85637(16) 0.8386(3)
C18 C 0.5696(4) 0.86926(16) 0.7320(3)
H10 H 0.5876 0.8980 0.6814
C19 C 0.4399(4) 0.83944(16) 0.6997(3)
C20 C -0.3251(4) 0.51867(18) 0.3803(3)
C21 C -0.1722(4) 0.5389(2) 0.4090(4)
H11 H -0.1598 0.5745 0.4560
H12 H -0.1472 0.5467 0.3351
C22 C -0.0764(4) 0.4912(2) 0.4804(4)
H13 H -0.1073 0.4817 0.5508
H14 H -0.0864 0.4565 0.4310
O9 O -0.3228(3) 0.52389(15) 0.8720(3)
H15 H -0.251(4) 0.540(2) 0.919(4)
H16 H -0.367(5) 0.4967(16) 0.898(4)
O10 O -0.4726(3) 0.63599(15) 0.7864(3)
H17 H -0.398(4) 0.628(2) 0.839(3)
H18 H -0.544(4) 0.657(2) 0.784(5)
O7B O 0.3926(3) 0.47369(12) 0.5425(2)
O8B O 0.3817(3) 0.50920(15) 0.7144(3)
C20B C 0.3251(4) 0.48133(18) 0.6197(3)
C21B C 0.1722(4) 0.4611(2) 0.5910(4)
H11B H 0.1598 0.4255 0.5440
H12B H 0.1472 0.4533 0.6649
C22B C 0.0764(4) 0.5088(2) 0.5196(4)
H13B H 0.1073 0.5183 0.4492
H14B H 0.0864 0.5435 0.5690
La1B La -0.58911(2) 0.445279(9) 0.342981(17)
S1B S -1.83664(9) 0.10628(4) 0.12538(8)
S2B S -1.31459(11) 0.13811(5) 0.43597(10)
N1B N -0.8742(3) 0.42658(14) 0.2647(3)
N2B N -0.7054(3) 0.33885(14) 0.3825(3)
N3B N -1.2853(3) 0.29575(14) 0.2189(3)
N4B N -1.1479(3) 0.22124(14) 0.3008(3)
H1B H -1.1237 0.1866 0.3271
O1B O -1.8014(3) 0.04763(11) 0.1730(3)
O2B O -1.8876(3) 0.10648(12) -0.0064(2)
O3B O -1.9276(3) 0.13738(14) 0.1822(3)
O4B O -1.2779(5) 0.18811(17) 0.5114(3)
O5B O -1.1943(4) 0.11547(17) 0.3972(4)
O6B O -1.3861(3) 0.09256(15) 0.4845(3)
C1B C -0.9569(4) 0.46937(18) 0.2051(4)
H2B H -0.9140 0.5043 0.1943
C2B C -1.1030(4) 0.4645(2) 0.1587(4)
H3B H -1.1557 0.4955 0.1168
C3B C -1.1707(4) 0.41385(18) 0.1745(4)
H4B H -1.2694 0.4104 0.1464
C4B C -1.0869(4) 0.36780(16) 0.2339(3)
C5B C -1.1444(4) 0.31268(17) 0.2506(3)
C6B C -1.0584(4) 0.26703(17) 0.3021(4)
C7B C -0.9052(4) 0.27236(17) 0.3490(4)
C8B C -0.8133(4) 0.22805(18) 0.4075(4)
H5B H -0.8485 0.1912 0.4165
C9B C -0.6716(4) 0.23977(18) 0.4511(4)
H6B H -0.6090 0.2111 0.4914
C10B C -0.6209(4) 0.29495(18) 0.4350(4)
H7B H -0.5232 0.3016 0.4621
C11B C -0.8479(4) 0.32813(16) 0.3380(3)
C12B C -0.9381(4) 0.37515(16) 0.2774(3)
C13B C -1.2816(4) 0.24075(17) 0.2504(4)
C14B C -1.4129(4) 0.20446(16) 0.2249(3)
C15B C -1.5190(4) 0.21745(18) 0.1208(4)
H8B H -1.5038 0.2472 0.0714
C16B C -1.6476(4) 0.18741(18) 0.0878(4)
H9B H -1.7168 0.1967 0.0167
C17B C -1.6716(4) 0.14363(16) 0.1614(3)
C18B C -1.5696(4) 0.13074(16) 0.2680(3)
H10B H -1.5876 0.1020 0.3186
C19B C -1.4399(4) 0.16056(16) 0.3003(3)
O9B O -0.6772(3) 0.47611(15) 0.1280(3)
H15B H -0.749(4) 0.460(2) 0.081(4)
H16B H -0.633(5) 0.5033(16) 0.102(4)
O10B O -0.5274(3) 0.36401(15) 0.2136(3)
H17B H -0.602(4) 0.372(2) 0.161(3)
H18B H -0.456(4) 0.343(2) 0.216(5)
La1_2 La 0.58911(2) 0.554721(9) 0.657019(17)
La1A La -2.08911(2) 0.054721(9) -0.157019(17)
La1A_2 La 0.91089(2) 1.054721(9) 0.842981(17)
La1B_2 La 0.41089(2) 0.445279(9) 0.342981(17)
La1C La -1.91089(2) -0.054721(9) 0.157019(17)
La1C_2 La 1.08911(2) 0.945279(9) 1.157019(17)
O1A O -0.3014(3) 0.45237(11) 0.6730(3)
O1C O -0.6986(3) 0.54763(11) 0.3270(3)
O2A O -0.3876(3) 0.39352(12) 0.4936(2)
O2C O -0.6124(3) 0.60648(12) 0.5064(2)
O7B_2 O -0.6074(3) 0.47369(12) 0.5425(2)
O8B_2 O -0.6183(3) 0.50920(15) 0.7144(3)
O11 O 0.9214(6) 0.9170(2) 0.5907(5)
loop_
_geom_bond_atom_site_label_1
_geom_bond_atom_site_label_2
_geom_bond_site_symmetry_1
_geom_bond_site_symmetry_2
La1 N1 1_555 1_555
S1 O1 1_555 1_555
S2 O4 1_555 1_555
N1 C1 1_555 1_555
N2 La1 1_555 1_555
N3 C5 1_555 1_555
N4 H1 1_555 1_555
O1 La1A_2 1_555 1_555
O2 S1 1_555 1_555
O3 S1 1_555 1_555
O5 S2 1_555 1_555
O6 S2 1_555 1_555
O7 La1 1_555 1_555
O8 C20 1_555 1_555
C1 H2 1_555 1_555
C2 C1 1_555 1_555
H3 C2 1_555 1_555
C3 C2 1_555 1_555
H4 C3 1_555 1_555
C4 C3 1_555 1_555
C5 C4 1_555 1_555
C6 N4 1_555 1_555
C7 C6 1_555 1_555
C8 C7 1_555 1_555
H5 C8 1_555 1_555
C9 C8 1_555 1_555
H6 C9 1_555 1_555
C10 N2 1_555 1_555
H7 C10 1_555 1_555
C11 N2 1_555 1_555
C12 N1 1_555 1_555
C13 N3 1_555 1_555
C14 C13 1_555 1_555
C15 C14 1_555 1_555
H8 C15 1_555 1_555
C16 C15 1_555 1_555
H9 C16 1_555 1_555
C17 S1 1_555 1_555
C18 C17 1_555 1_555
H10 C18 1_555 1_555
C19 S2 1_555 1_555
C20 O7 1_555 1_555
C21 C20 1_555 1_555
H11 C21 1_555 1_555
H12 C21 1_555 1_555
C22 C21 1_555 1_555
H13 C22 1_555 1_555
H14 C22 1_555 1_555
O9 La1 1_555 1_555
H15 O9 1_555 1_555
H16 O9 1_555 1_555
O10 La1 1_555 1_555
H17 O10 1_555 1_555
H18 O10 1_555 1_555
O7B C20B 1_555 1_555
O8B C20B 1_555 1_555
C20B C21B 1_555 1_555
C21B H11B 1_555 1_555
H12B C21B 1_555 1_555
C22B C22 1_555 1_555
H13B C22B 1_555 1_555
H14B C22B 1_555 1_555
La1B O7 1_555 1_555
S1B O1B 1_555 1_555
S2B O4B 1_555 1_555
N1B La1B 1_555 1_555
N2B La1B 1_555 1_555
N3B C5B 1_555 1_555
N4B H1B 1_555 1_555
O1B La1C 1_555 1_555
O2B S1B 1_555 1_555
O3B S1B 1_555 1_555
O5B S2B 1_555 1_555
O6B S2B 1_555 1_555
C1B N1B 1_555 1_555
H2B C1B 1_555 1_555
C2B C1B 1_555 1_555
H3B C2B 1_555 1_555
C3B C2B 1_555 1_555
H4B C3B 1_555 1_555
C4B C3B 1_555 1_555
C5B C4B 1_555 1_555
C6B N4B 1_555 1_555
C7B C6B 1_555 1_555
C8B C7B 1_555 1_555
H5B C8B 1_555 1_555
C9B C8B 1_555 1_555
H6B C9B 1_555 1_555
C10B N2B 1_555 1_555
H7B C10B 1_555 1_555
C11B N2B 1_555 1_555
C12B N1B 1_555 1_555
C13B N3B 1_555 1_555
C14B C13B 1_555 1_555
C15B C14B 1_555 1_555
H8B C15B 1_555 1_555
C16B C15B 1_555 1_555
H9B C16B 1_555 1_555
C17B S1B 1_555 1_555
C18B C17B 1_555 1_555
H10B C18B 1_555 1_555
C19B S2B 1_555 1_555
O9B La1B 1_555 1_555
H15B O9B 1_555 1_555
H16B O9B 1_555 1_555
O10B La1B 1_555 1_555
H17B O10B 1_555 1_555
H18B O10B 1_555 1_555
La1_2 O7B 1_555 1_555
La1A O2B 1_555 1_555
La1B_2 O7B 1_555 1_555
La1C_2 O2 1_555 1_555
O1A La1 1_555 1_555
O1C La1B 1_555 1_555
O2A La1B 1_555 1_555
O2C La1 1_555 1_555
O7B_2 La1 1_555 1_555
O8B_2 La1 1_555 1_555
N4 C13 1_555 1_555
O8 La1B 1_555 1_555
C4 C12 1_555 1_555
C5 C6 1_555 1_555
C7 C11 1_555 1_555
C9 C10 1_555 1_555
C11 C12 1_555 1_555
C14 C19 1_555 1_555
C16 C17 1_555 1_555
C18 C19 1_555 1_555
O8B La1_2 1_555 1_555
C21B C22B 1_555 1_555
La1B O7B_2 1_555 1_555
N4B C13B 1_555 1_555
C4B C12B 1_555 1_555
C5B C6B 1_555 1_555
C7B C11B 1_555 1_555
C9B C10B 1_555 1_555
C11B C12B 1_555 1_555
C14B C19B 1_555 1_555
C16B C17B 1_555 1_555
C18B C19B 1_555 1_555

#END
