
#######################################################################
#
#                 Cambridge Crystallographic Data Centre
#                                CCDC 
#
#######################################################################
#
# If this CIF has been generated from an entry in the Cambridge 
# Structural Database, then it will include bibliographic, chemical, 
# crystal, experimental, refinement or atomic coordinate data resulting 
# from the CCDC's data processing and validation procedures.
#
#######################################################################

data_DUJWIP
_symmetry_cell_setting           orthorhombic
_symmetry_space_group_name_H-M   'P b c n'
_symmetry_Int_Tables_number      60
_space_group_name_Hall           '-P 2n 2ab'
loop_
_symmetry_equiv_pos_site_id
_symmetry_equiv_pos_as_xyz
1 x,y,z
2 1/2-x,1/2-y,1/2+z
3 -x,y,1/2-z
4 1/2+x,1/2-y,-z
5 -x,-y,-z
6 1/2+x,1/2+y,1/2-z
7 x,-y,1/2+z
8 1/2-x,1/2+y,z
_cell_length_a                   18.740(4)
_cell_length_b                   11.669(2)
_cell_length_c                   8.0529(16)
_cell_angle_alpha                90
_cell_angle_beta                 90
_cell_angle_gamma                90
_cell_volume                     1760.98
loop_
_atom_site_label
_atom_site_type_symbol
_atom_site_fract_x
_atom_site_fract_y
_atom_site_fract_z
Sr1 Sr 0.5000 0.95347(6) 0.2500
Br1 Br 0.26073(4) 1.23028(6) 0.28032(9)
O1 O 0.4082(2) 0.8205(4) 0.1116(5)
H1 H 0.4050 0.8178 0.0101
H2 H 0.3663 0.8112 0.1371
O2 O 0.4125(3) 1.1245(4) 0.2793(4)
O3 O 0.4433(2) 1.1017(3) 0.0190(4)
C1 C 0.4152(3) 1.1591(4) 0.1317(6)
C2 C 0.3870(3) 1.2758(4) 0.0915(6)
C3 C 0.3238(3) 1.3201(4) 0.1490(6)
C4 C 0.3005(4) 1.4307(5) 0.1105(8)
H3 H 0.2569 1.4575 0.1495
C5 C 0.3434(5) 1.4993(5) 0.0138(8)
H4 H 0.3293 1.5739 -0.0105
C6 C 0.4068(5) 1.4582(5) -0.0469(8)
H5 H 0.4352 1.5050 -0.1129
C7 C 0.4288(3) 1.3487(5) -0.0113(7)
H6 H 0.4716 1.3218 -0.0549
Sr1D Sr 0.5000 1.04653(6) -0.2500
Sr1D_2 Sr 0.5000 1.04653(6) 0.7500
Br1B Br 0.73927(4) 1.23028(6) 0.21968(9)
O1B O 0.5918(2) 0.8205(4) 0.3884(5)
H1B H 0.5950 0.8178 0.4899
H2B H 0.6337 0.8112 0.3629
O2B O 0.5875(3) 1.1245(4) 0.2207(4)
O3B O 0.5567(2) 1.1017(3) 0.4810(4)
O3D O 0.5567(2) 0.8983(3) -0.0190(4)
O3F O 0.4433(2) 0.8983(3) 0.5190(4)
C1B C 0.5848(3) 1.1591(4) 0.3683(6)
C2B C 0.6130(3) 1.2758(4) 0.4085(6)
C3B C 0.6762(3) 1.3201(4) 0.3510(6)
C4B C 0.6995(4) 1.4307(5) 0.3895(8)
H3B H 0.7431 1.4575 0.3505
C5B C 0.6566(5) 1.4993(5) 0.4862(8)
H4B H 0.6707 1.5739 0.5105
C6B C 0.5932(5) 1.4582(5) 0.5469(8)
H5B H 0.5648 1.5050 0.6129
C7B C 0.5712(3) 1.3487(5) 0.5113(7)
H6B H 0.5284 1.3218 0.5549
loop_
_geom_bond_atom_site_label_1
_geom_bond_atom_site_label_2
_geom_bond_site_symmetry_1
_geom_bond_site_symmetry_2
Sr1 O1 1_555 1_555
Br1 C3 1_555 1_555
O1 H1 1_555 1_555
H2 O1 1_555 1_555
O2 Sr1 1_555 1_555
O3 Sr1 1_555 1_555
C1 O2 1_555 1_555
C2 C1 1_555 1_555
C3 C2 1_555 1_555
C4 C3 1_555 1_555
H3 C4 1_555 1_555
C5 C4 1_555 1_555
H4 C5 1_555 1_555
C6 C5 1_555 1_555
H5 C6 1_555 1_555
C7 C2 1_555 1_555
H6 C7 1_555 1_555
Sr1D O3 1_555 1_555
Sr1D_2 O3B 1_555 1_555
Br1B C3B 1_555 1_555
O1B Sr1 1_555 1_555
H1B O1B 1_555 1_555
H2B O1B 1_555 1_555
O2B Sr1 1_555 1_555
O3B Sr1 1_555 1_555
O3D Sr1 1_555 1_555
O3F Sr1 1_555 1_555
C1B O2B 1_555 1_555
C2B C1B 1_555 1_555
C3B C2B 1_555 1_555
C4B C3B 1_555 1_555
H3B C4B 1_555 1_555
C5B C4B 1_555 1_555
H4B C5B 1_555 1_555
C6B C5B 1_555 1_555
H5B C6B 1_555 1_555
C7B C2B 1_555 1_555
H6B C7B 1_555 1_555
O3 C1 1_555 1_555
C6 C7 1_555 1_555
Sr1D O3D 1_555 1_555
Sr1D_2 O3F 1_555 1_555
O3B C1B 1_555 1_555
C6B C7B 1_555 1_555

#END
