
#######################################################################
#
#                 Cambridge Crystallographic Data Centre
#                                CCDC 
#
#######################################################################
#
# If this CIF has been generated from an entry in the Cambridge 
# Structural Database, then it will include bibliographic, chemical, 
# crystal, experimental, refinement or atomic coordinate data resulting 
# from the CCDC's data processing and validation procedures.
#
#######################################################################

data_DUJWIQ
_symmetry_cell_setting           triclinic
_symmetry_space_group_name_H-M   'P -1'
_symmetry_Int_Tables_number      2
_space_group_name_Hall           '-P 1'
loop_
_symmetry_equiv_pos_site_id
_symmetry_equiv_pos_as_xyz
1 x,y,z
2 -x,-y,-z
_cell_length_a                   8.3792(5)
_cell_length_b                   11.3522(6)
_cell_length_c                   23.1733(14)
_cell_angle_alpha                93.0550(10)
_cell_angle_beta                 93.5600(10)
_cell_angle_gamma                104.4650(10)
_cell_volume                     2124.9
loop_
_atom_site_label
_atom_site_type_symbol
_atom_site_fract_x
_atom_site_fract_y
_atom_site_fract_z
Cu1 Cu 0.0000 0.5000 0.5000
Cu2 Cu 0.0000 0.5000 1.0000
S1 S 0.28266(11) 0.81302(8) 0.51309(4)
S2 S 0.16629(14) 0.81969(9) 0.95748(4)
C1 C 0.2747(4) 0.8258(3) 0.63101(16)
H1 H 0.1741 0.7676 0.6247
C2 C 0.4859(4) 0.9606(3) 0.69640(17)
C3 C 0.2787(5) 0.8780(3) 0.89816(17)
C4 C 0.3646(4) 0.8665(3) 0.58472(16)
C5 C 0.5161(4) 0.9523(3) 0.59421(18)
H2 H 0.5776 0.9777 0.5630
C6 C 0.3352(4) 0.8722(3) 0.68705(16)
C7 C 0.2369(4) 0.8271(3) 0.73627(16)
C8 C 0.3041(4) 0.8777(3) 0.79570(16)
C9 C 0.2183(4) 0.8334(3) 0.84259(16)
H3 H 0.1195 0.7732 0.8364
C10 C 0.5503(5) 1.0147(3) 0.75593(18)
C11 C 0.4521(4) 0.9675(3) 0.80503(17)
C12 C 0.5753(4) 0.9995(3) 0.64938(19)
H4 H 0.6758 1.0579 0.6553
C13 C 0.5100(5) 1.0124(4) 0.8611(2)
H5 H 0.6078 1.0735 0.8675
C14 C 0.4253(5) 0.9680(4) 0.90750(19)
H6 H 0.4663 0.9983 0.9450
O1 O 0.1224(3) 0.6895(2) 0.94726(12)
O2 O 0.1054(4) 0.7521(3) 0.72794(13)
O3 O 0.2002(3) 0.9035(2) 0.49357(13)
O4 O 0.1650(4) 0.6979(2) 0.51880(12)
O5 O 0.6786(4) 1.0938(3) 0.76399(14)
O6 O 0.2752(5) 0.8626(3) 1.00837(14)
O7 O 0.0212(5) 0.8666(4) 0.9532(2)
O8 O 0.4206(4) 0.8048(3) 0.48050(14)
N1 N 0.1688(3) 0.4322(3) 0.54323(12)
N2 N -0.1074(3) 0.5270(2) 0.57486(12)
N3 N -0.2259(3) 0.5001(3) 0.96746(12)
N4 N 0.0229(4) 0.4037(3) 0.92562(12)
N5 N 0.0552(4) 0.2625(3) 0.86220(13)
N6 N -0.2249(4) 0.6206(3) 0.63888(13)
N7 N 0.2931(4) 0.3039(3) 0.58232(12)
N8 N -0.4279(3) 0.5599(3) 0.92321(12)
C15 C 0.0026(6) 0.3470(4) 0.83206(17)
H7 H -0.0175 0.3450 0.7920
C16 C 0.1497(4) 0.3217(3) 0.56159(15)
H8 H 0.0488 0.2637 0.5602
C17 C -0.4631(4) 0.6597(4) 0.83358(15)
C18 C 0.2596(5) 0.1809(3) 0.66767(16)
C19 C -0.1742(4) 0.6184(3) 0.58565(15)
H9 H -0.1849 0.6750 0.5591
C20 C -0.2724(4) 0.5942(4) 0.94769(15)
H10 H -0.2063 0.6736 0.9504
C21 C 0.3163(5) 0.1916(4) 0.60712(17)
H11 H 0.4323 0.1919 0.6081
H12 H 0.2543 0.1212 0.5825
C22 C 0.1473(5) 0.1586(3) 0.77872(17)
C23 C -0.5082(6) 0.6144(4) 0.73041(18)
H13 H -0.5754 0.5723 0.6986
C24 C 0.1083(5) 0.1049(4) 0.67682(17)
H14 H 0.0422 0.0597 0.6455
C25 C -0.3584(6) 0.6933(4) 0.72215(17)
C26 C 0.0534(5) 0.0947(4) 0.73151(18)
H15 H -0.0495 0.0434 0.7364
C27 C -0.5140(5) 0.6408(4) 0.89434(17)
H16 H -0.4891 0.7190 0.9165
H17 H -0.6324 0.6058 0.8930
C28 C -0.1890(5) 0.5245(4) 0.66457(17)
H18 H -0.2096 0.5024 0.7020
C29 C 0.0652(4) 0.2998(4) 0.91804(16)
H19 H 0.0979 0.2578 0.9481
C30 C 0.3555(5) 0.2438(4) 0.71501(19)
H20 H 0.4589 0.2945 0.7101
C31 C -0.3579(5) 0.4004(4) 0.95452(17)
H21 H -0.3611 0.3208 0.9630
C32 C -0.4820(5) 0.4375(4) 0.92744(18)
H22 H -0.5856 0.3884 0.9141
C33 C -0.1176(5) 0.4675(4) 0.62479(16)
H23 H -0.0807 0.3979 0.6305
C34 C -0.0151(6) 0.4342(4) 0.87114(17)
H24 H -0.0478 0.5040 0.8624
C35 C -0.2630(5) 0.7564(4) 0.7705(2)
H25 H -0.1622 0.8108 0.7658
C36 C 0.3007(6) 0.2328(4) 0.77016(18)
H26 H 0.3679 0.2758 0.8018
C37 C 0.3342(5) 0.4866(4) 0.55272(18)
H27 H 0.3854 0.5656 0.5441
C38 C 0.0843(7) 0.1472(4) 0.83848(19)
H28 H -0.0181 0.0837 0.8364
H29 H 0.1644 0.1234 0.8644
C39 C -0.3006(7) 0.7156(4) 0.6628(2)
H30 H -0.3940 0.7196 0.6367
H31 H -0.2204 0.7941 0.6644
C40 C -0.5593(5) 0.5974(4) 0.78578(17)
H32 H -0.6600 0.5431 0.7908
C41 C 0.4119(5) 0.4076(4) 0.5766(2)
H33 H 0.5244 0.4216 0.5869
C42 C -0.3148(5) 0.7401(4) 0.82511(18)
H34 H -0.2490 0.7838 0.8568
S1A S -0.28266(11) 0.18698(8) 0.48691(4)
S2A S -0.16629(14) 0.18031(9) 0.04252(4)
C1A C -0.2747(4) 0.1742(3) 0.36899(16)
H1A H -0.1741 0.2324 0.3753
C2A C -0.4859(4) 0.0394(3) 0.30360(17)
C3A C -0.2787(5) 0.1220(3) 0.10184(17)
C4A C -0.3646(4) 0.1335(3) 0.41528(16)
C5A C -0.5161(4) 0.0477(3) 0.40579(18)
H2A H -0.5776 0.0223 0.4370
C6A C -0.3352(4) 0.1278(3) 0.31295(16)
C7A C -0.2369(4) 0.1729(3) 0.26373(16)
C8A C -0.3041(4) 0.1223(3) 0.20430(16)
C9A C -0.2183(4) 0.1666(3) 0.15741(16)
H3A H -0.1195 0.2268 0.1636
C10A C -0.5503(5) -0.0147(3) 0.24407(18)
C11A C -0.4521(4) 0.0325(3) 0.19497(17)
C12A C -0.5753(4) 0.0005(3) 0.35062(19)
H4A H -0.6758 -0.0579 0.3447
C13A C -0.5100(5) -0.0124(4) 0.1389(2)
H5A H -0.6078 -0.0735 0.1325
C14A C -0.4253(5) 0.0320(4) 0.09250(19)
H6A H -0.4663 0.0017 0.0550
O1A O -0.1224(3) 0.3105(2) 0.05274(12)
O2A O -0.1054(4) 0.2479(3) 0.27206(13)
O3A O -0.2002(3) 0.0965(2) 0.50643(13)
O4A O -0.1650(4) 0.3021(2) 0.48120(12)
O5A O -0.6786(4) -0.0938(3) 0.23601(14)
O6A O -0.2752(5) 0.1374(3) -0.00837(14)
O7A O -0.0212(5) 0.1334(4) 0.0468(2)
O8A O -0.4206(4) 0.1952(3) 0.51950(14)
N1A N -0.1688(3) 0.5678(3) 0.45677(12)
N2A N 0.1074(3) 0.4730(2) 0.42514(12)
N3A N 0.2259(3) 0.4999(3) 0.03254(12)
N4A N -0.0229(4) 0.5963(3) 0.07438(12)
N5A N -0.0552(4) 0.7375(3) 0.13780(13)
N6A N 0.2249(4) 0.3794(3) 0.36112(13)
N7A N -0.2931(4) 0.6961(3) 0.41768(12)
N8A N 0.4279(3) 0.4401(3) 0.07679(12)
C15A C -0.0026(6) 0.6530(4) 0.16794(17)
H7A H 0.0175 0.6550 0.2080
C16A C -0.1497(4) 0.6783(3) 0.43841(15)
H8A H -0.0488 0.7363 0.4398
C17A C 0.4631(4) 0.3403(4) 0.16642(15)
C18A C -0.2596(5) 0.8191(3) 0.33233(16)
C19A C 0.1742(4) 0.3816(3) 0.41435(15)
H9A H 0.1849 0.3250 0.4409
C20A C 0.2724(4) 0.4058(4) 0.05231(15)
H10A H 0.2063 0.3264 0.0496
C21A C -0.3163(5) 0.8084(4) 0.39288(17)
H11A H -0.4323 0.8081 0.3919
H12A H -0.2543 0.8788 0.4175
C22A C -0.1473(5) 0.8414(3) 0.22128(17)
C23A C 0.5082(6) 0.3856(4) 0.26959(18)
H13A H 0.5754 0.4277 0.3014
C24A C -0.1083(5) 0.8951(4) 0.32318(17)
H14A H -0.0422 0.9403 0.3545
C25A C 0.3584(6) 0.3067(4) 0.27785(17)
C26A C -0.0534(5) 0.9053(4) 0.26849(18)
H15A H 0.0495 0.9566 0.2636
C27A C 0.5140(5) 0.3592(4) 0.10566(17)
H16A H 0.4891 0.2810 0.0835
H17A H 0.6324 0.3942 0.1070
C28A C 0.1890(5) 0.4755(4) 0.33543(17)
H18A H 0.2096 0.4976 0.2980
C29A C -0.0652(4) 0.7002(4) 0.08196(16)
H19A H -0.0979 0.7422 0.0519
C30A C -0.3555(5) 0.7562(4) 0.28499(19)
H20A H -0.4589 0.7055 0.2899
C31A C 0.3579(5) 0.5996(4) 0.04548(17)
H21A H 0.3611 0.6792 0.0370
C32A C 0.4820(5) 0.5625(4) 0.07256(18)
H22A H 0.5856 0.6116 0.0859
C33A C 0.1176(5) 0.5325(4) 0.37521(16)
H23A H 0.0807 0.6021 0.3695
C34A C 0.0151(6) 0.5658(4) 0.12886(17)
H24A H 0.0478 0.4960 0.1376
C35A C 0.2630(5) 0.2436(4) 0.2295(2)
H25A H 0.1622 0.1892 0.2342
C36A C -0.3007(6) 0.7672(4) 0.22984(18)
H26A H -0.3679 0.7242 0.1982
C37A C -0.3342(5) 0.5134(4) 0.44728(18)
H27A H -0.3854 0.4344 0.4559
C38A C -0.0843(7) 0.8528(4) 0.16152(19)
H28A H 0.0181 0.9163 0.1636
H29A H -0.1644 0.8766 0.1356
C39A C 0.3006(7) 0.2844(4) 0.3372(2)
H30A H 0.3940 0.2804 0.3633
H31A H 0.2204 0.2059 0.3356
C40A C 0.5593(5) 0.4026(4) 0.21422(17)
H32A H 0.6600 0.4569 0.2092
C41A C -0.4119(5) 0.5924(4) 0.4234(2)
H33A H -0.5244 0.5784 0.4131
C42A C 0.3148(5) 0.2599(4) 0.17489(18)
H34A H 0.2490 0.2162 0.1432
Cu2_2 Cu 0.0000 0.5000 0.0000
O1A_2 O -0.1224(3) 0.3105(2) 1.05274(12)
N3A_2 N 0.2259(3) 0.4999(3) 1.03254(12)
N4A_2 N -0.0229(4) 0.5963(3) 1.07438(12)
O9 O 0.9029(5) 0.9012(3) 0.55731(18)
H35 H 0.835(6) 0.917(8) 0.531(2)
H36 H 0.994(4) 0.904(5) 0.541(2)
O10 O 0.909(4) 1.004(4) 0.9233(13)
H37 H 0.807(3) 0.974(3) 0.9230(15)
H38 H 0.941(9) 1.008(14) 0.889(2)
O11 O 0.7197(12) 0.8616(9) 0.9938(8)
H39 H 0.69(2) 0.868(17) 1.033(4)
H40 H 0.65(2) 0.906(13) 0.973(5)
loop_
_geom_bond_atom_site_label_1
_geom_bond_atom_site_label_2
_geom_bond_site_symmetry_1
_geom_bond_site_symmetry_2
Cu1 O4 1_555 1_555
Cu2 O1 1_555 1_555
S1 C4 1_555 1_555
S2 C3 1_555 1_555
C1 H1 1_555 1_555
C2 C6 1_555 1_555
C3 C9 1_555 1_555
C4 C1 1_555 1_555
C5 C4 1_555 1_555
H2 C5 1_555 1_555
C6 C1 1_555 1_555
C7 C6 1_555 1_555
C8 C7 1_555 1_555
C9 C8 1_555 1_555
H3 C9 1_555 1_555
C10 C2 1_555 1_555
C11 C8 1_555 1_555
C12 C2 1_555 1_555
H4 C12 1_555 1_555
C13 C11 1_555 1_555
H5 C13 1_555 1_555
C14 C3 1_555 1_555
H6 C14 1_555 1_555
O1 S2 1_555 1_555
O2 C7 1_555 1_555
O3 S1 1_555 1_555
O4 S1 1_555 1_555
O5 C10 1_555 1_555
O6 S2 1_555 1_555
O7 S2 1_555 1_555
O8 S1 1_555 1_555
N1 Cu1 1_555 1_555
N2 Cu1 1_555 1_555
N3 Cu2 1_555 1_555
N4 Cu2 1_555 1_555
N5 C15 1_555 1_555
N6 C19 1_555 1_555
N7 C16 1_555 1_555
N8 C20 1_555 1_555
C15 H7 1_555 1_555
C16 N1 1_555 1_555
H8 C16 1_555 1_555
C17 C27 1_555 1_555
C18 C21 1_555 1_555
C19 N2 1_555 1_555
H9 C19 1_555 1_555
C20 N3 1_555 1_555
H10 C20 1_555 1_555
C21 N7 1_555 1_555
H11 C21 1_555 1_555
H12 C21 1_555 1_555
C22 C26 1_555 1_555
C23 H13 1_555 1_555
C24 C18 1_555 1_555
H14 C24 1_555 1_555
C25 C23 1_555 1_555
C26 C24 1_555 1_555
H15 C26 1_555 1_555
C27 N8 1_555 1_555
H16 C27 1_555 1_555
H17 C27 1_555 1_555
C28 N6 1_555 1_555
H18 C28 1_555 1_555
C29 N4 1_555 1_555
H19 C29 1_555 1_555
C30 C18 1_555 1_555
H20 C30 1_555 1_555
C31 N3 1_555 1_555
H21 C31 1_555 1_555
C32 N8 1_555 1_555
H22 C32 1_555 1_555
C33 N2 1_555 1_555
H23 C33 1_555 1_555
C34 N4 1_555 1_555
H24 C34 1_555 1_555
C35 C25 1_555 1_555
H25 C35 1_555 1_555
C36 C22 1_555 1_555
H26 C36 1_555 1_555
C37 N1 1_555 1_555
H27 C37 1_555 1_555
C38 N5 1_555 1_555
H28 C38 1_555 1_555
H29 C38 1_555 1_555
C39 N6 1_555 1_555
H30 C39 1_555 1_555
H31 C39 1_555 1_555
C40 C17 1_555 1_555
H32 C40 1_555 1_555
C41 N7 1_555 1_555
H33 C41 1_555 1_555
C42 C17 1_555 1_555
H34 C42 1_555 1_555
O9 H35 1_555 1_555
H36 O9 1_555 1_555
O10 H37 1_555 1_555
H38 O10 1_555 1_555
O11 H39 1_555 1_555
H40 O11 1_555 1_555
S1A C4A 1_555 1_555
S2A C3A 1_555 1_555
C1A H1A 1_555 1_555
C2A C6A 1_555 1_555
C3A C9A 1_555 1_555
C4A C1A 1_555 1_555
C5A C4A 1_555 1_555
H2A C5A 1_555 1_555
C6A C1A 1_555 1_555
C7A C6A 1_555 1_555
C8A C7A 1_555 1_555
C9A C8A 1_555 1_555
H3A C9A 1_555 1_555
C10A C2A 1_555 1_555
C11A C8A 1_555 1_555
C12A C2A 1_555 1_555
H4A C12A 1_555 1_555
C13A C11A 1_555 1_555
H5A C13A 1_555 1_555
C14A C3A 1_555 1_555
H6A C14A 1_555 1_555
O1A S2A 1_555 1_555
O2A C7A 1_555 1_555
O3A S1A 1_555 1_555
O4A Cu1 1_555 1_555
O5A C10A 1_555 1_555
O6A S2A 1_555 1_555
O7A S2A 1_555 1_555
O8A S1A 1_555 1_555
N1A Cu1 1_555 1_555
N2A Cu1 1_555 1_555
N3A C20A 1_555 1_555
N4A C29A 1_555 1_555
N5A C15A 1_555 1_555
N6A C19A 1_555 1_555
N7A C16A 1_555 1_555
N8A C20A 1_555 1_555
C15A H7A 1_555 1_555
C16A N1A 1_555 1_555
H8A C16A 1_555 1_555
C17A C27A 1_555 1_555
C18A C21A 1_555 1_555
C19A N2A 1_555 1_555
H9A C19A 1_555 1_555
C20A H10A 1_555 1_555
C21A N7A 1_555 1_555
H11A C21A 1_555 1_555
H12A C21A 1_555 1_555
C22A C26A 1_555 1_555
C23A H13A 1_555 1_555
C24A C18A 1_555 1_555
H14A C24A 1_555 1_555
C25A C23A 1_555 1_555
C26A C24A 1_555 1_555
H15A C26A 1_555 1_555
C27A N8A 1_555 1_555
H16A C27A 1_555 1_555
H17A C27A 1_555 1_555
C28A N6A 1_555 1_555
H18A C28A 1_555 1_555
C29A N5A 1_555 1_555
H19A C29A 1_555 1_555
C30A C18A 1_555 1_555
H20A C30A 1_555 1_555
C31A N3A 1_555 1_555
H21A C31A 1_555 1_555
C32A N8A 1_555 1_555
H22A C32A 1_555 1_555
C33A N2A 1_555 1_555
H23A C33A 1_555 1_555
C34A N4A 1_555 1_555
H24A C34A 1_555 1_555
C35A C25A 1_555 1_555
H25A C35A 1_555 1_555
C36A C22A 1_555 1_555
H26A C36A 1_555 1_555
C37A N1A 1_555 1_555
H27A C37A 1_555 1_555
C38A N5A 1_555 1_555
H28A C38A 1_555 1_555
H29A C38A 1_555 1_555
C39A N6A 1_555 1_555
H30A C39A 1_555 1_555
H31A C39A 1_555 1_555
C40A C17A 1_555 1_555
H32A C40A 1_555 1_555
C41A N7A 1_555 1_555
H33A C41A 1_555 1_555
C42A C17A 1_555 1_555
H34A C42A 1_555 1_555
Cu2_2 O1A 1_555 1_555
O1A_2 Cu2 1_555 1_555
N3A_2 Cu2 1_555 1_555
N4A_2 Cu2 1_555 1_555
C5 C12 1_555 1_555
C10 C11 1_555 1_555
C13 C14 1_555 1_555
N5 C29 1_555 1_555
C15 C34 1_555 1_555
C22 C38 1_555 1_555
C23 C40 1_555 1_555
C25 C39 1_555 1_555
C28 C33 1_555 1_555
C30 C36 1_555 1_555
C31 C32 1_555 1_555
C35 C42 1_555 1_555
C37 C41 1_555 1_555
S1A O4A 1_555 1_555
C5A C12A 1_555 1_555
C10A C11A 1_555 1_555
C13A C14A 1_555 1_555
N3A Cu2_2 1_555 1_555
N4A Cu2_2 1_555 1_555
C15A C34A 1_555 1_555
C22A C38A 1_555 1_555
C23A C40A 1_555 1_555
C25A C39A 1_555 1_555
C28A C33A 1_555 1_555
C30A C36A 1_555 1_555
C31A C32A 1_555 1_555
C35A C42A 1_555 1_555
C37A C41A 1_555 1_555

#END
