
#######################################################################
#
#                 Cambridge Crystallographic Data Centre
#                                CCDC 
#
#######################################################################
#
# If this CIF has been generated from an entry in the Cambridge 
# Structural Database, then it will include bibliographic, chemical, 
# crystal, experimental, refinement or atomic coordinate data resulting 
# from the CCDC's data processing and validation procedures.
#
#######################################################################

data_DUJWEM
_symmetry_cell_setting           triclinic
_symmetry_space_group_name_H-M   'P -1'
_symmetry_Int_Tables_number      2
_space_group_name_Hall           '-P 1'
loop_
_symmetry_equiv_pos_site_id
_symmetry_equiv_pos_as_xyz
1 x,y,z
2 -x,-y,-z
_cell_length_a                   11.313(5)
_cell_length_b                   11.340(5)
_cell_length_c                   12.933(5)
_cell_angle_alpha                92.284(5)
_cell_angle_beta                 96.329(5)
_cell_angle_gamma                110.977(5)
_cell_volume                     1534.13
loop_
_atom_site_label
_atom_site_type_symbol
_atom_site_fract_x
_atom_site_fract_y
_atom_site_fract_z
Ni1 Ni 0.54721(3) 0.21381(3) 0.78798(2)
O1 O 0.37670(16) 0.25501(17) 0.72939(13)
O2 O 0.47568(16) 0.30637(17) 0.88891(13)
O3 O 0.43197(18) 0.00679(17) 0.78260(14)
C1 C 0.3851(2) 0.3022(2) 0.82060(18)
O4 O 0.56969(17) 0.09307(15) 0.67599(13)
N1 N 0.82057(19) 0.4729(2) 0.63993(16)
C2 C 0.4942(2) -0.0044(2) 0.71103(18)
C3 C 0.5226(3) -0.1433(2) 0.56916(19)
H1 H 0.5520 -0.0723 0.5320
N2 N 0.8089(2) 0.1033(2) 0.97372(17)
N3 N 0.67121(18) 0.36945(18) 0.73301(15)
C4 C 0.2874(2) 0.3525(2) 0.85155(19)
C5 C 0.9142(2) 0.4912(3) 0.5694(2)
C6 C 0.9614(2) 0.4215(3) 0.4034(2)
C7 C -0.0015(2) 0.4728(3) 0.9536(2)
H2 H -0.0751 0.4555 0.9065
C8 C 0.4775(2) -0.3660(2) 0.58258(19)
N4 N 0.67255(19) 0.1811(2) 0.89770(15)
C9 C 0.2212(3) 0.4715(3) 0.9760(2)
H3 H 0.2408 0.5249 1.0370
C10 C 0.9060(2) 0.0490(3) 0.9860(2)
C11 C 0.7505(2) 0.3598(2) 0.66940(19)
H4 H 0.7573 0.2837 0.6474
C12 C 0.4755(3) -0.4895(2) 0.5426(2)
H5 H 0.4370 -0.5588 0.5795
C13 C 0.1009(2) 0.4367(3) 0.9176(2)
C14 C 0.5178(3) -0.2588(2) 0.5277(2)
H6 H 0.5419 -0.2652 0.4619
C15 C 0.4399(2) -0.2382(2) 0.72025(19)
H7 H 0.4118 -0.2321 0.7845
C16 C 0.8773(2) 0.4158(3) 0.4757(2)
H8 H 0.7932 0.3593 0.4606
C17 C 0.6908(2) 0.4966(2) 0.7441(2)
H9 H 0.6471 0.5324 0.7845
C18 C 0.4837(2) -0.1318(2) 0.66642(18)
C19 C 0.3114(2) 0.4275(3) 0.9441(2)
H10 H 0.3898 0.4487 0.9856
C20 C 0.7660(3) 0.1413(3) 0.8851(2)
H11 H 0.7986 0.1396 0.8223
C21 C 0.4373(3) -0.3540(2) 0.6795(2)
H12 H 0.4084 -0.4248 0.7172
C22 C 0.0792(3) 0.3654(3) 0.8230(2)
H13 H 0.0012 0.3449 0.7810
C23 C 1.0243(3) 0.1212(3) 1.0395(2)
H14 H 1.0388 0.2033 1.0662
C24 C 1.1219(3) 0.0744(3) 1.0545(2)
C25 C 0.1712(2) 0.3240(3) 0.7896(2)
H15 H 0.1549 0.2770 0.7256
C26 C 0.7828(3) 0.5613(3) 0.6877(2)
H16 H 0.8143 0.6484 0.6823
C27 C 0.9165(3) 0.3401(3) 0.3020(2)
H17 H 0.9448 0.3911 0.2456
H18 H 0.8250 0.3029 0.2921
H19 H 0.9512 0.2742 0.3034
C28 C 0.7368(3) 0.1185(4) 1.0471(2)
H20 H 0.7434 0.0999 1.1164
C29 C 0.6539(3) 0.1659(4) 0.9992(2)
H21 H 0.5926 0.1855 1.0309
C30 C 1.2513(3) 0.1557(3) 1.1122(4)
H22 H 1.2639 0.1234 1.1784
H23 H 1.2553 0.2413 1.1233
H24 H 1.3168 0.1539 1.0716
O1A O -0.37670(16) 0.74499(17) 1.27061(13)
O2A O -0.47568(16) 0.69363(17) 1.11109(13)
C1A C -0.3851(2) 0.6978(2) 1.17940(18)
C4A C -0.2874(2) 0.6475(2) 1.14845(19)
C7A C 0.0015(2) 0.5272(3) 1.0464(2)
H2A H 0.0751 0.5445 1.0935
C9A C -0.2212(3) 0.5285(3) 1.0240(2)
H3A H -0.2408 0.4751 0.9630
C13A C -0.1009(2) 0.5633(3) 1.0824(2)
C19A C -0.3114(2) 0.5725(3) 1.0559(2)
H10A H -0.3898 0.5513 1.0144
C22A C -0.0792(3) 0.6346(3) 1.1770(2)
H13A H -0.0012 0.6551 1.2190
C25A C -0.1712(2) 0.6760(3) 1.2104(2)
H15A H -0.1549 0.7230 1.2744
O3A O 0.56803(18) -1.00679(17) 0.21740(14)
O4A O 0.43031(17) -1.09307(15) 0.32401(13)
C2A C 0.5058(2) -0.9956(2) 0.28897(18)
C3A C 0.4774(3) -0.8567(2) 0.43084(19)
H1A H 0.4480 -0.9277 0.4680
C8A C 0.5225(2) -0.6340(2) 0.41742(19)
C12A C 0.5245(3) -0.5105(2) 0.4574(2)
H5A H 0.5630 -0.4412 0.4205
C14A C 0.4822(3) -0.7412(2) 0.4723(2)
H6A H 0.4581 -0.7348 0.5381
C15A C 0.5601(2) -0.7618(2) 0.27975(19)
H7A H 0.5882 -0.7679 0.2155
C18A C 0.5163(2) -0.8682(2) 0.33358(18)
C21A C 0.5627(3) -0.6460(2) 0.3205(2)
H12A H 0.5916 -0.5752 0.2828
N1A N 1.17943(19) 0.5271(2) 0.36007(16)
N3A N 1.32879(18) 0.63055(18) 0.26699(15)
C5A C 1.0858(2) 0.5088(3) 0.4306(2)
C6A C 1.0386(2) 0.5785(3) 0.5966(2)
C11A C 1.2495(2) 0.6402(2) 0.33060(19)
H4A H 1.2427 0.7163 0.3526
C16A C 1.1227(2) 0.5842(3) 0.5243(2)
H8A H 1.2068 0.6407 0.5394
C17A C 1.3092(2) 0.5034(2) 0.2559(2)
H9A H 1.3529 0.4676 0.2155
C26A C 1.2172(3) 0.4387(3) 0.3123(2)
H16A H 1.1857 0.3516 0.3177
C27A C 1.0835(3) 0.6599(3) 0.6980(2)
H17A H 1.0552 0.6089 0.7544
H18A H 1.1750 0.6971 0.7079
H19A H 1.0488 0.7258 0.6966
N2A N 1.1911(2) -0.1033(2) 1.02628(17)
N4A N 1.32745(19) -0.1811(2) 1.10230(15)
C10A C 1.0940(2) -0.0490(3) 1.0140(2)
C20A C 1.2340(3) -0.1413(3) 1.1149(2)
H11A H 1.2014 -0.1396 1.1777
C23A C 0.9757(3) -0.1212(3) 0.9605(2)
H14A H 0.9612 -0.2033 0.9338
C24A C 0.8781(3) -0.0744(3) 0.9455(2)
C28A C 1.2632(3) -0.1185(4) 0.9529(2)
H20A H 1.2566 -0.0999 0.8836
C29A C 1.3461(3) -0.1659(4) 1.0008(2)
H21A H 1.4074 -0.1855 0.9691
C30A C 0.7487(3) -0.1557(3) 0.8878(4)
H22A H 0.7361 -0.1234 0.8216
H23A H 0.7447 -0.2413 0.8767
H24A H 0.6832 -0.1539 0.9284
Ni1A Ni -0.54721(3) 0.78619(3) 1.21202(2)
Ni1A_2 Ni 0.45279(3) -1.21381(3) 0.21202(2)
Ni1A_3 Ni 1.45279(3) -0.21381(3) 1.21202(2)
Ni1A_4 Ni 1.45279(3) 0.78619(3) 0.21202(2)
O3A_2 O -0.43197(18) 0.99321(17) 1.21740(14)
O4A_2 O -0.56969(17) 0.90693(15) 1.32401(13)
N3A_2 N -0.67121(18) 0.63055(18) 1.26699(15)
N4A_2 N -0.67255(19) 0.8189(2) 1.10230(15)
N5 N 0.8439(4) 0.9832(4) 0.5258(4)
O5 O 0.8934(7) 0.8431(8) 0.6125(9)
C31 C 0.7967(6) 1.0194(8) 0.4215(6)
H25 H 0.7377 1.0607 0.4318
H26 H 0.7547 0.9445 0.3746
H27 H 0.8680 1.0759 0.3921
C32 C 0.8731(8) 1.0818(8) 0.6180(6)
H28 H 0.9365 1.1598 0.6034
H29 H 0.9047 1.0517 0.6795
H30 H 0.7966 1.0959 0.6293
C33 C 0.8460(7) 0.8652(6) 0.5205(9)
H31 H 0.8185 0.8082 0.4613
loop_
_geom_bond_atom_site_label_1
_geom_bond_atom_site_label_2
_geom_bond_site_symmetry_1
_geom_bond_site_symmetry_2
Ni1 O1 1_555 1_555
O1 C1 1_555 1_555
O2 Ni1 1_555 1_555
O3 Ni1 1_555 1_555
C1 O2 1_555 1_555
O4 Ni1 1_555 1_555
N1 C5 1_555 1_555
C2 O3 1_555 1_555
C3 H1 1_555 1_555
N2 C10 1_555 1_555
N3 Ni1 1_555 1_555
C4 C1 1_555 1_555
C5 C16 1_555 1_555
C6 C16 1_555 1_555
C7 H2 1_555 1_555
C8 C12 1_555 1_555
N4 Ni1 1_555 1_555
C9 H3 1_555 1_555
C10 C23 1_555 1_555
C11 N1 1_555 1_555
H4 C11 1_555 1_555
C12 H5 1_555 1_555
C13 C7 1_555 1_555
C14 C3 1_555 1_555
H6 C14 1_555 1_555
C15 H7 1_555 1_555
C16 H8 1_555 1_555
C17 N3 1_555 1_555
H9 C17 1_555 1_555
C18 C2 1_555 1_555
C19 C4 1_555 1_555
H10 C19 1_555 1_555
C20 N2 1_555 1_555
H11 C20 1_555 1_555
C21 C8 1_555 1_555
H12 C21 1_555 1_555
C22 C13 1_555 1_555
H13 C22 1_555 1_555
C23 H14 1_555 1_555
C24 C23 1_555 1_555
C25 C4 1_555 1_555
H15 C25 1_555 1_555
C26 N1 1_555 1_555
H16 C26 1_555 1_555
C27 C6 1_555 1_555
H17 C27 1_555 1_555
H18 C27 1_555 1_555
H19 C27 1_555 1_555
C28 N2 1_555 1_555
H20 C28 1_555 1_555
C29 N4 1_555 1_555
H21 C29 1_555 1_555
C30 C24 1_555 1_555
H22 C30 1_555 1_555
H23 C30 1_555 1_555
H24 C30 1_555 1_555
N5 C31 1_555 1_555
O5 C33 1_555 1_555
C31 H25 1_555 1_555
H26 C31 1_555 1_555
H27 C31 1_555 1_555
C32 N5 1_555 1_555
H28 C32 1_555 1_555
H29 C32 1_555 1_555
H30 C32 1_555 1_555
C33 N5 1_555 1_555
H31 C33 1_555 1_555
O1A C1A 1_555 1_555
O2A C1A 1_555 1_555
C1A C4A 1_555 1_555
C4A C19A 1_555 1_555
C7A C7 1_555 1_555
H2A C7A 1_555 1_555
C9A H3A 1_555 1_555
C13A C7A 1_555 1_555
C19A C9A 1_555 1_555
H10A C19A 1_555 1_555
C22A C13A 1_555 1_555
H13A C22A 1_555 1_555
C25A C4A 1_555 1_555
H15A C25A 1_555 1_555
O3A C2A 1_555 1_555
O4A C2A 1_555 1_555
C2A C18A 1_555 1_555
C3A H1A 1_555 1_555
C8A C12A 1_555 1_555
C12A C12 1_555 1_555
H5A C12A 1_555 1_555
C14A C3A 1_555 1_555
H6A C14A 1_555 1_555
C15A H7A 1_555 1_555
C18A C3A 1_555 1_555
C21A C8A 1_555 1_555
H12A C21A 1_555 1_555
N1A C5A 1_555 1_555
N3A C11A 1_555 1_555
C5A C6 1_555 1_555
C6A C5 1_555 1_555
C11A N1A 1_555 1_555
H4A C11A 1_555 1_555
C16A C5A 1_555 1_555
H8A C16A 1_555 1_555
C17A N3A 1_555 1_555
H9A C17A 1_555 1_555
C26A N1A 1_555 1_555
H16A C26A 1_555 1_555
C27A C6A 1_555 1_555
H17A C27A 1_555 1_555
H18A C27A 1_555 1_555
H19A C27A 1_555 1_555
N2A C10A 1_555 1_555
N4A C20A 1_555 1_555
C10A C24 1_555 1_555
C20A N2A 1_555 1_555
H11A C20A 1_555 1_555
C23A C10A 1_555 1_555
H14A C23A 1_555 1_555
C24A C10 1_555 1_555
C28A N2A 1_555 1_555
H20A C28A 1_555 1_555
C29A N4A 1_555 1_555
H21A C29A 1_555 1_555
C30A C24A 1_555 1_555
H22A C30A 1_555 1_555
H23A C30A 1_555 1_555
H24A C30A 1_555 1_555
Ni1A O1A 1_555 1_555
Ni1A_2 O3A 1_555 1_555
Ni1A_3 N4A 1_555 1_555
Ni1A_4 N3A 1_555 1_555
O3A_2 Ni1A 1_555 1_555
O4A_2 Ni1A 1_555 1_555
N3A_2 Ni1A 1_555 1_555
N4A_2 Ni1A 1_555 1_555
O4 C2 1_555 1_555
C3 C18 1_555 1_555
N3 C11 1_555 1_555
C8 C14 1_555 1_555
N4 C20 1_555 1_555
C9 C13 1_555 1_555
C9 C19 1_555 1_555
C15 C18 1_555 1_555
C15 C21 1_555 1_555
C17 C26 1_555 1_555
C22 C25 1_555 1_555
C28 C29 1_555 1_555
O2A Ni1A 1_555 1_555
C9A C13A 1_555 1_555
C22A C25A 1_555 1_555
O4A Ni1A_2 1_555 1_555
C8A C14A 1_555 1_555
C15A C18A 1_555 1_555
C15A C21A 1_555 1_555
C6A C16A 1_555 1_555
C17A C26A 1_555 1_555
C23A C24A 1_555 1_555
C28A C29A 1_555 1_555

#END
