
#######################################################################
#
#                 Cambridge Crystallographic Data Centre
#                                CCDC 
#
#######################################################################
#
# If this CIF has been generated from an entry in the Cambridge 
# Structural Database, then it will include bibliographic, chemical, 
# crystal, experimental, refinement or atomic coordinate data resulting 
# from the CCDC's data processing and validation procedures.
#
#######################################################################

data_DUKHEY
_symmetry_cell_setting           triclinic
_symmetry_space_group_name_H-M   'P -1'
_symmetry_Int_Tables_number      2
_space_group_name_Hall           '-P 1'
loop_
_symmetry_equiv_pos_site_id
_symmetry_equiv_pos_as_xyz
1 x,y,z
2 -x,-y,-z
_cell_length_a                   9.0456(4)
_cell_length_b                   10.8405(5)
_cell_length_c                   14.9413(6)
_cell_angle_alpha                73.393(3)
_cell_angle_beta                 83.369(4)
_cell_angle_gamma                68.356(3)
_cell_volume                     1304.94
loop_
_atom_site_label
_atom_site_type_symbol
_atom_site_fract_x
_atom_site_fract_y
_atom_site_fract_z
Co1 Co 0.5000 0.5000 0.5000
Co2 Co 0.0000 1.0000 0.5000
N1 N 0.9059(3) 0.1532(2) 0.56878(15)
C1 C 0.8258(3) 0.2488(2) 0.59397(16)
S1 S 0.71075(8) 0.38404(6) 0.62856(4)
N2 N 0.3960(2) 0.6495(2) 0.57045(14)
C2 C 0.3273(3) 0.7504(3) 0.59180(16)
S2 S 0.22997(8) 0.89464(7) 0.62019(5)
N3 N 0.6392(2) 0.6184(2) 0.41734(14)
C3 C 0.7899(3) 0.5561(3) 0.39358(19)
H1 H 0.8374 0.4594 0.4178
C4 C 0.8799(3) 0.6265(3) 0.33520(19)
H2 H 0.9866 0.5778 0.3203
C5 C 0.8150(3) 0.7666(3) 0.29868(17)
C6 C 0.6581(3) 0.8316(3) 0.32430(18)
H3 H 0.6082 0.9283 0.3014
C7 C 0.5759(3) 0.7555(3) 0.38259(18)
H4 H 0.4693 0.8019 0.3991
C8 C 0.9072(3) 0.8478(3) 0.23395(19)
H5 H 1.0180 0.7852 0.2289
H6 H 0.9106 0.9191 0.2619
C9 C 0.8396(3) 0.9168(3) 0.13675(18)
C10 C 0.7784(4) 0.8513(3) 0.0905(2)
H7 H 0.7749 0.7628 0.1217
C11 C 0.7229(4) 0.9126(3) 0.0001(2)
H8 H 0.6807 0.8671 -0.0303
C12 C 0.7295(4) 1.0402(3) -0.04520(19)
C13 C 0.7886(4) 1.1074(3) -0.0014(2)
H9 H 0.7929 1.1954 -0.0333
C14 C 0.8420(3) 1.0460(3) 0.0896(2)
H10 H 0.8809 1.0935 0.1201
Cl1 Cl 0.66277(12) 1.11876(10) -0.15946(5)
N4 N -0.1291(3) 0.8826(2) 0.59214(14)
C15 C -0.1874(3) 0.8038(3) 0.56237(19)
H11 H -0.1711 0.8017 0.4988
C16 C -0.2694(3) 0.7264(3) 0.61932(19)
H12 H -0.3078 0.6723 0.5947
C17 C -0.2963(3) 0.7266(3) 0.71213(19)
C18 C -0.2372(4) 0.8089(3) 0.7425(2)
H13 H -0.2526 0.8134 0.8056
C19 C -0.1565(4) 0.8839(3) 0.68143(19)
H14 H -0.1181 0.9397 0.7042
C20 C -0.3884(4) 0.6438(4) 0.7758(2)
H15 H -0.5025 0.7022 0.7737
H16 H -0.3777 0.5649 0.7515
C21 C -0.3363(3) 0.5899(3) 0.87602(19)
C22 C -0.4291(4) 0.6451(3) 0.9449(2)
H17 H -0.5266 0.7197 0.9285
C23 C -0.3827(4) 0.5937(4) 1.0377(2)
H18 H -0.4483 0.6324 1.0844
C24 C -0.2419(4) 0.4869(4) 1.0612(2)
C25 C -0.1454(4) 0.4308(4) 0.9940(3)
H19 H -0.0467 0.3578 1.0107
C26 C -0.1935(4) 0.4819(3) 0.9025(2)
H20 H -0.1275 0.4424 0.8563
Cl2 Cl -0.18549(17) 0.42028(16) 1.17741(7)
N2A N -0.3960(2) 1.3505(2) 0.42955(14)
C2A C -0.3273(3) 1.2496(3) 0.40820(16)
S2A S -0.22997(8) 1.10536(7) 0.37981(5)
N4A N 0.1291(3) 1.1174(2) 0.40786(14)
C15A C 0.1874(3) 1.1962(3) 0.43763(19)
H11A H 0.1711 1.1983 0.5012
C16A C 0.2694(3) 1.2736(3) 0.38068(19)
H12A H 0.3078 1.3277 0.4053
C17A C 0.2963(3) 1.2734(3) 0.28787(19)
C18A C 0.2372(4) 1.1911(3) 0.2575(2)
H13A H 0.2526 1.1866 0.1944
C19A C 0.1565(4) 1.1161(3) 0.31857(19)
H14A H 0.1181 1.0603 0.2958
C20A C 0.3884(4) 1.3562(4) 0.2242(2)
H15A H 0.5025 1.2978 0.2263
H16A H 0.3777 1.4351 0.2485
C21A C 0.3363(3) 1.4101(3) 0.12398(19)
C22A C 0.4291(4) 1.3549(3) 0.0551(2)
H17A H 0.5266 1.2803 0.0715
C23A C 0.3827(4) 1.4063(4) -0.0377(2)
H18A H 0.4483 1.3676 -0.0844
C24A C 0.2419(4) 1.5131(4) -0.0612(2)
C25A C 0.1454(4) 1.5692(4) 0.0060(3)
H19A H 0.0467 1.6422 -0.0107
C26A C 0.1935(4) 1.5181(3) 0.0975(2)
H20A H 0.1275 1.5576 0.1437
Cl2A Cl 0.18549(17) 1.57972(16) -0.17741(7)
N3A N 0.3608(2) 0.3816(2) 0.58266(14)
C3A C 0.2101(3) 0.4439(3) 0.60642(19)
H1A H 0.1626 0.5406 0.5822
C4A C 0.1201(3) 0.3735(3) 0.66480(19)
H2A H 0.0134 0.4222 0.6797
C5A C 0.1850(3) 0.2334(3) 0.70132(17)
C6A C 0.3419(3) 0.1684(3) 0.67570(18)
H3A H 0.3918 0.0717 0.6986
C7A C 0.4241(3) 0.2445(3) 0.61741(18)
H4A H 0.5307 0.1981 0.6009
C8A C 0.0928(3) 0.1522(3) 0.76605(19)
H5A H -0.0180 0.2148 0.7711
H6A H 0.0894 0.0809 0.7381
C9A C 0.1604(3) 0.0832(3) 0.86325(18)
C10A C 0.2216(4) 0.1487(3) 0.9095(2)
H7A H 0.2251 0.2372 0.8783
C11A C 0.2771(4) 0.0874(3) 0.9999(2)
H8A H 0.3193 0.1329 1.0303
C12A C 0.2705(4) -0.0402(3) 1.04520(19)
C13A C 0.2114(4) -0.1074(3) 1.0014(2)
H9A H 0.2071 -0.1954 1.0333
C14A C 0.1580(3) -0.0460(3) 0.9104(2)
H10A H 0.1191 -0.0935 0.8799
Cl1A Cl 0.33723(12) -0.11876(10) 1.15946(5)
N1A N 0.0941(3) 0.8468(2) 0.43122(15)
C1A C 0.1742(3) 0.7512(2) 0.40603(16)
S1A S 0.28925(8) 0.61596(6) 0.37144(4)
Co1_2 Co -0.5000 1.5000 0.5000
Co2_2 Co 1.0000 0.0000 0.5000
N1_2 N -0.0941(3) 1.1532(2) 0.56878(15)
N2A_2 N 0.6040(2) 0.3505(2) 0.42955(14)
loop_
_geom_bond_atom_site_label_1
_geom_bond_atom_site_label_2
_geom_bond_site_symmetry_1
_geom_bond_site_symmetry_2
Co1 S1 1_555 1_555
Co2 S2 1_555 1_555
N1 C1 1_555 1_555
C1 S1 1_555 1_555
N2 Co1 1_555 1_555
C2 N2 1_555 1_555
S2 C2 1_555 1_555
N3 Co1 1_555 1_555
C3 N3 1_555 1_555
H1 C3 1_555 1_555
C4 C3 1_555 1_555
H2 C4 1_555 1_555
C5 C4 1_555 1_555
C6 C5 1_555 1_555
H3 C6 1_555 1_555
C7 N3 1_555 1_555
H4 C7 1_555 1_555
C8 C5 1_555 1_555
H5 C8 1_555 1_555
H6 C8 1_555 1_555
C9 C8 1_555 1_555
C10 C9 1_555 1_555
H7 C10 1_555 1_555
C11 C10 1_555 1_555
H8 C11 1_555 1_555
C12 C11 1_555 1_555
C13 C12 1_555 1_555
H9 C13 1_555 1_555
C14 C9 1_555 1_555
H10 C14 1_555 1_555
Cl1 C12 1_555 1_555
N4 Co2 1_555 1_555
C15 N4 1_555 1_555
H11 C15 1_555 1_555
C16 C15 1_555 1_555
H12 C16 1_555 1_555
C17 C16 1_555 1_555
C18 C17 1_555 1_555
H13 C18 1_555 1_555
C19 N4 1_555 1_555
H14 C19 1_555 1_555
C20 C17 1_555 1_555
H15 C20 1_555 1_555
H16 C20 1_555 1_555
C21 C20 1_555 1_555
C22 C21 1_555 1_555
H17 C22 1_555 1_555
C23 C22 1_555 1_555
H18 C23 1_555 1_555
C24 C23 1_555 1_555
C25 C24 1_555 1_555
H19 C25 1_555 1_555
C26 C21 1_555 1_555
H20 C26 1_555 1_555
Cl2 C24 1_555 1_555
N2A C2A 1_555 1_555
C2A S2A 1_555 1_555
S2A Co2 1_555 1_555
N4A Co2 1_555 1_555
C15A N4A 1_555 1_555
H11A C15A 1_555 1_555
C16A C15A 1_555 1_555
H12A C16A 1_555 1_555
C17A C16A 1_555 1_555
C18A C17A 1_555 1_555
H13A C18A 1_555 1_555
C19A N4A 1_555 1_555
H14A C19A 1_555 1_555
C20A C17A 1_555 1_555
H15A C20A 1_555 1_555
H16A C20A 1_555 1_555
C21A C20A 1_555 1_555
C22A C21A 1_555 1_555
H17A C22A 1_555 1_555
C23A C22A 1_555 1_555
H18A C23A 1_555 1_555
C24A C23A 1_555 1_555
C25A C24A 1_555 1_555
H19A C25A 1_555 1_555
C26A C21A 1_555 1_555
H20A C26A 1_555 1_555
Cl2A C24A 1_555 1_555
N3A Co1 1_555 1_555
C3A N3A 1_555 1_555
H1A C3A 1_555 1_555
C4A C3A 1_555 1_555
H2A C4A 1_555 1_555
C5A C4A 1_555 1_555
C6A C5A 1_555 1_555
H3A C6A 1_555 1_555
C7A N3A 1_555 1_555
H4A C7A 1_555 1_555
C8A C5A 1_555 1_555
H5A C8A 1_555 1_555
H6A C8A 1_555 1_555
C9A C8A 1_555 1_555
C10A C9A 1_555 1_555
H7A C10A 1_555 1_555
C11A C10A 1_555 1_555
H8A C11A 1_555 1_555
C12A C11A 1_555 1_555
C13A C12A 1_555 1_555
H9A C13A 1_555 1_555
C14A C9A 1_555 1_555
H10A C14A 1_555 1_555
Cl1A C12A 1_555 1_555
N1A Co2 1_555 1_555
C1A N1A 1_555 1_555
S1A Co1 1_555 1_555
Co1_2 N2A 1_555 1_555
Co2_2 N1 1_555 1_555
N1_2 Co2 1_555 1_555
N2A_2 Co1 1_555 1_555
C6 C7 1_555 1_555
C13 C14 1_555 1_555
C18 C19 1_555 1_555
C25 C26 1_555 1_555
C18A C19A 1_555 1_555
C25A C26A 1_555 1_555
C6A C7A 1_555 1_555
C13A C14A 1_555 1_555
C1A S1A 1_555 1_555

#END
