
#######################################################################
#
#                 Cambridge Crystallographic Data Centre
#                                CCDC 
#
#######################################################################
#
# If this CIF has been generated from an entry in the Cambridge 
# Structural Database, then it will include bibliographic, chemical, 
# crystal, experimental, refinement or atomic coordinate data resulting 
# from the CCDC's data processing and validation procedures.
#
#######################################################################

data_DUKMUT
_symmetry_cell_setting           monoclinic
_symmetry_space_group_name_H-M   'C 2/c'
_symmetry_Int_Tables_number      15
_space_group_name_Hall           '-C 2yn'
loop_
_symmetry_equiv_pos_site_id
_symmetry_equiv_pos_as_xyz
1 x,y,z
2 -x,y,1/2-z
3 1/2+x,1/2+y,z
4 1/2-x,1/2+y,1/2-z
5 -x,-y,-z
6 x,-y,1/2+z
7 1/2-x,1/2-y,-z
8 1/2+x,1/2-y,1/2+z
_cell_length_a                   14.183(3)
_cell_length_b                   10.689(2)
_cell_length_c                   18.515(4)
_cell_angle_alpha                90
_cell_angle_beta                 107.31(3)
_cell_angle_gamma                90
_cell_volume                     2679.78
loop_
_atom_site_label
_atom_site_type_symbol
_atom_site_fract_x
_atom_site_fract_y
_atom_site_fract_z
Mn1 Mn 0.13366(4) 0.74420(5) 0.28613(3)
O1 O 0.3492(2) 0.8307(3) 0.27829(15)
O2 O 0.2633(2) 0.8105(3) 0.36036(18)
O3 O 0.4406(2) 0.7935(3) 0.63555(17)
O4 O 0.6038(2) 0.7999(3) 0.67225(14)
O5 O 0.1808(3) 0.5487(3) 0.30164(16)
H1 H 0.1824 0.5255 0.3442
H2 H 0.1771 0.4886 0.2706
O6 O 0.69039(17) 0.9216(3) 0.43663(13)
N1 N 0.0517(3) 0.9264(3) 0.26052(19)
N2 N -0.0238(6) 1.1192(7) 0.2592(5)
N3 N 0.1523(5) 1.1055(7) 0.2962(5)
H3 H 0.1997 1.1097 0.2730
H4 H 0.1702 1.1217 0.3462
C1 C 0.3422(3) 0.8267(3) 0.3442(2)
C2 C 0.4346(2) 0.8399(3) 0.40997(18)
C3 C 0.5218(3) 0.8724(3) 0.39605(18)
H5 H 0.5230 0.8856 0.3467
C4 C 0.6073(2) 0.8852(3) 0.45536(18)
C5 C 0.6075(2) 0.8618(3) 0.52893(17)
H6 H 0.6658 0.8680 0.5686
C6 C 0.5202(2) 0.8292(3) 0.54289(17)
C7 C 0.4330(2) 0.8198(3) 0.48389(19)
H7 H 0.3741 0.8001 0.4937
C8 C 0.5215(3) 0.8063(3) 0.62314(19)
C9 C 0.7802(2) 0.9415(4) 0.4965(2)
H8 H 0.7991 0.8658 0.5262
H9 H 0.7714 1.0078 0.5297
C10 C 0.8586(3) 0.9774(4) 0.4604(2)
H10 H 0.8419 1.0575 0.4352
H11 H 0.8605 0.9156 0.4224
C11 C 0.9598(2) 0.9862(3) 0.5184(2)
H12 H 0.9746 0.9079 0.5459
H13 H 0.9591 1.0519 0.5544
C12 C 0.0763(5) 1.0449(5) 0.2669(3)
O1D O 1.6508(2) 1.1693(3) 0.72171(15)
O2D O 1.7367(2) 1.1895(3) 0.63964(18)
O3D O 1.5594(2) 1.2065(3) 0.36445(17)
O4D O 1.3962(2) 1.2001(3) 0.32775(14)
O6D O 1.30961(17) 1.0784(3) 0.56337(13)
C1D C 1.6578(3) 1.1733(3) 0.6558(2)
C2D C 1.5654(2) 1.1601(3) 0.59003(18)
C3D C 1.4782(3) 1.1276(3) 0.60395(18)
H5D H 1.4770 1.1144 0.6533
C4D C 1.3927(2) 1.1148(3) 0.54464(18)
C5D C 1.3925(2) 1.1382(3) 0.47107(17)
H6D H 1.3342 1.1320 0.4314
C6D C 1.4798(2) 1.1708(3) 0.45711(17)
C7D C 1.5670(2) 1.1802(3) 0.51611(19)
H7D H 1.6259 1.1999 0.5063
C8D C 1.4785(3) 1.1937(3) 0.37686(19)
C9D C 1.2198(2) 1.0585(4) 0.5035(2)
H8D H 1.2009 1.1342 0.4738
H9D H 1.2286 0.9922 0.4703
C10D C 1.1414(3) 1.0226(4) 0.5396(2)
H10D H 1.1581 0.9425 0.5648
H11D H 1.1395 1.0844 0.5776
C11D C 1.0402(2) 1.0138(3) 0.4816(2)
H12D H 1.0254 1.0921 0.4541
H13D H 1.0409 0.9481 0.4456
N1A N -0.0517(3) 0.9264(3) 0.23948(19)
N2A N 0.0238(6) 1.1192(7) 0.2408(5)
N3A N -0.1523(5) 1.1055(7) 0.2038(5)
H3A H -0.1997 1.1097 0.2270
H4A H -0.1702 1.1217 0.1538
C12A C -0.0763(5) 1.0449(5) 0.2331(3)
Mn1A Mn -0.13366(4) 0.74420(5) 0.21387(3)
O5A O -0.1808(3) 0.5487(3) 0.19836(16)
H1A H -0.1824 0.5255 0.1558
H2A H -0.1771 0.4886 0.2294
Mn1B Mn 1.63366(4) 1.24420(5) 0.28613(3)
Mn1C Mn 1.36634(4) 1.24420(5) 0.21387(3)
Mn1D Mn 1.86634(4) 1.25580(5) 0.71387(3)
Mn1F Mn 0.36634(4) 0.75580(5) 0.71387(3)
Mn1G Mn 0.63366(4) 0.75580(5) 0.78613(3)
O2A O -0.2633(2) 0.8105(3) 0.13964(18)
O3F O 0.0594(2) 0.7065(3) 0.36445(17)
O3G O -0.0594(2) 0.7065(3) 0.13555(17)
O4F O -0.1038(2) 0.7001(3) 0.32775(14)
O4G O 0.1038(2) 0.7001(3) 0.17225(14)
loop_
_geom_bond_atom_site_label_1
_geom_bond_atom_site_label_2
_geom_bond_site_symmetry_1
_geom_bond_site_symmetry_2
Mn1 O2 1_555 1_555
O1 C1 1_555 1_555
O2 C1 1_555 1_555
O3 C8 1_555 1_555
O4 C8 1_555 1_555
O5 Mn1 1_555 1_555
H1 O5 1_555 1_555
H2 O5 1_555 1_555
O6 C4 1_555 1_555
N1 Mn1 1_555 1_555
N2 C12 1_555 1_555
N3 H3 1_555 1_555
H4 N3 1_555 1_555
C1 C2 1_555 1_555
C2 C3 1_555 1_555
C3 H5 1_555 1_555
C4 C3 1_555 1_555
C5 C4 1_555 1_555
H6 C5 1_555 1_555
C6 C5 1_555 1_555
C7 C2 1_555 1_555
H7 C7 1_555 1_555
C8 C6 1_555 1_555
C9 O6 1_555 1_555
H8 C9 1_555 1_555
H9 C9 1_555 1_555
C10 C9 1_555 1_555
H10 C10 1_555 1_555
H11 C10 1_555 1_555
C11 C10 1_555 1_555
H12 C11 1_555 1_555
H13 C11 1_555 1_555
C12 N1 1_555 1_555
O1D C1D 1_555 1_555
O2D C1D 1_555 1_555
O3D C8D 1_555 1_555
O4D C8D 1_555 1_555
O6D C4D 1_555 1_555
C1D C2D 1_555 1_555
C2D C3D 1_555 1_555
C3D H5D 1_555 1_555
C4D C3D 1_555 1_555
C5D C4D 1_555 1_555
H6D C5D 1_555 1_555
C6D C5D 1_555 1_555
C7D C2D 1_555 1_555
H7D C7D 1_555 1_555
C8D C6D 1_555 1_555
C9D O6D 1_555 1_555
H8D C9D 1_555 1_555
H9D C9D 1_555 1_555
C10D C9D 1_555 1_555
H10D C10D 1_555 1_555
H11D C10D 1_555 1_555
C11D C11 1_555 1_555
H12D C11D 1_555 1_555
H13D C11D 1_555 1_555
N1A N1 1_555 1_555
N2A N2 1_555 1_555
N3A H3A 1_555 1_555
H4A N3A 1_555 1_555
C12A N2 1_555 1_555
Mn1A N1A 1_555 1_555
O5A Mn1A 1_555 1_555
H1A O5A 1_555 1_555
H2A O5A 1_555 1_555
Mn1B O3D 1_555 1_555
Mn1C O4D 1_555 1_555
Mn1D O2D 1_555 1_555
Mn1F O3 1_555 1_555
Mn1G O4 1_555 1_555
O2A Mn1A 1_555 1_555
O3F Mn1 1_555 1_555
O3G Mn1A 1_555 1_555
O4F Mn1A 1_555 1_555
O4G Mn1 1_555 1_555
N3 C12 1_555 1_555
C6 C7 1_555 1_555
C12 N2A 1_555 1_555
C6D C7D 1_555 1_555
C10D C11D 1_555 1_555
N1A C12A 1_555 1_555
N2A C12A 1_555 1_555
N3A C12A 1_555 1_555

#END
