
#######################################################################
#
#                 Cambridge Crystallographic Data Centre
#                                CCDC 
#
#######################################################################
#
# If this CIF has been generated from an entry in the Cambridge 
# Structural Database, then it will include bibliographic, chemical, 
# crystal, experimental, refinement or atomic coordinate data resulting 
# from the CCDC's data processing and validation procedures.
#
#######################################################################

data_DUKMEC
_symmetry_cell_setting           triclinic
_symmetry_space_group_name_H-M   'P -1'
_symmetry_Int_Tables_number      2
_space_group_name_Hall           '-P 1'
loop_
_symmetry_equiv_pos_site_id
_symmetry_equiv_pos_as_xyz
1 x,y,z
2 -x,-y,-z
_cell_length_a                   10.4520(19)
_cell_length_b                   10.5252(19)
_cell_length_c                   10.6733(19)
_cell_angle_alpha                102.869(2)
_cell_angle_beta                 103.536(2)
_cell_angle_gamma                94.834(2)
_cell_volume                     1101.29
loop_
_atom_site_label
_atom_site_type_symbol
_atom_site_fract_x
_atom_site_fract_y
_atom_site_fract_z
Cd1 Cd 0.0000 0.0000 0.5000
Cu1 Cu 0.5000 0.0000 0.5000
N1 N 0.44406(17) 0.04440(17) 0.32615(17)
O1 O 0.30942(15) -0.02363(16) 0.48585(15)
O2 O 0.11497(15) -0.03483(18) 0.34073(16)
O3 O 0.1713(2) -0.0467(2) -0.13119(19)
O4 O 0.30140(19) 0.1332(2) -0.12763(17)
C1 C 0.2382(2) -0.0169(2) 0.3746(2)
C2 C 0.3115(2) 0.0180(2) 0.2780(2)
C3 C 0.2475(2) 0.0220(2) 0.1505(2)
H1 H 0.1557 0.0001 0.1186
C4 C 0.3247(2) 0.0598(2) 0.0707(2)
C5 C 0.2599(2) 0.0495(3) -0.0752(2)
C6 C 0.4603(2) 0.0970(2) 0.1247(2)
H2 H 0.5124 0.1301 0.0763
C7 C 0.5176(2) 0.0845(2) 0.2518(2)
H3 H 0.6094 0.1046 0.2858
O9 O 0.14804(16) 0.17674(17) 0.64065(16)
H7 H 0.202(2) 0.205(3) 0.590(2)
H8 H 0.201(2) 0.159(3) 0.7184(16)
O10 O 0.08911(16) -0.15033(17) 0.60774(17)
H9 H 0.121(2) -0.102(2) 0.6985(13)
H10 H 0.023(2) -0.2214(18) 0.603(2)
O11 O 0.46396(19) -0.24026(19) 0.37308(18)
H11 H 0.3913(16) -0.275(3) 0.399(3)
H12 H 0.5449(13) -0.261(3) 0.419(3)
Cu1_2 Cu -0.5000 0.0000 0.5000
N1A N -0.44406(17) -0.04440(17) 0.67385(17)
N1A_2 N 0.55594(17) -0.04440(17) 0.67385(17)
O1A O -0.30942(15) 0.02363(16) 0.51415(15)
O1A_2 O 0.69058(15) 0.02363(16) 0.51415(15)
O2A O -0.11497(15) 0.03483(18) 0.65927(16)
O3A O -0.1713(2) 0.0467(2) 1.13119(19)
O4A O -0.30140(19) -0.1332(2) 1.12763(17)
C1A C -0.2382(2) 0.0169(2) 0.6254(2)
C2A C -0.3115(2) -0.0180(2) 0.7220(2)
C3A C -0.2475(2) -0.0220(2) 0.8495(2)
H1A H -0.1557 -0.0001 0.8814
C4A C -0.3247(2) -0.0598(2) 0.9293(2)
C5A C -0.2599(2) -0.0495(3) 1.0752(2)
C6A C -0.4603(2) -0.0970(2) 0.8753(2)
H2A H -0.5124 -0.1301 0.9237
C7A C -0.5176(2) -0.0845(2) 0.7482(2)
H3A H -0.6094 -0.1046 0.7142
O9A O -0.14804(16) -0.17674(17) 0.35935(16)
H7A H -0.202(2) -0.205(3) 0.410(2)
H8A H -0.201(2) -0.159(3) 0.2816(16)
O10A O -0.08911(16) 0.15033(17) 0.39226(17)
H9A H -0.121(2) 0.102(2) 0.3015(13)
H10A H -0.023(2) 0.2214(18) 0.397(2)
O11A O 0.53604(19) 0.24026(19) 0.62692(18)
H11A H 0.6087(16) 0.275(3) 0.601(3)
H12A H 0.4551(13) 0.261(3) 0.581(3)
Cu2 Cu 0.5000 0.5000 1.0000
N2 N 0.60608(19) 0.56353(19) 0.88835(18)
O5 O 0.35050(16) 0.49779(19) 0.84955(17)
O6 O 0.30210(18) 0.5639(2) 0.6633(2)
O7 O 0.71230(17) 0.72200(19) 0.51106(18)
O8 O 0.89977(16) 0.65182(18) 0.59992(18)
C8 C 0.7820(2) 0.6710(2) 0.5938(2)
C9 C 0.7192(2) 0.6332(2) 0.6975(2)
C10 C 0.7977(2) 0.6251(3) 0.8193(2)
H4 H 0.8898 0.6421 0.8379
C11 C 0.7380(2) 0.5914(3) 0.9128(2)
H5 H 0.7913 0.5882 0.9948
C12 C 0.5292(2) 0.5726(2) 0.7720(2)
C13 C 0.5820(2) 0.6079(2) 0.6751(2)
H6 H 0.5262 0.6147 0.5958
C14 C 0.3820(2) 0.5433(2) 0.7580(2)
O12 O 0.4544(2) 0.7280(2) 1.10086(19)
H13 H 0.447(3) 0.731(3) 1.1887(15)
H14 H 0.5379(17) 0.775(3) 1.106(3)
N2A N 0.39392(19) 0.43647(19) 1.11165(18)
O5A O 0.64950(16) 0.50221(19) 1.15045(17)
O6A O 0.69790(18) 0.4361(2) 1.3367(2)
O7A O 0.28770(17) 0.27800(19) 1.48894(18)
O8A O 0.10023(16) 0.34818(18) 1.40008(18)
C8A C 0.2180(2) 0.3290(2) 1.4062(2)
C9A C 0.2808(2) 0.3668(2) 1.3025(2)
C10A C 0.2023(2) 0.3749(3) 1.1807(2)
H4A H 0.1102 0.3579 1.1621
C11A C 0.2620(2) 0.4086(3) 1.0872(2)
H5A H 0.2087 0.4118 1.0052
C12A C 0.4708(2) 0.4274(2) 1.2280(2)
C13A C 0.4180(2) 0.3921(2) 1.3249(2)
H6A H 0.4738 0.3853 1.4042
C14A C 0.6180(2) 0.4567(2) 1.2420(2)
O12A O 0.5456(2) 0.2720(2) 0.89914(19)
H13A H 0.553(3) 0.269(3) 0.8113(15)
H14A H 0.4621(17) 0.225(3) 0.894(3)
O13 O 0.1659(2) -0.2927(2) -0.0551(2)
H15 H 0.2575(14) -0.294(3) -0.016(3)
H16 H 0.158(3) -0.213(2) -0.084(3)
O14 O 0.2430(2) 0.6784(2) 0.4538(2)
H17 H 0.260(3) 0.632(2) 0.522(2)
H18 H 0.210(3) 0.7573(18) 0.488(3)
O15 O 0.0227(3) -0.2976(3) 0.1422(3)
H19 H 0.033(3) -0.2138(19) 0.202(3)
H20 H 0.083(3) -0.297(3) 0.088(3)
N3 N 1.0503(2) 0.4588(2) 0.6944(3)
H21 H 1.020(2) 0.406(2) 0.749(2)
H22 H 0.9847(18) 0.5165(19) 0.666(2)
H23 H 1.1357(14) 0.5156(19) 0.745(2)
H24 H 1.065(2) 0.4011(19) 0.6132(15)
loop_
_geom_bond_atom_site_label_1
_geom_bond_atom_site_label_2
_geom_bond_site_symmetry_1
_geom_bond_site_symmetry_2
Cd1 O2 1_555 1_555
Cu1 N1 1_555 1_555
Cu2 N2 1_555 1_555
N1 C2 1_555 1_555
N2 C11 1_555 1_555
O1 Cu1 1_555 1_555
O2 C1 1_555 1_555
O3 C5 1_555 1_555
O4 C5 1_555 1_555
O5 Cu2 1_555 1_555
O6 C14 1_555 1_555
O7 C8 1_555 1_555
O8 C8 1_555 1_555
C1 O1 1_555 1_555
C2 C1 1_555 1_555
C3 C2 1_555 1_555
H1 C3 1_555 1_555
C4 C3 1_555 1_555
C5 C4 1_555 1_555
C6 C4 1_555 1_555
H2 C6 1_555 1_555
C7 N1 1_555 1_555
H3 C7 1_555 1_555
C8 C9 1_555 1_555
C9 C10 1_555 1_555
C10 H4 1_555 1_555
C11 C10 1_555 1_555
H5 C11 1_555 1_555
C12 N2 1_555 1_555
C13 C9 1_555 1_555
H6 C13 1_555 1_555
C14 O5 1_555 1_555
O9 Cd1 1_555 1_555
H7 O9 1_555 1_555
H8 O9 1_555 1_555
O10 Cd1 1_555 1_555
H9 O10 1_555 1_555
H10 O10 1_555 1_555
O11 Cu1 1_555 1_555
H11 O11 1_555 1_555
H12 O11 1_555 1_555
O12 Cu2 1_555 1_555
H13 O12 1_555 1_555
H14 O12 1_555 1_555
O13 H15 1_555 1_555
H16 O13 1_555 1_555
O14 H17 1_555 1_555
H18 O14 1_555 1_555
O15 H19 1_555 1_555
H20 O15 1_555 1_555
N3 H21 1_555 1_555
H22 N3 1_555 1_555
H23 N3 1_555 1_555
H24 N3 1_555 1_555
Cu1_2 N1A 1_555 1_555
N1A C2A 1_555 1_555
N1A_2 Cu1 1_555 1_555
N2A Cu2 1_555 1_555
O1A Cu1_2 1_555 1_555
O1A_2 Cu1 1_555 1_555
O2A Cd1 1_555 1_555
O3A C5A 1_555 1_555
O4A C5A 1_555 1_555
O5A Cu2 1_555 1_555
O6A C14A 1_555 1_555
O7A C8A 1_555 1_555
O8A C8A 1_555 1_555
C1A O1A 1_555 1_555
C2A C1A 1_555 1_555
C3A C2A 1_555 1_555
H1A C3A 1_555 1_555
C4A C3A 1_555 1_555
C5A C4A 1_555 1_555
C6A C4A 1_555 1_555
H2A C6A 1_555 1_555
C7A N1A 1_555 1_555
H3A C7A 1_555 1_555
C8A C9A 1_555 1_555
C9A C10A 1_555 1_555
C10A H4A 1_555 1_555
C11A N2A 1_555 1_555
H5A C11A 1_555 1_555
C12A N2A 1_555 1_555
C13A C9A 1_555 1_555
H6A C13A 1_555 1_555
C14A O5A 1_555 1_555
O9A Cd1 1_555 1_555
H7A O9A 1_555 1_555
H8A O9A 1_555 1_555
O10A Cd1 1_555 1_555
H9A O10A 1_555 1_555
H10A O10A 1_555 1_555
O11A Cu1 1_555 1_555
H11A O11A 1_555 1_555
H12A O11A 1_555 1_555
O12A Cu2 1_555 1_555
H13A O12A 1_555 1_555
H14A O12A 1_555 1_555
C6 C7 1_555 1_555
C12 C13 1_555 1_555
C12 C14 1_555 1_555
O2A C1A 1_555 1_555
C6A C7A 1_555 1_555
C10A C11A 1_555 1_555
C12A C13A 1_555 1_555
C12A C14A 1_555 1_555

#END
