
#######################################################################
#
#                 Cambridge Crystallographic Data Centre
#                                CCDC 
#
#######################################################################
#
# If this CIF has been generated from an entry in the Cambridge 
# Structural Database, then it will include bibliographic, chemical, 
# crystal, experimental, refinement or atomic coordinate data resulting 
# from the CCDC's data processing and validation procedures.
#
#######################################################################

data_DUKNII
_symmetry_cell_setting           monoclinic
_symmetry_space_group_name_H-M   'C 2/c'
_symmetry_Int_Tables_number      15
_space_group_name_Hall           '-C 2yn'
loop_
_symmetry_equiv_pos_site_id
_symmetry_equiv_pos_as_xyz
1 x,y,z
2 -x,y,1/2-z
3 1/2+x,1/2+y,z
4 1/2-x,1/2+y,1/2-z
5 -x,-y,-z
6 x,-y,1/2+z
7 1/2-x,1/2-y,-z
8 1/2+x,1/2-y,1/2+z
_cell_length_a                   46.108(8)
_cell_length_b                   10.6758(19)
_cell_length_c                   23.633(4)
_cell_angle_alpha                90
_cell_angle_beta                 95.274(4)
_cell_angle_gamma                90
_cell_volume                     11583.9
loop_
_atom_site_label
_atom_site_type_symbol
_atom_site_fract_x
_atom_site_fract_y
_atom_site_fract_z
C1 C 0.18885(9) 1.1003(3) 0.04983(17)
C2 C 0.17083(8) 1.2031(3) 0.06756(16)
C3 C 0.15268(8) 1.1884(3) 0.10967(15)
H1 H 0.1518 1.1107 0.1272
C4 C 0.13534(8) 1.2867(3) 0.12736(16)
H2 H 0.1227 1.2749 0.1554
C5 C 0.13783(9) 1.3996(4) 0.10173(16)
C6 C 0.15587(9) 1.4162(4) 0.06074(17)
H3 H 0.1577 1.4952 0.0449
C7 C 0.17157(9) 1.3175(4) 0.04211(17)
H4 H 0.1828 1.3288 0.0118
C8 C 0.10316(8) 1.5631(3) 0.08621(15)
C9 C 0.08891(8) 1.5067(3) 0.04055(15)
H5 H 0.0938 1.4255 0.0307
C10 C 0.06724(8) 1.5701(3) 0.00904(15)
H6 H 0.0572 1.5312 -0.0221
C11 C 0.06007(7) 1.6905(3) 0.02290(14)
C12 C 0.07514(7) 1.7481(3) 0.06745(15)
H7 H 0.0709 1.8307 0.0762
C13 C 0.09687(8) 1.6838(3) 0.10000(16)
H8 H 0.1071 1.7225 0.1310
C14 C 0.03459(8) 1.7504(3) -0.00950(14)
C15 C 0.28812(8) 0.7131(3) 0.15057(15)
C16 C 0.30343(8) 0.7770(4) 0.19379(16)
H9 H 0.2971 0.8561 0.2037
C17 C 0.32853(8) 0.7263(4) 0.22358(17)
H10 H 0.3386 0.7708 0.2530
C18 C 0.33811(8) 0.6082(4) 0.20831(16)
C19 C 0.32362(9) 0.5453(4) 0.16506(17)
H11 H 0.3302 0.4676 0.1540
C20 C 0.29854(9) 0.5983(4) 0.13697(17)
H12 H 0.2885 0.5533 0.1077
C21 C 0.38735(8) 0.5504(3) 0.21460(16)
C22 C 0.39313(8) 0.6136(3) 0.16710(15)
H13 H 0.3785 0.6609 0.1477
C23 C 0.42019(8) 0.6090(3) 0.14714(15)
H14 H 0.4236 0.6549 0.1150
C24 C 0.44241(8) 0.5375(3) 0.17389(15)
C25 C 0.43600(8) 0.4697(3) 0.22118(15)
H15 H 0.4502 0.4178 0.2391
C26 C 0.40873(8) 0.4770(3) 0.24275(16)
H16 H 0.4051 0.4332 0.2754
C27 C 0.47215(8) 0.5366(4) 0.15191(15)
C28 C 0.17751(8) 0.8332(3) 0.17179(14)
H17 H 0.1763 0.9192 0.1657
C29 C 0.16138(8) 0.7837(3) 0.21267(15)
H18 H 0.1495 0.8345 0.2327
C30 C 0.16329(8) 0.6559(3) 0.22305(15)
C31 C 0.18150(8) 0.5880(3) 0.19142(15)
H19 H 0.1834 0.5021 0.1969
C32 C 0.19666(8) 0.6464(3) 0.15207(15)
H20 H 0.2092 0.5982 0.1323
C33 C 0.19328(8) 0.3300(3) 0.48396(13)
H21 H 0.2128 0.3535 0.4882
C34 C 0.17517(7) 0.3962(3) 0.44475(14)
H22 H 0.1822 0.4617 0.4240
C35 C 0.14653(7) 0.3618(3) 0.43760(14)
C36 C 0.13742(8) 0.2662(3) 0.47008(14)
H23 H 0.1181 0.2405 0.4664
C37 C 0.15721(8) 0.2096(3) 0.50779(15)
H24 H 0.1505 0.1459 0.5300
C38 C 0.05023(8) 0.2276(3) 0.17153(15)
H25 H 0.0504 0.1411 0.1760
C39 C 0.06683(8) 0.2958(3) 0.21100(15)
H26 H 0.0781 0.2559 0.2404
C40 C 0.06683(8) 0.4219(3) 0.20707(15)
C41 C 0.04952(8) 0.4741(3) 0.16191(15)
H27 H 0.0483 0.5606 0.1577
C42 C 0.03413(9) 0.3964(3) 0.12337(16)
H28 H 0.0233 0.4331 0.0926
C43 C 0.06451(8) 0.8428(4) 0.51117(15)
H29 H 0.0707 0.8920 0.5424
C44 C 0.08421(8) 0.8147(3) 0.47370(15)
H30 H 0.1034 0.8422 0.4798
C45 C 0.07516(8) 0.7452(3) 0.42709(16)
C46 C 0.04661(8) 0.7072(4) 0.41849(16)
H31 H 0.0397 0.6607 0.3868
C47 C 0.02898(8) 0.7417(4) 0.45932(16)
H32 H 0.0095 0.7185 0.4537
C48 C 0.08675(7) 0.6140(3) 0.35034(14)
H33 H 0.0730 0.6498 0.3213
H34 H 0.0771 0.5469 0.3689
C49 C 0.10101(8) 0.4533(3) 0.28668(14)
H35 H 0.1168 0.4086 0.2713
H36 H 0.0908 0.3954 0.3094
C50 C 0.13629(7) 0.5167(3) 0.36709(13)
H37 H 0.1530 0.4891 0.3484
H38 H 0.1425 0.5856 0.3922
C51 C 0.12692(7) 0.6576(3) 0.28808(14)
H39 H 0.1125 0.6959 0.2610
H40 H 0.1360 0.7227 0.3123
C52 C 0.26162(8) 0.7661(4) 0.12141(15)
C53 C 0.11294(8) 0.5619(3) 0.32303(15)
N1 N 0.19466(6) 0.7678(3) 0.14023(11)
N2 N 0.03389(6) 0.2736(3) 0.12743(11)
N3 N 0.18558(6) 0.2375(3) 0.51574(12)
N4 N 0.03723(6) 0.8053(3) 0.50616(12)
Ni1 Ni 0.214948(10) 0.84612(4) 0.07397(2)
Ni2 Ni -0.008503(10) 1.83131(4) -0.06997(2)
O1 O 0.23695(5) 0.9277(2) 0.01092(9)
H41 H 0.2277 1.0055 -0.0004
O2 O 0.19148(5) 1.0049(2) 0.08052(10)
O3 O 0.20131(8) 1.1124(3) 0.00568(13)
O4 O 0.25277(5) 0.8738(2) 0.13389(10)
O5 O 0.24714(5) 0.7035(2) 0.08168(9)
O6 O 0.47798(5) 0.6342(2) 0.12478(10)
O7 O 0.48837(6) 0.4455(2) 0.16262(11)
O8 O 0.02870(5) 1.8650(2) -0.00315(9)
O9 O 0.01844(5) 1.6837(2) -0.04378(9)
O10 O -0.02760(5) 1.99944(19) -0.09102(9)
H42 H -0.0211 2.0283 -0.1262
H43 H -0.0222 2.0592 -0.0616
O11 O 0.36198(5) 0.5589(3) 0.24019(11)
O12 O 0.12309(6) 1.5007(2) 0.12378(10)
O13 O 0.09626(5) 0.7094(2) 0.39164(10)
O14 O 0.08155(5) 0.5022(2) 0.24166(10)
O15 O 0.12617(5) 0.4154(2) 0.40013(10)
O16 O 0.14829(6) 0.5931(2) 0.25915(10)
H44 H 0.2364 0.8723 -0.0211
N2D N -0.03389(6) 1.7264(3) -0.12743(11)
N3E N 0.18558(6) 0.7625(3) 0.01574(12)
N4A N -0.03723(6) 1.8053(3) -0.00616(12)
Ni1E Ni 0.214948(10) 0.15388(4) 0.57397(2)
Ni2A Ni 0.008503(10) 0.83131(4) 0.56997(2)
Ni2D Ni 0.008503(10) 0.16869(4) 0.06997(2)
Ni2F Ni 0.508503(10) 0.66869(4) 0.06997(2)
O6F O 0.02202(5) 1.8658(2) -0.12478(10)
loop_
_geom_bond_atom_site_label_1
_geom_bond_atom_site_label_2
_geom_bond_site_symmetry_1
_geom_bond_site_symmetry_2
C1 C2 1_555 1_555
C2 C3 1_555 1_555
C3 H1 1_555 1_555
C4 C3 1_555 1_555
H2 C4 1_555 1_555
C5 C4 1_555 1_555
C6 C5 1_555 1_555
H3 C6 1_555 1_555
C7 C2 1_555 1_555
H4 C7 1_555 1_555
C8 C9 1_555 1_555
C9 H5 1_555 1_555
C10 C9 1_555 1_555
H6 C10 1_555 1_555
C11 C10 1_555 1_555
C12 C11 1_555 1_555
H7 C12 1_555 1_555
C13 C8 1_555 1_555
H8 C13 1_555 1_555
C14 C11 1_555 1_555
C15 C16 1_555 1_555
C16 H9 1_555 1_555
C17 C16 1_555 1_555
H10 C17 1_555 1_555
C18 C17 1_555 1_555
C19 C18 1_555 1_555
H11 C19 1_555 1_555
C20 C15 1_555 1_555
H12 C20 1_555 1_555
C21 C22 1_555 1_555
C22 H13 1_555 1_555
C23 C22 1_555 1_555
H14 C23 1_555 1_555
C24 C23 1_555 1_555
C25 C24 1_555 1_555
H15 C25 1_555 1_555
C26 C21 1_555 1_555
H16 C26 1_555 1_555
C27 C24 1_555 1_555
C28 H17 1_555 1_555
C29 C28 1_555 1_555
H18 C29 1_555 1_555
C30 C29 1_555 1_555
C31 C30 1_555 1_555
H19 C31 1_555 1_555
C32 C31 1_555 1_555
H20 C32 1_555 1_555
C33 H21 1_555 1_555
C34 C33 1_555 1_555
H22 C34 1_555 1_555
C35 C34 1_555 1_555
C36 C35 1_555 1_555
H23 C36 1_555 1_555
C37 C36 1_555 1_555
H24 C37 1_555 1_555
C38 H25 1_555 1_555
C39 C38 1_555 1_555
H26 C39 1_555 1_555
C40 C39 1_555 1_555
C41 C40 1_555 1_555
H27 C41 1_555 1_555
C42 C41 1_555 1_555
H28 C42 1_555 1_555
C43 H29 1_555 1_555
C44 C43 1_555 1_555
H30 C44 1_555 1_555
C45 C44 1_555 1_555
C46 C45 1_555 1_555
H31 C46 1_555 1_555
C47 C46 1_555 1_555
H32 C47 1_555 1_555
C48 H33 1_555 1_555
H34 C48 1_555 1_555
C49 H35 1_555 1_555
H36 C49 1_555 1_555
C50 H37 1_555 1_555
H38 C50 1_555 1_555
C51 H39 1_555 1_555
H40 C51 1_555 1_555
C52 C15 1_555 1_555
C53 C48 1_555 1_555
N1 C28 1_555 1_555
N2 C38 1_555 1_555
N3 C33 1_555 1_555
N4 C43 1_555 1_555
Ni1 N1 1_555 1_555
Ni2 O8 1_555 1_555
O1 Ni1 1_555 1_555
H41 O1 1_555 1_555
O2 C1 1_555 1_555
O3 C1 1_555 1_555
O4 C52 1_555 1_555
O5 C52 1_555 1_555
O6 C27 1_555 1_555
O7 C27 1_555 1_555
O8 C14 1_555 1_555
O9 C14 1_555 1_555
O10 Ni2 1_555 1_555
H42 O10 1_555 1_555
H43 O10 1_555 1_555
O11 C18 1_555 1_555
O12 C5 1_555 1_555
O13 C45 1_555 1_555
O14 C40 1_555 1_555
O15 C35 1_555 1_555
O16 C30 1_555 1_555
H44 O1 1_555 1_555
N2D Ni2 1_555 1_555
N3E Ni1 1_555 1_555
N4A Ni2 1_555 1_555
Ni1E N3 1_555 1_555
Ni2A N4 1_555 1_555
Ni2D N2 1_555 1_555
Ni2F O6 1_555 1_555
O6F Ni2 1_555 1_555
C6 C7 1_555 1_555
C8 O12 1_555 1_555
C12 C13 1_555 1_555
C19 C20 1_555 1_555
C21 O11 1_555 1_555
C25 C26 1_555 1_555
C32 N1 1_555 1_555
C37 N3 1_555 1_555
C42 N2 1_555 1_555
C47 N4 1_555 1_555
C48 O13 1_555 1_555
C49 C53 1_555 1_555
C49 O14 1_555 1_555
C50 C53 1_555 1_555
C50 O15 1_555 1_555
C51 C53 1_555 1_555
C51 O16 1_555 1_555
Ni1 O2 1_555 1_555
Ni1 O4 1_555 1_555
Ni1 O5 1_555 1_555
Ni2 O9 1_555 1_555

#END
