
#######################################################################
#
#                 Cambridge Crystallographic Data Centre
#                                CCDC 
#
#######################################################################
#
# If this CIF has been generated from an entry in the Cambridge 
# Structural Database, then it will include bibliographic, chemical, 
# crystal, experimental, refinement or atomic coordinate data resulting 
# from the CCDC's data processing and validation procedures.
#
#######################################################################

data_DUKNAZ
_symmetry_cell_setting           monoclinic
_symmetry_space_group_name_H-M   'P 21/c'
_symmetry_Int_Tables_number      14
_space_group_name_Hall           '-P 2ybc'
loop_
_symmetry_equiv_pos_site_id
_symmetry_equiv_pos_as_xyz
1 x,y,z
2 -x,1/2+y,1/2-z
3 -x,-y,-z
4 x,1/2-y,1/2+z
_cell_length_a                   11.9569(13)
_cell_length_b                   24.114(3)
_cell_length_c                   10.7232(12)
_cell_angle_alpha                90
_cell_angle_beta                 105.8550(10)
_cell_angle_gamma                90
_cell_volume                     2974.18
loop_
_atom_site_label
_atom_site_type_symbol
_atom_site_fract_x
_atom_site_fract_y
_atom_site_fract_z
Fe1 Fe 0.58299(3) 0.948957(13) 0.88381(3)
C1 C 0.63026(19) 0.80826(9) 0.4436(2)
C2 C 0.4184(2) 0.97360(10) 0.5952(2)
H1 H 0.4542 1.0082 0.6064
O1 O 0.88485(15) 0.84329(7) 0.88903(16)
H2 H 0.9409 0.8416 0.9532
C3 C 0.5469(2) 0.81316(9) 0.3128(2)
N1 N 1.05946(18) 0.88387(10) 1.71537(19)
C4 C 0.8429(2) 0.91461(10) 1.3316(2)
O2 O 0.23281(15) 0.87426(7) -0.06664(16)
H3 H 0.1792 0.8734 -0.1333
C5 C 0.6846(2) 0.88567(9) 0.7580(2)
N2 N 0.70900(17) 0.93693(8) 1.07668(18)
N3 N 0.0513(2) 0.85951(11) 0.0994(2)
N4 N 0.44003(17) 0.93946(8) 0.69706(18)
C6 C 0.9865(2) 0.85667(11) 1.4936(2)
H4 H 0.9875 0.8309 1.4293
C7 C 0.7413(2) 0.88541(11) 1.1179(2)
H5 H 0.7179 0.8564 1.0593
C8 C 0.8088(2) 0.96780(11) 1.2899(2)
H6 H 0.8296 0.9974 1.3471
C9 C 0.9155(2) 0.90314(11) 1.4651(2)
C10 C 0.7440(2) 0.97724(11) 1.1640(2)
H7 H 0.7237 1.0136 1.1386
C11 C 0.8068(2) 0.87257(11) 1.2414(2)
H8 H 0.8266 0.8359 1.2642
C12 C 1.0557(2) 0.84914(12) 1.6183(2)
H9 H 1.1026 0.8177 1.6355
C13 C 0.9158(2) 0.93795(12) 1.5675(3)
H10 H 0.8675 0.9689 1.5544
C14 C 0.9880(3) 0.92674(13) 1.6896(2)
H11 H 0.9861 0.9506 1.7571
C15 C 0.3463(2) 0.96087(10) 0.4744(2)
H12 H 0.3344 0.9864 0.4069
C16 C 0.2130(2) 0.89236(11) 0.3283(2)
C17 C 0.3124(2) 0.87458(10) 0.5620(2)
H13 H 0.2764 0.8401 0.5547
C18 C 0.1517(3) 0.93092(12) 0.2401(3)
H14 H 0.1640 0.9687 0.2559
C19 C 0.2917(2) 0.90935(10) 0.4548(2)
C20 C 0.3853(2) 0.89073(10) 0.6785(2)
H15 H 0.3973 0.8664 0.7482
C21 C 0.1939(2) 0.83734(12) 0.2949(3)
H16 H 0.2353 0.8100 0.3495
C22 C 0.1136(3) 0.82278(13) 0.1808(3)
H17 H 0.1027 0.7854 0.1601
C23 C 0.0727(3) 0.91279(14) 0.1290(3)
H18 H 0.0318 0.9392 0.0712
C24 C 0.7131(2) 0.76653(10) 0.4723(2)
H19 H 0.7138 0.7393 0.4112
C25 C 0.51638(19) 0.86533(9) 0.2589(2)
H20 H 0.5478 0.8966 0.3066
C26 C 0.70735(19) 0.84500(9) 0.66113(19)
C27 C 0.7947(2) 0.76543(10) 0.5919(2)
H21 H 0.8516 0.7380 0.6087
C28 C 0.44068(19) 0.87230(9) 0.1366(2)
C29 C 0.79408(19) 0.80409(9) 0.6875(2)
C30 C 0.2957(2) 0.82910(10) -0.0585(2)
C31 C 0.62884(19) 0.84684(9) 0.5393(2)
H22 H 0.5733 0.8749 0.5210
C32 C 0.5005(2) 0.76689(10) 0.2393(2)
H23 H 0.5216 0.7315 0.2717
C33 C 0.8873(2) 0.80139(10) 0.8127(2)
C34 C 0.3894(2) 0.82577(10) 0.0668(2)
C35 C 0.4231(2) 0.77351(10) 0.1183(2)
H24 H 0.3929 0.7422 0.0700
O3 O 0.62783(14) 0.86750(7) 0.83378(14)
O4 O 0.70685(16) 0.93579(7) 0.75185(16)
O5 O 0.95713(16) 0.76380(8) 0.83860(17)
O6 O 0.27834(18) 0.79341(8) -0.14063(18)
C36 C 0.43099(19) 0.92924(9) 0.0796(2)
O7 O 0.45273(14) 0.93505(7) -0.02766(14)
O8 O 0.40781(15) 0.96848(7) 0.14606(15)
Fe1_2 Fe 0.58299(3) 0.948957(13) -0.11619(3)
Fe1B Fe 0.41701(3) 1.051043(13) 0.11619(3)
O7_2 O 0.45273(14) 0.93505(7) 0.97234(14)
O8B O 0.59219(15) 1.03152(7) 0.85394(15)
loop_
_geom_bond_atom_site_label_1
_geom_bond_atom_site_label_2
_geom_bond_site_symmetry_1
_geom_bond_site_symmetry_2
Fe1 N2 1_555 1_555
C1 C3 1_555 1_555
C2 H1 1_555 1_555
O1 H2 1_555 1_555
C3 C25 1_555 1_555
N1 C12 1_555 1_555
C4 C8 1_555 1_555
O2 H3 1_555 1_555
C5 C26 1_555 1_555
N2 C7 1_555 1_555
N3 C22 1_555 1_555
N4 Fe1 1_555 1_555
C6 H4 1_555 1_555
C7 H5 1_555 1_555
C8 H6 1_555 1_555
C9 C4 1_555 1_555
C10 N2 1_555 1_555
H7 C10 1_555 1_555
C11 C4 1_555 1_555
H8 C11 1_555 1_555
C12 C6 1_555 1_555
H9 C12 1_555 1_555
C13 C9 1_555 1_555
H10 C13 1_555 1_555
C14 N1 1_555 1_555
H11 C14 1_555 1_555
C15 C2 1_555 1_555
H12 C15 1_555 1_555
C16 C18 1_555 1_555
C17 H13 1_555 1_555
C18 H14 1_555 1_555
C19 C15 1_555 1_555
C20 N4 1_555 1_555
H15 C20 1_555 1_555
C21 C16 1_555 1_555
H16 C21 1_555 1_555
C22 C21 1_555 1_555
H17 C22 1_555 1_555
C23 N3 1_555 1_555
H18 C23 1_555 1_555
C24 C1 1_555 1_555
H19 C24 1_555 1_555
C25 H20 1_555 1_555
C26 C29 1_555 1_555
C27 C24 1_555 1_555
H21 C27 1_555 1_555
C28 C25 1_555 1_555
C29 C27 1_555 1_555
C30 O2 1_555 1_555
C31 C1 1_555 1_555
H22 C31 1_555 1_555
C32 C3 1_555 1_555
H23 C32 1_555 1_555
C33 O1 1_555 1_555
C34 C28 1_555 1_555
C35 C32 1_555 1_555
H24 C35 1_555 1_555
O3 Fe1 1_555 1_555
O4 Fe1 1_555 1_555
O5 C33 1_555 1_555
O6 C30 1_555 1_555
C36 C28 1_555 1_555
O7 C36 1_555 1_555
O8 C36 1_555 1_555
Fe1_2 O7 1_555 1_555
Fe1B O8 1_555 1_555
O7_2 Fe1 1_555 1_555
O8B Fe1 1_555 1_555
C2 N4 1_555 1_555
C5 O3 1_555 1_555
C5 O4 1_555 1_555
C6 C9 1_555 1_555
C7 C11 1_555 1_555
C8 C10 1_555 1_555
C13 C14 1_555 1_555
C16 C19 1_555 1_555
C17 C19 1_555 1_555
C17 C20 1_555 1_555
C18 C23 1_555 1_555
C26 C31 1_555 1_555
C29 C33 1_555 1_555
C30 C34 1_555 1_555
C34 C35 1_555 1_555

#END
