
#######################################################################
#
#                 Cambridge Crystallographic Data Centre
#                                CCDC 
#
#######################################################################
#
# If this CIF has been generated from an entry in the Cambridge 
# Structural Database, then it will include bibliographic, chemical, 
# crystal, experimental, refinement or atomic coordinate data resulting 
# from the CCDC's data processing and validation procedures.
#
#######################################################################

data_DUKNOM01
_symmetry_cell_setting           triclinic
_symmetry_space_group_name_H-M   'P -1'
_symmetry_Int_Tables_number      2
_space_group_name_Hall           '-P 1'
loop_
_symmetry_equiv_pos_site_id
_symmetry_equiv_pos_as_xyz
1 x,y,z
2 -x,-y,-z
_cell_length_a                   6.813(5)
_cell_length_b                   10.519(1)
_cell_length_c                   12.470(2)
_cell_angle_alpha                76.28(1)
_cell_angle_beta                 84.26(1)
_cell_angle_gamma                85.60(1)
_cell_volume                     862.522
loop_
_atom_site_label
_atom_site_type_symbol
_atom_site_fract_x
_atom_site_fract_y
_atom_site_fract_z
Ru1 Ru 0.1650(1) 0.1876(1) 0.2007(1)
K1 K -0.2510(1) 0.2450(1) 0.0491(1)
K2 K -0.4461(1) 0.1302(1) 0.5979(1)
K3 K -0.7010(1) 0.3241(1) 0.8255(1)
O1 O 0.0240(3) 0.3668(2) 0.1755(2)
O2 O 0.4039(3) 0.2989(2) 0.1547(2)
C1 C 0.1390(5) 0.4624(3) 0.1458(2)
C2 C 0.3612(5) 0.4234(3) 0.1384(2)
O3 O 0.4827(4) 0.5059(3) 0.1166(2)
O4 O 0.0824(4) 0.5772(2) 0.1255(2)
O5 O -0.0931(3) 0.1016(2) 0.2535(1)
O6 O 0.1585(3) 0.1886(2) 0.3637(2)
C3 C -0.1562(4) 0.1057(3) 0.3542(2)
C4 C -0.0057(4) 0.1540(3) 0.4197(2)
O7 O -0.3156(3) 0.0729(2) 0.3988(2)
O8 O -0.0482(3) 0.1559(2) 0.5168(2)
O9 O 0.1597(3) 0.1739(2) 0.0410(2)
O10 O 0.3058(3) 0.0083(2) 0.2115(2)
C5 C 0.2200(4) 0.0594(3) 0.0242(2)
C6 C 0.3059(4) -0.0368(3) 0.1249(3)
O11 O 0.2158(4) 0.0276(2) -0.0622(2)
O12 O 0.3682(4) -0.1452(2) 0.1165(2)
O13 O -0.8393(4) 0.1853(3) 0.6996(3)
O14 O -0.3242(6) 0.3425(4) 0.6718(3)
O15 O -0.6043(7) 0.3508(4) 0.4398(3)
O16 O -0.7575(11) 0.5447(8) 0.6510(7)
O2_2 O -0.5961(3) 0.2989(2) 0.1547(2)
O7A O -0.6844(3) -0.0729(2) 0.6012(2)
O10A O -0.3058(3) -0.0083(2) 0.7885(2)
K1_2 K 0.7490(1) 0.2450(1) 0.0491(1)
O4A O -0.0824(4) 0.4228(2) -0.1255(2)
K3_2 K 0.2990(1) 0.3241(1) -0.1745(1)
K2A K -0.5539(1) -0.1302(1) 0.4021(1)
K2A_2 K 0.4461(1) -0.1302(1) 0.4021(1)
O11A O -0.2158(4) -0.0276(2) 0.0622(2)
O12A O -0.3682(4) 0.1452(2) -0.1165(2)
K3A K 0.7010(1) 0.6759(1) 0.1745(1)
O3A O -0.4827(4) 0.4941(3) 0.8834(2)
O4A_2 O -1.0824(4) 0.4228(2) 0.8745(2)
O9_2 O -0.8403(3) 0.1739(2) 1.0410(2)
O12A_2 O -0.3682(4) 0.1452(2) 0.8835(2)
K1A K 0.2510(1) 0.7550(1) -0.0491(1)
K3A_2 K -0.2990(1) 0.6759(1) 0.1745(1)
K1A_2 K 0.2510(1) -0.2450(1) -0.0491(1)
K3A_3 K 0.7010(1) -0.3241(1) 0.1745(1)
loop_
_geom_bond_atom_site_label_1
_geom_bond_atom_site_label_2
_geom_bond_site_symmetry_1
_geom_bond_site_symmetry_2
Ru1 O1 1_555 1_555
K1 O1 1_555 1_555
K2 O7 1_555 1_555
K3 O13 1_555 1_555
O1 C1 1_555 1_555
O2 Ru1 1_555 1_555
C1 C2 1_555 1_555
C2 O2 1_555 1_555
O3 C2 1_555 1_555
O4 C1 1_555 1_555
O5 Ru1 1_555 1_555
O6 Ru1 1_555 1_555
C3 O5 1_555 1_555
C4 O6 1_555 1_555
O7 C3 1_555 1_555
O8 K2 1_555 1_555
O9 Ru1 1_555 1_555
O10 Ru1 1_555 1_555
C5 O9 1_555 1_555
C6 O10 1_555 1_555
O11 C5 1_555 1_555
O12 C6 1_555 1_555
O13 K2 1_555 1_555
O14 K2 1_555 1_555
O15 K2 1_555 1_555
O16 K3 1_555 1_555
O2_2 K1 1_555 1_555
O7A K2 1_555 1_555
O10A K2 1_555 1_555
K1_2 O2 1_555 1_555
O4A K1 1_555 1_555
K3_2 O9 1_555 1_555
K2A O7 1_555 1_555
K2A_2 O10 1_555 1_555
O11A K1 1_555 1_555
O12A K1 1_555 1_555
K3A O3 1_555 1_555
O3A K3 1_555 1_555
O4A_2 K3 1_555 1_555
O9_2 K3 1_555 1_555
O12A_2 K3 1_555 1_555
K1A O4 1_555 1_555
K3A_2 O4 1_555 1_555
K1A_2 O11 1_555 1_555
K3A_3 O12 1_555 1_555
K1 O5 1_555 1_555
K1 O9 1_555 1_555
K3 O14 1_555 1_555
C3 C4 1_555 1_555
C4 O8 1_555 1_555
C5 C6 1_555 1_555
O12 K1A_2 1_555 1_555
O7A K2A 1_555 1_555
O4A K3_2 1_555 1_555

#END
