
#######################################################################
#
#                 Cambridge Crystallographic Data Centre
#                                CCDC 
#
#######################################################################
#
# If this CIF has been generated from an entry in the Cambridge 
# Structural Database, then it will include bibliographic, chemical, 
# crystal, experimental, refinement or atomic coordinate data resulting 
# from the CCDC's data processing and validation procedures.
#
#######################################################################

data_DUKPOP
_symmetry_cell_setting           triclinic
_symmetry_space_group_name_H-M   'P -1'
_symmetry_Int_Tables_number      2
_space_group_name_Hall           '-P 1'
loop_
_symmetry_equiv_pos_site_id
_symmetry_equiv_pos_as_xyz
1 x,y,z
2 -x,-y,-z
_cell_length_a                   8.644(2)
_cell_length_b                   11.141(3)
_cell_length_c                   13.412(3)
_cell_angle_alpha                101.360(3)
_cell_angle_beta                 107.537(4)
_cell_angle_gamma                106.518(4)
_cell_volume                     1122.9
loop_
_atom_site_label
_atom_site_type_symbol
_atom_site_fract_x
_atom_site_fract_y
_atom_site_fract_z
Ho1 Ho 0.25679(2) 0.110951(16) 0.062756(13)
O1 O 0.1172(3) 0.2539(3) 0.1150(2)
O2 O 0.2634(3) 0.3097(3) 0.0114(2)
C1 C 0.1800(5) 0.3367(4) 0.0702(3)
C2 C 0.1596(5) 0.4651(4) 0.0899(3)
H1 H 0.1924 0.5211 0.0488
C3 C 0.0962(5) 0.5045(4) 0.1641(3)
H2 H 0.0583 0.4445 0.2009
C4 C 0.0799(6) 0.6356(5) 0.1939(4)
H3 H 0.1212 0.6875 0.1495
H4 H 0.1505 0.6823 0.2720
H5 H -0.0425 0.6231 0.1796
O3 O 0.5457(3) 0.0963(3) 0.1628(2)
O4 O 0.5145(3) 0.2871(3) 0.1949(2)
C5 C 0.6114(5) 0.2200(4) 0.2118(3)
C6 C 0.7958(5) 0.2892(5) 0.2868(4)
H6 H 0.8329 0.3799 0.3258
C7 C 0.9114(6) 0.2328(5) 0.3029(4)
H7 H 0.8723 0.1417 0.2646
C8 C 1.1007(6) 0.3005(6) 0.3767(4)
H8 H 1.1228 0.3919 0.4151
H9 H 1.1726 0.2994 0.3326
H10 H 1.1301 0.2546 0.4307
O5 O 0.2536(3) 0.0706(3) 0.2318(2)
O6 O 0.0009(3) -0.0248(3) 0.0934(2)
C9 C 0.0970(5) -0.0048(4) 0.1952(3)
C10 C 0.0178(5) -0.0754(4) 0.2600(3)
H11 H -0.1026 -0.1293 0.2275
C11 C 0.1089(5) -0.0663(4) 0.3625(3)
H12 H 0.2263 -0.0058 0.3960
C12 C 0.0396(6) -0.1452(5) 0.4295(4)
H13 H -0.0820 -0.2034 0.3859
H14 H 0.0460 -0.0852 0.4961
H15 H 0.1098 -0.1982 0.4502
O7 O 0.2294(3) -0.1121(3) -0.0002(2)
H16 H 0.1305 -0.1700 -0.0426
H17 H 0.3111 -0.1395 0.0013
O8 O 0.4071(3) 0.1132(3) -0.0584(2)
H18 H 0.4016 0.0379 -0.0902
H19 H 0.4113 0.1616 -0.0997
Ho1A Ho -0.25679(2) -0.110951(16) -0.062756(13)
O6A O -0.0009(3) 0.0248(3) -0.0934(2)
N1 N 0.5042(4) 0.8160(3) 0.4581(3)
C13 C 0.4952(5) 0.6949(4) 0.4698(3)
N2 N 0.4659(5) 0.6736(4) 0.5604(3)
H20 H 0.4848 0.6049 0.5771
H21 H 0.5141 0.7467 0.6161
N3 N 0.5087(4) 0.5965(3) 0.4029(3)
C14 C 0.5350(5) 0.6282(4) 0.3158(3)
C15 C 0.5453(5) 0.7452(4) 0.2924(3)
C16 C 0.5279(5) 0.8428(4) 0.3685(3)
N4 N 0.5404(5) 0.9631(3) 0.3591(3)
H22 H 0.5229 1.0183 0.4073
H23 H 0.5355 0.9754 0.2954
N5 N 0.5741(4) 0.7403(3) 0.1949(3)
C17 C 0.5838(5) 0.6241(4) 0.1642(3)
H24 H 0.6031 0.5928 0.0995
N6 N 0.5632(4) 0.5530(3) 0.2341(3)
H25 H 0.5673 0.4740 0.2280
loop_
_geom_bond_atom_site_label_1
_geom_bond_atom_site_label_2
_geom_bond_site_symmetry_1
_geom_bond_site_symmetry_2
Ho1 O1 1_555 1_555
O1 C1 1_555 1_555
O2 Ho1 1_555 1_555
C1 O2 1_555 1_555
C2 C1 1_555 1_555
H1 C2 1_555 1_555
C3 C2 1_555 1_555
H2 C3 1_555 1_555
C4 C3 1_555 1_555
H3 C4 1_555 1_555
H4 C4 1_555 1_555
H5 C4 1_555 1_555
O3 Ho1 1_555 1_555
O4 Ho1 1_555 1_555
C5 O3 1_555 1_555
C6 C5 1_555 1_555
H6 C6 1_555 1_555
C7 C6 1_555 1_555
H7 C7 1_555 1_555
C8 C7 1_555 1_555
H8 C8 1_555 1_555
H9 C8 1_555 1_555
H10 C8 1_555 1_555
O5 Ho1 1_555 1_555
O6 Ho1 1_555 1_555
C9 O5 1_555 1_555
C10 C9 1_555 1_555
H11 C10 1_555 1_555
C11 C10 1_555 1_555
H12 C11 1_555 1_555
C12 C11 1_555 1_555
H13 C12 1_555 1_555
H14 C12 1_555 1_555
H15 C12 1_555 1_555
O7 Ho1 1_555 1_555
H16 O7 1_555 1_555
H17 O7 1_555 1_555
O8 Ho1 1_555 1_555
H18 O8 1_555 1_555
H19 O8 1_555 1_555
N1 C13 1_555 1_555
C13 N2 1_555 1_555
N2 H20 1_555 1_555
H21 N2 1_555 1_555
N3 C13 1_555 1_555
C14 N3 1_555 1_555
C15 C14 1_555 1_555
C16 N1 1_555 1_555
N4 C16 1_555 1_555
H22 N4 1_555 1_555
H23 N4 1_555 1_555
N5 C15 1_555 1_555
C17 N5 1_555 1_555
H24 C17 1_555 1_555
N6 C14 1_555 1_555
H25 N6 1_555 1_555
Ho1A O6 1_555 1_555
O6A Ho1 1_555 1_555
O4 C5 1_555 1_555
O6 C9 1_555 1_555
C15 C16 1_555 1_555
C17 N6 1_555 1_555
Ho1A O6A 1_555 1_555

#END
