
#######################################################################
#
#                 Cambridge Crystallographic Data Centre
#                                CCDC 
#
#######################################################################
#
# If this CIF has been generated from an entry in the Cambridge 
# Structural Database, then it will include bibliographic, chemical, 
# crystal, experimental, refinement or atomic coordinate data resulting 
# from the CCDC's data processing and validation procedures.
#
#######################################################################

data_DUKPAC
_symmetry_cell_setting           triclinic
_symmetry_space_group_name_H-M   'P -1'
_symmetry_Int_Tables_number      2
_space_group_name_Hall           '-P 1'
loop_
_symmetry_equiv_pos_site_id
_symmetry_equiv_pos_as_xyz
1 x,y,z
2 -x,-y,-z
_cell_length_a                   13.590(3)
_cell_length_b                   16.408(3)
_cell_length_c                   17.371(4)
_cell_angle_alpha                65.056(3)
_cell_angle_beta                 88.239(4)
_cell_angle_gamma                68.768(4)
_cell_volume                     3239.47
loop_
_atom_site_label
_atom_site_type_symbol
_atom_site_fract_x
_atom_site_fract_y
_atom_site_fract_z
C1 C 0.4379(4) 0.8026(4) 0.9306(4)
C2 C 0.3553(4) 0.7878(4) 0.9894(4)
C3 C 0.2832(4) 0.8657(5) 1.0008(4)
H1 H 0.2838 0.9277 0.9703
C4 C 0.2106(4) 0.8515(5) 1.0573(4)
H2 H 0.1610 0.9039 1.0639
C5 C 0.2120(4) 0.7603(5) 1.1033(4)
C6 C 0.2840(5) 0.6808(6) 1.0953(5)
H3 H 0.2854 0.6186 1.1283
C7 C 0.3538(5) 0.6966(5) 1.0367(5)
H4 H 0.4013 0.6442 1.0290
C8 C 0.0100(4) 0.7595(5) 1.1049(3)
C9 C -0.0709(5) 0.8509(5) 1.0636(4)
H5 H -0.0721 0.9020 1.0746
C10 C -0.1502(4) 0.8646(5) 1.0056(4)
H6 H -0.2050 0.9256 0.9778
C11 C -0.1492(4) 0.7899(4) 0.9884(3)
C12 C -0.0668(4) 0.6985(5) 1.0309(4)
H7 H -0.0649 0.6472 1.0201
C13 C 0.0120(4) 0.6843(5) 1.0891(4)
H8 H 0.0665 0.6232 1.1176
C14 C -0.2386(4) 0.8060(4) 0.9277(4)
C15 C 0.6662(4) 1.0038(4) 0.6705(4)
C16 C 0.7331(4) 1.0635(4) 0.6343(4)
C17 C 0.7329(5) 1.1315(5) 0.6620(4)
H9 H 0.6926 1.1389 0.7046
C18 C 0.7916(4) 1.1885(5) 0.6275(4)
H10 H 0.7912 1.2337 0.6466
C19 C 0.8506(4) 1.1769(4) 0.5646(3)
C20 C 0.8542(4) 1.1096(5) 0.5367(4)
H11 H 0.8950 1.1026 0.4942
C21 C 0.7963(4) 1.0521(5) 0.5724(4)
H12 H 0.7997 1.0050 0.5547
C22 C 1.0543(4) 1.1841(4) 0.5584(4)
C23 C 1.0908(4) 1.1774(6) 0.6340(4)
H13 H 1.0454 1.2106 0.6615
C24 C 1.1977(4) 1.1197(6) 0.6692(4)
H14 H 1.2241 1.1152 0.7202
C25 C 1.2637(4) 1.0698(4) 0.6291(3)
C26 C 1.2243(4) 1.0786(5) 0.5533(4)
H15 H 1.2690 1.0452 0.5256
C27 C 1.1198(4) 1.1362(5) 0.5175(4)
H16 H 1.0940 1.1423 0.4655
C28 C 1.3789(4) 1.0052(4) 0.6696(3)
C29 C 0.5307(4) 0.6688(4) 0.7525(4)
H17 H 0.5876 0.6477 0.7939
C30 C 0.4739(4) 0.6102(4) 0.7670(4)
H18 H 0.4917 0.5517 0.8163
C31 C 0.3885(4) 0.6424(4) 0.7046(4)
C32 C 0.3665(4) 0.7290(4) 0.6325(4)
H19 H 0.3105 0.7514 0.5899
C33 C 0.4278(4) 0.7821(4) 0.6238(4)
H20 H 0.4121 0.8405 0.5747
C34 C 0.3407(4) 0.5065(4) 0.7815(3)
H21 H 0.3426 0.5150 0.8333
H22 H 0.4086 0.4575 0.7835
C35 C 0.2503(4) 0.4736(4) 0.7760(3)
C36 C 0.1461(4) 0.5538(4) 0.7739(4)
H23 H 0.1452 0.5581 0.8279
H24 H 0.1397 0.6162 0.7282
C37 C -0.0397(4) 0.5997(4) 0.7384(4)
C38 C -0.0644(4) 0.6866(5) 0.7444(4)
H25 H -0.0115 0.7003 0.7629
C39 C -0.1680(4) 0.7514(4) 0.7225(4)
H26 H -0.1835 0.8086 0.7279
C40 C -0.2228(4) 0.6535(4) 0.6889(4)
H27 H -0.2771 0.6416 0.6699
C41 C -0.1221(4) 0.5835(4) 0.7100(4)
H28 H -0.1090 0.5262 0.7053
C42 C 0.2662(4) 0.3820(4) 0.8574(4)
H29 H 0.2456 0.3991 0.9042
H30 H 0.2204 0.3515 0.8496
C43 C 0.4049(4) 0.2325(4) 0.8678(3)
C44 C 0.3391(4) 0.1870(4) 0.8630(4)
H31 H 0.2663 0.2137 0.8646
C45 C 0.3840(4) 0.1007(4) 0.8557(4)
H32 H 0.3395 0.0696 0.8539
C46 C 0.5486(4) 0.1046(4) 0.8555(4)
H33 H 0.6210 0.0765 0.8534
C47 C 0.5123(4) 0.1894(4) 0.8629(4)
H34 H 0.5590 0.2185 0.8647
C48 C 0.2414(4) 0.4616(4) 0.6942(4)
H35 H 0.1837 0.4401 0.6934
H36 H 0.2253 0.5236 0.6444
C49 C 0.3381(4) 0.3551(4) 0.6342(4)
C50 C 0.4300(6) 0.2840(6) 0.6366(5)
H37 H 0.4901 0.2633 0.6748
C51 C 0.4328(6) 0.2425(6) 0.5810(5)
H38 H 0.4965 0.1932 0.5843
C52 C 0.2658(6) 0.3378(8) 0.5229(6)
H39 H 0.2072 0.3565 0.4840
C53 C 0.2532(6) 0.3862(7) 0.5729(6)
H40 H 0.1900 0.4379 0.5659
Co1 Co 0.54305(5) 0.93907(5) 0.82403(4)
Co2 Co 0.59110(5) 0.85016(5) 0.66403(4)
N1 N 0.5103(3) 0.7530(3) 0.6840(3)
N2 N 0.3543(5) 0.2669(5) 0.5252(4)
N3 N 0.4866(3) 0.0595(3) 0.8512(3)
N4 N -0.2492(3) 0.7385(3) 0.6938(3)
O1 O 0.4786(3) 0.7421(3) 0.9010(3)
O2 O 0.4573(3) 0.8766(3) 0.9145(2)
O3 O -0.2252(3) 0.7423(3) 0.9027(3)
O4 O -0.3190(3) 0.8818(3) 0.9078(3)
O5 O 0.6620(3) 0.9516(3) 0.6355(3)
O6 O 0.6215(3) 1.0117(3) 0.7320(3)
O7 O 1.4390(2) 0.9662(3) 0.6274(2)
O8 O 1.4044(3) 0.9960(3) 0.7410(3)
O9 O 0.6000(2) 0.8128(3) 0.7981(2)
H41 H 0.5631 0.7788 0.8204
H42 H 0.6644 0.7782 0.8217
O10 O 0.5808(3) 0.8741(3) 0.5346(2)
H43 H 0.5520 0.8383 0.5286
H44 H 0.5427 0.9341 0.5026
O11 O 0.1556(3) 0.6431(4) 1.2389(3)
O12 O 0.0809(3) 0.8205(5) 1.1987(3)
O13 O 0.9096(3) 1.2769(4) 0.4246(3)
O14 O 0.8813(3) 1.3352(3) 0.5370(3)
O15 O 0.3234(3) 0.5948(3) 0.7094(2)
O16 O 0.0586(3) 0.5292(3) 0.7593(3)
O17 O 0.3757(3) 0.3136(3) 0.8793(3)
O18 O 0.3387(3) 0.3921(3) 0.6907(2)
S1 S 0.11562(12) 0.74252(16) 1.17400(10)
S2 S 0.91868(10) 1.25678(11) 0.51331(10)
Co1_2 Co -0.45695(5) 0.93907(5) 0.82403(4)
Co1_3 Co 0.54305(5) -0.06093(5) 0.82403(4)
Co1_4 Co 1.54305(5) 0.93907(5) 0.82403(4)
Co2_2 Co -0.40890(5) 0.85016(5) 0.66403(4)
Co2_3 Co 1.59110(5) 0.85016(5) 0.66403(4)
N3_2 N 0.4866(3) 1.0595(3) 0.8512(3)
N4_2 N 0.7508(3) 0.7385(3) 0.6938(3)
O4_2 O 0.6810(3) 0.8818(3) 0.9078(3)
O7_2 O 0.4390(2) 0.9662(3) 0.6274(2)
O8_2 O 0.4044(3) 0.9960(3) 0.7410(3)
loop_
_geom_bond_atom_site_label_1
_geom_bond_atom_site_label_2
_geom_bond_site_symmetry_1
_geom_bond_site_symmetry_2
C1 C2 1_555 1_555
C2 C3 1_555 1_555
C3 H1 1_555 1_555
C4 C3 1_555 1_555
H2 C4 1_555 1_555
C5 C4 1_555 1_555
C6 C5 1_555 1_555
H3 C6 1_555 1_555
C7 C2 1_555 1_555
H4 C7 1_555 1_555
C8 C9 1_555 1_555
C9 H5 1_555 1_555
C10 C9 1_555 1_555
H6 C10 1_555 1_555
C11 C10 1_555 1_555
C12 C11 1_555 1_555
H7 C12 1_555 1_555
C13 C8 1_555 1_555
H8 C13 1_555 1_555
C14 C11 1_555 1_555
C15 C16 1_555 1_555
C16 C17 1_555 1_555
C17 H9 1_555 1_555
C18 C17 1_555 1_555
H10 C18 1_555 1_555
C19 C18 1_555 1_555
C20 C19 1_555 1_555
H11 C20 1_555 1_555
C21 C16 1_555 1_555
H12 C21 1_555 1_555
C22 C23 1_555 1_555
C23 H13 1_555 1_555
C24 C23 1_555 1_555
H14 C24 1_555 1_555
C25 C24 1_555 1_555
C26 C25 1_555 1_555
H15 C26 1_555 1_555
C27 C22 1_555 1_555
H16 C27 1_555 1_555
C28 C25 1_555 1_555
C29 H17 1_555 1_555
C30 C29 1_555 1_555
H18 C30 1_555 1_555
C31 C30 1_555 1_555
C32 C31 1_555 1_555
H19 C32 1_555 1_555
C33 C32 1_555 1_555
H20 C33 1_555 1_555
C34 H21 1_555 1_555
H22 C34 1_555 1_555
C35 C34 1_555 1_555
C36 C35 1_555 1_555
H23 C36 1_555 1_555
H24 C36 1_555 1_555
C37 C38 1_555 1_555
C38 H25 1_555 1_555
C39 C38 1_555 1_555
H26 C39 1_555 1_555
C40 H27 1_555 1_555
C41 C37 1_555 1_555
H28 C41 1_555 1_555
C42 C35 1_555 1_555
H29 C42 1_555 1_555
H30 C42 1_555 1_555
C43 C44 1_555 1_555
C44 H31 1_555 1_555
C45 C44 1_555 1_555
H32 C45 1_555 1_555
C46 H33 1_555 1_555
C47 C43 1_555 1_555
H34 C47 1_555 1_555
C48 C35 1_555 1_555
H35 C48 1_555 1_555
H36 C48 1_555 1_555
C49 C50 1_555 1_555
C50 H37 1_555 1_555
C51 C50 1_555 1_555
H38 C51 1_555 1_555
C52 H39 1_555 1_555
C53 C49 1_555 1_555
H40 C53 1_555 1_555
Co1 O2 1_555 1_555
Co2 N1 1_555 1_555
N1 C29 1_555 1_555
N2 C51 1_555 1_555
N3 C45 1_555 1_555
N4 C39 1_555 1_555
O1 C1 1_555 1_555
O2 C1 1_555 1_555
O3 C14 1_555 1_555
O4 C14 1_555 1_555
O5 C15 1_555 1_555
O6 C15 1_555 1_555
O7 C28 1_555 1_555
O8 C28 1_555 1_555
O9 Co1 1_555 1_555
H41 O9 1_555 1_555
H42 O9 1_555 1_555
O10 Co2 1_555 1_555
H43 O10 1_555 1_555
H44 O10 1_555 1_555
O11 S1 1_555 1_555
O12 S1 1_555 1_555
O13 S2 1_555 1_555
O14 S2 1_555 1_555
O15 C31 1_555 1_555
O16 C36 1_555 1_555
O17 C42 1_555 1_555
O18 C48 1_555 1_555
S1 C5 1_555 1_555
S2 C19 1_555 1_555
Co1_2 O4 1_555 1_555
Co1_3 N3 1_555 1_555
Co1_4 O8 1_555 1_555
Co2_2 N4 1_555 1_555
Co2_3 O7 1_555 1_555
N3_2 Co1 1_555 1_555
N4_2 Co2 1_555 1_555
O4_2 Co1 1_555 1_555
O7_2 Co2 1_555 1_555
O8_2 Co1 1_555 1_555
C6 C7 1_555 1_555
C8 S1 1_555 1_555
C12 C13 1_555 1_555
C20 C21 1_555 1_555
C22 S2 1_555 1_555
C26 C27 1_555 1_555
C33 N1 1_555 1_555
C34 O15 1_555 1_555
C37 O16 1_555 1_555
C40 C41 1_555 1_555
C40 N4 1_555 1_555
C43 O17 1_555 1_555
C46 C47 1_555 1_555
C46 N3 1_555 1_555
C49 O18 1_555 1_555
C52 C53 1_555 1_555
C52 N2 1_555 1_555
Co1 O6 1_555 1_555
Co2 O5 1_555 1_555
Co2 O9 1_555 1_555

#END
