
#######################################################################
#
#                 Cambridge Crystallographic Data Centre
#                                CCDC 
#
#######################################################################
#
# If this CIF has been generated from an entry in the Cambridge 
# Structural Database, then it will include bibliographic, chemical, 
# crystal, experimental, refinement or atomic coordinate data resulting 
# from the CCDC's data processing and validation procedures.
#
#######################################################################

data_DUKPOQ
_symmetry_cell_setting           orthorhombic
_symmetry_space_group_name_H-M   'P b c a'
_symmetry_Int_Tables_number      61
_space_group_name_Hall           '-P 2ac 2ab'
loop_
_symmetry_equiv_pos_site_id
_symmetry_equiv_pos_as_xyz
1 x,y,z
2 1/2-x,-y,1/2+z
3 -x,1/2+y,1/2-z
4 1/2+x,1/2-y,-z
5 -x,-y,-z
6 1/2+x,y,1/2-z
7 x,1/2-y,1/2+z
8 1/2-x,1/2+y,z
_cell_length_a                   14.5756(2)
_cell_length_b                   17.3249(2)
_cell_length_c                   25.3137(3)
_cell_angle_alpha                90
_cell_angle_beta                 90
_cell_angle_gamma                90
_cell_volume                     6392.24
loop_
_atom_site_label
_atom_site_type_symbol
_atom_site_fract_x
_atom_site_fract_y
_atom_site_fract_z
Br1 Br 0.25785(3) 0.83767(3) 0.258051(17)
Br2 Br 0.44417(3) 0.94633(3) 0.279894(18)
Br3 Br 0.35728(3) 0.96179(2) 0.495394(17)
Br4 Br 0.17560(3) 0.84872(3) 0.475775(18)
Co1 Co 0.03556(4) 0.68220(4) 0.37285(3)
O1 O 0.1596(2) 0.72944(16) 0.36879(12)
O2 O 0.0730(2) 0.82873(18) 0.34431(13)
N1 N -0.0373(2) 0.73418(19) 0.43079(13)
C1 C 0.2500(3) 0.8797(2) 0.41831(16)
C2 C 0.3242(3) 0.9276(2) 0.42693(15)
C3 C -0.0822(3) 0.8763(2) 0.63882(15)
N2 N -0.0922(2) 0.76918(19) 0.50891(13)
C4 C 0.0418(3) 0.6781(3) 0.50926(19)
H1 H 0.0760 0.6499 0.4832
H2 H 0.0125 0.6424 0.5329
H3 H 0.0826 0.7109 0.5288
C5 C 0.2285(3) 0.8535(2) 0.36804(16)
C6 C -0.1362(3) 0.8659(2) 0.81528(16)
C7 C 0.1461(3) 0.8016(2) 0.35912(16)
C8 C -0.0289(3) 0.7259(2) 0.48266(16)
C9 C 0.2860(3) 0.8748(2) 0.32647(16)
C10 C -0.1441(3) 0.8181(2) 0.37617(16)
H4 H -0.1202 0.8048 0.3433
C11 C -0.0084(3) 0.9992(2) 0.62375(18)
H5 H 0.0088 1.0477 0.6360
C12 C 0.3801(3) 0.9505(2) 0.38523(16)
C13 C -0.1443(3) 0.8084(2) 0.47133(16)
C14 C 0.3620(3) 0.9216(2) 0.33521(16)
C15 C -0.0660(3) 0.8558(2) 0.58612(15)
C16 C -0.3079(3) 0.9274(3) 0.8028(2)
H6 H -0.3660 0.9490 0.7993
C17 C -0.1774(3) 0.8693(2) 0.76560(16)
C18 C 0.0116(3) 0.9771(3) 0.57250(17)
H7 H 0.0452 1.0098 0.5506
C19 C -0.2151(3) 0.8696(3) 0.38092(18)
H8 H -0.2393 0.8920 0.3506
C20 C -0.2636(3) 0.9009(3) 0.75816(19)
H9 H -0.2902 0.9041 0.7248
C21 C -0.1093(3) 0.7867(2) 0.42274(16)
C22 C -0.2683(3) 0.9228(3) 0.85287(19)
H10 H -0.3009 0.9407 0.8819
C23 C -0.1019(3) 0.7784(2) 0.56605(15)
H11 H -0.0689 0.7371 0.5836
H12 H -0.1662 0.7737 0.5754
C24 C -0.0184(3) 0.9061(3) 0.55378(17)
H13 H -0.0063 0.8922 0.5190
C25 C -0.2167(3) 0.8604(3) 0.47669(17)
H14 H -0.2395 0.8747 0.5096
C26 C -0.0545(3) 0.9483(2) 0.65674(17)
H15 H -0.0669 0.9627 0.6914
C27 C -0.1825(3) 0.8925(2) 0.86024(17)
H16 H -0.1562 0.8896 0.8936
C28 C -0.2526(3) 0.8895(3) 0.43019(17)
H17 H -0.3025 0.9229 0.4316
N3 N -0.1148(2) 0.8350(2) 0.73139(13)
C29 C -0.0402(3) 0.8136(2) 0.75990(16)
C30 C 0.0397(3) 0.7735(3) 0.73640(17)
H18 H 0.0907 0.7763 0.7603
H19 H 0.0557 0.7978 0.7036
H20 H 0.0243 0.7204 0.7301
C31 C -0.1304(3) 0.8193(3) 0.67544(16)
H21 H -0.1958 0.8209 0.6685
H22 H -0.1090 0.7676 0.6675
C32 C 0.4542(3) 1.0109(2) 0.39394(16)
O3 O 0.4213(2) 1.07868(16) 0.38942(12)
O4 O 0.5331(2) 0.99110(19) 0.40463(14)
N4 N -0.0495(2) 0.83169(19) 0.81025(13)
Co1F Co 0.03556(4) 0.81780(4) 0.87285(3)
Co1G Co 0.46444(4) 1.18220(4) 0.37285(3)
O3G O 0.0787(2) 0.57868(16) 0.38942(12)
N4F N -0.0495(2) 0.66831(19) 0.31025(13)
O5 O 0.9369(10) 0.3365(8) 0.3665(5)
loop_
_geom_bond_atom_site_label_1
_geom_bond_atom_site_label_2
_geom_bond_site_symmetry_1
_geom_bond_site_symmetry_2
Br1 C9 1_555 1_555
Br2 C14 1_555 1_555
Br3 C2 1_555 1_555
Br4 C1 1_555 1_555
Co1 O1 1_555 1_555
O1 C7 1_555 1_555
O2 C7 1_555 1_555
N1 Co1 1_555 1_555
C1 C2 1_555 1_555
C2 C12 1_555 1_555
C3 C15 1_555 1_555
N2 C8 1_555 1_555
C4 H1 1_555 1_555
H2 C4 1_555 1_555
H3 C4 1_555 1_555
C5 C1 1_555 1_555
C6 C17 1_555 1_555
C7 C5 1_555 1_555
C8 N1 1_555 1_555
C9 C5 1_555 1_555
C10 H4 1_555 1_555
C11 H5 1_555 1_555
C12 C14 1_555 1_555
C13 N2 1_555 1_555
C14 C9 1_555 1_555
C15 C23 1_555 1_555
C16 H6 1_555 1_555
C17 C20 1_555 1_555
C18 C11 1_555 1_555
H7 C18 1_555 1_555
C19 C10 1_555 1_555
H8 C19 1_555 1_555
C20 C16 1_555 1_555
H9 C20 1_555 1_555
C21 N1 1_555 1_555
C22 C16 1_555 1_555
H10 C22 1_555 1_555
C23 N2 1_555 1_555
H11 C23 1_555 1_555
H12 C23 1_555 1_555
C24 C15 1_555 1_555
H13 C24 1_555 1_555
C25 C13 1_555 1_555
H14 C25 1_555 1_555
C26 C3 1_555 1_555
H15 C26 1_555 1_555
C27 C6 1_555 1_555
H16 C27 1_555 1_555
C28 C19 1_555 1_555
H17 C28 1_555 1_555
N3 C17 1_555 1_555
C29 N3 1_555 1_555
C30 C29 1_555 1_555
H18 C30 1_555 1_555
H19 C30 1_555 1_555
H20 C30 1_555 1_555
C31 C3 1_555 1_555
H21 C31 1_555 1_555
H22 C31 1_555 1_555
C32 C12 1_555 1_555
O3 C32 1_555 1_555
O4 C32 1_555 1_555
N4 C6 1_555 1_555
Co1F N4 1_555 1_555
Co1G O3 1_555 1_555
O3G Co1 1_555 1_555
N4F Co1 1_555 1_555
C4 C8 1_555 1_555
C10 C21 1_555 1_555
C11 C26 1_555 1_555
C13 C21 1_555 1_555
C18 C24 1_555 1_555
C22 C27 1_555 1_555
C25 C28 1_555 1_555
N3 C31 1_555 1_555
C29 N4 1_555 1_555

#END
