
#######################################################################
#
#                 Cambridge Crystallographic Data Centre
#                                CCDC 
#
#######################################################################
#
# If this CIF has been generated from an entry in the Cambridge 
# Structural Database, then it will include bibliographic, chemical, 
# crystal, experimental, refinement or atomic coordinate data resulting 
# from the CCDC's data processing and validation procedures.
#
#######################################################################

data_DUKPIJ
_symmetry_cell_setting           triclinic
_symmetry_space_group_name_H-M   'P -1'
_symmetry_Int_Tables_number      2
_space_group_name_Hall           '-P 1'
loop_
_symmetry_equiv_pos_site_id
_symmetry_equiv_pos_as_xyz
1 x,y,z
2 -x,-y,-z
_cell_length_a                   8.6441(2)
_cell_length_b                   11.1173(3)
_cell_length_c                   13.3944(3)
_cell_angle_alpha                101.234(2)
_cell_angle_beta                 107.521(3)
_cell_angle_gamma                106.587(2)
_cell_volume                     1119.51
loop_
_atom_site_label
_atom_site_type_symbol
_atom_site_fract_x
_atom_site_fract_y
_atom_site_fract_z
Dy1 Dy 0.257311(13) 0.111249(10) 0.062817(8)
O1 O 0.1170(2) 0.25418(16) 0.11431(14)
O2 O 0.2650(2) 0.31148(17) 0.01214(14)
C1 C 0.1808(3) 0.3380(2) 0.0702(2)
C2 C 0.1601(3) 0.4664(2) 0.0901(2)
H1 H 0.1926 0.5224 0.0488
C3 C 0.0976(4) 0.5061(3) 0.1640(2)
H2 H 0.0601 0.4460 0.2012
C4 C 0.0810(4) 0.6370(3) 0.1938(3)
H3 H 0.1285 0.6912 0.1526
H4 H 0.1458 0.6814 0.2729
H5 H -0.0424 0.6245 0.1755
O3 O 0.5466(2) 0.09731(17) 0.16405(14)
O4 O 0.5166(2) 0.28831(16) 0.19531(14)
C5 C 0.6126(3) 0.2203(2) 0.2119(2)
C6 C 0.7970(3) 0.2890(3) 0.2868(2)
H6 H 0.8344 0.3799 0.3254
C7 C 0.9119(4) 0.2331(3) 0.3033(2)
H7 H 0.8724 0.1415 0.2660
C8 C 1.1011(4) 0.3009(4) 0.3761(3)
H8 H 1.1223 0.3910 0.4172
H9 H 1.1719 0.3036 0.3310
H10 H 1.1328 0.2524 0.4278
O5 O 0.2538(2) 0.07059(17) 0.23275(14)
O6 O 0.0012(2) -0.02447(16) 0.09435(13)
C9 C 0.0967(3) -0.0049(2) 0.19510(19)
C10 C 0.0180(3) -0.0758(2) 0.2606(2)
H11 H -0.1026 -0.1294 0.2283
C11 C 0.1084(3) -0.0677(3) 0.3621(2)
H12 H 0.2262 -0.0078 0.3950
C12 C 0.0401(4) -0.1454(3) 0.4297(2)
H13 H -0.0839 -0.1993 0.3884
H14 H 0.0543 -0.0849 0.4985
H15 H 0.1052 -0.2029 0.4464
O7 O 0.2293(2) -0.11385(17) -0.00070(15)
H16 H 0.1304 -0.1717 -0.0430
H17 H 0.3110 -0.1412 0.0009
O8 O 0.4087(2) 0.11358(17) -0.05853(15)
H18 H 0.4032 0.0383 -0.0904
H19 H 0.4129 0.1620 -0.0999
Dy1A Dy -0.257311(13) -0.111249(10) -0.062817(8)
O6A O -0.0012(2) 0.02447(16) -0.09435(13)
N1 N 0.5034(3) 0.8160(2) 0.45832(17)
C13 C 0.4950(3) 0.6955(3) 0.4701(2)
N2 N 0.4658(3) 0.6733(2) 0.56031(19)
H20 H 0.4847 0.6047 0.5770
H21 H 0.5141 0.7464 0.6161
N3 N 0.5091(3) 0.5967(2) 0.40318(17)
C14 C 0.5358(3) 0.6285(2) 0.3163(2)
C15 C 0.5447(3) 0.7457(2) 0.2926(2)
C16 C 0.5281(3) 0.8431(2) 0.3691(2)
N4 N 0.5406(3) 0.9634(2) 0.35924(19)
H22 H 0.5231 1.0186 0.4075
H23 H 0.5357 0.9757 0.2956
N5 N 0.5749(3) 0.7412(2) 0.19575(18)
C17 C 0.5844(3) 0.6242(2) 0.1645(2)
H24 H 0.6038 0.5930 0.0998
N6 N 0.5633(3) 0.5532(2) 0.23454(17)
H25 H 0.5668 0.4738 0.2285
loop_
_geom_bond_atom_site_label_1
_geom_bond_atom_site_label_2
_geom_bond_site_symmetry_1
_geom_bond_site_symmetry_2
Dy1 O1 1_555 1_555
O1 C1 1_555 1_555
O2 Dy1 1_555 1_555
C1 O2 1_555 1_555
C2 C1 1_555 1_555
H1 C2 1_555 1_555
C3 C2 1_555 1_555
H2 C3 1_555 1_555
C4 C3 1_555 1_555
H3 C4 1_555 1_555
H4 C4 1_555 1_555
H5 C4 1_555 1_555
O3 Dy1 1_555 1_555
O4 Dy1 1_555 1_555
C5 O3 1_555 1_555
C6 C5 1_555 1_555
H6 C6 1_555 1_555
C7 C6 1_555 1_555
H7 C7 1_555 1_555
C8 C7 1_555 1_555
H8 C8 1_555 1_555
H9 C8 1_555 1_555
H10 C8 1_555 1_555
O5 Dy1 1_555 1_555
O6 Dy1 1_555 1_555
C9 O5 1_555 1_555
C10 C9 1_555 1_555
H11 C10 1_555 1_555
C11 C10 1_555 1_555
H12 C11 1_555 1_555
C12 C11 1_555 1_555
H13 C12 1_555 1_555
H14 C12 1_555 1_555
H15 C12 1_555 1_555
O7 Dy1 1_555 1_555
H16 O7 1_555 1_555
H17 O7 1_555 1_555
O8 Dy1 1_555 1_555
H18 O8 1_555 1_555
H19 O8 1_555 1_555
N1 C13 1_555 1_555
C13 N2 1_555 1_555
N2 H20 1_555 1_555
H21 N2 1_555 1_555
N3 C13 1_555 1_555
C14 N3 1_555 1_555
C15 C14 1_555 1_555
C16 N1 1_555 1_555
N4 C16 1_555 1_555
H22 N4 1_555 1_555
H23 N4 1_555 1_555
N5 C15 1_555 1_555
C17 N5 1_555 1_555
H24 C17 1_555 1_555
N6 C14 1_555 1_555
H25 N6 1_555 1_555
Dy1A O6 1_555 1_555
O6A Dy1 1_555 1_555
O4 C5 1_555 1_555
O6 C9 1_555 1_555
C15 C16 1_555 1_555
C17 N6 1_555 1_555
Dy1A O6A 1_555 1_555

#END
