
#######################################################################
#
#                 Cambridge Crystallographic Data Centre
#                                CCDC 
#
#######################################################################
#
# If this CIF has been generated from an entry in the Cambridge 
# Structural Database, then it will include bibliographic, chemical, 
# crystal, experimental, refinement or atomic coordinate data resulting 
# from the CCDC's data processing and validation procedures.
#
#######################################################################

data_DUKPIK
_symmetry_cell_setting           monoclinic
_symmetry_space_group_name_H-M   'P 2/n'
_symmetry_Int_Tables_number      13
_space_group_name_Hall           '-P 2yac'
loop_
_symmetry_equiv_pos_site_id
_symmetry_equiv_pos_as_xyz
1 x,y,z
2 1/2-x,y,1/2-z
3 -x,-y,-z
4 1/2+x,-y,1/2+z
_cell_length_a                   11.7945(14)
_cell_length_b                   9.8789(12)
_cell_length_c                   12.6795(15)
_cell_angle_alpha                90
_cell_angle_beta                 93.523(2)
_cell_angle_gamma                90
_cell_volume                     1474.58
loop_
_atom_site_label
_atom_site_type_symbol
_atom_site_fract_x
_atom_site_fract_y
_atom_site_fract_z
Co1 Co 1.2500 0.17396(9) 0.2500
Br1 Br 0.73784(5) 0.53076(6) 0.40400(5)
Br2 Br 0.89933(5) 0.28221(7) 0.32478(6)
N1 N 1.1034(3) 0.0821(4) 0.1969(3)
N2 N 0.9400(3) -0.0296(4) 0.1850(3)
O1 O 1.1913(3) 0.3083(4) 0.3474(3)
O2 O 1.1468(4) 0.1707(4) 0.4776(3)
C1 C 1.0338(4) 0.1401(5) 0.1155(4)
C2 C 0.8893(4) 0.5131(5) 0.4586(4)
C3 C 1.0440(4) -0.0167(5) 0.2368(4)
C4 C 0.9324(4) 0.0690(5) 0.1066(4)
C5 C 1.0673(4) 0.3927(5) 0.4677(4)
C6 C 1.1419(4) 0.2779(5) 0.4296(4)
C7 C 0.9664(5) 0.2846(6) -0.0230(4)
H1 H 0.9759 0.3586 -0.0669
C8 C 0.9566(4) 0.4080(5) 0.4267(4)
C9 C 1.0845(5) -0.1034(6) 0.3256(5)
H2 H 1.1531 -0.0662 0.3583
H3 H 1.0992 -0.1927 0.2999
H4 H 1.0276 -0.1079 0.3764
C10 C 1.0514(4) 0.2504(6) 0.0508(4)
H5 H 1.1188 0.2995 0.0572
C11 C 0.8654(5) 0.2099(6) -0.0331(4)
H6 H 0.8097 0.2350 -0.0845
C12 C 0.8465(4) -0.1197(5) 0.2095(5)
H7 H 0.8730 -0.1850 0.2625
H8 H 0.8201 -0.1688 0.1465
C13 C 0.8460(4) 0.1004(6) 0.0305(4)
H9 H 0.7792 0.0503 0.0231
C14 C 0.7500 -0.0389(8) 0.2500
H10 H 0.7803 0.0193 0.3066
H10A H 0.7197 0.0193 0.1934
Br1B Br 1.26216(5) 0.46924(6) 0.59600(5)
Br2B Br 1.10067(5) 0.71779(7) 0.67522(6)
O1B O 0.8087(3) 0.6917(4) 0.6526(3)
O2B O 0.8532(4) 0.8293(4) 0.5224(3)
C2B C 1.1107(4) 0.4869(5) 0.5414(4)
C5B C 0.9327(4) 0.6073(5) 0.5323(4)
C6B C 0.8581(4) 0.7221(5) 0.5704(4)
C8B C 1.0434(4) 0.5920(5) 0.5733(4)
N1A N 0.3966(3) 0.0821(4) 0.3031(3)
N2A N 0.5600(3) -0.0296(4) 0.3150(3)
C1A C 0.4662(4) 0.1401(5) 0.3845(4)
C3A C 0.4560(4) -0.0167(5) 0.2632(4)
C4A C 0.5676(4) 0.0690(5) 0.3934(4)
C7A C 0.5336(5) 0.2846(6) 0.5230(4)
H1A H 0.5241 0.3586 0.5669
C9A C 0.4155(5) -0.1034(6) 0.1744(5)
H2A H 0.3469 -0.0662 0.1417
H3A H 0.4008 -0.1927 0.2001
H4A H 0.4724 -0.1079 0.1236
C10A C 0.4486(4) 0.2504(6) 0.4492(4)
H5A H 0.3812 0.2995 0.4428
C11A C 0.6346(5) 0.2099(6) 0.5331(4)
H6A H 0.6903 0.2350 0.5845
C12A C 0.6535(4) -0.1197(5) 0.2905(5)
H7A H 0.6270 -0.1850 0.2375
H8A H 0.6799 -0.1688 0.3535
C13A C 0.6540(4) 0.1004(6) 0.4695(4)
H9A H 0.7208 0.0503 0.4769
Co1_2 Co 0.2500 0.17396(9) 0.2500
Co1B Co 0.7500 0.82604(9) 0.7500
N1A_2 N 1.3966(3) 0.0821(4) 0.3031(3)
O1A O 1.3087(3) 0.3083(4) 0.1526(3)
O3 O 0.2500 0.5733(10) 0.2500
H11? H 0.7803 0.0193 0.3066
loop_
_geom_bond_atom_site_label_1
_geom_bond_atom_site_label_2
_geom_bond_site_symmetry_1
_geom_bond_site_symmetry_2
Co1 N1 1_555 1_555
Br1 C2 1_555 1_555
Br2 C8 1_555 1_555
N1 C1 1_555 1_555
N2 C3 1_555 1_555
O1 Co1 1_555 1_555
O2 C6 1_555 1_555
C1 C4 1_555 1_555
C2 C8 1_555 1_555
C3 N1 1_555 1_555
C4 N2 1_555 1_555
C5 C6 1_555 1_555
C6 O1 1_555 1_555
C7 H1 1_555 1_555
C8 C5 1_555 1_555
C9 C3 1_555 1_555
H2 C9 1_555 1_555
H3 C9 1_555 1_555
H4 C9 1_555 1_555
C10 C1 1_555 1_555
H5 C10 1_555 1_555
C11 C7 1_555 1_555
H6 C11 1_555 1_555
C12 N2 1_555 1_555
H7 C12 1_555 1_555
H8 C12 1_555 1_555
C13 C4 1_555 1_555
H9 C13 1_555 1_555
C14 C12 1_555 1_555
H10 C14 1_555 1_555
H10A C14 1_555 1_555
Br1B C2B 1_555 1_555
Br2B C8B 1_555 1_555
O1B C6B 1_555 1_555
O2B C6B 1_555 1_555
C2B C5 1_555 1_555
C5B C2 1_555 1_555
C6B C5B 1_555 1_555
C8B C2B 1_555 1_555
N1A C1A 1_555 1_555
N2A C3A 1_555 1_555
C1A C4A 1_555 1_555
C3A N1A 1_555 1_555
C4A N2A 1_555 1_555
C7A H1A 1_555 1_555
C9A C3A 1_555 1_555
H2A C9A 1_555 1_555
H3A C9A 1_555 1_555
H4A C9A 1_555 1_555
C10A C1A 1_555 1_555
H5A C10A 1_555 1_555
C11A C7A 1_555 1_555
H6A C11A 1_555 1_555
C12A C14 1_555 1_555
H7A C12A 1_555 1_555
H8A C12A 1_555 1_555
C13A C4A 1_555 1_555
H9A C13A 1_555 1_555
Co1_2 N1A 1_555 1_555
Co1B O1B 1_555 1_555
N1A_2 Co1 1_555 1_555
O1A Co1 1_555 1_555
C7 C10 1_555 1_555
C11 C13 1_555 1_555
C5B C8B 1_555 1_555
N2A C12A 1_555 1_555
C7A C10A 1_555 1_555
C11A C13A 1_555 1_555

#END
