
#######################################################################
#
#                 Cambridge Crystallographic Data Centre
#                                CCDC 
#
#######################################################################
#
# If this CIF has been generated from an entry in the Cambridge 
# Structural Database, then it will include bibliographic, chemical, 
# crystal, experimental, refinement or atomic coordinate data resulting 
# from the CCDC's data processing and validation procedures.
#
#######################################################################

data_DUKQUX
_symmetry_cell_setting           monoclinic
_symmetry_space_group_name_H-M   'P 21/c'
_symmetry_Int_Tables_number      14
_space_group_name_Hall           '-P 2ybc'
loop_
_symmetry_equiv_pos_site_id
_symmetry_equiv_pos_as_xyz
1 x,y,z
2 -x,1/2+y,1/2-z
3 -x,-y,-z
4 x,1/2-y,1/2+z
_cell_length_a                   10.4411(8)
_cell_length_b                   6.9518(6)
_cell_length_c                   30.305(2)
_cell_angle_alpha                90
_cell_angle_beta                 96.5220(10)
_cell_angle_gamma                90
_cell_volume                     2185.44
loop_
_atom_site_label
_atom_site_type_symbol
_atom_site_fract_x
_atom_site_fract_y
_atom_site_fract_z
Er1 Er 0.521207(19) 0.97633(3) 0.440894(6)
S1 S 0.11879(12) 1.04212(17) 0.12214(4)
S2 S -0.39935(11) 0.97724(14) 0.07597(4)
N1 N 0.2926(4) 0.9844(4) 0.40608(13)
N2 N 0.4948(3) 0.9673(5) 0.35701(12)
N3 N 0.0047(4) 1.0106(5) 0.26535(12)
N4 N 0.1679(4) 0.9645(5) 0.22493(13)
H1 H 0.2084 0.9486 0.2020
O1 O 0.1915(3) 0.8679(5) 0.13521(11)
O2 O 0.1724(3) 1.2096(5) 0.14511(12)
O3 O 0.0982(3) 1.0668(5) 0.07409(11)
O4 O -0.4766(3) 1.1460(4) 0.08338(10)
O5 O -0.4696(3) 0.8016(4) 0.08383(10)
O6 O -0.3457(3) 0.9802(4) 0.03394(10)
C1 C 0.1954(4) 1.0000(6) 0.43049(16)
H2 H 0.2136 0.9980 0.4612
C2 C 0.0668(5) 1.0194(6) 0.41226(16)
H3 H 0.0017 1.0312 0.4306
C3 C 0.0382(4) 1.0206(6) 0.36704(16)
H4 H -0.0466 1.0345 0.3543
C4 C 0.1371(4) 1.0008(5) 0.34025(15)
C5 C 0.1190(4) 0.9949(6) 0.29281(15)
C6 C 0.2218(5) 0.9678(6) 0.26854(15)
C7 C 0.3518(5) 0.9550(6) 0.28787(15)
C8 C 0.4583(5) 0.9319(8) 0.26458(17)
H5 H 0.4478 0.9200 0.2338
C9 C 0.5787(5) 0.9268(8) 0.28765(18)
H6 H 0.6509 0.9094 0.2727
C10 C 0.5926(5) 0.9479(7) 0.33361(16)
H7 H 0.6754 0.9482 0.3486
C11 C 0.3726(4) 0.9692(6) 0.33459(15)
C12 C 0.2646(4) 0.9853(5) 0.36103(14)
C13 C 0.0381(5) 0.9913(6) 0.22470(15)
C14 C -0.0593(4) 0.9940(6) 0.18505(15)
C15 C -0.1859(5) 0.9782(6) 0.19476(16)
H8 H -0.2013 0.9699 0.2243
C16 C -0.2895(5) 0.9744(6) 0.16221(15)
H9 H -0.3731 0.9654 0.1697
C17 C -0.2667(4) 0.9844(5) 0.11781(15)
C18 C -0.1425(5) 1.0028(6) 0.10713(15)
H10 H -0.1283 1.0116 0.0775
C19 C -0.0380(4) 1.0083(5) 0.13988(15)
O7 O 0.4278(3) 0.8574(4) 0.49700(10)
H11 H 0.401(4) 0.751(3) 0.4976(14)
O8 O 0.7029(3) 0.7812(5) 0.46877(11)
H12 H 0.757(3) 0.735(6) 0.4531(13)
H13 H 0.688(4) 0.692(5) 0.4859(13)
O9 O 0.7196(3) 1.1117(5) 0.42375(11)
H14 H 0.775(4) 1.139(7) 0.4455(11)
H15 H 0.731(4) 1.200(5) 0.4055(13)
Er1A Er -0.521207(19) 0.47633(3) 0.059106(6)
Er1A_2 Er -0.521207(19) 1.47633(3) 0.059106(6)
Er1B Er 0.478793(19) 1.02367(3) 0.559106(6)
O4A O 0.4766(3) 0.6460(4) 0.41662(10)
O5A O 0.4696(3) 1.3016(4) 0.41617(10)
O7B O 0.5722(3) 1.1426(4) 0.50300(10)
O10 O 0.0914(5) 0.7668(7) 0.00998(15)
H16 H 0.077(7) 0.852(8) 0.0289(18)
H17 H 0.043(6) 0.797(10) -0.0137(15)
loop_
_geom_bond_atom_site_label_1
_geom_bond_atom_site_label_2
_geom_bond_site_symmetry_1
_geom_bond_site_symmetry_2
Er1 N1 1_555 1_555
S1 O1 1_555 1_555
S2 O4 1_555 1_555
N1 C1 1_555 1_555
N2 Er1 1_555 1_555
N3 C5 1_555 1_555
N4 H1 1_555 1_555
O2 S1 1_555 1_555
O3 S1 1_555 1_555
O4 Er1A_2 1_555 1_555
O5 S2 1_555 1_555
O6 S2 1_555 1_555
C1 H2 1_555 1_555
C2 C1 1_555 1_555
H3 C2 1_555 1_555
C3 C2 1_555 1_555
H4 C3 1_555 1_555
C4 C3 1_555 1_555
C5 C4 1_555 1_555
C6 N4 1_555 1_555
C7 C6 1_555 1_555
C8 C7 1_555 1_555
H5 C8 1_555 1_555
C9 C8 1_555 1_555
H6 C9 1_555 1_555
C10 N2 1_555 1_555
H7 C10 1_555 1_555
C11 N2 1_555 1_555
C12 N1 1_555 1_555
C13 N3 1_555 1_555
C14 C13 1_555 1_555
C15 C14 1_555 1_555
H8 C15 1_555 1_555
C16 C15 1_555 1_555
H9 C16 1_555 1_555
C17 S2 1_555 1_555
C18 C17 1_555 1_555
H10 C18 1_555 1_555
C19 S1 1_555 1_555
O7 Er1 1_555 1_555
H11 O7 1_555 1_555
O8 Er1 1_555 1_555
H12 O8 1_555 1_555
H13 O8 1_555 1_555
O9 Er1 1_555 1_555
H14 O9 1_555 1_555
H15 O9 1_555 1_555
O10 H16 1_555 1_555
H17 O10 1_555 1_555
Er1A O5 1_555 1_555
Er1B O7 1_555 1_555
O4A Er1 1_555 1_555
O5A Er1 1_555 1_555
O7B Er1 1_555 1_555
N4 C13 1_555 1_555
C4 C12 1_555 1_555
C5 C6 1_555 1_555
C7 C11 1_555 1_555
C9 C10 1_555 1_555
C11 C12 1_555 1_555
C14 C19 1_555 1_555
C16 C17 1_555 1_555
C18 C19 1_555 1_555
Er1B O7B 1_555 1_555

#END
