
#######################################################################
#
#                 Cambridge Crystallographic Data Centre
#                                CCDC 
#
#######################################################################
#
# If this CIF has been generated from an entry in the Cambridge 
# Structural Database, then it will include bibliographic, chemical, 
# crystal, experimental, refinement or atomic coordinate data resulting 
# from the CCDC's data processing and validation procedures.
#
#######################################################################

data_DUKQOR
_symmetry_cell_setting           monoclinic
_symmetry_space_group_name_H-M   'P 21/c'
_symmetry_Int_Tables_number      14
_space_group_name_Hall           '-P 2ybc'
loop_
_symmetry_equiv_pos_site_id
_symmetry_equiv_pos_as_xyz
1 x,y,z
2 -x,1/2+y,1/2-z
3 -x,-y,-z
4 x,1/2-y,1/2+z
_cell_length_a                   10.490(2)
_cell_length_b                   7.0119(15)
_cell_length_c                   30.571(6)
_cell_angle_alpha                90
_cell_angle_beta                 96.552(3)
_cell_angle_gamma                90
_cell_volume                     2233.96
loop_
_atom_site_label
_atom_site_type_symbol
_atom_site_fract_x
_atom_site_fract_y
_atom_site_fract_z
Ho1 Ho -0.02168(2) 0.02412(3) 0.059216(7)
S1 S 0.38128(15) -0.0408(2) 0.37796(5)
S2 S 0.89946(14) 0.02288(17) 0.42408(4)
N1 N 0.0061(5) 0.0330(6) 0.14336(15)
N2 N 0.2084(5) 0.0157(5) 0.09431(15)
N3 N 0.3317(5) 0.0354(7) 0.27527(16)
H1 H 0.2907 0.0511 0.2978
N4 N 0.4954(5) -0.0092(6) 0.23496(15)
O1 O 0.4016(4) -0.0633(7) 0.42594(13)
O2 O 0.3091(4) 0.1338(6) 0.36468(13)
O3 O 0.3274(4) -0.2082(6) 0.35495(14)
O4 O 0.9693(4) 0.1989(5) 0.41629(12)
O5 O 0.9772(3) -0.1460(5) 0.41651(11)
O6 O 0.8455(4) 0.0195(5) 0.46596(13)
C1 C -0.0922(6) 0.0538(8) 0.16726(19)
H2 H -0.1746 0.0558 0.1524
C2 C -0.0795(6) 0.0728(11) 0.2132(2)
H3 H -0.1513 0.0895 0.2280
C3 C 0.0407(6) 0.0662(11) 0.23565(19)
H4 H 0.0514 0.0762 0.2662
C4 C 0.1482(6) 0.0444(8) 0.21245(18)
C5 C 0.2800(6) 0.0323(7) 0.23170(18)
C6 C 0.3814(6) 0.0063(7) 0.20738(19)
C7 C 0.3628(6) 0.0004(7) 0.16031(19)
C8 C 0.4628(6) -0.0196(7) 0.13357(19)
H5 H 0.5470 -0.0339 0.1464
C9 C 0.4356(6) -0.0180(8) 0.0884(2)
H6 H 0.5007 -0.0292 0.0703
C10 C 0.3067(6) 0.0010(7) 0.07039(19)
H7 H 0.2889 0.0035 0.0399
C11 C 0.2341(5) 0.0149(6) 0.13904(17)
C12 C 0.1281(5) 0.0318(7) 0.16566(18)
C13 C 0.4612(6) 0.0085(7) 0.27559(19)
C14 C 0.5587(6) 0.0070(7) 0.31501(18)
C15 C 0.6872(6) 0.0212(8) 0.3056(2)
H8 H 0.7030 0.0279 0.2763
C16 C 0.7907(6) 0.0256(8) 0.33815(18)
H9 H 0.8739 0.0348 0.3307
C17 C 0.7684(6) 0.0162(6) 0.38228(18)
C18 C 0.6425(6) -0.0020(7) 0.39300(19)
H10 H 0.6280 -0.0108 0.4224
C19 C 0.5375(6) -0.0072(7) 0.35965(18)
O7 O 0.0726(4) 0.1430(5) 0.00306(11)
H11 H 0.113(5) 0.238(5) 0.0081(17)
O8 O -0.2039(4) 0.2216(6) 0.03086(11)
H12 H -0.205(5) 0.294(7) 0.0087(12)
H13 H -0.258(4) 0.264(8) 0.0465(15)
O9 O -0.2219(4) -0.1088(6) 0.07624(12)
H14 H -0.231(6) -0.199(6) 0.0942(15)
H15 H -0.256(6) -0.155(8) 0.0521(12)
Ho1A Ho 1.02168(2) -0.47588(3) 0.440784(7)
Ho1A_2 Ho 1.02168(2) 0.52412(3) 0.440784(7)
Ho1B Ho 0.02168(2) -0.02412(3) -0.059216(7)
O4A O 0.0307(4) -0.3011(5) 0.08371(12)
O5A O 0.0228(3) 0.3540(5) 0.08349(11)
O7B O -0.0726(4) -0.1430(5) -0.00306(11)
O10 O 0.5901(6) 0.7308(8) 0.00995(15)
loop_
_geom_bond_atom_site_label_1
_geom_bond_atom_site_label_2
_geom_bond_site_symmetry_1
_geom_bond_site_symmetry_2
Ho1 N1 1_555 1_555
S1 O1 1_555 1_555
S2 O4 1_555 1_555
N1 C1 1_555 1_555
N2 Ho1 1_555 1_555
N3 H1 1_555 1_555
N4 C6 1_555 1_555
O2 S1 1_555 1_555
O3 S1 1_555 1_555
O4 Ho1A_2 1_555 1_555
O5 S2 1_555 1_555
O6 S2 1_555 1_555
C1 H2 1_555 1_555
C2 C1 1_555 1_555
H3 C2 1_555 1_555
C3 C2 1_555 1_555
H4 C3 1_555 1_555
C4 C3 1_555 1_555
C5 N3 1_555 1_555
C6 C5 1_555 1_555
C7 C6 1_555 1_555
C8 C7 1_555 1_555
H5 C8 1_555 1_555
C9 C8 1_555 1_555
H6 C9 1_555 1_555
C10 N2 1_555 1_555
H7 C10 1_555 1_555
C11 N2 1_555 1_555
C12 N1 1_555 1_555
C13 N3 1_555 1_555
C14 C13 1_555 1_555
C15 C14 1_555 1_555
H8 C15 1_555 1_555
C16 C15 1_555 1_555
H9 C16 1_555 1_555
C17 S2 1_555 1_555
C18 C17 1_555 1_555
H10 C18 1_555 1_555
C19 S1 1_555 1_555
O7 Ho1 1_555 1_555
H11 O7 1_555 1_555
O8 Ho1 1_555 1_555
H12 O8 1_555 1_555
H13 O8 1_555 1_555
O9 Ho1 1_555 1_555
H14 O9 1_555 1_555
H15 O9 1_555 1_555
Ho1A O5 1_555 1_555
Ho1B O7 1_555 1_555
O4A Ho1 1_555 1_555
O5A Ho1 1_555 1_555
O7B Ho1 1_555 1_555
N4 C13 1_555 1_555
C4 C5 1_555 1_555
C4 C12 1_555 1_555
C7 C11 1_555 1_555
C9 C10 1_555 1_555
C11 C12 1_555 1_555
C14 C19 1_555 1_555
C16 C17 1_555 1_555
C18 C19 1_555 1_555
Ho1B O7B 1_555 1_555

#END
