
#######################################################################
#
#                 Cambridge Crystallographic Data Centre
#                                CCDC 
#
#######################################################################
#
# If this CIF has been generated from an entry in the Cambridge 
# Structural Database, then it will include bibliographic, chemical, 
# crystal, experimental, refinement or atomic coordinate data resulting 
# from the CCDC's data processing and validation procedures.
#
#######################################################################

data_DUKQAC01
_symmetry_cell_setting           triclinic
_symmetry_space_group_name_H-M   'P -1'
_symmetry_Int_Tables_number      2
_space_group_name_Hall           '-P 1'
loop_
_symmetry_equiv_pos_site_id
_symmetry_equiv_pos_as_xyz
1 x,y,z
2 -x,-y,-z
_cell_length_a                   7.1440(12)
_cell_length_b                   9.6170(13)
_cell_length_c                   11.4194(15)
_cell_angle_alpha                90.49
_cell_angle_beta                 94.90
_cell_angle_gamma                108.7940(10)
_cell_volume                     739.471
loop_
_atom_site_label
_atom_site_type_symbol
_atom_site_fract_x
_atom_site_fract_y
_atom_site_fract_z
Ag1 Ag 0.75550(5) 0.52817(3) 0.042059(19)
N1 N 0.7568(4) 0.5267(3) 0.2314(2)
N2 N 0.7642(4) 0.5187(3) 0.8539(2)
C1 C 0.8340(7) 0.6482(4) 0.2998(3)
H1 H 0.8880 0.7370 0.2640
C2 C 0.8382(7) 0.6497(4) 0.4194(3)
H2 H 0.8931 0.7384 0.4621
C3 C 0.7624(4) 0.5215(3) 0.4784(2)
C4 C 0.6862(5) 0.3951(3) 0.4067(3)
H3 H 0.6349 0.3045 0.4403
C5 C 0.6856(5) 0.4023(3) 0.2868(3)
H4 H 0.6324 0.3152 0.2417
C6 C 0.8287(5) 0.6432(4) 0.7972(3)
H5 H 0.8732 0.7317 0.8409
C7 C 0.8326(5) 0.6472(4) 0.6772(3)
H6 H 0.8820 0.7372 0.6424
C8 C 0.7641(4) 0.5194(3) 0.6073(2)
C9 C 0.6969(7) 0.3909(4) 0.6683(3)
H7 H 0.6495 0.3007 0.6270
C10 C 0.6995(7) 0.3953(4) 0.7882(3)
H8 H 0.6534 0.3069 0.8257
Ag1_2 Ag 0.75550(5) 0.52817(3) 1.042059(19)
N2_2 N 0.7642(4) 0.5187(3) -0.1461(2)
O1 O 0.2876(3) 0.9207(3) 0.8945(2)
O2 O 0.0782(3) 1.0002(3) 0.7807(2)
C11 C 0.2344(4) 0.9674(3) 0.8004(3)
C12 C 0.3628(4) 0.9821(3) 0.6993(2)
C13 C 0.5629(4) 0.9858(3) 0.7199(3)
H9 H 0.6163 0.9809 0.7963
C14 C 0.6782(4) 0.9963(3) 0.6286(3)
H10 H 0.8098 1.0000 0.6440
C15 C 0.2859(4) 0.9900(3) 0.5864(3)
H11 H 0.1555 0.9899 0.5733
C16 C 0.3995(4) 0.9984(3) 0.4890(2)
O1A O 0.7124(3) 1.0793(3) 0.1055(2)
O2A O 0.9218(3) 0.9998(3) 0.2193(2)
C11A C 0.7656(4) 1.0326(3) 0.1996(3)
C12A C 0.6372(4) 1.0179(3) 0.3007(2)
C13A C 0.4371(4) 1.0142(3) 0.2801(3)
H9A H 0.3837 1.0191 0.2037
C14A C 0.3218(4) 1.0037(3) 0.3714(3)
H10A H 0.1902 1.0000 0.3560
C15A C 0.7141(4) 1.0100(3) 0.4136(3)
H11A H 0.8445 1.0101 0.4267
C16A C 0.6005(4) 1.0016(3) 0.5110(2)
O3 O 0.4640(4) 0.2384(3) 0.0207(3)
H12 H 0.5115 0.1724 0.0452
H13 H 0.3391 0.2002 0.0058
O4 O 0.9992(4) 0.8218(3) 0.0533(2)
H14 H 1.0899 0.8632 0.0094
H15 H 0.9875 0.8863 0.1009
loop_
_geom_bond_atom_site_label_1
_geom_bond_atom_site_label_2
_geom_bond_site_symmetry_1
_geom_bond_site_symmetry_2
Ag1 N1 1_555 1_555
N1 C1 1_555 1_555
N2 C6 1_555 1_555
C1 H1 1_555 1_555
C2 C1 1_555 1_555
H2 C2 1_555 1_555
C3 C2 1_555 1_555
C4 C3 1_555 1_555
H3 C4 1_555 1_555
C5 N1 1_555 1_555
H4 C5 1_555 1_555
C6 H5 1_555 1_555
C7 C6 1_555 1_555
H6 C7 1_555 1_555
C8 C3 1_555 1_555
C9 C8 1_555 1_555
H7 C9 1_555 1_555
C10 N2 1_555 1_555
H8 C10 1_555 1_555
O1 C11 1_555 1_555
O2 C11 1_555 1_555
C11 C12 1_555 1_555
C12 C13 1_555 1_555
C13 H9 1_555 1_555
C14 C13 1_555 1_555
H10 C14 1_555 1_555
C15 C12 1_555 1_555
H11 C15 1_555 1_555
C16 C15 1_555 1_555
O3 H12 1_555 1_555
H13 O3 1_555 1_555
O4 H14 1_555 1_555
H15 O4 1_555 1_555
Ag1_2 N2 1_555 1_555
N2_2 Ag1 1_555 1_555
O1A C11A 1_555 1_555
O2A C11A 1_555 1_555
C11A C12A 1_555 1_555
C12A C13A 1_555 1_555
C13A H9A 1_555 1_555
C14A C16 1_555 1_555
H10A C14A 1_555 1_555
C15A C12A 1_555 1_555
H11A C15A 1_555 1_555
C16A C14 1_555 1_555
C4 C5 1_555 1_555
C7 C8 1_555 1_555
C9 C10 1_555 1_555
C16 C16A 1_555 1_555
C13A C14A 1_555 1_555
C15A C16A 1_555 1_555

#END
