
#######################################################################
#
#                 Cambridge Crystallographic Data Centre
#                                CCDC 
#
#######################################################################
#
# If this CIF has been generated from an entry in the Cambridge 
# Structural Database, then it will include bibliographic, chemical, 
# crystal, experimental, refinement or atomic coordinate data resulting 
# from the CCDC's data processing and validation procedures.
#
#######################################################################

data_DUKQAC
_symmetry_cell_setting           triclinic
_symmetry_space_group_name_H-M   'P -1'
_symmetry_Int_Tables_number      2
_space_group_name_Hall           '-P 1'
loop_
_symmetry_equiv_pos_site_id
_symmetry_equiv_pos_as_xyz
1 x,y,z
2 -x,-y,-z
_cell_length_a                   7.1444(3)
_cell_length_b                   9.6123(5)
_cell_length_c                   11.4228(5)
_cell_angle_alpha                90.4600(10)
_cell_angle_beta                 94.9240(10)
_cell_angle_gamma                108.783(2)
_cell_volume                     739.405
loop_
_atom_site_label
_atom_site_type_symbol
_atom_site_fract_x
_atom_site_fract_y
_atom_site_fract_z
Ag1 Ag 0.24444(4) 0.47190(2) 0.457956(14)
C1 C 0.3024(6) 0.6058(3) 0.7112(2)
H1 H 0.3504 0.6941 0.6737
C2 C 0.3038(5) 0.6096(3) 0.8321(2)
H2 H 0.3509 0.6996 0.8737
C3 C 0.2357(3) 0.4810(2) 0.89223(18)
C4 C 0.1683(4) 0.3524(3) 0.8230(2)
H3 H 0.1207 0.2624 0.8582
C5 C 0.1710(4) 0.3565(3) 0.7029(2)
H4 H 0.1257 0.2682 0.6591
C6 C 0.1663(6) 0.3515(3) 1.2005(2)
H5 H 0.1136 0.2627 1.2365
C7 C 0.1611(6) 0.3501(3) 1.0801(2)
H6 H 0.1056 0.2615 1.0371
C8 C 0.2375(3) 0.4789(2) 1.02194(18)
C9 C 0.3136(4) 0.6053(2) 1.0930(2)
H7 H 0.3646 0.6959 1.0593
C10 C 0.3145(4) 0.5980(3) 1.2134(2)
H8 H 0.3683 0.6850 1.2586
N1 N 0.2357(3) 0.4817(2) 0.64613(16)
N2 N 0.2428(3) 0.4735(2) 1.26862(17)
Ag1_2 Ag 0.24444(4) 0.47190(2) 1.457956(14)
N2_2 N 0.2428(3) 0.4735(2) 0.26862(17)
C11 C 0.4370(3) 0.0142(2) 0.77988(19)
H9 H 0.3838 0.0191 0.7034
C12 C 0.6372(3) 0.0176(2) 0.80075(18)
C13 C 0.7142(3) 0.0099(2) 0.91361(19)
H10 H 0.8446 0.0101 0.9268
C14 C 0.6006(3) 0.0016(2) 1.01106(18)
C15 C 0.3212(3) 0.0035(2) 0.87129(19)
H11 H 0.1897 -0.0003 0.8559
C16 C 0.7664(3) 0.0326(2) 0.69980(19)
O1 O 0.9224(2) 0.0001(2) 0.71925(15)
O2 O 0.7122(3) 0.0790(2) 0.60529(15)
C11A C 0.5630(3) -0.0142(2) 1.22012(19)
H9A H 0.6162 -0.0191 1.2966
C12A C 0.3628(3) -0.0176(2) 1.19925(18)
C13A C 0.2858(3) -0.0099(2) 1.08639(19)
H10A H 0.1554 -0.0101 1.0732
C14A C 0.3994(3) -0.0016(2) 0.98894(18)
C15A C 0.6788(3) -0.0035(2) 1.12871(19)
H11A H 0.8103 0.0003 1.1441
C16A C 0.2336(3) -0.0326(2) 1.30020(19)
O1A O 0.0776(2) -0.0001(2) 1.28075(15)
O2A O 0.2878(3) -0.0790(2) 1.39471(15)
O3 O 0.9988(4) -0.1777(2) 0.5534(2)
H12 H 0.988(6) -0.112(3) 0.599(3)
H13 H 1.092(4) -0.148(4) 0.510(3)
O4 O 0.4625(3) 0.2384(2) 0.5210(2)
H14 H 0.535(5) 0.186(3) 0.538(3)
H15 H 0.349(3) 0.181(3) 0.498(3)
loop_
_geom_bond_atom_site_label_1
_geom_bond_atom_site_label_2
_geom_bond_site_symmetry_1
_geom_bond_site_symmetry_2
Ag1 N1 1_555 1_555
C1 H1 1_555 1_555
C2 C1 1_555 1_555
H2 C2 1_555 1_555
C3 C2 1_555 1_555
C4 C3 1_555 1_555
H3 C4 1_555 1_555
C5 C4 1_555 1_555
H4 C5 1_555 1_555
C6 H5 1_555 1_555
C7 C6 1_555 1_555
H6 C7 1_555 1_555
C8 C3 1_555 1_555
C9 C8 1_555 1_555
H7 C9 1_555 1_555
C10 C9 1_555 1_555
H8 C10 1_555 1_555
N1 C1 1_555 1_555
N2 C6 1_555 1_555
C11 H9 1_555 1_555
C12 C11 1_555 1_555
C13 C12 1_555 1_555
H10 C13 1_555 1_555
C14 C13 1_555 1_555
C15 C11 1_555 1_555
H11 C15 1_555 1_555
C16 C12 1_555 1_555
O1 C16 1_555 1_555
O2 C16 1_555 1_555
O3 H12 1_555 1_555
H13 O3 1_555 1_555
O4 H14 1_555 1_555
H15 O4 1_555 1_555
Ag1_2 N2 1_555 1_555
N2_2 Ag1 1_555 1_555
C11A H9A 1_555 1_555
C12A C11A 1_555 1_555
C13A C12A 1_555 1_555
H10A C13A 1_555 1_555
C14A C14 1_555 1_555
C15A C14 1_555 1_555
H11A C15A 1_555 1_555
C16A C12A 1_555 1_555
O1A C16A 1_555 1_555
O2A C16A 1_555 1_555
C5 N1 1_555 1_555
C7 C8 1_555 1_555
C10 N2 1_555 1_555
C15 C14A 1_555 1_555
C11A C15A 1_555 1_555
C13A C14A 1_555 1_555

#END
