
#######################################################################
#
#                 Cambridge Crystallographic Data Centre
#                                CCDC 
#
#######################################################################
#
# If this CIF has been generated from an entry in the Cambridge 
# Structural Database, then it will include bibliographic, chemical, 
# crystal, experimental, refinement or atomic coordinate data resulting 
# from the CCDC's data processing and validation procedures.
#
#######################################################################

data_DUKQEH
_symmetry_cell_setting           monoclinic
_symmetry_space_group_name_H-M   'C 2/c'
_symmetry_Int_Tables_number      15
_space_group_name_Hall           '-C 2yn'
loop_
_symmetry_equiv_pos_site_id
_symmetry_equiv_pos_as_xyz
1 x,y,z
2 -x,y,1/2-z
3 1/2+x,1/2+y,z
4 1/2-x,1/2+y,1/2-z
5 -x,-y,-z
6 x,-y,1/2+z
7 1/2-x,1/2-y,-z
8 1/2+x,1/2-y,1/2+z
_cell_length_a                   22.0274(16)
_cell_length_b                   16.0790(16)
_cell_length_c                   15.3889(12)
_cell_angle_alpha                90
_cell_angle_beta                 119.8590(10)
_cell_angle_gamma                90
_cell_volume                     4726.89
loop_
_atom_site_label
_atom_site_type_symbol
_atom_site_fract_x
_atom_site_fract_y
_atom_site_fract_z
Sm1 Sm 0.132971(7) 0.182873(8) 0.705298(10)
N1 N 0.20414(11) 0.26678(14) 0.64303(17)
N2 N 0.20663(11) 0.09817(14) 0.64178(17)
O1 O 0.08918(11) 0.32301(12) 0.68881(19)
O2 O 0.00920(10) 0.22861(12) 0.65607(15)
O3 O 0.08730(12) 0.04932(14) 0.70771(18)
O4 O 0.11870(11) 0.19131(13) 0.85664(16)
O5 O 0.23937(9) 0.24793(11) 0.84839(14)
O6 O 0.23889(10) 0.10089(12) 0.84961(15)
O7 O 0.06225(10) 0.15518(12) 0.53026(14)
C1 C 0.20349(16) 0.34954(18) 0.6450(2)
C2 C 0.25648(14) 0.22885(17) 0.63605(19)
C3 C 0.20438(15) 0.01591(18) 0.6349(2)
C4 C 0.25657(13) 0.13859(16) 0.63101(19)
C5 C 0.02745(15) 0.30428(18) 0.6664(2)
H1 H 0.0846(19) 0.034(2) 0.758(2)
H2 H 0.0676(18) 0.0177(19) 0.660(2)
H3 H 0.1438(15) 0.2265(17) 0.899(2)
H4 H 0.0797(12) 0.202(2) 0.853(2)
S1 S 0.27950(3) 0.17414(4) 0.90232(5)
H5 H 0.1671 0.3757 0.6485
C6 C 0.25392(17) 0.39886(19) 0.6421(3)
C7 C 0.31016(14) 0.27559(18) 0.6337(2)
C8 C 0.25050(16) -0.03114(18) 0.6170(2)
H6 H 0.1703 -0.0121 0.6424
C9 C 0.30649(14) 0.09530(17) 0.6161(2)
C10 C -0.02319(15) 0.37223(18) 0.6548(2)
C11 C 0.35603(14) 0.17636(17) 0.8922(2)
O8 O 0.30337(11) 0.17547(12) 1.00787(15)
H7 H 0.2511 0.4565 0.6435
C12 C 0.30788(16) 0.36166(18) 0.6372(2)
C13 C 0.36221(14) 0.22859(18) 0.6259(2)
C14 C 0.30188(15) 0.00889(18) 0.6082(2)
H8 H 0.2462 -0.0887 0.6111
C15 C 0.36055(14) 0.14413(18) 0.6142(2)
H9 H -0.0684 0.3474 0.6351
H10 H -0.0291 0.4091 0.6012
C16 C 0.0000 0.4237(3) 0.7500
C17 C 0.39034(13) 0.25174(17) 0.91153(19)
C18 C 0.38450(15) 0.10648(18) 0.8736(2)
H11 H 0.3427 0.3937 0.6361
N3 N 0.42064(12) 0.25509(15) 0.62541(18)
H12 H 0.3334 -0.0212 0.5970
N4 N 0.41679(12) 0.11796(15) 0.60544(18)
H13 H -0.0385 0.4593 0.7400
H14 H 0.3710 0.2983 0.9244
C19 C 0.45304(13) 0.25885(16) 0.91204(19)
H15 H 0.3622 0.0553 0.8621
C20 C 0.44654(15) 0.11388(18) 0.8725(2)
H16 H 0.4352 0.3056 0.6321
C21 C 0.45183(15) 0.18725(17) 0.6124(2)
C22 C 0.48261(14) 0.18899(17) 0.8919(2)
S2 S 0.49229(3) 0.35927(4) 0.94609(5)
H17 H 0.4649 0.0671 0.8582
O9 O 0.49615(10) 0.39010(13) 0.85967(15)
O10 O 0.44892(11) 0.41014(12) 0.97034(17)
H13A H 0.0385 0.4593 0.7600
C10A C 0.02319(15) 0.37223(18) 0.8452(2)
C5A C -0.02745(15) 0.30428(18) 0.8336(2)
H9A H 0.0684 0.3474 0.8649
H10A H 0.0291 0.4091 0.8988
C22A C 0.51739(14) 0.18899(17) 0.6081(2)
O1A O -0.08918(11) 0.32301(12) 0.81119(19)
O2A O -0.00920(10) 0.22861(12) 0.84393(15)
C21A C 0.54817(15) 0.18725(17) 0.8876(2)
O7G O 0.56225(10) 0.34482(12) 1.03026(14)
C20A C 0.55346(15) 0.11388(18) 0.6275(2)
C19A C 0.54696(13) 0.25885(16) 0.58796(19)
Sm1A Sm -0.132971(7) 0.182873(8) 0.794702(10)
N4A N 0.58321(12) 0.11796(15) 0.89456(18)
N3A N 0.57936(12) 0.25509(15) 0.87459(18)
Sm1G Sm 0.632971(7) 0.317127(8) 1.205298(10)
H17A H 0.5351 0.0671 0.6418
C18A C 0.61550(15) 0.10648(18) 0.6264(2)
S2A S 0.50771(3) 0.35927(4) 0.55391(5)
C17A C 0.60966(13) 0.25174(17) 0.58847(19)
C15A C 0.63945(14) 0.14413(18) 0.8858(2)
C13A C 0.63779(14) 0.22859(18) 0.8741(2)
H16A H 0.5648 0.3056 0.8679
H15A H 0.6378 0.0553 0.6379
C11A C 0.64397(14) 0.17636(17) 0.6078(2)
O7F O 0.43775(10) 0.34482(12) 0.46974(14)
O9A O 0.50385(10) 0.39010(13) 0.64033(15)
O10A O 0.55108(11) 0.41014(12) 0.52966(17)
H14A H 0.6290 0.2983 0.5756
C9A C 0.69351(14) 0.09530(17) 0.8839(2)
C7A C 0.68984(14) 0.27559(18) 0.8663(2)
S1A S 0.72050(3) 0.17414(4) 0.59768(5)
Sm1F Sm 0.367029(7) 0.317127(8) 0.294702(10)
C4A C 0.74343(13) 0.13859(16) 0.86899(19)
C14A C 0.69812(15) 0.00889(18) 0.8918(2)
C12A C 0.69212(16) 0.36166(18) 0.8628(2)
C2A C 0.74352(14) 0.22885(17) 0.86395(19)
O5A O 0.76063(9) 0.24793(11) 0.65161(14)
O6A O 0.76111(10) 0.10089(12) 0.65039(15)
O8A O 0.69663(11) 0.17547(12) 0.49213(15)
N2A N 0.79337(11) 0.09817(14) 0.85822(17)
C8A C 0.74950(16) -0.03114(18) 0.8830(2)
H12A H 0.6666 -0.0212 0.9030
H11A H 0.6573 0.3937 0.8639
C6A C 0.74608(17) 0.39886(19) 0.8579(3)
N1A N 0.79586(11) 0.26678(14) 0.85697(17)
Sm1A_2 Sm 0.867029(7) 0.182873(8) 0.794702(10)
C3A C 0.79562(15) 0.01591(18) 0.8651(2)
H8A H 0.7538 -0.0887 0.8889
C1A C 0.79651(16) 0.34954(18) 0.8550(2)
H7A H 0.7489 0.4565 0.8565
O7A O 0.93775(10) 0.15518(12) 0.96974(14)
O4A O 0.88130(11) 0.19131(13) 0.64336(16)
O3A O 0.91270(12) 0.04932(14) 0.79229(18)
O1A_2 O 0.91082(11) 0.32301(12) 0.81119(19)
O2A_2 O 0.99080(10) 0.22861(12) 0.84393(15)
H6A H 0.8297 -0.0121 0.8576
H5A H 0.8329 0.3757 0.8515
H3A H 0.8562(15) 0.2265(17) 0.601(2)
H4A H 0.9203(12) 0.202(2) 0.647(2)
H1A H 0.9154(19) 0.034(2) 0.742(2)
H2A H 0.9324(18) 0.0177(19) 0.840(2)
O11 O 0.09368(16) 0.01360(17) 0.8801(2)
H18? H -0.0385 0.4593 0.7400
loop_
_geom_bond_atom_site_label_1
_geom_bond_atom_site_label_2
_geom_bond_site_symmetry_1
_geom_bond_site_symmetry_2
Sm1 N1 1_555 1_555
N1 C1 1_555 1_555
N2 Sm1 1_555 1_555
O1 Sm1 1_555 1_555
O2 Sm1 1_555 1_555
O3 Sm1 1_555 1_555
O4 Sm1 1_555 1_555
O5 Sm1 1_555 1_555
O6 Sm1 1_555 1_555
O7 Sm1 1_555 1_555
C1 H5 1_555 1_555
C2 N1 1_555 1_555
C3 N2 1_555 1_555
C4 N2 1_555 1_555
C5 O1 1_555 1_555
H1 O3 1_555 1_555
H2 O3 1_555 1_555
H3 O4 1_555 1_555
H4 O4 1_555 1_555
S1 O5 1_555 1_555
C6 C1 1_555 1_555
C7 C2 1_555 1_555
C8 C3 1_555 1_555
H6 C3 1_555 1_555
C9 C4 1_555 1_555
C10 C5 1_555 1_555
C11 S1 1_555 1_555
O8 S1 1_555 1_555
H7 C6 1_555 1_555
C12 C6 1_555 1_555
C13 C7 1_555 1_555
C14 C8 1_555 1_555
H8 C8 1_555 1_555
C15 C9 1_555 1_555
H9 C10 1_555 1_555
H10 C10 1_555 1_555
C16 C10 1_555 1_555
C17 C11 1_555 1_555
C18 C11 1_555 1_555
H11 C12 1_555 1_555
N3 C13 1_555 1_555
H12 C14 1_555 1_555
N4 C15 1_555 1_555
H13 C16 1_555 1_555
H14 C17 1_555 1_555
C19 C17 1_555 1_555
H15 C18 1_555 1_555
C20 C18 1_555 1_555
H16 N3 1_555 1_555
C21 N3 1_555 1_555
C22 C19 1_555 1_555
S2 C19 1_555 1_555
H17 C20 1_555 1_555
O9 S2 1_555 1_555
O10 S2 1_555 1_555
H13A C16 1_555 1_555
C10A C16 1_555 1_555
C5A C10A 1_555 1_555
H9A C10A 1_555 1_555
H10A C10A 1_555 1_555
C22A C21 1_555 1_555
O1A C5A 1_555 1_555
O2A C5A 1_555 1_555
C21A C22 1_555 1_555
O7G S2 1_555 1_555
C20A C22A 1_555 1_555
C19A C22A 1_555 1_555
Sm1A O1A 1_555 1_555
N4A C21A 1_555 1_555
N3A C21A 1_555 1_555
Sm1G O7G 1_555 1_555
H17A C20A 1_555 1_555
C18A C20A 1_555 1_555
S2A C19A 1_555 1_555
C17A C19A 1_555 1_555
C15A N4A 1_555 1_555
C13A N3A 1_555 1_555
H16A N3A 1_555 1_555
H15A C18A 1_555 1_555
C11A C18A 1_555 1_555
O7F S2A 1_555 1_555
O9A S2A 1_555 1_555
O10A S2A 1_555 1_555
H14A C17A 1_555 1_555
C9A C15A 1_555 1_555
C7A C13A 1_555 1_555
S1A C11A 1_555 1_555
Sm1F O7F 1_555 1_555
C4A C9A 1_555 1_555
C14A C9A 1_555 1_555
C12A C7A 1_555 1_555
C2A C7A 1_555 1_555
O5A S1A 1_555 1_555
O6A S1A 1_555 1_555
O8A S1A 1_555 1_555
N2A C4A 1_555 1_555
C8A C14A 1_555 1_555
H12A C14A 1_555 1_555
H11A C12A 1_555 1_555
C6A C12A 1_555 1_555
N1A C2A 1_555 1_555
Sm1A_2 O5A 1_555 1_555
C3A N2A 1_555 1_555
H8A C8A 1_555 1_555
C1A C6A 1_555 1_555
H7A C6A 1_555 1_555
O7A Sm1A_2 1_555 1_555
O4A Sm1A_2 1_555 1_555
O3A Sm1A_2 1_555 1_555
O1A_2 Sm1A_2 1_555 1_555
O2A_2 Sm1A_2 1_555 1_555
H6A C3A 1_555 1_555
H5A C1A 1_555 1_555
H3A O4A 1_555 1_555
H4A O4A 1_555 1_555
H1A O3A 1_555 1_555
H2A O3A 1_555 1_555
O2 C5 1_555 1_555
O6 S1 1_555 1_555
C2 C4 1_555 1_555
C7 C12 1_555 1_555
C9 C14 1_555 1_555
C13 C15 1_555 1_555
N4 C21 1_555 1_555
C20 C22 1_555 1_555
O2A Sm1A 1_555 1_555
C17A C11A 1_555 1_555
C15A C13A 1_555 1_555
C4A C2A 1_555 1_555
O6A Sm1A_2 1_555 1_555
N2A Sm1A_2 1_555 1_555
C8A C3A 1_555 1_555
N1A Sm1A_2 1_555 1_555
N1A C1A 1_555 1_555

#END
