
#######################################################################
#
#                 Cambridge Crystallographic Data Centre
#                                CCDC 
#
#######################################################################
#
# If this CIF has been generated from an entry in the Cambridge 
# Structural Database, then it will include bibliographic, chemical, 
# crystal, experimental, refinement or atomic coordinate data resulting 
# from the CCDC's data processing and validation procedures.
#
#######################################################################

data_DUKROR
_symmetry_cell_setting           monoclinic
_symmetry_space_group_name_H-M   'P 21/c'
_symmetry_Int_Tables_number      14
_space_group_name_Hall           '-P 2ybc'
loop_
_symmetry_equiv_pos_site_id
_symmetry_equiv_pos_as_xyz
1 x,y,z
2 -x,1/2+y,1/2-z
3 -x,-y,-z
4 x,1/2-y,1/2+z
_cell_length_a                   11.342(2)
_cell_length_b                   6.4613(10)
_cell_length_c                   15.269(4)
_cell_angle_alpha                90
_cell_angle_beta                 116.55(3)
_cell_angle_gamma                90
_cell_volume                     1000.97
loop_
_atom_site_label
_atom_site_type_symbol
_atom_site_fract_x
_atom_site_fract_y
_atom_site_fract_z
Cu1 Cu 0.11891(8) 0.96724(10) 0.57384(4)
O1 O 0.1287(5) 0.7716(6) 0.4796(3)
O2 O -0.0709(4) 0.8189(6) 0.3561(2)
O3 O 0.1921(5) 0.1807(6) 0.5215(2)
O4 O -0.0079(5) 0.2322(6) 0.3975(2)
N1 N 0.2913(5) 0.8234(7) 0.6964(3)
C1 C 0.2759(5) 0.6208(5) 0.7079(3)
C2 C 0.3480(5) 0.5129(7) 0.7918(3)
C3 C 0.4470(4) 0.6124(4) 0.8707(4)
C4 C 0.4674(5) 0.8205(6) 0.8593(3)
C5 C 0.3884(5) 0.9144(7) 0.7723(3)
C6 C 0.5272(4) 0.4949(6) 0.9653(2)
C7 C 0.03924(9) 0.73493(5) 0.39513(6)
C8 C 0.0729(4) 0.5824(6) 0.33461(19)
C9 C 0.16814(9) 0.41667(5) 0.39428(4)
C10 C 0.11519(9) 0.26539(8) 0.443045(7)
H1 H 0.208593 0.545486 0.652312
H2 H 0.329897 0.365936 0.796254
H3 H 0.536943 0.898338 0.912351
H4 H 0.404963 1.060965 0.765436
H5 H 0.53552 0.34987 0.950241
H6 H 0.617697 0.547881 0.996004
H7 H -0.008101 0.517982 0.285867
H8 H 0.109137 0.656966 0.296179
H9 H 0.19944 0.34115 0.35304
H10 H 0.24855 0.48112 0.44380
Cu1B Cu -0.11891(8) 1.03276(10) 0.42616(4)
Cu1_2 Cu 0.11891(8) -0.03276(10) 0.57384(4)
Cu1B_2 Cu -0.11891(8) 0.03276(10) 0.42616(4)
Cu1B_3 Cu 0.88109(8) 0.03276(10) 1.42616(4)
Cu1B_4 Cu -0.11891(8) 2.03276(10) 0.42616(4)
Cu1_3 Cu 0.11891(8) 1.96724(10) 0.57384(4)
O1B O -0.1287(5) 1.2284(6) 0.5204(3)
O2B O 0.0709(4) 1.1811(6) 0.6439(2)
O3B O -0.1921(5) 1.8193(6) 0.4785(2)
O3_2 O 0.1921(5) 1.1807(6) 0.5215(2)
O3B_2 O -0.1921(5) 0.8193(6) 0.4785(2)
O4B O 0.0079(5) 1.7678(6) 0.6025(2)
O4B_2 O 0.0079(5) 0.7678(6) 0.6025(2)
O4_2 O -0.0079(5) 1.2322(6) 0.3975(2)
N1B N 0.7087(5) 0.1766(7) 1.3036(3)
N1B_2 N -0.2913(5) 1.1766(7) 0.3036(3)
C1B C 0.7241(5) 0.3792(5) 1.2921(3)
C2B C 0.6520(5) 0.4871(7) 1.2082(3)
C3B C 0.5530(4) 0.3876(4) 1.1293(4)
C4B C 0.5326(5) 0.1795(6) 1.1407(3)
C5B C 0.6116(5) 0.0856(7) 1.2277(3)
C6B C 0.4728(4) 0.5051(6) 1.0347(2)
C7B C -0.03924(9) 1.26507(5) 0.60487(6)
C8B C -0.0729(4) 1.4176(6) 0.66539(19)
C9B C -0.16814(9) 1.58333(5) 0.60572(4)
C10B C -0.11519(9) 1.73461(8) 0.556955(7)
H1B H 0.791407 0.454514 1.347688
H2B H 0.670103 0.634064 1.203746
H3B H 0.463057 0.101662 1.087649
H4B H 0.595037 -0.060965 1.234564
H5B H 0.46448 0.65013 1.049759
H6B H 0.382303 0.452119 1.003996
H7B H 0.008101 1.482018 0.714133
H8B H -0.109137 1.343034 0.703821
H9B H -0.19944 1.65885 0.64696
H10B H -0.24855 1.51888 0.55620
loop_
_geom_bond_atom_site_label_1
_geom_bond_atom_site_label_2
_geom_bond_site_symmetry_1
_geom_bond_site_symmetry_2
Cu1 O1 1_555 1_555
O1 C7 1_555 1_555
O2 C7 1_555 1_555
O3 C10 1_555 1_555
O4 C10 1_555 1_555
N1 Cu1 1_555 1_555
C1 N1 1_555 1_555
C2 C1 1_555 1_555
C3 C2 1_555 1_555
C4 C3 1_555 1_555
C5 N1 1_555 1_555
C6 C3 1_555 1_555
C7 C8 1_555 1_555
C8 C9 1_555 1_555
C9 C10 1_555 1_555
H1 C1 1_555 1_555
H2 C2 1_555 1_555
H3 C4 1_555 1_555
H4 C5 1_555 1_555
H5 C6 1_555 1_555
H6 C6 1_555 1_555
H7 C8 1_555 1_555
H8 C8 1_555 1_555
H9 C9 1_555 1_555
H10 C9 1_555 1_555
Cu1B O2 1_555 1_555
Cu1_2 O3 1_555 1_555
Cu1B_2 O4 1_555 1_555
Cu1B_3 N1B 1_555 1_555
Cu1B_4 O3B 1_555 1_555
Cu1_3 O4B 1_555 1_555
O1B Cu1B 1_555 1_555
O2B Cu1 1_555 1_555
O3B C10B 1_555 1_555
O3_2 Cu1 1_555 1_555
O3B_2 Cu1B 1_555 1_555
O4B C10B 1_555 1_555
O4B_2 Cu1 1_555 1_555
O4_2 Cu1B 1_555 1_555
N1B C1B 1_555 1_555
N1B_2 Cu1B 1_555 1_555
C1B C2B 1_555 1_555
C2B C3B 1_555 1_555
C3B C4B 1_555 1_555
C4B C5B 1_555 1_555
C5B N1B 1_555 1_555
C6B C6 1_555 1_555
C7B O1B 1_555 1_555
C8B C7B 1_555 1_555
C9B C8B 1_555 1_555
C10B C9B 1_555 1_555
H1B C1B 1_555 1_555
H2B C2B 1_555 1_555
H3B C4B 1_555 1_555
H4B C5B 1_555 1_555
H5B C6B 1_555 1_555
H6B C6B 1_555 1_555
H7B C8B 1_555 1_555
H8B C8B 1_555 1_555
H9B C9B 1_555 1_555
H10B C9B 1_555 1_555
C4 C5 1_555 1_555
O2B C7B 1_555 1_555
C3B C6B 1_555 1_555

#END
