
#######################################################################
#
#                 Cambridge Crystallographic Data Centre
#                                CCDC 
#
#######################################################################
#
# If this CIF has been generated from an entry in the Cambridge 
# Structural Database, then it will include bibliographic, chemical, 
# crystal, experimental, refinement or atomic coordinate data resulting 
# from the CCDC's data processing and validation procedures.
#
#######################################################################

data_DUKRUX
_symmetry_cell_setting           monoclinic
_symmetry_space_group_name_H-M   'P 21/c'
_symmetry_Int_Tables_number      14
_space_group_name_Hall           '-P 2ybc'
loop_
_symmetry_equiv_pos_site_id
_symmetry_equiv_pos_as_xyz
1 x,y,z
2 -x,1/2+y,1/2-z
3 -x,-y,-z
4 x,1/2-y,1/2+z
_cell_length_a                   15.5630(10)
_cell_length_b                   6.4472(7)
_cell_length_c                   24.100(2)
_cell_angle_alpha                90
_cell_angle_beta                 116.913(9)
_cell_angle_gamma                90
_cell_volume                     2156.24
loop_
_atom_site_label
_atom_site_type_symbol
_atom_site_fract_x
_atom_site_fract_y
_atom_site_fract_z
Cu1 Cu 0.17678(9) 0.20595(16) 0.19667(6)
Cu2 Cu 0.32283(9) 0.27343(17) 0.30679(6)
O1 O 0.1087(5) 0.4238(10) 0.2184(3)
O2 O 0.2302(6) 0.4674(10) 0.3137(4)
O3 O 0.1449(6) 1.0085(10) 0.2468(4)
O4 O 0.2722(6) 1.0525(11) 0.3417(3)
O5 O 0.2278(6) 0.4183(10) 0.1618(4)
O6 O 0.3488(5) 0.4771(11) 0.2551(3)
O7 O 0.2671(6) 1.0048(11) 0.1916(4)
O8 O 0.3919(6) 1.0638(10) 0.2833(3)
N1 N 0.0553(5) 0.0822(12) 0.1148(3)
N2 N -0.5549(5) 0.1053(12) -0.1117(3)
C1 C 0.1457(5) 0.5050(10) 0.27044(11)
C2 C 0.0857(5) 0.6562(9) 0.2864(2)
C3 C 0.1493(5) 0.8239(10) 0.33420(12)
C4 C 0.1902(5) 0.9729(10) 0.30296(16)
C5 C 0.35289(6) 0.97821(6) 0.23136(2)
C6 C 0.41242(6) 0.82608(6) 0.21495(4)
C7 C 0.35388(6) 0.65488(5) 0.17277(4)
C8 C 0.30150(6) 0.50731(5) 0.19612(2)
C9 C -0.00775(4) 0.19166(3) 0.07125(3)
C10 C -0.093810(19) 0.10928(5) 0.022390(17)
C11 C -0.11315(5) -0.09386(6) 0.01985(3)
C12 C -0.0414(5) -0.2155(8) 0.0693(3)
C13 C 0.0379(5) -0.1173(7) 0.1133(4)
C14 C -0.1986(3) -0.2055(5) -0.0313(2)
C15 C -0.2550(4) -0.3301(8) -0.0040(3)
C16 C -0.3045(5) -0.1951(7) 0.0232(4)
C17 C -0.3925(4) -0.0938(8) -0.0204(3)
C18 C -0.3903(4) 0.1122(6) -0.0337(3)
C19 C -0.47094(7) 0.20705(7) -0.07877(5)
C20 C -0.5580(4) -0.0969(8) -0.0991(3)
C21 C -0.4785(5) -0.1972(7) -0.0541(3)
H1 H 0.038887 0.724419 0.248349
H2 H 0.048574 0.580051 0.30354
H3 H 0.109952 0.901427 0.349367
H4 H 0.202335 0.755957 0.369449
H5 H 0.463076 0.766618 0.253198
H6 H 0.44658 0.900914 0.195509
H7 H 0.394043 0.575244 0.158728
H8 H 0.308042 0.713348 0.132683
H9 H 0.003660 0.341190 0.07139
H10 H -0.139210 0.202240 -0.009630
H11 H -0.049330 -0.365680 0.071340
H12 H 0.085830 -0.202890 0.146550
H13 H -0.175530 -0.299540 -0.053570
H14 H -0.241490 -0.10379 -0.061200
H15 H -0.211190 -0.425290 0.027980
H16 H -0.302740 -0.418150 -0.036470
H17 H -0.317190 -0.275290 0.053290
H18 H -0.259150 -0.090830 0.050360
H19 H -0.331070 0.192350 -0.011070
H20 H -0.467330 0.354520 -0.087350
H21 H -0.61787 -0.174750 -0.122170
H22 H -0.483130 -0.344720 -0.046020
Cu1_2 Cu 0.17678(9) 1.20595(16) 0.19667(6)
Cu2_2 Cu 0.32283(9) 1.27343(17) 0.30679(6)
Cu2C Cu -0.67717(9) 0.22657(17) -0.19321(6)
O3_2 O 0.1449(6) 0.0085(10) 0.2468(4)
O4_2 O 0.2722(6) 0.0525(11) 0.3417(3)
O7_2 O 0.2671(6) 0.0048(11) 0.1916(4)
O8_2 O 0.3919(6) 0.0638(10) 0.2833(3)
N2C N 0.4451(5) 0.3947(12) 0.3883(3)
loop_
_geom_bond_atom_site_label_1
_geom_bond_atom_site_label_2
_geom_bond_site_symmetry_1
_geom_bond_site_symmetry_2
Cu1 O1 1_555 1_555
Cu2 O2 1_555 1_555
O1 C1 1_555 1_555
O2 C1 1_555 1_555
O3 C4 1_555 1_555
O4 C4 1_555 1_555
O5 Cu1 1_555 1_555
O6 Cu2 1_555 1_555
O7 C5 1_555 1_555
O8 C5 1_555 1_555
N1 Cu1 1_555 1_555
N2 C19 1_555 1_555
C1 C2 1_555 1_555
C2 C3 1_555 1_555
C3 C4 1_555 1_555
C5 C6 1_555 1_555
C6 C7 1_555 1_555
C7 C8 1_555 1_555
C8 O5 1_555 1_555
C9 N1 1_555 1_555
C10 C9 1_555 1_555
C11 C10 1_555 1_555
C12 C11 1_555 1_555
C13 N1 1_555 1_555
C14 C11 1_555 1_555
C15 C14 1_555 1_555
C16 C15 1_555 1_555
C17 C16 1_555 1_555
C18 C17 1_555 1_555
C19 C18 1_555 1_555
C20 N2 1_555 1_555
C21 C17 1_555 1_555
H1 C2 1_555 1_555
H2 C2 1_555 1_555
H3 C3 1_555 1_555
H4 C3 1_555 1_555
H5 C6 1_555 1_555
H6 C6 1_555 1_555
H7 C7 1_555 1_555
H8 C7 1_555 1_555
H9 C9 1_555 1_555
H10 C10 1_555 1_555
H11 C12 1_555 1_555
H12 C13 1_555 1_555
H13 C14 1_555 1_555
H14 C14 1_555 1_555
H15 C15 1_555 1_555
H16 C15 1_555 1_555
H17 C16 1_555 1_555
H18 C16 1_555 1_555
H19 C18 1_555 1_555
H20 C19 1_555 1_555
H21 C20 1_555 1_555
H22 C21 1_555 1_555
Cu1_2 O3 1_555 1_555
Cu2_2 O4 1_555 1_555
Cu2C N2 1_555 1_555
O3_2 Cu1 1_555 1_555
O4_2 Cu2 1_555 1_555
O7_2 Cu1 1_555 1_555
O8_2 Cu2 1_555 1_555
N2C Cu2 1_555 1_555
O6 C8 1_555 1_555
O7 Cu1_2 1_555 1_555
O8 Cu2_2 1_555 1_555
C12 C13 1_555 1_555
C20 C21 1_555 1_555

#END
