
#######################################################################
#
#                 Cambridge Crystallographic Data Centre
#                                CCDC 
#
#######################################################################
#
# If this CIF has been generated from an entry in the Cambridge 
# Structural Database, then it will include bibliographic, chemical, 
# crystal, experimental, refinement or atomic coordinate data resulting 
# from the CCDC's data processing and validation procedures.
#
#######################################################################

data_DUKSAE
_symmetry_cell_setting           monoclinic
_symmetry_space_group_name_H-M   'C 2/c'
_symmetry_Int_Tables_number      15
_space_group_name_Hall           '-C 2yn'
loop_
_symmetry_equiv_pos_site_id
_symmetry_equiv_pos_as_xyz
1 x,y,z
2 -x,y,1/2-z
3 1/2+x,1/2+y,z
4 1/2-x,1/2+y,1/2-z
5 -x,-y,-z
6 x,-y,1/2+z
7 1/2-x,1/2-y,-z
8 1/2+x,1/2-y,1/2+z
_cell_length_a                   12.870(4)
_cell_length_b                   13.548(4)
_cell_length_c                   5.8772(18)
_cell_angle_alpha                90
_cell_angle_beta                 116.729(5)
_cell_angle_gamma                90
_cell_volume                     915.262
loop_
_atom_site_label
_atom_site_type_symbol
_atom_site_fract_x
_atom_site_fract_y
_atom_site_fract_z
Ag1 Ag 0.5000 0.58071(4) 0.7500
Cl1 Cl 0.5000 0.38288(11) 0.7500
C1 C 0.2475(4) 0.6539(3) 0.6797(8)
H1 H 0.2893 0.6724 0.8494
C2 C 0.1286(4) 0.6640(3) 0.5649(8)
H2 H 0.0915 0.6901 0.6553
C3 C 0.0643(3) 0.6350(3) 0.3135(8)
C4 C 0.1253(4) 0.6013(3) 0.1850(9)
H3 H 0.0858 0.5837 0.0141
C5 C 0.2444(4) 0.5941(3) 0.3127(9)
H4 H 0.2840 0.5711 0.2241
N1 N 0.3062(3) 0.6185(3) 0.5571(7)
Ag1D Ag 0.5000 0.41929(4) 0.2500
Ag1D_2 Ag 0.5000 0.41929(4) 1.2500
Ag1_2 Ag -0.5000 0.58071(4) -0.2500
Cl1D Cl 0.5000 0.61712(11) 0.2500
Cl1D_2 Cl 0.5000 0.61712(11) 1.2500
C1A C -0.2475(4) 0.6539(3) -0.1797(8)
H1A H -0.2893 0.6724 -0.3494
C2A C -0.1286(4) 0.6640(3) -0.0649(8)
H2A H -0.0915 0.6901 -0.1553
C3A C -0.0643(3) 0.6350(3) 0.1865(8)
C4A C -0.1253(4) 0.6013(3) 0.3150(9)
H3A H -0.0858 0.5837 0.4859
C5A C -0.2444(4) 0.5941(3) 0.1873(9)
H4A H -0.2840 0.5711 0.2759
N1A N -0.3062(3) 0.6185(3) -0.0571(7)
N1A_2 N 0.6938(3) 0.6185(3) 0.9429(7)
loop_
_geom_bond_atom_site_label_1
_geom_bond_atom_site_label_2
_geom_bond_site_symmetry_1
_geom_bond_site_symmetry_2
Ag1 Cl1 1_555 1_555
Cl1 Ag1D 1_555 1_555
C1 H1 1_555 1_555
C2 C1 1_555 1_555
H2 C2 1_555 1_555
C3 C2 1_555 1_555
C4 C3 1_555 1_555
H3 C4 1_555 1_555
C5 C4 1_555 1_555
H4 C5 1_555 1_555
N1 Ag1 1_555 1_555
Ag1D Cl1D 1_555 1_555
Ag1D_2 Cl1 1_555 1_555
Ag1_2 N1A 1_555 1_555
Cl1D Ag1 1_555 1_555
Cl1D_2 Ag1 1_555 1_555
C1A H1A 1_555 1_555
C2A C1A 1_555 1_555
H2A C2A 1_555 1_555
C3A C3 1_555 1_555
C4A C3A 1_555 1_555
H3A C4A 1_555 1_555
C5A C4A 1_555 1_555
H4A C5A 1_555 1_555
N1A C1A 1_555 1_555
N1A_2 Ag1 1_555 1_555
C1 N1 1_555 1_555
C5 N1 1_555 1_555
Ag1D_2 Cl1D_2 1_555 1_555
C2A C3A 1_555 1_555
C5A N1A 1_555 1_555

#END
