
#######################################################################
#
#                 Cambridge Crystallographic Data Centre
#                                CCDC 
#
#######################################################################
#
# If this CIF has been generated from an entry in the Cambridge 
# Structural Database, then it will include bibliographic, chemical, 
# crystal, experimental, refinement or atomic coordinate data resulting 
# from the CCDC's data processing and validation procedures.
#
#######################################################################

data_DUKTIM
_symmetry_cell_setting           orthorhombic
_symmetry_space_group_name_H-M   'P b c a'
_symmetry_Int_Tables_number      61
_space_group_name_Hall           '-P 2ac 2ab'
loop_
_symmetry_equiv_pos_site_id
_symmetry_equiv_pos_as_xyz
1 x,y,z
2 1/2-x,1/2+y,z
3 x,1/2-y,1/2+z
4 1/2-x,-y,1/2+z
5 -x,-y,-z
6 1/2+x,1/2-y,-z
7 -x,1/2+y,1/2-z
8 1/2+x,y,1/2-z
_cell_length_a                   9.580(2)
_cell_length_b                   7.213(1)
_cell_length_c                   21.867(3)
_cell_angle_alpha                90
_cell_angle_beta                 90
_cell_angle_gamma                90
_cell_volume                     1511.02
loop_
_atom_site_label
_atom_site_type_symbol
_atom_site_fract_x
_atom_site_fract_y
_atom_site_fract_z
Cu1 Cu 0.0000 0.0000 0.0000
O1 O 0.0976(3) 0.0917(4) -0.0724(1)
O2 O 0.2674(3) 0.0155(5) -0.0091(1)
N1 N 0.5009(4) 0.2333(5) -0.0329(1)
C1 C 0.2266(4) 0.0731(6) -0.0599(2)
C2 C 0.3287(4) 0.1242(5) -0.1091(2)
C3 C 0.4612(4) 0.1948(5) -0.0958(2)
C4 C 0.5547(4) 0.2374(6) -0.1432(2)
C5 C 0.5137(6) 0.2029(7) -0.2025(2)
C6 C 0.3833(6) 0.1324(8) -0.2157(2)
C7 C 0.2896(5) 0.0956(7) -0.1696(2)
C8 C 0.6953(6) 0.3208(7) -0.1294(3)
H1 H 0.585(5) 0.197(8) -0.019(2)
H2 H 0.438(6) 0.188(8) -0.013(3)
H3 H 0.575(5) 0.230(7) -0.236(2)
H4 H 0.359(6) 0.109(8) -0.253(2)
H5 H 0.206(5) 0.051(8) -0.180(2)
H6 H 0.673(7) 0.414(8) -0.114(3)
H7 H 0.754(6) 0.246(9) -0.112(2)
H8 H 0.730(5) 0.407(8) -0.176(2)
O1D O -0.0976(3) -0.0917(4) 0.0724(1)
N1E N 0.0009(4) 0.2667(5) 0.0329(1)
N1A N -0.0009(4) -0.2667(5) -0.0329(1)
C1D C -0.2266(4) -0.0731(6) 0.0599(2)
H1E H 0.085(5) 0.303(8) 0.019(2)
H2E H -0.062(6) 0.312(8) 0.013(3)
Cu1A Cu 0.5000 0.5000 0.0000
H1A H -0.085(5) -0.303(8) -0.019(2)
H2A H 0.062(6) -0.312(8) -0.013(3)
O2D O -0.2674(3) -0.0155(5) 0.0091(1)
C2D C -0.3287(4) -0.1242(5) 0.1091(2)
C3D C -0.4612(4) -0.1948(5) 0.0958(2)
C7D C -0.2896(5) -0.0956(7) 0.1696(2)
N1D N -0.5009(4) -0.2333(5) 0.0329(1)
C4D C -0.5547(4) -0.2374(6) 0.1432(2)
C6D C -0.3833(6) -0.1324(8) 0.2157(2)
H5D H -0.206(5) -0.051(8) 0.180(2)
Cu1A_2 Cu -0.5000 -0.5000 0.0000
H1D H -0.585(5) -0.197(8) 0.019(2)
H2D H -0.438(6) -0.188(8) 0.013(3)
C5D C -0.5137(6) -0.2029(7) 0.2025(2)
C8D C -0.6953(6) -0.3208(7) 0.1294(3)
H4D H -0.359(6) -0.109(8) 0.253(2)
H3D H -0.575(5) -0.230(7) 0.236(2)
H6D H -0.673(7) -0.414(8) 0.114(3)
H7D H -0.754(6) -0.246(9) 0.112(2)
H8D H -0.730(5) -0.407(8) 0.176(2)
loop_
_geom_bond_atom_site_label_1
_geom_bond_atom_site_label_2
_geom_bond_site_symmetry_1
_geom_bond_site_symmetry_2
Cu1 O1 1_555 1_555
O1 C1 1_555 1_555
O2 C1 1_555 1_555
N1 C3 1_555 1_555
C1 C2 1_555 1_555
C2 C3 1_555 1_555
C3 C4 1_555 1_555
C4 C5 1_555 1_555
C5 C6 1_555 1_555
C6 C7 1_555 1_555
C7 C2 1_555 1_555
C8 C4 1_555 1_555
H1 N1 1_555 1_555
H2 N1 1_555 1_555
H3 C5 1_555 1_555
H4 C6 1_555 1_555
H5 C7 1_555 1_555
H6 C8 1_555 1_555
H7 C8 1_555 1_555
H8 C8 1_555 1_555
O1D Cu1 1_555 1_555
N1E Cu1 1_555 1_555
N1A Cu1 1_555 1_555
C1D O1D 1_555 1_555
H1E N1E 1_555 1_555
H2E N1E 1_555 1_555
Cu1A N1 1_555 1_555
H1A N1A 1_555 1_555
H2A N1A 1_555 1_555
O2D C1D 1_555 1_555
C2D C1D 1_555 1_555
C3D C2D 1_555 1_555
C7D C2D 1_555 1_555
N1D C3D 1_555 1_555
C4D C3D 1_555 1_555
C6D C7D 1_555 1_555
H5D C7D 1_555 1_555
Cu1A_2 N1D 1_555 1_555
H1D N1D 1_555 1_555
H2D N1D 1_555 1_555
C5D C4D 1_555 1_555
C8D C4D 1_555 1_555
H4D C6D 1_555 1_555
H3D C5D 1_555 1_555
H6D C8D 1_555 1_555
H7D C8D 1_555 1_555
H8D C8D 1_555 1_555
C6D C5D 1_555 1_555

#END
