
#######################################################################
#
#                 Cambridge Crystallographic Data Centre
#                                CCDC 
#
#######################################################################
#
# If this CIF has been generated from an entry in the Cambridge 
# Structural Database, then it will include bibliographic, chemical, 
# crystal, experimental, refinement or atomic coordinate data resulting 
# from the CCDC's data processing and validation procedures.
#
#######################################################################

data_DUKWOX
_symmetry_cell_setting           orthorhombic
_symmetry_space_group_name_H-M   'P b c n'
_symmetry_Int_Tables_number      60
_space_group_name_Hall           '-P 2n 2ab'
loop_
_symmetry_equiv_pos_site_id
_symmetry_equiv_pos_as_xyz
1 x,y,z
2 1/2-x,1/2-y,1/2+z
3 1/2+x,1/2-y,-z
4 -x,y,1/2-z
5 -x,-y,-z
6 1/2+x,1/2+y,1/2-z
7 1/2-x,1/2+y,z
8 x,-y,1/2+z
_cell_length_a                   21.238(2)
_cell_length_b                   14.4083(16)
_cell_length_c                   64.699(7)
_cell_angle_alpha                90
_cell_angle_beta                 90
_cell_angle_gamma                90
_cell_volume                     19798.1
loop_
_atom_site_label
_atom_site_type_symbol
_atom_site_fract_x
_atom_site_fract_y
_atom_site_fract_z
Cu1 Cu 0.58706(4) 0.90231(5) 0.350840(11)
Cu2 Cu 0.67339(4) 0.84390(5) 0.419193(11)
Cu3 Cu 0.76097(4) 0.88297(6) 0.488295(12)
Cu4 Cu 0.58467(4) 0.89783(6) 0.674707(11)
Cu5 Cu 0.65850(3) 0.86024(5) 0.745797(10)
Cu6 Cu 0.74244(4) 0.91771(5) 0.814508(10)
Cu7 Cu 1.08315(4) 1.10263(6) 0.655697(11)
Cu8 Cu 1.00365(4) 1.12808(5) 0.585397(10)
Cu9 Cu 0.92941(4) 1.08574(5) 0.515024(10)
N1 N 0.5134(3) 0.9723(4) 0.34231(8)
N2 N 0.6293(3) 0.8865(4) 0.37658(9)
N3 N 0.6718(2) 0.6957(3) 0.41871(7)
N4 N 0.6783(2) 0.3576(3) 0.40116(7)
N5 N 0.7144(3) 0.1468(4) 0.34124(7)
N6 N 0.5789(7) 0.0080(8) 0.52369(17)
N7 N 0.7181(3) 0.8727(3) 0.46223(9)
N8 N 0.8722(3) 0.9911(4) 0.50456(8)
N9 N 0.7245(3) 0.8045(4) 0.51182(8)
N10 N 0.6641(2) 0.6845(3) 0.58161(7)
N11 N 0.6086(3) 0.8101(4) 0.65129(7)
N12 N 0.6694(4) 0.0145(6) 0.5813(2)
N13 N 0.6342(2) 0.8854(3) 0.71811(8)
N14 N 0.6572(2) 0.7130(3) 0.74782(7)
N15 N 0.6563(2) 0.3737(3) 0.76516(7)
N16 N 0.6206(2) 0.1599(3) 0.82468(7)
N17 N 0.7497(6) 0.0293(8) 0.64122(15)
N18 N 0.6849(2) 0.8967(3) 0.77269(8)
N19 N 0.8111(3) 0.9953(4) 0.82489(8)
N20 N 1.0526(3) 1.1850(4) 0.67952(7)
N21 N 1.0000 1.3039(5) 0.7500
N22 N 1.0000 1.9746(8) 0.7500
N23 N 1.0290(2) 1.1007(3) 0.61267(8)
N24 N 0.9818(2) 1.0981(3) 0.55773(8)
N25 N 0.9975(2) 1.2755(3) 0.58597(6)
N26 N 1.0113(2) 1.6158(3) 0.56891(6)
N27 N 1.0548(2) 1.8390(3) 0.51104(7)
N28 N 0.9157(10) 1.9512(9) 0.69219(19)
C1 C 0.4713(3) 1.0156(4) 0.33650(9)
C2 C 0.6491(3) 0.8771(4) 0.39302(8)
C3 C 0.6799(3) 0.5527(4) 0.43694(9)
H1 H 0.6865 0.5222 0.4494
C4 C 0.6814(3) 0.6477(4) 0.43588(9)
H2 H 0.6898 0.6804 0.4480
C5 C 0.6614(3) 0.6476(4) 0.40141(9)
H3 H 0.6557 0.6801 0.3891
C6 C 0.6588(3) 0.5530(4) 0.40091(8)
H4 H 0.6508 0.5223 0.3885
C7 C 0.6682(3) 0.5029(4) 0.41887(9)
C8 C 0.6637(2) 0.3994(4) 0.41914(8)
C9 C 0.6476(3) 0.3515(4) 0.43669(9)
H5 H 0.6377 0.3840 0.4487
C10 C 0.6459(3) 0.2552(4) 0.43672(8)
C11 C 0.6598(3) 0.2125(4) 0.41801(8)
H6 H 0.6591 0.1481 0.4171
C12 C 0.6749(2) 0.2643(4) 0.40066(8)
C13 C 0.6886(3) 0.2224(4) 0.38010(8)
C14 C 0.7038(3) 0.2777(4) 0.36337(9)
H7 H 0.7060 0.3418 0.3649
C15 C 0.7158(3) 0.2385(4) 0.34457(9)
H8 H 0.7253 0.2774 0.3335
C16 C 0.6998(3) 0.0940(4) 0.35723(9)
H9 H 0.6986 0.0301 0.3552
C17 C 0.6861(3) 0.1273(4) 0.37675(9)
H10 H 0.6756 0.0869 0.3874
C18 C 0.6306(3) 0.2019(4) 0.45552(8)
C19 C 0.6447(4) 0.1103(4) 0.45729(10)
H11 H 0.6641 0.0800 0.4463
C20 C 0.6310(4) 0.0615(5) 0.47494(11)
H12 H 0.6412 -0.0012 0.4758
C21 C 0.6026(4) 0.1042(6) 0.49116(11)
C22 C 0.5892(4) 0.1963(6) 0.49002(11)
H13 H 0.5708 0.2265 0.5012
C23 C 0.6029(3) 0.2446(5) 0.47226(10)
H14 H 0.5932 0.3075 0.4715
C24 C 0.5890(6) 0.0525(7) 0.51000(14)
C25 C 0.6981(3) 0.8696(4) 0.44579(8)
C26 C 0.8305(3) 0.9481(5) 0.49812(9)
C27 C 0.6865(3) 0.7889(5) 0.54620(10)
H15 H 0.6710 0.8180 0.5580
C28 C 0.7015(4) 0.8407(5) 0.52927(11)
H16 H 0.6954 0.9046 0.5299
C29 C 0.7301(4) 0.7120(6) 0.51156(10)
H17 H 0.7435 0.6843 0.4993
C30 C 0.7175(4) 0.6554(5) 0.52800(10)
H18 H 0.7246 0.5918 0.5271
C31 C 0.6940(3) 0.6934(5) 0.54603(9)
C32 C 0.6780(3) 0.6363(4) 0.56440(9)
C33 C 0.6771(3) 0.5403(5) 0.56395(10)
H19 H 0.6863 0.5091 0.5517
C34 C 0.6627(3) 0.4909(5) 0.58147(10)
C35 C 0.6484(3) 0.5409(5) 0.59916(9)
H20 H 0.6382 0.5101 0.6113
C36 C 0.6493(3) 0.6367(5) 0.59859(10)
C37 C 0.6353(3) 0.6945(4) 0.61712(9)
C38 C 0.6131(3) 0.6596(5) 0.63561(9)
H21 H 0.6072 0.5960 0.6371
C39 C 0.5998(3) 0.7177(5) 0.65187(9)
H22 H 0.5838 0.6918 0.6639
C40 C 0.6308(3) 0.8438(5) 0.63342(9)
H23 H 0.6374 0.9075 0.6325
C41 C 0.6446(3) 0.7904(4) 0.61644(9)
H24 H 0.6602 0.8181 0.6045
C42 C 0.6646(3) 0.3862(5) 0.58158(12)
C43 C 0.6465(3) 0.3368(5) 0.56427(12)
H25 H 0.6339 0.3692 0.5526
C44 C 0.6464(4) 0.2411(6) 0.56373(15)
H26 H 0.6326 0.2093 0.5521
C45 C 0.6672(4) 0.1943(6) 0.58089(17)
C46 C 0.6864(4) 0.2418(6) 0.59841(15)
H27 H 0.7001 0.2096 0.6100
C47 C 0.6850(3) 0.3383(6) 0.59836(12)
H28 H 0.6983 0.3706 0.6100
C48 C 0.6691(4) 0.0915(8) 0.5819(2)
C49 C 0.6173(3) 0.8873(4) 0.70118(8)
C50 C 0.6757(3) 0.5700(4) 0.76536(9)
H29 H 0.6864 0.5400 0.7776
C51 C 0.6728(3) 0.6651(4) 0.76464(9)
H30 H 0.6823 0.6980 0.7766
C52 C 0.6437(3) 0.6637(4) 0.73107(9)
H31 H 0.6321 0.6954 0.7191
C53 C 0.6460(3) 0.5698(4) 0.73034(9)
H32 H 0.6364 0.5391 0.7181
C54 C 0.6625(3) 0.5191(4) 0.74772(8)
C55 C 0.6678(3) 0.4163(4) 0.74760(8)
C56 C 0.6830(3) 0.3697(4) 0.72904(9)
H33 H 0.6895 0.4026 0.7169
C57 C 0.6881(3) 0.2738(4) 0.72942(9)
C58 C 0.6770(3) 0.2294(4) 0.74803(9)
H34 H 0.6801 0.1651 0.7488
C59 C 0.6613(3) 0.2804(4) 0.76559(8)
C60 C 0.6485(3) 0.2375(4) 0.78604(8)
C61 C 0.6530(3) 0.1426(4) 0.78953(9)
H35 H 0.6663 0.1029 0.7791
C62 C 0.6375(3) 0.1085(4) 0.80863(9)
H36 H 0.6389 0.0445 0.8105
C63 C 0.6179(3) 0.2505(5) 0.82139(9)
H37 H 0.6070 0.2889 0.8324
C64 C 0.6304(3) 0.2908(4) 0.80244(9)
H38 H 0.6264 0.3547 0.8008
C65 C 0.7031(3) 0.2212(4) 0.71036(9)
C66 C 0.6864(4) 0.1295(5) 0.70813(11)
H39 H 0.6654 0.0996 0.7189
C67 C 0.7000(4) 0.0814(5) 0.69050(11)
H40 H 0.6886 0.0192 0.6896
C68 C 0.7301(4) 0.1225(6) 0.67414(11)
C69 C 0.7477(4) 0.2135(5) 0.67609(11)
H41 H 0.7687 0.2426 0.6653
C70 C 0.7343(3) 0.2628(5) 0.69407(10)
H42 H 0.7466 0.3246 0.6951
C71 C 0.7432(6) 0.0720(8) 0.65519(14)
C72 C 0.7045(3) 0.9037(4) 0.78904(8)
C73 C 0.8522(3) 1.0327(4) 0.83230(9)
C74 C 1.0377(4) 1.1480(5) 0.69784(10)
H43 H 1.0359 1.0837 0.6988
C75 C 1.0248(3) 1.1986(5) 0.71528(9)
H44 H 1.0131 1.1693 0.7275
C76 C 1.0298(3) 1.2951(4) 0.71431(9)
C77 C 1.0463(3) 1.3342(5) 0.69582(10)
H45 H 1.0508 1.3982 0.6946
C78 C 1.0564(3) 1.2771(5) 0.67893(10)
H46 H 1.0664 1.3050 0.6664
C79 C 1.0162(3) 1.3525(5) 0.73315(9)
C80 C 1.0171(3) 1.4492(4) 0.73275(11)
H47 H 1.0294 1.4800 0.7208
C81 C 1.0000 1.4998(6) 0.7500
C82 C 1.0000 1.6023(7) 0.7500
C83 C 1.0139(4) 1.6510(5) 0.76754(17)
H48 H 1.0238 1.6189 0.7796
C84 C 1.0137(5) 1.7485(7) 0.7678(3)
H49 H 1.0228 1.7811 0.7798
C85 C 1.0000 1.7937(14) 0.7500
C86 C 1.0000 1.8964(10) 0.7500
C87 C 1.0476(3) 1.1015(4) 0.62953(8)
C88 C 0.9643(3) 1.0960(4) 0.54105(8)
C89 C 1.0133(3) 1.3238(4) 0.60274(8)
H50 H 1.0248 1.2911 0.6146
C90 C 1.0138(3) 1.4180(4) 0.60359(8)
H51 H 1.0239 1.4484 0.6158
C91 C 0.9989(3) 1.4683(4) 0.58606(8)
C92 C 0.9826(3) 1.4197(4) 0.56858(8)
H52 H 0.9719 1.4509 0.5565
C93 C 0.9824(3) 1.3245(4) 0.56923(8)
H53 H 0.9711 1.2924 0.5573
C94 C 0.9988(3) 1.5720(3) 0.58654(8)
C95 C 0.9836(3) 1.6184(4) 0.60451(8)
H54 H 0.9729 1.5850 0.6163
C96 C 0.9843(3) 1.7147(4) 0.60504(8)
C97 C 0.9998(2) 1.7595(4) 0.58711(8)
H55 H 1.0018 1.8239 0.5868
C98 C 1.0128(3) 1.7085(4) 0.56918(8)
C99 C 1.0276(3) 1.7536(4) 0.54909(8)
C100 C 1.0464(3) 1.7034(4) 0.53205(9)
H56 H 1.0506 1.6392 0.5329
C101 C 1.0590(3) 1.7482(5) 0.51391(9)
H57 H 1.0716 1.7122 0.5027
C102 C 1.0372(3) 1.8873(4) 0.52744(9)
H58 H 1.0336 1.9514 0.5261
C103 C 1.0240(3) 1.8488(4) 0.54633(9)
H59 H 1.0125 1.8867 0.5573
C104 C 0.9699(3) 1.7660(4) 0.62427(8)
C105 C 0.9319(3) 1.7276(4) 0.63927(10)
H60 H 0.9154 1.6685 0.6372
C106 C 0.9179(4) 1.7743(5) 0.65702(11)
H61 H 0.8927 1.7472 0.6671
C107 C 0.9417(5) 1.8619(5) 0.65981(12)
C108 C 0.9786(4) 1.9022(5) 0.64537(11)
H62 H 0.9946 1.9616 0.6474
C109 C 0.9922(3) 1.8539(4) 0.62763(10)
H63 H 1.0173 1.8817 0.6176
C110 C 0.9265(7) 1.9135(7) 0.67840(16)
N20C N 0.9474(3) 1.1850(4) 0.82048(7)
C74C C 0.9623(4) 1.1480(5) 0.80216(10)
H43C H 0.9641 1.0837 0.8012
C75C C 0.9752(3) 1.1986(5) 0.78472(9)
H44C H 0.9869 1.1693 0.7725
C76C C 0.9702(3) 1.2951(4) 0.78569(9)
C77C C 0.9537(3) 1.3342(5) 0.80418(10)
H45C H 0.9492 1.3982 0.8054
C78C C 0.9436(3) 1.2771(5) 0.82107(10)
H46C H 0.9336 1.3050 0.8336
C79C C 0.9838(3) 1.3525(5) 0.76685(9)
C80C C 0.9829(3) 1.4492(4) 0.76725(11)
H47C H 0.9706 1.4800 0.7792
C83C C 0.9861(4) 1.6510(5) 0.73246(17)
H48C H 0.9762 1.6189 0.7204
C84C C 0.9863(5) 1.7485(7) 0.7322(3)
H49C H 0.9772 1.7811 0.7202
Cu1C Cu 1.41294(4) 0.90231(5) 1.149160(11)
Cu2C Cu 1.32661(4) 0.84390(5) 1.080807(11)
Cu3C Cu 1.23903(4) 0.88297(6) 1.011705(12)
Cu4C Cu 1.41533(4) 0.89783(6) 0.825293(11)
Cu5C Cu 1.34150(3) 0.86024(5) 0.754203(10)
Cu6C Cu 1.25756(4) 0.91771(5) 0.685492(10)
Cu7C Cu 0.91685(4) 1.10263(6) 0.844303(11)
Cu8C Cu 0.99635(4) 1.12808(5) 0.914603(10)
Cu9C Cu 1.07059(4) 1.08574(5) 0.984976(10)
N1C N 1.4866(3) 0.9723(4) 1.15769(8)
N2C N 1.3707(3) 0.8865(4) 1.12342(9)
N3C N 1.3282(2) 0.6957(3) 1.08129(7)
N4C N 1.3217(2) 0.3576(3) 1.09884(7)
N5C N 1.2856(3) 0.1468(4) 1.15876(7)
N6C N 1.4211(7) 0.0080(8) 0.97631(17)
N7C N 1.2819(3) 0.8727(3) 1.03777(9)
N8C N 1.1278(3) 0.9911(4) 0.99544(8)
N9C N 1.2755(3) 0.8045(4) 0.98818(8)
N10C N 1.3359(2) 0.6845(3) 0.91839(7)
N11C N 1.3914(3) 0.8101(4) 0.84871(7)
N12C N 1.3306(4) 0.0145(6) 0.9187(2)
N13C N 1.3658(2) 0.8854(3) 0.78189(8)
N14C N 1.3428(2) 0.7130(3) 0.75218(7)
N15C N 1.3437(2) 0.3737(3) 0.73484(7)
N16C N 1.3794(2) 0.1599(3) 0.67532(7)
N17C N 1.2503(6) 0.0293(8) 0.85878(15)
N18C N 1.3151(2) 0.8967(3) 0.72731(8)
N19C N 1.1889(3) 0.9953(4) 0.67511(8)
N23C N 0.9710(2) 1.1007(3) 0.88733(8)
N24C N 1.0182(2) 1.0981(3) 0.94227(8)
N25C N 1.0025(2) 1.2755(3) 0.91403(6)
N26C N 0.9887(2) 1.6158(3) 0.93109(6)
N27C N 0.9452(2) 1.8390(3) 0.98896(7)
N28C N 1.0843(10) 1.9512(9) 0.80781(19)
C1C C 1.5287(3) 1.0156(4) 1.16350(9)
C2C C 1.3509(3) 0.8771(4) 1.10698(8)
C3C C 1.3201(3) 0.5527(4) 1.06306(9)
H1C H 1.3135 0.5222 1.0506
C4C C 1.3186(3) 0.6477(4) 1.06412(9)
H2C H 1.3102 0.6804 1.0520
C5C C 1.3386(3) 0.6476(4) 1.09859(9)
H3C H 1.3443 0.6801 1.1109
C6C C 1.3412(3) 0.5530(4) 1.09909(8)
H4C H 1.3492 0.5223 1.1115
C7C C 1.3318(3) 0.5029(4) 1.08113(9)
C8C C 1.3363(2) 0.3994(4) 1.08086(8)
C9C C 1.3524(3) 0.3515(4) 1.06331(9)
H5C H 1.3623 0.3840 1.0513
C10C C 1.3541(3) 0.2552(4) 1.06328(8)
C11C C 1.3402(3) 0.2125(4) 1.08199(8)
H6C H 1.3409 0.1481 1.0829
C12C C 1.3251(2) 0.2643(4) 1.09934(8)
C13C C 1.3114(3) 0.2224(4) 1.11990(8)
C14C C 1.2962(3) 0.2777(4) 1.13663(9)
H7C H 1.2940 0.3418 1.1351
C15C C 1.2842(3) 0.2385(4) 1.15543(9)
H8C H 1.2747 0.2774 1.1665
C16C C 1.3002(3) 0.0940(4) 1.14277(9)
H9C H 1.3014 0.0301 1.1448
C17C C 1.3139(3) 0.1273(4) 1.12325(9)
H10C H 1.3244 0.0869 1.1126
C18C C 1.3694(3) 0.2019(4) 1.04448(8)
C19C C 1.3553(4) 0.1103(4) 1.04271(10)
H11C H 1.3359 0.0800 1.0537
C20C C 1.3690(4) 0.0615(5) 1.02506(11)
H12C H 1.3588 -0.0012 1.0242
C21C C 1.3974(4) 0.1042(6) 1.00884(11)
C22C C 1.4108(4) 0.1963(6) 1.00998(11)
H13C H 1.4292 0.2265 0.9988
C23C C 1.3971(3) 0.2446(5) 1.02774(10)
H14C H 1.4068 0.3075 1.0285
C24C C 1.4110(6) 0.0525(7) 0.99000(14)
C25C C 1.3019(3) 0.8696(4) 1.05421(8)
C26C C 1.1695(3) 0.9481(5) 1.00188(9)
C27C C 1.3135(3) 0.7889(5) 0.95380(10)
H15C H 1.3290 0.8180 0.9420
C28C C 1.2985(4) 0.8407(5) 0.97073(11)
H16C H 1.3046 0.9046 0.9701
C29C C 1.2699(4) 0.7120(6) 0.98844(10)
H17C H 1.2565 0.6843 1.0007
C30C C 1.2825(4) 0.6554(5) 0.97200(10)
H18C H 1.2754 0.5918 0.9729
C31C C 1.3060(3) 0.6934(5) 0.95397(9)
C32C C 1.3220(3) 0.6363(4) 0.93560(9)
C33C C 1.3229(3) 0.5403(5) 0.93605(10)
H19C H 1.3137 0.5091 0.9483
C34C C 1.3373(3) 0.4909(5) 0.91853(10)
C35C C 1.3516(3) 0.5409(5) 0.90084(9)
H20C H 1.3618 0.5101 0.8887
C36C C 1.3507(3) 0.6367(5) 0.90141(10)
C37C C 1.3647(3) 0.6945(4) 0.88288(9)
C38C C 1.3869(3) 0.6596(5) 0.86439(9)
H21C H 1.3928 0.5960 0.8629
C39C C 1.4002(3) 0.7177(5) 0.84813(9)
H22C H 1.4162 0.6918 0.8361
C40C C 1.3692(3) 0.8438(5) 0.86658(9)
H23C H 1.3626 0.9075 0.8675
C41C C 1.3554(3) 0.7904(4) 0.88356(9)
H24C H 1.3398 0.8181 0.8955
C42C C 1.3354(3) 0.3862(5) 0.91842(12)
C43C C 1.3535(3) 0.3368(5) 0.93573(12)
H25C H 1.3661 0.3692 0.9474
C44C C 1.3536(4) 0.2411(6) 0.93627(15)
H26C H 1.3674 0.2093 0.9479
C45C C 1.3328(4) 0.1943(6) 0.91911(17)
C46C C 1.3136(4) 0.2418(6) 0.90159(15)
H27C H 1.2999 0.2096 0.8900
C47C C 1.3150(3) 0.3383(6) 0.90164(12)
H28C H 1.3017 0.3706 0.8900
C48C C 1.3309(4) 0.0915(8) 0.9181(2)
C49C C 1.3827(3) 0.8873(4) 0.79882(8)
C50C C 1.3243(3) 0.5700(4) 0.73464(9)
H29C H 1.3136 0.5400 0.7224
C51C C 1.3272(3) 0.6651(4) 0.73536(9)
H30C H 1.3177 0.6980 0.7234
C52C C 1.3563(3) 0.6637(4) 0.76893(9)
H31C H 1.3679 0.6954 0.7809
C53C C 1.3540(3) 0.5698(4) 0.76966(9)
H32C H 1.3636 0.5391 0.7819
C54C C 1.3375(3) 0.5191(4) 0.75228(8)
C55C C 1.3322(3) 0.4163(4) 0.75240(8)
C56C C 1.3170(3) 0.3697(4) 0.77096(9)
H33C H 1.3105 0.4026 0.7831
C57C C 1.3119(3) 0.2738(4) 0.77058(9)
C58C C 1.3230(3) 0.2294(4) 0.75197(9)
H34C H 1.3199 0.1651 0.7512
C59C C 1.3387(3) 0.2804(4) 0.73441(8)
C60C C 1.3515(3) 0.2375(4) 0.71396(8)
C61C C 1.3470(3) 0.1426(4) 0.71047(9)
H35C H 1.3337 0.1029 0.7209
C62C C 1.3625(3) 0.1085(4) 0.69137(9)
H36C H 1.3611 0.0445 0.6895
C63C C 1.3821(3) 0.2505(5) 0.67861(9)
H37C H 1.3930 0.2889 0.6676
C64C C 1.3696(3) 0.2908(4) 0.69756(9)
H38C H 1.3736 0.3547 0.6992
C65C C 1.2969(3) 0.2212(4) 0.78964(9)
C66C C 1.3136(4) 0.1295(5) 0.79187(11)
H39C H 1.3346 0.0996 0.7811
C67C C 1.3000(4) 0.0814(5) 0.80950(11)
H40C H 1.3114 0.0192 0.8104
C68C C 1.2699(4) 0.1225(6) 0.82586(11)
C69C C 1.2523(4) 0.2135(5) 0.82391(11)
H41C H 1.2313 0.2426 0.8347
C70C C 1.2657(3) 0.2628(5) 0.80593(10)
H42C H 1.2534 0.3246 0.8049
C71C C 1.2568(6) 0.0720(8) 0.84481(14)
C72C C 1.2955(3) 0.9037(4) 0.71096(8)
C73C C 1.1478(3) 1.0327(4) 0.66770(9)
C87C C 0.9524(3) 1.1015(4) 0.87047(8)
C88C C 1.0357(3) 1.0960(4) 0.95895(8)
C89C C 0.9867(3) 1.3238(4) 0.89726(8)
H50C H 0.9752 1.2911 0.8854
C90C C 0.9862(3) 1.4180(4) 0.89641(8)
H51C H 0.9761 1.4484 0.8842
C91C C 1.0011(3) 1.4683(4) 0.91394(8)
C92C C 1.0174(3) 1.4197(4) 0.93142(8)
H52C H 1.0281 1.4509 0.9435
C93C C 1.0176(3) 1.3245(4) 0.93077(8)
H53C H 1.0289 1.2924 0.9427
C94C C 1.0012(3) 1.5720(3) 0.91346(8)
C95C C 1.0164(3) 1.6184(4) 0.89549(8)
H54C H 1.0271 1.5850 0.8837
C96C C 1.0157(3) 1.7147(4) 0.89496(8)
C97C C 1.0002(2) 1.7595(4) 0.91289(8)
H55C H 0.9982 1.8239 0.9132
C98C C 0.9872(3) 1.7085(4) 0.93082(8)
C99C C 0.9724(3) 1.7536(4) 0.95091(8)
C100C C 0.9536(3) 1.7034(4) 0.96795(9)
H56C H 0.9494 1.6392 0.9671
C101C C 0.9410(3) 1.7482(5) 0.98609(9)
H57C H 0.9284 1.7122 0.9973
C102C C 0.9628(3) 1.8873(4) 0.97256(9)
H58C H 0.9664 1.9514 0.9739
C103C C 0.9760(3) 1.8488(4) 0.95367(9)
H59C H 0.9875 1.8867 0.9427
C104C C 1.0301(3) 1.7660(4) 0.87573(8)
C105C C 1.0681(3) 1.7276(4) 0.86073(10)
H60C H 1.0846 1.6685 0.8628
C106C C 1.0821(4) 1.7743(5) 0.84298(11)
H61C H 1.1073 1.7472 0.8329
C107C C 1.0583(5) 1.8619(5) 0.84019(12)
C108C C 1.0214(4) 1.9022(5) 0.85463(11)
H62C H 1.0054 1.9616 0.8526
C109C C 1.0078(3) 1.8539(4) 0.87237(10)
H63C H 0.9827 1.8817 0.8824
C110C C 1.0735(7) 1.9135(7) 0.82160(16)
Cu1D Cu 1.41294(4) 0.09769(5) 0.649160(11)
Cu1G Cu 0.58706(4) 0.09769(5) 0.850840(11)
Cu4D Cu 0.41533(4) 1.10217(6) 0.325293(11)
Cu4G Cu 1.58467(4) 1.10217(6) 1.174707(11)
Cu6D Cu 1.25756(4) 0.08229(5) 1.185492(10)
Cu6G Cu 0.74244(4) 0.08229(5) 0.314508(10)
Cu9D Cu 1.07059(4) 1.91426(5) 0.484976(10)
Cu9G Cu 0.92941(4) 1.91426(5) 1.015024(10)
N5D N 1.2856(3) 0.8532(4) 0.65876(7)
N5G N 0.7144(3) 0.8532(4) 0.84124(7)
N16D N 1.3794(2) 0.8401(3) 1.17532(7)
N16G N 0.6206(2) 0.8401(3) 0.32468(7)
N27D N 0.9452(2) 1.1610(3) 0.48896(7)
N27G N 1.0548(2) 1.1610(3) 1.01104(7)
C1D C 0.5287(3) 0.9844(4) 0.66350(9)
C1G C 1.4713(3) 0.9844(4) 0.83650(9)
loop_
_geom_bond_atom_site_label_1
_geom_bond_atom_site_label_2
_geom_bond_site_symmetry_1
_geom_bond_site_symmetry_2
Cu1 N1 1_555 1_555
Cu2 N3 1_555 1_555
Cu3 N7 1_555 1_555
Cu4 N11 1_555 1_555
Cu5 N13 1_555 1_555
Cu6 N19 1_555 1_555
Cu7 N20 1_555 1_555
Cu8 N23 1_555 1_555
Cu9 N8 1_555 1_555
N1 C1 1_555 1_555
N2 Cu1 1_555 1_555
N3 C4 1_555 1_555
N4 C8 1_555 1_555
N5 C15 1_555 1_555
N6 C24 1_555 1_555
N7 C25 1_555 1_555
N8 C26 1_555 1_555
N9 Cu3 1_555 1_555
N10 C32 1_555 1_555
N11 C39 1_555 1_555
N12 C48 1_555 1_555
N13 C49 1_555 1_555
N14 Cu5 1_555 1_555
N15 C55 1_555 1_555
N16 C62 1_555 1_555
N17 C71 1_555 1_555
N18 Cu5 1_555 1_555
N19 C73 1_555 1_555
N20 C74 1_555 1_555
N21 C79 1_555 1_555
N22 C86 1_555 1_555
N23 C87 1_555 1_555
N24 Cu8 1_555 1_555
N25 Cu8 1_555 1_555
N26 C94 1_555 1_555
N27 C101 1_555 1_555
N28 C110 1_555 1_555
C1 Cu4D 1_555 1_555
C2 Cu2 1_555 1_555
C3 H1 1_555 1_555
C4 C3 1_555 1_555
H2 C4 1_555 1_555
C5 N3 1_555 1_555
H3 C5 1_555 1_555
C6 C5 1_555 1_555
H4 C6 1_555 1_555
C7 C3 1_555 1_555
C8 C7 1_555 1_555
C9 C8 1_555 1_555
H5 C9 1_555 1_555
C10 C9 1_555 1_555
C11 C10 1_555 1_555
H6 C11 1_555 1_555
C12 N4 1_555 1_555
C13 C12 1_555 1_555
C14 C13 1_555 1_555
H7 C14 1_555 1_555
C15 C14 1_555 1_555
H8 C15 1_555 1_555
C16 N5 1_555 1_555
H9 C16 1_555 1_555
C17 C13 1_555 1_555
H10 C17 1_555 1_555
C18 C10 1_555 1_555
C19 C18 1_555 1_555
H11 C19 1_555 1_555
C20 C19 1_555 1_555
H12 C20 1_555 1_555
C21 C20 1_555 1_555
C22 C21 1_555 1_555
H13 C22 1_555 1_555
C23 C18 1_555 1_555
H14 C23 1_555 1_555
C24 C21 1_555 1_555
C25 Cu2 1_555 1_555
C26 Cu3 1_555 1_555
C27 H15 1_555 1_555
C28 N9 1_555 1_555
H16 C28 1_555 1_555
C29 N9 1_555 1_555
H17 C29 1_555 1_555
C30 C29 1_555 1_555
H18 C30 1_555 1_555
C31 C27 1_555 1_555
C32 C31 1_555 1_555
C33 C32 1_555 1_555
H19 C33 1_555 1_555
C34 C33 1_555 1_555
C35 C34 1_555 1_555
H20 C35 1_555 1_555
C36 N10 1_555 1_555
C37 C36 1_555 1_555
C38 C37 1_555 1_555
H21 C38 1_555 1_555
C39 C38 1_555 1_555
H22 C39 1_555 1_555
C40 N11 1_555 1_555
H23 C40 1_555 1_555
C41 C37 1_555 1_555
H24 C41 1_555 1_555
C42 C34 1_555 1_555
C43 C42 1_555 1_555
H25 C43 1_555 1_555
C44 C43 1_555 1_555
H26 C44 1_555 1_555
C45 C44 1_555 1_555
C46 C45 1_555 1_555
H27 C46 1_555 1_555
C47 C42 1_555 1_555
H28 C47 1_555 1_555
C48 C45 1_555 1_555
C49 Cu4 1_555 1_555
C50 H29 1_555 1_555
C51 N14 1_555 1_555
H30 C51 1_555 1_555
C52 N14 1_555 1_555
H31 C52 1_555 1_555
C53 C52 1_555 1_555
H32 C53 1_555 1_555
C54 C50 1_555 1_555
C55 C54 1_555 1_555
C56 C55 1_555 1_555
H33 C56 1_555 1_555
C57 C56 1_555 1_555
C58 C57 1_555 1_555
H34 C58 1_555 1_555
C59 N15 1_555 1_555
C60 C59 1_555 1_555
C61 C60 1_555 1_555
H35 C61 1_555 1_555
C62 C61 1_555 1_555
H36 C62 1_555 1_555
C63 N16 1_555 1_555
H37 C63 1_555 1_555
C64 C60 1_555 1_555
H38 C64 1_555 1_555
C65 C57 1_555 1_555
C66 C65 1_555 1_555
H39 C66 1_555 1_555
C67 C66 1_555 1_555
H40 C67 1_555 1_555
C68 C67 1_555 1_555
C69 C68 1_555 1_555
H41 C69 1_555 1_555
C70 C65 1_555 1_555
H42 C70 1_555 1_555
C71 C68 1_555 1_555
C72 Cu6 1_555 1_555
C73 Cu7C 1_555 1_555
C74 H43 1_555 1_555
C75 C74 1_555 1_555
H44 C75 1_555 1_555
C76 C75 1_555 1_555
C77 C76 1_555 1_555
H45 C77 1_555 1_555
C78 N20 1_555 1_555
H46 C78 1_555 1_555
C79 C76 1_555 1_555
C80 C79 1_555 1_555
H47 C80 1_555 1_555
C81 C80 1_555 1_555
C82 C81 1_555 1_555
C83 C82 1_555 1_555
H48 C83 1_555 1_555
C84 C83 1_555 1_555
H49 C84 1_555 1_555
C85 C84 1_555 1_555
C86 C85 1_555 1_555
C87 Cu7 1_555 1_555
C88 Cu9 1_555 1_555
C89 N25 1_555 1_555
H50 C89 1_555 1_555
C90 C89 1_555 1_555
H51 C90 1_555 1_555
C91 C90 1_555 1_555
C92 C91 1_555 1_555
H52 C92 1_555 1_555
C93 N25 1_555 1_555
H53 C93 1_555 1_555
C94 C91 1_555 1_555
C95 C94 1_555 1_555
H54 C95 1_555 1_555
C96 C95 1_555 1_555
C97 C96 1_555 1_555
H55 C97 1_555 1_555
C98 N26 1_555 1_555
C99 C98 1_555 1_555
C100 C99 1_555 1_555
H56 C100 1_555 1_555
C101 C100 1_555 1_555
H57 C101 1_555 1_555
C102 N27 1_555 1_555
H58 C102 1_555 1_555
C103 C99 1_555 1_555
H59 C103 1_555 1_555
C104 C96 1_555 1_555
C105 C104 1_555 1_555
H60 C105 1_555 1_555
C106 C105 1_555 1_555
H61 C106 1_555 1_555
C107 C106 1_555 1_555
C108 C107 1_555 1_555
H62 C108 1_555 1_555
C109 C104 1_555 1_555
H63 C109 1_555 1_555
C110 C107 1_555 1_555
N20C C74C 1_555 1_555
C74C H43C 1_555 1_555
C75C C74C 1_555 1_555
H44C C75C 1_555 1_555
C76C C75C 1_555 1_555
C77C C76C 1_555 1_555
H45C C77C 1_555 1_555
C78C N20C 1_555 1_555
H46C C78C 1_555 1_555
C79C N21 1_555 1_555
C80C C81 1_555 1_555
H47C C80C 1_555 1_555
C83C C82 1_555 1_555
H48C C83C 1_555 1_555
C84C C85 1_555 1_555
H49C C84C 1_555 1_555
Cu1C N1C 1_555 1_555
Cu2C N3C 1_555 1_555
Cu3C N7C 1_555 1_555
Cu4C N11C 1_555 1_555
Cu5C N13C 1_555 1_555
Cu6C N19C 1_555 1_555
Cu7C N20C 1_555 1_555
Cu8C N23C 1_555 1_555
Cu9C N8C 1_555 1_555
N1C C1C 1_555 1_555
N2C Cu1C 1_555 1_555
N3C C4C 1_555 1_555
N4C C8C 1_555 1_555
N5C C15C 1_555 1_555
N6C C24C 1_555 1_555
N7C C25C 1_555 1_555
N8C C26C 1_555 1_555
N9C Cu3C 1_555 1_555
N10C C32C 1_555 1_555
N11C C39C 1_555 1_555
N12C C48C 1_555 1_555
N13C C49C 1_555 1_555
N14C Cu5C 1_555 1_555
N15C C55C 1_555 1_555
N16C C62C 1_555 1_555
N17C C71C 1_555 1_555
N18C Cu5C 1_555 1_555
N19C C73C 1_555 1_555
N23C C87C 1_555 1_555
N24C Cu8C 1_555 1_555
N25C Cu8C 1_555 1_555
N26C C94C 1_555 1_555
N27C C101C 1_555 1_555
N28C C110C 1_555 1_555
C1C Cu4G 1_555 1_555
C2C Cu2C 1_555 1_555
C3C H1C 1_555 1_555
C4C C3C 1_555 1_555
H2C C4C 1_555 1_555
C5C N3C 1_555 1_555
H3C C5C 1_555 1_555
C6C C5C 1_555 1_555
H4C C6C 1_555 1_555
C7C C3C 1_555 1_555
C8C C7C 1_555 1_555
C9C C8C 1_555 1_555
H5C C9C 1_555 1_555
C10C C9C 1_555 1_555
C11C C10C 1_555 1_555
H6C C11C 1_555 1_555
C12C N4C 1_555 1_555
C13C C12C 1_555 1_555
C14C C13C 1_555 1_555
H7C C14C 1_555 1_555
C15C C14C 1_555 1_555
H8C C15C 1_555 1_555
C16C N5C 1_555 1_555
H9C C16C 1_555 1_555
C17C C13C 1_555 1_555
H10C C17C 1_555 1_555
C18C C10C 1_555 1_555
C19C C18C 1_555 1_555
H11C C19C 1_555 1_555
C20C C19C 1_555 1_555
H12C C20C 1_555 1_555
C21C C20C 1_555 1_555
C22C C21C 1_555 1_555
H13C C22C 1_555 1_555
C23C C18C 1_555 1_555
H14C C23C 1_555 1_555
C24C C21C 1_555 1_555
C25C Cu2C 1_555 1_555
C26C Cu3C 1_555 1_555
C27C H15C 1_555 1_555
C28C N9C 1_555 1_555
H16C C28C 1_555 1_555
C29C N9C 1_555 1_555
H17C C29C 1_555 1_555
C30C C29C 1_555 1_555
H18C C30C 1_555 1_555
C31C C27C 1_555 1_555
C32C C31C 1_555 1_555
C33C C32C 1_555 1_555
H19C C33C 1_555 1_555
C34C C33C 1_555 1_555
C35C C34C 1_555 1_555
H20C C35C 1_555 1_555
C36C N10C 1_555 1_555
C37C C36C 1_555 1_555
C38C C37C 1_555 1_555
H21C C38C 1_555 1_555
C39C C38C 1_555 1_555
H22C C39C 1_555 1_555
C40C N11C 1_555 1_555
H23C C40C 1_555 1_555
C41C C37C 1_555 1_555
H24C C41C 1_555 1_555
C42C C34C 1_555 1_555
C43C C42C 1_555 1_555
H25C C43C 1_555 1_555
C44C C43C 1_555 1_555
H26C C44C 1_555 1_555
C45C C44C 1_555 1_555
C46C C45C 1_555 1_555
H27C C46C 1_555 1_555
C47C C42C 1_555 1_555
H28C C47C 1_555 1_555
C48C C45C 1_555 1_555
C49C Cu4C 1_555 1_555
C50C H29C 1_555 1_555
C51C N14C 1_555 1_555
H30C C51C 1_555 1_555
C52C N14C 1_555 1_555
H31C C52C 1_555 1_555
C53C C52C 1_555 1_555
H32C C53C 1_555 1_555
C54C C50C 1_555 1_555
C55C C54C 1_555 1_555
C56C C55C 1_555 1_555
H33C C56C 1_555 1_555
C57C C56C 1_555 1_555
C58C C57C 1_555 1_555
H34C C58C 1_555 1_555
C59C N15C 1_555 1_555
C60C C59C 1_555 1_555
C61C C60C 1_555 1_555
H35C C61C 1_555 1_555
C62C C61C 1_555 1_555
H36C C62C 1_555 1_555
C63C N16C 1_555 1_555
H37C C63C 1_555 1_555
C64C C60C 1_555 1_555
H38C C64C 1_555 1_555
C65C C57C 1_555 1_555
C66C C65C 1_555 1_555
H39C C66C 1_555 1_555
C67C C66C 1_555 1_555
H40C C67C 1_555 1_555
C68C C67C 1_555 1_555
C69C C68C 1_555 1_555
H41C C69C 1_555 1_555
C70C C65C 1_555 1_555
H42C C70C 1_555 1_555
C71C C68C 1_555 1_555
C72C Cu6C 1_555 1_555
C73C Cu7 1_555 1_555
C87C Cu7C 1_555 1_555
C88C Cu9C 1_555 1_555
C89C N25C 1_555 1_555
H50C C89C 1_555 1_555
C90C C89C 1_555 1_555
H51C C90C 1_555 1_555
C91C C90C 1_555 1_555
C92C C91C 1_555 1_555
H52C C92C 1_555 1_555
C93C N25C 1_555 1_555
H53C C93C 1_555 1_555
C94C C91C 1_555 1_555
C95C C94C 1_555 1_555
H54C C95C 1_555 1_555
C96C C95C 1_555 1_555
C97C C96C 1_555 1_555
H55C C97C 1_555 1_555
C98C N26C 1_555 1_555
C99C C98C 1_555 1_555
C100C C99C 1_555 1_555
H56C C100C 1_555 1_555
C101C C100C 1_555 1_555
H57C C101C 1_555 1_555
C102C N27C 1_555 1_555
H58C C102C 1_555 1_555
C103C C99C 1_555 1_555
H59C C103C 1_555 1_555
C104C C96C 1_555 1_555
C105C C104C 1_555 1_555
H60C C105C 1_555 1_555
C106C C105C 1_555 1_555
H61C C106C 1_555 1_555
C107C C106C 1_555 1_555
C108C C107C 1_555 1_555
H62C C108C 1_555 1_555
C109C C104C 1_555 1_555
H63C C109C 1_555 1_555
C110C C107C 1_555 1_555
Cu1D N16C 1_555 1_555
Cu1G N16 1_555 1_555
Cu6D N5C 1_555 1_555
Cu6G N5 1_555 1_555
Cu9D N27 1_555 1_555
Cu9G N27C 1_555 1_555
N5D Cu6C 1_555 1_555
N5G Cu6 1_555 1_555
N16D Cu1C 1_555 1_555
N16G Cu1 1_555 1_555
N27D Cu9 1_555 1_555
N27G Cu9C 1_555 1_555
C1D Cu4 1_555 1_555
C1G Cu4C 1_555 1_555
N2 C2 1_555 1_555
N18 C72 1_555 1_555
N24 C88 1_555 1_555
C6 C7 1_555 1_555
C11 C12 1_555 1_555
C16 C17 1_555 1_555
C22 C23 1_555 1_555
C27 C28 1_555 1_555
C30 C31 1_555 1_555
C35 C36 1_555 1_555
C40 C41 1_555 1_555
C46 C47 1_555 1_555
C50 C51 1_555 1_555
C53 C54 1_555 1_555
C58 C59 1_555 1_555
C63 C64 1_555 1_555
C69 C70 1_555 1_555
C77 C78 1_555 1_555
C92 C93 1_555 1_555
C97 C98 1_555 1_555
C102 C103 1_555 1_555
C108 C109 1_555 1_555
C76C C79C 1_555 1_555
C77C C78C 1_555 1_555
C79C C80C 1_555 1_555
C83C C84C 1_555 1_555
N2C C2C 1_555 1_555
N18C C72C 1_555 1_555
N24C C88C 1_555 1_555
C6C C7C 1_555 1_555
C11C C12C 1_555 1_555
C16C C17C 1_555 1_555
C22C C23C 1_555 1_555
C27C C28C 1_555 1_555
C30C C31C 1_555 1_555
C35C C36C 1_555 1_555
C40C C41C 1_555 1_555
C46C C47C 1_555 1_555
C50C C51C 1_555 1_555
C53C C54C 1_555 1_555
C58C C59C 1_555 1_555
C63C C64C 1_555 1_555
C69C C70C 1_555 1_555
C92C C93C 1_555 1_555
C97C C98C 1_555 1_555
C102C C103C 1_555 1_555
C108C C109C 1_555 1_555

#END
