
#######################################################################
#
#                 Cambridge Crystallographic Data Centre
#                                CCDC 
#
#######################################################################
#
# If this CIF has been generated from an entry in the Cambridge 
# Structural Database, then it will include bibliographic, chemical, 
# crystal, experimental, refinement or atomic coordinate data resulting 
# from the CCDC's data processing and validation procedures.
#
#######################################################################

data_DUKWEN
_symmetry_cell_setting           monoclinic
_symmetry_space_group_name_H-M   'P 21/n'
_symmetry_Int_Tables_number      14
_space_group_name_Hall           '-P 2yn'
loop_
_symmetry_equiv_pos_site_id
_symmetry_equiv_pos_as_xyz
1 x,y,z
2 1/2-x,1/2+y,1/2-z
3 -x,-y,-z
4 1/2+x,1/2-y,1/2+z
_cell_length_a                   10.150(3)
_cell_length_b                   16.699(5)
_cell_length_c                   12.184(4)
_cell_angle_alpha                90
_cell_angle_beta                 94.644(6)
_cell_angle_gamma                90
_cell_volume                     2058.35
loop_
_atom_site_label
_atom_site_type_symbol
_atom_site_fract_x
_atom_site_fract_y
_atom_site_fract_z
Co1 Co 1.19945(3) 0.16347(2) 0.40722(3)
Cl1 Cl 1.21292(9) 0.08203(5) 0.55100(7)
Cl2 Cl 1.38019(7) 0.20943(5) 0.33899(7)
N1 N 1.0898(2) 0.25801(13) 0.44886(17)
N2 N 0.7644(2) 0.48001(12) 0.46397(16)
N3 N 0.4162(2) 0.61746(13) 0.22217(17)
N4 N 0.7754(3) 0.6922(2) 1.1961(2)
C1 C 1.0277(3) 0.34927(16) 0.5841(2)
H1 H 1.0404 0.3675 0.6563
C2 C 1.1019(3) 0.28749(16) 0.5497(2)
H2 H 1.1647 0.2648 0.6002
C3 C 0.9998(3) 0.29282(17) 0.3777(2)
H3 H 0.9902 0.2740 0.3057
C4 C 0.9213(3) 0.35475(16) 0.4063(2)
H4 H 0.8594 0.3766 0.3544
C5 C 0.9336(2) 0.38479(15) 0.5117(2)
C6 C 0.8498(2) 0.45126(14) 0.5442(2)
C7 C 0.6866(2) 0.54055(15) 0.4883(2)
C8 C 0.5916(2) 0.56869(15) 0.3970(2)
C9 C 0.5953(3) 0.53620(17) 0.2926(2)
H5 H 0.6569 0.4969 0.2795
C10 C 0.5072(3) 0.56239(17) 0.2086(2)
H6 H 0.5119 0.5404 0.1389
C11 C 0.4117(3) 0.64847(17) 0.3237(2)
H7 H 0.3477 0.6868 0.3352
C12 C 0.4972(3) 0.62605(17) 0.4105(2)
H8 H 0.4915 0.6497 0.4791
C13 C 0.6919(3) 0.57565(15) 0.5912(2)
H9 H 0.6382 0.6192 0.6039
C14 C 0.8568(3) 0.48192(15) 0.6499(2)
H10 H 0.9152 0.4596 0.7042
C15 C 0.7781(3) 0.54534(15) 0.6755(2)
C16 C 0.7825(3) 0.57892(15) 0.7878(2)
C17 C 0.6710(3) 0.61101(16) 0.8279(2)
H11 H 0.5926 0.6128 0.7827
C18 C 0.6734(3) 0.64014(18) 0.9324(2)
H12 H 0.5969 0.6611 0.9583
C19 C 0.7887(3) 0.63860(18) 0.9996(2)
C20 C 0.9009(3) 0.6074(2) 0.9606(2)
H13 H 0.9794 0.6065 1.0056
C21 C 0.8979(3) 0.57784(18) 0.8564(2)
H14 H 0.9745 0.5566 0.8310
C22 C 0.7856(3) 0.6685(2) 1.1102(3)
Co1A Co 0.30055(3) 0.66347(2) 0.09278(3)
N3A N 1.0838(2) 0.11746(13) 0.27783(17)
loop_
_geom_bond_atom_site_label_1
_geom_bond_atom_site_label_2
_geom_bond_site_symmetry_1
_geom_bond_site_symmetry_2
Co1 Cl1 1_555 1_555
Cl2 Co1 1_555 1_555
N1 Co1 1_555 1_555
N2 C6 1_555 1_555
N3 C10 1_555 1_555
N4 C22 1_555 1_555
C1 H1 1_555 1_555
C2 N1 1_555 1_555
H2 C2 1_555 1_555
C3 N1 1_555 1_555
H3 C3 1_555 1_555
C4 C3 1_555 1_555
H4 C4 1_555 1_555
C5 C1 1_555 1_555
C6 C5 1_555 1_555
C7 N2 1_555 1_555
C8 C7 1_555 1_555
C9 C8 1_555 1_555
H5 C9 1_555 1_555
C10 C9 1_555 1_555
H6 C10 1_555 1_555
C11 N3 1_555 1_555
H7 C11 1_555 1_555
C12 C8 1_555 1_555
H8 C12 1_555 1_555
C13 C7 1_555 1_555
H9 C13 1_555 1_555
C14 C6 1_555 1_555
H10 C14 1_555 1_555
C15 C13 1_555 1_555
C16 C15 1_555 1_555
C17 C16 1_555 1_555
H11 C17 1_555 1_555
C18 C17 1_555 1_555
H12 C18 1_555 1_555
C19 C18 1_555 1_555
C20 C19 1_555 1_555
H13 C20 1_555 1_555
C21 C16 1_555 1_555
H14 C21 1_555 1_555
C22 C19 1_555 1_555
Co1A N3 1_555 1_555
N3A Co1 1_555 1_555
C1 C2 1_555 1_555
C4 C5 1_555 1_555
C11 C12 1_555 1_555
C14 C15 1_555 1_555
C20 C21 1_555 1_555

#END
