
#######################################################################
#
#                 Cambridge Crystallographic Data Centre
#                                CCDC 
#
#######################################################################
#
# If this CIF has been generated from an entry in the Cambridge 
# Structural Database, then it will include bibliographic, chemical, 
# crystal, experimental, refinement or atomic coordinate data resulting 
# from the CCDC's data processing and validation procedures.
#
#######################################################################

data_DUKWUD
_symmetry_cell_setting           triclinic
_symmetry_space_group_name_H-M   'P -1'
_symmetry_Int_Tables_number      2
_space_group_name_Hall           '-P 1'
loop_
_symmetry_equiv_pos_site_id
_symmetry_equiv_pos_as_xyz
1 x,y,z
2 -x,-y,-z
_cell_length_a                   10.4718(13)
_cell_length_b                   13.5124(16)
_cell_length_c                   21.992(3)
_cell_angle_alpha                75.334(2)
_cell_angle_beta                 86.167(2)
_cell_angle_gamma                71.784(2)
_cell_volume                     2859.33
loop_
_atom_site_label
_atom_site_type_symbol
_atom_site_fract_x
_atom_site_fract_y
_atom_site_fract_z
Cu1 Cu 0.77107(7) 0.73887(6) 0.29829(4)
Cu2 Cu 0.5000 0.0000 0.0000
O1 O 0.5964(4) 0.7139(4) 0.30106(19)
O2 O 0.4913(5) 0.8252(4) 0.2127(2)
O3 O 0.6828(4) 0.0149(4) 0.0025(2)
O4 O 0.7755(5) -0.1017(4) 0.0921(2)
O5 O 1.0530(5) 1.2405(4) 0.7021(2)
O6 O 0.9621(7) 1.3768(5) 0.6216(3)
O7 O 0.7017(5) 0.8942(4) 0.2194(2)
O8 O 0.4371(5) 0.1712(4) -0.0824(2)
N1 N 0.7193(5) 0.8051(4) 0.3725(2)
N2 N 0.5647(5) 0.8728(4) 0.5822(2)
N3 N 0.2955(6) 0.7323(6) 0.7617(3)
N4 N 0.8414(5) 0.6358(4) 0.2422(2)
N5 N 1.1022(5) 0.4634(4) 0.0788(2)
N6 N 1.4225(6) 0.5577(5) -0.0862(3)
N7 N 0.4371(5) 0.0864(4) 0.0655(2)
N8 N 0.2085(5) 0.2317(4) 0.2458(2)
N9 N -0.0842(7) 0.1343(6) 0.4248(3)
C1 C 0.7475(7) 0.9207(5) 0.4332(3)
H1 H 0.7810 0.9756 0.4360
C2 C 0.7735(7) 0.8799(5) 0.3815(3)
H2 H 0.8304 0.9040 0.3511
C3 C 0.6455(6) 0.7676(6) 0.4177(3)
H3 H 0.6089 0.7160 0.4122
C4 C 0.6193(7) 0.8009(5) 0.4735(3)
H4 H 0.5682 0.7709 0.5046
C5 C 0.6714(6) 0.8810(5) 0.4820(3)
C6 C 0.6398(6) 0.9203(5) 0.5402(3)
C7 C 0.6930(6) 0.9968(5) 0.5521(3)
H5 H 0.7462 1.0275 0.5224
C8 C 0.6654(6) 1.0261(5) 0.6086(3)
C9 C 0.7267(5) 1.1020(5) 0.6243(3)
C10 C 0.7409(7) 1.1914(6) 0.5779(3)
H6 H 0.7046 1.2067 0.5379
C11 C 0.8071(7) 1.2552(6) 0.5913(3)
H7 H 0.8088 1.3170 0.5612
C12 C 0.8731(6) 1.2310(5) 0.6491(3)
C13 C 0.9710(8) 1.2881(7) 0.6614(4)
C14 C 0.8580(7) 1.1440(6) 0.6947(3)
H8 H 0.8993 1.1261 0.7338
C15 C 0.7818(7) 1.0825(6) 0.6828(3)
H9 H 0.7681 1.0273 0.7150
C16 C 0.5855(6) 0.9763(5) 0.6523(3)
H10 H 0.5664 0.9931 0.6911
C17 C 0.5359(6) 0.9018(5) 0.6363(3)
C18 C 0.4522(6) 0.8436(5) 0.6810(3)
C19 C 0.3934(7) 0.8768(6) 0.7334(3)
H11 H 0.4033 0.9374 0.7427
C20 C 0.3193(8) 0.8174(7) 0.7717(3)
H12 H 0.2831 0.8394 0.8076
C21 C 0.3495(7) 0.7039(6) 0.7097(4)
H13 H 0.3329 0.6458 0.7001
C22 C 0.4289(7) 0.7553(6) 0.6690(3)
H14 H 0.4659 0.7307 0.6339
C23 C 0.8653(6) 0.4751(5) 0.2104(3)
H15 H 0.8438 0.4115 0.2169
C24 C 0.8110(7) 0.5433(6) 0.2487(3)
H16 H 0.7517 0.5257 0.2798
C25 C 0.9246(6) 0.6600(5) 0.1960(3)
H17 H 0.9451 0.7239 0.1903
C26 C 0.9807(6) 0.5943(5) 0.1567(3)
H18 H 1.0392 0.6136 0.1256
C27 C 0.9510(6) 0.4991(5) 0.1627(3)
C28 C 1.0106(6) 0.4301(5) 0.1186(3)
C29 C 0.9714(6) 0.3423(5) 0.1156(3)
H19 H 0.9100 0.3198 0.1439
C30 C 1.0273(6) 0.2885(5) 0.0688(3)
C31 C 0.9777(6) 0.1996(5) 0.0619(3)
C32 C 0.9604(6) 0.1225(5) 0.1148(3)
H20 H 0.9881 0.1228 0.1540
C33 C 0.9032(6) 0.0462(5) 0.1099(3)
H21 H 0.8997 -0.0085 0.1449
C34 C 0.8504(6) 0.0508(5) 0.0524(3)
C35 C 0.7636(6) -0.0189(5) 0.0495(3)
C36 C 0.8709(6) 0.1250(5) -0.0013(3)
H22 H 0.8401 0.1266 -0.0403
C37 C 0.9371(7) 0.1960(5) 0.0040(3)
H23 H 0.9550 0.2426 -0.0321
C38 C 1.1190(6) 0.3243(5) 0.0268(3)
H24 H 1.1545 0.2913 -0.0056
C39 C 1.1559(5) 0.4117(5) 0.0350(3)
C40 C 1.2533(6) 0.4573(5) -0.0071(3)
C41 C 1.2830(7) 0.5447(5) 0.0035(3)
H25 H 1.2461 0.5721 0.0377
C42 C 1.3664(8) 0.5907(6) -0.0362(4)
H26 H 1.3848 0.6487 -0.0274
C43 C 1.3921(8) 0.4730(7) -0.0963(4)
H27 H 1.4284 0.4483 -0.1315
C44 C 1.3118(6) 0.4208(5) -0.0586(3)
H28 H 1.2970 0.3616 -0.0675
C45 C 0.4311(6) 0.2331(5) 0.1078(3)
H29 H 0.4596 0.2926 0.1053
C46 C 0.4738(6) 0.1723(5) 0.0653(3)
H30 H 0.5321 0.1920 0.0342
C47 C 0.3524(6) 0.0591(5) 0.1110(3)
H31 H 0.3246 -0.0001 0.1117
C48 C 0.3059(6) 0.1141(5) 0.1561(3)
H32 H 0.2493 0.0914 0.1871
C49 C 0.3437(6) 0.2048(5) 0.1554(3)
C50 C 0.2887(6) 0.2689(5) 0.2028(3)
C51 C 0.3226(6) 0.3615(5) 0.2031(3)
H33 H 0.3768 0.3874 0.1719
C52 C 0.2741(6) 0.4135(5) 0.2504(3)
C53 C 0.3166(6) 0.5073(5) 0.2534(3)
C54 C 0.3184(7) 0.5883(5) 0.2003(3)
H34 H 0.2830 0.5880 0.1627
C55 C 0.3713(6) 0.6691(6) 0.2017(3)
H35 H 0.3676 0.7244 0.1660
C56 C 0.4304(6) 0.6674(5) 0.2570(3)
C57 C 0.5105(6) 0.7434(5) 0.2568(3)
C58 C 0.4227(6) 0.5901(5) 0.3121(3)
H36 H 0.4563 0.5916 0.3498
C59 C 0.3660(7) 0.5124(5) 0.3105(3)
H37 H 0.3597 0.4623 0.3474
C60 C 0.1929(6) 0.3732(5) 0.2956(3)
H38 H 0.1602 0.4059 0.3284
C61 C 0.1609(6) 0.2823(5) 0.2910(3)
C62 C 0.0738(6) 0.2343(5) 0.3383(3)
C63 C 0.0608(7) 0.2466(6) 0.4000(3)
H39 H 0.1039 0.2875 0.4139
C64 C -0.0207(8) 0.1938(8) 0.4393(4)
H40 H -0.0305 0.2022 0.4802
C65 C -0.0712(9) 0.1242(7) 0.3653(4)
H41 H -0.1160 0.0827 0.3531
C66 C 0.0043(7) 0.1718(6) 0.3219(4)
H42 H 0.0096 0.1625 0.2812
H43 H 0.7649 0.8814 0.1921
H44 H 0.6300 0.9368 0.1953
H45 H 0.3915 0.1523 -0.1082
H46 H 0.4730 0.2148 -0.1069
Cu1A Cu 0.22893(7) -0.73887(6) -0.29829(4)
O1A O 0.4036(4) -0.7139(4) -0.30106(19)
O2A O 0.5087(5) -0.8252(4) -0.2127(2)
O3A O 0.3172(4) -0.0149(4) -0.0025(2)
O4A O 0.2245(5) 0.1017(4) -0.0921(2)
O5A O -0.0530(5) -1.2405(4) -0.7021(2)
O6A O 0.0379(7) -1.3768(5) -0.6216(3)
O7A O 0.2983(5) -0.8942(4) -0.2194(2)
O8A O 0.5629(5) -0.1712(4) 0.0824(2)
N1A N 0.2807(5) -0.8051(4) -0.3725(2)
N2A N 0.4353(5) -0.8728(4) -0.5822(2)
N3A N 0.7045(6) -0.7323(6) -0.7617(3)
N4A N 0.1586(5) -0.6358(4) -0.2422(2)
N5A N -0.1022(5) -0.4634(4) -0.0788(2)
N6A N -0.4225(6) -0.5577(5) 0.0862(3)
N7A N 0.5629(5) -0.0864(4) -0.0655(2)
N8A N 0.7915(5) -0.2317(4) -0.2458(2)
N9A N 1.0842(7) -0.1343(6) -0.4248(3)
C1A C 0.2525(7) -0.9207(5) -0.4332(3)
H1A H 0.2190 -0.9756 -0.4360
C2A C 0.2265(7) -0.8799(5) -0.3815(3)
H2A H 0.1696 -0.9040 -0.3511
C3A C 0.3545(6) -0.7676(6) -0.4177(3)
H3A H 0.3911 -0.7160 -0.4122
C4A C 0.3807(7) -0.8009(5) -0.4735(3)
H4A H 0.4318 -0.7709 -0.5046
C5A C 0.3286(6) -0.8810(5) -0.4820(3)
C6A C 0.3602(6) -0.9203(5) -0.5402(3)
C7A C 0.3070(6) -0.9968(5) -0.5521(3)
H5A H 0.2538 -1.0275 -0.5224
C8A C 0.3346(6) -1.0261(5) -0.6086(3)
C9A C 0.2733(5) -1.1020(5) -0.6243(3)
C10A C 0.2591(7) -1.1914(6) -0.5779(3)
H6A H 0.2954 -1.2067 -0.5379
C11A C 0.1929(7) -1.2552(6) -0.5913(3)
H7A H 0.1912 -1.3170 -0.5612
C12A C 0.1269(6) -1.2310(5) -0.6491(3)
C13A C 0.0290(8) -1.2881(7) -0.6614(4)
C14A C 0.1420(7) -1.1440(6) -0.6947(3)
H8A H 0.1007 -1.1261 -0.7338
C15A C 0.2182(7) -1.0825(6) -0.6828(3)
H9A H 0.2319 -1.0273 -0.7150
C16A C 0.4145(6) -0.9763(5) -0.6523(3)
H10A H 0.4336 -0.9931 -0.6911
C17A C 0.4641(6) -0.9018(5) -0.6363(3)
C18A C 0.5478(6) -0.8436(5) -0.6810(3)
C19A C 0.6066(7) -0.8768(6) -0.7334(3)
H11A H 0.5967 -0.9374 -0.7427
C20A C 0.6807(8) -0.8174(7) -0.7717(3)
H12A H 0.7169 -0.8394 -0.8076
C21A C 0.6505(7) -0.7039(6) -0.7097(4)
H13A H 0.6671 -0.6458 -0.7001
C22A C 0.5711(7) -0.7553(6) -0.6690(3)
H14A H 0.5341 -0.7307 -0.6339
C23A C 0.1347(6) -0.4751(5) -0.2104(3)
H15A H 0.1562 -0.4115 -0.2169
C24A C 0.1890(7) -0.5433(6) -0.2487(3)
H16A H 0.2483 -0.5257 -0.2798
C25A C 0.0754(6) -0.6600(5) -0.1960(3)
H17A H 0.0549 -0.7239 -0.1903
C26A C 0.0193(6) -0.5943(5) -0.1567(3)
H18A H -0.0392 -0.6136 -0.1256
C27A C 0.0490(6) -0.4991(5) -0.1627(3)
C28A C -0.0106(6) -0.4301(5) -0.1186(3)
C29A C 0.0286(6) -0.3423(5) -0.1156(3)
H19A H 0.0900 -0.3198 -0.1439
C30A C -0.0273(6) -0.2885(5) -0.0688(3)
C31A C 0.0223(6) -0.1996(5) -0.0619(3)
C32A C 0.0396(6) -0.1225(5) -0.1148(3)
H20A H 0.0119 -0.1228 -0.1540
C33A C 0.0968(6) -0.0462(5) -0.1099(3)
H21A H 0.1003 0.0085 -0.1449
C34A C 0.1496(6) -0.0508(5) -0.0524(3)
C35A C 0.2364(6) 0.0189(5) -0.0495(3)
C36A C 0.1291(6) -0.1250(5) 0.0013(3)
H22A H 0.1599 -0.1266 0.0403
C37A C 0.0629(7) -0.1960(5) -0.0040(3)
H23A H 0.0450 -0.2426 0.0321
C38A C -0.1190(6) -0.3243(5) -0.0268(3)
H24A H -0.1545 -0.2913 0.0056
C39A C -0.1559(5) -0.4117(5) -0.0350(3)
C40A C -0.2533(6) -0.4573(5) 0.0071(3)
C41A C -0.2830(7) -0.5447(5) -0.0035(3)
H25A H -0.2461 -0.5721 -0.0377
C42A C -0.3664(8) -0.5907(6) 0.0362(4)
H26A H -0.3848 -0.6487 0.0274
C43A C -0.3921(8) -0.4730(7) 0.0963(4)
H27A H -0.4284 -0.4483 0.1315
C44A C -0.3118(6) -0.4208(5) 0.0586(3)
H28A H -0.2970 -0.3616 0.0675
C45A C 0.5689(6) -0.2331(5) -0.1078(3)
H29A H 0.5404 -0.2926 -0.1053
C46A C 0.5262(6) -0.1723(5) -0.0653(3)
H30A H 0.4679 -0.1920 -0.0342
C47A C 0.6476(6) -0.0591(5) -0.1110(3)
H31A H 0.6754 0.0001 -0.1117
C48A C 0.6941(6) -0.1141(5) -0.1561(3)
H32A H 0.7507 -0.0914 -0.1871
C49A C 0.6563(6) -0.2048(5) -0.1554(3)
C50A C 0.7113(6) -0.2689(5) -0.2028(3)
C51A C 0.6774(6) -0.3615(5) -0.2031(3)
H33A H 0.6232 -0.3874 -0.1719
C52A C 0.7259(6) -0.4135(5) -0.2504(3)
C53A C 0.6834(6) -0.5073(5) -0.2534(3)
C54A C 0.6816(7) -0.5883(5) -0.2003(3)
H34A H 0.7170 -0.5880 -0.1627
C55A C 0.6287(6) -0.6691(6) -0.2017(3)
H35A H 0.6324 -0.7244 -0.1660
C56A C 0.5696(6) -0.6674(5) -0.2570(3)
C57A C 0.4895(6) -0.7434(5) -0.2568(3)
C58A C 0.5773(6) -0.5901(5) -0.3121(3)
H36A H 0.5437 -0.5916 -0.3498
C59A C 0.6340(7) -0.5124(5) -0.3105(3)
H37A H 0.6403 -0.4623 -0.3474
C60A C 0.8071(6) -0.3732(5) -0.2956(3)
H38A H 0.8398 -0.4059 -0.3284
C61A C 0.8391(6) -0.2823(5) -0.2910(3)
C62A C 0.9262(6) -0.2343(5) -0.3383(3)
C63A C 0.9392(7) -0.2466(6) -0.4000(3)
H39A H 0.8961 -0.2875 -0.4139
C64A C 1.0207(8) -0.1938(8) -0.4393(4)
H40A H 1.0305 -0.2022 -0.4802
C65A C 1.0712(9) -0.1242(7) -0.3653(4)
H41A H 1.1160 -0.0827 -0.3531
C66A C 0.9957(7) -0.1718(6) -0.3219(4)
H42A H 0.9904 -0.1625 -0.2812
H43A H 0.2351 -0.8814 -0.1921
H44A H 0.3700 -0.9368 -0.1953
H45A H 0.6085 -0.1523 0.1082
H46A H 0.5270 -0.2148 0.1069
Cu1_2 Cu -0.22893(7) -1.26113(6) -0.70171(4)
Cu1A_2 Cu 1.22893(7) 1.26113(6) 0.70171(4)
O5_2 O 0.0530(5) -0.7595(4) -0.2979(2)
O5A_2 O 0.9470(5) 0.7595(4) 0.2979(2)
O9 O 0.7747(10) 0.5469(8) 0.5405(5)
O10 O 0.8506(10) 0.5206(8) 0.4174(6)
O11 O 0.7017(13) 0.3976(11) 0.4077(6)
O12 O 0.5176(15) 0.5687(12) 0.5259(7)
loop_
_geom_bond_atom_site_label_1
_geom_bond_atom_site_label_2
_geom_bond_site_symmetry_1
_geom_bond_site_symmetry_2
Cu1 O1 1_555 1_555
Cu2 O3 1_555 1_555
O1 C57 1_555 1_555
O2 C57 1_555 1_555
O3 C35 1_555 1_555
O4 C35 1_555 1_555
O5 C13 1_555 1_555
O6 C13 1_555 1_555
O7 Cu1 1_555 1_555
O8 Cu2 1_555 1_555
N1 Cu1 1_555 1_555
N2 C6 1_555 1_555
N3 C20 1_555 1_555
N4 Cu1 1_555 1_555
N5 C28 1_555 1_555
N6 C42 1_555 1_555
N7 Cu2 1_555 1_555
N8 C50 1_555 1_555
N9 C64 1_555 1_555
C1 H1 1_555 1_555
C2 N1 1_555 1_555
H2 C2 1_555 1_555
C3 N1 1_555 1_555
H3 C3 1_555 1_555
C4 C3 1_555 1_555
H4 C4 1_555 1_555
C5 C1 1_555 1_555
C6 C5 1_555 1_555
C7 C6 1_555 1_555
H5 C7 1_555 1_555
C8 C7 1_555 1_555
C9 C8 1_555 1_555
C10 C9 1_555 1_555
H6 C10 1_555 1_555
C11 C10 1_555 1_555
H7 C11 1_555 1_555
C12 C11 1_555 1_555
C13 C12 1_555 1_555
C14 C12 1_555 1_555
H8 C14 1_555 1_555
C15 C9 1_555 1_555
H9 C15 1_555 1_555
C16 C8 1_555 1_555
H10 C16 1_555 1_555
C17 N2 1_555 1_555
C18 C17 1_555 1_555
C19 C18 1_555 1_555
H11 C19 1_555 1_555
C20 C19 1_555 1_555
H12 C20 1_555 1_555
C21 N3 1_555 1_555
H13 C21 1_555 1_555
C22 C18 1_555 1_555
H14 C22 1_555 1_555
C23 H15 1_555 1_555
C24 N4 1_555 1_555
H16 C24 1_555 1_555
C25 N4 1_555 1_555
H17 C25 1_555 1_555
C26 C25 1_555 1_555
H18 C26 1_555 1_555
C27 C23 1_555 1_555
C28 C27 1_555 1_555
C29 C28 1_555 1_555
H19 C29 1_555 1_555
C30 C29 1_555 1_555
C31 C30 1_555 1_555
C32 C31 1_555 1_555
H20 C32 1_555 1_555
C33 C32 1_555 1_555
H21 C33 1_555 1_555
C34 C33 1_555 1_555
C35 C34 1_555 1_555
C36 C34 1_555 1_555
H22 C36 1_555 1_555
C37 C31 1_555 1_555
H23 C37 1_555 1_555
C38 C30 1_555 1_555
H24 C38 1_555 1_555
C39 N5 1_555 1_555
C40 C39 1_555 1_555
C41 C40 1_555 1_555
H25 C41 1_555 1_555
C42 C41 1_555 1_555
H26 C42 1_555 1_555
C43 N6 1_555 1_555
H27 C43 1_555 1_555
C44 C40 1_555 1_555
H28 C44 1_555 1_555
C45 H29 1_555 1_555
C46 N7 1_555 1_555
H30 C46 1_555 1_555
C47 N7 1_555 1_555
H31 C47 1_555 1_555
C48 C47 1_555 1_555
H32 C48 1_555 1_555
C49 C45 1_555 1_555
C50 C49 1_555 1_555
C51 C50 1_555 1_555
H33 C51 1_555 1_555
C52 C51 1_555 1_555
C53 C52 1_555 1_555
C54 C53 1_555 1_555
H34 C54 1_555 1_555
C55 C54 1_555 1_555
H35 C55 1_555 1_555
C56 C55 1_555 1_555
C57 C56 1_555 1_555
C58 C56 1_555 1_555
H36 C58 1_555 1_555
C59 C53 1_555 1_555
H37 C59 1_555 1_555
C60 C52 1_555 1_555
H38 C60 1_555 1_555
C61 N8 1_555 1_555
C62 C61 1_555 1_555
C63 C62 1_555 1_555
H39 C63 1_555 1_555
C64 C63 1_555 1_555
H40 C64 1_555 1_555
C65 N9 1_555 1_555
H41 C65 1_555 1_555
C66 C62 1_555 1_555
H42 C66 1_555 1_555
H43 O7 1_555 1_555
H44 O7 1_555 1_555
H45 O8 1_555 1_555
H46 O8 1_555 1_555
Cu1A O1A 1_555 1_555
O1A C57A 1_555 1_555
O2A C57A 1_555 1_555
O3A Cu2 1_555 1_555
O4A C35A 1_555 1_555
O5A C13A 1_555 1_555
O6A C13A 1_555 1_555
O7A Cu1A 1_555 1_555
O8A Cu2 1_555 1_555
N1A Cu1A 1_555 1_555
N2A C6A 1_555 1_555
N3A C20A 1_555 1_555
N4A Cu1A 1_555 1_555
N5A C28A 1_555 1_555
N6A C42A 1_555 1_555
N7A Cu2 1_555 1_555
N8A C50A 1_555 1_555
N9A C64A 1_555 1_555
C1A H1A 1_555 1_555
C2A N1A 1_555 1_555
H2A C2A 1_555 1_555
C3A N1A 1_555 1_555
H3A C3A 1_555 1_555
C4A C3A 1_555 1_555
H4A C4A 1_555 1_555
C5A C1A 1_555 1_555
C6A C5A 1_555 1_555
C7A C6A 1_555 1_555
H5A C7A 1_555 1_555
C8A C7A 1_555 1_555
C9A C8A 1_555 1_555
C10A C9A 1_555 1_555
H6A C10A 1_555 1_555
C11A C10A 1_555 1_555
H7A C11A 1_555 1_555
C12A C11A 1_555 1_555
C13A C12A 1_555 1_555
C14A C12A 1_555 1_555
H8A C14A 1_555 1_555
C15A C9A 1_555 1_555
H9A C15A 1_555 1_555
C16A C8A 1_555 1_555
H10A C16A 1_555 1_555
C17A N2A 1_555 1_555
C18A C17A 1_555 1_555
C19A C18A 1_555 1_555
H11A C19A 1_555 1_555
C20A C19A 1_555 1_555
H12A C20A 1_555 1_555
C21A N3A 1_555 1_555
H13A C21A 1_555 1_555
C22A C18A 1_555 1_555
H14A C22A 1_555 1_555
C23A H15A 1_555 1_555
C24A N4A 1_555 1_555
H16A C24A 1_555 1_555
C25A N4A 1_555 1_555
H17A C25A 1_555 1_555
C26A C25A 1_555 1_555
H18A C26A 1_555 1_555
C27A C23A 1_555 1_555
C28A C27A 1_555 1_555
C29A C28A 1_555 1_555
H19A C29A 1_555 1_555
C30A C29A 1_555 1_555
C31A C30A 1_555 1_555
C32A C31A 1_555 1_555
H20A C32A 1_555 1_555
C33A C32A 1_555 1_555
H21A C33A 1_555 1_555
C34A C33A 1_555 1_555
C35A O3A 1_555 1_555
C36A C34A 1_555 1_555
H22A C36A 1_555 1_555
C37A C31A 1_555 1_555
H23A C37A 1_555 1_555
C38A C30A 1_555 1_555
H24A C38A 1_555 1_555
C39A N5A 1_555 1_555
C40A C39A 1_555 1_555
C41A C40A 1_555 1_555
H25A C41A 1_555 1_555
C42A C41A 1_555 1_555
H26A C42A 1_555 1_555
C43A N6A 1_555 1_555
H27A C43A 1_555 1_555
C44A C40A 1_555 1_555
H28A C44A 1_555 1_555
C45A H29A 1_555 1_555
C46A N7A 1_555 1_555
H30A C46A 1_555 1_555
C47A N7A 1_555 1_555
H31A C47A 1_555 1_555
C48A C47A 1_555 1_555
H32A C48A 1_555 1_555
C49A C45A 1_555 1_555
C50A C49A 1_555 1_555
C51A C50A 1_555 1_555
H33A C51A 1_555 1_555
C52A C51A 1_555 1_555
C53A C52A 1_555 1_555
C54A C53A 1_555 1_555
H34A C54A 1_555 1_555
C55A C54A 1_555 1_555
H35A C55A 1_555 1_555
C56A C55A 1_555 1_555
C57A C56A 1_555 1_555
C58A C56A 1_555 1_555
H36A C58A 1_555 1_555
C59A C53A 1_555 1_555
H37A C59A 1_555 1_555
C60A C52A 1_555 1_555
H38A C60A 1_555 1_555
C61A N8A 1_555 1_555
C62A C61A 1_555 1_555
C63A C62A 1_555 1_555
H39A C63A 1_555 1_555
C64A C63A 1_555 1_555
H40A C64A 1_555 1_555
C65A N9A 1_555 1_555
H41A C65A 1_555 1_555
C66A C62A 1_555 1_555
H42A C66A 1_555 1_555
H43A O7A 1_555 1_555
H44A O7A 1_555 1_555
H45A O8A 1_555 1_555
H46A O8A 1_555 1_555
Cu1_2 O5A 1_555 1_555
Cu1A_2 O5 1_555 1_555
O5_2 Cu1A 1_555 1_555
O5A_2 Cu1 1_555 1_555
C1 C2 1_555 1_555
C4 C5 1_555 1_555
C14 C15 1_555 1_555
C16 C17 1_555 1_555
C21 C22 1_555 1_555
C23 C24 1_555 1_555
C26 C27 1_555 1_555
C36 C37 1_555 1_555
C38 C39 1_555 1_555
C43 C44 1_555 1_555
C45 C46 1_555 1_555
C48 C49 1_555 1_555
C58 C59 1_555 1_555
C60 C61 1_555 1_555
C65 C66 1_555 1_555
C1A C2A 1_555 1_555
C4A C5A 1_555 1_555
C14A C15A 1_555 1_555
C16A C17A 1_555 1_555
C21A C22A 1_555 1_555
C23A C24A 1_555 1_555
C26A C27A 1_555 1_555
C34A C35A 1_555 1_555
C36A C37A 1_555 1_555
C38A C39A 1_555 1_555
C43A C44A 1_555 1_555
C45A C46A 1_555 1_555
C48A C49A 1_555 1_555
C58A C59A 1_555 1_555
C60A C61A 1_555 1_555
C65A C66A 1_555 1_555

#END
