
#######################################################################
#
#                 Cambridge Crystallographic Data Centre
#                                CCDC 
#
#######################################################################
#
# If this CIF has been generated from an entry in the Cambridge 
# Structural Database, then it will include bibliographic, chemical, 
# crystal, experimental, refinement or atomic coordinate data resulting 
# from the CCDC's data processing and validation procedures.
#
#######################################################################

data_DUKWEN01
_symmetry_cell_setting           trigonal
_symmetry_space_group_name_H-M   'P 32 2 1'
_symmetry_Int_Tables_number      154
_space_group_name_Hall           'P 32 2"'
loop_
_symmetry_equiv_pos_site_id
_symmetry_equiv_pos_as_xyz
1 x,y,z
2 -y,x-y,2/3+z
3 -x+y,-x,1/3+z
4 x-y,-y,1/3-z
5 -x,-x+y,2/3-z
6 y,x,-z
_cell_length_a                   13.6428(12)
_cell_length_b                   13.6428(12)
_cell_length_c                   31.625(3)
_cell_angle_alpha                90
_cell_angle_beta                 90
_cell_angle_gamma                120
_cell_volume                     5097.63
loop_
_atom_site_label
_atom_site_type_symbol
_atom_site_fract_x
_atom_site_fract_y
_atom_site_fract_z
Co1 Co 0.87799(12) 1.0000 0.1667
Co2 Co 0.55393(9) 1.28320(9) -0.15863(3)
Cl1 Cl 1.0291(2) 1.1479(3) 0.13841(8)
Cl2 Cl 0.7323(2) 1.3819(3) -0.18033(8)
Cl3 Cl 0.4985(2) 1.3795(2) -0.11713(7)
N1 N 0.4409(5) 1.2130(5) -0.20640(19)
N2 N 0.5314(6) 1.1443(6) -0.1260(2)
N3 N -0.4943(9) 1.0000 -0.3333
N4 N 0.2118(6) 1.0000 -0.3333
N5 N -0.1499(9) 0.1776(9) -0.0206(4)
N6 N 0.7606(5) 0.9388(5) 0.11942(18)
N7 N 0.5350(6) 0.8989(5) -0.00958(19)
C1 C 0.3493(7) 1.2236(7) -0.2084(2)
H1 H 0.3408 1.2670 -0.1876
C2 C 0.2667(6) 1.1758(7) -0.2385(2)
H2 H 0.2054 1.1879 -0.2382
C3 C 0.2757(6) 1.1105(6) -0.2688(2)
C4 C 0.3701(7) 1.0964(7) -0.2681(2)
H3 H 0.3798 1.0531 -0.2886
C5 C 0.4489(7) 1.1482(7) -0.2364(3)
H4 H 0.5111 1.1375 -0.2358
C6 C 0.1861(7) 1.0520(6) -0.3022(2)
C7 C 0.0863(6) 1.0533(6) -0.3016(2)
H5 H 0.0724 1.0903 -0.2797
C8 C 0.0047(8) 1.0000 -0.3333
C9 C -0.1024(7) 1.0000 -0.3333
C10 C -0.1503(7) 1.0102(7) -0.2961(2)
H6 H -0.1116 1.0199 -0.2708
C11 C -0.2529(7) 1.0064(8) -0.2952(3)
H7 H -0.2854 1.0080 -0.2696
C12 C -0.3078(8) 1.0000 -0.3333
C13 C -0.4146(10) 1.0000 -0.3333
C14 C 0.4329(8) 1.0481(7) -0.1269(3)
H8 H 0.3792 1.0409 -0.1467
C15 C 0.4060(7) 0.9586(7) -0.1002(3)
H9 H 0.3342 0.8949 -0.1009
C16 C 0.4860(7) 0.9639(7) -0.0725(2)
C17 C 0.5892(6) 1.0595(6) -0.0729(2)
H10 H 0.6458 1.0656 -0.0548
C18 C 0.6106(8) 1.1476(8) -0.0998(3)
H11 H 0.6823 1.2115 -0.0998
C19 C 0.4583(6) 0.8707(6) -0.0410(2)
C20 C 0.3640(7) 0.7666(7) -0.0433(3)
H12 H 0.3148 0.7500 -0.0660
C21 C 0.3394(7) 0.6854(7) -0.0129(2)
C22 C 0.4190(7) 0.7162(7) 0.0198(2)
H13 H 0.4076 0.6650 0.0413
C23 C 0.5144(7) 0.8226(7) 0.0202(2)
C24 C 0.5988(7) 0.8615(7) 0.0551(2)
C25 C 0.5884(8) 0.7960(8) 0.0901(3)
H14 H 0.5277 0.7225 0.0925
C26 C 0.6687(8) 0.8410(8) 0.1213(2)
H15 H 0.6564 0.7982 0.1457
C27 C 0.7752(8) 0.9987(8) 0.0840(3)
H16 H 0.8414 1.0681 0.0811
C28 C 0.6973(8) 0.9626(7) 0.0518(3)
H17 H 0.7115 1.0069 0.0277
C29 C 0.2341(7) 0.5698(7) -0.0149(3)
C30 C 0.1527(9) 0.5473(9) -0.0464(3)
H18 H 0.1653 0.6022 -0.0665
C31 C 0.0541(9) 0.4438(10) -0.0474(3)
H19 H 0.0009 0.4285 -0.0685
C32 C 0.0347(8) 0.3635(8) -0.0173(3)
C33 C 0.1106(8) 0.3865(7) 0.0147(3)
H20 H 0.0950 0.3328 0.0356
C34 C 0.2139(8) 0.4929(8) 0.0162(3)
H21 H 0.2660 0.5091 0.0378
C35 C -0.0696(9) 0.2598(9) -0.0179(4)
N1C N 0.2279(7) 0.7870(5) -0.46027(19)
C1C C 0.1257(10) 0.7764(7) -0.4583(2)
H1C H 0.0738 0.7330 -0.4791
C2C C 0.0909(9) 0.8242(7) -0.4282(2)
H2C H 0.0175 0.8121 -0.4285
C3C C 0.1652(8) 0.8895(6) -0.3979(2)
C4C C 0.2737(10) 0.9036(7) -0.3986(2)
H3C H 0.3267 0.9469 -0.3781
C5C C 0.3007(10) 0.8518(7) -0.4303(3)
H4C H 0.3736 0.8625 -0.4309
C6C C 0.1341(9) 0.9480(6) -0.3645(2)
C7C C 0.0330(8) 0.9467(6) -0.3651(2)
H5C H -0.0179 0.9097 -0.3870
C10C C -0.1605(10) 0.9898(7) -0.3706(2)
H6C H -0.1315 0.9801 -0.3959
C11C C -0.2593(11) 0.9936(8) -0.3715(3)
H7C H -0.2934 0.9920 -0.3971
Co2C Co 0.27073(13) 0.71680(9) -0.50804(3)
Cl2C Cl 0.3504(4) 0.6181(3) -0.48634(8)
Cl3C Cl 0.1190(3) 0.6205(2) -0.54954(7)
N2C N 0.3871(8) 0.8557(6) -0.5407(2)
N5C N 0.6725(13) 1.8224(9) -0.6461(4)
N6C N 0.8218(7) 1.0612(5) -0.78609(18)
N7C N 0.6361(8) 1.1011(5) -0.65709(19)
C14C C 0.3848(11) 0.9519(7) -0.5398(3)
H8C H 0.3383 0.9591 -0.5200
C15C C 0.4474(10) 1.0414(7) -0.5665(3)
H9C H 0.4393 1.1051 -0.5658
C16C C 0.5221(10) 1.0361(7) -0.5942(2)
C17C C 0.5297(8) 0.9405(6) -0.5938(2)
H10C H 0.5802 0.9344 -0.6119
C18C C 0.4630(11) 0.8524(8) -0.5669(3)
H11C H 0.4708 0.7885 -0.5669
C19C C 0.5876(8) 1.1293(6) -0.6257(2)
C20C C 0.5974(10) 1.2334(7) -0.6234(3)
H12C H 0.5648 1.2500 -0.6007
C21C C 0.6540(10) 1.3146(7) -0.6538(2)
C22C C 0.7028(10) 1.2838(7) -0.6865(2)
H13C H 0.7426 1.3350 -0.7080
C23C C 0.6918(10) 1.1774(7) -0.6869(2)
C24C C 0.7373(10) 1.1385(7) -0.7218(2)
C25C C 0.7924(11) 1.2040(8) -0.7568(3)
H14C H 0.8052 1.2775 -0.7592
C26C C 0.8277(11) 1.1590(8) -0.7880(2)
H15C H 0.8582 1.2018 -0.8124
C27C C 0.7765(11) 1.0013(8) -0.7507(3)
H16C H 0.7733 0.9319 -0.7478
C28C C 0.7347(11) 1.0374(7) -0.7185(3)
H17C H 0.7046 0.9931 -0.6944
C29C C 0.6643(10) 1.4302(7) -0.6518(3)
C30C C 0.6054(13) 1.4527(9) -0.6203(3)
H18C H 0.5631 1.3978 -0.6002
C31C C 0.6103(13) 1.5562(10) -0.6193(3)
H19C H 0.5724 1.5715 -0.5982
C32C C 0.6712(11) 1.6365(8) -0.6494(3)
C33C C 0.7241(11) 1.6135(7) -0.6814(3)
H20C H 0.7622 1.6672 -0.7023
C34C C 0.7210(11) 1.5071(8) -0.6829(3)
H21C H 0.7569 1.4909 -0.7045
C35C C 0.6706(13) 1.7402(9) -0.6488(4)
Cl1C Cl 0.8812(4) 0.8521(3) 0.19492(8)
Co1_2 Co 0.87799(12) 1.0000 -0.8333
N6C_2 N 0.8218(7) 1.0612(5) 0.21391(18)
loop_
_geom_bond_atom_site_label_1
_geom_bond_atom_site_label_2
_geom_bond_site_symmetry_1
_geom_bond_site_symmetry_2
Co1 Cl1 1_555 1_555
Co2 Cl2 1_555 1_555
Cl3 Co2 1_555 1_555
N1 Co2 1_555 1_555
N2 Co2 1_555 1_555
N3 C13 1_555 1_555
N4 C6 1_555 1_555
N5 C35 1_555 1_555
N6 Co1 1_555 1_555
N7 C19 1_555 1_555
C1 N1 1_555 1_555
H1 C1 1_555 1_555
C2 C1 1_555 1_555
H2 C2 1_555 1_555
C3 C2 1_555 1_555
C4 C3 1_555 1_555
H3 C4 1_555 1_555
C5 N1 1_555 1_555
H4 C5 1_555 1_555
C6 C3 1_555 1_555
C7 C6 1_555 1_555
H5 C7 1_555 1_555
C8 C7 1_555 1_555
C9 C8 1_555 1_555
C10 C9 1_555 1_555
H6 C10 1_555 1_555
C11 C10 1_555 1_555
H7 C11 1_555 1_555
C12 C11 1_555 1_555
C13 C12 1_555 1_555
C14 N2 1_555 1_555
H8 C14 1_555 1_555
C15 C14 1_555 1_555
H9 C15 1_555 1_555
C16 C15 1_555 1_555
C17 C16 1_555 1_555
H10 C17 1_555 1_555
C18 N2 1_555 1_555
H11 C18 1_555 1_555
C19 C16 1_555 1_555
C20 C19 1_555 1_555
H12 C20 1_555 1_555
C21 C20 1_555 1_555
C22 C21 1_555 1_555
H13 C22 1_555 1_555
C23 N7 1_555 1_555
C24 C23 1_555 1_555
C25 C24 1_555 1_555
H14 C25 1_555 1_555
C26 N6 1_555 1_555
H15 C26 1_555 1_555
C27 N6 1_555 1_555
H16 C27 1_555 1_555
C28 C24 1_555 1_555
H17 C28 1_555 1_555
C29 C21 1_555 1_555
C30 C29 1_555 1_555
H18 C30 1_555 1_555
C31 C30 1_555 1_555
H19 C31 1_555 1_555
C32 C31 1_555 1_555
C33 C32 1_555 1_555
H20 C33 1_555 1_555
C34 C29 1_555 1_555
H21 C34 1_555 1_555
C35 C32 1_555 1_555
N1C C1C 1_555 1_555
C1C H1C 1_555 1_555
C2C C1C 1_555 1_555
H2C C2C 1_555 1_555
C3C C2C 1_555 1_555
C4C C3C 1_555 1_555
H3C C4C 1_555 1_555
C5C N1C 1_555 1_555
H4C C5C 1_555 1_555
C6C N4 1_555 1_555
C7C C8 1_555 1_555
H5C C7C 1_555 1_555
C10C C9 1_555 1_555
H6C C10C 1_555 1_555
C11C C12 1_555 1_555
H7C C11C 1_555 1_555
Co2C N1C 1_555 1_555
Cl2C Co2C 1_555 1_555
Cl3C Co2C 1_555 1_555
N2C Co2C 1_555 1_555
N5C C35C 1_555 1_555
N6C C26C 1_555 1_555
N7C C19C 1_555 1_555
C14C N2C 1_555 1_555
H8C C14C 1_555 1_555
C15C C14C 1_555 1_555
H9C C15C 1_555 1_555
C16C C15C 1_555 1_555
C17C C16C 1_555 1_555
H10C C17C 1_555 1_555
C18C N2C 1_555 1_555
H11C C18C 1_555 1_555
C19C C16C 1_555 1_555
C20C C19C 1_555 1_555
H12C C20C 1_555 1_555
C21C C20C 1_555 1_555
C22C C21C 1_555 1_555
H13C C22C 1_555 1_555
C23C N7C 1_555 1_555
C24C C23C 1_555 1_555
C25C C24C 1_555 1_555
H14C C25C 1_555 1_555
C26C C25C 1_555 1_555
H15C C26C 1_555 1_555
C27C N6C 1_555 1_555
H16C C27C 1_555 1_555
C28C C24C 1_555 1_555
H17C C28C 1_555 1_555
C29C C21C 1_555 1_555
C30C C29C 1_555 1_555
H18C C30C 1_555 1_555
C31C C30C 1_555 1_555
H19C C31C 1_555 1_555
C32C C31C 1_555 1_555
C33C C32C 1_555 1_555
H20C C33C 1_555 1_555
C34C C29C 1_555 1_555
H21C C34C 1_555 1_555
C35C C32C 1_555 1_555
Cl1C Co1 1_555 1_555
Co1_2 N6C 1_555 1_555
N6C_2 Co1 1_555 1_555
C4 C5 1_555 1_555
C17 C18 1_555 1_555
C22 C23 1_555 1_555
C25 C26 1_555 1_555
C27 C28 1_555 1_555
C33 C34 1_555 1_555
C3C C6C 1_555 1_555
C4C C5C 1_555 1_555
C6C C7C 1_555 1_555
C10C C11C 1_555 1_555
C17C C18C 1_555 1_555
C22C C23C 1_555 1_555
C27C C28C 1_555 1_555
C33C C34C 1_555 1_555

#END
