
#######################################################################
#
#                 Cambridge Crystallographic Data Centre
#                                CCDC 
#
#######################################################################
#
# If this CIF has been generated from an entry in the Cambridge 
# Structural Database, then it will include bibliographic, chemical, 
# crystal, experimental, refinement or atomic coordinate data resulting 
# from the CCDC's data processing and validation procedures.
#
#######################################################################

data_DUKXUE
_symmetry_cell_setting           monoclinic
_symmetry_space_group_name_H-M   'C 2/c'
_symmetry_Int_Tables_number      15
_space_group_name_Hall           '-C 2yc'
loop_
_symmetry_equiv_pos_site_id
_symmetry_equiv_pos_as_xyz
1 x,y,z
2 -x,y,1/2-z
3 1/2-x,1/2+y,1/2-z
4 1/2+x,1/2+y,z
5 -x,-y,-z
6 x,-y,1/2+z
7 1/2+x,1/2-y,1/2+z
8 1/2-x,1/2-y,-z
_cell_length_a                   9.57312(71)
_cell_length_b                   14.3834(11)
_cell_length_c                   7.09450(52)
_cell_angle_alpha                90
_cell_angle_beta                 117.7923(38)
_cell_angle_gamma                90
_cell_volume                     864.182
loop_
_atom_site_label
_atom_site_type_symbol
_atom_site_fract_x
_atom_site_fract_y
_atom_site_fract_z
C1 C 0.000 -0.204488 0.250
C2 C -0.150917 -0.150789 0.174943
C3 C -0.219142 -0.097138 -0.003201
H1 H -0.179585 -0.087091 -0.101952
N1 N -0.353937 -0.060395 -0.015156
N2 N -0.369020 -0.091337 0.155600
C4 C -0.243547 -0.147203 0.273088
H2 H -0.224031 -0.178269 0.401217
H3 H 0.01117 -0.236 0.39658
Co1 Co -0.5 0.01986(26) -0.25
C2A C 0.150917 -0.150789 0.325057
C3A C 0.219142 -0.097138 0.503201
H1A H 0.179585 -0.087091 0.601952
N1A N 0.353937 -0.060395 0.515156
N2A N 0.369020 -0.091337 0.344400
C4A C 0.243547 -0.147203 0.226912
H2A H 0.224031 -0.178269 0.098783
H3A H -0.01117 -0.236 0.10342
N1A_2 N -0.646063 -0.060395 -0.484844
N2D N -0.630980 0.091337 -0.155600
N2E N -0.369020 0.091337 -0.344400
Co1D Co -0.5 -0.01986(26) 0.25
Co1D_2 Co 0.5 -0.01986(26) 0.25
Co1A Co 0.5 0.01986(26) 0.75
loop_
_geom_bond_atom_site_label_1
_geom_bond_atom_site_label_2
_geom_bond_site_symmetry_1
_geom_bond_site_symmetry_2
C1 C2 1_555 1_555
C2 C3 1_555 1_555
C3 H1 1_555 1_555
N1 C3 1_555 1_555
N2 N1 1_555 1_555
C4 C2 1_555 1_555
H2 C4 1_555 1_555
H3 C1 1_555 1_555
Co1 N1 1_555 1_555
C2A C1 1_555 1_555
C3A C2A 1_555 1_555
H1A C3A 1_555 1_555
N1A C3A 1_555 1_555
N2A N1A 1_555 1_555
C4A C2A 1_555 1_555
H2A C4A 1_555 1_555
H3A C1 1_555 1_555
N1A_2 Co1 1_555 1_555
N2D Co1 1_555 1_555
N2E Co1 1_555 1_555
Co1D N2 1_555 1_555
Co1D_2 N2A 1_555 1_555
Co1A N1A 1_555 1_555
N2 C4 1_555 1_555
N2A C4A 1_555 1_555

#END
