
#######################################################################
#
#                 Cambridge Crystallographic Data Centre
#                                CCDC 
#
#######################################################################
#
# If this CIF has been generated from an entry in the Cambridge 
# Structural Database, then it will include bibliographic, chemical, 
# crystal, experimental, refinement or atomic coordinate data resulting 
# from the CCDC's data processing and validation procedures.
#
#######################################################################

data_DUKXAK
_symmetry_cell_setting           orthorhombic
_symmetry_space_group_name_H-M   'P c c a'
_symmetry_Int_Tables_number      54
_space_group_name_Hall           '-P 2a 2ac'
loop_
_symmetry_equiv_pos_site_id
_symmetry_equiv_pos_as_xyz
1 x,y,z
2 -x,y,1/2-z
3 1/2-x,-y,z
4 1/2+x,-y,1/2-z
5 -x,-y,-z
6 x,-y,1/2+z
7 1/2+x,y,-z
8 1/2-x,y,1/2+z
_cell_length_a                   16.98325(54)
_cell_length_b                   8.46710(24)
_cell_length_c                   7.93214(20)
_cell_angle_alpha                90
_cell_angle_beta                 90
_cell_angle_gamma                90
_cell_volume                     1140.63
loop_
_atom_site_label
_atom_site_type_symbol
_atom_site_fract_x
_atom_site_fract_y
_atom_site_fract_z
Cd1 Cd 0.250 0.000 -0.03316(28)
C1 C 0.500 -0.338903 -0.25
C2 C 0.577040 -0.253657 -0.233492
C3 C 0.634708 -0.246948 -0.352237
N1 N 0.694793 -0.158650 -0.289285
N2 N 0.674260 -0.110788 -0.131635
C4 C 0.601485 -0.169505 -0.097153
C5 C 0.55614 -0.145643 0.063115
H1 H 0.556926 -0.255354 0.137368
H2 H 0.583289 -0.04994 0.136711
H3 H 0.494906 -0.114110 0.032965
H4 H 0.484347 -0.392788 -0.128347
C6 C 0.640521 -0.356171 -0.503351
H5 H 0.701471 -0.362745 -0.549741
H6 H 0.618556 -0.476112 -0.478294
H7 H 0.603222 -0.299420 -0.599181
C2A C 0.422960 -0.253657 -0.266508
C3A C 0.365292 -0.246948 -0.147763
N1A N 0.305207 -0.158650 -0.210715
N2A N 0.325740 -0.110788 -0.368365
C4A C 0.398515 -0.169505 -0.402847
C5A C 0.44386 -0.145643 -0.563115
H1A H 0.443074 -0.255354 -0.637368
H2A H 0.416711 -0.04994 -0.636711
H3A H 0.505094 -0.114110 -0.532965
H4A H 0.515653 -0.392788 -0.371653
C6A C 0.359479 -0.356171 0.003351
H5A H 0.298529 -0.362745 0.049741
H6A H 0.381444 -0.476112 -0.021706
H7A H 0.396778 -0.299420 0.099181
Cd1D Cd 0.750 0.000 0.03316(28)
Cd1A Cd 0.750 0.000 -0.46684(28)
Cd1G Cd 0.250 0.000 -0.53316(28)
N1C N 0.194793 0.158650 -0.210715
N2D N 0.325740 0.110788 0.131635
N2F N 0.174260 -0.110788 0.131635
loop_
_geom_bond_atom_site_label_1
_geom_bond_atom_site_label_2
_geom_bond_site_symmetry_1
_geom_bond_site_symmetry_2
Cd1 N1A 1_555 1_555
C1 C2 1_555 1_555
C2 C3 1_555 1_555
C3 N1 1_555 1_555
N1 N2 1_555 1_555
N2 C4 1_555 1_555
C4 C2 1_555 1_555
C5 C4 1_555 1_555
H1 C5 1_555 1_555
H2 C5 1_555 1_555
H3 C5 1_555 1_555
H4 C1 1_555 1_555
C6 C3 1_555 1_555
H5 C6 1_555 1_555
H6 C6 1_555 1_555
H7 C6 1_555 1_555
C2A C1 1_555 1_555
C3A C2A 1_555 1_555
N1A C3A 1_555 1_555
N2A N1A 1_555 1_555
C4A C2A 1_555 1_555
C5A C4A 1_555 1_555
H1A C5A 1_555 1_555
H2A C5A 1_555 1_555
H3A C5A 1_555 1_555
H4A C1 1_555 1_555
C6A C3A 1_555 1_555
H5A C6A 1_555 1_555
H6A C6A 1_555 1_555
H7A C6A 1_555 1_555
Cd1D N2 1_555 1_555
Cd1A N1 1_555 1_555
Cd1G N2A 1_555 1_555
N1C Cd1 1_555 1_555
N2D Cd1 1_555 1_555
N2F Cd1 1_555 1_555
N2A C4A 1_555 1_555

#END
