
#######################################################################
#
#                 Cambridge Crystallographic Data Centre
#                                CCDC 
#
#######################################################################
#
# If this CIF has been generated from an entry in the Cambridge 
# Structural Database, then it will include bibliographic, chemical, 
# crystal, experimental, refinement or atomic coordinate data resulting 
# from the CCDC's data processing and validation procedures.
#
#######################################################################

data_DUKXOY
_symmetry_cell_setting           monoclinic
_symmetry_space_group_name_H-M   'P 21/a'
_symmetry_Int_Tables_number      14
_space_group_name_Hall           '-P 2yab'
loop_
_symmetry_equiv_pos_site_id
_symmetry_equiv_pos_as_xyz
1 x,y,z
2 1/2-x,1/2+y,-z
3 -x,-y,-z
4 1/2+x,1/2-y,z
_cell_length_a                   14.77452(98)
_cell_length_b                   15.2460(11)
_cell_length_c                   9.30985(69)
_cell_angle_alpha                90
_cell_angle_beta                 79.5039(58)
_cell_angle_gamma                90
_cell_volume                     2061.98
loop_
_atom_site_label
_atom_site_type_symbol
_atom_site_fract_x
_atom_site_fract_y
_atom_site_fract_z
C1 C -0.02555 0.41327 0.72114
C2 C 0.025503 0.351140 0.610146
C3 C -0.009904 0.308687 0.504390
H1 H -0.071312 0.313175 0.487842
N1 N 0.058035 0.258681 0.426483
N2 N 0.135430 0.270229 0.484090
C4 C 0.115324 0.327371 0.597600
H2 H 0.156750 0.347202 0.657593
H3 H -0.091627 0.430941 0.690326
H4 H -0.029707 0.385453 0.831168
C5 C 0.026210 0.496670 0.734153
C6 C 0.127783 0.510030 0.685820
H5 H 0.170625 0.467156 0.641595
N3 N 0.147775 0.594296 0.716428
N4 N 0.068038 0.634262 0.779166
C7 C -0.001235 0.574697 0.787332
H6 H -0.064337 0.584927 0.826464
Cd1 Cd 0.23950(41) 0.20348(26) 0.29949(59)
Cd2 Cd 0.00259(39) 0.23862(34) 0.22428(57)
C8 C 0.30335 0.57862 0.28032
C9 C 0.319536 0.481977 0.259093
C10 C 0.402655 0.442358 0.217511
H7 H 0.460659 0.471032 0.196809
N5 N 0.388158 0.354483 0.210769
N6 N 0.296079 0.339792 0.248184
C11 C 0.253668 0.418587 0.27805
H8 H 0.189329 0.427742 0.307061
H9 H 0.351753 0.605419 0.345887
H10 H 0.229959 0.590609 0.322984
C12 C 0.316575 0.628574 0.139232
C13 C 0.241670 0.658806 0.061657
H11 H 0.177525 0.649677 0.093256
N7 N 0.281707 0.701579 -0.061857
N8 N 0.374366 0.700604 -0.067858
C14 C 0.391595 0.657228 0.051947
H12 H 0.450563 0.646804 0.075573
N3A N 0.352225 0.094296 0.283572
N4B N -0.068038 0.365738 0.220834
Cd1A Cd 0.26050(41) 0.70348(26) -0.29949(59)
Cd1A_2 Cd 0.26050(41) 0.70348(26) 0.70051(59)
Cd2B Cd -0.00259(39) 0.76138(34) 0.77572(57)
Cd2A Cd 0.49741(39) 0.73862(34) -0.22428(57)
Cd2C Cd 0.50259(39) 0.26138(34) 0.22428(57)
N5C N -0.111842 0.145517 0.210769
N7A N 0.218293 0.201579 0.061857
N8A N 0.125634 0.200604 0.067858
loop_
_geom_bond_atom_site_label_1
_geom_bond_atom_site_label_2
_geom_bond_site_symmetry_1
_geom_bond_site_symmetry_2
C1 C2 1_555 1_555
C2 C3 1_555 1_555
C3 H1 1_555 1_555
N1 C3 1_555 1_555
N2 N1 1_555 1_555
C4 C2 1_555 1_555
H2 C4 1_555 1_555
H3 C1 1_555 1_555
H4 C1 1_555 1_555
C5 C1 1_555 1_555
C6 C5 1_555 1_555
H5 C6 1_555 1_555
N3 C6 1_555 1_555
N4 N3 1_555 1_555
C7 C5 1_555 1_555
H6 C7 1_555 1_555
Cd1 N2 1_555 1_555
Cd2 N1 1_555 1_555
C8 C9 1_555 1_555
C9 C10 1_555 1_555
C10 H7 1_555 1_555
N5 C10 1_555 1_555
N6 Cd1 1_555 1_555
C11 C9 1_555 1_555
H8 C11 1_555 1_555
H9 C8 1_555 1_555
H10 C8 1_555 1_555
C12 C8 1_555 1_555
C13 C12 1_555 1_555
H11 C13 1_555 1_555
N7 C13 1_555 1_555
N8 N7 1_555 1_555
C14 C12 1_555 1_555
H12 C14 1_555 1_555
N3A Cd1 1_555 1_555
N4B Cd2 1_555 1_555
Cd1A N7 1_555 1_555
Cd1A_2 N3 1_555 1_555
Cd2B N4 1_555 1_555
Cd2A N8 1_555 1_555
Cd2C N5 1_555 1_555
N5C Cd2 1_555 1_555
N7A Cd1 1_555 1_555
N8A Cd2 1_555 1_555
N2 C4 1_555 1_555
N4 C7 1_555 1_555
N5 N6 1_555 1_555
N6 C11 1_555 1_555
N8 C14 1_555 1_555
N7A N8A 1_555 1_555

#END
