
#######################################################################
#
#                 Cambridge Crystallographic Data Centre
#                                CCDC 
#
#######################################################################
#
# If this CIF has been generated from an entry in the Cambridge 
# Structural Database, then it will include bibliographic, chemical, 
# crystal, experimental, refinement or atomic coordinate data resulting 
# from the CCDC's data processing and validation procedures.
#
#######################################################################

data_DUKXIS
_symmetry_cell_setting           orthorhombic
_symmetry_space_group_name_H-M   'P b c a'
_symmetry_Int_Tables_number      61
_space_group_name_Hall           '-P 2ac 2ab'
loop_
_symmetry_equiv_pos_site_id
_symmetry_equiv_pos_as_xyz
1 x,y,z
2 -x,1/2+y,1/2-z
3 1/2-x,-y,1/2+z
4 1/2+x,1/2-y,-z
5 -x,-y,-z
6 x,1/2-y,1/2+z
7 1/2+x,y,1/2-z
8 1/2-x,1/2+y,z
_cell_length_a                   17.97340(43)
_cell_length_b                   17.21788(40)
_cell_length_c                   7.95298(35)
_cell_angle_alpha                90
_cell_angle_beta                 90
_cell_angle_gamma                90
_cell_volume                     2461.16
loop_
_atom_site_label
_atom_site_type_symbol
_atom_site_fract_x
_atom_site_fract_y
_atom_site_fract_z
Cu1 Cu 0.337240(90) 0.71244(14) 0.45245(78)
C1 C 0.11748 0.91343 0.65058
C2 C 0.180548 0.877422 0.554764
C3 C 0.234607 0.916413 0.469961
H1 H 0.119682 0.894345 0.782483
H2 H 0.113193 0.975355 0.617975
C4 C 0.241396 1.000091 0.456293
H3 H 0.214742 1.027716 0.565497
H4 H 0.300600 1.016194 0.452691
H5 H 0.214002 1.019934 0.340308
N1 N 0.281179 0.863140 0.400228
N2 N 0.255905 0.791224 0.441933
C5 C 0.193711 0.800051 0.537442
C6 C 0.149243 0.737885 0.608354
H6 H 0.151053 0.687150 0.524393
H7 H 0.171567 0.721762 0.732317
H8 H 0.091326 0.757514 0.622223
C7 C 0.044350 0.889406 0.576058
C8 C 0.024063 0.896845 0.412103
N3 N -0.046134 0.868397 0.395300
N4 N -0.069231 0.843377 0.548870
C9 C -0.013309 0.856361 0.660585
C10 C 0.069329 0.929392 0.278644
H9 H 0.045281 0.913758 0.156042
H10 H 0.070895 0.993003 0.290993
H11 H 0.126198 0.906141 0.287508
C11 C -0.014884 0.838167 0.838566
H12 H -0.070646 0.817303 0.873345
H13 H 0.026416 0.792750 0.865968
H14 H -0.001620 0.890625 0.911597
Cu2 Cu 0.37253(22) 0.87241(26) 0.28513(69)
Cu1C Cu -0.162760(90) 0.78756(14) 0.54755(78)
N3F N 0.453866 0.868397 0.104700
N4C N 0.430769 0.656623 0.451130
Cu2F Cu -0.12747(22) 0.87241(26) 0.21487(69)
loop_
_geom_bond_atom_site_label_1
_geom_bond_atom_site_label_2
_geom_bond_site_symmetry_1
_geom_bond_site_symmetry_2
Cu1 N2 1_555 1_555
C1 C2 1_555 1_555
C2 C3 1_555 1_555
C3 C4 1_555 1_555
H1 C1 1_555 1_555
H2 C1 1_555 1_555
C4 H3 1_555 1_555
H4 C4 1_555 1_555
H5 C4 1_555 1_555
N1 C3 1_555 1_555
N2 N1 1_555 1_555
C5 C2 1_555 1_555
C6 C5 1_555 1_555
H6 C6 1_555 1_555
H7 C6 1_555 1_555
H8 C6 1_555 1_555
C7 C1 1_555 1_555
C8 C7 1_555 1_555
N3 C8 1_555 1_555
N4 N3 1_555 1_555
C9 C7 1_555 1_555
C10 C8 1_555 1_555
H9 C10 1_555 1_555
H10 C10 1_555 1_555
H11 C10 1_555 1_555
C11 C9 1_555 1_555
H12 C11 1_555 1_555
H13 C11 1_555 1_555
H14 C11 1_555 1_555
Cu2 N1 1_555 1_555
Cu1C N4 1_555 1_555
N3F Cu2 1_555 1_555
N4C Cu1 1_555 1_555
Cu2F N3 1_555 1_555
N2 C5 1_555 1_555
N4 C9 1_555 1_555

#END
