
#######################################################################
#
#                 Cambridge Crystallographic Data Centre
#                                CCDC 
#
#######################################################################
#
# If this CIF has been generated from an entry in the Cambridge 
# Structural Database, then it will include bibliographic, chemical, 
# crystal, experimental, refinement or atomic coordinate data resulting 
# from the CCDC's data processing and validation procedures.
#
#######################################################################

data_DUKXEO
_symmetry_cell_setting           tetragonal
_symmetry_space_group_name_H-M   'P 41 2 2'
_symmetry_Int_Tables_number      91
_space_group_name_Hall           'P 4w 2c'
loop_
_symmetry_equiv_pos_site_id
_symmetry_equiv_pos_as_xyz
1 x,y,z
2 -x,-y,1/2+z
3 -x,y,-z
4 -y,-x,1/4-z
5 -y,x,1/4+z
6 y,-x,3/4+z
7 y,x,3/4-z
8 x,-y,1/2-z
_cell_length_a                   9.25232(63)
_cell_length_b                   9.25232(63)
_cell_length_c                   13.4487(12)
_cell_angle_alpha                90
_cell_angle_beta                 90
_cell_angle_gamma                90
_cell_volume                     1151.28
loop_
_atom_site_label
_atom_site_type_symbol
_atom_site_fract_x
_atom_site_fract_y
_atom_site_fract_z
C1 C 0.75479 -0.5 0.250
C2 C 0.842185 -0.372119 0.217063
C3 C 0.847532 -0.317254 0.123319
H1 H 0.694542 -0.543824 0.186258
C4 C 0.769751 -0.372105 0.037661
H2 H 0.721778 -0.281346 -0.003595
H3 H 0.844814 -0.431088 -0.011089
H4 H 0.683572 -0.445551 0.062594
N1 N 0.938640 -0.201909 0.12402
N2 N 0.989601 -0.185488 0.218198
C5 C 0.929989 -0.290683 0.275702
C6 C 0.955557 -0.312232 0.381037
H5 H 1.054036 -0.377118 0.391387
H6 H 0.969136 -0.206779 0.417634
H7 H 0.862922 -0.369171 0.414112
Co1 Co 1 -0.08576(41) 0.000
C2G C 0.842185 -0.627881 0.282937
C3G C 0.847532 -0.682746 0.376681
H1G H 0.694542 -0.456176 0.313742
C4G C 0.769751 -0.627895 0.462339
H2G H 0.721778 -0.718654 0.503595
H3G H 0.844814 -0.568912 0.511089
H4G H 0.683572 -0.554449 0.437406
N1G N 0.938640 -0.798091 0.37598
N2G N 0.989601 -0.814512 0.281802
C5G C 0.929989 -0.709317 0.224298
C6G C 0.955557 -0.687768 0.118963
H5G H 1.054036 -0.622882 0.108613
H6G H 0.969136 -0.793221 0.082366
H7G H 0.862922 -0.630829 0.085888
N1B N 1.061360 -0.201909 -0.12402
N2C N 1.185488 0.010399 0.031802
N2E N 0.814512 0.010399 -0.031802
Co1A Co 1 -0.91424(41) 0.500
Co1C Co 1.08576(41) -1 0.250
Co1C_2 Co 1.08576(41) 0 0.250
loop_
_geom_bond_atom_site_label_1
_geom_bond_atom_site_label_2
_geom_bond_site_symmetry_1
_geom_bond_site_symmetry_2
C1 C2 1_555 1_555
C2 C3 1_555 1_555
C3 C4 1_555 1_555
H1 C1 1_555 1_555
C4 H2 1_555 1_555
H3 C4 1_555 1_555
H4 C4 1_555 1_555
N1 C3 1_555 1_555
N2 N1 1_555 1_555
C5 C2 1_555 1_555
C6 C5 1_555 1_555
H5 C6 1_555 1_555
H6 C6 1_555 1_555
H7 C6 1_555 1_555
Co1 N1 1_555 1_555
C2G C1 1_555 1_555
C3G C2G 1_555 1_555
H1G C1 1_555 1_555
C4G C3G 1_555 1_555
H2G C4G 1_555 1_555
H3G C4G 1_555 1_555
H4G C4G 1_555 1_555
N1G C3G 1_555 1_555
N2G N1G 1_555 1_555
C5G C2G 1_555 1_555
C6G C5G 1_555 1_555
H5G C6G 1_555 1_555
H6G C6G 1_555 1_555
H7G C6G 1_555 1_555
N1B Co1 1_555 1_555
N2C Co1 1_555 1_555
N2E Co1 1_555 1_555
Co1A N1G 1_555 1_555
Co1C N2G 1_555 1_555
Co1C_2 N2 1_555 1_555
N2 C5 1_555 1_555
N2G C5G 1_555 1_555

#END
