
#######################################################################
#
#                 Cambridge Crystallographic Data Centre
#                                CCDC 
#
#######################################################################
#
# If this CIF has been generated from an entry in the Cambridge 
# Structural Database, then it will include bibliographic, chemical, 
# crystal, experimental, refinement or atomic coordinate data resulting 
# from the CCDC's data processing and validation procedures.
#
#######################################################################

data_DUKYUF
_symmetry_cell_setting           triclinic
_symmetry_space_group_name_H-M   'P -1'
_symmetry_Int_Tables_number      2
_space_group_name_Hall           '-P 1'
loop_
_symmetry_equiv_pos_site_id
_symmetry_equiv_pos_as_xyz
1 x,y,z
2 -x,-y,-z
_cell_length_a                   9.4335(19)
_cell_length_b                   9.4774(19)
_cell_length_c                   11.770(2)
_cell_angle_alpha                67.87(3)
_cell_angle_beta                 85.98(3)
_cell_angle_gamma                77.50(3)
_cell_volume                     951.594
loop_
_atom_site_label
_atom_site_type_symbol
_atom_site_fract_x
_atom_site_fract_y
_atom_site_fract_z
I1 I 0.56617(3) 0.73079(3) 0.49437(2)
I2 I 0.06593(3) 0.73410(3) 0.48290(2)
Ag1 Ag 0.35456(3) 0.60391(4) 0.42659(3)
Ag2 Ag 0.85404(4) 0.60005(4) 0.42325(3)
N1 N 0.3133(3) 0.6736(4) 0.2175(3)
N2 N 0.2307(4) 0.7857(4) -0.1563(3)
N3 N 0.8136(3) 0.6820(4) 0.2138(3)
N4 N 0.7261(3) 0.8055(4) -0.1611(3)
C1 C 0.2583(4) 0.8206(5) 0.1408(4)
H1 H 0.2386 0.8981 0.1735
C2 C 0.2297(4) 0.8634(4) 0.0188(4)
H2 H 0.1924 0.9671 -0.0285
C3 C 0.2568(4) 0.7504(5) -0.0356(4)
C4 C 0.3125(4) 0.5968(4) 0.0447(3)
H3 H 0.3322 0.5160 0.0157
C5 C 0.3374(4) 0.5671(4) 0.1657(4)
H4 H 0.3740 0.4644 0.2159
C6 C 0.2637(4) 0.6668(5) -0.2098(4)
H5 H 0.2944 0.5666 -0.1463
H6 H 0.3400 0.6881 -0.2684
H7 H 0.1785 0.6672 -0.2502
C7 C 0.1806(5) 0.9463(5) -0.2386(4)
H8 H 0.1628 1.0127 -0.1922
H9 H 0.0924 0.9550 -0.2790
H10 H 0.2534 0.9772 -0.2987
C8 C 0.6786(4) 0.7336(4) 0.1663(4)
H11 H 0.6028 0.7417 0.2199
C9 C 0.6430(4) 0.7757(4) 0.0452(3)
H12 H 0.5465 0.8109 0.0191
C10 C 0.7555(4) 0.7648(4) -0.0400(4)
C11 C 0.8968(4) 0.7109(4) 0.0105(4)
H13 H 0.9758 0.7000 -0.0397
C12 C 0.9191(4) 0.6743(4) 0.1328(4)
H14 H 1.0145 0.6417 0.1618
C13 C 0.8404(4) 0.7859(5) -0.2470(4)
H15 H 0.9319 0.7416 -0.2040
H16 H 0.8448 0.8853 -0.3096
H17 H 0.8199 0.7178 -0.2840
C14 C 0.5786(4) 0.8715(5) -0.2096(4)
H18 H 0.5137 0.8772 -0.1442
H19 H 0.5504 0.8068 -0.2463
H20 H 0.5745 0.9741 -0.2703
I1A I 0.43383(3) 0.26921(3) 0.50563(2)
I2_2 I 1.06593(3) 0.73410(3) 0.48290(2)
I2A I 0.93407(3) 0.26590(3) 0.51710(2)
Ag1A Ag 0.64544(3) 0.39609(4) 0.57341(3)
Ag2_2 Ag -0.14596(4) 0.60005(4) 0.42325(3)
Ag2A Ag 0.14596(4) 0.39995(4) 0.57675(3)
loop_
_geom_bond_atom_site_label_1
_geom_bond_atom_site_label_2
_geom_bond_site_symmetry_1
_geom_bond_site_symmetry_2
I1 Ag1 1_555 1_555
I2 Ag1 1_555 1_555
Ag1 N1 1_555 1_555
Ag2 I1 1_555 1_555
N1 C1 1_555 1_555
N2 C3 1_555 1_555
N3 Ag2 1_555 1_555
N4 C10 1_555 1_555
C1 H1 1_555 1_555
C2 C1 1_555 1_555
H2 C2 1_555 1_555
C3 C2 1_555 1_555
C4 C3 1_555 1_555
H3 C4 1_555 1_555
C5 N1 1_555 1_555
H4 C5 1_555 1_555
C6 N2 1_555 1_555
H5 C6 1_555 1_555
H6 C6 1_555 1_555
H7 C6 1_555 1_555
C7 N2 1_555 1_555
H8 C7 1_555 1_555
H9 C7 1_555 1_555
H10 C7 1_555 1_555
C8 N3 1_555 1_555
H11 C8 1_555 1_555
C9 C8 1_555 1_555
H12 C9 1_555 1_555
C10 C9 1_555 1_555
C11 C10 1_555 1_555
H13 C11 1_555 1_555
C12 N3 1_555 1_555
H14 C12 1_555 1_555
C13 N4 1_555 1_555
H15 C13 1_555 1_555
H16 C13 1_555 1_555
H17 C13 1_555 1_555
C14 N4 1_555 1_555
H18 C14 1_555 1_555
H19 C14 1_555 1_555
H20 C14 1_555 1_555
I1A Ag1 1_555 1_555
I2_2 Ag2 1_555 1_555
I2A Ag2 1_555 1_555
Ag1A I1 1_555 1_555
Ag2_2 I2 1_555 1_555
Ag2A I2 1_555 1_555
C4 C5 1_555 1_555
C11 C12 1_555 1_555
I1A Ag1A 1_555 1_555
I1A Ag2A 1_555 1_555
I2A Ag1A 1_555 1_555

#END
