
#######################################################################
#
#                 Cambridge Crystallographic Data Centre
#                                CCDC 
#
#######################################################################
#
# If this CIF has been generated from an entry in the Cambridge 
# Structural Database, then it will include bibliographic, chemical, 
# crystal, experimental, refinement or atomic coordinate data resulting 
# from the CCDC's data processing and validation procedures.
#
#######################################################################

data_DUKYAL
_symmetry_cell_setting           orthorhombic
_symmetry_space_group_name_H-M   'C m c m'
_symmetry_Int_Tables_number      63
_space_group_name_Hall           '-C 2n 2'
loop_
_symmetry_equiv_pos_site_id
_symmetry_equiv_pos_as_xyz
1 x,y,z
2 -x,-y,1/2+z
3 -x,y,1/2-z
4 1/2-x,1/2-y,1/2+z
5 1/2-x,1/2+y,1/2-z
6 x,-y,-z
7 1/2+x,1/2-y,-z
8 1/2+x,1/2+y,z
9 -x,-y,-z
10 x,y,1/2-z
11 x,-y,1/2+z
12 1/2+x,1/2+y,1/2-z
13 1/2+x,1/2-y,1/2+z
14 -x,y,z
15 1/2-x,1/2+y,z
16 1/2-x,1/2-y,-z
_cell_length_a                   8.89432(75)
_cell_length_b                   12.1851(17)
_cell_length_c                   7.28369(91)
_cell_angle_alpha                90
_cell_angle_beta                 90
_cell_angle_gamma                90
_cell_volume                     789.393
loop_
_atom_site_label
_atom_site_type_symbol
_atom_site_fract_x
_atom_site_fract_y
_atom_site_fract_z
C1 C 0.000 -0.215860 0.250
C2 C 0.139305 -0.154045 0.250
C3 C 0.216103 -0.119967 0.098942
H1 H 0.1879 -0.132482 -0.025103
N1 N 0.340366 -0.064826 0.156641
H2 H 0.000 -0.26049 0.10798
Cu1 Cu 0.500 0.000 0.000
C2B C -0.139305 -0.154045 0.250
C3B C -0.216103 -0.119967 0.401058
H1B H -0.1879 -0.132482 0.525103
N1B N -0.340366 -0.064826 0.343359
H2B H 0.000 -0.26049 0.39202
C3M C -0.216103 -0.119967 0.098942
H1M H -0.1879 -0.132482 -0.025103
N1M N -0.340366 -0.064826 0.156641
C3I C 0.216103 -0.119967 0.401058
H1I H 0.1879 -0.132482 0.525103
N1I N 0.340366 -0.064826 0.343359
N1H N 0.659634 0.064826 -0.156641
N1M_2 N 0.659634 -0.064826 0.156641
N1E N 0.340366 0.064826 -0.156641
Cu1H Cu -0.500 0.000 0.000
Cu1A Cu -0.500 0.000 0.500
Cu1A_2 Cu 0.500 0.000 0.500
loop_
_geom_bond_atom_site_label_1
_geom_bond_atom_site_label_2
_geom_bond_site_symmetry_1
_geom_bond_site_symmetry_2
C1 C2 1_555 1_555
C2 C3 1_555 1_555
C3 H1 1_555 1_555
N1 C3 1_555 1_555
H2 C1 1_555 1_555
Cu1 N1 1_555 1_555
C2B C1 1_555 1_555
C3B C2B 1_555 1_555
H1B C3B 1_555 1_555
N1B C3B 1_555 1_555
H2B C1 1_555 1_555
C3M C2B 1_555 1_555
H1M C3M 1_555 1_555
N1M N1B 1_555 1_555
C3I C2 1_555 1_555
H1I C3I 1_555 1_555
N1I N1 1_555 1_555
N1H Cu1 1_555 1_555
N1M_2 Cu1 1_555 1_555
N1E Cu1 1_555 1_555
Cu1H N1M 1_555 1_555
Cu1A N1B 1_555 1_555
Cu1A_2 N1I 1_555 1_555
C3M N1M 1_555 1_555
C3I N1I 1_555 1_555

#END
