
#######################################################################
#
#                 Cambridge Crystallographic Data Centre
#                                CCDC 
#
#######################################################################
#
# If this CIF has been generated from an entry in the Cambridge 
# Structural Database, then it will include bibliographic, chemical, 
# crystal, experimental, refinement or atomic coordinate data resulting 
# from the CCDC's data processing and validation procedures.
#
#######################################################################

data_DUKYEP
_symmetry_cell_setting           monoclinic
_symmetry_space_group_name_H-M   'C 2/c'
_symmetry_Int_Tables_number      15
_space_group_name_Hall           '-C 2yc'
loop_
_symmetry_equiv_pos_site_id
_symmetry_equiv_pos_as_xyz
1 x,y,z
2 -x,y,1/2-z
3 1/2-x,1/2+y,1/2-z
4 1/2+x,1/2+y,z
5 -x,-y,-z
6 x,-y,1/2+z
7 1/2+x,1/2-y,1/2+z
8 1/2-x,1/2-y,-z
_cell_length_a                   9.57055(70)
_cell_length_b                   14.5579(14)
_cell_length_c                   7.11071(60)
_cell_angle_alpha                90
_cell_angle_beta                 118.2587(35)
_cell_angle_gamma                90
_cell_volume                     872.64
loop_
_atom_site_label
_atom_site_type_symbol
_atom_site_fract_x
_atom_site_fract_y
_atom_site_fract_z
C1 C 0.000 -0.21255 0.250
C2 C -0.146898 -0.155366 0.177955
C3 C -0.210842 -0.099516 0.003943
H1 H -0.170317 -0.089870 -0.093322
N1 N -0.342988 -0.059900 -0.006380
N2 N -0.360714 -0.091266 0.161253
C4 C -0.239524 -0.150267 0.275178
H2 H -0.222550 -0.182296 0.400643
H3 H 0.00967 -0.251 0.39658
Zn1 Zn -0.5 0.02025(15) -0.25
C2A C 0.146898 -0.155366 0.322045
C3A C 0.210842 -0.099516 0.496057
H1A H 0.170317 -0.089870 0.593322
N1A N 0.342988 -0.059900 0.506380
N2A N 0.360714 -0.091266 0.338747
C4A C 0.239524 -0.150267 0.224822
H2A H 0.222550 -0.182296 0.099357
H3A H -0.00967 -0.251 0.10342
N1A_2 N -0.657012 -0.059900 -0.493620
N2D N -0.639286 0.091266 -0.161253
N2E N -0.360714 0.091266 -0.338747
Zn1D Zn -0.5 -0.02025(15) 0.25
Zn1D_2 Zn 0.5 -0.02025(15) 0.25
Zn1A Zn 0.5 0.02025(15) 0.75
loop_
_geom_bond_atom_site_label_1
_geom_bond_atom_site_label_2
_geom_bond_site_symmetry_1
_geom_bond_site_symmetry_2
C1 C2 1_555 1_555
C2 C3 1_555 1_555
C3 H1 1_555 1_555
N1 C3 1_555 1_555
N2 N1 1_555 1_555
C4 C2 1_555 1_555
H2 C4 1_555 1_555
H3 C1 1_555 1_555
Zn1 N1 1_555 1_555
C2A C1 1_555 1_555
C3A C2A 1_555 1_555
H1A C3A 1_555 1_555
N1A C3A 1_555 1_555
N2A N1A 1_555 1_555
C4A C2A 1_555 1_555
H2A C4A 1_555 1_555
H3A C1 1_555 1_555
N1A_2 Zn1 1_555 1_555
N2D Zn1 1_555 1_555
N2E Zn1 1_555 1_555
Zn1D N2 1_555 1_555
Zn1D_2 N2A 1_555 1_555
Zn1A N1A 1_555 1_555
N2 C4 1_555 1_555
N2A C4A 1_555 1_555

#END
