
#######################################################################
#
#                 Cambridge Crystallographic Data Centre
#                                CCDC 
#
#######################################################################
#
# If this CIF has been generated from an entry in the Cambridge 
# Structural Database, then it will include bibliographic, chemical, 
# crystal, experimental, refinement or atomic coordinate data resulting 
# from the CCDC's data processing and validation procedures.
#
#######################################################################

data_DUKZOA
_symmetry_cell_setting           triclinic
_symmetry_space_group_name_H-M   'P -1'
_symmetry_Int_Tables_number      2
_space_group_name_Hall           '-P 1'
loop_
_symmetry_equiv_pos_site_id
_symmetry_equiv_pos_as_xyz
1 x,y,z
2 -x,-y,-z
_cell_length_a                   8.8867(6)
_cell_length_b                   12.1932(8)
_cell_length_c                   13.0618(9)
_cell_angle_alpha                78.1900(10)
_cell_angle_beta                 71.5940(10)
_cell_angle_gamma                85.5680(10)
_cell_volume                     1314.39
loop_
_atom_site_label
_atom_site_type_symbol
_atom_site_fract_x
_atom_site_fract_y
_atom_site_fract_z
Cd1 Cd -0.156389(19) 0.432297(14) 0.643674(14)
Cl1 Cl -0.07540(7) 0.42480(5) 0.42785(5)
O1 O 0.2161(2) -0.05788(15) 0.89960(17)
O2 O -0.2640(2) 0.43852(15) 0.83110(15)
H1 H -0.2394 0.4580 0.8826
H2 H -0.3644 0.4341 0.8507
N1 N 0.0069(2) 0.29383(17) 0.71274(17)
C1 C -0.0554(3) 0.2230(2) 0.8076(2)
H3 H -0.1624 0.2310 0.8452
O3 O 0.8553(2) -0.38641(17) 0.87838(19)
N2 N 0.4376(2) 0.04913(17) 0.82151(17)
H4 H 0.4671 0.1160 0.7882
C2 C 0.1607(3) 0.2800(2) 0.6600(2)
H5 H 0.2062 0.3287 0.5941
Cl2 Cl -0.37317(7) 0.28990(5) 0.67791(6)
O4 O -0.6517(4) 0.9428(2) 0.6370(3)
N3 N 0.9504(3) -0.22433(18) 0.8876(2)
H6 H 1.0260 -0.1931 0.8986
C3 C 0.2552(3) 0.1972(2) 0.6983(2)
H7 H 0.3614 0.1903 0.6585
C4 C 0.1903(3) 0.12453(19) 0.79676(19)
N4 N 1.4106(3) -0.50274(19) 0.87105(19)
N5 N -0.3279(2) 0.58909(16) 0.62827(16)
C5 C 0.0311(3) 0.1386(2) 0.8526(2)
H8 H -0.0167 0.0920 0.9193
N6 N -0.7537(3) 0.85501(18) 0.5389(2)
H9 H -0.7411 0.7965 0.5097
C6 C 0.2821(3) 0.0291(2) 0.8445(2)
C7 C 0.5593(3) -0.0243(2) 0.8446(2)
C8 C 0.7132(3) 0.0056(2) 0.7825(2)
H10 H 0.7313 0.0712 0.7297
C9 C 0.8402(3) -0.0609(2) 0.7981(3)
H11 H 0.9429 -0.0400 0.7557
C10 C 0.8151(3) -0.1578(2) 0.8764(2)
C11 C 0.6622(3) -0.1875(2) 0.9396(2)
H12 H 0.6449 -0.2527 0.9930
C12 C 0.5335(3) -0.1213(2) 0.9244(2)
H13 H 0.4308 -0.1418 0.9676
C13 C 0.9652(3) -0.3341(2) 0.8818(2)
C14 C 1.1225(3) -0.3898(2) 0.8789(2)
C15 C 1.2403(3) -0.3433(2) 0.9051(2)
H14 H 1.2253 -0.2736 0.9255
C16 C 1.3806(3) -0.4031(2) 0.9001(2)
H15 H 1.4586 -0.3716 0.9182
C17 C 1.2970(3) -0.5461(2) 0.8453(2)
H16 H 1.3161 -0.6154 0.8241
C18 C 1.1533(3) -0.4938(2) 0.8485(2)
H17 H 1.0775 -0.5279 0.8305
C19 C -0.3097(3) 0.6891(2) 0.6502(2)
H18 H -0.2232 0.6991 0.6727
C20 C -0.4537(3) 0.5765(2) 0.5977(2)
H19 H -0.4694 0.5070 0.5841
C21 C -0.5622(3) 0.6614(2) 0.5851(2)
H20 H -0.6478 0.6490 0.5627
C22 C -0.5424(3) 0.7651(2) 0.6062(2)
C23 C -0.4139(3) 0.7780(2) 0.6409(2)
H21 H -0.3979 0.8458 0.6578
C24 C -0.6545(3) 0.8633(2) 0.5957(2)
C25 C -0.8768(3) 0.9302(2) 0.5207(2)
C26 C -0.8854(3) 1.0410(2) 0.5337(2)
H22 H -0.8093 1.0690 0.5564
C27 C -0.9921(3) 0.8906(2) 0.4874(2)
H23 H -0.9870 0.8163 0.4791
O4A O -1.3483(4) 1.0572(2) 0.3630(3)
N5A N -1.6721(2) 1.41091(16) 0.37173(16)
N6A N -1.2463(3) 1.14499(18) 0.4611(2)
H9A H -1.2589 1.2035 0.4903
C19A C -1.6903(3) 1.3109(2) 0.3498(2)
H18A H -1.7768 1.3009 0.3273
C20A C -1.5463(3) 1.4235(2) 0.4023(2)
H19A H -1.5306 1.4930 0.4159
C21A C -1.4378(3) 1.3386(2) 0.4149(2)
H20A H -1.3522 1.3510 0.4373
C22A C -1.4576(3) 1.2349(2) 0.3938(2)
C23A C -1.5861(3) 1.2220(2) 0.3591(2)
H21A H -1.6021 1.1542 0.3422
C24A C -1.3455(3) 1.1367(2) 0.4043(2)
C25A C -1.1232(3) 1.0698(2) 0.4793(2)
C26A C -1.1146(3) 0.9590(2) 0.4663(2)
H22A H -1.1907 0.9310 0.4436
C27A C -1.0079(3) 1.1094(2) 0.5126(2)
H23A H -1.0130 1.1837 0.5209
Cd1A Cd -1.843611(19) 1.567703(14) 0.356326(14)
Cl1A Cl -1.92460(7) 1.57520(5) 0.57215(5)
O1A O -2.2161(2) 2.05788(15) 0.10040(17)
O2A O -1.7360(2) 1.56148(15) 0.16890(15)
H1A H -1.7606 1.5420 0.1174
H2A H -1.6356 1.5659 0.1493
N1A N -2.0069(2) 1.70617(17) 0.28726(17)
C1A C -1.9446(3) 1.7770(2) 0.1924(2)
H3A H -1.8376 1.7690 0.1548
O3A O -2.8553(2) 2.38641(17) 0.12162(19)
N2A N -2.4376(2) 1.95087(17) 0.17849(17)
H4A H -2.4671 1.8840 0.2118
C2A C -2.1607(3) 1.7200(2) 0.3400(2)
H5A H -2.2062 1.6713 0.4059
Cl2A Cl -1.62683(7) 1.71010(5) 0.32209(6)
N3A N -2.9504(3) 2.22433(18) 0.1124(2)
H6A H -3.0260 2.1931 0.1014
C3A C -2.2552(3) 1.8028(2) 0.3017(2)
H7A H -2.3614 1.8097 0.3415
C4A C -2.1903(3) 1.87547(19) 0.20324(19)
N4A N -3.4106(3) 2.50274(19) 0.12895(19)
C5A C -2.0311(3) 1.8614(2) 0.1474(2)
H8A H -1.9833 1.9080 0.0807
C6A C -2.2821(3) 1.9709(2) 0.1555(2)
C7A C -2.5593(3) 2.0243(2) 0.1554(2)
C8A C -2.7132(3) 1.9944(2) 0.2175(2)
H10A H -2.7313 1.9288 0.2703
C9A C -2.8402(3) 2.0609(2) 0.2019(3)
H11A H -2.9429 2.0400 0.2443
C10A C -2.8151(3) 2.1578(2) 0.1236(2)
C11A C -2.6622(3) 2.1875(2) 0.0604(2)
H12A H -2.6449 2.2527 0.0070
C12A C -2.5335(3) 2.1213(2) 0.0756(2)
H13A H -2.4308 2.1418 0.0324
C13A C -2.9652(3) 2.3341(2) 0.1182(2)
C14A C -3.1225(3) 2.3898(2) 0.1211(2)
C15A C -3.2403(3) 2.3433(2) 0.0949(2)
H14A H -3.2253 2.2736 0.0745
C16A C -3.3806(3) 2.4031(2) 0.0999(2)
H15A H -3.4586 2.3716 0.0818
C17A C -3.2970(3) 2.5461(2) 0.1547(2)
H16A H -3.3161 2.6154 0.1759
C18A C -3.1533(3) 2.4938(2) 0.1515(2)
H17A H -3.0775 2.5279 0.1695
Cd1_2 Cd -2.156389(19) 1.432297(14) 0.643674(14)
Cd1A_2 Cd 0.156389(19) 0.567703(14) 0.356326(14)
Cl1_2 Cl -2.07540(7) 1.42480(5) 0.42785(5)
Cl1A_2 Cl 0.07540(7) 0.57520(5) 0.57215(5)
loop_
_geom_bond_atom_site_label_1
_geom_bond_atom_site_label_2
_geom_bond_site_symmetry_1
_geom_bond_site_symmetry_2
Cd1 Cl1 1_555 1_555
Cl1 Cd1A_2 1_555 1_555
O1 C6 1_555 1_555
O2 Cd1 1_555 1_555
H1 O2 1_555 1_555
H2 O2 1_555 1_555
N1 Cd1 1_555 1_555
C1 N1 1_555 1_555
H3 C1 1_555 1_555
O3 C13 1_555 1_555
N2 H4 1_555 1_555
C2 N1 1_555 1_555
H5 C2 1_555 1_555
Cl2 Cd1 1_555 1_555
O4 C24 1_555 1_555
N3 H6 1_555 1_555
C3 C2 1_555 1_555
H7 C3 1_555 1_555
C4 C3 1_555 1_555
N4 C16 1_555 1_555
N5 Cd1 1_555 1_555
C5 C1 1_555 1_555
H8 C5 1_555 1_555
N6 H9 1_555 1_555
C6 N2 1_555 1_555
C7 N2 1_555 1_555
C8 C7 1_555 1_555
H10 C8 1_555 1_555
C9 C8 1_555 1_555
H11 C9 1_555 1_555
C10 N3 1_555 1_555
C11 C10 1_555 1_555
H12 C11 1_555 1_555
C12 C7 1_555 1_555
H13 C12 1_555 1_555
C13 N3 1_555 1_555
C14 C13 1_555 1_555
C15 C14 1_555 1_555
H14 C15 1_555 1_555
C16 C15 1_555 1_555
H15 C16 1_555 1_555
C17 N4 1_555 1_555
H16 C17 1_555 1_555
C18 C14 1_555 1_555
H17 C18 1_555 1_555
C19 N5 1_555 1_555
H18 C19 1_555 1_555
C20 N5 1_555 1_555
H19 C20 1_555 1_555
C21 C20 1_555 1_555
H20 C21 1_555 1_555
C22 C21 1_555 1_555
C23 C19 1_555 1_555
H21 C23 1_555 1_555
C24 N6 1_555 1_555
C25 N6 1_555 1_555
C26 C25 1_555 1_555
H22 C26 1_555 1_555
C27 C25 1_555 1_555
H23 C27 1_555 1_555
O4A C24A 1_555 1_555
N5A C19A 1_555 1_555
N6A H9A 1_555 1_555
C19A H18A 1_555 1_555
C20A N5A 1_555 1_555
H19A C20A 1_555 1_555
C21A C20A 1_555 1_555
H20A C21A 1_555 1_555
C22A C21A 1_555 1_555
C23A C19A 1_555 1_555
H21A C23A 1_555 1_555
C24A N6A 1_555 1_555
C25A N6A 1_555 1_555
C26A C27 1_555 1_555
H22A C26A 1_555 1_555
C27A C26 1_555 1_555
H23A C27A 1_555 1_555
Cd1A N5A 1_555 1_555
Cl1A Cd1A 1_555 1_555
O1A C6A 1_555 1_555
O2A Cd1A 1_555 1_555
H1A O2A 1_555 1_555
H2A O2A 1_555 1_555
N1A Cd1A 1_555 1_555
C1A N1A 1_555 1_555
H3A C1A 1_555 1_555
O3A C13A 1_555 1_555
N2A H4A 1_555 1_555
C2A N1A 1_555 1_555
H5A C2A 1_555 1_555
Cl2A Cd1A 1_555 1_555
N3A H6A 1_555 1_555
C3A C2A 1_555 1_555
H7A C3A 1_555 1_555
C4A C3A 1_555 1_555
N4A C16A 1_555 1_555
C5A C1A 1_555 1_555
H8A C5A 1_555 1_555
C6A N2A 1_555 1_555
C7A N2A 1_555 1_555
C8A C7A 1_555 1_555
H10A C8A 1_555 1_555
C9A C8A 1_555 1_555
H11A C9A 1_555 1_555
C10A N3A 1_555 1_555
C11A C10A 1_555 1_555
H12A C11A 1_555 1_555
C12A C7A 1_555 1_555
H13A C12A 1_555 1_555
C13A N3A 1_555 1_555
C14A C13A 1_555 1_555
C15A C14A 1_555 1_555
H14A C15A 1_555 1_555
C16A C15A 1_555 1_555
H15A C16A 1_555 1_555
C17A N4A 1_555 1_555
H16A C17A 1_555 1_555
C18A C14A 1_555 1_555
H17A C18A 1_555 1_555
Cd1_2 Cl1A 1_555 1_555
Cd1A_2 Cl1A_2 1_555 1_555
Cl1_2 Cd1A 1_555 1_555
Cl1A_2 Cd1 1_555 1_555
C4 C5 1_555 1_555
C4 C6 1_555 1_555
C9 C10 1_555 1_555
C11 C12 1_555 1_555
C17 C18 1_555 1_555
C22 C23 1_555 1_555
C22 C24 1_555 1_555
C22A C23A 1_555 1_555
C22A C24A 1_555 1_555
C25A C26A 1_555 1_555
C25A C27A 1_555 1_555
C4A C5A 1_555 1_555
C4A C6A 1_555 1_555
C9A C10A 1_555 1_555
C11A C12A 1_555 1_555
C17A C18A 1_555 1_555
Cd1_2 Cl1_2 1_555 1_555

#END
