
#######################################################################
#
#                 Cambridge Crystallographic Data Centre
#                                CCDC 
#
#######################################################################
#
# If this CIF has been generated from an entry in the Cambridge 
# Structural Database, then it will include bibliographic, chemical, 
# crystal, experimental, refinement or atomic coordinate data resulting 
# from the CCDC's data processing and validation procedures.
#
#######################################################################

data_DULBET
_symmetry_cell_setting           triclinic
_symmetry_space_group_name_H-M   'P -1'
_symmetry_Int_Tables_number      2
_space_group_name_Hall           '-P 1'
loop_
_symmetry_equiv_pos_site_id
_symmetry_equiv_pos_as_xyz
1 x,y,z
2 -x,-y,-z
_cell_length_a                   9.6143(5)
_cell_length_b                   13.0378(7)
_cell_length_c                   13.2223(8)
_cell_angle_alpha                98.1470(10)
_cell_angle_beta                 101.9300(10)
_cell_angle_gamma                110.5740(10)
_cell_volume                     1476.02
loop_
_atom_site_label
_atom_site_type_symbol
_atom_site_fract_x
_atom_site_fract_y
_atom_site_fract_z
Ni1 Ni 0.5000 0.0000 0.0000
O1 O 0.41464(19) 0.11784(14) -0.04556(14)
N1 N 0.4062(2) -0.00136(17) 0.13356(16)
O2 O 0.30395(18) -0.12830(14) -0.09000(14)
C1 C 0.4889(3) 0.0040(2) 0.2306(2)
C2 C 0.2680(3) 0.0032(2) 0.1260(2)
C3 C 0.1726(3) -0.1352(2) -0.13900(19)
H1 H 0.5830 -0.0033 0.2371
C4 C 0.4418(3) 0.0198(2) 0.3217(2)
H2 H 0.2060 -0.0050 0.0589
C5 C 0.2121(3) 0.0193(2) 0.2127(2)
O3 O 0.1321(2) -0.05460(15) -0.14723(17)
C6 C 0.0581(3) -0.25266(19) -0.19535(18)
H3 H 0.5026 0.0221 0.3873
C7 C 0.3021(3) 0.03208(18) 0.31342(19)
H4 H 0.1148 0.0216 0.2033
C8 C 0.1116(3) -0.3313(2) -0.2344(2)
C9 C -0.0994(3) -0.2827(2) -0.2122(2)
C10 C 0.2661(3) 0.0665(2) 0.4158(2)
H5 H 0.2174 -0.3130 -0.2197
C11 C 0.0091(3) -0.4372(2) -0.2955(2)
H6 H -0.1363 -0.2313 -0.1842
C12 C -0.2024(3) -0.3894(2) -0.2708(2)
N2 N 0.1448(3) 0.09773(19) 0.40436(18)
O4 O 0.3469(2) 0.0710(2) 0.50108(16)
H7 H 0.0452 -0.4894 -0.3231
C13 C -0.1467(3) -0.4634(2) -0.31414(18)
H8 H -0.3081 -0.4105 -0.2806
H9 H 0.0960 0.0913 0.3400
C14 C 0.0872(3) 0.1396(2) 0.4841(2)
O5 O -0.2505(2) -0.56857(14) -0.37895(13)
C15 C 0.1458(3) 0.1522(2) 0.5921(2)
C16 C -0.0366(3) 0.1687(3) 0.4495(2)
C17 C -0.3047(3) -0.57217(19) -0.48553(18)
H10 H 0.2301 0.1341 0.6164
C18 C 0.0791(3) 0.1921(2) 0.6644(2)
H11 H -0.0762 0.1612 0.3772
C19 C -0.1019(3) 0.2086(3) 0.5211(2)
C20 C -0.4070(3) -0.6766(2) -0.5484(2)
C21 C -0.2585(3) -0.4805(2) -0.5293(2)
H12 H 0.1184 0.1998 0.7368
C22 C -0.0458(3) 0.2202(2) 0.6287(2)
H13 H -0.1849 0.2281 0.4965
C23 C -0.4603(3) -0.6885(2) -0.65589(19)
H14 H -0.4393 -0.7380 -0.5182
C24 C -0.3138(3) -0.4938(2) -0.63751(19)
H15 H -0.1909 -0.4102 -0.4866
N3 N -0.1236(2) 0.25942(18) 0.69596(17)
C25 C -0.4141(2) -0.59782(18) -0.70244(17)
H16 H -0.5287 -0.7588 -0.6983
H17 H -0.2829 -0.4319 -0.6672
H18 H -0.1950 0.2787 0.6647
C26 C -0.1010(3) 0.2706(2) 0.8015(2)
C27 C -0.4738(3) -0.61270(19) -0.81964(18)
O6 O -0.0020(2) 0.25024(18) 0.85913(16)
C28 C -0.2073(3) 0.3127(2) 0.84690(19)
O7 O -0.42639(19) -0.52500(14) -0.85444(13)
O8 O -0.5667(2) -0.70845(15) -0.87406(14)
C29 C -0.1553(3) 0.3693(2) 0.9526(2)
C30 C -0.3525(3) 0.3003(2) 0.78870(19)
Ni2 Ni -0.5000 -0.5000 -1.0000
H19 H -0.0618 0.3744 0.9950
C31 C -0.2436(3) 0.4181(2) 0.9946(2)
H20 H -0.3939 0.2592 0.7185
C32 C -0.4343(3) 0.3506(2) 0.83743(19)
N4 N -0.3807(2) 0.41160(17) 0.93739(16)
H21 H -0.2065 0.4572 1.0655
H22 H -0.5319 0.3413 0.7983
O9 O -0.6895(2) 0.34559(16) 0.95577(15)
N1A N 0.5938(2) 0.00136(17) -0.13356(16)
O1A O 0.58536(19) -0.11784(14) 0.04556(14)
O2A O 0.69605(18) 0.12830(14) 0.09000(14)
C1A C 0.5111(3) -0.0040(2) -0.2306(2)
C2A C 0.7320(3) -0.0032(2) -0.1260(2)
C3A C 0.8274(3) 0.1352(2) 0.13900(19)
H1A H 0.4170 0.0033 -0.2371
C4A C 0.5582(3) -0.0198(2) -0.3217(2)
H2A H 0.7940 0.0050 -0.0589
C5A C 0.7879(3) -0.0193(2) -0.2127(2)
C6A C 0.9419(3) 0.25266(19) 0.19535(18)
O3A O 0.8679(2) 0.05460(15) 0.14723(17)
H3A H 0.4974 -0.0221 -0.3873
C7A C 0.6979(3) -0.03208(18) -0.31342(19)
H4A H 0.8852 -0.0216 -0.2033
C8A C 0.8884(3) 0.3313(2) 0.2344(2)
C9A C 1.0994(3) 0.2827(2) 0.2122(2)
C10A C 0.7339(3) -0.0665(2) -0.4158(2)
C11A C 0.9909(3) 0.4372(2) 0.2955(2)
H5A H 0.7826 0.3130 0.2197
H6A H 1.1363 0.2313 0.1842
C12A C 1.2024(3) 0.3894(2) 0.2708(2)
N2A N 0.8552(3) -0.09773(19) -0.40436(18)
O4A O 0.6531(2) -0.0710(2) -0.50108(16)
C13A C 1.1467(3) 0.4634(2) 0.31414(18)
H7A H 0.9548 0.4894 0.3231
H8A H 1.3081 0.4105 0.2806
H9A H 0.9040 -0.0913 -0.3400
C14A C 0.9128(3) -0.1396(2) -0.4841(2)
O5A O 1.2505(2) 0.56857(14) 0.37895(13)
C15A C 0.8542(3) -0.1522(2) -0.5921(2)
C16A C 1.0366(3) -0.1687(3) -0.4495(2)
C17A C 1.3047(3) 0.57217(19) 0.48553(18)
H10A H 0.7699 -0.1341 -0.6164
C18A C 0.9209(3) -0.1921(2) -0.6644(2)
H11A H 1.0762 -0.1612 -0.3772
C19A C 1.1019(3) -0.2086(3) -0.5211(2)
C20A C 1.4070(3) 0.6766(2) 0.5484(2)
C21A C 1.2585(3) 0.4805(2) 0.5293(2)
H12A H 0.8816 -0.1998 -0.7368
C22A C 1.0458(3) -0.2202(2) -0.6287(2)
H13A H 1.1849 -0.2281 -0.4965
H14A H 1.4393 0.7380 0.5182
C23A C 1.4603(3) 0.6885(2) 0.65589(19)
C24A C 1.3138(3) 0.4938(2) 0.63751(19)
H15A H 1.1909 0.4102 0.4866
N3A N 1.1236(2) -0.25942(18) -0.69596(17)
C25A C 1.4141(2) 0.59782(18) 0.70244(17)
H16A H 1.5287 0.7588 0.6983
H17A H 1.2829 0.4319 0.6672
H18A H 1.1950 -0.2787 -0.6647
C26A C 1.1010(3) -0.2706(2) -0.8015(2)
C27A C 1.4738(3) 0.61270(19) 0.81964(18)
O6A O 1.0020(2) -0.25024(18) -0.85913(16)
C28A C 1.2073(3) -0.3127(2) -0.84690(19)
O7A O 1.42639(19) 0.52500(14) 0.85444(13)
O8A O 1.5667(2) 0.70845(15) 0.87406(14)
C29A C 1.1553(3) -0.3693(2) -0.9526(2)
C30A C 1.3525(3) -0.3003(2) -0.78870(19)
Ni2_2 Ni 1.5000 0.5000 1.0000
H19A H 1.0618 -0.3744 -0.9950
C31A C 1.2436(3) -0.4181(2) -0.9946(2)
H20A H 1.3939 -0.2592 -0.7185
C32A C 1.4343(3) -0.3506(2) -0.83743(19)
N4A N 1.3807(2) -0.41160(17) -0.93739(16)
H21A H 1.2065 -0.4572 -1.0655
H22A H 1.5319 -0.3413 -0.7983
Ni2_3 Ni -0.5000 0.5000 1.0000
Ni2_4 Ni 1.5000 -0.5000 -1.0000
O7A_2 O -0.57361(19) 0.52500(14) 0.85444(13)
O9A O -0.3105(2) 0.65441(16) 1.04423(15)
N4A_2 N -0.6193(2) 0.58840(17) 1.06261(16)
O7_2 O -0.42639(19) 0.47500(14) 1.14556(13)
loop_
_geom_bond_atom_site_label_1
_geom_bond_atom_site_label_2
_geom_bond_site_symmetry_1
_geom_bond_site_symmetry_2
Ni1 O1 1_555 1_555
N1 Ni1 1_555 1_555
O2 Ni1 1_555 1_555
C1 N1 1_555 1_555
C2 N1 1_555 1_555
C3 O2 1_555 1_555
H1 C1 1_555 1_555
C4 C1 1_555 1_555
H2 C2 1_555 1_555
C5 C2 1_555 1_555
O3 C3 1_555 1_555
C6 C3 1_555 1_555
H3 C4 1_555 1_555
C7 C4 1_555 1_555
H4 C5 1_555 1_555
C8 C6 1_555 1_555
C9 C6 1_555 1_555
C10 C7 1_555 1_555
H5 C8 1_555 1_555
C11 C8 1_555 1_555
H6 C9 1_555 1_555
C12 C9 1_555 1_555
N2 C10 1_555 1_555
O4 C10 1_555 1_555
H7 C11 1_555 1_555
C13 C11 1_555 1_555
H8 C12 1_555 1_555
H9 N2 1_555 1_555
C14 N2 1_555 1_555
O5 C13 1_555 1_555
C15 C14 1_555 1_555
C16 C14 1_555 1_555
C17 O5 1_555 1_555
H10 C15 1_555 1_555
C18 C15 1_555 1_555
H11 C16 1_555 1_555
C19 C16 1_555 1_555
C20 C17 1_555 1_555
C21 C17 1_555 1_555
H12 C18 1_555 1_555
C22 C18 1_555 1_555
H13 C19 1_555 1_555
C23 C20 1_555 1_555
H14 C20 1_555 1_555
C24 C21 1_555 1_555
H15 C21 1_555 1_555
N3 C22 1_555 1_555
C25 C23 1_555 1_555
H16 C23 1_555 1_555
H17 C24 1_555 1_555
H18 N3 1_555 1_555
C26 N3 1_555 1_555
C27 C25 1_555 1_555
O6 C26 1_555 1_555
C28 C26 1_555 1_555
O7 C27 1_555 1_555
O8 C27 1_555 1_555
C29 C28 1_555 1_555
C30 C28 1_555 1_555
Ni2 O7 1_555 1_555
H19 C29 1_555 1_555
C31 C29 1_555 1_555
H20 C30 1_555 1_555
C32 C30 1_555 1_555
N4 C31 1_555 1_555
H21 C31 1_555 1_555
H22 C32 1_555 1_555
O9 Ni2_3 1_555 1_555
N1A Ni1 1_555 1_555
O1A Ni1 1_555 1_555
O2A Ni1 1_555 1_555
C1A N1A 1_555 1_555
C2A N1A 1_555 1_555
C3A O2A 1_555 1_555
H1A C1A 1_555 1_555
C4A C1A 1_555 1_555
H2A C2A 1_555 1_555
C5A C2A 1_555 1_555
C6A C3A 1_555 1_555
O3A C3A 1_555 1_555
H3A C4A 1_555 1_555
C7A C4A 1_555 1_555
H4A C5A 1_555 1_555
C8A C6A 1_555 1_555
C9A C6A 1_555 1_555
C10A C7A 1_555 1_555
C11A C8A 1_555 1_555
H5A C8A 1_555 1_555
H6A C9A 1_555 1_555
C12A C9A 1_555 1_555
N2A C10A 1_555 1_555
O4A C10A 1_555 1_555
C13A C11A 1_555 1_555
H7A C11A 1_555 1_555
H8A C12A 1_555 1_555
H9A N2A 1_555 1_555
C14A N2A 1_555 1_555
O5A C13A 1_555 1_555
C15A C14A 1_555 1_555
C16A C14A 1_555 1_555
C17A O5A 1_555 1_555
H10A C15A 1_555 1_555
C18A C15A 1_555 1_555
H11A C16A 1_555 1_555
C19A C16A 1_555 1_555
C20A C17A 1_555 1_555
C21A C17A 1_555 1_555
H12A C18A 1_555 1_555
C22A C18A 1_555 1_555
H13A C19A 1_555 1_555
H14A C20A 1_555 1_555
C23A C20A 1_555 1_555
C24A C21A 1_555 1_555
H15A C21A 1_555 1_555
N3A C22A 1_555 1_555
C25A C23A 1_555 1_555
H16A C23A 1_555 1_555
H17A C24A 1_555 1_555
H18A N3A 1_555 1_555
C26A N3A 1_555 1_555
C27A C25A 1_555 1_555
O6A C26A 1_555 1_555
C28A C26A 1_555 1_555
O7A C27A 1_555 1_555
O8A C27A 1_555 1_555
C29A C28A 1_555 1_555
C30A C28A 1_555 1_555
Ni2_2 O7A 1_555 1_555
H19A C29A 1_555 1_555
C31A C29A 1_555 1_555
H20A C30A 1_555 1_555
C32A C30A 1_555 1_555
N4A C31A 1_555 1_555
H21A C31A 1_555 1_555
H22A C32A 1_555 1_555
Ni2_3 N4 1_555 1_555
Ni2_4 N4A 1_555 1_555
O7A_2 Ni2_3 1_555 1_555
O9A Ni2_3 1_555 1_555
N4A_2 Ni2_3 1_555 1_555
O7_2 Ni2_3 1_555 1_555
C5 C7 1_555 1_555
C12 C13 1_555 1_555
C19 C22 1_555 1_555
C24 C25 1_555 1_555
C32 N4 1_555 1_555
C5A C7A 1_555 1_555
C12A C13A 1_555 1_555
C19A C22A 1_555 1_555
C24A C25A 1_555 1_555
C32A N4A 1_555 1_555

#END
