
#######################################################################
#
#                 Cambridge Crystallographic Data Centre
#                                CCDC 
#
#######################################################################
#
# If this CIF has been generated from an entry in the Cambridge 
# Structural Database, then it will include bibliographic, chemical, 
# crystal, experimental, refinement or atomic coordinate data resulting 
# from the CCDC's data processing and validation procedures.
#
#######################################################################

data_DULBAP
_symmetry_cell_setting           triclinic
_symmetry_space_group_name_H-M   'P -1'
_symmetry_Int_Tables_number      2
_space_group_name_Hall           '-P 1'
loop_
_symmetry_equiv_pos_site_id
_symmetry_equiv_pos_as_xyz
1 x,y,z
2 -x,-y,-z
_cell_length_a                   9.616(5)
_cell_length_b                   13.144(5)
_cell_length_c                   13.269(5)
_cell_angle_alpha                97.936(5)
_cell_angle_beta                 101.982(5)
_cell_angle_gamma                111.116(5)
_cell_volume                     1488.19
loop_
_atom_site_label
_atom_site_type_symbol
_atom_site_fract_x
_atom_site_fract_y
_atom_site_fract_z
Co1 Co 0.5000 0.0000 0.0000
O1 O -0.25022(16) 0.43079(11) 1.61966(10)
N1 N -0.37977(19) 0.40792(14) 0.93585(12)
C1 C -0.4338(2) 0.34914(17) 0.83558(15)
H1 H -0.5310 0.3410 0.7965
O2 O 0.41222(16) 0.11848(11) -0.04608(11)
H2 H 0.3316 0.1195 -0.0300
Co2 Co -0.5000 0.5000 1.0000
O3 O -0.56669(18) 0.29071(12) 1.12594(11)
N2 N -0.12317(19) 0.25975(14) 0.69438(13)
H3 H -0.1927 0.2805 0.6632
C2 C -0.3527(2) 0.29975(16) 0.78691(15)
H4 H -0.3945 0.2594 0.7167
O4 O -0.30668(17) 0.65523(13) 1.04305(12)
H5 H -0.2960 0.6622 0.9820
H6 H -0.2167 0.6844 1.0867
O5 O -0.42578(16) 0.47346(11) 1.14577(10)
N3 N 0.1431(2) 0.09818(15) 0.40532(14)
H7 H 0.0941 0.0913 0.3410
C3 C -0.2077(2) 0.31132(15) 0.84456(15)
O6 O -0.00559(17) 0.24692(14) 0.85629(12)
N4 N 0.40397(18) -0.00230(13) 0.13707(12)
C4 C -0.1556(2) 0.36657(19) 0.95052(16)
H8 H -0.0622 0.3716 0.9929
O7 O 0.3457(2) 0.07253(15) 0.50256(12)
C5 C -0.2437(2) 0.41379(19) 0.99222(16)
H9 H -0.2067 0.4517 1.0632
O8 O 0.30053(15) 0.87344(11) 1.90807(11)
C6 C -0.1027(2) 0.26932(15) 0.79928(15)
O9 O 0.12694(17) 0.94352(12) 1.85077(14)
C7 C -0.0463(2) 0.22025(15) 0.62779(15)
C8 C -0.1029(3) 0.2083(2) 0.52057(17)
H10 H -0.1857 0.2275 0.4958
C9 C -0.0378(3) 0.1682(2) 0.44973(17)
H11 H -0.0777 0.1602 0.3776
C10 C 0.0859(2) 0.13973(16) 0.48425(16)
C11 C 0.1445(2) 0.15288(19) 0.59206(16)
H12 H 0.2284 0.1348 0.6168
C12 C 0.0783(2) 0.19293(18) 0.66334(16)
H13 H 0.1182 0.2014 0.7356
C13 C 0.2647(2) 0.06768(16) 0.41731(16)
C14 C 0.3007(2) 0.03276(14) 0.31573(15)
C15 C 0.2106(2) 0.02051(16) 0.21515(16)
H14 H 0.1139 0.0238 0.2056
C16 C 0.2665(2) 0.00330(17) 0.12923(16)
H15 H 0.2047 -0.0048 0.0622
C17 C 0.4864(2) 0.00339(17) 0.23399(16)
H16 H 0.5804 -0.0040 0.2409
C18 C 0.4393(2) 0.01966(16) 0.32416(16)
H17 H 0.4996 0.0218 0.3897
C19 C 0.1682(2) 0.86449(16) 1.85913(14)
C20 C 0.0543(2) 0.74670(16) 1.80333(13)
C21 C 0.1099(2) 0.66950(17) 1.76639(16)
H18 H 0.2164 0.6888 1.7825
C22 C 0.0087(2) 0.56392(17) 1.70583(17)
H19 H 0.0464 0.5127 1.6800
C23 C -0.1476(2) 0.53600(15) 1.68458(14)
C24 C -0.2056(2) 0.60894(18) 1.72493(18)
H20 H -0.3122 0.5871 1.7129
C25 C -0.1039(2) 0.71527(18) 1.78364(17)
H21 H -0.1423 0.7658 1.8099
C26 C -0.4736(2) 0.38602(15) 1.18018(14)
C27 C -0.4131(2) 0.40089(15) 1.29711(14)
C28 C -0.4592(2) 0.31034(15) 1.34330(15)
H22 H -0.5271 0.2401 1.3010
C29 C -0.4062(2) 0.32278(15) 1.45068(15)
H23 H -0.4392 0.2617 1.4810
C30 C -0.3034(2) 0.42677(15) 1.51305(14)
C31 C -0.2572(2) 0.51849(16) 1.46957(15)
H24 H -0.1894 0.5887 1.5121
C32 C -0.3130(2) 0.50467(16) 1.36192(15)
H25 H -0.2827 0.5665 1.3323
O1A O -0.74978(16) 0.56921(11) 0.38034(10)
N1A N -0.62023(19) 0.59208(14) 1.06415(12)
C1A C -0.5662(2) 0.65086(17) 1.16442(15)
H1A H -0.4690 0.6590 1.2035
O3A O -0.43331(18) 0.70929(12) 0.87406(11)
N2A N -0.87683(19) 0.74025(14) 1.30562(13)
H3A H -0.8073 0.7195 1.3368
C2A C -0.6473(2) 0.70025(16) 1.21309(15)
H4A H -0.6055 0.7406 1.2833
O4A O -0.69332(17) 0.34477(13) 0.95695(12)
H5A H -0.7040 0.3378 1.0180
H6A H -0.7833 0.3156 0.9133
O5A O -0.57422(16) 0.52654(11) 0.85423(10)
N3A N -1.1431(2) 0.90182(15) 1.59468(14)
H7A H -1.0941 0.9087 1.6590
C3A C -0.7923(2) 0.68868(15) 1.15544(15)
O6A O -0.99441(17) 0.75308(14) 1.14371(12)
N4A N -1.40397(18) 1.00230(13) 1.86293(12)
C4A C -0.8444(2) 0.63343(19) 1.04948(16)
H8A H -0.9378 0.6284 1.0071
O7A O -1.3457(2) 0.92747(15) 1.49744(12)
C5A C -0.7563(2) 0.58621(19) 1.00778(16)
H9A H -0.7933 0.5483 0.9368
O8A O -1.30053(15) 0.12656(11) 0.09193(11)
C6A C -0.8973(2) 0.73068(15) 1.20072(15)
O9A O -1.12694(17) 0.05648(12) 0.14923(14)
C7A C -0.9537(2) 0.77975(15) 1.37221(15)
C8A C -0.8971(3) 0.7917(2) 1.47943(17)
H10A H -0.8143 0.7725 1.5042
C9A C -0.9622(3) 0.8318(2) 1.55027(17)
H11A H -0.9223 0.8398 1.6224
C10A C -1.0859(2) 0.86027(16) 1.51575(16)
C11A C -1.1445(2) 0.84712(19) 1.40794(16)
H12A H -1.2284 0.8652 1.3832
C12A C -1.0783(2) 0.80707(18) 1.33666(16)
H13A H -1.1182 0.7986 1.2644
C13A C -1.2647(2) 0.93232(16) 1.58269(16)
C14A C -1.3007(2) 0.96724(14) 1.68427(15)
C15A C -1.2106(2) 0.97949(16) 1.78485(16)
H14A H -1.1139 0.9762 1.7944
C16A C -1.2665(2) 0.99670(17) 1.87077(16)
H15A H -1.2047 1.0048 1.9378
C17A C -1.4864(2) 0.99661(17) 1.76601(16)
H16A H -1.5804 1.0040 1.7591
C18A C -1.4393(2) 0.98034(16) 1.67584(16)
H17A H -1.4996 0.9782 1.6103
C19A C -1.1682(2) 0.13551(16) 0.14087(14)
C20A C -1.0543(2) 0.25330(16) 0.19667(13)
C21A C -1.1099(2) 0.33050(17) 0.23361(16)
H18A H -1.2164 0.3112 0.2175
C22A C -1.0087(2) 0.43608(17) 0.29417(17)
H19A H -1.0464 0.4873 0.3200
C23A C -0.8524(2) 0.46400(15) 0.31542(14)
C24A C -0.7944(2) 0.39106(18) 0.27507(18)
H20A H -0.6878 0.4129 0.2871
C25A C -0.8961(2) 0.28473(18) 0.21636(17)
H21A H -0.8577 0.2342 0.1901
C26A C -0.5264(2) 0.61398(15) 0.81982(14)
C27A C -0.5869(2) 0.59911(15) 0.70289(14)
C28A C -0.5408(2) 0.68966(15) 0.65670(15)
H22A H -0.4729 0.7599 0.6990
C29A C -0.5938(2) 0.67722(15) 0.54932(15)
H23A H -0.5608 0.7383 0.5190
C30A C -0.6966(2) 0.57323(15) 0.48695(14)
C31A C -0.7428(2) 0.48151(16) 0.53043(15)
H24A H -0.8106 0.4113 0.4879
C32A C -0.6870(2) 0.49533(16) 0.63808(15)
H25A H -0.7173 0.4335 0.6677
O2A O 0.58778(16) -0.11848(11) 0.04608(11)
H2A H 0.6684 -0.1195 0.0300
Co1_2 Co -1.5000 0.0000 0.0000
Co1_3 Co -1.5000 1.0000 2.0000
Co1_4 Co 0.5000 1.0000 2.0000
N4A_2 N 0.59603(18) 0.00230(13) -0.13707(12)
O8_2 O 0.30053(15) -0.12656(11) -0.09193(11)
O8A_2 O 0.69947(15) 0.12656(11) 0.09193(11)
loop_
_geom_bond_atom_site_label_1
_geom_bond_atom_site_label_2
_geom_bond_site_symmetry_1
_geom_bond_site_symmetry_2
Co1 O2 1_555 1_555
O1 C23 1_555 1_555
N1 C1 1_555 1_555
C1 H1 1_555 1_555
O2 H2 1_555 1_555
Co2 N1 1_555 1_555
O3 C26 1_555 1_555
N2 H3 1_555 1_555
C2 C1 1_555 1_555
H4 C2 1_555 1_555
O4 Co2 1_555 1_555
H5 O4 1_555 1_555
H6 O4 1_555 1_555
O5 Co2 1_555 1_555
N3 H7 1_555 1_555
C3 C2 1_555 1_555
O6 C6 1_555 1_555
N4 Co1 1_555 1_555
C4 C3 1_555 1_555
H8 C4 1_555 1_555
O7 C13 1_555 1_555
C5 N1 1_555 1_555
H9 C5 1_555 1_555
O8 C19 1_555 1_555
C6 N2 1_555 1_555
O9 C19 1_555 1_555
C7 N2 1_555 1_555
C8 C7 1_555 1_555
H10 C8 1_555 1_555
C9 C8 1_555 1_555
H11 C9 1_555 1_555
C10 N3 1_555 1_555
C11 C10 1_555 1_555
H12 C11 1_555 1_555
C12 C7 1_555 1_555
H13 C12 1_555 1_555
C13 N3 1_555 1_555
C14 C13 1_555 1_555
C15 C14 1_555 1_555
H14 C15 1_555 1_555
C16 N4 1_555 1_555
H15 C16 1_555 1_555
C17 N4 1_555 1_555
H16 C17 1_555 1_555
C18 C14 1_555 1_555
H17 C18 1_555 1_555
C19 C20 1_555 1_555
C20 C21 1_555 1_555
C21 H18 1_555 1_555
C22 C21 1_555 1_555
H19 C22 1_555 1_555
C23 C22 1_555 1_555
C24 C23 1_555 1_555
H20 C24 1_555 1_555
C25 C20 1_555 1_555
H21 C25 1_555 1_555
C26 O5 1_555 1_555
C27 C26 1_555 1_555
C28 C27 1_555 1_555
H22 C28 1_555 1_555
C29 C28 1_555 1_555
H23 C29 1_555 1_555
C30 O1 1_555 1_555
C31 C30 1_555 1_555
H24 C31 1_555 1_555
C32 C27 1_555 1_555
H25 C32 1_555 1_555
O1A C23A 1_555 1_555
N1A Co2 1_555 1_555
C1A N1A 1_555 1_555
H1A C1A 1_555 1_555
O3A C26A 1_555 1_555
N2A H3A 1_555 1_555
C2A C1A 1_555 1_555
H4A C2A 1_555 1_555
O4A Co2 1_555 1_555
H5A O4A 1_555 1_555
H6A O4A 1_555 1_555
O5A Co2 1_555 1_555
N3A H7A 1_555 1_555
C3A C2A 1_555 1_555
O6A C6A 1_555 1_555
N4A C16A 1_555 1_555
C4A C3A 1_555 1_555
H8A C4A 1_555 1_555
O7A C13A 1_555 1_555
C5A N1A 1_555 1_555
H9A C5A 1_555 1_555
O8A C19A 1_555 1_555
C6A N2A 1_555 1_555
O9A C19A 1_555 1_555
C7A N2A 1_555 1_555
C8A C7A 1_555 1_555
H10A C8A 1_555 1_555
C9A C8A 1_555 1_555
H11A C9A 1_555 1_555
C10A N3A 1_555 1_555
C11A C10A 1_555 1_555
H12A C11A 1_555 1_555
C12A C7A 1_555 1_555
H13A C12A 1_555 1_555
C13A N3A 1_555 1_555
C14A C13A 1_555 1_555
C15A C14A 1_555 1_555
H14A C15A 1_555 1_555
C16A C15A 1_555 1_555
H15A C16A 1_555 1_555
C17A N4A 1_555 1_555
H16A C17A 1_555 1_555
C18A C14A 1_555 1_555
H17A C18A 1_555 1_555
C19A C20A 1_555 1_555
C20A C21A 1_555 1_555
C21A H18A 1_555 1_555
C22A C21A 1_555 1_555
H19A C22A 1_555 1_555
C23A C22A 1_555 1_555
C24A C23A 1_555 1_555
H20A C24A 1_555 1_555
C25A C20A 1_555 1_555
H21A C25A 1_555 1_555
C26A O5A 1_555 1_555
C27A C26A 1_555 1_555
C28A C27A 1_555 1_555
H22A C28A 1_555 1_555
C29A C28A 1_555 1_555
H23A C29A 1_555 1_555
C30A O1A 1_555 1_555
C31A C30A 1_555 1_555
H24A C31A 1_555 1_555
C32A C27A 1_555 1_555
H25A C32A 1_555 1_555
O2A Co1 1_555 1_555
H2A O2A 1_555 1_555
Co1_2 O8A 1_555 1_555
Co1_3 N4A 1_555 1_555
Co1_4 O8 1_555 1_555
N4A_2 Co1 1_555 1_555
O8_2 Co1 1_555 1_555
O8A_2 Co1 1_555 1_555
C3 C6 1_555 1_555
C4 C5 1_555 1_555
C9 C10 1_555 1_555
C11 C12 1_555 1_555
C15 C16 1_555 1_555
C17 C18 1_555 1_555
C24 C25 1_555 1_555
C29 C30 1_555 1_555
C31 C32 1_555 1_555
C3A C6A 1_555 1_555
C4A C5A 1_555 1_555
C9A C10A 1_555 1_555
C11A C12A 1_555 1_555
C17A C18A 1_555 1_555
C24A C25A 1_555 1_555
C29A C30A 1_555 1_555
C31A C32A 1_555 1_555

#END
