
#######################################################################
#
#                 Cambridge Crystallographic Data Centre
#                                CCDC 
#
#######################################################################
#
# If this CIF has been generated from an entry in the Cambridge 
# Structural Database, then it will include bibliographic, chemical, 
# crystal, experimental, refinement or atomic coordinate data resulting 
# from the CCDC's data processing and validation procedures.
#
#######################################################################

data_DULCIY
_symmetry_cell_setting           triclinic
_symmetry_space_group_name_H-M   'P -1'
_symmetry_Int_Tables_number      2
_space_group_name_Hall           '-P 1'
loop_
_symmetry_equiv_pos_site_id
_symmetry_equiv_pos_as_xyz
1 x,y,z
2 -x,-y,-z
_cell_length_a                   10.0653(5)
_cell_length_b                   11.3373(9)
_cell_length_c                   11.7274(7)
_cell_angle_alpha                117.625(7)
_cell_angle_beta                 92.949(5)
_cell_angle_gamma                102.780(6)
_cell_volume                     1137.8
loop_
_atom_site_label
_atom_site_type_symbol
_atom_site_fract_x
_atom_site_fract_y
_atom_site_fract_z
Zn1 Zn 0.26632(4) 0.35012(3) 0.17046(3)
C1 C 0.0850(4) 0.5004(4) 0.2835(3)
C2 C 0.0265(4) 0.6242(4) 0.3319(4)
H1 H 0.0948 0.7048 0.4008
H2 H -0.0546 0.6065 0.3690
C3 C -0.0135(4) 0.6559(4) 0.2241(4)
H3 H -0.0487 0.7365 0.2623
H4 H 0.0697 0.6807 0.1926
C4 C -0.1196(4) 0.5414(4) 0.1082(4)
H5 H -0.1270 0.5686 0.0415
H6 H -0.0871 0.4590 0.0720
C5 C -0.2583(4) 0.5066(4) 0.1389(4)
H7 H -0.2923 0.5881 0.1722
H8 H -0.2506 0.4822 0.2076
C6 C -0.3653(4) 0.3856(4) 0.0201(4)
H9 H -0.3899 0.4173 -0.0400
H10 H -0.3234 0.3111 -0.0257
C7 C -0.4939(4) 0.3314(4) 0.0598(3)
C8 C -0.0074(4) 0.1608(4) -0.0019(3)
H11 H -0.0582 0.2070 0.0599
C9 C -0.0614(4) 0.0523(3) -0.1210(3)
H12 H -0.1549 0.0099 -0.1571
C10 C 0.1621(4) 0.1030(3) -0.0949(3)
H13 H 0.2512 0.1007 -0.1114
C11 C 0.0399(4) -0.0940(3) -0.3134(3)
H14 H -0.0360 -0.1740 -0.3331
H15 H 0.1248 -0.1218 -0.3202
C12 C 0.0181(4) -0.0464(3) -0.4108(3)
C13 C 0.1311(4) 0.0082(3) -0.4524(3)
H16 H 0.2200 0.0134 -0.4207
C14 C -0.1120(4) -0.0542(3) -0.4605(3)
H17 H -0.1885 -0.0915 -0.4345
C15 C 0.2997(4) 0.3820(3) 0.4453(3)
H18 H 0.2298 0.4254 0.4708
C16 C 0.3852(4) 0.3640(3) 0.5235(3)
H19 H 0.3857 0.3923 0.6118
C17 C 0.4357(4) 0.2775(3) 0.3296(3)
H20 H 0.4800 0.2347 0.2601
C18 C 0.5849(4) 0.2569(4) 0.4920(4)
H21 H 0.6318 0.3304 0.5786
H22 H 0.6512 0.2477 0.4332
C19 C 0.5385(3) 0.1243(3) 0.4957(3)
C20 C 0.5623(4) 0.1220(4) 0.6117(3)
H23 H 0.6037 0.2043 0.6884
C21 C 0.4745(4) 0.0001(4) 0.3851(3)
H24 H 0.4557 -0.0010 0.3061
N1 N 0.1341(3) 0.1932(3) 0.0150(2)
N2 N 0.0480(3) 0.0163(3) -0.1788(2)
N3 N 0.3312(3) 0.3265(3) 0.3217(2)
N4 N 0.4710(3) 0.2963(3) 0.4489(3)
O1 O 0.1949(2) 0.5121(2) 0.2349(2)
O2 O 0.0302(3) 0.3979(3) 0.2919(3)
O3 O -0.5604(3) 0.4177(3) 0.1217(2)
O4 O -0.5319(3) 0.2076(3) 0.0318(3)
C8A C 0.0074(4) -0.1608(4) -0.9981(3)
H11A H 0.0582 -0.2070 -1.0599
C9A C 0.0614(4) -0.0523(3) -0.8790(3)
H12A H 0.1549 -0.0099 -0.8429
C10A C -0.1621(4) -0.1030(3) -0.9051(3)
H13A H -0.2512 -0.1007 -0.8886
C11A C -0.0399(4) 0.0940(3) -0.6866(3)
H14A H 0.0360 0.1740 -0.6669
H15A H -0.1248 0.1218 -0.6798
C12A C -0.0181(4) 0.0464(3) -0.5892(3)
C13A C -0.1311(4) -0.0082(3) -0.5476(3)
H16A H -0.2200 -0.0134 -0.5793
C14A C 0.1120(4) 0.0542(3) -0.5395(3)
H17A H 0.1885 0.0915 -0.5655
N1A N -0.1341(3) -0.1932(3) -1.0150(2)
N2A N -0.0480(3) -0.0163(3) -0.8212(2)
C15A C 0.7003(4) -0.3820(3) 0.5547(3)
H18A H 0.7702 -0.4254 0.5292
C16A C 0.6148(4) -0.3640(3) 0.4765(3)
H19A H 0.6143 -0.3923 0.3882
C17A C 0.5643(4) -0.2775(3) 0.6704(3)
H20A H 0.5200 -0.2347 0.7399
C18A C 0.4151(4) -0.2569(4) 0.5080(4)
H21A H 0.3682 -0.3304 0.4214
H22A H 0.3488 -0.2477 0.5668
C19A C 0.4615(3) -0.1243(3) 0.5043(3)
C20A C 0.4377(4) -0.1220(4) 0.3883(3)
H23A H 0.3963 -0.2043 0.3116
C21A C 0.5255(4) -0.0001(4) 0.6149(3)
H24A H 0.5443 0.0010 0.6939
N3A N 0.6688(3) -0.3265(3) 0.6783(2)
N4A N 0.5290(3) -0.2963(3) 0.5511(3)
Zn1A Zn -0.26632(4) -0.35012(3) -1.17046(3)
C1A C -0.0850(4) -0.5004(4) -1.2835(3)
C2A C -0.0265(4) -0.6242(4) -1.3319(4)
H1A H -0.0948 -0.7048 -1.4008
H2A H 0.0546 -0.6065 -1.3690
C3A C 0.0135(4) -0.6559(4) -1.2241(4)
H3A H 0.0487 -0.7365 -1.2623
H4A H -0.0697 -0.6807 -1.1926
C4A C 0.1196(4) -0.5414(4) -1.1082(4)
H5A H 0.1270 -0.5686 -1.0415
H6A H 0.0871 -0.4590 -1.0720
C5A C 0.2583(4) -0.5066(4) -1.1389(4)
H7A H 0.2923 -0.5881 -1.1722
H8A H 0.2506 -0.4822 -1.2076
C6A C 0.3653(4) -0.3856(4) -1.0201(4)
H9A H 0.3899 -0.4173 -0.9600
H10A H 0.3234 -0.3111 -0.9743
C7A C 0.4939(4) -0.3314(4) -1.0598(3)
O1A O -0.1949(2) -0.5121(2) -1.2349(2)
O2A O -0.0302(3) -0.3979(3) -1.2919(3)
O3A O 0.5604(3) -0.4177(3) -1.1217(2)
O4A O 0.5319(3) -0.2076(3) -1.0318(3)
Zn1_2 Zn -0.73368(4) 0.35012(3) 0.17046(3)
Zn1A_2 Zn 0.73368(4) -0.35012(3) -1.17046(3)
Zn1A_3 Zn 0.73368(4) -0.35012(3) 0.82954(3)
N3A_2 N -0.3312(3) -0.3265(3) -1.3217(2)
O3_2 O 0.4396(3) 0.4177(3) 0.1217(2)
O3A_2 O -0.4396(3) -0.4177(3) -1.1217(2)
O5 O -0.2503(4) 0.2551(4) 0.2557(4)
H25 H -0.2737 0.2163 0.1731
H26 H -0.1679 0.3077 0.2818
O6 O -0.3462(4) 0.0520(4) -0.0291(5)
H27 H -0.4176 0.0754 -0.0425
H28 H -0.3722 -0.0139 -0.0122
loop_
_geom_bond_atom_site_label_1
_geom_bond_atom_site_label_2
_geom_bond_site_symmetry_1
_geom_bond_site_symmetry_2
Zn1 N1 1_555 1_555
C1 C2 1_555 1_555
C2 H1 1_555 1_555
H2 C2 1_555 1_555
C3 C2 1_555 1_555
H3 C3 1_555 1_555
H4 C3 1_555 1_555
C4 C3 1_555 1_555
H5 C4 1_555 1_555
H6 C4 1_555 1_555
C5 C4 1_555 1_555
H7 C5 1_555 1_555
H8 C5 1_555 1_555
C6 C5 1_555 1_555
H9 C6 1_555 1_555
H10 C6 1_555 1_555
C7 C6 1_555 1_555
C8 H11 1_555 1_555
C9 C8 1_555 1_555
H12 C9 1_555 1_555
C10 H13 1_555 1_555
C11 H14 1_555 1_555
H15 C11 1_555 1_555
C12 C11 1_555 1_555
C13 C12 1_555 1_555
H16 C13 1_555 1_555
C14 C12 1_555 1_555
H17 C14 1_555 1_555
C15 H18 1_555 1_555
C16 C15 1_555 1_555
H19 C16 1_555 1_555
C17 H20 1_555 1_555
C18 H21 1_555 1_555
H22 C18 1_555 1_555
C19 C18 1_555 1_555
C20 C19 1_555 1_555
H23 C20 1_555 1_555
C21 C19 1_555 1_555
H24 C21 1_555 1_555
N1 C8 1_555 1_555
N2 C9 1_555 1_555
N3 Zn1 1_555 1_555
N4 C16 1_555 1_555
O1 Zn1 1_555 1_555
O2 C1 1_555 1_555
O3 C7 1_555 1_555
O4 C7 1_555 1_555
O5 H25 1_555 1_555
H26 O5 1_555 1_555
O6 H27 1_555 1_555
H28 O6 1_555 1_555
C8A H11A 1_555 1_555
C9A C8A 1_555 1_555
H12A C9A 1_555 1_555
C10A H13A 1_555 1_555
C11A H14A 1_555 1_555
H15A C11A 1_555 1_555
C12A C11A 1_555 1_555
C13A C14 1_555 1_555
H16A C13A 1_555 1_555
C14A C13 1_555 1_555
H17A C14A 1_555 1_555
N1A C8A 1_555 1_555
N2A C9A 1_555 1_555
C15A H18A 1_555 1_555
C16A C15A 1_555 1_555
H19A C16A 1_555 1_555
C17A H20A 1_555 1_555
C18A H21A 1_555 1_555
H22A C18A 1_555 1_555
C19A C18A 1_555 1_555
C20A C21 1_555 1_555
H23A C20A 1_555 1_555
C21A C20 1_555 1_555
H24A C21A 1_555 1_555
N3A C15A 1_555 1_555
N4A C16A 1_555 1_555
Zn1A N1A 1_555 1_555
C1A C2A 1_555 1_555
C2A H1A 1_555 1_555
H2A C2A 1_555 1_555
C3A C2A 1_555 1_555
H3A C3A 1_555 1_555
H4A C3A 1_555 1_555
C4A C3A 1_555 1_555
H5A C4A 1_555 1_555
H6A C4A 1_555 1_555
C5A C4A 1_555 1_555
H7A C5A 1_555 1_555
H8A C5A 1_555 1_555
C6A C5A 1_555 1_555
H9A C6A 1_555 1_555
H10A C6A 1_555 1_555
C7A C6A 1_555 1_555
O1A Zn1A 1_555 1_555
O2A C1A 1_555 1_555
O3A C7A 1_555 1_555
O4A C7A 1_555 1_555
Zn1_2 O3 1_555 1_555
Zn1A_2 O3A 1_555 1_555
Zn1A_3 N3A 1_555 1_555
N3A_2 Zn1A 1_555 1_555
O3_2 Zn1 1_555 1_555
O3A_2 Zn1A 1_555 1_555
C1 O1 1_555 1_555
C10 N1 1_555 1_555
C10 N2 1_555 1_555
C11 N2 1_555 1_555
C15 N3 1_555 1_555
C17 N3 1_555 1_555
C17 N4 1_555 1_555
C18 N4 1_555 1_555
C10A N1A 1_555 1_555
C10A N2A 1_555 1_555
C11A N2A 1_555 1_555
C12A C13A 1_555 1_555
C12A C14A 1_555 1_555
C17A N3A 1_555 1_555
C17A N4A 1_555 1_555
C18A N4A 1_555 1_555
C19A C20A 1_555 1_555
C19A C21A 1_555 1_555
C1A O1A 1_555 1_555

#END
