
#######################################################################
#
#                 Cambridge Crystallographic Data Centre
#                                CCDC 
#
#######################################################################
#
# If this CIF has been generated from an entry in the Cambridge 
# Structural Database, then it will include bibliographic, chemical, 
# crystal, experimental, refinement or atomic coordinate data resulting 
# from the CCDC's data processing and validation procedures.
#
#######################################################################

data_DULDOF
_symmetry_cell_setting           triclinic
_symmetry_space_group_name_H-M   'P -1'
_symmetry_Int_Tables_number      2
_space_group_name_Hall           '-P 1'
loop_
_symmetry_equiv_pos_site_id
_symmetry_equiv_pos_as_xyz
1 x,y,z
2 -x,-y,-z
_cell_length_a                   5.9593(3)
_cell_length_b                   7.6885(3)
_cell_length_c                   13.1666(7)
_cell_angle_alpha                104.351(3)
_cell_angle_beta                 99.536(3)
_cell_angle_gamma                91.682(3)
_cell_volume                     574.8
loop_
_atom_site_label
_atom_site_type_symbol
_atom_site_fract_x
_atom_site_fract_y
_atom_site_fract_z
Ag1 Ag 0.68329(3) 0.42403(2) 0.444708(15)
Co1 Co 0.02695(5) -0.12559(4) 0.23083(2)
N1 N 0.5508(4) 0.3704(3) 0.1960(2)
O1 O 0.4326(3) 0.1931(2) 0.43554(15)
O2 O 0.1082(3) 0.3266(2) 0.45380(13)
O3 O 0.7075(4) 0.3149(3) 0.25099(17)
O4 O 0.4093(4) 0.4582(3) 0.2416(3)
O5 O 0.5414(6) 0.3391(6) 0.1003(2)
C1 C -0.1177(5) -0.0537(5) 0.0979(2)
H1 H -0.2620 -0.0087 0.0860
C2 C -0.0731(6) -0.2358(5) 0.0723(2)
H2 H -0.1803 -0.3345 0.0407
C3 C 0.1670(7) -0.2423(5) 0.1034(2)
H3 H 0.2479 -0.3466 0.0960
C4 C 0.2593(5) -0.0656(5) 0.1469(2)
H4 H 0.4144 -0.0303 0.1741
C5 C 0.0853(6) 0.0496(4) 0.1436(2)
H5 H 0.1020 0.1758 0.1680
C6 C -0.1476(4) -0.0276(3) 0.35119(17)
H6 H -0.2583 0.0572 0.3524
C7 C -0.1894(4) -0.2171(3) 0.3141(2)
H7 H -0.3328 -0.2798 0.2854
C8 C 0.0223(4) -0.2963(3) 0.3274(2)
H8 H 0.0432 -0.4202 0.3098
C9 C 0.1960(4) -0.1559(3) 0.37188(18)
H9 H 0.3527 -0.1702 0.3889
C10 C 0.0919(4) 0.0114(3) 0.38639(16)
C11 C 0.2207(4) 0.1932(3) 0.42778(16)
Ag1_2 Ag -0.31671(3) 0.42403(2) 0.444708(15)
Ag1A Ag 0.31671(3) 0.57597(2) 0.555292(15)
O2_2 O 1.1082(3) 0.3266(2) 0.45380(13)
O2A O 0.8918(3) 0.6734(2) 0.54620(13)
loop_
_geom_bond_atom_site_label_1
_geom_bond_atom_site_label_2
_geom_bond_site_symmetry_1
_geom_bond_site_symmetry_2
Ag1 O1 1_555 1_555
Co1 C1 1_555 1_555
N1 O3 1_555 1_555
O1 C11 1_555 1_555
O2 C11 1_555 1_555
O3 Ag1 1_555 1_555
O4 N1 1_555 1_555
O5 N1 1_555 1_555
C1 H1 1_555 1_555
C2 Co1 1_555 1_555
H2 C2 1_555 1_555
C3 Co1 1_555 1_555
H3 C3 1_555 1_555
C4 Co1 1_555 1_555
H4 C4 1_555 1_555
C5 Co1 1_555 1_555
H5 C5 1_555 1_555
C6 Co1 1_555 1_555
H6 C6 1_555 1_555
C7 Co1 1_555 1_555
H7 C7 1_555 1_555
C8 Co1 1_555 1_555
H8 C8 1_555 1_555
C9 Co1 1_555 1_555
H9 C9 1_555 1_555
C10 Co1 1_555 1_555
C11 C10 1_555 1_555
Ag1_2 O2 1_555 1_555
Ag1A O2 1_555 1_555
O2_2 Ag1 1_555 1_555
O2A Ag1 1_555 1_555
C1 C2 1_555 1_555
C1 C5 1_555 1_555
C2 C3 1_555 1_555
C3 C4 1_555 1_555
C4 C5 1_555 1_555
C6 C7 1_555 1_555
C6 C10 1_555 1_555
C7 C8 1_555 1_555
C8 C9 1_555 1_555
C9 C10 1_555 1_555

#END
