
#######################################################################
#
#                 Cambridge Crystallographic Data Centre
#                                CCDC 
#
#######################################################################
#
# If this CIF has been generated from an entry in the Cambridge 
# Structural Database, then it will include bibliographic, chemical, 
# crystal, experimental, refinement or atomic coordinate data resulting 
# from the CCDC's data processing and validation procedures.
#
#######################################################################

data_DULDIZ
_symmetry_cell_setting           triclinic
_symmetry_space_group_name_H-M   'P -1'
_symmetry_Int_Tables_number      2
_space_group_name_Hall           '-P 1'
loop_
_symmetry_equiv_pos_site_id
_symmetry_equiv_pos_as_xyz
1 x,y,z
2 -x,-y,-z
_cell_length_a                   5.9618(2)
_cell_length_b                   8.841(1)
_cell_length_c                   13.0954(5)
_cell_angle_alpha                107.198(2)
_cell_angle_beta                 98.047(2)
_cell_angle_gamma                91.391(2)
_cell_volume                     651.307
loop_
_atom_site_label
_atom_site_type_symbol
_atom_site_fract_x
_atom_site_fract_y
_atom_site_fract_z
Ag1 Ag 0.20640(8) 0.56895(6) 0.48496(5)
Co1 Co -0.43815(13) 0.83645(9) 0.23770(6)
O1 O -0.0471(7) 0.7334(5) 0.4518(4)
O2 O -0.3814(7) 0.6139(5) 0.4547(4)
C1 C -0.4100(17) 0.6150(10) 0.1377(7)
H1 H -0.4140 0.5214 0.1577
C2 C -0.5908(14) 0.6789(12) 0.0968(7)
H2 H -0.7412 0.6349 0.0821
C3 C -0.522(2) 0.8193(13) 0.0796(6)
H3 H -0.6151 0.8877 0.0527
C4 C -0.280(2) 0.8386(12) 0.1114(8)
H4 H -0.1811 0.9220 0.1097
C5 C -0.2230(15) 0.7080(12) 0.1450(7)
H5 H -0.0744 0.6873 0.1695
C6 C -0.6167(10) 0.8392(8) 0.3602(5)
H6 H -0.7291 0.7629 0.3604
C7 C -0.6526(12) 0.9747(9) 0.3253(6)
H7 H -0.7938 1.0034 0.2976
C8 C -0.4392(13) 1.0608(8) 0.3391(6)
H8 H -0.4155 1.1559 0.3225
C9 C -0.2696(11) 0.9775(7) 0.3821(5)
H9 H -0.1134 1.0077 0.3992
C10 C -0.3776(10) 0.8390(7) 0.3952(5)
C11 C -0.2586(10) 0.7176(7) 0.4370(4)
Ag1_2 Ag -0.79360(8) 0.56895(6) 0.48496(5)
Ag1A Ag -0.20640(8) 0.43105(6) 0.51504(5)
O2_2 O 0.6186(7) 0.6139(5) 0.4547(4)
O2A O 0.3814(7) 0.3861(5) 0.5453(4)
P1 P 0.0696(3) 0.3011(2) 0.19251(15)
F1 F 0.0332(17) 0.4756(7) 0.2574(5)
F2 F 0.1166(15) 0.1269(7) 0.1295(6)
F3 F 0.3275(13) 0.3337(12) 0.2330(11)
F4 F -0.1903(11) 0.2662(11) 0.1533(8)
F5 F 0.0418(13) 0.2419(8) 0.2932(5)
F6 F 0.0830(14) 0.3616(7) 0.0913(5)
loop_
_geom_bond_atom_site_label_1
_geom_bond_atom_site_label_2
_geom_bond_site_symmetry_1
_geom_bond_site_symmetry_2
Ag1 O1 1_555 1_555
Co1 C1 1_555 1_555
O1 C11 1_555 1_555
O2 C11 1_555 1_555
C1 H1 1_555 1_555
C2 Co1 1_555 1_555
H2 C2 1_555 1_555
C3 Co1 1_555 1_555
H3 C3 1_555 1_555
C4 Co1 1_555 1_555
H4 C4 1_555 1_555
C5 Co1 1_555 1_555
H5 C5 1_555 1_555
C6 Co1 1_555 1_555
H6 C6 1_555 1_555
C7 Co1 1_555 1_555
H7 C7 1_555 1_555
C8 Co1 1_555 1_555
H8 C8 1_555 1_555
C9 Co1 1_555 1_555
H9 C9 1_555 1_555
C10 Co1 1_555 1_555
C11 C10 1_555 1_555
P1 F1 1_555 1_555
F2 P1 1_555 1_555
F3 P1 1_555 1_555
F4 P1 1_555 1_555
F5 P1 1_555 1_555
F6 P1 1_555 1_555
Ag1_2 O2 1_555 1_555
Ag1A O2 1_555 1_555
O2_2 Ag1 1_555 1_555
O2A Ag1 1_555 1_555
C1 C2 1_555 1_555
C1 C5 1_555 1_555
C2 C3 1_555 1_555
C3 C4 1_555 1_555
C4 C5 1_555 1_555
C6 C7 1_555 1_555
C6 C10 1_555 1_555
C7 C8 1_555 1_555
C8 C9 1_555 1_555
C9 C10 1_555 1_555

#END
