
#######################################################################
#
#                 Cambridge Crystallographic Data Centre
#                                CCDC 
#
#######################################################################
#
# If this CIF has been generated from an entry in the Cambridge 
# Structural Database, then it will include bibliographic, chemical, 
# crystal, experimental, refinement or atomic coordinate data resulting 
# from the CCDC's data processing and validation procedures.
#
#######################################################################

data_DULDUL
_symmetry_cell_setting           monoclinic
_symmetry_space_group_name_H-M   'C 2'
_symmetry_Int_Tables_number      5
_space_group_name_Hall           'C 2y'
loop_
_symmetry_equiv_pos_site_id
_symmetry_equiv_pos_as_xyz
1 x,y,z
2 -x,y,-z
3 1/2+x,1/2+y,z
4 1/2-x,1/2+y,-z
_cell_length_a                   28.8778(3)
_cell_length_b                   7.1853(7)
_cell_length_c                   19.3200(9)
_cell_angle_alpha                90
_cell_angle_beta                 115.195(3)
_cell_angle_gamma                90
_cell_volume                     3627.43
loop_
_atom_site_label
_atom_site_type_symbol
_atom_site_fract_x
_atom_site_fract_y
_atom_site_fract_z
Zn1 Zn 0.70286(8) 0.9578(3) 0.89070(12)
Co1 Co 0.67305(9) 1.0288(2) 0.59362(13)
Co2 Co 0.52484(8) 0.6473(3) 0.75471(13)
Co3 Co 0.83919(9) 0.5848(2) 0.89956(14)
O1 O 0.7248(4) 1.0367(16) 0.8130(6)
O2 O 0.6424(5) 1.1084(17) 0.7577(6)
O3 O 0.6531(5) 0.772(2) 0.8846(9)
O4 O 0.6649(5) 0.646(2) 0.7884(9)
O5 O 0.7631(6) 0.876(2) 0.9812(6)
O6 O 0.8161(8) 0.683(2) 1.0681(8)
C1 C 0.6095(10) 0.876(3) 0.5531(13)
H1 H 0.5785 0.9101 0.5549
C2 C 0.6222(14) 0.918(3) 0.4925(15)
H2 H 0.6016 0.9805 0.4471
C3 C 0.6705(14) 0.849(3) 0.5119(17)
H3 H 0.6887 0.8578 0.4817
C4 C 0.6885(7) 0.763(3) 0.5847(17)
H4 H 0.7205 0.7055 0.6114
C5 C 0.6484(9) 0.780(2) 0.6097(12)
H5 H 0.6487 0.7338 0.6555
C6 C 0.6567(6) 1.273(2) 0.6288(11)
H6 H 0.6243 1.3096 0.6244
C7 C 0.6754(9) 1.304(3) 0.5739(14)
H7 H 0.6582 1.3641 0.5267
C8 C 0.7239(8) 1.228(3) 0.6024(12)
H8 H 0.7458 1.2292 0.5778
C9 C 0.7353(6) 1.149(2) 0.6761(10)
H9 H 0.7661 1.0881 0.7066
C10 C 0.6962(7) 1.1710(18) 0.6961(11)
C11 C 0.6834(7) 1.095(2) 0.7551(10)
C12 C 0.5058(11) 0.904(4) 0.7787(17)
H10 H 0.5158 0.9546 0.8279
C13 C 0.4593(10) 0.795(3) 0.730(2)
H11 H 0.4324 0.7675 0.7438
C14 C 0.4613(12) 0.742(4) 0.6646(18)
H12 H 0.4368 0.6667 0.6268
C15 C 0.5052(14) 0.815(4) 0.6615(17)
H13 H 0.5153 0.8030 0.6215
C16 C 0.5305(8) 0.910(2) 0.7295(18)
H14 H 0.5615 0.9736 0.7419
C17 C 0.5673(6) 0.525(2) 0.8608(11)
H15 H 0.5768 0.5756 0.9099
C18 C 0.5237(7) 0.424(3) 0.8183(12)
H16 H 0.4976 0.3952 0.8334
C19 C 0.5247(9) 0.367(2) 0.7448(14)
H17 H 0.5000 0.2944 0.7062
C20 C 0.5688(7) 0.440(2) 0.7440(9)
H18 H 0.5788 0.4257 0.7040
C21 C 0.5963(6) 0.539(2) 0.8126(10)
C22 C 0.6426(7) 0.660(3) 0.8274(14)
C23 C 0.8220(10) 0.318(3) 0.9123(13)
H19 H 0.8328 0.2522 0.9587
C24 C 0.8478(9) 0.330(2) 0.8650(15)
H20 H 0.8793 0.2730 0.8749
C25 C 0.8196(8) 0.438(3) 0.8015(13)
H21 H 0.8280 0.4630 0.7606
C26 C 0.7760(6) 0.504(2) 0.8091(11)
H22 H 0.7514 0.5857 0.7753
C27 C 0.7753(7) 0.427(3) 0.8751(12)
H23 H 0.7496 0.4422 0.8923
C28 C 0.8875(8) 0.668(4) 1.0024(13)
H24 H 0.9003 0.5925 1.0463
C29 C 0.9095(7) 0.699(3) 0.9505(15)
H25 H 0.9408 0.6513 0.9543
C30 C 0.8750(8) 0.819(2) 0.8903(13)
H26 H 0.8791 0.8598 0.8470
C31 C 0.8371(7) 0.860(2) 0.9075(11)
H27 H 0.8100 0.9389 0.8772
C32 C 0.8400(7) 0.780(2) 0.9725(11)
C33 C 0.8006(10) 0.779(3) 1.0089(11)
Zn1C Zn 0.79714(8) 0.4578(3) 1.10930(12)
O6C O 0.6839(8) 1.183(2) 0.9319(8)
P1 P 0.5000 0.3561(15) 0.5000
F1 F 0.5308(8) 0.214(3) 0.5626(12)
F2 F 0.4575(6) 0.349(4) 0.5271(11)
F3 F 0.5308(6) 0.492(3) 0.5641(10)
F1A F 0.4692(8) 0.214(3) 0.4374(12)
F2A F 0.5425(6) 0.349(4) 0.4729(11)
F3A F 0.4692(6) 0.492(3) 0.4359(10)
P2 P 0.5000 0.6971(10) 1.0000
F4 F 0.4843(10) 0.551(4) 0.9387(15)
F5 F 0.4833(10) 0.844(3) 0.9377(15)
F6 F 0.5539(5) 0.700(3) 0.9987(8)
F4A F 0.5157(10) 0.551(4) 1.0613(15)
F5A F 0.5167(10) 0.844(3) 1.0623(15)
F6A F 0.4461(5) 0.700(3) 1.0013(8)
P3 P 0.3517(2) 0.3144(10) 0.6581(3)
F7 F 0.3482(15) 0.113(3) 0.648(3)
F8 F 0.3508(15) 0.523(3) 0.668(2)
F9 F 0.3885(6) 0.325(3) 0.6183(9)
F10 F 0.3146(5) 0.3018(18) 0.6997(8)
F11 F 0.3995(7) 0.302(6) 0.7345(9)
F12 F 0.3065(8) 0.329(6) 0.5803(12)
loop_
_geom_bond_atom_site_label_1
_geom_bond_atom_site_label_2
_geom_bond_site_symmetry_1
_geom_bond_site_symmetry_2
Zn1 O1 1_555 1_555
Co1 C1 1_555 1_555
Co2 C12 1_555 1_555
Co3 C23 1_555 1_555
O1 C11 1_555 1_555
O2 C11 1_555 1_555
O3 Zn1 1_555 1_555
O4 C22 1_555 1_555
O5 Zn1 1_555 1_555
O6 C33 1_555 1_555
C1 H1 1_555 1_555
C2 Co1 1_555 1_555
H2 C2 1_555 1_555
C3 Co1 1_555 1_555
H3 C3 1_555 1_555
C4 Co1 1_555 1_555
H4 C4 1_555 1_555
C5 Co1 1_555 1_555
H5 C5 1_555 1_555
C6 Co1 1_555 1_555
H6 C6 1_555 1_555
C7 Co1 1_555 1_555
H7 C7 1_555 1_555
C8 Co1 1_555 1_555
H8 C8 1_555 1_555
C9 Co1 1_555 1_555
H9 C9 1_555 1_555
C10 Co1 1_555 1_555
C11 C10 1_555 1_555
C12 H10 1_555 1_555
C13 Co2 1_555 1_555
H11 C13 1_555 1_555
C14 Co2 1_555 1_555
H12 C14 1_555 1_555
C15 Co2 1_555 1_555
H13 C15 1_555 1_555
C16 Co2 1_555 1_555
H14 C16 1_555 1_555
C17 Co2 1_555 1_555
H15 C17 1_555 1_555
C18 Co2 1_555 1_555
H16 C18 1_555 1_555
C19 Co2 1_555 1_555
H17 C19 1_555 1_555
C20 Co2 1_555 1_555
H18 C20 1_555 1_555
C21 Co2 1_555 1_555
C22 O3 1_555 1_555
C23 H19 1_555 1_555
C24 Co3 1_555 1_555
H20 C24 1_555 1_555
C25 Co3 1_555 1_555
H21 C25 1_555 1_555
C26 Co3 1_555 1_555
H22 C26 1_555 1_555
C27 Co3 1_555 1_555
H23 C27 1_555 1_555
C28 Co3 1_555 1_555
H24 C28 1_555 1_555
C29 Co3 1_555 1_555
H25 C29 1_555 1_555
C30 Co3 1_555 1_555
H26 C30 1_555 1_555
C31 Co3 1_555 1_555
H27 C31 1_555 1_555
C32 Co3 1_555 1_555
C33 O5 1_555 1_555
P1 F1 1_555 1_555
F2 P1 1_555 1_555
F3 P1 1_555 1_555
P2 F4 1_555 1_555
F5 P2 1_555 1_555
F6 P2 1_555 1_555
P3 F7 1_555 1_555
F8 P3 1_555 1_555
F9 P3 1_555 1_555
F10 P3 1_555 1_555
F11 P3 1_555 1_555
F12 P3 1_555 1_555
Zn1C O6 1_555 1_555
O6C Zn1 1_555 1_555
F1A P1 1_555 1_555
F2A P1 1_555 1_555
F3A P1 1_555 1_555
F4A P2 1_555 1_555
F5A P2 1_555 1_555
F6A P2 1_555 1_555
C1 C2 1_555 1_555
C1 C5 1_555 1_555
C2 C3 1_555 1_555
C3 C4 1_555 1_555
C4 C5 1_555 1_555
C6 C7 1_555 1_555
C6 C10 1_555 1_555
C7 C8 1_555 1_555
C8 C9 1_555 1_555
C9 C10 1_555 1_555
C12 C13 1_555 1_555
C12 C16 1_555 1_555
C13 C14 1_555 1_555
C14 C15 1_555 1_555
C15 C16 1_555 1_555
C17 C18 1_555 1_555
C17 C21 1_555 1_555
C18 C19 1_555 1_555
C19 C20 1_555 1_555
C20 C21 1_555 1_555
C21 C22 1_555 1_555
C23 C24 1_555 1_555
C23 C27 1_555 1_555
C24 C25 1_555 1_555
C25 C26 1_555 1_555
C26 C27 1_555 1_555
C28 C29 1_555 1_555
C28 C32 1_555 1_555
C29 C30 1_555 1_555
C30 C31 1_555 1_555
C31 C32 1_555 1_555
C32 C33 1_555 1_555

#END
