
#######################################################################
#
#                 Cambridge Crystallographic Data Centre
#                                CCDC 
#
#######################################################################
#
# If this CIF has been generated from an entry in the Cambridge 
# Structural Database, then it will include bibliographic, chemical, 
# crystal, experimental, refinement or atomic coordinate data resulting 
# from the CCDC's data processing and validation procedures.
#
#######################################################################

data_DULHID
_symmetry_cell_setting           orthorhombic
_symmetry_space_group_name_H-M   'P c a 21'
_symmetry_Int_Tables_number      29
_space_group_name_Hall           'P 2c -2ac'
loop_
_symmetry_equiv_pos_site_id
_symmetry_equiv_pos_as_xyz
1 x,y,z
2 -x,-y,1/2+z
3 1/2-x,y,1/2+z
4 1/2+x,-y,z
_cell_length_a                   15.893(5)
_cell_length_b                   8.898(3)
_cell_length_c                   13.363(5)
_cell_angle_alpha                90
_cell_angle_beta                 90
_cell_angle_gamma                90
_cell_volume                     1889.74
loop_
_atom_site_label
_atom_site_type_symbol
_atom_site_fract_x
_atom_site_fract_y
_atom_site_fract_z
Co1 Co 0.19456(3) 0.35271(4) 0.91798(6)
O1 O 0.25078(18) 0.2622(3) 1.0404(2)
O2 O 0.1299(2) 0.1487(4) 1.0202(3)
O3 O 0.4212(2) 0.2002(5) 1.2333(3)
O4 O 0.29308(19) 0.2304(4) 1.2993(3)
N1 N 0.28464(18) 0.5084(3) 0.8775(2)
N2 N 0.38339(19) 0.6805(3) 0.8853(2)
N3 N 0.4943(2) 1.3478(3) 0.9410(3)
N4 N 0.59300(18) 1.5188(3) 0.9521(2)
C1 C 0.3232(2) 0.5190(4) 0.7861(3)
H1 H 0.3096 0.4622 0.7299
C2 C 0.3838(3) 0.6242(4) 0.7902(3)
H2 H 0.4192 0.6532 0.7383
C3 C 0.3212(2) 0.6087(4) 0.9361(3)
C4 C 0.2988(3) 0.6388(5) 1.0422(4)
H3 H 0.2541 0.7111 1.0449
H4 H 0.3471 0.6775 1.0768
H5 H 0.2808 0.5471 1.0734
C5 C 0.4395(2) 0.7990(4) 0.9230(4)
H6 H 0.4950 0.7859 0.8941
H7 H 0.4447 0.7895 0.9951
C6 C 0.4072(2) 0.9545(4) 0.8977(3)
H8 H 0.3539 0.9711 0.9312
H9 H 0.3977 0.9616 0.8262
C7 C 0.4696(2) 1.0749(4) 0.9298(4)
H10 H 0.4787 1.0681 1.0014
H11 H 0.5231 1.0574 0.8968
C8 C 0.4385(2) 1.2299(4) 0.9041(4)
H12 H 0.4335 1.2387 0.8320
H13 H 0.3830 1.2439 0.9327
C9 C 0.4902(3) 1.4070(5) 1.0364(3)
H14 H 0.4528 1.3796 1.0867
C10 C 0.5512(2) 1.5128(4) 1.0422(3)
H15 H 0.5629 1.5717 1.0979
C11 C 0.5569(2) 1.4183(4) 0.8926(3)
C12 C 0.5823(3) 1.3892(6) 0.7872(3)
H16 H 0.6138 1.4734 0.7624
H17 H 0.5329 1.3751 0.7469
H18 H 0.6165 1.3005 0.7844
C13 C 0.1986(2) 0.1614(4) 1.0645(4)
C14 C 0.2192(3) 0.0541(5) 1.1490(3)
H19 H 0.1875 0.0842 1.2077
H20 H 0.2002 -0.0456 1.1302
C15 C 0.3110(3) 0.0454(6) 1.1769(4)
H21 H 0.3203 -0.0488 1.2117
H22 H 0.3436 0.0418 1.1155
C16 C 0.3453(3) 0.1697(5) 1.2405(3)
Co1B Co 0.30544(3) 0.35271(4) 1.41798(6)
Co1C Co 0.69456(3) 1.64729(4) 0.91798(6)
O4B O 0.20692(19) 0.2304(4) 0.7993(3)
N4C N 0.09300(18) 0.4812(3) 0.9521(2)
O5 O 0.0049(3) 0.0898(7) 1.1722(4)
H23 H -0.024(6) -0.008(6) 1.174(10)
H24 H 0.035(14) 0.10(2) 1.109(9)
loop_
_geom_bond_atom_site_label_1
_geom_bond_atom_site_label_2
_geom_bond_site_symmetry_1
_geom_bond_site_symmetry_2
Co1 O1 1_555 1_555
O1 C13 1_555 1_555
O2 C13 1_555 1_555
O3 C16 1_555 1_555
O4 C16 1_555 1_555
N1 Co1 1_555 1_555
N2 C2 1_555 1_555
N3 C8 1_555 1_555
N4 C10 1_555 1_555
C1 N1 1_555 1_555
H1 C1 1_555 1_555
C2 C1 1_555 1_555
H2 C2 1_555 1_555
C3 N1 1_555 1_555
C4 C3 1_555 1_555
H3 C4 1_555 1_555
H4 C4 1_555 1_555
H5 C4 1_555 1_555
C5 N2 1_555 1_555
H6 C5 1_555 1_555
H7 C5 1_555 1_555
C6 C5 1_555 1_555
H8 C6 1_555 1_555
H9 C6 1_555 1_555
C7 C6 1_555 1_555
H10 C7 1_555 1_555
H11 C7 1_555 1_555
C8 C7 1_555 1_555
H12 C8 1_555 1_555
H13 C8 1_555 1_555
C9 N3 1_555 1_555
H14 C9 1_555 1_555
C10 C9 1_555 1_555
H15 C10 1_555 1_555
C11 N3 1_555 1_555
C12 C11 1_555 1_555
H16 C12 1_555 1_555
H17 C12 1_555 1_555
H18 C12 1_555 1_555
C13 C14 1_555 1_555
C14 H19 1_555 1_555
H20 C14 1_555 1_555
C15 C14 1_555 1_555
H21 C15 1_555 1_555
H22 C15 1_555 1_555
C16 C15 1_555 1_555
O5 H23 1_555 1_555
H24 O5 1_555 1_555
Co1B O4 1_555 1_555
Co1C N4 1_555 1_555
O4B Co1 1_555 1_555
N4C Co1 1_555 1_555
N2 C3 1_555 1_555
N4 C11 1_555 1_555

#END
