
#######################################################################
#
#                 Cambridge Crystallographic Data Centre
#                                CCDC 
#
#######################################################################
#
# If this CIF has been generated from an entry in the Cambridge 
# Structural Database, then it will include bibliographic, chemical, 
# crystal, experimental, refinement or atomic coordinate data resulting 
# from the CCDC's data processing and validation procedures.
#
#######################################################################

data_DULHUP
_symmetry_cell_setting           orthorhombic
_symmetry_space_group_name_H-M   'P c c a'
_symmetry_Int_Tables_number      54
_space_group_name_Hall           '-P 2a 2ac'
loop_
_symmetry_equiv_pos_site_id
_symmetry_equiv_pos_as_xyz
1 x,y,z
2 1/2-x,-y,z
3 1/2+x,-y,1/2-z
4 -x,y,1/2-z
5 -x,-y,-z
6 1/2+x,y,-z
7 1/2-x,y,1/2+z
8 x,-y,1/2+z
_cell_length_a                   13.8801(18)
_cell_length_b                   8.0347(13)
_cell_length_c                   13.3543(15)
_cell_angle_alpha                90
_cell_angle_beta                 90
_cell_angle_gamma                90
_cell_volume                     1489.3
loop_
_atom_site_label
_atom_site_type_symbol
_atom_site_fract_x
_atom_site_fract_y
_atom_site_fract_z
Co1 Co 0.7500 0.5000 0.226550(18)
O1 O 0.63370(6) 0.60613(13) 0.16622(8)
O2 O 0.64279(7) 0.36980(13) 0.08366(8)
N1 N 0.80132(7) 0.68425(13) 0.31852(8)
N2 N 0.81649(8) 0.86581(13) 0.44107(8)
C1 C 0.86701(10) 0.8048(2) 0.29069(12)
C2 C 0.87658(12) 0.91684(19) 0.36539(11)
C3 C 0.77231(11) 0.72638(16) 0.40898(10)
C4 C 0.79856(15) 0.9571(2) 0.53415(11)
C5 C 0.60199(11) 0.50349(14) 0.10012(12)
C6 C 0.51176(10) 0.5545(2) 0.04447(11)
H1 H 0.7248(19) 0.672(3) 0.444(2)
H2 H 0.5186(19) 0.665(3) 0.0267(16)
H3 H 0.8492(19) 1.044(4) 0.5358(17)
H4 H 0.8091(14) 0.883(3) 0.5888(17)
H5 H 0.8962(17) 0.798(2) 0.2334(16)
H6 H 0.907(2) 1.022(3) 0.367(3)
H7 H 0.459(2) 0.553(4) 0.092(2)
O1D O 0.36630(6) 0.39387(13) -0.16622(8)
O2D O 0.35721(7) 0.63020(13) -0.08366(8)
C5D C 0.39801(11) 0.49651(14) -0.10012(12)
C6D C 0.48824(10) 0.4455(2) -0.04447(11)
H2D H 0.4814(19) 0.335(3) -0.0267(16)
H7D H 0.541(2) 0.447(4) -0.092(2)
N1A N 0.69868(7) 1.31575(13) 0.31852(8)
N2A N 0.68351(8) 1.13419(13) 0.44107(8)
C1A C 0.63299(10) 1.1952(2) 0.29069(12)
C2A C 0.62342(12) 1.08316(19) 0.36539(11)
C3A C 0.72769(11) 1.27362(16) 0.40898(10)
C4A C 0.70144(15) 1.0429(2) 0.53415(11)
H1A H 0.7752(19) 1.328(3) 0.444(2)
H3A H 0.6508(19) 0.956(4) 0.5358(17)
H4A H 0.6909(14) 1.117(3) 0.5888(17)
H5A H 0.6038(17) 1.202(2) 0.2334(16)
H6A H 0.593(2) 0.978(3) 0.367(3)
Co1_2 Co 0.7500 1.5000 0.226550(18)
Co1D Co 0.2500 0.5000 -0.226550(18)
O1A O 0.86630(6) 0.39387(13) 0.16622(8)
N1A_2 N 0.69868(7) 0.31575(13) 0.31852(8)
O3 O 1.0000 1.1706(2) 0.2500
H8 H 0.953(2) 1.241(5) 0.224(2)
H8C H 1.047(2) 1.241(5) 0.276(2)
loop_
_geom_bond_atom_site_label_1
_geom_bond_atom_site_label_2
_geom_bond_site_symmetry_1
_geom_bond_site_symmetry_2
Co1 O1 1_555 1_555
O1 C5 1_555 1_555
O2 C5 1_555 1_555
N1 Co1 1_555 1_555
N2 C2 1_555 1_555
C1 N1 1_555 1_555
C2 C1 1_555 1_555
C3 N1 1_555 1_555
C4 N2 1_555 1_555
C5 C6 1_555 1_555
C6 H2 1_555 1_555
H1 C3 1_555 1_555
H3 C4 1_555 1_555
H4 C4 1_555 1_555
H5 C1 1_555 1_555
H6 C2 1_555 1_555
H7 C6 1_555 1_555
O3 H8 1_555 1_555
O1D C5D 1_555 1_555
O2D C5D 1_555 1_555
C5D C6D 1_555 1_555
C6D C6 1_555 1_555
H2D C6D 1_555 1_555
H7D C6D 1_555 1_555
N1A C1A 1_555 1_555
N2A C2A 1_555 1_555
C1A C2A 1_555 1_555
C2A H6A 1_555 1_555
C3A N1A 1_555 1_555
C4A C4 1_555 1_555
H1A C3A 1_555 1_555
H3A C4A 1_555 1_555
H4A C4A 1_555 1_555
H5A C1A 1_555 1_555
Co1_2 N1A 1_555 1_555
Co1D O1D 1_555 1_555
O1A Co1 1_555 1_555
N1A_2 Co1 1_555 1_555
H8C O3 1_555 1_555
N2 C3 1_555 1_555
N2A C3A 1_555 1_555
N2A C4A 1_555 1_555

#END
