
#######################################################################
#
#                 Cambridge Crystallographic Data Centre
#                                CCDC 
#
#######################################################################
#
# If this CIF has been generated from an entry in the Cambridge 
# Structural Database, then it will include bibliographic, chemical, 
# crystal, experimental, refinement or atomic coordinate data resulting 
# from the CCDC's data processing and validation procedures.
#
#######################################################################

data_DULKAY
_symmetry_cell_setting           monoclinic
_symmetry_space_group_name_H-M   'P 21'
_symmetry_Int_Tables_number      4
_space_group_name_Hall           'P 2yb'
loop_
_symmetry_equiv_pos_site_id
_symmetry_equiv_pos_as_xyz
1 x,y,z
2 -x,1/2+y,-z
_cell_length_a                   11.415(3)
_cell_length_b                   7.683(3)
_cell_length_c                   13.493(3)
_cell_angle_alpha                90
_cell_angle_beta                 95.60(2)
_cell_angle_gamma                90
_cell_volume                     1177.71
loop_
_atom_site_label
_atom_site_type_symbol
_atom_site_fract_x
_atom_site_fract_y
_atom_site_fract_z
Cu1 Cu 0.21155(4) 0.36891(6) 0.12869(3)
Cu2 Cu -0.00335(4) 0.19538(7) 0.00035(4)
O1 O 0.0494(2) 0.3103(4) 0.1474(2)
O2 O 0.1710(2) 0.2380(4) 0.0030(2)
N1 N 0.2320(3) 0.4662(5) 0.2647(2)
N2 N 0.3765(3) 0.3918(5) 0.0938(2)
N3 N 0.1660(3) 0.6285(4) 0.0408(3)
N4 N 0.2474(3) 0.7183(5) 0.0194(2)
N5 N 0.3289(3) 0.8008(5) -0.0003(3)
N6 N -0.0342(3) 0.4443(5) -0.0550(2)
N7 N -0.1097(3) 0.4533(5) -0.1277(2)
N8 N -0.1810(3) 0.4602(6) -0.1949(3)
C1 C 0.3429(4) 0.5644(6) 0.2927(3)
H1 H 0.3471 0.5963 0.3625
H2 H 0.3430 0.6705 0.2537
C2 C 0.4500(3) 0.4545(7) 0.2742(3)
H3 H 0.5181 0.4993 0.3150
H4 H 0.4369 0.3361 0.2956
C3 C 0.4774(3) 0.4511(7) 0.1663(3)
H5 H 0.5006 0.5671 0.1476
H6 H 0.5439 0.3743 0.1607
C4 C 0.1543(3) 0.4631(6) 0.3298(3)
H7 H 0.1760 0.5184 0.3901
C5 C 0.0385(3) 0.3842(6) 0.3194(3)
C6 C -0.0340(3) 0.3882(6) 0.4033(3)
C7 C 0.0058(4) 0.4511(8) 0.4991(3)
H8 H 0.0832 0.4891 0.5114
C8 C -0.0674(4) 0.4579(6) 0.5755(3)
H9 H -0.0387 0.5006 0.6376
C9 C -0.1854(4) 0.4004(6) 0.5593(3)
H10 H -0.2347 0.4081 0.6101
C10 C -0.2269(4) 0.3332(5) 0.4683(3)
H11 H -0.3040 0.2931 0.4581
C11 C -0.1521(4) 0.3241(5) 0.3887(3)
C12 C -0.1944(3) 0.2457(6) 0.2958(3)
H12 H -0.2705 0.2013 0.2873
C13 C -0.1243(4) 0.2351(5) 0.2192(3)
H13 H -0.1523 0.1783 0.1608
C14 C -0.0089(3) 0.3095(5) 0.2272(3)
C15 C 0.4008(3) 0.3943(5) 0.0011(3)
H14 H 0.4760 0.4324 -0.0092
C16 C 0.3266(3) 0.3459(5) -0.0876(3)
C17 C 0.3701(3) 0.3733(6) -0.1854(3)
C18 C 0.4795(3) 0.4557(6) -0.1996(3)
H15 H 0.5266 0.4974 -0.1446
C19 C 0.5171(4) 0.4748(6) -0.2937(4)
H16 H 0.5894 0.5274 -0.3003
C20 C 0.4481(4) 0.4161(6) -0.3796(3)
H17 H 0.4743 0.4300 -0.4423
C21 C 0.3411(4) 0.3378(6) -0.3695(3)
H18 H 0.2947 0.2997 -0.4258
C22 C 0.3009(4) 0.3147(5) -0.2731(3)
C23 C 0.1895(4) 0.2323(6) -0.2643(3)
H19 H 0.1439 0.1959 -0.3214
C24 C 0.1493(3) 0.2066(6) -0.1728(3)
H20 H 0.0780 0.1499 -0.1685
C25 C 0.2163(3) 0.2663(5) -0.0836(3)
Cu2A Cu 0.00335(4) 0.69538(7) -0.00035(4)
N3A N -0.1660(3) 0.1285(4) -0.0408(3)
N6A N 0.0342(3) -0.0557(5) 0.0550(2)
loop_
_geom_bond_atom_site_label_1
_geom_bond_atom_site_label_2
_geom_bond_site_symmetry_1
_geom_bond_site_symmetry_2
Cu1 O1 1_555 1_555
Cu2 O1 1_555 1_555
O1 C14 1_555 1_555
O2 Cu1 1_555 1_555
N1 Cu1 1_555 1_555
N2 Cu1 1_555 1_555
N3 Cu1 1_555 1_555
N4 N3 1_555 1_555
N5 N4 1_555 1_555
N6 Cu2 1_555 1_555
N7 N6 1_555 1_555
N8 N7 1_555 1_555
C1 N1 1_555 1_555
H1 C1 1_555 1_555
H2 C1 1_555 1_555
C2 C1 1_555 1_555
H3 C2 1_555 1_555
H4 C2 1_555 1_555
C3 N2 1_555 1_555
H5 C3 1_555 1_555
H6 C3 1_555 1_555
C4 N1 1_555 1_555
H7 C4 1_555 1_555
C5 C4 1_555 1_555
C6 C5 1_555 1_555
C7 C6 1_555 1_555
H8 C7 1_555 1_555
C8 C7 1_555 1_555
H9 C8 1_555 1_555
C9 C8 1_555 1_555
H10 C9 1_555 1_555
C10 C9 1_555 1_555
H11 C10 1_555 1_555
C11 C6 1_555 1_555
C12 C11 1_555 1_555
H12 C12 1_555 1_555
C13 C12 1_555 1_555
H13 C13 1_555 1_555
C14 C5 1_555 1_555
C15 N2 1_555 1_555
H14 C15 1_555 1_555
C16 C15 1_555 1_555
C17 C16 1_555 1_555
C18 C17 1_555 1_555
H15 C18 1_555 1_555
C19 C18 1_555 1_555
H16 C19 1_555 1_555
C20 C19 1_555 1_555
H17 C20 1_555 1_555
C21 C20 1_555 1_555
H18 C21 1_555 1_555
C22 C17 1_555 1_555
C23 C22 1_555 1_555
H19 C23 1_555 1_555
C24 C23 1_555 1_555
H20 C24 1_555 1_555
C25 O2 1_555 1_555
Cu2A N3 1_555 1_555
N3A Cu2 1_555 1_555
N6A Cu2 1_555 1_555
Cu2 O2 1_555 1_555
N6 Cu2A 1_555 1_555
C2 C3 1_555 1_555
C10 C11 1_555 1_555
C13 C14 1_555 1_555
C16 C25 1_555 1_555
C21 C22 1_555 1_555
C24 C25 1_555 1_555

#END
