
#######################################################################
#
#                 Cambridge Crystallographic Data Centre
#                                CCDC 
#
#######################################################################
#
# If this CIF has been generated from an entry in the Cambridge 
# Structural Database, then it will include bibliographic, chemical, 
# crystal, experimental, refinement or atomic coordinate data resulting 
# from the CCDC's data processing and validation procedures.
#
#######################################################################

data_DULMEE
_symmetry_cell_setting           monoclinic
_symmetry_space_group_name_H-M   'P 21/c'
_symmetry_Int_Tables_number      14
_space_group_name_Hall           '-P 2ybc'
loop_
_symmetry_equiv_pos_site_id
_symmetry_equiv_pos_as_xyz
1 x,y,z
2 -x,1/2+y,1/2-z
3 -x,-y,-z
4 x,1/2-y,1/2+z
_cell_length_a                   10.3840(6)
_cell_length_b                   17.3475(10)
_cell_length_c                   15.3690(9)
_cell_angle_alpha                90
_cell_angle_beta                 100.6560(10)
_cell_angle_gamma                90
_cell_volume                     2720.77
loop_
_atom_site_label
_atom_site_type_symbol
_atom_site_fract_x
_atom_site_fract_y
_atom_site_fract_z
Ba1 Ba -0.111179(11) 0.064982(7) 0.092913(8)
N1 N 0.09275(16) 0.30490(10) 0.41807(12)
O1 O -0.16902(15) 0.16847(9) 0.20587(11)
O2 O -0.24267(15) 0.28664(9) 0.21406(11)
H1 H -0.2239 0.3248 0.2454
N2 N 0.31958(16) 0.21625(10) 0.23211(12)
C1 C -0.15855(19) 0.23213(12) 0.24005(14)
C2 C -0.04817(19) 0.25026(12) 0.31316(14)
C3 C 0.13121(19) 0.23154(12) 0.40667(13)
C4 C 0.61779(19) 0.26584(13) 0.39858(14)
H2 H 0.5986 0.3176 0.4057
N3 N 0.04714(16) 0.19663(10) 0.34296(12)
C5 C 0.41005(19) 0.25532(12) 0.29130(14)
C6 C 0.53205(19) 0.22073(12) 0.33950(14)
C7 C 0.2492(2) 0.19745(12) 0.46027(14)
C8 C -0.02141(19) 0.31807(12) 0.36005(14)
N4 N 0.37179(17) 0.32712(10) 0.30018(12)
C9 C 0.4540(2) 0.21427(13) 0.56199(15)
C10 C 0.3428(2) 0.24489(12) 0.50955(14)
H3 H 0.3307 0.2980 0.5074
O3 O 0.01725(14) 0.29058(9) 0.10650(11)
O4 O 0.09510(15) 0.17045(9) 0.11425(11)
C11 C 0.10298(19) 0.23924(12) 0.13593(14)
C12 C 0.21881(19) 0.26584(12) 0.20120(14)
C13 C 0.25227(19) 0.33455(12) 0.24428(14)
C14 C 0.7622(2) 0.15802(14) 0.43603(17)
H4 H 0.8380 0.1367 0.4689
C15 C 0.5635(2) 0.14397(14) 0.32752(18)
H5 H 0.5077 0.1132 0.2877
C16 C 0.2675(3) 0.11820(15) 0.4641(2)
H6 H 0.2056 0.0855 0.4315
C17 C 0.4724(3) 0.13554(15) 0.5660(2)
H7 H 0.5466 0.1145 0.6012
C18 C 0.6787(3) 0.11385(15) 0.3756(2)
H8 H 0.7001 0.0627 0.3669
O5 O 0.54032(16) 0.26528(10) 0.60801(12)
H9 H 0.6033 0.2418 0.6358
O6 O -0.05020(15) 0.43933(8) 0.42190(11)
O7 O 0.81255(15) 0.28235(9) 0.50400(11)
O8 O 0.06321(19) 0.05016(10) 0.25657(13)
O9 O 0.21374(16) 0.45879(10) 0.29732(12)
O10 O -0.25085(19) -0.06122(10) -0.00209(15)
O11 O -0.19949(16) 0.39999(9) 0.30766(12)
O12 O 0.06954(17) 0.41452(10) 0.18501(12)
H10 H 0.0567 0.3749 0.1556
C19 C -0.0946(2) 0.39117(12) 0.36349(14)
C20 C 0.1774(2) 0.40752(13) 0.24363(15)
C21 C 0.7314(2) 0.23459(13) 0.44699(14)
C22 C 0.3788(3) 0.08831(16) 0.5169(3)
H11 H 0.3910 0.0352 0.5195
O13 O -0.38244(18) 0.08568(10) 0.06108(15)
H12 H 0.325(3) 0.168(2) 0.216(2)
H13 H 0.128(4) 0.337(2) 0.457(3)
H14 H -0.408(3) 0.1299(10) 0.072(2)
H15 H 0.039(4) 0.018(2) 0.285(3)
H16 H 0.055(4) 0.086(2) 0.284(3)
H17 H -0.264(4) -0.061(2) -0.055(3)
H18 H -0.326(4) -0.070(2) 0.017(3)
H19 H -0.439(3) 0.0784(18) 0.0144(16)
H20 H 0.879(4) 0.257(2) 0.538(3)
Ba1A Ba 0.111179(11) 0.564982(7) 0.407087(8)
Ba1C Ba -0.111179(11) 0.435018(7) 0.592913(8)
Ba1C_2 Ba 0.888821(11) 0.435018(7) 0.592913(8)
O6A O 0.05020(15) -0.06067(8) 0.07810(11)
O6C O -0.05020(15) 0.06067(8) -0.07810(11)
O7C O -0.18745(15) 0.21765(9) 0.00400(11)
O9A O -0.21374(16) -0.04121(10) 0.20268(12)
O14 O 0.6912(2) 0.94624(11) 0.81273(17)
H21 H 0.644(4) 0.984(2) 0.811(3)
H22 H 0.738(4) 0.956(2) 0.774(3)
O15 O 0.5001(2) 0.95421(13) 0.11033(19)
H23 H 0.537(4) 0.927(2) 0.145(3)
loop_
_geom_bond_atom_site_label_1
_geom_bond_atom_site_label_2
_geom_bond_site_symmetry_1
_geom_bond_site_symmetry_2
Ba1 O1 1_555 1_555
N1 C3 1_555 1_555
O1 C1 1_555 1_555
O2 H1 1_555 1_555
N2 C5 1_555 1_555
C1 O2 1_555 1_555
C2 C1 1_555 1_555
C3 N3 1_555 1_555
C4 H2 1_555 1_555
N3 C2 1_555 1_555
C5 C6 1_555 1_555
C6 C4 1_555 1_555
C7 C3 1_555 1_555
C8 N1 1_555 1_555
N4 C5 1_555 1_555
C9 C10 1_555 1_555
C10 C7 1_555 1_555
H3 C10 1_555 1_555
O3 C11 1_555 1_555
O4 Ba1 1_555 1_555
C11 O4 1_555 1_555
C12 N2 1_555 1_555
C13 N4 1_555 1_555
C14 H4 1_555 1_555
C15 C6 1_555 1_555
H5 C15 1_555 1_555
C16 C7 1_555 1_555
H6 C16 1_555 1_555
C17 C9 1_555 1_555
H7 C17 1_555 1_555
C18 C14 1_555 1_555
H8 C18 1_555 1_555
O5 C9 1_555 1_555
H9 O5 1_555 1_555
O6 C19 1_555 1_555
O7 C21 1_555 1_555
O8 Ba1 1_555 1_555
O9 C20 1_555 1_555
O10 Ba1 1_555 1_555
O11 C19 1_555 1_555
O12 H10 1_555 1_555
C19 C8 1_555 1_555
C20 C13 1_555 1_555
C21 C4 1_555 1_555
C22 C16 1_555 1_555
H11 C22 1_555 1_555
O13 Ba1 1_555 1_555
H12 N2 1_555 1_555
H13 N1 1_555 1_555
H14 O13 1_555 1_555
H15 O8 1_555 1_555
H16 O8 1_555 1_555
H17 O10 1_555 1_555
H18 O10 1_555 1_555
H19 O13 1_555 1_555
H20 O7 1_555 1_555
O14 H21 1_555 1_555
H22 O14 1_555 1_555
O15 H23 1_555 1_555
Ba1A O6 1_555 1_555
Ba1C O6 1_555 1_555
Ba1C_2 O7 1_555 1_555
O6A Ba1 1_555 1_555
O6C Ba1 1_555 1_555
O7C Ba1 1_555 1_555
O9A Ba1 1_555 1_555
C2 C8 1_555 1_555
C11 C12 1_555 1_555
C12 C13 1_555 1_555
C14 C21 1_555 1_555
C15 C18 1_555 1_555
C17 C22 1_555 1_555
O9 Ba1A 1_555 1_555
O12 C20 1_555 1_555

#END
