
#######################################################################
#
#                 Cambridge Crystallographic Data Centre
#                                CCDC 
#
#######################################################################
#
# If this CIF has been generated from an entry in the Cambridge 
# Structural Database, then it will include bibliographic, chemical, 
# crystal, experimental, refinement or atomic coordinate data resulting 
# from the CCDC's data processing and validation procedures.
#
#######################################################################

data_DULROS
_symmetry_cell_setting           triclinic
_symmetry_space_group_name_H-M   'P -1'
_symmetry_Int_Tables_number      2
_space_group_name_Hall           '-P 1'
loop_
_symmetry_equiv_pos_site_id
_symmetry_equiv_pos_as_xyz
1 x,y,z
2 -x,-y,-z
_cell_length_a                   6.6480(13)
_cell_length_b                   13.124(3)
_cell_length_c                   13.531(3)
_cell_angle_alpha                63.46(3)
_cell_angle_beta                 79.17(4)
_cell_angle_gamma                82.13(3)
_cell_volume                     1035.46
loop_
_atom_site_label
_atom_site_type_symbol
_atom_site_fract_x
_atom_site_fract_y
_atom_site_fract_z
Cu1 Cu 0.45974(6) 1.11126(4) 0.67569(3)
Na1 Na -0.0755(2) 1.21836(13) 0.62390(12)
N1 N 0.1276(5) 0.5042(3) 1.1324(2)
C1 C 0.2949(5) 0.8902(3) 0.8445(3)
C2 C 0.2868(5) 0.7638(3) 0.8775(3)
C3 C 0.3519(5) 0.7198(3) 0.7989(3)
C4 C 0.3514(5) 0.6022(3) 0.8333(3)
C5 C 0.2859(5) 0.5315(3) 0.9441(3)
H1 H 0.2926 0.4528 0.9687
C6 C 0.2110(5) 0.5782(3) 1.0174(3)
C7 C 0.2114(5) 0.6939(3) 0.9862(3)
H2 H 0.1620 0.7239 1.0374
C8 C 0.4157(5) 0.7967(3) 0.6777(3)
C9 C 0.4168(5) 0.5492(3) 0.7518(3)
O1 O 0.1623(5) 0.4011(2) 1.1654(2)
O2 O 0.0221(4) 0.5489(3) 1.1883(2)
O3 O 0.5154(4) 0.4541(2) 0.7880(2)
O4 O 0.3646(4) 0.6026(2) 0.6569(2)
O5 O 0.5992(3) 0.7895(2) 0.6373(2)
O6 O 0.2773(3) 0.8631(2) 0.62482(19)
O7 O 0.1643(4) 0.9349(2) 0.8958(2)
O8 O 0.4354(3) 0.94091(19) 0.76839(19)
O9 O 0.0173(5) 1.3157(3) 0.4326(3)
H3 H 0.1316 1.3136 0.3943
H4 H -0.0812 1.3422 0.3956
O12 O -0.1732(4) 1.3977(3) 0.6357(2)
H9 H -0.2488 1.3945 0.6941
H10 H -0.0663 1.4228 0.6390
O15 O 0.1910(4) 1.1559(2) 0.7608(2)
H15 H 0.1805 1.0929 0.8175
H16 H 0.2254 1.1929 0.7914
O16 O 0.6440(4) 1.1187(2) 0.7809(2)
H17 H 0.6707 1.0528 0.8295
H18 H 0.5749 1.1599 0.8095
O17 O 0.2728(4) 1.0955(2) 0.5785(2)
H19 H 0.2966 1.1361 0.5094
H20 H 0.2814 1.0266 0.5904
O18 O 0.7342(4) 1.0795(2) 0.5925(2)
H21 H 0.7623 1.0126 0.6388
H22 H 0.7367 1.0866 0.5275
O19 O 0.5012(4) 1.2786(2) 0.5697(2)
H23 H 0.5259 1.3005 0.5003
H24 H 0.4304 1.3288 0.5857
Na1_2 Na 0.9245(2) 1.21836(13) 0.62390(12)
O16_2 O -0.3560(4) 1.1187(2) 0.7809(2)
H17_2 H -0.3293 1.0528 0.8295
H18_2 H -0.4251 1.1599 0.8095
O18_2 O -0.2658(4) 1.0795(2) 0.5925(2)
H21_2 H -0.2377 1.0126 0.6388
H22_2 H -0.2633 1.0866 0.5275
O10 O 0.3871(5) 0.2405(2) 0.8712(2)
H5 H 0.3277 0.2063 0.9367
H6 H 0.4314 0.2983 0.8694
O11 O 0.2499(4) 0.4492(2) 0.5859(2)
H7 H 0.2851 0.4832 0.6193
H8 H 0.2712 0.4938 0.5177
O13 O 0.8772(4) 0.8670(2) 0.7141(2)
H11 H 1.0052 0.8651 0.6965
H12 H 0.8229 0.8171 0.7068
O14 O 0.7667(4) 0.8945(3) 0.9121(2)
H13 H 0.8793 0.9089 0.9212
H14 H 0.7799 0.8737 0.8607
loop_
_geom_bond_atom_site_label_1
_geom_bond_atom_site_label_2
_geom_bond_site_symmetry_1
_geom_bond_site_symmetry_2
Cu1 O8 1_555 1_555
Na1 O9 1_555 1_555
N1 C6 1_555 1_555
C1 C2 1_555 1_555
C2 C3 1_555 1_555
C3 C4 1_555 1_555
C4 C5 1_555 1_555
C5 H1 1_555 1_555
C6 C5 1_555 1_555
C7 C2 1_555 1_555
H2 C7 1_555 1_555
C8 C3 1_555 1_555
C9 C4 1_555 1_555
O1 N1 1_555 1_555
O2 N1 1_555 1_555
O3 C9 1_555 1_555
O4 C9 1_555 1_555
O5 C8 1_555 1_555
O6 C8 1_555 1_555
O7 C1 1_555 1_555
O8 C1 1_555 1_555
O9 H3 1_555 1_555
H4 O9 1_555 1_555
O10 H5 1_555 1_555
H6 O10 1_555 1_555
O11 H7 1_555 1_555
H8 O11 1_555 1_555
O12 Na1 1_555 1_555
H9 O12 1_555 1_555
H10 O12 1_555 1_555
O13 H11 1_555 1_555
H12 O13 1_555 1_555
O14 H13 1_555 1_555
H14 O14 1_555 1_555
O15 Cu1 1_555 1_555
H15 O15 1_555 1_555
H16 O15 1_555 1_555
O16 Cu1 1_555 1_555
H17 O16 1_555 1_555
H18 O16 1_555 1_555
O17 Cu1 1_555 1_555
H19 O17 1_555 1_555
H20 O17 1_555 1_555
O18 Cu1 1_555 1_555
H21 O18 1_555 1_555
H22 O18 1_555 1_555
O19 Cu1 1_555 1_555
H23 O19 1_555 1_555
H24 O19 1_555 1_555
Na1_2 O16 1_555 1_555
O16_2 Na1 1_555 1_555
H17_2 O16_2 1_555 1_555
H18_2 O16_2 1_555 1_555
O18_2 Na1 1_555 1_555
H21_2 O18_2 1_555 1_555
H22_2 O18_2 1_555 1_555
Na1 O15 1_555 1_555
Na1 O17 1_555 1_555
C6 C7 1_555 1_555
O18 Na1_2 1_555 1_555

#END
