
#######################################################################
#
#                 Cambridge Crystallographic Data Centre
#                                CCDC 
#
#######################################################################
#
# If this CIF has been generated from an entry in the Cambridge 
# Structural Database, then it will include bibliographic, chemical, 
# crystal, experimental, refinement or atomic coordinate data resulting 
# from the CCDC's data processing and validation procedures.
#
#######################################################################

data_DULSIN
_symmetry_cell_setting           monoclinic
_symmetry_space_group_name_H-M   'P 21/c'
_symmetry_Int_Tables_number      14
_space_group_name_Hall           '-P 2ybc'
loop_
_symmetry_equiv_pos_site_id
_symmetry_equiv_pos_as_xyz
1 x,y,z
2 -x,1/2+y,1/2-z
3 -x,-y,-z
4 x,1/2-y,1/2+z
_cell_length_a                   8.9723(2)
_cell_length_b                   7.14570(10)
_cell_length_c                   12.0186(2)
_cell_angle_alpha                90
_cell_angle_beta                 119.5710(10)
_cell_angle_gamma                90
_cell_volume                     670.184
loop_
_atom_site_label
_atom_site_type_symbol
_atom_site_fract_x
_atom_site_fract_y
_atom_site_fract_z
Na1 Na -0.01684(8) 0.60710(8) 0.68653(6)
O1 O 0.40344(13) 0.43067(13) 1.07635(10)
H1 H 0.4044 0.3103 1.0786
C1 C 0.26779(18) 0.50448(18) 0.97844(15)
O2 O -0.25610(13) 0.58582(13) 0.72347(11)
H2 H -0.2558 0.6856 0.7595
H3 H -0.3646 0.5522 0.6686
O3 O 0.15291(13) 0.41821(13) 0.89112(11)
C2 C 0.26731(18) 0.71881(18) 0.98483(14)
H4 H 0.3650 0.7643 0.9739
O4 O 0.10842(13) 0.79014(13) 0.88733(10)
H5 H 0.0405 0.7814 0.9094
C3 C 0.29897(18) 0.78670(18) 1.11559(14)
H6 H 0.4058 0.7442 1.1778
O5 O 0.16227(13) 0.72503(13) 1.13335(11)
H7 H 0.1864 0.6265 1.1677
C4 C 0.30326(18) 1.00147(18) 1.11769(14)
O6 O 0.19847(14) 1.08865(13) 1.13774(11)
O7 O 0.41681(13) 1.07517(13) 1.09721(11)
Na1A Na 0.01684(8) 0.10710(8) 0.81347(6)
Na1A_2 Na 0.01684(8) 1.10710(8) 0.81347(6)
Na1C Na -0.01684(8) 0.89290(8) 1.18653(6)
O3A O -0.15291(13) 0.91821(13) 0.60888(11)
O4A O -0.10842(13) 0.29014(13) 0.61267(10)
H5A H -0.0405 0.2814 0.5906
O5C O 0.16227(13) 0.77497(13) 0.63335(11)
H7C H 0.1864 0.8735 0.6677
O6C O 0.19847(14) 0.41135(13) 0.63774(11)
loop_
_geom_bond_atom_site_label_1
_geom_bond_atom_site_label_2
_geom_bond_site_symmetry_1
_geom_bond_site_symmetry_2
Na1 O2 1_555 1_555
O1 H1 1_555 1_555
C1 O1 1_555 1_555
O2 H2 1_555 1_555
H3 O2 1_555 1_555
O3 Na1 1_555 1_555
C2 C1 1_555 1_555
H4 C2 1_555 1_555
O4 Na1 1_555 1_555
H5 O4 1_555 1_555
C3 C2 1_555 1_555
H6 C3 1_555 1_555
O5 C3 1_555 1_555
H7 O5 1_555 1_555
C4 C3 1_555 1_555
O6 C4 1_555 1_555
O7 C4 1_555 1_555
Na1A O3 1_555 1_555
Na1A_2 O4 1_555 1_555
Na1C O5 1_555 1_555
O3A Na1 1_555 1_555
O4A Na1 1_555 1_555
H5A O4A 1_555 1_555
O5C Na1 1_555 1_555
H7C O5C 1_555 1_555
O6C Na1 1_555 1_555
C1 O3 1_555 1_555
C2 O4 1_555 1_555
O6 Na1C 1_555 1_555
Na1A O4A 1_555 1_555
Na1A_2 O3A 1_555 1_555

#END
