
#######################################################################
#
#                 Cambridge Crystallographic Data Centre
#                                CCDC 
#
#######################################################################
#
# If this CIF has been generated from an entry in the Cambridge 
# Structural Database, then it will include bibliographic, chemical, 
# crystal, experimental, refinement or atomic coordinate data resulting 
# from the CCDC's data processing and validation procedures.
#
#######################################################################

data_DULSEJ
_symmetry_cell_setting           orthorhombic
_symmetry_space_group_name_H-M   'P b c n'
_symmetry_Int_Tables_number      60
_space_group_name_Hall           '-P 2n 2ab'
loop_
_symmetry_equiv_pos_site_id
_symmetry_equiv_pos_as_xyz
1 x,y,z
2 1/2-x,1/2-y,1/2+z
3 -x,y,1/2-z
4 1/2+x,1/2-y,-z
5 -x,-y,-z
6 1/2+x,1/2+y,1/2-z
7 x,-y,1/2+z
8 1/2-x,1/2+y,z
_cell_length_a                   27.8428(13)
_cell_length_b                   10.452(2)
_cell_length_c                   6.642(6)
_cell_angle_alpha                90
_cell_angle_beta                 90
_cell_angle_gamma                90
_cell_volume                     1932.91
loop_
_atom_site_label
_atom_site_type_symbol
_atom_site_fract_x
_atom_site_fract_y
_atom_site_fract_z
Na1 Na 0.95606(3) -0.10192(7) 0.92650(12)
O1 O 0.96094(6) 0.14635(16) 1.0752(2)
O2 O 0.75046(8) 0.2906(2) 0.8738(4)
O3 O 0.93442(7) 0.10334(16) 0.7707(3)
N1 N 0.77183(7) 0.3679(2) 0.9765(4)
C1 C 0.90187(7) 0.28318(18) 0.9385(3)
C2 C 0.93555(7) 0.16846(18) 0.9265(3)
C3 C 0.89172(7) 0.50978(19) 0.9440(3)
C4 C 0.82465(7) 0.3756(2) 0.9576(3)
C5 C 0.85223(7) 0.26469(19) 0.9491(3)
C6 C 0.84279(7) 0.4982(2) 0.9550(3)
H1 H 0.8228 0.5695 0.9604
C7 C 0.92178(8) 0.40496(18) 0.9386(3)
H2 H 0.9549 0.4157 0.9350
C8 C 0.83187(9) 0.1325(2) 0.9644(5)
H3 H 0.8039 0.1339 1.0489
H4 H 0.8555 0.0762 1.0214
H5 H 0.8232 0.1027 0.8326
O4 O 0.75280(7) 0.4416(2) 1.0929(3)
N2 N 0.91229(7) 0.63855(17) 0.9404(3)
O5 O 0.88557(7) 0.72989(15) 0.9215(3)
O6 O 0.95584(7) 0.64912(16) 0.9575(3)
Na1D Na 1.04394(3) 0.10192(7) 1.07350(12)
Na1F Na 0.95606(3) 0.10192(7) 1.42650(12)
Na1F_2 Na 0.95606(3) 0.10192(7) 0.42650(12)
Na1_2 Na 0.95606(3) 0.89808(7) 0.92650(12)
O1D O 1.03906(6) -0.14635(16) 0.9248(2)
O1F O 0.96094(6) -0.14635(16) 0.5752(2)
O3F O 0.93442(7) -0.10334(16) 1.2707(3)
O5_2 O 0.88557(7) -0.27011(15) 0.9215(3)
O6_2 O 0.95584(7) -0.35088(16) 0.9575(3)
loop_
_geom_bond_atom_site_label_1
_geom_bond_atom_site_label_2
_geom_bond_site_symmetry_1
_geom_bond_site_symmetry_2
Na1 O1 1_555 1_555
O1 C2 1_555 1_555
O2 N1 1_555 1_555
O3 Na1 1_555 1_555
N1 C4 1_555 1_555
C1 C2 1_555 1_555
C2 O3 1_555 1_555
C3 C6 1_555 1_555
C4 C5 1_555 1_555
C5 C1 1_555 1_555
C6 C4 1_555 1_555
H1 C6 1_555 1_555
C7 C1 1_555 1_555
H2 C7 1_555 1_555
C8 C5 1_555 1_555
H3 C8 1_555 1_555
H4 C8 1_555 1_555
H5 C8 1_555 1_555
O4 N1 1_555 1_555
N2 C3 1_555 1_555
O5 N2 1_555 1_555
O6 N2 1_555 1_555
Na1D O1 1_555 1_555
Na1F O1 1_555 1_555
Na1F_2 O3 1_555 1_555
Na1_2 O5 1_555 1_555
O1D Na1 1_555 1_555
O1F Na1 1_555 1_555
O3F Na1 1_555 1_555
O5_2 Na1 1_555 1_555
O6_2 Na1 1_555 1_555
C3 C7 1_555 1_555
O6 Na1_2 1_555 1_555
Na1D O1D 1_555 1_555
Na1F O3F 1_555 1_555
Na1F_2 O1F 1_555 1_555

#END
