
#######################################################################
#
#                 Cambridge Crystallographic Data Centre
#                                CCDC 
#
#######################################################################
#
# If this CIF has been generated from an entry in the Cambridge 
# Structural Database, then it will include bibliographic, chemical, 
# crystal, experimental, refinement or atomic coordinate data resulting 
# from the CCDC's data processing and validation procedures.
#
#######################################################################

data_DULTAG
_symmetry_cell_setting           orthorhombic
_symmetry_space_group_name_H-M   'P c a 21'
_symmetry_Int_Tables_number      29
_space_group_name_Hall           'P 2c -2ac'
loop_
_symmetry_equiv_pos_site_id
_symmetry_equiv_pos_as_xyz
1 x,y,z
2 -x,-y,1/2+z
3 1/2-x,y,1/2+z
4 1/2+x,-y,z
_cell_length_a                   24.829(2)
_cell_length_b                   7.3290(7)
_cell_length_c                   19.1378(17)
_cell_angle_alpha                90
_cell_angle_beta                 90
_cell_angle_gamma                90
_cell_volume                     3482.54
loop_
_atom_site_label
_atom_site_type_symbol
_atom_site_fract_x
_atom_site_fract_y
_atom_site_fract_z
Na1 Na 0.62174(8) 0.7233(3) 0.43117(11)
Na2 Na 0.63035(8) 0.2253(3) 0.42791(11)
N1 N 0.55812(13) 0.4551(4) 0.55069(17)
C1 C 0.5074(3) 0.5199(5) 0.5651(4)
C2 C 0.4871(3) 0.5177(5) 0.6318(4)
H1 H 0.4518 0.5612 0.6413
C3 C 0.51902(17) 0.4511(5) 0.6844(2)
H2 H 0.5059 0.4482 0.7310
C4 C 0.57028(13) 0.3880(5) 0.66984(17)
H3 H 0.5923 0.3419 0.7064
C5 C 0.58936(13) 0.3919(4) 0.60254(17)
H4 H 0.6247 0.3498 0.5927
O1 O 0.57443(13) 0.4583(4) 0.48528(17)
S1 S 0.47870(3) 0.60118(11) 0.48539(5)
S2 S 0.40763(3) 0.71334(11) 0.51954(5)
C6 C 0.3632(2) 0.5278(6) 0.5114(3)
N2 N 0.31067(11) 0.5830(4) 0.50875(14)
C7 C 0.27083(19) 0.4613(6) 0.4983(3)
H5 H 0.2348 0.5032 0.4931
C8 C 0.28145(15) 0.2766(6) 0.49496(19)
H6 H 0.2530 0.1922 0.4873
C9 C 0.33365(14) 0.2158(5) 0.50285(17)
H7 H 0.3414 0.0889 0.5026
C10 C 0.37491(14) 0.3433(5) 0.51114(17)
H8 H 0.4111 0.3034 0.5166
O2 O 0.30158(11) 0.7595(4) 0.51612(17)
N3 N 0.68938(18) 0.4697(4) 0.3143(2)
C11 C 0.65984(13) 0.3867(4) 0.26226(16)
C12 C 0.68407(14) 0.3771(5) 0.19601(17)
H9 H 0.6645 0.3237 0.1585
C13 C 0.73511(18) 0.4424(6) 0.1836(2)
H10 H 0.7508 0.4317 0.1385
C14 C 0.7630(2) 0.5230(5) 0.2370(3)
H11 H 0.7981 0.5705 0.2288
C15 C 0.7405(2) 0.5353(5) 0.3019(3)
H12 H 0.7603 0.5895 0.3390
O3 O 0.67089(18) 0.4834(3) 0.3798(3)
S3 S 0.59697(3) 0.30128(11) 0.28014(5)
N4 N 0.5601(2) 0.9741(4) 0.5395(3)
C16 C 0.51021(18) 1.0416(6) 0.5488(2)
H13 H 0.4923 1.0962 0.5103
C17 C 0.4846(2) 1.0345(6) 0.6115(3)
H14 H 0.4490 1.0807 0.6166
C18 C 0.5116(2) 0.9575(6) 0.6683(2)
H15 H 0.4948 0.9502 0.7128
C19 C 0.56242(15) 0.8933(5) 0.65881(19)
H16 H 0.5810 0.8448 0.6980
C20 C 0.58885(13) 0.8950(4) 0.59367(17)
O4 O 0.58128(18) 0.9846(3) 0.4763(2)
S4 S 0.65125(3) 0.80270(12) 0.57957(5)
C21 C 0.8877(2) 0.0209(5) 0.3402(3)
N5 N 0.93985(10) 0.0766(4) 0.34558(13)
C22 C 0.97985(18) -0.0463(6) 0.3550(2)
H17 H 1.0159 -0.0058 0.3612
C23 C 0.96829(16) -0.2304(6) 0.3558(2)
H18 H 0.9966 -0.3161 0.3620
C24 C 0.91595(14) -0.2915(5) 0.34758(18)
H19 H 0.9080 -0.4183 0.3469
C25 C 0.87541(14) -0.1622(5) 0.34031(18)
H20 H 0.8390 -0.2004 0.3354
O5 O 0.94960(10) 0.2526(4) 0.33994(15)
S5 S 0.84312(3) 0.20813(11) 0.33478(5)
S6 S 0.77227(3) 0.09806(11) 0.37045(5)
C26 C 0.7423(3) 0.0149(4) 0.2941(4)
N6 N 0.69222(13) -0.0467(4) 0.30792(17)
C27 C 0.65899(13) -0.1106(4) 0.25716(17)
H21 H 0.6236 -0.1497 0.2684
C28 C 0.67693(13) -0.1180(5) 0.18980(18)
H22 H 0.6539 -0.1613 0.1538
C29 C 0.72926(16) -0.0620(5) 0.17386(19)
H23 H 0.7423 -0.0700 0.1273
C30 C 0.7618(3) 0.0052(4) 0.2263(4)
H24 H 0.7974 0.0445 0.2161
O6 O 0.67633(12) -0.0393(3) 0.37434(17)
O7 O 0.69056(8) 0.1936(3) 0.52554(13)
H25 H 0.7262 0.1920 0.5174
H26 H 0.6880 0.0728 0.5310
O8 O 0.56110(8) 0.6934(3) 0.33598(13)
H27 H 0.5244 0.7115 0.3356
H28 H 0.5700 0.5839 0.3239
Na1_2 Na 0.62174(8) -0.2767(3) 0.43117(11)
Na2_2 Na 0.63035(8) 1.2253(3) 0.42791(11)
O4_2 O 0.58128(18) -0.0154(3) 0.4763(2)
O6_2 O 0.67633(12) 0.9607(3) 0.37434(17)
loop_
_geom_bond_atom_site_label_1
_geom_bond_atom_site_label_2
_geom_bond_site_symmetry_1
_geom_bond_site_symmetry_2
Na1 O1 1_555 1_555
Na2 O1 1_555 1_555
N1 C1 1_555 1_555
C1 C2 1_555 1_555
C2 H1 1_555 1_555
C3 C2 1_555 1_555
H2 C3 1_555 1_555
C4 C3 1_555 1_555
H3 C4 1_555 1_555
C5 N1 1_555 1_555
H4 C5 1_555 1_555
O1 N1 1_555 1_555
S1 C1 1_555 1_555
S2 S1 1_555 1_555
C6 S2 1_555 1_555
N2 C6 1_555 1_555
C7 N2 1_555 1_555
H5 C7 1_555 1_555
C8 C7 1_555 1_555
H6 C8 1_555 1_555
C9 C8 1_555 1_555
H7 C9 1_555 1_555
C10 C6 1_555 1_555
H8 C10 1_555 1_555
O2 N2 1_555 1_555
N3 C11 1_555 1_555
C11 C12 1_555 1_555
C12 H9 1_555 1_555
C13 C12 1_555 1_555
H10 C13 1_555 1_555
C14 C13 1_555 1_555
H11 C14 1_555 1_555
C15 N3 1_555 1_555
H12 C15 1_555 1_555
O3 Na1 1_555 1_555
S3 Na2 1_555 1_555
N4 C16 1_555 1_555
C16 H13 1_555 1_555
C17 C16 1_555 1_555
H14 C17 1_555 1_555
C18 C17 1_555 1_555
H15 C18 1_555 1_555
C19 C18 1_555 1_555
H16 C19 1_555 1_555
C20 N4 1_555 1_555
O4 Na1 1_555 1_555
S4 Na1 1_555 1_555
C21 N5 1_555 1_555
N5 C22 1_555 1_555
C22 H17 1_555 1_555
C23 C22 1_555 1_555
H18 C23 1_555 1_555
C24 C23 1_555 1_555
H19 C24 1_555 1_555
C25 C21 1_555 1_555
H20 C25 1_555 1_555
O5 N5 1_555 1_555
S5 C21 1_555 1_555
S6 S5 1_555 1_555
C26 S6 1_555 1_555
N6 C26 1_555 1_555
C27 N6 1_555 1_555
H21 C27 1_555 1_555
C28 C27 1_555 1_555
H22 C28 1_555 1_555
C29 C28 1_555 1_555
H23 C29 1_555 1_555
C30 C26 1_555 1_555
H24 C30 1_555 1_555
O6 Na2 1_555 1_555
O7 Na2 1_555 1_555
H25 O7 1_555 1_555
H26 O7 1_555 1_555
O8 Na1 1_555 1_555
H27 O8 1_555 1_555
H28 O8 1_555 1_555
Na1_2 O6 1_555 1_555
Na2_2 O4 1_555 1_555
O4_2 Na2 1_555 1_555
O6_2 Na1 1_555 1_555
Na2 O3 1_555 1_555
C4 C5 1_555 1_555
C9 C10 1_555 1_555
N3 O3 1_555 1_555
C11 S3 1_555 1_555
C14 C15 1_555 1_555
N4 O4 1_555 1_555
C19 C20 1_555 1_555
C20 S4 1_555 1_555
C24 C25 1_555 1_555
N6 O6 1_555 1_555
C29 C30 1_555 1_555
Na1_2 O4_2 1_555 1_555
Na2_2 O6_2 1_555 1_555

#END
