
#######################################################################
#
#                 Cambridge Crystallographic Data Centre
#                                CCDC 
#
#######################################################################
#
# If this CIF has been generated from an entry in the Cambridge 
# Structural Database, then it will include bibliographic, chemical, 
# crystal, experimental, refinement or atomic coordinate data resulting 
# from the CCDC's data processing and validation procedures.
#
#######################################################################

data_DULWIR
_symmetry_cell_setting           triclinic
_symmetry_space_group_name_H-M   'P -1'
_symmetry_Int_Tables_number      2
_space_group_name_Hall           '-P 1'
loop_
_symmetry_equiv_pos_site_id
_symmetry_equiv_pos_as_xyz
1 x,y,z
2 -x,-y,-z
_cell_length_a                   5.1584(10)
_cell_length_b                   7.7805(16)
_cell_length_c                   7.8711(16)
_cell_angle_alpha                109.40(3)
_cell_angle_beta                 98.87(3)
_cell_angle_gamma                104.85(3)
_cell_volume                     277.918
loop_
_atom_site_label
_atom_site_type_symbol
_atom_site_fract_x
_atom_site_fract_y
_atom_site_fract_z
Ag1 Ag 0.61189(17) -0.19436(12) -0.05077(10)
O1 O 0.9281(15) 0.0639(10) 0.2082(10)
O2 O 0.6195(14) 0.1949(12) 0.3227(10)
N1 N 0.9120(16) 0.3243(11) 0.6770(10)
N2 N 0.872(2) 0.4946(12) 0.7248(12)
N3 N 0.7161(19) 0.4973(12) 0.8396(12)
N4 N 0.656(2) 0.3322(13) 0.8697(12)
C1 C 0.8444(18) 0.1645(13) 0.3374(12)
C2 C 1.0509(18) 0.2615(13) 0.5323(12)
H1 H 1.1368 0.1710 0.5545
H2 H 1.1964 0.3719 0.5373
C3 C 0.781(2) 0.2254(15) 0.7646(14)
H3 H 0.7775 0.1022 0.7545
Ag1A Ag 0.38811(17) 0.19436(12) 0.05077(10)
Ag1_2 Ag 0.61189(17) 0.80564(12) 0.94923(10)
Ag1A_2 Ag 0.38811(17) 0.19436(12) 1.05077(10)
O2A O 0.3805(14) -0.1949(12) -0.3227(10)
N3_2 N 0.7161(19) -0.5027(12) -0.1604(12)
N4A N 0.344(2) -0.3322(13) 0.1303(12)
loop_
_geom_bond_atom_site_label_1
_geom_bond_atom_site_label_2
_geom_bond_site_symmetry_1
_geom_bond_site_symmetry_2
Ag1 O1 1_555 1_555
O1 C1 1_555 1_555
O2 C1 1_555 1_555
N1 N2 1_555 1_555
N2 N3 1_555 1_555
N3 N4 1_555 1_555
N4 C3 1_555 1_555
C1 C2 1_555 1_555
C2 N1 1_555 1_555
H1 C2 1_555 1_555
H2 C2 1_555 1_555
C3 N1 1_555 1_555
H3 C3 1_555 1_555
Ag1A O2 1_555 1_555
Ag1_2 N3 1_555 1_555
Ag1A_2 N4 1_555 1_555
O2A Ag1 1_555 1_555
N3_2 Ag1 1_555 1_555
N4A Ag1 1_555 1_555

#END
