
#######################################################################
#
#                 Cambridge Crystallographic Data Centre
#                                CCDC 
#
#######################################################################
#
# If this CIF has been generated from an entry in the Cambridge 
# Structural Database, then it will include bibliographic, chemical, 
# crystal, experimental, refinement or atomic coordinate data resulting 
# from the CCDC's data processing and validation procedures.
#
#######################################################################

data_DULWAJ
_symmetry_cell_setting           triclinic
_symmetry_space_group_name_H-M   'P -1'
_symmetry_Int_Tables_number      2
_space_group_name_Hall           '-P 1'
loop_
_symmetry_equiv_pos_site_id
_symmetry_equiv_pos_as_xyz
1 x,y,z
2 -x,-y,-z
_cell_length_a                   3.9628(5)
_cell_length_b                   6.5162(9)
_cell_length_c                   15.0388(19)
_cell_angle_alpha                101.783(10)
_cell_angle_beta                 93.418(11)
_cell_angle_gamma                95.214(11)
_cell_volume                     377.363
loop_
_atom_site_label
_atom_site_type_symbol
_atom_site_fract_x
_atom_site_fract_y
_atom_site_fract_z
C1 C 0.402(2) 0.5193(13) 0.7914(6)
H1 H 0.3215 0.6506 0.8064
C2 C 0.400(2) 0.4210(13) 0.7010(6)
H2 H 0.3156 0.4876 0.6566
C3 C 0.629(2) 0.1448(13) 0.7407(5)
H3 H 0.7049 0.0123 0.7252
C4 C 0.638(2) 0.2438(14) 0.8329(6)
C5 C 0.790(2) 0.1363(13) 0.9029(5)
N1 N 0.519(2) 0.4278(10) 0.8588(5)
N2 N 0.5148(18) 0.2350(10) 0.6752(4)
N3 N 0.779(2) 0.2309(12) 0.9885(5)
H4 H 0.8633 0.1766 1.0313
H5 H 0.6883 0.3471 1.0017
O1 O 0.914(2) -0.0290(12) 0.8783(5)
Hg1 Hg 0.50000 0.00000 0.50000
Br1 Br -0.13782(19) -0.24778(12) 0.55380(6)
C1A C 0.598(2) -0.5193(13) 0.2086(6)
H1A H 0.6785 -0.6506 0.1936
C2A C 0.600(2) -0.4210(13) 0.2990(6)
H2A H 0.6844 -0.4876 0.3434
C3A C 0.371(2) -0.1448(13) 0.2593(5)
H3A H 0.2951 -0.0123 0.2748
C4A C 0.362(2) -0.2438(14) 0.1671(6)
C5A C 0.210(2) -0.1363(13) 0.0971(5)
N1A N 0.481(2) -0.4278(10) 0.1412(5)
N2A N 0.4852(18) -0.2350(10) 0.3248(4)
N3A N 0.221(2) -0.2309(12) 0.0115(5)
H4A H 0.1367 -0.1766 -0.0313
H5A H 0.3117 -0.3471 -0.0017
O1A O 0.086(2) 0.0290(12) 0.1217(5)
Hg1_2 Hg -0.50000 0.00000 0.50000
Hg1_3 Hg 1.50000 0.00000 0.50000
Br1_2 Br 0.86218(19) -0.24778(12) 0.55380(6)
Br1A Br 0.13782(19) 0.24778(12) 0.44620(6)
Br1A_2 Br 1.13782(19) 0.24778(12) 0.44620(6)
loop_
_geom_bond_atom_site_label_1
_geom_bond_atom_site_label_2
_geom_bond_site_symmetry_1
_geom_bond_site_symmetry_2
C1 H1 1_555 1_555
C2 C1 1_555 1_555
H2 C2 1_555 1_555
C3 H3 1_555 1_555
C4 C3 1_555 1_555
C5 C4 1_555 1_555
N1 C1 1_555 1_555
N2 C2 1_555 1_555
N3 C5 1_555 1_555
H4 N3 1_555 1_555
H5 N3 1_555 1_555
O1 C5 1_555 1_555
Hg1 N2 1_555 1_555
Br1 Hg1 1_555 1_555
C1A H1A 1_555 1_555
C2A C1A 1_555 1_555
H2A C2A 1_555 1_555
C3A H3A 1_555 1_555
C4A C3A 1_555 1_555
C5A C4A 1_555 1_555
N1A C1A 1_555 1_555
N2A Hg1 1_555 1_555
N3A C5A 1_555 1_555
H4A N3A 1_555 1_555
H5A N3A 1_555 1_555
O1A C5A 1_555 1_555
Hg1_2 Br1 1_555 1_555
Hg1_3 Br1_2 1_555 1_555
Br1_2 Hg1 1_555 1_555
Br1A Hg1 1_555 1_555
Br1A_2 Hg1 1_555 1_555
C3 N2 1_555 1_555
C4 N1 1_555 1_555
C2A N2A 1_555 1_555
C3A N2A 1_555 1_555
C4A N1A 1_555 1_555
Hg1_2 Br1A 1_555 1_555
Hg1_3 Br1A_2 1_555 1_555

#END
