
#######################################################################
#
#                 Cambridge Crystallographic Data Centre
#                                CCDC 
#
#######################################################################
#
# If this CIF has been generated from an entry in the Cambridge 
# Structural Database, then it will include bibliographic, chemical, 
# crystal, experimental, refinement or atomic coordinate data resulting 
# from the CCDC's data processing and validation procedures.
#
#######################################################################

data_DULXEP
_symmetry_cell_setting           monoclinic
_symmetry_space_group_name_H-M   'P 21/n'
_symmetry_Int_Tables_number      14
_space_group_name_Hall           '-P 2yn'
loop_
_symmetry_equiv_pos_site_id
_symmetry_equiv_pos_as_xyz
1 x,y,z
2 1/2-x,1/2+y,1/2-z
3 -x,-y,-z
4 1/2+x,1/2-y,1/2+z
_cell_length_a                   7.6641(19)
_cell_length_b                   16.864(4)
_cell_length_c                   18.954(5)
_cell_angle_alpha                90
_cell_angle_beta                 98.7700(10)
_cell_angle_gamma                90
_cell_volume                     2421.11
loop_
_atom_site_label
_atom_site_type_symbol
_atom_site_fract_x
_atom_site_fract_y
_atom_site_fract_z
C1 C 1.0065(5) 0.8152(2) -0.04227(19)
C2 C 1.1458(5) 0.7804(2) -0.0823(2)
H1 H 1.1897 0.7310 -0.0602
H2 H 1.2442 0.8169 -0.0805
C3 C 1.0647(5) 0.7657(2) -0.1594(2)
C4 C 1.0561(5) 0.8250(2) -0.2095(2)
H3 H 1.1051 0.8743 -0.1964
C5 C 0.9758(5) 0.8126(2) -0.2787(2)
H4 H 0.9717 0.8538 -0.3116
C6 C 0.9012(5) 0.7403(2) -0.30032(19)
C7 C 0.9120(5) 0.6806(2) -0.2495(2)
H5 H 0.8640 0.6310 -0.2623
C8 C 0.9918(5) 0.6932(2) -0.1807(2)
H6 H 0.9970 0.6521 -0.1477
C9 C 0.8176(5) 0.7270(2) -0.3768(2)
H7 H 0.7867 0.7777 -0.3996
H8 H 0.7102 0.6963 -0.3780
C10 C 0.9451(5) 0.6832(2) -0.4171(2)
C11 C 1.0130(5) 0.9494(2) 0.1448(2)
H9 H 1.0648 0.9778 0.1114
C12 C 0.8505(5) 0.8696(2) 0.1881(2)
H10 H 0.7669 0.8313 0.1942
C13 C 0.9446(6) 0.9030(2) 0.3168(2)
H11 H 1.0625 0.8937 0.3422
H12 H 0.8708 0.8588 0.3264
C14 C 0.8735(6) 0.9774(2) 0.3436(2)
H13 H 0.8599 0.9711 0.3934
H14 H 0.9549 1.0208 0.3402
C15 C 0.6257(6) 1.0597(3) 0.3309(2)
H15 H 0.6961 1.1071 0.3285
H16 H 0.6165 1.0496 0.3806
C16 C 0.4488(6) 1.0716(3) 0.2901(2)
H17 H 0.3893 1.0208 0.2841
H18 H 0.3817 1.1054 0.3176
C17 C 0.4226(5) 1.0724(2) 0.1560(2)
H19 H 0.4129 1.0179 0.1487
C18 C 0.4346(5) 1.1943(2) 0.1412(2)
H20 H 0.4321 1.2434 0.1188
Cd1 Cd 0.72239(3) 0.876633(15) 0.014393(14)
N1 N 0.8858(4) 0.89478(17) 0.12574(16)
N2 N 0.9511(4) 0.90689(18) 0.24030(17)
N3 N 1.0585(4) 0.95945(19) 0.21370(19)
N4 N 0.4130(4) 1.12566(18) 0.10454(16)
N5 N 0.4479(4) 1.1074(2) 0.21942(18)
N6 N 0.4594(4) 1.1870(2) 0.2108(2)
O1 O 0.8955(3) 0.76958(14) -0.02118(14)
O2 O 0.9999(3) 0.88907(14) -0.03349(14)
O3 O 0.9588(4) 0.60981(15) -0.41198(15)
O4 O 1.0408(4) 0.72209(16) -0.45150(15)
O5 O 0.7083(4) 0.99464(16) 0.30249(14)
O6 O 0.7122(3) 1.01317(14) 0.01306(14)
H21 H 0.6524 1.0302 -0.0254
H22 H 0.8155 1.0328 0.0177
Cd1B Cd 0.27761(3) 1.123367(15) -0.014393(14)
Cd1C Cd 1.22239(3) 0.623367(15) -0.485607(14)
N4B N 0.5870(4) 0.87434(18) -0.10454(16)
O3C O 0.4588(4) 0.89019(15) 0.08802(15)
O4C O 0.5408(4) 0.77791(16) 0.04850(15)
O7 O 0.4831(4) 0.37714(16) 0.99315(18)
H23 H 0.4780 0.3289 0.9801
H24 H 0.3910 0.4017 0.9740
O8 O 0.7812(4) 0.44801(18) 0.94862(19)
H25 H 0.7978 0.4974 0.9554
H26 H 0.6961 0.4328 0.9693
O9 O 0.8872(4) 0.60713(15) 0.98425(17)
H27 H 0.9917 0.5980 1.0048
H28 H 0.8907 0.6356 0.9475
loop_
_geom_bond_atom_site_label_1
_geom_bond_atom_site_label_2
_geom_bond_site_symmetry_1
_geom_bond_site_symmetry_2
C1 C2 1_555 1_555
C2 H1 1_555 1_555
H2 C2 1_555 1_555
C3 C2 1_555 1_555
C4 C3 1_555 1_555
H3 C4 1_555 1_555
C5 C4 1_555 1_555
H4 C5 1_555 1_555
C6 C5 1_555 1_555
C7 C6 1_555 1_555
H5 C7 1_555 1_555
C8 C3 1_555 1_555
H6 C8 1_555 1_555
C9 C6 1_555 1_555
H7 C9 1_555 1_555
H8 C9 1_555 1_555
C10 C9 1_555 1_555
C11 H9 1_555 1_555
C12 H10 1_555 1_555
C13 H11 1_555 1_555
H12 C13 1_555 1_555
C14 C13 1_555 1_555
H13 C14 1_555 1_555
H14 C14 1_555 1_555
C15 H15 1_555 1_555
H16 C15 1_555 1_555
C16 C15 1_555 1_555
H17 C16 1_555 1_555
H18 C16 1_555 1_555
C17 H19 1_555 1_555
C18 H20 1_555 1_555
Cd1 N1 1_555 1_555
N1 C11 1_555 1_555
N2 C12 1_555 1_555
N3 C11 1_555 1_555
N4 C17 1_555 1_555
N5 C16 1_555 1_555
N6 C18 1_555 1_555
O1 C1 1_555 1_555
O2 C1 1_555 1_555
O3 C10 1_555 1_555
O4 C10 1_555 1_555
O5 C14 1_555 1_555
O6 Cd1 1_555 1_555
H21 O6 1_555 1_555
H22 O6 1_555 1_555
O7 H23 1_555 1_555
H24 O7 1_555 1_555
O8 H25 1_555 1_555
H26 O8 1_555 1_555
O9 H27 1_555 1_555
H28 O9 1_555 1_555
Cd1B N4 1_555 1_555
Cd1C O3 1_555 1_555
N4B Cd1 1_555 1_555
O3C Cd1 1_555 1_555
O4C Cd1 1_555 1_555
C7 C8 1_555 1_555
C12 N1 1_555 1_555
C13 N2 1_555 1_555
C15 O5 1_555 1_555
C17 N5 1_555 1_555
C18 N4 1_555 1_555
Cd1 O1 1_555 1_555
Cd1 O2 1_555 1_555
N2 N3 1_555 1_555
N5 N6 1_555 1_555
O4 Cd1C 1_555 1_555

#END
