
#######################################################################
#
#                 Cambridge Crystallographic Data Centre
#                                CCDC 
#
#######################################################################
#
# If this CIF has been generated from an entry in the Cambridge 
# Structural Database, then it will include bibliographic, chemical, 
# crystal, experimental, refinement or atomic coordinate data resulting 
# from the CCDC's data processing and validation procedures.
#
#######################################################################

data_DUMCAQ
_symmetry_cell_setting           monoclinic
_symmetry_space_group_name_H-M   'P 21/n'
_symmetry_Int_Tables_number      14
_space_group_name_Hall           '-P 2yn'
loop_
_symmetry_equiv_pos_site_id
_symmetry_equiv_pos_as_xyz
1 x,y,z
2 1/2-x,1/2+y,1/2-z
3 -x,-y,-z
4 1/2+x,1/2-y,1/2+z
_cell_length_a                   8.0336(16)
_cell_length_b                   10.386(2)
_cell_length_c                   13.766(3)
_cell_angle_alpha                90
_cell_angle_beta                 93.72(3)
_cell_angle_gamma                90
_cell_volume                     1146.17
loop_
_atom_site_label
_atom_site_type_symbol
_atom_site_fract_x
_atom_site_fract_y
_atom_site_fract_z
Pb1 Pb 0.25237(3) 1.03613(3) 1.006155(19)
O1 O 0.0180(7) 0.9406(6) 0.8924(4)
N1 N 0.3296(8) 0.8553(6) 0.8814(5)
N2 N 0.1664(8) 0.8074(6) 1.0764(5)
O2 O 0.4781(8) 0.9011(6) 1.0862(5)
N3 N 0.0078(8) 0.7670(7) 1.0745(5)
O3 O -0.0827(8) 0.7546(6) 0.8339(6)
O4 O 0.5838(9) 0.7035(7) 1.1022(7)
N4 N 0.4876(9) 0.8212(8) 0.8732(6)
C1 C 0.5237(12) 0.7161(9) 0.8257(7)
H1 H 0.6349 0.6937 0.8203
C2 C 0.2380(10) 0.6694(8) 0.7923(6)
H2 H 0.1517 0.6183 0.7656
C3 C -0.0251(11) 0.6477(9) 1.0961(7)
H3 H -0.1358 0.6214 1.0959
C4 C 0.0322(10) 0.8273(8) 0.8564(6)
C5 C 0.2049(9) 0.7810(7) 0.8424(5)
C6 C 0.2885(10) 0.7262(8) 1.0976(6)
C7 C 0.3974(11) 0.6369(9) 0.7831(6)
H4 H 0.4240 0.5631 0.7492
C8 C 0.4639(10) 0.7783(8) 1.0958(6)
C9 C 0.2584(14) 0.5976(9) 1.1172(9)
H5 H 0.3460 0.5399 1.1286
C10 C 0.1003(13) 0.5593(10) 1.1192(9)
H6 H 0.0747 0.4751 1.1357
Pb1B Pb -0.25237(3) 0.96387(3) 0.993845(19)
Pb1B_2 Pb 0.74763(3) 0.96387(3) 0.993845(19)
O1B O -0.0180(7) 1.0594(6) 1.1076(4)
O2B O 0.5219(8) 1.0989(6) 0.9138(5)
loop_
_geom_bond_atom_site_label_1
_geom_bond_atom_site_label_2
_geom_bond_site_symmetry_1
_geom_bond_site_symmetry_2
Pb1 O1 1_555 1_555
O1 C4 1_555 1_555
N1 Pb1 1_555 1_555
N2 Pb1 1_555 1_555
O2 Pb1 1_555 1_555
N3 N2 1_555 1_555
O3 C4 1_555 1_555
O4 C8 1_555 1_555
N4 N1 1_555 1_555
C1 N4 1_555 1_555
H1 C1 1_555 1_555
C2 H2 1_555 1_555
C3 N3 1_555 1_555
H3 C3 1_555 1_555
C4 C5 1_555 1_555
C5 N1 1_555 1_555
C6 N2 1_555 1_555
C7 C1 1_555 1_555
H4 C7 1_555 1_555
C8 O2 1_555 1_555
C9 C6 1_555 1_555
H5 C9 1_555 1_555
C10 C3 1_555 1_555
H6 C10 1_555 1_555
Pb1B O1 1_555 1_555
Pb1B_2 O2 1_555 1_555
O1B Pb1 1_555 1_555
O2B Pb1 1_555 1_555
C2 C5 1_555 1_555
C2 C7 1_555 1_555
C6 C8 1_555 1_555
C9 C10 1_555 1_555
Pb1B O1B 1_555 1_555
Pb1B_2 O2B 1_555 1_555

#END
