
#######################################################################
#
#                 Cambridge Crystallographic Data Centre
#                                CCDC 
#
#######################################################################
#
# If this CIF has been generated from an entry in the Cambridge 
# Structural Database, then it will include bibliographic, chemical, 
# crystal, experimental, refinement or atomic coordinate data resulting 
# from the CCDC's data processing and validation procedures.
#
#######################################################################

data_DUMFAU
_symmetry_cell_setting           monoclinic
_symmetry_space_group_name_H-M   'P 21/c'
_symmetry_Int_Tables_number      14
_space_group_name_Hall           '-P 2ybc'
loop_
_symmetry_equiv_pos_site_id
_symmetry_equiv_pos_as_xyz
1 x,y,z
2 -x,1/2+y,1/2-z
3 -x,-y,-z
4 x,1/2-y,1/2+z
_cell_length_a                   12.7854(10)
_cell_length_b                   10.5316(9)
_cell_length_c                   24.534(2)
_cell_angle_alpha                90
_cell_angle_beta                 97.8160(10)
_cell_angle_gamma                90
_cell_volume                     3272.83
loop_
_atom_site_label
_atom_site_type_symbol
_atom_site_fract_x
_atom_site_fract_y
_atom_site_fract_z
Fe1 Fe 0.01994(3) 0.01145(3) 0.246276(18)
N1 N 0.1606(2) 0.0662(2) 0.21632(11)
O1 O -0.0605(3) -0.0058(2) 0.32434(15)
N2 N -0.0104(3) 0.0085(3) 0.15665(15)
N3 N 0.1380(3) 0.0514(3) 0.31725(11)
N4 N -0.0359(2) 0.2040(2) 0.24626(11)
O2 O -0.1543(2) -0.0552(3) 0.22005(18)
C1 C 0.1625(4) 0.0690(3) 0.16168(17)
C2 C 0.2442(3) 0.1014(3) 0.25056(19)
C3 C 0.3374(4) 0.1407(4) 0.2306(3)
H1 H 0.3963 0.1663 0.2546
C4 C 0.0633(5) 0.0329(4) 0.12917(16)
C5 C 0.2548(6) 0.1066(5) 0.1414(3)
H2 H 0.2567 0.1079 0.1037
C6 C -0.1144(5) -0.0263(5) 0.1290(3)
H3 H -0.1164 -0.1159 0.1198
H4 H -0.1313 0.0222 0.0954
C7 C 0.2282(3) 0.0970(3) 0.3084(2)
C8 C -0.2166(4) -0.0344(5) 0.2637(4)
H5 H -0.2825 -0.0811 0.2567
H6 H -0.2326 0.0551 0.2666
C9 C 0.0530(7) 0.0268(6) 0.06668(18)
H7 H 0.0261 -0.0549 0.0543
H8 H 0.1210 0.0397 0.0551
H9 H 0.0053 0.0918 0.0511
C10 C 0.3387(6) 0.1399(6) 0.1752(5)
H10 H 0.3998 0.1634 0.1611
C11 C -0.1534(6) -0.0798(5) 0.3154(4)
H11 H -0.1935 -0.0705 0.3460
H12 H -0.1357 -0.1688 0.3121
C12 C 0.1058(5) 0.0417(5) 0.37213(16)
H13 H 0.0859 0.1249 0.3843
H14 H 0.1642 0.0106 0.3981
C13 C 0.0160(7) -0.0455(5) 0.3701(2)
H15 H 0.0385 -0.1320 0.3648
H16 H -0.0144 -0.0414 0.4042
C14 C 0.3113(4) 0.1466(6) 0.3531(3)
H17 H 0.2938 0.1220 0.3884
H18 H 0.3142 0.2375 0.3509
H19 H 0.3788 0.1117 0.3482
C15 C -0.1920(5) 0.0026(5) 0.1682(4)
H20 H -0.1982 0.0937 0.1727
H21 H -0.2610 -0.0309 0.1540
C16 C -0.0448(2) 0.3109(2) 0.24860(12)
Fe1A Fe -0.01994(3) 0.51145(3) 0.253724(18)
C16A C 0.0448(2) -0.1891(2) 0.25140(12)
O3 O 0.2238(5) 0.7916(6) -0.03582(18)
C17 C 0.4108(3) 0.8183(4) 0.12395(16)
H22 H 0.4803 0.8466 0.1267
N5 N 0.4259(2) 0.8421(3) 0.22179(13)
N6 N 0.3814(3) 0.8159(3) 0.26187(14)
C18 C 0.2040(3) 0.7394(3) 0.11548(18)
H23 H 0.1341 0.7130 0.1126
C19 C 0.2541(4) 0.7492(4) 0.06834(16)
C20 C 0.2584(3) 0.7690(3) 0.16596(16)
H24 H 0.2248 0.7637 0.1972
C21 C 0.3576(4) 0.7888(4) 0.07392(17)
H25 H 0.3916 0.7954 0.0429
C22 C 0.3629(3) 0.8067(3) 0.17079(15)
C23 C 0.5374(4) 0.9126(4) 0.41787(19)
C24 C 0.4389(3) 0.8536(4) 0.31331(15)
C25 C 0.5274(3) 0.9310(4) 0.31983(16)
H26 H 0.5538 0.9635 0.2892
O4 O 0.0754(4) 0.7228(5) 0.0077(2)
C26 C 0.3983(4) 0.8120(5) 0.35838(18)
H27 H 0.3359 0.7653 0.3543
C27 C 0.4500(5) 0.8390(6) 0.4107(2)
H28 H 0.4239 0.8059 0.4413
S1 S 0.18597(13) 0.70687(15) 0.00311(6)
C28 C 0.5759(3) 0.9594(4) 0.37165(19)
H29 H 0.6355 1.0109 0.3759
N7 N 0.5871(4) 0.9400(5) 0.46959(17)
H30 H 0.6442 0.9836 0.4699
H31 H 0.5646 0.9275 0.5011
O5 O 0.2161(4) 0.5795(4) -0.00504(18)
O6 O -0.1344(4) 0.6690(6) -0.0108(2)
H32 H -0.1510 0.5926 -0.0049
H33 H -0.0677 0.6763 -0.0039
O7 O 0.7017(7) 0.8008(9) 0.0160(4)
H34 H 0.6566 0.7438 0.0050
H35 H 0.7621 0.7739 0.0106
O8 O 0.6046(10) 1.0002(10) 0.0401(4)
H36 H 0.6491 1.0599 0.0392
H37 H 0.6334 0.9312 0.0320
loop_
_geom_bond_atom_site_label_1
_geom_bond_atom_site_label_2
_geom_bond_site_symmetry_1
_geom_bond_site_symmetry_2
Fe1 N1 1_555 1_555
N1 C1 1_555 1_555
O1 Fe1 1_555 1_555
N2 Fe1 1_555 1_555
N3 Fe1 1_555 1_555
N4 Fe1 1_555 1_555
O2 Fe1 1_555 1_555
C1 C4 1_555 1_555
C2 N1 1_555 1_555
C3 C2 1_555 1_555
H1 C3 1_555 1_555
C4 N2 1_555 1_555
C5 C1 1_555 1_555
H2 C5 1_555 1_555
C6 N2 1_555 1_555
H3 C6 1_555 1_555
H4 C6 1_555 1_555
C7 N3 1_555 1_555
C8 O2 1_555 1_555
H5 C8 1_555 1_555
H6 C8 1_555 1_555
C9 C4 1_555 1_555
H7 C9 1_555 1_555
H8 C9 1_555 1_555
H9 C9 1_555 1_555
C10 C3 1_555 1_555
H10 C10 1_555 1_555
C11 O1 1_555 1_555
H11 C11 1_555 1_555
H12 C11 1_555 1_555
C12 N3 1_555 1_555
H13 C12 1_555 1_555
H14 C12 1_555 1_555
C13 O1 1_555 1_555
H15 C13 1_555 1_555
H16 C13 1_555 1_555
C14 C7 1_555 1_555
H17 C14 1_555 1_555
H18 C14 1_555 1_555
H19 C14 1_555 1_555
C15 O2 1_555 1_555
H20 C15 1_555 1_555
H21 C15 1_555 1_555
C16 N4 1_555 1_555
O3 S1 1_555 1_555
C17 H22 1_555 1_555
N5 N6 1_555 1_555
N6 C24 1_555 1_555
C18 H23 1_555 1_555
C19 C18 1_555 1_555
C20 C18 1_555 1_555
H24 C20 1_555 1_555
C21 C17 1_555 1_555
H25 C21 1_555 1_555
C22 C17 1_555 1_555
C23 C27 1_555 1_555
C24 C25 1_555 1_555
C25 H26 1_555 1_555
O4 S1 1_555 1_555
C26 C24 1_555 1_555
H27 C26 1_555 1_555
C27 C26 1_555 1_555
H28 C27 1_555 1_555
S1 C19 1_555 1_555
C28 C23 1_555 1_555
H29 C28 1_555 1_555
N7 C23 1_555 1_555
H30 N7 1_555 1_555
H31 N7 1_555 1_555
O5 S1 1_555 1_555
O6 H32 1_555 1_555
H33 O6 1_555 1_555
O7 H34 1_555 1_555
H35 O7 1_555 1_555
O8 H36 1_555 1_555
H37 O8 1_555 1_555
Fe1A C16 1_555 1_555
C16A Fe1 1_555 1_555
C2 C7 1_555 1_555
C5 C10 1_555 1_555
C6 C15 1_555 1_555
C8 C11 1_555 1_555
C12 C13 1_555 1_555
N5 C22 1_555 1_555
C19 C21 1_555 1_555
C20 C22 1_555 1_555
C25 C28 1_555 1_555

#END
