
#######################################################################
#
#                 Cambridge Crystallographic Data Centre
#                                CCDC 
#
#######################################################################
#
# If this CIF has been generated from an entry in the Cambridge 
# Structural Database, then it will include bibliographic, chemical, 
# crystal, experimental, refinement or atomic coordinate data resulting 
# from the CCDC's data processing and validation procedures.
#
#######################################################################

data_DUMGAV
_symmetry_cell_setting           orthorhombic
_symmetry_space_group_name_H-M   'P c c n'
_symmetry_Int_Tables_number      56
_space_group_name_Hall           '-P 2ab 2ac'
loop_
_symmetry_equiv_pos_site_id
_symmetry_equiv_pos_as_xyz
1 x,y,z
2 1/2-x,1/2-y,z
3 -x,1/2+y,1/2-z
4 1/2+x,-y,1/2-z
5 -x,-y,-z
6 1/2+x,1/2+y,-z
7 x,1/2-y,1/2+z
8 1/2-x,y,1/2+z
_cell_length_a                   12.8995(5)
_cell_length_b                   18.6577(8)
_cell_length_c                   7.1839(3)
_cell_angle_alpha                90
_cell_angle_beta                 90
_cell_angle_gamma                90
_cell_volume                     1728.99
loop_
_atom_site_label
_atom_site_type_symbol
_atom_site_fract_x
_atom_site_fract_y
_atom_site_fract_z
Co1 Co 1.0000 0.5000 0.0000
C1 C 0.80067(11) 0.58970(7) 0.0138(2)
H1 H 0.7697 0.5451 -0.0027
C2 C 0.73792(10) 0.64959(7) 0.01899(19)
H2 H 0.6666 0.6450 0.0048
C3 C 0.78201(9) 0.71693(6) 0.04554(17)
C4 C 0.88879(9) 0.71966(7) 0.0686(2)
H3 H 0.9217 0.7632 0.0901
C5 C 0.94580(10) 0.65713(7) 0.0593(2)
H4 H 1.0173 0.6602 0.0731
C6 C 0.91017(9) 0.40876(6) 0.30618(18)
C7 C 0.82023(10) 0.36426(7) 0.3822(2)
H5 H 0.7690 0.3960 0.4365
H6 H 0.7875 0.3386 0.2806
C8 C 0.85433(11) 0.31330(8) 0.52194(19)
N1 N 0.90405(8) 0.59261(6) 0.03151(16)
N2 N 0.88186(11) 0.27373(8) 0.6318(2)
O1 O 0.89359(7) 0.43921(5) 0.15319(13)
O2 O 0.99070(7) 0.41213(6) 0.40190(16)
O3 O 1.08430(8) 0.52419(6) 0.24923(13)
H7 H 1.0616(15) 0.5615(7) 0.324(2)
H8 H 1.0649(17) 0.4812(6) 0.309(3)
C1A C 0.69933(11) 0.91030(7) 0.0138(2)
H1A H 0.7303 0.9549 -0.0027
C2A C 0.76208(10) 0.85041(7) 0.01899(19)
H2A H 0.8334 0.8550 0.0048
C3A C 0.71799(9) 0.78307(6) 0.04554(17)
C4A C 0.61121(9) 0.78034(7) 0.0686(2)
H3A H 0.5783 0.7368 0.0901
C5A C 0.55420(10) 0.84287(7) 0.0593(2)
H4A H 0.4827 0.8398 0.0731
N1A N 0.59595(8) 0.90739(6) 0.03151(16)
C6D C 1.08983(9) 0.59124(6) -0.30618(18)
C7D C 1.17977(10) 0.63574(7) -0.3822(2)
H5D H 1.2310 0.6040 -0.4365
H6D H 1.2125 0.6614 -0.2806
C8D C 1.14567(11) 0.68670(8) -0.52194(19)
N2D N 1.11814(11) 0.72627(8) -0.6318(2)
O1D O 1.10641(7) 0.56079(5) -0.15319(13)
O2D O 1.00930(7) 0.58787(6) -0.40190(16)
O3D O 0.91570(8) 0.47581(6) -0.24923(13)
H7D H 0.9384(15) 0.4385(7) -0.324(2)
H8D H 0.9351(17) 0.5188(6) -0.309(3)
Co1A Co 0.5000 1.0000 0.0000
N1D N 1.09595(8) 0.40739(6) -0.03151(16)
loop_
_geom_bond_atom_site_label_1
_geom_bond_atom_site_label_2
_geom_bond_site_symmetry_1
_geom_bond_site_symmetry_2
Co1 N1 1_555 1_555
C1 H1 1_555 1_555
C2 C1 1_555 1_555
H2 C2 1_555 1_555
C3 C2 1_555 1_555
C4 C3 1_555 1_555
H3 C4 1_555 1_555
C5 C4 1_555 1_555
H4 C5 1_555 1_555
C6 C7 1_555 1_555
C7 H5 1_555 1_555
H6 C7 1_555 1_555
C8 C7 1_555 1_555
N1 C1 1_555 1_555
N2 C8 1_555 1_555
O1 Co1 1_555 1_555
O2 C6 1_555 1_555
O3 Co1 1_555 1_555
H7 O3 1_555 1_555
H8 O3 1_555 1_555
C1A H1A 1_555 1_555
C2A C1A 1_555 1_555
H2A C2A 1_555 1_555
C3A C3 1_555 1_555
C4A C3A 1_555 1_555
H3A C4A 1_555 1_555
C5A C4A 1_555 1_555
H4A C5A 1_555 1_555
N1A C1A 1_555 1_555
C6D C7D 1_555 1_555
C7D H5D 1_555 1_555
H6D C7D 1_555 1_555
C8D C7D 1_555 1_555
N2D C8D 1_555 1_555
O1D Co1 1_555 1_555
O2D C6D 1_555 1_555
O3D Co1 1_555 1_555
H7D O3D 1_555 1_555
H8D O3D 1_555 1_555
Co1A N1A 1_555 1_555
N1D Co1 1_555 1_555
C5 N1 1_555 1_555
C6 O1 1_555 1_555
C2A C3A 1_555 1_555
C5A N1A 1_555 1_555
C6D O1D 1_555 1_555

#END
