
#######################################################################
#
#                 Cambridge Crystallographic Data Centre
#                                CCDC 
#
#######################################################################
#
# If this CIF has been generated from an entry in the Cambridge 
# Structural Database, then it will include bibliographic, chemical, 
# crystal, experimental, refinement or atomic coordinate data resulting 
# from the CCDC's data processing and validation procedures.
#
#######################################################################

data_DUMGAU
_symmetry_cell_setting           triclinic
_symmetry_space_group_name_H-M   'P -1'
_symmetry_Int_Tables_number      2
_space_group_name_Hall           '-P 1'
loop_
_symmetry_equiv_pos_site_id
_symmetry_equiv_pos_as_xyz
1 x,y,z
2 -x,-y,-z
_cell_length_a                   7.7729(16)
_cell_length_b                   9.1648(18)
_cell_length_c                   11.458(2)
_cell_angle_alpha                102.76(3)
_cell_angle_beta                 97.70(3)
_cell_angle_gamma                94.96(3)
_cell_volume                     783.191
loop_
_atom_site_label
_atom_site_type_symbol
_atom_site_fract_x
_atom_site_fract_y
_atom_site_fract_z
Cd1 Cd 0.32811(14) 0.19007(13) 0.58926(9)
O1 O 0.1397(12) 0.1778(11) 0.7248(7)
O2 O -0.1244(11) 0.1608(11) 0.7803(8)
O3 O 0.5202(9) 0.0812(8) 0.7112(7)
O4 O 0.4501(13) 0.4197(11) 0.7028(8)
N1 N -0.1716(14) 0.7274(13) 0.5549(9)
N2 N 0.0418(16) 0.7573(12) 0.7100(10)
H1 H 0.1247 0.8019 0.7676
N3 N 0.6296(17) 0.5826(15) 0.8605(11)
C1 C -0.0542(18) 0.8220(17) 0.6334(13)
H2 H -0.0382 0.9245 0.6362
C2 C -0.1506(16) 0.5900(15) 0.5837(12)
C3 C -0.2450(15) 0.4482(15) 0.5278(10)
H3 H -0.3353 0.4370 0.4633
C4 C -0.1988(17) 0.3261(16) 0.5722(11)
C5 C -0.0634(17) 0.3421(14) 0.6700(11)
C6 C 0.0295(17) 0.4860(17) 0.7241(12)
H4 H 0.1203 0.4999 0.7887
C7 C -0.0192(16) 0.6032(16) 0.6778(10)
C8 C -0.0144(18) 0.2164(15) 0.7258(12)
C9 C 0.758(3) 0.606(2) 0.9664(14)
H5 H 0.7649 0.5123 0.9907
H6 H 0.7250 0.6793 1.0306
H7 H 0.8693 0.6407 0.9491
C10 C 0.587(2) 0.713(2) 0.8183(16)
H8 H 0.5613 0.6868 0.7313
H9 H 0.6835 0.7907 0.8445
H10 H 0.4859 0.7477 0.8506
C11 C 0.560(2) 0.4477(19) 0.7957(13)
H11 H 0.5975 0.3655 0.8226
C12 C -0.2912(17) 0.1756(17) 0.5120(11)
O7 O -0.2155(12) 0.0562(10) 0.5048(7)
O8 O -0.4532(9) 0.1698(8) 0.4625(7)
H16 H 0.6279 0.1081 0.7315
H17 H 0.4982 -0.0084 0.6711
Cd1A Cd -0.32811(14) 0.80993(13) 0.41074(9)
Cd1A_2 Cd -0.32811(14) -0.19007(13) 0.41074(9)
Cd1_2 Cd -0.67189(14) 0.19007(13) 0.58926(9)
N1A N 0.1716(14) 0.2726(13) 0.4451(9)
O7A O 0.2155(12) -0.0562(10) 0.4952(7)
O8_2 O 0.5468(9) 0.1698(8) 0.4625(7)
O5 O 0.7681(13) 0.2252(9) 1.0089(11)
H12 H 0.8465 0.2124 0.9650
H13 H 0.6998 0.1446 0.9891
O6 O 0.2935(7) 0.0032(12) 0.8739(9)
H14 H 0.3906 0.0207 0.8522
H15 H 0.2273 0.0510 0.8364
loop_
_geom_bond_atom_site_label_1
_geom_bond_atom_site_label_2
_geom_bond_site_symmetry_1
_geom_bond_site_symmetry_2
Cd1 O1 1_555 1_555
O1 C8 1_555 1_555
O2 C8 1_555 1_555
O3 Cd1 1_555 1_555
O4 Cd1 1_555 1_555
N1 C1 1_555 1_555
N2 H1 1_555 1_555
N3 C9 1_555 1_555
C1 N2 1_555 1_555
H2 C1 1_555 1_555
C2 N1 1_555 1_555
C3 C2 1_555 1_555
H3 C3 1_555 1_555
C4 C3 1_555 1_555
C5 C4 1_555 1_555
C6 C5 1_555 1_555
H4 C6 1_555 1_555
C7 N2 1_555 1_555
C8 C5 1_555 1_555
C9 H5 1_555 1_555
H6 C9 1_555 1_555
H7 C9 1_555 1_555
C10 N3 1_555 1_555
H8 C10 1_555 1_555
H9 C10 1_555 1_555
H10 C10 1_555 1_555
C11 O4 1_555 1_555
H11 C11 1_555 1_555
O5 H12 1_555 1_555
H13 O5 1_555 1_555
O6 H14 1_555 1_555
H15 O6 1_555 1_555
C12 C4 1_555 1_555
O7 C12 1_555 1_555
O8 C12 1_555 1_555
H16 O3 1_555 1_555
H17 O3 1_555 1_555
Cd1A N1 1_555 1_555
Cd1A_2 O7 1_555 1_555
Cd1_2 O8 1_555 1_555
N1A Cd1 1_555 1_555
O7A Cd1 1_555 1_555
O8_2 Cd1 1_555 1_555
N3 C11 1_555 1_555
C2 C7 1_555 1_555
C6 C7 1_555 1_555

#END
