
#######################################################################
#
#                 Cambridge Crystallographic Data Centre
#                                CCDC 
#
#######################################################################
#
# If this CIF has been generated from an entry in the Cambridge 
# Structural Database, then it will include bibliographic, chemical, 
# crystal, experimental, refinement or atomic coordinate data resulting 
# from the CCDC's data processing and validation procedures.
#
#######################################################################

data_DUMGOI
_symmetry_cell_setting           rhombohedral
_symmetry_space_group_name_H-M   'R 3 c'
_symmetry_Int_Tables_number      161
_space_group_name_Hall           'R 3 -2"c'
loop_
_symmetry_equiv_pos_site_id
_symmetry_equiv_pos_as_xyz
1 x,y,z
2 -y,x-y,z
3 -x+y,-x,z
4 -x+y,y,1/2+z
5 x,x-y,1/2+z
6 -y,-x,1/2+z
7 2/3+x,1/3+y,1/3+z
8 2/3-y,1/3+x-y,1/3+z
9 2/3-x+y,1/3-x,1/3+z
10 2/3-x+y,1/3+y,5/6+z
11 2/3+x,1/3+x-y,5/6+z
12 2/3-y,1/3-x,5/6+z
13 1/3+x,2/3+y,2/3+z
14 1/3-y,2/3+x-y,2/3+z
15 1/3-x+y,2/3-x,2/3+z
16 1/3-x+y,2/3+y,1/6+z
17 1/3+x,2/3+x-y,1/6+z
18 1/3-y,2/3-x,1/6+z
_cell_length_a                   10.1478(18)
_cell_length_b                   10.1478(18)
_cell_length_c                   37.420(13)
_cell_angle_alpha                90
_cell_angle_beta                 90
_cell_angle_gamma                120
_cell_volume                     3337.17
loop_
_atom_site_label
_atom_site_type_symbol
_atom_site_fract_x
_atom_site_fract_y
_atom_site_fract_z
Mn1 Mn 0.6667 0.3333 0.87519(2)
Na1 Na 0.3333 0.6666 0.79708(5)
N1 N 0.2802(4) 0.2664(3) 0.93953(7)
H1 H 0.3095 0.2345 0.9589
O1 O 0.4031(3) 0.5075(3) 0.82611(6)
O2 O 0.5546(4) 0.4265(3) 0.84538(6)
O3 O 0.4942(4) 0.3001(3) 0.91404(6)
C1 C 0.4406(4) 0.4434(3) 0.84910(7)
C2 C 0.3415(4) 0.3827(3) 0.88206(8)
C3 C 0.3807(4) 0.3172(3) 0.91133(8)
C4 C 0.1510(7) 0.2717(6) 0.94099(12)
H2 H 0.0882 0.2336 0.9609
C5 C 0.1113(7) 0.3323(6) 0.91359(12)
H3 H 0.0210 0.3349 0.9141
C6 C 0.2109(7) 0.3908(6) 0.88440(12)
H4 H 0.1875 0.4369 0.8659
Na1O Na 0.6666 0.3333 0.96375(5)
Na1A Na 0.3334 -0.3333 0.79708(5)
Na1B Na 1.3333 0.6667 0.79708(5)
N1A N 0.7336(3) 0.0138(5) 0.93953(7)
N1B N 0.9862(5) 0.7198(4) 0.93953(7)
H1A H 0.7655 0.0750 0.9589
H1B H 0.9250 0.6905 0.9589
O1A O 0.4925(3) -0.1044(4) 0.82611(6)
O1B O 1.1044(4) 0.5969(3) 0.82611(6)
O1A_2 O 0.4925(3) 0.8956(4) 0.82611(6)
O1B_2 O 0.1044(4) 0.5969(3) 0.82611(6)
O2A O 0.5735(3) 0.1281(5) 0.84538(6)
O2B O 0.8719(5) 0.4454(4) 0.84538(6)
O3A O 0.6999(3) 0.1941(5) 0.91404(6)
O3B O 0.8059(5) 0.5058(4) 0.91404(6)
O3I O 0.4726(5) 0.6334(3) 0.74737(6)
O3J O 0.1609(4) 0.5274(5) 0.74737(6)
O3K O 0.3666(3) 0.8391(4) 0.74737(6)
C1A C 0.5566(3) -0.0028(5) 0.84910(7)
C1B C 1.0028(5) 0.5594(4) 0.84910(7)
C2A C 0.6173(3) -0.0412(5) 0.88206(8)
C2B C 1.0412(5) 0.6585(4) 0.88206(8)
C3A C 0.6828(3) 0.0635(5) 0.91133(8)
C3B C 0.9365(5) 0.6193(4) 0.91133(8)
C4A C 0.7283(6) -0.1207(9) 0.94099(12)
C4B C 1.1207(9) 0.8490(7) 0.94099(12)
H2A H 0.7664 -0.1454 0.9609
H2B H 1.1454 0.9118 0.9609
C5A C 0.6677(6) -0.2210(9) 0.91359(12)
C5B C 1.2210(9) 0.8887(7) 0.91359(12)
H3A H 0.6651 -0.3139 0.9141
H3B H 1.3139 0.9790 0.9141
C6A C 0.6092(6) -0.1799(9) 0.88440(12)
C6B C 1.1799(9) 0.7891(7) 0.88440(12)
H4A H 0.5631 -0.2494 0.8659
H4B H 1.2494 0.8125 0.8659
O4 O 0.6667 0.3333 0.6735(14)
H5? H 0.5895 0.3288 0.6601
O5? O 0.6667 0.3333 0.6459(14)
loop_
_geom_bond_atom_site_label_1
_geom_bond_atom_site_label_2
_geom_bond_site_symmetry_1
_geom_bond_site_symmetry_2
Mn1 O2 1_555 1_555
Na1 O1 1_555 1_555
N1 H1 1_555 1_555
O1 C1 1_555 1_555
O2 C1 1_555 1_555
O3 Mn1 1_555 1_555
C1 C2 1_555 1_555
C2 C3 1_555 1_555
C3 N1 1_555 1_555
C4 N1 1_555 1_555
H2 C4 1_555 1_555
C5 C4 1_555 1_555
H3 C5 1_555 1_555
C6 C2 1_555 1_555
H4 C6 1_555 1_555
Na1O O3 1_555 1_555
Na1A O1A 1_555 1_555
Na1B O1B 1_555 1_555
N1A H1A 1_555 1_555
N1B H1B 1_555 1_555
O1A C1A 1_555 1_555
O1B C1B 1_555 1_555
O1A_2 Na1 1_555 1_555
O1B_2 Na1 1_555 1_555
O2A Mn1 1_555 1_555
O2B Mn1 1_555 1_555
O3A Mn1 1_555 1_555
O3B Mn1 1_555 1_555
O3I Na1 1_555 1_555
O3J Na1 1_555 1_555
O3K Na1 1_555 1_555
C1A O2A 1_555 1_555
C1B O2B 1_555 1_555
C2A C1A 1_555 1_555
C2B C1B 1_555 1_555
C3A N1A 1_555 1_555
C3B N1B 1_555 1_555
C4A N1A 1_555 1_555
C4B N1B 1_555 1_555
H2A C4A 1_555 1_555
H2B C4B 1_555 1_555
C5A C4A 1_555 1_555
C5B C4B 1_555 1_555
H3A C5A 1_555 1_555
H3B C5B 1_555 1_555
C6A C2A 1_555 1_555
C6B C2B 1_555 1_555
H4A C6A 1_555 1_555
H4B C6B 1_555 1_555
O3 C3 1_555 1_555
C5 C6 1_555 1_555
Na1O O3A 1_555 1_555
Na1O O3B 1_555 1_555
O3A C3A 1_555 1_555
O3B C3B 1_555 1_555
C2A C3A 1_555 1_555
C2B C3B 1_555 1_555
C5A C6A 1_555 1_555
C5B C6B 1_555 1_555

#END
