
#######################################################################
#
#                 Cambridge Crystallographic Data Centre
#                                CCDC 
#
#######################################################################
#
# If this CIF has been generated from an entry in the Cambridge 
# Structural Database, then it will include bibliographic, chemical, 
# crystal, experimental, refinement or atomic coordinate data resulting 
# from the CCDC's data processing and validation procedures.
#
#######################################################################

data_DUMHEZ
_symmetry_cell_setting           monoclinic
_symmetry_space_group_name_H-M   'P 21/m'
_symmetry_Int_Tables_number      11
_space_group_name_Hall           '-P 2yb'
loop_
_symmetry_equiv_pos_site_id
_symmetry_equiv_pos_as_xyz
1 x,y,z
2 -x,1/2+y,-z
3 -x,-y,-z
4 x,1/2-y,z
_cell_length_a                   5.8640(12)
_cell_length_b                   18.510(4)
_cell_length_c                   6.3993(13)
_cell_angle_alpha                90
_cell_angle_beta                 104.42(3)
_cell_angle_gamma                90
_cell_volume                     672.715
loop_
_atom_site_label
_atom_site_type_symbol
_atom_site_fract_x
_atom_site_fract_y
_atom_site_fract_z
Cu1 Cu -0.50890(7) 0.2500 -0.44195(7)
S1 S -0.83431(16) 0.2500 -0.71812(15)
N1 N -0.5137(3) 0.16473(11) -0.2265(3)
N2 N -1.2068(5) 0.2500 -0.5169(5)
N3 N -0.7033(4) 0.00418(13) 0.3425(3)
N4 N -0.3006(4) 0.03426(13) 0.4828(3)
C1 C -0.7064(4) 0.12996(14) -0.2042(4)
H1 H -0.8441 0.1346 -0.3131
C2 C -0.5081(4) 0.07992(13) 0.1348(4)
C3 C -0.7118(4) 0.08763(14) -0.0286(4)
H2 H -0.8500 0.0646 -0.0198
C4 C -0.5051(4) 0.03705(13) 0.3302(4)
C5 C -0.3166(5) 0.15430(15) -0.0716(4)
H3 H -0.1789 0.1761 -0.0871
C6 C -0.3058(4) 0.11312(14) 0.1092(4)
H4 H -0.1643 0.1077 0.2129
C7 C -1.0503(6) 0.2500 -0.5953(5)
Cu1_2 Cu -1.50890(7) 0.2500 -0.44195(7)
Cu1A Cu -0.49110(7) -0.2500 1.44195(7)
N1B N -0.4863(3) -0.16473(11) 1.2265(3)
N1C N -0.5137(3) 0.33527(11) -0.2265(3)
N2_2 N -0.2068(5) 0.2500 -0.5169(5)
N3B N -0.2967(4) -0.00418(13) 0.6575(3)
N4B N -0.6994(4) -0.03426(13) 0.5172(3)
C1B C -0.2936(4) -0.12996(14) 1.2042(4)
H1B H -0.1559 -0.1346 1.3131
C2B C -0.4919(4) -0.07992(13) 0.8652(4)
C3B C -0.2882(4) -0.08763(14) 1.0286(4)
H2B H -0.1500 -0.0646 1.0198
C4B C -0.4949(4) -0.03705(13) 0.6698(4)
C5B C -0.6834(5) -0.15430(15) 1.0716(4)
H3B H -0.8211 -0.1761 1.0871
C6B C -0.6942(4) -0.11312(14) 0.8908(4)
H4B H -0.8357 -0.1077 0.7871
loop_
_geom_bond_atom_site_label_1
_geom_bond_atom_site_label_2
_geom_bond_site_symmetry_1
_geom_bond_site_symmetry_2
Cu1 S1 1_555 1_555
S1 C7 1_555 1_555
N1 Cu1 1_555 1_555
N2 C7 1_555 1_555
N3 C4 1_555 1_555
N4 C4 1_555 1_555
C1 N1 1_555 1_555
H1 C1 1_555 1_555
C2 C3 1_555 1_555
C3 C1 1_555 1_555
H2 C3 1_555 1_555
C4 C2 1_555 1_555
C5 N1 1_555 1_555
H3 C5 1_555 1_555
C6 C2 1_555 1_555
H4 C6 1_555 1_555
Cu1_2 N2 1_555 1_555
Cu1A N1B 1_555 1_555
N1B C1B 1_555 1_555
N1C Cu1 1_555 1_555
N2_2 Cu1 1_555 1_555
N3B N4 1_555 1_555
N4B N3 1_555 1_555
C1B H1B 1_555 1_555
C2B C3B 1_555 1_555
C3B C1B 1_555 1_555
H2B C3B 1_555 1_555
C4B N3B 1_555 1_555
C5B N1B 1_555 1_555
H3B C5B 1_555 1_555
C6B C2B 1_555 1_555
H4B C6B 1_555 1_555
C5 C6 1_555 1_555
N4B C4B 1_555 1_555
C2B C4B 1_555 1_555
C5B C6B 1_555 1_555

#END
