
#######################################################################
#
#                 Cambridge Crystallographic Data Centre
#                                CCDC 
#
#######################################################################
#
# If this CIF has been generated from an entry in the Cambridge 
# Structural Database, then it will include bibliographic, chemical, 
# crystal, experimental, refinement or atomic coordinate data resulting 
# from the CCDC's data processing and validation procedures.
#
#######################################################################

data_DUMJAY
_symmetry_cell_setting           orthorhombic
_symmetry_space_group_name_H-M   'P b c m'
_symmetry_Int_Tables_number      57
_space_group_name_Hall           '-P 2c 2b'
loop_
_symmetry_equiv_pos_site_id
_symmetry_equiv_pos_as_xyz
1 x,y,z
2 -x,-y,1/2+z
3 -x,1/2+y,1/2-z
4 x,1/2-y,-z
5 -x,-y,-z
6 x,y,1/2-z
7 x,1/2-y,1/2+z
8 -x,1/2+y,z
_cell_length_a                   7.7042(15)
_cell_length_b                   14.457(3)
_cell_length_c                   17.549(4)
_cell_angle_alpha                90
_cell_angle_beta                 90
_cell_angle_gamma                90
_cell_volume                     1954.6
loop_
_atom_site_label
_atom_site_type_symbol
_atom_site_fract_x
_atom_site_fract_y
_atom_site_fract_z
N1 N 0.4868(6) 0.1538(5) 0.5628(4)
Cd1 Cd 1.0000 0.0000 0.5000
C1 C 0.8972(5) 0.0452(3) 0.3147(2)
N2 N 0.8310(8) 0.0675(7) 0.2500
C2 C 0.6357(6) 0.1231(3) 0.5438(3)
N3 N 0.2099(5) 0.1165(3) 0.5082(2)
N4 N 0.7743(5) 0.1009(3) 0.5357(2)
N5 N 0.9464(5) 0.0313(3) 0.37423(19)
C3 C 0.3433(5) 0.1308(3) 0.5305(3)
C1E C 0.8972(5) 0.0452(3) 0.1853(2)
N5E N 0.9464(5) 0.0313(3) 0.12577(19)
N1D N 0.5132(6) -0.1538(5) 0.4372(4)
C2D C 0.3643(6) -0.1231(3) 0.4562(3)
N3D N 0.7901(5) -0.1165(3) 0.4918(2)
N4D N 0.2257(5) -0.1009(3) 0.4643(2)
C3D C 0.6567(5) -0.1308(3) 0.4695(3)
Cd1_2 Cd 0.0000 0.0000 0.5000
Cd1A Cd 1.0000 0.0000 0.0000
N3_2 N 1.2099(5) 0.1165(3) 0.5082(2)
N4D_2 N 1.2257(5) -0.1009(3) 0.4643(2)
N5D N 1.0536(5) -0.0313(3) 0.62577(19)
N6 N -0.0430(6) 0.1777(3) 0.7500
N7 N 0.3536(6) 0.3695(3) 0.7500
C4 C -0.2009(8) 0.1208(4) 0.7500
H1 H -0.2011 0.0813 0.7947
C5 C 0.2322(7) 0.3040(4) 0.7500
C6 C 0.1607(6) 0.2682(3) 0.6814(2)
H2 H 0.2064 0.2865 0.6348
C7 C 0.0266(5) 0.2076(3) 0.6834(2)
H3 H -0.0190 0.1858 0.6377
C8 C 0.4247(6) 0.4055(3) 0.8219(2)
H4 H 0.3315 0.4269 0.8537
H5 H 0.5023 0.4558 0.8114
H6 H 0.4867 0.3571 0.8478
C9 C -0.3625(10) 0.1798(5) 0.7500
H7 H -0.4632 0.1407 0.7500
H8 H -0.3635 0.2182 0.7053
H1E H -0.2011 0.0813 0.7053
H8E H -0.3635 0.2182 0.7947
C6E C 0.1607(6) 0.2682(3) 0.8186(2)
H2E H 0.2064 0.2865 0.8652
C7E C 0.0266(5) 0.2076(3) 0.8166(2)
H3E H -0.0190 0.1858 0.8623
C8E C 0.4247(6) 0.4055(3) 0.6781(2)
H4E H 0.3315 0.4269 0.6463
H5E H 0.5023 0.4558 0.6886
H6E H 0.4867 0.3571 0.6522
H9? H -0.2011 0.0813 0.7947
H10? H -0.3635 0.2182 0.7053
loop_
_geom_bond_atom_site_label_1
_geom_bond_atom_site_label_2
_geom_bond_site_symmetry_1
_geom_bond_site_symmetry_2
N1 C2 1_555 1_555
Cd1 N4 1_555 1_555
C1 N2 1_555 1_555
N2 C1E 1_555 1_555
C2 N4 1_555 1_555
N3 C3 1_555 1_555
N5 Cd1 1_555 1_555
C3 N1 1_555 1_555
N6 C4 1_555 1_555
N7 C5 1_555 1_555
C4 H1 1_555 1_555
C5 C6 1_555 1_555
C6 H2 1_555 1_555
C7 N6 1_555 1_555
H3 C7 1_555 1_555
C8 N7 1_555 1_555
H4 C8 1_555 1_555
H5 C8 1_555 1_555
H6 C8 1_555 1_555
C9 C4 1_555 1_555
H7 C9 1_555 1_555
H8 C9 1_555 1_555
C1E N5E 1_555 1_555
N5E Cd1A 1_555 1_555
N1D C2D 1_555 1_555
C2D N4D 1_555 1_555
N3D Cd1 1_555 1_555
N4D Cd1_2 1_555 1_555
C3D N1D 1_555 1_555
Cd1_2 N3 1_555 1_555
N3_2 Cd1 1_555 1_555
N4D_2 Cd1 1_555 1_555
N5D Cd1 1_555 1_555
H1E C4 1_555 1_555
H8E C9 1_555 1_555
C6E C5 1_555 1_555
H2E C6E 1_555 1_555
C7E N6 1_555 1_555
H3E C7E 1_555 1_555
C8E N7 1_555 1_555
H4E C8E 1_555 1_555
H5E C8E 1_555 1_555
H6E C8E 1_555 1_555
C1 N5 1_555 1_555
C6 C7 1_555 1_555
N3D C3D 1_555 1_555
C6E C7E 1_555 1_555

#END
