
#######################################################################
#
#                 Cambridge Crystallographic Data Centre
#                                CCDC 
#
#######################################################################
#
# If this CIF has been generated from an entry in the Cambridge 
# Structural Database, then it will include bibliographic, chemical, 
# crystal, experimental, refinement or atomic coordinate data resulting 
# from the CCDC's data processing and validation procedures.
#
#######################################################################

data_DUMLED
_symmetry_cell_setting           monoclinic
_symmetry_space_group_name_H-M   'P 21/n'
_symmetry_Int_Tables_number      14
_space_group_name_Hall           '-P 2yn'
loop_
_symmetry_equiv_pos_site_id
_symmetry_equiv_pos_as_xyz
1 x,y,z
2 1/2-x,1/2+y,1/2-z
3 -x,-y,-z
4 1/2+x,1/2-y,1/2+z
_cell_length_a                   13.3956(12)
_cell_length_b                   14.4877(8)
_cell_length_c                   13.5754(11)
_cell_angle_alpha                90
_cell_angle_beta                 103.998(5)
_cell_angle_gamma                90
_cell_volume                     2556.36
loop_
_atom_site_label
_atom_site_type_symbol
_atom_site_fract_x
_atom_site_fract_y
_atom_site_fract_z
La1 La 0.84385(2) 0.31714(2) 0.38814(2)
La2 La 0.61501(2) 0.06678(2) 0.32769(2)
O1 O 0.6774(3) 0.2657(3) 0.2958(3)
O2 O 0.5239(4) 0.2049(3) 0.2615(4)
O3 O 0.7107(4) 0.5678(4) 0.1326(5)
O4 O 0.5900(4) 0.6718(3) 0.1260(5)
O5 O 0.7672(4) 0.2617(4) 0.5144(4)
O6 O 0.6532(4) 0.1469(4) 0.4850(4)
O7 O 0.5312(4) 0.0136(3) 0.7733(4)
O8 O 0.5033(4) 0.1180(3) 0.8868(3)
O9 O 0.8372(4) 0.3771(3) 0.2105(3)
O10 O 0.8799(4) 0.4248(3) 0.0703(4)
O11 O 0.6533(4) 0.0748(3) 0.1637(4)
O12 O 0.7235(4) -0.0402(3) 0.0943(4)
O13 O 0.9519(5) 0.3449(5) 0.5562(4)
H1 H 1.0027 0.3819 0.5703
H2 H 0.9312 0.3119 0.5991
O14 O 0.4569(4) 0.0722(3) 0.3964(4)
H3 H 0.4165 0.0455 0.3466
H4 H 0.4465 0.0688 0.4557
C1 C 0.5822(5) 0.2719(5) 0.2627(5)
C2 C 0.6223(5) 0.5905(5) 0.1368(5)
C3 C 0.7040(5) 0.2086(5) 0.5416(5)
C4 C 0.5455(5) 0.0912(5) 0.8170(5)
C5 C 0.8589(4) 0.3606(4) 0.1257(4)
C6 C 0.7158(6) 0.0436(5) 0.1157(5)
C7 C 0.5369(5) 0.3625(5) 0.2226(6)
C8 C 0.5967(5) 0.4312(4) 0.1954(6)
H5 H 0.6664 0.4201 0.2018
C9 C 0.5563(6) 0.5166(5) 0.1589(7)
C10 C 0.4527(8) 0.5310(7) 0.1490(10)
H6 H 0.4231 0.5864 0.1219
C11 C 0.3917(9) 0.4641(9) 0.1789(11)
H7 H 0.3229 0.4759 0.1765
C12 C 0.4353(7) 0.3788(6) 0.2126(9)
H8 H 0.3939 0.3324 0.2285
C13 C 0.6907(5) 0.2169(5) 0.6486(5)
C14 C 0.6329(5) 0.1517(5) 0.6845(5)
H9 H 0.6048 0.1024 0.6431
C15 C 0.6156(5) 0.1586(5) 0.7833(5)
C16 C 0.6589(6) 0.2315(6) 0.8462(5)
H10 H 0.6474 0.2371 0.9108
C17 C 0.7189(6) 0.2949(6) 0.8120(6)
H11 H 0.7495 0.3426 0.8546
C18 C 0.7350(6) 0.2888(5) 0.7121(6)
H12 H 0.7751 0.3327 0.6896
C19 C 0.8584(5) 0.2627(4) 0.0888(5)
C20 C 0.7905(5) 0.2005(4) 0.1165(5)
H13 H 0.7471 0.2201 0.1564
C21 C 0.7878(5) 0.1090(5) 0.0845(6)
C22 C 0.8536(7) 0.0792(5) 0.0250(7)
H14 H 0.8520 0.0182 0.0033
C23 C 0.9201(7) 0.1409(5) -0.0010(7)
H15 H 0.9649 0.1210 -0.0393
C24 C 0.9221(6) 0.2322(5) 0.0284(6)
H16 H 0.9662 0.2734 0.0078
La1A La 0.65615(2) 0.81714(2) 0.11186(2)
La1C La 0.34385(2) 0.18286(2) 0.88814(2)
La1A_2 La 0.65615(2) -0.18286(2) 0.11186(2)
La2A La 0.88499(2) 0.56678(2) 0.17231(2)
La2B La 0.38499(2) -0.06678(2) 0.67231(2)
O3A O 0.7893(4) 0.0678(4) 0.3674(5)
O4A O 0.9100(4) 0.1718(3) 0.3740(5)
O7B O 0.4688(4) -0.0136(3) 0.2267(4)
O8C O 1.0033(4) 0.3820(3) 0.3868(3)
O9A O 0.6628(4) -0.1229(3) 0.2895(3)
O10A O 0.6201(4) -0.0752(3) 0.4297(4)
O12A O 0.7765(4) 0.4598(3) 0.4057(4)
loop_
_geom_bond_atom_site_label_1
_geom_bond_atom_site_label_2
_geom_bond_site_symmetry_1
_geom_bond_site_symmetry_2
La1 O1 1_555 1_555
La2 O2 1_555 1_555
O1 C1 1_555 1_555
O2 C1 1_555 1_555
O3 C2 1_555 1_555
O4 C2 1_555 1_555
O5 La1 1_555 1_555
O6 La2 1_555 1_555
O7 C4 1_555 1_555
O8 C4 1_555 1_555
O9 La1 1_555 1_555
O10 C5 1_555 1_555
O11 La2 1_555 1_555
O12 C6 1_555 1_555
O13 La1 1_555 1_555
H1 O13 1_555 1_555
H2 O13 1_555 1_555
O14 La2 1_555 1_555
H3 O14 1_555 1_555
H4 O14 1_555 1_555
C1 C7 1_555 1_555
C2 C9 1_555 1_555
C3 O5 1_555 1_555
C4 C15 1_555 1_555
C5 O9 1_555 1_555
C6 O11 1_555 1_555
C7 C8 1_555 1_555
C8 H5 1_555 1_555
C9 C8 1_555 1_555
C10 C9 1_555 1_555
H6 C10 1_555 1_555
C11 C10 1_555 1_555
H7 C11 1_555 1_555
C12 C7 1_555 1_555
H8 C12 1_555 1_555
C13 C3 1_555 1_555
C14 C13 1_555 1_555
H9 C14 1_555 1_555
C15 C14 1_555 1_555
C16 C15 1_555 1_555
H10 C16 1_555 1_555
C17 C16 1_555 1_555
H11 C17 1_555 1_555
C18 C13 1_555 1_555
H12 C18 1_555 1_555
C19 C5 1_555 1_555
C20 C19 1_555 1_555
H13 C20 1_555 1_555
C21 C6 1_555 1_555
C22 C21 1_555 1_555
H14 C22 1_555 1_555
C23 C22 1_555 1_555
H15 C23 1_555 1_555
C24 C19 1_555 1_555
H16 C24 1_555 1_555
La1A O4 1_555 1_555
La1C O8 1_555 1_555
La1A_2 O12 1_555 1_555
La2A O3 1_555 1_555
La2B O7 1_555 1_555
O3A La2 1_555 1_555
O4A La1 1_555 1_555
O7B La2 1_555 1_555
O8C La1 1_555 1_555
O9A La2 1_555 1_555
O10A La2 1_555 1_555
O12A La1 1_555 1_555
O6 C3 1_555 1_555
O9 La2A 1_555 1_555
O10 La2A 1_555 1_555
C11 C12 1_555 1_555
C17 C18 1_555 1_555
C20 C21 1_555 1_555
C23 C24 1_555 1_555
La1A_2 O9A 1_555 1_555

#END
