
#######################################################################
#
#                 Cambridge Crystallographic Data Centre
#                                CCDC 
#
#######################################################################
#
# If this CIF has been generated from an entry in the Cambridge 
# Structural Database, then it will include bibliographic, chemical, 
# crystal, experimental, refinement or atomic coordinate data resulting 
# from the CCDC's data processing and validation procedures.
#
#######################################################################

data_DUMZES
_symmetry_cell_setting           monoclinic
_symmetry_space_group_name_H-M   'P 21/c'
_symmetry_Int_Tables_number      14
_space_group_name_Hall           '-P 2ybc'
loop_
_symmetry_equiv_pos_site_id
_symmetry_equiv_pos_as_xyz
1 x,y,z
2 -x,1/2+y,1/2-z
3 -x,-y,-z
4 x,1/2-y,1/2+z
_cell_length_a                   17.893(2)
_cell_length_b                   26.433(4)
_cell_length_c                   15.3272(19)
_cell_angle_alpha                90
_cell_angle_beta                 111.106(2)
_cell_angle_gamma                90
_cell_volume                     6762.93
loop_
_atom_site_label
_atom_site_type_symbol
_atom_site_fract_x
_atom_site_fract_y
_atom_site_fract_z
O8 O 0.2662(3) 0.6224(2) 0.3385(4)
O9 O 0.1909(3) 0.6843(2) 0.2605(4)
N9 N 0.5301(4) 0.6521(2) 0.2739(4)
N10 N 0.5263(4) 0.7309(3) 0.2225(4)
N11 N 0.8919(4) 0.6841(3) 0.2665(4)
N12 N 0.9192(5) 0.7183(3) 0.2197(5)
N13 N 1.0160(4) 0.6639(3) 0.2925(5)
N14 N 0.3742(5) 0.4807(3) -0.0414(7)
N15 N 0.3659(5) 0.4299(4) -0.0330(7)
N16 N 0.3025(5) 0.4535(4) -0.1828(6)
C26 C 0.3267(5) 0.6807(3) 0.2673(5)
C27 C 0.3937(5) 0.6500(3) 0.2830(5)
H20 H 0.3961 0.6171 0.3052
C28 C 0.4554(4) 0.6712(3) 0.2637(5)
C29 C 0.4547(5) 0.7201(3) 0.2305(5)
C30 C 0.3866(5) 0.7495(3) 0.2131(6)
H21 H 0.3839 0.7822 0.1897
C31 C 0.3245(5) 0.7294(3) 0.2313(5)
H22 H 0.2785 0.7487 0.2193
C32 C 0.2555(6) 0.6613(4) 0.2897(6)
C33 C 0.5706(5) 0.6901(3) 0.2491(5)
C34 C 0.6551(5) 0.6873(3) 0.2550(6)
C35 C 0.7131(5) 0.6583(3) 0.3233(6)
H23 H 0.6985 0.6393 0.3658
C36 C 0.7900(5) 0.6578(3) 0.3276(6)
H24 H 0.8281 0.6388 0.3733
C37 C 0.8122(4) 0.6857(3) 0.2638(5)
C38 C 0.7576(5) 0.7161(3) 0.1998(5)
H25 H 0.7730 0.7363 0.1596
C39 C 0.6785(5) 0.7164(3) 0.1956(5)
H26 H 0.6411 0.7367 0.1518
C40 C 0.9520(5) 0.6530(3) 0.3123(6)
H27 H 0.9491 0.6273 0.3524
C41 C 0.9920(6) 0.7051(4) 0.2374(7)
H28 H 1.0258 0.7226 0.2140
C42 C 0.5461(5) 0.5969(3) 0.2806(6)
H29 H 0.5339 0.5834 0.3327
H30 H 0.6027 0.5914 0.2935
C43 C 0.4987(5) 0.5688(4) 0.1940(7)
C44 C 0.4653(6) 0.5896(4) 0.1055(7)
H31 H 0.4696 0.6244 0.0986
C45 C 0.4261(5) 0.5610(4) 0.0271(7)
H32 H 0.4056 0.5760 -0.0317
C46 C 0.4180(5) 0.5105(4) 0.0377(7)
C47 C 0.4481(6) 0.4884(4) 0.1241(9)
H33 H 0.4412 0.4539 0.1307
C48 C 0.4878(6) 0.5169(4) 0.2000(7)
H34 H 0.5085 0.5013 0.2582
C49 C 0.3373(7) 0.4935(4) -0.1313(9)
H35 H 0.3361 0.5261 -0.1547
C50 C 0.3215(8) 0.4162(4) -0.1190(11)
H36 H 0.3046 0.3830 -0.1343
O10 O 1.1289(6) 0.5615(3) 0.4351(5)
O11 O 1.1782(3) 0.6746(2) 0.4710(4)
N17 N 1.0868(4) 0.5728(3) 0.2070(6)
C51 C 1.0799(6) 0.5242(4) 0.2077(6)
H37 H 1.0982 0.5082 0.2655
C52 C 1.0471(6) 0.4939(4) 0.1286(8)
H38 H 1.0453 0.4590 0.1348
C53 C 1.0178(4) 0.5155(4) 0.0425(6)
C54 C 1.0277(6) 0.5674(4) 0.0421(7)
H39 H 1.0114 0.5846 -0.0145
C55 C 1.0607(6) 0.5934(4) 0.1231(8)
H40 H 1.0652 0.6284 0.1191
Cd2 Cd 1.13723(3) 0.62333(2) 0.34082(4)
N17B N 0.9132(4) 0.4272(3) -0.2070(6)
C51B C 0.9201(6) 0.4758(4) -0.2077(6)
H37B H 0.9018 0.4918 -0.2655
C52B C 0.9529(6) 0.5061(4) -0.1286(8)
H38B H 0.9547 0.5410 -0.1348
C53B C 0.9822(4) 0.4845(4) -0.0425(6)
C54B C 0.9723(6) 0.4326(4) -0.0421(7)
H39B H 0.9886 0.4154 0.0145
C55B C 0.9393(6) 0.4066(4) -0.1231(8)
H40B H 0.9348 0.3716 -0.1191
O8B O 1.7338(3) 0.3776(2) -0.3385(4)
O9B O 1.8091(3) 0.3157(2) -0.2605(4)
N9B N 1.4699(4) 0.3479(2) -0.2739(4)
N10B N 1.4737(4) 0.2691(3) -0.2225(4)
N11B N 1.1081(4) 0.3159(3) -0.2665(4)
N12B N 1.0808(5) 0.2817(3) -0.2197(5)
N13B N 0.9840(4) 0.3361(3) -0.2925(5)
N14B N 1.6258(5) 0.5193(3) 0.0414(7)
N15B N 1.6341(5) 0.5701(4) 0.0330(7)
N16B N 1.6975(5) 0.5465(4) 0.1828(6)
C26B C 1.6733(5) 0.3193(3) -0.2673(5)
C27B C 1.6063(5) 0.3500(3) -0.2830(5)
H20B H 1.6039 0.3829 -0.3052
C28B C 1.5446(4) 0.3288(3) -0.2637(5)
C29B C 1.5453(5) 0.2799(3) -0.2305(5)
C30B C 1.6134(5) 0.2505(3) -0.2131(6)
H21B H 1.6161 0.2178 -0.1897
C31B C 1.6755(5) 0.2706(3) -0.2313(5)
H22B H 1.7215 0.2513 -0.2193
C32B C 1.7445(6) 0.3387(4) -0.2897(6)
C33B C 1.4294(5) 0.3099(3) -0.2491(5)
C34B C 1.3449(5) 0.3127(3) -0.2550(6)
C35B C 1.2869(5) 0.3417(3) -0.3233(6)
H23B H 1.3015 0.3607 -0.3658
C36B C 1.2100(5) 0.3422(3) -0.3276(6)
H24B H 1.1719 0.3612 -0.3733
C37B C 1.1878(4) 0.3143(3) -0.2638(5)
C38B C 1.2424(5) 0.2839(3) -0.1998(5)
H25B H 1.2270 0.2637 -0.1596
C39B C 1.3215(5) 0.2836(3) -0.1956(5)
H26B H 1.3589 0.2633 -0.1518
C40B C 1.0480(5) 0.3470(3) -0.3123(6)
H27B H 1.0509 0.3727 -0.3524
C41B C 1.0080(6) 0.2949(4) -0.2374(7)
H28B H 0.9742 0.2774 -0.2140
C42B C 1.4539(5) 0.4031(3) -0.2806(6)
H29B H 1.4661 0.4166 -0.3327
H30B H 1.3973 0.4086 -0.2935
C43B C 1.5013(5) 0.4312(4) -0.1940(7)
C44B C 1.5347(6) 0.4104(4) -0.1055(7)
H31B H 1.5304 0.3756 -0.0986
C45B C 1.5739(5) 0.4390(4) -0.0271(7)
H32B H 1.5944 0.4240 0.0317
C46B C 1.5820(5) 0.4895(4) -0.0377(7)
C47B C 1.5519(6) 0.5116(4) -0.1241(9)
H33B H 1.5588 0.5461 -0.1307
C48B C 1.5122(6) 0.4831(4) -0.2000(7)
H34B H 1.4915 0.4987 -0.2582
C49B C 1.6627(7) 0.5065(4) 0.1313(9)
H35B H 1.6639 0.4739 0.1547
C50B C 1.6785(8) 0.5838(4) 0.1190(11)
H36B H 1.6954 0.6170 0.1343
O10B O 0.8711(6) 0.4385(3) -0.4351(5)
O11B O 0.8218(3) 0.3254(2) -0.4710(4)
Cd2B Cd 0.86277(3) 0.37667(2) -0.34082(4)
O8_2 O 1.2662(3) 0.6224(2) 0.3385(4)
O8B_2 O 0.7338(3) 0.3776(2) -0.3385(4)
O9_2 O 1.1909(3) 0.6843(2) 0.2605(4)
O9B_2 O 0.8091(3) 0.3157(2) -0.2605(4)
Cd2_2 Cd 0.13723(3) 0.62333(2) 0.34082(4)
Cd2B_2 Cd 1.86277(3) 0.37667(2) -0.34082(4)
O1 O 0.1863(5) 0.8935(3) 0.2619(5)
S1 S 0.2246(3) 0.89170(11) 0.1951(2)
O2 O 0.1281(3) 0.7724(2) 0.4457(4)
O3 O 0.0501(3) 0.8325(2) 0.3612(4)
N1 N -0.2195(4) 0.7950(2) 0.4069(4)
N2 N -0.1993(4) 0.7322(3) 0.5115(4)
N3 N -0.5701(4) 0.7750(3) 0.4510(4)
N4 N -0.5995(4) 0.7375(3) 0.4912(5)
N5 N -0.6947(4) 0.7950(3) 0.4203(5)
N6 N -0.2265(4) 1.0377(3) 0.4487(5)
N7 N -0.2531(5) 1.0745(3) 0.3825(5)
N8 N -0.2102(4) 1.1075(3) 0.5282(5)
C1 C -0.0050(4) 0.7768(3) 0.4444(5)
C2 C -0.0806(5) 0.7997(3) 0.4038(5)
H1 H -0.0897 0.8257 0.3605
C3 C -0.1413(5) 0.7809(3) 0.4324(6)
C4 C -0.1296(5) 0.7425(3) 0.4956(6)
C5 C -0.0545(5) 0.7195(3) 0.5342(6)
H2 H -0.0462 0.6931 0.5770
C6 C 0.0073(5) 0.7367(3) 0.5075(6)
H3 H 0.0574 0.7214 0.5317
C7 C 0.0609(5) 0.7949(3) 0.4148(6)
C8 C -0.2521(4) 0.7653(3) 0.4563(6)
C9 C -0.3346(5) 0.7694(3) 0.4534(5)
C10 C -0.3732(5) 0.7259(3) 0.4683(5)
H4 H -0.3464 0.6951 0.4781
C11 C -0.4500(4) 0.7279(3) 0.4686(5)
H5 H -0.4750 0.6988 0.4785
C12 C -0.4890(5) 0.7734(3) 0.4542(5)
C13 C -0.4515(5) 0.8171(3) 0.4432(6)
H6 H -0.4779 0.8480 0.4356
C14 C -0.3743(5) 0.8147(3) 0.4433(6)
H7 H -0.3488 0.8442 0.4364
C15 C -0.6272(5) 0.8079(3) 0.4111(6)
H8 H -0.6205 0.8368 0.3800
C16 C -0.6739(5) 0.7518(4) 0.4708(6)
H9 H -0.7099 0.7335 0.4897
C17 C -0.2584(5) 0.8314(3) 0.3328(6)
H10 H -0.3154 0.8244 0.3074
H11 H -0.2378 0.8270 0.2828
C18 C -0.2460(5) 0.8860(3) 0.3652(6)
C19 C -0.2026(5) 0.8996(3) 0.4566(7)
H12 H -0.1780 0.8745 0.5000
C20 C -0.1949(5) 0.9491(3) 0.4852(6)
H13 H -0.1662 0.9575 0.5473
C21 C -0.2304(5) 0.9862(3) 0.4203(6)
C22 C -0.2726(5) 0.9732(4) 0.3276(6)
H14 H -0.2963 0.9984 0.2839
C23 C -0.2794(6) 0.9231(4) 0.3000(6)
H15 H -0.3064 0.9146 0.2376
C24 C -0.2031(5) 1.0579(3) 0.5317(6)
H16 H -0.1837 1.0395 0.5871
C25 C -0.2413(7) 1.1152(4) 0.4344(7)
H17 H -0.2535 1.1474 0.4087
O4 O 0.1377(3) 0.7805(2) 0.2314(3)
H18 H 0.1627 0.7530 0.2506
H19 H 0.1606 0.7989 0.2030
Cd1 Cd 0.17990(3) 0.83151(2) 0.35991(4)
O5 O 0.2200(5) 0.8416(3) 0.1525(5)
O6 O 0.2009(6) 0.9304(4) 0.1308(7)
O7 O 0.3221(10) 0.9032(5) 0.2606(11)
N5_2 N 0.3053(4) 0.7950(3) 0.4203(5)
N8B N 0.2102(4) 0.8925(3) 0.4718(5)
Cd1_2 Cd -0.82010(3) 0.83151(2) 0.35991(4)
Cd1B Cd -0.17990(3) 1.16849(2) 0.64009(4)
loop_
_geom_bond_atom_site_label_1
_geom_bond_atom_site_label_2
_geom_bond_site_symmetry_1
_geom_bond_site_symmetry_2
O1 S1 1_555 1_555
S1 O5 1_555 1_555
O2 C7 1_555 1_555
O3 C7 1_555 1_555
N1 C3 1_555 1_555
N2 C4 1_555 1_555
N3 N4 1_555 1_555
N4 C16 1_555 1_555
N5 C15 1_555 1_555
N6 N7 1_555 1_555
N7 C25 1_555 1_555
N8 C24 1_555 1_555
C1 C2 1_555 1_555
C2 H1 1_555 1_555
C3 C2 1_555 1_555
C4 C3 1_555 1_555
C5 C4 1_555 1_555
H2 C5 1_555 1_555
C6 C1 1_555 1_555
H3 C6 1_555 1_555
C7 C1 1_555 1_555
C8 N1 1_555 1_555
C9 C8 1_555 1_555
C10 C9 1_555 1_555
H4 C10 1_555 1_555
C11 C10 1_555 1_555
H5 C11 1_555 1_555
C12 N3 1_555 1_555
C13 C12 1_555 1_555
H6 C13 1_555 1_555
C14 C9 1_555 1_555
H7 C14 1_555 1_555
C15 N3 1_555 1_555
H8 C15 1_555 1_555
C16 N5 1_555 1_555
H9 C16 1_555 1_555
C17 N1 1_555 1_555
H10 C17 1_555 1_555
H11 C17 1_555 1_555
C18 C17 1_555 1_555
C19 C18 1_555 1_555
H12 C19 1_555 1_555
C20 C19 1_555 1_555
H13 C20 1_555 1_555
C21 N6 1_555 1_555
C22 C21 1_555 1_555
H14 C22 1_555 1_555
C23 C18 1_555 1_555
H15 C23 1_555 1_555
C24 N6 1_555 1_555
H16 C24 1_555 1_555
C25 N8 1_555 1_555
H17 C25 1_555 1_555
O4 H18 1_555 1_555
H19 O4 1_555 1_555
Cd1 O1 1_555 1_555
O6 S1 1_555 1_555
O7 S1 1_555 1_555
O8 C32 1_555 1_555
O9 C32 1_555 1_555
N9 C28 1_555 1_555
N10 C29 1_555 1_555
N11 N12 1_555 1_555
N12 C41 1_555 1_555
N13 C40 1_555 1_555
N14 N15 1_555 1_555
N15 C50 1_555 1_555
N16 C49 1_555 1_555
C26 C27 1_555 1_555
C27 H20 1_555 1_555
C28 C27 1_555 1_555
C29 C28 1_555 1_555
C30 C29 1_555 1_555
H21 C30 1_555 1_555
C31 C26 1_555 1_555
H22 C31 1_555 1_555
C32 C26 1_555 1_555
C33 N9 1_555 1_555
C34 C33 1_555 1_555
C35 C34 1_555 1_555
H23 C35 1_555 1_555
C36 C35 1_555 1_555
H24 C36 1_555 1_555
C37 N11 1_555 1_555
C38 C37 1_555 1_555
H25 C38 1_555 1_555
C39 C34 1_555 1_555
H26 C39 1_555 1_555
C40 N11 1_555 1_555
H27 C40 1_555 1_555
C41 N13 1_555 1_555
H28 C41 1_555 1_555
C42 N9 1_555 1_555
H29 C42 1_555 1_555
H30 C42 1_555 1_555
C43 C42 1_555 1_555
C44 C43 1_555 1_555
H31 C44 1_555 1_555
C45 C44 1_555 1_555
H32 C45 1_555 1_555
C46 N14 1_555 1_555
C47 C46 1_555 1_555
H33 C47 1_555 1_555
C48 C43 1_555 1_555
H34 C48 1_555 1_555
C49 N14 1_555 1_555
H35 C49 1_555 1_555
C50 N16 1_555 1_555
H36 C50 1_555 1_555
O10 Cd2 1_555 1_555
O11 Cd2 1_555 1_555
N17 C51 1_555 1_555
C51 H37 1_555 1_555
C52 C51 1_555 1_555
H38 C52 1_555 1_555
C53 C52 1_555 1_555
C54 C53 1_555 1_555
H39 C54 1_555 1_555
C55 N17 1_555 1_555
H40 C55 1_555 1_555
Cd2 N13 1_555 1_555
N5_2 Cd1 1_555 1_555
N8B Cd1 1_555 1_555
Cd1_2 N5 1_555 1_555
Cd1B N8 1_555 1_555
N17B C51B 1_555 1_555
C51B H37B 1_555 1_555
C52B C51B 1_555 1_555
H38B C52B 1_555 1_555
C53B C53 1_555 1_555
C54B C53B 1_555 1_555
H39B C54B 1_555 1_555
C55B N17B 1_555 1_555
H40B C55B 1_555 1_555
O8B C32B 1_555 1_555
O9B C32B 1_555 1_555
N9B C28B 1_555 1_555
N10B C29B 1_555 1_555
N11B N12B 1_555 1_555
N12B C41B 1_555 1_555
N13B C40B 1_555 1_555
N14B N15B 1_555 1_555
N15B C50B 1_555 1_555
N16B C49B 1_555 1_555
C26B C27B 1_555 1_555
C27B H20B 1_555 1_555
C28B C27B 1_555 1_555
C29B C28B 1_555 1_555
C30B C29B 1_555 1_555
H21B C30B 1_555 1_555
C31B C26B 1_555 1_555
H22B C31B 1_555 1_555
C32B C26B 1_555 1_555
C33B N9B 1_555 1_555
C34B C33B 1_555 1_555
C35B C34B 1_555 1_555
H23B C35B 1_555 1_555
C36B C35B 1_555 1_555
H24B C36B 1_555 1_555
C37B N11B 1_555 1_555
C38B C37B 1_555 1_555
H25B C38B 1_555 1_555
C39B C34B 1_555 1_555
H26B C39B 1_555 1_555
C40B N11B 1_555 1_555
H27B C40B 1_555 1_555
C41B N13B 1_555 1_555
H28B C41B 1_555 1_555
C42B N9B 1_555 1_555
H29B C42B 1_555 1_555
H30B C42B 1_555 1_555
C43B C42B 1_555 1_555
C44B C43B 1_555 1_555
H31B C44B 1_555 1_555
C45B C44B 1_555 1_555
H32B C45B 1_555 1_555
C46B N14B 1_555 1_555
C47B C46B 1_555 1_555
H33B C47B 1_555 1_555
C48B C43B 1_555 1_555
H34B C48B 1_555 1_555
C49B N14B 1_555 1_555
H35B C49B 1_555 1_555
C50B N16B 1_555 1_555
H36B C50B 1_555 1_555
O10B Cd2B 1_555 1_555
O11B Cd2B 1_555 1_555
Cd2B N17B 1_555 1_555
O8_2 Cd2 1_555 1_555
O8B_2 Cd2B 1_555 1_555
O9_2 Cd2 1_555 1_555
O9B_2 Cd2B 1_555 1_555
Cd2_2 O8 1_555 1_555
Cd2B_2 O8B 1_555 1_555
O2 Cd1 1_555 1_555
O3 Cd1 1_555 1_555
N2 C8 1_555 1_555
C5 C6 1_555 1_555
C11 C12 1_555 1_555
C13 C14 1_555 1_555
C20 C21 1_555 1_555
C22 C23 1_555 1_555
O4 Cd1 1_555 1_555
O9 Cd2_2 1_555 1_555
N10 C33 1_555 1_555
C30 C31 1_555 1_555
C36 C37 1_555 1_555
C38 C39 1_555 1_555
C45 C46 1_555 1_555
C47 C48 1_555 1_555
N17 Cd2 1_555 1_555
C54 C55 1_555 1_555
C52B C53B 1_555 1_555
C54B C55B 1_555 1_555
O9B Cd2B_2 1_555 1_555
N10B C33B 1_555 1_555
N13B Cd2B 1_555 1_555
C30B C31B 1_555 1_555
C36B C37B 1_555 1_555
C38B C39B 1_555 1_555
C45B C46B 1_555 1_555
C47B C48B 1_555 1_555

#END
