
#######################################################################
#
#                 Cambridge Crystallographic Data Centre
#                                CCDC 
#
#######################################################################
#
# If this CIF has been generated from an entry in the Cambridge 
# Structural Database, then it will include bibliographic, chemical, 
# crystal, experimental, refinement or atomic coordinate data resulting 
# from the CCDC's data processing and validation procedures.
#
#######################################################################

data_DUNBUL
_symmetry_cell_setting           monoclinic
_symmetry_space_group_name_H-M   'P 21/c'
_symmetry_Int_Tables_number      14
_space_group_name_Hall           '-P 2ybc'
loop_
_symmetry_equiv_pos_site_id
_symmetry_equiv_pos_as_xyz
1 x,y,z
2 -x,1/2+y,1/2-z
3 -x,-y,-z
4 x,1/2-y,1/2+z
_cell_length_a                   9.9485(10)
_cell_length_b                   25.038(3)
_cell_length_c                   10.0688(10)
_cell_angle_alpha                90
_cell_angle_beta                 116.8120(10)
_cell_angle_gamma                90
_cell_volume                     2238.41
loop_
_atom_site_label
_atom_site_type_symbol
_atom_site_fract_x
_atom_site_fract_y
_atom_site_fract_z
Au1 Au 0.85265(6) 0.39016(3) 0.77778(6)
Au2 Au 0.08796(7) 0.54152(3) 0.44225(7)
Mn1 Mn 0.3522(2) 0.39173(10) 0.2827(2)
N1 N 0.4975(15) 0.4522(6) 0.2324(14)
N2 N 0.4957(14) 0.3455(6) 0.2085(14)
N3 N 0.3016(15) 0.3027(6) 0.2890(14)
N4 N 0.5263(15) 0.3835(7) 0.5156(15)
N5 N 1.1671(15) 0.3955(6) 1.0525(14)
N6 N 0.2290(15) 0.4443(6) 0.3527(16)
N7 N -0.009(3) 0.6487(9) 0.526(2)
C1 C 0.502(2) 0.5042(9) 0.248(2)
H1 H 0.4348 0.5207 0.2792
C2 C 0.598(2) 0.5349(10) 0.222(2)
H2 H 0.6020 0.5724 0.2387
C3 C 0.693(2) 0.5114(10) 0.1690(19)
H3 H 0.7565 0.5329 0.1440
C4 C 0.692(2) 0.4578(10) 0.1542(19)
C5 C 0.5949(17) 0.4286(8) 0.1879(16)
C6 C 0.5920(18) 0.3718(9) 0.1723(17)
C7 C 0.691(2) 0.3457(10) 0.129(2)
C8 C 0.789(3) 0.3753(11) 0.096(2)
H4 H 0.8563 0.3581 0.0657
C9 C 0.790(2) 0.4270(11) 0.107(2)
H5 H 0.8579 0.4464 0.0830
C10 C 0.680(3) 0.2914(10) 0.122(3)
H6 H 0.7433 0.2730 0.0898
C11 C 0.584(3) 0.2601(11) 0.157(3)
H7 H 0.5810 0.2222 0.1521
C12 C 0.490(2) 0.2927(9) 0.2033(19)
C13 C 0.3768(19) 0.2686(8) 0.2445(17)
C14 C 0.357(3) 0.2125(9) 0.244(2)
H8 H 0.4136 0.1886 0.2159
C15 C 0.250(3) 0.1939(10) 0.288(3)
H9 H 0.2306 0.1567 0.2871
C16 C 0.175(3) 0.2297(9) 0.333(3)
H10 H 0.1031 0.2174 0.3633
C17 C 0.204(2) 0.2838(8) 0.3329(19)
H11 H 0.1517 0.3081 0.3657
C18 C 0.6463(18) 0.3853(8) 0.6161(18)
C19 C 1.0539(16) 0.3938(7) 0.9497(16)
C20 C 0.1753(17) 0.4789(8) 0.3844(17)
C21 C 0.020(3) 0.6102(9) 0.497(2)
Au1B Au 0.14735(6) 0.60984(3) 0.22222(6)
Au2B Au 0.91204(7) 0.45848(3) 0.55775(7)
Mn1_2 Mn 1.3522(2) 0.39173(10) 1.2827(2)
N5_2 N 0.1671(15) 0.3955(6) 0.0525(14)
loop_
_geom_bond_atom_site_label_1
_geom_bond_atom_site_label_2
_geom_bond_site_symmetry_1
_geom_bond_site_symmetry_2
Au1 C18 1_555 1_555
Au2 C20 1_555 1_555
Mn1 N1 1_555 1_555
N1 C1 1_555 1_555
N2 Mn1 1_555 1_555
N3 Mn1 1_555 1_555
N4 Mn1 1_555 1_555
N5 C19 1_555 1_555
N6 Mn1 1_555 1_555
N7 C21 1_555 1_555
C1 H1 1_555 1_555
C2 C1 1_555 1_555
H2 C2 1_555 1_555
C3 C2 1_555 1_555
H3 C3 1_555 1_555
C4 C3 1_555 1_555
C5 N1 1_555 1_555
C6 N2 1_555 1_555
C7 C6 1_555 1_555
C8 C7 1_555 1_555
H4 C8 1_555 1_555
C9 C4 1_555 1_555
H5 C9 1_555 1_555
C10 C7 1_555 1_555
H6 C10 1_555 1_555
C11 C10 1_555 1_555
H7 C11 1_555 1_555
C12 N2 1_555 1_555
C13 N3 1_555 1_555
C14 C13 1_555 1_555
H8 C14 1_555 1_555
C15 C14 1_555 1_555
H9 C15 1_555 1_555
C16 C15 1_555 1_555
H10 C16 1_555 1_555
C17 N3 1_555 1_555
H11 C17 1_555 1_555
C18 N4 1_555 1_555
C19 Au1 1_555 1_555
C20 N6 1_555 1_555
C21 Au2 1_555 1_555
Au1B Au2 1_555 1_555
Au2B Au1 1_555 1_555
Mn1_2 N5 1_555 1_555
N5_2 Mn1 1_555 1_555
C4 C5 1_555 1_555
C5 C6 1_555 1_555
C8 C9 1_555 1_555
C11 C12 1_555 1_555
C12 C13 1_555 1_555
C16 C17 1_555 1_555

#END
