
#######################################################################
#
#                 Cambridge Crystallographic Data Centre
#                                CCDC 
#
#######################################################################
#
# If this CIF has been generated from an entry in the Cambridge 
# Structural Database, then it will include bibliographic, chemical, 
# crystal, experimental, refinement or atomic coordinate data resulting 
# from the CCDC's data processing and validation procedures.
#
#######################################################################

data_DUNLOP
_symmetry_cell_setting           monoclinic
_symmetry_space_group_name_H-M   'P 2/c'
_symmetry_Int_Tables_number      13
_space_group_name_Hall           '-P 2yc'
loop_
_symmetry_equiv_pos_site_id
_symmetry_equiv_pos_as_xyz
1 x,y,z
2 -x,y,1/2-z
3 -x,-y,-z
4 x,-y,1/2+z
_cell_length_a                   11.819(2)
_cell_length_b                   7.3367(15)
_cell_length_c                   11.533(2)
_cell_angle_alpha                90
_cell_angle_beta                 103.19(3)
_cell_angle_gamma                90
_cell_volume                     973.672
loop_
_atom_site_label
_atom_site_type_symbol
_atom_site_fract_x
_atom_site_fract_y
_atom_site_fract_z
Tb1 Tb 1.0000 0.52045(10) 0.2500
O1 O 0.8687(6) 0.6487(10) 0.0761(6)
O2 O 0.9894(6) 0.3077(10) 0.0962(6)
O3 O 0.8109(7) 0.3778(13) 0.2339(7)
O4 O 0.9030(7) 0.7287(11) 0.3319(6)
C1 C 0.7764(9) 0.7355(14) 0.0391(9)
H1 H 0.9429 0.2258 0.0615
H2 H 1.0289 0.2282 0.1418
H3 H 0.7515 0.3897 0.1768
H4 H 0.8271 0.2771 0.2051
C2 C 0.8102(10) 0.8007(16) 0.3484(11)
O5 O 0.7299(7) 0.7518(11) -0.0734(6)
C3 C 0.7137(9) 0.8256(15) 0.1179(9)
C4 C 0.7237(8) 0.8578(15) 0.2397(9)
O6 O 0.7853(7) 0.8225(12) 0.4457(7)
Cu1 Cu 0.58435(13) 0.8888(2) -0.11189(12)
N1 N 0.6146(7) 0.9065(12) 0.0613(8)
N2 N 0.6324(8) 0.9583(13) 0.2492(8)
N3 N 0.5000 0.695(3) -0.2500
N4 N 0.4334(8) 1.0148(12) -0.1399(8)
N5 N 0.5000 0.577(3) -0.2500
N6 N 0.5000 0.407(4) -0.2500
O2A O 1.0106(6) 0.3077(10) 0.4038(6)
O3A O 1.1891(7) 0.3778(13) 0.2661(7)
O1A O 1.1313(6) 0.6487(10) 0.4239(6)
O4A O 1.0970(7) 0.7287(11) 0.1681(6)
H1A H 1.0571 0.2258 0.4385
H2A H 0.9711 0.2282 0.3582
H3A H 1.2485 0.3897 0.3232
H4A H 1.1729 0.2771 0.2949
C1A C 1.2236(9) 0.7355(14) 0.4609(9)
C2A C 1.1898(10) 0.8007(16) 0.1516(11)
C3A C 1.2863(9) 0.8256(15) 0.3821(9)
O5A O 1.2701(7) 0.7518(11) 0.5734(6)
C4A C 1.2763(8) 0.8578(15) 0.2603(9)
O6A O 1.2147(7) 0.8225(12) 0.0543(7)
N1A N 1.3854(7) 0.9065(12) 0.4387(8)
Cu1A Cu 1.41565(13) 0.8888(2) 0.61189(12)
N2A N 1.3676(8) 0.9583(13) 0.2508(8)
N2C N 0.6324(8) 1.0417(13) -0.2508(8)
N4B N 0.5666(8) 0.9852(12) 0.1399(8)
Cu1C Cu 0.58435(13) 1.1112(2) 0.38811(12)
N4C N 1.4334(8) 0.9852(12) 0.3601(8)
N3_2 N 1.5000 0.695(3) 0.7500
N4A N 1.5666(8) 1.0148(12) 0.6399(8)
N2B N 1.3676(8) 1.0417(13) 0.7508(8)
Cu1B Cu 1.41565(13) 1.1112(2) 0.11189(12)
Cu1A_2 Cu 0.41565(13) 0.8888(2) -0.38811(12)
Cu1B_2 Cu 0.41565(13) 1.1112(2) 0.11189(12)
Cu1C_2 Cu 1.58435(13) 1.1112(2) 0.38811(12)
O7 O 0.6180(10) 0.3996(16) 0.0347(9)
H5 H 0.5974 0.2822 -0.0175
H6 H 0.6668 0.3437 0.0037
loop_
_geom_bond_atom_site_label_1
_geom_bond_atom_site_label_2
_geom_bond_site_symmetry_1
_geom_bond_site_symmetry_2
Tb1 O1 1_555 1_555
O1 C1 1_555 1_555
O2 Tb1 1_555 1_555
O3 Tb1 1_555 1_555
O4 Tb1 1_555 1_555
C1 O5 1_555 1_555
H1 O2 1_555 1_555
H2 O2 1_555 1_555
H3 O3 1_555 1_555
H4 O3 1_555 1_555
C2 O4 1_555 1_555
O5 Cu1 1_555 1_555
C3 C1 1_555 1_555
C4 C2 1_555 1_555
O6 C2 1_555 1_555
Cu1 N1 1_555 1_555
N1 C3 1_555 1_555
N2 C4 1_555 1_555
N3 Cu1 1_555 1_555
N4 Cu1 1_555 1_555
N5 N3 1_555 1_555
N6 N5 1_555 1_555
O7 H5 1_555 1_555
H6 O7 1_555 1_555
O2A Tb1 1_555 1_555
O3A Tb1 1_555 1_555
O1A Tb1 1_555 1_555
O4A Tb1 1_555 1_555
H1A O2A 1_555 1_555
H2A O2A 1_555 1_555
H3A O3A 1_555 1_555
H4A O3A 1_555 1_555
C1A O1A 1_555 1_555
C2A O4A 1_555 1_555
C3A C1A 1_555 1_555
O5A C1A 1_555 1_555
C4A C2A 1_555 1_555
O6A C2A 1_555 1_555
N1A C3A 1_555 1_555
Cu1A O5A 1_555 1_555
N2A C4A 1_555 1_555
N2C Cu1 1_555 1_555
N4B N1 1_555 1_555
Cu1C N2 1_555 1_555
N4C N1A 1_555 1_555
N3_2 Cu1A 1_555 1_555
N4A Cu1A 1_555 1_555
N2B Cu1A 1_555 1_555
Cu1B N2A 1_555 1_555
Cu1A_2 N3 1_555 1_555
Cu1B_2 N4B 1_555 1_555
Cu1C_2 N4C 1_555 1_555
C3 C4 1_555 1_555
N2 N4B 1_555 1_555
C3A C4A 1_555 1_555
N1A Cu1A 1_555 1_555
N2A N4C 1_555 1_555

#END
