
#######################################################################
#
#                 Cambridge Crystallographic Data Centre
#                                CCDC 
#
#######################################################################
#
# If this CIF has been generated from an entry in the Cambridge 
# Structural Database, then it will include bibliographic, chemical, 
# crystal, experimental, refinement or atomic coordinate data resulting 
# from the CCDC's data processing and validation procedures.
#
#######################################################################

data_DUNLIJ
_symmetry_cell_setting           monoclinic
_symmetry_space_group_name_H-M   'P 2/c'
_symmetry_Int_Tables_number      13
_space_group_name_Hall           '-P 2yc'
loop_
_symmetry_equiv_pos_site_id
_symmetry_equiv_pos_as_xyz
1 x,y,z
2 -x,y,1/2-z
3 -x,-y,-z
4 x,-y,1/2+z
_cell_length_a                   11.878(2)
_cell_length_b                   7.4838(15)
_cell_length_c                   11.582(2)
_cell_angle_alpha                90
_cell_angle_beta                 103.09(3)
_cell_angle_gamma                90
_cell_volume                     1002.8
loop_
_atom_site_label
_atom_site_type_symbol
_atom_site_fract_x
_atom_site_fract_y
_atom_site_fract_z
Sm1 Sm 0.5000 0.47992(9) 0.2500
O1 O 0.3998(6) 0.2700(11) 0.3336(6)
O2 O 0.3679(5) 0.3481(9) 0.0755(5)
O3 O 0.4889(6) 0.7004(9) 0.0951(5)
O4 O 0.3074(3) 0.6221(5) 0.2322(4)
C1 C 0.3083(3) 0.1963(5) 0.3479(4)
C2 C 0.2758(8) 0.2649(12) 0.0382(7)
H1 H 0.4189 0.7267 0.0644
H2 H 0.5205 0.6688 0.0394
H3 H 0.2885 0.6786 0.2886
H4 H 0.2912 0.6069 0.1575
C3 C 0.2235(7) 0.1389(12) 0.2386(7)
O5 O 0.2841(3) 0.1713(5) 0.4453(4)
C4 C 0.2130(7) 0.1711(12) 0.1179(7)
O6 O 0.2268(6) 0.2536(10) -0.0722(5)
N1 N 0.1330(6) 0.0394(11) 0.2487(6)
N2 N 0.1147(6) 0.0927(11) 0.0615(6)
Cu1 Cu 0.08127(11) 0.1165(2) -0.11168(10)
N3 N 0.0670(6) 0.0134(11) 0.1411(6)
N4 N 0.0000(3) 0.2866(5) -0.2500(4)
N5 N 0.0000(3) 0.4456(5) -0.2500(4)
N6 N 0.0000 0.598(2) -0.2500
O3A O 0.5111(6) 0.7004(9) 0.4049(5)
O4A O 0.6926(3) 0.6221(5) 0.2678(4)
O1A O 0.6002(6) 0.2700(11) 0.1664(6)
O2A O 0.6321(5) 0.3481(9) 0.4245(5)
H1A H 0.5811 0.7267 0.4356
H2A H 0.4795 0.6688 0.4606
H3A H 0.7115 0.6786 0.2114
H4A H 0.7088 0.6069 0.3425
C1A C 0.6917(3) 0.1963(5) 0.1521(4)
C2A C 0.7242(8) 0.2649(12) 0.4618(7)
C3A C 0.7765(7) 0.1389(12) 0.2614(7)
O5A O 0.7159(3) 0.1713(5) 0.0547(4)
O6A O 0.7732(6) 0.2536(10) 0.5722(5)
C4A C 0.7870(7) 0.1711(12) 0.3821(7)
N1A N 0.8670(6) 0.0394(11) 0.2513(6)
Cu1A Cu 0.91873(11) 0.1165(2) 0.61168(10)
N2A N 0.8853(6) 0.0927(11) 0.4385(6)
Cu1C Cu 0.08127(11) -0.1165(2) 0.38832(10)
N1C N 0.1330(6) -0.0394(11) -0.2513(6)
N3B N -0.0670(6) -0.0134(11) -0.1411(6)
Cu1B Cu 0.91873(11) -0.1165(2) 0.11168(10)
N3A N 0.9330(6) 0.0134(11) 0.3589(6)
N3C N 1.0670(6) -0.0134(11) 0.6411(6)
N1B N 0.8670(6) -0.0394(11) 0.7513(6)
N4_2 N 1.0000(3) 0.2866(5) 0.7500(4)
Cu1B_2 Cu -0.08127(11) -0.1165(2) 0.11168(10)
Cu1A_2 Cu -0.08127(11) 0.1165(2) -0.38832(10)
Cu1C_2 Cu 1.08127(11) -0.1165(2) 0.38832(10)
O7 O 0.1221(3) 0.6146(5) 0.0314(4)
H5 H 0.1415 0.7202 0.0170
H6 H 0.1349 0.6210 0.1065
loop_
_geom_bond_atom_site_label_1
_geom_bond_atom_site_label_2
_geom_bond_site_symmetry_1
_geom_bond_site_symmetry_2
Sm1 O1 1_555 1_555
O1 C1 1_555 1_555
O2 Sm1 1_555 1_555
O3 Sm1 1_555 1_555
O4 Sm1 1_555 1_555
C1 C3 1_555 1_555
C2 O2 1_555 1_555
H1 O3 1_555 1_555
H2 O3 1_555 1_555
H3 O4 1_555 1_555
H4 O4 1_555 1_555
C3 C4 1_555 1_555
O5 C1 1_555 1_555
C4 C2 1_555 1_555
O6 C2 1_555 1_555
N1 C3 1_555 1_555
N2 C4 1_555 1_555
Cu1 O6 1_555 1_555
N3 N1 1_555 1_555
N4 Cu1 1_555 1_555
N5 N4 1_555 1_555
N6 N5 1_555 1_555
O7 H5 1_555 1_555
H6 O7 1_555 1_555
O3A Sm1 1_555 1_555
O4A Sm1 1_555 1_555
O1A Sm1 1_555 1_555
O2A Sm1 1_555 1_555
H1A O3A 1_555 1_555
H2A O3A 1_555 1_555
H3A O4A 1_555 1_555
H4A O4A 1_555 1_555
C1A O1A 1_555 1_555
C2A O2A 1_555 1_555
C3A C1A 1_555 1_555
O5A C1A 1_555 1_555
O6A C2A 1_555 1_555
C4A C2A 1_555 1_555
N1A C3A 1_555 1_555
Cu1A O6A 1_555 1_555
N2A C4A 1_555 1_555
Cu1C N1 1_555 1_555
N1C Cu1 1_555 1_555
N3B Cu1 1_555 1_555
Cu1B N1A 1_555 1_555
N3A N1A 1_555 1_555
N3C Cu1A 1_555 1_555
N1B Cu1A 1_555 1_555
N4_2 Cu1A 1_555 1_555
Cu1B_2 N3 1_555 1_555
Cu1A_2 N4 1_555 1_555
Cu1C_2 N3A 1_555 1_555
N2 Cu1 1_555 1_555
N2 N3 1_555 1_555
C3A C4A 1_555 1_555
Cu1A N2A 1_555 1_555
N2A N3A 1_555 1_555

#END
