
#######################################################################
#
#                 Cambridge Crystallographic Data Centre
#                                CCDC 
#
#######################################################################
#
# If this CIF has been generated from an entry in the Cambridge 
# Structural Database, then it will include bibliographic, chemical, 
# crystal, experimental, refinement or atomic coordinate data resulting 
# from the CCDC's data processing and validation procedures.
#
#######################################################################

data_DUNLAB
_symmetry_cell_setting           monoclinic
_symmetry_space_group_name_H-M   'P 2/c'
_symmetry_Int_Tables_number      13
_space_group_name_Hall           '-P 2yc'
loop_
_symmetry_equiv_pos_site_id
_symmetry_equiv_pos_as_xyz
1 x,y,z
2 -x,y,1/2-z
3 -x,-y,-z
4 x,-y,1/2+z
_cell_length_a                   11.787(2)
_cell_length_b                   7.4590(15)
_cell_length_c                   11.559(2)
_cell_angle_alpha                90
_cell_angle_beta                 103.14(3)
_cell_angle_gamma                90
_cell_volume                     989.65
loop_
_atom_site_label
_atom_site_type_symbol
_atom_site_fract_x
_atom_site_fract_y
_atom_site_fract_z
O1 O 0.4022(7) 0.2764(12) 0.3348(7)
N1 N 0.1329(8) 0.0416(12) 0.2492(7)
N2 N 0.0678(8) 0.0137(11) 0.1411(7)
Dy1 Dy 0.5000 0.48008(9) 0.2500
Cu1 Cu 0.08300(13) 0.1144(2) -0.11185(11)
O2 O 0.3699(7) 0.3511(10) 0.0763(6)
N3 N 0.1145(8) 0.0951(12) 0.0612(7)
O3 O 0.4894(7) 0.6949(10) 0.0971(6)
H1 H 0.4194 0.7212 0.0664
H2 H 0.5210 0.6634 0.0414
C1 C 0.2779(9) 0.2670(14) 0.0396(9)
C2 C 0.2159(9) 0.1731(14) 0.1197(8)
O4 O 0.2291(7) 0.2533(12) -0.0725(6)
C3 C 0.2240(9) 0.1419(13) 0.2390(9)
O5 O 0.3100(4) 0.6237(6) 0.2318(4)
H3 H 0.2910 0.6801 0.2882
H4 H 0.2937 0.6084 0.1572
N4 N 0.0000(4) 0.2882(6) -0.2500(4)
O6 O 0.2867(4) 0.1729(6) 0.4449(4)
N5 N 0.0000(4) 0.4472(6) -0.2500(4)
C4 C 0.3108(4) 0.1979(6) 0.3475(4)
N6 N 0.0000 0.597(2) -0.2500
O1A O -0.4022(7) 0.2764(12) -0.8348(7)
N1A N -0.1329(8) 0.0416(12) -0.7492(7)
N2A N -0.0678(8) 0.0137(11) -0.6411(7)
Cu1A Cu -0.08300(13) 0.1144(2) -0.38815(11)
O2A O -0.3699(7) 0.3511(10) -0.5763(6)
N3A N -0.1145(8) 0.0951(12) -0.5612(7)
C1A C -0.2779(9) 0.2670(14) -0.5396(9)
C2A C -0.2159(9) 0.1731(14) -0.6197(8)
O4A O -0.2291(7) 0.2533(12) -0.4275(6)
C3A C -0.2240(9) 0.1419(13) -0.7390(9)
O6A O -0.2867(4) 0.1729(6) -0.9449(4)
C4A C -0.3108(4) 0.1979(6) -0.8475(4)
O3A O 0.5106(7) 0.6949(10) 0.4029(6)
H1A H 0.5806 0.7212 0.4336
H2A H 0.4790 0.6634 0.4586
O5A O 0.6900(4) 0.6237(6) 0.2682(4)
H3A H 0.7090 0.6801 0.2118
H4A H 0.7063 0.6084 0.3428
O1A_2 O 0.5978(7) 0.2764(12) 0.1652(7)
N1B N -0.1329(8) -0.0416(12) -0.2492(7)
N1C N 0.1329(8) -0.0416(12) -0.2508(7)
N2B N -0.0678(8) -0.0137(11) -0.1411(7)
N2C N 0.0678(8) -0.0137(11) -0.3589(7)
Dy1_2 Dy -0.5000 0.48008(9) -0.7500
Cu1B Cu -0.08300(13) -0.1144(2) -0.88815(11)
Cu1B_2 Cu -0.08300(13) -0.1144(2) 0.11185(11)
Cu1C Cu 0.08300(13) -0.1144(2) -0.61185(11)
Cu1C_2 Cu 0.08300(13) -0.1144(2) 0.38815(11)
O2A_2 O 0.6301(7) 0.3511(10) 0.4237(6)
O7 O 0.1246(4) 0.6162(6) 0.0310(4)
H5 H 0.1440 0.7218 0.0167
H6 H 0.1374 0.6225 0.1062
loop_
_geom_bond_atom_site_label_1
_geom_bond_atom_site_label_2
_geom_bond_site_symmetry_1
_geom_bond_site_symmetry_2
O1 Dy1 1_555 1_555
N1 N2 1_555 1_555
N2 N3 1_555 1_555
Dy1 O2 1_555 1_555
Cu1 N3 1_555 1_555
O2 C1 1_555 1_555
N3 C2 1_555 1_555
O3 Dy1 1_555 1_555
H1 O3 1_555 1_555
H2 O3 1_555 1_555
C1 C2 1_555 1_555
C2 C3 1_555 1_555
O4 Cu1 1_555 1_555
C3 N1 1_555 1_555
O5 Dy1 1_555 1_555
H3 O5 1_555 1_555
H4 O5 1_555 1_555
N4 Cu1 1_555 1_555
O6 C4 1_555 1_555
N5 N4 1_555 1_555
C4 O1 1_555 1_555
N6 N5 1_555 1_555
O7 H5 1_555 1_555
H6 O7 1_555 1_555
O1A C4A 1_555 1_555
N1A N2A 1_555 1_555
N2A N3A 1_555 1_555
Cu1A N4 1_555 1_555
O2A C1A 1_555 1_555
N3A Cu1A 1_555 1_555
C1A C2A 1_555 1_555
C2A N3A 1_555 1_555
O4A Cu1A 1_555 1_555
C3A N1A 1_555 1_555
O6A C4A 1_555 1_555
C4A C3A 1_555 1_555
O3A Dy1 1_555 1_555
H1A O3A 1_555 1_555
H2A O3A 1_555 1_555
O5A Dy1 1_555 1_555
H3A O5A 1_555 1_555
H4A O5A 1_555 1_555
O1A_2 Dy1 1_555 1_555
N1B Cu1A 1_555 1_555
N1C Cu1 1_555 1_555
N2B Cu1 1_555 1_555
N2C Cu1A 1_555 1_555
Dy1_2 O1A 1_555 1_555
Cu1B N1A 1_555 1_555
Cu1B_2 N2 1_555 1_555
Cu1C N2A 1_555 1_555
Cu1C_2 N1 1_555 1_555
O2A_2 Dy1 1_555 1_555
C1 O4 1_555 1_555
C3 C4 1_555 1_555
O2A Dy1_2 1_555 1_555
C1A O4A 1_555 1_555
C2A C3A 1_555 1_555
N1B N2B 1_555 1_555
N1C N2C 1_555 1_555

#END
