
#######################################################################
#
#                 Cambridge Crystallographic Data Centre
#                                CCDC 
#
#######################################################################
#
# If this CIF has been generated from an entry in the Cambridge 
# Structural Database, then it will include bibliographic, chemical, 
# crystal, experimental, refinement or atomic coordinate data resulting 
# from the CCDC's data processing and validation procedures.
#
#######################################################################

data_DUNLEF
_symmetry_cell_setting           monoclinic
_symmetry_space_group_name_H-M   'P 2/c'
_symmetry_Int_Tables_number      13
_space_group_name_Hall           '-P 2yc'
loop_
_symmetry_equiv_pos_site_id
_symmetry_equiv_pos_as_xyz
1 x,y,z
2 -x,y,1/2-z
3 -x,-y,-z
4 x,-y,1/2+z
_cell_length_a                   11.827(2)
_cell_length_b                   7.4867(15)
_cell_length_c                   11.557(2)
_cell_angle_alpha                90
_cell_angle_beta                 103.03(3)
_cell_angle_gamma                90
_cell_volume                     996.969
loop_
_atom_site_label
_atom_site_type_symbol
_atom_site_fract_x
_atom_site_fract_y
_atom_site_fract_z
Gd1 Gd 0.0000 0.02043(5) 0.7500
Cu1 Cu 0.41830(7) 0.38325(12) 1.11190(6)
N1 N 0.3856(4) 0.4049(6) 0.9390(4)
O1 O 0.1322(3) 0.1483(5) 0.9247(3)
C1 C 0.2242(4) 0.2321(7) 0.9614(4)
O2 O 0.0120(5) -0.1958(7) 0.9038(4)
O3 O 0.2726(3) 0.2452(6) 1.0719(3)
O4 O 0.2150(4) 0.3256(6) 0.5539(3)
N2 N 0.5000 0.2124(9) 1.2500
C2 C 0.2867(4) 0.3268(7) 0.8812(4)
O5 O 0.1902(4) -0.1221(7) 0.7680(5)
N3 N 0.5000 0.0547(11) 1.2500
N4 N 0.3666(4) 0.4608(6) 0.7511(4)
C3 C 0.2757(4) 0.3604(7) 0.7611(4)
N5 N 0.4324(4) 0.4862(7) 0.8592(3)
C4 C 0.1896(5) 0.3001(8) 0.6514(5)
O6 O 0.0986(4) 0.2260(6) 0.6665(3)
N6 N 0.5000 -0.0958(13) 1.2500
H1 H 0.246(7) -0.115(11) 0.816(7)
H2 H -0.018(8) -0.190(12) 0.945(7)
H3 H 0.074(9) -0.218(14) 0.941(9)
H4 H 0.218(9) -0.170(15) 0.708(9)
Cu1A Cu -0.41830(7) 0.38325(12) 0.38810(6)
N1A N -0.3856(4) 0.4049(6) 0.5610(4)
O1A O -0.1322(3) 0.1483(5) 0.5753(3)
C1A C -0.2242(4) 0.2321(7) 0.5386(4)
O2A O -0.0120(5) -0.1958(7) 0.5962(4)
O3A O -0.2726(3) 0.2452(6) 0.4281(3)
O4A O -0.2150(4) 0.3256(6) 0.9461(3)
C2A C -0.2867(4) 0.3268(7) 0.6188(4)
O5A O -0.1902(4) -0.1221(7) 0.7320(5)
N4A N -0.3666(4) 0.4608(6) 0.7489(4)
C3A C -0.2757(4) 0.3604(7) 0.7389(4)
N5A N -0.4324(4) 0.4862(7) 0.6408(3)
C4A C -0.1896(5) 0.3001(8) 0.8486(5)
O6A O -0.0986(4) 0.2260(6) 0.8335(3)
H1A H -0.246(7) -0.115(11) 0.684(7)
H2A H 0.018(8) -0.190(12) 0.555(7)
H3A H -0.074(9) -0.218(14) 0.559(9)
H4A H -0.218(9) -0.170(15) 0.792(9)
Cu1A_2 Cu 0.58170(7) 0.38325(12) 1.38810(6)
Cu1B Cu -0.41830(7) 0.61675(12) 0.88810(6)
Cu1B_2 Cu 0.58170(7) 0.61675(12) 0.88810(6)
Cu1C Cu -0.58170(7) 0.61675(12) 0.61190(6)
Cu1C_2 Cu 0.41830(7) 0.61675(12) 0.61190(6)
N2_2 N -0.5000 0.2124(9) 0.2500
N4B N -0.3666(4) 0.5392(6) 0.2489(4)
N4C N 0.3666(4) 0.5392(6) 1.2511(4)
N5B N 0.5676(4) 0.5138(7) 1.1408(3)
N5C N -0.5676(4) 0.5138(7) 0.3592(3)
O7 O 0.3797(6) 0.1167(10) 0.4668(6)
H5 H 0.3744 0.0040 0.4583
H6 H 0.407(11) 0.167(18) 0.522(10)
loop_
_geom_bond_atom_site_label_1
_geom_bond_atom_site_label_2
_geom_bond_site_symmetry_1
_geom_bond_site_symmetry_2
Gd1 O1 1_555 1_555
Cu1 N1 1_555 1_555
N1 C2 1_555 1_555
O1 C1 1_555 1_555
C1 O3 1_555 1_555
O2 Gd1 1_555 1_555
O3 Cu1 1_555 1_555
O4 C4 1_555 1_555
N2 Cu1 1_555 1_555
C2 C1 1_555 1_555
O5 Gd1 1_555 1_555
N3 N2 1_555 1_555
N4 C3 1_555 1_555
C3 C2 1_555 1_555
N5 N1 1_555 1_555
C4 C3 1_555 1_555
O6 Gd1 1_555 1_555
N6 N3 1_555 1_555
H1 O5 1_555 1_555
H2 O2 1_555 1_555
H3 O2 1_555 1_555
H4 O5 1_555 1_555
O7 H5 1_555 1_555
H6 O7 1_555 1_555
Cu1A N1A 1_555 1_555
N1A C2A 1_555 1_555
O1A Gd1 1_555 1_555
C1A O1A 1_555 1_555
O2A Gd1 1_555 1_555
O3A Cu1A 1_555 1_555
O4A C4A 1_555 1_555
C2A C1A 1_555 1_555
O5A Gd1 1_555 1_555
N4A C3A 1_555 1_555
C3A C2A 1_555 1_555
N5A N1A 1_555 1_555
C4A C3A 1_555 1_555
O6A Gd1 1_555 1_555
H1A O5A 1_555 1_555
H2A O2A 1_555 1_555
H3A O2A 1_555 1_555
H4A O5A 1_555 1_555
Cu1A_2 N2 1_555 1_555
Cu1B N4A 1_555 1_555
Cu1B_2 N5 1_555 1_555
Cu1C N5A 1_555 1_555
Cu1C_2 N4 1_555 1_555
N2_2 Cu1A 1_555 1_555
N4B Cu1A 1_555 1_555
N4C Cu1 1_555 1_555
N5B Cu1 1_555 1_555
N5C Cu1A 1_555 1_555
N4 N5 1_555 1_555
C4 O6 1_555 1_555
C1A O3A 1_555 1_555
N4A N5A 1_555 1_555
C4A O6A 1_555 1_555

#END
