
#######################################################################
#
#                 Cambridge Crystallographic Data Centre
#                                CCDC 
#
#######################################################################
#
# If this CIF has been generated from an entry in the Cambridge 
# Structural Database, then it will include bibliographic, chemical, 
# crystal, experimental, refinement or atomic coordinate data resulting 
# from the CCDC's data processing and validation procedures.
#
#######################################################################

data_DUNSOU
_symmetry_cell_setting           triclinic
_symmetry_space_group_name_H-M   'P -1'
_symmetry_Int_Tables_number      2
_space_group_name_Hall           '-P 1'
loop_
_symmetry_equiv_pos_site_id
_symmetry_equiv_pos_as_xyz
1 x,y,z
2 -x,-y,-z
_cell_length_a                   10.023(2)
_cell_length_b                   11.238(3)
_cell_length_c                   7.546(2)
_cell_angle_alpha                95.73(2)
_cell_angle_beta                 103.04(2)
_cell_angle_gamma                92.03(2)
_cell_volume                     822.441
loop_
_atom_site_label
_atom_site_type_symbol
_atom_site_fract_x
_atom_site_fract_y
_atom_site_fract_z
K1 K 0.47340(5) 0.46887(4) 0.73784(6)
O1 O 0.2036(1) 0.4389(1) 0.5463(2)
O2 O 0.3548(1) 0.6439(1) 0.4822(2)
O3 O 0.6243(1) 0.7440(1) 0.4986(2)
O4 O 0.4868(2) 0.6525(2) 0.9791(3)
C1 C 0.1559(2) 0.3150(2) 0.5303(3)
C2 C 0.1685(2) 0.4956(2) 0.3856(3)
C3 C 0.2092(2) 0.6255(2) 0.4307(3)
C4 C 0.3926(2) 0.7695(2) 0.5131(3)
C5 C 0.5389(2) 0.7926(2) 0.6110(3)
C6 C 0.2325(2) 0.2336(2) 0.4198(3)
C7 C 0.1832(3) 0.1030(2) 0.4214(4)
C8 C 0.1984(3) 0.0690(2) 0.6140(4)
C9 C 0.1220(3) 0.1523(2) 0.7226(4)
C10 C 0.1692(2) 0.2822(2) 0.7229(2)
C11 C 0.3813(2) 0.7161(3) 0.9817(3)
C12 C 0.3966(3) 0.8424(2) 1.0135(3)
C13 C 0.2881(3) 0.9115(2) 1.0170(4)
C14 C 0.1591(4) 0.8625(3) 0.9896(4)
C15 C 0.1344(3) 0.7415(41) 0.9584(4)
C16 C 0.2471(4) 0.6674(3) 0.9546(4)
H1 H 0.068(2) 0.492(2) 0.338(3)
H2 H 0.201(3) 0.450(2) 0.283(4)
H3 H 0.169(2) 0.657(2) 0.532(3)
H4 H 0.181(2) 0.667(2) 0.324(3)
H5 H 0.337(2) 0.805(2) 0.589(3)
H6 H 0.368(2) 0.801(2) 0.402(3)
H7 H 0.553(2) 0.883(2) 0.645(3)
H8 H 0.554(3) 0.766(2) 0.717(3)
H9 H 0.218(2) 0.249(2) 0.294(3)
H10 H 0.077(2) 0.098(2) 0.350(3)
H11 H 0.233(3) 0.057(3) 0.346(4)
H12 H 0.151(3) -0.010(3) 0.598(5)
H13 H 0.304(2) 0.066(2) 0.671(3)
H14 H 0.136(3) 0.131(2) 0.848(4)
H15 H 0.024(3) 0.141(2) 0.664(4)
H16 H 0.260(3) 0.296(2) 0.789(4)
H17 H 0.115(2) 0.338(2) 0.771(3)
H18 H 0.498(3) 0.886(3) 1.048(4)
H19 H 0.298(3) 1.007(2) 1.040(4)
H20 H 0.089(4) 0.914(4) 0.990(5)
H21 H 0.0293 0.6954 0.9180
H22 H 0.233(2) 0.585(2) 0.943(3)
O3A O 0.3757(1) 0.2560(1) 0.5014(2)
C5A C 0.4611(2) 0.2074(2) 0.3890(3)
C4A C 0.6074(2) 0.2305(2) 0.4869(3)
O2A O 0.6452(1) 0.3561(1) 0.5178(2)
C3A C 0.7908(2) 0.3745(2) 0.5693(3)
C2A C 0.8315(2) 0.5044(2) 0.6144(3)
O1A O 0.7964(1) 0.5611(1) 0.4537(2)
C1A C 0.8441(2) 0.6850(2) 0.4697(3)
C6A C 0.7675(2) 0.7664(2) 0.5802(3)
C7A C 0.8168(3) 0.8970(2) 0.5786(4)
C8A C 0.8016(3) 0.9310(2) 0.3860(4)
C9A C 0.8780(3) 0.8477(2) 0.2774(4)
C10A C 0.8308(2) 0.7178(2) 0.2771(2)
H16A H 0.740(3) 0.704(2) 0.211(4)
H17A H 0.885(2) 0.662(2) 0.229(3)
H14A H 0.864(3) 0.869(2) 0.152(4)
H15A H 0.976(3) 0.859(2) 0.336(4)
H12A H 0.849(3) 1.010(3) 0.402(5)
H13A H 0.696(2) 0.934(2) 0.329(3)
H10A H 0.923(2) 0.902(2) 0.650(3)
H11A H 0.767(3) 0.943(3) 0.654(4)
H9A H 0.782(2) 0.751(2) 0.706(3)
H1A H 0.932(2) 0.508(2) 0.662(3)
H2A H 0.799(3) 0.550(2) 0.717(4)
H3A H 0.831(2) 0.343(2) 0.468(3)
H4A H 0.819(2) 0.333(2) 0.676(3)
H5A H 0.663(2) 0.195(2) 0.411(3)
H6A H 0.632(2) 0.199(2) 0.598(3)
H7A H 0.447(2) 0.117(2) 0.355(3)
H8A H 0.446(3) 0.234(2) 0.283(3)
O4A O 0.5132(2) 0.3475(2) 1.0209(3)
K1A K 0.52660(5) 0.53113(4) 0.26216(6)
K1A_2 K 0.52660(5) 0.53113(4) 1.26216(6)
O4A_2 O 0.5132(2) 0.3475(2) 0.0209(3)
C11A C 0.6187(2) 0.2839(3) 0.0183(3)
C12A C 0.6034(3) 0.1576(2) -0.0135(3)
C13A C 0.7119(3) 0.0885(2) -0.0170(4)
C14A C 0.8409(4) 0.1375(3) 0.0104(4)
C15A C 0.8656(3) 0.2585(41) 0.0416(4)
C16A C 0.7529(4) 0.3326(3) 0.0454(4)
H18A H 0.502(3) 0.114(3) -0.048(4)
H19A H 0.702(3) -0.007(2) -0.040(4)
H20A H 0.911(4) 0.086(4) 0.010(5)
H21A H 0.9707 0.3046 0.0820
H22A H 0.767(2) 0.415(2) 0.057(3)
O4_2 O 0.4868(2) 0.6525(2) -0.0209(3)
K1_2 K 0.47340(5) 0.46887(4) -0.26216(6)
loop_
_geom_bond_atom_site_label_1
_geom_bond_atom_site_label_2
_geom_bond_site_symmetry_1
_geom_bond_site_symmetry_2
K1 O1 1_555 1_555
O1 C1 1_555 1_555
O2 K1 1_555 1_555
O3 C5 1_555 1_555
O4 K1 1_555 1_555
C1 C6 1_555 1_555
C2 O1 1_555 1_555
C3 O2 1_555 1_555
C4 O2 1_555 1_555
C5 C4 1_555 1_555
C6 C7 1_555 1_555
C7 C8 1_555 1_555
C8 C9 1_555 1_555
C9 C10 1_555 1_555
C10 C1 1_555 1_555
C11 O4 1_555 1_555
C12 C11 1_555 1_555
C13 C12 1_555 1_555
C14 C13 1_555 1_555
C15 C14 1_555 1_555
C16 C11 1_555 1_555
H1 C2 1_555 1_555
H2 C2 1_555 1_555
H3 C3 1_555 1_555
H4 C3 1_555 1_555
H5 C4 1_555 1_555
H6 C4 1_555 1_555
H7 C5 1_555 1_555
H8 C5 1_555 1_555
H9 C6 1_555 1_555
H10 C7 1_555 1_555
H11 C7 1_555 1_555
H12 C8 1_555 1_555
H13 C8 1_555 1_555
H14 C9 1_555 1_555
H15 C9 1_555 1_555
H16 C10 1_555 1_555
H17 C10 1_555 1_555
H18 C12 1_555 1_555
H19 C13 1_555 1_555
H20 C14 1_555 1_555
H21 C15 1_555 1_555
H22 C16 1_555 1_555
O3A K1 1_555 1_555
C5A O3A 1_555 1_555
C4A C5A 1_555 1_555
O2A K1 1_555 1_555
C3A O2A 1_555 1_555
C2A C3A 1_555 1_555
O1A C2A 1_555 1_555
C1A O1A 1_555 1_555
C6A O3 1_555 1_555
C7A C6A 1_555 1_555
C8A C7A 1_555 1_555
C9A C8A 1_555 1_555
C10A C1A 1_555 1_555
H16A C10A 1_555 1_555
H17A C10A 1_555 1_555
H14A C9A 1_555 1_555
H15A C9A 1_555 1_555
H12A C8A 1_555 1_555
H13A C8A 1_555 1_555
H10A C7A 1_555 1_555
H11A C7A 1_555 1_555
H9A C6A 1_555 1_555
H1A C2A 1_555 1_555
H2A C2A 1_555 1_555
H3A C3A 1_555 1_555
H4A C3A 1_555 1_555
H5A C4A 1_555 1_555
H6A C4A 1_555 1_555
H7A C5A 1_555 1_555
H8A C5A 1_555 1_555
O4A K1 1_555 1_555
K1A O2 1_555 1_555
K1A_2 O4 1_555 1_555
O4A_2 K1A 1_555 1_555
C11A O4A_2 1_555 1_555
C12A C11A 1_555 1_555
C13A C12A 1_555 1_555
C14A C13A 1_555 1_555
C15A C14A 1_555 1_555
C16A C11A 1_555 1_555
H18A C12A 1_555 1_555
H19A C13A 1_555 1_555
H20A C14A 1_555 1_555
H21A C15A 1_555 1_555
H22A C16A 1_555 1_555
O4_2 K1A 1_555 1_555
K1_2 O4A_2 1_555 1_555
O3 K1A 1_555 1_555
C2 C3 1_555 1_555
C6 O3A 1_555 1_555
C15 C16 1_555 1_555
C4A O2A 1_555 1_555
O2A K1A 1_555 1_555
O1A K1A 1_555 1_555
C1A C6A 1_555 1_555
C9A C10A 1_555 1_555
O4A K1A_2 1_555 1_555
C15A C16A 1_555 1_555
O4_2 K1_2 1_555 1_555

#END
