
#######################################################################
#
#                 Cambridge Crystallographic Data Centre
#                                CCDC 
#
#######################################################################
#
# If this CIF has been generated from an entry in the Cambridge 
# Structural Database, then it will include bibliographic, chemical, 
# crystal, experimental, refinement or atomic coordinate data resulting 
# from the CCDC's data processing and validation procedures.
#
#######################################################################

data_DUNSUA
_symmetry_cell_setting           monoclinic
_symmetry_space_group_name_H-M   'P 21/n'
_symmetry_Int_Tables_number      14
_space_group_name_Hall           '-P 2yn'
loop_
_symmetry_equiv_pos_site_id
_symmetry_equiv_pos_as_xyz
1 x,y,z
2 1/2-x,1/2+y,1/2-z
3 -x,-y,-z
4 1/2+x,1/2-y,1/2+z
_cell_length_a                   19.185(12)
_cell_length_b                   13.266(5)
_cell_length_c                   13.038(5)
_cell_angle_alpha                90
_cell_angle_beta                 96.55(4)
_cell_angle_gamma                90
_cell_volume                     3296.62
loop_
_atom_site_label
_atom_site_type_symbol
_atom_site_fract_x
_atom_site_fract_y
_atom_site_fract_z
Na1 Na 0.06478(5) 0.02195(7) 0.08230(7)
Na2 Na 0.24079(5) 0.05192(7) 0.08807(7)
O1 O 0.20602(9) 0.0681(1) -0.1291(1)
O2 O 0.13187(8) 0.1574(1) 0.0163(1)
O3 O 0.26243(8) 0.2265(1) 0.1041(1)
O4 O 0.36936(9) 0.0941(1) 0.1277(1)
O5 O 0.3132(1) -0.0899(1) 0.1759(1)
O6 O 0.24718(9) -0.1016(1) -0.0167(1)
O7 O 0.15709(9) 0.0255(1) 0.2007(1)
O8 O -0.03705(9) 0.1019(1) 0.0299(1)
C1 C 0.2165(2) -0.1148(2) -0.1209(2)
C2 C 0.2306(2) -0.0192(2) -0.1776(2)
C3 C 0.1326(1) 0.0845(2) -0.1467(2)
C4 C 0.1171(1) 0.1770(2) -0.0908(2)
C5 C 0.1391(1) 0.2450(2) 0.0806(2)
C6 C 0.2080(1) 0.2977(2) 0.0767(2)
C7 C 0.3315(1) 0.2616(2) 0.0910(2)
C8 C 0.3817(1) 0.1965(2) 0.1598(2)
C9 C 0.4066(2) 0.0204(3) 0.1926(3)
C10 C 0.3826(2) -0.0806(2) 0.1587(3)
C11 C 0.2820(2) -0.1830(2) 0.1407(3)
C12 C 0.2325(2) -0.1749(2) 0.0546(2)
C13 C 0.3075(2) -0.0032(2) -0.1855(2)
C14 C 0.3401(2) -0.0939(3) -0.2333(3)
C15 C 0.3265(2) -0.1888(3) -0.1771(3)
C16 C 0.2488(2) -0.2038(2) -0.1710(2)
C17 C 0.3454(2) 0.2591(2) -0.0199(2)
C18 C 0.4214(2) 0.2873(3) -0.0312(3)
C19 C 0.4724(2) 0.2229(3) 0.0390(3)
C20 C 0.4567(2) 0.2298(3) 0.1494(3)
C21 C 0.1595(1) 0.0387(2) 0.2995(2)
C22 C 0.0986(1) 0.0481(2) 0.3499(2)
C23 C 0.1030(2) 0.0607(2) 0.4562(2)
C24 C 0.1663(2) 0.0650(2) 0.5148(2)
C25 C 0.2255(2) 0.0571(2) 0.4685(2)
C26 C 0.2227(2) 0.0448(2) 0.3638(2)
C27 C -0.0443(1) 0.1964(2) 0.0512(2)
C28 C -0.0415(1) 0.2318(2) 0.1526(2)
C29 C -0.0495(2) 0.3326(2) 0.1747(2)
C30 C -0.0594(2) 0.4023(2) 0.0994(2)
C31 C -0.0621(2) 0.3714(3) -0.0011(3)
C32 C -0.0550(2) 0.2710(2) -0.0253(2)
H1 H 0.167(1) -0.120(2) -0.119(2)
H2 H 0.202(1) -0.027(2) -0.251(2)
H3 H 0.106(1) 0.018(2) -0.127(2)
H4 H 0.122(1) 0.094(2) -0.218(2)
H5 H 0.147(1) 0.234(2) -0.109(2)
H6 H 0.070(1) 0.198(2) -0.108(2)
H7 H 0.137(1) 0.219(1) 0.150(1)
H8 H 0.101(1) 0.296(2) 0.061(2)
H9 H 0.214(1) 0.323(2) 0.007(2)
H10 H 0.213(1) 0.357(2) 0.125(2)
H11 H 0.337(1) 0.331(2) 0.119(2)
H12 H 0.371(1) 0.197(2) 0.238(2)
H13 H 0.450(2) 0.018(2) 0.180(2)
H14 H 0.395(2) 0.039(2) 0.260(2)
H15 H 0.410(2) -0.137(2) 0.187(2)
H16 H 0.391(2) -0.087(2) 0.077(2)
H17 H 0.3110 -0.2237 0.0983
H18 H 0.275(1) -0.233(2) 0.196(2)
H19 H 0.1932 -0.1519 0.0905
H20 H 0.208(1) -0.236(2) 0.028(2)
H21 H 0.315(1) 0.062(2) -0.225(2)
H22 H 0.331(1) 0.004(2) -0.112(2)
H23 H 0.385(2) -0.082(2) -0.242(2)
H24 H 0.318(2) -0.093(2) -0.300(3)
H25 H 0.346(2) -0.255(2) -0.210(2)
H26 H 0.352(1) -0.186(2) -0.099(2)
H27 H 0.218(1) -0.208(2) -0.245(2)
H28 H 0.236(1) -0.270(2) -0.127(2)
H29 H 0.337(1) 0.190(2) -0.041(2)
H30 H 0.315(1) 0.308(2) -0.061(2)
H31 H 0.434(2) 0.288(4) -0.102(3)
H32 H 0.423(2) 0.365(2) -0.015(2)
H33 H 0.522(2) 0.247(2) 0.038(2)
H34 H 0.473(2) 0.144(2) 0.014(2)
H35 H 0.487(1) 0.184(2) 0.187(2)
H36 H 0.458(2) 0.302(2) 0.173(2)
H37 H 0.056(1) 0.040(2) 0.309(2)
H38 H 0.063(1) 0.062(2) 0.482(2)
H39 H 0.165(2) 0.073(2) 0.588(2)
H40 H 0.272(2) 0.065(2) 0.509(2)
H41 H 0.267(1) 0.035(2) 0.331(2)
H42 H -0.030(1) 0.185(2) 0.209(2)
H43 H -0.044(1) 0.351(2) 0.247(2)
H44 H -0.063(2) 0.481(2) 0.110(2)
H45 H -0.072(2) 0.423(2) -0.057(2)
H46 H -0.059(1) 0.242(2) -0.092(2)
O8B O 0.03705(9) -0.1019(1) -0.0299(1)
Na1B Na -0.06478(5) -0.02195(7) -0.08230(7)
loop_
_geom_bond_atom_site_label_1
_geom_bond_atom_site_label_2
_geom_bond_site_symmetry_1
_geom_bond_site_symmetry_2
Na1 O2 1_555 1_555
Na2 O1 1_555 1_555
O1 C2 1_555 1_555
O2 Na2 1_555 1_555
O3 Na2 1_555 1_555
O4 Na2 1_555 1_555
O5 Na2 1_555 1_555
O6 Na2 1_555 1_555
O7 Na1 1_555 1_555
O8 Na1 1_555 1_555
C1 O6 1_555 1_555
C2 C1 1_555 1_555
C3 O1 1_555 1_555
C4 O2 1_555 1_555
C5 O2 1_555 1_555
C6 O3 1_555 1_555
C7 O3 1_555 1_555
C8 O4 1_555 1_555
C9 O4 1_555 1_555
C10 O5 1_555 1_555
C11 O5 1_555 1_555
C12 O6 1_555 1_555
C13 C2 1_555 1_555
C14 C13 1_555 1_555
C15 C14 1_555 1_555
C16 C1 1_555 1_555
C17 C7 1_555 1_555
C18 C17 1_555 1_555
C19 C18 1_555 1_555
C20 C8 1_555 1_555
C21 O7 1_555 1_555
C22 C21 1_555 1_555
C23 C22 1_555 1_555
C24 C23 1_555 1_555
C25 C24 1_555 1_555
C26 C21 1_555 1_555
C27 O8 1_555 1_555
C28 C27 1_555 1_555
C29 C28 1_555 1_555
C30 C29 1_555 1_555
C31 C30 1_555 1_555
C32 C27 1_555 1_555
H1 C1 1_555 1_555
H2 C2 1_555 1_555
H3 C3 1_555 1_555
H4 C3 1_555 1_555
H5 C4 1_555 1_555
H6 C4 1_555 1_555
H7 C5 1_555 1_555
H8 C5 1_555 1_555
H9 C6 1_555 1_555
H10 C6 1_555 1_555
H11 C7 1_555 1_555
H12 C8 1_555 1_555
H13 C9 1_555 1_555
H14 C9 1_555 1_555
H15 C10 1_555 1_555
H16 C10 1_555 1_555
H17 C11 1_555 1_555
H18 C11 1_555 1_555
H19 C12 1_555 1_555
H20 C12 1_555 1_555
H21 C13 1_555 1_555
H22 C13 1_555 1_555
H23 C14 1_555 1_555
H24 C14 1_555 1_555
H25 C15 1_555 1_555
H26 C15 1_555 1_555
H27 C16 1_555 1_555
H28 C16 1_555 1_555
H29 C17 1_555 1_555
H30 C17 1_555 1_555
H31 C18 1_555 1_555
H32 C18 1_555 1_555
H33 C19 1_555 1_555
H34 C19 1_555 1_555
H35 C20 1_555 1_555
H36 C20 1_555 1_555
H37 C22 1_555 1_555
H38 C23 1_555 1_555
H39 C24 1_555 1_555
H40 C25 1_555 1_555
H41 C26 1_555 1_555
H42 C28 1_555 1_555
H43 C29 1_555 1_555
H44 C30 1_555 1_555
H45 C31 1_555 1_555
H46 C32 1_555 1_555
O8B Na1 1_555 1_555
Na1B O8 1_555 1_555
Na2 O7 1_555 1_555
C3 C4 1_555 1_555
C5 C6 1_555 1_555
C7 C8 1_555 1_555
C9 C10 1_555 1_555
C11 C12 1_555 1_555
C15 C16 1_555 1_555
C19 C20 1_555 1_555
C25 C26 1_555 1_555
C31 C32 1_555 1_555
O8B Na1B 1_555 1_555

#END
