
#######################################################################
#
#                 Cambridge Crystallographic Data Centre
#                                CCDC 
#
#######################################################################
#
# If this CIF has been generated from an entry in the Cambridge 
# Structural Database, then it will include bibliographic, chemical, 
# crystal, experimental, refinement or atomic coordinate data resulting 
# from the CCDC's data processing and validation procedures.
#
#######################################################################

data_DUPBIB
_symmetry_cell_setting           orthorhombic
_symmetry_space_group_name_H-M   'P n a 21'
_symmetry_Int_Tables_number      33
_space_group_name_Hall           'P 2c -2n'
loop_
_symmetry_equiv_pos_site_id
_symmetry_equiv_pos_as_xyz
1 x,y,z
2 -x,-y,1/2+z
3 1/2+x,1/2-y,z
4 1/2-x,1/2+y,1/2+z
_cell_length_a                   16.9489(5)
_cell_length_b                   12.4998(4)
_cell_length_c                   17.1316(5)
_cell_angle_alpha                90
_cell_angle_beta                 90
_cell_angle_gamma                90
_cell_volume                     3629.46
loop_
_atom_site_label
_atom_site_type_symbol
_atom_site_fract_x
_atom_site_fract_y
_atom_site_fract_z
Br1 Br 0.42061(6) 0.48832(9) -0.00430(6)
Cu1 Cu 0.55787(8) 0.51224(9) 0.00870(7)
P1 P 0.59794(15) 0.67306(17) 0.05224(13)
P2 P 0.36666(15) 0.62957(17) 0.47660(13)
N1 N 0.4819(5) 0.5091(6) 0.2561(5)
C1 C 0.6687(6) 0.7407(7) -0.0086(5)
C2 C 0.7116(7) 0.6818(8) -0.0641(6)
H1 H 0.7043 0.6066 -0.0672
C3 C 0.7649(7) 0.7314(9) -0.1148(6)
H2 H 0.7916 0.6899 -0.1530
C4 C 0.7787(7) 0.8375(9) -0.1102(6)
H3 H 0.8168 0.8701 -0.1431
C5 C 0.7369(8) 0.8982(9) -0.0571(7)
H4 H 0.7452 0.9734 -0.0555
C6 C 0.6833(6) 0.8527(7) -0.0062(6)
H5 H 0.6562 0.8963 0.0304
C7 C 0.5228(6) 0.7744(7) 0.0716(5)
C8 C 0.4551(6) 0.7749(8) 0.0279(5)
H6 H 0.4482 0.7240 -0.0127
C9 C 0.3972(7) 0.8489(10) 0.0429(7)
H7 H 0.3515 0.8514 0.0109
C10 C 0.4051(8) 0.9189(9) 0.1034(8)
H8 H 0.3636 0.9674 0.1148
C11 C 0.4715(8) 0.9200(9) 0.1477(7)
H9 H 0.4765 0.9703 0.1890
C12 C 0.5315(7) 0.8487(8) 0.1329(6)
H10 H 0.5781 0.8495 0.1637
C13 C 0.6443(6) 0.6585(7) 0.1477(5)
C14 C 0.7205(6) 0.6892(7) 0.1607(5)
H11 H 0.7492 0.7230 0.1200
C15 C 0.7571(7) 0.6720(8) 0.2326(6)
H12 H 0.8101 0.6937 0.2411
C16 C 0.7149(7) 0.6230(8) 0.2906(6)
H13 H 0.7395 0.6104 0.3396
C17 C 0.6381(7) 0.5916(8) 0.2800(6)
H14 H 0.6100 0.5588 0.3216
C18 C 0.6015(6) 0.6077(7) 0.2086(5)
C19 C 0.5168(6) 0.5736(8) 0.1949(5)
H15 H 0.4842 0.6387 0.1881
H16 H 0.5144 0.5328 0.1455
C20 C 0.4972(6) 0.4000(7) 0.2630(5)
C21 C 0.5486(6) 0.3491(8) 0.2128(5)
H17 H 0.5732 0.3891 0.1725
C22 C 0.5650(6) 0.2419(9) 0.2198(6)
H18 H 0.6013 0.2094 0.1848
C23 C 0.5296(7) 0.1805(8) 0.2771(6)
H19 H 0.5413 0.1065 0.2824
C24 C 0.4760(6) 0.2310(8) 0.3270(6)
H20 H 0.4505 0.1903 0.3664
C25 C 0.4593(6) 0.3392(7) 0.3204(5)
H21 H 0.4224 0.3719 0.3546
C26 C 0.4436(6) 0.5673(7) 0.3200(5)
H22 H 0.4625 0.6423 0.3190
H23 H 0.4612 0.5355 0.3700
C27 C 0.3554(6) 0.5687(6) 0.3193(5)
C28 C 0.3136(6) 0.5378(7) 0.2533(6)
H24 H 0.3419 0.5152 0.2084
C29 C 0.2328(7) 0.5390(8) 0.2512(7)
H25 H 0.2060 0.5153 0.2058
C30 C 0.1896(7) 0.5751(8) 0.3157(6)
H26 H 0.1336 0.5791 0.3139
C31 C 0.2312(7) 0.6053(8) 0.3832(6)
H27 H 0.2028 0.6285 0.4279
C32 C 0.3124(6) 0.6018(7) 0.3856(5)
C33 C 0.4217(6) 0.7523(7) 0.4567(5)
C34 C 0.4880(6) 0.7760(7) 0.5030(6)
H28 H 0.5050 0.7260 0.5412
C35 C 0.5282(7) 0.8689(8) 0.4941(6)
H29 H 0.5721 0.8846 0.5266
C36 C 0.5041(7) 0.9425(8) 0.4360(7)
H30 H 0.5311 1.0086 0.4303
C37 C 0.4424(7) 0.9188(8) 0.3880(6)
H31 H 0.4280 0.9668 0.3475
C38 C 0.3999(6) 0.8229(8) 0.3985(6)
H32 H 0.3562 0.8069 0.3657
C39 C 0.2921(6) 0.6729(7) 0.5477(5)
C40 C 0.2574(8) 0.7735(9) 0.5440(6)
H33 H 0.2695 0.8203 0.5020
C41 C 0.2053(8) 0.8055(10) 0.6013(6)
H34 H 0.1820 0.8745 0.5985
C42 C 0.1866(7) 0.7384(9) 0.6626(5)
H35 H 0.1500 0.7605 0.7013
C43 C 0.2219(7) 0.6385(9) 0.6669(6)
H36 H 0.2100 0.5923 0.7093
C44 C 0.2744(7) 0.6057(8) 0.6098(5)
H37 H 0.2984 0.5371 0.6131
Cu1A Cu 0.44213(8) 0.48776(9) 0.50870(7)
P2A P 0.63334(15) 0.37043(17) -0.02340(13)
loop_
_geom_bond_atom_site_label_1
_geom_bond_atom_site_label_2
_geom_bond_site_symmetry_1
_geom_bond_site_symmetry_2
Br1 Cu1 1_555 1_555
Cu1 P1 1_555 1_555
P1 C1 1_555 1_555
P2 C32 1_555 1_555
N1 C19 1_555 1_555
C1 C2 1_555 1_555
C2 H1 1_555 1_555
C3 C2 1_555 1_555
H2 C3 1_555 1_555
C4 C3 1_555 1_555
H3 C4 1_555 1_555
C5 C4 1_555 1_555
H4 C5 1_555 1_555
C6 C1 1_555 1_555
H5 C6 1_555 1_555
C7 P1 1_555 1_555
C8 C7 1_555 1_555
H6 C8 1_555 1_555
C9 C8 1_555 1_555
H7 C9 1_555 1_555
C10 C9 1_555 1_555
H8 C10 1_555 1_555
C11 C10 1_555 1_555
H9 C11 1_555 1_555
C12 C7 1_555 1_555
H10 C12 1_555 1_555
C13 P1 1_555 1_555
C14 C13 1_555 1_555
H11 C14 1_555 1_555
C15 C14 1_555 1_555
H12 C15 1_555 1_555
C16 C15 1_555 1_555
H13 C16 1_555 1_555
C17 C16 1_555 1_555
H14 C17 1_555 1_555
C18 C13 1_555 1_555
C19 C18 1_555 1_555
H15 C19 1_555 1_555
H16 C19 1_555 1_555
C20 N1 1_555 1_555
C21 C20 1_555 1_555
H17 C21 1_555 1_555
C22 C21 1_555 1_555
H18 C22 1_555 1_555
C23 C22 1_555 1_555
H19 C23 1_555 1_555
C24 C23 1_555 1_555
H20 C24 1_555 1_555
C25 C20 1_555 1_555
H21 C25 1_555 1_555
C26 N1 1_555 1_555
H22 C26 1_555 1_555
H23 C26 1_555 1_555
C27 C26 1_555 1_555
C28 C27 1_555 1_555
H24 C28 1_555 1_555
C29 C28 1_555 1_555
H25 C29 1_555 1_555
C30 C29 1_555 1_555
H26 C30 1_555 1_555
C31 C30 1_555 1_555
H27 C31 1_555 1_555
C32 C27 1_555 1_555
C33 P2 1_555 1_555
C34 C33 1_555 1_555
H28 C34 1_555 1_555
C35 C34 1_555 1_555
H29 C35 1_555 1_555
C36 C35 1_555 1_555
H30 C36 1_555 1_555
C37 C36 1_555 1_555
H31 C37 1_555 1_555
C38 C33 1_555 1_555
H32 C38 1_555 1_555
C39 P2 1_555 1_555
C40 C39 1_555 1_555
H33 C40 1_555 1_555
C41 C40 1_555 1_555
H34 C41 1_555 1_555
C42 C41 1_555 1_555
H35 C42 1_555 1_555
C43 C42 1_555 1_555
H36 C43 1_555 1_555
C44 C39 1_555 1_555
H37 C44 1_555 1_555
Cu1A P2 1_555 1_555
P2A Cu1 1_555 1_555
C5 C6 1_555 1_555
C11 C12 1_555 1_555
C17 C18 1_555 1_555
C24 C25 1_555 1_555
C31 C32 1_555 1_555
C37 C38 1_555 1_555
C43 C44 1_555 1_555

#END
