
#######################################################################
#
#                 Cambridge Crystallographic Data Centre
#                                CCDC 
#
#######################################################################
#
# If this CIF has been generated from an entry in the Cambridge 
# Structural Database, then it will include bibliographic, chemical, 
# crystal, experimental, refinement or atomic coordinate data resulting 
# from the CCDC's data processing and validation procedures.
#
#######################################################################

data_DUPDUP
_symmetry_cell_setting           triclinic
_symmetry_space_group_name_H-M   'P -1'
_symmetry_Int_Tables_number      2
_space_group_name_Hall           '-P 1'
loop_
_symmetry_equiv_pos_site_id
_symmetry_equiv_pos_as_xyz
1 x,y,z
2 -x,-y,-z
_cell_length_a                   8.54280(10)
_cell_length_b                   8.60000(10)
_cell_length_c                   12.70170(10)
_cell_angle_alpha                76.6930(10)
_cell_angle_beta                 75.6840(10)
_cell_angle_gamma                70.8450(10)
_cell_volume                     842.732
loop_
_atom_site_label
_atom_site_type_symbol
_atom_site_fract_x
_atom_site_fract_y
_atom_site_fract_z
N1 N 0.6089(3) 0.6079(3) 0.30227(19)
C1 C 0.4122(4) 0.6689(3) 0.1635(2)
H1 H 0.4638 0.7187 0.0913
H2 H 0.3028 0.7461 0.1889
H3 H 0.3959 0.5640 0.1572
C2 C 0.5218(3) 0.6363(3) 0.24181(19)
Ag1 Ag 0.95985(2) 0.517331(17) 0.277021(11)
C3 C 1.1265(3) 0.2063(2) -0.08197(16)
H4 H 1.2186 0.1622 -0.1368
C4 C 1.1220(3) 0.1253(2) 0.02506(16)
H5 H 1.2082 0.0265 0.0435
C5 C 0.9883(2) 0.1913(2) 0.10587(15)
C6 C 0.8638(2) 0.3340(2) 0.07477(15)
H6 H 0.7711 0.3815 0.1281
C7 C 0.8764(2) 0.4062(2) -0.03471(15)
H7 H 0.7897 0.5028 -0.0558
C8 C 0.9843(2) 0.1078(2) 0.22306(15)
C9 C 0.9013(3) 0.1482(2) 0.40706(14)
H8 H 1.0194 0.0929 0.4168
H9 H 0.8384 0.0639 0.4316
C10 C 0.8220(2) 0.2873(2) 0.47523(15)
H10 H 0.7081 0.3484 0.4589
H11 H 0.8084 0.2375 0.5542
C11 C 0.8215(2) 0.5458(2) 0.51799(15)
H12 H 0.7950 0.4994 0.5970
H13 H 0.7136 0.6023 0.4917
C12 C 1.0831(2) 0.3284(2) 0.49537(15)
H14 H 1.1532 0.2375 0.4534
H15 H 1.0602 0.2788 0.5740
N2 N 1.0065(2) 0.3452(2) -0.11262(13)
N3 N 0.92105(19) 0.40820(18) 0.45532(12)
O1 O 1.04969(19) -0.03755(17) 0.25168(12)
O2 O 0.89704(17) 0.21717(15) 0.29271(10)
C3A C 0.8735(3) 0.7937(2) 1.08197(16)
H4A H 0.7814 0.8378 1.1368
C4A C 0.8780(3) 0.8747(2) 0.97494(16)
H5A H 0.7918 0.9735 0.9565
C5A C 1.0117(2) 0.8087(2) 0.89413(15)
C6A C 1.1362(2) 0.6660(2) 0.92523(15)
H6A H 1.2289 0.6185 0.8719
C7A C 1.1236(2) 0.5938(2) 1.03471(15)
H7A H 1.2103 0.4972 1.0558
C8A C 1.0157(2) 0.8922(2) 0.77694(15)
C9A C 1.0987(3) 0.8518(2) 0.59294(14)
H8A H 0.9806 0.9071 0.5832
H9A H 1.1616 0.9361 0.5684
C10A C 1.1780(2) 0.7127(2) 0.52477(15)
H10A H 1.2919 0.6516 0.5411
H11A H 1.1916 0.7625 0.4458
C11A C 1.1785(2) 0.4542(2) 0.48201(15)
H12A H 1.2050 0.5006 0.4030
H13A H 1.2864 0.3977 0.5083
C12A C 0.9169(2) 0.6716(2) 0.50463(15)
H14A H 0.8468 0.7625 0.5466
H15A H 0.9398 0.7212 0.4260
N2A N 0.9935(2) 0.6548(2) 1.11262(13)
N3A N 1.07895(19) 0.59180(18) 0.54468(12)
O1A O 0.95031(19) 1.03755(17) 0.74832(12)
O2A O 1.10296(17) 0.78283(15) 0.70729(10)
Ag1A Ag 1.04015(2) 0.482669(17) -0.277021(11)
Ag1_2 Ag 0.95985(2) 0.517331(17) 1.277021(11)
Ag1A_2 Ag 1.04015(2) 0.482669(17) 0.722979(11)
N2A_2 N 0.9935(2) 0.6548(2) 0.11262(13)
N3A_2 N 1.07895(19) 0.59180(18) -0.45532(12)
C13 C 0.5069(3) 0.0812(3) 0.32368(19)
F1 F 0.5041(2) 0.2040(2) 0.37282(15)
F2 F 0.66634(17) -0.01252(19) 0.30448(13)
F3 F 0.4180(2) -0.0117(2) 0.39535(13)
O3 O 0.5190(3) 0.2707(3) 0.13408(18)
O4 O 0.4454(2) 0.0172(2) 0.15342(16)
O5 O 0.2480(2) 0.2503(2) 0.23809(14)
S1 S 0.42070(6) 0.16394(6) 0.19746(4)
loop_
_geom_bond_atom_site_label_1
_geom_bond_atom_site_label_2
_geom_bond_site_symmetry_1
_geom_bond_site_symmetry_2
N1 C2 1_555 1_555
C1 H1 1_555 1_555
H2 C1 1_555 1_555
H3 C1 1_555 1_555
C2 C1 1_555 1_555
Ag1 N3 1_555 1_555
C3 H4 1_555 1_555
C4 C3 1_555 1_555
H5 C4 1_555 1_555
C5 C4 1_555 1_555
C6 C5 1_555 1_555
H6 C6 1_555 1_555
C7 C6 1_555 1_555
H7 C7 1_555 1_555
C8 C5 1_555 1_555
C9 H8 1_555 1_555
H9 C9 1_555 1_555
C10 C9 1_555 1_555
H10 C10 1_555 1_555
H11 C10 1_555 1_555
C11 H12 1_555 1_555
H13 C11 1_555 1_555
C12 H14 1_555 1_555
H15 C12 1_555 1_555
N2 C3 1_555 1_555
N3 C10 1_555 1_555
O1 C8 1_555 1_555
O2 C8 1_555 1_555
C13 F1 1_555 1_555
F2 C13 1_555 1_555
F3 C13 1_555 1_555
O3 S1 1_555 1_555
O4 S1 1_555 1_555
O5 S1 1_555 1_555
S1 C13 1_555 1_555
C3A H4A 1_555 1_555
C4A C3A 1_555 1_555
H5A C4A 1_555 1_555
C5A C4A 1_555 1_555
C6A C5A 1_555 1_555
H6A C6A 1_555 1_555
C7A C6A 1_555 1_555
H7A C7A 1_555 1_555
C8A C5A 1_555 1_555
C9A H8A 1_555 1_555
H9A C9A 1_555 1_555
C10A C9A 1_555 1_555
H10A C10A 1_555 1_555
H11A C10A 1_555 1_555
C11A C12 1_555 1_555
H12A C11A 1_555 1_555
H13A C11A 1_555 1_555
C12A C11 1_555 1_555
H14A C12A 1_555 1_555
H15A C12A 1_555 1_555
N2A C3A 1_555 1_555
N3A C10A 1_555 1_555
O1A C8A 1_555 1_555
O2A C8A 1_555 1_555
Ag1A N2 1_555 1_555
Ag1_2 N2A 1_555 1_555
Ag1A_2 N3A 1_555 1_555
N2A_2 Ag1 1_555 1_555
N3A_2 Ag1A 1_555 1_555
C7 N2 1_555 1_555
C9 O2 1_555 1_555
C11 N3 1_555 1_555
C12 N3 1_555 1_555
C7A N2A 1_555 1_555
C9A O2A 1_555 1_555
C11A N3A 1_555 1_555
C12A N3A 1_555 1_555

#END
