
#######################################################################
#
#                 Cambridge Crystallographic Data Centre
#                                CCDC 
#
#######################################################################
#
# If this CIF has been generated from an entry in the Cambridge 
# Structural Database, then it will include bibliographic, chemical, 
# crystal, experimental, refinement or atomic coordinate data resulting 
# from the CCDC's data processing and validation procedures.
#
#######################################################################

data_DUPDEZ
_symmetry_cell_setting           monoclinic
_symmetry_space_group_name_H-M   'C 2/c'
_symmetry_Int_Tables_number      15
_space_group_name_Hall           '-C 2yn'
loop_
_symmetry_equiv_pos_site_id
_symmetry_equiv_pos_as_xyz
1 x,y,z
2 -x,y,1/2-z
3 1/2+x,1/2+y,z
4 1/2-x,1/2+y,1/2-z
5 -x,-y,-z
6 x,-y,1/2+z
7 1/2-x,1/2-y,-z
8 1/2+x,1/2-y,1/2+z
_cell_length_a                   15.9415(2)
_cell_length_b                   12.1518(2)
_cell_length_c                   14.3405(3)
_cell_angle_alpha                90
_cell_angle_beta                 119.7900(10)
_cell_angle_gamma                90
_cell_volume                     2410.9
loop_
_atom_site_label
_atom_site_type_symbol
_atom_site_fract_x
_atom_site_fract_y
_atom_site_fract_z
Ag1 Ag 0.592478(10) 0.676426(11) 0.616503(10)
C1 C 0.62872(17) 0.69496(15) 0.42292(17)
H1 H 0.6330 0.6173 0.4318
C2 C 0.64254(15) 0.74013(16) 0.34319(15)
H2 H 0.6564 0.6945 0.2988
C3 C 0.63581(13) 0.85304(15) 0.32915(14)
C4 C 0.61397(17) 0.91542(16) 0.39484(17)
H3 H 0.6072 0.9930 0.3860
C5 C 0.60216(15) 0.86416(17) 0.47309(16)
H4 H 0.5881 0.9082 0.5183
C6 C 0.65086(13) 0.90821(15) 0.24538(14)
C7 C 0.72896(14) 0.89473(17) 0.14306(14)
H5 H 0.7588 0.9686 0.1642
H6 H 0.6673 0.9016 0.0744
C8 C 0.79570(14) 0.81739(16) 0.13001(15)
H7 H 0.7709 0.7415 0.1238
H8 H 0.7945 0.8351 0.0620
C9 C 0.94720(15) 0.72195(14) 0.20856(15)
H9 H 0.9400 0.7205 0.1359
H10 H 0.9165 0.6548 0.2170
C10 C 0.94701(11) 0.91856(13) 0.20776(12)
H11 H 0.9160 0.9861 0.2151
H12 H 0.9405 0.9189 0.1354
N1 N 0.60960(11) 0.75528(12) 0.48841(11)
N2 N 0.89738(11) 0.82058(11) 0.21887(12)
N3 N 0.62127(12) 0.42164(13) 0.58056(12)
O1 O 0.71149(10) 0.85059(11) 0.22538(10)
O2 O 0.61204(11) 0.99268(12) 0.20061(11)
O3 O 0.57709(15) 0.46751(15) 0.62097(16)
O4 O 0.68683(12) 0.47219(14) 0.57520(14)
O5 O 0.59890(10) 0.32675(10) 0.54375(12)
C1A C 1.37128(17) 0.69496(15) 0.07708(17)
H1A H 1.3670 0.6173 0.0682
C2A C 1.35746(15) 0.74013(16) 0.15681(15)
H2A H 1.3436 0.6945 0.2012
C3A C 1.36419(13) 0.85304(15) 0.17085(14)
C4A C 1.38603(17) 0.91542(16) 0.10516(17)
H3A H 1.3928 0.9930 0.1140
C5A C 1.39784(15) 0.86416(17) 0.02691(16)
H4A H 1.4119 0.9082 -0.0183
C6A C 1.34914(13) 0.90821(15) 0.25462(14)
C7A C 1.27104(14) 0.89473(17) 0.35694(14)
H5A H 1.2412 0.9686 0.3358
H6A H 1.3327 0.9016 0.4256
C8A C 1.20430(14) 0.81739(16) 0.36999(15)
H7A H 1.2291 0.7415 0.3762
H8A H 1.2055 0.8351 0.4380
C9A C 1.05280(15) 0.72195(14) 0.29144(15)
H9A H 1.0600 0.7205 0.3641
H10A H 1.0835 0.6548 0.2830
C10A C 1.05299(11) 0.91856(13) 0.29224(12)
H11A H 1.0840 0.9861 0.2849
H12A H 1.0595 0.9189 0.3646
N1A N 1.39040(11) 0.75528(12) 0.01159(11)
N2A N 1.10262(11) 0.82058(11) 0.28113(12)
O1A O 1.28851(10) 0.85059(11) 0.27462(10)
O2A O 1.38796(11) 0.99268(12) 0.29939(11)
Ag1A Ag 1.407522(10) 0.676426(11) -0.116503(10)
N3A N 1.37873(12) 0.42164(13) -0.08056(12)
O3A O 1.42291(15) 0.46751(15) -0.12097(16)
O4A O 1.31317(12) 0.47219(14) -0.07520(14)
O5A O 1.40110(10) 0.32675(10) -0.04375(12)
Ag1F Ag 0.907522(10) 0.823574(11) 0.383497(10)
Ag1G Ag 1.092478(10) 0.823574(11) 0.116503(10)
N2F N 0.60262(11) 0.67942(11) 0.78113(12)
N2G N 1.39738(11) 0.67942(11) -0.28113(12)
loop_
_geom_bond_atom_site_label_1
_geom_bond_atom_site_label_2
_geom_bond_site_symmetry_1
_geom_bond_site_symmetry_2
Ag1 N1 1_555 1_555
C1 H1 1_555 1_555
C2 C1 1_555 1_555
H2 C2 1_555 1_555
C3 C2 1_555 1_555
C4 C3 1_555 1_555
H3 C4 1_555 1_555
C5 C4 1_555 1_555
H4 C5 1_555 1_555
C6 C3 1_555 1_555
C7 H5 1_555 1_555
H6 C7 1_555 1_555
C8 C7 1_555 1_555
H7 C8 1_555 1_555
H8 C8 1_555 1_555
C9 H9 1_555 1_555
H10 C9 1_555 1_555
C10 H11 1_555 1_555
H12 C10 1_555 1_555
N1 C1 1_555 1_555
N2 C8 1_555 1_555
N3 O3 1_555 1_555
O1 C6 1_555 1_555
O2 C6 1_555 1_555
O3 Ag1 1_555 1_555
O4 N3 1_555 1_555
O5 N3 1_555 1_555
C1A H1A 1_555 1_555
C2A C1A 1_555 1_555
H2A C2A 1_555 1_555
C3A C2A 1_555 1_555
C4A C3A 1_555 1_555
H3A C4A 1_555 1_555
C5A C4A 1_555 1_555
H4A C5A 1_555 1_555
C6A C3A 1_555 1_555
C7A H5A 1_555 1_555
H6A C7A 1_555 1_555
C8A C7A 1_555 1_555
H7A C8A 1_555 1_555
H8A C8A 1_555 1_555
C9A C9 1_555 1_555
H9A C9A 1_555 1_555
H10A C9A 1_555 1_555
C10A C10 1_555 1_555
H11A C10A 1_555 1_555
H12A C10A 1_555 1_555
N1A C1A 1_555 1_555
N2A C8A 1_555 1_555
O1A C6A 1_555 1_555
O2A C6A 1_555 1_555
Ag1A N1A 1_555 1_555
N3A O3A 1_555 1_555
O3A Ag1A 1_555 1_555
O4A N3A 1_555 1_555
O5A N3A 1_555 1_555
Ag1F N2 1_555 1_555
Ag1G N2A 1_555 1_555
N2F Ag1 1_555 1_555
N2G Ag1A 1_555 1_555
C5 N1 1_555 1_555
C7 O1 1_555 1_555
C9 N2 1_555 1_555
C10 N2 1_555 1_555
C5A N1A 1_555 1_555
C7A O1A 1_555 1_555
C9A N2A 1_555 1_555
C10A N2A 1_555 1_555

#END
