
#######################################################################
#
#                 Cambridge Crystallographic Data Centre
#                                CCDC 
#
#######################################################################
#
# If this CIF has been generated from an entry in the Cambridge 
# Structural Database, then it will include bibliographic, chemical, 
# crystal, experimental, refinement or atomic coordinate data resulting 
# from the CCDC's data processing and validation procedures.
#
#######################################################################

data_DUPFEZ10
_symmetry_cell_setting           triclinic
_symmetry_space_group_name_H-M   'P 1'
_symmetry_Int_Tables_number      1
_space_group_name_Hall           'P 1'
loop_
_symmetry_equiv_pos_site_id
_symmetry_equiv_pos_as_xyz
1 x,y,z
_cell_length_a                   8.568(3)
_cell_length_b                   9.200(3)
_cell_length_c                   10.809(5)
_cell_angle_alpha                72.64(3)
_cell_angle_beta                 86.15(3)
_cell_angle_gamma                80.14(3)
_cell_volume                     801.087
loop_
_atom_site_label
_atom_site_type_symbol
_atom_site_fract_x
_atom_site_fract_y
_atom_site_fract_z
Br1 Br 0.2059(3) -0.3861(3) -0.0816(3)
Br2 Br 0.7340(3) -0.1810(4) 0.9827(3)
Br3 Br 0.2742(3) 0.1327(4) 1.0273(3)
Br4 Br -0.3217(3) 0.2740(4) -0.1229(3)
Cu1 Cu 0.4744(11) -0.2861(9) 0.4562(9)
Cu2 Cu -0.0246(10) 0.2187(8) 0.4491(9)
S1 S 0.2835(7) 0.2487(7) 0.3226(6)
S2 S 0.6473(7) -0.8163(6) 0.5781(6)
S3 S 0.7955(7) -0.2470(7) 0.3186(6)
S4 S 0.1456(7) -0.3155(6) 0.5840(6)
N1 N 0.4020(20) -0.0644(18) 0.3794(19)
N2 N 0.5368(21) -0.5079(21) 0.5230(20)
N3 N 0.9248(17) -0.5630(17) 0.4163(14)
N4 N -0.0059(31) -0.0150(22) 0.4985(28)
N5 N 0.3805(22) -0.3184(21) 0.2945(17)
N6 N 0.5518(19) -0.2444(20) 0.6120(16)
N7 N 0.0659(20) 0.1912(19) 0.6255(18)
N8 N -0.1200(19) 0.2336(20) 0.2762(15)
C1 C 0.3563(21) 0.0626(24) 0.3558(17)
C2 C 0.5844(24) -0.6348(24) 0.5478(21)
C3 C 0.8802(25) -0.4430(25) 0.3829(20)
C4 C 0.0597(24) -0.1307(23) 0.5374(18)
C5 C 0.4820(22) -0.4114(23) 0.2184(21)
C6 C 0.4350(24) -0.4296(23) 0.1156(20)
C7 C 0.2714(27) -0.3652(26) 0.0751(21)
C8 C 0.1771(28) -0.2904(29) 0.1472(25)
C9 C 0.2384(25) -0.2690(31) 0.2488(26)
C10 C 0.4693(25) -0.1660(27) 0.6656(23)
C11 C 0.5142(26) -0.1387(27) 0.7904(24)
C12 C 0.6541(28) -0.1963(25) 0.8281(22)
C13 C 0.7588(21) -0.2933(27) 0.7635(19)
C14 C 0.7013(27) -0.3061(26) 0.6465(21)
C15 C 0.0108(37) 0.0707(38) 0.7269(25)
C16 C 0.0922(26) 0.0698(25) 0.8609(20)
C17 C 0.1995(31) 0.1443(26) 0.8696(23)
C18 C 0.2394(28) 0.2804(29) 0.7548(22)
C19 C 0.1633(27) 0.2879(26) 0.6428(18)
C20 C -0.2277(25) 0.1418(26) 0.2781(27)
C21 C -0.2873(27) 0.1611(23) 0.1524(23)
C22 C -0.2479(22) 0.2508(21) 0.0434(20)
C23 C -0.1299(26) 0.3593(27) 0.0501(23)
C24 C -0.0838(22) 0.3382(21) 0.1651(20)
H1 H 0.6013 -0.4564 0.2685
H2 H 0.5150 -0.4921 0.0782
H3 H 0.0734 -0.2510 0.1211
H4 H 0.1755 -0.1972 0.2966
H5 H 0.3631 -0.1083 0.6528
H6 H 0.4498 -0.0906 0.8625
H7 H 0.8767 -0.3478 0.7981
H8 H 0.7860 -0.3662 0.5933
H9 H -0.0379 0.0091 0.7188
H10 H 0.0386 -0.0010 0.9309
H11 H 0.3173 0.3498 0.7541
H12 H 0.1809 0.3915 0.5459
H13 H -0.2736 0.0820 0.3437
H14 H -0.3666 0.0914 0.1407
H15 H -0.1038 0.4441 -0.0461
N3_2 N -0.0752(17) 0.4370(17) 0.4163(14)
Cu2_2 Cu 0.9754(10) -0.7813(8) 0.4491(9)
S2_2 S -0.3527(7) 0.1837(6) 0.5781(6)
loop_
_geom_bond_atom_site_label_1
_geom_bond_atom_site_label_2
_geom_bond_site_symmetry_1
_geom_bond_site_symmetry_2
Br1 C7 1_555 1_555
Br2 C12 1_555 1_555
Br3 C17 1_555 1_555
Br4 C22 1_555 1_555
Cu1 S3 1_555 1_555
Cu2 S1 1_555 1_555
S1 C1 1_555 1_555
S2 C2 1_555 1_555
S3 C3 1_555 1_555
S4 Cu1 1_555 1_555
N1 Cu1 1_555 1_555
N2 Cu1 1_555 1_555
N3 C3 1_555 1_555
N4 Cu2 1_555 1_555
N5 Cu1 1_555 1_555
N6 Cu1 1_555 1_555
N7 Cu2 1_555 1_555
N8 Cu2 1_555 1_555
C1 N1 1_555 1_555
C2 N2 1_555 1_555
C4 S4 1_555 1_555
C5 N5 1_555 1_555
C6 C5 1_555 1_555
C7 C6 1_555 1_555
C8 C7 1_555 1_555
C9 N5 1_555 1_555
C10 N6 1_555 1_555
C11 C10 1_555 1_555
C12 C11 1_555 1_555
C13 C12 1_555 1_555
C14 N6 1_555 1_555
C15 N7 1_555 1_555
C16 C15 1_555 1_555
C17 C16 1_555 1_555
C18 C17 1_555 1_555
C19 N7 1_555 1_555
C20 N8 1_555 1_555
C21 C20 1_555 1_555
C22 C21 1_555 1_555
C23 C22 1_555 1_555
C24 N8 1_555 1_555
H1 C5 1_555 1_555
H2 C6 1_555 1_555
H3 C8 1_555 1_555
H4 C9 1_555 1_555
H5 C10 1_555 1_555
H6 C11 1_555 1_555
H7 C13 1_555 1_555
H8 C14 1_555 1_555
H9 C15 1_555 1_555
H10 C16 1_555 1_555
H11 C18 1_555 1_555
H12 C19 1_555 1_555
H13 C20 1_555 1_555
H14 C21 1_555 1_555
H15 C23 1_555 1_555
N3_2 Cu2 1_555 1_555
Cu2_2 S2 1_555 1_555
S2_2 Cu2 1_555 1_555
N3 Cu2_2 1_555 1_555
N4 C4 1_555 1_555
C8 C9 1_555 1_555
C13 C14 1_555 1_555
C18 C19 1_555 1_555
C23 C24 1_555 1_555

#END
