
#######################################################################
#
#                 Cambridge Crystallographic Data Centre
#                                CCDC 
#
#######################################################################
#
# If this CIF has been generated from an entry in the Cambridge 
# Structural Database, then it will include bibliographic, chemical, 
# crystal, experimental, refinement or atomic coordinate data resulting 
# from the CCDC's data processing and validation procedures.
#
#######################################################################

data_DUPFEZ01
_symmetry_cell_setting           triclinic
_symmetry_space_group_name_H-M   'P -1'
_symmetry_Int_Tables_number      2
_space_group_name_Hall           '-P 1'
loop_
_symmetry_equiv_pos_site_id
_symmetry_equiv_pos_as_xyz
1 x,y,z
2 -x,-y,-z
_cell_length_a                   8.568
_cell_length_b                   9.200
_cell_length_c                   10.809
_cell_angle_alpha                72.64
_cell_angle_beta                 86.15
_cell_angle_gamma                80.14
_cell_volume                     801.087
loop_
_atom_site_label
_atom_site_type_symbol
_atom_site_fract_x
_atom_site_fract_y
_atom_site_fract_z
Cu1 Cu 0.5000 -0.5000 0.5000
Cu2 Cu 0.0000 0.0000 0.5000
Br1 Br 0.2360 -0.6026 -0.0322
Br2 Br 0.2980 -0.0706 1.0751
S1 S 0.3181 0.0325 0.3722
S2 S 0.1750 -0.5342 0.6327
N1 N 0.4326 -0.2782 0.4282
N2 N -0.0346 0.2260 0.4589
N3 N 0.4144 -0.5370 0.3412
N4 N 0.0930 -0.0212 0.6746
C1 C 0.3860 -0.1513 0.4040
C2 C -0.0898 0.3438 0.4228
C3 C 0.5064 -0.6227 0.2764
C4 C 0.4604 -0.6454 0.1626
C5 C 0.3086 -0.5844 0.1235
C6 C 0.2092 -0.4986 0.1918
C7 C 0.2686 -0.4814 0.3012
C8 C 0.0473 -0.1338 0.7809
C9 C 0.1110 -0.1448 0.9054
C10 C 0.2237 -0.0532 0.9131
C11 C 0.2634 0.0596 0.8012
C12 C 0.1955 0.0730 0.6824
S2A S 0.8250 -0.4658 0.3673
N1A N 0.5674 -0.7218 0.5718
N3A N 0.5856 -0.4630 0.6588
S1A S -0.3181 -0.0325 0.6278
N2A N 0.0346 -0.2260 0.5411
N4A N -0.0930 0.0212 0.3254
C2A C 0.0898 -0.3438 0.5772
C1A C 0.6140 -0.8487 0.5960
C3A C 0.4936 -0.3773 0.7236
C7A C 0.7314 -0.5186 0.6988
C8A C -0.0473 0.1338 0.2191
C12A C -0.1955 -0.0730 0.3176
S2A_2 S -0.1750 0.5342 0.3673
Cu2_2 Cu 1.0000 -1.0000 0.5000
S1A_2 S 0.6819 -1.0325 0.6278
C4A C 0.5396 -0.3546 0.8374
C6A C 0.7908 -0.5014 0.8082
C9A C -0.1110 0.1448 0.0946
C11A C -0.2634 -0.0596 0.1988
Cu1_2 Cu -0.5000 0.5000 0.5000
C5A C 0.6914 -0.4156 0.8765
C10A C -0.2237 0.0532 0.0869
Br1A Br 0.7640 -0.3974 1.0322
Br2A Br -0.2980 0.0706 -0.0751
loop_
_geom_bond_atom_site_label_1
_geom_bond_atom_site_label_2
_geom_bond_site_symmetry_1
_geom_bond_site_symmetry_2
Cu1 S2 1_555 1_555
Cu2 S1 1_555 1_555
Br1 C5 1_555 1_555
Br2 C10 1_555 1_555
S1 C1 1_555 1_555
S2 C2A 1_555 1_555
N1 Cu1 1_555 1_555
N2 Cu2 1_555 1_555
N3 Cu1 1_555 1_555
N4 Cu2 1_555 1_555
C1 N1 1_555 1_555
C2 N2 1_555 1_555
C3 N3 1_555 1_555
C4 C3 1_555 1_555
C5 C4 1_555 1_555
C6 C5 1_555 1_555
C7 N3 1_555 1_555
C8 N4 1_555 1_555
C9 C8 1_555 1_555
C10 C9 1_555 1_555
C11 C10 1_555 1_555
C12 N4 1_555 1_555
S2A Cu1 1_555 1_555
N1A Cu1 1_555 1_555
N3A Cu1 1_555 1_555
S1A Cu2 1_555 1_555
N2A Cu2 1_555 1_555
N4A Cu2 1_555 1_555
C2A N2A 1_555 1_555
C1A N1A 1_555 1_555
C3A N3A 1_555 1_555
C7A N3A 1_555 1_555
C8A N4A 1_555 1_555
C12A N4A 1_555 1_555
S2A_2 C2 1_555 1_555
Cu2_2 S1A_2 1_555 1_555
S1A_2 C1A 1_555 1_555
C4A C3A 1_555 1_555
C6A C7A 1_555 1_555
C9A C8A 1_555 1_555
C11A C12A 1_555 1_555
Cu1_2 S2A_2 1_555 1_555
C5A C4A 1_555 1_555
C10A C9A 1_555 1_555
Br1A C5A 1_555 1_555
Br2A C10A 1_555 1_555
C6 C7 1_555 1_555
C11 C12 1_555 1_555
C6A C5A 1_555 1_555
C11A C10A 1_555 1_555

#END
