
#######################################################################
#
#                 Cambridge Crystallographic Data Centre
#                                CCDC 
#
#######################################################################
#
# If this CIF has been generated from an entry in the Cambridge 
# Structural Database, then it will include bibliographic, chemical, 
# crystal, experimental, refinement or atomic coordinate data resulting 
# from the CCDC's data processing and validation procedures.
#
#######################################################################

data_DUPFAX
_symmetry_cell_setting           monoclinic
_symmetry_space_group_name_H-M   'P 21/n'
_symmetry_Int_Tables_number      14
_space_group_name_Hall           '-P 2yn'
loop_
_symmetry_equiv_pos_site_id
_symmetry_equiv_pos_as_xyz
1 x,y,z
2 1/2-x,1/2+y,1/2-z
3 -x,-y,-z
4 1/2+x,1/2-y,1/2+z
_cell_length_a                   10.1934(2)
_cell_length_b                   12.4329(2)
_cell_length_c                   12.2365(2)
_cell_angle_alpha                90
_cell_angle_beta                 104.4260(10)
_cell_angle_gamma                90
_cell_volume                     1501.88
loop_
_atom_site_label
_atom_site_type_symbol
_atom_site_fract_x
_atom_site_fract_y
_atom_site_fract_z
N1 N -0.0423(2) 0.16113(18) 0.25710(18)
Ag1 Ag 0.171994(16) 0.049229(14) 0.226191(12)
C1 C 0.1783(2) 0.06312(18) 0.47971(18)
H1 H 0.0842 0.0511 0.4493
C2 C 0.2295(2) 0.05542(17) 0.59509(18)
H2 H 0.1719 0.0383 0.6428
C3 C 0.3669(2) 0.07311(16) 0.64003(16)
C4 C 0.4460(2) 0.10405(17) 0.56838(17)
H3 H 0.5390 0.1214 0.5973
C5 C 0.3865(2) 0.10902(16) 0.45364(17)
H4 H 0.4412 0.1292 0.4045
C6 C 0.4234(2) 0.05672(16) 0.76409(17)
C7 C 0.6136(2) 0.06757(19) 0.91758(17)
H5 H 0.6185 -0.0079 0.9441
H6 H 0.5556 0.1085 0.9568
C8 C 0.7538(2) 0.11611(17) 0.94287(18)
H7 H 0.7539 0.1744 0.8878
H8 H 0.7730 0.1493 1.0188
C9 C 0.88461(19) -0.03749(16) 1.03435(16)
H9 H 0.8037 -0.0842 1.0231
H10 H 0.8942 0.0020 1.1062
C10 C 0.99172(19) 0.10611(16) 0.95839(17)
H11 H 1.0032 0.1476 1.0292
H12 H 0.9828 0.1581 0.8956
C11 C -0.1433(2) 0.18446(19) 0.27198(18)
C12 C -0.2748(3) 0.2140(2) 0.2886(2)
H13 H -0.3463 0.1841 0.2272
H14 H -0.2829 0.2925 0.2889
H15 H -0.2840 0.1852 0.3609
N2 N 0.25534(17) 0.08678(14) 0.40855(14)
N3 N 0.86567(16) 0.04063(13) 0.93967(14)
O1 O 0.35409(15) 0.03278(14) 0.82681(13)
O2 O 0.55692(14) 0.07187(12) 0.79583(12)
C1B C 1.8217(2) -0.06312(18) 1.52029(18)
H1B H 1.9158 -0.0511 1.5507
C2B C 1.7705(2) -0.05542(17) 1.40491(18)
H2B H 1.8281 -0.0383 1.3572
C3B C 1.6331(2) -0.07311(16) 1.35997(16)
C4B C 1.5540(2) -0.10405(17) 1.43162(17)
H3B H 1.4610 -0.1214 1.4027
C5B C 1.6135(2) -0.10902(16) 1.54636(17)
H4B H 1.5588 -0.1292 1.5955
C6B C 1.5766(2) -0.05672(16) 1.23591(17)
C7B C 1.3864(2) -0.06757(19) 1.08242(17)
H5B H 1.3815 0.0079 1.0559
H6B H 1.4444 -0.1085 1.0432
C8B C 1.2462(2) -0.11611(17) 1.05713(18)
H7B H 1.2461 -0.1744 1.1122
H8B H 1.2270 -0.1493 0.9812
C9B C 1.11539(19) 0.03749(16) 0.96565(16)
H9B H 1.1963 0.0842 0.9769
H10B H 1.1058 -0.0020 0.8938
C10B C 1.00828(19) -0.10611(16) 1.04161(17)
H11B H 0.9968 -0.1476 0.9708
H12B H 1.0172 -0.1581 1.1044
N2B N 1.74466(17) -0.08678(14) 1.59145(14)
N3B N 1.13433(16) -0.04063(13) 1.06033(14)
O1B O 1.64591(15) -0.03278(14) 1.17319(13)
O2B O 1.44308(14) -0.07187(12) 1.20417(12)
N1B N 1.0423(2) -0.16113(18) 0.74290(18)
Ag1B Ag 0.828006(16) -0.049229(14) 0.773809(12)
C11B C 1.1433(2) -0.18446(19) 0.72802(18)
C12B C 1.2748(3) -0.2140(2) 0.7114(2)
H13B H 1.3463 -0.1841 0.7728
H14B H 1.2829 -0.2925 0.7111
H15B H 1.2840 -0.1852 0.6391
Ag1_2 Ag 1.171994(16) 0.049229(14) 1.226191(12)
Ag1B_2 Ag 1.828006(16) -0.049229(14) 1.773809(12)
N2B_2 N 0.74466(17) -0.08678(14) 0.59145(14)
N3B_2 N 0.13433(16) -0.04063(13) 0.06033(14)
Cl1 Cl 0.37296(5) 0.27525(4) 0.12482(4)
O3 O 0.3816(3) 0.1880(2) 0.2013(2)
O4 O 0.23554(18) 0.3003(2) 0.07021(19)
O5 O 0.4407(2) 0.2462(2) 0.04105(17)
O6 O 0.4412(2) 0.36706(15) 0.18418(17)
loop_
_geom_bond_atom_site_label_1
_geom_bond_atom_site_label_2
_geom_bond_site_symmetry_1
_geom_bond_site_symmetry_2
N1 Ag1 1_555 1_555
Ag1 N2 1_555 1_555
C1 H1 1_555 1_555
C2 C1 1_555 1_555
H2 C2 1_555 1_555
C3 C2 1_555 1_555
C4 C3 1_555 1_555
H3 C4 1_555 1_555
C5 C4 1_555 1_555
H4 C5 1_555 1_555
C6 C3 1_555 1_555
C7 H5 1_555 1_555
H6 C7 1_555 1_555
C8 C7 1_555 1_555
H7 C8 1_555 1_555
H8 C8 1_555 1_555
C9 H9 1_555 1_555
H10 C9 1_555 1_555
C10 H11 1_555 1_555
H12 C10 1_555 1_555
C11 N1 1_555 1_555
C12 C11 1_555 1_555
H13 C12 1_555 1_555
H14 C12 1_555 1_555
H15 C12 1_555 1_555
N2 C1 1_555 1_555
N3 C8 1_555 1_555
O1 C6 1_555 1_555
O2 C6 1_555 1_555
Cl1 O3 1_555 1_555
O4 Cl1 1_555 1_555
O5 Cl1 1_555 1_555
O6 Cl1 1_555 1_555
C1B H1B 1_555 1_555
C2B C1B 1_555 1_555
H2B C2B 1_555 1_555
C3B C2B 1_555 1_555
C4B C3B 1_555 1_555
H3B C4B 1_555 1_555
C5B C4B 1_555 1_555
H4B C5B 1_555 1_555
C6B C3B 1_555 1_555
C7B H5B 1_555 1_555
H6B C7B 1_555 1_555
C8B C7B 1_555 1_555
H7B C8B 1_555 1_555
H8B C8B 1_555 1_555
C9B C10 1_555 1_555
H9B C9B 1_555 1_555
H10B C9B 1_555 1_555
C10B C9 1_555 1_555
H11B C10B 1_555 1_555
H12B C10B 1_555 1_555
N2B C1B 1_555 1_555
N3B C8B 1_555 1_555
O1B C6B 1_555 1_555
O2B C6B 1_555 1_555
N1B Ag1B 1_555 1_555
Ag1B N3 1_555 1_555
C11B N1B 1_555 1_555
C12B C11B 1_555 1_555
H13B C12B 1_555 1_555
H14B C12B 1_555 1_555
H15B C12B 1_555 1_555
Ag1_2 N3B 1_555 1_555
Ag1B_2 N2B 1_555 1_555
N2B_2 Ag1B 1_555 1_555
N3B_2 Ag1 1_555 1_555
C5 N2 1_555 1_555
C7 O2 1_555 1_555
C9 N3 1_555 1_555
C10 N3 1_555 1_555
C5B N2B 1_555 1_555
C7B O2B 1_555 1_555
C9B N3B 1_555 1_555
C10B N3B 1_555 1_555

#END
