
#######################################################################
#
#                 Cambridge Crystallographic Data Centre
#                                CCDC 
#
#######################################################################
#
# If this CIF has been generated from an entry in the Cambridge 
# Structural Database, then it will include bibliographic, chemical, 
# crystal, experimental, refinement or atomic coordinate data resulting 
# from the CCDC's data processing and validation procedures.
#
#######################################################################

data_DUPFOJ11
_symmetry_cell_setting           monoclinic
_symmetry_space_group_name_H-M   'P 21'
_symmetry_Int_Tables_number      4
_space_group_name_Hall           'P 2yb'
loop_
_symmetry_equiv_pos_site_id
_symmetry_equiv_pos_as_xyz
1 x,y,z
2 -x,1/2+y,-z
_cell_length_a                   9.63(1)
_cell_length_b                   26.53(2)
_cell_length_c                   9.84(2)
_cell_angle_alpha                90
_cell_angle_beta                 106.40(7)
_cell_angle_gamma                90
_cell_volume                     2411.68
loop_
_atom_site_label
_atom_site_type_symbol
_atom_site_fract_x
_atom_site_fract_y
_atom_site_fract_z
Cu1 Cu 0.1629 -0.1221 0.0210(9)
N1 N 0.0910(16) -0.1547(6) -0.1553(15)
C1 C 0.0304(19) -0.1815(7) -0.2488(18)
S1 S -0.0475(5) -0.2210(2) -0.3819(4)
N2 N 0.2320(15) -0.0857(6) 0.1998(14)
C2 C 0.2619(18) -0.0519(7) 0.2855(17)
S2 S 0.3001(5) -0.0071(2) 0.3969(4)
Cu2 Cu 0.4450(2) 0.0574(1) 0.2326(2)
N3 N 0.5119(17) 0.0992(6) 0.3997(15)
C3 C 0.5526(18) 0.1296(6) 0.4903(17)
S3 S 0.6066(5) 0.1705(2) 0.6140(4)
N4 N 0.3745(15) 0.0171(6) 0.0637(15)
C4 C 0.3751(16) -0.0173(7) -0.0098(17)
S4 S 0.3765(5) -0.0663(2) -0.1124(4)
Cu3 Cu 0.1956(3) -0.2785(1) -0.4813(2)
N5 N 0.7280(15) 0.1867(6) 0.3070(15)
C5 C 0.6738(17) 0.1602(7) 0.2097(18)
S5 S 0.5979(5) 0.1202(2) 0.0792(4)
N6 N 0.1063(16) -0.2415(6) 0.3436(15)
C6 C 0.0423(19) -0.2161(8) 0.2563(18)
S6 S -0.0548(5) -0.1808(2) 0.1236(4)
N7 N 0.3242(13) -0.1712(5) 0.0838(13)
C7 C 0.3943(19) -0.1810(7) 0.2258(16)
C8 C 0.5036(19) -0.2140(7) 0.2703(16)
C9 C 0.5574(17) -0.2401(6) 0.1735(16)
C10 C 0.4865(24) -0.2308(8) 0.0220(22)
C11 C 0.3806(19) -0.1973(7) -0.0053(17)
C12 C 0.6837(20) -0.2780(8) 0.2209(21)
N8 N 0.0144(14) -0.0671(5) -0.0465(13)
C13 C -0.0054(18) -0.0414(6) -0.1716(16)
C14 C -0.0975(21) -0.0053(7) -0.2169(17)
C15 C -0.1953(21) 0.0080(6) -0.1454(17)
C16 C -0.1825(18) -0.0170(6) -0.0136(18)
C17 C -0.0769(19) -0.0529(7) 0.0338(17)
C18 C -0.3166(22) 0.0445(7) -0.2045(18)
N9 N 0.6240(14) 0.0119(5) 0.2998(13)
C19 C 0.6123(19) -0.0377(7) 0.2868(17)
C20 C 0.7278(19) -0.0706(7) 0.3361(17)
C21 C 0.8661(18) -0.0492(7) 0.3968(16)
C22 C 0.8787(18) 0.0016(7) 0.4029(16)
C23 C 0.7561(19) 0.0323(7) 0.3555(16)
C24 C 0.9940(19) -0.0853(7) 0.4570(18)
N10 N 0.2661(14) 0.1030(5) 0.1653(13)
C25 C 0.2777(19) 0.1529(7) 0.1587(18)
C26 C 0.1630(18) 0.1854(7) 0.1092(18)
C27 C 0.0221(19) 0.1662(6) 0.0649(16)
C28 C 0.0114(17) 0.1132(7) 0.0762(16)
C29 C 0.1284(19) 0.0839(6) 0.1220(16)
C30 C -0.1041(20) 0.2006(6) 0.0180(17)
N11 N 0.0458(14) -0.3316(5) -0.5428(13)
C31 C 0.0125(17) -0.3515(6) -0.6794(16)
C32 C -0.0996(17) -0.3849(6) -0.7286(16)
C33 C -0.1865(19) -0.4004(6) -0.6450(16)
C34 C -0.1497(20) -0.3786(7) -0.5075(17)
C35 C -0.0360(17) -0.3474(6) -0.4608(15)
C36 C -0.3154(21) -0.4329(8) -0.7028(19)
N12 N 0.3390(13) -0.2217(5) -0.4157(12)
C37 C 0.3006(19) -0.1733(6) -0.4350(16)
C38 C 0.3965(19) -0.1324(7) -0.3995(16)
C39 C 0.5437(19) -0.1440(7) -0.3463(17)
C40 C 0.5837(19) -0.1953(7) -0.3244(16)
C41 C 0.4807(20) -0.2317(7) -0.3583(17)
C42 C 0.6517(21) -0.1022(9) -0.3102(18)
Cu3A Cu 0.8044(3) 0.2215(1) 0.4813(2)
S3A S 0.3934(5) -0.3295(2) -0.6140(4)
N5A N 0.2720(15) -0.3133(6) -0.3070(15)
N6_2 N 0.1063(16) -0.2415(6) -0.6564(15)
Cu3_2 Cu 0.1956(3) -0.2785(1) 0.5187(2)
loop_
_geom_bond_atom_site_label_1
_geom_bond_atom_site_label_2
_geom_bond_site_symmetry_1
_geom_bond_site_symmetry_2
Cu1 N1 1_555 1_555
N1 C1 1_555 1_555
C1 S1 1_555 1_555
S1 Cu3 1_555 1_555
N2 Cu1 1_555 1_555
C2 N2 1_555 1_555
S2 C2 1_555 1_555
Cu2 S2 1_555 1_555
N3 Cu2 1_555 1_555
C3 N3 1_555 1_555
S3 C3 1_555 1_555
N4 Cu2 1_555 1_555
C4 N4 1_555 1_555
S4 Cu1 1_555 1_555
Cu3 N11 1_555 1_555
N5 C5 1_555 1_555
C5 S5 1_555 1_555
S5 Cu2 1_555 1_555
N6 C6 1_555 1_555
C6 S6 1_555 1_555
S6 Cu1 1_555 1_555
N7 Cu1 1_555 1_555
C7 N7 1_555 1_555
C8 C7 1_555 1_555
C9 C8 1_555 1_555
C10 C9 1_555 1_555
C11 N7 1_555 1_555
C12 C9 1_555 1_555
N8 Cu1 1_555 1_555
C13 N8 1_555 1_555
C14 C13 1_555 1_555
C15 C14 1_555 1_555
C16 C15 1_555 1_555
C17 N8 1_555 1_555
C18 C15 1_555 1_555
N9 Cu2 1_555 1_555
C19 N9 1_555 1_555
C20 C19 1_555 1_555
C21 C20 1_555 1_555
C22 C21 1_555 1_555
C23 N9 1_555 1_555
C24 C21 1_555 1_555
N10 Cu2 1_555 1_555
C25 N10 1_555 1_555
C26 C25 1_555 1_555
C27 C26 1_555 1_555
C28 C27 1_555 1_555
C29 N10 1_555 1_555
C30 C27 1_555 1_555
N11 C31 1_555 1_555
C31 C32 1_555 1_555
C32 C33 1_555 1_555
C33 C34 1_555 1_555
C34 C35 1_555 1_555
C35 N11 1_555 1_555
C36 C33 1_555 1_555
N12 Cu3 1_555 1_555
C37 N12 1_555 1_555
C38 C37 1_555 1_555
C39 C38 1_555 1_555
C40 C39 1_555 1_555
C41 N12 1_555 1_555
C42 C39 1_555 1_555
Cu3A S3 1_555 1_555
S3A Cu3 1_555 1_555
N5A Cu3 1_555 1_555
N6_2 Cu3 1_555 1_555
Cu3_2 N6 1_555 1_555
C4 S4 1_555 1_555
N5 Cu3A 1_555 1_555
C10 C11 1_555 1_555
C16 C17 1_555 1_555
C22 C23 1_555 1_555
C28 C29 1_555 1_555
C40 C41 1_555 1_555

#END
