
#######################################################################
#
#                 Cambridge Crystallographic Data Centre
#                                CCDC 
#
#######################################################################
#
# If this CIF has been generated from an entry in the Cambridge 
# Structural Database, then it will include bibliographic, chemical, 
# crystal, experimental, refinement or atomic coordinate data resulting 
# from the CCDC's data processing and validation procedures.
#
#######################################################################

data_DUPKAA
_symmetry_cell_setting           triclinic
_symmetry_space_group_name_H-M   'P -1'
_symmetry_Int_Tables_number      2
_space_group_name_Hall           '-P 1'
loop_
_symmetry_equiv_pos_site_id
_symmetry_equiv_pos_as_xyz
1 x,y,z
2 -x,-y,-z
_cell_length_a                   5.1930(4)
_cell_length_b                   7.3386(6)
_cell_length_c                   13.1528(12)
_cell_angle_alpha                98.797(8)
_cell_angle_beta                 91.668(8)
_cell_angle_gamma                94.059(8)
_cell_volume                     493.7
loop_
_atom_site_label
_atom_site_type_symbol
_atom_site_fract_x
_atom_site_fract_y
_atom_site_fract_z
Pb1 Pb 0.1808(1) 0.2713(1) 0.0546(1)
O1 O -0.1958(11) 0.2829(9) 0.1495(5)
O2 O 0.1544(12) 0.3060(12) 0.2502(5)
C1 C -0.0829(15) 0.2982(12) 0.2387(7)
C2 C -0.2547(16) 0.2945(13) 0.3280(7)
C3 C -0.1619(18) 0.2857(15) 0.4208(8)
C4 C -0.3227(24) 0.2768(21) 0.5130(10)
O3 O -0.1603(13) 0.3673(8) -0.0757(5)
O4 O -0.1450(13) 0.0763(8) -0.0681(6)
C5 C -0.2499(15) 0.2021(12) -0.1032(6)
C6 C -0.4735(21) 0.1551(13) -0.1745(8)
C7 C -0.5902(17) 0.2746(13) -0.2212(7)
C8 C -0.8187(18) 0.2296(16) -0.2948(8)
H1 H -0.4376 0.2988 0.3171
H2 H 0.0220 0.2847 0.4303
H3 H -0.4949 0.3022 0.4940
H4 H -0.2659 0.3559 0.5758
H5 H -0.3213 0.1499 0.5228
H6 H -0.5400 0.0280 -0.1885
H7 H -0.5230 0.4015 -0.2067
H8 H -0.9091 0.1113 -0.2934
H9 H -0.7773 0.2406 -0.3644
H10 H -0.9261 0.3259 -0.2687
O3A O 0.1603(13) 0.6327(8) 0.0757(5)
O4A O 0.1450(13) -0.0763(8) 0.0681(6)
Pb1A Pb -0.1808(1) 0.7287(1) -0.0546(1)
Pb1A_2 Pb -0.1808(1) -0.2713(1) -0.0546(1)
C5A C 0.2499(15) 0.7979(12) 0.1032(6)
C5A_2 C 0.2499(15) -0.2021(12) 0.1032(6)
O1A O 0.1958(11) 0.7171(9) -0.1495(5)
O2A O -0.1544(12) 0.6940(12) -0.2502(5)
O4_2 O -0.1450(13) 1.0763(8) -0.0681(6)
O4A_2 O 0.1450(13) 0.9237(8) 0.0681(6)
C6A C 0.4735(21) 0.8449(13) 0.1745(8)
C1A C 0.0829(15) 0.7018(12) -0.2387(7)
C7A C 0.5902(17) 0.7254(13) 0.2212(7)
H6A H 0.5400 0.9720 0.1885
C2A C 0.2547(16) 0.7055(13) -0.3280(7)
C8A C 0.8187(18) 0.7704(16) 0.2948(8)
H7A H 0.5230 0.5985 0.2067
C3A C 0.1619(18) 0.7143(15) -0.4208(8)
H1A H 0.4376 0.7012 -0.3171
H8A H 0.9091 0.8887 0.2934
H9A H 0.7773 0.7594 0.3644
H10A H 0.9261 0.6741 0.2687
C4A C 0.3227(24) 0.7232(21) -0.5130(10)
H2A H -0.0220 0.7153 -0.4303
H3A H 0.4949 0.6978 -0.4940
H4A H 0.2659 0.6441 -0.5758
H5A H 0.3213 0.8501 -0.5228
loop_
_geom_bond_atom_site_label_1
_geom_bond_atom_site_label_2
_geom_bond_site_symmetry_1
_geom_bond_site_symmetry_2
Pb1 O1 1_555 1_555
O1 C1 1_555 1_555
O2 Pb1 1_555 1_555
C1 O2 1_555 1_555
C2 C1 1_555 1_555
C3 C2 1_555 1_555
C4 C3 1_555 1_555
O3 Pb1 1_555 1_555
O4 Pb1 1_555 1_555
C5 O3 1_555 1_555
C6 C5 1_555 1_555
C7 C6 1_555 1_555
C8 C7 1_555 1_555
H1 C2 1_555 1_555
H2 C3 1_555 1_555
H3 C4 1_555 1_555
H4 C4 1_555 1_555
H5 C4 1_555 1_555
H6 C6 1_555 1_555
H7 C7 1_555 1_555
H8 C8 1_555 1_555
H9 C8 1_555 1_555
H10 C8 1_555 1_555
O3A Pb1 1_555 1_555
O4A Pb1 1_555 1_555
Pb1A O3 1_555 1_555
Pb1A_2 O4 1_555 1_555
C5A O3A 1_555 1_555
C5A_2 O4A 1_555 1_555
O1A Pb1A 1_555 1_555
O2A Pb1A 1_555 1_555
O4_2 Pb1A 1_555 1_555
O4A_2 Pb1A 1_555 1_555
C6A C5A 1_555 1_555
C1A O1A 1_555 1_555
C7A C6A 1_555 1_555
H6A C6A 1_555 1_555
C2A C1A 1_555 1_555
C8A C7A 1_555 1_555
H7A C7A 1_555 1_555
C3A C2A 1_555 1_555
H1A C2A 1_555 1_555
H8A C8A 1_555 1_555
H9A C8A 1_555 1_555
H10A C8A 1_555 1_555
C4A C3A 1_555 1_555
H2A C3A 1_555 1_555
H3A C4A 1_555 1_555
H4A C4A 1_555 1_555
H5A C4A 1_555 1_555
O4 C5 1_555 1_555
O3A Pb1A 1_555 1_555
O4A Pb1A_2 1_555 1_555
C5A O4A_2 1_555 1_555
O2A C1A 1_555 1_555

#END
