
#######################################################################
#
#                 Cambridge Crystallographic Data Centre
#                                CCDC 
#
#######################################################################
#
# If this CIF has been generated from an entry in the Cambridge 
# Structural Database, then it will include bibliographic, chemical, 
# crystal, experimental, refinement or atomic coordinate data resulting 
# from the CCDC's data processing and validation procedures.
#
#######################################################################

data_DUPMAD
_symmetry_cell_setting           triclinic
_symmetry_space_group_name_H-M   'P -1'
_symmetry_Int_Tables_number      2
_space_group_name_Hall           '-P 1'
loop_
_symmetry_equiv_pos_site_id
_symmetry_equiv_pos_as_xyz
1 x,y,z
2 -x,-y,-z
_cell_length_a                   10.0145(7)
_cell_length_b                   10.7294(8)
_cell_length_c                   11.7217(9)
_cell_angle_alpha                93.1330(10)
_cell_angle_beta                 109.8860(10)
_cell_angle_gamma                97.7260(10)
_cell_volume                     1166.81
loop_
_atom_site_label
_atom_site_type_symbol
_atom_site_fract_x
_atom_site_fract_y
_atom_site_fract_z
I1 I 1.04050(3) 0.30244(3) -0.04759(3)
I2 I 0.58853(3) 0.01728(3) -0.20478(3)
Cd1 Cd 0.80005(3) 0.17348(3) -0.02843(3)
S1 S 0.66738(13) 0.72678(11) 0.58132(11)
S2 S 0.83801(13) 0.63432(12) 0.62502(11)
N1 N 0.6891(4) 0.3069(3) 0.0542(3)
N2 N 0.6043(3) 0.5841(3) 0.3679(3)
N3 N 0.4190(4) 0.6770(3) 0.4080(4)
C1 C 0.5105(4) 0.5314(3) 0.2591(4)
C2 C 0.7136(4) 0.4798(4) 0.2009(4)
H1 H 0.7736 0.5465 0.2565
C3 C 0.5529(4) 0.6526(4) 0.4357(4)
C4 C 0.3282(5) 0.6238(4) 0.2986(5)
H2 H 0.2334 0.6379 0.2739
C5 C 0.7684(4) 0.4046(4) 0.1332(4)
H3 H 0.8655 0.4238 0.1437
C6 C 0.5695(4) 0.4544(3) 0.1849(4)
C7 C 0.5492(5) 0.2843(4) 0.0378(4)
H4 H 0.4911 0.2178 -0.0191
C8 C 0.4868(5) 0.3542(4) 0.1005(4)
H5 H 0.3889 0.3343 0.0864
C9 C 0.3683(4) 0.5492(4) 0.2207(4)
H6 H 0.3026 0.5122 0.1454
N4 N 0.9147(3) 0.7871(3) 0.4735(3)
C10 C 1.0157(4) 0.8354(4) 0.4271(4)
C11 C 0.9704(4) 0.9207(4) 0.3321(4)
C12 C 0.9551(5) 0.7070(4) 0.5546(4)
N5 N 1.0789(5) 0.6629(4) 0.5948(4)
C13 C 1.0671(4) 0.9895(4) 0.2893(4)
H7 H 1.1651 0.9878 0.3252
C14 C 0.8267(5) 0.9313(4) 0.2767(5)
H8 H 0.7576 0.8889 0.3036
C15 C 1.1494(5) 0.7979(5) 0.4649(5)
H9 H 1.2198 0.8306 0.4345
C16 C 1.1754(6) 0.7115(6) 0.5484(5)
H10 H 1.2650 0.6856 0.5736
C17 C 1.0191(5) 1.0597(4) 0.1950(5)
H11 H 1.0864 1.1044 0.1676
N6 N 0.8813(4) 1.0678(3) 0.1399(3)
C18 C 0.7870(5) 1.0040(4) 0.1829(5)
H12 H 0.6900 1.0097 0.1470
Cd1_2 Cd 0.80005(3) 1.17348(3) -0.02843(3)
N6_2 N 0.8813(4) 0.0678(3) 0.1399(3)
loop_
_geom_bond_atom_site_label_1
_geom_bond_atom_site_label_2
_geom_bond_site_symmetry_1
_geom_bond_site_symmetry_2
I1 Cd1 1_555 1_555
I2 Cd1 1_555 1_555
Cd1 N1 1_555 1_555
S1 S2 1_555 1_555
S2 C12 1_555 1_555
N1 C5 1_555 1_555
N2 C1 1_555 1_555
N3 C3 1_555 1_555
C1 C6 1_555 1_555
C2 H1 1_555 1_555
C3 S1 1_555 1_555
C4 N3 1_555 1_555
H2 C4 1_555 1_555
C5 C2 1_555 1_555
H3 C5 1_555 1_555
C6 C2 1_555 1_555
C7 N1 1_555 1_555
H4 C7 1_555 1_555
C8 C6 1_555 1_555
H5 C8 1_555 1_555
C9 C1 1_555 1_555
H6 C9 1_555 1_555
N4 C10 1_555 1_555
C10 C11 1_555 1_555
C11 C13 1_555 1_555
C12 N4 1_555 1_555
N5 C12 1_555 1_555
C13 H7 1_555 1_555
C14 C11 1_555 1_555
H8 C14 1_555 1_555
C15 C10 1_555 1_555
H9 C15 1_555 1_555
C16 N5 1_555 1_555
H10 C16 1_555 1_555
C17 C13 1_555 1_555
H11 C17 1_555 1_555
N6 C17 1_555 1_555
C18 C14 1_555 1_555
H12 C18 1_555 1_555
Cd1_2 N6 1_555 1_555
N6_2 Cd1 1_555 1_555
N2 C3 1_555 1_555
C4 C9 1_555 1_555
C7 C8 1_555 1_555
C15 C16 1_555 1_555
N6 C18 1_555 1_555

#END
