
#######################################################################
#
#                 Cambridge Crystallographic Data Centre
#                                CCDC 
#
#######################################################################
#
# If this CIF has been generated from an entry in the Cambridge 
# Structural Database, then it will include bibliographic, chemical, 
# crystal, experimental, refinement or atomic coordinate data resulting 
# from the CCDC's data processing and validation procedures.
#
#######################################################################

data_DUPMOR
_symmetry_cell_setting           monoclinic
_symmetry_space_group_name_H-M   'P 21/n'
_symmetry_Int_Tables_number      14
_space_group_name_Hall           '-P 2yn'
loop_
_symmetry_equiv_pos_site_id
_symmetry_equiv_pos_as_xyz
1 x,y,z
2 1/2-x,1/2+y,1/2-z
3 -x,-y,-z
4 1/2+x,1/2-y,1/2+z
_cell_length_a                   10.618(2)
_cell_length_b                   10.046(2)
_cell_length_c                   12.833(3)
_cell_angle_alpha                90
_cell_angle_beta                 112.39(3)
_cell_angle_gamma                90
_cell_volume                     1265.68
loop_
_atom_site_label
_atom_site_type_symbol
_atom_site_fract_x
_atom_site_fract_y
_atom_site_fract_z
Sn1 Sn 0.67213(3) 0.58902(3) 0.23186(2)
O1 O 0.8105(3) 0.7804(3) 0.2342(4)
C1 C 1.0203(4) 0.7136(4) 0.2204(4)
C2 C 0.9255(4) 0.8130(4) 0.2391(3)
C3 C 1.1974(6) 0.5271(6) 0.1924(6)
H1 H 1.2582 0.4665 0.1826
C4 C 1.0906(6) 0.6253(6) 0.3062(5)
H2 H 1.0792 0.6290 0.3745
C5 C 1.1780(6) 0.5310(7) 0.2904(6)
H3 H 1.2230 0.4707 0.3475
C6 C 1.0385(5) 0.7088(5) 0.1204(4)
C7 C 1.1262(7) 0.6142(7) 0.1067(6)
H4 H 1.1374 0.6092 0.0383
C8 C 0.9607(9) 0.8037(9) 0.0242(6)
H5 H 0.8646 0.7885 0.0011
H6 H 0.9873 0.7881 -0.0384
H7 H 0.9813 0.8940 0.0494
O2 O 0.9682(3) 0.9314(3) 0.2610(3)
C9 C 0.5145(5) 0.7309(5) 0.1961(6)
H8 H 0.5492 0.8098 0.2399
H9 H 0.4420 0.6947 0.2147
H10 H 0.4804 0.7529 0.1173
C10 C 0.7115(6) 0.5114(6) 0.0940(4)
H11 H 0.8034 0.5321 0.1031
H12 H 0.6495 0.5504 0.0253
H13 H 0.6994 0.4166 0.0909
C11 C 0.7997(7) 0.5631(6) 0.4027(5)
H14 H 0.8469 0.6448 0.4318
H15 H 0.8646 0.4940 0.4090
H16 H 0.7456 0.5388 0.4450
Sn1A Sn 0.82787(3) 1.08902(3) 0.26814(2)
O2A O 0.5318(3) 0.4314(3) 0.2390(3)
loop_
_geom_bond_atom_site_label_1
_geom_bond_atom_site_label_2
_geom_bond_site_symmetry_1
_geom_bond_site_symmetry_2
Sn1 O1 1_555 1_555
O1 C2 1_555 1_555
C1 C2 1_555 1_555
C2 O2 1_555 1_555
C3 H1 1_555 1_555
C4 C1 1_555 1_555
H2 C4 1_555 1_555
C5 C3 1_555 1_555
H3 C5 1_555 1_555
C6 C1 1_555 1_555
C7 C3 1_555 1_555
H4 C7 1_555 1_555
C8 C6 1_555 1_555
H5 C8 1_555 1_555
H6 C8 1_555 1_555
H7 C8 1_555 1_555
O2 Sn1A 1_555 1_555
C9 Sn1 1_555 1_555
H8 C9 1_555 1_555
H9 C9 1_555 1_555
H10 C9 1_555 1_555
C10 Sn1 1_555 1_555
H11 C10 1_555 1_555
H12 C10 1_555 1_555
H13 C10 1_555 1_555
C11 Sn1 1_555 1_555
H14 C11 1_555 1_555
H15 C11 1_555 1_555
H16 C11 1_555 1_555
O2A Sn1 1_555 1_555
C4 C5 1_555 1_555
C6 C7 1_555 1_555

#END
