
#######################################################################
#
#                 Cambridge Crystallographic Data Centre
#                                CCDC 
#
#######################################################################
#
# If this CIF has been generated from an entry in the Cambridge 
# Structural Database, then it will include bibliographic, chemical, 
# crystal, experimental, refinement or atomic coordinate data resulting 
# from the CCDC's data processing and validation procedures.
#
#######################################################################

data_DUPNUY
_symmetry_cell_setting           monoclinic
_symmetry_space_group_name_H-M   'P 21/c'
_symmetry_Int_Tables_number      14
_space_group_name_Hall           '-P 2ybc'
loop_
_symmetry_equiv_pos_site_id
_symmetry_equiv_pos_as_xyz
1 x,y,z
2 -x,1/2+y,1/2-z
3 -x,-y,-z
4 x,1/2-y,1/2+z
_cell_length_a                   10.1656(5)
_cell_length_b                   13.6310(8)
_cell_length_c                   9.1461(2)
_cell_angle_alpha                90
_cell_angle_beta                 91.430(2)
_cell_angle_gamma                90
_cell_volume                     1266.96
loop_
_atom_site_label
_atom_site_type_symbol
_atom_site_fract_x
_atom_site_fract_y
_atom_site_fract_z
Cu1 Cu 0.59999(5) 0.58784(3) 0.07521(6)
O1 O 0.5775(3) 0.8747(2) 0.1085(4)
O2 O 0.6295(3) 0.7254(2) 0.0382(4)
O3 O 0.4380(3) 0.9489(2) 0.3914(3)
O4 O 0.2821(3) 0.9362(2) 0.2189(4)
O5 O 0.7494(3) 0.5510(2) -0.0435(4)
N1 N 0.4710(3) 0.6417(2) 0.2162(4)
N2 N 0.3001(3) 0.7442(2) 0.3914(4)
N3 N 0.9066(4) 0.5894(4) -0.2048(5)
C1 C 0.5654(4) 0.7859(3) 0.1145(5)
C2 C 0.4684(4) 0.7404(3) 0.2158(4)
C3 C 0.3821(4) 0.7913(3) 0.3018(5)
C4 C 0.3064(4) 0.6467(3) 0.3912(5)
H1 H 0.2516 0.6118 0.4523
C5 C 0.3912(4) 0.5951(3) 0.3039(5)
H2 H 0.3920 0.5269 0.3071
C6 C 0.3670(4) 0.9018(3) 0.3005(5)
C7 C 0.8054(5) 0.6097(4) -0.1238(6)
H3 H 0.7732 0.6735 -0.1271
C8 C 0.9664(6) 0.6630(5) -0.2983(8)
H4 H 0.9216 0.7244 -0.2874
H5 H 0.9593 0.6421 -0.3985
H6 H 1.0575 0.6707 -0.2706
C9 C 0.9607(6) 0.4924(5) -0.2062(7)
H7 H 1.0486 0.4937 -0.1655
H8 H 0.9624 0.4688 -0.3051
H9 H 0.9073 0.4496 -0.1491
Cu1A Cu 0.40001(5) 1.08784(3) 0.42479(6)
Cu1C Cu 0.59999(5) 0.91216(3) 0.57521(6)
O3A O 0.5620(3) 0.4489(2) 0.1086(3)
O3C O 0.4380(3) 0.5511(2) -0.1086(3)
O6 O 0.2218(5) 0.1287(3) 0.1467(7)
H10 H 0.277(5) 0.148(4) 0.089(6)
H11 H 0.219(6) 0.0685(9) 0.155(7)
loop_
_geom_bond_atom_site_label_1
_geom_bond_atom_site_label_2
_geom_bond_site_symmetry_1
_geom_bond_site_symmetry_2
Cu1 O2 1_555 1_555
O1 C1 1_555 1_555
O2 C1 1_555 1_555
O3 C6 1_555 1_555
O4 C6 1_555 1_555
O5 Cu1 1_555 1_555
O6 H10 1_555 1_555
N1 Cu1 1_555 1_555
N2 C3 1_555 1_555
N3 C7 1_555 1_555
C1 C2 1_555 1_555
C2 N1 1_555 1_555
C3 C2 1_555 1_555
C4 N2 1_555 1_555
H1 C4 1_555 1_555
C5 N1 1_555 1_555
H2 C5 1_555 1_555
C6 C3 1_555 1_555
C7 O5 1_555 1_555
H3 C7 1_555 1_555
C8 N3 1_555 1_555
H4 C8 1_555 1_555
H5 C8 1_555 1_555
H6 C8 1_555 1_555
C9 N3 1_555 1_555
H7 C9 1_555 1_555
H8 C9 1_555 1_555
H9 C9 1_555 1_555
H11 O6 1_555 1_555
Cu1A O3 1_555 1_555
Cu1C O3 1_555 1_555
O3A Cu1 1_555 1_555
O3C Cu1 1_555 1_555
C4 C5 1_555 1_555

#END
