
#######################################################################
#
#                 Cambridge Crystallographic Data Centre
#                                CCDC 
#
#######################################################################
#
# If this CIF has been generated from an entry in the Cambridge 
# Structural Database, then it will include bibliographic, chemical, 
# crystal, experimental, refinement or atomic coordinate data resulting 
# from the CCDC's data processing and validation procedures.
#
#######################################################################

data_DUPRUC
_symmetry_cell_setting           triclinic
_symmetry_space_group_name_H-M   'P -1'
_symmetry_Int_Tables_number      2
_space_group_name_Hall           '-P 1'
loop_
_symmetry_equiv_pos_site_id
_symmetry_equiv_pos_as_xyz
1 x,y,z
2 -x,-y,-z
_cell_length_a                   7.2280(18)
_cell_length_b                   10.332(3)
_cell_length_c                   11.307(3)
_cell_angle_alpha                104.481(6)
_cell_angle_beta                 100.479(4)
_cell_angle_gamma                99.686(4)
_cell_volume                     783.423
loop_
_atom_site_label
_atom_site_type_symbol
_atom_site_fract_x
_atom_site_fract_y
_atom_site_fract_z
Pb1 Pb 0.19801(4) 0.42620(2) 0.40684(2)
Cl1 Cl -0.1055(3) 0.29827(18) 0.4893(2)
Cl2 Cl 0.4274(3) 0.44005(18) 0.62730(15)
O1 O 0.1822(7) 0.3210(4) 0.1636(4)
O2 O 0.3150(8) -0.4078(5) 0.0294(4)
O3 O 0.2905(7) -0.2806(4) -0.1103(4)
N1 N 0.2587(7) 0.1823(5) 0.3329(4)
C1 C 0.2820(9) 0.1075(7) 0.4135(6)
H1 H 0.2900 0.1488 0.4979
C2 C 0.2945(9) -0.0270(7) 0.3773(6)
H2 H 0.3066 -0.0751 0.4366
C3 C 0.2895(8) -0.0921(6) 0.2529(5)
C4 C 0.2695(8) -0.0126(6) 0.1654(5)
C5 C 0.2517(8) 0.1231(6) 0.2115(5)
C6 C 0.2153(8) 0.2068(6) 0.1253(5)
C7 C 0.2194(8) 0.1492(6) -0.0059(5)
C8 C 0.1938(9) 0.2315(6) -0.0863(6)
H3 H 0.1783 0.3203 -0.0549
C9 C 0.1914(9) 0.1812(7) -0.2120(6)
H4 H 0.1775 0.2360 -0.2655
C10 C 0.2102(9) 0.0463(7) -0.2573(6)
H5 H 0.2059 0.0111 -0.3421
C11 C 0.2351(9) -0.0361(6) -0.1792(5)
H6 H 0.2488 -0.1250 -0.2117
C12 C 0.2399(7) 0.0135(6) -0.0515(5)
C13 C 0.2642(8) -0.0694(6) 0.0357(5)
C14 C 0.2808(9) -0.2026(6) 0.0034(6)
C15 C 0.2995(9) -0.2795(6) 0.0903(6)
C16 C 0.3033(9) -0.2300(6) 0.2118(6)
H7 H 0.3144 -0.2837 0.2666
C17 C 0.2998(14) -0.4135(7) -0.0990(7)
H8 H 0.1845 -0.4802 -0.1511
H9 H 0.4111 -0.4405 -0.1261
Pb1A Pb -0.19801(4) 0.57380(2) 0.59316(2)
Pb1A_2 Pb 0.80199(4) 0.57380(2) 0.59316(2)
Cl1A Cl 0.1055(3) 0.70173(18) 0.5107(2)
Cl2A Cl 0.5726(3) 0.55995(18) 0.37270(15)
loop_
_geom_bond_atom_site_label_1
_geom_bond_atom_site_label_2
_geom_bond_site_symmetry_1
_geom_bond_site_symmetry_2
Pb1 Cl1 1_555 1_555
Cl1 Pb1A 1_555 1_555
Cl2 Pb1 1_555 1_555
O1 Pb1 1_555 1_555
O2 C15 1_555 1_555
O3 C14 1_555 1_555
N1 Pb1 1_555 1_555
C1 N1 1_555 1_555
H1 C1 1_555 1_555
C2 C1 1_555 1_555
H2 C2 1_555 1_555
C3 C2 1_555 1_555
C4 C3 1_555 1_555
C5 N1 1_555 1_555
C6 O1 1_555 1_555
C7 C6 1_555 1_555
C8 C7 1_555 1_555
H3 C8 1_555 1_555
C9 C8 1_555 1_555
H4 C9 1_555 1_555
C10 C9 1_555 1_555
H5 C10 1_555 1_555
C11 C10 1_555 1_555
H6 C11 1_555 1_555
C12 C7 1_555 1_555
C13 C4 1_555 1_555
C14 C13 1_555 1_555
C15 C14 1_555 1_555
C16 C3 1_555 1_555
H7 C16 1_555 1_555
C17 O2 1_555 1_555
H8 C17 1_555 1_555
H9 C17 1_555 1_555
Pb1A Cl1A 1_555 1_555
Pb1A_2 Cl2 1_555 1_555
Cl1A Pb1 1_555 1_555
Cl2A Pb1 1_555 1_555
O3 C17 1_555 1_555
C4 C5 1_555 1_555
C5 C6 1_555 1_555
C11 C12 1_555 1_555
C12 C13 1_555 1_555
C15 C16 1_555 1_555
Pb1A_2 Cl2A 1_555 1_555

#END
