
#######################################################################
#
#                 Cambridge Crystallographic Data Centre
#                                CCDC 
#
#######################################################################
#
# If this CIF has been generated from an entry in the Cambridge 
# Structural Database, then it will include bibliographic, chemical, 
# crystal, experimental, refinement or atomic coordinate data resulting 
# from the CCDC's data processing and validation procedures.
#
#######################################################################

data_DUPRAI
_symmetry_cell_setting           monoclinic
_symmetry_space_group_name_H-M   'P 21/c'
_symmetry_Int_Tables_number      14
_space_group_name_Hall           '-P 2ybc'
loop_
_symmetry_equiv_pos_site_id
_symmetry_equiv_pos_as_xyz
1 x,y,z
2 -x,1/2+y,1/2-z
3 -x,-y,-z
4 x,1/2-y,1/2+z
_cell_length_a                   15.4581(19)
_cell_length_b                   9.5876(10)
_cell_length_c                   13.4453(14)
_cell_angle_alpha                90
_cell_angle_beta                 90.047(4)
_cell_angle_gamma                90
_cell_volume                     1992.67
loop_
_atom_site_label
_atom_site_type_symbol
_atom_site_fract_x
_atom_site_fract_y
_atom_site_fract_z
Zn1 Zn 0.57700(2) 0.01105(3) 0.90514(2)
O1 O 0.64675(16) -0.0504(2) 0.79378(15)
O2 O 0.59198(15) 0.1048(2) 0.68741(14)
O3 O 0.54356(14) -0.0097(2) 0.14753(16)
O4 O 0.63139(15) 0.0708(2) 0.02993(14)
O5 O 0.64514(15) 0.1116(2) 0.51057(14)
H1 H 0.6186 0.1340 0.5609
O6 O 0.61219(13) -0.0839(2) 0.31663(14)
H2 H 0.5752 -0.0822 0.2729
C1 C 0.6393(2) 0.0014(3) 0.7071(2)
C2 C 0.69136(19) -0.0645(3) 0.62605(19)
C3 C 0.73883(19) -0.1821(3) 0.6437(2)
H3 H 0.7375 -0.2221 0.7067
C4 C 0.78967(18) -0.2444(3) 0.5691(2)
C5 C 0.8370(2) -0.3682(3) 0.5858(2)
H4 H 0.8364 -0.4084 0.6487
C6 C 0.8832(2) -0.4300(3) 0.5123(3)
H5 H 0.9127 -0.5127 0.5246
C7 C 0.8861(2) -0.3681(4) 0.4173(3)
H6 H 0.9177 -0.4104 0.3668
C8 C 0.8431(2) -0.2469(3) 0.3988(2)
H7 H 0.8473 -0.2061 0.3362
C9 C 0.79223(18) -0.1818(3) 0.47289(19)
C10 C 0.74391(18) -0.0585(3) 0.45474(19)
C11 C 0.6935(2) -0.0044(3) 0.5296(2)
C12 C 0.74652(19) 0.0145(3) 0.35614(19)
C13 C 0.81783(19) 0.1036(3) 0.3325(2)
C14 C 0.8882(2) 0.1224(4) 0.3978(2)
H8 H 0.8891 0.0753 0.4583
C15 C 0.9553(2) 0.2087(4) 0.3735(3)
H9 H 1.0015 0.2191 0.4173
C16 C 0.9551(2) 0.2816(4) 0.2834(3)
H10 H 1.0005 0.3415 0.2682
C17 C 0.8890(2) 0.2652(4) 0.2181(2)
H11 H 0.8901 0.3129 0.1579
C18 C 0.81814(19) 0.1762(3) 0.2405(2)
C19 C 0.7502(2) 0.1528(3) 0.1732(2)
H12 H 0.7516 0.1971 0.1117
C20 C 0.68185(18) 0.0671(3) 0.19490(18)
C21 C 0.6144(2) 0.0419(3) 0.1182(2)
C22 C 0.67968(18) -0.0008(3) 0.28986(19)
O7 O 0.56864(16) -0.2006(2) 0.95518(16)
H13 H 0.5280 -0.2235 0.9944
H14 H 0.6059 -0.2594 0.9350
O8 O 0.56514(17) 0.2292(2) 0.87072(16)
H15 H 0.6061 0.2687 0.9023
H16 H 0.5809 0.2283 0.8102
Zn1B Zn 0.42300(2) -0.01105(3) 0.09486(2)
Zn1_2 Zn 0.57700(2) 0.01105(3) -0.09486(2)
O3B O 0.45644(14) 0.0097(2) 0.85247(16)
O4_2 O 0.63139(15) 0.0708(2) 1.02993(14)
loop_
_geom_bond_atom_site_label_1
_geom_bond_atom_site_label_2
_geom_bond_site_symmetry_1
_geom_bond_site_symmetry_2
Zn1 O1 1_555 1_555
O1 C1 1_555 1_555
O2 C1 1_555 1_555
O3 C21 1_555 1_555
O4 C21 1_555 1_555
O5 H1 1_555 1_555
O6 H2 1_555 1_555
C1 C2 1_555 1_555
C2 C3 1_555 1_555
C3 H3 1_555 1_555
C4 C3 1_555 1_555
C5 C4 1_555 1_555
H4 C5 1_555 1_555
C6 C5 1_555 1_555
H5 C6 1_555 1_555
C7 C6 1_555 1_555
H6 C7 1_555 1_555
C8 C7 1_555 1_555
H7 C8 1_555 1_555
C9 C4 1_555 1_555
C10 C9 1_555 1_555
C11 O5 1_555 1_555
C12 C10 1_555 1_555
C13 C12 1_555 1_555
C14 C13 1_555 1_555
H8 C14 1_555 1_555
C15 C14 1_555 1_555
H9 C15 1_555 1_555
C16 C15 1_555 1_555
H10 C16 1_555 1_555
C17 C16 1_555 1_555
H11 C17 1_555 1_555
C18 C13 1_555 1_555
C19 C18 1_555 1_555
H12 C19 1_555 1_555
C20 C19 1_555 1_555
C21 C20 1_555 1_555
C22 O6 1_555 1_555
O7 Zn1 1_555 1_555
H13 O7 1_555 1_555
H14 O7 1_555 1_555
O8 Zn1 1_555 1_555
H15 O8 1_555 1_555
H16 O8 1_555 1_555
Zn1B O3 1_555 1_555
Zn1_2 O4 1_555 1_555
O3B Zn1 1_555 1_555
O4_2 Zn1 1_555 1_555
C2 C11 1_555 1_555
C8 C9 1_555 1_555
C10 C11 1_555 1_555
C12 C22 1_555 1_555
C17 C18 1_555 1_555
C20 C22 1_555 1_555

#END
