
#######################################################################
#
#                 Cambridge Crystallographic Data Centre
#                                CCDC 
#
#######################################################################
#
# If this CIF has been generated from an entry in the Cambridge 
# Structural Database, then it will include bibliographic, chemical, 
# crystal, experimental, refinement or atomic coordinate data resulting 
# from the CCDC's data processing and validation procedures.
#
#######################################################################

data_DUPSUD
_symmetry_cell_setting           monoclinic
_symmetry_space_group_name_H-M   'C 2/c'
_symmetry_Int_Tables_number      15
_space_group_name_Hall           '-C 2yn'
loop_
_symmetry_equiv_pos_site_id
_symmetry_equiv_pos_as_xyz
1 x,y,z
2 -x,y,1/2-z
3 1/2+x,1/2+y,z
4 1/2-x,1/2+y,1/2-z
5 -x,-y,-z
6 x,-y,1/2+z
7 1/2-x,1/2-y,-z
8 1/2+x,1/2-y,1/2+z
_cell_length_a                   7.0898(14)
_cell_length_b                   8.0306(16)
_cell_length_c                   23.396(5)
_cell_angle_alpha                90
_cell_angle_beta                 92.06(3)
_cell_angle_gamma                90
_cell_volume                     1331.2
loop_
_atom_site_label
_atom_site_type_symbol
_atom_site_fract_x
_atom_site_fract_y
_atom_site_fract_z
C1 C 0.6801(3) 0.3969(3) 0.15103(10)
C2 C 0.7678(4) 0.4894(3) 0.10180(11)
H1 H 0.6764 0.5681 0.0859
H2 H 0.8756 0.5525 0.1166
C3 C 0.7039(4) 0.3045(3) 0.02244(11)
N1 N 0.8284(3) 0.3821(3) 0.05672(9)
H3 H 0.9470 0.3680 0.0519
O1 O 0.5996(2) 0.4896(2) 0.18701(8)
O2 O 0.6869(3) 0.2444(3) 0.15559(9)
O3 O 0.5325(3) 0.3144(2) 0.02483(9)
O4 O 0.2191(3) 0.3021(2) 0.19554(8)
H4 H 0.1704 0.2020 0.1897
H5 H 0.2397 0.3493 0.1608
O5 O 0.5000 0.0250(3) 0.2500
H6 H 0.5695 -0.0341 0.2305
Cd1 Cd 0.5000 0.29781(3) 0.2500
C1F C 0.8199(3) 0.1031(3) -0.15103(10)
C2F C 0.7322(4) 0.0106(3) -0.10180(11)
H1F H 0.8236 -0.0681 -0.0859
H2F H 0.6244 -0.0525 -0.1166
C3F C 0.7961(4) 0.1955(3) -0.02244(11)
N1F N 0.6716(3) 0.1179(3) -0.05672(9)
H3F H 0.5530 0.1320 -0.0519
O1F O 0.9004(2) 0.0104(2) -0.18701(8)
O1A O 0.4004(2) 0.4896(2) 0.31299(8)
O2F O 0.8131(3) 0.2556(3) -0.15559(9)
O3F O 0.9675(3) 0.1856(2) -0.02483(9)
O4A O 0.7809(3) 0.3021(2) 0.30446(8)
H4A H 0.8296 0.2020 0.3103
H5A H 0.7603 0.3493 0.3392
H6A H 0.4305 -0.0341 0.2695
Cd1F Cd 1.0000 0.20219(3) -0.2500
O6 O 0.2377(2) 0.4466(2) 0.09015(8)
H7 H 0.3381 0.4129 0.0726
H8 H 0.2583 0.5541 0.1036
loop_
_geom_bond_atom_site_label_1
_geom_bond_atom_site_label_2
_geom_bond_site_symmetry_1
_geom_bond_site_symmetry_2
C1 C2 1_555 1_555
C2 H1 1_555 1_555
H2 C2 1_555 1_555
C3 N1 1_555 1_555
N1 C2 1_555 1_555
H3 N1 1_555 1_555
O1 C1 1_555 1_555
O2 C1 1_555 1_555
O3 C3 1_555 1_555
O4 H4 1_555 1_555
H5 O4 1_555 1_555
O5 H6 1_555 1_555
Cd1 O1 1_555 1_555
O6 H7 1_555 1_555
H8 O6 1_555 1_555
C1F C2F 1_555 1_555
C2F H1F 1_555 1_555
H2F C2F 1_555 1_555
C3F C3 1_555 1_555
N1F C2F 1_555 1_555
H3F N1F 1_555 1_555
O1F C1F 1_555 1_555
O1A Cd1 1_555 1_555
O2F C1F 1_555 1_555
O3F C3F 1_555 1_555
O4A Cd1 1_555 1_555
H4A O4A 1_555 1_555
H5A O4A 1_555 1_555
H6A O5 1_555 1_555
Cd1F O1F 1_555 1_555
O4 Cd1 1_555 1_555
O5 Cd1 1_555 1_555
C3F N1F 1_555 1_555

#END
