
#######################################################################
#
#                 Cambridge Crystallographic Data Centre
#                                CCDC 
#
#######################################################################
#
# If this CIF has been generated from an entry in the Cambridge 
# Structural Database, then it will include bibliographic, chemical, 
# crystal, experimental, refinement or atomic coordinate data resulting 
# from the CCDC's data processing and validation procedures.
#
#######################################################################

data_DUPSIR
_symmetry_cell_setting           triclinic
_symmetry_space_group_name_H-M   'P -1'
_symmetry_Int_Tables_number      2
_space_group_name_Hall           '-P 1'
loop_
_symmetry_equiv_pos_site_id
_symmetry_equiv_pos_as_xyz
1 x,y,z
2 -x,-y,-z
_cell_length_a                   7.8413(7)
_cell_length_b                   9.5545(8)
_cell_length_c                   10.6561(9)
_cell_angle_alpha                68.8270(10)
_cell_angle_beta                 71.0240(10)
_cell_angle_gamma                75.2060(10)
_cell_volume                     695.34
loop_
_atom_site_label
_atom_site_type_symbol
_atom_site_fract_x
_atom_site_fract_y
_atom_site_fract_z
Yb1 Yb 0.26626(2) 0.294523(19) 1.006579(16)
C1 C 0.2794(6) 0.7548(5) 0.1682(4)
C2 C 0.2113(6) 0.6900(5) 0.3233(4)
C3 C 0.3017(8) 0.5574(6) 0.3942(5)
H1 H 0.3999 0.5039 0.3444
C4 C 0.2506(8) 0.5012(6) 0.5381(5)
H2 H 0.3117 0.4094 0.5839
C5 C 0.1094(6) 0.5813(5) 0.6133(4)
C6 C 0.0601(5) 0.5283(5) 0.7702(4)
C7 C 0.0173(7) 0.7138(6) 0.5423(5)
H3 H -0.0791 0.7690 0.5917
C8 C 0.0665(7) 0.7660(6) 0.3982(5)
H4 H 0.0001 0.8540 0.3519
C9 C 0.3969(5) 0.1538(5) 1.2422(4)
C10 C 0.4506(6) 0.0733(5) 1.3751(4)
C11 C 0.5442(8) 0.1424(5) 1.4211(5)
H5 H 0.5754 0.2380 1.3678
C12 C 0.4091(8) -0.0693(6) 1.4544(5)
H6 H 0.3486 -0.1171 1.4234
O1 O 0.1745(4) 0.8546(4) 0.1024(3)
O2 O 0.4422(4) 0.7076(4) 0.1137(3)
O3 O -0.0475(4) 0.6148(4) 0.8340(3)
O4 O 0.1368(5) 0.3988(3) 0.8290(3)
O5 O 0.4165(4) 0.2898(3) 1.1772(3)
O6 O 0.3249(4) 0.0831(3) 1.1957(3)
O7 O 0.3026(5) 0.5482(4) 0.9349(4)
H7 H 0.221(4) 0.617(4) 0.914(6)
H8 H 0.393(4) 0.589(5) 0.908(6)
O8 O 0.0025(5) 0.1676(4) 1.0747(4)
H9 H -0.038(7) 0.168(5) 1.013(4)
H10 H 0.030(8) 0.0778(19) 1.115(5)
O9 O 0.3438(5) 0.0930(3) 0.9110(3)
H11 H 0.451(2) 0.065(5) 0.877(5)
H12 H 0.303(5) 0.014(3) 0.957(5)
Yb1A Yb -0.26626(2) 0.705477(19) 0.993421(16)
Yb1A_2 Yb 0.73374(2) 0.705477(19) -0.006579(16)
Yb1A_3 Yb 0.73374(2) -0.294523(19) 1.993421(16)
Yb1_2 Yb -0.73374(2) 0.294523(19) 2.006579(16)
C1A C -0.2794(6) 0.2452(5) 1.8318(4)
C2A C -0.2113(6) 0.3100(5) 1.6767(4)
C3A C -0.3017(8) 0.4426(6) 1.6058(5)
H1A H -0.3999 0.4961 1.6556
C4A C -0.2506(8) 0.4988(6) 1.4619(5)
H2A H -0.3117 0.5906 1.4161
C5A C -0.1094(6) 0.4187(5) 1.3867(4)
C6A C -0.0601(5) 0.4717(5) 1.2298(4)
C7A C -0.0173(7) 0.2862(6) 1.4577(5)
H3A H 0.0791 0.2310 1.4083
C8A C -0.0665(7) 0.2340(6) 1.6018(5)
H4A H -0.0001 0.1460 1.6481
C9A C 0.6031(5) -0.1538(5) 1.7578(4)
C10A C 0.5494(6) -0.0733(5) 1.6249(4)
C11A C 0.4558(8) -0.1424(5) 1.5789(5)
H5A H 0.4246 -0.2380 1.6322
C12A C 0.5909(8) 0.0693(6) 1.5456(5)
H6A H 0.6514 0.1171 1.5766
O1A O -0.1745(4) 0.1454(4) 1.8976(3)
O2A O -0.4422(4) 0.2924(4) 1.8863(3)
O2A_2 O 0.5578(4) 0.2924(4) 0.8863(3)
O2_2 O -0.5578(4) 0.7076(4) 1.1137(3)
O3A O 0.0475(4) 0.3852(4) 1.1660(3)
O4A O -0.1368(5) 0.6012(3) 1.1710(3)
O5A O 0.5835(4) -0.2898(3) 1.8228(3)
O5A_2 O -0.4165(4) 0.7102(3) 0.8228(3)
O6A O 0.6751(4) -0.0831(3) 1.8043(3)
O6A_2 O -0.3249(4) 0.9169(3) 0.8043(3)
O7A O -0.3026(5) 0.4518(4) 1.0651(4)
H7A H -0.221(4) 0.383(4) 1.086(6)
H8A H -0.393(4) 0.411(5) 1.092(6)
O8A O -0.0025(5) 0.8324(4) 0.9253(4)
H9A H 0.038(7) 0.832(5) 0.987(4)
H10A H -0.030(8) 0.9222(19) 0.885(5)
O9A O -0.3438(5) 0.9070(3) 1.0890(3)
H11A H -0.451(2) 0.935(5) 1.123(5)
H12A H -0.303(5) 0.986(3) 1.043(5)
loop_
_geom_bond_atom_site_label_1
_geom_bond_atom_site_label_2
_geom_bond_site_symmetry_1
_geom_bond_site_symmetry_2
Yb1 O4 1_555 1_555
C1 C2 1_555 1_555
C2 C3 1_555 1_555
C3 H1 1_555 1_555
C4 C3 1_555 1_555
H2 C4 1_555 1_555
C5 C4 1_555 1_555
C6 C5 1_555 1_555
C7 C5 1_555 1_555
H3 C7 1_555 1_555
C8 C2 1_555 1_555
H4 C8 1_555 1_555
C9 C10 1_555 1_555
C10 C11 1_555 1_555
C11 H5 1_555 1_555
C12 C10 1_555 1_555
H6 C12 1_555 1_555
O1 C1 1_555 1_555
O2 C1 1_555 1_555
O3 C6 1_555 1_555
O4 C6 1_555 1_555
O5 Yb1 1_555 1_555
O6 Yb1 1_555 1_555
O7 Yb1 1_555 1_555
H7 O7 1_555 1_555
H8 O7 1_555 1_555
O8 Yb1 1_555 1_555
H9 O8 1_555 1_555
H10 O8 1_555 1_555
O9 Yb1 1_555 1_555
H11 O9 1_555 1_555
H12 O9 1_555 1_555
Yb1A O3 1_555 1_555
Yb1A_2 O2 1_555 1_555
Yb1A_3 O5A 1_555 1_555
Yb1_2 O2A 1_555 1_555
C1A C2A 1_555 1_555
C2A C3A 1_555 1_555
C3A H1A 1_555 1_555
C4A C3A 1_555 1_555
H2A C4A 1_555 1_555
C5A C4A 1_555 1_555
C6A C5A 1_555 1_555
C7A C5A 1_555 1_555
H3A C7A 1_555 1_555
C8A C2A 1_555 1_555
H4A C8A 1_555 1_555
C9A C10A 1_555 1_555
C10A C11A 1_555 1_555
C11A C12 1_555 1_555
H5A C11A 1_555 1_555
C12A C11 1_555 1_555
H6A C12A 1_555 1_555
O1A C1A 1_555 1_555
O2A C1A 1_555 1_555
O2A_2 Yb1 1_555 1_555
O2_2 Yb1A 1_555 1_555
O3A Yb1 1_555 1_555
O4A Yb1A 1_555 1_555
O5A C9A 1_555 1_555
O5A_2 Yb1A 1_555 1_555
O6A Yb1A_3 1_555 1_555
O6A_2 Yb1A 1_555 1_555
O7A Yb1A 1_555 1_555
H7A O7A 1_555 1_555
H8A O7A 1_555 1_555
O8A Yb1A 1_555 1_555
H9A O8A 1_555 1_555
H10A O8A 1_555 1_555
O9A Yb1A 1_555 1_555
H11A O9A 1_555 1_555
H12A O9A 1_555 1_555
C7 C8 1_555 1_555
C9 O5 1_555 1_555
C9 O6 1_555 1_555
C6A O3A 1_555 1_555
C6A O4A 1_555 1_555
C7A C8A 1_555 1_555
C9A O6A 1_555 1_555
C10A C12A 1_555 1_555

#END
