
#######################################################################
#
#                 Cambridge Crystallographic Data Centre
#                                CCDC 
#
#######################################################################
#
# If this CIF has been generated from an entry in the Cambridge 
# Structural Database, then it will include bibliographic, chemical, 
# crystal, experimental, refinement or atomic coordinate data resulting 
# from the CCDC's data processing and validation procedures.
#
#######################################################################

data_DUPTUE
_symmetry_cell_setting           triclinic
_symmetry_space_group_name_H-M   'P -1'
_symmetry_Int_Tables_number      2
_space_group_name_Hall           '-P 1'
loop_
_symmetry_equiv_pos_site_id
_symmetry_equiv_pos_as_xyz
1 x,y,z
2 -x,-y,-z
_cell_length_a                   8.5561(6)
_cell_length_b                   10.7702(8)
_cell_length_c                   11.9045(8)
_cell_angle_alpha                98.1100(10)
_cell_angle_beta                 107.1930(10)
_cell_angle_gamma                96.4490(10)
_cell_volume                     1023.66
loop_
_atom_site_label
_atom_site_type_symbol
_atom_site_fract_x
_atom_site_fract_y
_atom_site_fract_z
I1 I 0.31696(4) 0.97725(3) 0.10525(3)
Cu1 Cu 0.38873(9) 0.92391(6) -0.09670(6)
S1 S 0.13540(17) 0.55124(12) 0.27577(10)
S2 S 0.02067(16) 0.43336(14) 0.35509(12)
N1 N 0.2094(5) 0.5182(3) 0.0809(3)
C1 C 0.3021(5) 0.5258(4) -0.0900(4)
N2 N 0.0948(5) 0.3267(4) 0.1271(4)
N3 N 0.3815(5) 0.7322(4) -0.1296(3)
C2 C 0.1455(5) 0.4513(4) 0.1466(4)
N4 N 0.1235(5) 0.2820(4) 0.4999(3)
C3 C 0.3142(6) 0.6574(4) -0.0705(4)
H1 H 0.2728 0.6955 -0.0127
C4 C 0.2284(5) 0.4523(4) -0.0183(4)
C5 C 0.1797(6) 0.3566(5) 0.4357(4)
C6 C 0.4346(6) 0.5483(5) -0.2380(4)
H2 H 0.4772 0.5130 -0.2963
C7 C 0.2302(6) 0.2187(4) 0.5638(4)
C8 C 0.3936(6) 0.2331(5) 0.5625(4)
H3 H 0.4704 0.1894 0.6067
C9 C 0.3639(6) 0.4719(5) -0.1776(4)
H4 H 0.3572 0.3842 -0.1951
N5 N 0.3312(5) 0.3777(4) 0.4277(3)
C10 C 0.4371(6) 0.3147(5) 0.4933(5)
H5 H 0.5461 0.3261 0.4925
C11 C 0.4419(6) 0.6772(5) -0.2117(4)
H6 H 0.4909 0.7284 -0.2528
C12 C 0.1115(6) 0.2636(5) 0.0281(5)
H7 H 0.0766 0.1761 0.0087
C13 C 0.1775(6) 0.3213(4) -0.0466(4)
H8 H 0.1883 0.2739 -0.1148
C14 C 0.1671(6) 0.1341(4) 0.6336(4)
C15 C -0.0011(6) 0.1112(5) 0.6209(4)
H9 H -0.0761 0.1500 0.5691
C16 C -0.0545(7) 0.0301(5) 0.6864(5)
H10 H -0.1663 0.0141 0.6796
C17 C 0.2701(7) 0.0733(5) 0.7125(4)
H11 H 0.3827 0.0880 0.7217
C18 C 0.0554(7) -0.0264(5) 0.7604(4)
H12 H 0.0161 -0.0825 0.8023
N6 N 0.2191(5) -0.0053(4) 0.7765(3)
I1A I 0.68304(4) 1.02275(3) -0.10525(3)
Cu1A Cu 0.61127(9) 1.07609(6) 0.09670(6)
Cu1_2 Cu 0.38873(9) -0.07609(6) 0.90330(6)
N6_2 N 0.2191(5) 0.9947(4) -0.2235(3)
loop_
_geom_bond_atom_site_label_1
_geom_bond_atom_site_label_2
_geom_bond_site_symmetry_1
_geom_bond_site_symmetry_2
I1 Cu1 1_555 1_555
Cu1 N3 1_555 1_555
S1 S2 1_555 1_555
S2 C5 1_555 1_555
N1 C2 1_555 1_555
C1 C3 1_555 1_555
N2 C2 1_555 1_555
N3 C3 1_555 1_555
C2 S1 1_555 1_555
N4 C5 1_555 1_555
C3 H1 1_555 1_555
C4 N1 1_555 1_555
C5 N5 1_555 1_555
C6 H2 1_555 1_555
C7 N4 1_555 1_555
C8 C7 1_555 1_555
H3 C8 1_555 1_555
C9 C1 1_555 1_555
H4 C9 1_555 1_555
N5 C10 1_555 1_555
C10 C8 1_555 1_555
H5 C10 1_555 1_555
C11 N3 1_555 1_555
H6 C11 1_555 1_555
C12 N2 1_555 1_555
H7 C12 1_555 1_555
C13 C4 1_555 1_555
H8 C13 1_555 1_555
C14 C7 1_555 1_555
C15 C14 1_555 1_555
H9 C15 1_555 1_555
C16 C15 1_555 1_555
H10 C16 1_555 1_555
C17 C14 1_555 1_555
H11 C17 1_555 1_555
C18 C16 1_555 1_555
H12 C18 1_555 1_555
N6 C17 1_555 1_555
I1A Cu1 1_555 1_555
Cu1A I1 1_555 1_555
Cu1_2 N6 1_555 1_555
N6_2 Cu1 1_555 1_555
Cu1 Cu1A 1_555 1_555
C1 C4 1_555 1_555
C6 C9 1_555 1_555
C6 C11 1_555 1_555
C12 C13 1_555 1_555
C18 N6 1_555 1_555
I1A Cu1A 1_555 1_555

#END
