
#######################################################################
#
#                 Cambridge Crystallographic Data Centre
#                                CCDC 
#
#######################################################################
#
# If this CIF has been generated from an entry in the Cambridge 
# Structural Database, then it will include bibliographic, chemical, 
# crystal, experimental, refinement or atomic coordinate data resulting 
# from the CCDC's data processing and validation procedures.
#
#######################################################################

data_DUPVEQ
_symmetry_cell_setting           triclinic
_symmetry_space_group_name_H-M   'P -1'
_symmetry_Int_Tables_number      2
_space_group_name_Hall           '-P 1'
loop_
_symmetry_equiv_pos_site_id
_symmetry_equiv_pos_as_xyz
1 x,y,z
2 -x,-y,-z
_cell_length_a                   7.0150(14)
_cell_length_b                   9.4166(19)
_cell_length_c                   10.020(2)
_cell_angle_alpha                74.69(3)
_cell_angle_beta                 88.95(3)
_cell_angle_gamma                77.89(3)
_cell_volume                     623.717
loop_
_atom_site_label
_atom_site_type_symbol
_atom_site_fract_x
_atom_site_fract_y
_atom_site_fract_z
Cd1 Cd 0.0000 1.0000 0.0000
S1 S 0.29197(7) 1.15768(5) 0.17257(4)
O1 O 0.1945(2) 0.84005(18) -0.11454(17)
H1 H 0.136(6) 0.833(4) -0.175(4)
H2 H 0.290(4) 0.868(3) -0.157(3)
O2 O 0.2561(2) 1.08582(18) 0.06347(15)
O3 O 0.3055(3) 1.31472(19) 0.10627(17)
O4 O 0.1344(2) 1.15595(19) 0.27022(15)
O5 O 0.4799(2) 1.0756(2) 0.24417(17)
N1 N 0.0296(2) 0.79779(18) 0.20108(16)
C1 C 0.0538(3) 0.6552(2) 0.19390(19)
H3 H 0.0766 0.6356 0.1081
C2 C 0.0466(3) 0.5356(2) 0.30742(19)
H4 H 0.0672 0.4381 0.2975
C3 C 0.0080(3) 0.56194(19) 0.43746(18)
C4 C -0.0128(3) 0.7102(2) 0.44466(19)
H5 H -0.0347 0.7334 0.5290
C5 C -0.0006(3) 0.8224(2) 0.3263(2)
H6 H -0.0140 0.9204 0.3338
Cd1_2 Cd 0.0000 0.0000 1.0000
S1A S -0.29197(7) 0.84232(5) -0.17257(4)
O1A O -0.1945(2) 1.15995(18) 0.11454(17)
H1A H -0.136(6) 1.167(4) 0.175(4)
H2A H -0.290(4) 1.132(3) 0.157(3)
O2A O -0.2561(2) 0.91418(18) -0.06347(15)
O3A O -0.3055(3) 0.68528(19) -0.10627(17)
O4A O -0.1344(2) 0.84405(19) -0.27022(15)
O5A O -0.4799(2) 0.9244(2) -0.24417(17)
N1A N -0.0296(2) 0.20221(18) 0.79892(16)
N1A_2 N -0.0296(2) 1.20221(18) -0.20108(16)
C1A C -0.0538(3) 0.3448(2) 0.80610(19)
H3A H -0.0766 0.3644 0.8919
C2A C -0.0466(3) 0.4644(2) 0.69258(19)
H4A H -0.0672 0.5619 0.7025
C3A C -0.0080(3) 0.43806(19) 0.56254(18)
C4A C 0.0128(3) 0.2898(2) 0.55534(19)
H5A H 0.0347 0.2666 0.4710
C5A C 0.0006(3) 0.1776(2) 0.6737(2)
H6A H 0.0140 0.0796 0.6662
N2 N 0.4126(3) 0.3731(2) 0.85093(18)
H7 H 0.385(4) 0.344(3) 0.929(3)
C6 C 0.4633(3) 0.2724(2) 0.7777(2)
H8 H 0.4744 0.1704 0.8203
C7 C 0.4990(3) 0.3192(2) 0.6395(2)
H9 H 0.5344 0.2489 0.5886
C8 C 0.4823(3) 0.4724(2) 0.57526(19)
C9 C 0.4306(3) 0.5733(2) 0.6567(2)
H10 H 0.4192 0.6761 0.6178
C10 C 0.3968(3) 0.5197(3) 0.7943(2)
H11 H 0.3624 0.5867 0.8486
N2A N 0.5874(3) 0.6269(2) 0.14907(18)
H7A H 0.615(4) 0.656(3) 0.071(3)
C6A C 0.5367(3) 0.7276(2) 0.2223(2)
H8A H 0.5256 0.8296 0.1797
C7A C 0.5010(3) 0.6808(2) 0.3605(2)
H9A H 0.4656 0.7511 0.4114
C8A C 0.5177(3) 0.5276(2) 0.42474(19)
C9A C 0.5694(3) 0.4267(2) 0.3433(2)
H10A H 0.5808 0.3239 0.3822
C10A C 0.6032(3) 0.4803(3) 0.2057(2)
H11A H 0.6376 0.4133 0.1514
O6 O 0.2828(3) 0.9313(2) 0.5331(2)
H12 H 0.257(5) 1.003(4) 0.462(3)
H13 H 0.376(5) 0.956(4) 0.572(4)
loop_
_geom_bond_atom_site_label_1
_geom_bond_atom_site_label_2
_geom_bond_site_symmetry_1
_geom_bond_site_symmetry_2
Cd1 O1 1_555 1_555
S1 O2 1_555 1_555
O1 H1 1_555 1_555
H2 O1 1_555 1_555
O2 Cd1 1_555 1_555
O3 S1 1_555 1_555
O4 S1 1_555 1_555
O5 S1 1_555 1_555
N1 Cd1 1_555 1_555
C1 N1 1_555 1_555
H3 C1 1_555 1_555
C2 C1 1_555 1_555
H4 C2 1_555 1_555
C3 C2 1_555 1_555
C4 C3 1_555 1_555
H5 C4 1_555 1_555
C5 N1 1_555 1_555
H6 C5 1_555 1_555
N2 H7 1_555 1_555
C6 N2 1_555 1_555
H8 C6 1_555 1_555
C7 C6 1_555 1_555
H9 C7 1_555 1_555
C8 C7 1_555 1_555
C9 C8 1_555 1_555
H10 C9 1_555 1_555
C10 N2 1_555 1_555
H11 C10 1_555 1_555
O6 H12 1_555 1_555
H13 O6 1_555 1_555
Cd1_2 N1A 1_555 1_555
S1A O2A 1_555 1_555
O1A Cd1 1_555 1_555
H1A O1A 1_555 1_555
H2A O1A 1_555 1_555
O2A Cd1 1_555 1_555
O3A S1A 1_555 1_555
O4A S1A 1_555 1_555
O5A S1A 1_555 1_555
N1A C1A 1_555 1_555
N1A_2 Cd1 1_555 1_555
C1A H3A 1_555 1_555
C2A C1A 1_555 1_555
H4A C2A 1_555 1_555
C3A C3 1_555 1_555
C4A C3A 1_555 1_555
H5A C4A 1_555 1_555
C5A N1A 1_555 1_555
H6A C5A 1_555 1_555
N2A H7A 1_555 1_555
C6A N2A 1_555 1_555
H8A C6A 1_555 1_555
C7A C6A 1_555 1_555
H9A C7A 1_555 1_555
C8A C8 1_555 1_555
C9A C8A 1_555 1_555
H10A C9A 1_555 1_555
C10A N2A 1_555 1_555
H11A C10A 1_555 1_555
C4 C5 1_555 1_555
C9 C10 1_555 1_555
C2A C3A 1_555 1_555
C4A C5A 1_555 1_555
C7A C8A 1_555 1_555
C9A C10A 1_555 1_555

#END
