
#######################################################################
#
#                 Cambridge Crystallographic Data Centre
#                                CCDC 
#
#######################################################################
#
# If this CIF has been generated from an entry in the Cambridge 
# Structural Database, then it will include bibliographic, chemical, 
# crystal, experimental, refinement or atomic coordinate data resulting 
# from the CCDC's data processing and validation procedures.
#
#######################################################################

data_DUPWOB01
_symmetry_cell_setting           monoclinic
_symmetry_space_group_name_H-M   'C 2/c'
_symmetry_Int_Tables_number      15
_space_group_name_Hall           '-C 2yn'
loop_
_symmetry_equiv_pos_site_id
_symmetry_equiv_pos_as_xyz
1 x,y,z
2 -x,y,1/2-z
3 1/2+x,1/2+y,z
4 1/2-x,1/2+y,1/2-z
5 -x,-y,-z
6 x,-y,1/2+z
7 1/2-x,1/2-y,-z
8 1/2+x,1/2-y,1/2+z
_cell_length_a                   12.724(2)
_cell_length_b                   13.030(2)
_cell_length_c                   11.703(2)
_cell_angle_alpha                90
_cell_angle_beta                 97.856(2)
_cell_angle_gamma                90
_cell_volume                     1922.07
loop_
_atom_site_label
_atom_site_type_symbol
_atom_site_fract_x
_atom_site_fract_y
_atom_site_fract_z
Ca1 Ca 0.5000 -0.07410(4) 0.2500
O1 O 0.40564(14) 0.07501(12) 0.16825(15)
O2 O 0.40545(12) 0.22546(12) 0.07844(14)
O3 O 0.29964(12) 0.38568(12) 0.06455(14)
H1 H 0.3341 0.3323 0.0688
O4 O 0.16128(12) 0.44977(11) 0.13680(14)
O5 O 0.44501(13) -0.10607(13) 0.04109(14)
H2 H 0.4235 -0.0522 0.0042
H3 H 0.4881 -0.1361 0.0028
N1 N 0.13431(13) 0.27422(13) 0.26003(14)
N2 N 0.23590(14) 0.13611(13) 0.28072(15)
H4 H 0.2600 0.0772 0.3048
C1 C 0.27709(16) 0.19656(16) 0.20263(18)
C2 C 0.21352(15) 0.28231(16) 0.19083(17)
C3 C 0.15053(16) 0.18442(16) 0.31423(18)
C4 C 0.36939(17) 0.16188(17) 0.14730(18)
C5 C 0.22365(16) 0.37771(16) 0.12641(18)
C6 C 0.09075(17) 0.13935(17) 0.40235(19)
H5 H 0.0722 0.0690 0.3810
H6 H 0.0253 0.1773 0.4029
C7 C 0.1529(2) 0.14051(19) 0.5237(2)
H7 H 0.2234 0.1131 0.5209
H8 H 0.1605 0.2108 0.5507
C8 C 0.0988(2) 0.0780(2) 0.6083(2)
H9 H 0.0290 0.1049 0.6115
H10 H 0.1397 0.0818 0.6835
H11 H 0.0936 0.0077 0.5834
Ca1B Ca 0.0000 0.42590(4) 0.2500
Ca1B_2 Ca 1.0000 0.42590(4) 0.2500
O1A O 0.59436(14) 0.07501(12) 0.33175(15)
O2A O 0.59455(12) 0.22546(12) 0.42156(14)
O3A O 0.70036(12) 0.38568(12) 0.43545(14)
H1A H 0.6659 0.3323 0.4312
O4A O 0.83872(12) 0.44977(11) 0.36320(14)
O4B O 0.66128(12) -0.05023(11) 0.13680(14)
O4C O 0.33872(12) -0.05023(11) 0.36320(14)
O5A O 0.55499(13) -0.10607(13) 0.45891(14)
H2A H 0.5765 -0.0522 0.4958
H3A H 0.5119 -0.1361 0.4972
N1A N 0.86569(13) 0.27422(13) 0.23997(14)
N1B N 0.63431(13) -0.22578(13) 0.26003(14)
N1C N 0.36569(13) -0.22578(13) 0.23997(14)
N2A N 0.76410(14) 0.13611(13) 0.21928(15)
H4A H 0.7400 0.0772 0.1952
C1A C 0.72291(16) 0.19656(16) 0.29737(18)
C2A C 0.78648(15) 0.28231(16) 0.30917(17)
C3A C 0.84947(16) 0.18442(16) 0.18577(18)
C4A C 0.63061(17) 0.16188(17) 0.35270(18)
C5A C 0.77635(16) 0.37771(16) 0.37359(18)
C6A C 0.90925(17) 0.13935(17) 0.09765(19)
H5A H 0.9278 0.0690 0.1190
H6A H 0.9747 0.1773 0.0971
C7A C 0.8471(2) 0.14051(19) -0.0237(2)
H7A H 0.7766 0.1131 -0.0209
H8A H 0.8395 0.2108 -0.0507
C8A C 0.9012(2) 0.0780(2) -0.1083(2)
H9A H 0.9710 0.1049 -0.1115
H10A H 0.8603 0.0818 -0.1835
H11A H 0.9064 0.0077 -0.0834
loop_
_geom_bond_atom_site_label_1
_geom_bond_atom_site_label_2
_geom_bond_site_symmetry_1
_geom_bond_site_symmetry_2
Ca1 O1 1_555 1_555
O1 C4 1_555 1_555
O2 C4 1_555 1_555
O3 H1 1_555 1_555
O4 C5 1_555 1_555
O5 Ca1 1_555 1_555
H2 O5 1_555 1_555
H3 O5 1_555 1_555
N1 C2 1_555 1_555
N2 H4 1_555 1_555
C1 N2 1_555 1_555
C2 C1 1_555 1_555
C3 N1 1_555 1_555
C4 C1 1_555 1_555
C5 O3 1_555 1_555
C6 C3 1_555 1_555
H5 C6 1_555 1_555
H6 C6 1_555 1_555
C7 C6 1_555 1_555
H7 C7 1_555 1_555
H8 C7 1_555 1_555
C8 C7 1_555 1_555
H9 C8 1_555 1_555
H10 C8 1_555 1_555
H11 C8 1_555 1_555
Ca1B O4 1_555 1_555
Ca1B_2 O4A 1_555 1_555
O1A Ca1 1_555 1_555
O2A C4A 1_555 1_555
O3A H1A 1_555 1_555
O4A C5A 1_555 1_555
O4B Ca1 1_555 1_555
O4C Ca1 1_555 1_555
O5A Ca1 1_555 1_555
H2A O5A 1_555 1_555
H3A O5A 1_555 1_555
N1A Ca1B_2 1_555 1_555
N1B Ca1 1_555 1_555
N1C Ca1 1_555 1_555
N2A H4A 1_555 1_555
C1A N2A 1_555 1_555
C2A N1A 1_555 1_555
C3A N1A 1_555 1_555
C4A O1A 1_555 1_555
C5A O3A 1_555 1_555
C6A C3A 1_555 1_555
H5A C6A 1_555 1_555
H6A C6A 1_555 1_555
C7A C6A 1_555 1_555
H7A C7A 1_555 1_555
H8A C7A 1_555 1_555
C8A C7A 1_555 1_555
H9A C8A 1_555 1_555
H10A C8A 1_555 1_555
H11A C8A 1_555 1_555
N1 Ca1B 1_555 1_555
N2 C3 1_555 1_555
C2 C5 1_555 1_555
N2A C3A 1_555 1_555
C1A C2A 1_555 1_555
C1A C4A 1_555 1_555
C2A C5A 1_555 1_555

#END
