
#######################################################################
#
#                 Cambridge Crystallographic Data Centre
#                                CCDC 
#
#######################################################################
#
# If this CIF has been generated from an entry in the Cambridge 
# Structural Database, then it will include bibliographic, chemical, 
# crystal, experimental, refinement or atomic coordinate data resulting 
# from the CCDC's data processing and validation procedures.
#
#######################################################################

data_DUPWOB
_symmetry_cell_setting           monoclinic
_symmetry_space_group_name_H-M   'C 2/c'
_symmetry_Int_Tables_number      15
_space_group_name_Hall           '-C 2yn'
loop_
_symmetry_equiv_pos_site_id
_symmetry_equiv_pos_as_xyz
1 x,y,z
2 -x,y,1/2-z
3 1/2+x,1/2+y,z
4 1/2-x,1/2+y,1/2-z
5 -x,-y,-z
6 x,-y,1/2+z
7 1/2-x,1/2-y,-z
8 1/2+x,1/2-y,1/2+z
_cell_length_a                   12.703(3)
_cell_length_b                   13.006(3)
_cell_length_c                   11.697(2)
_cell_angle_alpha                90
_cell_angle_beta                 97.864(2)
_cell_angle_gamma                90
_cell_volume                     1914.35
loop_
_atom_site_label
_atom_site_type_symbol
_atom_site_fract_x
_atom_site_fract_y
_atom_site_fract_z
Ca1 Ca 0.5000 0.07420(4) 0.2500
O1 O 0.33875(11) 0.05035(10) 0.36313(12)
O2 O 0.55495(11) 0.10622(11) 0.45862(12)
H1 H 0.5121 0.1347 0.4970
H2 H 0.5769 0.0519 0.4904
O3 O 0.20033(11) 0.11430(10) 0.43530(13)
H3 H 0.1663 0.1680 0.4316
O4 O 0.09452(11) 0.27478(11) 0.42169(12)
O5 O 0.09469(12) 0.42512(10) 0.33195(13)
N1 N 0.36595(12) 0.22589(11) 0.23987(13)
N2 N 0.26433(12) 0.36382(11) 0.21921(13)
H4 H 0.2403 0.4229 0.1951
C1 C 0.28670(14) 0.21777(14) 0.30920(15)
C2 C 0.22299(14) 0.30376(14) 0.29747(16)
C3 C 0.34950(14) 0.31557(14) 0.18572(16)
C4 C 0.27622(14) 0.12212(14) 0.37333(16)
C5 C 0.40949(15) 0.36092(15) 0.09774(17)
H5 H 0.4753 0.3231 0.0974
H6 H 0.4277 0.4315 0.1189
C6 C 0.34718(17) 0.35929(17) -0.02384(18)
H7 H 0.3399 0.2888 -0.0508
H8 H 0.2764 0.3865 -0.0212
C7 C 0.40144(19) 0.42208(18) -0.1082(2)
H9 H 0.4067 0.4924 -0.0832
H10 H 0.3606 0.4184 -0.1835
H11 H 0.4714 0.3952 -0.1113
C8 C 0.13058(15) 0.33836(15) 0.35251(16)
Ca1B Ca 0.0000 0.57420(4) 0.2500
Ca1B_2 Ca 1.0000 -0.42580(4) 0.2500
O1B O 0.83875(11) -0.44965(10) 0.36313(12)
O1A O 0.66125(11) 0.05035(10) 0.13687(12)
O2A O 0.44505(11) 0.10622(11) 0.04138(12)
H1A H 0.4879 0.1347 0.0030
H2A H 0.4231 0.0519 0.0096
O3B O 0.70033(11) -0.38570(10) 0.43530(13)
H3B H 0.6663 -0.3320 0.4316
O4B O 0.59452(11) -0.22522(11) 0.42169(12)
O5B O 0.59469(12) -0.07488(10) 0.33195(13)
O5C O 0.40531(12) -0.07488(10) 0.16805(13)
N1B N 0.86595(12) -0.27411(11) 0.23987(13)
N1A N 0.63405(12) 0.22589(11) 0.26013(13)
N2B N 0.76433(12) -0.13618(11) 0.21921(13)
H4B H 0.7403 -0.0771 0.1951
C1B C 0.78670(14) -0.28223(14) 0.30920(15)
C2B C 0.72299(14) -0.19624(14) 0.29747(16)
C3B C 0.84950(14) -0.18443(14) 0.18572(16)
C4B C 0.77622(14) -0.37788(14) 0.37333(16)
C5B C 0.90949(15) -0.13908(15) 0.09774(17)
H5B H 0.9753 -0.1769 0.0974
H6B H 0.9277 -0.0685 0.1189
C6B C 0.84718(17) -0.14071(17) -0.02384(18)
H7B H 0.8399 -0.2112 -0.0508
H8B H 0.7764 -0.1135 -0.0212
C7B C 0.90144(19) -0.07792(18) -0.1082(2)
H9B H 0.9067 -0.0076 -0.0832
H10B H 0.8606 -0.0816 -0.1835
H11B H 0.9714 -0.1048 -0.1113
C8B C 0.63058(15) -0.16164(15) 0.35251(16)
loop_
_geom_bond_atom_site_label_1
_geom_bond_atom_site_label_2
_geom_bond_site_symmetry_1
_geom_bond_site_symmetry_2
Ca1 O1 1_555 1_555
O1 C4 1_555 1_555
O2 Ca1 1_555 1_555
H1 O2 1_555 1_555
H2 O2 1_555 1_555
O3 H3 1_555 1_555
O4 C8 1_555 1_555
O5 C8 1_555 1_555
N1 Ca1 1_555 1_555
N2 H4 1_555 1_555
C1 N1 1_555 1_555
C2 N2 1_555 1_555
C3 N1 1_555 1_555
C4 O3 1_555 1_555
C5 C3 1_555 1_555
H5 C5 1_555 1_555
H6 C5 1_555 1_555
C6 C5 1_555 1_555
H7 C6 1_555 1_555
H8 C6 1_555 1_555
C7 C6 1_555 1_555
H9 C7 1_555 1_555
H10 C7 1_555 1_555
H11 C7 1_555 1_555
C8 C2 1_555 1_555
Ca1B O5 1_555 1_555
Ca1B_2 O1B 1_555 1_555
O1B C4B 1_555 1_555
O1A Ca1 1_555 1_555
O2A Ca1 1_555 1_555
H1A O2A 1_555 1_555
H2A O2A 1_555 1_555
O3B H3B 1_555 1_555
O4B C8B 1_555 1_555
O5B Ca1 1_555 1_555
O5C Ca1 1_555 1_555
N1B Ca1B_2 1_555 1_555
N1A Ca1 1_555 1_555
N2B H4B 1_555 1_555
C1B N1B 1_555 1_555
C2B N2B 1_555 1_555
C3B N1B 1_555 1_555
C4B O3B 1_555 1_555
C5B C3B 1_555 1_555
H5B C5B 1_555 1_555
H6B C5B 1_555 1_555
C6B C5B 1_555 1_555
H7B C6B 1_555 1_555
H8B C6B 1_555 1_555
C7B C6B 1_555 1_555
H9B C7B 1_555 1_555
H10B C7B 1_555 1_555
H11B C7B 1_555 1_555
C8B O5B 1_555 1_555
N2 C3 1_555 1_555
C1 C2 1_555 1_555
C1 C4 1_555 1_555
N2B C3B 1_555 1_555
C1B C2B 1_555 1_555
C1B C4B 1_555 1_555
C2B C8B 1_555 1_555

#END
