
#######################################################################
#
#                 Cambridge Crystallographic Data Centre
#                                CCDC 
#
#######################################################################
#
# If this CIF has been generated from an entry in the Cambridge 
# Structural Database, then it will include bibliographic, chemical, 
# crystal, experimental, refinement or atomic coordinate data resulting 
# from the CCDC's data processing and validation procedures.
#
#######################################################################

data_DUPWOC
_symmetry_cell_setting           monoclinic
_symmetry_space_group_name_H-M   'P 21/c'
_symmetry_Int_Tables_number      14
_space_group_name_Hall           '-P 2ybc'
loop_
_symmetry_equiv_pos_site_id
_symmetry_equiv_pos_as_xyz
1 x,y,z
2 -x,1/2+y,1/2-z
3 -x,-y,-z
4 x,1/2-y,1/2+z
_cell_length_a                   15.179(3)
_cell_length_b                   12.950(3)
_cell_length_c                   17.480(4)
_cell_angle_alpha                90
_cell_angle_beta                 94.47(3)
_cell_angle_gamma                90
_cell_volume                     3425.56
loop_
_atom_site_label
_atom_site_type_symbol
_atom_site_fract_x
_atom_site_fract_y
_atom_site_fract_z
Zn1 Zn 0.24395(6) 0.36165(6) 0.08210(5)
O1 O 0.2010(4) 0.3603(4) 0.1840(3)
Zn2 Zn 0.24724(6) 0.32163(7) 0.40627(5)
O2 O 0.4619(4) 0.1302(4) 0.4943(3)
S1 S 0.40323(12) 0.21672(15) 0.50471(11)
O3 O 0.2874(4) 0.3500(4) 0.3051(3)
S2 S 0.24183(13) 0.42448(14) 0.24942(10)
O4 O 0.0222(3) 0.3085(4) 0.4872(3)
S3 S 0.08881(12) 0.23160(14) 0.47178(10)
N1 N 0.2440(4) 0.5074(5) 0.0445(3)
O5 O 0.3308(3) 0.2143(4) 0.4412(3)
O6 O 0.1292(4) 0.2584(4) 0.3991(3)
O7 O 0.0512(4) 0.1285(4) 0.4657(3)
O8 O 0.3592(4) 0.2033(5) 0.5786(3)
O9 O 0.1605(3) 0.2384(4) 0.5350(3)
N2 N 0.2494(4) 1.0425(5) -0.0374(4)
O10 O 0.1733(4) 0.4802(4) 0.2857(3)
O11 O 0.3095(4) 0.4912(4) 0.2206(3)
O12 O 0.4492(4) 0.3148(4) 0.5065(4)
C1 C 0.3216(5) 0.5592(6) 0.0436(5)
H1 H 0.3752 0.5212 0.0500
C2 C 0.1691(5) 0.5626(5) 0.0352(4)
H2 H 0.1144 0.5274 0.0374
C3 C 0.1676(5) 0.6682(6) 0.0227(4)
H3 H 0.1130 0.7038 0.0146
C4 C 0.3257(5) 0.6643(6) 0.0338(5)
H4 H 0.3814 0.6980 0.0348
C5 C 0.3280(5) 0.8862(6) -0.0057(6)
H5 H 0.3829 0.8510 0.0010
C6 C 0.2501(5) 0.8353(5) 0.0062(4)
C7 C 0.3249(6) 0.9889(6) -0.0276(5)
H6 H 0.3787 1.0228 -0.0361
C8 C 0.2474(5) 0.7217(6) 0.0222(4)
C9 C 0.1726(5) 0.8939(6) 0.0010(5)
H7 H 0.1184 0.8635 0.0131
C10 C 0.1746(5) 0.9964(6) -0.0220(5)
H8 H 0.1211 1.0346 -0.0270
Zn1C Zn 0.24395(6) 0.13835(6) 0.58210(5)
Zn2C Zn 0.24724(6) 1.17837(7) -0.09373(5)
O8C O 0.3592(4) 0.2967(5) 0.0786(3)
O9C O 0.1605(3) 0.2616(4) 0.0350(3)
N2C N 0.2494(4) 0.4575(5) 0.4626(4)
O13 O 0.0506(4) 0.0894(4) 0.1275(3)
H9 H 0.0609 0.1174 0.0858
O14 O -0.0929(4) 0.4952(5) 0.1525(3)
H10 H -0.0838 0.5345 0.1157
N3 N -0.0896(4) 0.2738(5) 0.2308(4)
C11 C -0.0610(5) 0.1984(6) 0.1726(5)
H11 H -0.0728 0.2289 0.1209
H12 H -0.0976 0.1354 0.1748
O15 O -0.2837(5) 0.2069(5) 0.2782(4)
H13 H -0.2711 0.1456 0.2903
C12 C 0.0355(5) 0.1675(6) 0.1829(5)
H14 H 0.0736 0.2282 0.1753
H15 H 0.0498 0.1406 0.2355
C13 C -0.0179(6) 0.4309(7) 0.1690(5)
H16 H 0.0358 0.4741 0.1770
H17 H -0.0106 0.3843 0.1251
C14 C -0.1848(5) 0.3096(6) 0.2073(5)
H18 H -0.2010 0.3628 0.2444
H19 H -0.1849 0.3434 0.1565
C15 C -0.0295(5) 0.3677(6) 0.2403(5)
H20 H -0.0529 0.4137 0.2792
H21 H 0.0296 0.3440 0.2611
C16 C -0.2559(6) 0.2281(6) 0.2026(5)
H22 H -0.3071 0.2522 0.1687
H23 H -0.2331 0.1640 0.1804
C17 C -0.0886(6) 0.2212(6) 0.3079(5)
H24 H -0.1239 0.1578 0.3030
H25 H -0.1138 0.2676 0.3448
H26 H -0.0277 0.2041 0.3259
C18 C 0.7520(7) 0.5983(8) 0.2611(6)
H27 H 0.7355 0.6642 0.2849
H28 H 0.8019 0.6119 0.2293
N4 N 0.5867(5) 0.5702(6) 0.2456(4)
C19 C 0.5879(7) 0.5287(10) 0.3230(6)
H29 H 0.6237 0.5755 0.3578
H30 H 0.6185 0.4612 0.3238
O16 O 0.7788(4) 0.5232(5) 0.3211(4)
H31 H 0.8116 0.5522 0.3556
O17 O 0.4528(9) 0.6115(10) 0.3623(8)
H32 H 0.4222 0.6091 0.4003
O18 O 0.5835(6) 0.3783(7) 0.1227(5)
H33 H 0.5566 0.3868 0.0794
C20 C 0.4996(8) 0.5135(11) 0.3555(7)
H34 H 0.4629 0.4663 0.3218
H35 H 0.5087 0.4810 0.4068
C21 C 0.5288(8) 0.4065(9) 0.1793(6)
H36 H 0.5527 0.3769 0.2289
H37 H 0.4696 0.3762 0.1669
C22 C 0.6770(6) 0.5580(9) 0.2132(6)
H38 H 0.6872 0.4837 0.2042
H39 H 0.6750 0.5932 0.1628
C23 C 0.5191(6) 0.5234(7) 0.1887(5)
H40 H 0.5237 0.5567 0.1382
H41 H 0.4594 0.5383 0.2052
C24 C 0.5659(8) 0.6852(8) 0.2444(8)
H42 H 0.5073 0.6965 0.2629
H43 H 0.5665 0.7113 0.1918
H44 H 0.6104 0.7219 0.2777
loop_
_geom_bond_atom_site_label_1
_geom_bond_atom_site_label_2
_geom_bond_site_symmetry_1
_geom_bond_site_symmetry_2
Zn1 O1 1_555 1_555
O1 S2 1_555 1_555
Zn2 O3 1_555 1_555
O2 S1 1_555 1_555
S1 O5 1_555 1_555
O3 S2 1_555 1_555
S2 O10 1_555 1_555
O4 S3 1_555 1_555
S3 O6 1_555 1_555
N1 Zn1 1_555 1_555
O5 Zn2 1_555 1_555
O6 Zn2 1_555 1_555
O7 S3 1_555 1_555
O8 S1 1_555 1_555
O9 S3 1_555 1_555
N2 C7 1_555 1_555
O11 S2 1_555 1_555
O12 S1 1_555 1_555
C1 N1 1_555 1_555
H1 C1 1_555 1_555
C2 N1 1_555 1_555
H2 C2 1_555 1_555
C3 C2 1_555 1_555
H3 C3 1_555 1_555
C4 C1 1_555 1_555
H4 C4 1_555 1_555
C5 H5 1_555 1_555
C6 C5 1_555 1_555
C7 C5 1_555 1_555
H6 C7 1_555 1_555
C8 C3 1_555 1_555
C9 C6 1_555 1_555
H7 C9 1_555 1_555
C10 N2 1_555 1_555
H8 C10 1_555 1_555
O13 H9 1_555 1_555
O14 H10 1_555 1_555
N3 C11 1_555 1_555
C11 H11 1_555 1_555
H12 C11 1_555 1_555
O15 H13 1_555 1_555
C12 O13 1_555 1_555
H14 C12 1_555 1_555
H15 C12 1_555 1_555
C13 O14 1_555 1_555
H16 C13 1_555 1_555
H17 C13 1_555 1_555
C14 N3 1_555 1_555
H18 C14 1_555 1_555
H19 C14 1_555 1_555
C15 N3 1_555 1_555
H20 C15 1_555 1_555
H21 C15 1_555 1_555
C16 O15 1_555 1_555
H22 C16 1_555 1_555
H23 C16 1_555 1_555
C17 N3 1_555 1_555
H24 C17 1_555 1_555
H25 C17 1_555 1_555
H26 C17 1_555 1_555
C18 H27 1_555 1_555
H28 C18 1_555 1_555
N4 C19 1_555 1_555
C19 H29 1_555 1_555
H30 C19 1_555 1_555
O16 C18 1_555 1_555
H31 O16 1_555 1_555
O17 H32 1_555 1_555
O18 H33 1_555 1_555
C20 C19 1_555 1_555
H34 C20 1_555 1_555
H35 C20 1_555 1_555
C21 O18 1_555 1_555
H36 C21 1_555 1_555
H37 C21 1_555 1_555
C22 C18 1_555 1_555
H38 C22 1_555 1_555
H39 C22 1_555 1_555
C23 N4 1_555 1_555
H40 C23 1_555 1_555
H41 C23 1_555 1_555
C24 N4 1_555 1_555
H42 C24 1_555 1_555
H43 C24 1_555 1_555
H44 C24 1_555 1_555
Zn1C O8 1_555 1_555
Zn2C N2 1_555 1_555
O8C Zn1 1_555 1_555
O9C Zn1 1_555 1_555
N2C Zn2 1_555 1_555
O9 Zn1C 1_555 1_555
C4 C8 1_555 1_555
C6 C8 1_555 1_555
C9 C10 1_555 1_555
C11 C12 1_555 1_555
C13 C15 1_555 1_555
C14 C16 1_555 1_555
N4 C22 1_555 1_555
O17 C20 1_555 1_555
C21 C23 1_555 1_555

#END
