
#######################################################################
#
#                 Cambridge Crystallographic Data Centre
#                                CCDC 
#
#######################################################################
#
# If this CIF has been generated from an entry in the Cambridge 
# Structural Database, then it will include bibliographic, chemical, 
# crystal, experimental, refinement or atomic coordinate data resulting 
# from the CCDC's data processing and validation procedures.
#
#######################################################################

data_DUPYOE
_symmetry_cell_setting           triclinic
_symmetry_space_group_name_H-M   'P -1'
_symmetry_Int_Tables_number      2
_space_group_name_Hall           '-P 1'
loop_
_symmetry_equiv_pos_site_id
_symmetry_equiv_pos_as_xyz
1 x,y,z
2 -x,-y,-z
_cell_length_a                   11.4089(4)
_cell_length_b                   12.4074(5)
_cell_length_c                   20.6391(9)
_cell_angle_alpha                94.967(3)
_cell_angle_beta                 102.028(3)
_cell_angle_gamma                116.494(3)
_cell_volume                     2502.96
loop_
_atom_site_label
_atom_site_type_symbol
_atom_site_fract_x
_atom_site_fract_y
_atom_site_fract_z
C1 C 0.8807(8) 0.4505(8) 0.4180(4)
H1 H 0.9629 0.5065 0.4083
H2 H 0.8592 0.4943 0.4502
H3 H 0.8935 0.3868 0.4364
C2 C 0.6447(6) 0.3138(5) 0.3605(3)
C3 C 0.5988(9) 0.3146(8) 0.4173(4)
H4 H 0.6553 0.3725 0.4569
C4 C 0.4670(10) 0.2280(10) 0.4146(5)
H5 H 0.4345 0.2277 0.4524
C5 C 0.3862(8) 0.1442(9) 0.3568(4)
H6 H 0.2986 0.0861 0.3557
C6 C 0.4298(6) 0.1420(6) 0.2990(3)
C7 C 0.5600(5) 0.2310(5) 0.2999(3)
C8 C 0.3387(7) 0.0444(7) 0.2405(4)
H7 H 0.2583 -0.0150 0.2468
C9 C 0.2502(11) -0.0876(9) 0.1366(6)
H8 H 0.2863 -0.1452 0.1386
H9 H 0.1704 -0.1209 0.1534
C10 C 0.2068(11) -0.0837(11) 0.0672(7)
H10 H 0.1716 -0.0255 0.0648
H11 H 0.1322 -0.1641 0.0437
C11 C 0.3149(8) -0.0484(7) 0.0305(4)
H12 H 0.3620 -0.0966 0.0387
H13 H 0.2736 -0.0649 -0.0178
C12 C 0.4342(7) 0.1494(7) 0.0097(3)
H14 H 0.3834 0.1083 -0.0345
C13 C 0.5262(7) 0.2771(7) 0.0190(3)
C14 C 0.5172(10) 0.3325(9) -0.0372(4)
H15 H 0.4533 0.2850 -0.0780
C15 C 0.6002(12) 0.4540(10) -0.0329(4)
H16 H 0.5922 0.4883 -0.0708
C16 C 0.6959(10) 0.5272(8) 0.0267(4)
H17 H 0.7534 0.6099 0.0289
C17 C 0.7056(7) 0.4769(6) 0.0828(3)
C18 C 0.6226(6) 0.3499(5) 0.0805(3)
C19 C 0.8855(9) 0.6674(6) 0.1496(4)
H18 H 0.9392 0.7049 0.1957
H19 H 0.9441 0.6703 0.1217
H20 H 0.8375 0.7112 0.1340
C20 C 0.4623(6) 0.4079(7) 0.1981(4)
H21 H 0.4604 0.3567 0.1598
H22 H 0.3993 0.3578 0.2211
H23 H 0.4370 0.4675 0.1830
C21 C 0.6151(6) 0.5487(6) 0.3025(3)
C22 C 0.5114(9) 0.5516(10) 0.3247(5)
H24 H 0.4212 0.4968 0.3016
C23 C 0.5426(11) 0.6384(13) 0.3829(6)
H25 H 0.4734 0.6434 0.3979
C24 C 0.6755(11) 0.7146(11) 0.4167(5)
H26 H 0.6962 0.7707 0.4557
C25 C 0.7820(8) 0.7116(7) 0.3948(4)
C26 C 0.7531(6) 0.6281(5) 0.3372(3)
C27 C 0.9171(9) 0.7912(8) 0.4375(4)
H27 H 0.9240 0.8422 0.4755
C28 C 1.1547(12) 0.8910(14) 0.4833(7)
H28 H 1.1330 0.9495 0.5051
H29 H 1.1714 0.8459 0.5170
C29 C 1.2691(17) 0.9545(18) 0.4706(10)
H30 H 1.3338 1.0116 0.5119
H31 H 1.2560 1.0029 0.4381
C30 C 1.3324(9) 0.8806(9) 0.4428(5)
H32 H 1.4197 0.9376 0.4372
H33 H 1.3492 0.8345 0.4760
C31 C 1.3116(6) 0.7813(6) 0.3359(4)
H34 H 1.4052 0.8335 0.3495
C32 C 1.2594(6) 0.6982(6) 0.2716(4)
C33 C 1.3519(7) 0.7085(8) 0.2336(5)
H35 H 1.4415 0.7714 0.2493
C34 C 1.3134(9) 0.6304(10) 0.1760(6)
H36 H 1.3763 0.6402 0.1518
C35 C 1.1806(9) 0.5336(8) 0.1507(5)
H37 H 1.1549 0.4798 0.1100
C36 C 1.0873(6) 0.5192(6) 0.1878(4)
C37 C 1.1233(5) 0.6026(5) 0.2470(3)
C38 C 0.9182(9) 0.3232(8) 0.1160(5)
H38 H 0.8236 0.2648 0.1076
H39 H 0.9339 0.3523 0.0755
H40 H 0.9730 0.2845 0.1298
C39 C 0.9889(5) 0.9240(4) 0.2751(3)
C40 C 0.7284(5) 0.8355(5) 0.2210(3)
C41 C 0.7126(5) 1.0307(5) 0.1834(3)
C42 C 0.8984(5) 1.2085(5) 0.2720(3)
C43 C 0.8868(6) 0.9697(6) 0.1503(3)
C44 C 1.0728(6) 1.1531(6) 0.2371(5)
C45 C 1.0100(8) 1.1038(8) 0.3530(4)
C46 C 0.7447(7) 0.9985(7) 0.3147(3)
Cu1 Cu 0.50612(6) 0.14892(6) 0.15314(3)
Cu2 Cu 1.04500(7) 0.71756(6) 0.34910(4)
Eu1 Eu 0.79655(2) 0.43161(2) 0.24160(2)
Mo1 Mo 0.88099(4) 1.02683(4) 0.25126(2)
N1 N 0.3539(5) 0.0298(5) 0.1837(3)
N2 N 0.4135(5) 0.0849(5) 0.0552(3)
N3 N 1.0277(7) 0.8006(6) 0.4298(3)
N4 N 1.2457(5) 0.7925(5) 0.3765(3)
N5 N 1.0450(5) 0.8687(4) 0.2888(3)
N6 N 0.6507(6) 0.7336(5) 0.2035(3)
N7 N 0.6237(6) 1.0374(5) 0.1496(3)
N8 N 0.9032(5) 1.3018(5) 0.2790(3)
N9 N 0.8907(8) 0.9386(9) 0.0974(4)
N10 N 1.1727(8) 1.2212(9) 0.2270(7)
N11 N 1.0840(9) 1.1426(10) 0.4059(4)
N12 N 0.6705(8) 0.9829(8) 0.3466(4)
O1 O 0.7718(4) 0.3970(4) 0.3573(2)
O2 O 0.6079(4) 0.2414(3) 0.24595(19)
O3 O 0.6406(4) 0.3074(3) 0.13619(18)
O4 O 0.7895(5) 0.5420(4) 0.1458(2)
O5 O 0.5982(4) 0.4703(4) 0.2439(2)
O6 O 0.8483(4) 0.6171(3) 0.3129(2)
O7 O 1.0279(4) 0.5889(3) 0.2780(2)
O8 O 0.9542(4) 0.4255(4) 0.1689(3)
Cu1_2 Cu 0.50612(6) 1.14892(6) 0.15314(3)
Eu1_2 Eu 0.79655(2) 1.43161(2) 0.24160(2)
N7_2 N 0.6237(6) 0.0374(5) 0.1496(3)
N8_2 N 0.9032(5) 0.3018(5) 0.2790(3)
O9 O 0.8669(19) 0.7943(15) -0.0435(8)
O10 O 0.7856(19) 0.528(2) 0.5840(10)
H41? H 0.2327 -0.1533 0.1616
H42? H 0.1662 -0.0832 0.1225
C47? C 0.282(3) -0.121(3) 0.0781(19)
H43? H 0.3577 -0.1368 0.0937
H44? H 0.2047 -0.1988 0.0536
H45? H 0.2310 -0.0554 0.0027
H46? H 0.3512 -0.0832 0.0013
H47? H 1.1868 0.9708 0.4708
H48? H 1.1314 0.8985 0.5254
C48? C 1.2592(18) 0.8633(16) 0.4946(7)
H49? H 1.2230 0.7781 0.4992
H50? H 1.3241 0.9137 0.5375
H51? H 1.4117 0.8695 0.4589
H52? H 1.3641 0.9641 0.4358
loop_
_geom_bond_atom_site_label_1
_geom_bond_atom_site_label_2
_geom_bond_site_symmetry_1
_geom_bond_site_symmetry_2
C1 H1 1_555 1_555
H2 C1 1_555 1_555
H3 C1 1_555 1_555
C2 C3 1_555 1_555
C3 H4 1_555 1_555
C4 C3 1_555 1_555
H5 C4 1_555 1_555
C5 C4 1_555 1_555
H6 C5 1_555 1_555
C6 C5 1_555 1_555
C7 C2 1_555 1_555
C8 C6 1_555 1_555
H7 C8 1_555 1_555
C9 H8 1_555 1_555
H9 C9 1_555 1_555
C10 C9 1_555 1_555
H10 C10 1_555 1_555
H11 C10 1_555 1_555
C11 C10 1_555 1_555
H12 C11 1_555 1_555
H13 C11 1_555 1_555
C12 H14 1_555 1_555
C13 C12 1_555 1_555
C14 C13 1_555 1_555
H15 C14 1_555 1_555
C15 C14 1_555 1_555
H16 C15 1_555 1_555
C16 C15 1_555 1_555
H17 C16 1_555 1_555
C17 C16 1_555 1_555
C18 C13 1_555 1_555
C19 H18 1_555 1_555
H19 C19 1_555 1_555
H20 C19 1_555 1_555
C20 H21 1_555 1_555
H22 C20 1_555 1_555
H23 C20 1_555 1_555
C21 C22 1_555 1_555
C22 H24 1_555 1_555
C23 C22 1_555 1_555
H25 C23 1_555 1_555
C24 C23 1_555 1_555
H26 C24 1_555 1_555
C25 C24 1_555 1_555
C26 C21 1_555 1_555
C27 C25 1_555 1_555
H27 C27 1_555 1_555
C28 H28 1_555 1_555
H29 C28 1_555 1_555
C29 C28 1_555 1_555
H30 C29 1_555 1_555
H31 C29 1_555 1_555
C30 C29 1_555 1_555
H32 C30 1_555 1_555
H33 C30 1_555 1_555
C31 H34 1_555 1_555
C32 C31 1_555 1_555
C33 C32 1_555 1_555
H35 C33 1_555 1_555
C34 C33 1_555 1_555
H36 C34 1_555 1_555
C35 C34 1_555 1_555
H37 C35 1_555 1_555
C36 C35 1_555 1_555
C37 C32 1_555 1_555
C38 H38 1_555 1_555
H39 C38 1_555 1_555
H40 C38 1_555 1_555
C39 Mo1 1_555 1_555
C40 Mo1 1_555 1_555
C41 Mo1 1_555 1_555
C42 Mo1 1_555 1_555
C43 Mo1 1_555 1_555
C44 Mo1 1_555 1_555
C45 Mo1 1_555 1_555
C46 Mo1 1_555 1_555
Cu1 N1 1_555 1_555
Cu2 N3 1_555 1_555
Eu1 O1 1_555 1_555
N1 C8 1_555 1_555
N2 C11 1_555 1_555
N3 C27 1_555 1_555
N4 C30 1_555 1_555
N5 C39 1_555 1_555
N6 C40 1_555 1_555
N7 C41 1_555 1_555
N8 C42 1_555 1_555
N9 C43 1_555 1_555
N10 C44 1_555 1_555
N11 C45 1_555 1_555
N12 C46 1_555 1_555
O1 C1 1_555 1_555
O2 C7 1_555 1_555
O3 C18 1_555 1_555
O4 C17 1_555 1_555
O5 C20 1_555 1_555
O6 C26 1_555 1_555
O7 C37 1_555 1_555
O8 C36 1_555 1_555
Cu1_2 N7 1_555 1_555
Eu1_2 N8 1_555 1_555
N7_2 Cu1 1_555 1_555
N8_2 Eu1 1_555 1_555
C2 O1 1_555 1_555
C6 C7 1_555 1_555
C9 N1 1_555 1_555
C12 N2 1_555 1_555
C17 C18 1_555 1_555
C19 O4 1_555 1_555
C21 O5 1_555 1_555
C25 C26 1_555 1_555
C28 N3 1_555 1_555
C31 N4 1_555 1_555
C36 C37 1_555 1_555
C38 O8 1_555 1_555
Cu1 N2 1_555 1_555
Cu1 O2 1_555 1_555
Cu1 O3 1_555 1_555
Cu2 N4 1_555 1_555
Cu2 N5 1_555 1_555
Cu2 O6 1_555 1_555
Cu2 O7 1_555 1_555
Eu1 O2 1_555 1_555
Eu1 O3 1_555 1_555
Eu1 O4 1_555 1_555
Eu1 O5 1_555 1_555
Eu1 O6 1_555 1_555
Eu1 O7 1_555 1_555
Eu1 O8 1_555 1_555

#END
