
#######################################################################
#
#                 Cambridge Crystallographic Data Centre
#                                CCDC 
#
#######################################################################
#
# If this CIF has been generated from an entry in the Cambridge 
# Structural Database, then it will include bibliographic, chemical, 
# crystal, experimental, refinement or atomic coordinate data resulting 
# from the CCDC's data processing and validation procedures.
#
#######################################################################

data_DUPYIY
_symmetry_cell_setting           triclinic
_symmetry_space_group_name_H-M   'P -1'
_symmetry_Int_Tables_number      2
_space_group_name_Hall           '-P 1'
loop_
_symmetry_equiv_pos_site_id
_symmetry_equiv_pos_as_xyz
1 x,y,z
2 -x,-y,-z
_cell_length_a                   11.4758(10)
_cell_length_b                   12.4508(11)
_cell_length_c                   20.8054(17)
_cell_angle_alpha                94.748(7)
_cell_angle_beta                 102.203(7)
_cell_angle_gamma                116.332(6)
_cell_volume                     2550.65
loop_
_atom_site_label
_atom_site_type_symbol
_atom_site_fract_x
_atom_site_fract_y
_atom_site_fract_z
C1 C 0.8693(8) 0.4453(8) 0.4201(3)
H1 H 0.9527 0.4999 0.4118
H2 H 0.8448 0.4903 0.4495
H3 H 0.8803 0.3830 0.4408
C2 C 0.6379(8) 0.3084(7) 0.3596(3)
C3 C 0.5881(9) 0.3061(8) 0.4153(3)
H4 H 0.6430 0.3622 0.4552
C4 C 0.4601(10) 0.2223(10) 0.4115(4)
H5 H 0.4289 0.2209 0.4494
C5 C 0.3753(9) 0.1395(9) 0.3537(4)
H6 H 0.2871 0.0838 0.3521
C6 C 0.4233(8) 0.1396(6) 0.2958(3)
C7 C 0.5530(7) 0.2268(6) 0.2978(3)
C8 C 0.3302(8) 0.0450(7) 0.2383(4)
H7 H 0.2487 -0.0121 0.2440
C9 C 0.2403(10) -0.0845(9) 0.1339(5)
H8 H 0.2693 -0.1465 0.1378
H9 H 0.1599 -0.1107 0.1496
C10 C 0.2038(16) -0.0807(17) 0.0652(10)
H10 H 0.1732 -0.0199 0.0610
H11 H 0.1281 -0.1594 0.0417
C11 C 0.3154(9) -0.0514(8) 0.0309(4)
H12 H 0.3613 -0.0993 0.0427
H13 H 0.2777 -0.0710 -0.0174
C12 C 0.4304(8) 0.1448(8) 0.0094(3)
H14 H 0.3790 0.1035 -0.0343
C13 C 0.5206(8) 0.2731(7) 0.0179(3)
C14 C 0.5104(10) 0.3267(9) -0.0392(3)
H15 H 0.4467 0.2783 -0.0794
C15 C 0.5905(11) 0.4453(10) -0.0364(4)
H16 H 0.5820 0.4783 -0.0746
C16 C 0.6868(9) 0.5199(8) 0.0233(3)
H17 H 0.7431 0.6022 0.0252
C17 C 0.6974(8) 0.4704(7) 0.0794(3)
C18 C 0.6164(7) 0.3466(7) 0.0787(3)
C19 C 0.8767(9) 0.6647(7) 0.1442(4)
H18 H 0.9324 0.7035 0.1894
H19 H 0.9330 0.6686 0.1153
H20 H 0.8257 0.7062 0.1293
C20 C 0.4656(7) 0.4170(7) 0.2037(3)
H21 H 0.4603 0.3633 0.1660
H22 H 0.4035 0.3705 0.2275
H23 H 0.4427 0.4775 0.1881
C21 C 0.6208(8) 0.5574(7) 0.3047(3)
C22 C 0.5195(8) 0.5638(9) 0.3262(4)
H24 H 0.4294 0.5115 0.3030
C23 C 0.5532(11) 0.6514(11) 0.3844(4)
H25 H 0.4849 0.6571 0.3993
C24 C 0.6858(10) 0.7273(9) 0.4187(4)
H26 H 0.7071 0.7866 0.4557
C25 C 0.7889(8) 0.7167(7) 0.3986(3)
C26 C 0.7578(7) 0.6304(6) 0.3397(3)
C27 C 0.9255(9) 0.7945(8) 0.4399(4)
H27 H 0.9345 0.8452 0.4781
C28 C 1.1579(11) 0.8857(14) 0.4854(6)
C29 C 1.3379(9) 0.8835(9) 0.4413(4)
H28 H 1.1865 0.9684 0.4778
H29 H 1.1338 0.8830 0.5274
C30 C 1.261(2) 0.866(2) 0.4929(8)
H30 H 1.2297 0.7818 0.4985
H31 H 1.3253 0.9173 0.5351
H32 H 1.3731 0.9674 0.4351
H33 H 1.4139 0.8682 0.4568
C31 C 1.3131(8) 0.7906(7) 0.3354(4)
H34 H 1.4055 0.8444 0.3482
C32 C 1.2607(7) 0.7073(7) 0.2710(4)
C33 C 1.3545(9) 0.7195(8) 0.2339(4)
H35 H 1.4426 0.7832 0.2494
C34 C 1.3178(9) 0.6399(9) 0.1763(5)
H36 H 1.3797 0.6501 0.1517
C35 C 1.1857(8) 0.5414(8) 0.1533(4)
H37 H 1.1601 0.4862 0.1136
C36 C 1.0949(7) 0.5269(7) 0.1894(3)
C37 C 1.1283(7) 0.6119(6) 0.2479(3)
C38 C 0.9270(9) 0.3299(7) 0.1188(4)
H38 H 0.8337 0.2711 0.1111
H39 H 0.9406 0.3588 0.0782
H40 H 0.9829 0.2923 0.1321
C39 C 0.9852(7) 0.9216(6) 0.2737(3)
C40 C 0.7285(8) 0.8364(7) 0.2203(3)
C41 C 0.7142(7) 1.0338(6) 0.1845(3)
C42 C 0.9033(7) 1.2084(7) 0.2747(3)
C43 C 0.8858(7) 0.9700(7) 0.1508(3)
C44 C 1.0717(8) 1.1512(7) 0.2381(4)
C45 C 1.0085(8) 1.0952(8) 0.3536(3)
C46 C 0.7458(8) 0.9993(7) 0.3139(4)
Cu1 Cu 0.50280(8) 0.14657(7) 0.15217(4)
Cu2 Cu 1.04905(8) 0.72133(7) 0.35028(4)
Ce1 Ce 0.79787(4) 0.43138(4) 0.24219(2)
Mo1 Mo 0.88113(6) 1.02636(5) 0.25156(3)
N1 N 0.3483(6) 0.0312(6) 0.1797(3)
N2 N 0.4128(6) 0.0820(5) 0.0539(3)
N3 N 1.0341(7) 0.8028(6) 0.4312(3)
N4 N 1.2483(6) 0.7988(5) 0.3763(3)
N5 N 1.0393(6) 0.8654(5) 0.2865(3)
N6 N 0.6480(6) 0.7356(6) 0.2037(3)
N7 N 0.6287(6) 1.0437(6) 0.1522(3)
N8 N 0.9129(6) 1.3029(6) 0.2841(3)
N9 N 0.8871(8) 0.9380(8) 0.0978(3)
N10 N 1.1674(9) 1.2158(8) 0.2270(5)
N11 N 1.0801(8) 1.1323(8) 0.4064(3)
N12 N 0.6717(8) 0.9873(7) 0.3459(3)
O1 O 0.7650(5) 0.3896(4) 0.35802(19)
O2 O 0.6018(4) 0.2373(4) 0.24500(19)
O3 O 0.6344(4) 0.3043(4) 0.13472(19)
O4 O 0.7853(5) 0.5388(4) 0.1421(2)
O5 O 0.6010(4) 0.4765(4) 0.2477(2)
O6 O 0.8529(4) 0.6198(4) 0.31699(19)
O7 O 1.0335(4) 0.5964(4) 0.2786(2)
O8 O 0.9627(5) 0.4320(5) 0.1714(2)
Cu1_2 Cu 0.50280(8) 1.14657(7) 0.15217(4)
Ce1_2 Ce 0.79787(4) 1.43138(4) 0.24219(2)
N7_2 N 0.6287(6) 0.0437(6) 0.1522(3)
N8_2 N 0.9129(6) 0.3029(6) 0.2841(3)
O9 O 0.8647(19) 0.7920(13) -0.0455(8)
O10 O 0.7842(13) 0.5178(19) 0.5816(5)
H41? H 0.2144 -0.1486 0.1597
H42? H 0.1616 -0.0738 0.1165
C47? C 0.277(3) -0.1230(18) 0.0795(11)
H43? H 0.2014 -0.2013 0.0554
H44? H 0.3516 -0.1386 0.0984
H45? H 0.2336 -0.0594 0.0010
H46? H 0.3541 -0.0874 0.0045
H47? H 1.1358 0.9393 0.5110
H48? H 1.1764 0.8356 0.5150
C48? C 1.2680(19) 0.9532(15) 0.4725(8)
H49? H 1.3318 1.0093 0.5138
H50? H 1.2508 1.0019 0.4415
H51? H 1.4218 0.9433 0.4345
H52? H 1.3596 0.8375 0.4728
loop_
_geom_bond_atom_site_label_1
_geom_bond_atom_site_label_2
_geom_bond_site_symmetry_1
_geom_bond_site_symmetry_2
C1 H1 1_555 1_555
H2 C1 1_555 1_555
H3 C1 1_555 1_555
C2 C3 1_555 1_555
C3 H4 1_555 1_555
C4 C3 1_555 1_555
H5 C4 1_555 1_555
C5 C4 1_555 1_555
H6 C5 1_555 1_555
C6 C5 1_555 1_555
C7 C2 1_555 1_555
C8 C6 1_555 1_555
H7 C8 1_555 1_555
C9 H8 1_555 1_555
H9 C9 1_555 1_555
C10 C9 1_555 1_555
H10 C10 1_555 1_555
H11 C10 1_555 1_555
C11 C10 1_555 1_555
H12 C11 1_555 1_555
H13 C11 1_555 1_555
C12 H14 1_555 1_555
C13 C12 1_555 1_555
C14 C13 1_555 1_555
H15 C14 1_555 1_555
C15 C14 1_555 1_555
H16 C15 1_555 1_555
C16 C15 1_555 1_555
H17 C16 1_555 1_555
C17 C16 1_555 1_555
C18 C13 1_555 1_555
C19 H18 1_555 1_555
H19 C19 1_555 1_555
H20 C19 1_555 1_555
C20 H21 1_555 1_555
H22 C20 1_555 1_555
H23 C20 1_555 1_555
C21 C22 1_555 1_555
C22 H24 1_555 1_555
C23 C22 1_555 1_555
H25 C23 1_555 1_555
C24 C23 1_555 1_555
H26 C24 1_555 1_555
C25 C24 1_555 1_555
C26 C21 1_555 1_555
C27 C25 1_555 1_555
H27 C27 1_555 1_555
C28 H28 1_555 1_555
C29 C30 1_555 1_555
H29 C28 1_555 1_555
C30 C28 1_555 1_555
H30 C30 1_555 1_555
H31 C30 1_555 1_555
H32 C29 1_555 1_555
H33 C29 1_555 1_555
C31 H34 1_555 1_555
C32 C31 1_555 1_555
C33 C32 1_555 1_555
H35 C33 1_555 1_555
C34 C33 1_555 1_555
H36 C34 1_555 1_555
C35 C34 1_555 1_555
H37 C35 1_555 1_555
C36 C35 1_555 1_555
C37 C32 1_555 1_555
C38 H38 1_555 1_555
H39 C38 1_555 1_555
H40 C38 1_555 1_555
C39 Mo1 1_555 1_555
C40 Mo1 1_555 1_555
C41 Mo1 1_555 1_555
C42 Mo1 1_555 1_555
C43 Mo1 1_555 1_555
C44 Mo1 1_555 1_555
C45 Mo1 1_555 1_555
C46 Mo1 1_555 1_555
Cu1 N1 1_555 1_555
Cu2 N3 1_555 1_555
Ce1 O1 1_555 1_555
N1 C8 1_555 1_555
N2 C11 1_555 1_555
N3 C27 1_555 1_555
N4 C29 1_555 1_555
N5 C39 1_555 1_555
N6 C40 1_555 1_555
N7 C41 1_555 1_555
N8 C42 1_555 1_555
N9 C43 1_555 1_555
N10 C44 1_555 1_555
N11 C45 1_555 1_555
N12 C46 1_555 1_555
O1 C1 1_555 1_555
O2 C7 1_555 1_555
O3 C18 1_555 1_555
O4 C17 1_555 1_555
O5 C20 1_555 1_555
O6 C26 1_555 1_555
O7 C37 1_555 1_555
O8 C36 1_555 1_555
Cu1_2 N7 1_555 1_555
Ce1_2 N8 1_555 1_555
N7_2 Cu1 1_555 1_555
N8_2 Ce1 1_555 1_555
C2 O1 1_555 1_555
C6 C7 1_555 1_555
C9 N1 1_555 1_555
C12 N2 1_555 1_555
C17 C18 1_555 1_555
C19 O4 1_555 1_555
C21 O5 1_555 1_555
C25 C26 1_555 1_555
C28 N3 1_555 1_555
C31 N4 1_555 1_555
C36 C37 1_555 1_555
C38 O8 1_555 1_555
Cu1 N2 1_555 1_555
Cu1 O2 1_555 1_555
Cu1 O3 1_555 1_555
Cu2 N4 1_555 1_555
Cu2 N5 1_555 1_555
Cu2 O6 1_555 1_555
Cu2 O7 1_555 1_555
Ce1 O2 1_555 1_555
Ce1 O3 1_555 1_555
Ce1 O4 1_555 1_555
Ce1 O5 1_555 1_555
Ce1 O6 1_555 1_555
Ce1 O7 1_555 1_555
Ce1 O8 1_555 1_555

#END
