
#######################################################################
#
#                 Cambridge Crystallographic Data Centre
#                                CCDC 
#
#######################################################################
#
# If this CIF has been generated from an entry in the Cambridge 
# Structural Database, then it will include bibliographic, chemical, 
# crystal, experimental, refinement or atomic coordinate data resulting 
# from the CCDC's data processing and validation procedures.
#
#######################################################################

data_DUPZAR
_symmetry_cell_setting           triclinic
_symmetry_space_group_name_H-M   'P -1'
_symmetry_Int_Tables_number      2
_space_group_name_Hall           '-P 1'
loop_
_symmetry_equiv_pos_site_id
_symmetry_equiv_pos_as_xyz
1 x,y,z
2 -x,-y,-z
_cell_length_a                   11.3617(11)
_cell_length_b                   12.4459(11)
_cell_length_c                   21.2819(17)
_cell_angle_alpha                105.814(7)
_cell_angle_beta                 92.659(7)
_cell_angle_gamma                116.095(7)
_cell_volume                     2551.76
loop_
_atom_site_label
_atom_site_type_symbol
_atom_site_fract_x
_atom_site_fract_y
_atom_site_fract_z
C1 C 0.5386(12) 0.4681(11) 0.9103(6)
H1 H 0.4491 0.4003 0.9012
H2 H 0.5931 0.4614 0.9433
H3 H 0.5380 0.5477 0.9264
C2 C 0.7203(9) 0.5502(8) 0.8534(5)
C3 C 0.8143(11) 0.6129(10) 0.9096(6)
H4 H 0.7945 0.5974 0.9492
C4 C 0.9428(12) 0.7023(13) 0.9072(7)
H5 H 1.0082 0.7474 0.9457
C5 C 0.9725(11) 0.7233(12) 0.8485(7)
H6 H 1.0582 0.7811 0.8471
C6 C 0.8736(9) 0.6578(8) 0.7905(5)
C7 C 0.7461(9) 0.5675(7) 0.7927(5)
C8 C 0.9090(10) 0.6884(9) 0.7306(7)
H7 H 0.9954 0.7519 0.7352
C9 C 0.9035(15) 0.7031(16) 0.6248(9)
H8 H 0.9696 0.7900 0.6483
H9 H 0.9481 0.6593 0.6001
C10 C 0.801(3) 0.700(3) 0.579(2)
H10 H 0.8437 0.7625 0.5575
H11 H 0.7421 0.7227 0.6046
C11 C 0.7196(13) 0.5709(13) 0.5268(7)
H12 H 0.6571 0.5767 0.4969
H13 H 0.7794 0.5506 0.5008
C12 C 0.5734(11) 0.3561(11) 0.5086(6)
H14 H 0.5763 0.3521 0.4645
C13 C 0.4919(10) 0.2403(10) 0.5195(5)
C14 C 0.4387(13) 0.1281(13) 0.4632(7)
H15 H 0.4581 0.1341 0.4219
C15 C 0.3599(15) 0.0117(13) 0.4685(7)
H16 H 0.3232 -0.0599 0.4308
C16 C 0.3345(12) 0.0002(10) 0.5302(7)
H17 H 0.2831 -0.0792 0.5341
C17 C 0.3864(9) 0.1080(9) 0.5861(5)
C18 C 0.4649(9) 0.2301(8) 0.5825(5)
C19 C 0.2894(12) -0.0154(8) 0.6560(6)
H18 H 0.2868 -0.0063 0.7021
H19 H 0.2007 -0.0490 0.6316
H20 H 0.3251 -0.0720 0.6384
C20 C 0.7482(10) 0.2858(10) 0.6970(6)
H21 H 0.7171 0.3029 0.6601
H22 H 0.8340 0.3551 0.7202
H23 H 0.7556 0.2095 0.6811
C21 C 0.6879(9) 0.2452(8) 0.7983(5)
C22 C 0.8120(11) 0.2508(11) 0.8158(6)
H24 H 0.8780 0.2748 0.7907
C23 C 0.8332(14) 0.2193(13) 0.8721(8)
H25 H 0.9144 0.2227 0.8851
C24 C 0.7334(13) 0.1832(11) 0.9080(7)
H26 H 0.7486 0.1617 0.9450
C25 C 0.6081(10) 0.1776(8) 0.8909(6)
C26 C 0.5897(9) 0.2096(7) 0.8343(5)
C27 C 0.5169(12) 0.1500(11) 0.9341(6)
H27 H 0.5450 0.1365 0.9716
C28 C 0.337(3) 0.139(3) 0.9893(13)
H28 H 0.3889 0.1285 1.0223
H29 H 0.3349 0.2184 1.0086
C29 C 0.198(2) 0.031(2) 0.9683(11)
H30 H 0.1668 0.0096 1.0071
H31 H 0.1988 -0.0425 0.9379
C30 C 0.1012(12) 0.0621(12) 0.9345(7)
H32 H 0.0111 -0.0061 0.9272
H33 H 0.1046 0.1385 0.9641
C31 C 0.0270(12) 0.0467(9) 0.8257(6)
H34 H -0.0551 0.0039 0.8370
C32 C 0.0225(9) 0.0657(9) 0.7621(6)
C33 C -0.1027(11) 0.0154(12) 0.7234(8)
H35 H -0.1782 -0.0321 0.7382
C34 C -0.1172(12) 0.0344(12) 0.6637(8)
H36 H -0.2010 -0.0063 0.6363
C35 C -0.0068(11) 0.1144(11) 0.6442(6)
H37 H -0.0179 0.1320 0.6053
C36 C 0.1198(9) 0.1684(8) 0.6817(5)
C37 C 0.1374(8) 0.1453(8) 0.7416(5)
C38 C 0.2225(12) 0.3098(12) 0.6196(6)
H38 H 0.3095 0.3648 0.6139
H39 H 0.1721 0.2456 0.5778
H40 H 0.1770 0.3582 0.6355
C39 C 0.3023(9) -0.1453(8) 0.7783(5)
C40 C 0.5097(9) -0.1120(9) 0.7242(5)
C41 C 0.4916(10) -0.3430(8) 0.6845(5)
C42 C 0.3882(9) -0.4376(9) 0.7715(5)
C43 C 0.2769(10) -0.3190(9) 0.6569(6)
C44 C 0.1838(10) -0.4056(9) 0.7474(6)
C45 C 0.3706(10) -0.2326(11) 0.8581(7)
C46 C 0.5871(10) -0.1873(9) 0.8134(6)
Cu1 Cu 0.65651(11) 0.49868(10) 0.64909(6)
Cu2 Cu 0.30841(11) 0.13839(10) 0.84607(6)
Ho1 Ho 0.45766(4) 0.31085(4) 0.73988(2)
Mo1 Mo 0.38834(7) -0.27159(6) 0.75505(4)
N1 N 0.8376(8) 0.6399(8) 0.6730(5)
N2 N 0.6428(9) 0.4642(9) 0.5520(5)
N3 N 0.3995(10) 0.1412(9) 0.9280(5)
N4 N 0.1301(8) 0.0814(7) 0.8685(5)
N5 N 0.2574(8) -0.0780(7) 0.7912(4)
N6 N 0.5691(7) -0.0329(7) 0.7037(4)
N7 N 0.5405(9) -0.3858(8) 0.6490(5)
N8 N 0.3904(8) -0.5255(7) 0.7758(4)
N9 N 0.2191(10) -0.3432(11) 0.6047(5)
N10 N 0.0760(9) -0.4788(9) 0.7424(6)
N11 N 0.3564(12) -0.2110(13) 0.9129(6)
N12 N 0.6930(10) -0.1432(10) 0.8439(6)
O1 O 0.5912(6) 0.4604(5) 0.8509(3)
O2 O 0.6471(5) 0.4983(5) 0.7401(3)
O3 O 0.5077(6) 0.3272(5) 0.6369(3)
O4 O 0.3732(6) 0.1066(5) 0.6496(3)
O5 O 0.6541(6) 0.2706(5) 0.7420(3)
O6 O 0.4710(5) 0.2018(5) 0.8123(3)
O7 O 0.2615(5) 0.1928(5) 0.7736(3)
O8 O 0.2361(6) 0.2507(6) 0.6677(4)
Cu1_2 Cu 0.65651(11) -0.50132(10) 0.64909(6)
Ho1_2 Ho 0.45766(4) -0.68915(4) 0.73988(2)
N7_2 N 0.5405(9) 0.6142(8) 0.6490(5)
N8_2 N 0.3904(8) 0.4745(7) 0.7758(4)
O9 O 1.083(3) 0.648(3) 0.447(2)
N13 N 0.219(3) 0.385(2) 0.9274(12)
C50 C 0.169(4) 0.442(3) 0.9211(17)
C51 C 0.109(2) 0.529(2) 0.9172(15)
H53 H 0.0139 0.4805 0.9054
H54 H 0.1427 0.5677 0.8841
H55 H 0.1343 0.5934 0.9597
H41? H 0.8869 0.7747 0.6295
H42? H 0.9991 0.7365 0.6377
C47? C 0.866(2) 0.629(2) 0.5562(12)
H43? H 0.8898 0.5622 0.5503
H44? H 0.9168 0.6827 0.5313
H45? H 0.6889 0.6338 0.5393
H46? H 0.7059 0.5399 0.4786
C48? C 0.315(6) 0.068(5) 0.968(2)
H47? H 0.2583 -0.0196 0.9413
H48? H 0.3688 0.0723 1.0061
C49? C 0.240(6) 0.132(5) 0.9873(19)
H49? H 0.2899 0.2192 0.9889
H50? H 0.2221 0.1313 1.0314
H51? H 0.0565 -0.0276 0.9287
H52? H 0.0429 0.0971 0.9508
O10? O 0.199(9) 0.468(7) 0.920(5)
loop_
_geom_bond_atom_site_label_1
_geom_bond_atom_site_label_2
_geom_bond_site_symmetry_1
_geom_bond_site_symmetry_2
C1 H1 1_555 1_555
H2 C1 1_555 1_555
H3 C1 1_555 1_555
C2 C3 1_555 1_555
C3 H4 1_555 1_555
C4 C3 1_555 1_555
H5 C4 1_555 1_555
C5 C4 1_555 1_555
H6 C5 1_555 1_555
C6 C5 1_555 1_555
C7 C2 1_555 1_555
C8 C6 1_555 1_555
H7 C8 1_555 1_555
C9 H8 1_555 1_555
H9 C9 1_555 1_555
C10 C9 1_555 1_555
H10 C10 1_555 1_555
H11 C10 1_555 1_555
C11 C10 1_555 1_555
H12 C11 1_555 1_555
H13 C11 1_555 1_555
C12 H14 1_555 1_555
C13 C12 1_555 1_555
C14 C13 1_555 1_555
H15 C14 1_555 1_555
C15 C14 1_555 1_555
H16 C15 1_555 1_555
C16 C15 1_555 1_555
H17 C16 1_555 1_555
C17 C16 1_555 1_555
C18 C13 1_555 1_555
C19 H18 1_555 1_555
H19 C19 1_555 1_555
H20 C19 1_555 1_555
C20 H21 1_555 1_555
H22 C20 1_555 1_555
H23 C20 1_555 1_555
C21 C22 1_555 1_555
C22 H24 1_555 1_555
C23 C22 1_555 1_555
H25 C23 1_555 1_555
C24 C23 1_555 1_555
H26 C24 1_555 1_555
C25 C24 1_555 1_555
C26 C21 1_555 1_555
C27 C25 1_555 1_555
H27 C27 1_555 1_555
C28 H28 1_555 1_555
H29 C28 1_555 1_555
C29 C28 1_555 1_555
H30 C29 1_555 1_555
H31 C29 1_555 1_555
C30 C29 1_555 1_555
H32 C30 1_555 1_555
H33 C30 1_555 1_555
C31 H34 1_555 1_555
C32 C31 1_555 1_555
C33 C32 1_555 1_555
H35 C33 1_555 1_555
C34 C33 1_555 1_555
H36 C34 1_555 1_555
C35 C34 1_555 1_555
H37 C35 1_555 1_555
C36 C35 1_555 1_555
C37 C32 1_555 1_555
C38 H38 1_555 1_555
H39 C38 1_555 1_555
H40 C38 1_555 1_555
C39 Mo1 1_555 1_555
C40 Mo1 1_555 1_555
C41 Mo1 1_555 1_555
C42 Mo1 1_555 1_555
C43 Mo1 1_555 1_555
C44 Mo1 1_555 1_555
C45 Mo1 1_555 1_555
C46 Mo1 1_555 1_555
Cu1 N1 1_555 1_555
Cu2 N3 1_555 1_555
Ho1 O1 1_555 1_555
N1 C8 1_555 1_555
N2 C11 1_555 1_555
N3 C27 1_555 1_555
N4 C30 1_555 1_555
N5 C39 1_555 1_555
N6 C40 1_555 1_555
N7 C41 1_555 1_555
N8 C42 1_555 1_555
N9 C43 1_555 1_555
N10 C44 1_555 1_555
N11 C45 1_555 1_555
N12 C46 1_555 1_555
O1 C1 1_555 1_555
O2 C7 1_555 1_555
O3 C18 1_555 1_555
O4 C17 1_555 1_555
O5 C20 1_555 1_555
O6 C26 1_555 1_555
O7 C37 1_555 1_555
O8 C36 1_555 1_555
N13 C50 1_555 1_555
C50 C51 1_555 1_555
C51 H53 1_555 1_555
H54 C51 1_555 1_555
H55 C51 1_555 1_555
Cu1_2 N7 1_555 1_555
Ho1_2 N8 1_555 1_555
N7_2 Cu1 1_555 1_555
N8_2 Ho1 1_555 1_555
C2 O1 1_555 1_555
C6 C7 1_555 1_555
C9 N1 1_555 1_555
C12 N2 1_555 1_555
C17 C18 1_555 1_555
C19 O4 1_555 1_555
C21 O5 1_555 1_555
C25 C26 1_555 1_555
C28 N3 1_555 1_555
C31 N4 1_555 1_555
C36 C37 1_555 1_555
C38 O8 1_555 1_555
Cu1 N2 1_555 1_555
Cu1 O2 1_555 1_555
Cu1 O3 1_555 1_555
Cu2 N4 1_555 1_555
Cu2 N5 1_555 1_555
Cu2 O6 1_555 1_555
Cu2 O7 1_555 1_555
Ho1 O2 1_555 1_555
Ho1 O3 1_555 1_555
Ho1 O4 1_555 1_555
Ho1 O5 1_555 1_555
Ho1 O6 1_555 1_555
Ho1 O7 1_555 1_555
Ho1 O8 1_555 1_555

#END
