
#######################################################################
#
#                 Cambridge Crystallographic Data Centre
#                                CCDC 
#
#######################################################################
#
# If this CIF has been generated from an entry in the Cambridge 
# Structural Database, then it will include bibliographic, chemical, 
# crystal, experimental, refinement or atomic coordinate data resulting 
# from the CCDC's data processing and validation procedures.
#
#######################################################################

data_DUPZIZ
_symmetry_cell_setting           monoclinic
_symmetry_space_group_name_H-M   'P 21'
_symmetry_Int_Tables_number      4
_space_group_name_Hall           'P 2yb'
loop_
_symmetry_equiv_pos_site_id
_symmetry_equiv_pos_as_xyz
1 x,y,z
2 -x,1/2+y,-z
_cell_length_a                   9.2526(5)
_cell_length_b                   20.3849(11)
_cell_length_c                   10.4325(5)
_cell_angle_alpha                90
_cell_angle_beta                 96.692(4)
_cell_angle_gamma                90
_cell_volume                     1954.3
loop_
_atom_site_label
_atom_site_type_symbol
_atom_site_fract_x
_atom_site_fract_y
_atom_site_fract_z
C1 C 0.311(2) 0.6496(12) 0.160(2)
H1 H 0.3449 0.6184 0.2279
H2 H 0.2308 0.6757 0.1865
H3 H 0.2767 0.6256 0.0804
C2 C 0.393(2) 0.7385(9) 0.0409(17)
C3 C 0.263(2) 0.7414(10) -0.0463(19)
H4 H 0.1880 0.7098 -0.0427
C4 C 0.248(2) 0.7914(14) -0.136(2)
H5 H 0.1591 0.7946 -0.1914
C5 C 0.357(3) 0.8376(13) -0.150(2)
H6 H 0.3447 0.8694 -0.2171
C6 C 0.485(2) 0.8364(10) -0.0645(16)
C7 C 0.5043(19) 0.7862(8) 0.0298(13)
C8 C 0.595(3) 0.8844(10) -0.0832(17)
H7 H 0.5700 0.9178 -0.1453
C9 C 0.824(4) 0.9388(19) -0.048(3)
H8 H 0.8173 0.9710 0.0236
C10 C 0.979(3) 0.9103(18) -0.023(5)
H9 H 1.0016 0.8860 -0.1000
H10 H 1.0498 0.9468 -0.0074
C11 C 1.115(3) 0.8547(13) 0.157(3)
H11 H 1.2007 0.8747 0.1326
C12 C 1.131(2) 0.8126(13) 0.270(2)
C13 C 1.261(2) 0.8140(15) 0.349(3)
H12 H 1.3380 0.8408 0.3266
C14 C 1.281(3) 0.778(2) 0.458(3)
H13 H 1.3701 0.7817 0.5127
C15 C 1.173(2) 0.7372(13) 0.491(3)
H14 H 1.1896 0.7111 0.5671
C16 C 1.0395(17) 0.7338(10) 0.413(2)
C17 C 1.0143(17) 0.7712(9) 0.2970(19)
C18 C 0.923(2) 0.6727(15) 0.5657(18)
H15 H 0.8355 0.6460 0.5701
H16 H 1.0096 0.6461 0.5910
H17 H 0.9215 0.7102 0.6243
C19 C 0.5208(17) 0.5968(9) 0.5006(13)
C20 C 0.2481(17) 0.5583(8) 0.4997(15)
C21 C 0.248(2) 0.5743(11) 0.7444(15)
C22 C 0.656(2) 0.5148(10) 0.6807(17)
C23 C 0.4541(17) 0.4689(10) 0.4962(16)
C24 C 0.4962(19) 0.6344(8) 0.7193(14)
C25 C 0.3229(18) 0.4512(8) 0.6895(14)
C26 C 0.483(2) 0.5229(8) 0.8495(16)
Cu1 Cu 0.8006(3) 0.83013(11) 0.1106(2)
La1 La 0.70407(8) 0.68108(4) 0.24120(7)
N1 N 0.723(3) 0.8855(11) -0.0231(16)
N2 N 0.995(2) 0.8669(10) 0.0874(19)
N3 N 0.5821(17) 0.6264(8) 0.4283(12)
N4 N 0.1539(15) 0.5707(9) 0.4185(15)
N5 N 0.156(2) 0.5925(11) 0.7980(17)
N6 N 0.776(2) 0.5003(13) 0.711(2)
N7 N 0.467(2) 0.4291(9) 0.4152(14)
N8 N 0.5376(18) 0.6839(9) 0.7626(14)
N9 N 0.2675(18) 0.4022(9) 0.7164(15)
N10 N 0.512(2) 0.5148(11) 0.9575(16)
O1 O 0.4285(11) 0.6923(6) 0.1357(11)
O2 O 0.6236(13) 0.7801(6) 0.1152(10)
O3 O 0.7322(15) 0.6669(9) 0.0023(11)
O4 O 0.8881(13) 0.7647(6) 0.2251(12)
O5 O 0.9335(14) 0.6141(7) 0.2156(13)
O6 O 0.9255(13) 0.6962(7) 0.4347(11)
O7 O 0.6193(17) 0.5648(7) 0.1889(12)
O8 O 0.6382(14) 0.7717(6) 0.3881(11)
W1 W 0.42793(6) 0.53963(2) 0.64528(4)
C27 C 0.800(5) 0.9768(18) -0.164(5)
H18 H 0.8770 1.0098 -0.1643
H19 H 0.8014 0.9479 -0.2388
H20 H 0.7053 0.9987 -0.1681
Cu1A Cu 0.1994(3) 0.33013(11) 0.8894(2)
N9A N 0.7325(18) 0.9022(9) 0.2836(15)
C28 C 0.884(3) 0.4507(13) 0.404(3)
C29 C 0.989(3) 0.4205(15) 0.499(3)
H21 H 0.9840 0.4410 0.5829
H22 H 1.0873 0.4266 0.4734
H23 H 0.9685 0.3736 0.5040
N11 N 0.801(3) 0.4724(13) 0.331(3)
O9 O 0.6630(18) 0.7992(7) 0.6462(12)
O10 O 0.9136(17) 0.5755(11) -0.0641(16)
loop_
_geom_bond_atom_site_label_1
_geom_bond_atom_site_label_2
_geom_bond_site_symmetry_1
_geom_bond_site_symmetry_2
C1 H1 1_555 1_555
H2 C1 1_555 1_555
H3 C1 1_555 1_555
C2 C3 1_555 1_555
C3 H4 1_555 1_555
C4 C3 1_555 1_555
H5 C4 1_555 1_555
C5 C4 1_555 1_555
H6 C5 1_555 1_555
C6 C5 1_555 1_555
C7 C2 1_555 1_555
C8 C6 1_555 1_555
H7 C8 1_555 1_555
C9 H8 1_555 1_555
C10 C9 1_555 1_555
H9 C10 1_555 1_555
H10 C10 1_555 1_555
C11 H11 1_555 1_555
C12 C11 1_555 1_555
C13 C12 1_555 1_555
H12 C13 1_555 1_555
C14 C13 1_555 1_555
H13 C14 1_555 1_555
C15 C14 1_555 1_555
H14 C15 1_555 1_555
C16 C15 1_555 1_555
C17 C12 1_555 1_555
C18 H15 1_555 1_555
H16 C18 1_555 1_555
H17 C18 1_555 1_555
C19 N3 1_555 1_555
C20 N4 1_555 1_555
C21 N5 1_555 1_555
C22 N6 1_555 1_555
C23 N7 1_555 1_555
C24 N8 1_555 1_555
C25 N9 1_555 1_555
C26 N10 1_555 1_555
Cu1 N1 1_555 1_555
La1 N3 1_555 1_555
N1 C8 1_555 1_555
N2 C10 1_555 1_555
N9 Cu1A 1_555 1_555
O1 C1 1_555 1_555
O2 C7 1_555 1_555
O3 La1 1_555 1_555
O4 C17 1_555 1_555
O5 La1 1_555 1_555
O6 C16 1_555 1_555
O7 La1 1_555 1_555
O8 La1 1_555 1_555
W1 C19 1_555 1_555
C27 C9 1_555 1_555
H18 C27 1_555 1_555
H19 C27 1_555 1_555
H20 C27 1_555 1_555
C28 C29 1_555 1_555
C29 H21 1_555 1_555
H22 C29 1_555 1_555
H23 C29 1_555 1_555
N11 C28 1_555 1_555
N9A Cu1 1_555 1_555
C2 O1 1_555 1_555
C6 C7 1_555 1_555
C9 N1 1_555 1_555
C11 N2 1_555 1_555
C16 C17 1_555 1_555
C18 O6 1_555 1_555
C20 W1 1_555 1_555
C21 W1 1_555 1_555
C22 W1 1_555 1_555
C23 W1 1_555 1_555
C24 W1 1_555 1_555
C25 W1 1_555 1_555
C26 W1 1_555 1_555
Cu1 N2 1_555 1_555
Cu1 O2 1_555 1_555
Cu1 O4 1_555 1_555
La1 O1 1_555 1_555
La1 O2 1_555 1_555
La1 O4 1_555 1_555
La1 O6 1_555 1_555

#END
