
#######################################################################
#
#                 Cambridge Crystallographic Data Centre
#                                CCDC 
#
#######################################################################
#
# If this CIF has been generated from an entry in the Cambridge 
# Structural Database, then it will include bibliographic, chemical, 
# crystal, experimental, refinement or atomic coordinate data resulting 
# from the CCDC's data processing and validation procedures.
#
#######################################################################

data_DUPZOF
_symmetry_cell_setting           monoclinic
_symmetry_space_group_name_H-M   'P 21'
_symmetry_Int_Tables_number      4
_space_group_name_Hall           'P 2yb'
loop_
_symmetry_equiv_pos_site_id
_symmetry_equiv_pos_as_xyz
1 x,y,z
2 -x,1/2+y,-z
_cell_length_a                   9.1369(3)
_cell_length_b                   20.3271(9)
_cell_length_c                   10.3756(3)
_cell_angle_alpha                90
_cell_angle_beta                 96.597(3)
_cell_angle_gamma                90
_cell_volume                     1914.27
loop_
_atom_site_label
_atom_site_type_symbol
_atom_site_fract_x
_atom_site_fract_y
_atom_site_fract_z
C1 C 0.3135(14) 0.6449(7) 0.1768(14)
H1 H 0.3525 0.6145 0.2427
H2 H 0.2362 0.6703 0.2079
H3 H 0.2748 0.6211 0.1005
C2 C 0.3922(13) 0.7366(5) 0.0501(10)
C3 C 0.2608(15) 0.7380(7) -0.0306(13)
H4 H 0.1883 0.7067 -0.0219
C4 C 0.2385(19) 0.7864(8) -0.1242(15)
H5 H 0.1510 0.7873 -0.1797
C5 C 0.344(2) 0.8327(7) -0.1360(13)
H6 H 0.3263 0.8655 -0.1983
C6 C 0.4809(15) 0.8318(5) -0.0541(10)
C7 C 0.5012(12) 0.7822(5) 0.0402(9)
C8 C 0.592(2) 0.8798(6) -0.0767(11)
H7 H 0.5651 0.9110 -0.1406
C9 C 0.830(3) 0.9329(11) -0.0475(18)
H8 H 0.8143 0.9638 0.0220
C10 C 0.978(2) 0.9156(10) -0.002(3)
H9 H 1.0312 0.9549 0.0294
H10 H 1.0257 0.8982 -0.0736
C11 C 1.1067(16) 0.8548(6) 0.1707(16)
H11 H 1.1913 0.8755 0.1491
C12 C 1.1244(13) 0.8118(6) 0.2797(13)
C13 C 1.2558(16) 0.8132(9) 0.3647(19)
H12 H 1.3328 0.8396 0.3437
C14 C 1.2749(17) 0.7778(10) 0.4756(19)
H13 H 1.3626 0.7802 0.5307
C15 C 1.1611(15) 0.7379(8) 0.5052(15)
H14 H 1.1723 0.7139 0.5820
C16 C 1.0334(12) 0.7327(6) 0.4252(12)
C17 C 1.0125(11) 0.7691(5) 0.3097(11)
C18 C 0.9136(14) 0.6694(7) 0.5757(11)
H15 H 0.8262 0.6437 0.5807
H16 H 0.9989 0.6422 0.5969
H17 H 0.9157 0.7053 0.6360
C19 C 0.5358(11) 0.5958(4) 0.4990(8)
C20 C 0.2546(11) 0.5609(5) 0.5045(9)
C21 C 0.2628(13) 0.5729(6) 0.7488(10)
C22 C 0.6675(13) 0.5118(5) 0.6731(10)
C23 C 0.4615(13) 0.4713(5) 0.4874(10)
C24 C 0.5131(13) 0.6339(4) 0.7231(9)
C25 C 0.3363(12) 0.4484(5) 0.6885(9)
C26 C 0.5057(14) 0.5214(5) 0.8475(9)
Cu1 Cu 0.79877(16) 0.82700(6) 0.11780(13)
Gd1 Gd 0.70231(4) 0.68166(2) 0.24466(4)
N1 N 0.7192(17) 0.8836(5) -0.0193(10)
N2 N 0.9879(14) 0.8677(5) 0.1002(12)
N3 N 0.5898(11) 0.6264(4) 0.4252(8)
N4 N 0.1573(11) 0.5726(5) 0.4267(10)
N5 N 0.1683(13) 0.5888(6) 0.8052(11)
N6 N 0.7923(14) 0.4990(6) 0.6935(12)
N7 N 0.4696(14) 0.4331(6) 0.4086(11)
N8 N 0.5567(12) 0.6831(5) 0.7675(9)
N9 N 0.2849(13) 0.3991(5) 0.7132(9)
N10 N 0.5388(16) 0.5130(6) 0.9553(10)
O1 O 0.4299(7) 0.6887(4) 0.1452(6)
O2 O 0.6238(8) 0.7757(3) 0.1210(6)
O3 O 0.7372(9) 0.6654(4) 0.0201(7)
O4 O 0.8847(8) 0.7606(3) 0.2340(7)
O5 O 0.9215(10) 0.6120(4) 0.2377(9)
O6 O 0.9136(8) 0.6946(4) 0.4468(7)
O7 O 0.6209(9) 0.5687(3) 0.1906(7)
O8 O 0.6271(9) 0.7667(3) 0.3851(7)
W1 W 0.44145(4) 0.53959(2) 0.64507(3)
C27 C 0.802(3) 0.9773(11) -0.152(2)
H18 H 0.6979 0.9839 -0.1715
H19 H 0.8491 1.0186 -0.1298
H20 H 0.8406 0.9595 -0.2275
Cu1A Cu 0.20123(16) 0.32700(6) 0.88220(13)
N9A N 0.7151(13) 0.8991(5) 0.2868(9)
C28 C 0.8994(18) 0.4469(7) 0.3865(16)
C29 C 1.005(2) 0.4169(9) 0.4838(19)
H21 H 1.0046 0.4400 0.5645
H22 H 1.1016 0.4192 0.4562
H23 H 0.9788 0.3717 0.4953
N11 N 0.821(2) 0.4697(7) 0.3133(19)
O9 O 0.6641(12) 0.8009(4) 0.6420(9)
O10 O 0.9148(12) 0.5753(6) -0.0675(12)
loop_
_geom_bond_atom_site_label_1
_geom_bond_atom_site_label_2
_geom_bond_site_symmetry_1
_geom_bond_site_symmetry_2
C1 H1 1_555 1_555
H2 C1 1_555 1_555
H3 C1 1_555 1_555
C2 C3 1_555 1_555
C3 H4 1_555 1_555
C4 C3 1_555 1_555
H5 C4 1_555 1_555
C5 C4 1_555 1_555
H6 C5 1_555 1_555
C6 C5 1_555 1_555
C7 C2 1_555 1_555
C8 C6 1_555 1_555
H7 C8 1_555 1_555
C9 H8 1_555 1_555
C10 C9 1_555 1_555
H9 C10 1_555 1_555
H10 C10 1_555 1_555
C11 H11 1_555 1_555
C12 C11 1_555 1_555
C13 C12 1_555 1_555
H12 C13 1_555 1_555
C14 C13 1_555 1_555
H13 C14 1_555 1_555
C15 C14 1_555 1_555
H14 C15 1_555 1_555
C16 C15 1_555 1_555
C17 C12 1_555 1_555
C18 H15 1_555 1_555
H16 C18 1_555 1_555
H17 C18 1_555 1_555
C19 N3 1_555 1_555
C20 N4 1_555 1_555
C21 N5 1_555 1_555
C22 N6 1_555 1_555
C23 N7 1_555 1_555
C24 N8 1_555 1_555
C25 N9 1_555 1_555
C26 N10 1_555 1_555
Cu1 N1 1_555 1_555
Gd1 N3 1_555 1_555
N1 C8 1_555 1_555
N2 C10 1_555 1_555
N9 Cu1A 1_555 1_555
O1 C1 1_555 1_555
O2 C7 1_555 1_555
O3 Gd1 1_555 1_555
O4 C17 1_555 1_555
O5 Gd1 1_555 1_555
O6 C16 1_555 1_555
O7 Gd1 1_555 1_555
O8 Gd1 1_555 1_555
W1 C19 1_555 1_555
C27 C9 1_555 1_555
H18 C27 1_555 1_555
H19 C27 1_555 1_555
H20 C27 1_555 1_555
C28 C29 1_555 1_555
C29 H21 1_555 1_555
H22 C29 1_555 1_555
H23 C29 1_555 1_555
N11 C28 1_555 1_555
N9A Cu1 1_555 1_555
C2 O1 1_555 1_555
C6 C7 1_555 1_555
C9 N1 1_555 1_555
C11 N2 1_555 1_555
C16 C17 1_555 1_555
C18 O6 1_555 1_555
C20 W1 1_555 1_555
C21 W1 1_555 1_555
C22 W1 1_555 1_555
C23 W1 1_555 1_555
C24 W1 1_555 1_555
C25 W1 1_555 1_555
C26 W1 1_555 1_555
Cu1 N2 1_555 1_555
Cu1 O2 1_555 1_555
Cu1 O4 1_555 1_555
Gd1 O1 1_555 1_555
Gd1 O2 1_555 1_555
Gd1 O4 1_555 1_555
Gd1 O6 1_555 1_555

#END
