
#######################################################################
#
#                 Cambridge Crystallographic Data Centre
#                                CCDC 
#
#######################################################################
#
# If this CIF has been generated from an entry in the Cambridge 
# Structural Database, then it will include bibliographic, chemical, 
# crystal, experimental, refinement or atomic coordinate data resulting 
# from the CCDC's data processing and validation procedures.
#
#######################################################################

data_DUPZUL
_symmetry_cell_setting           monoclinic
_symmetry_space_group_name_H-M   'P 21'
_symmetry_Int_Tables_number      4
_space_group_name_Hall           'P 2yb'
loop_
_symmetry_equiv_pos_site_id
_symmetry_equiv_pos_as_xyz
1 x,y,z
2 -x,1/2+y,-z
_cell_length_a                   9.1488(18)
_cell_length_b                   20.356(4)
_cell_length_c                   10.386(2)
_cell_angle_alpha                90
_cell_angle_beta                 96.69(3)
_cell_angle_gamma                90
_cell_volume                     1921.05
loop_
_atom_site_label
_atom_site_type_symbol
_atom_site_fract_x
_atom_site_fract_y
_atom_site_fract_z
C1 C 0.687(2) 0.3535(10) 0.821(2)
H1 H 0.6497 0.3843 0.7551
H2 H 0.7283 0.3769 0.8968
H3 H 0.7625 0.3271 0.7890
C2 C 0.6108(19) 0.2648(9) 0.9474(15)
C3 C 0.7378(19) 0.2621(11) 1.0279(18)
H4 H 0.8110 0.2933 1.0228
C4 C 0.757(3) 0.2100(13) 1.122(2)
H5 H 0.8456 0.2068 1.1758
C5 C 0.655(3) 0.1677(13) 1.133(2)
H6 H 0.6712 0.1353 1.1964
C6 C 0.523(2) 0.1689(10) 1.0545(16)
C7 C 0.5008(18) 0.2178(8) 0.9599(13)
C8 C 0.414(3) 0.1209(9) 1.0784(18)
H7 H 0.4401 0.0906 1.1440
C9 C 0.166(4) 0.0711(18) 1.050(3)
H8 H 0.1756 0.0401 0.9792
C10 C 0.023(3) 0.0873(16) 1.011(4)
H9 H -0.0199 0.1074 1.0830
H10 H -0.0327 0.0479 0.9857
C11 C -0.106(3) 0.1438(10) 0.828(2)
H11 H -0.1885 0.1205 0.8464
C12 C -0.125(2) 0.1881(9) 0.719(2)
C13 C -0.256(2) 0.1884(14) 0.629(3)
H12 H -0.3345 0.1631 0.6497
C14 C -0.274(2) 0.2206(15) 0.522(2)
H13 H -0.3599 0.2156 0.4657
C15 C -0.165(2) 0.2623(11) 0.490(2)
H14 H -0.1797 0.2870 0.4141
C16 C -0.0321(18) 0.2676(9) 0.5724(18)
C17 C -0.0104(17) 0.2309(9) 0.6882(17)
C18 C 0.087(2) 0.3315(12) 0.4243(16)
H15 H 0.1761 0.3563 0.4211
H16 H 0.0831 0.2966 0.3617
H17 H 0.0037 0.3598 0.4049
C19 C 0.4616(18) 0.4036(8) 0.5027(16)
C20 C 0.7440(18) 0.4391(8) 0.4937(14)
C21 C 0.737(2) 0.4268(8) 0.2494(15)
C22 C 0.327(2) 0.4855(10) 0.3289(16)
C23 C 0.536(2) 0.5283(9) 0.5107(17)
C24 C 0.483(2) 0.3683(10) 0.2748(15)
C25 C 0.6636(19) 0.5512(9) 0.3106(15)
C26 C 0.4928(19) 0.4795(8) 0.1514(16)
Cu1 Cu 0.2017(3) 0.17346(12) 0.8817(2)
Tb1 Tb 0.29786(7) 0.31832(4) 0.75473(6)
N1 N 0.283(2) 0.1161(8) 1.0175(16)
N2 N 0.0146(19) 0.1336(8) 0.9012(16)
N3 N 0.4077(16) 0.3728(8) 0.5750(13)
N4 N 0.8431(15) 0.4261(8) 0.5720(15)
N5 N 0.8284(19) 0.4102(9) 0.1933(17)
N6 N 0.205(2) 0.4995(12) 0.3040(19)
N7 N 0.5296(18) 0.5663(8) 0.5908(15)
N8 N 0.4424(16) 0.3177(9) 0.2315(12)
N9 N 0.715(2) 0.6000(9) 0.2889(14)
N10 N 0.456(2) 0.4872(9) 0.0435(14)
O1 O 0.5713(10) 0.3123(6) 0.8524(9)
O2 O 0.3764(12) 0.2258(6) 0.8771(10)
O3 O 0.2628(12) 0.3345(6) 0.9789(10)
O4 O 0.1186(12) 0.2390(6) 0.7670(12)
O5 O 0.0821(14) 0.3886(7) 0.7600(13)
O6 O 0.0860(11) 0.3044(6) 0.5506(10)
O7 O 0.3796(14) 0.4302(6) 0.8100(11)
O8 O 0.3739(13) 0.2340(6) 0.6148(11)
W1 W 0.55699(6) 0.46040(3) 0.35455(5)
C27 C 0.195(3) 0.0248(17) 1.151(3)
H18 H 0.2994 0.0179 1.1683
H19 H 0.1580 0.0409 1.2276
H20 H 0.1477 -0.0160 1.1253
Cu1A Cu 0.7983(3) 0.67346(12) 0.1183(2)
N9A N 0.285(2) 0.1000(9) 0.7111(14)
C28 C 0.101(3) 0.5537(11) 0.615(2)
C29 C -0.007(3) 0.5855(12) 0.523(3)
H21 H 0.0415 0.6056 0.4561
H22 H -0.0575 0.6185 0.5669
H23 H -0.0761 0.5534 0.4857
N11 N 0.178(3) 0.5282(11) 0.685(3)
O9 O 0.3358(17) 0.1975(8) 0.3574(13)
O10 O 0.0821(16) 0.4246(8) 1.0664(15)
loop_
_geom_bond_atom_site_label_1
_geom_bond_atom_site_label_2
_geom_bond_site_symmetry_1
_geom_bond_site_symmetry_2
C1 H1 1_555 1_555
H2 C1 1_555 1_555
H3 C1 1_555 1_555
C2 C3 1_555 1_555
C3 H4 1_555 1_555
C4 C3 1_555 1_555
H5 C4 1_555 1_555
C5 C4 1_555 1_555
H6 C5 1_555 1_555
C6 C5 1_555 1_555
C7 C2 1_555 1_555
C8 C6 1_555 1_555
H7 C8 1_555 1_555
C9 H8 1_555 1_555
C10 C9 1_555 1_555
H9 C10 1_555 1_555
H10 C10 1_555 1_555
C11 H11 1_555 1_555
C12 C11 1_555 1_555
C13 C12 1_555 1_555
H12 C13 1_555 1_555
C14 C13 1_555 1_555
H13 C14 1_555 1_555
C15 C14 1_555 1_555
H14 C15 1_555 1_555
C16 C15 1_555 1_555
C17 C12 1_555 1_555
C18 H15 1_555 1_555
H16 C18 1_555 1_555
H17 C18 1_555 1_555
C19 N3 1_555 1_555
C20 N4 1_555 1_555
C21 N5 1_555 1_555
C22 N6 1_555 1_555
C23 N7 1_555 1_555
C24 N8 1_555 1_555
C25 N9 1_555 1_555
C26 N10 1_555 1_555
Cu1 N1 1_555 1_555
Tb1 N3 1_555 1_555
N1 C8 1_555 1_555
N2 C10 1_555 1_555
N9 Cu1A 1_555 1_555
O1 C1 1_555 1_555
O2 C7 1_555 1_555
O3 Tb1 1_555 1_555
O4 C17 1_555 1_555
O5 Tb1 1_555 1_555
O6 C16 1_555 1_555
O7 Tb1 1_555 1_555
O8 Tb1 1_555 1_555
W1 C19 1_555 1_555
C27 C9 1_555 1_555
H18 C27 1_555 1_555
H19 C27 1_555 1_555
H20 C27 1_555 1_555
C28 C29 1_555 1_555
C29 H21 1_555 1_555
H22 C29 1_555 1_555
H23 C29 1_555 1_555
N11 C28 1_555 1_555
N9A Cu1 1_555 1_555
C2 O1 1_555 1_555
C6 C7 1_555 1_555
C9 N1 1_555 1_555
C11 N2 1_555 1_555
C16 C17 1_555 1_555
C18 O6 1_555 1_555
C20 W1 1_555 1_555
C21 W1 1_555 1_555
C22 W1 1_555 1_555
C23 W1 1_555 1_555
C24 W1 1_555 1_555
C25 W1 1_555 1_555
C26 W1 1_555 1_555
Cu1 N2 1_555 1_555
Cu1 O2 1_555 1_555
Cu1 O4 1_555 1_555
Tb1 O1 1_555 1_555
Tb1 O2 1_555 1_555
Tb1 O4 1_555 1_555
Tb1 O6 1_555 1_555

#END
