
#######################################################################
#
#                 Cambridge Crystallographic Data Centre
#                                CCDC 
#
#######################################################################
#
# If this CIF has been generated from an entry in the Cambridge 
# Structural Database, then it will include bibliographic, chemical, 
# crystal, experimental, refinement or atomic coordinate data resulting 
# from the CCDC's data processing and validation procedures.
#
#######################################################################

data_DUPZEV
_symmetry_cell_setting           monoclinic
_symmetry_space_group_name_H-M   'P 21'
_symmetry_Int_Tables_number      4
_space_group_name_Hall           'P 2yb'
loop_
_symmetry_equiv_pos_site_id
_symmetry_equiv_pos_as_xyz
1 x,y,z
2 -x,1/2+y,-z
_cell_length_a                   9.0527(5)
_cell_length_b                   20.2580(8)
_cell_length_c                   10.3391(5)
_cell_angle_alpha                90
_cell_angle_beta                 96.115(4)
_cell_angle_gamma                90
_cell_volume                     1885.29
loop_
_atom_site_label
_atom_site_type_symbol
_atom_site_fract_x
_atom_site_fract_y
_atom_site_fract_z
C1 C 0.6901(10) 0.3569(5) 0.8228(9)
H1 H 0.6507 0.3876 0.7543
H2 H 0.7257 0.3819 0.9012
H3 H 0.7725 0.3317 0.7931
C2 C 0.6142(10) 0.2657(4) 0.9481(8)
C3 C 0.7454(11) 0.2644(5) 1.0305(9)
H4 H 0.8204 0.2965 1.0223
C4 C 0.7662(13) 0.2154(6) 1.1259(10)
H5 H 0.8562 0.2142 1.1821
C5 C 0.6576(13) 0.1687(5) 1.1395(9)
H6 H 0.6739 0.1357 1.2049
C6 C 0.5234(12) 0.1694(5) 1.0576(8)
C7 C 0.5019(9) 0.2179(4) 0.9599(7)
C8 C 0.4122(14) 0.1199(4) 1.0818(8)
H7 H 0.4395 0.0877 1.1467
C9 C 0.172(2) 0.0646(9) 1.0490(14)
H8 H 0.1823 0.0315 0.9788
C10 C 0.1934(17) 0.0269(7) 1.1609(15)
H9 H 0.2973 0.0126 1.1746
H10 H 0.1698 0.0532 1.2355
H11 H 0.1284 -0.0119 1.1519
C11 C 0.0189(17) 0.0900(8) 1.0151(19)
H12 H -0.0494 0.0523 0.9952
H13 H -0.0135 0.1136 1.0910
C12 C -0.1119(12) 0.1464(5) 0.8318(12)
H14 H -0.1994 0.1247 0.8525
C13 C -0.1257(11) 0.1893(5) 0.7233(10)
C14 C -0.2599(11) 0.1870(6) 0.6365(13)
H15 H -0.3393 0.1598 0.6578
C15 C -0.2769(12) 0.2225(7) 0.5254(13)
H16 H -0.3675 0.2201 0.4701
C16 C -0.1620(11) 0.2626(6) 0.4915(11)
H17 H -0.1727 0.2865 0.4120
C17 C -0.0311(10) 0.2674(5) 0.5755(9)
C18 C -0.0115(9) 0.2325(4) 0.6919(8)
C19 C 0.0889(10) 0.3298(6) 0.4226(8)
H18 H 0.1785 0.3562 0.4160
H19 H 0.0871 0.2925 0.3620
H20 H 0.0008 0.3573 0.4007
C20 C 0.4671(8) 0.4043(4) 0.5012(7)
C21 C 0.7534(9) 0.4389(4) 0.4943(8)
C22 C 0.7418(10) 0.4282(4) 0.2480(8)
C23 C 0.3318(10) 0.4889(5) 0.3248(8)
C24 C 0.5409(9) 0.5303(4) 0.5112(8)
C25 C 0.4920(10) 0.3653(4) 0.2764(8)
C26 C 0.6672(9) 0.5525(4) 0.3103(7)
C27 C 0.4991(11) 0.4789(4) 0.1506(8)
Cu1 Cu 0.20162(12) 0.17389(5) 0.88501(10)
Dy1 Dy 0.30096(3) 0.31821(2) 0.75597(3)
N1 N 0.2814(12) 0.1166(4) 1.0224(7)
N2 N 0.0088(11) 0.1343(4) 0.9044(8)
N3 N 0.4104(8) 0.3721(4) 0.5744(6)
N4 N 0.8502(8) 0.4269(4) 0.5707(7)
N5 N 0.8366(10) 0.4119(5) 0.1896(8)
N6 N 0.2089(10) 0.5022(4) 0.3046(9)
N7 N 0.5341(10) 0.5690(4) 0.5913(7)
N8 N 0.4490(8) 0.3161(5) 0.2324(6)
N9 N 0.7211(10) 0.6023(4) 0.2849(7)
N10 N 0.4649(13) 0.4877(5) 0.0426(8)
O1 O 0.5739(5) 0.3120(3) 0.8523(4)
O2 O 0.3799(7) 0.2239(3) 0.8783(5)
O3 O 0.2681(7) 0.3340(3) 0.9802(5)
O4 O 0.1171(7) 0.2405(3) 0.7688(6)
O5 O 0.0820(8) 0.3867(3) 0.7653(7)
O6 O 0.0893(6) 0.3055(3) 0.5524(5)
O7 O 0.3817(7) 0.4294(3) 0.8083(6)
O8 O 0.3738(7) 0.2345(3) 0.6153(5)
Mo1 Mo 0.56280(7) 0.46063(3) 0.35409(5)
H21 H 0.323(9) 0.324(7) 1.049(6)
H22 H 0.205(11) 0.363(5) 0.993(13)
H23 H 0.376(11) 0.232(6) 0.5336(17)
H24 H 0.351(11) 0.198(3) 0.650(9)
Cu1A Cu 0.79838(12) 0.67389(5) 0.11499(10)
N9A N 0.2789(10) 0.1023(4) 0.7151(7)
C28 C 0.1059(12) 0.5519(5) 0.6102(11)
C29 C -0.0037(15) 0.5839(5) 0.5167(13)
H25 H -0.0048 0.5622 0.4320
H26 H 0.0223 0.6305 0.5083
H27 H -0.1023 0.5804 0.5472
N11 N 0.1911(13) 0.5286(5) 0.6822(12)
O9 O 0.3296(9) 0.1998(3) 0.3593(6)
H28 H 0.383(9) 0.166(3) 0.351(10)
H29 H 0.363(15) 0.233(4) 0.322(12)
O10 O 0.0909(8) 0.4286(4) 1.0569(8)
loop_
_geom_bond_atom_site_label_1
_geom_bond_atom_site_label_2
_geom_bond_site_symmetry_1
_geom_bond_site_symmetry_2
C1 H1 1_555 1_555
H2 C1 1_555 1_555
H3 C1 1_555 1_555
C2 C3 1_555 1_555
C3 H4 1_555 1_555
C4 C3 1_555 1_555
H5 C4 1_555 1_555
C5 C4 1_555 1_555
H6 C5 1_555 1_555
C6 C5 1_555 1_555
C7 C2 1_555 1_555
C8 C6 1_555 1_555
H7 C8 1_555 1_555
C9 H8 1_555 1_555
C10 C9 1_555 1_555
H9 C10 1_555 1_555
H10 C10 1_555 1_555
H11 C10 1_555 1_555
C11 C9 1_555 1_555
H12 C11 1_555 1_555
H13 C11 1_555 1_555
C12 H14 1_555 1_555
C13 C12 1_555 1_555
C14 C13 1_555 1_555
H15 C14 1_555 1_555
C15 C14 1_555 1_555
H16 C15 1_555 1_555
C16 C15 1_555 1_555
H17 C16 1_555 1_555
C17 C16 1_555 1_555
C18 C13 1_555 1_555
C19 H18 1_555 1_555
H19 C19 1_555 1_555
H20 C19 1_555 1_555
C20 N3 1_555 1_555
C21 N4 1_555 1_555
C22 N5 1_555 1_555
C23 N6 1_555 1_555
C24 N7 1_555 1_555
C25 N8 1_555 1_555
C26 N9 1_555 1_555
C27 N10 1_555 1_555
Cu1 N1 1_555 1_555
Dy1 N3 1_555 1_555
N1 C8 1_555 1_555
N2 C11 1_555 1_555
N9 Cu1A 1_555 1_555
O1 C1 1_555 1_555
O2 C7 1_555 1_555
O3 Dy1 1_555 1_555
O4 C18 1_555 1_555
O5 Dy1 1_555 1_555
O6 C17 1_555 1_555
O7 Dy1 1_555 1_555
O8 Dy1 1_555 1_555
Mo1 C20 1_555 1_555
H21 O3 1_555 1_555
H22 O3 1_555 1_555
H23 O8 1_555 1_555
H24 O8 1_555 1_555
C28 C29 1_555 1_555
C29 H25 1_555 1_555
H26 C29 1_555 1_555
H27 C29 1_555 1_555
N11 C28 1_555 1_555
O9 H28 1_555 1_555
H29 O9 1_555 1_555
N9A Cu1 1_555 1_555
C2 O1 1_555 1_555
C6 C7 1_555 1_555
C9 N1 1_555 1_555
C12 N2 1_555 1_555
C17 C18 1_555 1_555
C19 O6 1_555 1_555
C21 Mo1 1_555 1_555
C22 Mo1 1_555 1_555
C23 Mo1 1_555 1_555
C24 Mo1 1_555 1_555
C25 Mo1 1_555 1_555
C26 Mo1 1_555 1_555
C27 Mo1 1_555 1_555
Cu1 N2 1_555 1_555
Cu1 O2 1_555 1_555
Cu1 O4 1_555 1_555
Dy1 O1 1_555 1_555
Dy1 O2 1_555 1_555
Dy1 O4 1_555 1_555
Dy1 O6 1_555 1_555

#END
