
#######################################################################
#
#                 Cambridge Crystallographic Data Centre
#                                CCDC 
#
#######################################################################
#
# If this CIF has been generated from an entry in the Cambridge 
# Structural Database, then it will include bibliographic, chemical, 
# crystal, experimental, refinement or atomic coordinate data resulting 
# from the CCDC's data processing and validation procedures.
#
#######################################################################

data_DUQBAU
_symmetry_cell_setting           monoclinic
_symmetry_space_group_name_H-M   'P 21'
_symmetry_Int_Tables_number      4
_space_group_name_Hall           'P 2yb'
loop_
_symmetry_equiv_pos_site_id
_symmetry_equiv_pos_as_xyz
1 x,y,z
2 -x,1/2+y,-z
_cell_length_a                   9.1370(9)
_cell_length_b                   20.3334(14)
_cell_length_c                   10.3859(10)
_cell_angle_alpha                90
_cell_angle_beta                 96.566(8)
_cell_angle_gamma                90
_cell_volume                     1916.9
loop_
_atom_site_label
_atom_site_type_symbol
_atom_site_fract_x
_atom_site_fract_y
_atom_site_fract_z
C1 C 0.681(3) 0.3544(12) 0.821(2)
H1 H 0.6418 0.3860 0.7576
H2 H 0.7239 0.3769 0.8975
H3 H 0.7554 0.3286 0.7862
C2 C 0.610(3) 0.2640(12) 0.945(2)
C3 C 0.741(3) 0.2638(13) 1.029(3)
H4 H 0.8125 0.2960 1.0236
C4 C 0.762(4) 0.2142(18) 1.121(3)
H5 H 0.8512 0.2124 1.1745
C5 C 0.656(4) 0.1677(13) 1.136(2)
H6 H 0.6734 0.1356 1.1996
C6 C 0.523(4) 0.1685(14) 1.056(2)
C7 C 0.499(3) 0.2191(11) 0.959(2)
C8 C 0.411(4) 0.1207(12) 1.078(3)
H7 H 0.4352 0.0896 1.1429
C9 C 0.170(7) 0.069(2) 1.046(3)
H8 H 0.1840 0.0386 0.9754
C10 C 0.020(7) 0.085(2) 1.004(6)
H9 H -0.0270 0.1031 1.0760
H10 H -0.0338 0.0462 0.9727
C11 C -0.099(4) 0.1448(13) 0.834(3)
H11 H -0.1826 0.1234 0.8570
C12 C -0.120(3) 0.1886(14) 0.721(3)
C13 C -0.255(4) 0.1874(16) 0.635(3)
H12 H -0.3322 0.1613 0.6563
C14 C -0.274(4) 0.2240(16) 0.520(4)
H13 H -0.3605 0.2215 0.4628
C15 C -0.160(3) 0.2631(16) 0.495(3)
H14 H -0.1725 0.2880 0.4199
C16 C -0.033(3) 0.2691(13) 0.570(3)
C17 C -0.011(3) 0.2308(11) 0.688(2)
C18 C 0.089(3) 0.3311(15) 0.423(2)
H15 H 0.1781 0.3557 0.4181
H16 H 0.0845 0.2955 0.3619
H17 H 0.0056 0.3593 0.4028
C19 C 0.461(3) 0.4042(11) 0.499(2)
C20 C 0.743(3) 0.4404(10) 0.497(2)
C21 C 0.732(3) 0.4281(11) 0.249(3)
C22 C 0.351(4) 0.4865(13) 0.336(3)
C23 C 0.538(3) 0.5286(12) 0.512(2)
C24 C 0.487(3) 0.3662(11) 0.279(2)
C25 C 0.663(3) 0.5527(12) 0.314(2)
C26 C 0.492(2) 0.4782(10) 0.155(2)
Cu1 Cu 0.2021(4) 0.17388(15) 0.8816(3)
Dy1 Dy 0.29818(12) 0.31834(5) 0.75442(9)
N1 N 0.285(3) 0.1178(10) 1.0185(19)
N2 N 0.018(3) 0.1337(11) 0.901(2)
N3 N 0.403(3) 0.3736(10) 0.5750(19)
N4 N 0.843(2) 0.4257(10) 0.569(2)
N5 N 0.828(3) 0.4115(12) 0.192(2)
N6 N 0.212(4) 0.5012(14) 0.306(2)
N7 N 0.523(3) 0.5676(10) 0.594(2)
N8 N 0.442(2) 0.3170(11) 0.2309(16)
N9 N 0.716(3) 0.5998(11) 0.2857(18)
N10 N 0.460(3) 0.4867(10) 0.0437(19)
O1 O 0.5681(17) 0.3132(8) 0.8525(15)
O2 O 0.3725(18) 0.2242(7) 0.8773(14)
O3 O 0.2638(18) 0.3342(8) 0.9764(12)
O4 O 0.1190(18) 0.2405(8) 0.7632(14)
O5 O 0.083(2) 0.3885(9) 0.7581(17)
O6 O 0.0885(19) 0.3051(7) 0.5520(14)
O7 O 0.3785(19) 0.4302(7) 0.8079(15)
O8 O 0.3760(17) 0.2355(7) 0.6162(14)
W1 W 0.55660(10) 0.46034(4) 0.35468(8)
C27 C 0.194(5) 0.027(2) 1.142(4)
H18 H 0.2980 0.0196 1.1621
H19 H 0.1548 0.0438 1.2175
H20 H 0.1465 -0.0143 1.1177
Cu1A Cu 0.7979(4) 0.67388(15) 0.1184(3)
N9A N 0.284(3) 0.0998(11) 0.7143(18)
C28 C 0.101(4) 0.5534(15) 0.615(4)
C29 C -0.008(5) 0.5837(15) 0.522(3)
H21 H -0.0044 0.5638 0.4384
H22 H 0.0117 0.6299 0.5164
H23 H -0.1043 0.5773 0.5485
N11 N 0.179(4) 0.5299(15) 0.689(4)
O9 O 0.337(2) 0.1988(8) 0.3576(15)
O10 O 0.086(2) 0.4235(11) 1.066(2)
loop_
_geom_bond_atom_site_label_1
_geom_bond_atom_site_label_2
_geom_bond_site_symmetry_1
_geom_bond_site_symmetry_2
C1 H1 1_555 1_555
H2 C1 1_555 1_555
H3 C1 1_555 1_555
C2 C3 1_555 1_555
C3 H4 1_555 1_555
C4 C3 1_555 1_555
H5 C4 1_555 1_555
C5 C4 1_555 1_555
H6 C5 1_555 1_555
C6 C5 1_555 1_555
C7 C2 1_555 1_555
C8 C6 1_555 1_555
H7 C8 1_555 1_555
C9 H8 1_555 1_555
C10 C9 1_555 1_555
H9 C10 1_555 1_555
H10 C10 1_555 1_555
C11 H11 1_555 1_555
C12 C11 1_555 1_555
C13 C12 1_555 1_555
H12 C13 1_555 1_555
C14 C13 1_555 1_555
H13 C14 1_555 1_555
C15 C14 1_555 1_555
H14 C15 1_555 1_555
C16 C15 1_555 1_555
C17 C12 1_555 1_555
C18 H15 1_555 1_555
H16 C18 1_555 1_555
H17 C18 1_555 1_555
C19 N3 1_555 1_555
C20 N4 1_555 1_555
C21 N5 1_555 1_555
C22 N6 1_555 1_555
C23 N7 1_555 1_555
C24 N8 1_555 1_555
C25 N9 1_555 1_555
C26 N10 1_555 1_555
Cu1 N1 1_555 1_555
Dy1 N3 1_555 1_555
N1 C8 1_555 1_555
N2 C10 1_555 1_555
N9 Cu1A 1_555 1_555
O1 C1 1_555 1_555
O2 C7 1_555 1_555
O3 Dy1 1_555 1_555
O4 C17 1_555 1_555
O5 Dy1 1_555 1_555
O6 C16 1_555 1_555
O7 Dy1 1_555 1_555
O8 Dy1 1_555 1_555
W1 C19 1_555 1_555
C27 C9 1_555 1_555
H18 C27 1_555 1_555
H19 C27 1_555 1_555
H20 C27 1_555 1_555
C28 C29 1_555 1_555
C29 H21 1_555 1_555
H22 C29 1_555 1_555
H23 C29 1_555 1_555
N11 C28 1_555 1_555
N9A Cu1 1_555 1_555
C2 O1 1_555 1_555
C6 C7 1_555 1_555
C9 N1 1_555 1_555
C11 N2 1_555 1_555
C16 C17 1_555 1_555
C18 O6 1_555 1_555
C20 W1 1_555 1_555
C21 W1 1_555 1_555
C22 W1 1_555 1_555
C23 W1 1_555 1_555
C24 W1 1_555 1_555
C25 W1 1_555 1_555
C26 W1 1_555 1_555
Cu1 N2 1_555 1_555
Cu1 O2 1_555 1_555
Cu1 O4 1_555 1_555
Dy1 O1 1_555 1_555
Dy1 O2 1_555 1_555
Dy1 O4 1_555 1_555
Dy1 O6 1_555 1_555

#END
