
#######################################################################
#
#                 Cambridge Crystallographic Data Centre
#                                CCDC 
#
#######################################################################
#
# If this CIF has been generated from an entry in the Cambridge 
# Structural Database, then it will include bibliographic, chemical, 
# crystal, experimental, refinement or atomic coordinate data resulting 
# from the CCDC's data processing and validation procedures.
#
#######################################################################

data_DUQCOI
_symmetry_cell_setting           monoclinic
_symmetry_space_group_name_H-M   'P 21/c'
_symmetry_Int_Tables_number      14
_space_group_name_Hall           '-P 2ybc'
loop_
_symmetry_equiv_pos_site_id
_symmetry_equiv_pos_as_xyz
1 x,y,z
2 -x,1/2+y,1/2-z
3 -x,-y,-z
4 x,1/2-y,1/2+z
_cell_length_a                   18.745(2)
_cell_length_b                   10.7639(14)
_cell_length_c                   14.1585(18)
_cell_angle_alpha                90
_cell_angle_beta                 111.044(2)
_cell_angle_gamma                90
_cell_volume                     2666.22
loop_
_atom_site_label
_atom_site_type_symbol
_atom_site_fract_x
_atom_site_fract_y
_atom_site_fract_z
Mn1 Mn 0.08050(2) 0.39447(4) 0.41167(3)
Mn2 Mn 0.44821(2) 0.39042(4) 0.63222(3)
O1 O 0.06099(10) 0.59414(18) 0.41849(16)
O2 O 0.46593(10) 0.59002(17) 0.61315(15)
O3 O 0.41374(11) 0.77834(18) 0.57634(16)
C1 C 0.33123(13) 0.6050(2) 0.55476(18)
C2 C 0.19647(13) 0.6050(2) 0.48627(19)
O4 O 0.11712(12) 0.7803(2) 0.4390(2)
N1 N 0.19627(11) 0.48139(19) 0.49708(16)
C3 C 0.72311(13) 0.2647(2) 0.73258(18)
N2 N 0.57019(12) 0.3380(2) 0.67793(17)
C4 C 0.41011(13) 0.6651(2) 0.58391(18)
N3 N 0.33086(11) 0.48247(19) 0.56945(15)
C5 C 0.80457(13) 0.2258(2) 0.76527(19)
C6 C 0.26391(13) 0.6720(2) 0.51419(19)
H1 H 0.2640 0.7577 0.5061
C7 C 0.11792(14) 0.6673(3) 0.4435(2)
C8 C 0.70266(15) 0.3893(3) 0.7259(2)
H2 H 0.7398 0.4508 0.7388
C9 C 0.66448(14) 0.1778(2) 0.7099(2)
H3 H 0.6755 0.0933 0.7131
C10 C 0.58987(14) 0.2179(3) 0.6825(2)
H4 H 0.5513 0.1585 0.6664
C11 C 0.82614(16) 0.1080(3) 0.7465(2)
H5 H 0.7892 0.0508 0.7103
C12 C 0.62669(15) 0.4210(3) 0.6999(2)
H6 H 0.6142 0.5049 0.6975
C13 C 0.26343(13) 0.4251(2) 0.53933(19)
H7 H 0.2633 0.3396 0.5485
C14 C 0.86230(16) 0.3063(3) 0.8178(3)
H8 H 0.8509 0.3867 0.8318
C15 C 0.90251(15) 0.0755(3) 0.7817(2)
H9 H 0.9157 -0.0042 0.7685
C16 C 0.93727(16) 0.2667(3) 0.8495(3)
H10 H 0.9754 0.3228 0.8842
N4 N 0.95814(12) 0.1532(2) 0.83358(18)
O9 O 0.10573(14) 0.4228(2) 0.27392(19)
H11 H 0.0712(16) 0.435(4) 0.2194(15)
H12 H 0.1360(18) 0.375(3) 0.264(3)
O10 O 0.43373(12) 0.3359(3) 0.48008(17)
H13 H 0.4601(19) 0.363(4) 0.449(3)
H14 H 0.3894(8) 0.326(4) 0.442(2)
O11 O 0.40118(13) 0.2081(2) 0.63974(18)
H15 H 0.3698(16) 0.209(3) 0.668(2)
H16 H 0.386(2) 0.152(2) 0.597(2)
O12 O 0.07172(11) 0.3346(2) 0.55418(16)
H17 H 0.0316(11) 0.344(4) 0.564(3)
H18 H 0.1089(13) 0.329(4) 0.6068(15)
O16 O 0.12484(14) 0.2100(2) 0.40278(19)
H25 H 0.1488(19) 0.169(3) 0.4530(18)
H26 H 0.1474(19) 0.199(4) 0.364(2)
O17 O 0.45581(11) 0.4068(2) 0.79051(16)
H27 H 0.4150(10) 0.391(3) 0.797(3)
H28 H 0.4929(13) 0.371(3) 0.831(2)
Mn1C Mn 1.08050(2) 0.10553(4) 0.91167(3)
N4C N -0.04186(12) 0.3468(2) 0.33358(18)
S1 S 0.73306(3) -0.23319(6) 0.71958(5)
O5 O 0.68705(13) -0.1207(2) 0.6968(2)
O6 O 0.71671(16) -0.3041(3) 0.7977(2)
O7 O 0.81545(12) -0.2037(2) 0.75528(17)
O8 O 0.71547(15) -0.3118(3) 0.6300(2)
O13 O 0.33986(19) 0.0155(3) 0.5038(2)
H19 H 0.3389 0.0424 0.4493
H20 H 0.3658 -0.0473 0.5088
O14 O -0.0045(3) 0.4496(4) 0.0930(3)
H21 H -0.041(2) 0.401(5) 0.076(5)
H22 H 0.014(4) 0.418(6) 0.054(4)
O15 O 0.1920(3) 0.0473(4) 0.5488(3)
H23 H 0.1503 0.0425 0.5549
H24 H 0.2201 0.0916 0.5941
loop_
_geom_bond_atom_site_label_1
_geom_bond_atom_site_label_2
_geom_bond_site_symmetry_1
_geom_bond_site_symmetry_2
Mn1 O1 1_555 1_555
Mn2 O2 1_555 1_555
S1 O5 1_555 1_555
O1 C7 1_555 1_555
O2 C4 1_555 1_555
O3 C4 1_555 1_555
C1 C4 1_555 1_555
C2 N1 1_555 1_555
O4 C7 1_555 1_555
N1 Mn1 1_555 1_555
C3 C5 1_555 1_555
N2 Mn2 1_555 1_555
N3 Mn2 1_555 1_555
O6 S1 1_555 1_555
C5 C11 1_555 1_555
O7 S1 1_555 1_555
C6 C1 1_555 1_555
H1 C6 1_555 1_555
C7 C2 1_555 1_555
C8 C3 1_555 1_555
H2 C8 1_555 1_555
C9 C3 1_555 1_555
H3 C9 1_555 1_555
C10 N2 1_555 1_555
H4 C10 1_555 1_555
C11 H5 1_555 1_555
C12 N2 1_555 1_555
H6 C12 1_555 1_555
C13 N1 1_555 1_555
H7 C13 1_555 1_555
C14 C5 1_555 1_555
H8 C14 1_555 1_555
O8 S1 1_555 1_555
C15 C11 1_555 1_555
H9 C15 1_555 1_555
C16 C14 1_555 1_555
H10 C16 1_555 1_555
N4 C15 1_555 1_555
O9 Mn1 1_555 1_555
H11 O9 1_555 1_555
H12 O9 1_555 1_555
O10 Mn2 1_555 1_555
H13 O10 1_555 1_555
H14 O10 1_555 1_555
O11 Mn2 1_555 1_555
H15 O11 1_555 1_555
H16 O11 1_555 1_555
O12 Mn1 1_555 1_555
H17 O12 1_555 1_555
H18 O12 1_555 1_555
O13 H19 1_555 1_555
H20 O13 1_555 1_555
O14 H21 1_555 1_555
H22 O14 1_555 1_555
O15 H23 1_555 1_555
H24 O15 1_555 1_555
O16 Mn1 1_555 1_555
H25 O16 1_555 1_555
H26 O16 1_555 1_555
O17 Mn2 1_555 1_555
H27 O17 1_555 1_555
H28 O17 1_555 1_555
Mn1C N4 1_555 1_555
N4C Mn1 1_555 1_555
C1 N3 1_555 1_555
C2 C6 1_555 1_555
N3 C13 1_555 1_555
C8 C12 1_555 1_555
C9 C10 1_555 1_555
C16 N4 1_555 1_555

#END
