
#######################################################################
#
#                 Cambridge Crystallographic Data Centre
#                                CCDC 
#
#######################################################################
#
# If this CIF has been generated from an entry in the Cambridge 
# Structural Database, then it will include bibliographic, chemical, 
# crystal, experimental, refinement or atomic coordinate data resulting 
# from the CCDC's data processing and validation procedures.
#
#######################################################################

data_DUQCAU
_symmetry_cell_setting           monoclinic
_symmetry_space_group_name_H-M   'P 21/c'
_symmetry_Int_Tables_number      14
_space_group_name_Hall           '-P 2ybc'
loop_
_symmetry_equiv_pos_site_id
_symmetry_equiv_pos_as_xyz
1 x,y,z
2 -x,1/2+y,1/2-z
3 -x,-y,-z
4 x,1/2-y,1/2+z
_cell_length_a                   9.8834(5)
_cell_length_b                   8.2811(4)
_cell_length_c                   10.1818(5)
_cell_angle_alpha                90
_cell_angle_beta                 99.0530(10)
_cell_angle_gamma                90
_cell_volume                     822.953
loop_
_atom_site_label
_atom_site_type_symbol
_atom_site_fract_x
_atom_site_fract_y
_atom_site_fract_z
Pr1 Pr 0.185002(15) 0.098389(18) 0.437068(15)
O1 O 0.0042(2) 0.3167(2) 0.4302(2)
O2 O -0.1229(2) 0.4945(3) 0.2991(2)
O3 O 0.1838(2) 0.3092(3) 0.2610(2)
O4 O 0.0564(2) 0.4802(3) 0.12614(19)
O5 O 0.4011(2) 0.0665(3) 0.3529(2)
O6 O 0.6199(2) -0.0090(3) 0.3924(2)
O7 O 0.1928(2) -0.2047(3) 0.4324(3)
H1 H 0.255(3) -0.260(3) 0.406(4)
H2 H 0.153(3) -0.250(4) 0.490(3)
O8 O 0.3072(3) 0.3550(3) 0.5421(2)
H3 H 0.252(3) 0.393(4) 0.589(3)
C1 C -0.0222(3) 0.4050(3) 0.3291(3)
C2 C 0.0829(3) 0.3968(3) 0.2319(3)
C3 C 0.5054(3) 0.0165(4) 0.4261(3)
H5 H 0.3907(13) 0.358(8) 0.576(4)
Pr1A Pr -0.185002(15) -0.401611(18) 0.062932(15)
Pr1A_2 Pr -0.185002(15) 0.598389(18) 0.062932(15)
Pr1C Pr 0.185002(15) 0.401611(18) -0.062932(15)
Pr1B Pr 0.814998(15) -0.098389(18) 0.562932(15)
Pr1B_2 Pr -0.185002(15) -0.098389(18) 0.562932(15)
O1A O -0.0042(2) -0.1833(2) 0.0698(2)
O2A O 0.1229(2) -0.0055(3) 0.2009(2)
O2_2 O -0.1229(2) -0.5055(3) 0.2991(2)
O3A O -0.1838(2) -0.1908(3) 0.2390(2)
O4A O -0.0564(2) -0.0198(3) 0.37386(19)
O4C O 0.0564(2) 0.0198(3) 0.62614(19)
O4_2 O 0.0564(2) -0.5198(3) 0.12614(19)
O4B O -0.0564(2) -0.4802(3) -0.12614(19)
O5B O 0.5989(2) -0.0665(3) 0.6471(2)
O5A O -0.4011(2) -0.4335(3) 0.1471(2)
O6B O 0.3801(2) 0.0090(3) 0.6076(2)
O6C O -0.3801(2) -0.4910(3) -0.1076(2)
O7A O -0.1928(2) -0.7047(3) 0.0676(3)
H1A H -0.255(3) -0.760(3) 0.094(4)
H2A H -0.153(3) -0.750(4) 0.010(3)
O8A O -0.3072(3) -0.1450(3) -0.0421(2)
H3A H -0.252(3) -0.107(4) -0.089(3)
C1A C 0.0222(3) -0.0950(3) 0.1709(3)
C2A C -0.0829(3) -0.1032(3) 0.2681(3)
C3B C 0.4946(3) -0.0165(4) 0.5739(3)
H5A H -0.3907(13) -0.142(8) -0.076(4)
O9 O 0.3963(3) 0.5983(3) 0.3724(3)
H4 H 0.393(4) 0.566(5) 0.2945(16)
H6 H 0.370(7) 0.534(5) 0.427(3)
loop_
_geom_bond_atom_site_label_1
_geom_bond_atom_site_label_2
_geom_bond_site_symmetry_1
_geom_bond_site_symmetry_2
Pr1 O1 1_555 1_555
O1 C1 1_555 1_555
O2 C1 1_555 1_555
O3 Pr1 1_555 1_555
O4 C2 1_555 1_555
O5 Pr1 1_555 1_555
O6 C3 1_555 1_555
O7 Pr1 1_555 1_555
H1 O7 1_555 1_555
H2 O7 1_555 1_555
O8 Pr1 1_555 1_555
H3 O8 1_555 1_555
O9 H4 1_555 1_555
C1 C2 1_555 1_555
C2 O3 1_555 1_555
C3 O5 1_555 1_555
H5 O8 1_555 1_555
H6 O9 1_555 1_555
Pr1A O1A 1_555 1_555
Pr1A_2 O2 1_555 1_555
Pr1C O4 1_555 1_555
Pr1B O6 1_555 1_555
Pr1B_2 O4A 1_555 1_555
O1A C1A 1_555 1_555
O2A Pr1 1_555 1_555
O2_2 Pr1A 1_555 1_555
O3A Pr1A 1_555 1_555
O4A Pr1 1_555 1_555
O4C Pr1 1_555 1_555
O4_2 Pr1A 1_555 1_555
O4B Pr1A 1_555 1_555
O5B Pr1B 1_555 1_555
O5A Pr1A 1_555 1_555
O6B Pr1 1_555 1_555
O6C Pr1A 1_555 1_555
O7A Pr1A 1_555 1_555
H1A O7A 1_555 1_555
H2A O7A 1_555 1_555
O8A Pr1A 1_555 1_555
H3A O8A 1_555 1_555
C1A O2A 1_555 1_555
C2A O3A 1_555 1_555
C3B C3 1_555 1_555
H5A O8A 1_555 1_555
O4 Pr1A_2 1_555 1_555
Pr1B_2 O4C 1_555 1_555
O4A C2A 1_555 1_555
O5B C3B 1_555 1_555
O6B C3B 1_555 1_555
C1A C2A 1_555 1_555

#END
