
#######################################################################
#
#                 Cambridge Crystallographic Data Centre
#                                CCDC 
#
#######################################################################
#
# If this CIF has been generated from an entry in the Cambridge 
# Structural Database, then it will include bibliographic, chemical, 
# crystal, experimental, refinement or atomic coordinate data resulting 
# from the CCDC's data processing and validation procedures.
#
#######################################################################

data_DUQDOK
_symmetry_cell_setting           orthorhombic
_symmetry_space_group_name_H-M   'C 2 2 21'
_symmetry_Int_Tables_number      20
_space_group_name_Hall           'C 2n 2'
loop_
_symmetry_equiv_pos_site_id
_symmetry_equiv_pos_as_xyz
1 x,y,z
2 -x,-y,1/2+z
3 x,-y,-z
4 -x,y,1/2-z
5 1/2+x,1/2+y,z
6 1/2-x,1/2-y,1/2+z
7 1/2+x,1/2-y,-z
8 1/2-x,1/2+y,1/2-z
_cell_length_a                   15.6813(10)
_cell_length_b                   19.0221(17)
_cell_length_c                   17.6117(10)
_cell_angle_alpha                90
_cell_angle_beta                 90
_cell_angle_gamma                90
_cell_volume                     5253.42
loop_
_atom_site_label
_atom_site_type_symbol
_atom_site_fract_x
_atom_site_fract_y
_atom_site_fract_z
C1 C -0.1965(7) 0.0021(8) 0.0938(6)
H1 H -0.1895 0.0456 0.0670
H2 H -0.2518 -0.0171 0.0830
H3 H -0.1912 0.0103 0.1474
C2 C -0.1330(6) -0.1126(4) 0.1034(5)
C3 C -0.2018(7) -0.1411(6) 0.1421(6)
H4 H -0.2524 -0.1159 0.1469
C4 C -0.1941(10) -0.2081(7) 0.1736(7)
H5 H -0.2404 -0.2280 0.1986
C5 C -0.1224(10) -0.2433(6) 0.1683(7)
H6 H -0.1184 -0.2870 0.1918
C6 C -0.0517(7) -0.2178(5) 0.1286(5)
C7 C -0.0575(5) -0.1510(4) 0.0938(4)
C8 C 0.0274(10) -0.2589(5) 0.1294(6)
H7 H 0.0272 -0.3004 0.1573
C9 C 0.1734(13) -0.2883(10) 0.0983(10)
H8 H 0.1814 -0.3049 0.1499
H9 H 0.1641 -0.3291 0.0663
C10 C 0.2470(15) -0.2550(14) 0.0750(17)
H10 H 0.2600 -0.2302 0.1224
C11 C 0.3319(19) -0.2844(13) 0.0605(13)
H11 H 0.3699 -0.2476 0.0449
H12 H 0.3533 -0.3059 0.1060
H13 H 0.3282 -0.3191 0.0210
C12 C 0.2931(7) -0.1560(10) -0.0118(11)
H14 H 0.3487 -0.1730 -0.0098
C13 C 0.2815(10) -0.0975(9) -0.0525(10)
C14 C 0.3608(10) -0.0706(11) -0.0903(14)
H15 H 0.4119 -0.0946 -0.0830
C15 C 0.3605(15) -0.0171(14) -0.1313(18)
H16 H 0.4110 -0.0014 -0.1531
C16 C 0.2831(15) 0.0200(8) -0.1448(12)
H17 H 0.2838 0.0604 -0.1746
C17 C 0.2060(9) -0.0036(8) -0.1138(7)
C18 C 0.2088(7) -0.0636(6) -0.0643(7)
C19 C 0.1098(13) 0.0588(7) -0.1932(7)
H18 H 0.0537 0.0788 -0.1910
H19 H 0.1506 0.0950 -0.2042
H20 H 0.1118 0.0237 -0.2323
C20 C -0.0116(6) 0.1093(4) 0.1722(4)
C21 C 0.1289(6) 0.1591(4) 0.2458(6)
C22 C -0.0805(6) 0.2866(4) 0.2249(6)
C23 C 0.0413(6) 0.2294(4) 0.1380(5)
Cu1 Cu 0.11329(7) -0.16539(6) 0.02778(6)
La1 La 0.01855(4) 0.0000 0.0000
Mo1 Mo 0.0000 0.19631(4) 0.2500
N1 N 0.0952(7) -0.2432(5) 0.0959(5)
N2 N 0.2323(7) -0.1946(6) 0.0279(6)
N3 N -0.0208(6) 0.0662(3) 0.1277(4)
N4 N 0.1992(6) 0.1388(4) 0.2474(7)
N5 N -0.1220(7) 0.3340(5) 0.2126(7)
N6 N 0.0622(7) 0.2415(5) 0.0775(5)
O1 O -0.1312(4) -0.0472(3) 0.0696(3)
O2 O 0.0052(4) -0.1210(2) 0.0525(3)
O3 O 0.1347(4) -0.0814(3) -0.0294(3)
O4 O 0.1302(7) 0.0266(4) -0.1204(4)
C1B C -0.1965(7) -0.0021(8) -0.0938(6)
H1B H -0.1895 -0.0456 -0.0670
H2B H -0.2518 0.0171 -0.0830
H3B H -0.1912 -0.0103 -0.1474
C2B C -0.1330(6) 0.1126(4) -0.1034(5)
C3B C -0.2018(7) 0.1411(6) -0.1421(6)
H4B H -0.2524 0.1159 -0.1469
C4B C -0.1941(10) 0.2081(7) -0.1736(7)
H5B H -0.2404 0.2280 -0.1986
C5B C -0.1224(10) 0.2433(6) -0.1683(7)
H6B H -0.1184 0.2870 -0.1918
C6B C -0.0517(7) 0.2178(5) -0.1286(5)
C7B C -0.0575(5) 0.1510(4) -0.0938(4)
C8B C 0.0274(10) 0.2589(5) -0.1294(6)
H7B H 0.0272 0.3004 -0.1573
C9B C 0.1734(13) 0.2883(10) -0.0983(10)
H8B H 0.1814 0.3049 -0.1499
H9B H 0.1641 0.3291 -0.0663
C10B C 0.2470(15) 0.2550(14) -0.0750(17)
H10B H 0.2600 0.2302 -0.1224
C11B C 0.3319(19) 0.2844(13) -0.0605(13)
H11B H 0.3699 0.2476 -0.0449
H12B H 0.3533 0.3059 -0.1060
H13B H 0.3282 0.3191 -0.0210
C12B C 0.2931(7) 0.1560(10) 0.0118(11)
H14B H 0.3487 0.1730 0.0098
C13B C 0.2815(10) 0.0975(9) 0.0525(10)
C14B C 0.3608(10) 0.0706(11) 0.0903(14)
H15B H 0.4119 0.0946 0.0830
C15B C 0.3605(15) 0.0171(14) 0.1313(18)
H16B H 0.4110 0.0014 0.1531
C16B C 0.2831(15) -0.0200(8) 0.1448(12)
H17B H 0.2838 -0.0604 0.1746
C17B C 0.2060(9) 0.0036(8) 0.1138(7)
C18B C 0.2088(7) 0.0636(6) 0.0643(7)
C19B C 0.1098(13) -0.0588(7) 0.1932(7)
H18B H 0.0537 -0.0788 0.1910
H19B H 0.1506 -0.0950 0.2042
H20B H 0.1118 -0.0237 0.2323
C20B C -0.0116(6) -0.1093(4) -0.1722(4)
C23B C 0.0413(6) -0.2294(4) -0.1380(5)
Cu1B Cu 0.11329(7) 0.16539(6) -0.02778(6)
N1B N 0.0952(7) 0.2432(5) -0.0959(5)
N2B N 0.2323(7) 0.1946(6) -0.0279(6)
N3B N -0.0208(6) -0.0662(3) -0.1277(4)
N6B N 0.0622(7) -0.2415(5) -0.0775(5)
O1B O -0.1312(4) 0.0472(3) -0.0696(3)
O2B O 0.0052(4) 0.1210(2) -0.0525(3)
O3B O 0.1347(4) 0.0814(3) 0.0294(3)
O4B O 0.1302(7) -0.0266(4) 0.1204(4)
C21C C -0.1289(6) 0.1591(4) 0.2542(6)
N4C N -0.1992(6) 0.1388(4) 0.2526(7)
C22C C 0.0805(6) 0.2866(4) 0.2751(6)
N5C N 0.1220(7) 0.3340(5) 0.2874(7)
C20C C 0.0116(6) 0.1093(4) 0.3278(4)
C23C C -0.0413(6) 0.2294(4) 0.3620(5)
Mo1A Mo 0.0000 -0.19631(4) -0.2500
loop_
_geom_bond_atom_site_label_1
_geom_bond_atom_site_label_2
_geom_bond_site_symmetry_1
_geom_bond_site_symmetry_2
C1 H1 1_555 1_555
H2 C1 1_555 1_555
H3 C1 1_555 1_555
C2 C3 1_555 1_555
C3 H4 1_555 1_555
C4 C3 1_555 1_555
H5 C4 1_555 1_555
C5 C4 1_555 1_555
H6 C5 1_555 1_555
C6 C5 1_555 1_555
C7 C2 1_555 1_555
C8 C6 1_555 1_555
H7 C8 1_555 1_555
C9 H8 1_555 1_555
H9 C9 1_555 1_555
C10 C9 1_555 1_555
H10 C10 1_555 1_555
C11 C10 1_555 1_555
H11 C11 1_555 1_555
H12 C11 1_555 1_555
H13 C11 1_555 1_555
C12 H14 1_555 1_555
C13 C12 1_555 1_555
C14 C13 1_555 1_555
H15 C14 1_555 1_555
C15 C14 1_555 1_555
H16 C15 1_555 1_555
C16 C15 1_555 1_555
H17 C16 1_555 1_555
C17 C16 1_555 1_555
C18 C13 1_555 1_555
C19 H18 1_555 1_555
H19 C19 1_555 1_555
H20 C19 1_555 1_555
C20 Mo1 1_555 1_555
C21 Mo1 1_555 1_555
C22 Mo1 1_555 1_555
C23 Mo1 1_555 1_555
Cu1 N1 1_555 1_555
La1 N3 1_555 1_555
Mo1 C21C 1_555 1_555
N1 C8 1_555 1_555
N2 C10 1_555 1_555
N3 C20 1_555 1_555
N4 C21 1_555 1_555
N5 C22 1_555 1_555
N6 C23 1_555 1_555
O1 C1 1_555 1_555
O2 C7 1_555 1_555
O3 C18 1_555 1_555
O4 C17 1_555 1_555
C1B H1B 1_555 1_555
H2B C1B 1_555 1_555
H3B C1B 1_555 1_555
C2B C3B 1_555 1_555
C3B H4B 1_555 1_555
C4B C3B 1_555 1_555
H5B C4B 1_555 1_555
C5B C4B 1_555 1_555
H6B C5B 1_555 1_555
C6B C5B 1_555 1_555
C7B C2B 1_555 1_555
C8B C6B 1_555 1_555
H7B C8B 1_555 1_555
C9B H8B 1_555 1_555
H9B C9B 1_555 1_555
C10B C9B 1_555 1_555
H10B C10B 1_555 1_555
C11B C10B 1_555 1_555
H11B C11B 1_555 1_555
H12B C11B 1_555 1_555
H13B C11B 1_555 1_555
C12B H14B 1_555 1_555
C13B C12B 1_555 1_555
C14B C13B 1_555 1_555
H15B C14B 1_555 1_555
C15B C14B 1_555 1_555
H16B C15B 1_555 1_555
C16B C15B 1_555 1_555
H17B C16B 1_555 1_555
C17B C16B 1_555 1_555
C18B C13B 1_555 1_555
C19B H18B 1_555 1_555
H19B C19B 1_555 1_555
H20B C19B 1_555 1_555
C20B N3B 1_555 1_555
C23B N6B 1_555 1_555
Cu1B N6 1_555 1_555
N1B C8B 1_555 1_555
N2B C10B 1_555 1_555
N3B La1 1_555 1_555
N6B Cu1 1_555 1_555
O1B La1 1_555 1_555
O2B La1 1_555 1_555
O3B La1 1_555 1_555
O4B La1 1_555 1_555
C21C N4C 1_555 1_555
C22C Mo1 1_555 1_555
N5C C22C 1_555 1_555
C20C Mo1 1_555 1_555
C23C Mo1 1_555 1_555
Mo1A C20B 1_555 1_555
C2 O1 1_555 1_555
C6 C7 1_555 1_555
C9 N1 1_555 1_555
C12 N2 1_555 1_555
C17 C18 1_555 1_555
C19 O4 1_555 1_555
Cu1 N2 1_555 1_555
Cu1 O2 1_555 1_555
Cu1 O3 1_555 1_555
La1 O1 1_555 1_555
La1 O2 1_555 1_555
La1 O3 1_555 1_555
La1 O4 1_555 1_555
C1B O1B 1_555 1_555
C2B O1B 1_555 1_555
C6B C7B 1_555 1_555
C7B O2B 1_555 1_555
C9B N1B 1_555 1_555
C12B N2B 1_555 1_555
C17B C18B 1_555 1_555
C17B O4B 1_555 1_555
C18B O3B 1_555 1_555
C19B O4B 1_555 1_555
C23B Mo1A 1_555 1_555
Cu1B N1B 1_555 1_555
Cu1B N2B 1_555 1_555
Cu1B O2B 1_555 1_555
Cu1B O3B 1_555 1_555

#END
