
#######################################################################
#
#                 Cambridge Crystallographic Data Centre
#                                CCDC 
#
#######################################################################
#
# If this CIF has been generated from an entry in the Cambridge 
# Structural Database, then it will include bibliographic, chemical, 
# crystal, experimental, refinement or atomic coordinate data resulting 
# from the CCDC's data processing and validation procedures.
#
#######################################################################

data_DUQFOM
_symmetry_cell_setting           monoclinic
_symmetry_space_group_name_H-M   'C 2/c'
_symmetry_Int_Tables_number      15
_space_group_name_Hall           '-C 2yn'
loop_
_symmetry_equiv_pos_site_id
_symmetry_equiv_pos_as_xyz
1 x,y,z
2 -x,y,1/2-z
3 1/2+x,1/2+y,z
4 1/2-x,1/2+y,1/2-z
5 -x,-y,-z
6 x,-y,1/2+z
7 1/2-x,1/2-y,-z
8 1/2+x,1/2-y,1/2+z
_cell_length_a                   36.486(10)
_cell_length_b                   12.017(4)
_cell_length_c                   8.003(2)
_cell_angle_alpha                90
_cell_angle_beta                 94.653(10)
_cell_angle_gamma                90
_cell_volume                     3497.37
loop_
_atom_site_label
_atom_site_type_symbol
_atom_site_fract_x
_atom_site_fract_y
_atom_site_fract_z
C1 C 0.12617(12) 0.1774(4) 0.8522(6)
C2 C 0.15862(12) 0.2341(4) 0.9086(6)
C3 C 0.18851(14) 0.2180(5) 0.8150(7)
H1 H 0.2103 0.2550 0.8475
C4 C 0.18760(15) 0.1498(6) 0.6763(8)
C5 C 0.15550(14) 0.0954(5) 0.6214(7)
H2 H 0.1545 0.0500 0.5271
C6 C 0.12479(12) 0.1100(4) 0.7101(6)
C7 C 0.16108(13) 0.3094(4) 1.0648(7)
C8 C 0.1478(2) 0.2492(6) 1.2156(7)
H3 H 0.1217 0.2378 1.1989
H4 H 0.1533 0.2933 1.3145
H5 H 0.1600 0.1786 1.2288
C9 C 0.13733(19) 0.4116(5) 1.0254(8)
H6 H 0.1124 0.3888 0.9957
H7 H 0.1465 0.4513 0.9334
H8 H 0.1381 0.4590 1.1221
C10 C 0.20067(16) 0.3474(7) 1.1152(10)
H9 H 0.2011 0.3908 1.2160
H10 H 0.2094 0.3917 1.0268
H11 H 0.2162 0.2834 1.1340
C11 C 0.2237(2) 0.0669(8) 0.4779(10)
H12 H 0.2206 -0.0058 0.5242
H13 H 0.2477 0.0726 0.4380
H14 H 0.2054 0.0789 0.3864
C12 C 0.08932(12) 0.0494(4) 0.6572(6)
H15 H 0.0921 0.0109 0.5525
H16 H 0.0849 -0.0063 0.7411
C13 C 0.05968(13) 0.2064(4) 0.4987(6)
H17 H 0.0372 0.2053 0.4249
H18 H 0.0798 0.1849 0.4333
C14 C 0.06636(12) 0.3239(4) 0.5644(6)
Mo1 Mo 0.043564(9) 0.21313(3) 0.88695(4)
N1 N 0.05655(9) 0.1244(3) 0.6349(4)
Na1 Na 0.06138(6) 0.46182(15) 1.1999(2)
O1 O 0.02781(8) 0.0899(3) 0.9606(4)
O2 O 0.03989(9) 0.3093(3) 1.0439(4)
O3 O 0.0000 0.5082(5) 1.2500
O4 O 0.0000 0.2532(3) 0.7500
O5 O 0.09572(8) 0.1853(2) 0.9381(4)
O6 O 0.07055(11) 0.4007(3) 0.4647(4)
O7 O 0.06653(8) 0.3395(2) 0.7222(3)
O8 O 0.21998(12) 0.1448(6) 0.5979(7)
C1A C -0.12617(12) 0.1774(4) 0.6478(6)
C2A C -0.15862(12) 0.2341(4) 0.5914(6)
C3A C -0.18851(14) 0.2180(5) 0.6850(7)
H1A H -0.2103 0.2550 0.6525
C4A C -0.18760(15) 0.1498(6) 0.8237(8)
C5A C -0.15550(14) 0.0954(5) 0.8786(7)
H2A H -0.1545 0.0500 0.9729
C6A C -0.12479(12) 0.1100(4) 0.7899(6)
C7A C -0.16108(13) 0.3094(4) 0.4352(7)
C8A C -0.1478(2) 0.2492(6) 0.2844(7)
H3A H -0.1217 0.2378 0.3011
H4A H -0.1533 0.2933 0.1855
H5A H -0.1600 0.1786 0.2712
C9A C -0.13733(19) 0.4116(5) 0.4746(8)
H6A H -0.1124 0.3888 0.5043
H7A H -0.1465 0.4513 0.5666
H8A H -0.1381 0.4590 0.3779
C10A C -0.20067(16) 0.3474(7) 0.3848(10)
H9A H -0.2011 0.3908 0.2840
H10A H -0.2094 0.3917 0.4732
H11A H -0.2162 0.2834 0.3660
C11A C -0.2237(2) 0.0669(8) 1.0221(10)
H12A H -0.2206 -0.0058 0.9758
H13A H -0.2477 0.0726 1.0620
H14A H -0.2054 0.0789 1.1136
C12A C -0.08932(12) 0.0494(4) 0.8428(6)
H15A H -0.0921 0.0109 0.9475
H16A H -0.0849 -0.0063 0.7589
C13A C -0.05968(13) 0.2064(4) 1.0013(6)
H17A H -0.0372 0.2053 1.0751
H18A H -0.0798 0.1849 1.0667
C14A C -0.06636(12) 0.3239(4) 0.9356(6)
Mo1A Mo -0.043564(9) 0.21313(3) 0.61305(4)
N1A N -0.05655(9) 0.1244(3) 0.8651(4)
Na1A Na -0.06138(6) 0.46182(15) 0.3001(2)
O1A O -0.02781(8) 0.0899(3) 0.5394(4)
O2A O -0.03989(9) 0.3093(3) 0.4561(4)
O5A O -0.09572(8) 0.1853(2) 0.5619(4)
O6A O -0.07055(11) 0.4007(3) 1.0353(4)
O7A O -0.06653(8) 0.3395(2) 0.7778(3)
O8A O -0.21998(12) 0.1448(6) 0.9021(7)
Na1_2 Na 0.06138(6) 0.46182(15) 0.1999(2)
Na1A_2 Na -0.06138(6) 0.46182(15) 1.3001(2)
Na1D Na -0.06138(6) 0.53818(15) 0.8001(2)
Na1E Na 0.06138(6) 0.53818(15) 0.6999(2)
O3_2 O 0.0000 0.5082(5) 0.2500
O6_2 O 0.07055(11) 0.4007(3) 1.4647(4)
O6A_2 O -0.07055(11) 0.4007(3) 0.0353(4)
O6D O -0.07055(11) 0.5993(3) 0.5353(4)
O6E O 0.07055(11) 0.5993(3) 0.9647(4)
O7D O -0.06653(8) 0.6605(2) 0.2778(3)
O7E O 0.06653(8) 0.6605(2) 1.2222(3)
loop_
_geom_bond_atom_site_label_1
_geom_bond_atom_site_label_2
_geom_bond_site_symmetry_1
_geom_bond_site_symmetry_2
C1 C2 1_555 1_555
C2 C3 1_555 1_555
C3 H1 1_555 1_555
C4 C3 1_555 1_555
C5 C4 1_555 1_555
H2 C5 1_555 1_555
C6 C1 1_555 1_555
C7 C2 1_555 1_555
C8 C7 1_555 1_555
H3 C8 1_555 1_555
H4 C8 1_555 1_555
H5 C8 1_555 1_555
C9 C7 1_555 1_555
H6 C9 1_555 1_555
H7 C9 1_555 1_555
H8 C9 1_555 1_555
C10 C7 1_555 1_555
H9 C10 1_555 1_555
H10 C10 1_555 1_555
H11 C10 1_555 1_555
C11 H12 1_555 1_555
H13 C11 1_555 1_555
H14 C11 1_555 1_555
C12 C6 1_555 1_555
H15 C12 1_555 1_555
H16 C12 1_555 1_555
C13 H17 1_555 1_555
H18 C13 1_555 1_555
C14 C13 1_555 1_555
Mo1 N1 1_555 1_555
N1 C12 1_555 1_555
Na1 O2 1_555 1_555
O1 Mo1 1_555 1_555
O2 Mo1 1_555 1_555
O3 Na1 1_555 1_555
O4 Mo1 1_555 1_555
O5 C1 1_555 1_555
O6 C14 1_555 1_555
O7 C14 1_555 1_555
O8 C4 1_555 1_555
C1A C2A 1_555 1_555
C2A C3A 1_555 1_555
C3A H1A 1_555 1_555
C4A C3A 1_555 1_555
C5A C4A 1_555 1_555
H2A C5A 1_555 1_555
C6A C1A 1_555 1_555
C7A C2A 1_555 1_555
C8A C7A 1_555 1_555
H3A C8A 1_555 1_555
H4A C8A 1_555 1_555
H5A C8A 1_555 1_555
C9A C7A 1_555 1_555
H6A C9A 1_555 1_555
H7A C9A 1_555 1_555
H8A C9A 1_555 1_555
C10A C7A 1_555 1_555
H9A C10A 1_555 1_555
H10A C10A 1_555 1_555
H11A C10A 1_555 1_555
C11A H12A 1_555 1_555
H13A C11A 1_555 1_555
H14A C11A 1_555 1_555
C12A C6A 1_555 1_555
H15A C12A 1_555 1_555
H16A C12A 1_555 1_555
C13A H17A 1_555 1_555
H18A C13A 1_555 1_555
C14A C13A 1_555 1_555
Mo1A O4 1_555 1_555
N1A C12A 1_555 1_555
Na1A O2A 1_555 1_555
O1A Mo1A 1_555 1_555
O2A Mo1A 1_555 1_555
O5A C1A 1_555 1_555
O6A C14A 1_555 1_555
O7A C14A 1_555 1_555
O8A C4A 1_555 1_555
Na1_2 O6 1_555 1_555
Na1A_2 O3 1_555 1_555
Na1D O6A 1_555 1_555
Na1E O6 1_555 1_555
O3_2 Na1A 1_555 1_555
O6_2 Na1 1_555 1_555
O6A_2 Na1A 1_555 1_555
O6D Na1A 1_555 1_555
O6E Na1 1_555 1_555
O7D Na1A 1_555 1_555
O7E Na1 1_555 1_555
C5 C6 1_555 1_555
C11 O8 1_555 1_555
C13 N1 1_555 1_555
Mo1 O5 1_555 1_555
Mo1 O7 1_555 1_555
O7 Na1E 1_555 1_555
C5A C6A 1_555 1_555
C11A O8A 1_555 1_555
C13A N1A 1_555 1_555
Mo1A N1A 1_555 1_555
Mo1A O5A 1_555 1_555
Mo1A O7A 1_555 1_555
O6A Na1A_2 1_555 1_555
O7A Na1D 1_555 1_555
Na1_2 O3_2 1_555 1_555
Na1D O6D 1_555 1_555
Na1E O6E 1_555 1_555

#END
