
#######################################################################
#
#                 Cambridge Crystallographic Data Centre
#                                CCDC 
#
#######################################################################
#
# If this CIF has been generated from an entry in the Cambridge 
# Structural Database, then it will include bibliographic, chemical, 
# crystal, experimental, refinement or atomic coordinate data resulting 
# from the CCDC's data processing and validation procedures.
#
#######################################################################

data_DUQGAY
_symmetry_cell_setting           monoclinic
_symmetry_space_group_name_H-M   'P 21/n'
_symmetry_Int_Tables_number      14
_space_group_name_Hall           '-P 2yn'
loop_
_symmetry_equiv_pos_site_id
_symmetry_equiv_pos_as_xyz
1 x,y,z
2 1/2-x,1/2+y,1/2-z
3 -x,-y,-z
4 1/2+x,1/2-y,1/2+z
_cell_length_a                   13.3491(4)
_cell_length_b                   9.3741(3)
_cell_length_c                   13.6106(4)
_cell_angle_alpha                90
_cell_angle_beta                 96.141(2)
_cell_angle_gamma                90
_cell_volume                     1693.4
loop_
_atom_site_label
_atom_site_type_symbol
_atom_site_fract_x
_atom_site_fract_y
_atom_site_fract_z
Cd1 Cd 0.09626(3) 0.36305(5) 0.62866(3)
Cd2 Cd 0.79136(3) 0.48120(5) 0.59420(3)
N1 N 0.0609(4) 0.1192(6) 0.6366(4)
N2 N 0.6228(4) 0.4341(6) 0.6158(4)
O1 O -0.2032(3) 0.1600(6) 0.6165(4)
O2 O -0.0829(3) 0.3191(4) 0.6019(3)
O3 O -0.0851(3) -0.3599(4) 0.5475(3)
O4 O 0.0539(3) -0.4087(5) 0.6490(3)
O5 O 0.5708(4) 0.8011(6) 0.6430(4)
O6 O 0.7090(3) 0.6978(5) 0.6033(4)
O7 O 0.2503(4) 0.5068(5) 0.5767(4)
O8 O 0.2644(3) 0.2948(6) 0.6484(4)
C1 C -0.0352(4) 0.0751(7) 0.6215(4)
C2 C -0.0610(4) -0.0669(6) 0.6118(4)
H1 H -0.1283 -0.0942 0.6016
C3 C 0.0148(5) -0.1683(7) 0.6174(4)
C4 C 0.1132(5) -0.1236(7) 0.6364(4)
H2 H 0.1655 -0.1896 0.6433
C5 C 0.1330(5) 0.0198(7) 0.6449(5)
H3 H 0.1998 0.0491 0.6571
C6 C -0.1141(4) 0.1926(7) 0.6133(4)
C7 C -0.0070(5) -0.3267(7) 0.6038(4)
C8 C 0.5660(5) 0.5503(7) 0.6205(4)
C9 C 0.4621(5) 0.5437(8) 0.6200(4)
H4 H 0.4241 0.6268 0.6208
C10 C 0.4162(5) 0.4117(7) 0.6183(5)
C11 C 0.4752(5) 0.2928(8) 0.6207(5)
H5 H 0.447 0.2025 0.6245
C12 C 0.5773(5) 0.3089(8) 0.6172(6)
H6 H 0.6165 0.227 0.6157
C13 C 0.6195(5) 0.6932(8) 0.6220(5)
C14 C 0.3034(5) 0.4030(9) 0.6141(5)
O9 O 0.1092(4) 0.3695(6) 0.8005(4)
H7 H 0.1324 0.4475 0.8249
H8 H 0.0663 0.3389 0.8358
O10 O 0.8296(4) 0.5134(5) 0.7601(4)
H9 H 0.7809 0.5491 0.7884
H10 H 0.8767 0.4941 0.8084
Cd1B Cd -0.09626(3) -0.36305(5) 0.37134(3)
Cd1_2 Cd 0.09626(3) -0.63695(5) 0.62866(3)
Cd2_2 Cd -0.20864(3) 0.48120(5) 0.59420(3)
Cd2_3 Cd -0.20864(3) -0.51880(5) 0.59420(3)
Cd2B Cd 0.20864(3) 0.51880(5) 0.40580(3)
O2_2 O 0.9171(3) 0.3191(4) 0.6019(3)
O3B O 0.0851(3) 0.3599(4) 0.4525(3)
O3_2 O 0.9149(3) 0.6401(4) 0.5475(3)
O4_2 O 0.0539(3) 0.5913(5) 0.6490(3)
O7B O 0.7497(4) 0.4932(5) 0.4233(4)
O11 O 0.3283(7) 0.0123(8) 0.5209(6)
H11 H 0.3102 0.066 0.5672
H12 H 0.3752 0.0623 0.4944
loop_
_geom_bond_atom_site_label_1
_geom_bond_atom_site_label_2
_geom_bond_site_symmetry_1
_geom_bond_site_symmetry_2
Cd1 N1 1_555 1_555
Cd2 N2 1_555 1_555
N1 C1 1_555 1_555
N2 C8 1_555 1_555
O1 C6 1_555 1_555
O2 Cd1 1_555 1_555
O3 C7 1_555 1_555
O4 C7 1_555 1_555
O5 C13 1_555 1_555
O6 Cd2 1_555 1_555
O7 Cd1 1_555 1_555
O8 Cd1 1_555 1_555
C1 C2 1_555 1_555
C2 H1 1_555 1_555
C3 C2 1_555 1_555
C4 C3 1_555 1_555
H2 C4 1_555 1_555
C5 N1 1_555 1_555
H3 C5 1_555 1_555
C6 O2 1_555 1_555
C7 C3 1_555 1_555
C8 C9 1_555 1_555
C9 H4 1_555 1_555
C10 C9 1_555 1_555
C11 C10 1_555 1_555
H5 C11 1_555 1_555
C12 N2 1_555 1_555
H6 C12 1_555 1_555
C13 O6 1_555 1_555
C14 O7 1_555 1_555
O9 Cd1 1_555 1_555
H7 O9 1_555 1_555
H8 O9 1_555 1_555
O10 Cd2 1_555 1_555
H9 O10 1_555 1_555
H10 O10 1_555 1_555
O11 H11 1_555 1_555
H12 O11 1_555 1_555
Cd1B O3 1_555 1_555
Cd1_2 O4 1_555 1_555
Cd2_2 O2 1_555 1_555
Cd2_3 O3 1_555 1_555
Cd2B O7 1_555 1_555
O2_2 Cd2 1_555 1_555
O3B Cd1 1_555 1_555
O3_2 Cd2 1_555 1_555
O4_2 Cd1 1_555 1_555
O7B Cd2 1_555 1_555
O8 C14 1_555 1_555
C1 C6 1_555 1_555
C4 C5 1_555 1_555
C8 C13 1_555 1_555
C10 C14 1_555 1_555
C11 C12 1_555 1_555
Cd2B O3B 1_555 1_555

#END
