
#######################################################################
#
#                 Cambridge Crystallographic Data Centre
#                                CCDC 
#
#######################################################################
#
# If this CIF has been generated from an entry in the Cambridge 
# Structural Database, then it will include bibliographic, chemical, 
# crystal, experimental, refinement or atomic coordinate data resulting 
# from the CCDC's data processing and validation procedures.
#
#######################################################################

data_DUQGEC
_symmetry_cell_setting           monoclinic
_symmetry_space_group_name_H-M   'P 21/c'
_symmetry_Int_Tables_number      14
_space_group_name_Hall           '-P 2ybc'
loop_
_symmetry_equiv_pos_site_id
_symmetry_equiv_pos_as_xyz
1 x,y,z
2 -x,1/2+y,1/2-z
3 -x,-y,-z
4 x,1/2-y,1/2+z
_cell_length_a                   13.5940(14)
_cell_length_b                   10.7110(7)
_cell_length_c                   11.9500(11)
_cell_angle_alpha                90
_cell_angle_beta                 93.87(5)
_cell_angle_gamma                90
_cell_volume                     1736.02
loop_
_atom_site_label
_atom_site_type_symbol
_atom_site_fract_x
_atom_site_fract_y
_atom_site_fract_z
C1 C 0.7428(3) 0.0659(5) 0.6776(4)
C2 C 0.7925(3) 0.0717(4) 0.7946(4)
C3 C 0.8129(3) 0.1827(5) 0.8481(4)
H1 H 0.7982 0.2582 0.8123
C4 C 0.8555(3) 0.1805(5) 0.9557(3)
H2 H 0.8681 0.2552 0.9937
C5 C 0.8798(3) 0.0689(5) 1.0078(4)
C6 C 0.8578(3) -0.0388(4) 0.9476(4)
H3 H 0.8736 -0.1153 0.9810
C7 C 0.9277(3) 0.0647(4) 1.1252(4)
C8 C 0.7561(3) -0.4309(4) 0.8244(4)
C9 C 0.7060(3) -0.4380(4) 0.7062(4)
C10 C 0.6703(3) -0.5471(4) 0.6603(4)
H4 H 0.6720 -0.6204 0.7021
C11 C 0.6312(3) -0.5458(4) 0.5492(4)
H5 H 0.6059 -0.6185 0.5158
C12 C 0.6306(3) -0.4353(5) 0.4895(4)
C13 C 0.6658(2) -0.3296(4) 0.5441(3)
H6 H 0.6636 -0.2545 0.5050
C14 C 0.5979(3) -0.4323(4) 0.3662(4)
N1 N 0.8146(2) -0.0385(4) 0.8426(3)
N2 N 0.7028(2) -0.3295(4) 0.6502(3)
Ni1 Ni 0.76075(4) -0.18565(6) 0.74556(6)
O1 O 0.72945(19) -0.0443(3) 0.6364(3)
O2 O 0.7180(2) 0.1625(3) 0.6295(3)
O3 O 0.9593(2) 0.1657(3) 1.1661(3)
O4 O 0.9350(2) -0.0381(3) 1.1742(3)
O5 O 0.78970(18) -0.3262(3) 0.8555(3)
O6 O 0.7624(2) -0.5275(3) 0.8811(3)
O7 O 0.61255(18) -0.3316(3) 0.3141(3)
O8 O 0.5620(2) -0.5273(3) 0.3222(3)
O9 O 0.89967(19) -0.2108(3) 0.6720(3)
O10 O 1.0175(2) -0.0793(3) 0.3873(3)
O11 O 0.5210(2) -0.0876(3) 0.3889(3)
O12 O 0.5386(2) 0.2146(4) 0.3604(4)
Na1 Na 0.61622(12) 0.0744(2) 0.48182(18)
Na2 Na 0.87962(12) -0.0686(2) 0.51574(17)
H7 H 0.912(3) -0.2974(12) 0.672(5)
H8 H 0.950(3) -0.181(5) 0.721(3)
H9 H 0.995(4) -0.064(6) 0.3133(18)
H10 H 1.017(3) -0.1664(11) 0.390(5)
H11 H 0.553(3) 0.2991(17) 0.348(5)
H12 H 0.488(3) 0.175(5) 0.317(4)
H13 H 0.478(3) -0.073(5) 0.326(3)
H14 H 0.550(3) -0.163(3) 0.369(5)
Ni1C Ni 0.76075(4) -0.31435(6) 0.24556(6)
O5C O 0.78970(18) -0.1738(3) 0.3555(3)
O6C O 0.7624(2) 0.0275(3) 0.3811(3)
O7C O 0.61255(18) -0.1684(3) 0.8141(3)
O10B O 0.9825(2) 0.0793(3) 0.6127(3)
O11B O 0.4790(2) 0.0876(3) 0.6111(3)
Na1C Na 0.61622(12) -0.5744(2) 0.98182(18)
Na1B Na 0.38378(12) -0.0744(2) 0.51818(18)
Na2C Na 0.87962(12) -0.4314(2) 1.01574(17)
Na2B Na 1.12038(12) 0.0686(2) 0.48426(17)
H9B H 1.005(4) 0.064(6) 0.6867(18)
H10B H 0.983(3) 0.1664(11) 0.610(5)
H13B H 0.522(3) 0.073(5) 0.674(3)
H14B H 0.450(3) 0.163(3) 0.631(5)
loop_
_geom_bond_atom_site_label_1
_geom_bond_atom_site_label_2
_geom_bond_site_symmetry_1
_geom_bond_site_symmetry_2
C1 C2 1_555 1_555
C2 C3 1_555 1_555
C3 H1 1_555 1_555
C4 C3 1_555 1_555
H2 C4 1_555 1_555
C5 C4 1_555 1_555
C6 C5 1_555 1_555
H3 C6 1_555 1_555
C7 C5 1_555 1_555
C8 C9 1_555 1_555
C9 C10 1_555 1_555
C10 H4 1_555 1_555
C11 C10 1_555 1_555
H5 C11 1_555 1_555
C12 C11 1_555 1_555
C13 C12 1_555 1_555
H6 C13 1_555 1_555
C14 C12 1_555 1_555
N1 C2 1_555 1_555
N2 C9 1_555 1_555
Ni1 N1 1_555 1_555
O1 C1 1_555 1_555
O2 C1 1_555 1_555
O3 C7 1_555 1_555
O4 C7 1_555 1_555
O5 C8 1_555 1_555
O6 C8 1_555 1_555
O7 C14 1_555 1_555
O8 C14 1_555 1_555
O9 Ni1 1_555 1_555
O10 Na2 1_555 1_555
O11 Na1 1_555 1_555
O12 Na1 1_555 1_555
Na1 O1 1_555 1_555
Na2 O1 1_555 1_555
H7 O9 1_555 1_555
H8 O9 1_555 1_555
H9 O10 1_555 1_555
H10 O10 1_555 1_555
H11 O12 1_555 1_555
H12 O12 1_555 1_555
H13 O11 1_555 1_555
H14 O11 1_555 1_555
Ni1C O7 1_555 1_555
O5C Na2 1_555 1_555
O6C Na1 1_555 1_555
O7C Ni1 1_555 1_555
O10B Na2 1_555 1_555
O11B Na1 1_555 1_555
Na1C O6 1_555 1_555
Na1B O11 1_555 1_555
Na2C O5 1_555 1_555
Na2B O10 1_555 1_555
H9B O10B 1_555 1_555
H10B O10B 1_555 1_555
H13B O11B 1_555 1_555
H14B O11B 1_555 1_555
C6 N1 1_555 1_555
C13 N2 1_555 1_555
N2 Ni1 1_555 1_555
Ni1 O1 1_555 1_555
Ni1 O5 1_555 1_555
O2 Na1 1_555 1_555
O6 Na2C 1_555 1_555
O9 Na2 1_555 1_555
Na2 O6C 1_555 1_555
Ni1C O5C 1_555 1_555
O10B Na2B 1_555 1_555
O11B Na1B 1_555 1_555

#END
