
#######################################################################
#
#                 Cambridge Crystallographic Data Centre
#                                CCDC 
#
#######################################################################
#
# If this CIF has been generated from an entry in the Cambridge 
# Structural Database, then it will include bibliographic, chemical, 
# crystal, experimental, refinement or atomic coordinate data resulting 
# from the CCDC's data processing and validation procedures.
#
#######################################################################

data_DUQGED
_symmetry_cell_setting           triclinic
_symmetry_space_group_name_H-M   'P -1'
_symmetry_Int_Tables_number      2
_space_group_name_Hall           '-P 1'
loop_
_symmetry_equiv_pos_site_id
_symmetry_equiv_pos_as_xyz
1 x,y,z
2 -x,-y,-z
_cell_length_a                   8.4211(10)
_cell_length_b                   15.5611(18)
_cell_length_c                   16.2456(19)
_cell_angle_alpha                102.443(3)
_cell_angle_beta                 97.664(4)
_cell_angle_gamma                100.510(4)
_cell_volume                     2010.64
loop_
_atom_site_label
_atom_site_type_symbol
_atom_site_fract_x
_atom_site_fract_y
_atom_site_fract_z
C1 C 0.1480(16) 0.6103(8) 0.5631(7)
H1 H 0.2226 0.5708 0.5535
H2 H 0.0838 0.5940 0.6042
H3 H 0.2092 0.6714 0.5847
C2 C 0.0930(14) 1.2025(7) 0.4954(8)
H4 H -0.0027 1.1983 0.4542
H5 H 0.1810 1.2481 0.4894
H6 H 0.0688 1.2179 0.5522
C3 C 0.1620(12) 1.2784(7) 0.2895(7)
H7 H 0.0995 1.2509 0.2331
H8 H 0.0897 1.2959 0.3278
H9 H 0.2179 1.2360 0.3092
C4 C 0.3948(16) 1.4047(8) 0.3749(8)
H10 H 0.4413 1.3595 0.3950
H11 H 0.3278 1.4281 0.4138
H12 H 0.4815 1.4528 0.3717
C5 C 0.1956(18) 1.4338(9) 0.2653(9)
H13 H 0.2715 1.4858 0.2606
H14 H 0.1352 1.4512 0.3099
H15 H 0.1209 1.4081 0.2119
C6 C 0.5906(14) 1.3813(7) -0.0361(6)
H16 H 0.7028 1.4027 -0.0075
H17 H 0.5687 1.4136 -0.0790
H18 H 0.5716 1.3181 -0.0628
C7 C 0.5282(9) 1.0549(6) 0.1074(5)
H19 H 0.5371 0.9923 0.0966
H20 H 0.5678 1.0794 0.0620
C8 C 0.3482(10) 1.0593(6) 0.1051(5)
C9 C -0.1053(16) 0.7914(8) -0.0223(8)
H21 H -0.1552 0.7657 0.0192
H22 H -0.0468 0.7505 -0.0517
H23 H -0.1889 0.8018 -0.0629
N1 N 0.4738(8) 0.8677(5) 0.3621(4)
N2 N 0.6321(8) 1.1047(4) 0.1893(4)
O1 O 0.2609(8) 0.8525(4) 0.1207(4)
O2 O 0.5579(7) 0.8313(4) 0.1956(4)
O3 O 0.1896(7) 1.0028(4) 0.6019(4)
O4 O 0.3178(8) 1.1042(4) 0.3561(4)
O5 O 0.0250(7) 0.9537(4) -0.1301(4)
O6 O 0.6530(8) 1.1284(4) 0.3767(4)
O7 O 0.4601(7) 0.9825(3) 0.2581(3)
O8 O 0.2679(7) 0.7365(4) 0.2256(4)
O9 O 0.1799(7) 0.8892(4) 0.2872(3)
O10 O 0.0886(9) 0.9231(5) 0.4092(5)
O11 O 0.0448(9) 0.6027(5) 0.4866(4)
O12 O 0.1407(8) 1.1178(4) 0.4815(4)
O13 O 0.4993(7) 1.2328(3) 0.2931(3)
O14 O 0.3068(6) 1.0872(4) 0.1776(3)
O15 O 0.2556(7) 1.0341(4) 0.0346(3)
O16 O 0.4869(9) 1.3952(5) 0.0235(4)
O17 O 0.0034(9) 0.8729(5) 0.0190(5)
C10 C 0.2148(10) 0.7009(5) 0.2899(5)
C11 C 0.3170(10) 0.7183(6) 0.3668(5)
C12 C 0.2661(11) 0.6868(6) 0.4351(6)
H24 H 0.3363 0.6998 0.4876
C13 C 0.1107(11) 0.6363(6) 0.4231(6)
C14 C 0.0083(11) 0.6159(5) 0.3455(6)
H25 H -0.0959 0.5801 0.3395
C15 C 0.0515(11) 0.6457(5) 0.2755(6)
C16 C -0.0678(12) 0.6252(6) 0.1913(6)
C17 C -0.2232(15) 0.5539(8) 0.1899(8)
H26 H -0.2766 0.5758 0.2363
H27 H -0.1924 0.4988 0.1961
H28 H -0.2970 0.5427 0.1365
C18 C -0.1238(13) 0.7091(7) 0.1779(8)
H29 H -0.1643 0.7361 0.2275
H30 H -0.2096 0.6931 0.1285
H31 H -0.0329 0.7512 0.1692
C19 C 0.0114(16) 0.5850(9) 0.1145(7)
H32 H -0.0653 0.5733 0.0620
H33 H 0.0399 0.5297 0.1217
H34 H 0.1086 0.6272 0.1126
C20 C 0.4846(10) 0.7794(6) 0.3798(6)
H35 H 0.5397 0.7888 0.4385
H36 H 0.5499 0.7504 0.3422
C21 C 0.3729(12) 0.9132(6) 0.4153(5)
H37 H 0.4274 0.9762 0.4375
H38 H 0.3634 0.8867 0.4638
C22 C 0.2030(11) 0.9073(5) 0.3680(6)
C23 C 0.4985(10) 1.2748(5) 0.2277(5)
C24 C 0.3971(10) 1.3379(5) 0.2204(6)
C25 C 0.4043(10) 1.3769(6) 0.1514(6)
H39 H 0.3428 1.4199 0.1458
C26 C 0.5000(11) 1.3537(5) 0.0903(5)
C27 C 0.6013(11) 1.2957(5) 0.0995(6)
H40 H 0.6692 1.2823 0.0600
C28 C 0.6005(10) 1.2566(5) 0.1703(6)
C29 C 0.2908(12) 1.3636(6) 0.2870(6)
C30 C 0.7182(10) 1.1968(6) 0.1856(6)
H41 H 0.7820 1.1908 0.1400
H42 H 0.7938 1.2252 0.2392
Zn1 Zn 0.0000 1.0000 0.5000
Zn2 Zn 0.0000 1.0000 0.0000
Mo1 Mo 0.37629(8) 0.85533(4) 0.21744(4)
Mo2 Mo 0.47744(8) 1.10765(4) 0.30021(4)
C1A C -0.1480(16) 1.3897(8) -0.5631(7)
H1A H -0.2226 1.4292 -0.5535
H2A H -0.0838 1.4060 -0.6042
H3A H -0.2092 1.3286 -0.5847
C3A C -0.1620(12) 0.7216(7) -0.2895(7)
H7A H -0.0995 0.7491 -0.2331
H8A H -0.0897 0.7041 -0.3278
H9A H -0.2179 0.7640 -0.3092
C4A C -0.3948(16) 0.5953(8) -0.3749(8)
H10A H -0.4413 0.6405 -0.3950
H11A H -0.3278 0.5719 -0.4138
H12A H -0.4815 0.5472 -0.3717
C5A C -0.1956(18) 0.5662(9) -0.2653(9)
H13A H -0.2715 0.5142 -0.2606
H14A H -0.1352 0.5488 -0.3099
H15A H -0.1209 0.5919 -0.2119
C6A C -0.5906(14) 0.6187(7) 0.0361(6)
H16A H -0.7028 0.5973 0.0075
H17A H -0.5687 0.5864 0.0790
H18A H -0.5716 0.6819 0.0628
C7A C -0.5282(9) 0.9451(6) -0.1074(5)
H19A H -0.5371 1.0077 -0.0966
H20A H -0.5678 0.9206 -0.0620
C8A C -0.3482(10) 0.9407(6) -0.1051(5)
C9A C 0.1053(16) 1.2086(8) 0.0223(8)
H21A H 0.1552 1.2343 -0.0192
H22A H 0.0468 1.2495 0.0517
H23A H 0.1889 1.1982 0.0629
N1A N -0.4738(8) 1.1323(5) -0.3621(4)
N2A N -0.6321(8) 0.8953(4) -0.1893(4)
O1A O -0.2609(8) 1.1475(4) -0.1207(4)
O2A O -0.5579(7) 1.1687(4) -0.1956(4)
O4A O -0.3178(8) 0.8958(4) -0.3561(4)
O5A O -0.0250(7) 1.0463(4) 0.1301(4)
O6A O -0.6530(8) 0.8716(4) -0.3767(4)
O7A O -0.4601(7) 1.0175(3) -0.2581(3)
O8A O -0.2679(7) 1.2635(4) -0.2256(4)
O9A O -0.1799(7) 1.1108(4) -0.2872(3)
O10A O -0.0886(9) 1.0769(5) -0.4092(5)
O11A O -0.0448(9) 1.3973(5) -0.4866(4)
O13A O -0.4993(7) 0.7672(3) -0.2931(3)
O14A O -0.3068(6) 0.9128(4) -0.1776(3)
O15A O -0.2556(7) 0.9659(4) -0.0346(3)
O16A O -0.4869(9) 0.6048(5) -0.0235(4)
O17A O -0.0034(9) 1.1271(5) -0.0190(5)
C10A C -0.2148(10) 1.2991(5) -0.2899(5)
C11A C -0.3170(10) 1.2817(6) -0.3668(5)
C12A C -0.2661(11) 1.3132(6) -0.4351(6)
H24A H -0.3363 1.3002 -0.4876
C13A C -0.1107(11) 1.3637(6) -0.4231(6)
C14A C -0.0083(11) 1.3841(5) -0.3455(6)
H25A H 0.0959 1.4199 -0.3395
C15A C -0.0515(11) 1.3543(5) -0.2755(6)
C16A C 0.0678(12) 1.3748(6) -0.1913(6)
C17A C 0.2232(15) 1.4461(8) -0.1899(8)
H26A H 0.2766 1.4242 -0.2363
H27A H 0.1924 1.5012 -0.1961
H28A H 0.2970 1.4573 -0.1365
C18A C 0.1238(13) 1.2909(7) -0.1779(8)
H29A H 0.1643 1.2639 -0.2275
H30A H 0.2096 1.3069 -0.1285
H31A H 0.0329 1.2488 -0.1692
C19A C -0.0114(16) 1.4150(9) -0.1145(7)
H32A H 0.0653 1.4267 -0.0620
H33A H -0.0399 1.4703 -0.1217
H34A H -0.1086 1.3728 -0.1126
C20A C -0.4846(10) 1.2206(6) -0.3798(6)
H35A H -0.5397 1.2112 -0.4385
H36A H -0.5499 1.2496 -0.3422
C21A C -0.3729(12) 1.0868(6) -0.4153(5)
H37A H -0.4274 1.0238 -0.4375
H38A H -0.3634 1.1133 -0.4638
C22A C -0.2030(11) 1.0927(5) -0.3680(6)
C23A C -0.4985(10) 0.7252(5) -0.2277(5)
C24A C -0.3971(10) 0.6621(5) -0.2204(6)
C25A C -0.4043(10) 0.6231(6) -0.1514(6)
H39A H -0.3428 0.5801 -0.1458
C26A C -0.5000(11) 0.6463(5) -0.0903(5)
C27A C -0.6013(11) 0.7043(5) -0.0995(6)
H40A H -0.6692 0.7177 -0.0600
C28A C -0.6005(10) 0.7434(5) -0.1703(6)
C29A C -0.2908(12) 0.6364(6) -0.2870(6)
C30A C -0.7182(10) 0.8032(6) -0.1856(6)
H41A H -0.7820 0.8092 -0.1400
H42A H -0.7938 0.7748 -0.2392
Mo1A Mo -0.37629(8) 1.14467(4) -0.21744(4)
Mo2A Mo -0.47744(8) 0.89235(4) -0.30021(4)
C2A C -0.0930(14) 0.7975(7) 0.5046(8)
H4A H 0.0027 0.8017 0.5458
H5A H -0.1810 0.7519 0.5106
H6A H -0.0688 0.7821 0.4478
O12A O -0.1407(8) 0.8822(4) 0.5185(4)
O3A O -0.1896(7) 0.9972(4) 0.3981(4)
O10A_2 O -0.0886(9) 1.0769(5) 0.5908(5)
Zn1_2 Zn 0.0000 1.0000 -0.5000
loop_
_geom_bond_atom_site_label_1
_geom_bond_atom_site_label_2
_geom_bond_site_symmetry_1
_geom_bond_site_symmetry_2
C1 H1 1_555 1_555
H2 C1 1_555 1_555
H3 C1 1_555 1_555
C2 H4 1_555 1_555
H5 C2 1_555 1_555
H6 C2 1_555 1_555
C3 H7 1_555 1_555
H8 C3 1_555 1_555
H9 C3 1_555 1_555
C4 H10 1_555 1_555
H11 C4 1_555 1_555
H12 C4 1_555 1_555
C5 H13 1_555 1_555
H14 C5 1_555 1_555
H15 C5 1_555 1_555
C6 H16 1_555 1_555
H17 C6 1_555 1_555
H18 C6 1_555 1_555
C7 H19 1_555 1_555
H20 C7 1_555 1_555
C8 C7 1_555 1_555
C9 H21 1_555 1_555
H22 C9 1_555 1_555
H23 C9 1_555 1_555
N1 C20 1_555 1_555
N2 C7 1_555 1_555
O1 Mo1 1_555 1_555
O2 Mo1 1_555 1_555
O3 Zn1 1_555 1_555
O4 Mo2 1_555 1_555
O5 Zn2 1_555 1_555
O6 Mo2 1_555 1_555
O7 Mo1 1_555 1_555
O8 C10 1_555 1_555
O9 C22 1_555 1_555
O10 C22 1_555 1_555
O11 C1 1_555 1_555
O12 C2 1_555 1_555
O13 C23 1_555 1_555
O14 C8 1_555 1_555
O15 C8 1_555 1_555
O16 C6 1_555 1_555
O17 C9 1_555 1_555
C10 C11 1_555 1_555
C11 C12 1_555 1_555
C12 H24 1_555 1_555
C13 O11 1_555 1_555
C14 C13 1_555 1_555
H25 C14 1_555 1_555
C15 C10 1_555 1_555
C16 C15 1_555 1_555
C17 C16 1_555 1_555
H26 C17 1_555 1_555
H27 C17 1_555 1_555
H28 C17 1_555 1_555
C18 C16 1_555 1_555
H29 C18 1_555 1_555
H30 C18 1_555 1_555
H31 C18 1_555 1_555
C19 C16 1_555 1_555
H32 C19 1_555 1_555
H33 C19 1_555 1_555
H34 C19 1_555 1_555
C20 C11 1_555 1_555
H35 C20 1_555 1_555
H36 C20 1_555 1_555
C21 N1 1_555 1_555
H37 C21 1_555 1_555
H38 C21 1_555 1_555
C22 C21 1_555 1_555
C23 C24 1_555 1_555
C24 C25 1_555 1_555
C25 H39 1_555 1_555
C26 O16 1_555 1_555
C27 C26 1_555 1_555
H40 C27 1_555 1_555
C28 C23 1_555 1_555
C29 C3 1_555 1_555
C30 N2 1_555 1_555
H41 C30 1_555 1_555
H42 C30 1_555 1_555
Zn1 O10 1_555 1_555
Zn2 O15 1_555 1_555
Mo1 N1 1_555 1_555
Mo2 N2 1_555 1_555
C1A H1A 1_555 1_555
H2A C1A 1_555 1_555
H3A C1A 1_555 1_555
C3A H7A 1_555 1_555
H8A C3A 1_555 1_555
H9A C3A 1_555 1_555
C4A H10A 1_555 1_555
H11A C4A 1_555 1_555
H12A C4A 1_555 1_555
C5A H13A 1_555 1_555
H14A C5A 1_555 1_555
H15A C5A 1_555 1_555
C6A H16A 1_555 1_555
H17A C6A 1_555 1_555
H18A C6A 1_555 1_555
C7A H19A 1_555 1_555
H20A C7A 1_555 1_555
C8A C7A 1_555 1_555
C9A H21A 1_555 1_555
H22A C9A 1_555 1_555
H23A C9A 1_555 1_555
N1A C20A 1_555 1_555
N2A C7A 1_555 1_555
O1A Mo1A 1_555 1_555
O2A Mo1A 1_555 1_555
O4A Mo2A 1_555 1_555
O5A Zn2 1_555 1_555
O6A Mo2A 1_555 1_555
O7A Mo1A 1_555 1_555
O8A C10A 1_555 1_555
O9A C22A 1_555 1_555
O10A C22A 1_555 1_555
O11A C1A 1_555 1_555
O13A C23A 1_555 1_555
O14A C8A 1_555 1_555
O15A Zn2 1_555 1_555
O16A C6A 1_555 1_555
O17A Zn2 1_555 1_555
C10A C11A 1_555 1_555
C11A C12A 1_555 1_555
C12A H24A 1_555 1_555
C13A O11A 1_555 1_555
C14A C13A 1_555 1_555
H25A C14A 1_555 1_555
C15A C10A 1_555 1_555
C16A C15A 1_555 1_555
C17A C16A 1_555 1_555
H26A C17A 1_555 1_555
H27A C17A 1_555 1_555
H28A C17A 1_555 1_555
C18A C16A 1_555 1_555
H29A C18A 1_555 1_555
H30A C18A 1_555 1_555
H31A C18A 1_555 1_555
C19A C16A 1_555 1_555
H32A C19A 1_555 1_555
H33A C19A 1_555 1_555
H34A C19A 1_555 1_555
C20A C11A 1_555 1_555
H35A C20A 1_555 1_555
H36A C20A 1_555 1_555
C21A N1A 1_555 1_555
H37A C21A 1_555 1_555
H38A C21A 1_555 1_555
C22A C21A 1_555 1_555
C23A C24A 1_555 1_555
C24A C25A 1_555 1_555
C25A H39A 1_555 1_555
C26A O16A 1_555 1_555
C27A C26A 1_555 1_555
H40A C27A 1_555 1_555
C28A C23A 1_555 1_555
C29A C3A 1_555 1_555
C30A N2A 1_555 1_555
H41A C30A 1_555 1_555
H42A C30A 1_555 1_555
Mo1A N1A 1_555 1_555
Mo2A N2A 1_555 1_555
C2A H4A 1_555 1_555
H5A C2A 1_555 1_555
H6A C2A 1_555 1_555
O12A Zn1 1_555 1_555
O3A Zn1 1_555 1_555
O10A_2 Zn1 1_555 1_555
Zn1_2 O10A 1_555 1_555
C4 C29 1_555 1_555
C5 C29 1_555 1_555
O7 Mo2 1_555 1_555
O8 Mo1 1_555 1_555
O9 Mo1 1_555 1_555
O12 Zn1 1_555 1_555
O13 Mo2 1_555 1_555
O14 Mo2 1_555 1_555
O17 Zn2 1_555 1_555
C12 C13 1_555 1_555
C14 C15 1_555 1_555
C24 C29 1_555 1_555
C25 C26 1_555 1_555
C27 C28 1_555 1_555
C28 C30 1_555 1_555
C4A C29A 1_555 1_555
C5A C29A 1_555 1_555
C8A O15A 1_555 1_555
C9A O17A 1_555 1_555
O7A Mo2A 1_555 1_555
O8A Mo1A 1_555 1_555
O9A Mo1A 1_555 1_555
O13A Mo2A 1_555 1_555
O14A Mo2A 1_555 1_555
C12A C13A 1_555 1_555
C14A C15A 1_555 1_555
C24A C29A 1_555 1_555
C25A C26A 1_555 1_555
C27A C28A 1_555 1_555
C28A C30A 1_555 1_555
C2A O12A 1_555 1_555

#END
