
#######################################################################
#
#                 Cambridge Crystallographic Data Centre
#                                CCDC 
#
#######################################################################
#
# If this CIF has been generated from an entry in the Cambridge 
# Structural Database, then it will include bibliographic, chemical, 
# crystal, experimental, refinement or atomic coordinate data resulting 
# from the CCDC's data processing and validation procedures.
#
#######################################################################

data_DUQNEK
_symmetry_cell_setting           triclinic
_symmetry_space_group_name_H-M   'P -1'
_symmetry_Int_Tables_number      2
_space_group_name_Hall           '-P 1'
loop_
_symmetry_equiv_pos_site_id
_symmetry_equiv_pos_as_xyz
1 x,y,z
2 -x,-y,-z
_cell_length_a                   11.4503(6)
_cell_length_b                   12.4739(7)
_cell_length_c                   20.7387(12)
_cell_angle_alpha                94.775(4)
_cell_angle_beta                 102.112(4)
_cell_angle_gamma                115.971(4)
_cell_volume                     2551.5
loop_
_atom_site_label
_atom_site_type_symbol
_atom_site_fract_x
_atom_site_fract_y
_atom_site_fract_z
C1 C 0.8669(8) 0.4417(8) 0.4202(4)
H1 H 0.9496 0.4970 0.4117
H2 H 0.8424 0.4852 0.4506
H3 H 0.8791 0.3791 0.4398
C2 C 0.6337(6) 0.3049(6) 0.3592(3)
C3 C 0.5866(7) 0.3037(7) 0.4151(4)
H4 H 0.6411 0.3599 0.4549
C4 C 0.4556(8) 0.2165(9) 0.4110(4)
H5 H 0.4218 0.2142 0.4482
C5 C 0.3789(7) 0.1363(9) 0.3537(4)
H6 H 0.2924 0.0778 0.3522
C6 C 0.4229(6) 0.1365(6) 0.2960(3)
C7 C 0.5529(5) 0.2248(5) 0.2978(3)
C8 C 0.3347(6) 0.0432(6) 0.2378(4)
H7 H 0.2544 -0.0151 0.2436
C9 C 0.2454(11) -0.0859(11) 0.1331(6)
H8 H 0.2772 -0.1461 0.1369
H9 H 0.1651 -0.1143 0.1491
C10 C 0.2075(13) -0.0842(14) 0.0666(8)
H10 H 0.1707 -0.0275 0.0622
H11 H 0.1351 -0.1644 0.0438
C11 C 0.3185(8) -0.0492(7) 0.0296(4)
H12 H 0.3665 -0.0963 0.0387
H13 H 0.2784 -0.0660 -0.0186
C12 C 0.4312(7) 0.1477(7) 0.0090(3)
H14 H 0.3800 0.1080 -0.0349
C13 C 0.5207(7) 0.2743(7) 0.0182(3)
C14 C 0.5085(9) 0.3262(10) -0.0396(4)
H15 H 0.4446 0.2781 -0.0798
C15 C 0.5896(11) 0.4457(10) -0.0364(4)
H16 H 0.5800 0.4788 -0.0745
C16 C 0.6868(9) 0.5196(8) 0.0224(4)
H17 H 0.7432 0.6012 0.0239
C17 C 0.6977(6) 0.4692(6) 0.0788(3)
C18 C 0.6169(6) 0.3460(6) 0.0775(3)
C19 C 0.8771(9) 0.6603(6) 0.1435(5)
H18 H 0.9325 0.6975 0.1888
H19 H 0.9333 0.6638 0.1145
H20 H 0.8271 0.7030 0.1290
C20 C 0.4682(6) 0.4181(7) 0.2050(4)
H21 H 0.4637 0.3638 0.1678
H22 H 0.4063 0.3727 0.2292
H23 H 0.4445 0.4776 0.1884
C21 C 0.6242(6) 0.5616(6) 0.3062(3)
C22 C 0.5238(8) 0.5722(10) 0.3265(4)
H24 H 0.4340 0.5234 0.3023
C23 C 0.5577(10) 0.6577(12) 0.3844(5)
H25 H 0.4898 0.6649 0.3993
C24 C 0.6889(9) 0.7302(10) 0.4191(5)
H26 H 0.7102 0.7882 0.4568
C25 C 0.7925(7) 0.7185(7) 0.3987(4)
C26 C 0.7614(6) 0.6341(6) 0.3413(3)
C27 C 0.9276(8) 0.7929(8) 0.4415(4)
H27 H 0.9364 0.8435 0.4797
C28 C 1.1611(11) 0.8785(14) 0.4881(6)
H28 H 1.1390 0.9302 0.5153
H29 H 1.1822 0.8277 0.5164
C29 C 1.2744(13) 0.9509(13) 0.4716(7)
H30 H 1.3400 1.0082 0.5120
H31 H 1.2526 0.9976 0.4405
C30 C 1.3402(8) 0.8852(9) 0.4400(5)
H32 H 1.4225 0.9452 0.4321
H33 H 1.3651 0.8405 0.4715
C31 C 1.3157(6) 0.7901(7) 0.3335(4)
H34 H 1.4077 0.8439 0.3456
C32 C 1.2629(6) 0.7064(6) 0.2701(4)
C33 C 1.3550(7) 0.7188(9) 0.2323(5)
H35 H 1.4426 0.7826 0.2472
C34 C 1.3182(9) 0.6404(10) 0.1754(6)
H36 H 1.3797 0.6522 0.1503
C35 C 1.1869(8) 0.5387(8) 0.1521(5)
H37 H 1.1628 0.4829 0.1129
C36 C 1.0968(6) 0.5253(6) 0.1892(4)
C37 C 1.1305(6) 0.6104(6) 0.2472(3)
C38 C 0.9307(8) 0.3318(8) 0.1193(5)
H38 H 0.8384 0.2724 0.1125
H39 H 0.9415 0.3617 0.0787
H40 H 0.9884 0.2951 0.1311
C39 C 0.9849(5) 0.9171(5) 0.2723(3)
C40 C 0.7280(6) 0.8343(6) 0.2201(3)
C41 C 0.7168(6) 1.0341(6) 0.1840(3)
C42 C 0.9038(6) 1.2033(6) 0.2757(3)
C43 C 0.8863(6) 0.9659(6) 0.1510(3)
C44 C 1.0715(6) 1.1472(6) 0.2369(4)
C45 C 1.0063(7) 1.0876(8) 0.3538(4)
C46 C 0.7445(6) 0.9975(7) 0.3139(3)
Cu1 Cu 0.50351(6) 0.14679(6) 0.15173(3)
Cu2 Cu 1.05150(7) 0.71922(6) 0.35063(4)
La1 La 0.79996(3) 0.42939(3) 0.24249(2)
Mo1 Mo 0.88090(4) 1.02261(4) 0.25120(2)
N1 N 0.3503(5) 0.0289(5) 0.1797(3)
N2 N 0.4128(5) 0.0821(5) 0.0537(3)
N3 N 1.0377(7) 0.7975(7) 0.4327(3)
N4 N 1.2508(5) 0.7988(5) 0.3750(3)
N5 N 1.0413(5) 0.8611(5) 0.2856(3)
N6 N 0.6496(5) 0.7348(5) 0.2031(3)
N7 N 0.6316(5) 1.0463(5) 0.1510(3)
N8 N 0.9127(6) 1.2987(5) 0.2857(3)
N9 N 0.8879(7) 0.9358(8) 0.0978(3)
N10 N 1.1691(7) 1.2124(7) 0.2267(6)
N11 N 1.0778(8) 1.1215(8) 0.4062(3)
N12 N 0.6711(7) 0.9837(7) 0.3457(4)
O1 O 0.7617(4) 0.3878(4) 0.3581(2)
O2 O 0.6013(4) 0.2369(3) 0.24474(19)
O3 O 0.6343(4) 0.3036(4) 0.13391(19)
O4 O 0.7851(5) 0.5362(4) 0.1408(2)
O5 O 0.6038(4) 0.4788(4) 0.2493(2)
O6 O 0.8556(4) 0.6176(3) 0.3180(2)
O7 O 1.0364(4) 0.5950(4) 0.2789(2)
O8 O 0.9659(4) 0.4295(4) 0.1719(2)
Cu1_2 Cu 0.50351(6) 1.14679(6) 0.15173(3)
La1_2 La 0.79996(3) 1.42939(3) 0.24249(2)
N7_2 N 0.6316(5) 0.0463(5) 0.1510(3)
N8_2 N 0.9127(6) 0.2987(5) 0.2857(3)
O9 O 0.869(2) 0.7960(19) -0.0435(11)
O10 O 0.7795(12) 0.5015(19) 0.5847(6)
H41? H 0.2221 -0.1510 0.1582
H42? H 0.1648 -0.0772 0.1165
C47? C 0.283(2) -0.1197(18) 0.0783(12)
H43? H 0.2088 -0.1981 0.0541
H44? H 0.3589 -0.1339 0.0967
H45? H 0.2361 -0.0573 -0.0002
H46? H 0.3583 -0.0836 0.0027
H47? H 1.1841 0.9617 0.4839
H48? H 1.1372 0.8680 0.5302
C48? C 1.265(2) 0.867(2) 0.4934(9)
H49? H 1.2426 0.7859 0.5014
H50? H 1.3302 0.9230 0.5343
H51? H 1.3721 0.9682 0.4330
H52? H 1.4183 0.8722 0.4551
loop_
_geom_bond_atom_site_label_1
_geom_bond_atom_site_label_2
_geom_bond_site_symmetry_1
_geom_bond_site_symmetry_2
C1 H1 1_555 1_555
H2 C1 1_555 1_555
H3 C1 1_555 1_555
C2 C3 1_555 1_555
C3 H4 1_555 1_555
C4 C3 1_555 1_555
H5 C4 1_555 1_555
C5 C4 1_555 1_555
H6 C5 1_555 1_555
C6 C5 1_555 1_555
C7 C2 1_555 1_555
C8 C6 1_555 1_555
H7 C8 1_555 1_555
C9 H8 1_555 1_555
H9 C9 1_555 1_555
C10 C9 1_555 1_555
H10 C10 1_555 1_555
H11 C10 1_555 1_555
C11 C10 1_555 1_555
H12 C11 1_555 1_555
H13 C11 1_555 1_555
C12 H14 1_555 1_555
C13 C12 1_555 1_555
C14 C13 1_555 1_555
H15 C14 1_555 1_555
C15 C14 1_555 1_555
H16 C15 1_555 1_555
C16 C15 1_555 1_555
H17 C16 1_555 1_555
C17 C16 1_555 1_555
C18 C13 1_555 1_555
C19 H18 1_555 1_555
H19 C19 1_555 1_555
H20 C19 1_555 1_555
C20 H21 1_555 1_555
H22 C20 1_555 1_555
H23 C20 1_555 1_555
C21 C22 1_555 1_555
C22 H24 1_555 1_555
C23 C22 1_555 1_555
H25 C23 1_555 1_555
C24 C23 1_555 1_555
H26 C24 1_555 1_555
C25 C24 1_555 1_555
C26 C21 1_555 1_555
C27 C25 1_555 1_555
H27 C27 1_555 1_555
C28 H28 1_555 1_555
H29 C28 1_555 1_555
C29 C28 1_555 1_555
H30 C29 1_555 1_555
H31 C29 1_555 1_555
C30 C29 1_555 1_555
H32 C30 1_555 1_555
H33 C30 1_555 1_555
C31 H34 1_555 1_555
C32 C31 1_555 1_555
C33 C32 1_555 1_555
H35 C33 1_555 1_555
C34 C33 1_555 1_555
H36 C34 1_555 1_555
C35 C34 1_555 1_555
H37 C35 1_555 1_555
C36 C35 1_555 1_555
C37 C32 1_555 1_555
C38 H38 1_555 1_555
H39 C38 1_555 1_555
H40 C38 1_555 1_555
C39 Mo1 1_555 1_555
C40 Mo1 1_555 1_555
C41 Mo1 1_555 1_555
C42 Mo1 1_555 1_555
C43 Mo1 1_555 1_555
C44 Mo1 1_555 1_555
C45 Mo1 1_555 1_555
C46 Mo1 1_555 1_555
Cu1 N1 1_555 1_555
Cu2 N3 1_555 1_555
La1 O1 1_555 1_555
N1 C8 1_555 1_555
N2 C11 1_555 1_555
N3 C27 1_555 1_555
N4 C30 1_555 1_555
N5 C39 1_555 1_555
N6 C40 1_555 1_555
N7 C41 1_555 1_555
N8 C42 1_555 1_555
N9 C43 1_555 1_555
N10 C44 1_555 1_555
N11 C45 1_555 1_555
N12 C46 1_555 1_555
O1 C1 1_555 1_555
O2 C7 1_555 1_555
O3 C18 1_555 1_555
O4 C17 1_555 1_555
O5 C20 1_555 1_555
O6 C26 1_555 1_555
O7 C37 1_555 1_555
O8 C36 1_555 1_555
Cu1_2 N7 1_555 1_555
La1_2 N8 1_555 1_555
N7_2 Cu1 1_555 1_555
N8_2 La1 1_555 1_555
C2 O1 1_555 1_555
C6 C7 1_555 1_555
C9 N1 1_555 1_555
C12 N2 1_555 1_555
C17 C18 1_555 1_555
C19 O4 1_555 1_555
C21 O5 1_555 1_555
C25 C26 1_555 1_555
C28 N3 1_555 1_555
C31 N4 1_555 1_555
C36 C37 1_555 1_555
C38 O8 1_555 1_555
Cu1 N2 1_555 1_555
Cu1 O2 1_555 1_555
Cu1 O3 1_555 1_555
Cu2 N4 1_555 1_555
Cu2 N5 1_555 1_555
Cu2 O6 1_555 1_555
Cu2 O7 1_555 1_555
La1 O2 1_555 1_555
La1 O3 1_555 1_555
La1 O4 1_555 1_555
La1 O5 1_555 1_555
La1 O6 1_555 1_555
La1 O7 1_555 1_555
La1 O8 1_555 1_555

#END
