
#######################################################################
#
#                 Cambridge Crystallographic Data Centre
#                                CCDC 
#
#######################################################################
#
# If this CIF has been generated from an entry in the Cambridge 
# Structural Database, then it will include bibliographic, chemical, 
# crystal, experimental, refinement or atomic coordinate data resulting 
# from the CCDC's data processing and validation procedures.
#
#######################################################################

data_DUQNAG
_symmetry_cell_setting           triclinic
_symmetry_space_group_name_H-M   'P -1'
_symmetry_Int_Tables_number      2
_space_group_name_Hall           '-P 1'
loop_
_symmetry_equiv_pos_site_id
_symmetry_equiv_pos_as_xyz
1 x,y,z
2 -x,-y,-z
_cell_length_a                   11.3977(5)
_cell_length_b                   12.3689(6)
_cell_length_c                   20.5363(10)
_cell_angle_alpha                95.088(4)
_cell_angle_beta                 101.795(4)
_cell_angle_gamma                116.645(3)
_cell_volume                     2478.65
loop_
_atom_site_label
_atom_site_type_symbol
_atom_site_fract_x
_atom_site_fract_y
_atom_site_fract_z
C1 C 0.8889(9) 0.4558(9) 0.4190(4)
H1 H 0.9717 0.5102 0.4089
H2 H 0.8691 0.5017 0.4513
H3 H 0.8996 0.3913 0.4377
C2 C 0.6506(7) 0.3209(6) 0.3627(3)
C3 C 0.6066(9) 0.3244(8) 0.4199(4)
H4 H 0.6647 0.3830 0.4593
C4 C 0.4754(10) 0.2402(10) 0.4184(5)
H5 H 0.4435 0.2434 0.4563
C5 C 0.3917(8) 0.1512(9) 0.3605(4)
H6 H 0.3043 0.0931 0.3603
C6 C 0.4355(6) 0.1464(6) 0.3023(3)
C7 C 0.5658(5) 0.2339(5) 0.3016(3)
C8 C 0.3447(7) 0.0475(7) 0.2447(4)
H7 H 0.2648 -0.0119 0.2519
C9 C 0.2541(11) -0.0924(9) 0.1411(5)
H8 H 0.2918 -0.1488 0.1432
H9 H 0.1747 -0.1260 0.1584
C10 C 0.2119(11) -0.0865(11) 0.0718(6)
H10 H 0.1748 -0.0295 0.0707
H11 H 0.1376 -0.1675 0.0482
C11 C 0.3130(8) -0.0492(7) 0.0328(4)
H12 H 0.2669 -0.0648 -0.0150
H13 H 0.3596 -0.0983 0.0377
C12 C 0.4345(7) 0.1484(7) 0.0113(3)
H14 H 0.3815 0.1074 -0.0329
C13 C 0.5295(7) 0.2779(7) 0.0203(3)
C14 C 0.5182(10) 0.3326(10) -0.0364(4)
H15 H 0.4535 0.2844 -0.0771
C15 C 0.6008(13) 0.4548(11) -0.0323(5)
H16 H 0.5924 0.4890 -0.0704
C16 C 0.6969(10) 0.5287(8) 0.0276(4)
H17 H 0.7544 0.6120 0.0302
C17 C 0.7058(7) 0.4766(6) 0.0834(3)
C18 C 0.6260(6) 0.3518(6) 0.0816(3)
C19 C 0.8926(10) 0.6691(6) 0.1497(4)
H18 H 0.9478 0.7068 0.1957
H19 H 0.9496 0.6696 0.1210
H20 H 0.8464 0.7145 0.1343
C20 C 0.4627(7) 0.4035(8) 0.1963(4)
H21 H 0.4619 0.3543 0.1572
H22 H 0.4006 0.3509 0.2191
H23 H 0.4351 0.4625 0.1821
C21 C 0.6133(7) 0.5437(6) 0.3016(4)
C22 C 0.5086(8) 0.5419(9) 0.3245(4)
H24 H 0.4186 0.4869 0.3005
C23 C 0.5371(10) 0.6234(11) 0.3843(5)
H25 H 0.4666 0.6211 0.4012
C24 C 0.6710(10) 0.7072(11) 0.4180(5)
H26 H 0.6903 0.7643 0.4565
C25 C 0.7767(8) 0.7069(7) 0.3950(4)
C26 C 0.7506(7) 0.6257(6) 0.3365(3)
C27 C 0.9129(9) 0.7915(8) 0.4373(4)
H27 H 0.9187 0.8428 0.4751
C28 C 1.1514(11) 0.8968(12) 0.4820(6)
H28 H 1.1313 0.9610 0.4983
H29 H 1.1597 0.8559 0.5195
C29 C 1.265(2) 0.950(2) 0.4742(12)
H30 H 1.3263 0.9997 0.5183
H31 H 1.2638 1.0077 0.4452
C30 C 1.3319(9) 0.8789(9) 0.4446(5)
H32 H 1.4180 0.9383 0.4383
H33 H 1.3516 0.8332 0.4773
C31 C 1.3132(7) 0.7780(7) 0.3384(4)
H34 H 1.4074 0.8278 0.3531
C32 C 1.2599(7) 0.6947(6) 0.2735(4)
C33 C 1.3553(7) 0.7050(8) 0.2372(5)
H35 H 1.4458 0.7663 0.2544
C34 C 1.3169(9) 0.6271(10) 0.1781(6)
H36 H 1.3805 0.6372 0.1539
C35 C 1.1823(9) 0.5302(9) 0.1518(5)
H37 H 1.1575 0.4753 0.1112
C36 C 1.0871(7) 0.5177(6) 0.1873(4)
C37 C 1.1231(6) 0.6011(5) 0.2481(3)
C38 C 0.9175(9) 0.3236(8) 0.1148(5)
H38 H 0.8223 0.2656 0.1057
H39 H 0.9353 0.3534 0.0744
H40 H 0.9710 0.2837 0.1288
C39 C 0.9919(5) 0.9266(5) 0.2750(3)
C40 C 0.7324(6) 0.8342(6) 0.2204(3)
C41 C 0.7123(6) 1.0286(5) 0.1829(3)
C42 C 0.8986(6) 1.2092(6) 0.2696(3)
C43 C 0.8893(7) 0.9680(7) 0.1499(4)
C44 C 1.0751(7) 1.1543(7) 0.2358(5)
C45 C 1.0142(8) 1.1114(7) 0.3526(4)
C46 C 0.7502(7) 0.9991(6) 0.3144(3)
Cu1 Cu 0.50898(6) 0.14931(6) 0.15481(3)
Cu2 Cu 1.04397(7) 0.71898(6) 0.34902(4)
Tb1 Tb 0.79751(2) 0.43326(2) 0.24142(2)
W1 W 0.88339(2) 1.02852(2) 0.25044(2)
N1 N 0.3584(5) 0.0303(5) 0.1862(3)
N2 N 0.4148(5) 0.0843(5) 0.0565(3)
N3 N 1.0259(7) 0.8043(6) 0.4291(3)
N4 N 1.2448(5) 0.7911(5) 0.3784(3)
N5 N 1.0490(5) 0.8726(5) 0.2898(3)
N6 N 0.6540(6) 0.7330(5) 0.2033(3)
N7 N 0.6232(6) 1.0349(6) 0.1487(3)
N8 N 0.9023(6) 1.3042(5) 0.2766(4)
N9 N 0.8910(8) 0.9387(9) 0.0954(4)
N10 N 1.1737(9) 1.2237(8) 0.2260(7)
N11 N 1.0883(9) 1.1543(10) 0.4059(4)
N12 N 0.6750(8) 0.9813(8) 0.3475(4)
O1 O 0.7794(5) 0.4027(4) 0.3581(2)
O2 O 0.6134(4) 0.2436(3) 0.24731(19)
O3 O 0.6441(4) 0.3072(3) 0.13727(18)
O4 O 0.7936(5) 0.5436(4) 0.1467(2)
O5 O 0.5990(4) 0.4681(4) 0.2421(2)
O6 O 0.8480(4) 0.6204(4) 0.3111(2)
O7 O 1.0281(4) 0.5878(4) 0.2789(2)
O8 O 0.9532(4) 0.4252(4) 0.1677(2)
Cu1_2 Cu 0.50898(6) 1.14931(6) 0.15481(3)
Tb1_2 Tb 0.79751(2) 1.43326(2) 0.24142(2)
N7_2 N 0.6232(6) 0.0349(6) 0.1487(3)
N8_2 N 0.9023(6) 0.3042(5) 0.2766(4)
O9 O 0.8613(16) 0.7919(13) -0.0446(7)
O10 O 0.7991(17) 0.5523(16) 0.5817(11)
H41? H 1.1851 0.9755 0.4678
H42? H 1.1273 0.9078 0.5239
C47? C 1.2569(16) 0.8659(14) 0.4956(6)
H43? H 1.2184 0.7808 0.5011
H44? H 1.3214 0.9172 0.5386
H45? H 1.4085 0.8646 0.4615
H46? H 1.3680 0.9629 0.4372
loop_
_geom_bond_atom_site_label_1
_geom_bond_atom_site_label_2
_geom_bond_site_symmetry_1
_geom_bond_site_symmetry_2
C1 H1 1_555 1_555
H2 C1 1_555 1_555
H3 C1 1_555 1_555
C2 C3 1_555 1_555
C3 H4 1_555 1_555
C4 C3 1_555 1_555
H5 C4 1_555 1_555
C5 C4 1_555 1_555
H6 C5 1_555 1_555
C6 C5 1_555 1_555
C7 C2 1_555 1_555
C8 C6 1_555 1_555
H7 C8 1_555 1_555
C9 H8 1_555 1_555
H9 C9 1_555 1_555
C10 C9 1_555 1_555
H10 C10 1_555 1_555
H11 C10 1_555 1_555
C11 C10 1_555 1_555
H12 C11 1_555 1_555
H13 C11 1_555 1_555
C12 H14 1_555 1_555
C13 C12 1_555 1_555
C14 C13 1_555 1_555
H15 C14 1_555 1_555
C15 C14 1_555 1_555
H16 C15 1_555 1_555
C16 C15 1_555 1_555
H17 C16 1_555 1_555
C17 C16 1_555 1_555
C18 C13 1_555 1_555
C19 H18 1_555 1_555
H19 C19 1_555 1_555
H20 C19 1_555 1_555
C20 H21 1_555 1_555
H22 C20 1_555 1_555
H23 C20 1_555 1_555
C21 C22 1_555 1_555
C22 H24 1_555 1_555
C23 C22 1_555 1_555
H25 C23 1_555 1_555
C24 C23 1_555 1_555
H26 C24 1_555 1_555
C25 C24 1_555 1_555
C26 C21 1_555 1_555
C27 C25 1_555 1_555
H27 C27 1_555 1_555
C28 H28 1_555 1_555
H29 C28 1_555 1_555
C29 C28 1_555 1_555
H30 C29 1_555 1_555
H31 C29 1_555 1_555
C30 C29 1_555 1_555
H32 C30 1_555 1_555
H33 C30 1_555 1_555
C31 H34 1_555 1_555
C32 C31 1_555 1_555
C33 C32 1_555 1_555
H35 C33 1_555 1_555
C34 C33 1_555 1_555
H36 C34 1_555 1_555
C35 C34 1_555 1_555
H37 C35 1_555 1_555
C36 C35 1_555 1_555
C37 C32 1_555 1_555
C38 H38 1_555 1_555
H39 C38 1_555 1_555
H40 C38 1_555 1_555
C39 W1 1_555 1_555
C40 W1 1_555 1_555
C41 W1 1_555 1_555
C42 W1 1_555 1_555
C43 W1 1_555 1_555
C44 W1 1_555 1_555
C45 W1 1_555 1_555
C46 W1 1_555 1_555
Cu1 N1 1_555 1_555
Cu2 N3 1_555 1_555
Tb1 O1 1_555 1_555
N1 C8 1_555 1_555
N2 C11 1_555 1_555
N3 C27 1_555 1_555
N4 C30 1_555 1_555
N5 C39 1_555 1_555
N6 C40 1_555 1_555
N7 C41 1_555 1_555
N8 C42 1_555 1_555
N9 C43 1_555 1_555
N10 C44 1_555 1_555
N11 C45 1_555 1_555
N12 C46 1_555 1_555
O1 C1 1_555 1_555
O2 C7 1_555 1_555
O3 C18 1_555 1_555
O4 C17 1_555 1_555
O5 C20 1_555 1_555
O6 C26 1_555 1_555
O7 C37 1_555 1_555
O8 C36 1_555 1_555
Cu1_2 N7 1_555 1_555
Tb1_2 N8 1_555 1_555
N7_2 Cu1 1_555 1_555
N8_2 Tb1 1_555 1_555
C2 O1 1_555 1_555
C6 C7 1_555 1_555
C9 N1 1_555 1_555
C12 N2 1_555 1_555
C17 C18 1_555 1_555
C19 O4 1_555 1_555
C21 O5 1_555 1_555
C25 C26 1_555 1_555
C28 N3 1_555 1_555
C31 N4 1_555 1_555
C36 C37 1_555 1_555
C38 O8 1_555 1_555
Cu1 N2 1_555 1_555
Cu1 O2 1_555 1_555
Cu1 O3 1_555 1_555
Cu2 N4 1_555 1_555
Cu2 N5 1_555 1_555
Cu2 O6 1_555 1_555
Cu2 O7 1_555 1_555
Tb1 O2 1_555 1_555
Tb1 O3 1_555 1_555
Tb1 O4 1_555 1_555
Tb1 O5 1_555 1_555
Tb1 O6 1_555 1_555
Tb1 O7 1_555 1_555
Tb1 O8 1_555 1_555

#END
