
#######################################################################
#
#                 Cambridge Crystallographic Data Centre
#                                CCDC 
#
#######################################################################
#
# If this CIF has been generated from an entry in the Cambridge 
# Structural Database, then it will include bibliographic, chemical, 
# crystal, experimental, refinement or atomic coordinate data resulting 
# from the CCDC's data processing and validation procedures.
#
#######################################################################

data_DUQPAI
_symmetry_cell_setting           triclinic
_symmetry_space_group_name_H-M   'P -1'
_symmetry_Int_Tables_number      2
_space_group_name_Hall           '-P 1'
loop_
_symmetry_equiv_pos_site_id
_symmetry_equiv_pos_as_xyz
1 x,y,z
2 -x,-y,-z
_cell_length_a                   12.2561(3)
_cell_length_b                   15.0220(4)
_cell_length_c                   20.1165(4)
_cell_angle_alpha                104.026(2)
_cell_angle_beta                 99.531(2)
_cell_angle_gamma                109.978(2)
_cell_volume                     3249.31
loop_
_atom_site_label
_atom_site_type_symbol
_atom_site_fract_x
_atom_site_fract_y
_atom_site_fract_z
C1 C 0.7885(3) 0.5712(2) 0.70053(15)
C2 C 0.8858(2) 0.7023(2) 0.79567(15)
C3 C 0.9238(3) 0.7755(2) 0.86127(16)
H1 H 0.8805 0.7686 0.8949
C4 C 1.0289(3) 0.8596(2) 0.87528(18)
H2 H 1.0562 0.9102 0.9189
C5 C 1.0944(3) 0.8693(3) 0.82449(19)
H3 H 1.1644 0.9264 0.8351
C6 C 1.0574(3) 0.7963(3) 0.75936(18)
H4 H 1.1009 0.8027 0.7258
C7 C 0.9529(3) 0.7131(2) 0.74603(16)
C8 C 0.6967(3) 0.4785(2) 0.64626(15)
H5 H 0.7322 0.4312 0.6332
H6 H 0.6671 0.4936 0.6050
H7 H 0.6311 0.4504 0.6654
C9 C 0.9190(3) 0.6111(3) 0.61893(16)
H8 H 0.8855 0.5396 0.5942
H9 H 1.0059 0.6357 0.6274
C10 C 0.8705(3) 0.6616(2) 0.57188(16)
C11 C 0.7911(3) 0.7042(3) 0.58925(17)
H10 H 0.7687 0.7037 0.6312
C12 C 0.7446(3) 0.7477(3) 0.54513(19)
H11 H 0.6913 0.7763 0.5573
C13 C 0.7776(3) 0.7483(3) 0.48273(19)
H12 H 0.7465 0.7773 0.4527
C14 C 0.8566(3) 0.7060(3) 0.46516(17)
H13 H 0.8785 0.7068 0.4231
C15 C 0.9040(3) 0.6625(2) 0.50866(15)
C16 C 0.9870(3) 0.6139(2) 0.48613(15)
H14 H 1.0301 0.6046 0.5271
H15 H 0.9391 0.5484 0.4512
C17 C 1.1717(2) 0.7598(2) 0.49208(13)
C18 C 1.1819(2) 0.72205(19) 0.38276(13)
C19 C 1.2133(2) 0.7188(2) 0.31885(13)
H16 H 1.2822 0.7679 0.3164
C20 C 1.1373(3) 0.6392(2) 0.25947(14)
H17 H 1.1550 0.6350 0.2159
C21 C 1.0336(3) 0.5641(2) 0.26295(15)
H18 H 0.9850 0.5114 0.2218
C22 C 1.0023(3) 0.5668(2) 0.32573(14)
H19 H 0.9335 0.5176 0.3281
C23 C 0.6387(3) 0.1534(2) 1.22082(19)
C24 C 1.0787(2) 0.6467(2) 0.38508(14)
C25 C 1.1959(3) 0.8110(2) 0.56942(14)
H20 H 1.2727 0.8667 0.5861
H21 H 1.1967 0.7648 0.5950
H22 H 1.1338 0.8344 0.5771
C26 C 0.6511(2) 0.5023(2) 0.92701(13)
C27 C 0.6854(2) 0.6602(2) 0.96608(13)
C28 C 0.7060(2) 0.7603(2) 0.97438(14)
H23 H 0.7074 0.7844 0.9360
C29 C 0.7243(3) 0.8219(2) 1.04238(15)
H24 H 0.7400 0.8892 1.0499
C30 C 0.7198(3) 0.7854(2) 1.10005(15)
H25 H 0.7321 0.8291 1.1448
C31 C 0.6976(3) 0.6864(2) 1.09254(14)
H26 H 0.6947 0.6622 1.1309
C32 C 0.6799(2) 0.6250(2) 1.02412(13)
C33 C 0.6324(3) 0.4007(2) 0.88259(14)
H27 H 0.6466 0.4030 0.8374
H28 H 0.5511 0.3551 0.8753
H29 H 0.6875 0.3784 0.9064
C34 C 0.6391(3) 0.4534(2) 1.03787(14)
H30 H 0.5721 0.3909 1.0094
H31 H 0.6182 0.4804 1.0805
C35 C 0.7505(2) 0.4323(2) 1.05926(13)
C36 C 0.8610(3) 0.4911(2) 1.05393(14)
H32 H 0.8681 0.5461 1.0388
C37 C 0.9615(3) 0.4698(3) 1.07073(15)
H33 H 1.0355 0.5105 1.0672
C38 C 0.9513(3) 0.3885(2) 1.09253(15)
H34 H 1.0177 0.3722 1.1020
C39 C 0.8429(3) 0.3309(2) 1.10044(17)
H35 H 0.8372 0.2767 1.1165
C40 C 0.7420(3) 0.3522(2) 1.08489(17)
C41 C 0.6237(3) 0.2879(3) 1.0941(2)
H36 H 0.5755 0.3270 1.1016
H37 H 0.5798 0.2319 1.0506
C42 C 0.6196(3) 0.1513(3) 1.1489(2)
C43 C 0.5905(3) 0.0670(3) 1.0931(2)
H38 H 0.5800 0.0676 1.0464
C44 C 0.5775(3) -0.0192(3) 1.10955(18)
H39 H 0.5575 -0.0784 1.0730
C45 C 0.5937(3) -0.0199(2) 1.18007(17)
H40 H 0.5835 -0.0797 1.1891
C46 C 0.6242(3) 0.0655(2) 1.23610(17)
H41 H 0.6348 0.0644 1.2827
C47 C 0.6682(3) 0.3032(3) 1.2225(3)
C48 C 0.6903(3) 0.4116(3) 1.2480(3)
H42 H 0.6208 0.4208 1.2262
H43 H 0.7593 0.4498 1.2353
H44 H 0.7049 0.4338 1.2988
C49 C 0.5887(2) 0.8394(2) 0.68198(13)
H45 H 0.5415 0.7849 0.6415
C50 C 0.6198(2) 0.9359(2) 0.67931(13)
C51 C 0.6896(2) 1.0175(2) 0.74030(13)
H46 H 0.7111 1.0818 0.7375
C52 C 0.7280(2) 1.0050(2) 0.80532(13)
C53 C 0.6966(2) 0.90681(19) 0.80627(13)
H47 H 0.7220 0.8962 0.8488
C54 C 0.6289(2) 0.8247(2) 0.74598(13)
C55 C 0.6020(2) 0.7210(2) 0.74844(14)
C56 C 0.5787(2) 0.9546(2) 0.61119(13)
C57 C 0.8051(2) 1.0932(2) 0.87375(14)
C58 C 0.8162(3) 1.1938(2) 0.86505(16)
H48 H 0.8551 1.2044 0.8283
H49 H 0.8631 1.2464 0.9091
H50 H 0.7372 1.1940 0.8523
C59 C 0.7491(3) 1.0805(2) 0.93544(15)
H51 H 0.6693 1.0793 0.9240
H52 H 0.7980 1.1354 0.9780
H53 H 0.7450 1.0188 0.9429
C60 C 0.9324(3) 1.0940(3) 0.89259(16)
H54 H 0.9275 1.0329 0.9013
H55 H 0.9819 1.1497 0.9345
H56 H 0.9674 1.1000 0.8537
C61 C 0.3591(2) 0.29508(19) 0.71475(13)
C62 C 0.4144(2) 0.2456(2) 0.67357(13)
H57 H 0.4945 0.2786 0.6747
C63 C 0.3494(2) 0.14633(19) 0.63069(13)
C64 C 0.2303(2) 0.0971(2) 0.62972(13)
H58 H 0.1882 0.0304 0.6015
C65 C 0.1716(2) 0.1453(2) 0.67013(13)
C66 C 0.2385(2) 0.24445(19) 0.71234(13)
H59 H 0.2018 0.2781 0.7398
C67 C 0.4074(2) 0.09653(19) 0.58209(13)
C68 C 0.4272(2) 0.40274(19) 0.75994(13)
C69 C 0.0388(2) 0.0899(2) 0.66632(15)
C70 C 0.0255(3) 0.0020(2) 0.69433(18)
H60 H 0.0746 0.0263 0.7426
H61 H 0.0511 -0.0436 0.6653
H62 H -0.0574 -0.0320 0.6927
C71 C -0.0386(3) 0.0509(3) 0.58887(16)
H63 H -0.1220 0.0185 0.5870
H64 H -0.0141 0.0040 0.5604
H65 H -0.0281 0.1060 0.5708
C72 C -0.0086(3) 0.1585(2) 0.71083(17)
H66 H -0.0921 0.1219 0.7066
H67 H -0.0002 0.2144 0.6940
H68 H 0.0369 0.1821 0.7598
Co1 Co 1.39846(3) 0.91318(2) 0.478571(17)
Co2 Co 0.63442(3) 0.58356(3) 0.802136(18)
N1 N 0.7837(2) 0.61190(17) 0.76595(12)
N2 N 0.8901(2) 0.62870(19) 0.68717(13)
N3 N 1.0746(2) 0.67306(16) 0.45559(11)
N4 N 1.23902(19) 0.79166(16) 0.45062(11)
N5 N 0.66764(19) 0.58165(16) 0.90535(11)
N6 N 0.6559(2) 0.52377(16) 0.99729(11)
N7 N 0.6386(2) 0.2495(2) 1.1534(2)
N8 N 0.6702(2) 0.2493(2) 1.26615(18)
O1 O 0.48283(16) 0.88815(14) 0.56576(9)
O2 O 0.64144(17) 1.03528(14) 0.60364(9)
O3 O 0.57192(18) 0.64903(14) 0.69379(10)
O4 O 0.61615(16) 0.71064(13) 0.81126(9)
O5 O 0.52577(17) 0.44796(13) 0.74598(9)
O6 O 0.38919(17) 0.44159(14) 0.80718(9)
O7 O 0.51121(16) 0.14943(13) 0.58054(9)
O8 O 0.34768(16) 0.00619(13) 0.54530(9)
Co1_2 Co 0.39846(3) -0.08682(2) 0.478571(17)
Co1_3 Co 0.39846(3) 0.91318(2) 0.478571(17)
Co1A Co 0.60154(3) 0.08682(2) 0.521429(17)
Co1A_2 Co 0.60154(3) 1.08682(2) 0.521429(17)
O1_2 O 1.48283(16) 0.88815(14) 0.56576(9)
O2A O 1.35856(17) 0.96472(14) 0.39636(9)
O7A O 1.48879(16) 0.85057(13) 0.41946(9)
O8_2 O 1.34768(16) 1.00619(13) 0.54530(9)
loop_
_geom_bond_atom_site_label_1
_geom_bond_atom_site_label_2
_geom_bond_site_symmetry_1
_geom_bond_site_symmetry_2
C1 C8 1_555 1_555
C2 C3 1_555 1_555
C3 H1 1_555 1_555
C4 C3 1_555 1_555
H2 C4 1_555 1_555
C5 C4 1_555 1_555
H3 C5 1_555 1_555
C6 C5 1_555 1_555
H4 C6 1_555 1_555
C7 C2 1_555 1_555
C8 H5 1_555 1_555
H6 C8 1_555 1_555
H7 C8 1_555 1_555
C9 H8 1_555 1_555
H9 C9 1_555 1_555
C10 C9 1_555 1_555
C11 C10 1_555 1_555
H10 C11 1_555 1_555
C12 C11 1_555 1_555
H11 C12 1_555 1_555
C13 C12 1_555 1_555
H12 C13 1_555 1_555
C14 C13 1_555 1_555
H13 C14 1_555 1_555
C15 C10 1_555 1_555
C16 C15 1_555 1_555
H14 C16 1_555 1_555
H15 C16 1_555 1_555
C17 C25 1_555 1_555
C18 C19 1_555 1_555
C19 H16 1_555 1_555
C20 C19 1_555 1_555
H17 C20 1_555 1_555
C21 C20 1_555 1_555
H18 C21 1_555 1_555
C22 C21 1_555 1_555
H19 C22 1_555 1_555
C23 C42 1_555 1_555
C24 C18 1_555 1_555
C25 H20 1_555 1_555
H21 C25 1_555 1_555
H22 C25 1_555 1_555
C26 C33 1_555 1_555
C27 C28 1_555 1_555
C28 H23 1_555 1_555
C29 C28 1_555 1_555
H24 C29 1_555 1_555
C30 C29 1_555 1_555
H25 C30 1_555 1_555
C31 C30 1_555 1_555
H26 C31 1_555 1_555
C32 C27 1_555 1_555
C33 H27 1_555 1_555
H28 C33 1_555 1_555
H29 C33 1_555 1_555
C34 H30 1_555 1_555
H31 C34 1_555 1_555
C35 C34 1_555 1_555
C36 C35 1_555 1_555
H32 C36 1_555 1_555
C37 C36 1_555 1_555
H33 C37 1_555 1_555
C38 C37 1_555 1_555
H34 C38 1_555 1_555
C39 C38 1_555 1_555
H35 C39 1_555 1_555
C40 C35 1_555 1_555
C41 C40 1_555 1_555
H36 C41 1_555 1_555
H37 C41 1_555 1_555
C42 C43 1_555 1_555
C43 H38 1_555 1_555
C44 C43 1_555 1_555
H39 C44 1_555 1_555
C45 C44 1_555 1_555
H40 C45 1_555 1_555
C46 C23 1_555 1_555
H41 C46 1_555 1_555
C47 C48 1_555 1_555
C48 H42 1_555 1_555
H43 C48 1_555 1_555
H44 C48 1_555 1_555
C49 H45 1_555 1_555
C50 C49 1_555 1_555
C51 C50 1_555 1_555
H46 C51 1_555 1_555
C52 C51 1_555 1_555
C53 C52 1_555 1_555
H47 C53 1_555 1_555
C54 C49 1_555 1_555
C55 C54 1_555 1_555
C56 C50 1_555 1_555
C57 C52 1_555 1_555
C58 C57 1_555 1_555
H48 C58 1_555 1_555
H49 C58 1_555 1_555
H50 C58 1_555 1_555
C59 C57 1_555 1_555
H51 C59 1_555 1_555
H52 C59 1_555 1_555
H53 C59 1_555 1_555
C60 C57 1_555 1_555
H54 C60 1_555 1_555
H55 C60 1_555 1_555
H56 C60 1_555 1_555
C61 C62 1_555 1_555
C62 H57 1_555 1_555
C63 C62 1_555 1_555
C64 C63 1_555 1_555
H58 C64 1_555 1_555
C65 C64 1_555 1_555
C66 C61 1_555 1_555
H59 C66 1_555 1_555
C67 C63 1_555 1_555
C68 C61 1_555 1_555
C69 C65 1_555 1_555
C70 C69 1_555 1_555
H60 C70 1_555 1_555
H61 C70 1_555 1_555
H62 C70 1_555 1_555
C71 C69 1_555 1_555
H63 C71 1_555 1_555
H64 C71 1_555 1_555
H65 C71 1_555 1_555
C72 C69 1_555 1_555
H66 C72 1_555 1_555
H67 C72 1_555 1_555
H68 C72 1_555 1_555
Co1 N4 1_555 1_555
Co2 N1 1_555 1_555
N1 C1 1_555 1_555
N2 C1 1_555 1_555
N3 C16 1_555 1_555
N4 C17 1_555 1_555
N5 C26 1_555 1_555
N6 C26 1_555 1_555
N7 C41 1_555 1_555
N8 C23 1_555 1_555
O1 C56 1_555 1_555
O2 C56 1_555 1_555
O3 C55 1_555 1_555
O4 C55 1_555 1_555
O5 C68 1_555 1_555
O6 C68 1_555 1_555
O7 C67 1_555 1_555
O8 C67 1_555 1_555
Co1_2 O8 1_555 1_555
Co1_3 O1 1_555 1_555
Co1A O7 1_555 1_555
Co1A_2 O2 1_555 1_555
O1_2 Co1 1_555 1_555
O2A Co1 1_555 1_555
O7A Co1 1_555 1_555
O8_2 Co1 1_555 1_555
C2 N1 1_555 1_555
C6 C7 1_555 1_555
C7 N2 1_555 1_555
C9 N2 1_555 1_555
C14 C15 1_555 1_555
C17 N3 1_555 1_555
C18 N4 1_555 1_555
C22 C24 1_555 1_555
C24 N3 1_555 1_555
C27 N5 1_555 1_555
C31 C32 1_555 1_555
C32 N6 1_555 1_555
C34 N6 1_555 1_555
C39 C40 1_555 1_555
C42 N7 1_555 1_555
C45 C46 1_555 1_555
C47 N7 1_555 1_555
C47 N8 1_555 1_555
C53 C54 1_555 1_555
C65 C66 1_555 1_555
Co2 N5 1_555 1_555
Co2 O4 1_555 1_555
Co2 O5 1_555 1_555

#END
