
#######################################################################
#
#                 Cambridge Crystallographic Data Centre
#                                CCDC 
#
#######################################################################
#
# If this CIF has been generated from an entry in the Cambridge 
# Structural Database, then it will include bibliographic, chemical, 
# crystal, experimental, refinement or atomic coordinate data resulting 
# from the CCDC's data processing and validation procedures.
#
#######################################################################

data_DUQSAK
_symmetry_cell_setting           orthorhombic
_symmetry_space_group_name_H-M   'P b c a'
_symmetry_Int_Tables_number      61
_space_group_name_Hall           '-P 2ac 2ab'
loop_
_symmetry_equiv_pos_site_id
_symmetry_equiv_pos_as_xyz
1 x,y,z
2 1/2-x,-y,1/2+z
3 1/2+x,1/2-y,-z
4 -x,1/2+y,1/2-z
5 -x,-y,-z
6 1/2+x,y,1/2-z
7 1/2-x,1/2+y,z
8 x,1/2-y,1/2+z
_cell_length_a                   18.560(2)
_cell_length_b                   20.499(2)
_cell_length_c                   20.761(3)
_cell_angle_alpha                90
_cell_angle_beta                 90
_cell_angle_gamma                90
_cell_volume                     7898.76
loop_
_atom_site_label
_atom_site_type_symbol
_atom_site_fract_x
_atom_site_fract_y
_atom_site_fract_z
Cd1 Cd 0.619518(18) 0.029885(17) 0.750063(16)
O1 O 0.72243(19) 0.09773(16) 0.75424(17)
O2 O 0.61723(18) 0.1471(2) 0.74819(18)
O3 O 0.8976(2) 0.40035(19) 0.7374(2)
O4 O 0.7962(2) 0.44921(18) 0.76030(19)
O5 O 0.6239(2) 0.0309(2) 0.86632(19)
O6 O 0.5207(2) 0.0086(2) 0.82206(17)
O7 O 0.53356(19) 0.02455(17) 0.67139(16)
O8 O 0.6402(2) 0.0268(2) 0.62649(19)
C1 C 0.6853(3) 0.1481(2) 0.7518(2)
C2 C 0.7222(3) 0.2135(2) 0.7509(2)
C3 C 0.7239(3) 0.2505(2) 0.6940(2)
C4 C 0.6938(3) 0.2263(3) 0.6349(3)
H5 H 0.6742 0.1846 0.6333
C5 C 0.6939(3) 0.2645(3) 0.5812(3)
H6 H 0.6748 0.2482 0.5430
C6 C 0.7229(3) 0.3288(3) 0.5826(3)
H7 H 0.7199 0.3551 0.5463
C7 C 0.7545(3) 0.3515(3) 0.6367(2)
H8 H 0.7740 0.3933 0.6368
C8 C 0.7586(3) 0.3126(2) 0.6938(2)
C9 C 0.7935(3) 0.3347(2) 0.7500(2)
C10 C 0.7906(3) 0.2980(2) 0.8071(2)
C11 C 0.8227(3) 0.3215(3) 0.8657(2)
H9 H 0.8469 0.3613 0.8659
C12 C 0.8180(3) 0.2861(3) 0.9205(3)
H10 H 0.8379 0.3020 0.9585
C13 C 0.7826(3) 0.2247(3) 0.9202(3)
H11 H 0.7809 0.2002 0.9578
C14 C 0.7516(3) 0.2012(3) 0.8665(2)
H12 H 0.7280 0.1611 0.8678
C15 C 0.7542(3) 0.2366(2) 0.8081(2)
C16 C 0.8326(3) 0.3993(3) 0.7489(2)
C17 C 0.5588(3) 0.0168(3) 0.8701(2)
C18 C 0.5266(3) 0.0080(3) 0.9369(2)
C19 C 0.5011(3) -0.0534(3) 0.9562(2)
C20 C 0.5011(3) -0.1088(3) 0.9146(3)
H13 H 0.5179 -0.1041 0.8727
C21 C 0.4776(3) -0.1676(3) 0.9339(3)
H14 H 0.4767 -0.2024 0.9052
C22 C 0.4542(3) -0.1764(3) 0.9984(3)
H15 H 0.4400 -0.2176 1.0122
C23 C 0.4521(3) -0.1254(3) 1.0405(3)
H16 H 0.4359 -0.1320 1.0824
C24 C 0.5254(3) 0.0621(3) 0.9791(2)
C25 C 0.5739(3) 0.0220(2) 0.6232(2)
C26 C 0.5368(3) 0.0111(3) 0.5588(2)
C27 C 0.5409(3) -0.0506(2) 0.5289(2)
C28 C 0.5801(3) -0.1033(3) 0.5569(2)
H17 H 0.6041 -0.0970 0.5958
C29 C 0.5828(3) -0.1624(3) 0.5275(3)
H18 H 0.6080 -0.1964 0.5468
C30 C 0.5476(3) -0.1730(3) 0.4678(3)
H19 H 0.5514 -0.2134 0.4477
C31 C 0.5087(3) -0.1250(3) 0.4399(2)
H20 H 0.4848 -0.1331 0.4013
C32 C 0.4965(3) 0.0617(2) 0.5311(2)
Cd1F Cd 0.880482(18) -0.470115(17) 0.750063(16)
Cd1F_2 Cd 0.880482(18) 0.529885(17) 0.750063(16)
Cd1D Cd 0.380482(18) -0.029885(17) 1.249937(16)
Cd1D_2 Cd 0.380482(18) -0.029885(17) 0.249937(16)
O1F O 0.77757(19) -0.40227(16) 0.75424(17)
O2F O 0.88277(18) -0.3529(2) 0.74819(18)
O3F O 0.6024(2) -0.09965(19) 0.7374(2)
O4F O 0.7038(2) -0.05079(18) 0.76030(19)
O4_2 O 0.7962(2) -0.55079(18) 0.76030(19)
O5D O 0.3761(2) -0.0309(2) 1.13368(19)
O5F O 0.8761(2) -0.4691(2) 0.86632(19)
O6D O 0.4793(2) -0.0086(2) 1.17794(17)
O6F O 0.9793(2) -0.4914(2) 0.82206(17)
O7D O 0.46644(19) -0.02455(17) 0.32861(16)
O7F O 0.96644(19) -0.47545(17) 0.67139(16)
O8D O 0.3598(2) -0.0268(2) 0.37351(19)
C1F C 0.8147(3) -0.3519(2) 0.7518(2)
C2F C 0.7778(3) -0.2865(2) 0.7509(2)
C3F C 0.7761(3) -0.2495(2) 0.6940(2)
C4F C 0.8062(3) -0.2737(3) 0.6349(3)
H5F H 0.8258 -0.3154 0.6333
C5F C 0.8061(3) -0.2355(3) 0.5812(3)
H6F H 0.8252 -0.2518 0.5430
C6F C 0.7771(3) -0.1712(3) 0.5826(3)
H7F H 0.7801 -0.1449 0.5463
C7F C 0.7455(3) -0.1485(3) 0.6367(2)
H8F H 0.7260 -0.1067 0.6368
C8F C 0.7414(3) -0.1874(2) 0.6938(2)
C9F C 0.7065(3) -0.1653(2) 0.7500(2)
C10F C 0.7094(3) -0.2020(2) 0.8071(2)
C11F C 0.6773(3) -0.1785(3) 0.8657(2)
H9F H 0.6531 -0.1387 0.8659
C12F C 0.6820(3) -0.2139(3) 0.9205(3)
H10F H 0.6621 -0.1980 0.9585
C13F C 0.7174(3) -0.2753(3) 0.9202(3)
H11F H 0.7191 -0.2998 0.9578
C14F C 0.7484(3) -0.2988(3) 0.8665(2)
H12F H 0.7720 -0.3389 0.8678
C15F C 0.7458(3) -0.2634(2) 0.8081(2)
C16F C 0.6674(3) -0.1007(3) 0.7489(2)
C17D C 0.4412(3) -0.0168(3) 1.1299(2)
C18D C 0.4734(3) -0.0080(3) 1.0631(2)
C19D C 0.4989(3) 0.0534(3) 1.0438(2)
C20D C 0.4989(3) 0.1088(3) 1.0854(3)
H13D H 0.4821 0.1041 1.1273
C21D C 0.5224(3) 0.1676(3) 1.0661(3)
H14D H 0.5233 0.2024 1.0948
C22D C 0.5458(3) 0.1764(3) 1.0016(3)
H15D H 0.5600 0.2176 0.9878
C23D C 0.5479(3) 0.1254(3) 0.9595(3)
H16D H 0.5641 0.1320 0.9176
C24D C 0.4746(3) -0.0621(3) 1.0209(2)
C25D C 0.4261(3) -0.0220(2) 0.3768(2)
C26D C 0.4632(3) -0.0111(3) 0.4412(2)
C27D C 0.4591(3) 0.0506(2) 0.4711(2)
C28D C 0.4199(3) 0.1033(3) 0.4431(2)
H17D H 0.3959 0.0970 0.4042
C29D C 0.4172(3) 0.1624(3) 0.4725(3)
H18D H 0.3920 0.1964 0.4532
C30D C 0.4524(3) 0.1730(3) 0.5322(3)
H19D H 0.4486 0.2134 0.5523
C31D C 0.4913(3) 0.1250(3) 0.5601(2)
H20D H 0.5152 0.1331 0.5987
C32D C 0.5035(3) -0.0617(2) 0.4689(2)
O9 O 0.7359(3) 0.0565(3) 0.9463(2)
H1 H 0.746(5) 0.031(3) 0.978(3)
H2 H 0.6929(19) 0.056(4) 0.931(4)
O10 O 0.7520(3) 0.0260(4) 0.5438(3)
H3 H 0.712(3) 0.025(6) 0.565(5)
C33 C 0.8143(6) 0.0346(6) 0.5804(5)
H21 H 0.8053 0.0175 0.6233
H22 H 0.8524 0.0085 0.5615
C34 C 0.8391(7) 0.0982(5) 0.5865(9)
H23 H 0.8407 0.1183 0.5448
H24 H 0.8865 0.0978 0.6049
H25 H 0.8072 0.1223 0.6140
O11 O 0.5406(3) 0.2656(2) 0.7369(3)
H4 H 0.5700 0.2341 0.7410
C35 C 0.4724(6) 0.2414(6) 0.7316(10)
H26 H 0.4720 0.2128 0.6944
H27 H 0.4411 0.2779 0.7215
C36 C 0.4353(11) 0.2022(13) 0.7897(14)
H28 H 0.4695 0.1724 0.8081
H29 H 0.3946 0.1783 0.7737
H30 H 0.4196 0.2324 0.8221
N1 N 0.8051(3) 0.9824(3) 0.8571(2)
H31 H 0.7763 0.9649 0.8268
H32 H 0.7774 1.0077 0.8825
N2 N 0.9446(3) 0.9002(3) 0.7630(2)
H33 H 0.9464 0.8606 0.7444
H34 H 0.9848 0.9218 0.7514
C37 C 0.8364(4) 0.9269(3) 0.8981(3)
H35 H 0.8695 0.9460 0.9290
H36 H 0.7972 0.9076 0.9224
C38 C 0.8754(4) 0.8727(4) 0.8637(4)
H37 H 0.8838 0.8376 0.8941
H38 H 0.8442 0.8559 0.8301
C39 C 0.9460(4) 0.8912(3) 0.8338(3)
H39 H 0.9625 0.9315 0.8534
H40 H 0.9811 0.8577 0.8440
C40 C 0.8738(3) 1.0075(4) 0.7544(3)
H41 H 0.8344 1.0255 0.7293
H42 H 0.9173 1.0297 0.7407
C41 C 0.8814(3) 0.9359(4) 0.7361(3)
H43 H 0.8381 0.9133 0.7497
H44 H 0.8836 0.9330 0.6895
C42 C 0.8606(3) 1.0252(4) 0.8242(3)
H45 H 0.9057 1.0220 0.8475
H46 H 0.8447 1.0702 0.8264
C43? C 0.4627(15) 0.2316(14) 0.7801(16)
C44? C 0.4403(8) 0.1853(8) 0.7272(8)
H47? H 0.4764 0.2090 0.8193
H48? H 0.4262 0.2641 0.7894
H49? H 0.4808 0.1593 0.7144
H50? H 0.4233 0.2099 0.6908
H51? H 0.4025 0.1575 0.7426
loop_
_geom_bond_atom_site_label_1
_geom_bond_atom_site_label_2
_geom_bond_site_symmetry_1
_geom_bond_site_symmetry_2
Cd1 O1 1_555 1_555
O1 C1 1_555 1_555
O2 Cd1 1_555 1_555
O3 C16 1_555 1_555
O4 C16 1_555 1_555
O5 Cd1 1_555 1_555
O6 Cd1 1_555 1_555
O7 Cd1 1_555 1_555
O8 C25 1_555 1_555
O9 H1 1_555 1_555
H2 O9 1_555 1_555
O10 H3 1_555 1_555
O11 H4 1_555 1_555
C1 O2 1_555 1_555
C2 C1 1_555 1_555
C3 C2 1_555 1_555
C4 C3 1_555 1_555
H5 C4 1_555 1_555
C5 C4 1_555 1_555
H6 C5 1_555 1_555
C6 C5 1_555 1_555
H7 C6 1_555 1_555
C7 C6 1_555 1_555
H8 C7 1_555 1_555
C8 C3 1_555 1_555
C9 C8 1_555 1_555
C10 C9 1_555 1_555
C11 C10 1_555 1_555
H9 C11 1_555 1_555
C12 C11 1_555 1_555
H10 C12 1_555 1_555
C13 C12 1_555 1_555
H11 C13 1_555 1_555
C14 C13 1_555 1_555
H12 C14 1_555 1_555
C15 C2 1_555 1_555
C16 C9 1_555 1_555
C17 O5 1_555 1_555
C18 C17 1_555 1_555
C19 C18 1_555 1_555
C20 C19 1_555 1_555
H13 C20 1_555 1_555
C21 C20 1_555 1_555
H14 C21 1_555 1_555
C22 C21 1_555 1_555
H15 C22 1_555 1_555
C23 C22 1_555 1_555
H16 C23 1_555 1_555
C24 C18 1_555 1_555
C25 O7 1_555 1_555
C26 C25 1_555 1_555
C27 C26 1_555 1_555
C28 C27 1_555 1_555
H17 C28 1_555 1_555
C29 C28 1_555 1_555
H18 C29 1_555 1_555
C30 C29 1_555 1_555
H19 C30 1_555 1_555
C31 C30 1_555 1_555
H20 C31 1_555 1_555
C32 C26 1_555 1_555
C33 O10 1_555 1_555
H21 C33 1_555 1_555
H22 C33 1_555 1_555
C34 C33 1_555 1_555
H23 C34 1_555 1_555
H24 C34 1_555 1_555
H25 C34 1_555 1_555
C35 O11 1_555 1_555
H26 C35 1_555 1_555
H27 C35 1_555 1_555
C36 C35 1_555 1_555
H28 C36 1_555 1_555
H29 C36 1_555 1_555
H30 C36 1_555 1_555
N1 H31 1_555 1_555
H32 N1 1_555 1_555
N2 H33 1_555 1_555
H34 N2 1_555 1_555
C37 N1 1_555 1_555
H35 C37 1_555 1_555
H36 C37 1_555 1_555
C38 C37 1_555 1_555
H37 C38 1_555 1_555
H38 C38 1_555 1_555
C39 N2 1_555 1_555
H39 C39 1_555 1_555
H40 C39 1_555 1_555
C40 H41 1_555 1_555
H42 C40 1_555 1_555
C41 N2 1_555 1_555
H43 C41 1_555 1_555
H44 C41 1_555 1_555
C42 N1 1_555 1_555
H45 C42 1_555 1_555
H46 C42 1_555 1_555
Cd1F O1F 1_555 1_555
Cd1F_2 O4 1_555 1_555
Cd1D O5D 1_555 1_555
Cd1D_2 O7D 1_555 1_555
O1F C1F 1_555 1_555
O2F Cd1F 1_555 1_555
O3F C16F 1_555 1_555
O4F Cd1 1_555 1_555
O4_2 Cd1F 1_555 1_555
O5D C17D 1_555 1_555
O5F Cd1F 1_555 1_555
O6D Cd1D 1_555 1_555
O6F Cd1F 1_555 1_555
O7D C25D 1_555 1_555
O7F Cd1F 1_555 1_555
O8D C25D 1_555 1_555
C1F O2F 1_555 1_555
C2F C1F 1_555 1_555
C3F C2F 1_555 1_555
C4F C3F 1_555 1_555
H5F C4F 1_555 1_555
C5F C4F 1_555 1_555
H6F C5F 1_555 1_555
C6F C5F 1_555 1_555
H7F C6F 1_555 1_555
C7F C6F 1_555 1_555
H8F C7F 1_555 1_555
C8F C3F 1_555 1_555
C9F C8F 1_555 1_555
C10F C9F 1_555 1_555
C11F C10F 1_555 1_555
H9F C11F 1_555 1_555
C12F C11F 1_555 1_555
H10F C12F 1_555 1_555
C13F C12F 1_555 1_555
H11F C13F 1_555 1_555
C14F C13F 1_555 1_555
H12F C14F 1_555 1_555
C15F C2F 1_555 1_555
C16F O4F 1_555 1_555
C17D O6D 1_555 1_555
C18D C17D 1_555 1_555
C19D C24 1_555 1_555
C20D C19D 1_555 1_555
H13D C20D 1_555 1_555
C21D C20D 1_555 1_555
H14D C21D 1_555 1_555
C22D C21D 1_555 1_555
H15D C22D 1_555 1_555
C23D C24 1_555 1_555
H16D C23D 1_555 1_555
C24D C19 1_555 1_555
C25D C26D 1_555 1_555
C26D C27D 1_555 1_555
C27D C32 1_555 1_555
C28D C27D 1_555 1_555
H17D C28D 1_555 1_555
C29D C28D 1_555 1_555
H18D C29D 1_555 1_555
C30D C29D 1_555 1_555
H19D C30D 1_555 1_555
C31D C32 1_555 1_555
H20D C31D 1_555 1_555
C32D C27 1_555 1_555
O6 C17 1_555 1_555
C7 C8 1_555 1_555
C10 C15 1_555 1_555
C14 C15 1_555 1_555
C23 C24D 1_555 1_555
C31 C32D 1_555 1_555
C38 C39 1_555 1_555
C40 C41 1_555 1_555
C40 C42 1_555 1_555
C7F C8F 1_555 1_555
C9F C16F 1_555 1_555
C10F C15F 1_555 1_555
C14F C15F 1_555 1_555
C18D C19D 1_555 1_555
C18D C24D 1_555 1_555
C22D C23D 1_555 1_555
C26D C32D 1_555 1_555
C30D C31D 1_555 1_555

#END
