
#######################################################################
#
#                 Cambridge Crystallographic Data Centre
#                                CCDC 
#
#######################################################################
#
# If this CIF has been generated from an entry in the Cambridge 
# Structural Database, then it will include bibliographic, chemical, 
# crystal, experimental, refinement or atomic coordinate data resulting 
# from the CCDC's data processing and validation procedures.
#
#######################################################################

data_DUQSEO
_symmetry_cell_setting           orthorhombic
_symmetry_space_group_name_H-M   'I 21 21 21'
_symmetry_Int_Tables_number      24
_space_group_name_Hall           'I 2b 2c'
loop_
_symmetry_equiv_pos_site_id
_symmetry_equiv_pos_as_xyz
1 x,y,z
2 -x,1/2-y,z
3 x,-y,1/2-z
4 -x,1/2+y,1/2-z
5 1/2+x,1/2+y,1/2+z
6 1/2-x,-y,1/2+z
7 1/2+x,1/2-y,-z
8 1/2-x,y,-z
_cell_length_a                   8.8840(7)
_cell_length_b                   13.0930(6)
_cell_length_c                   13.1346(4)
_cell_angle_alpha                90
_cell_angle_beta                 90
_cell_angle_gamma                90
_cell_volume                     1527.79
loop_
_atom_site_label
_atom_site_type_symbol
_atom_site_fract_x
_atom_site_fract_y
_atom_site_fract_z
La1 La 0.5000 0.7500 0.705951(7)
N1 N 0.66423(19) 0.67060(13) 0.56017(13)
N2 N 0.6985(2) 0.57322(13) 0.53569(14)
C1 C 0.7500 0.72641(17) 0.5000
C2 C 0.7500 0.83866(19) 0.5000
N3 N 0.66577(18) 0.88358(13) 0.57070(13)
C3 C 0.6663(2) 0.98640(15) 0.56959(16)
H1 H 0.6086 1.0217 0.6171
C4 C 0.7500 1.0405(2) 0.5000
H2 H 0.7500 1.1115 0.5000
N4 N 0.10306(19) 0.91723(13) 0.76503(16)
N5 N -0.03892(18) 0.95072(14) 0.7591(2)
C5 C 0.1870(3) 1.0000 0.7500
C6 C 0.3551(3) 1.0000 0.7500
O1 O 0.42070(14) 0.91671(9) 0.76211(11)
O2 O 0.5000 0.7500 0.90173(13)
O3 O 0.23315(16) 0.72032(10) 0.76659(14)
H3 H 0.428(2) 0.778(2) 0.9408(18)
H4 H 0.181(3) 0.6623(14) 0.764(3)
H5 H 0.174(3) 0.7756(17) 0.770(3)
La1F La 1.0000 0.7500 0.294049(7)
La1B La 0.5000 1.2500 0.794049(7)
N1G N 0.83577(19) 0.67060(13) 0.43983(13)
N1A N 0.33577(19) 0.82940(13) 0.56017(13)
N2G N 0.8015(2) 0.57322(13) 0.46431(14)
N3G N 0.83423(18) 0.88358(13) 0.42930(13)
N3A N 0.33423(18) 0.61642(13) 0.57070(13)
C3G C 0.8337(2) 0.98640(15) 0.43041(16)
H1G H 0.8914 1.0217 0.3829
N4B N 0.10306(19) 1.08277(13) 0.73497(16)
N5B N -0.03892(18) 1.04928(14) 0.7409(2)
O1B O 0.42070(14) 1.08329(9) 0.73789(11)
O1A O 0.57930(14) 0.58329(9) 0.76211(11)
O3A O 0.76685(16) 0.77968(10) 0.76659(14)
H3A H 0.572(2) 0.722(2) 0.9408(18)
H4A H 0.819(3) 0.8377(14) 0.764(3)
H5A H 0.826(3) 0.7244(17) 0.770(3)
O4 O 0.2500 0.8420(3) 1.0000
H6 H 0.327(5) 0.883(4) 1.018(7)
H6G H 0.173(5) 0.883(4) 0.982(7)
loop_
_geom_bond_atom_site_label_1
_geom_bond_atom_site_label_2
_geom_bond_site_symmetry_1
_geom_bond_site_symmetry_2
La1 N1 1_555 1_555
N1 N2 1_555 1_555
N2 N2G 1_555 1_555
C1 N1 1_555 1_555
C2 C1 1_555 1_555
N3 La1 1_555 1_555
C3 N3 1_555 1_555
H1 C3 1_555 1_555
C4 C3 1_555 1_555
H2 C4 1_555 1_555
N4 N5 1_555 1_555
N5 N5B 1_555 1_555
C5 N4 1_555 1_555
C6 C5 1_555 1_555
O1 La1 1_555 1_555
O2 La1 1_555 1_555
O3 La1 1_555 1_555
O4 H6 1_555 1_555
H3 O2 1_555 1_555
H4 O3 1_555 1_555
H5 O3 1_555 1_555
La1F N1G 1_555 1_555
La1B O1B 1_555 1_555
N1G C1 1_555 1_555
N1A La1 1_555 1_555
N2G N1G 1_555 1_555
N3G C2 1_555 1_555
N3A La1 1_555 1_555
C3G C4 1_555 1_555
H1G C3G 1_555 1_555
N4B C5 1_555 1_555
N5B N4B 1_555 1_555
O1B C6 1_555 1_555
O1A La1 1_555 1_555
O3A La1 1_555 1_555
H3A O2 1_555 1_555
H4A O3A 1_555 1_555
H5A O3A 1_555 1_555
H6G O4 1_555 1_555
C2 N3 1_555 1_555
C6 O1 1_555 1_555
La1F N3G 1_555 1_555
N3G C3G 1_555 1_555

#END
