
#######################################################################
#
#                 Cambridge Crystallographic Data Centre
#                                CCDC 
#
#######################################################################
#
# If this CIF has been generated from an entry in the Cambridge 
# Structural Database, then it will include bibliographic, chemical, 
# crystal, experimental, refinement or atomic coordinate data resulting 
# from the CCDC's data processing and validation procedures.
#
#######################################################################

data_DUQSUE01
_symmetry_cell_setting           monoclinic
_symmetry_space_group_name_H-M   'P 21/c'
_symmetry_Int_Tables_number      14
_space_group_name_Hall           '-P 2ybc'
loop_
_symmetry_equiv_pos_site_id
_symmetry_equiv_pos_as_xyz
1 x,y,z
2 -x,1/2+y,1/2-z
3 -x,-y,-z
4 x,1/2-y,1/2+z
_cell_length_a                   12.340(3)
_cell_length_b                   7.6471(19)
_cell_length_c                   16.497(3)
_cell_angle_alpha                90
_cell_angle_beta                 131.017(11)
_cell_angle_gamma                90
_cell_volume                     1174.59
loop_
_atom_site_label
_atom_site_type_symbol
_atom_site_fract_x
_atom_site_fract_y
_atom_site_fract_z
Cd1 Cd 0.228479(18) 0.09441(2) 0.284601(14)
N1 N 0.2217(2) 0.3116(3) 0.18113(15)
N2 N 0.5473(2) -0.1894(3) 0.56308(19)
N3 N -0.1234(2) -0.2341(3) 0.17093(18)
O1 O 0.34836(19) 0.0008(2) 0.21824(15)
S1 S 0.26541(7) -0.21518(9) 0.36817(5)
S2 S -0.02919(7) -0.00762(9) 0.09563(5)
C1 C 0.1612(3) 0.4664(3) 0.1637(2)
H1 H 0.1147 0.4865 0.1899
C2 C 0.1644(3) 0.5985(4) 0.1086(2)
H2 H 0.1218 0.7060 0.0986
C3 C 0.2311(3) 0.5692(4) 0.0687(2)
H3 H 0.2337 0.6561 0.0306
C4 C 0.2944(3) 0.4092(3) 0.0857(2)
H4 H 0.3406 0.3869 0.0595
C5 C 0.2882(2) 0.2822(3) 0.14226(18)
C6 C 0.3555(3) 0.1061(3) 0.1662(2)
C7 C 0.4330(3) 0.0625(4) 0.1276(2)
H5 H 0.5167 0.1351 0.1639
H6 H 0.3707 0.0827 0.0516
H7 H 0.4614 -0.0581 0.1425
C8 C 0.4321(3) -0.1974(3) 0.4826(2)
C9 C -0.0829(3) -0.1398(3) 0.14188(19)
Cd1A Cd -0.228479(18) -0.40559(2) 0.215399(14)
Cd1B Cd 0.771521(18) -0.09441(2) 0.715399(14)
N2B N 0.4527(2) 0.1894(3) 0.43692(19)
N3A N 0.1234(2) 0.2659(3) 0.32907(18)
loop_
_geom_bond_atom_site_label_1
_geom_bond_atom_site_label_2
_geom_bond_site_symmetry_1
_geom_bond_site_symmetry_2
Cd1 N1 1_555 1_555
N1 C1 1_555 1_555
N2 C8 1_555 1_555
N3 C9 1_555 1_555
O1 Cd1 1_555 1_555
S1 Cd1 1_555 1_555
S2 Cd1 1_555 1_555
C1 H1 1_555 1_555
C2 C1 1_555 1_555
H2 C2 1_555 1_555
C3 C2 1_555 1_555
H3 C3 1_555 1_555
C4 C3 1_555 1_555
H4 C4 1_555 1_555
C5 N1 1_555 1_555
C6 O1 1_555 1_555
C7 C6 1_555 1_555
H5 C7 1_555 1_555
H6 C7 1_555 1_555
H7 C7 1_555 1_555
C8 S1 1_555 1_555
C9 S2 1_555 1_555
Cd1A N3 1_555 1_555
Cd1B N2 1_555 1_555
N2B Cd1 1_555 1_555
N3A Cd1 1_555 1_555
C4 C5 1_555 1_555
C5 C6 1_555 1_555

#END
