
#######################################################################
#
#                 Cambridge Crystallographic Data Centre
#                                CCDC 
#
#######################################################################
#
# If this CIF has been generated from an entry in the Cambridge 
# Structural Database, then it will include bibliographic, chemical, 
# crystal, experimental, refinement or atomic coordinate data resulting 
# from the CCDC's data processing and validation procedures.
#
#######################################################################

data_DUQVAN01
_symmetry_cell_setting           triclinic
_symmetry_space_group_name_H-M   'P -1'
_symmetry_Int_Tables_number      2
_space_group_name_Hall           '-P 1'
loop_
_symmetry_equiv_pos_site_id
_symmetry_equiv_pos_as_xyz
1 x,y,z
2 -x,-y,-z
_cell_length_a                   10.0869(7)
_cell_length_b                   11.5714(8)
_cell_length_c                   11.5714(8)
_cell_angle_alpha                89.01
_cell_angle_beta                 74.677(2)
_cell_angle_gamma                74.677(2)
_cell_volume                     1254.28
loop_
_atom_site_label
_atom_site_type_symbol
_atom_site_fract_x
_atom_site_fract_y
_atom_site_fract_z
Mo1 Mo -0.60364(3) -0.31468(3) -0.31333(3)
Mo2 Mo -0.50456(3) -0.61978(3) -0.40060(3)
Mo3 Mo -0.80287(3) -0.45423(3) -0.43077(3)
Mo4 Mo -0.30008(3) -0.48167(3) -0.27684(3)
Zn1 Zn -0.13392(5) -0.21922(4) -0.25564(4)
C1 C -0.2982(5) -0.0622(4) -0.5414(4)
H1 H -0.3474 -0.0564 -0.5998
C2 C -0.2580(5) 0.0281(4) -0.4978(4)
H2 H -0.2738 0.1072 -0.5200
C3 C -0.1882(4) -0.0232(3) -0.4130(4)
C4 C -0.1192(4) 0.0245(3) -0.3352(3)
O1 O -0.2282(3) -0.3613(3) -0.3035(3)
C5 C -0.1008(5) 0.1382(4) -0.3427(4)
H3 H -0.1343 0.1896 -0.3976
C6 C -0.0321(5) 0.1748(4) -0.2680(5)
H4 H -0.0175 0.2510 -0.2725
C7 C 0.0152(5) 0.0967(4) -0.1858(5)
H5 H 0.0622 0.1197 -0.1348
C8 C -0.0086(5) -0.0150(4) -0.1811(4)
H6 H 0.0223 -0.0671 -0.1256
C9 C -0.4671(5) -0.1007(4) -0.1481(4)
H7 H -0.4635 -0.0598 -0.2183
C10 C -0.5990(5) -0.0953(5) -0.0689(5)
H8 H -0.6823 -0.0512 -0.0860
C11 C -0.6054(5) -0.1546(5) 0.0331(5)
H9 H -0.6935 -0.1532 0.0854
C12 C -0.4810(5) -0.2174(5) 0.0599(5)
H10 H -0.4838 -0.2573 0.1306
C13 C -0.3525(4) -0.2192(4) -0.0214(4)
C14 C -0.2140(4) -0.2793(3) -0.0021(4)
C15 C -0.1729(5) -0.3363(4) 0.0962(4)
H11 H -0.2319 -0.3474 0.1698
C16 C -0.0277(5) -0.3717(4) 0.0598(4)
H12 H 0.0323 -0.4124 0.1047
N1 N -0.2539(4) -0.1605(3) -0.4846(3)
H13 H -0.2669 -0.2291 -0.4974
N2 N -0.1866(4) -0.1389(3) -0.4052(3)
N3 N -0.0754(4) -0.0515(3) -0.2546(3)
N4 N -0.3450(4) -0.1630(3) -0.1263(3)
N5 N -0.0996(4) -0.2803(3) -0.0928(3)
N6 N 0.0133(4) -0.3376(3) -0.0516(3)
H14 H 0.1009 -0.3504 -0.0926
O2 O -0.8584(3) -0.5802(3) -0.4063(3)
O3 O -0.9389(3) -0.3411(2) -0.3446(3)
O4 O -0.5736(3) -0.7389(2) -0.3756(3)
O5 O -0.6718(3) -0.4898(2) -0.3231(2)
O6 O -0.4148(3) -0.6222(2) -0.2890(2)
O7 O -0.3360(3) -0.6802(2) -0.5341(2)
O8 O -0.5822(3) -0.5524(2) -0.5506(2)
O9 O -0.5353(3) -0.1959(2) -0.3508(3)
O10 O -0.4943(3) -0.3961(2) -0.2109(2)
O11 O -0.2470(3) -0.5447(3) -0.1578(3)
O12 O -0.1761(3) -0.5819(2) -0.4144(2)
O13 O -0.7657(3) -0.2572(3) -0.2103(3)
Mo1A Mo -0.39636(3) -0.68532(3) -0.68667(3)
Mo2A Mo -0.49544(3) -0.38022(3) -0.59940(3)
Mo3A Mo -0.19713(3) -0.54577(3) -0.56923(3)
Zn1_2 Zn -1.13392(5) -0.21922(4) -0.25564(4)
O3_2 O 0.0611(3) -0.3411(2) -0.3446(3)
O7A O -0.6640(3) -0.3198(2) -0.4659(2)
O8A O -0.4178(3) -0.4476(2) -0.4494(2)
O12A O -0.8239(3) -0.4181(2) -0.5856(2)
loop_
_geom_bond_atom_site_label_1
_geom_bond_atom_site_label_2
_geom_bond_site_symmetry_1
_geom_bond_site_symmetry_2
Mo1 O5 1_555 1_555
Mo2 O4 1_555 1_555
Mo3 O2 1_555 1_555
Mo4 O1 1_555 1_555
Zn1 O1 1_555 1_555
C1 H1 1_555 1_555
C2 C1 1_555 1_555
H2 C2 1_555 1_555
C3 C2 1_555 1_555
C4 C3 1_555 1_555
C5 C4 1_555 1_555
H3 C5 1_555 1_555
C6 C5 1_555 1_555
H4 C6 1_555 1_555
C7 C6 1_555 1_555
H5 C7 1_555 1_555
C8 C7 1_555 1_555
H6 C8 1_555 1_555
C9 H7 1_555 1_555
C10 C9 1_555 1_555
H8 C10 1_555 1_555
C11 C10 1_555 1_555
H9 C11 1_555 1_555
C12 C11 1_555 1_555
H10 C12 1_555 1_555
C13 C12 1_555 1_555
C14 C13 1_555 1_555
C15 C14 1_555 1_555
H11 C15 1_555 1_555
C16 C15 1_555 1_555
H12 C16 1_555 1_555
N1 C1 1_555 1_555
H13 N1 1_555 1_555
N2 Zn1 1_555 1_555
N3 Zn1 1_555 1_555
N4 Zn1 1_555 1_555
N5 Zn1 1_555 1_555
N6 C16 1_555 1_555
H14 N6 1_555 1_555
O3 Mo3 1_555 1_555
O5 Mo2 1_555 1_555
O6 Mo2 1_555 1_555
O7 Mo2 1_555 1_555
O8 Mo2 1_555 1_555
O9 Mo1 1_555 1_555
O10 Mo1 1_555 1_555
O11 Mo4 1_555 1_555
O12 Mo4 1_555 1_555
O13 Mo1 1_555 1_555
Mo1A O7 1_555 1_555
Mo2A O8 1_555 1_555
Mo3A O7 1_555 1_555
Zn1_2 O3 1_555 1_555
O3_2 Zn1 1_555 1_555
O7A Mo1 1_555 1_555
O8A Mo1 1_555 1_555
O12A Mo3 1_555 1_555
Mo2 O8A 1_555 1_555
Mo3 O5 1_555 1_555
Mo3 O8 1_555 1_555
Mo3 O7A 1_555 1_555
Mo4 O6 1_555 1_555
Mo4 O10 1_555 1_555
C3 N2 1_555 1_555
C4 N3 1_555 1_555
C8 N3 1_555 1_555
C9 N4 1_555 1_555
C13 N4 1_555 1_555
C14 N5 1_555 1_555
N1 N2 1_555 1_555
N5 N6 1_555 1_555
O8 Mo1A 1_555 1_555
O12 Mo3A 1_555 1_555
Mo2A O7A 1_555 1_555
Mo2A O8A 1_555 1_555
Mo3A O8A 1_555 1_555

#END
