
#######################################################################
#
#                 Cambridge Crystallographic Data Centre
#                                CCDC 
#
#######################################################################
#
# If this CIF has been generated from an entry in the Cambridge 
# Structural Database, then it will include bibliographic, chemical, 
# crystal, experimental, refinement or atomic coordinate data resulting 
# from the CCDC's data processing and validation procedures.
#
#######################################################################

data_DUQXAQ
_symmetry_cell_setting           triclinic
_symmetry_space_group_name_H-M   'P -1'
_symmetry_Int_Tables_number      2
_space_group_name_Hall           '-P 1'
loop_
_symmetry_equiv_pos_site_id
_symmetry_equiv_pos_as_xyz
1 x,y,z
2 -x,-y,-z
_cell_length_a                   9.7321(7)
_cell_length_b                   11.4035(9)
_cell_length_c                   15.7278(11)
_cell_angle_alpha                96.741(6)
_cell_angle_beta                 99.836(6)
_cell_angle_gamma                113.445(7)
_cell_volume                     1544.31
loop_
_atom_site_label
_atom_site_type_symbol
_atom_site_fract_x
_atom_site_fract_y
_atom_site_fract_z
C1 C 0.4906(2) 0.36887(18) 0.66706(13)
C2 C 0.5796(3) 0.3622(2) 0.75332(14)
H1 H 0.6736 0.3576 0.7443
H2 H 0.5187 0.2820 0.7705
C3 C 0.6218(2) 0.4758(2) 0.82838(13)
C4 C 0.6556(3) 0.6016(2) 0.81657(14)
H3 H 0.6467 0.6174 0.7597
C5 C 0.7022(3) 0.7045(2) 0.88702(14)
H4 H 0.7230 0.7877 0.8764
C6 C 0.7188(2) 0.6863(2) 0.97406(12)
C7 C 0.6846(2) 0.5602(2) 0.98477(13)
H5 H 0.6942 0.5437 1.0415
C8 C 0.6369(2) 0.4577(2) 0.91425(14)
H6 H 0.6142 0.3742 0.9247
C9 C 0.7702(2) 0.79697(19) 1.04972(13)
C10 C 0.8319(2) 0.9259(2) 1.04046(14)
H7 H 0.8439 0.9435 0.9853
C11 C 0.8760(2) 1.0292(2) 1.11007(14)
H8 H 0.9180 1.1141 1.1008
C12 C 0.8591(2) 1.0087(2) 1.19367(13)
C13 C 0.8027(3) 0.8809(2) 1.20462(14)
H9 H 0.7939 0.8642 1.2604
C14 C 0.7589(2) 0.7773(2) 1.13529(13)
H10 H 0.7213 0.6927 1.1454
C15 C 0.8906(3) 1.1207(2) 1.26622(14)
H11 H 0.7954 1.1042 1.2844
H12 H 0.9165 1.1986 1.2415
C16 C 1.0159(2) 1.15091(18) 1.34825(13)
C17 C 0.4805(2) 0.0685(2) 0.34746(13)
C18 C 0.4292(2) 0.10748(19) 0.26309(12)
H13 H 0.3487 0.1353 0.2696
H14 H 0.5156 0.1816 0.2544
C19 C 0.3694(2) -0.00041(18) 0.18211(12)
C20 C 0.2133(2) -0.0823(2) 0.15029(13)
H15 H 0.1428 -0.0715 0.1798
C21 C 0.1611(2) -0.1793(2) 0.07568(13)
H16 H 0.0560 -0.2329 0.0566
C22 C 0.2614(2) -0.19952(19) 0.02767(12)
C23 C 0.4178(2) -0.11789(19) 0.06111(13)
H17 H 0.4890 -0.1289 0.0322
C24 C 0.4697(2) -0.0213(2) 0.13582(13)
H18 H 0.5749 0.0313 0.1558
C25 C 0.2035(2) -0.30272(19) -0.05362(12)
C26 C 0.2960(2) -0.3110(2) -0.11048(14)
H19 H 0.3972 -0.2477 -0.0985
C27 C 0.2421(3) -0.4105(2) -0.18411(14)
H20 H 0.3078 -0.4124 -0.2203
C28 C 0.0932(2) -0.5070(2) -0.20516(13)
C29 C 0.0014(2) -0.4996(2) -0.14838(16)
H21 H -0.0990 -0.5640 -0.1597
C30 C 0.0544(2) -0.3994(2) -0.07540(16)
H22 H -0.0122 -0.3971 -0.0400
C31 C 0.0328(2) -0.62125(19) -0.28196(13)
H23 H -0.0328 -0.6981 -0.2634
H24 H 0.1202 -0.6355 -0.2938
C32 C -0.0573(2) -0.61305(19) -0.36837(12)
O1 O 0.54693(16) 0.36689(14) 0.60077(9)
O2 O 0.36412(16) 0.37389(14) 0.66575(10)
O3 O -0.10207(18) -0.16196(16) 0.43111(12)
O4 O 1.10594(15) 1.09773(13) 1.34963(9)
O5 O 0.68220(19) 0.44208(17) 0.42159(11)
O6 O 1.02276(15) 1.23479(13) 1.41137(9)
O7 O 0.61302(16) 0.13783(14) 0.39470(10)
O8 O 0.29744(19) 0.04499(17) 0.53709(11)
O9 O 0.38710(16) -0.03122(15) 0.36669(10)
O10 O -0.15156(15) -0.71941(13) -0.41855(9)
O11 O -0.03117(15) -0.50380(14) -0.38693(10)
Na1 Na 0.84681(9) 0.32998(7) 0.42892(5)
Na2 Na 0.14206(9) -0.07672(8) 0.39219(6)
Na3 Na 0.57407(9) 0.17115(8) 0.54631(5)
H25 H -0.178(3) -0.229(3) 0.3977(17)
H26 H -0.078(3) -0.185(2) 0.4785(16)
H27 H 0.680(3) 0.498(2) 0.3987(14)
H28 H 0.583(3) 0.389(2) 0.4095(17)
H29 H 0.239(3) 0.077(2) 0.5594(16)
H30 H 0.312(3) -0.005(3) 0.5689(18)
O12 O 0.62431(19) 0.68091(16) 0.56634(12)
Na4 Na 0.76265(9) 0.54766(8) 0.57314(6)
H31 H 0.588(3) 0.668(2) 0.5105(16)
H32 H 0.705(3) 0.756(3) 0.5863(17)
O4_2 O 0.10594(15) 0.09773(13) 0.34963(9)
O6_2 O 1.02276(15) 0.23479(13) 0.41137(9)
O6A O 0.97724(15) 0.76521(13) 0.58863(9)
O9A O 0.61290(16) 0.03122(15) 0.63331(10)
O10_2 O 0.84844(15) 0.28059(13) 0.58145(9)
O10A O 0.15156(15) -0.28059(13) 0.41855(9)
O11_2 O 0.96883(15) 0.49620(14) 0.61307(10)
O11A O 1.03117(15) 0.50380(14) 0.38693(10)
Na1_2 Na -0.15319(9) -0.67002(7) -0.57108(5)
Na1_3 Na 0.84681(9) 1.32998(7) 1.42892(5)
Na1A Na 0.15319(9) -0.32998(7) -0.42892(5)
Na2_2 Na 1.14206(9) 0.92328(8) 1.39219(6)
Na2A Na -0.14206(9) -0.92328(8) -0.39219(6)
Na3_2 Na -0.42593(9) -0.82885(8) -0.45369(5)
Na3A Na 0.42593(9) -0.17115(8) 0.45369(5)
Na4_2 Na -0.23735(9) -0.45234(8) -0.42686(6)
Na4A Na 1.23735(9) 1.45234(8) 1.42686(6)
loop_
_geom_bond_atom_site_label_1
_geom_bond_atom_site_label_2
_geom_bond_site_symmetry_1
_geom_bond_site_symmetry_2
C1 C2 1_555 1_555
C2 H1 1_555 1_555
H2 C2 1_555 1_555
C3 C2 1_555 1_555
C4 C3 1_555 1_555
H3 C4 1_555 1_555
C5 C4 1_555 1_555
H4 C5 1_555 1_555
C6 C5 1_555 1_555
C7 C6 1_555 1_555
H5 C7 1_555 1_555
C8 C3 1_555 1_555
H6 C8 1_555 1_555
C9 C6 1_555 1_555
C10 C9 1_555 1_555
H7 C10 1_555 1_555
C11 C10 1_555 1_555
H8 C11 1_555 1_555
C12 C11 1_555 1_555
C13 C12 1_555 1_555
H9 C13 1_555 1_555
C14 C9 1_555 1_555
H10 C14 1_555 1_555
C15 C12 1_555 1_555
H11 C15 1_555 1_555
H12 C15 1_555 1_555
C16 C15 1_555 1_555
C17 C18 1_555 1_555
C18 H13 1_555 1_555
H14 C18 1_555 1_555
C19 C18 1_555 1_555
C20 C19 1_555 1_555
H15 C20 1_555 1_555
C21 C20 1_555 1_555
H16 C21 1_555 1_555
C22 C21 1_555 1_555
C23 C22 1_555 1_555
H17 C23 1_555 1_555
C24 C19 1_555 1_555
H18 C24 1_555 1_555
C25 C22 1_555 1_555
C26 C25 1_555 1_555
H19 C26 1_555 1_555
C27 C26 1_555 1_555
H20 C27 1_555 1_555
C28 C27 1_555 1_555
C29 C28 1_555 1_555
H21 C29 1_555 1_555
C30 C25 1_555 1_555
H22 C30 1_555 1_555
C31 C28 1_555 1_555
H23 C31 1_555 1_555
H24 C31 1_555 1_555
C32 C31 1_555 1_555
O1 C1 1_555 1_555
O2 C1 1_555 1_555
O3 Na2 1_555 1_555
O4 C16 1_555 1_555
O5 Na1 1_555 1_555
O6 C16 1_555 1_555
O7 C17 1_555 1_555
O8 Na2 1_555 1_555
O9 C17 1_555 1_555
O10 C32 1_555 1_555
O11 C32 1_555 1_555
Na1 O7 1_555 1_555
Na2 O9 1_555 1_555
Na3 O1 1_555 1_555
H25 O3 1_555 1_555
H26 O3 1_555 1_555
H27 O5 1_555 1_555
H28 O5 1_555 1_555
H29 O8 1_555 1_555
H30 O8 1_555 1_555
O12 Na4 1_555 1_555
Na4 O1 1_555 1_555
H31 O12 1_555 1_555
H32 O12 1_555 1_555
O4_2 Na2 1_555 1_555
O6_2 Na1 1_555 1_555
O6A Na4 1_555 1_555
O9A Na3 1_555 1_555
O10_2 Na1 1_555 1_555
O10A Na2 1_555 1_555
O11_2 Na1 1_555 1_555
O11A Na1 1_555 1_555
Na1_2 O10 1_555 1_555
Na1_3 O6 1_555 1_555
Na1A O11 1_555 1_555
Na2_2 O4 1_555 1_555
Na2A O10 1_555 1_555
Na3_2 O10 1_555 1_555
Na3A O9 1_555 1_555
Na4_2 O11 1_555 1_555
Na4A O6 1_555 1_555
C7 C8 1_555 1_555
C13 C14 1_555 1_555
C23 C24 1_555 1_555
C29 C30 1_555 1_555
O5 Na4 1_555 1_555
O7 Na3 1_555 1_555
O8 Na3 1_555 1_555
O11 Na1_2 1_555 1_555
Na3 O10_2 1_555 1_555
Na4 O11_2 1_555 1_555
O10A Na3A 1_555 1_555

#END
