
#######################################################################
#
#                 Cambridge Crystallographic Data Centre
#                                CCDC 
#
#######################################################################
#
# If this CIF has been generated from an entry in the Cambridge 
# Structural Database, then it will include bibliographic, chemical, 
# crystal, experimental, refinement or atomic coordinate data resulting 
# from the CCDC's data processing and validation procedures.
#
#######################################################################

data_DUQZUM
_symmetry_cell_setting           orthorhombic
_symmetry_space_group_name_H-M   'P b c a'
_symmetry_Int_Tables_number      61
_space_group_name_Hall           '-P 2ac 2ab'
loop_
_symmetry_equiv_pos_site_id
_symmetry_equiv_pos_as_xyz
1 x,y,z
2 1/2-x,-y,1/2+z
3 -x,1/2+y,1/2-z
4 1/2+x,1/2-y,-z
5 -x,-y,-z
6 1/2+x,y,1/2-z
7 x,1/2-y,1/2+z
8 1/2-x,1/2+y,z
_cell_length_a                   14.5472(2)
_cell_length_b                   18.6082(2)
_cell_length_c                   21.2114(2)
_cell_angle_alpha                90
_cell_angle_beta                 90
_cell_angle_gamma                90
_cell_volume                     5741.87
loop_
_atom_site_label
_atom_site_type_symbol
_atom_site_fract_x
_atom_site_fract_y
_atom_site_fract_z
Bi1 Bi 0.668202(6) 0.325599(5) 0.710599(4)
Bi2 Bi 0.409526(6) 0.271760(5) 0.692603(4)
C1 C 0.67271(17) 0.26097(14) 0.91505(12)
H1 H 0.7370 0.2531 0.9192
O1 O 0.37542(11) 0.17350(10) 0.63534(8)
O2 O 0.70730(12) 0.40791(10) 0.61213(9)
N1 N 0.74448(14) 0.36111(13) 0.57706(10)
O3 O 0.77947(12) 0.37810(10) 0.52598(9)
O4 O 0.74538(12) 0.29643(10) 0.59528(8)
C2 C 0.54948(17) 0.29244(13) 0.83475(12)
O5 O 0.53836(11) 0.30730(9) 0.77532(8)
O6 O 0.53879(11) 0.22084(9) 0.66178(8)
C3 C 0.42226(19) 0.06484(15) 0.59292(12)
H2 H 0.3589 0.0576 0.5840
C4 C 0.44321(17) 0.13140(15) 0.62032(12)
C5 C 0.4788(2) 0.00817(15) 0.57681(13)
H3 H 0.4479 -0.0336 0.5622
C6 C 0.64473(17) 0.28019(14) 0.85447(12)
C7 C 0.62347(18) 0.25131(15) 0.97031(13)
H4 H 0.6594 0.2397 1.0063
O7 O 0.65887(11) 0.43411(9) 0.74998(8)
O8 O 0.70712(11) 0.28758(9) 0.81073(8)
O9 O 0.42454(11) 0.16482(10) 0.77503(9)
O10 O 0.37612(11) 0.31824(10) 0.59751(8)
O11 O 0.81326(11) 0.36767(9) 0.72413(8)
O12 O 0.50924(11) 0.36771(9) 0.66449(8)
N2 N 0.35029(14) 0.16649(12) 0.80638(10)
C8 C 0.47652(17) 0.41248(14) 0.62271(12)
C9 C 0.82005(16) 0.43564(14) 0.73960(12)
C10 C 0.39883(17) 0.38457(15) 0.58641(12)
C11 C 0.61782(17) 0.12343(15) 0.62097(12)
H5 H 0.6712 0.1511 0.6295
C12 C 0.53510(17) 0.15778(14) 0.63439(12)
C13 C 0.73506(17) 0.47101(14) 0.75652(12)
C14 C 0.47273(17) 0.28932(14) 0.87382(12)
H6 H 0.4165 0.3007 0.8533
O13 O 0.28935(11) 0.21035(10) 0.78808(9)
O14 O 0.33811(13) 0.12691(11) 0.85149(9)
C15 C 0.46333(17) 0.27262(15) 0.93742(12)
H7 H 0.4021 0.2728 0.9530
C16 C 0.72718(17) 0.53999(14) 0.78114(12)
H8 H 0.6661 0.5538 0.7912
C17 C 0.51496(17) 0.48073(14) 0.61711(12)
H9 H 0.5696 0.4880 0.6408
C18 C 0.90703(17) 0.46697(14) 0.73743(12)
H10 H 0.9541 0.4368 0.7212
C19 C 0.79265(17) 0.59215(14) 0.79355(12)
H11 H 0.7704 0.6346 0.8133
C20 C 0.93593(17) 0.53497(14) 0.75507(12)
H12 H 0.9993 0.5446 0.7483
C21 C 0.48609(18) 0.53978(15) 0.58241(13)
H13 H 0.5222 0.5819 0.5876
C22 C 0.63483(19) 0.05540(15) 0.59714(13)
H14 H 0.6979 0.0431 0.5929
C23 C 0.52989(17) 0.25598(15) 0.98091(13)
H15 H 0.5095 0.2467 1.0227
C24 C 0.57379(19) 0.00297(15) 0.57868(13)
H16 H 0.5995 -0.0416 0.5658
C25 C 0.34821(18) 0.42252(16) 0.54166(13)
H17 H 0.3026 0.3949 0.5207
C26 C 0.41296(19) 0.54657(15) 0.54152(13)
H18 H 0.4026 0.5931 0.5244
C27 C 0.35304(19) 0.49301(16) 0.52267(14)
H19 H 0.3088 0.5070 0.4921
C28 C 0.88609(17) 0.59089(14) 0.78114(12)
H20 H 0.9196 0.6330 0.7917
Bi1E Bi 0.168202(6) 0.325599(5) 0.789401(4)
Bi2E Bi 0.909526(6) 0.271760(5) 0.807397(4)
O8E O 0.20712(11) 0.28758(9) 0.68927(8)
O11E O 0.31326(11) 0.36767(9) 0.77587(8)
O13E O 0.78935(11) 0.21035(10) 0.71192(9)
loop_
_geom_bond_atom_site_label_1
_geom_bond_atom_site_label_2
_geom_bond_site_symmetry_1
_geom_bond_site_symmetry_2
Bi1 O2 1_555 1_555
Bi2 O1 1_555 1_555
C1 H1 1_555 1_555
O1 C4 1_555 1_555
O2 N1 1_555 1_555
N1 O3 1_555 1_555
O4 Bi1 1_555 1_555
C2 O5 1_555 1_555
O5 Bi1 1_555 1_555
O6 Bi1 1_555 1_555
C3 H2 1_555 1_555
C4 C3 1_555 1_555
C5 C3 1_555 1_555
H3 C5 1_555 1_555
C6 C1 1_555 1_555
C7 C1 1_555 1_555
H4 C7 1_555 1_555
O7 Bi1 1_555 1_555
O8 Bi1 1_555 1_555
O9 Bi2 1_555 1_555
O10 Bi2 1_555 1_555
O11 Bi1 1_555 1_555
O12 Bi1 1_555 1_555
N2 O9 1_555 1_555
C8 O12 1_555 1_555
C9 O11 1_555 1_555
C10 O10 1_555 1_555
C11 H5 1_555 1_555
C12 O6 1_555 1_555
C13 O7 1_555 1_555
C14 C2 1_555 1_555
H6 C14 1_555 1_555
O13 Bi2 1_555 1_555
O14 N2 1_555 1_555
C15 C14 1_555 1_555
H7 C15 1_555 1_555
C16 C13 1_555 1_555
H8 C16 1_555 1_555
C17 C8 1_555 1_555
H9 C17 1_555 1_555
C18 C9 1_555 1_555
H10 C18 1_555 1_555
C19 C16 1_555 1_555
H11 C19 1_555 1_555
C20 C18 1_555 1_555
H12 C20 1_555 1_555
C21 C17 1_555 1_555
H13 C21 1_555 1_555
C22 C11 1_555 1_555
H14 C22 1_555 1_555
C23 C7 1_555 1_555
H15 C23 1_555 1_555
C24 C5 1_555 1_555
H16 C24 1_555 1_555
C25 C10 1_555 1_555
H17 C25 1_555 1_555
C26 C21 1_555 1_555
H18 C26 1_555 1_555
C27 C25 1_555 1_555
H19 C27 1_555 1_555
C28 C19 1_555 1_555
H20 C28 1_555 1_555
Bi1E O13 1_555 1_555
Bi2E O8 1_555 1_555
O8E Bi2 1_555 1_555
O11E Bi2 1_555 1_555
O13E Bi1 1_555 1_555
Bi2 O5 1_555 1_555
Bi2 O6 1_555 1_555
Bi2 O12 1_555 1_555
N1 O4 1_555 1_555
C2 C6 1_555 1_555
C4 C12 1_555 1_555
C6 O8 1_555 1_555
O11 Bi2E 1_555 1_555
N2 O13 1_555 1_555
C8 C10 1_555 1_555
C9 C13 1_555 1_555
C11 C12 1_555 1_555
C15 C23 1_555 1_555
C20 C28 1_555 1_555
C22 C24 1_555 1_555
C26 C27 1_555 1_555
Bi1E O8E 1_555 1_555
Bi1E O11E 1_555 1_555
Bi2E O13E 1_555 1_555

#END
