
#######################################################################
#
#                 Cambridge Crystallographic Data Centre
#                                CCDC 
#
#######################################################################
#
# If this CIF has been generated from an entry in the Cambridge 
# Structural Database, then it will include bibliographic, chemical, 
# crystal, experimental, refinement or atomic coordinate data resulting 
# from the CCDC's data processing and validation procedures.
#
#######################################################################

data_DURBAV
_symmetry_cell_setting           monoclinic
_symmetry_space_group_name_H-M   'P 21/n'
_symmetry_Int_Tables_number      14
_space_group_name_Hall           '-P 2yn'
loop_
_symmetry_equiv_pos_site_id
_symmetry_equiv_pos_as_xyz
1 x,y,z
2 1/2-x,1/2+y,1/2-z
3 -x,-y,-z
4 1/2+x,1/2-y,1/2+z
_cell_length_a                   14.9786(6)
_cell_length_b                   14.4680(4)
_cell_length_c                   18.7740(6)
_cell_angle_alpha                90
_cell_angle_beta                 103.116(4)
_cell_angle_gamma                90
_cell_volume                     3962.38
loop_
_atom_site_label
_atom_site_type_symbol
_atom_site_fract_x
_atom_site_fract_y
_atom_site_fract_z
Bi1 Bi 0.339087(11) 0.398379(10) 0.236217(9)
Bi2 Bi 0.340348(11) 0.662213(10) 0.285410(9)
S1 S 0.32388(8) 0.23517(7) 0.38022(6)
O1 O 0.3527(2) 0.52615(18) 0.17573(17)
O2 O 0.3418(2) 0.36135(19) 0.11830(16)
F1 F 0.2538(2) 0.32358(19) 0.47731(16)
O3 O 0.2485(2) 0.53004(18) 0.28758(17)
F2 F 0.39591(19) 0.2863(2) 0.51580(15)
O4 O 0.3854(2) 0.3074(2) 0.36700(18)
F3 F 0.2908(2) 0.18247(19) 0.50629(15)
C1 C 0.3651(3) 0.5202(3) 0.1085(2)
C2 C 0.4037(4) 0.5999(3) -0.1259(3)
H1 H 0.3435 0.6146 -0.1570
H2 H 0.4348 0.5548 -0.1509
H3 H 0.4406 0.6564 -0.1163
C3 C 0.3558(3) 0.4288(3) 0.0759(2)
C4 C 0.3902(3) 0.5999(3) 0.0765(3)
H4 H 0.4009 0.6521 0.1079
C5 C 0.3914(3) 0.5591(3) -0.0535(3)
C6 C 0.4023(3) 0.6161(3) 0.0062(3)
H5 H 0.4213 0.6771 -0.0018
C7 C 0.3158(3) 0.2582(3) 0.4752(3)
C8 C 0.3573(3) 0.4090(3) 0.0031(3)
H6 H 0.3472 0.3457 -0.0098
S2 S 0.57693(9) 0.68525(8) 0.23025(8)
O5 O 0.3450(2) 0.81452(19) 0.31866(16)
O6 O 0.1945(2) 0.69964(18) 0.29234(17)
O7 O 0.4274(2) 0.49636(19) 0.32247(16)
O8 O 0.3582(2) 0.14277(19) 0.38091(18)
O9 O 0.2295(2) 0.2481(2) 0.33817(17)
C9 C 0.1647(3) 0.5403(3) 0.2957(2)
O10 O 0.5824(3) 0.7359(2) 0.1652(2)
C10 C 0.1120(3) 0.4621(3) 0.3020(2)
H7 H 0.1431 0.4053 0.2996
O11 O 0.5033(3) 0.7155(3) 0.2629(3)
O12 O 0.4850(2) 0.36527(19) 0.24912(17)
O13 O 0.3824(2) 0.66977(18) 0.40586(17)
F4 F 0.7540(2) 0.7087(2) 0.2716(2)
F5 F 0.6747(2) 0.8138(2) 0.3112(2)
C11 C 0.1350(3) 0.6358(3) 0.2993(2)
F6 F 0.6906(3) 0.6773(2) 0.35971(18)
C12 C 0.5423(3) 0.3949(3) 0.3091(2)
C13 C 0.5590(3) 0.5042(3) 0.4162(3)
H8 H 0.5280 0.5521 0.4355
C14 C 0.0237(3) 0.4514(3) 0.3108(3)
H9 H 0.0039 0.3891 0.3117
C15 C 0.3676(3) 0.8310(3) 0.3888(2)
C16 C 0.3884(3) 0.7517(3) 0.4374(2)
C17 C 0.3697(3) 0.9237(3) 0.4120(3)
H10 H 0.3583 0.9674 0.3733
O14 O 0.5890(3) 0.5868(2) 0.2273(2)
C18 C 0.5105(3) 0.4674(3) 0.3502(2)
C19 C 0.0503(3) 0.6627(3) 0.3125(3)
H11 H 0.0436 0.7275 0.3172
C20 C 0.3708(3) 0.4649(3) -0.0535(3)
H12 H 0.3652 0.4346 -0.0992
C21 C -0.0417(3) 0.5177(3) 0.3188(3)
C22 C 0.4176(3) 0.7553(3) 0.5137(2)
H13 H 0.4355 0.6972 0.5359
C23 C 0.3856(3) 0.9630(3) 0.4818(2)
H14 H 0.3800 1.0284 0.4822
C24 C 0.4249(3) 0.8282(3) 0.5626(3)
H15 H 0.4447 0.8111 0.6126
C25 C 0.6308(3) 0.3545(3) 0.3254(3)
H16 H 0.6423 0.3131 0.2892
C26 C 0.4083(3) 0.9224(3) 0.5508(3)
C27 C 0.6463(3) 0.4822(3) 0.4590(3)
H17 H 0.6631 0.5155 0.5037
C28 C 0.7036(3) 0.3656(3) 0.3856(3)
H18 H 0.7563 0.3297 0.3843
C29 C 0.6787(4) 0.7236(4) 0.2971(3)
C30 C -0.0254(3) 0.6118(3) 0.3201(3)
H19 H -0.0752 0.6483 0.3274
C31 C 0.7119(3) 0.4204(3) 0.4472(3)
C32 C -0.1353(4) 0.4850(3) 0.3257(3)
H20 H -0.1801 0.4973 0.2799
H21 H -0.1532 0.5181 0.3658
H22 H -0.1331 0.4185 0.3357
C33 C 0.4176(4) 0.9836(3) 0.6174(3)
H23 H 0.4309 1.0471 0.6048
H24 H 0.4678 0.9608 0.6564
H25 H 0.3603 0.9825 0.6342
C34 C 0.7997(4) 0.4094(4) 0.5074(3)
H26 H 0.8137 0.4679 0.5339
H27 H 0.8507 0.3926 0.4853
H28 H 0.7908 0.3608 0.5415
Bi1A Bi 0.160913(11) 0.898379(10) 0.263783(9)
Bi2A Bi 0.159652(11) 0.162213(10) 0.214590(9)
O5A O 0.1550(2) 0.31452(19) 0.18134(16)
O6A O 0.3055(2) 0.19964(18) 0.20766(17)
O9A O 0.2705(2) 0.7481(2) 0.16183(17)
loop_
_geom_bond_atom_site_label_1
_geom_bond_atom_site_label_2
_geom_bond_site_symmetry_1
_geom_bond_site_symmetry_2
Bi1 O1 1_555 1_555
Bi2 O1 1_555 1_555
S1 O4 1_555 1_555
O1 C1 1_555 1_555
O2 Bi1 1_555 1_555
F1 C7 1_555 1_555
O3 Bi1 1_555 1_555
F2 C7 1_555 1_555
O4 Bi1 1_555 1_555
F3 C7 1_555 1_555
C1 C3 1_555 1_555
C2 H1 1_555 1_555
H2 C2 1_555 1_555
H3 C2 1_555 1_555
C3 O2 1_555 1_555
C4 C1 1_555 1_555
H4 C4 1_555 1_555
C5 C2 1_555 1_555
C6 C4 1_555 1_555
H5 C6 1_555 1_555
C7 S1 1_555 1_555
C8 C3 1_555 1_555
H6 C8 1_555 1_555
S2 O10 1_555 1_555
O5 Bi2 1_555 1_555
O6 Bi2 1_555 1_555
O7 Bi1 1_555 1_555
O8 S1 1_555 1_555
O9 S1 1_555 1_555
C9 O3 1_555 1_555
C10 C9 1_555 1_555
H7 C10 1_555 1_555
O11 Bi2 1_555 1_555
O12 Bi1 1_555 1_555
O13 Bi2 1_555 1_555
F4 C29 1_555 1_555
F5 C29 1_555 1_555
C11 O6 1_555 1_555
F6 C29 1_555 1_555
C12 O12 1_555 1_555
C13 H8 1_555 1_555
C14 C10 1_555 1_555
H9 C14 1_555 1_555
C15 O5 1_555 1_555
C16 O13 1_555 1_555
C17 C15 1_555 1_555
H10 C17 1_555 1_555
O14 S2 1_555 1_555
C18 O7 1_555 1_555
C19 C11 1_555 1_555
H11 C19 1_555 1_555
C20 C5 1_555 1_555
H12 C20 1_555 1_555
C21 C14 1_555 1_555
C22 C16 1_555 1_555
H13 C22 1_555 1_555
C23 C17 1_555 1_555
H14 C23 1_555 1_555
C24 C22 1_555 1_555
H15 C24 1_555 1_555
C25 C12 1_555 1_555
H16 C25 1_555 1_555
C26 C23 1_555 1_555
C27 C13 1_555 1_555
H17 C27 1_555 1_555
C28 C25 1_555 1_555
H18 C28 1_555 1_555
C29 S2 1_555 1_555
C30 C19 1_555 1_555
H19 C30 1_555 1_555
C31 C27 1_555 1_555
C32 C21 1_555 1_555
H20 C32 1_555 1_555
H21 C32 1_555 1_555
H22 C32 1_555 1_555
C33 C26 1_555 1_555
H23 C33 1_555 1_555
H24 C33 1_555 1_555
H25 C33 1_555 1_555
C34 C31 1_555 1_555
H26 C34 1_555 1_555
H27 C34 1_555 1_555
H28 C34 1_555 1_555
Bi1A O5 1_555 1_555
Bi2A O9 1_555 1_555
O5A Bi1 1_555 1_555
O6A Bi1 1_555 1_555
O9A Bi2 1_555 1_555
Bi2 O3 1_555 1_555
Bi2 O7 1_555 1_555
C5 C6 1_555 1_555
C8 C20 1_555 1_555
S2 O11 1_555 1_555
O6 Bi1A 1_555 1_555
C9 C11 1_555 1_555
C12 C18 1_555 1_555
C13 C18 1_555 1_555
C15 C16 1_555 1_555
C21 C30 1_555 1_555
C24 C26 1_555 1_555
C28 C31 1_555 1_555
Bi2A O5A 1_555 1_555
Bi2A O6A 1_555 1_555

#END
