
#######################################################################
#
#                 Cambridge Crystallographic Data Centre
#                                CCDC 
#
#######################################################################
#
# If this CIF has been generated from an entry in the Cambridge 
# Structural Database, then it will include bibliographic, chemical, 
# crystal, experimental, refinement or atomic coordinate data resulting 
# from the CCDC's data processing and validation procedures.
#
#######################################################################

data_DURDIE
_symmetry_cell_setting           monoclinic
_symmetry_space_group_name_H-M   'P 21/c'
_symmetry_Int_Tables_number      14
_space_group_name_Hall           '-P 2ybc'
loop_
_symmetry_equiv_pos_site_id
_symmetry_equiv_pos_as_xyz
1 x,y,z
2 -x,1/2+y,1/2-z
3 -x,-y,-z
4 x,1/2-y,1/2+z
_cell_length_a                   7.5863(16)
_cell_length_b                   21.925(5)
_cell_length_c                   8.8442(18)
_cell_angle_alpha                90
_cell_angle_beta                 108.775(4)
_cell_angle_gamma                90
_cell_volume                     1392.78
loop_
_atom_site_label
_atom_site_type_symbol
_atom_site_fract_x
_atom_site_fract_y
_atom_site_fract_z
Mn1 Mn 0.5000 0.5000 0.0000
Cl1 Cl 0.15989(9) 0.47621(4) -0.16003(8)
N1 N 0.4590(3) 0.45414(11) 0.2160(3)
N2 N 0.5081(3) 0.42190(13) 0.4681(3)
N3 N 0.3232(3) 0.42456(11) 0.3864(3)
N4 N -0.2711(3) 0.14940(11) 0.2963(3)
N5 N -0.4262(3) 0.17945(12) 0.2994(3)
N6 N -0.4061(3) 0.08737(11) 0.4162(3)
C1 C 0.5808(4) 0.44071(16) 0.3598(4)
H1 H 0.7087 0.4445 0.3815
C2 C 0.2973(4) 0.44391(13) 0.2394(3)
H2 H 0.1814 0.4496 0.1626
C3 C 0.1824(4) 0.40794(15) 0.4602(3)
H3 H 0.0868 0.4391 0.4366
H4 H 0.2401 0.4061 0.5752
C4 C 0.0941(4) 0.34717(14) 0.4007(3)
C5 C -0.0630(4) 0.34410(15) 0.2691(4)
H5 H -0.1170 0.3799 0.2191
C6 C -0.1420(4) 0.28890(16) 0.2101(4)
H6 H -0.2486 0.2880 0.1210
C7 C -0.0655(4) 0.23505(14) 0.2810(4)
C8 C 0.0892(4) 0.23780(15) 0.4153(4)
H7 H 0.1405 0.2020 0.4675
C9 C 0.1687(4) 0.29315(15) 0.4731(4)
H8 H 0.2747 0.2941 0.5627
C10 C -0.1494(4) 0.17476(15) 0.2130(4)
H9 H -0.2205 0.1801 0.1010
H10 H -0.0501 0.1460 0.2195
C11 C -0.2619(4) 0.09541(14) 0.3656(3)
H11 H -0.1671 0.0671 0.3771
C12 C -0.5005(4) 0.13984(15) 0.3729(3)
H12 H -0.6111 0.1476 0.3935
Mn1A Mn -0.5000 0.0000 0.5000
Mn1A_2 Mn 1.5000 1.0000 -0.5000
Cl1B Cl 0.84011(9) 0.52379(4) 0.16003(8)
N1B N 0.5410(3) 0.54586(11) -0.2160(3)
N2B N 0.4919(3) 0.57810(13) -0.4681(3)
N3B N 0.6768(3) 0.57544(11) -0.3864(3)
N4B N 1.2711(3) 0.85060(11) -0.2963(3)
N5B N 1.4262(3) 0.82055(12) -0.2994(3)
N6B N 1.4061(3) 0.91263(11) -0.4162(3)
N6A N 0.4061(3) 0.58737(11) 0.0838(3)
N6C N 0.5939(3) 0.41263(11) -0.0838(3)
C1B C 0.4192(4) 0.55929(16) -0.3598(4)
H1B H 0.2913 0.5555 -0.3815
C2B C 0.7027(4) 0.55609(13) -0.2394(3)
H2B H 0.8186 0.5504 -0.1626
C3B C 0.8176(4) 0.59206(15) -0.4602(3)
H3B H 0.9132 0.5609 -0.4366
H4B H 0.7599 0.5939 -0.5752
C4B C 0.9059(4) 0.65283(14) -0.4007(3)
C5B C 1.0630(4) 0.65590(15) -0.2691(4)
H5B H 1.1170 0.6201 -0.2191
C6B C 1.1420(4) 0.71110(16) -0.2101(4)
H6B H 1.2486 0.7120 -0.1210
C7B C 1.0655(4) 0.76495(14) -0.2810(4)
C8B C 0.9108(4) 0.76220(15) -0.4153(4)
H7B H 0.8595 0.7980 -0.4675
C9B C 0.8313(4) 0.70685(15) -0.4731(4)
H8B H 0.7253 0.7059 -0.5627
C10B C 1.1494(4) 0.82524(15) -0.2130(4)
H9B H 1.2205 0.8199 -0.1010
H10B H 1.0501 0.8540 -0.2195
C11B C 1.2619(4) 0.90459(14) -0.3656(3)
H11B H 1.1671 0.9329 -0.3771
C12B C 1.5005(4) 0.86016(15) -0.3729(3)
H12B H 1.6111 0.8524 -0.3935
loop_
_geom_bond_atom_site_label_1
_geom_bond_atom_site_label_2
_geom_bond_site_symmetry_1
_geom_bond_site_symmetry_2
Mn1 Cl1 1_555 1_555
N1 Mn1 1_555 1_555
N2 N3 1_555 1_555
N3 C2 1_555 1_555
N4 N5 1_555 1_555
N5 C12 1_555 1_555
N6 C11 1_555 1_555
C1 N1 1_555 1_555
H1 C1 1_555 1_555
C2 N1 1_555 1_555
H2 C2 1_555 1_555
C3 N3 1_555 1_555
H3 C3 1_555 1_555
H4 C3 1_555 1_555
C4 C3 1_555 1_555
C5 C4 1_555 1_555
H5 C5 1_555 1_555
C6 C5 1_555 1_555
H6 C6 1_555 1_555
C7 C6 1_555 1_555
C8 C7 1_555 1_555
H7 C8 1_555 1_555
C9 C4 1_555 1_555
H8 C9 1_555 1_555
C10 N4 1_555 1_555
H9 C10 1_555 1_555
H10 C10 1_555 1_555
C11 N4 1_555 1_555
H11 C11 1_555 1_555
C12 N6 1_555 1_555
H12 C12 1_555 1_555
Mn1A N6 1_555 1_555
Mn1A_2 N6B 1_555 1_555
Cl1B Mn1 1_555 1_555
N1B Mn1 1_555 1_555
N2B N3B 1_555 1_555
N3B C2B 1_555 1_555
N4B N5B 1_555 1_555
N5B C12B 1_555 1_555
N6B C11B 1_555 1_555
N6A Mn1 1_555 1_555
N6C Mn1 1_555 1_555
C1B N1B 1_555 1_555
H1B C1B 1_555 1_555
C2B N1B 1_555 1_555
H2B C2B 1_555 1_555
C3B N3B 1_555 1_555
H3B C3B 1_555 1_555
H4B C3B 1_555 1_555
C4B C3B 1_555 1_555
C5B C4B 1_555 1_555
H5B C5B 1_555 1_555
C6B C5B 1_555 1_555
H6B C6B 1_555 1_555
C7B C6B 1_555 1_555
C8B C7B 1_555 1_555
H7B C8B 1_555 1_555
C9B C4B 1_555 1_555
H8B C9B 1_555 1_555
C10B N4B 1_555 1_555
H9B C10B 1_555 1_555
H10B C10B 1_555 1_555
C11B N4B 1_555 1_555
H11B C11B 1_555 1_555
C12B N6B 1_555 1_555
H12B C12B 1_555 1_555
N2 C1 1_555 1_555
C7 C10 1_555 1_555
C8 C9 1_555 1_555
N2B C1B 1_555 1_555
C7B C10B 1_555 1_555
C8B C9B 1_555 1_555

#END
