
#######################################################################
#
#                 Cambridge Crystallographic Data Centre
#                                CCDC 
#
#######################################################################
#
# If this CIF has been generated from an entry in the Cambridge 
# Structural Database, then it will include bibliographic, chemical, 
# crystal, experimental, refinement or atomic coordinate data resulting 
# from the CCDC's data processing and validation procedures.
#
#######################################################################

data_DURDEA
_symmetry_cell_setting           monoclinic
_symmetry_space_group_name_H-M   'P 21/n'
_symmetry_Int_Tables_number      14
_space_group_name_Hall           '-P 2yn'
loop_
_symmetry_equiv_pos_site_id
_symmetry_equiv_pos_as_xyz
1 x,y,z
2 1/2-x,1/2+y,1/2-z
3 -x,-y,-z
4 1/2+x,1/2-y,1/2+z
_cell_length_a                   9.8574(5)
_cell_length_b                   16.0734(8)
_cell_length_c                   17.1669(8)
_cell_angle_alpha                90
_cell_angle_beta                 99.4470(10)
_cell_angle_gamma                90
_cell_volume                     2683.07
loop_
_atom_site_label
_atom_site_type_symbol
_atom_site_fract_x
_atom_site_fract_y
_atom_site_fract_z
Sn1 Sn 0.914994(9) 0.372319(5) 0.750433(5)
O1 O 0.88805(10) 0.26134(6) 0.67977(6)
O2 O 0.66233(11) 0.26088(6) 0.67972(6)
O3 O 0.53077(10) -0.00855(6) 0.66684(6)
N1 N 0.51088(14) 0.12682(7) 0.69698(8)
H1 H 0.5391(19) 0.1765(7) 0.6891(11)
C1 C 0.78221(14) 0.45043(8) 0.67164(8)
C2 C 0.78027(18) 0.44190(10) 0.59071(9)
H2 H 0.8315 0.3985 0.5717
C3 C 0.70416(19) 0.49620(11) 0.53752(10)
H3 H 0.7034 0.4895 0.4825
C4 C 0.62957(17) 0.55996(10) 0.56442(10)
H4 H 0.5788 0.5975 0.5280
C5 C 0.62943(15) 0.56869(9) 0.64469(10)
H5 H 0.5781 0.6122 0.6635
C6 C 0.70430(14) 0.51388(9) 0.69779(9)
H6 H 0.7024 0.5197 0.7527
C7 C 1.12405(15) 0.37813(8) 0.73368(9)
C8 C 1.22988(15) 0.39979(9) 0.79465(9)
H7 H 1.2096 0.4093 0.8461
C9 C 1.36463(16) 0.40761(10) 0.78118(10)
H8 H 1.4356 0.4216 0.8236
C10 C 1.39583(16) 0.39509(9) 0.70631(10)
H9 H 1.4880 0.4002 0.6973
C11 C 1.29187(18) 0.37515(9) 0.64477(10)
H10 H 1.3124 0.3677 0.5931
C12 C 1.15697(16) 0.36592(9) 0.65838(9)
H11 H 1.0866 0.3512 0.6159
C13 C 0.85936(15) 0.32474(8) 0.85593(8)
C14 C 0.72102(16) 0.32227(9) 0.86407(9)
H12 H 0.6523 0.3338 0.8198
C15 C 0.68262(17) 0.30300(10) 0.93644(9)
H13 H 0.5880 0.3018 0.9413
C16 C 0.78136(19) 0.28563(10) 1.00104(9)
H14 H 0.7549 0.2737 1.0506
C17 C 0.91974(18) 0.28560(10) 0.99353(9)
H15 H 0.9878 0.2718 1.0375
C18 C 0.95815(16) 0.30584(9) 0.92144(9)
H16 H 1.0528 0.3068 0.9168
C19 C 0.76680(15) 0.22960(8) 0.66099(8)
C20 C 0.76215(15) 0.15244(9) 0.60958(8)
C21 C 0.86142(16) 0.15062(10) 0.55998(9)
H17 H 0.9268 0.1944 0.5633
C22 C 0.86751(17) 0.08691(10) 0.50612(9)
H18 H 0.9354 0.0877 0.4727
C23 C 0.77383(17) 0.02216(9) 0.50143(9)
H19 H 0.7757 -0.0212 0.4640
C24 C 0.67742(15) 0.02117(9) 0.55164(8)
H20 H 0.6152 -0.0243 0.5490
C25 C 0.66847(14) 0.08489(8) 0.60619(8)
C26 C 0.56431(14) 0.06626(8) 0.66012(8)
C27 C 0.41889(15) 0.11215(9) 0.75476(9)
H21 H 0.4034 0.0509 0.7585
C28 C 0.48651(19) 0.14361(12) 0.83514(10)
H22 H 0.5067 0.2037 0.8317
H23 H 0.5746 0.1140 0.8516
C29 C 0.3924(2) 0.12963(12) 0.89671(11)
H24 H 0.3791 0.0692 0.9036
H25 H 0.4365 0.1528 0.9481
C30 C 0.2540(2) 0.17094(11) 0.87143(12)
H26 H 0.1931 0.1578 0.9103
H27 H 0.2664 0.2320 0.8708
C31 C 0.18684(19) 0.14199(13) 0.79050(13)
H28 H 0.1005 0.1734 0.7742
H29 H 0.1630 0.0823 0.7930
C32 C 0.28089(18) 0.15421(12) 0.72883(11)
H30 H 0.2364 0.1305 0.6777
H31 H 0.2952 0.2144 0.7212
Sn1A Sn 0.585006(9) -0.127681(5) 0.749567(5)
O3A O 0.96923(10) 0.49145(6) 0.83316(6)
loop_
_geom_bond_atom_site_label_1
_geom_bond_atom_site_label_2
_geom_bond_site_symmetry_1
_geom_bond_site_symmetry_2
Sn1 O1 1_555 1_555
O1 C19 1_555 1_555
O2 C19 1_555 1_555
O3 C26 1_555 1_555
N1 H1 1_555 1_555
C1 Sn1 1_555 1_555
C2 C1 1_555 1_555
H2 C2 1_555 1_555
C3 C2 1_555 1_555
H3 C3 1_555 1_555
C4 C3 1_555 1_555
H4 C4 1_555 1_555
C5 C4 1_555 1_555
H5 C5 1_555 1_555
C6 C1 1_555 1_555
H6 C6 1_555 1_555
C7 Sn1 1_555 1_555
C8 C7 1_555 1_555
H7 C8 1_555 1_555
C9 C8 1_555 1_555
H8 C9 1_555 1_555
C10 C9 1_555 1_555
H9 C10 1_555 1_555
C11 C10 1_555 1_555
H10 C11 1_555 1_555
C12 C7 1_555 1_555
H11 C12 1_555 1_555
C13 Sn1 1_555 1_555
C14 C13 1_555 1_555
H12 C14 1_555 1_555
C15 C14 1_555 1_555
H13 C15 1_555 1_555
C16 C15 1_555 1_555
H14 C16 1_555 1_555
C17 C16 1_555 1_555
H15 C17 1_555 1_555
C18 C13 1_555 1_555
H16 C18 1_555 1_555
C19 C20 1_555 1_555
C20 C21 1_555 1_555
C21 H17 1_555 1_555
C22 C21 1_555 1_555
H18 C22 1_555 1_555
C23 C22 1_555 1_555
H19 C23 1_555 1_555
C24 C23 1_555 1_555
H20 C24 1_555 1_555
C25 C20 1_555 1_555
C26 N1 1_555 1_555
C27 N1 1_555 1_555
H21 C27 1_555 1_555
C28 C27 1_555 1_555
H22 C28 1_555 1_555
H23 C28 1_555 1_555
C29 C28 1_555 1_555
H24 C29 1_555 1_555
H25 C29 1_555 1_555
C30 C29 1_555 1_555
H26 C30 1_555 1_555
H27 C30 1_555 1_555
C31 C30 1_555 1_555
H28 C31 1_555 1_555
H29 C31 1_555 1_555
C32 C27 1_555 1_555
H30 C32 1_555 1_555
H31 C32 1_555 1_555
Sn1A O3 1_555 1_555
O3A Sn1 1_555 1_555
C5 C6 1_555 1_555
C11 C12 1_555 1_555
C17 C18 1_555 1_555
C24 C25 1_555 1_555
C25 C26 1_555 1_555
C31 C32 1_555 1_555

#END
