
#######################################################################
#
#                 Cambridge Crystallographic Data Centre
#                                CCDC 
#
#######################################################################
#
# If this CIF has been generated from an entry in the Cambridge 
# Structural Database, then it will include bibliographic, chemical, 
# crystal, experimental, refinement or atomic coordinate data resulting 
# from the CCDC's data processing and validation procedures.
#
#######################################################################

data_DURGAY
_symmetry_cell_setting           triclinic
_symmetry_space_group_name_H-M   'P -1'
_symmetry_Int_Tables_number      2
_space_group_name_Hall           '-P 1'
loop_
_symmetry_equiv_pos_site_id
_symmetry_equiv_pos_as_xyz
1 x,y,z
2 -x,-y,-z
_cell_length_a                   5.545(1)
_cell_length_b                   6.588(4)
_cell_length_c                   9.020(4)
_cell_angle_alpha                96.87(4)
_cell_angle_beta                 102.19(3)
_cell_angle_gamma                109.61(3)
_cell_volume                     296.831
loop_
_atom_site_label
_atom_site_type_symbol
_atom_site_fract_x
_atom_site_fract_y
_atom_site_fract_z
Na1 Na 0.1675(3) 0.3610(3) 0.9003(2)
O1 O 0.2581(6) 0.0506(5) 0.8023(3)
O2 O 0.2946(7) -0.2092(5) 0.6370(3)
C1 C 0.1525(7) 0.0592(7) 0.5332(4)
C2 C 0.2446(7) -0.0375(6) 0.6671(4)
O3 O -0.2085(6) 0.2461(5) 0.9953(3)
O4 O -0.1266(7) 0.4295(5) 0.6738(3)
O5 O 0.4329(6) 0.4124(5) 1.1636(3)
H1 H 0.211 0.235 0.587
H2 H 0.229 0.021 0.449
H3 H -0.193 0.151 1.079
H4 H -0.377 0.189 0.908
H5 H 0.000 0.572 0.644
H6 H -0.223 0.362 0.560
H7 H 0.494 0.309 1.240
H8 H 0.374 0.482 1.272
C1A C -0.1525(7) -0.0592(7) 0.4668(4)
C2A C -0.2446(7) 0.0375(6) 0.3329(4)
O1A O -0.2581(6) -0.0506(5) 0.1977(3)
Na1A Na -0.1675(3) -0.3610(3) 0.0997(2)
O3A O 0.2085(6) -0.2461(5) 0.0047(3)
Na1_2 Na 0.1675(3) -0.6390(3) -0.0997(2)
O3_2 O -0.2085(6) -0.7539(5) -0.0047(3)
O4A O 0.1266(7) -0.4295(5) 0.3262(3)
H5A H 0.000 -0.572 0.356
H6A H 0.223 -0.362 0.440
O5A O -0.4329(6) -0.4124(5) -0.1636(3)
Na1_3 Na -0.8325(3) -0.6390(3) -0.0997(2)
O5_2 O -0.5671(6) -0.5876(5) 0.1636(3)
H7_2 H -0.506 -0.691 0.240
H8_2 H -0.626 -0.518 0.272
H7A H -0.494 -0.309 -0.240
H8A H -0.374 -0.482 -0.272
H3_2 H -0.193 -0.849 0.079
H4_2 H -0.377 -0.811 -0.092
H3A H 0.193 -0.151 -0.079
H4A H 0.377 -0.189 0.092
O2A O -0.2946(7) 0.2092(5) 0.3630(3)
H1A H -0.211 -0.235 0.413
H2A H -0.229 -0.021 0.551
O3A_2 O 0.2085(6) 0.7539(5) 1.0047(3)
O5A_2 O 0.5671(6) 0.5876(5) 0.8364(3)
Na1A_2 Na -0.1675(3) 0.6390(3) 1.0997(2)
Na1A_3 Na 0.8325(3) 0.6390(3) 1.0997(2)
H3A_2 H 0.193 0.849 0.921
H4A_2 H 0.377 0.811 1.092
H7A_2 H 0.506 0.691 0.760
H8A_2 H 0.626 0.518 0.728
loop_
_geom_bond_atom_site_label_1
_geom_bond_atom_site_label_2
_geom_bond_site_symmetry_1
_geom_bond_site_symmetry_2
Na1 O1 1_555 1_555
O1 C2 1_555 1_555
O2 C2 1_555 1_555
C1 C2 1_555 1_555
O3 Na1 1_555 1_555
O4 Na1 1_555 1_555
O5 Na1 1_555 1_555
H1 C1 1_555 1_555
H2 C1 1_555 1_555
H3 O3 1_555 1_555
H4 O3 1_555 1_555
H5 O4 1_555 1_555
H6 O4 1_555 1_555
H7 O5 1_555 1_555
H8 O5 1_555 1_555
C1A C1 1_555 1_555
C2A C1A 1_555 1_555
O1A C2A 1_555 1_555
Na1A O1A 1_555 1_555
O3A Na1A 1_555 1_555
Na1_2 O3A 1_555 1_555
O3_2 Na1A 1_555 1_555
O4A Na1A 1_555 1_555
H5A O4A 1_555 1_555
H6A O4A 1_555 1_555
O5A Na1A 1_555 1_555
Na1_3 O5A 1_555 1_555
O5_2 Na1A 1_555 1_555
H7_2 O5_2 1_555 1_555
H8_2 O5_2 1_555 1_555
H7A O5A 1_555 1_555
H8A O5A 1_555 1_555
H3_2 O3_2 1_555 1_555
H4_2 O3_2 1_555 1_555
H3A O3A 1_555 1_555
H4A O3A 1_555 1_555
O2A C2A 1_555 1_555
H1A C1A 1_555 1_555
H2A C1A 1_555 1_555
O3A_2 Na1 1_555 1_555
O5A_2 Na1 1_555 1_555
Na1A_2 O3 1_555 1_555
Na1A_3 O5 1_555 1_555
H3A_2 O3A_2 1_555 1_555
H4A_2 O3A_2 1_555 1_555
H7A_2 O5A_2 1_555 1_555
H8A_2 O5A_2 1_555 1_555
Na1_2 O3_2 1_555 1_555
Na1_3 O5_2 1_555 1_555
O3A_2 Na1A_2 1_555 1_555
O5A_2 Na1A_3 1_555 1_555

#END
