
#######################################################################
#
#                 Cambridge Crystallographic Data Centre
#                                CCDC 
#
#######################################################################
#
# If this CIF has been generated from an entry in the Cambridge 
# Structural Database, then it will include bibliographic, chemical, 
# crystal, experimental, refinement or atomic coordinate data resulting 
# from the CCDC's data processing and validation procedures.
#
#######################################################################

data_DURHII
_symmetry_cell_setting           monoclinic
_symmetry_space_group_name_H-M   'P 21/c'
_symmetry_Int_Tables_number      14
_space_group_name_Hall           '-P 2ybc'
loop_
_symmetry_equiv_pos_site_id
_symmetry_equiv_pos_as_xyz
1 x,y,z
2 -x,1/2+y,1/2-z
3 -x,-y,-z
4 x,1/2-y,1/2+z
_cell_length_a                   14.1146(3)
_cell_length_b                   7.7431(2)
_cell_length_c                   19.2165(4)
_cell_angle_alpha                90
_cell_angle_beta                 102.322(2)
_cell_angle_gamma                90
_cell_volume                     2051.81
loop_
_atom_site_label
_atom_site_type_symbol
_atom_site_fract_x
_atom_site_fract_y
_atom_site_fract_z
Pb1 Pb 0.455879(7) 0.261390(11) 0.672516(4)
O1 O 0.26579(14) 0.3383(2) 0.61028(9)
O2 O 0.38915(13) 0.5234(2) 0.62939(9)
O3 O 0.59356(13) 0.3990(2) 0.63203(9)
O4 O 0.59623(14) 0.4377(2) 0.74604(9)
O5 O 0.42873(14) 0.1659(2) 0.53563(9)
N1 N 0.39370(16) 0.1149(3) 0.28403(10)
N2 N 0.53688(17) 0.3091(3) 0.48605(12)
H1 H 0.566(2) 0.351(4) 0.5262(17)
H2 H 0.552(2) 0.347(4) 0.4480(17)
C1 C 0.29883(19) 0.4848(3) 0.60520(12)
C2 C 0.23623(19) 0.6286(3) 0.56937(13)
C3 C 0.26372(19) 0.8006(3) 0.58144(13)
H3 H 0.3189 0.8277 0.6157
C4 C 0.2096(2) 0.9319(3) 0.54282(13)
H4 H 0.2277 1.0464 0.5524
C5 C 0.1285(2) 0.8938(3) 0.48978(13)
C6 C 0.0983(2) 0.7224(4) 0.48013(15)
H5 H 0.0423 0.6958 0.4466
C7 C 0.1510(2) 0.5900(3) 0.52003(13)
H6 H 0.1293 0.4764 0.5138
C8 C 0.0763(2) 1.0343(4) 0.44306(15)
H7 H 0.0096 1.0025 0.4265
H8 H 0.1060 1.0507 0.4030
H9 H 0.0800 1.1398 0.4698
C9 C 0.63657(19) 0.4482(3) 0.69346(12)
C10 C 0.73759(19) 0.5183(3) 0.70341(13)
C11 C 0.7859(2) 0.5820(3) 0.76893(13)
H10 H 0.7547 0.5834 0.8070
C12 C 0.8796(2) 0.6431(3) 0.77827(14)
H11 H 0.9103 0.6877 0.8223
C13 C 0.9291(2) 0.6390(3) 0.72244(15)
C14 C 0.8792(2) 0.5788(3) 0.65661(14)
H12 H 0.9099 0.5787 0.6184
C15 C 0.7850(2) 0.5191(3) 0.64661(13)
H13 H 0.7531 0.4794 0.6021
C16 C 1.0339(2) 0.6892(4) 0.73324(19)
H14 H 1.0436 0.7559 0.6932
H15 H 1.0733 0.5870 0.7375
H16 H 1.0520 0.7568 0.7759
C17 C 0.43980(18) 0.1755(3) 0.34748(12)
H17 H 0.4933 0.2468 0.3494
C18 C 0.41142(18) 0.1368(3) 0.41091(12)
C19 C 0.33353(19) 0.0266(3) 0.40765(13)
H18 H 0.3133 -0.0039 0.4490
C20 C 0.2860(2) -0.0379(3) 0.34251(13)
H19 H 0.2337 -0.1125 0.3393
C21 C 0.31782(19) 0.0106(3) 0.28202(13)
H20 H 0.2849 -0.0311 0.2381
C22 C 0.46060(19) 0.2068(3) 0.48252(13)
Pb1C Pb 0.455879(7) 0.238610(11) 0.172516(4)
N1C N 0.39370(16) 0.3851(3) 0.78403(10)
loop_
_geom_bond_atom_site_label_1
_geom_bond_atom_site_label_2
_geom_bond_site_symmetry_1
_geom_bond_site_symmetry_2
Pb1 O1 1_555 1_555
O1 C1 1_555 1_555
O2 Pb1 1_555 1_555
O3 Pb1 1_555 1_555
O4 Pb1 1_555 1_555
O5 Pb1 1_555 1_555
N1 C17 1_555 1_555
N2 H1 1_555 1_555
H2 N2 1_555 1_555
C1 O2 1_555 1_555
C2 C1 1_555 1_555
C3 C2 1_555 1_555
H3 C3 1_555 1_555
C4 C3 1_555 1_555
H4 C4 1_555 1_555
C5 C4 1_555 1_555
C6 C5 1_555 1_555
H5 C6 1_555 1_555
C7 C2 1_555 1_555
H6 C7 1_555 1_555
C8 C5 1_555 1_555
H7 C8 1_555 1_555
H8 C8 1_555 1_555
H9 C8 1_555 1_555
C9 O3 1_555 1_555
C10 C9 1_555 1_555
C11 C10 1_555 1_555
H10 C11 1_555 1_555
C12 C11 1_555 1_555
H11 C12 1_555 1_555
C13 C12 1_555 1_555
C14 C13 1_555 1_555
H12 C14 1_555 1_555
C15 C10 1_555 1_555
H13 C15 1_555 1_555
C16 C13 1_555 1_555
H14 C16 1_555 1_555
H15 C16 1_555 1_555
H16 C16 1_555 1_555
C17 H17 1_555 1_555
C18 C17 1_555 1_555
C19 C18 1_555 1_555
H18 C19 1_555 1_555
C20 C19 1_555 1_555
H19 C20 1_555 1_555
C21 N1 1_555 1_555
H20 C21 1_555 1_555
C22 O5 1_555 1_555
Pb1C N1 1_555 1_555
N1C Pb1 1_555 1_555
O4 C9 1_555 1_555
N2 C22 1_555 1_555
C6 C7 1_555 1_555
C14 C15 1_555 1_555
C18 C22 1_555 1_555
C20 C21 1_555 1_555

#END
