
#######################################################################
#
#                 Cambridge Crystallographic Data Centre
#                                CCDC 
#
#######################################################################
#
# If this CIF has been generated from an entry in the Cambridge 
# Structural Database, then it will include bibliographic, chemical, 
# crystal, experimental, refinement or atomic coordinate data resulting 
# from the CCDC's data processing and validation procedures.
#
#######################################################################

data_DURKUW01
_symmetry_cell_setting           monoclinic
_symmetry_space_group_name_H-M   'P 21/c'
_symmetry_Int_Tables_number      14
_space_group_name_Hall           '-P 2ybc'
loop_
_symmetry_equiv_pos_site_id
_symmetry_equiv_pos_as_xyz
1 x,y,z
2 -x,1/2+y,1/2-z
3 -x,-y,-z
4 x,1/2-y,1/2+z
_cell_length_a                   10.3727(8)
_cell_length_b                   16.812(2)
_cell_length_c                   9.496(5)
_cell_angle_alpha                90
_cell_angle_beta                 92.585(14)
_cell_angle_gamma                90
_cell_volume                     1654.28
loop_
_atom_site_label
_atom_site_type_symbol
_atom_site_fract_x
_atom_site_fract_y
_atom_site_fract_z
La1 La 0.47786(2) 0.13256(1) 0.46099(2)
O1 O 0.4183(3) -0.1246(2) 0.2643(3)
O2 O 0.5106(3) 0.0133(2) 0.6355(3)
O3 O 0.3906(3) 0.0767(2) 0.1574(3)
O4 O 0.2837(3) -0.0918(2) 0.5465(3)
O5 O 0.3564(3) -0.1549(2) 0.7400(3)
O6 O 0.1188(4) -0.1270(2) 0.8635(4)
O7 O 0.6569(3) -0.2246(2) 0.6818(3)
O8 O 0.6622(3) -0.3038(2) 0.8710(3)
O9 O 0.9119(3) -0.3380(2) 0.8444(4)
O10 O 0.7414(3) -0.0619(2) 0.5312(3)
O11 O 0.4053(3) -0.2669(2) 0.5067(3)
C1 C 0.4311(4) -0.0513(2) 0.2622(4)
C2 C 0.3817(4) -0.0043(2) 0.1421(4)
C3 C 0.3285(5) -0.0230(3) 0.0144(5)
H1 H 0.3115(5) -0.0737(3) -0.0209(5)
C4 C 0.3032(5) 0.0511(3) -0.0560(5)
H2 H 0.2667(5) 0.0581(3) -0.1464(5)
C5 C 0.3421(5) 0.1080(3) 0.0334(5)
H3 H 0.3370(5) 0.1622(3) 0.0139(5)
C6 C 0.2693(4) -0.1177(2) 0.6714(4)
C7 C 0.1464(4) -0.0989(3) 0.7340(5)
C8 C 0.0521(4) -0.0525(3) 0.6832(5)
H4 H 0.0484(4) -0.0266(3) 0.5966(5)
C9 C -0.0431(5) -0.0501(4) 0.7879(6)
H5 H -0.1204(5) -0.0221(4) 0.7827(6)
C10 C 0.0007(5) -0.0957(4) 0.8936(6)
H6 H -0.0422(5) -0.1051(4) 0.9759(6)
C11 C 0.7125(4) -0.2706(2) 0.7687(4)
C12 C 0.8503(4) -0.2869(2) 0.7502(4)
C13 C 0.9375(5) -0.2585(3) 0.6617(6)
H7 H 0.9214(5) -0.2229(3) 0.5880(6)
C14 C 1.0561(5) -0.2925(3) 0.7014(7)
H8 H 1.1338(5) -0.2837(3) 0.6587(7)
C15 C 1.0387(5) -0.3400(4) 0.8112(7)
H9 H 1.1028(5) -0.3698(4) 0.8581(7)
O2B O 0.4894(3) -0.0133(2) 0.3645(3)
La1B La 0.52214(2) -0.13256(1) 0.53901(2)
La1A La 0.52214(2) -0.36744(1) 1.03901(2)
O8C O 0.6622(3) -0.1962(2) 0.3710(3)
loop_
_geom_bond_atom_site_label_1
_geom_bond_atom_site_label_2
_geom_bond_site_symmetry_1
_geom_bond_site_symmetry_2
La1 O2 1_555 1_555
O1 C1 1_555 1_555
O2 La1B 1_555 1_555
O3 C2 1_555 1_555
O4 C6 1_555 1_555
O5 C6 1_555 1_555
O6 C7 1_555 1_555
O7 C11 1_555 1_555
O8 C11 1_555 1_555
O9 C12 1_555 1_555
O10 La1B 1_555 1_555
O11 La1B 1_555 1_555
C1 C2 1_555 1_555
C2 C3 1_555 1_555
C3 H1 1_555 1_555
C4 C3 1_555 1_555
H2 C4 1_555 1_555
C5 O3 1_555 1_555
H3 C5 1_555 1_555
C6 C7 1_555 1_555
C7 C8 1_555 1_555
C8 H4 1_555 1_555
C9 C8 1_555 1_555
H5 C9 1_555 1_555
C10 O6 1_555 1_555
H6 C10 1_555 1_555
C11 C12 1_555 1_555
C12 C13 1_555 1_555
C13 H7 1_555 1_555
C14 C13 1_555 1_555
H8 C14 1_555 1_555
C15 O9 1_555 1_555
H9 C15 1_555 1_555
O2B La1 1_555 1_555
La1B O1 1_555 1_555
La1A O8 1_555 1_555
O8C La1B 1_555 1_555
O4 La1B 1_555 1_555
O5 La1B 1_555 1_555
O7 La1B 1_555 1_555
C1 O2B 1_555 1_555
C4 C5 1_555 1_555
C9 C10 1_555 1_555
C14 C15 1_555 1_555
O2B La1B 1_555 1_555

#END
