
#######################################################################
#
#                 Cambridge Crystallographic Data Centre
#                                CCDC 
#
#######################################################################
#
# If this CIF has been generated from an entry in the Cambridge 
# Structural Database, then it will include bibliographic, chemical, 
# crystal, experimental, refinement or atomic coordinate data resulting 
# from the CCDC's data processing and validation procedures.
#
#######################################################################

data_DURKIL
_symmetry_cell_setting           monoclinic
_symmetry_space_group_name_H-M   'P 21/c'
_symmetry_Int_Tables_number      14
_space_group_name_Hall           '-P 2ybc'
loop_
_symmetry_equiv_pos_site_id
_symmetry_equiv_pos_as_xyz
1 x,y,z
2 -x,1/2+y,1/2-z
3 -x,-y,-z
4 x,1/2-y,1/2+z
_cell_length_a                   7.4743(15)
_cell_length_b                   14.997(3)
_cell_length_c                   9.479(4)
_cell_angle_alpha                90
_cell_angle_beta                 122.31(2)
_cell_angle_gamma                90
_cell_volume                     898.009
loop_
_atom_site_label
_atom_site_type_symbol
_atom_site_fract_x
_atom_site_fract_y
_atom_site_fract_z
Cu1 Cu 1.35975(11) 0.01316(5) 0.29370(10)
Cu2 Cu 0.50000 0.00000 0.00000
O1 O 0.7728(6) -0.0882(3) 0.0359(5)
O2 O 1.1215(6) -0.0703(3) 0.1528(5)
N1 N 0.5388(8) -0.0444(4) 0.2223(7)
N2 N 0.5623(9) -0.1253(4) 0.2455(7)
N3 N 0.5866(13) -0.2001(5) 0.2695(10)
N4 N 1.5759(9) 0.0895(4) 0.4673(7)
N5 N 1.7546(9) 0.0933(4) 0.4977(6)
N6 N 1.9281(11) 0.0987(6) 0.5367(8)
N7 N 1.1181(8) 0.0896(3) 0.2648(6)
N8 N 0.7462(8) 0.0827(3) 0.1309(6)
C1 C 0.9407(9) -0.0464(4) 0.1173(7)
C2 C 0.9320(9) 0.0481(4) 0.1760(7)
C3 C 0.7414(11) 0.1682(4) 0.1722(9)
C4 C 0.9286(12) 0.2167(5) 0.2647(9)
C5 C 1.1161(11) 0.1746(4) 0.3094(8)
H1 H 0.61250 0.19510 0.13880
H2 H 0.92720 0.27550 0.29530
H3 H 1.24310 0.20550 0.37130
Cu1B Cu -0.35975(11) -0.01316(5) -0.29370(10)
Cu1_2 Cu 0.35975(11) 0.01316(5) 0.29370(10)
Cu1B_2 Cu 1.64025(11) -0.01316(5) 0.70630(10)
Cu1B_3 Cu 0.64025(11) -0.01316(5) -0.29370(10)
O1B O 0.2272(6) 0.0882(3) -0.0359(5)
O2B O -0.1215(6) 0.0703(3) -0.1528(5)
N1B N 0.4612(8) 0.0444(4) -0.2223(7)
N1_2 N 1.5388(8) -0.0444(4) 0.2223(7)
N1B_2 N -0.5388(8) 0.0444(4) -0.2223(7)
N2B N 0.4377(9) 0.1253(4) -0.2455(7)
N3B N 0.4134(13) 0.2001(5) -0.2695(10)
N4B N 1.4241(9) -0.0895(4) 0.5327(7)
N4B_2 N -0.5759(9) -0.0895(4) -0.4673(7)
N4_2 N -0.4241(9) 0.0895(4) -0.5327(7)
N5B N 1.2454(9) -0.0933(4) 0.5023(6)
N6B N 1.0719(11) -0.0987(6) 0.4633(8)
N7B N -0.1181(8) -0.0896(3) -0.2648(6)
N8B N 0.2538(8) -0.0827(3) -0.1309(6)
C1B C 0.0593(9) 0.0464(4) -0.1173(7)
C2B C 0.0680(9) -0.0481(4) -0.1760(7)
C3B C 0.2586(11) -0.1682(4) -0.1722(9)
C4B C 0.0714(12) -0.2167(5) -0.2647(9)
C5B C -0.1161(11) -0.1746(4) -0.3094(8)
H1B H 0.38750 -0.19510 -0.13880
H2B H 0.07280 -0.27550 -0.29530
H3B H -0.24310 -0.20550 -0.37130
loop_
_geom_bond_atom_site_label_1
_geom_bond_atom_site_label_2
_geom_bond_site_symmetry_1
_geom_bond_site_symmetry_2
Cu1 O2 1_555 1_555
Cu2 O1 1_555 1_555
O1 C1 1_555 1_555
O2 C1 1_555 1_555
N1 Cu2 1_555 1_555
N2 N1 1_555 1_555
N3 N2 1_555 1_555
N4 Cu1 1_555 1_555
N5 N4 1_555 1_555
N6 N5 1_555 1_555
N7 Cu1 1_555 1_555
N8 Cu2 1_555 1_555
C1 C2 1_555 1_555
C2 N7 1_555 1_555
C3 N8 1_555 1_555
C4 C3 1_555 1_555
C5 N7 1_555 1_555
H1 C3 1_555 1_555
H2 C4 1_555 1_555
H3 C5 1_555 1_555
Cu1B O2B 1_555 1_555
Cu1_2 N1 1_555 1_555
Cu1B_2 N4 1_555 1_555
Cu1B_3 N1B 1_555 1_555
O1B Cu2 1_555 1_555
O2B C1B 1_555 1_555
N1B Cu2 1_555 1_555
N1_2 Cu1 1_555 1_555
N1B_2 Cu1B 1_555 1_555
N2B N1B 1_555 1_555
N3B N2B 1_555 1_555
N4B Cu1 1_555 1_555
N4B_2 Cu1B 1_555 1_555
N4_2 Cu1B 1_555 1_555
N5B N4B 1_555 1_555
N6B N5B 1_555 1_555
N7B Cu1B 1_555 1_555
N8B Cu2 1_555 1_555
C1B O1B 1_555 1_555
C2B N7B 1_555 1_555
C3B N8B 1_555 1_555
C4B C3B 1_555 1_555
C5B N7B 1_555 1_555
H1B C3B 1_555 1_555
H2B C4B 1_555 1_555
H3B C5B 1_555 1_555
N8 C2 1_555 1_555
C4 C5 1_555 1_555
Cu1B_2 N4B 1_555 1_555
N8B C2B 1_555 1_555
C1B C2B 1_555 1_555
C4B C5B 1_555 1_555

#END
