
#######################################################################
#
#                 Cambridge Crystallographic Data Centre
#                                CCDC 
#
#######################################################################
#
# If this CIF has been generated from an entry in the Cambridge 
# Structural Database, then it will include bibliographic, chemical, 
# crystal, experimental, refinement or atomic coordinate data resulting 
# from the CCDC's data processing and validation procedures.
#
#######################################################################

data_DURKOR
_symmetry_cell_setting           monoclinic
_symmetry_space_group_name_H-M   'P 21/c'
_symmetry_Int_Tables_number      14
_space_group_name_Hall           '-P 2ybc'
loop_
_symmetry_equiv_pos_site_id
_symmetry_equiv_pos_as_xyz
1 x,y,z
2 -x,1/2+y,1/2-z
3 -x,-y,-z
4 x,1/2-y,1/2+z
_cell_length_a                   5.8332(12)
_cell_length_b                   14.786(3)
_cell_length_c                   8.6377(17)
_cell_angle_alpha                90
_cell_angle_beta                 93.63(3)
_cell_angle_gamma                90
_cell_volume                     743.504
loop_
_atom_site_label
_atom_site_type_symbol
_atom_site_fract_x
_atom_site_fract_y
_atom_site_fract_z
Ag1 Ag 0.22834(8) 0.54824(3) 0.55500(6)
S1 S -0.1824(2) 0.82035(9) 0.77803(16)
O1 O -0.0238(7) 0.6567(3) 0.6625(4)
N1 N -0.5075(7) 0.8636(3) 0.9372(5)
O2 O -0.1366(7) 0.5176(3) 0.7134(5)
N2 N -0.3421(8) 0.8988(3) 0.8649(5)
C1 C -0.1501(10) 0.6017(4) 0.7247(6)
C2 C -0.6787(9) 0.7172(4) 0.9920(6)
H1 H -0.7902 0.7424 1.0511
C3 C -0.3348(9) 0.6407(4) 0.8167(6)
C4 C -0.3461(8) 0.7349(3) 0.8390(6)
C5 C -0.5174(9) 0.7706(3) 0.9252(6)
C6 C -0.4978(9) 0.5889(4) 0.8794(6)
H2 H -0.4962 0.5268 0.8631
C7 C -0.6685(9) 0.6259(4) 0.9679(6)
H3 H -0.7754 0.5881 1.0104
Ag1B Ag -0.22834(8) 0.45176(3) 0.44500(6)
Ag1C Ag -0.77166(8) 0.95176(3) 1.05500(6)
Ag1A Ag -0.22834(8) 1.04824(3) 0.94500(6)
N1C N 0.4925(7) 0.6364(3) 0.4372(5)
O2B O 0.1366(7) 0.4824(3) 0.2866(5)
N2A N 0.3421(8) 0.3988(3) 0.6351(5)
loop_
_geom_bond_atom_site_label_1
_geom_bond_atom_site_label_2
_geom_bond_site_symmetry_1
_geom_bond_site_symmetry_2
Ag1 O1 1_555 1_555
S1 N2 1_555 1_555
O1 C1 1_555 1_555
N1 N2 1_555 1_555
O2 Ag1 1_555 1_555
N2 Ag1A 1_555 1_555
C1 O2 1_555 1_555
C2 H1 1_555 1_555
C3 C1 1_555 1_555
C4 S1 1_555 1_555
C5 N1 1_555 1_555
C6 C3 1_555 1_555
H2 C6 1_555 1_555
C7 C2 1_555 1_555
H3 C7 1_555 1_555
Ag1B Ag1 1_555 1_555
Ag1C N1 1_555 1_555
N1C Ag1 1_555 1_555
O2B Ag1 1_555 1_555
N2A Ag1 1_555 1_555
O2 Ag1B 1_555 1_555
C2 C5 1_555 1_555
C3 C4 1_555 1_555
C4 C5 1_555 1_555
C6 C7 1_555 1_555
Ag1B O2B 1_555 1_555

#END
