
#######################################################################
#
#                 Cambridge Crystallographic Data Centre
#                                CCDC 
#
#######################################################################
#
# If this CIF has been generated from an entry in the Cambridge 
# Structural Database, then it will include bibliographic, chemical, 
# crystal, experimental, refinement or atomic coordinate data resulting 
# from the CCDC's data processing and validation procedures.
#
#######################################################################

data_DURLEH10
_symmetry_cell_setting           monoclinic
_symmetry_space_group_name_H-M   'P 21/c'
_symmetry_Int_Tables_number      14
_space_group_name_Hall           '-P 2ybc'
loop_
_symmetry_equiv_pos_site_id
_symmetry_equiv_pos_as_xyz
1 x,y,z
2 -x,1/2+y,1/2-z
3 -x,-y,-z
4 x,1/2-y,1/2+z
_cell_length_a                   10.349(2)
_cell_length_b                   16.727(3)
_cell_length_c                   9.458(1)
_cell_angle_alpha                90
_cell_angle_beta                 92.61(1)
_cell_angle_gamma                90
_cell_volume                     1635.55
loop_
_atom_site_label
_atom_site_type_symbol
_atom_site_fract_x
_atom_site_fract_y
_atom_site_fract_z
Pr1 Pr 0.02009(4) 0.13241(2) 0.03546(4)
O1 O 0.2372(5) 0.0644(3) 0.0321(5)
O2 O -0.0969(5) 0.2649(3) 0.0022(6)
O3 O -0.1418(5) 0.1547(3) 0.2356(5)
O4 O -0.2143(5) 0.0922(3) 0.0431(5)
C1 C -0.2297(7) 0.1169(4) 0.1683(7)
C2 C -0.3530(7) 0.0989(4) 0.2308(7)
C3 C -0.4477(7) 0.0519(5) 0.1799(8)
C4 C -0.5410(9) 0.0496(6) 0.283(1)
C5 C -0.5006(8) 0.0956(6) 0.390(1)
O5 O -0.3814(5) 0.1275(3) 0.3593(6)
O6 O -0.0834(5) 0.1250(3) -0.2326(5)
O7 O -0.0090(5) 0.0127(3) -0.1342(5)
C6 C -0.0686(7) 0.0502(4) -0.2361(7)
C7 C -0.1189(7) 0.0042(4) -0.3580(7)
C8 C -0.1718(9) 0.0233(5) -0.4843(8)
C9 C -0.1974(8) -0.0494(5) -0.5571(8)
C10 C -0.1595(8) -0.1079(4) -0.4700(8)
O8 O -0.1084(5) -0.0777(3) -0.3455(5)
O9 O 0.1505(5) 0.2245(3) 0.1787(5)
O10 O 0.1575(5) 0.3026(3) 0.3702(5)
C11 C 0.2070(7) 0.2698(4) 0.2657(7)
C12 C 0.3454(7) 0.2859(4) 0.2474(7)
C13 C 0.432(1) 0.2585(7) 0.158(1)
C14 C 0.5530(9) 0.2922(6) 0.198(1)
C15 C 0.5339(8) 0.3387(6) 0.307(1)
O11 O 0.4079(5) 0.3368(3) 0.3416(5)
H1 H 0.2364 0.0126 0.0140
H2 H 0.2876 0.1014 -0.0440
H3 H -0.104(8) 0.300(5) -0.075(8)
H4 H -0.090(8) 0.288(5) 0.098(9)
H5 H -0.4744 0.0502 0.1050
H6 H -0.62(1) 0.034(6) 0.26(1)
H7 H -0.544(8) 0.113(5) 0.472(8)
H8 H -0.179(9) 0.068(6) -0.52(1)
H9 H -0.228(8) -0.052(5) -0.650(8)
H10 H -0.148(8) -0.168(5) -0.471(8)
H11 H 0.41(1) 0.235(6) 0.12(1)
H12 H 0.626(7) 0.287(4) 0.162(7)
H13 H 0.602(9) 0.358(5) 0.372(9)
O7B O 0.0090(5) -0.0127(3) 0.1342(5)
Pr1B Pr -0.02009(4) -0.13241(2) -0.03546(4)
O10C O 0.1575(5) 0.1974(3) -0.1298(5)
Pr1C Pr 0.02009(4) 0.36759(2) 0.53546(4)
loop_
_geom_bond_atom_site_label_1
_geom_bond_atom_site_label_2
_geom_bond_site_symmetry_1
_geom_bond_site_symmetry_2
Pr1 O1 1_555 1_555
O1 H1 1_555 1_555
O2 Pr1 1_555 1_555
O3 Pr1 1_555 1_555
O4 Pr1 1_555 1_555
C1 O3 1_555 1_555
C2 C1 1_555 1_555
C3 C2 1_555 1_555
C4 C3 1_555 1_555
C5 C4 1_555 1_555
O5 C2 1_555 1_555
O6 Pr1 1_555 1_555
O7 Pr1 1_555 1_555
C6 O6 1_555 1_555
C7 C6 1_555 1_555
C8 C7 1_555 1_555
C9 C8 1_555 1_555
C10 C9 1_555 1_555
O8 C7 1_555 1_555
O9 Pr1 1_555 1_555
O10 C11 1_555 1_555
C11 O9 1_555 1_555
C12 C11 1_555 1_555
C13 C12 1_555 1_555
C14 C13 1_555 1_555
C15 C14 1_555 1_555
O11 C12 1_555 1_555
H2 O1 1_555 1_555
H3 O2 1_555 1_555
H4 O2 1_555 1_555
H5 C3 1_555 1_555
H6 C4 1_555 1_555
H7 C5 1_555 1_555
H8 C8 1_555 1_555
H9 C9 1_555 1_555
H10 C10 1_555 1_555
H11 C13 1_555 1_555
H12 C14 1_555 1_555
H13 C15 1_555 1_555
O7B Pr1 1_555 1_555
Pr1B O7 1_555 1_555
O10C Pr1 1_555 1_555
Pr1C O10 1_555 1_555
O4 C1 1_555 1_555
C5 O5 1_555 1_555
O7 C6 1_555 1_555
C10 O8 1_555 1_555
C15 O11 1_555 1_555
O7B Pr1B 1_555 1_555

#END
