
#######################################################################
#
#                 Cambridge Crystallographic Data Centre
#                                CCDC 
#
#######################################################################
#
# If this CIF has been generated from an entry in the Cambridge 
# Structural Database, then it will include bibliographic, chemical, 
# crystal, experimental, refinement or atomic coordinate data resulting 
# from the CCDC's data processing and validation procedures.
#
#######################################################################

data_DURMEJ
_symmetry_cell_setting           orthorhombic
_symmetry_space_group_name_H-M   'P 21 21 21'
_symmetry_Int_Tables_number      19
_space_group_name_Hall           'P 2ac 2ab'
loop_
_symmetry_equiv_pos_site_id
_symmetry_equiv_pos_as_xyz
1 x,y,z
2 1/2-x,-y,1/2+z
3 1/2+x,1/2-y,-z
4 -x,1/2+y,1/2-z
_cell_length_a                   4.3453(6)
_cell_length_b                   7.8191(11)
_cell_length_c                   27.491(3)
_cell_angle_alpha                90
_cell_angle_beta                 90
_cell_angle_gamma                90
_cell_volume                     934.043
loop_
_atom_site_label
_atom_site_type_symbol
_atom_site_fract_x
_atom_site_fract_y
_atom_site_fract_z
C1 C 1.2101(11) 0.3967(6) 1.20066(15)
C2 C 1.1168(11) 0.5309(6) 1.23813(13)
H1 H 1.2901 0.5798 1.2569
H2 H 0.9447 0.4964 1.2596
C3 C 1.0199(11) 0.6369(6) 1.19340(14)
H3 H 0.8027 0.6790 1.1942
C4 C 1.2417(9) 0.5363(6) 1.11851(13)
H4 H 1.4273 0.4611 1.1163
C5 C 1.0676(9) 0.5213(6) 1.06982(13)
C6 C 1.3526(11) 0.7148(5) 1.13197(12)
C7 C 1.5398(10) 0.8175(6) 1.10754(14)
H5 H 1.6169 0.7752 1.0775
C8 C 1.6419(11) 0.9914(5) 1.12198(13)
H6 H 1.5056 1.0382 1.1476
H7 H 1.8551 0.9881 1.1346
O1 O 1.3545(10) 0.2661(4) 1.20053(11)
O2 O 1.1415(8) 0.6217(4) 1.03630(9)
O3 O 0.8682(9) 0.4058(4) 1.06647(10)
O4 O 1.6262(9) 1.0947(4) 1.07905(10)
H8 H 1.6958 1.1926 1.0851
O5 O 1.2401(7) 0.7604(4) 1.17783(9)
N1 N 1.0715(8) 0.4860(5) 1.16197(10)
K1 K 0.6334(2) 0.52404(13) 0.97836(3)
O2_2 O 0.1415(8) 0.6217(4) 1.03630(9)
O2B O 0.6415(8) 0.8783(4) 0.96370(9)
O4B O 0.1262(9) 0.4053(4) 0.92095(10)
O4B_2 O 1.1262(9) 0.4053(4) 0.92095(10)
H8B H 0.1958 0.3074 0.9149
H8B_2 H 1.1958 0.3074 0.9149
K1_2 K 1.6334(2) 0.52404(13) 0.97836(3)
K1B K 1.1334(2) 0.97596(13) 1.02164(3)
K1B_2 K 2.1334(2) 0.97596(13) 1.02164(3)
loop_
_geom_bond_atom_site_label_1
_geom_bond_atom_site_label_2
_geom_bond_site_symmetry_1
_geom_bond_site_symmetry_2
C1 C2 1_555 1_555
C2 H1 1_555 1_555
H2 C2 1_555 1_555
C3 C2 1_555 1_555
H3 C3 1_555 1_555
C4 H4 1_555 1_555
C5 C4 1_555 1_555
C6 C4 1_555 1_555
C7 C6 1_555 1_555
H5 C7 1_555 1_555
C8 C7 1_555 1_555
H6 C8 1_555 1_555
H7 C8 1_555 1_555
O1 C1 1_555 1_555
O2 C5 1_555 1_555
O3 C5 1_555 1_555
O4 C8 1_555 1_555
H8 O4 1_555 1_555
O5 C3 1_555 1_555
N1 C1 1_555 1_555
K1 O2 1_555 1_555
O2_2 K1 1_555 1_555
O2B K1 1_555 1_555
O4B K1 1_555 1_555
O4B_2 K1 1_555 1_555
H8B O4B 1_555 1_555
H8B_2 O4B_2 1_555 1_555
K1_2 O2 1_555 1_555
K1B O2 1_555 1_555
K1B_2 O4 1_555 1_555
C3 N1 1_555 1_555
C4 N1 1_555 1_555
C6 O5 1_555 1_555
O3 K1 1_555 1_555
O4 K1B 1_555 1_555
O2B K1B 1_555 1_555
O4B_2 K1_2 1_555 1_555

#END
