
#######################################################################
#
#                 Cambridge Crystallographic Data Centre
#                                CCDC 
#
#######################################################################
#
# If this CIF has been generated from an entry in the Cambridge 
# Structural Database, then it will include bibliographic, chemical, 
# crystal, experimental, refinement or atomic coordinate data resulting 
# from the CCDC's data processing and validation procedures.
#
#######################################################################

data_DURMUZ
_symmetry_cell_setting           monoclinic
_symmetry_space_group_name_H-M   'P 21/c'
_symmetry_Int_Tables_number      14
_space_group_name_Hall           '-P 2ybc'
loop_
_symmetry_equiv_pos_site_id
_symmetry_equiv_pos_as_xyz
1 x,y,z
2 -x,1/2+y,1/2-z
3 -x,-y,-z
4 x,1/2-y,1/2+z
_cell_length_a                   9.4776(10)
_cell_length_b                   8.6030(10)
_cell_length_c                   12.5353(14)
_cell_angle_alpha                90
_cell_angle_beta                 102.503(2)
_cell_angle_gamma                90
_cell_volume                     997.837
loop_
_atom_site_label
_atom_site_type_symbol
_atom_site_fract_x
_atom_site_fract_y
_atom_site_fract_z
Cr1 Cr 0.60366(7) 0.06037(8) 0.43610(5)
Na1 Na 0.36188(17) 0.3337(2) 0.48733(13)
Na2 Na 1.14538(19) 0.1530(2) 0.71413(15)
O1 O 0.5272(3) 0.1171(4) 0.5646(2)
H1 H 0.5819 0.1507 0.6229
O2 O 0.7636(3) -0.0653(3) 0.5189(2)
O3 O 0.7506(3) 0.2268(4) 0.4659(2)
O4 O 0.9836(3) -0.0410(4) 0.6268(2)
O5 O 0.9674(3) 0.2755(4) 0.5739(3)
O6 O 0.6501(3) 0.0117(4) 0.2928(2)
O7 O 0.4467(3) 0.1816(4) 0.3427(2)
O8 O 0.5513(3) 0.0306(4) 0.1139(2)
O9 O 0.3141(3) 0.1684(4) 0.1719(2)
C1 C 0.8758(4) 0.0129(5) 0.5650(3)
C2 C 0.8674(4) 0.1875(6) 0.5347(3)
C3 C 0.4236(4) 0.1425(5) 0.2411(3)
C4 C 0.5518(4) 0.0536(5) 0.2099(3)
O10 O 0.1206(3) 0.4049(4) 0.3955(3)
H2 H 0.094(5) 0.504(2) 0.405(5)
H3 H 0.058(5) 0.345(4) 0.419(4)
Cr1B Cr 0.39634(7) -0.06037(8) 0.56390(5)
Na1B Na 0.63812(17) -0.3337(2) 0.51267(13)
Na1A Na 0.63812(17) -0.1663(2) 0.01267(13)
Na1C Na 0.36188(17) 0.1663(2) -0.01267(13)
Na2B Na 0.85462(19) -0.1530(2) 0.28587(15)
Na2C Na 0.14538(19) 0.3470(2) 0.21413(15)
O1B O 0.4728(3) -0.1171(4) 0.4354(2)
H1B H 0.4181 -0.1507 0.3771
O2B O 0.2364(3) 0.0653(3) 0.4811(2)
O6B O 1.3499(3) -0.0117(4) 0.7072(2)
O8A O 0.4487(3) 0.5306(4) 0.3861(2)
O8C O 0.5513(3) 0.4694(4) 0.6139(2)
O9C O 0.3141(3) 0.3316(4) 0.6719(2)
O9C_2 O 1.3141(3) 0.3316(4) 0.6719(2)
O10C O 1.1206(3) 0.0951(4) 0.8955(3)
H2C H 1.094(5) -0.004(2) 0.905(5)
H3C H 1.058(5) 0.155(4) 0.919(4)
O11 O 0.7568(4) 0.3460(4) 0.2464(3)
H4 H 0.777(6) 0.271(4) 0.295(3)
H5 H 0.756(6) 0.438(3) 0.277(4)
loop_
_geom_bond_atom_site_label_1
_geom_bond_atom_site_label_2
_geom_bond_site_symmetry_1
_geom_bond_site_symmetry_2
Cr1 O1 1_555 1_555
Na1 O1 1_555 1_555
Na2 O4 1_555 1_555
O1 H1 1_555 1_555
O2 Cr1 1_555 1_555
O3 Cr1 1_555 1_555
O4 C1 1_555 1_555
O5 Na2 1_555 1_555
O6 Cr1 1_555 1_555
O7 Cr1 1_555 1_555
O8 C4 1_555 1_555
O9 C3 1_555 1_555
C1 O2 1_555 1_555
C2 O3 1_555 1_555
C3 O7 1_555 1_555
C4 O6 1_555 1_555
O10 Na1 1_555 1_555
H2 O10 1_555 1_555
H3 O10 1_555 1_555
O11 H4 1_555 1_555
H5 O11 1_555 1_555
Cr1B O1 1_555 1_555
Na1B O2 1_555 1_555
Na1A O8 1_555 1_555
Na1C O8 1_555 1_555
Na2B O6 1_555 1_555
Na2C O9 1_555 1_555
O1B Cr1 1_555 1_555
H1B O1B 1_555 1_555
O2B Na1 1_555 1_555
O6B Na2 1_555 1_555
O8A Na1 1_555 1_555
O8C Na1 1_555 1_555
O9C Na1 1_555 1_555
O9C_2 Na2 1_555 1_555
O10C Na2 1_555 1_555
H2C O10C 1_555 1_555
H3C O10C 1_555 1_555
Na1 O7 1_555 1_555
O5 C2 1_555 1_555
O9 Na1C 1_555 1_555
C1 C2 1_555 1_555
C3 C4 1_555 1_555
O10 Na2C 1_555 1_555
Cr1B O1B 1_555 1_555
Cr1B O2B 1_555 1_555
Na1B O1B 1_555 1_555

#END
