
#######################################################################
#
#                 Cambridge Crystallographic Data Centre
#                                CCDC 
#
#######################################################################
#
# If this CIF has been generated from an entry in the Cambridge 
# Structural Database, then it will include bibliographic, chemical, 
# crystal, experimental, refinement or atomic coordinate data resulting 
# from the CCDC's data processing and validation procedures.
#
#######################################################################

data_DURMAF
_symmetry_cell_setting           triclinic
_symmetry_space_group_name_H-M   'P -1'
_symmetry_Int_Tables_number      2
_space_group_name_Hall           '-P 1'
loop_
_symmetry_equiv_pos_site_id
_symmetry_equiv_pos_as_xyz
1 x,y,z
2 -x,-y,-z
_cell_length_a                   8.5570(5)
_cell_length_b                   9.1074(5)
_cell_length_c                   12.2060(7)
_cell_angle_alpha                84.5580(10)
_cell_angle_beta                 76.8630(10)
_cell_angle_gamma                73.6920(10)
_cell_volume                     888.584
loop_
_atom_site_label
_atom_site_type_symbol
_atom_site_fract_x
_atom_site_fract_y
_atom_site_fract_z
Zn1 Zn 0.10197(3) 0.50965(3) 0.27688(2)
O1 O 0.3177(2) 0.3927(2) 0.31591(17)
O2 O -0.0424(3) 0.4071(2) 0.40216(18)
H1 H -0.131(3) 0.463(3) 0.440(3)
H2 H -0.003(4) 0.340(3) 0.448(2)
O3 O 0.3290(3) 0.4075(3) 0.49422(19)
O5 O 1.0362(3) -0.2228(3) 0.4031(2)
O6 O 0.9149(3) -0.3030(2) 0.2882(2)
O7 O 0.2308(3) 0.1110(3) 0.3586(2)
O8 O 0.3909(4) 0.0225(4) 0.2029(3)
N1 N 0.2312(3) 0.6052(2) 0.12874(19)
N2 N 0.0999(3) 0.3715(2) 0.15004(19)
N3 N 0.3663(3) 0.0691(3) 0.2970(2)
C1 C 0.5136(3) 0.2006(3) 0.3915(2)
C2 C 0.5128(3) 0.0739(3) 0.3376(2)
C3 C 0.6443(3) -0.0554(3) 0.3223(2)
H5 H 0.6396 -0.1378 0.2847
C4 C 0.7833(3) -0.0609(3) 0.3636(2)
C5 C 0.7895(3) 0.0643(3) 0.4159(2)
H6 H 0.8840 0.0619 0.4422
C6 C 0.6559(3) 0.1934(3) 0.4294(2)
H7 H 0.6621 0.2771 0.4648
C7 C 0.3725(3) 0.3455(3) 0.4030(2)
C8 C 0.9233(4) -0.2058(3) 0.3517(2)
C9 C 0.2869(4) 0.7290(3) 0.1244(3)
H8 H 0.2710 0.7795 0.1904
C10 C 0.3665(4) 0.7837(3) 0.0258(3)
H9 H 0.4041 0.8703 0.0248
C11 C 0.3905(4) 0.7090(4) -0.0723(3)
H10 H 0.4457 0.7438 -0.1402
C12 C 0.3314(4) 0.5822(3) -0.0682(2)
H11 H 0.3454 0.5303 -0.1333
C13 C 0.2514(3) 0.5336(3) 0.0338(2)
C14 C 0.1825(3) 0.3991(3) 0.0464(2)
C15 C 0.1997(4) 0.3087(4) -0.0424(3)
H12 H 0.2559 0.3304 -0.1140
C16 C 0.1324(5) 0.1859(4) -0.0232(3)
H13 H 0.1440 0.1225 -0.0816
C17 C 0.0489(4) 0.1579(4) 0.0818(3)
H14 H 0.0020 0.0757 0.0960
C18 C 0.0344(4) 0.2527(3) 0.1669(3)
H15 H -0.0231 0.2332 0.2387
Zn1_2 Zn 1.10197(3) -0.49035(3) 0.27688(2)
O6_2 O -0.0851(3) 0.6970(2) 0.2882(2)
O4 O 0.4501(5) 0.3808(4) 0.6976(2)
H3 H 0.425(6) 0.386(6) 0.634(2)
H4 H 0.547(3) 0.392(6) 0.673(4)
loop_
_geom_bond_atom_site_label_1
_geom_bond_atom_site_label_2
_geom_bond_site_symmetry_1
_geom_bond_site_symmetry_2
Zn1 O1 1_555 1_555
O1 C7 1_555 1_555
O2 Zn1 1_555 1_555
H1 O2 1_555 1_555
H2 O2 1_555 1_555
O3 C7 1_555 1_555
O4 H3 1_555 1_555
H4 O4 1_555 1_555
O5 C8 1_555 1_555
O6 C8 1_555 1_555
O7 N3 1_555 1_555
O8 N3 1_555 1_555
N1 Zn1 1_555 1_555
N2 Zn1 1_555 1_555
N3 C2 1_555 1_555
C1 C2 1_555 1_555
C2 C3 1_555 1_555
C3 H5 1_555 1_555
C4 C3 1_555 1_555
C5 C4 1_555 1_555
H6 C5 1_555 1_555
C6 C1 1_555 1_555
H7 C6 1_555 1_555
C7 C1 1_555 1_555
C8 C4 1_555 1_555
C9 N1 1_555 1_555
H8 C9 1_555 1_555
C10 C9 1_555 1_555
H9 C10 1_555 1_555
C11 C10 1_555 1_555
H10 C11 1_555 1_555
C12 C11 1_555 1_555
H11 C12 1_555 1_555
C13 N1 1_555 1_555
C14 N2 1_555 1_555
C15 C14 1_555 1_555
H12 C15 1_555 1_555
C16 C15 1_555 1_555
H13 C16 1_555 1_555
C17 C16 1_555 1_555
H14 C17 1_555 1_555
C18 N2 1_555 1_555
H15 C18 1_555 1_555
Zn1_2 O6 1_555 1_555
O6_2 Zn1 1_555 1_555
C5 C6 1_555 1_555
C12 C13 1_555 1_555
C13 C14 1_555 1_555
C17 C18 1_555 1_555

#END
