
#######################################################################
#
#                 Cambridge Crystallographic Data Centre
#                                CCDC 
#
#######################################################################
#
# If this CIF has been generated from an entry in the Cambridge 
# Structural Database, then it will include bibliographic, chemical, 
# crystal, experimental, refinement or atomic coordinate data resulting 
# from the CCDC's data processing and validation procedures.
#
#######################################################################

data_DURMIN
_symmetry_cell_setting           triclinic
_symmetry_space_group_name_H-M   'P -1'
_symmetry_Int_Tables_number      2
_space_group_name_Hall           '-P 1'
loop_
_symmetry_equiv_pos_site_id
_symmetry_equiv_pos_as_xyz
1 x,y,z
2 -x,-y,-z
_cell_length_a                   8.91000(10)
_cell_length_b                   11.29590(10)
_cell_length_c                   13.58160(10)
_cell_angle_alpha                75.5080(10)
_cell_angle_beta                 86.3020(10)
_cell_angle_gamma                68.3420(10)
_cell_volume                     1229.43
loop_
_atom_site_label
_atom_site_type_symbol
_atom_site_fract_x
_atom_site_fract_y
_atom_site_fract_z
Pb1 Pb 0.258486(14) -0.038882(12) -0.001073(10)
Cl1 Cl 1.04796(14) -0.31797(16) 0.36720(10)
Cl2 Cl -0.2949(2) -0.0117(2) 0.47404(14)
O1 O 0.0025(3) 0.0001(3) 0.1216(2)
O2 O 0.5607(4) -0.1240(3) 0.0939(2)
O3 O 0.3533(3) -0.1567(3) 0.1750(2)
O4 O 0.1160(4) 0.1481(3) 0.1053(2)
N1 N 0.2350(4) -0.2615(3) 0.0256(2)
N2 N 0.4307(4) -0.1896(3) -0.1218(3)
C1 C 0.2979(4) -0.3371(3) -0.0407(3)
O5 O 0.3774(4) -0.2835(5) 0.3602(3)
H1 H 0.3326 -0.2436 0.3043
C2 C 0.3981(4) -0.2980(4) -0.1197(3)
C3 C 0.5001(4) -0.1665(3) 0.1727(3)
C4 C 0.5973(4) -0.2334(4) 0.2701(3)
C5 C 0.5322(5) -0.2888(6) 0.3575(3)
C6 C 0.4610(5) -0.3747(4) -0.1912(3)
C7 C 0.5574(6) -0.3329(5) -0.2661(4)
H2 H 0.6005 -0.3804 -0.3148
O6 O 0.0401(4) 0.3062(3) 0.2185(3)
H3 H 0.0809 0.2756 0.1702
C8 C -0.0455(4) 0.1217(4) 0.2486(3)
C9 C 0.2689(5) -0.4538(4) -0.0344(4)
C10 C 0.1447(5) -0.2992(4) 0.0995(3)
H4 H 0.1000 -0.2465 0.1446
C11 C -0.0349(5) 0.2293(5) 0.2767(3)
C12 C 0.7579(5) -0.2452(4) 0.2740(3)
H5 H 0.8040 -0.2107 0.2160
C13 C 0.0289(4) 0.0873(4) 0.1522(3)
C14 C 0.5890(6) -0.2234(5) -0.2688(4)
H6 H 0.6523 -0.1946 -0.3191
C15 C 0.1143(6) -0.4148(5) 0.1118(4)
H7 H 0.0533 -0.4396 0.1655
C16 C 0.5239(5) -0.1554(5) -0.1941(3)
H8 H 0.5475 -0.0814 -0.1952
C17 C -0.1257(5) 0.0475(4) 0.3101(3)
H9 H -0.1347 -0.0236 0.2916
C18 C 0.1744(6) -0.4899(4) 0.0450(4)
H10 H 0.1529 -0.5660 0.0517
C19 C 0.3351(6) -0.5275(5) -0.1086(4)
H11 H 0.3147 -0.6033 -0.1054
C20 C 0.4259(6) -0.4894(5) -0.1825(4)
H12 H 0.4673 -0.5396 -0.2297
C21 C -0.1914(6) 0.0793(5) 0.3981(3)
C22 C -0.1821(6) 0.1881(6) 0.4256(4)
H13 H -0.2285 0.2099 0.4851
C23 C -0.1051(6) 0.2610(6) 0.3650(4)
H14 H -0.0993 0.3335 0.3830
C24 C 0.8483(5) -0.3069(5) 0.3622(3)
C25 C 0.7827(7) -0.3620(7) 0.4485(4)
H15 H 0.8447 -0.4035 0.5085
C26 C 0.6277(7) -0.3553(7) 0.4453(4)
H16 H 0.5853 -0.3956 0.5025
Pb1A Pb -0.258486(14) 0.038882(12) 0.001073(10)
Pb1A_2 Pb 0.741514(14) 0.038882(12) 0.001073(10)
O1A O -0.0025(3) -0.0001(3) -0.1216(2)
O2A O 0.4393(4) 0.1240(3) -0.0939(2)
loop_
_geom_bond_atom_site_label_1
_geom_bond_atom_site_label_2
_geom_bond_site_symmetry_1
_geom_bond_site_symmetry_2
Pb1 O1 1_555 1_555
Cl1 C24 1_555 1_555
Cl2 C21 1_555 1_555
O1 C13 1_555 1_555
O2 Pb1 1_555 1_555
O3 Pb1 1_555 1_555
O4 Pb1 1_555 1_555
N1 Pb1 1_555 1_555
N2 Pb1 1_555 1_555
C1 N1 1_555 1_555
O5 H1 1_555 1_555
C2 N2 1_555 1_555
C3 O2 1_555 1_555
C4 C3 1_555 1_555
C5 O5 1_555 1_555
C6 C2 1_555 1_555
C7 C6 1_555 1_555
H2 C7 1_555 1_555
O6 H3 1_555 1_555
C8 C11 1_555 1_555
C9 C1 1_555 1_555
C10 N1 1_555 1_555
H4 C10 1_555 1_555
C11 O6 1_555 1_555
C12 C4 1_555 1_555
H5 C12 1_555 1_555
C13 O4 1_555 1_555
C14 C7 1_555 1_555
H6 C14 1_555 1_555
C15 C10 1_555 1_555
H7 C15 1_555 1_555
C16 N2 1_555 1_555
H8 C16 1_555 1_555
C17 C8 1_555 1_555
H9 C17 1_555 1_555
C18 C9 1_555 1_555
H10 C18 1_555 1_555
C19 C9 1_555 1_555
H11 C19 1_555 1_555
C20 C6 1_555 1_555
H12 C20 1_555 1_555
C21 C17 1_555 1_555
C22 C21 1_555 1_555
H13 C22 1_555 1_555
C23 C11 1_555 1_555
H14 C23 1_555 1_555
C24 C12 1_555 1_555
C25 C24 1_555 1_555
H15 C25 1_555 1_555
C26 C5 1_555 1_555
H16 C26 1_555 1_555
Pb1A O1 1_555 1_555
Pb1A_2 O2 1_555 1_555
O1A Pb1 1_555 1_555
O2A Pb1 1_555 1_555
O3 C3 1_555 1_555
C1 C2 1_555 1_555
C4 C5 1_555 1_555
C8 C13 1_555 1_555
C14 C16 1_555 1_555
C15 C18 1_555 1_555
C19 C20 1_555 1_555
C22 C23 1_555 1_555
C25 C26 1_555 1_555
Pb1A O1A 1_555 1_555
Pb1A_2 O2A 1_555 1_555

#END
