
#######################################################################
#
#                 Cambridge Crystallographic Data Centre
#                                CCDC 
#
#######################################################################
#
# If this CIF has been generated from an entry in the Cambridge 
# Structural Database, then it will include bibliographic, chemical, 
# crystal, experimental, refinement or atomic coordinate data resulting 
# from the CCDC's data processing and validation procedures.
#
#######################################################################

data_DURQUD
_symmetry_cell_setting           orthorhombic
_symmetry_space_group_name_H-M   'A m a 2'
_symmetry_Int_Tables_number      40
_space_group_name_Hall           'A 2 -2a'
loop_
_symmetry_equiv_pos_site_id
_symmetry_equiv_pos_as_xyz
1 x,y,z
2 -x,-y,z
3 1/2+x,-y,z
4 1/2-x,y,z
5 x,1/2+y,1/2+z
6 -x,1/2-y,1/2+z
7 1/2+x,1/2-y,1/2+z
8 1/2-x,1/2+y,1/2+z
_cell_length_a                   15.6156(12)
_cell_length_b                   22.6489(16)
_cell_length_c                   8.6626(5)
_cell_angle_alpha                90
_cell_angle_beta                 90
_cell_angle_gamma                90
_cell_volume                     3063.76
loop_
_atom_site_label
_atom_site_type_symbol
_atom_site_fract_x
_atom_site_fract_y
_atom_site_fract_z
Zn1 Zn 0.7500 0.69593(2) 0.31561(6)
Zn2 Zn 0.63959(2) 0.565314(15) 0.35942(4)
O1 O 0.7500 0.61613(13) 0.4136(4)
H1 H 0.7500 0.619(4) 0.500(12)
Se1 Se 0.7500 0.70340(2) -0.25158(6)
C1 C 0.7500 0.6962(2) -0.0473(6)
N1 N 0.7500 0.6936(2) 0.0866(6)
Se2 Se 0.7500 0.89017(2) 0.57363(7)
C2 C 0.7500 0.8214(2) 0.4730(6)
N2 N 0.7500 0.77724(17) 0.4100(5)
Se3 Se 0.45849(2) 0.591502(15) 0.83059(4)
C3 C 0.5344(2) 0.58566(15) 0.6754(4)
N3 N 0.58164(18) 0.58100(13) 0.5733(4)
N4 N 0.89175(17) 0.69737(12) 0.3112(4)
N5 N 0.93012(17) 0.64629(12) 0.2776(3)
C4 C 1.0121(2) 0.64663(16) 0.2356(5)
H2 H 1.0381 0.6103 0.2074
C5 C 1.0614(2) 0.69777(17) 0.2312(6)
H3 H 1.1201 0.6964 0.2026
C6 C 1.0230(2) 0.74982(17) 0.2690(7)
H4 H 1.0537 0.7860 0.2689
C7 C 0.9359(2) 0.74755(16) 0.3081(6)
H5 H 0.9073 0.7833 0.3334
N6 N 0.70660(17) 0.48500(12) 0.4454(3)
C8 C 0.6652(2) 0.43725(16) 0.4926(5)
H6 H 0.6043 0.4381 0.4938
C9 C 0.7066(2) 0.38574(17) 0.5405(5)
H7 H 0.6751 0.3519 0.5720
N7 N 0.70651(16) 0.55138(11) 0.1423(3)
C10 C 0.6645(2) 0.54118(15) 0.0115(4)
H8 H 0.6037 0.5408 0.0133
C11 C 0.7064(2) 0.53091(16) -0.1289(4)
H9 H 0.6750 0.5242 -0.2211
N8 N 0.46819(18) 0.48684(13) 0.2907(4)
C12 C 0.53181(18) 0.51316(13) 0.2907(4)
Zn2C Zn 0.86041(2) 0.565314(15) 0.35942(4)
Zn2A Zn 0.36041(2) 0.434686(15) 0.35942(4)
Zn2B Zn 1.13959(2) 0.434686(15) 0.35942(4)
Se3C Se 1.04151(2) 0.591502(15) 0.83059(4)
C3C C 0.9656(2) 0.58566(15) 0.6754(4)
N3C N 0.91836(18) 0.58100(13) 0.5733(4)
N4C N 0.60825(17) 0.69737(12) 0.3112(4)
N5C N 0.56988(17) 0.64629(12) 0.2776(3)
C4C C 0.4879(2) 0.64663(16) 0.2356(5)
H2C H 0.4619 0.6103 0.2074
C5C C 0.4386(2) 0.69777(17) 0.2312(6)
H3C H 0.3799 0.6964 0.2026
C6C C 0.4770(2) 0.74982(17) 0.2690(7)
H4C H 0.4463 0.7860 0.2689
C7C C 0.5641(2) 0.74755(16) 0.3081(6)
H5C H 0.5927 0.7833 0.3334
N6C N 0.79340(17) 0.48500(12) 0.4454(3)
C8C C 0.8348(2) 0.43725(16) 0.4926(5)
H6C H 0.8957 0.4381 0.4938
C9C C 0.7934(2) 0.38574(17) 0.5405(5)
H7C H 0.8249 0.3519 0.5720
N7C N 0.79349(16) 0.55138(11) 0.1423(3)
C10C C 0.8355(2) 0.54118(15) 0.0115(4)
H8C H 0.8963 0.5408 0.0133
C11C C 0.7936(2) 0.53091(16) -0.1289(4)
H9C H 0.8250 0.5242 -0.2211
N8C N 1.03181(18) 0.48684(13) 0.2907(4)
C12C C 0.96819(18) 0.51316(13) 0.2907(4)
loop_
_geom_bond_atom_site_label_1
_geom_bond_atom_site_label_2
_geom_bond_site_symmetry_1
_geom_bond_site_symmetry_2
Zn1 O1 1_555 1_555
Zn2 O1 1_555 1_555
O1 H1 1_555 1_555
Se1 C1 1_555 1_555
C1 N1 1_555 1_555
N1 Zn1 1_555 1_555
Se2 C2 1_555 1_555
C2 N2 1_555 1_555
N2 Zn1 1_555 1_555
Se3 C3 1_555 1_555
C3 N3 1_555 1_555
N3 Zn2 1_555 1_555
N4 Zn1 1_555 1_555
N5 N4 1_555 1_555
C4 N5 1_555 1_555
H2 C4 1_555 1_555
C5 C4 1_555 1_555
H3 C5 1_555 1_555
C6 C5 1_555 1_555
H4 C6 1_555 1_555
C7 N4 1_555 1_555
H5 C7 1_555 1_555
N6 Zn2 1_555 1_555
C8 N6 1_555 1_555
H6 C8 1_555 1_555
C9 C8 1_555 1_555
H7 C9 1_555 1_555
N7 Zn2 1_555 1_555
C10 N7 1_555 1_555
H8 C10 1_555 1_555
C11 C10 1_555 1_555
H9 C11 1_555 1_555
N8 C12 1_555 1_555
C12 Zn2 1_555 1_555
Zn2C O1 1_555 1_555
Zn2A N8 1_555 1_555
Zn2B N8C 1_555 1_555
Se3C C3C 1_555 1_555
C3C N3C 1_555 1_555
N3C Zn2C 1_555 1_555
N4C Zn1 1_555 1_555
N5C Zn2 1_555 1_555
C4C N5C 1_555 1_555
H2C C4C 1_555 1_555
C5C C4C 1_555 1_555
H3C C5C 1_555 1_555
C6C C5C 1_555 1_555
H4C C6C 1_555 1_555
C7C N4C 1_555 1_555
H5C C7C 1_555 1_555
N6C N6 1_555 1_555
C8C N6C 1_555 1_555
H6C C8C 1_555 1_555
C9C C9 1_555 1_555
H7C C9C 1_555 1_555
N7C N7 1_555 1_555
C10C N7C 1_555 1_555
H8C C10C 1_555 1_555
C11C C11 1_555 1_555
H9C C11C 1_555 1_555
N8C C12C 1_555 1_555
C12C Zn2C 1_555 1_555
N5 Zn2C 1_555 1_555
C6 C7 1_555 1_555
Zn2C N6C 1_555 1_555
Zn2C N7C 1_555 1_555
N4C N5C 1_555 1_555
C6C C7C 1_555 1_555
C8C C9C 1_555 1_555
C10C C11C 1_555 1_555

#END
