
#######################################################################
#
#                 Cambridge Crystallographic Data Centre
#                                CCDC 
#
#######################################################################
#
# If this CIF has been generated from an entry in the Cambridge 
# Structural Database, then it will include bibliographic, chemical, 
# crystal, experimental, refinement or atomic coordinate data resulting 
# from the CCDC's data processing and validation procedures.
#
#######################################################################

data_DURTAM
_symmetry_cell_setting           monoclinic
_symmetry_space_group_name_H-M   'P 21/c'
_symmetry_Int_Tables_number      14
_space_group_name_Hall           '-P 2ybc'
loop_
_symmetry_equiv_pos_site_id
_symmetry_equiv_pos_as_xyz
1 x,y,z
2 -x,1/2+y,1/2-z
3 -x,-y,-z
4 x,1/2-y,1/2+z
_cell_length_a                   12.803(3)
_cell_length_b                   18.132(4)
_cell_length_c                   10.728(2)
_cell_angle_alpha                90
_cell_angle_beta                 103.439(3)
_cell_angle_gamma                90
_cell_volume                     2422.25
loop_
_atom_site_label
_atom_site_type_symbol
_atom_site_fract_x
_atom_site_fract_y
_atom_site_fract_z
C1 C 0.7345(4) -0.1231(2) 0.3081(4)
H1 H 0.6595 -0.1259 0.3029
C2 C 0.7916(4) -0.1886(2) 0.3052(4)
H2 H 0.7570 -0.2353 0.2975
C3 C 0.9033(4) -0.1825(3) 0.3155(4)
H3 H 0.9455 -0.2258 0.3174
C4 C 0.9530(4) -0.1133(3) 0.3213(4)
H4 H 1.0277 -0.1089 0.3257
C5 C 0.8893(3) -0.0504(3) 0.3225(5)
C6 C 0.9318(3) 0.0236(3) 0.3317(4)
C7 C 1.0374(4) 0.0395(3) 0.3333(5)
H5 H 1.0858 0.0014 0.3238
C8 C 1.0714(3) 0.1123(2) 0.3497(4)
H6 H 1.1439 0.1241 0.3504
C9 C 1.0006(3) 0.1689(3) 0.3651(4)
H7 H 1.0240 0.2185 0.3790
C10 C 0.8930(3) 0.1483(2) 0.3587(4)
H8 H 0.8423 0.1853 0.3663
C11 C 0.7170(3) 0.0426(2) 0.4978(4)
C12 C 0.5697(3) 0.0028(2) 0.2858(4)
C13 C 0.6951(3) 0.0482(2) 0.1340(4)
C14 C 0.6443(3) 0.1349(3) 0.3103(4)
C15 C 0.8118(4) -0.0835(3) 0.9317(4)
H9 H 0.8576 -0.0470 0.9859
H10 H 0.8564 -0.1163 0.8933
H11 H 0.7734 -0.1124 0.9840
C16 C 0.7459(4) 0.2236(3) 0.6177(4)
H12 H 0.8181 0.2152 0.6712
H13 H 0.7319 0.2767 0.6094
H14 H 0.7408 0.2022 0.5326
C17 C 0.4893(4) 0.1450(3) 0.9517(5)
H15 H 0.4907 0.0916 0.9660
H16 H 0.4155 0.1608 0.9139
H17 H 0.5158 0.1704 1.0336
Fe1 Fe 0.70769(5) 0.04235(3) 0.31568(6)
N1 N 0.7825(3) -0.05414(19) 0.3170(4)
N2 N 0.8605(3) 0.07728(19) 0.3405(3)
N3 N 0.7168(3) 0.0475(2) 0.6043(4)
N4 N 0.4832(3) -0.0227(2) 0.2667(4)
N5 N 0.6896(3) 0.05129(18) 0.0266(4)
N6 N 0.6040(3) 0.1931(2) 0.3041(4)
N7 N 0.8853(3) 0.1436(2) 0.9291(3)
O1 O 0.8747(2) 0.08407(17) 0.8686(3)
O2 O 0.7993(2) 0.17623(15) 0.9284(3)
O3 O 0.9709(2) 0.16875(16) 0.9851(3)
O4 O 0.7341(2) -0.04552(16) 0.8312(3)
H21 H 0.6659 -0.0724 0.8253
O5 O 0.6676(2) 0.18859(16) 0.6775(3)
H22 H 0.6452 0.2280 0.7297
O6 O 0.5579(2) 0.16346(17) 0.8642(3)
H23 H 0.5993 0.2077 0.9002
Y1 Y 0.68339(3) 0.08045(2) 0.80828(4)
N4B N 0.5168(3) 0.0227(2) 0.7333(4)
N5_2 N 0.6896(3) 0.05129(18) 1.0266(4)
Y1B Y 0.31661(3) -0.08045(2) 0.19172(4)
Y1_2 Y 0.68339(3) 0.08045(2) -0.19172(4)
C18 C 0.4471(3) 0.1056(3) 0.4540(4)
H18 H 0.4135 0.1343 0.5089
H19 H 0.4307 0.0544 0.4617
H20 H 0.5235 0.1125 0.4785
O7 O 0.4061(2) 0.12975(17) 0.3204(3)
H24 H 0.4582 0.1451 0.2907
O8 O 0.3088(5) 0.2478(4) 0.4772(7)
H25 H 0.2447 0.2322 0.4670
H26 H 0.3318 0.2622 0.5540
loop_
_geom_bond_atom_site_label_1
_geom_bond_atom_site_label_2
_geom_bond_site_symmetry_1
_geom_bond_site_symmetry_2
C1 H1 1_555 1_555
C2 C1 1_555 1_555
H2 C2 1_555 1_555
C3 C2 1_555 1_555
H3 C3 1_555 1_555
C4 C3 1_555 1_555
H4 C4 1_555 1_555
C5 C4 1_555 1_555
C6 C5 1_555 1_555
C7 C6 1_555 1_555
H5 C7 1_555 1_555
C8 C7 1_555 1_555
H6 C8 1_555 1_555
C9 C8 1_555 1_555
H7 C9 1_555 1_555
C10 C9 1_555 1_555
H8 C10 1_555 1_555
C11 Fe1 1_555 1_555
C12 Fe1 1_555 1_555
C13 Fe1 1_555 1_555
C14 Fe1 1_555 1_555
C15 H9 1_555 1_555
H10 C15 1_555 1_555
H11 C15 1_555 1_555
C16 H12 1_555 1_555
H13 C16 1_555 1_555
H14 C16 1_555 1_555
C17 H15 1_555 1_555
H16 C17 1_555 1_555
H17 C17 1_555 1_555
C18 H18 1_555 1_555
H19 C18 1_555 1_555
H20 C18 1_555 1_555
Fe1 N1 1_555 1_555
N1 C1 1_555 1_555
N2 C6 1_555 1_555
N3 C11 1_555 1_555
N4 C12 1_555 1_555
N5 C13 1_555 1_555
N6 C14 1_555 1_555
N7 O1 1_555 1_555
O1 Y1 1_555 1_555
O2 N7 1_555 1_555
O3 N7 1_555 1_555
O4 C15 1_555 1_555
H21 O4 1_555 1_555
O5 C16 1_555 1_555
H22 O5 1_555 1_555
O6 C17 1_555 1_555
H23 O6 1_555 1_555
O7 C18 1_555 1_555
H24 O7 1_555 1_555
O8 H25 1_555 1_555
H26 O8 1_555 1_555
Y1 N3 1_555 1_555
N4B Y1 1_555 1_555
N5_2 Y1 1_555 1_555
Y1B N4 1_555 1_555
Y1_2 N5 1_555 1_555
C5 N1 1_555 1_555
C10 N2 1_555 1_555
Fe1 N2 1_555 1_555
O2 Y1 1_555 1_555
O4 Y1 1_555 1_555
O5 Y1 1_555 1_555
O6 Y1 1_555 1_555

#END
