
#######################################################################
#
#                 Cambridge Crystallographic Data Centre
#                                CCDC 
#
#######################################################################
#
# If this CIF has been generated from an entry in the Cambridge 
# Structural Database, then it will include bibliographic, chemical, 
# crystal, experimental, refinement or atomic coordinate data resulting 
# from the CCDC's data processing and validation procedures.
#
#######################################################################

data_DURTEQ
_symmetry_cell_setting           triclinic
_symmetry_space_group_name_H-M   'P -1'
_symmetry_Int_Tables_number      2
_space_group_name_Hall           '-P 1'
loop_
_symmetry_equiv_pos_site_id
_symmetry_equiv_pos_as_xyz
1 x,y,z
2 -x,-y,-z
_cell_length_a                   7.595(3)
_cell_length_b                   10.157(3)
_cell_length_c                   12.183(4)
_cell_angle_alpha                76.576(4)
_cell_angle_beta                 81.031(4)
_cell_angle_gamma                77.385(3)
_cell_volume                     886.585
loop_
_atom_site_label
_atom_site_type_symbol
_atom_site_fract_x
_atom_site_fract_y
_atom_site_fract_z
S1 S 0.08491(6) 0.29304(4) 0.28856(4)
O1 O 0.5355(2) -0.37543(14) 0.08245(12)
H1 H 0.5915 -0.4545 0.1005
O2 O 0.27525(18) 0.29014(14) 0.24723(11)
O3 O -0.0212(2) 0.43287(15) 0.26959(12)
O4 O 0.4804(2) -0.27317(13) 0.59931(11)
H2 H 0.5483 -0.2682 0.6437
O5 O 0.0960(2) 0.11772(16) 0.78568(11)
H3 H 0.1701 0.0458 0.7999
O6 O 0.3562(2) -0.11901(14) 0.05127(11)
H4 H 0.3162 -0.0365 0.0474
O7 O 0.00810(19) 0.20151(15) 0.24246(12)
O8 O -0.14625(18) 0.43644(14) 0.47994(12)
H5 H -0.1330 0.4599 0.4105
O9 O 0.33959(18) -0.09603(13) 0.74383(11)
O10 O 0.25776(17) 0.02632(12) 0.41253(10)
C1 C 0.3650(3) -0.11097(19) 0.24729(16)
H6 H 0.3032 -0.0200 0.2355
C2 C 0.0876(3) 0.1552(2) 0.67258(16)
C3 C 0.5075(3) -0.31432(19) 0.37111(16)
H7 H 0.5424 -0.3606 0.4420
C4 C 0.4993(3) -0.31472(19) 0.17448(16)
C5 C 0.5478(3) -0.38082(19) 0.28102(17)
H8 H 0.6088 -0.4720 0.2923
C6 C 0.4064(3) -0.17823(19) 0.15809(16)
C7 C -0.0321(2) 0.31769(18) 0.51249(16)
C8 C -0.0238(3) 0.2759(2) 0.62949(17)
H9 H -0.0939 0.3301 0.6783
C9 C 0.1881(2) 0.06762(18) 0.60059(15)
C10 C 0.1728(2) 0.10881(18) 0.48507(15)
C11 C 0.4143(2) -0.17729(18) 0.35618(15)
C12 C 0.3836(2) -0.14599(18) 0.56111(15)
C13 C 0.3561(2) -0.10360(18) 0.44937(15)
C14 C 0.3058(2) -0.05993(18) 0.64206(15)
C15 C 0.0709(2) 0.23665(18) 0.43767(15)
Na1 Na 0.49543(10) 0.22781(8) 0.10033(6)
O11 O 0.7175(2) 0.36463(15) 0.09986(14)
H10 H 0.790(4) 0.362(3) 0.039(2)
H11 H 0.776(4) 0.325(3) 0.150(2)
O12 O 0.2274(2) 0.15022(17) 0.04739(15)
H12 H 0.182(4) 0.209(3) -0.006(3)
H13 H 0.151(4) 0.161(3) 0.110(3)
O1A O 0.4645(2) 0.37543(14) -0.08245(12)
H1A H 0.4085 0.4545 -0.1005
O6A O 0.6438(2) 0.11901(14) -0.05127(11)
H4A H 0.6838 0.0365 -0.0474
O9A O 0.66041(18) 0.09603(13) 0.25617(11)
Na1A Na 0.50457(10) -0.22781(8) -0.10033(6)
Na1A_2 Na 0.50457(10) -0.22781(8) 0.89967(6)
O13 O 0.9733(3) -0.6600(2) 0.91012(15)
H14 H 0.982(5) -0.731(4) 0.882(3)
H15 H 0.986(5) -0.582(4) 0.866(3)
loop_
_geom_bond_atom_site_label_1
_geom_bond_atom_site_label_2
_geom_bond_site_symmetry_1
_geom_bond_site_symmetry_2
S1 O2 1_555 1_555
O1 H1 1_555 1_555
O2 Na1 1_555 1_555
O3 S1 1_555 1_555
O4 H2 1_555 1_555
O5 H3 1_555 1_555
O6 H4 1_555 1_555
O7 S1 1_555 1_555
O8 H5 1_555 1_555
O9 C14 1_555 1_555
O10 C10 1_555 1_555
C1 H6 1_555 1_555
C2 O5 1_555 1_555
C3 H7 1_555 1_555
C4 O1 1_555 1_555
C5 C3 1_555 1_555
H8 C5 1_555 1_555
C6 O6 1_555 1_555
C7 O8 1_555 1_555
C8 C2 1_555 1_555
H9 C8 1_555 1_555
C9 C2 1_555 1_555
C10 C9 1_555 1_555
C11 C1 1_555 1_555
C12 O4 1_555 1_555
C13 O10 1_555 1_555
C14 C9 1_555 1_555
C15 S1 1_555 1_555
Na1 O11 1_555 1_555
O11 H10 1_555 1_555
H11 O11 1_555 1_555
O12 Na1 1_555 1_555
H12 O12 1_555 1_555
H13 O12 1_555 1_555
O13 H14 1_555 1_555
H15 O13 1_555 1_555
O1A Na1 1_555 1_555
H1A O1A 1_555 1_555
O6A Na1 1_555 1_555
H4A O6A 1_555 1_555
O9A Na1 1_555 1_555
Na1A O1 1_555 1_555
Na1A_2 O9 1_555 1_555
O6 Na1A 1_555 1_555
C1 C6 1_555 1_555
C3 C11 1_555 1_555
C4 C5 1_555 1_555
C4 C6 1_555 1_555
C7 C8 1_555 1_555
C7 C15 1_555 1_555
C10 C15 1_555 1_555
C11 C13 1_555 1_555
C12 C13 1_555 1_555
C12 C14 1_555 1_555

#END
