
#######################################################################
#
#                 Cambridge Crystallographic Data Centre
#                                CCDC 
#
#######################################################################
#
# If this CIF has been generated from an entry in the Cambridge 
# Structural Database, then it will include bibliographic, chemical, 
# crystal, experimental, refinement or atomic coordinate data resulting 
# from the CCDC's data processing and validation procedures.
#
#######################################################################

data_DURVAO
_symmetry_cell_setting           triclinic
_symmetry_space_group_name_H-M   'P -1'
_symmetry_Int_Tables_number      2
_space_group_name_Hall           '-P 1'
loop_
_symmetry_equiv_pos_site_id
_symmetry_equiv_pos_as_xyz
1 x,y,z
2 -x,-y,-z
_cell_length_a                   8.6678(3)
_cell_length_b                   10.2623(4)
_cell_length_c                   13.8748(2)
_cell_angle_alpha                96.8720(10)
_cell_angle_beta                 99.4190(10)
_cell_angle_gamma                99.7480(10)
_cell_volume                     1186.1
loop_
_atom_site_label
_atom_site_type_symbol
_atom_site_fract_x
_atom_site_fract_y
_atom_site_fract_z
Er1 Er 0.242464(16) 0.750762(12) 0.496898(10)
O5 O 0.5154(3) 0.8333(2) 0.49529(17)
O6 O 0.7024(3) 1.0134(2) 0.49841(18)
O7 O 0.0196(3) 0.5961(2) 0.40579(16)
O8 O -0.1564(3) 0.4115(2) 0.40878(17)
C11 C 0.5638(4) 0.9558(3) 0.4983(2)
C12 C -0.0399(4) 0.5024(3) 0.4461(2)
O9 O 0.3563(3) 0.8151(3) 0.66122(17)
H7 H 0.4129 0.8882 0.6845
H8 H 0.3144 0.7877 0.7057
O10 O 0.0271(3) 0.8392(2) 0.5368(2)
H9 H 0.0474 0.9082 0.5768
H10 H -0.0580 0.7965 0.5443
O11 O 0.2166(3) 0.7760(2) 0.33238(17)
H11 H 0.1866 0.7138 0.2865
H12 H 0.2701 0.8366 0.3118
O12 O 0.3673(3) 0.5775(2) 0.4469(2)
H13 H 0.3347 0.4964 0.4398
H14 H 0.4410 0.5907 0.4168
Er1A Er 0.757536(16) 1.249238(12) 0.503102(10)
Er1A_2 Er -0.242464(16) 0.249238(12) 0.503102(10)
O5A O 0.4846(3) 1.1667(2) 0.50471(17)
O6A O 0.2976(3) 0.9866(2) 0.50159(18)
O7A O -0.0196(3) 0.4039(2) 0.59421(16)
O7A_2 O 0.9804(3) 1.4039(2) 0.59421(16)
O8A O 0.1564(3) 0.5885(2) 0.59122(17)
O8_2 O 0.8436(3) 1.4115(2) 0.40878(17)
C11A C 0.4362(4) 1.0442(3) 0.5017(2)
C12A C 0.0399(4) 0.4976(3) 0.5539(2)
O9A O 0.6437(3) 1.1849(3) 0.33878(17)
H7A H 0.5871 1.1118 0.3155
H8A H 0.6856 1.2123 0.2943
O10A O 0.9729(3) 1.1608(2) 0.4632(2)
H9A H 0.9526 1.0918 0.4232
H10A H 1.0580 1.2035 0.4557
O11A O 0.7834(3) 1.2240(2) 0.66762(17)
H11A H 0.8134 1.2862 0.7135
H12A H 0.7299 1.1634 0.6882
O12A O 0.6327(3) 1.4225(2) 0.5531(2)
H13A H 0.6653 1.5036 0.5602
H14A H 0.5590 1.4093 0.5832
Br1 Br 0.63182(5) 0.80237(4) -0.05645(3)
Cu1 Cu 0.86112(6) 0.70254(4) 0.05289(3)
O1 O 0.8075(3) 0.5245(2) -0.02710(18)
O2 O 0.8561(4) 0.4105(3) -0.1609(2)
O3 O 0.9505(3) 0.8638(2) 0.14745(18)
O4 O 0.9256(4) 0.9694(3) 0.29159(19)
N1 N 1.0142(3) 0.7379(3) -0.03731(19)
N2 N 1.1892(4) 0.7526(3) -0.1867(2)
N3 N 0.7441(4) 0.6513(3) 0.1585(2)
N4 N 0.5947(4) 0.6246(3) 0.3185(2)
C1 C 0.8766(5) 0.5131(3) -0.1011(2)
C2 C 0.9942(4) 0.6345(3) -0.1109(2)
C3 C 1.0800(4) 0.6438(4) -0.1856(3)
H1 H 1.0617 0.5725 -0.2369
C4 C 1.2098(5) 0.8521(4) -0.1124(3)
H2 H 1.2867 0.9281 -0.1101
C5 C 1.1210(4) 0.8469(3) -0.0382(3)
H3 H 1.1361 0.9199 0.0113
C6 C 0.8932(4) 0.8711(3) 0.2268(3)
C7 C 0.7757(4) 0.7492(3) 0.2364(2)
C8 C 0.6999(5) 0.7350(4) 0.3157(3)
H4 H 0.7226 0.8043 0.3687
C9 C 0.5669(5) 0.5284(4) 0.2412(3)
H5 H 0.4962 0.4495 0.2417
C10 C 0.6391(5) 0.5408(4) 0.1601(3)
H6 H 0.6144 0.4720 0.1067
O13 O 0.5945(3) 0.0292(3) 0.7338(2)
H15 H 0.5749 0.0653 0.7851
H16 H 0.6603 -0.0171 0.7494
O14 O 0.8142(4) 0.8544(3) 0.7569(2)
H17 H 0.8929 0.9105 0.7552
H18 H 0.8110 0.8507 0.8152
O15 O 0.7480(3) 0.6941(2) 0.5762(2)
H19 H 0.6919 0.7345 0.5421
H20 H 0.7622 0.7313 0.6336
O16 O 0.5890(4) 0.2199(3) 0.8812(2)
H21 H 0.6508 0.2917 0.8877
H22 H 0.5431 0.2229 0.9284
loop_
_geom_bond_atom_site_label_1
_geom_bond_atom_site_label_2
_geom_bond_site_symmetry_1
_geom_bond_site_symmetry_2
Er1 O5 1_555 1_555
Br1 Cu1 1_555 1_555
Cu1 O1 1_555 1_555
O1 C1 1_555 1_555
O2 C1 1_555 1_555
O3 Cu1 1_555 1_555
O4 C6 1_555 1_555
O5 C11 1_555 1_555
O6 C11 1_555 1_555
O7 Er1 1_555 1_555
O8 C12 1_555 1_555
N1 Cu1 1_555 1_555
N2 C3 1_555 1_555
N3 Cu1 1_555 1_555
N4 C8 1_555 1_555
C1 C2 1_555 1_555
C2 N1 1_555 1_555
C3 C2 1_555 1_555
H1 C3 1_555 1_555
C4 N2 1_555 1_555
H2 C4 1_555 1_555
C5 N1 1_555 1_555
H3 C5 1_555 1_555
C6 O3 1_555 1_555
C7 N3 1_555 1_555
C8 C7 1_555 1_555
H4 C8 1_555 1_555
C9 N4 1_555 1_555
H5 C9 1_555 1_555
C10 N3 1_555 1_555
H6 C10 1_555 1_555
C11 C11A 1_555 1_555
C12 O7 1_555 1_555
O9 Er1 1_555 1_555
H7 O9 1_555 1_555
H8 O9 1_555 1_555
O10 Er1 1_555 1_555
H9 O10 1_555 1_555
H10 O10 1_555 1_555
O11 Er1 1_555 1_555
H11 O11 1_555 1_555
H12 O11 1_555 1_555
O12 Er1 1_555 1_555
H13 O12 1_555 1_555
H14 O12 1_555 1_555
O13 H15 1_555 1_555
H16 O13 1_555 1_555
O14 H17 1_555 1_555
H18 O14 1_555 1_555
O15 H19 1_555 1_555
H20 O15 1_555 1_555
O16 H21 1_555 1_555
H22 O16 1_555 1_555
Er1A O6 1_555 1_555
Er1A_2 O8 1_555 1_555
O5A Er1A 1_555 1_555
O6A Er1 1_555 1_555
O7A Er1A_2 1_555 1_555
O7A_2 Er1A 1_555 1_555
O8A Er1 1_555 1_555
O8_2 Er1A 1_555 1_555
C11A O5A 1_555 1_555
C12A C12 1_555 1_555
O9A Er1A 1_555 1_555
H7A O9A 1_555 1_555
H8A O9A 1_555 1_555
O10A Er1A 1_555 1_555
H9A O10A 1_555 1_555
H10A O10A 1_555 1_555
O11A Er1A 1_555 1_555
H11A O11A 1_555 1_555
H12A O11A 1_555 1_555
O12A Er1A 1_555 1_555
H13A O12A 1_555 1_555
H14A O12A 1_555 1_555
C4 C5 1_555 1_555
C6 C7 1_555 1_555
C9 C10 1_555 1_555
O6A C11A 1_555 1_555
O7A C12A 1_555 1_555
O8A C12A 1_555 1_555

#END
