
#######################################################################
#
#                 Cambridge Crystallographic Data Centre
#                                CCDC 
#
#######################################################################
#
# If this CIF has been generated from an entry in the Cambridge 
# Structural Database, then it will include bibliographic, chemical, 
# crystal, experimental, refinement or atomic coordinate data resulting 
# from the CCDC's data processing and validation procedures.
#
#######################################################################

data_DURVUI01
_symmetry_cell_setting           monoclinic
_symmetry_space_group_name_H-M   'P 21/c'
_symmetry_Int_Tables_number      14
_space_group_name_Hall           '-P 2ybc'
loop_
_symmetry_equiv_pos_site_id
_symmetry_equiv_pos_as_xyz
1 x,y,z
2 -x,1/2+y,1/2-z
3 -x,-y,-z
4 x,1/2-y,1/2+z
_cell_length_a                   6.787(6)
_cell_length_b                   18.769(15)
_cell_length_c                   8.643(7)
_cell_angle_alpha                90
_cell_angle_beta                 101.316(11)
_cell_angle_gamma                90
_cell_volume                     1079.59
loop_
_atom_site_label
_atom_site_type_symbol
_atom_site_fract_x
_atom_site_fract_y
_atom_site_fract_z
Zn1 Zn 0.39470(11) 0.63872(4) 0.68138(8)
Br1 Br 0.61578(12) 0.54147(4) 0.76801(9)
Br2 Br 0.54852(11) 0.74575(4) 0.62834(9)
N1 N 0.2184(8) 0.6476(3) 0.8432(5)
N2 N 0.0687(8) 0.6990(3) 0.8251(6)
N3 N 0.0872(8) 0.6435(3) 1.0539(5)
N4 N 0.1730(8) 0.6178(3) 1.4833(5)
C1 C -0.1373(10) 0.5977(4) 1.2212(8)
H1 H -0.2388 0.5907 1.1332
C2 C -0.1642(11) 0.5823(4) 1.3737(8)
H2 H -0.2868 0.5653 1.3907
C3 C -0.0079(10) 0.5926(4) 1.4974(8)
H3 H -0.0279 0.5815 1.5980
C4 C 0.2014(10) 0.6340(3) 1.3381(7)
H4 H 0.3248 0.6520 1.3251
C5 C 0.0513(10) 0.6243(3) 1.2085(7)
C6 C -0.0101(11) 0.6954(4) 0.9528(8)
H5 H -0.1155 0.7235 0.9722
C7 C 0.2253(9) 0.6162(3) 0.9792(7)
H6 H 0.3142 0.5799 1.0188
N4_2 N 0.1730(8) 0.6178(3) 0.4833(5)
Zn1_2 Zn 0.39470(11) 0.63872(4) 1.68138(8)
loop_
_geom_bond_atom_site_label_1
_geom_bond_atom_site_label_2
_geom_bond_site_symmetry_1
_geom_bond_site_symmetry_2
Zn1 Br1 1_555 1_555
Br2 Zn1 1_555 1_555
N1 Zn1 1_555 1_555
N2 N1 1_555 1_555
N3 C5 1_555 1_555
N4 C3 1_555 1_555
C1 H1 1_555 1_555
C2 C1 1_555 1_555
H2 C2 1_555 1_555
C3 C2 1_555 1_555
H3 C3 1_555 1_555
C4 N4 1_555 1_555
H4 C4 1_555 1_555
C5 C1 1_555 1_555
C6 N2 1_555 1_555
H5 C6 1_555 1_555
C7 N1 1_555 1_555
H6 C7 1_555 1_555
N4_2 Zn1 1_555 1_555
Zn1_2 N4 1_555 1_555
N3 C6 1_555 1_555
N3 C7 1_555 1_555
C4 C5 1_555 1_555

#END
