
#######################################################################
#
#                 Cambridge Crystallographic Data Centre
#                                CCDC 
#
#######################################################################
#
# If this CIF has been generated from an entry in the Cambridge 
# Structural Database, then it will include bibliographic, chemical, 
# crystal, experimental, refinement or atomic coordinate data resulting 
# from the CCDC's data processing and validation procedures.
#
#######################################################################

data_DURVOC
_symmetry_cell_setting           monoclinic
_symmetry_space_group_name_H-M   'P 21/c'
_symmetry_Int_Tables_number      14
_space_group_name_Hall           '-P 2ybc'
loop_
_symmetry_equiv_pos_site_id
_symmetry_equiv_pos_as_xyz
1 x,y,z
2 -x,1/2+y,1/2-z
3 -x,-y,-z
4 x,1/2-y,1/2+z
_cell_length_a                   13.2256(12)
_cell_length_b                   6.8141(6)
_cell_length_c                   17.9889(16)
_cell_angle_alpha                90
_cell_angle_beta                 111.013(2)
_cell_angle_gamma                90
_cell_volume                     1513.36
loop_
_atom_site_label
_atom_site_type_symbol
_atom_site_fract_x
_atom_site_fract_y
_atom_site_fract_z
Zn1 Zn 1.0000 1.0000 0.5000
N1 N 0.97579(16) 0.7741(3) 0.41650(12)
N2 N 0.92414(17) 0.4493(3) 0.31697(13)
O1 O 0.90033(14) 0.8249(3) 0.53444(11)
O2 O 0.81853(16) 0.5307(3) 0.51045(12)
O3 O 0.71207(14) 0.3430(3) 0.34784(11)
O4 O 0.84996(14) 0.1517(3) 0.41985(10)
C1 C 0.87279(19) 0.6642(4) 0.49636(15)
C2 C 0.91244(18) 0.6323(4) 0.42725(14)
C3 C 1.0143(2) 0.7552(4) 0.35783(15)
H1 H 1.0591 0.8517 0.3499
C4 C 0.9879(2) 0.5930(4) 0.30892(15)
H2 H 1.0158 0.5833 0.2684
C5 C 0.88694(19) 0.4691(4) 0.37672(15)
C6 C 0.8114(2) 0.3068(4) 0.38376(15)
Zn1_2 Zn 1.0000 0.0000 0.5000
N1B N 1.02421(16) 0.2259(3) 0.58350(12)
N1B_2 N 1.02421(16) 1.2259(3) 0.58350(12)
N2B N 1.07586(17) 0.5507(3) 0.68303(13)
O1B O 1.09967(14) 0.1751(3) 0.46556(11)
O1B_2 O 1.09967(14) 1.1751(3) 0.46556(11)
O2B O 1.18147(16) 0.4693(3) 0.48955(12)
O3B O 1.28793(14) 0.6570(3) 0.65216(11)
O4B O 1.15004(14) 0.8483(3) 0.58015(10)
O4_2 O 0.84996(14) 1.1517(3) 0.41985(10)
C1B C 1.12721(19) 0.3358(4) 0.50364(15)
C2B C 1.08756(18) 0.3677(4) 0.57275(14)
C3B C 0.9857(2) 0.2448(4) 0.64217(15)
H1B H 0.9409 0.1483 0.6501
C4B C 1.0121(2) 0.4070(4) 0.69108(15)
H2B H 0.9842 0.4167 0.7316
C5B C 1.11306(19) 0.5309(4) 0.62328(15)
C6B C 1.1886(2) 0.6932(4) 0.61624(15)
N3 N 0.56207(16) 0.2835(3) 0.40993(12)
C7 C 0.4615(2) 0.3287(3) 0.35817(15)
C8 C 0.4441(2) 0.3677(4) 0.27753(15)
H3 H 0.5016 0.3642 0.2593
C9 C 0.3419(2) 0.4107(4) 0.22648(16)
H4 H 0.3300 0.4348 0.1731
C10 C 0.2537(2) 0.4193(4) 0.25332(15)
H5 H 0.1850 0.4504 0.2176
C11 C 0.2682(2) 0.3826(4) 0.33062(16)
H6 H 0.2095 0.3882 0.3475
C12 C 0.3732(2) 0.3354(4) 0.38588(15)
C13 C 0.3932(2) 0.2948(3) 0.46547(15)
H7 H 0.3366 0.3014 0.4846
C14 C 0.4961(2) 0.2445(4) 0.51706(15)
C15 C 0.5195(2) 0.1983(4) 0.59890(15)
H8 H 0.4644 0.2036 0.6196
C16 C 0.6211(2) 0.1467(4) 0.64685(16)
H9 H 0.6358 0.1182 0.7003
C17 C 0.7049(2) 0.1364(4) 0.61494(16)
H10 H 0.7738 0.0977 0.6480
C18 C 0.6877(2) 0.1814(4) 0.53774(15)
H11 H 0.7441 0.1759 0.5184
C19 C 0.5823(2) 0.2368(3) 0.48739(14)
H12 H 0.6133(15) 0.292(4) 0.3912(15)
loop_
_geom_bond_atom_site_label_1
_geom_bond_atom_site_label_2
_geom_bond_site_symmetry_1
_geom_bond_site_symmetry_2
Zn1 N1 1_555 1_555
N1 C2 1_555 1_555
N2 C4 1_555 1_555
N3 C7 1_555 1_555
O1 Zn1 1_555 1_555
O2 C1 1_555 1_555
O3 C6 1_555 1_555
O4 C6 1_555 1_555
C1 O1 1_555 1_555
C2 C1 1_555 1_555
C3 N1 1_555 1_555
H1 C3 1_555 1_555
C4 C3 1_555 1_555
H2 C4 1_555 1_555
C5 N2 1_555 1_555
C6 C5 1_555 1_555
C7 C8 1_555 1_555
C8 H3 1_555 1_555
C9 C8 1_555 1_555
H4 C9 1_555 1_555
C10 C9 1_555 1_555
H5 C10 1_555 1_555
C11 C10 1_555 1_555
H6 C11 1_555 1_555
C12 C7 1_555 1_555
C13 C12 1_555 1_555
H7 C13 1_555 1_555
C14 C13 1_555 1_555
C15 C14 1_555 1_555
H8 C15 1_555 1_555
C16 C15 1_555 1_555
H9 C16 1_555 1_555
C17 C16 1_555 1_555
H10 C17 1_555 1_555
C18 C17 1_555 1_555
H11 C18 1_555 1_555
C19 N3 1_555 1_555
H12 N3 1_555 1_555
Zn1_2 O4 1_555 1_555
N1B Zn1_2 1_555 1_555
N1B_2 Zn1 1_555 1_555
N2B C4B 1_555 1_555
O1B Zn1_2 1_555 1_555
O1B_2 Zn1 1_555 1_555
O2B C1B 1_555 1_555
O3B C6B 1_555 1_555
O4B Zn1 1_555 1_555
O4_2 Zn1 1_555 1_555
C1B O1B 1_555 1_555
C2B N1B 1_555 1_555
C3B N1B 1_555 1_555
H1B C3B 1_555 1_555
C4B C3B 1_555 1_555
H2B C4B 1_555 1_555
C5B N2B 1_555 1_555
C6B O4B 1_555 1_555
C2 C5 1_555 1_555
C11 C12 1_555 1_555
C14 C19 1_555 1_555
C18 C19 1_555 1_555
C1B C2B 1_555 1_555
C2B C5B 1_555 1_555
C5B C6B 1_555 1_555

#END
