
#######################################################################
#
#                 Cambridge Crystallographic Data Centre
#                                CCDC 
#
#######################################################################
#
# If this CIF has been generated from an entry in the Cambridge 
# Structural Database, then it will include bibliographic, chemical, 
# crystal, experimental, refinement or atomic coordinate data resulting 
# from the CCDC's data processing and validation procedures.
#
#######################################################################

data_DUSPOW
_symmetry_cell_setting           triclinic
_symmetry_space_group_name_H-M   'P -1'
_symmetry_Int_Tables_number      2
_space_group_name_Hall           '-P 1'
loop_
_symmetry_equiv_pos_site_id
_symmetry_equiv_pos_as_xyz
1 x,y,z
2 -x,-y,-z
_cell_length_a                   13.708(3)
_cell_length_b                   20.179(4)
_cell_length_c                   13.369(3)
_cell_angle_alpha                105.81(2)
_cell_angle_beta                 100.16(2)
_cell_angle_gamma                102.04(2)
_cell_volume                     3371.3
loop_
_atom_site_label
_atom_site_type_symbol
_atom_site_fract_x
_atom_site_fract_y
_atom_site_fract_z
Cu1 Cu -0.40927(4) 0.27220(3) -0.31031(4)
Cu2 Cu -0.12145(4) 0.20494(3) 0.20191(4)
P1 P -0.56955(7) 0.22696(5) -0.29512(8)
P2 P -0.32677(7) 0.38752(6) -0.20668(8)
P3 P 0.04329(8) 0.26757(6) 0.22555(8)
P4 P -0.16732(8) 0.10818(6) 0.25707(8)
C1 C -0.6513(3) 0.2869(2) -0.3004(3)
C2 C -0.6626(3) 0.3331(2) -0.2092(3)
C3 C -0.7146(4) 0.3836(3) -0.2157(4)
C4 C -0.7546(4) 0.3905(3) -0.3113(4)
C5 C -0.7441(4) 0.3449(3) -0.4030(4)
C6 C -0.6931(3) 0.2937(3) -0.3984(3)
C7 C -0.6430(3) 0.1435(2) -0.3992(3)
C8 C -0.7497(4) 0.1200(3) -0.4267(4)
C9 C -0.8002(4) 0.0554(3) -0.5076(4)
C10 C -0.7463(5) 0.0151(3) -0.5594(4)
C11 C -0.6411(5) 0.0369(3) -0.5328(4)
C12 C -0.5891(4) 0.1018(2) -0.4546(4)
C13 C -0.5757(3) 0.2094(2) -0.1690(3)
C14 C -0.6667(3) 0.1752(3) -0.1504(4)
C15 C -0.6683(4) 0.1665(3) -0.0529(4)
C16 C -0.5826(4) 0.1919(3) 0.0288(4)
C17 C -0.4919(4) 0.2242(3) 0.0120(4)
C18 C -0.4884(3) 0.2328(2) -0.0874(3)
C19 C -0.3796(3) 0.4564(2) -0.2402(3)
C20 C -0.3472(4) 0.5279(3) -0.1790(4)
C21 C -0.3906(4) 0.5775(3) -0.2108(5)
C22 C -0.4642(4) 0.5567(3) -0.3021(5)
C23 C -0.4980(4) 0.4865(3) -0.3626(5)
C24 C -0.4568(4) 0.4361(3) -0.3330(4)
C25 C -0.1917(3) 0.4143(2) -0.2079(3)
C26 C -0.1210(3) 0.4759(2) -0.1347(3)
C27 C -0.0207(3) 0.4939(3) -0.1420(4)
C28 C 0.0127(3) 0.4513(2) -0.2185(4)
C29 C -0.0544(3) 0.3901(2) -0.2904(4)
C30 C -0.1561(3) 0.3717(2) -0.2847(3)
C31 C -0.3217(3) 0.4033(2) -0.0646(3)
C32 C -0.3937(4) 0.4309(2) -0.0184(4)
C33 C -0.3957(4) 0.4340(3) 0.0853(4)
C34 C -0.3281(4) 0.4098(3) 0.1439(4)
C35 C -0.2574(4) 0.3818(3) 0.0989(4)
C36 C -0.2544(3) 0.3788(3) -0.0048(3)
C37 C 0.1476(3) 0.2282(2) 0.2607(3)
C38 C 0.1262(3) 0.1550(3) 0.2321(4)
C39 C 0.2033(4) 0.1217(3) 0.2498(5)
C40 C 0.3027(4) 0.1625(3) 0.2964(4)
C41 C 0.3259(4) 0.2349(3) 0.3242(4)
C42 C 0.2491(3) 0.2677(3) 0.3079(4)
C43 C 0.0822(3) 0.3563(2) 0.3251(3)
C44 C 0.1550(4) 0.4135(2) 0.3203(3)
C45 C 0.1854(4) 0.4782(3) 0.3998(4)
C46 C 0.1418(4) 0.4874(3) 0.4851(4)
C47 C 0.0678(4) 0.4328(3) 0.4910(3)
C48 C 0.0386(3) 0.3673(2) 0.4120(3)
C49 C 0.0667(3) 0.2862(2) 0.1037(3)
C50 C 0.1449(3) 0.2714(3) 0.0586(3)
C51 C 0.1567(4) 0.2872(3) -0.0337(4)
C52 C 0.0901(4) 0.3161(2) -0.0825(3)
C53 C 0.0109(4) 0.3303(3) -0.0403(4)
C54 C -0.0015(3) 0.3150(3) 0.0519(4)
C55 C -0.3044(3) 0.0662(2) 0.2230(3)
C56 C -0.3464(3) 0.0092(3) 0.2559(4)
C57 C -0.4510(4) -0.0215(3) 0.2262(5)
C58 C -0.5145(4) 0.0026(3) 0.1645(5)
C59 C -0.4753(4) 0.0579(3) 0.1300(5)
C60 C -0.3702(4) 0.0892(3) 0.1602(4)
C61 C -0.1158(3) 0.0318(2) 0.2162(3)
C62 C -0.0812(4) -0.0041(2) 0.2832(4)
C63 C -0.0416(4) -0.0616(3) 0.2451(5)
C64 C -0.0385(4) -0.0836(3) 0.1399(5)
C65 C -0.0729(4) -0.0493(3) 0.0740(5)
C66 C -0.1116(4) 0.0081(3) 0.1103(4)
C67 C -0.1281(3) 0.1394(2) 0.4027(3)
C68 C -0.1971(4) 0.1472(3) 0.4648(4)
C69 C -0.1637(5) 0.1782(3) 0.5741(4)
C70 C -0.0629(5) 0.2006(3) 0.6229(4)
C71 C 0.0085(4) 0.1959(3) 0.5630(4)
C72 C -0.0255(4) 0.1651(3) 0.4534(4)
N1 N -0.3262(3) 0.2111(2) -0.2575(3)
C73 C -0.2851(3) 0.1779(2) -0.2200(3)
B1 B -0.2244(4) 0.1309(3) -0.1720(4)
C74 C -0.2037(3) 0.1577(2) -0.0460(3)
N2 N -0.1860(3) 0.1768(2) 0.0443(3)
N3 N -0.2096(3) 0.2628(2) 0.2784(3)
C75 C -0.2726(3) 0.2779(2) 0.3176(3)
B2 B -0.3635(4) 0.3014(4) 0.3633(4)
C76 C -0.3808(3) 0.2768(2) 0.4631(3)
N4 N -0.3976(3) 0.2647(2) 0.5377(3)
H1 H -0.632(2) 0.330(2) -0.137(3)
H2 H -0.718(3) 0.415(2) -0.151(3)
H3 H -0.789(3) 0.430(2) -0.311(3)
H4 H -0.767(4) 0.348(3) -0.457(4)
H5 H -0.682(3) 0.261(2) -0.458(3)
H6 H -0.788(3) 0.149(2) -0.393(3)
H7 H -0.870(3) 0.044(2) -0.527(3)
H8 H -0.786(3) -0.031(2) -0.616(3)
H9 H -0.602(3) 0.015(2) -0.563(3)
H10 H -0.516(3) 0.120(2) -0.439(3)
H11 H -0.720(3) 0.162(2) -0.202(3)
H12 H -0.728(3) 0.141(2) -0.043(3)
H13 H -0.583(3) 0.186(2) 0.095(3)
H14 H -0.430(3) 0.237(2) 0.063(3)
H15 H -0.426(3) 0.254(2) -0.097(3)
H16 H -0.306(3) 0.543(2) -0.114(3)
H17 H -0.366(3) 0.626(2) -0.166(3)
H18 H -0.504(4) 0.588(3) -0.323(4)
H19 H -0.546(3) 0.472(2) -0.422(3)
H20 H -0.479(3) 0.389(2) -0.376(3)
H21 H -0.144(3) 0.504(2) -0.082(3)
H22 H 0.020(3) 0.531(2) -0.089(3)
H23 H 0.079(3) 0.466(2) -0.222(3)
H24 H -0.036(3) 0.358(2) -0.345(3)
H25 H -0.201(3) 0.332(2) -0.329(3)
H26 H -0.439(3) 0.448(2) -0.055(3)
H27 H -0.444(3) 0.456(2) 0.116(3)
H28 H -0.329(3) 0.409(2) 0.215(3)
H29 H -0.211(3) 0.363(2) 0.135(3)
H30 H -0.208(3) 0.355(2) -0.034(3)
H31 H 0.061(3) 0.130(2) 0.194(3)
H32 H 0.186(3) 0.072(2) 0.226(3)
H33 H 0.343(3) 0.142(2) 0.307(3)
H34 H 0.398(4) 0.264(2) 0.361(4)
H35 H 0.267(3) 0.315(2) 0.326(3)
H36 H 0.179(3) 0.408(2) 0.263(3)
H37 H 0.237(3) 0.514(2) 0.404(3)
H38 H 0.159(2) 0.529(2) 0.535(3)
H39 H 0.034(3) 0.439(2) 0.545(3)
H40 H -0.011(2) 0.329(2) 0.417(2)
H41 H 0.187(3) 0.253(2) 0.090(3)
H42 H 0.210(3) 0.277(2) -0.055(3)
H43 H 0.096(3) 0.328(2) -0.142(3)
H44 H -0.032(3) 0.352(2) -0.070(3)
H45 H -0.057(3) 0.319(2) 0.078(3)
H46 H -0.302(3) -0.006(2) 0.304(3)
H47 H -0.478(3) -0.061(2) 0.249(3)
H48 H -0.585(4) -0.015(3) 0.149(4)
H49 H -0.515(4) 0.077(3) 0.077(4)
H50 H -0.344(3) 0.124(2) 0.138(3)
H51 H -0.086(3) 0.013(2) 0.356(3)
H52 H -0.025(3) -0.079(2) 0.293(3)
H53 H -0.015(4) -0.126(3) 0.116(4)
H54 H -0.075(4) -0.063(3) 0.009(4)
H55 H -0.134(3) 0.034(2) 0.064(3)
H56 H -0.271(3) 0.131(2) 0.435(3)
H57 H -0.211(4) 0.185(3) 0.618(4)
H58 H -0.038(3) 0.219(2) 0.698(3)
H59 H 0.072(3) 0.213(2) 0.600(3)
H60 H 0.024(3) 0.155(2) 0.413(3)
H61 H -0.273(3) 0.073(2) -0.201(3)
H62 H -0.152(3) 0.142(2) -0.190(3)
H63 H -0.353(3) 0.361(2) 0.389(4)
H64 H -0.429(4) 0.278(2) 0.303(4)
N4_2 N -0.3976(3) 0.2647(2) -0.4623(3)
Cu1_2 Cu -0.40927(4) 0.27220(3) 0.68969(4)
loop_
_geom_bond_atom_site_label_1
_geom_bond_atom_site_label_2
_geom_bond_site_symmetry_1
_geom_bond_site_symmetry_2
Cu1 P1 1_555 1_555
Cu2 P3 1_555 1_555
P1 C1 1_555 1_555
P2 Cu1 1_555 1_555
P3 C37 1_555 1_555
P4 Cu2 1_555 1_555
C1 C2 1_555 1_555
C2 C3 1_555 1_555
C3 C4 1_555 1_555
C4 C5 1_555 1_555
C5 C6 1_555 1_555
C6 C1 1_555 1_555
C7 P1 1_555 1_555
C8 C7 1_555 1_555
C9 C8 1_555 1_555
C10 C9 1_555 1_555
C11 C10 1_555 1_555
C12 C7 1_555 1_555
C13 P1 1_555 1_555
C14 C13 1_555 1_555
C15 C14 1_555 1_555
C16 C15 1_555 1_555
C17 C16 1_555 1_555
C18 C13 1_555 1_555
C19 P2 1_555 1_555
C20 C19 1_555 1_555
C21 C20 1_555 1_555
C22 C21 1_555 1_555
C23 C22 1_555 1_555
C24 C19 1_555 1_555
C25 P2 1_555 1_555
C26 C25 1_555 1_555
C27 C26 1_555 1_555
C28 C27 1_555 1_555
C29 C28 1_555 1_555
C30 C25 1_555 1_555
C31 P2 1_555 1_555
C32 C31 1_555 1_555
C33 C32 1_555 1_555
C34 C33 1_555 1_555
C35 C34 1_555 1_555
C36 C31 1_555 1_555
C37 C38 1_555 1_555
C38 C39 1_555 1_555
C39 C40 1_555 1_555
C40 C41 1_555 1_555
C41 C42 1_555 1_555
C42 C37 1_555 1_555
C43 P3 1_555 1_555
C44 C43 1_555 1_555
C45 C44 1_555 1_555
C46 C45 1_555 1_555
C47 C46 1_555 1_555
C48 C43 1_555 1_555
C49 P3 1_555 1_555
C50 C49 1_555 1_555
C51 C50 1_555 1_555
C52 C51 1_555 1_555
C53 C52 1_555 1_555
C54 C49 1_555 1_555
C55 P4 1_555 1_555
C56 C55 1_555 1_555
C57 C56 1_555 1_555
C58 C57 1_555 1_555
C59 C58 1_555 1_555
C60 C55 1_555 1_555
C61 P4 1_555 1_555
C62 C61 1_555 1_555
C63 C62 1_555 1_555
C64 C63 1_555 1_555
C65 C64 1_555 1_555
C66 C61 1_555 1_555
C67 P4 1_555 1_555
C68 C67 1_555 1_555
C69 C68 1_555 1_555
C70 C69 1_555 1_555
C71 C70 1_555 1_555
C72 C67 1_555 1_555
N1 Cu1 1_555 1_555
C73 N1 1_555 1_555
B1 C73 1_555 1_555
C74 B1 1_555 1_555
N2 Cu2 1_555 1_555
N3 Cu2 1_555 1_555
C75 N3 1_555 1_555
B2 C75 1_555 1_555
C76 B2 1_555 1_555
N4 C76 1_555 1_555
H1 C2 1_555 1_555
H2 C3 1_555 1_555
H3 C4 1_555 1_555
H4 C5 1_555 1_555
H5 C6 1_555 1_555
H6 C8 1_555 1_555
H7 C9 1_555 1_555
H8 C10 1_555 1_555
H9 C11 1_555 1_555
H10 C12 1_555 1_555
H11 C14 1_555 1_555
H12 C15 1_555 1_555
H13 C16 1_555 1_555
H14 C17 1_555 1_555
H15 C18 1_555 1_555
H16 C20 1_555 1_555
H17 C21 1_555 1_555
H18 C22 1_555 1_555
H19 C23 1_555 1_555
H20 C24 1_555 1_555
H21 C26 1_555 1_555
H22 C27 1_555 1_555
H23 C28 1_555 1_555
H24 C29 1_555 1_555
H25 C30 1_555 1_555
H26 C32 1_555 1_555
H27 C33 1_555 1_555
H28 C34 1_555 1_555
H29 C35 1_555 1_555
H30 C36 1_555 1_555
H31 C38 1_555 1_555
H32 C39 1_555 1_555
H33 C40 1_555 1_555
H34 C41 1_555 1_555
H35 C42 1_555 1_555
H36 C44 1_555 1_555
H37 C45 1_555 1_555
H38 C46 1_555 1_555
H39 C47 1_555 1_555
H40 C48 1_555 1_555
H41 C50 1_555 1_555
H42 C51 1_555 1_555
H43 C52 1_555 1_555
H44 C53 1_555 1_555
H45 C54 1_555 1_555
H46 C56 1_555 1_555
H47 C57 1_555 1_555
H48 C58 1_555 1_555
H49 C59 1_555 1_555
H50 C60 1_555 1_555
H51 C62 1_555 1_555
H52 C63 1_555 1_555
H53 C64 1_555 1_555
H54 C65 1_555 1_555
H55 C66 1_555 1_555
H56 C68 1_555 1_555
H57 C69 1_555 1_555
H58 C70 1_555 1_555
H59 C71 1_555 1_555
H60 C72 1_555 1_555
H61 B1 1_555 1_555
H62 B1 1_555 1_555
H63 B2 1_555 1_555
H64 B2 1_555 1_555
N4_2 Cu1 1_555 1_555
Cu1_2 N4 1_555 1_555
C11 C12 1_555 1_555
C17 C18 1_555 1_555
C23 C24 1_555 1_555
C29 C30 1_555 1_555
C35 C36 1_555 1_555
C47 C48 1_555 1_555
C53 C54 1_555 1_555
C59 C60 1_555 1_555
C65 C66 1_555 1_555
C71 C72 1_555 1_555
C74 N2 1_555 1_555

#END
