
#######################################################################
#
#                 Cambridge Crystallographic Data Centre
#                                CCDC 
#
#######################################################################
#
# If this CIF has been generated from an entry in the Cambridge 
# Structural Database, then it will include bibliographic, chemical, 
# crystal, experimental, refinement or atomic coordinate data resulting 
# from the CCDC's data processing and validation procedures.
#
#######################################################################

data_DUTMOU10
_symmetry_cell_setting           triclinic
_symmetry_space_group_name_H-M   'P -1'
_symmetry_Int_Tables_number      2
_space_group_name_Hall           '-P 1'
loop_
_symmetry_equiv_pos_site_id
_symmetry_equiv_pos_as_xyz
1 x,y,z
2 -x,-y,-z
_cell_length_a                   10.133(3)
_cell_length_b                   10.187(2)
_cell_length_c                   11.740(2)
_cell_angle_alpha                72.834(11)
_cell_angle_beta                 68.327(15)
_cell_angle_gamma                63.52(2)
_cell_volume                     995.564
loop_
_atom_site_label
_atom_site_type_symbol
_atom_site_fract_x
_atom_site_fract_y
_atom_site_fract_z
Cd1 Cd 0.00000 1.00000 0.00000
Cd2 Cd -0.34366(2) 0.94576(2) 0.06871(2)
Cl1 Cl -0.15148(7) 1.01049(7) -0.14097(6)
Cl2 Cl -0.24942(7) 1.04465(6) 0.18726(6)
Cl3 Cl -0.57112(6) 1.19076(6) 0.02466(6)
S1 S 0.07497(7) 0.46596(7) 0.15860(7)
S2 S 0.31338(7) 0.60989(7) 0.04039(6)
S3 S -0.26803(7) 0.53050(7) 0.21754(7)
O1 O 0.4094(2) 0.4341(2) 0.3680(2)
O2 O 0.1826(2) 0.2723(2) 0.4861(2)
O3 O -0.0669(2) 0.3003(2) 0.4030(2)
N1 N -0.1267(2) 0.7197(2) 0.1093(2)
N2 N 0.0091(2) 0.7406(2) 0.0711(2)
C1 C 0.1246(3) 0.6183(3) 0.0901(2)
C2 C -0.1106(3) 0.5821(3) 0.1581(2)
C3 C 0.3509(3) 0.5841(3) 0.1861(2)
C4 C 0.3737(3) 0.4332(3) 0.2621(2)
C5 C 0.4143(3) 0.3065(3) 0.4600(3)
C6 C 0.2613(3) 0.3083(3) 0.5439(2)
C7 C 0.0352(3) 0.2840(3) 0.5653(3)
C8 C -0.0367(3) 0.2180(3) 0.5179(3)
C9 C -0.1691(3) 0.2624(3) 0.3752(3)
C10 C -0.1810(3) 0.3296(3) 0.2457(3)
O4 O -0.5322(2) 0.8913(2) 0.2506(2)
C11 C -0.6281(4) 0.9987(4) 0.3322(3)
H1 H 0.2664 0.6547 0.2342
H2 H 0.4412 0.6022 0.1686
H3 H 0.4557 0.3593 0.2159
H4 H 0.2825 0.4143 0.2868
H5 H 0.4744 0.2980 0.5096
H6 H 0.4621 0.2221 0.4193
H7 H 0.2005 0.4047 0.5658
H8 H 0.2757 0.2379 0.6166
H9 H -0.0278 0.3858 0.5695
H10 H 0.0436 0.2327 0.6458
H11 H -0.1306 0.2178 0.5773
H12 H 0.0310 0.1189 0.5064
H13 H -0.2679 0.2979 0.4319
H14 H -0.1326 0.1575 0.3834
H15 H -0.2406 0.2918 0.2280
H16 H -0.0803 0.2998 0.1907
H17 H -0.7227 1.0840 0.3047
H18 H -0.5668 1.0429 0.3391
H19 H -0.6656 0.9481 0.4112
H20 H -0.6113 0.8848 0.2207
Cl1A Cl 0.15148(7) 0.98951(7) 0.14097(6)
Cl2A Cl 0.24942(7) 0.95535(6) -0.18726(6)
N2A N -0.0091(2) 1.2594(2) -0.0711(2)
Cl3A Cl -0.42888(6) 0.80924(6) -0.02466(6)
Cd2A Cd -0.65634(2) 1.05424(2) -0.06871(2)
Cd2A_2 Cd 0.34366(2) 1.05424(2) -0.06871(2)
N1A N 0.1267(2) 1.2803(2) -0.1093(2)
C1A C -0.1246(3) 1.3817(3) -0.0901(2)
C2A C 0.1106(3) 1.4179(3) -0.1581(2)
S1A S -0.07497(7) 1.53404(7) -0.15860(7)
S2A S -0.31338(7) 1.39011(7) -0.04039(6)
S3A S 0.26803(7) 1.46950(7) -0.21754(7)
C3A C -0.3509(3) 1.4159(3) -0.1861(2)
C10A C 0.1810(3) 1.6704(3) -0.2457(3)
C4A C -0.3737(3) 1.5668(3) -0.2621(2)
H1A H -0.2664 1.3453 -0.2342
H2A H -0.4412 1.3978 -0.1686
C9A C 0.1691(3) 1.7376(3) -0.3752(3)
H15A H 0.2406 1.7082 -0.2280
H16A H 0.0803 1.7002 -0.1907
O1A O -0.4094(2) 1.5659(2) -0.3680(2)
H3A H -0.4557 1.6407 -0.2159
H4A H -0.2825 1.5857 -0.2868
O3A O 0.0669(2) 1.6997(2) -0.4030(2)
H13A H 0.2679 1.7021 -0.4319
H14A H 0.1326 1.8425 -0.3834
C5A C -0.4143(3) 1.6935(3) -0.4600(3)
C8A C 0.0367(3) 1.7820(3) -0.5179(3)
C6A C -0.2613(3) 1.6917(3) -0.5439(2)
H5A H -0.4744 1.7020 -0.5096
H6A H -0.4621 1.7779 -0.4193
C7A C -0.0352(3) 1.7160(3) -0.5653(3)
H11A H 0.1306 1.7822 -0.5773
H12A H -0.0310 1.8811 -0.5064
O2A O -0.1826(2) 1.7277(2) -0.4861(2)
H7A H -0.2005 1.5953 -0.5658
H8A H -0.2757 1.7621 -0.6166
H9A H 0.0278 1.6142 -0.5695
H10A H -0.0436 1.7673 -0.6458
Cl3_2 Cl 0.42888(6) 1.19076(6) 0.02466(6)
Cl3A_2 Cl 0.57112(6) 0.80924(6) -0.02466(6)
O4A O 0.5322(2) 1.1087(2) -0.2506(2)
C11A C 0.6281(4) 1.0013(4) -0.3322(3)
H20A H 0.6113 1.1152 -0.2207
H17A H 0.7227 0.9160 -0.3047
H18A H 0.5668 0.9571 -0.3391
H19A H 0.6656 1.0519 -0.4112
loop_
_geom_bond_atom_site_label_1
_geom_bond_atom_site_label_2
_geom_bond_site_symmetry_1
_geom_bond_site_symmetry_2
Cd1 Cl1 1_555 1_555
Cd2 Cl1 1_555 1_555
Cl2 Cd1 1_555 1_555
Cl3 Cd2 1_555 1_555
S1 C1 1_555 1_555
S2 C1 1_555 1_555
S3 C2 1_555 1_555
O1 C4 1_555 1_555
O2 C6 1_555 1_555
O3 C8 1_555 1_555
N1 Cd2 1_555 1_555
N2 Cd1 1_555 1_555
C1 N2 1_555 1_555
C2 S1 1_555 1_555
C3 S2 1_555 1_555
C4 C3 1_555 1_555
C5 O1 1_555 1_555
C6 C5 1_555 1_555
C7 O2 1_555 1_555
C8 C7 1_555 1_555
C9 O3 1_555 1_555
C10 S3 1_555 1_555
O4 Cd2 1_555 1_555
C11 O4 1_555 1_555
H1 C3 1_555 1_555
H2 C3 1_555 1_555
H3 C4 1_555 1_555
H4 C4 1_555 1_555
H5 C5 1_555 1_555
H6 C5 1_555 1_555
H7 C6 1_555 1_555
H8 C6 1_555 1_555
H9 C7 1_555 1_555
H10 C7 1_555 1_555
H11 C8 1_555 1_555
H12 C8 1_555 1_555
H13 C9 1_555 1_555
H14 C9 1_555 1_555
H15 C10 1_555 1_555
H16 C10 1_555 1_555
H17 C11 1_555 1_555
H18 C11 1_555 1_555
H19 C11 1_555 1_555
H20 O4 1_555 1_555
Cl1A Cd1 1_555 1_555
Cl2A Cd1 1_555 1_555
N2A Cd1 1_555 1_555
Cl3A Cd2 1_555 1_555
Cd2A Cl3 1_555 1_555
Cd2A_2 Cl1A 1_555 1_555
N1A N2A 1_555 1_555
C1A N2A 1_555 1_555
C2A N1A 1_555 1_555
S1A C1A 1_555 1_555
S2A C1A 1_555 1_555
S3A C2A 1_555 1_555
C3A S2A 1_555 1_555
C10A S3A 1_555 1_555
C4A C3A 1_555 1_555
H1A C3A 1_555 1_555
H2A C3A 1_555 1_555
C9A C10A 1_555 1_555
H15A C10A 1_555 1_555
H16A C10A 1_555 1_555
O1A C4A 1_555 1_555
H3A C4A 1_555 1_555
H4A C4A 1_555 1_555
O3A C9A 1_555 1_555
H13A C9A 1_555 1_555
H14A C9A 1_555 1_555
C5A O1A 1_555 1_555
C8A O3A 1_555 1_555
C6A C5A 1_555 1_555
H5A C5A 1_555 1_555
H6A C5A 1_555 1_555
C7A C8A 1_555 1_555
H11A C8A 1_555 1_555
H12A C8A 1_555 1_555
O2A C6A 1_555 1_555
H7A C6A 1_555 1_555
H8A C6A 1_555 1_555
H9A C7A 1_555 1_555
H10A C7A 1_555 1_555
Cl3_2 Cd2A_2 1_555 1_555
Cl3A_2 Cd2A_2 1_555 1_555
O4A Cd2A_2 1_555 1_555
C11A O4A 1_555 1_555
H20A O4A 1_555 1_555
H17A C11A 1_555 1_555
H18A C11A 1_555 1_555
H19A C11A 1_555 1_555
Cd2 Cl2 1_555 1_555
N1 N2 1_555 1_555
N1 C2 1_555 1_555
C9 C10 1_555 1_555
Cl2A Cd2A_2 1_555 1_555
Cl3A Cd2A 1_555 1_555
Cd2A_2 N1A 1_555 1_555
C2A S1A 1_555 1_555
C7A O2A 1_555 1_555

#END
