
#######################################################################
#
#                 Cambridge Crystallographic Data Centre
#                                CCDC 
#
#######################################################################
#
# If this CIF has been generated from an entry in the Cambridge 
# Structural Database, then it will include bibliographic, chemical, 
# crystal, experimental, refinement or atomic coordinate data resulting 
# from the CCDC's data processing and validation procedures.
#
#######################################################################

data_DUTNAH10
_symmetry_cell_setting           monoclinic
_symmetry_space_group_name_H-M   'P 21/n'
_symmetry_Int_Tables_number      14
_space_group_name_Hall           '-P 2yn'
loop_
_symmetry_equiv_pos_site_id
_symmetry_equiv_pos_as_xyz
1 x,y,z
2 1/2-x,1/2+y,1/2-z
3 -x,-y,-z
4 1/2+x,1/2-y,1/2+z
_cell_length_a                   8.674(2)
_cell_length_b                   7.7115(6)
_cell_length_c                   17.143(2)
_cell_angle_alpha                90
_cell_angle_beta                 94.47(2)
_cell_angle_gamma                90
_cell_volume                     1143.2
loop_
_atom_site_label
_atom_site_type_symbol
_atom_site_fract_x
_atom_site_fract_y
_atom_site_fract_z
Cu1 Cu 0.00000 0.5000 0.00000
S1 S 0.46504(8) 0.2458(1) 0.03114(5)
S2 S 0.46553(11) 0.2238(1) 0.20602(5)
S3 S 0.28075(9) 0.3682(1) -0.11919(4)
O1 O 0.4643(3) 0.6130(3) 0.2315(1)
O2 O -0.0734(3) 0.2777(3) -0.0484(1)
O3 O -0.1400(3) 0.2685(3) 0.0692(1)
O4 O -0.1981(4) 0.0555(4) -0.0108(2)
N1 N 0.2045(3) 0.3937(3) 0.0276(1)
N2 N 0.2467(3) 0.3701(3) 0.1063(1)
N3 N -0.1403(3) 0.1954(4) 0.0055(2)
C1 C 0.3793(3) 0.2933(4) 0.1162(2)
C2 C 0.3049(3) 0.3353(4) -0.0194(2)
C3 C 0.3662(4) 0.3553(5) 0.2744(2)
C4 C 0.4498(4) 0.5160(5) 0.2984(2)
C5 C 0.5755(4) 0.7536(4) 0.2402(2)
C6 C 0.3957(4) 0.1972(5) -0.1578(2)
C6B C 0.6043(4) 0.8028(5) 0.1578(2)
S3B S 0.71925(9) 0.6318(1) 0.11919(4)
C2B C 0.6951(3) 0.6647(4) 0.0194(2)
S1B S 0.53496(8) 0.7542(1) -0.03114(5)
C1B C 0.6207(3) 0.7067(4) -0.1162(2)
S2B S 0.53447(11) 0.7762(1) -0.20602(5)
C3B C 0.6338(4) 0.6447(5) -0.2744(2)
C4B C 0.5502(4) 0.4840(5) -0.2984(2)
O1B O 0.5357(3) 0.3870(3) -0.2315(1)
C5B C 0.4245(4) 0.2464(4) -0.2402(2)
N2B N 0.7533(3) 0.6299(3) -0.1063(1)
N1B N 0.7955(3) 0.6063(3) -0.0276(1)
O2B O 0.0734(3) 0.7223(3) 0.0484(1)
O3B O 0.1400(3) 0.7315(3) -0.0692(1)
O4B O 0.1981(4) 0.9445(4) 0.0108(2)
N3B N 0.1403(3) 0.8046(4) -0.0055(2)
N1B_2 N -0.2045(3) 0.6063(3) -0.0276(1)
Cu1_2 Cu 1.00000 0.5000 0.00000
loop_
_geom_bond_atom_site_label_1
_geom_bond_atom_site_label_2
_geom_bond_site_symmetry_1
_geom_bond_site_symmetry_2
Cu1 O2 1_555 1_555
S1 C1 1_555 1_555
S2 C1 1_555 1_555
S3 C2 1_555 1_555
O1 C4 1_555 1_555
O2 N3 1_555 1_555
O3 N3 1_555 1_555
O4 N3 1_555 1_555
N1 Cu1 1_555 1_555
N2 N1 1_555 1_555
C1 N2 1_555 1_555
C2 S1 1_555 1_555
C3 S2 1_555 1_555
C4 C3 1_555 1_555
C5 O1 1_555 1_555
C6 S3 1_555 1_555
C6B C5 1_555 1_555
S3B C6B 1_555 1_555
C2B S3B 1_555 1_555
S1B C2B 1_555 1_555
C1B S1B 1_555 1_555
S2B C1B 1_555 1_555
C3B S2B 1_555 1_555
C4B C3B 1_555 1_555
O1B C4B 1_555 1_555
C5B C6 1_555 1_555
N2B C1B 1_555 1_555
N1B C2B 1_555 1_555
O2B Cu1 1_555 1_555
O3B N3B 1_555 1_555
O4B N3B 1_555 1_555
N3B O2B 1_555 1_555
N1B_2 Cu1 1_555 1_555
Cu1_2 N1B 1_555 1_555
N1 C2 1_555 1_555
O1B C5B 1_555 1_555
N2B N1B 1_555 1_555

#END
