
#######################################################################
#
#                 Cambridge Crystallographic Data Centre
#                                CCDC 
#
#######################################################################
#
# If this CIF has been generated from an entry in the Cambridge 
# Structural Database, then it will include bibliographic, chemical, 
# crystal, experimental, refinement or atomic coordinate data resulting 
# from the CCDC's data processing and validation procedures.
#
#######################################################################

data_DUVMAJ
_symmetry_cell_setting           tetragonal
_symmetry_space_group_name_H-M   'P 41 21 2'
_symmetry_Int_Tables_number      92
_space_group_name_Hall           'P 4abw 2nw'
loop_
_symmetry_equiv_pos_site_id
_symmetry_equiv_pos_as_xyz
1 x,y,z
2 -x,-y,1/2+z
3 1/2-y,1/2+x,1/4+z
4 1/2+y,1/2-x,3/4+z
5 1/2-x,1/2+y,1/4-z
6 1/2+x,1/2-y,3/4-z
7 y,x,-z
8 -y,-x,1/2-z
_cell_length_a                   9.477(3)
_cell_length_b                   9.477(3)
_cell_length_c                   26.352(6)
_cell_angle_alpha                90
_cell_angle_beta                 90
_cell_angle_gamma                90
_cell_volume                     2366.77
loop_
_atom_site_label
_atom_site_type_symbol
_atom_site_fract_x
_atom_site_fract_y
_atom_site_fract_z
Pb1 Pb 0.21790(2) 0.21790(2) 0.0000
N1 N 0.2709(5) 0.4681(5) 0.08829(15)
N2 N 0.1660(5) 0.4333(5) 0.05452(15)
O1 O 0.3875(5) 0.6283(5) 0.15145(14)
O2 O 0.3978(4) 0.2799(5) 0.05479(14)
O3 O -0.0457(5) 0.3841(5) -0.01383(14)
C1 C 0.5005(7) 0.5379(7) 0.15057(19)
C2 C 0.5016(6) 0.4199(6) 0.1195(2)
C3 C 0.6198(6) 0.3348(6) 0.1197(2)
H1 H 0.6224 0.2555 0.0989
C4 C 0.7338(7) 0.3651(8) 0.1501(3)
H2 H 0.8123 0.3061 0.1504
C5 C 0.7303(9) 0.4832(8) 0.1801(2)
H3 H 0.8075 0.5048 0.2004
C6 C 0.6163(7) 0.5688(7) 0.1804(2)
H4 H 0.6157 0.6488 0.2008
C7 C 0.3828(7) 0.3846(7) 0.08446(17)
C8 C 0.0503(7) 0.5006(6) 0.0587(2)
H5 H 0.0417 0.5686 0.0840
C9 C -0.0668(7) 0.4746(6) 0.0258(2)
C10 C -0.2018(8) 0.5182(7) 0.0256(2)
H6 H -0.2428 0.5805 0.0485
C11 C -0.2697(8) 0.4523(8) -0.0156(2)
H7 H -0.3637 0.4618 -0.0251
C12 C -0.1723(8) 0.3741(8) -0.0381(3)
H8 H -0.1882 0.3193 -0.0668
Pb1B Pb 0.28210(2) 0.71790(2) 0.2500
Pb1C Pb 0.71790(2) 0.28210(2) -0.2500
N1F N 0.4681(5) 0.2709(5) -0.08829(15)
N2F N 0.4333(5) 0.1660(5) -0.05452(15)
O1F O 0.6283(5) 0.3875(5) -0.15145(14)
O1C O 0.1283(5) 0.1125(5) -0.09855(14)
O1D O 0.1125(5) 0.1283(5) 0.09855(14)
O2F O 0.2799(5) 0.3978(4) -0.05479(14)
O3F O 0.3841(5) -0.0457(5) 0.01383(14)
C1F C 0.5379(7) 0.5005(7) -0.15057(19)
C2F C 0.4199(6) 0.5016(6) -0.1195(2)
C3F C 0.3348(6) 0.6198(6) -0.1197(2)
H1F H 0.2555 0.6224 -0.0989
C4F C 0.3651(8) 0.7338(7) -0.1501(3)
H2F H 0.3061 0.8123 -0.1504
C5F C 0.4832(8) 0.7303(9) -0.1801(2)
H3F H 0.5048 0.8075 -0.2004
C6F C 0.5688(7) 0.6163(7) -0.1804(2)
H4F H 0.6488 0.6157 -0.2008
C7F C 0.3846(7) 0.3828(7) -0.08446(17)
C8F C 0.5006(6) 0.0503(7) -0.0587(2)
H5F H 0.5686 0.0417 -0.0840
C9F C 0.4746(6) -0.0668(7) -0.0258(2)
C10F C 0.5182(7) -0.2018(8) -0.0256(2)
H6F H 0.5805 -0.2428 -0.0485
C11F C 0.4523(8) -0.2697(8) 0.0156(2)
H7F H 0.4618 -0.3637 0.0251
C12F C 0.3741(8) -0.1723(8) 0.0381(3)
H8F H 0.3193 -0.1882 0.0668
loop_
_geom_bond_atom_site_label_1
_geom_bond_atom_site_label_2
_geom_bond_site_symmetry_1
_geom_bond_site_symmetry_2
Pb1 N2 1_555 1_555
N1 N2 1_555 1_555
N2 C8 1_555 1_555
O1 C1 1_555 1_555
O2 Pb1 1_555 1_555
O3 Pb1 1_555 1_555
C1 C2 1_555 1_555
C2 C3 1_555 1_555
C3 H1 1_555 1_555
C4 C3 1_555 1_555
H2 C4 1_555 1_555
C5 C4 1_555 1_555
H3 C5 1_555 1_555
C6 C1 1_555 1_555
H4 C6 1_555 1_555
C7 N1 1_555 1_555
C8 H5 1_555 1_555
C9 O3 1_555 1_555
C10 C9 1_555 1_555
H6 C10 1_555 1_555
C11 C10 1_555 1_555
H7 C11 1_555 1_555
C12 O3 1_555 1_555
H8 C12 1_555 1_555
Pb1B O1 1_555 1_555
Pb1C O1F 1_555 1_555
N1F N2F 1_555 1_555
N2F Pb1 1_555 1_555
O1F C1F 1_555 1_555
O1C Pb1 1_555 1_555
O1D Pb1 1_555 1_555
O2F Pb1 1_555 1_555
O3F Pb1 1_555 1_555
C1F C2F 1_555 1_555
C2F C3F 1_555 1_555
C3F H1F 1_555 1_555
C4F C3F 1_555 1_555
H2F C4F 1_555 1_555
C5F C4F 1_555 1_555
H3F C5F 1_555 1_555
C6F C1F 1_555 1_555
H4F C6F 1_555 1_555
C7F N1F 1_555 1_555
C8F N2F 1_555 1_555
H5F C8F 1_555 1_555
C9F O3F 1_555 1_555
C10F C9F 1_555 1_555
H6F C10F 1_555 1_555
C11F C10F 1_555 1_555
H7F C11F 1_555 1_555
C12F O3F 1_555 1_555
H8F C12F 1_555 1_555
O2 C7 1_555 1_555
C2 C7 1_555 1_555
C5 C6 1_555 1_555
C8 C9 1_555 1_555
C11 C12 1_555 1_555
O2F C7F 1_555 1_555
C2F C7F 1_555 1_555
C5F C6F 1_555 1_555
C8F C9F 1_555 1_555
C11F C12F 1_555 1_555

#END
