
#######################################################################
#
#                 Cambridge Crystallographic Data Centre
#                                CCDC 
#
#######################################################################
#
# If this CIF has been generated from an entry in the Cambridge 
# Structural Database, then it will include bibliographic, chemical, 
# crystal, experimental, refinement or atomic coordinate data resulting 
# from the CCDC's data processing and validation procedures.
#
#######################################################################

data_DUVMEN
_symmetry_cell_setting           triclinic
_symmetry_space_group_name_H-M   'P -1'
_symmetry_Int_Tables_number      2
_space_group_name_Hall           '-P 1'
loop_
_symmetry_equiv_pos_site_id
_symmetry_equiv_pos_as_xyz
1 x,y,z
2 -x,-y,-z
_cell_length_a                   9.6163(6)
_cell_length_b                   14.5969(12)
_cell_length_c                   15.0797(13)
_cell_angle_alpha                64.826(2)
_cell_angle_beta                 78.327(2)
_cell_angle_gamma                85.208(4)
_cell_volume                     1876.04
loop_
_atom_site_label
_atom_site_type_symbol
_atom_site_fract_x
_atom_site_fract_y
_atom_site_fract_z
U1 U 0.327389(17) 0.739296(14) 0.566934(12)
U2 U 0.372591(16) 0.674072(13) 0.197863(11)
N1 N 0.4641(4) 0.6583(3) 0.0345(3)
O1 O 0.5541(3) 0.5554(3) 0.1996(2)
O2 O 0.0177(3) 0.8296(3) 0.3223(3)
O3 O 0.1640(3) 0.7228(3) 0.2769(2)
O4 O 0.7179(4) 0.9130(3) 0.0592(3)
O5 O 0.2583(3) 0.7734(3) 0.0628(2)
O6 O 0.7351(3) 0.4879(3) 0.1280(3)
N2 N 0.3686(4) 0.8518(3) 0.1914(3)
O7 O 0.5820(3) 0.7754(3) 0.1130(2)
C1 C 0.1327(4) 0.8083(4) 0.2837(3)
O8 O 0.2286(3) 0.8395(3) -0.0965(2)
C2 C 0.4811(4) 0.9133(4) 0.1429(3)
C3 C 0.2519(4) 0.8836(4) 0.2360(3)
C4 C 0.5697(5) 0.6463(4) -0.1440(4)
H1 H 0.608(6) 0.646(5) -0.206(3)
C5 C 0.6054(5) 0.8650(4) 0.1002(3)
C6 C 0.6282(5) 0.5418(4) 0.1246(3)
C7 C 0.3589(5) 1.0463(4) 0.1788(4)
H2 H 0.353(6) 1.1141(19) 0.167(4)
C8 C 0.4547(5) 0.7066(4) -0.1361(3)
H3 H 0.406(5) 0.742(4) -0.187(3)
C9 C 0.2435(5) 0.9806(4) 0.2326(4)
H4 H 0.166(4) 1.001(4) 0.268(4)
C10 C 0.6350(5) 0.5931(4) -0.0623(4)
H5 H 0.707(4) 0.547(4) -0.063(4)
C11 C 0.4051(4) 0.7116(4) -0.0454(3)
C12 C 0.5755(5) 0.5993(4) 0.0279(3)
O9 O 0.4938(4) 0.8461(3) 0.4303(2)
O10 O 0.4313(3) 0.6194(3) 0.5058(2)
O11 O 0.2005(3) 0.5911(3) 0.6915(3)
H6 H 0.228(5) 0.554(4) 0.752(2)
H7 H 0.102(2) 0.594(5) 0.699(4)
O12 O 0.2300(3) 0.5500(3) 0.1949(2)
O13 O 0.4545(3) 0.7174(3) 0.6440(2)
O14 O 0.4630(3) 0.6586(3) 0.3431(2)
O15 O 0.1601(4) 0.7897(3) 0.6776(3)
N3 N 0.3001(4) 0.9278(3) 0.5182(3)
O16 O 0.1977(3) 0.7568(3) 0.4929(3)
K1 K 0.84219(10) 0.96513(8) 0.20314(7)
O17 O 0.5955(4) 0.9959(3) 0.3246(3)
O18 O 0.0842(3) 0.4163(3) 0.2622(3)
O19 O 0.6953(4) 0.7875(3) 0.3012(3)
H8 H 0.626(5) 0.747(4) 0.298(5)
H9 H 0.649(6) 0.810(5) 0.351(4)
C13 C 0.5016(5) 0.9436(4) 0.3907(3)
C14 C 0.1135(5) 0.3919(4) 0.4609(4)
H10 H 0.055(5) 0.348(4) 0.456(4)
C15 C 0.3810(5) 0.9927(4) 0.4351(3)
O20 O 0.0268(4) 0.9041(3) 0.7192(3)
O21 O 1.0657(4) 0.9268(4) 0.0779(3)
H12 H 1.078(7) 0.885(4) 0.045(5)
H13 H 1.135(6) 0.977(4) 0.045(5)
N6 N 0.2782(4) 0.5279(3) 0.3650(3)
C18 C 0.1633(5) 0.4750(4) 0.2695(3)
C20 C 0.1931(5) 0.9627(4) 0.5661(4)
C21 C 0.3524(6) 1.0967(4) 0.3960(4)
H19 H 0.408(5) 1.141(4) 0.336(3)
C23 C 0.4058(4) 0.6073(4) 0.4321(3)
C24 C 0.1847(5) 0.4620(4) 0.3703(3)
C25 C 0.1191(5) 0.8807(4) 0.6618(4)
C26 C 0.1551(6) 1.0632(4) 0.5328(4)
H21 H 0.079(4) 1.090(4) 0.562(4)
C27 C 0.3018(4) 0.5270(3) 0.4499(3)
C28 C 0.1403(5) 0.3907(4) 0.5484(3)
H22 H 0.102(5) 0.344(4) 0.612(2)
C29 C 0.2349(5) 0.4597(4) 0.5438(3)
H23 H 0.252(6) 0.469(5) 0.598(3)
C30 C 0.2368(6) 1.1316(5) 0.4447(4)
H24 H 0.208(6) 1.199(2) 0.424(5)
C31 C 0.4785(5) 1.0122(4) 0.1341(4)
H25 H 0.553(4) 1.056(4) 0.096(4)
C32 C 0.2854(5) 0.7797(4) -0.0267(3)
O2_2 O 1.0177(3) 0.8296(3) 0.3223(3)
O8A O 0.7714(3) 1.1605(3) 0.0965(2)
K1_2 K -0.15781(10) 0.96513(8) 0.20314(7)
K1A K 0.15781(10) 1.03487(8) -0.20314(7)
K1A_2 K 0.15781(10) 1.03487(8) 0.79686(7)
O20A O 0.9732(4) 1.0959(3) 0.2808(3)
N4 N -0.0603(4) 0.6863(3) 0.0628(3)
N5 N -0.0355(4) 0.7472(4) -0.0974(3)
H11 H -0.019(6) 0.808(3) -0.159(3)
C16 C 0.0157(5) 0.6164(4) 0.0342(4)
H14 H 0.039(6) 0.558(3) 0.086(3)
C17 C -0.1007(5) 0.6779(4) 0.1656(4)
H15 H -0.013(4) 0.671(5) 0.189(4)
H16 H -0.147(6) 0.741(3) 0.158(5)
H17 H -0.164(5) 0.621(3) 0.205(4)
C19 C 0.0311(5) 0.6548(4) -0.0665(4)
H18 H 0.067(6) 0.632(4) -0.115(3)
C22 C -0.0885(5) 0.7654(4) -0.0178(4)
H20 H -0.134(5) 0.821(3) -0.010(4)
loop_
_geom_bond_atom_site_label_1
_geom_bond_atom_site_label_2
_geom_bond_site_symmetry_1
_geom_bond_site_symmetry_2
U1 O9 1_555 1_555
U2 N1 1_555 1_555
N1 C11 1_555 1_555
O1 U2 1_555 1_555
O2 C1 1_555 1_555
O3 U2 1_555 1_555
O4 C5 1_555 1_555
O5 U2 1_555 1_555
O6 C6 1_555 1_555
N2 U2 1_555 1_555
O7 U2 1_555 1_555
C1 O3 1_555 1_555
O8 C32 1_555 1_555
C2 N2 1_555 1_555
C3 N2 1_555 1_555
C4 H1 1_555 1_555
C5 O7 1_555 1_555
C6 O1 1_555 1_555
C7 H2 1_555 1_555
C8 C4 1_555 1_555
H3 C8 1_555 1_555
C9 C3 1_555 1_555
H4 C9 1_555 1_555
C10 C4 1_555 1_555
H5 C10 1_555 1_555
C11 C8 1_555 1_555
C12 N1 1_555 1_555
O9 C13 1_555 1_555
O10 U1 1_555 1_555
O11 U1 1_555 1_555
H6 O11 1_555 1_555
H7 O11 1_555 1_555
O12 U2 1_555 1_555
O13 U1 1_555 1_555
O14 U2 1_555 1_555
O15 U1 1_555 1_555
N3 U1 1_555 1_555
O16 U1 1_555 1_555
K1 O4 1_555 1_555
O17 K1 1_555 1_555
O18 C18 1_555 1_555
O19 K1 1_555 1_555
H8 O19 1_555 1_555
H9 O19 1_555 1_555
C13 O17 1_555 1_555
N4 C16 1_555 1_555
C14 H10 1_555 1_555
N5 H11 1_555 1_555
C15 N3 1_555 1_555
O20 C25 1_555 1_555
O21 K1 1_555 1_555
H12 O21 1_555 1_555
H13 O21 1_555 1_555
N6 U2 1_555 1_555
C16 H14 1_555 1_555
C17 N4 1_555 1_555
H15 C17 1_555 1_555
H16 C17 1_555 1_555
H17 C17 1_555 1_555
C18 O12 1_555 1_555
C19 N5 1_555 1_555
H18 C19 1_555 1_555
C20 N3 1_555 1_555
C21 C15 1_555 1_555
H19 C21 1_555 1_555
C22 N4 1_555 1_555
H20 C22 1_555 1_555
C23 O10 1_555 1_555
C24 C14 1_555 1_555
C25 O15 1_555 1_555
C26 C20 1_555 1_555
H21 C26 1_555 1_555
C27 N6 1_555 1_555
C28 C14 1_555 1_555
H22 C28 1_555 1_555
C29 C27 1_555 1_555
H23 C29 1_555 1_555
C30 C21 1_555 1_555
H24 C30 1_555 1_555
C31 C2 1_555 1_555
H25 C31 1_555 1_555
C32 O5 1_555 1_555
O2_2 K1 1_555 1_555
O8A K1 1_555 1_555
K1_2 O2 1_555 1_555
K1A O8 1_555 1_555
K1A_2 O20 1_555 1_555
O20A K1 1_555 1_555
C1 C3 1_555 1_555
C2 C5 1_555 1_555
C6 C12 1_555 1_555
C7 C9 1_555 1_555
C7 C31 1_555 1_555
C10 C12 1_555 1_555
C11 C32 1_555 1_555
O14 C23 1_555 1_555
C13 C15 1_555 1_555
N5 C22 1_555 1_555
N6 C24 1_555 1_555
C16 C19 1_555 1_555
C18 C24 1_555 1_555
C20 C25 1_555 1_555
C23 C27 1_555 1_555
C26 C30 1_555 1_555
C28 C29 1_555 1_555

#END
