
#######################################################################
#
#                 Cambridge Crystallographic Data Centre
#                                CCDC 
#
#######################################################################
#
# If this CIF has been generated from an entry in the Cambridge 
# Structural Database, then it will include bibliographic, chemical, 
# crystal, experimental, refinement or atomic coordinate data resulting 
# from the CCDC's data processing and validation procedures.
#
#######################################################################

data_DUVMIR
_symmetry_cell_setting           triclinic
_symmetry_space_group_name_H-M   'P -1'
_symmetry_Int_Tables_number      2
_space_group_name_Hall           '-P 1'
loop_
_symmetry_equiv_pos_site_id
_symmetry_equiv_pos_as_xyz
1 x,y,z
2 -x,-y,-z
_cell_length_a                   8.9724(11)
_cell_length_b                   9.4413(12)
_cell_length_c                   14.5126(18)
_cell_angle_alpha                99.040(2)
_cell_angle_beta                 95.377(2)
_cell_angle_gamma                105.027(2)
_cell_volume                     1160.88
loop_
_atom_site_label
_atom_site_type_symbol
_atom_site_fract_x
_atom_site_fract_y
_atom_site_fract_z
La1 La 0.85649(3) 0.73496(3) 0.725239(17)
La2 La 1.54604(3) 0.14388(3) 1.157640(17)
O1 O 0.9062(5) 0.5010(4) 0.6268(3)
H1 H 0.968(5) 0.445(5) 0.643(4)
H2 H 0.819(4) 0.442(5) 0.590(4)
O2 O 0.7344(5) 0.6515(4) 0.5440(3)
H3 H 0.650(4) 0.673(7) 0.519(4)
H4 H 0.820(4) 0.709(6) 0.528(4)
O3 O 1.3980(4) -0.1000(4) 1.0399(2)
H5 H 1.470(4) -0.148(5) 1.047(4)
H6 H 1.304(3) -0.155(5) 1.048(4)
O4 O 1.2428(4) 0.1646(4) 1.1212(2)
O5 O 1.4241(4) 0.2831(4) 1.0441(2)
O6 O 0.9992(4) 0.6162(4) 0.8245(2)
O7 O 1.2526(4) 0.6551(4) 0.8710(3)
O8 O 1.5317(4) 1.6566(4) 0.7290(2)
O9 O 1.6563(4) 1.4937(4) 0.7631(3)
O10 O 1.0498(4) 0.9677(4) 0.8059(2)
O11 O 1.3016(4) 1.0329(4) 0.8642(2)
O12 O 0.7583(4) 1.2118(4) 0.3010(2)
O13 O 0.9578(4) 1.1800(4) 0.3910(2)
O14 O 0.5729(4) 1.0144(4) 0.7355(2)
O15 O 0.7609(4) 0.9349(4) 0.6715(2)
N1 N 0.8916(5) 0.2319(5) 0.9372(3)
N2 N 1.1065(5) 1.3316(5) 0.6740(3)
N3 N 0.5129(5) 1.2490(5) 0.5256(3)
C1 C 1.0060(6) 0.2014(6) 0.9893(3)
H7 H 0.9800 0.1189 1.0206
C2 C 1.1621(5) 0.2850(5) 1.0002(3)
C3 C 1.1993(5) 0.4076(5) 0.9562(3)
H8 H 1.3043 0.4663 0.9614
C4 C 1.0791(5) 0.4429(5) 0.9041(3)
C5 C 0.9293(5) 0.3505(5) 0.8943(3)
H9 H 0.8492 0.3715 0.8557
C6 C 1.2842(5) 0.2424(5) 1.0587(3)
C7 C 1.1124(5) 0.5816(5) 0.8626(3)
C8 C 1.2469(5) 1.4299(5) 0.6880(3)
H10 H 1.2576 1.5184 0.6627
C9 C 1.3794(5) 1.4109(5) 0.7376(3)
C10 C 1.3622(5) 1.2870(6) 0.7778(3)
H11 H 1.4494 1.2711 0.8127
C11 C 1.2155(5) 1.1839(5) 0.7673(3)
C12 C 1.0936(5) 1.2102(5) 0.7131(3)
H12 H 0.9949 1.1378 0.7031
C13 C 1.5341(5) 1.5269(5) 0.7446(3)
C14 C 1.1870(5) 1.0505(5) 0.8157(3)
C15 C 0.6070(6) 1.2524(5) 0.4589(3)
H13 H 0.5908 1.3048 0.4098
C16 C 0.7272(5) 1.1837(5) 0.4573(3)
C17 C 0.7524(5) 1.1086(5) 0.5308(3)
H14 H 0.8354 1.0635 0.5335
C18 C 0.6554(5) 1.1011(5) 0.5993(3)
C19 C 0.5374(6) 1.1732(6) 0.5935(3)
H15 H 0.4706 1.1679 0.6407
C20 C 0.8205(5) 1.1929(5) 0.3768(3)
C21 C 0.6645(5) 1.0104(5) 0.6746(3)
La1A La 1.14351(3) 0.26504(3) 1.274761(17)
La1_2 La 1.85649(3) 1.73496(3) 0.725239(17)
La1A_2 La 1.14351(3) 1.26504(3) 0.274761(17)
La2A La 1.45396(3) -0.14388(3) 0.842360(17)
La2A_2 La 1.45396(3) 0.85612(3) 0.842360(17)
La2A_3 La 1.45396(3) 1.85612(3) 0.842360(17)
La2_2 La 0.54604(3) 1.14388(3) 0.157640(17)
La2A_4 La 0.45396(3) 0.85612(3) 0.842360(17)
O3A O 1.6020(4) 0.1000(4) 0.9601(2)
H5A H 1.530(4) 0.148(5) 0.953(4)
H6A H 1.696(3) 0.155(5) 0.952(4)
O4A O 0.7572(4) 0.8354(4) 0.8788(2)
O7A O 1.7474(4) 0.3449(4) 1.1290(3)
O8_2 O 0.5317(4) 0.6566(4) 0.7290(2)
O8A O 1.4683(4) 0.3434(4) 1.2710(2)
O9_2 O 0.6563(4) 0.4937(4) 0.7631(3)
O11A O 1.6984(4) -0.0329(4) 1.1358(2)
O12_2 O 1.7583(4) 0.2118(4) 1.3010(2)
O13A O 1.0422(4) 0.8200(4) 0.6090(2)
O14A O 1.4271(4) -0.0144(4) 1.2645(2)
loop_
_geom_bond_atom_site_label_1
_geom_bond_atom_site_label_2
_geom_bond_site_symmetry_1
_geom_bond_site_symmetry_2
La1 O1 1_555 1_555
La2 O3 1_555 1_555
O1 H1 1_555 1_555
H2 O1 1_555 1_555
O2 La1 1_555 1_555
H3 O2 1_555 1_555
H4 O2 1_555 1_555
O3 H5 1_555 1_555
H6 O3 1_555 1_555
O4 La2 1_555 1_555
O5 La2 1_555 1_555
O6 La1 1_555 1_555
O7 C7 1_555 1_555
O8 C13 1_555 1_555
O9 C13 1_555 1_555
O10 La1 1_555 1_555
O11 C14 1_555 1_555
O12 C20 1_555 1_555
O13 C20 1_555 1_555
O14 C21 1_555 1_555
O15 La1 1_555 1_555
N1 C1 1_555 1_555
N2 C8 1_555 1_555
N3 C15 1_555 1_555
C1 H7 1_555 1_555
C2 C1 1_555 1_555
C3 C2 1_555 1_555
H8 C3 1_555 1_555
C4 C3 1_555 1_555
C5 N1 1_555 1_555
H9 C5 1_555 1_555
C6 O4 1_555 1_555
C7 O6 1_555 1_555
C8 H10 1_555 1_555
C9 C8 1_555 1_555
C10 C9 1_555 1_555
H11 C10 1_555 1_555
C11 C10 1_555 1_555
C12 N2 1_555 1_555
H12 C12 1_555 1_555
C13 C9 1_555 1_555
C14 O10 1_555 1_555
C15 H13 1_555 1_555
C16 C15 1_555 1_555
C17 C16 1_555 1_555
H14 C17 1_555 1_555
C18 C17 1_555 1_555
C19 N3 1_555 1_555
H15 C19 1_555 1_555
C20 C16 1_555 1_555
C21 O15 1_555 1_555
La1A O4 1_555 1_555
La1_2 O8 1_555 1_555
La1A_2 O13 1_555 1_555
La2A O3 1_555 1_555
La2A_2 O7 1_555 1_555
La2A_3 O8 1_555 1_555
La2_2 O12 1_555 1_555
La2A_4 O14 1_555 1_555
O3A La2 1_555 1_555
H5A O3A 1_555 1_555
H6A O3A 1_555 1_555
O4A La1 1_555 1_555
O7A La2 1_555 1_555
O8_2 La1 1_555 1_555
O8A La2 1_555 1_555
O9_2 La1 1_555 1_555
O11A La2 1_555 1_555
O12_2 La2 1_555 1_555
O13A La1 1_555 1_555
O14A La2 1_555 1_555
O5 C6 1_555 1_555
O9 La1_2 1_555 1_555
O11 La2A_2 1_555 1_555
C2 C6 1_555 1_555
C4 C5 1_555 1_555
C4 C7 1_555 1_555
C11 C12 1_555 1_555
C11 C14 1_555 1_555
C18 C19 1_555 1_555
C18 C21 1_555 1_555
La1A O8A 1_555 1_555
La2A O3A 1_555 1_555
La2A_4 O4A 1_555 1_555
La2A_4 O8_2 1_555 1_555

#END
