
#######################################################################
#
#                 Cambridge Crystallographic Data Centre
#                                CCDC 
#
#######################################################################
#
# If this CIF has been generated from an entry in the Cambridge 
# Structural Database, then it will include bibliographic, chemical, 
# crystal, experimental, refinement or atomic coordinate data resulting 
# from the CCDC's data processing and validation procedures.
#
#######################################################################

data_DUVNIS
_symmetry_cell_setting           orthorhombic
_symmetry_space_group_name_H-M   'C c c a'
_symmetry_Int_Tables_number      68
_space_group_name_Hall           '-C 2a 2ac'
loop_
_symmetry_equiv_pos_site_id
_symmetry_equiv_pos_as_xyz
1 x,y,z
2 -x,1/2-y,z
3 x,1/2-y,1/2-z
4 -x,y,1/2-z
5 1/2+x,1/2+y,z
6 1/2-x,-y,z
7 1/2+x,-y,1/2-z
8 1/2-x,1/2+y,1/2-z
9 -x,-y,-z
10 x,1/2+y,-z
11 -x,1/2+y,1/2+z
12 x,-y,1/2+z
13 1/2-x,1/2-y,-z
14 1/2+x,y,-z
15 1/2-x,y,1/2+z
16 1/2+x,1/2-y,1/2+z
_cell_length_a                   45.832(9)
_cell_length_b                   17.780(4)
_cell_length_c                   39.386(8)
_cell_angle_alpha                90
_cell_angle_beta                 90
_cell_angle_gamma                90
_cell_volume                     32095.4
loop_
_atom_site_label
_atom_site_type_symbol
_atom_site_fract_x
_atom_site_fract_y
_atom_site_fract_z
C2 C 0.3513(2) 1.0293(7) 0.82186(19)
H1 H 0.3480 1.0272 0.8459
H2 H 0.3330 1.0379 0.8104
H3 H 0.3645 1.0697 0.8168
C3 C 0.3501(2) 0.8849(5) 0.8136(2)
H4 H 0.3602 0.8481 0.8002
H5 H 0.3302 0.8886 0.8059
H6 H 0.3503 0.8700 0.8370
C42 C 0.3917(4) 0.9868(15) 0.7931(4)
H26 H 0.3984 1.0356 0.7900
N2 N 0.36410(15) 0.9564(4) 0.81004(14)
O29 O 0.4018(3) 0.9265(9) 0.7851(3)
C1 C 0.11882(12) 0.7615(3) 0.95450(11)
C4 C 0.17430(10) 0.8845(3) 0.90136(11)
C5 C 0.20505(10) 0.8392(3) 0.85274(11)
H7 H 0.1883 0.8196 0.8428
C6 C 0.22859(10) 0.9025(3) 0.89928(10)
H8 H 0.2275 0.9259 0.9204
C7 C 0.12063(11) 0.5568(3) 0.98232(11)
C8 C 0.28295(10) 0.9185(3) 0.90057(11)
C9 C 0.03200(10) 1.0530(3) 0.86358(11)
C10 C 0.08131(10) 1.1380(3) 0.87892(11)
H9 H 0.0978 1.1662 0.8840
C11 C 0.08161(9) 1.0603(2) 0.88386(11)
C12 C 0.05548(10) 1.2567(3) 0.86460(12)
C13 C 0.12666(11) 0.6339(3) 0.98081(11)
H10 H 0.1402 0.6549 0.9956
C14 C 0.17092(14) 0.6195(4) 0.76308(14)
C15 C 0.00584(10) 1.0060(3) 0.85688(12)
C16 C 0.25692(10) 0.8584(3) 0.85178(10)
H11 H 0.2748 0.8535 0.8409
C17 C 0.10104(10) 0.5255(3) 0.95900(11)
H12 H 0.0970 0.4743 0.9597
C18 C 0.20319(10) 0.8763(3) 0.88340(11)
C19 C 0.15908(12) 1.2140(3) 0.91224(16)
H13 H 0.1608 1.1937 0.8906
C20 C 0.23400(12) 0.7908(3) 0.80268(12)
C21 C 0.11239(11) 0.6795(3) 0.95713(11)
C22 C 0.23177(10) 0.8311(3) 0.83653(11)
C23 C 0.25531(9) 0.8933(3) 0.88340(10)
C24 C 0.03161(10) 1.1313(3) 0.85864(11)
H14 H 0.0150 1.1547 0.8503
C25 C 0.13470(11) 0.4125(3) 0.80073(12)
H15 H 0.1273 0.3679 0.8096
C26 C 0.08769(11) 0.5705(3) 0.93482(11)
C27 C 0.09235(11) 0.6467(3) 0.93453(11)
H16 H 0.0822 0.6769 0.9193
C28 C 0.06797(11) 0.5368(3) 0.90802(12)
C29 C 0.13421(10) 0.5113(3) 1.01018(11)
C30 C 0.17226(12) 0.4785(3) 0.77035(13)
H17 H 0.1897 0.4780 0.7582
C31 C 0.05648(9) 1.1738(3) 0.86641(11)
C32 C 0.05693(10) 1.0190(3) 0.87610(11)
H18 H 0.0571 0.9672 0.8794
C33 C 0.10766(10) 1.0239(3) 0.89955(11)
C34 C 0.13058(10) 0.5465(3) 0.79130(12)
H19 H 0.1201 0.5911 0.7934
C35 C 0.09037(11) 0.4808(3) 0.82308(12)
C36 C 0.11914(10) 0.4789(3) 0.80474(12)
C37 C 0.16153(12) 0.4117(3) 0.78354(14)
C38 C 0.17835(15) 0.3394(4) 0.77984(19)
C39 C 0.15751(11) 0.5462(3) 0.77492(13)
C40 C 0.14422(16) 1.3282(4) 0.8833(2)
H20 H 0.1251 1.3502 0.8849
H21 H 0.1585 1.3673 0.8809
H22 H 0.1451 1.2955 0.8640
C41 C 0.1489(4) 1.3215(6) 0.9473(3)
H23 H 0.1654 1.3543 0.9499
H24 H 0.1312 1.3504 0.9488
H25 H 0.1491 1.2843 0.9650
C43 C 0.0807(3) 0.8237(6) 0.8469(3)
Co1 Co 0.129514(13) 0.89232(3) 0.938467(14)
Co2 Co 0.169560(13) 1.05376(3) 0.927820(14)
Co3 Co 0.190244(19) 0.7500 0.7500
Co4 Co 0.050391(13) 0.39470(3) 0.870085(15)
Co5 Co 0.27850(2) 0.7500 0.7500
Co6 Co 0.039181(14) 0.57055(4) 0.843744(17)
N1 N 0.15030(13) 1.2846(3) 0.91452(16)
O1 O 0.13013(7) 1.06307(18) 0.90468(9)
O2 O 0.0408(3) 0.6857(4) 0.8310(3)
O3 O 0.10494(7) 0.95613(19) 0.90743(9)
O4 O 0.00711(7) 0.9360(2) 0.85855(11)
O5 O -0.01862(6) 1.03680(17) 0.84846(7)
O6 O 0.07355(7) 1.29455(17) 0.88208(8)
O7 O 0.03612(6) 1.29000(18) 0.84697(7)
O8 O 0.15373(7) 0.8427(2) 0.89373(8)
O9 O 0.17183(6) 0.93287(17) 0.92535(7)
O10 O 0.28304(7) 0.93303(18) 0.93225(7)
O11 O 0.30618(6) 0.92284(19) 0.88355(7)
O12 O 0.25706(8) 0.8002(2) 0.78656(8)
O13 O 0.21254(8) 0.7518(2) 0.79361(8)
O14 O 0.15798(10) 0.6788(3) 0.76806(15)
O15 O 0.20273(8) 0.3438(3) 0.76450(9)
O16 O 0.16857(14) 0.2812(3) 0.79192(17)
O17 O 0.07953(7) 0.41844(19) 0.83108(8)
O18 O 0.07992(8) 0.5445(2) 0.82940(9)
O19 O 0.10113(7) 0.80334(18) 0.93925(8)
O20 O 0.14227(8) 0.78714(18) 0.96669(8)
O21 O 0.15685(8) 0.53886(19) 1.02381(8)
O22 O 0.12217(8) 0.45095(19) 1.01803(8)
O23 O 0.07098(7) 0.4679(2) 0.90220(8)
O24 O 0.05063(8) 0.58122(19) 0.89348(8)
O25 O 0.16532(8) 1.17224(19) 0.93665(9)
O26 O 0.02294(8) 0.3731(2) 0.91305(9)
O27 O 0.02660(14) 0.5823(6) 0.79421(18)
O28 O 0.19530(11) 0.6177(3) 0.74877(11)
C44 C 0.0645(3) 0.7097(10) 0.8196(4)
N3 N 0.0789(5) 0.7815(11) 0.8154(6)
C45 C 0.1069(3) 0.7915(7) 0.7977(9)
C46 C 0.0109(4) 0.2953(16) 0.9239(5)
C1I C 0.11882(12) 1.2615(3) 1.04550(11)
C4B C 0.17430(10) 0.6155(3) 0.59864(11)
C5B C 0.20505(10) 0.6608(3) 0.64726(11)
H7B H 0.1883 0.6804 0.6572
C6B C 0.22859(10) 0.5975(3) 0.60072(10)
H8B H 0.2275 0.5741 0.5796
C7I C 0.12063(11) 1.0568(3) 1.01768(11)
C8B C 0.28295(10) 0.5815(3) 0.59943(11)
C9A C -0.03200(10) 0.4470(3) 0.86358(11)
C10A C -0.08131(10) 0.3620(3) 0.87892(11)
H9A H -0.0978 0.3338 0.8840
C11A C -0.08161(9) 0.4397(2) 0.88386(11)
C12A C -0.05548(10) 0.2433(3) 0.86460(12)
C13I C 0.12666(11) 1.1339(3) 1.01919(11)
H10I H 0.1402 1.1549 1.0044
C14B C 0.17092(14) 0.8805(4) 0.73692(14)
C15A C -0.00584(10) 0.4940(3) 0.85688(12)
C16B C 0.25692(10) 0.6416(3) 0.64822(10)
H11B H 0.2748 0.6465 0.6591
C17I C 0.10104(10) 1.0255(3) 1.04100(11)
H12I H 0.0970 0.9743 1.0403
C18B C 0.20319(10) 0.6237(3) 0.61660(11)
C19B C 0.15908(12) 0.2860(3) 0.58776(16)
H13B H 0.1608 0.3063 0.6094
C20B C 0.23400(12) 0.7092(3) 0.69732(12)
C21I C 0.11239(11) 1.1795(3) 1.04287(11)
C22B C 0.23177(10) 0.6689(3) 0.66347(11)
C23B C 0.25531(9) 0.6067(3) 0.61660(10)
C24A C -0.03161(10) 0.3687(3) 0.85864(11)
H14A H -0.0150 0.3453 0.8503
C25B C 0.13470(11) 1.0875(3) 0.69927(12)
H15B H 0.1273 1.1321 0.6904
C26I C 0.08769(11) 1.0705(3) 1.06518(11)
C27I C 0.09235(11) 1.1467(3) 1.06547(11)
H16I H 0.0822 1.1769 1.0807
C28I C 0.06797(11) 1.0368(3) 1.09198(12)
C29I C 0.13421(10) 1.0113(3) 0.98982(11)
C30B C 0.17226(12) 1.0215(3) 0.72965(13)
H17B H 0.1897 1.0220 0.7418
C31A C -0.05648(9) 0.3262(3) 0.86641(11)
C32A C -0.05693(10) 0.4810(3) 0.87610(11)
H18A H -0.0571 0.5328 0.8794
C33A C -0.10766(10) 0.4761(3) 0.89955(11)
C34B C 0.13058(10) 0.9535(3) 0.70870(12)
H19B H 0.1201 0.9089 0.7066
C35B C 0.09037(11) 1.0192(3) 0.67692(12)
C36B C 0.11914(10) 1.0211(3) 0.69526(12)
C37B C 0.16153(12) 1.0883(3) 0.71646(14)
C38B C 0.17835(15) 1.1606(4) 0.72016(19)
C39B C 0.15751(11) 0.9538(3) 0.72508(13)
C40B C 0.14422(16) 0.1718(4) 0.6167(2)
H20B H 0.1251 0.1498 0.6151
H21B H 0.1585 0.1327 0.6191
H22B H 0.1451 0.2045 0.6360
C41B C 0.1489(4) 0.1785(6) 0.5527(3)
H23B H 0.1654 0.1457 0.5501
H24B H 0.1312 0.1496 0.5512
H25B H 0.1491 0.2157 0.5350
C43B C 0.0807(3) 0.6763(6) 0.6531(3)
Co1B Co 0.129514(13) 0.60768(3) 0.561533(14)
Co1I Co 0.129514(13) 0.39232(3) 1.061533(14)
Co1I_2 Co 0.129514(13) 1.39232(3) 1.061533(14)
Co1A Co -0.129514(13) 0.60768(3) 0.938467(14)
Co2B Co 0.169560(13) 0.44624(3) 0.572180(14)
Co2E Co 0.330440(13) 0.94624(3) 0.927820(14)
Co2I Co 0.169560(13) 0.55376(3) 1.072180(14)
Co2G Co 0.330440(13) 0.55376(3) 0.572180(14)
Co2A Co -0.169560(13) 0.44624(3) 0.927820(14)
Co4B Co 0.050391(13) 1.10530(3) 0.629915(15)
Co4A Co -0.050391(13) 1.10530(3) 0.870085(15)
Co4_2 Co 0.050391(13) 1.39470(3) 0.870085(15)
Co4I Co 0.050391(13) 0.89470(3) 1.129915(15)
Co4A_2 Co -0.050391(13) 0.10530(3) 0.870085(15)
Co5E Co 0.22150(2) 0.2500 0.7500
Co5E_2 Co 0.22150(2) 1.2500 0.7500
Co6B Co 0.039181(14) 0.92945(4) 0.656256(17)
Co6A Co -0.039181(14) 0.92945(4) 0.843744(17)
Co6I Co 0.039181(14) 1.07055(4) 1.156256(17)
N1B N 0.15030(13) 0.2154(3) 0.58548(16)
O1A O -0.13013(7) 0.43693(18) 0.90468(9)
O1B O 0.13013(7) 0.43693(18) 0.59532(9)
O2B O 0.0408(3) 0.8143(4) 0.6690(3)
O3A O -0.10494(7) 0.54387(19) 0.90743(9)
O3B O 0.10494(7) 0.54387(19) 0.59257(9)
O4A O -0.00711(7) 0.5640(2) 0.85855(11)
O4C O -0.00711(7) 0.9360(2) 0.64145(11)
O5A O 0.01862(6) 0.46320(17) 0.84846(7)
O5C O 0.01862(6) 1.03680(17) 0.65154(7)
O6A O -0.07355(7) 0.20545(17) 0.88208(8)
O6_2 O 0.07355(7) 0.29455(17) 0.88208(8)
O6B O 0.07355(7) 1.20545(17) 0.61792(8)
O7A O -0.03612(6) 0.21000(18) 0.84697(7)
O7_2 O 0.03612(6) 0.29000(18) 0.84697(7)
O7B O 0.03612(6) 1.21000(18) 0.65303(7)
O8B O 0.15373(7) 0.6573(2) 0.60627(8)
O9B O 0.17183(6) 0.56713(17) 0.57465(7)
O10B O 0.28304(7) 0.56697(18) 0.56775(7)
O10E O 0.21696(7) 1.06697(18) 0.93225(7)
O10G O 0.21696(7) 0.43303(18) 0.56775(7)
O11B O 0.30618(6) 0.57716(19) 0.61645(7)
O11E O 0.19382(6) 1.07716(19) 0.88355(7)
O11G O 0.19382(6) 0.42284(19) 0.61645(7)
O12B O 0.25706(8) 0.6998(2) 0.71344(8)
O13B O 0.21254(8) 0.7482(2) 0.70639(8)
O14B O 0.15798(10) 0.8212(3) 0.73194(15)
O15B O 0.20273(8) 1.1562(3) 0.73550(9)
O15E O 0.29727(8) 0.6562(3) 0.76450(9)
O15G O 0.29727(8) 0.8438(3) 0.73550(9)
O16B O 0.16857(14) 1.2188(3) 0.70808(17)
O17B O 0.07953(7) 1.08156(19) 0.66892(8)
O18B O 0.07992(8) 0.9555(2) 0.67060(9)
O19I O 0.10113(7) 1.30334(18) 1.06075(8)
O19B O 0.10113(7) 0.69666(18) 0.56075(8)
O20I O 0.14227(8) 1.28714(18) 1.03331(8)
O20B O 0.14227(8) 0.71286(18) 0.53331(8)
O21I O 0.15685(8) 1.03886(19) 0.97619(8)
O21K O 0.15685(8) 0.46114(19) 0.52381(8)
O22I O 0.12217(8) 0.95095(19) 0.98197(8)
O22K O 0.12217(8) 0.54905(19) 0.51803(8)
O23I O 0.07098(7) 0.9679(2) 1.09780(8)
O23B O 0.07098(7) 1.0321(2) 0.59780(8)
O24I O 0.05063(8) 1.08122(19) 1.10652(8)
O24B O 0.05063(8) 0.91878(19) 0.60652(8)
O25B O 0.16532(8) 0.32776(19) 0.56335(9)
O26B O 0.02294(8) 1.1269(2) 0.58695(9)
O27B O 0.02660(14) 0.9177(6) 0.70579(18)
O28B O 0.19530(11) 0.8823(3) 0.75123(11)
C44B C 0.0645(3) 0.7903(10) 0.6804(4)
N3B N 0.0789(5) 0.7185(11) 0.6846(6)
C45B C 0.1069(3) 0.7085(7) 0.7023(9)
C46B C 0.0109(4) 1.2047(16) 0.5761(5)
loop_
_geom_bond_atom_site_label_1
_geom_bond_atom_site_label_2
_geom_bond_site_symmetry_1
_geom_bond_site_symmetry_2
C1 C21 1_555 1_555
C2 H1 1_555 1_555
H2 C2 1_555 1_555
H3 C2 1_555 1_555
C3 H4 1_555 1_555
H5 C3 1_555 1_555
H6 C3 1_555 1_555
C4 C18 1_555 1_555
C5 H7 1_555 1_555
C6 H8 1_555 1_555
C7 C13 1_555 1_555
C8 C23 1_555 1_555
C9 C15 1_555 1_555
C10 H9 1_555 1_555
C11 C10 1_555 1_555
C12 C31 1_555 1_555
C13 H10 1_555 1_555
C14 C39 1_555 1_555
C15 O4 1_555 1_555
C16 H11 1_555 1_555
C17 C7 1_555 1_555
H12 C17 1_555 1_555
C18 C5 1_555 1_555
C19 H13 1_555 1_555
C20 C22 1_555 1_555
C21 C13 1_555 1_555
C22 C5 1_555 1_555
C23 C6 1_555 1_555
C24 C9 1_555 1_555
H14 C24 1_555 1_555
C25 H15 1_555 1_555
C26 C17 1_555 1_555
C27 C21 1_555 1_555
H16 C27 1_555 1_555
C28 C26 1_555 1_555
C29 C7 1_555 1_555
C30 H17 1_555 1_555
C31 C10 1_555 1_555
C32 C9 1_555 1_555
H18 C32 1_555 1_555
C33 C11 1_555 1_555
C34 H19 1_555 1_555
C35 C36 1_555 1_555
C36 C25 1_555 1_555
C37 C25 1_555 1_555
C38 C37 1_555 1_555
C39 C30 1_555 1_555
C40 H20 1_555 1_555
H21 C40 1_555 1_555
H22 C40 1_555 1_555
C41 H23 1_555 1_555
H24 C41 1_555 1_555
H25 C41 1_555 1_555
C42 H26 1_555 1_555
C43 N3 1_555 1_555
Co1 O3 1_555 1_555
Co2 O1 1_555 1_555
Co3 O13 1_555 1_555
Co4 O17 1_555 1_555
Co5 O12 1_555 1_555
Co6 O2 1_555 1_555
N1 C19 1_555 1_555
N2 C2 1_555 1_555
O1 C33 1_555 1_555
O2 C44 1_555 1_555
O3 C33 1_555 1_555
O4 Co6A 1_555 1_555
O5 C15 1_555 1_555
O6 C12 1_555 1_555
O7 C12 1_555 1_555
O8 C4 1_555 1_555
O9 C4 1_555 1_555
O10 C8 1_555 1_555
O11 C8 1_555 1_555
O12 C20 1_555 1_555
O13 C20 1_555 1_555
O14 C14 1_555 1_555
O15 C38 1_555 1_555
O16 C38 1_555 1_555
O17 C35 1_555 1_555
O18 C35 1_555 1_555
O19 C1 1_555 1_555
O20 C1 1_555 1_555
O21 C29 1_555 1_555
O22 C29 1_555 1_555
O23 C28 1_555 1_555
O24 C28 1_555 1_555
O25 C19 1_555 1_555
O26 Co4 1_555 1_555
O27 Co6 1_555 1_555
O28 C14 1_555 1_555
O29 C42 1_555 1_555
C44 N3 1_555 1_555
N3 C45 1_555 1_555
C46 O26 1_555 1_555
C1I C21I 1_555 1_555
C4B C18B 1_555 1_555
C5B H7B 1_555 1_555
C6B H8B 1_555 1_555
C7I C13I 1_555 1_555
C8B C23B 1_555 1_555
C9A C15A 1_555 1_555
C10A H9A 1_555 1_555
C11A C10A 1_555 1_555
C12A C31A 1_555 1_555
C13I H10I 1_555 1_555
C14B C39B 1_555 1_555
C15A O4A 1_555 1_555
C16B H11B 1_555 1_555
C17I C7I 1_555 1_555
H12I C17I 1_555 1_555
C18B C5B 1_555 1_555
C19B H13B 1_555 1_555
C20B C22B 1_555 1_555
C21I C13I 1_555 1_555
C22B C5B 1_555 1_555
C23B C6B 1_555 1_555
C24A C9A 1_555 1_555
H14A C24A 1_555 1_555
C25B H15B 1_555 1_555
C26I C17I 1_555 1_555
C27I C21I 1_555 1_555
H16I C27I 1_555 1_555
C28I C26I 1_555 1_555
C29I C7I 1_555 1_555
C30B H17B 1_555 1_555
C31A C10A 1_555 1_555
C32A C9A 1_555 1_555
H18A C32A 1_555 1_555
C33A C11A 1_555 1_555
C34B H19B 1_555 1_555
C35B C36B 1_555 1_555
C36B C25B 1_555 1_555
C37B C25B 1_555 1_555
C38B C37B 1_555 1_555
C39B C30B 1_555 1_555
C40B H20B 1_555 1_555
H21B C40B 1_555 1_555
H22B C40B 1_555 1_555
C41B H23B 1_555 1_555
H24B C41B 1_555 1_555
H25B C41B 1_555 1_555
C43B N3B 1_555 1_555
Co1B O3B 1_555 1_555
Co1I O22 1_555 1_555
Co1I_2 O19I 1_555 1_555
Co1A O3A 1_555 1_555
Co2B O1B 1_555 1_555
Co2E O10 1_555 1_555
Co2I O21 1_555 1_555
Co2G O10B 1_555 1_555
Co2A O1A 1_555 1_555
Co4B O5C 1_555 1_555
Co4A O5 1_555 1_555
Co4_2 O6 1_555 1_555
Co4I O23I 1_555 1_555
Co4A_2 O6A 1_555 1_555
Co5E O15 1_555 1_555
Co5E_2 O15B 1_555 1_555
Co6B O2B 1_555 1_555
Co6A O5 1_555 1_555
Co6I O24I 1_555 1_555
N1B C19B 1_555 1_555
O1A C33A 1_555 1_555
O2B C44B 1_555 1_555
O3A C33A 1_555 1_555
O4A Co6 1_555 1_555
O4C Co6B 1_555 1_555
O5A Co4 1_555 1_555
O5C Co6B 1_555 1_555
O6A C12A 1_555 1_555
O6_2 Co4 1_555 1_555
O6B Co4B 1_555 1_555
O7A C12A 1_555 1_555
O7_2 Co4 1_555 1_555
O7B Co4B 1_555 1_555
O8B C4B 1_555 1_555
O9B C4B 1_555 1_555
O10B C8B 1_555 1_555
O10E Co2 1_555 1_555
O10G Co2B 1_555 1_555
O11B C8B 1_555 1_555
O11E Co2 1_555 1_555
O11G Co2B 1_555 1_555
O12B Co5 1_555 1_555
O13B Co3 1_555 1_555
O14B Co3 1_555 1_555
O15B C38B 1_555 1_555
O15E Co5 1_555 1_555
O15G Co5 1_555 1_555
O16B C38B 1_555 1_555
O17B C35B 1_555 1_555
O18B C35B 1_555 1_555
O19I C1I 1_555 1_555
O19B Co1B 1_555 1_555
O20I C1I 1_555 1_555
O20B Co1B 1_555 1_555
O21I Co2 1_555 1_555
O21K Co2B 1_555 1_555
O22I Co1 1_555 1_555
O22K Co1B 1_555 1_555
O23I C28I 1_555 1_555
O23B Co4B 1_555 1_555
O24I C28I 1_555 1_555
O24B Co6B 1_555 1_555
O25B C19B 1_555 1_555
O26B Co4B 1_555 1_555
O27B Co6B 1_555 1_555
O28B C14B 1_555 1_555
C44B N3B 1_555 1_555
N3B C45B 1_555 1_555
C46B O26B 1_555 1_555
C3 N2 1_555 1_555
C6 C18 1_555 1_555
C11 C32 1_555 1_555
C16 C22 1_555 1_555
C16 C23 1_555 1_555
C24 C31 1_555 1_555
C26 C27 1_555 1_555
C30 C37 1_555 1_555
C34 C36 1_555 1_555
C34 C39 1_555 1_555
C40 N1 1_555 1_555
C41 N1 1_555 1_555
C42 N2 1_555 1_555
Co1 O8 1_555 1_555
Co1 O9 1_555 1_555
Co1 O19 1_555 1_555
Co1 O20 1_555 1_555
Co2 O9 1_555 1_555
Co2 O25 1_555 1_555
Co3 O14 1_555 1_555
Co4 O23 1_555 1_555
Co6 O18 1_555 1_555
Co6 O24 1_555 1_555
Co6 O5A 1_555 1_555
O7 Co4_2 1_555 1_555
O11 Co2E 1_555 1_555
C6B C18B 1_555 1_555
C11A C32A 1_555 1_555
C14B O14B 1_555 1_555
C15A O5A 1_555 1_555
C16B C22B 1_555 1_555
C16B C23B 1_555 1_555
C20B O12B 1_555 1_555
C20B O13B 1_555 1_555
C24A C31A 1_555 1_555
C26I C27I 1_555 1_555
C29I O21I 1_555 1_555
C29I O22I 1_555 1_555
C30B C37B 1_555 1_555
C34B C36B 1_555 1_555
C34B C39B 1_555 1_555
C40B N1B 1_555 1_555
C41B N1B 1_555 1_555
Co1B O8B 1_555 1_555
Co1B O9B 1_555 1_555
Co1I_2 O20I 1_555 1_555
Co2B O9B 1_555 1_555
Co2B O25B 1_555 1_555
Co2G O11B 1_555 1_555
Co4B O17B 1_555 1_555
Co4A_2 O7A 1_555 1_555
Co6B O18B 1_555 1_555

#END
