
#######################################################################
#
#                 Cambridge Crystallographic Data Centre
#                                CCDC 
#
#######################################################################
#
# If this CIF has been generated from an entry in the Cambridge 
# Structural Database, then it will include bibliographic, chemical, 
# crystal, experimental, refinement or atomic coordinate data resulting 
# from the CCDC's data processing and validation procedures.
#
#######################################################################

data_DUVNIS01
_symmetry_cell_setting           orthorhombic
_symmetry_space_group_name_H-M   'C c c a'
_symmetry_Int_Tables_number      68
_space_group_name_Hall           '-C 2a 2ac'
loop_
_symmetry_equiv_pos_site_id
_symmetry_equiv_pos_as_xyz
1 x,y,z
2 -x,1/2-y,z
3 x,1/2-y,1/2-z
4 -x,y,1/2-z
5 1/2+x,1/2+y,z
6 1/2-x,-y,z
7 1/2+x,-y,1/2-z
8 1/2-x,1/2+y,1/2-z
9 -x,-y,-z
10 x,1/2+y,-z
11 -x,1/2+y,1/2+z
12 x,-y,1/2+z
13 1/2-x,1/2-y,-z
14 1/2+x,y,-z
15 1/2-x,y,1/2+z
16 1/2+x,1/2-y,1/2+z
_cell_length_a                   45.832(9)
_cell_length_b                   17.780(4)
_cell_length_c                   39.386(8)
_cell_angle_alpha                90
_cell_angle_beta                 90
_cell_angle_gamma                90
_cell_volume                     32095.4
loop_
_atom_site_label
_atom_site_type_symbol
_atom_site_fract_x
_atom_site_fract_y
_atom_site_fract_z
O26 O 0.0000 0.2500 0.7922(8)
H15 H -0.0064 0.2947 0.7911
H15A H 0.0064 0.2053 0.7911
O27 O 0.4093(10) 0.738(2) 0.7728(12)
H16 H 0.3927 0.7301 0.7651
O28 O -0.0200(5) 0.726(3) 0.9090(5)
H18 H -0.0234 0.6867 0.9203
C43 C 0.38937(10) 0.9680(4) 0.79480(10)
H34 H 0.3970 1.0163 0.7930
C44 C 0.35021(10) 1.0261(3) 0.82288(9)
H35 H 0.3612 1.0694 0.8158
H36 H 0.3496 1.0242 0.8472
H37 H 0.3307 1.0294 0.8141
C45 C 0.35067(9) 0.8857(3) 0.81395(9)
H38 H 0.3592 0.8511 0.7981
H39 H 0.3301 0.8896 0.8096
H40 H 0.3537 0.8678 0.8367
N3 N 0.36409(10) 0.9587(3) 0.81006(9)
O31 O 0.40336(10) 0.9147(4) 0.78276(10)
C46 C 0.22649(17) 0.9261(5) 0.0958(2)
H41 H 0.2229 0.9656 0.1107
C47 C 0.22513(16) 0.8488(5) 0.14526(18)
H42 H 0.2436 0.8357 0.1551
H43 H 0.2113 0.8092 0.1495
H44 H 0.2182 0.8947 0.1552
C48 C 0.23401(16) 0.7955(5) 0.08685(19)
H45 H 0.2190 0.7584 0.0899
H46 H 0.2527 0.7740 0.0922
H47 H 0.2340 0.8123 0.0637
N4 N 0.22847(16) 0.8588(5) 0.10908(19)
O32 O 0.22889(18) 0.9420(6) 0.0654(2)
C49 C 0.03205(18) 0.4801(7) -0.0176(2)
H48 H 0.0268 0.5159 -0.0337
C50 C 0.03879(17) 0.5823(6) 0.0220(2)
H49 H 0.0585 0.6000 0.0243
H50 H 0.0287 0.5887 0.0431
H51 H 0.0290 0.6105 0.0046
C51 C 0.04739(17) 0.4494(6) 0.0386(2)
H52 H 0.0354 0.4563 0.0584
H53 H 0.0675 0.4568 0.0446
H54 H 0.0448 0.3993 0.0300
N5 N 0.03906(17) 0.5033(6) 0.0129(2)
O33 O 0.03203(18) 0.4128(7) -0.0263(2)
C52 C 0.16109(18) 0.1550(5) 0.14536(18)
H55 H 0.1716 0.1853 0.1602
C53 C 0.20359(19) 0.0757(5) 0.14286(19)
H56 H 0.2170 0.1040 0.1292
H57 H 0.2067 0.0229 0.1392
H58 H 0.2067 0.0872 0.1664
C54 C 0.1584(2) 0.0462(6) 0.11046(19)
H59 H 0.1397 0.0340 0.1199
H60 H 0.1695 0.0009 0.1071
H61 H 0.1558 0.0713 0.0891
N6 N 0.17393(19) 0.0952(5) 0.13356(19)
O35 O 0.13598(18) 0.1745(5) 0.13836(19)
C56 C 0.04928(17) 0.7481(6) 0.0104(2)
H65 H 0.0354 0.7712 0.0258
H66 H 0.0605 0.7878 -0.0003
C57 C 0.06945(17) 0.6969(6) 0.0300(2)
H67 H 0.0596 0.6789 0.0500
H68 H 0.0866 0.7242 0.0366
H69 H 0.0749 0.6550 0.0160
O36 O 0.03338(18) 0.7051(6) -0.0159(2)
H73 H 0.0217 0.6767 -0.0068
Co1 Co 0.12952(2) 0.39231(6) 1.06154(2)
Co2 Co 0.19024(3) 0.2500 1.2500
Co3 Co 0.05041(2) 0.60531(6) 1.37009(2)
Co4 Co 0.03919(2) 0.42936(6) 1.34373(3)
Co5 Co 0.27852(3) 0.2500 1.2500
Co6 Co 0.16956(2) 0.55371(6) 1.07215(2)
C1 C 0.20302(16) 0.3767(4) 1.11645(19)
C2 C 0.20493(17) 0.3393(4) 1.14738(19)
H1 H 0.1882 0.3196 1.1574
C3 C 0.23171(17) 0.3314(5) 1.16335(19)
C4 C 0.25713(16) 0.3585(5) 1.14810(18)
H2 H 0.2751 0.3532 1.1589
C5 C 0.25531(16) 0.3934(4) 1.11661(18)
C6 C 0.22838(16) 0.4025(4) 1.10069(18)
H3 H 0.2273 0.4257 1.0796
C7 C 0.17440(16) 0.3842(4) 1.09866(19)
C8 C 0.23420(19) 0.2912(5) 1.1973(2)
C9 C 0.28288(16) 0.4181(4) 1.09931(18)
C10 C 0.15764(19) 0.4539(6) 1.2750(2)
C11 C 0.13061(17) 0.4542(5) 1.2915(2)
H4 H 0.1202 0.4096 1.2938
C12 C 0.11928(17) 0.5210(5) 1.3045(2)
C13 C 0.13477(19) 0.5876(5) 1.3007(2)
H5 H 0.1273 0.6321 1.3095
C14 C 0.1615(2) 0.5883(6) 1.2837(3)
C15 C 0.17223(19) 0.5217(6) 1.2704(2)
H6 H 0.1896 0.5223 1.2581
C16 C 0.1711(2) 0.3813(7) 1.2632(2)
C17 C 0.09046(17) 0.5198(5) 1.3229(2)
C18 C 0.1781(2) 0.6620(7) 1.2798(3)
C19 C 0.08773(19) 0.0707(5) 1.0651(2)
C20 C 0.09237(18) 0.1471(4) 1.06532(19)
H7 H 0.0821 0.1774 1.0804
C21 C 0.11253(19) 0.1795(4) 1.04296(19)
C22 C 0.12664(18) 0.1345(5) 1.0195(2)
H8 H 0.1403 0.1557 1.0049
C23 C 0.12051(19) 0.0564(5) 1.01737(19)
C24 C 0.10102(17) 0.0252(4) 1.04108(18)
H9 H 0.0970 -0.0260 1.0406
C25 C 0.06804(18) 0.0363(5) 1.0917(2)
C26 C 0.1188(2) 0.2616(5) 1.0454(2)
C27 C 0.13400(17) 0.0121(4) 0.98998(19)
C28 C 0.08163(16) 0.5605(4) 1.11612(19)
C29 C 0.05695(16) 0.5188(5) 1.12407(19)
H10 H 0.0571 0.4670 1.1210
C30 C 0.03215(16) 0.5533(4) 1.13645(19)
C31 C 0.03186(17) 0.6314(5) 1.1414(2)
H11 H 0.0152 0.6548 1.1499
C32 C 0.05636(16) 0.6737(4) 1.13360(19)
C33 C 0.08103(16) 0.6384(4) 1.12106(18)
H12 H 0.0974 0.6669 1.1158
C34 C 0.10784(17) 0.5243(4) 1.10041(19)
C35 C 0.00584(16) 0.5061(5) 1.1434(2)
C36 C 0.05563(16) 0.7571(5) 1.13529(19)
O1 O 0.17190(11) 0.4330(3) 1.07465(12)
O2 O 0.15379(12) 0.3425(3) 1.10606(15)
O3 O 0.21249(15) 0.2516(3) 1.20641(14)
O4 O 0.25713(14) 0.2998(4) 1.21330(14)
O5 O 0.30610(11) 0.4228(3) 1.11648(13)
O6 O 0.28309(11) 0.4331(3) 1.06778(12)
O7 O 0.19502(19) 0.3816(5) 1.2488(2)
O8 O 0.15830(16) 0.3221(5) 1.2681(3)
O9 O 0.07999(14) 0.4558(4) 1.32939(17)
O10 O 0.07941(12) 0.5816(3) 1.33118(15)
O11 O 0.1685(2) 0.7190(5) 1.2915(3)
O12 O 0.20281(14) 0.6563(5) 1.26473(17)
O13 O 0.07100(13) -0.0327(3) 1.09783(14)
O14 O 0.05062(13) 0.0810(3) 1.10684(15)
O15 O 0.10090(13) 0.3031(3) 1.06067(14)
O16 O 0.14253(14) 0.2873(3) 1.03331(14)
O17 O 0.15684(13) 0.0384(3) 0.97623(14)
O18 O 0.12214(13) -0.0492(3) 0.98198(14)
O19 O 0.10487(12) 0.4556(3) 1.09267(16)
O20 O 0.13007(11) 0.5629(3) 1.09525(16)
O21 O 0.00707(12) 0.4355(3) 1.1418(2)
O22 O -0.01854(10) 0.5374(3) 1.15174(13)
O23 O 0.03600(11) 0.7900(3) 1.15306(13)
O24 O 0.07354(12) 0.7943(3) 1.11799(14)
O25 O 0.02279(14) 0.6271(4) 1.41282(16)
H13 H 0.0159 0.6694 1.4112
H14 H 0.0333 0.6234 1.4302
C37 C 0.06637(7) 0.2881(3) 1.31844(8)
H20 H 0.0712 0.3206 1.3008
C38 C 0.10717(7) 0.2121(2) 1.29704(8)
H21 H 0.1252 0.2133 1.3095
H22 H 0.1044 0.1629 1.2874
H23 H 0.1078 0.2488 1.2792
C39 C 0.07725(7) 0.1758(2) 1.34631(8)
H24 H 0.0632 0.1396 1.3385
H25 H 0.0950 0.1504 1.3525
H26 H 0.0696 0.2018 1.3657
C40 C 0.15909(8) 0.7136(2) 1.08765(9)
H27 H 0.1608 0.6933 1.1093
C41 C 0.14849(8) 0.8206(2) 1.05303(9)
H28 H 0.1475 0.7834 1.0354
H29 H 0.1654 0.8514 1.0497
H30 H 0.1313 0.8514 1.0523
C42 C 0.14427(8) 0.8274(2) 1.11628(10)
H31 H 0.1285 0.8618 1.1121
H32 H 0.1614 0.8552 1.1227
H33 H 0.1390 0.7937 1.1343
C55 C 0.02375(9) 0.4940(3) 1.23456(9)
H62 H 0.0225 0.4778 1.2114
H63 H 0.0065 0.5218 1.2404
H64 H 0.0406 0.5256 1.2374
C58 C 0.02642(8) 0.4257(3) 1.25768(9)
H70 H 0.0444 0.4017 1.2506
H71 H 0.0109 0.3923 1.2502
N1 N 0.08323(7) 0.2290(2) 1.31972(8)
N2 N 0.15033(8) 0.7841(2) 1.08532(9)
O29 O 0.04533(7) 0.3104(3) 1.33556(8)
O30 O 0.16527(8) 0.6720(2) 1.06333(9)
O34 O 0.02640(8) 0.4184(3) 1.29477(9)
H72 H 0.0285 0.3694 1.2994
Co1B Co 0.12952(2) 0.10769(6) 1.43846(2)
Co1I Co 0.12952(2) -0.10769(6) 0.93846(2)
Co1I_2 Co 0.12952(2) 0.89231(6) 0.93846(2)
Co1C Co -0.12952(2) 0.39231(6) 1.43846(2)
Co3B Co 0.05041(2) -0.10531(6) 1.12991(2)
Co3C Co -0.05041(2) 0.60531(6) 1.12991(2)
Co3B_2 Co 0.05041(2) 0.89469(6) 1.12991(2)
Co3K Co 0.05041(2) 0.39469(6) 0.87009(2)
Co3A Co -0.05041(2) 0.89469(6) 1.37009(2)
Co4B Co 0.03919(2) 0.07064(6) 1.15627(3)
Co4C Co -0.03919(2) 0.42936(6) 1.15627(3)
Co4K Co 0.03919(2) 0.57064(6) 0.84373(3)
Co5E Co 0.22148(3) 0.7500 1.2500
Co5E_2 Co 0.22148(3) -0.2500 1.2500
Co6B Co 0.16956(2) -0.05371(6) 1.42785(2)
Co6E Co 0.33044(2) 0.44629(6) 1.07215(2)
Co6I Co 0.16956(2) 0.05371(6) 0.92785(2)
Co6G Co 0.33044(2) 0.05371(6) 1.42785(2)
Co6C Co -0.16956(2) 0.55371(6) 1.42785(2)
C1B C 0.20302(16) 0.1233(4) 1.38355(19)
C2B C 0.20493(17) 0.1607(4) 1.35262(19)
H1B H 0.1882 0.1804 1.3426
C3B C 0.23171(17) 0.1686(5) 1.33665(19)
C4B C 0.25713(16) 0.1415(5) 1.35190(18)
H2B H 0.2751 0.1468 1.3411
C5B C 0.25531(16) 0.1066(4) 1.38339(18)
C6B C 0.22838(16) 0.0975(4) 1.39931(18)
H3B H 0.2273 0.0743 1.4204
C7B C 0.17440(16) 0.1158(4) 1.40134(19)
C8B C 0.23420(19) 0.2088(5) 1.3027(2)
C9B C 0.28288(16) 0.0819(4) 1.40069(18)
C10B C 0.15764(19) 0.0461(6) 1.2250(2)
C11B C 0.13061(17) 0.0458(5) 1.2085(2)
H4B H 0.1202 0.0904 1.2062
C12B C 0.11928(17) -0.0210(5) 1.1955(2)
C13B C 0.13477(19) -0.0876(5) 1.1993(2)
H5B H 0.1273 -0.1321 1.1905
C14B C 0.1615(2) -0.0883(6) 1.2163(3)
C15B C 0.17223(19) -0.0217(6) 1.2296(2)
H6B H 0.1896 -0.0223 1.2419
C16B C 0.1711(2) 0.1187(7) 1.2368(2)
C17B C 0.09046(17) -0.0198(5) 1.1771(2)
C18B C 0.1781(2) -0.1620(7) 1.2202(3)
C19I C 0.08773(19) 0.5707(5) 0.9349(2)
C20I C 0.09237(18) 0.6471(4) 0.93468(19)
H7I H 0.0821 0.6774 0.9196
C21I C 0.11253(19) 0.6795(4) 0.95704(19)
C22I C 0.12664(18) 0.6345(5) 0.9805(2)
H8I H 0.1403 0.6557 0.9951
C23I C 0.12051(19) 0.5564(5) 0.98263(19)
C24I C 0.10102(17) 0.5252(4) 0.95892(18)
H9I H 0.0970 0.4740 0.9594
C25I C 0.06804(18) 0.5363(5) 0.9083(2)
C26I C 0.1188(2) 0.7616(5) 0.9546(2)
C27I C 0.13400(17) 0.5121(4) 1.01002(19)
C28C C -0.08163(16) 0.5605(4) 1.38388(19)
C29C C -0.05695(16) 0.5188(5) 1.37593(19)
H10C H -0.0571 0.4670 1.3790
C30C C -0.03215(16) 0.5533(4) 1.36355(19)
C31C C -0.03186(17) 0.6314(5) 1.3586(2)
H11C H -0.0152 0.6548 1.3501
C32C C -0.05636(16) 0.6737(4) 1.36640(19)
C33C C -0.08103(16) 0.6384(4) 1.37894(18)
H12C H -0.0974 0.6669 1.3842
C34C C -0.10784(17) 0.5243(4) 1.39959(19)
C35C C -0.00584(16) 0.5061(5) 1.3566(2)
C36C C -0.05563(16) 0.7571(5) 1.36471(19)
O1B O 0.17190(11) 0.0670(3) 1.42535(12)
O2B O 0.15379(12) 0.1575(3) 1.39394(15)
O3B O 0.21249(15) 0.2484(3) 1.29359(14)
O4B O 0.25713(14) 0.2002(4) 1.28670(14)
O5B O 0.30610(11) 0.0772(3) 1.38352(13)
O5E O 0.19390(11) 0.5772(3) 1.11648(13)
O5G O 0.19390(11) -0.0772(3) 1.38352(13)
O6B O 0.28309(11) 0.0669(3) 1.43222(12)
O6E O 0.21691(11) 0.5669(3) 1.06778(12)
O6G O 0.21691(11) -0.0669(3) 1.43222(12)
O7B O 0.19502(19) 0.1184(5) 1.2512(2)
O8B O 0.15830(16) 0.1779(5) 1.2319(3)
O9B O 0.07999(14) 0.0442(4) 1.17061(17)
O10B O 0.07941(12) -0.0816(3) 1.16882(15)
O11B O 0.1685(2) -0.2190(5) 1.2085(3)
O12B O 0.20281(14) -0.1563(5) 1.23527(17)
O12G O 0.29719(14) 0.1563(5) 1.23527(17)
O12E O 0.29719(14) 0.3437(5) 1.26473(17)
O13I O 0.07100(13) 0.4673(3) 0.90217(14)
O13B O 0.07100(13) 0.5327(3) 1.40217(14)
O14I O 0.05062(13) 0.5810(3) 0.89316(15)
O14B O 0.05062(13) 0.4190(3) 1.39316(15)
O15I O 0.10090(13) 0.8031(3) 0.93933(14)
O15B O 0.10090(13) 0.1969(3) 1.43933(14)
O16I O 0.14253(14) 0.7873(3) 0.96669(14)
O16B O 0.14253(14) 0.2127(3) 1.46669(14)
O17I O 0.15684(13) 0.5384(3) 1.02377(14)
O17K O 0.15684(13) -0.0384(3) 1.47623(14)
O18I O 0.12214(13) 0.4508(3) 1.01802(14)
O18K O 0.12214(13) 0.0492(3) 1.48198(14)
O19C O -0.10487(12) 0.4556(3) 1.40733(16)
O19B O 0.10487(12) 0.0444(3) 1.40733(16)
O20C O -0.13007(11) 0.5629(3) 1.40475(16)
O20B O 0.13007(11) -0.0629(3) 1.40475(16)
O21C O -0.00707(12) 0.4355(3) 1.3582(2)
O21A O -0.00707(12) 0.0645(3) 1.1418(2)
O22C O 0.01854(10) 0.5374(3) 1.34826(13)
O22A O 0.01854(10) -0.0374(3) 1.15174(13)
O23C O -0.03600(11) 0.7900(3) 1.34694(13)
O23B O 0.03600(11) 0.7100(3) 1.34694(13)
O23_2 O 0.03600(11) -0.2100(3) 1.15306(13)
O24C O -0.07354(12) 0.7943(3) 1.38201(14)
O24B O 0.07354(12) 0.7057(3) 1.38201(14)
O24_2 O 0.07354(12) -0.2057(3) 1.11799(14)
O25B O 0.02279(14) -0.1271(4) 1.08718(16)
H13B H 0.0159 -0.1694 1.0888
H14B H 0.0333 -0.1234 1.0698
C37B C 0.06637(7) 0.2119(3) 1.18156(8)
H20B H 0.0712 0.1794 1.1992
C38B C 0.10717(7) 0.2879(2) 1.20296(8)
H21B H 0.1252 0.2867 1.1905
H22B H 0.1044 0.3371 1.2126
H23B H 0.1078 0.2512 1.2208
C39B C 0.07725(7) 0.3242(2) 1.15369(8)
H24B H 0.0632 0.3604 1.1615
H25B H 0.0950 0.3496 1.1475
H26B H 0.0696 0.2982 1.1343
C40B C 0.15909(8) -0.2136(2) 1.41235(9)
H27B H 0.1608 -0.1933 1.3907
C41B C 0.14849(8) -0.3206(2) 1.44697(9)
H28B H 0.1475 -0.2834 1.4646
H29B H 0.1654 -0.3514 1.4503
H30B H 0.1313 -0.3514 1.4477
C42B C 0.14427(8) -0.3274(2) 1.38372(10)
H31B H 0.1285 -0.3618 1.3879
H32B H 0.1614 -0.3552 1.3773
H33B H 0.1390 -0.2937 1.3657
C55B C 0.02375(9) 0.0060(3) 1.26544(9)
H62B H 0.0225 0.0222 1.2886
H63B H 0.0065 -0.0218 1.2596
H64B H 0.0406 -0.0256 1.2626
C58B C 0.02642(8) 0.0743(3) 1.24232(9)
H70B H 0.0444 0.0983 1.2494
H71B H 0.0109 0.1077 1.2498
N1B N 0.08323(7) 0.2710(2) 1.18028(8)
N2B N 0.15033(8) -0.2841(2) 1.41468(9)
O29B O 0.04533(7) 0.1896(3) 1.16444(8)
O30B O 0.16527(8) -0.1720(2) 1.43667(9)
O34B O 0.02640(8) 0.0816(3) 1.20523(9)
H72B H 0.0285 0.1306 1.2006
H17? H 0.4203 0.7540 0.7572
H19? H -0.0017 0.7281 0.9058
C59? C 0.24957(9) 0.5349(2) 0.75437(8)
H74? H 0.2309 0.5604 0.7538
H75? H 0.2644 0.5738 0.7554
C60? C 0.24907(8) 0.5072(2) 0.78782(8)
H76? H 0.2589 0.5546 0.7856
H77? H 0.2584 0.4779 0.8052
H78? H 0.2291 0.5156 0.7939
O37? O 0.25298(8) 0.4971(2) 0.72128(8)
H79? H 0.2680 0.4719 0.7214
H80? H -0.0185 0.2465 0.7934
loop_
_geom_bond_atom_site_label_1
_geom_bond_atom_site_label_2
_geom_bond_site_symmetry_1
_geom_bond_site_symmetry_2
Co1 O1 1_555 1_555
Co2 O3 1_555 1_555
Co3 O10 1_555 1_555
Co4 O9 1_555 1_555
Co5 O4 1_555 1_555
Co6 O1 1_555 1_555
C1 C2 1_555 1_555
C2 H1 1_555 1_555
C3 C2 1_555 1_555
C4 C3 1_555 1_555
H2 C4 1_555 1_555
C5 C4 1_555 1_555
C6 C1 1_555 1_555
H3 C6 1_555 1_555
C7 C1 1_555 1_555
C8 C3 1_555 1_555
C9 C5 1_555 1_555
C10 C11 1_555 1_555
C11 H4 1_555 1_555
C12 C11 1_555 1_555
C13 C12 1_555 1_555
H5 C13 1_555 1_555
C14 C13 1_555 1_555
C15 C10 1_555 1_555
H6 C15 1_555 1_555
C16 C10 1_555 1_555
C17 C12 1_555 1_555
C18 C14 1_555 1_555
C19 C20 1_555 1_555
C20 H7 1_555 1_555
C21 C20 1_555 1_555
C22 C21 1_555 1_555
H8 C22 1_555 1_555
C23 C22 1_555 1_555
C24 C19 1_555 1_555
H9 C24 1_555 1_555
C25 C19 1_555 1_555
C26 C21 1_555 1_555
C27 C23 1_555 1_555
C28 C29 1_555 1_555
C29 H10 1_555 1_555
C30 C29 1_555 1_555
C31 C30 1_555 1_555
H11 C31 1_555 1_555
C32 C31 1_555 1_555
C33 C28 1_555 1_555
H12 C33 1_555 1_555
C34 C28 1_555 1_555
C35 C30 1_555 1_555
C36 C32 1_555 1_555
O1 C7 1_555 1_555
O2 Co1 1_555 1_555
O3 C8 1_555 1_555
O4 C8 1_555 1_555
O5 C9 1_555 1_555
O6 C9 1_555 1_555
O7 Co2 1_555 1_555
O8 Co2 1_555 1_555
O9 C17 1_555 1_555
O10 C17 1_555 1_555
O11 C18 1_555 1_555
O12 C18 1_555 1_555
O13 C25 1_555 1_555
O14 C25 1_555 1_555
O15 Co1 1_555 1_555
O16 Co1 1_555 1_555
O17 C27 1_555 1_555
O18 C27 1_555 1_555
O19 Co1 1_555 1_555
O20 Co6 1_555 1_555
O21 C35 1_555 1_555
O22 C35 1_555 1_555
O23 C36 1_555 1_555
O24 C36 1_555 1_555
O25 Co3 1_555 1_555
H13 O25 1_555 1_555
H14 O25 1_555 1_555
O26 H15 1_555 1_555
O27 H16 1_555 1_555
O28 H18 1_555 1_555
C37 H20 1_555 1_555
C38 H21 1_555 1_555
H22 C38 1_555 1_555
H23 C38 1_555 1_555
C39 H24 1_555 1_555
H25 C39 1_555 1_555
H26 C39 1_555 1_555
C40 H27 1_555 1_555
C41 H28 1_555 1_555
H29 C41 1_555 1_555
H30 C41 1_555 1_555
C42 H31 1_555 1_555
H32 C42 1_555 1_555
H33 C42 1_555 1_555
C43 H34 1_555 1_555
C44 H35 1_555 1_555
H36 C44 1_555 1_555
H37 C44 1_555 1_555
C45 H38 1_555 1_555
H39 C45 1_555 1_555
H40 C45 1_555 1_555
C46 H41 1_555 1_555
C47 H42 1_555 1_555
H43 C47 1_555 1_555
H44 C47 1_555 1_555
C48 H45 1_555 1_555
H46 C48 1_555 1_555
H47 C48 1_555 1_555
C49 H48 1_555 1_555
C50 H49 1_555 1_555
H50 C50 1_555 1_555
H51 C50 1_555 1_555
C51 H52 1_555 1_555
H53 C51 1_555 1_555
H54 C51 1_555 1_555
C52 H55 1_555 1_555
C53 H56 1_555 1_555
H57 C53 1_555 1_555
H58 C53 1_555 1_555
C54 H59 1_555 1_555
H60 C54 1_555 1_555
H61 C54 1_555 1_555
C55 H62 1_555 1_555
H63 C55 1_555 1_555
H64 C55 1_555 1_555
C56 H65 1_555 1_555
H66 C56 1_555 1_555
C57 C56 1_555 1_555
H67 C57 1_555 1_555
H68 C57 1_555 1_555
H69 C57 1_555 1_555
C58 C55 1_555 1_555
H70 C58 1_555 1_555
H71 C58 1_555 1_555
N1 C37 1_555 1_555
N2 C40 1_555 1_555
N3 C43 1_555 1_555
N4 C46 1_555 1_555
N5 C49 1_555 1_555
N6 C52 1_555 1_555
O29 Co4 1_555 1_555
O30 Co6 1_555 1_555
O31 C43 1_555 1_555
O32 C46 1_555 1_555
O33 C49 1_555 1_555
O34 Co4 1_555 1_555
H72 O34 1_555 1_555
O35 C52 1_555 1_555
O36 C56 1_555 1_555
H73 O36 1_555 1_555
Co1B O1B 1_555 1_555
Co1I O18 1_555 1_555
Co1I_2 O15I 1_555 1_555
Co1C O19C 1_555 1_555
Co3B O13 1_555 1_555
Co3C O22 1_555 1_555
Co3B_2 O23 1_555 1_555
Co3K O13I 1_555 1_555
Co3A O23C 1_555 1_555
Co4B O14 1_555 1_555
Co4C O21 1_555 1_555
Co4K O14I 1_555 1_555
Co5E O12 1_555 1_555
Co5E_2 O12B 1_555 1_555
Co6B O1B 1_555 1_555
Co6E O5 1_555 1_555
Co6I O17 1_555 1_555
Co6G O5B 1_555 1_555
Co6C O20C 1_555 1_555
C1B C2B 1_555 1_555
C2B H1B 1_555 1_555
C3B C2B 1_555 1_555
C4B C3B 1_555 1_555
H2B C4B 1_555 1_555
C5B C4B 1_555 1_555
C6B C1B 1_555 1_555
H3B C6B 1_555 1_555
C7B C1B 1_555 1_555
C8B C3B 1_555 1_555
C9B C5B 1_555 1_555
C10B C11B 1_555 1_555
C11B H4B 1_555 1_555
C12B C11B 1_555 1_555
C13B C12B 1_555 1_555
H5B C13B 1_555 1_555
C14B C13B 1_555 1_555
C15B C10B 1_555 1_555
H6B C15B 1_555 1_555
C16B C10B 1_555 1_555
C17B C12B 1_555 1_555
C18B C14B 1_555 1_555
C19I C20I 1_555 1_555
C20I H7I 1_555 1_555
C21I C20I 1_555 1_555
C22I C21I 1_555 1_555
H8I C22I 1_555 1_555
C23I C22I 1_555 1_555
C24I C19I 1_555 1_555
H9I C24I 1_555 1_555
C25I C19I 1_555 1_555
C26I C21I 1_555 1_555
C27I C23I 1_555 1_555
C28C C29C 1_555 1_555
C29C H10C 1_555 1_555
C30C C29C 1_555 1_555
C31C C30C 1_555 1_555
H11C C31C 1_555 1_555
C32C C31C 1_555 1_555
C33C C28C 1_555 1_555
H12C C33C 1_555 1_555
C34C C28C 1_555 1_555
C35C C30C 1_555 1_555
C36C C32C 1_555 1_555
O1B C7B 1_555 1_555
O2B Co1B 1_555 1_555
O3B Co2 1_555 1_555
O4B Co5 1_555 1_555
O5B C9B 1_555 1_555
O5E Co6 1_555 1_555
O5G Co6B 1_555 1_555
O6B Co6G 1_555 1_555
O6E Co6 1_555 1_555
O6G Co6B 1_555 1_555
O7B Co2 1_555 1_555
O8B Co2 1_555 1_555
O9B Co4B 1_555 1_555
O10B Co3B 1_555 1_555
O11B C18B 1_555 1_555
O12B C18B 1_555 1_555
O12G Co5 1_555 1_555
O12E Co5 1_555 1_555
O13I C25I 1_555 1_555
O13B Co3 1_555 1_555
O14I C25I 1_555 1_555
O14B Co4 1_555 1_555
O15I C26I 1_555 1_555
O15B Co1B 1_555 1_555
O16I Co1I_2 1_555 1_555
O16B Co1B 1_555 1_555
O17I Co6 1_555 1_555
O17K Co6B 1_555 1_555
O18I Co1 1_555 1_555
O18K Co1B 1_555 1_555
O19C C34C 1_555 1_555
O19B Co1B 1_555 1_555
O20C C34C 1_555 1_555
O20B Co6B 1_555 1_555
O21C Co4 1_555 1_555
O21A Co4B 1_555 1_555
O22C Co3 1_555 1_555
O22A Co3B 1_555 1_555
O23C C36C 1_555 1_555
O23B Co3 1_555 1_555
O23_2 Co3B 1_555 1_555
O24C Co3A 1_555 1_555
O24B Co3 1_555 1_555
O24_2 Co3B 1_555 1_555
O25B Co3B 1_555 1_555
H13B O25B 1_555 1_555
H14B O25B 1_555 1_555
H15A O26 1_555 1_555
C37B H20B 1_555 1_555
C38B H21B 1_555 1_555
H22B C38B 1_555 1_555
H23B C38B 1_555 1_555
C39B H24B 1_555 1_555
H25B C39B 1_555 1_555
H26B C39B 1_555 1_555
C40B H27B 1_555 1_555
C41B H28B 1_555 1_555
H29B C41B 1_555 1_555
H30B C41B 1_555 1_555
C42B H31B 1_555 1_555
H32B C42B 1_555 1_555
H33B C42B 1_555 1_555
C55B H62B 1_555 1_555
H63B C55B 1_555 1_555
H64B C55B 1_555 1_555
C58B C55B 1_555 1_555
H70B C58B 1_555 1_555
H71B C58B 1_555 1_555
N1B C37B 1_555 1_555
N2B C40B 1_555 1_555
O29B Co4B 1_555 1_555
O30B Co6B 1_555 1_555
O34B Co4B 1_555 1_555
H72B O34B 1_555 1_555
Co4 O22C 1_555 1_555
C5 C6 1_555 1_555
C7 O2 1_555 1_555
C14 C15 1_555 1_555
C16 O7 1_555 1_555
C16 O8 1_555 1_555
C23 C24 1_555 1_555
C26 O15 1_555 1_555
C26 O16 1_555 1_555
C32 C33 1_555 1_555
C34 O19 1_555 1_555
C34 O20 1_555 1_555
O6 Co6E 1_555 1_555
O22 Co4C 1_555 1_555
O24 Co3B_2 1_555 1_555
C37 O29 1_555 1_555
C38 N1 1_555 1_555
C39 N1 1_555 1_555
C40 O30 1_555 1_555
C41 N2 1_555 1_555
C42 N2 1_555 1_555
C44 N3 1_555 1_555
C45 N3 1_555 1_555
C47 N4 1_555 1_555
C48 N4 1_555 1_555
C50 N5 1_555 1_555
C51 N5 1_555 1_555
C53 N6 1_555 1_555
C54 N6 1_555 1_555
C58 O34 1_555 1_555
Co4B O22A 1_555 1_555
C5B C6B 1_555 1_555
C7B O2B 1_555 1_555
C8B O3B 1_555 1_555
C8B O4B 1_555 1_555
C9B O6B 1_555 1_555
C14B C15B 1_555 1_555
C16B O7B 1_555 1_555
C16B O8B 1_555 1_555
C17B O9B 1_555 1_555
C17B O10B 1_555 1_555
C23I C24I 1_555 1_555
C26I O16I 1_555 1_555
C27I O17I 1_555 1_555
C27I O18I 1_555 1_555
C32C C33C 1_555 1_555
C35C O21C 1_555 1_555
C35C O22C 1_555 1_555
C36C O24C 1_555 1_555
C37B O29B 1_555 1_555
C38B N1B 1_555 1_555
C39B N1B 1_555 1_555
C40B O30B 1_555 1_555
C41B N2B 1_555 1_555
C42B N2B 1_555 1_555
C58B O34B 1_555 1_555

#END
