
#######################################################################
#
#                 Cambridge Crystallographic Data Centre
#                                CCDC 
#
#######################################################################
#
# If this CIF has been generated from an entry in the Cambridge 
# Structural Database, then it will include bibliographic, chemical, 
# crystal, experimental, refinement or atomic coordinate data resulting 
# from the CCDC's data processing and validation procedures.
#
#######################################################################

data_DUVNUE
_symmetry_cell_setting           monoclinic
_symmetry_space_group_name_H-M   'P 21/c'
_symmetry_Int_Tables_number      14
_space_group_name_Hall           '-P 2ybc'
loop_
_symmetry_equiv_pos_site_id
_symmetry_equiv_pos_as_xyz
1 x,y,z
2 -x,1/2+y,1/2-z
3 -x,-y,-z
4 x,1/2-y,1/2+z
_cell_length_a                   18.7320(11)
_cell_length_b                   15.0865(8)
_cell_length_c                   8.5919(5)
_cell_angle_alpha                90
_cell_angle_beta                 93.893(4)
_cell_angle_gamma                90
_cell_volume                     2422.47
loop_
_atom_site_label
_atom_site_type_symbol
_atom_site_fract_x
_atom_site_fract_y
_atom_site_fract_z
C1 C 0.1085(6) 0.4617(7) 0.2404(12)
H1 H 0.1477 0.4243 0.2575
C2 C 0.0426(6) 0.4362(8) 0.2997(13)
H2 H 0.0399 0.3839 0.3561
C3 C -0.0163(7) 0.4875(8) 0.2747(13)
H3 H -0.0596 0.4710 0.3128
C4 C -0.0102(5) 0.5667(7) 0.1891(11)
C5 C -0.0686(6) 0.6235(9) 0.1537(15)
H4 H -0.1124 0.6106 0.1932
C6 C -0.0626(6) 0.6976(9) 0.0622(14)
H5 H -0.1023 0.7328 0.0360
C7 C 0.0060(5) 0.7198(7) 0.0079(12)
H6 H 0.0110 0.7699 -0.0535
C8 C 0.0636(5) 0.6674(7) 0.0463(11)
C9 C 0.0574(5) 0.5884(7) 0.1353(10)
C10 C 0.1432(5) 0.7565(7) -0.0980(11)
H7 H 0.1258 0.8115 -0.0561
H8 H 0.1169 0.7449 -0.1971
C11 C 0.2219(5) 0.7638(7) -0.1206(11)
C12 C 0.3981(6) 0.6336(7) 0.2898(12)
H9 H 0.3655 0.6339 0.3667
C13 C 0.4691(6) 0.6590(8) 0.3321(14)
H10 H 0.4820 0.6785 0.4327
C14 C 0.5185(6) 0.6546(8) 0.2229(13)
H11 H 0.5661 0.6685 0.2498
C15 C 0.4971(5) 0.6289(7) 0.0686(13)
C16 C 0.5450(6) 0.6263(8) -0.0512(16)
H12 H 0.5928 0.6420 -0.0306
C17 C 0.5209(6) 0.6007(7) -0.1958(15)
H13 H 0.5527 0.5974 -0.2741
C18 C 0.4483(6) 0.5790(8) -0.2305(12)
H14 H 0.4330 0.5618 -0.3313
C19 C 0.4005(5) 0.5828(7) -0.1187(11)
C20 C 0.4244(5) 0.6074(6) 0.0375(11)
C21 C 0.3004(5) 0.5619(8) -0.2999(12)
H15 H 0.3194 0.5125 -0.3562
H16 H 0.3134 0.6164 -0.3508
C22 C 0.2186(5) 0.5546(6) -0.3010(12)
N1 N 0.1168(4) 0.5356(5) 0.1628(9)
N2 N 0.3751(4) 0.6094(5) 0.1477(9)
O1 O 0.1329(3) 0.6847(4) 0.0093(7)
O2 O 0.2645(3) 0.7170(4) -0.0438(7)
O3 O 0.2354(3) 0.8197(5) -0.2212(7)
O4 O 0.3298(3) 0.5615(4) -0.1405(6)
O5 O 0.1911(3) 0.5533(4) -0.1725(7)
O6 O 0.1870(4) 0.5484(5) -0.4297(7)
O10 O 0.2556(4) 0.4272(4) 0.0377(8)
H17 H 0.2666 0.4223 -0.0563
H18 H 0.2536 0.3757 0.0771
O11 O 0.2640(3) 0.5058(5) 0.3256(7)
H19 H 0.2334 0.5266 0.3845
H20 H 0.3027 0.4959 0.3797
Tb1 Tb 0.24101(2) 0.58213(3) 0.07808(5)
O3C O 0.2354(3) 0.6803(5) 0.2788(7)
Tb1C Tb 0.24101(2) 0.91787(3) -0.42192(5)
N3 N 0.2647(9) 0.2759(10) 0.7376(15)
O7 O 0.2707(7) 0.3526(8) 0.7487(13)
O8 O 0.3084(6) 0.2299(9) 0.6800(17)
O9 O 0.2171(8) 0.2352(11) 0.785(2)
O12 O 0.3484(6) 0.3700(8) 0.4474(13)
H21 H 0.3034 0.3794 0.4454
H22 H 0.3607 0.3452 0.5341
loop_
_geom_bond_atom_site_label_1
_geom_bond_atom_site_label_2
_geom_bond_site_symmetry_1
_geom_bond_site_symmetry_2
C1 H1 1_555 1_555
C2 C1 1_555 1_555
H2 C2 1_555 1_555
C3 C2 1_555 1_555
H3 C3 1_555 1_555
C4 C3 1_555 1_555
C5 C4 1_555 1_555
H4 C5 1_555 1_555
C6 C5 1_555 1_555
H5 C6 1_555 1_555
C7 C6 1_555 1_555
H6 C7 1_555 1_555
C8 C7 1_555 1_555
C9 C4 1_555 1_555
C10 H7 1_555 1_555
H8 C10 1_555 1_555
C11 C10 1_555 1_555
C12 H9 1_555 1_555
C13 C12 1_555 1_555
H10 C13 1_555 1_555
C14 C13 1_555 1_555
H11 C14 1_555 1_555
C15 C14 1_555 1_555
C16 C15 1_555 1_555
H12 C16 1_555 1_555
C17 C16 1_555 1_555
H13 C17 1_555 1_555
C18 C17 1_555 1_555
H14 C18 1_555 1_555
C19 C18 1_555 1_555
C20 C15 1_555 1_555
C21 H15 1_555 1_555
H16 C21 1_555 1_555
C22 C21 1_555 1_555
N1 C1 1_555 1_555
N2 C12 1_555 1_555
N3 O7 1_555 1_555
O1 C8 1_555 1_555
O2 C11 1_555 1_555
O3 C11 1_555 1_555
O4 C19 1_555 1_555
O5 C22 1_555 1_555
O6 C22 1_555 1_555
O8 N3 1_555 1_555
O9 N3 1_555 1_555
O10 H17 1_555 1_555
H18 O10 1_555 1_555
O11 H19 1_555 1_555
H20 O11 1_555 1_555
O12 H21 1_555 1_555
H22 O12 1_555 1_555
Tb1 N1 1_555 1_555
O3C Tb1 1_555 1_555
Tb1C O3 1_555 1_555
C8 C9 1_555 1_555
C9 N1 1_555 1_555
C10 O1 1_555 1_555
C19 C20 1_555 1_555
C20 N2 1_555 1_555
C21 O4 1_555 1_555
N2 Tb1 1_555 1_555
O1 Tb1 1_555 1_555
O2 Tb1 1_555 1_555
O4 Tb1 1_555 1_555
O5 Tb1 1_555 1_555
O10 Tb1 1_555 1_555
O11 Tb1 1_555 1_555

#END
