
#######################################################################
#
#                 Cambridge Crystallographic Data Centre
#                                CCDC 
#
#######################################################################
#
# If this CIF has been generated from an entry in the Cambridge 
# Structural Database, then it will include bibliographic, chemical, 
# crystal, experimental, refinement or atomic coordinate data resulting 
# from the CCDC's data processing and validation procedures.
#
#######################################################################

data_DUVSOD
_symmetry_cell_setting           triclinic
_symmetry_space_group_name_H-M   'P -1'
_symmetry_Int_Tables_number      2
_space_group_name_Hall           '-P 1'
loop_
_symmetry_equiv_pos_site_id
_symmetry_equiv_pos_as_xyz
1 x,y,z
2 -x,-y,-z
_cell_length_a                   10.0630(13)
_cell_length_b                   13.9091(18)
_cell_length_c                   16.490(2)
_cell_angle_alpha                113.812(2)
_cell_angle_beta                 97.189(2)
_cell_angle_gamma                99.149(2)
_cell_volume                     2038.41
loop_
_atom_site_label
_atom_site_type_symbol
_atom_site_fract_x
_atom_site_fract_y
_atom_site_fract_z
Br1 Br 0.27318(3) 0.24263(2) 0.54573(2)
K1 K 0.67632(7) 0.31699(5) 0.59332(4)
O1 O 0.4917(3) 0.20422(19) 0.42087(16)
O2 O 0.1222(2) 0.26563(17) -0.29128(14)
H1 H 0.1626 0.2508 -0.3334
O3 O -0.0697(2) -0.60985(17) -0.27454(15)
O4 O 0.5924(2) 0.21731(16) 0.70135(13)
O5 O 0.7558(2) 0.12840(16) 0.57841(14)
O6 O 0.8342(2) 0.22108(16) 0.46296(14)
O7 O 0.8110(2) 0.44092(16) 0.51619(13)
O8 O 0.6135(2) 0.51613(16) 0.61717(14)
O9 O 0.5835(2) 0.44059(16) 0.74875(14)
C1 C 0.2887(3) 0.0014(2) 0.04078(19)
C2 C 0.2380(3) -0.1110(2) -0.0032(2)
C3 C 0.1715(3) -0.1595(2) -0.09462(19)
C4 C 0.1540(3) -0.0964(2) -0.14180(19)
C5 C 0.2089(3) 0.0157(2) -0.09782(19)
C6 C 0.2777(3) 0.0644(2) -0.00695(19)
C7 C 0.3404(3) 0.1839(2) 0.0397(2)
H2 H 0.3740 0.2072 -0.0029
H3 H 0.4152 0.1990 0.0886
H4 H 0.2719 0.2218 0.0633
C8 C 0.2574(3) -0.1776(2) 0.0486(2)
H5 H 0.2223 -0.2528 0.0085
H6 H 0.2085 -0.1575 0.0971
H7 H 0.3536 -0.1649 0.0731
C9 C 0.0782(3) -0.1491(2) -0.23958(19)
H8 H 0.0385 -0.0977 -0.2534
H9 H 0.0066 -0.2095 -0.2493
H10 H 0.1414 -0.1735 -0.2783
C10 C 0.3453(3) 0.0555(2) 0.1411(2)
C11 C 0.2546(3) 0.0792(2) 0.1997(2)
H11 H 0.1606 0.0610 0.1755
C12 C 0.2999(3) 0.1292(2) 0.2930(2)
H12 H 0.2372 0.1449 0.3307
C13 C 0.4399(3) 0.1558(2) 0.3295(2)
C14 C 0.5325(3) 0.1335(2) 0.2726(2)
H13 H 0.6263 0.1517 0.2971
C15 C 0.4858(3) 0.0840(2) 0.1793(2)
H14 H 0.5488 0.0697 0.1418
C16 C 0.1117(3) -0.2796(2) -0.14249(19)
C17 C 0.1832(3) -0.3514(2) -0.1949(2)
H15 H 0.2713 -0.3251 -0.1997
C18 C 0.1245(3) -0.4620(2) -0.2402(2)
H16 H 0.1727 -0.5088 -0.2756
C19 C -0.0058(3) -0.5018(2) -0.2320(2)
C20 C -0.0778(3) -0.4322(2) -0.1792(2)
H17 H -0.1651 -0.4587 -0.1732
C21 C -0.0172(3) -0.3222(2) -0.1352(2)
H18 H -0.0655 -0.2756 -0.0995
C22 C 0.1898(3) 0.0830(2) -0.14807(19)
C23 C 0.2656(3) 0.0838(2) -0.2128(2)
H19 H 0.3323 0.0435 -0.2235
C24 C 0.2445(3) 0.1430(2) -0.2618(2)
H20 H 0.2959 0.1416 -0.3052
C25 C 0.1466(3) 0.2041(2) -0.24577(19)
C26 C 0.0693(3) 0.2045(2) -0.1817(2)
H21 H 0.0025 0.2446 -0.1712
C27 C 0.0917(3) 0.1451(2) -0.1334(2)
H22 H 0.0400 0.1467 -0.0901
C28 C 0.6632(3) 0.1374(2) 0.7048(2)
H23 H 0.6133 0.0949 0.7304
H24 H 0.7544 0.1720 0.7429
C29 C 0.6740(4) 0.0657(2) 0.6106(2)
H25 H 0.7155 0.0075 0.6111
H26 H 0.5831 0.0343 0.5715
C30 C 0.7789(3) 0.0653(2) 0.4903(2)
H27 H 0.6947 0.0416 0.4449
H28 H 0.8095 0.0020 0.4890
C31 C 0.8880(3) 0.1368(2) 0.4722(2)
H29 H 0.9677 0.1672 0.5218
H30 H 0.9167 0.0948 0.4170
C32 C 0.9379(3) 0.3063(2) 0.4666(2)
H31 H 0.9960 0.2772 0.4243
H32 H 0.9952 0.3449 0.5271
C33 C 0.8678(3) 0.3813(2) 0.4421(2)
H33 H 0.9336 0.4301 0.4298
H34 H 0.7956 0.3404 0.3882
C34 C 0.7232(3) 0.5018(2) 0.4943(2)
H35 H 0.6387 0.4536 0.4529
H36 H 0.7684 0.5417 0.4650
C35 C 0.6911(3) 0.5783(2) 0.5799(2)
H37 H 0.7757 0.6232 0.6229
H38 H 0.6379 0.6248 0.5672
C36 C 0.5910(3) 0.5834(2) 0.7034(2)
H39 H 0.5428 0.6365 0.6984
H40 H 0.6783 0.6212 0.7459
C37 C 0.5061(3) 0.5128(2) 0.7362(2)
H41 H 0.4834 0.5570 0.7929
H42 H 0.4210 0.4721 0.6920
C38 C 0.5067(3) 0.3712(2) 0.7793(2)
H43 H 0.4204 0.3315 0.7362
H44 H 0.4860 0.4140 0.8373
C39 C 0.5882(3) 0.2936(2) 0.7889(2)
H45 H 0.6810 0.3324 0.8229
H46 H 0.5456 0.2569 0.8214
H52 H 0.442(5) 0.209(4) 0.441(3)
H53 H -0.015(4) -0.645(3) -0.285(2)
K1_2 K -0.32368(7) -0.68301(5) -0.40668(4)
O3_2 O 0.9303(2) 0.39015(17) 0.72546(15)
H53_2 H 0.985(4) 0.355(3) 0.715(2)
C40 C 0.7919(4) 0.4975(3) 0.0322(3)
H47 H 0.8245 0.4832 -0.0228
H48 H 0.8036 0.4421 0.0513
H49 H 0.8433 0.5664 0.0785
C41 C 0.6421(4) 0.4986(3) 0.0160(2)
C42 C 0.5398(4) 0.4138(3) 0.0096(2)
H50 H 0.5645 0.3553 0.0163
C43 C 0.6000(4) 0.5845(3) 0.0069(2)
H51 H 0.6661 0.6426 0.0117
C40A C 0.2081(4) 0.5025(3) -0.0322(3)
H47A H 0.1755 0.5168 0.0228
H48A H 0.1964 0.5579 -0.0513
H49A H 0.1567 0.4336 -0.0785
C41A C 0.3579(4) 0.5014(3) -0.0160(2)
C42A C 0.4602(4) 0.5862(3) -0.0096(2)
H50A H 0.4355 0.6447 -0.0163
C43A C 0.4000(4) 0.4155(3) -0.0069(2)
H51A H 0.3339 0.3574 -0.0117
loop_
_geom_bond_atom_site_label_1
_geom_bond_atom_site_label_2
_geom_bond_site_symmetry_1
_geom_bond_site_symmetry_2
K1 O1 1_555 1_555
O1 C13 1_555 1_555
O2 H1 1_555 1_555
O3 C19 1_555 1_555
O4 K1 1_555 1_555
O5 K1 1_555 1_555
O6 K1 1_555 1_555
O7 K1 1_555 1_555
O8 K1 1_555 1_555
O9 K1 1_555 1_555
C1 C2 1_555 1_555
C2 C3 1_555 1_555
C3 C4 1_555 1_555
C4 C5 1_555 1_555
C5 C6 1_555 1_555
C6 C1 1_555 1_555
C7 C6 1_555 1_555
H2 C7 1_555 1_555
H3 C7 1_555 1_555
H4 C7 1_555 1_555
C8 C2 1_555 1_555
H5 C8 1_555 1_555
H6 C8 1_555 1_555
H7 C8 1_555 1_555
C9 C4 1_555 1_555
H8 C9 1_555 1_555
H9 C9 1_555 1_555
H10 C9 1_555 1_555
C10 C1 1_555 1_555
C11 C10 1_555 1_555
H11 C11 1_555 1_555
C12 C11 1_555 1_555
H12 C12 1_555 1_555
C13 C12 1_555 1_555
C14 C13 1_555 1_555
H13 C14 1_555 1_555
C15 C10 1_555 1_555
H14 C15 1_555 1_555
C16 C3 1_555 1_555
C17 C16 1_555 1_555
H15 C17 1_555 1_555
C18 C17 1_555 1_555
H16 C18 1_555 1_555
C19 C18 1_555 1_555
C20 C19 1_555 1_555
H17 C20 1_555 1_555
C21 C16 1_555 1_555
H18 C21 1_555 1_555
C22 C5 1_555 1_555
C23 C22 1_555 1_555
H19 C23 1_555 1_555
C24 C23 1_555 1_555
H20 C24 1_555 1_555
C25 O2 1_555 1_555
C26 C25 1_555 1_555
H21 C26 1_555 1_555
C27 C22 1_555 1_555
H22 C27 1_555 1_555
C28 O4 1_555 1_555
H23 C28 1_555 1_555
H24 C28 1_555 1_555
C29 O5 1_555 1_555
H25 C29 1_555 1_555
H26 C29 1_555 1_555
C30 O5 1_555 1_555
H27 C30 1_555 1_555
H28 C30 1_555 1_555
C31 O6 1_555 1_555
H29 C31 1_555 1_555
H30 C31 1_555 1_555
C32 O6 1_555 1_555
H31 C32 1_555 1_555
H32 C32 1_555 1_555
C33 O7 1_555 1_555
H33 C33 1_555 1_555
H34 C33 1_555 1_555
C34 O7 1_555 1_555
H35 C34 1_555 1_555
H36 C34 1_555 1_555
C35 O8 1_555 1_555
H37 C35 1_555 1_555
H38 C35 1_555 1_555
C36 O8 1_555 1_555
H39 C36 1_555 1_555
H40 C36 1_555 1_555
C37 O9 1_555 1_555
H41 C37 1_555 1_555
H42 C37 1_555 1_555
C38 O9 1_555 1_555
H43 C38 1_555 1_555
H44 C38 1_555 1_555
C39 O4 1_555 1_555
H45 C39 1_555 1_555
H46 C39 1_555 1_555
C40 H47 1_555 1_555
H48 C40 1_555 1_555
H49 C40 1_555 1_555
C41 C40 1_555 1_555
C42 C41 1_555 1_555
H50 C42 1_555 1_555
C43 C41 1_555 1_555
H51 C43 1_555 1_555
H52 O1 1_555 1_555
H53 O3 1_555 1_555
K1_2 O3 1_555 1_555
O3_2 K1 1_555 1_555
C40A H47A 1_555 1_555
H48A C40A 1_555 1_555
H49A C40A 1_555 1_555
C41A C40A 1_555 1_555
C42A C43 1_555 1_555
H50A C42A 1_555 1_555
C43A C42 1_555 1_555
H51A C43A 1_555 1_555
H53_2 O3_2 1_555 1_555
C14 C15 1_555 1_555
C20 C21 1_555 1_555
C24 C25 1_555 1_555
C26 C27 1_555 1_555
C28 C29 1_555 1_555
C30 C31 1_555 1_555
C32 C33 1_555 1_555
C34 C35 1_555 1_555
C36 C37 1_555 1_555
C38 C39 1_555 1_555
C41A C42A 1_555 1_555
C41A C43A 1_555 1_555

#END
