
#######################################################################
#
#                 Cambridge Crystallographic Data Centre
#                                CCDC 
#
#######################################################################
#
# If this CIF has been generated from an entry in the Cambridge 
# Structural Database, then it will include bibliographic, chemical, 
# crystal, experimental, refinement or atomic coordinate data resulting 
# from the CCDC's data processing and validation procedures.
#
#######################################################################

data_DUVTOE
_symmetry_cell_setting           monoclinic
_symmetry_space_group_name_H-M   'P 21/c'
_symmetry_Int_Tables_number      14
_space_group_name_Hall           '-P 2ybc'
loop_
_symmetry_equiv_pos_site_id
_symmetry_equiv_pos_as_xyz
1 x,y,z
2 -x,1/2+y,1/2-z
3 -x,-y,-z
4 x,1/2-y,1/2+z
_cell_length_a                   14.154(2)
_cell_length_b                   13.496(2)
_cell_length_c                   12.342(2)
_cell_angle_alpha                90
_cell_angle_beta                 98.964(2)
_cell_angle_gamma                90
_cell_volume                     2328.8
loop_
_atom_site_label
_atom_site_type_symbol
_atom_site_fract_x
_atom_site_fract_y
_atom_site_fract_z
Cd1 Cd 0.34405(4) 0.36038(5) 0.38753(5)
Cd2 Cd 0.46457(4) 0.28767(5) 0.68268(5)
Cd3 Cd 0.58180(4) 0.11276(5) 0.47559(5)
O1 O 0.4027(4) 0.2266(4) 0.5088(4)
O2 O 0.4237(4) 0.0656(4) 0.4841(4)
O3 O 0.3464(4) 0.1784(5) 0.2831(4)
O4 O 0.2400(4) 0.0833(5) 0.1790(5)
O5 O -0.0767(5) 0.1045(9) 0.3112(6)
O6 O -0.0802(5) 0.1262(7) 0.4813(6)
O7 O 0.4064(4) 0.6804(5) 0.3989(4)
O8 O 0.3230(4) 0.5455(5) 0.3351(5)
O9 O -0.0071(5) 0.6332(8) 0.6261(6)
O10 O -0.0074(5) 0.6108(8) 0.4542(6)
O11 O 0.4277(4) 0.6268(4) 0.8218(5)
O12 O 0.2898(4) 0.6335(5) 0.8844(4)
O13 O 0.3506(4) 0.1308(5) 0.6937(5)
O14 O 0.2099(5) 0.1474(5) 0.7454(5)
O15 O 0.4653(4) 0.7495(4) 0.6417(4)
O16 O 0.4966(4) 0.5925(4) 0.6057(4)
O17 O 0.5277(4) 0.4497(4) 0.7968(4)
H1 H 0.489(5) 0.496(4) 0.805(7)
H2 H 0.566(5) 0.469(5) 0.755(6)
O18 O 0.7169(4) 0.1076(6) 0.3911(5)
O19 O 0.2077(4) 0.3586(6) 0.4643(5)
H3 H 0.203(6) 0.374(8) 0.530(3)
H4 H 0.154(4) 0.369(8) 0.424(6)
O20 O 0.3939(4) 0.4211(4) 0.5724(4)
H5 H 0.426(6) 0.474(4) 0.573(8)
H6 H 0.346(5) 0.434(7) 0.607(8)
C1 C 0.3719(6) 0.1406(6) 0.4905(6)
C2 C 0.2641(5) 0.1273(6) 0.4680(6)
C3 C 0.2110(6) 0.1286(6) 0.5552(6)
C4 C 0.1124(6) 0.1247(7) 0.5343(7)
H7 H 0.0768 0.1269 0.5916
C5 C 0.0674(6) 0.1174(7) 0.4269(7)
N1 N -0.0370(5) 0.1161(7) 0.4047(6)
C6 C 0.1173(6) 0.1130(7) 0.3397(7)
H8 H 0.0851 0.1052 0.2686
C7 C 0.2167(6) 0.1205(6) 0.3597(6)
C8 C 0.2717(6) 0.1273(6) 0.2647(7)
C9 C 0.3422(5) 0.6162(6) 0.4001(6)
C10 C 0.2859(6) 0.6252(6) 0.4949(6)
C11 C 0.1867(6) 0.6166(7) 0.4769(7)
H9 H 0.1534 0.6053 0.4070
C12 C 0.1394(6) 0.6255(7) 0.5664(7)
N2 N 0.0344(5) 0.6234(7) 0.5472(7)
C13 C 0.4398(5) 0.6611(6) 0.6176(6)
C14 C 0.3334(5) 0.6404(6) 0.6007(6)
C15 C 0.2847(5) 0.6403(6) 0.6906(6)
C16 C 0.1858(6) 0.6349(7) 0.6734(7)
H10 H 0.1516 0.6376 0.7318
C17 C 0.3365(6) 0.6349(6) 0.8064(7)
C18 C 0.2607(6) 0.1360(7) 0.6721(7)
H11 H 0.724(7) 0.103(8) 0.325(3)
H12 H 0.770(4) 0.120(7) 0.431(7)
Cd1C Cd 0.34405(4) 0.13962(5) 0.88753(5)
Cd1B Cd 0.65595(4) 0.63962(5) 0.61247(5)
Cd2C Cd 0.46457(4) 0.21233(5) 0.18268(5)
Cd2B Cd 0.53543(4) 0.71233(5) 0.31732(5)
Cd2A Cd 0.53543(4) 0.78767(5) 0.81732(5)
Cd3B Cd 0.41820(4) -0.11276(5) 0.52441(5)
Cd3A Cd 0.41820(4) 0.61276(5) 1.02441(5)
Cd3B_2 Cd 0.41820(4) 0.88724(5) 0.52441(5)
Cd3C Cd 0.58180(4) 0.38724(5) 0.97559(5)
O2B O 0.5763(4) -0.0656(4) 0.5159(4)
O3C O 0.3464(4) 0.3216(5) 0.7831(4)
O7B O 0.5936(4) 0.3196(5) 0.6011(4)
O11A O 0.5723(4) 0.1268(4) 0.6782(5)
O12A O 0.7102(4) 0.1335(5) 0.6156(4)
O13C O 0.3506(4) 0.3692(5) 0.1937(5)
O14C O 0.2099(5) 0.3526(5) 0.2454(5)
O15A O 0.5347(4) 0.2495(4) 0.8583(4)
O15B O 0.5347(4) 0.2505(4) 0.3583(4)
O16B O 0.5034(4) 0.4075(4) 0.3943(4)
O17C O 0.5277(4) 0.0503(4) 0.2968(4)
H1C H 0.489(5) 0.004(4) 0.305(7)
H2C H 0.566(5) 0.031(5) 0.255(6)
loop_
_geom_bond_atom_site_label_1
_geom_bond_atom_site_label_2
_geom_bond_site_symmetry_1
_geom_bond_site_symmetry_2
Cd1 O1 1_555 1_555
Cd2 O1 1_555 1_555
Cd3 O2 1_555 1_555
O1 C1 1_555 1_555
O2 C1 1_555 1_555
O3 Cd1 1_555 1_555
O4 C8 1_555 1_555
O5 N1 1_555 1_555
O6 N1 1_555 1_555
O7 C9 1_555 1_555
O8 Cd1 1_555 1_555
O9 N2 1_555 1_555
O10 N2 1_555 1_555
O11 C17 1_555 1_555
O12 C17 1_555 1_555
O13 Cd2 1_555 1_555
O14 C18 1_555 1_555
O15 C13 1_555 1_555
O16 C13 1_555 1_555
O17 Cd2 1_555 1_555
H1 O17 1_555 1_555
H2 O17 1_555 1_555
O18 Cd3 1_555 1_555
O19 Cd1 1_555 1_555
H3 O19 1_555 1_555
H4 O19 1_555 1_555
O20 Cd1 1_555 1_555
H5 O20 1_555 1_555
H6 O20 1_555 1_555
C1 C2 1_555 1_555
C2 C3 1_555 1_555
C3 C4 1_555 1_555
C4 H7 1_555 1_555
C5 C4 1_555 1_555
N1 C5 1_555 1_555
C6 C5 1_555 1_555
H8 C6 1_555 1_555
C7 C2 1_555 1_555
C8 O3 1_555 1_555
C9 O8 1_555 1_555
C10 C9 1_555 1_555
C11 C10 1_555 1_555
H9 C11 1_555 1_555
C12 C11 1_555 1_555
N2 C12 1_555 1_555
C13 C14 1_555 1_555
C14 C10 1_555 1_555
C15 C14 1_555 1_555
C16 C12 1_555 1_555
H10 C16 1_555 1_555
C17 C15 1_555 1_555
C18 O13 1_555 1_555
H11 O18 1_555 1_555
H12 O18 1_555 1_555
Cd1C O13 1_555 1_555
Cd1B O16 1_555 1_555
Cd2C O3 1_555 1_555
Cd2B O7 1_555 1_555
Cd2A O11 1_555 1_555
Cd3B O2 1_555 1_555
Cd3A O11 1_555 1_555
Cd3B_2 O15 1_555 1_555
Cd3C O17 1_555 1_555
O2B Cd3 1_555 1_555
O3C Cd2 1_555 1_555
O7B Cd2 1_555 1_555
O11A Cd2 1_555 1_555
O12A Cd3 1_555 1_555
O13C Cd1 1_555 1_555
O14C Cd1 1_555 1_555
O15A Cd2 1_555 1_555
O15B Cd3 1_555 1_555
O16B Cd1 1_555 1_555
O17C Cd3 1_555 1_555
H1C O17C 1_555 1_555
H2C O17C 1_555 1_555
Cd2 O20 1_555 1_555
Cd3 O11A 1_555 1_555
O12 Cd3A 1_555 1_555
O14 Cd1C 1_555 1_555
O15 Cd2A 1_555 1_555
C3 C18 1_555 1_555
C6 C7 1_555 1_555
C7 C8 1_555 1_555
C15 C16 1_555 1_555
Cd1C O3C 1_555 1_555
Cd2C O13C 1_555 1_555
Cd2C O15B 1_555 1_555
Cd2C O17C 1_555 1_555
Cd3B O2B 1_555 1_555
Cd3C O15A 1_555 1_555

#END
