
#######################################################################
#
#                 Cambridge Crystallographic Data Centre
#                                CCDC 
#
#######################################################################
#
# If this CIF has been generated from an entry in the Cambridge 
# Structural Database, then it will include bibliographic, chemical, 
# crystal, experimental, refinement or atomic coordinate data resulting 
# from the CCDC's data processing and validation procedures.
#
#######################################################################

data_DUWQOC
_symmetry_cell_setting           monoclinic
_symmetry_space_group_name_H-M   'C 2/c'
_symmetry_Int_Tables_number      15
_space_group_name_Hall           '-C 2yn'
loop_
_symmetry_equiv_pos_site_id
_symmetry_equiv_pos_as_xyz
1 x,y,z
2 -x,y,1/2-z
3 1/2+x,1/2+y,z
4 1/2-x,1/2+y,1/2-z
5 -x,-y,-z
6 x,-y,1/2+z
7 1/2-x,1/2-y,-z
8 1/2+x,1/2-y,1/2+z
_cell_length_a                   13.542(5)
_cell_length_b                   15.256(5)
_cell_length_c                   20.071(5)
_cell_angle_alpha                90
_cell_angle_beta                 91.496(5)
_cell_angle_gamma                90
_cell_volume                     4145.19
loop_
_atom_site_label
_atom_site_type_symbol
_atom_site_fract_x
_atom_site_fract_y
_atom_site_fract_z
Mn1 Mn 0.004145(19) 0.189051(15) 0.129951(12)
O1 O -0.02347(10) 0.69440(7) -0.06424(6)
O2 O 0.09435(10) 0.78788(8) -0.03702(6)
N1 N -0.02501(10) 0.04438(9) 0.14477(7)
N2 N 0.11238(11) 0.11265(9) 0.06779(8)
C1 C 0.11335(12) 0.56444(10) 0.14943(8)
O3 O 0.11153(10) 0.22396(9) 0.30737(7)
O4 O 0.11564(10) 0.23237(8) 0.19700(6)
C2 C 0.16938(13) 0.63868(10) 0.13528(9)
H1 H 0.2211 0.6550 0.1641
C3 C 0.07052(12) 0.66607(10) 0.03565(8)
C4 C 0.10000(12) 0.02549(10) 0.06269(8)
C5 C 0.12071(11) 0.26599(11) 0.25395(9)
C6 C 0.15623(14) -0.02416(12) 0.01978(9)
H2 H 0.1458 -0.0842 0.0159
C7 C 0.02519(12) -0.01264(10) 0.10709(9)
C8 C 0.12256(11) 0.41697(10) 0.20454(8)
H3 H 0.1006 0.3921 0.1645
C9 C 0.01426(13) 0.59268(11) 0.04997(9)
H4 H -0.0385 0.5773 0.0218
C10 C 0.03583(13) 0.54218(11) 0.10575(9)
H5 H -0.0020 0.4927 0.1142
C11 C 0.17508(13) 0.40014(12) 0.31906(9)
H6 H 0.1863 0.3649 0.3563
C12 C 0.14861(13) 0.68836(10) 0.07859(9)
H7 H 0.1873 0.7370 0.0693
C13 C 0.04624(13) 0.71912(10) -0.02562(8)
C14 C 0.14073(11) 0.36303(11) 0.25940(8)
C15 C 0.17329(14) 0.54306(12) 0.26825(9)
H8 H 0.1849 0.6030 0.2716
C16 C 0.13653(12) 0.50777(11) 0.20820(8)
C17 C 0.19252(14) 0.48920(13) 0.32292(9)
H9 H 0.2174 0.5134 0.3625
C18 C -0.09078(13) 0.01315(12) 0.18726(10)
H10 H -0.1247 0.0526 0.2135
C19 C 0.00842(15) -0.10251(12) 0.11091(12)
H11 H 0.0429 -0.1412 0.0843
C20 C 0.18234(17) 0.14997(14) 0.03170(12)
H12 H 0.1914 0.2102 0.0354
C21 C -0.11050(16) -0.07556(14) 0.19379(12)
H13 H -0.1567 -0.0955 0.2238
C22 C 0.22738(15) 0.01619(14) -0.01695(11)
H14 H 0.2654 -0.0164 -0.0459
C23 C 0.24190(17) 0.10424(15) -0.01078(12)
H15 H 0.2905 0.1326 -0.0345
C24 C -0.06001(17) -0.13299(14) 0.15477(14)
H16 H -0.0720 -0.1928 0.1580
Mn1A Mn -0.004145(19) 0.189051(15) 0.370049(12)
Mn1D Mn -0.004145(19) 0.810949(15) -0.129951(12)
Mn1E Mn 0.004145(19) 0.810949(15) 0.629951(12)
O1A O 0.02347(10) 0.69440(7) 0.56424(6)
O1D O 0.02347(10) 0.30560(7) 0.06424(6)
O1E O -0.02347(10) 0.30560(7) 0.43576(6)
O2A O -0.09435(10) 0.78788(8) 0.53702(6)
O2D O -0.09435(10) 0.21212(8) 0.03702(6)
O2E O 0.09435(10) 0.21212(8) 0.46298(6)
N1A N 0.02501(10) 0.04438(9) 0.35523(7)
N2A N -0.11238(11) 0.11265(9) 0.43221(8)
C1A C -0.11335(12) 0.56444(10) 0.35057(8)
O3A O -0.11153(10) 0.22396(9) 0.19263(7)
O4A O -0.11564(10) 0.23237(8) 0.30300(6)
C2A C -0.16938(13) 0.63868(10) 0.36472(9)
H1A H -0.2211 0.6550 0.3359
C3A C -0.07052(12) 0.66607(10) 0.46435(8)
C4A C -0.10000(12) 0.02549(10) 0.43731(8)
C5A C -0.12071(11) 0.26599(11) 0.24605(9)
C6A C -0.15623(14) -0.02416(12) 0.48022(9)
H2A H -0.1458 -0.0842 0.4841
C7A C -0.02519(12) -0.01264(10) 0.39291(9)
C8A C -0.12256(11) 0.41697(10) 0.29546(8)
H3A H -0.1006 0.3921 0.3355
C9A C -0.01426(13) 0.59268(11) 0.45003(9)
H4A H 0.0385 0.5773 0.4782
C10A C -0.03583(13) 0.54218(11) 0.39425(9)
H5A H 0.0020 0.4927 0.3858
C11A C -0.17508(13) 0.40014(12) 0.18094(9)
H6A H -0.1863 0.3649 0.1437
C12A C -0.14861(13) 0.68836(10) 0.42141(9)
H7A H -0.1873 0.7370 0.4307
C13A C -0.04624(13) 0.71912(10) 0.52562(8)
C14A C -0.14073(11) 0.36303(11) 0.24060(8)
C15A C -0.17329(14) 0.54306(12) 0.23175(9)
H8A H -0.1849 0.6030 0.2284
C16A C -0.13653(12) 0.50777(11) 0.29180(8)
C17A C -0.19252(14) 0.48920(13) 0.17708(9)
H9A H -0.2174 0.5134 0.1375
C18A C 0.09078(13) 0.01315(12) 0.31274(10)
H10A H 0.1247 0.0526 0.2865
C19A C -0.00842(15) -0.10251(12) 0.38909(12)
H11A H -0.0429 -0.1412 0.4157
C20A C -0.18234(17) 0.14997(14) 0.46830(12)
H12A H -0.1914 0.2102 0.4646
C21A C 0.11050(16) -0.07556(14) 0.30621(12)
H13A H 0.1567 -0.0955 0.2762
C22A C -0.22738(15) 0.01619(14) 0.51695(11)
H14A H -0.2654 -0.0164 0.5459
C23A C -0.24190(17) 0.10424(15) 0.51078(12)
H15A H -0.2905 0.1326 0.5345
C24A C 0.06001(17) -0.13299(14) 0.34523(14)
H16A H 0.0720 -0.1928 0.3420
loop_
_geom_bond_atom_site_label_1
_geom_bond_atom_site_label_2
_geom_bond_site_symmetry_1
_geom_bond_site_symmetry_2
Mn1 N1 1_555 1_555
O1 C13 1_555 1_555
O2 C13 1_555 1_555
N1 C7 1_555 1_555
N2 Mn1 1_555 1_555
C1 C2 1_555 1_555
O3 C5 1_555 1_555
O4 Mn1 1_555 1_555
C2 H1 1_555 1_555
C3 C9 1_555 1_555
C4 N2 1_555 1_555
C5 O4 1_555 1_555
C6 C4 1_555 1_555
H2 C6 1_555 1_555
C7 C4 1_555 1_555
C8 H3 1_555 1_555
C9 H4 1_555 1_555
C10 C1 1_555 1_555
H5 C10 1_555 1_555
C11 H6 1_555 1_555
C12 C2 1_555 1_555
H7 C12 1_555 1_555
C13 C3 1_555 1_555
C14 C5 1_555 1_555
C15 H8 1_555 1_555
C16 C1 1_555 1_555
C17 C11 1_555 1_555
H9 C17 1_555 1_555
C18 N1 1_555 1_555
H10 C18 1_555 1_555
C19 C7 1_555 1_555
H11 C19 1_555 1_555
C20 N2 1_555 1_555
H12 C20 1_555 1_555
C21 C18 1_555 1_555
H13 C21 1_555 1_555
C22 C6 1_555 1_555
H14 C22 1_555 1_555
C23 C20 1_555 1_555
H15 C23 1_555 1_555
C24 C19 1_555 1_555
H16 C24 1_555 1_555
Mn1A O3 1_555 1_555
Mn1D O1 1_555 1_555
Mn1E O1A 1_555 1_555
O1A C13A 1_555 1_555
O1D Mn1 1_555 1_555
O1E Mn1A 1_555 1_555
O2A Mn1E 1_555 1_555
O2D Mn1 1_555 1_555
O2E Mn1A 1_555 1_555
N1A Mn1A 1_555 1_555
N2A Mn1A 1_555 1_555
C1A C2A 1_555 1_555
O3A Mn1 1_555 1_555
O4A Mn1A 1_555 1_555
C2A H1A 1_555 1_555
C3A C9A 1_555 1_555
C4A N2A 1_555 1_555
C5A O3A 1_555 1_555
C6A C4A 1_555 1_555
H2A C6A 1_555 1_555
C7A N1A 1_555 1_555
C8A H3A 1_555 1_555
C9A H4A 1_555 1_555
C10A C1A 1_555 1_555
H5A C10A 1_555 1_555
C11A H6A 1_555 1_555
C12A C2A 1_555 1_555
H7A C12A 1_555 1_555
C13A O2A 1_555 1_555
C14A C5A 1_555 1_555
C15A H8A 1_555 1_555
C16A C1A 1_555 1_555
C17A C11A 1_555 1_555
H9A C17A 1_555 1_555
C18A N1A 1_555 1_555
H10A C18A 1_555 1_555
C19A C7A 1_555 1_555
H11A C19A 1_555 1_555
C20A N2A 1_555 1_555
H12A C20A 1_555 1_555
C21A C18A 1_555 1_555
H13A C21A 1_555 1_555
C22A C6A 1_555 1_555
H14A C22A 1_555 1_555
C23A C20A 1_555 1_555
H15A C23A 1_555 1_555
C24A C19A 1_555 1_555
H16A C24A 1_555 1_555
O2 Mn1D 1_555 1_555
C3 C12 1_555 1_555
C8 C14 1_555 1_555
C8 C16 1_555 1_555
C9 C10 1_555 1_555
C11 C14 1_555 1_555
C15 C16 1_555 1_555
C15 C17 1_555 1_555
C21 C24 1_555 1_555
C22 C23 1_555 1_555
O4A C5A 1_555 1_555
C3A C12A 1_555 1_555
C3A C13A 1_555 1_555
C4A C7A 1_555 1_555
C8A C14A 1_555 1_555
C8A C16A 1_555 1_555
C9A C10A 1_555 1_555
C11A C14A 1_555 1_555
C15A C16A 1_555 1_555
C15A C17A 1_555 1_555
C21A C24A 1_555 1_555
C22A C23A 1_555 1_555

#END
