
#######################################################################
#
#                 Cambridge Crystallographic Data Centre
#                                CCDC 
#
#######################################################################
#
# If this CIF has been generated from an entry in the Cambridge 
# Structural Database, then it will include bibliographic, chemical, 
# crystal, experimental, refinement or atomic coordinate data resulting 
# from the CCDC's data processing and validation procedures.
#
#######################################################################

data_DUWQUI
_symmetry_cell_setting           monoclinic
_symmetry_space_group_name_H-M   'P 21/c'
_symmetry_Int_Tables_number      14
_space_group_name_Hall           '-P 2ybc'
loop_
_symmetry_equiv_pos_site_id
_symmetry_equiv_pos_as_xyz
1 x,y,z
2 -x,1/2+y,1/2-z
3 -x,-y,-z
4 x,1/2-y,1/2+z
_cell_length_a                   6.832(5)
_cell_length_b                   17.940(5)
_cell_length_c                   16.764(5)
_cell_angle_alpha                90
_cell_angle_beta                 97.344(5)
_cell_angle_gamma                90
_cell_volume                     2037.84
loop_
_atom_site_label
_atom_site_type_symbol
_atom_site_fract_x
_atom_site_fract_y
_atom_site_fract_z
C1 C -0.3581(4) 0.65070(14) 0.21979(15)
C2 C -0.2113(4) 0.64478(14) 0.29372(15)
C3 C -0.2264(4) 0.69067(17) 0.35944(17)
H1 H -0.3258 0.7263 0.3571
C4 C -0.0925(6) 0.68319(19) 0.4286(2)
H2 H -0.0995 0.7150 0.4719
C5 C 0.0509(5) 0.62870(18) 0.43314(18)
H3 H 0.1388 0.6237 0.4800
C6 C 0.0660(4) 0.58122(14) 0.36881(16)
C7 C -0.0649(4) 0.59084(15) 0.29861(15)
H4 H -0.0539 0.5606 0.2544
C8 C 0.2100(4) 0.51814(14) 0.37552(15)
C9 C 0.4128(4) 0.52892(14) 0.38710(18)
H5 H 0.4636 0.5770 0.3933
C10 C 0.5400(4) 0.46867(15) 0.38940(17)
H6 H 0.6754 0.4769 0.3946
C11 C 0.4684(4) 0.39610(14) 0.38412(14)
C12 C 0.2652(4) 0.38537(15) 0.37431(19)
H7 H 0.2143 0.3372 0.3716
C13 C 0.1378(4) 0.44577(16) 0.3686(2)
H8 H 0.0023 0.4378 0.3600
C14 C 0.6023(4) 0.32945(13) 0.38652(15)
C15 C -0.7068(4) 0.50902(17) 0.16390(16)
H9 H -0.6816 0.5292 0.2153
C16 C -0.7524(5) 0.43429(18) 0.1556(2)
H10 H -0.7611 0.4049 0.2007
C17 C -0.7847(4) 0.40401(16) 0.0800(2)
H11 H -0.8157 0.3537 0.0733
C18 C -0.7709(4) 0.44880(15) 0.01403(17)
H12 H -0.7904 0.4289 -0.0376
C19 C -0.7275(3) 0.52400(13) 0.02586(14)
C20 C -0.7126(3) 0.57719(14) -0.04067(14)
C21 C -0.7452(4) 0.55750(17) -0.12108(16)
H13 H -0.7720 0.5083 -0.1360
C22 C -0.7373(5) 0.6120(2) -0.17904(17)
H14 H -0.7593 0.5999 -0.2334
C23 C -0.6965(5) 0.6842(2) -0.15519(19)
H15 H -0.6929 0.7219 -0.1931
C24 C -0.6610(5) 0.70006(16) -0.07394(18)
H16 H -0.6304 0.7488 -0.0579
N1 N -0.6693(3) 0.64779(12) -0.01754(12)
N2 N -0.6975(3) 0.55367(12) 0.10009(12)
Ni1 Ni -0.62558(5) 0.665490(17) 0.104820(18)
O1 O -0.5338(3) 0.66969(11) 0.22650(12)
O2 O -0.3067(3) 0.63613(11) 0.15144(11)
O3 O 0.7718(3) 0.33687(10) 0.36774(14)
O4 O 0.5284(3) 0.26916(10) 0.40787(13)
O5 O -0.9155(3) 0.70149(11) 0.10589(12)
H17 H -0.8976 0.7464 0.1195
H18 H -1.0095 0.6843 0.1268
Ni1A Ni 0.62558(5) 0.165490(17) 0.395180(18)
O4A O -0.5284(3) 0.76916(10) 0.09213(13)
loop_
_geom_bond_atom_site_label_1
_geom_bond_atom_site_label_2
_geom_bond_site_symmetry_1
_geom_bond_site_symmetry_2
C1 C2 1_555 1_555
C2 C3 1_555 1_555
C3 H1 1_555 1_555
C4 C3 1_555 1_555
H2 C4 1_555 1_555
C5 C4 1_555 1_555
H3 C5 1_555 1_555
C6 C5 1_555 1_555
C7 C2 1_555 1_555
H4 C7 1_555 1_555
C8 C6 1_555 1_555
C9 C8 1_555 1_555
H5 C9 1_555 1_555
C10 C9 1_555 1_555
H6 C10 1_555 1_555
C11 C10 1_555 1_555
C12 C11 1_555 1_555
H7 C12 1_555 1_555
C13 C8 1_555 1_555
H8 C13 1_555 1_555
C14 C11 1_555 1_555
C15 H9 1_555 1_555
C16 C15 1_555 1_555
H10 C16 1_555 1_555
C17 C16 1_555 1_555
H11 C17 1_555 1_555
C18 C17 1_555 1_555
H12 C18 1_555 1_555
C19 C18 1_555 1_555
C20 C19 1_555 1_555
C21 C20 1_555 1_555
H13 C21 1_555 1_555
C22 C21 1_555 1_555
H14 C22 1_555 1_555
C23 C22 1_555 1_555
H15 C23 1_555 1_555
C24 C23 1_555 1_555
H16 C24 1_555 1_555
N1 C20 1_555 1_555
N2 C15 1_555 1_555
Ni1 N1 1_555 1_555
O1 C1 1_555 1_555
O2 C1 1_555 1_555
O3 C14 1_555 1_555
O4 C14 1_555 1_555
O5 Ni1 1_555 1_555
H17 O5 1_555 1_555
H18 O5 1_555 1_555
Ni1A O4 1_555 1_555
O4A Ni1 1_555 1_555
C6 C7 1_555 1_555
C12 C13 1_555 1_555
C19 N2 1_555 1_555
C24 N1 1_555 1_555
N2 Ni1 1_555 1_555
Ni1 O1 1_555 1_555
Ni1 O2 1_555 1_555

#END
