
#######################################################################
#
#                 Cambridge Crystallographic Data Centre
#                                CCDC 
#
#######################################################################
#
# If this CIF has been generated from an entry in the Cambridge 
# Structural Database, then it will include bibliographic, chemical, 
# crystal, experimental, refinement or atomic coordinate data resulting 
# from the CCDC's data processing and validation procedures.
#
#######################################################################

data_DUWQAO
_symmetry_cell_setting           triclinic
_symmetry_space_group_name_H-M   'P -1'
_symmetry_Int_Tables_number      2
_space_group_name_Hall           '-P 1'
loop_
_symmetry_equiv_pos_site_id
_symmetry_equiv_pos_as_xyz
1 x,y,z
2 -x,-y,-z
_cell_length_a                   8.2094(6)
_cell_length_b                   9.4362(7)
_cell_length_c                   14.1575(11)
_cell_angle_alpha                93.1740(10)
_cell_angle_beta                 97.8160(10)
_cell_angle_gamma                106.4150(10)
_cell_volume                     1037.15
loop_
_atom_site_label
_atom_site_type_symbol
_atom_site_fract_x
_atom_site_fract_y
_atom_site_fract_z
Cd1 Cd 0.802942(18) 0.132956(16) 0.749032(10)
O1 O 1.0997(2) 0.1211(2) 0.79151(15)
O2 O 0.9016(2) -0.0215(2) 0.86034(13)
O3 O 0.9279(2) 0.37666(19) 0.78885(13)
O4 O 0.6786(2) 0.3541(2) 0.70516(14)
N1 N 1.3617(2) 0.06329(19) 0.90968(12)
N2 N 1.4489(2) 0.0316(2) 0.84265(14)
N3 N 1.6016(2) 0.1288(2) 0.85674(14)
N4 N 0.6337(2) -0.0809(2) 0.65322(13)
N5 N 0.8589(2) 0.1456(2) 0.59052(13)
C1 C 1.4567(3) 0.1853(2) 0.96843(14)
C2 C 1.4242(3) 0.2614(3) 1.04758(17)
H3 H 1.3191 0.2334 1.0696
C3 C 1.5571(4) 0.3798(3) 1.09062(18)
H4 H 1.5415 0.4348 1.1434
C4 C 1.7166(4) 0.4216(3) 1.05791(18)
H5 H 1.8035 0.5023 1.0903
C5 C 1.7475(3) 0.3478(3) 0.98063(17)
H6 H 1.8531 0.3764 0.9592
C6 C 1.6133(3) 0.2269(2) 0.93475(15)
C7 C 1.1851(3) -0.0237(2) 0.91019(16)
H7 H 1.1625 -0.0227 0.9757
H8 H 1.1713 -0.1258 0.8871
C8 C 1.0537(3) 0.0314(2) 0.84952(15)
C9 C 0.5267(4) -0.1933(3) 0.68802(19)
H9 H 0.5175 -0.1846 0.7527
C10 C 0.4297(4) -0.3211(3) 0.6324(2)
H10 H 0.3585 -0.3984 0.6590
C11 C 0.4408(4) -0.3313(3) 0.5369(2)
H11 H 0.3750 -0.4155 0.4971
C12 C 0.5499(3) -0.2164(3) 0.49988(19)
H12 H 0.5584 -0.2223 0.4350
C13 C 0.6466(3) -0.0922(3) 0.55986(15)
C14 C 0.7712(3) 0.0329(3) 0.52506(16)
C15 C 0.7993(4) 0.0336(3) 0.43058(18)
H13 H 0.7373 -0.0453 0.3855
C16 C 0.9190(4) 0.1512(4) 0.4045(2)
H14 H 0.9405 0.1523 0.3417
C17 C 1.0067(4) 0.2666(3) 0.4709(2)
H15 H 1.0869 0.3485 0.4539
C18 C 0.9746(3) 0.2602(3) 0.56320(19)
H16 H 1.0357 0.3386 0.6087
C19 C 0.8156(3) 0.4319(3) 0.75268(17)
C20 C 0.8498(5) 0.5964(3) 0.7728(3)
H17 H 0.7812 0.6313 0.7242
H18 H 0.9693 0.6454 0.7726
H19 H 0.8207 0.6177 0.8343
Cd1_2 Cd 1.802942(18) 0.132956(16) 0.749032(10)
N3_2 N 0.6016(2) 0.1288(2) 0.85674(14)
O5 O 0.6617(3) 0.6518(2) 0.28649(16)
H1 H 0.7165 0.7170 0.2541
H2 H 0.5587 0.6557 0.2760
loop_
_geom_bond_atom_site_label_1
_geom_bond_atom_site_label_2
_geom_bond_site_symmetry_1
_geom_bond_site_symmetry_2
Cd1 O1 1_555 1_555
O1 C8 1_555 1_555
O2 Cd1 1_555 1_555
O3 Cd1 1_555 1_555
O4 Cd1 1_555 1_555
O5 H1 1_555 1_555
H2 O5 1_555 1_555
N1 N2 1_555 1_555
N2 N3 1_555 1_555
N3 C6 1_555 1_555
N4 Cd1 1_555 1_555
N5 Cd1 1_555 1_555
C1 N1 1_555 1_555
C2 C1 1_555 1_555
H3 C2 1_555 1_555
C3 C2 1_555 1_555
H4 C3 1_555 1_555
C4 C3 1_555 1_555
H5 C4 1_555 1_555
C5 C4 1_555 1_555
H6 C5 1_555 1_555
C6 C1 1_555 1_555
C7 N1 1_555 1_555
H7 C7 1_555 1_555
H8 C7 1_555 1_555
C8 O2 1_555 1_555
C9 N4 1_555 1_555
H9 C9 1_555 1_555
C10 C9 1_555 1_555
H10 C10 1_555 1_555
C11 C10 1_555 1_555
H11 C11 1_555 1_555
C12 C11 1_555 1_555
H12 C12 1_555 1_555
C13 N4 1_555 1_555
C14 N5 1_555 1_555
C15 C14 1_555 1_555
H13 C15 1_555 1_555
C16 C15 1_555 1_555
H14 C16 1_555 1_555
C17 C16 1_555 1_555
H15 C17 1_555 1_555
C18 N5 1_555 1_555
H16 C18 1_555 1_555
C19 O3 1_555 1_555
C20 C19 1_555 1_555
H17 C20 1_555 1_555
H18 C20 1_555 1_555
H19 C20 1_555 1_555
Cd1_2 N3 1_555 1_555
N3_2 Cd1 1_555 1_555
O4 C19 1_555 1_555
C5 C6 1_555 1_555
C7 C8 1_555 1_555
C12 C13 1_555 1_555
C13 C14 1_555 1_555
C17 C18 1_555 1_555

#END
