
#######################################################################
#
#                 Cambridge Crystallographic Data Centre
#                                CCDC 
#
#######################################################################
#
# If this CIF has been generated from an entry in the Cambridge 
# Structural Database, then it will include bibliographic, chemical, 
# crystal, experimental, refinement or atomic coordinate data resulting 
# from the CCDC's data processing and validation procedures.
#
#######################################################################

data_DUWQIW01
_symmetry_cell_setting           monoclinic
_symmetry_space_group_name_H-M   'P 21/c'
_symmetry_Int_Tables_number      14
_space_group_name_Hall           '-P 2ybc'
loop_
_symmetry_equiv_pos_site_id
_symmetry_equiv_pos_as_xyz
1 x,y,z
2 -x,1/2+y,1/2-z
3 -x,-y,-z
4 x,1/2-y,1/2+z
_cell_length_a                   16.2735(18)
_cell_length_b                   7.0113(8)
_cell_length_c                   7.9722(9)
_cell_angle_alpha                90
_cell_angle_beta                 90.037(1)
_cell_angle_gamma                90
_cell_volume                     909.615
loop_
_atom_site_label
_atom_site_type_symbol
_atom_site_fract_x
_atom_site_fract_y
_atom_site_fract_z
Mn1 Mn 0.5000 0.5000 0.5000
O1 O 0.58531(12) 0.5437(3) 0.7025(2)
O2 O 0.51631(10) 0.7181(3) 0.8897(2)
O3 O 0.39929(11) 0.6080(3) 0.6582(3)
H1 H 0.3678 0.6762 0.6001
H2 H 0.4189 0.6732 0.7371
N1 N 0.72673(14) 0.5551(3) 0.8813(3)
N2 N 0.73932(16) 0.3634(3) 0.8769(4)
N3 N 0.80867(16) 0.3296(4) 0.7996(4)
C1 C 0.57911(15) 0.6313(3) 0.8399(3)
C2 C 0.65311(16) 0.6316(4) 0.9553(3)
H3 H 0.6638 0.7616 0.9907
H4 H 0.6400 0.5579 1.0547
C3 C 0.78901(16) 0.6476(4) 0.8027(3)
C4 C 0.80599(18) 0.8401(4) 0.7747(4)
H5 H 0.7703 0.9362 0.8089
C5 C 0.8776(2) 0.8787(5) 0.6948(4)
H6 H 0.8915 1.0054 0.6750
C6 C 0.9321(2) 0.7338(6) 0.6401(5)
H7 H 0.9800 0.7669 0.5836
C7 C 0.9149(2) 0.5453(5) 0.6698(5)
H8 H 0.9510 0.4495 0.6369
C8 C 0.84159(19) 0.5027(4) 0.7509(4)
O1B O 0.41469(12) 0.4563(3) 0.2975(2)
O2B O 0.48369(10) 0.2819(3) 0.1103(2)
O3B O 0.60071(11) 0.3920(3) 0.3418(3)
H1B H 0.6322 0.3238 0.3999
H2B H 0.5811 0.3268 0.2629
N1B N 0.27327(14) 0.4449(3) 0.1187(3)
N2B N 0.26068(16) 0.6366(3) 0.1231(4)
N3B N 0.19133(16) 0.6704(4) 0.2004(4)
C1B C 0.42089(15) 0.3687(3) 0.1601(3)
C2B C 0.34689(16) 0.3684(4) 0.0447(3)
H3B H 0.3362 0.2384 0.0093
H4B H 0.3600 0.4421 -0.0547
C3B C 0.21099(16) 0.3524(4) 0.1973(3)
C4B C 0.19401(18) 0.1599(4) 0.2253(4)
H5B H 0.2297 0.0638 0.1911
C5B C 0.1224(2) 0.1213(5) 0.3052(4)
H6B H 0.1085 -0.0054 0.3250
C6B C 0.0679(2) 0.2662(6) 0.3599(5)
H7B H 0.0200 0.2331 0.4164
C7B C 0.0851(2) 0.4547(5) 0.3302(5)
H8B H 0.0490 0.5505 0.3631
C8B C 0.15841(19) 0.4973(4) 0.2491(4)
Mn1A Mn 0.5000 0.0000 0.0000
Mn1A_2 Mn 0.5000 1.0000 1.0000
O2A O 0.48369(10) 0.2181(3) 0.6103(2)
O2C O 0.51631(10) 0.7819(3) 0.3897(2)
loop_
_geom_bond_atom_site_label_1
_geom_bond_atom_site_label_2
_geom_bond_site_symmetry_1
_geom_bond_site_symmetry_2
Mn1 O1 1_555 1_555
O1 C1 1_555 1_555
O2 C1 1_555 1_555
O3 Mn1 1_555 1_555
H1 O3 1_555 1_555
H2 O3 1_555 1_555
N1 N2 1_555 1_555
N2 N3 1_555 1_555
N3 C8 1_555 1_555
C1 C2 1_555 1_555
C2 N1 1_555 1_555
H3 C2 1_555 1_555
H4 C2 1_555 1_555
C3 N1 1_555 1_555
C4 C3 1_555 1_555
H5 C4 1_555 1_555
C5 C4 1_555 1_555
H6 C5 1_555 1_555
C6 C5 1_555 1_555
H7 C6 1_555 1_555
C7 C6 1_555 1_555
H8 C7 1_555 1_555
C8 C3 1_555 1_555
O1B Mn1 1_555 1_555
O2B C1B 1_555 1_555
O3B Mn1 1_555 1_555
H1B O3B 1_555 1_555
H2B O3B 1_555 1_555
N1B N2B 1_555 1_555
N2B N3B 1_555 1_555
N3B C8B 1_555 1_555
C1B O1B 1_555 1_555
C2B N1B 1_555 1_555
H3B C2B 1_555 1_555
H4B C2B 1_555 1_555
C3B N1B 1_555 1_555
C4B C3B 1_555 1_555
H5B C4B 1_555 1_555
C5B C4B 1_555 1_555
H6B C5B 1_555 1_555
C6B C5B 1_555 1_555
H7B C6B 1_555 1_555
C7B C6B 1_555 1_555
H8B C7B 1_555 1_555
C8B C3B 1_555 1_555
Mn1A O2B 1_555 1_555
Mn1A_2 O2 1_555 1_555
O2A Mn1 1_555 1_555
O2C Mn1 1_555 1_555
C7 C8 1_555 1_555
C1B C2B 1_555 1_555
C7B C8B 1_555 1_555

#END
