
#######################################################################
#
#                 Cambridge Crystallographic Data Centre
#                                CCDC 
#
#######################################################################
#
# If this CIF has been generated from an entry in the Cambridge 
# Structural Database, then it will include bibliographic, chemical, 
# crystal, experimental, refinement or atomic coordinate data resulting 
# from the CCDC's data processing and validation procedures.
#
#######################################################################

data_DUWROC
_symmetry_cell_setting           monoclinic
_symmetry_space_group_name_H-M   'P 21/a'
_symmetry_Int_Tables_number      14
_space_group_name_Hall           '-P 2yab'
loop_
_symmetry_equiv_pos_site_id
_symmetry_equiv_pos_as_xyz
1 x,y,z
2 1/2-x,1/2+y,-z
3 -x,-y,-z
4 1/2+x,1/2-y,z
_cell_length_a                   13.56(1)
_cell_length_b                   7.17(1)
_cell_length_c                   6.48(1)
_cell_angle_alpha                90
_cell_angle_beta                 101.0(2)
_cell_angle_gamma                90
_cell_volume                     618.444
loop_
_atom_site_label
_atom_site_type_symbol
_atom_site_fract_x
_atom_site_fract_y
_atom_site_fract_z
Fe1 Fe 0.0000 0.0000 1.0000
N1 N -0.0044(5) 0.3088(10) 1.0190(9)
C1 C 0.0529(6) 0.3885(13) 0.8952(12)
C2 C -0.0560(6) 0.4228(11) 1.1242(11)
C3 C 0.1129(6) 0.2551(14) 0.7823(12)
C4 C -0.1169(7) 0.3194(12) 1.2612(12)
O1 O 0.0956(5) 0.0887(8) 0.8050(9)
O2 O 0.1761(4) 0.3224(9) 0.6879(9)
O3 O -0.0828(5) 0.2805(9) 1.4414(8)
O4 O -0.2049(5) 0.2668(9) 1.1512(9)
O5 O -0.1219(4) 0.0179(8) 0.7386(9)
H1 H -0.1744 0.0030 0.7693
H3 H -0.2446 0.2028 1.2529
N1B N 0.0044(5) -0.3088(10) 0.9810(9)
O1B O -0.0956(5) -0.0887(8) 1.1950(9)
O5B O 0.1219(4) -0.0179(8) 1.2614(9)
C2B C 0.0560(6) 0.5772(11) 0.8758(11)
C1B C -0.0529(6) 0.6115(13) 1.1048(12)
H1B H 0.1744 -0.0030 1.2307
N1B_2 N 0.0044(5) 0.6912(10) 0.9810(9)
C4B C 0.1169(7) 0.6806(12) 0.7388(12)
C3B C -0.1129(6) 0.7449(14) 1.2177(12)
O3B O 0.0828(5) 0.7195(9) 0.5586(8)
O4B O 0.2049(5) 0.7332(9) 0.8488(9)
H3B H 0.2446 0.7972 0.7471
Fe1_2 Fe 0.0000 1.0000 1.0000
O1B_2 O -0.0956(5) 0.9113(8) 1.1950(9)
O2B O -0.1761(4) 0.6776(9) 1.3121(9)
O6 O 0.2010(5) 0.4866(9) 0.3055(9)
H2 H 0.1759 0.4276 0.4430
loop_
_geom_bond_atom_site_label_1
_geom_bond_atom_site_label_2
_geom_bond_site_symmetry_1
_geom_bond_site_symmetry_2
Fe1 N1 1_555 1_555
N1 C1 1_555 1_555
C1 C3 1_555 1_555
C2 N1 1_555 1_555
C3 O1 1_555 1_555
C4 C2 1_555 1_555
O1 Fe1 1_555 1_555
O2 C3 1_555 1_555
O3 C4 1_555 1_555
O4 C4 1_555 1_555
O5 Fe1 1_555 1_555
O6 H2 1_555 1_555
H1 O5 1_555 1_555
H3 O4 1_555 1_555
N1B Fe1 1_555 1_555
O1B Fe1 1_555 1_555
O5B Fe1 1_555 1_555
C2B C1 1_555 1_555
C1B C2 1_555 1_555
H1B O5B 1_555 1_555
N1B_2 C2B 1_555 1_555
C4B C2B 1_555 1_555
C3B C1B 1_555 1_555
O3B C4B 1_555 1_555
O4B C4B 1_555 1_555
H3B O4B 1_555 1_555
Fe1_2 N1B_2 1_555 1_555
O1B_2 C3B 1_555 1_555
O2B C3B 1_555 1_555
C1B N1B_2 1_555 1_555
Fe1_2 O1B_2 1_555 1_555

#END
