
#######################################################################
#
#                 Cambridge Crystallographic Data Centre
#                                CCDC 
#
#######################################################################
#
# If this CIF has been generated from an entry in the Cambridge 
# Structural Database, then it will include bibliographic, chemical, 
# crystal, experimental, refinement or atomic coordinate data resulting 
# from the CCDC's data processing and validation procedures.
#
#######################################################################

data_DUWRET
_symmetry_cell_setting           monoclinic
_symmetry_space_group_name_H-M   'P 21/c'
_symmetry_Int_Tables_number      14
_space_group_name_Hall           '-P 2ybc'
loop_
_symmetry_equiv_pos_site_id
_symmetry_equiv_pos_as_xyz
1 x,y,z
2 -x,1/2+y,1/2-z
3 -x,-y,-z
4 x,1/2-y,1/2+z
_cell_length_a                   14.721(2)
_cell_length_b                   6.1123(9)
_cell_length_c                   22.585(3)
_cell_angle_alpha                90
_cell_angle_beta                 128.369(6)
_cell_angle_gamma                90
_cell_volume                     1593.29
loop_
_atom_site_label
_atom_site_type_symbol
_atom_site_fract_x
_atom_site_fract_y
_atom_site_fract_z
C1 C -0.2869(4) 0.8436(7) 0.5147(2)
H1 H -0.3042 0.9767 0.4898
C2 C -0.2049(3) 0.7078(6) 0.52240(19)
C3 C -0.1565(3) 0.7778(6) 0.48305(19)
O1 O -0.0690(2) 0.8978(4) 0.51471(15)
O2 O -0.2117(2) 0.7236(5) 0.41567(13)
Gd1 Gd 0.101140(13) 1.09382(2) 0.616600(9)
C4 C 0.3586(3) 1.2568(6) 0.78269(19)
O3 O 0.1723(2) 1.4046(4) 0.69416(15)
O4 O 0.2940(3) 1.5825(4) 0.80218(17)
O5 O -0.0491(2) 0.2117(4) 0.62429(14)
O6 O -0.0457(2) 0.3853(4) 0.54070(13)
O7 O 0.1680(2) 0.7458(4) 0.60776(15)
O8 O 0.1187(3) 0.8898(5) 0.71178(19)
N1 N 0.3219(3) 1.0854(5) 0.73529(17)
C5 C 0.3999(4) 0.9326(6) 0.7531(2)
H2 H 0.3758 0.8125 0.7213
C6 C 0.5150(4) 0.9442(7) 0.8168(3)
H3 H 0.5671 0.8352 0.8270
C7 C 0.5510(4) 1.1206(8) 0.8649(3)
H4 H 0.6277 1.1322 0.9083
C8 C 0.4719(3) 1.2774(7) 0.8475(2)
H5 H 0.4940 1.3974 0.8792
C9 C 0.2693(3) 1.4287(6) 0.7593(2)
C10 C -0.0861(3) 0.3604(6) 0.57621(19)
C11 C -0.1776(3) 0.5115(6) 0.56165(18)
C12 C -0.2362(4) 0.4541(7) 0.5891(2)
H6 H -0.2180 0.3234 0.6154
C13 C -0.3209(4) 0.5864(8) 0.5783(3)
H7 H -0.3626 0.5421 0.5946
C14 C -0.3433(4) 0.7855(9) 0.5431(3)
H8 H -0.3966 0.8807 0.5385
H9 H 0.133(4) 0.703(8) 0.5624(11)
H10 H 0.171(3) 0.799(7) 0.743(2)
H11 H 0.154(4) 0.673(7) 0.633(2)
H12 H 0.051(2) 0.867(10) 0.699(4)
O1B O 0.0690(2) 1.1022(4) 0.48529(15)
O2B O 0.2117(2) 1.2764(5) 0.58433(13)
Gd1B Gd -0.101140(13) 0.90618(2) 0.383400(9)
Gd1_2 Gd 0.101140(13) 0.09382(2) 0.616600(9)
O5_2 O -0.0491(2) 1.2117(4) 0.62429(14)
O6_2 O -0.0457(2) 1.3853(4) 0.54070(13)
O9 O 0.9516(4) 0.8613(8) 0.7248(2)
H13 H 0.982(5) 0.830(13) 0.7703(14)
H14 H 0.8792(15) 0.884(13) 0.695(3)
loop_
_geom_bond_atom_site_label_1
_geom_bond_atom_site_label_2
_geom_bond_site_symmetry_1
_geom_bond_site_symmetry_2
C1 H1 1_555 1_555
C2 C1 1_555 1_555
C3 C2 1_555 1_555
O1 C3 1_555 1_555
O2 C3 1_555 1_555
Gd1 O1 1_555 1_555
C4 N1 1_555 1_555
O3 Gd1 1_555 1_555
O4 C9 1_555 1_555
O5 C10 1_555 1_555
O6 C10 1_555 1_555
O7 Gd1 1_555 1_555
O8 Gd1 1_555 1_555
O9 H13 1_555 1_555
N1 Gd1 1_555 1_555
C5 N1 1_555 1_555
H2 C5 1_555 1_555
C6 C5 1_555 1_555
H3 C6 1_555 1_555
C7 C6 1_555 1_555
H4 C7 1_555 1_555
C8 C4 1_555 1_555
H5 C8 1_555 1_555
C9 C4 1_555 1_555
C10 C11 1_555 1_555
C11 C2 1_555 1_555
C12 C11 1_555 1_555
H6 C12 1_555 1_555
C13 C12 1_555 1_555
H7 C13 1_555 1_555
C14 C1 1_555 1_555
H8 C14 1_555 1_555
H9 O7 1_555 1_555
H10 O8 1_555 1_555
H11 O7 1_555 1_555
H12 O8 1_555 1_555
H14 O9 1_555 1_555
O1B Gd1 1_555 1_555
O2B Gd1 1_555 1_555
Gd1B O1 1_555 1_555
Gd1_2 O5 1_555 1_555
O5_2 Gd1 1_555 1_555
O6_2 Gd1 1_555 1_555
O2 Gd1B 1_555 1_555
O3 C9 1_555 1_555
O6 Gd1_2 1_555 1_555
C7 C8 1_555 1_555
C13 C14 1_555 1_555
O1B Gd1B 1_555 1_555

#END
