
#######################################################################
#
#                 Cambridge Crystallographic Data Centre
#                                CCDC 
#
#######################################################################
#
# If this CIF has been generated from an entry in the Cambridge 
# Structural Database, then it will include bibliographic, chemical, 
# crystal, experimental, refinement or atomic coordinate data resulting 
# from the CCDC's data processing and validation procedures.
#
#######################################################################

data_DUWRAP
_symmetry_cell_setting           triclinic
_symmetry_space_group_name_H-M   'P -1'
_symmetry_Int_Tables_number      2
_space_group_name_Hall           '-P 1'
loop_
_symmetry_equiv_pos_site_id
_symmetry_equiv_pos_as_xyz
1 x,y,z
2 -x,-y,-z
_cell_length_a                   11.251(2)
_cell_length_b                   11.554(2)
_cell_length_c                   12.185(2)
_cell_angle_alpha                81.72(3)
_cell_angle_beta                 84.72(3)
_cell_angle_gamma                82.70(3)
_cell_volume                     1550.37
loop_
_atom_site_label
_atom_site_type_symbol
_atom_site_fract_x
_atom_site_fract_y
_atom_site_fract_z
Gd1 Gd 0.416624(16) 0.981082(17) 0.666825(15)
Cu1 Cu 0.5000 1.0000 1.0000
Cu2 Cu 0.0000 1.0000 1.0000
N1 N -0.0700(3) 1.0327(3) 0.8568(2)
O1 O 0.3818(3) 0.8269(3) 0.5765(3)
O2 O 0.4788(3) 0.8637(3) 0.4122(3)
O3 O 0.2929(3) 1.0888(3) 0.5342(3)
O4 O 0.3911(2) 1.1055(3) 0.3673(3)
O5 O 0.4548(2) 0.8557(2) 0.8303(2)
O6 O 0.4259(2) 0.8565(2) 1.0123(2)
O7 O 0.3811(2) 1.1095(2) 0.7997(2)
O8 O 0.3451(2) 1.0976(2) 0.9836(2)
O9 O 0.2153(2) 0.9441(3) 0.7354(2)
O10 O 0.1420(2) 0.9408(2) 0.9122(2)
C1 C 0.4208(3) 0.7999(3) 0.4834(3)
C2 C 0.3949(3) 0.6851(3) 0.4548(3)
C3 C 0.3191(4) 0.6183(4) 0.5255(4)
H1 H 0.2839 0.6455 0.5905
C4 C 0.2954(6) 0.5107(5) 0.4998(6)
H2 H 0.2442 0.4655 0.5470
C5 C 0.3482(7) 0.4725(5) 0.4044(8)
H3 H 0.3319 0.4010 0.3863
C6 C 0.4250(6) 0.5377(6) 0.3345(6)
H4 H 0.4619 0.5094 0.2706
C7 C 0.4470(4) 0.6439(4) 0.3592(4)
H5 H 0.4976 0.6889 0.3110
C8 C 0.3019(3) 1.1274(4) 0.4331(4)
C9 C 0.1977(3) 1.2066(3) 0.3862(3)
C10 C 0.1971(4) 1.2478(4) 0.2738(4)
H6 H 0.2625 1.2270 0.2253
C11 C 0.0981(5) 1.3206(5) 0.2340(5)
H7 H 0.0969 1.3492 0.1588
C12 C 0.0015(5) 1.3503(5) 0.3069(6)
H8 H -0.0656 1.3976 0.2801
C13 C 0.0033(5) 1.3117(5) 0.4161(5)
H9 H -0.0615 1.3342 0.4646
C14 C 0.1004(4) 1.2392(4) 0.4564(4)
H10 H 0.1004 1.2119 0.5321
C15 C 0.4208(3) 0.8099(3) 0.9254(3)
C16 C 0.3743(3) 0.6930(3) 0.9400(3)
C17 C 0.3462(4) 0.6459(4) 0.8500(4)
H11 H 0.3536 0.6883 0.7792
C18 C 0.3071(6) 0.5365(5) 0.8637(5)
H12 H 0.2866 0.5060 0.8023
C19 C 0.2979(5) 0.4717(5) 0.9670(5)
H13 H 0.2730 0.3970 0.9756
C20 C 0.3258(5) 0.5178(4) 1.0571(5)
H14 H 0.3200 0.4743 1.1274
C21 C 0.3624(4) 0.6285(4) 1.0440(4)
H15 H 0.3792 0.6602 1.1060
C22 C 0.3158(3) 1.1325(3) 0.8858(3)
C23 C 0.1982(3) 1.2083(3) 0.8702(3)
C24 C 0.1679(4) 1.2582(4) 0.7647(4)
H16 H 0.2220 1.2474 0.7036
C25 C 0.0576(5) 1.3240(4) 0.7498(5)
H17 H 0.0377 1.3574 0.6788
C26 C -0.0227(5) 1.3401(4) 0.8398(5)
H18 H -0.0966 1.3846 0.8296
C27 C 0.0059(4) 1.2906(4) 0.9453(5)
H19 H -0.0490 1.3010 1.0059
C28 C 0.1165(4) 1.2253(4) 0.9607(4)
H20 H 0.1362 1.1927 1.0320
C29 C 0.1331(3) 0.9600(3) 0.8078(3)
C30 C 0.0095(3) 1.0066(3) 0.7726(3)
C31 C -0.0216(4) 1.0260(4) 0.6636(3)
H21 H 0.0346 1.0081 0.6059
C32 C -0.1376(4) 1.0723(4) 0.6425(4)
H22 H -0.1606 1.0860 0.5699
C33 C -0.2192(4) 1.0981(4) 0.7293(4)
H23 H -0.2980 1.1285 0.7164
C34 C -0.1819(3) 1.0782(4) 0.8360(3)
H24 H -0.2362 1.0971 0.8948
Gd1A Gd 0.583376(16) 1.018918(17) 1.333175(15)
Gd1A_2 Gd 0.583376(16) 1.018918(17) 0.333175(15)
Cu2_2 Cu 1.0000 1.0000 1.0000
N1A N 1.0700(3) 0.9673(3) 1.1432(2)
N1A_2 N 0.0700(3) 0.9673(3) 1.1432(2)
O1A O 0.6182(3) 1.1731(3) 0.4235(3)
O1A_2 O 0.6182(3) 1.1731(3) 1.4235(3)
O2A O 0.5212(3) 1.1363(3) 0.5878(3)
O2_2 O 0.4788(3) 0.8637(3) 1.4122(3)
O3A O 0.7071(3) 0.9112(3) 0.4658(3)
O3A_2 O 0.7071(3) 0.9112(3) 1.4658(3)
O4A O 0.6089(2) 0.8945(3) 0.6327(3)
O4_2 O 0.3911(2) 1.1055(3) 1.3673(3)
O5A O 0.5452(2) 1.1443(2) 1.1697(2)
O6A O 0.5741(2) 1.1435(2) 0.9877(2)
O7A O 0.6189(2) 0.8905(2) 1.2003(2)
O8A O 0.6549(2) 0.9024(2) 1.0164(2)
O9A O 0.7847(2) 1.0559(3) 1.2646(2)
O10A O 0.8580(2) 1.0592(2) 1.0878(2)
O10A_2 O -0.1420(2) 1.0592(2) 1.0878(2)
C1A C 0.5792(3) 1.2001(3) 0.5166(3)
C2A C 0.6051(3) 1.3149(3) 0.5452(3)
C3A C 0.6809(4) 1.3817(4) 0.4745(4)
H1A H 0.7161 1.3545 0.4095
C4A C 0.7046(6) 1.4893(5) 0.5002(6)
H2A H 0.7558 1.5345 0.4530
C5A C 0.6518(7) 1.5275(5) 0.5956(8)
H3A H 0.6681 1.5990 0.6137
C6A C 0.5750(6) 1.4623(6) 0.6655(6)
H4A H 0.5381 1.4906 0.7294
C7A C 0.5530(4) 1.3561(4) 0.6408(4)
H5A H 0.5024 1.3111 0.6890
C8A C 0.6981(3) 0.8726(4) 0.5669(4)
C9A C 0.8023(3) 0.7934(3) 0.6138(3)
C10A C 0.8029(4) 0.7522(4) 0.7262(4)
H6A H 0.7375 0.7730 0.7747
C11A C 0.9019(5) 0.6794(5) 0.7660(5)
H7A H 0.9031 0.6508 0.8412
C12A C 0.9985(5) 0.6497(5) 0.6931(6)
H8A H 1.0656 0.6024 0.7199
C13A C 0.9967(5) 0.6883(5) 0.5839(5)
H9A H 1.0615 0.6658 0.5354
C14A C 0.8996(4) 0.7608(4) 0.5436(4)
H10A H 0.8996 0.7881 0.4679
C15A C 0.5792(3) 1.1901(3) 1.0746(3)
C16A C 0.6257(3) 1.3070(3) 1.0600(3)
C17A C 0.6538(4) 1.3541(4) 1.1500(4)
H11A H 0.6464 1.3117 1.2208
C18A C 0.6929(6) 1.4635(5) 1.1363(5)
H12A H 0.7134 1.4940 1.1977
C19A C 0.7021(5) 1.5283(5) 1.0330(5)
H13A H 0.7270 1.6030 1.0244
C20A C 0.6742(5) 1.4822(4) 0.9429(5)
H14A H 0.6800 1.5257 0.8726
C21A C 0.6376(4) 1.3715(4) 0.9560(4)
H15A H 0.6208 1.3398 0.8940
C22A C 0.6842(3) 0.8675(3) 1.1142(3)
C23A C 0.8018(3) 0.7917(3) 1.1298(3)
C24A C 0.8321(4) 0.7418(4) 1.2353(4)
H16A H 0.7780 0.7526 1.2964
C25A C 0.9424(5) 0.6760(4) 1.2502(5)
H17A H 0.9623 0.6426 1.3212
C26A C 1.0227(5) 0.6599(4) 1.1602(5)
H18A H 1.0966 0.6154 1.1704
C27A C 0.9941(4) 0.7094(4) 1.0547(5)
H19A H 1.0490 0.6990 0.9941
C28A C 0.8835(4) 0.7747(4) 1.0393(4)
H20A H 0.8638 0.8073 0.9680
C29A C 0.8669(3) 1.0400(3) 1.1922(3)
C30A C 0.9905(3) 0.9934(3) 1.2274(3)
C31A C 1.0216(4) 0.9740(4) 1.3364(3)
H21A H 0.9654 0.9919 1.3941
C32A C 1.1376(4) 0.9277(4) 1.3575(4)
H22A H 1.1606 0.9140 1.4301
C33A C 1.2192(4) 0.9019(4) 1.2707(4)
H23A H 1.2980 0.8715 1.2836
C34A C 1.1819(3) 0.9218(4) 1.1640(3)
H24A H 1.2362 0.9029 1.1052
loop_
_geom_bond_atom_site_label_1
_geom_bond_atom_site_label_2
_geom_bond_site_symmetry_1
_geom_bond_site_symmetry_2
Gd1 O1 1_555 1_555
Cu1 O6 1_555 1_555
Cu2 N1 1_555 1_555
N1 C30 1_555 1_555
O1 C1 1_555 1_555
O2 C1 1_555 1_555
O3 Gd1 1_555 1_555
O4 C8 1_555 1_555
O5 Gd1 1_555 1_555
O6 C15 1_555 1_555
O7 Gd1 1_555 1_555
O8 Cu1 1_555 1_555
O9 Gd1 1_555 1_555
O10 Cu2 1_555 1_555
C1 C2 1_555 1_555
C2 C3 1_555 1_555
C3 H1 1_555 1_555
C4 C3 1_555 1_555
H2 C4 1_555 1_555
C5 C4 1_555 1_555
H3 C5 1_555 1_555
C6 C5 1_555 1_555
H4 C6 1_555 1_555
C7 C2 1_555 1_555
H5 C7 1_555 1_555
C8 O3 1_555 1_555
C9 C8 1_555 1_555
C10 C9 1_555 1_555
H6 C10 1_555 1_555
C11 C10 1_555 1_555
H7 C11 1_555 1_555
C12 C11 1_555 1_555
H8 C12 1_555 1_555
C13 C12 1_555 1_555
H9 C13 1_555 1_555
C14 C9 1_555 1_555
H10 C14 1_555 1_555
C15 O5 1_555 1_555
C16 C15 1_555 1_555
C17 C16 1_555 1_555
H11 C17 1_555 1_555
C18 C17 1_555 1_555
H12 C18 1_555 1_555
C19 C18 1_555 1_555
H13 C19 1_555 1_555
C20 C19 1_555 1_555
H14 C20 1_555 1_555
C21 C16 1_555 1_555
H15 C21 1_555 1_555
C22 O7 1_555 1_555
C23 C22 1_555 1_555
C24 C23 1_555 1_555
H16 C24 1_555 1_555
C25 C24 1_555 1_555
H17 C25 1_555 1_555
C26 C25 1_555 1_555
H18 C26 1_555 1_555
C27 C26 1_555 1_555
H19 C27 1_555 1_555
C28 C23 1_555 1_555
H20 C28 1_555 1_555
C29 O9 1_555 1_555
C30 C29 1_555 1_555
C31 C30 1_555 1_555
H21 C31 1_555 1_555
C32 C31 1_555 1_555
H22 C32 1_555 1_555
C33 C32 1_555 1_555
H23 C33 1_555 1_555
C34 N1 1_555 1_555
H24 C34 1_555 1_555
Gd1A O1A_2 1_555 1_555
Gd1A_2 O2 1_555 1_555
Cu2_2 N1A 1_555 1_555
N1A C30A 1_555 1_555
N1A_2 Cu2 1_555 1_555
O1A Gd1A_2 1_555 1_555
O2A Gd1 1_555 1_555
O2_2 Gd1A 1_555 1_555
O3A Gd1A_2 1_555 1_555
O3A_2 Gd1A 1_555 1_555
O4A Gd1 1_555 1_555
O4_2 Gd1A 1_555 1_555
O5A Gd1A 1_555 1_555
O6A Cu1 1_555 1_555
O7A Gd1A 1_555 1_555
O8A Cu1 1_555 1_555
O9A Gd1A 1_555 1_555
O10A Cu2_2 1_555 1_555
O10A_2 Cu2 1_555 1_555
C1A O1A 1_555 1_555
C2A C1A 1_555 1_555
C3A C2A 1_555 1_555
H1A C3A 1_555 1_555
C4A C3A 1_555 1_555
H2A C4A 1_555 1_555
C5A C4A 1_555 1_555
H3A C5A 1_555 1_555
C6A C5A 1_555 1_555
H4A C6A 1_555 1_555
C7A C2A 1_555 1_555
H5A C7A 1_555 1_555
C8A O3A 1_555 1_555
C9A C8A 1_555 1_555
C10A C9A 1_555 1_555
H6A C10A 1_555 1_555
C11A C10A 1_555 1_555
H7A C11A 1_555 1_555
C12A C11A 1_555 1_555
H8A C12A 1_555 1_555
C13A C12A 1_555 1_555
H9A C13A 1_555 1_555
C14A C9A 1_555 1_555
H10A C14A 1_555 1_555
C15A O5A 1_555 1_555
C16A C15A 1_555 1_555
C17A C16A 1_555 1_555
H11A C17A 1_555 1_555
C18A C17A 1_555 1_555
H12A C18A 1_555 1_555
C19A C18A 1_555 1_555
H13A C19A 1_555 1_555
C20A C19A 1_555 1_555
H14A C20A 1_555 1_555
C21A C16A 1_555 1_555
H15A C21A 1_555 1_555
C22A O7A 1_555 1_555
C23A C22A 1_555 1_555
C24A C23A 1_555 1_555
H16A C24A 1_555 1_555
C25A C24A 1_555 1_555
H17A C25A 1_555 1_555
C26A C25A 1_555 1_555
H18A C26A 1_555 1_555
C27A C26A 1_555 1_555
H19A C27A 1_555 1_555
C28A C23A 1_555 1_555
H20A C28A 1_555 1_555
C29A O9A 1_555 1_555
C30A C29A 1_555 1_555
C31A C30A 1_555 1_555
H21A C31A 1_555 1_555
C32A C31A 1_555 1_555
H22A C32A 1_555 1_555
C33A C32A 1_555 1_555
H23A C33A 1_555 1_555
C34A N1A 1_555 1_555
H24A C34A 1_555 1_555
O4 Gd1A_2 1_555 1_555
O8 C22 1_555 1_555
O10 C29 1_555 1_555
C6 C7 1_555 1_555
C13 C14 1_555 1_555
C20 C21 1_555 1_555
C27 C28 1_555 1_555
C33 C34 1_555 1_555
O2A C1A 1_555 1_555
O4A C8A 1_555 1_555
O6A C15A 1_555 1_555
O8A C22A 1_555 1_555
O10A C29A 1_555 1_555
C6A C7A 1_555 1_555
C13A C14A 1_555 1_555
C20A C21A 1_555 1_555
C27A C28A 1_555 1_555
C33A C34A 1_555 1_555

#END
