
#######################################################################
#
#                 Cambridge Crystallographic Data Centre
#                                CCDC 
#
#######################################################################
#
# If this CIF has been generated from an entry in the Cambridge 
# Structural Database, then it will include bibliographic, chemical, 
# crystal, experimental, refinement or atomic coordinate data resulting 
# from the CCDC's data processing and validation procedures.
#
#######################################################################

data_DUWRUJ
_symmetry_cell_setting           monoclinic
_symmetry_space_group_name_H-M   'C 2/c'
_symmetry_Int_Tables_number      15
_space_group_name_Hall           '-C 2yn'
loop_
_symmetry_equiv_pos_site_id
_symmetry_equiv_pos_as_xyz
1 x,y,z
2 -x,y,1/2-z
3 1/2+x,1/2+y,z
4 1/2-x,1/2+y,1/2-z
5 -x,-y,-z
6 x,-y,1/2+z
7 1/2-x,1/2-y,-z
8 1/2+x,1/2-y,1/2+z
_cell_length_a                   19.398(4)
_cell_length_b                   7.4836(15)
_cell_length_c                   17.203(3)
_cell_angle_alpha                90
_cell_angle_beta                 116.18(3)
_cell_angle_gamma                90
_cell_volume                     2241.11
loop_
_atom_site_label
_atom_site_type_symbol
_atom_site_fract_x
_atom_site_fract_y
_atom_site_fract_z
O1 O 0.5000 0.783(2) 0.2500
H2 H 0.5401 0.7340 0.2889
H2A H 0.4599 0.7340 0.2111
O2 O 0.4138(5) 0.0880(15) 0.1801(6)
H1 H 0.4175 0.2013 0.1848
O3 O 0.2749(6) 0.1581(11) 0.1879(6)
H3 H 0.4093 0.0427 0.2224
H4 H 0.2456 0.1062 0.2070
H5 H 0.2738 0.2698 0.1983
O4 O 0.3876(5) -0.4867(12) 0.2105(6)
O5 O 0.3783(4) -0.1296(11) 0.0292(6)
O6 O 0.3415(4) -0.3716(10) -0.0579(5)
C1 C 0.3880(6) -0.2534(14) -0.0155(7)
Pr1 Pr 0.27975(3) -0.01315(7) 0.06816(3)
S1 S 0.31588(14) -0.3889(3) 0.17239(16)
O7 O 0.6816(4) -0.2603(10) -0.0052(5)
C2 C 0.6023(6) -0.1881(15) 0.0590(7)
H6 H 0.6443 -0.1382 0.1053
C3 C 0.5526(6) -0.3421(15) -0.0734(7)
H7 H 0.5613 -0.3981 -0.1165
C4 C 0.5302(6) -0.1857(16) 0.0571(7)
H8 H 0.5237 -0.1341 0.1026
O8 O 0.2890(4) -0.3690(11) 0.0765(5)
C5 C 0.4672(6) -0.2601(13) -0.0125(7)
O9 O 0.2567(5) -0.4833(11) 0.1880(6)
C6 C 0.4791(6) -0.3400(15) -0.0783(7)
H9 H 0.4383 -0.3918 -0.1252
O10 O 0.3250(5) -0.2034(11) 0.2046(5)
N1 N 0.6101(5) -0.2644(12) -0.0076(6)
O2F O 0.0862(5) -0.5880(15) -0.1801(6)
H1F H 0.0825 -0.7013 -0.1848
O3F O 0.2251(6) -0.6581(11) -0.1879(6)
H3F H 0.0907 -0.5427 -0.2224
H4F H 0.2544 -0.6062 -0.2070
H5F H 0.2262 -0.7698 -0.1983
O4F O 0.1124(5) -0.0133(12) -0.2105(6)
O5F O 0.1217(4) -0.3704(11) -0.0292(6)
O6F O 0.1585(4) -0.1284(10) 0.0579(5)
C1F C 0.1120(6) -0.2466(14) 0.0155(7)
Pr1F Pr 0.22025(3) -0.48685(7) -0.06816(3)
Pr1B Pr 0.77975(3) -0.51315(7) 0.06816(3)
Pr1D Pr 0.72025(3) 0.01315(7) -0.06816(3)
Pr1D_2 Pr -0.27975(3) 0.01315(7) -0.06816(3)
Pr1B_2 Pr -0.22025(3) -0.51315(7) 0.06816(3)
S1F S 0.18412(14) -0.1111(3) -0.17239(16)
O7F O -0.1816(4) -0.2397(10) 0.0052(5)
O7B O 0.1816(4) 0.2397(10) -0.0052(5)
O7D O 0.3184(4) 0.2603(10) 0.0052(5)
O7D_2 O 0.3184(4) -0.7397(10) 0.0052(5)
O7B_2 O 0.1816(4) -0.7603(10) -0.0052(5)
C2F C -0.1023(6) -0.3119(15) -0.0590(7)
H6F H -0.1443 -0.3618 -0.1053
C3F C -0.0526(6) -0.1579(15) 0.0734(7)
H7F H -0.0613 -0.1019 0.1165
C4F C -0.0302(6) -0.3143(16) -0.0571(7)
H8F H -0.0237 -0.3659 -0.1026
O8F O 0.2110(4) -0.1310(11) -0.0765(5)
C5F C 0.0328(6) -0.2399(13) 0.0125(7)
O9F O 0.2433(5) -0.0167(11) -0.1880(6)
C6F C 0.0209(6) -0.1600(15) 0.0783(7)
H9F H 0.0617 -0.1082 0.1252
O10F O 0.1750(5) -0.2966(11) -0.2046(5)
N1F N -0.1101(5) -0.2356(12) 0.0076(6)
loop_
_geom_bond_atom_site_label_1
_geom_bond_atom_site_label_2
_geom_bond_site_symmetry_1
_geom_bond_site_symmetry_2
O1 H2 1_555 1_555
O2 H1 1_555 1_555
O3 H4 1_555 1_555
H3 O2 1_555 1_555
H5 O3 1_555 1_555
O4 S1 1_555 1_555
O5 C1 1_555 1_555
O6 C1 1_555 1_555
C1 C5 1_555 1_555
Pr1 O2 1_555 1_555
S1 O8 1_555 1_555
O7 N1 1_555 1_555
C2 H6 1_555 1_555
C3 H7 1_555 1_555
C4 C2 1_555 1_555
H8 C4 1_555 1_555
O8 Pr1 1_555 1_555
C5 C4 1_555 1_555
O9 S1 1_555 1_555
C6 C3 1_555 1_555
H9 C6 1_555 1_555
O10 Pr1 1_555 1_555
N1 C2 1_555 1_555
O2F H1F 1_555 1_555
O3F H4F 1_555 1_555
H2A O1 1_555 1_555
H3F O2F 1_555 1_555
H5F O3F 1_555 1_555
O4F S1F 1_555 1_555
O5F C1F 1_555 1_555
O6F Pr1 1_555 1_555
C1F O6F 1_555 1_555
Pr1F O6 1_555 1_555
Pr1B O7 1_555 1_555
Pr1D O7 1_555 1_555
Pr1D_2 O7F 1_555 1_555
Pr1B_2 O7F 1_555 1_555
S1F O8F 1_555 1_555
O7F N1F 1_555 1_555
O7B Pr1 1_555 1_555
O7D Pr1 1_555 1_555
O7D_2 Pr1F 1_555 1_555
O7B_2 Pr1F 1_555 1_555
C2F H6F 1_555 1_555
C3F H7F 1_555 1_555
C4F C2F 1_555 1_555
H8F C4F 1_555 1_555
O8F Pr1 1_555 1_555
C5F C1F 1_555 1_555
O9F S1F 1_555 1_555
C6F C3F 1_555 1_555
H9F C6F 1_555 1_555
O10F Pr1F 1_555 1_555
N1F C2F 1_555 1_555
O3 Pr1 1_555 1_555
O5 Pr1 1_555 1_555
S1 O10 1_555 1_555
C3 N1 1_555 1_555
O8 Pr1F 1_555 1_555
C5 C6 1_555 1_555
O2F Pr1F 1_555 1_555
O3F Pr1F 1_555 1_555
O5F Pr1F 1_555 1_555
Pr1F O8F 1_555 1_555
S1F O10F 1_555 1_555
C3F N1F 1_555 1_555
C4F C5F 1_555 1_555
C5F C6F 1_555 1_555

#END
