
#######################################################################
#
#                 Cambridge Crystallographic Data Centre
#                                CCDC 
#
#######################################################################
#
# If this CIF has been generated from an entry in the Cambridge 
# Structural Database, then it will include bibliographic, chemical, 
# crystal, experimental, refinement or atomic coordinate data resulting 
# from the CCDC's data processing and validation procedures.
#
#######################################################################

data_DUWRIX
_symmetry_cell_setting           triclinic
_symmetry_space_group_name_H-M   'P 1'
_symmetry_Int_Tables_number      1
_space_group_name_Hall           'P 1'
loop_
_symmetry_equiv_pos_site_id
_symmetry_equiv_pos_as_xyz
1 x,y,z
_cell_length_a                   7.8789(16)
_cell_length_b                   11.564(2)
_cell_length_c                   15.046(3)
_cell_angle_alpha                111.45(3)
_cell_angle_beta                 95.57(3)
_cell_angle_gamma                101.54(3)
_cell_volume                     1228.15
loop_
_atom_site_label
_atom_site_type_symbol
_atom_site_fract_x
_atom_site_fract_y
_atom_site_fract_z
C1 C 0.6367(12) 0.1505(10) 0.6991(7)
C2 C 0.3155(14) 0.2598(10) 0.7125(7)
C3 C 0.1195(18) 0.3496(16) 0.0729(10)
H1 H 0.0089 0.3647 0.0632
C4 C 0.1402(12) 0.4735(10) 0.2489(7)
C5 C 0.2157(13) 0.3957(11) 0.1681(8)
C6 C 0.6357(12) 0.2740(10) 0.7782(8)
C7 C 0.4833(12) 0.3231(10) 0.7867(8)
C8 C 0.2056(12) -0.2911(9) 0.6014(7)
C9 C 0.2384(12) -0.2867(8) 0.7035(7)
C10 C 0.3258(16) -0.1663(10) 0.7760(8)
H2 H 0.3660 -0.0968 0.7596
C11 C -0.0771(11) -0.1160(9) 0.5840(7)
C12 C -0.3193(12) -0.3646(9) 0.5618(7)
C13 C -0.2392(12) -0.2538(10) 0.6607(8)
C14 C -0.2753(16) -0.2755(12) 0.7428(9)
H3 H -0.3452 -0.3540 0.7365
C15 C -0.1317(12) -0.1352(9) 0.6716(7)
C16 C 0.8419(11) 0.2848(8) 0.3920(6)
C17 C 0.7440(12) 0.1725(9) 0.3020(8)
C18 C 0.1792(12) -0.3908(9) 0.7286(7)
C19 C 0.1255(11) 0.0873(8) 0.3742(7)
C20 C 0.1093(12) -0.0063(8) 0.2721(7)
C21 C 0.1437(16) 0.0391(12) 0.2004(9)
H4 H 0.1913 0.1263 0.2174
C22 C 0.6169(12) 0.0494(8) 0.4032(8)
C23 C 0.108(2) -0.0440(14) 0.1050(9)
H5 H 0.1283 -0.0121 0.0575
C24 C 0.0423(19) -0.1721(13) 0.0782(9)
H6 H 0.0206 -0.2280 0.0132
C25 C 0.0086(18) -0.2181(11) 0.1492(9)
H7 H -0.0403 -0.3054 0.1307
C26 C 0.0448(13) -0.1393(9) 0.2458(7)
C27 C 0.3864(14) 0.3713(11) 0.1795(8)
C28 C -0.207(2) -0.1798(16) 0.8328(10)
H8 H -0.2312 -0.1951 0.8874
C29 C 0.7871(15) 0.3441(12) 0.8445(10)
H9 H 0.8889 0.3152 0.8376
C30 C 0.4905(18) 0.4328(15) 0.8630(11)
H10 H 0.3884 0.4611 0.8718
C31 C 0.6421(13) 0.0613(10) 0.3094(7)
C32 C 0.7693(15) 0.1699(11) 0.2111(8)
H11 H 0.8397 0.2417 0.2067
C33 C 0.6925(19) 0.0635(14) 0.1280(9)
H12 H 0.7085 0.0632 0.0675
C34 C 0.5655(16) -0.0455(11) 0.2227(8)
H13 H 0.4962 -0.1191 0.2252
C35 C 0.0943(12) -0.5275(9) 0.6596(7)
C36 C 0.590(2) -0.0437(15) 0.1356(11)
H14 H 0.5377 -0.1163 0.0794
C37 C 0.4524(16) 0.3115(14) 0.1005(9)
H15 H 0.5664 0.3017 0.1089
C38 C 0.186(2) 0.2822(16) -0.0065(9)
H16 H 0.1181 0.2492 -0.0686
C39 C 0.3537(19) 0.2639(15) 0.0063(9)
H17 H 0.4002 0.2204 -0.0470
C40 C -0.102(2) -0.0608(14) 0.8458(9)
H18 H -0.0590 0.0040 0.9074
C41 C -0.0638(16) -0.0429(10) 0.7625(8)
H19 H 0.0103 0.0344 0.7691
C42 C 0.6497(19) 0.5060(14) 0.9299(10)
H20 H 0.6553 0.5857 0.9781
C43 C 0.7930(17) 0.4582(14) 0.9224(10)
H21 H 0.8955 0.5011 0.9690
C44 C 0.3517(18) -0.1517(13) 0.8712(9)
H22 H 0.4107 -0.0720 0.9194
C45 C 0.2913(16) -0.2539(12) 0.8969(8)
H23 H 0.3099 -0.2440 0.9616
C46 C 0.0043(13) -0.2057(9) 0.3136(7)
C47 C 0.2014(15) -0.3728(11) 0.8231(8)
H24 H 0.1558 -0.4410 0.8398
C48 C 0.4993(13) 0.4114(9) 0.2777(7)
O1 O 0.1526(9) 0.2046(6) 0.3917(6)
O2 O 0.1064(9) 0.0474(6) 0.4419(5)
O3 O 0.1292(8) -0.2077(6) 0.3745(5)
O4 O -0.1481(9) -0.2767(7) 0.2973(6)
O5 O 0.7439(9) 0.0267(7) 0.4494(6)
O6 O 0.4749(10) 0.0536(7) 0.4295(6)
O7 O 0.8258(9) 0.2798(7) 0.4726(5)
O8 O 0.9444(9) 0.3799(6) 0.3837(5)
O9 O 0.1749(9) 0.2707(7) 0.7399(5)
O10 O 0.7708(11) 0.1473(9) 0.6618(7)
O11 O 0.5069(9) 0.0549(7) 0.6754(6)
O12 O 0.1809(9) -0.5906(6) 0.5968(5)
O13 O -0.0440(9) -0.5842(6) 0.6742(5)
O14 O -0.2294(10) -0.4318(7) 0.5196(6)
O15 O -0.4845(9) -0.3793(6) 0.5355(6)
O16 O 0.1446(8) -0.3981(6) 0.5306(5)
O17 O 0.2345(9) -0.1874(6) 0.5917(5)
O18 O -0.1340(10) -0.2009(7) 0.5012(5)
O19 O 0.0291(9) -0.0080(6) 0.5981(5)
O20 O 0.4419(10) 0.3583(7) 0.3330(5)
O21 O 0.6459(10) 0.4852(8) 0.2954(6)
O22 O 0.2183(9) 0.5213(7) 0.3362(6)
O23 O -0.0066(9) 0.4933(8) 0.2284(6)
O24 O 0.5073(9) 0.3623(7) 0.5395(6)
O25 O 0.4982(10) -0.1755(8) 0.4665(7)
O26 O 0.3170(8) 0.1956(8) 0.6172(6)
Pr1 Pr 0.30379(5) -0.03317(4) 0.52434(3)
Pr2 Pr -0.01903(5) 0.19034(4) 0.57417(3)
Pr3 Pr 0.28074(5) 0.42820(4) 0.45488(3)
Pr4 Pr -0.07520(5) -0.40416(4) 0.39314(3)
O5_2 O -0.2561(9) 0.0267(7) 0.4494(6)
O7_2 O -0.1742(9) 0.2798(7) 0.4726(5)
O8_2 O -0.0556(9) 0.3799(6) 0.3837(5)
O8_3 O -0.0556(9) -0.6201(6) 0.3837(5)
O10_2 O -0.2292(11) 0.1473(9) 0.6618(7)
O12_2 O 0.1809(9) 0.4094(6) 0.5968(5)
O13_2 O -0.0440(9) 0.4158(6) 0.6742(5)
O15_2 O 0.5155(9) 0.6207(6) 0.5355(6)
O16_2 O 0.1446(8) 0.6019(6) 0.5306(5)
O21_2 O -0.3541(10) -0.5148(8) 0.2954(6)
O22_2 O 0.2183(9) -0.4787(7) 0.3362(6)
O23_2 O -0.0066(9) -0.5067(8) 0.2284(6)
Pr2_2 Pr 0.98097(5) 0.19034(4) 0.57417(3)
Pr2_3 Pr -0.01903(5) -0.80966(4) 0.57417(3)
Pr3_2 Pr 1.28074(5) 0.42820(4) 0.45488(3)
Pr3_3 Pr 0.28074(5) -0.57180(4) 0.45488(3)
Pr3_4 Pr -0.71926(5) -0.57180(4) 0.45488(3)
Pr4_2 Pr 0.92480(5) 0.59584(4) 0.39314(3)
Pr4_3 Pr -0.07520(5) 0.59584(4) 0.39314(3)
loop_
_geom_bond_atom_site_label_1
_geom_bond_atom_site_label_2
_geom_bond_site_symmetry_1
_geom_bond_site_symmetry_2
C1 C6 1_555 1_555
C2 C7 1_555 1_555
C3 H1 1_555 1_555
C4 C5 1_555 1_555
C5 C3 1_555 1_555
C6 C7 1_555 1_555
C7 C30 1_555 1_555
C8 C9 1_555 1_555
C9 C10 1_555 1_555
C10 H2 1_555 1_555
C11 C15 1_555 1_555
C12 C13 1_555 1_555
C13 C14 1_555 1_555
C14 H3 1_555 1_555
C15 C13 1_555 1_555
C16 C17 1_555 1_555
C17 C31 1_555 1_555
C18 C9 1_555 1_555
C19 C20 1_555 1_555
C20 C21 1_555 1_555
C21 H4 1_555 1_555
C22 C31 1_555 1_555
C23 C21 1_555 1_555
H5 C23 1_555 1_555
C24 C23 1_555 1_555
H6 C24 1_555 1_555
C25 C24 1_555 1_555
H7 C25 1_555 1_555
C26 C20 1_555 1_555
C27 C5 1_555 1_555
C28 C14 1_555 1_555
H8 C28 1_555 1_555
C29 C6 1_555 1_555
H9 C29 1_555 1_555
C30 H10 1_555 1_555
C31 C34 1_555 1_555
C32 C17 1_555 1_555
H11 C32 1_555 1_555
C33 C32 1_555 1_555
H12 C33 1_555 1_555
C34 H13 1_555 1_555
C35 C18 1_555 1_555
C36 C33 1_555 1_555
H14 C36 1_555 1_555
C37 C27 1_555 1_555
H15 C37 1_555 1_555
C38 C3 1_555 1_555
H16 C38 1_555 1_555
C39 C37 1_555 1_555
H17 C39 1_555 1_555
C40 C28 1_555 1_555
H18 C40 1_555 1_555
C41 C15 1_555 1_555
H19 C41 1_555 1_555
C42 C30 1_555 1_555
H20 C42 1_555 1_555
C43 C29 1_555 1_555
H21 C43 1_555 1_555
C44 C10 1_555 1_555
H22 C44 1_555 1_555
C45 C44 1_555 1_555
H23 C45 1_555 1_555
C46 C26 1_555 1_555
C47 C18 1_555 1_555
H24 C47 1_555 1_555
C48 C27 1_555 1_555
O1 C19 1_555 1_555
O2 C19 1_555 1_555
O3 C46 1_555 1_555
O4 C46 1_555 1_555
O5 C22 1_555 1_555
O6 C22 1_555 1_555
O7 C16 1_555 1_555
O8 C16 1_555 1_555
O9 C2 1_555 1_555
O10 C1 1_555 1_555
O11 C1 1_555 1_555
O12 C35 1_555 1_555
O13 C35 1_555 1_555
O14 C12 1_555 1_555
O15 C12 1_555 1_555
O16 C8 1_555 1_555
O17 C8 1_555 1_555
O18 C11 1_555 1_555
O19 C11 1_555 1_555
O20 C48 1_555 1_555
O21 C48 1_555 1_555
O22 C4 1_555 1_555
O23 C4 1_555 1_555
O24 Pr3 1_555 1_555
O25 Pr1 1_555 1_555
O26 C2 1_555 1_555
Pr1 O2 1_555 1_555
Pr2 O2 1_555 1_555
Pr3 O1 1_555 1_555
Pr4 O3 1_555 1_555
O5_2 Pr2 1_555 1_555
O7_2 Pr2 1_555 1_555
O8_2 Pr3 1_555 1_555
O8_3 Pr4 1_555 1_555
O10_2 Pr2 1_555 1_555
O12_2 Pr2 1_555 1_555
O13_2 Pr2 1_555 1_555
O15_2 Pr3 1_555 1_555
O16_2 Pr3 1_555 1_555
O21_2 Pr4 1_555 1_555
O22_2 Pr4 1_555 1_555
O23_2 Pr4 1_555 1_555
Pr2_2 O5 1_555 1_555
Pr2_3 O12 1_555 1_555
Pr3_2 O8 1_555 1_555
Pr3_3 O12 1_555 1_555
Pr3_4 O15 1_555 1_555
Pr4_2 O8 1_555 1_555
Pr4_3 O22 1_555 1_555
C25 C26 1_555 1_555
C34 C36 1_555 1_555
C38 C39 1_555 1_555
C40 C41 1_555 1_555
C42 C43 1_555 1_555
C45 C47 1_555 1_555
O3 Pr1 1_555 1_555
O4 Pr4 1_555 1_555
O6 Pr1 1_555 1_555
O7 Pr2_2 1_555 1_555
O9 Pr2 1_555 1_555
O10 Pr2_2 1_555 1_555
O11 Pr1 1_555 1_555
O13 Pr2_3 1_555 1_555
O14 Pr4 1_555 1_555
O16 Pr4 1_555 1_555
O16 Pr3_3 1_555 1_555
O17 Pr1 1_555 1_555
O18 Pr4 1_555 1_555
O19 Pr1 1_555 1_555
O19 Pr2 1_555 1_555
O20 Pr3 1_555 1_555
O21 Pr4_2 1_555 1_555
O22 Pr3 1_555 1_555
O23 Pr4_3 1_555 1_555
O26 Pr1 1_555 1_555
O26 Pr2 1_555 1_555
Pr3 O12_2 1_555 1_555
O8_2 Pr4_3 1_555 1_555
O8_3 Pr3_3 1_555 1_555
O16_2 Pr4_3 1_555 1_555
O22_2 Pr3_3 1_555 1_555

#END
