
#######################################################################
#
#                 Cambridge Crystallographic Data Centre
#                                CCDC 
#
#######################################################################
#
# If this CIF has been generated from an entry in the Cambridge 
# Structural Database, then it will include bibliographic, chemical, 
# crystal, experimental, refinement or atomic coordinate data resulting 
# from the CCDC's data processing and validation procedures.
#
#######################################################################

data_DUWSOE
_symmetry_cell_setting           triclinic
_symmetry_space_group_name_H-M   'P -1'
_symmetry_Int_Tables_number      2
_space_group_name_Hall           '-P 1'
loop_
_symmetry_equiv_pos_site_id
_symmetry_equiv_pos_as_xyz
1 x,y,z
2 -x,-y,-z
_cell_length_a                   7.1976(7)
_cell_length_b                   8.6555(9)
_cell_length_c                   14.4555(15)
_cell_angle_alpha                92.781(2)
_cell_angle_beta                 97.789(2)
_cell_angle_gamma                104.666(2)
_cell_volume                     859.952
loop_
_atom_site_label
_atom_site_type_symbol
_atom_site_fract_x
_atom_site_fract_y
_atom_site_fract_z
Hg1 Hg -0.43229(8) 0.26078(6) 0.26247(4)
Br1 Br -0.6655(2) 0.0232(2) 0.17318(11)
Br2 Br -0.3791(3) 0.51368(19) 0.35896(13)
N1 N -0.1871(16) 0.1426(13) 0.3359(7)
N2 N 0.4250(15) 0.0346(12) 0.4839(7)
N3 N 0.4234(17) 0.4946(15) 0.0259(7)
N4 N -0.1932(15) 0.3261(12) 0.1554(7)
C1 C -0.024(2) 0.2294(15) 0.3843(8)
H1 H -0.0118 0.3377 0.3984
C2 C 0.1348(19) 0.1692(15) 0.4163(9)
H2 H 0.2486 0.2362 0.4496
C3 C 0.1180(17) 0.0100(14) 0.3973(8)
C4 C -0.0518(19) -0.0815(15) 0.3471(9)
H3 H -0.0680 -0.1905 0.3331
C5 C -0.2004(19) -0.0118(15) 0.3170(9)
H4 H -0.3143 -0.0759 0.2822
C6 C 0.2818(19) -0.0609(15) 0.4308(8)
C7 C 0.265(2) -0.2332(16) 0.4028(11)
H5 H 0.3661 -0.2671 0.4400
H6 H 0.2775 -0.2455 0.3377
H7 H 0.1407 -0.2976 0.4127
C8 C -0.026(2) 0.4411(17) 0.1760(9)
H8 H -0.0154 0.5161 0.2261
C9 C 0.128(2) 0.4575(16) 0.1309(9)
H9 H 0.2410 0.5380 0.1516
C10 C 0.1171(19) 0.3553(14) 0.0540(8)
C11 C -0.053(2) 0.2365(17) 0.0301(9)
H10 H -0.0661 0.1623 -0.0208
C12 C -0.2039(19) 0.2266(16) 0.0811(9)
H11 H -0.3183 0.1464 0.0625
C13 C 0.2807(19) 0.3688(15) 0.0003(8)
C14 C 0.270(2) 0.2477(18) -0.0773(10)
H12 H 0.3832 0.2794 -0.1074
H13 H 0.1557 0.2393 -0.1219
H14 H 0.2649 0.1457 -0.0529
Hg1A Hg 1.43229(8) -0.26078(6) 0.73753(4)
Hg1A_2 Hg 1.43229(8) 0.73922(6) -0.26247(4)
Br1A Br 1.6655(2) -0.0232(2) 0.82682(11)
Br2A Br 1.3791(3) -0.51368(19) 0.64104(13)
N1A N 1.1871(16) -0.1426(13) 0.6641(7)
N2A N 0.5750(15) -0.0346(12) 0.5161(7)
N3A N 0.5766(17) 0.5054(15) -0.0259(7)
N4A N 1.1932(15) 0.6739(12) -0.1554(7)
N4A_2 N 1.1932(15) -0.3261(12) 0.8446(7)
C1A C 1.024(2) -0.2294(15) 0.6157(8)
H1A H 1.0118 -0.3377 0.6016
C2A C 0.8652(19) -0.1692(15) 0.5837(9)
H2A H 0.7514 -0.2362 0.5504
C3A C 0.8820(17) -0.0100(14) 0.6027(8)
C4A C 1.0518(19) 0.0815(15) 0.6529(9)
H3A H 1.0680 0.1905 0.6669
C5A C 1.2004(19) 0.0118(15) 0.6830(9)
H4A H 1.3143 0.0759 0.7178
C6A C 0.7182(19) 0.0609(15) 0.5692(8)
C7A C 0.735(2) 0.2332(16) 0.5972(11)
H5A H 0.6339 0.2671 0.5600
H6A H 0.7225 0.2455 0.6623
H7A H 0.8593 0.2976 0.5873
C8A C 1.026(2) 0.5589(17) -0.1760(9)
H8A H 1.0154 0.4839 -0.2261
C9A C 0.872(2) 0.5425(16) -0.1309(9)
H9A H 0.7590 0.4620 -0.1516
C10A C 0.8829(19) 0.6447(14) -0.0540(8)
C11A C 1.053(2) 0.7635(17) -0.0301(9)
H10A H 1.0661 0.8377 0.0208
C12A C 1.2039(19) 0.7734(16) -0.0811(9)
H11A H 1.3183 0.8536 -0.0625
C13A C 0.7193(19) 0.6312(15) -0.0003(8)
C14A C 0.730(2) 0.7523(18) 0.0773(10)
H12A H 0.6168 0.7206 0.1074
H13A H 0.8443 0.7607 0.1219
H14A H 0.7351 0.8543 0.0529
loop_
_geom_bond_atom_site_label_1
_geom_bond_atom_site_label_2
_geom_bond_site_symmetry_1
_geom_bond_site_symmetry_2
Hg1 Br1 1_555 1_555
Br2 Hg1 1_555 1_555
N1 Hg1 1_555 1_555
N2 C6 1_555 1_555
N3 C13 1_555 1_555
N4 Hg1 1_555 1_555
C1 N1 1_555 1_555
H1 C1 1_555 1_555
C2 C1 1_555 1_555
H2 C2 1_555 1_555
C3 C2 1_555 1_555
C4 C3 1_555 1_555
H3 C4 1_555 1_555
C5 N1 1_555 1_555
H4 C5 1_555 1_555
C6 C3 1_555 1_555
C7 C6 1_555 1_555
H5 C7 1_555 1_555
H6 C7 1_555 1_555
H7 C7 1_555 1_555
C8 N4 1_555 1_555
H8 C8 1_555 1_555
C9 C8 1_555 1_555
H9 C9 1_555 1_555
C10 C9 1_555 1_555
C11 C10 1_555 1_555
H10 C11 1_555 1_555
C12 N4 1_555 1_555
H11 C12 1_555 1_555
C13 C10 1_555 1_555
C14 C13 1_555 1_555
H12 C14 1_555 1_555
H13 C14 1_555 1_555
H14 C14 1_555 1_555
Hg1A Br1A 1_555 1_555
Hg1A_2 N4A 1_555 1_555
Br2A Hg1A 1_555 1_555
N1A Hg1A 1_555 1_555
N2A N2 1_555 1_555
N3A N3 1_555 1_555
N4A C8A 1_555 1_555
N4A_2 Hg1A 1_555 1_555
C1A N1A 1_555 1_555
H1A C1A 1_555 1_555
C2A C1A 1_555 1_555
H2A C2A 1_555 1_555
C3A C2A 1_555 1_555
C4A C3A 1_555 1_555
H3A C4A 1_555 1_555
C5A N1A 1_555 1_555
H4A C5A 1_555 1_555
C6A N2A 1_555 1_555
C7A C6A 1_555 1_555
H5A C7A 1_555 1_555
H6A C7A 1_555 1_555
H7A C7A 1_555 1_555
C8A H8A 1_555 1_555
C9A C8A 1_555 1_555
H9A C9A 1_555 1_555
C10A C9A 1_555 1_555
C11A C10A 1_555 1_555
H10A C11A 1_555 1_555
C12A N4A 1_555 1_555
H11A C12A 1_555 1_555
C13A N3A 1_555 1_555
C14A C13A 1_555 1_555
H12A C14A 1_555 1_555
H13A C14A 1_555 1_555
H14A C14A 1_555 1_555
C4 C5 1_555 1_555
C11 C12 1_555 1_555
C3A C6A 1_555 1_555
C4A C5A 1_555 1_555
C10A C13A 1_555 1_555
C11A C12A 1_555 1_555

#END
