
#######################################################################
#
#                 Cambridge Crystallographic Data Centre
#                                CCDC 
#
#######################################################################
#
# If this CIF has been generated from an entry in the Cambridge 
# Structural Database, then it will include bibliographic, chemical, 
# crystal, experimental, refinement or atomic coordinate data resulting 
# from the CCDC's data processing and validation procedures.
#
#######################################################################

data_DUWSUK
_symmetry_cell_setting           monoclinic
_symmetry_space_group_name_H-M   'P 2/n'
_symmetry_Int_Tables_number      13
_space_group_name_Hall           '-P 2yac'
loop_
_symmetry_equiv_pos_site_id
_symmetry_equiv_pos_as_xyz
1 x,y,z
2 1/2-x,y,1/2-z
3 -x,-y,-z
4 1/2+x,-y,1/2+z
_cell_length_a                   19.0250(16)
_cell_length_b                   4.1701(4)
_cell_length_c                   20.0902(17)
_cell_angle_alpha                90
_cell_angle_beta                 98.3290(10)
_cell_angle_gamma                90
_cell_volume                     1577.07
loop_
_atom_site_label
_atom_site_type_symbol
_atom_site_fract_x
_atom_site_fract_y
_atom_site_fract_z
Br1 Br 0.86343(2) 1.15004(10) 0.71412(2)
C1 C 0.7432(2) 0.7264(10) 0.5926(2)
H1 H 0.7885 0.8269 0.6008
C2 C 0.7184(2) 0.6168(10) 0.5284(2)
H2 H 0.7453 0.6511 0.4927
C3 C 0.6541(2) 0.4567(10) 0.5169(2)
H3 H 0.6372 0.3735 0.4735
C4 C 0.6141(2) 0.4184(9) 0.5694(2)
C5 C 0.6412(2) 0.5505(9) 0.6317(2)
H4 H 0.6133 0.5380 0.6672
C6 C 0.5450(2) 0.2430(9) 0.55950(19)
C7 C 0.4975(2) 0.2660(11) 0.6128(2)
H5 H 0.4531 0.1511 0.5980
H6 H 0.4871 0.4919 0.6207
H7 H 0.5214 0.1702 0.6546
Hg1 Hg 0.7500 0.93055(5) 0.7500
N1 N 0.70503(18) 0.6947(8) 0.64368(17)
N2 N 0.53285(19) 0.0827(8) 0.50377(18)
Br1A Br 0.63657(2) 1.15004(10) 0.78588(2)
C1B C 0.2568(2) -0.7264(10) 0.4074(2)
H1B H 0.2115 -0.8269 0.3992
C2B C 0.2816(2) -0.6168(10) 0.4716(2)
H2B H 0.2547 -0.6511 0.5073
C3B C 0.3459(2) -0.4567(10) 0.4831(2)
H3B H 0.3628 -0.3735 0.5265
C4B C 0.3859(2) -0.4184(9) 0.4306(2)
C5B C 0.3588(2) -0.5505(9) 0.3683(2)
H4B H 0.3867 -0.5380 0.3328
C6B C 0.4550(2) -0.2430(9) 0.44050(19)
C7B C 0.5025(2) -0.2660(11) 0.3872(2)
H5B H 0.5469 -0.1511 0.4020
H6B H 0.5129 -0.4919 0.3793
H7B H 0.4786 -0.1702 0.3454
Hg1B Hg 0.2500 -0.93055(5) 0.2500
N1B N 0.29497(18) -0.6947(8) 0.35632(17)
N1A N 0.79497(18) 0.6947(8) 0.85632(17)
N2B N 0.46715(19) -0.0827(8) 0.49623(18)
Br2 Br 0.28519(2) -0.07825(9) 0.63826(2)
C8 C 0.0963(2) 0.4414(10) 0.7505(2)
H8 H 0.1056 0.3752 0.7962
C9 C 0.0336(2) 0.6042(10) 0.7281(2)
H9 H -0.0001 0.6429 0.7578
C10 C 0.0210(2) 0.7084(10) 0.6626(2)
H10 H -0.0213 0.8234 0.6469
C11 C 0.0703(2) 0.6453(9) 0.61896(19)
C12 C 0.1310(2) 0.4728(10) 0.6452(2)
H11 H 0.1647 0.4222 0.6162
C13 C 0.0597(2) 0.7647(10) 0.5487(2)
C14 C 0.1127(2) 0.6773(10) 0.5032(2)
H12 H 0.0961 0.7560 0.4577
H13 H 0.1179 0.4437 0.5022
H14 H 0.1587 0.7752 0.5201
Hg2 Hg 0.2500 0.09039(5) 0.7500
N3 N 0.14383(18) 0.3754(8) 0.70957(17)
N4 N 0.00421(19) 0.9429(8) 0.53329(17)
Br2A Br 0.21481(2) -0.07825(9) 0.86174(2)
C8B C -0.0963(2) 1.5586(10) 0.2495(2)
H8B H -0.1056 1.6248 0.2038
C9B C -0.0336(2) 1.3958(10) 0.2719(2)
H9B H 0.0001 1.3571 0.2422
C10B C -0.0210(2) 1.2916(10) 0.3374(2)
H10B H 0.0213 1.1766 0.3531
C11B C -0.0703(2) 1.3547(9) 0.38104(19)
C12B C -0.1310(2) 1.5272(10) 0.3548(2)
H11B H -0.1647 1.5778 0.3838
C13B C -0.0597(2) 1.2353(10) 0.4513(2)
C14B C -0.1127(2) 1.3227(10) 0.4968(2)
H12B H -0.0961 1.2440 0.5423
H13B H -0.1179 1.5563 0.4978
H14B H -0.1587 1.2248 0.4799
Hg2B Hg -0.2500 1.90961(5) 0.2500
N3B N -0.14383(18) 1.6246(8) 0.29043(17)
N3A N 0.35617(18) 0.3754(8) 0.79043(17)
N4B N -0.00421(19) 1.0571(8) 0.46671(17)
loop_
_geom_bond_atom_site_label_1
_geom_bond_atom_site_label_2
_geom_bond_site_symmetry_1
_geom_bond_site_symmetry_2
Br1 Hg1 1_555 1_555
Br2 Hg2 1_555 1_555
C1 H1 1_555 1_555
C2 C1 1_555 1_555
H2 C2 1_555 1_555
C3 C2 1_555 1_555
H3 C3 1_555 1_555
C4 C3 1_555 1_555
C5 C4 1_555 1_555
H4 C5 1_555 1_555
C6 C4 1_555 1_555
C7 C6 1_555 1_555
H5 C7 1_555 1_555
H6 C7 1_555 1_555
H7 C7 1_555 1_555
C8 H8 1_555 1_555
C9 C8 1_555 1_555
H9 C9 1_555 1_555
C10 C9 1_555 1_555
H10 C10 1_555 1_555
C11 C10 1_555 1_555
C12 C11 1_555 1_555
H11 C12 1_555 1_555
C13 C11 1_555 1_555
C14 C13 1_555 1_555
H12 C14 1_555 1_555
H13 C14 1_555 1_555
H14 C14 1_555 1_555
Hg1 N1 1_555 1_555
Hg2 N3 1_555 1_555
N1 C1 1_555 1_555
N2 C6 1_555 1_555
N3 C8 1_555 1_555
N4 C13 1_555 1_555
Br1A Hg1 1_555 1_555
Br2A Hg2 1_555 1_555
C1B H1B 1_555 1_555
C2B C1B 1_555 1_555
H2B C2B 1_555 1_555
C3B C2B 1_555 1_555
H3B C3B 1_555 1_555
C4B C3B 1_555 1_555
C5B C4B 1_555 1_555
H4B C5B 1_555 1_555
C6B C4B 1_555 1_555
C7B C6B 1_555 1_555
H5B C7B 1_555 1_555
H6B C7B 1_555 1_555
H7B C7B 1_555 1_555
C8B H8B 1_555 1_555
C9B C8B 1_555 1_555
H9B C9B 1_555 1_555
C10B C9B 1_555 1_555
H10B C10B 1_555 1_555
C11B C10B 1_555 1_555
C12B C11B 1_555 1_555
H11B C12B 1_555 1_555
C13B C11B 1_555 1_555
C14B C13B 1_555 1_555
H12B C14B 1_555 1_555
H13B C14B 1_555 1_555
H14B C14B 1_555 1_555
Hg1B N1B 1_555 1_555
Hg2B N3B 1_555 1_555
N1B C1B 1_555 1_555
N1A Hg1 1_555 1_555
N2B N2 1_555 1_555
N3B C8B 1_555 1_555
N3A Hg2 1_555 1_555
N4B N4 1_555 1_555
C5 N1 1_555 1_555
C12 N3 1_555 1_555
C5B N1B 1_555 1_555
C6B N2B 1_555 1_555
C12B N3B 1_555 1_555
C13B N4B 1_555 1_555

#END
