
#######################################################################
#
#                 Cambridge Crystallographic Data Centre
#                                CCDC 
#
#######################################################################
#
# If this CIF has been generated from an entry in the Cambridge 
# Structural Database, then it will include bibliographic, chemical, 
# crystal, experimental, refinement or atomic coordinate data resulting 
# from the CCDC's data processing and validation procedures.
#
#######################################################################

data_DUWTUL
_symmetry_cell_setting           monoclinic
_symmetry_space_group_name_H-M   'P 21/n'
_symmetry_Int_Tables_number      14
_space_group_name_Hall           '-P 2yn'
loop_
_symmetry_equiv_pos_site_id
_symmetry_equiv_pos_as_xyz
1 x,y,z
2 1/2-x,1/2+y,1/2-z
3 -x,-y,-z
4 1/2+x,1/2-y,1/2+z
_cell_length_a                   6.6407(13)
_cell_length_b                   7.4905(14)
_cell_length_c                   17.429(3)
_cell_angle_alpha                90
_cell_angle_beta                 96.018(2)
_cell_angle_gamma                90
_cell_volume                     862.178
loop_
_atom_site_label
_atom_site_type_symbol
_atom_site_fract_x
_atom_site_fract_y
_atom_site_fract_z
Cu1 Cu 0.06725(10) 0.07952(8) 0.24824(4)
O1 O -0.1514(5) 0.1116(5) 0.1648(2)
O2 O -0.5306(6) -0.1060(5) 0.2038(2)
O3 O -0.7408(5) 0.1239(5) 0.17216(19)
N1 N -0.1395(7) 0.0225(6) 0.3198(2)
N2 N 0.2731(7) 0.0333(6) 0.3364(2)
C1 C -0.3041(8) -0.0358(6) -0.0144(3)
H1 H -0.1722 -0.0615 -0.0242
C2 C -0.5481(8) 0.0107(6) 0.0758(3)
C3 C -0.6082(8) 0.0084(7) 0.1579(3)
C4 C -0.3487(8) -0.0235(6) 0.0606(3)
C5 C 0.1715(10) 0.0381(8) 0.4077(3)
H2 H 0.1679 0.1600 0.4263
H3 H 0.2473 -0.0333 0.4472
C6 C -0.0396(10) -0.0324(8) 0.3931(4)
H4 H -0.0358 -0.1617 0.3951
H5 H -0.1176 0.0089 0.4337
C7 C -0.1834(8) -0.0332(7) 0.1259(3)
O4 O -0.0814(6) -0.1732(5) 0.1387(2)
Cu1B Cu -1.06725(10) -0.07952(8) -0.24824(4)
Cu1A Cu -0.56725(10) -0.42048(8) 0.25176(4)
Cu1_2 Cu -0.93275(10) 0.07952(8) 0.24824(4)
Cu1C Cu -0.43275(10) 0.42048(8) -0.25176(4)
Cu1B_2 Cu -0.06725(10) -0.07952(8) -0.24824(4)
O1B O -0.8486(5) -0.1116(5) -0.1648(2)
O2B O -0.4694(6) 0.1060(5) -0.2038(2)
O2A O 0.0306(6) 0.3940(5) 0.2962(2)
O2C O -1.0306(6) -0.3940(5) -0.2962(2)
O3B O -0.2592(5) -0.1239(5) -0.17216(19)
O3_2 O 0.2592(5) 0.1239(5) 0.17216(19)
O3B_2 O -1.2592(5) -0.1239(5) -0.17216(19)
N1B N -0.8605(7) -0.0225(6) -0.3198(2)
N2B N -1.2731(7) -0.0333(6) -0.3364(2)
C1B C -0.6959(8) 0.0358(6) 0.0144(3)
H1B H -0.8278 0.0615 0.0242
C2B C -0.4519(8) -0.0107(6) -0.0758(3)
C3B C -0.3918(8) -0.0084(7) -0.1579(3)
C4B C -0.6513(8) 0.0235(6) -0.0606(3)
C5B C -1.1715(10) -0.0381(8) -0.4077(3)
H2B H -1.1679 -0.1600 -0.4263
H3B H -1.2473 0.0333 -0.4472
C6B C -0.9604(10) 0.0324(8) -0.3931(4)
H4B H -0.9642 0.1617 -0.3951
H5B H -0.8824 -0.0089 -0.4337
C7B C -0.8166(8) 0.0332(7) -0.1259(3)
O4B O -0.9186(6) 0.1732(5) -0.1387(2)
loop_
_geom_bond_atom_site_label_1
_geom_bond_atom_site_label_2
_geom_bond_site_symmetry_1
_geom_bond_site_symmetry_2
Cu1 O1 1_555 1_555
O1 C7 1_555 1_555
O2 C3 1_555 1_555
O3 C3 1_555 1_555
N1 Cu1 1_555 1_555
N2 Cu1 1_555 1_555
C1 H1 1_555 1_555
C2 C3 1_555 1_555
C4 C1 1_555 1_555
C5 N2 1_555 1_555
H2 C5 1_555 1_555
H3 C5 1_555 1_555
C6 N1 1_555 1_555
H4 C6 1_555 1_555
H5 C6 1_555 1_555
C7 C4 1_555 1_555
O4 C7 1_555 1_555
Cu1B O1B 1_555 1_555
Cu1A O2 1_555 1_555
Cu1_2 O3 1_555 1_555
Cu1C O2B 1_555 1_555
Cu1B_2 O3B 1_555 1_555
O1B C7B 1_555 1_555
O2B C3B 1_555 1_555
O2A Cu1 1_555 1_555
O2C Cu1B 1_555 1_555
O3B C3B 1_555 1_555
O3_2 Cu1 1_555 1_555
O3B_2 Cu1B 1_555 1_555
N1B Cu1B 1_555 1_555
N2B Cu1B 1_555 1_555
C1B C2 1_555 1_555
H1B C1B 1_555 1_555
C2B C1 1_555 1_555
C3B C2B 1_555 1_555
C4B C1B 1_555 1_555
C5B N2B 1_555 1_555
H2B C5B 1_555 1_555
H3B C5B 1_555 1_555
C6B N1B 1_555 1_555
H4B C6B 1_555 1_555
H5B C6B 1_555 1_555
C7B C4B 1_555 1_555
O4B C7B 1_555 1_555
C2 C4 1_555 1_555
C5 C6 1_555 1_555
C2B C4B 1_555 1_555
C5B C6B 1_555 1_555

#END
