
#######################################################################
#
#                 Cambridge Crystallographic Data Centre
#                                CCDC 
#
#######################################################################
#
# If this CIF has been generated from an entry in the Cambridge 
# Structural Database, then it will include bibliographic, chemical, 
# crystal, experimental, refinement or atomic coordinate data resulting 
# from the CCDC's data processing and validation procedures.
#
#######################################################################

data_DUWVIB
_symmetry_cell_setting           monoclinic
_symmetry_space_group_name_H-M   'P 21/c'
_symmetry_Int_Tables_number      14
_space_group_name_Hall           '-P 2ybc'
loop_
_symmetry_equiv_pos_site_id
_symmetry_equiv_pos_as_xyz
1 x,y,z
2 -x,1/2+y,1/2-z
3 -x,-y,-z
4 x,1/2-y,1/2+z
_cell_length_a                   9.496(5)
_cell_length_b                   10.535(5)
_cell_length_c                   21.023(5)
_cell_angle_alpha                90
_cell_angle_beta                 93.681(5)
_cell_angle_gamma                90
_cell_volume                     2098.81
loop_
_atom_site_label
_atom_site_type_symbol
_atom_site_fract_x
_atom_site_fract_y
_atom_site_fract_z
Mn1 Mn 0.51234(2) 0.14764(2) -0.035360(10)
C1 C 0.40731(16) 0.16169(14) 0.17055(7)
O1 O 0.44798(15) 0.16620(12) 0.06137(6)
N1 N 0.39631(16) 0.33707(13) -0.05670(7)
O2 O 0.42243(15) -0.02157(11) 0.10787(6)
C2 C -0.10599(16) 0.05523(15) 0.09052(7)
O3 O -0.28805(13) 0.10486(14) 0.01437(6)
O4 O -0.30453(13) -0.07645(12) 0.06765(6)
C3 C 0.4667(2) 0.43512(16) -0.07988(8)
N2 N 0.65754(15) 0.28878(14) -0.08487(7)
C4 C 0.52522(18) 0.21302(17) 0.20392(8)
H1 H 0.6136 0.2053 0.1876
C5 C 0.27541(17) 0.17074(16) 0.19566(7)
C6 C 0.14476(16) 0.12562(16) 0.15928(7)
C7 C -0.24388(16) 0.02462(16) 0.05427(7)
C8 C 0.6098(2) 0.40568(17) -0.09948(8)
C9 C 0.42666(15) 0.09636(15) 0.10782(7)
C10 C -0.01179(18) 0.13781(18) 0.06465(8)
H2 H -0.0323 0.1710 0.0241
C11 C 0.26544(19) 0.2315(2) 0.25415(8)
H3 H 0.1782 0.2365 0.2717
C12 C -0.0723(2) 0.0069(2) 0.15062(9)
H4 H -0.1331 -0.0504 0.1684
C13 C 0.5122(2) 0.27563(19) 0.26130(8)
H5 H 0.5911 0.3117 0.2827
C14 C 0.11226(18) 0.17146(19) 0.09828(8)
H6 H 0.1750 0.2257 0.0797
C15 C 0.0511(2) 0.0426(2) 0.18492(9)
H7 H 0.0710 0.0103 0.2257
C16 C 0.3820(2) 0.2843(2) 0.28651(9)
H8 H 0.3729 0.3255 0.3251
C17 C 0.1985(3) 0.4733(2) -0.04615(12)
H9 H 0.1056 0.4831 -0.0354
C18 C 0.6900(3) 0.4908(2) -0.13274(13)
H10 H 0.6553 0.5712 -0.1430
C19 C 0.7845(2) 0.2547(2) -0.10230(10)
H11 H 0.8173 0.1735 -0.0922
C20 C 0.2639(2) 0.3564(2) -0.04098(11)
H12 H 0.2136 0.2882 -0.0259
C21 C 0.4076(3) 0.55571(19) -0.08456(11)
H13 H 0.4594 0.6233 -0.0993
C22 C 0.8694(3) 0.3352(3) -0.13479(13)
H14 H 0.9579 0.3091 -0.1461
C23 C 0.2725(3) 0.5742(2) -0.06731(13)
H15 H 0.2317 0.6545 -0.0700
C24 C 0.8201(3) 0.4546(3) -0.15006(16)
H16 H 0.8751 0.5105 -0.1721
Mn1B Mn 0.48766(2) -0.14764(2) 0.035360(10)
Mn1_2 Mn -0.48766(2) 0.14764(2) -0.035360(10)
Mn1B_2 Mn -0.51234(2) -0.14764(2) 0.035360(10)
O2B O 0.57757(15) 0.02157(11) -0.10787(6)
O3_2 O 0.71195(13) 0.10486(14) 0.01437(6)
O4B O 0.30453(13) 0.07645(12) -0.06765(6)
loop_
_geom_bond_atom_site_label_1
_geom_bond_atom_site_label_2
_geom_bond_site_symmetry_1
_geom_bond_site_symmetry_2
Mn1 O1 1_555 1_555
C1 C4 1_555 1_555
O1 C9 1_555 1_555
N1 Mn1 1_555 1_555
O2 C9 1_555 1_555
C2 C7 1_555 1_555
O3 C7 1_555 1_555
O4 C7 1_555 1_555
C3 N1 1_555 1_555
N2 Mn1 1_555 1_555
C4 H1 1_555 1_555
C5 C1 1_555 1_555
C6 C5 1_555 1_555
C8 C3 1_555 1_555
C9 C1 1_555 1_555
C10 C2 1_555 1_555
H2 C10 1_555 1_555
C11 C5 1_555 1_555
H3 C11 1_555 1_555
C12 C2 1_555 1_555
H4 C12 1_555 1_555
C13 C4 1_555 1_555
H5 C13 1_555 1_555
C14 C6 1_555 1_555
H6 C14 1_555 1_555
C15 C6 1_555 1_555
H7 C15 1_555 1_555
C16 C11 1_555 1_555
H8 C16 1_555 1_555
C17 H9 1_555 1_555
C18 C8 1_555 1_555
H10 C18 1_555 1_555
C19 N2 1_555 1_555
H11 C19 1_555 1_555
C20 N1 1_555 1_555
H12 C20 1_555 1_555
C21 C3 1_555 1_555
H13 C21 1_555 1_555
C22 C19 1_555 1_555
H14 C22 1_555 1_555
C23 C17 1_555 1_555
H15 C23 1_555 1_555
C24 C18 1_555 1_555
H16 C24 1_555 1_555
Mn1B O2 1_555 1_555
Mn1_2 O3 1_555 1_555
Mn1B_2 O4 1_555 1_555
O2B Mn1 1_555 1_555
O3_2 Mn1 1_555 1_555
O4B Mn1 1_555 1_555
N2 C8 1_555 1_555
C10 C14 1_555 1_555
C12 C15 1_555 1_555
C13 C16 1_555 1_555
C17 C20 1_555 1_555
C21 C23 1_555 1_555
C22 C24 1_555 1_555

#END
