
#######################################################################
#
#                 Cambridge Crystallographic Data Centre
#                                CCDC 
#
#######################################################################
#
# If this CIF has been generated from an entry in the Cambridge 
# Structural Database, then it will include bibliographic, chemical, 
# crystal, experimental, refinement or atomic coordinate data resulting 
# from the CCDC's data processing and validation procedures.
#
#######################################################################

data_DUWVEX
_symmetry_cell_setting           orthorhombic
_symmetry_space_group_name_H-M   'P n a 21'
_symmetry_Int_Tables_number      33
_space_group_name_Hall           'P 2c -2n'
loop_
_symmetry_equiv_pos_site_id
_symmetry_equiv_pos_as_xyz
1 x,y,z
2 -x,-y,1/2+z
3 1/2-x,1/2+y,1/2+z
4 1/2+x,1/2-y,z
_cell_length_a                   20.528(5)
_cell_length_b                   10.547(5)
_cell_length_c                   20.633(5)
_cell_angle_alpha                90
_cell_angle_beta                 90
_cell_angle_gamma                90
_cell_volume                     4467.23
loop_
_atom_site_label
_atom_site_type_symbol
_atom_site_fract_x
_atom_site_fract_y
_atom_site_fract_z
Mn1 Mn 0.79464(2) 0.05586(4) 0.76868(3)
Mn2 Mn 0.95296(2) -0.04848(4) 0.74346(3)
O1 O 0.87016(11) -0.0638(2) 0.81320(12)
O2 O 0.87597(11) 0.0679(2) 0.69961(12)
O3 O 0.93745(11) 0.1903(2) 0.63624(13)
O4 O 0.81164(12) -0.1699(2) 0.88722(14)
N1 N 1.00563(13) 0.1136(3) 0.79242(15)
O5 O 1.01867(12) -0.0127(2) 0.65684(14)
H1 H 1.0068 0.0622 0.6472
H2 H 0.9994 -0.0653 0.6321
C1 C 0.82820(16) 0.1499(3) 0.60342(18)
O6 O 0.94921(15) 0.8156(3) 0.59425(15)
O7 O 0.73136(12) 0.0264(2) 0.85813(14)
H3 H 0.7546 0.0830 0.8759
H4 H 0.7448 -0.0467 0.8680
O8 O 0.92693(14) 0.7785(2) 0.69848(15)
O9 O 0.82042(15) -0.7643(2) 0.80750(16)
C2 C 0.79770(17) 0.0374(4) 0.5850(2)
H5 H 0.8110 -0.0390 0.6034
N2 N 1.03937(14) -0.1359(3) 0.79402(15)
C3 C 0.95118(19) -0.2542(3) 0.9276(2)
N3 N 0.74210(14) -0.1082(3) 0.71994(16)
O10 O 0.80836(16) -0.8016(3) 0.91305(15)
N4 N 0.70842(14) 0.1391(3) 0.71610(15)
C4 C 0.92429(17) -0.1382(3) 0.90771(18)
C5 C 0.89611(17) 0.6250(3) 0.62088(18)
C6 C 0.60836(18) 0.0909(4) 0.6588(2)
C7 C 0.86376(16) -0.1264(3) 0.86664(18)
C8 C 0.95091(19) -0.0249(4) 0.9294(2)
H6 H 0.9315 0.0512 0.9173
C9 C 0.8089(2) 0.2651(3) 0.5752(2)
C10 C 0.88264(18) 0.5375(3) 0.66953(19)
H7 H 0.8926 0.5572 0.7123
C11 C 0.68565(16) -0.0771(3) 0.69011(19)
C12 C 1.0561(2) -0.2581(4) 0.7951(3)
H8 H 1.0285 -0.3169 0.7758
C13 C 0.89090(19) -0.5923(3) 0.9412(2)
H9 H 0.8898 -0.6555 0.9727
C14 C 0.92161(19) -0.4774(3) 0.95429(19)
H10 H 0.9420 -0.4659 0.9941
C15 C 0.86198(17) -0.6127(3) 0.88148(18)
C16 C 1.0078(2) -0.2506(4) 0.9655(2)
H11 H 1.0280 -0.3262 0.9772
C17 C 0.85465(18) 0.4219(3) 0.65518(19)
H12 H 0.8457 0.3651 0.6885
C18 C 1.06273(16) 0.0814(3) 0.82194(18)
C19 C 0.8278(2) -0.7370(3) 0.8668(3)
C20 C 1.14016(18) -0.0865(4) 0.8514(2)
C21 C 0.89446(18) -0.4025(3) 0.84895(18)
H13 H 0.8958 -0.3399 0.8172
C22 C 0.64542(18) -0.1677(4) 0.6592(2)
C23 C 0.5941(2) 0.2208(5) 0.6567(3)
H14 H 0.5559 0.2492 0.6373
C24 C 1.08155(16) -0.0511(3) 0.82213(18)
C25 C 0.6927(2) 0.2617(4) 0.7124(3)
H15 H 0.7208 0.3211 0.7304
C26 C 1.1137(2) -0.3015(4) 0.8242(2)
H16 H 1.1233 -0.3876 0.8246
C27 C 0.6361(2) 0.3043(5) 0.6828(2)
H17 H 0.6272 0.3907 0.6811
C28 C 0.92252(17) -0.3797(3) 0.90933(18)
C29 C 0.74804(19) 0.0381(4) 0.5399(2)
H18 H 0.7283 -0.0376 0.5277
C30 C 0.9261(2) 0.7503(3) 0.6388(3)
C31 C 0.66730(16) 0.0545(3) 0.68906(19)
C32 C 0.88508(17) 0.1390(3) 0.64890(17)
C33 C 0.8816(2) 0.5933(4) 0.5581(2)
H19 H 0.8909 0.6506 0.5251
C34 C 0.86475(18) -0.5166(3) 0.83570(19)
H20 H 0.8461 -0.5296 0.7951
C35 C 0.9884(2) 0.2346(3) 0.7928(2)
H21 H 0.9497 0.2576 0.7724
C36 C 0.8535(2) 0.4775(3) 0.5427(2)
H22 H 0.8437 0.4585 0.4998
C37 C 0.83968(17) 0.3889(3) 0.59150(19)
C38 C 0.7603(2) -0.2292(4) 0.7196(3)
H23 H 0.7991 -0.2512 0.7401
C39 C 1.0054(2) -0.0226(4) 0.9685(2)
H24 H 1.0225 0.0541 0.9829
C40 C 0.7582(2) 0.2619(4) 0.5300(2)
H25 H 0.7447 0.3372 0.5109
C41 C 1.1037(2) 0.1711(4) 0.8518(2)
C42 C 0.72790(19) 0.1505(4) 0.5131(2)
H26 H 0.6938 0.1513 0.4835
C43 C 0.6663(2) -0.2949(5) 0.6604(3)
H27 H 0.6411 -0.3580 0.6414
C44 C 1.0255(2) 0.3299(4) 0.8225(2)
H28 H 1.0112 0.4135 0.8226
C45 C 1.0343(2) -0.1361(5) 0.9860(2)
H29 H 1.0716 -0.1357 1.0116
C46 C 0.5854(2) -0.1268(5) 0.6309(2)
H30 H 0.5582 -0.1867 0.6119
C47 C 0.5672(2) -0.0053(5) 0.6310(2)
H31 H 0.5274 0.0175 0.6129
C48 C 1.1632(2) 0.1319(5) 0.8809(2)
H32 H 1.1901 0.1911 0.9008
C49 C 1.1807(2) 0.0069(5) 0.8795(2)
H33 H 1.2203 -0.0173 0.8974
C50 C 1.0830(2) 0.2977(5) 0.8513(2)
H34 H 1.1085 0.3600 0.8706
C51 C 0.7241(2) -0.3246(4) 0.6899(3)
H35 H 0.7390 -0.4078 0.6900
C52 C 1.1554(2) -0.2176(5) 0.8518(3)
H36 H 1.1938 -0.2459 0.8709
Mn1_2 Mn 0.79464(2) -0.94414(4) 0.76868(3)
Mn2_2 Mn 0.95296(2) 0.95152(4) 0.74346(3)
O8_2 O 0.92693(14) -0.2215(2) 0.69848(15)
O9_2 O 0.82042(15) 0.2357(2) 0.80750(16)
loop_
_geom_bond_atom_site_label_1
_geom_bond_atom_site_label_2
_geom_bond_site_symmetry_1
_geom_bond_site_symmetry_2
Mn1 O1 1_555 1_555
Mn2 O1 1_555 1_555
O1 C7 1_555 1_555
O2 Mn1 1_555 1_555
O3 C32 1_555 1_555
O4 C7 1_555 1_555
N1 Mn2 1_555 1_555
O5 Mn2 1_555 1_555
H1 O5 1_555 1_555
H2 O5 1_555 1_555
C1 C2 1_555 1_555
O6 C30 1_555 1_555
O7 Mn1 1_555 1_555
H3 O7 1_555 1_555
H4 O7 1_555 1_555
O8 C30 1_555 1_555
O9 C19 1_555 1_555
C2 H5 1_555 1_555
N2 Mn2 1_555 1_555
C3 C4 1_555 1_555
N3 Mn1 1_555 1_555
O10 C19 1_555 1_555
N4 Mn1 1_555 1_555
C4 C7 1_555 1_555
C5 C10 1_555 1_555
C6 C23 1_555 1_555
C8 C4 1_555 1_555
H6 C8 1_555 1_555
C9 C1 1_555 1_555
C10 H7 1_555 1_555
C11 N3 1_555 1_555
C12 N2 1_555 1_555
H8 C12 1_555 1_555
C13 H9 1_555 1_555
C14 C13 1_555 1_555
H10 C14 1_555 1_555
C15 C13 1_555 1_555
C16 C3 1_555 1_555
H11 C16 1_555 1_555
C17 C10 1_555 1_555
H12 C17 1_555 1_555
C18 N1 1_555 1_555
C19 C15 1_555 1_555
C20 C24 1_555 1_555
C21 H13 1_555 1_555
C22 C11 1_555 1_555
C23 H14 1_555 1_555
C24 N2 1_555 1_555
C25 N4 1_555 1_555
H15 C25 1_555 1_555
C26 C12 1_555 1_555
H16 C26 1_555 1_555
C27 C23 1_555 1_555
H17 C27 1_555 1_555
C28 C3 1_555 1_555
C29 C2 1_555 1_555
H18 C29 1_555 1_555
C30 C5 1_555 1_555
C31 N4 1_555 1_555
C32 O2 1_555 1_555
C33 C5 1_555 1_555
H19 C33 1_555 1_555
C34 C15 1_555 1_555
H20 C34 1_555 1_555
C35 N1 1_555 1_555
H21 C35 1_555 1_555
C36 C33 1_555 1_555
H22 C36 1_555 1_555
C37 C9 1_555 1_555
C38 N3 1_555 1_555
H23 C38 1_555 1_555
C39 C8 1_555 1_555
H24 C39 1_555 1_555
C40 C9 1_555 1_555
H25 C40 1_555 1_555
C41 C18 1_555 1_555
C42 C29 1_555 1_555
H26 C42 1_555 1_555
C43 C22 1_555 1_555
H27 C43 1_555 1_555
C44 C35 1_555 1_555
H28 C44 1_555 1_555
C45 C16 1_555 1_555
H29 C45 1_555 1_555
C46 C22 1_555 1_555
H30 C46 1_555 1_555
C47 C6 1_555 1_555
H31 C47 1_555 1_555
C48 C41 1_555 1_555
H32 C48 1_555 1_555
C49 C20 1_555 1_555
H33 C49 1_555 1_555
C50 C41 1_555 1_555
H34 C50 1_555 1_555
C51 C38 1_555 1_555
H35 C51 1_555 1_555
C52 C20 1_555 1_555
H36 C52 1_555 1_555
Mn1_2 O9 1_555 1_555
Mn2_2 O8 1_555 1_555
O8_2 Mn2 1_555 1_555
O9_2 Mn1 1_555 1_555
Mn2 O2 1_555 1_555
C1 C32 1_555 1_555
C6 C31 1_555 1_555
C11 C31 1_555 1_555
C14 C28 1_555 1_555
C17 C37 1_555 1_555
C18 C24 1_555 1_555
C21 C28 1_555 1_555
C21 C34 1_555 1_555
C25 C27 1_555 1_555
C26 C52 1_555 1_555
C36 C37 1_555 1_555
C39 C45 1_555 1_555
C40 C42 1_555 1_555
C43 C51 1_555 1_555
C44 C50 1_555 1_555
C46 C47 1_555 1_555
C48 C49 1_555 1_555

#END
