
#######################################################################
#
#                 Cambridge Crystallographic Data Centre
#                                CCDC 
#
#######################################################################
#
# If this CIF has been generated from an entry in the Cambridge 
# Structural Database, then it will include bibliographic, chemical, 
# crystal, experimental, refinement or atomic coordinate data resulting 
# from the CCDC's data processing and validation procedures.
#
#######################################################################

data_DUWVUN
_symmetry_cell_setting           monoclinic
_symmetry_space_group_name_H-M   'C 2/c'
_symmetry_Int_Tables_number      15
_space_group_name_Hall           '-C 2yn'
loop_
_symmetry_equiv_pos_site_id
_symmetry_equiv_pos_as_xyz
1 x,y,z
2 -x,y,1/2-z
3 1/2+x,1/2+y,z
4 1/2-x,1/2+y,1/2-z
5 -x,-y,-z
6 x,-y,1/2+z
7 1/2-x,1/2-y,-z
8 1/2+x,1/2-y,1/2+z
_cell_length_a                   14.9998(11)
_cell_length_b                   15.6250(11)
_cell_length_c                   19.0258(13)
_cell_angle_alpha                90
_cell_angle_beta                 110.8040(10)
_cell_angle_gamma                90
_cell_volume                     4168.38
loop_
_atom_site_label
_atom_site_type_symbol
_atom_site_fract_x
_atom_site_fract_y
_atom_site_fract_z
Cd1 Cd -0.085241(15) 0.139961(13) -0.189614(12)
S1 S 0.00353(7) 0.77537(6) -0.11116(5)
O1 O 0.07615(16) -0.07451(14) 0.07399(13)
O2 O 0.06523(16) 0.09102(15) -0.15706(14)
O3 O 0.16536(15) 0.05510(13) -0.21386(12)
O4 O 0.21039(15) -0.13713(13) 0.13900(11)
N1 N -0.01209(16) 0.26247(15) -0.12004(13)
N2 N -0.13702(17) 0.26359(15) -0.26333(14)
N3 N -0.01369(17) 0.57826(15) -0.13025(14)
N4 N -0.12023(17) 0.57886(14) -0.24737(14)
H1 H -0.1584 0.5984 -0.2896
C1 C 0.0501(2) 0.2605(2) -0.04937(18)
H2 H 0.0689 0.2076 -0.0265
C2 C 0.0876(2) 0.3336(2) -0.00884(19)
H3 H 0.1303 0.3294 0.0404
C3 C 0.0618(2) 0.4122(2) -0.04120(17)
H4 H 0.0866 0.4618 -0.0143
C4 C -0.0027(2) 0.41709(19) -0.11561(17)
C5 C -0.03612(19) 0.49488(18) -0.15508(16)
C6 C -0.1022(2) 0.49427(18) -0.22767(16)
C7 C -0.1388(2) 0.41815(18) -0.26856(17)
C8 C -0.2017(2) 0.4139(2) -0.34328(17)
H5 H -0.2233 0.4639 -0.3706
C9 C -0.2310(2) 0.3367(2) -0.37550(18)
H6 H -0.2730 0.3333 -0.4250
C10 C -0.1980(2) 0.2627(2) -0.33417(17)
H7 H -0.2194 0.2101 -0.3569
C11 C -0.10668(19) 0.34009(17) -0.23031(16)
C12 C -0.03851(19) 0.33960(17) -0.15315(16)
C13 C -0.0660(2) 0.62563(18) -0.18727(17)
C14 C -0.0690(2) 0.71889(19) -0.18760(17)
C15 C -0.1254(2) 0.77327(19) -0.24342(19)
H8 H -0.1682 0.7553 -0.2897
C16 C -0.1091(3) 0.8591(2) -0.2203(2)
H9 H -0.1414 0.9046 -0.2501
C17 C -0.0430(3) 0.8698(2) -0.1517(2)
H10 H -0.0247 0.9229 -0.1290
C18 C 0.1338(2) 0.04886(18) -0.16061(17)
C19 C 0.18358(19) -0.01209(18) -0.09761(16)
C20 C 0.1514(2) -0.02343(17) -0.03784(16)
H11 H 0.1007 0.0092 -0.0354
C21 C 0.19460(19) -0.08308(18) 0.01803(16)
C22 C 0.2718(2) -0.1308(2) 0.01510(18)
H12 H 0.3016 -0.1702 0.0527
C23 C 0.3039(2) -0.1191(2) -0.0440(2)
H13 H 0.3550 -0.1513 -0.0463
C24 C 0.2607(2) -0.0601(2) -0.09962(18)
H14 H 0.2833 -0.0524 -0.1388
C25 C 0.1583(2) -0.09933(18) 0.08135(17)
Cd1D Cd 0.085241(15) -0.139961(13) 0.189614(12)
Cd1A Cd 0.085241(15) 0.139961(13) -0.310386(12)
O1D O -0.07615(16) 0.07451(14) -0.07399(13)
O3A O -0.16536(15) 0.05510(13) -0.28614(12)
O4D O -0.21039(15) 0.13713(13) -0.13900(11)
loop_
_geom_bond_atom_site_label_1
_geom_bond_atom_site_label_2
_geom_bond_site_symmetry_1
_geom_bond_site_symmetry_2
Cd1 O2 1_555 1_555
S1 C14 1_555 1_555
O1 C25 1_555 1_555
O2 C18 1_555 1_555
O3 C18 1_555 1_555
O4 C25 1_555 1_555
N1 Cd1 1_555 1_555
N2 Cd1 1_555 1_555
N3 C5 1_555 1_555
N4 H1 1_555 1_555
C1 N1 1_555 1_555
H2 C1 1_555 1_555
C2 C1 1_555 1_555
H3 C2 1_555 1_555
C3 C2 1_555 1_555
H4 C3 1_555 1_555
C4 C3 1_555 1_555
C5 C4 1_555 1_555
C6 N4 1_555 1_555
C7 C6 1_555 1_555
C8 C7 1_555 1_555
H5 C8 1_555 1_555
C9 C8 1_555 1_555
H6 C9 1_555 1_555
C10 N2 1_555 1_555
H7 C10 1_555 1_555
C11 N2 1_555 1_555
C12 N1 1_555 1_555
C13 N3 1_555 1_555
C14 C13 1_555 1_555
C15 C14 1_555 1_555
H8 C15 1_555 1_555
C16 C15 1_555 1_555
H9 C16 1_555 1_555
C17 S1 1_555 1_555
H10 C17 1_555 1_555
C18 C19 1_555 1_555
C19 C20 1_555 1_555
C20 H11 1_555 1_555
C21 C20 1_555 1_555
C22 C21 1_555 1_555
H12 C22 1_555 1_555
C23 C22 1_555 1_555
H13 C23 1_555 1_555
C24 C19 1_555 1_555
H14 C24 1_555 1_555
C25 C21 1_555 1_555
Cd1D O1 1_555 1_555
Cd1A O3 1_555 1_555
O1D Cd1 1_555 1_555
O3A Cd1 1_555 1_555
O4D Cd1 1_555 1_555
O4 Cd1D 1_555 1_555
N4 C13 1_555 1_555
C4 C12 1_555 1_555
C5 C6 1_555 1_555
C7 C11 1_555 1_555
C9 C10 1_555 1_555
C11 C12 1_555 1_555
C16 C17 1_555 1_555
C23 C24 1_555 1_555

#END
