
#######################################################################
#
#                 Cambridge Crystallographic Data Centre
#                                CCDC 
#
#######################################################################
#
# If this CIF has been generated from an entry in the Cambridge 
# Structural Database, then it will include bibliographic, chemical, 
# crystal, experimental, refinement or atomic coordinate data resulting 
# from the CCDC's data processing and validation procedures.
#
#######################################################################

data_DUWXID01
_symmetry_cell_setting           triclinic
_symmetry_space_group_name_H-M   'P -1'
_symmetry_Int_Tables_number      2
_space_group_name_Hall           '-P 1'
loop_
_symmetry_equiv_pos_site_id
_symmetry_equiv_pos_as_xyz
1 x,y,z
2 -x,-y,-z
_cell_length_a                   6.7695(7)
_cell_length_b                   9.9695(11)
_cell_length_c                   14.6269(16)
_cell_angle_alpha                73.7190(10)
_cell_angle_beta                 88.1370(10)
_cell_angle_gamma                76.6930(10)
_cell_volume                     921.579
loop_
_atom_site_label
_atom_site_type_symbol
_atom_site_fract_x
_atom_site_fract_y
_atom_site_fract_z
Nd1 Nd 0.671311(14) 0.671999(10) 0.625076(7)
N1 N 0.3029(3) 0.7237(2) 0.78523(13)
N2 N 0.2172(3) 0.3827(2) 0.93382(15)
N3 N 0.2733(4) 0.8438(2) 1.00008(16)
O1 O 0.3422(3) 0.77791(18) 0.69178(11)
O2 O 0.7817(3) 0.69793(18) 0.77798(11)
H1 H 0.7867 0.6312 0.8283
H2 H 0.7757 0.7744 0.7930
O3 O 0.2029(5) 0.3315(3) 0.86815(16)
O4 O 0.9719(3) 0.75337(19) 0.54317(15)
H3 H 1.0937 0.7091 0.5550
H4 H 0.9657 0.8251 0.4958
O5 O 0.2085(4) 0.3157(2) 1.01719(14)
O6 O 1.0000(3) 0.48281(19) 0.66002(13)
H5 H 1.0649 0.4802 0.6098
H6 H 1.0039 0.3978 0.6927
O7 O 0.2421(3) 0.5451(2) 1.07188(12)
O8 O 0.6382(3) 0.44826(18) 0.75126(12)
H7 H 0.6831 0.4230 0.8078
H8 H 0.6051 0.3790 0.7399
O9 O 0.2961(8) 0.7979(3) 1.08425(18)
O10 O 0.2434(7) 0.9714(3) 0.96151(19)
O11 O 0.7357(2) 0.5438(2) 0.49783(13)
O12 O 0.6186(2) 0.41980(19) 0.41502(13)
O13 O 0.6495(2) 0.93475(16) 0.60571(11)
O14 O 0.5087(3) 1.16112(17) 0.52372(12)
C1 C 0.2625(3) 0.5922(2) 0.81517(16)
H9 H 0.2476 0.5435 0.7710
C2 C 0.2433(3) 0.5296(2) 0.91041(16)
C3 C 0.2536(3) 0.6000(2) 0.98472(16)
C4 C 0.2774(4) 0.7458(2) 0.94198(16)
C5 C 0.3056(4) 0.8018(2) 0.84657(17)
H10 H 0.3266 0.8943 0.8243
C6 C 0.6016(3) 0.4897(2) 0.47487(15)
C7 C 0.5458(3) 1.0272(2) 0.53784(15)
Nd1A Nd 0.328689(14) 0.328001(10) 0.374924(7)
Nd1A_2 Nd 0.328689(14) 1.328001(10) 0.374924(7)
N1A N 0.6971(3) 0.2763(2) 0.21477(13)
N2A N 0.7828(3) 0.6173(2) 0.06618(15)
N3A N 0.7267(4) 0.1562(2) -0.00008(16)
O1A O 0.6578(3) 0.22209(18) 0.30822(11)
O2A O 0.2183(3) 0.30207(18) 0.22202(11)
H1A H 0.2133 0.3688 0.1717
H2A H 0.2243 0.2256 0.2070
O3A O 0.7971(5) 0.6685(3) 0.13185(16)
O4A O 0.0281(3) 0.24663(19) 0.45683(15)
H3A H -0.0937 0.2909 0.4450
H4A H 0.0343 0.1749 0.5042
O5A O 0.7915(4) 0.6843(2) -0.01719(14)
O6A O 0.0000(3) 0.51719(19) 0.33998(13)
H5A H -0.0649 0.5198 0.3902
H6A H -0.0039 0.6022 0.3073
O7A O 0.7579(3) 0.4549(2) -0.07188(12)
O8A O 0.3618(3) 0.55174(18) 0.24874(12)
H7A H 0.3169 0.5770 0.1922
H8A H 0.3949 0.6210 0.2601
O9A O 0.7039(8) 0.2021(3) -0.08425(18)
O10A O 0.7566(7) 0.0286(3) 0.03849(19)
O11A O 0.2643(2) 0.4562(2) 0.50217(13)
O12A O 0.3814(2) 0.58020(19) 0.58498(13)
O13A O 0.3505(2) 1.06525(16) 0.39429(11)
O13A_2 O 0.3505(2) 0.06525(16) 0.39429(11)
O14A O 0.4913(3) 0.83888(17) 0.47628(12)
O14_2 O 0.5087(3) 0.16112(17) 0.52372(12)
C1A C 0.7375(3) 0.4078(2) 0.18483(16)
H9A H 0.7524 0.4565 0.2290
C2A C 0.7567(3) 0.4704(2) 0.08959(16)
C3A C 0.7464(3) 0.4000(2) 0.01528(16)
C4A C 0.7226(4) 0.2542(2) 0.05802(16)
C5A C 0.6944(4) 0.1982(2) 0.15343(17)
H10A H 0.6734 0.1057 0.1757
C6A C 0.3984(3) 0.5103(2) 0.52513(15)
C7A C 0.4542(3) 0.9728(2) 0.46216(15)
O15 O 0.7576(5) 0.9490(3) 0.82384(19)
H11 H 0.6753 1.0248 0.7945
H12 H 0.7493 0.9288 0.8820
O16 O 0.5130(3) 1.2177(2) 0.70856(15)
H13 H 0.5106 1.2141 0.6518
H14 H 0.4016 1.2031 0.7331
O17 O 0.9661(3) 0.98025(19) 0.37762(14)
H15 H 0.8719 1.0540 0.3619
H16 H 1.0779 1.0030 0.3739
O18 O 0.9041(4) 0.8190(2) 0.25538(16)
H17 H 0.8735 0.8759 0.1999
H18 H 0.9535 0.8569 0.2908
loop_
_geom_bond_atom_site_label_1
_geom_bond_atom_site_label_2
_geom_bond_site_symmetry_1
_geom_bond_site_symmetry_2
Nd1 O1 1_555 1_555
N1 O1 1_555 1_555
N2 O3 1_555 1_555
N3 O9 1_555 1_555
O2 Nd1 1_555 1_555
H1 O2 1_555 1_555
H2 O2 1_555 1_555
O4 Nd1 1_555 1_555
H3 O4 1_555 1_555
H4 O4 1_555 1_555
O5 N2 1_555 1_555
O6 Nd1 1_555 1_555
H5 O6 1_555 1_555
H6 O6 1_555 1_555
O7 C3 1_555 1_555
O8 Nd1 1_555 1_555
H7 O8 1_555 1_555
H8 O8 1_555 1_555
O10 N3 1_555 1_555
O11 Nd1 1_555 1_555
O12 C6 1_555 1_555
O13 Nd1 1_555 1_555
O14 C7 1_555 1_555
C1 N1 1_555 1_555
H9 C1 1_555 1_555
C2 N2 1_555 1_555
C3 C2 1_555 1_555
C4 N3 1_555 1_555
C5 N1 1_555 1_555
H10 C5 1_555 1_555
C6 O11 1_555 1_555
C7 O13 1_555 1_555
O15 H11 1_555 1_555
H12 O15 1_555 1_555
O16 H13 1_555 1_555
H14 O16 1_555 1_555
O17 H15 1_555 1_555
H16 O17 1_555 1_555
O18 H17 1_555 1_555
H18 O18 1_555 1_555
Nd1A O12 1_555 1_555
Nd1A_2 O14 1_555 1_555
N1A O1A 1_555 1_555
N2A O3A 1_555 1_555
N3A O9A 1_555 1_555
O1A Nd1A 1_555 1_555
O2A Nd1A 1_555 1_555
H1A O2A 1_555 1_555
H2A O2A 1_555 1_555
O4A Nd1A 1_555 1_555
H3A O4A 1_555 1_555
H4A O4A 1_555 1_555
O5A N2A 1_555 1_555
O6A Nd1A 1_555 1_555
H5A O6A 1_555 1_555
H6A O6A 1_555 1_555
O7A C3A 1_555 1_555
O8A Nd1A 1_555 1_555
H7A O8A 1_555 1_555
H8A O8A 1_555 1_555
O10A N3A 1_555 1_555
O11A Nd1A 1_555 1_555
O12A Nd1 1_555 1_555
O13A Nd1A_2 1_555 1_555
O13A_2 Nd1A 1_555 1_555
O14A Nd1 1_555 1_555
O14_2 Nd1A 1_555 1_555
C1A N1A 1_555 1_555
H9A C1A 1_555 1_555
C2A N2A 1_555 1_555
C3A C2A 1_555 1_555
C4A N3A 1_555 1_555
C5A N1A 1_555 1_555
H10A C5A 1_555 1_555
C6A C6 1_555 1_555
C7A C7 1_555 1_555
C1 C2 1_555 1_555
C3 C4 1_555 1_555
C4 C5 1_555 1_555
O11A C6A 1_555 1_555
O12A C6A 1_555 1_555
O13A C7A 1_555 1_555
O14A C7A 1_555 1_555
C1A C2A 1_555 1_555
C3A C4A 1_555 1_555
C4A C5A 1_555 1_555

#END
