
#######################################################################
#
#                 Cambridge Crystallographic Data Centre
#                                CCDC 
#
#######################################################################
#
# If this CIF has been generated from an entry in the Cambridge 
# Structural Database, then it will include bibliographic, chemical, 
# crystal, experimental, refinement or atomic coordinate data resulting 
# from the CCDC's data processing and validation procedures.
#
#######################################################################

data_DUWXID
_symmetry_cell_setting           triclinic
_symmetry_space_group_name_H-M   'P -1'
_symmetry_Int_Tables_number      2
_space_group_name_Hall           '-P 1'
loop_
_symmetry_equiv_pos_site_id
_symmetry_equiv_pos_as_xyz
1 x,y,z
2 -x,-y,-z
_cell_length_a                   6.7695(7)
_cell_length_b                   9.9695(11)
_cell_length_c                   14.6269(16)
_cell_angle_alpha                73.7190(10)
_cell_angle_beta                 88.1370(10)
_cell_angle_gamma                76.6930(10)
_cell_volume                     921.579
loop_
_atom_site_label
_atom_site_type_symbol
_atom_site_fract_x
_atom_site_fract_y
_atom_site_fract_z
Nd1 Nd 0.671302(17) 0.672009(12) 0.625069(8)
O1 O 0.9719(3) 0.7535(2) 0.54305(17)
H1 H 0.9706 0.8261 0.4972
H2 H 1.0904 0.7056 0.5568
O2 O 1.0002(3) 0.4828(2) 0.66006(15)
H3 H 1.0023 0.3990 0.6921
H4 H 1.0556 0.4828 0.6080
O3 O 0.6380(3) 0.4483(2) 0.75122(14)
H5 H 0.6197 0.3752 0.7395
H6 H 0.6853 0.4285 0.8064
O4 O 0.7817(3) 0.6979(2) 0.77800(13)
H7 H 0.7908 0.6305 0.8270
H8 H 0.7764 0.7744 0.7904
O9 O 0.3424(3) 0.7780(2) 0.69170(13)
O10 O 0.2027(6) 0.3317(3) 0.86816(18)
O11 O 0.2084(4) 0.3156(3) 1.01718(16)
O12 O 0.2422(4) 0.5450(2) 1.07187(14)
O13 O 0.2967(8) 0.7979(3) 1.0842(2)
O14 O 0.2432(7) 0.9713(3) 0.9615(2)
O15 O 0.6495(3) 0.93480(19) 0.60564(13)
O16 O 0.5085(3) 1.1611(2) 0.52371(14)
O17 O 0.7357(3) 0.5438(2) 0.49782(15)
O18 O 0.6186(3) 0.4198(2) 0.41510(14)
N1 N 0.3029(3) 0.7237(2) 0.78534(16)
N2 N 0.2172(4) 0.3828(3) 0.93376(17)
N3 N 0.2732(5) 0.8438(3) 0.99995(18)
C1 C 0.2625(4) 0.5922(3) 0.81520(19)
H17 H 0.2475 0.5437 0.7710
C2 C 0.2435(4) 0.5296(3) 0.91046(19)
C3 C 0.2536(4) 0.6001(3) 0.98465(19)
C4 C 0.2771(4) 0.7458(3) 0.9420(2)
C5 C 0.3054(4) 0.8018(3) 0.8466(2)
H18 H 0.3264 0.8943 0.8243
C6 C 0.6014(4) 0.4897(3) 0.47491(18)
C7 C 0.5460(4) 1.0271(3) 0.53775(18)
Nd1A Nd 0.328698(17) 1.327991(12) 0.374931(8)
Nd1A_2 Nd 0.328698(17) 0.327991(12) 0.374931(8)
O1A O 0.0281(3) 1.2465(2) 0.45695(17)
H1A H 0.0294 1.1739 0.5028
H2A H -0.0904 1.2944 0.4432
O2A O -0.0002(3) 1.5172(2) 0.33994(15)
H3A H -0.0023 1.6010 0.3079
H4A H -0.0556 1.5172 0.3920
O3A O 0.3620(3) 1.5517(2) 0.24878(14)
H5A H 0.3803 1.6248 0.2605
H6A H 0.3147 1.5715 0.1936
O4A O 0.2183(3) 1.3021(2) 0.22200(13)
H7A H 0.2092 1.3695 0.1730
H8A H 0.2236 1.2256 0.2096
O9A O 0.6576(3) 1.2220(2) 0.30830(13)
O10A O 0.7973(6) 1.6683(3) 0.13184(18)
O11A O 0.7916(4) 1.6844(3) -0.01718(16)
O12A O 0.7578(4) 1.4550(2) -0.07187(14)
O13A O 0.7033(8) 1.2021(3) -0.0842(2)
O14A O 0.7568(7) 1.0287(3) 0.0385(2)
O15A O 0.3505(3) 1.06520(19) 0.39436(13)
O16A O 0.4915(3) 0.8389(2) 0.47629(14)
O17A O 0.2643(3) 0.4562(2) 0.50218(15)
O17A_2 O 0.2643(3) 1.4562(2) 0.50218(15)
O18A O 0.3814(3) 0.5802(2) 0.58490(14)
O18_2 O 0.6186(3) 1.4198(2) 0.41510(14)
N1A N 0.6971(3) 1.2763(2) 0.21466(16)
N2A N 0.7828(4) 1.6172(3) 0.06624(17)
N3A N 0.7268(5) 1.1562(3) 0.00005(18)
C1A C 0.7375(4) 1.4078(3) 0.18480(19)
H17A H 0.7525 1.4563 0.2290
C2A C 0.7565(4) 1.4704(3) 0.08954(19)
C3A C 0.7464(4) 1.3999(3) 0.01535(19)
C4A C 0.7229(4) 1.2542(3) 0.0580(2)
C5A C 0.6946(4) 1.1982(3) 0.1534(2)
H18A H 0.6736 1.1057 0.1757
C6A C 0.3986(4) 0.5103(3) 0.52509(18)
C7A C 0.4540(4) 0.9729(3) 0.46225(18)
O5 O 0.0341(3) 1.0197(2) 0.62232(16)
H9 H 0.1233 0.9436 0.6370
H10 H -0.0812 1.0039 0.6287
O6 O 0.5129(4) 0.2177(3) 0.70866(17)
H11 H 0.5163 0.2113 0.6532
H12 H 0.4024 0.2063 0.7325
O7 O 0.0971(4) 0.1807(3) 0.74457(18)
H13 H 0.0466 0.1463 0.7078
H14 H 0.0631 0.1481 0.7999
O8 O 0.7576(6) 0.9489(3) 0.8239(2)
H15 H 0.6737 1.0238 0.7964
H16 H 0.7567 0.9324 0.8869
loop_
_geom_bond_atom_site_label_1
_geom_bond_atom_site_label_2
_geom_bond_site_symmetry_1
_geom_bond_site_symmetry_2
Nd1 O1 1_555 1_555
O1 H1 1_555 1_555
H2 O1 1_555 1_555
O2 Nd1 1_555 1_555
H3 O2 1_555 1_555
H4 O2 1_555 1_555
O3 Nd1 1_555 1_555
H5 O3 1_555 1_555
H6 O3 1_555 1_555
O4 Nd1 1_555 1_555
H7 O4 1_555 1_555
H8 O4 1_555 1_555
O5 H9 1_555 1_555
H10 O5 1_555 1_555
O6 H11 1_555 1_555
H12 O6 1_555 1_555
O7 H13 1_555 1_555
H14 O7 1_555 1_555
O8 H15 1_555 1_555
H16 O8 1_555 1_555
O9 Nd1 1_555 1_555
O10 N2 1_555 1_555
O11 N2 1_555 1_555
O12 C3 1_555 1_555
O13 N3 1_555 1_555
O14 N3 1_555 1_555
O15 Nd1 1_555 1_555
O16 C7 1_555 1_555
O17 Nd1 1_555 1_555
O18 C6 1_555 1_555
N1 O9 1_555 1_555
N2 C2 1_555 1_555
N3 C4 1_555 1_555
C1 N1 1_555 1_555
H17 C1 1_555 1_555
C2 C1 1_555 1_555
C3 C2 1_555 1_555
C4 C3 1_555 1_555
C5 N1 1_555 1_555
H18 C5 1_555 1_555
C6 O17 1_555 1_555
C7 O15 1_555 1_555
Nd1A O16 1_555 1_555
Nd1A_2 O18 1_555 1_555
O1A Nd1A 1_555 1_555
H1A O1A 1_555 1_555
H2A O1A 1_555 1_555
O2A Nd1A 1_555 1_555
H3A O2A 1_555 1_555
H4A O2A 1_555 1_555
O3A Nd1A 1_555 1_555
H5A O3A 1_555 1_555
H6A O3A 1_555 1_555
O4A Nd1A 1_555 1_555
H7A O4A 1_555 1_555
H8A O4A 1_555 1_555
O9A Nd1A 1_555 1_555
O10A N2A 1_555 1_555
O11A N2A 1_555 1_555
O12A C3A 1_555 1_555
O13A N3A 1_555 1_555
O14A N3A 1_555 1_555
O15A Nd1A 1_555 1_555
O16A Nd1 1_555 1_555
O17A Nd1A_2 1_555 1_555
O17A_2 Nd1A 1_555 1_555
O18A Nd1 1_555 1_555
O18_2 Nd1A 1_555 1_555
N1A O9A 1_555 1_555
N2A C2A 1_555 1_555
N3A C4A 1_555 1_555
C1A N1A 1_555 1_555
H17A C1A 1_555 1_555
C2A C1A 1_555 1_555
C3A C2A 1_555 1_555
C4A C3A 1_555 1_555
C5A N1A 1_555 1_555
H18A C5A 1_555 1_555
C6A C6 1_555 1_555
C7A C7 1_555 1_555
C4 C5 1_555 1_555
O15A C7A 1_555 1_555
O16A C7A 1_555 1_555
O17A C6A 1_555 1_555
O18A C6A 1_555 1_555
C4A C5A 1_555 1_555

#END
