
#######################################################################
#
#                 Cambridge Crystallographic Data Centre
#                                CCDC 
#
#######################################################################
#
# If this CIF has been generated from an entry in the Cambridge 
# Structural Database, then it will include bibliographic, chemical, 
# crystal, experimental, refinement or atomic coordinate data resulting 
# from the CCDC's data processing and validation procedures.
#
#######################################################################

data_DUWZIF01
_symmetry_cell_setting           monoclinic
_symmetry_space_group_name_H-M   'P 21/c'
_symmetry_Int_Tables_number      14
_space_group_name_Hall           '-P 2ybc'
loop_
_symmetry_equiv_pos_site_id
_symmetry_equiv_pos_as_xyz
1 x,y,z
2 -x,1/2+y,1/2-z
3 -x,-y,-z
4 x,1/2-y,1/2+z
_cell_length_a                   9.9070(10)
_cell_length_b                   16.480(2)
_cell_length_c                   13.4770(10)
_cell_angle_alpha                90
_cell_angle_beta                 102.448(9)
_cell_angle_gamma                90
_cell_volume                     2148.63
loop_
_atom_site_label
_atom_site_type_symbol
_atom_site_fract_x
_atom_site_fract_y
_atom_site_fract_z
Br1 Br 1.03274(3) 0.31839(2) 1.23454(2)
Mn1 Mn 0.45043(3) 0.367025(19) 0.79264(2)
O1 O 0.26599(17) 0.39717(10) 0.79091(12)
O2 O 0.51835(17) 0.40548(9) 0.92475(12)
N1 N 0.3963(2) 0.31981(11) 0.65431(14)
N2 N 0.6381(2) 0.32939(11) 0.78193(14)
N3 N 0.6222(3) 0.59173(14) 0.6457(3)
N4 N 0.5041(3) 0.48576(14) 0.72088(18)
C1 C 0.5980(3) 0.66867(14) 0.65138(18)
N5 N 0.5857(3) 0.73727(13) 0.64883(18)
C2 C 0.1594(2) 0.40146(13) 0.71297(17)
C3 C 0.7462(2) 0.34426(13) 0.95959(17)
C4 C 0.8759(3) 0.34975(15) 1.13249(19)
C5 C 0.8670(3) 0.32640(14) 1.03403(19)
H1 H 0.9401 0.2989 1.0159
C6 C 0.5560(3) 0.53797(15) 0.6884(2)
C7 C 0.6356(2) 0.38732(12) 0.98777(16)
C8 C 0.7706(3) 0.39461(14) 1.16052(18)
H2 H 0.7799 0.4118 1.2274
C9 C 0.6532(3) 0.41333(13) 1.08939(17)
H3 H 0.5840 0.4438 1.1086
C10 C 0.0377(3) 0.43978(16) 0.72680(19)
H4 H 0.0356 0.4616 0.7901
C11 C 0.7434(3) 0.32152(14) 0.85583(19)
H5 H 0.8235 0.2996 0.8414
C12 C 0.5081(3) 0.27027(18) 0.62728(19)
H6 H 0.4978 0.2685 0.5541
H7 H 0.5044 0.2152 0.6519
C13 C 0.2781(3) 0.32709(15) 0.59276(18)
H8 H 0.2679 0.3038 0.5287
C14 C 0.1598(3) 0.36875(14) 0.61553(17)
C15 C 0.0395(3) 0.37430(16) 0.53772(19)
H9 H 0.0388 0.3522 0.4741
C16 C 0.6437(3) 0.30928(18) 0.67611(19)
H10 H 0.7195 0.2722 0.6751
H11 H 0.6580 0.3581 0.6395
Br2 Br -0.23883(3) 0.41855(3) 0.45081(2)
C17 C -0.0786(3) 0.44597(17) 0.6495(2)
H12 H -0.1571 0.4724 0.6603
C18 C -0.0768(3) 0.41224(16) 0.55555(19)
Mn1A Mn 0.54957(3) 0.867025(19) 0.70736(2)
N5A N 0.4143(3) 0.23727(13) 0.85117(18)
O3 O 0.1796(4) 0.34034(19) 0.9716(2)
H13 H 0.2109 0.3458 0.9204
C19 C 0.2157(6) 0.4072(4) 1.0346(4)
H14 H 0.2038 0.3944 1.1017
H15 H 0.1576 0.4523 1.0083
H16 H 0.3105 0.4210 1.0374
loop_
_geom_bond_atom_site_label_1
_geom_bond_atom_site_label_2
_geom_bond_site_symmetry_1
_geom_bond_site_symmetry_2
Br1 C4 1_555 1_555
Mn1 O1 1_555 1_555
O1 C2 1_555 1_555
O2 Mn1 1_555 1_555
N1 Mn1 1_555 1_555
N2 Mn1 1_555 1_555
N3 C1 1_555 1_555
N4 Mn1 1_555 1_555
C1 N5 1_555 1_555
N5 Mn1A 1_555 1_555
C2 C10 1_555 1_555
C3 C5 1_555 1_555
C4 C5 1_555 1_555
C5 H1 1_555 1_555
C6 N3 1_555 1_555
C7 O2 1_555 1_555
C8 C4 1_555 1_555
H2 C8 1_555 1_555
C9 C7 1_555 1_555
H3 C9 1_555 1_555
C10 H4 1_555 1_555
C11 N2 1_555 1_555
H5 C11 1_555 1_555
C12 N1 1_555 1_555
H6 C12 1_555 1_555
H7 C12 1_555 1_555
C13 N1 1_555 1_555
H8 C13 1_555 1_555
C14 C2 1_555 1_555
C15 C14 1_555 1_555
H9 C15 1_555 1_555
C16 N2 1_555 1_555
H10 C16 1_555 1_555
H11 C16 1_555 1_555
Br2 C18 1_555 1_555
C17 C10 1_555 1_555
H12 C17 1_555 1_555
C18 C15 1_555 1_555
O3 H13 1_555 1_555
C19 O3 1_555 1_555
H14 C19 1_555 1_555
H15 C19 1_555 1_555
H16 C19 1_555 1_555
N5A Mn1 1_555 1_555
N4 C6 1_555 1_555
C3 C7 1_555 1_555
C3 C11 1_555 1_555
C8 C9 1_555 1_555
C12 C16 1_555 1_555
C13 C14 1_555 1_555
C17 C18 1_555 1_555

#END
