
#######################################################################
#
#                 Cambridge Crystallographic Data Centre
#                                CCDC 
#
#######################################################################
#
# If this CIF has been generated from an entry in the Cambridge 
# Structural Database, then it will include bibliographic, chemical, 
# crystal, experimental, refinement or atomic coordinate data resulting 
# from the CCDC's data processing and validation procedures.
#
#######################################################################

data_DUXBII
_symmetry_cell_setting           monoclinic
_symmetry_space_group_name_H-M   'C 2/c'
_symmetry_Int_Tables_number      15
_space_group_name_Hall           '-C 2yn'
loop_
_symmetry_equiv_pos_site_id
_symmetry_equiv_pos_as_xyz
1 x,y,z
2 -x,y,1/2-z
3 1/2+x,1/2+y,z
4 1/2-x,1/2+y,1/2-z
5 -x,-y,-z
6 x,-y,1/2+z
7 1/2-x,1/2-y,-z
8 1/2+x,1/2-y,1/2+z
_cell_length_a                   17.279(2)
_cell_length_b                   6.5225(8)
_cell_length_c                   15.285(2)
_cell_angle_alpha                90
_cell_angle_beta                 110.7670(10)
_cell_angle_gamma                90
_cell_volume                     1610.73
loop_
_atom_site_label
_atom_site_type_symbol
_atom_site_fract_x
_atom_site_fract_y
_atom_site_fract_z
Ba1 Ba 0.5000 0.17099(3) 0.2500
O1 O 0.6197(2) 0.3359(4) 0.1792(2)
O2 O 0.5695(2) 0.3342(5) 0.0280(3)
O3 O 0.80261(18) 0.5624(4) -0.09234(17)
O4 O 0.91120(17) 0.6394(4) 0.0282(2)
O5 O 0.5404(2) -0.1776(3) 0.1627(2)
H1 H 0.5543 -0.1027 0.1268
H2 H 0.4907 -0.2095 0.1390
O6 O 0.41573(14) 0.5352(3) 0.16262(15)
H3 H 0.3940 0.4655 0.1154
H4 H 0.3907 0.5295 0.1996
N1 N 0.83560(16) 0.5237(4) 0.14742(17)
N2 N 0.71625(15) 0.4704(4) 0.02028(16)
N3 N 0.62583(19) 0.3641(4) 0.1019(2)
N4 N 0.83930(16) 0.5781(4) -0.00754(18)
C1 C 0.79554(18) 0.5236(4) 0.05374(19)
C2 C 0.70407(19) 0.4327(5) 0.1018(2)
C3 C 0.7753(2) 0.4637(5) 0.1789(2)
H5 H 0.7808 0.4463 0.2411
Ba1B Ba 1.0000 0.67099(3) 0.2500
Ba1B_2 Ba 1.0000 -0.32901(3) 0.2500
O1C O 0.8803(2) -0.1641(4) 0.3208(2)
O1A O 0.3803(2) 0.3359(4) 0.3208(2)
O2C O 0.9305(2) -0.1658(5) 0.4720(3)
O3C O 0.69739(18) 0.0624(4) 0.59234(17)
O4C O 0.58880(17) 0.1394(4) 0.4718(2)
O4B O 0.41120(17) 0.1394(4) 0.0282(2)
O5A O 0.4596(2) -0.1776(3) 0.3373(2)
H1A H 0.4457 -0.1027 0.3732
H2A H 0.5093 -0.2095 0.3610
O6A O 0.58427(14) 0.5352(3) 0.33738(15)
H3A H 0.6060 0.4655 0.3846
H4A H 0.6093 0.5295 0.3004
N1C N 0.66440(16) 0.0237(4) 0.35258(17)
N1B N 0.33560(16) 0.0237(4) 0.14742(17)
N2C N 0.78375(15) -0.0296(4) 0.47972(16)
N3C N 0.87417(19) -0.1359(4) 0.3981(2)
N4C N 0.66070(16) 0.0781(4) 0.50754(18)
C1C C 0.70446(18) 0.0236(4) 0.44626(19)
C2C C 0.79593(19) -0.0673(5) 0.3982(2)
C3C C 0.7247(2) -0.0363(5) 0.3211(2)
H5C H 0.7192 -0.0537 0.2589
loop_
_geom_bond_atom_site_label_1
_geom_bond_atom_site_label_2
_geom_bond_site_symmetry_1
_geom_bond_site_symmetry_2
Ba1 O1 1_555 1_555
O1 N3 1_555 1_555
O2 N3 1_555 1_555
O3 N4 1_555 1_555
O4 N4 1_555 1_555
O5 Ba1 1_555 1_555
H1 O5 1_555 1_555
H2 O5 1_555 1_555
O6 Ba1 1_555 1_555
H3 O6 1_555 1_555
H4 O6 1_555 1_555
N1 C1 1_555 1_555
N2 C1 1_555 1_555
N3 C2 1_555 1_555
N4 C1 1_555 1_555
C2 N2 1_555 1_555
C3 N1 1_555 1_555
H5 C3 1_555 1_555
Ba1B O4 1_555 1_555
Ba1B_2 O1C 1_555 1_555
O1C N3C 1_555 1_555
O1A Ba1 1_555 1_555
O2C N3C 1_555 1_555
O3C N4C 1_555 1_555
O4C Ba1 1_555 1_555
O4B Ba1 1_555 1_555
O5A Ba1 1_555 1_555
H1A O5A 1_555 1_555
H2A O5A 1_555 1_555
O6A Ba1 1_555 1_555
H3A O6A 1_555 1_555
H4A O6A 1_555 1_555
N1C Ba1 1_555 1_555
N1B Ba1 1_555 1_555
N2C C1C 1_555 1_555
N3C C2C 1_555 1_555
N4C O4C 1_555 1_555
C1C N1C 1_555 1_555
C2C N2C 1_555 1_555
C3C N1C 1_555 1_555
H5C C3C 1_555 1_555
N1 Ba1B 1_555 1_555
C2 C3 1_555 1_555
N4C C1C 1_555 1_555
C2C C3C 1_555 1_555

#END
