
#######################################################################
#
#                 Cambridge Crystallographic Data Centre
#                                CCDC 
#
#######################################################################
#
# If this CIF has been generated from an entry in the Cambridge 
# Structural Database, then it will include bibliographic, chemical, 
# crystal, experimental, refinement or atomic coordinate data resulting 
# from the CCDC's data processing and validation procedures.
#
#######################################################################

data_DUXBEE
_symmetry_cell_setting           triclinic
_symmetry_space_group_name_H-M   'P -1'
_symmetry_Int_Tables_number      2
_space_group_name_Hall           '-P 1'
loop_
_symmetry_equiv_pos_site_id
_symmetry_equiv_pos_as_xyz
1 x,y,z
2 -x,-y,-z
_cell_length_a                   7.142(2)
_cell_length_b                   7.187(2)
_cell_length_c                   13.345(4)
_cell_angle_alpha                95.395(3)
_cell_angle_beta                 99.240(4)
_cell_angle_gamma                92.085(4)
_cell_volume                     672.185
loop_
_atom_site_label
_atom_site_type_symbol
_atom_site_fract_x
_atom_site_fract_y
_atom_site_fract_z
Rb1 Rb 0.70750(7) -0.14629(5) 0.92402(3)
O1 O 1.1016(4) -0.8339(4) 1.4550(2)
O2 O 0.9152(4) -0.9242(4) 1.3134(2)
O3 O 0.8966(4) -0.3886(4) 1.0817(2)
O4 O 1.0848(4) -0.1575(4) 1.1585(2)
O5 O 0.5813(4) -0.0666(4) 0.6726(2)
O6 O 0.3768(4) -0.1514(4) 0.5366(2)
O7 O 0.4292(4) -0.8247(4) 0.8378(2)
O8 O 0.6058(4) -0.5815(4) 0.90903(19)
O9 O 0.7314(5) 0.1732(4) 1.0712(2)
H1 H 0.8079 0.2562 1.0600
H2 H 0.7546 0.1455 1.1302
N1 N 0.9872(4) -0.5934(4) 1.2412(2)
N2 N 1.1549(4) -0.4889(4) 1.3964(2)
N3 N 1.0216(4) -0.8094(4) 1.3697(2)
N4 N 1.0069(4) -0.3134(4) 1.1551(2)
N5 N 0.5149(4) -0.3943(4) 0.7464(2)
N6 N 0.3360(4) -0.5008(4) 0.5950(2)
H3 H 0.2782 -0.5009 0.5333
N7 N 0.4685(4) -0.1802(4) 0.6185(2)
N8 N 0.4982(4) -0.6656(4) 0.8363(2)
C1 C 1.0546(4) -0.6309(4) 1.3340(2)
C2 C 1.0508(5) -0.4128(5) 1.2433(2)
C3 C 1.1526(5) -0.3461(5) 1.3366(3)
H4 H 1.2089 -0.2265 1.3553
C4 C 0.4405(4) -0.3600(4) 0.6538(2)
C5 C 0.3428(5) -0.6422(5) 0.6552(2)
H5 H 0.2861 -0.7620 0.6381
C6 C 0.4502(5) -0.5735(5) 0.7467(2)
Rb1A Rb 1.29250(7) 0.14629(5) 1.07598(3)
Rb1_2 Rb 0.70750(7) -1.14629(5) 0.92402(3)
Rb1A_2 Rb 0.29250(7) -0.85371(5) 1.07598(3)
Rb1A_3 Rb 0.29250(7) 0.14629(5) 1.07598(3)
O4A O 0.9152(4) 0.1575(4) 0.8415(2)
O7_2 O 0.4292(4) 0.1753(4) 0.8378(2)
O7A O 0.5708(4) -0.1753(4) 1.1622(2)
O9A O 0.2686(5) -0.1732(4) 0.9288(2)
H1A H 0.1921 -0.2562 0.9400
H2A H 0.2454 -0.1455 0.8698
loop_
_geom_bond_atom_site_label_1
_geom_bond_atom_site_label_2
_geom_bond_site_symmetry_1
_geom_bond_site_symmetry_2
Rb1 O3 1_555 1_555
O1 N3 1_555 1_555
O2 N3 1_555 1_555
O3 N4 1_555 1_555
O4 N4 1_555 1_555
O5 Rb1 1_555 1_555
O6 N7 1_555 1_555
O7 N8 1_555 1_555
O8 Rb1 1_555 1_555
O9 Rb1 1_555 1_555
H1 O9 1_555 1_555
H2 O9 1_555 1_555
N1 C1 1_555 1_555
N2 C1 1_555 1_555
N3 C1 1_555 1_555
N4 C2 1_555 1_555
N5 Rb1 1_555 1_555
N6 H3 1_555 1_555
N7 O5 1_555 1_555
N8 O8 1_555 1_555
C2 N1 1_555 1_555
C3 N2 1_555 1_555
H4 C3 1_555 1_555
C4 N5 1_555 1_555
C5 N6 1_555 1_555
H5 C5 1_555 1_555
C6 N5 1_555 1_555
Rb1A O4 1_555 1_555
Rb1_2 O7 1_555 1_555
Rb1A_2 O7 1_555 1_555
Rb1A_3 O9 1_555 1_555
O4A Rb1 1_555 1_555
O7_2 Rb1 1_555 1_555
O7A Rb1 1_555 1_555
O9A Rb1 1_555 1_555
H1A O9A 1_555 1_555
H2A O9A 1_555 1_555
N6 C4 1_555 1_555
N7 C4 1_555 1_555
N8 C6 1_555 1_555
C2 C3 1_555 1_555
C5 C6 1_555 1_555
Rb1A_3 O7_2 1_555 1_555
Rb1A_3 O7A 1_555 1_555
Rb1A_3 O9A 1_555 1_555

#END
