
#######################################################################
#
#                 Cambridge Crystallographic Data Centre
#                                CCDC 
#
#######################################################################
#
# If this CIF has been generated from an entry in the Cambridge 
# Structural Database, then it will include bibliographic, chemical, 
# crystal, experimental, refinement or atomic coordinate data resulting 
# from the CCDC's data processing and validation procedures.
#
#######################################################################

data_DUXJAI
_symmetry_cell_setting           triclinic
_symmetry_space_group_name_H-M   'P -1'
_symmetry_Int_Tables_number      2
_space_group_name_Hall           '-P 1'
loop_
_symmetry_equiv_pos_site_id
_symmetry_equiv_pos_as_xyz
1 x,y,z
2 -x,-y,-z
_cell_length_a                   10.594(2)
_cell_length_b                   10.716(2)
_cell_length_c                   14.990(3)
_cell_angle_alpha                85.91(3)
_cell_angle_beta                 80.52(3)
_cell_angle_gamma                89.68(3)
_cell_volume                     1674.2
loop_
_atom_site_label
_atom_site_type_symbol
_atom_site_fract_x
_atom_site_fract_y
_atom_site_fract_z
Pb1 Pb -0.92857(3) 0.64673(3) 0.269490(18)
Pb2 Pb -1.00076(3) 0.98859(3) 0.36943(2)
Pb3 Pb 0.08018(3) 0.34010(3) 0.446730(18)
Pb4 Pb 0.01726(3) 0.26542(3) 0.16719(2)
N1 N -0.6528(7) 0.5772(6) 0.1615(4)
N2 N -0.5381(7) 0.5962(7) 0.1027(4)
H1 H -0.5444 0.6238 0.0483
N3 N -0.7158(7) 0.9084(7) 0.1661(5)
N4 N -0.5977(7) 0.9375(7) 0.1096(4)
H2 H -0.6023 0.9744 0.0574
N5 N -0.7483(7) 1.2462(7) 0.1643(5)
N6 N -0.6373(6) 1.2720(7) 0.1047(5)
H3 H -0.6448 1.3035 0.0515
O1 O -0.7508(5) 0.5176(6) 0.3026(4)
O2 O -0.3252(6) 0.6054(6) 0.0602(4)
O3 O -0.0559(6) 0.4292(5) 0.2882(4)
O4 O -0.1549(6) 0.3679(6) 0.4271(4)
O5 O -0.8144(5) 0.8264(5) 0.3020(4)
O6 O -0.3847(6) 0.9427(6) 0.0679(4)
O7 O -0.1245(6) 0.7957(6) 0.3136(4)
O8 O -0.2323(7) 0.7110(8) 0.4445(5)
O9 O -0.8533(6) 1.1835(6) 0.3000(4)
O10 O -0.4239(6) 1.2831(6) 0.0624(4)
O11 O -0.1539(6) 1.1390(6) 0.2922(4)
O12 O -0.2429(6) 1.0367(6) 0.4202(4)
O13 O -1.0161(6) 1.1401(5) 0.4874(3)
O14 O -0.9528(5) 0.6042(5) 0.4189(3)
O15 O 0.1030(9) 0.2469(12) -0.0132(6)
O16 O 0.0508(8) 0.0274(7) 0.1573(5)
O19 O 0.1284(9) 0.4916(7) 0.0874(5)
C1 C -0.5218(8) 0.5042(7) 0.2728(5)
C2 C -0.4102(7) 0.5250(7) 0.2111(5)
C3 C -0.2910(8) 0.4971(7) 0.2351(5)
H4 H -0.2166 0.5114 0.1931
C4 C -0.2845(8) 0.4481(7) 0.3217(5)
C5 C -0.3949(8) 0.4299(7) 0.3844(5)
H5 H -0.3888 0.4003 0.4434
C6 C -0.5142(8) 0.4546(7) 0.3618(5)
H6 H -0.5879 0.4389 0.4041
C7 C -0.6460(7) 0.5342(7) 0.2450(5)
C8 C -0.4190(8) 0.5775(7) 0.1192(5)
C9 C -0.1568(8) 0.4127(7) 0.3497(5)
C10 C -0.5860(8) 0.8352(7) 0.2789(5)
C11 C -0.4724(8) 0.8602(7) 0.2184(5)
C12 C -0.3565(8) 0.8377(7) 0.2471(5)
H7 H -0.2809 0.8568 0.2074
C13 C -0.3508(8) 0.7875(7) 0.3336(5)
C14 C -0.4657(8) 0.7642(8) 0.3939(5)
H8 H -0.4629 0.7331 0.4531
C15 C -0.5833(8) 0.7864(7) 0.3669(5)
H9 H -0.6589 0.7691 0.4070
C16 C -0.7074(8) 0.8585(7) 0.2471(6)
C17 C -0.4798(8) 0.9148(7) 0.1272(5)
C18 C -0.2258(8) 0.7618(8) 0.3672(5)
C19 C -0.6230(8) 1.1753(7) 0.2763(5)
C20 C -0.5110(7) 1.2003(7) 0.2131(5)
C21 C -0.3890(8) 1.1793(7) 0.2378(5)
H10 H -0.3152 1.2002 0.1966
C22 C -0.3807(8) 1.1274(7) 0.3239(5)
C23 C -0.4918(8) 1.1040(8) 0.3859(5)
H11 H -0.4851 1.0713 0.4441
C24 C -0.6113(8) 1.1272(7) 0.3646(5)
H12 H -0.6839 1.1113 0.4080
C25 C -0.7437(8) 1.2010(7) 0.2481(5)
C26 C -0.5196(8) 1.2530(7) 0.1216(5)
C27 C -0.2500(8) 1.1011(7) 0.3478(5)
Pb1_2 Pb 0.07143(3) 0.64673(3) 0.269490(18)
Pb2_2 Pb -0.00076(3) 0.98859(3) 0.36943(2)
Pb2A Pb -0.99924(3) 1.01141(3) 0.63057(2)
Pb3A Pb -0.08018(3) 0.65990(3) 0.553270(18)
Pb3_2 Pb -0.91982(3) 1.34010(3) 0.446730(18)
Pb3A_2 Pb -1.08018(3) 0.65990(3) 0.553270(18)
Pb4_2 Pb -0.98274(3) 1.26542(3) 0.16719(2)
Pb4_3 Pb 0.01726(3) 1.26542(3) 0.16719(2)
N5_2 N 0.2517(7) 0.2462(7) 0.1643(5)
O3_2 O -1.0559(6) 0.4292(5) 0.2882(4)
O7_2 O -1.1245(6) 0.7957(6) 0.3136(4)
O8A O 0.2323(7) 0.2890(8) 0.5555(5)
O9_2 O 0.1467(6) 0.1835(6) 0.3000(4)
O11_2 O -1.1539(6) 1.1390(6) 0.2922(4)
O11_3 O -0.1539(6) 0.1390(6) 0.2922(4)
O12_2 O -1.2429(6) 1.0367(6) 0.4202(4)
O13A O -0.9839(6) 0.8599(5) 0.5126(3)
O13_2 O -0.0161(6) 0.1401(5) 0.4874(3)
O14A O -0.0472(5) 0.3958(5) 0.5811(3)
O17 O 0.8573(10) -0.0030(13) 0.0606(6)
O18 O 0.8358(10) 0.2704(16) 0.0387(8)
loop_
_geom_bond_atom_site_label_1
_geom_bond_atom_site_label_2
_geom_bond_site_symmetry_1
_geom_bond_site_symmetry_2
Pb1 O1 1_555 1_555
Pb2 O5 1_555 1_555
Pb3 O4 1_555 1_555
Pb4 O3 1_555 1_555
N1 N2 1_555 1_555
N2 H1 1_555 1_555
N3 N4 1_555 1_555
N4 H2 1_555 1_555
N5 N6 1_555 1_555
N6 H3 1_555 1_555
O1 C7 1_555 1_555
O2 C8 1_555 1_555
O3 C9 1_555 1_555
O4 C9 1_555 1_555
O5 Pb1 1_555 1_555
O6 C17 1_555 1_555
O7 C18 1_555 1_555
O8 C18 1_555 1_555
O9 Pb2 1_555 1_555
O10 C26 1_555 1_555
O11 C27 1_555 1_555
O12 C27 1_555 1_555
O13 Pb2 1_555 1_555
O14 Pb1 1_555 1_555
O15 Pb4 1_555 1_555
O16 Pb4 1_555 1_555
O19 Pb4 1_555 1_555
C1 C2 1_555 1_555
C2 C3 1_555 1_555
C3 H4 1_555 1_555
C4 C3 1_555 1_555
C5 C4 1_555 1_555
H5 C5 1_555 1_555
C6 C1 1_555 1_555
H6 C6 1_555 1_555
C7 N1 1_555 1_555
C8 N2 1_555 1_555
C9 C4 1_555 1_555
C10 C11 1_555 1_555
C11 C12 1_555 1_555
C12 H7 1_555 1_555
C13 C12 1_555 1_555
C14 C13 1_555 1_555
H8 C14 1_555 1_555
C15 C10 1_555 1_555
H9 C15 1_555 1_555
C16 N3 1_555 1_555
C17 N4 1_555 1_555
C18 C13 1_555 1_555
C19 C20 1_555 1_555
C20 C21 1_555 1_555
C21 H10 1_555 1_555
C22 C21 1_555 1_555
C23 C22 1_555 1_555
H11 C23 1_555 1_555
C24 C19 1_555 1_555
H12 C24 1_555 1_555
C25 N5 1_555 1_555
C26 N6 1_555 1_555
C27 C22 1_555 1_555
Pb1_2 O3 1_555 1_555
Pb2_2 O7 1_555 1_555
Pb2A O13 1_555 1_555
Pb3A O8 1_555 1_555
Pb3_2 O13 1_555 1_555
Pb3A_2 O14 1_555 1_555
Pb4_2 N5 1_555 1_555
Pb4_3 O11 1_555 1_555
N5_2 Pb4 1_555 1_555
O3_2 Pb1 1_555 1_555
O7_2 Pb1 1_555 1_555
O8A Pb3 1_555 1_555
O9_2 Pb4 1_555 1_555
O11_2 Pb2 1_555 1_555
O11_3 Pb4 1_555 1_555
O12_2 Pb2 1_555 1_555
O13A Pb2 1_555 1_555
O13_2 Pb3 1_555 1_555
O14A Pb3 1_555 1_555
Pb2 O7_2 1_555 1_555
O5 C16 1_555 1_555
O7 Pb1_2 1_555 1_555
O9 C25 1_555 1_555
O9 Pb4_2 1_555 1_555
O11 Pb2_2 1_555 1_555
O12 Pb2_2 1_555 1_555
C1 C7 1_555 1_555
C2 C8 1_555 1_555
C5 C6 1_555 1_555
C10 C16 1_555 1_555
C11 C17 1_555 1_555
C14 C15 1_555 1_555
C19 C25 1_555 1_555
C20 C26 1_555 1_555
C23 C24 1_555 1_555
Pb2A O13A 1_555 1_555
Pb3A_2 O13A 1_555 1_555
Pb4_2 O11_2 1_555 1_555

#END
