
#######################################################################
#
#                 Cambridge Crystallographic Data Centre
#                                CCDC 
#
#######################################################################
#
# If this CIF has been generated from an entry in the Cambridge 
# Structural Database, then it will include bibliographic, chemical, 
# crystal, experimental, refinement or atomic coordinate data resulting 
# from the CCDC's data processing and validation procedures.
#
#######################################################################

data_DUXKOX
_symmetry_cell_setting           monoclinic
_symmetry_space_group_name_H-M   'C 2/m'
_symmetry_Int_Tables_number      12
_space_group_name_Hall           '-C 2y'
loop_
_symmetry_equiv_pos_site_id
_symmetry_equiv_pos_as_xyz
1 x,y,z
2 -x,y,-z
3 1/2+x,1/2+y,z
4 1/2-x,1/2+y,-z
5 -x,-y,-z
6 x,-y,z
7 1/2-x,1/2-y,-z
8 1/2+x,1/2-y,z
_cell_length_a                   20.3512(13)
_cell_length_b                   12.8168(6)
_cell_length_c                   10.9421(6)
_cell_angle_alpha                90
_cell_angle_beta                 103.303(4)
_cell_angle_gamma                90
_cell_volume                     2777.52
loop_
_atom_site_label
_atom_site_type_symbol
_atom_site_fract_x
_atom_site_fract_y
_atom_site_fract_z
U1 U 0.119529(13) 0.0000 0.42113(3)
O1 O 0.1166(3) 0.0000 0.5815(5)
O2 O 0.1244(3) 0.0000 0.2608(5)
O3 O 0.16124(19) 0.1733(3) 0.4369(4)
O4 O 0.1777(2) 0.3319(3) 0.5176(4)
O5 O 0.52519(18) 0.3907(3) 0.3697(4)
O6 O 0.52795(18) 0.3098(3) 0.1884(4)
O7 O 0.2442(3) 0.0000 0.4833(5)
H1 H 0.2680 0.0523 0.4697
N1 N 0.1574(2) 0.2400(3) 0.1954(4)
H2 H 0.1191 0.1896 0.2045
N2 N 0.4001(2) 0.2318(3) 0.1615(4)
H3 H 0.4404 0.1923 0.1706
C1 C 0.2211(2) 0.1773(4) 0.2047(5)
H4 H 0.2128 0.1233 0.1408
H5 H 0.2327 0.1433 0.2860
C2 C 0.2804(3) 0.2438(5) 0.1883(6)
H6 H 0.2922 0.2935 0.2567
H7 H 0.2682 0.2822 0.1100
C3 C 0.3402(2) 0.1725(4) 0.1875(5)
H8 H 0.3537 0.1379 0.2682
H9 H 0.3265 0.1193 0.1237
C4 C 0.3849(3) 0.2845(4) 0.0354(5)
H10 H 0.4240 0.3247 0.0265
H11 H 0.3475 0.3325 0.0302
C5 C 0.1330(3) 0.2950(4) 0.0719(5)
H12 H 0.0935 0.3366 0.0746
H13 H 0.1679 0.3416 0.0571
C6 C 0.1628(3) 0.3189(4) 0.3001(5)
H14 H 0.1234 0.3639 0.2812
H15 H 0.2023 0.3621 0.3032
C7 C 0.1680(2) 0.2698(4) 0.4283(5)
C8 C 0.4265(3) 0.3085(5) 0.2645(5)
H16 H 0.4230 0.2785 0.3442
H17 H 0.3988 0.3708 0.2507
C9 C 0.4995(3) 0.3383(4) 0.2717(5)
U1B U 0.619529(13) 0.5000 0.42113(3)
U1A U -0.119529(13) 0.0000 -0.42113(3)
U1C U 0.380471(13) 0.5000 -0.42113(3)
O3F O 0.33876(19) 0.3267(3) -0.4369(4)
O3E O 0.16124(19) -0.1733(3) 0.4369(4)
O4F O 0.3223(2) 0.1681(3) -0.5176(4)
O5F O -0.02519(18) 0.1093(3) -0.3697(4)
O5B O 0.02519(18) -0.1093(3) 0.3697(4)
O5G O 0.02519(18) 0.1093(3) 0.3697(4)
O6F O -0.02795(18) 0.1902(3) -0.1884(4)
H1E H 0.2680 -0.0523 0.4697
N1F N 0.3426(2) 0.2600(3) -0.1954(4)
H2F H 0.3809 0.3104 -0.2045
N2F N 0.0999(2) 0.2682(3) -0.1615(4)
H3F H 0.0596 0.3077 -0.1706
C1F C 0.2789(2) 0.3227(4) -0.2047(5)
H4F H 0.2872 0.3767 -0.1408
H5F H 0.2673 0.3567 -0.2860
C2F C 0.2196(3) 0.2562(5) -0.1883(6)
H6F H 0.2078 0.2065 -0.2567
H7F H 0.2318 0.2178 -0.1100
C3F C 0.1598(2) 0.3275(4) -0.1875(5)
H8F H 0.1463 0.3621 -0.2682
H9F H 0.1735 0.3807 -0.1237
C4F C 0.1151(3) 0.2155(4) -0.0354(5)
H10F H 0.0760 0.1753 -0.0265
H11F H 0.1525 0.1675 -0.0302
C5F C 0.3670(3) 0.2050(4) -0.0719(5)
H12F H 0.4065 0.1634 -0.0746
H13F H 0.3321 0.1584 -0.0571
C6F C 0.3372(3) 0.1811(4) -0.3001(5)
H14F H 0.3766 0.1361 -0.2812
H15F H 0.2977 0.1379 -0.3032
C7F C 0.3320(2) 0.2302(4) -0.4283(5)
C8F C 0.0735(3) 0.1915(5) -0.2645(5)
H16F H 0.0770 0.2215 -0.3442
H17F H 0.1012 0.1292 -0.2507
C9F C 0.0005(3) 0.1617(4) -0.2717(5)
Cl1 Cl 0.26483(12) 0.5000 0.0576(2)
O8 O 0.5066(2) 0.0848(4) 0.2018(7)
O9 O 0.4248(4) 0.0000 0.0853(7)
N3 N 0.4791(4) 0.0000 0.1624(9)
O8E O 0.5066(2) -0.0848(4) 0.2018(7)
loop_
_geom_bond_atom_site_label_1
_geom_bond_atom_site_label_2
_geom_bond_site_symmetry_1
_geom_bond_site_symmetry_2
U1 O1 1_555 1_555
O2 U1 1_555 1_555
O3 U1 1_555 1_555
O4 C7 1_555 1_555
O5 C9 1_555 1_555
O6 C9 1_555 1_555
O7 U1 1_555 1_555
H1 O7 1_555 1_555
N1 H2 1_555 1_555
N2 H3 1_555 1_555
C1 N1 1_555 1_555
H4 C1 1_555 1_555
H5 C1 1_555 1_555
C2 C1 1_555 1_555
H6 C2 1_555 1_555
H7 C2 1_555 1_555
C3 N2 1_555 1_555
H8 C3 1_555 1_555
H9 C3 1_555 1_555
C4 N2 1_555 1_555
H10 C4 1_555 1_555
H11 C4 1_555 1_555
C5 N1 1_555 1_555
H12 C5 1_555 1_555
H13 C5 1_555 1_555
C6 N1 1_555 1_555
H14 C6 1_555 1_555
H15 C6 1_555 1_555
C7 O3 1_555 1_555
C8 N2 1_555 1_555
H16 C8 1_555 1_555
H17 C8 1_555 1_555
C9 C8 1_555 1_555
O8 N3 1_555 1_555
O9 N3 1_555 1_555
N3 O8E 1_555 1_555
U1B O5 1_555 1_555
U1A O5F 1_555 1_555
U1C O3F 1_555 1_555
O3F C7F 1_555 1_555
O3E U1 1_555 1_555
O4F C7F 1_555 1_555
O5F C9F 1_555 1_555
O5B U1 1_555 1_555
O5G U1 1_555 1_555
O6F C9F 1_555 1_555
H1E O7 1_555 1_555
N1F H2F 1_555 1_555
N2F H3F 1_555 1_555
C1F N1F 1_555 1_555
H4F C1F 1_555 1_555
H5F C1F 1_555 1_555
C2F C1F 1_555 1_555
H6F C2F 1_555 1_555
H7F C2F 1_555 1_555
C3F N2F 1_555 1_555
H8F C3F 1_555 1_555
H9F C3F 1_555 1_555
C4F C5 1_555 1_555
H10F C4F 1_555 1_555
H11F C4F 1_555 1_555
C5F C4 1_555 1_555
H12F C5F 1_555 1_555
H13F C5F 1_555 1_555
C6F N1F 1_555 1_555
H14F C6F 1_555 1_555
H15F C6F 1_555 1_555
C7F C6F 1_555 1_555
C8F N2F 1_555 1_555
H16F C8F 1_555 1_555
H17F C8F 1_555 1_555
C9F C8F 1_555 1_555
C2 C3 1_555 1_555
C6 C7 1_555 1_555
N1F C5F 1_555 1_555
N2F C4F 1_555 1_555
C2F C3F 1_555 1_555

#END
