
#######################################################################
#
#                 Cambridge Crystallographic Data Centre
#                                CCDC 
#
#######################################################################
#
# If this CIF has been generated from an entry in the Cambridge 
# Structural Database, then it will include bibliographic, chemical, 
# crystal, experimental, refinement or atomic coordinate data resulting 
# from the CCDC's data processing and validation procedures.
#
#######################################################################

data_DUXKIR
_symmetry_cell_setting           triclinic
_symmetry_space_group_name_H-M   'P -1'
_symmetry_Int_Tables_number      2
_space_group_name_Hall           '-P 1'
loop_
_symmetry_equiv_pos_site_id
_symmetry_equiv_pos_as_xyz
1 x,y,z
2 -x,-y,-z
_cell_length_a                   8.5290(9)
_cell_length_b                   8.6076(5)
_cell_length_c                   10.7849(11)
_cell_angle_alpha                72.602(6)
_cell_angle_beta                 75.267(5)
_cell_angle_gamma                79.158(6)
_cell_volume                     725.295
loop_
_atom_site_label
_atom_site_type_symbol
_atom_site_fract_x
_atom_site_fract_y
_atom_site_fract_z
U1 U 0.81631(3) 0.55619(3) 0.78103(2)
O1 O 1.0082(5) 0.5875(6) 0.7977(5)
O2 O 0.6265(6) 0.5255(5) 0.7598(5)
O3 O 0.7276(6) 0.8394(5) 0.7440(5)
O4 O 0.7730(6) 0.9015(6) 0.9184(5)
O5 O 0.8462(6) 1.2969(5) -0.0711(4)
O6 O 0.5970(6) 1.2329(6) 0.0511(5)
O7 O 0.8996(6) 0.6782(5) 0.5416(5)
O8 O 1.0444(6) 0.6407(5) 0.3459(4)
O9 O 0.6934(6) 0.5990(6) 1.0010(4)
H1 H 0.7373 0.7008 0.9870
H2 H 0.5880 0.6402 1.0027
N1 N 0.5667(7) 1.1432(6) 0.6514(6)
N2 N 0.7123(7) 1.0249(7) 0.2545(5)
H3 H 0.6118 1.0816 0.2403
C1 C 0.6874(8) 1.2212(8) 0.5364(7)
H4 H 0.7960 1.1719 0.5497
H5 H 0.6783 1.3365 0.5327
C2 C 0.6690(9) 1.2068(8) 0.4034(7)
H6 H 0.5551 1.2348 0.3973
H7 H 0.7314 1.2842 0.3318
C3 C 0.7275(9) 1.0352(8) 0.3873(6)
H8 H 0.8406 1.0059 0.3954
H9 H 0.6631 0.9578 0.4573
C4 C 0.7265(9) 0.8529(9) 0.2426(7)
H10 H 0.8318 0.7955 0.2585
H11 H 0.7220 0.8573 0.1526
C5 C 0.4077(9) 1.2431(8) 0.6604(7)
H12 H 0.4132 1.3382 0.6891
H13 H 0.3812 1.2819 0.5731
C6 C 0.6274(9) 1.1078(8) 0.7749(7)
H14 H 0.5352 1.1208 0.8468
H15 H 0.6990 1.1883 0.7639
C7 C 0.7194(8) 0.9369(8) 0.8146(7)
C8 C 0.8320(9) 1.1174(9) 0.1413(7)
H16 H 0.9178 1.0404 0.1067
H17 H 0.8818 1.1862 0.1732
C9 C 0.7467(8) 1.2235(8) 0.0309(7)
C10 C 0.9841(8) 0.5933(7) 0.4670(6)
U1A U 0.18369(3) 1.44381(3) 0.21897(2)
U1_2 U 0.81631(3) 1.55619(3) -0.21897(2)
U1A_2 U 1.18369(3) 0.44381(3) 0.21897(2)
U1A_3 U 0.18369(3) 0.44381(3) 1.21897(2)
O1A O -0.0082(5) 1.4125(6) 0.2023(5)
O2A O 0.3735(6) 1.4745(5) 0.2402(5)
O3A O 0.2724(6) 1.1606(5) 0.2560(5)
O4A O 0.2270(6) 1.0985(6) 0.0816(5)
O5A O 0.1538(6) 0.7031(5) 1.0711(4)
O5_2 O 0.8462(6) 0.2969(5) 0.9289(4)
O5A_2 O 0.1538(6) 1.7031(5) 0.0711(4)
O6A O 0.4030(6) 0.7671(6) 0.9489(5)
O7A O 1.1004(6) 0.3218(5) 0.4584(5)
O7A_2 O 0.1004(6) 1.3218(5) 0.4584(5)
O8A O 0.9556(6) 0.3593(5) 0.6541(4)
O8_2 O 0.0444(6) 1.6407(5) 0.3459(4)
O9A O 0.3066(6) 1.4010(6) -0.0010(4)
H1A H 0.2627 1.2992 0.0130
H2A H 0.4120 1.3598 -0.0027
N1A N 0.4333(7) 0.8568(6) 0.3486(6)
N2A N 0.2877(7) 0.9751(7) 0.7455(5)
H3A H 0.3882 0.9184 0.7597
C1A C 0.3126(8) 0.7788(8) 0.4636(7)
H4A H 0.2040 0.8281 0.4503
H5A H 0.3217 0.6635 0.4673
C2A C 0.3310(9) 0.7932(8) 0.5966(7)
H6A H 0.4449 0.7652 0.6027
H7A H 0.2686 0.7158 0.6682
C3A C 0.2725(9) 0.9648(8) 0.6127(6)
H8A H 0.1594 0.9941 0.6046
H9A H 0.3369 1.0422 0.5427
C4A C 0.2735(9) 1.1471(9) 0.7574(7)
H10A H 0.1682 1.2045 0.7415
H11A H 0.2780 1.1427 0.8474
C5A C 0.5923(9) 0.7569(8) 0.3396(7)
H12A H 0.5868 0.6618 0.3109
H13A H 0.6188 0.7181 0.4269
C6A C 0.3726(9) 0.8922(8) 0.2251(7)
H14A H 0.4648 0.8792 0.1532
H15A H 0.3010 0.8117 0.2361
C7A C 0.2806(8) 1.0631(8) 0.1854(7)
C8A C 0.1680(9) 0.8826(9) 0.8587(7)
H16A H 0.0822 0.9596 0.8933
H17A H 0.1182 0.8138 0.8268
C9A C 0.2533(8) 0.7765(8) 0.9691(7)
C10A C 1.0159(8) 0.4067(7) 0.5330(6)
loop_
_geom_bond_atom_site_label_1
_geom_bond_atom_site_label_2
_geom_bond_site_symmetry_1
_geom_bond_site_symmetry_2
U1 O1 1_555 1_555
O2 U1 1_555 1_555
O3 U1 1_555 1_555
O4 C7 1_555 1_555
O5 C9 1_555 1_555
O6 C9 1_555 1_555
O7 U1 1_555 1_555
O8 C10 1_555 1_555
O9 U1 1_555 1_555
H1 O9 1_555 1_555
H2 O9 1_555 1_555
N1 C1 1_555 1_555
N2 H3 1_555 1_555
C1 H4 1_555 1_555
H5 C1 1_555 1_555
C2 C1 1_555 1_555
H6 C2 1_555 1_555
H7 C2 1_555 1_555
C3 N2 1_555 1_555
H8 C3 1_555 1_555
H9 C3 1_555 1_555
C4 N2 1_555 1_555
H10 C4 1_555 1_555
H11 C4 1_555 1_555
C5 N1 1_555 1_555
H12 C5 1_555 1_555
H13 C5 1_555 1_555
C6 N1 1_555 1_555
H14 C6 1_555 1_555
H15 C6 1_555 1_555
C7 O3 1_555 1_555
C8 N2 1_555 1_555
H16 C8 1_555 1_555
H17 C8 1_555 1_555
C9 C8 1_555 1_555
C10 O7 1_555 1_555
U1A O1A 1_555 1_555
U1_2 O5 1_555 1_555
U1A_2 O8 1_555 1_555
U1A_3 O5A 1_555 1_555
O2A U1A 1_555 1_555
O3A U1A 1_555 1_555
O4A C7A 1_555 1_555
O5A C9A 1_555 1_555
O5_2 U1 1_555 1_555
O5A_2 U1A 1_555 1_555
O6A C9A 1_555 1_555
O7A U1A_2 1_555 1_555
O7A_2 U1A 1_555 1_555
O8A U1 1_555 1_555
O8_2 U1A 1_555 1_555
O9A U1A 1_555 1_555
H1A O9A 1_555 1_555
H2A O9A 1_555 1_555
N1A C1A 1_555 1_555
N2A H3A 1_555 1_555
C1A H4A 1_555 1_555
H5A C1A 1_555 1_555
C2A C1A 1_555 1_555
H6A C2A 1_555 1_555
H7A C2A 1_555 1_555
C3A N2A 1_555 1_555
H8A C3A 1_555 1_555
H9A C3A 1_555 1_555
C4A C5 1_555 1_555
H10A C4A 1_555 1_555
H11A C4A 1_555 1_555
C5A C4 1_555 1_555
H12A C5A 1_555 1_555
H13A C5A 1_555 1_555
C6A N1A 1_555 1_555
H14A C6A 1_555 1_555
H15A C6A 1_555 1_555
C7A O3A 1_555 1_555
C8A N2A 1_555 1_555
H16A C8A 1_555 1_555
H17A C8A 1_555 1_555
C9A C8A 1_555 1_555
C10A C10 1_555 1_555
C2 C3 1_555 1_555
C6 C7 1_555 1_555
O7A C10A 1_555 1_555
O8A C10A 1_555 1_555
N1A C5A 1_555 1_555
N2A C4A 1_555 1_555
C2A C3A 1_555 1_555
C6A C7A 1_555 1_555

#END
