
#######################################################################
#
#                 Cambridge Crystallographic Data Centre
#                                CCDC 
#
#######################################################################
#
# If this CIF has been generated from an entry in the Cambridge 
# Structural Database, then it will include bibliographic, chemical, 
# crystal, experimental, refinement or atomic coordinate data resulting 
# from the CCDC's data processing and validation procedures.
#
#######################################################################

data_DUXLIS
_symmetry_cell_setting           monoclinic
_symmetry_space_group_name_H-M   'P 21/n'
_symmetry_Int_Tables_number      14
_space_group_name_Hall           '-P 2yn'
loop_
_symmetry_equiv_pos_site_id
_symmetry_equiv_pos_as_xyz
1 x,y,z
2 1/2-x,1/2+y,1/2-z
3 -x,-y,-z
4 1/2+x,1/2-y,1/2+z
_cell_length_a                   15.057(4)
_cell_length_b                   9.896(2)
_cell_length_c                   16.909(4)
_cell_angle_alpha                90
_cell_angle_beta                 105.425(3)
_cell_angle_gamma                90
_cell_volume                     2428.76
loop_
_atom_site_label
_atom_site_type_symbol
_atom_site_fract_x
_atom_site_fract_y
_atom_site_fract_z
Co1 Co 0.633092(18) 0.41963(3) 0.547223(15)
C1 C 0.64205(15) 0.2392(2) 0.69645(12)
H1 H 0.6453 0.1707 0.6580
C2 C 0.64770(15) 0.2013(2) 0.77601(12)
H2 H 0.6562 0.1089 0.7915
C3 C 0.64093(15) 0.2978(2) 0.83352(12)
C4 C 0.63026(19) 0.4306(2) 0.80682(13)
H3 H 0.6250 0.5009 0.8436
C5 C 0.62736(19) 0.4601(2) 0.72646(13)
H4 H 0.6215 0.5522 0.7100
C6 C 0.64381(19) 0.2538(2) 0.91944(13)
H5 H 0.5941 0.1868 0.9164
H6 H 0.7032 0.2075 0.9432
C7 C 0.71977(14) 0.4355(2) 1.00735(12)
H7 H 0.7404 0.4747 0.9613
H8 H 0.7680 0.3725 1.0376
C8 C 0.60589(17) 0.3052(2) 1.04482(13)
H9 H 0.6535 0.2408 1.0744
H10 H 0.5475 0.2548 1.0244
C9 C 0.70636(15) 0.5466(2) 1.06383(12)
H11 H 0.7645 0.5977 1.0838
H12 H 0.6585 0.6099 1.0334
C10 C 0.59307(15) 0.4149(2) 1.10331(13)
H13 H 0.5433 0.4769 1.0746
H14 H 0.5748 0.3736 1.1500
C11 C 0.66710(18) 0.6006(2) 1.18791(13)
H15 H 0.6125 0.6545 1.1597
H16 H 0.7216 0.6606 1.1978
C12 C 0.6875(3) 0.4067(3) 1.38441(16)
H17 H 0.7178 0.3274 1.4097
C13 C 0.6971(3) 0.4412(3) 1.30810(16)
H18 H 0.7330 0.3859 1.2825
C14 C 0.65554(15) 0.5540(2) 1.26940(12)
C15 C 0.60530(19) 0.6278(3) 1.31001(14)
H19 H 0.5743 0.7073 1.2857
C16 C 0.59946(18) 0.5869(3) 1.38665(14)
H20 H 0.5648 0.6416 1.4138
C17 C 0.95675(13) 0.3767(2) 0.83752(12)
C18 C 0.91363(14) 0.3352(2) 0.75821(12)
H21 H 0.8572 0.2868 0.7483
C19 C 0.95065(14) 0.3624(2) 0.69269(12)
C20 C 1.03262(15) 0.4338(2) 0.70771(13)
H22 H 1.0588 0.4538 0.6638
C21 C 1.07693(16) 0.4765(3) 0.78698(14)
H23 H 1.1331 0.5254 0.7969
C22 C 1.03916(15) 0.4477(2) 0.85083(13)
H24 H 1.0698 0.4769 0.9047
C23 C 0.91587(14) 0.3424(2) 0.90778(12)
H25 H 0.9272 0.4178 0.9477
H26 H 0.8484 0.3306 0.8865
C24 C 0.95829(14) 0.2132(2) 0.95068(11)
C25 C 0.90139(14) 0.3144(2) 0.60745(12)
H27 H 0.9301 0.3572 0.5674
H28 H 0.9094 0.2154 0.6044
C26 C 0.79918(14) 0.3469(2) 0.58379(11)
N1 N 0.63225(12) 0.36758(18) 0.67048(10)
N2 N 0.63359(12) 0.36225(18) 0.97532(10)
N3 N 0.67854(12) 0.49077(17) 1.13391(10)
N4 N 0.63872(12) 0.47735(18) 1.42466(10)
O1 O 0.77516(10) 0.46746(15) 0.59017(9)
O2 O 0.74097(10) 0.25643(15) 0.55697(8)
O3 O 1.03646(10) 0.22335(14) 1.00061(8)
O4 O 0.91303(11) 0.10614(15) 0.93257(9)
Co1_2 Co 0.633092(18) 0.41963(3) 1.547223(15)
Co1C Co 1.133092(18) 0.08037(3) 1.047223(15)
Co1A Co 0.866908(18) -0.08037(3) 0.952777(15)
N4_2 N 0.63872(12) 0.47735(18) 0.42466(10)
O3C O 0.53646(10) 0.27665(14) 0.50061(8)
O4A O 0.58697(11) 0.60614(15) 0.56743(9)
loop_
_geom_bond_atom_site_label_1
_geom_bond_atom_site_label_2
_geom_bond_site_symmetry_1
_geom_bond_site_symmetry_2
Co1 N1 1_555 1_555
C1 H1 1_555 1_555
C2 C1 1_555 1_555
H2 C2 1_555 1_555
C3 C2 1_555 1_555
C4 C3 1_555 1_555
H3 C4 1_555 1_555
C5 C4 1_555 1_555
H4 C5 1_555 1_555
C6 C3 1_555 1_555
H5 C6 1_555 1_555
H6 C6 1_555 1_555
C7 H7 1_555 1_555
H8 C7 1_555 1_555
C8 H9 1_555 1_555
H10 C8 1_555 1_555
C9 C7 1_555 1_555
H11 C9 1_555 1_555
H12 C9 1_555 1_555
C10 C8 1_555 1_555
H13 C10 1_555 1_555
H14 C10 1_555 1_555
C11 H15 1_555 1_555
H16 C11 1_555 1_555
C12 H17 1_555 1_555
C13 C12 1_555 1_555
H18 C13 1_555 1_555
C14 C11 1_555 1_555
C15 C14 1_555 1_555
H19 C15 1_555 1_555
C16 C15 1_555 1_555
H20 C16 1_555 1_555
C17 C18 1_555 1_555
C18 H21 1_555 1_555
C19 C18 1_555 1_555
C20 C19 1_555 1_555
H22 C20 1_555 1_555
C21 C20 1_555 1_555
H23 C21 1_555 1_555
C22 C17 1_555 1_555
H24 C22 1_555 1_555
C23 C17 1_555 1_555
H25 C23 1_555 1_555
H26 C23 1_555 1_555
C24 C23 1_555 1_555
C25 C19 1_555 1_555
H27 C25 1_555 1_555
H28 C25 1_555 1_555
C26 C25 1_555 1_555
N1 C1 1_555 1_555
N2 C6 1_555 1_555
N3 C9 1_555 1_555
N4 C12 1_555 1_555
O1 Co1 1_555 1_555
O2 Co1 1_555 1_555
O3 C24 1_555 1_555
O4 C24 1_555 1_555
Co1_2 N4 1_555 1_555
Co1C O3 1_555 1_555
Co1A O4 1_555 1_555
N4_2 Co1 1_555 1_555
O3C Co1 1_555 1_555
O4A Co1 1_555 1_555
C5 N1 1_555 1_555
C7 N2 1_555 1_555
C8 N2 1_555 1_555
C10 N3 1_555 1_555
C11 N3 1_555 1_555
C13 C14 1_555 1_555
C16 N4 1_555 1_555
C21 C22 1_555 1_555
C26 O1 1_555 1_555
C26 O2 1_555 1_555

#END
