
#######################################################################
#
#                 Cambridge Crystallographic Data Centre
#                                CCDC 
#
#######################################################################
#
# If this CIF has been generated from an entry in the Cambridge 
# Structural Database, then it will include bibliographic, chemical, 
# crystal, experimental, refinement or atomic coordinate data resulting 
# from the CCDC's data processing and validation procedures.
#
#######################################################################

data_DUXLAK
_symmetry_cell_setting           tetragonal
_symmetry_space_group_name_H-M   'P 43 21 2'
_symmetry_Int_Tables_number      96
_space_group_name_Hall           'P 4nw 2abw'
loop_
_symmetry_equiv_pos_site_id
_symmetry_equiv_pos_as_xyz
1 x,y,z
2 -x,-y,1/2+z
3 1/2-y,1/2+x,3/4+z
4 1/2+y,1/2-x,1/4+z
5 1/2-x,1/2+y,3/4-z
6 1/2+x,1/2-y,1/4-z
7 y,x,-z
8 -y,-x,1/2-z
_cell_length_a                   20.007(3)
_cell_length_b                   20.007(3)
_cell_length_c                   28.168(6)
_cell_angle_alpha                90
_cell_angle_beta                 90
_cell_angle_gamma                90
_cell_volume                     11275.1
loop_
_atom_site_label
_atom_site_type_symbol
_atom_site_fract_x
_atom_site_fract_y
_atom_site_fract_z
Zn1 Zn 0.23062(3) 1.00084(3) -0.553647(17)
N1 N 0.33228(16) 0.99217(19) -0.54839(12)
O1 O 0.2209(2) 1.0425(2) -0.48519(12)
C1 C 0.3716(3) 1.0442(3) -0.55097(18)
H1 H 0.3517 1.0866 -0.5539
C2 C 0.4410(3) 1.0407(3) -0.5496(2)
H2 H 0.4669 1.0799 -0.5511
O2 O 0.2209(2) 0.9337(2) -0.47991(13)
N2 N 1.12988(17) 0.9885(2) -0.56213(13)
Zn2 Zn 0.26401(2) 0.95003(2) -0.686280(17)
C3 C 0.4713(2) 0.9789(3) -0.54603(17)
O3 O 0.1957(2) 0.8260(2) -0.32146(14)
Zn3 Zn 0.18623(4) 0.74012(4) -0.28882(2)
N3 N 0.16092(17) 0.95476(19) -0.69037(13)
C4 C 0.4317(2) 0.9254(3) -0.54100(17)
H3 H 0.4503 0.8829 -0.5360
O4 O 0.2411(2) 0.8838(2) -0.25981(12)
N4 N -0.63241(19) 0.95319(18) -0.67688(13)
O5 O 0.26198(15) 0.85156(16) -0.66232(11)
C5 C 0.3640(2) 0.9334(2) -0.54327(18)
H4 H 0.3375 0.8947 -0.5411
O6 O 0.23926(16) 0.90090(15) -0.59536(13)
C6 C 0.5460(3) 0.9720(4) -0.5458(2)
H5 H 0.5609 0.9281 -0.5405
C7 C 0.5870(3) 1.0086(6) -0.5506(2)
H6 H 0.5695 1.0514 -0.5563
O7 O 0.26874(15) 0.59784(16) -0.66787(11)
C8 C 0.6632(3) 1.0109(5) -0.5508(2)
O8 O 0.24022(17) 0.54300(14) -0.60336(12)
C9 C 0.6939(3) 1.0722(5) -0.5553(3)
H7 H 0.6698 1.1125 -0.5574
O9 O 0.2712(2) 0.89929(19) -0.77008(15)
C10 C 0.7662(4) 1.0696(5) -0.5564(3)
H8 H 0.7905 1.1099 -0.5571
O10 O 0.27316(17) 1.00265(18) -0.74911(11)
C11 C 0.7992(3) 1.0122(4) -0.5566(2)
O11 O 0.2913(3) 1.1829(4) -0.8704(2)
C12 C 0.7676(3) 0.9540(5) -0.5532(2)
H9 H 0.7925 0.9142 -0.5517
O12 O 0.3380(3) 1.1524(3) -0.9380(2)
C13 C 0.6935(4) 0.9512(5) -0.5517(2)
H10 H 0.6696 0.9107 -0.5514
O13 O 0.26444(17) 0.73556(17) -0.2500
H11 H 0.2986(4) 0.7274(12) -0.2352(5)
C14 C 0.8741(3) 1.0173(5) -0.5580(2)
H12 H 0.8916 1.0608 -0.5563
C15 C 0.9154(3) 0.9722(4) -0.5611(2)
H13 H 0.8978 0.9287 -0.5636
C16 C 0.9880(2) 0.9768(3) -0.56147(18)
C17 C 1.0296(3) 0.9223(3) -0.56095(18)
H14 H 1.0111 0.8791 -0.5607
C18 C 1.0996(2) 0.9300(2) -0.56080(19)
H15 H 1.1262 0.8913 -0.5597
C19 C 1.0890(3) 1.0426(3) -0.5639(2)
H16 H 1.1078 1.0856 -0.5652
C20 C 1.0197(3) 1.0355(3) -0.5638(2)
H17 H 0.9936 1.0745 -0.5654
C21 C 0.1293(2) 1.0112(3) -0.69279(17)
H18 H 0.1551 1.0502 -0.6952
C22 C 0.0609(2) 1.0185(3) -0.69204(19)
H19 H 0.0423 1.0616 -0.6939
C23 C 0.0192(2) 0.9640(3) -0.68870(17)
C24 C 0.0534(3) 0.9023(3) -0.6867(2)
H20 H 0.0289 0.8623 -0.6845
C25 C 0.1226(2) 0.9000(2) -0.68803(18)
H21 H 0.1437 0.8580 -0.6872
C26 C -0.0513(2) 0.9674(3) -0.68550(19)
H22 H -0.0703 1.0104 -0.6855
C27 C -0.0918(2) 0.9188(3) -0.6827(2)
H23 H -0.0722 0.8761 -0.6829
C28 C -0.1657(3) 0.9201(3) -0.6790(2)
C29 C -0.2024(3) 0.9787(3) -0.6792(2)
H24 H -0.1798 1.0198 -0.6808
C30 C -0.2722(3) 0.9784(3) -0.67705(18)
H25 H -0.2964 1.0187 -0.6772
C31 C -0.3051(3) 0.9174(3) -0.6747(2)
C32 C -0.2701(3) 0.8597(4) -0.6729(4)
H26 H -0.2933 0.8190 -0.6700
C33 C -0.2023(3) 0.8589(3) -0.6753(3)
H27 H -0.1793 0.8179 -0.6744
C34 C -0.3799(3) 0.9160(4) -0.6720(2)
H28 H -0.3999 0.8736 -0.6707
C35 C -0.4202(2) 0.9668(4) -0.67134(18)
H29 H -0.4018 1.0100 -0.6706
C36 C -0.4930(3) 0.9596(3) -0.67166(15)
C37 C -0.5318(3) 1.0152(3) -0.6754(2)
H30 H -0.5113 1.0574 -0.6761
C38 C -0.6011(2) 1.0109(3) -0.6784(2)
H31 H -0.6262 1.0504 -0.6815
C39 C -0.5944(2) 0.8993(3) -0.6733(2)
H32 H -0.6156 0.8574 -0.6725
C40 C -0.5273(2) 0.9007(3) -0.6707(2)
H33 H -0.5036 0.8603 -0.6682
C41 C 0.2183(2) 0.9949(2) -0.40810(16)
C42 C 0.2198(3) 1.0569(3) -0.38603(18)
H34 H 0.2198 1.0960 -0.4045
C43 C 0.2212(4) 1.0615(3) -0.3374(2)
H35 H 0.2210 1.1037 -0.3227
C44 C 0.2229(3) 1.0036(3) -0.30974(17)
H36 H 0.2279 1.0070 -0.2766
C45 C 0.2171(3) 0.9406(3) -0.33114(17)
C46 C 0.2161(2) 0.9367(3) -0.38095(16)
H37 H 0.2140 0.8948 -0.3960
C47 C 0.2202(2) 0.9888(3) -0.46128(19)
C48 C 0.2177(3) 0.8791(3) -0.30140(18)
C49 C 0.24597(18) 0.7818(2) -0.59492(15)
C50 C 0.2351(2) 0.7784(2) -0.54667(15)
H38 H 0.2305 0.8181 -0.5292
C51 C 0.2308(3) 0.7179(2) -0.52366(16)
H39 H 0.2239 0.7163 -0.4907
C52 C 0.2367(2) 0.6605(2) -0.54911(15)
H40 H 0.2340 0.6192 -0.5333
C53 C 0.24668(19) 0.6613(2) -0.59789(15)
C54 C 0.25180(18) 0.7225(2) -0.62036(14)
H41 H 0.2593 0.7240 -0.6533
C55 C 0.2492(2) 0.8494(2) -0.61833(17)
C56 C 0.2532(2) 0.5960(2) -0.62506(17)
C57 C 0.2840(3) 0.9807(3) -0.83096(16)
C58 C 0.2814(3) 0.9319(3) -0.86739(19)
H42 H 0.2743 0.8865 -0.8605
C59 C 0.2898(4) 0.9541(5) -0.9135(2)
H43 H 0.2885 0.9224 -0.9381
C60 C 0.2999(4) 1.0191(4) -0.9250(2)
H44 H 0.3051 1.0325 -0.9568
C61 C 0.3021(3) 1.0653(3) -0.8880(2)
C62 C 0.2914(3) 1.0465(3) -0.84181(19)
H45 H 0.2891 1.0790 -0.8177
C63 C 0.2759(2) 0.9587(2) -0.77994(18)
C64 C 0.3081(4) 1.1428(4) -0.8996(3)
Zn1_2 Zn -0.76938(3) 1.00084(3) -0.553647(17)
Zn1_3 Zn 1.23062(3) 1.00084(3) -0.553647(17)
Zn1D Zn 0.26938(3) 0.50084(3) -0.696353(17)
Zn1D_2 Zn 0.26938(3) 1.50084(3) -0.696353(17)
Zn1G Zn -0.00084(3) 0.76938(3) 0.053647(17)
N1_2 N -0.66772(16) 0.99217(19) -0.54839(12)
O1G O -0.0425(2) 0.7791(2) -0.01481(12)
O1_2 O -0.7791(2) 1.0425(2) -0.48519(12)
C1_2 C -0.6284(3) 1.0442(3) -0.55097(18)
H1_2 H -0.6483 1.0866 -0.5539
C2_2 C -0.5590(3) 1.0407(3) -0.5496(2)
H2_2 H -0.5331 1.0799 -0.5511
O2G O 0.0663(2) 0.7791(2) -0.02009(13)
N2_2 N 0.12988(17) 0.9885(2) -0.56213(13)
N2_3 N -0.87012(17) 0.9885(2) -0.56213(13)
Zn2D Zn 0.23599(2) 1.45003(2) -0.563720(17)
Zn2_2 Zn -0.73599(2) 0.95003(2) -0.686280(17)
Zn2D_2 Zn 0.23599(2) 0.45003(2) -0.563720(17)
Zn2_3 Zn 1.26401(2) 0.95003(2) -0.686280(17)
C3_2 C -0.5287(2) 0.9789(3) -0.54603(17)
O3G O 0.1740(2) 0.8043(2) -0.17854(14)
Zn3G Zn 0.25988(4) 0.81377(4) -0.21118(2)
Zn3D Zn 0.31377(4) 1.24012(4) -0.96118(2)
N3_2 N 1.16092(17) 0.95476(19) -0.69037(13)
N3D N 0.33908(17) 1.45476(19) -0.55963(13)
C4_2 C -0.5683(2) 0.9254(3) -0.54100(17)
H3_2 H -0.5497 0.8829 -0.5360
O4G O 0.1162(2) 0.7589(2) -0.24019(12)
N4_2 N 0.36759(19) 0.95319(18) -0.67688(13)
N4D N 0.13241(19) 1.45319(18) -0.57312(13)
O5D O 0.23802(15) 1.35156(16) -0.58768(11)
C5_2 C -0.6360(2) 0.9334(2) -0.54327(18)
H4_2 H -0.6625 0.8947 -0.5411
O6D O 0.26074(16) 1.40090(15) -0.65464(13)
O6_2 O -0.76074(16) 0.90090(15) -0.59536(13)
C6_2 C -0.4540(3) 0.9720(4) -0.5458(2)
H5_2 H -0.4391 0.9281 -0.5405
C7_2 C -0.4130(3) 1.0086(6) -0.5506(2)
H6_2 H -0.4305 1.0514 -0.5563
O7D O 0.23126(15) 1.09784(16) -0.58213(11)
O7D_2 O -0.76874(15) 1.09784(16) -0.58213(11)
C8_2 C -0.3368(3) 1.0109(5) -0.5508(2)
O8D O 0.25978(17) 1.04300(14) -0.64664(12)
O8_2 O 0.24022(17) 1.54300(14) -0.60336(12)
C9_2 C -0.3061(3) 1.0722(5) -0.5553(3)
H7_2 H -0.3302 1.1125 -0.5574
O9D O 0.2288(2) 0.39929(19) -0.47992(15)
C10_2 C -0.2338(4) 1.0696(5) -0.5564(3)
H8_2 H -0.2095 1.1099 -0.5571
O10D O 0.22684(17) 0.50265(18) -0.50089(11)
O10D_2 O 0.22684(17) 1.50265(18) -0.50089(11)
C11_2 C -0.2008(3) 1.0122(4) -0.5566(2)
O11D O 0.2087(3) 0.6829(4) -0.3796(2)
C12_2 C -0.2324(3) 0.9540(5) -0.5532(2)
H9_2 H -0.2075 0.9142 -0.5517
O12D O 0.1620(3) 0.6524(3) -0.3120(2)
O12B O 0.3476(3) 0.8380(3) -0.1880(2)
C13_2 C -0.3065(4) 0.9512(5) -0.5517(2)
H10_2 H -0.3304 0.9107 -0.5514
H11G H 0.2726(12) 0.7014(4) -0.2648(5)
C14_2 C -0.1259(3) 1.0173(5) -0.5580(2)
H12_2 H -0.1084 1.0608 -0.5563
C15_2 C -0.0846(3) 0.9722(4) -0.5611(2)
H13_2 H -0.1022 0.9287 -0.5636
C16_2 C -0.0120(2) 0.9768(3) -0.56147(18)
C17_2 C 0.0296(3) 0.9223(3) -0.56095(18)
H14_2 H 0.0111 0.8791 -0.5607
C18_2 C 0.0996(2) 0.9300(2) -0.56080(19)
H15_2 H 0.1262 0.8913 -0.5597
C19_2 C 0.0890(3) 1.0426(3) -0.5639(2)
H16_2 H 0.1078 1.0856 -0.5652
C20_2 C 0.0197(3) 1.0355(3) -0.5638(2)
H17_2 H -0.0064 1.0745 -0.5654
C21_2 C 1.1293(2) 1.0112(3) -0.69279(17)
H18_2 H 1.1551 1.0502 -0.6952
C22_2 C 1.0609(2) 1.0185(3) -0.69204(19)
H19_2 H 1.0423 1.0616 -0.6939
C23_2 C 1.0192(2) 0.9640(3) -0.68870(17)
C24_2 C 1.0534(3) 0.9023(3) -0.6867(2)
H20_2 H 1.0289 0.8623 -0.6845
C25_2 C 1.1226(2) 0.9000(2) -0.68803(18)
H21_2 H 1.1437 0.8580 -0.6872
C26_2 C 0.9487(2) 0.9674(3) -0.68550(19)
H22_2 H 0.9297 1.0104 -0.6855
C27_2 C 0.9082(2) 0.9188(3) -0.6827(2)
H23_2 H 0.9278 0.8761 -0.6829
C28_2 C 0.8343(3) 0.9201(3) -0.6790(2)
C29_2 C 0.7976(3) 0.9787(3) -0.6792(2)
H24_2 H 0.8202 1.0198 -0.6808
C30_2 C 0.7278(3) 0.9784(3) -0.67705(18)
H25_2 H 0.7036 1.0187 -0.6772
C31_2 C 0.6949(3) 0.9174(3) -0.6747(2)
C32_2 C 0.7299(3) 0.8597(4) -0.6729(4)
H26_2 H 0.7067 0.8190 -0.6700
C33_2 C 0.7977(3) 0.8589(3) -0.6753(3)
H27_2 H 0.8207 0.8179 -0.6744
C34_2 C 0.6201(3) 0.9160(4) -0.6720(2)
H28_2 H 0.6001 0.8736 -0.6707
C35_2 C 0.5798(2) 0.9668(4) -0.67134(18)
H29_2 H 0.5982 1.0100 -0.6706
C36_2 C 0.5070(3) 0.9596(3) -0.67166(15)
C37_2 C 0.4682(3) 1.0152(3) -0.6754(2)
H30_2 H 0.4887 1.0574 -0.6761
C38_2 C 0.3989(2) 1.0109(3) -0.6784(2)
H31_2 H 0.3738 1.0504 -0.6815
C39_2 C 0.4056(2) 0.8993(3) -0.6733(2)
H32_2 H 0.3844 0.8574 -0.6725
C40_2 C 0.4727(2) 0.9007(3) -0.6707(2)
H33_2 H 0.4964 0.8603 -0.6682
C41G C 0.0051(2) 0.7817(2) -0.09190(16)
C42G C -0.0569(3) 0.7802(3) -0.11397(18)
H34G H -0.0960 0.7802 -0.0955
C43G C -0.0615(3) 0.7788(4) -0.1626(2)
H35G H -0.1037 0.7790 -0.1773
C44G C -0.0036(3) 0.7771(3) -0.19026(17)
H36G H -0.0070 0.7721 -0.2234
C45G C 0.0594(3) 0.7829(3) -0.16886(17)
C46G C 0.0633(3) 0.7839(2) -0.11905(16)
H37G H 0.1052 0.7860 -0.1040
C47G C 0.0112(3) 0.7798(2) -0.03872(19)
C48G C 0.1209(3) 0.7823(3) -0.19860(18)
C49D C 0.25403(18) 1.2818(2) -0.65508(15)
C50D C 0.2649(2) 1.2784(2) -0.70333(15)
H38D H 0.2695 1.3181 -0.7208
C51D C 0.2692(3) 1.2179(2) -0.72634(16)
H39D H 0.2761 1.2163 -0.7593
C52D C 0.2633(2) 1.1605(2) -0.70089(15)
H40D H 0.2660 1.1192 -0.7167
C53D C 0.25332(19) 1.1613(2) -0.65211(15)
C54D C 0.24820(18) 1.2225(2) -0.62964(14)
H41D H 0.2407 1.2240 -0.5967
C55D C 0.2508(2) 1.3494(2) -0.63167(17)
C56D C 0.2468(2) 1.0960(2) -0.62494(17)
C57D C 0.2160(3) 0.4807(3) -0.41904(16)
C58D C 0.2186(3) 0.4319(3) -0.38261(19)
H42D H 0.2257 0.3865 -0.3895
C59D C 0.2102(4) 0.4541(5) -0.3365(2)
H43D H 0.2115 0.4224 -0.3119
C60D C 0.2001(4) 0.5191(4) -0.3250(2)
H44D H 0.1949 0.5325 -0.2932
C61D C 0.1979(3) 0.5653(3) -0.3620(2)
C62D C 0.2086(3) 0.5465(3) -0.40819(19)
H45D H 0.2109 0.5790 -0.4323
C63D C 0.2241(2) 0.4587(2) -0.47006(18)
C64D C 0.1919(4) 0.6428(4) -0.3504(3)
N5 N 0.32520(17) 0.67480(17) 0.2500
C65 C 0.23190(17) 0.76810(17) 0.2500
H47 H 0.2083 0.7673 0.2801
C66 C 0.28448(14) 0.71552(14) 0.2500
H47G H 0.2327 0.7917 0.2199
H46? H 0.2525 0.8115 0.2456
H48? H 0.2007 0.7597 0.2244
loop_
_geom_bond_atom_site_label_1
_geom_bond_atom_site_label_2
_geom_bond_site_symmetry_1
_geom_bond_site_symmetry_2
Zn1 N1 1_555 1_555
N1 C1 1_555 1_555
O1 Zn1 1_555 1_555
C1 H1 1_555 1_555
C2 C1 1_555 1_555
H2 C2 1_555 1_555
O2 C47 1_555 1_555
N2 C18 1_555 1_555
Zn2 N3 1_555 1_555
C3 C2 1_555 1_555
O3 Zn3 1_555 1_555
Zn3 O13 1_555 1_555
N3 C21 1_555 1_555
C4 C3 1_555 1_555
H3 C4 1_555 1_555
O4 C48 1_555 1_555
N4 C38 1_555 1_555
O5 Zn2 1_555 1_555
C5 N1 1_555 1_555
H4 C5 1_555 1_555
N5 C66 1_555 1_555
O6 Zn1 1_555 1_555
C6 C3 1_555 1_555
H5 C6 1_555 1_555
C7 C6 1_555 1_555
H6 C7 1_555 1_555
O7 C56 1_555 1_555
C8 C7 1_555 1_555
O8 C56 1_555 1_555
C9 C8 1_555 1_555
H7 C9 1_555 1_555
O9 C63 1_555 1_555
C10 C9 1_555 1_555
H8 C10 1_555 1_555
O10 Zn2 1_555 1_555
C11 C10 1_555 1_555
O11 C64 1_555 1_555
C12 C11 1_555 1_555
H9 C12 1_555 1_555
O12 C64 1_555 1_555
C13 C8 1_555 1_555
H10 C13 1_555 1_555
O13 H11 1_555 1_555
C14 C11 1_555 1_555
H12 C14 1_555 1_555
C15 C14 1_555 1_555
H13 C15 1_555 1_555
C16 C15 1_555 1_555
C17 C16 1_555 1_555
H14 C17 1_555 1_555
C18 C17 1_555 1_555
H15 C18 1_555 1_555
C19 N2 1_555 1_555
H16 C19 1_555 1_555
C20 C16 1_555 1_555
H17 C20 1_555 1_555
C21 H18 1_555 1_555
C22 C21 1_555 1_555
H19 C22 1_555 1_555
C23 C22 1_555 1_555
C24 C23 1_555 1_555
H20 C24 1_555 1_555
C25 N3 1_555 1_555
H21 C25 1_555 1_555
C26 C23 1_555 1_555
H22 C26 1_555 1_555
C27 C26 1_555 1_555
H23 C27 1_555 1_555
C28 C27 1_555 1_555
C29 C28 1_555 1_555
H24 C29 1_555 1_555
C30 C29 1_555 1_555
H25 C30 1_555 1_555
C31 C30 1_555 1_555
C32 C31 1_555 1_555
H26 C32 1_555 1_555
C33 C28 1_555 1_555
H27 C33 1_555 1_555
C34 C31 1_555 1_555
H28 C34 1_555 1_555
C35 C34 1_555 1_555
H29 C35 1_555 1_555
C36 C35 1_555 1_555
C37 C36 1_555 1_555
H30 C37 1_555 1_555
C38 C37 1_555 1_555
H31 C38 1_555 1_555
C39 N4 1_555 1_555
H32 C39 1_555 1_555
C40 C36 1_555 1_555
H33 C40 1_555 1_555
C41 C42 1_555 1_555
C42 H34 1_555 1_555
C43 C42 1_555 1_555
H35 C43 1_555 1_555
C44 C43 1_555 1_555
H36 C44 1_555 1_555
C45 C44 1_555 1_555
C46 C41 1_555 1_555
H37 C46 1_555 1_555
C47 O1 1_555 1_555
C48 O3 1_555 1_555
C49 C50 1_555 1_555
C50 H38 1_555 1_555
C51 C50 1_555 1_555
H39 C51 1_555 1_555
C52 C51 1_555 1_555
H40 C52 1_555 1_555
C53 C52 1_555 1_555
C54 C49 1_555 1_555
H41 C54 1_555 1_555
C55 O5 1_555 1_555
C56 C53 1_555 1_555
C57 C58 1_555 1_555
C58 H42 1_555 1_555
C59 C58 1_555 1_555
H43 C59 1_555 1_555
C60 C59 1_555 1_555
H44 C60 1_555 1_555
C61 C60 1_555 1_555
C62 C57 1_555 1_555
H45 C62 1_555 1_555
C63 O10 1_555 1_555
C64 C61 1_555 1_555
C65 H47 1_555 1_555
C66 C65 1_555 1_555
Zn1_2 N1_2 1_555 1_555
Zn1_3 N2 1_555 1_555
Zn1D O7 1_555 1_555
Zn1D_2 O6D 1_555 1_555
Zn1G O1G 1_555 1_555
N1_2 C1_2 1_555 1_555
O1G C47G 1_555 1_555
O1_2 Zn1_2 1_555 1_555
C1_2 H1_2 1_555 1_555
C2_2 C1_2 1_555 1_555
H2_2 C2_2 1_555 1_555
O2G C47G 1_555 1_555
N2_2 Zn1 1_555 1_555
N2_3 Zn1_2 1_555 1_555
Zn2D N3D 1_555 1_555
Zn2_2 N4 1_555 1_555
Zn2D_2 O8 1_555 1_555
Zn2_3 N3_2 1_555 1_555
C3_2 C2_2 1_555 1_555
O3G Zn3G 1_555 1_555
Zn3G O4 1_555 1_555
Zn3D O12 1_555 1_555
N3_2 C21_2 1_555 1_555
C4_2 C3_2 1_555 1_555
H3_2 C4_2 1_555 1_555
O4G Zn3 1_555 1_555
N4_2 Zn2 1_555 1_555
N4D Zn2D 1_555 1_555
O5D Zn2D 1_555 1_555
C5_2 N1_2 1_555 1_555
H4_2 C5_2 1_555 1_555
O6D C55D 1_555 1_555
O6_2 Zn1_2 1_555 1_555
C6_2 C3_2 1_555 1_555
H5_2 C6_2 1_555 1_555
C7_2 C6_2 1_555 1_555
H6_2 C7_2 1_555 1_555
O7D Zn1 1_555 1_555
O7D_2 Zn1_2 1_555 1_555
C8_2 C7_2 1_555 1_555
O8D Zn2 1_555 1_555
O8_2 Zn2D 1_555 1_555
C9_2 C8_2 1_555 1_555
H7_2 C9_2 1_555 1_555
O9D C63D 1_555 1_555
C10_2 C9_2 1_555 1_555
H8_2 C10_2 1_555 1_555
O10D Zn2D_2 1_555 1_555
O10D_2 Zn2D 1_555 1_555
C11_2 C10_2 1_555 1_555
O11D C64D 1_555 1_555
C12_2 C11_2 1_555 1_555
H9_2 C12_2 1_555 1_555
O12D Zn3 1_555 1_555
O12B Zn3G 1_555 1_555
C13_2 C8_2 1_555 1_555
H10_2 C13_2 1_555 1_555
H11G O13 1_555 1_555
C14_2 C11_2 1_555 1_555
H12_2 C14_2 1_555 1_555
C15_2 C14_2 1_555 1_555
H13_2 C15_2 1_555 1_555
C16_2 C15_2 1_555 1_555
C17_2 C16_2 1_555 1_555
H14_2 C17_2 1_555 1_555
C18_2 N2_2 1_555 1_555
H15_2 C18_2 1_555 1_555
C19_2 N2_2 1_555 1_555
H16_2 C19_2 1_555 1_555
C20_2 C16_2 1_555 1_555
H17_2 C20_2 1_555 1_555
C21_2 H18_2 1_555 1_555
C22_2 C21_2 1_555 1_555
H19_2 C22_2 1_555 1_555
C23_2 C22_2 1_555 1_555
C24_2 C23_2 1_555 1_555
H20_2 C24_2 1_555 1_555
C25_2 N3_2 1_555 1_555
H21_2 C25_2 1_555 1_555
C26_2 C23_2 1_555 1_555
H22_2 C26_2 1_555 1_555
C27_2 C26_2 1_555 1_555
H23_2 C27_2 1_555 1_555
C28_2 C27_2 1_555 1_555
C29_2 C28_2 1_555 1_555
H24_2 C29_2 1_555 1_555
C30_2 C29_2 1_555 1_555
H25_2 C30_2 1_555 1_555
C31_2 C30_2 1_555 1_555
C32_2 C31_2 1_555 1_555
H26_2 C32_2 1_555 1_555
C33_2 C28_2 1_555 1_555
H27_2 C33_2 1_555 1_555
C34_2 C31_2 1_555 1_555
H28_2 C34_2 1_555 1_555
C35_2 C34_2 1_555 1_555
H29_2 C35_2 1_555 1_555
C36_2 C35_2 1_555 1_555
C37_2 C36_2 1_555 1_555
H30_2 C37_2 1_555 1_555
C38_2 N4_2 1_555 1_555
H31_2 C38_2 1_555 1_555
C39_2 N4_2 1_555 1_555
H32_2 C39_2 1_555 1_555
C40_2 C36_2 1_555 1_555
H33_2 C40_2 1_555 1_555
C41G C42G 1_555 1_555
C42G H34G 1_555 1_555
C43G C42G 1_555 1_555
H35G C43G 1_555 1_555
C44G C43G 1_555 1_555
H36G C44G 1_555 1_555
C45G C44G 1_555 1_555
C46G C41G 1_555 1_555
H37G C46G 1_555 1_555
C47G C41G 1_555 1_555
C48G O3G 1_555 1_555
C49D C50D 1_555 1_555
C50D H38D 1_555 1_555
C51D C50D 1_555 1_555
H39D C51D 1_555 1_555
C52D C51D 1_555 1_555
H40D C52D 1_555 1_555
C53D C52D 1_555 1_555
C54D C49D 1_555 1_555
H41D C54D 1_555 1_555
C55D O5D 1_555 1_555
C56D O7D 1_555 1_555
C57D C58D 1_555 1_555
C58D H42D 1_555 1_555
C59D C58D 1_555 1_555
H43D C59D 1_555 1_555
C60D C59D 1_555 1_555
H44D C60D 1_555 1_555
C61D C60D 1_555 1_555
C62D C57D 1_555 1_555
H45D C62D 1_555 1_555
C63D O10D 1_555 1_555
C64D O12D 1_555 1_555
H47G C65 1_555 1_555
C4 C5 1_555 1_555
O6 C55 1_555 1_555
C12 C13 1_555 1_555
O13 Zn3G 1_555 1_555
C19 C20 1_555 1_555
C24 C25 1_555 1_555
C32 C33 1_555 1_555
C39 C40 1_555 1_555
C41 C47 1_555 1_555
C45 C46 1_555 1_555
C45 C48 1_555 1_555
C49 C55 1_555 1_555
C53 C54 1_555 1_555
C57 C63 1_555 1_555
C61 C62 1_555 1_555
C4_2 C5_2 1_555 1_555
O4G C48G 1_555 1_555
O8D C56D 1_555 1_555
C12_2 C13_2 1_555 1_555
C17_2 C18_2 1_555 1_555
C19_2 C20_2 1_555 1_555
C24_2 C25_2 1_555 1_555
C32_2 C33_2 1_555 1_555
C37_2 C38_2 1_555 1_555
C39_2 C40_2 1_555 1_555
C45G C46G 1_555 1_555
C45G C48G 1_555 1_555
C49D C55D 1_555 1_555
C53D C54D 1_555 1_555
C53D C56D 1_555 1_555
C57D C63D 1_555 1_555
C61D C62D 1_555 1_555
C61D C64D 1_555 1_555

#END
