
#######################################################################
#
#                 Cambridge Crystallographic Data Centre
#                                CCDC 
#
#######################################################################
#
# If this CIF has been generated from an entry in the Cambridge 
# Structural Database, then it will include bibliographic, chemical, 
# crystal, experimental, refinement or atomic coordinate data resulting 
# from the CCDC's data processing and validation procedures.
#
#######################################################################

data_DUXMIT01
_symmetry_cell_setting           triclinic
_symmetry_space_group_name_H-M   'P -1'
_symmetry_Int_Tables_number      2
_space_group_name_Hall           '-P 1'
loop_
_symmetry_equiv_pos_site_id
_symmetry_equiv_pos_as_xyz
1 x,y,z
2 -x,-y,-z
_cell_length_a                   8.1080(16)
_cell_length_b                   9.985(2)
_cell_length_c                   10.550(2)
_cell_angle_alpha                64.58(3)
_cell_angle_beta                 84.25(3)
_cell_angle_gamma                82.83(3)
_cell_volume                     764.352
loop_
_atom_site_label
_atom_site_type_symbol
_atom_site_fract_x
_atom_site_fract_y
_atom_site_fract_z
O1 O 0.3585(6) -0.1555(6) 0.8302(6)
H1 H 0.2945 -0.2128 0.8229
H2 H 0.4238 -0.1269 0.7572
Co1 Co 0.86154(10) -0.26393(8) -0.13345(7)
O2 O -0.0938(5) -0.4300(4) 0.8042(4)
O3 O -0.0613(5) -0.6419(4) 0.9990(4)
O4 O 0.0396(5) -1.0957(4) 0.7100(4)
O5 O -0.1416(5) -1.0549(4) 0.8625(4)
O6 O 0.3195(5) -0.3675(4) 0.4567(4)
N1 N 0.2722(5) -0.5834(5) 0.4471(4)
H3 H 0.2231 -0.5784 0.3775
N2 N 0.6732(6) -0.3294(5) 0.0327(4)
C1 C 0.4485(7) -0.4118(6) 0.2654(5)
C2 C 0.3395(7) -0.4502(6) 0.3976(6)
C3 C 0.1088(6) -0.5737(6) 0.6536(5)
H4 H 0.1310 -0.4759 0.6274
C4 C 0.0155(6) -0.6477(6) 0.7769(5)
C5 C -0.0510(6) -0.5672(6) 0.8674(6)
C6 C 0.5279(7) -0.5159(6) 0.2215(6)
H5 H 0.5076 -0.6156 0.2694
C7 C 0.1267(7) -0.7906(6) 0.6069(6)
H6 H 0.1650 -0.8395 0.5505
C8 C 0.1683(6) -0.6462(6) 0.5701(5)
C9 C -0.0245(6) -0.7897(5) 0.8148(5)
H7 H -0.0864 -0.8382 0.8981
C10 C -0.0283(7) -1.0118(6) 0.7678(5)
C11 C 0.0280(7) -0.8606(5) 0.7282(5)
C12 C 0.5949(8) -0.2292(6) 0.0765(6)
H8 H 0.6173 -0.1302 0.0269
C13 C 0.4839(7) -0.2646(6) 0.1902(6)
H9 H 0.4329 -0.1911 0.2168
C14 C 0.6387(8) -0.4705(6) 0.1049(6)
H10 H 0.6911 -0.5416 0.0757
O8 O 0.6762(5) -0.1738(4) -0.2883(4)
H13 H 0.6784 -0.0900 -0.3593
H14 H 0.7401 -0.2514 -0.2788
Co1A Co 0.13846(10) -0.73607(8) 1.13345(7)
Co1_2 Co -0.13846(10) -1.26393(8) 0.86655(7)
Co1_3 Co -0.13846(10) -0.26393(8) 0.86655(7)
O2_2 O 0.9062(5) -0.4300(4) -0.1958(4)
O3A O 1.0613(5) -0.3581(4) 0.0010(4)
O4_2 O 1.0396(5) -0.0957(4) -0.2900(4)
O5_2 O 0.8584(5) -0.0549(4) -0.1375(4)
O7 O 0.2779(6) -0.1019(5) 0.4984(5)
H11 H 0.2007 -0.1215 0.5643
H12 H 0.3322 -0.1849 0.5055
loop_
_geom_bond_atom_site_label_1
_geom_bond_atom_site_label_2
_geom_bond_site_symmetry_1
_geom_bond_site_symmetry_2
O1 H1 1_555 1_555
H2 O1 1_555 1_555
Co1 N2 1_555 1_555
O2 C5 1_555 1_555
O3 C5 1_555 1_555
O4 C10 1_555 1_555
O5 C10 1_555 1_555
O6 C2 1_555 1_555
N1 H3 1_555 1_555
N2 C12 1_555 1_555
C1 C2 1_555 1_555
C2 N1 1_555 1_555
C3 H4 1_555 1_555
C4 C3 1_555 1_555
C5 C4 1_555 1_555
C6 C1 1_555 1_555
H5 C6 1_555 1_555
C7 H6 1_555 1_555
C8 N1 1_555 1_555
C9 C4 1_555 1_555
H7 C9 1_555 1_555
C10 C11 1_555 1_555
C11 C7 1_555 1_555
C12 H8 1_555 1_555
C13 C1 1_555 1_555
H9 C13 1_555 1_555
C14 N2 1_555 1_555
H10 C14 1_555 1_555
O7 H11 1_555 1_555
H12 O7 1_555 1_555
O8 Co1 1_555 1_555
H13 O8 1_555 1_555
H14 O8 1_555 1_555
Co1A O3 1_555 1_555
Co1_2 O4 1_555 1_555
Co1_3 O2 1_555 1_555
O2_2 Co1 1_555 1_555
O3A Co1 1_555 1_555
O4_2 Co1 1_555 1_555
O5_2 Co1 1_555 1_555
O5 Co1_2 1_555 1_555
C3 C8 1_555 1_555
C6 C14 1_555 1_555
C7 C8 1_555 1_555
C9 C11 1_555 1_555
C12 C13 1_555 1_555

#END
