
#######################################################################
#
#                 Cambridge Crystallographic Data Centre
#                                CCDC 
#
#######################################################################
#
# If this CIF has been generated from an entry in the Cambridge 
# Structural Database, then it will include bibliographic, chemical, 
# crystal, experimental, refinement or atomic coordinate data resulting 
# from the CCDC's data processing and validation procedures.
#
#######################################################################

data_DUXMIT
_symmetry_cell_setting           triclinic
_symmetry_space_group_name_H-M   'P -1'
_symmetry_Int_Tables_number      2
_space_group_name_Hall           '-P 1'
loop_
_symmetry_equiv_pos_site_id
_symmetry_equiv_pos_as_xyz
1 x,y,z
2 -x,-y,-z
_cell_length_a                   8.0877(11)
_cell_length_b                   9.9836(14)
_cell_length_c                   10.5561(14)
_cell_angle_alpha                64.586(2)
_cell_angle_beta                 84.2240(10)
_cell_angle_gamma                82.821(2)
_cell_volume                     762.778
loop_
_atom_site_label
_atom_site_type_symbol
_atom_site_fract_x
_atom_site_fract_y
_atom_site_fract_z
Co1 Co 0.63814(5) 0.76407(4) 0.63330(4)
C1 C 1.5276(4) 1.5119(3) -0.2674(3)
C2 C 1.4726(4) 1.3608(3) -0.2280(3)
C3 C 1.3738(4) 1.2904(3) -0.1069(3)
H1 H 1.3366 1.3389 -0.0499
C4 C 1.3306(4) 1.1477(3) -0.0706(3)
C5 C 1.3912(4) 1.0739(3) -0.1546(3)
H2 H 1.3688 0.9761 -0.1281
C6 C 1.4847(4) 1.1474(3) -0.2776(3)
C7 C 1.5241(4) 1.2901(3) -0.3152(3)
H3 H 1.5851 1.3391 -0.3989
C8 C 1.1612(4) 0.9510(3) 0.1020(3)
C9 C 1.0512(4) 0.9119(4) 0.2345(3)
C10 C 0.9710(5) 1.0156(4) 0.2784(3)
H4 H 0.9907 1.1154 0.2302
C11 C 0.8604(5) 0.9698(4) 0.3952(3)
H5 H 0.8079 1.0411 0.4242
C12 C 0.9053(4) 0.7292(4) 0.4241(4)
H6 H 0.8839 0.6300 0.4741
C13 C 1.0164(4) 0.7650(4) 0.3094(3)
H7 H 1.0675 0.6917 0.2826
C14 C 1.5504(4) 1.0679(4) -0.3672(3)
N1 N 1.2295(3) 1.0815(3) 0.0538(3)
H8 H 1.2093 1.1303 0.1047
N2 N 0.8258(3) 0.8293(3) 0.4678(3)
O1 O 1.4607(3) 1.5948(2) -0.2098(2)
O2 O 1.6406(3) 1.5561(2) -0.3628(2)
O3 O 1.5612(3) 1.1425(2) -0.4988(2)
O4 O 1.5933(3) 0.9301(2) -0.3042(2)
O5 O 1.1799(3) 0.8676(3) 0.0439(2)
O6 O 0.8210(3) 0.6725(3) 0.7892(2)
H9 H 0.8093 0.7216 0.8388
H10 H 0.9173 0.6842 0.7478
Co1_2 Co 1.63814(5) 1.76407(4) -0.36670(4)
Co1A Co 1.36186(5) 1.23593(4) -0.63330(4)
Co1_3 Co 1.63814(5) 0.76407(4) -0.36670(4)
O1_2 O 0.4607(3) 0.5948(2) 0.7902(2)
O2_2 O 0.6406(3) 0.5561(2) 0.6372(2)
O3A O 0.4388(3) 0.8575(2) 0.4988(2)
O4_2 O 0.5933(3) 0.9301(2) 0.6958(2)
O7 O 0.7781(4) 0.3959(3) 0.9980(3)
H11 H 0.7060 0.4018 1.0602
H12 H 0.7889 0.4832 0.9345
O8 O 0.1416(4) 0.6569(4) 0.6694(3)
H13 H 0.0531 0.6577 0.7199
H14 H 0.2253 0.6369 0.7193
loop_
_geom_bond_atom_site_label_1
_geom_bond_atom_site_label_2
_geom_bond_site_symmetry_1
_geom_bond_site_symmetry_2
Co1 N2 1_555 1_555
C1 C2 1_555 1_555
C2 C3 1_555 1_555
C3 H1 1_555 1_555
C4 C3 1_555 1_555
C5 C4 1_555 1_555
H2 C5 1_555 1_555
C6 C5 1_555 1_555
C7 C2 1_555 1_555
H3 C7 1_555 1_555
C8 C9 1_555 1_555
C9 C10 1_555 1_555
C10 H4 1_555 1_555
C11 C10 1_555 1_555
H5 C11 1_555 1_555
C12 H6 1_555 1_555
C13 C9 1_555 1_555
H7 C13 1_555 1_555
C14 C6 1_555 1_555
N1 C4 1_555 1_555
H8 N1 1_555 1_555
N2 C11 1_555 1_555
O1 C1 1_555 1_555
O2 C1 1_555 1_555
O3 C14 1_555 1_555
O4 C14 1_555 1_555
O5 C8 1_555 1_555
O6 Co1 1_555 1_555
H9 O6 1_555 1_555
H10 O6 1_555 1_555
O7 H11 1_555 1_555
H12 O7 1_555 1_555
O8 H13 1_555 1_555
H14 O8 1_555 1_555
Co1_2 O1 1_555 1_555
Co1A O3 1_555 1_555
Co1_3 O4 1_555 1_555
O1_2 Co1 1_555 1_555
O2_2 Co1 1_555 1_555
O3A Co1 1_555 1_555
O4_2 Co1 1_555 1_555
C6 C7 1_555 1_555
C8 N1 1_555 1_555
C12 C13 1_555 1_555
C12 N2 1_555 1_555
O2 Co1_2 1_555 1_555

#END
