
#######################################################################
#
#                 Cambridge Crystallographic Data Centre
#                                CCDC 
#
#######################################################################
#
# If this CIF has been generated from an entry in the Cambridge 
# Structural Database, then it will include bibliographic, chemical, 
# crystal, experimental, refinement or atomic coordinate data resulting 
# from the CCDC's data processing and validation procedures.
#
#######################################################################

data_DUXMEP
_symmetry_cell_setting           triclinic
_symmetry_space_group_name_H-M   'P -1'
_symmetry_Int_Tables_number      2
_space_group_name_Hall           '-P 1'
loop_
_symmetry_equiv_pos_site_id
_symmetry_equiv_pos_as_xyz
1 x,y,z
2 -x,-y,-z
_cell_length_a                   7.5082(8)
_cell_length_b                   10.0409(10)
_cell_length_c                   13.2633(13)
_cell_angle_alpha                71.085(2)
_cell_angle_beta                 77.8090(10)
_cell_angle_gamma                73.521(2)
_cell_volume                     899.192
loop_
_atom_site_label
_atom_site_type_symbol
_atom_site_fract_x
_atom_site_fract_y
_atom_site_fract_z
Mn1 Mn 0.72346(5) 0.70949(3) 0.08864(2)
C1 C 0.7253(3) 1.4291(2) -0.82239(19)
C2 C 0.7339(3) 1.0742(2) -0.60583(17)
C3 C 0.7300(3) 1.2188(2) -0.65704(18)
H1 H 0.7282 1.2803 -0.6172
C4 C 0.7280(3) 1.0366(2) -0.77518(17)
C5 C 0.7213(3) 0.9368(2) -0.83693(18)
C6 C 0.8076(3) 0.8872(3) -0.43707(18)
C7 C 0.7283(3) 1.1806(2) -0.82686(17)
H2 H 0.7283 1.2159 -0.9009
C8 C 0.7320(3) 0.9829(2) -0.66510(17)
H3 H 0.7336 0.8859 -0.6308
C9 C 0.7286(3) 1.2727(2) -0.76751(18)
C10 C 0.7828(3) 0.8574(2) -0.31728(18)
C11 C 0.7414(4) 0.7266(3) -0.25543(19)
H4 H 0.7280 0.6613 -0.2880
C12 C 0.8059(3) 0.9487(3) -0.26564(19)
H5 H 0.8311 1.0382 -0.3048
C13 C 0.7913(3) 0.9056(3) -0.15474(19)
H6 H 0.8127 0.9662 -0.1207
C14 C 0.7206(4) 0.6948(3) -0.14553(19)
H7 H 0.6858 0.6092 -0.1048
N1 N 0.7478(3) 0.7806(2) -0.09381(15)
N2 N 0.7358(3) 1.0240(2) -0.49311(14)
H8 H 0.6870 1.0863 -0.4573
O1 O 0.7499(3) 1.47345(17) -0.92281(13)
O2 O 0.6968(3) 1.51432(17) -0.76608(14)
O3 O 0.7103(3) 0.98194(19) -0.93491(13)
O4 O 0.7287(3) 0.80513(17) -0.78583(13)
O5 O 0.4250(2) 0.7694(2) 0.08344(15)
H9 H 0.3872 0.8576 0.0493
H10 H 0.3629 0.7512 0.1458
O6 O 1.0263(3) 0.6626(2) 0.06830(15)
H11 H 1.0770 0.5978 0.0360
H12 H 1.0699 0.6404 0.1273
O7 O 0.8883(3) 0.7898(2) -0.47891(14)
Mn1_2 Mn 0.72346(5) 1.70949(3) -0.91136(2)
Mn1_3 Mn 0.72346(5) 0.70949(3) -0.91136(2)
O1_2 O 0.7499(3) 0.47345(17) 0.07719(13)
O2_2 O 0.6968(3) 0.51432(17) 0.23392(14)
O3_2 O 0.7103(3) 0.98194(19) 0.06509(13)
O4_2 O 0.7287(3) 0.80513(17) 0.21417(13)
O8 O 0.4609(3) 0.7383(2) 0.40485(17)
H13 H 0.4235 0.6652 0.4065
H14 H 0.5391 0.7567 0.3486
O9 O 0.9017(4) 0.4977(3) 0.3986(2)
H15 H 0.8273 0.5007 0.4563
H16 H 0.8388 0.5026 0.3507
O10 O 0.1415(3) 0.6935(3) 0.24796(18)
H17 H 0.2251 0.7186 0.1964
H18 H 0.1957 0.6320 0.3000
O11 O 0.3343(4) 0.4912(3) 0.4135(2)
H19 H 0.2630 0.4934 0.4723
H20 H 0.2776 0.5523 0.3623
loop_
_geom_bond_atom_site_label_1
_geom_bond_atom_site_label_2
_geom_bond_site_symmetry_1
_geom_bond_site_symmetry_2
Mn1 N1 1_555 1_555
C1 C9 1_555 1_555
C2 C3 1_555 1_555
C3 H1 1_555 1_555
C4 C5 1_555 1_555
C5 O3 1_555 1_555
C6 C10 1_555 1_555
C7 C4 1_555 1_555
H2 C7 1_555 1_555
C8 C2 1_555 1_555
H3 C8 1_555 1_555
C9 C3 1_555 1_555
C10 C11 1_555 1_555
C11 H4 1_555 1_555
C12 C10 1_555 1_555
H5 C12 1_555 1_555
C13 C12 1_555 1_555
H6 C13 1_555 1_555
C14 C11 1_555 1_555
H7 C14 1_555 1_555
N1 C13 1_555 1_555
N2 C2 1_555 1_555
H8 N2 1_555 1_555
O1 C1 1_555 1_555
O2 C1 1_555 1_555
O3 Mn1_3 1_555 1_555
O4 C5 1_555 1_555
O5 Mn1 1_555 1_555
H9 O5 1_555 1_555
H10 O5 1_555 1_555
O6 Mn1 1_555 1_555
H11 O6 1_555 1_555
H12 O6 1_555 1_555
O7 C6 1_555 1_555
O8 H13 1_555 1_555
H14 O8 1_555 1_555
O9 H15 1_555 1_555
H16 O9 1_555 1_555
O10 H17 1_555 1_555
H18 O10 1_555 1_555
O11 H19 1_555 1_555
H20 O11 1_555 1_555
Mn1_2 O1 1_555 1_555
Mn1_3 O4 1_555 1_555
O1_2 Mn1 1_555 1_555
O2_2 Mn1 1_555 1_555
O3_2 Mn1 1_555 1_555
O4_2 Mn1 1_555 1_555
C4 C8 1_555 1_555
C6 N2 1_555 1_555
C7 C9 1_555 1_555
C14 N1 1_555 1_555
O2 Mn1_2 1_555 1_555

#END
