
#######################################################################
#
#                 Cambridge Crystallographic Data Centre
#                                CCDC 
#
#######################################################################
#
# If this CIF has been generated from an entry in the Cambridge 
# Structural Database, then it will include bibliographic, chemical, 
# crystal, experimental, refinement or atomic coordinate data resulting 
# from the CCDC's data processing and validation procedures.
#
#######################################################################

data_DUXMUF
_symmetry_cell_setting           monoclinic
_symmetry_space_group_name_H-M   'P 21/c'
_symmetry_Int_Tables_number      14
_space_group_name_Hall           '-P 2ybc'
loop_
_symmetry_equiv_pos_site_id
_symmetry_equiv_pos_as_xyz
1 x,y,z
2 -x,1/2+y,1/2-z
3 -x,-y,-z
4 x,1/2-y,1/2+z
_cell_length_a                   7.698(5)
_cell_length_b                   17.961(12)
_cell_length_c                   12.777(9)
_cell_angle_alpha                90
_cell_angle_beta                 102.005(9)
_cell_angle_gamma                90
_cell_volume                     1727.96
loop_
_atom_site_label
_atom_site_type_symbol
_atom_site_fract_x
_atom_site_fract_y
_atom_site_fract_z
N1 N 0.0160(5) 0.3378(2) 0.7770(3)
H1 H -0.0073 0.3349 0.8399
C1 C -0.1014(4) 0.3343(2) 0.6818(3)
H2 H -0.2232 0.3270 0.6725
N2 N 0.2018(4) 0.38643(16) 0.4107(2)
C2 C 0.1101(6) 0.4482(2) 0.3892(3)
H3 H 0.1160 0.4830 0.4437
C3 C 0.1902(5) 0.3371(2) 0.3317(3)
H4 H 0.2539 0.2930 0.3451
C4 C 0.0877(5) 0.3487(2) 0.2305(3)
H5 H 0.0827 0.3126 0.1778
O1 O 0.5901(3) 0.38173(13) 0.49068(18)
H6 H 0.5762 0.4198 0.4502
H7 H 0.6101 0.3439 0.4551
C5 C 0.1792(5) 0.3468(2) 0.7520(3)
H8 H 0.2866 0.3497 0.8012
O2 O -0.3877(3) 0.75169(13) -0.04039(18)
C6 C -0.4781(4) 0.71228(19) -0.1137(2)
Co1 Co 0.36891(5) 0.36413(2) 0.56203(3)
O3 O -0.4653(3) 0.39534(13) -0.29075(17)
O4 O -0.6104(3) 0.48734(13) -0.38072(17)
N3 N -0.1680(4) 0.49586(16) 0.0717(2)
H9 H -0.1331 0.5282 0.1212
N4 N 0.1592(4) 0.35098(16) 0.6426(2)
O5 O -0.1387(4) 0.37382(15) 0.0324(2)
C7 C -0.4330(4) 0.63008(17) -0.1129(2)
O6 O -0.5988(4) 0.73604(14) -0.1845(2)
C8 C -0.3390(4) 0.47989(18) -0.1130(2)
H10 H -0.3077 0.4299 -0.1135
C9 C -0.3210(4) 0.59894(18) -0.0255(2)
H11 H -0.2743 0.6288 0.0332
C10 C -0.4999(4) 0.58535(17) -0.2014(2)
H12 H -0.5788 0.6051 -0.2599
C11 C -0.2764(4) 0.52377(18) -0.0233(2)
C12 C -0.4489(4) 0.51169(18) -0.2020(2)
C13 C -0.1116(4) 0.42530(18) 0.0957(3)
C14 C -0.5112(4) 0.46217(19) -0.2974(2)
C15 C -0.0066(4) 0.41372(18) 0.2080(2)
C16 C 0.0052(6) 0.4646(2) 0.2902(3)
H15 H -0.0567 0.5093 0.2791
C17 C -0.0120(5) 0.3432(3) 0.6041(3)
H16 H -0.0641 0.3438 0.5316
O2A O 0.3877(3) 0.25169(13) 0.54039(18)
Co1A Co -0.36891(5) 0.86413(2) -0.06203(3)
Co1_2 Co -0.63109(5) 0.36413(2) -0.43797(3)
O3_2 O 0.5347(3) 0.39534(13) 0.70925(17)
O4_2 O 0.3896(3) 0.48734(13) 0.61928(17)
O7 O 0.2819(5) 0.76268(18) 0.0998(2)
H13 H 0.3155 0.7565 0.1669
H14 H 0.2449 0.7213 0.0714
loop_
_geom_bond_atom_site_label_1
_geom_bond_atom_site_label_2
_geom_bond_site_symmetry_1
_geom_bond_site_symmetry_2
N1 H1 1_555 1_555
C1 N1 1_555 1_555
H2 C1 1_555 1_555
N2 C2 1_555 1_555
C2 H3 1_555 1_555
C3 N2 1_555 1_555
H4 C3 1_555 1_555
C4 C3 1_555 1_555
H5 C4 1_555 1_555
O1 H6 1_555 1_555
H7 O1 1_555 1_555
C5 N1 1_555 1_555
H8 C5 1_555 1_555
O2 C6 1_555 1_555
C6 C7 1_555 1_555
Co1 N2 1_555 1_555
O3 C14 1_555 1_555
O4 C14 1_555 1_555
N3 H9 1_555 1_555
N4 C5 1_555 1_555
O5 C13 1_555 1_555
C7 C9 1_555 1_555
O6 C6 1_555 1_555
C8 H10 1_555 1_555
C9 H11 1_555 1_555
C10 C7 1_555 1_555
H12 C10 1_555 1_555
C11 N3 1_555 1_555
C12 C8 1_555 1_555
O7 H13 1_555 1_555
H14 O7 1_555 1_555
C13 N3 1_555 1_555
C14 C12 1_555 1_555
C15 C4 1_555 1_555
C16 C2 1_555 1_555
H15 C16 1_555 1_555
C17 C1 1_555 1_555
H16 C17 1_555 1_555
O2A Co1 1_555 1_555
Co1A O2 1_555 1_555
Co1_2 O3 1_555 1_555
O3_2 Co1 1_555 1_555
O4_2 Co1 1_555 1_555
O1 Co1 1_555 1_555
Co1 N4 1_555 1_555
O4 Co1_2 1_555 1_555
N4 C17 1_555 1_555
C8 C11 1_555 1_555
C9 C11 1_555 1_555
C10 C12 1_555 1_555
C13 C15 1_555 1_555
C15 C16 1_555 1_555

#END
