
#######################################################################
#
#                 Cambridge Crystallographic Data Centre
#                                CCDC 
#
#######################################################################
#
# If this CIF has been generated from an entry in the Cambridge 
# Structural Database, then it will include bibliographic, chemical, 
# crystal, experimental, refinement or atomic coordinate data resulting 
# from the CCDC's data processing and validation procedures.
#
#######################################################################

data_DUXMOZ
_symmetry_cell_setting           triclinic
_symmetry_space_group_name_H-M   'P -1'
_symmetry_Int_Tables_number      2
_space_group_name_Hall           '-P 1'
loop_
_symmetry_equiv_pos_site_id
_symmetry_equiv_pos_as_xyz
1 x,y,z
2 -x,-y,-z
_cell_length_a                   7.6371(10)
_cell_length_b                   9.6990(12)
_cell_length_c                   11.8615(14)
_cell_angle_alpha                104.913(2)
_cell_angle_beta                 104.4380(10)
_cell_angle_gamma                92.998(2)
_cell_volume                     815.808
loop_
_atom_site_label
_atom_site_type_symbol
_atom_site_fract_x
_atom_site_fract_y
_atom_site_fract_z
Co1 Co 0.42692(5) 0.17548(3) 0.09536(3)
C1 C 0.3345(3) 0.4230(3) 0.2525(2)
C2 C 0.4092(3) 0.5780(3) 0.2798(2)
C3 C 0.5122(3) 0.6477(3) 0.3969(2)
H1 H 0.5259 0.5997 0.4565
C4 C 0.5952(3) 0.7879(3) 0.4267(2)
C5 C 0.5657(4) 0.8610(3) 0.3385(2)
H2 H 0.6146 0.9567 0.3582
C6 C 0.4634(3) 0.7914(3) 0.2210(2)
C7 C 0.3900(3) 0.6489(3) 0.1902(2)
H3 H 0.3282 0.6010 0.1103
C8 C 0.8048(4) 0.9789(3) 0.5918(2)
C9 C 0.9305(3) 1.0134(3) 0.7173(2)
C10 C 0.9817(4) 0.9161(3) 0.7816(2)
H4 H 0.9289 0.8207 0.7510
C11 C 1.1117(4) 0.9606(3) 0.8917(2)
H5 H 1.1455 0.8925 0.9331
C12 C 1.1337(4) 1.1909(3) 0.8822(3)
H6 H 1.1815 1.2870 0.9174
C13 C 1.0076(4) 1.1542(3) 0.7711(3)
H7 H 0.9739 1.2245 0.7322
C14 C 0.4421(3) 0.8714(3) 0.1269(2)
C15 C 0.6920(4) 0.2592(3) 0.3507(2)
H8 H 0.6208 0.1831 0.3583
C16 C 0.8224(4) 0.3405(3) 0.4522(2)
H9 H 0.8372 0.3183 0.5255
C17 C 0.9305(3) 0.4539(3) 0.4458(2)
C18 C 0.9001(4) 0.4787(3) 0.3326(2)
H10 H 0.9697 0.5540 0.3225
C19 C 0.7680(4) 0.3925(3) 0.2358(2)
H11 H 0.7515 0.4113 0.1611
N1 N 0.7069(3) 0.8474(2) 0.54563(18)
H12 H 0.7136 0.7942 0.5941
N2 N 1.1916(3) 1.0952(2) 0.94240(18)
N3 N 0.6618(3) 0.2833(2) 0.24249(19)
O1 O 0.3028(3) 0.34654(19) 0.14269(15)
O2 O 0.3105(3) 0.37767(19) 0.33659(16)
O3 O 0.4301(3) 0.80012(19) 0.01991(14)
O4 O 0.4403(3) 1.00472(19) 0.16097(15)
O5 O 0.7962(3) 1.0701(2) 0.53701(18)
Co1A Co 1.57308(5) 0.82452(3) 0.90464(3)
Co1_2 Co 1.42692(5) 1.17548(3) 1.09536(3)
Co1A_2 Co 0.57308(5) 0.82452(3) -0.09536(3)
Co1_3 Co 0.42692(5) 1.17548(3) 0.09536(3)
Co1A_3 Co -0.42692(5) -0.17548(3) -1.09536(3)
Co1A_4 Co 0.57308(5) -0.17548(3) -0.09536(3)
C1A C 0.6655(3) 0.5770(3) -0.2525(2)
C2A C 0.5908(3) 0.4220(3) -0.2798(2)
C3A C 0.4878(3) 0.3523(3) -0.3969(2)
H1A H 0.4741 0.4003 -0.4565
C4A C 0.4048(3) 0.2121(3) -0.4267(2)
C5A C 0.4343(4) 0.1390(3) -0.3385(2)
H2A H 0.3854 0.0433 -0.3582
C6A C 0.5366(3) 0.2086(3) -0.2210(2)
C7A C 0.6100(3) 0.3511(3) -0.1902(2)
H3A H 0.6718 0.3990 -0.1103
C8A C 0.1952(4) 0.0211(3) -0.5918(2)
C9A C 0.0695(3) -0.0134(3) -0.7173(2)
C10A C 0.0183(4) 0.0839(3) -0.7816(2)
H4A H 0.0711 0.1793 -0.7510
C11A C -0.1117(4) 0.0394(3) -0.8917(2)
H5A H -0.1455 0.1075 -0.9331
C12A C -0.1337(4) -0.1909(3) -0.8822(3)
H6A H -0.1815 -0.2870 -0.9174
C13A C -0.0076(4) -0.1542(3) -0.7711(3)
H7A H 0.0261 -0.2245 -0.7322
C14A C 0.5579(3) 0.1286(3) -0.1269(2)
C15A C 1.3080(4) 0.7408(3) 0.6493(2)
H8A H 1.3792 0.8169 0.6417
C16A C 1.1776(4) 0.6595(3) 0.5478(2)
H9A H 1.1628 0.6817 0.4745
C17A C 1.0695(3) 0.5461(3) 0.5542(2)
C18A C 1.0999(4) 0.5213(3) 0.6674(2)
H10A H 1.0303 0.4460 0.6775
C19A C 1.2320(4) 0.6075(3) 0.7642(2)
H11A H 1.2485 0.5887 0.8389
N1A N 0.2931(3) 0.1526(2) -0.54563(18)
H12A H 0.2864 0.2058 -0.5941
N2A N -0.1916(3) -0.0952(2) -0.94240(18)
N2_2 N 0.1916(3) 0.0952(2) -0.05760(18)
N2A_2 N 1.8084(3) 0.9048(2) 1.05760(18)
N3A N 1.3382(3) 0.7167(2) 0.75751(19)
O1A O 0.6972(3) 0.65346(19) -0.14269(15)
O1A_2 O 1.6972(3) 0.65346(19) 0.85731(15)
O2A O 0.6895(3) 0.62233(19) -0.33659(16)
O3A O 0.5699(3) 0.19988(19) -0.01991(14)
O3_2 O 1.4301(3) 0.80012(19) 1.01991(14)
O4A O 0.5597(3) -0.00472(19) -0.16097(15)
O4_2 O 0.4403(3) 0.00472(19) 0.16097(15)
O4A_2 O 1.5597(3) 0.99528(19) 0.83903(15)
O5A O 0.2038(3) -0.0701(2) -0.53701(18)
loop_
_geom_bond_atom_site_label_1
_geom_bond_atom_site_label_2
_geom_bond_site_symmetry_1
_geom_bond_site_symmetry_2
Co1 N3 1_555 1_555
C1 C2 1_555 1_555
C2 C3 1_555 1_555
C3 H1 1_555 1_555
C4 C3 1_555 1_555
C5 C4 1_555 1_555
H2 C5 1_555 1_555
C6 C5 1_555 1_555
C7 C2 1_555 1_555
H3 C7 1_555 1_555
C8 C9 1_555 1_555
C9 C10 1_555 1_555
C10 H4 1_555 1_555
C11 C10 1_555 1_555
H5 C11 1_555 1_555
C12 H6 1_555 1_555
C13 C9 1_555 1_555
H7 C13 1_555 1_555
C14 C6 1_555 1_555
C15 H8 1_555 1_555
C16 C15 1_555 1_555
H9 C16 1_555 1_555
C17 C16 1_555 1_555
C18 C17 1_555 1_555
H10 C18 1_555 1_555
C19 C18 1_555 1_555
H11 C19 1_555 1_555
N1 C4 1_555 1_555
H12 N1 1_555 1_555
N2 C11 1_555 1_555
N3 C15 1_555 1_555
O1 Co1 1_555 1_555
O2 C1 1_555 1_555
O3 C14 1_555 1_555
O4 C14 1_555 1_555
O5 C8 1_555 1_555
Co1A N2A_2 1_555 1_555
Co1_2 N2 1_555 1_555
Co1A_2 O3 1_555 1_555
Co1_3 O4 1_555 1_555
Co1A_3 N2A 1_555 1_555
Co1A_4 O4A 1_555 1_555
C1A C2A 1_555 1_555
C2A C3A 1_555 1_555
C3A H1A 1_555 1_555
C4A C3A 1_555 1_555
C5A C4A 1_555 1_555
H2A C5A 1_555 1_555
C6A C5A 1_555 1_555
C7A C2A 1_555 1_555
H3A C7A 1_555 1_555
C8A C9A 1_555 1_555
C9A C10A 1_555 1_555
C10A H4A 1_555 1_555
C11A C10A 1_555 1_555
H5A C11A 1_555 1_555
C12A H6A 1_555 1_555
C13A C9A 1_555 1_555
H7A C13A 1_555 1_555
C14A C6A 1_555 1_555
C15A H8A 1_555 1_555
C16A C15A 1_555 1_555
H9A C16A 1_555 1_555
C17A C17 1_555 1_555
C18A C17A 1_555 1_555
H10A C18A 1_555 1_555
C19A C18A 1_555 1_555
H11A C19A 1_555 1_555
N1A C4A 1_555 1_555
H12A N1A 1_555 1_555
N2A C11A 1_555 1_555
N2_2 Co1 1_555 1_555
N3A Co1A 1_555 1_555
O1A Co1A_2 1_555 1_555
O1A_2 Co1A 1_555 1_555
O2A C1A 1_555 1_555
O3A Co1 1_555 1_555
O3_2 Co1A 1_555 1_555
O4A C14A 1_555 1_555
O4_2 Co1 1_555 1_555
O4A_2 Co1A 1_555 1_555
O5A C8A 1_555 1_555
C1 O1 1_555 1_555
C6 C7 1_555 1_555
C8 N1 1_555 1_555
C12 C13 1_555 1_555
C12 N2 1_555 1_555
C19 N3 1_555 1_555
C1A O1A 1_555 1_555
C6A C7A 1_555 1_555
C8A N1A 1_555 1_555
C12A C13A 1_555 1_555
C12A N2A 1_555 1_555
C14A O3A 1_555 1_555
C15A N3A 1_555 1_555
C16A C17A 1_555 1_555
C19A N3A 1_555 1_555

#END
