
#######################################################################
#
#                 Cambridge Crystallographic Data Centre
#                                CCDC 
#
#######################################################################
#
# If this CIF has been generated from an entry in the Cambridge 
# Structural Database, then it will include bibliographic, chemical, 
# crystal, experimental, refinement or atomic coordinate data resulting 
# from the CCDC's data processing and validation procedures.
#
#######################################################################

data_DUXNAM
_symmetry_cell_setting           monoclinic
_symmetry_space_group_name_H-M   'P 21/c'
_symmetry_Int_Tables_number      14
_space_group_name_Hall           '-P 2ybc'
loop_
_symmetry_equiv_pos_site_id
_symmetry_equiv_pos_as_xyz
1 x,y,z
2 -x,1/2+y,1/2-z
3 -x,-y,-z
4 x,1/2-y,1/2+z
_cell_length_a                   7.435(3)
_cell_length_b                   18.746(5)
_cell_length_c                   12.541(5)
_cell_angle_alpha                90
_cell_angle_beta                 101.762(14)
_cell_angle_gamma                90
_cell_volume                     1711.22
loop_
_atom_site_label
_atom_site_type_symbol
_atom_site_fract_x
_atom_site_fract_y
_atom_site_fract_z
Cu1 Cu 0.69719(3) 0.362189(12) 0.431217(18)
O1 O 0.2027(2) 0.37997(8) -0.02346(12)
O2 O 0.4817(2) 0.36709(9) 0.49795(12)
H1 H 0.455(4) 0.3314(15) 0.524(2)
H2 H 0.464(4) 0.4011(15) 0.533(2)
O4 O 0.5585(2) 0.41947(7) 0.30693(11)
O5 O 0.6259(2) 0.51880(8) 0.40383(11)
O6 O 0.4983(2) 0.75436(8) 0.20030(12)
O7 O 0.2970(2) 0.75128(7) 0.04358(12)
N1 N 0.1882(3) 0.49860(9) -0.06037(14)
N2 N -0.1303(2) 0.38597(9) -0.41402(13)
H5 H 0.149(4) 0.5266(14) -0.104(2)
N3 N 0.9001(2) 0.35537(9) 0.35328(14)
N4 N 1.1699(3) 0.34874(12) 0.31032(16)
H6 H 1.2901 0.3486 0.3174
C1 C 0.2845(3) 0.53011(10) 0.03734(15)
C2 C 0.3711(3) 0.49168(10) 0.12815(15)
H7 H 0.3665 0.4410 0.1280
C3 C 0.4648(3) 0.52839(10) 0.21942(15)
C4 C 0.4763(3) 0.60254(10) 0.21911(15)
H8 H 0.5439 0.6269 0.2808
C5 C 0.3886(3) 0.64088(10) 0.12837(15)
C6 C 0.1564(3) 0.42933(10) -0.08685(15)
C7 C -0.0659(5) 0.33492(13) -0.3439(2)
H9 H -0.0842 0.2868 -0.3674
C8 C 0.0264(5) 0.34762(13) -0.2386(2)
H10 H 0.0694 0.3088 -0.1915
C9 C 0.0559(3) 0.41612(10) -0.20241(15)
C10 C -0.0106(4) 0.46910(13) -0.2747(2)
H11 H 0.0060 0.5177 -0.2534
C11 C -0.1023(4) 0.45178(12) -0.37925(19)
H12 H -0.1470 0.4895 -0.4281
C12 C 1.0783(3) 0.35684(13) 0.39097(18)
H13 H 1.1346 0.3629 0.4655
C13 C 1.0442(3) 0.34077(12) 0.21525(18)
H14 H 1.0687 0.3338 0.1446
C14 C 0.8772(3) 0.34482(11) 0.24241(16)
H15 H 0.7625 0.3410 0.1929
C15 C 0.5567(3) 0.48674(10) 0.31844(15)
C16 C 0.3965(3) 0.72154(10) 0.12501(15)
C17 C 0.2919(3) 0.60434(10) 0.03885(15)
H16 H 0.2295 0.6304 -0.0227
Cu1A Cu 0.30281(3) 0.862189(12) 0.068783(18)
Cu1_2 Cu -0.30281(3) 0.362189(12) -0.568783(18)
O7A O 0.7030(2) 0.25128(7) 0.45642(12)
N2_2 N 0.8697(2) 0.38597(9) 0.58598(13)
O3 O 0.3457(3) 0.25529(10) 0.58594(15)
H3 H 0.342(4) 0.2131(18) 0.553(2)
H4 H 0.408(4) 0.2472(16) 0.645(3)
loop_
_geom_bond_atom_site_label_1
_geom_bond_atom_site_label_2
_geom_bond_site_symmetry_1
_geom_bond_site_symmetry_2
Cu1 O2 1_555 1_555
O1 C6 1_555 1_555
O2 H1 1_555 1_555
H2 O2 1_555 1_555
O3 H3 1_555 1_555
H4 O3 1_555 1_555
O4 Cu1 1_555 1_555
O5 C15 1_555 1_555
O6 C16 1_555 1_555
O7 C16 1_555 1_555
N1 H5 1_555 1_555
N2 C7 1_555 1_555
N3 Cu1 1_555 1_555
N4 H6 1_555 1_555
C1 N1 1_555 1_555
C2 C1 1_555 1_555
H7 C2 1_555 1_555
C3 C2 1_555 1_555
C4 C3 1_555 1_555
H8 C4 1_555 1_555
C5 C4 1_555 1_555
C6 N1 1_555 1_555
C7 H9 1_555 1_555
C8 C7 1_555 1_555
H10 C8 1_555 1_555
C9 C6 1_555 1_555
C10 C9 1_555 1_555
H11 C10 1_555 1_555
C11 N2 1_555 1_555
H12 C11 1_555 1_555
C12 N3 1_555 1_555
H13 C12 1_555 1_555
C13 N4 1_555 1_555
H14 C13 1_555 1_555
C14 N3 1_555 1_555
H15 C14 1_555 1_555
C15 O4 1_555 1_555
C16 C5 1_555 1_555
C17 C1 1_555 1_555
H16 C17 1_555 1_555
Cu1A O7 1_555 1_555
Cu1_2 N2 1_555 1_555
O7A Cu1 1_555 1_555
N2_2 Cu1 1_555 1_555
N4 C12 1_555 1_555
C3 C15 1_555 1_555
C5 C17 1_555 1_555
C8 C9 1_555 1_555
C10 C11 1_555 1_555
C13 C14 1_555 1_555

#END
