
#######################################################################
#
#                 Cambridge Crystallographic Data Centre
#                                CCDC 
#
#######################################################################
#
# If this CIF has been generated from an entry in the Cambridge 
# Structural Database, then it will include bibliographic, chemical, 
# crystal, experimental, refinement or atomic coordinate data resulting 
# from the CCDC's data processing and validation procedures.
#
#######################################################################

data_DUXNOA
_symmetry_cell_setting           triclinic
_symmetry_space_group_name_H-M   'P 1'
_symmetry_Int_Tables_number      1
_space_group_name_Hall           'P 1'
loop_
_symmetry_equiv_pos_site_id
_symmetry_equiv_pos_as_xyz
1 x,y,z
_cell_length_a                   9.1071(9)
_cell_length_b                   9.3366(8)
_cell_length_c                   18.0884(18)
_cell_angle_alpha                81.534(6)
_cell_angle_beta                 76.253(4)
_cell_angle_gamma                67.954(5)
_cell_volume                     1381.87
loop_
_atom_site_label
_atom_site_type_symbol
_atom_site_fract_x
_atom_site_fract_y
_atom_site_fract_z
Cr1 Cr 1.0267(6) 0.6701(6) 0.2260(3)
Na1 Na 0.6671(12) 0.3022(11) 0.2278(6)
C1 C 0.798(3) 0.528(3) 0.2634(12)
C2 C 0.918(3) 0.453(3) 0.1893(13)
O1 O 0.6875(19) 0.4843(19) 0.2923(9)
O2 O 0.890(2) 0.364(2) 0.1594(9)
O3 O 1.034(2) 0.506(2) 0.1640(10)
O4 O 0.832(2) 0.6371(18) 0.2863(9)
C3 C 1.311(2) 0.450(2) 0.2648(12)
C4 C 1.364(2) 0.544(2) 0.1902(11)
O5 O 1.4114(19) 0.3406(17) 0.2918(9)
O6 O 1.5007(18) 0.4987(18) 0.1581(9)
O7 O 1.2495(18) 0.6662(16) 0.1709(8)
O8 O 1.1561(18) 0.5059(18) 0.2941(9)
C5 C 0.833(3) 0.968(2) 0.1905(12)
C6 C 0.882(3) 0.973(2) 0.2675(12)
O9 O 0.733(2) 1.0795(16) 0.1665(9)
O10 O 0.825(2) 1.0907(16) 0.2987(9)
O11 O 0.986(2) 0.8446(16) 0.2879(9)
O12 O 0.9050(19) 0.8352(15) 0.1586(8)
Na1_2 Na 1.6671(12) 0.3022(11) 0.2278(6)
Na1_3 Na 0.6671(12) 1.3022(11) 0.2278(6)
O5_2 O 0.4114(19) 0.3406(17) 0.2918(9)
O6_2 O 0.5007(18) 0.4987(18) 0.1581(9)
O9_2 O 0.733(2) 0.0795(16) 0.1665(9)
O10_2 O 0.825(2) 0.0907(16) 0.2987(9)
C7 C -0.278(4) 0.666(4) 1.0430(17)
H1 H -0.3616 0.7681 1.0343
H2 H -0.2916 0.6412 1.0988
C8 C -0.110(4) 0.680(4) 1.0132(12)
H3 H -0.0256 0.5767 1.0176
H4 H -0.0954 0.7480 1.0462
C9 C -0.138(3) 0.627(3) 0.8754(9)
C10 C -0.233(3) 0.564(3) 0.9027(9)
C11 C -0.155(3) 0.509(3) 0.7641(10)
C12 C -0.143(3) 0.454(3) 0.6964(10)
C13 C -0.168(3) 0.321(3) 0.5820(9)
C14 C -0.081(3) 0.428(3) 0.5466(9)
C15 C -0.021(3) 0.292(3) 0.4141(12)
H5 H 0.0035 0.3031 0.3577
H6 H 0.0610 0.1957 0.4304
C16 C -0.170(3) 0.280(3) 0.4378(9)
H7 H -0.1794 0.2100 0.4046
H8 H -0.2526 0.3835 0.4300
S1 S -0.3123(8) 0.5229(9) 1.0000(4)
S2 S -0.0789(10) 0.7578(12) 0.9157(4)
S3 S -0.0642(9) 0.6306(10) 0.7747(4)
S4 S -0.2695(8) 0.4482(9) 0.8443(4)
S5 S -0.2281(10) 0.3274(12) 0.6799(4)
S6 S -0.0325(11) 0.5147(12) 0.6105(4)
S7 S -0.0050(12) 0.4548(11) 0.4510(4)
S8 S -0.2192(9) 0.2099(9) 0.5365(4)
C17 C 0.225(3) -0.094(2) 0.8926(10)
C18 C 0.125(3) 0.028(2) 0.8808(10)
C19 C 0.206(3) -0.102(2) 0.7572(11)
C20 C 0.221(3) -0.137(2) 0.6847(11)
C21 C 0.173(4) -0.165(3) 0.5486(13)
C22 C 0.292(3) -0.314(2) 0.5704(12)
S9 S 0.0249(11) 0.1884(8) 0.9397(4)
S10 S 0.2960(10) -0.1849(8) 0.9786(4)
S11 S 0.3181(9) -0.2256(7) 0.8183(3)
S12 S 0.0800(10) 0.0783(7) 0.7877(3)
S13 S 0.1036(10) -0.0339(7) 0.6188(4)
S14 S 0.3534(12) -0.3252(8) 0.6549(4)
S15 S 0.3952(14) -0.4678(9) 0.5133(5)
S16 S 0.0965(12) -0.1219(11) 0.4688(5)
C23 C 0.028(3) 0.086(3) 1.0322(11)
H9 H -0.0127 0.1618 1.0720
H10 H -0.0456 0.0267 1.0410
C24 C 0.201(3) -0.027(3) 1.0394(16)
H11 H 0.1964 -0.0705 1.0928
H12 H 0.2719 0.0351 1.0302
C25 C 0.381(6) -0.372(6) 0.4192(16)
H13 H 0.4659 -0.3248 0.4053
H14 H 0.4130 -0.4545 0.3837
C26 C 0.244(5) -0.262(5) 0.403(2)
H15 H 0.1834 -0.3172 0.3873
H16 H 0.2771 -0.2006 0.3571
C27 C -0.510(3) 1.250(3) 1.0474(14)
H17 H -0.5168 1.2065 1.1009
H18 H -0.4491 1.3210 1.0406
C28 C -0.683(3) 1.346(4) 1.0353(11)
H19 H -0.7381 1.4241 1.0741
H20 H -0.7465 1.2777 1.0411
C29 C -0.582(3) 1.271(2) 0.8882(10)
C30 C -0.482(3) 1.152(2) 0.9036(10)
C31 C -0.517(3) 1.125(2) 0.7725(11)
C32 C -0.504(3) 1.071(2) 0.7043(11)
C33 C -0.430(3) 0.924(2) 0.5784(11)
C34 C -0.542(3) 1.082(2) 0.5625(10)
C35 C -0.500(4) 0.999(3) 0.4180(14)
H21 H -0.5716 0.9372 0.4275
H22 H -0.4934 1.0397 0.3641
C36 C -0.351(4) 0.901(3) 0.4266(11)
H23 H -0.2808 0.9639 0.4200
H24 H -0.3062 0.8305 0.3846
S17 S -0.3963(11) 1.0949(12) 0.9866(5)
S18 S -0.6747(8) 1.4422(7) 0.9416(4)
S19 S -0.6494(9) 1.3027(8) 0.8001(4)
S20 S -0.4088(8) 1.0022(8) 0.8391(4)
S21 S -0.3825(9) 0.8938(9) 0.6683(4)
S22 S -0.6269(12) 1.1968(8) 0.6389(4)
S23 S -0.5979(12) 1.1623(10) 0.4774(4)
S24 S -0.3331(10) 0.7845(9) 0.5160(4)
C37 C 0.290(3) 0.961(3) 0.255(2)
H25 H 0.2314 0.8901 0.2557
H26 H 0.2725 0.9840 0.3088
Cl1 Cl 0.4818(16) 0.8551(17) 0.2324(9)
Cl2 Cl 0.1886(12) 1.1226(14) 0.2133(7)
C38? C -0.321(7) 0.699(5) 1.033(4)
C39? C -0.179(7) 0.760(9) 1.0142(15)
C40? C 0.114(7) 0.113(4) 1.023(2)
C41? C 0.138(6) -0.060(4) 1.0456(17)
C42? C -0.553(10) 1.241(8) 1.044(5)
C43? C -0.623(11) 1.420(8) 1.034(3)
C44? C 0.320(5) -0.392(5) 0.4257(15)
C45? C 0.159(5) -0.311(3) 0.433(2)
H27? H -0.4134 0.7825 1.0157
H28? H -0.3508 0.6890 1.0895
H29? H -0.0977 0.6973 1.0453
H30? H -0.2204 0.8681 1.0297
H31? H 0.2207 0.1254 1.0127
H32? H 0.0447 0.1752 1.0661
H33? H 0.0361 -0.0770 1.0483
H34? H 0.1660 -0.0871 1.0969
H35? H -0.6486 1.2094 1.0530
H36? H -0.5197 1.2208 1.0944
H37? H -0.5420 1.4664 1.0331
H38? H -0.7200 1.4647 1.0734
H39? H 0.3791 -0.3244 0.3972
H40? H 0.3479 -0.4802 0.3942
H41? H 0.0988 -0.3711 0.4677
H42? H 0.1295 -0.2978 0.3824
loop_
_geom_bond_atom_site_label_1
_geom_bond_atom_site_label_2
_geom_bond_site_symmetry_1
_geom_bond_site_symmetry_2
Cr1 O3 1_555 1_555
Na1 O1 1_555 1_555
C1 C2 1_555 1_555
C2 O2 1_555 1_555
O1 C1 1_555 1_555
O2 Na1 1_555 1_555
O3 C2 1_555 1_555
O4 Cr1 1_555 1_555
C3 C4 1_555 1_555
C4 O6 1_555 1_555
O5 C3 1_555 1_555
O6 Na1_2 1_555 1_555
O7 Cr1 1_555 1_555
O8 Cr1 1_555 1_555
C5 C6 1_555 1_555
C6 O10 1_555 1_555
O9 C5 1_555 1_555
O10 Na1_3 1_555 1_555
O11 Cr1 1_555 1_555
O12 Cr1 1_555 1_555
C7 H1 1_555 1_555
H2 C7 1_555 1_555
C8 C7 1_555 1_555
H3 C8 1_555 1_555
H4 C8 1_555 1_555
C9 C10 1_555 1_555
C10 S1 1_555 1_555
C11 C12 1_555 1_555
C12 S5 1_555 1_555
C13 C14 1_555 1_555
C14 S6 1_555 1_555
C15 H5 1_555 1_555
H6 C15 1_555 1_555
C16 C15 1_555 1_555
H7 C16 1_555 1_555
H8 C16 1_555 1_555
S1 C7 1_555 1_555
S2 C8 1_555 1_555
S3 C9 1_555 1_555
S4 C10 1_555 1_555
S5 C13 1_555 1_555
S6 C12 1_555 1_555
S7 C14 1_555 1_555
S8 C13 1_555 1_555
C17 C18 1_555 1_555
C18 S9 1_555 1_555
C19 C20 1_555 1_555
C20 S13 1_555 1_555
C21 C22 1_555 1_555
C22 S14 1_555 1_555
S9 C23 1_555 1_555
S10 C17 1_555 1_555
S11 C17 1_555 1_555
S12 C18 1_555 1_555
S13 C21 1_555 1_555
S14 C20 1_555 1_555
S15 C22 1_555 1_555
S16 C21 1_555 1_555
C23 H9 1_555 1_555
H10 C23 1_555 1_555
C24 S10 1_555 1_555
H11 C24 1_555 1_555
H12 C24 1_555 1_555
C25 S15 1_555 1_555
H13 C25 1_555 1_555
H14 C25 1_555 1_555
C26 S16 1_555 1_555
H15 C26 1_555 1_555
H16 C26 1_555 1_555
C27 H17 1_555 1_555
H18 C27 1_555 1_555
C28 C27 1_555 1_555
H19 C28 1_555 1_555
H20 C28 1_555 1_555
C29 C30 1_555 1_555
C30 S17 1_555 1_555
C31 C32 1_555 1_555
C32 S21 1_555 1_555
C33 C34 1_555 1_555
C34 S22 1_555 1_555
C35 H21 1_555 1_555
H22 C35 1_555 1_555
C36 C35 1_555 1_555
H23 C36 1_555 1_555
H24 C36 1_555 1_555
S17 C27 1_555 1_555
S18 C28 1_555 1_555
S19 C29 1_555 1_555
S20 C30 1_555 1_555
S21 C33 1_555 1_555
S22 C32 1_555 1_555
S23 C34 1_555 1_555
S24 C33 1_555 1_555
C37 H25 1_555 1_555
H26 C37 1_555 1_555
Cl1 C37 1_555 1_555
Cl2 C37 1_555 1_555
Na1_2 O5 1_555 1_555
Na1_3 O9 1_555 1_555
O5_2 Na1 1_555 1_555
O6_2 Na1 1_555 1_555
O9_2 Na1 1_555 1_555
O10_2 Na1 1_555 1_555
C1 O4 1_555 1_555
C3 O8 1_555 1_555
C4 O7 1_555 1_555
C5 O12 1_555 1_555
C6 O11 1_555 1_555
C9 S2 1_555 1_555
C11 S3 1_555 1_555
C11 S4 1_555 1_555
C15 S7 1_555 1_555
C16 S8 1_555 1_555
C19 S11 1_555 1_555
C19 S12 1_555 1_555
C23 C24 1_555 1_555
C25 C26 1_555 1_555
C29 S18 1_555 1_555
C31 S19 1_555 1_555
C31 S20 1_555 1_555
C35 S23 1_555 1_555
C36 S24 1_555 1_555

#END
