
#######################################################################
#
#                 Cambridge Crystallographic Data Centre
#                                CCDC 
#
#######################################################################
#
# If this CIF has been generated from an entry in the Cambridge 
# Structural Database, then it will include bibliographic, chemical, 
# crystal, experimental, refinement or atomic coordinate data resulting 
# from the CCDC's data processing and validation procedures.
#
#######################################################################

data_DUXSIZ
_symmetry_cell_setting           monoclinic
_symmetry_space_group_name_H-M   'P 21/n'
_symmetry_Int_Tables_number      14
_space_group_name_Hall           '-P 2yn'
loop_
_symmetry_equiv_pos_site_id
_symmetry_equiv_pos_as_xyz
1 x,y,z
2 1/2-x,1/2+y,1/2-z
3 -x,-y,-z
4 1/2+x,1/2-y,1/2+z
_cell_length_a                   9.282(5)
_cell_length_b                   19.703(10)
_cell_length_c                   9.430(5)
_cell_angle_alpha                90
_cell_angle_beta                 99.093(8)
_cell_angle_gamma                90
_cell_volume                     1702.92
loop_
_atom_site_label
_atom_site_type_symbol
_atom_site_fract_x
_atom_site_fract_y
_atom_site_fract_z
Co1 Co 0.95414(7) 0.13450(3) 0.22402(7)
O1 O 0.6204(3) 0.04640(15) 0.6024(3)
N1 N 0.7491(5) 0.1647(2) 0.2897(4)
N2 N 0.4098(5) 0.0977(2) 0.6062(5)
N3 N 0.4279(5) 0.0462(2) 0.7117(5)
N4 N 0.8413(5) -0.1049(2) 0.8395(4)
N5 N 0.8561(5) 0.1473(2) 0.0104(5)
N6 N 0.6945(7) 0.1697(3) -0.2117(5)
N7 N 0.5269(5) 0.2643(2) -0.2635(4)
N8 N 0.9574(5) -0.1223(2) 0.5542(5)
N9 N 0.8961(5) 0.0308(2) 0.2266(5)
N10 N 0.9260(5) -0.0880(2) 0.3033(4)
C1 C 0.7624(5) -0.0561(2) 0.7651(5)
H1 H 0.8001 -0.0353 0.6904
C2 C 0.7847(6) -0.1344(3) 0.9465(5)
H2 H 0.8377 -0.1685 0.9995
C3 C 0.6511(7) -0.1161(3) 0.9807(6)
H3 H 0.6160 -0.1371 1.0567
C4 C 0.5705(6) -0.0670(3) 0.9027(5)
H4 H 0.4787 -0.0553 0.9226
C5 C 0.6279(5) -0.0349(2) 0.7934(5)
C6 C 0.5524(5) 0.0185(2) 0.7059(5)
C7 C 0.5243(5) 0.0953(2) 0.5478(5)
C8 C 0.5698(5) 0.1393(2) 0.4375(5)
C9 C 0.4870(6) 0.1944(2) 0.3830(5)
H5 H 0.3984 0.2041 0.4129
C10 C 0.5390(6) 0.2341(3) 0.2841(6)
H6 H 0.4858 0.2718 0.2464
C11 C 0.6709(6) 0.2188(2) 0.2392(5)
H7 H 0.7053 0.2469 0.1726
C12 C 0.6981(5) 0.1259(2) 0.3870(5)
H8 H 0.7521 0.0881 0.4224
C13 C 0.9101(5) -0.0244(3) 0.2662(5)
C14 C 0.7772(6) 0.1594(2) -0.0904(5)
C15 C 0.6065(6) 0.2209(3) -0.2319(5)
C16 C 0.9405(5) -0.1038(2) 0.4373(5)
Co1B Co 1.04586(7) -0.13450(3) 0.77598(7)
Co1C Co 0.45414(7) 0.36550(3) -0.27598(7)
N4B N 1.1587(5) 0.1049(2) 0.1605(4)
N7C N 1.0269(5) 0.2357(2) 0.2365(4)
N8B N 1.0426(5) 0.1223(2) 0.4458(5)
loop_
_geom_bond_atom_site_label_1
_geom_bond_atom_site_label_2
_geom_bond_site_symmetry_1
_geom_bond_site_symmetry_2
Co1 N1 1_555 1_555
O1 C6 1_555 1_555
N1 C11 1_555 1_555
N2 N3 1_555 1_555
N3 C6 1_555 1_555
N4 C1 1_555 1_555
N5 Co1 1_555 1_555
N6 C14 1_555 1_555
N7 C15 1_555 1_555
N8 C16 1_555 1_555
N9 Co1 1_555 1_555
N10 C13 1_555 1_555
C1 H1 1_555 1_555
C2 N4 1_555 1_555
H2 C2 1_555 1_555
C3 C2 1_555 1_555
H3 C3 1_555 1_555
C4 C3 1_555 1_555
H4 C4 1_555 1_555
C5 C1 1_555 1_555
C6 C5 1_555 1_555
C7 O1 1_555 1_555
C8 C7 1_555 1_555
C9 C8 1_555 1_555
H5 C9 1_555 1_555
C10 C9 1_555 1_555
H6 C10 1_555 1_555
C11 C10 1_555 1_555
H7 C11 1_555 1_555
C12 N1 1_555 1_555
H8 C12 1_555 1_555
C13 N9 1_555 1_555
C14 N5 1_555 1_555
C15 N6 1_555 1_555
C16 N10 1_555 1_555
Co1B N4 1_555 1_555
Co1C N7 1_555 1_555
N4B Co1 1_555 1_555
N7C Co1 1_555 1_555
N8B Co1 1_555 1_555
N2 C7 1_555 1_555
N8 Co1B 1_555 1_555
C4 C5 1_555 1_555
C8 C12 1_555 1_555

#END
