
#######################################################################
#
#                 Cambridge Crystallographic Data Centre
#                                CCDC 
#
#######################################################################
#
# If this CIF has been generated from an entry in the Cambridge 
# Structural Database, then it will include bibliographic, chemical, 
# crystal, experimental, refinement or atomic coordinate data resulting 
# from the CCDC's data processing and validation procedures.
#
#######################################################################

data_DUXSOF
_symmetry_cell_setting           triclinic
_symmetry_space_group_name_H-M   'P -1'
_symmetry_Int_Tables_number      2
_space_group_name_Hall           '-P 1'
loop_
_symmetry_equiv_pos_site_id
_symmetry_equiv_pos_as_xyz
1 x,y,z
2 -x,-y,-z
_cell_length_a                   7.322(2)
_cell_length_b                   9.786(7)
_cell_length_c                   14.750(2)
_cell_angle_alpha                77.69(2)
_cell_angle_beta                 86.92(2)
_cell_angle_gamma                70.11(3)
_cell_volume                     970.784
loop_
_atom_site_label
_atom_site_type_symbol
_atom_site_fract_x
_atom_site_fract_y
_atom_site_fract_z
Cu1 Cu 0.30607(9) 0.09916(7) 0.74025(4)
O1 O 0.6173(4) -0.3977(3) 0.60219(19)
N1 N 0.3682(5) -0.1250(4) 0.7881(3)
N2 N 0.6360(5) -0.6066(4) 0.7018(2)
N3 N 0.7198(5) -0.6412(4) 0.6173(3)
N4 N 0.7718(5) -0.3139(4) 0.3272(3)
N5 N 1.1507(6) 0.0604(5) 0.5958(3)
N6 N 0.9020(6) -0.0495(5) 0.6533(3)
N7 N 0.5580(6) 0.0546(4) 0.6803(3)
N8 N 0.0611(5) 0.1386(4) 0.8081(3)
N9 N -0.2251(6) 0.1625(5) 0.9049(3)
N10 N -0.5392(6) 0.1455(5) 0.8685(3)
C1 C 0.4468(6) -0.2178(5) 0.7304(3)
H1 H 0.4769 -0.1779 0.6708
C2 C 0.3269(6) -0.1856(6) 0.8725(3)
H2 H 0.2731 -0.1233 0.9137
C3 C 0.3589(7) -0.3348(5) 0.9025(3)
H3 H 0.3264 -0.3712 0.9625
C4 C 0.4390(6) -0.4301(5) 0.8437(3)
H4 H 0.4617 -0.5316 0.8621
C5 C 0.4850(6) -0.3676(5) 0.7544(3)
C6 C 0.5804(6) -0.4651(5) 0.6887(3)
C7 C 0.7059(6) -0.5169(5) 0.5622(3)
C8 C 0.7681(6) -0.4897(5) 0.4665(3)
C9 C 0.8696(6) -0.6051(5) 0.4250(3)
H5 H 0.9026 -0.7029 0.4577
C10 C 0.9216(6) -0.5736(5) 0.3342(3)
H6 H 0.9908 -0.6498 0.3045
C11 C 0.8698(6) -0.4267(5) 0.2874(3)
H7 H 0.9049 -0.4062 0.2257
C12 C 0.7220(6) -0.3461(5) 0.4157(3)
H8 H 0.6533 -0.2683 0.4443
C13 C 1.0270(8) 0.0160(6) 0.6197(4)
C14 C 0.7187(8) 0.0151(5) 0.6654(3)
C15 C -0.0780(7) 0.1478(5) 0.8495(3)
C16 C -0.3905(8) 0.1533(6) 0.8802(3)
Cu1A Cu 0.69393(9) -0.09916(7) 0.25975(4)
N4A N 0.2282(5) 0.3139(4) 0.6728(3)
N11 N 0.1174(8) 0.4581(7) 0.1082(4)
C17 C 0.1359(9) 0.3518(8) 0.0850(4)
C18 C 0.1622(8) 0.2198(7) 0.0512(5)
H9 H 0.1009 0.2460 -0.0089
H10 H 0.1049 0.1572 0.0933
H11 H 0.2985 0.1677 0.0467
loop_
_geom_bond_atom_site_label_1
_geom_bond_atom_site_label_2
_geom_bond_site_symmetry_1
_geom_bond_site_symmetry_2
Cu1 N1 1_555 1_555
O1 C6 1_555 1_555
N1 C1 1_555 1_555
N2 N3 1_555 1_555
N3 C7 1_555 1_555
N4 C11 1_555 1_555
N5 C13 1_555 1_555
N6 C13 1_555 1_555
N7 Cu1 1_555 1_555
N8 Cu1 1_555 1_555
N9 C15 1_555 1_555
N10 C16 1_555 1_555
C1 H1 1_555 1_555
C2 N1 1_555 1_555
H2 C2 1_555 1_555
C3 C2 1_555 1_555
H3 C3 1_555 1_555
C4 C3 1_555 1_555
H4 C4 1_555 1_555
C5 C1 1_555 1_555
C6 N2 1_555 1_555
C7 O1 1_555 1_555
C8 C7 1_555 1_555
C9 C8 1_555 1_555
H5 C9 1_555 1_555
C10 C9 1_555 1_555
H6 C10 1_555 1_555
C11 C10 1_555 1_555
H7 C11 1_555 1_555
C12 N4 1_555 1_555
H8 C12 1_555 1_555
C14 N6 1_555 1_555
C15 N8 1_555 1_555
C16 N9 1_555 1_555
N11 C17 1_555 1_555
C17 C18 1_555 1_555
C18 H9 1_555 1_555
H10 C18 1_555 1_555
H11 C18 1_555 1_555
Cu1A N4 1_555 1_555
N4A Cu1 1_555 1_555
N7 C14 1_555 1_555
C4 C5 1_555 1_555
C5 C6 1_555 1_555
C8 C12 1_555 1_555

#END
