
#######################################################################
#
#                 Cambridge Crystallographic Data Centre
#                                CCDC 
#
#######################################################################
#
# If this CIF has been generated from an entry in the Cambridge 
# Structural Database, then it will include bibliographic, chemical, 
# crystal, experimental, refinement or atomic coordinate data resulting 
# from the CCDC's data processing and validation procedures.
#
#######################################################################

data_DUXTIA
_symmetry_cell_setting           monoclinic
_symmetry_space_group_name_H-M   'C 2/c'
_symmetry_Int_Tables_number      15
_space_group_name_Hall           '-C 2yn'
loop_
_symmetry_equiv_pos_site_id
_symmetry_equiv_pos_as_xyz
1 x,y,z
2 -x,y,1/2-z
3 1/2+x,1/2+y,z
4 1/2-x,1/2+y,1/2-z
5 -x,-y,-z
6 x,-y,1/2+z
7 1/2-x,1/2-y,-z
8 1/2+x,1/2-y,1/2+z
_cell_length_a                   27.4504(13)
_cell_length_b                   12.1960(6)
_cell_length_c                   11.6371(6)
_cell_angle_alpha                90
_cell_angle_beta                 108.087(1)
_cell_angle_gamma                90
_cell_volume                     3703.41
loop_
_atom_site_label
_atom_site_type_symbol
_atom_site_fract_x
_atom_site_fract_y
_atom_site_fract_z
Cu1 Cu 0.2500 0.2500 1.0000
Cu2 Cu 0.5000 -0.5000 0.5000
O1 O 0.40582(6) -0.02943(13) 0.72068(15)
N1 N 0.30294(7) 0.19776(15) 0.92012(17)
N2 N 0.42973(10) 0.13426(17) 0.6799(2)
N3 N 0.45275(10) 0.05508(18) 0.6263(2)
N4 N 0.47917(7) -0.35055(15) 0.55222(17)
N5 N 0.15420(9) 0.00664(19) 0.7537(3)
N6 N 0.06668(8) 0.00864(17) 0.6217(2)
N7 N 0.20098(7) 0.14051(17) 0.90178(19)
C1 C 0.31591(9) 0.09177(18) 0.9238(2)
H1 H 0.3017 0.0434 0.9661
C2 C 0.34947(9) 0.05127(18) 0.8674(2)
H2 H 0.3584 -0.0225 0.8737
C3 C 0.36961(8) 0.12233(18) 0.8013(2)
C4 C 0.35665(10) 0.23233(19) 0.7974(3)
H3 H 0.3699 0.2821 0.7542
C5 C 0.32369(10) 0.26663(19) 0.8589(2)
H4 H 0.3156 0.3408 0.8577
C6 C 0.40276(9) 0.08100(18) 0.7335(2)
C7 C 0.43764(9) -0.0383(2) 0.6523(2)
C8 C 0.45081(8) -0.14705(19) 0.6180(2)
C9 C 0.42808(11) -0.2419(2) 0.6415(3)
H5 H 0.4032 -0.2388 0.6804
C10 C 0.44283(11) -0.3408(2) 0.6066(3)
H6 H 0.4268 -0.4041 0.6213
C11 C 0.50102(10) -0.2590(2) 0.5307(3)
H7 H 0.5263 -0.2644 0.4933
C12 C 0.48798(10) -0.1564(2) 0.5612(2)
H8 H 0.5040 -0.0942 0.5437
C13 C 0.10743(10) 0.01416(18) 0.6851(2)
C14 C 0.17715(8) 0.08162(19) 0.8309(2)
O5 O 0.28038(8) 0.11928(16) 1.15290(17)
H9 H 0.2920 0.1419 1.2251
H10 H 0.2728 0.0520 1.1395
O7 O 0.54634(11) -0.3990(3) 0.3646(2)
H13 H 0.5479 -0.3448 0.3223
H14 H 0.5739 -0.4287 0.4098
Cu2B Cu 0.0000 0.0000 0.5000
Cu2B_2 Cu 0.0000 1.0000 1.5000
Cu2_2 Cu 0.5000 0.5000 1.5000
O1F O 0.09418(6) 0.52943(13) 1.27932(15)
N1F N 0.19706(7) 0.30224(15) 1.07988(17)
N2F N 0.07027(10) 0.36574(17) 1.3201(2)
N3F N 0.04725(10) 0.44492(18) 1.3737(2)
N4F N 0.02083(7) 0.85055(15) 1.44778(17)
N4D N 0.52083(7) -0.64945(15) 0.44778(17)
N5F N 0.34580(9) 0.49336(19) 1.2463(3)
N6F N 0.43332(8) 0.49136(17) 1.3783(2)
N6B N 0.56668(8) -0.49136(17) 0.6217(2)
N6F_2 N 0.43332(8) -0.50864(17) 0.3783(2)
N7F N 0.29902(7) 0.35949(17) 1.09822(19)
C1F C 0.18409(9) 0.40823(18) 1.0762(2)
H1F H 0.1983 0.4566 1.0339
C2F C 0.15053(9) 0.44873(18) 1.1326(2)
H2F H 0.1416 0.5225 1.1263
C3F C 0.13039(8) 0.37767(18) 1.1987(2)
C4F C 0.14335(10) 0.26767(19) 1.2026(3)
H3F H 0.1301 0.2179 1.2458
C5F C 0.17631(10) 0.23337(19) 1.1411(2)
H4F H 0.1844 0.1592 1.1423
C6F C 0.09724(9) 0.41900(18) 1.2665(2)
C7F C 0.06236(9) 0.5383(2) 1.3477(2)
C8F C 0.04919(8) 0.64705(19) 1.3820(2)
C9F C 0.07192(11) 0.7419(2) 1.3585(3)
H5F H 0.0968 0.7388 1.3196
C10F C 0.05717(11) 0.8408(2) 1.3934(3)
H6F H 0.0732 0.9041 1.3787
C11F C -0.00102(10) 0.7590(2) 1.4693(3)
H7F H -0.0263 0.7644 1.5067
C12F C 0.01202(10) 0.6564(2) 1.4388(2)
H8F H -0.0040 0.5942 1.4563
C13F C 0.39257(10) 0.48584(18) 1.3149(2)
C14F C 0.32285(8) 0.41838(19) 1.1691(2)
O5F O 0.21962(8) 0.38072(16) 0.84710(17)
H9F H 0.2080 0.3581 0.7749
H10F H 0.2272 0.4480 0.8605
O7D O 0.45366(11) -0.6010(3) 0.6354(2)
H13D H 0.4521 -0.6552 0.6777
H14D H 0.4261 -0.5713 0.5902
O2 O 0.19281(11) 0.3053(3) 0.5925(3)
O3 O 0.12235(10) 0.2669(2) 0.6184(3)
O4 O 0.14872(10) 0.1687(2) 0.4962(3)
N8 N 0.15389(10) 0.24703(19) 0.5680(3)
O6 O 0.24141(11) 0.4048(2) 0.4267(3)
H11 H 0.2723 0.3853 0.4396
H12 H 0.2218 0.3642 0.4531
loop_
_geom_bond_atom_site_label_1
_geom_bond_atom_site_label_2
_geom_bond_site_symmetry_1
_geom_bond_site_symmetry_2
Cu1 N1 1_555 1_555
Cu2 N4 1_555 1_555
O1 C6 1_555 1_555
O2 N8 1_555 1_555
O3 N8 1_555 1_555
O4 N8 1_555 1_555
N1 C1 1_555 1_555
N2 N3 1_555 1_555
N3 C7 1_555 1_555
N4 C10 1_555 1_555
N5 C13 1_555 1_555
N6 C13 1_555 1_555
N7 Cu1 1_555 1_555
C1 H1 1_555 1_555
C2 C1 1_555 1_555
H2 C2 1_555 1_555
C3 C2 1_555 1_555
C4 C3 1_555 1_555
H3 C4 1_555 1_555
C5 N1 1_555 1_555
H4 C5 1_555 1_555
C6 N2 1_555 1_555
C7 O1 1_555 1_555
C8 C7 1_555 1_555
C9 C8 1_555 1_555
H5 C9 1_555 1_555
C10 C9 1_555 1_555
H6 C10 1_555 1_555
C11 N4 1_555 1_555
H7 C11 1_555 1_555
C12 C8 1_555 1_555
H8 C12 1_555 1_555
C14 N5 1_555 1_555
O5 Cu1 1_555 1_555
H9 O5 1_555 1_555
H10 O5 1_555 1_555
O6 H11 1_555 1_555
H12 O6 1_555 1_555
O7 Cu2 1_555 1_555
H13 O7 1_555 1_555
H14 O7 1_555 1_555
Cu2B N6 1_555 1_555
Cu2B_2 N4F 1_555 1_555
Cu2_2 N6F 1_555 1_555
O1F C6F 1_555 1_555
N1F Cu1 1_555 1_555
N2F N3F 1_555 1_555
N3F C7F 1_555 1_555
N4F C10F 1_555 1_555
N4D Cu2 1_555 1_555
N5F C13F 1_555 1_555
N6F C13F 1_555 1_555
N6B Cu2 1_555 1_555
N6F_2 Cu2 1_555 1_555
N7F Cu1 1_555 1_555
C1F N1F 1_555 1_555
H1F C1F 1_555 1_555
C2F C1F 1_555 1_555
H2F C2F 1_555 1_555
C3F C2F 1_555 1_555
C4F C3F 1_555 1_555
H3F C4F 1_555 1_555
C5F N1F 1_555 1_555
H4F C5F 1_555 1_555
C6F N2F 1_555 1_555
C7F O1F 1_555 1_555
C8F C7F 1_555 1_555
C9F C8F 1_555 1_555
H5F C9F 1_555 1_555
C10F C9F 1_555 1_555
H6F C10F 1_555 1_555
C11F N4F 1_555 1_555
H7F C11F 1_555 1_555
C12F C8F 1_555 1_555
H8F C12F 1_555 1_555
C14F N5F 1_555 1_555
O5F Cu1 1_555 1_555
H9F O5F 1_555 1_555
H10F O5F 1_555 1_555
O7D Cu2 1_555 1_555
H13D O7D 1_555 1_555
H14D O7D 1_555 1_555
N7 C14 1_555 1_555
C3 C6 1_555 1_555
C4 C5 1_555 1_555
C11 C12 1_555 1_555
N7F C14F 1_555 1_555
C3F C6F 1_555 1_555
C4F C5F 1_555 1_555
C11F C12F 1_555 1_555

#END
