
#######################################################################
#
#                 Cambridge Crystallographic Data Centre
#                                CCDC 
#
#######################################################################
#
# If this CIF has been generated from an entry in the Cambridge 
# Structural Database, then it will include bibliographic, chemical, 
# crystal, experimental, refinement or atomic coordinate data resulting 
# from the CCDC's data processing and validation procedures.
#
#######################################################################

data_DUXTOG
_symmetry_cell_setting           triclinic
_symmetry_space_group_name_H-M   'P -1'
_symmetry_Int_Tables_number      2
_space_group_name_Hall           '-P 1'
loop_
_symmetry_equiv_pos_site_id
_symmetry_equiv_pos_as_xyz
1 x,y,z
2 -x,-y,-z
_cell_length_a                   7.612(6)
_cell_length_b                   11.384(8)
_cell_length_c                   12.991(10)
_cell_angle_alpha                66.063(8)
_cell_angle_beta                 75.350(9)
_cell_angle_gamma                89.723(10)
_cell_volume                     989.357
loop_
_atom_site_label
_atom_site_type_symbol
_atom_site_fract_x
_atom_site_fract_y
_atom_site_fract_z
Zn1 Zn 0.0000 1.0000 0.0000
Zn2 Zn 1.27302(5) 0.16845(4) 0.32714(3)
Cl1 Cl 1.22693(17) 0.02696(10) 0.25719(8)
O1 O 0.5246(3) 0.5280(2) 0.30390(18)
O2 O -0.1796(3) 0.8548(2) -0.00233(19)
H1 H -0.1252 0.7876 0.0059
H2 H -0.1971 0.8957 -0.0694
N1 N 1.0423(4) 0.2574(3) 0.3530(2)
N2 N 0.4029(4) 0.3804(3) 0.4828(2)
N3 N 0.2729(4) 0.4643(3) 0.4491(2)
N4 N 0.1180(4) 0.8498(3) 0.1187(2)
N5 N 0.1979(4) 0.9919(3) -0.1436(2)
N6 N 0.3298(6) 0.9604(4) -0.3200(3)
N7 N 0.3034(4) 1.0840(3) -0.5149(3)
N8 N 1.4555(5) 0.3166(3) 0.2106(3)
N9 N 1.6831(6) 0.4178(4) 0.0324(3)
N10 N 1.9859(6) 0.3523(4) -0.0093(3)
C1 C 0.7535(5) 0.2631(3) 0.4742(3)
H3 H 0.6681 0.2287 0.5472
C2 C 0.9142(5) 0.2129(3) 0.4563(3)
H4 H 0.9369 0.1438 0.5191
C3 C 1.0090(5) 0.3580(3) 0.2644(3)
H5 H 1.0969 0.3904 0.1924
C4 C 0.8500(5) 0.4162(3) 0.2746(3)
H6 H 0.8316 0.4869 0.2112
C5 C 0.7193(4) 0.3672(3) 0.3810(3)
C6 C 0.5465(5) 0.4214(3) 0.3953(3)
C7 C 0.3497(4) 0.5482(3) 0.3435(3)
C8 C 0.2719(4) 0.6544(3) 0.2667(3)
C9 C 0.3772(5) 0.7426(3) 0.1588(3)
H7 H 0.5017 0.7376 0.1343
C10 C 0.2949(5) 0.8371(3) 0.0889(3)
H8 H 0.3666 0.8958 0.0164
C11 C 0.0182(5) 0.7646(3) 0.2239(3)
H9 H -0.1057 0.7725 0.2463
C12 C 0.0879(5) 0.6665(3) 0.3003(3)
H10 H 0.0135 0.6097 0.3728
C13 C 0.2563(5) 0.9831(4) -0.2291(3)
C14 C 0.3097(5) 1.0294(4) -0.4210(3)
C15 C 1.5514(6) 0.3545(4) 0.1360(4)
C16 C 1.8489(7) 0.3771(4) 0.0141(4)
Zn2A Zn -1.27302(5) 1.83155(4) -0.32714(3)
Zn2_2 Zn 0.27302(5) 1.16845(4) -0.67286(3)
Zn2A_2 Zn -0.27302(5) 0.83155(4) 0.67286(3)
Cl1A Cl -1.22693(17) 1.97304(10) -0.25719(8)
O1A O -0.5246(3) 1.4720(2) -0.30390(18)
O2A O 0.1796(3) 1.1452(2) 0.00233(19)
H1A H 0.1252 1.2124 -0.0059
H2A H 0.1971 1.1043 0.0694
N1A N -1.0423(4) 1.7426(3) -0.3530(2)
N2A N -0.4029(4) 1.6196(3) -0.4828(2)
N3A N -0.2729(4) 1.5357(3) -0.4491(2)
N4A N -0.1180(4) 1.1502(3) -0.1187(2)
N5A N -0.1979(4) 1.0081(3) 0.1436(2)
N6A N -0.3298(6) 1.0396(4) 0.3200(3)
N7A N -0.3034(4) 0.9160(3) 0.5149(3)
N7_2 N 1.3034(4) 0.0840(3) 0.4851(3)
N7A_2 N -1.3034(4) 1.9160(3) -0.4851(3)
N8A N -1.4555(5) 1.6834(3) -0.2106(3)
N9A N -1.6831(6) 1.5822(4) -0.0324(3)
N10A N -1.9859(6) 1.6477(4) 0.0093(3)
C1A C -0.7535(5) 1.7369(3) -0.4742(3)
H3A H -0.6681 1.7713 -0.5472
C2A C -0.9142(5) 1.7871(3) -0.4563(3)
H4A H -0.9369 1.8562 -0.5191
C3A C -1.0090(5) 1.6420(3) -0.2644(3)
H5A H -1.0969 1.6096 -0.1924
C4A C -0.8500(5) 1.5838(3) -0.2746(3)
H6A H -0.8316 1.5131 -0.2112
C5A C -0.7193(4) 1.6328(3) -0.3810(3)
C6A C -0.5465(5) 1.5786(3) -0.3953(3)
C7A C -0.3497(4) 1.4518(3) -0.3435(3)
C8A C -0.2719(4) 1.3456(3) -0.2667(3)
C9A C -0.3772(5) 1.2574(3) -0.1588(3)
H7A H -0.5017 1.2624 -0.1343
C10A C -0.2949(5) 1.1629(3) -0.0889(3)
H8A H -0.3666 1.1042 -0.0164
C11A C -0.0182(5) 1.2354(3) -0.2239(3)
H9A H 0.1057 1.2275 -0.2463
C12A C -0.0879(5) 1.3335(3) -0.3003(3)
H10A H -0.0135 1.3903 -0.3728
C13A C -0.2563(5) 1.0169(4) 0.2291(3)
C14A C -0.3097(5) 0.9706(4) 0.4210(3)
C15A C -1.5514(6) 1.6455(4) -0.1360(4)
C16A C -1.8489(7) 1.6229(4) -0.0141(4)
loop_
_geom_bond_atom_site_label_1
_geom_bond_atom_site_label_2
_geom_bond_site_symmetry_1
_geom_bond_site_symmetry_2
Zn1 O2 1_555 1_555
Zn2 Cl1 1_555 1_555
O1 C6 1_555 1_555
O2 H1 1_555 1_555
H2 O2 1_555 1_555
N1 Zn2 1_555 1_555
N2 N3 1_555 1_555
N3 C7 1_555 1_555
N4 Zn1 1_555 1_555
N5 Zn1 1_555 1_555
N6 C13 1_555 1_555
N7 C14 1_555 1_555
N8 Zn2 1_555 1_555
N9 C15 1_555 1_555
N10 C16 1_555 1_555
C1 H3 1_555 1_555
C2 N1 1_555 1_555
H4 C2 1_555 1_555
C3 N1 1_555 1_555
H5 C3 1_555 1_555
C4 C3 1_555 1_555
H6 C4 1_555 1_555
C5 C1 1_555 1_555
C6 N2 1_555 1_555
C7 O1 1_555 1_555
C8 C7 1_555 1_555
C9 C8 1_555 1_555
H7 C9 1_555 1_555
C10 N4 1_555 1_555
H8 C10 1_555 1_555
C11 N4 1_555 1_555
H9 C11 1_555 1_555
C12 C8 1_555 1_555
H10 C12 1_555 1_555
C13 N5 1_555 1_555
C14 N6 1_555 1_555
C15 N8 1_555 1_555
C16 N9 1_555 1_555
Zn2A Cl1A 1_555 1_555
Zn2_2 N7 1_555 1_555
Zn2A_2 N7A 1_555 1_555
O1A C6A 1_555 1_555
O2A Zn1 1_555 1_555
H1A O2A 1_555 1_555
H2A O2A 1_555 1_555
N1A Zn2A 1_555 1_555
N2A N3A 1_555 1_555
N3A C7A 1_555 1_555
N4A Zn1 1_555 1_555
N5A Zn1 1_555 1_555
N6A C13A 1_555 1_555
N7A C14A 1_555 1_555
N7_2 Zn2 1_555 1_555
N7A_2 Zn2A 1_555 1_555
N8A Zn2A 1_555 1_555
N9A C15A 1_555 1_555
N10A C16A 1_555 1_555
C1A H3A 1_555 1_555
C2A N1A 1_555 1_555
H4A C2A 1_555 1_555
C3A N1A 1_555 1_555
H5A C3A 1_555 1_555
C4A C3A 1_555 1_555
H6A C4A 1_555 1_555
C5A C1A 1_555 1_555
C6A N2A 1_555 1_555
C7A O1A 1_555 1_555
C8A C7A 1_555 1_555
C9A C8A 1_555 1_555
H7A C9A 1_555 1_555
C10A N4A 1_555 1_555
H8A C10A 1_555 1_555
C11A N4A 1_555 1_555
H9A C11A 1_555 1_555
C12A C8A 1_555 1_555
H10A C12A 1_555 1_555
C13A N5A 1_555 1_555
C14A N6A 1_555 1_555
C15A N8A 1_555 1_555
C16A N9A 1_555 1_555
C1 C2 1_555 1_555
C4 C5 1_555 1_555
C5 C6 1_555 1_555
C9 C10 1_555 1_555
C11 C12 1_555 1_555
C1A C2A 1_555 1_555
C4A C5A 1_555 1_555
C5A C6A 1_555 1_555
C9A C10A 1_555 1_555
C11A C12A 1_555 1_555

#END
