
#######################################################################
#
#                 Cambridge Crystallographic Data Centre
#                                CCDC 
#
#######################################################################
#
# If this CIF has been generated from an entry in the Cambridge 
# Structural Database, then it will include bibliographic, chemical, 
# crystal, experimental, refinement or atomic coordinate data resulting 
# from the CCDC's data processing and validation procedures.
#
#######################################################################

data_DUXTAS
_symmetry_cell_setting           triclinic
_symmetry_space_group_name_H-M   'P -1'
_symmetry_Int_Tables_number      2
_space_group_name_Hall           '-P 1'
loop_
_symmetry_equiv_pos_site_id
_symmetry_equiv_pos_as_xyz
1 x,y,z
2 -x,-y,-z
_cell_length_a                   7.4189(6)
_cell_length_b                   14.043(1)
_cell_length_c                   18.562(1)
_cell_angle_alpha                81.183(1)
_cell_angle_beta                 83.270(1)
_cell_angle_gamma                78.316(1)
_cell_volume                     1863.98
loop_
_atom_site_label
_atom_site_type_symbol
_atom_site_fract_x
_atom_site_fract_y
_atom_site_fract_z
Cd1 Cd 0.73286(2) 0.147994(11) 0.171425(9)
Cd2 Cd 0.76791(2) 0.656839(12) 0.286048(9)
O1 O 0.7596(2) 0.51751(11) 0.01813(8)
O2 O 0.7525(2) 0.28221(11) 0.43888(8)
N1 N 0.7772(3) 0.71627(14) 0.15951(11)
N2 N 0.7481(4) 0.62767(16) -0.07947(12)
N3 N 0.7304(4) 0.53776(16) -0.09960(12)
N4 N 0.7174(3) 0.22466(14) 0.04993(11)
N5 N 0.7552(3) 0.08324(14) 0.29566(11)
N6 N 0.7750(4) 0.17113(16) 0.53632(11)
N7 N 0.7726(4) 0.26316(17) 0.55731(11)
N8 N 0.7492(3) 0.58041(14) 0.40822(11)
N9 N 0.5265(3) 0.57698(18) 0.26379(13)
N10 N 0.4329(4) 0.41796(17) 0.28279(13)
N11 N 0.5358(4) 0.28081(17) 0.21181(13)
N12 N 0.9699(4) 0.23187(18) 0.18037(14)
N13 N 1.0578(4) 0.33872(16) 0.25598(14)
N14 N 0.9631(4) 0.51542(18) 0.25579(14)
N15 N 0.5500(3) 0.79365(16) 0.30866(14)
N16 N 0.2391(3) 0.83622(17) 0.26923(13)
N17 N -0.0048(3) 0.73978(19) 0.29461(15)
N18 N 0.9619(3) 0.01836(17) 0.13617(15)
N19 N 1.2925(3) -0.00170(16) 0.10242(12)
N20 N 1.5242(3) 0.05455(18) 0.15882(14)
C1 C 0.7731(3) 0.65432(17) 0.11247(13)
H1 H 0.7656 0.5897 0.1309
C2 C 0.7888(4) 0.80870(17) 0.13222(14)
H2 H 0.7913 0.8528 0.1645
C3 C 0.7973(4) 0.84146(18) 0.05862(15)
H3 H 0.8060 0.9064 0.0418
C4 C 0.7927(4) 0.77757(18) 0.00994(14)
H4 H 0.7984 0.7982 -0.0402
C5 C 0.7793(3) 0.68113(16) 0.03778(12)
C6 C 0.7658(3) 0.61209(16) -0.01077(12)
C7 C 0.7398(3) 0.47609(17) -0.04138(12)
C8 C 0.7284(3) 0.37267(17) -0.03145(12)
C9 C 0.7171(4) 0.32618(18) -0.09143(13)
H5 H 0.7174 0.3600 -0.1386
C10 C 0.7055(4) 0.22861(19) -0.07830(14)
H6 H 0.6977 0.1950 -0.1169
C11 C 0.7054(4) 0.18086(18) -0.00815(14)
H7 H 0.6966 0.1149 -0.0005
C12 C 0.7276(3) 0.31952(17) 0.03744(12)
H8 H 0.7344 0.3514 0.0771
C13 C 0.7532(3) 0.14505(17) 0.34368(13)
H9 H 0.7438 0.2115 0.3265
C14 C 0.7675(4) -0.01152(18) 0.32077(15)
H10 H 0.7670 -0.0552 0.2879
C15 C 0.7807(6) -0.0472(2) 0.39309(17)
H11 H 0.7910 -0.1141 0.4087
C16 C 0.7787(5) 0.0166(2) 0.44246(16)
H12 H 0.7869 -0.0064 0.4919
C17 C 0.7643(4) 0.11529(17) 0.41738(13)
C18 C 0.7634(4) 0.18615(17) 0.46679(13)
C19 C 0.7598(4) 0.32528(18) 0.49907(12)
C20 C 0.7537(3) 0.43075(18) 0.48967(13)
C21 C 0.7531(4) 0.4795(2) 0.54982(14)
H13 H 0.7552 0.4460 0.5971
C22 C 0.7491(4) 0.5792(2) 0.53664(14)
H14 H 0.7477 0.6141 0.5755
C23 C 0.7472(4) 0.62665(19) 0.46678(14)
H15 H 0.7444 0.6939 0.4593
C24 C 0.7502(3) 0.48413(18) 0.42106(13)
H16 H 0.7485 0.4513 0.3813
C25 C 0.4875(3) 0.50137(19) 0.26862(13)
C26 C 0.4917(4) 0.34819(19) 0.24213(14)
C27 C 1.0067(4) 0.28684(19) 0.21325(14)
C28 C 1.0030(4) 0.4329(2) 0.25273(14)
C29 C 0.4020(4) 0.80878(17) 0.29194(13)
C30 C 0.1165(4) 0.78130(19) 0.28492(14)
C31 C 1.1183(4) 0.01172(16) 0.12357(13)
C32 C 1.4084(3) 0.02975(16) 0.13492(13)
Cd1_2 Cd 1.73286(2) 0.147994(11) 0.171425(9)
Cd2_2 Cd -0.23209(2) 0.656839(12) 0.286048(9)
N17_2 N 0.9952(3) 0.73978(19) 0.29461(15)
N20_2 N 0.5242(3) 0.05455(18) 0.15882(14)
C33 C 0.2609(5) 0.0809(3) 0.3274(2)
H17 H 0.2770 0.0134 0.3490
H18 H 0.3646 0.0904 0.2928
H19 H 0.1496 0.0980 0.3029
C34 C 0.2482(5) 0.1428(3) 0.3842(2)
N21 N 0.2366(7) 0.1885(2) 0.4292(2)
loop_
_geom_bond_atom_site_label_1
_geom_bond_atom_site_label_2
_geom_bond_site_symmetry_1
_geom_bond_site_symmetry_2
Cd1 N4 1_555 1_555
Cd2 N1 1_555 1_555
O1 C6 1_555 1_555
O2 C18 1_555 1_555
N1 C1 1_555 1_555
N2 N3 1_555 1_555
N3 C7 1_555 1_555
N4 C11 1_555 1_555
N5 Cd1 1_555 1_555
N6 N7 1_555 1_555
N7 C19 1_555 1_555
N8 Cd2 1_555 1_555
N9 Cd2 1_555 1_555
N10 C25 1_555 1_555
N11 Cd1 1_555 1_555
N12 Cd1 1_555 1_555
N13 C27 1_555 1_555
N14 Cd2 1_555 1_555
N15 Cd2 1_555 1_555
N16 C29 1_555 1_555
N17 C30 1_555 1_555
N18 Cd1 1_555 1_555
N19 C31 1_555 1_555
N20 C32 1_555 1_555
C1 H1 1_555 1_555
C2 N1 1_555 1_555
H2 C2 1_555 1_555
C3 C2 1_555 1_555
H3 C3 1_555 1_555
C4 C3 1_555 1_555
H4 C4 1_555 1_555
C5 C1 1_555 1_555
C6 N2 1_555 1_555
C7 O1 1_555 1_555
C8 C7 1_555 1_555
C9 C8 1_555 1_555
H5 C9 1_555 1_555
C10 C9 1_555 1_555
H6 C10 1_555 1_555
C11 C10 1_555 1_555
H7 C11 1_555 1_555
C12 N4 1_555 1_555
H8 C12 1_555 1_555
C13 N5 1_555 1_555
H9 C13 1_555 1_555
C14 N5 1_555 1_555
H10 C14 1_555 1_555
C15 C14 1_555 1_555
H11 C15 1_555 1_555
C16 C15 1_555 1_555
H12 C16 1_555 1_555
C17 C13 1_555 1_555
C18 N6 1_555 1_555
C19 O2 1_555 1_555
C20 C19 1_555 1_555
C21 C20 1_555 1_555
H13 C21 1_555 1_555
C22 C21 1_555 1_555
H14 C22 1_555 1_555
C23 N8 1_555 1_555
H15 C23 1_555 1_555
C24 N8 1_555 1_555
H16 C24 1_555 1_555
C25 N9 1_555 1_555
C26 N10 1_555 1_555
C27 N12 1_555 1_555
C28 N13 1_555 1_555
C29 N15 1_555 1_555
C30 N16 1_555 1_555
C31 N18 1_555 1_555
C32 N19 1_555 1_555
C33 H17 1_555 1_555
H18 C33 1_555 1_555
H19 C33 1_555 1_555
C34 C33 1_555 1_555
N21 C34 1_555 1_555
Cd1_2 N20 1_555 1_555
Cd2_2 N17 1_555 1_555
N17_2 Cd2 1_555 1_555
N20_2 Cd1 1_555 1_555
N11 C26 1_555 1_555
N14 C28 1_555 1_555
C4 C5 1_555 1_555
C5 C6 1_555 1_555
C8 C12 1_555 1_555
C16 C17 1_555 1_555
C17 C18 1_555 1_555
C20 C24 1_555 1_555
C22 C23 1_555 1_555

#END
