
#######################################################################
#
#                 Cambridge Crystallographic Data Centre
#                                CCDC 
#
#######################################################################
#
# If this CIF has been generated from an entry in the Cambridge 
# Structural Database, then it will include bibliographic, chemical, 
# crystal, experimental, refinement or atomic coordinate data resulting 
# from the CCDC's data processing and validation procedures.
#
#######################################################################

data_DUXTUM
_symmetry_cell_setting           monoclinic
_symmetry_space_group_name_H-M   'P 21/c'
_symmetry_Int_Tables_number      14
_space_group_name_Hall           '-P 2ybc'
loop_
_symmetry_equiv_pos_site_id
_symmetry_equiv_pos_as_xyz
1 x,y,z
2 -x,1/2+y,1/2-z
3 -x,-y,-z
4 x,1/2-y,1/2+z
_cell_length_a                   8.015(2)
_cell_length_b                   14.812(4)
_cell_length_c                   16.504(5)
_cell_angle_alpha                90
_cell_angle_beta                 111.723(5)
_cell_angle_gamma                90
_cell_volume                     1820.18
loop_
_atom_site_label
_atom_site_type_symbol
_atom_site_fract_x
_atom_site_fract_y
_atom_site_fract_z
Cd1 Cd 0.5000 0.5000 0.0000
Cd2 Cd -1.0000 0.0000 0.0000
N1 N 0.3328(7) 0.4074(4) 0.0581(4)
N2 N -0.7377(7) 0.0838(4) 0.0707(4)
N3 N 0.0516(8) 0.2393(5) 0.2490(4)
N4 N -0.1016(9) 0.1987(4) 0.2540(4)
O1 O -0.1580(6) 0.2418(3) 0.1178(3)
C1 C 0.3927(9) 0.3842(5) 0.1421(5)
H1 H 0.5089 0.4013 0.1768
C2 C 0.2962(9) 0.3376(5) 0.1807(5)
H2 H 0.3453 0.3236 0.2398
C3 C 0.1206(9) 0.3108(4) 0.1292(5)
C4 C 0.0601(10) 0.3336(5) 0.0433(5)
H3 H -0.0557 0.3177 0.0070
C5 C 0.1675(10) 0.3798(5) 0.0096(5)
H4 H 0.1232 0.3925 -0.0498
C6 C 0.0123(9) 0.2642(4) 0.1702(5)
C7 C -0.2207(10) 0.2015(4) 0.1747(5)
C8 C -0.6284(9) 0.0689(5) 0.1529(5)
H5 H -0.6683 0.0315 0.1872
C9 C -0.4589(9) 0.1061(4) 0.1897(5)
H6 H -0.3863 0.0928 0.2470
C10 C -0.3994(10) 0.1624(4) 0.1410(5)
C11 C -0.5145(10) 0.1805(5) 0.0568(5)
H7 H -0.4793 0.2196 0.0220
C12 C -0.6785(10) 0.1412(5) 0.0248(5)
H8 H -0.7539 0.1549 -0.0319
N5 N 0.7533(8) 0.4662(4) 0.1181(4)
N6 N 1.0411(8) 0.4755(5) 0.2386(4)
N7 N 1.0923(8) 0.5245(4) 0.3861(4)
C13 C 0.8824(10) 0.4734(4) 0.1765(5)
C14 C 1.0590(8) 0.5005(6) 0.3158(5)
N8 N 0.4451(8) 0.6212(4) 0.0789(4)
N9 N 0.3941(9) 0.7641(4) 0.1374(4)
N10 N 0.1556(8) 0.8734(4) 0.0745(4)
C15 C 0.4136(9) 0.6882(5) 0.1021(4)
C16 C 0.2623(10) 0.8195(4) 0.1004(4)
Cd2A Cd 1.0000 0.5000 0.5000
Cd2_2 Cd 0.0000 1.0000 0.0000
Cd2_3 Cd 2.0000 1.0000 0.0000
Cd2A_2 Cd 0.0000 0.5000 -0.5000
Cd2_4 Cd 1.0000 0.0000 0.0000
N1B N 0.6672(7) 0.5926(4) -0.0581(4)
N2B N 1.7377(7) 0.9162(4) -0.0707(4)
N2B_2 N -1.2623(7) -0.0838(4) -0.0707(4)
N3B N 0.9484(8) 0.7607(5) -0.2490(4)
N4B N 1.1016(9) 0.8013(4) -0.2540(4)
O1B O 1.1580(6) 0.7582(3) -0.1178(3)
C1B C 0.6073(9) 0.6158(5) -0.1421(5)
H1B H 0.4911 0.5987 -0.1768
C2B C 0.7038(9) 0.6624(5) -0.1807(5)
H2B H 0.6547 0.6764 -0.2398
C3B C 0.8794(9) 0.6892(4) -0.1292(5)
C4B C 0.9399(10) 0.6664(5) -0.0433(5)
H3B H 1.0557 0.6823 -0.0070
C5B C 0.8325(10) 0.6202(5) -0.0096(5)
H4B H 0.8768 0.6075 0.0498
C6B C 0.9877(9) 0.7358(4) -0.1702(5)
C7B C 1.2207(10) 0.7985(4) -0.1747(5)
C8B C 1.6284(9) 0.9311(5) -0.1529(5)
H5B H 1.6683 0.9685 -0.1872
C9B C 1.4589(9) 0.8939(4) -0.1897(5)
H6B H 1.3863 0.9072 -0.2470
C10B C 1.3994(10) 0.8376(4) -0.1410(5)
C11B C 1.5145(10) 0.8195(5) -0.0568(5)
H7B H 1.4793 0.7804 -0.0220
C12B C 1.6785(10) 0.8588(5) -0.0248(5)
H8B H 1.7539 0.8451 0.0319
N5B N 0.2467(8) 0.5338(4) -0.1181(4)
N6B N -0.0411(8) 0.5245(5) -0.2386(4)
N7B N -0.0923(8) 0.4755(4) -0.3861(4)
N7A N -1.0923(8) 0.0245(4) 0.1139(4)
N7C N -0.9077(8) -0.0245(4) -0.1139(4)
C13B C 0.1176(10) 0.5266(4) -0.1765(5)
C14B C -0.0590(8) 0.4995(6) -0.3158(5)
N8B N 0.5549(8) 0.3788(4) -0.0789(4)
N9B N 0.6059(9) 0.2359(4) -0.1374(4)
N10B N 0.8444(8) 0.1266(4) -0.0745(4)
N10_2 N -0.8444(8) -0.1266(4) 0.0745(4)
N10B_2 N -1.1556(8) 0.1266(4) -0.0745(4)
C15B C 0.5864(9) 0.3118(5) -0.1021(4)
C16B C 0.7377(10) 0.1805(4) -0.1004(4)
loop_
_geom_bond_atom_site_label_1
_geom_bond_atom_site_label_2
_geom_bond_site_symmetry_1
_geom_bond_site_symmetry_2
Cd1 N1 1_555 1_555
Cd2 N2 1_555 1_555
N1 C1 1_555 1_555
N2 C8 1_555 1_555
N3 N4 1_555 1_555
N4 C7 1_555 1_555
O1 C6 1_555 1_555
C1 H1 1_555 1_555
C2 C1 1_555 1_555
H2 C2 1_555 1_555
C3 C2 1_555 1_555
C4 C3 1_555 1_555
H3 C4 1_555 1_555
C5 N1 1_555 1_555
H4 C5 1_555 1_555
C6 N3 1_555 1_555
C7 O1 1_555 1_555
C8 H5 1_555 1_555
C9 C8 1_555 1_555
H6 C9 1_555 1_555
C10 C7 1_555 1_555
C11 C10 1_555 1_555
H7 C11 1_555 1_555
C12 N2 1_555 1_555
H8 C12 1_555 1_555
N5 Cd1 1_555 1_555
N6 C13 1_555 1_555
N7 C14 1_555 1_555
C13 N5 1_555 1_555
C14 N6 1_555 1_555
N8 Cd1 1_555 1_555
N9 C15 1_555 1_555
N10 C16 1_555 1_555
C15 N8 1_555 1_555
C16 N9 1_555 1_555
Cd2A N7 1_555 1_555
Cd2_2 N10 1_555 1_555
Cd2_3 N2B 1_555 1_555
Cd2A_2 N7B 1_555 1_555
Cd2_4 N10B 1_555 1_555
N1B Cd1 1_555 1_555
N2B C8B 1_555 1_555
N2B_2 Cd2 1_555 1_555
N3B N4B 1_555 1_555
N4B C7B 1_555 1_555
O1B C6B 1_555 1_555
C1B N1B 1_555 1_555
H1B C1B 1_555 1_555
C2B C1B 1_555 1_555
H2B C2B 1_555 1_555
C3B C2B 1_555 1_555
C4B C3B 1_555 1_555
H3B C4B 1_555 1_555
C5B N1B 1_555 1_555
H4B C5B 1_555 1_555
C6B N3B 1_555 1_555
C7B O1B 1_555 1_555
C8B H5B 1_555 1_555
C9B C8B 1_555 1_555
H6B C9B 1_555 1_555
C10B C7B 1_555 1_555
C11B C10B 1_555 1_555
H7B C11B 1_555 1_555
C12B N2B 1_555 1_555
H8B C12B 1_555 1_555
N5B Cd1 1_555 1_555
N6B C13B 1_555 1_555
N7B C14B 1_555 1_555
N7A Cd2 1_555 1_555
N7C Cd2 1_555 1_555
C13B N5B 1_555 1_555
C14B N6B 1_555 1_555
N8B Cd1 1_555 1_555
N9B C15B 1_555 1_555
N10B C16B 1_555 1_555
N10_2 Cd2 1_555 1_555
N10B_2 Cd2 1_555 1_555
C15B N8B 1_555 1_555
C16B N9B 1_555 1_555
C3 C6 1_555 1_555
C4 C5 1_555 1_555
C9 C10 1_555 1_555
C11 C12 1_555 1_555
C3B C6B 1_555 1_555
C4B C5B 1_555 1_555
C9B C10B 1_555 1_555
C11B C12B 1_555 1_555

#END
