
#######################################################################
#
#                 Cambridge Crystallographic Data Centre
#                                CCDC 
#
#######################################################################
#
# If this CIF has been generated from an entry in the Cambridge 
# Structural Database, then it will include bibliographic, chemical, 
# crystal, experimental, refinement or atomic coordinate data resulting 
# from the CCDC's data processing and validation procedures.
#
#######################################################################

data_DUXYOL01
_symmetry_cell_setting           rhombohedral
_symmetry_space_group_name_H-M   'R -3'
_symmetry_Int_Tables_number      148
_space_group_name_Hall           '-R 3'
loop_
_symmetry_equiv_pos_site_id
_symmetry_equiv_pos_as_xyz
1 x,y,z
2 -y,x-y,z
3 -x+y,-x,z
4 2/3+x,1/3+y,1/3+z
5 2/3-y,1/3+x-y,1/3+z
6 2/3-x+y,1/3-x,1/3+z
7 1/3+x,2/3+y,2/3+z
8 1/3-y,2/3+x-y,2/3+z
9 1/3-x+y,2/3-x,2/3+z
10 -x,-y,-z
11 y,-x+y,-z
12 x-y,x,-z
13 1/3-x,2/3-y,2/3-z
14 1/3+y,2/3-x+y,2/3-z
15 1/3+x-y,2/3+x,2/3-z
16 2/3-x,1/3-y,1/3-z
17 2/3+y,1/3-x+y,1/3-z
18 2/3+x-y,1/3+x,1/3-z
_cell_length_a                   20.222(3)
_cell_length_b                   20.222(3)
_cell_length_c                   25.168(5)
_cell_angle_alpha                90
_cell_angle_beta                 90
_cell_angle_gamma                120
_cell_volume                     8913.07
loop_
_atom_site_label
_atom_site_type_symbol
_atom_site_fract_x
_atom_site_fract_y
_atom_site_fract_z
Ag1 Ag 1.314607(19) 0.756779(13) 0.389648(10)
Ag2 Ag 1.595680(14) 0.732950(21) 0.337980(10)
O7 O 1.64112(18) 0.83579(13) 0.38794(8)
O8 O 1.57947(20) 0.77431(13) 0.46018(10)
O9 O 1.40926(27) 0.97944(19) 0.34628(14)
O10 O 1.36954(25) 0.89453(18) 0.28391(12)
N1 N 1.41574(18) 0.83755(13) 0.42923(9)
N2 N 1.53795(17) 0.91963(12) 0.44100(9)
N3 N 1.46997(19) 0.77854(13) 0.33757(9)
N4 N 1.53014(17) 0.89905(12) 0.31273(9)
C1 C 1.48389(20) 0.86966(14) 0.40689(10)
C2 C 1.42676(25) 0.86787(18) 0.47951(12)
H12 H 1.3884 0.8557 0.5045
C3 C 1.50129(24) 0.91776(17) 0.48694(11)
H13 H 1.5237 0.9458 0.5176
C4 C 1.49652(19) 0.85064(13) 0.35317(10)
C5 C 1.52591(25) 0.85604(18) 0.26893(11)
H14 H 1.5451 0.8742 0.2352
C6 C 1.48860(25) 0.78297(18) 0.28480(12)
H15 H 1.4770 0.7413 0.2632
C7 C 1.62141(22) 0.95720(15) 0.43569(11)
H16 H 1.6350 0.9631 0.3984
H17 H 1.6446 1.0077 0.4515
C8 C 1.65187(23) 0.91076(17) 0.46283(11)
H18 H 1.6364 0.9031 0.4999
H19 H 1.7072 0.9387 0.4616
C9 C 1.62231(22) 0.83421(16) 0.43614(11)
C10 C 1.55425(23) 0.98041(16) 0.31051(13)
H20 H 1.5581 0.9997 0.3464
H21 H 1.6043 1.0082 0.2943
C11 C 1.49820(24) 0.99421(17) 0.27885(13)
H22 H 1.4948 0.9757 0.2429
H23 H 1.5164 1.0486 0.2772
C12 C 1.41976(27) 0.9537(2) 0.30434(16)
Ag1B Ag 1.442172(23) 0.685393(19) 0.389648(10)
Ag2A Ag 1.267050(21) 0.862730(25) 0.337980(10)
Ag2L Ag 1.737653(14) 0.933717(21) 0.328687(10)
O7L O 1.69221(18) 0.83088(13) 0.27873(8)
O10B O 1.52499(31) 0.63046(25) 0.28391(12)
N3A N 1.22146(13) 0.69143(23) 0.33757(9)
O1 O 1.08103(15) 0.93059(15) 0.12199(11)
H1 H 1.093(2) 0.907(2) 0.1485(12)
H2 H 1.1234(16) 0.9693(17) 0.1056(14)
O2 O 0.97533(19) 0.8115(2) 0.05535(13)
H3 H 1.006(2) 0.8441(18) 0.0850(12)
H4 H 0.986(3) 0.841(2) 0.0225(11)
O3 O 0.83446(18) 0.80296(19) 0.04914(13)
H5 H 0.8821(12) 0.808(2) 0.0582(17)
H6 H 0.8007(19) 0.7493(13) 0.045(2)
O4 O 1.0000 1.0000 0.1681(3)
O5 O 0.99810(16) 0.69999(15) 0.22268(11)
H8 H 0.9656(19) 0.698(2) 0.2489(13)
H9 H 1.029(2) 0.7493(14) 0.2091(15)
O6 O 1.1498(2) 1.1209(2) 0.48244(13)
H10 H 1.143(3) 1.0720(17) 0.4904(18)
H11 H 1.178(3) 1.137(2) 0.4506(13)
H7? H 0.9493(19) 0.972(4) 0.154(3)
loop_
_geom_bond_atom_site_label_1
_geom_bond_atom_site_label_2
_geom_bond_site_symmetry_1
_geom_bond_site_symmetry_2
Ag1 N1 1_555 1_555
Ag2 O7 1_555 1_555
O1 H1 1_555 1_555
H2 O1 1_555 1_555
O2 H3 1_555 1_555
H4 O2 1_555 1_555
O3 H5 1_555 1_555
H6 O3 1_555 1_555
O5 H8 1_555 1_555
H9 O5 1_555 1_555
O6 H10 1_555 1_555
H11 O6 1_555 1_555
O7 C9 1_555 1_555
O8 C9 1_555 1_555
O9 C12 1_555 1_555
O10 C12 1_555 1_555
N1 C1 1_555 1_555
N2 C1 1_555 1_555
N3 C4 1_555 1_555
N4 C4 1_555 1_555
C1 C4 1_555 1_555
C2 N1 1_555 1_555
H12 C2 1_555 1_555
C3 N2 1_555 1_555
H13 C3 1_555 1_555
C5 N4 1_555 1_555
H14 C5 1_555 1_555
C6 N3 1_555 1_555
H15 C6 1_555 1_555
C7 N2 1_555 1_555
H16 C7 1_555 1_555
H17 C7 1_555 1_555
C8 C7 1_555 1_555
H18 C8 1_555 1_555
H19 C8 1_555 1_555
C9 C8 1_555 1_555
C10 N4 1_555 1_555
H20 C10 1_555 1_555
H21 C10 1_555 1_555
C11 C10 1_555 1_555
H22 C11 1_555 1_555
H23 C11 1_555 1_555
C12 C11 1_555 1_555
Ag1B Ag2 1_555 1_555
Ag2A Ag1 1_555 1_555
Ag2L O7 1_555 1_555
O7L Ag2 1_555 1_555
O10B Ag2 1_555 1_555
N3A Ag1 1_555 1_555
O10 Ag2A 1_555 1_555
N3 Ag1B 1_555 1_555
C2 C3 1_555 1_555
C5 C6 1_555 1_555
Ag2L O7L 1_555 1_555

#END
