
#######################################################################
#
#                 Cambridge Crystallographic Data Centre
#                                CCDC 
#
#######################################################################
#
# If this CIF has been generated from an entry in the Cambridge 
# Structural Database, then it will include bibliographic, chemical, 
# crystal, experimental, refinement or atomic coordinate data resulting 
# from the CCDC's data processing and validation procedures.
#
#######################################################################

data_DUXZEC
_symmetry_cell_setting           triclinic
_symmetry_space_group_name_H-M   'P 1'
_symmetry_Int_Tables_number      1
_space_group_name_Hall           'P 1'
loop_
_symmetry_equiv_pos_site_id
_symmetry_equiv_pos_as_xyz
1 x,y,z
_cell_length_a                   5.7798(6)
_cell_length_b                   8.7059(9)
_cell_length_c                   10.3704(11)
_cell_angle_alpha                83.700(2)
_cell_angle_beta                 84.555(2)
_cell_angle_gamma                76.231(2)
_cell_volume                     502.485
loop_
_atom_site_label
_atom_site_type_symbol
_atom_site_fract_x
_atom_site_fract_y
_atom_site_fract_z
Cu1 Cu 0.50048(13) 0.49971(10) 0.49974(8)
Cu2 Cu 0.71502(13) 0.64825(9) 0.83352(8)
Cu3 Cu 0.79897(14) 0.76127(10) 0.15660(9)
S1 S 0.5448(3) 0.47661(19) 0.72162(15)
S2 S 0.6262(3) 0.5893(2) 1.05426(17)
S3 S 0.7031(3) 0.68565(19) 0.38875(15)
N1 N 0.5573(11) -0.1294(7) 0.7544(6)
N2 N 0.6773(12) 0.2892(6) 0.4271(6)
N3 N 0.8404(11) 0.3013(6) 0.3274(6)
H1 H 0.8470 0.3884 0.2809
N4 N 1.5682(11) -0.0230(7) 0.1383(6)
N5 N 0.0569(12) 0.5859(9) 0.7981(6)
N6 N 0.1374(11) 0.7087(8) 1.1145(6)
N7 N 1.1719(11) 0.5739(8) 0.4609(7)
C1 C 0.6763(13) -0.0643(7) 0.6550(7)
H2 H 0.8333 -0.1157 0.6333
C2 C 0.3301(15) -0.0541(9) 0.7820(8)
H3 H 0.2427 -0.0976 0.8503
C3 C 0.2215(15) 0.0830(9) 0.7149(9)
H4 H 0.0641 0.1317 0.7385
C4 C 0.3428(13) 0.1495(8) 0.6128(8)
H5 H 0.2687 0.2419 0.5650
C5 C 0.5790(12) 0.0758(7) 0.5821(6)
C6 C 0.7269(13) 0.1353(8) 0.4717(7)
C7 C 0.9238(13) 0.0536(7) 0.4012(7)
H6 H 0.9945 -0.0541 0.4142
C8 C 0.9955(13) 0.1605(7) 0.3086(7)
C9 C 1.1968(12) 0.1432(7) 0.2106(6)
C10 C 1.2197(18) 0.2534(10) 0.1057(9)
H7 H 1.1011 0.3455 0.0918
C11 C 1.421(2) 0.2231(11) 0.0232(10)
H8 H 1.4452 0.2982 -0.0447
C12 C 1.5867(15) 0.0845(9) 0.0396(8)
H9 H 1.7177 0.0642 -0.0205
C13 C 1.3775(14) 0.0087(8) 0.2213(7)
H10 H 1.3653 -0.0655 0.2918
C14 C 0.2573(13) 0.5425(8) 0.7662(6)
C15 C 0.3373(12) 0.6617(8) 1.0884(7)
C16 C 0.9780(12) 0.6189(7) 0.4327(6)
Cu1_2 Cu 1.50048(13) 0.49971(10) 0.49974(8)
Cu2_2 Cu -0.28498(13) 0.64825(9) 0.83352(8)
Cu2_3 Cu 0.71502(13) -0.35175(9) 0.83352(8)
Cu3_2 Cu -0.20103(14) 0.76127(10) 1.15660(9)
Cu3_3 Cu 0.79897(14) 0.76127(10) 1.15660(9)
Cu3_4 Cu 1.79897(14) -0.23873(10) 0.15660(9)
S2_2 S 0.6262(3) 0.5893(2) 0.05426(17)
N1_2 N 0.5573(11) 0.8706(7) 0.7544(6)
N4_2 N 0.5682(11) 0.9770(7) 0.1383(6)
N5_2 N 1.0569(12) 0.5859(9) 0.7981(6)
N6_2 N 1.1374(11) 0.7087(8) 0.1145(6)
N7_2 N 0.1719(11) 0.5739(8) 0.4609(7)
loop_
_geom_bond_atom_site_label_1
_geom_bond_atom_site_label_2
_geom_bond_site_symmetry_1
_geom_bond_site_symmetry_2
Cu1 S1 1_555 1_555
Cu2 S1 1_555 1_555
Cu3 S3 1_555 1_555
S1 C14 1_555 1_555
S2 Cu2 1_555 1_555
S3 Cu1 1_555 1_555
N1 C1 1_555 1_555
N2 Cu1 1_555 1_555
N3 N2 1_555 1_555
H1 N3 1_555 1_555
N4 C12 1_555 1_555
N5 C14 1_555 1_555
N6 C15 1_555 1_555
N7 C16 1_555 1_555
C1 H2 1_555 1_555
C2 N1 1_555 1_555
H3 C2 1_555 1_555
C3 C2 1_555 1_555
H4 C3 1_555 1_555
C4 C3 1_555 1_555
H5 C4 1_555 1_555
C5 C1 1_555 1_555
C6 N2 1_555 1_555
C7 C6 1_555 1_555
H6 C7 1_555 1_555
C8 N3 1_555 1_555
C9 C8 1_555 1_555
C10 C9 1_555 1_555
H7 C10 1_555 1_555
C11 C10 1_555 1_555
H8 C11 1_555 1_555
C12 C11 1_555 1_555
H9 C12 1_555 1_555
C13 N4 1_555 1_555
H10 C13 1_555 1_555
C15 S2 1_555 1_555
C16 S3 1_555 1_555
Cu1_2 N7 1_555 1_555
Cu2_2 N5 1_555 1_555
Cu2_3 N1 1_555 1_555
Cu3_2 N6 1_555 1_555
Cu3_3 S2 1_555 1_555
Cu3_4 N4 1_555 1_555
S2_2 Cu3 1_555 1_555
N1_2 Cu2 1_555 1_555
N4_2 Cu3 1_555 1_555
N5_2 Cu2 1_555 1_555
N6_2 Cu3 1_555 1_555
N7_2 Cu1 1_555 1_555
C4 C5 1_555 1_555
C5 C6 1_555 1_555
C7 C8 1_555 1_555
C9 C13 1_555 1_555

#END
