
#######################################################################
#
#                 Cambridge Crystallographic Data Centre
#                                CCDC 
#
#######################################################################
#
# If this CIF has been generated from an entry in the Cambridge 
# Structural Database, then it will include bibliographic, chemical, 
# crystal, experimental, refinement or atomic coordinate data resulting 
# from the CCDC's data processing and validation procedures.
#
#######################################################################

data_DUYBUV
_symmetry_cell_setting           triclinic
_symmetry_space_group_name_H-M   'P -1'
_symmetry_Int_Tables_number      2
_space_group_name_Hall           '-P 1'
loop_
_symmetry_equiv_pos_site_id
_symmetry_equiv_pos_as_xyz
1 x,y,z
2 -x,-y,-z
_cell_length_a                   8.132(5)
_cell_length_b                   8.361(5)
_cell_length_c                   17.745(11)
_cell_angle_alpha                80.079(6)
_cell_angle_beta                 80.508(6)
_cell_angle_gamma                82.299(6)
_cell_volume                     1165.25
loop_
_atom_site_label
_atom_site_type_symbol
_atom_site_fract_x
_atom_site_fract_y
_atom_site_fract_z
Mn1 Mn 1.0000 0.5000 0.5000
Mn2 Mn 0.60982(3) 1.14858(3) 0.361438(15)
O1 O 0.33909(18) 1.1572(2) 0.39349(9)
H1 H 0.298(3) 1.192(3) 0.4322(16)
H2 H 0.271(3) 1.106(3) 0.3817(15)
O2 O 0.62418(18) 1.22805(17) 0.47009(7)
H3 H 0.5620 1.1777 0.5056
H4 H 0.5899 1.3272 0.4637
O3 O 1.19459(17) 0.62237(17) 0.41909(8)
H5 H 1.1819 0.7222 0.4021
H6 H 1.2949 0.5876 0.4178
O4 O 0.98216(18) 0.37918(17) 0.40257(8)
H7 H 1.0413 0.4006 0.3595
H8 H 0.9360 0.2958 0.4034
O5 O 0.88915(17) 1.10624(17) 0.34662(9)
O6 O 1.13661(18) 0.95566(18) 0.34909(10)
O7 O 0.62199(17) 0.89476(15) 0.42022(7)
O8 O 0.80253(16) 0.69843(16) 0.47112(7)
O9 O 0.55032(18) 0.55369(17) 0.39965(8)
O10 O 0.64250(19) 0.39592(16) 0.30802(8)
O11 O 1.0762(3) 0.8439(3) 0.06189(10)
O12 O 0.8955(3) 0.6818(3) 0.06089(10)
N1 N 0.5895(2) 1.09486(19) 0.24311(9)
N3 N 0.9671(3) 0.7602(3) 0.09448(10)
C1 C 0.9908(2) 0.9838(2) 0.33318(10)
C2 C 0.9297(2) 0.8609(2) 0.29322(10)
C3 C 0.9849(2) 0.8588(2) 0.21493(11)
H9 H 1.0644 0.9260 0.1879
C4 C 0.9189(2) 0.7546(2) 0.17824(10)
C5 C 0.8099(2) 0.6451(2) 0.21699(11)
H10 H 0.7727 0.5724 0.1910
C6 C 0.7561(2) 0.6449(2) 0.29567(10)
C7 C 0.8120(2) 0.7574(2) 0.33297(10)
C8 C 0.6388(2) 0.5223(2) 0.33852(11)
C9 C 0.7399(2) 0.7810(2) 0.41512(10)
C10 C 0.6837(3) 1.1663(3) 0.18081(12)
H11 H 0.7576 1.2359 0.1884
C11 C 0.6791(3) 1.1444(3) 0.10634(12)
H12 H 0.7508 1.1949 0.0655
C12 C 0.5671(3) 1.0468(3) 0.09281(12)
C13 C 0.4672(3) 0.9713(3) 0.15693(14)
H13 H 0.3897 0.9043 0.1505
C14 C 0.4840(3) 0.9965(3) 0.23079(12)
H14 H 0.4188 0.9425 0.2731
C15 C 0.5574(3) 1.0321(3) 0.01156(14)
H15 H 0.6418 1.0727 -0.0261
Mn1_2 Mn 0.0000 1.5000 -0.5000
Mn2A Mn 0.39018(3) 0.85142(3) -0.361438(15)
Mn2_2 Mn 0.60982(3) 0.14858(3) 0.361438(15)
Mn2A_2 Mn 0.39018(3) 1.85142(3) -0.361438(15)
O1A O 0.66091(18) 0.8428(2) -0.39349(9)
H1A H 0.702(3) 0.808(3) -0.4322(16)
H2A H 0.729(3) 0.894(3) -0.3817(15)
O2A O 0.37582(18) 0.77195(17) -0.47009(7)
H3A H 0.4380 0.8223 -0.5056
H4A H 0.4101 0.6728 -0.4637
O3A O 0.80541(17) 0.37763(17) 0.58091(8)
H5A H 0.8181 0.2778 0.5979
H6A H 0.7051 0.4124 0.5822
O4A O 1.01784(18) 0.62082(17) 0.59743(8)
H7A H 0.9587 0.5994 0.6405
H8A H 1.0640 0.7042 0.5966
O5A O 0.11085(17) 0.89376(17) -0.34662(9)
O6A O -0.13661(18) 1.04434(18) -0.34909(10)
O7A O 0.37801(17) 1.10524(15) -0.42022(7)
O8A O 0.19747(16) 1.30157(16) -0.47112(7)
O8A_2 O 1.19747(16) 0.30157(16) 0.52888(7)
O9A O 0.44968(18) 1.44631(17) -0.39965(8)
O10A O 0.35750(19) 1.60408(16) -0.30802(8)
O10_2 O 0.64250(19) 1.39592(16) 0.30802(8)
O10A_2 O 0.35750(19) 0.60408(16) -0.30802(8)
O11A O -0.0762(3) 1.1561(3) -0.06189(10)
O12A O 0.1045(3) 1.3182(3) -0.06089(10)
N1A N 0.4105(2) 0.90514(19) -0.24311(9)
N3A N 0.0329(3) 1.2398(3) -0.09448(10)
C1A C 0.0092(2) 1.0162(2) -0.33318(10)
C2A C 0.0703(2) 1.1391(2) -0.29322(10)
C3A C 0.0151(2) 1.1412(2) -0.21493(11)
H9A H -0.0644 1.0740 -0.1879
C4A C 0.0811(2) 1.2454(2) -0.17824(10)
C5A C 0.1901(2) 1.3549(2) -0.21699(11)
H10A H 0.2273 1.4276 -0.1910
C6A C 0.2439(2) 1.3551(2) -0.29567(10)
C7A C 0.1880(2) 1.2426(2) -0.33297(10)
C8A C 0.3612(2) 1.4777(2) -0.33852(11)
C9A C 0.2601(2) 1.2190(2) -0.41512(10)
C10A C 0.3163(3) 0.8337(3) -0.18081(12)
H11A H 0.2424 0.7641 -0.1884
C11A C 0.3209(3) 0.8556(3) -0.10634(12)
H12A H 0.2492 0.8051 -0.0655
C12A C 0.4329(3) 0.9532(3) -0.09281(12)
C13A C 0.5328(3) 1.0287(3) -0.15693(14)
H13A H 0.6103 1.0957 -0.1505
C14A C 0.5160(3) 1.0035(3) -0.23079(12)
H14A H 0.5812 1.0575 -0.2731
C15A C 0.4426(3) 0.9679(3) -0.01156(14)
H15A H 0.3582 0.9273 0.0261
N2 N 0.1789(3) 0.4262(3) 0.24898(11)
C16 C 0.3085(3) 0.5139(4) 0.22517(15)
H16 H 0.3434 0.5662 0.2610
C17 C 0.3941(3) 0.5321(3) 0.15091(15)
H17 H 0.4840 0.5944 0.1380
C18 C 0.3451(3) 0.4564(3) 0.09517(13)
C19 C 0.2105(3) 0.3666(3) 0.11943(14)
H18 H 0.1714 0.3148 0.0846
C20 C 0.1332(3) 0.3533(3) 0.19570(15)
H19 H 0.0443 0.2899 0.2105
C21 C 0.4294(3) 0.4685(3) 0.01443(14)
H20 H 0.3772 0.4271 -0.0198
N2A N 0.8211(3) 0.5738(3) -0.24898(11)
C16A C 0.6915(3) 0.4861(4) -0.22517(15)
H16A H 0.6566 0.4338 -0.2610
C17A C 0.6059(3) 0.4679(3) -0.15091(15)
H17A H 0.5160 0.4056 -0.1380
C18A C 0.6549(3) 0.5436(3) -0.09517(13)
C19A C 0.7895(3) 0.6334(3) -0.11943(14)
H18A H 0.8286 0.6852 -0.0846
C20A C 0.8668(3) 0.6467(3) -0.19570(15)
H19A H 0.9557 0.7101 -0.2105
C21A C 0.5706(3) 0.5315(3) -0.01443(14)
H20A H 0.6228 0.5729 0.0198
loop_
_geom_bond_atom_site_label_1
_geom_bond_atom_site_label_2
_geom_bond_site_symmetry_1
_geom_bond_site_symmetry_2
Mn1 O3 1_555 1_555
Mn2 O1 1_555 1_555
O1 H1 1_555 1_555
H2 O1 1_555 1_555
O2 Mn2 1_555 1_555
H3 O2 1_555 1_555
H4 O2 1_555 1_555
O3 H5 1_555 1_555
H6 O3 1_555 1_555
O4 Mn1 1_555 1_555
H7 O4 1_555 1_555
H8 O4 1_555 1_555
O5 Mn2 1_555 1_555
O6 C1 1_555 1_555
O7 Mn2 1_555 1_555
O8 Mn1 1_555 1_555
O9 C8 1_555 1_555
O10 C8 1_555 1_555
O11 N3 1_555 1_555
O12 N3 1_555 1_555
N1 Mn2 1_555 1_555
N2 C16 1_555 1_555
N3 C4 1_555 1_555
C1 O5 1_555 1_555
C2 C1 1_555 1_555
C3 C2 1_555 1_555
H9 C3 1_555 1_555
C4 C3 1_555 1_555
C5 C4 1_555 1_555
H10 C5 1_555 1_555
C6 C5 1_555 1_555
C7 C2 1_555 1_555
C8 C6 1_555 1_555
C9 O7 1_555 1_555
C10 N1 1_555 1_555
H11 C10 1_555 1_555
C11 C10 1_555 1_555
H12 C11 1_555 1_555
C12 C11 1_555 1_555
C13 C12 1_555 1_555
H13 C13 1_555 1_555
C14 N1 1_555 1_555
H14 C14 1_555 1_555
C15 C12 1_555 1_555
H15 C15 1_555 1_555
C16 H16 1_555 1_555
C17 C16 1_555 1_555
H17 C17 1_555 1_555
C18 C17 1_555 1_555
C19 C18 1_555 1_555
H18 C19 1_555 1_555
C20 N2 1_555 1_555
H19 C20 1_555 1_555
C21 C18 1_555 1_555
H20 C21 1_555 1_555
Mn1_2 O8A 1_555 1_555
Mn2A O1A 1_555 1_555
Mn2_2 O10 1_555 1_555
Mn2A_2 O10A 1_555 1_555
O1A H1A 1_555 1_555
H2A O1A 1_555 1_555
O2A Mn2A 1_555 1_555
H3A O2A 1_555 1_555
H4A O2A 1_555 1_555
O3A Mn1 1_555 1_555
H5A O3A 1_555 1_555
H6A O3A 1_555 1_555
O4A Mn1 1_555 1_555
H7A O4A 1_555 1_555
H8A O4A 1_555 1_555
O5A Mn2A 1_555 1_555
O6A C1A 1_555 1_555
O7A Mn2A 1_555 1_555
O8A C9A 1_555 1_555
O8A_2 Mn1 1_555 1_555
O9A C8A 1_555 1_555
O10A C8A 1_555 1_555
O10_2 Mn2 1_555 1_555
O10A_2 Mn2A 1_555 1_555
O11A N3A 1_555 1_555
O12A N3A 1_555 1_555
N1A Mn2A 1_555 1_555
N2A C16A 1_555 1_555
N3A C4A 1_555 1_555
C1A O5A 1_555 1_555
C2A C1A 1_555 1_555
C3A C2A 1_555 1_555
H9A C3A 1_555 1_555
C4A C3A 1_555 1_555
C5A C4A 1_555 1_555
H10A C5A 1_555 1_555
C6A C5A 1_555 1_555
C7A C2A 1_555 1_555
C8A C6A 1_555 1_555
C9A O7A 1_555 1_555
C10A N1A 1_555 1_555
H11A C10A 1_555 1_555
C11A C10A 1_555 1_555
H12A C11A 1_555 1_555
C12A C11A 1_555 1_555
C13A C12A 1_555 1_555
H13A C13A 1_555 1_555
C14A N1A 1_555 1_555
H14A C14A 1_555 1_555
C15A C15 1_555 1_555
H15A C15A 1_555 1_555
C16A H16A 1_555 1_555
C17A C16A 1_555 1_555
H17A C17A 1_555 1_555
C18A C17A 1_555 1_555
C19A C18A 1_555 1_555
H18A C19A 1_555 1_555
C20A N2A 1_555 1_555
H19A C20A 1_555 1_555
C21A C21 1_555 1_555
H20A C21A 1_555 1_555
O8 C9 1_555 1_555
C6 C7 1_555 1_555
C7 C9 1_555 1_555
C13 C14 1_555 1_555
C19 C20 1_555 1_555
C6A C7A 1_555 1_555
C7A C9A 1_555 1_555
C12A C15A 1_555 1_555
C13A C14A 1_555 1_555
C18A C21A 1_555 1_555
C19A C20A 1_555 1_555

#END
