
#######################################################################
#
#                 Cambridge Crystallographic Data Centre
#                                CCDC 
#
#######################################################################
#
# If this CIF has been generated from an entry in the Cambridge 
# Structural Database, then it will include bibliographic, chemical, 
# crystal, experimental, refinement or atomic coordinate data resulting 
# from the CCDC's data processing and validation procedures.
#
#######################################################################

data_DUYCOQ
_symmetry_cell_setting           monoclinic
_symmetry_space_group_name_H-M   'P 21/n'
_symmetry_Int_Tables_number      14
_space_group_name_Hall           '-P 2yn'
loop_
_symmetry_equiv_pos_site_id
_symmetry_equiv_pos_as_xyz
1 x,y,z
2 1/2-x,1/2+y,1/2-z
3 -x,-y,-z
4 1/2+x,1/2-y,1/2+z
_cell_length_a                   15.9264(5)
_cell_length_b                   18.2649(6)
_cell_length_c                   19.6173(6)
_cell_angle_alpha                90
_cell_angle_beta                 106.1030(10)
_cell_angle_gamma                90
_cell_volume                     5482.66
loop_
_atom_site_label
_atom_site_type_symbol
_atom_site_fract_x
_atom_site_fract_y
_atom_site_fract_z
Cu1 Cu 1.12757(2) 0.301301(19) 0.976130(17)
N1 N 1.21717(14) 0.28363(11) 1.06195(11)
N2 N 1.54145(15) 0.21351(12) 1.38725(12)
C1 C 1.27120(19) 0.33657(15) 1.09753(15)
H1 H 1.2644 0.3848 1.0785
C2 C 1.33491(19) 0.32460(15) 1.15910(15)
H2 H 1.3710 0.3640 1.1815
C3 C 1.34756(16) 0.25512(13) 1.18943(13)
C4 C 1.29332(18) 0.20019(13) 1.15125(14)
H3 H 1.3002 0.1512 1.1682
C5 C 1.23041(18) 0.21606(14) 1.08972(14)
H4 H 1.1944 0.1774 1.0655
C6 C 1.41419(16) 0.24050(13) 1.25761(13)
C7 C 1.45082(18) 0.29671(14) 1.30435(14)
H5 H 1.4325 0.3458 1.2930
C8 C 1.51324(18) 0.28173(14) 1.36688(14)
H6 H 1.5377 0.3214 1.3972
C9 C 1.50514(19) 0.15947(15) 1.34269(15)
H7 H 1.5231 0.1107 1.3561
C10 C 1.44393(19) 0.17009(15) 1.27922(15)
H8 H 1.4215 0.1294 1.2496
O13 O 1.10053(17) 0.43051(12) 0.98561(12)
H43 H 1.141(2) 0.4514(16) 0.9945(16)
H44 H 1.067(2) 0.459(2) 0.963(2)
Cu1C Cu 1.62757(2) 0.198699(19) 1.476130(17)
N2C N 1.04145(15) 0.28649(12) 0.88725(12)
Cu2 Cu -0.02696(2) 0.290198(17) 0.561047(17)
N3 N -0.12622(14) 0.27012(11) 0.48273(11)
N4 N -0.44117(14) 0.22461(12) 0.14939(11)
C11 C -0.13781(18) 0.20456(13) 0.44967(15)
H9 H -0.1015 0.1648 0.4710
C12 C -0.20024(18) 0.19317(14) 0.38623(14)
H10 H -0.2064 0.1461 0.3648
C13 C -0.25457(15) 0.25058(13) 0.35322(13)
C14 C -0.24422(16) 0.31715(14) 0.38965(13)
H11 H -0.2812 0.3573 0.3707
C15 C -0.18038(17) 0.32447(13) 0.45297(14)
H12 H -0.1745 0.3703 0.4767
C16 C -0.31861(16) 0.24190(13) 0.28288(13)
C17 C -0.33880(19) 0.17353(15) 0.25115(14)
H13 H -0.3110 0.1310 0.2749
C18 C -0.39829(19) 0.16701(15) 0.18607(15)
H14 H -0.4100 0.1196 0.1657
C19 C -0.42142(18) 0.29104(13) 0.17941(14)
H15 H -0.4499 0.3327 0.1544
C20 C -0.36254(17) 0.30143(13) 0.24404(14)
H16 H -0.3513 0.3495 0.2628
O18 O 0.00251(14) 0.40095(11) 0.52785(10)
H45 H -0.031(3) 0.422(2) 0.485(2)
H46 H 0.0467(19) 0.4228(15) 0.5442(15)
Cu2C Cu -0.52696(2) 0.209802(17) 0.061047(17)
N4C N 0.05883(14) 0.27539(12) 0.64939(11)
Cu3 Cu 0.85822(2) 0.201224(16) 0.204334(16)
Cu4 Cu 1.07088(2) 0.219670(18) 0.164690(16)
Cu5 Cu 0.945977(18) -0.009559(15) 0.137503(15)
N5 N 0.77363(13) 0.22404(11) 0.11689(11)
N6 N 0.44656(14) 0.28677(11) -0.20787(11)
C21 C 0.74393(16) 0.17093(13) 0.06852(12)
H17 H 0.7675 0.1230 0.0781
C22 C 0.68103(16) 0.18331(13) 0.00602(13)
H18 H 0.6620 0.1440 -0.0263
C23 C 0.64434(15) 0.25265(13) -0.01111(13)
C24 C 0.67583(17) 0.30772(14) 0.03920(13)
H19 H 0.6536 0.3562 0.0307
C25 C 0.73891(18) 0.29141(13) 0.10086(14)
H20 H 0.7592 0.3297 0.1341
C26 C 0.57596(16) 0.26547(13) -0.07829(13)
C27 C 0.52341(17) 0.20818(13) -0.11398(14)
H21 H 0.5312 0.1602 -0.0944
C28 C 0.46118(17) 0.22031(14) -0.17640(14)
H22 H 0.4264 0.1802 -0.1989
C29 C 0.49612(17) 0.34268(13) -0.17343(13)
H23 H 0.4868 0.3901 -0.1941
C30 C 0.55924(16) 0.33438(13) -0.11007(13)
H24 H 0.5917 0.3757 -0.0877
N7 N 0.98510(13) 0.22852(11) 0.07703(11)
N8 N 0.65395(14) 0.26414(11) -0.24717(11)
C31 C 0.96059(16) 0.17089(13) 0.03336(13)
H25 H 0.9885 0.1251 0.0471
C32 C 0.89705(16) 0.17528(13) -0.03016(13)
H26 H 0.8824 0.1333 -0.0596
C33 C 0.85421(16) 0.24093(13) -0.05138(13)
C34 C 0.87976(18) 0.30103(13) -0.00556(14)
H27 H 0.8527 0.3473 -0.0181
C35 C 0.94317(18) 0.29291(13) 0.05659(15)
H28 H 0.9588 0.3341 0.0871
C36 C 0.78556(16) 0.24840(13) -0.11851(13)
C37 C 0.74137(17) 0.18795(14) -0.15567(14)
H29 H 0.7554 0.1399 -0.1375
C38 C 0.67786(19) 0.19824(14) -0.21828(15)
H30 H 0.6492 0.1563 -0.2426
C39 C 0.69660(18) 0.32229(14) -0.21121(14)
H31 H 0.6812 0.3698 -0.2302
C40 C 0.76029(18) 0.31612(14) -0.14942(14)
H32 H 0.7883 0.3591 -0.1267
O1 O 0.90171(13) 0.03869(11) 0.41997(10)
O2 O 0.94220(12) -0.02355(10) 0.33718(9)
O3 O 0.85106(11) 0.08032(9) 0.20942(9)
O4 O 0.84490(10) -0.03412(9) 0.17066(8)
O5 O 0.66014(12) 0.02849(10) 0.10011(9)
O6 O 0.57165(11) -0.06330(10) 0.10996(10)
C41 C 0.78986(17) -0.00422(12) 0.32248(13)
C42 C 0.75895(16) -0.00385(12) 0.24773(13)
C43 C 0.67202(16) -0.02023(12) 0.21468(13)
C44 C 0.61532(17) -0.03548(13) 0.25648(14)
H33 H 0.5562 -0.0480 0.2341
C45 C 0.64415(18) -0.03247(14) 0.32940(14)
H34 H 0.6046 -0.0411 0.3570
C46 C 0.73125(18) -0.01678(13) 0.36249(15)
H35 H 0.7511 -0.0146 0.4128
C47 C 0.88503(17) 0.00532(13) 0.36289(13)
C48 C 0.82227(15) 0.01666(12) 0.20558(12)
C49 C 0.63217(16) -0.01862(13) 0.13445(13)
O7 O 1.32288(12) 0.01714(11) 0.31698(10)
O8 O 1.18411(12) -0.01235(10) 0.27165(9)
O9 O 1.09510(11) 0.09453(9) 0.15911(9)
O10 O 1.05447(11) -0.01450(9) 0.11047(9)
O11 O 1.11573(11) 0.09315(9) -0.01470(9)
O12 O 1.12780(11) -0.02247(9) -0.04736(9)
C50 C 1.27099(16) 0.00597(12) 0.19179(13)
C51 C 1.20179(15) 0.01816(11) 0.13079(13)
C52 C 1.21788(15) 0.01534(12) 0.06393(12)
C53 C 1.30217(16) 0.00113(12) 0.05876(13)
H36 H 1.3124 -0.0020 0.0134
C54 C 1.37087(16) -0.00842(13) 0.11931(14)
H37 H 1.4284 -0.0164 0.1157
C55 C 1.35480(16) -0.00615(12) 0.18517(13)
H38 H 1.4019 -0.0130 0.2267
C56 C 1.25736(16) 0.00306(12) 0.26573(13)
C57 C 1.11055(15) 0.03540(13) 0.13485(12)
C58 C 1.14716(15) 0.03114(13) -0.00369(12)
O17 O 1.01509(13) -0.03421(11) 0.23330(10)
H47 H 1.070(2) -0.0247(18) 0.2503(18)
H48 H 0.990(3) -0.030(2) 0.262(2)
Cu3C Cu 0.35822(2) 0.298776(16) -0.295666(16)
Cu4C Cu 0.57088(2) 0.280330(18) -0.335310(16)
Cu5B Cu 1.054023(18) 0.009559(15) -0.137503(15)
N6C N 0.94656(14) 0.21323(11) 0.29213(11)
N8C N 1.15395(14) 0.23586(11) 0.25283(11)
O11B O 0.88427(11) -0.09315(9) 0.01470(9)
O12B O 0.87220(11) 0.02247(9) 0.04736(9)
O14 O 0.73008(15) 0.97793(11) 0.55705(12)
H39 H 0.798(3) 0.9861(19) 0.575(2)
H40 H 0.721(3) 0.985(2) 0.592(2)
O15 O 0.47661(14) 0.96878(13) 0.40495(12)
H49 H 0.437(4) 0.947(4) 0.368(4)
O16 O 0.10545(16) 0.98058(15) 0.44241(14)
H41 H 0.097(3) 0.972(2) 0.482(3)
H42 H 0.060(3) 0.976(3) 0.414(3)
loop_
_geom_bond_atom_site_label_1
_geom_bond_atom_site_label_2
_geom_bond_site_symmetry_1
_geom_bond_site_symmetry_2
Cu1 N1 1_555 1_555
Cu2 N3 1_555 1_555
Cu3 N5 1_555 1_555
Cu4 N7 1_555 1_555
Cu5 O3 1_555 1_555
N1 C1 1_555 1_555
N2 C8 1_555 1_555
C1 H1 1_555 1_555
C2 C1 1_555 1_555
H2 C2 1_555 1_555
C3 C2 1_555 1_555
C4 C3 1_555 1_555
H3 C4 1_555 1_555
C5 N1 1_555 1_555
H4 C5 1_555 1_555
C6 C3 1_555 1_555
C7 C6 1_555 1_555
H5 C7 1_555 1_555
C8 C7 1_555 1_555
H6 C8 1_555 1_555
C9 N2 1_555 1_555
H7 C9 1_555 1_555
C10 C6 1_555 1_555
H8 C10 1_555 1_555
N3 C11 1_555 1_555
N4 C18 1_555 1_555
C11 H9 1_555 1_555
C12 C11 1_555 1_555
H10 C12 1_555 1_555
C13 C12 1_555 1_555
C14 C13 1_555 1_555
H11 C14 1_555 1_555
C15 N3 1_555 1_555
H12 C15 1_555 1_555
C16 C13 1_555 1_555
C17 C16 1_555 1_555
H13 C17 1_555 1_555
C18 C17 1_555 1_555
H14 C18 1_555 1_555
C19 N4 1_555 1_555
H15 C19 1_555 1_555
C20 C16 1_555 1_555
H16 C20 1_555 1_555
N5 C21 1_555 1_555
N6 C28 1_555 1_555
C21 H17 1_555 1_555
C22 C21 1_555 1_555
H18 C22 1_555 1_555
C23 C22 1_555 1_555
C24 C23 1_555 1_555
H19 C24 1_555 1_555
C25 N5 1_555 1_555
H20 C25 1_555 1_555
C26 C23 1_555 1_555
C27 C26 1_555 1_555
H21 C27 1_555 1_555
C28 C27 1_555 1_555
H22 C28 1_555 1_555
C29 N6 1_555 1_555
H23 C29 1_555 1_555
C30 C26 1_555 1_555
H24 C30 1_555 1_555
N7 C31 1_555 1_555
N8 C38 1_555 1_555
C31 H25 1_555 1_555
C32 C31 1_555 1_555
H26 C32 1_555 1_555
C33 C32 1_555 1_555
C34 C33 1_555 1_555
H27 C34 1_555 1_555
C35 N7 1_555 1_555
H28 C35 1_555 1_555
C36 C33 1_555 1_555
C37 C36 1_555 1_555
H29 C37 1_555 1_555
C38 C37 1_555 1_555
H30 C38 1_555 1_555
C39 N8 1_555 1_555
H31 C39 1_555 1_555
C40 C36 1_555 1_555
H32 C40 1_555 1_555
O1 C47 1_555 1_555
O2 C47 1_555 1_555
O3 Cu3 1_555 1_555
O4 Cu5 1_555 1_555
O5 C49 1_555 1_555
O6 C49 1_555 1_555
C41 C42 1_555 1_555
C42 C43 1_555 1_555
C43 C44 1_555 1_555
C44 H33 1_555 1_555
C45 C44 1_555 1_555
H34 C45 1_555 1_555
C46 C41 1_555 1_555
H35 C46 1_555 1_555
C47 C41 1_555 1_555
C48 O3 1_555 1_555
C49 C43 1_555 1_555
O7 C56 1_555 1_555
O8 C56 1_555 1_555
O9 Cu4 1_555 1_555
O10 Cu5 1_555 1_555
O11 C58 1_555 1_555
O12 C58 1_555 1_555
C50 C51 1_555 1_555
C51 C52 1_555 1_555
C52 C53 1_555 1_555
C53 H36 1_555 1_555
C54 C53 1_555 1_555
H37 C54 1_555 1_555
C55 C50 1_555 1_555
H38 C55 1_555 1_555
C56 C50 1_555 1_555
C57 O9 1_555 1_555
C58 C52 1_555 1_555
O13 Cu1 1_555 1_555
O14 H39 1_555 1_555
O15 H49 1_555 1_555
O16 H41 1_555 1_555
O17 Cu5 1_555 1_555
O18 Cu2 1_555 1_555
H40 O14 1_555 1_555
H42 O16 1_555 1_555
H43 O13 1_555 1_555
H44 O13 1_555 1_555
H45 O18 1_555 1_555
H46 O18 1_555 1_555
H47 O17 1_555 1_555
H48 O17 1_555 1_555
Cu1C N2 1_555 1_555
Cu2C N4 1_555 1_555
Cu3C N6 1_555 1_555
Cu4C N8 1_555 1_555
Cu5B O11 1_555 1_555
N2C Cu1 1_555 1_555
N4C Cu2 1_555 1_555
N6C Cu3 1_555 1_555
N8C Cu4 1_555 1_555
O11B Cu5 1_555 1_555
O12B Cu5 1_555 1_555
Cu5 O9 1_555 1_555
C4 C5 1_555 1_555
C9 C10 1_555 1_555
C14 C15 1_555 1_555
C19 C20 1_555 1_555
C24 C25 1_555 1_555
C29 C30 1_555 1_555
C34 C35 1_555 1_555
C39 C40 1_555 1_555
O4 C48 1_555 1_555
C42 C48 1_555 1_555
C45 C46 1_555 1_555
O10 C57 1_555 1_555
O12 Cu5B 1_555 1_555
C51 C57 1_555 1_555
C54 C55 1_555 1_555

#END
