
#######################################################################
#
#                 Cambridge Crystallographic Data Centre
#                                CCDC 
#
#######################################################################
#
# If this CIF has been generated from an entry in the Cambridge 
# Structural Database, then it will include bibliographic, chemical, 
# crystal, experimental, refinement or atomic coordinate data resulting 
# from the CCDC's data processing and validation procedures.
#
#######################################################################

data_DUYCAC
_symmetry_cell_setting           triclinic
_symmetry_space_group_name_H-M   'P -1'
_symmetry_Int_Tables_number      2
_space_group_name_Hall           '-P 1'
loop_
_symmetry_equiv_pos_site_id
_symmetry_equiv_pos_as_xyz
1 x,y,z
2 -x,-y,-z
_cell_length_a                   11.1537(11)
_cell_length_b                   11.1636(11)
_cell_length_c                   18.4683(18)
_cell_angle_alpha                83.6160(10)
_cell_angle_beta                 74.8460(10)
_cell_angle_gamma                67.3020(10)
_cell_volume                     2047.58
loop_
_atom_site_label
_atom_site_type_symbol
_atom_site_fract_x
_atom_site_fract_y
_atom_site_fract_z
Mn1 Mn 0.43567(4) 0.52861(4) 0.29835(2)
Mn2 Mn 0.05716(4) 0.26819(4) 0.51026(2)
Mn3 Mn 0.38311(4) 0.34594(4) 0.49610(2)
O1 O 0.4830(3) 0.3259(2) 0.29230(14)
O2 O 0.4149(3) 0.2415(3) 0.40249(13)
O3 O 0.1974(2) 0.1555(2) 0.42006(11)
O4 O 0.3587(3) -0.0028(2) 0.46241(13)
O5 O 0.2622(4) -0.1417(4) 0.3831(2)
O6 O 0.3996(4) -0.2715(3) 0.29416(16)
O7 O 0.5592(4) -0.0752(3) 0.06291(15)
O8 O 0.6133(3) 0.0894(3) 0.06505(14)
O9 O 0.2364(2) 0.5639(3) 0.28625(13)
O10 O 0.1020(2) 0.6197(2) 0.39897(11)
O11 O -0.16258(19) 0.6060(2) 0.47293(11)
O12 O -0.0358(2) 0.4054(2) 0.42941(12)
O13 O -0.3438(2) 0.5274(2) 0.41445(12)
O14 O -0.3640(2) 0.4968(3) 0.30241(13)
O15 O -0.1848(4) 0.7417(4) 0.09450(18)
O16 O 0.0288(3) 0.6876(3) 0.07398(15)
O17 O -0.0611(3) 0.1504(3) 0.51018(16)
H1 H -0.0770 0.1179 0.5519
H2 H -0.1332 0.2000 0.4994
O18 O 0.1618(3) 0.1219(2) 0.58947(13)
H3 H 0.2064 0.0526 0.5679
H4 H 0.1130 0.1128 0.6304
O19 O 0.3479(2) 0.5348(2) 0.42684(11)
H5 H 0.2666 0.5638 0.4270
H6 H 0.3663 0.5892 0.4443
O20 O 0.5977(3) 0.2977(3) 0.48800(18)
H7 H 0.6602 0.2442 0.4598
H8 H 0.5847 0.3732 0.4716
O21 O 0.3978(3) 0.1836(3) 0.57276(15)
H9 H 0.4634 0.1201 0.5548
H10 H 0.3285 0.1663 0.5835
N1 N 0.5656(3) 0.0100(3) 0.09614(15)
N2 N -0.0788(4) 0.6935(3) 0.11462(17)
N3 N 0.4991(3) 0.5310(3) 0.17143(14)
N4 N 1.0195(4) 0.7407(3) -0.26045(18)
C1 C 0.4471(3) 0.1318(3) 0.29291(16)
C2 C 0.3895(3) 0.0426(3) 0.33031(16)
C3 C 0.4016(3) -0.0627(3) 0.29011(16)
C4 C 0.4628(3) -0.0745(3) 0.21398(17)
H13 H 0.4715 -0.1448 0.1875
C5 C 0.5104(3) 0.0192(3) 0.17789(17)
C6 C 0.5052(3) 0.1203(3) 0.21619(17)
H14 H 0.5403 0.1809 0.1910
C7 C 0.4469(3) 0.2431(3) 0.33244(18)
C8 C 0.3100(3) 0.0656(3) 0.41168(16)
C9 C 0.3489(4) -0.1673(3) 0.32589(18)
C10 C 0.0099(3) 0.6032(3) 0.29875(16)
C11 C -0.0983(3) 0.5714(3) 0.34057(16)
C12 C -0.1981(3) 0.5756(3) 0.30585(16)
C13 C -0.1914(3) 0.6177(3) 0.23198(17)
H15 H -0.2587 0.6242 0.2091
C14 C -0.0849(3) 0.6496(3) 0.19272(17)
C15 C 0.0180(3) 0.6398(3) 0.22397(17)
H16 H 0.0915 0.6574 0.1954
C16 C 0.1243(3) 0.5953(3) 0.33066(17)
C17 C -0.0987(3) 0.5224(3) 0.42090(16)
C18 C -0.3113(3) 0.5308(3) 0.34434(17)
C19 C 0.6130(4) 0.4433(4) 0.1343(2)
H17 H 0.6560 0.3692 0.1601
C20 C 0.6702(4) 0.4568(4) 0.0597(2)
H18 H 0.7495 0.3925 0.0361
C21 C 0.6095(4) 0.5665(4) 0.0198(2)
C22 C 0.4898(4) 0.6550(4) 0.05770(19)
H19 H 0.4438 0.7289 0.0329
C23 C 0.4381(4) 0.6343(3) 0.13229(19)
H20 H 0.3568 0.6952 0.1565
C24 C 0.6763(4) 0.5930(5) -0.0592(2)
H21 H 0.7248 0.5123 -0.0866
H22 H 0.6094 0.6496 -0.0852
C25 C 0.7713(5) 0.6567(5) -0.0553(2)
H23 H 0.8307 0.6018 -0.0247
H24 H 0.7192 0.7382 -0.0293
C26 C 0.9065(4) 0.7285(4) -0.2603(2)
H25 H 0.8810 0.7402 -0.3055
C27 C 0.8234(4) 0.6992(4) -0.1970(2)
H26 H 0.7459 0.6894 -0.2003
C28 C 0.8568(4) 0.6847(4) -0.1286(2)
C29 C 0.9751(5) 0.6971(4) -0.1292(2)
H27 H 1.0030 0.6872 -0.0849
C30 C 1.0520(5) 0.7240(5) -0.1953(3)
H28 H 1.1319 0.7309 -0.1941
Mn1_2 Mn 0.43567(4) -0.47139(4) 0.29835(2)
Mn1_3 Mn -0.56433(4) 0.52861(4) 0.29835(2)
Mn2A Mn -0.05716(4) 0.73181(4) 0.48974(2)
Mn3A Mn -0.38311(4) 0.65406(4) 0.50390(2)
O6_2 O 0.3996(4) 0.7285(3) 0.29416(16)
O10A O -0.1020(2) 0.3803(2) 0.60103(11)
O11A O 0.16258(19) 0.3940(2) 0.52707(11)
O13A O 0.3438(2) 0.4726(2) 0.58555(12)
O14_2 O 0.6360(2) 0.4968(3) 0.30241(13)
O22 O 0.1767(6) 0.8187(5) 0.6183(2)
H11 H 0.1642 0.8065 0.5792
H12 H 0.1096 0.8671 0.6476
N5 N -0.0520(4) 0.9462(4) 0.26223(19)
C31 C -0.1443(5) 0.9815(5) 0.2232(2)
H29 H -0.2319 0.9950 0.2493
C32 C -0.1192(4) 0.9997(5) 0.1464(2)
H30 H -0.1884 1.0233 0.1220
C33 C 0.0091(4) 0.9827(4) 0.1058(2)
C34 C 0.1058(4) 0.9476(4) 0.1465(2)
H31 H 0.1938 0.9357 0.1222
C35 C 0.0718(5) 0.9304(5) 0.2228(3)
H32 H 0.1390 0.9062 0.2486
C36 C 0.0468(5) 0.9981(6) 0.0217(2)
H33 H 0.0643 1.0777 0.0109
H34 H 0.1305 0.9271 0.0028
N5A N 0.0520(4) 1.0538(4) -0.26223(19)
C31A C 0.1443(5) 1.0185(5) -0.2232(2)
H29A H 0.2319 1.0050 -0.2493
C32A C 0.1192(4) 1.0003(5) -0.1464(2)
H30A H 0.1884 0.9767 -0.1220
C33A C -0.0091(4) 1.0173(4) -0.1058(2)
C34A C -0.1058(4) 1.0524(4) -0.1465(2)
H31A H -0.1938 1.0643 -0.1222
C35A C -0.0718(5) 1.0696(5) -0.2228(3)
H32A H -0.1390 1.0938 -0.2486
C36A C -0.0468(5) 1.0019(6) -0.0217(2)
H33A H -0.0643 0.9223 -0.0109
H34A H -0.1305 1.0729 -0.0028
loop_
_geom_bond_atom_site_label_1
_geom_bond_atom_site_label_2
_geom_bond_site_symmetry_1
_geom_bond_site_symmetry_2
Mn1 O1 1_555 1_555
Mn2 O3 1_555 1_555
Mn3 O2 1_555 1_555
O1 C7 1_555 1_555
O2 C7 1_555 1_555
O3 C8 1_555 1_555
O4 C8 1_555 1_555
O5 C9 1_555 1_555
O6 C9 1_555 1_555
O7 N1 1_555 1_555
O8 N1 1_555 1_555
O9 Mn1 1_555 1_555
O10 C16 1_555 1_555
O11 C17 1_555 1_555
O12 Mn2 1_555 1_555
O13 C18 1_555 1_555
O14 C18 1_555 1_555
O15 N2 1_555 1_555
O16 N2 1_555 1_555
O17 Mn2 1_555 1_555
H1 O17 1_555 1_555
H2 O17 1_555 1_555
O18 Mn2 1_555 1_555
H3 O18 1_555 1_555
H4 O18 1_555 1_555
O19 Mn1 1_555 1_555
H5 O19 1_555 1_555
H6 O19 1_555 1_555
O20 Mn3 1_555 1_555
H7 O20 1_555 1_555
H8 O20 1_555 1_555
O21 Mn3 1_555 1_555
H9 O21 1_555 1_555
H10 O21 1_555 1_555
O22 H11 1_555 1_555
H12 O22 1_555 1_555
N1 C5 1_555 1_555
N2 C14 1_555 1_555
N3 Mn1 1_555 1_555
N4 C26 1_555 1_555
N5 C31 1_555 1_555
C1 C2 1_555 1_555
C2 C3 1_555 1_555
C3 C4 1_555 1_555
C4 H13 1_555 1_555
C5 C4 1_555 1_555
C6 C1 1_555 1_555
H14 C6 1_555 1_555
C7 C1 1_555 1_555
C8 C2 1_555 1_555
C9 C3 1_555 1_555
C10 C11 1_555 1_555
C11 C12 1_555 1_555
C12 C13 1_555 1_555
C13 H15 1_555 1_555
C14 C13 1_555 1_555
C15 C10 1_555 1_555
H16 C15 1_555 1_555
C16 O9 1_555 1_555
C17 O12 1_555 1_555
C18 C12 1_555 1_555
C19 N3 1_555 1_555
H17 C19 1_555 1_555
C20 C19 1_555 1_555
H18 C20 1_555 1_555
C21 C20 1_555 1_555
C22 C21 1_555 1_555
H19 C22 1_555 1_555
C23 N3 1_555 1_555
H20 C23 1_555 1_555
C24 C21 1_555 1_555
H21 C24 1_555 1_555
H22 C24 1_555 1_555
C25 C24 1_555 1_555
H23 C25 1_555 1_555
H24 C25 1_555 1_555
C26 H25 1_555 1_555
C27 C26 1_555 1_555
H26 C27 1_555 1_555
C28 C25 1_555 1_555
C29 C28 1_555 1_555
H27 C29 1_555 1_555
C30 N4 1_555 1_555
H28 C30 1_555 1_555
C31 H29 1_555 1_555
C32 C31 1_555 1_555
H30 C32 1_555 1_555
C33 C32 1_555 1_555
C34 C33 1_555 1_555
H31 C34 1_555 1_555
C35 N5 1_555 1_555
H32 C35 1_555 1_555
C36 C33 1_555 1_555
H33 C36 1_555 1_555
H34 C36 1_555 1_555
Mn1_2 O6 1_555 1_555
Mn1_3 O14 1_555 1_555
Mn2A O10 1_555 1_555
Mn3A O11 1_555 1_555
O6_2 Mn1 1_555 1_555
O10A Mn2 1_555 1_555
O11A Mn2 1_555 1_555
O13A Mn3 1_555 1_555
O14_2 Mn1 1_555 1_555
N5A C31A 1_555 1_555
C31A H29A 1_555 1_555
C32A C31A 1_555 1_555
H30A C32A 1_555 1_555
C33A C32A 1_555 1_555
C34A C33A 1_555 1_555
H31A C34A 1_555 1_555
C35A N5A 1_555 1_555
H32A C35A 1_555 1_555
C36A C36 1_555 1_555
H33A C36A 1_555 1_555
H34A C36A 1_555 1_555
Mn3 O19 1_555 1_555
Mn3 O11A 1_555 1_555
O11 Mn2A 1_555 1_555
O13 Mn3A 1_555 1_555
C5 C6 1_555 1_555
C10 C16 1_555 1_555
C11 C17 1_555 1_555
C14 C15 1_555 1_555
C22 C23 1_555 1_555
C27 C28 1_555 1_555
C29 C30 1_555 1_555
C34 C35 1_555 1_555
C33A C36A 1_555 1_555
C34A C35A 1_555 1_555

#END
