
#######################################################################
#
#                 Cambridge Crystallographic Data Centre
#                                CCDC 
#
#######################################################################
#
# If this CIF has been generated from an entry in the Cambridge 
# Structural Database, then it will include bibliographic, chemical, 
# crystal, experimental, refinement or atomic coordinate data resulting 
# from the CCDC's data processing and validation procedures.
#
#######################################################################

data_DUYJUC
_symmetry_cell_setting           triclinic
_symmetry_space_group_name_H-M   'P -1'
_symmetry_Int_Tables_number      2
_space_group_name_Hall           '-P 1'
loop_
_symmetry_equiv_pos_site_id
_symmetry_equiv_pos_as_xyz
1 x,y,z
2 -x,-y,-z
_cell_length_a                   8.7146(9)
_cell_length_b                   9.8853(11)
_cell_length_c                   13.8115(18)
_cell_angle_alpha                69.17(1)
_cell_angle_beta                 67.54(1)
_cell_angle_gamma                84.69(1)
_cell_volume                     1026.4
loop_
_atom_site_label
_atom_site_type_symbol
_atom_site_fract_x
_atom_site_fract_y
_atom_site_fract_z
Ag1 Ag 0.34286(3) -0.97855(2) 0.08033(2)
N1 N 0.6244(4) -0.4504(3) -0.4367(3)
C1 C 0.6093(4) -0.5647(3) -0.3431(3)
C2 C 0.4794(5) -0.5939(3) -0.2447(3)
C3 C 0.3494(4) -0.4954(4) -0.2313(3)
O1 O 0.2305(3) -0.5058(3) -0.1413(2)
C4 C 0.2423(4) -0.2687(4) -0.3307(3)
C5 C 0.2575(5) -0.1537(4) -0.4261(3)
F1 F 0.1461(3) -0.0488(3) -0.4163(2)
C6 C 0.3870(4) -0.1332(3) -0.5297(3)
C7 C 0.5084(4) -0.2343(3) -0.5323(3)
C8 C 0.4992(4) -0.3518(3) -0.4346(3)
C9 C 0.3649(4) -0.3721(3) -0.3331(3)
C10 C 0.4812(4) -0.7340(3) -0.1533(3)
O2 O 0.3452(3) -0.8014(3) -0.0853(2)
O3 O 0.6226(3) -0.7792(3) -0.1530(3)
C11 C 0.7788(5) -0.4265(4) -0.5372(3)
C12 C 0.8973(5) -0.3179(5) -0.5468(4)
N2 N 0.3934(4) -0.0141(3) -0.6234(3)
C13 C 0.5404(4) 0.0070(4) -0.7254(3)
C14 C 0.5478(5) 0.1551(4) -0.8115(3)
N3 N 0.3954(4) 0.1824(3) -0.8363(3)
C15 C 0.2529(5) 0.1642(4) -0.7317(4)
C16 C 0.2420(5) 0.0136(4) -0.6497(3)
C17 C 0.4059(7) 0.3320(4) -0.9133(4)
O4 O 0.0409(4) -0.9545(4) 0.1516(4)
H1 H 0.6963 -0.6303 -0.3493
H2 H 0.1486 -0.2789 -0.263
H3 H 0.5998 -0.2248 -0.6013
H4 H 0.831 -0.516 -0.5358
H5 H 0.7497 -0.3921 -0.6024
H6 H 0.9963 -0.3048 -0.6129
H7 H 0.8482 -0.2283 -0.5503
H8 H 0.9295 -0.3521 -0.4838
H9 H 0.5373 -0.065 -0.7561
H10 H 0.6379 -0.0035 -0.7077
H11 H 0.641 0.1641 -0.878
H12 H 0.5611 0.2271 -0.7822
H13 H 0.2657 0.233 -0.6992
H14 H 0.1524 0.1844 -0.7458
H15 H 0.1457 0.0011 -0.5834
H16 H 0.2307 -0.0539 -0.6833
H17 H 0.4987 0.3439 -0.9823
H18 H 0.4213 0.3983 -0.8816
H19 H 0.3074 0.352 -0.9289
H20 H 0.008 -0.873 0.104
H21 H -0.035 -1.027 0.171
Ag1A Ag 0.65714(3) -1.02145(2) -0.08033(2)
O3A O 0.3774(3) -1.2208(3) 0.1530(3)
N3_2 N 0.3954(4) -0.8176(3) 0.1637(3)
Ag1_2 Ag 0.34286(3) 0.02145(2) -0.91967(2)
O5 O 0.1442(4) -1.8000(3) 0.7963(3)
H22 H 0.205 -1.797 0.834
H23 H 0.062 -1.741 0.805
O6 O 0.0443(5) -1.3187(4) 0.9763(4)
H24 H 0.098 -1.384 0.943
H25 H -0.059 -1.372 1.021
O7 O 0.1103(5) -1.3963(4) 0.1943(5)
H26 H 0.075 -1.429 0.147
H27 H 0.201 -1.348 0.171
loop_
_geom_bond_atom_site_label_1
_geom_bond_atom_site_label_2
_geom_bond_site_symmetry_1
_geom_bond_site_symmetry_2
Ag1 O2 1_555 1_555
N1 C1 1_555 1_555
C1 C2 1_555 1_555
C2 C3 1_555 1_555
C3 O1 1_555 1_555
C4 C5 1_555 1_555
C5 F1 1_555 1_555
C6 C5 1_555 1_555
C7 C6 1_555 1_555
C8 N1 1_555 1_555
C9 C3 1_555 1_555
C10 C2 1_555 1_555
O2 C10 1_555 1_555
O3 C10 1_555 1_555
C11 N1 1_555 1_555
C12 C11 1_555 1_555
N2 C6 1_555 1_555
C13 N2 1_555 1_555
C14 C13 1_555 1_555
N3 C14 1_555 1_555
C15 N3 1_555 1_555
C16 N2 1_555 1_555
C17 N3 1_555 1_555
O4 Ag1 1_555 1_555
O5 H22 1_555 1_555
O6 H24 1_555 1_555
O7 H26 1_555 1_555
H1 C1 1_555 1_555
H2 C4 1_555 1_555
H3 C7 1_555 1_555
H4 C11 1_555 1_555
H5 C11 1_555 1_555
H6 C12 1_555 1_555
H7 C12 1_555 1_555
H8 C12 1_555 1_555
H9 C13 1_555 1_555
H10 C13 1_555 1_555
H11 C14 1_555 1_555
H12 C14 1_555 1_555
H13 C15 1_555 1_555
H14 C15 1_555 1_555
H15 C16 1_555 1_555
H16 C16 1_555 1_555
H17 C17 1_555 1_555
H18 C17 1_555 1_555
H19 C17 1_555 1_555
H20 O4 1_555 1_555
H21 O4 1_555 1_555
H23 O5 1_555 1_555
H25 O6 1_555 1_555
H27 O7 1_555 1_555
Ag1A Ag1 1_555 1_555
O3A Ag1 1_555 1_555
N3_2 Ag1 1_555 1_555
Ag1_2 N3 1_555 1_555
C4 C9 1_555 1_555
C7 C8 1_555 1_555
C8 C9 1_555 1_555
O3 Ag1A 1_555 1_555
C15 C16 1_555 1_555

#END
