
#######################################################################
#
#                 Cambridge Crystallographic Data Centre
#                                CCDC 
#
#######################################################################
#
# If this CIF has been generated from an entry in the Cambridge 
# Structural Database, then it will include bibliographic, chemical, 
# crystal, experimental, refinement or atomic coordinate data resulting 
# from the CCDC's data processing and validation procedures.
#
#######################################################################

data_DUYRIZ
_symmetry_cell_setting           orthorhombic
_symmetry_space_group_name_H-M   'P b c a'
_symmetry_Int_Tables_number      61
_space_group_name_Hall           '-P 2ac 2ab'
loop_
_symmetry_equiv_pos_site_id
_symmetry_equiv_pos_as_xyz
1 x,y,z
2 1/2-x,-y,1/2+z
3 1/2+x,1/2-y,-z
4 -x,1/2+y,1/2-z
5 -x,-y,-z
6 1/2+x,y,1/2-z
7 1/2-x,1/2+y,z
8 x,1/2-y,1/2+z
_cell_length_a                   23.472(5)
_cell_length_b                   20.489(5)
_cell_length_c                   29.669(5)
_cell_angle_alpha                90
_cell_angle_beta                 90
_cell_angle_gamma                90
_cell_volume                     14268.4
loop_
_atom_site_label
_atom_site_type_symbol
_atom_site_fract_x
_atom_site_fract_y
_atom_site_fract_z
O63 O 0.6367(6) 0.4949(7) 0.1543(4)
H10 H 0.6530 0.4827 0.1805
H11 H 0.6448 0.4732 0.1287
O64 O 0.4118(9) 0.0738(11) 0.0340(6)
H12 H 0.3774 0.0544 0.0347
H13 H 0.4399 0.0568 0.0169
O65 O 0.6988(6) 0.9944(7) 0.1580(4)
H14 H 0.6895 1.0251 0.1783
H15 H 0.7237 1.0037 0.1358
O66 O 0.3522(8) 0.9032(10) 0.8829(6)
H16 H 0.3748 0.8720 0.8946
H17 H 0.3329 0.9303 0.9013
O67 O 0.2611(7) 0.2772(7) 0.2154(5)
H18 H 0.2938 0.2542 0.2140
H19 H 0.2280 0.2566 0.2209
O68 O 0.1604(7) 0.4882(8) 0.9803(6)
H20 H 0.1812 0.4531 0.9883
H21 H 0.1359 0.5060 1.0002
O69 O 0.2818(7) 0.0673(8) 0.2971(5)
H22 H 0.2778 0.0545 0.3259
H23 H 0.2864 0.0374 0.2751
O70 O 0.4934(9) 0.5529(10) 0.9681(6)
H24 H 0.5174 0.5190 0.9716
H25 H 0.4770 0.5715 0.9923
O71 O 0.6500(9) 0.5524(10) 0.9860(6)
H26 H 0.6743 0.5185 0.9874
H27 H 0.6378 0.5717 1.0114
O72 O 0.3279(6) 0.8679(7) 0.2748(5)
H28 H 0.3308 0.8812 0.3036
H29 H 0.3127 0.8945 0.2539
W1 W 0.59756(3) 1.37033(4) 0.36784(2)
W2 W 0.47692(3) 1.43436(4) 0.40019(2)
W3 W 0.98993(3) 1.59706(4) 0.37013(2)
W4 W 0.63991(3) 1.68064(4) 0.57469(2)
W5 W 0.62921(3) 1.83846(4) 0.59207(2)
W6 W 0.55446(3) 1.34906(4) 0.47119(2)
W7 W 0.90114(3) 1.34948(4) 0.19307(2)
W8 W 0.42084(3) 1.19193(4) 0.29131(2)
W9 W 0.92298(3) 1.67298(4) 0.45122(2)
W10 W 0.52444(3) 1.29262(4) 0.27380(2)
W11 W 0.56219(3) 1.76967(4) 0.50656(2)
W12 W 0.61801(3) 1.19347(4) 0.34713(2)
Ce1 Ce 0.97051(4) 1.40724(5) 0.31604(3)
Ce2 Ce 0.80611(4) 1.62126(5) 0.55097(3)
Ce3 Ce 0.73010(5) 1.50514(5) 0.35397(4)
N1 N 0.9848(7) 1.2950(8) 0.3554(5)
N2 N 0.9498(6) 1.5051(7) 0.2604(4)
N3 N 0.7679(7) 1.7064(8) 0.4925(5)
C1 C 1.0699(8) 1.3423(10) 0.3830(6)
C2 C 0.8975(7) 1.5354(9) 0.2591(5)
C3 C 1.0303(8) 1.2843(9) 0.3790(6)
C4 C 0.7406(10) 1.8192(12) 0.4723(7)
H1 H 0.7390 1.8633 0.4795
C5 C 0.7193(10) 1.7940(13) 0.4302(8)
H2 H 0.7034 1.8222 0.4091
C6 C 0.9441(8) 1.2471(10) 0.3526(6)
C7 C 0.9522(9) 1.1848(10) 0.3716(6)
H3 H 0.9248 1.1523 0.3687
C8 C 0.7644(9) 1.7711(10) 0.5024(7)
C9 C 1.0409(8) 1.2252(10) 0.4004(6)
H4 H 1.0732 1.2202 0.4183
C10 C 0.8579(8) 1.5061(9) 0.2917(6)
C11 C 0.8924(9) 1.2702(10) 0.3294(6)
C12 C 0.9886(8) 1.5314(10) 0.2337(6)
C13 C 0.8858(9) 1.5875(10) 0.2322(6)
H5 H 0.8498 1.6063 0.2321
C14 C 0.9797(9) 1.5829(10) 0.2063(6)
H6 H 1.0087 1.5991 0.1880
C15 C 0.7516(9) 1.6136(10) 0.4464(6)
C16 C 0.7460(9) 1.6852(9) 0.4534(6)
C17 C 1.0445(8) 1.4980(9) 0.2415(6)
C18 C 0.7883(8) 1.7879(10) 0.5478(8)
C19 C 1.0031(9) 1.1734(11) 0.3950(6)
H7 H 1.0114 1.1323 0.4066
C20 C 0.9266(10) 1.6106(11) 0.2063(7)
H8 H 0.9192 1.6463 0.1877
C21 C 0.7225(9) 1.7286(10) 0.4210(7)
H9 H 0.7092 1.7127 0.3936
O1 O 0.6100(5) 1.8385(6) 0.5288(4)
O2 O 0.5711(5) 1.7525(6) 0.5806(4)
O3 O 1.0582(5) 1.6108(6) 0.3984(4)
O4 O 0.8759(5) 1.4595(6) 0.3164(4)
O5 O 0.5576(5) 1.3559(6) 0.3116(4)
O6 O 0.8614(5) 1.6723(6) 0.4074(4)
O7 O 0.9606(5) 1.3574(6) 0.2377(4)
O8 O 0.5216(5) 1.3381(6) 0.4001(4)
O9 O 1.0544(5) 1.3145(6) 0.2761(4)
O10 O 0.6387(5) 1.6723(6) 0.6380(4)
O11 O 0.7361(6) 1.5954(7) 0.4068(4)
O12 O 0.8517(5) 1.4026(6) 0.2156(4)
O13 O 0.8074(6) 1.5278(7) 0.2965(4)
O14 O 0.6773(5) 1.7663(6) 0.5832(4)
O15 O 0.5749(5) 1.2308(6) 0.2970(4)
O16 O 0.9486(5) 1.5881(6) 0.4242(4)
O17 O 0.6304(5) 1.5477(6) 0.3762(4)
O18 O 0.4753(5) 1.2243(6) 0.2494(4)
O19 O 0.4133(5) 1.3849(6) 0.4284(4)
O20 O 0.6238(5) 1.8197(6) 0.6542(4)
O21 O 0.8732(5) 1.2701(6) 0.2198(4)
O22 O 0.5476(5) 1.4505(6) 0.3734(4)
O23 O 0.7114(6) 1.6083(7) 0.3071(4)
O24 O 0.8887(6) 1.3254(7) 0.3155(4)
O25 O 0.6220(5) 1.7086(6) 0.5137(4)
O26 O 0.8829(5) 1.6407(6) 0.4953(4)
O27 O 0.4902(5) 1.3028(6) 0.4924(4)
O28 O 0.9933(5) 1.5162(6) 0.3548(4)
O29 O 0.5863(5) 1.2609(6) 0.4621(4)
O30 O 0.6247(5) 1.2861(6) 0.3643(4)
O31 O 0.9955(5) 1.6785(6) 0.4795(4)
O32 O 0.5675(5) 1.7878(6) 0.4505(4)
O33 O 0.5875(5) 1.3706(6) 0.5211(4)
O34 O 1.0258(5) 1.6353(6) 0.3174(4)
O35 O 0.4511(6) 1.5134(6) 0.4060(4)
O36 O 0.6822(5) 1.1824(6) 0.3202(4)
O37 O 0.7014(5) 1.6398(6) 0.5627(4)
O38 O 0.6559(5) 1.4158(6) 0.3502(4)
O39 O 1.1127(6) 1.3347(7) 0.4072(4)
O40 O 0.8044(6) 1.7456(7) 0.5726(5)
O41 O 0.9308(5) 1.4085(6) 0.3988(4)
O42 O 0.6898(6) 1.4818(7) 0.2735(5)
O43 O 1.0560(5) 1.3923(6) 0.3627(4)
O44 O 0.3829(5) 1.1417(6) 0.2563(4)
O45 O 0.9166(5) 1.6133(6) 0.3379(4)
O46 O 0.4427(5) 1.4081(6) 0.3450(4)
O47 O 0.9640(5) 1.6964(6) 0.3873(4)
O48 O 0.5122(5) 1.4258(6) 0.4599(4)
O49 O 1.0538(5) 1.4579(6) 0.2716(4)
O50 O 0.6774(5) 1.9009(6) 0.5921(4)
O51 O 0.9650(5) 1.2758(6) 0.1741(4)
O52 O 0.6156(5) 1.3789(6) 0.4314(4)
O53 O 0.7149(6) 1.4561(7) 0.4326(4)
O54 O 0.8269(6) 1.5049(7) 0.3969(5)
O55 O 0.7762(6) 1.3958(7) 0.3358(4)
O56 O 0.7815(7) 1.6151(8) 0.6351(5)
O57 O 0.7574(6) 1.5109(7) 0.5644(5)
O58 O 0.8794(6) 1.5295(7) 0.5575(5)
O59 O 0.8515(6) 1.2277(7) 0.3249(4)
O60 O 1.0858(6) 1.5182(7) 0.2136(4)
O61 O 0.7895(6) 1.8527(7) 0.5550(5)
O62 O 0.7688(6) 1.5802(7) 0.4777(4)
Ce2D Ce 1.19389(4) 1.37874(5) 0.44903(3)
N3D N 1.2321(7) 1.2936(8) 0.5075(5)
C8D C 1.2356(9) 1.2289(10) 0.4976(7)
C4D C 1.2594(10) 1.1808(12) 0.5277(7)
H1D H 1.2610 1.1367 0.5205
C5D C 1.2807(10) 1.2060(13) 0.5698(8)
H2D H 1.2966 1.1778 0.5909
C21D C 1.2775(9) 1.2714(10) 0.5790(7)
C16D C 1.2540(9) 1.3148(9) 0.5466(6)
C15D C 1.2484(9) 1.3864(10) 0.5536(6)
O11D O 1.2639(6) 1.4046(7) 0.5932(4)
Ce3D Ce 1.26990(5) 1.49486(5) 0.64603(4)
O13D O 1.1926(6) 1.4722(7) 0.7035(4)
C10D C 1.1421(8) 1.4939(9) 0.7083(6)
C2D C 1.1025(7) 1.4646(9) 0.7409(5)
N2D N 1.0502(6) 1.4949(7) 0.7396(4)
Ce1D Ce 1.02949(4) 1.59276(5) 0.68396(3)
N1D N 1.0152(7) 1.7050(8) 0.6446(5)
C3D C 0.9697(8) 1.7157(9) 0.6210(6)
C1D C 0.9301(8) 1.6577(10) 0.6170(6)
O39D O 0.8873(6) 1.6653(7) 0.5928(4)
O43D O 0.9440(5) 1.6077(6) 0.6373(4)
O4D O 1.1241(5) 1.5405(6) 0.6836(4)
O7D O 1.0394(5) 1.6426(6) 0.7623(4)
O9D O 0.9456(5) 1.6855(6) 0.7239(4)
O24D O 1.1113(6) 1.6746(7) 0.6845(4)
C11D C 1.1076(9) 1.7298(10) 0.6706(6)
C6D C 1.0559(8) 1.7529(10) 0.6474(6)
C7D C 1.0478(9) 1.8152(10) 0.6284(6)
H3D H 1.0752 1.8477 0.6313
C19D C 0.9969(9) 1.8266(11) 0.6050(6)
C9D C 0.9591(8) 1.7748(10) 0.5996(6)
H4D H 0.9268 1.7798 0.5817
H7D H 0.9886 1.8677 0.5934
O59D O 1.1485(6) 1.7723(7) 0.6751(4)
O28D O 1.0067(5) 1.4838(6) 0.6452(4)
O41D O 1.0692(5) 1.5915(6) 0.6012(4)
O49D O 0.9462(5) 1.5421(6) 0.7284(4)
C17D C 0.9555(8) 1.5020(9) 0.7585(6)
C12D C 1.0114(8) 1.4686(10) 0.7663(6)
C14D C 1.0203(9) 1.4171(10) 0.7937(6)
H6D H 0.9913 1.4009 0.8120
C20D C 1.0734(10) 1.3894(11) 0.7937(7)
C13D C 1.1142(9) 1.4125(10) 0.7678(6)
H5D H 1.1502 1.3937 0.7679
H8D H 1.0808 1.3537 0.8123
O60D O 0.9142(6) 1.4818(7) 0.7864(4)
O17D O 1.3696(5) 1.4523(6) 0.6238(4)
O23D O 1.2886(6) 1.3917(7) 0.6929(4)
O38D O 1.3441(5) 1.5842(6) 0.6498(4)
O42D O 1.3102(6) 1.5182(7) 0.7265(5)
O53D O 1.2851(6) 1.5439(7) 0.5674(4)
O54D O 1.1731(6) 1.4951(7) 0.6031(5)
O55D O 1.2238(6) 1.6042(7) 0.6642(4)
O62D O 1.2312(6) 1.4198(7) 0.5223(4)
O26D O 1.1171(5) 1.3593(6) 0.5047(4)
O37D O 1.2986(5) 1.3602(6) 0.4373(4)
O40D O 1.1956(6) 1.2544(7) 0.4274(5)
C18D C 1.2117(8) 1.2121(10) 0.4522(8)
O61D O 1.2105(6) 1.1473(7) 0.4450(5)
O56D O 1.2185(7) 1.3849(8) 0.3649(5)
O57D O 1.2426(6) 1.4891(7) 0.4356(5)
O58D O 1.1206(6) 1.4705(7) 0.4425(5)
H9D H 1.2908 1.2873 0.6064
W1D W 1.40244(3) 1.62967(4) 0.63216(2)
W3D W 1.01007(3) 1.40294(4) 0.62987(2)
W4D W 1.36009(3) 1.31936(4) 0.42531(2)
W7D W 1.09886(3) 1.65052(4) 0.80693(2)
W9D W 1.07702(3) 1.32702(4) 0.54878(2)
W10E W 1.02444(3) 1.29262(4) 0.22620(2)
O19D O 0.5867(5) 1.6151(6) 0.5716(4)
O10A O 0.8613(5) 1.3277(6) 0.1380(4)
O46E O 0.9427(5) 1.4081(6) 0.1550(4)
O29F O 0.9137(5) 1.7609(6) 0.4621(4)
O51E O 0.4650(5) 1.2758(6) 0.3259(4)
O6F O 0.6386(5) 1.1723(6) 0.4074(4)
O45F O 0.5834(5) 1.1133(6) 0.3379(4)
O47F O 0.5360(5) 1.1964(6) 0.3873(4)
O5D O 1.4424(5) 1.6441(6) 0.6884(4)
O8D O 1.4784(5) 1.6619(6) 0.5999(4)
O22D O 1.4524(5) 1.5495(6) 0.6266(4)
O30D O 1.3753(5) 1.7139(6) 0.6357(4)
O52D O 1.3844(5) 1.6211(6) 0.5686(4)
O3D O 0.9418(5) 1.3892(6) 0.6016(4)
O16D O 1.0514(5) 1.4119(6) 0.5758(4)
O34D O 0.9742(5) 1.3647(6) 0.6826(4)
O2D O 1.4289(5) 1.2475(6) 0.4194(4)
O14D O 1.3227(5) 1.2337(6) 0.4168(4)
O25D O 1.3780(5) 1.2914(6) 0.4863(4)
O12D O 1.1483(5) 1.5974(6) 0.7844(4)
O21D O 1.1268(5) 1.7299(6) 0.7802(4)
O31D O 1.0045(5) 1.3215(6) 0.5205(4)
O15E O 1.0749(5) 1.2308(6) 0.2030(4)
O18E O 0.9753(5) 1.2243(6) 0.2506(4)
W2D W 1.52308(3) 1.56564(4) 0.59981(2)
W5D W 1.37079(3) 1.16154(4) 0.40793(2)
W6D W 1.44554(3) 1.65094(4) 0.52881(2)
W8E W 0.92084(3) 1.19193(4) 0.20869(2)
W11D W 1.43781(3) 1.23033(4) 0.49344(2)
W12D W 1.38199(3) 1.80653(4) 0.65287(2)
O20D O 0.3762(5) 1.1803(6) 0.3458(4)
O27D O 0.5098(5) 1.6972(6) 0.5076(4)
O35D O 1.5489(6) 1.4866(6) 0.5940(4)
O48D O 1.4878(5) 1.5742(6) 0.5401(4)
O1D O 1.3900(5) 1.1615(6) 0.4712(4)
O50D O 1.3226(5) 1.0991(6) 0.4079(4)
O33D O 1.4125(5) 1.6294(6) 0.4789(4)
O44E O 0.8829(5) 1.1417(6) 0.2437(4)
O32D O 1.4325(5) 1.2122(6) 0.5495(4)
O36D O 1.3178(5) 1.8176(6) 0.6798(4)
O3B O 0.5582(5) 1.8892(6) 0.6016(4)
O21E O 0.3732(5) 1.2701(6) 0.2802(4)
O34F O 0.4742(5) 1.1353(6) 0.3174(4)
O7E O 0.4606(5) 1.3574(6) 0.2623(4)
O9E O 0.5544(5) 1.3145(6) 0.2239(4)
O31B O 0.4955(5) 1.8215(6) 0.5205(4)
W5B W 1.12921(3) 1.66154(4) 0.40793(2)
W12F W 0.88199(3) 1.69347(4) 0.34713(2)
W7A W 0.59886(3) 1.65052(4) 0.69307(2)
W4D_2 W 0.36009(3) 1.31936(4) 0.42531(2)
W8D W 0.57916(3) 1.80807(4) 0.70869(2)
W11D_2 W 0.43781(3) 1.23033(4) 0.49344(2)
W9F W 0.57702(3) 1.17298(4) 0.45122(2)
W11B W 1.06219(3) 1.73033(4) 0.49344(2)
W8F W 1.07916(3) 1.69193(4) 0.29131(2)
W7E W 0.40114(3) 1.34948(4) 0.30693(2)
W10A W 0.97556(3) 1.70738(4) 0.77380(2)
O45D O 1.0834(5) 1.3867(6) 0.6621(4)
O47D O 1.0360(5) 1.3036(6) 0.6127(4)
O10D O 1.3613(5) 1.3277(6) 0.3620(4)
O19_2 O 1.4133(5) 1.3849(6) 0.4284(4)
O51D O 1.0350(5) 1.7242(6) 0.8259(4)
O10E O 1.1387(5) 1.6723(6) 0.8620(4)
O46A O 1.0573(5) 1.5919(6) 0.8450(4)
O6D O 1.1386(5) 1.3277(6) 0.5926(4)
O29B O 1.0863(5) 1.2391(6) 0.5379(4)
O5E O 1.0576(5) 1.3559(6) 0.1884(4)
W2D_2 W 0.52308(3) 1.56564(4) 0.59981(2)
W4A W 0.86009(3) 1.31936(4) 0.07469(2)
W2E W 0.97692(3) 1.43436(4) 0.09981(2)
W6F W 0.94554(3) 1.84906(4) 0.47119(2)
W3F W 0.51007(3) 1.09706(4) 0.37013(2)
W10D W 1.47556(3) 1.70738(4) 0.72620(2)
W5F W 0.87079(3) 1.33846(4) 0.59207(2)
W8B W 0.92084(3) 1.30807(4) 0.70869(2)
W8A W 1.07916(3) 1.80807(4) 0.79131(2)
W11F W 0.93781(3) 1.26967(4) 0.50656(2)
W12E W 1.11801(3) 1.19347(4) 0.15287(2)
O19D_2 O 1.5867(5) 1.6151(6) 0.5716(4)
O46D O 1.5573(5) 1.5919(6) 0.6550(4)
O20D_2 O 1.3762(5) 1.1803(6) 0.3458(4)
O3F O 1.4418(5) 1.1108(6) 0.3984(4)
O27D_2 O 1.5098(5) 1.6972(6) 0.5076(4)
O29D O 1.4137(5) 1.7391(6) 0.5379(4)
O20A O 0.8762(5) 1.1803(6) 0.1542(4)
O34C O 0.9742(5) 1.1353(6) 0.1826(4)
O27_2 O 1.4902(5) 1.3028(6) 0.4924(4)
O31F O 1.5045(5) 1.1785(6) 0.4795(4)
O6B O 1.3614(5) 1.8277(6) 0.5926(4)
O45B O 1.4166(5) 1.8867(6) 0.6621(4)
O47B O 1.4640(5) 1.8036(6) 0.6127(4)
O15D O 1.4251(5) 1.7692(6) 0.7030(4)
W5D_2 W 0.37079(3) 1.16154(4) 0.40793(2)
W6D_2 W 0.44554(3) 1.65094(4) 0.52881(2)
W3B W 0.48993(3) 1.90294(4) 0.62987(2)
Ce1E Ce 0.47051(4) 1.40724(5) 0.18396(3)
W9B W 0.42298(3) 1.82702(4) 0.54878(2)
O1B O 1.1100(5) 1.6615(6) 0.4712(4)
O2B O 1.0711(5) 1.7475(6) 0.4194(4)
O14B O 1.1773(5) 1.7337(6) 0.4168(4)
O20B O 1.1238(5) 1.6803(6) 0.3458(4)
O50B O 1.1774(5) 1.5991(6) 0.4079(4)
O15F O 0.9251(5) 1.7308(6) 0.2970(4)
O30F O 0.8753(5) 1.7861(6) 0.3643(4)
O36F O 0.8178(5) 1.6824(6) 0.3202(4)
O7A O 0.5394(5) 1.6426(6) 0.7377(4)
O12A O 0.6483(5) 1.5974(6) 0.7156(4)
O21A O 0.6268(5) 1.7299(6) 0.7198(4)
O46D_2 O 0.5573(5) 1.5919(6) 0.6550(4)
O51A O 0.5350(5) 1.7242(6) 0.6741(4)
O2D_2 O 0.4289(5) 1.2475(6) 0.4194(4)
O10D_2 O 0.3613(5) 1.3277(6) 0.3620(4)
O14D_2 O 0.3227(5) 1.2337(6) 0.4168(4)
O25D_2 O 0.3780(5) 1.2914(6) 0.4863(4)
O37D_2 O 0.2986(5) 1.3602(6) 0.4373(4)
O18D O 0.5247(5) 1.7757(6) 0.7506(4)
O34B O 0.5258(5) 1.8647(6) 0.6826(4)
O44D O 0.6171(5) 1.8583(6) 0.7437(4)
O1D_2 O 0.3900(5) 1.1615(6) 0.4712(4)
O31F_2 O 0.5045(5) 1.1785(6) 0.4795(4)
O32D_2 O 0.4325(5) 1.2122(6) 0.5495(4)
O16F O 0.5514(5) 1.0881(6) 0.4242(4)
O26F O 0.6171(5) 1.1407(6) 0.4953(4)
O25B O 1.1220(5) 1.7914(6) 0.4863(4)
O27F O 1.0098(5) 1.8028(6) 0.4924(4)
O32B O 1.0675(5) 1.7122(6) 0.5495(4)
O18F O 1.0247(5) 1.7243(6) 0.2494(4)
O21C O 1.1268(5) 1.7701(6) 0.2802(4)
O44F O 1.1171(5) 1.6417(6) 0.2563(4)
O51C O 1.0350(5) 1.7758(6) 0.3259(4)
O12E O 0.3517(5) 1.4026(6) 0.2844(4)
O5A O 0.9424(5) 1.6441(6) 0.8116(4)
O15A O 0.9251(5) 1.7692(6) 0.7970(4)
O18A O 1.0247(5) 1.7757(6) 0.7494(4)
W12B W 1.11801(3) 1.30653(4) 0.65287(2)
W7E_2 W 1.40114(3) 1.34948(4) 0.30693(2)
W2_2 W 1.47692(3) 1.43436(4) 0.40019(2)
W4E W 1.13991(3) 1.68064(4) 0.92531(2)
W2A W 1.02308(3) 1.56564(4) 0.90019(2)
W6B W 1.05446(3) 1.15094(4) 0.52881(2)
W1E W 1.09756(3) 1.37033(4) 0.13216(2)
O8D_2 O 0.4784(5) 1.6619(6) 0.5999(4)
O22D_2 O 0.4524(5) 1.5495(6) 0.6266(4)
O35D_2 O 0.5489(6) 1.4866(6) 0.5940(4)
O48D_2 O 0.4878(5) 1.5742(6) 0.5401(4)
O2A O 0.9289(5) 1.2475(6) 0.0806(4)
O14A O 0.8227(5) 1.2337(6) 0.0832(4)
O19E O 0.9133(5) 1.3849(6) 0.0716(4)
O25A O 0.8780(5) 1.2914(6) 0.0137(4)
O37A O 0.7986(5) 1.3602(6) 0.0627(4)
O8E O 1.0216(5) 1.3381(6) 0.0999(4)
O22E O 1.0476(5) 1.4505(6) 0.1266(4)
O35E O 0.9511(6) 1.5134(6) 0.0940(4)
O48E O 1.0122(5) 1.4258(6) 0.0401(4)
O8F O 0.9784(5) 1.8381(6) 0.4001(4)
O33F O 0.9125(5) 1.8706(6) 0.5211(4)
O48F O 0.9878(5) 1.9258(6) 0.4599(4)
O52F O 0.8844(5) 1.8789(6) 0.4314(4)
O3F_2 O 0.4418(5) 1.1108(6) 0.3984(4)
O28F O 0.5067(5) 1.0162(6) 0.3548(4)
O7A_2 O 1.5394(5) 1.6426(6) 0.7377(4)
O9A O 1.4456(5) 1.6855(6) 0.7761(4)
O18D_2 O 1.5247(5) 1.7757(6) 0.7506(4)
O51A_2 O 1.5350(5) 1.7242(6) 0.6741(4)
O1F O 0.8900(5) 1.3385(6) 0.5288(4)
O2F O 0.9289(5) 1.2525(6) 0.5806(4)
O14F O 0.8227(5) 1.2663(6) 0.5832(4)
O20F O 0.8762(5) 1.3197(6) 0.6542(4)
O50F O 0.8226(5) 1.4009(6) 0.5921(4)
O18B O 0.9753(5) 1.2757(6) 0.7506(4)
O21G O 0.8732(5) 1.2299(6) 0.7198(4)
O44B O 0.8829(5) 1.3583(6) 0.7437(4)
O51G O 0.9650(5) 1.2242(6) 0.6741(4)
O20E O 1.1238(5) 1.8197(6) 0.8458(4)
O34G O 1.0258(5) 1.8647(6) 0.8174(4)
O44A O 1.1171(5) 1.8583(6) 0.7563(4)
O25F O 0.8780(5) 1.2086(6) 0.5137(4)
O27B O 0.9902(5) 1.1972(6) 0.5076(4)
O32F O 0.9325(5) 1.2878(6) 0.4505(4)
O6C O 1.1386(5) 1.1723(6) 0.0926(4)
O30E O 1.1247(5) 1.2861(6) 0.1357(4)
O36E O 1.1822(5) 1.1824(6) 0.1798(4)
O45C O 1.0834(5) 1.1133(6) 0.1621(4)
O47C O 1.0360(5) 1.1964(6) 0.1127(4)
W4_2 W 1.63991(3) 1.68064(4) 0.57469(2)
W7A_2 W 1.59886(3) 1.65052(4) 0.69307(2)
W8_2 W 1.42084(3) 1.19193(4) 0.29131(2)
W3F_2 W 1.51007(3) 1.09706(4) 0.37013(2)
W11_2 W 1.56219(3) 1.76967(4) 0.50656(2)
W9B_2 W 1.42298(3) 1.82702(4) 0.54878(2)
W5A W 0.87079(3) 1.16154(4) 0.09207(2)
W3C W 1.01007(3) 1.09706(4) 0.12987(2)
W6_2 W 1.55446(3) 1.34906(4) 0.47119(2)
W9F_2 W 1.57702(3) 1.17298(4) 0.45122(2)
W3B_2 W 1.48993(3) 1.90294(4) 0.62987(2)
O50D_2 O 0.3226(5) 1.0991(6) 0.4079(4)
O29D_2 O 0.4137(5) 1.7391(6) 0.5379(4)
O33D_2 O 0.4125(5) 1.6294(6) 0.4789(4)
O52D_2 O 0.3844(5) 1.6211(6) 0.5686(4)
O16B O 0.4486(5) 1.9119(6) 0.5758(4)
O28B O 0.4933(5) 1.9838(6) 0.6452(4)
O45B_2 O 0.4166(5) 1.8867(6) 0.6621(4)
O47B_2 O 0.4640(5) 1.8036(6) 0.6127(4)
N1E N 0.4848(7) 1.2950(8) 0.1446(5)
N2E N 0.4498(6) 1.5051(7) 0.2396(4)
O4E O 0.3759(5) 1.4595(6) 0.1836(4)
O24E O 0.3887(6) 1.3254(7) 0.1845(4)
O28E O 0.4933(5) 1.5162(6) 0.1452(4)
O41E O 0.4308(5) 1.4085(6) 0.1012(4)
O43E O 0.5560(5) 1.3923(6) 0.1373(4)
O49E O 0.5538(5) 1.4579(6) 0.2284(4)
O6B_2 O 0.3614(5) 1.8277(6) 0.5926(4)
O26B O 0.3829(5) 1.8593(6) 0.5047(4)
W4B W 1.13991(3) 1.81936(4) 0.42531(2)
W10F W 0.97556(3) 1.79262(4) 0.27380(2)
W1F W 0.90244(3) 1.87033(4) 0.36784(2)
W10D_2 W 0.47556(3) 1.70738(4) 0.72620(2)
Ce1A Ce 0.52949(4) 1.59276(5) 0.81604(3)
Ce2D_2 Ce 0.19389(4) 1.37874(5) 0.44903(3)
Ce2F Ce 0.69389(4) 1.12126(5) 0.55097(3)
W7C W 1.09886(3) 1.84948(4) 0.30693(2)
W1A W 0.90244(3) 1.62967(4) 0.86784(2)
W12A W 0.88199(3) 1.80653(4) 0.84713(2)
O15B O 1.0749(5) 1.2692(6) 0.7030(4)
O30B O 1.1247(5) 1.2139(6) 0.6357(4)
O36B O 1.1822(5) 1.3176(6) 0.6798(4)
O7E_2 O 1.4606(5) 1.3574(6) 0.2623(4)
O12E_2 O 1.3517(5) 1.4026(6) 0.2844(4)
O21E_2 O 1.3732(5) 1.2701(6) 0.2802(4)
O46_2 O 1.4427(5) 1.4081(6) 0.3450(4)
O51E_2 O 1.4650(5) 1.2758(6) 0.3259(4)
O8_2 O 1.5216(5) 1.3381(6) 0.4001(4)
O22_2 O 1.5476(5) 1.4505(6) 0.3734(4)
O35_2 O 1.4511(6) 1.5134(6) 0.4060(4)
O48_2 O 1.5122(5) 1.4258(6) 0.4599(4)
O2E O 1.0711(5) 1.7525(6) 0.9194(4)
O14E O 1.1773(5) 1.7663(6) 0.9168(4)
O19A O 1.0867(5) 1.6151(6) 0.9284(4)
O25E O 1.1220(5) 1.7086(6) 0.9863(4)
O37E O 1.2014(5) 1.6398(6) 0.9373(4)
O8A O 0.9784(5) 1.6619(6) 0.9001(4)
O22A O 0.9524(5) 1.5495(6) 0.8734(4)
O35A O 1.0489(6) 1.4866(6) 0.9060(4)
O48A O 0.9878(5) 1.5742(6) 0.9599(4)
O8B O 1.0216(5) 1.1619(6) 0.5999(4)
O33B O 1.0875(5) 1.1294(6) 0.4789(4)
O48B O 1.0122(5) 1.0742(6) 0.5401(4)
O52B O 1.1156(5) 1.1211(6) 0.5686(4)
O38E O 1.1559(5) 1.4158(6) 0.1498(4)
O52E O 1.1156(5) 1.3789(6) 0.0686(4)
W1D_2 W 0.40244(3) 1.62967(4) 0.63216(2)
W11A W 0.93781(3) 1.23033(4) 0.00656(2)
Ce2A Ce 0.69389(4) 1.37874(5) 0.05097(3)
W6E W 1.05446(3) 1.34906(4) 0.02881(2)
W2F W 1.02308(3) 1.93436(4) 0.40019(2)
Ce1F Ce 0.52949(4) 0.90724(5) 0.31604(3)
Ce1A_2 Ce 1.52949(4) 1.59276(5) 0.81604(3)
W8D_2 W 1.57916(3) 1.80807(4) 0.70869(2)
W4F W 0.86009(3) 1.18064(4) 0.57469(2)
W10B W 1.02444(3) 1.20738(4) 0.72620(2)
W7G W 0.90114(3) 1.15052(4) 0.69307(2)
W5E W 1.12921(3) 1.83846(4) 0.90793(2)
W3G W 0.98993(3) 1.90294(4) 0.87013(2)
W9C W 1.07702(3) 1.17298(4) 0.04878(2)
O2_2 O 1.5711(5) 1.7525(6) 0.5806(4)
O10_2 O 1.6387(5) 1.6723(6) 0.6380(4)
O14_2 O 1.6773(5) 1.7663(6) 0.5832(4)
O25_2 O 1.6220(5) 1.7086(6) 0.5137(4)
O37_2 O 1.7014(5) 1.6398(6) 0.5627(4)
O12A_2 O 1.6483(5) 1.5974(6) 0.7156(4)
O21A_2 O 1.6268(5) 1.7299(6) 0.7198(4)
O18_2 O 1.4753(5) 1.2243(6) 0.2494(4)
O34F_2 O 1.4742(5) 1.1353(6) 0.3174(4)
O44_2 O 1.3829(5) 1.1417(6) 0.2563(4)
O16F_2 O 1.5514(5) 1.0881(6) 0.4242(4)
O28F_2 O 1.5067(5) 1.0162(6) 0.3548(4)
O45F_2 O 1.5834(5) 1.1133(6) 0.3379(4)
O47F_2 O 1.5360(5) 1.1964(6) 0.3873(4)
O1_2 O 1.6100(5) 1.8385(6) 0.5288(4)
O31B_2 O 1.4955(5) 1.8215(6) 0.5205(4)
O32_2 O 1.5675(5) 1.7878(6) 0.4505(4)
O16B_2 O 1.4486(5) 1.9119(6) 0.5758(4)
O26B_2 O 1.3829(5) 1.8593(6) 0.5047(4)
O1A O 0.8900(5) 1.1615(6) 0.0288(4)
O3C O 0.9418(5) 1.1108(6) 0.1016(4)
O50A O 0.8226(5) 1.0991(6) 0.0921(4)
O16C O 1.0514(5) 1.0881(6) 0.0758(4)
O28C O 1.0067(5) 1.0162(6) 0.1452(4)
O29_2 O 1.5863(5) 1.2609(6) 0.4621(4)
O33_2 O 1.5875(5) 1.3706(6) 0.5211(4)
O52_2 O 1.6156(5) 1.3789(6) 0.4314(4)
O6F_2 O 1.6386(5) 1.1723(6) 0.4074(4)
O26F_2 O 1.6171(5) 1.1407(6) 0.4953(4)
O3B_2 O 1.5582(5) 1.8892(6) 0.6016(4)
O28B_2 O 1.4933(5) 1.9838(6) 0.6452(4)
O34B_2 O 1.5258(5) 1.8647(6) 0.6826(4)
Ce1B Ce 0.47051(4) 2.09276(5) 0.68396(3)
W12D_2 W 0.38199(3) 1.80653(4) 0.65287(2)
C3E C 0.5303(8) 1.2843(9) 0.1210(6)
C6E C 0.4441(8) 1.2471(10) 0.1474(6)
C2E C 0.3975(7) 1.5354(9) 0.2409(5)
C12E C 0.4886(8) 1.5314(10) 0.2663(6)
C10E C 0.3579(8) 1.5061(9) 0.2083(6)
C11E C 0.3924(9) 1.2702(10) 0.1706(6)
W3E W 0.48993(3) 1.59706(4) 0.12987(2)
C1E C 0.5699(8) 1.3423(10) 0.1170(6)
C17E C 0.5445(8) 1.4980(9) 0.2585(6)
Ce2B Ce 0.30611(4) 1.87874(5) 0.44903(3)
O10B O 1.1387(5) 1.8277(6) 0.3620(4)
O19F O 1.0867(5) 1.8849(6) 0.4284(4)
O37B O 1.2014(5) 1.8602(6) 0.4373(4)
O5F O 0.9424(5) 1.8559(6) 0.3116(4)
O7C O 1.0394(5) 1.8574(6) 0.2623(4)
O9C O 0.9456(5) 1.8145(6) 0.2239(4)
O22F O 0.9524(5) 1.9505(6) 0.3734(4)
O38F O 0.8441(5) 1.9158(6) 0.3502(4)
O5D_2 O 0.4424(5) 1.6441(6) 0.6884(4)
O9A_2 O 0.4456(5) 1.6855(6) 0.7761(4)
O15D_2 O 0.4251(5) 1.7692(6) 0.7030(4)
N1A N 0.5152(7) 1.7050(8) 0.8554(5)
N2A N 0.5502(6) 1.4949(7) 0.7604(4)
O4A O 0.6241(5) 1.5405(6) 0.8164(4)
O24A O 0.6113(6) 1.6746(7) 0.8155(4)
O28A O 0.5067(5) 1.4838(6) 0.8548(4)
O41A O 0.5692(5) 1.5915(6) 0.8988(4)
O43A O 0.4440(5) 1.6077(6) 0.8627(4)
O49A O 0.4462(5) 1.5421(6) 0.7716(4)
N3D_2 N 0.2321(7) 1.2936(8) 0.5075(5)
O26D_2 O 0.1171(5) 1.3593(6) 0.5047(4)
O39_2 O 0.1127(6) 1.3347(7) 0.4072(4)
O40D_2 O 0.1956(6) 1.2544(7) 0.4274(5)
O56D_2 O 0.2185(7) 1.3849(8) 0.3649(5)
O57D_2 O 0.2426(6) 1.4891(7) 0.4356(5)
O58D_2 O 0.1206(6) 1.4705(7) 0.4425(5)
O62D_2 O 0.2312(6) 1.4198(7) 0.5223(4)
N3F N 0.7321(7) 1.2064(8) 0.4925(5)
O37F O 0.7986(5) 1.1398(6) 0.5627(4)
O39B O 0.6127(6) 1.1653(7) 0.5928(4)
O40F O 0.6956(6) 1.2456(7) 0.5726(5)
O56F O 0.7185(7) 1.1151(8) 0.6351(5)
O57F O 0.7426(6) 1.0109(7) 0.5644(5)
O58F O 0.6206(6) 1.0295(7) 0.5575(5)
O62F O 0.7312(6) 1.0802(7) 0.4777(4)
O12C O 1.1483(5) 1.9026(6) 0.2844(4)
O46F O 1.0573(5) 1.9081(6) 0.3450(4)
O30A O 0.8753(5) 1.7139(6) 0.8643(4)
O38A O 0.8441(5) 1.5842(6) 0.8502(4)
O52A O 0.8844(5) 1.6211(6) 0.9314(4)
O6G O 0.8614(5) 1.8277(6) 0.9074(4)
O36A O 0.8178(5) 1.8176(6) 0.8202(4)
O45G O 0.9166(5) 1.8867(6) 0.8379(4)
O47G O 0.9640(5) 1.8036(6) 0.8873(4)
W1B W 1.09756(3) 1.12967(4) 0.63216(2)
W10_2 W 1.52444(3) 1.29262(4) 0.27380(2)
Ce1E_2 Ce 1.47051(4) 1.40724(5) 0.18396(3)
W1_2 W 1.59756(3) 1.37033(4) 0.36784(2)
W11E W 1.06219(3) 1.76967(4) 0.99344(2)
Ce2E Ce 1.30611(4) 1.62126(5) 0.94903(3)
W6A W 0.94554(3) 1.65094(4) 0.97119(2)
W2B W 0.97692(3) 1.06564(4) 0.59981(2)
Ce3E Ce 1.23010(5) 1.50514(5) 0.14603(4)
O30D_2 O 0.3753(5) 1.7139(6) 0.6357(4)
O38D_2 O 0.3441(5) 1.5842(6) 0.6498(4)
O27E O 0.9902(5) 1.3028(6) 0.0076(4)
O31C O 1.0045(5) 1.1785(6) 0.0205(4)
O32A O 0.9325(5) 1.2122(6) -0.0495(4)
N3A N 0.7321(7) 1.2936(8) -0.0075(5)
O26A O 0.6171(5) 1.3593(6) -0.0047(4)
O39E O 0.6127(6) 1.3347(7) 0.0928(4)
O40A O 0.6956(6) 1.2544(7) 0.0726(5)
O56A O 0.7185(7) 1.3849(8) 0.1351(5)
O57A O 0.7426(6) 1.4891(7) 0.0644(5)
O58A O 0.6206(6) 1.4705(7) 0.0575(5)
O62A O 0.7312(6) 1.4198(7) -0.0223(4)
O29E O 1.0863(5) 1.2609(6) 0.0379(4)
O33E O 1.0875(5) 1.3706(6) -0.0211(4)
O35F O 1.0489(6) 2.0134(6) 0.4060(4)
N1F N 0.5152(7) 0.7950(8) 0.3554(5)
N2F N 0.5502(6) 1.0051(7) 0.2604(4)
O4F O 0.6241(5) 0.9595(6) 0.3164(4)
O7F O 0.5394(5) 0.8574(6) 0.2377(4)
O24F O 0.6113(6) 0.8254(7) 0.3155(4)
O41F O 0.5692(5) 0.9085(6) 0.3988(4)
O43F O 0.4440(5) 0.8923(6) 0.3627(4)
O49F O 0.4462(5) 0.9579(6) 0.2716(4)
N1A_2 N 1.5152(7) 1.7050(8) 0.8554(5)
N2A_2 N 1.5502(6) 1.4949(7) 0.7604(4)
O4A_2 O 1.6241(5) 1.5405(6) 0.8164(4)
O24A_2 O 1.6113(6) 1.6746(7) 0.8155(4)
O28A_2 O 1.5067(5) 1.4838(6) 0.8548(4)
O41A_2 O 1.5692(5) 1.5915(6) 0.8988(4)
O43A_2 O 1.4440(5) 1.6077(6) 0.8627(4)
O49A_2 O 1.4462(5) 1.5421(6) 0.7716(4)
O20_2 O 1.6238(5) 1.8197(6) 0.6542(4)
O44D_2 O 1.6171(5) 1.8583(6) 0.7437(4)
O10F O 0.8613(5) 1.1723(6) 0.6380(4)
O19B O 0.9133(5) 1.1151(6) 0.5716(4)
O5B O 1.0576(5) 1.1441(6) 0.6884(4)
O7G O 0.9606(5) 1.1426(6) 0.7377(4)
O9G O 1.0544(5) 1.1855(6) 0.7761(4)
O12G O 0.8517(5) 1.0974(6) 0.7156(4)
O46B O 0.9427(5) 1.0919(6) 0.6550(4)
O1E O 1.1100(5) 1.8385(6) 0.9712(4)
O3G O 1.0582(5) 1.8892(6) 0.8984(4)
O50E O 1.1774(5) 1.9009(6) 0.9079(4)
O16G O 0.9486(5) 1.9119(6) 0.9242(4)
O28G O 0.9933(5) 1.9838(6) 0.8548(4)
O26C O 1.1171(5) 1.1407(6) 0.0047(4)
W5_2 W 1.62921(3) 1.83846(4) 0.59207(2)
Ce2_2 Ce 1.80611(4) 1.62126(5) 0.55097(3)
Ce1F_2 Ce 1.52949(4) 0.90724(5) 0.31604(3)
W12_2 W 1.61801(3) 1.19347(4) 0.34713(2)
Ce2B_2 Ce 1.30611(4) 1.87874(5) 0.44903(3)
Ce1C Ce 1.02949(4) 0.90724(5) 0.18396(3)
Ce2F_2 Ce 1.69389(4) 1.12126(5) 0.55097(3)
Ce1B_2 Ce 1.47051(4) 2.09276(5) 0.68396(3)
loop_
_geom_bond_atom_site_label_1
_geom_bond_atom_site_label_2
_geom_bond_site_symmetry_1
_geom_bond_site_symmetry_2
W1 O5 1_555 1_555
W2 O8 1_555 1_555
W3 O3 1_555 1_555
W4 O2 1_555 1_555
W5 O1 1_555 1_555
W6 O8 1_555 1_555
W7 O7 1_555 1_555
W8 O18 1_555 1_555
W9 O6 1_555 1_555
W10 O5 1_555 1_555
W11 O1 1_555 1_555
W12 O15 1_555 1_555
Ce1 N1 1_555 1_555
Ce2 N3 1_555 1_555
Ce3 O11 1_555 1_555
N1 C3 1_555 1_555
N2 Ce1 1_555 1_555
N3 C8 1_555 1_555
C1 C3 1_555 1_555
C2 N2 1_555 1_555
C3 C9 1_555 1_555
C4 H1 1_555 1_555
C5 C4 1_555 1_555
H2 C5 1_555 1_555
C6 N1 1_555 1_555
C7 C6 1_555 1_555
H3 C7 1_555 1_555
C8 C4 1_555 1_555
C9 H4 1_555 1_555
C10 C2 1_555 1_555
C11 C6 1_555 1_555
C12 N2 1_555 1_555
C13 C2 1_555 1_555
H5 C13 1_555 1_555
C14 C12 1_555 1_555
H6 C14 1_555 1_555
C15 C16 1_555 1_555
C16 N3 1_555 1_555
C17 C12 1_555 1_555
C18 C8 1_555 1_555
C19 C7 1_555 1_555
H7 C19 1_555 1_555
C20 C13 1_555 1_555
H8 C20 1_555 1_555
C21 C5 1_555 1_555
H9 C21 1_555 1_555
O2 W5 1_555 1_555
O3 W5B 1_555 1_555
O4 Ce1 1_555 1_555
O6 W12F 1_555 1_555
O7 Ce1 1_555 1_555
O8 W1 1_555 1_555
O9 Ce1 1_555 1_555
O10 W4 1_555 1_555
O11 C15 1_555 1_555
O12 W7 1_555 1_555
O13 Ce3 1_555 1_555
O14 W4 1_555 1_555
O15 W10 1_555 1_555
O16 W3 1_555 1_555
O17 Ce3 1_555 1_555
O18 W10 1_555 1_555
O19 W2 1_555 1_555
O20 W5 1_555 1_555
O21 W7 1_555 1_555
O22 W1 1_555 1_555
O23 Ce3 1_555 1_555
O24 Ce1 1_555 1_555
O25 W4 1_555 1_555
O26 W9 1_555 1_555
O27 W6 1_555 1_555
O28 W3 1_555 1_555
O29 W6 1_555 1_555
O30 W1 1_555 1_555
O31 W9 1_555 1_555
O32 W11 1_555 1_555
O33 W6 1_555 1_555
O34 W3 1_555 1_555
O35 W2 1_555 1_555
O36 W12 1_555 1_555
O37 W4 1_555 1_555
O38 W1 1_555 1_555
O39 C1 1_555 1_555
O40 Ce2 1_555 1_555
O41 Ce1 1_555 1_555
O42 Ce3 1_555 1_555
O43 Ce1 1_555 1_555
O44 W8 1_555 1_555
O45 W3 1_555 1_555
O46 W2 1_555 1_555
O47 W3 1_555 1_555
O48 W2 1_555 1_555
O49 Ce1 1_555 1_555
O50 W5 1_555 1_555
O51 W7 1_555 1_555
O52 W1 1_555 1_555
O53 Ce3 1_555 1_555
O54 Ce3 1_555 1_555
O55 Ce3 1_555 1_555
O56 Ce2 1_555 1_555
O57 Ce2 1_555 1_555
O58 Ce2 1_555 1_555
O59 C11 1_555 1_555
O60 C17 1_555 1_555
O61 C18 1_555 1_555
O62 Ce2 1_555 1_555
O63 H10 1_555 1_555
H11 O63 1_555 1_555
O64 H12 1_555 1_555
H13 O64 1_555 1_555
O65 H14 1_555 1_555
H15 O65 1_555 1_555
O66 H16 1_555 1_555
H17 O66 1_555 1_555
O67 H18 1_555 1_555
H19 O67 1_555 1_555
O68 H20 1_555 1_555
H21 O68 1_555 1_555
O69 H22 1_555 1_555
H23 O69 1_555 1_555
O70 H24 1_555 1_555
H25 O70 1_555 1_555
O71 H26 1_555 1_555
H27 O71 1_555 1_555
O72 H28 1_555 1_555
H29 O72 1_555 1_555
Ce2D O39 1_555 1_555
N3D Ce2D 1_555 1_555
C8D N3D 1_555 1_555
C4D C8D 1_555 1_555
H1D C4D 1_555 1_555
C5D C4D 1_555 1_555
H2D C5D 1_555 1_555
C21D C5D 1_555 1_555
C16D N3D 1_555 1_555
C15D C16D 1_555 1_555
O11D C15D 1_555 1_555
Ce3D O11D 1_555 1_555
O13D Ce3D 1_555 1_555
C10D O13D 1_555 1_555
C2D C10D 1_555 1_555
N2D C2D 1_555 1_555
Ce1D N2D 1_555 1_555
N1D Ce1D 1_555 1_555
C3D N1D 1_555 1_555
C1D C3D 1_555 1_555
O39D Ce2 1_555 1_555
O43D Ce1D 1_555 1_555
O4D C10D 1_555 1_555
O7D Ce1D 1_555 1_555
O9D Ce1D 1_555 1_555
O24D Ce1D 1_555 1_555
C11D O24D 1_555 1_555
C6D N1D 1_555 1_555
C7D C6D 1_555 1_555
H3D C7D 1_555 1_555
C19D C7D 1_555 1_555
C9D C3D 1_555 1_555
H4D C9D 1_555 1_555
H7D C19D 1_555 1_555
O59D C11D 1_555 1_555
O28D Ce1D 1_555 1_555
O41D Ce1D 1_555 1_555
O49D Ce1D 1_555 1_555
C17D O49D 1_555 1_555
C12D N2D 1_555 1_555
C14D C12D 1_555 1_555
H6D C14D 1_555 1_555
C20D C14D 1_555 1_555
C13D C2D 1_555 1_555
H5D C13D 1_555 1_555
H8D C20D 1_555 1_555
O60D C17D 1_555 1_555
O17D Ce3D 1_555 1_555
O23D Ce3D 1_555 1_555
O38D Ce3D 1_555 1_555
O42D Ce3D 1_555 1_555
O53D Ce3D 1_555 1_555
O54D Ce3D 1_555 1_555
O55D Ce3D 1_555 1_555
O62D Ce2D 1_555 1_555
O26D Ce2D 1_555 1_555
O37D Ce2D 1_555 1_555
O40D Ce2D 1_555 1_555
C18D C8D 1_555 1_555
O61D C18D 1_555 1_555
O56D Ce2D 1_555 1_555
O57D Ce2D 1_555 1_555
O58D Ce2D 1_555 1_555
H9D C21D 1_555 1_555
W1D O38D 1_555 1_555
W3D O28D 1_555 1_555
W4D O37D 1_555 1_555
W7D O7D 1_555 1_555
W9D O26D 1_555 1_555
W10E O7 1_555 1_555
O19D W4 1_555 1_555
O10A W7 1_555 1_555
O46E W7 1_555 1_555
O29F W9 1_555 1_555
O51E W8 1_555 1_555
O6F W12 1_555 1_555
O45F W12 1_555 1_555
O47F W12 1_555 1_555
O5D W1D 1_555 1_555
O8D W1D 1_555 1_555
O22D W1D 1_555 1_555
O30D W1D 1_555 1_555
O52D W1D 1_555 1_555
O3D W3D 1_555 1_555
O16D W3D 1_555 1_555
O34D W3D 1_555 1_555
O2D W4D 1_555 1_555
O14D W4D 1_555 1_555
O25D W4D 1_555 1_555
O12D W7D 1_555 1_555
O21D W7D 1_555 1_555
O31D W9D 1_555 1_555
O15E W10E 1_555 1_555
O18E W10E 1_555 1_555
W2D O8D 1_555 1_555
W5D O2D 1_555 1_555
W6D O8D 1_555 1_555
W8E O21 1_555 1_555
W11D O2D 1_555 1_555
W12D O30D 1_555 1_555
O20D W8 1_555 1_555
O27D W11 1_555 1_555
O35D W2D 1_555 1_555
O48D W2D 1_555 1_555
O1D W5D 1_555 1_555
O50D W5D 1_555 1_555
O33D W6D 1_555 1_555
O44E W8E 1_555 1_555
O32D W11D 1_555 1_555
O36D W12D 1_555 1_555
O3B W5 1_555 1_555
O21E W8 1_555 1_555
O34F W8 1_555 1_555
O7E W10 1_555 1_555
O9E W10 1_555 1_555
O31B W11 1_555 1_555
W5B O1B 1_555 1_555
W12F O45 1_555 1_555
W7A O10 1_555 1_555
W4D_2 O19 1_555 1_555
W8D O20 1_555 1_555
W11D_2 O27 1_555 1_555
W9F O29 1_555 1_555
W11B O31 1_555 1_555
W8F O34 1_555 1_555
W7E O46 1_555 1_555
W10A O7D 1_555 1_555
O45D W3D 1_555 1_555
O47D W3D 1_555 1_555
O10D W4D 1_555 1_555
O19_2 W4D 1_555 1_555
O51D W7D 1_555 1_555
O10E W7D 1_555 1_555
O46A W7D 1_555 1_555
O6D W9D 1_555 1_555
O29B W9D 1_555 1_555
O5E W10E 1_555 1_555
W2D_2 O19D 1_555 1_555
W4A O10A 1_555 1_555
W2E O46E 1_555 1_555
W6F O29F 1_555 1_555
W3F O45F 1_555 1_555
W10D O5D 1_555 1_555
W5F O3D 1_555 1_555
W8B O34D 1_555 1_555
W8A O21D 1_555 1_555
W11F O31D 1_555 1_555
W12E O15E 1_555 1_555
O19D_2 W2D 1_555 1_555
O46D W2D 1_555 1_555
O20D_2 W5D 1_555 1_555
O3F W5D 1_555 1_555
O27D_2 W6D 1_555 1_555
O29D W6D 1_555 1_555
O20A W8E 1_555 1_555
O34C W8E 1_555 1_555
O27_2 W11D 1_555 1_555
O31F W11D 1_555 1_555
O6B W12D 1_555 1_555
O45B W12D 1_555 1_555
O47B W12D 1_555 1_555
O15D W12D 1_555 1_555
W5D_2 O20D 1_555 1_555
W6D_2 O27D 1_555 1_555
W3B O3B 1_555 1_555
Ce1E O7E 1_555 1_555
W9B O31B 1_555 1_555
O1B W11B 1_555 1_555
O2B W5B 1_555 1_555
O14B W5B 1_555 1_555
O20B W5B 1_555 1_555
O50B W5B 1_555 1_555
O15F W12F 1_555 1_555
O30F W12F 1_555 1_555
O36F W12F 1_555 1_555
O7A W7A 1_555 1_555
O12A W7A 1_555 1_555
O21A W7A 1_555 1_555
O46D_2 W7A 1_555 1_555
O51A W7A 1_555 1_555
O2D_2 W4D_2 1_555 1_555
O10D_2 W4D_2 1_555 1_555
O14D_2 W4D_2 1_555 1_555
O25D_2 W4D_2 1_555 1_555
O37D_2 W4D_2 1_555 1_555
O18D W8D 1_555 1_555
O34B W8D 1_555 1_555
O44D W8D 1_555 1_555
O1D_2 W11D_2 1_555 1_555
O31F_2 W11D_2 1_555 1_555
O32D_2 W11D_2 1_555 1_555
O16F W9F 1_555 1_555
O26F W9F 1_555 1_555
O25B W11B 1_555 1_555
O27F W11B 1_555 1_555
O32B W11B 1_555 1_555
O18F W8F 1_555 1_555
O21C W8F 1_555 1_555
O44F W8F 1_555 1_555
O51C W8F 1_555 1_555
O12E W7E 1_555 1_555
O5A W10A 1_555 1_555
O15A W10A 1_555 1_555
O18A W10A 1_555 1_555
W12B O45D 1_555 1_555
W7E_2 O10D 1_555 1_555
W2_2 O19_2 1_555 1_555
W4E O10E 1_555 1_555
W2A O46A 1_555 1_555
W6B O29B 1_555 1_555
W1E O5E 1_555 1_555
O8D_2 W2D_2 1_555 1_555
O22D_2 W2D_2 1_555 1_555
O35D_2 W2D_2 1_555 1_555
O48D_2 W2D_2 1_555 1_555
O2A W4A 1_555 1_555
O14A W4A 1_555 1_555
O19E W4A 1_555 1_555
O25A W4A 1_555 1_555
O37A W4A 1_555 1_555
O8E W2E 1_555 1_555
O22E W2E 1_555 1_555
O35E W2E 1_555 1_555
O48E W2E 1_555 1_555
O8F W6F 1_555 1_555
O33F W6F 1_555 1_555
O48F W6F 1_555 1_555
O52F W6F 1_555 1_555
O3F_2 W3F 1_555 1_555
O28F W3F 1_555 1_555
O7A_2 W10D 1_555 1_555
O9A W10D 1_555 1_555
O18D_2 W10D 1_555 1_555
O51A_2 W10D 1_555 1_555
O1F W5F 1_555 1_555
O2F W5F 1_555 1_555
O14F W5F 1_555 1_555
O20F W5F 1_555 1_555
O50F W5F 1_555 1_555
O18B W8B 1_555 1_555
O21G W8B 1_555 1_555
O44B W8B 1_555 1_555
O51G W8B 1_555 1_555
O20E W8A 1_555 1_555
O34G W8A 1_555 1_555
O44A W8A 1_555 1_555
O25F W11F 1_555 1_555
O27B W11F 1_555 1_555
O32F W11F 1_555 1_555
O6C W12E 1_555 1_555
O30E W12E 1_555 1_555
O36E W12E 1_555 1_555
O45C W12E 1_555 1_555
O47C W12E 1_555 1_555
W4_2 O19D_2 1_555 1_555
W7A_2 O46D 1_555 1_555
W8_2 O20D_2 1_555 1_555
W3F_2 O3F 1_555 1_555
W11_2 O27D_2 1_555 1_555
W9B_2 O29D 1_555 1_555
W5A O20A 1_555 1_555
W3C O34C 1_555 1_555
W6_2 O27_2 1_555 1_555
W9F_2 O31F 1_555 1_555
W3B_2 O45B 1_555 1_555
O50D_2 W5D_2 1_555 1_555
O29D_2 W6D_2 1_555 1_555
O33D_2 W6D_2 1_555 1_555
O52D_2 W6D_2 1_555 1_555
O16B W3B 1_555 1_555
O28B W3B 1_555 1_555
O45B_2 W3B 1_555 1_555
O47B_2 W3B 1_555 1_555
N1E Ce1E 1_555 1_555
N2E Ce1E 1_555 1_555
O4E Ce1E 1_555 1_555
O24E Ce1E 1_555 1_555
O28E Ce1E 1_555 1_555
O41E Ce1E 1_555 1_555
O43E Ce1E 1_555 1_555
O49E Ce1E 1_555 1_555
O6B_2 W9B 1_555 1_555
O26B W9B 1_555 1_555
W4B O2B 1_555 1_555
W10F O15F 1_555 1_555
W1F O30F 1_555 1_555
W10D_2 O7A 1_555 1_555
Ce1A O7A 1_555 1_555
Ce2D_2 O37D_2 1_555 1_555
Ce2F O26F 1_555 1_555
W7C O21C 1_555 1_555
W1A O5A 1_555 1_555
W12A O15A 1_555 1_555
O15B W12B 1_555 1_555
O30B W12B 1_555 1_555
O36B W12B 1_555 1_555
O7E_2 W7E_2 1_555 1_555
O12E_2 W7E_2 1_555 1_555
O21E_2 W7E_2 1_555 1_555
O46_2 W7E_2 1_555 1_555
O51E_2 W7E_2 1_555 1_555
O8_2 W2_2 1_555 1_555
O22_2 W2_2 1_555 1_555
O35_2 W2_2 1_555 1_555
O48_2 W2_2 1_555 1_555
O2E W4E 1_555 1_555
O14E W4E 1_555 1_555
O19A W4E 1_555 1_555
O25E W4E 1_555 1_555
O37E W4E 1_555 1_555
O8A W2A 1_555 1_555
O22A W2A 1_555 1_555
O35A W2A 1_555 1_555
O48A W2A 1_555 1_555
O8B W6B 1_555 1_555
O33B W6B 1_555 1_555
O48B W6B 1_555 1_555
O52B W6B 1_555 1_555
O38E W1E 1_555 1_555
O52E W1E 1_555 1_555
W1D_2 O8D_2 1_555 1_555
W11A O2A 1_555 1_555
Ce2A O37A 1_555 1_555
W6E O8E 1_555 1_555
W2F O8F 1_555 1_555
Ce1F O28F 1_555 1_555
Ce1A_2 O7A_2 1_555 1_555
W8D_2 O18D_2 1_555 1_555
W4F O2F 1_555 1_555
W10B O18B 1_555 1_555
W7G O21G 1_555 1_555
W5E O20E 1_555 1_555
W3G O34G 1_555 1_555
W9C O6C 1_555 1_555
O2_2 W4_2 1_555 1_555
O10_2 W4_2 1_555 1_555
O14_2 W4_2 1_555 1_555
O25_2 W4_2 1_555 1_555
O37_2 W4_2 1_555 1_555
O12A_2 W7A_2 1_555 1_555
O21A_2 W7A_2 1_555 1_555
O18_2 W8_2 1_555 1_555
O34F_2 W8_2 1_555 1_555
O44_2 W8_2 1_555 1_555
O16F_2 W3F_2 1_555 1_555
O28F_2 W3F_2 1_555 1_555
O45F_2 W3F_2 1_555 1_555
O47F_2 W3F_2 1_555 1_555
O1_2 W11_2 1_555 1_555
O31B_2 W11_2 1_555 1_555
O32_2 W11_2 1_555 1_555
O16B_2 W9B_2 1_555 1_555
O26B_2 W9B_2 1_555 1_555
O1A W5A 1_555 1_555
O3C W5A 1_555 1_555
O50A W5A 1_555 1_555
O16C W3C 1_555 1_555
O28C W3C 1_555 1_555
O29_2 W6_2 1_555 1_555
O33_2 W6_2 1_555 1_555
O52_2 W6_2 1_555 1_555
O6F_2 W9F_2 1_555 1_555
O26F_2 W9F_2 1_555 1_555
O3B_2 W3B_2 1_555 1_555
O28B_2 W3B_2 1_555 1_555
O34B_2 W3B_2 1_555 1_555
Ce1B O28B 1_555 1_555
W12D_2 O45B_2 1_555 1_555
C3E N1E 1_555 1_555
C6E N1E 1_555 1_555
C2E N2E 1_555 1_555
C12E N2E 1_555 1_555
C10E O4E 1_555 1_555
C11E O24E 1_555 1_555
W3E O28E 1_555 1_555
C1E O43E 1_555 1_555
C17E O49E 1_555 1_555
Ce2B O26B 1_555 1_555
O10B W4B 1_555 1_555
O19F W4B 1_555 1_555
O37B W4B 1_555 1_555
O5F W10F 1_555 1_555
O7C W10F 1_555 1_555
O9C W10F 1_555 1_555
O22F W1F 1_555 1_555
O38F W1F 1_555 1_555
O5D_2 W10D_2 1_555 1_555
O9A_2 W10D_2 1_555 1_555
O15D_2 W10D_2 1_555 1_555
N1A Ce1A 1_555 1_555
N2A Ce1A 1_555 1_555
O4A Ce1A 1_555 1_555
O24A Ce1A 1_555 1_555
O28A Ce1A 1_555 1_555
O41A Ce1A 1_555 1_555
O43A Ce1A 1_555 1_555
O49A Ce1A 1_555 1_555
N3D_2 Ce2D_2 1_555 1_555
O26D_2 Ce2D_2 1_555 1_555
O39_2 Ce2D_2 1_555 1_555
O40D_2 Ce2D_2 1_555 1_555
O56D_2 Ce2D_2 1_555 1_555
O57D_2 Ce2D_2 1_555 1_555
O58D_2 Ce2D_2 1_555 1_555
O62D_2 Ce2D_2 1_555 1_555
N3F Ce2F 1_555 1_555
O37F Ce2F 1_555 1_555
O39B Ce2F 1_555 1_555
O40F Ce2F 1_555 1_555
O56F Ce2F 1_555 1_555
O57F Ce2F 1_555 1_555
O58F Ce2F 1_555 1_555
O62F Ce2F 1_555 1_555
O12C W7C 1_555 1_555
O46F W7C 1_555 1_555
O30A W1A 1_555 1_555
O38A W1A 1_555 1_555
O52A W1A 1_555 1_555
O6G W12A 1_555 1_555
O36A W12A 1_555 1_555
O45G W12A 1_555 1_555
O47G W12A 1_555 1_555
W1B O30B 1_555 1_555
W10_2 O7E_2 1_555 1_555
Ce1E_2 O7E_2 1_555 1_555
W1_2 O8_2 1_555 1_555
W11E O2E 1_555 1_555
Ce2E O37E 1_555 1_555
W6A O8A 1_555 1_555
W2B O8B 1_555 1_555
Ce3E O38E 1_555 1_555
O30D_2 W1D_2 1_555 1_555
O38D_2 W1D_2 1_555 1_555
O27E W11A 1_555 1_555
O31C W11A 1_555 1_555
O32A W11A 1_555 1_555
N3A Ce2A 1_555 1_555
O26A Ce2A 1_555 1_555
O39E Ce2A 1_555 1_555
O40A Ce2A 1_555 1_555
O56A Ce2A 1_555 1_555
O57A Ce2A 1_555 1_555
O58A Ce2A 1_555 1_555
O62A Ce2A 1_555 1_555
O29E W6E 1_555 1_555
O33E W6E 1_555 1_555
O35F W2F 1_555 1_555
N1F Ce1F 1_555 1_555
N2F Ce1F 1_555 1_555
O4F Ce1F 1_555 1_555
O7F Ce1F 1_555 1_555
O24F Ce1F 1_555 1_555
O41F Ce1F 1_555 1_555
O43F Ce1F 1_555 1_555
O49F Ce1F 1_555 1_555
N1A_2 Ce1A_2 1_555 1_555
N2A_2 Ce1A_2 1_555 1_555
O4A_2 Ce1A_2 1_555 1_555
O24A_2 Ce1A_2 1_555 1_555
O28A_2 Ce1A_2 1_555 1_555
O41A_2 Ce1A_2 1_555 1_555
O43A_2 Ce1A_2 1_555 1_555
O49A_2 Ce1A_2 1_555 1_555
O20_2 W8D_2 1_555 1_555
O44D_2 W8D_2 1_555 1_555
O10F W4F 1_555 1_555
O19B W4F 1_555 1_555
O5B W10B 1_555 1_555
O7G W10B 1_555 1_555
O9G W10B 1_555 1_555
O12G W7G 1_555 1_555
O46B W7G 1_555 1_555
O1E W5E 1_555 1_555
O3G W5E 1_555 1_555
O50E W5E 1_555 1_555
O16G W3G 1_555 1_555
O28G W3G 1_555 1_555
O26C W9C 1_555 1_555
W5_2 O2_2 1_555 1_555
Ce2_2 O37_2 1_555 1_555
Ce1F_2 O28F_2 1_555 1_555
W12_2 O45F_2 1_555 1_555
Ce2B_2 O26B_2 1_555 1_555
Ce1C O28C 1_555 1_555
Ce2F_2 O26F_2 1_555 1_555
Ce1B_2 O28B_2 1_555 1_555
W2 O22 1_555 1_555
W5 O14 1_555 1_555
W6 O52 1_555 1_555
W6 O48 1_555 1_555
W9 O16 1_555 1_555
W9 O47 1_555 1_555
W10 O51E 1_555 1_555
W11 O2 1_555 1_555
W11 O25 1_555 1_555
W12 O30 1_555 1_555
Ce1 O28 1_555 1_555
Ce2 O26 1_555 1_555
Ce2 O37 1_555 1_555
Ce3 O38 1_555 1_555
C1 O43 1_555 1_555
C9 C19 1_555 1_555
C10 O13 1_555 1_555
C10 O4 1_555 1_555
C11 O24 1_555 1_555
C14 C20 1_555 1_555
C15 O62 1_555 1_555
C16 C21 1_555 1_555
C17 O49 1_555 1_555
C18 O40 1_555 1_555
O9 W10E 1_555 1_555
O47 W12F 1_555 1_555
O51 W8E 1_555 1_555
O51 W10E 1_555 1_555
C21D C16D 1_555 1_555
C15D O62D 1_555 1_555
Ce1D O4D 1_555 1_555
C1D O39D 1_555 1_555
C1D O43D 1_555 1_555
O9D W10A 1_555 1_555
C11D C6D 1_555 1_555
C19D C9D 1_555 1_555
C17D C12D 1_555 1_555
C20D C13D 1_555 1_555
O40D C18D 1_555 1_555
W9D O16D 1_555 1_555
W9D O47D 1_555 1_555
O51E W7E 1_555 1_555
O6F W9F 1_555 1_555
O47F W3F 1_555 1_555
O47F W9F 1_555 1_555
O22D W2D 1_555 1_555
O52D W6D 1_555 1_555
O14D W5D 1_555 1_555
O25D W11D 1_555 1_555
O18E W8E 1_555 1_555
W6D O48D 1_555 1_555
W11D O1D 1_555 1_555
O21E W7E 1_555 1_555
O34F W3F 1_555 1_555
O7E W7E 1_555 1_555
O9E Ce1E 1_555 1_555
W8D O21A 1_555 1_555
W8D O51A 1_555 1_555
W11D_2 O2D_2 1_555 1_555
W11D_2 O25D_2 1_555 1_555
W9F O31F_2 1_555 1_555
W11B O2B 1_555 1_555
W8F O20B 1_555 1_555
W7E O10D_2 1_555 1_555
W10A O51D 1_555 1_555
O47D W12B 1_555 1_555
O51D W8A 1_555 1_555
O6D W12B 1_555 1_555
W2D_2 O46D_2 1_555 1_555
W2E O19E 1_555 1_555
W6F O27F 1_555 1_555
W3F O16F 1_555 1_555
W10D O15D 1_555 1_555
W8B O20F 1_555 1_555
W8A O18A 1_555 1_555
W11F O1F 1_555 1_555
W11F O2F 1_555 1_555
O6B W9B_2 1_555 1_555
O47B W3B_2 1_555 1_555
O47B W9B_2 1_555 1_555
W5D_2 O1D_2 1_555 1_555
W5D_2 O2D_2 1_555 1_555
W5D_2 O3F_2 1_555 1_555
W5D_2 O14D_2 1_555 1_555
W6D_2 O8D_2 1_555 1_555
W6D_2 O48D_2 1_555 1_555
W3B O34B 1_555 1_555
W9B O29D_2 1_555 1_555
W9B O16B 1_555 1_555
W9B O47B_2 1_555 1_555
O14B W4B 1_555 1_555
O51A W10D_2 1_555 1_555
O18D W10D_2 1_555 1_555
O25B W4B 1_555 1_555
O18F W10F 1_555 1_555
O51C W7C 1_555 1_555
O51C W10F 1_555 1_555
W2_2 O46_2 1_555 1_555
W2A O19A 1_555 1_555
W6B O27B 1_555 1_555
W1E O8E 1_555 1_555
W1E O22E 1_555 1_555
W1E O30E 1_555 1_555
O22D_2 W1D_2 1_555 1_555
O2A W5A 1_555 1_555
O14A W5A 1_555 1_555
O25A W11A 1_555 1_555
O48E W6E 1_555 1_555
O8F W1F 1_555 1_555
O48F W2F 1_555 1_555
O52F W1F 1_555 1_555
O7A_2 W7A_2 1_555 1_555
O9A Ce1A_2 1_555 1_555
O51A_2 W7A_2 1_555 1_555
O51A_2 W8D_2 1_555 1_555
O14F W4F 1_555 1_555
O51G W7G 1_555 1_555
O51G W10B 1_555 1_555
O25F W4F 1_555 1_555
O45C W3C 1_555 1_555
O47C W3C 1_555 1_555
O47C W9C 1_555 1_555
W7A_2 O10_2 1_555 1_555
W8_2 O21E_2 1_555 1_555
W8_2 O51E_2 1_555 1_555
W3F_2 O34F_2 1_555 1_555
W11_2 O2_2 1_555 1_555
W11_2 O25_2 1_555 1_555
W9B_2 O31B_2 1_555 1_555
W3C O3C 1_555 1_555
W6_2 O8_2 1_555 1_555
W6_2 O48_2 1_555 1_555
W9F_2 O16F_2 1_555 1_555
W9F_2 O29_2 1_555 1_555
W9F_2 O47F_2 1_555 1_555
W3B_2 O16B_2 1_555 1_555
O52D_2 W1D_2 1_555 1_555
O47B_2 W12D_2 1_555 1_555
O6B_2 W12D_2 1_555 1_555
W1F O5F 1_555 1_555
Ce1A O9A_2 1_555 1_555
W7C O7C 1_555 1_555
W7C O10B 1_555 1_555
W1A O8A 1_555 1_555
W1A O22A 1_555 1_555
W12A O30A 1_555 1_555
O15B W10B 1_555 1_555
O51E_2 W10_2 1_555 1_555
O22_2 W1_2 1_555 1_555
O2E W5E 1_555 1_555
O14E W5E 1_555 1_555
O25E W11E 1_555 1_555
O48A W6A 1_555 1_555
O8B W1B 1_555 1_555
O48B W2B 1_555 1_555
O52B W1B 1_555 1_555
O52E W6E 1_555 1_555
W1D_2 O5D_2 1_555 1_555
W11A O1A 1_555 1_555
W6E O27E 1_555 1_555
W2F O19F 1_555 1_555
W2F O22F 1_555 1_555
W2F O46F 1_555 1_555
W8D_2 O21A_2 1_555 1_555
W8D_2 O34B_2 1_555 1_555
W4F O37F 1_555 1_555
W7G O7G 1_555 1_555
W7G O10F 1_555 1_555
W3G O3G 1_555 1_555
W3G O45G 1_555 1_555
W3G O47G 1_555 1_555
W9C O16C 1_555 1_555
W9C O29E 1_555 1_555
W9C O31C 1_555 1_555
O14_2 W5_2 1_555 1_555
O18_2 W10_2 1_555 1_555
O47F_2 W12_2 1_555 1_555
O1_2 W5_2 1_555 1_555
O52_2 W1_2 1_555 1_555
O6F_2 W12_2 1_555 1_555
O3B_2 W5_2 1_555 1_555
W12D_2 O30D_2 1_555 1_555
W12D_2 O15D_2 1_555 1_555
C3E C1E 1_555 1_555
C6E C11E 1_555 1_555
C2E C10E 1_555 1_555
C12E C17E 1_555 1_555
C1E O39E 1_555 1_555
O37B Ce2B_2 1_555 1_555
O52A W6A 1_555 1_555
W1B O5B 1_555 1_555
W11E O1E 1_555 1_555
W2B O19B 1_555 1_555
W2B O46B 1_555 1_555
O20_2 W5_2 1_555 1_555

#END
