
#######################################################################
#
#                 Cambridge Crystallographic Data Centre
#                                CCDC 
#
#######################################################################
#
# If this CIF has been generated from an entry in the Cambridge 
# Structural Database, then it will include bibliographic, chemical, 
# crystal, experimental, refinement or atomic coordinate data resulting 
# from the CCDC's data processing and validation procedures.
#
#######################################################################

data_DUYREV
_symmetry_cell_setting           orthorhombic
_symmetry_space_group_name_H-M   'P b c a'
_symmetry_Int_Tables_number      61
_space_group_name_Hall           '-P 2ac 2ab'
loop_
_symmetry_equiv_pos_site_id
_symmetry_equiv_pos_as_xyz
1 x,y,z
2 1/2-x,-y,1/2+z
3 1/2+x,1/2-y,-z
4 -x,1/2+y,1/2-z
5 -x,-y,-z
6 1/2+x,y,1/2-z
7 1/2-x,1/2+y,z
8 x,1/2-y,1/2+z
_cell_length_a                   23.440(5)
_cell_length_b                   20.489(5)
_cell_length_c                   29.486(5)
_cell_angle_alpha                90
_cell_angle_beta                 90
_cell_angle_gamma                90
_cell_volume                     14161
loop_
_atom_site_label
_atom_site_type_symbol
_atom_site_fract_x
_atom_site_fract_y
_atom_site_fract_z
W1 W 1.02274(3) 0.93416(4) -0.10041(3)
W2 W 0.90169(3) 0.87018(4) -0.13131(2)
W3 W 1.14006(3) 0.81932(4) -0.07558(2)
W4 W 1.12856(3) 0.66126(4) -0.09233(3)
W5 W 0.98811(3) 0.59704(4) -0.12824(3)
W6 W 0.92254(3) 0.67433(4) -0.04726(3)
W7 W 1.07632(3) 0.69028(4) -0.20922(3)
W8 W 1.09713(3) 0.84826(4) -0.19436(2)
W9 W 1.06263(3) 0.73110(4) -0.00610(2)
W10 W 0.97221(4) 0.79237(4) -0.22724(3)
W11 W 0.94606(3) 0.85034(4) -0.02804(2)
W12 W 0.88068(3) 0.69361(4) -0.15144(3)
Pr1 Pr 0.96812(5) 0.40874(6) -0.18292(3)
Pr2 Pr 0.80618(5) 0.62173(6) 0.05210(4)
Pr3 Pr 0.72918(5) 0.50651(6) -0.14481(4)
N1 N 0.7662(6) 0.7083(8) -0.0065(5)
C1 C 0.7633(8) 0.7733(7) 0.0021(5)
C2 C 0.7417(10) 0.8158(10) -0.0274(7)
H1 H 0.7408 0.8600 -0.0200
C3 C 0.7218(11) 0.7965(14) -0.0662(8)
H2 H 0.7061 0.8265 -0.0864
C4 C 0.7241(9) 0.7324(13) -0.0772(8)
H3 H 0.7113 0.7178 -0.1053
C5 C 0.7461(9) 0.6885(11) -0.0453(7)
C6 C 0.7874(9) 0.7875(12) 0.0452(8)
C7 C 0.7513(10) 0.6146(13) -0.0514(8)
N2 N 0.9819(7) 0.2967(8) -0.1452(5)
C8 C 1.0306(6) 0.2865(7) -0.1227(6)
C9 C 1.0412(8) 0.2242(10) -0.1013(6)
H4 H 1.0744 0.2178 -0.0847
C10 C 1.0022(9) 0.1745(12) -0.1054(7)
H5 H 1.0084 0.1336 -0.0926
C11 C 0.9513(9) 0.1892(11) -0.1307(6)
H6 H 0.9231 0.1577 -0.1341
C12 C 0.9445(9) 0.2500(11) -0.1498(7)
C13 C 1.0660(9) 0.3431(12) -0.1176(7)
C14 C 0.8920(9) 0.2706(11) -0.1711(6)
N3 N 0.9472(6) 0.5058(7) -0.2396(4)
C15 C 0.9886(5) 0.5285(8) -0.2654(5)
C16 C 0.9800(8) 0.5818(10) -0.2949(6)
H7 H 1.0087 0.5967 -0.3140
C17 C 0.9261(9) 0.6110(11) -0.2939(7)
H8 H 0.9184 0.6472 -0.3120
C18 C 0.8854(9) 0.5865(11) -0.2667(6)
H9 H 0.8494 0.6058 -0.2662
C19 C 0.8957(8) 0.5347(10) -0.2402(6)
C20 C 1.0455(7) 0.4971(10) -0.2587(6)
C21 C 0.8554(8) 0.5071(10) -0.2058(6)
O1 O 0.9773(5) 0.8384(6) -0.0992(4)
O2 O 1.0707(5) 0.7471(6) -0.0809(4)
O3 O 1.0330(5) 0.7766(6) -0.1738(4)
O4 O 0.9138(5) 0.7626(7) -0.0363(4)
O5 O 1.1758(5) 0.5992(6) -0.0920(4)
O6 O 1.0866(5) 0.8852(6) -0.0729(4)
O7 O 0.7843(7) 0.6118(9) 0.1351(5)
O8 O 0.7902(6) 0.8515(8) 0.0558(5)
O9 O 1.1102(5) 0.6614(6) -0.0278(4)
O10 O 0.6927(5) 0.4876(7) -0.2191(5)
O11 O 1.1217(5) 0.6785(6) -0.1546(4)
O12 O 0.9147(5) 0.6122(6) -0.1602(4)
O13 O 0.8069(6) 0.5286(7) -0.2019(4)
O14 O 0.8741(5) 0.4598(7) -0.1815(4)
O15 O 0.9140(6) 0.8728(7) 0.0220(4)
O16 O 0.8162(5) 0.6834(7) -0.1769(4)
O17 O 0.8428(5) 0.9163(7) -0.1488(4)
O18 O 1.0702(5) 0.7138(7) 0.0499(4)
O19 O 0.9514(5) 0.9520(6) -0.1250(4)
O20 O 1.1123(5) 0.6383(7) -0.2454(4)
O21 O 1.1378(5) 0.8257(6) -0.1390(4)
O22 O 0.6298(5) 0.5481(7) -0.1236(4)
O23 O 0.9394(5) 0.8542(6) -0.1874(4)
O24 O 1.2031(5) 0.8603(6) -0.0633(4)
O25 O 0.9401(6) 0.8122(7) -0.2781(4)
O26 O 0.9967(5) 0.6801(6) -0.0198(4)
O27 O 0.9240(5) 0.7307(6) -0.2016(4)
O28 O 1.1228(5) 0.7693(6) -0.2206(4)
O29 O 1.0578(5) 0.6111(6) -0.1000(4)
O30 O 0.9475(5) 0.5888(7) -0.0734(4)
O31 O 1.1447(5) 0.9002(6) -0.2183(4)
O32 O 0.9878(5) 0.9275(6) -0.0394(4)
O33 O 0.8825(5) 0.6415(7) -0.0029(4)
O34 O 1.0217(5) 0.7240(6) -0.2514(4)
O35 O 0.8592(5) 0.6740(6) -0.0907(4)
O36 O 1.0485(6) 1.0121(7) -0.0948(4)
O37 O 1.0107(5) 0.8035(6) -0.0064(4)
O38 O 0.9286(5) 0.4078(7) -0.0991(4)
O39 O 1.0506(5) 0.4575(7) -0.2274(4)
O40 O 0.8796(6) 0.5301(8) 0.0576(5)
O41 O 0.7109(5) 0.6099(7) -0.1897(4)
O42 O 0.9906(5) 0.5164(6) -0.1429(4)
O43 O 0.8872(6) 0.3287(8) -0.1829(5)
O44 O 0.7144(6) 0.4585(7) -0.0669(4)
O45 O 1.0224(5) 0.6344(6) -0.1814(4)
O46 O 0.7750(6) 0.4000(8) -0.1609(5)
O47 O 1.0371(5) 0.8548(6) -0.2393(4)
O48 O 0.7587(6) 0.5120(8) 0.0649(5)
O49 O 0.8057(6) 0.7472(8) 0.0721(5)
O50 O 1.1243(5) 0.7922(6) -0.0139(4)
O51 O 0.7333(6) 0.5973(8) -0.0920(5)
O52 O 1.1132(6) 0.3360(7) -0.0958(5)
O53 O 0.8841(5) 0.8806(6) -0.0672(4)
O54 O 1.1764(5) 0.7337(6) -0.0843(4)
O55 O 0.8263(6) 0.5081(8) -0.1014(5)
O56 O 1.0840(6) 0.5159(7) -0.2869(4)
O57 O 1.0558(5) 0.9072(6) -0.1556(4)
O58 O 0.8500(6) 0.2292(7) -0.1749(4)
O59 O 0.8734(5) 0.7868(6) -0.1344(4)
O60 O 1.0532(6) 0.3942(7) -0.1373(4)
O61 O 0.9628(5) 0.6959(6) -0.1113(4)
O62 O 0.7696(6) 0.5815(7) -0.0210(5)
Pr1C Pr 1.03188(5) 0.90874(6) -0.31708(3)
Pr2B Pr 1.30618(5) 0.87827(6) -0.05210(4)
Pr2D Pr 1.19382(5) 0.37827(6) -0.05210(4)
Pr3F Pr 0.77082(5) 1.00651(6) -0.14481(4)
O17F O 0.6572(5) 0.4163(7) -0.1488(4)
O24B O 0.7031(5) 0.6397(6) 0.0633(4)
O47C O 0.9629(5) 0.3548(6) -0.2607(4)
O52D O 0.8868(6) 0.6640(7) 0.0958(5)
O63 O 0.3672(9) 0.9961(11) -0.1556(6)
H10 H 0.3753 1.0333 -0.1407
H11 H 0.3344 0.9924 -0.1712
O64 O 0.2851(9) 0.4348(11) 0.2964(6)
H12 H 0.2991 0.4328 0.3248
H13 H 0.2472 0.4330 0.2917
O65 O 0.1603(7) 1.0112(10) -0.0206(6)
H14 H 0.1631 1.0404 0.0021
H15 H 0.1279 1.0083 -0.0368
O66 O 0.4952(9) 0.9450(10) -0.0304(6)
H16 H 0.5111 0.9721 -0.0099
H17 H 0.4602 0.9536 -0.0414
O67 O 0.2000(8) 0.5087(11) 0.3386(6)
H18 H 0.2125 0.5093 0.3674
H19 H 0.1624 0.5083 0.3327
O68 O 0.2580(7) 0.2216(9) 0.2138(6)
H20 H 0.2688 0.2104 0.2420
H21 H 0.2213 0.2172 0.2052
O69 O 0.0888(8) 0.9306(10) 0.0314(6)
H22 H 0.0889 0.9546 0.0570
H23 H 0.0568 0.9277 0.0146
O70 O 0.3235(9) 0.8697(12) -0.2301(7)
H24 H 0.3232 0.9109 -0.2195
H25 H 0.2941 0.8550 -0.2469
O71 O 0.3556(8) 0.5970(10) -0.1137(6)
H26 H 0.3423 0.6125 -0.0872
H27 H 0.3316 0.5905 -0.1371
O72 O 0.3495(9) 1.0476(11) 0.0141(6)
H28 H 0.3616 1.0752 0.0358
H29 H 0.3146 1.0527 0.0018
loop_
_geom_bond_atom_site_label_1
_geom_bond_atom_site_label_2
_geom_bond_site_symmetry_1
_geom_bond_site_symmetry_2
W1 O1 1_555 1_555
W2 O1 1_555 1_555
W3 O2 1_555 1_555
W4 O2 1_555 1_555
W5 O12 1_555 1_555
W6 O4 1_555 1_555
W7 O3 1_555 1_555
W8 O3 1_555 1_555
W9 O2 1_555 1_555
W10 O3 1_555 1_555
W11 O1 1_555 1_555
W12 O12 1_555 1_555
Pr1 N2 1_555 1_555
Pr2 N1 1_555 1_555
Pr3 O10 1_555 1_555
N1 C1 1_555 1_555
C1 C2 1_555 1_555
C2 H1 1_555 1_555
C3 C2 1_555 1_555
H2 C3 1_555 1_555
C4 C3 1_555 1_555
H3 C4 1_555 1_555
C5 N1 1_555 1_555
C6 C1 1_555 1_555
C7 C5 1_555 1_555
N2 C8 1_555 1_555
C8 C9 1_555 1_555
C9 H4 1_555 1_555
C10 C9 1_555 1_555
H5 C10 1_555 1_555
C11 C10 1_555 1_555
H6 C11 1_555 1_555
C12 N2 1_555 1_555
C13 C8 1_555 1_555
C14 C12 1_555 1_555
N3 Pr1 1_555 1_555
C15 N3 1_555 1_555
C16 C15 1_555 1_555
H7 C16 1_555 1_555
C17 C16 1_555 1_555
H8 C17 1_555 1_555
C18 C17 1_555 1_555
H9 C18 1_555 1_555
C19 N3 1_555 1_555
C20 C15 1_555 1_555
C21 C19 1_555 1_555
O4 W11 1_555 1_555
O5 W4 1_555 1_555
O6 W1 1_555 1_555
O7 Pr2 1_555 1_555
O8 C6 1_555 1_555
O9 W4 1_555 1_555
O11 W4 1_555 1_555
O13 Pr3 1_555 1_555
O14 Pr1 1_555 1_555
O15 W11 1_555 1_555
O16 W12 1_555 1_555
O17 W2 1_555 1_555
O18 W9 1_555 1_555
O19 W1 1_555 1_555
O20 W7 1_555 1_555
O21 W3 1_555 1_555
O22 Pr3 1_555 1_555
O23 W2 1_555 1_555
O24 W3 1_555 1_555
O25 W10 1_555 1_555
O26 W6 1_555 1_555
O27 W10 1_555 1_555
O28 W7 1_555 1_555
O29 W4 1_555 1_555
O30 W5 1_555 1_555
O31 W8 1_555 1_555
O32 W1 1_555 1_555
O33 W6 1_555 1_555
O34 W7 1_555 1_555
O35 W6 1_555 1_555
O36 W1 1_555 1_555
O37 W9 1_555 1_555
O38 Pr1 1_555 1_555
O39 Pr1 1_555 1_555
O40 Pr2 1_555 1_555
O41 Pr3 1_555 1_555
O42 W5 1_555 1_555
O43 Pr1 1_555 1_555
O44 Pr3 1_555 1_555
O45 W5 1_555 1_555
O46 Pr3 1_555 1_555
O47 W8 1_555 1_555
O48 Pr2 1_555 1_555
O49 Pr2 1_555 1_555
O50 W3 1_555 1_555
O51 Pr3 1_555 1_555
O52 C13 1_555 1_555
O53 W2 1_555 1_555
O54 W3 1_555 1_555
O55 Pr3 1_555 1_555
O56 C20 1_555 1_555
O57 W1 1_555 1_555
O58 C14 1_555 1_555
O59 W2 1_555 1_555
O60 Pr1 1_555 1_555
O61 W5 1_555 1_555
O62 Pr2 1_555 1_555
O63 H10 1_555 1_555
H11 O63 1_555 1_555
O64 H12 1_555 1_555
H13 O64 1_555 1_555
O65 H14 1_555 1_555
H15 O65 1_555 1_555
O66 H16 1_555 1_555
H17 O66 1_555 1_555
O67 H18 1_555 1_555
H19 O67 1_555 1_555
O68 H20 1_555 1_555
H21 O68 1_555 1_555
O69 H22 1_555 1_555
H23 O69 1_555 1_555
O70 H24 1_555 1_555
H25 O70 1_555 1_555
O71 H26 1_555 1_555
H27 O71 1_555 1_555
O72 H28 1_555 1_555
H29 O72 1_555 1_555
Pr1C O47 1_555 1_555
Pr2B O24 1_555 1_555
Pr2D O52 1_555 1_555
Pr3F O17 1_555 1_555
O17F Pr3 1_555 1_555
O24B Pr2 1_555 1_555
O47C Pr1 1_555 1_555
O52D Pr2 1_555 1_555
W2 O19 1_555 1_555
W3 O6 1_555 1_555
W4 O54 1_555 1_555
W5 O29 1_555 1_555
W6 O30 1_555 1_555
W6 O61 1_555 1_555
W7 O11 1_555 1_555
W7 O45 1_555 1_555
W8 O21 1_555 1_555
W8 O28 1_555 1_555
W8 O57 1_555 1_555
W9 O9 1_555 1_555
W9 O26 1_555 1_555
W9 O50 1_555 1_555
W10 O23 1_555 1_555
W10 O34 1_555 1_555
W10 O47 1_555 1_555
W11 O32 1_555 1_555
W11 O37 1_555 1_555
W11 O53 1_555 1_555
W12 O27 1_555 1_555
W12 O35 1_555 1_555
W12 O59 1_555 1_555
W12 O61 1_555 1_555
Pr1 O42 1_555 1_555
Pr2 O33 1_555 1_555
C4 C5 1_555 1_555
C6 O49 1_555 1_555
C7 O51 1_555 1_555
C7 O62 1_555 1_555
C11 C12 1_555 1_555
C13 O60 1_555 1_555
C14 O43 1_555 1_555
C18 C19 1_555 1_555
C20 O39 1_555 1_555
C21 O13 1_555 1_555
C21 O14 1_555 1_555

#END
