
#######################################################################
#
#                 Cambridge Crystallographic Data Centre
#                                CCDC 
#
#######################################################################
#
# If this CIF has been generated from an entry in the Cambridge 
# Structural Database, then it will include bibliographic, chemical, 
# crystal, experimental, refinement or atomic coordinate data resulting 
# from the CCDC's data processing and validation procedures.
#
#######################################################################

data_DUYROF
_symmetry_cell_setting           orthorhombic
_symmetry_space_group_name_H-M   'P b c a'
_symmetry_Int_Tables_number      61
_space_group_name_Hall           '-P 2ac 2ab'
loop_
_symmetry_equiv_pos_site_id
_symmetry_equiv_pos_as_xyz
1 x,y,z
2 1/2-x,-y,1/2+z
3 1/2+x,1/2-y,-z
4 -x,1/2+y,1/2-z
5 -x,-y,-z
6 1/2+x,y,1/2-z
7 1/2-x,1/2+y,z
8 x,1/2-y,1/2+z
_cell_length_a                   23.556(5)
_cell_length_b                   20.499(5)
_cell_length_c                   29.823(5)
_cell_angle_alpha                90
_cell_angle_beta                 90
_cell_angle_gamma                90
_cell_volume                     14400.8
loop_
_atom_site_label
_atom_site_type_symbol
_atom_site_fract_x
_atom_site_fract_y
_atom_site_fract_z
W1 W 0.596961(10) 0.129789(10) 0.132512(7)
W2 W 0.476811(10) 0.065671(10) 0.099285(8)
W3 W 0.370547(10) 0.338157(10) 0.091559(7)
W4 W 0.400373(11) 0.150148(10) 0.191838(7)
W5 W 0.554612(11) 0.151859(10) 0.029275(7)
W6 W 0.508810(10) 0.402848(10) 0.130450(7)
W7 W 0.360600(10) 0.180482(10) 0.073864(7)
W8 W 0.419445(11) 0.306939(10) 0.207932(7)
W9 W 0.616811(10) 0.306651(10) 0.153526(7)
W10 W 0.522351(11) 0.207284(10) 0.225176(7)
W11 W 0.576792(10) 0.327579(10) 0.049612(7)
W12 W 0.438335(10) 0.270259(10) 0.006684(7)
La1 La 0.471752(14) 0.093474(14) 0.315314(10)
La2 La 0.694110(15) 0.379470(16) -0.050530(11)
La3 La 0.730480(15) -0.004170(15) 0.146920(11)
N1 N 0.44880(18) -0.00698(19) 0.26043(13)
N2 N 0.48514(19) 0.2062(2) 0.35635(13)
N3 N 0.7339(2) 0.2916(2) 0.00825(14)
C1 C 0.7563(4) 0.1836(3) 0.0298(2)
H1 H 0.7538 0.1392 0.0240
C2 C 0.7802(3) 0.2078(3) 0.0689(2)
H2 H 0.7998 0.1794 0.0876
C3 C 0.4284(3) -0.1121(3) 0.2070(2)
H3 H 0.4210 -0.1481 0.1889
C4 C 0.4836(3) -0.0840(3) 0.20682(19)
H4 H 0.5131 -0.1006 0.1895
C5 C 0.7759(3) 0.2712(3) 0.0809(2)
H5 H 0.7873 0.2862 0.1089
C6 C 0.7131(3) 0.2101(3) -0.0420(2)
C7 C 0.5020(3) 0.3266(3) 0.3969(2)
H6 H 0.5081 0.3672 0.4100
C8 C 0.7527(3) 0.3135(3) 0.04768(19)
C9 C 0.7366(3) 0.2297(3) 0.00056(19)
C10 C 0.5423(3) 0.2778(3) 0.40132(19)
H7 H 0.5753 0.2844 0.4178
C11 C 0.4901(3) -0.0313(3) 0.23388(17)
C12 C 0.4446(3) 0.2542(3) 0.35319(19)
C13 C 0.5709(2) 0.1588(3) 0.38414(19)
C14 C 0.4533(3) 0.3154(3) 0.37332(16)
H8 H 0.4261 0.3481 0.3706
C15 C 0.3857(3) -0.0869(3) 0.2335(2)
H9 H 0.3493 -0.1044 0.2339
C16 C 0.3926(2) 0.2321(2) 0.32953(18)
C17 C 0.5315(2) 0.2182(3) 0.38000(18)
C18 C 0.5446(3) -0.0006(2) 0.24004(18)
C19 C 0.3573(3) -0.0049(3) 0.29243(17)
C20 C 0.7489(3) 0.3866(3) 0.05584(18)
C21 C 0.4003(3) -0.0352(3) 0.25876(17)
O1 O 0.42893(17) 0.25273(17) 0.08083(12)
O2 O 0.52126(17) 0.16241(17) 0.09987(12)
O3 O 0.44128(17) 0.38835(17) 0.10088(12)
O4 O 0.53385(17) 0.30229(17) 0.11283(12)
O5 O 0.7771(2) 0.1053(2) 0.16483(15)
O6 O 0.41319(17) 0.11486(17) 0.07020(12)
O7 O 0.38235(18) 0.35725(18) 0.24338(13)
O8 O 0.7145(2) 0.0457(2) 0.06780(14)
O9 O 0.51327(17) 0.07454(17) 0.03989(12)
O10 O 0.47289(17) 0.27500(18) 0.25061(13)
O11 O 0.45861(18) 0.14232(18) 0.23635(13)
O12 O 0.55513(17) 0.14406(17) 0.18706(12)
O13 O 0.7114(2) -0.1078(2) 0.19318(15)
O14 O 0.55776(19) 0.10839(19) 0.36296(13)
O15 O 0.32293(17) 0.26727(17) 0.08210(12)
O16 O 0.35163(18) 0.09633(19) 0.21391(13)
O17 O 0.50580(17) 0.48508(17) 0.14535(12)
O18 O 0.62983(19) -0.04774(19) 0.12333(14)
O19 O 0.37830(17) 0.20916(17) 0.01299(12)
O20 O 0.62344(17) 0.21462(17) 0.13646(12)
O21 O 0.63677(17) 0.32775(17) 0.09361(12)
O22 O 0.54974(18) 0.18294(18) 0.27704(13)
O23 O 0.47424(17) 0.36405(17) 0.18256(12)
O24 O 0.54828(17) 0.04899(17) 0.12545(12)
O25 O 0.50330(17) 0.32201(17) 0.02126(12)
O26 O 0.57332(17) 0.26787(17) 0.20270(12)
O27 O 0.37198(18) 0.22969(18) 0.21793(13)
O28 O 0.58826(18) 0.13016(18) -0.01993(12)
O29 O 0.49023(17) 0.19785(18) 0.00740(12)
O30 O 0.67973(18) 0.31744(18) 0.18054(13)
O31 O 0.61638(17) 0.36086(18) 0.00682(13)
O32 O 0.58705(17) 0.23906(17) 0.03866(12)
O33 O 0.29875(18) 0.13880(18) 0.06024(13)
O34 O 0.65560(17) 0.08421(17) 0.15077(12)
O35 O 0.7635(2) 0.4063(2) 0.09320(15)
O36 O 0.7101(2) 0.1473(2) -0.05029(17)
O37 O 0.6112(2) 0.1641(2) 0.40957(15)
O38 O 0.4306(2) 0.0926(2) 0.39812(14)
O39 O 0.45199(19) -0.01299(18) 0.09324(13)
O40 O 0.6951(2) 0.2523(2) -0.07011(16)
O41 O 0.58264(17) 0.38720(17) 0.16257(12)
O42 O 0.43300(16) 0.28954(17) -0.04877(12)
O43 O 0.6891(2) 0.0198(2) 0.22872(15)
O44 O 0.55412(18) 0.04100(18) 0.27064(13)
O45 O 0.44241(17) 0.09138(17) 0.15336(12)
O46 O 0.55299(17) 0.41064(17) 0.07660(12)
O47 O 0.7308(2) 0.4203(2) 0.02491(15)
O48 O 0.38960(18) 0.17659(18) 0.31573(13)
O49 O 0.61359(17) 0.12180(17) 0.06925(12)
O50 O 0.38884(17) 0.33917(17) 0.02844(12)
O51 O 0.46402(17) 0.22380(17) 0.17326(12)
O52 O 0.37450(17) 0.32076(17) 0.15371(12)
O53 O 0.32116(16) 0.40143(16) 0.09040(12)
O54 O 0.7215(3) 0.3822(3) -0.13512(17)
O55 O 0.6211(2) 0.4725(2) -0.05498(18)
O56 O 0.8274(2) -0.0037(2) 0.10295(16)
O57 O 0.7431(2) 0.4888(2) -0.06441(17)
O58 O 0.35344(19) 0.27546(19) 0.32600(14)
O59 O 0.3081(2) -0.0284(2) 0.29545(14)
O60 O 0.37575(19) 0.04240(19) 0.31529(14)
O67 O 0.58665(19) -0.02052(19) 0.21359(13)
O68 O 0.36064(17) 0.17371(18) 0.13611(12)
La1C La 0.528248(14) 0.593474(14) 0.184686(10)
La2B La 0.194110(15) 0.120530(16) 0.050530(11)
La2G La 0.694110(15) 0.120530(16) 0.449470(11)
La3F La 0.769520(15) 0.495830(15) 0.146920(11)
La3E La 0.230480(15) -0.004170(15) 0.353080(11)
O17C O 0.49420(17) -0.01492(17) 0.35465(12)
O33B O 0.79875(18) 0.36120(18) -0.06024(13)
O35F O 0.7365(2) -0.0937(2) 0.09320(15)
O37G O 0.6112(2) 0.3359(2) -0.09043(15)
O59E O 0.8081(2) -0.0284(2) 0.20455(14)
O61 O 0.2638(2) 0.2272(2) 0.28804(15)
H10 H 0.2506 0.2373 0.2606
H11 H 0.2828 0.2573 0.3041
O62 O 0.6459(2) 0.4018(2) 0.38762(17)
H12 H 0.6687 0.4219 0.3677
H13 H 0.6431 0.4171 0.4158
O63 O 0.8398(2) -0.0110(2) 0.48257(18)
H14 H 0.8667 -0.0027 0.4619
H15 H 0.8499 -0.0197 0.5111
O64 O 0.3004(2) 0.0045(2) 0.15595(15)
H16 H 0.2747 0.0152 0.1348
H17 H 0.3363 -0.0049 0.1480
O65 O 0.5062(2) 0.0517(2) 0.46896(16)
H18 H 0.5350 0.0711 0.4543
H19 H 0.5107 0.0391 0.4976
O66 O 0.1706(2) 0.1311(2) 0.22369(16)
H20 H 0.1568 0.1119 0.1989
H21 H 0.1734 0.1748 0.2250
O69 O 0.8493(3) 0.4491(3) 0.5160(2)
H22 H 0.8648 0.4781 0.4969
H23 H 0.8649 0.4427 0.5432
O70 O 0.2170(2) -0.0639(2) 0.20337(16)
H24 H 0.1963 -0.0397 0.1843
H25 H 0.2352 -0.0997 0.1935
O71 O 0.9081(3) 0.0753(3) 0.53225(19)
H26 H 0.9352 0.0892 0.5132
H27 H 0.9171 0.0656 0.5608
O72 O 0.1361(2) 0.0050(3) 0.15001(18)
H28 H 0.1248 0.0431 0.1380
H29 H 0.1341 -0.0319 0.1337
loop_
_geom_bond_atom_site_label_1
_geom_bond_atom_site_label_2
_geom_bond_site_symmetry_1
_geom_bond_site_symmetry_2
W1 O2 1_555 1_555
W2 O2 1_555 1_555
W3 O1 1_555 1_555
W4 O11 1_555 1_555
W5 O2 1_555 1_555
W6 O3 1_555 1_555
W7 O1 1_555 1_555
W8 O7 1_555 1_555
W9 O4 1_555 1_555
W10 O10 1_555 1_555
W11 O4 1_555 1_555
W12 O1 1_555 1_555
La1 N1 1_555 1_555
La2 N3 1_555 1_555
La3 O5 1_555 1_555
N1 C11 1_555 1_555
N2 La1 1_555 1_555
N3 C8 1_555 1_555
C1 H1 1_555 1_555
C2 C1 1_555 1_555
H2 C2 1_555 1_555
C3 H3 1_555 1_555
C4 C3 1_555 1_555
H4 C4 1_555 1_555
C5 C2 1_555 1_555
H5 C5 1_555 1_555
C6 C9 1_555 1_555
C7 H6 1_555 1_555
C8 C5 1_555 1_555
C9 N3 1_555 1_555
C10 C7 1_555 1_555
H7 C10 1_555 1_555
C11 C4 1_555 1_555
C12 N2 1_555 1_555
C13 C17 1_555 1_555
C14 C7 1_555 1_555
H8 C14 1_555 1_555
C15 C3 1_555 1_555
H9 C15 1_555 1_555
C16 C12 1_555 1_555
C17 N2 1_555 1_555
C18 C11 1_555 1_555
C19 C21 1_555 1_555
C20 C8 1_555 1_555
C21 N1 1_555 1_555
O3 W3 1_555 1_555
O4 W6 1_555 1_555
O6 W2 1_555 1_555
O8 La3 1_555 1_555
O9 W2 1_555 1_555
O10 W8 1_555 1_555
O11 W10 1_555 1_555
O12 W1 1_555 1_555
O13 La3 1_555 1_555
O14 La1 1_555 1_555
O15 W3 1_555 1_555
O16 W4 1_555 1_555
O17 W6 1_555 1_555
O18 La3 1_555 1_555
O19 W7 1_555 1_555
O20 W1 1_555 1_555
O21 W9 1_555 1_555
O22 W10 1_555 1_555
O23 W6 1_555 1_555
O24 W1 1_555 1_555
O25 W11 1_555 1_555
O26 W9 1_555 1_555
O27 W4 1_555 1_555
O28 W5 1_555 1_555
O29 W5 1_555 1_555
O30 W9 1_555 1_555
O31 W11 1_555 1_555
O32 W5 1_555 1_555
O33 W7 1_555 1_555
O34 W1 1_555 1_555
O35 C20 1_555 1_555
O36 C6 1_555 1_555
O37 C13 1_555 1_555
O38 La1 1_555 1_555
O39 W2 1_555 1_555
O40 La2 1_555 1_555
O41 W6 1_555 1_555
O42 W12 1_555 1_555
O43 La3 1_555 1_555
O44 La1 1_555 1_555
O45 W2 1_555 1_555
O46 W6 1_555 1_555
O47 La2 1_555 1_555
O48 La1 1_555 1_555
O49 W1 1_555 1_555
O50 W3 1_555 1_555
O51 W4 1_555 1_555
O52 W3 1_555 1_555
O53 W3 1_555 1_555
O54 La2 1_555 1_555
O55 La2 1_555 1_555
O56 La3 1_555 1_555
O57 La2 1_555 1_555
O58 C16 1_555 1_555
O59 C19 1_555 1_555
O60 La1 1_555 1_555
O61 H10 1_555 1_555
H11 O61 1_555 1_555
O62 H12 1_555 1_555
H13 O62 1_555 1_555
O63 H14 1_555 1_555
H15 O63 1_555 1_555
O64 H16 1_555 1_555
H17 O64 1_555 1_555
O65 H18 1_555 1_555
H19 O65 1_555 1_555
O66 H20 1_555 1_555
H21 O66 1_555 1_555
O67 C18 1_555 1_555
O68 W4 1_555 1_555
O69 H22 1_555 1_555
H23 O69 1_555 1_555
O70 H24 1_555 1_555
H25 O70 1_555 1_555
O71 H26 1_555 1_555
H27 O71 1_555 1_555
O72 H28 1_555 1_555
H29 O72 1_555 1_555
La1C O17 1_555 1_555
La2B O33 1_555 1_555
La2G O37 1_555 1_555
La3F O35 1_555 1_555
La3E O59 1_555 1_555
O17C La1 1_555 1_555
O33B La2 1_555 1_555
O35F La3 1_555 1_555
O37G La2 1_555 1_555
O59E La3 1_555 1_555
W2 O24 1_555 1_555
W4 O45 1_555 1_555
W5 O9 1_555 1_555
W5 O49 1_555 1_555
W7 O6 1_555 1_555
W7 O15 1_555 1_555
W7 O68 1_555 1_555
W8 O23 1_555 1_555
W8 O27 1_555 1_555
W8 O51 1_555 1_555
W8 O52 1_555 1_555
W9 O20 1_555 1_555
W9 O41 1_555 1_555
W10 O12 1_555 1_555
W10 O26 1_555 1_555
W10 O51 1_555 1_555
W11 O21 1_555 1_555
W11 O32 1_555 1_555
W11 O46 1_555 1_555
W12 O19 1_555 1_555
W12 O25 1_555 1_555
W12 O29 1_555 1_555
W12 O50 1_555 1_555
La1 O11 1_555 1_555
La1 O22 1_555 1_555
La2 O31 1_555 1_555
La3 O34 1_555 1_555
C1 C9 1_555 1_555
C6 O40 1_555 1_555
C10 C17 1_555 1_555
C12 C14 1_555 1_555
C13 O14 1_555 1_555
C15 C21 1_555 1_555
C16 O48 1_555 1_555
C18 O44 1_555 1_555
C19 O60 1_555 1_555
C20 O47 1_555 1_555

#END
