
#######################################################################
#
#                 Cambridge Crystallographic Data Centre
#                                CCDC 
#
#######################################################################
#
# If this CIF has been generated from an entry in the Cambridge 
# Structural Database, then it will include bibliographic, chemical, 
# crystal, experimental, refinement or atomic coordinate data resulting 
# from the CCDC's data processing and validation procedures.
#
#######################################################################

data_DUYRAR
_symmetry_cell_setting           orthorhombic
_symmetry_space_group_name_H-M   'P b c a'
_symmetry_Int_Tables_number      61
_space_group_name_Hall           '-P 2ac 2ab'
loop_
_symmetry_equiv_pos_site_id
_symmetry_equiv_pos_as_xyz
1 x,y,z
2 1/2-x,-y,1/2+z
3 1/2+x,1/2-y,-z
4 -x,1/2+y,1/2-z
5 -x,-y,-z
6 1/2+x,y,1/2-z
7 1/2-x,1/2+y,z
8 x,1/2-y,1/2+z
_cell_length_a                   23.426(5)
_cell_length_b                   20.471(5)
_cell_length_c                   29.406(5)
_cell_angle_alpha                90
_cell_angle_beta                 90
_cell_angle_gamma                90
_cell_volume                     14101.8
loop_
_atom_site_label
_atom_site_type_symbol
_atom_site_fract_x
_atom_site_fract_y
_atom_site_fract_z
O60 O 0.7835(5) 0.4335(6) 0.7967(4)
H10 H 0.7809 0.3982 0.7785
H11 H 0.7527 0.4476 0.8120
O63 O 0.8005(6) 0.4895(7) 0.3409(5)
H12 H 0.7687 0.4891 0.3236
H13 H 0.8351 0.4896 0.3276
O64 O 0.6479(8) 0.0972(10) 0.3842(6)
H14 H 0.6137 0.0988 0.3703
H15 H 0.6724 0.0646 0.3779
O65 O 1.2434(6) 0.7799(7) 0.2880(5)
H16 H 1.2510 0.7479 0.2679
H17 H 1.2471 0.8220 0.2798
O66 O 1.1515(5) 0.9479(5) 0.4859(4)
H18 H 1.1615 0.9299 0.4592
H19 H 1.1502 0.9916 0.4889
O68 O 0.6620(5) 1.0106(6) 0.4797(4)
H20 H 0.6557 0.9963 0.4512
H21 H 0.6471 1.0489 0.4889
O69 O 0.8670(5) 0.9973(6) 0.3444(4)
H22 H 0.8697 0.9774 0.3172
H23 H 0.8553 1.0391 0.3461
O70 O 0.9110(5) 0.4278(5) 0.5333(4)
H24 H 0.9272 0.3916 0.5217
H25 H 0.8832 0.4484 0.5178
O71 O 0.9940(4) 0.9475(5) 0.4703(3)
H26 H 0.9992 0.9302 0.4425
H27 H 0.9862 0.9903 0.4734
O72 O 0.8223(5) 0.6298(6) 0.7708(4)
H28 H 0.8062 0.6053 0.7488
H29 H 0.8018 0.6612 0.7846
W1 W 0.59850(2) 0.12968(3) 0.631210(17)
W2 W 0.47736(2) 0.06572(3) 0.600480(18)
W3 W 0.35954(2) 0.18042(2) 0.575770(17)
W4 W 0.37150(2) 0.33897(3) 0.592460(18)
W5 W 0.51228(2) 0.40302(3) 0.628130(18)
W6 W 0.40323(3) 0.15168(3) 0.694840(17)
W7 W 0.57757(2) 0.32557(3) 0.546920(18)
W8 W 0.42417(3) 0.30996(3) 0.709640(18)
W9 W 0.55392(2) 0.14939(3) 0.527720(17)
W10 W 0.52845(3) 0.20759(3) 0.727600(18)
W11 W 0.43725(2) 0.26878(3) 0.505800(17)
W12 W 0.61955(2) 0.30648(3) 0.651230(18)
Nd1 Nd 0.53228(3) 0.59056(3) 0.68263(2)
Nd2 Nd 0.19389(3) 0.12139(4) 0.55194(3)
Nd3 Nd 0.77140(3) 0.49314(4) 0.64459(2)
N1 N 0.5534(5) 0.4954(5) 0.7388(3)
N2 N 0.5183(5) 0.7031(6) 0.6460(4)
C1 C 0.2344(7) 0.2722(8) 0.5035(6)
C2 C 0.2574(8) 0.3180(8) 0.4748(6)
H1 H 0.2580 0.3621 0.4823
C3 C 0.2794(8) 0.2961(8) 0.4347(6)
H2 H 0.2960 0.3258 0.4147
C4 C 0.2774(7) 0.2322(8) 0.4234(6)
H3 H 0.2908 0.2179 0.3954
C5 C 0.2542(7) 0.1869(8) 0.4556(5)
C6 C 0.2113(8) 0.2880(8) 0.5489(6)
C7 C 0.2508(6) 0.1151(8) 0.4466(5)
C8 C 0.4705(7) 0.7146(7) 0.6224(5)
C9 C 0.4585(7) 0.7732(7) 0.6014(5)
H4 H 0.4252 0.7786 0.5846
C10 C 0.4982(7) 0.8254(8) 0.6060(5)
H5 H 0.4907 0.8662 0.5936
C11 C 0.5488(7) 0.8137(7) 0.6297(5)
H6 H 0.5765 0.8459 0.6327
C12 C 0.5563(7) 0.7506(7) 0.6492(5)
C13 C 0.4334(7) 0.6558(7) 0.6177(5)
C14 C 0.6104(7) 0.7272(7) 0.6703(5)
C15 C 0.6044(6) 0.4664(7) 0.7393(4)
C16 C 0.6158(7) 0.4127(7) 0.7670(5)
H7 H 0.6514 0.3926 0.7665
C17 C 0.5726(7) 0.3899(8) 0.7953(5)
H8 H 0.5794 0.3549 0.8147
C18 C 0.5206(6) 0.4190(7) 0.7946(5)
H9 H 0.4912 0.4041 0.8132
C19 C 0.5121(6) 0.4715(7) 0.7655(4)
C20 C 0.4556(6) 0.5039(7) 0.7577(4)
C21 C 0.6447(6) 0.4936(6) 0.7052(4)
O1 O 0.5370(4) 0.3025(4) 0.6109(3)
O2 O 0.4293(4) 0.2528(4) 0.5807(3)
O3 O 0.4676(4) 0.2234(4) 0.6741(3)
O4 O 0.5225(4) 0.1608(4) 0.5991(3)
O5 O 0.2157(6) 0.1088(6) 0.6341(4)
O6 O 0.8095(4) 0.5154(5) 0.7239(4)
O7 O 0.3548(4) 0.0993(4) 0.7191(3)
O8 O 0.5120(4) 0.0724(4) 0.5396(3)
O9 O 0.6136(5) 0.6713(5) 0.6835(4)
O10 O 0.6940(5) 0.4698(5) 0.7009(3)
O11 O 0.4473(5) 0.6048(5) 0.6368(3)
O12 O 0.6847(4) 0.3177(5) 0.6773(3)
O13 O 0.4298(4) 0.2867(5) 0.4493(3)
O14 O 0.5848(4) 0.1277(5) 0.4777(3)
O15 O 0.6574(4) 0.0829(5) 0.6480(3)
O16 O 0.2967(4) 0.1399(4) 0.5643(3)
O17 O 0.5866(4) 0.2371(4) 0.5362(3)
O18 O 0.3227(4) 0.4017(4) 0.5918(3)
O19 O 0.3774(4) 0.2318(4) 0.7210(3)
O20 O 0.7863(5) 0.5405(5) 0.5672(3)
O21 O 0.4517(4) -0.0119(4) 0.5948(3)
O22 O 0.4429(4) 0.3894(4) 0.6002(3)
O23 O 0.5625(5) 0.1884(5) 0.7779(3)
O24 O 0.3890(4) 0.3601(5) 0.7459(3)
O25 O 0.4157(5) 0.4849(5) 0.7865(3)
O26 O 0.6254(4) 0.5393(5) 0.6804(3)
O27 O 0.3789(4) 0.3215(4) 0.6556(3)
O28 O 0.4792(4) 0.2756(4) 0.7515(3)
O29 O 0.4889(4) 0.1959(4) 0.5060(3)
O30 O 0.2408(5) 0.0126(5) 0.5647(4)
O31 O 0.6405(4) 0.3269(4) 0.5902(3)
O32 O 0.6508(5) 0.7703(5) 0.6757(4)
O33 O 0.6161(4) 0.3585(5) 0.5016(3)
O34 O 0.5768(4) 0.2687(4) 0.7018(3)
O35 O 0.3868(5) 0.6626(5) 0.5941(4)
O36 O 0.5603(4) 0.1447(4) 0.6883(3)
O37 O 0.5717(4) 0.5925(5) 0.6004(3)
O38 O 0.4135(4) 0.1144(4) 0.5726(3)
O39 O 0.3621(4) 0.1741(4) 0.6394(3)
O40 O 0.1219(5) 0.0317(5) 0.5569(4)
O41 O 0.5094(4) 0.4850(4) 0.6432(3)
O42 O 0.5043(4) 0.3205(5) 0.5192(3)
O43 O 0.4489(4) 0.5427(5) 0.7275(3)
O44 O 0.4637(4) 0.1451(4) 0.7396(3)
O45 O 0.7253(5) 0.6003(5) 0.6602(4)
O46 O 0.2668(5) 0.0964(5) 0.4085(4)
O47 O 0.5494(4) 0.0486(4) 0.6250(3)
O48 O 0.7890(5) 0.3895(5) 0.6905(3)
O49 O 0.3754(4) 0.2079(4) 0.5146(3)
O50 O 0.4439(4) 0.0931(4) 0.6568(3)
O51 O 0.6750(5) 0.4920(6) 0.6020(4)
O52 O 0.6269(4) 0.2137(4) 0.6341(3)
O53 O 0.8695(4) 0.4513(5) 0.6240(3)
O54 O 0.3242(4) 0.2663(4) 0.5843(3)
O55 O 0.3898(4) 0.3386(4) 0.5278(3)
O56 O 0.5539(4) 0.4116(4) 0.5729(3)
O57 O 0.4781(4) 0.3650(4) 0.6828(3)
O58 O 0.5867(4) 0.3882(4) 0.6603(3)
O59 O 0.6155(4) 0.1196(4) 0.5665(3)
O61 O 0.1936(5) 0.2462(5) 0.5737(4)
O62 O 0.2320(5) 0.0806(5) 0.4778(3)
O67 O 0.2091(5) 0.3505(6) 0.5576(4)
N3 N 0.2325(5) 0.2080(6) 0.4945(3)
Nd1C Nd 0.46772(3) 0.09056(3) 0.81737(2)
Nd2B Nd 0.69389(3) 0.37861(4) 0.44806(3)
Nd2F Nd 0.30611(3) 0.62139(4) 0.55194(3)
Nd3F Nd 0.72860(3) -0.00686(4) 0.64459(2)
Nd3B Nd 0.27140(3) 0.00686(4) 0.35541(2)
O15F O 0.8426(4) 0.5829(5) 0.6480(3)
O33B O 0.1161(4) 0.1415(5) 0.4984(3)
O35F O 0.1132(5) 0.1626(5) 0.5941(4)
O44C O 0.5363(4) 0.6451(4) 0.7604(3)
O46B O 0.7668(5) 0.4036(5) 0.5915(4)
loop_
_geom_bond_atom_site_label_1
_geom_bond_atom_site_label_2
_geom_bond_site_symmetry_1
_geom_bond_site_symmetry_2
W1 O4 1_555 1_555
W2 O4 1_555 1_555
W3 O2 1_555 1_555
W4 O2 1_555 1_555
W5 O1 1_555 1_555
W6 O3 1_555 1_555
W7 O1 1_555 1_555
W8 O3 1_555 1_555
W9 O4 1_555 1_555
W10 O3 1_555 1_555
W11 O2 1_555 1_555
W12 O1 1_555 1_555
Nd1 N1 1_555 1_555
Nd2 O5 1_555 1_555
Nd3 O6 1_555 1_555
N1 C15 1_555 1_555
N2 Nd1 1_555 1_555
C1 C2 1_555 1_555
C2 H1 1_555 1_555
C3 C2 1_555 1_555
H2 C3 1_555 1_555
C4 C3 1_555 1_555
H3 C4 1_555 1_555
C5 C4 1_555 1_555
C6 C1 1_555 1_555
C7 C5 1_555 1_555
C8 N2 1_555 1_555
C9 C8 1_555 1_555
H4 C9 1_555 1_555
C10 C9 1_555 1_555
H5 C10 1_555 1_555
C11 C10 1_555 1_555
H6 C11 1_555 1_555
C12 N2 1_555 1_555
C13 C8 1_555 1_555
C14 C12 1_555 1_555
C15 C16 1_555 1_555
C16 H7 1_555 1_555
C17 C16 1_555 1_555
H8 C17 1_555 1_555
C18 C17 1_555 1_555
H9 C18 1_555 1_555
C19 N1 1_555 1_555
C20 C19 1_555 1_555
C21 C15 1_555 1_555
O7 W6 1_555 1_555
O8 W2 1_555 1_555
O9 Nd1 1_555 1_555
O10 Nd3 1_555 1_555
O11 Nd1 1_555 1_555
O12 W12 1_555 1_555
O13 W11 1_555 1_555
O14 W9 1_555 1_555
O15 W1 1_555 1_555
O16 W3 1_555 1_555
O17 W7 1_555 1_555
O18 W4 1_555 1_555
O19 W6 1_555 1_555
O20 Nd3 1_555 1_555
O21 W2 1_555 1_555
O22 W4 1_555 1_555
O23 W10 1_555 1_555
O24 W8 1_555 1_555
O25 C20 1_555 1_555
O26 Nd1 1_555 1_555
O27 W4 1_555 1_555
O28 W8 1_555 1_555
O29 W9 1_555 1_555
O30 Nd2 1_555 1_555
O31 W7 1_555 1_555
O32 C14 1_555 1_555
O33 W7 1_555 1_555
O34 W10 1_555 1_555
O35 C13 1_555 1_555
O36 W1 1_555 1_555
O37 Nd1 1_555 1_555
O38 W2 1_555 1_555
O39 W3 1_555 1_555
O40 Nd2 1_555 1_555
O41 W5 1_555 1_555
O42 W7 1_555 1_555
O43 Nd1 1_555 1_555
O44 W6 1_555 1_555
O45 Nd3 1_555 1_555
O46 C7 1_555 1_555
O47 W1 1_555 1_555
O48 Nd3 1_555 1_555
O49 W3 1_555 1_555
O50 W2 1_555 1_555
O51 Nd3 1_555 1_555
O52 W1 1_555 1_555
O53 Nd3 1_555 1_555
O54 W3 1_555 1_555
O55 W4 1_555 1_555
O56 W5 1_555 1_555
O57 W5 1_555 1_555
O58 W5 1_555 1_555
O59 W1 1_555 1_555
O60 H10 1_555 1_555
H11 O60 1_555 1_555
O61 Nd2 1_555 1_555
O62 Nd2 1_555 1_555
O63 H12 1_555 1_555
H13 O63 1_555 1_555
O64 H14 1_555 1_555
H15 O64 1_555 1_555
O65 H16 1_555 1_555
H17 O65 1_555 1_555
O66 H18 1_555 1_555
H19 O66 1_555 1_555
O67 C6 1_555 1_555
O68 H20 1_555 1_555
H21 O68 1_555 1_555
O69 H22 1_555 1_555
H23 O69 1_555 1_555
O70 H24 1_555 1_555
H25 O70 1_555 1_555
O71 H26 1_555 1_555
H27 O71 1_555 1_555
O72 H28 1_555 1_555
H29 O72 1_555 1_555
N3 Nd2 1_555 1_555
Nd1C O44 1_555 1_555
Nd2B O33 1_555 1_555
Nd2F O35 1_555 1_555
Nd3F O15 1_555 1_555
Nd3B O46 1_555 1_555
O15F Nd3 1_555 1_555
O33B Nd2 1_555 1_555
O35F Nd2 1_555 1_555
O44C Nd1 1_555 1_555
O46B Nd3 1_555 1_555
W2 O47 1_555 1_555
W3 O38 1_555 1_555
W4 O54 1_555 1_555
W5 O22 1_555 1_555
W6 O39 1_555 1_555
W6 O50 1_555 1_555
W7 O56 1_555 1_555
W8 O19 1_555 1_555
W8 O27 1_555 1_555
W8 O57 1_555 1_555
W9 O8 1_555 1_555
W9 O17 1_555 1_555
W9 O59 1_555 1_555
W10 O28 1_555 1_555
W10 O36 1_555 1_555
W10 O44 1_555 1_555
W11 O29 1_555 1_555
W11 O42 1_555 1_555
W11 O49 1_555 1_555
W11 O55 1_555 1_555
W12 O31 1_555 1_555
W12 O34 1_555 1_555
W12 O52 1_555 1_555
W12 O58 1_555 1_555
Nd1 O41 1_555 1_555
Nd2 O16 1_555 1_555
C1 N3 1_555 1_555
C5 N3 1_555 1_555
C6 O61 1_555 1_555
C7 O62 1_555 1_555
C11 C12 1_555 1_555
C13 O11 1_555 1_555
C14 O9 1_555 1_555
C18 C19 1_555 1_555
C20 O43 1_555 1_555
C21 O10 1_555 1_555
C21 O26 1_555 1_555

#END
