
#######################################################################
#
#                 Cambridge Crystallographic Data Centre
#                                CCDC 
#
#######################################################################
#
# If this CIF has been generated from an entry in the Cambridge 
# Structural Database, then it will include bibliographic, chemical, 
# crystal, experimental, refinement or atomic coordinate data resulting 
# from the CCDC's data processing and validation procedures.
#
#######################################################################

data_DUYSEW
_symmetry_cell_setting           orthorhombic
_symmetry_space_group_name_H-M   'P b c a'
_symmetry_Int_Tables_number      61
_space_group_name_Hall           '-P 2ac 2ab'
loop_
_symmetry_equiv_pos_site_id
_symmetry_equiv_pos_as_xyz
1 x,y,z
2 1/2-x,-y,1/2+z
3 -x,1/2+y,1/2-z
4 1/2+x,1/2-y,-z
5 -x,-y,-z
6 1/2+x,y,1/2-z
7 x,1/2-y,1/2+z
8 1/2-x,1/2+y,z
_cell_length_a                   16.7617(2)
_cell_length_b                   16.4570(2)
_cell_length_c                   19.1902(2)
_cell_angle_alpha                90
_cell_angle_beta                 90
_cell_angle_gamma                90
_cell_volume                     5293.56
loop_
_atom_site_label
_atom_site_type_symbol
_atom_site_fract_x
_atom_site_fract_y
_atom_site_fract_z
Ag1 Ag 0.136098(13) 0.742887(13) 0.251340(11)
N1 N 0.45573(14) 0.33784(13) 0.24133(11)
N2 N 0.62239(12) 0.57238(12) 0.15356(11)
N3 N 0.64655(12) 0.65457(12) 0.15121(11)
N4 N 0.55060(13) 0.62146(14) 0.01131(11)
N5 N 0.49834(13) 0.64890(15) 0.06329(11)
N6 N 0.23830(13) 0.70729(16) 0.18347(12)
C1 C 0.53681(17) 0.42118(16) 0.16852(13)
H1 H 0.5623 0.4286 0.1254
C2 C 0.49230(18) 0.35260(16) 0.18059(14)
H2 H 0.4872 0.3142 0.1446
C3 C 0.46500(18) 0.39280(18) 0.29141(14)
H3 H 0.4408 0.3828 0.3348
C4 C 0.50776(17) 0.46321(18) 0.28348(14)
H4 H 0.5125 0.5002 0.3205
C5 C 0.54386(15) 0.47889(15) 0.21999(13)
C6 C 0.58396(15) 0.55695(15) 0.20912(13)
H5 H 0.5812 0.5967 0.2442
C7 C 0.64742(14) 0.68461(15) 0.08938(12)
C8 C 0.66614(14) 0.77242(15) 0.08247(12)
C9 C 0.72739(16) 0.80699(16) 0.12121(14)
H6 H 0.7607 0.7740 0.1486
C10 C 0.73900(18) 0.89018(18) 0.11917(16)
H7 H 0.7802 0.9138 0.1455
C11 C 0.69047(19) 0.93874(17) 0.07878(16)
H8 H 0.6982 0.9953 0.0783
C12 C 0.63089(17) 0.90468(17) 0.03915(15)
H9 H 0.5983 0.9380 0.0113
C13 C 0.61873(15) 0.82123(16) 0.04012(13)
H10 H 0.5787 0.7978 0.0123
C14 C 0.62375(15) 0.63732(15) 0.02515(13)
C15 C 0.68613(15) 0.61280(15) -0.02464(13)
C16 C 0.76581(17) 0.63247(18) -0.01384(15)
H11 H 0.7809 0.6614 0.0263
C17 C 0.82300(19) 0.6096(2) -0.06216(18)
H12 H 0.8769 0.6228 -0.0547
C18 C 0.8011(2) 0.5678(3) -0.12048(19)
H13 H 0.8400 0.5530 -0.1534
C19 C 0.7222(2) 0.5470(3) -0.13178(18)
H14 H 0.7077 0.5182 -0.1721
C20 C 0.66495(19) 0.5686(2) -0.08374(15)
H15 H 0.6115 0.5535 -0.0908
C21 C 0.42642(16) 0.64077(19) 0.04730(14)
H16 H 0.4131 0.6189 0.0035
C22 C 0.36268(15) 0.66441(19) 0.09501(14)
C23 C 0.37729(18) 0.6879(3) 0.16212(17)
H17 H 0.4298 0.6892 0.1793
C24 C 0.3148(2) 0.7094(3) 0.20387(17)
H18 H 0.3260 0.7266 0.2495
C25 C 0.22495(17) 0.6849(2) 0.11846(15)
H19 H 0.1720 0.6839 0.1023
C26 C 0.28457(17) 0.6630(2) 0.07351(15)
H20 H 0.2720 0.6470 0.0278
Ag1E Ag 0.636098(13) 0.742887(13) 0.248660(11)
Ag1G Ag 0.363902(13) 0.242887(13) 0.251340(11)
N1G N 0.04427(14) 0.83784(13) 0.24133(11)
N3E N 0.14655(12) 0.65457(12) 0.34879(11)
Cl1 Cl 0.95263(5) 0.65091(4) 0.10921(4)
O1 O 1.02412(18) 0.66229(15) 0.14690(17)
O2 O 0.8873(2) 0.6411(3) 0.1509(2)
O3 O 0.94072(18) 0.71822(15) 0.06407(14)
O4 O 0.96172(18) 0.57873(16) 0.06943(14)
loop_
_geom_bond_atom_site_label_1
_geom_bond_atom_site_label_2
_geom_bond_site_symmetry_1
_geom_bond_site_symmetry_2
Ag1 N6 1_555 1_555
N1 C2 1_555 1_555
N2 N3 1_555 1_555
N3 C7 1_555 1_555
N4 N5 1_555 1_555
N5 C21 1_555 1_555
N6 C24 1_555 1_555
C1 H1 1_555 1_555
C2 C1 1_555 1_555
H2 C2 1_555 1_555
C3 N1 1_555 1_555
H3 C3 1_555 1_555
C4 C3 1_555 1_555
H4 C4 1_555 1_555
C5 C1 1_555 1_555
C6 N2 1_555 1_555
H5 C6 1_555 1_555
C7 C8 1_555 1_555
C8 C9 1_555 1_555
C9 H6 1_555 1_555
C10 C9 1_555 1_555
H7 C10 1_555 1_555
C11 C10 1_555 1_555
H8 C11 1_555 1_555
C12 C11 1_555 1_555
H9 C12 1_555 1_555
C13 C8 1_555 1_555
H10 C13 1_555 1_555
C14 N4 1_555 1_555
C15 C14 1_555 1_555
C16 C15 1_555 1_555
H11 C16 1_555 1_555
C17 C16 1_555 1_555
H12 C17 1_555 1_555
C18 C17 1_555 1_555
H13 C18 1_555 1_555
C19 C18 1_555 1_555
H14 C19 1_555 1_555
C20 C15 1_555 1_555
H15 C20 1_555 1_555
C21 H16 1_555 1_555
C22 C21 1_555 1_555
C23 C22 1_555 1_555
H17 C23 1_555 1_555
C24 C23 1_555 1_555
H18 C24 1_555 1_555
C25 N6 1_555 1_555
H19 C25 1_555 1_555
C26 C22 1_555 1_555
H20 C26 1_555 1_555
Cl1 O1 1_555 1_555
O2 Cl1 1_555 1_555
O3 Cl1 1_555 1_555
O4 Cl1 1_555 1_555
Ag1E N3 1_555 1_555
Ag1G N1 1_555 1_555
N1G Ag1 1_555 1_555
N3E Ag1 1_555 1_555
C4 C5 1_555 1_555
C5 C6 1_555 1_555
C7 C14 1_555 1_555
C12 C13 1_555 1_555
C19 C20 1_555 1_555
C25 C26 1_555 1_555

#END
