
#######################################################################
#
#                 Cambridge Crystallographic Data Centre
#                                CCDC 
#
#######################################################################
#
# If this CIF has been generated from an entry in the Cambridge 
# Structural Database, then it will include bibliographic, chemical, 
# crystal, experimental, refinement or atomic coordinate data resulting 
# from the CCDC's data processing and validation procedures.
#
#######################################################################

data_DUYSUM
_symmetry_cell_setting           monoclinic
_symmetry_space_group_name_H-M   'P 21/c'
_symmetry_Int_Tables_number      14
_space_group_name_Hall           '-P 2ybc'
loop_
_symmetry_equiv_pos_site_id
_symmetry_equiv_pos_as_xyz
1 x,y,z
2 -x,1/2+y,1/2-z
3 -x,-y,-z
4 x,1/2-y,1/2+z
_cell_length_a                   25.062(7)
_cell_length_b                   9.816(3)
_cell_length_c                   23.111(7)
_cell_angle_alpha                90
_cell_angle_beta                 106.780(6)
_cell_angle_gamma                90
_cell_volume                     5443.42
loop_
_atom_site_label
_atom_site_type_symbol
_atom_site_fract_x
_atom_site_fract_y
_atom_site_fract_z
Zn1 Zn -1.30328(3) 1.11889(7) -0.68560(3)
C1 C -1.1964(2) 0.8680(6) -0.7686(3)
H1 H -1.1939 0.7750 -0.7749
N1 N -1.23982(19) 1.0494(4) -0.7291(2)
C2 C -1.2328(3) 0.9151(6) -0.7385(3)
H2 H -1.2534 0.8520 -0.7239
N2 N -1.1140(2) 0.7831(5) -0.8220(2)
C3 C -1.2071(3) 1.1319(6) -0.7494(3)
H3 H -1.2092 1.2245 -0.7419
N3 N -1.0721(2) 0.7561(5) -0.8501(2)
C4 C -1.1706(3) 1.0921(6) -0.7801(3)
H4 H -1.1504 1.1564 -0.7947
N4 N -1.1064(2) 0.4471(4) -0.8177(2)
C5 C -1.1644(3) 0.9549(6) -0.7892(3)
N5 N -1.1262(2) 0.4348(5) -0.8796(2)
C6 C -1.1242(3) 0.9073(6) -0.8184(3)
H5 H -1.1054 0.9707 -0.8351
N6 N -1.25028(19) 0.4394(4) -1.0948(2)
N7 N -1.36719(19) 1.1820(4) -0.6408(2)
N8 N -1.5410(2) 1.3175(4) -0.5898(2)
N9 N -1.57883(19) 1.3847(5) -0.5655(2)
C7 C -1.0510(2) 0.6367(6) -0.8369(3)
C8 C -1.0059(3) 0.5921(6) -0.8616(3)
C9 C -0.9765(3) 0.4726(6) -0.8427(3)
H6 H -0.9860 0.4179 -0.8144
C10 C -0.9323(3) 0.4324(7) -0.8656(3)
H7 H -0.9111 0.3559 -0.8501
C11 C -0.9215(3) 0.5036(8) -0.9087(4)
H8 H -0.8937 0.4745 -0.9251
C12 C -0.9500(4) 0.6183(9) -0.9297(4)
H9 H -0.9416 0.6675 -0.9603
C13 C -0.9928(3) 0.6646(8) -0.9055(4)
H10 H -1.0118 0.7447 -0.9198
N10 N -1.5602(2) 1.0963(4) -0.4934(2)
N11 N -1.5231(2) 1.1840(5) -0.4543(2)
N12 N -1.36152(18) 1.2974(4) -0.2692(2)
C14 C -1.0701(2) 0.5395(6) -0.7961(3)
C15 C -1.0463(3) 0.5545(6) -0.7302(3)
C16 C -1.0729(3) 0.4940(7) -0.6917(3)
H11 H -1.1054 0.4439 -0.7073
C17 C -1.0506(4) 0.5091(8) -0.6307(3)
H12 H -1.0685 0.4657 -0.6057
C18 C -1.0038(4) 0.5837(8) -0.6036(4)
H13 H -0.9902 0.5916 -0.5618
C19 C -0.9775(3) 0.6479(7) -0.6428(3)
H14 H -0.9454 0.6993 -0.6268
C20 C -0.9991(3) 0.6348(6) -0.7044(3)
H15 H -0.9820 0.6802 -0.7296
C21 C -1.1694(3) 0.4990(6) -0.9072(3)
H16 H -1.1848 0.5592 -0.8854
C22 C -1.1962(3) 0.4835(6) -0.9710(3)
C23 C -1.2407(3) 0.5579(6) -1.0019(3)
H17 H -1.2542 0.6260 -0.9819
C24 C -1.2666(3) 0.5352(6) -1.0626(3)
H18 H -1.2970 0.5894 -1.0819
C25 C -1.2054(2) 0.3703(6) -1.0644(3)
H19 H -1.1915 0.3056 -1.0857
C26 C -1.1778(2) 0.3865(7) -1.0042(3)
H20 H -1.1469 0.3327 -0.9859
C27 C -1.3923(2) 1.3166(5) -0.5672(3)
H21 H -1.3810 1.3689 -0.5322
C28 C -1.3531(3) 1.2603(5) -0.5926(3)
H22 H -1.3156 1.2789 -0.5748
C29 C -1.4214(3) 1.1616(6) -0.6660(3)
H23 H -1.4316 1.1087 -0.7009
C30 C -1.4634(3) 1.2115(5) -0.6454(3)
H24 H -1.5006 1.1915 -0.6645
C31 C -1.4477(3) 1.2934(5) -0.5945(3)
C32 C -1.4906(3) 1.3514(6) -0.5705(3)
H25 H -1.4802 1.4159 -0.5398
C33 C -1.6506(2) 1.3694(6) -0.5183(3)
C34 C -1.6062(2) 1.3087(5) -0.5396(3)
C35 C -1.6904(3) 1.4523(6) -0.5556(3)
H26 H -1.6886 1.4733 -0.5942
C36 C -1.7334(3) 1.5042(6) -0.5352(3)
H27 H -1.7606 1.5591 -0.5604
C37 C -1.7359(3) 1.4741(6) -0.4768(3)
H28 H -1.7643 1.5096 -0.4628
C38 C -1.6968(3) 1.3935(6) -0.4413(3)
H29 H -1.6984 1.3728 -0.4026
C39 C -1.6544(3) 1.3408(5) -0.4615(3)
H30 H -1.6279 1.2848 -0.4361
C40 C -1.5985(2) 1.1565(5) -0.5341(3)
C41 C -1.6404(3) 1.0751(5) -0.5759(3)
C42 C -1.6709(3) 1.1266(7) -0.6299(3)
H31 H -1.6641 1.2155 -0.6398
C43 C -1.7121(3) 1.0510(7) -0.6711(4)
H32 H -1.7320 1.0871 -0.7083
C44 C -1.7219(3) 0.9231(8) -0.6546(4)
H33 H -1.7497 0.8726 -0.6814
C45 C -1.6937(3) 0.8643(8) -0.6017(4)
H34 H -1.7017 0.7760 -0.5923
C46 C -1.6515(3) 0.9420(6) -0.5611(3)
H35 H -1.6312 0.9043 -0.5245
C47 C -1.4886(2) 1.1211(6) -0.4121(3)
H36 H -1.4912 1.0265 -0.4122
C48 C -1.4457(2) 1.1822(5) -0.3640(3)
C49 C -1.4166(2) 1.1054(6) -0.3153(3)
H37 H -1.4248 1.0134 -0.3134
C50 C -1.3752(2) 1.1640(6) -0.2692(3)
H38 H -1.3560 1.1098 -0.2369
C51 C -1.3901(2) 1.3686(6) -0.3177(3)
H39 H -1.3811 1.4601 -0.3195
C52 C -1.4315(3) 1.3164(6) -0.3646(3)
H40 H -1.4499 1.3719 -0.3967
S1 S -1.20942(9) 1.55741(19) -0.66333(10)
C53 C -1.2415(3) 1.4127(6) -0.6666(3)
N13 N -1.2636(2) 1.3104(4) -0.6696(2)
S2 S -1.41298(12) 0.7129(2) -0.71021(11)
C54 C -1.3714(3) 0.8414(6) -0.7055(3)
N14 N -1.3416(2) 0.9299(4) -0.7013(2)
Zn1C Zn -1.30328(3) 0.38111(7) -1.18560(3)
Zn1C_2 Zn -1.30328(3) 1.38111(7) -0.18560(3)
N6C N -1.25028(19) 1.0606(4) -0.5948(2)
N12C N -1.36152(18) 1.2026(4) -0.7692(2)
N15 N -1.1232(8) 1.4336(15) -0.4822(8)
C55 C -1.1175(11) 1.5388(15) -0.5075(11)
C56 C -1.1168(9) 1.6895(14) -0.5214(9)
H41 H -1.1539 1.7194 -0.5418
H42 H -1.0930 1.7052 -0.5467
H43 H -1.1029 1.7394 -0.4843
C57? C -1.1216(12) 1.5354(15) -0.5019(13)
C58? C -1.1368(9) 1.6852(15) -0.5056(10)
H44? H -1.1752 1.6950 -0.5065
H45? H -1.1314 1.7235 -0.5417
H46? H -1.1135 1.7318 -0.4710
N16? N -1.1079(7) 1.4200(14) -0.5104(8)
loop_
_geom_bond_atom_site_label_1
_geom_bond_atom_site_label_2
_geom_bond_site_symmetry_1
_geom_bond_site_symmetry_2
Zn1 N1 1_555 1_555
C1 H1 1_555 1_555
N1 C2 1_555 1_555
C2 C1 1_555 1_555
H2 C2 1_555 1_555
N2 N3 1_555 1_555
C3 N1 1_555 1_555
H3 C3 1_555 1_555
N3 C7 1_555 1_555
C4 C3 1_555 1_555
H4 C4 1_555 1_555
N4 N5 1_555 1_555
C5 C1 1_555 1_555
N5 C21 1_555 1_555
C6 N2 1_555 1_555
H5 C6 1_555 1_555
N6 C24 1_555 1_555
N7 Zn1 1_555 1_555
N8 N9 1_555 1_555
N9 C34 1_555 1_555
C7 C8 1_555 1_555
C8 C9 1_555 1_555
C9 H6 1_555 1_555
C10 C9 1_555 1_555
H7 C10 1_555 1_555
C11 C10 1_555 1_555
H8 C11 1_555 1_555
C12 C11 1_555 1_555
H9 C12 1_555 1_555
C13 C8 1_555 1_555
H10 C13 1_555 1_555
N10 N11 1_555 1_555
N11 C47 1_555 1_555
N12 C50 1_555 1_555
C14 N4 1_555 1_555
C15 C14 1_555 1_555
C16 C15 1_555 1_555
H11 C16 1_555 1_555
C17 C16 1_555 1_555
H12 C17 1_555 1_555
C18 C17 1_555 1_555
H13 C18 1_555 1_555
C19 C18 1_555 1_555
H14 C19 1_555 1_555
C20 C15 1_555 1_555
H15 C20 1_555 1_555
C21 H16 1_555 1_555
C22 C21 1_555 1_555
C23 C22 1_555 1_555
H17 C23 1_555 1_555
C24 C23 1_555 1_555
H18 C24 1_555 1_555
C25 N6 1_555 1_555
H19 C25 1_555 1_555
C26 C22 1_555 1_555
H20 C26 1_555 1_555
C27 H21 1_555 1_555
C28 N7 1_555 1_555
H22 C28 1_555 1_555
C29 N7 1_555 1_555
H23 C29 1_555 1_555
C30 C29 1_555 1_555
H24 C30 1_555 1_555
C31 C27 1_555 1_555
C32 N8 1_555 1_555
H25 C32 1_555 1_555
C33 C34 1_555 1_555
C34 C40 1_555 1_555
C35 C33 1_555 1_555
H26 C35 1_555 1_555
C36 C35 1_555 1_555
H27 C36 1_555 1_555
C37 C36 1_555 1_555
H28 C37 1_555 1_555
C38 C37 1_555 1_555
H29 C38 1_555 1_555
C39 C33 1_555 1_555
H30 C39 1_555 1_555
C40 N10 1_555 1_555
C41 C40 1_555 1_555
C42 C41 1_555 1_555
H31 C42 1_555 1_555
C43 C42 1_555 1_555
H32 C43 1_555 1_555
C44 C43 1_555 1_555
H33 C44 1_555 1_555
C45 C44 1_555 1_555
H34 C45 1_555 1_555
C46 C41 1_555 1_555
H35 C46 1_555 1_555
C47 H36 1_555 1_555
C48 C47 1_555 1_555
C49 C48 1_555 1_555
H37 C49 1_555 1_555
C50 C49 1_555 1_555
H38 C50 1_555 1_555
C51 N12 1_555 1_555
H39 C51 1_555 1_555
C52 C48 1_555 1_555
H40 C52 1_555 1_555
S1 C53 1_555 1_555
C53 N13 1_555 1_555
N13 Zn1 1_555 1_555
S2 C54 1_555 1_555
C54 N14 1_555 1_555
N14 Zn1 1_555 1_555
N15 C55 1_555 1_555
C55 C56 1_555 1_555
C56 H41 1_555 1_555
H42 C56 1_555 1_555
H43 C56 1_555 1_555
Zn1C N6 1_555 1_555
Zn1C_2 N12 1_555 1_555
N6C Zn1 1_555 1_555
N12C Zn1 1_555 1_555
C4 C5 1_555 1_555
C5 C6 1_555 1_555
C7 C14 1_555 1_555
C12 C13 1_555 1_555
C19 C20 1_555 1_555
C25 C26 1_555 1_555
C27 C28 1_555 1_555
C30 C31 1_555 1_555
C31 C32 1_555 1_555
C38 C39 1_555 1_555
C45 C46 1_555 1_555
C51 C52 1_555 1_555

#END
