
#######################################################################
#
#                 Cambridge Crystallographic Data Centre
#                                CCDC 
#
#######################################################################
#
# If this CIF has been generated from an entry in the Cambridge 
# Structural Database, then it will include bibliographic, chemical, 
# crystal, experimental, refinement or atomic coordinate data resulting 
# from the CCDC's data processing and validation procedures.
#
#######################################################################

data_DUYSAS
_symmetry_cell_setting           triclinic
_symmetry_space_group_name_H-M   'P -1'
_symmetry_Int_Tables_number      2
_space_group_name_Hall           '-P 1'
loop_
_symmetry_equiv_pos_site_id
_symmetry_equiv_pos_as_xyz
1 x,y,z
2 -x,-y,-z
_cell_length_a                   11.615(5)
_cell_length_b                   14.312(5)
_cell_length_c                   16.048(5)
_cell_angle_alpha                69.908(5)
_cell_angle_beta                 72.805(5)
_cell_angle_gamma                86.786(5)
_cell_volume                     2390.31
loop_
_atom_site_label
_atom_site_type_symbol
_atom_site_fract_x
_atom_site_fract_y
_atom_site_fract_z
O5 O -0.203(7) 0.160(6) 0.435(6)
H1 H -0.2177 0.2282 0.4341
H2 H -0.2785 0.1410 0.5253
O10 O -0.441(6) -0.318(5) 0.291(4)
H3 H -0.3846 -0.3423 0.2533
H4 H -0.5083 -0.3555 0.3295
O14 O 0.298(7) 0.515(6) -0.708(5)
H5 H 0.2952 0.5991 -0.7009
H6 H 0.3484 0.5158 -0.7413
O16 O -0.333(5) 0.362(4) 0.370(4)
H7 H -0.2764 0.4103 0.3312
H8 H -0.3826 0.3697 0.4223
O17 O 0.004(5) -0.246(4) 0.334(4)
H9 H -0.0152 -0.2319 0.3863
H10 H -0.0218 -0.3047 0.3344
O19 O 0.140(4) 0.167(3) -0.467(3)
H11 H 0.0807 0.2080 -0.4792
H12 H 0.1889 0.1462 -0.5112
Cl1 Cl 0.2540(6) 0.5018(6) -0.5474(5)
O51 O -0.077(5) 0.213(3) -0.493(4)
O52 O -0.563(5) 0.408(4) 0.398(4)
W1 W -0.21524(9) 0.40632(7) -0.06416(7)
W2 W -0.30806(9) 0.51286(8) 0.10942(8)
W3 W 0.08769(10) 0.39010(7) -0.16976(7)
W4 W -0.17233(10) 0.28286(8) 0.15436(9)
W5 W -0.04269(9) 0.61955(10) -0.21825(8)
W6 W 0.13450(10) 0.27263(8) 0.04685(11)
Pr1 Pr 0.23001(10) -0.01971(9) 0.05954(9)
Pr2 Pr 0.37573(10) -0.00789(9) -0.28921(9)
O2 O -0.037(3) 0.475(2) -0.088(2)
O4 O -0.141(3) 0.438(2) 0.038(2)
O7 O -0.1759(17) 0.5284(14) -0.1622(16)
O8 O 0.3076(14) 0.0004(13) -0.4316(12)
O9 O -0.031(2) 0.226(2) 0.1057(19)
O11 O 0.261(3) 0.435(2) -0.208(2)
O15 O 0.0538(18) 0.5157(15) -0.2426(14)
O18 O -0.318(2) 0.472(2) 0.0112(19)
O20 O 0.099(2) 0.664(2) -0.208(2)
O22 O 0.4048(14) 0.0944(11) -0.0543(11)
O23 O 0.1552(14) 0.0880(13) -0.0749(12)
O24 O -0.3135(18) 0.3577(15) -0.0977(15)
O25 O 0.6015(19) -0.2230(13) -0.4125(13)
O26 O 0.4711(16) 0.1438(13) -0.4278(12)
O27 O 0.1306(18) 0.3326(15) -0.2499(17)
O28 O -0.0635(15) 0.6733(14) -0.3229(12)
O29 O -0.4542(16) 0.5225(15) 0.1619(14)
O30 O 0.1919(17) -0.1938(13) 0.1778(13)
O31 O 0.3898(13) -0.1359(10) 0.0112(10)
O32 O 0.5205(15) -0.0865(12) -0.3918(11)
O33 O -0.216(2) 0.2972(17) 0.0478(17)
O34 O 0.3836(13) -0.0295(12) 0.1465(11)
O35 O 0.0044(12) -0.0152(11) 0.1329(11)
O36 O -0.2572(14) 0.1791(11) 0.2313(11)
O37 O 0.1983(13) 0.1591(10) 0.0652(11)
O38 O -0.257(3) 0.391(2) 0.175(2)
O40 O 0.1077(14) -0.1315(12) 0.0157(12)
O41 O 0.4339(14) -0.0467(12) 0.2745(11)
O42 O -0.1532(13) -0.0050(11) 0.2446(11)
O43 O 0.3220(17) 0.1466(12) -0.2508(12)
O44 O 0.3384(12) -0.0570(10) -0.1193(10)
O45 O 0.100(2) 0.2805(19) -0.0633(18)
O46 O -0.076(2) 0.3516(17) -0.1239(16)
O47 O -0.130(2) 0.675(2) -0.125(2)
O49 O -0.299(3) 0.656(3) 0.034(3)
C1 C 0.0407(19) 0.0112(16) 0.2601(16)
C2 C 0.005(2) 0.045(2) 0.3365(19)
H13 H -0.0745 0.0600 0.3581
C3 C 0.089(2) 0.0553(19) 0.3793(19)
H14 H 0.0686 0.0805 0.4277
C4 C 0.202(2) 0.0259(17) 0.3462(17)
H15 H 0.2596 0.0277 0.3750
C5 C 0.2332(18) -0.0042(16) 0.2716(15)
C6 C -0.045(2) -0.0021(17) 0.2066(16)
C7 C 0.3602(18) -0.0261(15) 0.2268(15)
C8 C 0.5498(19) -0.2114(18) -0.2617(18)
C9 C 0.6037(19) -0.2960(18) -0.2239(19)
H16 H 0.6451 -0.3329 -0.2601
C10 C 0.5955(19) -0.3259(15) -0.1285(16)
H17 H 0.6308 -0.3835 -0.1007
C11 C 0.5295(18) -0.2671(15) -0.0772(15)
H18 H 0.5258 -0.2811 -0.0154
C12 C 0.474(2) -0.1882(17) -0.1234(16)
C13 C 0.3990(19) -0.1222(16) -0.0740(16)
C14 C 0.560(2) -0.170(2) -0.363(2)
N1 N 0.1535(17) -0.0101(13) 0.2272(12)
N2 N 0.4866(17) -0.1563(14) -0.2132(13)
W1A W 0.21524(9) 0.59368(7) 0.06416(7)
W2A W 0.30806(9) 0.48714(8) -0.10942(8)
W3A W -0.08769(10) 0.60990(7) 0.16976(7)
W4A W 0.17233(10) 0.71714(8) -0.15436(9)
W5A W 0.04269(9) 0.38045(10) 0.21825(8)
W6A W -0.13450(10) 0.72737(8) -0.04685(11)
Pr1A Pr -0.23001(10) 1.01971(9) -0.05954(9)
Pr1A_2 Pr 0.76999(10) 0.01971(9) -0.05954(9)
Pr2A Pr 0.62427(10) 0.00789(9) 0.28921(9)
Pr2A_2 Pr -0.37573(10) 0.00789(9) 0.28921(9)
Pr2_2 Pr 0.37573(10) 0.99211(9) -0.28921(9)
Pr2_3 Pr 1.37573(10) -0.00789(9) -0.28921(9)
Pr2A_3 Pr -0.37573(10) 1.00789(9) 0.28921(9)
O2A O 0.037(3) 0.525(2) 0.088(2)
O4A O 0.141(3) 0.562(2) -0.038(2)
O7A O 0.1759(17) 0.4716(14) 0.1622(16)
O8A O 0.6924(14) -0.0004(13) 0.4316(12)
O9A O 0.031(2) 0.774(2) -0.1057(19)
O11A O -0.261(3) 0.565(2) 0.208(2)
O15A O -0.0538(18) 0.4843(15) 0.2426(14)
O18A O 0.318(2) 0.528(2) -0.0112(19)
O20A O -0.099(2) 0.336(2) 0.208(2)
O22A O -0.4048(14) 0.9056(11) 0.0543(11)
O23A O -0.1552(14) 0.9120(13) 0.0749(12)
O24A O 0.3135(18) 0.6423(15) 0.0977(15)
O25A O -0.6015(19) 1.2230(13) 0.4125(13)
O26A O 0.5289(16) -0.1438(13) 0.4278(12)
O27A O -0.1306(18) 0.6674(15) 0.2499(17)
O28A O 0.0635(15) 0.3267(14) 0.3229(12)
O29A O 0.4542(16) 0.4775(15) -0.1619(14)
O30A O -0.1919(17) 1.1938(13) -0.1778(13)
O31A O -0.3898(13) 1.1359(10) -0.0112(10)
O32A O -0.5205(15) 1.0865(12) 0.3918(11)
O32A_2 O 0.4795(15) 0.0865(12) 0.3918(11)
O33A O 0.216(2) 0.7028(17) -0.0478(17)
O34A O 0.6164(13) 0.0295(12) -0.1465(11)
O34A_2 O -0.3836(13) 1.0295(12) -0.1465(11)
O35A O 0.9956(12) 0.0152(11) -0.1329(11)
O35A_2 O -0.0044(12) 1.0152(11) -0.1329(11)
O36A O 0.2572(14) 0.8209(11) -0.2313(11)
O36A_2 O 0.2572(14) -0.1791(11) -0.2313(11)
O36_2 O 0.7428(14) 0.1791(11) 0.2313(11)
O37A O -0.1983(13) 0.8409(10) -0.0652(11)
O38A O 0.257(3) 0.609(2) -0.175(2)
O40A O -0.1077(14) 1.1315(12) -0.0157(12)
O41A O 0.5661(14) 0.0467(12) -0.2745(11)
O42A O 1.1532(13) 0.0050(11) -0.2446(11)
O42A_2 O 0.1532(13) 0.0050(11) -0.2446(11)
O42_2 O 0.8468(13) -0.0050(11) 0.2446(11)
O43A O 0.6780(17) -0.1466(12) 0.2508(12)
O44A O -0.3384(12) 1.0570(10) 0.1193(10)
O44A_2 O 0.6616(12) 0.0570(10) 0.1193(10)
O45A O -0.100(2) 0.7195(19) 0.0633(18)
O46A O 0.076(2) 0.6484(17) 0.1239(16)
O47A O 0.130(2) 0.325(2) 0.125(2)
O49A O 0.299(3) 0.344(3) -0.034(3)
C1A C 0.9593(19) -0.0112(16) -0.2601(16)
C2A C 0.995(2) -0.045(2) -0.3365(19)
H13A H 1.0745 -0.0600 -0.3581
C3A C 0.911(2) -0.0553(19) -0.3793(19)
H14A H 0.9314 -0.0805 -0.4277
C4A C 0.798(2) -0.0259(17) -0.3462(17)
H15A H 0.7404 -0.0277 -0.3750
C5A C 0.7668(18) 0.0042(16) -0.2716(15)
C6A C 1.045(2) 0.0021(17) -0.2066(16)
C7A C 0.6398(18) 0.0261(15) -0.2268(15)
C8A C -0.5498(19) 1.2114(18) 0.2617(18)
C9A C -0.6037(19) 1.2960(18) 0.2239(19)
H16A H -0.6451 1.3329 0.2601
C10A C -0.5955(19) 1.3259(15) 0.1285(16)
H17A H -0.6308 1.3835 0.1007
C11A C -0.5295(18) 1.2671(15) 0.0772(15)
H18A H -0.5258 1.2811 0.0154
C12A C -0.474(2) 1.1882(17) 0.1234(16)
C13A C -0.3990(19) 1.1222(16) 0.0740(16)
C14A C -0.560(2) 1.170(2) 0.363(2)
N1A N 0.8465(17) 0.0101(13) -0.2272(12)
N1A_2 N -0.1535(17) 1.0101(13) -0.2272(12)
N2A N -0.4866(17) 1.1563(14) 0.2132(13)
N2A_2 N 0.5134(17) 0.1563(14) 0.2132(13)
O1? O 0.001(2) 0.380(2) 0.0931(19)
O3? O -0.110(3) 0.571(2) 0.057(2)
O6? O -0.278(3) 0.171(2) 0.4659(19)
O12? O -0.216(3) 0.543(2) 0.162(2)
O13? O 0.360(8) 0.573(6) -0.711(6)
O21? O -0.101(3) 0.281(3) 0.266(3)
O39? O -0.315(3) 0.370(2) 0.177(2)
O48? O 0.136(2) 0.269(2) 0.181(2)
O50? O 0.245(3) 0.370(2) -0.005(2)
loop_
_geom_bond_atom_site_label_1
_geom_bond_atom_site_label_2
_geom_bond_site_symmetry_1
_geom_bond_site_symmetry_2
W1 O2 1_555 1_555
W2 O4 1_555 1_555
W3 O2 1_555 1_555
W4 O4 1_555 1_555
W5 O2 1_555 1_555
W6 O9 1_555 1_555
Pr1 O22 1_555 1_555
Pr2 O8 1_555 1_555
O4 W1 1_555 1_555
O5 H1 1_555 1_555
H2 O5 1_555 1_555
O7 W1 1_555 1_555
O9 W4 1_555 1_555
O10 H3 1_555 1_555
H4 O10 1_555 1_555
O11 W3 1_555 1_555
O14 H5 1_555 1_555
H6 O14 1_555 1_555
O15 W3 1_555 1_555
O16 H7 1_555 1_555
H8 O16 1_555 1_555
O17 H9 1_555 1_555
H10 O17 1_555 1_555
O18 W1 1_555 1_555
O19 H11 1_555 1_555
H12 O19 1_555 1_555
O20 W5 1_555 1_555
O23 Pr1 1_555 1_555
O24 W1 1_555 1_555
O25 C14 1_555 1_555
O26 Pr2 1_555 1_555
O27 W3 1_555 1_555
O28 W5 1_555 1_555
O29 W2 1_555 1_555
O30 Pr1 1_555 1_555
O31 Pr1 1_555 1_555
O32 Pr2 1_555 1_555
O33 W1 1_555 1_555
O34 Pr1 1_555 1_555
O35 Pr1 1_555 1_555
O36 W4 1_555 1_555
O37 W6 1_555 1_555
O38 W2 1_555 1_555
O40 Pr1 1_555 1_555
O41 C7 1_555 1_555
O42 C6 1_555 1_555
O43 Pr2 1_555 1_555
O44 Pr1 1_555 1_555
O45 W3 1_555 1_555
O46 W1 1_555 1_555
O47 W5 1_555 1_555
O49 W2 1_555 1_555
C1 C2 1_555 1_555
C2 H13 1_555 1_555
C3 C2 1_555 1_555
H14 C3 1_555 1_555
C4 C3 1_555 1_555
H15 C4 1_555 1_555
C5 C4 1_555 1_555
C6 O35 1_555 1_555
C7 O34 1_555 1_555
C8 C9 1_555 1_555
C9 H16 1_555 1_555
C10 C9 1_555 1_555
H17 C10 1_555 1_555
C11 C10 1_555 1_555
H18 C11 1_555 1_555
C12 C11 1_555 1_555
C13 O31 1_555 1_555
C14 O32 1_555 1_555
N1 Pr1 1_555 1_555
N2 Pr2 1_555 1_555
W1A O2A 1_555 1_555
W2A O11 1_555 1_555
W3A O2A 1_555 1_555
W4A O20 1_555 1_555
W5A O2A 1_555 1_555
W6A O47 1_555 1_555
Pr1A O22A 1_555 1_555
Pr1A_2 O34A 1_555 1_555
Pr2A O41 1_555 1_555
Pr2A_2 O36 1_555 1_555
Pr2_2 O36A 1_555 1_555
Pr2_3 O42A 1_555 1_555
Pr2A_3 O32A 1_555 1_555
O4A W1A 1_555 1_555
O7A W1A 1_555 1_555
O8A Pr2A 1_555 1_555
O9A W4A 1_555 1_555
O11A W2 1_555 1_555
O15A W3A 1_555 1_555
O18A W1A 1_555 1_555
O20A W4 1_555 1_555
O23A Pr1A 1_555 1_555
O24A W1A 1_555 1_555
O25A C14A 1_555 1_555
O26A Pr2A 1_555 1_555
O27A W3A 1_555 1_555
O28A W5A 1_555 1_555
O29A W2A 1_555 1_555
O30A Pr1A 1_555 1_555
O31A Pr1A 1_555 1_555
O32A C14A 1_555 1_555
O32A_2 Pr2A 1_555 1_555
O33A W1A 1_555 1_555
O34A C7A 1_555 1_555
O34A_2 Pr1A 1_555 1_555
O35A Pr1A_2 1_555 1_555
O35A_2 Pr1A 1_555 1_555
O36A W4A 1_555 1_555
O36A_2 Pr2 1_555 1_555
O36_2 Pr2A 1_555 1_555
O37A W6A 1_555 1_555
O38A W2A 1_555 1_555
O40A Pr1A 1_555 1_555
O41A Pr2 1_555 1_555
O42A C6A 1_555 1_555
O42A_2 Pr2 1_555 1_555
O42_2 Pr2A 1_555 1_555
O43A Pr2A 1_555 1_555
O44A Pr1A 1_555 1_555
O44A_2 Pr1A_2 1_555 1_555
O45A W3A 1_555 1_555
O46A W1A 1_555 1_555
O47A W6 1_555 1_555
O49A W6 1_555 1_555
C1A C2A 1_555 1_555
C2A H13A 1_555 1_555
C3A C2A 1_555 1_555
H14A C3A 1_555 1_555
C4A C3A 1_555 1_555
H15A C4A 1_555 1_555
C5A C4A 1_555 1_555
C6A O35A 1_555 1_555
C7A O41A 1_555 1_555
C8A C9A 1_555 1_555
C9A H16A 1_555 1_555
C10A C9A 1_555 1_555
H17A C10A 1_555 1_555
C11A C10A 1_555 1_555
H18A C11A 1_555 1_555
C12A C11A 1_555 1_555
C13A O31A 1_555 1_555
C14A C8A 1_555 1_555
N1A Pr1A_2 1_555 1_555
N1A_2 Pr1A 1_555 1_555
N2A Pr2A_3 1_555 1_555
N2A_2 Pr2A 1_555 1_555
W2 O18 1_555 1_555
W3 O46 1_555 1_555
W4 O33 1_555 1_555
W4 O38 1_555 1_555
W5 O7 1_555 1_555
W5 O15 1_555 1_555
W6 O45 1_555 1_555
Pr1 O37 1_555 1_555
Pr2 O44 1_555 1_555
O42 Pr2A_2 1_555 1_555
O44 C13 1_555 1_555
O49 W6A 1_555 1_555
C1 C6 1_555 1_555
C1 N1 1_555 1_555
C5 C7 1_555 1_555
C5 N1 1_555 1_555
C8 C14 1_555 1_555
C8 N2 1_555 1_555
C12 C13 1_555 1_555
C12 N2 1_555 1_555
W2A O4A 1_555 1_555
W2A O18A 1_555 1_555
W2A O49A 1_555 1_555
W3A O11A 1_555 1_555
W3A O46A 1_555 1_555
W4A O4A 1_555 1_555
W4A O33A 1_555 1_555
W4A O38A 1_555 1_555
W5A O7A 1_555 1_555
W5A O15A 1_555 1_555
W5A O20A 1_555 1_555
W5A O47A 1_555 1_555
W6A O9A 1_555 1_555
W6A O45A 1_555 1_555
Pr1A O37A 1_555 1_555
Pr2A O44A_2 1_555 1_555
Pr2A_3 O44A 1_555 1_555
O44A C13A 1_555 1_555
C1A C6A 1_555 1_555
C1A N1A 1_555 1_555
C5A C7A 1_555 1_555
C5A N1A 1_555 1_555
C8A N2A 1_555 1_555
C12A C13A 1_555 1_555
C12A N2A 1_555 1_555

#END
