
#######################################################################
#
#                 Cambridge Crystallographic Data Centre
#                                CCDC 
#
#######################################################################
#
# If this CIF has been generated from an entry in the Cambridge 
# Structural Database, then it will include bibliographic, chemical, 
# crystal, experimental, refinement or atomic coordinate data resulting 
# from the CCDC's data processing and validation procedures.
#
#######################################################################

data_DUYSIA
_symmetry_cell_setting           triclinic
_symmetry_space_group_name_H-M   'P -1'
_symmetry_Int_Tables_number      2
_space_group_name_Hall           '-P 1'
loop_
_symmetry_equiv_pos_site_id
_symmetry_equiv_pos_as_xyz
1 x,y,z
2 -x,-y,-z
_cell_length_a                   10.5733(4)
_cell_length_b                   11.1066(4)
_cell_length_c                   21.3032(8)
_cell_angle_alpha                98.176(2)
_cell_angle_beta                 93.162(2)
_cell_angle_gamma                97.274(2)
_cell_volume                     2449.52
loop_
_atom_site_label
_atom_site_type_symbol
_atom_site_fract_x
_atom_site_fract_y
_atom_site_fract_z
Ag1 Ag 0.10951(2) 0.95041(3) 0.742049(11)
N1 N -0.0430(2) 0.9575(2) 0.65952(11)
N2 N -0.3043(2) 1.1202(2) 0.49682(12)
N3 N -0.3972(3) 1.1223(2) 0.44709(11)
N4 N -0.3671(2) 1.3810(2) 0.53655(10)
N5 N -0.4688(2) 1.3100(2) 0.55938(10)
N6 N -0.7280(2) 1.0886(2) 0.70845(11)
C1 C -0.1661(3) 1.0903(3) 0.61126(14)
H1 H -0.1886 1.1686 0.6115
C2 C -0.0813(3) 1.0673(3) 0.65754(14)
H2 H -0.0484 1.1316 0.6894
C3 C -0.0944(3) 0.8666(3) 0.61508(15)
H3 H -0.0695 0.7894 0.6157
C4 C -0.1834(3) 0.8806(3) 0.56771(15)
H4 H -0.2199 0.8133 0.5384
C5 C -0.2178(3) 0.9956(2) 0.56426(13)
C6 C -0.3075(3) 1.0148(3) 0.51333(14)
H5 H -0.3667 0.9500 0.4931
C7 C -0.4149(3) 1.2310(2) 0.43919(12)
C8 C -0.5093(3) 1.2448(2) 0.38808(12)
C9 C -0.5465(3) 1.1488(3) 0.33834(14)
H6 H -0.5105 1.0764 0.3368
C10 C -0.6369(4) 1.1614(3) 0.29146(15)
H7 H -0.6606 1.0977 0.2579
C11 C -0.6922(3) 1.2674(3) 0.29390(15)
H8 H -0.7533 1.2752 0.2622
C12 C -0.6574(3) 1.3612(3) 0.34288(15)
H9 H -0.6957 1.4324 0.3448
C13 C -0.5654(3) 1.3507(2) 0.38975(13)
H10 H -0.5411 1.4155 0.4226
C14 C -0.3437(2) 1.3446(2) 0.47920(11)
C15 C -0.2418(3) 1.4180(2) 0.45082(12)
C16 C -0.1974(4) 1.3750(4) 0.39331(15)
H11 H -0.2329 1.2987 0.3713
C17 C -0.1008(4) 1.4442(5) 0.36828(18)
H12 H -0.0722 1.4141 0.3294
C18 C -0.0466(4) 1.5560(4) 0.39953(19)
H13 H 0.0183 1.6021 0.3820
C19 C -0.0883(4) 1.5995(4) 0.4566(2)
H14 H -0.0514 1.6756 0.4783
C20 C -0.1848(3) 1.5314(3) 0.48252(16)
H15 H -0.2121 1.5619 0.5217
C21 C -0.4475(3) 1.2975(2) 0.61706(12)
H16 H -0.3701 1.3324 0.6390
C22 C -0.5446(3) 1.2283(2) 0.64935(12)
C23 C -0.6696(3) 1.2004(3) 0.62410(14)
H17 H -0.6949 1.2288 0.5870
C24 C -0.7559(3) 1.1307(4) 0.65408(16)
H18 H -0.8391 1.1113 0.6357
C25 C -0.6089(3) 1.1204(2) 0.73385(12)
H19 H -0.5874 1.0953 0.7724
C26 C -0.5154(3) 1.1883(2) 0.70631(12)
H20 H -0.4330 1.2072 0.7259
N7 N 0.1952(2) 0.8012(2) 0.78706(11)
N8 N 0.4093(2) 0.6840(2) 0.98112(10)
N9 N 0.4270(2) 0.62288(19) 1.03372(10)
N10 N 0.57663(19) 0.89592(19) 1.07448(10)
N11 N 0.4634(2) 0.89558(19) 1.10608(10)
N12 N 0.0422(2) 0.9991(2) 1.17924(10)
C27 C 0.3497(3) 0.7872(3) 0.87093(17)
H21 H 0.4285 0.8177 0.8926
C28 C 0.3076(4) 0.8385(3) 0.82054(19)
H22 H 0.3604 0.9036 0.8087
C29 C 0.1256(2) 0.7027(2) 0.80326(12)
H23 H 0.0490 0.6717 0.7796
C30 C 0.1614(2) 0.6449(2) 0.85302(12)
H24 H 0.1099 0.5762 0.8621
C31 C 0.2742(2) 0.6895(2) 0.88939(12)
C32 C 0.3111(2) 0.6361(2) 0.94547(12)
H25 H 0.2618 0.5665 0.9550
C33 C 0.5236(2) 0.6749(2) 1.07125(11)
C34 C 0.5533(2) 0.6219(2) 1.12945(11)
C35 C 0.4580(3) 0.5476(3) 1.15345(13)
H26 H 0.3761 0.5316 1.1332
C36 C 0.4848(4) 0.4975(3) 1.20743(15)
H27 H 0.4204 0.4484 1.2235
C37 C 0.6053(4) 0.5191(3) 1.23786(15)
H28 H 0.6228 0.4837 1.2739
C38 C 0.6995(3) 0.5932(3) 1.21463(14)
H29 H 0.7812 0.6085 1.2351
C39 C 0.6742(3) 0.6455(3) 1.16103(12)
H30 H 0.7384 0.6967 1.1460
C40 C 0.6069(2) 0.7882(2) 1.05895(10)
C41 C 0.7288(2) 0.7741(2) 1.02998(11)
C42 C 0.7416(3) 0.6675(2) 0.98970(12)
H31 H 0.6721 0.6062 0.9794
C43 C 0.8576(3) 0.6521(3) 0.96483(15)
H32 H 0.8657 0.5811 0.9373
C44 C 0.9608(3) 0.7418(3) 0.98090(15)
H33 H 1.0392 0.7307 0.9649
C45 C 0.9484(3) 0.8478(3) 1.02063(14)
H34 H 1.0185 0.9083 1.0312
C46 C 0.8333(2) 0.8649(3) 1.04474(13)
H35 H 0.8253 0.9375 1.0710
C47 C 0.3878(2) 0.9647(2) 1.08777(12)
H36 H 0.4077 1.0091 1.0549
C48 C 0.2676(2) 0.9748(2) 1.11870(11)
C49 C 0.2084(3) 0.8806(3) 1.14748(13)
H37 H 0.2435 0.8080 1.1474
C50 C 0.0972(3) 0.8961(3) 1.17619(13)
H38 H 0.0576 0.8315 1.1946
C51 C 0.0998(3) 1.0880(3) 1.15078(13)
H39 H 0.0634 1.1602 1.1520
C52 C 0.2097(3) 1.0798(2) 1.11970(12)
H40 H 0.2446 1.1441 1.0996
Ag1A Ag -0.10951(2) 1.04959(3) 1.257951(11)
Ag1_2 Ag -0.89049(2) 0.95041(3) 0.742049(11)
Ag1A_2 Ag 0.89049(2) 1.04959(3) 1.257951(11)
N1A N 0.0430(2) 1.0425(2) 1.34048(11)
N2A N 0.3043(2) 0.8798(2) 1.50318(12)
N3A N 0.3972(3) 0.8777(2) 1.55291(11)
N4A N 0.3671(2) 0.6190(2) 1.46345(10)
N5A N 0.4688(2) 0.6900(2) 1.44062(10)
N6A N 0.7280(2) 0.9114(2) 1.29155(11)
N6_2 N 0.2720(2) 1.0886(2) 0.70845(11)
N6A_2 N -0.2720(2) 0.9114(2) 1.29155(11)
C1A C 0.1661(3) 0.9097(3) 1.38874(14)
H1A H 0.1886 0.8314 1.3885
C2A C 0.0813(3) 0.9327(3) 1.34246(14)
H2A H 0.0484 0.8684 1.3106
C3A C 0.0944(3) 1.1334(3) 1.38492(15)
H3A H 0.0695 1.2106 1.3843
C4A C 0.1834(3) 1.1194(3) 1.43229(15)
H4A H 0.2199 1.1867 1.4616
C5A C 0.2178(3) 1.0044(2) 1.43574(13)
C6A C 0.3075(3) 0.9852(3) 1.48667(14)
H5A H 0.3667 1.0500 1.5069
C7A C 0.4149(3) 0.7690(2) 1.56081(12)
C8A C 0.5093(3) 0.7552(2) 1.61192(12)
C9A C 0.5465(3) 0.8512(3) 1.66166(14)
H6A H 0.5105 0.9236 1.6632
C10A C 0.6369(4) 0.8386(3) 1.70854(15)
H7A H 0.6606 0.9023 1.7421
C11A C 0.6922(3) 0.7326(3) 1.70610(15)
H8A H 0.7533 0.7248 1.7378
C12A C 0.6574(3) 0.6388(3) 1.65712(15)
H9A H 0.6957 0.5676 1.6552
C13A C 0.5654(3) 0.6493(2) 1.61025(13)
H10A H 0.5411 0.5845 1.5774
C14A C 0.3437(2) 0.6554(2) 1.52080(11)
C15A C 0.2418(3) 0.5820(2) 1.54918(12)
C16A C 0.1974(4) 0.6250(4) 1.60669(15)
H11A H 0.2329 0.7013 1.6287
C17A C 0.1008(4) 0.5558(5) 1.63172(18)
H12A H 0.0722 0.5859 1.6706
C18A C 0.0466(4) 0.4440(4) 1.60047(19)
H13A H -0.0183 0.3979 1.6180
C19A C 0.0883(4) 0.4005(4) 1.5434(2)
H14A H 0.0514 0.3244 1.5217
C20A C 0.1848(3) 0.4686(3) 1.51748(16)
H15A H 0.2121 0.4381 1.4783
C21A C 0.4475(3) 0.7025(2) 1.38294(12)
H16A H 0.3701 0.6676 1.3610
C22A C 0.5446(3) 0.7717(2) 1.35065(12)
C23A C 0.6696(3) 0.7996(3) 1.37590(14)
H17A H 0.6949 0.7712 1.4130
C24A C 0.7559(3) 0.8693(4) 1.34592(16)
H18A H 0.8391 0.8887 1.3643
C25A C 0.6089(3) 0.8796(2) 1.26615(12)
H19A H 0.5874 0.9047 1.2276
C26A C 0.5154(3) 0.8117(2) 1.29369(12)
H20A H 0.4330 0.7928 1.2741
N7A N -0.1952(2) 1.1988(2) 1.21294(11)
N8A N -0.4093(2) 1.3160(2) 1.01888(10)
N9A N -0.4270(2) 1.37712(19) 0.96628(10)
N10A N -0.57663(19) 1.10408(19) 0.92552(10)
N11A N -0.4634(2) 1.10442(19) 0.89392(10)
N12A N -0.0422(2) 1.0009(2) 0.82076(10)
C27A C -0.3497(3) 1.2128(3) 1.12907(17)
H21A H -0.4285 1.1823 1.1074
C28A C -0.3076(4) 1.1615(3) 1.17946(19)
H22A H -0.3604 1.0964 1.1913
C29A C -0.1256(2) 1.2973(2) 1.19674(12)
H23A H -0.0490 1.3283 1.2204
C30A C -0.1614(2) 1.3551(2) 1.14698(12)
H24A H -0.1099 1.4238 1.1379
C31A C -0.2742(2) 1.3105(2) 1.11061(12)
C32A C -0.3111(2) 1.3639(2) 1.05453(12)
H25A H -0.2618 1.4335 1.0450
C33A C -0.5236(2) 1.3251(2) 0.92875(11)
C34A C -0.5533(2) 1.3781(2) 0.87055(11)
C35A C -0.4580(3) 1.4524(3) 0.84655(13)
H26A H -0.3761 1.4684 0.8668
C36A C -0.4848(4) 1.5025(3) 0.79257(15)
H27A H -0.4204 1.5516 0.7765
C37A C -0.6053(4) 1.4809(3) 0.76214(15)
H28A H -0.6228 1.5163 0.7261
C38A C -0.6995(3) 1.4068(3) 0.78537(14)
H29A H -0.7812 1.3915 0.7649
C39A C -0.6742(3) 1.3545(3) 0.83897(12)
H30A H -0.7384 1.3033 0.8540
C40A C -0.6069(2) 1.2118(2) 0.94105(10)
C41A C -0.7288(2) 1.2259(2) 0.97002(11)
C42A C -0.7416(3) 1.3325(2) 1.01030(12)
H31A H -0.6721 1.3938 1.0206
C43A C -0.8576(3) 1.3479(3) 1.03517(15)
H32A H -0.8657 1.4189 1.0627
C44A C -0.9608(3) 1.2582(3) 1.01910(15)
H33A H -1.0392 1.2693 1.0351
C45A C -0.9484(3) 1.1522(3) 0.97937(14)
H34A H -1.0185 1.0917 0.9688
C46A C -0.8333(2) 1.1351(3) 0.95526(13)
H35A H -0.8253 1.0625 0.9290
C47A C -0.3878(2) 1.0353(2) 0.91223(12)
H36A H -0.4077 0.9909 0.9451
C48A C -0.2676(2) 1.0252(2) 0.88130(11)
C49A C -0.2084(3) 1.1194(3) 0.85252(13)
H37A H -0.2435 1.1920 0.8526
C50A C -0.0972(3) 1.1039(3) 0.82381(13)
H38A H -0.0576 1.1685 0.8054
C51A C -0.0998(3) 0.9120(3) 0.84922(13)
H39A H -0.0634 0.8398 0.8480
C52A C -0.2097(3) 0.9202(2) 0.88030(12)
H40A H -0.2446 0.8559 0.9004
B1 B 0.1266(3) 0.5896(3) 0.23480(18)
F1 F 0.2219(3) 0.6758(3) 0.25555(19)
F2 F 0.1230(4) 0.5749(4) 0.17144(15)
F3 F 0.0136(2) 0.6280(3) 0.24804(17)
F4 F 0.1341(3) 0.4833(3) 0.2539(2)
loop_
_geom_bond_atom_site_label_1
_geom_bond_atom_site_label_2
_geom_bond_site_symmetry_1
_geom_bond_site_symmetry_2
Ag1 N1 1_555 1_555
N1 C2 1_555 1_555
N2 N3 1_555 1_555
N3 C7 1_555 1_555
N4 N5 1_555 1_555
N5 C21 1_555 1_555
N6 C24 1_555 1_555
C1 H1 1_555 1_555
C2 C1 1_555 1_555
H2 C2 1_555 1_555
C3 N1 1_555 1_555
H3 C3 1_555 1_555
C4 C3 1_555 1_555
H4 C4 1_555 1_555
C5 C1 1_555 1_555
C6 N2 1_555 1_555
H5 C6 1_555 1_555
C7 C8 1_555 1_555
C8 C9 1_555 1_555
C9 H6 1_555 1_555
C10 C9 1_555 1_555
H7 C10 1_555 1_555
C11 C10 1_555 1_555
H8 C11 1_555 1_555
C12 C11 1_555 1_555
H9 C12 1_555 1_555
C13 C8 1_555 1_555
H10 C13 1_555 1_555
C14 N4 1_555 1_555
C15 C14 1_555 1_555
C16 C15 1_555 1_555
H11 C16 1_555 1_555
C17 C16 1_555 1_555
H12 C17 1_555 1_555
C18 C17 1_555 1_555
H13 C18 1_555 1_555
C19 C18 1_555 1_555
H14 C19 1_555 1_555
C20 C15 1_555 1_555
H15 C20 1_555 1_555
C21 H16 1_555 1_555
C22 C21 1_555 1_555
C23 C22 1_555 1_555
H17 C23 1_555 1_555
C24 C23 1_555 1_555
H18 C24 1_555 1_555
C25 N6 1_555 1_555
H19 C25 1_555 1_555
C26 C22 1_555 1_555
H20 C26 1_555 1_555
N7 Ag1 1_555 1_555
N8 N9 1_555 1_555
N9 C33 1_555 1_555
N10 N11 1_555 1_555
N11 C47 1_555 1_555
N12 C50 1_555 1_555
C27 H21 1_555 1_555
C28 N7 1_555 1_555
H22 C28 1_555 1_555
C29 N7 1_555 1_555
H23 C29 1_555 1_555
C30 C29 1_555 1_555
H24 C30 1_555 1_555
C31 C27 1_555 1_555
C32 N8 1_555 1_555
H25 C32 1_555 1_555
C33 C34 1_555 1_555
C34 C35 1_555 1_555
C35 H26 1_555 1_555
C36 C35 1_555 1_555
H27 C36 1_555 1_555
C37 C36 1_555 1_555
H28 C37 1_555 1_555
C38 C37 1_555 1_555
H29 C38 1_555 1_555
C39 C34 1_555 1_555
H30 C39 1_555 1_555
C40 N10 1_555 1_555
C41 C40 1_555 1_555
C42 C41 1_555 1_555
H31 C42 1_555 1_555
C43 C42 1_555 1_555
H32 C43 1_555 1_555
C44 C43 1_555 1_555
H33 C44 1_555 1_555
C45 C44 1_555 1_555
H34 C45 1_555 1_555
C46 C41 1_555 1_555
H35 C46 1_555 1_555
C47 H36 1_555 1_555
C48 C47 1_555 1_555
C49 C48 1_555 1_555
H37 C49 1_555 1_555
C50 C49 1_555 1_555
H38 C50 1_555 1_555
C51 N12 1_555 1_555
H39 C51 1_555 1_555
C52 C48 1_555 1_555
H40 C52 1_555 1_555
B1 F1 1_555 1_555
F2 B1 1_555 1_555
F3 B1 1_555 1_555
F4 B1 1_555 1_555
Ag1A N12 1_555 1_555
Ag1_2 N6 1_555 1_555
Ag1A_2 N6A 1_555 1_555
N1A Ag1A 1_555 1_555
N2A N3A 1_555 1_555
N3A C7A 1_555 1_555
N4A N5A 1_555 1_555
N5A C21A 1_555 1_555
N6A C24A 1_555 1_555
N6_2 Ag1 1_555 1_555
N6A_2 Ag1A 1_555 1_555
C1A H1A 1_555 1_555
C2A N1A 1_555 1_555
H2A C2A 1_555 1_555
C3A N1A 1_555 1_555
H3A C3A 1_555 1_555
C4A C3A 1_555 1_555
H4A C4A 1_555 1_555
C5A C1A 1_555 1_555
C6A N2A 1_555 1_555
H5A C6A 1_555 1_555
C7A C8A 1_555 1_555
C8A C9A 1_555 1_555
C9A H6A 1_555 1_555
C10A C9A 1_555 1_555
H7A C10A 1_555 1_555
C11A C10A 1_555 1_555
H8A C11A 1_555 1_555
C12A C11A 1_555 1_555
H9A C12A 1_555 1_555
C13A C8A 1_555 1_555
H10A C13A 1_555 1_555
C14A N4A 1_555 1_555
C15A C14A 1_555 1_555
C16A C15A 1_555 1_555
H11A C16A 1_555 1_555
C17A C16A 1_555 1_555
H12A C17A 1_555 1_555
C18A C17A 1_555 1_555
H13A C18A 1_555 1_555
C19A C18A 1_555 1_555
H14A C19A 1_555 1_555
C20A C15A 1_555 1_555
H15A C20A 1_555 1_555
C21A H16A 1_555 1_555
C22A C21A 1_555 1_555
C23A C22A 1_555 1_555
H17A C23A 1_555 1_555
C24A C23A 1_555 1_555
H18A C24A 1_555 1_555
C25A N6A 1_555 1_555
H19A C25A 1_555 1_555
C26A C22A 1_555 1_555
H20A C26A 1_555 1_555
N7A Ag1A 1_555 1_555
N8A N9A 1_555 1_555
N9A C33A 1_555 1_555
N10A N11A 1_555 1_555
N11A C47A 1_555 1_555
N12A Ag1 1_555 1_555
C27A H21A 1_555 1_555
C28A N7A 1_555 1_555
H22A C28A 1_555 1_555
C29A N7A 1_555 1_555
H23A C29A 1_555 1_555
C30A C29A 1_555 1_555
H24A C30A 1_555 1_555
C31A C27A 1_555 1_555
C32A N8A 1_555 1_555
H25A C32A 1_555 1_555
C33A C34A 1_555 1_555
C34A C35A 1_555 1_555
C35A H26A 1_555 1_555
C36A C35A 1_555 1_555
H27A C36A 1_555 1_555
C37A C36A 1_555 1_555
H28A C37A 1_555 1_555
C38A C37A 1_555 1_555
H29A C38A 1_555 1_555
C39A C34A 1_555 1_555
H30A C39A 1_555 1_555
C40A N10A 1_555 1_555
C41A C40A 1_555 1_555
C42A C41A 1_555 1_555
H31A C42A 1_555 1_555
C43A C42A 1_555 1_555
H32A C43A 1_555 1_555
C44A C43A 1_555 1_555
H33A C44A 1_555 1_555
C45A C44A 1_555 1_555
H34A C45A 1_555 1_555
C46A C41A 1_555 1_555
H35A C46A 1_555 1_555
C47A H36A 1_555 1_555
C48A C47A 1_555 1_555
C49A C48A 1_555 1_555
H37A C49A 1_555 1_555
C50A N12A 1_555 1_555
H38A C50A 1_555 1_555
C51A N12A 1_555 1_555
H39A C51A 1_555 1_555
C52A C48A 1_555 1_555
H40A C52A 1_555 1_555
C4 C5 1_555 1_555
C5 C6 1_555 1_555
C7 C14 1_555 1_555
C12 C13 1_555 1_555
C19 C20 1_555 1_555
C25 C26 1_555 1_555
C27 C28 1_555 1_555
C30 C31 1_555 1_555
C31 C32 1_555 1_555
C33 C40 1_555 1_555
C38 C39 1_555 1_555
C45 C46 1_555 1_555
C51 C52 1_555 1_555
C1A C2A 1_555 1_555
C4A C5A 1_555 1_555
C5A C6A 1_555 1_555
C7A C14A 1_555 1_555
C12A C13A 1_555 1_555
C19A C20A 1_555 1_555
C25A C26A 1_555 1_555
C27A C28A 1_555 1_555
C30A C31A 1_555 1_555
C31A C32A 1_555 1_555
C33A C40A 1_555 1_555
C38A C39A 1_555 1_555
C45A C46A 1_555 1_555
C49A C50A 1_555 1_555
C51A C52A 1_555 1_555

#END
