
#######################################################################
#
#                 Cambridge Crystallographic Data Centre
#                                CCDC 
#
#######################################################################
#
# If this CIF has been generated from an entry in the Cambridge 
# Structural Database, then it will include bibliographic, chemical, 
# crystal, experimental, refinement or atomic coordinate data resulting 
# from the CCDC's data processing and validation procedures.
#
#######################################################################

data_DUYTIB
_symmetry_cell_setting           triclinic
_symmetry_space_group_name_H-M   'P -1'
_symmetry_Int_Tables_number      2
_space_group_name_Hall           '-P 1'
loop_
_symmetry_equiv_pos_site_id
_symmetry_equiv_pos_as_xyz
1 x,y,z
2 -x,-y,-z
_cell_length_a                   9.4934(14)
_cell_length_b                   10.3652(17)
_cell_length_c                   14.878(2)
_cell_angle_alpha                85.775(3)
_cell_angle_beta                 84.341(3)
_cell_angle_gamma                79.168(3)
_cell_volume                     1428.64
loop_
_atom_site_label
_atom_site_type_symbol
_atom_site_fract_x
_atom_site_fract_y
_atom_site_fract_z
Mn1 Mn 0.0000 1.0000 0.5000
N1 N 0.1279(2) 0.8570(2) 0.39670(15)
N2 N 0.5710(3) 0.7463(2) 0.20851(17)
N3 N 0.7019(3) 0.7929(2) 0.19547(17)
N4 N 0.7924(2) 0.5157(2) 0.08689(15)
N5 N 0.8892(3) 0.4811(2) 0.15467(16)
N6 N 1.0436(2) 0.1712(2) 0.39269(15)
C1 C 0.2647(3) 0.8611(3) 0.36766(19)
H1 H 0.3100 0.9189 0.3942
C2 C 0.0652(4) 0.7726(3) 0.3578(2)
H2 H -0.0303 0.7687 0.3766
C3 C 0.1343(4) 0.6912(3) 0.2912(2)
H3 H 0.0866 0.6334 0.2666
C4 C 0.2765(4) 0.6973(3) 0.2619(2)
H4 H 0.3255 0.6437 0.2172
C5 C 0.3444(3) 0.7846(3) 0.3002(2)
C6 C 0.4900(3) 0.8046(3) 0.2729(2)
H5 H 0.5269 0.8634 0.3042
C7 C 0.7873(3) 0.7432(3) 0.12970(19)
C8 C 0.9231(3) 0.7932(3) 0.10651(19)
C9 C 0.9424(4) 0.9087(3) 0.1418(2)
H6 H 0.8692 0.9553 0.1793
C10 C 1.0702(4) 0.9540(3) 0.1212(3)
H7 H 1.0834 1.0305 0.1456
C11 C 1.1793(4) 0.8857(3) 0.0640(3)
H8 H 1.2650 0.9168 0.0499
C12 C 1.1604(3) 0.7736(3) 0.0290(2)
H9 H 1.2334 0.7280 -0.0091
C13 C 1.0345(3) 0.7271(3) 0.0494(2)
H10 H 1.0231 0.6502 0.0247
C14 C 0.7503(3) 0.6406(3) 0.07300(18)
C15 C 0.6602(3) 0.6866(3) -0.00329(19)
C16 C 0.6214(4) 0.8199(3) -0.0270(2)
H11 H 0.6511 0.8811 0.0062
C17 C 0.5398(4) 0.8632(4) -0.0987(3)
H12 H 0.5164 0.9528 -0.1139
C18 C 0.4933(4) 0.7762(4) -0.1471(2)
H13 H 0.4366 0.8066 -0.1945
C19 C 0.5301(3) 0.6405(4) -0.1263(2)
H14 H 0.4992 0.5803 -0.1597
C20 C 0.6139(3) 0.5981(3) -0.0543(2)
H15 H 0.6394 0.5084 -0.0400
C21 C 0.8825(3) 0.3706(3) 0.1949(2)
H16 H 0.8124 0.3244 0.1825
C22 C 0.9866(3) 0.3146(3) 0.26189(19)
C23 C 1.1167(3) 0.3552(3) 0.2597(2)
H17 H 1.1422 0.4162 0.2150
C24 C 1.2081(3) 0.3044(3) 0.3243(2)
H18 H 1.2974 0.3293 0.3236
C25 C 1.1660(3) 0.2160(3) 0.3903(2)
H19 H 1.2267 0.1859 0.4357
C26 C 0.9557(3) 0.2213(3) 0.32802(19)
H20 H 0.8694 0.1912 0.3280
N7 N 0.1968(2) 1.0055(2) 0.55869(16)
C27 C 0.3081(3) 0.9542(3) 0.58116(19)
S1 S 0.46103(11) 0.87841(12) 0.61188(8)
Mn1_2 Mn -1.0000 2.0000 0.5000
Mn1_3 Mn 1.0000 0.0000 0.5000
N1A N -0.1279(2) 1.1430(2) 0.60330(15)
N2A N -0.5710(3) 1.2537(2) 0.79149(17)
N3A N -0.7019(3) 1.2071(2) 0.80453(17)
N4A N -0.7924(2) 1.4843(2) 0.91311(15)
N5A N -0.8892(3) 1.5189(2) 0.84533(16)
N6A N -1.0436(2) 1.8288(2) 0.60731(15)
N6_2 N 0.0436(2) 1.1712(2) 0.39269(15)
N6A_2 N -0.0436(2) 0.8288(2) 0.60731(15)
C1A C -0.2647(3) 1.1389(3) 0.63234(19)
H1A H -0.3100 1.0811 0.6058
C2A C -0.0652(4) 1.2274(3) 0.6422(2)
H2A H 0.0303 1.2313 0.6234
C3A C -0.1343(4) 1.3088(3) 0.7088(2)
H3A H -0.0866 1.3666 0.7334
C4A C -0.2765(4) 1.3027(3) 0.7381(2)
H4A H -0.3255 1.3563 0.7828
C5A C -0.3444(3) 1.2154(3) 0.6998(2)
C6A C -0.4900(3) 1.1954(3) 0.7271(2)
H5A H -0.5269 1.1366 0.6958
C7A C -0.7873(3) 1.2568(3) 0.87030(19)
C8A C -0.9231(3) 1.2068(3) 0.89349(19)
C9A C -0.9424(4) 1.0913(3) 0.8582(2)
H6A H -0.8692 1.0447 0.8207
C10A C -1.0702(4) 1.0460(3) 0.8788(3)
H7A H -1.0834 0.9695 0.8544
C11A C -1.1793(4) 1.1143(3) 0.9360(3)
H8A H -1.2650 1.0832 0.9501
C12A C -1.1604(3) 1.2264(3) 0.9710(2)
H9A H -1.2334 1.2720 1.0091
C13A C -1.0345(3) 1.2729(3) 0.9506(2)
H10A H -1.0231 1.3498 0.9753
C14A C -0.7503(3) 1.3594(3) 0.92700(18)
C15A C -0.6602(3) 1.3134(3) 1.00329(19)
C16A C -0.6214(4) 1.1801(3) 1.0270(2)
H11A H -0.6511 1.1189 0.9938
C17A C -0.5398(4) 1.1368(4) 1.0987(3)
H12A H -0.5164 1.0472 1.1139
C18A C -0.4933(4) 1.2238(4) 1.1471(2)
H13A H -0.4366 1.1934 1.1945
C19A C -0.5301(3) 1.3595(4) 1.1263(2)
H14A H -0.4992 1.4197 1.1597
C20A C -0.6139(3) 1.4019(3) 1.0543(2)
H15A H -0.6394 1.4916 1.0400
C21A C -0.8825(3) 1.6294(3) 0.8051(2)
H16A H -0.8124 1.6756 0.8175
C22A C -0.9866(3) 1.6854(3) 0.73811(19)
C23A C -1.1167(3) 1.6448(3) 0.7403(2)
H17A H -1.1422 1.5838 0.7850
C24A C -1.2081(3) 1.6956(3) 0.6757(2)
H18A H -1.2974 1.6707 0.6764
C25A C -1.1660(3) 1.7840(3) 0.6097(2)
H19A H -1.2267 1.8141 0.5643
C26A C -0.9557(3) 1.7787(3) 0.67198(19)
H20A H -0.8694 1.8088 0.6720
N7A N -0.1968(2) 0.9945(2) 0.44131(16)
C27A C -0.3081(3) 1.0458(3) 0.41884(19)
S1A S -0.46103(11) 1.12159(12) 0.38812(8)
O1 O 0.2493(15) 0.4130(12) 0.5846(10)
H21 H 0.2293 0.3886 0.5370
C28 C 0.3189(19) 0.5267(16) 0.5660(12)
H22 H 0.2492 0.5948 0.5383
H23 H 0.3964 0.5022 0.5194
C29 C 0.382(3) 0.593(3) 0.6362(17)
H24 H 0.3676 0.6861 0.6220
H25 H 0.4835 0.5586 0.6360
H26 H 0.3356 0.5759 0.6950
C30? C 0.3022(18) 0.4576(18) 0.5918(11)
C31? C 0.395(2) 0.527(2) 0.6391(14)
H27? H 0.1841 0.4650 0.4992
H28? H 0.3624 0.3773 0.5709
H29? H 0.2311 0.4313 0.6374
H30? H 0.4471 0.4659 0.6815
H31? H 0.3365 0.5978 0.6708
H32? H 0.4625 0.5609 0.5955
O2? O 0.2271(16) 0.5175(16) 0.5183(9)
loop_
_geom_bond_atom_site_label_1
_geom_bond_atom_site_label_2
_geom_bond_site_symmetry_1
_geom_bond_site_symmetry_2
Mn1 N1 1_555 1_555
N1 C1 1_555 1_555
N2 N3 1_555 1_555
N3 C7 1_555 1_555
N4 N5 1_555 1_555
N5 C21 1_555 1_555
N6 C25 1_555 1_555
C1 H1 1_555 1_555
C2 N1 1_555 1_555
H2 C2 1_555 1_555
C3 C2 1_555 1_555
H3 C3 1_555 1_555
C4 C3 1_555 1_555
H4 C4 1_555 1_555
C5 C1 1_555 1_555
C6 N2 1_555 1_555
H5 C6 1_555 1_555
C7 C8 1_555 1_555
C8 C9 1_555 1_555
C9 H6 1_555 1_555
C10 C9 1_555 1_555
H7 C10 1_555 1_555
C11 C10 1_555 1_555
H8 C11 1_555 1_555
C12 C11 1_555 1_555
H9 C12 1_555 1_555
C13 C8 1_555 1_555
H10 C13 1_555 1_555
C14 N4 1_555 1_555
C15 C14 1_555 1_555
C16 C15 1_555 1_555
H11 C16 1_555 1_555
C17 C16 1_555 1_555
H12 C17 1_555 1_555
C18 C17 1_555 1_555
H13 C18 1_555 1_555
C19 C18 1_555 1_555
H14 C19 1_555 1_555
C20 C15 1_555 1_555
H15 C20 1_555 1_555
C21 H16 1_555 1_555
C22 C21 1_555 1_555
C23 C22 1_555 1_555
H17 C23 1_555 1_555
C24 C23 1_555 1_555
H18 C24 1_555 1_555
C25 C24 1_555 1_555
H19 C25 1_555 1_555
C26 N6 1_555 1_555
H20 C26 1_555 1_555
N7 Mn1 1_555 1_555
C27 N7 1_555 1_555
S1 C27 1_555 1_555
O1 H21 1_555 1_555
C28 O1 1_555 1_555
H22 C28 1_555 1_555
H23 C28 1_555 1_555
C29 C28 1_555 1_555
H24 C29 1_555 1_555
H25 C29 1_555 1_555
H26 C29 1_555 1_555
Mn1_2 N6A 1_555 1_555
Mn1_3 N6 1_555 1_555
N1A Mn1 1_555 1_555
N2A N3A 1_555 1_555
N3A C7A 1_555 1_555
N4A N5A 1_555 1_555
N5A C21A 1_555 1_555
N6A C25A 1_555 1_555
N6_2 Mn1 1_555 1_555
N6A_2 Mn1 1_555 1_555
C1A N1A 1_555 1_555
H1A C1A 1_555 1_555
C2A N1A 1_555 1_555
H2A C2A 1_555 1_555
C3A C2A 1_555 1_555
H3A C3A 1_555 1_555
C4A C3A 1_555 1_555
H4A C4A 1_555 1_555
C5A C1A 1_555 1_555
C6A N2A 1_555 1_555
H5A C6A 1_555 1_555
C7A C8A 1_555 1_555
C8A C9A 1_555 1_555
C9A H6A 1_555 1_555
C10A C9A 1_555 1_555
H7A C10A 1_555 1_555
C11A C10A 1_555 1_555
H8A C11A 1_555 1_555
C12A C11A 1_555 1_555
H9A C12A 1_555 1_555
C13A C8A 1_555 1_555
H10A C13A 1_555 1_555
C14A N4A 1_555 1_555
C15A C14A 1_555 1_555
C16A C15A 1_555 1_555
H11A C16A 1_555 1_555
C17A C16A 1_555 1_555
H12A C17A 1_555 1_555
C18A C17A 1_555 1_555
H13A C18A 1_555 1_555
C19A C18A 1_555 1_555
H14A C19A 1_555 1_555
C20A C15A 1_555 1_555
H15A C20A 1_555 1_555
C21A H16A 1_555 1_555
C22A C21A 1_555 1_555
C23A C22A 1_555 1_555
H17A C23A 1_555 1_555
C24A C23A 1_555 1_555
H18A C24A 1_555 1_555
C25A C24A 1_555 1_555
H19A C25A 1_555 1_555
C26A N6A 1_555 1_555
H20A C26A 1_555 1_555
N7A Mn1 1_555 1_555
C27A N7A 1_555 1_555
S1A C27A 1_555 1_555
C4 C5 1_555 1_555
C5 C6 1_555 1_555
C7 C14 1_555 1_555
C12 C13 1_555 1_555
C19 C20 1_555 1_555
C22 C26 1_555 1_555
C4A C5A 1_555 1_555
C5A C6A 1_555 1_555
C7A C14A 1_555 1_555
C12A C13A 1_555 1_555
C19A C20A 1_555 1_555
C22A C26A 1_555 1_555

#END
