
#######################################################################
#
#                 Cambridge Crystallographic Data Centre
#                                CCDC 
#
#######################################################################
#
# If this CIF has been generated from an entry in the Cambridge 
# Structural Database, then it will include bibliographic, chemical, 
# crystal, experimental, refinement or atomic coordinate data resulting 
# from the CCDC's data processing and validation procedures.
#
#######################################################################

data_DUYTEX
_symmetry_cell_setting           triclinic
_symmetry_space_group_name_H-M   'P -1'
_symmetry_Int_Tables_number      2
_space_group_name_Hall           '-P 1'
loop_
_symmetry_equiv_pos_site_id
_symmetry_equiv_pos_as_xyz
1 x,y,z
2 -x,-y,-z
_cell_length_a                   8.5305(8)
_cell_length_b                   10.6074(10)
_cell_length_c                   14.4874(13)
_cell_angle_alpha                92.912(2)
_cell_angle_beta                 92.474(2)
_cell_angle_gamma                104.149(2)
_cell_volume                     1267.41
loop_
_atom_site_label
_atom_site_type_symbol
_atom_site_fract_x
_atom_site_fract_y
_atom_site_fract_z
Fe1 Fe -0.5000 -0.5000 -0.5000
Cl1 Cl -0.75455(8) -0.54110(6) -0.59256(4)
N1 N -0.5842(2) -0.34649(18) -0.40789(13)
N2 N -0.4162(2) -0.01774(18) -0.16282(13)
N3 N -0.3047(2) 0.01856(18) -0.08523(13)
N4 N -0.2149(2) 0.28756(19) -0.19987(13)
N5 N -0.0771(3) 0.23827(19) -0.21446(14)
N6 N 0.3792(2) 0.35524(18) -0.40321(13)
C1 C -0.4966(3) -0.2922(2) -0.33014(17)
H1 H -0.4054 -0.3211 -0.3135
C2 C -0.7202(3) -0.3081(2) -0.42461(18)
H2 H -0.7846 -0.3443 -0.4774
C3 C -0.7711(4) -0.2197(3) -0.36974(19)
H3 H -0.8690 -0.1993 -0.3840
C4 C -0.6766(3) -0.1615(2) -0.29368(18)
H4 H -0.7081 -0.0995 -0.2561
C5 C -0.5341(3) -0.1956(2) -0.27316(17)
C6 C -0.4238(3) -0.1331(2) -0.19387(16)
H5 H -0.3578 -0.1798 -0.1657
C7 C -0.2528(3) 0.1415(2) -0.06935(15)
C8 C -0.1474(3) 0.1900(2) 0.01557(16)
C9 C -0.1004(3) 0.3220(2) 0.04172(18)
H6 H -0.1322 0.3809 0.0042
C10 C -0.0067(3) 0.3676(3) 0.12289(18)
H7 H 0.0248 0.4564 0.1396
C11 C 0.0391(3) 0.2795(3) 0.17835(19)
H8 H 0.1000 0.3094 0.2334
C12 C -0.0042(3) 0.1472(3) 0.15336(18)
H9 H 0.0291 0.0884 0.1904
C13 C -0.0975(3) 0.1046(3) 0.07258(16)
H10 H -0.1280 0.0158 0.0558
C14 C -0.2961(3) 0.2407(2) -0.13073(16)
C15 C -0.4344(3) 0.2940(2) -0.10761(16)
C16 C -0.5516(3) 0.2298(2) -0.05198(17)
H11 H -0.5411 0.1534 -0.0266
C17 C -0.6851(3) 0.2783(2) -0.03348(18)
H12 H -0.7640 0.2341 0.0036
C18 C -0.6995(3) 0.3910(3) -0.07015(18)
H13 H -0.7887 0.4233 -0.0575
C19 C -0.5850(3) 0.4577(2) -0.12540(19)
H14 H -0.5970 0.5343 -0.1501
C20 C -0.4522(3) 0.4106(2) -0.14409(18)
H15 H -0.3738 0.4560 -0.1810
C21 C -0.0001(3) 0.2974(2) -0.27994(17)
H16 H -0.0449 0.3568 -0.3101
C22 C 0.1530(3) 0.2776(2) -0.31014(16)
C23 C 0.2273(3) 0.1854(2) -0.27532(17)
H17 H 0.1765 0.1280 -0.2331
C24 C 0.3772(3) 0.1808(2) -0.30454(17)
H18 H 0.4294 0.1201 -0.2824
C25 C 0.4482(3) 0.2668(2) -0.36655(17)
H19 H 0.5507 0.2640 -0.3845
C26 C 0.2309(3) 0.3568(2) -0.37416(16)
H20 H 0.1787 0.4156 -0.3994
Fe1_2 Fe -1.5000 -1.5000 -0.5000
Fe1_3 Fe 0.5000 0.5000 -0.5000
Cl1A Cl -0.24545(8) -0.45890(6) -0.40744(4)
N1A N -0.4158(2) -0.65351(18) -0.59211(13)
N2A N -0.5838(2) -0.98226(18) -0.83718(13)
N3A N -0.6953(2) -1.01856(18) -0.91477(13)
N4A N -0.7851(2) -1.28756(19) -0.80013(13)
N5A N -0.9229(3) -1.23827(19) -0.78554(14)
N6A N -1.3792(2) -1.35524(18) -0.59679(13)
N6_2 N -0.6208(2) -0.64476(18) -0.40321(13)
N6A_2 N -0.3792(2) -0.35524(18) -0.59679(13)
C1A C -0.5034(3) -0.7078(2) -0.66986(17)
H1A H -0.5946 -0.6789 -0.6865
C2A C -0.2798(3) -0.6919(2) -0.57539(18)
H2A H -0.2154 -0.6557 -0.5226
C3A C -0.2289(4) -0.7803(3) -0.63026(19)
H3A H -0.1310 -0.8007 -0.6160
C4A C -0.3234(3) -0.8385(2) -0.70632(18)
H4A H -0.2919 -0.9005 -0.7439
C5A C -0.4659(3) -0.8044(2) -0.72684(17)
C6A C -0.5762(3) -0.8669(2) -0.80613(16)
H5A H -0.6422 -0.8202 -0.8343
C7A C -0.7472(3) -1.1415(2) -0.93065(15)
C8A C -0.8526(3) -1.1900(2) -1.01557(16)
C9A C -0.8996(3) -1.3220(2) -1.04172(18)
H6A H -0.8678 -1.3809 -1.0042
C10A C -0.9933(3) -1.3676(3) -1.12289(18)
H7A H -1.0248 -1.4564 -1.1396
C11A C -1.0391(3) -1.2795(3) -1.17835(19)
H8A H -1.1000 -1.3094 -1.2334
C12A C -0.9958(3) -1.1472(3) -1.15336(18)
H9A H -1.0291 -1.0884 -1.1904
C13A C -0.9025(3) -1.1046(3) -1.07258(16)
H10A H -0.8720 -1.0158 -1.0558
C14A C -0.7039(3) -1.2407(2) -0.86927(16)
C15A C -0.5656(3) -1.2940(2) -0.89239(16)
C16A C -0.4484(3) -1.2298(2) -0.94802(17)
H11A H -0.4589 -1.1534 -0.9734
C17A C -0.3149(3) -1.2783(2) -0.96652(18)
H12A H -0.2360 -1.2341 -1.0036
C18A C -0.3005(3) -1.3910(3) -0.92985(18)
H13A H -0.2113 -1.4233 -0.9425
C19A C -0.4150(3) -1.4577(2) -0.87460(19)
H14A H -0.4030 -1.5343 -0.8499
C20A C -0.5478(3) -1.4106(2) -0.85591(18)
H15A H -0.6262 -1.4560 -0.8190
C21A C -0.9999(3) -1.2974(2) -0.72006(17)
H16A H -0.9551 -1.3568 -0.6899
C22A C -1.1530(3) -1.2776(2) -0.68986(16)
C23A C -1.2273(3) -1.1854(2) -0.72468(17)
H17A H -1.1765 -1.1280 -0.7669
C24A C -1.3772(3) -1.1808(2) -0.69546(17)
H18A H -1.4294 -1.1201 -0.7176
C25A C -1.4482(3) -1.2668(2) -0.63345(17)
H19A H -1.5507 -1.2640 -0.6155
C26A C -1.2309(3) -1.3568(2) -0.62584(16)
H20A H -1.1787 -1.4156 -0.6006
C27 C 0.8200(7) -0.0592(6) -0.4356(8)
C28 C 0.7096(5) 0.0141(4) -0.4266(4)
H21 H 0.7293 0.0810 -0.4699
H22 H 0.7197 0.0534 -0.3648
H23 H 0.6023 -0.0405 -0.4389
N7 N 0.8757(8) -0.1326(5) -0.3908(6)
C29? C 0.8407(8) -0.0323(6) -0.3992(9)
N8? N 0.8813(7) -0.1455(6) -0.4535(5)
loop_
_geom_bond_atom_site_label_1
_geom_bond_atom_site_label_2
_geom_bond_site_symmetry_1
_geom_bond_site_symmetry_2
Fe1 Cl1 1_555 1_555
N1 Fe1 1_555 1_555
N2 N3 1_555 1_555
N3 C7 1_555 1_555
N4 N5 1_555 1_555
N5 C21 1_555 1_555
N6 C25 1_555 1_555
C1 N1 1_555 1_555
H1 C1 1_555 1_555
C2 N1 1_555 1_555
H2 C2 1_555 1_555
C3 C2 1_555 1_555
H3 C3 1_555 1_555
C4 C3 1_555 1_555
H4 C4 1_555 1_555
C5 C1 1_555 1_555
C6 N2 1_555 1_555
H5 C6 1_555 1_555
C7 C8 1_555 1_555
C8 C9 1_555 1_555
C9 H6 1_555 1_555
C10 C9 1_555 1_555
H7 C10 1_555 1_555
C11 C10 1_555 1_555
H8 C11 1_555 1_555
C12 C11 1_555 1_555
H9 C12 1_555 1_555
C13 C8 1_555 1_555
H10 C13 1_555 1_555
C14 N4 1_555 1_555
C15 C14 1_555 1_555
C16 C15 1_555 1_555
H11 C16 1_555 1_555
C17 C16 1_555 1_555
H12 C17 1_555 1_555
C18 C17 1_555 1_555
H13 C18 1_555 1_555
C19 C18 1_555 1_555
H14 C19 1_555 1_555
C20 C15 1_555 1_555
H15 C20 1_555 1_555
C21 H16 1_555 1_555
C22 C21 1_555 1_555
C23 C22 1_555 1_555
H17 C23 1_555 1_555
C24 C23 1_555 1_555
H18 C24 1_555 1_555
C25 C24 1_555 1_555
H19 C25 1_555 1_555
C26 N6 1_555 1_555
H20 C26 1_555 1_555
C27 C28 1_555 1_555
C28 H21 1_555 1_555
H22 C28 1_555 1_555
H23 C28 1_555 1_555
N7 C27 1_555 1_555
Fe1_2 N6A 1_555 1_555
Fe1_3 N6 1_555 1_555
Cl1A Fe1 1_555 1_555
N1A Fe1 1_555 1_555
N2A N3A 1_555 1_555
N3A C7A 1_555 1_555
N4A N5A 1_555 1_555
N5A C21A 1_555 1_555
N6A C25A 1_555 1_555
N6_2 Fe1 1_555 1_555
N6A_2 Fe1 1_555 1_555
C1A N1A 1_555 1_555
H1A C1A 1_555 1_555
C2A N1A 1_555 1_555
H2A C2A 1_555 1_555
C3A C2A 1_555 1_555
H3A C3A 1_555 1_555
C4A C3A 1_555 1_555
H4A C4A 1_555 1_555
C5A C1A 1_555 1_555
C6A N2A 1_555 1_555
H5A C6A 1_555 1_555
C7A C8A 1_555 1_555
C8A C9A 1_555 1_555
C9A H6A 1_555 1_555
C10A C9A 1_555 1_555
H7A C10A 1_555 1_555
C11A C10A 1_555 1_555
H8A C11A 1_555 1_555
C12A C11A 1_555 1_555
H9A C12A 1_555 1_555
C13A C8A 1_555 1_555
H10A C13A 1_555 1_555
C14A N4A 1_555 1_555
C15A C14A 1_555 1_555
C16A C15A 1_555 1_555
H11A C16A 1_555 1_555
C17A C16A 1_555 1_555
H12A C17A 1_555 1_555
C18A C17A 1_555 1_555
H13A C18A 1_555 1_555
C19A C18A 1_555 1_555
H14A C19A 1_555 1_555
C20A C15A 1_555 1_555
H15A C20A 1_555 1_555
C21A H16A 1_555 1_555
C22A C21A 1_555 1_555
C23A C22A 1_555 1_555
H17A C23A 1_555 1_555
C24A C23A 1_555 1_555
H18A C24A 1_555 1_555
C25A C24A 1_555 1_555
H19A C25A 1_555 1_555
C26A N6A 1_555 1_555
H20A C26A 1_555 1_555
C4 C5 1_555 1_555
C5 C6 1_555 1_555
C7 C14 1_555 1_555
C12 C13 1_555 1_555
C19 C20 1_555 1_555
C22 C26 1_555 1_555
C4A C5A 1_555 1_555
C5A C6A 1_555 1_555
C7A C14A 1_555 1_555
C12A C13A 1_555 1_555
C19A C20A 1_555 1_555
C22A C26A 1_555 1_555

#END
