
#######################################################################
#
#                 Cambridge Crystallographic Data Centre
#                                CCDC 
#
#######################################################################
#
# If this CIF has been generated from an entry in the Cambridge 
# Structural Database, then it will include bibliographic, chemical, 
# crystal, experimental, refinement or atomic coordinate data resulting 
# from the CCDC's data processing and validation procedures.
#
#######################################################################

data_DUYWAV
_symmetry_cell_setting           triclinic
_symmetry_space_group_name_H-M   'P -1'
_symmetry_Int_Tables_number      2
_space_group_name_Hall           '-P 1'
loop_
_symmetry_equiv_pos_site_id
_symmetry_equiv_pos_as_xyz
1 x,y,z
2 -x,-y,-z
_cell_length_a                   11.784(3)
_cell_length_b                   16.053(4)
_cell_length_c                   10.439(2)
_cell_angle_alpha                99.07(2)
_cell_angle_beta                 95.45(2)
_cell_angle_gamma                83.22(2)
_cell_volume                     1930.52
loop_
_atom_site_label
_atom_site_type_symbol
_atom_site_fract_x
_atom_site_fract_y
_atom_site_fract_z
Ru1 Ru -0.00786(4) 0.06470(3) 0.06328(4)
Ru2 Ru -0.00285(4) 0.43241(3) 0.44737(4)
O1 O 0.1511(3) 0.0397(2) 0.1431(4)
O2 O 0.1641(3) 0.4078(2) 0.4996(4)
O3 O -0.0688(3) 0.0113(2) 0.2010(4)
O4 O 0.0421(4) 0.4688(3) 0.2850(4)
O5 O -0.0133(4) 0.1952(3) 0.1790(4)
O7 O -0.1675(3) 0.0880(2) -0.0213(4)
O8 O -0.1715(3) 0.4601(2) 0.3977(4)
O9 O 0.0550(4) 0.1150(2) -0.0754(4)
O10 O -0.0445(4) 0.3985(3) 0.6132(4)
O11 O 0.0041(4) 0.3022(3) 0.3381(4)
C1 C 0.2065(5) -0.0326(4) 0.1091(5)
C2 C 0.2195(5) 0.4660(4) 0.5614(6)
C3 C -0.0781(5) -0.0675(4) 0.1819(6)
C4 C 0.0577(5) 0.5471(4) 0.2886(6)
C5 C -0.0429(5) 0.2367(3) 0.2864(5)
C7 C 0.3214(5) -0.0508(4) 0.1753(6)
C8 C 0.3790(7) -0.1317(5) 0.1548(8)
C9 C 0.4865(8) -0.1476(6) 0.220(1)
C10 C 0.5348(7) -0.0843(6) 0.3025(9)
C11 C 0.4759(6) -0.0049(5) 0.3253(7)
C12 C 0.3694(6) 0.0129(4) 0.2617(7)
C13 C 0.3448(5) 0.4475(4) 0.5909(6)
C14 C 0.3982(6) 0.3683(5) 0.5398(8)
C15 C 0.5154(7) 0.3505(5) 0.5656(9)
C16 C 0.5777(7) 0.4110(6) 0.6404(9)
C17 C 0.5260(6) 0.4880(5) 0.6880(8)
C18 C 0.4091(6) 0.5070(5) 0.6638(8)
C19 C -0.1197(5) -0.1058(4) 0.2855(6)
C20 C -0.1237(6) -0.0608(4) 0.4109(6)
C21 C -0.1575(6) -0.0992(5) 0.5082(6)
C22 C -0.1887(6) -0.1808(5) 0.4821(7)
C23 C -0.1863(6) -0.2249(4) 0.3570(7)
C24 C -0.1511(6) -0.1883(4) 0.2587(6)
C25 C 0.0945(5) 0.5726(4) 0.1700(6)
C26 C 0.1308(6) 0.5114(4) 0.0682(6)
C27 C 0.1608(6) 0.5357(5) -0.0432(6)
C28 C 0.1552(6) 0.6196(5) -0.0567(6)
C29 C 0.1198(6) 0.6809(4) 0.0447(7)
C30 C 0.0899(6) 0.6580(4) 0.1586(6)
C31 C -0.1327(5) 0.2079(4) 0.3524(6)
C32 C -0.1254(6) 0.2148(4) 0.4886(6)
C33 C -0.2058(6) 0.1834(5) 0.5501(7)
C34 C -0.2969(6) 0.1474(5) 0.4764(7)
C35 C -0.3073(6) 0.1425(5) 0.3434(7)
C36 C -0.2248(5) 0.1716(4) 0.2804(7)
H2 H 0.3295 0.0681 0.2770
H3 H 0.5088 0.0381 0.3853
H4 H 0.6089 -0.0951 0.3444
H5 H 0.5264 -0.2028 0.2066
H6 H 0.3456 -0.1757 0.0970
H7 H 0.3548 0.3271 0.4881
H8 H 0.5527 0.2969 0.5319
H9 H 0.6578 0.3983 0.6586
H10 H 0.5701 0.5290 0.7383
H11 H 0.3731 0.5610 0.6973
H12 H -0.1031 -0.0044 0.4292
H13 H -0.1591 -0.0692 0.5941
H14 H -0.2119 -0.2065 0.5499
H15 H -0.2091 -0.2806 0.3387
H16 H -0.1478 -0.2191 0.1734
H17 H 0.1351 0.4529 0.0757
H18 H 0.1854 0.4935 -0.1123
H19 H 0.1754 0.63583 -0.1348
H20 H 0.1161 0.7392 0.0360
H21 H 0.0666 0.7003 0.2282
H22 H -0.0646 0.2415 0.5387
H23 H -0.1988 0.1861 0.6421
H24 H -0.3527 0.1257 0.5184
H25 H -0.3711 0.1190 0.2943
H26 H -0.2312 0.1669 0.1881
Ru1A Ru 0.00786(4) -0.06470(3) -0.06328(4)
C1A C -0.2065(5) 0.0326(4) -0.1091(5)
C3A C 0.0781(5) 0.0675(4) -0.1819(6)
O7A O 0.1675(3) -0.0880(2) 0.0213(4)
O9A O -0.0550(4) -0.1150(2) 0.0754(4)
Ru2A Ru 0.00285(4) 0.56759(3) 0.55263(4)
C2A C -0.2195(5) 0.5340(4) 0.4386(6)
C4A C -0.0577(5) 0.4529(4) 0.7114(6)
O8A O 0.1715(3) 0.5399(2) 0.6023(4)
O10A O 0.0445(4) 0.6015(3) 0.3868(4)
O1A O -0.1511(3) -0.0397(2) -0.1431(4)
O3A O 0.0688(3) -0.0113(2) -0.2010(4)
O5A O 0.0133(4) -0.1952(3) -0.1790(4)
C7A C -0.3214(5) 0.0508(4) -0.1753(6)
C19A C 0.1197(5) 0.1058(4) -0.2855(6)
O2A O -0.1641(3) 0.5922(2) 0.5004(4)
O4A O -0.0421(4) 0.5312(3) 0.7150(4)
O11A O -0.0041(4) 0.6978(3) 0.6619(4)
C13A C -0.3448(5) 0.5525(4) 0.4091(6)
C25A C -0.0945(5) 0.4274(4) 0.8300(6)
C5A C 0.0429(5) -0.2367(3) -0.2864(5)
C8A C -0.3790(7) 0.1317(5) -0.1548(8)
C12A C -0.3694(6) -0.0129(4) -0.2617(7)
C20A C 0.1237(6) 0.0608(4) -0.4109(6)
C24A C 0.1511(6) 0.1883(4) -0.2587(6)
C14A C -0.3982(6) 0.6317(5) 0.4602(8)
C18A C -0.4091(6) 0.4930(5) 0.3362(8)
C26A C -0.1308(6) 0.4886(4) 0.9318(6)
C30A C -0.0899(6) 0.3420(4) 0.8414(6)
O11A_2 O -0.0041(4) -0.3022(3) -0.3381(4)
C31A C 0.1327(5) -0.2079(4) -0.3524(6)
C9A C -0.4865(8) 0.1476(6) -0.220(1)
H6A H -0.3456 0.1757 -0.0970
C11A C -0.4759(6) 0.0049(5) -0.3253(7)
H2A H -0.3295 -0.0681 -0.2770
C21A C 0.1575(6) 0.0992(5) -0.5082(6)
H12A H 0.1031 0.0044 -0.4292
C23A C 0.1863(6) 0.2249(4) -0.3570(7)
H16A H 0.1478 0.2191 -0.1734
C15A C -0.5154(7) 0.6495(5) 0.4344(9)
H7A H -0.3548 0.6729 0.5119
C17A C -0.5260(6) 0.5120(5) 0.3120(8)
H11A H -0.3731 0.4390 0.3027
C27A C -0.1608(6) 0.4643(5) 1.0432(6)
H17A H -0.1351 0.5471 0.9243
C29A C -0.1198(6) 0.3191(4) 0.9553(7)
H21A H -0.0666 0.2997 0.7718
C32A C 0.1254(6) -0.2148(4) -0.4886(6)
C36A C 0.2248(5) -0.1716(4) -0.2804(7)
C10A C -0.5348(7) 0.0843(6) -0.3025(9)
H5A H -0.5264 0.2028 -0.2066
H3A H -0.5088 -0.0381 -0.3853
C22A C 0.1887(6) 0.1808(5) -0.4821(7)
H13A H 0.1591 0.0692 -0.5941
H15A H 0.2091 0.2806 -0.3387
C16A C -0.5777(7) 0.5890(6) 0.3596(9)
H8A H -0.5527 0.7031 0.4681
H10A H -0.5701 0.4710 0.2617
C28A C -0.1552(6) 0.3804(5) 1.0567(6)
H18A H -0.1854 0.5065 1.1123
H20A H -0.1161 0.2608 0.9640
C33A C 0.2058(6) -0.1834(5) -0.5501(7)
H22A H 0.0646 -0.2415 -0.5387
C35A C 0.3073(6) -0.1425(5) -0.3434(7)
H26A H 0.2312 -0.1669 -0.1881
H4A H -0.6089 0.0951 -0.3444
H14A H 0.2119 0.2065 -0.5499
H9A H -0.6578 0.6017 0.3414
H19A H -0.1754 0.36417 1.1348
C34A C 0.2969(6) -0.1474(5) -0.4764(7)
H23A H 0.1988 -0.1861 -0.6421
H25A H 0.3711 -0.1190 -0.2943
H24A H 0.3527 -0.1257 -0.5184
Ru2A_2 Ru 0.00285(4) -0.43241(3) -0.44737(4)
O6 O 0.1653(4) 0.2729(3) 0.0984(5)
O12 O 0.2897(5) 0.2248(3) 0.2528(5)
C6 C 0.2685(6) 0.2593(4) 0.1589(7)
C37 C 0.3605(6) 0.2938(4) 0.0964(7)
C38 C 0.3351(6) 0.3363(4) -0.0099(7)
C39 C 0.4216(6) 0.3682(5) -0.0607(7)
C40 C 0.5325(6) 0.3568(5) -0.0083(8)
C41 C 0.5572(6) 0.3137(5) 0.0939(8)
C42 C 0.4719(7) 0.2826(5) 0.1477(7)
H1 H 0.0898 0.2656 0.1367
H27 H 0.2585 0.3435 -0.0473
H28 H 0.4044 0.3981 -0.1328
H29 H 0.5918 0.3792 -0.0436
H30 H 0.6342 0.3050 0.1291
H31 H 0.4902 0.2529 0.2202
loop_
_geom_bond_atom_site_label_1
_geom_bond_atom_site_label_2
_geom_bond_site_symmetry_1
_geom_bond_site_symmetry_2
Ru1 O1 1_555 1_555
Ru2 O2 1_555 1_555
O1 C1 1_555 1_555
O2 C2 1_555 1_555
O3 Ru1 1_555 1_555
O4 Ru2 1_555 1_555
O5 Ru1 1_555 1_555
O6 C6 1_555 1_555
O7 Ru1 1_555 1_555
O8 Ru2 1_555 1_555
O9 Ru1 1_555 1_555
O10 Ru2 1_555 1_555
O11 Ru2 1_555 1_555
O12 C6 1_555 1_555
C1 C7 1_555 1_555
C2 C13 1_555 1_555
C3 O3 1_555 1_555
C4 O4 1_555 1_555
C5 O5 1_555 1_555
C6 C37 1_555 1_555
C7 C8 1_555 1_555
C8 C9 1_555 1_555
C9 C10 1_555 1_555
C10 C11 1_555 1_555
C11 C12 1_555 1_555
C12 C7 1_555 1_555
C13 C14 1_555 1_555
C14 C15 1_555 1_555
C15 C16 1_555 1_555
C16 C17 1_555 1_555
C17 C18 1_555 1_555
C18 C13 1_555 1_555
C19 C3 1_555 1_555
C20 C19 1_555 1_555
C21 C20 1_555 1_555
C22 C21 1_555 1_555
C23 C22 1_555 1_555
C24 C19 1_555 1_555
C25 C4 1_555 1_555
C26 C25 1_555 1_555
C27 C26 1_555 1_555
C28 C27 1_555 1_555
C29 C28 1_555 1_555
C30 C25 1_555 1_555
C31 C5 1_555 1_555
C32 C31 1_555 1_555
C33 C32 1_555 1_555
C34 C33 1_555 1_555
C35 C34 1_555 1_555
C36 C31 1_555 1_555
C37 C38 1_555 1_555
C38 C39 1_555 1_555
C39 C40 1_555 1_555
C40 C41 1_555 1_555
C41 C42 1_555 1_555
C42 C37 1_555 1_555
H1 O6 1_555 1_555
H2 C12 1_555 1_555
H3 C11 1_555 1_555
H4 C10 1_555 1_555
H5 C9 1_555 1_555
H6 C8 1_555 1_555
H7 C14 1_555 1_555
H8 C15 1_555 1_555
H9 C16 1_555 1_555
H10 C17 1_555 1_555
H11 C18 1_555 1_555
H12 C20 1_555 1_555
H13 C21 1_555 1_555
H14 C22 1_555 1_555
H15 C23 1_555 1_555
H16 C24 1_555 1_555
H17 C26 1_555 1_555
H18 C27 1_555 1_555
H19 C28 1_555 1_555
H20 C29 1_555 1_555
H21 C30 1_555 1_555
H22 C32 1_555 1_555
H23 C33 1_555 1_555
H24 C34 1_555 1_555
H25 C35 1_555 1_555
H26 C36 1_555 1_555
H27 C38 1_555 1_555
H28 C39 1_555 1_555
H29 C40 1_555 1_555
H30 C41 1_555 1_555
H31 C42 1_555 1_555
Ru1A Ru1 1_555 1_555
C1A O7 1_555 1_555
C3A O9 1_555 1_555
O7A C1 1_555 1_555
O9A C3 1_555 1_555
Ru2A Ru2 1_555 1_555
C2A O8 1_555 1_555
C4A O10 1_555 1_555
O8A C2 1_555 1_555
O10A C4 1_555 1_555
O1A Ru1A 1_555 1_555
O3A Ru1A 1_555 1_555
O5A Ru1A 1_555 1_555
C7A C1A 1_555 1_555
C19A C3A 1_555 1_555
O2A Ru2A 1_555 1_555
O4A Ru2A 1_555 1_555
O11A Ru2A 1_555 1_555
C13A C2A 1_555 1_555
C25A C4A 1_555 1_555
C5A O5A 1_555 1_555
C8A C7A 1_555 1_555
C12A C7A 1_555 1_555
C20A C19A 1_555 1_555
C24A C19A 1_555 1_555
C14A C13A 1_555 1_555
C18A C13A 1_555 1_555
C26A C25A 1_555 1_555
C30A C25A 1_555 1_555
O11A_2 C5A 1_555 1_555
C31A C5A 1_555 1_555
C9A C8A 1_555 1_555
H6A C8A 1_555 1_555
C11A C12A 1_555 1_555
H2A C12A 1_555 1_555
C21A C20A 1_555 1_555
H12A C20A 1_555 1_555
C23A C24A 1_555 1_555
H16A C24A 1_555 1_555
C15A C14A 1_555 1_555
H7A C14A 1_555 1_555
C17A C18A 1_555 1_555
H11A C18A 1_555 1_555
C27A C26A 1_555 1_555
H17A C26A 1_555 1_555
C29A C30A 1_555 1_555
H21A C30A 1_555 1_555
C32A C31A 1_555 1_555
C36A C31A 1_555 1_555
C10A C9A 1_555 1_555
H5A C9A 1_555 1_555
H3A C11A 1_555 1_555
C22A C21A 1_555 1_555
H13A C21A 1_555 1_555
H15A C23A 1_555 1_555
C16A C15A 1_555 1_555
H8A C15A 1_555 1_555
H10A C17A 1_555 1_555
C28A C27A 1_555 1_555
H18A C27A 1_555 1_555
H20A C29A 1_555 1_555
C33A C32A 1_555 1_555
H22A C32A 1_555 1_555
C35A C36A 1_555 1_555
H26A C36A 1_555 1_555
H4A C10A 1_555 1_555
H14A C22A 1_555 1_555
H9A C16A 1_555 1_555
H19A C28A 1_555 1_555
C34A C33A 1_555 1_555
H23A C33A 1_555 1_555
H25A C35A 1_555 1_555
H24A C34A 1_555 1_555
Ru2A_2 O11A_2 1_555 1_555
O11 C5 1_555 1_555
C23 C24 1_555 1_555
C29 C30 1_555 1_555
C35 C36 1_555 1_555
Ru1A O7A 1_555 1_555
Ru1A O9A 1_555 1_555
C1A O1A 1_555 1_555
C3A O3A 1_555 1_555
Ru2A O8A 1_555 1_555
Ru2A O10A 1_555 1_555
C2A O2A 1_555 1_555
C4A O4A 1_555 1_555
C11A C10A 1_555 1_555
C23A C22A 1_555 1_555
C17A C16A 1_555 1_555
C29A C28A 1_555 1_555
C35A C34A 1_555 1_555

#END
