
#######################################################################
#
#                 Cambridge Crystallographic Data Centre
#                                CCDC 
#
#######################################################################
#
# If this CIF has been generated from an entry in the Cambridge 
# Structural Database, then it will include bibliographic, chemical, 
# crystal, experimental, refinement or atomic coordinate data resulting 
# from the CCDC's data processing and validation procedures.
#
#######################################################################

data_DUYYUR
_symmetry_cell_setting           monoclinic
_symmetry_space_group_name_H-M   'P 21/c'
_symmetry_Int_Tables_number      14
_space_group_name_Hall           '-P 2ybc'
loop_
_symmetry_equiv_pos_site_id
_symmetry_equiv_pos_as_xyz
1 x,y,z
2 -x,1/2+y,1/2-z
3 -x,-y,-z
4 x,1/2-y,1/2+z
_cell_length_a                   9.201(2)
_cell_length_b                   9.990(6)
_cell_length_c                   14.605(5)
_cell_angle_alpha                90
_cell_angle_beta                 122.3(3)
_cell_angle_gamma                90
_cell_volume                     1134.73
loop_
_atom_site_label
_atom_site_type_symbol
_atom_site_fract_x
_atom_site_fract_y
_atom_site_fract_z
Sr1 Sr -0.2592(1) -0.0159(1) 0.4095(1)
S1 S 0.0006(4) 0.6641(2) 0.2880(2)
S2 S 0.2668(3) 0.4947(3) 0.4666(2)
C1 C 0.0575(12) 0.5234(9) 0.3708(7)
C2 C -0.0711(11) 0.4343(9) 0.3549(7)
C3 C -0.0334(12) 0.3180(9) 0.4188(8)
C4 C -0.2484(13) 0.4536(8) 0.2717(8)
N1 N -0.0123(12) 0.2218(9) 0.4637(7)
N2 N -0.3909(11) 0.4643(9) 0.2074(8)
O1 O -0.3323(9) -0.1707(7) 0.5315(7)
O2 O 0.0103(8) -0.0415(6) 0.3850(5)
O3 O -0.3802(10) 0.1933(7) 0.4499(7)
O4 O -0.3648(9) 0.1054(8) 0.2236(6)
O5 O -0.3421(10) -0.2266(8) 0.2868(8)
H1 H -0.3204(36) -0.2608(21) 0.5134(31)
H2 H -0.2282(31) -0.1459(29) 0.5976(23)
H3 H 0.0283(38) -0.1334(12) 0.3742(26)
H4 H 0.0026(39) 0.0111(29) 0.3275(18)
H5 H -0.3148(32) 0.2738(19) 0.4807(29)
H6 H -0.4596(31) 0.1842(35) 0.4732(25)
H7 H -0.2453(15) 0.1295(31) 0.2633(32)
H8 H -0.3804(34) 0.0284(28) 0.1798(28)
H9 H -0.4474(24) -0.1780(33) 0.2592(25)
H10 H -0.2723(35) -0.2148(37) 0.3639(10)
Sr1B Sr 0.2592(1) 0.0159(1) 0.5905(1)
N1B N 0.0123(12) -0.2218(9) 0.5363(7)
O2B O -0.0103(8) 0.0415(6) 0.6150(5)
N2A N -0.6091(11) -0.0357(9) 0.2926(8)
H3B H -0.0283(38) 0.1334(12) 0.6258(26)
H4B H -0.0026(39) -0.0111(29) 0.6725(18)
Sr1A Sr -0.7408(1) 0.4841(1) 0.0905(1)
loop_
_geom_bond_atom_site_label_1
_geom_bond_atom_site_label_2
_geom_bond_site_symmetry_1
_geom_bond_site_symmetry_2
Sr1 N1 1_555 1_555
S1 C1 1_555 1_555
S2 C1 1_555 1_555
C1 C2 1_555 1_555
C2 C3 1_555 1_555
C3 N1 1_555 1_555
C4 C2 1_555 1_555
N1 Sr1B 1_555 1_555
N2 C4 1_555 1_555
O1 Sr1 1_555 1_555
O2 Sr1 1_555 1_555
O3 Sr1 1_555 1_555
O4 Sr1 1_555 1_555
O5 Sr1 1_555 1_555
H1 O1 1_555 1_555
H2 O1 1_555 1_555
H3 O2 1_555 1_555
H4 O2 1_555 1_555
H5 O3 1_555 1_555
H6 O3 1_555 1_555
H7 O4 1_555 1_555
H8 O4 1_555 1_555
H9 O5 1_555 1_555
H10 O5 1_555 1_555
Sr1B O2 1_555 1_555
N1B Sr1 1_555 1_555
O2B Sr1 1_555 1_555
N2A Sr1 1_555 1_555
H3B O2B 1_555 1_555
H4B O2B 1_555 1_555
Sr1A N2 1_555 1_555
Sr1B N1B 1_555 1_555
Sr1B O2B 1_555 1_555

#END
