
#######################################################################
#
#                 Cambridge Crystallographic Data Centre
#                                CCDC 
#
#######################################################################
#
# If this CIF has been generated from an entry in the Cambridge 
# Structural Database, then it will include bibliographic, chemical, 
# crystal, experimental, refinement or atomic coordinate data resulting 
# from the CCDC's data processing and validation procedures.
#
#######################################################################

data_DUZJIS
_symmetry_cell_setting           monoclinic
_symmetry_space_group_name_H-M   'C 2/c'
_symmetry_Int_Tables_number      15
_space_group_name_Hall           '-C 2yn'
loop_
_symmetry_equiv_pos_site_id
_symmetry_equiv_pos_as_xyz
1 x,y,z
2 -x,y,1/2-z
3 1/2+x,1/2+y,z
4 1/2-x,1/2+y,1/2-z
5 -x,-y,-z
6 x,-y,1/2+z
7 1/2-x,1/2-y,-z
8 1/2+x,1/2-y,1/2+z
_cell_length_a                   24.254(2)
_cell_length_b                   6.7855(6)
_cell_length_c                   20.2586(16)
_cell_angle_alpha                90
_cell_angle_beta                 116.549(4)
_cell_angle_gamma                90
_cell_volume                     2982.5
loop_
_atom_site_label
_atom_site_type_symbol
_atom_site_fract_x
_atom_site_fract_y
_atom_site_fract_z
U1 U 0.091295(10) 0.44436(4) 0.456080(12)
O1 O 0.0659(2) 0.2247(8) 0.3533(2)
O2 O 0.1569(2) 0.3541(7) 0.3948(2)
O3 O 0.0878(2) 0.3742(8) 0.0510(3)
O4 O 0.0042(2) 0.3483(9) 0.0646(3)
O5 O 0.1937(2) 0.6033(7) 0.5193(3)
H1 H 0.2242 0.5708 0.5118
H2 H 0.1989 0.7211 0.5352
O6 O 0.1239(2) 0.2431(7) 0.5162(2)
O7 O 0.0615(2) 0.6434(8) 0.3972(3)
C1 C 0.1156(3) 0.2427(10) 0.3485(3)
C2 C 0.0599(3) 0.3091(9) 0.0843(3)
C3 C 0.1230(3) 0.1392(9) 0.2865(3)
C4 C 0.0902(3) 0.2727(8) 0.2181(3)
H5 H 0.1099 0.4010 0.2276
H6 H 0.0475 0.2907 0.2079
C5 C 0.0935(3) 0.1767(8) 0.1507(3)
C6 C 0.0611(3) -0.0247(9) 0.1370(3)
H7 H 0.0185 -0.0069 0.1274
H8 H 0.0616 -0.0870 0.0942
C7 C 0.0941(3) -0.1554(9) 0.2046(3)
H9 H 0.0737 -0.2842 0.1950
C8 C 0.0908(3) -0.0616(8) 0.2708(3)
H10 H 0.1107 -0.1465 0.3136
H11 H 0.0480 -0.0450 0.2609
C9 C 0.1904(3) 0.1136(10) 0.3022(3)
H12 H 0.2106 0.2410 0.3114
H13 H 0.2117 0.0323 0.3457
C10 C 0.1928(3) 0.0160(9) 0.2356(3)
H14 H 0.2360 -0.0024 0.2457
C11 C 0.1605(3) 0.1463(9) 0.1672(3)
H15 H 0.1811 0.2728 0.1757
H16 H 0.1626 0.0844 0.1253
C12 C 0.1610(3) -0.1837(9) 0.2211(4)
H17 H 0.1634 -0.2470 0.1796
H18 H 0.1813 -0.2676 0.2641
U1E U 0.091295(10) 0.55564(4) -0.043920(12)
U1A U -0.091295(10) 0.44436(4) 0.043920(12)
O3E O 0.0878(2) 0.6258(8) 0.5510(3)
O4A O -0.0042(2) 0.3483(9) 0.4354(3)
O8 O 0.2729(2) 0.5055(7) 0.4596(3)
H3 H 0.2426 0.4561 0.4226
H4 H 0.3054 0.4444 0.4656
loop_
_geom_bond_atom_site_label_1
_geom_bond_atom_site_label_2
_geom_bond_site_symmetry_1
_geom_bond_site_symmetry_2
U1 O1 1_555 1_555
O1 C1 1_555 1_555
O2 U1 1_555 1_555
O3 C2 1_555 1_555
O4 C2 1_555 1_555
O5 U1 1_555 1_555
H1 O5 1_555 1_555
H2 O5 1_555 1_555
O6 U1 1_555 1_555
O7 U1 1_555 1_555
O8 H3 1_555 1_555
H4 O8 1_555 1_555
C1 O2 1_555 1_555
C2 C5 1_555 1_555
C3 C1 1_555 1_555
C4 C3 1_555 1_555
H5 C4 1_555 1_555
H6 C4 1_555 1_555
C5 C4 1_555 1_555
C6 C5 1_555 1_555
H7 C6 1_555 1_555
H8 C6 1_555 1_555
C7 C6 1_555 1_555
H9 C7 1_555 1_555
C8 C3 1_555 1_555
H10 C8 1_555 1_555
H11 C8 1_555 1_555
C9 C3 1_555 1_555
H12 C9 1_555 1_555
H13 C9 1_555 1_555
C10 C9 1_555 1_555
H14 C10 1_555 1_555
C11 C5 1_555 1_555
H15 C11 1_555 1_555
H16 C11 1_555 1_555
C12 C7 1_555 1_555
H17 C12 1_555 1_555
H18 C12 1_555 1_555
U1E O3 1_555 1_555
U1A O4 1_555 1_555
O3E U1 1_555 1_555
O4A U1 1_555 1_555
C7 C8 1_555 1_555
C10 C11 1_555 1_555
C10 C12 1_555 1_555

#END
