
#######################################################################
#
#                 Cambridge Crystallographic Data Centre
#                                CCDC 
#
#######################################################################
#
# If this CIF has been generated from an entry in the Cambridge 
# Structural Database, then it will include bibliographic, chemical, 
# crystal, experimental, refinement or atomic coordinate data resulting 
# from the CCDC's data processing and validation procedures.
#
#######################################################################

data_DUZJAK
_symmetry_cell_setting           monoclinic
_symmetry_space_group_name_H-M   'C 2/c'
_symmetry_Int_Tables_number      15
_space_group_name_Hall           '-C 2yn'
loop_
_symmetry_equiv_pos_site_id
_symmetry_equiv_pos_as_xyz
1 x,y,z
2 -x,y,1/2-z
3 1/2+x,1/2+y,z
4 1/2-x,1/2+y,1/2-z
5 -x,-y,-z
6 x,-y,1/2+z
7 1/2-x,1/2-y,-z
8 1/2+x,1/2-y,1/2+z
_cell_length_a                   14.1052(15)
_cell_length_b                   16.8934(18)
_cell_length_c                   8.8967(10)
_cell_angle_alpha                90
_cell_angle_beta                 127.4510(10)
_cell_angle_gamma                90
_cell_volume                     1682.97
loop_
_atom_site_label
_atom_site_type_symbol
_atom_site_fract_x
_atom_site_fract_y
_atom_site_fract_z
Cd1 Cd 0.5000 0.121775(12) 0.2500
C1 C 0.3978(2) 0.18005(16) 0.4098(3)
C2 C 0.3230(2) 0.21612(15) 0.4602(3)
C3 C 0.3294(2) 0.19039(16) 0.6140(3)
H1 H 0.3827 0.1504 0.6912
C4 C 0.2426(2) 0.27640(15) 0.3458(4)
H2 H 0.2376 0.2943 0.2423
C5 C 0.1481(3) 0.12819(17) -0.0186(4)
H3 H 0.1547 0.1827 -0.0248
C6 C 0.0601(3) 0.09790(19) -0.0114(4)
H4 H 0.0084 0.1324 -0.0122
C7 C 0.0473(2) 0.01719(18) -0.0029(4)
C8 C 0.1276(3) -0.0311(2) -0.0051(6)
H5 H 0.1221 -0.0858 -0.0013
C9 C 0.2140(3) 0.0007(2) -0.0128(6)
H6 H 0.2657 -0.0324 -0.0153
N1 N 0.22446(19) 0.07991(16) -0.0167(3)
O1 O 0.30712(19) 0.10944(14) -0.0268(3)
O2 O 0.4223(2) 0.22237(12) 0.3220(3)
O3 O 0.42876(19) 0.10875(11) 0.4489(3)
O4 O 0.5000 -0.01188(16) 0.2500
H7 H 0.514(3) -0.042(2) 0.333(5)
Cd1F Cd 0.0000 0.378225(12) 0.7500
Cd1D Cd -0.5000 -0.121775(12) -0.2500
C1F C 0.1022(2) 0.31995(16) 0.5902(3)
C2F C 0.1770(2) 0.28388(15) 0.5398(3)
C3F C 0.1706(2) 0.30961(16) 0.3860(3)
H1F H 0.1173 0.3496 0.3088
C4F C 0.2574(2) 0.22360(15) 0.6542(4)
H2F H 0.2624 0.2057 0.7577
C5D C -0.1481(3) -0.12819(17) 0.0186(4)
H3D H -0.1547 -0.1827 0.0248
C6D C -0.0601(3) -0.09790(19) 0.0114(4)
H4D H -0.0084 -0.1324 0.0122
C7D C -0.0473(2) -0.01719(18) 0.0029(4)
C8D C -0.1276(3) 0.0311(2) 0.0051(6)
H5D H -0.1221 0.0858 0.0013
C9D C -0.2140(3) -0.0007(2) 0.0128(6)
H6D H -0.2657 0.0324 0.0153
N1D N -0.22446(19) -0.07991(16) 0.0167(3)
O1D O -0.30712(19) -0.10944(14) 0.0268(3)
O1A O 0.69288(19) 0.10944(14) 0.5268(3)
O2F O 0.0777(2) 0.27763(12) 0.6780(3)
O2A O 0.5777(2) 0.22237(12) 0.1780(3)
O3F O 0.07124(19) 0.39125(11) 0.5511(3)
O3A O 0.57124(19) 0.10875(11) 0.0511(3)
H7A H 0.486(3) -0.042(2) 0.167(5)
loop_
_geom_bond_atom_site_label_1
_geom_bond_atom_site_label_2
_geom_bond_site_symmetry_1
_geom_bond_site_symmetry_2
Cd1 O1 1_555 1_555
C1 C2 1_555 1_555
C2 C3 1_555 1_555
C3 H1 1_555 1_555
C4 C2 1_555 1_555
H2 C4 1_555 1_555
C5 H3 1_555 1_555
C6 C5 1_555 1_555
H4 C6 1_555 1_555
C7 C6 1_555 1_555
C8 C7 1_555 1_555
H5 C8 1_555 1_555
C9 C8 1_555 1_555
H6 C9 1_555 1_555
N1 C5 1_555 1_555
O1 N1 1_555 1_555
O2 Cd1 1_555 1_555
O3 Cd1 1_555 1_555
O4 Cd1 1_555 1_555
H7 O4 1_555 1_555
Cd1F O2F 1_555 1_555
Cd1D O1D 1_555 1_555
C1F C2F 1_555 1_555
C2F C3F 1_555 1_555
C3F C4 1_555 1_555
H1F C3F 1_555 1_555
C4F C3 1_555 1_555
H2F C4F 1_555 1_555
C5D H3D 1_555 1_555
C6D C5D 1_555 1_555
H4D C6D 1_555 1_555
C7D C7 1_555 1_555
C8D C7D 1_555 1_555
H5D C8D 1_555 1_555
C9D C8D 1_555 1_555
H6D C9D 1_555 1_555
N1D C5D 1_555 1_555
O1D N1D 1_555 1_555
O1A Cd1 1_555 1_555
O2F C1F 1_555 1_555
O2A Cd1 1_555 1_555
O3F Cd1F 1_555 1_555
O3A Cd1 1_555 1_555
H7A O4 1_555 1_555
C1 O2 1_555 1_555
C1 O3 1_555 1_555
C9 N1 1_555 1_555
C1F O3F 1_555 1_555
C2F C4F 1_555 1_555
C6D C7D 1_555 1_555
C9D N1D 1_555 1_555

#END
