
#######################################################################
#
#                 Cambridge Crystallographic Data Centre
#                                CCDC 
#
#######################################################################
#
# If this CIF has been generated from an entry in the Cambridge 
# Structural Database, then it will include bibliographic, chemical, 
# crystal, experimental, refinement or atomic coordinate data resulting 
# from the CCDC's data processing and validation procedures.
#
#######################################################################

data_DUZWUR
_symmetry_cell_setting           triclinic
_symmetry_space_group_name_H-M   'P -1'
_symmetry_Int_Tables_number      2
_space_group_name_Hall           '-P 1'
loop_
_symmetry_equiv_pos_site_id
_symmetry_equiv_pos_as_xyz
1 x,y,z
2 -x,-y,-z
_cell_length_a                   8.8599(18)
_cell_length_b                   14.669(3)
_cell_length_c                   17.013(3)
_cell_angle_alpha                83.43(3)
_cell_angle_beta                 77.74(3)
_cell_angle_gamma                79.98(3)
_cell_volume                     2120.82
loop_
_atom_site_label
_atom_site_type_symbol
_atom_site_fract_x
_atom_site_fract_y
_atom_site_fract_z
C1 C -0.1081(4) 0.1138(2) -0.42554(18)
C2 C -0.1062(4) 0.1752(2) -0.49578(19)
H1 H -0.0609 0.2301 -0.4997
C3 C -0.1685(4) 0.1570(2) -0.55856(19)
C4 C -0.2345(4) 0.0755(2) -0.5551(2)
H2 H -0.2809 0.0641 -0.5978
C5 C -0.2306(4) 0.0128(2) -0.4887(2)
H3 H -0.2702 -0.0437 -0.4870
C6 C -0.1688(4) 0.0308(2) -0.42305(19)
C7 C -0.1730(4) -0.0364(2) -0.3545(2)
H4 H -0.2187 -0.0900 -0.3559
C8 C -0.1370(4) -0.1006(2) -0.2229(2)
H5 H -0.1437 -0.1607 -0.2420
H6 H -0.2327 -0.0821 -0.1825
C9 C 0.0060(4) -0.1082(2) -0.1869(2)
H7 H -0.0105 -0.1402 -0.1320
H8 H 0.0977 -0.1432 -0.2209
C10 C 0.0860(4) 0.0099(2) -0.12603(19)
H9 H 0.1113 -0.0383 -0.0865
C11 C 0.0934(3) 0.1758(2) -0.17680(18)
C12 C 0.1130(4) 0.1007(2) -0.1170(2)
C13 C 0.1544(4) 0.1178(2) -0.0446(2)
H10 H 0.1731 0.0671 -0.0060
C14 C 0.1682(4) 0.2048(2) -0.0288(2)
H11 H 0.1921 0.2148 0.0211
C15 C 0.1467(4) 0.2795(2) -0.0872(2)
C16 C 0.1163(4) 0.2637(2) -0.16055(19)
H12 H 0.1108 0.3137 -0.2011
C17 C -0.1652(4) 0.2233(2) -0.63334(19)
C18 C 0.1480(4) 0.3774(2) -0.0674(2)
C19 C 0.3194(4) 0.6000(2) -0.53565(18)
C20 C 0.2263(4) 0.5300(2) -0.50531(19)
H13 H 0.1664 0.5110 -0.5389
C21 C 0.2204(4) 0.4882(2) -0.42737(19)
C22 C 0.3092(4) 0.5141(2) -0.37692(19)
H14 H 0.3039 0.4865 -0.3233
C23 C 0.4037(4) 0.5797(2) -0.40619(19)
H15 H 0.4676 0.5953 -0.3730
C24 C 0.4090(4) 0.6249(2) -0.48439(19)
C25 C 0.5112(4) 0.6932(2) -0.5097(2)
H16 H 0.5731 0.7032 -0.4732
C26 C 0.6409(4) 0.8064(2) -0.5987(2)
H17 H 0.6588 0.8284 -0.5491
H18 H 0.7417 0.7750 -0.6282
C27 C 0.5740(4) 0.8867(2) -0.6511(2)
H19 H 0.6578 0.9201 -0.6827
H20 H 0.4964 0.9308 -0.6175
C28 C 0.4845(4) 0.8884(2) -0.7745(2)
H21 H 0.5233 0.9458 -0.7880
C29 C 0.3458(4) 0.7735(2) -0.81621(19)
C30 C 0.4144(4) 0.8556(2) -0.8325(2)
C31 C 0.4204(4) 0.9046(2) -0.9090(2)
H22 H 0.4625 0.9611 -0.9194
C32 C 0.3666(4) 0.8722(2) -0.9693(2)
H23 H 0.3710 0.9063 -1.0205
C33 C 0.3049(4) 0.7883(2) -0.95435(19)
C34 C 0.2925(4) 0.7420(2) -0.8785(2)
H24 H 0.2463 0.6869 -0.8682
C35 C 0.1202(4) 0.4138(2) -0.39711(19)
C36 C 0.2554(4) 0.7475(2) -1.0208(2)
N1 N -0.1191(3) -0.02890(17) -0.29100(16)
N2 N 0.0294(3) -0.01133(17) -0.18422(16)
N3 N 0.5254(3) 0.74198(18) -0.57827(17)
N4 N 0.4982(3) 0.84536(17) -0.70550(16)
O1 O -0.0527(3) 0.13759(14) -0.36553(13)
O2 O 0.0536(3) 0.16699(14) -0.24593(13)
O3 O -0.2728(3) 0.22720(16) -0.67227(14)
O4 O -0.0536(3) 0.26920(17) -0.65375(14)
O5 O 0.1419(3) 0.44205(15) -0.12285(15)
O6 O 0.1517(3) 0.38855(17) 0.00463(15)
O7 O 0.3178(3) 0.63878(15) -0.61013(13)
O8 O 0.3312(3) 0.72344(15) -0.74580(13)
O9 O 0.0668(3) 0.40445(16) -0.32205(14)
O10 O 0.0941(3) 0.36305(15) -0.44574(14)
O11 O 0.2225(3) 0.66698(17) -1.00828(15)
O12 O 0.2534(3) 0.79712(16) -1.08624(14)
O13 O -0.0312(3) 0.64052(16) -0.20109(15)
O14 O -0.2469(3) 0.49024(16) -0.09331(14)
O15 O 0.6533(3) 0.69974(18) -0.12659(18)
O16 O 0.3223(3) 0.66091(16) -0.19107(14)
O17 O 0.4627(3) 0.44195(19) -0.1925(2)
O18 O -0.2635(3) 0.5318(2) -0.28659(16)
Na1 Na -0.07765(15) 0.28889(8) -0.33581(8)
Na2 Na 0.10792(16) 0.60024(9) -0.09618(8)
Na3 Na -0.04190(17) 0.48651(9) -0.21479(8)
Na4 Na 0.55577(17) 0.56957(10) -0.16610(9)
Ni1 Ni -0.02229(5) 0.06574(3) -0.27159(2)
Ni2 Ni 0.42006(5) 0.73737(3) -0.65938(2)
O6A O -0.1517(3) 0.61145(17) -0.00463(15)
O7A O -0.3178(3) 0.36122(15) -0.38987(13)
O8A O -0.3312(3) 0.27656(15) -0.25420(13)
O11_2 O 0.2225(3) 0.66698(17) -0.00828(15)
O14_2 O 0.7531(3) 0.49024(16) -0.09331(14)
O18_2 O 0.7365(3) 0.5318(2) -0.28659(16)
Na1A Na 0.07765(15) 0.71111(8) -0.66419(8)
Na2A Na -0.10792(16) 0.39976(9) 0.09618(8)
Na2_2 Na 0.10792(16) 0.60024(9) -1.09618(8)
Na4_2 Na -0.44423(17) 0.56957(10) -0.16610(9)
O19 O -0.1842(3) -0.32449(19) -0.39770(15)
O20 O 0.4974(3) -0.1271(2) -0.18367(19)
O21 O -0.4379(3) -0.1781(2) -0.3442(2)
loop_
_geom_bond_atom_site_label_1
_geom_bond_atom_site_label_2
_geom_bond_site_symmetry_1
_geom_bond_site_symmetry_2
C1 C2 1_555 1_555
C2 H1 1_555 1_555
C3 C2 1_555 1_555
C4 C3 1_555 1_555
H2 C4 1_555 1_555
C5 C4 1_555 1_555
H3 C5 1_555 1_555
C6 C1 1_555 1_555
C7 C6 1_555 1_555
H4 C7 1_555 1_555
C8 H5 1_555 1_555
H6 C8 1_555 1_555
C9 C8 1_555 1_555
H7 C9 1_555 1_555
H8 C9 1_555 1_555
C10 H9 1_555 1_555
C11 C12 1_555 1_555
C12 C10 1_555 1_555
C13 C12 1_555 1_555
H10 C13 1_555 1_555
C14 C13 1_555 1_555
H11 C14 1_555 1_555
C15 C14 1_555 1_555
C16 C11 1_555 1_555
H12 C16 1_555 1_555
C17 C3 1_555 1_555
C18 C15 1_555 1_555
C19 C20 1_555 1_555
C20 H13 1_555 1_555
C21 C20 1_555 1_555
C22 C21 1_555 1_555
H14 C22 1_555 1_555
C23 C22 1_555 1_555
H15 C23 1_555 1_555
C24 C19 1_555 1_555
C25 C24 1_555 1_555
H16 C25 1_555 1_555
C26 H17 1_555 1_555
H18 C26 1_555 1_555
C27 C26 1_555 1_555
H19 C27 1_555 1_555
H20 C27 1_555 1_555
C28 H21 1_555 1_555
C29 C30 1_555 1_555
C30 C28 1_555 1_555
C31 C30 1_555 1_555
H22 C31 1_555 1_555
C32 C31 1_555 1_555
H23 C32 1_555 1_555
C33 C32 1_555 1_555
C34 C29 1_555 1_555
H24 C34 1_555 1_555
C35 C21 1_555 1_555
C36 C33 1_555 1_555
N1 C7 1_555 1_555
N2 C9 1_555 1_555
N3 C25 1_555 1_555
N4 C27 1_555 1_555
O1 C1 1_555 1_555
O2 C11 1_555 1_555
O3 C17 1_555 1_555
O4 C17 1_555 1_555
O5 C18 1_555 1_555
O6 C18 1_555 1_555
O7 C19 1_555 1_555
O8 C29 1_555 1_555
O9 C35 1_555 1_555
O10 C35 1_555 1_555
O11 C36 1_555 1_555
O12 C36 1_555 1_555
O13 Na2 1_555 1_555
O14 Na3 1_555 1_555
O15 Na4 1_555 1_555
O16 Na2 1_555 1_555
O17 Na4 1_555 1_555
O18 Na3 1_555 1_555
Na1 O1 1_555 1_555
Na2 O5 1_555 1_555
Na3 O5 1_555 1_555
Na4 O16 1_555 1_555
Ni1 N1 1_555 1_555
Ni2 N3 1_555 1_555
O6A Na2 1_555 1_555
O7A Na1 1_555 1_555
O8A Na1 1_555 1_555
O11_2 Na2 1_555 1_555
O14_2 Na4 1_555 1_555
O18_2 Na4 1_555 1_555
Na1A O7 1_555 1_555
Na2A O6 1_555 1_555
Na2_2 O11 1_555 1_555
Na4_2 O14 1_555 1_555
C5 C6 1_555 1_555
C8 N1 1_555 1_555
C10 N2 1_555 1_555
C15 C16 1_555 1_555
C23 C24 1_555 1_555
C26 N3 1_555 1_555
C28 N4 1_555 1_555
C33 C34 1_555 1_555
N2 Ni1 1_555 1_555
N4 Ni2 1_555 1_555
O1 Ni1 1_555 1_555
O2 Na1 1_555 1_555
O2 Ni1 1_555 1_555
O7 Ni2 1_555 1_555
O8 Ni2 1_555 1_555
O8 Na1A 1_555 1_555
O9 Na1 1_555 1_555
O9 Na3 1_555 1_555
O10 Na1 1_555 1_555
O13 Na3 1_555 1_555
O18 Na4_2 1_555 1_555

#END
