
#######################################################################
#
#                 Cambridge Crystallographic Data Centre
#                                CCDC 
#
#######################################################################
#
# If this CIF has been generated from an entry in the Cambridge 
# Structural Database, then it will include bibliographic, chemical, 
# crystal, experimental, refinement or atomic coordinate data resulting 
# from the CCDC's data processing and validation procedures.
#
#######################################################################

data_DUZZUU
_symmetry_cell_setting           orthorhombic
_symmetry_space_group_name_H-M   'P n m a'
_symmetry_Int_Tables_number      62
_space_group_name_Hall           '-P 2ac 2n'
loop_
_symmetry_equiv_pos_site_id
_symmetry_equiv_pos_as_xyz
1 x,y,z
2 1/2-x,-y,1/2+z
3 1/2+x,1/2-y,1/2-z
4 -x,1/2+y,-z
5 -x,-y,-z
6 1/2+x,y,1/2-z
7 1/2-x,1/2+y,1/2+z
8 x,1/2-y,z
_cell_length_a                   13.023(3)
_cell_length_b                   14.858(3)
_cell_length_c                   17.961(4)
_cell_angle_alpha                90
_cell_angle_beta                 90
_cell_angle_gamma                90
_cell_volume                     3475.38
loop_
_atom_site_label
_atom_site_type_symbol
_atom_site_fract_x
_atom_site_fract_y
_atom_site_fract_z
I1 I -0.13806(14) 0.2500 0.39980(8)
I2 I -0.17237(9) 0.09243(7) 0.19210(6)
I3 I -0.40835(13) 0.2500 0.29374(8)
Cu1 Cu -0.04100(18) 0.16069(15) 0.28795(11)
Cu2 Cu -0.2145(2) 0.2500 0.25605(17)
Ca1 Ca 0.3429(4) 0.2500 0.5748(2)
O1 O 0.2193(10) 0.1419(9) 0.5293(6)
O2 O 0.2334(10) -0.0041(8) 0.5624(6)
O3 O 0.4286(9) 0.0934(8) 0.5771(6)
O4 O 0.5330(14) 0.2500 0.5585(9)
O5 O 0.3710(14) 0.2500 0.4441(8)
H1 H 0.4060 0.1961 0.4295
O6 O 0.4051(14) 0.2500 0.6982(9)
H2 H 0.4499 0.3039 0.7062
N1 N 0.0274(11) 0.0642(10) 0.3519(7)
C1 C 0.1327(14) 0.0273(11) 0.4580(9)
C2 C 0.0904(14) 0.0895(12) 0.4089(8)
H3 H 0.1059 0.1515 0.4152
C3 C 0.0097(14) -0.0231(12) 0.3443(9)
H4 H -0.0325 -0.0426 0.3043
C4 C 0.0488(16) -0.0855(14) 0.3909(11)
H5 H 0.0311 -0.1470 0.3844
C5 C 0.1128(14) -0.0616(11) 0.4468(9)
H6 H 0.1434 -0.1061 0.4776
C6 C 0.2025(14) 0.0634(14) 0.5193(10)
C7 C 0.2823(15) 0.0196(13) 0.6315(10)
H7 H 0.2625 -0.0244 0.6703
H8 H 0.2580 0.0797 0.6475
C8 C 0.3961(14) 0.0211(12) 0.6244(10)
H9 H 0.4273 0.0284 0.6743
H10 H 0.4200 -0.0368 0.6034
C9 C 0.5372(14) 0.0951(13) 0.5741(10)
H11 H 0.5632 0.0369 0.5550
H12 H 0.5654 0.1043 0.6248
C10 C 0.5708(16) 0.1688(12) 0.5248(10)
H13 H 0.6466 0.1702 0.5211
H14 H 0.5418 0.1611 0.4743
I4 I 0.15131(17) 0.2500 0.72081(11)
I2G I -0.17237(9) 0.40757(7) 0.19210(6)
I3B I 0.09165(13) 0.2500 0.20626(8)
Cu1G Cu -0.04100(18) 0.33931(15) 0.28795(11)
Cu1B Cu -0.54100(18) 0.33931(15) 0.21205(11)
Cu1E Cu -0.54100(18) 0.16069(15) 0.21205(11)
O1G O 0.2193(10) 0.3581(9) 0.5293(6)
O2G O 0.2334(10) 0.5041(8) 0.5624(6)
O3G O 0.4286(9) 0.4066(8) 0.5771(6)
H1G H 0.4060 0.3039 0.4295
H2G H 0.4499 0.1961 0.7062
N1G N 0.0274(11) 0.4358(10) 0.3519(7)
C1G C 0.1327(14) 0.4727(11) 0.4580(9)
C2G C 0.0904(14) 0.4105(12) 0.4089(8)
H3G H 0.1059 0.3485 0.4152
C3G C 0.0097(14) 0.5231(12) 0.3443(9)
H4G H -0.0325 0.5426 0.3043
C4G C 0.0488(16) 0.5855(14) 0.3909(11)
H5G H 0.0311 0.6470 0.3844
C5G C 0.1128(14) 0.5616(11) 0.4468(9)
H6G H 0.1434 0.6061 0.4776
C6G C 0.2025(14) 0.4366(14) 0.5193(10)
C7G C 0.2823(15) 0.4804(13) 0.6315(10)
H7G H 0.2625 0.5244 0.6703
H8G H 0.2580 0.4203 0.6475
C8G C 0.3961(14) 0.4789(12) 0.6244(10)
H9G H 0.4273 0.4716 0.6743
H10G H 0.4200 0.5368 0.6034
C9G C 0.5372(14) 0.4049(13) 0.5741(10)
H11G H 0.5632 0.4631 0.5550
H12G H 0.5654 0.3957 0.6248
C10G C 0.5708(16) 0.3312(12) 0.5248(10)
H13G H 0.6466 0.3298 0.5211
H14G H 0.5418 0.3389 0.4743
loop_
_geom_bond_atom_site_label_1
_geom_bond_atom_site_label_2
_geom_bond_site_symmetry_1
_geom_bond_site_symmetry_2
I1 Cu1 1_555 1_555
I2 Cu1 1_555 1_555
I3 Cu2 1_555 1_555
Cu1 Cu2 1_555 1_555
Cu2 I1 1_555 1_555
Ca1 O1 1_555 1_555
O1 C6 1_555 1_555
O2 C6 1_555 1_555
O3 Ca1 1_555 1_555
O4 Ca1 1_555 1_555
O5 Ca1 1_555 1_555
H1 O5 1_555 1_555
O6 Ca1 1_555 1_555
H2 O6 1_555 1_555
N1 Cu1 1_555 1_555
C1 C2 1_555 1_555
C2 N1 1_555 1_555
H3 C2 1_555 1_555
C3 N1 1_555 1_555
H4 C3 1_555 1_555
C4 C3 1_555 1_555
H5 C4 1_555 1_555
C5 C1 1_555 1_555
H6 C5 1_555 1_555
C6 C1 1_555 1_555
C7 O2 1_555 1_555
H7 C7 1_555 1_555
H8 C7 1_555 1_555
C8 O3 1_555 1_555
H9 C8 1_555 1_555
H10 C8 1_555 1_555
C9 O3 1_555 1_555
H11 C9 1_555 1_555
H12 C9 1_555 1_555
C10 O4 1_555 1_555
H13 C10 1_555 1_555
H14 C10 1_555 1_555
I4 Ca1 1_555 1_555
I2G Cu2 1_555 1_555
I3B Cu1 1_555 1_555
Cu1G I1 1_555 1_555
Cu1B I3 1_555 1_555
Cu1E I3 1_555 1_555
O1G Ca1 1_555 1_555
O2G C6G 1_555 1_555
O3G Ca1 1_555 1_555
H1G O5 1_555 1_555
H2G O6 1_555 1_555
N1G Cu1G 1_555 1_555
C1G C2G 1_555 1_555
C2G N1G 1_555 1_555
H3G C2G 1_555 1_555
C3G N1G 1_555 1_555
H4G C3G 1_555 1_555
C4G C3G 1_555 1_555
H5G C4G 1_555 1_555
C5G C1G 1_555 1_555
H6G C5G 1_555 1_555
C6G O1G 1_555 1_555
C7G O2G 1_555 1_555
H7G C7G 1_555 1_555
H8G C7G 1_555 1_555
C8G O3G 1_555 1_555
H9G C8G 1_555 1_555
H10G C8G 1_555 1_555
C9G O3G 1_555 1_555
H11G C9G 1_555 1_555
H12G C9G 1_555 1_555
C10G O4 1_555 1_555
H13G C10G 1_555 1_555
H14G C10G 1_555 1_555
I2 Cu2 1_555 1_555
Cu1 Cu1G 1_555 1_555
Cu2 Cu1G 1_555 1_555
C4 C5 1_555 1_555
C7 C8 1_555 1_555
C9 C10 1_555 1_555
I2G Cu1G 1_555 1_555
I3B Cu1G 1_555 1_555
Cu1B Cu1E 1_555 1_555
C1G C6G 1_555 1_555
C4G C5G 1_555 1_555
C7G C8G 1_555 1_555
C9G C10G 1_555 1_555

#END
