
#######################################################################
#
#                 Cambridge Crystallographic Data Centre
#                                CCDC 
#
#######################################################################
#
# If this CIF has been generated from an entry in the Cambridge 
# Structural Database, then it will include bibliographic, chemical, 
# crystal, experimental, refinement or atomic coordinate data resulting 
# from the CCDC's data processing and validation procedures.
#
#######################################################################

data_EAHIHG
_symmetry_cell_setting           monoclinic
_symmetry_space_group_name_H-M   'C 2/c'
_symmetry_Int_Tables_number      15
_space_group_name_Hall           '-C 2yn'
loop_
_symmetry_equiv_pos_site_id
_symmetry_equiv_pos_as_xyz
1 x,y,z
2 1/2+x,1/2+y,z
3 -x,y,1/2-z
4 1/2-x,1/2+y,1/2-z
5 -x,-y,-z
6 1/2-x,1/2-y,-z
7 x,-y,1/2+z
8 1/2+x,1/2-y,1/2+z
_cell_length_a                   20.07(1)
_cell_length_b                   8.522(5)
_cell_length_c                   15.92(1)
_cell_angle_alpha                90
_cell_angle_beta                 107.45(5)
_cell_angle_gamma                90
_cell_volume                     2597.59
loop_
_atom_site_label
_atom_site_type_symbol
_atom_site_fract_x
_atom_site_fract_y
_atom_site_fract_z
Hg1 Hg 0.32524 0.29630 0.11140
I1 I 0.33160 0.19170 -0.05240
I2 I 0.38870 0.55380 0.19050
S1 S 0.34390 0.06100 0.21730
S2 S 0.49020 0.09200 0.34060
N1 N 0.38700 0.25000 0.35500
C1 C 0.50000 -0.03800 0.25000
C2 C 0.40400 0.13900 0.30500
C3 C 0.31100 0.31200 0.34400
C4 C 0.29000 0.29600 0.42300
C5 C 0.44000 0.35200 0.42800
C6 C 0.45500 0.24000 0.51500
I1E I 0.16840 0.30830 0.05240
Hg1E Hg 0.17476 0.20370 -0.11140
S2B S 0.50980 0.09200 0.15940
I2E I 0.11130 -0.05380 -0.19050
S1E S 0.15610 0.43900 -0.21730
C2B C 0.59600 0.13900 0.19500
S1B S 0.65610 0.06100 0.28270
N1B N 0.61300 0.25000 0.14500
Hg1B Hg 0.67476 0.29630 0.38860
C3B C 0.68900 0.31200 0.15600
C5B C 0.56000 0.35200 0.07200
C4B C 0.71000 0.29600 0.07700
C6B C 0.54500 0.24000 -0.01500
loop_
_geom_bond_atom_site_label_1
_geom_bond_atom_site_label_2
_geom_bond_site_symmetry_1
_geom_bond_site_symmetry_2
Hg1 I1 1_555 1_555
I1 Hg1E 1_555 1_555
I2 Hg1 1_555 1_555
S1 Hg1 1_555 1_555
S2 C1 1_555 1_555
N1 C2 1_555 1_555
C1 S2B 1_555 1_555
C2 S1 1_555 1_555
C3 N1 1_555 1_555
C4 C3 1_555 1_555
C5 N1 1_555 1_555
C6 C5 1_555 1_555
I1E Hg1 1_555 1_555
Hg1E I1E 1_555 1_555
S2B C2B 1_555 1_555
I2E Hg1E 1_555 1_555
S1E Hg1E 1_555 1_555
C2B S1B 1_555 1_555
S1B Hg1B 1_555 1_555
N1B C2B 1_555 1_555
C3B N1B 1_555 1_555
C5B N1B 1_555 1_555
C4B C3B 1_555 1_555
C6B C5B 1_555 1_555
S2 C2 1_555 1_555

#END
