
#######################################################################
#
#                 Cambridge Crystallographic Data Centre
#                                CCDC 
#
#######################################################################
#
# If this CIF has been generated from an entry in the Cambridge 
# Structural Database, then it will include bibliographic, chemical, 
# crystal, experimental, refinement or atomic coordinate data resulting 
# from the CCDC's data processing and validation procedures.
#
#######################################################################

data_EBABOZ
_symmetry_cell_setting           monoclinic
_symmetry_space_group_name_H-M   'P 21/n'
_symmetry_Int_Tables_number      14
_space_group_name_Hall           '-P 2yn'
loop_
_symmetry_equiv_pos_site_id
_symmetry_equiv_pos_as_xyz
1 x,y,z
2 1/2+x,1/2-y,1/2+z
3 -x,-y,-z
4 1/2-x,1/2+y,1/2-z
_cell_length_a                   10.647(3)
_cell_length_b                   11.093(3)
_cell_length_c                   16.647(5)
_cell_angle_alpha                90
_cell_angle_beta                 106.185(6)
_cell_angle_gamma                90
_cell_volume                     1888.21
loop_
_atom_site_label
_atom_site_type_symbol
_atom_site_fract_x
_atom_site_fract_y
_atom_site_fract_z
Co1 Co 1.0000 1.0000 0.0000
O1 O 1.0044(3) 1.1771(2) 0.03293(18)
O2 O 0.7952(4) 1.2334(3) -0.0023(3)
O3 O 0.7981(3) 0.9932(3) -0.00468(18)
O4 O 0.7665(4) 0.7025(4) 0.1484(2)
O5 O 1.1367(4) 0.6310(3) 0.3625(2)
N1 N 1.0444(4) 0.9517(3) 0.1311(2)
N2 N 0.8486(4) 0.6508(4) 0.2079(2)
N3 N 1.0245(4) 0.6157(3) 0.3110(2)
C1 C 0.9149(6) 1.2540(4) 0.0134(3)
C2 C 0.9585(5) 1.3827(4) 0.0065(3)
C3 C 1.0895(5) 1.4079(4) 0.0162(3)
H1 H 1.1499 1.3453 0.0275
C4 C 0.8683(5) 1.4770(3) -0.0095(3)
H2 H 0.7802 1.4618 -0.0156
C5 C 1.1154(5) 1.0204(4) 0.1926(3)
H3 H 1.1458 1.0941 0.1790
C6 C 1.1455(5) 0.9879(5) 0.2745(3)
H4 H 1.1967 1.0379 0.3156
C7 C 1.0991(5) 0.8794(5) 0.2961(3)
H5 H 1.1196 0.8553 0.3518
C8 C 1.0219(4) 0.8078(4) 0.2340(3)
C9 C 0.9975(4) 0.8481(4) 0.1526(3)
H6 H 0.9456 0.8006 0.1101
C10 C 0.9670(5) 0.6931(4) 0.2503(3)
C11 C 0.8143(5) 0.5397(4) 0.2492(3)
C12 C 0.7409(6) 0.4506(5) 0.1836(4)
H7 H 0.7970 0.4238 0.1509
H8 H 0.6651 0.4891 0.1477
H9 H 0.7143 0.3827 0.2106
C13 C 0.7285(6) 0.5843(5) 0.3023(4)
H10 H 0.7771 0.6398 0.3436
H11 H 0.7012 0.5171 0.3296
H12 H 0.6530 0.6242 0.2672
C14 C 0.9505(5) 0.4979(5) 0.3015(3)
C15 C 1.0178(7) 0.4144(6) 0.2551(5)
H13 H 1.1018 0.3918 0.2910
H14 H 1.0290 0.4547 0.2065
H15 H 0.9654 0.3434 0.2382
C16 C 0.9543(7) 0.4478(6) 0.3860(4)
H16 H 1.0420 0.4234 0.4143
H17 H 0.8970 0.3795 0.3793
H18 H 0.9265 0.5086 0.4183
C4B C 1.1317(5) 1.5230(3) 0.0095(3)
C2B C 1.0415(5) 1.6173(4) -0.0065(3)
C1B C 1.0851(6) 1.7460(4) -0.0134(3)
O1B O 0.9956(3) 1.8229(2) -0.03293(18)
O2B O 1.2048(4) 1.7666(3) 0.0023(3)
C3B C 0.9105(5) 1.5921(4) -0.0162(3)
H1B H 0.8501 1.6547 -0.0275
H2B H 1.2198 1.5382 0.0156
O3B O 1.2019(3) 1.0068(3) 0.00468(18)
O4B O 1.2335(4) 1.2975(4) -0.1484(2)
O5B O 0.8633(4) 1.3690(3) -0.3625(2)
N1B N 0.9556(4) 1.0483(3) -0.1311(2)
N2B N 1.1514(4) 1.3492(4) -0.2079(2)
N3B N 0.9755(4) 1.3843(3) -0.3110(2)
C5B C 0.8846(5) 0.9796(4) -0.1926(3)
H3B H 0.8542 0.9059 -0.1790
C6B C 0.8545(5) 1.0121(5) -0.2745(3)
H4B H 0.8033 0.9621 -0.3156
C7B C 0.9009(5) 1.1206(5) -0.2961(3)
H5B H 0.8804 1.1447 -0.3518
C8B C 0.9781(4) 1.1922(4) -0.2340(3)
C9B C 1.0025(4) 1.1519(4) -0.1526(3)
H6B H 1.0544 1.1994 -0.1101
C10B C 1.0330(5) 1.3069(4) -0.2503(3)
C11B C 1.1857(5) 1.4603(4) -0.2492(3)
C12B C 1.2591(6) 1.5494(5) -0.1836(4)
H7B H 1.2030 1.5762 -0.1509
H8B H 1.3349 1.5109 -0.1477
H9B H 1.2857 1.6173 -0.2106
C13B C 1.2715(6) 1.4157(5) -0.3023(4)
H10B H 1.2229 1.3602 -0.3436
H11B H 1.2988 1.4829 -0.3296
H12B H 1.3470 1.3758 -0.2672
C14B C 1.0495(5) 1.5021(5) -0.3015(3)
C15B C 0.9822(7) 1.5856(6) -0.2551(5)
H13B H 0.8982 1.6082 -0.2910
H14B H 0.9710 1.5453 -0.2065
H15B H 1.0346 1.6566 -0.2382
C16B C 1.0457(7) 1.5522(6) -0.3860(4)
H16B H 0.9580 1.5766 -0.4143
H17B H 1.1030 1.6205 -0.3793
H18B H 1.0735 1.4914 -0.4183
O1B_2 O 0.9956(3) 0.8229(2) -0.03293(18)
Co1_2 Co 1.0000 2.0000 0.0000
loop_
_geom_bond_atom_site_label_1
_geom_bond_atom_site_label_2
_geom_bond_site_symmetry_1
_geom_bond_site_symmetry_2
Co1 O1 1_555 1_555
O1 C1 1_555 1_555
O2 C1 1_555 1_555
O3 Co1 1_555 1_555
O4 N2 1_555 1_555
O5 N3 1_555 1_555
N1 Co1 1_555 1_555
N2 C10 1_555 1_555
N3 C10 1_555 1_555
C1 C2 1_555 1_555
C2 C3 1_555 1_555
C3 H1 1_555 1_555
C4 C2 1_555 1_555
H2 C4 1_555 1_555
C5 N1 1_555 1_555
H3 C5 1_555 1_555
C6 C5 1_555 1_555
H4 C6 1_555 1_555
C7 C6 1_555 1_555
H5 C7 1_555 1_555
C8 C7 1_555 1_555
C9 N1 1_555 1_555
H6 C9 1_555 1_555
C10 C8 1_555 1_555
C11 N2 1_555 1_555
C12 C11 1_555 1_555
H7 C12 1_555 1_555
H8 C12 1_555 1_555
H9 C12 1_555 1_555
C13 C11 1_555 1_555
H10 C13 1_555 1_555
H11 C13 1_555 1_555
H12 C13 1_555 1_555
C14 N3 1_555 1_555
C15 C14 1_555 1_555
H13 C15 1_555 1_555
H14 C15 1_555 1_555
H15 C15 1_555 1_555
C16 C14 1_555 1_555
H16 C16 1_555 1_555
H17 C16 1_555 1_555
H18 C16 1_555 1_555
C4B C3 1_555 1_555
C2B C4B 1_555 1_555
C1B C2B 1_555 1_555
O1B C1B 1_555 1_555
O2B C1B 1_555 1_555
C3B C4 1_555 1_555
H1B C3B 1_555 1_555
H2B C4B 1_555 1_555
O3B Co1 1_555 1_555
O4B N2B 1_555 1_555
O5B N3B 1_555 1_555
N1B Co1 1_555 1_555
N2B C10B 1_555 1_555
N3B C10B 1_555 1_555
C5B N1B 1_555 1_555
H3B C5B 1_555 1_555
C6B C5B 1_555 1_555
H4B C6B 1_555 1_555
C7B C6B 1_555 1_555
H5B C7B 1_555 1_555
C8B C7B 1_555 1_555
C9B N1B 1_555 1_555
H6B C9B 1_555 1_555
C10B C8B 1_555 1_555
C11B N2B 1_555 1_555
C12B C11B 1_555 1_555
H7B C12B 1_555 1_555
H8B C12B 1_555 1_555
H9B C12B 1_555 1_555
C13B C11B 1_555 1_555
H10B C13B 1_555 1_555
H11B C13B 1_555 1_555
H12B C13B 1_555 1_555
C14B N3B 1_555 1_555
C15B C14B 1_555 1_555
H13B C15B 1_555 1_555
H14B C15B 1_555 1_555
H15B C15B 1_555 1_555
C16B C14B 1_555 1_555
H16B C16B 1_555 1_555
H17B C16B 1_555 1_555
H18B C16B 1_555 1_555
O1B_2 Co1 1_555 1_555
Co1_2 O1B 1_555 1_555
C8 C9 1_555 1_555
C11 C14 1_555 1_555
C2B C3B 1_555 1_555
C8B C9B 1_555 1_555
C11B C14B 1_555 1_555

#END
