
#######################################################################
#
#                 Cambridge Crystallographic Data Centre
#                                CCDC 
#
#######################################################################
#
# If this CIF has been generated from an entry in the Cambridge 
# Structural Database, then it will include bibliographic, chemical, 
# crystal, experimental, refinement or atomic coordinate data resulting 
# from the CCDC's data processing and validation procedures.
#
#######################################################################

data_EBAHUL
_symmetry_cell_setting           triclinic
_symmetry_space_group_name_H-M   'P -1'
_symmetry_Int_Tables_number      2
_space_group_name_Hall           '-P 1'
loop_
_symmetry_equiv_pos_site_id
_symmetry_equiv_pos_as_xyz
1 x,y,z
2 -x,-y,-z
_cell_length_a                   13.904(4)
_cell_length_b                   22.851(6)
_cell_length_c                   27.277(8)
_cell_angle_alpha                83.949(6)
_cell_angle_beta                 88.167(6)
_cell_angle_gamma                89.857(7)
_cell_volume                     8613.76
loop_
_atom_site_label
_atom_site_type_symbol
_atom_site_fract_x
_atom_site_fract_y
_atom_site_fract_z
Mn1 Mn 0.89964(11) 0.26243(6) 0.60967(5)
Mn2 Mn 0.86961(13) 0.12803(7) 0.60925(6)
Mn3 Mn 0.79218(13) 0.37211(7) 0.64573(6)
Mn4 Mn 0.72138(12) 0.22663(7) 0.65576(5)
Mn5 Mn 0.70209(12) 0.22422(7) 0.53977(6)
Mn6 Mn 0.86832(13) 0.25211(7) 0.73919(6)
O1 O 0.8220(5) 0.2801(3) 0.6648(2)
O2 O 0.7997(4) 0.2089(2) 0.6009(2)
O3 O 0.6465(5) 0.3690(3) 0.6278(3)
O4 O 0.6371(5) 0.2832(3) 0.5985(2)
C1 C 0.6028(8) 0.3327(5) 0.6053(4)
C2 C 0.5042(8) 0.3503(5) 0.5858(5)
C3 C 0.4580(9) 0.3995(6) 0.6133(5)
H1 H 0.4416 0.3843 0.6466
H2 H 0.4008 0.4134 0.5969
H3 H 0.5027 0.4314 0.6133
C4 C 0.5198(11) 0.3772(7) 0.5309(5)
H4 H 0.5440 0.3474 0.5115
H5 H 0.5652 0.4089 0.5294
H6 H 0.4596 0.3917 0.5183
C5 C 0.4408(10) 0.2957(6) 0.5887(6)
H7 H 0.4290 0.2810 0.6227
H8 H 0.4726 0.2660 0.5718
H9 H 0.3807 0.3056 0.5736
O5 O 1.0059(5) 0.2156(3) 0.7204(2)
O6 O 0.9748(5) 0.1858(3) 0.6482(2)
C6 C 1.0303(9) 0.1913(5) 0.6844(4)
C7 C 1.1239(9) 0.1602(6) 0.6807(5)
C8 C 1.1119(11) 0.0984(6) 0.6642(7)
H10 H 1.0748 0.0743 0.6888
H11 H 1.1741 0.0809 0.6599
H12 H 1.0793 0.1013 0.6335
C9 C 1.1734(11) 0.1540(10) 0.7243(6)
H13 H 1.1344 0.1324 0.7497
H14 H 1.1878 0.1921 0.7339
H15 H 1.2322 0.1330 0.7194
C10 C 1.1841(11) 0.1923(8) 0.6407(7)
H16 H 1.1975 0.2312 0.6491
H17 H 1.1503 0.1950 0.6104
H18 H 1.2435 0.1716 0.6368
O7 O 0.7878(6) 0.0812(3) 0.5638(2)
O8 O 0.7564(6) 0.1528(3) 0.5031(3)
C11 C 0.7701(8) 0.0997(5) 0.5196(4)
C12 C 0.7600(12) 0.0518(5) 0.4855(4)
C13 C 0.8568(17) 0.0282(8) 0.4781(8)
H19 H 0.8540 -0.0028 0.4570
H20 H 0.8815 0.0129 0.5093
H21 H 0.8983 0.0590 0.4630
C14 C 0.6991(15) 0.0017(7) 0.5037(7)
H22 H 0.6982 -0.0258 0.4795
H23 H 0.6349 0.0152 0.5100
H24 H 0.7242 -0.0172 0.5338
C15 C 0.7254(19) 0.0738(8) 0.4382(5)
H25 H 0.7205 0.0420 0.4180
H26 H 0.7694 0.1029 0.4226
H27 H 0.6633 0.0914 0.4422
O9 O 0.8324(6) 0.0865(3) 0.6779(3)
O10 O 0.7988(5) 0.1670(3) 0.7146(2)
C16 C 0.8104(8) 0.1115(5) 0.7160(4)
C17 C 0.7987(10) 0.0744(5) 0.7656(4)
C18 C 0.7215(12) 0.1011(7) 0.7966(5)
H28 H 0.6609 0.1000 0.7808
H29 H 0.7379 0.1412 0.8002
H30 H 0.7166 0.0790 0.8286
C19 C 0.8993(11) 0.0745(6) 0.7877(5)
H31 H 0.9445 0.0558 0.7670
H32 H 0.8970 0.0533 0.8201
H33 H 0.9192 0.1143 0.7899
C20 C 0.7742(12) 0.0107(6) 0.7601(5)
H34 H 0.7132 0.0090 0.7448
H35 H 0.7709 -0.0114 0.7921
H36 H 0.8231 -0.0057 0.7400
O11 O 0.9720(5) 0.1466(3) 0.5517(2)
O12 O 0.9716(5) 0.2447(3) 0.5496(2)
C21 C 0.9994(7) 0.1964(5) 0.5338(4)
C22 C 1.0664(8) 0.2017(5) 0.4879(4)
C23 C 1.0004(12) 0.2075(8) 0.4447(4)
H37 H 0.9622 0.2424 0.4456
H38 H 0.9589 0.1737 0.4467
H39 H 1.0381 0.2099 0.4145
C24 C 1.1298(10) 0.1488(6) 0.4878(5)
H40 H 1.1737 0.1537 0.4597
H41 H 1.0910 0.1145 0.4861
H42 H 1.1655 0.1443 0.5175
C25 C 1.1286(12) 0.2549(6) 0.4867(6)
H43 H 1.0889 0.2892 0.4878
H44 H 1.1677 0.2587 0.4568
H45 H 1.1693 0.2510 0.5146
O13 O 0.5968(5) 0.1643(3) 0.5736(3)
O14 O 0.6329(5) 0.1609(3) 0.6532(2)
C26 C 0.5852(8) 0.1440(5) 0.6176(4)
C27 C 0.5142(9) 0.0966(5) 0.6341(4)
C28 C 0.5678(13) 0.0428(6) 0.6454(8)
H46 H 0.6045 0.0341 0.6167
H47 H 0.5239 0.0111 0.6553
H48 H 0.6104 0.0475 0.6717
C29 C 0.4601(12) 0.1097(8) 0.6783(6)
H49 H 0.4171 0.0778 0.6889
H50 H 0.4236 0.1452 0.6711
H51 H 0.5039 0.1149 0.7040
C30 C 0.4503(11) 0.0856(7) 0.5951(5)
H52 H 0.4877 0.0773 0.5664
H53 H 0.4112 0.1197 0.5870
H54 H 0.4097 0.0526 0.6060
O15 O 0.8350(5) 0.3399(3) 0.5682(2)
O16 O 0.7760(6) 0.2993(3) 0.5051(2)
C31 C 0.8148(8) 0.3413(5) 0.5222(4)
C32 C 0.8461(9) 0.3958(4) 0.4886(4)
C33 C 0.8643(14) 0.3800(6) 0.4381(5)
H55 H 0.9169 0.3527 0.4380
H56 H 0.8800 0.4148 0.4165
H57 H 0.8077 0.3621 0.4270
C34 C 0.7616(12) 0.4367(6) 0.4877(7)
H58 H 0.7775 0.4724 0.4673
H59 H 0.7457 0.4455 0.5206
H60 H 0.7075 0.4182 0.4745
C35 C 0.9338(12) 0.4231(7) 0.5040(6)
H61 H 0.9865 0.3961 0.5025
H62 H 0.9246 0.4329 0.5373
H63 H 0.9477 0.4582 0.4825
O17 O 0.7248(5) 0.2641(3) 0.7686(2)
O18 O 0.6354(5) 0.2541(3) 0.7048(3)
C36 C 0.6461(8) 0.2658(5) 0.7494(4)
C37 C 0.5583(10) 0.2871(6) 0.7746(4)
C38 C 0.5585(14) 0.2745(12) 0.8257(6)
H64 H 0.5669 0.2330 0.8340
H65 H 0.4984 0.2866 0.8398
H66 H 0.6103 0.2953 0.8386
C39 C 0.4772(12) 0.2649(9) 0.7576(7)
H67 H 0.4761 0.2230 0.7656
H68 H 0.4759 0.2740 0.7225
H69 H 0.4220 0.2819 0.7727
C40 C 0.5472(15) 0.3531(7) 0.7607(8)
H70 H 0.4901 0.3667 0.7767
H71 H 0.5422 0.3609 0.7256
H72 H 0.6022 0.3732 0.7711
O19 O 0.9052(6) 0.3370(4) 0.7567(3)
O20 O 0.7927(6) 0.3935(3) 0.7194(3)
C41 C 0.8550(9) 0.3821(6) 0.7524(5)
C42 C 0.8574(15) 0.4295(6) 0.7900(6)
C43 C 0.9716(13) 0.4502(8) 0.7780(8)
H73 H 0.9883 0.4797 0.7989
H74 H 0.9792 0.4661 0.7441
H75 H 1.0131 0.4168 0.7842
C44 C 0.8252(15) 0.4820(7) 0.7681(8)
H76 H 0.7563 0.4833 0.7713
H77 H 0.8443 0.4861 0.7338
H78 H 0.8522 0.5135 0.7838
C45 C 0.879(2) 0.4013(9) 0.8355(5)
H79 H 0.8212 0.3845 0.8514
H80 H 0.9055 0.4290 0.8554
H81 H 0.9247 0.3706 0.8313
O21 O 1.0076(5) 0.3108(3) 0.6248(2)
O22 O 0.9444(5) 0.3944(3) 0.6422(3)
C46 C 1.0133(8) 0.3644(4) 0.6331(4)
C47 C 1.1132(9) 0.3892(6) 0.6351(5)
C48 C 1.1121(11) 0.4562(5) 0.6328(6)
H82 H 1.1770 0.4707 0.6319
H83 H 1.0781 0.4679 0.6614
H84 H 1.0804 0.4723 0.6036
C49 C 1.1594(11) 0.3628(7) 0.6807(5)
H85 H 1.2240 0.3773 0.6813
H86 H 1.1605 0.3207 0.6810
H87 H 1.1233 0.3732 0.7091
C50 C 1.1754(10) 0.3741(7) 0.5916(6)
H88 H 1.2380 0.3913 0.5931
H89 H 1.1462 0.3894 0.5615
H90 H 1.1813 0.3322 0.5925
O23 O 0.5989(5) 0.2483(3) 0.4819(2)
N1 N 0.5792(7) 0.2318(4) 0.4396(3)
C51 C 0.4791(10) 0.2167(7) 0.4288(4)
C52 C 0.4540(14) 0.1665(9) 0.4655(6)
H91 H 0.3867 0.1578 0.4640
H92 H 0.4678 0.1764 0.4979
H93 H 0.4911 0.1328 0.4584
C53 C 0.4196(11) 0.2658(9) 0.4382(6)
H94 H 0.3533 0.2557 0.4349
H95 H 0.4364 0.2990 0.4150
H96 H 0.4292 0.2754 0.4711
C54 C 0.4894(9) 0.2023(6) 0.3750(5)
C55 C 0.4340(10) 0.2425(6) 0.3394(5)
H97 H 0.4463 0.2323 0.3066
H98 H 0.4537 0.2824 0.3413
H99 H 0.3665 0.2386 0.3476
C56 C 0.4754(10) 0.1400(6) 0.3664(5)
H100 H 0.4939 0.1348 0.3329
H101 H 0.4090 0.1295 0.3724
H102 H 0.5144 0.1152 0.3884
N2 N 0.5934(7) 0.2166(4) 0.3634(3)
O24 O 0.6340(6) 0.2079(4) 0.3205(3)
C57 C 0.6401(8) 0.2317(5) 0.4012(4)
C58 C 0.7446(8) 0.2466(5) 0.4003(5)
H103 H 0.7617 0.2572 0.4320
H104 H 0.7576 0.2791 0.3757
H105 H 0.7818 0.2131 0.3926
Mn7 Mn 0.70077(15) 0.38015(8) 0.14634(7)
Mn8 Mn 0.68172(14) 0.12898(7) 1.11484(6)
Mn9 Mn 0.66052(13) 0.25568(8) 0.24303(6)
Mn10 Mn 0.80971(12) 0.24478(7) 0.15245(5)
Mn11 Mn 0.62378(12) 0.26179(7) 0.11518(6)
Mn12 Mn 0.82327(12) 0.23914(7) 1.03581(6)
O25 O 0.6963(5) 0.2872(3) 0.1662(2)
O26 O 0.7370(5) 0.2186(3) 1.1026(2)
O27 O 0.7800(6) 0.0957(3) 1.0642(3)
O28 O 0.7904(6) 0.1628(3) 0.9993(3)
C59 C 0.7866(10) 0.1112(6) 1.0194(4)
C60 C 0.775(2) 0.0585(9) 0.9889(5)
C61 C 0.7351(11) 0.0618(8) 0.9531(6)
H106 H 0.6870 0.0919 0.9535
H107 H 0.7047 0.0248 0.9498
H108 H 0.7795 0.0713 0.9257
C62 C 0.8319(14) 0.0091(7) 1.0056(6)
H109 H 0.8309 -0.0192 0.9820
H110 H 0.8061 -0.0083 1.0368
H111 H 0.8969 0.0215 1.0094
C63 C 0.8880(14) 0.0787(9) 0.9527(8)
H112 H 0.9170 0.0439 0.9418
H113 H 0.9319 0.0969 0.9730
H114 H 0.8734 0.1057 0.9245
O29 O 0.5462(6) 0.3901(3) 0.1477(3)
O30 O 0.5037(5) 0.2988(4) 0.1345(3)
C64 C 0.4854(10) 0.3500(6) 0.1451(4)
C65 C 0.3777(11) 0.3634(8) 0.1529(6)
C66 C 0.3189(11) 0.3261(11) 0.1277(8)
H115 H 0.3277 0.3359 0.0928
H116 H 0.2526 0.3315 0.1371
H117 H 0.3368 0.2858 0.1363
C67 C 0.3562(11) 0.3511(10) 0.2056(7)
H118 H 0.2897 0.3596 0.2123
H119 H 0.3960 0.3753 0.2233
H120 H 0.3687 0.3104 0.2158
C68 C 0.3630(13) 0.4277(9) 0.1357(9)
H121 H 0.3689 0.4337 0.1004
H122 H 0.4107 0.4508 0.1496
H123 H 0.3001 0.4396 0.1462
O31 O 0.7481(7) 0.0980(3) 0.1811(3)
O32 O 0.7540(5) 0.1802(3) 0.2153(2)
C69 C 0.7643(8) 0.1232(5) 0.2175(4)
C70 C 0.8020(10) 0.0918(5) 0.2643(4)
C71 C 0.8560(11) 0.1307(5) 0.2941(5)
H124 H 0.9114 0.1464 0.2753
H125 H 0.8761 0.1085 0.3238
H126 H 0.8152 0.1625 0.3023
C72 C 0.7152(12) 0.0641(7) 0.2921(5)
H127 H 0.6710 0.0943 0.3000
H128 H 0.7351 0.0421 0.3220
H129 H 0.6841 0.0382 0.2720
C73 C 0.8773(12) 0.0434(6) 0.2512(5)
H130 H 0.9318 0.0620 0.2337
H131 H 0.8477 0.0170 0.2310
H132 H 0.8980 0.0216 0.2811
O33 O 0.6677(5) 0.3447(3) 1.0706(2)
O34 O 0.7352(6) 0.3075(3) 1.0048(2)
C74 C 0.6875(9) 0.3464(5) 1.0227(5)
C75 C 0.6423(10) 0.3989(5) 0.9921(4)
C76 C 0.7018(15) 0.4479(7) 0.9923(8)
H133 H 0.6731 0.4811 0.9738
H134 H 0.7634 0.4399 0.9775
H135 H 0.7099 0.4564 1.0256
C77 C 0.5434(12) 0.4098(8) 1.0085(7)
H136 H 0.5190 0.4440 0.9894
H137 H 0.5421 0.4162 1.0427
H138 H 0.5042 0.3764 1.0041
C78 C 0.6450(17) 0.3877(7) 0.9402(6)
H139 H 0.6172 0.4205 0.9206
H140 H 0.6091 0.3527 0.9366
H141 H 0.7106 0.3827 0.9292
O35 O 0.9153(5) 0.1899(3) 1.1447(3)
O36 O 0.9474(5) 0.1943(3) 1.0637(2)
C79 C 0.9675(8) 0.1777(4) 1.1066(4)
C80 C 1.0553(9) 0.1391(6) 1.1183(5)
C81 C 1.0916(11) 0.1453(8) 1.1688(5)
H142 H 1.1446 0.1189 1.1752
H143 H 1.0408 0.1358 1.1930
H144 H 1.1125 0.1850 1.1703
C82 C 1.1267(11) 0.1486(9) 1.0803(7)
H145 H 1.1805 0.1233 1.0879
H146 H 1.1474 0.1889 1.0776
H147 H 1.1007 0.1402 1.0497
C83 C 1.0186(14) 0.0759(6) 1.1167(7)
H148 H 1.0699 0.0486 1.1244
H149 H 0.9964 0.0715 1.0844
H150 H 0.9665 0.0682 1.1405
O37 O 0.5785(6) 0.1444(3) 1.0585(3)
O38 O 0.5512(5) 0.2405(3) 1.0586(2)
C84 C 0.5357(9) 0.1894(6) 1.0435(5)
C85 C 0.4633(11) 0.1888(7) 1.0035(5)
C86 C 0.5172(10) 0.2034(7) 0.9554(4)
H151 H 0.4734 0.2041 0.9288
H152 H 0.5658 0.1742 0.9515
H153 H 0.5469 0.2414 0.9549
C87 C 0.3882(10) 0.2355(8) 1.0087(6)
H154 H 0.3416 0.2340 0.9836
H155 H 0.4183 0.2736 1.0052
H156 H 0.3566 0.2289 1.0406
C88 C 0.4125(12) 0.1320(7) 1.0042(6)
H157 H 0.3655 0.1349 0.9790
H158 H 0.3810 0.1224 1.0358
H159 H 0.4580 0.1017 0.9982
O39 O 0.7031(7) 0.4017(3) 0.2194(3)
O40 O 0.6075(6) 0.3359(3) 0.2634(3)
C89 C 0.6459(9) 0.3859(5) 0.2552(4)
C90 C 0.6223(11) 0.4290(6) 0.2921(6)
C91 C 0.5384(13) 0.4601(8) 0.2779(7)
H160 H 0.5482 0.4799 0.2453
H161 H 0.5241 0.4885 0.3007
H162 H 0.4856 0.4331 0.2782
C92 C 0.614(2) 0.4013(9) 0.3444(6)
H163 H 0.5962 0.4308 0.3657
H164 H 0.6742 0.3841 0.3540
H165 H 0.5650 0.3713 0.3471
C93 C 0.6931(14) 0.4700(8) 0.2950(8)
H166 H 0.7060 0.4905 0.2629
H167 H 0.7506 0.4507 0.3067
H168 H 0.6723 0.4976 0.3173
O41 O 0.8449(6) 0.3944(3) 1.1198(3)
O42 O 0.8745(5) 0.3089(3) 1.0927(2)
C94 C 0.8969(9) 0.3610(5) 1.0958(4)
C95 C 0.9892(10) 0.3852(6) 1.0714(5)
C96 C 1.0318(11) 0.4330(6) 1.0970(6)
H169 H 1.0474 0.4178 1.1299
H170 H 0.9864 0.4645 1.0981
H171 H 1.0893 0.4474 1.0793
C97 C 1.0652(12) 0.3388(7) 1.0711(6)
H172 H 1.0802 0.3249 1.1044
H173 H 1.1220 0.3552 1.0540
H174 H 1.0422 0.3067 1.0547
C98 C 0.9710(11) 0.4042(8) 1.0193(5)
H175 H 1.0290 0.4200 1.0032
H176 H 0.9218 0.4338 1.0173
H177 H 0.9502 0.3711 1.0034
O43 O 0.8878(5) 0.2818(3) 0.1989(2)
O44 O 0.7978(5) 0.2830(3) 0.2680(3)
C99 C 0.8734(9) 0.2898(5) 0.2429(4)
C100 C 0.9557(9) 0.3185(6) 0.2656(5)
C101 C 0.9531(14) 0.3073(10) 0.3198(5)
H178 H 1.0077 0.3256 0.3326
H179 H 0.9551 0.2656 0.3293
H180 H 0.8950 0.3232 0.3329
C102 C 1.0428(12) 0.2982(10) 0.2505(8)
H181 H 1.0497 0.3055 0.2153
H182 H 1.0470 0.2567 0.2602
H183 H 1.0932 0.3181 0.2654
C103 C 0.9585(16) 0.3787(7) 0.2535(10)
H184 H 0.9677 0.3872 0.2185
H185 H 1.0107 0.3951 0.2698
H186 H 0.8989 0.3957 0.2638
O45 O 0.5713(5) 0.1785(3) 0.1567(2)
O46 O 0.5323(5) 0.2078(3) 0.2308(2)
C104 C 0.5186(8) 0.1784(5) 0.1953(4)
C105 C 0.4311(8) 0.1360(6) 0.2001(4)
C106 C 0.3513(10) 0.1588(7) 0.2296(5)
H187 H 0.3737 0.1657 0.2615
H188 H 0.3000 0.1306 0.2336
H189 H 0.3284 0.1951 0.2131
C107 C 0.4654(11) 0.0769(6) 0.2251(6)
H190 H 0.4864 0.0819 0.2576
H191 H 0.5178 0.0627 0.2059
H192 H 0.4134 0.0491 0.2274
C108 C 0.3930(10) 0.1253(7) 0.1511(4)
H193 H 0.3385 0.0994 0.1560
H194 H 0.4423 0.1076 0.1321
H195 H 0.3738 0.1620 0.1338
O50 O 0.9249(3) 0.27050(15) 0.97059(11)
N3 N 0.9496(3) 0.25154(15) 0.92894(11)
C122 C 1.0580(3) 0.25940(15) 0.91987(11)
C123 C 1.0854(17) 0.2016(15) 0.9556(8)
H210 H 1.0975 0.2124 0.9879
H211 H 1.1419 0.1838 0.9426
H212 H 1.0329 0.1741 0.9576
C124 C 1.1186(4) 0.2939(2) 0.92231(16)
H213 H 1.1042 0.3291 0.9015
H214 H 1.1789 0.2781 0.9116
H215 H 1.1227 0.3028 0.9558
C125 C 1.0426(4) 0.2212(2) 0.86874(16)
C126 C 1.0785(4) 0.1600(2) 0.86396(16)
H216 H 1.0618 0.1485 0.8324
H217 H 1.0494 0.1332 0.8897
H218 H 1.1471 0.1590 0.8667
C127 C 1.0924(4) 0.2632(2) 0.83168(16)
H219 H 1.0922 0.2482 0.8001
H220 H 1.1576 0.2682 0.8410
H221 H 1.0598 0.3004 0.8298
N4 N 0.9387(4) 0.2273(2) 0.85494(16)
O51 O 0.9022(4) 0.2153(2) 0.81514(16)
C128 C 0.8838(4) 0.2448(2) 0.89205(16)
C129 C 0.7804(4) 0.2498(2) 0.89415(16)
H222 H 0.7552 0.2420 0.8631
H223 H 0.7627 0.2889 0.9008
H224 H 0.7543 0.2219 0.9199
O33_2 O 0.6677(5) 0.3447(3) 0.0706(2)
O41_2 O 0.8449(6) 0.3944(3) 0.1198(3)
Mn11_2 Mn 0.62378(12) 0.26179(7) 1.11518(6)
O31_2 O 0.7481(7) 0.0980(3) 1.1811(3)
O45_2 O 0.5713(5) 0.1785(3) 1.1567(2)
O26_2 O 0.7370(5) 0.2186(3) 0.1026(2)
O35_2 O 0.9153(5) 0.1899(3) 0.1447(3)
O42_2 O 0.8745(5) 0.3089(3) 0.0927(2)
Mn8_2 Mn 0.68172(14) 0.12898(7) 0.11484(6)
O38_2 O 0.5512(5) 0.2405(3) 0.0586(2)
Mn10_2 Mn 0.80971(12) 0.24478(7) 1.15245(5)
Mn7_2 Mn 0.70077(15) 0.38015(8) 1.14634(7)
C109 C 0.8377(10) -0.0389(5) 0.6363(8)
H196 H 0.8144 -0.0143 0.6611
H197 H 0.7993 -0.0310 0.6073
Cl1 Cl 0.9581(4) -0.0234(3) 0.6213(2)
Cl2 Cl 0.8281(3) -0.11138(15) 0.65863(11)
O47 O 0.6289(3) 0.01469(15) 0.12790(11)
C110 C 0.6963(3) -0.02452(15) 0.14567(11)
H198 H 0.7589 -0.0156 0.1535
C111 C 0.6562(3) -0.07912(15) 0.15004(11)
H199 H 0.6865 -0.1141 0.1614
C112 C 0.5641(3) -0.07365(15) 0.13497(11)
H200 H 0.5202 -0.1042 0.1342
C113 C 0.5472(3) -0.01567(15) 0.12129(11)
H201 H 0.4898 0.0004 0.1095
O48 O 0.6887(3) 0.50337(15) 0.12438(11)
C114 C 0.7768(3) 0.52891(15) 0.11613(11)
H202 H 0.8337 0.5098 0.1086
C115 C 0.7672(3) 0.58730(15) 0.12089(11)
H203 H 0.8163 0.6151 0.1172
C116 C 0.6731(3) 0.59785(15) 0.13207(11)
H204 H 0.6466 0.6342 0.1373
C117 C 0.6246(3) 0.54598(15) 0.13424(11)
H205 H 0.5592 0.5406 0.1412
O49 O 0.7595(3) 0.48489(15) 0.62109(11)
C118 C 0.6852(3) 0.51566(15) 0.59973(11)
H206 H 0.6300 0.4996 0.5882
C119 C 0.7059(3) 0.57397(15) 0.59823(11)
H207 H 0.6673 0.6048 0.5855
C120 C 0.7930(3) 0.57924(15) 0.61867(11)
H208 H 0.8244 0.6143 0.6223
C121 C 0.8262(3) 0.52418(15) 0.63279(11)
H209 H 0.8842 0.5150 0.6478
loop_
_geom_bond_atom_site_label_1
_geom_bond_atom_site_label_2
_geom_bond_site_symmetry_1
_geom_bond_site_symmetry_2
Mn1 Mn2 1_555 1_555
Mn2 O2 1_555 1_555
Mn3 Mn1 1_555 1_555
Mn4 Mn1 1_555 1_555
Mn5 O2 1_555 1_555
Mn6 O1 1_555 1_555
O1 Mn1 1_555 1_555
O2 Mn1 1_555 1_555
O3 Mn3 1_555 1_555
O4 Mn4 1_555 1_555
C1 O3 1_555 1_555
C2 C1 1_555 1_555
C3 C2 1_555 1_555
H1 C3 1_555 1_555
H2 C3 1_555 1_555
H3 C3 1_555 1_555
C4 C2 1_555 1_555
H4 C4 1_555 1_555
H5 C4 1_555 1_555
H6 C4 1_555 1_555
C5 C2 1_555 1_555
H7 C5 1_555 1_555
H8 C5 1_555 1_555
H9 C5 1_555 1_555
O5 Mn6 1_555 1_555
O6 Mn1 1_555 1_555
C6 O5 1_555 1_555
C7 C6 1_555 1_555
C8 C7 1_555 1_555
H10 C8 1_555 1_555
H11 C8 1_555 1_555
H12 C8 1_555 1_555
C9 C7 1_555 1_555
H13 C9 1_555 1_555
H14 C9 1_555 1_555
H15 C9 1_555 1_555
C10 C7 1_555 1_555
H16 C10 1_555 1_555
H17 C10 1_555 1_555
H18 C10 1_555 1_555
O7 Mn2 1_555 1_555
O8 Mn5 1_555 1_555
C11 O7 1_555 1_555
C12 C11 1_555 1_555
C13 C12 1_555 1_555
H19 C13 1_555 1_555
H20 C13 1_555 1_555
H21 C13 1_555 1_555
C14 C12 1_555 1_555
H22 C14 1_555 1_555
H23 C14 1_555 1_555
H24 C14 1_555 1_555
C15 C12 1_555 1_555
H25 C15 1_555 1_555
H26 C15 1_555 1_555
H27 C15 1_555 1_555
O9 Mn2 1_555 1_555
O10 Mn4 1_555 1_555
C16 O9 1_555 1_555
C17 C16 1_555 1_555
C18 C17 1_555 1_555
H28 C18 1_555 1_555
H29 C18 1_555 1_555
H30 C18 1_555 1_555
C19 C17 1_555 1_555
H31 C19 1_555 1_555
H32 C19 1_555 1_555
H33 C19 1_555 1_555
C20 C17 1_555 1_555
H34 C20 1_555 1_555
H35 C20 1_555 1_555
H36 C20 1_555 1_555
O11 Mn2 1_555 1_555
O12 Mn1 1_555 1_555
C21 O11 1_555 1_555
C22 C21 1_555 1_555
C23 C22 1_555 1_555
H37 C23 1_555 1_555
H38 C23 1_555 1_555
H39 C23 1_555 1_555
C24 C22 1_555 1_555
H40 C24 1_555 1_555
H41 C24 1_555 1_555
H42 C24 1_555 1_555
C25 C22 1_555 1_555
H43 C25 1_555 1_555
H44 C25 1_555 1_555
H45 C25 1_555 1_555
O13 Mn5 1_555 1_555
O14 Mn4 1_555 1_555
C26 O13 1_555 1_555
C27 C26 1_555 1_555
C28 C27 1_555 1_555
H46 C28 1_555 1_555
H47 C28 1_555 1_555
H48 C28 1_555 1_555
C29 C27 1_555 1_555
H49 C29 1_555 1_555
H50 C29 1_555 1_555
H51 C29 1_555 1_555
C30 C27 1_555 1_555
H52 C30 1_555 1_555
H53 C30 1_555 1_555
H54 C30 1_555 1_555
O15 Mn1 1_555 1_555
O16 Mn5 1_555 1_555
C31 O15 1_555 1_555
C32 C31 1_555 1_555
C33 C32 1_555 1_555
H55 C33 1_555 1_555
H56 C33 1_555 1_555
H57 C33 1_555 1_555
C34 C32 1_555 1_555
H58 C34 1_555 1_555
H59 C34 1_555 1_555
H60 C34 1_555 1_555
C35 C32 1_555 1_555
H61 C35 1_555 1_555
H62 C35 1_555 1_555
H63 C35 1_555 1_555
O17 Mn6 1_555 1_555
O18 Mn4 1_555 1_555
C36 O17 1_555 1_555
C37 C36 1_555 1_555
C38 C37 1_555 1_555
H64 C38 1_555 1_555
H65 C38 1_555 1_555
H66 C38 1_555 1_555
C39 C37 1_555 1_555
H67 C39 1_555 1_555
H68 C39 1_555 1_555
H69 C39 1_555 1_555
C40 C37 1_555 1_555
H70 C40 1_555 1_555
H71 C40 1_555 1_555
H72 C40 1_555 1_555
O19 Mn6 1_555 1_555
O20 Mn3 1_555 1_555
C41 O19 1_555 1_555
C42 C41 1_555 1_555
C43 C42 1_555 1_555
H73 C43 1_555 1_555
H74 C43 1_555 1_555
H75 C43 1_555 1_555
C44 C42 1_555 1_555
H76 C44 1_555 1_555
H77 C44 1_555 1_555
H78 C44 1_555 1_555
C45 C42 1_555 1_555
H79 C45 1_555 1_555
H80 C45 1_555 1_555
H81 C45 1_555 1_555
O21 Mn1 1_555 1_555
O22 Mn3 1_555 1_555
C46 O21 1_555 1_555
C47 C46 1_555 1_555
C48 C47 1_555 1_555
H82 C48 1_555 1_555
H83 C48 1_555 1_555
H84 C48 1_555 1_555
C49 C47 1_555 1_555
H85 C49 1_555 1_555
H86 C49 1_555 1_555
H87 C49 1_555 1_555
C50 C47 1_555 1_555
H88 C50 1_555 1_555
H89 C50 1_555 1_555
H90 C50 1_555 1_555
O23 Mn5 1_555 1_555
N1 O23 1_555 1_555
C51 N1 1_555 1_555
C52 C51 1_555 1_555
H91 C52 1_555 1_555
H92 C52 1_555 1_555
H93 C52 1_555 1_555
C53 C51 1_555 1_555
H94 C53 1_555 1_555
H95 C53 1_555 1_555
H96 C53 1_555 1_555
C54 C51 1_555 1_555
C55 C54 1_555 1_555
H97 C55 1_555 1_555
H98 C55 1_555 1_555
H99 C55 1_555 1_555
C56 C54 1_555 1_555
H100 C56 1_555 1_555
H101 C56 1_555 1_555
H102 C56 1_555 1_555
N2 C54 1_555 1_555
O24 N2 1_555 1_555
C57 N1 1_555 1_555
C58 C57 1_555 1_555
H103 C58 1_555 1_555
H104 C58 1_555 1_555
H105 C58 1_555 1_555
Mn7 Mn11 1_555 1_555
Mn8 O26 1_555 1_555
Mn9 O24 1_555 1_555
Mn10 Mn11 1_555 1_555
Mn11 O25 1_555 1_555
Mn12 O26 1_555 1_555
O25 Mn7 1_555 1_555
O26 Mn11_2 1_555 1_555
O27 Mn8 1_555 1_555
O28 Mn12 1_555 1_555
C59 O27 1_555 1_555
C60 C59 1_555 1_555
C61 C60 1_555 1_555
H106 C61 1_555 1_555
H107 C61 1_555 1_555
H108 C61 1_555 1_555
C62 C60 1_555 1_555
H109 C62 1_555 1_555
H110 C62 1_555 1_555
H111 C62 1_555 1_555
C63 C60 1_555 1_555
H112 C63 1_555 1_555
H113 C63 1_555 1_555
H114 C63 1_555 1_555
O29 Mn7 1_555 1_555
O30 Mn11 1_555 1_555
C64 O29 1_555 1_555
C65 C64 1_555 1_555
C66 C65 1_555 1_555
H115 C66 1_555 1_555
H116 C66 1_555 1_555
H117 C66 1_555 1_555
C67 C65 1_555 1_555
H118 C67 1_555 1_555
H119 C67 1_555 1_555
H120 C67 1_555 1_555
C68 C65 1_555 1_555
H121 C68 1_555 1_555
H122 C68 1_555 1_555
H123 C68 1_555 1_555
O31 C69 1_555 1_555
O32 Mn9 1_555 1_555
C69 O32 1_555 1_555
C70 C69 1_555 1_555
C71 C70 1_555 1_555
H124 C71 1_555 1_555
H125 C71 1_555 1_555
H126 C71 1_555 1_555
C72 C70 1_555 1_555
H127 C72 1_555 1_555
H128 C72 1_555 1_555
H129 C72 1_555 1_555
C73 C70 1_555 1_555
H130 C73 1_555 1_555
H131 C73 1_555 1_555
H132 C73 1_555 1_555
O33 C74 1_555 1_555
O34 Mn12 1_555 1_555
C74 O34 1_555 1_555
C75 C74 1_555 1_555
C76 C75 1_555 1_555
H133 C76 1_555 1_555
H134 C76 1_555 1_555
H135 C76 1_555 1_555
C77 C75 1_555 1_555
H136 C77 1_555 1_555
H137 C77 1_555 1_555
H138 C77 1_555 1_555
C78 C75 1_555 1_555
H139 C78 1_555 1_555
H140 C78 1_555 1_555
H141 C78 1_555 1_555
O35 C79 1_555 1_555
O36 Mn12 1_555 1_555
C79 O36 1_555 1_555
C80 C79 1_555 1_555
C81 C80 1_555 1_555
H142 C81 1_555 1_555
H143 C81 1_555 1_555
H144 C81 1_555 1_555
C82 C80 1_555 1_555
H145 C82 1_555 1_555
H146 C82 1_555 1_555
H147 C82 1_555 1_555
C83 C80 1_555 1_555
H148 C83 1_555 1_555
H149 C83 1_555 1_555
H150 C83 1_555 1_555
O37 Mn8 1_555 1_555
O38 C84 1_555 1_555
C84 O37 1_555 1_555
C85 C84 1_555 1_555
C86 C85 1_555 1_555
H151 C86 1_555 1_555
H152 C86 1_555 1_555
H153 C86 1_555 1_555
C87 C85 1_555 1_555
H154 C87 1_555 1_555
H155 C87 1_555 1_555
H156 C87 1_555 1_555
C88 C85 1_555 1_555
H157 C88 1_555 1_555
H158 C88 1_555 1_555
H159 C88 1_555 1_555
O39 Mn7 1_555 1_555
O40 Mn9 1_555 1_555
C89 O39 1_555 1_555
C90 C89 1_555 1_555
C91 C90 1_555 1_555
H160 C91 1_555 1_555
H161 C91 1_555 1_555
H162 C91 1_555 1_555
C92 C90 1_555 1_555
H163 C92 1_555 1_555
H164 C92 1_555 1_555
H165 C92 1_555 1_555
C93 C90 1_555 1_555
H166 C93 1_555 1_555
H167 C93 1_555 1_555
H168 C93 1_555 1_555
O41 C94 1_555 1_555
O42 Mn12 1_555 1_555
C94 O42 1_555 1_555
C95 C94 1_555 1_555
C96 C95 1_555 1_555
H169 C96 1_555 1_555
H170 C96 1_555 1_555
H171 C96 1_555 1_555
C97 C95 1_555 1_555
H172 C97 1_555 1_555
H173 C97 1_555 1_555
H174 C97 1_555 1_555
C98 C95 1_555 1_555
H175 C98 1_555 1_555
H176 C98 1_555 1_555
H177 C98 1_555 1_555
O43 Mn10 1_555 1_555
O44 Mn9 1_555 1_555
C99 O43 1_555 1_555
C100 C99 1_555 1_555
C101 C100 1_555 1_555
H178 C101 1_555 1_555
H179 C101 1_555 1_555
H180 C101 1_555 1_555
C102 C100 1_555 1_555
H181 C102 1_555 1_555
H182 C102 1_555 1_555
H183 C102 1_555 1_555
C103 C100 1_555 1_555
H184 C103 1_555 1_555
H185 C103 1_555 1_555
H186 C103 1_555 1_555
O45 Mn11 1_555 1_555
O46 Mn9 1_555 1_555
C104 O45 1_555 1_555
C105 C104 1_555 1_555
C106 C105 1_555 1_555
H187 C106 1_555 1_555
H188 C106 1_555 1_555
H189 C106 1_555 1_555
C107 C105 1_555 1_555
H190 C107 1_555 1_555
H191 C107 1_555 1_555
H192 C107 1_555 1_555
C108 C105 1_555 1_555
H193 C108 1_555 1_555
H194 C108 1_555 1_555
H195 C108 1_555 1_555
C109 H196 1_555 1_555
H197 C109 1_555 1_555
Cl1 C109 1_555 1_555
Cl2 C109 1_555 1_555
O47 C110 1_555 1_555
C110 H198 1_555 1_555
C111 C110 1_555 1_555
H199 C111 1_555 1_555
C112 C111 1_555 1_555
H200 C112 1_555 1_555
C113 O47 1_555 1_555
H201 C113 1_555 1_555
O48 C114 1_555 1_555
C114 H202 1_555 1_555
C115 C114 1_555 1_555
H203 C115 1_555 1_555
C116 C115 1_555 1_555
H204 C116 1_555 1_555
C117 O48 1_555 1_555
H205 C117 1_555 1_555
O49 C118 1_555 1_555
C118 H206 1_555 1_555
C119 C118 1_555 1_555
H207 C119 1_555 1_555
C120 C119 1_555 1_555
H208 C120 1_555 1_555
C121 O49 1_555 1_555
H209 C121 1_555 1_555
O50 Mn12 1_555 1_555
N3 O50 1_555 1_555
C122 N3 1_555 1_555
C123 C122 1_555 1_555
H210 C123 1_555 1_555
H211 C123 1_555 1_555
H212 C123 1_555 1_555
C124 C122 1_555 1_555
H213 C124 1_555 1_555
H214 C124 1_555 1_555
H215 C124 1_555 1_555
C125 C122 1_555 1_555
C126 C125 1_555 1_555
H216 C126 1_555 1_555
H217 C126 1_555 1_555
H218 C126 1_555 1_555
C127 C125 1_555 1_555
H219 C127 1_555 1_555
H220 C127 1_555 1_555
H221 C127 1_555 1_555
N4 C125 1_555 1_555
O51 Mn6 1_555 1_555
C128 N3 1_555 1_555
C129 C128 1_555 1_555
H222 C129 1_555 1_555
H223 C129 1_555 1_555
H224 C129 1_555 1_555
O33_2 Mn7 1_555 1_555
O41_2 Mn7 1_555 1_555
Mn11_2 Mn8 1_555 1_555
O31_2 Mn8 1_555 1_555
O45_2 Mn8 1_555 1_555
O26_2 Mn10 1_555 1_555
O35_2 Mn10 1_555 1_555
O42_2 Mn10 1_555 1_555
Mn8_2 Mn11 1_555 1_555
O38_2 Mn11 1_555 1_555
Mn10_2 O26 1_555 1_555
Mn7_2 O33 1_555 1_555
Mn2 O6 1_555 1_555
Mn3 O1 1_555 1_555
Mn3 O15 1_555 1_555
Mn4 O1 1_555 1_555
Mn4 O2 1_555 1_555
Mn5 O4 1_555 1_555
Mn6 O10 1_555 1_555
O4 C1 1_555 1_555
O6 C6 1_555 1_555
O8 C11 1_555 1_555
O10 C16 1_555 1_555
O12 C21 1_555 1_555
O14 C26 1_555 1_555
O16 C31 1_555 1_555
O18 C36 1_555 1_555
O20 C41 1_555 1_555
O22 C46 1_555 1_555
N2 C57 1_555 1_555
Mn9 O25 1_555 1_555
Mn10 O25 1_555 1_555
Mn10 O32 1_555 1_555
Mn11 O26_2 1_555 1_555
Mn11 O33_2 1_555 1_555
O28 C59 1_555 1_555
O30 C64 1_555 1_555
O31 Mn8_2 1_555 1_555
O33 Mn11_2 1_555 1_555
O35 Mn10_2 1_555 1_555
O38 Mn11_2 1_555 1_555
O40 C89 1_555 1_555
O41 Mn7_2 1_555 1_555
O42 Mn10_2 1_555 1_555
O44 C99 1_555 1_555
O45 Mn8_2 1_555 1_555
O46 C104 1_555 1_555
C112 C113 1_555 1_555
C116 C117 1_555 1_555
C120 C121 1_555 1_555
N4 O51 1_555 1_555
N4 C128 1_555 1_555
Mn11_2 Mn7_2 1_555 1_555
Mn11_2 Mn10_2 1_555 1_555
Mn11_2 O45_2 1_555 1_555
O26_2 Mn8_2 1_555 1_555

#END
