
#######################################################################
#
#                 Cambridge Crystallographic Data Centre
#                                CCDC 
#
#######################################################################
#
# If this CIF has been generated from an entry in the Cambridge 
# Structural Database, then it will include bibliographic, chemical, 
# crystal, experimental, refinement or atomic coordinate data resulting 
# from the CCDC's data processing and validation procedures.
#
#######################################################################

data_EBAMOL
_symmetry_cell_setting           cubic
_symmetry_space_group_name_H-M   'I -4 3 m'
_symmetry_Int_Tables_number      217
_space_group_name_Hall           'I -4 2 3'
loop_
_symmetry_equiv_pos_site_id
_symmetry_equiv_pos_as_xyz
1 x,y,z
2 -x,-y,z
3 -x,y,-z
4 x,-y,-z
5 z,x,y
6 z,-x,-y
7 -z,-x,y
8 -z,x,-y
9 y,z,x
10 -y,z,-x
11 y,-z,-x
12 -y,-z,x
13 y,x,z
14 -y,-x,z
15 y,-x,-z
16 -y,x,-z
17 x,z,y
18 -x,z,-y
19 -x,-z,y
20 x,-z,-y
21 z,y,x
22 z,-y,-x
23 -z,y,-x
24 -z,-y,x
25 1/2+x,1/2+y,1/2+z
26 1/2-x,1/2-y,1/2+z
27 1/2-x,1/2+y,1/2-z
28 1/2+x,1/2-y,1/2-z
29 1/2+z,1/2+x,1/2+y
30 1/2+z,1/2-x,1/2-y
31 1/2-z,1/2-x,1/2+y
32 1/2-z,1/2+x,1/2-y
33 1/2+y,1/2+z,1/2+x
34 1/2-y,1/2+z,1/2-x
35 1/2+y,1/2-z,1/2-x
36 1/2-y,1/2-z,1/2+x
37 1/2+y,1/2+x,1/2+z
38 1/2-y,1/2-x,1/2+z
39 1/2+y,1/2-x,1/2-z
40 1/2-y,1/2+x,1/2-z
41 1/2+x,1/2+z,1/2+y
42 1/2-x,1/2+z,1/2-y
43 1/2-x,1/2-z,1/2+y
44 1/2+x,1/2-z,1/2-y
45 1/2+z,1/2+y,1/2+x
46 1/2+z,1/2-y,1/2-x
47 1/2-z,1/2+y,1/2-x
48 1/2-z,1/2-y,1/2+x
_cell_length_a                   21.657(2)
_cell_length_b                   21.657(2)
_cell_length_c                   21.657(2)
_cell_angle_alpha                90
_cell_angle_beta                 90
_cell_angle_gamma                90
_cell_volume                     10157.7
loop_
_atom_site_label
_atom_site_type_symbol
_atom_site_fract_x
_atom_site_fract_y
_atom_site_fract_z
Ni1 Ni 0.232582(19) 0.11933(3) 0.767418(19)
O1 O 0.1982(2) 0.1982(2) 0.8018(2)
N1 N 0.22990(16) 0.22990(16) 0.46216(18)
O2 O 0.22675(17) 0.15318(15) 0.67831(13)
O3 O 0.2428(2) 0.07618(15) 0.85097(15)
C1 C 0.19189(18) 0.19189(18) 0.6528(2)
C2 C 0.20185(18) 0.20185(18) 0.5847(2)
C3 C 0.1687(2) 0.2452(2) 0.55269(19)
H1 H 0.1361 0.2657 0.5716
C4 C 0.2590(6) 0.0611(2) 1.0149(3)
H2 H 0.2625 0.1024 1.0261
C5 C 0.2540(4) 0.04566(19) 0.95434(19)
C6 C 0.1841(2) 0.2583(2) 0.4912(2)
H3 H 0.1615 0.2880 0.4701
C7 C 0.2460(3) 0.09432(17) 0.90568(17)
O2L O 0.15318(15) 0.22675(17) 0.67831(13)
C3L C 0.2452(2) 0.1687(2) 0.55269(19)
H1L H 0.2657 0.1361 0.5716
C6L C 0.2583(2) 0.1841(2) 0.4912(2)
H3L H 0.2880 0.1615 0.4701
O3P O 0.2428(2) -0.14903(15) 1.07618(15)
C4P C 0.2590(6) 0.0149(3) 1.0611(2)
H2P H 0.2625 0.0261 1.1024
C5C C 0.2540(4) -0.04566(19) 1.04566(19)
C7C C 0.2460(3) -0.09432(17) 1.09432(17)
O3S O 0.2428(2) 0.14903(15) 0.92382(15)
C4S C 0.2590(6) -0.0149(3) 0.9389(2)
H2S H 0.2625 -0.0261 0.8976
O3C O 0.2428(2) -0.07618(15) 1.14903(15)
C4C C 0.2590(6) -0.0611(2) 0.9851(3)
H2C H 0.2625 -0.1024 0.9739
Ni1C Ni 0.232582(19) -0.11933(3) 1.232582(19)
O1C O 0.1982(2) -0.1982(2) 1.1982(2)
N1C N 0.22990(16) -0.22990(16) 1.53784(18)
O2C O 0.22675(17) -0.15318(15) 1.32169(13)
C1C C 0.19189(18) -0.19189(18) 1.3472(2)
C2C C 0.20185(18) -0.20185(18) 1.4153(2)
C3C C 0.1687(2) -0.2452(2) 1.44731(19)
H1C H 0.1361 -0.2657 1.4284
C6C C 0.1841(2) -0.2583(2) 1.5088(2)
H3C H 0.1615 -0.2880 1.5299
O2N O 0.15318(15) -0.22675(17) 1.32169(13)
C3N C 0.2452(2) -0.1687(2) 1.44731(19)
H1N H 0.2657 -0.1361 1.4284
C6N C 0.2583(2) -0.1841(2) 1.5088(2)
H3N H 0.2880 -0.1615 1.5299
Ni1F Ni 0.232582(19) -0.232582(19) 1.11933(3)
N1F N 0.53784(18) -0.22990(16) 1.22990(16)
O2F O 0.32169(13) -0.22675(17) 1.15318(15)
O3F O 0.14903(15) -0.2428(2) 1.07618(15)
C1F C 0.3472(2) -0.19189(18) 1.19189(18)
C2F C 0.4153(2) -0.20185(18) 1.20185(18)
C3F C 0.44731(19) -0.1687(2) 1.2452(2)
H1F H 0.4284 -0.1361 1.2657
C4F C -0.0149(3) -0.2590(6) 1.0611(2)
H2F H -0.0261 -0.2625 1.1024
C5F C 0.04566(19) -0.2540(4) 1.04566(19)
C6F C 0.5088(2) -0.1841(2) 1.2583(2)
H3F H 0.5299 -0.1615 1.2880
C7F C 0.09432(17) -0.2460(3) 1.09432(17)
O2W O 0.32169(13) -0.15318(15) 1.22675(17)
C3W C 0.44731(19) -0.2452(2) 1.1687(2)
H1W H 0.4284 -0.2657 1.1361
C6W C 0.5088(2) -0.2583(2) 1.1841(2)
H3W H 0.5299 -0.2880 1.1615
O3M O -0.07618(15) -0.2428(2) 0.85097(15)
C4M C -0.0611(2) -0.2590(6) 1.0149(3)
H2M H -0.1024 -0.2625 1.0261
C5E C -0.04566(19) -0.2540(4) 0.95434(19)
C7E C -0.09432(17) -0.2460(3) 0.90568(17)
O3N O 0.07618(15) -0.2428(2) 1.14903(15)
C4N C 0.0611(2) -0.2590(6) 0.9851(3)
H2N H 0.1024 -0.2625 0.9739
O3E O -0.14903(15) -0.2428(2) 0.92382(15)
C4E C 0.0149(3) -0.2590(6) 0.9389(2)
H2E H 0.0261 -0.2625 0.8976
Ni1G Ni 0.232582(19) 0.232582(19) 0.88067(3)
N1G N 0.53784(18) 0.22990(16) 0.77010(16)
O2G O 0.32169(13) 0.22675(17) 0.84682(15)
O3G O 0.14903(15) 0.2428(2) 0.92382(15)
C1G C 0.3472(2) 0.19189(18) 0.80811(18)
C2G C 0.4153(2) 0.20185(18) 0.79815(18)
C3G C 0.44731(19) 0.1687(2) 0.7548(2)
H1G H 0.4284 0.1361 0.7343
C4G C -0.0149(3) 0.2590(6) 0.9389(2)
H2G H -0.0261 0.2625 0.8976
C5G C 0.04566(19) 0.2540(4) 0.95434(19)
C6G C 0.5088(2) 0.1841(2) 0.7417(2)
H3G H 0.5299 0.1615 0.7120
C7G C 0.09432(17) 0.2460(3) 0.90568(17)
O2V O 0.32169(13) 0.15318(15) 0.77325(17)
C3V C 0.44731(19) 0.2452(2) 0.8313(2)
H1V H 0.4284 0.2657 0.8639
C6V C 0.5088(2) 0.2583(2) 0.8159(2)
H3V H 0.5299 0.2880 0.8385
O3O O -0.07618(15) 0.2428(2) 1.14903(15)
C4O C -0.0611(2) 0.2590(6) 0.9851(3)
H2O H -0.1024 0.2625 0.9739
C5D C -0.04566(19) 0.2540(4) 1.04566(19)
C7D C -0.09432(17) 0.2460(3) 1.09432(17)
O3L O 0.07618(15) 0.2428(2) 0.85097(15)
C4L C 0.0611(2) 0.2590(6) 1.0149(3)
H2L H 0.1024 0.2625 1.0261
O3D O -0.14903(15) 0.2428(2) 1.07618(15)
C4D C 0.0149(3) 0.2590(6) 1.0611(2)
H2D H 0.0261 0.2625 1.1024
Ni1H Ni 0.11933(3) -0.232582(19) 1.232582(19)
N1H N 0.22990(16) -0.53784(18) 1.22990(16)
O2H O 0.15318(15) -0.32169(13) 1.22675(17)
C1H C 0.19189(18) -0.3472(2) 1.19189(18)
C2H C 0.20185(18) -0.4153(2) 1.20185(18)
C3H C 0.2452(2) -0.44731(19) 1.1687(2)
H1H H 0.2657 -0.4284 1.1361
C6H C 0.2583(2) -0.5088(2) 1.1841(2)
H3H H 0.2880 -0.5299 1.1615
O2P O 0.22675(17) -0.32169(13) 1.15318(15)
C3P C 0.1687(2) -0.44731(19) 1.2452(2)
H1P H 0.1361 -0.4284 1.2657
C6P C 0.1841(2) -0.5088(2) 1.2583(2)
H3P H 0.1615 -0.5299 1.2880
Ni1I Ni -0.11933(3) -0.232582(19) 0.767418(19)
N1I N -0.22990(16) -0.53784(18) 0.77010(16)
O2I O -0.15318(15) -0.32169(13) 0.77325(17)
C1I C -0.19189(18) -0.3472(2) 0.80811(18)
C2I C -0.20185(18) -0.4153(2) 0.79815(18)
C3I C -0.2452(2) -0.44731(19) 0.8313(2)
H1I H -0.2657 -0.4284 0.8639
C6I C -0.2583(2) -0.5088(2) 0.8159(2)
H3I H -0.2880 -0.5299 0.8385
O2Q O -0.22675(17) -0.32169(13) 0.84682(15)
C3Q C -0.1687(2) -0.44731(19) 0.7548(2)
H1Q H -0.1361 -0.4284 0.7343
C6Q C -0.1841(2) -0.5088(2) 0.7417(2)
H3Q H -0.1615 -0.5299 0.7120
Ni1D Ni -0.232582(19) 0.232582(19) 1.11933(3)
Ni1E Ni -0.232582(19) -0.232582(19) 0.88067(3)
Ni1J Ni 0.11933(3) 0.232582(19) 0.767418(19)
Ni1K Ni -0.11933(3) 0.232582(19) 1.232582(19)
Ni1Y Ni 0.267418(19) -0.61933(3) 1.267418(19)
Ni1AA Ni -0.267418(19) -0.61933(3) 0.732582(19)
Ni1BA Ni 0.267418(19) -0.267418(19) 1.61933(3)
Ni1CA Ni 0.267418(19) 0.267418(19) 0.38067(3)
Ni1FA Ni 0.61933(3) 0.267418(19) 0.732582(19)
Ni1HA Ni 0.61933(3) -0.267418(19) 1.267418(19)
O1A O -0.1982(2) -0.1982(2) 0.8018(2)
N1Y N 0.27010(16) 0.27010(16) 0.96216(18)
N1Z N 0.27010(16) -0.27010(16) 1.03784(18)
N1BA N -0.03784(18) -0.27010(16) 0.72990(16)
N1EA N 0.03784(18) -0.27010(16) 1.27010(16)
N1GA N 0.27010(16) -0.03784(18) 1.27010(16)
N1IA N 0.27010(16) 0.03784(18) 0.72990(16)
O2M O -0.15318(15) -0.22675(17) 0.67831(13)
O2S O 0.22675(17) 0.32169(13) 0.84682(15)
O3H O 0.07618(15) -0.14903(15) 1.2428(2)
O3I O -0.07618(15) -0.14903(15) 0.7572(2)
O3V O 0.14903(15) 0.07618(15) 0.7572(2)
O3W O 0.14903(15) -0.07618(15) 1.2428(2)
loop_
_geom_bond_atom_site_label_1
_geom_bond_atom_site_label_2
_geom_bond_site_symmetry_1
_geom_bond_site_symmetry_2
Ni1 O1 1_555 1_555
O1 Ni1G 1_555 1_555
N1 C6 1_555 1_555
O2 Ni1 1_555 1_555
O3 Ni1 1_555 1_555
C1 O2 1_555 1_555
C2 C1 1_555 1_555
C3 C2 1_555 1_555
H1 C3 1_555 1_555
C4 H2 1_555 1_555
C5 C4 1_555 1_555
C6 C3 1_555 1_555
H3 C6 1_555 1_555
C7 O3 1_555 1_555
O2L C1 1_555 1_555
C3L C2 1_555 1_555
H1L C3L 1_555 1_555
C6L N1 1_555 1_555
H3L C6L 1_555 1_555
O3P C7C 1_555 1_555
C4P C4 1_555 1_555
H2P C4P 1_555 1_555
C5C C4P 1_555 1_555
C7C C5C 1_555 1_555
O3S C7 1_555 1_555
C4S C5 1_555 1_555
H2S C4S 1_555 1_555
O3C C7C 1_555 1_555
C4C C5C 1_555 1_555
H2C C4C 1_555 1_555
Ni1C O3C 1_555 1_555
O1C Ni1C 1_555 1_555
N1C C6C 1_555 1_555
O2C Ni1C 1_555 1_555
C1C O2C 1_555 1_555
C2C C1C 1_555 1_555
C3C C2C 1_555 1_555
H1C C3C 1_555 1_555
C6C C3C 1_555 1_555
H3C C6C 1_555 1_555
O2N C1C 1_555 1_555
C3N C2C 1_555 1_555
H1N C3N 1_555 1_555
C6N N1C 1_555 1_555
H3N C6N 1_555 1_555
Ni1F O3P 1_555 1_555
N1F C6F 1_555 1_555
O2F Ni1F 1_555 1_555
O3F Ni1F 1_555 1_555
C1F O2F 1_555 1_555
C2F C1F 1_555 1_555
C3F C2F 1_555 1_555
H1F C3F 1_555 1_555
C4F H2F 1_555 1_555
C5F C4F 1_555 1_555
C6F C3F 1_555 1_555
H3F C6F 1_555 1_555
C7F O3F 1_555 1_555
O2W Ni1C 1_555 1_555
C3W C2F 1_555 1_555
H1W C3W 1_555 1_555
C6W N1F 1_555 1_555
H3W C6W 1_555 1_555
O3M C7E 1_555 1_555
C4M C4F 1_555 1_555
H2M C4M 1_555 1_555
C5E C4M 1_555 1_555
C7E C5E 1_555 1_555
O3N C7F 1_555 1_555
C4N C5F 1_555 1_555
H2N C4N 1_555 1_555
O3E C7E 1_555 1_555
C4E C5E 1_555 1_555
H2E C4E 1_555 1_555
Ni1G O3S 1_555 1_555
N1G C6G 1_555 1_555
O2G Ni1G 1_555 1_555
O3G Ni1G 1_555 1_555
C1G O2G 1_555 1_555
C2G C1G 1_555 1_555
C3G C2G 1_555 1_555
H1G C3G 1_555 1_555
C4G H2G 1_555 1_555
C5G C4G 1_555 1_555
C6G C3G 1_555 1_555
H3G C6G 1_555 1_555
C7G O3G 1_555 1_555
O2V Ni1 1_555 1_555
C3V C2G 1_555 1_555
H1V C3V 1_555 1_555
C6V N1G 1_555 1_555
H3V C6V 1_555 1_555
O3O C7D 1_555 1_555
C4O C4G 1_555 1_555
H2O C4O 1_555 1_555
C5D C4O 1_555 1_555
C7D C5D 1_555 1_555
O3L C7G 1_555 1_555
C4L C5G 1_555 1_555
H2L C4L 1_555 1_555
O3D C7D 1_555 1_555
C4D C5D 1_555 1_555
H2D C4D 1_555 1_555
Ni1H O1C 1_555 1_555
N1H C6H 1_555 1_555
O2H Ni1H 1_555 1_555
C1H O2H 1_555 1_555
C2H C1H 1_555 1_555
C3H C2H 1_555 1_555
H1H C3H 1_555 1_555
C6H C3H 1_555 1_555
H3H C6H 1_555 1_555
O2P Ni1F 1_555 1_555
C3P C2H 1_555 1_555
H1P C3P 1_555 1_555
C6P N1H 1_555 1_555
H3P C6P 1_555 1_555
Ni1I O3M 1_555 1_555
N1I C6I 1_555 1_555
O2I Ni1I 1_555 1_555
C1I O2I 1_555 1_555
C2I C1I 1_555 1_555
C3I C2I 1_555 1_555
H1I C3I 1_555 1_555
C6I C3I 1_555 1_555
H3I C6I 1_555 1_555
O2Q C1I 1_555 1_555
C3Q C2I 1_555 1_555
H1Q C3Q 1_555 1_555
C6Q N1I 1_555 1_555
H3Q C6Q 1_555 1_555
Ni1D O3D 1_555 1_555
Ni1E O3E 1_555 1_555
Ni1J O1 1_555 1_555
Ni1K O3O 1_555 1_555
Ni1Y N1H 1_555 1_555
Ni1AA N1I 1_555 1_555
Ni1BA N1C 1_555 1_555
Ni1CA N1 1_555 1_555
Ni1FA N1G 1_555 1_555
Ni1HA N1F 1_555 1_555
O1A Ni1I 1_555 1_555
N1Y Ni1G 1_555 1_555
N1Z Ni1F 1_555 1_555
N1BA Ni1I 1_555 1_555
N1EA Ni1H 1_555 1_555
N1GA Ni1C 1_555 1_555
N1IA Ni1 1_555 1_555
O2M Ni1I 1_555 1_555
O2S Ni1G 1_555 1_555
O3H Ni1H 1_555 1_555
O3I Ni1I 1_555 1_555
O3V Ni1 1_555 1_555
O3W Ni1C 1_555 1_555
C5 C7 1_555 1_555
O2L Ni1J 1_555 1_555
C3L C6L 1_555 1_555
C4S C4C 1_555 1_555
O1C Ni1F 1_555 1_555
O2N Ni1H 1_555 1_555
C3N C6N 1_555 1_555
C1F O2W 1_555 1_555
C5F C7F 1_555 1_555
C3W C6W 1_555 1_555
O3N Ni1H 1_555 1_555
C4N C4E 1_555 1_555
C1G O2V 1_555 1_555
C5G C7G 1_555 1_555
C3V C6V 1_555 1_555
O3L Ni1J 1_555 1_555
C4L C4D 1_555 1_555
C1H O2P 1_555 1_555
C3P C6P 1_555 1_555
O2Q Ni1E 1_555 1_555
C3Q C6Q 1_555 1_555
Ni1E O1A 1_555 1_555

#END
