
#######################################################################
#
#                 Cambridge Crystallographic Data Centre
#                                CCDC 
#
#######################################################################
#
# If this CIF has been generated from an entry in the Cambridge 
# Structural Database, then it will include bibliographic, chemical, 
# crystal, experimental, refinement or atomic coordinate data resulting 
# from the CCDC's data processing and validation procedures.
#
#######################################################################

data_EBAMEB
_symmetry_cell_setting           monoclinic
_symmetry_space_group_name_H-M   'P 21'
_symmetry_Int_Tables_number      4
_space_group_name_Hall           'P 2yb'
loop_
_symmetry_equiv_pos_site_id
_symmetry_equiv_pos_as_xyz
1 x,y,z
2 -x,1/2+y,-z
_cell_length_a                   11.2539(11)
_cell_length_b                   16.7878(17)
_cell_length_c                   14.2971(15)
_cell_angle_alpha                90
_cell_angle_beta                 96.9040(10)
_cell_angle_gamma                90
_cell_volume                     2681.54
loop_
_atom_site_label
_atom_site_type_symbol
_atom_site_fract_x
_atom_site_fract_y
_atom_site_fract_z
Zn1 Zn 0.05399(5) 0.73361(4) 0.29744(4)
Zn2 Zn 0.80592(5) 0.74314(4) 0.00688(4)
Zn3 Zn 0.34153(5) 0.56950(4) 0.04154(4)
Zn4 Zn 0.56316(5) 0.61395(4) 0.32009(4)
O1 O 0.7443(3) 0.8177(3) 0.1050(3)
O2 O 0.6147(3) 0.7250(2) 0.0507(3)
O3 O 0.4706(3) 0.6356(2) 0.1968(2)
O4 O 0.3676(3) 0.6836(2) 0.0696(2)
O5 O 0.2412(4) 0.7051(2) 0.2400(3)
O6 O 0.1710(3) 0.8212(2) 0.2769(3)
O7 O 0.5455(4) 0.7037(3) -0.5921(3)
O8 O 0.7079(6) 0.6468(3) -0.5180(3)
O9 O 0.7129(5) 0.5828(3) -0.3331(3)
H1 H 0.7757 0.5566 -0.3202
O10 O 0.8633(5) 0.6718(3) -0.3201(4)
O11 O 0.7338(6) 0.6749(4) -0.1442(3)
O12 O 0.7278(4) 0.8023(4) -0.1123(3)
O13 O -0.3240(4) 0.5208(2) 0.3046(3)
O14 O -0.2567(4) 0.6334(3) 0.2552(3)
O15 O -0.1504(3) 0.6383(2) 0.0669(2)
O16 O -0.0374(3) 0.6961(2) 0.1850(2)
O17 O 0.0941(4) 0.5913(2) 0.0380(3)
O18 O 0.2337(3) 0.5137(2) 0.1140(3)
N1 N 0.1144(4) 0.6762(3) 0.4201(3)
N2 N 0.3003(4) 0.5826(3) 0.8971(3)
N3 N 0.9772(4) 0.7871(3) -0.0043(3)
N4 N 1.5099(4) 0.9996(3) -0.0433(3)
N5 N -0.4423(4) 1.0421(3) 0.6124(3)
N6 N -0.0623(4) 0.8080(3) 0.3600(3)
C1 C 0.5516(5) 0.8196(3) 0.1590(3)
C2 C 0.4496(5) 0.7784(3) 0.1789(3)
C3 C 0.3640(5) 0.8187(3) 0.2238(3)
C4 C 0.3804(5) 0.8994(4) 0.2472(4)
H2 H 0.3232 0.9259 0.2774
C5 C 0.4798(5) 0.9398(4) 0.2262(4)
H3 H 0.4886 0.9938 0.2396
C6 C 0.5666(5) 0.8993(4) 0.1847(4)
H4 H 0.6363 0.9258 0.1739
C7 C 0.6426(5) 0.7836(4) 0.1017(4)
C8 C 0.4289(4) 0.6933(3) 0.1474(3)
C9 C 0.2531(5) 0.7784(4) 0.2472(4)
C10 C 0.5971(5) 0.7360(4) -0.4321(3)
C11 C 0.6595(5) 0.7171(3) -0.3440(4)
C12 C 0.6408(5) 0.7611(3) -0.2638(4)
C13 C 0.5571(6) 0.8220(4) -0.2728(4)
H5 H 0.5446 0.8520 -0.2202
C14 C 0.4919(6) 0.8392(4) -0.3587(4)
H6 H 0.4339 0.8790 -0.3633
C15 C 0.5137(6) 0.7970(4) -0.4369(4)
H7 H 0.4712 0.8096 -0.4948
C16 C 0.6208(7) 0.6918(4) -0.5200(4)
C17 C 0.7565(8) 0.6546(5) -0.3328(4)
C18 C 0.7065(5) 0.7454(6) -0.1670(4)
C19 C -0.1368(5) 0.5175(3) 0.2423(4)
C20 C -0.0579(4) 0.5529(3) 0.1850(3)
C21 C 0.0409(5) 0.5083(3) 0.1634(3)
C22 C 0.0593(5) 0.4320(3) 0.1978(4)
H8 H 0.1262 0.4039 0.1838
C23 C -0.0186(5) 0.3964(4) 0.2521(4)
H9 H -0.0061 0.3445 0.2736
C24 C -0.1169(5) 0.4403(4) 0.2740(4)
H10 H -0.1702 0.4171 0.3108
C25 C -0.2442(5) 0.5610(4) 0.2678(3)
C26 C -0.0834(5) 0.6351(3) 0.1436(3)
C27 C 0.1267(5) 0.5424(3) 0.0989(4)
C28 C 0.2309(5) 0.6798(4) 0.4539(4)
H11 H 0.2855 0.6967 0.4141
C29 C 0.2725(5) 0.6594(4) 0.5449(4)
H12 H 0.3535 0.6645 0.5662
C30 C 0.1942(5) 0.6312(4) 0.6054(3)
C31 C 0.0752(5) 0.6255(4) 0.5692(4)
H13 H 0.0193 0.6068 0.6069
C32 C 0.0388(5) 0.6475(4) 0.4768(4)
H14 H -0.0416 0.6421 0.4534
C33 C 0.2066(5) 0.5466(4) 0.8488(4)
H15 H 0.1620 0.5114 0.8806
C34 C 0.1728(5) 0.5589(4) 0.7551(4)
H16 H 0.1079 0.5313 0.7243
C35 C 0.2351(5) 0.6125(4) 0.7059(3)
C36 C 0.3341(5) 0.6487(4) 0.7549(4)
H17 H 0.3807 0.6836 0.7243
C37 C 0.3630(5) 0.6326(3) 0.8489(4)
H18 H 0.4295 0.6578 0.8809
C38 C 1.0126(5) 0.8499(4) 0.0483(4)
H19 H 0.9619 0.8687 0.0902
C39 C 1.1199(6) 0.8890(4) 0.0449(4)
H20 H 1.1403 0.9329 0.0832
C40 C 1.1964(5) 0.8614(3) -0.0170(4)
C41 C 1.1632(5) 0.7946(3) -0.0677(4)
H21 H 1.2148 0.7723 -0.1068
C42 C 1.0530(5) 0.7597(3) -0.0613(4)
H22 H 1.0310 0.7154 -0.0983
C43 C 1.4065(5) 1.0339(3) -0.0280(4)
H23 H 1.4033 1.0891 -0.0230
C44 C 1.3057(5) 0.9905(3) -0.0195(4)
H24 H 1.2357 1.0165 -0.0087
C45 C 1.3063(5) 0.9079(3) -0.0268(3)
C46 C 1.4145(5) 0.8726(3) -0.0443(4)
H25 H 1.4198 0.8177 -0.0514
C47 C 1.5131(5) 0.9205(3) -0.0511(3)
H26 H 1.5848 0.8965 -0.0615
C48 C -0.4760(5) 1.0178(3) 0.5239(4)
H27 H -0.5518 1.0317 0.4955
C49 C -0.4035(5) 0.9731(3) 0.4730(4)
H28 H -0.4308 0.9574 0.4118
C50 C -0.2892(5) 0.9515(3) 0.5135(4)
C51 C -0.2546(5) 0.9763(4) 0.6046(4)
H29 H -0.1792 0.9632 0.6346
C52 C -0.3325(5) 1.0208(4) 0.6513(4)
H30 H -0.3075 1.0368 0.7128
C53 C -0.1821(5) 0.8041(3) 0.3422(4)
H31 H -0.2157 0.7695 0.2956
C54 C -0.2575(5) 0.8494(3) 0.3900(4)
H32 H -0.3400 0.8445 0.3756
C55 C -0.2104(5) 0.9021(3) 0.4597(4)
C56 C -0.0861(5) 0.9069(4) 0.4771(4)
H33 H -0.0502 0.9421 0.5222
C57 C -0.0176(5) 0.8596(4) 0.4277(4)
H34 H 0.0652 0.8630 0.4415
Zn2_2 Zn -0.19408(5) 0.74314(4) 0.00688(4)
Zn3_2 Zn 0.34153(5) 0.56950(4) 1.04154(4)
Zn3A Zn 1.65847(5) 1.06950(4) -0.04154(4)
Zn4_2 Zn 0.56316(5) 0.61395(4) -0.67991(4)
Zn4_3 Zn -0.43684(5) 0.61395(4) 0.32009(4)
Zn4A Zn -0.56316(5) 1.11395(4) 0.67991(4)
O7_2 O 0.5455(4) 0.7037(3) 0.4079(3)
O13_2 O 0.6760(4) 0.5208(2) 0.3046(3)
O15_2 O 0.8496(3) 0.6383(2) 0.0669(2)
N2_2 N 0.3003(4) 0.5826(3) -0.1029(3)
N4A N 0.4901(4) 0.4996(3) 0.0433(3)
N5A N 0.4423(4) 0.5421(3) 0.3876(3)
O19 O 0.9234(4) 0.5699(3) 0.8792(3)
H35 H 0.8696 0.6038 0.8733
H36 H 0.9756 0.5808 0.9233
O20 O 0.7940(7) 0.4746(5) 0.4928(4)
H37 H 0.7461 0.5050 0.4619
H38 H 0.8098 0.4706 0.5507
O21 O 0.9011(4) 0.4823(2) 0.7191(3)
H39 H 0.8732 0.4371 0.7242
H40 H 0.9144 0.5044 0.7711
loop_
_geom_bond_atom_site_label_1
_geom_bond_atom_site_label_2
_geom_bond_site_symmetry_1
_geom_bond_site_symmetry_2
Zn1 O6 1_555 1_555
Zn2 O1 1_555 1_555
Zn3 O4 1_555 1_555
Zn4 O3 1_555 1_555
O1 C7 1_555 1_555
O2 C7 1_555 1_555
O3 C8 1_555 1_555
O4 C8 1_555 1_555
O5 C9 1_555 1_555
O6 C9 1_555 1_555
O7 C16 1_555 1_555
O8 C16 1_555 1_555
O9 H1 1_555 1_555
O10 C17 1_555 1_555
O11 C18 1_555 1_555
O12 Zn2 1_555 1_555
O13 C25 1_555 1_555
O14 C25 1_555 1_555
O15 C26 1_555 1_555
O16 Zn1 1_555 1_555
O17 C27 1_555 1_555
O18 Zn3 1_555 1_555
N1 Zn1 1_555 1_555
N2 C33 1_555 1_555
N3 Zn2 1_555 1_555
N4 C43 1_555 1_555
N5 C48 1_555 1_555
N6 Zn1 1_555 1_555
C1 C2 1_555 1_555
C2 C3 1_555 1_555
C3 C4 1_555 1_555
C4 H2 1_555 1_555
C5 C4 1_555 1_555
H3 C5 1_555 1_555
C6 C1 1_555 1_555
H4 C6 1_555 1_555
C7 C1 1_555 1_555
C8 C2 1_555 1_555
C9 C3 1_555 1_555
C10 C11 1_555 1_555
C11 C12 1_555 1_555
C12 C13 1_555 1_555
C13 H5 1_555 1_555
C14 C13 1_555 1_555
H6 C14 1_555 1_555
C15 C10 1_555 1_555
H7 C15 1_555 1_555
C16 C10 1_555 1_555
C17 O9 1_555 1_555
C18 O12 1_555 1_555
C19 C20 1_555 1_555
C20 C21 1_555 1_555
C21 C22 1_555 1_555
C22 H8 1_555 1_555
C23 C22 1_555 1_555
H9 C23 1_555 1_555
C24 C19 1_555 1_555
H10 C24 1_555 1_555
C25 C19 1_555 1_555
C26 O16 1_555 1_555
C27 O18 1_555 1_555
C28 N1 1_555 1_555
H11 C28 1_555 1_555
C29 C28 1_555 1_555
H12 C29 1_555 1_555
C30 C29 1_555 1_555
C31 C30 1_555 1_555
H13 C31 1_555 1_555
C32 N1 1_555 1_555
H14 C32 1_555 1_555
C33 H15 1_555 1_555
C34 C33 1_555 1_555
H16 C34 1_555 1_555
C35 C30 1_555 1_555
C36 C35 1_555 1_555
H17 C36 1_555 1_555
C37 N2 1_555 1_555
H18 C37 1_555 1_555
C38 N3 1_555 1_555
H19 C38 1_555 1_555
C39 C38 1_555 1_555
H20 C39 1_555 1_555
C40 C39 1_555 1_555
C41 C40 1_555 1_555
H21 C41 1_555 1_555
C42 N3 1_555 1_555
H22 C42 1_555 1_555
C43 H23 1_555 1_555
C44 C43 1_555 1_555
H24 C44 1_555 1_555
C45 C40 1_555 1_555
C46 C45 1_555 1_555
H25 C46 1_555 1_555
C47 N4 1_555 1_555
H26 C47 1_555 1_555
C48 H27 1_555 1_555
C49 C48 1_555 1_555
H28 C49 1_555 1_555
C50 C49 1_555 1_555
C51 C50 1_555 1_555
H29 C51 1_555 1_555
C52 N5 1_555 1_555
H30 C52 1_555 1_555
C53 N6 1_555 1_555
H31 C53 1_555 1_555
C54 C53 1_555 1_555
H32 C54 1_555 1_555
C55 C50 1_555 1_555
C56 C55 1_555 1_555
H33 C56 1_555 1_555
C57 N6 1_555 1_555
H34 C57 1_555 1_555
O19 H35 1_555 1_555
H36 O19 1_555 1_555
O20 H37 1_555 1_555
H38 O20 1_555 1_555
O21 H39 1_555 1_555
H40 O21 1_555 1_555
Zn2_2 O15 1_555 1_555
Zn3_2 N2 1_555 1_555
Zn3A N4 1_555 1_555
Zn4_2 O7 1_555 1_555
Zn4_3 O13 1_555 1_555
Zn4A N5 1_555 1_555
O7_2 Zn4 1_555 1_555
O13_2 Zn4 1_555 1_555
O15_2 Zn2 1_555 1_555
N2_2 Zn3 1_555 1_555
N4A Zn3 1_555 1_555
N5A Zn4 1_555 1_555
C5 C6 1_555 1_555
C11 C17 1_555 1_555
C12 C18 1_555 1_555
C14 C15 1_555 1_555
C20 C26 1_555 1_555
C21 C27 1_555 1_555
C23 C24 1_555 1_555
C31 C32 1_555 1_555
C34 C35 1_555 1_555
C36 C37 1_555 1_555
C41 C42 1_555 1_555
C44 C45 1_555 1_555
C46 C47 1_555 1_555
C51 C52 1_555 1_555
C54 C55 1_555 1_555
C56 C57 1_555 1_555

#END
