
#######################################################################
#
#                 Cambridge Crystallographic Data Centre
#                                CCDC 
#
#######################################################################
#
# If this CIF has been generated from an entry in the Cambridge 
# Structural Database, then it will include bibliographic, chemical, 
# crystal, experimental, refinement or atomic coordinate data resulting 
# from the CCDC's data processing and validation procedures.
#
#######################################################################

data_EBAMUQ
_symmetry_cell_setting           triclinic
_symmetry_space_group_name_H-M   'P -1'
_symmetry_Int_Tables_number      2
_space_group_name_Hall           '-P 1'
loop_
_symmetry_equiv_pos_site_id
_symmetry_equiv_pos_as_xyz
1 x,y,z
2 -x,-y,-z
_cell_length_a                   10.888(3)
_cell_length_b                   11.638(3)
_cell_length_c                   13.793(3)
_cell_angle_alpha                95.367(2)
_cell_angle_beta                 103.259(2)
_cell_angle_gamma                108.532(3)
_cell_volume                     1586.53
loop_
_atom_site_label
_atom_site_type_symbol
_atom_site_fract_x
_atom_site_fract_y
_atom_site_fract_z
Nd1 Nd 0.783398(14) 0.468795(12) 0.567422(9)
O1 O 0.2049(2) 0.0623(2) 1.06308(16)
O2 O 0.5526(2) 0.1733(2) 1.05413(17)
O3 O 0.3543(2) 0.3525(2) 1.01100(16)
O4 O 0.4803(3) 0.1484(2) 0.58391(18)
H1 H 0.4897 0.1662 0.5293
O5 O 0.6582(3) 0.3221(2) 0.64265(18)
O6 O -0.1311(2) -0.4386(2) 0.75174(16)
O7 O -0.0720(3) -0.3164(2) 0.64503(17)
O8 O 0.1669(2) 0.4373(2) 0.56594(17)
O9 O -0.0131(2) 0.4411(2) 0.61456(17)
O10 O 0.5596(2) 0.3966(2) 0.44321(16)
O11 O 0.3551(2) 0.4115(2) 0.40491(17)
O17 O 0.7589(3) 0.2879(3) 0.4542(2)
N1 N 0.4222(3) 0.2475(2) 1.18036(18)
C1 C 0.4217(4) 0.3773(3) 1.1878(2)
H2 H 0.5094 0.4334 1.1879
H3 H 0.4031 0.4015 1.2506
C2 C 0.3156(4) 0.3845(3) 1.0993(2)
H4 H 0.3123 0.4671 1.1039
H5 H 0.2276 0.3273 1.0973
C3 C 0.2820(3) 0.3664(3) 0.9195(2)
C4 C 0.1676(3) 0.3981(3) 0.9061(2)
H6 H 0.1324 0.4084 0.9603
C5 C 0.1060(3) 0.4143(3) 0.8107(2)
H7 H 0.0287 0.4348 0.8013
C6 C 0.3333(3) 0.3469(3) 0.8381(2)
H8 H 0.4082 0.3229 0.8470
C7 C 0.2706(3) 0.3640(3) 0.7435(2)
H9 H 0.3041 0.3509 0.6888
C8 C 0.1588(3) 0.4002(3) 0.7294(2)
C9 C 0.0990(3) 0.4277(3) 0.6287(2)
C10 C 0.5615(3) 0.2435(3) 1.2203(2)
H10 H 0.6100 0.3050 1.2812
H11 H 0.5557 0.1631 1.2368
C11 C 0.6347(3) 0.2690(3) 1.1395(2)
H12 H 0.6422 0.3496 1.1228
H13 H 0.7243 0.2651 1.1617
C12 C 0.5659(3) 0.1912(3) 0.9595(2)
C13 C 0.6684(3) 0.2862(3) 0.9415(2)
H14 H 0.7351 0.3426 0.9951
C14 C 0.6700(3) 0.2957(3) 0.8418(2)
H15 H 0.7392 0.3583 0.8290
C15 C 0.4662(3) 0.1057(3) 0.8794(2)
H16 H 0.3991 0.0410 0.8921
C16 C 0.4680(3) 0.1181(3) 0.7808(2)
H17 H 0.4006 0.0623 0.7272
C17 C 0.5699(3) 0.2133(3) 0.7612(2)
C18 C 0.5692(3) 0.2286(3) 0.6544(2)
C19 C 0.3209(3) 0.1690(3) 1.2273(2)
H18 H 0.3655 0.1640 1.2954
H19 H 0.2533 0.2057 1.2313
C20 C 0.2545(3) 0.0415(3) 1.1635(2)
H20 H 0.3191 -0.0001 1.1649
H21 H 0.1812 -0.0079 1.1874
C21 C 0.1409(3) -0.0381(3) 0.9865(2)
C22 C 0.1015(3) -0.1586(3) 1.0026(2)
H22 H 0.1191 -0.1756 1.0679
C23 C 0.0354(3) -0.2539(3) 0.9196(2)
H23 H 0.0085 -0.3350 0.9299
C24 C 0.1152(3) -0.0122(3) 0.8888(2)
H24 H 0.1419 0.0689 0.8787
C25 C 0.0497(3) -0.1082(3) 0.8069(2)
H25 H 0.0328 -0.0912 0.7415
C26 C 0.0089(3) -0.2301(3) 0.8218(2)
C27 C -0.0684(3) -0.3348(3) 0.7347(2)
C28 C 0.4764(3) 0.4443(3) 0.4560(2)
H33 H 0.827(8) 0.251(8) 0.465(6)
H34 H 0.656(9) 0.194(8) 0.425(7)
C28A C 0.5236(3) 0.5557(3) 0.5440(2)
O10A O 0.4404(2) 0.6034(2) 0.55679(16)
O11A O 0.6449(2) 0.5885(2) 0.59509(17)
O1_2 O 1.2049(2) 1.0623(2) 1.06308(16)
O2_2 O 1.5526(2) 1.1733(2) 1.05413(17)
O3_2 O 1.3543(2) 1.3525(2) 1.01100(16)
O4_2 O 1.4803(3) 1.1484(2) 0.58391(18)
H1_2 H 1.4897 1.1662 0.5293
O5_2 O 1.6582(3) 1.3221(2) 0.64265(18)
O6_2 O 0.8689(2) 0.5614(2) 0.75174(16)
O7_2 O 0.9280(3) 0.6836(2) 0.64503(17)
O8_2 O 1.1669(2) 1.4373(2) 0.56594(17)
O9_2 O 0.9869(2) 1.4411(2) 0.61456(17)
N1_2 N 1.4222(3) 1.2475(2) 1.18036(18)
C1_2 C 1.4217(4) 1.3773(3) 1.1878(2)
H2_2 H 1.5094 1.4334 1.1879
H3_2 H 1.4031 1.4015 1.2506
C2_2 C 1.3156(4) 1.3845(3) 1.0993(2)
H4_2 H 1.3123 1.4671 1.1039
H5_2 H 1.2276 1.3273 1.0973
C3_2 C 1.2820(3) 1.3664(3) 0.9195(2)
C4_2 C 1.1676(3) 1.3981(3) 0.9061(2)
H6_2 H 1.1324 1.4084 0.9603
C5_2 C 1.1060(3) 1.4143(3) 0.8107(2)
H7_2 H 1.0287 1.4348 0.8013
C6_2 C 1.3333(3) 1.3469(3) 0.8381(2)
H8_2 H 1.4082 1.3229 0.8470
C7_2 C 1.2706(3) 1.3640(3) 0.7435(2)
H9_2 H 1.3041 1.3509 0.6888
C8_2 C 1.1588(3) 1.4002(3) 0.7294(2)
C9_2 C 1.0990(3) 1.4277(3) 0.6287(2)
C10_2 C 1.5615(3) 1.2435(3) 1.2203(2)
H10_2 H 1.6100 1.3050 1.2812
H11_2 H 1.5557 1.1631 1.2368
C11_2 C 1.6347(3) 1.2690(3) 1.1395(2)
H12_2 H 1.6422 1.3496 1.1228
H13_2 H 1.7243 1.2651 1.1617
C12_2 C 1.5659(3) 1.1912(3) 0.9595(2)
C13_2 C 1.6684(3) 1.2862(3) 0.9415(2)
H14_2 H 1.7351 1.3426 0.9951
C14_2 C 1.6700(3) 1.2957(3) 0.8418(2)
H15_2 H 1.7392 1.3583 0.8290
C15_2 C 1.4662(3) 1.1057(3) 0.8794(2)
H16_2 H 1.3991 1.0410 0.8921
C16_2 C 1.4680(3) 1.1181(3) 0.7808(2)
H17_2 H 1.4006 1.0623 0.7272
C17_2 C 1.5699(3) 1.2133(3) 0.7612(2)
C18_2 C 1.5692(3) 1.2286(3) 0.6544(2)
C19_2 C 1.3209(3) 1.1690(3) 1.2273(2)
H18_2 H 1.3655 1.1640 1.2954
H19_2 H 1.2533 1.2057 1.2313
C20_2 C 1.2545(3) 1.0415(3) 1.1635(2)
H20_2 H 1.3191 0.9999 1.1649
H21_2 H 1.1812 0.9921 1.1874
C21_2 C 1.1409(3) 0.9619(3) 0.9865(2)
C22_2 C 1.1015(3) 0.8414(3) 1.0026(2)
H22_2 H 1.1191 0.8244 1.0679
C23_2 C 1.0354(3) 0.7461(3) 0.9196(2)
H23_2 H 1.0085 0.6650 0.9299
C24_2 C 1.1152(3) 0.9878(3) 0.8888(2)
H24_2 H 1.1419 1.0689 0.8787
C25_2 C 1.0497(3) 0.8918(3) 0.8069(2)
H25_2 H 1.0328 0.9088 0.7415
C26_2 C 1.0089(3) 0.7699(3) 0.8218(2)
C27_2 C 0.9316(3) 0.6652(3) 0.7347(2)
Nd1_2 Nd 1.783398(14) 1.468795(12) 0.567422(9)
O17_2 O 1.7589(3) 1.2879(3) 0.4542(2)
H33_2 H 1.827(8) 1.251(8) 0.465(6)
H34_2 H 1.656(9) 1.194(8) 0.425(7)
O8A O 0.8331(2) 0.5627(2) 0.43406(17)
O9_3 O 0.9869(2) 0.4411(2) 0.61456(17)
Nd1_3 Nd -0.216602(14) -0.531205(12) 0.567422(9)
Nd1A Nd 0.216602(14) 0.531205(12) 0.432578(9)
Nd1_4 Nd -0.216602(14) 0.468795(12) 0.567422(9)
Nd1A_2 Nd 1.216602(14) 1.531205(12) 0.432578(9)
Nd1_5 Nd 0.783398(14) 1.468795(12) 0.567422(9)
O6_3 O 1.8689(2) 1.5614(2) 0.75174(16)
O7_3 O 1.9280(3) 1.6836(2) 0.64503(17)
O8A_2 O 1.8331(2) 1.5627(2) 0.43406(17)
O9_4 O 1.9869(2) 1.4411(2) 0.61456(17)
O10_2 O 1.5596(2) 1.3966(2) 0.44321(16)
O11A_2 O 1.6449(2) 1.5885(2) 0.59509(17)
O12 O 0.5251(4) 0.0930(3) 0.4035(2)
H26 H 0.566(8) 0.015(8) 0.433(6)
H28 H 0.535(6) 0.109(6) 0.477(5)
O13 O 1.1499(4) 1.0626(3) 0.6215(3)
O14 O 0.9432(4) 0.1761(3) 0.4775(3)
H35 H 0.914(10) 0.085(9) 0.436(8)
O15 O 1.0947(5) 0.9217(4) 0.3370(3)
O16 O 0.7546(4) 0.8407(4) 0.5396(3)
H27? H 1.147(5) 1.032(5) 0.524(4)
H29? H 0.740(15) 0.723(15) 0.576(12)
H30? H 1.152(9) 0.864(9) 0.413(7)
H31? H 1.045(7) 1.089(6) 0.638(6)
H32? H 1.210(15) 1.001(15) 0.430(12)
H36? H 0.944(13) 0.069(11) 0.533(10)
H37? H 0.931(13) 0.891(12) 0.506(10)
loop_
_geom_bond_atom_site_label_1
_geom_bond_atom_site_label_2
_geom_bond_site_symmetry_1
_geom_bond_site_symmetry_2
Nd1 O5 1_555 1_555
O1 C20 1_555 1_555
O2 C11 1_555 1_555
O3 C2 1_555 1_555
O4 H1 1_555 1_555
O5 C18 1_555 1_555
O6 C27 1_555 1_555
O7 C27 1_555 1_555
O8 C9 1_555 1_555
O9 C9 1_555 1_555
O10 Nd1 1_555 1_555
O11 C28 1_555 1_555
O12 H26 1_555 1_555
O14 H35 1_555 1_555
O17 Nd1 1_555 1_555
N1 C1 1_555 1_555
C1 H2 1_555 1_555
H3 C1 1_555 1_555
C2 C1 1_555 1_555
H4 C2 1_555 1_555
H5 C2 1_555 1_555
C3 O3 1_555 1_555
C4 C3 1_555 1_555
H6 C4 1_555 1_555
C5 C4 1_555 1_555
H7 C5 1_555 1_555
C6 C3 1_555 1_555
H8 C6 1_555 1_555
C7 C6 1_555 1_555
H9 C7 1_555 1_555
C8 C5 1_555 1_555
C9 C8 1_555 1_555
C10 N1 1_555 1_555
H10 C10 1_555 1_555
H11 C10 1_555 1_555
C11 C10 1_555 1_555
H12 C11 1_555 1_555
H13 C11 1_555 1_555
C12 O2 1_555 1_555
C13 C12 1_555 1_555
H14 C13 1_555 1_555
C14 C13 1_555 1_555
H15 C14 1_555 1_555
C15 C12 1_555 1_555
H16 C15 1_555 1_555
C16 C15 1_555 1_555
H17 C16 1_555 1_555
C17 C14 1_555 1_555
C18 O4 1_555 1_555
C19 N1 1_555 1_555
H18 C19 1_555 1_555
H19 C19 1_555 1_555
C20 C19 1_555 1_555
H20 C20 1_555 1_555
H21 C20 1_555 1_555
C21 O1 1_555 1_555
C22 C21 1_555 1_555
H22 C22 1_555 1_555
C23 C22 1_555 1_555
H23 C23 1_555 1_555
C24 C21 1_555 1_555
H24 C24 1_555 1_555
C25 C24 1_555 1_555
H25 C25 1_555 1_555
C26 C23 1_555 1_555
C27 C26 1_555 1_555
C28 O10 1_555 1_555
H28 O12 1_555 1_555
H33 O17 1_555 1_555
H34 O17 1_555 1_555
C28A C28 1_555 1_555
O10A C28A 1_555 1_555
O11A Nd1 1_555 1_555
O1_2 C20_2 1_555 1_555
O2_2 C11_2 1_555 1_555
O3_2 C2_2 1_555 1_555
O4_2 H1_2 1_555 1_555
O5_2 C18_2 1_555 1_555
O6_2 Nd1 1_555 1_555
O7_2 Nd1 1_555 1_555
O8_2 C9_2 1_555 1_555
O9_2 C9_2 1_555 1_555
N1_2 C1_2 1_555 1_555
C1_2 H2_2 1_555 1_555
H3_2 C1_2 1_555 1_555
C2_2 C1_2 1_555 1_555
H4_2 C2_2 1_555 1_555
H5_2 C2_2 1_555 1_555
C3_2 O3_2 1_555 1_555
C4_2 C3_2 1_555 1_555
H6_2 C4_2 1_555 1_555
C5_2 C4_2 1_555 1_555
H7_2 C5_2 1_555 1_555
C6_2 C3_2 1_555 1_555
H8_2 C6_2 1_555 1_555
C7_2 C6_2 1_555 1_555
H9_2 C7_2 1_555 1_555
C8_2 C5_2 1_555 1_555
C9_2 C8_2 1_555 1_555
C10_2 N1_2 1_555 1_555
H10_2 C10_2 1_555 1_555
H11_2 C10_2 1_555 1_555
C11_2 C10_2 1_555 1_555
H12_2 C11_2 1_555 1_555
H13_2 C11_2 1_555 1_555
C12_2 O2_2 1_555 1_555
C13_2 C12_2 1_555 1_555
H14_2 C13_2 1_555 1_555
C14_2 C13_2 1_555 1_555
H15_2 C14_2 1_555 1_555
C15_2 C12_2 1_555 1_555
H16_2 C15_2 1_555 1_555
C16_2 C15_2 1_555 1_555
H17_2 C16_2 1_555 1_555
C17_2 C14_2 1_555 1_555
C18_2 O4_2 1_555 1_555
C19_2 N1_2 1_555 1_555
H18_2 C19_2 1_555 1_555
H19_2 C19_2 1_555 1_555
C20_2 C19_2 1_555 1_555
H20_2 C20_2 1_555 1_555
H21_2 C20_2 1_555 1_555
C21_2 O1_2 1_555 1_555
C22_2 C21_2 1_555 1_555
H22_2 C22_2 1_555 1_555
C23_2 C22_2 1_555 1_555
H23_2 C23_2 1_555 1_555
C24_2 C21_2 1_555 1_555
H24_2 C24_2 1_555 1_555
C25_2 C24_2 1_555 1_555
H25_2 C25_2 1_555 1_555
C26_2 C23_2 1_555 1_555
C27_2 O6_2 1_555 1_555
Nd1_2 O5_2 1_555 1_555
O17_2 Nd1_2 1_555 1_555
H33_2 O17_2 1_555 1_555
H34_2 O17_2 1_555 1_555
O8A Nd1 1_555 1_555
O9_3 Nd1 1_555 1_555
Nd1_3 O6 1_555 1_555
Nd1A O8 1_555 1_555
Nd1_4 O9 1_555 1_555
Nd1A_2 O8_2 1_555 1_555
Nd1_5 O9_2 1_555 1_555
O6_3 Nd1_2 1_555 1_555
O7_3 Nd1_2 1_555 1_555
O8A_2 Nd1_2 1_555 1_555
O9_4 Nd1_2 1_555 1_555
O10_2 Nd1_2 1_555 1_555
O11A_2 Nd1_2 1_555 1_555
O7 Nd1_3 1_555 1_555
O11 Nd1A 1_555 1_555
C7 C8 1_555 1_555
C16 C17 1_555 1_555
C17 C18 1_555 1_555
C25 C26 1_555 1_555
C28A O11A 1_555 1_555
O10A Nd1A 1_555 1_555
O7_2 C27_2 1_555 1_555
C7_2 C8_2 1_555 1_555
C16_2 C17_2 1_555 1_555
C17_2 C18_2 1_555 1_555
C25_2 C26_2 1_555 1_555
C26_2 C27_2 1_555 1_555

#END
