
#######################################################################
#
#                 Cambridge Crystallographic Data Centre
#                                CCDC 
#
#######################################################################
#
# If this CIF has been generated from an entry in the Cambridge 
# Structural Database, then it will include bibliographic, chemical, 
# crystal, experimental, refinement or atomic coordinate data resulting 
# from the CCDC's data processing and validation procedures.
#
#######################################################################

data_EBAMEB01
_symmetry_cell_setting           monoclinic
_symmetry_space_group_name_H-M   'P 21'
_symmetry_Int_Tables_number      4
_space_group_name_Hall           'P 2yb'
loop_
_symmetry_equiv_pos_site_id
_symmetry_equiv_pos_as_xyz
1 x,y,z
2 -x,1/2+y,-z
_cell_length_a                   11.2663(13)
_cell_length_b                   16.8109(19)
_cell_length_c                   14.3133(16)
_cell_angle_alpha                90
_cell_angle_beta                 96.8810(10)
_cell_angle_gamma                90
_cell_volume                     2691.36
loop_
_atom_site_label
_atom_site_type_symbol
_atom_site_fract_x
_atom_site_fract_y
_atom_site_fract_z
Zn1 Zn 0.94598(2) 0.266365(17) 0.702505(19)
Zn2 Zn 0.19402(2) 0.256861(18) 0.993069(19)
Zn3 Zn 0.65842(2) 0.430458(17) 0.958420(19)
Zn4 Zn 0.43672(2) 0.386046(17) 0.67988(2)
O1 O 0.25592(16) 0.18209(12) 0.89553(13)
O2 O 0.38440(17) 0.27465(12) 0.94899(14)
O3 O 0.53003(16) 0.36417(10) 0.80315(12)
O4 O 0.63250(15) 0.31678(11) 0.93089(12)
O5 O 0.75888(17) 0.29510(11) 0.76016(14)
O6 O 0.82918(16) 0.17901(11) 0.72284(14)
O7 O 0.4550(2) 0.29649(14) 1.59211(14)
O8 O 0.2926(3) 0.35337(16) 1.51787(17)
O9 O 0.2866(2) 0.41678(15) 1.33340(18)
H1 H 0.2238 0.4430 1.3206
O10 O 0.1367(2) 0.32791(18) 1.3196(2)
O11 O 0.2666(3) 0.3249(2) 1.14412(19)
O12 O 0.2729(2) 0.19850(19) 1.11276(15)
O13 O 1.32353(17) 0.47923(12) 0.69561(15)
O14 O 1.25626(18) 0.36656(13) 0.74486(15)
O15 O 1.14965(14) 0.36183(10) 0.93295(11)
O16 O 1.03770(16) 0.30413(11) 0.81501(12)
O17 O 0.90545(18) 0.40912(13) 0.96167(14)
O18 O 0.76643(16) 0.48602(12) 0.88615(14)
N1 N 0.88617(19) 0.32449(14) 0.58008(15)
N2 N 0.69961(18) 0.41747(13) 0.10279(14)
N3 N 0.02301(19) 0.21258(13) 1.00421(16)
N4 N -0.50971(18) 0.00016(13) 1.04329(14)
N5 N 1.44270(19) -0.04200(13) 0.38721(15)
N6 N 1.06280(19) 0.19216(14) 0.63955(15)
C1 C 0.4478(2) 0.18028(15) 0.84075(17)
C2 C 0.5501(2) 0.22135(15) 0.82150(16)
C3 C 0.6361(2) 0.18110(15) 0.77612(17)
C4 C 0.6197(2) 0.10081(17) 0.75253(19)
H2 H 0.6770 0.0744 0.7224
C5 C 0.5199(3) 0.06025(17) 0.7733(2)
H3 H 0.5107 0.0065 0.7589
C6 C 0.4332(2) 0.10063(17) 0.81592(19)
H4 H 0.3644 0.0740 0.8280
C7 C 0.3578(2) 0.21640(16) 0.89830(18)
C8 C 0.5718(2) 0.30699(15) 0.85270(16)
C9 C 0.7470(2) 0.22217(16) 0.75305(18)
C10 C 0.4021(2) 0.26348(18) 1.43177(18)
C11 C 0.3399(2) 0.28284(16) 1.34406(18)
C12 C 0.3595(2) 0.23893(17) 1.26404(18)
C13 C 0.4429(3) 0.17767(18) 1.2729(2)
H5 H 0.4548 0.1475 1.2203
C14 C 0.5085(3) 0.16077(18) 1.3583(2)
H6 H 0.5666 0.1212 1.3627
C15 C 0.4870(3) 0.20314(18) 1.4371(2)
H7 H 0.5302 0.1911 1.4949
C16 C 0.3785(3) 0.30803(19) 1.5194(2)
C17 C 0.2415(4) 0.3449(2) 1.3324(2)
C18 C 0.2945(3) 0.2554(3) 1.1678(2)
C19 C 1.1372(2) 0.48284(15) 0.75812(17)
C20 C 1.0582(2) 0.44739(15) 0.81528(16)
C21 C 0.9588(2) 0.49104(15) 0.83716(17)
C22 C 0.9401(2) 0.56850(16) 0.80287(18)
H8 H 0.8739 0.5970 0.8174
C23 C 1.0182(2) 0.60328(17) 0.7480(2)
H9 H 1.0054 0.6550 0.7259
C24 C 1.1165(3) 0.56006(17) 0.72592(19)
H10 H 1.1693 0.5834 0.6889
C25 C 1.2448(2) 0.43929(18) 0.73213(17)
C26 C 1.0832(2) 0.36505(15) 0.85592(16)
C27 C 0.8727(2) 0.45799(16) 0.90061(18)
C28 C 0.7693(2) 0.32054(18) 0.5462(2)
H11 H 0.7150 0.3035 0.5860
C29 C 0.7270(2) 0.34086(18) 0.45469(19)
H12 H 0.6460 0.3363 0.4334
C30 C 0.8066(2) 0.36829(17) 0.39454(18)
C31 C 0.9258(2) 0.3750(2) 0.43064(19)
H13 H 0.9812 0.3946 0.3933
C32 C 0.9621(3) 0.35236(19) 0.5224(2)
H14 H 1.0426 0.3566 0.5452
C33 C 0.7934(2) 0.45354(18) 0.15079(19)
H15 H 0.8374 0.4890 0.1188
C34 C 0.8283(2) 0.4411(2) 0.24496(19)
H16 H 0.8932 0.4685 0.2757
C35 C 0.7653(2) 0.38678(17) 0.29399(17)
C36 C 0.6658(3) 0.35128(18) 0.2450(2)
H17 H 0.6193 0.3164 0.2756
C37 C 0.6358(2) 0.36775(18) 0.15091(19)
H18 H 0.5685 0.3434 0.1193
C38 C -0.0122(3) 0.14984(19) 0.9510(2)
H19 H 0.0379 0.1313 0.9087
C39 C -0.1190(3) 0.11113(19) 0.9555(2)
H20 H -0.1390 0.0669 0.9178
C40 C -0.1967(2) 0.13840(16) 1.01660(18)
C41 C -0.1622(2) 0.20537(17) 1.0687(2)
H21 H -0.2125 0.2268 1.1091
C42 C -0.0528(2) 0.24061(16) 1.0611(2)
H22 H -0.0313 0.2856 1.0970
C43 C -0.4068(2) -0.03378(16) 1.0289(2)
H23 H -0.4031 -0.0889 1.0253
C44 C -0.3052(2) 0.01015(16) 1.0189(2)
H24 H -0.2355 -0.0155 1.0070
C45 C -0.3071(2) 0.09210(15) 1.02671(17)
C46 C -0.4143(2) 0.12742(16) 1.04419(18)
H25 H -0.4193 0.1823 1.0513
C47 C -0.5132(2) 0.07981(16) 1.05083(17)
H26 H -0.5849 0.1039 1.0609
C48 C 1.4761(2) -0.01760(17) 0.47572(19)
H27 H 1.5520 -0.0313 0.5039
C49 C 1.4037(2) 0.02670(17) 0.52707(18)
H28 H 1.4312 0.0420 0.5883
C50 C 1.2896(2) 0.04845(16) 0.48718(18)
C51 C 1.2549(3) 0.02338(19) 0.39548(19)
H29 H 1.1793 0.0362 0.3659
C52 C 1.3326(3) -0.02070(19) 0.34795(19)
H30 H 1.3077 -0.0362 0.2864
C53 C 1.1827(2) 0.19633(16) 0.65732(18)
H31 H 1.2163 0.2315 0.7033
C54 C 1.2576(2) 0.15058(17) 0.61008(18)
H32 H 1.3400 0.1550 0.6249
C55 C 1.2109(2) 0.09795(16) 0.54052(18)
C56 C 1.0858(2) 0.09357(19) 0.5229(2)
H33 H 1.0498 0.0589 0.4774
C57 C 1.0173(2) 0.14059(19) 0.5728(2)
H34 H 0.9346 0.1368 0.5600
Zn2_2 Zn 1.19402(2) 0.256861(18) 0.993069(19)
Zn3_2 Zn 0.65842(2) 0.430458(17) -0.041580(19)
Zn3A Zn -0.65842(2) -0.069542(17) 1.041580(19)
Zn4_2 Zn 0.43672(2) 0.386046(17) 1.67988(2)
Zn4_3 Zn 1.43672(2) 0.386046(17) 0.67988(2)
Zn4A Zn 1.56328(2) -0.113954(17) 0.32012(2)
O7_2 O 0.4550(2) 0.29649(14) 0.59211(14)
O13_2 O 0.32353(17) 0.47923(12) 0.69561(15)
O15_2 O 0.14965(14) 0.36183(10) 0.93295(11)
N2_2 N 0.69961(18) 0.41747(13) 1.10279(14)
N4A N 0.50971(18) 0.50016(13) 0.95671(14)
N5A N 0.55730(19) 0.45800(13) 0.61279(15)
O19 O 0.07620(19) 0.43023(14) 0.12057(15)
H35 H 0.1300 0.3964 0.1264
H36 H 0.0240 0.4193 0.0764
O20 O 0.2057(4) 0.5250(3) 0.5067(2)
H37 H 0.2536 0.4946 0.5376
H38 H 0.1899 0.5290 0.4488
O21 O 0.09844(19) 0.51794(12) 0.28047(16)
H39 H 0.1263 0.5632 0.2754
H40 H 0.0851 0.4958 0.2285
loop_
_geom_bond_atom_site_label_1
_geom_bond_atom_site_label_2
_geom_bond_site_symmetry_1
_geom_bond_site_symmetry_2
Zn1 O6 1_555 1_555
Zn2 O1 1_555 1_555
Zn3 O4 1_555 1_555
Zn4 O3 1_555 1_555
O1 C7 1_555 1_555
O2 C7 1_555 1_555
O3 C8 1_555 1_555
O4 C8 1_555 1_555
O5 C9 1_555 1_555
O6 C9 1_555 1_555
O7 C16 1_555 1_555
O8 C16 1_555 1_555
O9 H1 1_555 1_555
O10 C17 1_555 1_555
O11 C18 1_555 1_555
O12 Zn2 1_555 1_555
O13 C25 1_555 1_555
O14 C25 1_555 1_555
O15 C26 1_555 1_555
O16 Zn1 1_555 1_555
O17 C27 1_555 1_555
O18 Zn3 1_555 1_555
N1 Zn1 1_555 1_555
N2 C33 1_555 1_555
N3 Zn2 1_555 1_555
N4 C43 1_555 1_555
N5 C48 1_555 1_555
N6 Zn1 1_555 1_555
C1 C2 1_555 1_555
C2 C3 1_555 1_555
C3 C4 1_555 1_555
C4 H2 1_555 1_555
C5 C4 1_555 1_555
H3 C5 1_555 1_555
C6 C1 1_555 1_555
H4 C6 1_555 1_555
C7 C1 1_555 1_555
C8 C2 1_555 1_555
C9 C3 1_555 1_555
C10 C11 1_555 1_555
C11 C12 1_555 1_555
C12 C13 1_555 1_555
C13 H5 1_555 1_555
C14 C13 1_555 1_555
H6 C14 1_555 1_555
C15 C10 1_555 1_555
H7 C15 1_555 1_555
C16 C10 1_555 1_555
C17 O9 1_555 1_555
C18 O12 1_555 1_555
C19 C20 1_555 1_555
C20 C21 1_555 1_555
C21 C22 1_555 1_555
C22 H8 1_555 1_555
C23 C22 1_555 1_555
H9 C23 1_555 1_555
C24 C19 1_555 1_555
H10 C24 1_555 1_555
C25 C19 1_555 1_555
C26 O16 1_555 1_555
C27 O18 1_555 1_555
C28 N1 1_555 1_555
H11 C28 1_555 1_555
C29 C28 1_555 1_555
H12 C29 1_555 1_555
C30 C29 1_555 1_555
C31 C30 1_555 1_555
H13 C31 1_555 1_555
C32 N1 1_555 1_555
H14 C32 1_555 1_555
C33 H15 1_555 1_555
C34 C33 1_555 1_555
H16 C34 1_555 1_555
C35 C30 1_555 1_555
C36 C35 1_555 1_555
H17 C36 1_555 1_555
C37 N2 1_555 1_555
H18 C37 1_555 1_555
C38 N3 1_555 1_555
H19 C38 1_555 1_555
C39 C38 1_555 1_555
H20 C39 1_555 1_555
C40 C39 1_555 1_555
C41 C40 1_555 1_555
H21 C41 1_555 1_555
C42 N3 1_555 1_555
H22 C42 1_555 1_555
C43 H23 1_555 1_555
C44 C43 1_555 1_555
H24 C44 1_555 1_555
C45 C40 1_555 1_555
C46 C45 1_555 1_555
H25 C46 1_555 1_555
C47 N4 1_555 1_555
H26 C47 1_555 1_555
C48 H27 1_555 1_555
C49 C48 1_555 1_555
H28 C49 1_555 1_555
C50 C49 1_555 1_555
C51 C50 1_555 1_555
H29 C51 1_555 1_555
C52 N5 1_555 1_555
H30 C52 1_555 1_555
C53 N6 1_555 1_555
H31 C53 1_555 1_555
C54 C53 1_555 1_555
H32 C54 1_555 1_555
C55 C50 1_555 1_555
C56 C55 1_555 1_555
H33 C56 1_555 1_555
C57 N6 1_555 1_555
H34 C57 1_555 1_555
O19 H35 1_555 1_555
H36 O19 1_555 1_555
O20 H37 1_555 1_555
H38 O20 1_555 1_555
O21 H39 1_555 1_555
H40 O21 1_555 1_555
Zn2_2 O15 1_555 1_555
Zn3_2 N2 1_555 1_555
Zn3A N4 1_555 1_555
Zn4_2 O7 1_555 1_555
Zn4_3 O13 1_555 1_555
Zn4A N5 1_555 1_555
O7_2 Zn4 1_555 1_555
O13_2 Zn4 1_555 1_555
O15_2 Zn2 1_555 1_555
N2_2 Zn3 1_555 1_555
N4A Zn3 1_555 1_555
N5A Zn4 1_555 1_555
C5 C6 1_555 1_555
C11 C17 1_555 1_555
C12 C18 1_555 1_555
C14 C15 1_555 1_555
C20 C26 1_555 1_555
C21 C27 1_555 1_555
C23 C24 1_555 1_555
C31 C32 1_555 1_555
C34 C35 1_555 1_555
C36 C37 1_555 1_555
C41 C42 1_555 1_555
C44 C45 1_555 1_555
C46 C47 1_555 1_555
C51 C52 1_555 1_555
C54 C55 1_555 1_555
C56 C57 1_555 1_555

#END
