
#######################################################################
#
#                 Cambridge Crystallographic Data Centre
#                                CCDC 
#
#######################################################################
#
# If this CIF has been generated from an entry in the Cambridge 
# Structural Database, then it will include bibliographic, chemical, 
# crystal, experimental, refinement or atomic coordinate data resulting 
# from the CCDC's data processing and validation procedures.
#
#######################################################################

data_EBANAX
_symmetry_cell_setting           triclinic
_symmetry_space_group_name_H-M   'P -1'
_symmetry_Int_Tables_number      2
_space_group_name_Hall           '-P 1'
loop_
_symmetry_equiv_pos_site_id
_symmetry_equiv_pos_as_xyz
1 x,y,z
2 -x,-y,-z
_cell_length_a                   10.861(5)
_cell_length_b                   11.600(5)
_cell_length_c                   13.806(5)
_cell_angle_alpha                95.385(5)
_cell_angle_beta                 103.105(5)
_cell_angle_gamma                108.467(5)
_cell_volume                     1580.8
loop_
_atom_site_label
_atom_site_type_symbol
_atom_site_fract_x
_atom_site_fract_y
_atom_site_fract_z
Gd1 Gd 0.283290(12) 0.468727(11) 0.567516(8)
O1 O 0.7057(2) 1.06299(18) 1.06339(15)
O2 O 0.3688(2) 0.56197(17) 0.75167(14)
O3 O 0.4294(2) 0.68439(19) 0.64496(15)
O4 O 1.0547(2) 1.17413(19) 1.05522(15)
O5 O 0.8536(2) 1.35163(19) 1.01091(14)
O6 O 0.9775(3) 1.1488(2) 0.58421(16)
O7 O 1.1576(2) 1.3206(2) 0.64217(16)
O8 O 0.6680(2) 1.43817(19) 0.56658(14)
O9 O 0.4876(2) 1.4416(2) 0.61483(15)
O10 O 0.1440(2) 0.58719(18) 0.59626(14)
O11 O -0.06093(19) 0.60280(18) 0.55701(14)
N1 N 0.9227(2) 1.2481(2) 1.18083(16)
C1 C 0.8215(3) 1.1690(2) 1.2280(2)
H1 H 0.7540 1.2059 1.2328
H2 H 0.8664 1.1632 1.2956
C2 C 0.7545(3) 1.0412(3) 1.1633(2)
H3 H 0.8188 0.9990 1.1644
H4 H 0.6807 0.9917 1.1869
C3 C 0.6415(3) 0.9629(2) 0.9865(2)
C4 C 0.6015(3) 0.8414(3) 1.0024(2)
H5 H 0.6184 0.8238 1.0674
C5 C 0.5355(3) 0.7465(2) 0.9188(2)
H6 H 0.5084 0.6650 0.9286
C6 C 0.5093(3) 0.7709(2) 0.8211(2)
C7 C 0.5515(3) 0.8934(3) 0.8068(2)
H7 H 0.5356 0.9109 0.7417
C8 C 0.6170(3) 0.9895(3) 0.8892(2)
H8 H 0.6443 1.0710 0.8793
C9 C 0.4323(3) 0.6663(3) 0.7343(2)
C10 C 1.0620(3) 1.2447(3) 1.2210(2)
H9 H 1.0566 1.1643 1.2379
H10 H 1.1099 1.3066 1.2817
C11 C 1.1360(3) 1.2704(3) 1.1403(2)
H11 H 1.1431 1.3511 1.1233
H12 H 1.2259 1.2669 1.1627
C12 C 1.0671(3) 1.1914(3) 0.9602(2)
C13 C 0.9672(3) 1.1054(3) 0.8808(2)
H13 H 0.9002 1.0408 0.8940
C14 C 0.9684(3) 1.1168(2) 0.7822(2)
H14 H 0.9013 1.0600 0.7291
C15 C 1.0696(3) 1.2130(2) 0.7616(2)
C16 C 1.1696(3) 1.2963(2) 0.8417(2)
H15 H 1.2380 1.3596 0.8286
C17 C 1.1693(3) 1.2869(3) 0.9414(2)
H16 H 1.2364 1.3435 0.9946
C18 C 1.0686(3) 1.2285(3) 0.6548(2)
C19 C 0.7815(3) 1.3651(2) 0.91963(19)
C20 C 0.6663(3) 1.3965(3) 0.9057(2)
H17 H 0.6303 1.4062 0.9597
C21 C 0.6046(3) 1.4133(3) 0.8104(2)
H18 H 0.5270 1.4335 0.8008
C22 C 0.6588(3) 1.3998(2) 0.72962(19)
C23 C 0.7720(3) 1.3645(2) 0.7440(2)
H19 H 0.8067 1.3525 0.6897
C24 C 0.8336(3) 1.3472(2) 0.8383(2)
H20 H 0.9092 1.3237 0.8472
C25 C 0.5994(3) 1.4281(2) 0.62897(19)
C26 C 0.9205(3) 1.3774(3) 1.1872(2)
H21 H 1.0080 1.4340 1.1869
H22 H 0.9017 1.4019 1.2498
C27 C 0.8137(3) 1.3831(3) 1.0987(2)
H23 H 0.7261 1.3249 1.0969
H24 H 0.8090 1.4655 1.1030
C28 C 0.0233(3) 0.5551(2) 0.54444(19)
O17 O 0.2627(3) 0.2877(2) 0.45563(17)
H35 H 0.1847 0.2137 0.4361
H36 H 0.3267 0.2510 0.4669
C28A C -0.0233(3) 0.4449(2) 0.45556(19)
O10A O -0.1440(2) 0.41281(18) 0.40374(14)
O11A O 0.06093(19) 0.39720(18) 0.44299(14)
O1_2 O -0.2943(2) 0.06299(18) 1.06339(15)
O2_2 O -0.6312(2) -0.43803(17) 0.75167(14)
O3_2 O -0.5706(2) -0.31561(19) 0.64496(15)
O4_2 O 0.0547(2) 0.17413(19) 1.05522(15)
O5_2 O -0.1464(2) 0.35163(19) 1.01091(14)
O6_2 O -0.0225(3) 0.1488(2) 0.58421(16)
O7_2 O 0.1576(2) 0.3206(2) 0.64217(16)
O8_2 O -0.3320(2) 0.43817(19) 0.56658(14)
O9_2 O -0.5124(2) 0.4416(2) 0.61483(15)
N1_2 N -0.0773(2) 0.2481(2) 1.18083(16)
C1_2 C -0.1785(3) 0.1690(2) 1.2280(2)
H1_2 H -0.2460 0.2059 1.2328
H2_2 H -0.1336 0.1632 1.2956
C2_2 C -0.2455(3) 0.0412(3) 1.1633(2)
H3_2 H -0.1812 -0.0010 1.1644
H4_2 H -0.3193 -0.0083 1.1869
C3_2 C -0.3585(3) -0.0371(2) 0.9865(2)
C4_2 C -0.3985(3) -0.1586(3) 1.0024(2)
H5_2 H -0.3816 -0.1762 1.0674
C5_2 C -0.4645(3) -0.2535(2) 0.9188(2)
H6_2 H -0.4916 -0.3350 0.9286
C6_2 C -0.4907(3) -0.2291(2) 0.8211(2)
C7_2 C -0.4485(3) -0.1066(3) 0.8068(2)
H7_2 H -0.4644 -0.0891 0.7417
C8_2 C -0.3830(3) -0.0105(3) 0.8892(2)
H8_2 H -0.3557 0.0710 0.8793
C9_2 C -0.5677(3) -0.3337(3) 0.7343(2)
C10_2 C 0.0620(3) 0.2447(3) 1.2210(2)
H9_2 H 0.0566 0.1643 1.2379
H10_2 H 0.1099 0.3066 1.2817
C11_2 C 0.1360(3) 0.2704(3) 1.1403(2)
H11_2 H 0.1431 0.3511 1.1233
H12_2 H 0.2259 0.2669 1.1627
C12_2 C 0.0671(3) 0.1914(3) 0.9602(2)
C13_2 C -0.0328(3) 0.1054(3) 0.8808(2)
H13_2 H -0.0998 0.0408 0.8940
C14_2 C -0.0316(3) 0.1168(2) 0.7822(2)
H14_2 H -0.0987 0.0600 0.7291
C15_2 C 0.0696(3) 0.2130(2) 0.7616(2)
C16_2 C 0.1696(3) 0.2963(2) 0.8417(2)
H15_2 H 0.2380 0.3596 0.8286
C17_2 C 0.1693(3) 0.2869(3) 0.9414(2)
H16_2 H 0.2364 0.3435 0.9946
C18_2 C 0.0686(3) 0.2285(3) 0.6548(2)
C19_2 C -0.2185(3) 0.3651(2) 0.91963(19)
C20_2 C -0.3337(3) 0.3965(3) 0.9057(2)
H17_2 H -0.3697 0.4062 0.9597
C21_2 C -0.3954(3) 0.4133(3) 0.8104(2)
H18_2 H -0.4730 0.4335 0.8008
C22_2 C -0.3412(3) 0.3998(2) 0.72962(19)
C23_2 C -0.2280(3) 0.3645(2) 0.7440(2)
H19_2 H -0.1933 0.3525 0.6897
C24_2 C -0.1664(3) 0.3472(2) 0.8383(2)
H20_2 H -0.0908 0.3237 0.8472
C25_2 C -0.4006(3) 0.4281(2) 0.62897(19)
C26_2 C -0.0795(3) 0.3774(3) 1.1872(2)
H21_2 H 0.0080 0.4340 1.1869
H22_2 H -0.0983 0.4019 1.2498
C27_2 C -0.1863(3) 0.3831(3) 1.0987(2)
H23_2 H -0.2739 0.3249 1.0969
H24_2 H -0.1910 0.4655 1.1030
Gd1_2 Gd -0.716710(12) -0.531273(11) 0.567516(8)
O8A O 0.3320(2) 0.56183(19) 0.43342(14)
O9_3 O 0.4876(2) 0.4416(2) 0.61483(15)
Gd1_3 Gd 1.283290(12) 1.468727(11) 0.567516(8)
Gd1A Gd 0.716710(12) 1.531273(11) 0.432484(8)
Gd1_4 Gd 0.283290(12) 1.468727(11) 0.567516(8)
Gd1A_2 Gd -0.283290(12) 0.531273(11) 0.432484(8)
Gd1_5 Gd -0.716710(12) 0.468727(11) 0.567516(8)
O2_3 O 1.3688(2) 1.56197(17) 0.75167(14)
O3_3 O 1.4294(2) 1.68439(19) 0.64496(15)
O8A_2 O 1.3320(2) 1.56183(19) 0.43342(14)
O9_4 O 1.4876(2) 1.4416(2) 0.61483(15)
O10_2 O 1.1440(2) 1.58719(18) 0.59626(14)
O11A_2 O 1.06093(19) 1.39720(18) 0.44299(14)
O17_2 O 1.2627(3) 1.2877(2) 0.45563(17)
H35_2 H 1.1847 1.2137 0.4361
H36_2 H 1.3267 1.2510 0.4669
O12 O -0.4500(3) -0.1735(2) 0.5192(2)
H25 H -0.4366 -0.0856 0.5429
H26 H -0.5019 -0.2137 0.5559
O13 O -0.3424(4) 0.0681(3) 0.6142(3)
H27 H -0.3558 0.0327 0.5324
H28 H -0.4380 0.0674 0.6086
O14 O -0.2526(4) 0.1588(4) 0.4623(3)
H29 H -0.1406 0.1770 0.4973
H30 H -0.2403 0.2617 0.4532
O15 O -0.4019(6) -0.0782(4) 0.3382(4)
H31 H -0.4168 -0.1553 0.3744
H32 H -0.3390 0.0068 0.3987
O16 O -0.0257(3) -0.0944(2) 0.59523(17)
H33 H -0.0024 -0.1164 0.5402
H34 H -0.0367 -0.0223 0.5926
loop_
_geom_bond_atom_site_label_1
_geom_bond_atom_site_label_2
_geom_bond_site_symmetry_1
_geom_bond_site_symmetry_2
Gd1 O2 1_555 1_555
O1 C2 1_555 1_555
O2 C9 1_555 1_555
O3 Gd1 1_555 1_555
O4 C11 1_555 1_555
O5 C19 1_555 1_555
O6 C18 1_555 1_555
O7 C18 1_555 1_555
O8 C25 1_555 1_555
O9 C25 1_555 1_555
O10 Gd1 1_555 1_555
O11 C28 1_555 1_555
N1 C1 1_555 1_555
C1 H1 1_555 1_555
H2 C1 1_555 1_555
C2 C1 1_555 1_555
H3 C2 1_555 1_555
H4 C2 1_555 1_555
C3 O1 1_555 1_555
C4 C3 1_555 1_555
H5 C4 1_555 1_555
C5 C4 1_555 1_555
H6 C5 1_555 1_555
C6 C5 1_555 1_555
C7 C6 1_555 1_555
H7 C7 1_555 1_555
C8 C3 1_555 1_555
H8 C8 1_555 1_555
C9 O3 1_555 1_555
C10 N1 1_555 1_555
H9 C10 1_555 1_555
H10 C10 1_555 1_555
C11 C10 1_555 1_555
H11 C11 1_555 1_555
H12 C11 1_555 1_555
C12 O4 1_555 1_555
C13 C12 1_555 1_555
H13 C13 1_555 1_555
C14 C13 1_555 1_555
H14 C14 1_555 1_555
C15 C14 1_555 1_555
C16 C15 1_555 1_555
H15 C16 1_555 1_555
C17 C12 1_555 1_555
H16 C17 1_555 1_555
C18 C15 1_555 1_555
C19 C20 1_555 1_555
C20 H17 1_555 1_555
C21 C20 1_555 1_555
H18 C21 1_555 1_555
C22 C21 1_555 1_555
C23 C22 1_555 1_555
H19 C23 1_555 1_555
C24 C19 1_555 1_555
H20 C24 1_555 1_555
C25 C22 1_555 1_555
C26 N1 1_555 1_555
H21 C26 1_555 1_555
H22 C26 1_555 1_555
C27 O5 1_555 1_555
H23 C27 1_555 1_555
H24 C27 1_555 1_555
C28 O10 1_555 1_555
O12 H25 1_555 1_555
H26 O12 1_555 1_555
O13 H27 1_555 1_555
H28 O13 1_555 1_555
O14 H29 1_555 1_555
H30 O14 1_555 1_555
O15 H31 1_555 1_555
H32 O15 1_555 1_555
O16 H33 1_555 1_555
H34 O16 1_555 1_555
O17 Gd1 1_555 1_555
H35 O17 1_555 1_555
H36 O17 1_555 1_555
C28A C28 1_555 1_555
O10A C28A 1_555 1_555
O11A Gd1 1_555 1_555
O1_2 C2_2 1_555 1_555
O2_2 C9_2 1_555 1_555
O3_2 C9_2 1_555 1_555
O4_2 C11_2 1_555 1_555
O5_2 C19_2 1_555 1_555
O6_2 C18_2 1_555 1_555
O7_2 Gd1 1_555 1_555
O8_2 C25_2 1_555 1_555
O9_2 C25_2 1_555 1_555
N1_2 C1_2 1_555 1_555
C1_2 H1_2 1_555 1_555
H2_2 C1_2 1_555 1_555
C2_2 C1_2 1_555 1_555
H3_2 C2_2 1_555 1_555
H4_2 C2_2 1_555 1_555
C3_2 O1_2 1_555 1_555
C4_2 C3_2 1_555 1_555
H5_2 C4_2 1_555 1_555
C5_2 C4_2 1_555 1_555
H6_2 C5_2 1_555 1_555
C6_2 C5_2 1_555 1_555
C7_2 C6_2 1_555 1_555
H7_2 C7_2 1_555 1_555
C8_2 C3_2 1_555 1_555
H8_2 C8_2 1_555 1_555
C9_2 C6_2 1_555 1_555
C10_2 N1_2 1_555 1_555
H9_2 C10_2 1_555 1_555
H10_2 C10_2 1_555 1_555
C11_2 C10_2 1_555 1_555
H11_2 C11_2 1_555 1_555
H12_2 C11_2 1_555 1_555
C12_2 O4_2 1_555 1_555
C13_2 C12_2 1_555 1_555
H13_2 C13_2 1_555 1_555
C14_2 C13_2 1_555 1_555
H14_2 C14_2 1_555 1_555
C15_2 C14_2 1_555 1_555
C16_2 C15_2 1_555 1_555
H15_2 C16_2 1_555 1_555
C17_2 C12_2 1_555 1_555
H16_2 C17_2 1_555 1_555
C18_2 O7_2 1_555 1_555
C19_2 C20_2 1_555 1_555
C20_2 H17_2 1_555 1_555
C21_2 C20_2 1_555 1_555
H18_2 C21_2 1_555 1_555
C22_2 C21_2 1_555 1_555
C23_2 C22_2 1_555 1_555
H19_2 C23_2 1_555 1_555
C24_2 C19_2 1_555 1_555
H20_2 C24_2 1_555 1_555
C25_2 C22_2 1_555 1_555
C26_2 N1_2 1_555 1_555
H21_2 C26_2 1_555 1_555
H22_2 C26_2 1_555 1_555
C27_2 O5_2 1_555 1_555
H23_2 C27_2 1_555 1_555
H24_2 C27_2 1_555 1_555
Gd1_2 O2_2 1_555 1_555
O8A Gd1 1_555 1_555
O9_3 Gd1 1_555 1_555
Gd1_3 O7 1_555 1_555
Gd1A O8 1_555 1_555
Gd1_4 O9 1_555 1_555
Gd1A_2 O11 1_555 1_555
Gd1_5 O9_2 1_555 1_555
O2_3 Gd1_3 1_555 1_555
O3_3 Gd1_3 1_555 1_555
O8A_2 Gd1_3 1_555 1_555
O9_4 Gd1_3 1_555 1_555
O10_2 Gd1_3 1_555 1_555
O11A_2 Gd1_3 1_555 1_555
O17_2 Gd1_3 1_555 1_555
H35_2 O17_2 1_555 1_555
H36_2 O17_2 1_555 1_555
C6 C9 1_555 1_555
C7 C8 1_555 1_555
C16 C17 1_555 1_555
C23 C24 1_555 1_555
C26 C27 1_555 1_555
C28A O11A 1_555 1_555
O10A Gd1A_2 1_555 1_555
O3_2 Gd1_2 1_555 1_555
O8_2 Gd1A_2 1_555 1_555
C7_2 C8_2 1_555 1_555
C15_2 C18_2 1_555 1_555
C16_2 C17_2 1_555 1_555
C23_2 C24_2 1_555 1_555
C26_2 C27_2 1_555 1_555

#END
