
#######################################################################
#
#                 Cambridge Crystallographic Data Centre
#                                CCDC 
#
#######################################################################
#
# If this CIF has been generated from an entry in the Cambridge 
# Structural Database, then it will include bibliographic, chemical, 
# crystal, experimental, refinement or atomic coordinate data resulting 
# from the CCDC's data processing and validation procedures.
#
#######################################################################

data_EBAQOO
_symmetry_cell_setting           triclinic
_symmetry_space_group_name_H-M   'P -1'
_symmetry_Int_Tables_number      2
_space_group_name_Hall           '-P 1'
loop_
_symmetry_equiv_pos_site_id
_symmetry_equiv_pos_as_xyz
1 x,y,z
2 -x,-y,-z
_cell_length_a                   13.2820(8)
_cell_length_b                   14.0630(7)
_cell_length_c                   16.9090(10)
_cell_angle_alpha                75.991(4)
_cell_angle_beta                 89.705(3)
_cell_angle_gamma                81.997(3)
_cell_volume                     3033.22
loop_
_atom_site_label
_atom_site_type_symbol
_atom_site_fract_x
_atom_site_fract_y
_atom_site_fract_z
O13 O 0.3545(4) 0.3168(4) 0.5297(3)
H33 H 0.3772 0.3784 0.5067
H34 H 0.3159 0.2889 0.4918
Zn1 Zn 0.37439(5) 0.86250(5) -0.00181(4)
Zn2 Zn 0.10828(6) 1.43535(6) 0.38714(5)
Zn3 Zn 0.63018(6) 0.27655(6) -0.38496(5)
C1 C 0.1931(5) 1.0258(5) -0.0616(4)
C2 C 0.1249(5) 1.1000(5) -0.0309(4)
H1 H 0.0615 1.1342 -0.0550
C3 C 0.1686(5) 1.1102(5) 0.0369(4)
H2 H 0.1423 1.1538 0.0695
C4 C 0.2626(5) 1.0431(4) 0.0517(4)
C5 C 0.3339(5) 1.0348(4) 0.1147(4)
C6 C 0.4280(5) 0.9715(5) 0.1270(4)
C7 C 0.5103(5) 0.9759(5) 0.1806(4)
H3 H 0.5119 1.0231 0.2122
C8 C 0.5846(5) 0.9012(5) 0.1779(4)
H4 H 0.6482 0.8857 0.2069
C9 C 0.5484(5) 0.8491(5) 0.1222(4)
C10 C 0.6015(5) 0.7621(5) 0.1048(4)
C11 C 0.5758(5) 0.7193(5) 0.0424(4)
C12 C 0.6271(5) 0.6299(5) 0.0248(4)
H5 H 0.6820 0.5862 0.0555
C13 C 0.5824(5) 0.6202(5) -0.0434(4)
H6 H 0.6006 0.5682 -0.0700
C14 C 0.5028(5) 0.7017(5) -0.0691(4)
C15 C 0.4416(5) 0.7207(5) -0.1406(4)
C16 C 0.3588(5) 0.7991(5) -0.1625(4)
C17 C 0.2982(5) 0.8176(5) -0.2363(4)
H7 H 0.3081 0.7838 -0.2787
C18 C 0.2243(5) 0.8926(5) -0.2331(4)
H8 H 0.1718 0.9216 -0.2731
C19 C 0.2392(5) 0.9212(5) -0.1579(4)
C20 C 0.1778(5) 0.9959(5) -0.1326(4)
N1 N 0.2750(4) 0.9917(4) -0.0073(3)
N2 N 0.4555(4) 0.8949(4) 0.0890(3)
N3 N 0.4981(4) 0.7603(4) -0.0138(3)
N4 N 0.3232(4) 0.8621(4) -0.1169(3)
C21 C 0.3097(5) 1.0972(5) 0.1735(4)
C22 C 0.2907(5) 1.2005(5) 0.1498(4)
H9 H 0.2955 1.2327 0.0939
C23 C 0.2653(5) 1.2572(5) 0.2051(4)
H10 H 0.2503 1.3272 0.1871
C24 C 0.2617(5) 1.2112(5) 0.2870(4)
C25 C 0.2819(5) 1.1100(5) 0.3130(4)
H11 H 0.2787 1.0787 0.3693
C26 C 0.3071(5) 1.0535(5) 0.2573(4)
H12 H 0.3229 0.9836 0.2761
C27 C 0.2314(5) 1.2737(5) 0.3476(4)
C28 C 0.6907(5) 0.7091(5) 0.1623(4)
C29 C 0.6769(5) 0.6854(5) 0.2445(4)
H13 H 0.6114 0.7009 0.2648
C30 C 0.7572(5) 0.6387(5) 0.2991(4)
H14 H 0.7468 0.6252 0.3561
C31 C 0.8527(5) 0.6119(5) 0.2701(4)
C32 C 0.8653(5) 0.6349(5) 0.1860(4)
H15 H 0.9295 0.6158 0.1652
C33 C 0.7870(5) 0.6845(5) 0.1328(4)
H16 H 0.7982 0.7022 0.0759
C34 C 0.9381(5) 0.5608(5) 0.3292(4)
C35 C 0.4686(5) 0.6567(5) -0.1985(4)
C36 C 0.5064(5) 0.6966(5) -0.2745(4)
H17 H 0.5114 0.7653 -0.2905
C37 C 0.5367(5) 0.6370(5) -0.3268(4)
H18 H 0.5633 0.6651 -0.3781
C38 C 0.5287(5) 0.5362(5) -0.3056(4)
C39 C 0.4889(6) 0.4968(5) -0.2308(4)
H19 H 0.4824 0.4284 -0.2154
C40 C 0.4582(6) 0.5578(5) -0.1776(4)
H20 H 0.4300 0.5305 -0.1269
C41 C 0.5672(5) 0.4709(5) -0.3607(4)
C42 C 0.0874(5) 1.0526(5) -0.1877(4)
C43 C 0.0984(5) 1.1340(5) -0.2491(4)
H21 H 0.1630 1.1560 -0.2568
C44 C 0.0181(5) 1.1843(5) -0.2995(4)
H22 H 0.0280 1.2394 -0.3426
C45 C -0.0788(5) 1.1550(5) -0.2879(4)
C46 C -0.0906(5) 1.0749(6) -0.2252(5)
H23 H -0.1558 1.0549 -0.2155
C47 C -0.0067(6) 1.0224(6) -0.1754(5)
H24 H -0.0150 0.9659 -0.1332
C48 C -0.1668(6) 1.2137(5) -0.3416(4)
O1 O 0.1923(4) 1.3632(3) 0.3180(3)
O2 O 0.2456(4) 1.2356(4) 0.4225(3)
O3 O 0.9301(4) 0.5572(4) 0.4028(3)
O4 O 1.0165(3) 0.5196(3) 0.2992(3)
O5 O 0.5892(4) 0.5099(4) -0.4324(3)
O6 O 0.5760(4) 0.3790(4) -0.3291(3)
O7 O -0.2545(4) 1.1902(4) -0.3226(3)
O8 O -0.1515(4) 1.2797(4) -0.4021(4)
O9 O 0.1837(4) 1.5080(4) 0.4503(4)
H25 H 0.1725 1.5823 0.4333
H26 H 0.1439 1.4849 0.5019
O10 O 0.0370(5) 1.3350(5) 0.4649(4)
H27 H 0.1056 1.2877 0.4904
H28 H 0.0232 1.3622 0.5117
O11 O 0.5210(5) 0.1853(4) -0.3693(4)
H29 H 0.5263 0.1187 -0.3820
H30 H 0.4639 0.2216 -0.4034
O12 O 0.6384(6) 0.3281(5) -0.5057(4)
H31 H 0.6860 0.3547 -0.5422
H32 H 0.5943 0.2900 -0.5389
N5 N 0.2868(4) 0.7570(4) 0.0701(3)
C49 C 0.1903(7) 0.7836(6) 0.0881(6)
H35 H 0.1602 0.8502 0.0664
C50 C 0.1317(7) 0.7196(7) 0.1364(6)
H36 H 0.0640 0.7426 0.1483
C51 C 0.1726(6) 0.6229(6) 0.1669(5)
H37 H 0.1330 0.5763 0.1975
C52 C 0.2728(7) 0.5954(7) 0.1518(6)
H38 H 0.3050 0.5299 0.1751
C53 C 0.3270(7) 0.6637(6) 0.1024(5)
H39 H 0.3956 0.6427 0.0913
Zn3_2 Zn -0.36982(6) 1.27655(6) -0.38496(5)
Zn2_2 Zn 1.10828(6) 0.43535(6) 0.38714(5)
O4_2 O 0.0165(3) 1.5196(3) 0.2992(3)
O7_2 O 0.7455(4) 0.1902(4) -0.3226(3)
loop_
_geom_bond_atom_site_label_1
_geom_bond_atom_site_label_2
_geom_bond_site_symmetry_1
_geom_bond_site_symmetry_2
Zn1 N1 1_555 1_555
Zn2 O1 1_555 1_555
Zn3 O6 1_555 1_555
C1 C2 1_555 1_555
C2 H1 1_555 1_555
C3 C2 1_555 1_555
H2 C3 1_555 1_555
C4 C3 1_555 1_555
C5 C4 1_555 1_555
C6 C5 1_555 1_555
C7 C6 1_555 1_555
H3 C7 1_555 1_555
C8 C7 1_555 1_555
H4 C8 1_555 1_555
C9 C8 1_555 1_555
C10 C9 1_555 1_555
C11 C10 1_555 1_555
C12 C11 1_555 1_555
H5 C12 1_555 1_555
C13 C12 1_555 1_555
H6 C13 1_555 1_555
C14 C13 1_555 1_555
C15 C14 1_555 1_555
C16 C15 1_555 1_555
C17 C16 1_555 1_555
H7 C17 1_555 1_555
C18 C17 1_555 1_555
H8 C18 1_555 1_555
C19 C18 1_555 1_555
C20 C1 1_555 1_555
N1 C1 1_555 1_555
N2 Zn1 1_555 1_555
N3 Zn1 1_555 1_555
N4 Zn1 1_555 1_555
C21 C5 1_555 1_555
C22 C21 1_555 1_555
H9 C22 1_555 1_555
C23 C22 1_555 1_555
H10 C23 1_555 1_555
C24 C23 1_555 1_555
C25 C24 1_555 1_555
H11 C25 1_555 1_555
C26 C21 1_555 1_555
H12 C26 1_555 1_555
C27 C24 1_555 1_555
C28 C10 1_555 1_555
C29 C28 1_555 1_555
H13 C29 1_555 1_555
C30 C29 1_555 1_555
H14 C30 1_555 1_555
C31 C30 1_555 1_555
C32 C31 1_555 1_555
H15 C32 1_555 1_555
C33 C28 1_555 1_555
H16 C33 1_555 1_555
C34 C31 1_555 1_555
C35 C15 1_555 1_555
C36 C35 1_555 1_555
H17 C36 1_555 1_555
C37 C36 1_555 1_555
H18 C37 1_555 1_555
C38 C37 1_555 1_555
C39 C38 1_555 1_555
H19 C39 1_555 1_555
C40 C35 1_555 1_555
H20 C40 1_555 1_555
C41 C38 1_555 1_555
C42 C20 1_555 1_555
C43 C42 1_555 1_555
H21 C43 1_555 1_555
C44 C43 1_555 1_555
H22 C44 1_555 1_555
C45 C44 1_555 1_555
C46 C45 1_555 1_555
H23 C46 1_555 1_555
C47 C42 1_555 1_555
H24 C47 1_555 1_555
C48 C45 1_555 1_555
O1 C27 1_555 1_555
O2 C27 1_555 1_555
O3 C34 1_555 1_555
O4 C34 1_555 1_555
O5 C41 1_555 1_555
O6 C41 1_555 1_555
O7 C48 1_555 1_555
O8 C48 1_555 1_555
O9 Zn2 1_555 1_555
H25 O9 1_555 1_555
H26 O9 1_555 1_555
O10 Zn2 1_555 1_555
H27 O10 1_555 1_555
H28 O10 1_555 1_555
O11 Zn3 1_555 1_555
H29 O11 1_555 1_555
H30 O11 1_555 1_555
O12 Zn3 1_555 1_555
H31 O12 1_555 1_555
H32 O12 1_555 1_555
O13 H33 1_555 1_555
H34 O13 1_555 1_555
N5 Zn1 1_555 1_555
C49 N5 1_555 1_555
H35 C49 1_555 1_555
C50 C49 1_555 1_555
H36 C50 1_555 1_555
C51 C50 1_555 1_555
H37 C51 1_555 1_555
C52 C51 1_555 1_555
H38 C52 1_555 1_555
C53 N5 1_555 1_555
H39 C53 1_555 1_555
Zn3_2 O7 1_555 1_555
Zn2_2 O4 1_555 1_555
O4_2 Zn2 1_555 1_555
O7_2 Zn3 1_555 1_555
C4 N1 1_555 1_555
C6 N2 1_555 1_555
C9 N2 1_555 1_555
C11 N3 1_555 1_555
C14 N3 1_555 1_555
C16 N4 1_555 1_555
C19 C20 1_555 1_555
C19 N4 1_555 1_555
C25 C26 1_555 1_555
C32 C33 1_555 1_555
C39 C40 1_555 1_555
C46 C47 1_555 1_555
C52 C53 1_555 1_555

#END
