
#######################################################################
#
#                 Cambridge Crystallographic Data Centre
#                                CCDC 
#
#######################################################################
#
# If this CIF has been generated from an entry in the Cambridge 
# Structural Database, then it will include bibliographic, chemical, 
# crystal, experimental, refinement or atomic coordinate data resulting 
# from the CCDC's data processing and validation procedures.
#
#######################################################################

data_EBAQUV
_symmetry_cell_setting           monoclinic
_symmetry_space_group_name_H-M   'P 21/c'
_symmetry_Int_Tables_number      14
_space_group_name_Hall           '-P 2ybc'
loop_
_symmetry_equiv_pos_site_id
_symmetry_equiv_pos_as_xyz
1 x,y,z
2 -x,1/2+y,1/2-z
3 -x,-y,-z
4 x,1/2-y,1/2+z
_cell_length_a                   17.9839(18)
_cell_length_b                   13.6019(13)
_cell_length_c                   18.216(2)
_cell_angle_alpha                90
_cell_angle_beta                 103.197(4)
_cell_angle_gamma                90
_cell_volume                     4338.23
loop_
_atom_site_label
_atom_site_type_symbol
_atom_site_fract_x
_atom_site_fract_y
_atom_site_fract_z
C1 C -0.0710(16) 0.0924(18) 0.6122(15)
C2 C -0.1739(14) 0.1730(17) 0.5279(13)
C3 C -0.0951(14) 0.2609(16) 0.6370(12)
C4 C -0.0529(16) 0.1729(18) 0.6565(13)
H1 H -0.0124 0.1703 0.7003
C5 C 0.0815(8) 0.4161(14) 0.7355(10)
C6 C 0.1507(10) 0.4342(14) 0.7861(8)
H2 H 0.1516 0.4486 0.8374
C7 C 0.2185(8) 0.4312(15) 0.7618(11)
H3 H 0.2657 0.4435 0.7963
C8 C 0.2171(9) 0.4101(15) 0.6868(12)
H4 H 0.2634 0.4080 0.6701
C9 C 0.1480(12) 0.3921(15) 0.6362(9)
H5 H 0.1471 0.3777 0.5850
C10 C 0.0802(9) 0.3951(15) 0.6606(9)
H6 H 0.0329 0.3828 0.6260
C11 C -0.0466(10) 0.3120(10) 0.8497(8)
C12 C -0.0048(9) 0.3080(11) 0.9239(8)
H7 H 0.0309 0.3583 0.9431
C13 C -0.0153(10) 0.2302(13) 0.9701(7)
H8 H 0.0133 0.2275 1.0208
C14 C -0.0676(11) 0.1565(11) 0.9420(9)
H9 H -0.0747 0.1034 0.9735
C15 C -0.1094(9) 0.1605(11) 0.8678(10)
H10 H -0.1452 0.1102 0.8486
C16 C -0.0990(9) 0.2383(12) 0.8216(7)
H11 H -0.1275 0.2410 0.7709
C17 C -0.0952(9) 0.5415(11) 0.7300(9)
C18 C -0.1499(11) 0.5738(14) 0.7675(8)
H12 H -0.1533 0.5442 0.8139
C19 C -0.1995(10) 0.6494(15) 0.7373(10)
H13 H -0.2368 0.6714 0.7629
C20 C -0.1944(10) 0.6927(12) 0.6694(10)
H14 H -0.2283 0.7444 0.6488
C21 C -0.1398(11) 0.6604(11) 0.6319(8)
H15 H -0.1363 0.6900 0.5856
C22 C -0.0902(9) 0.5849(11) 0.6622(8)
H16 H -0.0528 0.5628 0.6366
N1 N -0.1301(12) 0.0915(13) 0.5521(11)
N2 N -0.1559(11) 0.2543(13) 0.5734(10)
O1 O -0.0335(10) 0.0093(12) 0.6264(9)
O2 O -0.0881(10) 0.3436(11) 0.6706(9)
S1 S -0.2462(4) 0.1743(4) 0.4521(4)
Sn1 Sn -0.02101(9) 0.42202(11) 0.77315(8)
O1A O 0.0335(10) 0.5093(12) 0.8736(9)
Sn1A Sn 0.02101(9) -0.07798(11) 0.72685(8)
C23 C 0.3702(14) 0.0423(17) 0.6666(13)
C24 C 0.2687(14) 0.1272(18) 0.5835(15)
C25 C 0.3806(12) 0.2181(17) 0.6589(14)
C26 C 0.4098(14) 0.1280(17) 0.6892(15)
H17 H 0.4571 0.1257 0.7254
C27 C 0.4611(14) 0.3646(13) 0.8344(11)
C28 C 0.4576(16) 0.4446(12) 0.8810(14)
H18 H 0.4789 0.5059 0.8716
C29 C 0.4227(17) 0.4349(16) 0.9413(13)
H19 H 0.4203 0.4896 0.9731
C30 C 0.3914(16) 0.3452(19) 0.9551(12)
H20 H 0.3676 0.3386 0.9963
C31 C 0.3950(16) 0.2652(15) 0.9085(13)
H21 H 0.3736 0.2039 0.9179
C32 C 0.4299(15) 0.2749(12) 0.8482(12)
H22 H 0.4323 0.2202 0.8164
C33 C 0.4650(10) 0.4991(11) 0.6658(9)
C34 C 0.4994(10) 0.5255(13) 0.6077(11)
H23 H 0.5459 0.4952 0.6036
C35 C 0.4658(13) 0.5961(14) 0.5554(10)
H24 H 0.4894 0.6141 0.5157
C36 C 0.3978(12) 0.6404(13) 0.5613(10)
H25 H 0.3748 0.6887 0.5256
C37 C 0.3633(9) 0.6141(14) 0.6194(11)
H26 H 0.3168 0.6444 0.6234
C38 C 0.3969(10) 0.5434(13) 0.6716(10)
H27 H 0.3734 0.5254 0.7113
C39 C 0.5867(9) 0.2837(12) 0.6982(10)
C40 C 0.5576(9) 0.2500(14) 0.6253(10)
H28 H 0.5080 0.2695 0.5987
C41 C 0.6009(13) 0.1876(15) 0.5912(9)
H29 H 0.5810 0.1645 0.5414
C42 C 0.6735(12) 0.1591(14) 0.6301(13)
H30 H 0.7031 0.1164 0.6069
C43 C 0.7026(9) 0.1928(15) 0.7030(12)
H31 H 0.7522 0.1733 0.7296
C44 C 0.6593(10) 0.2552(14) 0.7370(9)
H32 H 0.6792 0.2783 0.7869
N3 N 0.2986(11) 0.0444(14) 0.6184(11)
N4 N 0.3081(12) 0.2129(15) 0.6033(12)
O3 O 0.3873(10) -0.0438(11) 0.6933(11)
O4 O 0.4053(9) 0.3018(10) 0.6700(10)
S2 S 0.1836(4) 0.1294(5) 0.5193(4)
Sn2 Sn 0.51023(9) 0.38075(11) 0.73837(9)
O3A O 0.6127(10) 0.4562(11) 0.8067(11)
Sn2A Sn 0.48977(9) -0.11925(11) 0.76163(9)
O5 O 0.6954(11) 0.8929(14) 0.9759(12)
O6 O 0.2333(11) 0.9466(16) 0.9282(14)
loop_
_geom_bond_atom_site_label_1
_geom_bond_atom_site_label_2
_geom_bond_site_symmetry_1
_geom_bond_site_symmetry_2
C1 C4 1_555 1_555
C2 N1 1_555 1_555
C3 C4 1_555 1_555
C4 H1 1_555 1_555
C5 C6 1_555 1_555
C6 H2 1_555 1_555
C7 C6 1_555 1_555
H3 C7 1_555 1_555
C8 C7 1_555 1_555
H4 C8 1_555 1_555
C9 C8 1_555 1_555
H5 C9 1_555 1_555
C10 C5 1_555 1_555
H6 C10 1_555 1_555
C11 C12 1_555 1_555
C12 H7 1_555 1_555
C13 C12 1_555 1_555
H8 C13 1_555 1_555
C14 C13 1_555 1_555
H9 C14 1_555 1_555
C15 C14 1_555 1_555
H10 C15 1_555 1_555
C16 C11 1_555 1_555
H11 C16 1_555 1_555
C17 C18 1_555 1_555
C18 H12 1_555 1_555
C19 C18 1_555 1_555
H13 C19 1_555 1_555
C20 C19 1_555 1_555
H14 C20 1_555 1_555
C21 C20 1_555 1_555
H15 C21 1_555 1_555
C22 C17 1_555 1_555
H16 C22 1_555 1_555
N1 C1 1_555 1_555
N2 C2 1_555 1_555
O1 C1 1_555 1_555
O2 C3 1_555 1_555
S1 C2 1_555 1_555
Sn1 C5 1_555 1_555
C23 C26 1_555 1_555
C24 N3 1_555 1_555
C25 C26 1_555 1_555
C26 H17 1_555 1_555
C27 C28 1_555 1_555
C28 H18 1_555 1_555
C29 C28 1_555 1_555
H19 C29 1_555 1_555
C30 C29 1_555 1_555
H20 C30 1_555 1_555
C31 C30 1_555 1_555
H21 C31 1_555 1_555
C32 C27 1_555 1_555
H22 C32 1_555 1_555
C33 C34 1_555 1_555
C34 H23 1_555 1_555
C35 C34 1_555 1_555
H24 C35 1_555 1_555
C36 C35 1_555 1_555
H25 C36 1_555 1_555
C37 C36 1_555 1_555
H26 C37 1_555 1_555
C38 C33 1_555 1_555
H27 C38 1_555 1_555
C39 C40 1_555 1_555
C40 H28 1_555 1_555
C41 C40 1_555 1_555
H29 C41 1_555 1_555
C42 C41 1_555 1_555
H30 C42 1_555 1_555
C43 C42 1_555 1_555
H31 C43 1_555 1_555
C44 C39 1_555 1_555
H32 C44 1_555 1_555
N3 C23 1_555 1_555
N4 C24 1_555 1_555
O3 C23 1_555 1_555
O4 C25 1_555 1_555
S2 C24 1_555 1_555
Sn2 C27 1_555 1_555
O1A Sn1 1_555 1_555
Sn1A O1 1_555 1_555
O3A Sn2 1_555 1_555
Sn2A O3 1_555 1_555
C3 N2 1_555 1_555
C9 C10 1_555 1_555
C11 Sn1 1_555 1_555
C15 C16 1_555 1_555
C17 Sn1 1_555 1_555
C21 C22 1_555 1_555
O2 Sn1 1_555 1_555
C25 N4 1_555 1_555
C31 C32 1_555 1_555
C33 Sn2 1_555 1_555
C37 C38 1_555 1_555
C39 Sn2 1_555 1_555
C43 C44 1_555 1_555
O4 Sn2 1_555 1_555

#END
