
#######################################################################
#
#                 Cambridge Crystallographic Data Centre
#                                CCDC 
#
#######################################################################
#
# If this CIF has been generated from an entry in the Cambridge 
# Structural Database, then it will include bibliographic, chemical, 
# crystal, experimental, refinement or atomic coordinate data resulting 
# from the CCDC's data processing and validation procedures.
#
#######################################################################

data_EBAROO
_symmetry_cell_setting           triclinic
_symmetry_space_group_name_H-M   'P -1'
_symmetry_Int_Tables_number      2
_space_group_name_Hall           '-P 1'
loop_
_symmetry_equiv_pos_site_id
_symmetry_equiv_pos_as_xyz
1 x,y,z
2 -x,-y,-z
_cell_length_a                   8.1496(5)
_cell_length_b                   9.7211(6)
_cell_length_c                   11.9472(7)
_cell_angle_alpha                106.811(1)
_cell_angle_beta                 98.943(1)
_cell_angle_gamma                110.429(1)
_cell_volume                     813.638
loop_
_atom_site_label
_atom_site_type_symbol
_atom_site_fract_x
_atom_site_fract_y
_atom_site_fract_z
Cu1 Cu 0.4733(1) 0.1557(1) 0.2039(1)
V1 V 0.9911(1) 0.4815(1) -0.0450(1)
V2 V 0.7939(1) 0.0427(1) 0.1267(1)
P1 P 0.6440(1) 0.1791(1) -0.0163(1)
P2 P 0.8518(1) 0.7476(1) -0.0534(1)
O1 O 0.6661(2) 0.1960(2) 0.1210(2)
O2 O 0.5502(2) -0.1435(2) 0.0826(2)
O3 O 0.7781(3) 0.3267(2) -0.0243(2)
O4 O 0.3091(2) -0.0349(2) 0.0652(2)
O5 O 0.8399(3) 0.0849(2) 0.2715(2)
O6 O 0.9654(5) 0.4270(5) -0.1876(3)
O7 O 0.8532(3) 0.6118(2) -0.0139(2)
O8 O 1.0223(3) 0.2140(2) 0.1310(2)
O9 O 0.3504(3) 0.3159(3) 0.1412(2)
O10 O 0.8866(3) -0.1110(2) 0.0577(2)
N1 N 0.6313(3) 0.3371(3) 0.3586(2)
N2 N 0.3401(3) 0.0857(3) 0.3179(2)
C1 C 0.7715(4) 0.4679(3) 0.3680(3)
C2 C 0.8675(4) 0.5923(4) 0.4789(3)
C3 C 0.8167(5) 0.5824(4) 0.5828(3)
C4 C 0.6740(4) 0.4461(4) 0.5737(3)
C5 C 0.5830(4) 0.3251(3) 0.4603(3)
C6 C 0.4244(4) 0.1778(3) 0.4377(3)
C7 C 0.3601(5) 0.1337(4) 0.5281(3)
C8 C 0.2054(5) -0.0049(4) 0.4955(3)
C9 C 0.1170(5) -0.0955(4) 0.3723(3)
C10 C 0.1904(4) -0.0469(3) 0.2860(3)
H1 H 0.4080(50) 0.3780(40) 0.1340(30)
H2 H 0.8053 0.4753 0.2984
H3 H 0.9651 0.6816 0.4836
H4 H 0.8775 0.6660 0.6576
H5 H 0.6396 0.4360 0.6426
H6 H 0.4202 0.1964 0.6099
H7 H 0.1610 -0.0371 0.5551
H8 H 0.0105 -0.1872 0.3483
H9 H 0.1335 -0.1086 0.2037
V1A V 1.0089(1) 0.5185(1) 0.0450(1)
O3A O 1.2219(3) 0.6733(2) 0.0243(2)
O7A O 1.1468(3) 0.3882(2) 0.0139(2)
O4A O 0.6909(2) 0.0349(2) -0.0652(2)
O2A O 0.4498(2) 0.1435(2) -0.0826(2)
O8A O 0.9777(3) 0.7860(2) -0.1310(2)
O9A O 0.6496(3) 0.6841(3) -0.1412(2)
O10_2 O 0.8866(3) 0.8890(2) 0.0577(2)
P1A P 0.3560(1) -0.1791(1) 0.0163(1)
V2A V 0.2061(1) -0.0427(1) -0.1267(1)
P2A P 1.1482(1) 0.2524(1) 0.0534(1)
P2A_2 P 0.1482(1) 0.2524(1) 0.0534(1)
P2_2 P 0.8518(1) -0.2524(1) -0.0534(1)
O11 O 0.3981(3) 0.4117(3) 0.8535(2)
H10 H 0.4270(60) 0.3430(50) 0.8630(40)
H11 H 0.3250(60) 0.4150(50) 0.8890(40)
loop_
_geom_bond_atom_site_label_1
_geom_bond_atom_site_label_2
_geom_bond_site_symmetry_1
_geom_bond_site_symmetry_2
Cu1 O1 1_555 1_555
V1 O3 1_555 1_555
V2 O1 1_555 1_555
P1 O1 1_555 1_555
P2 O7 1_555 1_555
O2 V2 1_555 1_555
O3 P1 1_555 1_555
O4 Cu1 1_555 1_555
O5 V2 1_555 1_555
O6 V1 1_555 1_555
O7 V1 1_555 1_555
O8 V2 1_555 1_555
O9 Cu1 1_555 1_555
O10 V2 1_555 1_555
O11 H10 1_555 1_555
N1 Cu1 1_555 1_555
N2 Cu1 1_555 1_555
C1 N1 1_555 1_555
C2 C1 1_555 1_555
C3 C2 1_555 1_555
C4 C3 1_555 1_555
C5 N1 1_555 1_555
C6 N2 1_555 1_555
C7 C6 1_555 1_555
C8 C7 1_555 1_555
C9 C8 1_555 1_555
C10 N2 1_555 1_555
H1 O9 1_555 1_555
H2 C1 1_555 1_555
H3 C2 1_555 1_555
H4 C3 1_555 1_555
H5 C4 1_555 1_555
H6 C7 1_555 1_555
H7 C8 1_555 1_555
H8 C9 1_555 1_555
H9 C10 1_555 1_555
H11 O11 1_555 1_555
V1A V1 1_555 1_555
O3A V1 1_555 1_555
O7A V1 1_555 1_555
O4A V2 1_555 1_555
O2A P1 1_555 1_555
O8A P2 1_555 1_555
O9A P2 1_555 1_555
O10_2 P2 1_555 1_555
P1A O2 1_555 1_555
V2A O4 1_555 1_555
P2A O8 1_555 1_555
P2A_2 O9 1_555 1_555
P2_2 O10 1_555 1_555
P1 O4A 1_555 1_555
O3 V1A 1_555 1_555
O4 P1A 1_555 1_555
O7 V1A 1_555 1_555
C4 C5 1_555 1_555
C5 C6 1_555 1_555
C9 C10 1_555 1_555
V1A O3A 1_555 1_555
V1A O7A 1_555 1_555
O7A P2A 1_555 1_555
O2A V2A 1_555 1_555

#END
