
#######################################################################
#
#                 Cambridge Crystallographic Data Centre
#                                CCDC 
#
#######################################################################
#
# If this CIF has been generated from an entry in the Cambridge 
# Structural Database, then it will include bibliographic, chemical, 
# crystal, experimental, refinement or atomic coordinate data resulting 
# from the CCDC's data processing and validation procedures.
#
#######################################################################

data_EBARII
_symmetry_cell_setting           triclinic
_symmetry_space_group_name_H-M   'P -1'
_symmetry_Int_Tables_number      2
_space_group_name_Hall           '-P 1'
loop_
_symmetry_equiv_pos_site_id
_symmetry_equiv_pos_as_xyz
1 x,y,z
2 -x,-y,-z
_cell_length_a                   8.9915(5)
_cell_length_b                   11.3011(6)
_cell_length_c                   19.4556(11)
_cell_angle_alpha                106.762(1)
_cell_angle_beta                 91.208(1)
_cell_angle_gamma                103.984(1)
_cell_volume                     1828.07
loop_
_atom_site_label
_atom_site_type_symbol
_atom_site_fract_x
_atom_site_fract_y
_atom_site_fract_z
Cu1 Cu 0.9357(1) 0.3097(1) 0.0848(1)
Cu2 Cu 0.3973(1) 0.0700(1) 0.4404(1)
V1 V 0.4796(1) 0.5270(1) 0.1943(1)
V2 V 0.9108(1) 0.2557(1) 0.3104(1)
V3 V 1.2277(1) 0.1221(1) 0.2955(1)
P1 P 0.7031(2) 0.3672(1) 0.2136(1)
P2 P 1.1780(1) 0.3393(1) 0.2258(1)
P3 P 0.5556(1) 0.0562(1) 0.2963(1)
O1 O 1.0922(4) 0.2721(3) 0.1521(2)
O2 O 0.8031(4) 0.3767(3) 0.1535(2)
O3 O 0.5605(5) 0.2498(4) 0.1812(2)
O4 O 0.6400(4) 0.4896(3) 0.2388(2)
O5 O 0.4732(4) 0.4639(3) 0.1082(2)
O6 O 0.5210(4) 0.6828(3) 0.2146(2)
O7 O 1.2961(4) 0.4680(3) 0.2284(2)
O8 O 1.0693(4) 0.3791(3) 0.2839(2)
O9 O 1.2719(4) 0.2561(3) 0.2480(2)
O10 O 0.7780(4) 0.3542(3) 0.2805(2)
O11 O 0.9356(4) 0.3139(3) 0.3960(2)
O12 O 0.7223(4) 0.1192(3) 0.2907(2)
O13 O 1.0177(4) 0.1473(3) 0.2870(2)
O14 O 1.1698(4) -0.0315(3) 0.2592(2)
O15 O 0.4510(4) 0.1361(3) 0.2805(2)
O16 O 0.5078(6) -0.0718(4) 0.2321(2)
O17 O 0.5336(4) 0.0295(3) 0.3675(2)
O18 O 1.2491(4) 0.1534(3) 0.3838(2)
N1 N 1.0719(5) 0.4835(4) 0.0888(2)
N2 N 1.0305(5) 0.2669(4) -0.0047(2)
N3 N 0.8124(5) 0.1251(4) 0.0391(2)
N4 N 0.5144(5) 0.2509(4) 0.4979(2)
N5 N 0.2918(4) 0.0909(4) 0.5267(2)
N6 N 0.2580(5) -0.1082(4) 0.4191(2)
C1 C 1.0830(6) 0.5921(5) 0.1414(3)
C2 C 1.1913(6) 0.7055(5) 0.1447(3)
C3 C 1.2871(6) 0.7049(5) 0.0909(3)
C4 C 1.2777(6) 0.5938(5) 0.0357(3)
C5 C 1.1682(6) 0.4834(5) 0.0361(3)
C6 C 1.1451(6) 0.3558(5) -0.0187(3)
C7 C 1.2226(7) 0.3269(6) -0.0783(3)
C8 C 1.1791(7) 0.2026(6) -0.1255(3)
C9 C 1.0564(7) 0.1125(6) -0.1122(3)
C10 C 0.9841(6) 0.1463(5) -0.0505(3)
C11 C 0.8557(6) 0.0662(5) -0.0257(3)
C12 C 0.7848(7) -0.0591(5) -0.0640(3)
C13 C 0.6688(7) -0.1277(5) -0.0351(3)
C14 C 0.6279(7) -0.0709(5) 0.0307(4)
C15 C 0.7013(6) 0.0569(5) 0.0671(3)
C16 C 0.6309(6) 0.3277(5) 0.4769(3)
C17 C 0.6922(6) 0.4557(5) 0.5172(3)
C18 C 0.6266(6) 0.5054(5) 0.5788(3)
C19 C 0.5055(6) 0.4276(5) 0.6003(3)
C20 C 0.4522(6) 0.3004(5) 0.5599(3)
C21 C 0.3269(6) 0.2056(5) 0.5786(3)
C22 C 0.2505(6) 0.2225(5) 0.6401(3)
C23 C 0.1383(6) 0.1200(5) 0.6476(3)
C24 C 0.1028(5) 0.0026(5) 0.5944(3)
C25 C 0.1816(6) -0.0090(5) 0.5335(3)
C26 C 0.1608(6) -0.1248(5) 0.4699(3)
C27 C 0.0526(6) -0.2387(5) 0.4628(3)
C28 C 0.0456(6) -0.3402(5) 0.4004(3)
C29 C 0.1453(6) -0.3256(5) 0.3477(3)
C30 C 0.2486(6) -0.2070(5) 0.3584(3)
H1 H 1.0161 0.5923 0.1772
H2 H 1.1983 0.7797 0.1824
H3 H 1.3591 0.7799 0.0916
H4 H 1.3428 0.5927 -0.0008
H5 H 1.3025 0.3886 -0.0873
H6 H 1.2320 0.1799 -0.1658
H7 H 1.0237 0.0305 -0.1445
H8 H 0.8149 -0.0967 -0.1088
H9 H 0.6188 -0.2120 -0.0603
H10 H 0.5515 -0.1169 0.0514
H11 H 0.6720 0.0954 0.1119
H12 H 0.6720 0.2948 0.4342
H13 H 0.7757 0.5064 0.5027
H14 H 0.6638 0.5910 0.6057
H15 H 0.4600 0.4604 0.6416
H16 H 0.2740 0.3012 0.6758
H17 H 0.0861 0.1301 0.6889
H18 H 0.0280 -0.0665 0.5995
H19 H -0.0132 -0.2474 0.4983
H20 H -0.0260 -0.4181 0.3940
H21 H 0.1427 -0.3934 0.3066
H22 H 0.3132 -0.1951 0.3230
H23 H 0.5220(80) -0.1140(60) 0.2350(40)
H24 H 0.5370(70) 0.2350(60) 0.2040(30)
O18_2 O 0.2491(4) 0.1534(3) 0.3838(2)
O7_2 O 0.2961(4) 0.4680(3) 0.2284(2)
O15_2 O 1.4510(4) 0.1361(3) 0.2805(2)
V1_2 V 1.4796(1) 0.5270(1) 0.1943(1)
V3_2 V 0.2277(1) 0.1221(1) 0.2955(1)
Cu2_2 Cu 1.3973(1) 0.0700(1) 0.4404(1)
loop_
_geom_bond_atom_site_label_1
_geom_bond_atom_site_label_2
_geom_bond_site_symmetry_1
_geom_bond_site_symmetry_2
Cu1 O1 1_555 1_555
Cu2 O17 1_555 1_555
V1 O4 1_555 1_555
V2 O8 1_555 1_555
V3 O9 1_555 1_555
P1 O2 1_555 1_555
P2 O1 1_555 1_555
P3 O12 1_555 1_555
O2 Cu1 1_555 1_555
O3 P1 1_555 1_555
O4 P1 1_555 1_555
O5 V1 1_555 1_555
O6 V1 1_555 1_555
O7 P2 1_555 1_555
O8 P2 1_555 1_555
O9 P2 1_555 1_555
O10 V2 1_555 1_555
O11 V2 1_555 1_555
O12 V2 1_555 1_555
O13 V2 1_555 1_555
O14 V3 1_555 1_555
O15 P3 1_555 1_555
O16 P3 1_555 1_555
O17 P3 1_555 1_555
O18 V3 1_555 1_555
N1 Cu1 1_555 1_555
N2 Cu1 1_555 1_555
N3 Cu1 1_555 1_555
N4 Cu2 1_555 1_555
N5 Cu2 1_555 1_555
N6 Cu2 1_555 1_555
C1 N1 1_555 1_555
C2 C1 1_555 1_555
C3 C2 1_555 1_555
C4 C3 1_555 1_555
C5 N1 1_555 1_555
C6 N2 1_555 1_555
C7 C6 1_555 1_555
C8 C7 1_555 1_555
C9 C8 1_555 1_555
C10 N2 1_555 1_555
C11 N3 1_555 1_555
C12 C11 1_555 1_555
C13 C12 1_555 1_555
C14 C13 1_555 1_555
C15 N3 1_555 1_555
C16 N4 1_555 1_555
C17 C16 1_555 1_555
C18 C17 1_555 1_555
C19 C18 1_555 1_555
C20 N4 1_555 1_555
C21 N5 1_555 1_555
C22 C21 1_555 1_555
C23 C22 1_555 1_555
C24 C23 1_555 1_555
C25 N5 1_555 1_555
C26 N6 1_555 1_555
C27 C26 1_555 1_555
C28 C27 1_555 1_555
C29 C28 1_555 1_555
C30 N6 1_555 1_555
H1 C1 1_555 1_555
H2 C2 1_555 1_555
H3 C3 1_555 1_555
H4 C4 1_555 1_555
H5 C7 1_555 1_555
H6 C8 1_555 1_555
H7 C9 1_555 1_555
H8 C12 1_555 1_555
H9 C13 1_555 1_555
H10 C14 1_555 1_555
H11 C15 1_555 1_555
H12 C16 1_555 1_555
H13 C17 1_555 1_555
H14 C18 1_555 1_555
H15 C19 1_555 1_555
H16 C22 1_555 1_555
H17 C23 1_555 1_555
H18 C24 1_555 1_555
H19 C27 1_555 1_555
H20 C28 1_555 1_555
H21 C29 1_555 1_555
H22 C30 1_555 1_555
H23 O16 1_555 1_555
H24 O3 1_555 1_555
O18_2 Cu2 1_555 1_555
O7_2 V1 1_555 1_555
O15_2 V3 1_555 1_555
V1_2 O7 1_555 1_555
V3_2 O15 1_555 1_555
Cu2_2 O18 1_555 1_555
V3 O13 1_555 1_555
P1 O10 1_555 1_555
C4 C5 1_555 1_555
C5 C6 1_555 1_555
C9 C10 1_555 1_555
C10 C11 1_555 1_555
C14 C15 1_555 1_555
C19 C20 1_555 1_555
C20 C21 1_555 1_555
C24 C25 1_555 1_555
C25 C26 1_555 1_555
C29 C30 1_555 1_555
O18_2 V3_2 1_555 1_555

#END
