
#######################################################################
#
#                 Cambridge Crystallographic Data Centre
#                                CCDC 
#
#######################################################################
#
# If this CIF has been generated from an entry in the Cambridge 
# Structural Database, then it will include bibliographic, chemical, 
# crystal, experimental, refinement or atomic coordinate data resulting 
# from the CCDC's data processing and validation procedures.
#
#######################################################################

data_EBARAB
_symmetry_cell_setting           monoclinic
_symmetry_space_group_name_H-M   'P 21/c'
_symmetry_Int_Tables_number      14
_space_group_name_Hall           '-P 2ybc'
loop_
_symmetry_equiv_pos_site_id
_symmetry_equiv_pos_as_xyz
1 x,y,z
2 x,1/2-y,1/2+z
3 -x,-y,-z
4 -x,1/2+y,1/2-z
_cell_length_a                   18.2790(4)
_cell_length_b                   10.2850(4)
_cell_length_c                   12.5310(8)
_cell_angle_alpha                90
_cell_angle_beta                 103.9380(14)
_cell_angle_gamma                90
_cell_volume                     2286.46
loop_
_atom_site_label
_atom_site_type_symbol
_atom_site_fract_x
_atom_site_fract_y
_atom_site_fract_z
N3 N -0.9200(9) -0.5096(14) -0.9358(12)
C25 C -0.9626(14) -0.401(2) -0.9703(18)
C26 C -0.9651(12) -0.608(2) -0.9716(16)
C26B C -1.0349(12) -0.392(2) -1.0284(16)
N3B N -1.0800(9) -0.4904(14) -1.0642(12)
C25B C -1.0374(14) -0.599(2) -1.0297(18)
Pd1 Pd 0.0000 0.0000 0.0000
Zn1 Zn 0.46035(4) -0.24034(6) 0.79784(5)
C1 C -0.1522(3) 0.0460(5) -0.1585(4)
C2 C -0.2303(3) 0.0170(5) -0.1753(4)
H1 H 0.2695 -0.0447 0.2354
C3 C -0.2383(3) -0.0566(5) -0.0905(4)
H2 H 0.2844 0.0896 0.0790
C4 C -0.1643(3) -0.0765(5) -0.0201(4)
C5 C -0.1486(3) -0.1476(6) 0.0766(5)
C6 C -0.0475(4) 0.1606(6) -0.2101(5)
C7 C -0.0168(4) 0.2480(8) -0.2784(6)
H3 H -0.0444 0.2939 -0.3410
C8 C 0.0586(4) 0.2521(8) -0.2368(6)
H4 H 0.0937 0.3017 -0.2648
C9 C 0.0761(3) 0.1681(6) -0.1425(5)
C10 C -0.1222(3) 0.1271(5) -0.2264(5)
N1 N 0.1118(3) 0.0119(4) 0.0633(4)
N2 N -0.0109(3) -0.1157(5) 0.1257(4)
C11 C -0.2153(3) -0.1985(6) 0.1162(5)
C12 C -0.2310(3) -0.1456(6) 0.2103(5)
H5 H 0.1952 0.0901 -0.2560
C13 C -0.2978(3) -0.1728(6) 0.2381(5)
H6 H 0.3083 0.1346 -0.3018
C14 C -0.3506(3) -0.2572(5) 0.1723(4)
C15 C 0.3328(3) 0.3148(5) -0.0824(4)
H7 H 0.3669 0.3748 -0.0391
C16 C 0.2656(3) 0.2864(6) -0.0545(5)
H8 H 0.2540 0.3275 0.0073
C17 C -0.4245(3) -0.2819(5) 0.1989(4)
C18 C 0.1786(3) -0.1824(6) 0.3243(5)
C19 C 0.2173(4) -0.2942(6) 0.3148(5)
C20 C 0.2753(3) -0.3388(6) 0.4017(4)
C21 C 0.2944(3) -0.2665(5) 0.4992(4)
C22 C 0.2542(4) -0.1555(6) 0.5107(5)
C23 C 0.1952(4) -0.1127(6) 0.4236(5)
C24 C 0.3612(3) -0.3082(5) 0.5894(4)
O1 O -0.4400(2) -0.2117(4) 0.2764(3)
O2 O 0.4689(2) 0.3648(3) -0.1480(3)
O3 O 0.3695(2) -0.2442(4) 0.6799(3)
O4 O 0.4037(2) -0.3957(4) 0.5723(3)
O5 O 0.4590(3) -0.0578(4) 0.8588(4)
H9 H 0.5112 -0.0127 0.8620
H10 H 0.4360 -0.0516 0.9205
O6 O 0.4402(3) -0.3679(4) 0.9118(4)
H11 H 0.4615 -0.3609 0.9951
H12 H 0.4400 -0.4625 0.9003
Zn1A Zn -0.53965(4) -0.25966(6) 0.29784(5)
C5B C 0.1486(3) 0.1476(6) -0.0766(5)
C4B C 0.1643(3) 0.0765(5) 0.0201(4)
C3B C 0.2383(3) 0.0566(5) 0.0905(4)
C2B C 0.2303(3) -0.0170(5) 0.1753(4)
C1B C 0.1522(3) -0.0460(5) 0.1585(4)
C10B C 0.1222(3) -0.1271(5) 0.2264(5)
C6B C 0.0475(4) -0.1606(6) 0.2101(5)
C7B C 0.0168(4) -0.2480(8) 0.2784(6)
H3B H 0.0444 -0.2939 0.3410
C8B C -0.0586(4) -0.2521(8) 0.2368(6)
H4B H -0.0937 -0.3017 0.2648
C9B C -0.0761(3) -0.1681(6) 0.1425(5)
N1B N -0.1118(3) -0.0119(4) -0.0633(4)
N2B N 0.0109(3) 0.1157(5) -0.1257(4)
O1A O 0.5600(2) -0.2883(4) 0.7764(3)
C11B C 0.2153(3) 0.1985(6) -0.1162(5)
C12B C 0.2310(3) 0.1456(6) -0.2103(5)
C13B C 0.2978(3) 0.1728(6) -0.2381(5)
C14B C 0.3506(3) 0.2572(5) -0.1723(4)
C17B C 0.4245(3) 0.2819(5) -0.1989(4)
O1B O 0.4400(2) 0.2117(4) -0.2764(3)
Zn1C Zn 0.53965(4) 0.25966(6) -0.29784(5)
C18B C -0.1786(3) 0.1824(6) -0.3243(5)
C19B C -0.2173(4) 0.2942(6) -0.3148(5)
C20B C -0.2753(3) 0.3388(6) -0.4017(4)
C21B C -0.2944(3) 0.2665(5) -0.4992(4)
C22B C -0.2542(4) 0.1555(6) -0.5107(5)
C23B C -0.1952(4) 0.1127(6) -0.4236(5)
C24B C -0.3612(3) 0.3082(5) -0.5894(4)
O3B O -0.3695(2) 0.2442(4) -0.6799(3)
Zn1B Zn -0.46035(4) 0.24034(6) -0.79784(5)
O1C O -0.5600(2) 0.2883(4) -0.7764(3)
O5B O -0.4590(3) 0.0578(4) -0.8588(4)
H9B H -0.5112 0.0127 -0.8620
H10B H -0.4360 0.0516 -0.9205
O6B O -0.4402(3) 0.3679(4) -0.9118(4)
H11B H -0.4615 0.3609 -0.9951
H12B H -0.4400 0.4625 -0.9003
O4B O -0.4037(2) 0.3957(4) -0.5723(3)
H1B H -0.2695 0.0447 -0.2354
H2B H -0.2844 -0.0896 -0.0790
C16B C -0.2656(3) -0.2864(6) 0.0545(5)
C15B C -0.3328(3) -0.3148(5) 0.0824(4)
H7B H -0.3669 -0.3748 0.0391
H8B H -0.2540 -0.3275 -0.0073
H5B H -0.1952 -0.0901 0.2560
H6B H -0.3083 -0.1346 0.3018
O2B O -0.4689(2) -0.3648(3) 0.1480(3)
loop_
_geom_bond_atom_site_label_1
_geom_bond_atom_site_label_2
_geom_bond_site_symmetry_1
_geom_bond_site_symmetry_2
Pd1 N1 1_555 1_555
Zn1 O3 1_555 1_555
C1 C2 1_555 1_555
C2 C3 1_555 1_555
H1 C2B 1_555 1_555
C3 C4 1_555 1_555
H2 C3B 1_555 1_555
C4 C5 1_555 1_555
C5 C11 1_555 1_555
C6 C7 1_555 1_555
C7 H3 1_555 1_555
C8 C7 1_555 1_555
H4 C8 1_555 1_555
C9 C8 1_555 1_555
C10 C1 1_555 1_555
N1 C4B 1_555 1_555
N2 Pd1 1_555 1_555
C11 C12 1_555 1_555
C12 C13 1_555 1_555
H5 C12B 1_555 1_555
C13 C14 1_555 1_555
H6 C13B 1_555 1_555
C14 C17 1_555 1_555
C15 H7 1_555 1_555
C16 C15 1_555 1_555
H8 C16 1_555 1_555
C17 O1 1_555 1_555
C18 C19 1_555 1_555
C19 C20 1_555 1_555
C20 C21 1_555 1_555
C21 C22 1_555 1_555
C22 C23 1_555 1_555
C23 C18 1_555 1_555
C24 C21 1_555 1_555
O1 Zn1A 1_555 1_555
O2 C17B 1_555 1_555
O3 C24 1_555 1_555
O4 C24 1_555 1_555
O5 Zn1 1_555 1_555
H9 O5 1_555 1_555
H10 O5 1_555 1_555
O6 Zn1 1_555 1_555
H11 O6 1_555 1_555
H12 O6 1_555 1_555
N3 C25 1_555 1_555
C25 C26B 1_555 1_555
C26 N3 1_555 1_555
C5B C9 1_555 1_555
C4B C5B 1_555 1_555
C3B C4B 1_555 1_555
C2B C3B 1_555 1_555
C1B N1 1_555 1_555
C10B C18 1_555 1_555
C6B N2 1_555 1_555
C7B C6B 1_555 1_555
H3B C7B 1_555 1_555
C8B C7B 1_555 1_555
H4B C8B 1_555 1_555
C9B C5 1_555 1_555
N1B Pd1 1_555 1_555
N2B Pd1 1_555 1_555
O1A Zn1 1_555 1_555
C11B C16 1_555 1_555
C12B C11B 1_555 1_555
C13B C12B 1_555 1_555
C14B C15 1_555 1_555
C17B C14B 1_555 1_555
O1B C17B 1_555 1_555
Zn1C O1B 1_555 1_555
C18B C10 1_555 1_555
C19B C18B 1_555 1_555
C20B C19B 1_555 1_555
C21B C20B 1_555 1_555
C22B C21B 1_555 1_555
C23B C18B 1_555 1_555
C24B C21B 1_555 1_555
O3B C24B 1_555 1_555
Zn1B O3B 1_555 1_555
O1C Zn1B 1_555 1_555
O5B Zn1B 1_555 1_555
H9B O5B 1_555 1_555
H10B O5B 1_555 1_555
O6B Zn1B 1_555 1_555
H11B O6B 1_555 1_555
H12B O6B 1_555 1_555
O4B C24B 1_555 1_555
H1B C2 1_555 1_555
H2B C3 1_555 1_555
C16B C11 1_555 1_555
C15B C14 1_555 1_555
H7B C15B 1_555 1_555
H8B C16B 1_555 1_555
H5B C12 1_555 1_555
H6B C13 1_555 1_555
O2B C17 1_555 1_555
C26B N3B 1_555 1_555
N3B C25B 1_555 1_555
C25B C26 1_555 1_555
C1 N1B 1_555 1_555
C4 N1B 1_555 1_555
C6 C10 1_555 1_555
C6 N2B 1_555 1_555
C9 N2B 1_555 1_555
N2 C9B 1_555 1_555
C5B C11B 1_555 1_555
C2B C1B 1_555 1_555
C1B C10B 1_555 1_555
C10B C6B 1_555 1_555
C8B C9B 1_555 1_555
C13B C14B 1_555 1_555
C22B C23B 1_555 1_555
C16B C15B 1_555 1_555

#END
