
#######################################################################
#
#                 Cambridge Crystallographic Data Centre
#                                CCDC 
#
#######################################################################
#
# If this CIF has been generated from an entry in the Cambridge 
# Structural Database, then it will include bibliographic, chemical, 
# crystal, experimental, refinement or atomic coordinate data resulting 
# from the CCDC's data processing and validation procedures.
#
#######################################################################

data_EBASOR
_symmetry_cell_setting           triclinic
_symmetry_space_group_name_H-M   'P -1'
_symmetry_Int_Tables_number      2
_space_group_name_Hall           '-P 1'
loop_
_symmetry_equiv_pos_site_id
_symmetry_equiv_pos_as_xyz
1 x,y,z
2 -x,-y,-z
_cell_length_a                   7.5754(10)
_cell_length_b                   8.9090(10)
_cell_length_c                   10.2735(12)
_cell_angle_alpha                108.650(14)
_cell_angle_beta                 103.914(14)
_cell_angle_gamma                96.487(15)
_cell_volume                     623.928
loop_
_atom_site_label
_atom_site_type_symbol
_atom_site_fract_x
_atom_site_fract_y
_atom_site_fract_z
Co1 Co 0.5000 0.5000 0.5000
N1 N 0.6969(6) 0.6872(5) 0.6858(4)
C1 C 0.7188(7) 0.6793(7) 0.8166(5)
H1 H 0.6504 0.5881 0.8246
C2 C 0.8376(7) 0.7989(6) 0.9418(5)
H2 H 0.8496 0.7876 1.0322
C3 C 0.9381(6) 0.9343(6) 0.9340(5)
C4 C 0.9155(7) 0.9399(7) 0.7971(5)
H3 H 0.9835 1.0289 0.7858
C5 C 0.7949(8) 0.8173(7) 0.6776(5)
H4 H 0.7810 0.8255 0.5858
N3 N 0.6857(6) 0.5196(6) 0.3806(4)
C11 C 0.7880(7) 0.5598(7) 0.3243(5)
Se1 Se 0.94278(8) 0.61929(10) 0.23382(7)
O1 O 0.6217(5) 0.3222(5) 0.5563(4)
H9 H 0.7341 0.3500 0.6052
H10 H 0.5941 0.2586 0.5970
Co1_2 Co 1.5000 1.5000 1.5000
N1A N 1.3031(6) 1.3128(5) 1.3142(4)
N1A_2 N 0.3031(6) 0.3128(5) 0.3142(4)
C1A C 1.2812(7) 1.3207(7) 1.1834(5)
H1A H 1.3496 1.4119 1.1754
C2A C 1.1624(7) 1.2011(6) 1.0582(5)
H2A H 1.1504 1.2124 0.9678
C3A C 1.0619(6) 1.0657(6) 1.0660(5)
C4A C 1.0845(7) 1.0601(7) 1.2029(5)
H3A H 1.0165 0.9711 1.2142
C5A C 1.2051(8) 1.1827(7) 1.3224(5)
H4A H 1.2190 1.1745 1.4142
N3A N 0.3143(6) 0.4804(6) 0.6194(4)
C11A C 0.2120(7) 0.4402(7) 0.6757(5)
Se1A Se 0.05722(8) 0.38071(10) 0.76618(7)
O1A O 0.3783(5) 0.6778(5) 0.4437(4)
H9A H 0.2659 0.6500 0.3948
H10A H 0.4059 0.7414 0.4030
N2 N 0.4597(7) 0.8106(7) 0.2536(6)
C6 C 0.5663(9) 0.9571(8) 0.2928(7)
H5 H 0.6337 1.0105 0.3914
C7 C 0.5850(9) 1.0358(8) 0.1997(6)
H6 H 0.6600 1.1415 0.2349
C8 C 0.4927(8) 0.9591(7) 0.0533(6)
C9 C 0.3808(9) 0.8090(8) 0.0131(7)
H7 H 0.3113 0.7533 -0.0848
C10 C 0.3684(9) 0.7388(8) 0.1126(7)
H8 H 0.2915 0.6343 0.0802
N2A N 0.5403(7) 1.1894(7) -0.2536(6)
C6A C 0.4337(9) 1.0429(8) -0.2928(7)
H5A H 0.3663 0.9895 -0.3914
C7A C 0.4150(9) 0.9642(8) -0.1997(6)
H6A H 0.3400 0.8585 -0.2349
C8A C 0.5073(8) 1.0409(7) -0.0533(6)
C9A C 0.6192(9) 1.1910(8) -0.0131(7)
H7A H 0.6887 1.2467 0.0848
C10A C 0.6316(9) 1.2612(8) -0.1126(7)
H8A H 0.7085 1.3657 -0.0802
loop_
_geom_bond_atom_site_label_1
_geom_bond_atom_site_label_2
_geom_bond_site_symmetry_1
_geom_bond_site_symmetry_2
Co1 N1 1_555 1_555
N1 C1 1_555 1_555
C1 H1 1_555 1_555
C2 C1 1_555 1_555
H2 C2 1_555 1_555
C3 C2 1_555 1_555
C4 C3 1_555 1_555
H3 C4 1_555 1_555
C5 N1 1_555 1_555
H4 C5 1_555 1_555
N2 C6 1_555 1_555
C6 H5 1_555 1_555
C7 C6 1_555 1_555
H6 C7 1_555 1_555
C8 C7 1_555 1_555
C9 C8 1_555 1_555
H7 C9 1_555 1_555
C10 N2 1_555 1_555
H8 C10 1_555 1_555
N3 Co1 1_555 1_555
C11 N3 1_555 1_555
Se1 C11 1_555 1_555
O1 Co1 1_555 1_555
H9 O1 1_555 1_555
H10 O1 1_555 1_555
Co1_2 N1A 1_555 1_555
N1A C1A 1_555 1_555
N1A_2 Co1 1_555 1_555
C1A H1A 1_555 1_555
C2A C1A 1_555 1_555
H2A C2A 1_555 1_555
C3A C3 1_555 1_555
C4A C3A 1_555 1_555
H3A C4A 1_555 1_555
C5A N1A 1_555 1_555
H4A C5A 1_555 1_555
N2A C6A 1_555 1_555
C6A H5A 1_555 1_555
C7A C6A 1_555 1_555
H6A C7A 1_555 1_555
C8A C8 1_555 1_555
C9A C8A 1_555 1_555
H7A C9A 1_555 1_555
C10A N2A 1_555 1_555
H8A C10A 1_555 1_555
N3A Co1 1_555 1_555
C11A N3A 1_555 1_555
Se1A C11A 1_555 1_555
O1A Co1 1_555 1_555
H9A O1A 1_555 1_555
H10A O1A 1_555 1_555
C4 C5 1_555 1_555
C9 C10 1_555 1_555
C2A C3A 1_555 1_555
C4A C5A 1_555 1_555
C7A C8A 1_555 1_555
C9A C10A 1_555 1_555

#END
