
#######################################################################
#
#                 Cambridge Crystallographic Data Centre
#                                CCDC 
#
#######################################################################
#
# If this CIF has been generated from an entry in the Cambridge 
# Structural Database, then it will include bibliographic, chemical, 
# crystal, experimental, refinement or atomic coordinate data resulting 
# from the CCDC's data processing and validation procedures.
#
#######################################################################

data_EBASUX01
_symmetry_cell_setting           monoclinic
_symmetry_space_group_name_H-M   'C 2/c'
_symmetry_Int_Tables_number      15
_space_group_name_Hall           '-C 2yn'
loop_
_symmetry_equiv_pos_site_id
_symmetry_equiv_pos_as_xyz
1 x,y,z
2 -x,y,1/2-z
3 1/2+x,1/2+y,z
4 1/2-x,1/2+y,1/2-z
5 -x,-y,-z
6 x,-y,1/2+z
7 1/2-x,1/2-y,-z
8 1/2+x,1/2-y,1/2+z
_cell_length_a                   18.0959(15)
_cell_length_b                   11.6677(7)
_cell_length_c                   14.4925(12)
_cell_angle_alpha                90
_cell_angle_beta                 122.802(8)
_cell_angle_gamma                90
_cell_volume                     2572
loop_
_atom_site_label
_atom_site_type_symbol
_atom_site_fract_x
_atom_site_fract_y
_atom_site_fract_z
Mn1 Mn 0.5000 0.10437(6) 0.2500
N1 N 0.5000 0.2992(3) 0.2500
N2 N 0.5000 0.9078(3) 0.2500
C1 C 0.4282(2) 0.3596(3) 0.2246(3)
H1 H 0.3775 0.3198 0.2065
C2 C 0.4257(2) 0.4770(3) 0.2239(3)
H2 H 0.3744 0.5150 0.2059
C3 C 0.5000 0.5390(4) 0.2500
C4 C 0.5000 0.6663(4) 0.2500
C5 C 0.4369(3) 0.7291(3) 0.2546(3)
H3 H 0.3930 0.6915 0.2576
C6 C 0.4394(3) 0.8487(3) 0.2548(4)
H4 H 0.3966 0.8888 0.2583
O1 O 0.62658(18) 0.1025(2) 0.4065(3)
H5 H 0.6337 0.0576 0.4575
H6 H 0.6767 0.0898 0.4166
Se1 Se 0.31013(3) 0.11688(5) 0.41228(5)
N3 N 0.4296(3) 0.1085(3) 0.3346(3)
C7 C 0.3831(3) 0.1102(3) 0.3647(4)
Mn1_2 Mn 0.5000 1.10437(6) 0.2500
N2_2 N 0.5000 -0.0922(3) 0.2500
C1A C 0.5718(2) 0.3596(3) 0.2754(3)
H1A H 0.6225 0.3198 0.2935
C2A C 0.5743(2) 0.4770(3) 0.2761(3)
H2A H 0.6256 0.5150 0.2941
C5A C 0.5631(3) 0.7291(3) 0.2454(3)
H3A H 0.6070 0.6915 0.2424
C6A C 0.5606(3) 0.8487(3) 0.2452(4)
H4A H 0.6034 0.8888 0.2417
O1A O 0.37342(18) 0.1025(2) 0.0935(3)
H5A H 0.3663 0.0576 0.0425
H6A H 0.3233 0.0898 0.0834
Se1A Se 0.68987(3) 0.11688(5) 0.08772(5)
N3A N 0.5704(3) 0.1085(3) 0.1654(3)
C7A C 0.6169(3) 0.1102(3) 0.1353(4)
N4 N 0.2175(2) 0.0631(4) 0.0752(3)
C8 C 0.1596(3) 0.1451(5) 0.0508(4)
H7 H 0.1772 0.2206 0.0537
C9 C 0.0739(3) 0.1250(4) 0.0211(4)
H8 H 0.0355 0.1859 0.0042
C10 C 0.0460(2) 0.0132(4) 0.0169(3)
C11 C 0.1068(3) -0.0729(4) 0.0429(4)
H9 H 0.0915 -0.1492 0.0419
C12 C 0.1908(3) -0.0442(6) 0.0706(5)
H10 H 0.2306 -0.1032 0.0869
N4D N -0.2175(2) -0.0631(4) -0.0752(3)
C8D C -0.1596(3) -0.1451(5) -0.0508(4)
H7D H -0.1772 -0.2206 -0.0537
C9D C -0.0739(3) -0.1250(4) -0.0211(4)
H8D H -0.0355 -0.1859 -0.0042
C10D C -0.0460(2) -0.0132(4) -0.0169(3)
C11D C -0.1068(3) 0.0729(4) -0.0429(4)
H9D H -0.0915 0.1492 -0.0419
C12D C -0.1908(3) 0.0442(6) -0.0706(5)
H10D H -0.2306 0.1032 -0.0869
loop_
_geom_bond_atom_site_label_1
_geom_bond_atom_site_label_2
_geom_bond_site_symmetry_1
_geom_bond_site_symmetry_2
Mn1 N1 1_555 1_555
N1 C1 1_555 1_555
N2 C6 1_555 1_555
C1 H1 1_555 1_555
C2 C1 1_555 1_555
H2 C2 1_555 1_555
C3 C2 1_555 1_555
C4 C3 1_555 1_555
C5 C4 1_555 1_555
H3 C5 1_555 1_555
C6 C5 1_555 1_555
H4 C6 1_555 1_555
O1 Mn1 1_555 1_555
H5 O1 1_555 1_555
H6 O1 1_555 1_555
Se1 C7 1_555 1_555
N3 Mn1 1_555 1_555
C7 N3 1_555 1_555
N4 C8 1_555 1_555
C8 H7 1_555 1_555
C9 C8 1_555 1_555
H8 C9 1_555 1_555
C10 C9 1_555 1_555
C11 C10 1_555 1_555
H9 C11 1_555 1_555
C12 N4 1_555 1_555
H10 C12 1_555 1_555
Mn1_2 N2 1_555 1_555
N2_2 Mn1 1_555 1_555
C1A N1 1_555 1_555
H1A C1A 1_555 1_555
C2A C3 1_555 1_555
H2A C2A 1_555 1_555
C5A C4 1_555 1_555
H3A C5A 1_555 1_555
C6A N2 1_555 1_555
H4A C6A 1_555 1_555
O1A Mn1 1_555 1_555
H5A O1A 1_555 1_555
H6A O1A 1_555 1_555
Se1A C7A 1_555 1_555
N3A Mn1 1_555 1_555
C7A N3A 1_555 1_555
N4D C8D 1_555 1_555
C8D H7D 1_555 1_555
C9D C8D 1_555 1_555
H8D C9D 1_555 1_555
C10D C10 1_555 1_555
C11D C10D 1_555 1_555
H9D C11D 1_555 1_555
C12D N4D 1_555 1_555
H10D C12D 1_555 1_555
C11 C12 1_555 1_555
C1A C2A 1_555 1_555
C5A C6A 1_555 1_555
C9D C10D 1_555 1_555
C11D C12D 1_555 1_555

#END
