
#######################################################################
#
#                 Cambridge Crystallographic Data Centre
#                                CCDC 
#
#######################################################################
#
# If this CIF has been generated from an entry in the Cambridge 
# Structural Database, then it will include bibliographic, chemical, 
# crystal, experimental, refinement or atomic coordinate data resulting 
# from the CCDC's data processing and validation procedures.
#
#######################################################################

data_EBASIK
_symmetry_cell_setting           triclinic
_symmetry_space_group_name_H-M   'P -1'
_symmetry_Int_Tables_number      2
_space_group_name_Hall           '-P 1'
loop_
_symmetry_equiv_pos_site_id
_symmetry_equiv_pos_as_xyz
1 x,y,z
2 -x,-y,-z
_cell_length_a                   7.3434(9)
_cell_length_b                   9.510(1)
_cell_length_c                   13.3533(17)
_cell_angle_alpha                85.57(1)
_cell_angle_beta                 82.47(1)
_cell_angle_gamma                87.594(8)
_cell_volume                     921.255
loop_
_atom_site_label
_atom_site_type_symbol
_atom_site_fract_x
_atom_site_fract_y
_atom_site_fract_z
Hg1 Hg -0.448120(19) 0.119658(14) 0.83030(1)
Cu1 Cu -0.90530(6) 0.22654(4) 0.70468(3)
Cl1 Cl -0.76566(13) 0.01880(9) 0.75075(7)
Cl2 Cl -0.19596(13) 0.13998(11) 0.65294(7)
N1 N -0.5793(6) 0.4386(4) 0.7969(3)
N2 N -0.3294(7) -0.1802(5) 0.9226(3)
N3 N -1.0215(4) 0.2768(3) 0.8442(2)
N4 N -0.9283(4) 0.4306(3) 0.6831(2)
N5 N -0.7692(4) 0.2554(3) 0.5633(2)
C1 C -0.5331(5) 0.3263(4) 0.8099(3)
C2 C -0.3714(6) -0.0753(4) 0.8891(3)
C3 C -1.0642(5) 0.1868(4) 0.9247(3)
C4 C -1.1657(6) 0.2292(5) 1.0131(3)
C5 C -1.2240(6) 0.3654(5) 1.0175(3)
C6 C -1.1799(5) 0.4616(4) 0.9356(3)
C7 C -1.0755(5) 0.4141(4) 0.8498(2)
C8 C -1.0106(5) 0.5042(4) 0.7583(3)
C9 C -1.0226(5) 0.6504(4) 0.7470(3)
C10 C -0.9448(6) 0.7165(4) 0.6560(3)
C11 C -0.8570(5) 0.6389(4) 0.5797(3)
C12 C -0.8480(4) 0.4936(3) 0.5957(2)
C13 C -0.7579(4) 0.3919(4) 0.5266(2)
C14 C -0.6663(5) 0.4284(4) 0.4311(3)
C15 C -0.5883(5) 0.3226(5) 0.3729(3)
C16 C -0.6048(6) 0.1835(5) 0.4092(3)
C17 C -0.6956(5) 0.1550(4) 0.5062(3)
H1 H -1.0227(5) 0.0912(4) 0.9210(3)
H2 H -1.1942(6) 0.1631(5) 1.0695(3)
H3 H -1.2964(6) 0.3954(5) 1.0768(3)
H4 H -1.2188(5) 0.5580(4) 0.9377(3)
H5 H -1.0815(5) 0.7034(4) 0.8002(3)
H6 H -0.9528(6) 0.8165(4) 0.6458(3)
H7 H -0.8024(5) 0.6840(4) 0.5177(3)
H8 H -0.6579(5) 0.5247(4) 0.4067(3)
H9 H -0.5230(5) 0.3459(5) 0.3079(3)
H10 H -0.5544(6) 0.1095(5) 0.3692(3)
H11 H -0.7001(5) 0.0550(4) 0.5109(3)
Cl2_2 Cl -1.19596(13) 0.13998(11) 0.65294(7)
Cu1_2 Cu 0.09470(6) 0.22654(4) 0.70468(3)
loop_
_geom_bond_atom_site_label_1
_geom_bond_atom_site_label_2
_geom_bond_site_symmetry_1
_geom_bond_site_symmetry_2
Hg1 Cl1 1_555 1_555
Cu1 Cl1 1_555 1_555
Cl2 Hg1 1_555 1_555
N1 C1 1_555 1_555
N2 C2 1_555 1_555
N3 Cu1 1_555 1_555
N4 Cu1 1_555 1_555
N5 Cu1 1_555 1_555
C1 Hg1 1_555 1_555
C2 Hg1 1_555 1_555
C3 N3 1_555 1_555
C4 C3 1_555 1_555
C5 C4 1_555 1_555
C6 C5 1_555 1_555
C7 N3 1_555 1_555
C8 N4 1_555 1_555
C9 C8 1_555 1_555
C10 C9 1_555 1_555
C11 C10 1_555 1_555
C12 N4 1_555 1_555
C13 N5 1_555 1_555
C14 C13 1_555 1_555
C15 C14 1_555 1_555
C16 C15 1_555 1_555
C17 N5 1_555 1_555
H1 C3 1_555 1_555
H2 C4 1_555 1_555
H3 C5 1_555 1_555
H4 C6 1_555 1_555
H5 C9 1_555 1_555
H6 C10 1_555 1_555
H7 C11 1_555 1_555
H8 C14 1_555 1_555
H9 C15 1_555 1_555
H10 C16 1_555 1_555
H11 C17 1_555 1_555
Cl2_2 Cu1 1_555 1_555
Cu1_2 Cl2 1_555 1_555
C6 C7 1_555 1_555
C7 C8 1_555 1_555
C11 C12 1_555 1_555
C12 C13 1_555 1_555
C16 C17 1_555 1_555

#END
