
#######################################################################
#
#                 Cambridge Crystallographic Data Centre
#                                CCDC 
#
#######################################################################
#
# If this CIF has been generated from an entry in the Cambridge 
# Structural Database, then it will include bibliographic, chemical, 
# crystal, experimental, refinement or atomic coordinate data resulting 
# from the CCDC's data processing and validation procedures.
#
#######################################################################

data_EBASUX
_symmetry_cell_setting           monoclinic
_symmetry_space_group_name_H-M   'C 2/c'
_symmetry_Int_Tables_number      15
_space_group_name_Hall           '-C 2yn'
loop_
_symmetry_equiv_pos_site_id
_symmetry_equiv_pos_as_xyz
1 x,y,z
2 -x,y,1/2-z
3 1/2+x,1/2+y,z
4 1/2-x,1/2+y,1/2-z
5 -x,-y,-z
6 x,-y,1/2+z
7 1/2-x,1/2-y,-z
8 1/2+x,1/2-y,1/2+z
_cell_length_a                   18.1555(13)
_cell_length_b                   11.6911(6)
_cell_length_c                   14.3736(12)
_cell_angle_alpha                90
_cell_angle_beta                 123.355(8)
_cell_angle_gamma                90
_cell_volume                     2548.36
loop_
_atom_site_label
_atom_site_type_symbol
_atom_site_fract_x
_atom_site_fract_y
_atom_site_fract_z
Mn1 Mn 0.5000 0.10465(3) 0.2500
N1 N 0.5000 0.2991(2) 0.2500
N2 N 0.5000 0.9086(2) 0.2500
C1 C 0.42798(15) 0.35893(18) 0.22413(19)
H1 H 0.3764 0.3180 0.2058
C2 C 0.42511(15) 0.47804(17) 0.22286(18)
H2 H 0.3725 0.5166 0.2036
C3 C 0.5000 0.5404(2) 0.2500
C4 C 0.5000 0.6672(2) 0.2500
C5 C 0.43739(15) 0.72966(18) 0.2563(2)
H3 H 0.3930 0.6912 0.2599
C6 C 0.44031(16) 0.84875(18) 0.2570(2)
H4 H 0.3978 0.8896 0.2629
O1 O 0.62785(12) 0.10313(14) 0.40935(15)
H5 H 0.6349 0.0582 0.4603
H6 H 0.6780 0.0904 0.4194
Se1 Se 0.309126(19) 0.12044(3) 0.41206(3)
N3 N 0.43014(16) 0.10907(16) 0.3357(2)
C7 C 0.38278(16) 0.11235(18) 0.3657(2)
Mn1_2 Mn 0.5000 1.10465(3) 0.2500
N2_2 N 0.5000 -0.0914(2) 0.2500
C1A C 0.57202(15) 0.35893(18) 0.27587(19)
H1A H 0.6236 0.3180 0.2942
C2A C 0.57489(15) 0.47804(17) 0.27714(18)
H2A H 0.6275 0.5166 0.2964
C5A C 0.56261(15) 0.72966(18) 0.2437(2)
H3A H 0.6070 0.6912 0.2401
C6A C 0.55969(16) 0.84875(18) 0.2430(2)
H4A H 0.6022 0.8896 0.2371
O1A O 0.37215(12) 0.10313(14) 0.09065(15)
H5A H 0.3651 0.0582 0.0397
H6A H 0.3220 0.0904 0.0806
Se1A Se 0.690874(19) 0.12044(3) 0.08794(3)
N3A N 0.56986(16) 0.10907(16) 0.1643(2)
C7A C 0.61722(16) 0.11235(18) 0.1343(2)
N4 N 0.21825(15) 0.0637(2) 0.07619(19)
C8 C 0.15946(19) 0.1459(3) 0.0509(2)
H7 H 0.1773 0.2229 0.0538
C9 C 0.07358(17) 0.1258(2) 0.0205(2)
H8 H 0.0341 0.1878 0.0024
C10 C 0.04582(15) 0.0135(2) 0.01666(19)
C11 C 0.10763(18) -0.0729(2) 0.0442(2)
H9 H 0.0923 -0.1507 0.0436
C12 C 0.19162(18) -0.0440(3) 0.0724(3)
H10 H 0.2326 -0.1041 0.0901
N4D N -0.21825(15) -0.0637(2) -0.07619(19)
C8D C -0.15946(19) -0.1459(3) -0.0509(2)
H7D H -0.1773 -0.2229 -0.0538
C9D C -0.07358(17) -0.1258(2) -0.0205(2)
H8D H -0.0341 -0.1878 -0.0024
C10D C -0.04582(15) -0.0135(2) -0.01666(19)
C11D C -0.10763(18) 0.0729(2) -0.0442(2)
H9D H -0.0923 0.1507 -0.0436
C12D C -0.19162(18) 0.0440(3) -0.0724(3)
H10D H -0.2326 0.1041 -0.0901
loop_
_geom_bond_atom_site_label_1
_geom_bond_atom_site_label_2
_geom_bond_site_symmetry_1
_geom_bond_site_symmetry_2
Mn1 N1 1_555 1_555
N1 C1 1_555 1_555
N2 C6 1_555 1_555
C1 H1 1_555 1_555
C2 C1 1_555 1_555
H2 C2 1_555 1_555
C3 C2 1_555 1_555
C4 C3 1_555 1_555
C5 C4 1_555 1_555
H3 C5 1_555 1_555
C6 C5 1_555 1_555
H4 C6 1_555 1_555
O1 Mn1 1_555 1_555
H5 O1 1_555 1_555
H6 O1 1_555 1_555
Se1 C7 1_555 1_555
N3 Mn1 1_555 1_555
C7 N3 1_555 1_555
N4 C8 1_555 1_555
C8 H7 1_555 1_555
C9 C8 1_555 1_555
H8 C9 1_555 1_555
C10 C9 1_555 1_555
C11 C10 1_555 1_555
H9 C11 1_555 1_555
C12 N4 1_555 1_555
H10 C12 1_555 1_555
Mn1_2 N2 1_555 1_555
N2_2 Mn1 1_555 1_555
C1A N1 1_555 1_555
H1A C1A 1_555 1_555
C2A C3 1_555 1_555
H2A C2A 1_555 1_555
C5A C4 1_555 1_555
H3A C5A 1_555 1_555
C6A N2 1_555 1_555
H4A C6A 1_555 1_555
O1A Mn1 1_555 1_555
H5A O1A 1_555 1_555
H6A O1A 1_555 1_555
Se1A C7A 1_555 1_555
N3A Mn1 1_555 1_555
C7A N3A 1_555 1_555
N4D C8D 1_555 1_555
C8D H7D 1_555 1_555
C9D C8D 1_555 1_555
H8D C9D 1_555 1_555
C10D C10 1_555 1_555
C11D C10D 1_555 1_555
H9D C11D 1_555 1_555
C12D N4D 1_555 1_555
H10D C12D 1_555 1_555
C11 C12 1_555 1_555
C1A C2A 1_555 1_555
C5A C6A 1_555 1_555
C9D C10D 1_555 1_555
C11D C12D 1_555 1_555

#END
