
#######################################################################
#
#                 Cambridge Crystallographic Data Centre
#                                CCDC 
#
#######################################################################
#
# If this CIF has been generated from an entry in the Cambridge 
# Structural Database, then it will include bibliographic, chemical, 
# crystal, experimental, refinement or atomic coordinate data resulting 
# from the CCDC's data processing and validation procedures.
#
#######################################################################

data_EBATIL
_symmetry_cell_setting           orthorhombic
_symmetry_space_group_name_H-M   'P n n a'
_symmetry_Int_Tables_number      52
_space_group_name_Hall           '-P 2a 2bc'
loop_
_symmetry_equiv_pos_site_id
_symmetry_equiv_pos_as_xyz
1 x,y,z
2 1/2+x,y,-z
3 -x,1/2+y,1/2+z
4 1/2+x,1/2-y,1/2+z
5 -x,-y,-z
6 1/2-x,-y,z
7 x,1/2-y,1/2-z
8 1/2-x,1/2+y,1/2-z
_cell_length_a                   13.7982(3)
_cell_length_b                   13.0362(2)
_cell_length_c                   9.2955(2)
_cell_angle_alpha                90
_cell_angle_beta                 90
_cell_angle_gamma                90
_cell_volume                     1672.04
loop_
_atom_site_label
_atom_site_type_symbol
_atom_site_fract_x
_atom_site_fract_y
_atom_site_fract_z
Co1 Co -1.123520(18) 0.7500 0.7500
N1 N -0.90002(11) 0.63149(13) 0.43483(17)
C1 C -0.81194(11) 0.66245(10) 0.41256(14)
N2 N -0.73381(9) 0.68165(9) 0.37679(13)
C2 C -0.95736(10) 0.66356(10) 0.53570(15)
N3 N -1.01646(9) 0.68372(9) 0.61893(13)
N4 N -1.12567(8) 0.88094(9) 0.60847(13)
C3 C -1.12187(10) 0.97641(11) 0.66131(17)
H1 H -1.1184 0.9866 0.7624
C4 C -1.12290(11) 1.06054(12) 0.57015(18)
H2 H -1.1212 1.1272 0.6112
N5 N -1.12624(9) 1.05188(10) 0.42660(15)
C5 C -1.12895(10) 0.95677(12) 0.37333(17)
C6 C -1.12977(10) 0.87153(11) 0.46535(16)
H3 H -1.1334 0.8048 0.4246
C7 C -1.12939(13) 0.94298(15) 0.2136(2)
H4 H -1.1291 1.0103 0.1667
H5 H -1.0717 0.9044 0.1844
H6 H -1.1877 0.9052 0.1849
Co1A Co -0.623520(18) 0.7500 0.2500
N2A N -1.23381(9) 0.68165(9) 0.62321(13)
C1A C -1.31194(11) 0.66245(10) 0.58744(14)
N1A N -1.40002(11) 0.63149(13) 0.56517(17)
C2A C -1.45736(10) 0.66356(10) 0.46430(15)
N3A N -1.51646(9) 0.68372(9) 0.38107(13)
Co1A_2 Co -1.623520(18) 0.7500 0.2500
N2C N -1.23381(9) 0.81835(9) 0.87679(13)
N3F N -1.01646(9) 0.81628(9) 0.88107(13)
N4F N -1.12567(8) 0.61906(9) 0.89153(13)
C3F C -1.12187(10) 0.52359(11) 0.83869(17)
H1F H -1.1184 0.5134 0.7376
C4F C -1.12290(11) 0.43946(12) 0.92985(18)
H2F H -1.1212 0.3728 0.8888
N5F N -1.12624(9) 0.44812(10) 1.07340(15)
C5F C -1.12895(10) 0.54323(12) 1.12667(17)
C6F C -1.12977(10) 0.62847(11) 1.03465(16)
H3F H -1.1334 0.6952 1.0754
C7F C -1.12939(13) 0.55702(15) 1.2864(2)
H4F H -1.1291 0.4897 1.3333
H5F H -1.0717 0.5956 1.3156
H6F H -1.1877 0.5948 1.3151
O1 O 0.29937(14) 0.2500 -0.2500
H7 H 0.338(2) 0.302(2) -0.221(3)
H7F H 0.338(2) 0.198(2) -0.279(3)
loop_
_geom_bond_atom_site_label_1
_geom_bond_atom_site_label_2
_geom_bond_site_symmetry_1
_geom_bond_site_symmetry_2
Co1 N3 1_555 1_555
N1 C1 1_555 1_555
C1 N2 1_555 1_555
N2 Co1A 1_555 1_555
C2 N1 1_555 1_555
N3 C2 1_555 1_555
N4 Co1 1_555 1_555
C3 N4 1_555 1_555
H1 C3 1_555 1_555
C4 C3 1_555 1_555
H2 C4 1_555 1_555
N5 C4 1_555 1_555
C5 N5 1_555 1_555
C6 N4 1_555 1_555
H3 C6 1_555 1_555
C7 C5 1_555 1_555
H4 C7 1_555 1_555
H5 C7 1_555 1_555
H6 C7 1_555 1_555
O1 H7 1_555 1_555
N2A Co1 1_555 1_555
C1A N2A 1_555 1_555
N1A C1A 1_555 1_555
C2A N1A 1_555 1_555
N3A C2A 1_555 1_555
Co1A_2 N3A 1_555 1_555
N2C Co1 1_555 1_555
N3F Co1 1_555 1_555
N4F Co1 1_555 1_555
C3F N4F 1_555 1_555
H1F C3F 1_555 1_555
C4F C3F 1_555 1_555
H2F C4F 1_555 1_555
N5F C4F 1_555 1_555
C5F N5F 1_555 1_555
C6F N4F 1_555 1_555
H3F C6F 1_555 1_555
C7F C5F 1_555 1_555
H4F C7F 1_555 1_555
H5F C7F 1_555 1_555
H6F C7F 1_555 1_555
H7F O1 1_555 1_555
C5 C6 1_555 1_555
C5F C6F 1_555 1_555

#END
