
#######################################################################
#
#                 Cambridge Crystallographic Data Centre
#                                CCDC 
#
#######################################################################
#
# If this CIF has been generated from an entry in the Cambridge 
# Structural Database, then it will include bibliographic, chemical, 
# crystal, experimental, refinement or atomic coordinate data resulting 
# from the CCDC's data processing and validation procedures.
#
#######################################################################

data_EBATEI
_symmetry_cell_setting           monoclinic
_symmetry_space_group_name_H-M   'C 2/c'
_symmetry_Int_Tables_number      15
_space_group_name_Hall           '-C 2yn'
loop_
_symmetry_equiv_pos_site_id
_symmetry_equiv_pos_as_xyz
1 x,y,z
2 -x,y,1/2-z
3 1/2+x,1/2+y,z
4 1/2-x,1/2+y,1/2-z
5 -x,-y,-z
6 x,-y,1/2+z
7 1/2-x,1/2-y,-z
8 1/2+x,1/2-y,1/2+z
_cell_length_a                   12.0578(8)
_cell_length_b                   11.6229(7)
_cell_length_c                   10.6607(7)
_cell_angle_alpha                90
_cell_angle_beta                 109.5921(14)
_cell_angle_gamma                90
_cell_volume                     1407.56
loop_
_atom_site_label
_atom_site_type_symbol
_atom_site_fract_x
_atom_site_fract_y
_atom_site_fract_z
Mn1 Mn 0.50000 0.5811(8) 0.75000
Se1 Se 0.2929(3) 0.5856(3) 0.5275(4)
N1 N 0.3794(3) 0.4288(3) 0.3828(4)
N2 N 0.50000 0.7807(11) 0.75000
N3 N 0.50000 1.3819(11) 0.75000
C1 C 0.3437(3) 0.4925(3) 0.4430(4)
C2 C 0.4433(8) 0.8398(11) 0.8164(8)
C3 C 0.4403(8) 0.9565(11) 0.8179(8)
C4 C 0.50000 1.0187(11) 0.75000
C5 C 0.50000 1.1441(11) 0.75000
C6 C 0.3974(8) 1.2060(11) 0.7420(8)
C7 C 0.4006(8) 1.3229(11) 0.7412(8)
Mn1D Mn 0.50000 0.4189(8) 0.25000
Mn1_2 Mn 0.50000 1.5811(8) 0.75000
Mn1D_2 Mn 0.50000 0.4189(8) 1.25000
Se1A Se 0.7071(3) 0.5856(3) 0.9725(4)
N1A N 0.6206(3) 0.4288(3) 1.1172(4)
N1D N 0.6206(3) 0.5712(3) 0.6172(4)
N1E N 0.3794(3) 0.5712(3) 0.8828(4)
N3_2 N 0.50000 0.3819(11) 0.75000
C1A C 0.6563(3) 0.4925(3) 1.0570(4)
C2A C 0.5567(8) 0.8398(11) 0.6836(8)
C3A C 0.5597(8) 0.9565(11) 0.6821(8)
C6A C 0.6026(8) 1.2060(11) 0.7580(8)
C7A C 0.5994(8) 1.3229(11) 0.7588(8)
loop_
_geom_bond_atom_site_label_1
_geom_bond_atom_site_label_2
_geom_bond_site_symmetry_1
_geom_bond_site_symmetry_2
Mn1 Se1 1_555 1_555
Se1 C1 1_555 1_555
N1 C1 1_555 1_555
N2 Mn1 1_555 1_555
N3 C7 1_555 1_555
C2 N2 1_555 1_555
C3 C2 1_555 1_555
C4 C3 1_555 1_555
C5 C4 1_555 1_555
C6 C5 1_555 1_555
C7 C6 1_555 1_555
Mn1D N1 1_555 1_555
Mn1_2 N3 1_555 1_555
Mn1D_2 N1A 1_555 1_555
Se1A Mn1 1_555 1_555
N1A C1A 1_555 1_555
N1D Mn1 1_555 1_555
N1E Mn1 1_555 1_555
N3_2 Mn1 1_555 1_555
C1A Se1A 1_555 1_555
C2A N2 1_555 1_555
C3A C4 1_555 1_555
C6A C5 1_555 1_555
C7A N3 1_555 1_555
C2A C3A 1_555 1_555
C6A C7A 1_555 1_555

#END
