
#######################################################################
#
#                 Cambridge Crystallographic Data Centre
#                                CCDC 
#
#######################################################################
#
# If this CIF has been generated from an entry in the Cambridge 
# Structural Database, then it will include bibliographic, chemical, 
# crystal, experimental, refinement or atomic coordinate data resulting 
# from the CCDC's data processing and validation procedures.
#
#######################################################################

data_EBATOR
_symmetry_cell_setting           orthorhombic
_symmetry_space_group_name_H-M   'P n n a'
_symmetry_Int_Tables_number      52
_space_group_name_Hall           '-P 2a 2bc'
loop_
_symmetry_equiv_pos_site_id
_symmetry_equiv_pos_as_xyz
1 x,y,z
2 1/2+x,y,-z
3 1/2+x,1/2-y,1/2+z
4 -x,1/2+y,1/2+z
5 -x,-y,-z
6 1/2-x,-y,z
7 1/2-x,1/2+y,1/2-z
8 x,1/2-y,1/2-z
_cell_length_a                   13.6754(6)
_cell_length_b                   13.0449(4)
_cell_length_c                   9.2508(4)
_cell_angle_alpha                90
_cell_angle_beta                 90
_cell_angle_gamma                90
_cell_volume                     1650.29
loop_
_atom_site_label
_atom_site_type_symbol
_atom_site_fract_x
_atom_site_fract_y
_atom_site_fract_z
Ni1 Ni -1.12397(2) 0.7500 0.7500
N1 N -0.89926(14) 0.62982(17) 0.4385(2)
C1 C -0.81132(13) 0.66307(14) 0.41311(19)
N2 N -0.73356(11) 0.68370(12) 0.37539(17)
C2 C -0.95751(13) 0.66379(13) 0.5390(2)
N3 N -1.01740(11) 0.68499(12) 0.62120(17)
N4 N -1.12553(10) 0.87820(12) 0.61276(17)
C3 C -1.12220(13) 0.97370(14) 0.6660(2)
H1 H -1.1189 0.9838 0.7676
C4 C -1.12353(14) 1.05771(15) 0.5750(2)
H2 H -1.1224 1.1243 0.6166
N5 N -1.12641(12) 1.04943(13) 0.4302(2)
C5 C -1.12862(13) 0.95430(16) 0.3766(2)
C6 C -1.12912(12) 0.86910(15) 0.4686(2)
H3 H -1.1321 0.8025 0.4274
C7 C -1.12913(17) 0.9409(2) 0.2163(3)
H4 H -1.1288 1.0083 0.1695
H5 H -1.0709 0.9024 0.1867
H6 H -1.1879 0.9032 0.1874
Ni1A Ni -0.62397(2) 0.7500 0.2500
N2A N -1.23356(11) 0.68370(12) 0.62461(17)
C1A C -1.31132(13) 0.66307(14) 0.58689(19)
N1A N -1.39926(14) 0.62982(17) 0.5615(2)
C2A C -1.45751(13) 0.66379(13) 0.4610(2)
N3A N -1.51740(11) 0.68499(12) 0.37880(17)
Ni1A_2 Ni -1.62397(2) 0.7500 0.2500
N2B N -1.23356(11) 0.81630(12) 0.87539(17)
N3G N -1.01740(11) 0.81501(12) 0.87880(17)
N4G N -1.12553(10) 0.62180(12) 0.88724(17)
C3G C -1.12220(13) 0.52630(14) 0.8340(2)
H1G H -1.1189 0.5162 0.7324
C4G C -1.12353(14) 0.44229(15) 0.9250(2)
H2G H -1.1224 0.3757 0.8834
N5G N -1.12641(12) 0.45057(13) 1.0698(2)
C5G C -1.12862(13) 0.54570(16) 1.1234(2)
C6G C -1.12912(12) 0.63090(15) 1.0314(2)
H3G H -1.1321 0.6975 1.0726
C7G C -1.12913(17) 0.5591(2) 1.2837(3)
H4G H -1.1288 0.4917 1.3305
H5G H -1.0709 0.5976 1.3133
H6G H -1.1879 0.5968 1.3126
O1 O 0.29973(19) 0.2500 -0.2500
loop_
_geom_bond_atom_site_label_1
_geom_bond_atom_site_label_2
_geom_bond_site_symmetry_1
_geom_bond_site_symmetry_2
Ni1 N3 1_555 1_555
N1 C1 1_555 1_555
C1 N2 1_555 1_555
N2 Ni1A 1_555 1_555
C2 N1 1_555 1_555
N3 C2 1_555 1_555
N4 Ni1 1_555 1_555
C3 N4 1_555 1_555
H1 C3 1_555 1_555
C4 C3 1_555 1_555
H2 C4 1_555 1_555
N5 C4 1_555 1_555
C5 N5 1_555 1_555
C6 N4 1_555 1_555
H3 C6 1_555 1_555
C7 C5 1_555 1_555
H4 C7 1_555 1_555
H5 C7 1_555 1_555
H6 C7 1_555 1_555
N2A Ni1 1_555 1_555
C1A N2A 1_555 1_555
N1A C1A 1_555 1_555
C2A N1A 1_555 1_555
N3A C2A 1_555 1_555
Ni1A_2 N3A 1_555 1_555
N2B Ni1 1_555 1_555
N3G Ni1 1_555 1_555
N4G Ni1 1_555 1_555
C3G N4G 1_555 1_555
H1G C3G 1_555 1_555
C4G C3G 1_555 1_555
H2G C4G 1_555 1_555
N5G C4G 1_555 1_555
C5G N5G 1_555 1_555
C6G N4G 1_555 1_555
H3G C6G 1_555 1_555
C7G C5G 1_555 1_555
H4G C7G 1_555 1_555
H5G C7G 1_555 1_555
H6G C7G 1_555 1_555
C5 C6 1_555 1_555
C5G C6G 1_555 1_555

#END
