
#######################################################################
#
#                 Cambridge Crystallographic Data Centre
#                                CCDC 
#
#######################################################################
#
# If this CIF has been generated from an entry in the Cambridge 
# Structural Database, then it will include bibliographic, chemical, 
# crystal, experimental, refinement or atomic coordinate data resulting 
# from the CCDC's data processing and validation procedures.
#
#######################################################################

data_EBATIM
_symmetry_cell_setting           monoclinic
_symmetry_space_group_name_H-M   'C 2/c'
_symmetry_Int_Tables_number      15
_space_group_name_Hall           '-C 2yn'
loop_
_symmetry_equiv_pos_site_id
_symmetry_equiv_pos_as_xyz
1 x,y,z
2 -x,y,1/2-z
3 1/2+x,1/2+y,z
4 1/2-x,1/2+y,1/2-z
5 -x,-y,-z
6 x,-y,1/2+z
7 1/2-x,1/2-y,-z
8 1/2+x,1/2-y,1/2+z
_cell_length_a                   21.806(9)
_cell_length_b                   8.266(4)
_cell_length_c                   23.645(10)
_cell_angle_alpha                90
_cell_angle_beta                 105.015(7)
_cell_angle_gamma                90
_cell_volume                     4116.46
loop_
_atom_site_label
_atom_site_type_symbol
_atom_site_fract_x
_atom_site_fract_y
_atom_site_fract_z
Cd1 Cd 0.0000 -0.23157(4) 0.2500
C1 C -0.17753(17) -0.5969(4) 0.13299(15)
H1 H -0.2112 -0.6593 0.1119
C2 C -0.15128(19) -0.6261(5) 0.19097(16)
H2 H -0.1670 -0.7087 0.2099
C3 C -0.10163(18) -0.5332(5) 0.22122(16)
H3 H -0.0838 -0.5560 0.2606
C4 C -0.10368(15) -0.3832(4) 0.13982(13)
H4 H -0.0876 -0.2989 0.1219
C5 C -0.15302(15) -0.4725(4) 0.10614(13)
C6 C -0.22975(16) -0.4759(4) 0.00939(14)
C7 C -0.24054(15) -0.4249(4) -0.05300(14)
C8 C -0.20384(15) -0.3145(4) -0.07374(14)
H5 H -0.1681 -0.2690 -0.0485
C9 C -0.22079(17) -0.2723(4) -0.13236(15)
C10 C -0.27295(17) -0.3471(5) -0.16896(15)
H6 H -0.2829 -0.3233 -0.2087
C11 C -0.29346(16) -0.4883(4) -0.09274(15)
H7 H -0.3191 -0.5601 -0.0790
C12 C -0.18588(17) -0.1451(5) -0.15738(15)
C13 C -0.12528(15) 0.1069(4) -0.12775(13)
C14 C -0.1195(2) 0.2361(4) -0.08952(17)
H8 H -0.1406 0.2360 -0.0600
C15 C -0.08180(18) 0.3649(5) -0.09619(16)
H9 H -0.0775 0.4541 -0.0715
C16 C -0.05075(17) 0.3600(4) -0.13953(15)
H10 H -0.0257 0.4478 -0.1439
C17 C -0.09201(15) 0.1099(4) -0.17058(14)
H11 H -0.0959 0.0227 -0.1961
N1 N -0.07755(13) -0.4101(3) 0.19643(11)
N2 N -0.17364(12) -0.4346(3) 0.04622(11)
H12 H -0.1480 -0.3796 0.0316
N3 N -0.30957(14) -0.4516(4) -0.14987(13)
N4 N -0.16310(13) -0.0245(3) -0.11975(12)
H13 H -0.1728 -0.0281 -0.0868
N5 N -0.05492(14) 0.2327(3) -0.17628(12)
O1 O -0.27123(11) -0.5478(3) 0.02569(10)
O2 O -0.18078(15) -0.1511(4) -0.20644(11)
O7 O -0.06135(11) -0.0127(3) 0.20725(10)
H14 H -0.0980 -0.0204 0.1919
H15 H -0.0476 0.0625 0.1892
Cd1D Cd 0.0000 0.23157(4) -0.2500
Cd1D_2 Cd 0.0000 0.23157(4) 0.7500
C1A C 0.17753(17) -0.5969(4) 0.36701(15)
H1A H 0.2112 -0.6593 0.3881
C2A C 0.15128(19) -0.6261(5) 0.30903(16)
H2A H 0.1670 -0.7087 0.2901
C3A C 0.10163(18) -0.5332(5) 0.27878(16)
H3A H 0.0838 -0.5560 0.2394
C4A C 0.10368(15) -0.3832(4) 0.36018(13)
H4A H 0.0876 -0.2989 0.3781
C5A C 0.15302(15) -0.4725(4) 0.39386(13)
C6A C 0.22975(16) -0.4759(4) 0.49061(14)
C7A C 0.24054(15) -0.4249(4) 0.55300(14)
C8A C 0.20384(15) -0.3145(4) 0.57374(14)
H5A H 0.1681 -0.2690 0.5485
C9A C 0.22079(17) -0.2723(4) 0.63236(15)
C10A C 0.27295(17) -0.3471(5) 0.66896(15)
H6A H 0.2829 -0.3233 0.7087
C11A C 0.29346(16) -0.4883(4) 0.59274(15)
H7A H 0.3191 -0.5601 0.5790
C12A C 0.18588(17) -0.1451(5) 0.65738(15)
C13A C 0.12528(15) 0.1069(4) 0.62775(13)
C14A C 0.1195(2) 0.2361(4) 0.58952(17)
H8A H 0.1406 0.2360 0.5600
C15A C 0.08180(18) 0.3649(5) 0.59619(16)
H9A H 0.0775 0.4541 0.5715
C16A C 0.05075(17) 0.3600(4) 0.63953(15)
H10A H 0.0257 0.4478 0.6439
C17A C 0.09201(15) 0.1099(4) 0.67058(14)
H11A H 0.0959 0.0227 0.6961
N1A N 0.07755(13) -0.4101(3) 0.30357(11)
N2A N 0.17364(12) -0.4346(3) 0.45378(11)
H12A H 0.1480 -0.3796 0.4684
N3A N 0.30957(14) -0.4516(4) 0.64987(13)
N4A N 0.16310(13) -0.0245(3) 0.61975(12)
H13A H 0.1728 -0.0281 0.5868
N5A N 0.05492(14) 0.2327(3) 0.67628(12)
N5D N 0.05492(14) -0.2327(3) 0.17628(12)
N5E N -0.05492(14) -0.2327(3) 0.32372(12)
O1A O 0.27123(11) -0.5478(3) 0.47431(10)
O2A O 0.18078(15) -0.1511(4) 0.70644(11)
O7A O 0.06135(11) -0.0127(3) 0.29275(10)
H14A H 0.0980 -0.0204 0.3081
H15A H 0.0476 0.0625 0.3108
Cl1 Cl 0.02684(5) 0.22391(12) 0.41664(5)
O3 O -0.0201(3) 0.1470(12) 0.4321(3)
O4 O 0.0373(3) 0.3686(6) 0.44617(16)
O5 O 0.0807(3) 0.1371(9) 0.4335(2)
O6 O 0.0133(2) 0.2500(4) 0.35566(16)
O8 O 0.92098(17) 0.2052(5) 0.52366(14)
loop_
_geom_bond_atom_site_label_1
_geom_bond_atom_site_label_2
_geom_bond_site_symmetry_1
_geom_bond_site_symmetry_2
Cd1 N1 1_555 1_555
C1 H1 1_555 1_555
C2 C1 1_555 1_555
H2 C2 1_555 1_555
C3 C2 1_555 1_555
H3 C3 1_555 1_555
C4 H4 1_555 1_555
C5 C1 1_555 1_555
C6 C7 1_555 1_555
C7 C8 1_555 1_555
C8 H5 1_555 1_555
C9 C8 1_555 1_555
C10 C9 1_555 1_555
H6 C10 1_555 1_555
C11 C7 1_555 1_555
H7 C11 1_555 1_555
C12 C9 1_555 1_555
C13 C14 1_555 1_555
C14 H8 1_555 1_555
C15 C14 1_555 1_555
H9 C15 1_555 1_555
C16 C15 1_555 1_555
H10 C16 1_555 1_555
C17 C13 1_555 1_555
H11 C17 1_555 1_555
Cl1 O3 1_555 1_555
N1 C3 1_555 1_555
N2 C5 1_555 1_555
H12 N2 1_555 1_555
N3 C10 1_555 1_555
N4 C12 1_555 1_555
H13 N4 1_555 1_555
N5 C16 1_555 1_555
O1 C6 1_555 1_555
O2 C12 1_555 1_555
O4 Cl1 1_555 1_555
O5 Cl1 1_555 1_555
O6 Cl1 1_555 1_555
O7 Cd1 1_555 1_555
H14 O7 1_555 1_555
H15 O7 1_555 1_555
Cd1D N5 1_555 1_555
Cd1D_2 N5A 1_555 1_555
C1A H1A 1_555 1_555
C2A C1A 1_555 1_555
H2A C2A 1_555 1_555
C3A C2A 1_555 1_555
H3A C3A 1_555 1_555
C4A H4A 1_555 1_555
C5A C1A 1_555 1_555
C6A C7A 1_555 1_555
C7A C8A 1_555 1_555
C8A H5A 1_555 1_555
C9A C8A 1_555 1_555
C10A C9A 1_555 1_555
H6A C10A 1_555 1_555
C11A C7A 1_555 1_555
H7A C11A 1_555 1_555
C12A C9A 1_555 1_555
C13A C14A 1_555 1_555
C14A H8A 1_555 1_555
C15A C14A 1_555 1_555
H9A C15A 1_555 1_555
C16A C15A 1_555 1_555
H10A C16A 1_555 1_555
C17A C13A 1_555 1_555
H11A C17A 1_555 1_555
N1A Cd1 1_555 1_555
N2A C5A 1_555 1_555
H12A N2A 1_555 1_555
N3A C10A 1_555 1_555
N4A C12A 1_555 1_555
H13A N4A 1_555 1_555
N5A C16A 1_555 1_555
N5D Cd1 1_555 1_555
N5E Cd1 1_555 1_555
O1A C6A 1_555 1_555
O2A C12A 1_555 1_555
O7A Cd1 1_555 1_555
H14A O7A 1_555 1_555
H15A O7A 1_555 1_555
C4 C5 1_555 1_555
C4 N1 1_555 1_555
C6 N2 1_555 1_555
C11 N3 1_555 1_555
C13 N4 1_555 1_555
C17 N5 1_555 1_555
C3A N1A 1_555 1_555
C4A C5A 1_555 1_555
C4A N1A 1_555 1_555
C6A N2A 1_555 1_555
C11A N3A 1_555 1_555
C13A N4A 1_555 1_555
C17A N5A 1_555 1_555

#END
