
#######################################################################
#
#                 Cambridge Crystallographic Data Centre
#                                CCDC 
#
#######################################################################
#
# If this CIF has been generated from an entry in the Cambridge 
# Structural Database, then it will include bibliographic, chemical, 
# crystal, experimental, refinement or atomic coordinate data resulting 
# from the CCDC's data processing and validation procedures.
#
#######################################################################

data_EBATUX
_symmetry_cell_setting           orthorhombic
_symmetry_space_group_name_H-M   'P b a m'
_symmetry_Int_Tables_number      55
_space_group_name_Hall           '-P 2 2ab'
loop_
_symmetry_equiv_pos_site_id
_symmetry_equiv_pos_as_xyz
1 x,y,z
2 x,y,-z
3 1/2-x,1/2+y,z
4 1/2+x,1/2-y,z
5 -x,-y,-z
6 -x,-y,z
7 1/2+x,1/2-y,-z
8 1/2-x,1/2+y,-z
_cell_length_a                   14.7318(9)
_cell_length_b                   20.7684(13)
_cell_length_c                   7.5127(3)
_cell_angle_alpha                90
_cell_angle_beta                 90
_cell_angle_gamma                90
_cell_volume                     2298.56
loop_
_atom_site_label
_atom_site_type_symbol
_atom_site_fract_x
_atom_site_fract_y
_atom_site_fract_z
Mn2 Mn 0.0000 0.5000 0.0000
N7 N -0.1561(5) 0.5064(3) 0.0000
C8 C -0.2035(4) 0.5105(3) -0.1506(10)
H7 H -0.1732 0.5070 -0.2619
C9 C -0.2977(4) 0.5198(3) -0.1463(14)
N8 N -0.3439(6) 0.5256(4) 0.0000
C10 C -0.3556(9) 0.5222(5) -0.2773(15)
H8 H -0.4168 0.5294 -0.2299
H9 H -0.3542 0.4815 -0.3431
H10 H -0.3394 0.5576 -0.3574
N9 N 0.0058(3) 0.5725(2) -0.2119(6)
C11 C 0.0078(4) 0.5955(2) -0.3510(7)
N10 N 0.0112(6) 0.6269(3) -0.5000
C9A C -0.2977(4) 0.5198(3) 0.1463(14)
C8A C -0.2035(4) 0.5105(3) 0.1506(10)
H7A H -0.1732 0.5070 0.2619
C10A C -0.3556(9) 0.5222(5) 0.2773(15)
H8A H -0.4168 0.5294 0.2299
H9A H -0.3542 0.4815 0.3431
H10A H -0.3394 0.5576 0.3574
C11A C 0.0078(4) 0.5955(2) -0.6490(7)
N9A N 0.0058(3) 0.5725(2) -0.7881(6)
N7D N 0.1561(5) 0.4936(3) 0.0000
C8D C 0.2035(4) 0.4895(3) 0.1506(10)
H7D H 0.1732 0.4930 0.2619
C9D C 0.2977(4) 0.4802(3) 0.1463(14)
N8D N 0.3439(6) 0.4744(4) 0.0000
C10D C 0.3556(9) 0.4778(5) 0.2773(15)
H8D H 0.4168 0.4706 0.2299
H9D H 0.3542 0.5185 0.3431
H10D H 0.3394 0.4424 0.3574
C9E C 0.2977(4) 0.4802(3) -0.1463(14)
C8E C 0.2035(4) 0.4895(3) -0.1506(10)
H7E H 0.1732 0.4930 -0.2619
C10E C 0.3556(9) 0.4778(5) -0.2773(15)
H8E H 0.4168 0.4706 -0.2299
H9E H 0.3542 0.5185 -0.3431
H10E H 0.3394 0.4424 -0.3574
N9A_2 N 0.0058(3) 0.5725(2) 0.2119(6)
C11A_2 C 0.0078(4) 0.5955(2) 0.3510(7)
N10A N 0.0112(6) 0.6269(3) 0.5000
C11_2 C 0.0078(4) 0.5955(2) 0.6490(7)
N9_2 N 0.0058(3) 0.5725(2) 0.7881(6)
N9D N -0.0058(3) 0.4275(2) 0.2119(6)
N9E N -0.0058(3) 0.4275(2) -0.2119(6)
Mn2_2 Mn 0.0000 0.5000 -1.0000
Mn2_3 Mn 0.0000 0.5000 1.0000
N11 N 0.0156(19) 0.1176(15) -1.5000
C12 C -0.0115(14) 0.1669(12) -1.5000
C13 C 0.0076(19) 0.2231(15) -1.5000
Mn1 Mn 0.22589(6) 0.23731(5) -1.0000
N1 N 0.0685(3) 0.2310(2) -1.0000
C1 C 0.0288(4) 0.2893(3) -1.0000
H1 H 0.0663 0.3265 -1.0000
C2 C -0.0642(4) 0.2972(3) -1.0000
H2 H -0.0892 0.3394 -1.0000
N2 N -0.1198(3) 0.2455(2) -1.0000
C3 C -0.0808(5) 0.1879(3) -1.0000
H3 H -0.1184 0.1508 -1.0000
C4 C 0.0132(4) 0.1798(3) -1.0000
C5 C 0.0545(5) 0.1139(3) -1.0000
H4 H 0.1208 0.1176 -1.0000
H5 H 0.0349 0.0905 -1.1065
H6 H 0.0349 0.0905 -0.8935
N3 N 0.2141(3) 0.31217(18) -0.7893(5)
C6 C 0.2134(3) 0.3350(2) -0.6499(6)
N4 N 0.2121(6) 0.3666(3) -0.5000
N5 N 0.2473(2) 0.16584(19) -0.7877(5)
C7 C 0.2533(3) 0.1427(2) -0.6486(6)
N6 N 0.2610(5) 0.1105(3) -0.5000
C6A C 0.2134(3) 0.3350(2) -0.3501(6)
N3A N 0.2141(3) 0.31217(18) -0.2107(5)
C7A C 0.2533(3) 0.1427(2) -0.3514(6)
N5A N 0.2473(2) 0.16584(19) -0.2123(5)
N1C N 0.5685(3) 0.2690(2) -1.0000
C1C C 0.5288(4) 0.2107(3) -1.0000
H1C H 0.5663 0.1735 -1.0000
C2C C 0.4358(4) 0.2028(3) -1.0000
H2C H 0.4108 0.1606 -1.0000
N2C N 0.3802(3) 0.2545(2) -1.0000
C3C C 0.4192(5) 0.3121(3) -1.0000
H3C H 0.3816 0.3492 -1.0000
C4C C 0.5132(4) 0.3202(3) -1.0000
C5C C 0.5545(5) 0.3861(3) -1.0000
H4C H 0.6208 0.3824 -1.0000
H5C H 0.5349 0.4095 -1.1065
H6C H 0.5349 0.4095 -0.8935
N3A_2 N 0.2141(3) 0.31217(18) -1.2107(5)
C6A_2 C 0.2134(3) 0.3350(2) -1.3501(6)
N4A N 0.2121(6) 0.3666(3) -1.5000
C6_2 C 0.2134(3) 0.3350(2) -1.6499(6)
N3_2 N 0.2141(3) 0.31217(18) -1.7893(5)
N5A_2 N 0.2473(2) 0.16584(19) -1.2123(5)
C7A_2 C 0.2533(3) 0.1427(2) -1.3514(6)
N6A N 0.2610(5) 0.1105(3) -1.5000
C7_2 C 0.2533(3) 0.1427(2) -1.6486(6)
N5_2 N 0.2473(2) 0.16584(19) -1.7877(5)
Mn1C Mn 0.72589(6) 0.26269(5) -1.0000
Mn1C_2 Mn -0.27411(6) 0.26269(5) -1.0000
Mn1_2 Mn 0.22589(6) 0.23731(5) 0.0000
Mn1_3 Mn 0.22589(6) 0.23731(5) -2.0000
N2_2 N 0.8802(3) 0.2455(2) -1.0000
N3C N 0.7141(3) 0.18783(18) -0.7893(5)
N3F N 0.7141(3) 0.18783(18) -1.2107(5)
N5C N 0.7473(2) 0.33416(19) -0.7877(5)
N5F N 0.7473(2) 0.33416(19) -1.2123(5)
C14? C -0.0743(12) 0.2244(8) -1.5000
loop_
_geom_bond_atom_site_label_1
_geom_bond_atom_site_label_2
_geom_bond_site_symmetry_1
_geom_bond_site_symmetry_2
Mn1 N1 1_555 1_555
Mn2 N7 1_555 1_555
N1 C1 1_555 1_555
C1 H1 1_555 1_555
C2 C1 1_555 1_555
H2 C2 1_555 1_555
N2 C2 1_555 1_555
C3 N2 1_555 1_555
H3 C3 1_555 1_555
C4 N1 1_555 1_555
C5 C4 1_555 1_555
H4 C5 1_555 1_555
H5 C5 1_555 1_555
H6 C5 1_555 1_555
N3 Mn1 1_555 1_555
C6 N3 1_555 1_555
N4 C6 1_555 1_555
N5 Mn1 1_555 1_555
C7 N5 1_555 1_555
N6 C7 1_555 1_555
N7 C8 1_555 1_555
C8 H7 1_555 1_555
C9 C8 1_555 1_555
N8 C9 1_555 1_555
C10 C9 1_555 1_555
H8 C10 1_555 1_555
H9 C10 1_555 1_555
H10 C10 1_555 1_555
N9 Mn2 1_555 1_555
C11 N9 1_555 1_555
N10 C11 1_555 1_555
N11 C12 1_555 1_555
C12 C13 1_555 1_555
C6A N4 1_555 1_555
N3A C6A 1_555 1_555
C7A N6 1_555 1_555
N5A C7A 1_555 1_555
C9A N8 1_555 1_555
C8A N7 1_555 1_555
H7A C8A 1_555 1_555
C10A C9A 1_555 1_555
H8A C10A 1_555 1_555
H9A C10A 1_555 1_555
H10A C10A 1_555 1_555
C11A N10 1_555 1_555
N9A C11A 1_555 1_555
N7D Mn2 1_555 1_555
C8D N7D 1_555 1_555
H7D C8D 1_555 1_555
C9D C8D 1_555 1_555
N8D C9D 1_555 1_555
C10D C9D 1_555 1_555
H8D C10D 1_555 1_555
H9D C10D 1_555 1_555
H10D C10D 1_555 1_555
C9E N8D 1_555 1_555
C8E N7D 1_555 1_555
H7E C8E 1_555 1_555
C10E C9E 1_555 1_555
H8E C10E 1_555 1_555
H9E C10E 1_555 1_555
H10E C10E 1_555 1_555
N9A_2 Mn2 1_555 1_555
C11A_2 N9A_2 1_555 1_555
N10A C11A_2 1_555 1_555
C11_2 N10A 1_555 1_555
N9_2 C11_2 1_555 1_555
N1C C1C 1_555 1_555
C1C H1C 1_555 1_555
C2C C1C 1_555 1_555
H2C C2C 1_555 1_555
N2C Mn1 1_555 1_555
C3C N2C 1_555 1_555
H3C C3C 1_555 1_555
C4C N1C 1_555 1_555
C5C C4C 1_555 1_555
H4C C5C 1_555 1_555
H5C C5C 1_555 1_555
H6C C5C 1_555 1_555
N3A_2 Mn1 1_555 1_555
C6A_2 N3A_2 1_555 1_555
N4A C6A_2 1_555 1_555
C6_2 N4A 1_555 1_555
N3_2 C6_2 1_555 1_555
N5A_2 Mn1 1_555 1_555
C7A_2 N5A_2 1_555 1_555
N6A C7A_2 1_555 1_555
C7_2 N6A 1_555 1_555
N5_2 C7_2 1_555 1_555
Mn1C N1C 1_555 1_555
N9D Mn2 1_555 1_555
N9E Mn2 1_555 1_555
Mn1C_2 N2 1_555 1_555
Mn1_2 N3A 1_555 1_555
Mn2_2 N9A 1_555 1_555
Mn2_3 N9_2 1_555 1_555
Mn1_3 N3_2 1_555 1_555
N2_2 Mn1C 1_555 1_555
N3C Mn1C 1_555 1_555
N3F Mn1C 1_555 1_555
N5C Mn1C 1_555 1_555
N5F Mn1C 1_555 1_555
C3 C4 1_555 1_555
N5A Mn1_2 1_555 1_555
C9A C8A 1_555 1_555
C9E C8E 1_555 1_555
C2C N2C 1_555 1_555
C3C C4C 1_555 1_555
N5_2 Mn1_3 1_555 1_555

#END
