
#######################################################################
#
#                 Cambridge Crystallographic Data Centre
#                                CCDC 
#
#######################################################################
#
# If this CIF has been generated from an entry in the Cambridge 
# Structural Database, then it will include bibliographic, chemical, 
# crystal, experimental, refinement or atomic coordinate data resulting 
# from the CCDC's data processing and validation procedures.
#
#######################################################################

data_EBATOS
_symmetry_cell_setting           monoclinic
_symmetry_space_group_name_H-M   'P 21/c'
_symmetry_Int_Tables_number      14
_space_group_name_Hall           '-P 2ybc'
loop_
_symmetry_equiv_pos_site_id
_symmetry_equiv_pos_as_xyz
1 x,y,z
2 -x,1/2+y,1/2-z
3 -x,-y,-z
4 x,1/2-y,1/2+z
_cell_length_a                   10.537(3)
_cell_length_b                   19.554(5)
_cell_length_c                   15.509(3)
_cell_angle_alpha                90
_cell_angle_beta                 115.781(14)
_cell_angle_gamma                90
_cell_volume                     2877.41
loop_
_atom_site_label
_atom_site_type_symbol
_atom_site_fract_x
_atom_site_fract_y
_atom_site_fract_z
Cd1 Cd 0.64049(4) 1.16646(2) 0.34916(3)
C1 C 0.2865(8) 1.0615(4) 0.4555(5)
H1 H 0.2182 1.0418 0.4705
C2 C 0.3305(9) 1.1278(4) 0.4833(6)
H2 H 0.2949 1.1527 0.5190
C3 C 0.4277(8) 1.1565(4) 0.4572(6)
H3 H 0.4559 1.2014 0.4752
C4 C 0.4422(7) 1.0579(3) 0.3815(5)
H4 H 0.4800 1.0338 0.3464
C5 C 0.3440(6) 1.0249(3) 0.4057(4)
C6 C 0.3383(7) 0.9143(3) 0.3258(5)
C7 C 0.2666(7) 0.8455(3) 0.3028(5)
C8 C 0.3218(7) 0.7991(3) 0.2606(5)
H5 H 0.4029 0.8111 0.2545
C9 C 0.1468(6) 0.7225(3) 0.2353(5)
H6 H 0.1035 0.6808 0.2110
C10 C 0.0852(6) 0.7652(3) 0.2767(4)
C11 C 0.1472(7) 0.8278(3) 0.3113(5)
H7 H 0.1081 0.8575 0.3401
C12 C -0.0526(7) 0.7437(4) 0.2724(5)
C13 C -0.1871(7) 0.7268(3) 0.3668(5)
C14 C -0.1777(7) 0.7159(4) 0.4576(5)
H8 H -0.0937 0.7242 0.5116
C15 C -0.2945(8) 0.6926(4) 0.4669(5)
H9 H -0.2904 0.6853 0.5273
C16 C -0.4177(8) 0.6800(4) 0.3858(6)
H10 H -0.4954 0.6631 0.3926
C17 C -0.3177(6) 0.7148(3) 0.2891(5)
H11 H -0.3267 0.7237 0.2278
C18 C 0.7098(11) 0.8959(5) 0.2461(8)
H12 H 0.7452 0.8926 0.3143
H13 H 0.7827 0.8833 0.2277
H14 H 0.6309 0.8657 0.2159
C19 C 0.5883(13) 0.9792(6) 0.1145(7)
H15 H 0.4913 0.9667 0.0937
H16 H 0.6280 0.9525 0.0803
H17 H 0.5944 1.0269 0.1021
O1 O 0.9615(8) 1.1266(4) 0.4485(6)
C20 C 0.6878(8) 1.0155(4) 0.2765(5)
H18 H 0.7394 1.0051 0.3410
N1 N 0.4841(5) 1.1224(3) 0.4066(4)
N2 N 0.3016(6) 0.9569(3) 0.3807(4)
H26 H 0.2458 0.9402 0.4025
N3 N 0.2637(5) 0.7373(3) 0.2279(4)
N4 N -0.0698(6) 0.7488(3) 0.3540(4)
H27 H -0.0021 0.7674 0.4025
N5 N -0.4289(5) 0.6914(3) 0.2982(4)
N6 N 0.9205(6) 1.0945(3) 0.4979(4)
N7 N 0.6653(8) 0.9662(3) 0.2159(5)
N8 N 0.6940(8) 1.2902(3) 0.4728(5)
O2 O 0.4220(6) 0.9301(3) 0.2949(4)
O3 O -0.1441(7) 0.7230(5) 0.1974(5)
O4 O 0.6470(7) 1.0752(3) 0.2564(4)
O5 O 0.7893(5) 1.0932(3) 0.4764(3)
O6 O 0.9988(7) 1.0647(4) 0.5705(5)
O7 O 0.7833(7) 1.2435(3) 0.4827(4)
O8 O 0.5747(6) 1.2821(3) 0.4064(4)
O9 O 0.7251(12) 1.3385(4) 0.5269(7)
Cd1A Cd 0.35951(4) 0.66646(2) 0.15084(3)
Cd1A_2 Cd -0.64049(4) 0.66646(2) 0.15084(3)
N3A N 0.7363(5) 1.2373(3) 0.2721(4)
N5A N 0.4289(5) 1.1914(3) 0.2018(4)
C21 C 0.018(3) 0.0481(13) 0.1774(18)
H19 H -0.0680 0.0650 0.1277
H20 H 0.0817 0.0856 0.2061
H21 H -0.0013 0.0255 0.2253
C22 C 0.201(2) 0.0208(14) 0.1134(13)
H22 H 0.1665 0.0534 0.0620
H23 H 0.2384 -0.0182 0.0947
H24 H 0.2741 0.0415 0.1690
C23 C 0.045(2) -0.0610(10) 0.1159(12)
H25 H 0.0908 -0.0880 0.0888
N9 N 0.0840(18) -0.0011(8) 0.1361(10)
O10 O -0.0540(15) -0.0878(6) 0.1298(9)
loop_
_geom_bond_atom_site_label_1
_geom_bond_atom_site_label_2
_geom_bond_site_symmetry_1
_geom_bond_site_symmetry_2
Cd1 N1 1_555 1_555
C1 H1 1_555 1_555
C2 C1 1_555 1_555
H2 C2 1_555 1_555
C3 C2 1_555 1_555
H3 C3 1_555 1_555
C4 H4 1_555 1_555
C5 C1 1_555 1_555
C6 C7 1_555 1_555
C7 C8 1_555 1_555
C8 H5 1_555 1_555
C9 H6 1_555 1_555
C10 C9 1_555 1_555
C11 C7 1_555 1_555
H7 C11 1_555 1_555
C12 C10 1_555 1_555
C13 C14 1_555 1_555
C14 H8 1_555 1_555
C15 C14 1_555 1_555
H9 C15 1_555 1_555
C16 C15 1_555 1_555
H10 C16 1_555 1_555
C17 C13 1_555 1_555
H11 C17 1_555 1_555
C18 H12 1_555 1_555
H13 C18 1_555 1_555
H14 C18 1_555 1_555
C19 H15 1_555 1_555
H16 C19 1_555 1_555
H17 C19 1_555 1_555
O1 N6 1_555 1_555
C20 H18 1_555 1_555
C21 H19 1_555 1_555
H20 C21 1_555 1_555
H21 C21 1_555 1_555
C22 H22 1_555 1_555
H23 C22 1_555 1_555
H24 C22 1_555 1_555
C23 H25 1_555 1_555
N1 C3 1_555 1_555
N2 C5 1_555 1_555
H26 N2 1_555 1_555
N3 C8 1_555 1_555
N4 C12 1_555 1_555
H27 N4 1_555 1_555
N5 C16 1_555 1_555
N6 O5 1_555 1_555
N7 C18 1_555 1_555
N8 O7 1_555 1_555
N9 C21 1_555 1_555
O2 C6 1_555 1_555
O3 C12 1_555 1_555
O4 Cd1 1_555 1_555
O5 Cd1 1_555 1_555
O6 N6 1_555 1_555
O7 Cd1 1_555 1_555
O8 Cd1 1_555 1_555
O9 N8 1_555 1_555
O10 C23 1_555 1_555
Cd1A N3 1_555 1_555
Cd1A_2 N5 1_555 1_555
N3A Cd1 1_555 1_555
N5A Cd1 1_555 1_555
C4 C5 1_555 1_555
C4 N1 1_555 1_555
C6 N2 1_555 1_555
C9 N3 1_555 1_555
C10 C11 1_555 1_555
C13 N4 1_555 1_555
C17 N5 1_555 1_555
C19 N7 1_555 1_555
C20 N7 1_555 1_555
C20 O4 1_555 1_555
C22 N9 1_555 1_555
C23 N9 1_555 1_555
N8 O8 1_555 1_555

#END
