
#######################################################################
#
#                 Cambridge Crystallographic Data Centre
#                                CCDC 
#
#######################################################################
#
# If this CIF has been generated from an entry in the Cambridge 
# Structural Database, then it will include bibliographic, chemical, 
# crystal, experimental, refinement or atomic coordinate data resulting 
# from the CCDC's data processing and validation procedures.
#
#######################################################################

data_EBAVIN
_symmetry_cell_setting           monoclinic
_symmetry_space_group_name_H-M   'C 2/c'
_symmetry_Int_Tables_number      15
_space_group_name_Hall           '-C 2yn'
loop_
_symmetry_equiv_pos_site_id
_symmetry_equiv_pos_as_xyz
1 x,y,z
2 1/2+x,1/2+y,z
3 x,-y,1/2+z
4 1/2+x,1/2-y,1/2+z
5 -x,-y,-z
6 1/2-x,1/2-y,-z
7 -x,y,1/2-z
8 1/2-x,1/2+y,1/2-z
_cell_length_a                   24.813(3)
_cell_length_b                   10.9820(10)
_cell_length_c                   19.813(3)
_cell_angle_alpha                90
_cell_angle_beta                 109.880(10)
_cell_angle_gamma                90
_cell_volume                     5077.23
loop_
_atom_site_label
_atom_site_type_symbol
_atom_site_fract_x
_atom_site_fract_y
_atom_site_fract_z
Cu1 Cu 0.27684(3) 0.07638(7) 0.11239(4)
O1 O 0.32567(16) 0.1625(4) 0.1940(2)
N1 N 0.20876(17) 0.1726(4) 0.1137(2)
N2 N 0.1169(2) 0.2358(5) 0.0902(3)
O2 O 0.06386(17) 0.2489(5) 0.0606(2)
C1 C 0.3140(2) 0.2357(6) 0.2355(3)
C2 C 0.3643(3) 0.2832(7) 0.2980(4)
H1 H 0.3570 0.3680 0.3056
H2 H 0.3655 0.2388 0.3408
C3 C 0.4188(3) 0.2751(12) 0.2906(5)
H3 H 0.4169 0.3142 0.2460
H4 H 0.4276 0.1899 0.2870
C4 C 0.4667(4) 0.3312(11) 0.3504(6)
H5 H 0.5019 0.3221 0.3408
H6 H 0.4700 0.2914 0.3947
H7 H 0.4590 0.4162 0.3539
C5 C 0.2577(2) 0.2732(5) 0.2271(3)
C6 C 0.2506(2) 0.3532(6) 0.2801(3)
N3 N 0.2458(2) 0.4152(5) 0.3232(3)
C7 C 0.2087(2) 0.2412(5) 0.1670(3)
C8 C 0.1491(2) 0.2852(5) 0.1605(3)
C9 C 0.1276(3) 0.2285(6) 0.2176(3)
H8 H 0.1327 0.1418 0.2182
H9 H 0.0877 0.2470 0.2065
H10 H 0.1491 0.2612 0.2639
C10 C 0.1412(3) 0.4253(6) 0.1572(3)
H11 H 0.1548 0.4582 0.1211
H12 H 0.1626 0.4600 0.2030
H13 H 0.1014 0.4446 0.1456
C11 C 0.1519(2) 0.1647(5) 0.0578(3)
C12 C 0.1506(3) 0.2244(5) -0.0116(3)
H14 H 0.1650 0.3060 -0.0020
H15 H 0.1119 0.2264 -0.0444
H16 H 0.1740 0.1787 -0.0324
C13 C 0.1290(2) 0.0338(5) 0.0462(3)
H17 H 0.1304 -0.0003 0.0914
H18 H 0.1522 -0.0143 0.0262
H19 H 0.0901 0.0342 0.0139
O3 O 0.24101(16) 0.0194(4) 0.01582(19)
O4 O 0.34906(15) -0.0006(4) 0.1156(2)
C14 C 0.2650(3) -0.0450(5) -0.0194(3)
C15 C 0.3186(2) -0.0853(6) 0.0007(3)
H20 H 0.3293 -0.1334 -0.0313
C16 C 0.3607(2) -0.0587(5) 0.0687(3)
C17 C 0.2246(3) -0.0735(8) -0.0939(3)
F1 F 0.1979(3) 0.0207(6) -0.1272(2)
F2 F 0.1856(3) -0.1450(7) -0.0949(3)
F3 F 0.2479(2) -0.1129(6) -0.1376(3)
C18 C 0.4224(3) -0.0995(6) 0.0864(4)
C19 C 0.4275(5) -0.2171(13) 0.0640(14)
H21 H 0.4673 -0.2380 0.0771
H22 H 0.4098 -0.2221 0.0128
H23 H 0.4089 -0.2727 0.0864
C20 C 0.4512(4) -0.0246(13) 0.0557(9)
H24 H 0.4557 0.0540 0.0781
H25 H 0.4299 -0.0166 0.0054
H26 H 0.4882 -0.0585 0.0619
C21 C 0.4516(5) -0.106(2) 0.1592(6)
H27 H 0.4434 -0.0348 0.1821
H28 H 0.4920 -0.1103 0.1677
H29 H 0.4397 -0.1772 0.1784
N3G N 0.2542(2) -0.0848(5) 0.1768(3)
Cu1G Cu 0.22316(3) 0.57638(7) 0.38761(4)
loop_
_geom_bond_atom_site_label_1
_geom_bond_atom_site_label_2
_geom_bond_site_symmetry_1
_geom_bond_site_symmetry_2
Cu1 O1 1_555 1_555
O1 C1 1_555 1_555
N1 Cu1 1_555 1_555
N2 O2 1_555 1_555
C1 C2 1_555 1_555
C2 H1 1_555 1_555
H2 C2 1_555 1_555
C3 C2 1_555 1_555
H3 C3 1_555 1_555
H4 C3 1_555 1_555
C4 C3 1_555 1_555
H5 C4 1_555 1_555
H6 C4 1_555 1_555
H7 C4 1_555 1_555
C5 C1 1_555 1_555
C6 C5 1_555 1_555
N3 C6 1_555 1_555
C7 N1 1_555 1_555
C8 N2 1_555 1_555
C9 C8 1_555 1_555
H8 C9 1_555 1_555
H9 C9 1_555 1_555
H10 C9 1_555 1_555
C10 C8 1_555 1_555
H11 C10 1_555 1_555
H12 C10 1_555 1_555
H13 C10 1_555 1_555
C11 N1 1_555 1_555
C12 C11 1_555 1_555
H14 C12 1_555 1_555
H15 C12 1_555 1_555
H16 C12 1_555 1_555
C13 C11 1_555 1_555
H17 C13 1_555 1_555
H18 C13 1_555 1_555
H19 C13 1_555 1_555
O3 Cu1 1_555 1_555
O4 Cu1 1_555 1_555
C14 O3 1_555 1_555
C15 C14 1_555 1_555
H20 C15 1_555 1_555
C16 O4 1_555 1_555
C17 C14 1_555 1_555
F1 C17 1_555 1_555
F2 C17 1_555 1_555
F3 C17 1_555 1_555
C18 C16 1_555 1_555
C19 C18 1_555 1_555
H21 C19 1_555 1_555
H22 C19 1_555 1_555
H23 C19 1_555 1_555
C20 C18 1_555 1_555
H24 C20 1_555 1_555
H25 C20 1_555 1_555
H26 C20 1_555 1_555
C21 C18 1_555 1_555
H27 C21 1_555 1_555
H28 C21 1_555 1_555
H29 C21 1_555 1_555
N3G Cu1 1_555 1_555
Cu1G N3 1_555 1_555
N2 C11 1_555 1_555
C5 C7 1_555 1_555
C7 C8 1_555 1_555
C15 C16 1_555 1_555

#END
