
#######################################################################
#
#                 Cambridge Crystallographic Data Centre
#                                CCDC 
#
#######################################################################
#
# If this CIF has been generated from an entry in the Cambridge 
# Structural Database, then it will include bibliographic, chemical, 
# crystal, experimental, refinement or atomic coordinate data resulting 
# from the CCDC's data processing and validation procedures.
#
#######################################################################

data_EBAVOT
_symmetry_cell_setting           monoclinic
_symmetry_space_group_name_H-M   'P n'
_symmetry_Int_Tables_number      7
_space_group_name_Hall           'P -2yac'
loop_
_symmetry_equiv_pos_site_id
_symmetry_equiv_pos_as_xyz
1 x,y,z
2 1/2+x,-y,1/2+z
_cell_length_a                   14.202(3)
_cell_length_b                   11.2450(10)
_cell_length_c                   16.650(2)
_cell_angle_alpha                90
_cell_angle_beta                 101.780(10)
_cell_angle_gamma                90
_cell_volume                     2603.03
loop_
_atom_site_label
_atom_site_type_symbol
_atom_site_fract_x
_atom_site_fract_y
_atom_site_fract_z
Cu1 Cu -0.25340(8) 0.0799(2) 0.09210(7)
Cu2 Cu -0.47337(8) 0.5799(2) -0.24992(7)
O1 O -0.3720(9) 0.1573(13) 0.0640(8)
N1 N -0.1965(10) 0.1777(14) 0.0132(8)
N2 N -0.0978(11) 0.2452(14) -0.0664(9)
O2 O -0.0227(11) 0.2654(14) -0.0970(9)
C1 C -0.4010(10) 0.2338(15) 0.0079(11)
C2 C -0.5015(11) 0.2739(16) 0.0050(8)
H1 H -0.5150 0.3358 -0.0363
H2 H -0.5431 0.2074 -0.0153
C3 C -0.5302(12) 0.316(3) 0.0736(12)
H3 H -0.5656 0.2500 0.0903
H4 H -0.5785 0.3751 0.0518
C4 C -0.4826(19) 0.366(3) 0.1488(11)
H5 H -0.4439 0.3006 0.1755
H6 H -0.4370 0.4206 0.1324
C5 C -0.510(2) 0.426(3) 0.214(2)
H7 H -0.4539 0.4553 0.2511
H8 H -0.5434 0.3713 0.2434
H9 H -0.5517 0.4907 0.1938
C6 C -0.3494(11) 0.2773(15) -0.0419(10)
C7 C -0.3871(15) 0.365(2) -0.1022(13)
N3 N -0.4267(12) 0.4248(15) -0.1544(8)
C8 C -0.2445(13) 0.2427(16) -0.0385(10)
C9 C -0.1905(12) 0.2976(15) -0.1054(10)
C10 C -0.1709(12) 0.4277(16) -0.1093(9)
H10 H -0.1363 0.4428 -0.1521
H11 H -0.1331 0.4536 -0.0577
H12 H -0.2307 0.4704 -0.1205
C11 C -0.2348(15) 0.239(2) -0.1926(9)
H13 H -0.2011 0.2687 -0.2329
H14 H -0.3017 0.2595 -0.2083
H15 H -0.2281 0.1543 -0.1888
C12 C -0.0950(13) 0.1720(17) 0.0030(11)
C13 C -0.0702(15) 0.0388(17) -0.0152(12)
H16 H -0.1141 0.0112 -0.0632
H17 H -0.0759 -0.0103 0.0308
H18 H -0.0056 0.0346 -0.0241
C14 C -0.0234(12) 0.2215(16) 0.0766(10)
H19 H -0.0385 0.3031 0.0851
H20 H 0.0406 0.2162 0.0663
H21 H -0.0272 0.1761 0.1247
O3 O -0.3154(8) 0.0054(12) 0.1733(7)
O4 O -0.1293(9) 0.0191(14) 0.1474(8)
C15 C -0.1174(13) -0.0567(15) 0.2079(9)
C16 C -0.1751(14) -0.090(2) 0.2480(12)
H22 H -0.1522 -0.1387 0.2928
C17 C -0.2763(16) -0.0598(19) 0.2321(12)
C18 C -0.0179(18) -0.099(3) 0.2399(14)
F1 F 0.0410(12) 0.0017(16) 0.2531(11)
F2 F 0.0088(11) -0.1362(15) 0.3081(7)
F3 F 0.0131(10) -0.1526(13) 0.1819(9)
C19 C -0.3468(16) -0.0966(16) 0.2886(12)
C20 C -0.3811(16) -0.2160(17) 0.2651(10)
H23 H -0.4238 -0.2415 0.2996
H24 H -0.3274 -0.2694 0.2713
H25 H -0.4149 -0.2158 0.2089
C21 C -0.3042(12) -0.095(2) 0.3773(8)
H26 H -0.2868 -0.0154 0.3944
H27 H -0.2479 -0.1447 0.3878
H28 H -0.3502 -0.1250 0.4073
C22 C -0.4347(19) -0.021(3) 0.2749(18)
H29 H -0.4166 0.0606 0.2875
H30 H -0.4766 -0.0469 0.3099
H31 H -0.4675 -0.0265 0.2187
N4 N -0.5268(10) 0.6766(13) -0.1713(9)
O5 O -0.3538(9) 0.6681(13) -0.2218(8)
N5 N -0.6266(12) 0.7411(16) -0.0853(9)
O6 O -0.6985(11) 0.7551(15) -0.0565(9)
C23 C -0.3240(14) 0.7431(17) -0.1675(10)
C24 C -0.2202(12) 0.788(2) -0.1616(13)
H32 H -0.1958 0.8227 -0.1082
H33 H -0.1785 0.7224 -0.1696
C25 C -0.2382(18) 0.844(3) -0.2910(18)
H34 H -0.1918 0.7806 -0.2915
H35 H -0.3020 0.8090 -0.3017
C26 C -0.2245(16) 0.8864(16) -0.233(2)
H36 H -0.1638 0.9288 -0.2254
H37 H -0.2750 0.9435 -0.2308
C27 C -0.230(2) 0.942(3) -0.3618(18)
H38 H -0.2466 0.9057 -0.4149
H39 H -0.2734 1.0068 -0.3587
H40 H -0.1654 0.9719 -0.3532
C28 C -0.3814(14) 0.7819(17) -0.1089(11)
C29 C -0.3316(14) 0.8593(17) -0.0479(12)
N6 N -0.2967(12) 0.9291(14) -0.0013(10)
C30 C -0.4758(12) 0.7530(16) -0.1143(10)
C31 C -0.5308(12) 0.791(2) -0.0566(11)
C32 C -0.5340(13) 0.9341(17) -0.0521(12)
H41 H -0.5572 0.9658 -0.1060
H42 H -0.5762 0.9578 -0.0167
H43 H -0.4705 0.9640 -0.0308
C33 C -0.5000(15) 0.7472(17) 0.0271(11)
H44 H -0.4999 0.6618 0.0269
H45 H -0.4363 0.7757 0.0495
H46 H -0.5435 0.7753 0.0601
C34 C -0.6255(11) 0.6644(16) -0.1611(10)
C35 C -0.6933(14) 0.7223(19) -0.2336(13)
H47 H -0.6934 0.6768 -0.2824
H48 H -0.7572 0.7248 -0.2230
H49 H -0.6718 0.8018 -0.2410
C36 C -0.6543(15) 0.5444(15) -0.1387(13)
H50 H -0.6063 0.5135 -0.0945
H51 H -0.7148 0.5491 -0.1218
H52 H -0.6604 0.4926 -0.1854
O7 O -0.5924(9) 0.5142(12) -0.3048(7)
O8 O -0.4121(10) 0.5113(14) -0.3346(8)
C37 C -0.6052(14) 0.4546(18) -0.3687(13)
C38 C -0.5361(14) 0.4111(18) -0.4138(10)
H53 H -0.5560 0.3575 -0.4564
C39 C -0.4418(12) 0.4462(16) -0.3958(10)
C40 C -0.7139(13) 0.4115(16) -0.3872(13)
F4 F -0.7234(10) 0.3207(13) -0.4429(10)
F5 F -0.7662(9) 0.4987(14) -0.4185(11)
F6 F -0.7511(9) 0.3807(15) -0.3329(7)
C41 C -0.3733(13) 0.409(2) -0.4494(9)
C42 C -0.408(2) 0.291(2) -0.492(2)
H54 H -0.3636 0.2649 -0.5244
H55 H -0.4127 0.2318 -0.4512
H56 H -0.4705 0.3022 -0.5266
C43 C -0.2789(11) 0.399(3) -0.4044(11)
H57 H -0.2601 0.4726 -0.3764
H58 H -0.2755 0.3361 -0.3649
H59 H -0.2365 0.3817 -0.4409
C44 C -0.379(2) 0.495(3) -0.5069(15)
H60 H -0.3550 0.5684 -0.4811
H61 H -0.3420 0.4727 -0.5465
H62 H -0.4453 0.5055 -0.5339
N6_2 N -0.2967(12) -0.0709(14) -0.0013(10)
Cu1_2 Cu -0.25340(8) 1.0799(2) 0.09210(7)
loop_
_geom_bond_atom_site_label_1
_geom_bond_atom_site_label_2
_geom_bond_site_symmetry_1
_geom_bond_site_symmetry_2
Cu1 O1 1_555 1_555
Cu2 N3 1_555 1_555
O1 C1 1_555 1_555
N1 Cu1 1_555 1_555
N2 O2 1_555 1_555
C1 C2 1_555 1_555
C2 H1 1_555 1_555
H2 C2 1_555 1_555
C3 C2 1_555 1_555
H3 C3 1_555 1_555
H4 C3 1_555 1_555
C4 C3 1_555 1_555
H5 C4 1_555 1_555
H6 C4 1_555 1_555
C5 C4 1_555 1_555
H7 C5 1_555 1_555
H8 C5 1_555 1_555
H9 C5 1_555 1_555
C6 C1 1_555 1_555
C7 C6 1_555 1_555
N3 C7 1_555 1_555
C8 N1 1_555 1_555
C9 N2 1_555 1_555
C10 C9 1_555 1_555
H10 C10 1_555 1_555
H11 C10 1_555 1_555
H12 C10 1_555 1_555
C11 C9 1_555 1_555
H13 C11 1_555 1_555
H14 C11 1_555 1_555
H15 C11 1_555 1_555
C12 N1 1_555 1_555
C13 C12 1_555 1_555
H16 C13 1_555 1_555
H17 C13 1_555 1_555
H18 C13 1_555 1_555
C14 C12 1_555 1_555
H19 C14 1_555 1_555
H20 C14 1_555 1_555
H21 C14 1_555 1_555
O3 Cu1 1_555 1_555
O4 Cu1 1_555 1_555
C15 O4 1_555 1_555
C16 C15 1_555 1_555
H22 C16 1_555 1_555
C17 O3 1_555 1_555
C18 C15 1_555 1_555
F1 C18 1_555 1_555
F2 C18 1_555 1_555
F3 C18 1_555 1_555
C19 C17 1_555 1_555
C20 C19 1_555 1_555
H23 C20 1_555 1_555
H24 C20 1_555 1_555
H25 C20 1_555 1_555
C21 C19 1_555 1_555
H26 C21 1_555 1_555
H27 C21 1_555 1_555
H28 C21 1_555 1_555
C22 C19 1_555 1_555
H29 C22 1_555 1_555
H30 C22 1_555 1_555
H31 C22 1_555 1_555
N4 Cu2 1_555 1_555
O5 Cu2 1_555 1_555
N5 O6 1_555 1_555
C23 O5 1_555 1_555
C24 C23 1_555 1_555
H32 C24 1_555 1_555
H33 C24 1_555 1_555
C25 H34 1_555 1_555
H35 C25 1_555 1_555
C26 C24 1_555 1_555
H36 C26 1_555 1_555
H37 C26 1_555 1_555
C27 C25 1_555 1_555
H38 C27 1_555 1_555
H39 C27 1_555 1_555
H40 C27 1_555 1_555
C28 C23 1_555 1_555
C29 C28 1_555 1_555
N6 C29 1_555 1_555
C30 N4 1_555 1_555
C31 N5 1_555 1_555
C32 C31 1_555 1_555
H41 C32 1_555 1_555
H42 C32 1_555 1_555
H43 C32 1_555 1_555
C33 C31 1_555 1_555
H44 C33 1_555 1_555
H45 C33 1_555 1_555
H46 C33 1_555 1_555
C34 N4 1_555 1_555
C35 C34 1_555 1_555
H47 C35 1_555 1_555
H48 C35 1_555 1_555
H49 C35 1_555 1_555
C36 C34 1_555 1_555
H50 C36 1_555 1_555
H51 C36 1_555 1_555
H52 C36 1_555 1_555
O7 Cu2 1_555 1_555
O8 Cu2 1_555 1_555
C37 O7 1_555 1_555
C38 C37 1_555 1_555
H53 C38 1_555 1_555
C39 O8 1_555 1_555
C40 C37 1_555 1_555
F4 C40 1_555 1_555
F5 C40 1_555 1_555
F6 C40 1_555 1_555
C41 C39 1_555 1_555
C42 C41 1_555 1_555
H54 C42 1_555 1_555
H55 C42 1_555 1_555
H56 C42 1_555 1_555
C43 C41 1_555 1_555
H57 C43 1_555 1_555
H58 C43 1_555 1_555
H59 C43 1_555 1_555
C44 C41 1_555 1_555
H60 C44 1_555 1_555
H61 C44 1_555 1_555
H62 C44 1_555 1_555
N6_2 Cu1 1_555 1_555
Cu1_2 N6 1_555 1_555
N2 C12 1_555 1_555
C6 C8 1_555 1_555
C8 C9 1_555 1_555
C16 C17 1_555 1_555
N5 C34 1_555 1_555
C25 C26 1_555 1_555
C28 C30 1_555 1_555
C30 C31 1_555 1_555
C38 C39 1_555 1_555

#END
