
#######################################################################
#
#                 Cambridge Crystallographic Data Centre
#                                CCDC 
#
#######################################################################
#
# If this CIF has been generated from an entry in the Cambridge 
# Structural Database, then it will include bibliographic, chemical, 
# crystal, experimental, refinement or atomic coordinate data resulting 
# from the CCDC's data processing and validation procedures.
#
#######################################################################

data_EBAVIM
_symmetry_cell_setting           monoclinic
_symmetry_space_group_name_H-M   'P 21'
_symmetry_Int_Tables_number      4
_space_group_name_Hall           'P 2yb'
loop_
_symmetry_equiv_pos_site_id
_symmetry_equiv_pos_as_xyz
1 x,y,z
2 -x,1/2+y,-z
_cell_length_a                   9.197(3)
_cell_length_b                   10.216(2)
_cell_length_c                   9.670(2)
_cell_angle_alpha                90
_cell_angle_beta                 106.78(2)
_cell_angle_gamma                90
_cell_volume                     869.874
loop_
_atom_site_label
_atom_site_type_symbol
_atom_site_fract_x
_atom_site_fract_y
_atom_site_fract_z
Cd1 Cd 0.04651(3) 0.0076(1) 0.12243(3)
O1 O 0.4991(3) 0.0233(4) 0.0221(3)
O2 O 0.3040(3) 0.0858(3) 0.1790(4)
O3 O 0.2164(3) -0.1155(3) 0.3029(3)
O4 O 0.3754(5) -0.3289(4) 0.2154(4)
O5 O 0.8650(3) -0.0518(3) 0.2532(3)
O6 O 0.7804(2) 0.0263(4) 0.0310(3)
O7 O 0.0839(4) 0.0310(3) -0.0994(3)
O8 O -0.0041(3) 0.2024(3) -0.3158(3)
O9 O 0.1932(3) 0.1855(3) -0.4868(3)
O10 O 0.3938(3) -0.0132(4) -0.3427(3)
O11 O -0.0309(3) -0.2919(3) -0.2239(3)
O12 O 0.0061(3) -0.1926(3) -0.0100(3)
C1 C 0.5947(4) -0.0267(4) 0.1546(4)
C2 C 0.5756(4) 0.0455(4) 0.2853(4)
C3 C 0.4150(4) 0.0312(4) 0.3013(4)
C4 C 0.3749(4) -0.1140(4) 0.3068(4)
C5 C 0.3994(4) -0.1936(4) 0.1842(4)
C6 C 0.5590(4) -0.1737(4) 0.1725(4)
C7 C 0.7583(4) -0.0168(4) 0.1462(4)
C8 C 0.0513(4) -0.0709(4) -0.2097(4)
C9 C -0.0703(4) -0.0233(4) -0.3446(4)
C10 C -0.0163(4) 0.0922(4) -0.4136(4)
C11 C 0.1365(4) 0.0663(4) -0.4416(4)
C12 C 0.2560(3) 0.0171(6) -0.3083(3)
C13 C 0.1987(4) -0.1030(4) -0.2467(4)
C14 C 0.0038(4) -0.1931(4) -0.1392(4)
H1 H 0.411(4) 0.041(4) 0.043(3)
H2 H 0.588(4) 0.129(4) 0.273(4)
H3 H 0.652(3) 0.024(5) 0.387(3)
H4 H 0.404(4) 0.076(4) 0.390(4)
H5 H 0.308(5) 0.139(5) 0.166(5)
H6 H 0.435(4) -0.165(4) 0.401(4)
H7 H 0.195(4) -0.188(4) 0.299(4)
H8 H 0.327(4) -0.175(4) 0.102(4)
H9 H 0.336(5) -0.369(4) 0.139(4)
H10 H 0.568(4) -0.215(4) 0.091(4)
H11 H 0.630(4) -0.204(4) 0.266(4)
H12 H 0.069(5) 0.068(4) -0.140(4)
H13 H -0.166(3) -0.010(5) -0.318(3)
H14 H -0.096(4) -0.096(4) -0.429(4)
H15 H -0.090(4) 0.106(4) -0.518(4)
H16 H 0.048(5) 0.242(4) -0.351(4)
H17 H 0.121(3) 0.032(4) -0.522(3)
H18 H 0.149(4) 0.201(4) -0.579(4)
H19 H 0.279(4) 0.089(3) -0.233(4)
H20 H 0.478(4) -0.061(4) -0.304(4)
H21 H 0.275(4) -0.132(4) -0.168(4)
H22 H 0.179(4) -0.174(4) -0.316(4)
O5_2 O -0.1350(3) -0.0518(3) 0.2532(3)
O6_2 O -0.2196(2) 0.0263(4) 0.0310(3)
O11A O 0.0309(3) 0.2081(3) 0.2239(3)
Cd1_2 Cd 1.04651(3) 0.0076(1) 0.12243(3)
Cd1A Cd -0.04651(3) -0.4924(1) -0.12243(3)
O13 O -0.6474(4) 0.3417(4) 0.1973(4)
loop_
_geom_bond_atom_site_label_1
_geom_bond_atom_site_label_2
_geom_bond_site_symmetry_1
_geom_bond_site_symmetry_2
Cd1 O2 1_555 1_555
O1 C1 1_555 1_555
O2 C3 1_555 1_555
O3 Cd1 1_555 1_555
O4 C5 1_555 1_555
O5 C7 1_555 1_555
O6 C7 1_555 1_555
O7 Cd1 1_555 1_555
O8 C10 1_555 1_555
O9 C11 1_555 1_555
O10 C12 1_555 1_555
O11 C14 1_555 1_555
O12 Cd1 1_555 1_555
C1 C2 1_555 1_555
C2 C3 1_555 1_555
C3 C4 1_555 1_555
C4 O3 1_555 1_555
C5 C4 1_555 1_555
C6 C1 1_555 1_555
C7 C1 1_555 1_555
C8 O7 1_555 1_555
C9 C8 1_555 1_555
C10 C9 1_555 1_555
C11 C10 1_555 1_555
C12 C11 1_555 1_555
C13 C8 1_555 1_555
C14 O12 1_555 1_555
H1 O1 1_555 1_555
H2 C2 1_555 1_555
H3 C2 1_555 1_555
H4 C3 1_555 1_555
H5 O2 1_555 1_555
H6 C4 1_555 1_555
H7 O3 1_555 1_555
H8 C5 1_555 1_555
H9 O4 1_555 1_555
H10 C6 1_555 1_555
H11 C6 1_555 1_555
H12 O7 1_555 1_555
H13 C9 1_555 1_555
H14 C9 1_555 1_555
H15 C10 1_555 1_555
H16 O8 1_555 1_555
H17 C11 1_555 1_555
H18 O9 1_555 1_555
H19 C12 1_555 1_555
H20 O10 1_555 1_555
H21 C13 1_555 1_555
H22 C13 1_555 1_555
O5_2 Cd1 1_555 1_555
O6_2 Cd1 1_555 1_555
O11A Cd1 1_555 1_555
Cd1_2 O5 1_555 1_555
Cd1A O11 1_555 1_555
O6 Cd1_2 1_555 1_555
C5 C6 1_555 1_555
C8 C14 1_555 1_555
C12 C13 1_555 1_555

#END
