
#######################################################################
#
#                 Cambridge Crystallographic Data Centre
#                                CCDC 
#
#######################################################################
#
# If this CIF has been generated from an entry in the Cambridge 
# Structural Database, then it will include bibliographic, chemical, 
# crystal, experimental, refinement or atomic coordinate data resulting 
# from the CCDC's data processing and validation procedures.
#
#######################################################################

data_EBAVEJ
_symmetry_cell_setting           monoclinic
_symmetry_space_group_name_H-M   'P n'
_symmetry_Int_Tables_number      7
_space_group_name_Hall           'P -2yac'
loop_
_symmetry_equiv_pos_site_id
_symmetry_equiv_pos_as_xyz
1 x,y,z
2 1/2+x,-y,1/2+z
_cell_length_a                   14.023(3)
_cell_length_b                   10.946(3)
_cell_length_c                   17.408(3)
_cell_angle_alpha                90
_cell_angle_beta                 102.47(2)
_cell_angle_gamma                90
_cell_volume                     2609.02
loop_
_atom_site_label
_atom_site_type_symbol
_atom_site_fract_x
_atom_site_fract_y
_atom_site_fract_z
Cu1 Cu -0.65042(9) -0.0802(2) 0.22383(8)
Cu2 Cu -0.42580(9) -0.5803(3) 0.56171(8)
O1 O -0.5833(9) -0.0041(14) 0.1418(7)
O2 O -0.7719(11) -0.0191(13) 0.1663(9)
C1 C -0.6163(13) 0.0517(18) 0.0862(13)
C2 C -0.7193(17) 0.0880(18) 0.0636(9)
H1 H -0.7381 0.1438 0.0228
C3 C -0.7864(17) 0.044(2) 0.0994(13)
C4 C -0.5561(16) 0.0960(19) 0.0339(14)
C5 C -0.554(3) 0.007(3) -0.023(2)
H2 H -0.6172 0.0032 -0.0583
H3 H -0.5394 -0.0707 0.0021
H4 H -0.5056 0.0276 -0.0518
C6 C -0.577(3) 0.211(2) 0.001(3)
H5 H -0.6431 0.2133 -0.0287
H6 H -0.5334 0.2290 -0.0334
H7 H -0.5686 0.2715 0.0420
C7 C -0.4503(17) 0.085(4) 0.0800(16)
H8 H -0.4409 0.1362 0.1258
H9 H -0.4069 0.1104 0.0473
H10 H -0.4368 0.0017 0.0958
C8 C -0.892(2) 0.073(3) 0.0798(18)
F1 F -0.9147(11) 0.1363(19) 0.0131(11)
F2 F -0.9427(11) -0.033(2) 0.0605(12)
F3 F -0.9299(11) 0.126(2) 0.1254(10)
O3 O -0.5253(10) -0.1640(14) 0.2550(8)
N1 N -0.7043(11) -0.1716(15) 0.3033(9)
N2 N -0.8110(11) -0.2222(15) 0.3815(10)
O4 O -0.8764(12) -0.2351(17) 0.4128(10)
C9 C -0.4936(16) -0.226(2) 0.3171(12)
C10 C -0.3891(14) -0.2657(19) 0.3306(14)
H11 H -0.3584 -0.2275 0.2926
H12 H -0.3864 -0.3529 0.3252
H13 H -0.3556 -0.2425 0.3826
C11 C -0.5553(14) -0.2715(17) 0.3677(12)
C12 C -0.5088(12) -0.3448(16) 0.4287(10)
N3 N -0.4726(10) -0.4141(17) 0.4792(11)
C13 C -0.6605(14) -0.2427(17) 0.3632(11)
C14 C -0.7091(15) -0.2780(16) 0.4159(12)
C15 C -0.7180(13) -0.4263(17) 0.4307(13)
H14 H -0.7417 -0.4665 0.3812
H15 H -0.7626 -0.4403 0.4646
H16 H -0.6549 -0.4584 0.4548
C16 C -0.6710(16) -0.225(2) 0.5004(11)
H17 H -0.6631 -0.1385 0.4973
H18 H -0.6093 -0.2621 0.5235
H19 H -0.7172 -0.2431 0.5323
C17 C -0.8130(13) -0.1692(18) 0.3128(12)
C18 C -0.8781(13) -0.2222(18) 0.2424(12)
H20 H -0.8602 -0.3058 0.2365
H21 H -0.8719 -0.1766 0.1966
H22 H -0.9445 -0.2186 0.2485
C19 C -0.8381(14) -0.0252(19) 0.3211(11)
H23 H -0.9050 -0.0168 0.3250
H24 H -0.8279 0.0183 0.2756
H25 H -0.7963 0.0077 0.3674
O5 O -0.4822(10) -0.5154(14) 0.6405(9)
O6 O -0.2968(9) -0.5271(14) 0.6181(7)
C20 C -0.4428(17) -0.447(2) 0.7037(12)
C21 C -0.3477(12) -0.4219(19) 0.7210(13)
H26 H -0.3230 -0.3761 0.7659
C22 C -0.2841(15) -0.4605(18) 0.6760(13)
C23 C -0.5218(16) -0.406(2) 0.7542(11)
C24 C -0.4714(13) -0.319(3) 0.8196(11)
H27 H -0.5172 -0.2944 0.8503
H28 H -0.4478 -0.2489 0.7967
H29 H -0.4176 -0.3609 0.8529
C25 C -0.5506(19) -0.513(2) 0.7981(15)
H30 H -0.5961 -0.4872 0.8288
H31 H -0.4936 -0.5468 0.8321
H32 H -0.5807 -0.5745 0.7611
C26 C -0.6025(14) -0.3435(15) 0.7057(9)
H33 H -0.6475 -0.3184 0.7371
H34 H -0.6349 -0.3974 0.6648
H35 H -0.5792 -0.2730 0.6826
C27 C -0.1753(15) -0.428(3) 0.7119(16)
F4 F -0.1457(12) -0.3539(18) 0.6643(12)
F5 F -0.1528(10) -0.3965(17) 0.7829(8)
F6 F -0.1141(10) -0.5176(16) 0.7072(11)
O7 O -0.5462(10) 0.3422(14) 0.5266(9)
N4 N -0.3643(12) 0.3308(17) 0.4843(9)
N5 N -0.2677(15) 0.2564(18) 0.4040(11)
O8 O -0.1833(11) 0.2509(16) 0.3790(10)
C28 C -0.5723(14) 0.264(2) 0.4706(14)
C29 C -0.6784(15) 0.220(2) 0.4615(14)
H36 H -0.7056 0.2551 0.5027
H37 H -0.6798 0.1329 0.4648
H38 H -0.7161 0.2462 0.4114
C30 C -0.5181(15) 0.2309(19) 0.4199(10)
C31 C -0.5627(18) 0.140(2) 0.3569(15)
N6 N -0.6044(16) 0.0828(17) 0.3099(12)
C32 C -0.4205(15) 0.2647(18) 0.4299(11)
C33 C -0.3565(13) 0.208(2) 0.3652(12)
C34 C -0.3890(17) 0.282(3) 0.2891(13)
H39 H -0.3539 0.2542 0.2508
H40 H -0.3758 0.3670 0.2997
H41 H -0.4578 0.2704 0.2691
C35 C -0.3442(18) 0.0805(18) 0.3643(14)
H42 H -0.3069 0.0594 0.3260
H43 H -0.4070 0.0418 0.3508
H44 H -0.3104 0.0534 0.4153
C36 C -0.2681(15) 0.348(2) 0.4781(10)
C37 C -0.2371(15) 0.4678(17) 0.4616(13)
H45 H -0.2373 0.5202 0.5058
H46 H -0.2810 0.4998 0.4159
H47 H -0.1723 0.4639 0.4520
C38 C -0.1953(13) 0.2758(18) 0.5443(11)
H48 H -0.1880 0.3187 0.5933
H49 H -0.1330 0.2693 0.5303
H50 H -0.2207 0.1955 0.5496
O7_2 O -0.5462(10) -0.6578(14) 0.5266(9)
N4_2 N -0.3643(12) -0.6692(17) 0.4843(9)
Cu2_2 Cu -0.42580(9) 0.4197(3) 0.56171(8)
C39 C -0.410(4) -0.449(4) 0.087(3)
H51 H -0.4785 -0.4614 0.0657
H52 H -0.3904 -0.4951 0.1345
H53 H -0.3734 -0.4747 0.0493
C40 C -0.397(2) -0.350(4) 0.100(3)
H54 H -0.4418 -0.3247 0.1317
H55 H -0.4145 -0.3071 0.0503
C41 C -0.300(3) -0.307(6) 0.139(2)
H56 H -0.2601 -0.3412 0.1056
H57 H -0.2872 -0.3577 0.1858
C42 C -0.245(3) -0.195(4) 0.168(3)
H58 H -0.2006 -0.2304 0.2133
H59 H -0.2061 -0.1891 0.1286
C43 C -0.241(6) -0.090(3) 0.189(4)
H60 H -0.2710 -0.0875 0.2346
H61 H -0.2846 -0.0453 0.1478
C44 C -0.151(2) -0.013(3) 0.211(2)
H62 H -0.1685 0.0714 0.2131
H63 H -0.1116 -0.0234 0.1726
H64 H -0.1136 -0.0377 0.2618
loop_
_geom_bond_atom_site_label_1
_geom_bond_atom_site_label_2
_geom_bond_site_symmetry_1
_geom_bond_site_symmetry_2
Cu1 O1 1_555 1_555
Cu2 N3 1_555 1_555
O1 C1 1_555 1_555
O2 Cu1 1_555 1_555
C1 C2 1_555 1_555
C2 H1 1_555 1_555
C3 O2 1_555 1_555
C4 C1 1_555 1_555
C5 C4 1_555 1_555
H2 C5 1_555 1_555
H3 C5 1_555 1_555
H4 C5 1_555 1_555
C6 C4 1_555 1_555
H5 C6 1_555 1_555
H6 C6 1_555 1_555
H7 C6 1_555 1_555
C7 C4 1_555 1_555
H8 C7 1_555 1_555
H9 C7 1_555 1_555
H10 C7 1_555 1_555
C8 C3 1_555 1_555
F1 C8 1_555 1_555
F2 C8 1_555 1_555
F3 C8 1_555 1_555
O3 Cu1 1_555 1_555
N1 Cu1 1_555 1_555
N2 O4 1_555 1_555
C9 O3 1_555 1_555
C10 C9 1_555 1_555
H11 C10 1_555 1_555
H12 C10 1_555 1_555
H13 C10 1_555 1_555
C11 C9 1_555 1_555
C12 C11 1_555 1_555
N3 C12 1_555 1_555
C13 N1 1_555 1_555
C14 N2 1_555 1_555
C15 C14 1_555 1_555
H14 C15 1_555 1_555
H15 C15 1_555 1_555
H16 C15 1_555 1_555
C16 C14 1_555 1_555
H17 C16 1_555 1_555
H18 C16 1_555 1_555
H19 C16 1_555 1_555
C17 N1 1_555 1_555
C18 C17 1_555 1_555
H20 C18 1_555 1_555
H21 C18 1_555 1_555
H22 C18 1_555 1_555
C19 C17 1_555 1_555
H23 C19 1_555 1_555
H24 C19 1_555 1_555
H25 C19 1_555 1_555
O5 Cu2 1_555 1_555
O6 Cu2 1_555 1_555
C20 O5 1_555 1_555
C21 C20 1_555 1_555
H26 C21 1_555 1_555
C22 O6 1_555 1_555
C23 C20 1_555 1_555
C24 C23 1_555 1_555
H27 C24 1_555 1_555
H28 C24 1_555 1_555
H29 C24 1_555 1_555
C25 C23 1_555 1_555
H30 C25 1_555 1_555
H31 C25 1_555 1_555
H32 C25 1_555 1_555
C26 C23 1_555 1_555
H33 C26 1_555 1_555
H34 C26 1_555 1_555
H35 C26 1_555 1_555
C27 C22 1_555 1_555
F4 C27 1_555 1_555
F5 C27 1_555 1_555
F6 C27 1_555 1_555
O7 C28 1_555 1_555
N4 C32 1_555 1_555
N5 O8 1_555 1_555
C28 C29 1_555 1_555
C29 H36 1_555 1_555
H37 C29 1_555 1_555
H38 C29 1_555 1_555
C30 C28 1_555 1_555
C31 C30 1_555 1_555
N6 Cu1 1_555 1_555
C32 C30 1_555 1_555
C33 N5 1_555 1_555
C34 C33 1_555 1_555
H39 C34 1_555 1_555
H40 C34 1_555 1_555
H41 C34 1_555 1_555
C35 C33 1_555 1_555
H42 C35 1_555 1_555
H43 C35 1_555 1_555
H44 C35 1_555 1_555
C36 N4 1_555 1_555
C37 C36 1_555 1_555
H45 C37 1_555 1_555
H46 C37 1_555 1_555
H47 C37 1_555 1_555
C38 C36 1_555 1_555
H48 C38 1_555 1_555
H49 C38 1_555 1_555
H50 C38 1_555 1_555
C39 H51 1_555 1_555
H52 C39 1_555 1_555
H53 C39 1_555 1_555
C40 C39 1_555 1_555
H54 C40 1_555 1_555
H55 C40 1_555 1_555
C41 C40 1_555 1_555
H56 C41 1_555 1_555
H57 C41 1_555 1_555
C42 C41 1_555 1_555
H58 C42 1_555 1_555
H59 C42 1_555 1_555
C43 C42 1_555 1_555
H60 C43 1_555 1_555
H61 C43 1_555 1_555
C44 C43 1_555 1_555
H62 C44 1_555 1_555
H63 C44 1_555 1_555
H64 C44 1_555 1_555
O7_2 Cu2 1_555 1_555
N4_2 Cu2 1_555 1_555
Cu2_2 O7 1_555 1_555
C2 C3 1_555 1_555
N2 C17 1_555 1_555
C11 C13 1_555 1_555
C13 C14 1_555 1_555
C21 C22 1_555 1_555
N4 Cu2_2 1_555 1_555
N5 C36 1_555 1_555
C31 N6 1_555 1_555
C32 C33 1_555 1_555

#END
