
#######################################################################
#
#                 Cambridge Crystallographic Data Centre
#                                CCDC 
#
#######################################################################
#
# If this CIF has been generated from an entry in the Cambridge 
# Structural Database, then it will include bibliographic, chemical, 
# crystal, experimental, refinement or atomic coordinate data resulting 
# from the CCDC's data processing and validation procedures.
#
#######################################################################

data_EBAVEI
_symmetry_cell_setting           monoclinic
_symmetry_space_group_name_H-M   'C 2'
_symmetry_Int_Tables_number      5
_space_group_name_Hall           'C 2y'
loop_
_symmetry_equiv_pos_site_id
_symmetry_equiv_pos_as_xyz
1 x,y,z
2 -x,y,-z
3 1/2+x,1/2+y,z
4 1/2-x,1/2+y,-z
_cell_length_a                   9.300(1)
_cell_length_b                   6.515(2)
_cell_length_c                   13.291(1)
_cell_angle_alpha                90
_cell_angle_beta                 93.749(9)
_cell_angle_gamma                90
_cell_volume                     803.572
loop_
_atom_site_label
_atom_site_type_symbol
_atom_site_fract_x
_atom_site_fract_y
_atom_site_fract_z
Zn1 Zn 0.0000 -0.0450 0.0000
O1 O -0.0404(3) 0.0122(5) 0.1557(2)
O2 O -0.0711(4) -0.2341(5) 0.3199(3)
O3 O -0.1524(3) -0.0186(8) 0.4927(2)
O4 O -0.0979(3) 0.3801(5) 0.4150(2)
O5 O -0.3761(3) 0.2292(4) 0.0740(2)
O6 O -0.1814(3) 0.1408(5) -0.0051(2)
C1 C -0.1836(4) 0.0822(6) 0.1733(3)
C2 C -0.1711(4) 0.2676(6) 0.2449(3)
C3 C -0.1093(4) 0.2048(7) 0.3498(3)
C4 C -0.2041(4) 0.0380(6) 0.3928(3)
C5 C -0.2129(4) -0.1500(7) 0.3241(3)
C6 C -0.2720(4) -0.0880(6) 0.2173(3)
C7 C -0.2535(4) 0.1574(6) 0.0698(3)
H1 H -0.020(4) -0.088(7) 0.194(2)
H2 H -0.119(4) 0.374(5) 0.215(2)
H3 H -0.268(4) 0.335(6) 0.251(2)
H4 H -0.161(4) 0.386(7) 0.439(3)
H5 H 0.001(4) 0.172(7) 0.353(3)
H6 H -0.309(4) 0.100(6) 0.404(2)
H7 H -0.086(3) -0.001(8) 0.496(3)
H8 H -0.277(4) -0.248(7) 0.354(3)
H9 H -0.057(5) -0.323(7) 0.334(4)
H10 H -0.277(4) -0.204(6) 0.166(3)
H11 H -0.373(3) -0.020(8) 0.220(2)
O1A O 0.0404(3) 0.0122(5) -0.1557(2)
O2A O 0.0711(4) -0.2341(5) -0.3199(3)
O3A O 0.1524(3) -0.0186(8) -0.4927(2)
O4A O 0.0979(3) 0.3801(5) -0.4150(2)
O5A O 0.3761(3) 0.2292(4) -0.0740(2)
O6A O 0.1814(3) 0.1408(5) 0.0051(2)
C1A C 0.1836(4) 0.0822(6) -0.1733(3)
C2A C 0.1711(4) 0.2676(6) -0.2449(3)
C3A C 0.1093(4) 0.2048(7) -0.3498(3)
C4A C 0.2041(4) 0.0380(6) -0.3928(3)
C5A C 0.2129(4) -0.1500(7) -0.3241(3)
C6A C 0.2720(4) -0.0880(6) -0.2173(3)
C7A C 0.2535(4) 0.1574(6) -0.0698(3)
H1A H 0.020(4) -0.088(7) -0.194(2)
H2A H 0.119(4) 0.374(5) -0.215(2)
H3A H 0.268(4) 0.335(6) -0.251(2)
H4A H 0.161(4) 0.386(7) -0.439(3)
H5A H -0.001(4) 0.172(7) -0.353(3)
H6A H 0.309(4) 0.100(6) -0.404(2)
H7A H 0.086(3) -0.001(8) -0.496(3)
H8A H 0.277(4) -0.248(7) -0.354(3)
H9A H 0.057(5) -0.323(7) -0.334(4)
H10A H 0.277(4) -0.204(6) -0.166(3)
H11A H 0.373(3) -0.020(8) -0.220(2)
O5B O 0.1239(3) -0.2708(4) 0.0740(2)
O5C O -0.1239(3) -0.2708(4) -0.0740(2)
Zn1B Zn -0.5000 0.4550 0.0000
Zn1B_2 Zn 0.5000 0.4550 0.0000
loop_
_geom_bond_atom_site_label_1
_geom_bond_atom_site_label_2
_geom_bond_site_symmetry_1
_geom_bond_site_symmetry_2
Zn1 O1 1_555 1_555
O1 C1 1_555 1_555
O2 C5 1_555 1_555
O3 C4 1_555 1_555
O4 C3 1_555 1_555
O5 C7 1_555 1_555
O6 Zn1 1_555 1_555
C1 C2 1_555 1_555
C2 C3 1_555 1_555
C3 C4 1_555 1_555
C4 C5 1_555 1_555
C5 C6 1_555 1_555
C6 C1 1_555 1_555
C7 O6 1_555 1_555
H1 O1 1_555 1_555
H2 C2 1_555 1_555
H3 C2 1_555 1_555
H4 O4 1_555 1_555
H5 C3 1_555 1_555
H6 C4 1_555 1_555
H7 O3 1_555 1_555
H8 C5 1_555 1_555
H9 O2 1_555 1_555
H10 C6 1_555 1_555
H11 C6 1_555 1_555
O1A Zn1 1_555 1_555
O2A C5A 1_555 1_555
O3A C4A 1_555 1_555
O4A C3A 1_555 1_555
O5A C7A 1_555 1_555
O6A Zn1 1_555 1_555
C1A O1A 1_555 1_555
C2A C1A 1_555 1_555
C3A C2A 1_555 1_555
C4A C3A 1_555 1_555
C5A C4A 1_555 1_555
C6A C1A 1_555 1_555
C7A O6A 1_555 1_555
H1A O1A 1_555 1_555
H2A C2A 1_555 1_555
H3A C2A 1_555 1_555
H4A O4A 1_555 1_555
H5A C3A 1_555 1_555
H6A C4A 1_555 1_555
H7A O3A 1_555 1_555
H8A C5A 1_555 1_555
H9A O2A 1_555 1_555
H10A C6A 1_555 1_555
H11A C6A 1_555 1_555
O5B Zn1 1_555 1_555
O5C Zn1 1_555 1_555
Zn1B O5 1_555 1_555
Zn1B_2 O5A 1_555 1_555
C1 C7 1_555 1_555
C1A C7A 1_555 1_555
C5A C6A 1_555 1_555

#END
