
#######################################################################
#
#                 Cambridge Crystallographic Data Centre
#                                CCDC 
#
#######################################################################
#
# If this CIF has been generated from an entry in the Cambridge 
# Structural Database, then it will include bibliographic, chemical, 
# crystal, experimental, refinement or atomic coordinate data resulting 
# from the CCDC's data processing and validation procedures.
#
#######################################################################

data_EBAVAG
_symmetry_cell_setting           orthorhombic
_symmetry_space_group_name_H-M   'P 21 21 2'
_symmetry_Int_Tables_number      18
_space_group_name_Hall           'P 2 2ab'
loop_
_symmetry_equiv_pos_site_id
_symmetry_equiv_pos_as_xyz
1 x,y,z
2 -x,-y,z
3 1/2+x,1/2-y,-z
4 1/2-x,1/2+y,-z
_cell_length_a                   14.814(5)
_cell_length_b                   11.700(4)
_cell_length_c                   6.1265(19)
_cell_angle_alpha                90
_cell_angle_beta                 90
_cell_angle_gamma                90
_cell_volume                     1061.87
loop_
_atom_site_label
_atom_site_type_symbol
_atom_site_fract_x
_atom_site_fract_y
_atom_site_fract_z
Zn1 Zn 0.5000 0.5000 0.17904(8)
C1 C 0.4777(2) 0.3110(3) 0.4843(6)
H1 H 0.5344 0.2909 0.4318
C2 C 0.4419(3) 0.2503(3) 0.6524(8)
H2 H 0.4739 0.1899 0.7138
C3 C 0.3583(3) 0.2791(3) 0.7302(6)
H3 H 0.3324 0.2378 0.8440
C4 C 0.3127(2) 0.3701(3) 0.6378(5)
C5 C 0.35315(19) 0.4277(3) 0.4680(6)
H4 H 0.3230 0.4888 0.4041
C6 C 0.1644(2) 0.4639(3) 0.6185(5)
C7 C 0.07924(19) 0.4810(3) 0.7441(5)
C8 C 0.0755(2) 0.4846(3) 0.9707(5)
H5 H 0.1291 0.4757 1.0481
C9 C 0.6371(2) 0.3558(3) -0.0703(6)
N1 N 0.5886(2) 0.4126(3) 0.0246(5)
N2 N 0.43464(17) 0.3981(2) 0.3924(4)
N3 N 0.22802(16) 0.3995(2) 0.7207(5)
H6 H 0.2148 0.3744 0.8487
N4 N 0.0000 0.5000 1.0825(5)
O1 O 0.17413(14) 0.5033(3) 0.4385(3)
S1 S 0.70385(8) 0.27554(10) -0.20867(19)
C10 C 0.0000 0.5000 0.6300(6)
H7 H 0.0000 0.5000 0.4782
Zn1_2 Zn -0.5000 0.5000 0.17904(8)
C1A C -0.4777(2) 0.6890(3) 0.4843(6)
H1A H -0.5344 0.7091 0.4318
C2A C -0.4419(3) 0.7497(3) 0.6524(8)
H2A H -0.4739 0.8101 0.7138
C3A C -0.3583(3) 0.7209(3) 0.7302(6)
H3A H -0.3324 0.7622 0.8440
C4A C -0.3127(2) 0.6299(3) 0.6378(5)
C5A C -0.35315(19) 0.5723(3) 0.4680(6)
H4A H -0.3230 0.5112 0.4041
C6A C -0.1644(2) 0.5361(3) 0.6185(5)
C7A C -0.07924(19) 0.5190(3) 0.7441(5)
C8A C -0.0755(2) 0.5154(3) 0.9707(5)
H5A H -0.1291 0.5243 1.0481
C9A C 0.3629(2) 0.6442(3) -0.0703(6)
N1A N 0.4114(2) 0.5874(3) 0.0246(5)
N2A N -0.43464(17) 0.6019(2) 0.3924(4)
N2A_2 N 0.56536(17) 0.6019(2) 0.3924(4)
N3A N -0.22802(16) 0.6005(2) 0.7207(5)
H6A H -0.2148 0.6256 0.8487
O1A O -0.17413(14) 0.4967(3) 0.4385(3)
S1A S 0.29615(8) 0.72446(10) -0.20867(19)
loop_
_geom_bond_atom_site_label_1
_geom_bond_atom_site_label_2
_geom_bond_site_symmetry_1
_geom_bond_site_symmetry_2
Zn1 N1 1_555 1_555
C1 H1 1_555 1_555
C2 C1 1_555 1_555
H2 C2 1_555 1_555
C3 C2 1_555 1_555
H3 C3 1_555 1_555
C4 C3 1_555 1_555
C5 C4 1_555 1_555
H4 C5 1_555 1_555
C6 C7 1_555 1_555
C7 C8 1_555 1_555
C8 H5 1_555 1_555
C9 N1 1_555 1_555
N2 Zn1 1_555 1_555
N3 C4 1_555 1_555
H6 N3 1_555 1_555
N4 C8 1_555 1_555
O1 C6 1_555 1_555
S1 C9 1_555 1_555
C10 C7 1_555 1_555
H7 C10 1_555 1_555
Zn1_2 N2A 1_555 1_555
C1A H1A 1_555 1_555
C2A C1A 1_555 1_555
H2A C2A 1_555 1_555
C3A C2A 1_555 1_555
H3A C3A 1_555 1_555
C4A C3A 1_555 1_555
C5A C4A 1_555 1_555
H4A C5A 1_555 1_555
C6A C7A 1_555 1_555
C7A C10 1_555 1_555
C8A N4 1_555 1_555
H5A C8A 1_555 1_555
C9A N1A 1_555 1_555
N1A Zn1 1_555 1_555
N2A C1A 1_555 1_555
N2A_2 Zn1 1_555 1_555
N3A C4A 1_555 1_555
H6A N3A 1_555 1_555
O1A C6A 1_555 1_555
S1A C9A 1_555 1_555
C1 N2 1_555 1_555
C5 N2 1_555 1_555
C6 N3 1_555 1_555
C5A N2A 1_555 1_555
C6A N3A 1_555 1_555
C7A C8A 1_555 1_555

#END
