
#######################################################################
#
#                 Cambridge Crystallographic Data Centre
#                                CCDC 
#
#######################################################################
#
# If this CIF has been generated from an entry in the Cambridge 
# Structural Database, then it will include bibliographic, chemical, 
# crystal, experimental, refinement or atomic coordinate data resulting 
# from the CCDC's data processing and validation procedures.
#
#######################################################################

data_EBEDIA
_symmetry_cell_setting           triclinic
_symmetry_space_group_name_H-M   'P -1'
_symmetry_Int_Tables_number      2
_space_group_name_Hall           '-P 1'
loop_
_symmetry_equiv_pos_site_id
_symmetry_equiv_pos_as_xyz
1 x,y,z
2 -x,-y,-z
_cell_length_a                   6.3616(10)
_cell_length_b                   10.0500(16)
_cell_length_c                   10.2955(16)
_cell_angle_alpha                94.9870(10)
_cell_angle_beta                 95.305(2)
_cell_angle_gamma                99.7780(10)
_cell_volume                     642.35
loop_
_atom_site_label
_atom_site_type_symbol
_atom_site_fract_x
_atom_site_fract_y
_atom_site_fract_z
Cu1 Cu 0.0000 0.0000 0.0000
Eu1 Eu 0.42938(3) 0.538123(16) 0.259010(15)
N1 N 0.1067(6) 0.0036(3) 0.1896(3)
O1 O 0.3275(5) 0.3757(3) 0.4001(3)
O2 O 0.3686(4) 0.2816(3) 0.5878(3)
O3 O 0.2165(5) -0.2343(3) 0.5613(3)
O4 O 0.1750(4) -0.3469(3) 0.3609(3)
O5 O 0.4410(5) 0.3548(3) 0.0986(3)
O6 O 0.3088(6) 0.1507(3) -0.0435(3)
O7 O 0.2814(5) 0.3696(3) -0.1228(3)
O8 O 0.6185(5) 0.3049(4) -0.0937(3)
O9 O 0.1571(7) -0.1514(4) -0.0507(3)
H1 H 0.2357 -0.1312 -0.1111
H2 H 0.2219 -0.1945 0.0029
O10 O 0.0632(5) 0.4533(4) 0.1397(3)
H3 H 0.0298 0.3749 0.0973
H4 H -0.0314 0.4547 0.1927
O11 O 0.7640(4) 0.4637(3) 0.3303(3)
H5 H 0.7585 0.3915 0.3681
H6 H 0.8693 0.5254 0.3619
S1 S 0.40699(15) 0.29304(9) -0.03788(9)
C1 C 0.2461(6) 0.1359(4) 0.3933(4)
C2 C 0.2473(6) 0.0179(4) 0.4542(3)
H9 H 0.2902 0.0228 0.5436
C3 C 0.1835(6) -0.1079(4) 0.3802(4)
C4 C 0.1112(6) -0.1103(4) 0.2483(4)
H10 H 0.0642 -0.1938 0.1989
C5 C 0.1759(7) 0.1233(4) 0.2601(4)
H11 H 0.1772 0.2018 0.2183
C6 C 0.3196(6) 0.2749(4) 0.4658(4)
C7 C 0.1928(6) -0.2392(4) 0.4394(4)
Eu1A Eu -0.42938(3) -0.538123(16) -0.259010(15)
Eu1A_2 Eu 0.57062(3) 0.461877(16) 0.740990(15)
Eu1_2 Eu 0.42938(3) -0.461877(16) 0.259010(15)
Eu1A_3 Eu 0.57062(3) 0.461877(16) -0.259010(15)
Eu1_3 Eu -0.57062(3) -0.461877(16) -0.740990(15)
Eu1A_4 Eu -0.42938(3) 0.461877(16) -0.259010(15)
Eu1_4 Eu -0.57062(3) -0.461877(16) 0.259010(15)
N1A N -0.1067(6) -0.0036(3) -0.1896(3)
O1A O -0.3275(5) -0.3757(3) -0.4001(3)
O2A O -0.3686(4) -0.2816(3) -0.5878(3)
O2A_2 O 0.6314(4) 0.7184(3) 0.4122(3)
O2_2 O -0.6314(4) -0.7184(3) -0.4122(3)
O3A O -0.2165(5) 0.2343(3) -0.5613(3)
O4A O -0.1750(4) 0.3469(3) -0.3609(3)
O4_2 O 0.1750(4) 0.6531(3) 0.3609(3)
O4A_2 O -0.1750(4) -0.6531(3) -0.3609(3)
O5A O -0.4410(5) -0.3548(3) -0.0986(3)
O6A O -0.3088(6) -0.1507(3) 0.0435(3)
O7A O -0.2814(5) -0.3696(3) 0.1228(3)
O7A_2 O 0.7186(5) 0.6304(3) 0.1228(3)
O7_2 O -0.7186(5) -0.6304(3) -0.1228(3)
O8A O -0.6185(5) -0.3049(4) 0.0937(3)
O8A_2 O 0.3815(5) 0.6951(4) 0.0937(3)
O8_2 O -0.3815(5) -0.6951(4) -0.0937(3)
O9A O -0.1571(7) 0.1514(4) 0.0507(3)
H1A H -0.2357 0.1312 0.1111
H2A H -0.2219 0.1945 -0.0029
O10A O -0.0632(5) -0.4533(4) -0.1397(3)
H3A H -0.0298 -0.3749 -0.0973
H4A H 0.0314 -0.4547 -0.1927
O11A O -0.7640(4) -0.4637(3) -0.3303(3)
H5A H -0.7585 -0.3915 -0.3681
H6A H -0.8693 -0.5254 -0.3619
S1A S -0.40699(15) -0.29304(9) 0.03788(9)
C1A C -0.2461(6) -0.1359(4) -0.3933(4)
C2A C -0.2473(6) -0.0179(4) -0.4542(3)
H9A H -0.2902 -0.0228 -0.5436
C3A C -0.1835(6) 0.1079(4) -0.3802(4)
C4A C -0.1112(6) 0.1103(4) -0.2483(4)
H10A H -0.0642 0.1938 -0.1989
C5A C -0.1759(7) -0.1233(4) -0.2601(4)
H11A H -0.1772 -0.2018 -0.2183
C6A C -0.3196(6) -0.2749(4) -0.4658(4)
C7A C -0.1928(6) 0.2392(4) -0.4394(4)
O12 O 0.3809(11) 0.9351(7) 0.7848(6)
H7 H 0.3395 0.8883 0.7113
H8 H 0.3881 1.0206 0.7882
loop_
_geom_bond_atom_site_label_1
_geom_bond_atom_site_label_2
_geom_bond_site_symmetry_1
_geom_bond_site_symmetry_2
Cu1 N1 1_555 1_555
Eu1 O1 1_555 1_555
N1 C4 1_555 1_555
O1 C6 1_555 1_555
O2 C6 1_555 1_555
O3 C7 1_555 1_555
O4 C7 1_555 1_555
O5 Eu1 1_555 1_555
O6 Cu1 1_555 1_555
O7 S1 1_555 1_555
O8 S1 1_555 1_555
O9 Cu1 1_555 1_555
H1 O9 1_555 1_555
H2 O9 1_555 1_555
O10 Eu1 1_555 1_555
H3 O10 1_555 1_555
H4 O10 1_555 1_555
O11 Eu1 1_555 1_555
H5 O11 1_555 1_555
H6 O11 1_555 1_555
O12 H7 1_555 1_555
H8 O12 1_555 1_555
S1 O5 1_555 1_555
C1 C2 1_555 1_555
C2 H9 1_555 1_555
C3 C2 1_555 1_555
C4 C3 1_555 1_555
H10 C4 1_555 1_555
C5 N1 1_555 1_555
H11 C5 1_555 1_555
C6 C1 1_555 1_555
C7 C3 1_555 1_555
Eu1A O1A 1_555 1_555
Eu1A_2 O2 1_555 1_555
Eu1_2 O4 1_555 1_555
Eu1A_3 O7 1_555 1_555
Eu1_3 O2A 1_555 1_555
Eu1A_4 O4A 1_555 1_555
Eu1_4 O7A 1_555 1_555
N1A Cu1 1_555 1_555
O1A C6A 1_555 1_555
O2A C6A 1_555 1_555
O2A_2 Eu1 1_555 1_555
O2_2 Eu1A 1_555 1_555
O3A C7A 1_555 1_555
O4A C7A 1_555 1_555
O4_2 Eu1 1_555 1_555
O4A_2 Eu1A 1_555 1_555
O5A Eu1A 1_555 1_555
O6A Cu1 1_555 1_555
O7A S1A 1_555 1_555
O7A_2 Eu1 1_555 1_555
O7_2 Eu1A 1_555 1_555
O8A Eu1_4 1_555 1_555
O8A_2 Eu1 1_555 1_555
O8_2 Eu1A 1_555 1_555
O9A Cu1 1_555 1_555
H1A O9A 1_555 1_555
H2A O9A 1_555 1_555
O10A Eu1A 1_555 1_555
H3A O10A 1_555 1_555
H4A O10A 1_555 1_555
O11A Eu1A 1_555 1_555
H5A O11A 1_555 1_555
H6A O11A 1_555 1_555
S1A O5A 1_555 1_555
C1A C2A 1_555 1_555
C2A H9A 1_555 1_555
C3A C2A 1_555 1_555
C4A N1A 1_555 1_555
H10A C4A 1_555 1_555
C5A N1A 1_555 1_555
H11A C5A 1_555 1_555
C6A C1A 1_555 1_555
C7A C3A 1_555 1_555
O6 S1 1_555 1_555
O8 Eu1A_3 1_555 1_555
C1 C5 1_555 1_555
O6A S1A 1_555 1_555
O8A S1A 1_555 1_555
C1A C5A 1_555 1_555
C3A C4A 1_555 1_555

#END
