
#######################################################################
#
#                 Cambridge Crystallographic Data Centre
#                                CCDC 
#
#######################################################################
#
# If this CIF has been generated from an entry in the Cambridge 
# Structural Database, then it will include bibliographic, chemical, 
# crystal, experimental, refinement or atomic coordinate data resulting 
# from the CCDC's data processing and validation procedures.
#
#######################################################################

data_EBEGUN
_symmetry_cell_setting           monoclinic
_symmetry_space_group_name_H-M   'C 2/c'
_symmetry_Int_Tables_number      15
_space_group_name_Hall           '-C 2yn'
loop_
_symmetry_equiv_pos_site_id
_symmetry_equiv_pos_as_xyz
1 x,y,z
2 -x,y,1/2-z
3 1/2+x,1/2+y,z
4 1/2-x,1/2+y,1/2-z
5 -x,-y,-z
6 x,-y,1/2+z
7 1/2-x,1/2-y,-z
8 1/2+x,1/2-y,1/2+z
_cell_length_a                   20.655(5)
_cell_length_b                   11.348(2)
_cell_length_c                   22.183(6)
_cell_angle_alpha                90
_cell_angle_beta                 122.76(2)
_cell_angle_gamma                90
_cell_volume                     4372.52
loop_
_atom_site_label
_atom_site_type_symbol
_atom_site_fract_x
_atom_site_fract_y
_atom_site_fract_z
Co1 Co 0.12849(3) -0.86212(5) -0.33628(3)
O1 O 0.0698(2) -1.0125(3) -0.3193(2)
O2 O 0.0014(2) -0.8977(4) -0.4041(2)
O3 O -0.0534(3) -1.0370(5) -0.3825(3)
O4 O 0.2477(2) -0.8002(3) -0.2788(2)
O5 O 0.2301(2) -0.9493(3) -0.2310(2)
O6 O 0.3457(2) -0.8802(3) -0.1841(2)
N1 N 0.0037(3) -0.9855(4) -0.3703(2)
N2 N 0.2764(2) -0.8775(3) -0.2299(2)
N3 N 0.1110(2) -0.7572(3) -0.2651(2)
N4 N 0.1030(2) -0.2742(3) 0.0860(2)
N5 N 0.1594(2) -0.9836(3) -0.3918(2)
C1 C 0.1037(2) -0.8103(4) -0.2149(2)
C2 C 0.0936(2) -0.7497(4) -0.1670(2)
C3 C 0.0921(2) -0.6268(4) -0.1689(2)
C4 C 0.0998(3) -0.5724(4) -0.2208(3)
C5 C 0.1087(3) -0.6400(4) -0.2668(3)
C6 C 0.0845(3) -0.5602(5) -0.1183(2)
C7 C 0.0430(3) -0.2642(5) 0.0173(2)
C8 C 0.0324(3) -0.3386(5) -0.0365(3)
C9 C 0.0846(3) -0.4278(4) -0.0209(2)
C10 C 0.1448(3) -0.440(4) 0.0497(2)
C11 C 0.1520(3) -0.3627(4) 0.1007(2)
C12 C 0.0812(3) -0.5013(5) -0.0752(2)
C13 C 0.1593(3) -1.1003(4) -0.3829(3)
C14 C 0.1844(3) -1.1801(4) -0.4129(3)
C15 C 0.2110(2) -1.1392(4) -0.4546(2)
C16 C 0.2120(3) -1.0203(5) -0.4630(3)
C17 C 0.1864(3) -0.9454(4) -0.4312(3)
C18 C 0.2385(3) -1.2184(4) -0.4869(2)
H1 H 0.1057 -0.8963 -0.2128
H2 H 0.0883 -0.7907 -0.1315
H3 H 0.0991 -0.4869 -0.2233
H4 H 0.1140 -0.6001 -0.3025
H5 H 0.0062 -0.2016 0.0060
H6 H -0.0119 -0.3278 -0.0854
H7 H 0.1828 -0.5031 0.0631
H8 H 0.1947 -0.3723 0.1498
H9 H 0.1401 -1.1301 -0.3549
H10 H 0.1833 -1.2643 -0.4048
H11 H 0.2294 -0.9871 -0.4921
H12 H 0.1881 -0.8614 -0.4379
C18F C 0.2615(3) -1.2816(4) -0.5131(2)
C15F C 0.2890(2) -1.3608(4) -0.5454(2)
C14F C 0.3156(3) -1.3199(4) -0.5871(3)
C13F C 0.3407(3) -1.3997(4) -0.6171(3)
N5F N 0.3406(2) -1.5164(3) -0.6082(2)
C17F C 0.3136(3) -1.5546(4) -0.5688(3)
C16F C 0.2880(3) -1.4797(5) -0.5370(3)
H11F H 0.2706 -1.5129 -0.5079
H12F H 0.3119 -1.6386 -0.5621
H9F H 0.3599 -1.3699 -0.6451
H10F H 0.3167 -1.2357 -0.5952
N3E N 0.1110(2) -0.2428(3) -0.7651(2)
N4E N 0.1030(2) -0.7258(3) -0.4140(2)
C1E C 0.1037(2) -0.1897(4) -0.7149(2)
C2E C 0.0936(2) -0.2503(4) -0.6670(2)
C3E C 0.0921(2) -0.3732(4) -0.6689(2)
C4E C 0.0998(3) -0.4276(4) -0.7208(3)
C5E C 0.1087(3) -0.3600(4) -0.7668(3)
C6E C 0.0845(3) -0.4398(5) -0.6183(2)
C7E C 0.0430(3) -0.7358(5) -0.4827(2)
C8E C 0.0324(3) -0.6614(5) -0.5365(3)
C9E C 0.0846(3) -0.5722(4) -0.5209(2)
C10E C 0.1448(3) -0.560(4) -0.4503(2)
C11E C 0.1520(3) -0.6373(4) -0.3993(2)
C12E C 0.0812(3) -0.4987(5) -0.5752(2)
H1E H 0.1057 -0.1037 -0.7128
H2E H 0.0883 -0.2093 -0.6315
H3E H 0.0991 -0.5131 -0.7233
H4E H 0.1140 -0.3999 -0.8025
H5E H 0.0062 -0.7984 -0.4940
H6E H -0.0119 -0.6722 -0.5854
H7E H 0.1828 -0.4969 -0.4369
H8E H 0.1947 -0.6277 -0.3502
Co1E Co 0.12849(3) -0.13788(5) -0.83628(3)
Co1E_2 Co 0.12849(3) -0.13788(5) 0.16372(3)
Co1F Co 0.37151(3) -1.63788(5) -0.66372(3)
O1E O 0.0698(2) 0.0125(3) -0.8193(2)
O2E O 0.0014(2) -0.1023(4) -0.9041(2)
O4E O 0.2477(2) -0.1998(3) -0.7788(2)
O5E O 0.2301(2) -0.0507(3) -0.7310(2)
N4_2 N 0.1030(2) -0.2742(3) -0.9140(2)
N5E N 0.1594(2) -0.0164(3) -0.8918(2)
N2E N 0.2764(2) -0.1225(3) -0.7299(2)
N1E N 0.0037(3) -0.0145(4) -0.8703(2)
O3E O -0.0534(3) 0.0370(5) -0.8825(3)
O6E O 0.3457(2) -0.1198(3) -0.6841(2)
O8 O 0.934(1) -0.735(2) -0.791(1)
C19 C 0.8601(8) -0.801(1) -0.8378(7)
O7? O 0.8059(8) 0.235(1) 0.0697(7)
loop_
_geom_bond_atom_site_label_1
_geom_bond_atom_site_label_2
_geom_bond_site_symmetry_1
_geom_bond_site_symmetry_2
Co1 O1 1_555 1_555
O1 N1 1_555 1_555
O2 Co1 1_555 1_555
O3 N1 1_555 1_555
O4 Co1 1_555 1_555
O5 Co1 1_555 1_555
O6 N2 1_555 1_555
O8 C19 1_555 1_555
N1 O2 1_555 1_555
N2 O4 1_555 1_555
N3 Co1 1_555 1_555
N4 C7 1_555 1_555
N5 Co1 1_555 1_555
C1 N3 1_555 1_555
C2 C1 1_555 1_555
C3 C2 1_555 1_555
C4 C3 1_555 1_555
C5 N3 1_555 1_555
C6 C3 1_555 1_555
C7 C8 1_555 1_555
C8 C9 1_555 1_555
C9 C10 1_555 1_555
C10 C11 1_555 1_555
C11 N4 1_555 1_555
C12 C6 1_555 1_555
C13 N5 1_555 1_555
C14 C13 1_555 1_555
C15 C14 1_555 1_555
C16 C15 1_555 1_555
C17 N5 1_555 1_555
C18 C15 1_555 1_555
H1 C1 1_555 1_555
H2 C2 1_555 1_555
H3 C4 1_555 1_555
H4 C5 1_555 1_555
H5 C7 1_555 1_555
H6 C8 1_555 1_555
H7 C10 1_555 1_555
H8 C11 1_555 1_555
H9 C13 1_555 1_555
H10 C14 1_555 1_555
H11 C16 1_555 1_555
H12 C17 1_555 1_555
C18F C18 1_555 1_555
C15F C18F 1_555 1_555
C14F C15F 1_555 1_555
C13F C14F 1_555 1_555
N5F C13F 1_555 1_555
C17F N5F 1_555 1_555
C16F C15F 1_555 1_555
H11F C16F 1_555 1_555
H12F C17F 1_555 1_555
H9F C13F 1_555 1_555
H10F C14F 1_555 1_555
N3E C1E 1_555 1_555
N4E Co1 1_555 1_555
C1E C2E 1_555 1_555
C2E C3E 1_555 1_555
C3E C4E 1_555 1_555
C4E C5E 1_555 1_555
C5E N3E 1_555 1_555
C6E C3E 1_555 1_555
C7E N4E 1_555 1_555
C8E C7E 1_555 1_555
C9E C8E 1_555 1_555
C10E C9E 1_555 1_555
C11E N4E 1_555 1_555
C12E C6E 1_555 1_555
H1E C1E 1_555 1_555
H2E C2E 1_555 1_555
H3E C4E 1_555 1_555
H4E C5E 1_555 1_555
H5E C7E 1_555 1_555
H6E C8E 1_555 1_555
H7E C10E 1_555 1_555
H8E C11E 1_555 1_555
Co1E N3E 1_555 1_555
Co1E_2 N4 1_555 1_555
Co1F N5F 1_555 1_555
O1E Co1E 1_555 1_555
O2E Co1E 1_555 1_555
O4E Co1E 1_555 1_555
O5E Co1E 1_555 1_555
N4_2 Co1E 1_555 1_555
N5E Co1E 1_555 1_555
N2E O4E 1_555 1_555
N1E O1E 1_555 1_555
O3E N1E 1_555 1_555
O6E N2E 1_555 1_555
O5 N2 1_555 1_555
C4 C5 1_555 1_555
C9 C12 1_555 1_555
C16 C17 1_555 1_555
C17F C16F 1_555 1_555
C9E C12E 1_555 1_555
C10E C11E 1_555 1_555
O2E N1E 1_555 1_555
O5E N2E 1_555 1_555

#END
