
#######################################################################
#
#                 Cambridge Crystallographic Data Centre
#                                CCDC 
#
#######################################################################
#
# If this CIF has been generated from an entry in the Cambridge 
# Structural Database, then it will include bibliographic, chemical, 
# crystal, experimental, refinement or atomic coordinate data resulting 
# from the CCDC's data processing and validation procedures.
#
#######################################################################

data_EBEHUQ
_symmetry_cell_setting           monoclinic
_symmetry_space_group_name_H-M   'P 21/c'
_symmetry_Int_Tables_number      14
_space_group_name_Hall           '-P 2ybc'
loop_
_symmetry_equiv_pos_site_id
_symmetry_equiv_pos_as_xyz
1 x,y,z
2 -x,1/2+y,1/2-z
3 -x,-y,-z
4 x,1/2-y,1/2+z
_cell_length_a                   9.3673(10)
_cell_length_b                   12.0641(14)
_cell_length_c                   19.737(2)
_cell_angle_alpha                90
_cell_angle_beta                 93.196(2)
_cell_angle_gamma                90
_cell_volume                     2226.97
loop_
_atom_site_label
_atom_site_type_symbol
_atom_site_fract_x
_atom_site_fract_y
_atom_site_fract_z
C1 C 0.4812(3) -0.2337(3) 0.12871(17)
C2 C 0.5045(4) -0.3419(3) 0.15370(18)
C3 C 0.4723(4) -0.3660(3) 0.21973(18)
H1 H 0.4846 -0.4382 0.2355
C4 C 0.4223(4) -0.2863(3) 0.26316(17)
C5 C 0.4005(4) -0.1792(3) 0.23827(18)
H2 H 0.3659 -0.1244 0.2662
C6 C 0.4300(4) -0.1545(3) 0.17279(18)
H3 H 0.4153 -0.0825 0.1572
C7 C 0.5764(4) -0.4330(3) 0.11555(19)
C8 C 0.3917(4) -0.3118(3) 0.33509(18)
C9 C 0.9651(4) -0.0456(3) 0.0741(2)
H4 H 0.9333 -0.1158 0.0609
C10 C 1.1018(4) -0.0170(3) 0.0881(2)
H5 H 1.1813 -0.0628 0.0861
C11 C 0.9656(4) 0.1259(3) 0.1012(2)
H6 H 0.9360 0.1977 0.1102
C12 C 1.2298(4) 0.1592(3) 0.1207(2)
H7 H 1.2636 0.1872 0.0784
H8 H 1.3043 0.1125 0.1414
C13 C 1.2050(4) 0.2549(3) 0.1667(2)
C14 C 1.1980(4) 0.2349(4) 0.2360(2)
H9 H 1.2051 0.1627 0.2522
C15 C 1.1809(5) 0.3204(4) 0.2806(3)
H10 H 1.1778 0.3057 0.3267
C16 C 1.1686(5) 0.4253(4) 0.2581(3)
H11 H 1.1574 0.4828 0.2887
C17 C 1.1726(5) 0.4478(4) 0.1896(2)
H12 H 1.1636 0.5206 0.1744
C18 C 1.1900(4) 0.3635(3) 0.1431(2)
C19 C 1.1873(4) 0.3929(4) 0.0698(2)
H13 H 1.2152 0.4699 0.0651
H14 H 1.2561 0.3475 0.0475
C20 C 1.0144(4) 0.3302(3) -0.0256(2)
H15 H 1.0803 0.3067 -0.0561
C21 C 0.8706(4) 0.3251(3) -0.0343(2)
H16 H 0.8203 0.2961 -0.0722
C22 C 0.9189(4) 0.3994(3) 0.0625(2)
H17 H 0.9094 0.4326 0.1045
N1 N 0.8797(3) 0.0450(2) 0.08235(15)
N2 N 1.1020(3) 0.0919(3) 0.10576(17)
N3 N 0.8107(3) 0.3690(2) 0.02105(15)
N4 N 1.0442(3) 0.3763(2) 0.03629(16)
O1 O 0.6513(2) -0.11841(18) 0.04920(12)
O2 O 0.3861(2) -0.11684(19) 0.02268(12)
O3 O 0.5326(2) -0.28739(18) -0.00053(12)
O4 O 0.3376(3) -0.2378(2) 0.36975(12)
O5 O 0.4211(3) -0.4082(2) 0.35671(12)
O6 O 0.7087(4) -0.4337(3) 0.11835(19)
O7 O 0.5017(3) -0.5030(2) 0.08620(17)
P1 P 0.51548(10) -0.18690(7) 0.04400(5)
Zn1 Zn 0.66902(4) 0.04126(3) 0.06093(2)
Zn2 Zn 0.61013(5) 0.37164(3) 0.05148(2)
O2B O 0.6139(2) 0.11684(19) -0.02268(12)
O3B O 0.4674(2) 0.28739(18) 0.00053(12)
O4A O 0.6624(3) 0.2622(2) 0.13025(12)
O5A O 0.5789(3) 0.0918(2) 0.14329(12)
O7_2 O 0.5017(3) 0.4970(2) 0.08620(17)
Zn1B Zn 0.33098(4) -0.04126(3) -0.06093(2)
Zn1A Zn 0.33098(4) -0.45874(3) 0.43907(2)
Zn2B Zn 0.38987(5) -0.37164(3) -0.05148(2)
Zn2A Zn 0.38987(5) -0.12836(3) 0.44852(2)
Zn2_2 Zn 0.61013(5) -0.62836(3) 0.05148(2)
loop_
_geom_bond_atom_site_label_1
_geom_bond_atom_site_label_2
_geom_bond_site_symmetry_1
_geom_bond_site_symmetry_2
C1 C2 1_555 1_555
C2 C3 1_555 1_555
C3 H1 1_555 1_555
C4 C3 1_555 1_555
C5 C4 1_555 1_555
H2 C5 1_555 1_555
C6 C1 1_555 1_555
H3 C6 1_555 1_555
C7 C2 1_555 1_555
C8 C4 1_555 1_555
C9 H4 1_555 1_555
C10 C9 1_555 1_555
H5 C10 1_555 1_555
C11 H6 1_555 1_555
C12 H7 1_555 1_555
H8 C12 1_555 1_555
C13 C12 1_555 1_555
C14 C13 1_555 1_555
H9 C14 1_555 1_555
C15 C14 1_555 1_555
H10 C15 1_555 1_555
C16 C15 1_555 1_555
H11 C16 1_555 1_555
C17 C16 1_555 1_555
H12 C17 1_555 1_555
C18 C13 1_555 1_555
C19 C18 1_555 1_555
H13 C19 1_555 1_555
H14 C19 1_555 1_555
C20 H15 1_555 1_555
C21 C20 1_555 1_555
H16 C21 1_555 1_555
C22 H17 1_555 1_555
N1 C9 1_555 1_555
N2 C10 1_555 1_555
N3 C21 1_555 1_555
N4 C19 1_555 1_555
O1 P1 1_555 1_555
O2 P1 1_555 1_555
O3 P1 1_555 1_555
O4 C8 1_555 1_555
O5 C8 1_555 1_555
O6 C7 1_555 1_555
O7 C7 1_555 1_555
P1 C1 1_555 1_555
Zn1 N1 1_555 1_555
Zn2 N3 1_555 1_555
O2B Zn1 1_555 1_555
O3B Zn2 1_555 1_555
O4A Zn2 1_555 1_555
O5A Zn1 1_555 1_555
O7_2 Zn2 1_555 1_555
Zn1B O2 1_555 1_555
Zn1A O5 1_555 1_555
Zn2B O3 1_555 1_555
Zn2A O4 1_555 1_555
Zn2_2 O7 1_555 1_555
C5 C6 1_555 1_555
C11 N1 1_555 1_555
C11 N2 1_555 1_555
C12 N2 1_555 1_555
C17 C18 1_555 1_555
C20 N4 1_555 1_555
C22 N3 1_555 1_555
C22 N4 1_555 1_555
O1 Zn1 1_555 1_555

#END
