
#######################################################################
#
#                 Cambridge Crystallographic Data Centre
#                                CCDC 
#
#######################################################################
#
# If this CIF has been generated from an entry in the Cambridge 
# Structural Database, then it will include bibliographic, chemical, 
# crystal, experimental, refinement or atomic coordinate data resulting 
# from the CCDC's data processing and validation procedures.
#
#######################################################################

data_EBEJAY
_symmetry_cell_setting           monoclinic
_symmetry_space_group_name_H-M   'C 2/c'
_symmetry_Int_Tables_number      15
_space_group_name_Hall           '-C 2yn'
loop_
_symmetry_equiv_pos_site_id
_symmetry_equiv_pos_as_xyz
1 x,y,z
2 -x,y,1/2-z
3 1/2+x,1/2+y,z
4 1/2-x,1/2+y,1/2-z
5 -x,-y,-z
6 x,-y,1/2+z
7 1/2-x,1/2-y,-z
8 1/2+x,1/2-y,1/2+z
_cell_length_a                   21.415(4)
_cell_length_b                   11.840(2)
_cell_length_c                   19.472(3)
_cell_angle_alpha                90
_cell_angle_beta                 114.207(2)
_cell_angle_gamma                90
_cell_volume                     4503.07
loop_
_atom_site_label
_atom_site_type_symbol
_atom_site_fract_x
_atom_site_fract_y
_atom_site_fract_z
C1 C 0.24711(13) 0.5190(2) 0.63748(14)
C2 C 0.22247(15) 0.6018(2) 0.67120(15)
H1 H 0.2154 0.6746 0.6516
C3 C 0.20836(14) 0.5784(2) 0.73271(15)
H2 H 0.1916 0.6348 0.7538
C4 C 0.21926(13) 0.4709(2) 0.76287(14)
C5 C 0.24552(14) 0.3885(2) 0.73200(15)
H3 H 0.2540 0.3168 0.7533
C6 C 0.25969(14) 0.4108(2) 0.66906(15)
C7 C 0.19827(14) 0.4422(2) 0.82596(15)
C8 C 0.29046(15) 0.3156(2) 0.64209(16)
C9 C 0.02235(16) 0.7890(3) 0.3535(2)
H4 H 0.0380 0.8631 0.3596
C10 C 0.01925(17) 0.6093(3) 0.3533(2)
H5 H 0.0329 0.5341 0.3597
C11 C -0.04594(17) 0.6459(3) 0.3256(2)
H6 H -0.0850 0.6011 0.3092
C12 C -0.10289(18) 0.8370(4) 0.2979(3)
H7 H -0.1444 0.7948 0.2886
H8 H -0.1070 0.8688 0.2503
C13 C -0.09648(16) 0.9321(3) 0.3523(2)
C14 C -0.07988(15) 1.0401(3) 0.33788(19)
H9 H -0.0708 1.0529 0.2957
C15 C -0.07663(15) 1.1288(3) 0.3852(2)
C16 C -0.0915(2) 1.1094(4) 0.4469(2)
H10 H -0.0911 1.1690 0.4782
C17 C -0.1070(2) 1.0023(4) 0.4619(3)
H11 H -0.1151 0.9890 0.5046
C18 C -0.1107(2) 0.9136(4) 0.4135(3)
H12 H -0.1228 0.8417 0.4228
C19 C -0.06380(17) 1.2468(3) 0.3659(2)
H13 H -0.0711 1.2484 0.3133
H14 H -0.0974 1.2965 0.3714
C20 C 0.02466(18) 1.3506(3) 0.4775(2)
H15 H -0.0021 1.3675 0.5035
C21 C 0.09063(18) 1.3790(3) 0.4972(2)
H16 H 0.1176 1.4189 0.5404
C22 C 0.05869(16) 1.2878(3) 0.39419(18)
H17 H 0.0588 1.2518 0.3517
N1 N 0.06197(12) 0.7000(2) 0.37047(14)
N2 N -0.04386(13) 0.7592(3) 0.32612(16)
N3 N 0.11201(12) 1.3407(2) 0.44431(14)
N4 N 0.00498(13) 1.2918(2) 0.41141(15)
O1 O 0.19905(10) 0.63406(17) 0.51119(11)
O2 O 0.32727(10) 0.62810(16) 0.58333(11)
O3 O 0.26666(10) 0.45557(16) 0.51529(11)
O4 O 0.17184(10) 0.51769(17) 0.85053(11)
O5 O 0.20505(11) 0.34096(17) 0.84710(12)
O6 O 0.35199(12) 0.2979(2) 0.67586(13)
O7 O 0.24984(11) 0.25290(18) 0.58921(12)
P1 P 0.26103(4) 0.56146(6) 0.55540(4)
Zn1 Zn 0.164769(16) 0.70839(3) 0.416212(17)
Zn2 Zn 0.200860(17) 0.63243(3) 0.936060(19)
N3E N 0.11201(12) 0.6593(2) 0.94431(14)
O2F O 0.17273(10) 0.87190(16) 0.41667(11)
O3E O 0.26666(10) 0.54443(16) 1.01529(11)
O5E O 0.20505(11) 0.65904(17) 0.34710(12)
O7C O 0.25016(11) 0.75290(18) 0.91079(12)
Zn1F Zn 0.335231(16) 0.79161(3) 0.583788(17)
Zn1E Zn 0.164769(16) 0.29161(3) 0.916212(17)
Zn2E Zn 0.200860(17) 1.36757(3) 0.436060(19)
Zn2E_2 Zn 0.200860(17) 0.36757(3) 0.436060(19)
Zn2C Zn 0.299140(17) 0.13243(3) 0.563940(19)
loop_
_geom_bond_atom_site_label_1
_geom_bond_atom_site_label_2
_geom_bond_site_symmetry_1
_geom_bond_site_symmetry_2
C1 C2 1_555 1_555
C2 H1 1_555 1_555
C3 C2 1_555 1_555
H2 C3 1_555 1_555
C4 C3 1_555 1_555
C5 C4 1_555 1_555
H3 C5 1_555 1_555
C6 C1 1_555 1_555
C7 C4 1_555 1_555
C8 C6 1_555 1_555
C9 H4 1_555 1_555
C10 H5 1_555 1_555
C11 C10 1_555 1_555
H6 C11 1_555 1_555
C12 H7 1_555 1_555
H8 C12 1_555 1_555
C13 C12 1_555 1_555
C14 C13 1_555 1_555
H9 C14 1_555 1_555
C15 C14 1_555 1_555
C16 C15 1_555 1_555
H10 C16 1_555 1_555
C17 C16 1_555 1_555
H11 C17 1_555 1_555
C18 C13 1_555 1_555
H12 C18 1_555 1_555
C19 C15 1_555 1_555
H13 C19 1_555 1_555
H14 C19 1_555 1_555
C20 H15 1_555 1_555
C21 C20 1_555 1_555
H16 C21 1_555 1_555
C22 H17 1_555 1_555
N1 C9 1_555 1_555
N2 C9 1_555 1_555
N3 C21 1_555 1_555
N4 C19 1_555 1_555
O1 P1 1_555 1_555
O2 P1 1_555 1_555
O3 P1 1_555 1_555
O4 C7 1_555 1_555
O5 C7 1_555 1_555
O6 C8 1_555 1_555
O7 C8 1_555 1_555
P1 C1 1_555 1_555
Zn1 N1 1_555 1_555
Zn2 O4 1_555 1_555
N3E Zn2 1_555 1_555
O2F Zn1 1_555 1_555
O3E Zn2 1_555 1_555
O5E Zn1 1_555 1_555
O7C Zn2 1_555 1_555
Zn1F O2 1_555 1_555
Zn1E O5 1_555 1_555
Zn2E N3 1_555 1_555
Zn2E_2 O3 1_555 1_555
Zn2C O7 1_555 1_555
C5 C6 1_555 1_555
C10 N1 1_555 1_555
C11 N2 1_555 1_555
C12 N2 1_555 1_555
C17 C18 1_555 1_555
C20 N4 1_555 1_555
C22 N3 1_555 1_555
C22 N4 1_555 1_555
O1 Zn1 1_555 1_555

#END
