
#######################################################################
#
#                 Cambridge Crystallographic Data Centre
#                                CCDC 
#
#######################################################################
#
# If this CIF has been generated from an entry in the Cambridge 
# Structural Database, then it will include bibliographic, chemical, 
# crystal, experimental, refinement or atomic coordinate data resulting 
# from the CCDC's data processing and validation procedures.
#
#######################################################################

data_EBEKON
_symmetry_cell_setting           rhombohedral
_symmetry_space_group_name_H-M   'R -3'
_symmetry_Int_Tables_number      148
_space_group_name_Hall           '-R 3'
loop_
_symmetry_equiv_pos_site_id
_symmetry_equiv_pos_as_xyz
1 x,y,z
2 -y,x-y,z
3 -x+y,-x,z
4 2/3+x,1/3+y,1/3+z
5 2/3-y,1/3+x-y,1/3+z
6 2/3-x+y,1/3-x,1/3+z
7 1/3+x,2/3+y,2/3+z
8 1/3-y,2/3+x-y,2/3+z
9 1/3-x+y,2/3-x,2/3+z
10 -x,-y,-z
11 y,-x+y,-z
12 x-y,x,-z
13 1/3-x,2/3-y,2/3-z
14 1/3+y,2/3-x+y,2/3-z
15 1/3+x-y,2/3+x,2/3-z
16 2/3-x,1/3-y,1/3-z
17 2/3+y,1/3-x+y,1/3-z
18 2/3+x-y,1/3+x,1/3-z
_cell_length_a                   23.2562(6)
_cell_length_b                   23.2562(6)
_cell_length_c                   62.035(2)
_cell_angle_alpha                90
_cell_angle_beta                 90
_cell_angle_gamma                120
_cell_volume                     29056.6
loop_
_atom_site_label
_atom_site_type_symbol
_atom_site_fract_x
_atom_site_fract_y
_atom_site_fract_z
C1 C 1.2061(6) -0.4600(4) 0.19063(11)
H1 H 1.2532 -0.4378 0.1930
H2 H 1.1889 -0.4326 0.1958
H3 H 1.1971 -0.4680 0.1755
C2 C 1.1737(6) -0.5243(4) 0.20243(9)
C3 C 1.1549(5) -0.5246(4) 0.22404(9)
H4 H 1.1647 -0.4838 0.2298
C4 C 1.1231(4) -0.5796(3) 0.23769(9)
C5 C 1.1094(4) -0.5722(3) 0.26088(9)
C6 C 1.1302(6) -0.5109(4) 0.27044(10)
H5 H 1.1516 -0.4728 0.2620
C7 C 1.1202(6) -0.5046(4) 0.29216(9)
H6 H 1.1336 -0.4631 0.2981
C8 C 1.0899(6) -0.5612(4) 0.30470(9)
C9 C 1.0665(6) -0.6237(4) 0.29571(10)
H7 H 1.0439 -0.6620 0.3039
C10 C 1.0785(6) -0.6267(4) 0.27381(10)
H8 H 1.0646 -0.6681 0.2677
C11 C 1.0507(6) -0.5230(4) 0.33594(9)
H9 H 1.0282 -0.5073 0.3276
C12 C 1.0928(6) -0.5465(4) 0.36275(10)
C13 C 1.1142(6) -0.5538(4) 0.38337(11)
H10 H 1.1028 -0.5390 0.3957
C14 C 1.1521(6) -0.5831(4) 0.38458(12)
H11 H 1.1673 -0.5878 0.3979
C15 C 1.1686(6) -0.6066(4) 0.36604(12)
H12 H 1.1940 -0.6270 0.3675
C16 C 1.1485(6) -0.6002(4) 0.34558(11)
H13 H 1.1598 -0.6153 0.3333
C17 C 1.1102(6) -0.5698(4) 0.34472(9)
C18 C 0.7771(6) -0.5257(4) 0.55796(12)
H14 H 0.7991 -0.5175 0.5716
H15 H 0.7859 -0.5554 0.5497
H16 H 0.7302 -0.5453 0.5601
C19 C 0.8032(6) -0.4601(4) 0.54580(10)
C20 C 0.8234(5) -0.4580(4) 0.52416(9)
H17 H 0.8172 -0.4975 0.5182
C21 C 0.8519(6) -0.4022(4) 0.51088(9)
C22 C 0.8669(4) -0.4102(3) 0.48787(9)
C23 C 0.8191(6) -0.4611(4) 0.47514(10)
H18 H 0.7792 -0.4927 0.4813
C24 C 0.8304(6) -0.4653(4) 0.45317(10)
H19 H 0.7976 -0.4984 0.4446
C25 C 0.8903(6) -0.4200(4) 0.44430(9)
C26 C 0.9377(6) -0.3692(4) 0.45654(9)
H20 H 0.9782 -0.3382 0.4505
C27 C 0.9238(6) -0.3651(4) 0.47825(9)
H21 H 0.9552 -0.3297 0.4864
C28 C 0.9521(6) -0.4332(4) 0.41377(9)
H22 H 0.9836 -0.4355 0.4224
C29 C 0.8961(6) -0.4331(4) 0.38631(9)
C30 C 0.8718(6) -0.4337(4) 0.36569(11)
H23 H 0.8932 -0.4375 0.3535
C31 C 0.8154(6) -0.4284(4) 0.36371(11)
H24 H 0.7977 -0.4299 0.3501
C32 C 0.7846(6) -0.4210(4) 0.38208(12)
H25 H 0.7463 -0.4183 0.3803
C33 C 0.8089(6) -0.4176(4) 0.40267(11)
H26 H 0.7888 -0.4114 0.4147
C34 C 0.8650(6) -0.4239(4) 0.40433(10)
C35 C 0.8014(8) -0.6272(5) 0.35969(12)
H27 H 0.7821 -0.5992 0.3592
H28 H 0.7724 -0.6673 0.3673
H29 H 0.8076 -0.6380 0.3452
C36 C 0.8681(6) -0.5912(4) 0.37111(10)
C37 C 0.8702(6) -0.6088(4) 0.39287(10)
H30 H 0.8300 -0.6390 0.3992
C38 C 0.9270(6) -0.5850(4) 0.40571(9)
C39 C 0.9197(6) -0.6086(4) 0.42864(10)
C40 C 0.9625(6) -0.6273(4) 0.43738(11)
H31 H 0.9944 -0.6281 0.4285
C41 C 0.9598(6) -0.6449(4) 0.45896(10)
H32 H 0.9889 -0.6578 0.4644
C42 C 0.9130(6) -0.6427(4) 0.47190(10)
C43 C 0.8684(6) -0.6233(5) 0.46373(11)
H33 H 0.8373 -0.6217 0.4727
C44 C 0.8715(7) -0.6067(5) 0.44204(11)
H34 H 0.8421 -0.5945 0.4364
C45 C 0.8937(6) -0.7209(4) 0.50222(9)
H35 H 0.8884 -0.7556 0.4934
C46 C 0.8987(6) -0.6643(4) 0.53000(9)
C47 C 0.8988(6) -0.6398(4) 0.55086(10)
H36 H 0.8911 -0.6663 0.5629
C48 C 0.9100(6) -0.5775(4) 0.55285(12)
H37 H 0.9102 -0.5611 0.5665
C49 C 0.9215(6) -0.5364(4) 0.53501(11)
H38 H 0.9295 -0.4934 0.5370
C50 C 0.9211(6) -0.5593(4) 0.51401(12)
H39 H 0.9290 -0.5323 0.5020
C51 C 0.9087(6) -0.6232(4) 0.51211(10)
C52 C 1.2078(8) -0.3339(5) 0.39233(12)
H40 H 1.2383 -0.2927 0.3854
H41 H 1.2257 -0.3632 0.3920
H42 H 1.2011 -0.3255 0.4070
C53 C 1.1417(6) -0.3659(4) 0.38042(9)
C54 C 1.1419(6) -0.3464(4) 0.35866(9)
H43 H 1.1827 -0.3149 0.3530
C55 C 1.0880(6) -0.3694(4) 0.34500(9)
C56 C 1.0966(4) -0.3480(3) 0.32209(9)
C57 C 1.1592(6) -0.3087(4) 0.31248(10)
H44 H 1.1974 -0.2925 0.3208
C58 C 1.1645(6) -0.2940(4) 0.29068(10)
H45 H 1.2061 -0.2677 0.2846
C59 C 1.1083(6) -0.3182(4) 0.27792(9)
C60 C 1.0479(6) -0.3534(4) 0.28709(10)
H46 H 1.0100 -0.3669 0.2788
C61 C 1.0420(6) -0.3698(4) 0.30908(10)
H47 H 0.9999 -0.3961 0.3150
C62 C 1.1470(6) -0.2433(4) 0.24671(9)
H48 H 1.1645 -0.2047 0.2549
C63 C 1.1219(6) -0.3091(4) 0.21983(9)
C64 C 1.1144(6) -0.3386(4) 0.19963(10)
H49 H 1.1301 -0.3130 0.1872
C65 C 1.0829(6) -0.4068(5) 0.19871(11)
H50 H 1.0771 -0.4278 0.1855
C66 C 1.0601(6) -0.4437(4) 0.21703(12)
H51 H 1.0392 -0.4897 0.2158
C67 C 1.0661(6) -0.4167(4) 0.23772(11)
H52 H 1.0503 -0.4429 0.2500
C68 C 1.0973(6) -0.3479(4) 0.23844(10)
N1 N 1.0552(4) -0.5175(3) 0.35688(7)
N2 N 1.0822(4) -0.5540(3) 0.32742(7)
N3 N 0.9508(4) -0.4383(3) 0.39285(7)
N4 N 0.9022(4) -0.4240(3) 0.42180(7)
N5 N 0.8892(4) -0.7251(3) 0.52314(7)
N6 N 0.9070(4) -0.6607(3) 0.49436(8)
N7 N 1.1522(4) -0.2428(3) 0.22567(7)
N8 N 1.1145(4) -0.3041(3) 0.25539(7)
O1 O 1.1660(4) -0.5746(3) 0.19198(6)
O2 O 1.1048(3) -0.6397(2) 0.23211(6)
O3 O 0.8035(3) -0.4134(2) 0.55594(6)
O4 O 0.8663(3) -0.3440(2) 0.51590(6)
O5 O 0.9161(4) -0.5474(2) 0.36077(6)
O6 O 0.9857(4) -0.5440(3) 0.40027(6)
O7 O 1.0925(4) -0.4087(3) 0.39055(6)
O8 O 1.0282(3) -0.4096(2) 0.35044(6)
Zn1 Zn 1.00498(6) -0.47700(4) 0.375345(9)
Zn2 Zn 0.85566(6) -0.81734(4) 0.540680(9)
N7C N 0.8189(4) -0.9095(3) 0.55900(7)
O1E O 0.9261(5) -0.8327(4) 0.52531(6)
O2E O 0.9222(4) -0.7715(3) 0.56544(6)
O3B O 0.7831(4) -0.8035(3) 0.55594(6)
O4B O 0.7897(4) -0.8663(3) 0.51590(6)
Zn2F Zn 1.18899(6) -0.15067(4) 0.207347(9)
Zn2G Zn 1.15067(4) -0.66033(7) 0.207347(9)
Zn2A Zn 0.81734(4) -0.32700(7) 0.540680(9)
O9 O 0.9837(2) 0.06327(19) 0.17674(7)
H53 H 1.0197 0.0603 0.1761
H54 H 0.9849 0.0871 0.1658
O10 O 0.3297(2) 0.5929(2) 0.24415(10)
H55 H 0.3010 0.6056 0.2426
H56 H 0.3259 0.5796 0.2578
O11 O 0.9227(2) 0.9843(3) 0.07624(8)
H57 H 0.9398 0.9612 0.0711
H58 H 0.9021 0.9906 0.0657
O12 O 0.7366(3) 0.3284(3) 0.00451(11)
H59 H 0.6978 0.3011 0.0103
H60 H 0.7316 0.3219 -0.0096
O13 O 0.0000 0.0000 0.1147(2)
H61? H 0.0000 0.0000 0.1284
H62? H 0.0317 0.0359 0.1092
loop_
_geom_bond_atom_site_label_1
_geom_bond_atom_site_label_2
_geom_bond_site_symmetry_1
_geom_bond_site_symmetry_2
C1 H1 1_555 1_555
H2 C1 1_555 1_555
H3 C1 1_555 1_555
C2 C1 1_555 1_555
C3 C2 1_555 1_555
H4 C3 1_555 1_555
C4 C3 1_555 1_555
C5 C4 1_555 1_555
C6 C5 1_555 1_555
H5 C6 1_555 1_555
C7 C6 1_555 1_555
H6 C7 1_555 1_555
C8 C7 1_555 1_555
C9 C8 1_555 1_555
H7 C9 1_555 1_555
C10 C5 1_555 1_555
H8 C10 1_555 1_555
C11 H9 1_555 1_555
C12 C13 1_555 1_555
C13 H10 1_555 1_555
C14 C13 1_555 1_555
H11 C14 1_555 1_555
C15 C14 1_555 1_555
H12 C15 1_555 1_555
C16 C15 1_555 1_555
H13 C16 1_555 1_555
C17 C12 1_555 1_555
C18 H14 1_555 1_555
H15 C18 1_555 1_555
H16 C18 1_555 1_555
C19 C18 1_555 1_555
C20 C19 1_555 1_555
H17 C20 1_555 1_555
C21 C20 1_555 1_555
C22 C21 1_555 1_555
C23 C22 1_555 1_555
H18 C23 1_555 1_555
C24 C23 1_555 1_555
H19 C24 1_555 1_555
C25 C24 1_555 1_555
C26 C25 1_555 1_555
H20 C26 1_555 1_555
C27 C22 1_555 1_555
H21 C27 1_555 1_555
C28 H22 1_555 1_555
C29 C30 1_555 1_555
C30 H23 1_555 1_555
C31 C30 1_555 1_555
H24 C31 1_555 1_555
C32 C31 1_555 1_555
H25 C32 1_555 1_555
C33 C32 1_555 1_555
H26 C33 1_555 1_555
C34 C29 1_555 1_555
C35 H27 1_555 1_555
H28 C35 1_555 1_555
H29 C35 1_555 1_555
C36 C35 1_555 1_555
C37 C36 1_555 1_555
H30 C37 1_555 1_555
C38 C37 1_555 1_555
C39 C38 1_555 1_555
C40 C39 1_555 1_555
H31 C40 1_555 1_555
C41 C40 1_555 1_555
H32 C41 1_555 1_555
C42 C41 1_555 1_555
C43 C42 1_555 1_555
H33 C43 1_555 1_555
C44 C39 1_555 1_555
H34 C44 1_555 1_555
C45 H35 1_555 1_555
C46 C47 1_555 1_555
C47 H36 1_555 1_555
C48 C47 1_555 1_555
H37 C48 1_555 1_555
C49 C48 1_555 1_555
H38 C49 1_555 1_555
C50 C49 1_555 1_555
H39 C50 1_555 1_555
C51 C46 1_555 1_555
C52 H40 1_555 1_555
H41 C52 1_555 1_555
H42 C52 1_555 1_555
C53 C52 1_555 1_555
C54 C53 1_555 1_555
H43 C54 1_555 1_555
C55 C54 1_555 1_555
C56 C55 1_555 1_555
C57 C56 1_555 1_555
H44 C57 1_555 1_555
C58 C57 1_555 1_555
H45 C58 1_555 1_555
C59 C58 1_555 1_555
C60 C59 1_555 1_555
H46 C60 1_555 1_555
C61 C56 1_555 1_555
H47 C61 1_555 1_555
C62 H48 1_555 1_555
C63 C64 1_555 1_555
C64 H49 1_555 1_555
C65 C64 1_555 1_555
H50 C65 1_555 1_555
C66 C65 1_555 1_555
H51 C66 1_555 1_555
C67 C66 1_555 1_555
H52 C67 1_555 1_555
C68 C63 1_555 1_555
N1 C11 1_555 1_555
N2 C8 1_555 1_555
N3 C28 1_555 1_555
N4 C25 1_555 1_555
N5 C45 1_555 1_555
N6 C42 1_555 1_555
N7 C62 1_555 1_555
N8 C59 1_555 1_555
O1 C2 1_555 1_555
O2 C4 1_555 1_555
O3 C19 1_555 1_555
O4 C21 1_555 1_555
O5 C36 1_555 1_555
O6 C38 1_555 1_555
O7 C53 1_555 1_555
O8 C55 1_555 1_555
O9 H53 1_555 1_555
H54 O9 1_555 1_555
O10 H55 1_555 1_555
H56 O10 1_555 1_555
O11 H57 1_555 1_555
H58 O11 1_555 1_555
O12 H59 1_555 1_555
H60 O12 1_555 1_555
Zn1 N1 1_555 1_555
Zn2 N5 1_555 1_555
N7C Zn2 1_555 1_555
O1E Zn2 1_555 1_555
O2E Zn2 1_555 1_555
O3B Zn2 1_555 1_555
O4B Zn2 1_555 1_555
Zn2F N7 1_555 1_555
Zn2G O1 1_555 1_555
Zn2A O3 1_555 1_555
C9 C10 1_555 1_555
C11 N2 1_555 1_555
C12 N1 1_555 1_555
C16 C17 1_555 1_555
C17 N2 1_555 1_555
C26 C27 1_555 1_555
C28 N4 1_555 1_555
C29 N3 1_555 1_555
C33 C34 1_555 1_555
C34 N4 1_555 1_555
C43 C44 1_555 1_555
C45 N6 1_555 1_555
C46 N5 1_555 1_555
C50 C51 1_555 1_555
C51 N6 1_555 1_555
C60 C61 1_555 1_555
C62 N8 1_555 1_555
C63 N7 1_555 1_555
C67 C68 1_555 1_555
C68 N8 1_555 1_555
N3 Zn1 1_555 1_555
O2 Zn2G 1_555 1_555
O4 Zn2A 1_555 1_555
O5 Zn1 1_555 1_555
O6 Zn1 1_555 1_555
O7 Zn1 1_555 1_555
O8 Zn1 1_555 1_555

#END
