
#######################################################################
#
#                 Cambridge Crystallographic Data Centre
#                                CCDC 
#
#######################################################################
#
# If this CIF has been generated from an entry in the Cambridge 
# Structural Database, then it will include bibliographic, chemical, 
# crystal, experimental, refinement or atomic coordinate data resulting 
# from the CCDC's data processing and validation procedures.
#
#######################################################################

data_EBEKUT
_symmetry_cell_setting           triclinic
_symmetry_space_group_name_H-M   'P -1'
_symmetry_Int_Tables_number      2
_space_group_name_Hall           '-P 1'
loop_
_symmetry_equiv_pos_site_id
_symmetry_equiv_pos_as_xyz
1 x,y,z
2 -x,-y,-z
_cell_length_a                   9.768(2)
_cell_length_b                   10.475(2)
_cell_length_c                   10.640(2)
_cell_angle_alpha                74.74(3)
_cell_angle_beta                 80.82(3)
_cell_angle_gamma                69.50(3)
_cell_volume                     981.047
loop_
_atom_site_label
_atom_site_type_symbol
_atom_site_fract_x
_atom_site_fract_y
_atom_site_fract_z
Ag1 Ag 0.318451(19) 0.115215(17) 0.288741(18)
N1 N 0.3114(2) 0.2166(2) 0.0739(2)
N2 N -0.05962(19) 0.78660(19) -0.35895(18)
H1 H -0.0532 0.7631 -0.4376
H2 H -0.0157 0.8542 -0.3721
N3 N 0.3732(2) -0.6929(2) 0.3309(2)
N4 N 0.42590(19) -0.09502(17) 0.41947(18)
H3 H 0.5242 -0.1065 0.4154
H4 H 0.3891 -0.0896 0.5038
C1 C 0.5287(2) -0.3046(2) 0.3320(2)
H5 H 0.6144 -0.2795 0.2998
C2 C 0.0882(2) 0.6829(2) -0.1717(2)
H6 H 0.0846 0.7733 -0.1669
C3 C 0.5181(2) -0.4259(2) 0.3124(2)
H7 H 0.5967 -0.4847 0.2677
C4 C 0.3914(2) -0.4617(2) 0.3587(2)
C5 C 0.2766(2) -0.3752(2) 0.4233(2)
H8 H 0.1899 -0.3991 0.4540
C6 C 0.0218(2) 0.5347(2) -0.2739(2)
H9 H -0.0265 0.5235 -0.3391
C7 C 0.0174(2) 0.6686(2) -0.2699(2)
C8 C 0.4145(2) -0.2188(2) 0.3986(2)
C9 C 0.1673(2) 0.4341(2) -0.0887(2)
C10 C 0.1623(2) 0.5680(2) -0.0830(2)
H10 H 0.2103 0.5789 -0.0175
C11 C 0.2879(2) -0.2542(2) 0.4433(2)
H11 H 0.2090 -0.1951 0.4876
C12 C 0.3814(3) -0.5903(2) 0.3422(2)
C13 C 0.2463(3) 0.3134(2) 0.0025(2)
C14 C 0.0953(2) 0.4190(2) -0.1842(2)
H12 H 0.0970 0.3287 -0.1874
Ag1A Ag -0.318451(19) 0.884785(17) -0.288741(18)
Ag1_2 Ag 0.318451(19) -0.884785(17) 0.288741(18)
Ag1_3 Ag 0.318451(19) 1.115215(17) 0.288741(18)
N1A N -0.3114(2) 0.7834(2) -0.0739(2)
N2A N 0.05962(19) 0.21340(19) 0.35895(18)
H1A H 0.0532 0.2369 0.4376
H2A H 0.0157 0.1458 0.3721
N3_2 N 0.3732(2) 0.3071(2) 0.3309(2)
N3A N -0.3732(2) 0.6929(2) -0.3309(2)
N4_2 N 0.42590(19) 0.90498(17) 0.41947(18)
N4A N -0.42590(19) 1.09502(17) -0.41947(18)
H3_2 H 0.5242 0.8935 0.4154
H3A H -0.5242 1.1065 -0.4154
H4_2 H 0.3891 0.9104 0.5038
H4A H -0.3891 1.0896 -0.5038
C1_2 C 0.5287(2) 0.6954(2) 0.3320(2)
H5_2 H 0.6144 0.7205 0.2998
C2A C -0.0882(2) 0.3171(2) 0.1717(2)
H6A H -0.0846 0.2267 0.1669
C3_2 C 0.5181(2) 0.5741(2) 0.3124(2)
H7_2 H 0.5967 0.5153 0.2677
C4_2 C 0.3914(2) 0.5383(2) 0.3587(2)
C5_2 C 0.2766(2) 0.6248(2) 0.4233(2)
H8_2 H 0.1899 0.6009 0.4540
C6A C -0.0218(2) 0.4653(2) 0.2739(2)
H9A H 0.0265 0.4765 0.3391
C7A C -0.0174(2) 0.3314(2) 0.2699(2)
C8_2 C 0.4145(2) 0.7812(2) 0.3986(2)
C9A C -0.1673(2) 0.5659(2) 0.0887(2)
C10A C -0.1623(2) 0.4320(2) 0.0830(2)
H10A H -0.2103 0.4211 0.0175
C11_2 C 0.2879(2) 0.7458(2) 0.4433(2)
H11_2 H 0.2090 0.8049 0.4876
C12_2 C 0.3814(3) 0.4097(2) 0.3422(2)
C13A C -0.2463(3) 0.6866(2) -0.0025(2)
C14A C -0.0953(2) 0.5810(2) 0.1842(2)
H12A H -0.0970 0.6713 0.1874
S1 S 0.15257(6) 0.06667(5) -0.31670(5)
O1 O 0.30908(18) 0.0273(2) -0.35445(16)
O2 O 0.08183(18) -0.00905(17) -0.36659(15)
O3 O 0.0795(2) 0.21642(16) -0.34970(15)
C15 C 0.2641(2) -0.1047(3) 0.0550(2)
H13 H 0.3535 -0.1481 0.0964
C16 C 0.2672(2) -0.0536(3) -0.0816(2)
H14 H 0.3586 -0.0639 -0.1315
C17 C 0.1400(2) 0.0104(2) -0.1425(2)
C18 C 0.0008(2) 0.0269(2) -0.0693(2)
C19 C 0.1342(2) -0.0927(2) 0.1285(2)
H15 H 0.1341 -0.1289 0.2203
S1A S -0.15257(6) -0.06667(5) 0.31670(5)
O1A O -0.30908(18) -0.0273(2) 0.35445(16)
O2A O -0.08183(18) 0.00905(17) 0.36659(15)
O3A O -0.0795(2) -0.21642(16) 0.34970(15)
C15A C -0.2641(2) 0.1047(3) -0.0550(2)
H13A H -0.3535 0.1481 -0.0964
C16A C -0.2672(2) 0.0536(3) 0.0816(2)
H14A H -0.3586 0.0639 0.1315
C17A C -0.1400(2) -0.0104(2) 0.1425(2)
C18A C -0.0008(2) -0.0269(2) 0.0693(2)
C19A C -0.1342(2) 0.0927(2) -0.1285(2)
H15A H -0.1341 0.1289 -0.2203
loop_
_geom_bond_atom_site_label_1
_geom_bond_atom_site_label_2
_geom_bond_site_symmetry_1
_geom_bond_site_symmetry_2
Ag1 N1 1_555 1_555
N1 C13 1_555 1_555
N2 H1 1_555 1_555
H2 N2 1_555 1_555
N3 C12 1_555 1_555
N4 Ag1 1_555 1_555
H3 N4 1_555 1_555
H4 N4 1_555 1_555
C1 H5 1_555 1_555
C2 H6 1_555 1_555
C3 C1 1_555 1_555
H7 C3 1_555 1_555
C4 C3 1_555 1_555
C5 C4 1_555 1_555
H8 C5 1_555 1_555
C6 H9 1_555 1_555
C7 N2 1_555 1_555
C8 N4 1_555 1_555
C9 C10 1_555 1_555
C10 C2 1_555 1_555
H10 C10 1_555 1_555
C11 C5 1_555 1_555
H11 C11 1_555 1_555
C12 C4 1_555 1_555
C13 C9 1_555 1_555
C14 C6 1_555 1_555
H12 C14 1_555 1_555
S1 O1 1_555 1_555
O2 S1 1_555 1_555
O3 S1 1_555 1_555
C15 H13 1_555 1_555
C16 C15 1_555 1_555
H14 C16 1_555 1_555
C17 S1 1_555 1_555
C18 C17 1_555 1_555
C19 C15 1_555 1_555
H15 C19 1_555 1_555
Ag1A N2 1_555 1_555
Ag1_2 N3 1_555 1_555
Ag1_3 N4_2 1_555 1_555
N1A Ag1A 1_555 1_555
N2A Ag1 1_555 1_555
H1A N2A 1_555 1_555
H2A N2A 1_555 1_555
N3_2 Ag1 1_555 1_555
N3A Ag1A 1_555 1_555
N4_2 H3_2 1_555 1_555
N4A Ag1A 1_555 1_555
H3A N4A 1_555 1_555
H4_2 N4_2 1_555 1_555
H4A N4A 1_555 1_555
C1_2 H5_2 1_555 1_555
C2A H6A 1_555 1_555
C3_2 C1_2 1_555 1_555
H7_2 C3_2 1_555 1_555
C4_2 C3_2 1_555 1_555
C5_2 C4_2 1_555 1_555
H8_2 C5_2 1_555 1_555
C6A H9A 1_555 1_555
C7A N2A 1_555 1_555
C8_2 N4_2 1_555 1_555
C9A C10A 1_555 1_555
C10A C2A 1_555 1_555
H10A C10A 1_555 1_555
C11_2 C5_2 1_555 1_555
H11_2 C11_2 1_555 1_555
C12_2 N3_2 1_555 1_555
C13A N1A 1_555 1_555
C14A C6A 1_555 1_555
H12A C14A 1_555 1_555
S1A O1A 1_555 1_555
O2A S1A 1_555 1_555
O3A S1A 1_555 1_555
C15A H13A 1_555 1_555
C16A C15A 1_555 1_555
H14A C16A 1_555 1_555
C17A S1A 1_555 1_555
C18A C18 1_555 1_555
C19A C18 1_555 1_555
H15A C19A 1_555 1_555
C1 C8 1_555 1_555
C2 C7 1_555 1_555
C6 C7 1_555 1_555
C8 C11 1_555 1_555
C9 C14 1_555 1_555
C16 C17 1_555 1_555
C19 C18A 1_555 1_555
C1_2 C8_2 1_555 1_555
C2A C7A 1_555 1_555
C4_2 C12_2 1_555 1_555
C6A C7A 1_555 1_555
C8_2 C11_2 1_555 1_555
C9A C13A 1_555 1_555
C9A C14A 1_555 1_555
C15A C19A 1_555 1_555
C16A C17A 1_555 1_555
C17A C18A 1_555 1_555

#END
