
#######################################################################
#
#                 Cambridge Crystallographic Data Centre
#                                CCDC 
#
#######################################################################
#
# If this CIF has been generated from an entry in the Cambridge 
# Structural Database, then it will include bibliographic, chemical, 
# crystal, experimental, refinement or atomic coordinate data resulting 
# from the CCDC's data processing and validation procedures.
#
#######################################################################

data_EBEKIH
_symmetry_cell_setting           rhombohedral
_symmetry_space_group_name_H-M   'R -3'
_symmetry_Int_Tables_number      148
_space_group_name_Hall           '-R 3'
loop_
_symmetry_equiv_pos_site_id
_symmetry_equiv_pos_as_xyz
1 x,y,z
2 -y,x-y,z
3 -x+y,-x,z
4 2/3+x,1/3+y,1/3+z
5 2/3-y,1/3+x-y,1/3+z
6 2/3-x+y,1/3-x,1/3+z
7 1/3+x,2/3+y,2/3+z
8 1/3-y,2/3+x-y,2/3+z
9 1/3-x+y,2/3-x,2/3+z
10 -x,-y,-z
11 y,-x+y,-z
12 x-y,x,-z
13 1/3-x,2/3-y,2/3-z
14 1/3+y,2/3-x+y,2/3-z
15 1/3+x-y,2/3+x,2/3-z
16 2/3-x,1/3-y,1/3-z
17 2/3+y,1/3-x+y,1/3-z
18 2/3+x-y,1/3+x,1/3-z
_cell_length_a                   22.8907(9)
_cell_length_b                   22.8907(9)
_cell_length_c                   62.003(4)
_cell_angle_alpha                90
_cell_angle_beta                 90
_cell_angle_gamma                120
_cell_volume                     28135.9
loop_
_atom_site_label
_atom_site_type_symbol
_atom_site_fract_x
_atom_site_fract_y
_atom_site_fract_z
C1 C -0.2106(7) 0.3332(5) -0.14227(13)
H1 H -0.2235 0.3670 -0.1457
H2 H -0.2452 0.2980 -0.1331
H3 H -0.2062 0.3129 -0.1556
C2 C -0.1441(7) 0.3666(5) -0.13054(12)
C3 C -0.1429(7) 0.3477(5) -0.10872(12)
H4 H -0.1851 0.3157 -0.1026
C4 C -0.0877(7) 0.3704(5) -0.09543(12)
C5 C -0.0945(6) 0.3491(4) -0.07247(12)
C6 C -0.1584(8) 0.3058(5) -0.06297(12)
H5 H -0.1981 0.2867 -0.0715
C7 C -0.1624(8) 0.2918(5) -0.04117(13)
H6 H -0.2052 0.2620 -0.0349
C8 C -0.1053(7) 0.3203(5) -0.02807(11)
C9 C -0.0420(7) 0.3579(5) -0.03752(12)
H7 H -0.0020 0.3734 -0.0292
C10 C -0.0392(6) 0.3722(4) -0.05955(11)
H8 H 0.0039 0.3997 -0.0659
C11 C -0.1436(7) 0.2408(5) 0.00255(11)
H9 H -0.1595 0.2014 -0.0060
C12 C -0.0963(7) 0.3502(5) 0.01156(12)
C13 C -0.0658(8) 0.4195(5) 0.01287(14)
H10 H -0.0499 0.4475 0.0005
C14 C -0.0598(8) 0.4450(5) 0.03290(14)
H11 H -0.0377 0.4926 0.0345
C15 C -0.0849(8) 0.4045(6) 0.05166(14)
H12 H -0.0810 0.4255 0.0652
C16 C -0.1139(8) 0.3374(5) 0.05071(13)
H13 H -0.1306 0.3100 0.0633
C17 C -0.1184(7) 0.3095(5) 0.03002(11)
C18 C -0.0380(8) 0.0936(6) 0.02637(14)
H14 H -0.0683 0.0449 0.0246
H15 H 0.0018 0.1016 0.0347
H16 H -0.0238 0.1148 0.0122
C19 C -0.0751(7) 0.1241(5) 0.03842(12)
C20 C -0.0564(7) 0.1426(5) 0.06022(13)
H17 H -0.0262 0.1307 0.0667
C21 C -0.0799(8) 0.1778(6) 0.07287(12)
C22 C -0.0579(7) 0.1924(5) 0.09567(12)
C23 C -0.0613(8) 0.1433(6) 0.10926(13)
H18 H -0.0741 0.0999 0.1036
C24 C -0.0463(9) 0.1559(6) 0.13113(14)
H19 H -0.0519 0.1207 0.1406
C25 C -0.0230(7) 0.2213(5) 0.13898(11)
C26 C -0.0204(7) 0.2712(5) 0.12616(12)
H20 H -0.0072 0.3144 0.1320
C27 C -0.0371(7) 0.2580(5) 0.10455(12)
H21 H -0.0348 0.2926 0.0955
C28 C 0.0536(7) 0.2820(5) 0.16928(12)
H22 H 0.0891 0.3138 0.1604
C29 C -0.0025(6) 0.2273(4) 0.19701(10)
C30 C -0.0251(7) 0.2032(5) 0.21815(12)
H23 H 0.0037 0.2212 0.2303
C31 C -0.0897(7) 0.1535(5) 0.21998(13)
H24 H -0.1075 0.1384 0.2340
C32 C -0.1324(8) 0.1226(5) 0.20201(14)
H25 H -0.1766 0.0857 0.2042
C33 C -0.1101(7) 0.1458(5) 0.18118(13)
H26 H -0.1386 0.1275 0.1690
C34 C -0.0436(7) 0.1975(5) 0.17938(12)
C35 C -0.1362(8) -0.0323(6) 0.22441(13)
H27 H -0.1444 -0.0190 0.2386
H28 H -0.1046 0.0080 0.2163
H29 H -0.1171 -0.0619 0.2262
C36 C -0.2040(7) -0.0705(5) 0.21190(11)
C37 C -0.2049(7) -0.0536(5) 0.19018(12)
H30 H -0.1630 -0.0220 0.1838
C38 C -0.2620(7) -0.0791(5) 0.17712(12)
C39 C -0.2561(7) -0.0571(5) 0.15399(11)
C40 C -0.2043(8) -0.0561(5) 0.14117(13)
H31 H -0.1718 -0.0651 0.1475
C41 C -0.2016(8) -0.0420(6) 0.11944(13)
H32 H -0.1693 -0.0447 0.1105
C42 C -0.2465(7) -0.0236(5) 0.11048(11)
C43 C -0.2965(6) -0.0249(4) 0.12320(11)
H33 H -0.3283 -0.0145 0.1171
C44 C -0.3004(6) -0.0412(4) 0.14483(11)
H34 H -0.3346 -0.0412 0.1535
C45 C -0.2338(7) 0.0513(5) 0.07998(12)
H35 H -0.2330 0.0858 0.0887
C46 C -0.2343(7) -0.0037(5) 0.05277(11)
C47 C -0.2305(7) -0.0264(5) 0.03158(12)
H36 H -0.2228 0.0012 0.0193
C48 C -0.2386(7) -0.0897(5) 0.02985(14)
H37 H -0.2408 -0.1074 0.0158
C49 C -0.2439(8) -0.1309(6) 0.04809(13)
H38 H -0.2439 -0.1721 0.0463
C50 C -0.2490(7) -0.1084(5) 0.06864(13)
H39 H -0.2573 -0.1364 0.0809
C51 C -0.2419(6) -0.0449(5) 0.07084(11)
C52 C -0.3308(8) 0.2137(5) 0.05877(15)
H40 H -0.3414 0.1962 0.0735
H41 H -0.3723 0.2048 0.0514
H42 H -0.2992 0.2625 0.0592
C53 C -0.2985(8) 0.1788(5) 0.04659(12)
C54 C -0.3196(8) 0.1585(5) 0.02487(13)
H43 H -0.3525 0.1679 0.0191
C55 C -0.2962(7) 0.1266(5) 0.01165(12)
C56 C -0.3175(7) 0.1126(5) -0.01147(12)
C57 C -0.3604(8) 0.1330(5) -0.02116(13)
H44 H -0.3802 0.1527 -0.0125
C58 C -0.3739(7) 0.1250(5) -0.04282(12)
H45 H -0.4022 0.1396 -0.0492
C59 C -0.3456(7) 0.0948(5) -0.05546(11)
C60 C -0.3115(7) 0.0680(5) -0.04601(13)
H46 H -0.2967 0.0430 -0.0544
C61 C -0.2978(7) 0.0768(5) -0.02375(12)
H47 H -0.2742 0.0571 -0.0172
C62 C -0.4213(7) 0.0573(5) -0.08700(11)
H48 H -0.4610 0.0350 -0.0784
C63 C -0.3555(7) 0.0994(5) -0.11381(11)
C64 C -0.3269(7) 0.1215(5) -0.13426(11)
H49 H -0.3541 0.1106 -0.1468
C65 C -0.2567(8) 0.1600(6) -0.13532(14)
H50 H -0.2349 0.1777 -0.1487
C66 C -0.2187(7) 0.1723(5) -0.11631(15)
H51 H -0.1709 0.1967 -0.1174
C67 C -0.2470(7) 0.1509(5) -0.09604(14)
H52 H -0.2202 0.1606 -0.0834
C68 C -0.3138(7) 0.1160(5) -0.09547(12)
Co1 Co -0.18828(9) 0.14995(6) 0.041990(14)
Co2 Co 0.15177(9) 0.33956(7) 0.207510(14)
N1 N -0.1122(6) 0.3056(4) -0.00571(9)
N2 N -0.1488(6) 0.2400(4) 0.02383(10)
N3 N -0.0059(6) 0.2341(4) 0.16145(9)
N4 N 0.0582(6) 0.2809(4) 0.19024(9)
N5 N -0.2416(6) -0.0062(4) 0.08825(9)
N6 N -0.2273(6) 0.0567(4) 0.05931(9)
N7 N -0.3592(6) 0.0871(4) -0.07821(9)
N8 N -0.4236(6) 0.0611(4) -0.10795(9)
O1 O -0.0927(4) 0.4086(3) -0.14069(7)
O2 O -0.0269(4) 0.4118(3) -0.10130(7)
O3 O -0.1183(4) 0.1310(3) 0.02769(7)
O4 O -0.1217(6) 0.1975(4) 0.06662(8)
O5 O -0.2531(4) -0.1162(3) 0.22226(7)
O6 O -0.3225(4) -0.1217(3) 0.18281(7)
O7 O -0.2559(4) 0.1706(3) 0.05693(7)
O8 O -0.2555(4) 0.1045(3) 0.01728(7)
Co2F Co -0.51490(9) 0.00623(7) -0.125823(14)
Co2G Co -0.00623(7) 0.47888(11) -0.125823(14)
Co2A Co -0.33956(7) -0.18779(11) 0.207510(14)
N8C N 0.2431(6) 0.3944(4) 0.22538(9)
O1E O 0.1680(5) 0.4260(4) 0.19264(7)
O2E O 0.1054(5) 0.3602(4) 0.23203(7)
O5B O 0.1369(5) 0.2531(4) 0.22226(7)
O6B O 0.2008(5) 0.3225(4) 0.18281(7)
O9 O 0.0789(2) 0.0145(2) 0.17619(6)
H53 H 0.0649 0.0419 0.1796
H54 H 0.1234 0.0401 0.1748
O10 O 0.2616(3) 0.6692(3) 0.24399(9)
H55 H 0.3030 0.7013 0.2431
H56 H 0.2403 0.6862 0.2508
O11 O 0.0629(3) 0.0765(3) 0.07586(8)
H57 H 0.0213 0.0627 0.0726
H58 H 0.0803 0.1190 0.0777
O12 O 0.3391(3) 0.7435(3) 0.33813(9)
H59 H 0.3079 0.7055 0.3431
H60 H 0.3445 0.7356 0.3250
O13 O 0.0000 0.0000 0.11520(15)
H61? H 0.0000 0.0000 0.1290
H62? H 0.0327 0.0363 0.1100
loop_
_geom_bond_atom_site_label_1
_geom_bond_atom_site_label_2
_geom_bond_site_symmetry_1
_geom_bond_site_symmetry_2
C1 H1 1_555 1_555
H2 C1 1_555 1_555
H3 C1 1_555 1_555
C2 C1 1_555 1_555
C3 C2 1_555 1_555
H4 C3 1_555 1_555
C4 C3 1_555 1_555
C5 C4 1_555 1_555
C6 C5 1_555 1_555
H5 C6 1_555 1_555
C7 C6 1_555 1_555
H6 C7 1_555 1_555
C8 C7 1_555 1_555
C9 C8 1_555 1_555
H7 C9 1_555 1_555
C10 C5 1_555 1_555
H8 C10 1_555 1_555
C11 H9 1_555 1_555
C12 C13 1_555 1_555
C13 H10 1_555 1_555
C14 C13 1_555 1_555
H11 C14 1_555 1_555
C15 C14 1_555 1_555
H12 C15 1_555 1_555
C16 C15 1_555 1_555
H13 C16 1_555 1_555
C17 C12 1_555 1_555
C18 H14 1_555 1_555
H15 C18 1_555 1_555
H16 C18 1_555 1_555
C19 C18 1_555 1_555
C20 C19 1_555 1_555
H17 C20 1_555 1_555
C21 C20 1_555 1_555
C22 C21 1_555 1_555
C23 C22 1_555 1_555
H18 C23 1_555 1_555
C24 C23 1_555 1_555
H19 C24 1_555 1_555
C25 C24 1_555 1_555
C26 C25 1_555 1_555
H20 C26 1_555 1_555
C27 C22 1_555 1_555
H21 C27 1_555 1_555
C28 H22 1_555 1_555
C29 C30 1_555 1_555
C30 H23 1_555 1_555
C31 C30 1_555 1_555
H24 C31 1_555 1_555
C32 C31 1_555 1_555
H25 C32 1_555 1_555
C33 C32 1_555 1_555
H26 C33 1_555 1_555
C34 C29 1_555 1_555
C35 H27 1_555 1_555
H28 C35 1_555 1_555
H29 C35 1_555 1_555
C36 C35 1_555 1_555
C37 C36 1_555 1_555
H30 C37 1_555 1_555
C38 C37 1_555 1_555
C39 C38 1_555 1_555
C40 C39 1_555 1_555
H31 C40 1_555 1_555
C41 C40 1_555 1_555
H32 C41 1_555 1_555
C42 C41 1_555 1_555
C43 C42 1_555 1_555
H33 C43 1_555 1_555
C44 C39 1_555 1_555
H34 C44 1_555 1_555
C45 H35 1_555 1_555
C46 C47 1_555 1_555
C47 H36 1_555 1_555
C48 C47 1_555 1_555
H37 C48 1_555 1_555
C49 C48 1_555 1_555
H38 C49 1_555 1_555
C50 C49 1_555 1_555
H39 C50 1_555 1_555
C51 C46 1_555 1_555
C52 H40 1_555 1_555
H41 C52 1_555 1_555
H42 C52 1_555 1_555
C53 C52 1_555 1_555
C54 C53 1_555 1_555
H43 C54 1_555 1_555
C55 C54 1_555 1_555
C56 C55 1_555 1_555
C57 C56 1_555 1_555
H44 C57 1_555 1_555
C58 C57 1_555 1_555
H45 C58 1_555 1_555
C59 C58 1_555 1_555
C60 C59 1_555 1_555
H46 C60 1_555 1_555
C61 C56 1_555 1_555
H47 C61 1_555 1_555
C62 H48 1_555 1_555
C63 C64 1_555 1_555
C64 H49 1_555 1_555
C65 C64 1_555 1_555
H50 C65 1_555 1_555
C66 C65 1_555 1_555
H51 C66 1_555 1_555
C67 C66 1_555 1_555
H52 C67 1_555 1_555
C68 C63 1_555 1_555
Co1 N2 1_555 1_555
Co2 N4 1_555 1_555
N1 C8 1_555 1_555
N2 C11 1_555 1_555
N3 C25 1_555 1_555
N4 C28 1_555 1_555
N5 C42 1_555 1_555
N6 C45 1_555 1_555
N7 C59 1_555 1_555
N8 C62 1_555 1_555
O1 C2 1_555 1_555
O2 C4 1_555 1_555
O3 C19 1_555 1_555
O4 C21 1_555 1_555
O5 C36 1_555 1_555
O6 C38 1_555 1_555
O7 C53 1_555 1_555
O8 C55 1_555 1_555
O9 H53 1_555 1_555
H54 O9 1_555 1_555
O10 H55 1_555 1_555
H56 O10 1_555 1_555
O11 H57 1_555 1_555
H58 O11 1_555 1_555
O12 H59 1_555 1_555
H60 O12 1_555 1_555
Co2F N8 1_555 1_555
Co2G O1 1_555 1_555
Co2A O5 1_555 1_555
N8C Co2 1_555 1_555
O1E Co2 1_555 1_555
O2E Co2 1_555 1_555
O5B Co2 1_555 1_555
O6B Co2 1_555 1_555
C9 C10 1_555 1_555
C11 N1 1_555 1_555
C12 N1 1_555 1_555
C16 C17 1_555 1_555
C17 N2 1_555 1_555
C26 C27 1_555 1_555
C28 N3 1_555 1_555
C29 N4 1_555 1_555
C33 C34 1_555 1_555
C34 N3 1_555 1_555
C43 C44 1_555 1_555
C45 N5 1_555 1_555
C46 N6 1_555 1_555
C50 C51 1_555 1_555
C51 N5 1_555 1_555
C60 C61 1_555 1_555
C62 N7 1_555 1_555
C63 N8 1_555 1_555
C67 C68 1_555 1_555
C68 N7 1_555 1_555
Co1 N6 1_555 1_555
Co1 O3 1_555 1_555
Co1 O4 1_555 1_555
Co1 O7 1_555 1_555
Co1 O8 1_555 1_555
O2 Co2G 1_555 1_555
O6 Co2A 1_555 1_555

#END
