
#######################################################################
#
#                 Cambridge Crystallographic Data Centre
#                                CCDC 
#
#######################################################################
#
# If this CIF has been generated from an entry in the Cambridge 
# Structural Database, then it will include bibliographic, chemical, 
# crystal, experimental, refinement or atomic coordinate data resulting 
# from the CCDC's data processing and validation procedures.
#
#######################################################################

data_EBELAA
_symmetry_cell_setting           monoclinic
_symmetry_space_group_name_H-M   'P 21/n'
_symmetry_Int_Tables_number      14
_space_group_name_Hall           '-P 2yn'
loop_
_symmetry_equiv_pos_site_id
_symmetry_equiv_pos_as_xyz
1 x,y,z
2 1/2-x,1/2+y,1/2-z
3 -x,-y,-z
4 1/2+x,1/2-y,1/2+z
_cell_length_a                   9.2284(18)
_cell_length_b                   9.4398(19)
_cell_length_c                   17.845(4)
_cell_angle_alpha                90
_cell_angle_beta                 92.018(4)
_cell_angle_gamma                90
_cell_volume                     1553.59
loop_
_atom_site_label
_atom_site_type_symbol
_atom_site_fract_x
_atom_site_fract_y
_atom_site_fract_z
Ag1 Ag 0.61359(3) 0.25718(3) 0.728854(16)
C1 C 0.6208(4) 0.7064(4) 0.5204(2)
H1 H 0.5962 0.7587 0.5636
C2 C 0.6111(4) 0.7691(4) 0.4500(2)
H2 H 0.5791 0.8644 0.4451
C3 C 0.6478(4) 0.6933(4) 0.3866(2)
C4 C 0.6881(4) 0.5519(4) 0.3937(2)
H3 H 0.7091 0.4986 0.3503
C5 C 0.6979(4) 0.4886(4) 0.4630(2)
H4 H 0.7258 0.3920 0.4674
C6 C 0.6667(4) 0.5666(4) 0.52713(19)
C7 C 0.6768(4) 0.5009(4) 0.6000(2)
C8 C 0.3255(4) 0.4047(4) 0.9846(2)
H5 H 0.2799 0.4492 0.9423
C9 C 0.2770(4) 0.4299(4) 1.0558(2)
H6 H 0.1968 0.4912 1.0623
C10 C 0.3450(4) 0.3661(4) 1.1181(2)
C11 C 0.4582(5) 0.2718(4) 1.1076(2)
H7 H 0.5027 0.2254 1.1497
C12 C 0.5060(5) 0.2453(4) 1.0370(2)
H8 H 0.5832 0.1805 1.0302
C13 C 0.4411(4) 0.3137(4) 0.9758(2)
C14 C 0.4991(4) 0.2920(4) 0.9035(2)
N1 N 0.5507(4) 0.2737(4) 0.8470(2)
N2 N 0.2962(4) 0.3924(3) 1.19074(17)
H9 H 0.2632 0.4843 1.1927
H10 H 0.3738 0.3847 1.2243
N3 N 0.6871(4) 0.4482(3) 0.65730(19)
N4 N 0.6346(4) 0.7575(3) 0.31603(19)
H11 H 0.6937 0.7125 0.2831
H12 H 0.6627 0.8509 0.3195
Ag1C Ag 0.11359(3) 0.24282(3) 1.228854(16)
Ag1B Ag 0.38641(3) 0.74282(3) 0.271146(16)
N2C N 0.7962(4) 0.1076(3) 0.69074(17)
H9C H 0.7632 0.0157 0.6927
H10C H 0.8738 0.1153 0.7243
N4B N 0.3654(4) 0.2425(3) 0.68397(19)
H11B H 0.3063 0.2875 0.7169
H12B H 0.3373 0.1491 0.6805
N5 N 0.4310(4) 0.8622(4) 0.69135(18)
O1 O 0.5231(4) 0.9325(4) 0.6596(2)
O2 O 0.3132(4) 0.9220(3) 0.70590(19)
O3 O 0.4481(5) 0.7363(3) 0.7079(2)
loop_
_geom_bond_atom_site_label_1
_geom_bond_atom_site_label_2
_geom_bond_site_symmetry_1
_geom_bond_site_symmetry_2
Ag1 N1 1_555 1_555
C1 H1 1_555 1_555
C2 C1 1_555 1_555
H2 C2 1_555 1_555
C3 C2 1_555 1_555
C4 C3 1_555 1_555
H3 C4 1_555 1_555
C5 C4 1_555 1_555
H4 C5 1_555 1_555
C6 C1 1_555 1_555
C7 C6 1_555 1_555
C8 H5 1_555 1_555
C9 C8 1_555 1_555
H6 C9 1_555 1_555
C10 C9 1_555 1_555
C11 C10 1_555 1_555
H7 C11 1_555 1_555
C12 C11 1_555 1_555
H8 C12 1_555 1_555
C13 C8 1_555 1_555
C14 C13 1_555 1_555
N1 C14 1_555 1_555
N2 C10 1_555 1_555
H9 N2 1_555 1_555
H10 N2 1_555 1_555
N3 Ag1 1_555 1_555
N4 C3 1_555 1_555
H11 N4 1_555 1_555
H12 N4 1_555 1_555
N5 O1 1_555 1_555
O2 N5 1_555 1_555
O3 N5 1_555 1_555
Ag1C N2 1_555 1_555
Ag1B N4 1_555 1_555
N2C Ag1 1_555 1_555
H9C N2C 1_555 1_555
H10C N2C 1_555 1_555
N4B Ag1 1_555 1_555
H11B N4B 1_555 1_555
H12B N4B 1_555 1_555
C5 C6 1_555 1_555
C7 N3 1_555 1_555
C12 C13 1_555 1_555

#END
