
#######################################################################
#
#                 Cambridge Crystallographic Data Centre
#                                CCDC 
#
#######################################################################
#
# If this CIF has been generated from an entry in the Cambridge 
# Structural Database, then it will include bibliographic, chemical, 
# crystal, experimental, refinement or atomic coordinate data resulting 
# from the CCDC's data processing and validation procedures.
#
#######################################################################

data_EBELII01
_symmetry_cell_setting           monoclinic
_symmetry_space_group_name_H-M   'P 21/n'
_symmetry_Int_Tables_number      14
_space_group_name_Hall           '-P 2yn'
loop_
_symmetry_equiv_pos_site_id
_symmetry_equiv_pos_as_xyz
1 x,y,z
2 1/2-x,1/2+y,1/2-z
3 -x,-y,-z
4 1/2+x,1/2-y,1/2+z
_cell_length_a                   9.5750(9)
_cell_length_b                   10.1130(15)
_cell_length_c                   18.4699(15)
_cell_angle_alpha                90
_cell_angle_beta                 91.067(11)
_cell_angle_gamma                90
_cell_volume                     1788.17
loop_
_atom_site_label
_atom_site_type_symbol
_atom_site_fract_x
_atom_site_fract_y
_atom_site_fract_z
Ag1 Ag 0.62015(4) 0.29198(4) 0.273659(18)
N1 N 0.7895(4) 0.1376(4) 0.31763(18)
H1 H 0.7524 0.0562 0.3130
H2 H 0.8632 0.1414 0.2882
N2 N 0.6903(5) 0.4677(5) 0.3447(3)
N3 N 0.6163(4) 0.7224(4) 0.6787(2)
H3 H 0.6747 0.6818 0.7103
H4 H 0.6407 0.8083 0.6777
N4 N 1.0501(5) 0.1953(4) 0.6576(2)
C1 C 0.9418(4) 0.1785(4) 0.5302(2)
C2 C 0.8403(4) 0.1507(4) 0.3895(2)
C3 C 0.8339(4) 0.0926(4) 0.5145(2)
H5 H 0.7945 0.0435 0.5515
C4 C 0.9947(5) 0.2561(5) 0.4750(2)
H6 H 1.0647 0.3175 0.4851
C5 C 1.0006(5) 0.1890(5) 0.6018(2)
C6 C 0.6718(4) 0.5627(4) 0.4730(2)
C7 C 0.9439(5) 0.2421(6) 0.4058(3)
H7 H 0.9794 0.2947 0.3692
C8 C 0.6953(5) 0.4862(4) 0.5335(3)
H8 H 0.7214 0.3982 0.5284
C9 C 0.6828(5) 0.5090(5) 0.4016(3)
C10 C 0.7843(5) 0.0791(4) 0.4451(2)
H9 H 0.7115 0.0205 0.4354
C11 C 0.6310(5) 0.6927(5) 0.4809(3)
H10 H 0.6145 0.7447 0.4401
C12 C 0.6807(5) 0.5383(5) 0.6007(3)
H11 H 0.6985 0.4859 0.6412
C13 C 0.6393(4) 0.6692(4) 0.6098(2)
C14 C 0.6148(5) 0.7454(5) 0.5485(3)
H12 H 0.5872 0.8331 0.5533
Ag1B Ag 0.37985(4) 0.70802(4) 0.726341(18)
Ag1C Ag 1.12015(4) 0.20802(4) 0.773659(18)
N3B N 0.3837(4) 0.2776(4) 0.3213(2)
H3B H 0.3253 0.3182 0.2897
H4B H 0.3593 0.1917 0.3223
N4C N 0.5501(5) 0.3047(4) 0.1576(2)
P1 P 0.43733(12) -0.12015(12) 0.30849(6)
F1 F 0.2895(4) -0.0531(5) 0.3038(2)
F2 F 0.5874(4) -0.1831(5) 0.3135(2)
F3 F 0.4919(6) -0.0228(6) 0.2524(3)
F4 F 0.4736(4) -0.0305(5) 0.3729(3)
F5 F 0.4054(5) -0.2148(6) 0.2438(3)
F6 F 0.3809(6) -0.2210(4) 0.3614(3)
loop_
_geom_bond_atom_site_label_1
_geom_bond_atom_site_label_2
_geom_bond_site_symmetry_1
_geom_bond_site_symmetry_2
Ag1 N1 1_555 1_555
P1 F1 1_555 1_555
N1 H1 1_555 1_555
H2 N1 1_555 1_555
N2 Ag1 1_555 1_555
N3 H3 1_555 1_555
H4 N3 1_555 1_555
N4 C5 1_555 1_555
C1 C3 1_555 1_555
C2 N1 1_555 1_555
C3 H5 1_555 1_555
C4 C1 1_555 1_555
H6 C4 1_555 1_555
C5 C1 1_555 1_555
C6 C8 1_555 1_555
C7 C2 1_555 1_555
H7 C7 1_555 1_555
C8 H8 1_555 1_555
C9 N2 1_555 1_555
C10 C2 1_555 1_555
H9 C10 1_555 1_555
C11 C6 1_555 1_555
H10 C11 1_555 1_555
C12 C8 1_555 1_555
H11 C12 1_555 1_555
C13 N3 1_555 1_555
C14 C11 1_555 1_555
H12 C14 1_555 1_555
F2 P1 1_555 1_555
F3 P1 1_555 1_555
F4 P1 1_555 1_555
F5 P1 1_555 1_555
F6 P1 1_555 1_555
Ag1B N3 1_555 1_555
Ag1C N4 1_555 1_555
N3B Ag1 1_555 1_555
H3B N3B 1_555 1_555
H4B N3B 1_555 1_555
N4C Ag1 1_555 1_555
C3 C10 1_555 1_555
C4 C7 1_555 1_555
C6 C9 1_555 1_555
C12 C13 1_555 1_555
C13 C14 1_555 1_555

#END
