
#######################################################################
#
#                 Cambridge Crystallographic Data Centre
#                                CCDC 
#
#######################################################################
#
# If this CIF has been generated from an entry in the Cambridge 
# Structural Database, then it will include bibliographic, chemical, 
# crystal, experimental, refinement or atomic coordinate data resulting 
# from the CCDC's data processing and validation procedures.
#
#######################################################################

data_EBELEE01
_symmetry_cell_setting           monoclinic
_symmetry_space_group_name_H-M   'P 21/n'
_symmetry_Int_Tables_number      14
_space_group_name_Hall           '-P 2yn'
loop_
_symmetry_equiv_pos_site_id
_symmetry_equiv_pos_as_xyz
1 x,y,z
2 1/2-x,1/2+y,1/2-z
3 -x,-y,-z
4 1/2+x,1/2-y,1/2+z
_cell_length_a                   9.3563(17)
_cell_length_b                   9.8376(10)
_cell_length_c                   18.380(3)
_cell_angle_alpha                90
_cell_angle_beta                 91.128(13)
_cell_angle_gamma                90
_cell_volume                     1691.43
loop_
_atom_site_label
_atom_site_type_symbol
_atom_site_fract_x
_atom_site_fract_y
_atom_site_fract_z
Ag1 Ag 0.60341(6) 0.22567(6) 0.77065(3)
C1 C 0.3519(6) 0.1826(6) 0.8936(3)
C2 C 0.3090(7) 0.0482(7) 0.9006(3)
H1 H 0.2862 -0.0025 0.8593
C3 C 0.3001(6) -0.0105(6) 0.9686(3)
H2 H 0.2711 -0.1005 0.9731
C4 C 0.3345(6) 0.0652(7) 1.0305(3)
C5 C 0.3791(7) 0.1984(7) 1.0229(3)
H3 H 0.4028 0.2492 1.0641
C6 C 0.3888(7) 0.2561(7) 0.9556(3)
H4 H 0.4203 0.3453 0.9513
C7 C 0.3286(7) 0.0040(7) 1.1009(4)
C8 C 0.8381(6) 0.3586(7) 0.8820(3)
C9 C 0.9468(7) 0.2656(8) 0.8971(3)
H5 H 0.9862 0.2161 0.8593
C10 C 0.9965(7) 0.2461(7) 0.9671(3)
H6 H 1.0699 0.1844 0.9764
C11 C 0.9379(6) 0.3177(6) 1.0238(3)
C12 C 0.8269(7) 0.4074(7) 1.0096(3)
H7 H 0.7855 0.4545 1.0477
C13 C 0.7775(7) 0.4273(7) 0.9392(3)
H8 H 0.7027 0.4876 0.9302
C14 C 0.9930(7) 0.3016(7) 1.0961(3)
N1 N 0.3648(5) 0.2420(6) 0.8238(3)
H9 H 0.3409 0.3304 0.8268
H10 H 0.3014 0.2019 0.7933
N2 N 0.3237(7) -0.0430(6) 1.1578(3)
N3 N 0.7871(6) 0.3763(6) 0.8101(3)
H11 H 0.8613 0.3673 0.7800
H12 H 0.7544 0.4620 0.8055
N4 N 1.0395(7) 0.2883(7) 1.1538(3)
Ag1B Ag 0.39659(6) -0.22567(6) 1.22935(3)
Ag1C Ag 1.10341(6) 0.27433(6) 1.27065(3)
N2B N 0.6763(7) 0.0430(6) 0.8422(3)
N4C N 0.5395(7) 0.2117(7) 0.6538(3)
Cl1 Cl 0.44525(19) 0.62236(18) 0.80528(9)
O1 O 0.3967(14) 0.5410(8) 0.7513(5)
O2 O 0.5927(8) 0.6491(11) 0.7962(5)
O3 O 0.3839(13) 0.7473(7) 0.8032(6)
O4 O 0.4461(8) 0.5580(7) 0.8731(3)
loop_
_geom_bond_atom_site_label_1
_geom_bond_atom_site_label_2
_geom_bond_site_symmetry_1
_geom_bond_site_symmetry_2
Ag1 N1 1_555 1_555
C1 C2 1_555 1_555
C2 H1 1_555 1_555
C3 C2 1_555 1_555
H2 C3 1_555 1_555
C4 C3 1_555 1_555
C5 C4 1_555 1_555
H3 C5 1_555 1_555
C6 C1 1_555 1_555
H4 C6 1_555 1_555
C7 C4 1_555 1_555
C8 C9 1_555 1_555
C9 H5 1_555 1_555
C10 C9 1_555 1_555
H6 C10 1_555 1_555
C11 C10 1_555 1_555
C12 C11 1_555 1_555
H7 C12 1_555 1_555
C13 C8 1_555 1_555
H8 C13 1_555 1_555
C14 C11 1_555 1_555
N1 C1 1_555 1_555
H9 N1 1_555 1_555
H10 N1 1_555 1_555
N2 C7 1_555 1_555
N3 Ag1 1_555 1_555
H11 N3 1_555 1_555
H12 N3 1_555 1_555
N4 C14 1_555 1_555
Cl1 O1 1_555 1_555
O2 Cl1 1_555 1_555
O3 Cl1 1_555 1_555
O4 Cl1 1_555 1_555
Ag1B N2 1_555 1_555
Ag1C N4 1_555 1_555
N2B Ag1 1_555 1_555
N4C Ag1 1_555 1_555
C5 C6 1_555 1_555
C8 N3 1_555 1_555
C12 C13 1_555 1_555

#END
