
#######################################################################
#
#                 Cambridge Crystallographic Data Centre
#                                CCDC 
#
#######################################################################
#
# If this CIF has been generated from an entry in the Cambridge 
# Structural Database, then it will include bibliographic, chemical, 
# crystal, experimental, refinement or atomic coordinate data resulting 
# from the CCDC's data processing and validation procedures.
#
#######################################################################

data_EBELOM
_symmetry_cell_setting           orthorhombic
_symmetry_space_group_name_H-M   'P 21 21 21'
_symmetry_Int_Tables_number      19
_space_group_name_Hall           'P 2ac 2ab'
loop_
_symmetry_equiv_pos_site_id
_symmetry_equiv_pos_as_xyz
1 x,y,z
2 1/2-x,-y,1/2+z
3 1/2+x,1/2-y,-z
4 -x,1/2+y,1/2-z
_cell_length_a                   5.5410(12)
_cell_length_b                   13.737(3)
_cell_length_c                   24.134(5)
_cell_angle_alpha                90
_cell_angle_beta                 90
_cell_angle_gamma                90
_cell_volume                     1837
loop_
_atom_site_label
_atom_site_type_symbol
_atom_site_fract_x
_atom_site_fract_y
_atom_site_fract_z
Mo1 Mo 0.4152(1) 0.7954(1) 0.1971(1)
Mo2 Mo 0.5856(1) 0.9328(1) 0.3090(1)
Mo3 Mo 0.1177(1) 0.7327(1) 0.3089(1)
Mo4 Mo 1.1128(1) 0.4912(1) 0.3050(1)
Ni1 Ni 0.9138(2) 0.6145(1) 0.2011(1)
O1 O 0.3913(13) 0.8119(4) 0.1271(2)
O2 O 0.6478(10) 0.7119(4) 0.2037(3)
O3 O 0.1561(11) 0.7212(4) 0.2167(3)
O4 O 0.3907(12) 0.8140(4) 0.2902(3)
O5 O 0.6528(11) 0.5133(4) 0.1979(3)
O6 O 1.1600(10) 0.5093(4) 0.2120(3)
O7 O 0.6114(3) 0.9171(4) 0.3790(3)
O8 O 0.1532(11) 0.7266(4) 0.3790(3)
O9 O -0.1208(11) 0.8127(4) 0.3019(3)
O10 O 0.9342(10) 0.6129(4) 0.2922(2)
O11 O 0.3861(11) 0.6108(4) 0.3056(2)
O12 O 1.1414(13) 0.4889(4) 0.3750(3)
O13 O 0.6159(12) 0.9116(4) 0.2162(3)
O14 O 0.1282(11) 0.9134(4) 0.2051(3)
N1 N 0.9151(14) 0.6258(5) 0.1166(3)
N2 N 0.9057(13) 0.3942(6) -0.0970(3)
C1 C 0.8979(18) 0.5478(6) 0.0845(4)
C2 C 0.8516(17) 0.5561(6) 0.0273(4)
C3 C 0.8220(20) 0.6490(7) 0.0048(4)
C4 C 0.8430(15) 0.7284(7) 0.0391(4)
C5 C 0.8904(19) 0.7147(6) 0.0946(4)
C6 C 0.9020(20) 0.4733(7) -0.0641(4)
C7 C 0.8340(16) 0.4680(6) -0.0089(4)
C8 C 0.7639(16) 0.3767(7) 0.0120(4)
C9 C 0.7643(19) 0.2954(7) -0.0225(4)
C10 C 0.8375(19) 0.3058(7) -0.0768(4)
H1 H 0.542(17) 0.6030(70) 0.2980(40)
H2 H 0.9514 0.3995 -0.1309
H3 H 0.9168 0.4863 0.1001
H4 H 0.7896 0.6569 -0.0327
H5 H 0.8250 0.7909 0.0250
H6 H 0.9059 0.7689 0.1174
H7 H 0.9456 0.5333 -0.0788
H8 H 0.7172 0.3706 0.0489
H9 H 0.7159 0.2350 -0.0091
H10 H 0.8404 0.2516 -0.0999
O5C O 0.3472(11) 1.0133(4) 0.3021(3)
O6C O 0.8400(10) 1.0093(4) 0.2880(3)
O9_2 O 0.8792(11) 0.8127(4) 0.3019(3)
O10_2 O -0.0658(10) 0.6129(4) 0.2922(2)
O11_2 O 1.3861(11) 0.6108(4) 0.3056(2)
O13C O 1.3841(12) 0.4116(4) 0.2838(3)
O14C O 0.8718(11) 0.4134(4) 0.2949(3)
O3_2 O 1.1561(11) 0.7212(4) 0.2167(3)
Ni1_2 Ni -0.0862(2) 0.6145(1) 0.2011(1)
Mo2C Mo 0.4144(1) 0.4328(1) 0.1910(1)
Mo2C_2 Mo 1.4144(1) 0.4328(1) 0.1910(1)
Mo2_2 Mo -0.4144(1) 0.9328(1) 0.3090(1)
Mo3_2 Mo 1.1177(1) 0.7327(1) 0.3089(1)
Mo4_2 Mo 0.1128(1) 0.4912(1) 0.3050(1)
Mo4C Mo 0.8872(1) 0.9912(1) 0.1950(1)
Mo4C_2 Mo -0.1128(1) 0.9912(1) 0.1950(1)
H1_2 H 1.542(17) 0.6030(70) 0.2980(40)
loop_
_geom_bond_atom_site_label_1
_geom_bond_atom_site_label_2
_geom_bond_site_symmetry_1
_geom_bond_site_symmetry_2
Mo1 O1 1_555 1_555
Mo2 O4 1_555 1_555
Mo3 O3 1_555 1_555
Mo4 O6 1_555 1_555
Ni1 O2 1_555 1_555
O2 Mo1 1_555 1_555
O3 Mo1 1_555 1_555
O4 Mo1 1_555 1_555
O5 Ni1 1_555 1_555
O6 Ni1 1_555 1_555
O7 Mo2 1_555 1_555
O8 Mo3 1_555 1_555
O9 Mo3 1_555 1_555
O10 Mo4 1_555 1_555
O11 Mo3 1_555 1_555
O12 Mo4 1_555 1_555
O13 Mo1 1_555 1_555
O14 Mo1 1_555 1_555
N1 Ni1 1_555 1_555
N2 C6 1_555 1_555
C1 N1 1_555 1_555
C2 C1 1_555 1_555
C3 C2 1_555 1_555
C4 C3 1_555 1_555
C5 N1 1_555 1_555
C6 C7 1_555 1_555
C7 C2 1_555 1_555
C8 C7 1_555 1_555
C9 C8 1_555 1_555
C10 N2 1_555 1_555
H1 O11 1_555 1_555
H2 N2 1_555 1_555
H3 C1 1_555 1_555
H4 C3 1_555 1_555
H5 C4 1_555 1_555
H6 C5 1_555 1_555
H7 C6 1_555 1_555
H8 C8 1_555 1_555
H9 C9 1_555 1_555
H10 C10 1_555 1_555
O5C Mo2 1_555 1_555
O6C Mo2 1_555 1_555
O9_2 Mo2 1_555 1_555
O10_2 Mo3 1_555 1_555
O11_2 Mo4 1_555 1_555
O13C Mo4 1_555 1_555
O14C Mo4 1_555 1_555
O3_2 Ni1 1_555 1_555
Ni1_2 O3 1_555 1_555
Mo2C O5 1_555 1_555
Mo2C_2 O6 1_555 1_555
Mo2_2 O9 1_555 1_555
Mo3_2 O10 1_555 1_555
Mo4_2 O11 1_555 1_555
Mo4C O13 1_555 1_555
Mo4C_2 O14 1_555 1_555
H1_2 O11_2 1_555 1_555
Mo2 O13 1_555 1_555
Mo3 O4 1_555 1_555
Ni1 O10 1_555 1_555
C4 C5 1_555 1_555
C9 C10 1_555 1_555
O6C Mo4C 1_555 1_555
O9_2 Mo3_2 1_555 1_555
O10_2 Mo4_2 1_555 1_555
O10_2 Ni1_2 1_555 1_555
O11_2 Mo3_2 1_555 1_555
O13C Mo2C_2 1_555 1_555
O3_2 Mo3_2 1_555 1_555

#END
