
#######################################################################
#
#                 Cambridge Crystallographic Data Centre
#                                CCDC 
#
#######################################################################
#
# If this CIF has been generated from an entry in the Cambridge 
# Structural Database, then it will include bibliographic, chemical, 
# crystal, experimental, refinement or atomic coordinate data resulting 
# from the CCDC's data processing and validation procedures.
#
#######################################################################

data_EBELAA01
_symmetry_cell_setting           monoclinic
_symmetry_space_group_name_H-M   'P 21/n'
_symmetry_Int_Tables_number      14
_space_group_name_Hall           '-P 2yn'
loop_
_symmetry_equiv_pos_site_id
_symmetry_equiv_pos_as_xyz
1 x,y,z
2 1/2-x,1/2+y,1/2-z
3 -x,-y,-z
4 1/2+x,1/2-y,1/2+z
_cell_length_a                   9.3251(13)
_cell_length_b                   9.5489(15)
_cell_length_c                   17.906(2)
_cell_angle_alpha                90
_cell_angle_beta                 90.793(10)
_cell_angle_gamma                90
_cell_volume                     1594.28
loop_
_atom_site_label
_atom_site_type_symbol
_atom_site_fract_x
_atom_site_fract_y
_atom_site_fract_z
Ag1 Ag 0.61049(4) 0.23771(4) 0.228970(17)
N1 N 0.3649(4) 0.2590(4) 0.18287(19)
H1 H 0.3048 0.2179 0.2151
H2 H 0.3409 0.3500 0.1791
N2 N 0.7880(4) 0.3924(4) 0.19050(19)
H3 H 0.7531 0.4802 0.1926
H4 H 0.8625 0.3872 0.2229
C1 C 0.2997(4) -0.0075(4) 0.0377(2)
H5 H 0.2704 -0.1003 0.0340
C2 C 0.3342(4) 0.0661(4) -0.0263(2)
C3 C 0.9381(4) 0.3161(4) -0.0238(2)
C4 C 1.0027(4) 0.2525(5) 0.0368(2)
H6 H 1.0799 0.1925 0.0299
C5 C 0.3813(4) 0.2037(4) -0.0203(2)
H7 H 0.4069 0.2530 -0.0629
C6 C 0.3901(4) 0.2671(4) 0.0484(2)
H8 H 0.4220 0.3592 0.0521
C7 C 0.7727(5) 0.4282(4) 0.0568(2)
H9 H 0.6939 0.4863 0.0634
C8 C 0.3519(4) 0.1947(4) 0.1127(2)
C9 C 0.8388(4) 0.3680(4) 0.1181(2)
C10 C 0.8217(5) 0.4034(4) -0.0143(2)
H10 H 0.7769 0.4450 -0.0554
C11 C 0.3085(4) 0.0559(4) 0.1065(2)
H11 H 0.2853 0.0056 0.1491
C12 C 0.9533(4) 0.2774(5) 0.1079(2)
H12 H 0.9965 0.2337 0.1488
C13 C 0.9956(4) 0.2935(5) -0.0964(2)
C14 C 0.3245(4) 0.0010(4) -0.0983(2)
N4 N 1.0465(5) 0.2765(5) -0.1532(2)
N5 N 0.3176(5) -0.0523(4) -0.1549(2)
Ag1C Ag 1.11049(4) 0.26229(4) -0.271030(17)
Ag1B Ag 0.38951(4) -0.23771(4) -0.228970(17)
N4C N 0.5465(5) 0.2235(5) 0.3468(2)
N5B N 0.6824(5) 0.0523(4) 0.1549(2)
N3 N 0.4365(5) 0.6389(4) 0.1918(2)
O1 O 0.4455(8) 0.7588(5) 0.2087(3)
O2 O 0.3188(6) 0.5824(6) 0.2053(3)
O3 O 0.5165(7) 0.5689(6) 0.1598(4)
loop_
_geom_bond_atom_site_label_1
_geom_bond_atom_site_label_2
_geom_bond_site_symmetry_1
_geom_bond_site_symmetry_2
Ag1 N1 1_555 1_555
N1 H1 1_555 1_555
H2 N1 1_555 1_555
N2 Ag1 1_555 1_555
H3 N2 1_555 1_555
H4 N2 1_555 1_555
C1 H5 1_555 1_555
C2 C1 1_555 1_555
C3 C4 1_555 1_555
C4 H6 1_555 1_555
C5 C2 1_555 1_555
H7 C5 1_555 1_555
C6 C5 1_555 1_555
H8 C6 1_555 1_555
C7 H9 1_555 1_555
C8 N1 1_555 1_555
C9 N2 1_555 1_555
C10 C3 1_555 1_555
H10 C10 1_555 1_555
C11 C1 1_555 1_555
H11 C11 1_555 1_555
C12 C4 1_555 1_555
H12 C12 1_555 1_555
N3 O1 1_555 1_555
O2 N3 1_555 1_555
O3 N3 1_555 1_555
C13 C3 1_555 1_555
C14 C2 1_555 1_555
N4 C13 1_555 1_555
N5 C14 1_555 1_555
Ag1C N4 1_555 1_555
Ag1B N5 1_555 1_555
N4C Ag1 1_555 1_555
N5B Ag1 1_555 1_555
C6 C8 1_555 1_555
C7 C9 1_555 1_555
C7 C10 1_555 1_555
C8 C11 1_555 1_555
C9 C12 1_555 1_555

#END
