
#######################################################################
#
#                 Cambridge Crystallographic Data Centre
#                                CCDC 
#
#######################################################################
#
# If this CIF has been generated from an entry in the Cambridge 
# Structural Database, then it will include bibliographic, chemical, 
# crystal, experimental, refinement or atomic coordinate data resulting 
# from the CCDC's data processing and validation procedures.
#
#######################################################################

data_EBELOO
_symmetry_cell_setting           triclinic
_symmetry_space_group_name_H-M   'P -1'
_symmetry_Int_Tables_number      2
_space_group_name_Hall           '-P 1'
loop_
_symmetry_equiv_pos_site_id
_symmetry_equiv_pos_as_xyz
1 x,y,z
2 -x,-y,-z
_cell_length_a                   9.4187(19)
_cell_length_b                   10.098(2)
_cell_length_c                   10.271(2)
_cell_angle_alpha                111.21(3)
_cell_angle_beta                 106.08(3)
_cell_angle_gamma                91.41(3)
_cell_volume                     866.536
loop_
_atom_site_label
_atom_site_type_symbol
_atom_site_fract_x
_atom_site_fract_y
_atom_site_fract_z
Ag1 Ag 0.66085(3) 0.78606(3) 1.01024(3)
C1 C 1.0210(4) 0.7904(4) 1.5426(4)
H1 H 0.9311 0.7374 1.5263
C2 C 1.1278(4) 0.8360(4) 1.6781(4)
H2 H 1.1101 0.8126 1.7525
C3 C 1.2615(4) 0.9166(4) 1.7042(4)
C4 C 1.2880(4) 0.9478(4) 1.5910(4)
H3 H 1.3784 0.9996 1.6068
C5 C 1.1813(4) 0.9028(4) 1.4557(4)
H4 H 1.1990 0.9254 1.3809
C6 C 1.0466(4) 0.8231(4) 1.4308(4)
C7 C 0.9311(5) 0.7831(4) 1.2936(4)
C8 C 0.3934(4) 0.3189(4) 0.5164(4)
H5 H 0.4608 0.2922 0.5846
C9 C 0.3325(4) 0.2224(4) 0.3738(4)
H6 H 0.3596 0.1307 0.3459
C10 C 0.2299(4) 0.2614(4) 0.2702(4)
C11 C 0.1906(4) 0.3989(4) 0.3134(4)
H7 H 0.1216 0.4253 0.2460
C12 C 0.2529(4) 0.4963(4) 0.4552(4)
H8 H 0.2276 0.5887 0.4822
C13 C 0.3534(4) 0.4574(4) 0.5583(4)
C14 C 0.4210(4) 0.5608(4) 0.7044(4)
N1 N 0.8362(4) 0.7523(4) 1.1863(4)
N2 N 1.3667(4) 0.9705(3) 1.8443(3)
H9 H 1.4591 0.9696 1.8352
H10 H 1.3565 0.9129 1.8915
N3 N 0.4763(4) 0.6451(3) 0.8203(4)
N4 N 0.1732(4) 0.1660(3) 0.1243(3)
H11 H 0.0793 0.1794 0.0849
H12 H 0.1718 0.0749 0.1186
Ag1A Ag 1.33915(3) 1.21394(3) 1.98976(3)
Ag1A_2 Ag 0.33915(3) 0.21394(3) -0.01024(3)
N2A N 0.6333(4) 1.0295(3) 1.1557(3)
H9A H 0.5409 1.0304 1.1648
H10A H 0.6435 1.0871 1.1085
N4A N 0.8268(4) 0.8340(3) 0.8757(3)
H11A H 0.9207 0.8206 0.9151
H12A H 0.8282 0.9251 0.8814
C15 C 0.2592(5) 0.8071(4) 1.0857(4)
C16 C 0.2386(5) 0.6500(5) 1.0587(5)
O1 O 0.3791(4) 0.8742(4) 1.1605(7)
O2 O 0.1497(5) 0.8538(4) 1.0340(5)
F1 F 0.3562(7) 0.5841(8) 1.0577(9)
F2 F 0.1454(8) 0.6158(6) 1.1192(8)
F3 F 0.1725(6) 0.5737(4) 0.9112(5)
F4? F 0.3674(16) 0.612(2) 1.1156(18)
F5? F 0.2422(15) 0.6455(12) 1.1936(10)
F6? F 0.1067(14) 0.5759(15) 0.9715(19)
loop_
_geom_bond_atom_site_label_1
_geom_bond_atom_site_label_2
_geom_bond_site_symmetry_1
_geom_bond_site_symmetry_2
Ag1 N1 1_555 1_555
C1 H1 1_555 1_555
C2 C1 1_555 1_555
H2 C2 1_555 1_555
C3 C2 1_555 1_555
C4 C3 1_555 1_555
H3 C4 1_555 1_555
C5 C4 1_555 1_555
H4 C5 1_555 1_555
C6 C1 1_555 1_555
C7 C6 1_555 1_555
C8 H5 1_555 1_555
C9 C8 1_555 1_555
H6 C9 1_555 1_555
C10 C9 1_555 1_555
C11 C10 1_555 1_555
H7 C11 1_555 1_555
C12 C11 1_555 1_555
H8 C12 1_555 1_555
C13 C8 1_555 1_555
C14 C13 1_555 1_555
C15 C16 1_555 1_555
C16 F1 1_555 1_555
N1 C7 1_555 1_555
N2 C3 1_555 1_555
H9 N2 1_555 1_555
H10 N2 1_555 1_555
N3 Ag1 1_555 1_555
N4 C10 1_555 1_555
H11 N4 1_555 1_555
H12 N4 1_555 1_555
O1 C15 1_555 1_555
O2 C15 1_555 1_555
F2 C16 1_555 1_555
F3 C16 1_555 1_555
Ag1A N2 1_555 1_555
Ag1A_2 N4 1_555 1_555
N2A Ag1 1_555 1_555
H9A N2A 1_555 1_555
H10A N2A 1_555 1_555
N4A Ag1 1_555 1_555
H11A N4A 1_555 1_555
H12A N4A 1_555 1_555
C5 C6 1_555 1_555
C12 C13 1_555 1_555
C14 N3 1_555 1_555

#END
