
#######################################################################
#
#                 Cambridge Crystallographic Data Centre
#                                CCDC 
#
#######################################################################
#
# If this CIF has been generated from an entry in the Cambridge 
# Structural Database, then it will include bibliographic, chemical, 
# crystal, experimental, refinement or atomic coordinate data resulting 
# from the CCDC's data processing and validation procedures.
#
#######################################################################

data_EBELEE
_symmetry_cell_setting           monoclinic
_symmetry_space_group_name_H-M   'P 21/c'
_symmetry_Int_Tables_number      14
_space_group_name_Hall           '-P 2ybc'
loop_
_symmetry_equiv_pos_site_id
_symmetry_equiv_pos_as_xyz
1 x,y,z
2 -x,1/2+y,1/2-z
3 -x,-y,-z
4 x,1/2-y,1/2+z
_cell_length_a                   9.1859(15)
_cell_length_b                   9.6910(16)
_cell_length_c                   20.348(3)
_cell_angle_alpha                90
_cell_angle_beta                 115.309(6)
_cell_angle_gamma                90
_cell_volume                     1637.52
loop_
_atom_site_label
_atom_site_type_symbol
_atom_site_fract_x
_atom_site_fract_y
_atom_site_fract_z
Ag1 Ag 0.82708(3) 0.72927(3) 0.730334(13)
N1 N 0.8339(4) 0.5451(3) 0.65840(16)
N2 N 0.4632(3) 0.2523(3) 0.32687(15)
H1 H 0.4897 0.1602 0.3314
H2 H 0.5019 0.2908 0.2962
N3 N 0.9753(3) 0.6180(3) 1.19164(14)
H3 H 1.0828 0.6270 1.2225
H4 H 0.9454 0.5291 1.1960
N4 N 0.8794(4) 0.7106(3) 0.84667(16)
C1 C 1.0508(4) 0.7322(4) 1.10452(18)
H5 H 1.1304 0.7835 1.1429
C2 C 0.8935(4) 0.6977(3) 0.90476(18)
C3 C 0.7732(4) 0.4973(3) 0.60210(18)
C4 C 1.0304(4) 0.7525(4) 1.03429(19)
H6 H 1.0968 0.8164 1.0243
C5 C 0.6958(4) 0.4356(3) 0.53132(17)
C6 C 0.8157(4) 0.5865(3) 0.99266(17)
H7 H 0.7348 0.5366 0.9541
C7 C 0.8362(4) 0.5663(3) 1.06309(17)
H8 H 0.7683 0.5036 1.0729
C8 C 0.5649(4) 0.2410(3) 0.45756(18)
H9 H 0.5261 0.1490 0.4534
C9 C 0.5435(4) 0.3140(3) 0.39537(17)
C10 C 0.9127(4) 0.6794(3) 0.97783(16)
C11 C 0.6414(4) 0.3004(3) 0.52505(17)
H10 H 0.6572 0.2491 0.5674
C12 C 0.6697(4) 0.5105(3) 0.46910(17)
H11 H 0.7036 0.6040 0.4730
C13 C 0.9563(4) 0.6376(3) 1.12003(17)
C14 C 0.5951(4) 0.4499(3) 0.40195(18)
H12 H 0.5788 0.5013 0.3596
Ag1B Ag 0.17292(3) 0.27073(3) 0.269666(13)
Ag1C Ag 0.82708(3) 0.77073(3) 1.230334(13)
N2B N 0.5368(3) 0.7477(3) 0.67313(15)
H1B H 0.5103 0.8398 0.6686
H2B H 0.4981 0.7092 0.7038
N3C N 0.9753(3) 0.8820(3) 0.69164(14)
H3C H 1.0828 0.8730 0.7225
H4C H 0.9454 0.9709 0.6960
Cl1 Cl 0.35496(10) 0.62813(8) 0.80328(4)
O1 O 0.4292(6) 0.7536(3) 0.8007(3)
O2 O 0.3426(5) 0.5419(3) 0.74507(16)
O3 O 0.1978(3) 0.6580(3) 0.79802(16)
O4 O 0.4398(3) 0.5582(3) 0.86995(14)
loop_
_geom_bond_atom_site_label_1
_geom_bond_atom_site_label_2
_geom_bond_site_symmetry_1
_geom_bond_site_symmetry_2
Ag1 N1 1_555 1_555
N1 C3 1_555 1_555
N2 H1 1_555 1_555
H2 N2 1_555 1_555
N3 H3 1_555 1_555
H4 N3 1_555 1_555
N4 Ag1 1_555 1_555
C1 H5 1_555 1_555
C2 N4 1_555 1_555
C3 C5 1_555 1_555
C4 C1 1_555 1_555
H6 C4 1_555 1_555
C5 C11 1_555 1_555
C6 H7 1_555 1_555
C7 C6 1_555 1_555
H8 C7 1_555 1_555
C8 H9 1_555 1_555
C9 N2 1_555 1_555
C10 C2 1_555 1_555
C11 C8 1_555 1_555
H10 C11 1_555 1_555
C12 C5 1_555 1_555
H11 C12 1_555 1_555
C13 N3 1_555 1_555
C14 C9 1_555 1_555
H12 C14 1_555 1_555
Cl1 O1 1_555 1_555
O2 Cl1 1_555 1_555
O3 Cl1 1_555 1_555
O4 Cl1 1_555 1_555
Ag1B N2 1_555 1_555
Ag1C N3 1_555 1_555
N2B Ag1 1_555 1_555
H1B N2B 1_555 1_555
H2B N2B 1_555 1_555
N3C Ag1 1_555 1_555
H3C N3C 1_555 1_555
H4C N3C 1_555 1_555
C1 C13 1_555 1_555
C4 C10 1_555 1_555
C6 C10 1_555 1_555
C7 C13 1_555 1_555
C8 C9 1_555 1_555
C12 C14 1_555 1_555

#END
