
#######################################################################
#
#                 Cambridge Crystallographic Data Centre
#                                CCDC 
#
#######################################################################
#
# If this CIF has been generated from an entry in the Cambridge 
# Structural Database, then it will include bibliographic, chemical, 
# crystal, experimental, refinement or atomic coordinate data resulting 
# from the CCDC's data processing and validation procedures.
#
#######################################################################

data_EBEMII
_symmetry_cell_setting           monoclinic
_symmetry_space_group_name_H-M   'C 2/c'
_symmetry_Int_Tables_number      15
_space_group_name_Hall           '-C 2yn'
loop_
_symmetry_equiv_pos_site_id
_symmetry_equiv_pos_as_xyz
1 x,y,z
2 x,-y,1/2+z
3 1/2+x,1/2+y,z
4 1/2+x,1/2-y,1/2+z
5 -x,-y,-z
6 -x,y,1/2-z
7 1/2-x,1/2-y,-z
8 1/2-x,1/2+y,1/2-z
_cell_length_a                   25.65(1)
_cell_length_b                   11.215(5)
_cell_length_c                   13.983(9)
_cell_angle_alpha                90
_cell_angle_beta                 105.6(1)
_cell_angle_gamma                90
_cell_volume                     3874.24
loop_
_atom_site_label
_atom_site_type_symbol
_atom_site_fract_x
_atom_site_fract_y
_atom_site_fract_z
Cd1 Cd 0.27574(3) 0.17890(9) 0.63277(7)
O1 O 0.2824(5) 0.212(1) 0.7949(7)
O2 O 0.3583(7) 0.119(1) 0.833(1)
O3 O 0.2696(9) -0.047(1) 0.8337(9)
O4 O 0.2626(3) -0.1539(7) 0.9564(6)
N1 N 0.3294(6) 0.240(1) 1.0171(9)
N2 N 0.2990(4) 0.0222(10) 1.0857(7)
N3 N 0.3598(4) 0.258(1) 0.6357(8)
N4 N 0.6880(4) 0.6096(10) 0.6276(8)
C1 C 0.3159(5) 0.144(1) 0.9588(10)
C2 C 0.2983(5) 0.038(1) 0.9896(9)
C3 C 0.3169(7) 0.117(2) 1.148(1)
C4 C 0.3297(9) 0.225(1) 1.112(1)
C5 C 0.3195(8) 0.159(1) 0.854(1)
C6 C 0.2736(7) -0.060(1) 0.917(1)
C7 C 0.3693(5) 0.375(1) 0.6295(10)
C8 C 0.4177(5) 0.423(1) 0.623(1)
C9 C 0.4597(5) 0.348(2) 0.622(1)
C10 C 0.4516(5) 0.226(2) 0.630(1)
C11 C 0.4009(5) 0.186(1) 0.635(1)
C12 C 0.5858(5) 0.538(1) 0.6246(9)
C13 C 0.5973(5) 0.661(1) 0.625(1)
C14 C 0.6492(5) 0.691(1) 0.6263(10)
C15 C 0.6765(5) 0.495(1) 0.628(1)
C16 C 0.6257(6) 0.457(1) 0.627(1)
C17 C 0.5117(7) 0.386(2) 0.623(2)
C18 C 0.5288(6) 0.500(2) 0.622(1)
H1 H 0.3205 0.1085 1.2167
H2 H 0.3392 0.2902 1.1565
H3 H 0.3406 0.4289 0.6297
H4 H 0.4218 0.5066 0.6187
H5 H 0.4799 0.1704 0.6309
H6 H 0.3954 0.1029 0.6389
H7 H 0.5705 0.7201 0.6241
H8 H 0.6583 0.7728 0.6264
H9 H 0.7039 0.4382 0.6282
H10 H 0.6183 0.3745 0.6280
H11 H 0.5377 0.3257 0.6234
H12 H 0.5029 0.5609 0.6196
O1G O 0.2176(5) 0.712(1) 0.7051(7)
O2G O 0.1417(7) 0.619(1) 0.667(1)
O3G O 0.2304(9) 0.453(1) 0.6663(9)
O4G O 0.2374(3) 0.3461(7) 0.5436(6)
N1G N 0.1706(6) 0.740(1) 0.4829(9)
N2G N 0.2010(4) 0.5222(10) 0.4143(7)
C1G C 0.1841(5) 0.644(1) 0.5412(10)
C2G C 0.2017(5) 0.538(1) 0.5104(9)
C3G C 0.1831(7) 0.617(2) 0.352(1)
C4G C 0.1703(9) 0.725(1) 0.388(1)
C5G C 0.1805(8) 0.659(1) 0.646(1)
C6G C 0.2264(7) 0.440(1) 0.583(1)
H1G H 0.1795 0.6085 0.2833
H2G H 0.1608 0.7902 0.3435
N3B N -0.1402(4) -0.242(1) 0.6357(8)
N4B N 0.1880(4) 0.1096(10) 0.6276(8)
C7B C -0.1307(5) -0.125(1) 0.6295(10)
C8B C -0.0823(5) -0.077(1) 0.623(1)
C9B C -0.0403(5) -0.152(2) 0.622(1)
C10B C -0.0484(5) -0.274(2) 0.630(1)
C11B C -0.0991(5) -0.314(1) 0.635(1)
C12B C 0.0858(5) 0.038(1) 0.6246(9)
C13B C 0.0973(5) 0.161(1) 0.625(1)
C14B C 0.1492(5) 0.191(1) 0.6263(10)
C15B C 0.1765(5) -0.005(1) 0.628(1)
C16B C 0.1257(6) -0.043(1) 0.627(1)
C17B C 0.0117(7) -0.114(2) 0.623(2)
C18B C 0.0288(6) 0.000(2) 0.622(1)
H3B H -0.1594 -0.0711 0.6297
H4B H -0.0782 0.0066 0.6187
H5B H -0.0201 -0.3296 0.6309
H6B H -0.1046 -0.3971 0.6389
H7B H 0.0705 0.2201 0.6241
H8B H 0.1583 0.2728 0.6264
H9B H 0.2039 -0.0618 0.6282
H10B H 0.1183 -0.1255 0.6280
H11B H 0.0377 -0.1743 0.6234
H12B H 0.0029 0.0609 0.6196
Cd1G Cd 0.22426(3) 0.67890(9) 0.86723(7)
O4A O 0.2626(3) 0.1539(7) 0.4564(6)
N2A N 0.2990(4) -0.0222(10) 0.5857(7)
Cd1A Cd 0.27574(3) -0.17890(9) 1.13277(7)
Cd1G_2 Cd 0.22426(3) -0.32110(9) 0.86723(7)
Cd1B Cd 0.77574(3) 0.67890(9) 0.63277(7)
Cd1F Cd 0.22426(3) 0.32110(9) 0.36723(7)
Cd1B_2 Cd -0.22426(3) -0.32110(9) 0.63277(7)
O4_2 O 0.2626(3) 0.8461(7) 0.9564(6)
O4F O 0.2374(3) 0.6539(7) 1.0436(6)
N2F N 0.2010(4) 0.4778(10) 0.9143(7)
N3G N 0.1402(4) 0.758(1) 0.8643(8)
N4E N 0.3120(4) 0.6096(10) 0.8724(8)
O5 O 0.5000 0.154(4) 0.2500
O6 O 0.448(1) 0.005(3) 0.420(3)
loop_
_geom_bond_atom_site_label_1
_geom_bond_atom_site_label_2
_geom_bond_site_symmetry_1
_geom_bond_site_symmetry_2
Cd1 O1 1_555 1_555
O1 C5 1_555 1_555
O2 C5 1_555 1_555
O3 C6 1_555 1_555
O4 C6 1_555 1_555
N1 C1 1_555 1_555
N2 C2 1_555 1_555
N3 Cd1 1_555 1_555
N4 C14 1_555 1_555
C1 C2 1_555 1_555
C2 C6 1_555 1_555
C3 N2 1_555 1_555
C4 N1 1_555 1_555
C5 C1 1_555 1_555
C7 N3 1_555 1_555
C8 C7 1_555 1_555
C9 C8 1_555 1_555
C10 C9 1_555 1_555
C11 N3 1_555 1_555
C12 C13 1_555 1_555
C13 C14 1_555 1_555
C14 H8 1_555 1_555
C15 N4 1_555 1_555
C16 C12 1_555 1_555
C17 C9 1_555 1_555
C18 C12 1_555 1_555
H1 C3 1_555 1_555
H2 C4 1_555 1_555
H3 C7 1_555 1_555
H4 C8 1_555 1_555
H5 C10 1_555 1_555
H6 C11 1_555 1_555
H7 C13 1_555 1_555
H9 C15 1_555 1_555
H10 C16 1_555 1_555
H11 C17 1_555 1_555
H12 C18 1_555 1_555
O1G C5G 1_555 1_555
O2G C5G 1_555 1_555
O3G C6G 1_555 1_555
O4G Cd1 1_555 1_555
N1G C1G 1_555 1_555
N2G C2G 1_555 1_555
C1G C2G 1_555 1_555
C2G C6G 1_555 1_555
C3G N2G 1_555 1_555
C4G N1G 1_555 1_555
C5G C1G 1_555 1_555
C6G O4G 1_555 1_555
H1G C3G 1_555 1_555
H2G C4G 1_555 1_555
N3B C7B 1_555 1_555
N4B Cd1 1_555 1_555
C7B C8B 1_555 1_555
C8B C9B 1_555 1_555
C9B C10B 1_555 1_555
C10B C11B 1_555 1_555
C11B N3B 1_555 1_555
C12B C13B 1_555 1_555
C13B C14B 1_555 1_555
C14B N4B 1_555 1_555
C15B N4B 1_555 1_555
C16B C12B 1_555 1_555
C17B C9B 1_555 1_555
C18B C12B 1_555 1_555
H3B C7B 1_555 1_555
H4B C8B 1_555 1_555
H5B C10B 1_555 1_555
H6B C11B 1_555 1_555
H7B C13B 1_555 1_555
H8B C14B 1_555 1_555
H9B C15B 1_555 1_555
H10B C16B 1_555 1_555
H11B C17B 1_555 1_555
H12B C18B 1_555 1_555
Cd1G O1G 1_555 1_555
O4A Cd1 1_555 1_555
N2A Cd1 1_555 1_555
Cd1A O4 1_555 1_555
Cd1G_2 O4 1_555 1_555
Cd1B N4 1_555 1_555
Cd1F O4G 1_555 1_555
Cd1B_2 N3B 1_555 1_555
O4_2 Cd1G 1_555 1_555
O4F Cd1G 1_555 1_555
N2F Cd1G 1_555 1_555
N3G Cd1G 1_555 1_555
N4E Cd1G 1_555 1_555
N2 Cd1A 1_555 1_555
C3 C4 1_555 1_555
C10 C11 1_555 1_555
C15 C16 1_555 1_555
C17 C18 1_555 1_555
N2G Cd1F 1_555 1_555
C3G C4G 1_555 1_555
C15B C16B 1_555 1_555
C17B C18B 1_555 1_555
O4A Cd1F 1_555 1_555

#END
