
#######################################################################
#
#                 Cambridge Crystallographic Data Centre
#                                CCDC 
#
#######################################################################
#
# If this CIF has been generated from an entry in the Cambridge 
# Structural Database, then it will include bibliographic, chemical, 
# crystal, experimental, refinement or atomic coordinate data resulting 
# from the CCDC's data processing and validation procedures.
#
#######################################################################

data_EBEMOO
_symmetry_cell_setting           monoclinic
_symmetry_space_group_name_H-M   'C 2/c'
_symmetry_Int_Tables_number      15
_space_group_name_Hall           '-C 2yn'
loop_
_symmetry_equiv_pos_site_id
_symmetry_equiv_pos_as_xyz
1 x,y,z
2 x,-y,1/2+z
3 1/2+x,1/2+y,z
4 1/2+x,1/2-y,1/2+z
5 -x,-y,-z
6 -x,y,1/2-z
7 1/2-x,1/2-y,-z
8 1/2-x,1/2+y,1/2-z
_cell_length_a                   25.09(3)
_cell_length_b                   11.472(3)
_cell_length_c                   13.762(6)
_cell_angle_alpha                90
_cell_angle_beta                 102.94(2)
_cell_angle_gamma                90
_cell_volume                     3860.56
loop_
_atom_site_label
_atom_site_type_symbol
_atom_site_fract_x
_atom_site_fract_y
_atom_site_fract_z
Cd1 Cd 0.27801(1) 0.18128(2) 0.63129(2)
O1 O 0.2734(2) 0.2261(4) 0.7929(3)
O2 O 0.3395(2) 0.1043(5) 0.7987(3)
O3 O 0.2472(3) -0.0357(4) 0.8307(3)
O4 O 0.2661(1) -0.1604(2) 0.9543(2)
N1 N 0.3294(2) 0.2285(4) 1.0089(3)
N2 N 0.3027(1) 0.0152(3) 1.0826(2)
N3 N 0.3645(2) 0.2659(4) 0.6291(3)
N4 N 0.6886(1) 0.6038(3) 0.6242(2)
N5 N 0.5214(2) 0.3882(5) 0.6205(4)
N6 N 0.5293(2) 0.4936(4) 0.6308(3)
C1 C 0.3102(2) 0.1392(4) 0.9482(3)
C2 C 0.2958(2) 0.0345(3) 0.9847(3)
C3 C 0.3216(2) 0.1031(4) 1.1428(3)
C4 C 0.3326(3) 0.2075(5) 1.1051(4)
C5 C 0.3077(3) 0.1577(4) 0.8371(3)
C6 C 0.2680(2) -0.0614(4) 0.9160(3)
C7 C 0.4068(2) 0.1984(6) 0.6297(6)
C8 C 0.4579(2) 0.2376(6) 0.6248(5)
C9 C 0.4664(2) 0.3539(5) 0.6239(4)
C10 C 0.4244(2) 0.4275(5) 0.6246(4)
C11 C 0.3735(2) 0.3782(5) 0.6267(4)
C12 C 0.5849(2) 0.5246(4) 0.6296(3)
C13 C 0.6258(2) 0.4466(4) 0.6232(4)
C14 C 0.6771(2) 0.4905(4) 0.6213(4)
C15 C 0.6480(2) 0.6789(4) 0.6293(4)
C16 C 0.5964(2) 0.6430(5) 0.6336(4)
H1 H 0.3433 0.2700 1.1506
H2 H 0.3274 0.0931 1.2129
H3 H 0.4017 0.1166 0.6339
H4 H 0.4865 0.1843 0.6221
H5 H 0.4292 0.5096 0.6236
H6 H 0.3437 0.4295 0.6264
H7 H 0.6191 0.3650 0.6202
H8 H 0.7054 0.4368 0.6178
H9 H 0.6554 0.7601 0.6299
H10 H 0.5690 0.6982 0.6392
O4A O 0.2661(1) 0.1604(2) 0.4543(2)
O4G O 0.2339(1) 0.3396(2) 0.5457(2)
N2A N 0.3027(1) -0.0152(3) 0.5826(2)
N4B N 0.1886(1) 0.1038(3) 0.6242(2)
Cd1A Cd 0.27801(1) -0.18128(2) 1.13129(2)
Cd1G Cd 0.22199(1) -0.31872(2) 0.86871(2)
Cd1B Cd 0.77801(1) 0.68128(2) 0.63129(2)
loop_
_geom_bond_atom_site_label_1
_geom_bond_atom_site_label_2
_geom_bond_site_symmetry_1
_geom_bond_site_symmetry_2
Cd1 O1 1_555 1_555
O1 C5 1_555 1_555
O2 C5 1_555 1_555
O3 C6 1_555 1_555
O4 C6 1_555 1_555
N1 C1 1_555 1_555
N2 C2 1_555 1_555
N3 Cd1 1_555 1_555
N4 C14 1_555 1_555
N5 N6 1_555 1_555
N6 C12 1_555 1_555
C1 C2 1_555 1_555
C2 C6 1_555 1_555
C3 N2 1_555 1_555
C4 N1 1_555 1_555
C5 C1 1_555 1_555
C7 N3 1_555 1_555
C8 C7 1_555 1_555
C9 N5 1_555 1_555
C10 C9 1_555 1_555
C11 N3 1_555 1_555
C12 C13 1_555 1_555
C13 C14 1_555 1_555
C14 H8 1_555 1_555
C15 N4 1_555 1_555
C16 C12 1_555 1_555
H1 C4 1_555 1_555
H2 C3 1_555 1_555
H3 C7 1_555 1_555
H4 C8 1_555 1_555
H5 C10 1_555 1_555
H6 C11 1_555 1_555
H7 C13 1_555 1_555
H9 C15 1_555 1_555
H10 C16 1_555 1_555
O4A Cd1 1_555 1_555
O4G Cd1 1_555 1_555
N2A Cd1 1_555 1_555
N4B Cd1 1_555 1_555
Cd1A O4 1_555 1_555
Cd1G O4 1_555 1_555
Cd1B N4 1_555 1_555
N2 Cd1A 1_555 1_555
C3 C4 1_555 1_555
C8 C9 1_555 1_555
C10 C11 1_555 1_555
C15 C16 1_555 1_555

#END
