
#######################################################################
#
#                 Cambridge Crystallographic Data Centre
#                                CCDC 
#
#######################################################################
#
# If this CIF has been generated from an entry in the Cambridge 
# Structural Database, then it will include bibliographic, chemical, 
# crystal, experimental, refinement or atomic coordinate data resulting 
# from the CCDC's data processing and validation procedures.
#
#######################################################################

data_EBENUW
_symmetry_cell_setting           monoclinic
_symmetry_space_group_name_H-M   'C 2/c'
_symmetry_Int_Tables_number      15
_space_group_name_Hall           '-C 2yn'
loop_
_symmetry_equiv_pos_site_id
_symmetry_equiv_pos_as_xyz
1 x,y,z
2 -x,y,1/2-z
3 1/2+x,1/2+y,z
4 1/2-x,1/2+y,1/2-z
5 -x,-y,-z
6 x,-y,1/2+z
7 1/2-x,1/2-y,-z
8 1/2+x,1/2-y,1/2+z
_cell_length_a                   23.6617(12)
_cell_length_b                   9.5813(5)
_cell_length_c                   20.3753(16)
_cell_angle_alpha                90
_cell_angle_beta                 119.6840(10)
_cell_angle_gamma                90
_cell_volume                     4013.09
loop_
_atom_site_label
_atom_site_type_symbol
_atom_site_fract_x
_atom_site_fract_y
_atom_site_fract_z
Ag1 Ag 0.068665(11) 0.14573(2) 0.347047(11)
F1 F 0.16373(9) 0.38910(19) 0.22463(10)
O1 O 0.07742(12) 0.2684(3) 0.24859(11)
N1 N 0.13662(10) 0.2575(2) 0.46080(10)
C1 C 0.12513(12) 0.2372(2) 0.51732(13)
H1 H 0.0939 0.1686 0.5111
F2 F 0.09542(8) 0.38137(16) 0.10450(9)
O2 O 0.01923(10) 0.1999(3) 0.12940(12)
N2 N 0.07775(9) 0.0774(2) 0.81645(10)
C2 C 0.18226(11) 0.3559(2) 0.46991(12)
F3 F 0.18972(10) 0.1130(2) 0.22252(12)
C3 C 0.19656(12) 0.3768(3) 0.41098(13)
H2 H 0.1758 0.3211 0.3667
F4 F 0.20880(10) 0.2436(2) 0.15081(13)
C4 C 0.24009(12) 0.4767(3) 0.41770(15)
H3 H 0.2497 0.4895 0.3780
F5 F 0.12510(10) 0.1076(2) 0.10268(11)
C5 C 0.27108(13) 0.5616(3) 0.48273(15)
H4 H 0.3007 0.6320 0.4862
C6 C 0.25838(12) 0.5425(3) 0.54065(14)
H5 H 0.2794 0.5997 0.5844
C7 C 0.21421(11) 0.4384(2) 0.53618(13)
C8 C 0.20030(12) 0.4131(2) 0.59465(13)
H6 H 0.2213 0.4664 0.6398
C9 C 0.15644(12) 0.3112(2) 0.58654(13)
C10 C 0.14035(12) 0.2815(3) 0.64442(13)
C11 C 0.12583(12) 0.2610(3) 0.69177(13)
C12 C 0.10564(11) 0.2416(2) 0.74714(12)
C13 C 0.09274(11) 0.3524(2) 0.78055(13)
H7 H 0.0982 0.4453 0.7684
C14 C 0.07135(11) 0.3276(2) 0.83295(12)
C15 C 0.05501(12) 0.4368(3) 0.86745(14)
H8 H 0.0576 0.5311 0.8548
C16 C 0.03563(13) 0.4072(3) 0.91871(14)
H9 H 0.0252 0.4812 0.9419
C17 C 0.03095(12) 0.2684(3) 0.93750(13)
H10 H 0.0180 0.2495 0.9739
C18 C 0.04485(12) 0.1602(3) 0.90412(13)
H11 H 0.0409 0.0666 0.9167
C19 C 0.06521(11) 0.1878(2) 0.85075(12)
C20 C 0.09657(11) 0.1049(2) 0.76693(13)
H12 H 0.1046 0.0285 0.7429
C21 C 0.06633(12) 0.2515(3) 0.18356(14)
C22 C 0.12055(13) 0.3044(3) 0.16807(14)
C23 C 0.16093(15) 0.1903(3) 0.16018(17)
Ag1A Ag -0.068665(11) 0.14573(2) 0.152953(11)
Ag1E Ag 0.068665(11) -0.14573(2) 0.847047(11)
O2A O -0.01923(10) 0.1999(3) 0.37060(12)
N2E N 0.07775(9) -0.0774(2) 0.31645(10)
loop_
_geom_bond_atom_site_label_1
_geom_bond_atom_site_label_2
_geom_bond_site_symmetry_1
_geom_bond_site_symmetry_2
Ag1 O1 1_555 1_555
F1 C22 1_555 1_555
O1 C21 1_555 1_555
N1 Ag1 1_555 1_555
C1 N1 1_555 1_555
H1 C1 1_555 1_555
F2 C22 1_555 1_555
O2 C21 1_555 1_555
N2 C19 1_555 1_555
C2 N1 1_555 1_555
F3 C23 1_555 1_555
C3 C2 1_555 1_555
H2 C3 1_555 1_555
F4 C23 1_555 1_555
C4 C3 1_555 1_555
H3 C4 1_555 1_555
F5 C23 1_555 1_555
C5 C4 1_555 1_555
H4 C5 1_555 1_555
C6 C5 1_555 1_555
H5 C6 1_555 1_555
C7 C2 1_555 1_555
C8 C7 1_555 1_555
H6 C8 1_555 1_555
C9 C1 1_555 1_555
C10 C9 1_555 1_555
C11 C10 1_555 1_555
C12 C11 1_555 1_555
C13 C12 1_555 1_555
H7 C13 1_555 1_555
C14 C13 1_555 1_555
C15 C14 1_555 1_555
H8 C15 1_555 1_555
C16 C15 1_555 1_555
H9 C16 1_555 1_555
C17 C16 1_555 1_555
H10 C17 1_555 1_555
C18 C17 1_555 1_555
H11 C18 1_555 1_555
C19 C14 1_555 1_555
C20 N2 1_555 1_555
H12 C20 1_555 1_555
C21 C22 1_555 1_555
C22 C23 1_555 1_555
Ag1A O2 1_555 1_555
Ag1E N2 1_555 1_555
O2A Ag1 1_555 1_555
N2E Ag1 1_555 1_555
C6 C7 1_555 1_555
C8 C9 1_555 1_555
C12 C20 1_555 1_555
C18 C19 1_555 1_555

#END
