
#######################################################################
#
#                 Cambridge Crystallographic Data Centre
#                                CCDC 
#
#######################################################################
#
# If this CIF has been generated from an entry in the Cambridge 
# Structural Database, then it will include bibliographic, chemical, 
# crystal, experimental, refinement or atomic coordinate data resulting 
# from the CCDC's data processing and validation procedures.
#
#######################################################################

data_EBENEG
_symmetry_cell_setting           triclinic
_symmetry_space_group_name_H-M   'P -1'
_symmetry_Int_Tables_number      2
_space_group_name_Hall           '-P 1'
loop_
_symmetry_equiv_pos_site_id
_symmetry_equiv_pos_as_xyz
1 x,y,z
2 -x,-y,-z
_cell_length_a                   6.9915(9)
_cell_length_b                   11.7916(15)
_cell_length_c                   13.0707(16)
_cell_angle_alpha                69.3670(10)
_cell_angle_beta                 81.976(2)
_cell_angle_gamma                85.836(2)
_cell_volume                     998.251
loop_
_atom_site_label
_atom_site_type_symbol
_atom_site_fract_x
_atom_site_fract_y
_atom_site_fract_z
Ag1 Ag 0.73403(3) 0.578288(17) 0.535524(16)
N1 N 0.8047(3) 0.38890(19) 0.60944(18)
C1 C 0.7881(4) 0.3146(2) 0.5562(2)
H1 H 0.7676 0.3485 0.4809
N2 N 0.7140(3) -0.23240(19) 0.43947(17)
C2 C 0.8368(4) 0.3415(2) 0.7182(2)
N3 N 0.4315(4) 0.5745(2) 0.6744(2)
C3 C 0.8585(4) 0.4198(3) 0.7753(2)
H2 H 0.8520 0.5051 0.7388
C4 C 0.8893(4) 0.3731(3) 0.8838(2)
H3 H 0.9050 0.4266 0.9219
C5 C 0.8979(4) 0.2470(3) 0.9395(2)
H4 H 0.9179 0.2159 1.0150
C6 C 0.8778(4) 0.1695(3) 0.8857(2)
H5 H 0.8842 0.0845 0.9240
C7 C 0.8473(4) 0.2139(2) 0.7733(2)
C8 C 0.8274(4) 0.1374(2) 0.7143(2)
H6 H 0.8335 0.0519 0.7496
C9 C 0.7991(4) 0.1863(2) 0.6054(2)
C10 C 0.7773(4) 0.1142(2) 0.5404(2)
C11 C 0.7570(4) 0.0535(2) 0.4861(2)
C12 C 0.7311(4) -0.0250(2) 0.4280(2)
C13 C 0.7356(4) -0.1521(2) 0.4855(2)
H7 H 0.7552 -0.1805 0.5610
C14 C 0.6844(3) -0.1935(2) 0.3300(2)
C15 C 0.6627(4) -0.2784(2) 0.2800(2)
H8 H 0.6668 -0.3626 0.3219
C16 C 0.6358(4) -0.2412(3) 0.1716(2)
H9 H 0.6220 -0.2995 0.1383
C17 C 0.6282(4) -0.1164(3) 0.1087(2)
H10 H 0.6113 -0.0913 0.0329
C18 C 0.6450(4) -0.0317(2) 0.1555(2)
H11 H 0.6362 0.0520 0.1127
C19 C 0.6756(4) -0.0677(2) 0.2679(2)
C20 C 0.6994(4) 0.0154(2) 0.3193(2)
H12 H 0.6935 0.1000 0.2790
C21 C 0.3830(4) 0.5820(3) 0.7588(2)
C22 C 0.3200(5) 0.5914(3) 0.8658(3)
H13 H 0.1945 0.6344 0.8644
H14 H 0.4150 0.6363 0.8840
H15 H 0.3080 0.5100 0.9215
Ag1_2 Ag 0.73403(3) -0.421712(17) 0.535524(16)
N2_2 N 0.7140(3) 0.76760(19) 0.43947(17)
F1 F 0.810(2) 0.6596(11) 0.9111(11)
B1 B 0.7994(6) 0.7524(3) 0.8271(3)
F2 F 0.6315(9) 0.8057(6) 0.7926(12)
F3 F 0.917(2) 0.8420(14) 0.8222(13)
F4 F 0.880(2) 0.7124(6) 0.7354(6)
B2? B 0.7994(6) 0.7524(3) 0.8271(3)
F5? F 0.943(2) 0.8284(16) 0.8120(16)
F6? F 0.6288(10) 0.7937(12) 0.8769(17)
F7? F 0.8207(17) 0.6458(10) 0.9215(8)
F8? F 0.758(2) 0.7207(10) 0.7477(7)
loop_
_geom_bond_atom_site_label_1
_geom_bond_atom_site_label_2
_geom_bond_site_symmetry_1
_geom_bond_site_symmetry_2
Ag1 N1 1_555 1_555
N1 C1 1_555 1_555
C1 H1 1_555 1_555
N2 C13 1_555 1_555
C2 N1 1_555 1_555
N3 Ag1 1_555 1_555
C3 C2 1_555 1_555
H2 C3 1_555 1_555
C4 C3 1_555 1_555
H3 C4 1_555 1_555
C5 C4 1_555 1_555
H4 C5 1_555 1_555
C6 C5 1_555 1_555
H5 C6 1_555 1_555
C7 C2 1_555 1_555
C8 C7 1_555 1_555
H6 C8 1_555 1_555
C9 C1 1_555 1_555
C10 C9 1_555 1_555
C11 C10 1_555 1_555
C12 C11 1_555 1_555
C13 C12 1_555 1_555
H7 C13 1_555 1_555
C14 N2 1_555 1_555
C15 C14 1_555 1_555
H8 C15 1_555 1_555
C16 C15 1_555 1_555
H9 C16 1_555 1_555
C17 C16 1_555 1_555
H10 C17 1_555 1_555
C18 C17 1_555 1_555
H11 C18 1_555 1_555
C19 C14 1_555 1_555
C20 C12 1_555 1_555
H12 C20 1_555 1_555
C21 N3 1_555 1_555
C22 C21 1_555 1_555
H13 C22 1_555 1_555
H14 C22 1_555 1_555
H15 C22 1_555 1_555
F1 B1 1_555 1_555
B1 F2 1_555 1_555
F3 B1 1_555 1_555
F4 B1 1_555 1_555
Ag1_2 N2 1_555 1_555
N2_2 Ag1 1_555 1_555
C6 C7 1_555 1_555
C8 C9 1_555 1_555
C18 C19 1_555 1_555
C19 C20 1_555 1_555

#END
