
#######################################################################
#
#                 Cambridge Crystallographic Data Centre
#                                CCDC 
#
#######################################################################
#
# If this CIF has been generated from an entry in the Cambridge 
# Structural Database, then it will include bibliographic, chemical, 
# crystal, experimental, refinement or atomic coordinate data resulting 
# from the CCDC's data processing and validation procedures.
#
#######################################################################

data_EBEPEI
_symmetry_cell_setting           monoclinic
_symmetry_space_group_name_H-M   'P 21/c'
_symmetry_Int_Tables_number      14
_space_group_name_Hall           '-P 2ybc'
loop_
_symmetry_equiv_pos_site_id
_symmetry_equiv_pos_as_xyz
1 x,y,z
2 -x,1/2+y,1/2-z
3 -x,-y,-z
4 x,1/2-y,1/2+z
_cell_length_a                   12.6144(11)
_cell_length_b                   11.9320(10)
_cell_length_c                   13.3180(11)
_cell_angle_alpha                90
_cell_angle_beta                 106.7020(10)
_cell_angle_gamma                90
_cell_volume                     1919.99
loop_
_atom_site_label
_atom_site_type_symbol
_atom_site_fract_x
_atom_site_fract_y
_atom_site_fract_z
Ag1 Ag 0.576526(19) 1.097576(18) 0.645602(19)
S1 S 0.71387(7) 1.21216(6) 0.44927(7)
F1 F 0.87737(17) 1.2192(2) 0.3652(2)
O1 O 0.6576(2) 1.1179(2) 0.4785(2)
N1 N 0.66786(19) 0.94235(19) 0.68627(18)
C1 C 0.6172(2) 0.8453(2) 0.6714(2)
H1 H 0.5390 0.8447 0.6428
F2 F 0.90245(17) 1.10248(18) 0.4927(2)
O2 O 0.65261(19) 1.26726(19) 0.35452(19)
N2 N 0.48601(19) 0.25362(19) 0.61244(19)
C2 C 0.7823(2) 0.9445(2) 0.7268(2)
F3 F 0.78922(18) 1.06361(18) 0.34242(18)
O3 O 0.7687(2) 1.2853(2) 0.5333(2)
C3 C 0.8381(3) 1.0483(2) 0.7418(2)
H2 H 0.7978 1.1162 0.7238
C4 C 0.9505(3) 1.0504(3) 0.7823(3)
H3 H 0.9881 1.1204 0.7915
C5 C 1.0118(3) 0.9514(3) 0.8108(3)
H4 H 1.0900 0.9550 0.8391
C6 C 0.9597(2) 0.8502(3) 0.7980(3)
H5 H 1.0015 0.7835 0.8180
C7 C 0.8433(2) 0.8442(2) 0.7550(2)
C8 C 0.7860(2) 0.7417(2) 0.7388(2)
H6 H 0.8252 0.6733 0.7574
C9 C 0.6726(2) 0.7408(2) 0.6958(2)
C10 C 0.6119(2) 0.6391(2) 0.6751(2)
C11 C 0.5600(2) 0.5529(2) 0.6539(2)
C12 C 0.4936(2) 0.4554(2) 0.6249(2)
C13 C 0.5425(2) 0.3474(2) 0.6365(2)
H7 H 0.6207 0.3425 0.6632
C14 C 0.3728(2) 0.2600(2) 0.5719(2)
C15 C 0.3108(3) 0.1601(2) 0.5457(2)
H8 H 0.3470 0.0894 0.5557
C16 C 0.1982(3) 0.1661(3) 0.5058(2)
H9 H 0.1564 0.0990 0.4879
C17 C 0.1434(3) 0.2696(3) 0.4908(2)
H10 H 0.0651 0.2719 0.4634
C18 C 0.2014(2) 0.3667(3) 0.5153(2)
H11 H 0.1634 0.4365 0.5047
C19 C 0.3178(2) 0.3645(2) 0.5565(2)
C20 C 0.3810(2) 0.4626(2) 0.5842(2)
H12 H 0.3457 0.5337 0.5748
C21 C 0.8263(3) 1.1457(3) 0.4107(3)
Ag1_2 Ag 0.576526(19) 0.097576(18) 0.645602(19)
N2_2 N 0.48601(19) 1.25362(19) 0.61244(19)
loop_
_geom_bond_atom_site_label_1
_geom_bond_atom_site_label_2
_geom_bond_site_symmetry_1
_geom_bond_site_symmetry_2
Ag1 O1 1_555 1_555
S1 O1 1_555 1_555
F1 C21 1_555 1_555
N1 Ag1 1_555 1_555
C1 N1 1_555 1_555
H1 C1 1_555 1_555
F2 C21 1_555 1_555
O2 S1 1_555 1_555
N2 C13 1_555 1_555
C2 N1 1_555 1_555
F3 C21 1_555 1_555
O3 S1 1_555 1_555
C3 C2 1_555 1_555
H2 C3 1_555 1_555
C4 C3 1_555 1_555
H3 C4 1_555 1_555
C5 C4 1_555 1_555
H4 C5 1_555 1_555
C6 C5 1_555 1_555
H5 C6 1_555 1_555
C7 C2 1_555 1_555
C8 C7 1_555 1_555
H6 C8 1_555 1_555
C9 C1 1_555 1_555
C10 C9 1_555 1_555
C11 C10 1_555 1_555
C12 C11 1_555 1_555
C13 C12 1_555 1_555
H7 C13 1_555 1_555
C14 N2 1_555 1_555
C15 C14 1_555 1_555
H8 C15 1_555 1_555
C16 C15 1_555 1_555
H9 C16 1_555 1_555
C17 C16 1_555 1_555
H10 C17 1_555 1_555
C18 C17 1_555 1_555
H11 C18 1_555 1_555
C19 C14 1_555 1_555
C20 C12 1_555 1_555
H12 C20 1_555 1_555
C21 S1 1_555 1_555
Ag1_2 N2 1_555 1_555
N2_2 Ag1 1_555 1_555
C6 C7 1_555 1_555
C8 C9 1_555 1_555
C18 C19 1_555 1_555
C19 C20 1_555 1_555

#END
