
#######################################################################
#
#                 Cambridge Crystallographic Data Centre
#                                CCDC 
#
#######################################################################
#
# If this CIF has been generated from an entry in the Cambridge 
# Structural Database, then it will include bibliographic, chemical, 
# crystal, experimental, refinement or atomic coordinate data resulting 
# from the CCDC's data processing and validation procedures.
#
#######################################################################

data_EBEPAE
_symmetry_cell_setting           triclinic
_symmetry_space_group_name_H-M   'P -1'
_symmetry_Int_Tables_number      2
_space_group_name_Hall           '-P 1'
loop_
_symmetry_equiv_pos_site_id
_symmetry_equiv_pos_as_xyz
1 x,y,z
2 -x,-y,-z
_cell_length_a                   9.3176(9)
_cell_length_b                   9.8539(9)
_cell_length_c                   10.8856(10)
_cell_angle_alpha                113.6640(10)
_cell_angle_beta                 94.6320(10)
_cell_angle_gamma                105.5170(10)
_cell_volume                     861.778
loop_
_atom_site_label
_atom_site_type_symbol
_atom_site_fract_x
_atom_site_fract_y
_atom_site_fract_z
Ag1 Ag 0.084241(15) -0.002311(15) 0.187316(15)
O1 O -0.01835(18) 0.14766(16) 0.07432(16)
N1 N 0.33605(16) 0.06871(16) 0.20396(14)
C1 C 0.41791(19) 0.21670(19) 0.24733(17)
H1 H 0.3697 0.2937 0.2834
O2 O 0.14502(19) 0.35738(18) 0.23267(16)
N2 N 0.92221(15) 0.93557(16) 0.31008(14)
C2 C 0.40565(18) -0.04351(19) 0.15358(16)
O3 O 0.0981(2) 0.3320(2) 0.0256(2)
N3 N 0.07664(18) 0.28194(17) 0.11169(16)
C3 C 0.3195(2) -0.20258(19) 0.10873(17)
H2 H 0.2147 -0.2311 0.1121
C4 C 0.3869(2) -0.3159(2) 0.06028(19)
H3 H 0.3292 -0.4226 0.0326
C5 C 0.5409(2) -0.2753(2) 0.05124(19)
H4 H 0.5860 -0.3552 0.0163
C6 C 0.6265(2) -0.1225(2) 0.09205(17)
H5 H 0.7300 -0.0969 0.0840
C7 C 0.56136(18) -0.00188(19) 0.14642(16)
C8 C 0.64495(18) 0.1578(2) 0.19149(16)
H6 H 0.7490 0.1888 0.1861
C9 C 0.57427(19) 0.26817(19) 0.24329(17)
C10 C 0.6471(2) 0.4324(2) 0.28605(18)
C11 C 0.69609(19) 0.5696(2) 0.31651(17)
C12 C 0.75106(18) 0.73266(19) 0.34937(17)
C13 C 0.86652(18) 0.78788(19) 0.28672(17)
H7 H 0.9055 0.7142 0.2247
C14 C 0.86887(18) 1.04429(19) 0.40139(16)
C15 C 0.93133(19) 1.2040(2) 0.43109(17)
H8 H 1.0087 1.2358 0.3871
C16 C 0.8802(2) 1.3130(2) 0.52328(19)
H9 H 0.9237 1.4205 0.5437
C17 C 0.7644(2) 1.2683(2) 0.58829(19)
H10 H 0.7304 1.3455 0.6521
C18 C 0.7009(2) 1.1144(2) 0.55996(18)
H11 H 0.6216 1.0848 0.6031
C19 C 0.75220(19) 0.99844(19) 0.46688(16)
C20 C 0.69382(19) 0.8389(2) 0.43800(17)
H12 H 0.6150 0.8049 0.4798
Ag1A Ag -0.084241(15) 0.002311(15) -0.187316(15)
Ag1_2 Ag 1.084241(15) 0.997689(15) 0.187316(15)
O1A O 0.01835(18) -0.14766(16) -0.07432(16)
N2_2 N -0.07779(15) -0.06443(16) 0.31008(14)
loop_
_geom_bond_atom_site_label_1
_geom_bond_atom_site_label_2
_geom_bond_site_symmetry_1
_geom_bond_site_symmetry_2
Ag1 O1 1_555 1_555
O1 N3 1_555 1_555
N1 Ag1 1_555 1_555
C1 N1 1_555 1_555
H1 C1 1_555 1_555
O2 N3 1_555 1_555
N2 C13 1_555 1_555
C2 N1 1_555 1_555
O3 N3 1_555 1_555
C3 C2 1_555 1_555
H2 C3 1_555 1_555
C4 C3 1_555 1_555
H3 C4 1_555 1_555
C5 C4 1_555 1_555
H4 C5 1_555 1_555
C6 C5 1_555 1_555
H5 C6 1_555 1_555
C7 C2 1_555 1_555
C8 C7 1_555 1_555
H6 C8 1_555 1_555
C9 C1 1_555 1_555
C10 C9 1_555 1_555
C11 C10 1_555 1_555
C12 C11 1_555 1_555
C13 C12 1_555 1_555
H7 C13 1_555 1_555
C14 N2 1_555 1_555
C15 C14 1_555 1_555
H8 C15 1_555 1_555
C16 C15 1_555 1_555
H9 C16 1_555 1_555
C17 C16 1_555 1_555
H10 C17 1_555 1_555
C18 C17 1_555 1_555
H11 C18 1_555 1_555
C19 C14 1_555 1_555
C20 C12 1_555 1_555
H12 C20 1_555 1_555
Ag1A O1 1_555 1_555
Ag1_2 N2 1_555 1_555
O1A Ag1 1_555 1_555
N2_2 Ag1 1_555 1_555
C6 C7 1_555 1_555
C8 C9 1_555 1_555
C18 C19 1_555 1_555
C19 C20 1_555 1_555
Ag1A O1A 1_555 1_555

#END
