
#######################################################################
#
#                 Cambridge Crystallographic Data Centre
#                                CCDC 
#
#######################################################################
#
# If this CIF has been generated from an entry in the Cambridge 
# Structural Database, then it will include bibliographic, chemical, 
# crystal, experimental, refinement or atomic coordinate data resulting 
# from the CCDC's data processing and validation procedures.
#
#######################################################################

data_EBEQEJ
_symmetry_cell_setting           orthorhombic
_symmetry_space_group_name_H-M   'C c c a'
_symmetry_Int_Tables_number      68
_space_group_name_Hall           '-C 2b 2bc'
loop_
_symmetry_equiv_pos_site_id
_symmetry_equiv_pos_as_xyz
1 x,y,z
2 1/2-x,-y,z
3 -x,y,1/2-z
4 1/2+x,-y,1/2-z
5 1/2+x,1/2+y,z
6 -x,1/2-y,z
7 1/2-x,1/2+y,1/2-z
8 x,1/2-y,1/2-z
9 -x,-y,-z
10 1/2+x,y,-z
11 x,-y,1/2+z
12 1/2-x,y,1/2+z
13 1/2-x,1/2-y,-z
14 x,1/2+y,-z
15 1/2+x,1/2-y,1/2+z
16 -x,1/2+y,1/2+z
_cell_length_a                   10.4135(5)
_cell_length_b                   25.2037(13)
_cell_length_c                   19.5818(11)
_cell_angle_alpha                90
_cell_angle_beta                 90
_cell_angle_gamma                90
_cell_volume                     5139.41
loop_
_atom_site_label
_atom_site_type_symbol
_atom_site_fract_x
_atom_site_fract_y
_atom_site_fract_z
Cu1 Cu 0.5000 -0.2500 0.2500
C1 C 0.2607(2) -0.28141(10) 0.17894(13)
H1 H 0.2568 -0.3071 0.2130
C2 C 0.1627(2) -0.27798(11) 0.13207(14)
H2 H 0.0936 -0.3013 0.1346
C3 C 0.1665(2) -0.24013(10) 0.08140(14)
H3 H 0.1008 -0.2378 0.0493
C4 C 0.2700(2) -0.20548(9) 0.07900(12)
C5 C 0.3664(2) -0.21159(9) 0.12723(12)
H4 H 0.4371 -0.1891 0.1253
C6 C 0.1911(2) -0.14625(10) -0.01181(13)
C7 C 0.1470(3) -0.08446(11) -0.09830(15)
H5 H 0.0771 -0.0681 -0.0733
H6 H 0.1114 -0.1119 -0.1274
C8 C 0.2142(3) -0.04391(11) -0.14056(14)
H7 H 0.2902 -0.0595 -0.1611
H8 H 0.1580 -0.0321 -0.1770
N1 N 0.36218(18) -0.24835(8) 0.17644(10)
N2 N 0.28417(19) -0.16505(8) 0.03024(11)
H12 H 0.3590 -0.1508 0.0267
O1 O 0.08144(17) -0.16193(8) -0.01423(10)
O2 O 0.23869(17) -0.10750(7) -0.05096(9)
O3 O 0.2500 0.0000 -0.09949(13)
O4 O 0.5000 -0.34668(10) 0.2500
H13 H 0.4378 -0.3575 0.2715
Cu1A Cu 0.0000 0.2500 0.2500
Cu1A_2 Cu 1.0000 0.2500 0.2500
C1A C 0.2393(2) 0.28141(10) 0.17894(13)
C1B C 0.7393(2) -0.28141(10) 0.32106(13)
C1C C 0.7607(2) 0.28141(10) 0.32106(13)
H1A H 0.2432 0.3071 0.2130
H1B H 0.7432 -0.3071 0.2870
H1C H 0.7568 0.3071 0.2870
C2A C 0.3373(2) 0.27798(11) 0.13207(14)
C2B C 0.8373(2) -0.27798(11) 0.36793(14)
C2C C 0.6627(2) 0.27798(11) 0.36793(14)
H2A H 0.4064 0.3013 0.1346
H2B H 0.9064 -0.3013 0.3654
H2C H 0.5936 0.3013 0.3654
C3A C 0.3335(2) 0.24013(10) 0.08140(14)
C3B C 0.8335(2) -0.24013(10) 0.41860(14)
C3C C 0.6665(2) 0.24013(10) 0.41860(14)
H3A H 0.3992 0.2378 0.0493
H3B H 0.8992 -0.2378 0.4507
H3C H 0.6008 0.2378 0.4507
C4A C 0.2300(2) 0.20548(9) 0.07900(12)
C4B C 0.7300(2) -0.20548(9) 0.42100(12)
C4C C 0.7700(2) 0.20548(9) 0.42100(12)
C5A C 0.1336(2) 0.21159(9) 0.12723(12)
C5B C 0.6336(2) -0.21159(9) 0.37277(12)
C5C C 0.8664(2) 0.21159(9) 0.37277(12)
H4A H 0.0629 0.1891 0.1253
H4B H 0.5629 -0.1891 0.3747
H4C H 0.9371 0.1891 0.3747
C6A C 0.3089(2) 0.14625(10) -0.01181(13)
C6B C 0.8089(2) -0.14625(10) 0.51181(13)
C6C C 0.6911(2) 0.14625(10) 0.51181(13)
C7A C 0.3530(3) 0.08446(11) -0.09830(15)
C7B C 0.8530(3) -0.08446(11) 0.59830(15)
C7C C 0.6470(3) 0.08446(11) 0.59830(15)
H5A H 0.4229 0.0681 -0.0733
H5B H 0.9229 -0.0681 0.5733
H5C H 0.5771 0.0681 0.5733
H6A H 0.3886 0.1119 -0.1274
H6B H 0.8886 -0.1119 0.6274
H6C H 0.6114 0.1119 0.6274
C8A C 0.2858(3) 0.04391(11) -0.14056(14)
C8B C 0.7858(3) -0.04391(11) 0.64056(14)
C8C C 0.7142(3) 0.04391(11) 0.64056(14)
H7A H 0.2098 0.0595 -0.1611
H7B H 0.7098 -0.0595 0.6611
H7C H 0.7902 0.0595 0.6611
H8A H 0.3420 0.0321 -0.1770
H8B H 0.8420 -0.0321 0.6770
H8C H 0.6580 0.0321 0.6770
N1A N 0.13782(18) 0.24835(8) 0.17644(10)
N1B N 0.63782(18) -0.24835(8) 0.32356(10)
N1C N 0.86218(18) 0.24835(8) 0.32356(10)
N1E N 0.63782(18) -0.25165(8) 0.17644(10)
N1G N 0.36218(18) -0.25165(8) 0.32356(10)
N2A N 0.21583(19) 0.16505(8) 0.03024(11)
N2B N 0.71583(19) -0.16505(8) 0.46976(11)
N2C N 0.78417(19) 0.16505(8) 0.46976(11)
H12A H 0.1410 0.1508 0.0267
H12B H 0.6410 -0.1508 0.4733
H12C H 0.8590 0.1508 0.4733
O1A O 0.41856(17) 0.16193(8) -0.01423(10)
O1B O 0.91856(17) -0.16193(8) 0.51423(10)
O1C O 0.58144(17) 0.16193(8) 0.51423(10)
O2A O 0.26131(17) 0.10750(7) -0.05096(9)
O2B O 0.76131(17) -0.10750(7) 0.55096(9)
O2C O 0.73869(17) 0.10750(7) 0.55096(9)
O3B O 0.7500 0.0000 0.59949(13)
O4E O 0.5000 -0.15332(10) 0.2500
H13B H 0.5622 -0.3575 0.2285
H13E H 0.5622 -0.1425 0.2715
H13G H 0.4378 -0.1425 0.2285
C9 C 0.5832(6) 0.4655(3) 0.0796(2)
H9 H 0.6220 0.4874 0.0451
H10 H 0.4951 0.4590 0.0679
H11 H 0.6285 0.4324 0.0825
O8 O 0.5893(4) 0.49194(15) 0.14369(19)
H16 H 0.5828 0.4701 0.1746
N3 N 0.5000 0.3845(2) 0.2500
O5 O 0.5000 0.4346(2) 0.2500
O6 O 0.4224(4) 0.36181(18) 0.2846(3)
O6B O 0.5776(4) 0.36181(18) 0.2154(3)
O7 O 0.8310(4) 0.40779(14) 0.1804(2)
H14 H 0.844(4) 0.4413(8) 0.178(2)
H15 H 0.759(4) 0.401(2) 0.199(3)
loop_
_geom_bond_atom_site_label_1
_geom_bond_atom_site_label_2
_geom_bond_site_symmetry_1
_geom_bond_site_symmetry_2
Cu1 N1 1_555 1_555
C1 H1 1_555 1_555
C2 C1 1_555 1_555
H2 C2 1_555 1_555
C3 C2 1_555 1_555
H3 C3 1_555 1_555
C4 C3 1_555 1_555
C5 C4 1_555 1_555
H4 C5 1_555 1_555
C6 N2 1_555 1_555
C7 H5 1_555 1_555
H6 C7 1_555 1_555
C8 C7 1_555 1_555
H7 C8 1_555 1_555
H8 C8 1_555 1_555
C9 H9 1_555 1_555
H10 C9 1_555 1_555
H11 C9 1_555 1_555
N1 C1 1_555 1_555
N2 C4 1_555 1_555
H12 N2 1_555 1_555
N3 O5 1_555 1_555
O1 C6 1_555 1_555
O2 C6 1_555 1_555
O3 C8 1_555 1_555
O4 Cu1 1_555 1_555
H13 O4 1_555 1_555
O6 N3 1_555 1_555
O7 H14 1_555 1_555
H15 O7 1_555 1_555
O8 C9 1_555 1_555
H16 O8 1_555 1_555
Cu1A N1A 1_555 1_555
Cu1A_2 N1C 1_555 1_555
C1A H1A 1_555 1_555
C1B H1B 1_555 1_555
C1C H1C 1_555 1_555
C2A C1A 1_555 1_555
C2B C1B 1_555 1_555
C2C C1C 1_555 1_555
H2A C2A 1_555 1_555
H2B C2B 1_555 1_555
H2C C2C 1_555 1_555
C3A C2A 1_555 1_555
C3B C2B 1_555 1_555
C3C C2C 1_555 1_555
H3A C3A 1_555 1_555
H3B C3B 1_555 1_555
H3C C3C 1_555 1_555
C4A C3A 1_555 1_555
C4B C3B 1_555 1_555
C4C C3C 1_555 1_555
C5A C4A 1_555 1_555
C5B C4B 1_555 1_555
C5C C4C 1_555 1_555
H4A C5A 1_555 1_555
H4B C5B 1_555 1_555
H4C C5C 1_555 1_555
C6A N2A 1_555 1_555
C6B N2B 1_555 1_555
C6C N2C 1_555 1_555
C7A H5A 1_555 1_555
C7B H5B 1_555 1_555
C7C H5C 1_555 1_555
H6A C7A 1_555 1_555
H6B C7B 1_555 1_555
H6C C7C 1_555 1_555
C8A O3 1_555 1_555
C8B C7B 1_555 1_555
C8C C7C 1_555 1_555
H7A C8A 1_555 1_555
H7B C8B 1_555 1_555
H7C C8C 1_555 1_555
H8A C8A 1_555 1_555
H8B C8B 1_555 1_555
H8C C8C 1_555 1_555
N1A C1A 1_555 1_555
N1B Cu1 1_555 1_555
N1C C1C 1_555 1_555
N1E Cu1 1_555 1_555
N1G Cu1 1_555 1_555
N2A C4A 1_555 1_555
N2B C4B 1_555 1_555
N2C C4C 1_555 1_555
H12A N2A 1_555 1_555
H12B N2B 1_555 1_555
H12C N2C 1_555 1_555
O1A C6A 1_555 1_555
O1B C6B 1_555 1_555
O1C C6C 1_555 1_555
O2A C6A 1_555 1_555
O2B C6B 1_555 1_555
O2C C6C 1_555 1_555
O3B C8B 1_555 1_555
O4E Cu1 1_555 1_555
H13B O4 1_555 1_555
H13E O4E 1_555 1_555
H13G O4E 1_555 1_555
O6B N3 1_555 1_555
C5 N1 1_555 1_555
C7 O2 1_555 1_555
C1B N1B 1_555 1_555
C5A N1A 1_555 1_555
C5B N1B 1_555 1_555
C5C N1C 1_555 1_555
C7A C8A 1_555 1_555
C7A O2A 1_555 1_555
C7B O2B 1_555 1_555
C7C O2C 1_555 1_555
C8C O3B 1_555 1_555

#END
