
#######################################################################
#
#                 Cambridge Crystallographic Data Centre
#                                CCDC 
#
#######################################################################
#
# If this CIF has been generated from an entry in the Cambridge 
# Structural Database, then it will include bibliographic, chemical, 
# crystal, experimental, refinement or atomic coordinate data resulting 
# from the CCDC's data processing and validation procedures.
#
#######################################################################

data_EBEQIL
_symmetry_cell_setting           monoclinic
_symmetry_space_group_name_H-M   'P 21/c'
_symmetry_Int_Tables_number      14
_space_group_name_Hall           '-P 2ybc'
loop_
_symmetry_equiv_pos_site_id
_symmetry_equiv_pos_as_xyz
1 x,y,z
2 -x,1/2+y,1/2-z
3 -x,-y,-z
4 x,1/2-y,1/2+z
_cell_length_a                   10.846(3)
_cell_length_b                   19.552(4)
_cell_length_c                   9.464(3)
_cell_angle_alpha                90
_cell_angle_beta                 102.02(3)
_cell_angle_gamma                90
_cell_volume                     1962.94
loop_
_atom_site_label
_atom_site_type_symbol
_atom_site_fract_x
_atom_site_fract_y
_atom_site_fract_z
Nd1 Nd 0.00198(2) 0.004494(9) 0.21956(2)
O1 O -0.0748(3) -0.0626(2) 0.0039(3)
O2 O -0.1252(3) -0.1156(2) -0.2033(3)
O3 O 0.1842(3) -0.0545(2) 0.1541(3)
O4 O 0.1708(3) -0.0741(2) -0.0807(3)
O5 O -0.0658(3) 0.0760(1) 0.3981(3)
O6 O -0.0273(3) 0.0976(2) 0.6333(3)
O7 O 0.1957(3) 0.0175(2) 0.4198(3)
O8 O -0.2112(3) -0.0406(2) 0.2436(3)
N1 N -0.3429(4) -0.2010(2) -0.2460(5)
N2 N 0.4120(4) -0.0776(2) 0.3450(4)
N3 N -0.2388(3) 0.1838(2) 0.2617(4)
C1 C -0.1341(4) -0.1091(2) -0.0740(4)
C2 C -0.2194(5) -0.1571(2) -0.0147(5)
C3 C -0.3488(5) -0.1638(2) -0.1117(7)
C4 C 0.2306(4) -0.0693(2) 0.0479(4)
C5 C 0.3714(4) -0.0809(2) 0.0775(4)
C6 C 0.4221(5) -0.1178(3) 0.2170(5)
C7 C -0.0507(4) 0.1160(2) 0.5040(4)
C8 C -0.0656(4) 0.1920(2) 0.4760(4)
C9 C -0.1119(4) 0.2124(2) 0.3207(5)
H1 H -0.4199(7) -0.204(2) -0.301(2)
H2 H -0.313(4) -0.2429(8) -0.2243(5)
H3 H -0.293(3) -0.1787(12) -0.293(2)
H4 H 0.440(3) -0.1023(7) 0.4242(4)
H5 H 0.3317(6) -0.066(2) 0.340(2)
H6 H 0.458(3) -0.0398(9) 0.348(2)
H7 H -0.2320(5) 0.1396(4) 0.243(3)
H8 H -0.2732(14) 0.2058(12) 0.181(2)
H9 H -0.2872(10) 0.189(2) 0.326(2)
H10 H -0.2286(5) -0.1407(2) 0.0793(5)
H11 H -0.1803(5) -0.2019(2) -0.0014(5)
H12 H -0.4042(5) -0.1881(2) -0.0605(7)
H13 H -0.3839(5) -0.1187(2) -0.1357(7)
H14 H 0.3919(4) -0.1072(2) -0.0015(4)
H15 H 0.4133(4) -0.0370(2) 0.0796(4)
H16 H 0.3764(5) -0.1604(3) 0.2180(5)
H17 H 0.5100(5) -0.1290(3) 0.2218(5)
H18 H -0.1240(4) 0.2097(2) 0.5319(4)
H19 H 0.0152(4) 0.2138(2) 0.5115(4)
H20 H -0.1152(4) 0.2619(2) 0.3136(5)
H21 H -0.0532(4) 0.1960(2) 0.2637(5)
H22 H 0.2251 0.0589 0.4311
H23 H 0.2500 -0.0156 0.4688
H24 H -0.2002 -0.0643 0.3007
H25 H -0.2500 -0.0156 0.2813
O1B O 0.0748(3) 0.0626(2) -0.0039(3)
O2B O 0.1252(3) 0.1156(2) 0.2033(3)
O4B O -0.1708(3) 0.0741(2) 0.0807(3)
O6B O 0.0273(3) -0.0976(2) 0.3667(3)
Nd1B Nd -0.00198(2) -0.004494(9) -0.21956(2)
Nd1B_2 Nd -0.00198(2) -0.004494(9) 0.78044(2)
Cl1 Cl 0.60346(10) 0.26749(5) -0.00681(11)
Cl2 Cl 0.57746(12) 0.05425(6) 0.31152(14)
Cl3 Cl 0.27625(11) 0.33876(5) 0.06588(13)
loop_
_geom_bond_atom_site_label_1
_geom_bond_atom_site_label_2
_geom_bond_site_symmetry_1
_geom_bond_site_symmetry_2
Nd1 O1 1_555 1_555
O1 C1 1_555 1_555
O2 C1 1_555 1_555
O3 Nd1 1_555 1_555
O4 C4 1_555 1_555
O5 Nd1 1_555 1_555
O6 C7 1_555 1_555
O7 Nd1 1_555 1_555
O8 Nd1 1_555 1_555
N1 C3 1_555 1_555
N2 C6 1_555 1_555
N3 C9 1_555 1_555
C1 C2 1_555 1_555
C2 C3 1_555 1_555
C3 H12 1_555 1_555
C4 O3 1_555 1_555
C5 C4 1_555 1_555
C6 C5 1_555 1_555
C7 O5 1_555 1_555
C8 C7 1_555 1_555
C9 C8 1_555 1_555
H1 N1 1_555 1_555
H2 N1 1_555 1_555
H3 N1 1_555 1_555
H4 N2 1_555 1_555
H5 N2 1_555 1_555
H6 N2 1_555 1_555
H7 N3 1_555 1_555
H8 N3 1_555 1_555
H9 N3 1_555 1_555
H10 C2 1_555 1_555
H11 C2 1_555 1_555
H13 C3 1_555 1_555
H14 C5 1_555 1_555
H15 C5 1_555 1_555
H16 C6 1_555 1_555
H17 C6 1_555 1_555
H18 C8 1_555 1_555
H19 C8 1_555 1_555
H20 C9 1_555 1_555
H21 C9 1_555 1_555
H22 O7 1_555 1_555
H23 O7 1_555 1_555
H24 O8 1_555 1_555
H25 O8 1_555 1_555
O1B Nd1 1_555 1_555
O2B Nd1 1_555 1_555
O4B Nd1 1_555 1_555
O6B Nd1 1_555 1_555
Nd1B O1 1_555 1_555
Nd1B_2 O6 1_555 1_555
O2 Nd1B 1_555 1_555
O4 Nd1B 1_555 1_555
O1B Nd1B 1_555 1_555

#END
