
#######################################################################
#
#                 Cambridge Crystallographic Data Centre
#                                CCDC 
#
#######################################################################
#
# If this CIF has been generated from an entry in the Cambridge 
# Structural Database, then it will include bibliographic, chemical, 
# crystal, experimental, refinement or atomic coordinate data resulting 
# from the CCDC's data processing and validation procedures.
#
#######################################################################

data_EBEREK
_symmetry_cell_setting           monoclinic
_symmetry_space_group_name_H-M   'C 2/c'
_symmetry_Int_Tables_number      15
_space_group_name_Hall           '-C 2yn'
loop_
_symmetry_equiv_pos_site_id
_symmetry_equiv_pos_as_xyz
1 x,y,z
2 -x,y,1/2-z
3 1/2+x,1/2+y,z
4 1/2-x,1/2+y,1/2-z
5 -x,-y,-z
6 x,-y,1/2+z
7 1/2-x,1/2-y,-z
8 1/2+x,1/2-y,1/2+z
_cell_length_a                   12.136(10)
_cell_length_b                   10.495(8)
_cell_length_c                   16.018(13)
_cell_angle_alpha                90
_cell_angle_beta                 98.568(9)
_cell_angle_gamma                90
_cell_volume                     2017.4
loop_
_atom_site_label
_atom_site_type_symbol
_atom_site_fract_x
_atom_site_fract_y
_atom_site_fract_z
Br1 Br 0.33397(3) 1.18031(3) 0.742399(19)
Zn1 Zn 0.5000 1.06047(4) 0.7500
O1 O 0.1833(2) 1.0158(3) 0.50876(15)
O2 O 0.13354(18) 0.9275(2) 0.38170(12)
N1 N 0.4891(2) 0.9427(2) 0.64699(14)
N2 N 0.2966(2) 0.8777(2) 0.45259(14)
H1 H 0.2990 0.8302 0.4092
C1 C 0.3972(2) 0.9441(3) 0.58960(17)
H2 H 0.3364 0.9924 0.5999
C2 C 0.3900(2) 0.8752(3) 0.51483(16)
C3 C 0.4809(3) 0.8026(3) 0.5022(2)
H3 H 0.4791 0.7556 0.4527
C4 C 0.5738(3) 0.7996(3) 0.5623(2)
H4 H 0.6346 0.7493 0.5547
C5 C 0.5759(3) 0.8717(3) 0.63392(19)
H5 H 0.6395 0.8710 0.6743
C6 C 0.2022(3) 0.9472(3) 0.45310(17)
C7 C 0.0357(3) 1.0093(4) 0.36867(19)
H6 H 0.0582 1.0979 0.3674
H7 H -0.0075 0.9983 0.4145
C8 C -0.0330(3) 0.9739(3) 0.28682(18)
H8 H -0.0944 1.0334 0.2749
H9 H -0.0642 0.8897 0.2921
Br1A Br 0.66603(3) 1.18031(3) 0.757601(19)
Zn1_2 Zn -0.5000 1.06047(4) -0.2500
O1A O -0.1833(2) 1.0158(3) -0.00876(15)
O2A O -0.13354(18) 0.9275(2) 0.11830(12)
N1A N -0.4891(2) 0.9427(2) -0.14699(14)
N1A_2 N 0.5109(2) 0.9427(2) 0.85301(14)
N2A N -0.2966(2) 0.8777(2) 0.04741(14)
H1A H -0.2990 0.8302 0.0908
C1A C -0.3972(2) 0.9441(3) -0.08960(17)
H2A H -0.3364 0.9924 -0.0999
C2A C -0.3900(2) 0.8752(3) -0.01483(16)
C3A C -0.4809(3) 0.8026(3) -0.0022(2)
H3A H -0.4791 0.7556 0.0473
C4A C -0.5738(3) 0.7996(3) -0.0623(2)
H4A H -0.6346 0.7493 -0.0547
C5A C -0.5759(3) 0.8717(3) -0.13392(19)
H5A H -0.6395 0.8710 -0.1743
C6A C -0.2022(3) 0.9472(3) 0.04690(17)
C7A C -0.0357(3) 1.0093(4) 0.13133(19)
H6A H -0.0582 1.0979 0.1326
H7A H 0.0075 0.9983 0.0855
C8A C 0.0330(3) 0.9739(3) 0.21318(18)
H8A H 0.0944 1.0334 0.2251
H9A H 0.0642 0.8897 0.2079
loop_
_geom_bond_atom_site_label_1
_geom_bond_atom_site_label_2
_geom_bond_site_symmetry_1
_geom_bond_site_symmetry_2
Br1 Zn1 1_555 1_555
Zn1 N1 1_555 1_555
O1 C6 1_555 1_555
O2 C6 1_555 1_555
N1 C1 1_555 1_555
N2 H1 1_555 1_555
C1 H2 1_555 1_555
C2 N2 1_555 1_555
C3 C2 1_555 1_555
H3 C3 1_555 1_555
C4 C3 1_555 1_555
H4 C4 1_555 1_555
C5 N1 1_555 1_555
H5 C5 1_555 1_555
C6 N2 1_555 1_555
C7 O2 1_555 1_555
H6 C7 1_555 1_555
H7 C7 1_555 1_555
C8 C7 1_555 1_555
H8 C8 1_555 1_555
H9 C8 1_555 1_555
Br1A Zn1 1_555 1_555
Zn1_2 N1A 1_555 1_555
O1A C6A 1_555 1_555
O2A C6A 1_555 1_555
N1A C1A 1_555 1_555
N1A_2 Zn1 1_555 1_555
N2A H1A 1_555 1_555
C1A H2A 1_555 1_555
C2A N2A 1_555 1_555
C3A C2A 1_555 1_555
H3A C3A 1_555 1_555
C4A C3A 1_555 1_555
H4A C4A 1_555 1_555
C5A N1A 1_555 1_555
H5A C5A 1_555 1_555
C6A N2A 1_555 1_555
C7A O2A 1_555 1_555
H6A C7A 1_555 1_555
H7A C7A 1_555 1_555
C8A C8 1_555 1_555
H8A C8A 1_555 1_555
H9A C8A 1_555 1_555
C1 C2 1_555 1_555
C4 C5 1_555 1_555
C1A C2A 1_555 1_555
C4A C5A 1_555 1_555
C7A C8A 1_555 1_555

#END
