
#######################################################################
#
#                 Cambridge Crystallographic Data Centre
#                                CCDC 
#
#######################################################################
#
# If this CIF has been generated from an entry in the Cambridge 
# Structural Database, then it will include bibliographic, chemical, 
# crystal, experimental, refinement or atomic coordinate data resulting 
# from the CCDC's data processing and validation procedures.
#
#######################################################################

data_EBETEM
_symmetry_cell_setting           monoclinic
_symmetry_space_group_name_H-M   'P 21/n'
_symmetry_Int_Tables_number      14
_space_group_name_Hall           '-P 2yn'
loop_
_symmetry_equiv_pos_site_id
_symmetry_equiv_pos_as_xyz
1 x,y,z
2 1/2-x,1/2+y,1/2-z
3 -x,-y,-z
4 1/2+x,1/2-y,1/2+z
_cell_length_a                   13.2081(6)
_cell_length_b                   22.0730(10)
_cell_length_c                   18.8381(9)
_cell_angle_alpha                90
_cell_angle_beta                 93.2420(10)
_cell_angle_gamma                90
_cell_volume                     5483.32
loop_
_atom_site_label
_atom_site_type_symbol
_atom_site_fract_x
_atom_site_fract_y
_atom_site_fract_z
C14 C 0.7132(3) 0.02978(16) 0.55031(18)
C15 C 0.8104(3) 0.0220(2) 0.5287(2)
H11 H 0.8228 -0.0037 0.4898
C16 C 0.8905(3) 0.0525(2) 0.5651(2)
H12 H 0.9566 0.0473 0.5485
N6 N 0.8807(2) 0.08768(17) 0.62029(18)
C17 C 0.7854(3) 0.0937(2) 0.6422(2)
H13 H 0.7760 0.1186 0.6825
C18 C 0.7013(3) 0.06627(16) 0.61031(18)
H14 H 0.6363 0.0719 0.6285
C19 C 0.6264(3) 0.00273(16) 0.51116(19)
H15 H 0.6386 -0.0257 0.4748
N7 N 0.5356(2) 0.01533(14) 0.52327(15)
C14B C 0.2868(3) -0.02978(16) 0.44969(18)
C15B C 0.1896(3) -0.0220(2) 0.4713(2)
H11B H 0.1772 0.0037 0.5102
C16B C 0.1095(3) -0.0525(2) 0.4349(2)
H12B H 0.0434 -0.0473 0.4515
N6B N 0.1193(2) -0.08768(17) 0.37971(18)
C17B C 0.2146(3) -0.0937(2) 0.3578(2)
H13B H 0.2240 -0.1186 0.3175
C18B C 0.2987(3) -0.06627(16) 0.38969(18)
H14B H 0.3637 -0.0719 0.3715
C19B C 0.3736(3) -0.00273(16) 0.48884(19)
H15B H 0.3614 0.0257 0.5252
N7B N 0.4644(2) -0.01533(14) 0.47673(15)
Fe2 Fe 0.41082(3) 0.232688(17) 0.46633(2)
N8 N 0.27128(17) 0.26291(10) 0.47435(12)
C20 C 0.2219(2) 0.30667(13) 0.43868(17)
H16 H 0.2577 0.3311 0.4070
C21 C 0.1188(2) 0.31804(14) 0.44608(18)
H17 H 0.0865 0.3504 0.4204
C22 C 0.0646(3) 0.28338(15) 0.48960(18)
H18 H -0.0057 0.2907 0.4937
C23 C 0.0660(2) 0.19595(16) 0.57624(19)
H19 H -0.0049 0.1993 0.5816
C24 C 0.1194(3) 0.15308(16) 0.61361(18)
H20 H 0.0853 0.1272 0.6448
C25 C 0.2886(3) 0.10485(15) 0.64633(17)
H21 H 0.2603 0.0785 0.6798
C26 C 0.3900(3) 0.10335(14) 0.63569(17)
H22 H 0.4333 0.0769 0.6632
C27 C 0.4302(2) 0.14045(13) 0.58465(16)
H23 H 0.5006 0.1376 0.5772
N9 N 0.37414(17) 0.18004(10) 0.54550(12)
C28 C 0.2174(2) 0.22893(12) 0.51990(15)
C29 C 0.1136(2) 0.23641(14) 0.52877(16)
C30 C 0.2268(2) 0.14600(14) 0.60698(17)
C31 C 0.2738(2) 0.18334(13) 0.55880(15)
N10 N 0.44243(18) 0.29145(10) 0.39144(13)
C32 C 0.4284(2) 0.28707(13) 0.32096(16)
H24 H 0.3972 0.2515 0.3016
C33 C 0.4573(2) 0.33219(14) 0.27435(17)
H25 H 0.4456 0.3269 0.2245
C34 C 0.5027(2) 0.38419(15) 0.30049(19)
H26 H 0.5230 0.4150 0.2691
C35 C 0.5650(3) 0.44285(14) 0.4094(2)
H27 H 0.5882 0.4753 0.3815
C36 C 0.5760(3) 0.44634(14) 0.4812(2)
H28 H 0.6070 0.4812 0.5025
C37 C 0.5494(2) 0.39951(15) 0.60107(18)
H29 H 0.5767 0.4338 0.6258
C38 C 0.5166(2) 0.35018(14) 0.63802(18)
H30 H 0.5204 0.3502 0.6885
C39 C 0.4776(2) 0.30013(13) 0.60051(16)
H31 H 0.4570 0.2660 0.6269
N11 N 0.46757(17) 0.29741(10) 0.52970(13)
C40 C 0.4872(2) 0.34318(12) 0.41802(16)
C41 C 0.5188(2) 0.39112(13) 0.37483(18)
C42 C 0.5420(2) 0.39859(13) 0.52590(18)
C43 C 0.4995(2) 0.34687(13) 0.49317(16)
N12 N 0.36284(19) 0.16915(11) 0.39715(13)
C44 C 0.2693(3) 0.15575(15) 0.37170(17)
H32 H 0.2140 0.1789 0.3871
C45 C 0.2498(3) 0.10843(16) 0.32271(19)
H33 H 0.1821 0.0995 0.3066
C46 C 0.3277(3) 0.07547(16) 0.29842(19)
H34 H 0.3147 0.0443 0.2643
C47 C 0.5159(3) 0.05698(15) 0.30281(19)
H35 H 0.5083 0.0253 0.2688
C48 C 0.6097(3) 0.07105(16) 0.3292(2)
H36 H 0.6666 0.0499 0.3130
C49 C 0.7188(3) 0.13461(15) 0.41407(19)
H37 H 0.7791 0.1157 0.4001
C50 C 0.7229(3) 0.17821(15) 0.46561(19)
H38 H 0.7863 0.1889 0.4886
C51 C 0.6349(2) 0.20704(13) 0.48470(17)
H39 H 0.6396 0.2372 0.5207
N13 N 0.54378(18) 0.19376(10) 0.45416(13)
C52 C 0.4403(2) 0.13486(13) 0.37369(15)
C53 C 0.4268(3) 0.08787(14) 0.32400(17)
C54 C 0.6247(3) 0.11817(14) 0.38212(18)
C55 C 0.5387(2) 0.14926(12) 0.40345(16)
O1 O 0.5814(2) 0.09464(15) 0.75421(16)
H40 H 0.591(4) 0.1359(9) 0.753(3)
H41 H 0.641(2) 0.079(2) 0.772(3)
Fe1 Fe 0.5000 0.0000 1.0000
S1 S 0.78333(6) 0.04072(4) 0.85204(5)
N1 N 0.61485(17) 0.01031(10) 0.92756(12)
C1 C 0.6856(2) 0.02286(12) 0.89499(15)
C2 C 0.6831(2) 0.14912(13) 1.15865(16)
C3 C 0.7344(2) 0.10957(13) 1.11677(16)
H1 H 0.8063 0.1110 1.1167
C4 C 0.6810(2) 0.06811(14) 1.07522(16)
H2 H 0.7174 0.0411 1.0468
N2 N 0.57863(17) 0.06419(10) 1.07302(12)
C5 C 0.5294(2) 0.10217(13) 1.11487(15)
H3 H 0.4576 0.0994 1.1150
C6 C 0.5782(2) 0.14506(13) 1.15760(16)
H4 H 0.5406 0.1715 1.1859
C7 C 0.7393(2) 0.19481(14) 1.20083(17)
H5 H 0.8103 0.1989 1.1964
N3 N 0.6948(2) 0.22909(13) 1.24326(15)
N4 N 0.7629(2) 0.27100(14) 1.27629(16)
C8 C 0.7301(2) 0.29468(13) 1.33031(16)
H6 H 0.6659 0.2830 1.3461
C9 C 0.7912(2) 0.34104(12) 1.36985(16)
C10 C 0.8672(2) 0.37299(14) 1.33751(16)
H7 H 0.8815 0.3650 1.2895
C11 C 0.9209(2) 0.41613(13) 1.37618(15)
H8 H 0.9717 0.4381 1.3534
N5 N 0.90580(17) 0.42897(10) 1.44445(12)
C12 C 0.8327(2) 0.39803(13) 1.47494(16)
H9 H 0.8207 0.4063 1.5232
C13 C 0.7737(2) 0.35459(13) 1.43951(16)
H10 H 0.7217 0.3343 1.4629
Fe1A Fe 0.0000 -0.5000 0.5000
Fe1A_2 Fe 1.0000 0.5000 1.5000
S1B S 0.21667(6) -0.04072(4) 1.14796(5)
N1B N 0.38515(17) -0.01031(10) 1.07244(12)
C1B C 0.3144(2) -0.02286(12) 1.10501(15)
C2B C 0.3169(2) -0.14912(13) 0.84135(16)
C3B C 0.2656(2) -0.10957(13) 0.88323(16)
H1B H 0.1937 -0.1110 0.8833
C4B C 0.3190(2) -0.06811(14) 0.92478(16)
H2B H 0.2826 -0.0411 0.9532
N2B N 0.42137(17) -0.06419(10) 0.92698(12)
C5B C 0.4706(2) -0.10217(13) 0.88513(15)
H3B H 0.5424 -0.0994 0.8850
C6B C 0.4218(2) -0.14506(13) 0.84240(16)
H4B H 0.4594 -0.1715 0.8141
C7B C 0.2607(2) -0.19481(14) 0.79917(17)
H5B H 0.1897 -0.1989 0.8036
N3B N 0.3052(2) -0.22909(13) 0.75674(15)
N4B N 0.2371(2) -0.27100(14) 0.72371(16)
C8B C 0.2699(2) -0.29468(13) 0.66969(16)
H6B H 0.3341 -0.2830 0.6539
C9B C 0.2088(2) -0.34104(12) 0.63015(16)
C10B C 0.1328(2) -0.37299(14) 0.66249(16)
H7B H 0.1185 -0.3650 0.7105
C11B C 0.0791(2) -0.41613(13) 0.62382(15)
H8B H 0.0283 -0.4381 0.6466
N5B N 0.09420(17) -0.42897(10) 0.55555(12)
N5A N 0.59420(17) -0.07103(10) 1.05555(12)
N5C N 0.40580(17) 0.07103(10) 0.94445(12)
C12B C 0.1673(2) -0.39803(13) 0.52506(16)
H9B H 0.1793 -0.4063 0.4768
C13B C 0.2263(2) -0.35459(13) 0.56049(16)
H10B H 0.2783 -0.3343 0.5371
loop_
_geom_bond_atom_site_label_1
_geom_bond_atom_site_label_2
_geom_bond_site_symmetry_1
_geom_bond_site_symmetry_2
Fe1 N1 1_555 1_555
S1 C1 1_555 1_555
N1 C1 1_555 1_555
C2 C3 1_555 1_555
C3 H1 1_555 1_555
C4 C3 1_555 1_555
H2 C4 1_555 1_555
N2 Fe1 1_555 1_555
C5 N2 1_555 1_555
H3 C5 1_555 1_555
C6 C2 1_555 1_555
H4 C6 1_555 1_555
C7 C2 1_555 1_555
H5 C7 1_555 1_555
N3 C7 1_555 1_555
N4 N3 1_555 1_555
C8 N4 1_555 1_555
H6 C8 1_555 1_555
C9 C8 1_555 1_555
C10 C9 1_555 1_555
H7 C10 1_555 1_555
C11 C10 1_555 1_555
H8 C11 1_555 1_555
N5 C11 1_555 1_555
C12 N5 1_555 1_555
H9 C12 1_555 1_555
C13 C9 1_555 1_555
H10 C13 1_555 1_555
C14 C15 1_555 1_555
C15 H11 1_555 1_555
C16 C15 1_555 1_555
H12 C16 1_555 1_555
N6 C16 1_555 1_555
C17 N6 1_555 1_555
H13 C17 1_555 1_555
C18 C14 1_555 1_555
H14 C18 1_555 1_555
C19 C14 1_555 1_555
H15 C19 1_555 1_555
N7 C19 1_555 1_555
Fe2 N8 1_555 1_555
N8 C20 1_555 1_555
C20 H16 1_555 1_555
C21 C20 1_555 1_555
H17 C21 1_555 1_555
C22 C21 1_555 1_555
H18 C22 1_555 1_555
C23 H19 1_555 1_555
C24 C23 1_555 1_555
H20 C24 1_555 1_555
C25 H21 1_555 1_555
C26 C25 1_555 1_555
H22 C26 1_555 1_555
C27 C26 1_555 1_555
H23 C27 1_555 1_555
N9 Fe2 1_555 1_555
C28 N8 1_555 1_555
C29 C22 1_555 1_555
C30 C24 1_555 1_555
C31 N9 1_555 1_555
N10 Fe2 1_555 1_555
C32 N10 1_555 1_555
H24 C32 1_555 1_555
C33 C32 1_555 1_555
H25 C33 1_555 1_555
C34 C33 1_555 1_555
H26 C34 1_555 1_555
C35 H27 1_555 1_555
C36 C35 1_555 1_555
H28 C36 1_555 1_555
C37 H29 1_555 1_555
C38 C37 1_555 1_555
H30 C38 1_555 1_555
C39 C38 1_555 1_555
H31 C39 1_555 1_555
N11 Fe2 1_555 1_555
C40 N10 1_555 1_555
C41 C34 1_555 1_555
C42 C36 1_555 1_555
C43 N11 1_555 1_555
N12 Fe2 1_555 1_555
C44 N12 1_555 1_555
H32 C44 1_555 1_555
C45 C44 1_555 1_555
H33 C45 1_555 1_555
C46 C45 1_555 1_555
H34 C46 1_555 1_555
C47 H35 1_555 1_555
C48 C47 1_555 1_555
H36 C48 1_555 1_555
C49 H37 1_555 1_555
C50 C49 1_555 1_555
H38 C50 1_555 1_555
C51 C50 1_555 1_555
H39 C51 1_555 1_555
N13 Fe2 1_555 1_555
C52 N12 1_555 1_555
C53 C46 1_555 1_555
C54 C48 1_555 1_555
C55 N13 1_555 1_555
O1 H40 1_555 1_555
H41 O1 1_555 1_555
Fe1A N5B 1_555 1_555
Fe1A_2 N5 1_555 1_555
S1B C1B 1_555 1_555
N1B Fe1 1_555 1_555
C1B N1B 1_555 1_555
C2B C3B 1_555 1_555
C3B H1B 1_555 1_555
C4B C3B 1_555 1_555
H2B C4B 1_555 1_555
N2B Fe1 1_555 1_555
C5B N2B 1_555 1_555
H3B C5B 1_555 1_555
C6B C2B 1_555 1_555
H4B C6B 1_555 1_555
C7B C2B 1_555 1_555
H5B C7B 1_555 1_555
N3B C7B 1_555 1_555
N4B N3B 1_555 1_555
C8B N4B 1_555 1_555
H6B C8B 1_555 1_555
C9B C8B 1_555 1_555
C10B C9B 1_555 1_555
H7B C10B 1_555 1_555
C11B C10B 1_555 1_555
H8B C11B 1_555 1_555
N5B C11B 1_555 1_555
N5A Fe1 1_555 1_555
N5C Fe1 1_555 1_555
C12B N5B 1_555 1_555
H9B C12B 1_555 1_555
C13B C9B 1_555 1_555
H10B C13B 1_555 1_555
C14B C15B 1_555 1_555
C15B H11B 1_555 1_555
C16B C15B 1_555 1_555
H12B C16B 1_555 1_555
N6B C16B 1_555 1_555
C17B N6B 1_555 1_555
H13B C17B 1_555 1_555
C18B C14B 1_555 1_555
H14B C18B 1_555 1_555
C19B C14B 1_555 1_555
H15B C19B 1_555 1_555
N7B N7 1_555 1_555
C4 N2 1_555 1_555
C5 C6 1_555 1_555
C12 C13 1_555 1_555
C17 C18 1_555 1_555
C23 C29 1_555 1_555
C25 C30 1_555 1_555
C27 N9 1_555 1_555
C28 C29 1_555 1_555
C28 C31 1_555 1_555
C30 C31 1_555 1_555
C35 C41 1_555 1_555
C37 C42 1_555 1_555
C39 N11 1_555 1_555
C40 C41 1_555 1_555
C40 C43 1_555 1_555
C42 C43 1_555 1_555
C47 C53 1_555 1_555
C49 C54 1_555 1_555
C51 N13 1_555 1_555
C52 C53 1_555 1_555
C52 C55 1_555 1_555
C54 C55 1_555 1_555
C4B N2B 1_555 1_555
C5B C6B 1_555 1_555
C12B C13B 1_555 1_555
C17B C18B 1_555 1_555
C19B N7B 1_555 1_555

#END
