
#######################################################################
#
#                 Cambridge Crystallographic Data Centre
#                                CCDC 
#
#######################################################################
#
# If this CIF has been generated from an entry in the Cambridge 
# Structural Database, then it will include bibliographic, chemical, 
# crystal, experimental, refinement or atomic coordinate data resulting 
# from the CCDC's data processing and validation procedures.
#
#######################################################################

data_EBETUC
_symmetry_cell_setting           monoclinic
_symmetry_space_group_name_H-M   'P 21/n'
_symmetry_Int_Tables_number      14
_space_group_name_Hall           '-P 2yn'
loop_
_symmetry_equiv_pos_site_id
_symmetry_equiv_pos_as_xyz
1 x,y,z
2 1/2-x,1/2+y,1/2-z
3 -x,-y,-z
4 1/2+x,1/2-y,1/2+z
_cell_length_a                   9.1268(2)
_cell_length_b                   26.2489(7)
_cell_length_c                   15.3536(4)
_cell_angle_alpha                90
_cell_angle_beta                 91.4200(10)
_cell_angle_gamma                90
_cell_volume                     3677.11
loop_
_atom_site_label
_atom_site_type_symbol
_atom_site_fract_x
_atom_site_fract_y
_atom_site_fract_z
N2 N 0.3314(14) 0.3112(5) 0.7050(13)
H21 H 0.2425 0.3074 0.6825
C33 C 0.4519(18) 0.3097(5) 0.6514(11)
H22 H 0.4382 0.3045 0.5905
C34 C 0.5924(15) 0.3158(5) 0.6869(12)
H23 H 0.6747 0.3148 0.6503
C35 C 0.6124(16) 0.3234(6) 0.7760(12)
H24 H 0.7084 0.3276 0.8003
C36 C 0.492(2) 0.3249(7) 0.8296(9)
H25 H 0.5056 0.3301 0.8905
C37 C 0.3514(18) 0.3189(6) 0.7941(12)
H26 H 0.2691 0.3199 0.8307
O8 O 0.069(2) 0.2446(8) 0.4847(14)
O9 O 0.8335(12) 0.0216(4) 0.9916(8)
O10 O 0.3476(13) 0.2226(4) 0.1685(8)
O14 O 0.133(3) 0.2312(10) 0.7216(18)
C1 C 0.6556(5) 0.27126(16) 0.4412(3)
C2 C 0.5871(5) 0.22153(15) 0.4662(3)
C3 C 0.6701(4) 0.18355(15) 0.5056(3)
H1 H 0.7721 0.1887 0.5160
C4 C 0.6067(5) 0.13822(14) 0.5301(3)
H2 H 0.6650 0.1132 0.5592
C5 C 0.4588(4) 0.12840(14) 0.5128(3)
C6 C 0.3751(5) 0.16646(17) 0.4717(3)
H3 H 0.2744 0.1604 0.4584
C7 C 0.4370(5) 0.21292(17) 0.4501(3)
H4 H 0.3778 0.2389 0.4244
C8 C 0.6053(5) -0.09575(19) 0.9415(3)
C9 C 0.5428(5) -0.07049(17) 0.8610(3)
C10 C 0.5208(5) -0.09825(17) 0.7846(3)
H5 H 0.5429 -0.1336 0.7835
C11 C 0.4664(5) -0.07420(16) 0.7097(3)
H6 H 0.4518 -0.0934 0.6578
C12 C 0.4328(4) -0.02210(15) 0.7097(2)
C13 C 0.4532(5) 0.00521(16) 0.7878(3)
H7 H 0.4298 0.0404 0.7898
C14 C 0.5073(5) -0.01917(18) 0.8621(3)
H8 H 0.5203 -0.0004 0.9146
C15 C -0.1151(5) -0.09741(18) 0.2265(3)
C16 C -0.0180(4) -0.07260(17) 0.2950(3)
C17 C 0.0867(5) -0.03699(19) 0.2705(3)
H9 H 0.0986 -0.0294 0.2106
C18 C 0.1738(5) -0.01259(18) 0.3332(3)
H10 H 0.2447 0.0116 0.3156
C19 C 0.1590(4) -0.02297(15) 0.4218(3)
C20 C 0.0565(4) -0.05959(16) 0.4460(3)
H11 H 0.0454 -0.0676 0.5058
C21 C -0.0297(4) -0.08453(17) 0.3827(3)
H12 H -0.0972 -0.1100 0.3999
C22 C 0.3959(4) 0.07798(14) 0.5336(3)
C23 C 0.4345(4) 0.05318(14) 0.6110(3)
H13 H 0.4965 0.0699 0.6526
C24 C 0.3839(4) 0.00425(14) 0.6287(3)
C25 C 0.2930(4) -0.02010(14) 0.5662(2)
H14 H 0.2588 -0.0536 0.5773
C26 C 0.2523(4) 0.00377(14) 0.4886(2)
C27 C 0.3035(4) 0.05296(15) 0.4732(3)
H15 H 0.2751 0.0698 0.4207
O1 O 0.7858(4) 0.27148(13) 0.4169(2)
O2 O 0.5824(4) 0.31150(12) 0.4457(2)
O3 O 0.6387(5) -0.06884(14) 1.0064(2)
O4 O 0.6216(6) -0.14330(15) 0.9432(3)
O5 O -0.1887(4) -0.13605(14) 0.2469(3)
O6 O -0.1203(4) -0.07865(13) 0.1513(2)
N1 N 1.0120(3) 0.35419(13) 0.3493(2)
C28 C 1.1348(4) 0.37004(17) 0.3973(3)
H16 H 1.1235 0.3896 0.4487
C29 C 1.2742(3) 0.3572(2) 0.3700(4)
H17 H 1.3581 0.3680 0.4029
C30 C 1.2907(4) 0.3285(2) 0.2948(4)
H18 H 1.3860 0.3198 0.2762
C31 C 1.1679(5) 0.3127(2) 0.2468(3)
H19 H 1.1792 0.2931 0.1954
C32 C 1.0285(4) 0.32550(18) 0.2740(2)
H20 H 0.9446 0.3147 0.2412
Cd1 Cd 0.78317(3) 0.362375(10) 0.406133(19)
O3A O 0.8613(5) 0.43116(14) 0.4936(2)
O4A O 0.8784(6) 0.35670(15) 0.5568(3)
O5A O 0.6887(4) 0.36395(14) 0.2531(3)
O6A O 0.6203(4) 0.42135(13) 0.3487(2)
Cd1A Cd 0.71683(3) -0.137625(10) 1.093867(19)
Cd1A_2 Cd -0.28317(3) -0.137625(10) 0.093867(19)
N3? N 0.4274(18) 0.4210(5) 0.6436(12)
H27? H 0.3852 0.4435 0.6088
C38? C 0.5334(19) 0.3883(6) 0.6119(9)
H28? H 0.5602 0.3903 0.5526
C39? C 0.6001(13) 0.3527(6) 0.6669(10)
H29? H 0.6726 0.3304 0.6452
C40? C 0.5609(13) 0.3498(5) 0.7537(9)
H30? H 0.6065 0.3255 0.7913
C41? C 0.4549(18) 0.3825(5) 0.7854(9)
H31? H 0.4280 0.3805 0.8447
C42? C 0.3881(17) 0.4181(4) 0.7304(13)
H32? H 0.3157 0.4404 0.7521
C43? C 0.2605(10) 0.2954(12) 0.5817(19)
C44? C 0.337(4) 0.2701(17) 0.723(2)
C45? C 0.124(5) 0.2313(17) 0.657(3)
N4? N 0.240(3) 0.2659(11) 0.652(2)
O7? O 0.359(3) 0.3266(12) 0.572(2)
O11? O 0.0434(8) 0.2187(3) 0.4485(6)
O12? O 0.8885(17) 0.0100(6) 1.0501(11)
O13? O 0.1142(16) 0.2238(5) 0.6471(10)
O15? O 0.111(2) 0.2794(7) 0.5635(12)
loop_
_geom_bond_atom_site_label_1
_geom_bond_atom_site_label_2
_geom_bond_site_symmetry_1
_geom_bond_site_symmetry_2
C1 C2 1_555 1_555
C2 C3 1_555 1_555
C3 H1 1_555 1_555
C4 C3 1_555 1_555
H2 C4 1_555 1_555
C5 C4 1_555 1_555
C6 C5 1_555 1_555
H3 C6 1_555 1_555
C7 C2 1_555 1_555
H4 C7 1_555 1_555
C8 C9 1_555 1_555
C9 C10 1_555 1_555
C10 H5 1_555 1_555
C11 C10 1_555 1_555
H6 C11 1_555 1_555
C12 C11 1_555 1_555
C13 C12 1_555 1_555
H7 C13 1_555 1_555
C14 C9 1_555 1_555
H8 C14 1_555 1_555
C15 C16 1_555 1_555
C16 C17 1_555 1_555
C17 H9 1_555 1_555
C18 C17 1_555 1_555
H10 C18 1_555 1_555
C19 C18 1_555 1_555
C20 C19 1_555 1_555
H11 C20 1_555 1_555
C21 C16 1_555 1_555
H12 C21 1_555 1_555
C22 C5 1_555 1_555
C23 C22 1_555 1_555
H13 C23 1_555 1_555
C24 C12 1_555 1_555
C25 C24 1_555 1_555
H14 C25 1_555 1_555
C26 C19 1_555 1_555
C27 C22 1_555 1_555
H15 C27 1_555 1_555
O1 C1 1_555 1_555
O2 C1 1_555 1_555
O3 C8 1_555 1_555
O4 C8 1_555 1_555
O5 C15 1_555 1_555
O6 C15 1_555 1_555
N1 C28 1_555 1_555
C28 H16 1_555 1_555
C29 C28 1_555 1_555
H17 C29 1_555 1_555
C30 C29 1_555 1_555
H18 C30 1_555 1_555
C31 C30 1_555 1_555
H19 C31 1_555 1_555
C32 N1 1_555 1_555
H20 C32 1_555 1_555
Cd1 O1 1_555 1_555
N2 H21 1_555 1_555
C33 N2 1_555 1_555
H22 C33 1_555 1_555
C34 C33 1_555 1_555
H23 C34 1_555 1_555
C35 C34 1_555 1_555
H24 C35 1_555 1_555
C36 C35 1_555 1_555
H25 C36 1_555 1_555
C37 N2 1_555 1_555
H26 C37 1_555 1_555
O3A Cd1 1_555 1_555
O4A Cd1 1_555 1_555
O5A Cd1 1_555 1_555
O6A Cd1 1_555 1_555
Cd1A O3 1_555 1_555
Cd1A_2 O5 1_555 1_555
C6 C7 1_555 1_555
C13 C14 1_555 1_555
C20 C21 1_555 1_555
C23 C24 1_555 1_555
C25 C26 1_555 1_555
C26 C27 1_555 1_555
O2 Cd1 1_555 1_555
O4 Cd1A 1_555 1_555
O6 Cd1A_2 1_555 1_555
N1 Cd1 1_555 1_555
C31 C32 1_555 1_555
C36 C37 1_555 1_555

#END
