
#######################################################################
#
#                 Cambridge Crystallographic Data Centre
#                                CCDC 
#
#######################################################################
#
# If this CIF has been generated from an entry in the Cambridge 
# Structural Database, then it will include bibliographic, chemical, 
# crystal, experimental, refinement or atomic coordinate data resulting 
# from the CCDC's data processing and validation procedures.
#
#######################################################################

data_EBEVEO
_symmetry_cell_setting           monoclinic
_symmetry_space_group_name_H-M   'C 2/c'
_symmetry_Int_Tables_number      15
_space_group_name_Hall           '-C 2yn'
loop_
_symmetry_equiv_pos_site_id
_symmetry_equiv_pos_as_xyz
1 x,y,z
2 -x,y,1/2-z
3 1/2+x,1/2+y,z
4 1/2-x,1/2+y,1/2-z
5 -x,-y,-z
6 x,-y,1/2+z
7 1/2-x,1/2-y,-z
8 1/2+x,1/2-y,1/2+z
_cell_length_a                   28.055(10)
_cell_length_b                   17.775(6)
_cell_length_c                   18.682(7)
_cell_angle_alpha                90
_cell_angle_beta                 117.571(9)
_cell_angle_gamma                90
_cell_volume                     8258.32
loop_
_atom_site_label
_atom_site_type_symbol
_atom_site_fract_x
_atom_site_fract_y
_atom_site_fract_z
C1 C 0.1510(4) 0.4068(6) 0.1443(6)
C2 C 0.1258(4) 0.3321(5) 0.1331(6)
C3 C 0.1566(4) 0.2714(5) 0.1768(6)
H1 H 0.1940 0.2772 0.2114
C4 C 0.1314(5) 0.2006(6) 0.1691(7)
H2 H 0.1524 0.1595 0.2003
C5 C 0.0779(4) 0.1895(5) 0.1180(6)
C6 C 0.0482(4) 0.2519(5) 0.0746(6)
H3 H 0.0110 0.2460 0.0383
C7 C 0.0717(4) 0.3228(5) 0.0833(6)
H4 H 0.0503 0.3647 0.0548
C8 C -0.2158(4) 0.0491(5) 0.1440(7)
C9 C -0.1678(4) 0.0434(6) 0.1280(6)
C10 C -0.1655(4) 0.0797(6) 0.0632(6)
H5 H -0.1967 0.1042 0.0238
C11 C -0.1187(4) 0.0804(5) 0.0553(6)
H6 H -0.1174 0.1078 0.0125
C12 C -0.0740(4) 0.0413(5) 0.1099(6)
C13 C -0.0778(4) 0.0002(6) 0.1719(7)
H7 H -0.0483 -0.0295 0.2081
C14 C -0.1227(4) 0.0031(6) 0.1793(7)
H8 H -0.1239 -0.0240 0.2223
C15 C 0.1715(4) -0.3005(5) 0.1589(6)
C16 C 0.1416(4) -0.2274(5) 0.1406(6)
C17 C 0.0855(4) -0.2261(6) 0.1031(6)
H9 H 0.0660 -0.2716 0.0831
C18 C 0.0582(4) -0.1593(5) 0.0949(6)
H10 H 0.0201 -0.1598 0.0718
C19 C 0.0859(4) -0.0913(5) 0.1200(6)
C20 C 0.1417(4) -0.0934(5) 0.1541(6)
H11 H 0.1614 -0.0477 0.1705
C21 C 0.1690(4) -0.1603(5) 0.1646(6)
H12 H 0.2072 -0.1601 0.1887
C22 C 0.0520(4) 0.1158(6) 0.1116(6)
C23 C 0.0013(4) 0.1125(5) 0.1074(6)
H13 H -0.0175 0.1577 0.1043
C24 C -0.0224(4) 0.0430(6) 0.1076(6)
C25 C 0.0060(4) -0.0219(5) 0.1093(6)
H14 H -0.0100 -0.0693 0.1080
C26 C 0.0566(4) -0.0202(6) 0.1130(6)
C27 C 0.0790(4) 0.0501(6) 0.1127(6)
H15 H 0.1130 0.0528 0.1133
C28 C 0.2533(4) 0.5931(6) 0.3595(7)
H16 H 0.2715 0.6309 0.3455
C29 C 0.2244(4) 0.5256(6) 0.4289(7)
H17 H 0.2181 0.5065 0.4713
C30 C 0.2020(4) 0.5016(6) 0.3506(7)
H18 H 0.1772 0.4612 0.3292
C31 C 0.4195(5) 0.8933(6) 0.6308(7)
H19 H 0.4286 0.9057 0.5892
C32 C 0.3849(5) 0.8346(6) 0.6987(8)
H20 H 0.3655 0.8001 0.7144
C33 C 0.4155(5) 0.8926(6) 0.7428(8)
H21 H 0.4215 0.9057 0.7956
C34 C 0.2888(4) 0.6341(6) 0.5023(7)
H22 H 0.2898 0.6113 0.5514
H23 H 0.2703 0.6832 0.4932
C35 C 0.3462(4) 0.6463(6) 0.5156(7)
H24 H 0.3654 0.5974 0.5278
H25 H 0.3452 0.6663 0.4654
C36 C 0.3769(4) 0.7010(6) 0.5847(7)
H26 H 0.3707 0.6875 0.6311
H27 H 0.4159 0.6964 0.6021
C37 C 0.3596(5) 0.7812(6) 0.5605(7)
H28 H 0.3672 0.7952 0.5155
H29 H 0.3202 0.7851 0.5406
C38 C 0.3942(4) 1.1244(6) 0.6164(7)
H30 H 0.3840 1.0855 0.5771
C39 C 0.3937(5) 1.2314(7) 0.6709(7)
H31 H 0.3849 1.2809 0.6799
C40 C 0.4347(5) 1.1875(6) 0.7242(7)
H32 H 0.4596 1.2017 0.7776
C41 C 0.3212(4) 1.2139(6) 0.5275(6)
H33 H 0.3102 1.1721 0.4880
H34 H 0.3317 1.2569 0.5042
C42 C 0.2736(4) 1.2366(6) 0.5398(6)
H35 H 0.2845 1.2776 0.5802
H36 H 0.2620 1.1932 0.5611
Cd1 Cd 0.20192(3) 0.54529(4) 0.17792(5)
Cd2 Cd 0.5000 1.02645(6) 0.7500
N1 N 0.2204(3) 0.5441(5) 0.3070(5)
N2 N 0.2588(3) 0.5850(5) 0.4330(5)
N3 N 0.4365(4) 0.9297(5) 0.6992(5)
N4 N 0.3871(4) 0.8352(5) 0.6277(6)
N5 N 0.4346(4) 1.1180(5) 0.6882(6)
N6 N 0.3681(3) 1.1899(5) 0.6021(5)
O1 O 0.1216(3) 0.4659(4) 0.1352(4)
O2 O 0.1997(3) 0.4124(4) 0.1638(5)
O3 O -0.2619(3) 0.0614(4) 0.0848(4)
O4 O -0.2077(3) 0.0413(4) 0.2136(4)
O5 O 0.2201(3) -0.3045(4) 0.2125(4)
O6 O 0.1444(3) -0.3594(4) 0.1175(4)
O7 O 0.4815(3) 1.0293(4) 0.8607(4)
H37 H 0.5071 1.0129 0.9040
H38 H 0.4521 1.0088 0.8514
C1B C 0.6510(4) 0.9068(6) 0.1443(6)
C2B C 0.6258(4) 0.8321(5) 0.1331(6)
C3B C 0.6566(4) 0.7714(5) 0.1768(6)
H1B H 0.6940 0.7772 0.2114
C4B C 0.6314(5) 0.7006(6) 0.1691(7)
H2B H 0.6524 0.6595 0.2003
C5B C 0.5779(4) 0.6895(5) 0.1180(6)
C6B C 0.5482(4) 0.7519(5) 0.0746(6)
H3B H 0.5110 0.7460 0.0383
C7B C 0.5717(4) 0.8228(5) 0.0833(6)
H4B H 0.5503 0.8647 0.0548
C8B C 0.2842(4) 0.5491(5) 0.1440(7)
C9B C 0.3322(4) 0.5434(6) 0.1280(6)
C10B C 0.3345(4) 0.5797(6) 0.0632(6)
H5B H 0.3033 0.6042 0.0238
C11B C 0.3813(4) 0.5804(5) 0.0553(6)
H6B H 0.3826 0.6078 0.0125
C12B C 0.4260(4) 0.5413(5) 0.1099(6)
C13B C 0.4222(4) 0.5002(6) 0.1719(7)
H7B H 0.4517 0.4705 0.2081
C14B C 0.3773(4) 0.5031(6) 0.1793(7)
H8B H 0.3761 0.4760 0.2223
C15B C 0.6715(4) 0.1995(5) 0.1589(6)
C16B C 0.6416(4) 0.2726(5) 0.1406(6)
C17B C 0.5855(4) 0.2739(6) 0.1031(6)
H9B H 0.5660 0.2284 0.0831
C18B C 0.5582(4) 0.3407(5) 0.0949(6)
H10B H 0.5201 0.3402 0.0718
C19B C 0.5859(4) 0.4087(5) 0.1200(6)
C20B C 0.6417(4) 0.4066(5) 0.1541(6)
H11B H 0.6614 0.4523 0.1705
C21B C 0.6690(4) 0.3397(5) 0.1646(6)
H12B H 0.7072 0.3399 0.1887
C22B C 0.5520(4) 0.6158(6) 0.1116(6)
C23B C 0.5013(4) 0.6125(5) 0.1074(6)
H13B H 0.4825 0.6577 0.1043
C24B C 0.4776(4) 0.5430(6) 0.1076(6)
C25B C 0.5060(4) 0.4781(5) 0.1093(6)
H14B H 0.4900 0.4307 0.1080
C26B C 0.5566(4) 0.4798(6) 0.1130(6)
C27B C 0.5790(4) 0.5501(6) 0.1127(6)
H15B H 0.6130 0.5528 0.1133
C28A C 0.7467(4) 0.5931(6) 1.1405(7)
H16A H 0.7285 0.6309 1.1545
C29A C 0.7756(4) 0.5256(6) 1.0711(7)
H17A H 0.7819 0.5065 1.0287
C30A C 0.7980(4) 0.5016(6) 1.1494(7)
H18A H 0.8228 0.4612 1.1708
C31A C 0.5805(5) 0.8933(6) 0.8692(7)
H19A H 0.5714 0.9057 0.9108
C32A C 0.6151(5) 0.8346(6) 0.8013(8)
H20A H 0.6345 0.8001 0.7856
C33A C 0.5845(5) 0.8926(6) 0.7572(8)
H21A H 0.5785 0.9057 0.7044
C34A C 0.7112(4) 0.6341(6) 0.9977(7)
H22A H 0.7102 0.6113 0.9486
H23A H 0.7297 0.6832 1.0068
C35A C 0.6538(4) 0.6463(6) 0.9844(7)
H24A H 0.6346 0.5974 0.9722
H25A H 0.6548 0.6663 1.0346
C36A C 0.6231(4) 0.7010(6) 0.9153(7)
H26A H 0.6293 0.6875 0.8689
H27A H 0.5841 0.6964 0.8979
C37A C 0.6404(5) 0.7812(6) 0.9395(7)
H28A H 0.6328 0.7952 0.9845
H29A H 0.6798 0.7851 0.9594
C38F C 0.1058(4) 1.3756(6) 0.3836(7)
H30F H 0.1160 1.4145 0.4229
C39F C 0.1063(5) 1.2686(7) 0.3291(7)
H31F H 0.1151 1.2191 0.3201
C40F C 0.0653(5) 1.3125(6) 0.2758(7)
H32F H 0.0404 1.2983 0.2224
C41F C 0.1788(4) 1.2861(6) 0.4725(6)
H33F H 0.1898 1.3279 0.5120
H34F H 0.1683 1.2431 0.4958
C42F C 0.2264(4) 1.2634(6) 0.4602(6)
H35F H 0.2155 1.2224 0.4198
H36F H 0.2380 1.3068 0.4389
Cd1A Cd 0.79808(3) 0.54529(4) 1.32208(5)
Cd1B Cd -0.29808(3) 0.04529(4) 0.17792(5)
Cd1_2 Cd 0.20192(3) -0.45471(4) 0.17792(5)
Cd1B_2 Cd 0.70192(3) 1.04529(4) 0.17792(5)
Cd1B_3 Cd 0.70192(3) 0.04529(4) 0.17792(5)
Cd2F Cd 0.0000 1.47355(6) 0.2500
N1A N 0.7796(3) 0.5441(5) 1.1930(5)
N2A N 0.7412(3) 0.5850(5) 1.0670(5)
N3A N 0.5635(4) 0.9297(5) 0.8008(5)
N4A N 0.6129(4) 0.8352(5) 0.8723(6)
N5F N 0.0654(4) 1.3820(5) 0.3118(6)
N5A N 0.5654(4) 1.1180(5) 0.8118(6)
N6F N 0.1319(3) 1.3101(5) 0.3979(5)
O1B O 0.6216(3) 0.9659(4) 0.1352(4)
O1A O 0.8784(3) 0.4659(4) 1.3648(4)
O2B O 0.6997(3) 0.9124(4) 0.1638(5)
O2A O 0.8003(3) 0.4124(4) 1.3362(5)
O3B O 0.2381(3) 0.5614(4) 0.0848(4)
O3C O 0.7619(3) 0.5614(4) 1.4152(4)
O4B O 0.2923(3) 0.5413(4) 0.2136(4)
O4C O 0.7077(3) 0.5413(4) 1.2864(4)
O5B O 0.7201(3) 0.1955(4) 0.2125(4)
O5_2 O 0.2201(3) 0.6955(4) 0.2125(4)
O5A O 0.7799(3) 0.6955(4) 1.2875(4)
O6B O 0.6444(3) 0.1406(4) 0.1175(4)
O6_2 O 0.1444(3) 0.6406(4) 0.1175(4)
O6A O 0.8556(3) 0.6406(4) 1.3825(4)
O7A O 0.5185(3) 1.0293(4) 0.6393(4)
H37A H 0.4929 1.0129 0.5960
H38A H 0.5479 1.0088 0.6486
O8 O 0.2617(3) 0.2833(4) 0.1390(4)
H39 H 0.2670 0.2586 0.1810
H40 H 0.2596 0.3277 0.1541
O9 O 0.0524(3) 0.5685(4) 0.0115(5)
H41 H 0.0733 0.6068 0.0216
H42 H 0.0666 0.5381 0.0512
loop_
_geom_bond_atom_site_label_1
_geom_bond_atom_site_label_2
_geom_bond_site_symmetry_1
_geom_bond_site_symmetry_2
C1 C2 1_555 1_555
C2 C3 1_555 1_555
C3 H1 1_555 1_555
C4 C3 1_555 1_555
H2 C4 1_555 1_555
C5 C4 1_555 1_555
C6 C5 1_555 1_555
H3 C6 1_555 1_555
C7 C2 1_555 1_555
H4 C7 1_555 1_555
C8 C9 1_555 1_555
C9 C10 1_555 1_555
C10 H5 1_555 1_555
C11 C10 1_555 1_555
H6 C11 1_555 1_555
C12 C11 1_555 1_555
C13 C12 1_555 1_555
H7 C13 1_555 1_555
C14 C9 1_555 1_555
H8 C14 1_555 1_555
C15 C16 1_555 1_555
C16 C17 1_555 1_555
C17 H9 1_555 1_555
C18 C17 1_555 1_555
H10 C18 1_555 1_555
C19 C18 1_555 1_555
C20 C19 1_555 1_555
H11 C20 1_555 1_555
C21 C16 1_555 1_555
H12 C21 1_555 1_555
C22 C5 1_555 1_555
C23 C22 1_555 1_555
H13 C23 1_555 1_555
C24 C12 1_555 1_555
C25 C24 1_555 1_555
H14 C25 1_555 1_555
C26 C19 1_555 1_555
C27 C22 1_555 1_555
H15 C27 1_555 1_555
C28 H16 1_555 1_555
C29 H17 1_555 1_555
C30 C29 1_555 1_555
H18 C30 1_555 1_555
C31 H19 1_555 1_555
C32 H20 1_555 1_555
C33 C32 1_555 1_555
H21 C33 1_555 1_555
C34 H22 1_555 1_555
H23 C34 1_555 1_555
C35 C34 1_555 1_555
H24 C35 1_555 1_555
H25 C35 1_555 1_555
C36 C35 1_555 1_555
H26 C36 1_555 1_555
H27 C36 1_555 1_555
C37 C36 1_555 1_555
H28 C37 1_555 1_555
H29 C37 1_555 1_555
C38 H30 1_555 1_555
C39 H31 1_555 1_555
C40 C39 1_555 1_555
H32 C40 1_555 1_555
C41 H33 1_555 1_555
H34 C41 1_555 1_555
C42 C41 1_555 1_555
H35 C42 1_555 1_555
H36 C42 1_555 1_555
Cd1 N1 1_555 1_555
Cd2 N3 1_555 1_555
N1 C28 1_555 1_555
N2 C28 1_555 1_555
N3 C31 1_555 1_555
N4 C31 1_555 1_555
N5 C38 1_555 1_555
N6 C38 1_555 1_555
O1 C1 1_555 1_555
O2 C1 1_555 1_555
O3 C8 1_555 1_555
O4 C8 1_555 1_555
O5 C15 1_555 1_555
O6 C15 1_555 1_555
O7 Cd2 1_555 1_555
H37 O7 1_555 1_555
H38 O7 1_555 1_555
O8 H39 1_555 1_555
H40 O8 1_555 1_555
O9 H41 1_555 1_555
H42 O9 1_555 1_555
C1B C2B 1_555 1_555
C2B C3B 1_555 1_555
C3B H1B 1_555 1_555
C4B C3B 1_555 1_555
H2B C4B 1_555 1_555
C5B C4B 1_555 1_555
C6B C5B 1_555 1_555
H3B C6B 1_555 1_555
C7B C2B 1_555 1_555
H4B C7B 1_555 1_555
C8B C9B 1_555 1_555
C9B C10B 1_555 1_555
C10B H5B 1_555 1_555
C11B C10B 1_555 1_555
H6B C11B 1_555 1_555
C12B C11B 1_555 1_555
C13B C12B 1_555 1_555
H7B C13B 1_555 1_555
C14B C9B 1_555 1_555
H8B C14B 1_555 1_555
C15B C16B 1_555 1_555
C16B C17B 1_555 1_555
C17B H9B 1_555 1_555
C18B C17B 1_555 1_555
H10B C18B 1_555 1_555
C19B C18B 1_555 1_555
C20B C19B 1_555 1_555
H11B C20B 1_555 1_555
C21B C16B 1_555 1_555
H12B C21B 1_555 1_555
C22B C5B 1_555 1_555
C23B C22B 1_555 1_555
H13B C23B 1_555 1_555
C24B C12B 1_555 1_555
C25B C24B 1_555 1_555
H14B C25B 1_555 1_555
C26B C19B 1_555 1_555
C27B C22B 1_555 1_555
H15B C27B 1_555 1_555
C28A H16A 1_555 1_555
C29A H17A 1_555 1_555
C30A C29A 1_555 1_555
H18A C30A 1_555 1_555
C31A H19A 1_555 1_555
C32A H20A 1_555 1_555
C33A C32A 1_555 1_555
H21A C33A 1_555 1_555
C34A H22A 1_555 1_555
H23A C34A 1_555 1_555
C35A C34A 1_555 1_555
H24A C35A 1_555 1_555
H25A C35A 1_555 1_555
C36A C35A 1_555 1_555
H26A C36A 1_555 1_555
H27A C36A 1_555 1_555
C37A C36A 1_555 1_555
H28A C37A 1_555 1_555
H29A C37A 1_555 1_555
C38F H30F 1_555 1_555
C39F H31F 1_555 1_555
C40F C39F 1_555 1_555
H32F C40F 1_555 1_555
C41F H33F 1_555 1_555
H34F C41F 1_555 1_555
C42F C42 1_555 1_555
H35F C42F 1_555 1_555
H36F C42F 1_555 1_555
Cd1A N1A 1_555 1_555
Cd1B O3 1_555 1_555
Cd1_2 O5 1_555 1_555
Cd1B_2 O1B 1_555 1_555
Cd1B_3 O5B 1_555 1_555
Cd2F N5F 1_555 1_555
N1A C28A 1_555 1_555
N2A C28A 1_555 1_555
N3A Cd2 1_555 1_555
N4A C31A 1_555 1_555
N5F C38F 1_555 1_555
N5A Cd2 1_555 1_555
N6F C38F 1_555 1_555
O1B C1B 1_555 1_555
O1A Cd1A 1_555 1_555
O2B C1B 1_555 1_555
O2A Cd1A 1_555 1_555
O3B Cd1 1_555 1_555
O3C Cd1A 1_555 1_555
O4B Cd1 1_555 1_555
O4C Cd1A 1_555 1_555
O5B C15B 1_555 1_555
O5_2 Cd1 1_555 1_555
O5A Cd1A 1_555 1_555
O6B C15B 1_555 1_555
O6_2 Cd1 1_555 1_555
O6A Cd1A 1_555 1_555
O7A Cd2 1_555 1_555
H37A O7A 1_555 1_555
H38A O7A 1_555 1_555
C6 C7 1_555 1_555
C13 C14 1_555 1_555
C20 C21 1_555 1_555
C23 C24 1_555 1_555
C25 C26 1_555 1_555
C26 C27 1_555 1_555
C29 N2 1_555 1_555
C30 N1 1_555 1_555
C32 N4 1_555 1_555
C33 N3 1_555 1_555
C34 N2 1_555 1_555
C37 N4 1_555 1_555
C39 N6 1_555 1_555
C40 N5 1_555 1_555
C41 N6 1_555 1_555
Cd1 O1 1_555 1_555
Cd1 O2 1_555 1_555
Cd2 N5 1_555 1_555
O4 Cd1B 1_555 1_555
O6 Cd1_2 1_555 1_555
C6B C7B 1_555 1_555
C8B O3B 1_555 1_555
C8B O4B 1_555 1_555
C13B C14B 1_555 1_555
C20B C21B 1_555 1_555
C23B C24B 1_555 1_555
C25B C26B 1_555 1_555
C26B C27B 1_555 1_555
C29A N2A 1_555 1_555
C30A N1A 1_555 1_555
C31A N3A 1_555 1_555
C32A N4A 1_555 1_555
C33A N3A 1_555 1_555
C34A N2A 1_555 1_555
C37A N4A 1_555 1_555
C39F N6F 1_555 1_555
C40F N5F 1_555 1_555
C41F C42F 1_555 1_555
C41F N6F 1_555 1_555
Cd1B_2 O2B 1_555 1_555
Cd1B_3 O6B 1_555 1_555

#END
