
#######################################################################
#
#                 Cambridge Crystallographic Data Centre
#                                CCDC 
#
#######################################################################
#
# If this CIF has been generated from an entry in the Cambridge 
# Structural Database, then it will include bibliographic, chemical, 
# crystal, experimental, refinement or atomic coordinate data resulting 
# from the CCDC's data processing and validation procedures.
#
#######################################################################

data_EBEVAK
_symmetry_cell_setting           monoclinic
_symmetry_space_group_name_H-M   'P 21/c'
_symmetry_Int_Tables_number      14
_space_group_name_Hall           '-P 2ybc'
loop_
_symmetry_equiv_pos_site_id
_symmetry_equiv_pos_as_xyz
1 x,y,z
2 -x,1/2+y,1/2-z
3 -x,-y,-z
4 x,1/2-y,1/2+z
_cell_length_a                   16.8416(6)
_cell_length_b                   29.9444(9)
_cell_length_c                   15.9876(5)
_cell_angle_alpha                90
_cell_angle_beta                 98.0760(10)
_cell_angle_gamma                90
_cell_volume                     7982.77
loop_
_atom_site_label
_atom_site_type_symbol
_atom_site_fract_x
_atom_site_fract_y
_atom_site_fract_z
C1 C 0.2915(3) 0.33377(11) -0.1286(2)
C2 C 0.2543(2) 0.35719(12) -0.2083(2)
C3 C 0.1775(3) 0.37329(16) -0.2160(2)
H1 H 0.1461 0.3687 -0.1718
C4 C 0.1456(3) 0.39627(17) -0.2882(3)
H2 H 0.0934 0.4088 -0.2910
C5 C 0.1866(3) 0.40151(12) -0.3552(2)
C6 C 0.2602(4) 0.3826(2) -0.3493(3)
H3 H 0.2885 0.3838 -0.3967
C7 C 0.2959(4) 0.3614(2) -0.2750(3)
H4 H 0.3490 0.3501 -0.2713
C8 C 0.1117(3) 0.68820(13) -0.5168(2)
C9 C 0.1183(3) 0.63792(12) -0.5206(2)
C10 C 0.1781(3) 0.61520(13) -0.4681(2)
H5 H 0.2183 0.6317 -0.4335
C11 C 0.1799(3) 0.56922(12) -0.4655(2)
H6 H 0.2206 0.5546 -0.4282
C12 C 0.1229(2) 0.54362(12) -0.5170(2)
C13 C 0.0637(3) 0.56690(12) -0.5719(2)
H7 H 0.0251 0.5507 -0.6089
C14 C 0.0615(3) 0.61307(13) -0.5719(2)
H8 H 0.0203 0.6281 -0.6079
C15 C -0.0391(3) 0.32198(12) -0.8807(2)
C16 C -0.0046(3) 0.34743(12) -0.8030(2)
C17 C 0.0592(3) 0.37661(16) -0.8055(2)
H9 H 0.0819 0.3798 -0.8563
C18 C 0.0905(3) 0.40125(16) -0.7344(3)
H10 H 0.1330 0.4218 -0.7376
C19 C 0.0595(3) 0.39579(11) -0.6590(2)
C20 C -0.0010(3) 0.36572(14) -0.6555(2)
H11 H -0.0202 0.3606 -0.6031
C21 C -0.0353(3) 0.34237(14) -0.7270(2)
H12 H -0.0795 0.3230 -0.7240
C22 C 0.1522(2) 0.42493(12) -0.4349(2)
C23 C 0.1522(2) 0.47138(12) -0.4392(2)
H13 H 0.1723 0.4881 -0.3903
C24 C 0.1232(2) 0.49385(12) -0.5138(2)
C25 C 0.0948(2) 0.46860(11) -0.5858(2)
H14 H 0.0763 0.4834 -0.6375
C26 C 0.0932(2) 0.42210(12) -0.5825(2)
C27 C 0.1214(2) 0.40023(12) -0.5062(2)
H15 H 0.1194 0.3686 -0.5032
C28 C 0.5609(3) -0.14994(14) 0.3747(2)
C29 C 0.5193(3) -0.12533(12) 0.2998(2)
C30 C 0.5568(3) -0.08954(13) 0.2650(2)
H16 H 0.6080 -0.0797 0.2912
C31 C 0.5199(3) -0.06814(13) 0.1923(2)
H17 H 0.5458 -0.0436 0.1698
C32 C 0.4451(3) -0.08247(12) 0.1521(2)
C33 C 0.4082(3) -0.11814(13) 0.1878(3)
H18 H 0.3569 -0.1281 0.1621
C34 C 0.4450(3) -0.13923(14) 0.2600(3)
H19 H 0.4190 -0.1636 0.2826
C35 C 0.1926(3) -0.16596(15) -0.3615(3)
C36 C 0.2309(3) -0.13997(14) -0.2871(3)
C37 C 0.2012(3) -0.09793(15) -0.2694(3)
H20 H 0.1566 -0.0858 -0.3052
C38 C 0.2371(3) -0.07328(15) -0.1987(3)
H21 H 0.2175 -0.0444 -0.1882
C39 C 0.3010(3) -0.09105(13) -0.1444(2)
C40 C 0.3224(4) -0.13409(17) -0.1575(4)
H22 H 0.3619 -0.1480 -0.1176
C41 C 0.2883(4) -0.15796(17) -0.2273(4)
H23 H 0.3052 -0.1879 -0.2341
C42 C 0.3672(3) 0.20122(13) -0.0232(2)
C43 C 0.3735(2) 0.15122(12) -0.0230(2)
C44 C 0.3116(3) 0.12598(12) -0.0694(2)
H24 H 0.2691 0.1406 -0.1041
C45 C 0.3129(2) 0.07991(12) -0.0643(2)
H25 H 0.2710 0.0631 -0.0956
C46 C 0.3749(2) 0.05764(11) -0.0136(2)
C47 C 0.4364(3) 0.08284(12) 0.0303(2)
H26 H 0.4795 0.0682 0.0643
C48 C 0.4357(3) 0.12877(12) 0.0250(2)
H27 H 0.4788 0.1453 0.0550
C49 C 0.4067(3) -0.06041(12) 0.0731(2)
C50 C 0.3720(2) -0.08526(12) 0.0042(2)
H28 H 0.3710 -0.1169 0.0082
C51 C 0.3385(2) -0.06457(12) -0.0712(2)
C52 C 0.3413(2) -0.01819(12) -0.0755(2)
H29 H 0.3201 -0.0039 -0.1268
C53 C 0.3738(2) 0.00771(12) -0.0081(2)
C54 C 0.4080(2) -0.01345(12) 0.0662(2)
H30 H 0.4324 0.0040 0.1125
C55 C 0.2714(4) 0.2929(2) 0.1821(3)
H31 H 0.3117 0.3147 0.1982
C56 C 0.2145(4) 0.2846(2) 0.2365(3)
H32 H 0.2162 0.3013 0.2873
C57 C 0.1580(3) 0.25354(12) 0.2175(2)
C58 C 0.1553(3) 0.23194(17) 0.1420(3)
H33 H 0.1142 0.2108 0.1245
C59 C 0.2137(3) 0.24148(17) 0.0909(3)
H34 H 0.2124 0.2253 0.0396
C60 C 0.0526(3) 0.24918(16) 0.4108(2)
H35 H 0.0640 0.2565 0.4690
C61 C 0.1117(3) 0.25585(15) 0.3602(2)
H36 H 0.1624 0.2675 0.3839
C62 C 0.0970(3) 0.24545(12) 0.2745(2)
C63 C 0.0212(3) 0.22789(14) 0.2444(2)
H37 H 0.0082 0.2199 0.1866
C64 C -0.0343(3) 0.22221(14) 0.2990(2)
H38 H -0.0853 0.2102 0.2776
Cd1 Cd 0.357057(18) 0.290605(8) 0.011872(15)
Cd2 Cd 0.107280(18) 0.777445(8) -0.479437(16)
N1 N 0.2717(2) 0.27200(10) 0.10981(19)
N2 N -0.0192(2) 0.23297(11) 0.38156(18)
O1 O 0.24812(17) 0.32493(9) -0.07247(15)
O2 O 0.36427(18) 0.32293(9) -0.11989(15)
O3 O 0.1709(2) 0.71022(8) -0.4826(2)
O4 O 0.0468(2) 0.70650(8) -0.54498(17)
O5 O 0.00240(19) 0.31627(9) -0.93895(16)
O6 O -0.1097(2) 0.30703(9) -0.88577(16)
O7 O 0.6259(2) -0.13531(10) 0.41320(17)
O8 O 0.5319(2) -0.18645(11) 0.3957(2)
O9 O 0.2146(2) -0.20552(12) -0.3710(2)
O10 O 0.1357(2) -0.14877(10) -0.4114(2)
O11 O 0.3075(2) 0.22030(8) -0.06090(17)
O12 O 0.4251(2) 0.22315(9) 0.0199(2)
Cd1A Cd 0.642943(18) -0.209395(8) 0.488128(15)
Cd2B Cd -0.107280(18) 0.222555(8) 0.479437(16)
Cd2A Cd -0.107280(18) 0.277445(8) -1.020563(16)
Cd2_2 Cd 0.107280(18) -0.222555(8) -0.479437(16)
N2B N 0.0192(2) 0.76703(11) -0.38156(18)
O5A O -0.00240(19) 0.81627(9) -0.56105(16)
O6A O 0.1097(2) 0.80703(9) -0.61423(16)
O7A O 0.3741(2) 0.36469(10) 0.08680(17)
O8A O 0.4681(2) 0.31355(11) 0.1043(2)
O9_2 O 0.2146(2) 0.79448(12) -0.3710(2)
O10_2 O 0.1357(2) 0.85123(10) -0.4114(2)
loop_
_geom_bond_atom_site_label_1
_geom_bond_atom_site_label_2
_geom_bond_site_symmetry_1
_geom_bond_site_symmetry_2
C1 C2 1_555 1_555
C2 C3 1_555 1_555
C3 H1 1_555 1_555
C4 C3 1_555 1_555
H2 C4 1_555 1_555
C5 C4 1_555 1_555
C6 C5 1_555 1_555
H3 C6 1_555 1_555
C7 C2 1_555 1_555
H4 C7 1_555 1_555
C8 C9 1_555 1_555
C9 C10 1_555 1_555
C10 H5 1_555 1_555
C11 C10 1_555 1_555
H6 C11 1_555 1_555
C12 C11 1_555 1_555
C13 C12 1_555 1_555
H7 C13 1_555 1_555
C14 C9 1_555 1_555
H8 C14 1_555 1_555
C15 C16 1_555 1_555
C16 C17 1_555 1_555
C17 H9 1_555 1_555
C18 C17 1_555 1_555
H10 C18 1_555 1_555
C19 C18 1_555 1_555
C20 C19 1_555 1_555
H11 C20 1_555 1_555
C21 C16 1_555 1_555
H12 C21 1_555 1_555
C22 C5 1_555 1_555
C23 C22 1_555 1_555
H13 C23 1_555 1_555
C24 C12 1_555 1_555
C25 C24 1_555 1_555
H14 C25 1_555 1_555
C26 C19 1_555 1_555
C27 C22 1_555 1_555
H15 C27 1_555 1_555
C28 C29 1_555 1_555
C29 C30 1_555 1_555
C30 H16 1_555 1_555
C31 C30 1_555 1_555
H17 C31 1_555 1_555
C32 C31 1_555 1_555
C33 C32 1_555 1_555
H18 C33 1_555 1_555
C34 C29 1_555 1_555
H19 C34 1_555 1_555
C35 C36 1_555 1_555
C36 C37 1_555 1_555
C37 H20 1_555 1_555
C38 C37 1_555 1_555
H21 C38 1_555 1_555
C39 C38 1_555 1_555
C40 C39 1_555 1_555
H22 C40 1_555 1_555
C41 C36 1_555 1_555
H23 C41 1_555 1_555
C42 C43 1_555 1_555
C43 C44 1_555 1_555
C44 H24 1_555 1_555
C45 C44 1_555 1_555
H25 C45 1_555 1_555
C46 C45 1_555 1_555
C47 C46 1_555 1_555
H26 C47 1_555 1_555
C48 C43 1_555 1_555
H27 C48 1_555 1_555
C49 C32 1_555 1_555
C50 C49 1_555 1_555
H28 C50 1_555 1_555
C51 C39 1_555 1_555
C52 C51 1_555 1_555
H29 C52 1_555 1_555
C53 C46 1_555 1_555
C54 C49 1_555 1_555
H30 C54 1_555 1_555
C55 H31 1_555 1_555
C56 C55 1_555 1_555
H32 C56 1_555 1_555
C57 C56 1_555 1_555
C58 C57 1_555 1_555
H33 C58 1_555 1_555
C59 C58 1_555 1_555
H34 C59 1_555 1_555
C60 H35 1_555 1_555
C61 C60 1_555 1_555
H36 C61 1_555 1_555
C62 C57 1_555 1_555
C63 C62 1_555 1_555
H37 C63 1_555 1_555
C64 C63 1_555 1_555
H38 C64 1_555 1_555
Cd1 N1 1_555 1_555
Cd2 O3 1_555 1_555
N1 C55 1_555 1_555
N2 C60 1_555 1_555
O1 C1 1_555 1_555
O2 C1 1_555 1_555
O3 C8 1_555 1_555
O4 C8 1_555 1_555
O5 C15 1_555 1_555
O6 C15 1_555 1_555
O7 C28 1_555 1_555
O8 C28 1_555 1_555
O9 C35 1_555 1_555
O10 C35 1_555 1_555
O11 C42 1_555 1_555
O12 C42 1_555 1_555
Cd1A O7 1_555 1_555
Cd2B N2 1_555 1_555
Cd2A O5 1_555 1_555
Cd2_2 O9 1_555 1_555
N2B Cd2 1_555 1_555
O5A Cd2 1_555 1_555
O6A Cd2 1_555 1_555
O7A Cd1 1_555 1_555
O8A Cd1 1_555 1_555
O9_2 Cd2 1_555 1_555
O10_2 Cd2 1_555 1_555
C6 C7 1_555 1_555
C13 C14 1_555 1_555
C20 C21 1_555 1_555
C23 C24 1_555 1_555
C25 C26 1_555 1_555
C26 C27 1_555 1_555
C33 C34 1_555 1_555
C40 C41 1_555 1_555
C47 C48 1_555 1_555
C50 C51 1_555 1_555
C52 C53 1_555 1_555
C53 C54 1_555 1_555
C59 N1 1_555 1_555
C61 C62 1_555 1_555
C64 N2 1_555 1_555
Cd1 O1 1_555 1_555
Cd1 O2 1_555 1_555
Cd1 O11 1_555 1_555
Cd1 O12 1_555 1_555
Cd2 O4 1_555 1_555
O6 Cd2A 1_555 1_555
O8 Cd1A 1_555 1_555
O10 Cd2_2 1_555 1_555

#END
