
#######################################################################
#
#                 Cambridge Crystallographic Data Centre
#                                CCDC 
#
#######################################################################
#
# If this CIF has been generated from an entry in the Cambridge 
# Structural Database, then it will include bibliographic, chemical, 
# crystal, experimental, refinement or atomic coordinate data resulting 
# from the CCDC's data processing and validation procedures.
#
#######################################################################

data_EBEZAO
_symmetry_cell_setting           monoclinic
_symmetry_space_group_name_H-M   'P 21/n'
_symmetry_Int_Tables_number      14
_space_group_name_Hall           '-P 2yn'
loop_
_symmetry_equiv_pos_site_id
_symmetry_equiv_pos_as_xyz
1 x,y,z
2 1/2-x,1/2+y,1/2-z
3 -x,-y,-z
4 1/2+x,1/2-y,1/2+z
_cell_length_a                   7.7075(7)
_cell_length_b                   18.7331(15)
_cell_length_c                   8.3841(7)
_cell_angle_alpha                90
_cell_angle_beta                 105.034(7)
_cell_angle_gamma                90
_cell_volume                     1169.11
loop_
_atom_site_label
_atom_site_type_symbol
_atom_site_fract_x
_atom_site_fract_y
_atom_site_fract_z
Ca1 Ca 0.76151(4) 0.024781(15) 0.53364(4)
O1 O 0.93812(13) -0.00432(6) 0.31652(13)
O2 O 0.64342(14) -0.00573(6) 0.22924(14)
C1 C 0.79602(18) -0.02459(8) 0.21600(18)
C2 C 0.8127(2) -0.07310(8) 0.0759(2)
H1 H 0.8770 -0.0473 0.0054
H2 H 0.8855 -0.1153 0.1225
N1 N 0.63944(17) -0.09688(7) -0.02553(16)
H3 H 0.5665 -0.0649 -0.0844
C3 C 0.5859(2) -0.16437(8) -0.03362(19)
O3 O 0.68065(17) -0.21353(6) 0.04178(15)
C4 C 0.3982(2) -0.17869(10) -0.1413(2)
H4 H 0.4051 -0.2112 -0.2326
H5 H 0.3431 -0.1333 -0.1901
C5 C 0.2823(2) -0.21224(9) -0.0400(2)
O4 O 0.2866(2) -0.19068(8) 0.09968(17)
N2 N 0.17645(18) -0.26468(7) -0.11186(17)
H6 H 0.1758 -0.2763 -0.2137
C6 C 0.0612(2) -0.30416(8) -0.0318(2)
H7 H -0.0599 -0.3081 -0.1085
H8 H 0.0496 -0.2773 0.0666
C7 C 0.13132(19) -0.37862(8) 0.02124(18)
O5 O 0.02513(13) -0.42306(6) 0.05663(13)
O6 O 0.29022(15) -0.39434(6) 0.02681(17)
O7 O 0.70256(16) 0.05272(7) 0.79441(15)
H9 H 0.598(3) 0.0421(11) 0.793(3)
H10 H 0.720(3) 0.0921(11) 0.827(2)
O8 O 0.88755(16) 0.14006(6) 0.52351(18)
H11 H 0.861(3) 0.1816(11) 0.504(3)
H12 H 0.981(3) 0.1367(11) 0.506(3)
Ca1B Ca 1.23849(4) -0.024781(15) 0.46636(4)
Ca1A Ca -0.26151(4) -0.475219(15) -0.03364(4)
Ca1C Ca 0.26151(4) -0.524781(15) 0.03364(4)
O1B O 1.06188(13) 0.00432(6) 0.68348(13)
O5A O 0.47487(13) 0.07694(6) 0.44337(13)
O5C O 0.52513(13) -0.07694(6) 0.55663(13)
O6C O 0.79022(15) -0.10566(6) 0.52681(17)
loop_
_geom_bond_atom_site_label_1
_geom_bond_atom_site_label_2
_geom_bond_site_symmetry_1
_geom_bond_site_symmetry_2
Ca1 O1 1_555 1_555
O1 C1 1_555 1_555
O2 Ca1 1_555 1_555
C1 O2 1_555 1_555
C2 C1 1_555 1_555
H1 C2 1_555 1_555
H2 C2 1_555 1_555
N1 C2 1_555 1_555
H3 N1 1_555 1_555
C3 N1 1_555 1_555
O3 C3 1_555 1_555
C4 C3 1_555 1_555
H4 C4 1_555 1_555
H5 C4 1_555 1_555
C5 C4 1_555 1_555
O4 C5 1_555 1_555
N2 C5 1_555 1_555
H6 N2 1_555 1_555
C6 N2 1_555 1_555
H7 C6 1_555 1_555
H8 C6 1_555 1_555
C7 C6 1_555 1_555
O5 C7 1_555 1_555
O6 C7 1_555 1_555
O7 Ca1 1_555 1_555
H9 O7 1_555 1_555
H10 O7 1_555 1_555
O8 Ca1 1_555 1_555
H11 O8 1_555 1_555
H12 O8 1_555 1_555
Ca1B O1 1_555 1_555
Ca1A O5 1_555 1_555
Ca1C O5 1_555 1_555
O1B Ca1 1_555 1_555
O5A Ca1 1_555 1_555
O5C Ca1 1_555 1_555
O6C Ca1 1_555 1_555
O6 Ca1C 1_555 1_555
Ca1B O1B 1_555 1_555

#END
