
#######################################################################
#
#                 Cambridge Crystallographic Data Centre
#                                CCDC 
#
#######################################################################
#
# If this CIF has been generated from an entry in the Cambridge 
# Structural Database, then it will include bibliographic, chemical, 
# crystal, experimental, refinement or atomic coordinate data resulting 
# from the CCDC's data processing and validation procedures.
#
#######################################################################

data_EBEZIW
_symmetry_cell_setting           monoclinic
_symmetry_space_group_name_H-M   'C 2/c'
_symmetry_Int_Tables_number      15
_space_group_name_Hall           '-C 2yn'
loop_
_symmetry_equiv_pos_site_id
_symmetry_equiv_pos_as_xyz
1 x,y,z
2 -x,y,1/2-z
3 1/2+x,1/2+y,z
4 1/2-x,1/2+y,1/2-z
5 -x,-y,-z
6 x,-y,1/2+z
7 1/2-x,1/2-y,-z
8 1/2+x,1/2-y,1/2+z
_cell_length_a                   7.759(5)
_cell_length_b                   23.455(5)
_cell_length_c                   13.184(5)
_cell_angle_alpha                90
_cell_angle_beta                 97.128(5)
_cell_angle_gamma                90
_cell_volume                     2380.78
loop_
_atom_site_label
_atom_site_type_symbol
_atom_site_fract_x
_atom_site_fract_y
_atom_site_fract_z
Ag1 Ag 0.17203(5) 0.339611(13) 0.38789(3)
C1 C 0.2837(5) 0.22986(15) 0.2870(3)
H1 H 0.3492 0.2510 0.2461
C2 C 0.1162(6) 0.20689(17) 0.3973(3)
H2 H 0.0439 0.2095 0.4483
C3 C 0.1632(5) 0.15804(16) 0.3534(3)
H3 H 0.1285 0.1212 0.3676
C4 C 0.3403(5) 0.13589(15) 0.2092(2)
H4 H 0.3723 0.1595 0.1541
H5 H 0.2478 0.1107 0.1803
C5 C 0.5000 0.09861(18) 0.2500
C6 C 0.5497(5) 0.06309(14) 0.1591(2)
H6 H 0.5592 0.0889 0.1026
H7 H 0.6639 0.0469 0.1789
C7 C 0.4716(5) -0.03932(14) 0.1337(2)
H8 H 0.5754 -0.0532 0.1675
C8 C 0.2759(5) 0.01995(16) 0.0660(3)
H9 H 0.2172 0.0531 0.0440
C9 C 0.2199(5) -0.03418(18) 0.0476(3)
H10 H 0.1140 -0.0445 0.0113
N1 N 0.1926(5) 0.25185(13) 0.3541(3)
N2 N 0.2709(4) 0.17339(12) 0.2847(2)
N3 N 0.4319(4) 0.01661(11) 0.1218(2)
N4 N 0.3437(4) -0.07136(13) 0.0912(2)
Ag1A Ag 0.82797(5) 0.339611(13) 0.11211(3)
Ag1C Ag 0.32797(5) -0.160389(13) 0.11211(3)
Ag1B Ag 0.67203(5) -0.160389(13) 0.38789(3)
C1A C 0.7163(5) 0.22986(15) 0.2130(3)
H1A H 0.6508 0.2510 0.2539
C2A C 0.8838(6) 0.20689(17) 0.1027(3)
H2A H 0.9561 0.2095 0.0517
C3A C 0.8368(5) 0.15804(16) 0.1466(3)
H3A H 0.8715 0.1212 0.1324
C4A C 0.6597(5) 0.13589(15) 0.2908(2)
H4A H 0.6277 0.1595 0.3459
H5A H 0.7522 0.1107 0.3197
C6A C 0.4503(5) 0.06309(14) 0.3409(2)
H6A H 0.4408 0.0889 0.3974
H7A H 0.3361 0.0469 0.3211
C7A C 0.5284(5) -0.03932(14) 0.3663(2)
H8A H 0.4246 -0.0532 0.3325
C8A C 0.7241(5) 0.01995(16) 0.4340(3)
H9A H 0.7828 0.0531 0.4560
C9A C 0.7801(5) -0.03418(18) 0.4524(3)
H10A H 0.8860 -0.0445 0.4887
N1A N 0.8074(5) 0.25185(13) 0.1459(3)
N2A N 0.7291(4) 0.17339(12) 0.2153(2)
N3A N 0.5681(4) 0.01661(11) 0.3782(2)
N4A N 0.6563(4) -0.07136(13) 0.4088(2)
N4C N 0.1563(4) 0.42864(13) 0.4088(2)
N4B N 0.8437(4) 0.42864(13) 0.0912(2)
O1 O 1.1175(5) 0.96586(15) 0.3010(3)
O2 O 1.0000 1.0443(2) 0.2500
N5 N 1.0000 0.9923(2) 0.2500
O1A O 0.8825(5) 0.96586(15) 0.1990(3)
O3 O 0.0000 0.8504(4) 0.2500
O4? O 0.6069(18) 0.7843(7) -0.0234(9)
O5? O 0.793(3) 0.8510(7) 0.0463(14)
O6? O 0.729(4) 0.8450(11) 0.086(2)
O7? O 0.708(3) 0.8424(7) 0.0510(15)
O8? O 0.869(3) 0.7747(9) 0.0804(15)
O9? O 0.664(2) 0.7482(7) -0.0548(11)
N6? N 0.7241(15) 0.7969(5) 0.0339(8)
loop_
_geom_bond_atom_site_label_1
_geom_bond_atom_site_label_2
_geom_bond_site_symmetry_1
_geom_bond_site_symmetry_2
Ag1 N1 1_555 1_555
C1 H1 1_555 1_555
C2 H2 1_555 1_555
C3 C2 1_555 1_555
H3 C3 1_555 1_555
C4 H4 1_555 1_555
H5 C4 1_555 1_555
C5 C4 1_555 1_555
C6 C5 1_555 1_555
H6 C6 1_555 1_555
H7 C6 1_555 1_555
C7 H8 1_555 1_555
C8 H9 1_555 1_555
C9 C8 1_555 1_555
H10 C9 1_555 1_555
O1 N5 1_555 1_555
O2 N5 1_555 1_555
N1 C1 1_555 1_555
N2 C1 1_555 1_555
N3 C6 1_555 1_555
N4 C7 1_555 1_555
N5 O1A 1_555 1_555
Ag1A N1A 1_555 1_555
Ag1C N4 1_555 1_555
Ag1B N4A 1_555 1_555
C1A H1A 1_555 1_555
C2A H2A 1_555 1_555
C3A C2A 1_555 1_555
H3A C3A 1_555 1_555
C4A C5 1_555 1_555
H4A C4A 1_555 1_555
H5A C4A 1_555 1_555
C6A C5 1_555 1_555
H6A C6A 1_555 1_555
H7A C6A 1_555 1_555
C7A H8A 1_555 1_555
C8A H9A 1_555 1_555
C9A C8A 1_555 1_555
H10A C9A 1_555 1_555
N1A C1A 1_555 1_555
N2A C1A 1_555 1_555
N3A C6A 1_555 1_555
N4A C7A 1_555 1_555
N4C Ag1 1_555 1_555
N4B Ag1A 1_555 1_555
C2 N1 1_555 1_555
C3 N2 1_555 1_555
C4 N2 1_555 1_555
C7 N3 1_555 1_555
C8 N3 1_555 1_555
C9 N4 1_555 1_555
C2A N1A 1_555 1_555
C3A N2A 1_555 1_555
C4A N2A 1_555 1_555
C7A N3A 1_555 1_555
C8A N3A 1_555 1_555
C9A N4A 1_555 1_555

#END
