
#######################################################################
#
#                 Cambridge Crystallographic Data Centre
#                                CCDC 
#
#######################################################################
#
# If this CIF has been generated from an entry in the Cambridge 
# Structural Database, then it will include bibliographic, chemical, 
# crystal, experimental, refinement or atomic coordinate data resulting 
# from the CCDC's data processing and validation procedures.
#
#######################################################################

data_EBIBIB
_symmetry_cell_setting           monoclinic
_symmetry_space_group_name_H-M   'P 21'
_symmetry_Int_Tables_number      4
_space_group_name_Hall           'P 2yb'
loop_
_symmetry_equiv_pos_site_id
_symmetry_equiv_pos_as_xyz
1 x,y,z
2 -x,1/2+y,-z
_cell_length_a                   12.82430(10)
_cell_length_b                   18.2160(2)
_cell_length_c                   14.2213(2)
_cell_angle_alpha                90
_cell_angle_beta                 115.5950(10)
_cell_angle_gamma                90
_cell_volume                     2996.19
loop_
_atom_site_label
_atom_site_type_symbol
_atom_site_fract_x
_atom_site_fract_y
_atom_site_fract_z
Cu1 Cu 0.49046(5) 0.64711(4) 0.09117(4)
Cu2 Cu 0.58465(5) 0.68996(4) 0.31905(5)
Cu3 Cu 0.51973(5) 0.49342(4) 0.60277(4)
Cu4 Cu 0.58731(5) 0.46140(4) -0.17156(5)
O1 O 0.4416(3) 0.6940(2) 0.1900(3)
O2 O 0.5368(3) 0.6061(2) -0.0124(3)
O3 O 0.4667(3) 0.5608(2) -0.1738(3)
O4 O 0.6364(3) 0.6550(3) 0.2164(3)
O5 O 0.5388(3) 0.7271(3) 0.4221(3)
O6 O 0.5806(4) 0.7200(3) 0.5896(3)
O7 O 0.4696(3) 0.4303(2) 0.6884(3)
O8 O 0.5798(3) 0.5384(2) 0.5130(3)
O9 O 0.5410(3) 0.5615(2) 0.3484(3)
O10 O 0.6519(3) 0.5061(2) -0.2621(3)
O11 O 0.5729(4) 0.3877(2) -0.0786(3)
O12 O 0.6852(5) 0.3208(2) 0.0581(3)
O13 O 0.4549(5) 0.5288(3) 0.1387(4)
H1 H 0.482(4) 0.5174(11) 0.2063(10)
H2 H 0.472(4) 0.4895(5) 0.111(3)
O14 O 0.4454(4) 0.6067(3) 0.6280(3)
H3 H 0.444(4) 0.6130(12) 0.6915(18)
H4 H 0.484(3) 0.6481(5) 0.626(4)
N1 N 0.3361(3) 0.6547(2) -0.0267(3)
H5 H 0.3268 0.7016 -0.0511
N2 N 0.7425(3) 0.6885(3) 0.4384(3)
H6 H 0.7783 0.7316 0.4382
N3 N 0.3746(4) 0.4823(3) 0.4751(3)
H7 H 0.3240 0.5157 0.4792
N4 N 0.7130(4) 0.4968(3) -0.0399(3)
H8 H 0.6781 0.5217 -0.0058
C1 C 0.3362(4) 0.7252(3) 0.1640(4)
C2 C 0.3263(5) 0.7839(3) 0.2231(4)
H9 H 0.3917 0.8022 0.2784
C3 C 0.2184(6) 0.8147(3) 0.1988(5)
H10 H 0.2119 0.8528 0.2396
C4 C 0.1199(6) 0.7894(4) 0.1142(5)
H11 H 0.0481 0.8104 0.0981
C5 C 0.1307(5) 0.7326(4) 0.0547(5)
H12 H 0.0656 0.7157 -0.0024
C6 C 0.2380(4) 0.7001(3) 0.0789(4)
C7 C 0.2433(4) 0.6393(3) 0.0093(4)
H13 H 0.1690 0.6349 -0.0508
H14 H 0.2596 0.5932 0.0470
C8 C 0.3291(4) 0.6046(3) -0.1126(3)
H15 H 0.3004 0.5574 -0.1003
C9 C 0.4531(4) 0.5908(3) -0.0996(4)
C10 C 0.2412(5) 0.6310(3) -0.2205(4)
H16 H 0.1722 0.6448 -0.2115
C11 C 0.2007(5) 0.5709(4) -0.3051(5)
H17 H 0.1782 0.5280 -0.2790
H18 H 0.2628 0.5585 -0.3228
H19 H 0.1360 0.5885 -0.3659
C12 C 0.2791(7) 0.7004(4) -0.2554(5)
H20 H 0.2218 0.7142 -0.3233
H21 H 0.3515 0.6919 -0.2583
H22 H 0.2880 0.7392 -0.2068
C13 C 0.7471(4) 0.6609(3) 0.2297(4)
C14 C 0.7737(5) 0.6803(3) 0.1470(5)
H23 H 0.7149 0.6878 0.0805
C15 C 0.8887(6) 0.6881(5) 0.1653(6)
H24 H 0.9063 0.6998 0.1100
C16 C 0.9784(5) 0.6790(5) 0.2646(7)
H25 H 1.0546 0.6866 0.2759
C17 C 0.9537(5) 0.6586(5) 0.3467(6)
H26 H 1.0139 0.6516 0.4126
C18 C 0.8373(4) 0.6482(4) 0.3316(4)
C19 C 0.8088(5) 0.6275(3) 0.4189(5)
H27 H 0.8793 0.6183 0.4813
H28 H 0.7629 0.5829 0.4014
C20 C 0.7304(5) 0.6837(3) 0.5386(4)
H29 H 0.7338 0.6316 0.5570
C21 C 0.6067(5) 0.7125(3) 0.5168(4)
C22 C 0.8265(5) 0.7235(3) 0.6312(4)
H30 H 0.8090 0.7761 0.6230
C23 C 0.8285(8) 0.6994(6) 0.7362(5)
H31 H 0.8889 0.7252 0.7922
H32 H 0.8423 0.6475 0.7453
H33 H 0.7554 0.7106 0.7364
C24 C 0.9484(5) 0.7130(4) 0.6359(5)
H34 H 1.0040 0.7394 0.6946
H35 H 0.9491 0.7314 0.5730
H36 H 0.9677 0.6618 0.6432
C25 C 0.3609(5) 0.4047(3) 0.6606(5)
C26 C 0.3231(5) 0.3843(4) 0.7351(5)
H37 H 0.3739 0.3870 0.8054
C27 C 0.2117(6) 0.3601(4) 0.7063(5)
H38 H 0.1901 0.3439 0.7574
C28 C 0.1323(5) 0.3594(4) 0.6042(6)
H39 H 0.0556 0.3469 0.5856
C29 C 0.1694(5) 0.3779(4) 0.5295(5)
H40 H 0.1166 0.3766 0.4596
C30 C 0.2829(5) 0.3984(3) 0.5548(4)
C31 C 0.3232(6) 0.4088(3) 0.4716(5)
H41 H 0.3803 0.3715 0.4791
H42 H 0.2583 0.4021 0.4040
C32 C 0.3931(4) 0.5020(3) 0.3811(4)
H43 H 0.3937 0.4559 0.3457
C33 C 0.5139(4) 0.5375(3) 0.4157(4)
C34 C 0.2987(5) 0.5504(4) 0.3014(4)
H44 H 0.3227 0.5620 0.2463
C35 C 0.2891(5) 0.6227(4) 0.3503(5)
H45 H 0.2296 0.6522 0.2991
H46 H 0.3615 0.6483 0.3753
H47 H 0.2701 0.6133 0.4075
C36 C 0.1816(6) 0.5103(5) 0.2493(6)
H48 H 0.1250 0.5425 0.2001
H49 H 0.1571 0.4960 0.3016
H50 H 0.1897 0.4674 0.2138
C37 C 0.7678(4) 0.5049(3) -0.2312(4)
C38 C 0.8138(5) 0.4877(3) -0.3016(4)
H51 H 0.7652 0.4783 -0.3712
C39 C 0.9340(5) 0.4847(4) -0.2657(5)
H52 H 0.9646 0.4731 -0.3124
C40 C 1.0076(5) 0.4983(5) -0.1638(5)
H53 H 1.0871 0.4945 -0.1410
C41 C 0.9619(5) 0.5178(4) -0.0949(5)
H54 H 1.0120 0.5278 -0.0259
C42 C 0.8426(5) 0.5229(3) -0.1265(4)
C43 C 0.7926(5) 0.5502(3) -0.0554(4)
H55 H 0.8554 0.5616 0.0118
H56 H 0.7507 0.5954 -0.0838
C44 C 0.7654(5) 0.4305(3) 0.0233(4)
H57 H 0.8186 0.4094 -0.0023
C45 C 0.6679(6) 0.3747(3) 0.0010(4)
C46 C 0.8370(6) 0.4484(4) 0.1409(5)
H58 H 0.8836 0.4920 0.1449
C47 C 0.7591(9) 0.4678(5) 0.1930(6)
H59 H 0.7078 0.5068 0.1550
H60 H 0.8056 0.4834 0.2633
H61 H 0.7147 0.4255 0.1934
C48 C 0.9207(8) 0.3864(6) 0.1966(8)
H62 H 0.9671 0.3756 0.1603
H63 H 0.8779 0.3434 0.1977
H64 H 0.9700 0.4011 0.2667
O10_2 O 0.6519(3) 0.5061(2) 0.7379(3)
O7_2 O 0.4696(3) 0.4303(2) -0.3116(3)
Cu4_2 Cu 0.58731(5) 0.46140(4) 0.82844(5)
Cu3_2 Cu 0.51973(5) 0.49342(4) -0.39723(4)
O15 O 0.5849(12) 0.9035(8) -0.0239(12)
H65 H 0.6199 0.9418 -0.0202
C49 C 0.6449(14) 0.8460(11) -0.0384(15)
H66 H 0.6750 0.8186 0.0273
C50 C 0.5759(17) 0.7903(10) -0.1222(17)
H67 H 0.5088 0.7756 -0.1133
H68 H 0.6232 0.7480 -0.1161
H69 H 0.5524 0.8120 -0.1898
C51 C 0.7529(14) 0.8725(12) -0.0503(18)
H70 H 0.7935 0.9082 0.0026
H71 H 0.7296 0.8943 -0.1179
H72 H 0.8027 0.8314 -0.0432
O16 O 0.4055(9) 0.8582(6) 0.4890(8)
H73 H 0.3786 0.8397 0.4307
C52 C 0.3411(11) 0.8363(7) 0.5408(11)
H74 H 0.3934 0.8060 0.5990
C53 C 0.2423(12) 0.7846(7) 0.4722(11)
H75 H 0.2720 0.7476 0.4422
H76 H 0.1836 0.8124 0.4175
H77 H 0.2096 0.7616 0.5141
C54 C 0.2990(13) 0.8966(7) 0.5902(11)
H78 H 0.3627 0.9278 0.6317
H79 H 0.2672 0.8749 0.6335
H80 H 0.2406 0.9251 0.5364
loop_
_geom_bond_atom_site_label_1
_geom_bond_atom_site_label_2
_geom_bond_site_symmetry_1
_geom_bond_site_symmetry_2
Cu1 O1 1_555 1_555
Cu2 O1 1_555 1_555
Cu3 O7 1_555 1_555
Cu4 O3 1_555 1_555
O1 C1 1_555 1_555
O2 Cu1 1_555 1_555
O3 C9 1_555 1_555
O4 Cu1 1_555 1_555
O5 Cu2 1_555 1_555
O6 C21 1_555 1_555
O7 C25 1_555 1_555
O8 Cu3 1_555 1_555
O9 Cu2 1_555 1_555
O10 Cu4 1_555 1_555
O11 Cu4 1_555 1_555
O12 C45 1_555 1_555
O13 Cu1 1_555 1_555
H1 O13 1_555 1_555
H2 O13 1_555 1_555
O14 Cu3 1_555 1_555
H3 O14 1_555 1_555
H4 O14 1_555 1_555
N1 Cu1 1_555 1_555
H5 N1 1_555 1_555
N2 Cu2 1_555 1_555
H6 N2 1_555 1_555
N3 Cu3 1_555 1_555
H7 N3 1_555 1_555
N4 Cu4 1_555 1_555
H8 N4 1_555 1_555
C1 C2 1_555 1_555
C2 H9 1_555 1_555
C3 C2 1_555 1_555
H10 C3 1_555 1_555
C4 C3 1_555 1_555
H11 C4 1_555 1_555
C5 C4 1_555 1_555
H12 C5 1_555 1_555
C6 C1 1_555 1_555
C7 N1 1_555 1_555
H13 C7 1_555 1_555
H14 C7 1_555 1_555
C8 N1 1_555 1_555
H15 C8 1_555 1_555
C9 O2 1_555 1_555
C10 C8 1_555 1_555
H16 C10 1_555 1_555
C11 C10 1_555 1_555
H17 C11 1_555 1_555
H18 C11 1_555 1_555
H19 C11 1_555 1_555
C12 C10 1_555 1_555
H20 C12 1_555 1_555
H21 C12 1_555 1_555
H22 C12 1_555 1_555
C13 O4 1_555 1_555
C14 C13 1_555 1_555
H23 C14 1_555 1_555
C15 C14 1_555 1_555
H24 C15 1_555 1_555
C16 C15 1_555 1_555
H25 C16 1_555 1_555
C17 C16 1_555 1_555
H26 C17 1_555 1_555
C18 C13 1_555 1_555
C19 N2 1_555 1_555
H27 C19 1_555 1_555
H28 C19 1_555 1_555
C20 N2 1_555 1_555
H29 C20 1_555 1_555
C21 O5 1_555 1_555
C22 C20 1_555 1_555
H30 C22 1_555 1_555
C23 C22 1_555 1_555
H31 C23 1_555 1_555
H32 C23 1_555 1_555
H33 C23 1_555 1_555
C24 C22 1_555 1_555
H34 C24 1_555 1_555
H35 C24 1_555 1_555
H36 C24 1_555 1_555
C25 C26 1_555 1_555
C26 H37 1_555 1_555
C27 C26 1_555 1_555
H38 C27 1_555 1_555
C28 C27 1_555 1_555
H39 C28 1_555 1_555
C29 C28 1_555 1_555
H40 C29 1_555 1_555
C30 C25 1_555 1_555
C31 N3 1_555 1_555
H41 C31 1_555 1_555
H42 C31 1_555 1_555
C32 N3 1_555 1_555
H43 C32 1_555 1_555
C33 O8 1_555 1_555
C34 C32 1_555 1_555
H44 C34 1_555 1_555
C35 C34 1_555 1_555
H45 C35 1_555 1_555
H46 C35 1_555 1_555
H47 C35 1_555 1_555
C36 C34 1_555 1_555
H48 C36 1_555 1_555
H49 C36 1_555 1_555
H50 C36 1_555 1_555
C37 O10 1_555 1_555
C38 C37 1_555 1_555
H51 C38 1_555 1_555
C39 C38 1_555 1_555
H52 C39 1_555 1_555
C40 C39 1_555 1_555
H53 C40 1_555 1_555
C41 C40 1_555 1_555
H54 C41 1_555 1_555
C42 C37 1_555 1_555
C43 N4 1_555 1_555
H55 C43 1_555 1_555
H56 C43 1_555 1_555
C44 N4 1_555 1_555
H57 C44 1_555 1_555
C45 O11 1_555 1_555
C46 C44 1_555 1_555
H58 C46 1_555 1_555
C47 C46 1_555 1_555
H59 C47 1_555 1_555
H60 C47 1_555 1_555
H61 C47 1_555 1_555
C48 C46 1_555 1_555
H62 C48 1_555 1_555
H63 C48 1_555 1_555
H64 C48 1_555 1_555
O15 H65 1_555 1_555
C49 O15 1_555 1_555
H66 C49 1_555 1_555
C50 C49 1_555 1_555
H67 C50 1_555 1_555
H68 C50 1_555 1_555
H69 C50 1_555 1_555
C51 C49 1_555 1_555
H70 C51 1_555 1_555
H71 C51 1_555 1_555
H72 C51 1_555 1_555
O16 H73 1_555 1_555
C52 O16 1_555 1_555
H74 C52 1_555 1_555
C53 C52 1_555 1_555
H75 C53 1_555 1_555
H76 C53 1_555 1_555
H77 C53 1_555 1_555
C54 C52 1_555 1_555
H78 C54 1_555 1_555
H79 C54 1_555 1_555
H80 C54 1_555 1_555
O10_2 Cu3 1_555 1_555
O7_2 Cu4 1_555 1_555
Cu4_2 O7 1_555 1_555
Cu3_2 O10 1_555 1_555
Cu2 O4 1_555 1_555
O9 C33 1_555 1_555
C5 C6 1_555 1_555
C6 C7 1_555 1_555
C8 C9 1_555 1_555
C17 C18 1_555 1_555
C18 C19 1_555 1_555
C20 C21 1_555 1_555
C29 C30 1_555 1_555
C30 C31 1_555 1_555
C32 C33 1_555 1_555
C41 C42 1_555 1_555
C42 C43 1_555 1_555
C44 C45 1_555 1_555
O10_2 Cu4_2 1_555 1_555
O7_2 Cu3_2 1_555 1_555

#END
