
#######################################################################
#
#                 Cambridge Crystallographic Data Centre
#                                CCDC 
#
#######################################################################
#
# If this CIF has been generated from an entry in the Cambridge 
# Structural Database, then it will include bibliographic, chemical, 
# crystal, experimental, refinement or atomic coordinate data resulting 
# from the CCDC's data processing and validation procedures.
#
#######################################################################

data_EBIBAU
_symmetry_cell_setting           triclinic
_symmetry_space_group_name_H-M   'P -1'
_symmetry_Int_Tables_number      2
_space_group_name_Hall           '-P 1'
loop_
_symmetry_equiv_pos_site_id
_symmetry_equiv_pos_as_xyz
1 x,y,z
2 -x,-y,-z
_cell_length_a                   11.468(5)
_cell_length_b                   11.741(5)
_cell_length_c                   12.142(5)
_cell_angle_alpha                85.682(5)
_cell_angle_beta                 65.808(5)
_cell_angle_gamma                77.330(5)
_cell_volume                     1454.78
loop_
_atom_site_label
_atom_site_type_symbol
_atom_site_fract_x
_atom_site_fract_y
_atom_site_fract_z
Ag1 Ag 0.81156(3) 0.68947(2) 0.56141(2)
Ag2 Ag 0.49009(3) 0.20125(3) 0.34363(2)
C1 C 0.7461(3) 0.4726(2) 0.7296(3)
H1 H 0.6565 0.4968 0.7515
C2 C 0.9350(3) 0.3678(3) 0.7152(3)
H2 H 0.9997 0.3088 0.7234
C3 C 0.9519(3) 0.4678(3) 0.6525(3)
H3 H 1.0318 0.4894 0.6100
C4 C 0.7401(3) 0.2807(2) 0.8396(2)
H4 H 0.6595 0.3183 0.9040
H5 H 0.7965 0.2370 0.8766
C5 C 0.7082(3) 0.1941(2) 0.7709(2)
C6 C 0.5989(3) 0.2648(2) 0.7350(3)
H6 H 0.5243 0.2945 0.8085
H7 H 0.6295 0.3317 0.6896
C7 C 0.5639(3) 0.2373(3) 0.5520(3)
H8 H 0.6070 0.2952 0.5085
C8 C 0.4821(3) 0.1194(3) 0.6981(3)
H9 H 0.4584 0.0807 0.7713
C9 C 0.4525(3) 0.1021(3) 0.6039(3)
H10 H 0.4044 0.0487 0.6017
C10 C 0.8357(3) 0.1437(2) 0.6625(2)
H11 H 0.8602 0.2063 0.6064
H12 H 0.9043 0.1176 0.6915
C11 C 0.8244(3) 0.0533(2) 0.4856(2)
H13 H 0.8207 0.1200 0.4395
C12 C 0.8239(3) -0.0555(2) 0.4563(3)
H14 H 0.8191 -0.0764 0.3861
C13 C 0.8376(3) -0.0662(2) 0.6288(3)
H15 H 0.8452 -0.0950 0.6995
C14 C 0.6660(3) 0.0935(2) 0.8587(2)
H16 H 0.6307 0.0450 0.8241
H17 H 0.7428 0.0454 0.8662
C15 C 0.4379(3) 0.1788(3) 1.0144(3)
H18 H 0.3912 0.1873 0.9662
C16 C 0.3896(3) 0.2094(3) 1.1322(3)
H19 H 0.3029 0.2424 1.1796
C17 C 0.5955(3) 0.1382(3) 1.0764(3)
H20 H 0.6780 0.1130 1.0769
C18 C 0.7466(3) 0.6032(3) 0.3375(3)
C19 C 0.7836(3) 0.6030(3) 0.2028(3)
C20 C 0.8185(3) 0.7003(3) 0.1350(3)
H21 H 0.8165 0.7664 0.1739
C21 C 0.8563(3) 0.7014(3) 0.0104(3)
C22 C 0.8897(4) 0.8088(4) -0.0626(3)
C23 C 0.8620(4) 0.6003(4) -0.0464(3)
H22 H 0.8890 0.5985 -0.1298
C24 C 0.8285(5) 0.5040(4) 0.0187(4)
H23 H 0.8330 0.4374 -0.0209
C25 C 0.7875(4) 0.5040(3) 0.1440(3)
H24 H 0.7629 0.4384 0.1878
O1 O 0.6935(2) 0.5209(2) 0.3969(2)
O2 O 0.7726(2) 0.6825(2) 0.3808(2)
O3 O 0.8664(3) 0.9016(3) -0.0041(3)
O4 O 0.9318(4) 0.8008(3) -0.1738(2)
N1 N 0.8330(3) 0.5323(2) 0.6614(2)
N2 N 0.8036(2) 0.37105(19) 0.7639(2)
N3 N 0.5535(2) 0.2050(2) 0.6643(2)
N4 N 0.5054(3) 0.1765(2) 0.5122(2)
N5 N 0.8313(2) 0.04661(19) 0.5960(2)
N6 N 0.8315(3) -0.1304(2) 0.5473(2)
N7 N 0.5687(2) 0.13293(19) 0.97927(19)
N8 N 0.4901(3) 0.1837(2) 1.1705(2)
Ag1_2 Ag 0.81156(3) -0.31053(2) 0.56141(2)
Ag2_2 Ag 0.49009(3) 0.20125(3) 1.34363(2)
N6_2 N 0.8315(3) 0.8696(2) 0.5473(2)
N8_2 N 0.4901(3) 0.1837(2) 0.1705(2)
O5 O 0.5161(3) 0.5535(3) 0.6369(2)
H25 H 0.451(3) 0.532(4) 0.633(4)
H26 H 0.576(3) 0.544(4) 0.565(2)
O6 O 0.9918(5) 1.0765(4) -0.1357(3)
H27 H 0.969(7) 1.118(5) -0.072(4)
H28 H 0.964(7) 1.014(4) -0.112(6)
O7 O 0.7780(4) 0.1336(6) 0.2234(4)
H29 H 0.798(8) 0.188(5) 0.172(7)
H30 H 0.842(6) 0.076(5) 0.208(8)
O8 O 0.8655(4) 0.3074(3) 0.3858(5)
H31 H 0.827(9) 0.377(3) 0.395(8)
H32 H 0.901(10) 0.286(7) 0.312(3)
loop_
_geom_bond_atom_site_label_1
_geom_bond_atom_site_label_2
_geom_bond_site_symmetry_1
_geom_bond_site_symmetry_2
Ag1 O2 1_555 1_555
Ag2 N4 1_555 1_555
C1 H1 1_555 1_555
C2 H2 1_555 1_555
C3 C2 1_555 1_555
H3 C3 1_555 1_555
C4 H4 1_555 1_555
H5 C4 1_555 1_555
C5 C4 1_555 1_555
C6 C5 1_555 1_555
H6 C6 1_555 1_555
H7 C6 1_555 1_555
C7 H8 1_555 1_555
C8 H9 1_555 1_555
C9 C8 1_555 1_555
H10 C9 1_555 1_555
C10 C5 1_555 1_555
H11 C10 1_555 1_555
H12 C10 1_555 1_555
C11 H13 1_555 1_555
C12 C11 1_555 1_555
H14 C12 1_555 1_555
C13 H15 1_555 1_555
C14 C5 1_555 1_555
H16 C14 1_555 1_555
H17 C14 1_555 1_555
C15 H18 1_555 1_555
C16 C15 1_555 1_555
H19 C16 1_555 1_555
C17 H20 1_555 1_555
C18 C19 1_555 1_555
C19 C20 1_555 1_555
C20 H21 1_555 1_555
C21 C20 1_555 1_555
C22 C21 1_555 1_555
C23 C21 1_555 1_555
H22 C23 1_555 1_555
C24 C23 1_555 1_555
H23 C24 1_555 1_555
C25 C19 1_555 1_555
H24 C25 1_555 1_555
O1 C18 1_555 1_555
O2 C18 1_555 1_555
O3 C22 1_555 1_555
O4 C22 1_555 1_555
N1 Ag1 1_555 1_555
N2 C1 1_555 1_555
N3 C6 1_555 1_555
N4 C7 1_555 1_555
N5 C10 1_555 1_555
N6 C12 1_555 1_555
N7 C14 1_555 1_555
N8 C16 1_555 1_555
O5 H25 1_555 1_555
H26 O5 1_555 1_555
O6 H27 1_555 1_555
H28 O6 1_555 1_555
O7 H29 1_555 1_555
H30 O7 1_555 1_555
O8 H31 1_555 1_555
H32 O8 1_555 1_555
Ag1_2 N6 1_555 1_555
Ag2_2 N8 1_555 1_555
N6_2 Ag1 1_555 1_555
N8_2 Ag2 1_555 1_555
C1 N1 1_555 1_555
C2 N2 1_555 1_555
C3 N1 1_555 1_555
C4 N2 1_555 1_555
C7 N3 1_555 1_555
C8 N3 1_555 1_555
C9 N4 1_555 1_555
C11 N5 1_555 1_555
C13 N5 1_555 1_555
C13 N6 1_555 1_555
C15 N7 1_555 1_555
C17 N7 1_555 1_555
C17 N8 1_555 1_555
C24 C25 1_555 1_555

#END
