
#######################################################################
#
#                 Cambridge Crystallographic Data Centre
#                                CCDC 
#
#######################################################################
#
# If this CIF has been generated from an entry in the Cambridge 
# Structural Database, then it will include bibliographic, chemical, 
# crystal, experimental, refinement or atomic coordinate data resulting 
# from the CCDC's data processing and validation procedures.
#
#######################################################################

data_EBIBOH
_symmetry_cell_setting           monoclinic
_symmetry_space_group_name_H-M   'P 21'
_symmetry_Int_Tables_number      4
_space_group_name_Hall           'P 2yb'
loop_
_symmetry_equiv_pos_site_id
_symmetry_equiv_pos_as_xyz
1 x,y,z
2 -x,1/2+y,-z
_cell_length_a                   12.8761(2)
_cell_length_b                   18.0335(3)
_cell_length_c                   14.2517(2)
_cell_angle_alpha                90
_cell_angle_beta                 115.2370(10)
_cell_angle_gamma                90
_cell_volume                     2993.4
loop_
_atom_site_label
_atom_site_type_symbol
_atom_site_fract_x
_atom_site_fract_y
_atom_site_fract_z
Cu1 Cu 1.00327(6) 0.38746(4) 0.59975(6)
O1 O 0.9557(3) 0.4280(2) 0.7026(3)
C1 C 0.8522(5) 0.4620(3) 0.6775(5)
C2 C 0.8469(6) 0.5206(4) 0.7395(5)
H1 H 0.9129 0.5374 0.7949
C3 C 0.7405(7) 0.5534(4) 0.7167(6)
H2 H 0.7359 0.5914 0.7588
C4 C 0.6436(7) 0.5311(4) 0.6341(6)
H3 H 0.5734 0.5533 0.6203
C5 C 0.6505(6) 0.4752(4) 0.5713(6)
H4 H 0.5849 0.4615 0.5131
C6 C 0.7546(6) 0.4385(4) 0.5930(5)
C7 C 0.7571(5) 0.3783(4) 0.5201(5)
H5 H 0.6831 0.3756 0.4606
H6 H 0.7721 0.3308 0.5553
N1 N 0.8497(4) 0.3950(3) 0.4844(4)
H7 H 0.8399 0.4425 0.4609
C8 C 0.8411(5) 0.3458(4) 0.3975(5)
H8 H 0.8096 0.2986 0.4077
C9 C 0.9651(5) 0.3294(3) 0.4110(5)
O2 O 1.0489(3) 0.3434(3) 0.4976(3)
O3 O 0.9783(4) 0.3009(3) 0.3355(3)
C10 C 0.7573(6) 0.3753(5) 0.2926(5)
H9 H 0.6891 0.3907 0.3016
C11 C 0.7152(7) 0.3142(6) 0.2068(6)
H10 H 0.7066 0.2681 0.2365
H11 H 0.7704 0.3083 0.1787
H12 H 0.6426 0.3286 0.1526
C12 C 0.7989(9) 0.4421(5) 0.2612(6)
H13 H 0.7433 0.4579 0.1942
H14 H 0.8702 0.4315 0.2578
H15 H 0.8104 0.4808 0.3110
Cu2 Cu 1.09785(6) 0.42325(4) 0.82864(6)
O4 O 1.1495(3) 0.3914(3) 0.7244(3)
C13 C 1.2603(5) 0.3992(4) 0.7381(5)
C14 C 1.2809(6) 0.4198(4) 0.6533(5)
H16 H 1.2205 0.4250 0.5879
C15 C 1.3941(6) 0.4325(5) 0.6684(6)
H17 H 1.4091 0.4491 0.6136
C16 C 1.4839(6) 0.4205(5) 0.7649(7)
H18 H 1.5594 0.4267 0.7742
C17 C 1.4613(6) 0.3997(5) 0.8459(6)
H19 H 1.5216 0.3940 0.9112
C18 C 1.3481(5) 0.3865(4) 0.8327(5)
C19 C 1.3220(6) 0.3634(4) 0.9214(5)
H20 H 1.2777 0.3179 0.9042
H21 H 1.3929 0.3545 0.9826
N2 N 1.2552(4) 0.4239(3) 0.9426(4)
H22 H 1.2885 0.4679 0.9400
C20 C 1.2473(5) 0.4200(4) 1.0446(5)
H23 H 1.2533 0.3676 1.0644
C21 C 1.1279(6) 0.4461(4) 1.0270(6)
O5 O 1.0554(4) 0.4594(3) 0.9336(3)
O6 O 1.1063(4) 0.4551(3) 1.1035(4)
C22 C 1.3466(6) 0.4620(4) 1.1339(5)
H24 H 1.3262 0.5147 1.1258
C23 C 1.3577(8) 0.4390(5) 1.2401(5)
H25 H 1.2863 0.4478 1.2444
H26 H 1.4174 0.4675 1.2925
H27 H 1.3765 0.3872 1.2507
C24 C 1.4620(6) 0.4557(5) 1.1315(6)
H28 H 1.4560 0.4719 1.0652
H29 H 1.4872 0.4050 1.1428
H30 H 1.5166 0.4862 1.1851
Cu3 Cu 1.03323(7) 0.23537(4) 1.11256(6)
O7 O 0.9853(4) 0.1751(3) 1.2020(3)
C25 C 0.8779(6) 0.1493(4) 1.1772(6)
C26 C 0.8425(6) 0.1310(5) 1.2538(6)
H31 H 0.8939 0.1362 1.3231
C27 C 0.7326(7) 0.1050(5) 1.2299(7)
H32 H 0.7120 0.0925 1.2829
C28 C 0.6552(7) 0.0980(4) 1.1297(7)
H33 H 0.5811 0.0812 1.1131
C29 C 0.6890(6) 0.1162(4) 1.0529(6)
H34 H 0.6357 0.1130 0.9840
C30 C 0.7995(6) 0.1391(4) 1.0747(5)
C31 C 0.8343(8) 0.1488(4) 0.9860(6)
H35 H 0.8889 0.1105 0.9902
H36 H 0.7671 0.1429 0.9206
N3 N 0.8867(5) 0.2232(3) 0.9884(4)
H37 H 0.8374 0.2574 0.9936
C32 C 0.9023(5) 0.2424(4) 0.8933(4)
H38 H 0.8967 0.1960 0.8556
C33 C 1.0214(5) 0.2728(3) 0.9227(5)
O8 O 1.0907(4) 0.2767(2) 1.0190(3)
O9 O 1.0495(4) 0.2952(2) 0.8539(3)
C34 C 0.8084(6) 0.2954(4) 0.8180(5)
H39 H 0.8319 0.3090 0.7633
C35 C 0.8026(6) 0.3659(4) 0.8716(6)
H40 H 0.7531 0.4006 0.8213
H41 H 0.8781 0.3867 0.9062
H42 H 0.7728 0.3555 0.9215
C36 C 0.6906(7) 0.2600(5) 0.7647(7)
H43 H 0.6965 0.2143 0.7329
H44 H 0.6397 0.2931 0.7126
H45 H 0.6609 0.2504 0.8150
Cu4 Cu 1.10175(7) 0.20638(4) 0.33800(6)
O10 O 1.1659(3) 0.2496(3) 0.2459(3)
C37 C 1.2805(5) 0.2483(3) 0.2773(5)
C38 C 1.3277(6) 0.2273(4) 0.2074(5)
H46 H 1.2800 0.2163 0.1386
C39 C 1.4464(6) 0.2235(4) 0.2438(6)
H47 H 1.4778 0.2101 0.1984
C40 C 1.5189(6) 0.2394(4) 0.3460(6)
H48 H 1.5980 0.2344 0.3704
C41 C 1.4706(6) 0.2629(4) 0.4107(5)
H49 H 1.5189 0.2759 0.4786
C42 C 1.3540(5) 0.2678(3) 0.3785(5)
C43 C 1.3049(6) 0.2971(4) 0.4502(5)
H50 H 1.3672 0.3099 0.5163
H51 H 1.2615 0.3418 0.4207
N4 N 1.2280(4) 0.2413(3) 0.4675(4)
H52 H 1.1953 0.2644 0.5049
C44 C 1.2860(6) 0.1738(3) 0.5261(5)
H53 H 1.3316 0.1541 0.4915
C45 C 1.1894(6) 0.1156(4) 0.5077(5)
O11 O 1.0936(4) 0.1287(3) 0.4304(3)
O12 O 1.2084(4) 0.0621(3) 0.5648(4)
C46 C 1.3676(9) 0.1862(5) 0.6356(7)
H54 H 1.4144 0.2292 0.6361
C47 C 1.3050(13) 0.2072(6) 0.7051(7)
H55 H 1.3609 0.2153 0.7750
H56 H 1.2547 0.1675 0.7039
H57 H 1.2610 0.2516 0.6789
C48 C 1.4491(9) 0.1227(6) 0.6810(9)
H58 H 1.4939 0.1157 0.6424
H59 H 1.4064 0.0784 0.6777
H60 H 1.4992 0.1334 0.7521
O13 O 1.0410(9) 0.5120(5) 0.5506(9)
H61 H 1.080(8) 0.525(3) 0.6179(16)
H62 H 0.971(4) 0.528(3) 0.543(8)
O14 O 0.9601(4) 0.3513(3) 1.1390(3)
H63 H 0.966(4) 0.340(3) 1.2028(19)
H64 H 1.026(3) 0.377(2) 1.159(4)
O15 O 0.9582(6) 0.2634(4) 0.6461(7)
H65 H 0.9619 0.2653 0.7049
C49 C 0.9930(9) 0.1895(6) 0.6277(9)
H66 H 0.9904 0.1884 0.5587
H67 H 1.0720 0.1811 0.6769
C50 C 0.9253(8) 0.1313(7) 0.6362(9)
H68 H 0.9336 0.1304 0.7071
H69 H 0.9569 0.0851 0.6247
C51 C 0.8031(8) 0.1321(7) 0.5678(9)
H70 H 0.7939 0.1296 0.4966
H71 H 0.7716 0.1791 0.5763
C52 C 0.7361(9) 0.0725(6) 0.5840(9)
H72 H 0.6568 0.0783 0.5367
H73 H 0.7439 0.0744 0.6540
H74 H 0.7636 0.0256 0.5720
O10_2 O 1.1659(3) 0.2496(3) 1.2459(3)
Cu4_2 Cu 1.10175(7) 0.20638(4) 1.33800(6)
O7_2 O 0.9853(4) 0.1751(3) 0.2020(3)
Cu3_2 Cu 1.03323(7) 0.23537(4) 0.11256(6)
O16 O 0.9739(12) 0.5719(8) 0.1072(10)
C53 C 0.8639(13) 0.5704(12) 0.0097(14)
H76 H 0.8530 0.6201 -0.0190
H77 H 0.8774 0.5386 -0.0388
C54 C 0.7545(16) 0.5480(10) 0.0071(17)
H78 H 0.7601 0.4966 0.0289
H79 H 0.6965 0.5507 -0.0639
C55 C 0.7158(17) 0.5924(10) 0.0727(14)
H80 H 0.6603 0.5637 0.0866
H81 H 0.7811 0.6013 0.1386
C56 C 0.6651(18) 0.6626(10) 0.0299(17)
H82 H 0.6355 0.6854 0.0744
H83 H 0.6037 0.6551 -0.0376
H84 H 0.7222 0.6942 0.0244
H75? H 1.0270 0.5839 0.0931
O17? O 0.9155(14) 0.6004(9) -0.0355(12)
H85? H 0.9703 0.6263 -0.0297
C57? C 0.9198(17) 0.5863(15) 0.0688(15)
H86? H 0.9892 0.5593 0.1116
H87? H 0.9194 0.6327 0.1029
C58? C 0.8226(16) 0.5442(12) 0.0542(18)
H88? H 0.8289 0.5336 0.1231
H89? H 0.8320 0.4971 0.0257
C59? C 0.7044(15) 0.5660(13) -0.0068(16)
H90? H 0.6990 0.5843 -0.0727
H91? H 0.6581 0.5214 -0.0214
C60? C 0.6519(18) 0.6196(14) 0.032(2)
H92? H 0.5754 0.6293 -0.0193
H93? H 0.6958 0.6646 0.0475
H94? H 0.6489 0.6010 0.0939
loop_
_geom_bond_atom_site_label_1
_geom_bond_atom_site_label_2
_geom_bond_site_symmetry_1
_geom_bond_site_symmetry_2
Cu1 O1 1_555 1_555
O1 C1 1_555 1_555
C1 C2 1_555 1_555
C2 H1 1_555 1_555
C3 C2 1_555 1_555
H2 C3 1_555 1_555
C4 C3 1_555 1_555
H3 C4 1_555 1_555
C5 C4 1_555 1_555
H4 C5 1_555 1_555
C6 C1 1_555 1_555
C7 C6 1_555 1_555
H5 C7 1_555 1_555
H6 C7 1_555 1_555
N1 Cu1 1_555 1_555
H7 N1 1_555 1_555
C8 N1 1_555 1_555
H8 C8 1_555 1_555
C9 C8 1_555 1_555
O2 Cu1 1_555 1_555
O3 C9 1_555 1_555
C10 C8 1_555 1_555
H9 C10 1_555 1_555
C11 C10 1_555 1_555
H10 C11 1_555 1_555
H11 C11 1_555 1_555
H12 C11 1_555 1_555
C12 C10 1_555 1_555
H13 C12 1_555 1_555
H14 C12 1_555 1_555
H15 C12 1_555 1_555
Cu2 O1 1_555 1_555
O4 Cu1 1_555 1_555
C13 O4 1_555 1_555
C14 C13 1_555 1_555
H16 C14 1_555 1_555
C15 C14 1_555 1_555
H17 C15 1_555 1_555
C16 C15 1_555 1_555
H18 C16 1_555 1_555
C17 C16 1_555 1_555
H19 C17 1_555 1_555
C18 C13 1_555 1_555
C19 C18 1_555 1_555
H20 C19 1_555 1_555
H21 C19 1_555 1_555
N2 Cu2 1_555 1_555
H22 N2 1_555 1_555
C20 N2 1_555 1_555
H23 C20 1_555 1_555
C21 C20 1_555 1_555
O5 Cu2 1_555 1_555
O6 C21 1_555 1_555
C22 C20 1_555 1_555
H24 C22 1_555 1_555
C23 C22 1_555 1_555
H25 C23 1_555 1_555
H26 C23 1_555 1_555
H27 C23 1_555 1_555
C24 C22 1_555 1_555
H28 C24 1_555 1_555
H29 C24 1_555 1_555
H30 C24 1_555 1_555
Cu3 O7 1_555 1_555
O7 C25 1_555 1_555
C25 C26 1_555 1_555
C26 H31 1_555 1_555
C27 C26 1_555 1_555
H32 C27 1_555 1_555
C28 C27 1_555 1_555
H33 C28 1_555 1_555
C29 C28 1_555 1_555
H34 C29 1_555 1_555
C30 C25 1_555 1_555
C31 C30 1_555 1_555
H35 C31 1_555 1_555
H36 C31 1_555 1_555
N3 Cu3 1_555 1_555
H37 N3 1_555 1_555
C32 N3 1_555 1_555
H38 C32 1_555 1_555
C33 C32 1_555 1_555
O8 Cu3 1_555 1_555
O9 Cu2 1_555 1_555
C34 C32 1_555 1_555
H39 C34 1_555 1_555
C35 C34 1_555 1_555
H40 C35 1_555 1_555
H41 C35 1_555 1_555
H42 C35 1_555 1_555
C36 C34 1_555 1_555
H43 C36 1_555 1_555
H44 C36 1_555 1_555
H45 C36 1_555 1_555
Cu4 O3 1_555 1_555
O10 Cu4 1_555 1_555
C37 O10 1_555 1_555
C38 C37 1_555 1_555
H46 C38 1_555 1_555
C39 C38 1_555 1_555
H47 C39 1_555 1_555
C40 C39 1_555 1_555
H48 C40 1_555 1_555
C41 C40 1_555 1_555
H49 C41 1_555 1_555
C42 C37 1_555 1_555
C43 C42 1_555 1_555
H50 C43 1_555 1_555
H51 C43 1_555 1_555
N4 Cu4 1_555 1_555
H52 N4 1_555 1_555
C44 N4 1_555 1_555
H53 C44 1_555 1_555
C45 C44 1_555 1_555
O11 Cu4 1_555 1_555
O12 C45 1_555 1_555
C46 C44 1_555 1_555
H54 C46 1_555 1_555
C47 C46 1_555 1_555
H55 C47 1_555 1_555
H56 C47 1_555 1_555
H57 C47 1_555 1_555
C48 C46 1_555 1_555
H58 C48 1_555 1_555
H59 C48 1_555 1_555
H60 C48 1_555 1_555
O13 Cu1 1_555 1_555
H61 O13 1_555 1_555
H62 O13 1_555 1_555
O14 Cu3 1_555 1_555
H63 O14 1_555 1_555
H64 O14 1_555 1_555
O15 Cu1 1_555 1_555
H65 O15 1_555 1_555
C49 O15 1_555 1_555
H66 C49 1_555 1_555
H67 C49 1_555 1_555
C50 C49 1_555 1_555
H68 C50 1_555 1_555
H69 C50 1_555 1_555
C51 C50 1_555 1_555
H70 C51 1_555 1_555
H71 C51 1_555 1_555
C52 C51 1_555 1_555
H72 C52 1_555 1_555
H73 C52 1_555 1_555
H74 C52 1_555 1_555
O16 C53 1_555 1_555
C53 H76 1_555 1_555
H77 C53 1_555 1_555
C54 C53 1_555 1_555
H78 C54 1_555 1_555
H79 C54 1_555 1_555
C55 C54 1_555 1_555
H80 C55 1_555 1_555
H81 C55 1_555 1_555
C56 C55 1_555 1_555
H82 C56 1_555 1_555
H83 C56 1_555 1_555
H84 C56 1_555 1_555
O10_2 Cu3 1_555 1_555
Cu4_2 O7 1_555 1_555
O7_2 Cu4 1_555 1_555
Cu3_2 O10 1_555 1_555
C5 C6 1_555 1_555
C7 N1 1_555 1_555
C9 O2 1_555 1_555
Cu2 O4 1_555 1_555
C17 C18 1_555 1_555
C19 N2 1_555 1_555
C21 O5 1_555 1_555
C29 C30 1_555 1_555
C31 N3 1_555 1_555
C33 O8 1_555 1_555
C33 O9 1_555 1_555
C41 C42 1_555 1_555
C43 N4 1_555 1_555
C45 O11 1_555 1_555
O10_2 Cu4_2 1_555 1_555
O7_2 Cu3_2 1_555 1_555

#END
