
#######################################################################
#
#                 Cambridge Crystallographic Data Centre
#                                CCDC 
#
#######################################################################
#
# If this CIF has been generated from an entry in the Cambridge 
# Structural Database, then it will include bibliographic, chemical, 
# crystal, experimental, refinement or atomic coordinate data resulting 
# from the CCDC's data processing and validation procedures.
#
#######################################################################

data_EBIBEY
_symmetry_cell_setting           monoclinic
_symmetry_space_group_name_H-M   'P 21/n'
_symmetry_Int_Tables_number      14
_space_group_name_Hall           '-P 2yn'
loop_
_symmetry_equiv_pos_site_id
_symmetry_equiv_pos_as_xyz
1 x,y,z
2 1/2-x,1/2+y,1/2-z
3 -x,-y,-z
4 1/2+x,1/2-y,1/2+z
_cell_length_a                   11.406(5)
_cell_length_b                   17.637(5)
_cell_length_c                   16.979(5)
_cell_angle_alpha                90
_cell_angle_beta                 106.836(5)
_cell_angle_gamma                90
_cell_volume                     3269.22
loop_
_atom_site_label
_atom_site_type_symbol
_atom_site_fract_x
_atom_site_fract_y
_atom_site_fract_z
Ag1 Ag 0.30045(3) 0.966870(16) 0.372259(17)
Ag2 Ag -0.61012(3) 0.951070(18) 0.045340(18)
C1 C -0.4275(3) 0.7375(2) 0.1221(2)
H1 H -0.4198 0.6850 0.1226
C2 C -0.5246(3) 0.7783(2) 0.0795(2)
H2 H -0.5967 0.7582 0.0451
C3 C -0.3914(3) 0.85802(19) 0.1466(2)
H3 H -0.3526 0.9029 0.1684
C4 C -0.2185(3) 0.7737(2) 0.21742(18)
H4 H -0.2235 0.7339 0.2557
H5 H -0.1891 0.8190 0.2495
C5 C -0.1223(3) 0.75006(17) 0.17410(17)
C6 C -0.0047(3) 0.72624(17) 0.24136(18)
H6 H -0.0234 0.6823 0.2699
H7 H 0.0562 0.7109 0.2148
C7 C 0.0223(3) 0.79990(19) 0.37488(18)
H8 H -0.0360 0.7758 0.3946
C8 C 0.0979(3) 0.85661(19) 0.41136(19)
H9 H 0.1002 0.8785 0.4616
C9 C 0.1390(3) 0.8322(2) 0.29870(19)
H10 H 0.1746 0.8330 0.2559
C10 C -0.0854(3) 0.81436(18) 0.12404(18)
H11 H -0.0433 0.8530 0.1625
H12 H -0.0268 0.7938 0.0982
C11 C -0.2501(4) 0.8226(2) -0.0144(2)
H13 H -0.2459 0.7737 -0.0340
C12 C -0.3239(4) 0.8795(2) -0.0535(2)
H14 H -0.3808 0.8757 -0.1052
C13 C -0.2171(3) 0.92412(19) 0.0612(2)
H15 H -0.1841 0.9571 0.1047
C14 C -0.1671(3) 0.67716(18) 0.12321(19)
H16 H -0.1981 0.6423 0.1566
H17 H -0.2349 0.6905 0.0758
C15 C -0.0016(3) 0.58185(19) 0.1335(2)
H18 H -0.0029 0.5623 0.1841
C16 C -0.0445(3) 0.6502(2) 0.02187(19)
H19 H -0.0789 0.6856 -0.0188
C17 C 0.0443(3) 0.6005(2) 0.02241(19)
H20 H 0.0820 0.5957 -0.0191
C18 C 0.1860(4) 0.9644(2) 0.1541(2)
C19 C 0.0891(3) 0.9828(2) 0.07395(18)
C20 C 0.0296(3) 1.0521(2) 0.06278(19)
H21 H 0.0495 1.0877 0.1050
C21 C 0.0589(3) 0.9305(2) 0.00983(19)
H22 H 0.0983 0.8838 0.0158
O1 O 0.2531(2) 0.90791(15) 0.15558(14)
O2 O 0.1921(4) 1.00624(17) 0.21456(15)
N1 N -0.5016(3) 0.85400(17) 0.09428(17)
N2 N -0.3421(2) 0.78875(15) 0.16458(16)
N3 N 0.0491(2) 0.78500(15) 0.30254(14)
N4 N 0.1708(3) 0.87712(16) 0.36315(16)
N5 N -0.1830(3) 0.85159(15) 0.05987(15)
N6 N -0.3025(3) 0.94330(17) -0.00607(17)
N7 N -0.0747(2) 0.63802(15) 0.09449(15)
N8 N 0.0717(3) 0.55778(15) 0.09237(16)
Ag1B Ag -0.30045(3) 1.033130(16) -0.372259(17)
Ag1A Ag 0.19955(3) 0.466870(16) 0.127741(17)
Ag1A_2 Ag 0.19955(3) 1.466870(16) 0.127741(17)
Ag2A Ag 1.11012(3) 1.451070(18) 0.454660(18)
Ag2B Ag -0.38988(3) 1.048930(18) -0.045340(18)
Ag2C Ag 0.88988(3) 1.548930(18) 0.545340(18)
C1A C 0.9275(3) 1.2375(2) 0.3779(2)
H1A H 0.9198 1.1850 0.3774
C2A C 1.0246(3) 1.2783(2) 0.4205(2)
H2A H 1.0967 1.2582 0.4549
C3A C 0.8914(3) 1.35802(19) 0.3534(2)
H3A H 0.8526 1.4029 0.3316
C4A C 0.7185(3) 1.2737(2) 0.28258(18)
H4A H 0.7235 1.2339 0.2443
H5A H 0.6891 1.3190 0.2505
C5A C 0.6223(3) 1.25006(17) 0.32590(17)
C6A C 0.5047(3) 1.22624(17) 0.25864(18)
H6A H 0.5234 1.1823 0.2301
H7A H 0.4438 1.2109 0.2852
C7A C 0.4777(3) 1.29990(19) 0.12512(18)
H8A H 0.5360 1.2758 0.1054
C8A C 0.4021(3) 1.35661(19) 0.08864(19)
H9A H 0.3998 1.3785 0.0384
C9A C 0.3610(3) 1.3322(2) 0.20130(19)
H10A H 0.3254 1.3330 0.2441
C10A C 0.5854(3) 1.31436(18) 0.37596(18)
H11A H 0.5433 1.3530 0.3375
H12A H 0.5268 1.2938 0.4018
C11A C 0.7501(4) 1.3226(2) 0.5144(2)
H13A H 0.7459 1.2737 0.5340
C12A C 0.8239(4) 1.3795(2) 0.5535(2)
H14A H 0.8808 1.3757 0.6052
C13A C 0.7171(3) 1.42412(19) 0.4388(2)
H15A H 0.6841 1.4571 0.3953
C14A C 0.6671(3) 1.17716(18) 0.37679(19)
H16A H 0.6981 1.1423 0.3434
H17A H 0.7349 1.1905 0.4242
C15A C 0.5016(3) 1.08185(19) 0.3665(2)
H18A H 0.5029 1.0623 0.3159
C16A C 0.5445(3) 1.1502(2) 0.47813(19)
H19A H 0.5789 1.1856 0.5188
C17A C 0.4557(3) 1.1005(2) 0.47759(19)
H20A H 0.4180 1.0957 0.5191
C18B C -0.1860(4) 1.0356(2) -0.1541(2)
C19B C -0.0891(3) 1.0172(2) -0.07395(18)
C20B C -0.0296(3) 0.9479(2) -0.06278(19)
H21B H -0.0495 0.9123 -0.1050
C21B C -0.0589(3) 1.0695(2) -0.00983(19)
H22B H -0.0983 1.1162 -0.0158
O1B O -0.2531(2) 1.09209(15) -0.15558(14)
O2B O -0.1921(4) 0.99376(17) -0.21456(15)
N1A N 1.0016(3) 1.35400(17) 0.40572(17)
N2A N 0.8421(2) 1.28875(15) 0.33542(16)
N3A N 0.4509(2) 1.28500(15) 0.19746(14)
N4A N 0.3292(3) 1.37712(16) 0.13685(16)
N4B N -0.1708(3) 1.12288(16) -0.36315(16)
N5A N 0.6830(3) 1.35159(15) 0.44013(15)
N6A N 0.8025(3) 1.44330(17) 0.50607(17)
N6B N -0.6975(3) 1.05670(17) 0.00607(17)
N6C N 1.1975(3) 1.55670(17) 0.49393(17)
N7A N 0.5747(2) 1.13802(15) 0.40551(15)
N8A N 0.4283(3) 1.05778(15) 0.40763(16)
N8C N -0.4283(3) 0.94222(15) -0.40763(16)
C22 C 0.7849(4) 0.9618(2) 0.3641(2)
C23 C 0.8959(3) 0.98280(19) 0.4346(2)
C24 C 0.9097(3) 0.95335(19) 0.5132(2)
H23 H 0.8495 0.9220 0.5226
C25 C 0.9875(4) 1.0293(2) 0.4231(2)
H24 H 0.9794 1.0493 0.3711
O3 O 0.7112(3) 0.91468(18) 0.37512(16)
O4 O 0.7740(3) 0.9949(2) 0.29712(18)
C22B C 1.2151(4) 1.0382(2) 0.6359(2)
C23B C 1.1041(3) 1.01720(19) 0.5654(2)
C24B C 1.0903(3) 1.04665(19) 0.4868(2)
H23B H 1.1505 1.0780 0.4774
C25B C 1.0125(4) 0.9707(2) 0.5769(2)
H24B H 1.0206 0.9507 0.6289
O3B O 1.2888(3) 1.08532(18) 0.62488(16)
O4B O 1.2260(3) 1.0051(2) 0.70288(18)
O5 O 0.1309(6) 0.1396(3) 0.2681(3)
O6 O 0.9167(6) 0.0384(4) 0.2091(3)
O7 O 0.4515(3) 0.89182(18) 0.29635(16)
H25 H 0.402(3) 0.903(3) 0.2499(17)
H26 H 0.523(2) 0.907(3) 0.300(3)
O8 O 0.6978(3) 0.7710(2) 0.44281(18)
H27 H 0.627(3) 0.757(3) 0.413(3)
H28 H 0.723(5) 0.807(2) 0.416(3)
O9 O 0.4513(4) 0.75051(19) 0.36267(18)
H29 H 0.442(6) 0.7953(14) 0.344(3)
H30 H 0.458(6) 0.722(3) 0.324(3)
O10 O 0.5720(3) 1.0492(2) 0.1836(2)
H31 H 0.628(4) 1.033(3) 0.226(2)
H32 H 0.596(5) 1.058(4) 0.142(2)
O11 O 0.7168(5) 0.1380(3) 0.1089(3)
H33 H 0.769(6) 0.144(5) 0.150(3)
H34 H 0.750(8) 0.105(4) 0.092(5)
O12 O 0.2955(3) 0.25101(17) 0.37899(17)
H35 H 0.293(5) 0.240(3) 0.4282(16)
H36 H 0.268(5) 0.2957(15) 0.369(3)
O13? O 0.2178(10) 0.1603(4) 0.2425(5)
O14? O 0.8876(13) 0.0965(8) 0.2201(7)
loop_
_geom_bond_atom_site_label_1
_geom_bond_atom_site_label_2
_geom_bond_site_symmetry_1
_geom_bond_site_symmetry_2
Ag1 O2 1_555 1_555
Ag2 N1 1_555 1_555
C1 H1 1_555 1_555
C2 C1 1_555 1_555
H2 C2 1_555 1_555
C3 H3 1_555 1_555
C4 H4 1_555 1_555
H5 C4 1_555 1_555
C5 C4 1_555 1_555
C6 C5 1_555 1_555
H6 C6 1_555 1_555
H7 C6 1_555 1_555
C7 H8 1_555 1_555
C8 C7 1_555 1_555
H9 C8 1_555 1_555
C9 H10 1_555 1_555
C10 C5 1_555 1_555
H11 C10 1_555 1_555
H12 C10 1_555 1_555
C11 H13 1_555 1_555
C12 C11 1_555 1_555
H14 C12 1_555 1_555
C13 H15 1_555 1_555
C14 C5 1_555 1_555
H16 C14 1_555 1_555
H17 C14 1_555 1_555
C15 H18 1_555 1_555
C16 H19 1_555 1_555
C17 C16 1_555 1_555
H20 C17 1_555 1_555
C18 C19 1_555 1_555
C19 C20 1_555 1_555
C20 H21 1_555 1_555
C21 C19 1_555 1_555
H22 C21 1_555 1_555
C22 C23 1_555 1_555
C23 C24 1_555 1_555
C24 H23 1_555 1_555
C25 C23 1_555 1_555
H24 C25 1_555 1_555
O1 C18 1_555 1_555
O2 C18 1_555 1_555
O3 C22 1_555 1_555
O4 C22 1_555 1_555
N1 C2 1_555 1_555
N2 C1 1_555 1_555
N3 C6 1_555 1_555
N4 Ag1 1_555 1_555
N5 C10 1_555 1_555
N6 C12 1_555 1_555
N7 C14 1_555 1_555
N8 C15 1_555 1_555
O7 H25 1_555 1_555
H26 O7 1_555 1_555
O8 H27 1_555 1_555
H28 O8 1_555 1_555
O9 H29 1_555 1_555
H30 O9 1_555 1_555
O10 H31 1_555 1_555
H32 O10 1_555 1_555
O11 H33 1_555 1_555
H34 O11 1_555 1_555
O12 H35 1_555 1_555
H36 O12 1_555 1_555
Ag1B O2B 1_555 1_555
Ag1A N8 1_555 1_555
Ag1A_2 N4A 1_555 1_555
Ag2A N1A 1_555 1_555
Ag2B N6 1_555 1_555
Ag2C N6A 1_555 1_555
C1A H1A 1_555 1_555
C2A C1A 1_555 1_555
H2A C2A 1_555 1_555
C3A H3A 1_555 1_555
C4A H4A 1_555 1_555
H5A C4A 1_555 1_555
C5A C4A 1_555 1_555
C6A C5A 1_555 1_555
H6A C6A 1_555 1_555
H7A C6A 1_555 1_555
C7A H8A 1_555 1_555
C8A C7A 1_555 1_555
H9A C8A 1_555 1_555
C9A H10A 1_555 1_555
C10A C5A 1_555 1_555
H11A C10A 1_555 1_555
H12A C10A 1_555 1_555
C11A H13A 1_555 1_555
C12A C11A 1_555 1_555
H14A C12A 1_555 1_555
C13A H15A 1_555 1_555
C14A C5A 1_555 1_555
H16A C14A 1_555 1_555
H17A C14A 1_555 1_555
C15A H18A 1_555 1_555
C16A H19A 1_555 1_555
C17A C16A 1_555 1_555
H20A C17A 1_555 1_555
C18B C19B 1_555 1_555
C19B C20B 1_555 1_555
C20B C21 1_555 1_555
H21B C20B 1_555 1_555
C21B C20 1_555 1_555
H22B C21B 1_555 1_555
C22B C23B 1_555 1_555
C23B C24B 1_555 1_555
C24B C25 1_555 1_555
H23B C24B 1_555 1_555
C25B C24 1_555 1_555
H24B C25B 1_555 1_555
O1B C18B 1_555 1_555
O2B C18B 1_555 1_555
O3B C22B 1_555 1_555
O4B C22B 1_555 1_555
N1A C2A 1_555 1_555
N2A C1A 1_555 1_555
N3A C6A 1_555 1_555
N4A C8A 1_555 1_555
N4B Ag1B 1_555 1_555
N5A C10A 1_555 1_555
N6A C12A 1_555 1_555
N6B Ag2 1_555 1_555
N6C Ag2A 1_555 1_555
N7A C14A 1_555 1_555
N8A Ag1 1_555 1_555
N8C Ag1B 1_555 1_555
C3 N1 1_555 1_555
C3 N2 1_555 1_555
C4 N2 1_555 1_555
C7 N3 1_555 1_555
C8 N4 1_555 1_555
C9 N3 1_555 1_555
C9 N4 1_555 1_555
C11 N5 1_555 1_555
C13 N5 1_555 1_555
C13 N6 1_555 1_555
C15 N7 1_555 1_555
C16 N7 1_555 1_555
C17 N8 1_555 1_555
C3A N1A 1_555 1_555
C3A N2A 1_555 1_555
C4A N2A 1_555 1_555
C7A N3A 1_555 1_555
C9A N3A 1_555 1_555
C9A N4A 1_555 1_555
C11A N5A 1_555 1_555
C13A N5A 1_555 1_555
C13A N6A 1_555 1_555
C15A N7A 1_555 1_555
C15A N8A 1_555 1_555
C16A N7A 1_555 1_555
C17A N8A 1_555 1_555
C19B C21B 1_555 1_555
C23B C25B 1_555 1_555

#END
