
#######################################################################
#
#                 Cambridge Crystallographic Data Centre
#                                CCDC 
#
#######################################################################
#
# If this CIF has been generated from an entry in the Cambridge 
# Structural Database, then it will include bibliographic, chemical, 
# crystal, experimental, refinement or atomic coordinate data resulting 
# from the CCDC's data processing and validation procedures.
#
#######################################################################

data_EBICOJ
_symmetry_cell_setting           monoclinic
_symmetry_space_group_name_H-M   'C 2/c'
_symmetry_Int_Tables_number      15
_space_group_name_Hall           '-C 2yn'
loop_
_symmetry_equiv_pos_site_id
_symmetry_equiv_pos_as_xyz
1 x,y,z
2 -x,y,1/2-z
3 1/2+x,1/2+y,z
4 1/2-x,1/2+y,1/2-z
5 -x,-y,-z
6 x,-y,1/2+z
7 1/2-x,1/2-y,-z
8 1/2+x,1/2-y,1/2+z
_cell_length_a                   13.246(14)
_cell_length_b                   22.90(2)
_cell_length_c                   17.291(18)
_cell_angle_alpha                90
_cell_angle_beta                 96.236(18)
_cell_angle_gamma                90
_cell_volume                     5213.9
loop_
_atom_site_label
_atom_site_type_symbol
_atom_site_fract_x
_atom_site_fract_y
_atom_site_fract_z
O2 O 0.4027(16) 0.6592(9) 0.9683(12)
C5 C 0.314(2) 0.6459(14) 1.0032(17)
H9 H 0.3120 0.6052 1.0183
H10 H 0.2529 0.6552 0.9690
C6 C 0.325(3) 0.6836(15) 1.070(2)
H11 H 0.3327 0.6599 1.1164
H12 H 0.2641 0.7068 1.0703
C7 C 0.411(2) 0.7218(15) 1.0703(17)
H13 H 0.3923 0.7617 1.0812
H14 H 0.4657 0.7095 1.1084
C8 C 0.438(2) 0.7161(11) 0.9930(16)
H15 H 0.5107 0.7192 0.9924
H16 H 0.4050 0.7460 0.9594
B1 B 0.7606(12) 0.7594(6) 0.0253(8)
F1 F 0.8403(14) 0.7650(10) 0.0844(11)
F2 F 0.7519(18) 0.7018(7) -0.0003(13)
F3 F 0.6704(13) 0.7762(10) 0.0536(12)
F4 F 0.7780(18) 0.7947(10) -0.0373(11)
B1F B 0.7394(12) 0.7406(6) -0.0253(8)
F1F F 0.6597(14) 0.7350(10) -0.0844(11)
F2F F 0.7481(18) 0.7982(7) 0.0003(13)
F3F F 0.8296(13) 0.7238(10) -0.0536(12)
F4F F 0.7220(18) 0.7053(10) 0.0373(11)
Fe1 Fe 0.5000 0.93724(10) -0.7500
Ag1 Ag 0.5000 0.83321(6) -0.2500
C9 C 0.6619(9) 1.0022(5) -0.6607(6)
C10 C 0.6414(9) 0.9777(6) -0.5922(6)
H17 H 0.6883 0.9824 -0.5487
C11 C 0.5529(11) 0.9457(5) -0.5845(6)
C12 C 0.5364(10) 0.9241(5) -0.5068(6)
C13 C 0.4659(10) 0.8813(6) -0.5017(7)
H18 H 0.4279 0.8672 -0.5462
C14 C 0.5900(10) 0.9427(6) -0.4392(7)
H19 H 0.6411 0.9704 -0.4403
C15 C 0.4520(12) 0.8592(7) -0.4300(7)
H20 H 0.4069 0.8284 -0.4271
C16 C 0.5677(10) 0.9204(6) -0.3711(7)
H21 H 0.6028 0.9346 -0.3254
C17 C 0.7515(9) 1.0395(6) -0.6641(7)
C18 C 0.7940(10) 1.0459(6) -0.7303(8)
H22 H 0.7658 1.0276 -0.7756
C19 C 0.7962(10) 1.0676(6) -0.6005(7)
H23 H 0.7705 1.0632 -0.5529
C20 C 0.8777(9) 1.0791(7) -0.7310(8)
H24 H 0.9072 1.0815 -0.7774
C21 C 0.8780(10) 1.1020(6) -0.6058(8)
H25 H 0.9054 1.1221 -0.5617
C22 C 0.5000 0.7957(9) -0.7500
H26 H 0.5000 0.7551 -0.7500
C23 C 0.4069(10) 0.8220(6) -0.7558(7)
C24 C 0.3139(10) 0.7887(5) -0.7544(8)
C25 C 0.3136(11) 0.7362(7) -0.7181(11)
H27 H 0.3733 0.7201 -0.6937
C26 C 0.2259(11) 0.8082(7) -0.7893(8)
H28 H 0.2227 0.8442 -0.8142
C27 C 0.2230(14) 0.7076(7) -0.7187(11)
H29 H 0.2229 0.6724 -0.6921
C28 C 0.1404(11) 0.7754(6) -0.7883(8)
H30 H 0.0804 0.7895 -0.8146
N1 N 0.9209(9) 1.1082(5) -0.6709(7)
N2 N 0.4995(8) 0.8797(4) -0.3656(5)
N3 N 0.1378(9) 0.7256(5) -0.7529(7)
O3 O 0.6091(6) 0.9940(3) -0.7264(5)
O4 O 0.4898(6) 0.9352(3) -0.6410(5)
O5 O 0.3953(6) 0.8766(4) -0.7608(5)
Fe1_2 Fe 0.5000 0.93724(10) 0.2500
Ag1F Ag 0.0000 0.66679(6) -0.7500
Ag1F_2 Ag 1.0000 0.66679(6) -0.7500
C9A C 0.3381(9) 1.0022(5) 0.1607(6)
C10A C 0.3586(9) 0.9777(6) 0.0922(6)
H17A H 0.3117 0.9824 0.0487
C11A C 0.4471(11) 0.9457(5) 0.0845(6)
C12A C 0.4636(10) 0.9241(5) 0.0068(6)
C13A C 0.5341(10) 0.8813(6) 0.0017(7)
H18A H 0.5721 0.8672 0.0462
C14A C 0.4100(10) 0.9427(6) -0.0608(7)
H19A H 0.3589 0.9704 -0.0597
C15A C 0.5480(12) 0.8592(7) -0.0700(7)
H20A H 0.5931 0.8284 -0.0729
C16A C 0.4323(10) 0.9204(6) -0.1289(7)
H21A H 0.3972 0.9346 -0.1746
C17A C 0.2485(9) 1.0395(6) 0.1641(7)
C18A C 0.2060(10) 1.0459(6) 0.2303(8)
H22A H 0.2342 1.0276 0.2756
C19A C 0.2038(10) 1.0676(6) 0.1005(7)
H23A H 0.2295 1.0632 0.0529
C20A C 0.1223(9) 1.0791(7) 0.2310(8)
H24A H 0.0928 1.0815 0.2774
C21A C 0.1220(10) 1.1020(6) 0.1058(8)
H25A H 0.0946 1.1221 0.0617
C23A C 0.5931(10) 0.8220(6) -0.7442(7)
C24A C 0.6861(10) 0.7887(5) -0.7456(8)
C25A C 0.6864(11) 0.7362(7) -0.7819(11)
H27A H 0.6267 0.7201 -0.8063
C26A C 0.7741(11) 0.8082(7) -0.7107(8)
H28A H 0.7773 0.8442 -0.6858
C27A C 0.7770(14) 0.7076(7) -0.7813(11)
H29A H 0.7771 0.6724 -0.8079
C28A C 0.8596(11) 0.7754(6) -0.7117(8)
H30A H 0.9196 0.7895 -0.6854
N1A N 0.0791(9) 1.1082(5) 0.1709(7)
N2A N 0.5005(8) 0.8797(4) -0.1344(5)
N3A N 0.8622(9) 0.7256(5) -0.7471(7)
N3F N 0.3622(9) 0.7744(5) -0.2471(7)
N3G N 0.6378(9) 0.7744(5) -0.2529(7)
O3A O 0.3909(6) 0.9940(3) -0.7736(5)
O3A_2 O 0.3909(6) 0.9940(3) 0.2264(5)
O4A O 0.5102(6) 0.9352(3) -0.8590(5)
O4A_2 O 0.5102(6) 0.9352(3) 0.1410(5)
O5A O 0.6047(6) 0.8766(4) -0.7392(5)
O1 O 0.7969(8) 0.9735(5) 0.0847(6)
C1 C 0.8992(12) 0.9905(8) 0.0819(11)
H1 H 0.9101 1.0289 0.1051
H2 H 0.9136 0.9928 0.0282
C2 C 0.9658(16) 0.9496(8) 0.1228(12)
H3 H 1.0117 0.9690 0.1622
H4 H 1.0055 0.9291 0.0874
C3 C 0.9001(13) 0.9101(10) 0.1576(12)
H5 H 0.9027 0.9179 0.2129
H6 H 0.9218 0.8702 0.1507
C4 C 0.7979(13) 0.9179(7) 0.1212(10)
H7 H 0.7804 0.8875 0.0831
H8 H 0.7498 0.9168 0.1597
loop_
_geom_bond_atom_site_label_1
_geom_bond_atom_site_label_2
_geom_bond_site_symmetry_1
_geom_bond_site_symmetry_2
O1 C1 1_555 1_555
C1 H1 1_555 1_555
H2 C1 1_555 1_555
C2 C1 1_555 1_555
H3 C2 1_555 1_555
H4 C2 1_555 1_555
C3 C2 1_555 1_555
H5 C3 1_555 1_555
H6 C3 1_555 1_555
C4 O1 1_555 1_555
H7 C4 1_555 1_555
H8 C4 1_555 1_555
O2 C5 1_555 1_555
C5 H9 1_555 1_555
H10 C5 1_555 1_555
C6 C5 1_555 1_555
H11 C6 1_555 1_555
H12 C6 1_555 1_555
C7 C6 1_555 1_555
H13 C7 1_555 1_555
H14 C7 1_555 1_555
C8 O2 1_555 1_555
H15 C8 1_555 1_555
H16 C8 1_555 1_555
B1 F1 1_555 1_555
F2 B1 1_555 1_555
F3 B1 1_555 1_555
F4 B1 1_555 1_555
Fe1 O3 1_555 1_555
Ag1 N2 1_555 1_555
C9 C10 1_555 1_555
C10 H17 1_555 1_555
C11 C10 1_555 1_555
C12 C11 1_555 1_555
C13 C12 1_555 1_555
H18 C13 1_555 1_555
C14 C12 1_555 1_555
H19 C14 1_555 1_555
C15 C13 1_555 1_555
H20 C15 1_555 1_555
C16 C14 1_555 1_555
H21 C16 1_555 1_555
C17 C9 1_555 1_555
C18 C17 1_555 1_555
H22 C18 1_555 1_555
C19 C17 1_555 1_555
H23 C19 1_555 1_555
C20 C18 1_555 1_555
H24 C20 1_555 1_555
C21 C19 1_555 1_555
H25 C21 1_555 1_555
C22 H26 1_555 1_555
C23 C22 1_555 1_555
C24 C23 1_555 1_555
C25 C24 1_555 1_555
H27 C25 1_555 1_555
C26 C24 1_555 1_555
H28 C26 1_555 1_555
C27 C25 1_555 1_555
H29 C27 1_555 1_555
C28 C26 1_555 1_555
H30 C28 1_555 1_555
N1 C20 1_555 1_555
N2 C15 1_555 1_555
N3 C27 1_555 1_555
O3 C9 1_555 1_555
O4 Fe1 1_555 1_555
O5 Fe1 1_555 1_555
B1F B1 1_555 1_555
F1F B1F 1_555 1_555
F2F B1 1_555 1_555
F3F F2 1_555 1_555
F4F B1 1_555 1_555
Fe1_2 O3A_2 1_555 1_555
Ag1F N3 1_555 1_555
Ag1F_2 N3A 1_555 1_555
C9A C10A 1_555 1_555
C10A H17A 1_555 1_555
C11A C10A 1_555 1_555
C12A C11A 1_555 1_555
C13A C12A 1_555 1_555
H18A C13A 1_555 1_555
C14A C12A 1_555 1_555
H19A C14A 1_555 1_555
C15A C13A 1_555 1_555
H20A C15A 1_555 1_555
C16A C14A 1_555 1_555
H21A C16A 1_555 1_555
C17A C9A 1_555 1_555
C18A C17A 1_555 1_555
H22A C18A 1_555 1_555
C19A C17A 1_555 1_555
H23A C19A 1_555 1_555
C20A C18A 1_555 1_555
H24A C20A 1_555 1_555
C21A C19A 1_555 1_555
H25A C21A 1_555 1_555
C23A C22 1_555 1_555
C24A C23A 1_555 1_555
C25A C24A 1_555 1_555
H27A C25A 1_555 1_555
C26A C24A 1_555 1_555
H28A C26A 1_555 1_555
C27A C25A 1_555 1_555
H29A C27A 1_555 1_555
C28A C26A 1_555 1_555
H30A C28A 1_555 1_555
N1A C20A 1_555 1_555
N2A Ag1 1_555 1_555
N3A C27A 1_555 1_555
N3F Ag1 1_555 1_555
N3G Ag1 1_555 1_555
O3A Fe1 1_555 1_555
O3A_2 C9A 1_555 1_555
O4A Fe1 1_555 1_555
O4A_2 Fe1_2 1_555 1_555
O5A Fe1 1_555 1_555
C3 C4 1_555 1_555
C7 C8 1_555 1_555
F2 B1F 1_555 1_555
F2 F4F 1_555 1_555
F3 F2F 1_555 1_555
F4 B1F 1_555 1_555
F4 F2F 1_555 1_555
C11 O4 1_555 1_555
C16 N2 1_555 1_555
C21 N1 1_555 1_555
C23 O5 1_555 1_555
C28 N3 1_555 1_555
B1F F2F 1_555 1_555
B1F F3F 1_555 1_555
B1F F4F 1_555 1_555
C11A O4A_2 1_555 1_555
C15A N2A 1_555 1_555
C16A N2A 1_555 1_555
C21A N1A 1_555 1_555
C23A O5A 1_555 1_555
C28A N3A 1_555 1_555

#END
