
#######################################################################
#
#                 Cambridge Crystallographic Data Centre
#                                CCDC 
#
#######################################################################
#
# If this CIF has been generated from an entry in the Cambridge 
# Structural Database, then it will include bibliographic, chemical, 
# crystal, experimental, refinement or atomic coordinate data resulting 
# from the CCDC's data processing and validation procedures.
#
#######################################################################

data_EBICUP
_symmetry_cell_setting           monoclinic
_symmetry_space_group_name_H-M   'C 2/c'
_symmetry_Int_Tables_number      15
_space_group_name_Hall           '-C 2yn'
loop_
_symmetry_equiv_pos_site_id
_symmetry_equiv_pos_as_xyz
1 x,y,z
2 -x,y,1/2-z
3 1/2+x,1/2+y,z
4 1/2-x,1/2+y,1/2-z
5 -x,-y,-z
6 x,-y,1/2+z
7 1/2-x,1/2-y,-z
8 1/2+x,1/2-y,1/2+z
_cell_length_a                   13.402(2)
_cell_length_b                   23.473(4)
_cell_length_c                   17.618(3)
_cell_angle_alpha                90
_cell_angle_beta                 96.560(2)
_cell_angle_gamma                90
_cell_volume                     5506.07
loop_
_atom_site_label
_atom_site_type_symbol
_atom_site_fract_x
_atom_site_fract_y
_atom_site_fract_z
C5 C 0.0668(6) 0.2139(3) 0.0078(4)
H9 H 0.1007 0.2425 0.0411
H10 H -0.0051 0.2188 0.0070
O2 O 0.0966(4) 0.1577(2) 0.0331(3)
C6 C 0.0966(7) 0.2182(4) -0.0693(5)
H11 H 0.0406 0.2091 -0.1073
H12 H 0.1198 0.2564 -0.0789
C7 C 0.1842(7) 0.1444(4) -0.0004(5)
H13 H 0.1873 0.1039 -0.0107
H14 H 0.2436 0.1553 0.0331
C8 C 0.1774(8) 0.1770(4) -0.0720(6)
H15 H 0.2403 0.1965 -0.0766
H16 H 0.1629 0.1518 -0.1155
Cl1 Cl 0.73844(16) 0.26149(8) 0.97297(12)
O3 O 0.7408(5) 0.20694(17) 1.0093(4)
O4 O 0.6584(3) 0.2647(2) 0.9124(2)
O5 O 0.8321(2) 0.2711(4) 0.9436(3)
O6 O 0.7244(5) 0.3050(3) 1.0278(3)
Cl1F Cl 0.76156(16) 0.23851(8) 1.02703(12)
O3F O 0.7592(5) 0.29306(17) 0.9907(4)
O4F O 0.8416(3) 0.2353(2) 1.0876(2)
O5F O 0.6679(2) 0.2289(4) 1.0564(3)
O6F O 0.7756(5) 0.1950(3) 0.9722(3)
Ag1 Ag 1.5000 0.165466(14) 0.7500
Fe1 Fe 1.0000 0.43567(2) 0.7500
O7 O 1.10456(15) 0.37483(8) 0.76028(11)
O8 O 1.60913(14) 0.00777(8) 0.27403(10)
O9 O 1.48792(15) 0.06588(8) 0.36179(11)
C9 C 1.7519(2) -0.03822(12) 0.33563(16)
N1 N 1.50096(19) 0.11957(10) 0.63514(13)
N2 N 1.92046(19) -0.10760(12) 0.32799(16)
C10 C 1.5556(2) 0.05391(12) 0.41625(15)
C11 C 1.6417(2) 0.02233(13) 0.40772(16)
H17 H 1.6879 0.0164 0.4506
C12 C 1.6623(2) -0.00082(12) 0.33816(15)
C13 C 1.5902(2) 0.05587(12) 0.56086(16)
H18 H 1.6389 0.0277 0.5599
C14 C 1.7949(2) -0.04439(14) 0.26824(17)
H19 H 1.7682 -0.0253 0.2243
C15 C 1.5683(2) 0.07843(13) 0.62933(16)
H20 H 1.6025 0.0641 0.6741
C16 C 1.4510(3) 0.13877(15) 0.56997(17)
H21 H 1.4035 0.1673 0.5728
C17 C 1.0925(2) 0.32143(12) 0.75490(17)
N3 N 1.3619(2) 0.22428(12) 0.75440(18)
C18 C 1.2766(2) 0.30793(14) 0.7886(2)
H22 H 1.2801 0.3436 0.8119
C19 C 1.8780(2) -0.10187(15) 0.39209(19)
H23 H 1.9060 -0.1217 0.4350
C20 C 1.5380(2) 0.07598(12) 0.49323(15)
C21 C 1.4666(2) 0.11821(14) 0.49859(16)
H24 H 1.4297 0.1325 0.4548
C22 C 1.8778(2) -0.07915(15) 0.26704(19)
H25 H 1.9054 -0.0830 0.2212
C23 C 1.7949(2) -0.06832(14) 0.39909(18)
H26 H 1.7682 -0.0659 0.4454
C24 C 1.1864(2) 0.28727(13) 0.75503(19)
C25 C 1.0000 0.2941(2) 0.7500
H27 H 1.0000 0.2544 0.7500
C26 C 1.1862(3) 0.23451(17) 0.7205(3)
H28 H 1.1265 0.2187 0.6977
C27 C 1.3623(3) 0.27523(15) 0.7875(2)
H29 H 1.4228 0.2895 0.8109
C28 C 1.2752(3) 0.20567(18) 0.7202(3)
H30 H 1.2744 0.1711 0.6944
Ag1_2 Ag 0.5000 0.165466(14) 0.7500
Fe1F Fe 1.5000 0.06433(2) 0.2500
Fe1F_2 Fe 1.5000 0.06433(2) 1.2500
O7A O 0.89544(15) 0.37483(8) 0.73972(11)
O8A O 1.39087(14) 0.00777(8) 1.22597(10)
O8F O 0.89087(14) 0.49223(8) 0.72597(10)
O8G O 1.10913(14) 0.49223(8) 0.77403(10)
O9A O 1.51208(15) 0.06588(8) 1.13821(11)
O9G O 0.98792(15) 0.43412(8) 0.86179(11)
O9F O 1.01208(15) 0.43412(8) 0.63821(11)
C9A C 1.2481(2) -0.03822(12) 1.16437(16)
N1A N 1.49904(19) 0.11957(10) 0.86486(13)
N2A N 1.07954(19) -0.10760(12) 1.17201(16)
C10A C 1.4444(2) 0.05391(12) 1.08375(15)
C11A C 1.3583(2) 0.02233(13) 1.09228(16)
H17A H 1.3121 0.0164 1.0494
C12A C 1.3377(2) -0.00082(12) 1.16184(15)
C13A C 1.4098(2) 0.05587(12) 0.93914(16)
H18A H 1.3611 0.0277 0.9401
C14A C 1.2051(2) -0.04439(14) 1.23176(17)
H19A H 1.2318 -0.0253 1.2757
C15A C 1.4317(2) 0.07843(13) 0.87067(16)
H20A H 1.3975 0.0641 0.8259
C16A C 1.5490(3) 0.13877(15) 0.93003(17)
H21A H 1.5965 0.1673 0.9272
C17A C 0.9075(2) 0.32143(12) 0.74510(17)
N3A N 0.6381(2) 0.22428(12) 0.74560(18)
N3A_2 N 1.6381(2) 0.22428(12) 0.74560(18)
C18A C 0.7234(2) 0.30793(14) 0.7114(2)
H22A H 0.7199 0.3436 0.6881
C19A C 1.1220(2) -0.10187(15) 1.10791(19)
H23A H 1.0940 -0.1217 1.0650
C20A C 1.4620(2) 0.07598(12) 1.00677(15)
C21A C 1.5334(2) 0.11821(14) 1.00141(16)
H24A H 1.5703 0.1325 1.0452
C22A C 1.1222(2) -0.07915(15) 1.23296(19)
H25A H 1.0946 -0.0830 1.2788
C23A C 1.2051(2) -0.06832(14) 1.10091(18)
H26A H 1.2318 -0.0659 1.0546
C24A C 0.8136(2) 0.28727(13) 0.74497(19)
C26A C 0.8138(3) 0.23451(17) 0.7795(3)
H28A H 0.8735 0.2187 0.8023
C27A C 0.6377(3) 0.27523(15) 0.7125(2)
H29A H 0.5772 0.2895 0.6891
C28A C 0.7248(3) 0.20567(18) 0.7798(3)
H30A H 0.7256 0.1711 0.8056
O1 O 0.2005(2) 0.97407(12) 0.91402(16)
C1 C 0.2031(3) 0.91892(19) 0.8798(3)
H1 H 0.2217 0.8902 0.9184
H2 H 0.2513 0.9181 0.8428
C2 C 0.0995(3) 0.9896(2) 0.9194(3)
H3 H 0.0866 1.0276 0.8991
H4 H 0.0863 0.9894 0.9724
C3 C 0.0995(4) 0.9083(3) 0.8417(4)
H5 H 0.0966 0.9146 0.7870
H6 H 0.0790 0.8694 0.8504
C4 C 0.0348(5) 0.9483(3) 0.8754(4)
H7 H -0.0066 0.9284 0.9086
H8 H -0.0088 0.9675 0.8358
loop_
_geom_bond_atom_site_label_1
_geom_bond_atom_site_label_2
_geom_bond_site_symmetry_1
_geom_bond_site_symmetry_2
O1 C1 1_555 1_555
C1 H1 1_555 1_555
H2 C1 1_555 1_555
C2 O1 1_555 1_555
H3 C2 1_555 1_555
H4 C2 1_555 1_555
C3 C1 1_555 1_555
H5 C3 1_555 1_555
H6 C3 1_555 1_555
C4 C2 1_555 1_555
H7 C4 1_555 1_555
H8 C4 1_555 1_555
C5 H9 1_555 1_555
H10 C5 1_555 1_555
O2 C5 1_555 1_555
C6 C5 1_555 1_555
H11 C6 1_555 1_555
H12 C6 1_555 1_555
C7 O2 1_555 1_555
H13 C7 1_555 1_555
H14 C7 1_555 1_555
C8 C6 1_555 1_555
H15 C8 1_555 1_555
H16 C8 1_555 1_555
Cl1 O3 1_555 1_555
O3 Cl1F 1_555 1_555
O4 Cl1 1_555 1_555
O5 Cl1 1_555 1_555
O6 Cl1 1_555 1_555
Ag1 N1 1_555 1_555
Fe1 O7 1_555 1_555
O7 C17 1_555 1_555
O8 C12 1_555 1_555
O9 C10 1_555 1_555
C9 C12 1_555 1_555
N1 C15 1_555 1_555
N2 C19 1_555 1_555
C10 C11 1_555 1_555
C11 H17 1_555 1_555
C12 C11 1_555 1_555
C13 H18 1_555 1_555
C14 C9 1_555 1_555
H19 C14 1_555 1_555
C15 C13 1_555 1_555
H20 C15 1_555 1_555
C16 N1 1_555 1_555
H21 C16 1_555 1_555
C17 C24 1_555 1_555
N3 Ag1 1_555 1_555
C18 H22 1_555 1_555
C19 H23 1_555 1_555
C20 C10 1_555 1_555
C21 C16 1_555 1_555
H24 C21 1_555 1_555
C22 N2 1_555 1_555
H25 C22 1_555 1_555
C23 C9 1_555 1_555
H26 C23 1_555 1_555
C24 C18 1_555 1_555
C25 C17 1_555 1_555
H27 C25 1_555 1_555
C26 C24 1_555 1_555
H28 C26 1_555 1_555
C27 N3 1_555 1_555
H29 C27 1_555 1_555
C28 N3 1_555 1_555
H30 C28 1_555 1_555
Cl1F Cl1 1_555 1_555
O3F Cl1 1_555 1_555
O4F Cl1F 1_555 1_555
O5F Cl1 1_555 1_555
O6F Cl1 1_555 1_555
Ag1_2 N3A 1_555 1_555
Fe1F O8 1_555 1_555
Fe1F_2 O8A 1_555 1_555
O7A Fe1 1_555 1_555
O8A C12A 1_555 1_555
O8F Fe1 1_555 1_555
O8G Fe1 1_555 1_555
O9A Fe1F_2 1_555 1_555
O9G Fe1 1_555 1_555
O9F Fe1 1_555 1_555
C9A C12A 1_555 1_555
N1A Ag1 1_555 1_555
N2A C19A 1_555 1_555
C10A O9A 1_555 1_555
C11A C10A 1_555 1_555
H17A C11A 1_555 1_555
C12A C11A 1_555 1_555
C13A H18A 1_555 1_555
C14A C9A 1_555 1_555
H19A C14A 1_555 1_555
C15A N1A 1_555 1_555
H20A C15A 1_555 1_555
C16A N1A 1_555 1_555
H21A C16A 1_555 1_555
C17A C25 1_555 1_555
N3A C27A 1_555 1_555
N3A_2 Ag1 1_555 1_555
C18A H22A 1_555 1_555
C19A H23A 1_555 1_555
C20A C10A 1_555 1_555
C21A C16A 1_555 1_555
H24A C21A 1_555 1_555
C22A N2A 1_555 1_555
H25A C22A 1_555 1_555
C23A C9A 1_555 1_555
H26A C23A 1_555 1_555
C24A C17A 1_555 1_555
C26A C24A 1_555 1_555
H28A C26A 1_555 1_555
C27A C18A 1_555 1_555
H29A C27A 1_555 1_555
C28A N3A 1_555 1_555
H30A C28A 1_555 1_555
C3 C4 1_555 1_555
C7 C8 1_555 1_555
O3 O5F 1_555 1_555
O3 O6F 1_555 1_555
O5 Cl1F 1_555 1_555
O5 O3F 1_555 1_555
O6 Cl1F 1_555 1_555
O6 O3F 1_555 1_555
O9 Fe1F 1_555 1_555
C13 C20 1_555 1_555
C14 C22 1_555 1_555
C18 C27 1_555 1_555
C19 C23 1_555 1_555
C20 C21 1_555 1_555
C26 C28 1_555 1_555
Cl1F O3F 1_555 1_555
Cl1F O5F 1_555 1_555
Cl1F O6F 1_555 1_555
O7A C17A 1_555 1_555
C13A C15A 1_555 1_555
C13A C20A 1_555 1_555
C14A C22A 1_555 1_555
C18A C24A 1_555 1_555
C19A C23A 1_555 1_555
C20A C21A 1_555 1_555
C26A C28A 1_555 1_555

#END
