
#######################################################################
#
#                 Cambridge Crystallographic Data Centre
#                                CCDC 
#
#######################################################################
#
# If this CIF has been generated from an entry in the Cambridge 
# Structural Database, then it will include bibliographic, chemical, 
# crystal, experimental, refinement or atomic coordinate data resulting 
# from the CCDC's data processing and validation procedures.
#
#######################################################################

data_EBIDAW
_symmetry_cell_setting           monoclinic
_symmetry_space_group_name_H-M   'C 2/c'
_symmetry_Int_Tables_number      15
_space_group_name_Hall           '-C 2yn'
loop_
_symmetry_equiv_pos_site_id
_symmetry_equiv_pos_as_xyz
1 x,y,z
2 -x,y,1/2-z
3 1/2+x,1/2+y,z
4 1/2-x,1/2+y,1/2-z
5 -x,-y,-z
6 x,-y,1/2+z
7 1/2-x,1/2-y,-z
8 1/2+x,1/2-y,1/2+z
_cell_length_a                   13.359(3)
_cell_length_b                   23.669(5)
_cell_length_c                   17.737(4)
_cell_angle_alpha                90
_cell_angle_beta                 97.697(2)
_cell_angle_gamma                90
_cell_volume                     5557.81
loop_
_atom_site_label
_atom_site_type_symbol
_atom_site_fract_x
_atom_site_fract_y
_atom_site_fract_z
Ag1 Ag 0.5000 0.15818(2) 0.7500
Fe1 Fe 1.0000 0.42977(4) 0.7500
O1 O 0.8944(3) 0.36966(15) 0.7399(2)
O2 O 0.6104(3) 0.01379(15) 0.27318(19)
C1 C 1.0000 0.2886(3) 0.7500
H1 H 1.0000 0.2493 0.7500
O3 O 0.4907(3) 0.07067(15) 0.36130(18)
C2 C 0.6434(4) 0.0244(2) 0.4074(3)
H2 H 0.6890 0.0168 0.4506
N1 N 0.5032(3) 0.11461(19) 0.6355(2)
C3 C 0.5573(4) 0.0561(2) 0.4150(3)
C4 C 0.9071(4) 0.3161(2) 0.7454(3)
C5 C 0.6638(4) 0.0035(2) 0.3372(3)
C6 C 0.7536(4) -0.0331(2) 0.3341(3)
N2 N 0.9228(3) -0.1021(2) 0.3256(3)
C7 C 0.5671(4) 0.0724(2) 0.6288(3)
H3 H 0.5990 0.0557 0.6731
N3 N 0.6369(3) 0.2188(2) 0.7467(3)
C8 C 0.8828(4) -0.0960(3) 0.3904(3)
H4 H 0.9134 -0.1150 0.4333
C9 C 0.7939(4) -0.0398(2) 0.2667(3)
H5 H 0.7657 -0.0211 0.2229
C10 C 0.7212(4) 0.3021(2) 0.7114(3)
H6 H 0.7167 0.3371 0.6872
C11 C 0.5400(4) 0.0760(2) 0.4932(3)
C12 C 0.5890(4) 0.0519(2) 0.5596(3)
H7 H 0.6352 0.0227 0.5576
C13 C 0.8126(4) 0.2820(2) 0.7453(3)
C14 C 0.7984(4) -0.0629(2) 0.3977(3)
H8 H 0.7725 -0.0608 0.4438
C15 C 0.4728(5) 0.1191(3) 0.4995(3)
H9 H 0.4376 0.1361 0.4566
C16 C 0.8765(4) -0.0745(3) 0.2654(3)
H10 H 0.9016 -0.0790 0.2193
C17 C 0.6355(4) 0.2694(3) 0.7137(4)
H11 H 0.5738 0.2835 0.6909
C18 C 0.7264(5) 0.2004(3) 0.7812(4)
H12 H 0.7287 0.1656 0.8058
C19 C 0.4591(5) 0.1366(3) 0.5733(3)
H13 H 0.4147 0.1664 0.5775
C20 C 0.8154(4) 0.2304(3) 0.7819(4)
H14 H 0.8760 0.2161 0.8065
Ag1_2 Ag 1.5000 0.15818(2) 0.7500
Fe1F Fe 0.5000 0.07023(4) 0.2500
Fe1F_2 Fe 0.5000 0.07023(4) 1.2500
O1A O 1.1056(3) 0.36966(15) 0.7601(2)
O2A O 0.3896(3) 0.01379(15) 1.22682(19)
O2F O 0.8896(3) 0.48621(15) 0.72682(19)
O2G O 1.1104(3) 0.48621(15) 0.77318(19)
O3A O 0.5093(3) 0.07067(15) 1.13870(18)
O3F O 1.0093(3) 0.42933(15) 0.63870(18)
O3G O 0.9907(3) 0.42933(15) 0.86130(18)
C2A C 0.3566(4) 0.0244(2) 1.0926(3)
H2A H 0.3110 0.0168 1.0494
N1A N 0.4968(3) 0.11461(19) 0.8645(2)
C3A C 0.4427(4) 0.0561(2) 1.0850(3)
C4A C 1.0929(4) 0.3161(2) 0.7546(3)
C5A C 0.3362(4) 0.0035(2) 1.1628(3)
C6A C 0.2464(4) -0.0331(2) 1.1659(3)
N2A N 0.0772(3) -0.1021(2) 1.1744(3)
C7A C 0.4329(4) 0.0724(2) 0.8712(3)
H3A H 0.4010 0.0557 0.8269
N3A N 1.3631(3) 0.2188(2) 0.7533(3)
N3A_2 N 0.3631(3) 0.2188(2) 0.7533(3)
C8A C 0.1172(4) -0.0960(3) 1.1096(3)
H4A H 0.0866 -0.1150 1.0667
C9A C 0.2061(4) -0.0398(2) 1.2333(3)
H5A H 0.2343 -0.0211 1.2771
C10A C 1.2788(4) 0.3021(2) 0.7886(3)
H6A H 1.2833 0.3371 0.8128
C11A C 0.4600(4) 0.0760(2) 1.0068(3)
C12A C 0.4110(4) 0.0519(2) 0.9404(3)
H7A H 0.3648 0.0227 0.9424
C13A C 1.1874(4) 0.2820(2) 0.7547(3)
C14A C 0.2016(4) -0.0629(2) 1.1023(3)
H8A H 0.2275 -0.0608 1.0562
C15A C 0.5272(5) 0.1191(3) 1.0005(3)
H9A H 0.5624 0.1361 1.0434
C16A C 0.1235(4) -0.0745(3) 1.2346(3)
H10A H 0.0984 -0.0790 1.2807
C17A C 1.3645(4) 0.2694(3) 0.7863(4)
H11A H 1.4262 0.2835 0.8091
C18A C 1.2736(5) 0.2004(3) 0.7188(4)
H12A H 1.2713 0.1656 0.6942
C19A C 0.5409(5) 0.1366(3) 0.9267(3)
H13A H 0.5853 0.1664 0.9225
C20A C 1.1846(4) 0.2304(3) 0.7181(4)
H14A H 1.1240 0.2161 0.6935
P1 P 0.2500 0.2500 0.5000
F1 F 0.3328(3) 0.22397(18) 0.4534(3)
F2 F 0.2701(3) 0.31112(17) 0.4670(3)
F3 F 0.3360(3) 0.26153(19) 0.5709(3)
F1F F 0.1672(3) 0.27603(18) 0.5466(3)
F2F F 0.2299(3) 0.18888(17) 0.5330(3)
F3F F 0.1640(3) 0.23847(19) 0.4291(3)
O4 O 0.3000(4) 0.4702(2) 0.5850(3)
C21 C 0.2940(6) 0.4159(3) 0.6183(5)
H15 H 0.2717 0.3881 0.5795
H16 H 0.2465 0.4163 0.6551
C22 C 0.4638(7) 0.4429(5) 0.6295(8)
H17 H 0.5090 0.4244 0.5987
H18 H 0.5040 0.4608 0.6725
C23 C 0.3955(8) 0.4020(5) 0.6556(8)
H19 H 0.3981 0.4042 0.7105
H20 H 0.4141 0.3641 0.6422
C24 C 0.4022(6) 0.4846(4) 0.5845(5)
H21 H 0.4154 0.5220 0.6060
H22 H 0.4181 0.4848 0.5327
O5 O 0.6015(7) 0.3443(4) 0.5305(5)
C25 C 0.5758(10) 0.2903(5) 0.5027(8)
H23 H 0.5036 0.2842 0.5002
H24 H 0.6106 0.2618 0.5357
C26 C 0.6857(11) 0.3603(6) 0.4966(9)
H25 H 0.7471 0.3527 0.5309
H26 H 0.6829 0.4004 0.4855
C27 C 0.6059(12) 0.2872(8) 0.4279(7)
H27 H 0.5495 0.2960 0.3894
H28 H 0.6303 0.2496 0.4183
C28 C 0.6858(15) 0.3285(8) 0.4270(9)
H29 H 0.7504 0.3100 0.4259
H30 H 0.6723 0.3530 0.3829
loop_
_geom_bond_atom_site_label_1
_geom_bond_atom_site_label_2
_geom_bond_site_symmetry_1
_geom_bond_site_symmetry_2
Ag1 N1 1_555 1_555
Fe1 O1 1_555 1_555
O1 C4 1_555 1_555
O2 C5 1_555 1_555
C1 H1 1_555 1_555
O3 C3 1_555 1_555
C2 H2 1_555 1_555
N1 C7 1_555 1_555
C3 C2 1_555 1_555
C4 C1 1_555 1_555
C5 C2 1_555 1_555
C6 C5 1_555 1_555
N2 C8 1_555 1_555
C7 H3 1_555 1_555
N3 Ag1 1_555 1_555
C8 H4 1_555 1_555
C9 C6 1_555 1_555
H5 C9 1_555 1_555
C10 H6 1_555 1_555
C11 C3 1_555 1_555
C12 C7 1_555 1_555
H7 C12 1_555 1_555
C13 C4 1_555 1_555
C14 C6 1_555 1_555
H8 C14 1_555 1_555
C15 C11 1_555 1_555
H9 C15 1_555 1_555
C16 N2 1_555 1_555
H10 C16 1_555 1_555
C17 N3 1_555 1_555
H11 C17 1_555 1_555
C18 N3 1_555 1_555
H12 C18 1_555 1_555
C19 N1 1_555 1_555
H13 C19 1_555 1_555
C20 C13 1_555 1_555
H14 C20 1_555 1_555
P1 F1 1_555 1_555
F2 P1 1_555 1_555
F3 P1 1_555 1_555
O4 C21 1_555 1_555
C21 H15 1_555 1_555
H16 C21 1_555 1_555
C22 H17 1_555 1_555
H18 C22 1_555 1_555
C23 C21 1_555 1_555
H19 C23 1_555 1_555
H20 C23 1_555 1_555
C24 O4 1_555 1_555
H21 C24 1_555 1_555
H22 C24 1_555 1_555
O5 C25 1_555 1_555
C25 H23 1_555 1_555
H24 C25 1_555 1_555
C26 O5 1_555 1_555
H25 C26 1_555 1_555
H26 C26 1_555 1_555
C27 C25 1_555 1_555
H27 C27 1_555 1_555
H28 C27 1_555 1_555
C28 C26 1_555 1_555
H29 C28 1_555 1_555
H30 C28 1_555 1_555
Ag1_2 N3A 1_555 1_555
Fe1F O2 1_555 1_555
Fe1F_2 O2A 1_555 1_555
O1A Fe1 1_555 1_555
O2A C5A 1_555 1_555
O2F Fe1 1_555 1_555
O2G Fe1 1_555 1_555
O3A Fe1F_2 1_555 1_555
O3F Fe1 1_555 1_555
O3G Fe1 1_555 1_555
C2A H2A 1_555 1_555
N1A Ag1 1_555 1_555
C3A O3A 1_555 1_555
C4A C1 1_555 1_555
C5A C2A 1_555 1_555
C6A C5A 1_555 1_555
N2A C8A 1_555 1_555
C7A N1A 1_555 1_555
H3A C7A 1_555 1_555
N3A C17A 1_555 1_555
N3A_2 Ag1 1_555 1_555
C8A H4A 1_555 1_555
C9A C6A 1_555 1_555
H5A C9A 1_555 1_555
C10A H6A 1_555 1_555
C11A C3A 1_555 1_555
C12A C7A 1_555 1_555
H7A C12A 1_555 1_555
C13A C4A 1_555 1_555
C14A C6A 1_555 1_555
H8A C14A 1_555 1_555
C15A C11A 1_555 1_555
H9A C15A 1_555 1_555
C16A N2A 1_555 1_555
H10A C16A 1_555 1_555
C17A C10A 1_555 1_555
H11A C17A 1_555 1_555
C18A N3A 1_555 1_555
H12A C18A 1_555 1_555
C19A N1A 1_555 1_555
H13A C19A 1_555 1_555
C20A C13A 1_555 1_555
H14A C20A 1_555 1_555
F1F P1 1_555 1_555
F2F P1 1_555 1_555
F3F P1 1_555 1_555
O3 Fe1F 1_555 1_555
C8 C14 1_555 1_555
C9 C16 1_555 1_555
C10 C13 1_555 1_555
C10 C17 1_555 1_555
C11 C12 1_555 1_555
C15 C19 1_555 1_555
C18 C20 1_555 1_555
C22 C23 1_555 1_555
C22 C24 1_555 1_555
C27 C28 1_555 1_555
O1A C4A 1_555 1_555
C2A C3A 1_555 1_555
C8A C14A 1_555 1_555
C9A C16A 1_555 1_555
C10A C13A 1_555 1_555
C11A C12A 1_555 1_555
C15A C19A 1_555 1_555
C18A C20A 1_555 1_555

#END
