
#######################################################################
#
#                 Cambridge Crystallographic Data Centre
#                                CCDC 
#
#######################################################################
#
# If this CIF has been generated from an entry in the Cambridge 
# Structural Database, then it will include bibliographic, chemical, 
# crystal, experimental, refinement or atomic coordinate data resulting 
# from the CCDC's data processing and validation procedures.
#
#######################################################################

data_EBIDUQ
_symmetry_cell_setting           monoclinic
_symmetry_space_group_name_H-M   'P 21/c'
_symmetry_Int_Tables_number      14
_space_group_name_Hall           '-P 2ybc'
loop_
_symmetry_equiv_pos_site_id
_symmetry_equiv_pos_as_xyz
1 x,y,z
2 -x,1/2+y,1/2-z
3 -x,-y,-z
4 x,1/2-y,1/2+z
_cell_length_a                   7.0908(5)
_cell_length_b                   10.8703(8)
_cell_length_c                   26.4114(17)
_cell_angle_alpha                90
_cell_angle_beta                 97.6080(10)
_cell_angle_gamma                90
_cell_volume                     2017.85
loop_
_atom_site_label
_atom_site_type_symbol
_atom_site_fract_x
_atom_site_fract_y
_atom_site_fract_z
C1 C 0.6304(9) 0.2032(7) 0.4968(3)
H1 H 0.6671 0.2632 0.5213
C2 C 0.7559(10) 0.1078(7) 0.4916(3)
H2 H 0.8737 0.1047 0.5117
C3 C 0.7036(10) 0.0193(8) 0.4564(3)
H3 H 0.7842 -0.0468 0.4530
C4 C 0.5285(10) 0.0273(7) 0.4253(3)
C5 C 0.4631(12) -0.0630(8) 0.3876(4)
H4 H 0.5416 -0.1287 0.3819
C6 C 0.2917(13) -0.0542(8) 0.3607(3)
H5 H 0.2539 -0.1144 0.3364
C7 C 0.1641(11) 0.0430(7) 0.3672(3)
C8 C -0.0198(11) 0.0542(8) 0.3406(3)
H6 H -0.0644 -0.0042 0.3162
C9 C -0.1319(12) 0.1486(8) 0.3503(3)
H7 H -0.2546 0.1550 0.3330
C10 C -0.0636(10) 0.2362(7) 0.3860(3)
H8 H -0.1415 0.3023 0.3917
C11 C 0.4081(9) 0.1254(6) 0.4333(2)
C12 C 0.2215(9) 0.1340(6) 0.4044(2)
C13 C 0.5110(8) 0.4742(6) 0.5968(2)
C14 C 0.4453(8) 0.4003(6) 0.6397(2)
C15 C 0.5792(9) 0.3814(6) 0.6822(2)
H9 H 0.7005 0.4145 0.6830
C16 C 0.5346(9) 0.3141(7) 0.7231(2)
H10 H 0.6283 0.2990 0.7505
C17 C 0.3555(9) 0.2690(6) 0.7243(2)
C18 C 0.2992(11) 0.1971(7) 0.7677(3)
C19 C 0.2169(9) 0.2878(6) 0.6819(2)
H11 H 0.0943 0.2578 0.6821
C20 C 0.2624(8) 0.3511(6) 0.6396(2)
N1 N 0.4619(7) 0.2140(5) 0.46932(19)
N2 N 0.1085(7) 0.2298(5) 0.41262(19)
O1 O 0.4939(6) 0.4305(4) 0.55282(15)
O2 O 0.5936(7) 0.5737(4) 0.60895(15)
O3 O 0.4329(7) 0.2011(5) 0.80825(17)
H12 H 0.4151 0.1454 0.8280
O4 O 0.1539(8) 0.1399(6) 0.76700(19)
O5 O -0.0971(6) 0.3402(5) 0.60521(17)
O6 O 0.1260(6) 0.2754(4) 0.54856(16)
O7 O 0.0945(6) 0.4904(4) 0.56714(16)
Pb1 Pb 0.24935(3) 0.39768(2) 0.472234(9)
S1 S 0.0802(2) 0.36540(16) 0.58644(6)
O1B O 0.5061(6) 0.5695(4) 0.44718(15)
O2B O 0.4064(7) 0.4263(4) 0.39105(15)
O7B O -0.0945(6) 0.5096(4) 0.43286(16)
Pb1B Pb 0.75065(3) 0.60232(2) 0.527766(9)
Pb1B_2 Pb -0.24935(3) 0.60232(2) 0.527766(9)
loop_
_geom_bond_atom_site_label_1
_geom_bond_atom_site_label_2
_geom_bond_site_symmetry_1
_geom_bond_site_symmetry_2
C1 H1 1_555 1_555
C2 C1 1_555 1_555
H2 C2 1_555 1_555
C3 C2 1_555 1_555
H3 C3 1_555 1_555
C4 C3 1_555 1_555
C5 C4 1_555 1_555
H4 C5 1_555 1_555
C6 C5 1_555 1_555
H5 C6 1_555 1_555
C7 C6 1_555 1_555
C8 C7 1_555 1_555
H6 C8 1_555 1_555
C9 C8 1_555 1_555
H7 C9 1_555 1_555
C10 C9 1_555 1_555
H8 C10 1_555 1_555
C11 C4 1_555 1_555
C12 C7 1_555 1_555
C13 C14 1_555 1_555
C14 C15 1_555 1_555
C15 H9 1_555 1_555
C16 C15 1_555 1_555
H10 C16 1_555 1_555
C17 C16 1_555 1_555
C18 C17 1_555 1_555
C19 C17 1_555 1_555
H11 C19 1_555 1_555
C20 C14 1_555 1_555
N1 C1 1_555 1_555
N2 C10 1_555 1_555
O1 C13 1_555 1_555
O2 C13 1_555 1_555
O3 C18 1_555 1_555
H12 O3 1_555 1_555
O4 C18 1_555 1_555
O5 S1 1_555 1_555
O6 Pb1 1_555 1_555
O7 S1 1_555 1_555
Pb1 N1 1_555 1_555
S1 C20 1_555 1_555
O1B Pb1 1_555 1_555
O2B Pb1 1_555 1_555
O7B Pb1 1_555 1_555
Pb1B O1 1_555 1_555
Pb1B_2 O7 1_555 1_555
C11 C12 1_555 1_555
C11 N1 1_555 1_555
C12 N2 1_555 1_555
C19 C20 1_555 1_555
N2 Pb1 1_555 1_555
O1 Pb1 1_555 1_555
O2 Pb1B 1_555 1_555
O6 S1 1_555 1_555
O1B Pb1B 1_555 1_555

#END
