
#######################################################################
#
#                 Cambridge Crystallographic Data Centre
#                                CCDC 
#
#######################################################################
#
# If this CIF has been generated from an entry in the Cambridge 
# Structural Database, then it will include bibliographic, chemical, 
# crystal, experimental, refinement or atomic coordinate data resulting 
# from the CCDC's data processing and validation procedures.
#
#######################################################################

data_EBIFEC
_symmetry_cell_setting           monoclinic
_symmetry_space_group_name_H-M   'P 21/c'
_symmetry_Int_Tables_number      14
_space_group_name_Hall           '-P 2ybc'
loop_
_symmetry_equiv_pos_site_id
_symmetry_equiv_pos_as_xyz
1 x,y,z
2 -x,1/2+y,1/2-z
3 -x,-y,-z
4 x,1/2-y,1/2+z
_cell_length_a                   19.2816(15)
_cell_length_b                   6.9457(6)
_cell_length_c                   14.1263(12)
_cell_angle_alpha                90
_cell_angle_beta                 100.807(2)
_cell_angle_gamma                90
_cell_volume                     1858.3
loop_
_atom_site_label
_atom_site_type_symbol
_atom_site_fract_x
_atom_site_fract_y
_atom_site_fract_z
C1 C 0.4102(4) 0.8050(10) 0.2240(5)
C2 C 0.3401(4) 0.7864(9) 0.2585(5)
C3 C 0.2805(4) 0.7476(10) 0.1880(6)
H1 H 0.2848 0.7312 0.1240
C4 C 0.2151(4) 0.7340(11) 0.2145(6)
H2 H 0.1754 0.7060 0.1681
C5 C 0.2080(4) 0.7616(11) 0.3100(6)
C6 C 0.1363(4) 0.7527(12) 0.3358(7)
C7 C 0.2676(4) 0.8022(9) 0.3792(6)
H3 H 0.2633 0.8217 0.4429
C8 C 0.3340(4) 0.8137(9) 0.3532(6)
C9 C 0.2616(4) 0.2816(11) 0.3207(6)
H4 H 0.2658 0.2569 0.2573
C10 C 0.1961(4) 0.2550(11) 0.3457(6)
H5 H 0.1576 0.2140 0.3003
C11 C 0.1895(4) 0.2913(10) 0.4407(6)
C12 C 0.2476(4) 0.3539(11) 0.5035(6)
H6 H 0.2454 0.3789 0.5676
C13 C 0.3101(4) 0.3794(11) 0.4698(6)
H7 H 0.3487 0.4279 0.5127
C14 C 0.1201(4) 0.2699(11) 0.4716(7)
C15 C 0.0567(4) 0.3017(12) 0.4081(7)
H8 H 0.0567 0.3376 0.3446
C16 C -0.0058(4) 0.2795(12) 0.4400(7)
H9 H -0.0477 0.2976 0.3959
C17 C 0.0503(5) 0.2018(13) 0.5911(7)
H10 H 0.0487 0.1674 0.6543
C18 C 0.1162(4) 0.2177(13) 0.5647(7)
H11 H 0.1572 0.1932 0.6094
N1 N 0.3188(3) 0.3403(8) 0.3817(5)
N2 N -0.0103(4) 0.2334(11) 0.5305(6)
O1 O 0.4578(3) 0.6840(6) 0.2482(4)
O2 O 0.4148(2) 0.9447(6) 0.1673(4)
O3 O 0.0843(3) 0.7162(12) 0.2771(5)
O4 O 0.1363(3) 0.7863(8) 0.4259(5)
H12 H 0.0958 0.7798 0.4358
O5 O 0.3812(3) 0.9451(7) 0.5247(4)
O6 O 0.4481(3) 0.6915(6) 0.4662(4)
O7 O 0.4474(3) 1.0112(6) 0.3977(4)
O8 O 0.3841(3) 0.3173(7) 0.1904(4)
H13 H 0.391(4) 0.382(8) 0.141(4)
H14 H 0.383(4) 0.198(3) 0.176(5)
Pb1 Pb 0.458052(13) 0.37665(4) 0.35276(2)
S1 S 0.40876(9) 0.8718(2) 0.44380(13)
O1A O 0.5422(3) 0.1840(6) 0.2518(4)
O2A O 0.5852(2) 0.4447(6) 0.3327(4)
O7_2 O 0.4474(3) 0.0112(6) 0.3977(4)
Pb1A Pb 0.541948(13) 0.87665(4) 0.14724(2)
Pb1_2 Pb 0.458052(13) 1.37665(4) 0.35276(2)
loop_
_geom_bond_atom_site_label_1
_geom_bond_atom_site_label_2
_geom_bond_site_symmetry_1
_geom_bond_site_symmetry_2
C1 C2 1_555 1_555
C2 C3 1_555 1_555
C3 H1 1_555 1_555
C4 C3 1_555 1_555
H2 C4 1_555 1_555
C5 C4 1_555 1_555
C6 C5 1_555 1_555
C7 C5 1_555 1_555
H3 C7 1_555 1_555
C8 C2 1_555 1_555
C9 H4 1_555 1_555
C10 C9 1_555 1_555
H5 C10 1_555 1_555
C11 C10 1_555 1_555
C12 C11 1_555 1_555
H6 C12 1_555 1_555
C13 C12 1_555 1_555
H7 C13 1_555 1_555
C14 C11 1_555 1_555
C15 C14 1_555 1_555
H8 C15 1_555 1_555
C16 C15 1_555 1_555
H9 C16 1_555 1_555
C17 H10 1_555 1_555
C18 C14 1_555 1_555
H11 C18 1_555 1_555
N1 C9 1_555 1_555
N2 C16 1_555 1_555
O1 C1 1_555 1_555
O2 C1 1_555 1_555
O3 C6 1_555 1_555
O4 C6 1_555 1_555
H12 O4 1_555 1_555
O5 S1 1_555 1_555
O6 Pb1 1_555 1_555
O7 S1 1_555 1_555
O8 H13 1_555 1_555
H14 O8 1_555 1_555
Pb1 N1 1_555 1_555
S1 C8 1_555 1_555
O1A Pb1 1_555 1_555
O2A Pb1 1_555 1_555
O7_2 Pb1 1_555 1_555
Pb1A O1 1_555 1_555
Pb1_2 O7 1_555 1_555
C7 C8 1_555 1_555
C13 N1 1_555 1_555
C17 C18 1_555 1_555
C17 N2 1_555 1_555
O1 Pb1 1_555 1_555
O2 Pb1A 1_555 1_555
O6 S1 1_555 1_555
O8 Pb1 1_555 1_555

#END
