
#######################################################################
#
#                 Cambridge Crystallographic Data Centre
#                                CCDC 
#
#######################################################################
#
# If this CIF has been generated from an entry in the Cambridge 
# Structural Database, then it will include bibliographic, chemical, 
# crystal, experimental, refinement or atomic coordinate data resulting 
# from the CCDC's data processing and validation procedures.
#
#######################################################################

data_EBIFAY
_symmetry_cell_setting           triclinic
_symmetry_space_group_name_H-M   'P -1'
_symmetry_Int_Tables_number      2
_space_group_name_Hall           '-P 1'
loop_
_symmetry_equiv_pos_site_id
_symmetry_equiv_pos_as_xyz
1 x,y,z
2 -x,-y,-z
_cell_length_a                   7.3160(14)
_cell_length_b                   10.8418(14)
_cell_length_c                   12.355(3)
_cell_angle_alpha                80.397(3)
_cell_angle_beta                 87.938(2)
_cell_angle_gamma                83.928(2)
_cell_volume                     960.66
loop_
_atom_site_label
_atom_site_type_symbol
_atom_site_fract_x
_atom_site_fract_y
_atom_site_fract_z
Pb1 Pb 0.69934(4) 0.72859(3) 0.20974(2)
S1 S 0.1970(2) 0.84478(19) 0.20228(15)
O1 O 0.4890(7) 0.5808(5) 0.3080(5)
O2 O 0.2328(7) 0.5285(5) 0.3983(5)
O3 O 0.1087(8) 0.9690(5) 0.1630(4)
O4 O 0.3712(7) 0.8206(7) 0.1458(4)
O5 O 0.0794(7) 0.7452(5) 0.2017(5)
O6 O 0.2826(9) 1.0682(6) 0.6413(5)
O7 O 0.1683(9) 1.1664(6) 0.4802(5)
H1 H 0.1389 1.2232 0.5157
O8 O 0.7593(9) 0.9617(7) 0.0835(6)
H2 H 0.8702(15) 0.9613(7) 0.0961(6)
H3 H 0.7262(10) 1.0156(9) 0.0266(9)
N1 N 0.8109(8) 0.5102(6) 0.1684(5)
N2 N 0.6615(8) 0.6968(7) 0.0138(5)
C1 C 0.8787(12) 0.4205(8) 0.2470(7)
H6 H 0.8947 0.4409 0.3160
C2 C 0.9263(12) 0.2994(8) 0.2315(8)
H7 H 0.9733 0.2391 0.2889
C3 C 0.9040(11) 0.2677(8) 0.1302(8)
H8 H 0.9370 0.1860 0.1179
C4 C 0.8316(12) 0.3591(9) 0.0467(7)
H9 H 0.8135 0.3396 -0.0224
C5 C 0.7865(10) 0.4807(8) 0.0680(6)
C6 C 0.7080(10) 0.5824(8) -0.0167(6)
C7 C 0.6847(11) 0.5685(9) -0.1256(7)
H10 H 0.7146 0.4904 -0.1470
C8 C 0.6176(12) 0.6696(10) -0.2017(7)
H11 H 0.6042 0.6601 -0.2743
C9 C 0.5705(11) 0.7845(9) -0.1699(7)
H12 H 0.5242 0.8537 -0.2198
C10 C 0.5945(11) 0.7939(8) -0.0600(6)
H13 H 0.5624 0.8710 -0.0373
C11 C 0.3484(9) 0.6046(7) 0.3663(6)
C12 C 0.3231(10) 0.7280(8) 0.4073(6)
C13 C 0.2522(9) 0.8419(7) 0.3417(6)
C14 C 0.2247(9) 0.9528(7) 0.3855(6)
H14 H 0.1761 1.0270 0.3427
C15 C 0.2708(10) 0.9515(8) 0.4946(6)
C16 C 0.2418(10) 1.0651(8) 0.5468(7)
C17 C 0.3401(11) 0.8396(8) 0.5577(7)
H15 H 0.3688 0.8393 0.6305
C18 C 0.3677(11) 0.7295(8) 0.5163(6)
H16 H 0.4158 0.6560 0.5604
Pb1_2 Pb -0.30066(4) 0.72859(3) 0.20974(2)
O5_2 O 1.0794(7) 0.7452(5) 0.2017(5)
O9 O 0.8749(7) 0.6324(5) 0.4224(5)
H4 H 0.985(5) 0.603(7) 0.407(7)
H5 H 0.830(9) 0.578(6) 0.471(6)
loop_
_geom_bond_atom_site_label_1
_geom_bond_atom_site_label_2
_geom_bond_site_symmetry_1
_geom_bond_site_symmetry_2
Pb1 O1 1_555 1_555
S1 O3 1_555 1_555
O1 C11 1_555 1_555
O2 C11 1_555 1_555
O4 Pb1 1_555 1_555
O5 S1 1_555 1_555
O6 C16 1_555 1_555
O7 H1 1_555 1_555
O8 Pb1 1_555 1_555
H2 O8 1_555 1_555
H3 O8 1_555 1_555
O9 H4 1_555 1_555
H5 O9 1_555 1_555
N1 Pb1 1_555 1_555
N2 Pb1 1_555 1_555
C1 N1 1_555 1_555
H6 C1 1_555 1_555
C2 C1 1_555 1_555
H7 C2 1_555 1_555
C3 C2 1_555 1_555
H8 C3 1_555 1_555
C4 C3 1_555 1_555
H9 C4 1_555 1_555
C5 N1 1_555 1_555
C6 N2 1_555 1_555
C7 C6 1_555 1_555
H10 C7 1_555 1_555
C8 C7 1_555 1_555
H11 C8 1_555 1_555
C9 C8 1_555 1_555
H12 C9 1_555 1_555
C10 N2 1_555 1_555
H13 C10 1_555 1_555
C11 C12 1_555 1_555
C12 C13 1_555 1_555
C13 S1 1_555 1_555
C14 C13 1_555 1_555
H14 C14 1_555 1_555
C15 C14 1_555 1_555
C16 O7 1_555 1_555
C17 C15 1_555 1_555
H15 C17 1_555 1_555
C18 C12 1_555 1_555
H16 C18 1_555 1_555
Pb1_2 O5 1_555 1_555
O5_2 Pb1 1_555 1_555
S1 O4 1_555 1_555
C4 C5 1_555 1_555
C5 C6 1_555 1_555
C9 C10 1_555 1_555
C15 C16 1_555 1_555
C17 C18 1_555 1_555

#END
