
#######################################################################
#
#                 Cambridge Crystallographic Data Centre
#                                CCDC 
#
#######################################################################
#
# If this CIF has been generated from an entry in the Cambridge 
# Structural Database, then it will include bibliographic, chemical, 
# crystal, experimental, refinement or atomic coordinate data resulting 
# from the CCDC's data processing and validation procedures.
#
#######################################################################

data_EBIGUT
_symmetry_cell_setting           triclinic
_symmetry_space_group_name_H-M   'P -1'
_symmetry_Int_Tables_number      2
_space_group_name_Hall           '-P 1'
loop_
_symmetry_equiv_pos_site_id
_symmetry_equiv_pos_as_xyz
1 x,y,z
2 -x,-y,-z
_cell_length_a                   4.9675(10)
_cell_length_b                   9.4623(19)
_cell_length_c                   11.725(2)
_cell_angle_alpha                89.81(3)
_cell_angle_beta                 89.29(3)
_cell_angle_gamma                79.03(3)
_cell_volume                     541.009
loop_
_atom_site_label
_atom_site_type_symbol
_atom_site_fract_x
_atom_site_fract_y
_atom_site_fract_z
Co1 Co 0.0000 0.5000 0.0000
N1 N 0.1126(10) 0.4211(6) 0.1670(5)
N2 N 0.3225(15) 0.3849(9) 0.3355(6)
N3 N 0.1175(11) 0.3088(6) 0.3308(5)
C1 C 0.5603(12) 0.2973(6) -0.0334(5)
C2 C 0.5264(11) 0.1433(6) -0.0107(5)
C3 C 0.7043(12) 0.0512(7) 0.0553(6)
H1 H 0.8448 0.0848 0.0918
C4 C 0.3193(12) 0.0908(7) -0.0692(6)
H2 H 0.1999 0.1512 -0.1167
C5 C 0.3116(16) 0.4492(9) 0.2377(6)
H3 H 0.4307 0.5100 0.2171
C6 C -0.0036(14) 0.3332(8) 0.2299(6)
H4 H -0.1513 0.2934 0.2068
C7 C 0.0471(15) 0.2231(9) 0.4265(6)
H5 H -0.1043 0.1778 0.4050
H6 H -0.0133 0.2863 0.4905
C8 C 0.2866(14) 0.1072(8) 0.4634(6)
C9 C 0.4433(15) 0.1317(8) 0.5588(6)
C10 C 0.385(2) 0.2761(10) 0.6207(8)
H7 H 0.2574 0.2722 0.6823
H8 H 0.3082 0.3507 0.5683
H9 H 0.5528 0.2963 0.6505
C11 C 0.3462(14) -0.0246(8) 0.4052(6)
C12 C 0.1765(17) -0.0459(10) 0.3032(7)
H10 H 0.2584 -0.0141 0.2356
H11 H -0.0058 0.0090 0.3130
H12 H 0.1688 -0.1461 0.2961
O1 O 0.3619(8) 0.3836(4) -0.0738(4)
O2 O 0.7925(8) 0.3248(4) -0.0090(4)
Co1_2 Co 1.0000 0.5000 0.0000
Co1_3 Co 1.0000 -0.5000 1.0000
Co1_4 Co 0.0000 -0.5000 0.0000
Co1_5 Co 1.0000 -0.5000 0.0000
N1A N 0.8874(10) -0.4211(6) 0.8330(5)
N1A_2 N -0.1126(10) 0.5789(6) -0.1670(5)
N2A N 0.6775(15) -0.3849(9) 0.6645(6)
N3A N 0.8825(11) -0.3088(6) 0.6692(5)
C1A C 0.4397(12) -0.2973(6) 0.0334(5)
C2A C 0.4736(11) -0.1433(6) 0.0107(5)
C3A C 0.2957(12) -0.0512(7) -0.0553(6)
H1A H 0.1552 -0.0848 -0.0918
C4A C 0.6807(12) -0.0908(7) 0.0692(6)
H2A H 0.8001 -0.1512 0.1167
C5A C 0.6884(16) -0.4492(9) 0.7623(6)
H3A H 0.5693 -0.5100 0.7829
C6A C 1.0036(14) -0.3332(8) 0.7701(6)
H4A H 1.1513 -0.2934 0.7932
C7A C 0.9529(15) -0.2231(9) 0.5735(6)
H5A H 1.1043 -0.1778 0.5950
H6A H 1.0133 -0.2863 0.5095
C8A C 0.7134(14) -0.1072(8) 0.5366(6)
C9A C 0.5567(15) -0.1317(8) 0.4412(6)
C10A C 0.615(2) -0.2761(10) 0.3793(8)
H7A H 0.7426 -0.2722 0.3177
H8A H 0.6918 -0.3507 0.4317
H9A H 0.4472 -0.2963 0.3495
C11A C 0.6538(14) 0.0246(8) 0.5948(6)
C12A C 0.8235(17) 0.0459(10) 0.6968(7)
H10A H 0.7416 0.0141 0.7644
H11A H 1.0058 -0.0090 0.6870
H12A H 0.8312 0.1461 0.7039
O1A O 0.6381(8) -0.3836(4) 0.0738(4)
O1A_2 O -0.3619(8) 0.6164(4) 0.0738(4)
O2A O 0.2075(8) -0.3248(4) 0.0090(4)
O2A_2 O 0.2075(8) 0.6752(4) 0.0090(4)
O2_2 O -0.2075(8) 0.3248(4) -0.0090(4)
loop_
_geom_bond_atom_site_label_1
_geom_bond_atom_site_label_2
_geom_bond_site_symmetry_1
_geom_bond_site_symmetry_2
Co1 N1 1_555 1_555
N1 C5 1_555 1_555
N2 N3 1_555 1_555
N3 C6 1_555 1_555
C1 C2 1_555 1_555
C2 C3 1_555 1_555
C3 H1 1_555 1_555
C4 C2 1_555 1_555
H2 C4 1_555 1_555
C5 N2 1_555 1_555
H3 C5 1_555 1_555
C6 N1 1_555 1_555
H4 C6 1_555 1_555
C7 N3 1_555 1_555
H5 C7 1_555 1_555
H6 C7 1_555 1_555
C8 C7 1_555 1_555
C9 C8 1_555 1_555
C10 C9 1_555 1_555
H7 C10 1_555 1_555
H8 C10 1_555 1_555
H9 C10 1_555 1_555
C11 C8 1_555 1_555
C12 C11 1_555 1_555
H10 C12 1_555 1_555
H11 C12 1_555 1_555
H12 C12 1_555 1_555
O1 Co1 1_555 1_555
O2 C1 1_555 1_555
Co1_2 O2 1_555 1_555
Co1_3 N1A 1_555 1_555
Co1_4 O2A 1_555 1_555
Co1_5 O1A 1_555 1_555
N1A C5A 1_555 1_555
N1A_2 Co1 1_555 1_555
N2A N3A 1_555 1_555
N3A C6A 1_555 1_555
C1A C2A 1_555 1_555
C2A C3A 1_555 1_555
C3A C4 1_555 1_555
H1A C3A 1_555 1_555
C4A C3 1_555 1_555
H2A C4A 1_555 1_555
C5A N2A 1_555 1_555
H3A C5A 1_555 1_555
C6A N1A 1_555 1_555
H4A C6A 1_555 1_555
C7A N3A 1_555 1_555
H5A C7A 1_555 1_555
H6A C7A 1_555 1_555
C8A C7A 1_555 1_555
C9A C11 1_555 1_555
C10A C9A 1_555 1_555
H7A C10A 1_555 1_555
H8A C10A 1_555 1_555
H9A C10A 1_555 1_555
C11A C9 1_555 1_555
C12A C11A 1_555 1_555
H10A C12A 1_555 1_555
H11A C12A 1_555 1_555
H12A C12A 1_555 1_555
O1A C1A 1_555 1_555
O1A_2 Co1 1_555 1_555
O2A C1A 1_555 1_555
O2A_2 Co1 1_555 1_555
O2_2 Co1 1_555 1_555
C1 O1 1_555 1_555
C2A C4A 1_555 1_555
C8A C9A 1_555 1_555
C8A C11A 1_555 1_555

#END
