
#######################################################################
#
#                 Cambridge Crystallographic Data Centre
#                                CCDC 
#
#######################################################################
#
# If this CIF has been generated from an entry in the Cambridge 
# Structural Database, then it will include bibliographic, chemical, 
# crystal, experimental, refinement or atomic coordinate data resulting 
# from the CCDC's data processing and validation procedures.
#
#######################################################################

data_EBIGAX
_symmetry_cell_setting           monoclinic
_symmetry_space_group_name_H-M   'C 2/c'
_symmetry_Int_Tables_number      15
_space_group_name_Hall           '-C 2yn'
loop_
_symmetry_equiv_pos_site_id
_symmetry_equiv_pos_as_xyz
1 x,y,z
2 -x,y,1/2-z
3 1/2+x,1/2+y,z
4 1/2-x,1/2+y,1/2-z
5 -x,-y,-z
6 x,-y,1/2+z
7 1/2-x,1/2-y,-z
8 1/2+x,1/2-y,1/2+z
_cell_length_a                   20.154(4)
_cell_length_b                   12.091(2)
_cell_length_c                   15.202(4)
_cell_angle_alpha                90
_cell_angle_beta                 106.79(2)
_cell_angle_gamma                90
_cell_volume                     3546.53
loop_
_atom_site_label
_atom_site_type_symbol
_atom_site_fract_x
_atom_site_fract_y
_atom_site_fract_z
Au1 Au 0.4847(1) 0.4725(1) 0.1418(1)
Ag1 Ag 0.5479(1) 0.3931(1) 0.0134(1)
C1 C 0.5769(4) 0.3817(6) 0.1805(5)
C2 C 0.6424(4) 0.4341(7) 0.2134(6)
C3 C 0.7005(4) 0.3778(8) 0.2632(6)
C4 C 0.6964(5) 0.2678(8) 0.2843(6)
C5 C 0.6342(5) 0.2130(8) 0.2535(6)
C6 C 0.5762(4) 0.2709(7) 0.2006(6)
F1 F 0.6482(3) 0.5428(4) 0.1946(4)
F2 F 0.7624(2) 0.4332(5) 0.2939(4)
F3 F 0.7528(3) 0.2134(6) 0.3334(5)
F4 F 0.6303(4) 0.1048(5) 0.2717(5)
F5 F 0.5162(2) 0.2121(4) 0.1688(4)
C7 C 0.3902(4) 0.5561(8) 0.1020(6)
C8 C 0.3295(5) 0.5019(10) 0.0492(7)
C9 C 0.2640(5) 0.5450(12) 0.0363(8)
C10 C 0.2556(5) 0.6444(13) 0.0762(8)
C11 C 0.3130(5) 0.7019(10) 0.1263(7)
C12 C 0.3780(4) 0.6557(8) 0.1391(6)
F6 F 0.3356(3) 0.4012(6) 0.0117(4)
F7 F 0.2071(3) 0.4880(8) -0.0124(5)
F8 F 0.1912(3) 0.6855(8) 0.0646(5)
F9 F 0.3044(4) 0.7998(7) 0.1631(5)
F10 F 0.4322(3) 0.7133(5) 0.1937(4)
C13 C 0.4853(6) 0.1583(8) -0.0722(7)
C14 C 0.4896(11) 0.0504(12) -0.1182(12)
C15 C 0.4152(7) 0.2059(14) -0.0813(12)
O1 O 0.5367(3) 0.2050(6) -0.0282(5)
H1 H 0.4808 0.0624 -0.1843
H2 H 0.4548 -0.0006 -0.1077
H3 H 0.5359 0.0188 -0.0926
H4 H 0.4145 0.2388 -0.0227
H5 H 0.3803 0.1471 -0.0981
H6 H 0.4048 0.2629 -0.1292
Au1A Au 0.5153(1) 0.4725(1) 0.3582(1)
Ag1A Ag 0.4521(1) 0.3931(1) 0.4866(1)
Ag1E Ag 0.5479(1) 0.6069(1) 0.5134(1)
C1A C 0.4231(4) 0.3817(6) 0.3195(5)
C7A C 0.6098(4) 0.5561(8) 0.3980(6)
C8A C 0.6705(5) 0.5019(10) 0.4508(7)
C9A C 0.7360(5) 0.5450(12) 0.4637(8)
C10A C 0.7444(5) 0.6444(13) 0.4238(8)
C11A C 0.6870(5) 0.7019(10) 0.3737(7)
C12A C 0.6220(4) 0.6557(8) 0.3609(6)
F10A F 0.5678(3) 0.7133(5) 0.3063(4)
F9A F 0.6956(4) 0.7998(7) 0.3369(5)
F8A F 0.8088(3) 0.6855(8) 0.4354(5)
F7A F 0.7929(3) 0.4880(8) 0.5124(5)
F6A F 0.6644(3) 0.4012(6) 0.4883(4)
C2A C 0.3576(4) 0.4341(7) 0.2866(6)
C3A C 0.2995(4) 0.3778(8) 0.2368(6)
C4A C 0.3036(5) 0.2678(8) 0.2157(6)
C5A C 0.3658(5) 0.2130(8) 0.2465(6)
C6A C 0.4238(4) 0.2709(7) 0.2994(6)
F5A F 0.4838(2) 0.2121(4) 0.3312(4)
F4A F 0.3697(4) 0.1048(5) 0.2283(5)
F3A F 0.2472(3) 0.2134(6) 0.1666(5)
F2A F 0.2376(2) 0.4332(5) 0.2061(4)
F1A F 0.3518(3) 0.5428(4) 0.3054(4)
Au1D Au 0.5153(1) 0.5275(1) -0.1418(1)
Ag1D Ag 0.4521(1) 0.6069(1) -0.0134(1)
C1D C 0.4231(4) 0.6183(6) -0.1805(5)
C7D C 0.6098(4) 0.4439(8) -0.1020(6)
O1D O 0.4633(3) 0.7950(6) 0.0282(5)
C13D C 0.5147(6) 0.8417(8) 0.0722(7)
C14D C 0.5104(11) 0.9496(12) 0.1182(12)
H1D H 0.5192 0.9376 0.1843
H2D H 0.5452 1.0006 0.1077
H3D H 0.4641 0.9812 0.0926
C15D C 0.5848(7) 0.7941(14) 0.0813(12)
H4D H 0.5855 0.7612 0.0227
H5D H 0.6197 0.8529 0.0981
H6D H 0.5952 0.7371 0.1292
loop_
_geom_bond_atom_site_label_1
_geom_bond_atom_site_label_2
_geom_bond_site_symmetry_1
_geom_bond_site_symmetry_2
Au1 Ag1 1_555 1_555
Ag1 C1 1_555 1_555
C1 Au1 1_555 1_555
C2 C1 1_555 1_555
C3 C2 1_555 1_555
C4 C3 1_555 1_555
C5 C4 1_555 1_555
C6 C1 1_555 1_555
F1 C2 1_555 1_555
F2 C3 1_555 1_555
F3 C4 1_555 1_555
F4 C5 1_555 1_555
F5 C6 1_555 1_555
C7 Au1 1_555 1_555
C8 C7 1_555 1_555
C9 C8 1_555 1_555
C10 C9 1_555 1_555
C11 C10 1_555 1_555
C12 C7 1_555 1_555
F6 C8 1_555 1_555
F7 C9 1_555 1_555
F8 C10 1_555 1_555
F9 C11 1_555 1_555
F10 C12 1_555 1_555
C13 C14 1_555 1_555
C14 H1 1_555 1_555
C15 C13 1_555 1_555
O1 Ag1 1_555 1_555
H2 C14 1_555 1_555
H3 C14 1_555 1_555
H4 C15 1_555 1_555
H5 C15 1_555 1_555
H6 C15 1_555 1_555
Au1A Au1 1_555 1_555
Ag1A Au1A 1_555 1_555
Ag1E Au1A 1_555 1_555
C1A Au1A 1_555 1_555
C7A Au1A 1_555 1_555
C8A C7A 1_555 1_555
C9A C8A 1_555 1_555
C10A C9A 1_555 1_555
C11A C10A 1_555 1_555
C12A C7A 1_555 1_555
F10A C12A 1_555 1_555
F9A C11A 1_555 1_555
F8A C10A 1_555 1_555
F7A C9A 1_555 1_555
F6A C8A 1_555 1_555
C2A C1A 1_555 1_555
C3A C2A 1_555 1_555
C4A C3A 1_555 1_555
C5A C4A 1_555 1_555
C6A C1A 1_555 1_555
F5A C6A 1_555 1_555
F4A C5A 1_555 1_555
F3A C4A 1_555 1_555
F2A C3A 1_555 1_555
F1A C2A 1_555 1_555
Au1D Ag1 1_555 1_555
Ag1D Au1 1_555 1_555
C1D Au1D 1_555 1_555
C7D Ag1 1_555 1_555
O1D Ag1D 1_555 1_555
C13D O1D 1_555 1_555
C14D C13D 1_555 1_555
H1D C14D 1_555 1_555
H2D C14D 1_555 1_555
H3D C14D 1_555 1_555
C15D C13D 1_555 1_555
H4D C15D 1_555 1_555
H5D C15D 1_555 1_555
H6D C15D 1_555 1_555
Ag1 Ag1D 1_555 1_555
C5 C6 1_555 1_555
C7 Ag1D 1_555 1_555
C11 C12 1_555 1_555
C13 O1 1_555 1_555
Ag1A C1A 1_555 1_555
Ag1A Ag1E 1_555 1_555
Ag1E C7A 1_555 1_555
C11A C12A 1_555 1_555
C5A C6A 1_555 1_555
Au1D Ag1D 1_555 1_555
Au1D C7D 1_555 1_555
Ag1D C1D 1_555 1_555

#END
