
#######################################################################
#
#                 Cambridge Crystallographic Data Centre
#                                CCDC 
#
#######################################################################
#
# If this CIF has been generated from an entry in the Cambridge 
# Structural Database, then it will include bibliographic, chemical, 
# crystal, experimental, refinement or atomic coordinate data resulting 
# from the CCDC's data processing and validation procedures.
#
#######################################################################

data_EBIGED
_symmetry_cell_setting           monoclinic
_symmetry_space_group_name_H-M   'C 2/c'
_symmetry_Int_Tables_number      15
_space_group_name_Hall           '-C 2yn'
loop_
_symmetry_equiv_pos_site_id
_symmetry_equiv_pos_as_xyz
1 x,y,z
2 -x,y,1/2-z
3 1/2+x,1/2+y,z
4 1/2-x,1/2+y,1/2-z
5 -x,-y,-z
6 x,-y,1/2+z
7 1/2-x,1/2-y,-z
8 1/2+x,1/2-y,1/2+z
_cell_length_a                   19.772(4)
_cell_length_b                   9.997(2)
_cell_length_c                   23.510(5)
_cell_angle_alpha                90
_cell_angle_beta                 105.50(3)
_cell_angle_gamma                90
_cell_volume                     4477.99
loop_
_atom_site_label
_atom_site_type_symbol
_atom_site_fract_x
_atom_site_fract_y
_atom_site_fract_z
Cd1 Cd 0.367872(11) 0.50424(2) 0.251094(10)
N1 N 0.26381(15) 0.5273(3) 0.17995(13)
N2 N 0.17871(17) 0.6285(4) 0.11067(15)
N3 N 0.15208(15) 0.5281(3) 0.13692(12)
N4 N 0.30389(17) 0.5195(3) 0.32189(14)
N5 N 0.23995(17) 0.6381(3) 0.36932(14)
N6 N 0.27389(17) 0.5361(3) 0.40401(14)
C1 C 0.2461(2) 0.6226(4) 0.13805(17)
H1 H 0.2789 0.6798 0.1292
C2 C 0.20256(17) 0.4702(3) 0.17819(14)
H2 H 0.1961 0.4003 0.2023
C3 C 0.07609(19) 0.5021(4) 0.12365(16)
H3 H 0.0550 0.5692 0.1433
H4 H 0.0689 0.4156 0.1398
C4 C 0.0860(2) 0.2705(5) 0.0517(2)
H5 H 0.1178 0.2967 0.0885
H6 H 0.1122 0.2406 0.0251
H7 H 0.0566 0.1992 0.0585
C5 C 0.04079(17) 0.3891(4) 0.02496(16)
C6 C 0.03875(17) 0.5035(3) 0.05824(15)
C7 C -0.00106(18) 0.6153(4) 0.03439(15)
C8 C -0.0013(3) 0.7391(5) 0.0711(2)
H8 H -0.0402 0.7353 0.0883
H9 H -0.0056 0.8169 0.0465
H10 H 0.0417 0.7438 0.1019
C9 C 0.25955(19) 0.6236(4) 0.32097(16)
H11 H 0.2444 0.6798 0.2886
C10 C 0.3112(2) 0.4680(4) 0.37548(17)
H12 H 0.3389 0.3943 0.3905
C11 C 0.2673(3) 0.5224(4) 0.46485(18)
H13 H 0.2270 0.5736 0.4686
H14 H 0.3087 0.5600 0.4921
C12 C 0.3899(3) 0.3694(6) 0.5338(2)
H15 H 0.3992 0.4067 0.5728
H16 H 0.3926 0.4387 0.5062
H17 H 0.4240 0.3016 0.5332
C13 C 0.3173(2) 0.3085(4) 0.51688(16)
C14 C 0.2589(2) 0.3784(4) 0.48189(15)
C15 C 0.1923(2) 0.3206(4) 0.46473(15)
C16 C 0.1306(2) 0.3966(5) 0.4263(2)
H18 H 0.1052 0.4394 0.4508
H19 H 0.1001 0.3355 0.3999
H20 H 0.1474 0.4630 0.4039
C17 C 0.42161(15) 0.2562(3) 0.23820(14)
C18 C 0.46328(15) 0.1280(3) 0.24358(13)
C19 C 0.42765(17) 0.0071(3) 0.23740(14)
H21 H 0.3789 0.0072 0.2291
C20 C 0.46341(15) -0.1152(3) 0.24345(13)
C21 C 0.42133(15) -0.2424(3) 0.23730(14)
O1 O 0.43111(13) 0.3465(2) 0.20416(11)
O2 O 0.37959(14) 0.2678(2) 0.26926(13)
O3 O 0.43079(13) -0.3331(2) 0.20361(11)
O4 O 0.37778(14) -0.2528(3) 0.26702(14)
O5 O 0.47135(14) 0.5084(2) 0.32911(11)
H22 H 0.4951 0.4428 0.3218
H23 H 0.4937 0.5738 0.3199
Cd1A Cd 0.632128(11) 0.50424(2) 0.248906(10)
Cd1_2 Cd 0.367872(11) -0.49576(2) 0.251094(10)
Cd1A_2 Cd 0.632128(11) -0.49576(2) 0.248906(10)
Cd1D Cd -0.367872(11) 0.49576(2) -0.251094(10)
Cd1F Cd 0.132128(11) -0.00424(2) 0.748906(10)
N1D N -0.26381(15) 0.4727(3) -0.17995(13)
N1A N 0.73619(15) 0.5273(3) 0.32005(13)
N2D N -0.17871(17) 0.3715(4) -0.11067(15)
N3D N -0.15208(15) 0.4719(3) -0.13692(12)
N4F N 0.19611(17) -0.0195(3) 0.67811(14)
N4A N 0.69611(17) 0.5195(3) 0.17811(14)
N5F N 0.26005(17) -0.1381(3) 0.63068(14)
N6F N 0.22611(17) -0.0361(3) 0.59599(14)
C1D C -0.2461(2) 0.3774(4) -0.13805(17)
H1D H -0.2789 0.3202 -0.1292
C2D C -0.20256(17) 0.5298(3) -0.17819(14)
H2D H -0.1961 0.5997 -0.2023
C3D C -0.07609(19) 0.4979(4) -0.12365(16)
H3D H -0.0550 0.4308 -0.1433
H4D H -0.0689 0.5844 -0.1398
C4D C -0.0860(2) 0.7295(5) -0.0517(2)
H5D H -0.1178 0.7033 -0.0885
H6D H -0.1122 0.7594 -0.0251
H7D H -0.0566 0.8008 -0.0585
C5D C -0.04079(17) 0.6109(4) -0.02496(16)
C6D C -0.03875(17) 0.4965(3) -0.05824(15)
C7D C 0.00106(18) 0.3847(4) -0.03439(15)
C8D C 0.0013(3) 0.2609(5) -0.0711(2)
H8D H 0.0402 0.2647 -0.0883
H9D H 0.0056 0.1831 -0.0465
H10D H -0.0417 0.2562 -0.1019
C9F C 0.24045(19) -0.1236(4) 0.67903(16)
H11F H 0.2556 -0.1798 0.7114
C10F C 0.1888(2) 0.0320(4) 0.62452(17)
H12F H 0.1611 0.1057 0.6095
C11F C 0.2327(3) -0.0224(4) 0.53515(18)
H13F H 0.2730 -0.0736 0.5314
H14F H 0.1913 -0.0600 0.5079
C12F C 0.1101(3) 0.1306(6) 0.4662(2)
H15F H 0.1008 0.0933 0.4272
H16F H 0.1074 0.0613 0.4938
H17F H 0.0760 0.1984 0.4668
C13F C 0.1827(2) 0.1915(4) 0.48312(16)
C14F C 0.2411(2) 0.1216(4) 0.51811(15)
C15F C 0.3077(2) 0.1794(4) 0.53527(15)
C16F C 0.3694(2) 0.1034(5) 0.5737(2)
H18F H 0.3948 0.0606 0.5492
H19F H 0.3999 0.1645 0.6001
H20F H 0.3526 0.0370 0.5961
C17A C 0.57839(15) 0.2562(3) 0.26180(14)
C18A C 0.53672(15) 0.1280(3) 0.25642(13)
C19A C 0.57235(17) 0.0071(3) 0.26260(14)
H21A H 0.6211 0.0072 0.2709
C20A C 0.53659(15) -0.1152(3) 0.25655(13)
C21A C 0.57867(15) -0.2424(3) 0.26270(14)
O1A O 0.56889(13) 0.3465(2) 0.29584(11)
O2A O 0.62041(14) 0.2678(2) 0.23074(13)
O3A O 0.56921(13) -0.3331(2) 0.29639(11)
O3_2 O 0.43079(13) 0.6669(2) 0.20361(11)
O3A_2 O 0.56921(13) 0.6669(2) 0.29639(11)
O4A O 0.62222(14) -0.2528(3) 0.23298(14)
O4_2 O 0.37778(14) 0.7472(3) 0.26702(14)
O4A_2 O 0.62222(14) 0.7472(3) 0.23298(14)
O5A O 0.52865(14) 0.5084(2) 0.17089(11)
H22A H 0.5049 0.4428 0.1782
H23A H 0.5063 0.5738 0.1801
O6 O 0.3350(4) 0.6607(8) 0.5843(3)
H24 H 0.3729 0.6319 0.6075
H25 H 0.3173 0.7190 0.6024
loop_
_geom_bond_atom_site_label_1
_geom_bond_atom_site_label_2
_geom_bond_site_symmetry_1
_geom_bond_site_symmetry_2
Cd1 N1 1_555 1_555
N1 C1 1_555 1_555
N2 N3 1_555 1_555
N3 C2 1_555 1_555
N4 Cd1 1_555 1_555
N5 N6 1_555 1_555
N6 C10 1_555 1_555
C1 N2 1_555 1_555
H1 C1 1_555 1_555
C2 N1 1_555 1_555
H2 C2 1_555 1_555
C3 N3 1_555 1_555
H3 C3 1_555 1_555
H4 C3 1_555 1_555
C4 H5 1_555 1_555
H6 C4 1_555 1_555
H7 C4 1_555 1_555
C5 C4 1_555 1_555
C6 C3 1_555 1_555
C7 C6 1_555 1_555
C8 C7 1_555 1_555
H8 C8 1_555 1_555
H9 C8 1_555 1_555
H10 C8 1_555 1_555
C9 N4 1_555 1_555
H11 C9 1_555 1_555
C10 N4 1_555 1_555
H12 C10 1_555 1_555
C11 N6 1_555 1_555
H13 C11 1_555 1_555
H14 C11 1_555 1_555
C12 H15 1_555 1_555
H16 C12 1_555 1_555
H17 C12 1_555 1_555
C13 C12 1_555 1_555
C14 C11 1_555 1_555
C15 C14 1_555 1_555
C16 C15 1_555 1_555
H18 C16 1_555 1_555
H19 C16 1_555 1_555
H20 C16 1_555 1_555
C17 C18 1_555 1_555
C18 C19 1_555 1_555
C19 H21 1_555 1_555
C20 C19 1_555 1_555
C21 C20 1_555 1_555
O1 Cd1 1_555 1_555
O2 Cd1 1_555 1_555
O3 C21 1_555 1_555
O4 C21 1_555 1_555
O5 Cd1 1_555 1_555
H22 O5 1_555 1_555
H23 O5 1_555 1_555
O6 H24 1_555 1_555
H25 O6 1_555 1_555
Cd1A N1A 1_555 1_555
Cd1_2 O3 1_555 1_555
Cd1A_2 O3A 1_555 1_555
Cd1D N1D 1_555 1_555
Cd1F N4F 1_555 1_555
N1D C1D 1_555 1_555
N2D N3D 1_555 1_555
N3D C2D 1_555 1_555
N4F C9F 1_555 1_555
N4A Cd1A 1_555 1_555
N5F N6F 1_555 1_555
N6F C10F 1_555 1_555
C1D N2D 1_555 1_555
H1D C1D 1_555 1_555
C2D N1D 1_555 1_555
H2D C2D 1_555 1_555
C3D N3D 1_555 1_555
H3D C3D 1_555 1_555
H4D C3D 1_555 1_555
C4D H5D 1_555 1_555
H6D C4D 1_555 1_555
H7D C4D 1_555 1_555
C5D C7 1_555 1_555
C6D C3D 1_555 1_555
C7D C5 1_555 1_555
C8D C7D 1_555 1_555
H8D C8D 1_555 1_555
H9D C8D 1_555 1_555
H10D C8D 1_555 1_555
C9F N5F 1_555 1_555
H11F C9F 1_555 1_555
C10F N4F 1_555 1_555
H12F C10F 1_555 1_555
C11F N6F 1_555 1_555
H13F C11F 1_555 1_555
H14F C11F 1_555 1_555
C12F H15F 1_555 1_555
H16F C12F 1_555 1_555
H17F C12F 1_555 1_555
C13F C15 1_555 1_555
C14F C11F 1_555 1_555
C15F C13 1_555 1_555
C16F C15F 1_555 1_555
H18F C16F 1_555 1_555
H19F C16F 1_555 1_555
H20F C16F 1_555 1_555
C17A C18A 1_555 1_555
C18A C18 1_555 1_555
C19A C18A 1_555 1_555
H21A C19A 1_555 1_555
C20A C20 1_555 1_555
C21A C20A 1_555 1_555
O1A Cd1A 1_555 1_555
O2A Cd1A 1_555 1_555
O3A C21A 1_555 1_555
O3_2 Cd1 1_555 1_555
O3A_2 Cd1A 1_555 1_555
O4A Cd1A_2 1_555 1_555
O4_2 Cd1 1_555 1_555
O4A_2 Cd1A 1_555 1_555
O5A Cd1A 1_555 1_555
H22A O5A 1_555 1_555
H23A O5A 1_555 1_555
N5 C9 1_555 1_555
C5 C6 1_555 1_555
C13 C14 1_555 1_555
C17 O1 1_555 1_555
C17 O2 1_555 1_555
O4 Cd1_2 1_555 1_555
C4D C5D 1_555 1_555
C5D C6D 1_555 1_555
C6D C7D 1_555 1_555
C12F C13F 1_555 1_555
C13F C14F 1_555 1_555
C14F C15F 1_555 1_555
C17A O1A 1_555 1_555
C17A O2A 1_555 1_555
C19A C20A 1_555 1_555
C21A O4A 1_555 1_555

#END
