
#######################################################################
#
#                 Cambridge Crystallographic Data Centre
#                                CCDC 
#
#######################################################################
#
# If this CIF has been generated from an entry in the Cambridge 
# Structural Database, then it will include bibliographic, chemical, 
# crystal, experimental, refinement or atomic coordinate data resulting 
# from the CCDC's data processing and validation procedures.
#
#######################################################################

data_EBIGIH
_symmetry_cell_setting           triclinic
_symmetry_space_group_name_H-M   'P -1'
_symmetry_Int_Tables_number      2
_space_group_name_Hall           '-P 1'
loop_
_symmetry_equiv_pos_site_id
_symmetry_equiv_pos_as_xyz
1 x,y,z
2 -x,-y,-z
_cell_length_a                   10.233(2)
_cell_length_b                   14.009(3)
_cell_length_c                   14.022(3)
_cell_angle_alpha                67.35(3)
_cell_angle_beta                 84.67(3)
_cell_angle_gamma                71.07(3)
_cell_volume                     1753.57
loop_
_atom_site_label
_atom_site_type_symbol
_atom_site_fract_x
_atom_site_fract_y
_atom_site_fract_z
Cd1 Cd 0.79878(2) 0.81564(2) 0.573728(18)
N1 N 0.8322(4) 0.7129(3) 0.4674(3)
N2 N 0.7910(3) 0.6067(3) 0.4026(3)
N3 N 0.8598(4) 0.6662(3) 0.3290(3)
N4 N 0.7697(4) 0.9201(3) -0.3243(3)
N5 N 0.7732(4) 1.0548(3) -0.2762(3)
N6 N 0.8396(3) 0.9557(3) -0.2036(2)
N7 N 0.6769(3) 1.0729(3) 0.2672(2)
N8 N 0.8112(4) 1.0705(3) 0.2680(2)
N9 N 0.7568(3) 0.9659(3) 0.4233(2)
C1 C 0.7324(4) 1.0276(4) -0.3472(3)
H1 H 0.6824 1.0789 -0.4073
C2 C 0.8376(5) 0.8778(4) -0.2333(3)
H2 H 0.8779 0.8037 -0.1960
C3 C 0.9076(4) 0.9449(4) -0.1114(3)
H3 H 0.9835 0.9750 -0.1321
H4 H 0.9463 0.8682 -0.0690
C4 C 0.8111(4) 1.0019(3) -0.0469(3)
C5 C 0.7289(4) 0.9469(3) 0.0246(3)
C6 C 0.7237(6) 0.8377(4) 0.0317(4)
H5 H 0.7393 0.8326 -0.0350
H6 H 0.6346 0.8307 0.0541
H7 H 0.7939 0.7804 0.0804
C7 C 0.6514(4) 0.9940(3) 0.0918(3)
C8 C 0.5617(5) 0.9347(4) 0.1695(3)
H8 H 0.6188 0.8770 0.2269
H9 H 0.5162 0.9047 0.1366
H10 H 0.4938 0.9851 0.1938
C9 C 0.6582(4) 1.0922(3) 0.0882(3)
C10 C 0.7343(5) 1.1510(3) 0.0130(3)
C11 C 0.7375(7) 1.2608(4) 0.0076(4)
H11 H 0.6461 1.3123 -0.0085
H12 H 0.7986 1.2864 -0.0451
H13 H 0.7698 1.2531 0.0732
C12 C 0.8120(4) 1.1041(3) -0.0557(3)
C13 C 0.8965(5) 1.1634(5) -0.1364(3)
H14 H 0.8572 1.2403 -0.1529
H15 H 0.8962 1.1483 -0.1976
H16 H 0.9898 1.1392 -0.1101
C14 C 0.5907(5) 1.1349(4) 0.1719(3)
H17 H 0.5812 1.2116 0.1495
H18 H 0.4992 1.1269 0.1842
C15 C 0.6476(4) 1.0096(3) 0.3597(3)
H19 H 0.5626 0.9979 0.3770
C16 C 0.8530(4) 1.0065(3) 0.3632(3)
H20 H 0.9420 0.9899 0.3881
C17 C 0.7772(5) 0.6350(4) 0.4840(4)
H21 H 0.7346 0.6042 0.5444
C18 C 0.8807(4) 0.7285(4) 0.3726(4)
H22 H 0.9260 0.7798 0.3397
C19 C 0.7449(5) 0.5252(4) 0.3852(4)
H23 H 0.8184 0.4560 0.4065
H24 H 0.7242 0.5484 0.3121
C20 C 0.6181(4) 0.5113(3) 0.4456(4)
C21 C 0.6301(4) 0.4292(3) 0.5429(4)
C22 C 0.7727(5) 0.3538(5) 0.5911(5)
H25 H 0.7828 0.3559 0.6576
H26 H 0.8428 0.3774 0.5469
H27 H 0.7820 0.2806 0.5990
C23 C 0.4868(5) 0.5827(3) 0.4020(3)
C24 C 0.4742(7) 0.6725(5) 0.2959(5)
H28 H 0.4445 0.6519 0.2457
H29 H 0.5624 0.6837 0.2778
H30 H 0.4078 0.7387 0.2969
C25 C 1.5462(4) 0.7573(3) 0.6170(3)
C26 C 1.4466(3) 0.6962(3) 0.6753(3)
C27 C 1.4830(4) 0.6102(3) 0.7703(3)
C28 C 1.6268(5) 0.5637(4) 0.8150(4)
C29 C 1.3851(4) 0.5643(3) 0.8265(3)
H31 H 1.4099 0.5071 0.8904
C30 C 1.2494(4) 0.6037(3) 0.7874(3)
H32 H 1.1829 0.5744 0.8259
C31 C 1.2143(3) 0.6865(3) 0.6911(3)
C32 C 1.0690(4) 0.7293(3) 0.6455(3)
C33 C 1.3125(4) 0.7324(3) 0.6363(3)
H33 H 1.2879 0.7886 0.5718
O1 O 1.6530(3) 0.7346(3) 0.6681(2)
O2 O 1.5187(3) 0.8244(3) 0.5286(3)
O3 O 1.7172(4) 0.5057(3) 0.7674(3)
O4 O 1.65579(16) 0.57430(17) 0.89251(15)
H34 H 1.7387 0.5441 0.9070
O5 O 1.03731(16) 0.81078(17) 0.56402(15)
O6 O 0.98400(16) 0.68107(17) 0.69253(15)
Cd1A Cd 0.20122(2) 0.18436(2) 0.426272(18)
Cd1_2 Cd 0.79878(2) 0.81564(2) -0.426272(18)
Cd1_3 Cd 1.79878(2) 0.81564(2) 0.573728(18)
Cd1_4 Cd -0.20122(2) 0.81564(2) 0.573728(18)
Cd1_5 Cd 0.79878(2) 0.81564(2) 1.573728(18)
N1A N 0.1678(4) 0.2871(3) 0.5326(3)
N2A N 0.2090(3) 0.3933(3) 0.5974(3)
N3A N 0.1402(4) 0.3338(3) 0.6710(3)
N4_2 N 0.7697(4) 0.9201(3) 0.6757(3)
N4A N 0.2303(4) 0.0799(3) 0.3243(3)
N5_2 N 0.7732(4) 1.0548(3) 0.7238(3)
N6_2 N 0.8396(3) 0.9557(3) 0.7964(2)
N7_2 N 0.6769(3) 1.0729(3) 1.2672(2)
N8_2 N 0.8112(4) 1.0705(3) 1.2680(2)
N9_2 N 0.7568(3) 0.9659(3) 1.4233(2)
N9A N 0.2432(3) 0.0341(3) 0.5767(2)
C1_2 C 0.7324(4) 1.0276(4) 0.6528(3)
H1_2 H 0.6824 1.0789 0.5927
C2_2 C 0.8376(5) 0.8778(4) 0.7667(3)
H2_2 H 0.8779 0.8037 0.8040
C3_2 C 0.9076(4) 0.9449(4) 0.8886(3)
H3_2 H 0.9835 0.9750 0.8679
H4_2 H 0.9463 0.8682 0.9310
C4_2 C 0.8111(4) 1.0019(3) 0.9531(3)
C5_2 C 0.7289(4) 0.9469(3) 1.0246(3)
C6_2 C 0.7237(6) 0.8377(4) 1.0317(4)
H5_2 H 0.7393 0.8326 0.9650
H6_2 H 0.6346 0.8307 1.0541
H7_2 H 0.7939 0.7804 1.0804
C7_2 C 0.6514(4) 0.9940(3) 1.0918(3)
C8_2 C 0.5617(5) 0.9347(4) 1.1695(3)
H8_2 H 0.6188 0.8770 1.2269
H9_2 H 0.5162 0.9047 1.1366
H10_2 H 0.4938 0.9851 1.1938
C9_2 C 0.6582(4) 1.0922(3) 1.0882(3)
C10_2 C 0.7343(5) 1.1510(3) 1.0130(3)
C11_2 C 0.7375(7) 1.2608(4) 1.0076(4)
H11_2 H 0.6461 1.3123 0.9915
H12_2 H 0.7986 1.2864 0.9549
H13_2 H 0.7698 1.2531 1.0732
C12_2 C 0.8120(4) 1.1041(3) 0.9443(3)
C13_2 C 0.8965(5) 1.1634(5) 0.8636(3)
H14_2 H 0.8572 1.2403 0.8471
H15_2 H 0.8962 1.1483 0.8024
H16_2 H 0.9898 1.1392 0.8899
C14_2 C 0.5907(5) 1.1349(4) 1.1719(3)
H17_2 H 0.5812 1.2116 1.1495
H18_2 H 0.4992 1.1269 1.1842
C15_2 C 0.6476(4) 1.0096(3) 1.3597(3)
H19_2 H 0.5626 0.9979 1.3770
C16_2 C 0.8530(4) 1.0065(3) 1.3632(3)
H20_2 H 0.9420 0.9899 1.3881
C17A C 0.2228(5) 0.3650(4) 0.5160(4)
H21A H 0.2654 0.3958 0.4556
C18A C 0.1193(4) 0.2715(4) 0.6274(4)
H22A H 0.0740 0.2202 0.6603
C19A C 0.2551(5) 0.4748(4) 0.6148(4)
H23A H 0.1816 0.5440 0.5935
H24A H 0.2758 0.4516 0.6879
C20A C 0.3819(4) 0.4887(3) 0.5544(4)
C21A C 0.3699(4) 0.5708(3) 0.4571(4)
C22A C 0.2273(5) 0.6462(5) 0.4089(5)
H25A H 0.2172 0.6441 0.3424
H26A H 0.1572 0.6226 0.4531
H27A H 0.2180 0.7194 0.4010
C23A C 0.5132(5) 0.4173(3) 0.5980(3)
C24A C 0.5258(7) 0.3275(5) 0.7041(5)
H28A H 0.5555 0.3481 0.7543
H29A H 0.4376 0.3163 0.7222
H30A H 0.5922 0.2613 0.7031
C25_2 C 0.5462(4) 0.7573(3) 0.6170(3)
C26_2 C 0.4466(3) 0.6962(3) 0.6753(3)
C27_2 C 0.4830(4) 0.6102(3) 0.7703(3)
C28_2 C 0.6268(5) 0.5637(4) 0.8150(4)
C29_2 C 0.3851(4) 0.5643(3) 0.8265(3)
H31_2 H 0.4099 0.5071 0.8904
C30_2 C 0.2494(4) 0.6037(3) 0.7874(3)
H32_2 H 0.1829 0.5744 0.8259
C31_2 C 0.2143(3) 0.6865(3) 0.6911(3)
C32_2 C 0.0690(4) 0.7293(3) 0.6455(3)
C33_2 C 0.3125(4) 0.7324(3) 0.6363(3)
H33_2 H 0.2879 0.7886 0.5718
O1_2 O 0.6530(3) 0.7346(3) 0.6681(2)
O1A O 0.3470(3) 0.2654(3) 0.3319(2)
O2_2 O 0.5187(3) 0.8244(3) 0.5286(3)
O3_2 O 0.7172(4) 0.5057(3) 0.7674(3)
O4_2 O 0.65579(16) 0.57430(17) 0.89251(15)
H34_2 H 0.7387 0.5441 0.9070
O5_2 O 0.03731(16) 0.81078(17) 0.56402(15)
O5A O -0.03731(16) 0.18922(17) 0.43598(15)
O6_2 O -0.01600(16) 0.68107(17) 0.69253(15)
O6A O 0.01600(16) 0.31893(17) 0.30747(15)
O7 O 0.98194(16) 0.43643(17) 0.81668(15)
H35 H 0.9826 0.4995 0.7973
H36 H 0.9267 0.4486 0.7714
O8 O 0.8993(9) 0.6086(7) 0.9476(10)
H37 H 0.9499 0.5694 0.9193
H38 H 0.9296 0.5988 1.0039
loop_
_geom_bond_atom_site_label_1
_geom_bond_atom_site_label_2
_geom_bond_site_symmetry_1
_geom_bond_site_symmetry_2
Cd1 N1 1_555 1_555
N1 C17 1_555 1_555
N2 N3 1_555 1_555
N3 C18 1_555 1_555
N4 C1 1_555 1_555
N5 N6 1_555 1_555
N6 C2 1_555 1_555
N7 N8 1_555 1_555
N8 C16 1_555 1_555
N9 Cd1 1_555 1_555
C1 N5 1_555 1_555
H1 C1 1_555 1_555
C2 N4 1_555 1_555
H2 C2 1_555 1_555
C3 N6 1_555 1_555
H3 C3 1_555 1_555
H4 C3 1_555 1_555
C4 C3 1_555 1_555
C5 C4 1_555 1_555
C6 C5 1_555 1_555
H5 C6 1_555 1_555
H6 C6 1_555 1_555
H7 C6 1_555 1_555
C7 C5 1_555 1_555
C8 C7 1_555 1_555
H8 C8 1_555 1_555
H9 C8 1_555 1_555
H10 C8 1_555 1_555
C9 C7 1_555 1_555
C10 C9 1_555 1_555
C11 C10 1_555 1_555
H11 C11 1_555 1_555
H12 C11 1_555 1_555
H13 C11 1_555 1_555
C12 C4 1_555 1_555
C13 C12 1_555 1_555
H14 C13 1_555 1_555
H15 C13 1_555 1_555
H16 C13 1_555 1_555
C14 N7 1_555 1_555
H17 C14 1_555 1_555
H18 C14 1_555 1_555
C15 N7 1_555 1_555
H19 C15 1_555 1_555
C16 N9 1_555 1_555
H20 C16 1_555 1_555
C17 N2 1_555 1_555
H21 C17 1_555 1_555
C18 N1 1_555 1_555
H22 C18 1_555 1_555
C19 N2 1_555 1_555
H23 C19 1_555 1_555
H24 C19 1_555 1_555
C20 C19 1_555 1_555
C21 C20 1_555 1_555
C22 C21 1_555 1_555
H25 C22 1_555 1_555
H26 C22 1_555 1_555
H27 C22 1_555 1_555
C23 C20 1_555 1_555
C24 C23 1_555 1_555
H28 C24 1_555 1_555
H29 C24 1_555 1_555
H30 C24 1_555 1_555
C25 C26 1_555 1_555
C26 C27 1_555 1_555
C27 C28 1_555 1_555
C28 O3 1_555 1_555
C29 C27 1_555 1_555
H31 C29 1_555 1_555
C30 C29 1_555 1_555
H32 C30 1_555 1_555
C31 C30 1_555 1_555
C32 C31 1_555 1_555
C33 C26 1_555 1_555
H33 C33 1_555 1_555
O1 C25 1_555 1_555
O2 C25 1_555 1_555
O4 C28 1_555 1_555
H34 O4 1_555 1_555
O5 Cd1 1_555 1_555
O6 Cd1 1_555 1_555
O7 H35 1_555 1_555
H36 O7 1_555 1_555
O8 H37 1_555 1_555
H38 O8 1_555 1_555
Cd1A N1A 1_555 1_555
Cd1_2 N4 1_555 1_555
Cd1_3 O1 1_555 1_555
Cd1_4 O5_2 1_555 1_555
Cd1_5 N9_2 1_555 1_555
N1A C17A 1_555 1_555
N2A N3A 1_555 1_555
N3A C18A 1_555 1_555
N4_2 Cd1 1_555 1_555
N4A Cd1A 1_555 1_555
N5_2 N6_2 1_555 1_555
N6_2 C2_2 1_555 1_555
N7_2 N8_2 1_555 1_555
N8_2 C16_2 1_555 1_555
N9_2 C15_2 1_555 1_555
N9A Cd1A 1_555 1_555
C1_2 N4_2 1_555 1_555
H1_2 C1_2 1_555 1_555
C2_2 N4_2 1_555 1_555
H2_2 C2_2 1_555 1_555
C3_2 N6_2 1_555 1_555
H3_2 C3_2 1_555 1_555
H4_2 C3_2 1_555 1_555
C4_2 C3_2 1_555 1_555
C5_2 C4_2 1_555 1_555
C6_2 C5_2 1_555 1_555
H5_2 C6_2 1_555 1_555
H6_2 C6_2 1_555 1_555
H7_2 C6_2 1_555 1_555
C7_2 C5_2 1_555 1_555
C8_2 C7_2 1_555 1_555
H8_2 C8_2 1_555 1_555
H9_2 C8_2 1_555 1_555
H10_2 C8_2 1_555 1_555
C9_2 C7_2 1_555 1_555
C10_2 C9_2 1_555 1_555
C11_2 C10_2 1_555 1_555
H11_2 C11_2 1_555 1_555
H12_2 C11_2 1_555 1_555
H13_2 C11_2 1_555 1_555
C12_2 C4_2 1_555 1_555
C13_2 C12_2 1_555 1_555
H14_2 C13_2 1_555 1_555
H15_2 C13_2 1_555 1_555
H16_2 C13_2 1_555 1_555
C14_2 N7_2 1_555 1_555
H17_2 C14_2 1_555 1_555
H18_2 C14_2 1_555 1_555
C15_2 N7_2 1_555 1_555
H19_2 C15_2 1_555 1_555
C16_2 N9_2 1_555 1_555
H20_2 C16_2 1_555 1_555
C17A N2A 1_555 1_555
H21A C17A 1_555 1_555
C18A N1A 1_555 1_555
H22A C18A 1_555 1_555
C19A N2A 1_555 1_555
H23A C19A 1_555 1_555
H24A C19A 1_555 1_555
C20A C19A 1_555 1_555
C21A C23 1_555 1_555
C22A C21A 1_555 1_555
H25A C22A 1_555 1_555
H26A C22A 1_555 1_555
H27A C22A 1_555 1_555
C23A C21 1_555 1_555
C24A C23A 1_555 1_555
H28A C24A 1_555 1_555
H29A C24A 1_555 1_555
H30A C24A 1_555 1_555
C25_2 C26_2 1_555 1_555
C26_2 C27_2 1_555 1_555
C27_2 C28_2 1_555 1_555
C28_2 O3_2 1_555 1_555
C29_2 C27_2 1_555 1_555
H31_2 C29_2 1_555 1_555
C30_2 C29_2 1_555 1_555
H32_2 C30_2 1_555 1_555
C31_2 C30_2 1_555 1_555
C32_2 C31_2 1_555 1_555
C33_2 C26_2 1_555 1_555
H33_2 C33_2 1_555 1_555
O1_2 Cd1 1_555 1_555
O1A Cd1A 1_555 1_555
O2_2 C25_2 1_555 1_555
O4_2 C28_2 1_555 1_555
H34_2 O4_2 1_555 1_555
O5_2 C32_2 1_555 1_555
O5A Cd1A 1_555 1_555
O6_2 Cd1_4 1_555 1_555
O6A Cd1A 1_555 1_555
N9 C15 1_555 1_555
C9 C14 1_555 1_555
C10 C12 1_555 1_555
C31 C33 1_555 1_555
C32 O5 1_555 1_555
C32 O6 1_555 1_555
N5_2 C1_2 1_555 1_555
C9_2 C14_2 1_555 1_555
C10_2 C12_2 1_555 1_555
C20A C21A 1_555 1_555
C20A C23A 1_555 1_555
C25_2 O1_2 1_555 1_555
C31_2 C33_2 1_555 1_555
C32_2 O6_2 1_555 1_555

#END
