
#######################################################################
#
#                 Cambridge Crystallographic Data Centre
#                                CCDC 
#
#######################################################################
#
# If this CIF has been generated from an entry in the Cambridge 
# Structural Database, then it will include bibliographic, chemical, 
# crystal, experimental, refinement or atomic coordinate data resulting 
# from the CCDC's data processing and validation procedures.
#
#######################################################################

data_EBIHUU
_symmetry_cell_setting           triclinic
_symmetry_space_group_name_H-M   'P -1'
_symmetry_Int_Tables_number      2
_space_group_name_Hall           '-P 1'
loop_
_symmetry_equiv_pos_site_id
_symmetry_equiv_pos_as_xyz
1 x,y,z
2 -x,-y,-z
_cell_length_a                   10.842(3)
_cell_length_b                   11.194(3)
_cell_length_c                   14.953(5)
_cell_angle_alpha                93.155(3)
_cell_angle_beta                 96.372(3)
_cell_angle_gamma                102.207(6)
_cell_volume                     1757.02
loop_
_atom_site_label
_atom_site_type_symbol
_atom_site_fract_x
_atom_site_fract_y
_atom_site_fract_z
Mn1 Mn 0.73016(3) 0.12730(2) -0.012156(18)
S1 S 0.50575(4) -0.11236(4) -0.11548(3)
S2 S -0.10382(4) 1.04606(4) -0.17632(3)
O1 O 0.56815(13) 0.01721(11) -0.09696(9)
O2 O 0.36899(13) -0.13035(14) -0.11113(9)
O3 O 0.56594(15) -0.19150(13) -0.06122(10)
O4 O -0.15689(14) 1.13689(13) -0.12795(10)
O5 O 0.03454(12) 1.07759(14) -0.16402(10)
O6 O -0.15605(14) 0.92181(13) -0.15750(10)
O7 O 0.8036(2) -0.02406(18) 0.03163(15)
H1 H 0.861(3) -0.036(3) 0.0766(18)
H2 H 0.791(5) -0.085(3) -0.010(3)
N1 N 0.66398(16) 0.29468(14) -0.05383(11)
N2 N 0.87499(15) 0.28648(17) 0.06038(11)
C1 C 0.5608(2) 0.2970(2) -0.10968(15)
H3 H 0.5152 0.2238 -0.1404
C2 C 0.5171(3) 0.4036(2) -0.12483(17)
H4 H 0.4441 0.4012 -0.1646
C3 C 0.5830(3) 0.5107(2) -0.08054(19)
H5 H 0.5548 0.5825 -0.0893
C4 C 0.6936(3) 0.51364(19) -0.02151(18)
C5 C 0.7695(4) 0.6222(2) 0.0267(2)
H6 H 0.7447 0.6962 0.0200
C6 C 0.8740(4) 0.6212(2) 0.0808(2)
H7 H 0.9214 0.6946 0.1104
C7 C 0.9174(3) 0.5078(3) 0.09565(17)
C8 C 1.0274(3) 0.4997(3) 0.1500(2)
H8 H 1.0790 0.5704 0.1806
C9 C 1.0609(3) 0.3903(4) 0.15921(18)
H9 H 1.1352 0.3859 0.1952
C10 C 0.9808(2) 0.2830(3) 0.11311(16)
H10 H 1.0030 0.2079 0.1200
C11 C 0.8434(2) 0.39716(19) 0.05043(14)
C12 C 0.7314(2) 0.40165(17) -0.00916(14)
C13 C 0.52283(17) -0.15034(16) -0.22980(12)
C14 C 0.58607(19) -0.24341(18) -0.24658(14)
H11 H 0.6135 -0.2855 -0.1990
C15 C 0.6088(2) -0.2743(2) -0.33292(16)
H12 H 0.6504 -0.3373 -0.3436
C16 C 0.5694(2) -0.2112(2) -0.40303(15)
H13 H 0.5852 -0.2310 -0.4613
C17 C 0.5063(2) -0.1183(2) -0.38696(14)
H14 H 0.4797 -0.0770 -0.4352
C18 C 0.48130(17) -0.08467(17) -0.30046(12)
C19 C 0.41405(18) 0.01499(17) -0.28743(13)
H15 H 0.3594 0.0097 -0.2433
C20 C 0.42769(19) 0.11268(19) -0.33592(14)
H16 H 0.4886 0.1193 -0.3756
C21 C 0.35669(19) 0.21071(18) -0.33325(13)
C22 C 0.2344(2) 0.1928(2) -0.30813(16)
H17 H 0.1971 0.1172 -0.2892
C23 C 0.1679(2) 0.2844(2) -0.31079(16)
H18 H 0.0859 0.2691 -0.2946
C24 C 0.3440(2) 0.41940(19) -0.36009(15)
H19 H 0.3827 0.4961 -0.3763
C25 C 0.4101(2) 0.3266(2) -0.35915(15)
H20 H 0.4916 0.3414 -0.3761
C26 C 0.2205(2) 0.40040(18) -0.33726(14)
C27 C 0.14704(19) 0.49781(19) -0.34355(14)
C28 C 0.0209(2) 0.4714(2) -0.38294(15)
H21 H -0.0200 0.3903 -0.4000
C29 C -0.0449(2) 0.5628(2) -0.39721(15)
H22 H -0.1279 0.5425 -0.4261
C30 C 0.1360(2) 0.71142(19) -0.32595(16)
H23 H 0.1750 0.7918 -0.3050
C31 C 0.2024(2) 0.6204(2) -0.31412(16)
H24 H 0.2858 0.6406 -0.2860
C32 C 0.0106(2) 0.68516(19) -0.36911(14)
C33 C -0.0608(2) 0.7810(2) -0.38707(15)
H25 H -0.1228 0.7662 -0.4370
C34 C -0.04412(19) 0.88779(19) -0.33761(14)
H26 H 0.0151 0.9019 -0.2861
C35 C -0.11334(17) 0.98427(18) -0.35949(14)
C36 C -0.1464(2) 1.0045(2) -0.44986(15)
H27 H -0.1261 0.9547 -0.4953
C37 C -0.2081(2) 1.0958(2) -0.47308(17)
H28 H -0.2277 1.1079 -0.5336
C38 C -0.2410(2) 1.1697(2) -0.40667(18)
H29 H -0.2832 1.2311 -0.4226
C39 C -0.21126(19) 1.1524(2) -0.31618(16)
H30 H -0.2339 1.2016 -0.2714
C40 C -0.14729(17) 1.06086(17) -0.29295(13)
Mn1A Mn 0.26984(3) -0.12730(2) 0.012156(18)
Mn1_2 Mn -0.26984(3) 1.12730(2) -0.012156(18)
O2A O 0.63101(13) 0.13035(14) 0.11113(9)
O4_2 O 0.84311(14) 0.13689(13) -0.12795(10)
loop_
_geom_bond_atom_site_label_1
_geom_bond_atom_site_label_2
_geom_bond_site_symmetry_1
_geom_bond_site_symmetry_2
Mn1 O1 1_555 1_555
S1 O1 1_555 1_555
S2 O4 1_555 1_555
O2 S1 1_555 1_555
O3 S1 1_555 1_555
O4 Mn1_2 1_555 1_555
O5 S2 1_555 1_555
O6 S2 1_555 1_555
O7 Mn1 1_555 1_555
H1 O7 1_555 1_555
H2 O7 1_555 1_555
N1 Mn1 1_555 1_555
N2 Mn1 1_555 1_555
C1 N1 1_555 1_555
H3 C1 1_555 1_555
C2 C1 1_555 1_555
H4 C2 1_555 1_555
C3 C2 1_555 1_555
H5 C3 1_555 1_555
C4 C3 1_555 1_555
C5 C4 1_555 1_555
H6 C5 1_555 1_555
C6 C5 1_555 1_555
H7 C6 1_555 1_555
C7 C6 1_555 1_555
C8 C7 1_555 1_555
H8 C8 1_555 1_555
C9 C8 1_555 1_555
H9 C9 1_555 1_555
C10 N2 1_555 1_555
H10 C10 1_555 1_555
C11 N2 1_555 1_555
C12 N1 1_555 1_555
C13 S1 1_555 1_555
C14 C13 1_555 1_555
H11 C14 1_555 1_555
C15 C14 1_555 1_555
H12 C15 1_555 1_555
C16 C15 1_555 1_555
H13 C16 1_555 1_555
C17 C16 1_555 1_555
H14 C17 1_555 1_555
C18 C13 1_555 1_555
C19 C18 1_555 1_555
H15 C19 1_555 1_555
C20 C19 1_555 1_555
H16 C20 1_555 1_555
C21 C20 1_555 1_555
C22 C21 1_555 1_555
H17 C22 1_555 1_555
C23 C22 1_555 1_555
H18 C23 1_555 1_555
C24 H19 1_555 1_555
C25 C21 1_555 1_555
H20 C25 1_555 1_555
C26 C23 1_555 1_555
C27 C26 1_555 1_555
C28 C27 1_555 1_555
H21 C28 1_555 1_555
C29 C28 1_555 1_555
H22 C29 1_555 1_555
C30 H23 1_555 1_555
C31 C27 1_555 1_555
H24 C31 1_555 1_555
C32 C29 1_555 1_555
C33 C32 1_555 1_555
H25 C33 1_555 1_555
C34 C33 1_555 1_555
H26 C34 1_555 1_555
C35 C34 1_555 1_555
C36 C35 1_555 1_555
H27 C36 1_555 1_555
C37 C36 1_555 1_555
H28 C37 1_555 1_555
C38 C37 1_555 1_555
H29 C38 1_555 1_555
C39 C38 1_555 1_555
H30 C39 1_555 1_555
C40 S2 1_555 1_555
Mn1A O2 1_555 1_555
O2A Mn1 1_555 1_555
O4_2 Mn1 1_555 1_555
C4 C12 1_555 1_555
C7 C11 1_555 1_555
C9 C10 1_555 1_555
C11 C12 1_555 1_555
C17 C18 1_555 1_555
C24 C25 1_555 1_555
C24 C26 1_555 1_555
C30 C31 1_555 1_555
C30 C32 1_555 1_555
C35 C40 1_555 1_555
C39 C40 1_555 1_555

#END
