
#######################################################################
#
#                 Cambridge Crystallographic Data Centre
#                                CCDC 
#
#######################################################################
#
# If this CIF has been generated from an entry in the Cambridge 
# Structural Database, then it will include bibliographic, chemical, 
# crystal, experimental, refinement or atomic coordinate data resulting 
# from the CCDC's data processing and validation procedures.
#
#######################################################################

data_EBIJEG
_symmetry_cell_setting           monoclinic
_symmetry_space_group_name_H-M   'C 2/c'
_symmetry_Int_Tables_number      15
_space_group_name_Hall           '-C 2yn'
loop_
_symmetry_equiv_pos_site_id
_symmetry_equiv_pos_as_xyz
1 x,y,z
2 -x,y,1/2-z
3 1/2+x,1/2+y,z
4 1/2-x,1/2+y,1/2-z
5 -x,-y,-z
6 x,-y,1/2+z
7 1/2-x,1/2-y,-z
8 1/2+x,1/2-y,1/2+z
_cell_length_a                   24.610(5)
_cell_length_b                   18.555(4)
_cell_length_c                   8.2379(16)
_cell_angle_alpha                90
_cell_angle_beta                 96.896(3)
_cell_angle_gamma                90
_cell_volume                     3734.53
loop_
_atom_site_label
_atom_site_type_symbol
_atom_site_fract_x
_atom_site_fract_y
_atom_site_fract_z
Pd1 Pd 0.0000 0.0000 0.5000
Ni1 Ni 0.2500 0.2500 0.0000
O1 O 0.03484(14) -0.09017(18) 0.4322(4)
O2 O 0.10165(17) -0.1294(2) 0.2945(5)
O3 O 0.20115(17) 0.1835(2) 0.1384(5)
O4 O 0.2231(2) 0.0674(3) 0.0957(6)
N1 N 0.06018(17) 0.0457(2) 0.3942(5)
N2 N 0.3138(3) 0.2542(6) 0.1849(7)
H1 H 0.334(2) 0.2890(12) 0.155(10)
N3 N 0.2903(3) 0.1639(4) -0.0893(9)
H2 H 0.2690(16) 0.130(4) -0.057(9)
C1 C 0.09215(18) -0.0036(3) 0.3289(5)
C2 C 0.1361(2) 0.0184(3) 0.2511(6)
H3 H 0.1589 -0.0164 0.2084
C3 C 0.1468(2) 0.0916(3) 0.2352(6)
C4 C 0.1130(2) 0.1396(3) 0.3002(6)
H4 H 0.1195 0.1898 0.2902
C5 C 0.0699(2) 0.1171(3) 0.3796(6)
H5 H 0.0471 0.1514 0.4238
C6 C 0.0765(2) -0.0803(3) 0.3519(6)
C7 C 0.1945(2) 0.1159(4) 0.1466(7)
C8 C 0.3443(4) 0.1818(6) 0.1628(13)
H6 H 0.3823 0.1850 0.2174
H7 H 0.3256 0.1420 0.2136
C9 C 0.3448(4) 0.1677(6) -0.0093(15)
H8 H 0.3650 0.2065 -0.0588
H9 H 0.3639 0.1215 -0.0238
C10 C 0.2865(5) 0.1554(7) -0.2711(10)
H10 H 0.3005 0.1073 -0.2972
H11 H 0.3097 0.1922 -0.3159
C11 C 0.2278(5) 0.1634(7) -0.3521(12)
H12 H 0.2275 0.1511 -0.4691
H13 H 0.2054 0.1266 -0.3038
C12 C 0.3013(5) 0.2648(9) 0.3437(11)
H14 H 0.2775 0.2253 0.3745
H15 H 0.3354 0.2646 0.4211
Ni1B Ni -0.2500 -0.2500 1.0000
O1D O -0.03484(14) 0.09017(18) 0.5678(4)
O2D O -0.10165(17) 0.1294(2) 0.7055(5)
O3D O -0.20115(17) -0.1835(2) 0.8616(5)
O3F O 0.29885(17) 0.3165(2) -0.1384(5)
O4D O -0.2231(2) -0.0674(3) 0.9043(6)
N1D N -0.06018(17) -0.0457(2) 0.6058(5)
N2F N 0.1862(3) 0.2458(6) -0.1849(7)
H1F H 0.166(2) 0.2110(12) -0.155(10)
N3F N 0.2097(3) 0.3361(4) 0.0893(9)
H2F H 0.2310(16) 0.370(4) 0.057(9)
C1D C -0.09215(18) 0.0036(3) 0.6711(5)
C2D C -0.1361(2) -0.0184(3) 0.7489(6)
H3D H -0.1589 0.0164 0.7916
C3D C -0.1468(2) -0.0916(3) 0.7648(6)
C4D C -0.1130(2) -0.1396(3) 0.6998(6)
H4D H -0.1195 -0.1898 0.7098
C5D C -0.0699(2) -0.1171(3) 0.6204(6)
H5D H -0.0471 -0.1514 0.5762
C6D C -0.0765(2) 0.0803(3) 0.6481(6)
C7D C -0.1945(2) -0.1159(4) 0.8534(7)
C8F C 0.1557(4) 0.3182(6) -0.1628(13)
H6F H 0.1177 0.3150 -0.2174
H7F H 0.1744 0.3580 -0.2136
C9F C 0.1552(4) 0.3323(6) 0.0093(15)
H8F H 0.1350 0.2935 0.0588
H9F H 0.1361 0.3785 0.0238
C10F C 0.2135(5) 0.3446(7) 0.2711(10)
H10F H 0.1995 0.3927 0.2972
H11F H 0.1903 0.3078 0.3159
C11F C 0.2722(5) 0.3366(7) 0.3521(12)
H12F H 0.2725 0.3489 0.4691
H13F H 0.2946 0.3734 0.3038
C12F C 0.1987(5) 0.2352(9) -0.3437(11)
H14F H 0.2225 0.2747 -0.3745
H15F H 0.1646 0.2354 -0.4211
O5 O 0.2878(4) 0.0207(6) 0.4030(10)
H16 H 0.270(5) -0.006(7) 0.465(13)
H17 H 0.265(4) 0.027(8) 0.317(10)
O6 O 0.3986(4) 0.9417(6) 0.0240(13)
loop_
_geom_bond_atom_site_label_1
_geom_bond_atom_site_label_2
_geom_bond_site_symmetry_1
_geom_bond_site_symmetry_2
Pd1 O1 1_555 1_555
Ni1 O3 1_555 1_555
O1 C6 1_555 1_555
O2 C6 1_555 1_555
O3 C7 1_555 1_555
O4 C7 1_555 1_555
N1 Pd1 1_555 1_555
N2 Ni1 1_555 1_555
H1 N2 1_555 1_555
N3 Ni1 1_555 1_555
H2 N3 1_555 1_555
C1 N1 1_555 1_555
C2 C1 1_555 1_555
H3 C2 1_555 1_555
C3 C2 1_555 1_555
C4 C3 1_555 1_555
H4 C4 1_555 1_555
C5 N1 1_555 1_555
H5 C5 1_555 1_555
C6 C1 1_555 1_555
C7 C3 1_555 1_555
C8 N2 1_555 1_555
H6 C8 1_555 1_555
H7 C8 1_555 1_555
C9 N3 1_555 1_555
H8 C9 1_555 1_555
H9 C9 1_555 1_555
C10 N3 1_555 1_555
H10 C10 1_555 1_555
H11 C10 1_555 1_555
C11 C10 1_555 1_555
H12 C11 1_555 1_555
H13 C11 1_555 1_555
C12 N2 1_555 1_555
H14 C12 1_555 1_555
H15 C12 1_555 1_555
O5 H16 1_555 1_555
H17 O5 1_555 1_555
Ni1B O3D 1_555 1_555
O1D Pd1 1_555 1_555
O2D C6D 1_555 1_555
O3D C7D 1_555 1_555
O3F Ni1 1_555 1_555
O4D C7D 1_555 1_555
N1D Pd1 1_555 1_555
N2F Ni1 1_555 1_555
H1F N2F 1_555 1_555
N3F Ni1 1_555 1_555
H2F N3F 1_555 1_555
C1D N1D 1_555 1_555
C2D C1D 1_555 1_555
H3D C2D 1_555 1_555
C3D C2D 1_555 1_555
C4D C3D 1_555 1_555
H4D C4D 1_555 1_555
C5D N1D 1_555 1_555
H5D C5D 1_555 1_555
C6D O1D 1_555 1_555
C7D C3D 1_555 1_555
C8F N2F 1_555 1_555
H6F C8F 1_555 1_555
H7F C8F 1_555 1_555
C9F N3F 1_555 1_555
H8F C9F 1_555 1_555
H9F C9F 1_555 1_555
C10F N3F 1_555 1_555
H10F C10F 1_555 1_555
H11F C10F 1_555 1_555
C11F C12 1_555 1_555
H12F C11F 1_555 1_555
H13F C11F 1_555 1_555
C12F C11 1_555 1_555
H14F C12F 1_555 1_555
H15F C12F 1_555 1_555
C4 C5 1_555 1_555
C8 C9 1_555 1_555
N2F C12F 1_555 1_555
C1D C6D 1_555 1_555
C4D C5D 1_555 1_555
C8F C9F 1_555 1_555
C10F C11F 1_555 1_555

#END
