
#######################################################################
#
#                 Cambridge Crystallographic Data Centre
#                                CCDC 
#
#######################################################################
#
# If this CIF has been generated from an entry in the Cambridge 
# Structural Database, then it will include bibliographic, chemical, 
# crystal, experimental, refinement or atomic coordinate data resulting 
# from the CCDC's data processing and validation procedures.
#
#######################################################################

data_EBIKIL
_symmetry_cell_setting           triclinic
_symmetry_space_group_name_H-M   'P -1'
_symmetry_Int_Tables_number      2
_space_group_name_Hall           '-P 1'
loop_
_symmetry_equiv_pos_site_id
_symmetry_equiv_pos_as_xyz
1 x,y,z
2 -x,-y,-z
_cell_length_a                   8.6761(12)
_cell_length_b                   9.3984(14)
_cell_length_c                   10.5809(17)
_cell_angle_alpha                92.225(11)
_cell_angle_beta                 102.987(10)
_cell_angle_gamma                109.636(9)
_cell_volume                     785.653
loop_
_atom_site_label
_atom_site_type_symbol
_atom_site_fract_x
_atom_site_fract_y
_atom_site_fract_z
Gd1 Gd 0.28106(11) 0.84168(10) 0.35600(9)
O1 O -0.3257(15) 1.2748(14) 0.4437(12)
O2 O -0.2345(17) 1.3972(17) 0.2861(14)
O3 O 0.061(3) 1.3858(19) 0.1465(15)
O4 O 0.1190(17) 1.5873(15) 0.2901(15)
O5 O 0.3914(14) 1.0636(13) 0.5274(12)
O6 O 0.5039(16) 1.2769(16) 0.6598(14)
O7 O 0.1986(17) 1.0581(17) 0.7403(13)
O8 O -0.0588(15) 1.0707(15) 0.7279(13)
O9 O 0.4109(18) 1.0695(15) 0.2630(14)
H1 H 0.4650 1.1509 0.3194
H2 H 0.4510 1.0721 0.2028
O10 O 0.237(2) 0.7858(17) 0.1231(15)
H3 H 0.3143 0.8599 0.0910
H4 H 0.2334 0.6934 0.1160
N1 N -0.0463(17) 1.2242(15) 0.5275(14)
C1 C -0.051(2) 1.3016(18) 0.4271(16)
C2 C 0.085(2) 1.351(2) 0.3679(17)
C3 C 0.226(2) 1.312(2) 0.4204(17)
H15 H 0.3202 1.3453 0.3858
C4 C 0.230(2) 1.225(2) 0.5214(18)
C5 C 0.091(2) 1.1842(19) 0.5764(18)
C6 C -0.214(2) 1.330(2) 0.3814(18)
C7 C 0.088(2) 1.448(2) 0.2609(19)
C8 C 0.379(2) 1.181(2) 0.5743(18)
C9 C 0.079(2) 1.097(2) 0.6908(17)
Gd1A Gd -0.28106(11) 1.15832(10) 0.64400(9)
Gd1_2 Gd 0.28106(11) 1.84168(10) 0.35600(9)
Gd1A_2 Gd 0.71894(11) 1.15832(10) 0.64400(9)
Gd1A_3 Gd -0.28106(11) 0.15832(10) 0.64400(9)
Gd1_3 Gd -0.71894(11) 0.84168(10) 0.35600(9)
O1A O 0.3257(15) 0.7252(14) 0.5563(12)
O2A O 0.2345(17) 0.6028(17) 0.7139(14)
O3A O -0.061(3) 0.6142(19) 0.8535(15)
O4A O -0.1190(17) 0.4127(15) 0.7099(15)
O4_2 O 0.1190(17) 0.5873(15) 0.2901(15)
O4A_2 O -0.1190(17) 1.4127(15) 0.7099(15)
O5A O -0.3914(14) 0.9364(13) 0.4726(12)
O5A_2 O 0.6086(14) 0.9364(13) 0.4726(12)
O5_2 O -0.6086(14) 1.0636(13) 0.5274(12)
O6A O -0.5039(16) 0.7231(16) 0.3402(14)
O6A_2 O 0.4961(16) 0.7231(16) 0.3402(14)
O6_2 O -0.4961(16) 1.2769(16) 0.6598(14)
O7A O -0.1986(17) 0.9419(17) 0.2597(13)
O8A O 0.0588(15) 0.9293(15) 0.2721(13)
O9A O -0.4109(18) 0.9305(15) 0.7370(14)
H1A H -0.4650 0.8491 0.6806
H2A H -0.4510 0.9279 0.7972
O10A O -0.237(2) 1.2142(17) 0.8769(15)
H3A H -0.3143 1.1401 0.9090
H4A H -0.2334 1.3066 0.8840
N1A N 0.0463(17) 0.7758(15) 0.4725(14)
C1A C 0.051(2) 0.6984(18) 0.5729(16)
C2A C -0.085(2) 0.649(2) 0.6321(17)
C3A C -0.226(2) 0.688(2) 0.5796(17)
H15A H -0.3202 0.6547 0.6142
C4A C -0.230(2) 0.775(2) 0.4786(18)
C5A C -0.091(2) 0.8158(19) 0.4236(18)
C6A C 0.214(2) 0.670(2) 0.6186(18)
C7A C -0.088(2) 0.552(2) 0.7391(19)
C8A C -0.379(2) 0.819(2) 0.4257(18)
C9A C -0.079(2) 0.903(2) 0.3092(17)
Zn1 Zn -0.5000 0.5000 0.0000
O11 O -0.250(2) 0.494(2) 0.0315(15)
H5 H -0.2176 0.5485 -0.0325
H6 H -0.1428 0.4982 0.0849
O12 O -0.598(3) 0.266(2) -0.0239(18)
H7 H -0.6077 0.2294 -0.1033
H8 H -0.5216 0.2450 0.0172
O13 O -0.505(2) 0.5162(19) -0.1959(15)
H9 H -0.5182 0.4389 -0.2318
H10 H -0.5997 0.5271 -0.2180
O11A O -0.750(2) 0.506(2) -0.0315(15)
H5A H -0.7824 0.4515 0.0325
H6A H -0.8572 0.5018 -0.0849
O12A O -0.402(3) 0.734(2) 0.0239(18)
H7A H -0.3923 0.7706 0.1033
H8A H -0.4784 0.7550 -0.0172
O13A O -0.495(2) 0.4838(19) 0.1959(15)
H9A H -0.4818 0.5611 0.2318
H10A H -0.4003 0.4729 0.2180
O14 O 0.344(3) 0.909(2) -0.0795(19)
H11 H 0.2497 0.9275 -0.1106
H12 H 0.3109 0.8169 -0.1169
O15 O -0.874(4) 0.126(3) 0.0729(19)
H13 H -0.9174 0.1576 0.1066
H14 H -0.7597 0.1795 0.1043
loop_
_geom_bond_atom_site_label_1
_geom_bond_atom_site_label_2
_geom_bond_site_symmetry_1
_geom_bond_site_symmetry_2
Gd1 O5 1_555 1_555
Zn1 O11 1_555 1_555
O1 C6 1_555 1_555
O2 C6 1_555 1_555
O3 C7 1_555 1_555
O4 C7 1_555 1_555
O5 C8 1_555 1_555
O6 C8 1_555 1_555
O7 C9 1_555 1_555
O8 C9 1_555 1_555
O9 Gd1 1_555 1_555
H1 O9 1_555 1_555
H2 O9 1_555 1_555
O10 Gd1 1_555 1_555
H3 O10 1_555 1_555
H4 O10 1_555 1_555
O11 H5 1_555 1_555
H6 O11 1_555 1_555
O12 Zn1 1_555 1_555
H7 O12 1_555 1_555
H8 O12 1_555 1_555
O13 Zn1 1_555 1_555
H9 O13 1_555 1_555
H10 O13 1_555 1_555
O14 H11 1_555 1_555
H12 O14 1_555 1_555
O15 H13 1_555 1_555
H14 O15 1_555 1_555
N1 C1 1_555 1_555
C1 C2 1_555 1_555
C2 C3 1_555 1_555
C3 H15 1_555 1_555
C4 C3 1_555 1_555
C5 N1 1_555 1_555
C6 C1 1_555 1_555
C7 C2 1_555 1_555
C8 C4 1_555 1_555
C9 C5 1_555 1_555
Gd1A O1 1_555 1_555
Gd1_2 O4 1_555 1_555
Gd1A_2 O5 1_555 1_555
Gd1A_3 O4A 1_555 1_555
Gd1_3 O5A 1_555 1_555
O1A Gd1 1_555 1_555
O2A C6A 1_555 1_555
O3A C7A 1_555 1_555
O4A C7A 1_555 1_555
O4_2 Gd1 1_555 1_555
O4A_2 Gd1A 1_555 1_555
O5A Gd1A 1_555 1_555
O5A_2 Gd1 1_555 1_555
O5_2 Gd1A 1_555 1_555
O6A Gd1_3 1_555 1_555
O6A_2 Gd1 1_555 1_555
O6_2 Gd1A 1_555 1_555
O7A C9A 1_555 1_555
O8A Gd1 1_555 1_555
O9A Gd1A 1_555 1_555
H1A O9A 1_555 1_555
H2A O9A 1_555 1_555
O10A Gd1A 1_555 1_555
H3A O10A 1_555 1_555
H4A O10A 1_555 1_555
O11A Zn1 1_555 1_555
H5A O11A 1_555 1_555
H6A O11A 1_555 1_555
O12A Zn1 1_555 1_555
H7A O12A 1_555 1_555
H8A O12A 1_555 1_555
O13A Zn1 1_555 1_555
H9A O13A 1_555 1_555
H10A O13A 1_555 1_555
N1A Gd1 1_555 1_555
C1A N1A 1_555 1_555
C2A C1A 1_555 1_555
C3A C2A 1_555 1_555
H15A C3A 1_555 1_555
C4A C3A 1_555 1_555
C5A N1A 1_555 1_555
C6A O1A 1_555 1_555
C7A C2A 1_555 1_555
C8A O5A 1_555 1_555
C9A O8A 1_555 1_555
O6 Gd1A_2 1_555 1_555
O8 Gd1A 1_555 1_555
N1 Gd1A 1_555 1_555
C4 C5 1_555 1_555
Gd1A_2 O5A_2 1_555 1_555
Gd1_3 O5_2 1_555 1_555
O6A C8A 1_555 1_555
C1A C6A 1_555 1_555
C4A C5A 1_555 1_555
C4A C8A 1_555 1_555
C5A C9A 1_555 1_555

#END
