
#######################################################################
#
#                 Cambridge Crystallographic Data Centre
#                                CCDC 
#
#######################################################################
#
# If this CIF has been generated from an entry in the Cambridge 
# Structural Database, then it will include bibliographic, chemical, 
# crystal, experimental, refinement or atomic coordinate data resulting 
# from the CCDC's data processing and validation procedures.
#
#######################################################################

data_EBIKUX
_symmetry_cell_setting           triclinic
_symmetry_space_group_name_H-M   'P -1'
_symmetry_Int_Tables_number      2
_space_group_name_Hall           '-P 1'
loop_
_symmetry_equiv_pos_site_id
_symmetry_equiv_pos_as_xyz
1 x,y,z
2 -x,-y,-z
_cell_length_a                   8.7113(3)
_cell_length_b                   9.1913(4)
_cell_length_c                   10.5321(4)
_cell_angle_alpha                86.054(2)
_cell_angle_beta                 77.189(2)
_cell_angle_gamma                71.101(2)
_cell_volume                     777.961
loop_
_atom_site_label
_atom_site_type_symbol
_atom_site_fract_x
_atom_site_fract_y
_atom_site_fract_z
Gd1 Gd 0.78572(2) 0.13028(2) 0.145297(18)
O1 O 0.8180(4) 0.2771(3) -0.0543(3)
O2 O 0.7166(4) 0.4228(4) -0.2123(3)
O3 O 0.3659(4) 0.6210(4) -0.2043(3)
O4 O 0.4188(5) 0.4341(4) -0.3454(3)
O5 O -0.0014(4) 0.2503(4) 0.1710(3)
O6 O 0.1077(4) 0.0580(3) 0.0334(3)
O7 O 0.5612(4) 0.0370(4) 0.2382(3)
O8 O 0.3071(6) 0.0255(6) 0.2548(5)
O9 O 0.7499(5) 0.1458(4) 0.3833(3)
H1 H 0.8218 0.1138 0.4256
H2 H 0.6571 0.1571 0.4272
O10 O 0.9199(4) -0.1160(4) 0.2312(3)
H3 H 0.9926 -0.1780 0.1801
H4 H 0.9046 -0.1659 0.2981
N1 N 0.5436(4) 0.2107(4) 0.0327(3)
C1 C 0.5423(5) 0.3072(5) -0.0676(4)
C2 C 0.4039(5) 0.3704(5) -0.1236(4)
C3 C 0.2645(5) 0.3249(5) -0.0703(4)
H13 H 0.1701 0.3625 -0.1053
C4 C 0.2654(5) 0.2251(5) 0.0337(4)
C5 C 0.4081(5) 0.1715(5) 0.0856(4)
C6 C 0.7042(5) 0.3397(5) -0.1163(4)
C7 C 0.3988(5) 0.4832(5) -0.2342(4)
C8 C 0.1166(5) 0.1729(5) 0.0856(4)
C9 C 0.4235(6) 0.0687(6) 0.2024(4)
Gd1A Gd 0.21428(2) 0.86972(2) -0.145297(18)
Gd1_2 Gd -0.21428(2) 0.13028(2) 0.145297(18)
Gd1A_2 Gd 0.21428(2) -0.13028(2) -0.145297(18)
Gd1A_3 Gd 1.21428(2) 0.86972(2) -0.145297(18)
Gd1_3 Gd 0.78572(2) 1.13028(2) 0.145297(18)
O1A O 0.1820(4) 0.7229(3) 0.0543(3)
O2A O 0.2834(4) 0.5772(4) 0.2123(3)
O3A O 0.6341(4) 0.3790(4) 0.2043(3)
O4A O 0.5812(5) 0.5659(4) 0.3454(3)
O5A O 1.0014(4) 0.7497(4) -0.1710(3)
O5_2 O 0.9986(4) 0.2503(4) 0.1710(3)
O5A_2 O 0.0014(4) 0.7497(4) -0.1710(3)
O6A O 0.8923(4) 0.9420(3) -0.0334(3)
O6_2 O 1.1077(4) 0.0580(3) 0.0334(3)
O6A_2 O 0.8923(4) -0.0580(3) -0.0334(3)
O6A_3 O -0.1077(4) 0.9420(3) -0.0334(3)
O6_3 O 0.1077(4) 1.0580(3) 0.0334(3)
O7A O 0.4388(4) 0.9630(4) -0.2382(3)
O8A O 0.6929(6) 0.9745(6) -0.2548(5)
O9A O 0.2501(5) 0.8542(4) -0.3833(3)
H1A H 0.1782 0.8862 -0.4256
H2A H 0.3429 0.8429 -0.4272
O10A O 0.0801(4) 1.1160(4) -0.2312(3)
H3A H 0.0074 1.1780 -0.1801
H4A H 0.0954 1.1659 -0.2981
N1A N 0.4564(4) 0.7893(4) -0.0327(3)
C1A C 0.4577(5) 0.6928(5) 0.0676(4)
C2A C 0.5961(5) 0.6296(5) 0.1236(4)
C3A C 0.7355(5) 0.6751(5) 0.0703(4)
H13A H 0.8299 0.6375 0.1053
C4A C 0.7346(5) 0.7749(5) -0.0337(4)
C5A C 0.5919(5) 0.8285(5) -0.0856(4)
C6A C 0.2958(5) 0.6603(5) 0.1163(4)
C7A C 0.6012(5) 0.5168(5) 0.2342(4)
C8A C 0.8834(5) 0.8271(5) -0.0856(4)
C9A C 0.5765(6) 0.9313(6) -0.2024(4)
Co1 Co 0.0000 0.5000 0.5000
O11 O -0.0166(4) 0.5066(4) 0.6986(3)
H5 H -0.0206 0.5836 0.7352
H6 H -0.0999 0.4866 0.7367
O12 O 0.2146(4) 0.5671(4) 0.4837(3)
H7 H 0.2610 0.5761 0.4081
H8 H 0.2857 0.5303 0.5266
O13 O 0.1352(5) 0.2635(4) 0.5082(4)
H9 H 0.2335 0.2344 0.5121
H10 H 0.1283 0.2064 0.4547
O11A O 0.0166(4) 0.4934(4) 0.3014(3)
H5A H 0.0206 0.4164 0.2648
H6A H 0.0999 0.5134 0.2633
O12A O -0.2146(4) 0.4329(4) 0.5163(3)
H7A H -0.2610 0.4239 0.5919
H8A H -0.2857 0.4697 0.4734
O13A O -0.1352(5) 0.7365(4) 0.4918(4)
H9A H -0.2335 0.7656 0.4879
H10A H -0.1283 0.7936 0.5453
O14 O 0.4478(5) 0.1684(4) 0.5509(3)
H11 H 0.4522 0.0911 0.5954
H12 H 0.4431 0.2401 0.5952
O15? O 0.0661(10) 0.0197(10) 0.4445(7)
loop_
_geom_bond_atom_site_label_1
_geom_bond_atom_site_label_2
_geom_bond_site_symmetry_1
_geom_bond_site_symmetry_2
Gd1 O1 1_555 1_555
Co1 O11 1_555 1_555
O1 C6 1_555 1_555
O2 C6 1_555 1_555
O3 C7 1_555 1_555
O4 C7 1_555 1_555
O5 C8 1_555 1_555
O6 C8 1_555 1_555
O7 Gd1 1_555 1_555
O8 C9 1_555 1_555
O9 Gd1 1_555 1_555
H1 O9 1_555 1_555
H2 O9 1_555 1_555
O10 Gd1 1_555 1_555
H3 O10 1_555 1_555
H4 O10 1_555 1_555
O11 H5 1_555 1_555
H6 O11 1_555 1_555
O12 Co1 1_555 1_555
H7 O12 1_555 1_555
H8 O12 1_555 1_555
O13 Co1 1_555 1_555
H9 O13 1_555 1_555
H10 O13 1_555 1_555
O14 H11 1_555 1_555
H12 O14 1_555 1_555
N1 Gd1 1_555 1_555
C1 N1 1_555 1_555
C2 C1 1_555 1_555
C3 C2 1_555 1_555
H13 C3 1_555 1_555
C4 C3 1_555 1_555
C5 N1 1_555 1_555
C6 C1 1_555 1_555
C7 C2 1_555 1_555
C8 C4 1_555 1_555
C9 O7 1_555 1_555
Gd1A O3 1_555 1_555
Gd1_2 O5 1_555 1_555
Gd1A_2 O6 1_555 1_555
Gd1A_3 O5A 1_555 1_555
Gd1_3 O6A 1_555 1_555
O1A Gd1A 1_555 1_555
O2A C6A 1_555 1_555
O3A Gd1 1_555 1_555
O4A C7A 1_555 1_555
O5A C8A 1_555 1_555
O5_2 Gd1 1_555 1_555
O5A_2 Gd1A 1_555 1_555
O6A Gd1A_3 1_555 1_555
O6_2 Gd1 1_555 1_555
O6A_2 Gd1 1_555 1_555
O6A_3 Gd1A 1_555 1_555
O6_3 Gd1A 1_555 1_555
O7A Gd1A 1_555 1_555
O8A C9A 1_555 1_555
O9A Gd1A 1_555 1_555
H1A O9A 1_555 1_555
H2A O9A 1_555 1_555
O10A Gd1A 1_555 1_555
H3A O10A 1_555 1_555
H4A O10A 1_555 1_555
O11A Co1 1_555 1_555
H5A O11A 1_555 1_555
H6A O11A 1_555 1_555
O12A Co1 1_555 1_555
H7A O12A 1_555 1_555
H8A O12A 1_555 1_555
O13A Co1 1_555 1_555
H9A O13A 1_555 1_555
H10A O13A 1_555 1_555
N1A Gd1A 1_555 1_555
C1A N1A 1_555 1_555
C2A C1A 1_555 1_555
C3A C2A 1_555 1_555
H13A C3A 1_555 1_555
C4A C3A 1_555 1_555
C5A N1A 1_555 1_555
C6A O1A 1_555 1_555
C7A O3A 1_555 1_555
C8A O6A 1_555 1_555
C9A O7A 1_555 1_555
O6 Gd1_2 1_555 1_555
C4 C5 1_555 1_555
C5 C9 1_555 1_555
C1A C6A 1_555 1_555
C2A C7A 1_555 1_555
C4A C5A 1_555 1_555
C4A C8A 1_555 1_555
C5A C9A 1_555 1_555

#END
