
#######################################################################
#
#                 Cambridge Crystallographic Data Centre
#                                CCDC 
#
#######################################################################
#
# If this CIF has been generated from an entry in the Cambridge 
# Structural Database, then it will include bibliographic, chemical, 
# crystal, experimental, refinement or atomic coordinate data resulting 
# from the CCDC's data processing and validation procedures.
#
#######################################################################

data_EBIKEH
_symmetry_cell_setting           triclinic
_symmetry_space_group_name_H-M   'P -1'
_symmetry_Int_Tables_number      2
_space_group_name_Hall           '-P 1'
loop_
_symmetry_equiv_pos_site_id
_symmetry_equiv_pos_as_xyz
1 x,y,z
2 -x,-y,-z
_cell_length_a                   8.7200(10)
_cell_length_b                   8.9690(12)
_cell_length_c                   9.4220(12)
_cell_angle_alpha                77.951(11)
_cell_angle_beta                 80.690(10)
_cell_angle_gamma                71.308(11)
_cell_volume                     679.057
loop_
_atom_site_label
_atom_site_type_symbol
_atom_site_fract_x
_atom_site_fract_y
_atom_site_fract_z
Gd1 Gd 0.35480(9) 0.66438(9) 0.83314(8)
O1 O 1.1601(14) 0.5969(14) 0.7299(12)
O2 O 0.9160(14) 0.5736(16) 0.7203(13)
O3 O 0.6283(13) 0.5594(13) 0.9713(12)
O4 O 0.5751(14) 0.7908(14) 0.8229(12)
O5 O 0.7736(14) 1.0663(12) 1.2640(12)
O6 O 0.8442(16) 0.8281(14) 1.4026(13)
O7 O 1.1425(14) 0.9057(15) 1.2279(13)
O8 O 1.3079(13) 0.7879(13) 1.0492(12)
O9 O 0.5176(15) 0.4233(14) 0.7416(13)
H1 H 0.5734 0.4495 0.6673
H2 H 0.5558 0.3573 0.8115
O10 O 0.4502(16) 0.7262(15) 0.5778(14)
H3 H 0.5489 0.7149 0.5623
H4 H 0.4255 0.6598 0.5457
N1 N 1.0656(16) 0.7299(15) 0.9597(14)
C1 C 0.9518(18) 0.6940(18) 0.9070(17)
C2 C 0.7905(18) 0.7289(17) 0.9721(16)
C3 C 0.7555(19) 0.8004(19) 1.0939(18)
H10 H 0.6501 0.8240 1.1403
C4 C 0.874(2) 0.8380(18) 1.1491(18)
C5 C 1.030(2) 0.8001(18) 1.0773(17)
C6 C 1.011(2) 0.6125(19) 0.7710(19)
C7 C 0.6613(18) 0.690(2) 0.9143(17)
C8 C 0.8302(18) 0.9199(19) 1.2799(17)
C9 C 1.1679(19) 0.8382(19) 1.1242(17)
Gd1_2 Gd 1.35480(9) 0.66438(9) 0.83314(8)
Gd1A Gd 0.64520(9) 0.33562(9) 1.16686(8)
Gd1A_2 Gd 0.64520(9) 1.33562(9) 1.16686(8)
O1_2 O 0.1601(14) 0.5969(14) 0.7299(12)
O3A O 0.3717(13) 0.4406(13) 1.0287(12)
O5A O 0.2264(14) 0.9337(12) 0.7360(12)
O8_2 O 0.3079(13) 0.7879(13) 1.0492(12)
N1_2 N 0.0656(16) 0.7299(15) 0.9597(14)
O11 O 0.7378(14) 0.5063(16) 0.5353(13)
H5 H 0.7913 0.5091 0.5980
H6 H 0.7536 0.4925 0.4503
O12 O 0.2987(16) 1.0094(14) 0.3910(12)
H7 H 0.3499 1.0560 0.3260
H8 H 0.2604 0.9742 0.3359
H9 H 0.3418 0.9848 0.4669
loop_
_geom_bond_atom_site_label_1
_geom_bond_atom_site_label_2
_geom_bond_site_symmetry_1
_geom_bond_site_symmetry_2
Gd1 O3 1_555 1_555
O1 C6 1_555 1_555
O2 C6 1_555 1_555
O3 C7 1_555 1_555
O4 Gd1 1_555 1_555
O5 C8 1_555 1_555
O6 C8 1_555 1_555
O7 C9 1_555 1_555
O8 C9 1_555 1_555
O9 Gd1 1_555 1_555
H1 O9 1_555 1_555
H2 O9 1_555 1_555
O10 Gd1 1_555 1_555
H3 O10 1_555 1_555
H4 O10 1_555 1_555
O11 H5 1_555 1_555
H6 O11 1_555 1_555
O12 H7 1_555 1_555
H8 O12 1_555 1_555
H9 O12 1_555 1_555
N1 C1 1_555 1_555
C1 C2 1_555 1_555
C2 C3 1_555 1_555
C3 H10 1_555 1_555
C4 C3 1_555 1_555
C5 N1 1_555 1_555
C6 C1 1_555 1_555
C7 O4 1_555 1_555
C8 C4 1_555 1_555
C9 C5 1_555 1_555
Gd1_2 O1 1_555 1_555
Gd1A O3 1_555 1_555
Gd1A_2 O5 1_555 1_555
O1_2 Gd1 1_555 1_555
O3A Gd1 1_555 1_555
O5A Gd1 1_555 1_555
O8_2 Gd1 1_555 1_555
N1_2 Gd1 1_555 1_555
O8 Gd1_2 1_555 1_555
N1 Gd1_2 1_555 1_555
C2 C7 1_555 1_555
C4 C5 1_555 1_555
Gd1A O3A 1_555 1_555

#END
