
#######################################################################
#
#                 Cambridge Crystallographic Data Centre
#                                CCDC 
#
#######################################################################
#
# If this CIF has been generated from an entry in the Cambridge 
# Structural Database, then it will include bibliographic, chemical, 
# crystal, experimental, refinement or atomic coordinate data resulting 
# from the CCDC's data processing and validation procedures.
#
#######################################################################

data_EBIKOR
_symmetry_cell_setting           triclinic
_symmetry_space_group_name_H-M   'P -1'
_symmetry_Int_Tables_number      2
_space_group_name_Hall           '-P 1'
loop_
_symmetry_equiv_pos_site_id
_symmetry_equiv_pos_as_xyz
1 x,y,z
2 -x,-y,-z
_cell_length_a                   8.6552(10)
_cell_length_b                   9.2760(11)
_cell_length_c                   10.6950(11)
_cell_angle_alpha                93.603(6)
_cell_angle_beta                 101.819(6)
_cell_angle_gamma                109.742(6)
_cell_volume                     782.886
loop_
_atom_site_label
_atom_site_type_symbol
_atom_site_fract_x
_atom_site_fract_y
_atom_site_fract_z
Gd1 Gd 0.28741(5) 0.83912(5) 0.35525(4)
O1 O -0.3244(7) 1.2800(7) 0.4493(5)
O2 O -0.2330(8) 1.3986(8) 0.2898(6)
O3 O 0.0498(13) 1.3639(8) 0.1507(7)
O4 O 0.1216(8) 1.5808(7) 0.2787(6)
O5 O 0.3876(7) 1.0626(6) 0.5277(5)
O6 O 0.4971(8) 1.2813(7) 0.6585(6)
O7 O 0.1940(8) 1.0687(8) 0.7432(6)
O8 O -0.0621(7) 1.0813(7) 0.7317(5)
O9 O 0.4143(9) 1.0719(7) 0.2678(6)
H1 H 0.4650 1.1509 0.3194
H2 H 0.4510 1.0721 0.2028
O10 O 0.2655(11) 0.7884(8) 0.1267(7)
H3 H 0.3143 0.8599 0.0910
H4 H 0.2334 0.6934 0.1160
N1 N -0.0503(8) 1.2244(7) 0.5305(6)
C1 C -0.0518(10) 1.3042(9) 0.4298(7)
C2 C 0.0841(10) 1.3517(9) 0.3708(8)
C3 C 0.2206(11) 1.3106(9) 0.4201(8)
H15 H 0.3126 1.3389 0.3827
C4 C 0.2253(10) 1.2279(9) 0.5244(7)
C5 C 0.0851(10) 1.1898(9) 0.5777(8)
C6 C -0.2178(10) 1.3313(9) 0.3858(8)
C7 C 0.0858(10) 1.4404(10) 0.2573(8)
C8 C 0.3747(10) 1.1845(10) 0.5754(8)
C9 C 0.0728(11) 1.1050(10) 0.6948(8)
Gd1A Gd -0.28741(5) 1.16088(5) 0.64475(4)
Gd1_2 Gd -0.71259(5) 0.83912(5) 0.35525(4)
Gd1_3 Gd 0.28741(5) 1.83912(5) 0.35525(4)
Gd1A_2 Gd -0.28741(5) 0.16088(5) 0.64475(4)
Gd1A_3 Gd 0.71259(5) 1.16088(5) 0.64475(4)
O1A O 0.3244(7) 0.7200(7) 0.5507(5)
O2A O 0.2330(8) 0.6014(8) 0.7102(6)
O3A O -0.0498(13) 0.6361(8) 0.8493(7)
O4A O -0.1216(8) 0.4192(7) 0.7213(6)
O4_2 O 0.1216(8) 0.5808(7) 0.2787(6)
O4A_2 O -0.1216(8) 1.4192(7) 0.7213(6)
O5A O -0.3876(7) 0.9374(6) 0.4723(5)
O5_2 O -0.6124(7) 1.0626(6) 0.5277(5)
O5A_2 O 0.6124(7) 0.9374(6) 0.4723(5)
O6A O -0.4971(8) 0.7187(7) 0.3415(6)
O6_2 O -0.5029(8) 1.2813(7) 0.6585(6)
O6A_2 O 0.5029(8) 0.7187(7) 0.3415(6)
O7A O -0.1940(8) 0.9313(8) 0.2568(6)
O8A O 0.0621(7) 0.9187(7) 0.2683(5)
O9A O -0.4143(9) 0.9281(7) 0.7322(6)
H1A H -0.4650 0.8491 0.6806
H2A H -0.4510 0.9279 0.7972
O10A O -0.2655(11) 1.2116(8) 0.8733(7)
H3A H -0.3143 1.1401 0.9090
H4A H -0.2334 1.3066 0.8840
N1A N 0.0503(8) 0.7756(7) 0.4695(6)
C1A C 0.0518(10) 0.6958(9) 0.5702(7)
C2A C -0.0841(10) 0.6483(9) 0.6292(8)
C3A C -0.2206(11) 0.6894(9) 0.5799(8)
H15A H -0.3126 0.6611 0.6173
C4A C -0.2253(10) 0.7721(9) 0.4756(7)
C5A C -0.0851(10) 0.8102(9) 0.4223(8)
C6A C 0.2178(10) 0.6687(9) 0.6142(8)
C7A C -0.0858(10) 0.5596(10) 0.7427(8)
C8A C -0.3747(10) 0.8155(10) 0.4246(8)
C9A C -0.0728(11) 0.8950(10) 0.3052(8)
Cu1 Cu -0.5000 0.5000 0.0000
O11 O -0.2216(11) 0.4920(9) 0.0239(7)
H5 H -0.2176 0.5485 -0.0325
H6 H -0.1428 0.4982 0.0849
O12 O -0.5991(12) 0.2718(9) -0.0297(7)
H7 H -0.6077 0.2294 -0.1033
H8 H -0.5216 0.2450 0.0172
O13 O -0.5102(10) 0.5165(9) -0.1860(7)
H9 H -0.5182 0.4389 -0.2318
H10 H -0.5997 0.5271 -0.2180
O11A O -0.7784(11) 0.5080(9) -0.0239(7)
H5A H -0.7824 0.4515 0.0325
H6A H -0.8572 0.5018 -0.0849
O12A O -0.4009(12) 0.7282(9) 0.0297(7)
H7A H -0.3923 0.7706 0.1033
H8A H -0.4784 0.7550 -0.0172
O13A O -0.4898(10) 0.4835(9) 0.1860(7)
H9A H -0.4818 0.5611 0.2318
H10A H -0.4003 0.4729 0.2180
O14 O 0.3412(15) 0.9102(11) -0.0921(9)
H11 H 0.2497 0.9275 -0.1106
H12 H 0.3109 0.8169 -0.1169
O15 O -0.8579(17) 0.1231(11) 0.0733(8)
H13 H -0.9174 0.1576 0.1066
H14 H -0.7597 0.1795 0.1043
loop_
_geom_bond_atom_site_label_1
_geom_bond_atom_site_label_2
_geom_bond_site_symmetry_1
_geom_bond_site_symmetry_2
Gd1 O5 1_555 1_555
Cu1 O11 1_555 1_555
O1 C6 1_555 1_555
O2 C6 1_555 1_555
O3 C7 1_555 1_555
O4 C7 1_555 1_555
O5 C8 1_555 1_555
O6 C8 1_555 1_555
O7 C9 1_555 1_555
O8 C9 1_555 1_555
O9 Gd1 1_555 1_555
H1 O9 1_555 1_555
H2 O9 1_555 1_555
O10 Gd1 1_555 1_555
H3 O10 1_555 1_555
H4 O10 1_555 1_555
O11 H5 1_555 1_555
H6 O11 1_555 1_555
O12 Cu1 1_555 1_555
H7 O12 1_555 1_555
H8 O12 1_555 1_555
O13 Cu1 1_555 1_555
H9 O13 1_555 1_555
H10 O13 1_555 1_555
O14 H11 1_555 1_555
H12 O14 1_555 1_555
O15 H13 1_555 1_555
H14 O15 1_555 1_555
N1 C1 1_555 1_555
C1 C2 1_555 1_555
C2 C3 1_555 1_555
C3 H15 1_555 1_555
C4 C3 1_555 1_555
C5 N1 1_555 1_555
C6 C1 1_555 1_555
C7 C2 1_555 1_555
C8 C4 1_555 1_555
C9 C5 1_555 1_555
Gd1A O1 1_555 1_555
Gd1_2 O5A 1_555 1_555
Gd1_3 O4 1_555 1_555
Gd1A_2 O4A 1_555 1_555
Gd1A_3 O5 1_555 1_555
O1A Gd1 1_555 1_555
O2A C6A 1_555 1_555
O3A C7A 1_555 1_555
O4A C7A 1_555 1_555
O4_2 Gd1 1_555 1_555
O4A_2 Gd1A 1_555 1_555
O5A Gd1A 1_555 1_555
O5_2 Gd1A 1_555 1_555
O5A_2 Gd1 1_555 1_555
O6A Gd1_2 1_555 1_555
O6_2 Gd1A 1_555 1_555
O6A_2 Gd1 1_555 1_555
O7A C9A 1_555 1_555
O8A Gd1 1_555 1_555
O9A Gd1A 1_555 1_555
H1A O9A 1_555 1_555
H2A O9A 1_555 1_555
O10A Gd1A 1_555 1_555
H3A O10A 1_555 1_555
H4A O10A 1_555 1_555
O11A Cu1 1_555 1_555
H5A O11A 1_555 1_555
H6A O11A 1_555 1_555
O12A Cu1 1_555 1_555
H7A O12A 1_555 1_555
H8A O12A 1_555 1_555
O13A Cu1 1_555 1_555
H9A O13A 1_555 1_555
H10A O13A 1_555 1_555
N1A Gd1 1_555 1_555
C1A N1A 1_555 1_555
C2A C1A 1_555 1_555
C3A C2A 1_555 1_555
H15A C3A 1_555 1_555
C4A C3A 1_555 1_555
C5A N1A 1_555 1_555
C6A O1A 1_555 1_555
C7A C2A 1_555 1_555
C8A O5A 1_555 1_555
C9A O8A 1_555 1_555
O6 Gd1A_3 1_555 1_555
O8 Gd1A 1_555 1_555
N1 Gd1A 1_555 1_555
C4 C5 1_555 1_555
Gd1_2 O5_2 1_555 1_555
Gd1A_3 O5A_2 1_555 1_555
O6A C8A 1_555 1_555
C1A C6A 1_555 1_555
C4A C5A 1_555 1_555
C4A C8A 1_555 1_555
C5A C9A 1_555 1_555

#END
