
#######################################################################
#
#                 Cambridge Crystallographic Data Centre
#                                CCDC 
#
#######################################################################
#
# If this CIF has been generated from an entry in the Cambridge 
# Structural Database, then it will include bibliographic, chemical, 
# crystal, experimental, refinement or atomic coordinate data resulting 
# from the CCDC's data processing and validation procedures.
#
#######################################################################

data_EBIKIK
_symmetry_cell_setting           tetragonal
_symmetry_space_group_name_H-M   'I -4 2 d'
_symmetry_Int_Tables_number      122
_space_group_name_Hall           'I -4 2bw'
loop_
_symmetry_equiv_pos_site_id
_symmetry_equiv_pos_as_xyz
1 x,y,z
2 -x,-y,z
3 y,-x,-z
4 -y,x,-z
5 1/2-x,y,3/4-z
6 1/2+x,-y,3/4-z
7 1/2-y,-x,3/4+z
8 1/2+y,x,3/4+z
9 1/2+x,1/2+y,1/2+z
10 1/2-x,1/2-y,1/2+z
11 1/2+y,1/2-x,1/2-z
12 1/2-y,1/2+x,1/2-z
13 -x,1/2+y,1/4-z
14 x,1/2-y,1/4-z
15 -y,1/2-x,1/4+z
16 y,1/2+x,1/4+z
_cell_length_a                   12.580(6)
_cell_length_b                   12.580(6)
_cell_length_c                   16.127(10)
_cell_angle_alpha                90
_cell_angle_beta                 90
_cell_angle_gamma                90
_cell_volume                     2552.2
loop_
_atom_site_label
_atom_site_type_symbol
_atom_site_fract_x
_atom_site_fract_y
_atom_site_fract_z
Fe1 Fe 1.0000 0.5000 0.2500
S1 S 0.87491(10) 0.60236(9) 0.17856(8)
C1 C 0.8106(3) 0.5072(4) 0.1142(3)
K1 K 1.08909(13) 0.7500 0.1250
C2 C 0.7189(4) 0.4554(5) 0.1411(3)
H1 H 0.6923 0.4688 0.1939
C3 C 0.6666(5) 0.3834(6) 0.0890(4)
H2 H 0.6051 0.3498 0.1072
C4 C 0.7059(5) 0.3618(6) 0.0105(4)
H3 H 0.6647 0.3178 -0.0280
C5 C 0.7965(5) 0.4112(6) -0.0159(4)
H4 H 0.8173 0.4054 -0.0742
C6 C 0.8476(4) 0.4842(4) 0.0345(3)
H5 H 0.9045 0.5279 0.0109
S1A S 1.12509(10) 0.39764(9) 0.17856(8)
C1A C 1.1894(3) 0.4928(4) 0.1142(3)
C2A C 1.2811(4) 0.5446(5) 0.1411(3)
H1A H 1.3077 0.5312 0.1939
C3A C 1.3334(5) 0.6166(6) 0.0890(4)
H2A H 1.3949 0.6502 0.1072
C4A C 1.2941(5) 0.6382(6) 0.0105(4)
H3A H 1.3353 0.6822 -0.0280
C5A C 1.2035(5) 0.5888(6) -0.0159(4)
H4A H 1.1827 0.5946 -0.0742
C6A C 1.1524(4) 0.5158(4) 0.0345(3)
H5A H 1.0955 0.4721 0.0109
S1J S 1.10236(9) 0.62509(10) 0.32144(8)
C1J C 1.0072(4) 0.6894(3) 0.3858(3)
C2J C 0.9554(5) 0.7811(4) 0.3589(3)
H1J H 0.9688 0.8077 0.3061
C3J C 0.8834(6) 0.8334(5) 0.4110(4)
H2J H 0.8498 0.8949 0.3928
C4J C 0.8618(6) 0.7941(5) 0.4895(4)
H3J H 0.8178 0.8353 0.5280
C5J C 0.9112(6) 0.7035(5) 0.5159(4)
H4J H 0.9054 0.6827 0.5742
C6J C 0.9842(4) 0.6524(4) 0.4655(3)
H5J H 1.0279 0.5955 0.4891
S1K S 0.89764(9) 0.37491(10) 0.32144(8)
C1K C 0.9928(4) 0.3106(3) 0.3858(3)
C2K C 1.0446(5) 0.2189(4) 0.3589(3)
H1K H 1.0312 0.1923 0.3061
C3K C 1.1166(6) 0.1666(5) 0.4110(4)
H2K H 1.1502 0.1051 0.3928
C4K C 1.1382(6) 0.2059(5) 0.4895(4)
H3K H 1.1822 0.1647 0.5280
C5K C 1.0888(6) 0.2965(5) 0.5159(4)
H4K H 1.0946 0.3173 0.5742
C6K C 1.0158(4) 0.3476(4) 0.4655(3)
H5K H 0.9721 0.4045 0.4891
K1A K 0.91091(13) 0.2500 0.1250
K1K K 0.7500 0.58909(13) 0.3750
S1G S 1.10236(9) 0.87491(10) -0.07144(8)
S1M S 0.87491(10) 0.89764(9) 0.07144(8)
C1L C 1.1894(3) 1.0072(4) 0.1358(3)
C2L C 1.2811(4) 0.9554(5) 0.1089(3)
C3L C 1.3334(5) 0.8834(6) 0.1610(4)
C4L C 1.2941(5) 0.8618(6) 0.2395(4)
C5L C 1.2035(5) 0.9112(6) 0.2659(4)
C6L C 1.1524(4) 0.9842(4) 0.2155(3)
K1J K 1.2500 0.41091(13) 0.3750
S1F S 0.89764(9) 0.12509(10) -0.07144(8)
S1L S 1.12509(10) 0.10236(9) 0.07144(8)
C1M C 0.8106(3) -0.0072(4) 0.1358(3)
C2M C 0.7189(4) 0.0446(5) 0.1089(3)
C3M C 0.6666(5) 0.1166(6) 0.1610(4)
C4M C 0.7059(5) 0.1382(6) 0.2395(4)
C5M C 0.7965(5) 0.0888(6) 0.2659(4)
C6M C 0.8476(4) 0.0158(4) 0.2155(3)
H1L H 1.3077 0.9688 0.0561
H2L H 1.3949 0.8498 0.1428
H3L H 1.3353 0.8178 0.2780
H4L H 1.1827 0.9054 0.3242
H5L H 1.0955 1.0279 0.2391
H1M H 0.6923 0.0312 0.0561
H2M H 0.6051 0.1502 0.1428
H3M H 0.6647 0.1822 0.2780
H4M H 0.8173 0.0946 0.3242
H5M H 0.9045 -0.0279 0.2391
loop_
_geom_bond_atom_site_label_1
_geom_bond_atom_site_label_2
_geom_bond_site_symmetry_1
_geom_bond_site_symmetry_2
Fe1 S1 1_555 1_555
S1 C1 1_555 1_555
C1 C2 1_555 1_555
K1 S1 1_555 1_555
C2 H1 1_555 1_555
C3 C2 1_555 1_555
H2 C3 1_555 1_555
C4 C3 1_555 1_555
H3 C4 1_555 1_555
C5 C4 1_555 1_555
H4 C5 1_555 1_555
C6 C1 1_555 1_555
H5 C6 1_555 1_555
S1A Fe1 1_555 1_555
C1A K1 1_555 1_555
C2A K1 1_555 1_555
H1A C2A 1_555 1_555
C3A K1 1_555 1_555
H2A C3A 1_555 1_555
C4A K1 1_555 1_555
H3A C4A 1_555 1_555
C5A K1 1_555 1_555
H4A C5A 1_555 1_555
C6A K1 1_555 1_555
H5A C6A 1_555 1_555
S1J Fe1 1_555 1_555
C1J S1J 1_555 1_555
C2J C1J 1_555 1_555
H1J C2J 1_555 1_555
C3J C2J 1_555 1_555
H2J C3J 1_555 1_555
C4J C3J 1_555 1_555
H3J C4J 1_555 1_555
C5J C4J 1_555 1_555
H4J C5J 1_555 1_555
C6J C1J 1_555 1_555
H5J C6J 1_555 1_555
S1K Fe1 1_555 1_555
C1K S1K 1_555 1_555
C2K C1K 1_555 1_555
H1K C2K 1_555 1_555
C3K C2K 1_555 1_555
H2K C3K 1_555 1_555
C4K C3K 1_555 1_555
H3K C4K 1_555 1_555
C5K C4K 1_555 1_555
H4K C5K 1_555 1_555
C6K C1K 1_555 1_555
H5K C6K 1_555 1_555
K1A C1 1_555 1_555
K1K S1 1_555 1_555
S1G K1 1_555 1_555
S1M K1 1_555 1_555
C1L K1 1_555 1_555
C2L K1 1_555 1_555
C3L K1 1_555 1_555
C4L K1 1_555 1_555
C5L K1 1_555 1_555
C6L K1 1_555 1_555
K1J S1A 1_555 1_555
S1F K1A 1_555 1_555
S1L K1A 1_555 1_555
C1M K1A 1_555 1_555
C2M K1A 1_555 1_555
C3M K1A 1_555 1_555
C4M K1A 1_555 1_555
C5M K1A 1_555 1_555
C6M K1A 1_555 1_555
H1L C2L 1_555 1_555
H2L C3L 1_555 1_555
H3L C4L 1_555 1_555
H4L C5L 1_555 1_555
H5L C6L 1_555 1_555
H1M C2M 1_555 1_555
H2M C3M 1_555 1_555
H3M C4M 1_555 1_555
H4M C5M 1_555 1_555
H5M C6M 1_555 1_555
K1 S1J 1_555 1_555
C2 K1A 1_555 1_555
C3 K1A 1_555 1_555
C4 K1A 1_555 1_555
C5 C6 1_555 1_555
C5 K1A 1_555 1_555
C6 K1A 1_555 1_555
S1A K1A 1_555 1_555
S1A C1A 1_555 1_555
C1A C2A 1_555 1_555
C1A C6A 1_555 1_555
C2A C3A 1_555 1_555
C3A C4A 1_555 1_555
C4A C5A 1_555 1_555
C5A C6A 1_555 1_555
S1J K1J 1_555 1_555
C1J K1K 1_555 1_555
C2J K1K 1_555 1_555
C3J K1K 1_555 1_555
C4J K1K 1_555 1_555
C5J C6J 1_555 1_555
C5J K1K 1_555 1_555
C6J K1K 1_555 1_555
S1K K1A 1_555 1_555
S1K K1K 1_555 1_555
C1K K1J 1_555 1_555
C2K K1J 1_555 1_555
C3K K1J 1_555 1_555
C4K K1J 1_555 1_555
C5K C6K 1_555 1_555
C5K K1J 1_555 1_555
C6K K1J 1_555 1_555
C1L C2L 1_555 1_555
C1L C6L 1_555 1_555
C2L C3L 1_555 1_555
C3L C4L 1_555 1_555
C4L C5L 1_555 1_555
C5L C6L 1_555 1_555
C1M C2M 1_555 1_555
C1M C6M 1_555 1_555
C2M C3M 1_555 1_555
C3M C4M 1_555 1_555
C4M C5M 1_555 1_555
C5M C6M 1_555 1_555

#END
