
#######################################################################
#
#                 Cambridge Crystallographic Data Centre
#                                CCDC 
#
#######################################################################
#
# If this CIF has been generated from an entry in the Cambridge 
# Structural Database, then it will include bibliographic, chemical, 
# crystal, experimental, refinement or atomic coordinate data resulting 
# from the CCDC's data processing and validation procedures.
#
#######################################################################

data_EBILAE
_symmetry_cell_setting           triclinic
_symmetry_space_group_name_H-M   'P -1'
_symmetry_Int_Tables_number      2
_space_group_name_Hall           '-P 1'
loop_
_symmetry_equiv_pos_site_id
_symmetry_equiv_pos_as_xyz
1 x,y,z
2 -x,-y,-z
_cell_length_a                   8.71960(10)
_cell_length_b                   9.2220(2)
_cell_length_c                   10.5926(2)
_cell_angle_alpha                86.0030(10)
_cell_angle_beta                 77.1680(10)
_cell_angle_gamma                71.0900(10)
_cell_volume                     785.676
loop_
_atom_site_label
_atom_site_type_symbol
_atom_site_fract_x
_atom_site_fract_y
_atom_site_fract_z
Gd1 Gd 0.785628(17) 0.131410(16) 0.144622(14)
O1 O 0.8183(2) 0.2766(2) -0.0543(2)
O2 O 0.7173(3) 0.4228(3) -0.2111(2)
O3 O 0.3646(3) 0.6192(2) -0.2038(2)
O4 O 0.4228(3) 0.4328(3) -0.3439(2)
O5 O 0.0005(3) 0.2482(3) 0.1684(2)
O6 O 0.1099(3) 0.0560(2) 0.0317(2)
O7 O 0.5603(3) 0.0398(3) 0.2386(2)
O8 O 0.3072(4) 0.0266(4) 0.2536(3)
O9 O 0.7511(3) 0.1469(3) 0.3815(2)
H1 H 0.8218 0.1138 0.4256
H2 H 0.6571 0.1571 0.4272
O10 O 0.9195(3) -0.1138(3) 0.2300(2)
H3 H 0.9926 -0.1780 0.1801
H4 H 0.9046 -0.1659 0.2981
N1 N 0.5436(3) 0.2119(3) 0.0330(2)
C1 C 0.5422(4) 0.3079(3) -0.0667(3)
C2 C 0.4045(4) 0.3694(3) -0.1225(3)
C3 C 0.2656(4) 0.3238(3) -0.0713(3)
H13 H 0.1720 0.3604 -0.1071
C4 C 0.2670(4) 0.2238(3) 0.0328(3)
C5 C 0.4081(4) 0.1720(3) 0.0850(3)
C6 C 0.7050(4) 0.3399(3) -0.1151(3)
C7 C 0.3983(4) 0.4825(3) -0.2329(3)
C8 C 0.1180(4) 0.1715(3) 0.0839(3)
C9 C 0.4242(4) 0.0703(4) 0.2016(3)
Gd1A Gd 0.214372(17) 0.868590(16) -0.144622(14)
Gd1_2 Gd -0.214372(17) 0.131410(16) 0.144622(14)
Gd1A_2 Gd 0.214372(17) -0.131410(16) -0.144622(14)
Gd1A_3 Gd 1.214372(17) 0.868590(16) -0.144622(14)
Gd1_3 Gd 0.785628(17) 1.131410(16) 0.144622(14)
O1A O 0.1817(2) 0.7234(2) 0.0543(2)
O2A O 0.2827(3) 0.5772(3) 0.2111(2)
O3A O 0.6354(3) 0.3808(2) 0.2038(2)
O4A O 0.5772(3) 0.5672(3) 0.3439(2)
O5A O 0.9995(3) 0.7518(3) -0.1684(2)
O5_2 O 1.0005(3) 0.2482(3) 0.1684(2)
O5A_2 O -0.0005(3) 0.7518(3) -0.1684(2)
O6A O 0.8901(3) 0.9440(2) -0.0317(2)
O6_2 O 1.1099(3) 0.0560(2) 0.0317(2)
O6A_2 O 0.8901(3) -0.0560(2) -0.0317(2)
O6A_3 O -0.1099(3) 0.9440(2) -0.0317(2)
O6_3 O 0.1099(3) 1.0560(2) 0.0317(2)
O7A O 0.4397(3) 0.9602(3) -0.2386(2)
O8A O 0.6928(4) 0.9734(4) -0.2536(3)
O9A O 0.2489(3) 0.8531(3) -0.3815(2)
H1A H 0.1782 0.8862 -0.4256
H2A H 0.3429 0.8429 -0.4272
O10A O 0.0805(3) 1.1138(3) -0.2300(2)
H3A H 0.0074 1.1780 -0.1801
H4A H 0.0954 1.1659 -0.2981
N1A N 0.4564(3) 0.7881(3) -0.0330(2)
C1A C 0.4578(4) 0.6921(3) 0.0667(3)
C2A C 0.5955(4) 0.6306(3) 0.1225(3)
C3A C 0.7344(4) 0.6762(3) 0.0713(3)
H13A H 0.8280 0.6396 0.1071
C4A C 0.7330(4) 0.7762(3) -0.0328(3)
C5A C 0.5919(4) 0.8280(3) -0.0850(3)
C6A C 0.2950(4) 0.6601(3) 0.1151(3)
C7A C 0.6017(4) 0.5175(3) 0.2329(3)
C8A C 0.8820(4) 0.8285(3) -0.0839(3)
C9A C 0.5758(4) 0.9297(4) -0.2016(3)
Mn1 Mn 0.0000 0.5000 0.5000
O11 O -0.0159(3) 0.5075(3) 0.7061(2)
H5 H -0.0206 0.5836 0.7352
H6 H -0.0999 0.4866 0.7367
O12 O -0.2245(3) 0.4352(3) 0.5170(2)
H7 H -0.2610 0.4239 0.5919
H8 H -0.2857 0.4697 0.4734
O13 O -0.1423(3) 0.7480(3) 0.4908(3)
H9 H -0.2335 0.7656 0.4879
H10 H -0.1283 0.7936 0.5453
O11A O 0.0159(3) 0.4925(3) 0.2939(2)
H5A H 0.0206 0.4164 0.2648
H6A H 0.0999 0.5134 0.2633
O12A O 0.2245(3) 0.5648(3) 0.4830(2)
H7A H 0.2610 0.5761 0.4081
H8A H 0.2857 0.5303 0.5266
O13A O 0.1423(3) 0.2520(3) 0.5092(3)
H9A H 0.2335 0.2344 0.5121
H10A H 0.1283 0.2064 0.4547
O14 O 0.4538(3) 0.1655(3) 0.5528(2)
H11 H 0.4522 0.0911 0.5954
H12 H 0.4431 0.2401 0.5952
O15? O 0.0696(7) 0.0116(7) 0.4414(5)
loop_
_geom_bond_atom_site_label_1
_geom_bond_atom_site_label_2
_geom_bond_site_symmetry_1
_geom_bond_site_symmetry_2
Gd1 O1 1_555 1_555
Mn1 O11 1_555 1_555
O1 C6 1_555 1_555
O2 C6 1_555 1_555
O3 C7 1_555 1_555
O4 C7 1_555 1_555
O5 C8 1_555 1_555
O6 C8 1_555 1_555
O7 Gd1 1_555 1_555
O8 C9 1_555 1_555
O9 Gd1 1_555 1_555
H1 O9 1_555 1_555
H2 O9 1_555 1_555
O10 Gd1 1_555 1_555
H3 O10 1_555 1_555
H4 O10 1_555 1_555
O11 H5 1_555 1_555
H6 O11 1_555 1_555
O12 Mn1 1_555 1_555
H7 O12 1_555 1_555
H8 O12 1_555 1_555
O13 Mn1 1_555 1_555
H9 O13 1_555 1_555
H10 O13 1_555 1_555
O14 H11 1_555 1_555
H12 O14 1_555 1_555
N1 Gd1 1_555 1_555
C1 N1 1_555 1_555
C2 C1 1_555 1_555
C3 C2 1_555 1_555
H13 C3 1_555 1_555
C4 C3 1_555 1_555
C5 N1 1_555 1_555
C6 C1 1_555 1_555
C7 C2 1_555 1_555
C8 C4 1_555 1_555
C9 O7 1_555 1_555
Gd1A O3 1_555 1_555
Gd1_2 O5 1_555 1_555
Gd1A_2 O6 1_555 1_555
Gd1A_3 O5A 1_555 1_555
Gd1_3 O6A 1_555 1_555
O1A Gd1A 1_555 1_555
O2A C6A 1_555 1_555
O3A Gd1 1_555 1_555
O4A C7A 1_555 1_555
O5A C8A 1_555 1_555
O5_2 Gd1 1_555 1_555
O5A_2 Gd1A 1_555 1_555
O6A Gd1A_3 1_555 1_555
O6_2 Gd1 1_555 1_555
O6A_2 Gd1 1_555 1_555
O6A_3 Gd1A 1_555 1_555
O6_3 Gd1A 1_555 1_555
O7A Gd1A 1_555 1_555
O8A C9A 1_555 1_555
O9A Gd1A 1_555 1_555
H1A O9A 1_555 1_555
H2A O9A 1_555 1_555
O10A Gd1A 1_555 1_555
H3A O10A 1_555 1_555
H4A O10A 1_555 1_555
O11A Mn1 1_555 1_555
H5A O11A 1_555 1_555
H6A O11A 1_555 1_555
O12A Mn1 1_555 1_555
H7A O12A 1_555 1_555
H8A O12A 1_555 1_555
O13A Mn1 1_555 1_555
H9A O13A 1_555 1_555
H10A O13A 1_555 1_555
N1A Gd1A 1_555 1_555
C1A N1A 1_555 1_555
C2A C1A 1_555 1_555
C3A C2A 1_555 1_555
H13A C3A 1_555 1_555
C4A C3A 1_555 1_555
C5A N1A 1_555 1_555
C6A O1A 1_555 1_555
C7A O3A 1_555 1_555
C8A O6A 1_555 1_555
C9A O7A 1_555 1_555
O6 Gd1_2 1_555 1_555
C4 C5 1_555 1_555
C5 C9 1_555 1_555
C1A C6A 1_555 1_555
C2A C7A 1_555 1_555
C4A C5A 1_555 1_555
C4A C8A 1_555 1_555
C5A C9A 1_555 1_555

#END
