
#######################################################################
#
#                 Cambridge Crystallographic Data Centre
#                                CCDC 
#
#######################################################################
#
# If this CIF has been generated from an entry in the Cambridge 
# Structural Database, then it will include bibliographic, chemical, 
# crystal, experimental, refinement or atomic coordinate data resulting 
# from the CCDC's data processing and validation procedures.
#
#######################################################################

data_EBILOS
_symmetry_cell_setting           monoclinic
_symmetry_space_group_name_H-M   'P 21/n'
_symmetry_Int_Tables_number      14
_space_group_name_Hall           '-P 2yn'
loop_
_symmetry_equiv_pos_site_id
_symmetry_equiv_pos_as_xyz
1 x,y,z
2 1/2-x,1/2+y,1/2-z
3 -x,-y,-z
4 1/2+x,1/2-y,1/2+z
_cell_length_a                   8.7996(13)
_cell_length_b                   12.9830(19)
_cell_length_c                   13.942(2)
_cell_angle_alpha                90
_cell_angle_beta                 101.802(2)
_cell_angle_gamma                90
_cell_volume                     1559.14
loop_
_atom_site_label
_atom_site_type_symbol
_atom_site_fract_x
_atom_site_fract_y
_atom_site_fract_z
C1 C 0.6853(7) 0.3782(5) 0.9059(4)
H1 H 0.6383 0.3148 0.9109
C2 C 0.7884(6) 0.5239(4) 0.9736(4)
C3 C 0.8109(6) 0.5625(4) 0.8849(4)
C4 C 0.7696(6) 0.4997(4) 0.8020(4)
C5 C 0.9054(6) 0.6745(4) 0.9978(4)
C6 C 0.8603(7) 0.5721(4) 1.1504(4)
H2 H 0.9369 0.6171 1.1893
H3 H 0.8951 0.5016 1.1635
C7 C 0.7055(7) 0.5864(5) 1.1809(4)
H4 H 0.6725 0.6575 1.1701
H5 H 0.6280 0.5431 1.1405
C8 C 0.7158(7) 0.5593(5) 1.2878(4)
H6 H 0.6163 0.5693 1.3046
H7 H 0.7912 0.6028 1.3281
H8 H 0.7465 0.4885 1.2985
C9 C 1.0732(7) 0.8200(5) 0.9910(4)
H9 H 1.1242 0.8731 1.0336
H10 H 1.0038 0.8507 0.9364
H11 H 1.1494 0.7795 0.9676
C10 C 0.9425(8) 0.8038(5) 1.1289(4)
H12 H 0.8564 0.7675 1.1456
H13 H 0.9134 0.8740 1.1132
H14 H 1.0290 0.8021 1.1834
N1 N 0.7046(5) 0.4055(3) 0.8159(3)
N2 N 0.7263(5) 0.4323(3) 0.9886(3)
N3 N 0.7908(6) 0.5247(4) 0.7139(4)
H15 H 0.7642 0.4825 0.6658
H16 H 0.8313 0.5832 0.7045
N4 N 0.8825(5) 0.6594(3) 0.9002(3)
N5 N 0.9862(6) 0.7546(4) 1.0443(4)
N6 N 0.8495(5) 0.5950(3) 1.0456(3)
Ag1 Ag 0.65816(5) 0.28379(3) 0.70711(3)
N4A N 0.6175(5) 0.1594(3) 0.5998(3)
Ag1A Ag 0.84184(5) 0.78379(3) 0.79289(3)
N7 N 0.5971(6) 0.8293(4) 0.9371(4)
O1 O 0.6954(5) 0.8992(4) 0.9592(3)
O2 O 0.5593(6) 0.7974(3) 0.8497(4)
O3 O 0.5352(8) 0.7883(4) 0.9998(4)
O4 O 1.0221(5) 0.6708(3) 0.6940(3)
H17 H 1.053(8) 0.667(6) 0.640(3)
H18 H 1.109(5) 0.675(7) 0.736(4)
O5 O 0.2886(6) 0.6735(4) 0.8327(3)
H19 H 0.380(8) 0.697(10) 0.854(11)
H20 H 0.277(11) 0.625(5) 0.872(6)
loop_
_geom_bond_atom_site_label_1
_geom_bond_atom_site_label_2
_geom_bond_site_symmetry_1
_geom_bond_site_symmetry_2
C1 H1 1_555 1_555
C2 C3 1_555 1_555
C3 C4 1_555 1_555
C4 N1 1_555 1_555
C5 N4 1_555 1_555
C6 H2 1_555 1_555
H3 C6 1_555 1_555
C7 C6 1_555 1_555
H4 C7 1_555 1_555
H5 C7 1_555 1_555
C8 C7 1_555 1_555
H6 C8 1_555 1_555
H7 C8 1_555 1_555
H8 C8 1_555 1_555
C9 H9 1_555 1_555
H10 C9 1_555 1_555
H11 C9 1_555 1_555
C10 H12 1_555 1_555
H13 C10 1_555 1_555
H14 C10 1_555 1_555
N1 C1 1_555 1_555
N2 C1 1_555 1_555
N3 C4 1_555 1_555
H15 N3 1_555 1_555
H16 N3 1_555 1_555
N4 C3 1_555 1_555
N5 C5 1_555 1_555
N6 C2 1_555 1_555
Ag1 N1 1_555 1_555
N7 O1 1_555 1_555
O2 N7 1_555 1_555
O3 N7 1_555 1_555
O4 H17 1_555 1_555
H18 O4 1_555 1_555
O5 H19 1_555 1_555
H20 O5 1_555 1_555
N4A Ag1 1_555 1_555
Ag1A N4 1_555 1_555
C2 N2 1_555 1_555
C5 N6 1_555 1_555
C6 N6 1_555 1_555
C9 N5 1_555 1_555
C10 N5 1_555 1_555

#END
