
#######################################################################
#
#                 Cambridge Crystallographic Data Centre
#                                CCDC 
#
#######################################################################
#
# If this CIF has been generated from an entry in the Cambridge 
# Structural Database, then it will include bibliographic, chemical, 
# crystal, experimental, refinement or atomic coordinate data resulting 
# from the CCDC's data processing and validation procedures.
#
#######################################################################

data_EBIMUZ
_symmetry_cell_setting           monoclinic
_symmetry_space_group_name_H-M   'C 2/c'
_symmetry_Int_Tables_number      15
_space_group_name_Hall           '-C 2yn'
loop_
_symmetry_equiv_pos_site_id
_symmetry_equiv_pos_as_xyz
1 x,y,z
2 -x,y,1/2-z
3 1/2+x,1/2+y,z
4 1/2-x,1/2+y,1/2-z
5 -x,-y,-z
6 x,-y,1/2+z
7 1/2-x,1/2-y,-z
8 1/2+x,1/2-y,1/2+z
_cell_length_a                   17.3759(7)
_cell_length_b                   19.6161(12)
_cell_length_c                   12.1530(4)
_cell_angle_alpha                90
_cell_angle_beta                 128.409(2)
_cell_angle_gamma                90
_cell_volume                     3245.9
loop_
_atom_site_label
_atom_site_type_symbol
_atom_site_fract_x
_atom_site_fract_y
_atom_site_fract_z
Co1 Co 0.23885(3) 0.16881(2) 0.19423(5)
Co2 Co 0.32155(3) 0.19161(2) 0.02932(5)
O1 O 0.3394(2) 0.08815(12) 0.0706(3)
O2 O 0.27790(19) 0.07150(11) 0.1841(3)
O3 O 0.2646(2) -0.16089(12) 0.3272(3)
O4 O 0.2925(2) -0.24903(11) 0.2399(3)
O5 O 0.35585(17) -0.14960(12) -0.0718(2)
O6 O 0.37516(17) -0.20559(12) -0.2476(2)
O7 O 0.53699(18) -0.20217(14) -0.0956(3)
O8 O 0.19377(17) 0.20287(11) 0.0052(2)
H1 H 0.152(3) 0.187(2) -0.057(4)
N1 N 0.1134(2) 0.12261(15) 0.1517(3)
N2 N 0.0146(2) 0.04923(17) 0.1450(4)
C1 C 0.3213(2) -0.02489(16) 0.1191(3)
C2 C 0.3026(2) -0.06861(15) 0.1898(3)
H3 H 0.2885 -0.0507 0.2464
C3 C 0.3046(2) -0.13885(15) 0.1767(3)
C4 C 0.3244(2) -0.16525(16) 0.0900(3)
H4 H 0.3250 -0.2121 0.0792
C5 C 0.3428(2) -0.12135(16) 0.0208(3)
C6 C 0.3420(3) -0.05150(17) 0.0335(4)
H5 H 0.3550 -0.0227 -0.0140
C7 C 0.3130(2) 0.05124(16) 0.1257(3)
C8 C 0.2848(2) -0.18675(16) 0.2539(3)
C9 C 0.4511(3) -0.1460(2) -0.0316(4)
H6 H 0.4681 -0.0989 -0.0316
H7 H 0.4983 -0.1641 0.0625
C10 C 0.4543(3) -0.18737(17) -0.1349(4)
C11 C 0.1041(3) 0.06022(19) 0.1800(4)
H8 H 0.1533 0.0274 0.2194
C12 C -0.0359(3) 0.1086(3) 0.0902(5)
H9 H -0.0998 0.1169 0.0570
C13 C 0.0242(3) 0.1532(2) 0.0932(6)
H10 H 0.0080 0.1979 0.0607
C14 C -0.0172(3) -0.0120(2) 0.1756(5)
H11 H 0.0087 -0.0520 0.1615
H12 H -0.0883 -0.0147 0.1107
Co1C Co 0.26115(3) 0.66881(2) 0.30577(5)
Co1C_2 Co 0.26115(3) -0.33119(2) 0.30577(5)
Co1E Co 0.23885(3) -0.16881(2) -0.30577(5)
Co1A Co -0.23885(3) 0.16881(2) 0.30577(5)
Co1F Co 0.26115(3) 0.33119(2) 0.80577(5)
Co1F_2 Co 0.26115(3) 0.33119(2) -0.19423(5)
Co2C Co 0.17845(3) 0.69161(2) 0.47068(5)
Co2E Co 0.32155(3) -0.19161(2) 0.52932(5)
Co2E_2 Co 0.32155(3) -0.19161(2) -0.47068(5)
Co2D Co 0.67845(3) -0.19161(2) -0.02932(5)
Co2F Co 0.17845(3) 0.30839(2) -0.02932(5)
Co2F_2 Co 0.17845(3) 0.30839(2) 0.97068(5)
Co2G Co -0.17845(3) 0.30839(2) 0.52932(5)
O1C O 0.1606(2) 0.58815(12) 0.4294(3)
O2C O 0.22210(19) 0.57150(11) 0.3159(3)
O3C O 0.2354(2) 0.33911(12) 0.1728(3)
O3E O 0.2646(2) 0.16089(12) -0.1728(3)
O3F O 0.2354(2) 0.66089(12) 0.6728(3)
O4C O 0.2075(2) 0.25097(11) 0.2601(3)
O4_2 O 0.2925(2) 0.75097(11) 0.2399(3)
O5C O 0.14415(17) 0.35040(12) 0.5718(2)
O5E O 0.35585(17) 0.14960(12) 0.4282(2)
O5F O 0.14415(17) 0.64960(12) 0.0718(2)
O6C O 0.12484(17) 0.29441(12) 0.7476(2)
O6E O 0.37516(17) 0.20559(12) 0.2524(2)
O6F O 0.12484(17) 0.70559(12) 0.2476(2)
O7C O -0.03699(18) 0.29783(14) 0.5956(3)
O7D O 0.46301(18) 0.20217(14) 0.0956(3)
O7G O 0.03699(18) 0.70217(14) 0.4044(3)
O8F O 0.30623(17) 0.29713(11) -0.0052(2)
O8C O 0.30623(17) 0.70287(11) 0.4948(2)
O8E O 0.19377(17) 0.79713(11) 0.5052(2)
H1F H 0.348(3) 0.313(2) 0.057(4)
H1C H 0.348(3) 0.687(2) 0.557(4)
H1E H 0.152(3) 0.813(2) 0.443(4)
N1A N -0.1134(2) 0.12261(15) 0.3483(3)
N1C N 0.3866(2) 0.62261(15) 0.3483(3)
N2A N -0.0146(2) 0.04923(17) 0.3550(4)
C1C C 0.1787(2) 0.47511(16) 0.3809(3)
C2C C 0.1974(2) 0.43139(15) 0.3102(3)
H3C H 0.2115 0.4493 0.2536
C3C C 0.1954(2) 0.36115(15) 0.3233(3)
C4C C 0.1756(2) 0.33475(16) 0.4100(3)
H4C H 0.1750 0.2879 0.4208
C5C C 0.1572(2) 0.37865(16) 0.4792(3)
C6C C 0.1580(3) 0.44850(17) 0.4665(4)
H5C H 0.1450 0.4773 0.5140
C7C C 0.1870(2) 0.55124(16) 0.3743(3)
C8C C 0.2152(2) 0.31325(16) 0.2461(3)
C9C C 0.0489(3) 0.3540(2) 0.5316(4)
H6C H 0.0319 0.4011 0.5316
H7C H 0.0017 0.3359 0.4375
C10C C 0.0457(3) 0.31263(17) 0.6349(4)
C11A C -0.1041(3) 0.06022(19) 0.3200(4)
H8A H -0.1533 0.0274 0.2806
C12A C 0.0359(3) 0.1086(3) 0.4098(5)
H9A H 0.0998 0.1169 0.4430
C13A C -0.0242(3) 0.1532(2) 0.4068(6)
H10A H -0.0080 0.1979 0.4393
C14A C 0.0172(3) -0.0120(2) 0.3244(5)
H11A H -0.0087 -0.0520 0.3385
H12A H 0.0883 -0.0147 0.3893
O9 O 0.0000 0.1681(3) -0.2500
H2 H 0.0182 0.1934 -0.2869
H2A H -0.0182 0.1934 -0.2131
loop_
_geom_bond_atom_site_label_1
_geom_bond_atom_site_label_2
_geom_bond_site_symmetry_1
_geom_bond_site_symmetry_2
Co1 O2 1_555 1_555
Co2 O1 1_555 1_555
O1 C7 1_555 1_555
O2 C7 1_555 1_555
O3 C8 1_555 1_555
O4 C8 1_555 1_555
O5 C5 1_555 1_555
O6 C10 1_555 1_555
O7 C10 1_555 1_555
O8 Co1 1_555 1_555
H1 O8 1_555 1_555
O9 H2 1_555 1_555
N1 Co1 1_555 1_555
N2 C11 1_555 1_555
C1 C2 1_555 1_555
C2 H3 1_555 1_555
C3 C2 1_555 1_555
C4 C3 1_555 1_555
H4 C4 1_555 1_555
C5 C4 1_555 1_555
C6 C1 1_555 1_555
H5 C6 1_555 1_555
C7 C1 1_555 1_555
C8 C3 1_555 1_555
C9 O5 1_555 1_555
H6 C9 1_555 1_555
H7 C9 1_555 1_555
C10 C9 1_555 1_555
C11 N1 1_555 1_555
H8 C11 1_555 1_555
C12 N2 1_555 1_555
H9 C12 1_555 1_555
C13 N1 1_555 1_555
H10 C13 1_555 1_555
C14 N2 1_555 1_555
H11 C14 1_555 1_555
H12 C14 1_555 1_555
Co1C O2C 1_555 1_555
Co1C_2 O4 1_555 1_555
Co1E O5 1_555 1_555
Co1A N1A 1_555 1_555
Co1F O5C 1_555 1_555
Co1F_2 O8F 1_555 1_555
Co2C O1C 1_555 1_555
Co2E O3 1_555 1_555
Co2E_2 O6 1_555 1_555
Co2D O7 1_555 1_555
Co2F O8 1_555 1_555
Co2F_2 O6C 1_555 1_555
Co2G O7C 1_555 1_555
O1C C7C 1_555 1_555
O2C C7C 1_555 1_555
O3C Co2F 1_555 1_555
O3E Co2 1_555 1_555
O3F Co2C 1_555 1_555
O4C Co1 1_555 1_555
O4_2 Co1C 1_555 1_555
O5C C5C 1_555 1_555
O5E Co1 1_555 1_555
O5F Co1C 1_555 1_555
O6C Co1F 1_555 1_555
O6E Co1 1_555 1_555
O6F Co1C 1_555 1_555
O7C C10C 1_555 1_555
O7D Co2 1_555 1_555
O7G Co2C 1_555 1_555
O8F Co2 1_555 1_555
O8C Co1C 1_555 1_555
O8E Co2C 1_555 1_555
H1F O8F 1_555 1_555
H1C O8C 1_555 1_555
H1E O8E 1_555 1_555
H2A O9 1_555 1_555
N1A C11A 1_555 1_555
N1C Co1C 1_555 1_555
N2A C11A 1_555 1_555
C1C C2C 1_555 1_555
C2C H3C 1_555 1_555
C3C C2C 1_555 1_555
C4C C3C 1_555 1_555
H4C C4C 1_555 1_555
C5C C4C 1_555 1_555
C6C C1C 1_555 1_555
H5C C6C 1_555 1_555
C7C C1C 1_555 1_555
C8C O3C 1_555 1_555
C9C O5C 1_555 1_555
H6C C9C 1_555 1_555
H7C C9C 1_555 1_555
C10C O6C 1_555 1_555
C11A H8A 1_555 1_555
C12A N2A 1_555 1_555
H9A C12A 1_555 1_555
C13A N1A 1_555 1_555
H10A C13A 1_555 1_555
C14A C14 1_555 1_555
H11A C14A 1_555 1_555
H12A C14A 1_555 1_555
Co2 O8 1_555 1_555
Co2 O6E 1_555 1_555
O6 Co1E 1_555 1_555
C5 C6 1_555 1_555
C12 C13 1_555 1_555
Co2C O6F 1_555 1_555
Co2C O8C 1_555 1_555
Co2F O8F 1_555 1_555
O4C C8C 1_555 1_555
N2A C14A 1_555 1_555
C3C C8C 1_555 1_555
C5C C6C 1_555 1_555
C9C C10C 1_555 1_555
C12A C13A 1_555 1_555

#END
