
#######################################################################
#
#                 Cambridge Crystallographic Data Centre
#                                CCDC 
#
#######################################################################
#
# If this CIF has been generated from an entry in the Cambridge 
# Structural Database, then it will include bibliographic, chemical, 
# crystal, experimental, refinement or atomic coordinate data resulting 
# from the CCDC's data processing and validation procedures.
#
#######################################################################

data_EBIMIN
_symmetry_cell_setting           orthorhombic
_symmetry_space_group_name_H-M   'P b c a'
_symmetry_Int_Tables_number      61
_space_group_name_Hall           '-P 2ac 2ab'
loop_
_symmetry_equiv_pos_site_id
_symmetry_equiv_pos_as_xyz
1 x,y,z
2 1/2-x,-y,1/2+z
3 -x,1/2+y,1/2-z
4 1/2+x,1/2-y,-z
5 -x,-y,-z
6 1/2+x,y,1/2-z
7 x,1/2-y,1/2+z
8 1/2-x,1/2+y,z
_cell_length_a                   16.2417(11)
_cell_length_b                   10.7616(7)
_cell_length_c                   25.6486(17)
_cell_angle_alpha                90
_cell_angle_beta                 90
_cell_angle_gamma                90
_cell_volume                     4483.03
loop_
_atom_site_label
_atom_site_type_symbol
_atom_site_fract_x
_atom_site_fract_y
_atom_site_fract_z
Mn1 Mn 0.06817(4) 0.34777(6) 0.38048(3)
Mn2 Mn 0.0000 0.5000 0.5000
C1 C 0.2341(3) 0.3950(4) 0.49978(17)
C2 C 0.3035(3) 0.3205(4) 0.50461(18)
H1 H 0.3142 0.2570 0.4798
C3 C 0.3575(3) 0.3396(4) 0.54635(18)
C4 C 0.3390(3) 0.4279(4) 0.58400(18)
H2 H 0.3750 0.4388 0.6128
C5 C 0.2687(3) 0.5005(4) 0.58020(17)
C6 C 0.2183(3) 0.4868(4) 0.53659(17)
H3 H 0.1726 0.5408 0.5319
C7 C 0.2395(3) 0.5849(4) 0.62357(17)
H4 H 0.2124 0.5328 0.6504
H5 H 0.1972 0.6413 0.6091
C8 C 0.3046(3) 0.6636(4) 0.65044(18)
C9 C 0.3503(3) 0.7507(4) 0.62256(17)
H6 H 0.3439 0.7565 0.5858
C10 C 0.4051(3) 0.8293(4) 0.64796(17)
C11 C 0.4164(3) 0.8184(5) 0.70217(18)
H7 H 0.4531 0.8725 0.7200
C12 C 0.3735(3) 0.7282(4) 0.72909(17)
C13 C 0.3173(3) 0.6537(4) 0.70357(18)
H8 H 0.2866 0.5943 0.7229
C14 C 0.1741(3) 0.3753(4) 0.45610(17)
C15 C 0.4326(3) 0.2577(4) 0.55123(17)
C16 C 0.4529(3) 0.9246(4) 0.61705(18)
C17 C 0.3891(3) 0.7066(5) 0.78657(18)
O1 O 0.11018(19) 0.4438(3) 0.45348(12)
O2 O 0.1862(2) 0.2929(3) 0.42255(13)
O3 O 0.4406(2) 0.1724(3) 0.51900(14)
O4 O 0.4822(2) 0.2808(3) 0.58811(14)
O5 O 0.4561(2) 0.9091(3) 0.56875(13)
O6 O 0.4863(2) 1.0120(3) 0.64209(14)
O7 O 0.4349(2) 0.7795(3) 0.81156(13)
O8 O 0.3574(3) 0.6146(4) 0.80836(14)
Mn1C Mn -0.43183(4) 0.15223(6) 0.61952(3)
Mn1C_2 Mn 0.56817(4) 0.15223(6) 0.61952(3)
Mn1C_3 Mn 0.56817(4) 1.15223(6) 0.61952(3)
Mn1A Mn 0.43183(4) 0.65223(6) 0.88048(3)
Mn1_2 Mn 0.06817(4) -0.65223(6) 0.38048(3)
Mn1B Mn -0.06817(4) -0.15223(6) 0.11952(3)
Mn2C Mn 0.5000 0.0000 0.5000
Mn2C_2 Mn 0.5000 1.0000 0.5000
Mn2C_3 Mn -0.5000 0.0000 0.5000
Mn2_2 Mn 0.0000 -0.5000 0.5000
C1C C -0.2659(3) 0.1050(4) 0.50022(17)
C2C C -0.1965(3) 0.1795(4) 0.49539(18)
H1C H -0.1858 0.2430 0.5202
C3C C -0.1425(3) 0.1604(4) 0.45365(18)
C4C C -0.1610(3) 0.0721(4) 0.41600(18)
H2C H -0.1250 0.0612 0.3872
C5C C -0.2313(3) -0.0005(4) 0.41980(17)
C6C C -0.2817(3) 0.0132(4) 0.46341(17)
H3C H -0.3274 -0.0408 0.4681
C7C C -0.2605(3) -0.0849(4) 0.37643(17)
H4C H -0.2876 -0.0328 0.3496
H5C H -0.3028 -0.1413 0.3909
C8C C -0.1954(3) -0.1636(4) 0.34956(18)
C9C C -0.1497(3) -0.2507(4) 0.37744(17)
H6C H -0.1561 -0.2565 0.4142
C10C C -0.0949(3) -0.3293(4) 0.35204(17)
C11C C -0.0836(3) -0.3184(5) 0.29783(18)
H7C H -0.0469 -0.3725 0.2800
C12C C -0.1265(3) -0.2282(4) 0.27091(17)
C13C C -0.1827(3) -0.1537(4) 0.29643(18)
H8C H -0.2134 -0.0943 0.2771
C14C C -0.3259(3) 0.1247(4) 0.54390(17)
C15C C -0.0674(3) 0.2423(4) 0.44877(17)
C16C C -0.0471(3) -0.4246(4) 0.38295(18)
C17C C -0.1109(3) -0.2066(5) 0.21343(18)
O1C O -0.38982(19) 0.0562(3) 0.54652(12)
O1D O -0.11018(19) 0.5562(3) 0.54652(12)
O2C O -0.3138(2) 0.2071(3) 0.57745(13)
O3C O -0.0594(2) 0.3276(3) 0.48100(14)
O3G O 0.0594(2) 0.6724(3) 0.51900(14)
O4C O -0.0178(2) 0.2192(3) 0.41189(14)
O4_2 O -0.5178(2) 0.2808(3) 0.58811(14)
O5C O -0.0439(2) -0.4091(3) 0.43125(13)
O5C_2 O -0.0439(2) 0.5909(3) 0.43125(13)
O5G O 0.0439(2) 0.4091(3) 0.56875(13)
O6C O -0.0137(2) -0.5120(3) 0.35791(14)
O6C_2 O -0.0137(2) 0.4880(3) 0.35791(14)
O6_2 O -0.5137(2) 0.0120(3) 0.64209(14)
O7C O -0.0651(2) -0.2795(3) 0.18844(13)
O7A O 0.0651(2) 0.2205(3) 0.31156(13)
O7B O -0.4349(2) 0.2795(3) 0.68844(13)
O8C O -0.1426(3) -0.1146(4) 0.19164(14)
O8A O 0.1426(3) 0.3854(4) 0.30836(14)
O8B O -0.3574(3) 0.1146(4) 0.69164(14)
C18 C 0.6647(8) 0.4881(11) 0.6164(6)
H9 H 0.6811 0.4356 0.6458
H10 H 0.6937 0.5678 0.6184
H11 H 0.6787 0.4464 0.5836
C19 C 0.5355(8) 0.5914(10) 0.5774(5)
H12 H 0.4762 0.6030 0.5824
H13 H 0.5455 0.5525 0.5435
H14 H 0.5631 0.6723 0.5787
N1 N 0.5677(5) 0.5118(9) 0.6186(4)
H15 H 0.5413 0.4363 0.6170
H16 H 0.5551 0.5471 0.6503
C20 C 0.608(2) 0.618(3) 0.7714(14)
C21 C 0.6292(8) 0.8437(11) 0.7858(5)
C22 C 0.6469(9) 0.7933(14) 0.6878(6)
N2 N 0.6199(5) 0.7554(8) 0.7435(3)
O9 O 0.5640(7) 0.5758(8) 0.7151(4)
C23? C 0.588(3) 0.898(4) 0.7809(15)
C24? C 0.5869(7) 0.6435(9) 0.7552(4)
loop_
_geom_bond_atom_site_label_1
_geom_bond_atom_site_label_2
_geom_bond_site_symmetry_1
_geom_bond_site_symmetry_2
Mn1 O1 1_555 1_555
Mn2 O1 1_555 1_555
C1 C2 1_555 1_555
C2 H1 1_555 1_555
C3 C2 1_555 1_555
C4 C3 1_555 1_555
H2 C4 1_555 1_555
C5 C4 1_555 1_555
C6 C1 1_555 1_555
H3 C6 1_555 1_555
C7 C5 1_555 1_555
H4 C7 1_555 1_555
H5 C7 1_555 1_555
C8 C7 1_555 1_555
C9 C8 1_555 1_555
H6 C9 1_555 1_555
C10 C9 1_555 1_555
C11 C10 1_555 1_555
H7 C11 1_555 1_555
C12 C11 1_555 1_555
C13 C8 1_555 1_555
H8 C13 1_555 1_555
C14 C1 1_555 1_555
C15 C3 1_555 1_555
C16 C10 1_555 1_555
C17 C12 1_555 1_555
O1 C14 1_555 1_555
O2 Mn1 1_555 1_555
O3 C15 1_555 1_555
O4 C15 1_555 1_555
O5 C16 1_555 1_555
O6 C16 1_555 1_555
O7 C17 1_555 1_555
O8 C17 1_555 1_555
C18 H9 1_555 1_555
H10 C18 1_555 1_555
H11 C18 1_555 1_555
C19 H12 1_555 1_555
H13 C19 1_555 1_555
H14 C19 1_555 1_555
N1 C18 1_555 1_555
H15 N1 1_555 1_555
H16 N1 1_555 1_555
C20 N2 1_555 1_555
C21 N2 1_555 1_555
C22 N2 1_555 1_555
O9 C20 1_555 1_555
Mn1C O1C 1_555 1_555
Mn1C_2 O4 1_555 1_555
Mn1C_3 O6 1_555 1_555
Mn1A O7 1_555 1_555
Mn1_2 O6C 1_555 1_555
Mn1B O7C 1_555 1_555
Mn2C O3 1_555 1_555
Mn2C_2 O5 1_555 1_555
Mn2C_3 O1C 1_555 1_555
Mn2_2 O5C 1_555 1_555
C1C C2C 1_555 1_555
C2C H1C 1_555 1_555
C3C C2C 1_555 1_555
C4C C3C 1_555 1_555
H2C C4C 1_555 1_555
C5C C4C 1_555 1_555
C6C C1C 1_555 1_555
H3C C6C 1_555 1_555
C7C C5C 1_555 1_555
H4C C7C 1_555 1_555
H5C C7C 1_555 1_555
C8C C7C 1_555 1_555
C9C C8C 1_555 1_555
H6C C9C 1_555 1_555
C10C C9C 1_555 1_555
C11C C10C 1_555 1_555
H7C C11C 1_555 1_555
C12C C11C 1_555 1_555
C13C C8C 1_555 1_555
H8C C13C 1_555 1_555
C14C C1C 1_555 1_555
C15C C3C 1_555 1_555
C16C C10C 1_555 1_555
C17C C12C 1_555 1_555
O1C C14C 1_555 1_555
O1D Mn2 1_555 1_555
O2C Mn1C 1_555 1_555
O3C Mn2 1_555 1_555
O3G Mn2 1_555 1_555
O4C Mn1 1_555 1_555
O4_2 Mn1C 1_555 1_555
O5C C16C 1_555 1_555
O5C_2 Mn2 1_555 1_555
O5G Mn2 1_555 1_555
O6C C16C 1_555 1_555
O6C_2 Mn1 1_555 1_555
O6_2 Mn1C 1_555 1_555
O7C C17C 1_555 1_555
O7A Mn1 1_555 1_555
O7B Mn1C 1_555 1_555
O8C Mn1B 1_555 1_555
O8A Mn1 1_555 1_555
O8B Mn1C 1_555 1_555
C5 C6 1_555 1_555
C12 C13 1_555 1_555
C14 O2 1_555 1_555
O8 Mn1A 1_555 1_555
C19 N1 1_555 1_555
C5C C6C 1_555 1_555
C12C C13C 1_555 1_555
C14C O2C 1_555 1_555
C15C O3C 1_555 1_555
C15C O4C 1_555 1_555
C17C O8C 1_555 1_555

#END
