
#######################################################################
#
#                 Cambridge Crystallographic Data Centre
#                                CCDC 
#
#######################################################################
#
# If this CIF has been generated from an entry in the Cambridge 
# Structural Database, then it will include bibliographic, chemical, 
# crystal, experimental, refinement or atomic coordinate data resulting 
# from the CCDC's data processing and validation procedures.
#
#######################################################################

data_EBINUA01
_symmetry_cell_setting           orthorhombic
_symmetry_space_group_name_H-M   'F d d d'
_symmetry_Int_Tables_number      70
_space_group_name_Hall           '-F 2uv 2vw'
loop_
_symmetry_equiv_pos_site_id
_symmetry_equiv_pos_as_xyz
1 x,y,z
2 3/4-x,3/4-y,z
3 3/4-x,y,3/4-z
4 x,3/4-y,3/4-z
5 x,1/2+y,1/2+z
6 3/4-x,1/4-y,1/2+z
7 3/4-x,1/2+y,1/4-z
8 x,1/4-y,1/4-z
9 1/2+x,y,1/2+z
10 1/4-x,3/4-y,1/2+z
11 1/4-x,y,1/4-z
12 1/2+x,3/4-y,1/4-z
13 1/2+x,1/2+y,z
14 1/4-x,1/4-y,z
15 1/4-x,1/2+y,3/4-z
16 1/2+x,1/4-y,3/4-z
17 -x,-y,-z
18 1/4+x,1/4+y,-z
19 1/4+x,-y,1/4+z
20 -x,1/4+y,1/4+z
21 -x,1/2-y,1/2-z
22 1/4+x,3/4+y,1/2-z
23 1/4+x,1/2-y,3/4+z
24 -x,3/4+y,3/4+z
25 1/2-x,-y,1/2-z
26 3/4+x,1/4+y,1/2-z
27 3/4+x,-y,3/4+z
28 1/2-x,1/4+y,3/4+z
29 1/2-x,1/2-y,-z
30 3/4+x,3/4+y,-z
31 3/4+x,1/2-y,1/4+z
32 1/2-x,3/4+y,1/4+z
_cell_length_a                   13.1073(9)
_cell_length_b                   17.5935(13)
_cell_length_c                   25.4796(19)
_cell_angle_alpha                90
_cell_angle_beta                 90
_cell_angle_gamma                90
_cell_volume                     5875.68
loop_
_atom_site_label
_atom_site_type_symbol
_atom_site_fract_x
_atom_site_fract_y
_atom_site_fract_z
Cu1 Cu 0.6250 0.6250 0.6250
N1 N 0.73366(15) 0.62944(11) 0.68081(8)
N2 N 0.8691(2) 0.59949(16) 0.72926(15)
N3 N 0.83081(17) 0.66661(13) 0.74440(8)
O7 O 0.6250 0.48729(15) 0.6250
H1 H 0.6766 0.4590 0.6199
C1 C 0.8089(2) 0.57971(17) 0.69109(15)
H2 H 0.8172 0.5347 0.6724
C2 C 0.75021(17) 0.68349(14) 0.71572(9)
H3 H 0.7108 0.7271 0.7195
C3 C 0.8790(2) 0.7116(2) 0.78585(11)
H4 H 0.9122 0.6776 0.8105
H5 H 0.8268 0.7395 0.8048
C4 C 0.9568(2) 0.76702(19) 0.76465(12)
H6 H 0.9221 0.8025 0.7417
H7 H 0.9842 0.7959 0.7938
Cu1S Cu 1.3750 0.8750 0.8750
Cu1P Cu 1.3750 0.3750 0.3750
N1T N 1.26634(15) 0.87056(11) 0.81919(8)
N1G N 0.73366(15) 0.62056(11) 0.56919(8)
N1W N 1.26634(15) 0.37944(11) 0.43081(8)
N1J N 0.51634(15) 0.62944(11) 0.56919(8)
N1M N 0.51634(15) 0.62056(11) 0.68081(8)
N2T N 1.1309(2) 0.90051(16) 0.77074(15)
N2G N 0.8691(2) 0.65051(16) 0.52074(15)
N2W N 1.1309(2) 0.34949(16) 0.47926(15)
N3T N 1.16919(17) 0.83339(13) 0.75560(8)
N3G N 0.83081(17) 0.58339(13) 0.50560(8)
N3W N 1.16919(17) 0.41661(13) 0.49440(8)
O7G O 0.6250 0.76271(15) 0.6250
H1J H 0.5734 0.4590 0.6301
H1G H 0.6766 0.7910 0.6301
H1M H 0.5734 0.7910 0.6199
C1T C 1.1911(2) 0.92029(17) 0.80891(15)
C1G C 0.8089(2) 0.67029(17) 0.55891(15)
C1W C 1.1911(2) 0.32971(17) 0.44109(15)
H2T H 1.1828 0.9653 0.8276
H2G H 0.8172 0.7153 0.5776
H2W H 1.1828 0.2847 0.4224
C2T C 1.24979(17) 0.81651(14) 0.78428(9)
C2G C 0.75021(17) 0.56651(14) 0.53428(9)
C2W C 1.24979(17) 0.43349(14) 0.46572(9)
H3T H 1.2892 0.7729 0.7805
H3G H 0.7108 0.5229 0.5305
H3W H 1.2892 0.4771 0.4695
C3T C 1.1210(2) 0.7884(2) 0.71415(11)
C3G C 0.8790(2) 0.5384(2) 0.46415(11)
C3W C 1.1210(2) 0.4616(2) 0.53585(11)
H4T H 1.0878 0.8224 0.6895
H4G H 0.9122 0.5724 0.4395
H4W H 1.0878 0.4276 0.5605
H5T H 1.1732 0.7605 0.6952
H5G H 0.8268 0.5105 0.4452
H5W H 1.1732 0.4895 0.5548
C4T C 1.0432(2) 0.73298(19) 0.73535(12)
C4G C 0.9568(2) 0.48298(19) 0.48535(12)
C4W C 1.0432(2) 0.51702(19) 0.51465(12)
H6T H 1.0779 0.6975 0.7583
H6G H 0.9221 0.4475 0.5083
H6W H 1.0779 0.5525 0.4917
H7T H 1.0158 0.7041 0.7062
H7G H 0.9842 0.4541 0.4562
H7W H 1.0158 0.5459 0.5438
Cl1 Cl 0.8750 0.3750 0.63245(4)
O5 O 0.7877(15) 0.3750(12) 0.6615(10)
O6 O 0.885(3) 0.3087(15) 0.6026(11)
O5A O 0.9623(15) 0.3750(12) 0.6615(10)
O6A O 0.865(3) 0.4413(15) 0.6026(11)
O1? O 0.9361(11) 0.4478(6) 0.6268(5)
O2? O 0.8750 0.3750 0.6856(3)
O3? O 0.9323(9) 0.3260(7) 0.6017(5)
O4? O 0.7829(9) 0.3925(10) 0.6111(7)
loop_
_geom_bond_atom_site_label_1
_geom_bond_atom_site_label_2
_geom_bond_site_symmetry_1
_geom_bond_site_symmetry_2
Cu1 N1 1_555 1_555
Cl1 O5 1_555 1_555
N1 C1 1_555 1_555
N2 N3 1_555 1_555
N3 C2 1_555 1_555
O6 Cl1 1_555 1_555
O7 Cu1 1_555 1_555
H1 O7 1_555 1_555
C1 N2 1_555 1_555
H2 C1 1_555 1_555
C2 N1 1_555 1_555
H3 C2 1_555 1_555
C3 N3 1_555 1_555
H4 C3 1_555 1_555
H5 C3 1_555 1_555
C4 C3 1_555 1_555
H6 C4 1_555 1_555
H7 C4 1_555 1_555
Cu1S N1T 1_555 1_555
Cu1P N1W 1_555 1_555
N1T C1T 1_555 1_555
N1G Cu1 1_555 1_555
N1W C1W 1_555 1_555
N1J Cu1 1_555 1_555
N1M Cu1 1_555 1_555
N2T N3T 1_555 1_555
N2G N3G 1_555 1_555
N2W N3W 1_555 1_555
N3T C2T 1_555 1_555
N3G C2G 1_555 1_555
N3W C2W 1_555 1_555
O5A Cl1 1_555 1_555
O6A Cl1 1_555 1_555
O7G Cu1 1_555 1_555
H1J O7 1_555 1_555
H1G O7G 1_555 1_555
H1M O7G 1_555 1_555
C1T N2T 1_555 1_555
C1G N1G 1_555 1_555
C1W N2W 1_555 1_555
H2T C1T 1_555 1_555
H2G C1G 1_555 1_555
H2W C1W 1_555 1_555
C2T N1T 1_555 1_555
C2G N1G 1_555 1_555
C2W N1W 1_555 1_555
H3T C2T 1_555 1_555
H3G C2G 1_555 1_555
H3W C2W 1_555 1_555
C3T N3T 1_555 1_555
C3G N3G 1_555 1_555
C3W N3W 1_555 1_555
H4T C3T 1_555 1_555
H4G C3G 1_555 1_555
H4W C3W 1_555 1_555
H5T C3T 1_555 1_555
H5G C3G 1_555 1_555
H5W C3W 1_555 1_555
C4T C4 1_555 1_555
C4G C3G 1_555 1_555
C4W C3W 1_555 1_555
H6T C4T 1_555 1_555
H6G C4G 1_555 1_555
H6W C4W 1_555 1_555
H7T C4T 1_555 1_555
H7G C4G 1_555 1_555
H7W C4W 1_555 1_555
N2G C1G 1_555 1_555
C3T C4T 1_555 1_555
C4G C4W 1_555 1_555

#END
