
#######################################################################
#
#                 Cambridge Crystallographic Data Centre
#                                CCDC 
#
#######################################################################
#
# If this CIF has been generated from an entry in the Cambridge 
# Structural Database, then it will include bibliographic, chemical, 
# crystal, experimental, refinement or atomic coordinate data resulting 
# from the CCDC's data processing and validation procedures.
#
#######################################################################

data_EBIQOX
_symmetry_cell_setting           monoclinic
_symmetry_space_group_name_H-M   'C 2/c'
_symmetry_Int_Tables_number      15
_space_group_name_Hall           '-C 2yn'
loop_
_symmetry_equiv_pos_site_id
_symmetry_equiv_pos_as_xyz
1 x,y,z
2 -x,y,1/2-z
3 1/2+x,1/2+y,z
4 1/2-x,1/2+y,1/2-z
5 -x,-y,-z
6 x,-y,1/2+z
7 1/2-x,1/2-y,-z
8 1/2+x,1/2-y,1/2+z
_cell_length_a                   22.4668(10)
_cell_length_b                   8.6151(3)
_cell_length_c                   16.9974(6)
_cell_angle_alpha                90
_cell_angle_beta                 102.055(4)
_cell_angle_gamma                90
_cell_volume                     3217.36
loop_
_atom_site_label
_atom_site_type_symbol
_atom_site_fract_x
_atom_site_fract_y
_atom_site_fract_z
C1 C 1.0665(3) -0.1306(9) 0.6697(5)
H1 H 1.0836 -0.0418 0.7003
H2 H 1.0921 -0.1600 0.6334
H3 H 1.0637 -0.2152 0.7054
C2 C 1.0053(3) -0.0919(6) 0.6234(3)
C3 C 0.9138(3) 0.0080(6) 0.5894(3)
C4 C 0.8611(3) 0.0876(8) 0.5854(4)
H4 H 0.8553 0.1541 0.6263
C5 C 0.8168(4) 0.0642(11) 0.5176(5)
H5 H 0.7814 0.1230 0.5110
C6 C 0.8219(4) -0.0406(11) 0.4592(5)
H6 H 0.7893 -0.0565 0.4163
C7 C 0.8761(4) -0.1247(10) 0.4634(4)
H7 H 0.8811 -0.1949 0.4237
C8 C 0.9204(3) -0.0967(7) 0.5291(3)
C9 C 1.0048(3) -0.2776(7) 0.5073(4)
H8 H 1.0488 -0.2689 0.5202
H9 H 0.9913 -0.2569 0.4502
C10 C 0.9874(3) -0.4424(7) 0.5240(3)
H10 H 1.0019 -0.4648 0.5807
H11 H 0.9434 -0.4512 0.5122
C11 C 1.0914(3) 0.3861(7) 0.7473(4)
C12 C 1.1384(3) 0.5072(7) 0.7445(4)
C13 C 1.1638(4) 0.5179(10) 0.6774(5)
H12 H 1.1525 0.4474 0.6355
C14 C 1.2048(4) 0.6296(15) 0.6719(9)
H13 H 1.2209 0.6379 0.6259
C15 C 1.2229(4) 0.7328(14) 0.7360(10)
H14 H 1.2516 0.8094 0.7332
C16 C 1.1997(4) 0.7211(11) 0.7987(7)
H15 H 1.2124 0.7906 0.8407
C17 C 1.1574(3) 0.6121(9) 0.8068(5)
N1 N 0.9690(2) 0.0103(5) 0.6481(3)
N2 N 0.9790(3) -0.1585(5) 0.5527(3)
O1 O 1.0771(2) 0.2909(5) 0.6954(3)
O2 O 1.0674(2) 0.3874(6) 0.8112(3)
O3 O 1.1359(4) 0.6097(9) 0.8731(4)
H16 H 1.1111 0.5392 0.8705
Zn1 Zn 1.0000 0.17872(6) 0.7500
C1D C 0.9335(3) -0.8694(9) 0.3303(5)
H1D H 0.9164 -0.9582 0.2997
H2D H 0.9079 -0.8400 0.3666
H3D H 0.9363 -0.7848 0.2946
C2D C 0.9947(3) -0.9081(6) 0.3766(3)
C3D C 1.0862(3) -1.0080(6) 0.4106(3)
C4D C 1.1389(3) -1.0876(8) 0.4146(4)
H4D H 1.1447 -1.1541 0.3737
C5D C 1.1832(4) -1.0642(11) 0.4824(5)
H5D H 1.2186 -1.1230 0.4890
C6D C 1.1781(4) -0.9594(11) 0.5408(5)
H6D H 1.2107 -0.9435 0.5837
C7D C 1.1239(4) -0.8753(10) 0.5366(4)
H7D H 1.1189 -0.8051 0.5763
C8D C 1.0796(3) -0.9033(7) 0.4709(3)
C9D C 0.9952(3) -0.7224(7) 0.4927(4)
H8D H 0.9512 -0.7311 0.4798
H9D H 1.0087 -0.7431 0.5498
C10D C 1.0126(3) -0.5576(7) 0.4760(3)
H10D H 0.9981 -0.5352 0.4193
H11D H 1.0566 -0.5488 0.4878
C11A C 0.9086(3) 0.3861(7) 0.7527(4)
C12A C 0.8616(3) 0.5072(7) 0.7555(4)
C13A C 0.8362(4) 0.5179(10) 0.8226(5)
H12A H 0.8475 0.4474 0.8645
C14A C 0.7952(4) 0.6296(15) 0.8281(9)
H13A H 0.7791 0.6379 0.8741
C15A C 0.7771(4) 0.7328(14) 0.7640(10)
H14A H 0.7484 0.8094 0.7668
C16A C 0.8003(4) 0.7211(11) 0.7013(7)
H15A H 0.7876 0.7906 0.6593
C17A C 0.8426(3) 0.6121(9) 0.6932(5)
N1D N 1.0310(2) -1.0103(5) 0.3519(3)
N1A N 1.0310(2) 0.0103(5) 0.8519(3)
N2D N 1.0210(3) -0.8415(5) 0.4473(3)
O1A O 0.9229(2) 0.2909(5) 0.8046(3)
O2A O 0.9326(2) 0.3874(6) 0.6888(3)
O3A O 0.8641(4) 0.6097(9) 0.6269(4)
H16A H 0.8889 0.5392 0.6295
Zn1D Zn 1.0000 -1.17872(6) 0.2500
loop_
_geom_bond_atom_site_label_1
_geom_bond_atom_site_label_2
_geom_bond_site_symmetry_1
_geom_bond_site_symmetry_2
C1 H1 1_555 1_555
H2 C1 1_555 1_555
H3 C1 1_555 1_555
C2 C1 1_555 1_555
C3 C4 1_555 1_555
C4 H4 1_555 1_555
C5 C4 1_555 1_555
H5 C5 1_555 1_555
C6 C5 1_555 1_555
H6 C6 1_555 1_555
C7 C6 1_555 1_555
H7 C7 1_555 1_555
C8 C3 1_555 1_555
C9 H8 1_555 1_555
H9 C9 1_555 1_555
C10 C9 1_555 1_555
H10 C10 1_555 1_555
H11 C10 1_555 1_555
C11 C12 1_555 1_555
C12 C13 1_555 1_555
C13 H12 1_555 1_555
C14 C13 1_555 1_555
H13 C14 1_555 1_555
C15 C14 1_555 1_555
H14 C15 1_555 1_555
C16 C15 1_555 1_555
H15 C16 1_555 1_555
C17 C12 1_555 1_555
N1 C2 1_555 1_555
N2 C2 1_555 1_555
O1 C11 1_555 1_555
O2 C11 1_555 1_555
O3 C17 1_555 1_555
H16 O3 1_555 1_555
Zn1 N1 1_555 1_555
C1D H1D 1_555 1_555
H2D C1D 1_555 1_555
H3D C1D 1_555 1_555
C2D C1D 1_555 1_555
C3D C4D 1_555 1_555
C4D H4D 1_555 1_555
C5D C4D 1_555 1_555
H5D C5D 1_555 1_555
C6D C5D 1_555 1_555
H6D C6D 1_555 1_555
C7D C6D 1_555 1_555
H7D C7D 1_555 1_555
C8D C3D 1_555 1_555
C9D H8D 1_555 1_555
H9D C9D 1_555 1_555
C10D C10 1_555 1_555
H10D C10D 1_555 1_555
H11D C10D 1_555 1_555
C11A C12A 1_555 1_555
C12A C13A 1_555 1_555
C13A H12A 1_555 1_555
C14A C13A 1_555 1_555
H13A C14A 1_555 1_555
C15A C14A 1_555 1_555
H14A C15A 1_555 1_555
C16A C15A 1_555 1_555
H15A C16A 1_555 1_555
C17A C12A 1_555 1_555
N1D C2D 1_555 1_555
N1A Zn1 1_555 1_555
N2D C2D 1_555 1_555
O1A Zn1 1_555 1_555
O2A Zn1 1_555 1_555
O3A C17A 1_555 1_555
H16A O3A 1_555 1_555
Zn1D N1D 1_555 1_555
C3 N1 1_555 1_555
C7 C8 1_555 1_555
C8 N2 1_555 1_555
C9 N2 1_555 1_555
C16 C17 1_555 1_555
O1 Zn1 1_555 1_555
O2 Zn1 1_555 1_555
C3D N1D 1_555 1_555
C7D C8D 1_555 1_555
C8D N2D 1_555 1_555
C9D C10D 1_555 1_555
C9D N2D 1_555 1_555
C11A O1A 1_555 1_555
C11A O2A 1_555 1_555
C16A C17A 1_555 1_555

#END
