
#######################################################################
#
#                 Cambridge Crystallographic Data Centre
#                                CCDC 
#
#######################################################################
#
# If this CIF has been generated from an entry in the Cambridge 
# Structural Database, then it will include bibliographic, chemical, 
# crystal, experimental, refinement or atomic coordinate data resulting 
# from the CCDC's data processing and validation procedures.
#
#######################################################################

data_EBIQEN
_symmetry_cell_setting           monoclinic
_symmetry_space_group_name_H-M   'P 21/n'
_symmetry_Int_Tables_number      14
_space_group_name_Hall           '-P 2yn'
loop_
_symmetry_equiv_pos_site_id
_symmetry_equiv_pos_as_xyz
1 x,y,z
2 1/2-x,1/2+y,1/2-z
3 -x,-y,-z
4 1/2+x,1/2-y,1/2+z
_cell_length_a                   13.7837(18)
_cell_length_b                   7.1911(10)
_cell_length_c                   16.257(2)
_cell_angle_alpha                90
_cell_angle_beta                 96.810(2)
_cell_angle_gamma                90
_cell_volume                     1600.02
loop_
_atom_site_label
_atom_site_type_symbol
_atom_site_fract_x
_atom_site_fract_y
_atom_site_fract_z
Zn1 Zn 0.34753(3) 0.32031(6) 0.15409(2)
P1 P 0.12769(6) 0.44037(13) 0.08062(5)
P2 P 0.16127(6) 0.05787(13) 0.17018(5)
O1 O 0.23470(15) 0.4767(3) 0.10418(13)
O2 O 0.11267(16) 0.3467(3) -0.00761(13)
H1 H 0.0563 0.3631 -0.0286
O3 O 0.06382(15) 0.6111(3) 0.08197(13)
O4 O 0.26914(15) 0.1058(3) 0.18420(14)
O5 O 0.12356(16) -0.0434(3) 0.24041(13)
O6 O 0.14005(17) -0.0533(4) 0.08699(14)
H2 H 0.1164 -0.1547 0.0962
O7 O 0.09243(17) 0.3619(3) 0.23387(13)
H3 H 0.1420 0.4257 0.2413
N1 N 0.39765(19) 0.3106(4) 0.03230(17)
N2 N 0.49689(19) 0.2210(4) 0.17748(16)
C1 C 0.0874(2) 0.2716(5) 0.15385(19)
C2 C -0.0203(2) 0.2163(5) 0.1296(2)
H4 H -0.0595 0.3265 0.1211
H5 H -0.0425 0.1435 0.1732
H6 H -0.0258 0.1446 0.0795
C3 C 0.3482(3) 0.3577(5) -0.0394(2)
H7 H 0.2840 0.3979 -0.0400
C4 C 0.3885(3) 0.3498(6) -0.1145(2)
H8 H 0.3513 0.3850 -0.1635
C5 C 0.4822(3) 0.2904(5) -0.1158(2)
H9 H 0.5095 0.2841 -0.1654
C6 C 0.5367(3) 0.2387(5) -0.0410(2)
C7 C 0.6367(3) 0.1780(5) -0.0355(2)
H10 H 0.6671 0.1688 -0.0835
C8 C 0.6871(3) 0.1345(6) 0.0384(2)
H11 H 0.7516 0.0948 0.0405
C9 C 0.6431(2) 0.1483(5) 0.1131(2)
C10 C 0.6917(3) 0.1101(6) 0.1926(2)
H12 H 0.7567 0.0725 0.1986
C11 C 0.6434(3) 0.1281(6) 0.2608(2)
H13 H 0.6751 0.1028 0.3133
C12 C 0.5459(3) 0.1849(6) 0.2511(2)
H14 H 0.5139 0.1979 0.2981
C13 C 0.5448(2) 0.2033(5) 0.1098(2)
C14 C 0.4907(2) 0.2512(5) 0.0313(2)
Zn1A Zn 0.15247(3) -0.17969(6) 0.34591(2)
O5A O 0.37644(16) 0.4566(3) 0.25959(13)
loop_
_geom_bond_atom_site_label_1
_geom_bond_atom_site_label_2
_geom_bond_site_symmetry_1
_geom_bond_site_symmetry_2
Zn1 O1 1_555 1_555
P1 O1 1_555 1_555
P2 O4 1_555 1_555
O2 P1 1_555 1_555
H1 O2 1_555 1_555
O3 P1 1_555 1_555
O4 Zn1 1_555 1_555
O5 P2 1_555 1_555
O6 P2 1_555 1_555
H2 O6 1_555 1_555
O7 H3 1_555 1_555
N1 Zn1 1_555 1_555
N2 Zn1 1_555 1_555
C1 P1 1_555 1_555
C2 C1 1_555 1_555
H4 C2 1_555 1_555
H5 C2 1_555 1_555
H6 C2 1_555 1_555
C3 N1 1_555 1_555
H7 C3 1_555 1_555
C4 C3 1_555 1_555
H8 C4 1_555 1_555
C5 C4 1_555 1_555
H9 C5 1_555 1_555
C6 C5 1_555 1_555
C7 C6 1_555 1_555
H10 C7 1_555 1_555
C8 C7 1_555 1_555
H11 C8 1_555 1_555
C9 C8 1_555 1_555
C10 C9 1_555 1_555
H12 C10 1_555 1_555
C11 C10 1_555 1_555
H13 C11 1_555 1_555
C12 N2 1_555 1_555
H14 C12 1_555 1_555
C13 N2 1_555 1_555
C14 N1 1_555 1_555
Zn1A O5 1_555 1_555
O5A Zn1 1_555 1_555
P2 C1 1_555 1_555
O7 C1 1_555 1_555
C6 C14 1_555 1_555
C9 C13 1_555 1_555
C11 C12 1_555 1_555
C13 C14 1_555 1_555

#END
