
#######################################################################
#
#                 Cambridge Crystallographic Data Centre
#                                CCDC 
#
#######################################################################
#
# If this CIF has been generated from an entry in the Cambridge 
# Structural Database, then it will include bibliographic, chemical, 
# crystal, experimental, refinement or atomic coordinate data resulting 
# from the CCDC's data processing and validation procedures.
#
#######################################################################

data_EBIQUD
_symmetry_cell_setting           orthorhombic
_symmetry_space_group_name_H-M   'P c c a'
_symmetry_Int_Tables_number      54
_space_group_name_Hall           '-P 2a 2ac'
loop_
_symmetry_equiv_pos_site_id
_symmetry_equiv_pos_as_xyz
1 x,y,z
2 1/2-x,-y,z
3 1/2+x,-y,1/2-z
4 -x,y,1/2-z
5 -x,-y,-z
6 1/2+x,y,-z
7 1/2-x,y,1/2+z
8 x,-y,1/2+z
_cell_length_a                   18.6361(5)
_cell_length_b                   13.5949(9)
_cell_length_c                   12.7863(6)
_cell_angle_alpha                90
_cell_angle_beta                 90
_cell_angle_gamma                90
_cell_volume                     3239.48
loop_
_atom_site_label
_atom_site_type_symbol
_atom_site_fract_x
_atom_site_fract_y
_atom_site_fract_z
Zn1 Zn 1.0000 0.16128(3) 0.2500
C1 C 0.88930(16) 0.0223(2) 0.2544(3)
C2 C 0.84446(18) -0.0533(2) 0.1969(2)
C3 C 0.80466(17) -0.1208(2) 0.2522(3)
H1 H 0.8033 -0.1170 0.3248
C4 C 0.7672(2) -0.1931(2) 0.2023(3)
H2 H 0.7409 -0.2392 0.2400
C5 C 0.76926(18) -0.1960(2) 0.0944(3)
C6 C 0.80660(18) -0.1291(2) 0.0370(3)
H3 H 0.8064 -0.1318 -0.0357
C7 C 0.84456(19) -0.0574(2) 0.0887(3)
H4 H 0.8705 -0.0112 0.0507
C8 C 0.9724(2) 0.1536(3) -0.0187(3)
H5 H 0.9638 0.1046 0.0339
H6 H 0.9980 0.1246 -0.0761
H7 H 0.9274 0.1791 -0.0432
C9 C 1.0156(2) 0.2347(2) 0.0265(3)
C10 C 1.07211(16) 0.3302(2) 0.1348(2)
C11 C 1.10407(17) 0.3734(2) 0.2198(2)
H8 H 1.0970 0.3489 0.2869
C12 C 1.1469(2) 0.4544(2) 0.2026(3)
H9 H 1.1695 0.4842 0.2592
C13 C 1.1573(2) 0.4925(3) 0.1041(3)
H10 H 1.1858 0.5481 0.0957
C14 C 1.08381(19) 0.3675(2) 0.0350(3)
C15 C 1.1265(2) 0.4500(2) 0.0180(3)
H11 H 1.1337 0.4752 -0.0489
C16 C 1.0516(2) 0.3075(3) -0.1522(3)
H12 H 1.0980 0.3310 -0.1758
H13 H 1.0431 0.2427 -0.1816
C17 C 0.9957(3) 0.3744(3) -0.1820(3)
H14 H 1.0036 0.4395 -0.1530
H15 H 0.9489 0.3507 -0.1603
N1 N 0.7291(2) -0.2735(2) 0.0402(3)
N2 N 1.02812(13) 0.24771(17) 0.12797(19)
N3 N 1.04842(18) 0.3042(2) -0.0314(2)
O1 O 0.89422(15) 0.01953(16) 0.34958(18)
O2 O 0.92130(13) 0.08466(16) 0.19618(16)
O3 O 0.7103(2) -0.3443(2) 0.0905(2)
O4 O 0.7217(2) -0.2678(2) -0.0528(3)
Zn1_2 Zn 1.0000 0.16128(3) -0.7500
C1C C 1.11070(16) 0.0223(2) 0.2456(3)
C2C C 1.15554(18) -0.0533(2) 0.3031(2)
C3C C 1.19534(17) -0.1208(2) 0.2478(3)
H1C H 1.1967 -0.1170 0.1752
C4C C 1.2328(2) -0.1931(2) 0.2977(3)
H2C H 1.2591 -0.2392 0.2600
C5C C 1.23074(18) -0.1960(2) 0.4056(3)
C6C C 1.19340(18) -0.1291(2) 0.4630(3)
H3C H 1.1936 -0.1318 0.5357
C7C C 1.15544(19) -0.0574(2) 0.4113(3)
H4C H 1.1295 -0.0112 0.4493
C8C C 1.0276(2) 0.1536(3) -0.4813(3)
H5C H 1.0362 0.1046 -0.5339
H6C H 1.0020 0.1246 -0.4239
H7C H 1.0726 0.1791 -0.4568
C9C C 0.9844(2) 0.2347(2) -0.5265(3)
C10C C 0.92789(16) 0.3302(2) -0.6348(2)
C11C C 0.89593(17) 0.3734(2) -0.7198(2)
H8C H 0.9030 0.3489 -0.7869
C12C C 0.8531(2) 0.4544(2) -0.7026(3)
H9C H 0.8305 0.4842 -0.7592
C13C C 0.8427(2) 0.4925(3) -0.6041(3)
H10C H 0.8142 0.5481 -0.5957
C14C C 0.91619(19) 0.3675(2) -0.5350(3)
C15C C 0.8735(2) 0.4500(2) -0.5180(3)
H11C H 0.8663 0.4752 -0.4511
C16C C 0.9484(2) 0.3075(3) -0.3478(3)
H12C H 0.9020 0.3310 -0.3242
H13C H 0.9569 0.2427 -0.3184
C17C C 1.0043(3) 0.3744(3) -0.3180(3)
H14C H 0.9964 0.4395 -0.3470
H15C H 1.0511 0.3507 -0.3397
N1C N 1.2709(2) -0.2735(2) 0.4598(3)
N2C N 0.97188(13) 0.24771(17) -0.62797(19)
N2C_2 N 0.97188(13) 0.24771(17) 0.37203(19)
N3C N 0.95158(18) 0.3042(2) -0.4686(2)
O1C O 1.10578(15) 0.01953(16) 0.15042(18)
O2C O 1.07870(13) 0.08466(16) 0.30382(16)
O3C O 1.2897(2) -0.3443(2) 0.4095(2)
O4C O 1.2783(2) -0.2678(2) 0.5528(3)
loop_
_geom_bond_atom_site_label_1
_geom_bond_atom_site_label_2
_geom_bond_site_symmetry_1
_geom_bond_site_symmetry_2
Zn1 N2 1_555 1_555
C1 C2 1_555 1_555
C2 C3 1_555 1_555
C3 H1 1_555 1_555
C4 C3 1_555 1_555
H2 C4 1_555 1_555
C5 C4 1_555 1_555
C6 C5 1_555 1_555
H3 C6 1_555 1_555
C7 C2 1_555 1_555
H4 C7 1_555 1_555
C8 H5 1_555 1_555
H6 C8 1_555 1_555
H7 C8 1_555 1_555
C9 C8 1_555 1_555
C10 C11 1_555 1_555
C11 H8 1_555 1_555
C12 C11 1_555 1_555
H9 C12 1_555 1_555
C13 C12 1_555 1_555
H10 C13 1_555 1_555
C14 C10 1_555 1_555
C15 C13 1_555 1_555
H11 C15 1_555 1_555
C16 H12 1_555 1_555
H13 C16 1_555 1_555
C17 C16 1_555 1_555
H14 C17 1_555 1_555
H15 C17 1_555 1_555
N1 C5 1_555 1_555
N2 C9 1_555 1_555
N3 C9 1_555 1_555
O1 C1 1_555 1_555
O2 Zn1 1_555 1_555
O3 N1 1_555 1_555
O4 N1 1_555 1_555
Zn1_2 N2C 1_555 1_555
C1C C2C 1_555 1_555
C2C C3C 1_555 1_555
C3C H1C 1_555 1_555
C4C C3C 1_555 1_555
H2C C4C 1_555 1_555
C5C C4C 1_555 1_555
C6C C5C 1_555 1_555
H3C C6C 1_555 1_555
C7C C2C 1_555 1_555
H4C C7C 1_555 1_555
C8C H5C 1_555 1_555
H6C C8C 1_555 1_555
H7C C8C 1_555 1_555
C9C C8C 1_555 1_555
C10C C11C 1_555 1_555
C11C H8C 1_555 1_555
C12C C11C 1_555 1_555
H9C C12C 1_555 1_555
C13C C12C 1_555 1_555
H10C C13C 1_555 1_555
C14C C10C 1_555 1_555
C15C C13C 1_555 1_555
H11C C15C 1_555 1_555
C16C H12C 1_555 1_555
H13C C16C 1_555 1_555
C17C C17 1_555 1_555
H14C C17C 1_555 1_555
H15C C17C 1_555 1_555
N1C C5C 1_555 1_555
N2C C9C 1_555 1_555
N2C_2 Zn1 1_555 1_555
N3C C9C 1_555 1_555
O1C C1C 1_555 1_555
O2C Zn1 1_555 1_555
O3C N1C 1_555 1_555
O4C N1C 1_555 1_555
C1 O2 1_555 1_555
C6 C7 1_555 1_555
C10 N2 1_555 1_555
C14 C15 1_555 1_555
C14 N3 1_555 1_555
C16 N3 1_555 1_555
C1C O2C 1_555 1_555
C6C C7C 1_555 1_555
C10C N2C 1_555 1_555
C14C C15C 1_555 1_555
C14C N3C 1_555 1_555
C16C C17C 1_555 1_555
C16C N3C 1_555 1_555

#END
