
#######################################################################
#
#                 Cambridge Crystallographic Data Centre
#                                CCDC 
#
#######################################################################
#
# If this CIF has been generated from an entry in the Cambridge 
# Structural Database, then it will include bibliographic, chemical, 
# crystal, experimental, refinement or atomic coordinate data resulting 
# from the CCDC's data processing and validation procedures.
#
#######################################################################

data_EBIQIR
_symmetry_cell_setting           monoclinic
_symmetry_space_group_name_H-M   'C 2/c'
_symmetry_Int_Tables_number      15
_space_group_name_Hall           '-C 2yn'
loop_
_symmetry_equiv_pos_site_id
_symmetry_equiv_pos_as_xyz
1 x,y,z
2 -x,y,1/2-z
3 1/2+x,1/2+y,z
4 1/2-x,1/2+y,1/2-z
5 -x,-y,-z
6 x,-y,1/2+z
7 1/2-x,1/2-y,-z
8 1/2+x,1/2-y,1/2+z
_cell_length_a                   22.5556(7)
_cell_length_b                   8.7941(2)
_cell_length_c                   16.2863(4)
_cell_angle_alpha                90
_cell_angle_beta                 100.318(3)
_cell_angle_gamma                90
_cell_volume                     3178.25
loop_
_atom_site_label
_atom_site_type_symbol
_atom_site_fract_x
_atom_site_fract_y
_atom_site_fract_z
C1 C 0.5669(3) -0.1255(8) 0.1637(4)
H1 H 0.5720 -0.0899 0.2203
H2 H 0.5955 -0.0759 0.1357
H3 H 0.5732 -0.2334 0.1636
C2 C 0.5058(2) -0.0909(5) 0.1207(3)
C3 C 0.4209(2) -0.1038(5) 0.0294(3)
C4 C 0.4166(2) 0.0068(5) 0.0897(3)
C5 C 0.3742(3) -0.1340(8) -0.0358(4)
H4 H 0.3778 -0.2064 -0.0763
C6 C 0.3627(2) 0.0898(7) 0.0837(4)
H5 H 0.3582 0.1642 0.1227
C7 C 0.3223(3) -0.0521(9) -0.0381(4)
H6 H 0.2893 -0.0719 -0.0799
C8 C 0.3178(3) 0.0581(8) 0.0199(4)
H7 H 0.2822 0.1134 0.0149
C9 C 0.5036(3) -0.2807(6) 0.0043(3)
H8 H 0.5471 -0.2714 0.0148
H9 H 0.4895 -0.2645 -0.0549
C10 C 0.4869(3) -0.4405(5) 0.0266(3)
H10 H 0.4434 -0.4503 0.0175
H11 H 0.5023 -0.4593 0.0853
C11 C 0.5906(2) 0.3879(5) 0.2570(3)
C12 C 0.6364(2) 0.5103(5) 0.2526(3)
C13 C 0.6632(3) 0.5257(7) 0.1838(5)
H12 H 0.6532 0.4597 0.1388
C14 C 0.7045(4) 0.6389(10) 0.1816(7)
H13 H 0.7238 0.6449 0.1358
C15 C 0.7180(3) 0.7384(12) 0.2412(11)
H14 H 0.7443 0.8178 0.2362
C16 C 0.6921(4) 0.7242(9) 0.3133(8)
H15 H 0.7027 0.7916 0.3575
C17 C 0.6515(3) 0.6120(7) 0.3184(4)
H16 H 0.6339 0.6032 0.3656
N1 N 0.4786(2) -0.1631(4) 0.0507(3)
N2 N 0.46981(18) 0.0134(4) 0.1458(2)
O1 O 0.5810(2) 0.2914(4) 0.1994(3)
O2 O 0.5637(2) 0.3858(5) 0.3171(2)
Zn1 Zn 0.5000 0.18560(5) 0.2500
C1D C 0.4331(3) -0.8745(8) -0.1637(4)
H1D H 0.4280 -0.9101 -0.2203
H2D H 0.4045 -0.9241 -0.1357
H3D H 0.4268 -0.7666 -0.1636
C2D C 0.4942(2) -0.9091(5) -0.1207(3)
C3D C 0.5791(2) -0.8962(5) -0.0294(3)
C4D C 0.5834(2) -1.0068(5) -0.0897(3)
C5D C 0.6258(3) -0.8660(8) 0.0358(4)
H4D H 0.6222 -0.7936 0.0763
C6D C 0.6373(2) -1.0898(7) -0.0837(4)
H5D H 0.6418 -1.1642 -0.1227
C7D C 0.6777(3) -0.9479(9) 0.0381(4)
H6D H 0.7107 -0.9281 0.0799
C8D C 0.6822(3) -1.0581(8) -0.0199(4)
H7D H 0.7178 -1.1134 -0.0149
C9D C 0.4964(3) -0.7193(6) -0.0043(3)
H8D H 0.4529 -0.7286 -0.0148
H9D H 0.5105 -0.7355 0.0549
C10D C 0.5131(3) -0.5595(5) -0.0266(3)
H10D H 0.5566 -0.5497 -0.0175
H11D H 0.4977 -0.5407 -0.0853
C11A C 0.4094(2) 0.3879(5) 0.2430(3)
C12A C 0.3636(2) 0.5103(5) 0.2474(3)
C13A C 0.3368(3) 0.5257(7) 0.3162(5)
H12A H 0.3468 0.4597 0.3612
C14A C 0.2955(4) 0.6389(10) 0.3184(7)
H13A H 0.2762 0.6449 0.3642
C15A C 0.2820(3) 0.7384(12) 0.2588(11)
H14A H 0.2557 0.8178 0.2638
C16A C 0.3079(4) 0.7242(9) 0.1867(8)
H15A H 0.2973 0.7916 0.1425
C17A C 0.3485(3) 0.6120(7) 0.1816(4)
H16A H 0.3661 0.6032 0.1344
N1D N 0.5214(2) -0.8369(4) -0.0507(3)
N2D N 0.53019(18) -1.0134(4) -0.1458(2)
N2A N 0.53019(18) 0.0134(4) 0.3542(2)
O1A O 0.4190(2) 0.2914(4) 0.3006(3)
O2A O 0.4363(2) 0.3858(5) 0.1829(2)
Zn1D Zn 0.5000 -1.18560(5) -0.2500
loop_
_geom_bond_atom_site_label_1
_geom_bond_atom_site_label_2
_geom_bond_site_symmetry_1
_geom_bond_site_symmetry_2
C1 H1 1_555 1_555
H2 C1 1_555 1_555
H3 C1 1_555 1_555
C2 C1 1_555 1_555
C3 C4 1_555 1_555
C4 C6 1_555 1_555
C5 C3 1_555 1_555
H4 C5 1_555 1_555
C6 H5 1_555 1_555
C7 C5 1_555 1_555
H6 C7 1_555 1_555
C8 C6 1_555 1_555
H7 C8 1_555 1_555
C9 H8 1_555 1_555
H9 C9 1_555 1_555
C10 C9 1_555 1_555
H10 C10 1_555 1_555
H11 C10 1_555 1_555
C11 C12 1_555 1_555
C12 C13 1_555 1_555
C13 H12 1_555 1_555
C14 C13 1_555 1_555
H13 C14 1_555 1_555
C15 C14 1_555 1_555
H14 C15 1_555 1_555
C16 C15 1_555 1_555
H15 C16 1_555 1_555
C17 C12 1_555 1_555
H16 C17 1_555 1_555
N1 C2 1_555 1_555
N2 C2 1_555 1_555
O1 C11 1_555 1_555
O2 C11 1_555 1_555
Zn1 N2 1_555 1_555
C1D H1D 1_555 1_555
H2D C1D 1_555 1_555
H3D C1D 1_555 1_555
C2D C1D 1_555 1_555
C3D C4D 1_555 1_555
C4D C6D 1_555 1_555
C5D C3D 1_555 1_555
H4D C5D 1_555 1_555
C6D H5D 1_555 1_555
C7D C5D 1_555 1_555
H6D C7D 1_555 1_555
C8D C6D 1_555 1_555
H7D C8D 1_555 1_555
C9D H8D 1_555 1_555
H9D C9D 1_555 1_555
C10D C10 1_555 1_555
H10D C10D 1_555 1_555
H11D C10D 1_555 1_555
C11A C12A 1_555 1_555
C12A C13A 1_555 1_555
C13A H12A 1_555 1_555
C14A C13A 1_555 1_555
H13A C14A 1_555 1_555
C15A C14A 1_555 1_555
H14A C15A 1_555 1_555
C16A C15A 1_555 1_555
H15A C16A 1_555 1_555
C17A C12A 1_555 1_555
H16A C17A 1_555 1_555
N1D C2D 1_555 1_555
N2D C2D 1_555 1_555
N2A Zn1 1_555 1_555
O1A Zn1 1_555 1_555
O2A Zn1 1_555 1_555
Zn1D N2D 1_555 1_555
C3 N1 1_555 1_555
C4 N2 1_555 1_555
C7 C8 1_555 1_555
C9 N1 1_555 1_555
C16 C17 1_555 1_555
O1 Zn1 1_555 1_555
O2 Zn1 1_555 1_555
C3D N1D 1_555 1_555
C4D N2D 1_555 1_555
C7D C8D 1_555 1_555
C9D C10D 1_555 1_555
C9D N1D 1_555 1_555
C11A O1A 1_555 1_555
C11A O2A 1_555 1_555
C16A C17A 1_555 1_555

#END
