
#######################################################################
#
#                 Cambridge Crystallographic Data Centre
#                                CCDC 
#
#######################################################################
#
# If this CIF has been generated from an entry in the Cambridge 
# Structural Database, then it will include bibliographic, chemical, 
# crystal, experimental, refinement or atomic coordinate data resulting 
# from the CCDC's data processing and validation procedures.
#
#######################################################################

data_EBIQAJ
_symmetry_cell_setting           orthorhombic
_symmetry_space_group_name_H-M   'P n n a'
_symmetry_Int_Tables_number      52
_space_group_name_Hall           '-P 2a 2bc'
loop_
_symmetry_equiv_pos_site_id
_symmetry_equiv_pos_as_xyz
1 x,y,z
2 1/2-x,-y,z
3 1/2-x,1/2+y,1/2-z
4 x,1/2-y,1/2-z
5 -x,-y,-z
6 1/2+x,y,-z
7 1/2+x,1/2-y,1/2+z
8 -x,1/2+y,1/2+z
_cell_length_a                   7.5131(7)
_cell_length_b                   18.2935(18)
_cell_length_c                   18.7247(18)
_cell_angle_alpha                90
_cell_angle_beta                 90
_cell_angle_gamma                90
_cell_volume                     2573.54
loop_
_atom_site_label
_atom_site_type_symbol
_atom_site_fract_x
_atom_site_fract_y
_atom_site_fract_z
Zn1 Zn 0.7500 0.0000 0.27772(2)
Zn2 Zn 0.60265(6) -0.2500 0.2500
P1 P 0.71886(9) -0.12843(3) 0.15118(3)
P2 P 0.40246(8) -0.09941(3) 0.24440(4)
O1 O 0.7413(3) -0.20674(9) 0.17418(11)
O2 O 0.7785(3) -0.12517(11) 0.07098(10)
H1 H 0.7606 -0.0823 0.0549
O3 O 0.8153(2) -0.07216(9) 0.19491(10)
O4 O 0.4732(2) -0.02857(9) 0.27484(9)
O5 O 0.4598(3) -0.16816(10) 0.28232(10)
O6 O 0.1953(2) -0.09787(11) 0.24246(12)
H2 H 0.1592 -0.0553 0.2536
O7 O 0.4687(3) -0.03163(9) 0.11988(10)
N1 N 0.8145(3) -0.06896(13) 0.36500(12)
C1 C 0.4815(3) -0.10385(12) 0.15161(13)
C2 C 0.3703(4) -0.15676(16) 0.10661(16)
H4 H 0.4154 -0.1577 0.0586
H5 H 0.3771 -0.2049 0.1268
H6 H 0.2485 -0.1408 0.1061
C3 C 0.7850(4) -0.03633(18) 0.42915(15)
C4 C 0.8814(4) -0.13597(16) 0.3640(2)
H7 H 0.9021 -0.1589 0.3187
C5 C 0.9217(6) -0.1744(2) 0.4266(2)
H8 H 0.9713 -0.2227 0.4242
C6 C 0.8920(5) -0.1426(3) 0.4907(2)
H9 H 0.9191 -0.1686 0.5339
C7 C 0.8213(5) -0.0720(2) 0.49440(17)
C8 C 0.7832(6) -0.0335(3) 0.55920(18)
H10 H 0.8141 -0.0641 0.5990
Zn2A Zn 0.89735(6) 0.2500 0.2500
P1A P 0.78114(9) 0.12843(3) 0.15118(3)
P2A P 1.09754(8) 0.09941(3) 0.24440(4)
O1A O 0.7587(3) 0.20674(9) 0.17418(11)
O1C O 0.7413(3) -0.29326(9) 0.32582(11)
O2A O 0.7215(3) 0.12517(11) 0.07098(10)
H1A H 0.7394 0.0823 0.0549
O3A O 0.6847(2) 0.07216(9) 0.19491(10)
O4A O 1.0268(2) 0.02857(9) 0.27484(9)
O5A O 1.0402(3) 0.16816(10) 0.28232(10)
O5C O 0.4598(3) -0.33184(10) 0.21768(10)
O6A O 1.3047(2) 0.09787(11) 0.24246(12)
H2A H 1.3408 0.0553 0.2536
O7A O 1.0313(3) 0.03163(9) 0.11988(10)
N1A N 0.6855(3) 0.06896(13) 0.36500(12)
C1A C 1.0185(3) 0.10385(12) 0.15161(13)
C2A C 1.1297(4) 0.15676(16) 0.10661(16)
H4A H 1.0846 0.1577 0.0586
H5A H 1.1229 0.2049 0.1268
H6A H 1.2515 0.1408 0.1061
C3A C 0.7150(4) 0.03633(18) 0.42915(15)
C4A C 0.6186(4) 0.13597(16) 0.3640(2)
H7A H 0.5979 0.1589 0.3187
C5A C 0.5783(6) 0.1744(2) 0.4266(2)
H8A H 0.5287 0.2227 0.4242
C6A C 0.6080(5) 0.1426(3) 0.4907(2)
H9A H 0.5809 0.1686 0.5339
C7A C 0.6787(5) 0.0720(2) 0.49440(17)
C8A C 0.7168(6) 0.0335(3) 0.55920(18)
H10A H 0.6859 0.0641 0.5990
O8 O 0.2500 1.0000 0.00682(14)
H3 H 0.2913 1.0288 0.0383
H3A H 0.2087 0.9712 0.0383
loop_
_geom_bond_atom_site_label_1
_geom_bond_atom_site_label_2
_geom_bond_site_symmetry_1
_geom_bond_site_symmetry_2
Zn1 O3 1_555 1_555
Zn2 O1 1_555 1_555
P1 O1 1_555 1_555
P2 O4 1_555 1_555
O2 P1 1_555 1_555
H1 O2 1_555 1_555
O3 P1 1_555 1_555
O4 Zn1 1_555 1_555
O5 Zn2 1_555 1_555
O6 P2 1_555 1_555
H2 O6 1_555 1_555
O7 C1 1_555 1_555
O8 H3 1_555 1_555
N1 Zn1 1_555 1_555
C1 P1 1_555 1_555
C2 C1 1_555 1_555
H4 C2 1_555 1_555
H5 C2 1_555 1_555
H6 C2 1_555 1_555
C3 N1 1_555 1_555
C4 N1 1_555 1_555
H7 C4 1_555 1_555
C5 C4 1_555 1_555
H8 C5 1_555 1_555
C6 C5 1_555 1_555
H9 C6 1_555 1_555
C7 C3 1_555 1_555
C8 C7 1_555 1_555
H10 C8 1_555 1_555
Zn2A O1A 1_555 1_555
P1A O1A 1_555 1_555
P2A O4A 1_555 1_555
O1C Zn2 1_555 1_555
O2A P1A 1_555 1_555
H1A O2A 1_555 1_555
O3A Zn1 1_555 1_555
O4A Zn1 1_555 1_555
O5A Zn2A 1_555 1_555
O5C Zn2 1_555 1_555
O6A P2A 1_555 1_555
H2A O6A 1_555 1_555
O7A C1A 1_555 1_555
H3A O8 1_555 1_555
N1A Zn1 1_555 1_555
C1A P1A 1_555 1_555
C2A C1A 1_555 1_555
H4A C2A 1_555 1_555
H5A C2A 1_555 1_555
H6A C2A 1_555 1_555
C3A C3 1_555 1_555
C4A N1A 1_555 1_555
H7A C4A 1_555 1_555
C5A C4A 1_555 1_555
H8A C5A 1_555 1_555
C6A C5A 1_555 1_555
H9A C6A 1_555 1_555
C7A C3A 1_555 1_555
C8A C8 1_555 1_555
H10A C8A 1_555 1_555
P2 O5 1_555 1_555
P2 C1 1_555 1_555
C6 C7 1_555 1_555
P1A O3A 1_555 1_555
P2A O5A 1_555 1_555
P2A C1A 1_555 1_555
N1A C3A 1_555 1_555
C6A C7A 1_555 1_555
C7A C8A 1_555 1_555

#END
