
#######################################################################
#
#                 Cambridge Crystallographic Data Centre
#                                CCDC 
#
#######################################################################
#
# If this CIF has been generated from an entry in the Cambridge 
# Structural Database, then it will include bibliographic, chemical, 
# crystal, experimental, refinement or atomic coordinate data resulting 
# from the CCDC's data processing and validation procedures.
#
#######################################################################

data_EBIROY
_symmetry_cell_setting           triclinic
_symmetry_space_group_name_H-M   'P -1'
_symmetry_Int_Tables_number      2
_space_group_name_Hall           '-P 1'
loop_
_symmetry_equiv_pos_site_id
_symmetry_equiv_pos_as_xyz
1 x,y,z
2 -x,-y,-z
_cell_length_a                   8.7123(5)
_cell_length_b                   9.9185(5)
_cell_length_c                   11.6794(9)
_cell_angle_alpha                69.257(6)
_cell_angle_beta                 70.439(6)
_cell_angle_gamma                65.820(6)
_cell_volume                     839.457
loop_
_atom_site_label
_atom_site_type_symbol
_atom_site_fract_x
_atom_site_fract_y
_atom_site_fract_z
Zn1 Zn 0.64925(6) 0.09038(5) -0.44882(5)
C1 C 0.1923(11) 0.6729(8) -0.3873(8)
C2 C 0.1261(9) 0.5477(7) -0.3651(6)
C3 C -0.0314(11) 0.5487(9) -0.2849(7)
H1 H -0.0908 0.6253 -0.2424
C4 C -0.1035(11) 0.4412(8) -0.2654(8)
H2 H -0.2124 0.4468 -0.2136
C5 C -0.0108(10) 0.3233(8) -0.3247(7)
H3 H -0.0571 0.2480 -0.3108
C6 C 0.1512(8) 0.3162(7) -0.4050(6)
C7 C 0.2138(9) 0.4314(7) -0.4240(6)
H4 H 0.3198 0.4300 -0.4791
C8 C 0.2505(9) 0.1912(7) -0.4690(6)
C9 C 0.4768(10) 0.3337(8) -0.2355(8)
H5 H 0.5519 0.3546 -0.3125
C10 C 0.4344(8) 0.2029(7) -0.1926(7)
C11 C 0.2461(13) 0.2714(12) -0.0026(9)
H6 H 0.1688 0.2521 0.0735
C12 C 0.4116(9) -0.0199(8) -0.1694(7)
C13 C 0.3239(9) 0.1689(8) -0.0778(7)
C14 C 0.2140(10) -0.0498(10) 0.0471(7)
H7 H 0.2311 -0.0410 0.1217
H8 H 0.2563 -0.1573 0.0490
C15 C 0.4343(11) -0.1625(9) -0.1893(8)
H9 H 0.5275 -0.1823 -0.2605
H10 H 0.3300 -0.1570 -0.2047
H11 H 0.4604 -0.2434 -0.1161
C16 C 0.2891(15) 0.4039(10) -0.0463(10)
H12 H 0.2402 0.4749 0.0016
C17 C 0.4030(12) 0.4320(10) -0.1595(10)
H13 H 0.4307 0.5209 -0.1851
C18 C 0.0234(11) 0.0150(11) 0.0482(8)
H14 H -0.0389 -0.0272 0.1302
H15 H -0.0145 0.1247 0.0366
N1 N 0.4876(7) 0.0806(7) -0.2486(5)
N2 N 0.3124(8) 0.0301(7) -0.0644(6)
O1 O 0.1241(8) 0.7633(6) -0.3180(7)
O2 O 0.3214(8) 0.6819(6) -0.4813(6)
O3 O 0.4064(6) 0.1729(5) -0.5272(5)
O4 O 0.1785(6) 0.1012(5) -0.4639(5)
O5 O 0.8793(7) 0.0293(6) -0.3546(6)
H16 H 0.946(8) -0.060(5) -0.365(10)
H17 H 0.939(8) 0.087(7) -0.368(9)
Zn1A Zn -0.64925(6) -0.09038(5) 0.44882(5)
Zn1A_2 Zn 0.35075(6) 0.90962(5) -0.55118(5)
Zn1A_3 Zn 0.35075(6) -0.09038(5) -0.55118(5)
Zn1_2 Zn -0.35075(6) 0.09038(5) 0.55118(5)
Zn1_3 Zn -0.35075(6) -0.90962(5) 0.55118(5)
C1A C -0.1923(11) -0.6729(8) 0.3873(8)
C2A C -0.1261(9) -0.5477(7) 0.3651(6)
C3A C 0.0314(11) -0.5487(9) 0.2849(7)
H1A H 0.0908 -0.6253 0.2424
C4A C 0.1035(11) -0.4412(8) 0.2654(8)
H2A H 0.2124 -0.4468 0.2136
C5A C 0.0108(10) -0.3233(8) 0.3247(7)
H3A H 0.0571 -0.2480 0.3108
C6A C -0.1512(8) -0.3162(7) 0.4050(6)
C7A C -0.2138(9) -0.4314(7) 0.4240(6)
H4A H -0.3198 -0.4300 0.4791
C8A C -0.2505(9) -0.1912(7) 0.4690(6)
C9A C -0.4768(10) -0.3337(8) 0.2355(8)
H5A H -0.5519 -0.3546 0.3125
C10A C -0.4344(8) -0.2029(7) 0.1926(7)
C11A C -0.2461(13) -0.2714(12) 0.0026(9)
H6A H -0.1688 -0.2521 -0.0735
C12A C -0.4116(9) 0.0199(8) 0.1694(7)
C13A C -0.3239(9) -0.1689(8) 0.0778(7)
C14A C -0.2140(10) 0.0498(10) -0.0471(7)
H7A H -0.2311 0.0410 -0.1217
H8A H -0.2563 0.1573 -0.0490
C15A C -0.4343(11) 0.1625(9) 0.1893(8)
H9A H -0.5275 0.1823 0.2605
H10A H -0.3300 0.1570 0.2047
H11A H -0.4604 0.2434 0.1161
C16A C -0.2891(15) -0.4039(10) 0.0463(10)
H12A H -0.2402 -0.4749 -0.0016
C17A C -0.4030(12) -0.4320(10) 0.1595(10)
H13A H -0.4307 -0.5209 0.1851
C18A C -0.0234(11) -0.0150(11) -0.0482(8)
H14A H 0.0389 0.0272 -0.1302
H15A H 0.0145 -0.1247 -0.0366
N1A N -0.4876(7) -0.0806(7) 0.2486(5)
N2A N -0.3124(8) -0.0301(7) 0.0644(6)
O1A O -0.1241(8) -0.7633(6) 0.3180(7)
O2A O 0.6786(8) 0.3181(6) -0.5187(6)
O2_2 O -0.6786(8) -0.3181(6) 0.5187(6)
O2A_2 O -0.3214(8) -0.6819(6) 0.4813(6)
O3A O -0.4064(6) -0.1729(5) 0.5272(5)
O4A O 0.8215(6) -0.1012(5) -0.5361(5)
O4_2 O -0.8215(6) 0.1012(5) 0.5361(5)
O4A_2 O -0.1785(6) -0.1012(5) 0.4639(5)
O5A O -0.8793(7) -0.0293(6) 0.3546(6)
H16A H -0.946(8) 0.060(5) 0.365(10)
H17A H -0.939(8) -0.087(7) 0.368(9)
loop_
_geom_bond_atom_site_label_1
_geom_bond_atom_site_label_2
_geom_bond_site_symmetry_1
_geom_bond_site_symmetry_2
Zn1 N1 1_555 1_555
C1 C2 1_555 1_555
C2 C3 1_555 1_555
C3 H1 1_555 1_555
C4 C3 1_555 1_555
H2 C4 1_555 1_555
C5 C4 1_555 1_555
H3 C5 1_555 1_555
C6 C5 1_555 1_555
C7 C2 1_555 1_555
H4 C7 1_555 1_555
C8 C6 1_555 1_555
C9 H5 1_555 1_555
C10 C9 1_555 1_555
C11 H6 1_555 1_555
C12 C15 1_555 1_555
C13 C10 1_555 1_555
C14 H7 1_555 1_555
H8 C14 1_555 1_555
C15 H9 1_555 1_555
H10 C15 1_555 1_555
H11 C15 1_555 1_555
C16 C11 1_555 1_555
H12 C16 1_555 1_555
C17 C9 1_555 1_555
H13 C17 1_555 1_555
C18 C14 1_555 1_555
H14 C18 1_555 1_555
H15 C18 1_555 1_555
N1 C10 1_555 1_555
N2 C12 1_555 1_555
O1 C1 1_555 1_555
O2 C1 1_555 1_555
O3 Zn1 1_555 1_555
O4 C8 1_555 1_555
O5 Zn1 1_555 1_555
H16 O5 1_555 1_555
H17 O5 1_555 1_555
Zn1A N1A 1_555 1_555
Zn1A_2 O2 1_555 1_555
Zn1A_3 O4 1_555 1_555
Zn1_2 O4A_2 1_555 1_555
Zn1_3 O2A_2 1_555 1_555
C1A C2A 1_555 1_555
C2A C3A 1_555 1_555
C3A H1A 1_555 1_555
C4A C3A 1_555 1_555
H2A C4A 1_555 1_555
C5A C4A 1_555 1_555
H3A C5A 1_555 1_555
C6A C5A 1_555 1_555
C7A C2A 1_555 1_555
H4A C7A 1_555 1_555
C8A C6A 1_555 1_555
C9A H5A 1_555 1_555
C10A C9A 1_555 1_555
C11A H6A 1_555 1_555
C12A C15A 1_555 1_555
C13A C10A 1_555 1_555
C14A H7A 1_555 1_555
H8A C14A 1_555 1_555
C15A H9A 1_555 1_555
H10A C15A 1_555 1_555
H11A C15A 1_555 1_555
C16A C11A 1_555 1_555
H12A C16A 1_555 1_555
C17A C9A 1_555 1_555
H13A C17A 1_555 1_555
C18A C18 1_555 1_555
H14A C18A 1_555 1_555
H15A C18A 1_555 1_555
N1A C10A 1_555 1_555
N2A C12A 1_555 1_555
O1A C1A 1_555 1_555
O2A Zn1 1_555 1_555
O2_2 Zn1A 1_555 1_555
O2A_2 C1A 1_555 1_555
O3A Zn1A 1_555 1_555
O4A Zn1 1_555 1_555
O4_2 Zn1A 1_555 1_555
O4A_2 C8A 1_555 1_555
O5A Zn1A 1_555 1_555
H16A O5A 1_555 1_555
H17A O5A 1_555 1_555
C6 C7 1_555 1_555
C8 O3 1_555 1_555
C11 C13 1_555 1_555
C12 N1 1_555 1_555
C13 N2 1_555 1_555
C14 N2 1_555 1_555
C16 C17 1_555 1_555
C6A C7A 1_555 1_555
C8A O3A 1_555 1_555
C11A C13A 1_555 1_555
C12A N1A 1_555 1_555
C13A N2A 1_555 1_555
C14A C18A 1_555 1_555
C14A N2A 1_555 1_555
C16A C17A 1_555 1_555

#END
