
#######################################################################
#
#                 Cambridge Crystallographic Data Centre
#                                CCDC 
#
#######################################################################
#
# If this CIF has been generated from an entry in the Cambridge 
# Structural Database, then it will include bibliographic, chemical, 
# crystal, experimental, refinement or atomic coordinate data resulting 
# from the CCDC's data processing and validation procedures.
#
#######################################################################

data_EBIREO
_symmetry_cell_setting           triclinic
_symmetry_space_group_name_H-M   'P -1'
_symmetry_Int_Tables_number      2
_space_group_name_Hall           '-P 1'
loop_
_symmetry_equiv_pos_site_id
_symmetry_equiv_pos_as_xyz
1 x,y,z
2 -x,-y,-z
_cell_length_a                   9.800(3)
_cell_length_b                   12.756(6)
_cell_length_c                   16.818(5)
_cell_angle_alpha                71.521(3)
_cell_angle_beta                 88.204(2)
_cell_angle_gamma                70.909(5)
_cell_volume                     1878.18
loop_
_atom_site_label
_atom_site_type_symbol
_atom_site_fract_x
_atom_site_fract_y
_atom_site_fract_z
Zn1 Zn 0.50986(4) 0.26786(3) 0.78133(2)
C1 C 0.3213(8) 0.2574(6) 0.6090(4)
H1 H 0.3979 0.2105 0.5851
H2 H 0.2297 0.2697 0.5823
H3 H 0.3240 0.2176 0.6682
C2 C 0.3401(6) 0.3699(5) 0.5960(3)
C3 C 0.3260(6) 0.5541(5) 0.5364(3)
C4 C 0.4070(5) 0.5072(4) 0.6143(3)
C5 C 0.3023(6) 0.6684(5) 0.4847(4)
H4 H 0.2483 0.6984 0.4331
C6 C 0.3605(8) 0.7347(6) 0.5120(4)
H5 H 0.3465 0.8118 0.4789
C7 C 0.4423(7) 0.6880(6) 0.5902(4)
H6 H 0.4818 0.7354 0.6071
C8 C 0.4651(6) 0.5786(5) 0.6409(4)
H7 H 0.5182 0.5504 0.6927
C9 C 0.1897(6) 0.4761(6) 0.4567(3)
H8 H 0.2043 0.3987 0.4533
H9 H 0.2180 0.5214 0.4049
C10 C 0.0316(6) 0.5340(5) 0.4634(3)
H10 H -0.0217 0.5462 0.4118
H11 H 0.0177 0.6105 0.4683
C11 C 0.3941(10) 0.0138(7) 0.8879(6)
H12 H 0.4863 0.0217 0.8960
H13 H 0.3995 -0.0260 0.8474
H14 H 0.3690 -0.0307 0.9404
C12 C 0.2817(7) 0.1320(6) 0.8567(4)
C13 C 0.1724(6) 0.3184(5) 0.8022(3)
C14 C 0.1338(7) 0.4395(5) 0.7663(4)
H15 H 0.2048 0.4745 0.7528
C15 C -0.0098(8) 0.5063(7) 0.7510(4)
H16 H -0.0358 0.5874 0.7275
C16 C -0.1175(8) 0.4556(8) 0.7698(5)
H17 H -0.2142 0.5032 0.7584
C17 C -0.0829(7) 0.3342(7) 0.8056(4)
H18 H -0.1542 0.2993 0.8176
C18 C 0.0668(7) 0.2668(6) 0.8226(4)
C19 C 0.0674(10) 0.0593(7) 0.8925(4)
H19 H -0.0236 0.0814 0.8601
H20 H 0.1297 -0.0150 0.8880
C20 C 0.0398(9) 0.0443(7) 0.9820(4)
H21 H -0.0178 0.1196 0.9870
H22 H 0.1314 0.0178 1.0149
C21 C 0.7214(7) 0.1137(5) 0.7295(3)
C22 C 0.8323(7) 0.0382(5) 0.6881(3)
C23 C 0.9670(7) 0.0492(5) 0.6780(3)
H23 H 0.9906 0.1015 0.6982
C24 C 1.0661(7) -0.0156(5) 0.6388(4)
C25 C 1.0323(8) -0.0930(6) 0.6045(4)
H24 H 1.0972 -0.1335 0.5740
C26 C 0.9004(8) -0.1050(5) 0.6183(4)
C27 C 0.7987(8) -0.0415(6) 0.6591(4)
H25 H 0.7091 -0.0520 0.6671
C28 C 0.5903(7) 0.3402(6) 0.9011(4)
N1 N 0.2846(5) 0.4642(4) 0.5274(3)
N2 N 0.4137(5) 0.3928(4) 0.6505(3)
N3 N 0.3057(5) 0.2310(4) 0.8244(3)
N4 N 0.1367(6) 0.1498(5) 0.8564(3)
N5 N 1.2074(8) -0.0049(6) 0.6285(5)
N6 N 0.8613(10) -0.1838(6) 0.5845(5)
O1 O 0.6059(6) 0.0928(4) 0.7462(3)
O2 O 0.7459(5) 0.1958(4) 0.7423(3)
O3 O 0.6149(6) 0.2341(5) 0.9237(3)
O4 O 0.5305(7) 0.4109(5) 0.8332(3)
O5 O 1.2515(9) 0.0309(7) 0.6809(5)
O6 O 1.2768(8) -0.0340(6) 0.5728(5)
O7 O 0.9451(9) -0.2246(7) 0.5373(6)
O8 O 0.7528(9) -0.2097(7) 0.6057(5)
C29 C 0.6534(7) 0.3870(6) 0.9589(4)
C30 C 0.6995(13) 0.3187(7) 1.0395(6)
H26 H 0.6897 0.2449 1.0599
C31 C 0.7620(17) 0.3596(8) 1.0918(6)
C32 C 0.7767(13) 0.4637(9) 1.0659(7)
H27 H 0.8217 0.4885 1.1008
C33 C 0.7215(11) 0.5368(8) 0.9826(5)
C34 C 0.6569(9) 0.5015(7) 0.9315(4)
H28 H 0.6151 0.5527 0.8786
N7 N 0.7274(14) 0.6500(11) 0.9572(8)
N8 N 0.7879(15) 0.2802(13) 1.1816(10)
O9 O 0.8524(14) 0.3142(11) 1.2302(8)
O10 O 0.6581(15) 0.7290(11) 0.8870(8)
O11 O 0.8113(14) 0.6789(10) 0.9983(7)
O12 O 0.7563(16) 0.1956(13) 1.2105(9)
Zn1A Zn -0.50986(4) 0.73214(3) 0.21867(2)
Zn1A_2 Zn -0.50986(4) -0.26786(3) 1.21867(2)
C1A C -0.3213(8) 0.7426(6) 0.3910(4)
H1A H -0.3979 0.7895 0.4149
H2A H -0.2297 0.7303 0.4177
H3A H -0.3240 0.7824 0.3318
C2A C -0.3401(6) 0.6301(5) 0.4040(3)
C3A C -0.3260(6) 0.4459(5) 0.4636(3)
C4A C -0.4070(5) 0.4928(4) 0.3857(3)
C5A C -0.3023(6) 0.3316(5) 0.5153(4)
H4A H -0.2483 0.3016 0.5669
C6A C -0.3605(8) 0.2653(6) 0.4880(4)
H5A H -0.3465 0.1882 0.5211
C7A C -0.4423(7) 0.3120(6) 0.4098(4)
H6A H -0.4818 0.2646 0.3929
C8A C -0.4651(6) 0.4214(5) 0.3591(4)
H7A H -0.5182 0.4496 0.3073
C9A C -0.1897(6) 0.5239(6) 0.5433(3)
H8A H -0.2043 0.6013 0.5467
H9A H -0.2180 0.4786 0.5951
C10A C -0.0316(6) 0.4660(5) 0.5366(3)
H10A H 0.0217 0.4538 0.5882
H11A H -0.0177 0.3895 0.5317
C11A C -0.3941(10) -0.0138(7) 1.1121(6)
H12A H -0.4863 -0.0217 1.1040
H13A H -0.3995 0.0260 1.1526
H14A H -0.3690 0.0307 1.0596
C12A C -0.2817(7) -0.1320(6) 1.1433(4)
C13A C -0.1724(6) -0.3184(5) 1.1978(3)
C14A C -0.1338(7) -0.4395(5) 1.2337(4)
H15A H -0.2048 -0.4745 1.2472
C15A C 0.0098(8) -0.5063(7) 1.2490(4)
H16A H 0.0358 -0.5874 1.2725
C16A C 0.1175(8) -0.4556(8) 1.2302(5)
H17A H 0.2142 -0.5032 1.2416
C17A C 0.0829(7) -0.3342(7) 1.1944(4)
H18A H 0.1542 -0.2993 1.1824
C18A C -0.0668(7) -0.2668(6) 1.1774(4)
C19A C -0.0674(10) -0.0593(7) 1.1075(4)
H19A H 0.0236 -0.0814 1.1399
H20A H -0.1297 0.0150 1.1120
C20A C -0.0398(9) -0.0443(7) 1.0180(4)
H21A H 0.0178 -0.1196 1.0130
H22A H -0.1314 -0.0178 0.9851
C21A C -0.7214(7) 0.8863(5) 0.2705(3)
C22A C -0.8323(7) 0.9618(5) 0.3119(3)
C23A C -0.9670(7) 0.9508(5) 0.3220(3)
H23A H -0.9906 0.8985 0.3018
C24A C -1.0661(7) 1.0156(5) 0.3612(4)
C25A C -1.0323(8) 1.0930(6) 0.3955(4)
H24A H -1.0972 1.1335 0.4260
C26A C -0.9004(8) 1.1050(5) 0.3817(4)
C27A C -0.7987(8) 1.0415(6) 0.3409(4)
H25A H -0.7091 1.0520 0.3329
C28A C -0.5903(7) 0.6598(6) 0.0989(4)
N1A N -0.2846(5) 0.5358(4) 0.4726(3)
N2A N -0.4137(5) 0.6072(4) 0.3495(3)
N3A N -0.3057(5) -0.2310(4) 1.1756(3)
N3A_2 N -0.3057(5) 0.7690(4) 0.1756(3)
N4A N -0.1367(6) -0.1498(5) 1.1436(3)
N5A N -1.2074(8) 1.0049(6) 0.3715(5)
N6A N -0.8613(10) 1.1838(6) 0.4155(5)
O1A O -0.6059(6) 0.9072(4) 0.2538(3)
O2A O -0.7459(5) 0.8042(4) 0.2577(3)
O3A O -0.6149(6) 0.7659(5) 0.0763(3)
O4A O -0.5305(7) 0.5891(5) 0.1668(3)
O5A O -1.2515(9) 0.9691(7) 0.3191(5)
O6A O -1.2768(8) 1.0340(6) 0.4272(5)
O7A O -0.9451(9) 1.2246(7) 0.4627(6)
O8A O -0.7528(9) 1.2097(7) 0.3943(5)
C29A C -0.6534(7) 0.6130(6) 0.0411(4)
C30A C -0.6995(13) 0.6813(7) -0.0395(6)
H26A H -0.6897 0.7551 -0.0599
C31A C -0.7620(17) 0.6404(8) -0.0918(6)
C32A C -0.7767(13) 0.5363(9) -0.0659(7)
H27A H -0.8217 0.5115 -0.1008
C33A C -0.7215(11) 0.4632(8) 0.0174(5)
C34A C -0.6569(9) 0.4985(7) 0.0685(4)
H28A H -0.6151 0.4473 0.1214
N7A N -0.7274(14) 0.3500(11) 0.0428(8)
N8A N -0.7879(15) 0.7198(13) -0.1816(10)
O9A O -0.8524(14) 0.6858(11) -0.2302(8)
O10A O -0.6581(15) 0.2710(11) 0.1130(8)
O11A O -0.8113(14) 0.3211(10) 0.0017(7)
O12A O -0.7563(16) 0.8044(13) -0.2105(9)
loop_
_geom_bond_atom_site_label_1
_geom_bond_atom_site_label_2
_geom_bond_site_symmetry_1
_geom_bond_site_symmetry_2
Zn1 N2 1_555 1_555
C1 H1 1_555 1_555
H2 C1 1_555 1_555
H3 C1 1_555 1_555
C2 C1 1_555 1_555
C3 C4 1_555 1_555
C4 C8 1_555 1_555
C5 C3 1_555 1_555
H4 C5 1_555 1_555
C6 C5 1_555 1_555
H5 C6 1_555 1_555
C7 C6 1_555 1_555
H6 C7 1_555 1_555
C8 C7 1_555 1_555
H7 C8 1_555 1_555
C9 H8 1_555 1_555
H9 C9 1_555 1_555
C10 C9 1_555 1_555
H10 C10 1_555 1_555
H11 C10 1_555 1_555
C11 H12 1_555 1_555
H13 C11 1_555 1_555
H14 C11 1_555 1_555
C12 C11 1_555 1_555
C13 C14 1_555 1_555
C14 H15 1_555 1_555
C15 C14 1_555 1_555
H16 C15 1_555 1_555
C16 C15 1_555 1_555
H17 C16 1_555 1_555
C17 C16 1_555 1_555
H18 C17 1_555 1_555
C18 C13 1_555 1_555
C19 H19 1_555 1_555
H20 C19 1_555 1_555
C20 C19 1_555 1_555
H21 C20 1_555 1_555
H22 C20 1_555 1_555
C21 C22 1_555 1_555
C22 C23 1_555 1_555
C23 H23 1_555 1_555
C24 C23 1_555 1_555
C25 C24 1_555 1_555
H24 C25 1_555 1_555
C26 C25 1_555 1_555
C27 C22 1_555 1_555
H25 C27 1_555 1_555
C28 O3 1_555 1_555
N1 C2 1_555 1_555
N2 C2 1_555 1_555
N3 Zn1 1_555 1_555
N4 C12 1_555 1_555
N5 C24 1_555 1_555
N6 C26 1_555 1_555
O1 Zn1 1_555 1_555
O2 Zn1 1_555 1_555
O3 Zn1 1_555 1_555
O4 Zn1 1_555 1_555
O5 N5 1_555 1_555
O6 N5 1_555 1_555
O7 N6 1_555 1_555
O8 N6 1_555 1_555
C29 C28 1_555 1_555
C30 C29 1_555 1_555
H26 C30 1_555 1_555
C31 C30 1_555 1_555
C32 C31 1_555 1_555
H27 C32 1_555 1_555
C33 C32 1_555 1_555
C34 C29 1_555 1_555
H28 C34 1_555 1_555
N7 C33 1_555 1_555
N8 C31 1_555 1_555
O9 N8 1_555 1_555
O10 N7 1_555 1_555
O11 N7 1_555 1_555
O12 N8 1_555 1_555
Zn1A N2A 1_555 1_555
Zn1A_2 N3A 1_555 1_555
C1A H1A 1_555 1_555
H2A C1A 1_555 1_555
H3A C1A 1_555 1_555
C2A C1A 1_555 1_555
C3A C4A 1_555 1_555
C4A C8A 1_555 1_555
C5A C3A 1_555 1_555
H4A C5A 1_555 1_555
C6A C5A 1_555 1_555
H5A C6A 1_555 1_555
C7A C6A 1_555 1_555
H6A C7A 1_555 1_555
C8A C7A 1_555 1_555
H7A C8A 1_555 1_555
C9A H8A 1_555 1_555
H9A C9A 1_555 1_555
C10A C10 1_555 1_555
H10A C10A 1_555 1_555
H11A C10A 1_555 1_555
C11A H12A 1_555 1_555
H13A C11A 1_555 1_555
H14A C11A 1_555 1_555
C12A C11A 1_555 1_555
C13A C14A 1_555 1_555
C14A H15A 1_555 1_555
C15A C14A 1_555 1_555
H16A C15A 1_555 1_555
C16A C15A 1_555 1_555
H17A C16A 1_555 1_555
C17A C16A 1_555 1_555
H18A C17A 1_555 1_555
C18A C13A 1_555 1_555
C19A H19A 1_555 1_555
H20A C19A 1_555 1_555
C20A C20 1_555 1_555
H21A C20A 1_555 1_555
H22A C20A 1_555 1_555
C21A C22A 1_555 1_555
C22A C23A 1_555 1_555
C23A H23A 1_555 1_555
C24A C23A 1_555 1_555
C25A C24A 1_555 1_555
H24A C25A 1_555 1_555
C26A C25A 1_555 1_555
C27A C22A 1_555 1_555
H25A C27A 1_555 1_555
C28A O3A 1_555 1_555
N1A C2A 1_555 1_555
N2A C2A 1_555 1_555
N3A C12A 1_555 1_555
N3A_2 Zn1A 1_555 1_555
N4A C12A 1_555 1_555
N5A C24A 1_555 1_555
N6A C26A 1_555 1_555
O1A Zn1A 1_555 1_555
O2A Zn1A 1_555 1_555
O3A Zn1A 1_555 1_555
O4A Zn1A 1_555 1_555
O5A N5A 1_555 1_555
O6A N5A 1_555 1_555
O7A N6A 1_555 1_555
O8A N6A 1_555 1_555
C29A C28A 1_555 1_555
C30A C29A 1_555 1_555
H26A C30A 1_555 1_555
C31A C30A 1_555 1_555
C32A C31A 1_555 1_555
H27A C32A 1_555 1_555
C33A C32A 1_555 1_555
C34A C29A 1_555 1_555
H28A C34A 1_555 1_555
N7A C33A 1_555 1_555
N8A C31A 1_555 1_555
O9A N8A 1_555 1_555
O10A N7A 1_555 1_555
O11A N7A 1_555 1_555
O12A N8A 1_555 1_555
C3 N1 1_555 1_555
C4 N2 1_555 1_555
C9 N1 1_555 1_555
C12 N3 1_555 1_555
C13 N3 1_555 1_555
C17 C18 1_555 1_555
C18 N4 1_555 1_555
C19 N4 1_555 1_555
C21 O1 1_555 1_555
C21 O2 1_555 1_555
C26 C27 1_555 1_555
C28 O4 1_555 1_555
C33 C34 1_555 1_555
C3A N1A 1_555 1_555
C4A N2A 1_555 1_555
C9A C10A 1_555 1_555
C9A N1A 1_555 1_555
C13A N3A 1_555 1_555
C17A C18A 1_555 1_555
C18A N4A 1_555 1_555
C19A C20A 1_555 1_555
C19A N4A 1_555 1_555
C21A O1A 1_555 1_555
C21A O2A 1_555 1_555
C26A C27A 1_555 1_555
C28A O4A 1_555 1_555
C33A C34A 1_555 1_555

#END
