
#######################################################################
#
#                 Cambridge Crystallographic Data Centre
#                                CCDC 
#
#######################################################################
#
# If this CIF has been generated from an entry in the Cambridge 
# Structural Database, then it will include bibliographic, chemical, 
# crystal, experimental, refinement or atomic coordinate data resulting 
# from the CCDC's data processing and validation procedures.
#
#######################################################################

data_EBIRIS
_symmetry_cell_setting           orthorhombic
_symmetry_space_group_name_H-M   'P 21 21 21'
_symmetry_Int_Tables_number      19
_space_group_name_Hall           'P 2ac 2ab'
loop_
_symmetry_equiv_pos_site_id
_symmetry_equiv_pos_as_xyz
1 x,y,z
2 1/2-x,-y,1/2+z
3 1/2+x,1/2-y,-z
4 -x,1/2+y,1/2-z
_cell_length_a                   10.4659(2)
_cell_length_b                   14.6320(4)
_cell_length_c                   16.5116(4)
_cell_angle_alpha                90
_cell_angle_beta                 90
_cell_angle_gamma                90
_cell_volume                     2528.54
loop_
_atom_site_label
_atom_site_type_symbol
_atom_site_fract_x
_atom_site_fract_y
_atom_site_fract_z
Zn1 Zn 0.77222(5) 0.12398(3) 1.00651(3)
C1 C -0.0090(9) -0.1741(6) 1.3744(6)
H1 H -0.0554 -0.2056 1.4160
H2 H 0.0796 -0.1707 1.3890
H3 H -0.0177 -0.2065 1.3242
C2 C -0.0591(7) -0.0837(6) 1.3654(5)
C3 C -0.1775(7) 0.0386(5) 1.3784(4)
C4 C -0.0898(7) 0.0569(5) 1.3185(5)
C5 C -0.2667(8) 0.1054(6) 1.3991(5)
H4 H -0.3249 0.0951 1.4407
C6 C -0.2679(11) 0.1870(7) 1.3573(6)
H5 H -0.3271 0.2318 1.3710
C7 C -0.1830(11) 0.2028(8) 1.2959(7)
H6 H -0.1868 0.2579 1.2679
C8 C -0.0898(9) 0.1379(7) 1.2738(6)
H7 H -0.0320 0.1484 1.2321
C9 C 0.0918(7) -0.0309(7) 1.2555(5)
H8 H 0.0769 0.0051 1.2071
H9 H 0.0997 -0.0945 1.2396
C10 C 0.2185(8) 0.0014(7) 1.2975(5)
H10 H 0.2089 0.0645 1.3144
H11 H 0.2329 -0.0352 1.3456
C11 C 0.3330(7) -0.0063(7) 1.2429(5)
H12 H 0.3417 -0.0695 1.2261
H13 H 0.3175 0.0299 1.1946
C12 C 0.4544(7) 0.0235(8) 1.2792(5)
H14 H 0.4448 0.0861 1.2977
H15 H 0.4715 -0.0141 1.3264
C13 C 0.5411(12) 0.1761(8) 1.1721(8)
H16 H 0.5848 0.2153 1.1347
H17 H 0.5468 0.2014 1.2257
H18 H 0.4530 0.1710 1.1567
C14 C 0.6010(7) 0.0842(6) 1.1712(5)
C15 C 0.6384(8) -0.0576(6) 1.2118(5)
C16 C 0.6442(9) -0.1386(7) 1.2523(6)
H19 H 0.5904 -0.1525 1.2954
C17 C 0.7377(12) -0.1995(7) 1.2238(6)
H20 H 0.7453 -0.2566 1.2480
C18 C 0.8209(12) -0.1761(7) 1.1592(7)
H21 H 0.8822 -0.2181 1.1424
C19 C 0.8132(9) -0.0931(6) 1.1207(5)
H22 H 0.8680 -0.0776 1.0786
C20 C 0.7202(7) -0.0340(6) 1.1478(4)
C21 C 1.0259(6) 0.0743(4) 1.0140(4)
C22 C 1.1566(7) 0.0338(5) 1.0148(4)
C23 C 1.1666(8) -0.0585(5) 1.0111(6)
H23 H 1.0937 -0.0948 1.0116
C24 C 1.2908(9) -0.0994(7) 1.0066(7)
H24 H 1.2989 -0.1621 0.9988
C25 C 1.3962(8) -0.0463(6) 1.0138(7)
H25 H 1.4769 -0.0728 1.0125
C26 C 1.3834(8) 0.0493(6) 1.0231(6)
H26 H 1.4557 0.0852 1.0308
C27 C 1.2644(7) 0.0898(5) 1.0209(4)
C28 C 1.2591(7) 0.1913(6) 1.0204(5)
N1 N -0.1599(6) -0.0476(5) 1.4072(4)
N2 N -0.0150(6) -0.0205(5) 1.3106(4)
N3 N 0.5625(6) 0.0188(5) 1.2259(4)
N4 N 0.6917(6) 0.0579(5) 1.1237(4)
O1 O 0.9928(5) 0.1291(5) 1.0683(4)
O2 O 0.9447(6) 0.0450(6) 0.9655(4)
O3 O 1.2066(7) 0.2296(5) 0.9621(4)
O4 O 1.3087(8) 0.2364(6) 1.0751(6)
Zn1A Zn -0.27222(5) -0.12398(3) 1.50651(3)
Zn1B Zn 1.27222(5) 0.37602(3) 0.99349(3)
N1A N 0.6599(6) 0.0476(5) 0.9072(4)
O3B O 0.7066(7) 0.2704(5) 1.0379(4)
O4B O 0.8087(8) 0.2636(6) 0.9249(6)
loop_
_geom_bond_atom_site_label_1
_geom_bond_atom_site_label_2
_geom_bond_site_symmetry_1
_geom_bond_site_symmetry_2
Zn1 N4 1_555 1_555
C1 H1 1_555 1_555
H2 C1 1_555 1_555
H3 C1 1_555 1_555
C2 C1 1_555 1_555
C3 C4 1_555 1_555
C4 C8 1_555 1_555
C5 C3 1_555 1_555
H4 C5 1_555 1_555
C6 C5 1_555 1_555
H5 C6 1_555 1_555
C7 C6 1_555 1_555
H6 C7 1_555 1_555
C8 C7 1_555 1_555
H7 C8 1_555 1_555
C9 H8 1_555 1_555
H9 C9 1_555 1_555
C10 C9 1_555 1_555
H10 C10 1_555 1_555
H11 C10 1_555 1_555
C11 C10 1_555 1_555
H12 C11 1_555 1_555
H13 C11 1_555 1_555
C12 C11 1_555 1_555
H14 C12 1_555 1_555
H15 C12 1_555 1_555
C13 H16 1_555 1_555
H17 C13 1_555 1_555
H18 C13 1_555 1_555
C14 C13 1_555 1_555
C15 C16 1_555 1_555
C16 H19 1_555 1_555
C17 C16 1_555 1_555
H20 C17 1_555 1_555
C18 C17 1_555 1_555
H21 C18 1_555 1_555
C19 C18 1_555 1_555
H22 C19 1_555 1_555
C20 C15 1_555 1_555
C21 C22 1_555 1_555
C22 C23 1_555 1_555
C23 H23 1_555 1_555
C24 C23 1_555 1_555
H24 C24 1_555 1_555
C25 C24 1_555 1_555
H25 C25 1_555 1_555
C26 C25 1_555 1_555
H26 C26 1_555 1_555
C27 C22 1_555 1_555
C28 C27 1_555 1_555
N1 C2 1_555 1_555
N2 C2 1_555 1_555
N3 C12 1_555 1_555
N4 C14 1_555 1_555
O1 Zn1 1_555 1_555
O2 Zn1 1_555 1_555
O3 C28 1_555 1_555
O4 C28 1_555 1_555
Zn1A N1 1_555 1_555
Zn1B O3 1_555 1_555
N1A Zn1 1_555 1_555
O3B Zn1 1_555 1_555
O4B Zn1 1_555 1_555
C3 N1 1_555 1_555
C4 N2 1_555 1_555
C9 N2 1_555 1_555
C14 N3 1_555 1_555
C15 N3 1_555 1_555
C19 C20 1_555 1_555
C20 N4 1_555 1_555
C21 O1 1_555 1_555
C21 O2 1_555 1_555
C26 C27 1_555 1_555
O4 Zn1B 1_555 1_555

#END
