
#######################################################################
#
#                 Cambridge Crystallographic Data Centre
#                                CCDC 
#
#######################################################################
#
# If this CIF has been generated from an entry in the Cambridge 
# Structural Database, then it will include bibliographic, chemical, 
# crystal, experimental, refinement or atomic coordinate data resulting 
# from the CCDC's data processing and validation procedures.
#
#######################################################################

data_EBIRAK
_symmetry_cell_setting           triclinic
_symmetry_space_group_name_H-M   'P -1'
_symmetry_Int_Tables_number      2
_space_group_name_Hall           '-P 1'
loop_
_symmetry_equiv_pos_site_id
_symmetry_equiv_pos_as_xyz
1 x,y,z
2 -x,-y,-z
_cell_length_a                   8.8418(3)
_cell_length_b                   9.5120(4)
_cell_length_c                   9.6826(4)
_cell_angle_alpha                85.966(4)
_cell_angle_beta                 87.778(3)
_cell_angle_gamma                78.915(3)
_cell_volume                     796.9
loop_
_atom_site_label
_atom_site_type_symbol
_atom_site_fract_x
_atom_site_fract_y
_atom_site_fract_z
Zn1 Zn 1.0000 0.0000 1.0000
C1 C 0.8308(6) 0.1436(7) 1.4224(6)
C2 C 0.9050(6) 0.1558(6) 1.2987(6)
C3 C 0.9558(7) 0.2840(6) 1.2525(7)
H1 H 1.0056 0.2937 1.1670
C4 C 0.9267(9) 0.3950(8) 1.3428(9)
H2 H 0.9599 0.4803 1.3172
C5 C 0.8496(10) 0.3820(10) 1.4701(9)
H3 H 0.8304 0.4591 1.5264
C6 C 0.8008(9) 0.2546(9) 1.5140(8)
H4 H 0.7511 0.2438 1.5994
C7 C 0.8523(7) -0.0560(6) 1.3164(7)
C8 C 0.8366(10) -0.2019(7) 1.2938(9)
H5 H 0.7294 -0.2082 1.2981
H6 H 0.8904 -0.2666 1.3641
H7 H 0.8797 -0.2271 1.2043
C9 C 0.7155(8) -0.0462(10) 1.5540(7)
H8 H 0.7554 -0.0199 1.6385
H9 H 0.7352 -0.1502 1.5552
C10 C 0.5460(11) 0.008(3) 1.5522(17)
H10 H 0.5036 -0.0337 1.6357
H11 H 0.5310 0.1105 1.5632
C11 C 1.2582(7) -0.2590(6) 1.1119(6)
C12 C 1.3281(7) -0.4161(6) 1.1349(6)
C13 C 1.2553(7) -0.5218(6) 1.0883(7)
H12 H 1.1598 -0.4926 1.0476
C14 C 1.5288(8) -0.6083(8) 1.2098(9)
H13 H 1.6220 -0.6424 1.2531
C15 C 1.4497(9) -0.7010(7) 1.1581(8)
H14 H 1.4929 -0.7983 1.1649
C16 C 1.4674(8) -0.4579(8) 1.1968(7)
H15 H 1.5198 -0.3913 1.2291
N1 N 0.7975(6) 0.0092(6) 1.4363(5)
N2 N 0.9158(5) 0.0296(5) 1.2313(5)
N3 N 1.3146(7) -0.6609(6) 1.0989(7)
O1 O 1.1310(5) -0.2288(5) 1.0546(5)
O2 O 1.3349(7) -0.1726(5) 1.1517(6)
O3 O 1.2248(6) 0.0824(5) 1.0308(7)
H16 H 1.266(10) -0.004(5) 1.062(11)
H17 H 1.292(9) 0.135(9) 1.004(11)
Zn1_2 Zn 0.0000 0.0000 2.0000
C1A C 0.1692(6) -0.1436(7) 1.5776(6)
C2A C 0.0950(6) -0.1558(6) 1.7013(6)
C3A C 0.0442(7) -0.2840(6) 1.7475(7)
H1A H -0.0056 -0.2937 1.8330
C4A C 0.0733(9) -0.3950(8) 1.6572(9)
H2A H 0.0401 -0.4803 1.6828
C5A C 0.1504(10) -0.3820(10) 1.5299(9)
H3A H 0.1696 -0.4591 1.4736
C6A C 0.1992(9) -0.2546(9) 1.4860(8)
H4A H 0.2489 -0.2438 1.4006
C7A C 0.1477(7) 0.0560(6) 1.6836(7)
C8A C 0.1634(10) 0.2019(7) 1.7062(9)
H5A H 0.2706 0.2082 1.7019
H6A H 0.1096 0.2666 1.6359
H7A H 0.1203 0.2271 1.7957
C9A C 0.2845(8) 0.0462(10) 1.4460(7)
H8A H 0.2446 0.0199 1.3615
H9A H 0.2648 0.1502 1.4448
C10A C 0.4540(11) -0.008(3) 1.4478(17)
H10A H 0.4964 0.0337 1.3643
H11A H 0.4690 -0.1105 1.4368
C11A C 0.7418(7) 0.2590(6) 0.8881(6)
C12A C 0.6719(7) 0.4161(6) 0.8651(6)
C13A C 0.7447(7) 0.5218(6) 0.9117(7)
H12A H 0.8402 0.4926 0.9524
C14A C 0.4712(8) 0.6083(8) 0.7902(9)
H13A H 0.3780 0.6424 0.7469
C15A C 0.5503(9) 0.7010(7) 0.8419(8)
H14A H 0.5071 0.7983 0.8351
C16A C 0.5326(8) 0.4579(8) 0.8032(7)
H15A H 0.4802 0.3913 0.7709
N1A N 0.2025(6) -0.0092(6) 1.5637(5)
N2A N 0.0842(5) -0.0296(5) 1.7687(5)
N2A_2 N 1.0842(5) -0.0296(5) 0.7687(5)
N3A N 0.6854(7) 0.6609(6) 0.9011(7)
O1A O 0.8690(5) 0.2288(5) 0.9454(5)
O2A O 0.6651(7) 0.1726(5) 0.8483(6)
O3A O 0.7752(6) -0.0824(5) 0.9692(7)
H16A H 0.734(10) 0.004(5) 0.938(11)
H17A H 0.708(9) -0.135(9) 0.996(11)
loop_
_geom_bond_atom_site_label_1
_geom_bond_atom_site_label_2
_geom_bond_site_symmetry_1
_geom_bond_site_symmetry_2
Zn1 N2 1_555 1_555
C1 C2 1_555 1_555
C2 C3 1_555 1_555
C3 H1 1_555 1_555
C4 C3 1_555 1_555
H2 C4 1_555 1_555
C5 C4 1_555 1_555
H3 C5 1_555 1_555
C6 C1 1_555 1_555
H4 C6 1_555 1_555
C7 C8 1_555 1_555
C8 H5 1_555 1_555
H6 C8 1_555 1_555
H7 C8 1_555 1_555
C9 H8 1_555 1_555
H9 C9 1_555 1_555
C10 C9 1_555 1_555
H10 C10 1_555 1_555
H11 C10 1_555 1_555
C11 C12 1_555 1_555
C12 C13 1_555 1_555
C13 H12 1_555 1_555
C14 H13 1_555 1_555
C15 C14 1_555 1_555
H14 C15 1_555 1_555
C16 C12 1_555 1_555
H15 C16 1_555 1_555
N1 C1 1_555 1_555
N2 C2 1_555 1_555
N3 C13 1_555 1_555
O1 Zn1 1_555 1_555
O2 C11 1_555 1_555
O3 Zn1 1_555 1_555
H16 O3 1_555 1_555
H17 O3 1_555 1_555
Zn1_2 N2A 1_555 1_555
C1A C2A 1_555 1_555
C2A C3A 1_555 1_555
C3A H1A 1_555 1_555
C4A C3A 1_555 1_555
H2A C4A 1_555 1_555
C5A C4A 1_555 1_555
H3A C5A 1_555 1_555
C6A C1A 1_555 1_555
H4A C6A 1_555 1_555
C7A C8A 1_555 1_555
C8A H5A 1_555 1_555
H6A C8A 1_555 1_555
H7A C8A 1_555 1_555
C9A H8A 1_555 1_555
H9A C9A 1_555 1_555
C10A C10 1_555 1_555
H10A C10A 1_555 1_555
H11A C10A 1_555 1_555
C11A C12A 1_555 1_555
C12A C13A 1_555 1_555
C13A H12A 1_555 1_555
C14A H13A 1_555 1_555
C15A C14A 1_555 1_555
H14A C15A 1_555 1_555
C16A C12A 1_555 1_555
H15A C16A 1_555 1_555
N1A C1A 1_555 1_555
N2A C2A 1_555 1_555
N2A_2 Zn1 1_555 1_555
N3A C13A 1_555 1_555
O1A Zn1 1_555 1_555
O2A C11A 1_555 1_555
O3A Zn1 1_555 1_555
H16A O3A 1_555 1_555
H17A O3A 1_555 1_555
C5 C6 1_555 1_555
C7 N1 1_555 1_555
C7 N2 1_555 1_555
C9 N1 1_555 1_555
C11 O1 1_555 1_555
C14 C16 1_555 1_555
C15 N3 1_555 1_555
C5A C6A 1_555 1_555
C7A N1A 1_555 1_555
C7A N2A 1_555 1_555
C9A C10A 1_555 1_555
C9A N1A 1_555 1_555
C11A O1A 1_555 1_555
C14A C16A 1_555 1_555
C15A N3A 1_555 1_555

#END
