
#######################################################################
#
#                 Cambridge Crystallographic Data Centre
#                                CCDC 
#
#######################################################################
#
# If this CIF has been generated from an entry in the Cambridge 
# Structural Database, then it will include bibliographic, chemical, 
# crystal, experimental, refinement or atomic coordinate data resulting 
# from the CCDC's data processing and validation procedures.
#
#######################################################################

data_EBIRUE
_symmetry_cell_setting           monoclinic
_symmetry_space_group_name_H-M   'P 21/c'
_symmetry_Int_Tables_number      14
_space_group_name_Hall           '-P 2ybc'
loop_
_symmetry_equiv_pos_site_id
_symmetry_equiv_pos_as_xyz
1 x,y,z
2 -x,1/2+y,1/2-z
3 -x,-y,-z
4 x,1/2-y,1/2+z
_cell_length_a                   10.8685(3)
_cell_length_b                   16.3185(4)
_cell_length_c                   8.5098(2)
_cell_angle_alpha                90
_cell_angle_beta                 90.088(2)
_cell_angle_gamma                90
_cell_volume                     1509.28
loop_
_atom_site_label
_atom_site_type_symbol
_atom_site_fract_x
_atom_site_fract_y
_atom_site_fract_z
Zn1 Zn 0.40139(4) 0.09471(3) 0.52375(6)
C1 C 0.2518(8) -0.0562(5) 0.2771(11)
H1 H 0.2815 -0.0445 0.1733
H2 H 0.2044 -0.1058 0.2752
H3 H 0.3204 -0.0627 0.3473
C2 C 0.1755(6) 0.0106(4) 0.3306(8)
C3 C 0.1150(6) 0.1295(5) 0.4301(9)
C4 C 0.0124(7) 0.0933(5) 0.3619(8)
C5 C -0.1020(7) 0.1273(7) 0.3660(11)
H4 H -0.1702 0.1023 0.3204
C6 C -0.1096(9) 0.2039(7) 0.4451(12)
H5 H -0.1857 0.2296 0.4537
C7 C -0.0084(9) 0.2409(7) 0.5090(11)
H6 H -0.0166 0.2921 0.5557
C8 C 0.1049(8) 0.2042(6) 0.5057(10)
H7 H 0.1729 0.2287 0.5527
C9 C -0.0243(7) -0.0390(6) 0.2155(9)
H8 H -0.1006 -0.0463 0.2729
H9 H 0.0164 -0.0918 0.2090
C10 C -0.0531(10) -0.0075(8) 0.0476(10)
H10 H -0.1047 -0.0475 -0.0051
H11 H -0.0998 0.0429 0.0560
C11 C 0.4316(7) -0.0489(4) 0.7837(8)
C12 C 0.4965(10) -0.1238(6) 0.8474(12)
H12 H 0.5759 -0.1377 0.8165
C13 C 0.4312(9) -0.1705(6) 0.9543(15)
H13 H 0.3583 -0.1539 1.0017
C14 C 0.4941(8) -0.2532(5) 0.9849(11)
N1 N 0.0540(5) 0.0183(4) 0.2992(7)
N2 N 0.2163(5) 0.0769(4) 0.4113(7)
O1 O 0.4667(5) -0.0216(3) 0.6515(6)
O2 O 0.3502(6) -0.0167(4) 0.8637(8)
O3 O 0.5979(6) -0.2577(4) 1.0529(8)
O4 O 0.4414(6) -0.3171(4) 0.9316(9)
O5 O 0.3091(6) 0.1349(4) 0.7583(7)
H14 H 0.330(8) 0.098(3) 0.835(3)
H15 H 0.333(9) 0.181(3) 0.811(9)
Zn1B Zn -0.40139(4) -0.09471(3) -0.52375(6)
Zn1_2 Zn -0.59861(4) 0.09471(3) -0.47625(6)
Zn1A Zn 0.59861(4) -0.40529(3) 0.97625(6)
Zn1B_2 Zn 0.59861(4) -0.09471(3) 0.47625(6)
Zn1C Zn -0.59861(4) 0.40529(3) -0.97625(6)
C1B C -0.2518(8) 0.0562(5) -0.2771(11)
H1B H -0.2815 0.0445 -0.1733
H2B H -0.2044 0.1058 -0.2752
H3B H -0.3204 0.0627 -0.3473
C2B C -0.1755(6) -0.0106(4) -0.3306(8)
C3B C -0.1150(6) -0.1295(5) -0.4301(9)
C4B C -0.0124(7) -0.0933(5) -0.3619(8)
C5B C 0.1020(7) -0.1273(7) -0.3660(11)
H4B H 0.1702 -0.1023 -0.3204
C6B C 0.1096(9) -0.2039(7) -0.4451(12)
H5B H 0.1857 -0.2296 -0.4537
C7B C 0.0084(9) -0.2409(7) -0.5090(11)
H6B H 0.0166 -0.2921 -0.5557
C8B C -0.1049(8) -0.2042(6) -0.5057(10)
H7B H -0.1729 -0.2287 -0.5527
C9B C 0.0243(7) 0.0390(6) -0.2155(9)
H8B H 0.1006 0.0463 -0.2729
H9B H -0.0164 0.0918 -0.2090
C10B C 0.0531(10) 0.0075(8) -0.0476(10)
H10B H 0.1047 0.0475 0.0051
H11B H 0.0998 -0.0429 -0.0560
C11B C -0.4316(7) 0.0489(4) -0.7837(8)
C12B C -0.4965(10) 0.1238(6) -0.8474(12)
H12B H -0.5759 0.1377 -0.8165
C13B C -0.4312(9) 0.1705(6) -0.9543(15)
H13B H -0.3583 0.1539 -1.0017
C14B C -0.4941(8) 0.2532(5) -0.9849(11)
N1B N -0.0540(5) -0.0183(4) -0.2992(7)
N2B N -0.2163(5) -0.0769(4) -0.4113(7)
O1B O -0.4667(5) 0.0216(3) -0.6515(6)
O1_2 O -0.5333(5) -0.0216(3) -0.3485(6)
O1B_2 O 0.5333(5) 0.0216(3) 0.3485(6)
O2B O -0.3502(6) 0.0167(4) -0.8637(8)
O3B O -0.5979(6) 0.2577(4) -1.0529(8)
O3A O 0.4021(6) 0.2423(4) 0.4471(8)
O3C O -0.4021(6) -0.2423(4) -0.4471(8)
O4B O -0.4414(6) 0.3171(4) -0.9316(9)
O4A O 0.5586(6) 0.1829(4) 0.5684(9)
O4C O -0.5586(6) -0.1829(4) -0.5684(9)
O5B O -0.3091(6) -0.1349(4) -0.7583(7)
H14B H -0.330(8) -0.098(3) -0.835(3)
H15B H -0.333(9) -0.181(3) -0.811(9)
loop_
_geom_bond_atom_site_label_1
_geom_bond_atom_site_label_2
_geom_bond_site_symmetry_1
_geom_bond_site_symmetry_2
Zn1 N2 1_555 1_555
C1 H1 1_555 1_555
H2 C1 1_555 1_555
H3 C1 1_555 1_555
C2 C1 1_555 1_555
C3 C4 1_555 1_555
C4 C5 1_555 1_555
C5 H4 1_555 1_555
C6 C5 1_555 1_555
H5 C6 1_555 1_555
C7 C6 1_555 1_555
H6 C7 1_555 1_555
C8 C3 1_555 1_555
H7 C8 1_555 1_555
C9 H8 1_555 1_555
H9 C9 1_555 1_555
C10 C9 1_555 1_555
H10 C10 1_555 1_555
H11 C10 1_555 1_555
C11 C12 1_555 1_555
C12 H12 1_555 1_555
C13 C12 1_555 1_555
H13 C13 1_555 1_555
C14 C13 1_555 1_555
N1 C2 1_555 1_555
N2 C2 1_555 1_555
O1 Zn1 1_555 1_555
O2 C11 1_555 1_555
O3 C14 1_555 1_555
O4 C14 1_555 1_555
O5 Zn1 1_555 1_555
H14 O5 1_555 1_555
H15 O5 1_555 1_555
Zn1B N2B 1_555 1_555
Zn1_2 O1B 1_555 1_555
Zn1A O3 1_555 1_555
Zn1B_2 O1 1_555 1_555
Zn1C O3B 1_555 1_555
C1B H1B 1_555 1_555
H2B C1B 1_555 1_555
H3B C1B 1_555 1_555
C2B C1B 1_555 1_555
C3B C4B 1_555 1_555
C4B C5B 1_555 1_555
C5B H4B 1_555 1_555
C6B C5B 1_555 1_555
H5B C6B 1_555 1_555
C7B C6B 1_555 1_555
H6B C7B 1_555 1_555
C8B C3B 1_555 1_555
H7B C8B 1_555 1_555
C9B H8B 1_555 1_555
H9B C9B 1_555 1_555
C10B C10 1_555 1_555
H10B C10B 1_555 1_555
H11B C10B 1_555 1_555
C11B C12B 1_555 1_555
C12B H12B 1_555 1_555
C13B C12B 1_555 1_555
H13B C13B 1_555 1_555
C14B C13B 1_555 1_555
N1B C2B 1_555 1_555
N2B C2B 1_555 1_555
O1B Zn1B 1_555 1_555
O1_2 Zn1B 1_555 1_555
O1B_2 Zn1 1_555 1_555
O2B C11B 1_555 1_555
O3B C14B 1_555 1_555
O3A Zn1 1_555 1_555
O3C Zn1B 1_555 1_555
O4B Zn1C 1_555 1_555
O4A Zn1 1_555 1_555
O4C Zn1B 1_555 1_555
O5B Zn1B 1_555 1_555
H14B O5B 1_555 1_555
H15B O5B 1_555 1_555
C3 N2 1_555 1_555
C4 N1 1_555 1_555
C7 C8 1_555 1_555
C9 N1 1_555 1_555
C11 O1 1_555 1_555
O4 Zn1A 1_555 1_555
Zn1_2 O1_2 1_555 1_555
Zn1B_2 O1B_2 1_555 1_555
C3B N2B 1_555 1_555
C4B N1B 1_555 1_555
C7B C8B 1_555 1_555
C9B C10B 1_555 1_555
C9B N1B 1_555 1_555
C11B O1B 1_555 1_555
C14B O4B 1_555 1_555

#END
