
#######################################################################
#
#                 Cambridge Crystallographic Data Centre
#                                CCDC 
#
#######################################################################
#
# If this CIF has been generated from an entry in the Cambridge 
# Structural Database, then it will include bibliographic, chemical, 
# crystal, experimental, refinement or atomic coordinate data resulting 
# from the CCDC's data processing and validation procedures.
#
#######################################################################

data_EBISEP
_symmetry_cell_setting           triclinic
_symmetry_space_group_name_H-M   'P -1'
_symmetry_Int_Tables_number      2
_space_group_name_Hall           '-P 1'
loop_
_symmetry_equiv_pos_site_id
_symmetry_equiv_pos_as_xyz
1 x,y,z
2 -x,-y,-z
_cell_length_a                   9.7504(8)
_cell_length_b                   9.8666(8)
_cell_length_c                   10.0927(7)
_cell_angle_alpha                92.064(6)
_cell_angle_beta                 114.696(7)
_cell_angle_gamma                119.342(9)
_cell_volume                     732.585
loop_
_atom_site_label
_atom_site_type_symbol
_atom_site_fract_x
_atom_site_fract_y
_atom_site_fract_z
Ag1 Ag 0.19173(5) -0.30489(5) 0.54987(4)
C1 C 0.0329(6) -0.0890(6) 0.3665(5)
H1 H -0.0819 -0.1455 0.2731
H2 H 0.0726 0.0223 0.4013
H3 H 0.0198 -0.1411 0.4430
C2 C 0.1688(5) -0.0935(5) 0.3391(4)
C3 C 0.3575(4) -0.0447(4) 0.2521(4)
C4 C 0.4666(5) 0.0072(5) 0.1864(4)
H4 H 0.4715 0.0824 0.1325
C5 C 0.5668(5) -0.0579(6) 0.2048(5)
H5 H 0.6420 -0.0259 0.1625
C6 C 0.5589(5) -0.1705(6) 0.2851(5)
H6 H 0.6280 -0.2129 0.2942
C7 C 0.4521(5) -0.2205(5) 0.3511(4)
H7 H 0.4477 -0.2956 0.4051
C8 C 0.3510(4) -0.1549(4) 0.3343(4)
C9 C 0.2207(6) 0.1210(5) 0.1983(4)
H8 H 0.3391 0.2150 0.2245
H9 H 0.1701 0.1558 0.2456
C10 C 0.0957(5) 0.0575(5) 0.0228(5)
H10 H 0.1088 0.1492 -0.0157
H11 H 0.1332 0.0039 -0.0230
C11 C 0.0679(5) -0.3876(5) 0.7594(4)
C12 C 0.0360(4) -0.4434(4) 0.8857(4)
C13 C 0.1199(5) -0.5141(5) 0.9725(4)
H12 H 0.2008 -0.5245 0.9544
C14 C 0.0849(5) -0.5685(5) 1.0840(4)
H13 H 0.1433 -0.6148 1.1412
N1 N 0.2303(4) -0.1851(4) 0.3863(3)
N2 N 0.2417(4) -0.0051(4) 0.2592(3)
O1 O -0.0134(4) -0.3287(4) 0.6818(3)
O2 O 0.1788(4) -0.4028(3) 0.7369(3)
Ag1A Ag -0.19173(5) -0.69511(5) 1.45013(4)
Ag1A_2 Ag -0.19173(5) 0.30489(5) -0.54987(4)
C1A C -0.0329(6) 0.0890(6) -0.3665(5)
H1A H 0.0819 0.1455 -0.2731
H2A H -0.0726 -0.0223 -0.4013
H3A H -0.0198 0.1411 -0.4430
C2A C -0.1688(5) 0.0935(5) -0.3391(4)
C3A C -0.3575(4) 0.0447(4) -0.2521(4)
C4A C -0.4666(5) -0.0072(5) -0.1864(4)
H4A H -0.4715 -0.0824 -0.1325
C5A C -0.5668(5) 0.0579(6) -0.2048(5)
H5A H -0.6420 0.0259 -0.1625
C6A C -0.5589(5) 0.1705(6) -0.2851(5)
H6A H -0.6280 0.2129 -0.2942
C7A C -0.4521(5) 0.2205(5) -0.3511(4)
H7A H -0.4477 0.2956 -0.4051
C8A C -0.3510(4) 0.1549(4) -0.3343(4)
C9A C -0.2207(6) -0.1210(5) -0.1983(4)
H8A H -0.3391 -0.2150 -0.2245
H9A H -0.1701 -0.1558 -0.2456
C10A C -0.0957(5) -0.0575(5) -0.0228(5)
H10A H -0.1088 -0.1492 0.0157
H11A H -0.1332 -0.0039 0.0230
C11A C -0.0679(5) -0.6124(5) 1.2406(4)
C12A C -0.0360(4) -0.5566(4) 1.1143(4)
C13A C -0.1199(5) -0.4859(5) 1.0275(4)
H12A H -0.2008 -0.4755 1.0456
C14A C -0.0849(5) -0.4315(5) 0.9160(4)
H13A H -0.1433 -0.3852 0.8588
N1A N -0.2303(4) 0.1851(4) -0.3863(3)
N1A_2 N -0.2303(4) -0.8149(4) 1.6137(3)
N2A N -0.2417(4) 0.0051(4) -0.2592(3)
O1A O 0.0134(4) -0.6713(4) 1.3182(3)
O2A O -0.1788(4) -0.5972(3) 1.2631(3)
O3 O -0.3738(5) -0.4611(5) 0.4528(4)
H14 H -0.381(7) -0.455(7) 0.365(3)
H15 H -0.262(4) -0.407(7) 0.528(4)
O4 O 0.4533(5) -0.4590(6) 0.8571(4)
H16 H 0.354(5) -0.549(4) 0.840(7)
H17 H 0.514(7) -0.395(6) 0.951(4)
loop_
_geom_bond_atom_site_label_1
_geom_bond_atom_site_label_2
_geom_bond_site_symmetry_1
_geom_bond_site_symmetry_2
Ag1 N1 1_555 1_555
C1 H1 1_555 1_555
H2 C1 1_555 1_555
H3 C1 1_555 1_555
C2 C1 1_555 1_555
C3 C4 1_555 1_555
C4 H4 1_555 1_555
C5 C4 1_555 1_555
H5 C5 1_555 1_555
C6 C5 1_555 1_555
H6 C6 1_555 1_555
C7 C6 1_555 1_555
H7 C7 1_555 1_555
C8 C3 1_555 1_555
C9 H8 1_555 1_555
H9 C9 1_555 1_555
C10 C9 1_555 1_555
H10 C10 1_555 1_555
H11 C10 1_555 1_555
C11 C12 1_555 1_555
C12 C13 1_555 1_555
C13 H12 1_555 1_555
C14 C13 1_555 1_555
H13 C14 1_555 1_555
N1 C2 1_555 1_555
N2 C2 1_555 1_555
O1 C11 1_555 1_555
O2 Ag1 1_555 1_555
O3 H14 1_555 1_555
H15 O3 1_555 1_555
O4 H16 1_555 1_555
H17 O4 1_555 1_555
Ag1A N1A_2 1_555 1_555
Ag1A_2 N1A 1_555 1_555
C1A H1A 1_555 1_555
H2A C1A 1_555 1_555
H3A C1A 1_555 1_555
C2A C1A 1_555 1_555
C3A C4A 1_555 1_555
C4A H4A 1_555 1_555
C5A C4A 1_555 1_555
H5A C5A 1_555 1_555
C6A C5A 1_555 1_555
H6A C6A 1_555 1_555
C7A C6A 1_555 1_555
H7A C7A 1_555 1_555
C8A C3A 1_555 1_555
C9A H8A 1_555 1_555
H9A C9A 1_555 1_555
C10A C10 1_555 1_555
H10A C10A 1_555 1_555
H11A C10A 1_555 1_555
C11A C12A 1_555 1_555
C12A C14 1_555 1_555
C13A C12A 1_555 1_555
H12A C13A 1_555 1_555
C14A C12 1_555 1_555
H13A C14A 1_555 1_555
N1A C2A 1_555 1_555
N2A C2A 1_555 1_555
O1A C11A 1_555 1_555
O2A Ag1A 1_555 1_555
C3 N2 1_555 1_555
C7 C8 1_555 1_555
C8 N1 1_555 1_555
C9 N2 1_555 1_555
C11 O2 1_555 1_555
C3A N2A 1_555 1_555
C7A C8A 1_555 1_555
C8A N1A 1_555 1_555
C9A C10A 1_555 1_555
C9A N2A 1_555 1_555
C11A O2A 1_555 1_555
C13A C14A 1_555 1_555

#END
