
#######################################################################
#
#                 Cambridge Crystallographic Data Centre
#                                CCDC 
#
#######################################################################
#
# If this CIF has been generated from an entry in the Cambridge 
# Structural Database, then it will include bibliographic, chemical, 
# crystal, experimental, refinement or atomic coordinate data resulting 
# from the CCDC's data processing and validation procedures.
#
#######################################################################

data_EBISIT
_symmetry_cell_setting           triclinic
_symmetry_space_group_name_H-M   'P -1'
_symmetry_Int_Tables_number      2
_space_group_name_Hall           '-P 1'
loop_
_symmetry_equiv_pos_site_id
_symmetry_equiv_pos_as_xyz
1 x,y,z
2 -x,-y,-z
_cell_length_a                   11.6759(3)
_cell_length_b                   13.2549(4)
_cell_length_c                   19.1940(5)
_cell_angle_alpha                87.414(2)
_cell_angle_beta                 85.056(2)
_cell_angle_gamma                86.352(2)
_cell_volume                     2951.12
loop_
_atom_site_label
_atom_site_type_symbol
_atom_site_fract_x
_atom_site_fract_y
_atom_site_fract_z
Ag1 Ag 0.5000 0.5000 0.5000
Ag2 Ag 0.77240(4) 1.21405(3) 0.02566(2)
Ag3 Ag 0.76162(5) 1.39149(5) 0.54511(2)
C1 C 0.6545(5) 0.4441(5) 0.3627(3)
C2 C 0.6561(6) 0.3387(5) 0.3690(3)
H1 H 0.6221 0.3059 0.4087
C3 C 0.7092(6) 0.2859(5) 0.3152(4)
H2 H 0.7102 0.2157 0.3180
C4 C 0.7625(6) 0.3335(6) 0.2556(4)
H3 H 0.7989 0.2946 0.2201
C5 C 0.7617(5) 0.4377(5) 0.2492(3)
H4 H 0.7956 0.4701 0.2094
C6 C 0.7085(5) 0.4923(5) 0.3042(3)
C7 C 0.6290(5) 0.6056(5) 0.3765(3)
C8 C 0.5905(7) 0.7087(6) 0.4062(3)
H5 H 0.5160 0.7300 0.3914
H6 H 0.6449 0.7574 0.3894
H7 H 0.5865 0.7034 0.4564
C9 C 0.7247(5) 0.6772(5) 0.2637(3)
H8 H 0.7900 0.6538 0.2327
H9 H 0.7487 0.7319 0.2899
C10 C 0.6288(5) 0.7166(4) 0.2207(3)
H10 H 0.6055 0.6624 0.1937
H11 H 0.5629 0.7395 0.2515
C11 C 0.6657(5) 0.8020(4) 0.1723(3)
H12 H 0.7200 0.7753 0.1356
H13 H 0.7056 0.8482 0.1981
C12 C 0.5677(5) 0.8604(5) 0.1390(3)
H14 H 0.5216 0.8136 0.1179
H15 H 0.5188 0.8953 0.1748
C13 C 0.6585(7) 1.0673(5) 0.1662(3)
H16 H 0.7242 1.0386 0.1885
H17 H 0.5894 1.0524 0.1947
H18 H 0.6632 1.1393 0.1606
C14 C 0.6563(5) 1.0241(4) 0.0975(3)
C15 C 0.6252(4) 0.9209(4) 0.0137(3)
C16 C 0.6789(4) 1.0055(4) -0.0154(3)
C17 C 0.7027(5) 1.0188(5) -0.0868(3)
H19 H 0.7377 1.0757 -0.1065
C18 C 0.6716(6) 0.9424(6) -0.1283(4)
H20 H 0.6860 0.9486 -0.1766
C19 C 0.6194(5) 0.8572(5) -0.0983(4)
H21 H 0.6011 0.8073 -0.1274
C20 C 0.5943(5) 0.8444(4) -0.0282(4)
H22 H 0.5585 0.7877 -0.0088
C21 C 0.9985(5) 1.2893(4) 0.0806(3)
C22 C 1.0514(6) 1.1857(5) 0.0836(4)
H23 H 1.0630 1.1657 0.1313
H24 H 1.1241 1.1833 0.0562
H25 H 1.0015 1.1404 0.0653
C23 C 0.8776(5) 1.4194(4) 0.0672(2)
C24 C 0.9781(5) 1.4535(5) 0.0892(2)
C25 C 0.9903(6) 1.5587(5) 0.0969(3)
H26 H 1.0573 1.5834 0.1107
C26 C 0.8963(7) 1.6206(5) 0.0826(3)
H27 H 0.8995 1.6898 0.0879
C27 C 0.7964(6) 1.5854(5) 0.0606(3)
H28 H 0.7356 1.6313 0.0510
C28 C 0.7856(5) 1.4844(5) 0.0528(3)
H29 H 0.7186 1.4607 0.0384
C29 C 1.1713(5) 1.3729(6) 0.1204(3)
C30 C 1.1746(5) 1.3378(6) 0.1986(3)
H30 H 1.1589 1.2667 0.2038
H31 H 1.2513 1.3449 0.2129
C31 C 1.0875(5) 1.3981(6) 0.2467(3)
H32 H 1.0931 1.4699 0.2356
H33 H 1.0102 1.3807 0.2391
C32 C 1.1094(5) 1.3759(6) 0.3218(3)
H34 H 1.1172 1.3032 0.3302
H35 H 1.1816 1.4034 0.3306
C33 C 0.9480(7) 1.2534(6) 0.4219(4)
H36 H 0.8896 1.2315 0.4566
H37 H 1.0223 1.2272 0.4347
H38 H 0.9344 1.2289 0.3773
C34 C 0.9448(5) 1.3640(5) 0.4179(3)
C35 C 0.9039(5) 1.5231(6) 0.4370(3)
C36 C 0.9921(5) 1.5196(5) 0.3821(3)
C37 C 1.0387(6) 1.6054(7) 0.3514(4)
H39 H 1.0981 1.6017 0.3159
C38 C 0.8586(6) 1.6131(6) 0.4618(4)
H40 H 0.8005 1.6160 0.4981
C39 C 0.9931(8) 1.6970(7) 0.3758(5)
H41 H 1.0220 1.7564 0.3559
C40 C 0.9043(8) 1.7030(6) 0.4296(5)
H42 H 0.8749 1.7660 0.4446
C41 C 0.6398(5) 1.4628(6) -0.3318(3)
C42 C 0.6630(5) 1.3409(4) -0.0806(3)
C43 C 0.6076(4) 1.4752(4) -0.2549(2)
C44 C 0.6468(4) 1.4026(4) -0.2058(2)
H43 H 0.6911 1.3456 -0.2207
C45 C 0.6191(4) 1.4159(4) -0.1347(2)
C46 C 0.5508(4) 1.4992(4) -0.1132(3)
H44 H 0.5302 1.5061 -0.0656
C47 C 0.5118(4) 1.5733(4) -0.1607(3)
C48 C 0.5424(5) 1.5574(5) -0.2324(3)
H45 H 0.5168 1.6053 -0.2654
N1 N 0.6901(4) 0.5926(4) 0.3134(2)
N2 N 0.6063(4) 0.5183(4) 0.4076(2)
N3 N 0.6104(4) 0.9343(3) 0.0852(2)
N4 N 0.6973(4) 1.0692(3) 0.0382(3)
N5 N 0.8937(4) 1.3145(3) 0.0623(2)
N6 N 1.0534(4) 1.3698(4) 0.0973(2)
N7 N 1.0166(4) 1.4187(4) 0.3715(2)
N8 N 0.8767(4) 1.4255(4) 0.4572(2)
N9 N 0.4492(4) 1.6607(4) -0.1387(3)
H46 H 0.4337 1.6700 -0.0948
H47 H 0.4260 1.7054 -0.1691
O1 O 0.6422(4) 1.5388(4) -0.3721(2)
O2 O 0.6671(4) 1.3753(4) -0.3523(2)
O3 O 0.6113(4) 1.3369(3) -0.02107(18)
O4 O 0.7506(4) 1.2849(4) -0.0974(2)
Ag2A Ag 0.22760(4) -0.21405(3) 0.97434(2)
Ag3A Ag 0.23838(5) -0.39149(5) 0.45489(2)
Ag3_2 Ag 0.76162(5) 1.39149(5) -0.45489(2)
Ag3A_2 Ag 0.23838(5) -0.39149(5) 1.45489(2)
C1A C 0.3455(5) 0.5559(5) 0.6373(3)
C2A C 0.3439(6) 0.6613(5) 0.6310(3)
H1A H 0.3779 0.6941 0.5913
C3A C 0.2908(6) 0.7141(5) 0.6848(4)
H2A H 0.2898 0.7843 0.6820
C4A C 0.2375(6) 0.6665(6) 0.7444(4)
H3A H 0.2011 0.7054 0.7799
C5A C 0.2383(5) 0.5623(5) 0.7508(3)
H4A H 0.2044 0.5299 0.7906
C6A C 0.2915(5) 0.5077(5) 0.6958(3)
C7A C 0.3710(5) 0.3944(5) 0.6235(3)
C8A C 0.4095(7) 0.2913(6) 0.5938(3)
H5A H 0.4840 0.2700 0.6086
H6A H 0.3551 0.2426 0.6106
H7A H 0.4135 0.2966 0.5436
C9A C 0.2753(5) 0.3228(5) 0.7363(3)
H8A H 0.2100 0.3462 0.7673
H9A H 0.2513 0.2681 0.7101
C10A C 0.3712(5) 0.2834(4) 0.7793(3)
H10A H 0.3945 0.3376 0.8063
H11A H 0.4371 0.2605 0.7485
C11A C 0.3343(5) 0.1980(4) 0.8277(3)
H12A H 0.2800 0.2247 0.8644
H13A H 0.2944 0.1518 0.8019
C12A C 0.4323(5) 0.1396(5) 0.8610(3)
H14A H 0.4784 0.1864 0.8821
H15A H 0.4812 0.1047 0.8252
C13A C 0.3415(7) -0.0673(5) 0.8338(3)
H16A H 0.2758 -0.0386 0.8115
H17A H 0.4106 -0.0524 0.8053
H18A H 0.3368 -0.1393 0.8394
C14A C 0.3437(5) -0.0241(4) 0.9025(3)
C15A C 0.3748(4) 0.0791(4) 0.9863(3)
C16A C 0.3211(4) -0.0055(4) 1.0154(3)
C17A C 0.2973(5) -0.0188(5) 1.0868(3)
H19A H 0.2623 -0.0757 1.1065
C18A C 0.3284(6) 0.0576(6) 1.1283(4)
H20A H 0.3140 0.0514 1.1766
C19A C 0.3806(5) 0.1428(5) 1.0983(4)
H21A H 0.3989 0.1927 1.1274
C20A C 0.4057(5) 0.1556(4) 1.0282(4)
H22A H 0.4415 0.2123 1.0088
C21A C 0.0015(5) -0.2893(4) 0.9194(3)
C22A C -0.0514(6) -0.1857(5) 0.9164(4)
H23A H -0.0630 -0.1657 0.8687
H24A H -0.1241 -0.1833 0.9438
H25A H -0.0015 -0.1404 0.9347
C23A C 0.1224(5) -0.4194(4) 0.9328(2)
C24A C 0.0219(5) -0.4535(5) 0.9108(2)
C25A C 0.0097(6) -0.5587(5) 0.9031(3)
H26A H -0.0573 -0.5834 0.8893
C26A C 0.1037(7) -0.6206(5) 0.9174(3)
H27A H 0.1005 -0.6898 0.9121
C27A C 0.2036(6) -0.5854(5) 0.9394(3)
H28A H 0.2644 -0.6313 0.9490
C28A C 0.2144(5) -0.4844(5) 0.9472(3)
H29A H 0.2814 -0.4607 0.9616
C29A C -0.1713(5) -0.3729(6) 0.8796(3)
C30A C -0.1746(5) -0.3378(6) 0.8014(3)
H30A H -0.1589 -0.2667 0.7962
H31A H -0.2513 -0.3449 0.7871
C31A C -0.0875(5) -0.3981(6) 0.7533(3)
H32A H -0.0931 -0.4699 0.7644
H33A H -0.0102 -0.3807 0.7609
C32A C -0.1094(5) -0.3759(6) 0.6782(3)
H34A H -0.1172 -0.3032 0.6698
H35A H -0.1816 -0.4034 0.6694
C33A C 0.0520(7) -0.2534(6) 0.5781(4)
H36A H 0.1104 -0.2315 0.5434
H37A H -0.0223 -0.2272 0.5653
H38A H 0.0656 -0.2289 0.6227
C34A C 0.0552(5) -0.3640(5) 0.5821(3)
C35A C 0.0961(5) -0.5231(6) 0.5630(3)
C36A C 0.0079(5) -0.5196(5) 0.6179(3)
C37A C -0.0387(6) -0.6054(7) 0.6486(4)
H39A H -0.0981 -0.6017 0.6841
C38A C 0.1414(6) -0.6131(6) 0.5382(4)
H40A H 0.1995 -0.6160 0.5019
C39A C 0.0069(8) -0.6970(7) 0.6242(5)
H41A H -0.0220 -0.7564 0.6441
C40A C 0.0957(8) -0.7030(6) 0.5704(5)
H42A H 0.1251 -0.7660 0.5554
C41A C 0.3602(5) -0.4628(6) 1.3318(3)
C42A C 0.3370(5) -0.3409(4) 1.0806(3)
C43A C 0.3924(4) -0.4752(4) 1.2549(2)
C44A C 0.3532(4) -0.4026(4) 1.2058(2)
H43A H 0.3089 -0.3456 1.2207
C45A C 0.3809(4) -0.4159(4) 1.1347(2)
C46A C 0.4492(4) -0.4992(4) 1.1132(3)
H44A H 0.4698 -0.5061 1.0656
C47A C 0.4882(4) -0.5733(4) 1.1607(3)
C48A C 0.4576(5) -0.5574(5) 1.2324(3)
H45A H 0.4832 -0.6053 1.2654
N1A N 0.3099(4) 0.4074(4) 0.6866(2)
N2A N 0.3937(4) 0.4817(4) 0.5924(2)
N3A N 0.3896(4) 0.0657(3) 0.9148(2)
N4A N 0.3027(4) -0.0692(3) 0.9618(3)
N5A N 0.1063(4) -0.3145(3) 0.9377(2)
N6A N -0.0534(4) -0.3698(4) 0.9027(2)
N7A N -0.0166(4) -0.4187(4) 0.6285(2)
N8A N 0.1233(4) -0.4255(4) 0.5428(2)
N9A N 0.5508(4) -0.6607(4) 1.1387(3)
H46A H 0.5663 -0.6700 1.0948
H47A H 0.5740 -0.7054 1.1691
O1A O 0.3578(4) -0.5388(4) 1.3721(2)
O2A O 0.3329(4) -0.3753(4) 1.3523(2)
O2_2 O 0.6671(4) 1.3753(4) 0.6477(2)
O2A_2 O 0.3329(4) -0.3753(4) 0.3523(2)
O3A O 0.3887(4) -0.3369(3) 1.02107(18)
O4A O 0.2494(4) -0.2849(4) 1.0974(2)
O5 O 0.8627(7) 0.1913(7) 0.7921(4)
H48 H 0.8241 0.2137 0.8264
C49 C 1.0087(14) 0.1071(15) 0.8730(11)
H49 H 1.0895 0.1037 0.8794
H50 H 0.9855 0.0408 0.8649
H51 H 0.9660 0.1325 0.9142
C50 C 0.983(3) 0.1827(18) 0.8057(8)
H52 H 1.0080 0.2494 0.8140
H53 H 1.0286 0.1578 0.7646
O6 O 0.6949(10) 0.1813(6) 0.6923(5)
O7 O 0.7244(11) 0.1746(8) 0.5419(6)
O8 O 0.5288(15) 0.1336(10) 0.4765(7)
O9 O 0.5452(18) 0.0277(13) 0.6923(8)
O10 O 0.6326(9) 0.7445(7) 0.5948(5)
loop_
_geom_bond_atom_site_label_1
_geom_bond_atom_site_label_2
_geom_bond_site_symmetry_1
_geom_bond_site_symmetry_2
Ag1 N2 1_555 1_555
Ag2 N4 1_555 1_555
Ag3 N8 1_555 1_555
C1 C2 1_555 1_555
C2 H1 1_555 1_555
C3 C2 1_555 1_555
H2 C3 1_555 1_555
C4 C3 1_555 1_555
H3 C4 1_555 1_555
C5 C4 1_555 1_555
H4 C5 1_555 1_555
C6 C1 1_555 1_555
C7 C8 1_555 1_555
C8 H5 1_555 1_555
H6 C8 1_555 1_555
H7 C8 1_555 1_555
C9 H8 1_555 1_555
H9 C9 1_555 1_555
C10 C9 1_555 1_555
H10 C10 1_555 1_555
H11 C10 1_555 1_555
C11 C10 1_555 1_555
H12 C11 1_555 1_555
H13 C11 1_555 1_555
C12 C11 1_555 1_555
H14 C12 1_555 1_555
H15 C12 1_555 1_555
C13 H16 1_555 1_555
H17 C13 1_555 1_555
H18 C13 1_555 1_555
C14 C13 1_555 1_555
C15 C16 1_555 1_555
C16 C17 1_555 1_555
C17 H19 1_555 1_555
C18 C17 1_555 1_555
H20 C18 1_555 1_555
C19 C18 1_555 1_555
H21 C19 1_555 1_555
C20 C15 1_555 1_555
H22 C20 1_555 1_555
C21 C22 1_555 1_555
C22 H23 1_555 1_555
H24 C22 1_555 1_555
H25 C22 1_555 1_555
C23 C24 1_555 1_555
C24 C25 1_555 1_555
C25 H26 1_555 1_555
C26 C25 1_555 1_555
H27 C26 1_555 1_555
C27 C26 1_555 1_555
H28 C27 1_555 1_555
C28 C23 1_555 1_555
H29 C28 1_555 1_555
C29 C30 1_555 1_555
C30 H30 1_555 1_555
H31 C30 1_555 1_555
C31 C30 1_555 1_555
H32 C31 1_555 1_555
H33 C31 1_555 1_555
C32 C31 1_555 1_555
H34 C32 1_555 1_555
H35 C32 1_555 1_555
C33 H36 1_555 1_555
H37 C33 1_555 1_555
H38 C33 1_555 1_555
C34 C33 1_555 1_555
C35 C36 1_555 1_555
C36 C37 1_555 1_555
C37 H39 1_555 1_555
C38 C35 1_555 1_555
H40 C38 1_555 1_555
C39 C37 1_555 1_555
H41 C39 1_555 1_555
C40 C38 1_555 1_555
H42 C40 1_555 1_555
C41 C43 1_555 1_555
C42 C45 1_555 1_555
C43 C44 1_555 1_555
C44 H43 1_555 1_555
C45 C44 1_555 1_555
C46 C45 1_555 1_555
H44 C46 1_555 1_555
C47 C46 1_555 1_555
C48 C43 1_555 1_555
H45 C48 1_555 1_555
N1 C6 1_555 1_555
N2 C1 1_555 1_555
N3 C12 1_555 1_555
N4 C14 1_555 1_555
N5 Ag2 1_555 1_555
N6 C21 1_555 1_555
N7 C32 1_555 1_555
N8 C34 1_555 1_555
N9 C47 1_555 1_555
H46 N9 1_555 1_555
H47 N9 1_555 1_555
O1 C41 1_555 1_555
O2 C41 1_555 1_555
O3 Ag2 1_555 1_555
O4 Ag2 1_555 1_555
O5 H48 1_555 1_555
C49 H49 1_555 1_555
H50 C49 1_555 1_555
H51 C49 1_555 1_555
C50 O5 1_555 1_555
H52 C50 1_555 1_555
H53 C50 1_555 1_555
Ag2A N4A 1_555 1_555
Ag3A N8A 1_555 1_555
Ag3_2 O2 1_555 1_555
Ag3A_2 O2A 1_555 1_555
C1A C2A 1_555 1_555
C2A H1A 1_555 1_555
C3A C2A 1_555 1_555
H2A C3A 1_555 1_555
C4A C3A 1_555 1_555
H3A C4A 1_555 1_555
C5A C4A 1_555 1_555
H4A C5A 1_555 1_555
C6A C1A 1_555 1_555
C7A C8A 1_555 1_555
C8A H5A 1_555 1_555
H6A C8A 1_555 1_555
H7A C8A 1_555 1_555
C9A H8A 1_555 1_555
H9A C9A 1_555 1_555
C10A C9A 1_555 1_555
H10A C10A 1_555 1_555
H11A C10A 1_555 1_555
C11A C10A 1_555 1_555
H12A C11A 1_555 1_555
H13A C11A 1_555 1_555
C12A C11A 1_555 1_555
H14A C12A 1_555 1_555
H15A C12A 1_555 1_555
C13A H16A 1_555 1_555
H17A C13A 1_555 1_555
H18A C13A 1_555 1_555
C14A C13A 1_555 1_555
C15A C16A 1_555 1_555
C16A C17A 1_555 1_555
C17A H19A 1_555 1_555
C18A C17A 1_555 1_555
H20A C18A 1_555 1_555
C19A C18A 1_555 1_555
H21A C19A 1_555 1_555
C20A C15A 1_555 1_555
H22A C20A 1_555 1_555
C21A C22A 1_555 1_555
C22A H23A 1_555 1_555
H24A C22A 1_555 1_555
H25A C22A 1_555 1_555
C23A C24A 1_555 1_555
C24A C25A 1_555 1_555
C25A H26A 1_555 1_555
C26A C25A 1_555 1_555
H27A C26A 1_555 1_555
C27A C26A 1_555 1_555
H28A C27A 1_555 1_555
C28A C23A 1_555 1_555
H29A C28A 1_555 1_555
C29A C30A 1_555 1_555
C30A H30A 1_555 1_555
H31A C30A 1_555 1_555
C31A C30A 1_555 1_555
H32A C31A 1_555 1_555
H33A C31A 1_555 1_555
C32A C31A 1_555 1_555
H34A C32A 1_555 1_555
H35A C32A 1_555 1_555
C33A H36A 1_555 1_555
H37A C33A 1_555 1_555
H38A C33A 1_555 1_555
C34A C33A 1_555 1_555
C35A C36A 1_555 1_555
C36A C37A 1_555 1_555
C37A H39A 1_555 1_555
C38A C35A 1_555 1_555
H40A C38A 1_555 1_555
C39A C37A 1_555 1_555
H41A C39A 1_555 1_555
C40A C38A 1_555 1_555
H42A C40A 1_555 1_555
C41A C43A 1_555 1_555
C42A C45A 1_555 1_555
C43A C44A 1_555 1_555
C44A H43A 1_555 1_555
C45A C44A 1_555 1_555
C46A C45A 1_555 1_555
H44A C46A 1_555 1_555
C47A C46A 1_555 1_555
C48A C43A 1_555 1_555
H45A C48A 1_555 1_555
N1A C6A 1_555 1_555
N2A Ag1 1_555 1_555
N3A C12A 1_555 1_555
N4A C14A 1_555 1_555
N5A Ag2A 1_555 1_555
N6A C21A 1_555 1_555
N7A C32A 1_555 1_555
N8A C34A 1_555 1_555
N9A C47A 1_555 1_555
H46A N9A 1_555 1_555
H47A N9A 1_555 1_555
O1A C41A 1_555 1_555
O2A C41A 1_555 1_555
O2_2 Ag3 1_555 1_555
O2A_2 Ag3A 1_555 1_555
O3A Ag2A 1_555 1_555
O4A Ag2A 1_555 1_555
C5 C6 1_555 1_555
C7 N1 1_555 1_555
C7 N2 1_555 1_555
C9 N1 1_555 1_555
C14 N3 1_555 1_555
C15 N3 1_555 1_555
C16 N4 1_555 1_555
C19 C20 1_555 1_555
C21 N5 1_555 1_555
C23 N5 1_555 1_555
C24 N6 1_555 1_555
C27 C28 1_555 1_555
C29 N6 1_555 1_555
C34 N7 1_555 1_555
C35 N8 1_555 1_555
C36 N7 1_555 1_555
C39 C40 1_555 1_555
C42 O3 1_555 1_555
C42 O4 1_555 1_555
C47 C48 1_555 1_555
C49 C50 1_555 1_555
C1A N2A 1_555 1_555
C5A C6A 1_555 1_555
C7A N1A 1_555 1_555
C7A N2A 1_555 1_555
C9A N1A 1_555 1_555
C14A N3A 1_555 1_555
C15A N3A 1_555 1_555
C16A N4A 1_555 1_555
C19A C20A 1_555 1_555
C21A N5A 1_555 1_555
C23A N5A 1_555 1_555
C24A N6A 1_555 1_555
C27A C28A 1_555 1_555
C29A N6A 1_555 1_555
C34A N7A 1_555 1_555
C35A N8A 1_555 1_555
C36A N7A 1_555 1_555
C39A C40A 1_555 1_555
C42A O3A 1_555 1_555
C42A O4A 1_555 1_555
C47A C48A 1_555 1_555

#END
