
#######################################################################
#
#                 Cambridge Crystallographic Data Centre
#                                CCDC 
#
#######################################################################
#
# If this CIF has been generated from an entry in the Cambridge 
# Structural Database, then it will include bibliographic, chemical, 
# crystal, experimental, refinement or atomic coordinate data resulting 
# from the CCDC's data processing and validation procedures.
#
#######################################################################

data_EBISAL
_symmetry_cell_setting           monoclinic
_symmetry_space_group_name_H-M   'P 21/n'
_symmetry_Int_Tables_number      14
_space_group_name_Hall           '-P 2yn'
loop_
_symmetry_equiv_pos_site_id
_symmetry_equiv_pos_as_xyz
1 x,y,z
2 1/2-x,1/2+y,1/2-z
3 -x,-y,-z
4 1/2+x,1/2-y,1/2+z
_cell_length_a                   10.3571(2)
_cell_length_b                   16.6387(4)
_cell_length_c                   15.4241(4)
_cell_angle_alpha                90
_cell_angle_beta                 98.106(2)
_cell_angle_gamma                90
_cell_volume                     2631.46
loop_
_atom_site_label
_atom_site_type_symbol
_atom_site_fract_x
_atom_site_fract_y
_atom_site_fract_z
Ag1 Ag 0.32219(2) 0.083160(16) 0.116788(16)
Ag2 Ag -0.81170(2) 0.410060(17) 0.368640(18)
C1 C -0.5282(3) 0.3019(2) 0.4072(2)
H1 H -0.5776 0.3353 0.4413
H2 H -0.4390 0.3194 0.4150
H3 H -0.5322 0.2471 0.4262
C2 C -0.5830(3) 0.30772(18) 0.31424(19)
C3 C -0.7042(3) 0.34040(17) 0.1938(2)
C4 C -0.7957(3) 0.3734(2) 0.1293(2)
H4 H -0.8630 0.4057 0.1434
C5 C -0.7827(3) 0.3565(3) 0.0437(3)
H5 H -0.8406 0.3796 -0.0009
C6 C -0.6856(4) 0.3057(3) 0.0221(2)
H6 H -0.6824 0.2938 -0.0364
C7 C -0.5947(3) 0.2731(2) 0.0849(2)
H7 H -0.5295 0.2393 0.0703
C8 C -0.6036(3) 0.29217(18) 0.17055(19)
C9 C -0.4128(3) 0.21983(18) 0.2589(2)
H8 H -0.4188 0.1833 0.2095
H9 H -0.4116 0.1877 0.3115
C10 C -0.2856(3) 0.26641(17) 0.2646(2)
H10 H -0.2744 0.2989 0.3173
H11 H -0.2890 0.3022 0.2147
C11 C -0.1700(3) 0.20946(18) 0.2661(2)
H12 H -0.1722 0.1702 0.3124
H13 H -0.1771 0.1808 0.2109
C12 C -0.0418(3) 0.25384(18) 0.2809(2)
H14 H -0.0424 0.2956 0.2369
H15 H -0.0325 0.2796 0.3378
C13 C 0.1568(3) 0.17220(17) 0.3471(2)
C14 C 0.1622(3) 0.1808(2) 0.4367(2)
H16 H 0.1020 0.2123 0.4607
C15 C 0.2610(4) 0.1406(2) 0.4888(2)
H17 H 0.2667 0.1443 0.5494
C16 C 0.3517(3) 0.0950(2) 0.4529(2)
H18 H 0.4166 0.0685 0.4900
C17 C 0.3488(3) 0.08754(19) 0.3637(2)
H19 H 0.4112 0.0575 0.3402
C18 C 0.2493(3) 0.12660(17) 0.31011(19)
C19 C 0.1114(3) 0.17221(18) 0.2030(2)
C20 C 0.0429(3) 0.1873(2) 0.1138(2)
H20 H 0.1017 0.1782 0.0719
H21 H 0.0129 0.2420 0.1095
H22 H -0.0303 0.1517 0.1020
C21 C 0.2284(3) 0.0113(2) -0.0604(2)
C22 C 0.1887(3) 0.00577(16) -0.1582(2)
C23 C 0.0555(3) 0.00661(18) -0.1914(2)
H23 H -0.0061 0.0066 -0.1530
C24 C 0.0151(3) 0.00749(19) -0.2800(3)
H24 H -0.0737 0.0069 -0.3008
C25 C 0.1024(4) 0.0092(2) -0.3378(3)
H25 H 0.0736 0.0107 -0.3977
C26 C 0.2357(3) 0.00851(18) -0.3068(2)
H26 H 0.2959 0.0098 -0.3462
C27 C 0.2784(3) 0.00596(17) -0.21794(19)
C28 C 0.4228(3) -0.00106(18) -0.1880(2)
N1 N 0.0711(2) 0.20074(14) 0.27678(16)
N2 N 0.2182(2) 0.12862(15) 0.21969(16)
N3 N -0.5287(2) 0.27150(14) 0.24892(16)
N4 N -0.6891(2) 0.34901(14) 0.28391(16)
O1 O 0.1961(2) -0.04455(16) -0.01362(16)
O2 O 0.2886(2) 0.07397(14) -0.03293(14)
O3 O 0.45777(18) -0.04898(14) -0.12632(14)
O4 O 0.4985(2) 0.03858(14) -0.22772(15)
O5 O -0.9576(2) 0.37031(13) 0.46857(16)
H27 H -1.035(2) 0.385(2) 0.449(2)
H28 H -0.929(3) 0.394(2) 0.5176(16)
Ag1A Ag -0.82219(2) 0.583160(16) 0.383212(16)
Ag1B Ag 0.67781(2) -0.083160(16) -0.116788(16)
Ag2A Ag 0.31170(2) -0.089940(17) 0.131360(18)
Ag2C Ag 0.68830(2) 0.089940(17) -0.131360(18)
O1A O -0.6961(2) 0.45545(16) 0.51362(16)
O3B O 0.54223(18) 0.04898(14) 0.12632(14)
O4C O -1.0015(2) 0.46142(14) 0.27228(15)
loop_
_geom_bond_atom_site_label_1
_geom_bond_atom_site_label_2
_geom_bond_site_symmetry_1
_geom_bond_site_symmetry_2
Ag1 N2 1_555 1_555
Ag2 N4 1_555 1_555
C1 H1 1_555 1_555
H2 C1 1_555 1_555
H3 C1 1_555 1_555
C2 C1 1_555 1_555
C3 C4 1_555 1_555
C4 H4 1_555 1_555
C5 C4 1_555 1_555
H5 C5 1_555 1_555
C6 C5 1_555 1_555
H6 C6 1_555 1_555
C7 C6 1_555 1_555
H7 C7 1_555 1_555
C8 C3 1_555 1_555
C9 H8 1_555 1_555
H9 C9 1_555 1_555
C10 C9 1_555 1_555
H10 C10 1_555 1_555
H11 C10 1_555 1_555
C11 C10 1_555 1_555
H12 C11 1_555 1_555
H13 C11 1_555 1_555
C12 C11 1_555 1_555
H14 C12 1_555 1_555
H15 C12 1_555 1_555
C13 C14 1_555 1_555
C14 H16 1_555 1_555
C15 C14 1_555 1_555
H17 C15 1_555 1_555
C16 C15 1_555 1_555
H18 C16 1_555 1_555
C17 C16 1_555 1_555
H19 C17 1_555 1_555
C18 C13 1_555 1_555
C19 C20 1_555 1_555
C20 H20 1_555 1_555
H21 C20 1_555 1_555
H22 C20 1_555 1_555
C21 C22 1_555 1_555
C22 C23 1_555 1_555
C23 H23 1_555 1_555
C24 C23 1_555 1_555
H24 C24 1_555 1_555
C25 C24 1_555 1_555
H25 C25 1_555 1_555
C26 C25 1_555 1_555
H26 C26 1_555 1_555
C27 C22 1_555 1_555
C28 C27 1_555 1_555
N1 C12 1_555 1_555
N2 C18 1_555 1_555
N3 C2 1_555 1_555
N4 C2 1_555 1_555
O1 C21 1_555 1_555
O2 Ag1 1_555 1_555
O3 C28 1_555 1_555
O4 C28 1_555 1_555
O5 Ag2 1_555 1_555
H27 O5 1_555 1_555
H28 O5 1_555 1_555
Ag1A Ag2 1_555 1_555
Ag1B O3 1_555 1_555
Ag2A Ag1 1_555 1_555
Ag2C O4 1_555 1_555
O1A Ag2 1_555 1_555
O3B Ag1 1_555 1_555
O4C Ag2 1_555 1_555
C3 N4 1_555 1_555
C7 C8 1_555 1_555
C8 N3 1_555 1_555
C9 N3 1_555 1_555
C13 N1 1_555 1_555
C17 C18 1_555 1_555
C19 N1 1_555 1_555
C19 N2 1_555 1_555
C21 O2 1_555 1_555
C26 C27 1_555 1_555
O1 Ag2A 1_555 1_555
Ag1B Ag2C 1_555 1_555

#END
