
#######################################################################
#
#                 Cambridge Crystallographic Data Centre
#                                CCDC 
#
#######################################################################
#
# If this CIF has been generated from an entry in the Cambridge 
# Structural Database, then it will include bibliographic, chemical, 
# crystal, experimental, refinement or atomic coordinate data resulting 
# from the CCDC's data processing and validation procedures.
#
#######################################################################

data_EBITAM
_symmetry_cell_setting           triclinic
_symmetry_space_group_name_H-M   'P -1'
_symmetry_Int_Tables_number      2
_space_group_name_Hall           '-P 1'
loop_
_symmetry_equiv_pos_site_id
_symmetry_equiv_pos_as_xyz
1 x,y,z
2 -x,-y,-z
_cell_length_a                   8.3392(8)
_cell_length_b                   10.5200(10)
_cell_length_c                   11.0835(11)
_cell_angle_alpha                71.219(2)
_cell_angle_beta                 79.807(2)
_cell_angle_gamma                75.307(2)
_cell_volume                     885.628
loop_
_atom_site_label
_atom_site_type_symbol
_atom_site_fract_x
_atom_site_fract_y
_atom_site_fract_z
Zn1 Zn 0.37957(3) 0.90306(3) 0.90526(3)
Cl1 Cl -0.13116(9) 1.17838(9) 0.75801(8)
Cl2 Cl 0.11147(18) 1.63723(10) 0.60168(12)
Cl3 Cl 0.44159(13) 1.47215(9) 0.72642(9)
O1 O 0.5244(2) 1.06141(19) 0.8609(2)
N1 N 0.2322(3) 0.7563(2) 0.9442(2)
C1 C 0.2976(3) 1.2516(3) 0.8053(3)
O2 O 0.1857(2) 1.05017(19) 0.8639(2)
C2 C 0.1744(3) 1.1802(3) 0.8087(3)
O3 O 0.4677(2) 1.21765(19) 0.96646(19)
C3 C 0.0284(3) 1.2606(3) 0.7498(3)
N2 N 0.6792(4) 0.8801(3) 0.5635(3)
O4 O 0.5070(3) 0.8473(2) 0.7471(2)
C4 C 0.0111(4) 1.3979(3) 0.6892(3)
H1 H -0.0865 1.4472 0.6524
C5 C 0.1353(5) 1.4635(3) 0.6822(3)
C6 C 0.2801(4) 1.3906(3) 0.7411(3)
C7 C 0.4425(3) 1.1718(3) 0.8806(3)
C8 C 0.2953(4) 0.6244(3) 0.9963(4)
H2 H 0.4037 0.6000 1.0188
C9 C 0.2107(4) 0.5220(3) 1.0192(4)
H3 H 0.2619 0.4311 1.0556
C10 C 0.0486(3) 0.5539(3) 0.9879(3)
C11 C -0.0194(4) 0.6925(3) 0.9369(3)
H4 H -0.1290 0.7199 0.9167
C12 C 0.0740(4) 0.7892(3) 0.9161(3)
H5 H 0.0258 0.8812 0.8811
C13 C 0.6124(4) 0.9060(4) 0.6712(3)
H6 H 0.6461 0.9732 0.6924
C14 C 0.7991(5) 0.9543(5) 0.4773(4)
H7 H 0.8095 1.0270 0.5083
H8 H 0.7619 0.9926 0.3934
H9 H 0.9054 0.8926 0.4732
C15 C 0.6366(6) 0.7737(5) 0.5270(4)
H10 H 0.5236 0.7670 0.5599
H11 H 0.7100 0.6875 0.5615
H12 H 0.6478 0.7959 0.4352
Zn1A Zn -0.37957(3) 0.09694(3) 1.09474(3)
Zn1_2 Zn -0.62043(3) -0.09694(3) 0.90526(3)
Zn1A_2 Zn 0.62043(3) 1.09694(3) 1.09474(3)
Cl1A Cl 0.13116(9) -0.17838(9) 1.24199(8)
Cl2A Cl -0.11147(18) -0.63723(10) 1.39832(12)
Cl3A Cl -0.44159(13) -0.47215(9) 1.27358(9)
O1A O -0.5244(2) -0.06141(19) 1.1391(2)
N1A N -0.2322(3) 0.2437(2) 1.0558(2)
C1A C -0.2976(3) -0.2516(3) 1.1947(3)
O2A O -0.1857(2) -0.05017(19) 1.1361(2)
C2A C -0.1744(3) -0.1802(3) 1.1913(3)
O3A O -0.4677(2) -0.21765(19) 1.03354(19)
O3_2 O -0.5323(2) 0.21765(19) 0.96646(19)
O3A_2 O 0.5323(2) 0.78235(19) 1.03354(19)
C3A C -0.0284(3) -0.2606(3) 1.2502(3)
N2A N -0.6792(4) 0.1199(3) 1.4365(3)
O4A O -0.5070(3) 0.1527(2) 1.2529(2)
C4A C -0.0111(4) -0.3979(3) 1.3108(3)
H1A H 0.0865 -0.4472 1.3476
C5A C -0.1353(5) -0.4635(3) 1.3178(3)
C6A C -0.2801(4) -0.3906(3) 1.2589(3)
C7A C -0.4425(3) -0.1718(3) 1.1194(3)
C8A C -0.2953(4) 0.3756(3) 1.0037(4)
H2A H -0.4037 0.4000 0.9812
C9A C -0.2107(4) 0.4780(3) 0.9808(4)
H3A H -0.2619 0.5689 0.9444
C10A C -0.0486(3) 0.4461(3) 1.0121(3)
C11A C 0.0194(4) 0.3075(3) 1.0631(3)
H4A H 0.1290 0.2801 1.0833
C12A C -0.0740(4) 0.2108(3) 1.0839(3)
H5A H -0.0258 0.1188 1.1189
C13A C -0.6124(4) 0.0940(4) 1.3288(3)
H6A H -0.6461 0.0268 1.3076
C14A C -0.7991(5) 0.0457(5) 1.5227(4)
H7A H -0.8095 -0.0270 1.4917
H8A H -0.7619 0.0074 1.6066
H9A H -0.9054 0.1074 1.5268
C15A C -0.6366(6) 0.2263(5) 1.4730(4)
H10A H -0.5236 0.2330 1.4401
H11A H -0.7100 0.3125 1.4385
H12A H -0.6478 0.2041 1.5648
loop_
_geom_bond_atom_site_label_1
_geom_bond_atom_site_label_2
_geom_bond_site_symmetry_1
_geom_bond_site_symmetry_2
Zn1 O1 1_555 1_555
Cl1 C3 1_555 1_555
Cl2 C5 1_555 1_555
Cl3 C6 1_555 1_555
O1 C7 1_555 1_555
N1 Zn1 1_555 1_555
C1 C2 1_555 1_555
O2 Zn1 1_555 1_555
C2 O2 1_555 1_555
O3 C7 1_555 1_555
C3 C2 1_555 1_555
N2 C13 1_555 1_555
O4 Zn1 1_555 1_555
C4 C3 1_555 1_555
H1 C4 1_555 1_555
C5 C4 1_555 1_555
C6 C1 1_555 1_555
C7 C1 1_555 1_555
C8 N1 1_555 1_555
H2 C8 1_555 1_555
C9 C8 1_555 1_555
H3 C9 1_555 1_555
C10 C9 1_555 1_555
C11 C10 1_555 1_555
H4 C11 1_555 1_555
C12 N1 1_555 1_555
H5 C12 1_555 1_555
C13 O4 1_555 1_555
H6 C13 1_555 1_555
C14 N2 1_555 1_555
H7 C14 1_555 1_555
H8 C14 1_555 1_555
H9 C14 1_555 1_555
C15 N2 1_555 1_555
H10 C15 1_555 1_555
H11 C15 1_555 1_555
H12 C15 1_555 1_555
Zn1A O1A 1_555 1_555
Zn1_2 O3A 1_555 1_555
Zn1A_2 O3 1_555 1_555
Cl1A C3A 1_555 1_555
Cl2A C5A 1_555 1_555
Cl3A C6A 1_555 1_555
O1A C7A 1_555 1_555
N1A Zn1A 1_555 1_555
C1A C2A 1_555 1_555
O2A Zn1A 1_555 1_555
C2A O2A 1_555 1_555
O3A C7A 1_555 1_555
O3_2 Zn1A 1_555 1_555
O3A_2 Zn1 1_555 1_555
C3A C2A 1_555 1_555
N2A C13A 1_555 1_555
O4A Zn1A 1_555 1_555
C4A C3A 1_555 1_555
H1A C4A 1_555 1_555
C5A C4A 1_555 1_555
C6A C1A 1_555 1_555
C7A C1A 1_555 1_555
C8A N1A 1_555 1_555
H2A C8A 1_555 1_555
C9A C8A 1_555 1_555
H3A C9A 1_555 1_555
C10A C10 1_555 1_555
C11A C10A 1_555 1_555
H4A C11A 1_555 1_555
C12A N1A 1_555 1_555
H5A C12A 1_555 1_555
C13A O4A 1_555 1_555
H6A C13A 1_555 1_555
C14A N2A 1_555 1_555
H7A C14A 1_555 1_555
H8A C14A 1_555 1_555
H9A C14A 1_555 1_555
C15A N2A 1_555 1_555
H10A C15A 1_555 1_555
H11A C15A 1_555 1_555
H12A C15A 1_555 1_555
C5 C6 1_555 1_555
C11 C12 1_555 1_555
C5A C6A 1_555 1_555
C9A C10A 1_555 1_555
C11A C12A 1_555 1_555

#END
