
#######################################################################
#
#                 Cambridge Crystallographic Data Centre
#                                CCDC 
#
#######################################################################
#
# If this CIF has been generated from an entry in the Cambridge 
# Structural Database, then it will include bibliographic, chemical, 
# crystal, experimental, refinement or atomic coordinate data resulting 
# from the CCDC's data processing and validation procedures.
#
#######################################################################

data_EBITEQ
_symmetry_cell_setting           monoclinic
_symmetry_space_group_name_H-M   'C 2/c'
_symmetry_Int_Tables_number      15
_space_group_name_Hall           '-C 2yn'
loop_
_symmetry_equiv_pos_site_id
_symmetry_equiv_pos_as_xyz
1 x,y,z
2 -x,y,1/2-z
3 1/2+x,1/2+y,z
4 1/2-x,1/2+y,1/2-z
5 -x,-y,-z
6 x,-y,1/2+z
7 1/2-x,1/2-y,-z
8 1/2+x,1/2-y,1/2+z
_cell_length_a                   20.5213(11)
_cell_length_b                   9.4618(5)
_cell_length_c                   16.9888(9)
_cell_angle_alpha                90
_cell_angle_beta                 126.518(2)
_cell_angle_gamma                90
_cell_volume                     2651.06
loop_
_atom_site_label
_atom_site_type_symbol
_atom_site_fract_x
_atom_site_fract_y
_atom_site_fract_z
Zn1 Zn 0.0000 0.37195(6) 0.2500
Cl1 Cl 0.22515(7) -0.20092(14) 0.16737(10)
Cl2 Cl 0.02867(6) 0.12992(11) -0.14213(7)
Cl3 Cl -0.00539(6) 0.31745(10) -0.02212(7)
N1 N 0.09599(17) 0.5026(3) 0.3425(2)
O1 O 0.01441(16) 0.2959(3) 0.15472(19)
C1 C 0.08992(19) 0.1340(4) 0.1308(2)
O2 O 0.10629(16) 0.1671(3) 0.28063(19)
C2 C 0.1445(2) 0.0186(4) 0.1731(3)
O3 O 0.18043(15) -0.0200(3) 0.26587(19)
H1 H 0.1646 0.0310 0.2904
C3 C 0.1601(2) -0.0581(4) 0.1156(3)
C4 C 0.1247(2) -0.0236(4) 0.0203(3)
H2 H 0.1350 -0.0771 -0.0170
C5 C 0.0731(2) 0.0920(4) -0.0205(3)
C6 C 0.0565(2) 0.1716(4) 0.0339(3)
C7 C 0.0695(2) 0.2038(4) 0.1930(3)
C8 C 0.1270(2) 0.5879(4) 0.3100(3)
H3 H 0.1069 0.5820 0.2445
C9 C 0.1877(2) 0.6844(4) 0.3692(3)
H4 H 0.2079 0.7411 0.3436
C10 C 0.21852(19) 0.6966(4) 0.4672(2)
C11 C 0.1874(2) 0.6041(4) 0.5010(3)
H5 H 0.2072 0.6056 0.5665
C12 C 0.1273(2) 0.5105(4) 0.4372(3)
H6 H 0.1074 0.4497 0.4614
Zn1F Zn 0.5000 1.12805(6) 0.7500
Cl1A Cl -0.22515(7) -0.20092(14) 0.33263(10)
Cl2A Cl -0.02867(6) 0.12992(11) 0.64213(7)
Cl3A Cl 0.00539(6) 0.31745(10) 0.52212(7)
N1F N 0.40401(17) 0.9974(3) 0.6575(2)
N1A N -0.09599(17) 0.5026(3) 0.1575(2)
O1A O -0.01441(16) 0.2959(3) 0.34528(19)
C1A C -0.08992(19) 0.1340(4) 0.3692(2)
O2A O -0.10629(16) 0.1671(3) 0.21937(19)
C2A C -0.1445(2) 0.0186(4) 0.3269(3)
O3A O -0.18043(15) -0.0200(3) 0.23413(19)
H1A H -0.1646 0.0310 0.2096
C3A C -0.1601(2) -0.0581(4) 0.3844(3)
C4A C -0.1247(2) -0.0236(4) 0.4797(3)
H2A H -0.1350 -0.0771 0.5170
C5A C -0.0731(2) 0.0920(4) 0.5205(3)
C6A C -0.0565(2) 0.1716(4) 0.4661(3)
C7A C -0.0695(2) 0.2038(4) 0.3070(3)
C8F C 0.3730(2) 0.9121(4) 0.6900(3)
H3F H 0.3931 0.9180 0.7555
C9F C 0.3123(2) 0.8156(4) 0.6308(3)
H4F H 0.2921 0.7589 0.6564
C10F C 0.28148(19) 0.8034(4) 0.5328(2)
C11F C 0.3126(2) 0.8959(4) 0.4990(3)
H5F H 0.2928 0.8944 0.4335
C12F C 0.3727(2) 0.9895(4) 0.5628(3)
H6F H 0.3926 1.0503 0.5386
loop_
_geom_bond_atom_site_label_1
_geom_bond_atom_site_label_2
_geom_bond_site_symmetry_1
_geom_bond_site_symmetry_2
Zn1 N1 1_555 1_555
Cl1 C3 1_555 1_555
Cl2 C5 1_555 1_555
Cl3 C6 1_555 1_555
N1 C8 1_555 1_555
O1 Zn1 1_555 1_555
C1 C2 1_555 1_555
O2 C7 1_555 1_555
C2 O3 1_555 1_555
O3 H1 1_555 1_555
C3 C2 1_555 1_555
C4 C3 1_555 1_555
H2 C4 1_555 1_555
C5 C4 1_555 1_555
C6 C1 1_555 1_555
C7 O1 1_555 1_555
C8 H3 1_555 1_555
C9 C8 1_555 1_555
H4 C9 1_555 1_555
C10 C9 1_555 1_555
C11 C10 1_555 1_555
H5 C11 1_555 1_555
C12 N1 1_555 1_555
H6 C12 1_555 1_555
Zn1F N1F 1_555 1_555
Cl1A C3A 1_555 1_555
Cl2A C5A 1_555 1_555
Cl3A C6A 1_555 1_555
N1F C8F 1_555 1_555
N1A Zn1 1_555 1_555
O1A Zn1 1_555 1_555
C1A C2A 1_555 1_555
O2A C7A 1_555 1_555
C2A O3A 1_555 1_555
O3A H1A 1_555 1_555
C3A C2A 1_555 1_555
C4A C3A 1_555 1_555
H2A C4A 1_555 1_555
C5A C4A 1_555 1_555
C6A C1A 1_555 1_555
C7A O1A 1_555 1_555
C8F H3F 1_555 1_555
C9F C8F 1_555 1_555
H4F C9F 1_555 1_555
C10F C10 1_555 1_555
C11F C10F 1_555 1_555
H5F C11F 1_555 1_555
C12F N1F 1_555 1_555
H6F C12F 1_555 1_555
C1 C7 1_555 1_555
C5 C6 1_555 1_555
C11 C12 1_555 1_555
C1A C7A 1_555 1_555
C5A C6A 1_555 1_555
C9F C10F 1_555 1_555
C11F C12F 1_555 1_555

#END
