
#######################################################################
#
#                 Cambridge Crystallographic Data Centre
#                                CCDC 
#
#######################################################################
#
# If this CIF has been generated from an entry in the Cambridge 
# Structural Database, then it will include bibliographic, chemical, 
# crystal, experimental, refinement or atomic coordinate data resulting 
# from the CCDC's data processing and validation procedures.
#
#######################################################################

data_EBITOZ
_symmetry_cell_setting           monoclinic
_symmetry_space_group_name_H-M   'P 21/c'
_symmetry_Int_Tables_number      14
_space_group_name_Hall           '-P 2ybc'
loop_
_symmetry_equiv_pos_site_id
_symmetry_equiv_pos_as_xyz
1 x,y,z
2 x,1/2-y,1/2+z
3 -x,-y,-z
4 -x,1/2+y,1/2-z
_cell_length_a                   11.8932(3)
_cell_length_b                   20.1658(4)
_cell_length_c                   14.0997(3)
_cell_angle_alpha                90
_cell_angle_beta                 99.4465(6)
_cell_angle_gamma                90
_cell_volume                     3335.76
loop_
_atom_site_label
_atom_site_type_symbol
_atom_site_fract_x
_atom_site_fract_y
_atom_site_fract_z
Ag1 Ag 0.75789(2) 0.245268(14) 0.45396(2)
Ag2 Ag 1.24511(3) 0.017359(15) 1.20472(2)
Br1 Br 1.39617(3) 0.341950(16) 0.82351(3)
Br2 Br 0.12442(3) 0.163071(16) 0.08812(3)
N5 N 0.9277(2) 0.20493(13) 0.73712(19)
N6 N 0.8407(2) 0.20889(14) 0.5870(2)
N7 N 1.3655(2) 0.06164(12) 0.9489(2)
N8 N 1.3404(3) 0.02814(14) 1.0919(2)
N9 N 0.5813(2) 0.30445(14) 0.1804(2)
N10 N 0.6721(2) 0.28874(14) 0.3269(2)
N11 N 0.1318(2) 0.44518(12) -0.0332(2)
N12 N 0.1541(3) 0.47319(13) -0.1796(2)
C1 C 1.1203(3) 0.21893(16) 0.8323(2)
C2 C 1.1692(3) 0.15611(15) 0.8369(2)
H1 H 1.1226 0.1182 0.8400
C3 C 1.2839(3) 0.14819(15) 0.8370(2)
C4 C 1.3520(3) 0.20346(15) 0.8325(2)
H2 H 1.4313 0.1986 0.8320
C5 C 1.3028(3) 0.26592(15) 0.8288(2)
C6 C 1.1880(3) 0.27417(15) 0.8289(2)
H3 H 1.1557 0.3174 0.8267
C7 C 0.9926(3) 0.22607(18) 0.8296(2)
H4 H 0.9693 0.1990 0.8817
H5 H 0.9745 0.2730 0.8413
C8 C 0.8894(3) 0.24390(17) 0.6615(3)
H6 H 0.8965 0.2908 0.6616
C9 C 0.8490(3) 0.14405(18) 0.6169(3)
H7 H 0.8217 0.1069 0.5785
C10 C 0.9019(3) 0.14103(17) 0.7091(3)
H8 H 0.9180 0.1022 0.7471
C11 C 1.3368(3) 0.07961(15) 0.8470(2)
H9 H 1.2825 0.0469 0.8131
H10 H 1.4066 0.0790 0.8172
C12 C 1.2943(3) 0.03187(16) 1.0001(3)
H11 H 1.2207 0.0157 0.9740
C13 C 1.4461(3) 0.05794(16) 1.0991(3)
H12 H 1.4992 0.0631 1.1567
C14 C 1.4621(3) 0.07873(16) 1.0106(3)
H13 H 1.5272 0.1007 0.9949
C15 C 0.3917(3) 0.29356(16) 0.0811(2)
C16 C 0.3379(3) 0.35471(16) 0.0768(2)
H14 H 0.3812 0.3940 0.0734
C17 C 0.2220(3) 0.35940(15) 0.0775(2)
C18 C 0.1582(3) 0.30182(15) 0.0806(2)
H15 H 0.0784 0.3043 0.0803
C19 C 0.2120(3) 0.24133(15) 0.0841(2)
C20 C 0.3280(3) 0.23610(16) 0.0840(2)
H16 H 0.3635 0.1938 0.0858
C21 C 0.5194(3) 0.2900(2) 0.0839(3)
H17 H 0.5402 0.2451 0.0642
H18 H 0.5420 0.3223 0.0376
C22 C 0.6292(3) 0.25963(18) 0.2451(3)
H19 H 0.6317 0.2133 0.2336
C23 C 0.6490(3) 0.35580(17) 0.3144(3)
H20 H 0.6689 0.3892 0.3616
C24 C 0.5933(3) 0.36589(18) 0.2238(3)
H21 H 0.5676 0.4071 0.1957
C25 C 0.1637(3) 0.42666(16) 0.0687(2)
H22 H 0.2158 0.4605 0.1025
H23 H 0.0946 0.4251 0.0994
C26 C 0.2048(3) 0.46940(16) -0.0891(3)
H24 H 0.2816 0.4819 -0.0664
C27 C 0.0458(3) 0.45029(18) -0.1819(3)
H25 H -0.0101 0.4469 -0.2381
C28 C 0.0296(3) 0.43298(16) -0.0921(3)
H26 H -0.0382 0.4160 -0.0738
N12A N 1.1541(3) 0.02681(13) 1.3204(2)
Ag2A Ag 0.24511(3) 0.482641(15) -0.29528(2)
O8 O 0.6914(9) 0.3914(6) 0.6759(10)
O10 O 0.8398(8) 0.4111(4) 0.6400(8)
O12 O 0.7093(9) 0.3602(8) 0.5543(11)
N4 N 0.7514(6) 0.3858(4) 0.6139(6)
O15 O 0.7647(7) 0.3886(5) 0.8750(7)
O1? O 0.5898(5) 0.4379(3) 0.9777(5)
O2? O 0.5031(14) 0.4904(11) 0.8356(12)
O3? O 0.4678(5) 0.5179(3) 0.9570(4)
O4? O 0.9507(5) 0.0427(3) 1.0612(4)
O5? O 0.9894(6) 0.0285(4) 0.9180(6)
O6? O 0.8713(7) 0.1031(5) 0.9455(7)
O7? O 0.6929(7) 0.4323(4) 0.7615(5)
O9? O 0.8123(5) 0.3542(3) 0.8125(5)
O11? O 0.7316(9) 0.4132(5) 0.9074(6)
O13? O 0.5399(15) 0.4787(11) 0.8392(12)
O14? O 0.9116(8) 0.0729(5) 0.9146(7)
O16? O 0.747(2) 0.3716(10) 0.5631(17)
N1? N 0.5307(6) 0.4786(3) 0.9222(5)
N2? N 0.9377(6) 0.0579(4) 0.9729(5)
N3? N 0.7472(6) 0.3993(3) 0.8254(5)
loop_
_geom_bond_atom_site_label_1
_geom_bond_atom_site_label_2
_geom_bond_site_symmetry_1
_geom_bond_site_symmetry_2
Ag1 N6 1_555 1_555
Ag2 N8 1_555 1_555
Br1 C5 1_555 1_555
Br2 C19 1_555 1_555
O8 N4 1_555 1_555
O10 N4 1_555 1_555
O12 N4 1_555 1_555
N5 C7 1_555 1_555
N6 C8 1_555 1_555
N7 C11 1_555 1_555
N8 C12 1_555 1_555
N9 C21 1_555 1_555
N10 Ag1 1_555 1_555
N11 C25 1_555 1_555
N12 C26 1_555 1_555
C1 C2 1_555 1_555
C2 H1 1_555 1_555
C3 C2 1_555 1_555
C4 C3 1_555 1_555
H2 C4 1_555 1_555
C5 C4 1_555 1_555
C6 C1 1_555 1_555
H3 C6 1_555 1_555
C7 C1 1_555 1_555
H4 C7 1_555 1_555
H5 C7 1_555 1_555
C8 N5 1_555 1_555
H6 C8 1_555 1_555
C9 N6 1_555 1_555
H7 C9 1_555 1_555
C10 N5 1_555 1_555
H8 C10 1_555 1_555
C11 C3 1_555 1_555
H9 C11 1_555 1_555
H10 C11 1_555 1_555
C12 N7 1_555 1_555
H11 C12 1_555 1_555
C13 N8 1_555 1_555
H12 C13 1_555 1_555
C14 N7 1_555 1_555
H13 C14 1_555 1_555
C15 C16 1_555 1_555
C16 H14 1_555 1_555
C17 C16 1_555 1_555
C18 C17 1_555 1_555
H15 C18 1_555 1_555
C19 C18 1_555 1_555
C20 C15 1_555 1_555
H16 C20 1_555 1_555
C21 C15 1_555 1_555
H17 C21 1_555 1_555
H18 C21 1_555 1_555
C22 N9 1_555 1_555
H19 C22 1_555 1_555
C23 N10 1_555 1_555
H20 C23 1_555 1_555
C24 N9 1_555 1_555
H21 C24 1_555 1_555
C25 C17 1_555 1_555
H22 C25 1_555 1_555
H23 C25 1_555 1_555
C26 N11 1_555 1_555
H24 C26 1_555 1_555
C27 N12 1_555 1_555
H25 C27 1_555 1_555
C28 N11 1_555 1_555
H26 C28 1_555 1_555
N12A Ag2 1_555 1_555
Ag2A N12 1_555 1_555
N10 C22 1_555 1_555
C5 C6 1_555 1_555
C9 C10 1_555 1_555
C13 C14 1_555 1_555
C19 C20 1_555 1_555
C23 C24 1_555 1_555
C27 C28 1_555 1_555

#END
