
#######################################################################
#
#                 Cambridge Crystallographic Data Centre
#                                CCDC 
#
#######################################################################
#
# If this CIF has been generated from an entry in the Cambridge 
# Structural Database, then it will include bibliographic, chemical, 
# crystal, experimental, refinement or atomic coordinate data resulting 
# from the CCDC's data processing and validation procedures.
#
#######################################################################

data_EBITUF
_symmetry_cell_setting           orthorhombic
_symmetry_space_group_name_H-M   'P n m a'
_symmetry_Int_Tables_number      62
_space_group_name_Hall           '-P 2ac 2n'
loop_
_symmetry_equiv_pos_site_id
_symmetry_equiv_pos_as_xyz
1 x,y,z
2 1/2+x,y,1/2-z
3 x,1/2-y,z
4 1/2-x,1/2+y,1/2+z
5 -x,-y,-z
6 1/2-x,-y,1/2+z
7 -x,1/2+y,-z
8 1/2+x,1/2-y,1/2-z
_cell_length_a                   8.3819(12)
_cell_length_b                   12.6782(18)
_cell_length_c                   16.162(2)
_cell_angle_alpha                90
_cell_angle_beta                 90
_cell_angle_gamma                90
_cell_volume                     1717.49
loop_
_atom_site_label
_atom_site_type_symbol
_atom_site_fract_x
_atom_site_fract_y
_atom_site_fract_z
Ag1 Ag 0.5000 0.0000 0.5000
Br1 Br 0.99463(11) -0.2500 0.93023(5)
N1 N 0.7047(5) 0.0219(4) 0.5714(3)
N2 N 0.9415(5) -0.0030(4) 0.6269(3)
C1 C 0.8343(7) -0.0366(4) 0.5710(3)
H1 H 0.8498 -0.0942 0.5362
C2 C 0.7304(8) 0.0949(5) 0.6308(4)
H2 H 0.6590 0.1480 0.6452
C3 C 0.8732(9) 0.0801(5) 0.6657(4)
H3 H 0.9173 0.1195 0.7086
C4 C 1.0767(6) -0.1560(5) 0.6908(4)
C5 C 1.0883(8) -0.2500 0.6491(5)
H4 H 1.1040 -0.2500 0.5921
C6 C 1.0949(6) -0.0525(5) 0.6452(4)
H5 H 1.1585 -0.0047 0.6785
H6 H 1.1516 -0.0648 0.5938
C7 C 1.0467(5) -0.1563(5) 0.7732(3)
H7 H 1.0358 -0.0929 0.8017
C8 C 1.0326(8) -0.2500 0.8144(4)
C4B C 1.0767(6) -0.3440(5) 0.6908(4)
C6B C 1.0949(6) -0.4475(5) 0.6452(4)
N2B N 0.9415(5) -0.4970(4) 0.6269(3)
C1B C 0.8343(7) -0.4634(4) 0.5710(3)
N1B N 0.7047(5) -0.5219(4) 0.5714(3)
C2B C 0.7304(8) -0.5949(5) 0.6308(4)
H2B H 0.6590 -0.6480 0.6452
C3B C 0.8732(9) -0.5801(5) 0.6657(4)
H3B H 0.9173 -0.6195 0.7086
H1B H 0.8498 -0.4058 0.5362
H5B H 1.1585 -0.4953 0.6785
H6B H 1.1516 -0.4352 0.5938
C7B C 1.0467(5) -0.3437(5) 0.7732(3)
H7B H 1.0358 -0.4071 0.8017
N1D N 0.2953(5) -0.0219(4) 0.4286(3)
Ag1B Ag 0.5000 -0.5000 0.5000
Cl1 Cl 0.2532(2) 0.2500 0.62412(12)
O1 O 0.1372(7) 0.2500 0.5604(3)
O2 O 0.1772(6) 0.2500 0.7029(3)
O3 O 0.3459(6) 0.1590(4) 0.6158(3)
O3B O 0.3459(6) 0.3410(4) 0.6158(3)
loop_
_geom_bond_atom_site_label_1
_geom_bond_atom_site_label_2
_geom_bond_site_symmetry_1
_geom_bond_site_symmetry_2
Ag1 N1 1_555 1_555
Br1 C8 1_555 1_555
Cl1 O1 1_555 1_555
O2 Cl1 1_555 1_555
O3 Cl1 1_555 1_555
N1 C1 1_555 1_555
N2 C1 1_555 1_555
C1 H1 1_555 1_555
C2 N1 1_555 1_555
H2 C2 1_555 1_555
C3 N2 1_555 1_555
H3 C3 1_555 1_555
C4 C5 1_555 1_555
C5 H4 1_555 1_555
C6 N2 1_555 1_555
H5 C6 1_555 1_555
H6 C6 1_555 1_555
C7 C4 1_555 1_555
H7 C7 1_555 1_555
C8 C7 1_555 1_555
C4B C5 1_555 1_555
C6B C4B 1_555 1_555
N2B C6B 1_555 1_555
C1B N2B 1_555 1_555
N1B C1B 1_555 1_555
C2B N1B 1_555 1_555
H2B C2B 1_555 1_555
C3B N2B 1_555 1_555
H3B C3B 1_555 1_555
H1B C1B 1_555 1_555
H5B C6B 1_555 1_555
H6B C6B 1_555 1_555
C7B C8 1_555 1_555
H7B C7B 1_555 1_555
O3B Cl1 1_555 1_555
N1D Ag1 1_555 1_555
Ag1B N1B 1_555 1_555
C2 C3 1_555 1_555
C4 C6 1_555 1_555
C4B C7B 1_555 1_555
C2B C3B 1_555 1_555

#END
