
#######################################################################
#
#                 Cambridge Crystallographic Data Centre
#                                CCDC 
#
#######################################################################
#
# If this CIF has been generated from an entry in the Cambridge 
# Structural Database, then it will include bibliographic, chemical, 
# crystal, experimental, refinement or atomic coordinate data resulting 
# from the CCDC's data processing and validation procedures.
#
#######################################################################

data_EBIVER
_symmetry_cell_setting           monoclinic
_symmetry_space_group_name_H-M   'P 21/n'
_symmetry_Int_Tables_number      14
_space_group_name_Hall           '-P 2yn'
loop_
_symmetry_equiv_pos_site_id
_symmetry_equiv_pos_as_xyz
1 x,y,z
2 1/2+x,1/2-y,1/2+z
3 -x,-y,-z
4 1/2-x,1/2+y,1/2-z
_cell_length_a                   13.022(12)
_cell_length_b                   8.860(6)
_cell_length_c                   15.910(13)
_cell_angle_alpha                90
_cell_angle_beta                 108.86(7)
_cell_angle_gamma                90
_cell_volume                     1737.06
loop_
_atom_site_label
_atom_site_type_symbol
_atom_site_fract_x
_atom_site_fract_y
_atom_site_fract_z
Br1 Br 1.03784(2) 0.77313(4) 0.96692(2)
Zn1 Zn 1.0000 0.5000 0.5000
O1 O 1.11836(14) 0.6069(2) 0.61338(12)
N2 N 0.82389(16) 0.4042(2) 0.67877(13)
N3 N 0.89213(15) 0.4745(2) 0.57504(13)
N4 N 0.63690(16) 0.4420(2) 1.01885(13)
N5 N 0.57689(16) 0.2173(2) 1.04105(13)
C1 C 0.82124(19) 0.4454(3) 0.83119(15)
C2 C 0.73774(18) 0.4600(2) 0.86662(15)
H1 H 0.6745 0.3996 0.8440
C3 C 0.74509(19) 0.5619(2) 0.93490(16)
C4 C 0.8358(2) 0.6532(3) 0.96629(15)
H2 H 0.8420 0.7230 1.0130
C5 C 0.91695(19) 0.6406(3) 0.92833(16)
C6 C 0.91201(19) 0.5373(3) 0.86248(16)
H3 H 0.9700 0.5291 0.8387
C7 C 0.8139(2) 0.3318(3) 0.75846(16)
H4 H 0.8723 0.2559 0.7804
H5 H 0.7434 0.2785 0.7431
C8 C 0.90926(19) 0.3969(2) 0.64929(16)
H6 H 0.9740 0.3427 0.6782
C9 C 0.78934(19) 0.5347(3) 0.55648(17)
H7 H 0.7539 0.5963 0.5066
C10 C 0.7466(2) 0.4926(3) 0.62002(17)
H8 H 0.6773 0.5189 0.6233
C11 C 0.6522(2) 0.5781(2) 0.97195(17)
H9 H 0.6667 0.6649 1.0133
H10 H 0.5846 0.5995 0.9227
C12 C 0.56979(19) 0.3276(3) 0.98293(16)
H11 H 0.5228 0.3256 0.9232
C13 C 0.6534(2) 0.2650(3) 1.11798(16)
H12 H 0.6764 0.2096 1.1720
C14 C 0.6916(2) 0.4035(3) 1.10557(17)
H13 H 0.7450 0.4616 1.1481
O1B O 0.88164(14) 0.3931(2) 0.38662(12)
Br1B Br 0.96216(2) 0.22687(4) 0.03308(2)
N2B N 1.17611(16) 0.5958(2) 0.32123(13)
N3B N 1.10787(15) 0.5255(2) 0.42496(13)
N4B N 1.36310(16) 0.5580(2) -0.01885(13)
N5B N 1.42311(16) 0.7827(2) -0.04105(13)
C1B C 1.17876(19) 0.5546(3) 0.16881(15)
C2B C 1.26226(18) 0.5400(2) 0.13338(15)
H1B H 1.3255 0.6004 0.1560
C3B C 1.25491(19) 0.4381(2) 0.06510(16)
C4B C 1.1642(2) 0.3468(3) 0.03371(15)
H2B H 1.1580 0.2770 -0.0130
C5B C 1.08305(19) 0.3594(3) 0.07167(16)
C6B C 1.08799(19) 0.4627(3) 0.13752(16)
H3B H 1.0300 0.4709 0.1613
C7B C 1.1861(2) 0.6682(3) 0.24154(16)
H4B H 1.1277 0.7441 0.2196
H5B H 1.2566 0.7215 0.2569
C8B C 1.09074(19) 0.6031(2) 0.35071(16)
H6B H 1.0260 0.6573 0.3218
C9B C 1.21066(19) 0.4653(3) 0.44352(17)
H7B H 1.2461 0.4037 0.4934
C10B C 1.2534(2) 0.5074(3) 0.37998(17)
H8B H 1.3227 0.4811 0.3767
C11B C 1.3478(2) 0.4219(2) 0.02805(17)
H9B H 1.3333 0.3351 -0.0133
H10B H 1.4154 0.4005 0.0773
C12B C 1.43021(19) 0.6724(3) 0.01707(16)
H11B H 1.4772 0.6744 0.0768
C13B C 1.3466(2) 0.7350(3) -0.11798(16)
H12B H 1.3236 0.7904 -0.1720
C14B C 1.3084(2) 0.5965(3) -0.10557(17)
H13B H 1.2550 0.5384 -0.1481
N5A N 1.07689(16) 0.2827(2) 0.54105(13)
N5C N 0.92311(16) 0.7173(2) 0.45895(13)
Zn1A Zn 0.5000 0.0000 1.0000
Zn1A_2 Zn 1.5000 1.0000 0.0000
O2 O 0.5593(2) 0.7493(3) 0.24373(16)
O3 O 1.33021(18) 0.5192(3) 0.67287(19)
O4 O 1.3815(2) 0.7527(3) 0.68023(16)
O5 O 1.49419(19) 0.5765(3) 0.74346(19)
N1 N 1.4026(2) 0.6183(3) 0.69757(16)
loop_
_geom_bond_atom_site_label_1
_geom_bond_atom_site_label_2
_geom_bond_site_symmetry_1
_geom_bond_site_symmetry_2
Br1 C5 1_555 1_555
Zn1 O1 1_555 1_555
O3 N1 1_555 1_555
O4 N1 1_555 1_555
O5 N1 1_555 1_555
N2 C7 1_555 1_555
N3 Zn1 1_555 1_555
N4 C11 1_555 1_555
N5 C12 1_555 1_555
C1 C2 1_555 1_555
C2 H1 1_555 1_555
C3 C2 1_555 1_555
C4 C3 1_555 1_555
H2 C4 1_555 1_555
C5 C4 1_555 1_555
C6 C1 1_555 1_555
H3 C6 1_555 1_555
C7 C1 1_555 1_555
H4 C7 1_555 1_555
H5 C7 1_555 1_555
C8 N2 1_555 1_555
H6 C8 1_555 1_555
C9 N3 1_555 1_555
H7 C9 1_555 1_555
C10 N2 1_555 1_555
H8 C10 1_555 1_555
C11 C3 1_555 1_555
H9 C11 1_555 1_555
H10 C11 1_555 1_555
C12 N4 1_555 1_555
H11 C12 1_555 1_555
C13 N5 1_555 1_555
H12 C13 1_555 1_555
C14 N4 1_555 1_555
H13 C14 1_555 1_555
O1B Zn1 1_555 1_555
Br1B C5B 1_555 1_555
N2B C7B 1_555 1_555
N3B Zn1 1_555 1_555
N4B C11B 1_555 1_555
N5B C12B 1_555 1_555
C1B C2B 1_555 1_555
C2B H1B 1_555 1_555
C3B C2B 1_555 1_555
C4B C3B 1_555 1_555
H2B C4B 1_555 1_555
C5B C4B 1_555 1_555
C6B C1B 1_555 1_555
H3B C6B 1_555 1_555
C7B C1B 1_555 1_555
H4B C7B 1_555 1_555
H5B C7B 1_555 1_555
C8B N2B 1_555 1_555
H6B C8B 1_555 1_555
C9B N3B 1_555 1_555
H7B C9B 1_555 1_555
C10B N2B 1_555 1_555
H8B C10B 1_555 1_555
C11B C3B 1_555 1_555
H9B C11B 1_555 1_555
H10B C11B 1_555 1_555
C12B N4B 1_555 1_555
H11B C12B 1_555 1_555
C13B N5B 1_555 1_555
H12B C13B 1_555 1_555
C14B N4B 1_555 1_555
H13B C14B 1_555 1_555
N5A Zn1 1_555 1_555
N5C Zn1 1_555 1_555
Zn1A N5 1_555 1_555
Zn1A_2 N5B 1_555 1_555
N3 C8 1_555 1_555
C5 C6 1_555 1_555
C9 C10 1_555 1_555
C13 C14 1_555 1_555
N3B C8B 1_555 1_555
C5B C6B 1_555 1_555
C9B C10B 1_555 1_555
C13B C14B 1_555 1_555

#END
