
#######################################################################
#
#                 Cambridge Crystallographic Data Centre
#                                CCDC 
#
#######################################################################
#
# If this CIF has been generated from an entry in the Cambridge 
# Structural Database, then it will include bibliographic, chemical, 
# crystal, experimental, refinement or atomic coordinate data resulting 
# from the CCDC's data processing and validation procedures.
#
#######################################################################

data_EBIVOC
_symmetry_cell_setting           triclinic
_symmetry_space_group_name_H-M   'P -1'
_symmetry_Int_Tables_number      2
_space_group_name_Hall           '-P 1'
loop_
_symmetry_equiv_pos_site_id
_symmetry_equiv_pos_as_xyz
1 x,y,z
2 -x,-y,-z
_cell_length_a                   9.8694(3)
_cell_length_b                   10.1833(3)
_cell_length_c                   13.5295(4)
_cell_angle_alpha                92.1540(10)
_cell_angle_beta                 103.1460(10)
_cell_angle_gamma                104.0380(10)
_cell_volume                     1278.37
loop_
_atom_site_label
_atom_site_type_symbol
_atom_site_fract_x
_atom_site_fract_y
_atom_site_fract_z
Ni1 Ni 0.30678(3) 0.15180(3) 0.32435(2)
Cl1 Cl -0.35096(9) 0.48824(9) 0.10625(7)
O1 O 0.35648(18) -0.03669(18) 0.35100(14)
O2 O 0.21853(18) 0.30855(18) 0.28783(14)
N1 N 0.5141(2) 0.2714(2) 0.36946(16)
N2 N 0.2238(2) -0.1028(2) 0.32617(16)
C1 C 0.0341(3) 0.4048(3) 0.1968(2)
Cl2 Cl 0.17291(9) 0.75535(8) 0.07559(6)
N3 N 0.2850(2) 0.1615(2) 0.47472(16)
O3 O 0.13476(18) -0.03295(18) 0.29422(14)
O4 O -0.0089(2) 0.1902(2) 0.26188(16)
C2 C 0.1237(3) 0.5159(3) 0.1643(2)
Cl3 Cl 0.30541(8) 0.53196(8) 0.17631(6)
O5 O 0.1861(2) -0.22424(19) 0.33404(15)
O6 O -0.20923(19) 0.2883(2) 0.19677(15)
H1 H -0.1662 0.2335 0.2222
C3 C 0.0664(3) 0.6158(3) 0.1160(2)
N4 N 0.3186(2) 0.1274(2) 1.17314(16)
C4 C -0.0787(3) 0.6066(3) 0.0996(2)
H2 H -0.1162 0.6741 0.0681
C5 C -0.1678(3) 0.4988(3) 0.1293(2)
C6 C -0.1154(3) 0.3952(3) 0.1754(2)
C7 C 0.0863(3) 0.2947(3) 0.2525(2)
C8 C 0.5431(3) 0.4062(3) 0.3754(2)
H3 H 0.4676 0.4469 0.3563
C9 C 0.6815(3) 0.4879(3) 0.4089(3)
H4 H 0.6978 0.5819 0.4109
C10 C 0.7970(3) 0.4306(3) 0.4397(2)
C11 C 0.7660(3) 0.2903(3) 0.4325(2)
H5 H 0.8394 0.2470 0.4514
C12 C 0.6259(3) 0.2154(3) 0.3971(2)
H6 H 0.6071 0.1211 0.3920
C13 C 0.9440(3) 0.5179(3) 0.4770(3)
H7 H 0.9573 0.6092 0.4659
C14 C 0.2333(3) 0.1271(3) 0.7794(2)
H8 H 0.1402 0.1115 0.7883
C15 C 0.2534(3) 0.1423(3) 0.6757(2)
C16 C 0.3880(3) 0.1626(3) 0.6533(2)
H9 H 0.4701 0.1704 0.7054
C17 C 0.3986(3) 0.1710(3) 0.5543(2)
H10 H 0.4893 0.1840 0.5413
C18 C 0.1557(3) 0.1454(3) 0.4958(2)
H11 H 0.0759 0.1410 0.4426
C19 C 0.1367(3) 0.1351(3) 0.5933(2)
H12 H 0.0450 0.1233 0.6043
C20 C 0.4436(3) 0.1470(3) 1.1450(2)
H13 H 0.5285 0.1616 1.1956
C21 C 0.4522(3) 0.1466(3) 1.0446(2)
H14 H 0.5415 0.1607 1.0292
C22 C 0.3278(3) 0.1253(3) 0.9664(2)
C23 C 0.1979(3) 0.1007(3) 0.9960(2)
H15 H 0.1111 0.0819 0.9469
C24 C 0.1987(3) 0.1045(3) 1.0973(2)
H16 H 0.1107 0.0903 1.1147
C25 C 0.3397(3) 0.1345(3) 0.8610(2)
H17 H 0.4315 0.1467 0.8501
Ni1A Ni 1.69322(3) 0.84820(3) 0.67565(2)
Ni1_2 Ni 0.30678(3) 0.15180(3) 1.32435(2)
Ni1_3 Ni 0.30678(3) 0.15180(3) -0.67565(2)
Cl1A Cl 2.35096(9) 0.51176(9) 0.89375(7)
O1A O 1.64352(18) 1.03669(18) 0.64900(14)
O2A O 1.78147(18) 0.69145(18) 0.71217(14)
N1A N 1.4859(2) 0.7286(2) 0.63054(16)
N2A N 1.7762(2) 1.1028(2) 0.67383(16)
C1A C 1.9659(3) 0.5952(3) 0.8032(2)
Cl2A Cl 1.82709(9) 0.24465(8) 0.92441(6)
N3_2 N 0.2850(2) 0.1615(2) -0.52528(16)
N3A N 1.7150(2) 0.8385(2) 0.52528(16)
O3A O 1.86524(18) 1.03295(18) 0.70578(14)
O4A O 2.0089(2) 0.8098(2) 0.73812(16)
C2A C 1.8763(3) 0.4841(3) 0.8357(2)
Cl3A Cl 1.69459(8) 0.46804(8) 0.82369(6)
O5A O 1.8139(2) 1.22424(19) 0.66596(15)
O6A O 2.20923(19) 0.7117(2) 0.80323(15)
H1A H 2.1662 0.7665 0.7778
C3A C 1.9336(3) 0.3842(3) 0.8840(2)
N4_2 N 0.3186(2) 0.1274(2) 0.17314(16)
N4A N 1.6814(2) 0.8726(2) 0.82686(16)
C4A C 2.0787(3) 0.3934(3) 0.9004(2)
H2A H 2.1162 0.3259 0.9319
C5A C 2.1678(3) 0.5012(3) 0.8707(2)
C6A C 2.1154(3) 0.6048(3) 0.8246(2)
C7A C 1.9137(3) 0.7053(3) 0.7475(2)
C8A C 1.4569(3) 0.5938(3) 0.6246(2)
H3A H 1.5324 0.5531 0.6437
C9A C 1.3185(3) 0.5121(3) 0.5911(3)
H4A H 1.3022 0.4181 0.5891
C10A C 1.2030(3) 0.5694(3) 0.5603(2)
C11A C 1.2340(3) 0.7097(3) 0.5675(2)
H5A H 1.1606 0.7530 0.5486
C12A C 1.3741(3) 0.7846(3) 0.6029(2)
H6A H 1.3929 0.8789 0.6080
C13A C 1.0560(3) 0.4821(3) 0.5230(3)
H7A H 1.0427 0.3908 0.5341
C14_2 C 0.2333(3) 0.1271(3) -0.2206(2)
H8_2 H 0.1402 0.1115 -0.2117
C15_2 C 0.2534(3) 0.1423(3) -0.3243(2)
C16_2 C 0.3880(3) 0.1626(3) -0.3467(2)
H9_2 H 0.4701 0.1704 -0.2946
C17_2 C 0.3986(3) 0.1710(3) -0.4457(2)
H10_2 H 0.4893 0.1840 -0.4587
C18_2 C 0.1557(3) 0.1454(3) -0.5042(2)
H11_2 H 0.0759 0.1410 -0.5574
C19_2 C 0.1367(3) 0.1351(3) -0.4067(2)
H12_2 H 0.0450 0.1233 -0.3957
C20_2 C 0.4436(3) 0.1470(3) 0.1450(2)
H13_2 H 0.5285 0.1616 0.1956
C21_2 C 0.4522(3) 0.1466(3) 0.0446(2)
H14_2 H 0.5415 0.1607 0.0292
C22_2 C 0.3278(3) 0.1253(3) -0.0336(2)
C23_2 C 0.1979(3) 0.1007(3) -0.0040(2)
H15_2 H 0.1111 0.0819 -0.0531
C24_2 C 0.1987(3) 0.1045(3) 0.0973(2)
H16_2 H 0.1107 0.0903 0.1147
C25_2 C 0.3397(3) 0.1345(3) -0.1390(2)
H17_2 H 0.4315 0.1467 -0.1499
loop_
_geom_bond_atom_site_label_1
_geom_bond_atom_site_label_2
_geom_bond_site_symmetry_1
_geom_bond_site_symmetry_2
Ni1 O1 1_555 1_555
Cl1 C5 1_555 1_555
O1 N2 1_555 1_555
O2 Ni1 1_555 1_555
N1 Ni1 1_555 1_555
N2 O3 1_555 1_555
C1 C2 1_555 1_555
Cl2 C3 1_555 1_555
N3 Ni1 1_555 1_555
O3 Ni1 1_555 1_555
O4 C7 1_555 1_555
C2 Cl3 1_555 1_555
O5 N2 1_555 1_555
O6 H1 1_555 1_555
C3 C2 1_555 1_555
N4 C20 1_555 1_555
C4 C3 1_555 1_555
H2 C4 1_555 1_555
C5 C4 1_555 1_555
C6 C1 1_555 1_555
C7 O2 1_555 1_555
C8 N1 1_555 1_555
H3 C8 1_555 1_555
C9 C8 1_555 1_555
H4 C9 1_555 1_555
C10 C9 1_555 1_555
C11 C10 1_555 1_555
H5 C11 1_555 1_555
C12 N1 1_555 1_555
H6 C12 1_555 1_555
C13 C10 1_555 1_555
H7 C13 1_555 1_555
C14 H8 1_555 1_555
C15 C14 1_555 1_555
C16 C15 1_555 1_555
H9 C16 1_555 1_555
C17 N3 1_555 1_555
H10 C17 1_555 1_555
C18 N3 1_555 1_555
H11 C18 1_555 1_555
C19 C15 1_555 1_555
H12 C19 1_555 1_555
C20 H13 1_555 1_555
C21 C20 1_555 1_555
H14 C21 1_555 1_555
C22 C21 1_555 1_555
C23 C22 1_555 1_555
H15 C23 1_555 1_555
C24 N4 1_555 1_555
H16 C24 1_555 1_555
C25 C14 1_555 1_555
H17 C25 1_555 1_555
Ni1A O1A 1_555 1_555
Ni1_2 N4 1_555 1_555
Ni1_3 N3_2 1_555 1_555
Cl1A C5A 1_555 1_555
O1A N2A 1_555 1_555
O2A Ni1A 1_555 1_555
N1A Ni1A 1_555 1_555
N2A O3A 1_555 1_555
C1A C2A 1_555 1_555
Cl2A C3A 1_555 1_555
N3_2 C17_2 1_555 1_555
N3A Ni1A 1_555 1_555
O3A Ni1A 1_555 1_555
O4A C7A 1_555 1_555
C2A Cl3A 1_555 1_555
O5A N2A 1_555 1_555
O6A H1A 1_555 1_555
C3A C2A 1_555 1_555
N4_2 Ni1 1_555 1_555
N4A Ni1A 1_555 1_555
C4A C3A 1_555 1_555
H2A C4A 1_555 1_555
C5A C4A 1_555 1_555
C6A C1A 1_555 1_555
C7A O2A 1_555 1_555
C8A N1A 1_555 1_555
H3A C8A 1_555 1_555
C9A C8A 1_555 1_555
H4A C9A 1_555 1_555
C10A C9A 1_555 1_555
C11A C10A 1_555 1_555
H5A C11A 1_555 1_555
C12A N1A 1_555 1_555
H6A C12A 1_555 1_555
C13A C13 1_555 1_555
H7A C13A 1_555 1_555
C14_2 H8_2 1_555 1_555
C15_2 C14_2 1_555 1_555
C16_2 C15_2 1_555 1_555
H9_2 C16_2 1_555 1_555
C17_2 C16_2 1_555 1_555
H10_2 C17_2 1_555 1_555
C18_2 N3_2 1_555 1_555
H11_2 C18_2 1_555 1_555
C19_2 C15_2 1_555 1_555
H12_2 C19_2 1_555 1_555
C20_2 N4_2 1_555 1_555
H13_2 C20_2 1_555 1_555
C21_2 C20_2 1_555 1_555
H14_2 C21_2 1_555 1_555
C22_2 C21_2 1_555 1_555
C23_2 C22_2 1_555 1_555
H15_2 C23_2 1_555 1_555
C24_2 N4_2 1_555 1_555
H16_2 C24_2 1_555 1_555
C25_2 C14_2 1_555 1_555
H17_2 C25_2 1_555 1_555
C1 C7 1_555 1_555
O6 C6 1_555 1_555
C5 C6 1_555 1_555
C11 C12 1_555 1_555
C16 C17 1_555 1_555
C18 C19 1_555 1_555
C22 C25 1_555 1_555
C23 C24 1_555 1_555
C1A C7A 1_555 1_555
O6A C6A 1_555 1_555
C5A C6A 1_555 1_555
C10A C13A 1_555 1_555
C11A C12A 1_555 1_555
C18_2 C19_2 1_555 1_555
C22_2 C25_2 1_555 1_555
C23_2 C24_2 1_555 1_555

#END
