
#######################################################################
#
#                 Cambridge Crystallographic Data Centre
#                                CCDC 
#
#######################################################################
#
# If this CIF has been generated from an entry in the Cambridge 
# Structural Database, then it will include bibliographic, chemical, 
# crystal, experimental, refinement or atomic coordinate data resulting 
# from the CCDC's data processing and validation procedures.
#
#######################################################################

data_EBIVIW
_symmetry_cell_setting           triclinic
_symmetry_space_group_name_H-M   'P -1'
_symmetry_Int_Tables_number      2
_space_group_name_Hall           '-P 1'
loop_
_symmetry_equiv_pos_site_id
_symmetry_equiv_pos_as_xyz
1 x,y,z
2 -x,-y,-z
_cell_length_a                   9.1940(4)
_cell_length_b                   10.5320(5)
_cell_length_c                   13.8552(6)
_cell_angle_alpha                80.603(2)
_cell_angle_beta                 78.290(2)
_cell_angle_gamma                65.9750(10)
_cell_volume                     1195
loop_
_atom_site_label
_atom_site_type_symbol
_atom_site_fract_x
_atom_site_fract_y
_atom_site_fract_z
Co1 Co 0.19657(4) 0.38783(3) 0.09552(2)
N1 N 0.1563(3) 0.2683(2) 0.22567(16)
O1 O -0.1771(2) 0.70385(19) 0.01443(13)
Cl1 Cl -0.39135(7) 0.84881(7) 0.20223(5)
O2 O 0.2094(2) 0.55647(19) 0.12441(14)
N3 N 0.4510(2) 0.2896(2) 0.06627(16)
Cl2 Cl 0.32804(8) 0.71396(8) 0.22295(6)
O3 O -0.0655(2) 0.49987(18) 0.10169(13)
Cl3 Cl -0.29973(9) 1.02658(9) 0.32466(7)
C3 C -0.1524(3) 0.8915(3) 0.2612(2)
C5 C 0.0093(3) 0.8598(3) 0.2650(2)
H3 H 0.0371 0.9136 0.2993
C7 C -0.0291(3) 0.2082(3) 0.3554(2)
H5 H -0.1352 0.2272 0.3848
C9 C 0.0055(3) 0.2883(3) 0.2723(2)
H7 H -0.0802 0.3607 0.2466
C11 C 0.2539(3) 0.0788(3) 0.3488(2)
H9 H 0.3420 0.0079 0.3734
C12 C 0.2772(3) 0.1655(3) 0.2664(2)
H10 H 0.3824 0.1521 0.2375
C13 C 0.5523(3) 0.3404(3) 0.0869(2)
H11 H 0.5096 0.4266 0.1126
C14 C -0.0706(3) 0.7050(3) 0.15495(18)
C15 C 0.6803(3) 0.0869(3) 0.0130(2)
H12 H 0.7196 0.0004 -0.0121
C16 C 0.0724(3) -0.0004(3) 0.47889(19)
H13 H 0.1625 -0.0671 0.5040
C17 C 0.9619(3) 0.0620(3) 0.0187(2)
H14 H 1.0248 0.1025 0.0360
C18 C -0.1911(3) 0.8145(3) 0.20569(19)
C19 C 0.0944(3) 0.6634(3) 0.16458(18)
C20 C 0.5165(3) 0.1644(3) 0.0290(2)
H15 H 0.4480 0.1284 0.0134
C21 C 0.7190(3) 0.2692(3) 0.0713(2)
H16 H 0.7850 0.3090 0.0854
C22 C 0.0974(3) 0.0977(3) 0.39531(19)
C23 C -0.1085(3) 0.6296(3) 0.08666(18)
C24 C 0.7873(3) 0.1384(3) 0.03458(19)
C25 C 0.1277(3) 0.7490(3) 0.2182(2)
Co1A Co -0.19657(4) -0.38783(3) 0.90448(2)
Co1_2 Co 0.19657(4) -0.61217(3) 1.09552(2)
Co1A_2 Co -0.19657(4) 0.61217(3) -0.09552(2)
Co1A_3 Co 1.80343(4) -0.38783(3) -0.09552(2)
N1A N -0.1563(3) -0.2683(2) 0.77433(16)
O1A O 0.1771(2) -0.70385(19) 0.98557(13)
O1_2 O -0.1771(2) -0.29615(19) 1.01443(13)
O1A_2 O 0.1771(2) 0.29615(19) -0.01443(13)
Cl1A Cl 0.39135(7) -0.84881(7) 0.79777(5)
O2A O -0.2094(2) -0.55647(19) 0.87559(14)
N3A N 1.5490(2) -0.2896(2) -0.06627(16)
N3A_2 N -0.4510(2) -0.2896(2) 0.93373(16)
Cl2A Cl -0.32804(8) -0.71396(8) 0.77705(6)
O3A O 0.0655(2) -0.49987(18) 0.89831(13)
Cl3A Cl 0.29973(9) -1.02658(9) 0.67534(7)
C3A C 0.1524(3) -0.8915(3) 0.7388(2)
C5A C -0.0093(3) -0.8598(3) 0.7350(2)
H3A H -0.0371 -0.9136 0.7007
C7A C 0.0291(3) -0.2082(3) 0.6446(2)
H5A H 0.1352 -0.2272 0.6152
C9A C -0.0055(3) -0.2883(3) 0.7277(2)
H7A H 0.0802 -0.3607 0.7534
C11A C -0.2539(3) -0.0788(3) 0.6512(2)
H9A H -0.3420 -0.0079 0.6266
C12A C -0.2772(3) -0.1655(3) 0.7336(2)
H10A H -0.3824 -0.1521 0.7625
C13A C 1.4477(3) -0.3404(3) -0.0869(2)
H11A H 1.4904 -0.4266 -0.1126
C14A C 0.0706(3) -0.7050(3) 0.84505(18)
C15A C 1.3197(3) -0.0869(3) -0.0130(2)
H12A H 1.2804 -0.0004 0.0121
C16A C -0.0724(3) 0.0004(3) 0.52111(19)
H13A H -0.1625 0.0671 0.4960
C17A C 1.0381(3) -0.0620(3) -0.0187(2)
H14A H 0.9752 -0.1025 -0.0360
C18A C 0.1911(3) -0.8145(3) 0.79431(19)
C19A C -0.0944(3) -0.6634(3) 0.83542(18)
C20A C 1.4835(3) -0.1644(3) -0.0290(2)
H15A H 1.5520 -0.1284 -0.0134
C21A C 1.2810(3) -0.2692(3) -0.0713(2)
H16A H 1.2150 -0.3090 -0.0854
C22A C -0.0974(3) -0.0977(3) 0.60469(19)
C23A C 0.1085(3) -0.6296(3) 0.91334(18)
C24A C 1.2127(3) -0.1384(3) -0.03458(19)
C25A C -0.1277(3) -0.7490(3) 0.7818(2)
N2 N -0.5708(9) 0.6849(15) 0.5460(11)
C1 C -0.0579(6) 0.5046(6) 0.5394(4)
H1 H -0.0255 0.4665 0.6007
C2 C -0.3028(17) 0.6212(18) 0.4515(9)
H2 H -0.2377 0.6184 0.3904
C4 C -0.2305(9) 0.5701(8) 0.5354(7)
C6 C -0.3331(12) 0.5790(10) 0.6246(7)
H4 H -0.2902 0.5444 0.6833
C8 C -0.4942(15) 0.6372(17) 0.6275(11)
H6 H -0.5580 0.6455 0.6894
C10 C -0.4801(12) 0.6805(16) 0.4549(11)
H8 H -0.5270 0.7130 0.3975
N2A N 0.5708(9) 0.3151(15) 0.4540(11)
C1A C 0.0579(6) 0.4954(6) 0.4606(4)
H1A H 0.0255 0.5335 0.3993
C2A C 0.3028(17) 0.3788(18) 0.5485(9)
H2A H 0.2377 0.3816 0.6096
C4A C 0.2305(9) 0.4299(8) 0.4646(7)
C6A C 0.3331(12) 0.4210(10) 0.3754(7)
H4A H 0.2902 0.4556 0.3167
C8A C 0.4942(15) 0.3628(17) 0.3725(11)
H6A H 0.5580 0.3545 0.3106
C10A C 0.4801(12) 0.3195(16) 0.5451(11)
H8A H 0.5270 0.2870 0.6025
C26? C -0.303(3) 0.592(3) 0.5922(15)
C27? C -0.0553(11) 0.5298(10) 0.4694(7)
C28? C -0.233(2) 0.5811(18) 0.4959(13)
C29? C -0.327(4) 0.622(3) 0.4269(16)
C30? C -0.470(5) 0.667(4) 0.468(3)
C31? C -0.481(5) 0.645(4) 0.610(3)
H17? H -0.2424 0.5676 0.6435
H18? H -0.0157 0.5401 0.4025
H19? H -0.2928 0.6173 0.3592
H20? H -0.5320 0.6829 0.4185
H21? H -0.5301 0.6356 0.6753
N4? N -0.569(3) 0.702(4) 0.546(2)
loop_
_geom_bond_atom_site_label_1
_geom_bond_atom_site_label_2
_geom_bond_site_symmetry_1
_geom_bond_site_symmetry_2
Co1 N1 1_555 1_555
N1 C9 1_555 1_555
N2 C8 1_555 1_555
O1 C23 1_555 1_555
Cl1 C18 1_555 1_555
O2 Co1 1_555 1_555
N3 Co1 1_555 1_555
C1 H1 1_555 1_555
Cl2 C25 1_555 1_555
O3 Co1 1_555 1_555
C2 H2 1_555 1_555
Cl3 C3 1_555 1_555
C3 C5 1_555 1_555
C4 C1 1_555 1_555
C5 H3 1_555 1_555
C6 C4 1_555 1_555
H4 C6 1_555 1_555
C7 H5 1_555 1_555
C8 C6 1_555 1_555
H6 C8 1_555 1_555
C9 C7 1_555 1_555
H7 C9 1_555 1_555
C10 N2 1_555 1_555
H8 C10 1_555 1_555
C11 H9 1_555 1_555
C12 N1 1_555 1_555
H10 C12 1_555 1_555
C13 N3 1_555 1_555
H11 C13 1_555 1_555
C14 C18 1_555 1_555
C15 H12 1_555 1_555
C16 H13 1_555 1_555
C17 H14 1_555 1_555
C18 C3 1_555 1_555
C19 O2 1_555 1_555
C20 N3 1_555 1_555
H15 C20 1_555 1_555
C21 C13 1_555 1_555
H16 C21 1_555 1_555
C22 C7 1_555 1_555
C23 O3 1_555 1_555
C24 C15 1_555 1_555
C25 C5 1_555 1_555
Co1A N1A 1_555 1_555
Co1_2 O1A 1_555 1_555
Co1A_2 O1 1_555 1_555
Co1A_3 N3A 1_555 1_555
N1A C9A 1_555 1_555
N2A C8A 1_555 1_555
O1A C23A 1_555 1_555
O1_2 Co1A 1_555 1_555
O1A_2 Co1 1_555 1_555
Cl1A C18A 1_555 1_555
O2A Co1A 1_555 1_555
N3A C13A 1_555 1_555
N3A_2 Co1A 1_555 1_555
C1A C1 1_555 1_555
H1A C1A 1_555 1_555
Cl2A C25A 1_555 1_555
O3A Co1A 1_555 1_555
C2A H2A 1_555 1_555
Cl3A C3A 1_555 1_555
C3A C5A 1_555 1_555
C4A C1A 1_555 1_555
C5A H3A 1_555 1_555
C6A C4A 1_555 1_555
H4A C6A 1_555 1_555
C7A H5A 1_555 1_555
C8A C6A 1_555 1_555
H6A C8A 1_555 1_555
C9A C7A 1_555 1_555
H7A C9A 1_555 1_555
C10A N2A 1_555 1_555
H8A C10A 1_555 1_555
C11A H9A 1_555 1_555
C12A N1A 1_555 1_555
H10A C12A 1_555 1_555
C13A H11A 1_555 1_555
C14A C18A 1_555 1_555
C15A H12A 1_555 1_555
C16A C16 1_555 1_555
H13A C16A 1_555 1_555
C17A C17 1_555 1_555
H14A C17A 1_555 1_555
C18A C3A 1_555 1_555
C19A O2A 1_555 1_555
C20A N3A 1_555 1_555
H15A C20A 1_555 1_555
C21A C13A 1_555 1_555
H16A C21A 1_555 1_555
C22A C7A 1_555 1_555
C23A O3A 1_555 1_555
C24A C15A 1_555 1_555
C25A C5A 1_555 1_555
C2 C4 1_555 1_555
C2 C10 1_555 1_555
C11 C12 1_555 1_555
C11 C22 1_555 1_555
C14 C19 1_555 1_555
C14 C23 1_555 1_555
C15 C20 1_555 1_555
C16 C22 1_555 1_555
C17 C24 1_555 1_555
C19 C25 1_555 1_555
C21 C24 1_555 1_555
C2A C4A 1_555 1_555
C2A C10A 1_555 1_555
C11A C12A 1_555 1_555
C11A C22A 1_555 1_555
C14A C19A 1_555 1_555
C14A C23A 1_555 1_555
C15A C20A 1_555 1_555
C16A C22A 1_555 1_555
C17A C24A 1_555 1_555
C19A C25A 1_555 1_555
C21A C24A 1_555 1_555

#END
