
#######################################################################
#
#                 Cambridge Crystallographic Data Centre
#                                CCDC 
#
#######################################################################
#
# If this CIF has been generated from an entry in the Cambridge 
# Structural Database, then it will include bibliographic, chemical, 
# crystal, experimental, refinement or atomic coordinate data resulting 
# from the CCDC's data processing and validation procedures.
#
#######################################################################

data_EBIVAO
_symmetry_cell_setting           triclinic
_symmetry_space_group_name_H-M   'P -1'
_symmetry_Int_Tables_number      2
_space_group_name_Hall           '-P 1'
loop_
_symmetry_equiv_pos_site_id
_symmetry_equiv_pos_as_xyz
1 x,y,z
2 -x,-y,-z
_cell_length_a                   8.2531(7)
_cell_length_b                   10.6582(10)
_cell_length_c                   12.4388(11)
_cell_angle_alpha                73.757(2)
_cell_angle_beta                 73.122(2)
_cell_angle_gamma                76.445(2)
_cell_volume                     991.164
loop_
_atom_site_label
_atom_site_type_symbol
_atom_site_fract_x
_atom_site_fract_y
_atom_site_fract_z
Zn1 Zn 0.66942(3) 0.64856(2) 0.401694(19)
Cl1 Cl 0.67064(7) 0.17596(5) 0.26784(5)
Cl2 Cl 1.05759(9) 0.07155(6) 0.16081(6)
Cl3 Cl 1.24893(7) 0.44519(6) 0.28942(5)
O1 O 0.53858(17) 0.50758(13) 0.37830(12)
N1 N 0.6123(2) 0.77869(16) 0.25031(14)
C1 C 0.7895(3) 0.35020(19) 0.33471(16)
N2 N 0.7977(2) 0.77483(16) 0.44139(14)
C2 C 0.8327(3) 0.2461(2) 0.27983(17)
O2 O 0.54568(17) 0.29970(13) 0.48275(12)
O3 O 0.88151(18) 0.52235(14) 0.37966(13)
C3 C 1.0024(3) 0.2020(2) 0.22973(18)
C4 C 1.1297(3) 0.2631(2) 0.23450(18)
H1 H 1.2442 0.2321 0.2034
C5 C 1.0880(3) 0.3693(2) 0.28492(18)
C6 C 0.9162(3) 0.4206(2) 0.33414(17)
C7 C 0.6106(2) 0.38963(19) 0.40211(16)
C8 C 0.4889(3) 0.7630(2) 0.2093(2)
H2 H 0.4311 0.6919 0.2477
C9 C 0.4415(3) 0.8464(3) 0.1126(2)
H3 H 0.3537 0.8305 0.0879
C10 C 0.5236(3) 0.9539(2) 0.05189(17)
C11 C 0.6519(3) 0.9708(2) 0.09565(18)
H4 H 0.7110 1.0415 0.0595
C12 C 0.6915(3) 0.8822(2) 0.19297(18)
H5 H 0.7785 0.8956 0.2201
C13 C 0.9688(3) 0.7600(2) 0.42034(18)
H6 H 1.0349 0.6890 0.3895
C14 C 1.0518(3) 0.8453(2) 0.44237(18)
H7 H 1.1711 0.8308 0.4263
C15 C 0.9581(2) 0.95215(19) 0.48829(16)
C16 C 0.7800(3) 0.9652(2) 0.5125(2)
H8 H 0.7108 1.0342 0.5449
C17 C 0.7069(3) 0.8768(2) 0.48888(19)
H9 H 0.5877 0.8876 0.5066
Zn1A Zn 0.33058(3) 0.35144(2) 0.598306(19)
Zn1A_2 Zn 0.33058(3) 1.35144(2) -0.401694(19)
Zn1A_3 Zn 1.33058(3) 1.35144(2) 0.598306(19)
Cl1A Cl 0.32936(7) 0.82404(5) 0.73216(5)
Cl2A Cl -0.05759(9) 0.92845(6) 0.83919(6)
Cl3A Cl -0.24893(7) 0.55481(6) 0.71058(5)
O1A O 0.46142(17) 0.49242(13) 0.62170(12)
N1A N 0.3877(2) 1.22131(16) -0.25031(14)
N1A_2 N 0.3877(2) 0.22131(16) 0.74969(14)
C1A C 0.2105(3) 0.64980(19) 0.66529(16)
N2A N 1.2023(2) 1.22517(16) 0.55861(14)
N2A_2 N 0.2023(2) 0.22517(16) 0.55861(14)
C2A C 0.1673(3) 0.7539(2) 0.72017(17)
O2A O 0.45432(17) 0.70030(13) 0.51725(12)
O3A O 0.11849(18) 0.47765(14) 0.62034(13)
C3A C -0.0024(3) 0.7980(2) 0.77027(18)
C4A C -0.1297(3) 0.7369(2) 0.76550(18)
H1A H -0.2442 0.7679 0.7966
C5A C -0.0880(3) 0.6307(2) 0.71508(18)
C6A C 0.0838(3) 0.5794(2) 0.66586(17)
C7A C 0.3894(2) 0.61037(19) 0.59789(16)
C8A C 0.5111(3) 1.2370(2) -0.2093(2)
H2A H 0.5689 1.3081 -0.2477
C9A C 0.5585(3) 1.1536(3) -0.1126(2)
H3A H 0.6463 1.1695 -0.0879
C10A C 0.4764(3) 1.0461(2) -0.05189(17)
C11A C 0.3481(3) 1.0292(2) -0.09565(18)
H4A H 0.2890 0.9585 -0.0595
C12A C 0.3085(3) 1.1178(2) -0.19297(18)
H5A H 0.2215 1.1044 -0.2201
C13A C 1.0312(3) 1.2400(2) 0.57966(18)
H6A H 0.9651 1.3110 0.6105
C14A C 0.9482(3) 1.1547(2) 0.55763(18)
H7A H 0.8289 1.1692 0.5737
C15A C 1.0419(2) 1.04785(19) 0.51171(16)
C16A C 1.2200(3) 1.0348(2) 0.4875(2)
H8A H 1.2892 0.9658 0.4551
C17A C 1.2931(3) 1.1232(2) 0.51112(19)
H9A H 1.4123 1.1124 0.4934
loop_
_geom_bond_atom_site_label_1
_geom_bond_atom_site_label_2
_geom_bond_site_symmetry_1
_geom_bond_site_symmetry_2
Zn1 O1 1_555 1_555
Cl1 C2 1_555 1_555
Cl2 C3 1_555 1_555
Cl3 C5 1_555 1_555
O1 C7 1_555 1_555
N1 Zn1 1_555 1_555
C1 C2 1_555 1_555
N2 Zn1 1_555 1_555
C2 C3 1_555 1_555
O2 C7 1_555 1_555
O3 Zn1 1_555 1_555
C3 C4 1_555 1_555
C4 H1 1_555 1_555
C5 C4 1_555 1_555
C6 C1 1_555 1_555
C7 C1 1_555 1_555
C8 N1 1_555 1_555
H2 C8 1_555 1_555
C9 C8 1_555 1_555
H3 C9 1_555 1_555
C10 C9 1_555 1_555
C11 C10 1_555 1_555
H4 C11 1_555 1_555
C12 N1 1_555 1_555
H5 C12 1_555 1_555
C13 N2 1_555 1_555
H6 C13 1_555 1_555
C14 C13 1_555 1_555
H7 C14 1_555 1_555
C15 C14 1_555 1_555
C16 C15 1_555 1_555
H8 C16 1_555 1_555
C17 N2 1_555 1_555
H9 C17 1_555 1_555
Zn1A O2 1_555 1_555
Zn1A_2 N1A 1_555 1_555
Zn1A_3 N2A 1_555 1_555
Cl1A C2A 1_555 1_555
Cl2A C3A 1_555 1_555
Cl3A C5A 1_555 1_555
O1A Zn1A 1_555 1_555
N1A C8A 1_555 1_555
N1A_2 Zn1A 1_555 1_555
C1A C2A 1_555 1_555
N2A C13A 1_555 1_555
N2A_2 Zn1A 1_555 1_555
C2A C3A 1_555 1_555
O2A Zn1 1_555 1_555
O3A Zn1A 1_555 1_555
C3A C4A 1_555 1_555
C4A H1A 1_555 1_555
C5A C4A 1_555 1_555
C6A C1A 1_555 1_555
C7A O1A 1_555 1_555
C8A H2A 1_555 1_555
C9A C8A 1_555 1_555
H3A C9A 1_555 1_555
C10A C10 1_555 1_555
C11A C10A 1_555 1_555
H4A C11A 1_555 1_555
C12A N1A 1_555 1_555
H5A C12A 1_555 1_555
C13A H6A 1_555 1_555
C14A C13A 1_555 1_555
H7A C14A 1_555 1_555
C15A C15 1_555 1_555
C16A C15A 1_555 1_555
H8A C16A 1_555 1_555
C17A N2A 1_555 1_555
H9A C17A 1_555 1_555
O3 C6 1_555 1_555
C5 C6 1_555 1_555
C11 C12 1_555 1_555
C16 C17 1_555 1_555
C1A C7A 1_555 1_555
O2A C7A 1_555 1_555
O3A C6A 1_555 1_555
C5A C6A 1_555 1_555
C9A C10A 1_555 1_555
C11A C12A 1_555 1_555
C14A C15A 1_555 1_555
C16A C17A 1_555 1_555

#END
