
#######################################################################
#
#                 Cambridge Crystallographic Data Centre
#                                CCDC 
#
#######################################################################
#
# If this CIF has been generated from an entry in the Cambridge 
# Structural Database, then it will include bibliographic, chemical, 
# crystal, experimental, refinement or atomic coordinate data resulting 
# from the CCDC's data processing and validation procedures.
#
#######################################################################

data_EBIWAP
_symmetry_cell_setting           monoclinic
_symmetry_space_group_name_H-M   'P 21/n'
_symmetry_Int_Tables_number      14
_space_group_name_Hall           '-P 2yn'
loop_
_symmetry_equiv_pos_site_id
_symmetry_equiv_pos_as_xyz
1 x,y,z
2 1/2-x,1/2+y,1/2-z
3 -x,-y,-z
4 1/2+x,1/2-y,1/2+z
_cell_length_a                   10.0335(17)
_cell_length_b                   16.020(3)
_cell_length_c                   12.195(2)
_cell_angle_alpha                90
_cell_angle_beta                 101.566(2)
_cell_angle_gamma                90
_cell_volume                     1920.38
loop_
_atom_site_label
_atom_site_type_symbol
_atom_site_fract_x
_atom_site_fract_y
_atom_site_fract_z
Zn1 Zn 0.21776(5) 0.75823(3) 1.08640(4)
Na1 Na 0.29372(16) 0.89741(12) 0.92996(13)
Na2 Na -0.1013(3) 0.63452(17) 0.94751(19)
Na3 Na 0.42969(18) 0.76940(12) 0.72257(15)
Na4 Na 0.4022(2) 0.56448(14) 1.08225(15)
S1 S 0.34450(10) 0.55943(7) 0.78355(8)
S2 S 0.60785(10) 0.93669(7) 0.86039(9)
O1 O 0.1997(3) 0.6638(2) 0.9769(2)
O2 O 0.2570(3) 0.7492(2) 0.8489(2)
O3 O -0.0709(3) 0.6688(2) 0.7713(3)
O4 O -0.0999(3) 0.6940(2) 0.5888(2)
O5 O 0.4329(3) 0.6234(2) 0.7529(3)
O6 O 0.3120(3) 0.4940(2) 0.7021(3)
O7 O 0.3983(3) 0.5264(2) 0.8945(2)
O8 O 0.8495(3) 0.8539(2) 0.7216(2)
O9 O 0.6680(3) 0.7772(2) 0.7277(2)
O10 O 1.1087(3) 0.8558(2) 1.0171(2)
O11 O 0.9416(3) 0.7678(2) 1.0238(3)
O12 O 0.6073(3) 0.9779(2) 0.7545(3)
O13 O 0.6292(3) 0.9928(2) 0.9542(3)
O14 O 0.4880(3) 0.8838(2) 0.8539(3)
O15 O 0.2981(4) 0.8716(3) 0.6134(3)
O16 O 0.0251(10) 0.5245(7) 1.0275(7)
O17 O 0.5421(4) 0.6826(3) 1.0054(4)
O18 O -0.2987(3) 0.5545(2) 0.8423(3)
C1 C 0.2175(4) 0.6812(3) 0.8784(3)
C2 C 0.1877(4) 0.6095(3) 0.7924(3)
H1 H 0.1301 0.5686 0.8204
C3 C 0.1118(4) 0.6395(3) 0.6782(3)
H2 H 0.1058 0.5943 0.6246
H3 H 0.1621 0.6849 0.6527
C4 C -0.0298(4) 0.6692(3) 0.6835(3)
C5 C 0.7591(4) 0.8299(3) 0.7697(3)
C6 C 0.7495(4) 0.8650(3) 0.8833(3)
H4 H 0.7267 0.8188 0.9288
C7 C 0.8820(4) 0.9034(3) 0.9457(3)
H5 H 0.8632 0.9399 1.0042
H6 H 0.9218 0.9369 0.8942
C8 C 0.9826(4) 0.8368(3) 0.9971(3)
Zn1B Zn -0.21776(5) 0.24177(3) 0.91360(4)
Zn1_2 Zn 1.21776(5) 0.75823(3) 1.08640(4)
Zn1A Zn -0.71776(5) 0.25823(3) 1.41360(4)
Zn1A_2 Zn 0.28224(5) 0.25823(3) 1.41360(4)
Zn1B_2 Zn -1.21776(5) 0.24177(3) 0.91360(4)
Zn1C Zn -0.28224(5) 0.74177(3) 0.58640(4)
Zn1C_2 Zn 0.71776(5) 0.74177(3) 0.58640(4)
Na1B Na -0.29372(16) 0.10259(12) 1.07004(13)
Na1_2 Na -0.70628(16) -0.10259(12) 0.92996(13)
Na1_3 Na 1.29372(16) 0.89741(12) 0.92996(13)
Na1A Na 0.20628(16) 0.39741(12) 0.57004(13)
Na1A_2 Na 0.20628(16) 0.39741(12) 1.57004(13)
Na1B_2 Na -1.29372(16) 0.10259(12) 1.07004(13)
Na1B_3 Na 0.70628(16) 1.10259(12) 1.07004(13)
Na1C Na -0.20628(16) 0.60259(12) 0.42996(13)
Na1C_2 Na -0.20628(16) 0.60259(12) 1.42996(13)
Na2B Na 0.1013(3) 0.36548(17) 1.05249(19)
Na2_2 Na 0.8987(3) 0.63452(17) 0.94751(19)
Na2A Na -0.3987(3) 0.13452(17) 1.55249(19)
Na2B_2 Na -0.8987(3) 0.36548(17) 1.05249(19)
Na2C Na 0.3987(3) 0.86548(17) 0.44751(19)
Na3B Na -0.42969(18) 0.23060(12) 1.27743(15)
Na3A Na -0.92969(18) 0.26940(12) 0.77743(15)
Na3C Na 0.92969(18) 0.73060(12) 1.22257(15)
Na4B Na -0.4022(2) 0.43552(14) 0.91775(15)
Na4_2 Na -0.5978(2) 0.56448(14) 1.08225(15)
Na4A Na -0.9022(2) 0.06448(14) 1.41775(15)
Na4B_2 Na 0.5978(2) 0.43552(14) 0.91775(15)
Na4C Na 0.9022(2) 0.93552(14) 0.58225(15)
S1B S -0.34450(10) 0.44057(7) 1.21645(8)
S2B S -0.60785(10) 0.06331(7) 1.13961(9)
O1B O -0.1997(3) 0.3362(2) 1.0231(2)
O2B O -0.2570(3) 0.2508(2) 1.1511(2)
O3B O 0.0709(3) 0.3312(2) 1.2287(3)
O4B O 0.0999(3) 0.3060(2) 1.4112(2)
O4A O -0.4001(3) 0.1940(2) 0.9112(2)
O4C O 0.4001(3) 0.8060(2) 1.0888(2)
O5B O -0.4329(3) 0.3766(2) 1.2471(3)
O6B O -0.3120(3) 0.5060(2) 1.2979(3)
O6A O 0.1880(3) 0.9940(2) 0.7979(3)
O6C O -0.1880(3) 0.0060(2) 1.2021(3)
O7B O -0.3983(3) 0.4736(2) 1.1055(2)
O7_2 O -0.6017(3) 0.5264(2) 0.8945(2)
O7B_2 O 0.6017(3) 0.4736(2) 1.1055(2)
O8B O -0.8495(3) 0.1461(2) 1.2784(2)
O8A O -0.3495(3) 0.3539(2) 0.7784(2)
O8C O 0.3495(3) 0.6461(2) 1.2216(2)
O9B O -0.6680(3) 0.2228(2) 1.2723(2)
O9A O -0.1680(3) 0.2772(2) 0.7723(2)
O9C O 0.1680(3) 0.7228(2) 1.2277(2)
O10B O -1.1087(3) 0.1442(2) 0.9829(2)
O10_2 O 0.1087(3) 0.8558(2) 1.0171(2)
O10B_2 O -0.1087(3) 0.1442(2) 0.9829(2)
O11B O -0.9416(3) 0.2322(2) 0.9762(3)
O11_2 O -0.0584(3) 0.7678(2) 1.0238(3)
O11A O -0.4416(3) 0.2678(2) 1.4762(3)
O11B_2 O 0.0584(3) 0.2322(2) 0.9762(3)
O11C O 0.4416(3) 0.7322(2) 0.5238(3)
O12B O -0.6073(3) 0.0221(2) 1.2455(3)
O13B O -0.6292(3) 0.0072(2) 1.0458(3)
O13_2 O -0.3708(3) -0.0072(2) 0.9542(3)
O13B_2 O 0.3708(3) 1.0072(2) 1.0458(3)
O14B O -0.4880(3) 0.1162(2) 1.1461(3)
O15B O -0.2981(4) 0.1284(3) 1.3866(3)
O15A O 0.2019(4) 0.3716(3) 0.8866(3)
O15C O -0.2019(4) 0.6284(3) 1.1134(3)
O16B O -0.0251(10) 0.4755(7) 0.9725(7)
O17B O -0.5421(4) 0.3174(3) 0.9946(4)
O18B O 0.2987(3) 0.4455(2) 1.1577(3)
C1B C -0.2175(4) 0.3188(3) 1.1216(3)
C2B C -0.1877(4) 0.3905(3) 1.2076(3)
H1B H -0.1301 0.4314 1.1796
C3B C -0.1118(4) 0.3605(3) 1.3218(3)
H2B H -0.1058 0.4057 1.3754
H3B H -0.1621 0.3151 1.3473
C4B C 0.0298(4) 0.3308(3) 1.3165(3)
C5B C -0.7591(4) 0.1701(3) 1.2303(3)
C6B C -0.7495(4) 0.1350(3) 1.1167(3)
H4B H -0.7267 0.1812 1.0712
C7B C -0.8820(4) 0.0966(3) 1.0543(3)
H5B H -0.8632 0.0601 0.9958
H6B H -0.9218 0.0631 1.1058
C8B C -0.9826(4) 0.1632(3) 1.0029(3)
loop_
_geom_bond_atom_site_label_1
_geom_bond_atom_site_label_2
_geom_bond_site_symmetry_1
_geom_bond_site_symmetry_2
Zn1 O1 1_555 1_555
Na1 O2 1_555 1_555
Na2 O1 1_555 1_555
Na3 O2 1_555 1_555
Na4 O1 1_555 1_555
S1 O5 1_555 1_555
S2 O12 1_555 1_555
O1 C1 1_555 1_555
O2 C1 1_555 1_555
O3 Na2 1_555 1_555
O4 C4 1_555 1_555
O5 Na3 1_555 1_555
O6 S1 1_555 1_555
O7 Na4 1_555 1_555
O8 C5 1_555 1_555
O9 Na3 1_555 1_555
O10 C8 1_555 1_555
O11 C8 1_555 1_555
O13 S2 1_555 1_555
O14 Na1 1_555 1_555
O15 Na3 1_555 1_555
O16 Na2 1_555 1_555
O17 Na4 1_555 1_555
O18 Na2 1_555 1_555
C1 C2 1_555 1_555
C2 S1 1_555 1_555
H1 C2 1_555 1_555
C3 C2 1_555 1_555
H2 C3 1_555 1_555
H3 C3 1_555 1_555
C4 O3 1_555 1_555
C5 O9 1_555 1_555
C6 S2 1_555 1_555
H4 C6 1_555 1_555
C7 C6 1_555 1_555
H5 C7 1_555 1_555
H6 C7 1_555 1_555
C8 C7 1_555 1_555
Zn1B O1B 1_555 1_555
Zn1_2 O10 1_555 1_555
Zn1A O9B 1_555 1_555
Zn1A_2 O4B 1_555 1_555
Zn1B_2 O10B 1_555 1_555
Zn1C O4 1_555 1_555
Zn1C_2 O9 1_555 1_555
Na1B O2B 1_555 1_555
Na1_2 O13B 1_555 1_555
Na1_3 O10 1_555 1_555
Na1A O6 1_555 1_555
Na1A_2 O4B 1_555 1_555
Na1B_2 O10B 1_555 1_555
Na1B_3 O13 1_555 1_555
Na1C O4 1_555 1_555
Na1C_2 O6B 1_555 1_555
Na2B O16 1_555 1_555
Na2_2 O11 1_555 1_555
Na2A O11A 1_555 1_555
Na2B_2 O11B 1_555 1_555
Na2C O15 1_555 1_555
Na3B O2B 1_555 1_555
Na3A O11B 1_555 1_555
Na3C O11 1_555 1_555
Na4B O18 1_555 1_555
Na4_2 O7B 1_555 1_555
Na4A O8B 1_555 1_555
Na4B_2 O7 1_555 1_555
Na4C O8 1_555 1_555
S1B O5B 1_555 1_555
S2B O12B 1_555 1_555
O1B Na2B 1_555 1_555
O2B C1B 1_555 1_555
O3B Na2B 1_555 1_555
O4B C4B 1_555 1_555
O4A Zn1B 1_555 1_555
O4C Zn1 1_555 1_555
O5B Na3B 1_555 1_555
O6B S1B 1_555 1_555
O6A Na1 1_555 1_555
O6C Na1B 1_555 1_555
O7B Na4B 1_555 1_555
O7_2 Na4B 1_555 1_555
O7B_2 Na4 1_555 1_555
O8B C5B 1_555 1_555
O8A Na4B 1_555 1_555
O8C Na4 1_555 1_555
O9B Na3B 1_555 1_555
O9A Zn1B 1_555 1_555
O9C Zn1 1_555 1_555
O10B C8B 1_555 1_555
O10_2 Zn1 1_555 1_555
O10B_2 Zn1B 1_555 1_555
O11B C8B 1_555 1_555
O11_2 Na2 1_555 1_555
O11A Na3B 1_555 1_555
O11B_2 Na2B 1_555 1_555
O11C Na3 1_555 1_555
O13B S2B 1_555 1_555
O13_2 Na1B 1_555 1_555
O13B_2 Na1 1_555 1_555
O14B Na1B 1_555 1_555
O15B Na2A 1_555 1_555
O15A Na2B 1_555 1_555
O15C Na2 1_555 1_555
O16B Na2 1_555 1_555
O17B Na4B 1_555 1_555
O18B Na4 1_555 1_555
C1B O1B 1_555 1_555
C2B S1B 1_555 1_555
H1B C2B 1_555 1_555
C3B C2B 1_555 1_555
H2B C3B 1_555 1_555
H3B C3B 1_555 1_555
C4B O3B 1_555 1_555
C5B O9B 1_555 1_555
C6B S2B 1_555 1_555
H4B C6B 1_555 1_555
C7B C6B 1_555 1_555
H5B C7B 1_555 1_555
H6B C7B 1_555 1_555
C8B C7B 1_555 1_555
Na1 O4C 1_555 1_555
Na1 O10_2 1_555 1_555
Na3 O14 1_555 1_555
S1 O7 1_555 1_555
S2 O14 1_555 1_555
O16 O16B 1_555 1_555
C3 C4 1_555 1_555
C5 C6 1_555 1_555
Na1B O4A 1_555 1_555
Na1B O10B_2 1_555 1_555
Na2B O16B 1_555 1_555
Na2B O18B 1_555 1_555
Na2C O11C 1_555 1_555
Na3B O14B 1_555 1_555
Na3B O15B 1_555 1_555
Na4B O1B 1_555 1_555
Na4_2 O7_2 1_555 1_555
Na4B_2 O7B_2 1_555 1_555
S1B O7B 1_555 1_555
S2B O14B 1_555 1_555
C1B C2B 1_555 1_555
C3B C4B 1_555 1_555
C5B C6B 1_555 1_555

#END
