
#######################################################################
#
#                 Cambridge Crystallographic Data Centre
#                                CCDC 
#
#######################################################################
#
# If this CIF has been generated from an entry in the Cambridge 
# Structural Database, then it will include bibliographic, chemical, 
# crystal, experimental, refinement or atomic coordinate data resulting 
# from the CCDC's data processing and validation procedures.
#
#######################################################################

data_EBIYAR
_symmetry_cell_setting           monoclinic
_symmetry_space_group_name_H-M   'P 21/c'
_symmetry_Int_Tables_number      14
_space_group_name_Hall           '-P 2ybc'
loop_
_symmetry_equiv_pos_site_id
_symmetry_equiv_pos_as_xyz
1 x,y,z
2 -x,1/2+y,1/2-z
3 -x,-y,-z
4 x,1/2-y,1/2+z
_cell_length_a                   8.1844(4)
_cell_length_b                   9.6968(5)
_cell_length_c                   15.7097(8)
_cell_angle_alpha                90
_cell_angle_beta                 104.4480(10)
_cell_angle_gamma                90
_cell_volume                     1207.33
loop_
_atom_site_label
_atom_site_type_symbol
_atom_site_fract_x
_atom_site_fract_y
_atom_site_fract_z
Cd1 Cd 1.0000 0.5000 0.0000
C1 C 0.7453(3) 0.2791(2) 0.06924(15)
H1 H 0.6698 0.2824 0.0142
C2 C 0.8554(3) 0.2295(2) 0.20731(16)
H2 H 0.8728 0.1946 0.2640
C3 C 0.9615(3) 0.3104(2) 0.17574(16)
H3 H 1.0663 0.3407 0.2082
C4 C 0.5674(3) 0.1343(2) 0.14180(15)
C5 C 0.4318(3) 0.1985(2) 0.15738(16)
H4 H 0.4230 0.2934 0.1633
C6 C 0.3958(3) -0.0510(2) 0.14611(17)
H5 H 0.3595 -0.1421 0.1441
C7 C 0.5497(3) -0.0129(2) 0.13406(15)
C8 C 0.6678(3) -0.1140(2) 0.11238(14)
C9 C 0.6352(3) -0.2533(2) 0.11840(17)
H6 H 0.5460 -0.2815 0.1411
C10 C 0.7334(3) -0.3496(2) 0.09124(18)
H7 H 0.7059 -0.4421 0.0949
C11 C 0.9024(3) -0.1864(2) 0.05776(17)
H8 H 0.9967 -0.1617 0.0382
C12 C 0.8093(3) -0.0824(2) 0.08273(18)
H9 H 0.8414 0.0090 0.0797
Cl1 Cl 1.27203(8) 0.54370(6) 0.12284(4)
N1 N 0.8925(2) 0.34116(18) 0.08907(13)
N2 N 0.7173(2) 0.20981(17) 0.13872(12)
N3 N 0.8661(2) -0.31908(18) 0.05983(13)
S1 S 0.27856(8) 0.08367(7) 0.16488(5)
Cd1_2 Cd 1.0000 -0.5000 0.0000
C1B C 1.2547(3) -0.2791(2) -0.06924(15)
H1B H 1.3302 -0.2824 -0.0142
C2B C 1.1446(3) -0.2295(2) -0.20731(16)
H2B H 1.1272 -0.1946 -0.2640
C3B C 1.0385(3) -0.3104(2) -0.17574(16)
H3B H 0.9337 -0.3407 -0.2082
C4B C 1.4326(3) -0.1343(2) -0.14180(15)
C5B C 1.5682(3) -0.1985(2) -0.15738(16)
H4B H 1.5770 -0.2934 -0.1633
C6B C 1.6042(3) 0.0510(2) -0.14611(17)
H5B H 1.6405 0.1421 -0.1441
C7B C 1.4503(3) 0.0129(2) -0.13406(15)
C8B C 1.3322(3) 0.1140(2) -0.11238(14)
C9B C 1.3648(3) 0.2533(2) -0.11840(17)
H6B H 1.4540 0.2815 -0.1411
C10B C 1.2666(3) 0.3496(2) -0.09124(18)
H7B H 1.2941 0.4421 -0.0949
C11B C 1.0976(3) 0.1864(2) -0.05776(17)
H8B H 1.0033 0.1617 -0.0382
C12B C 1.1907(3) 0.0824(2) -0.08273(18)
H9B H 1.1586 -0.0090 -0.0797
Cl1B Cl 0.72797(8) 0.45630(6) -0.12284(4)
N1B N 1.1075(2) -0.34116(18) -0.08907(13)
N1B_2 N 1.1075(2) 0.65884(18) -0.08907(13)
N2B N 1.2827(2) -0.20981(17) -0.13872(12)
N3B N 1.1339(2) 0.31908(18) -0.05983(13)
N3_2 N 0.8661(2) 0.68092(18) 0.05983(13)
S1B S 1.72144(8) -0.08367(7) -0.16488(5)
loop_
_geom_bond_atom_site_label_1
_geom_bond_atom_site_label_2
_geom_bond_site_symmetry_1
_geom_bond_site_symmetry_2
Cd1 Cl1 1_555 1_555
C1 H1 1_555 1_555
C2 H2 1_555 1_555
C3 C2 1_555 1_555
H3 C3 1_555 1_555
C4 C5 1_555 1_555
C5 H4 1_555 1_555
C6 H5 1_555 1_555
C7 C4 1_555 1_555
C8 C7 1_555 1_555
C9 C8 1_555 1_555
H6 C9 1_555 1_555
C10 C9 1_555 1_555
H7 C10 1_555 1_555
C11 H8 1_555 1_555
C12 C8 1_555 1_555
H9 C12 1_555 1_555
N1 Cd1 1_555 1_555
N2 C1 1_555 1_555
N3 C10 1_555 1_555
S1 C5 1_555 1_555
Cd1_2 N3 1_555 1_555
C1B H1B 1_555 1_555
C2B H2B 1_555 1_555
C3B C2B 1_555 1_555
H3B C3B 1_555 1_555
C4B C5B 1_555 1_555
C5B H4B 1_555 1_555
C6B H5B 1_555 1_555
C7B C4B 1_555 1_555
C8B C7B 1_555 1_555
C9B C8B 1_555 1_555
H6B C9B 1_555 1_555
C10B C9B 1_555 1_555
H7B C10B 1_555 1_555
C11B H8B 1_555 1_555
C12B C8B 1_555 1_555
H9B C12B 1_555 1_555
Cl1B Cd1 1_555 1_555
N1B Cd1_2 1_555 1_555
N1B_2 Cd1 1_555 1_555
N2B C1B 1_555 1_555
N3B Cd1 1_555 1_555
N3_2 Cd1 1_555 1_555
S1B C5B 1_555 1_555
C1 N1 1_555 1_555
C2 N2 1_555 1_555
C3 N1 1_555 1_555
C4 N2 1_555 1_555
C6 C7 1_555 1_555
C6 S1 1_555 1_555
C11 C12 1_555 1_555
C11 N3 1_555 1_555
C1B N1B 1_555 1_555
C2B N2B 1_555 1_555
C3B N1B 1_555 1_555
C4B N2B 1_555 1_555
C6B C7B 1_555 1_555
C6B S1B 1_555 1_555
C10B N3B 1_555 1_555
C11B C12B 1_555 1_555
C11B N3B 1_555 1_555

#END
