
#######################################################################
#
#                 Cambridge Crystallographic Data Centre
#                                CCDC 
#
#######################################################################
#
# If this CIF has been generated from an entry in the Cambridge 
# Structural Database, then it will include bibliographic, chemical, 
# crystal, experimental, refinement or atomic coordinate data resulting 
# from the CCDC's data processing and validation procedures.
#
#######################################################################

data_EBOBOO
_symmetry_cell_setting           monoclinic
_symmetry_space_group_name_H-M   'C 2/c'
_symmetry_Int_Tables_number      15
_space_group_name_Hall           '-C 2yn'
loop_
_symmetry_equiv_pos_site_id
_symmetry_equiv_pos_as_xyz
1 x,y,z
2 -x,y,1/2-z
3 1/2+x,1/2+y,z
4 1/2-x,1/2+y,1/2-z
5 -x,-y,-z
6 x,-y,1/2+z
7 1/2-x,1/2-y,-z
8 1/2+x,1/2-y,1/2+z
_cell_length_a                   17.57(2)
_cell_length_b                   15.185(7)
_cell_length_c                   13.384(8)
_cell_angle_alpha                90
_cell_angle_beta                 118.595(6)
_cell_angle_gamma                90
_cell_volume                     3135.3
loop_
_atom_site_label
_atom_site_type_symbol
_atom_site_fract_x
_atom_site_fract_y
_atom_site_fract_z
Cu1 Cu 0.5000 0.13725(9) 0.2500
Cu2 Cu 0.24043(7) 0.25435(7) 0.38250(11)
Cu3 Cu 0.21957(8) 0.02820(7) 0.33569(13)
Cu4 Cu 0.2500 -0.2500 0.5000
I1 I 0.15593(3) 0.13581(3) 0.44024(5)
I2 I 0.30674(5) -0.10446(5) 0.51845(7)
N1 N 0.4313(4) 0.1383(4) 0.3234(6)
C1 C 0.3839(5) 0.0689(5) 0.3238(6)
C2 C 0.3554(5) 0.3625(4) 0.2758(7)
H1 H 0.2981 0.3443 0.2333
C3 C 0.3894(5) 0.2083(5) 0.3349(7)
C4 C 0.4040(5) -0.0239(5) 0.3160(7)
N2 N 0.3542(5) -0.1675(4) 0.2363(7)
C5 C 0.3402(5) -0.0803(5) 0.2414(7)
H2 H 0.2857 -0.0574 0.1929
C6 C 0.5214(6) 0.4142(6) 0.4003(9)
H3 H 0.5781 0.4342 0.4432
C7 C 0.4876(5) -0.0561(6) 0.3828(7)
H4 H 0.5329 -0.0186 0.4282
C8 C 0.4172(5) 0.3000(5) 0.3387(7)
C9 C 0.4563(6) 0.4727(5) 0.3368(8)
H5 H 0.4705 0.5319 0.3386
C10 C 0.5013(6) -0.1460(6) 0.3798(8)
H6 H 0.5555 -0.1702 0.4265
C11 C 0.5031(5) 0.3269(6) 0.4005(8)
H7 H 0.5469 0.2864 0.4409
C12 C 0.4333(6) -0.1989(5) 0.3064(8)
H8 H 0.4431 -0.2590 0.3058
N3 N 0.3162(4) 0.0941(4) 0.3375(6)
N4 N 0.3735(4) 0.4486(4) 0.2725(6)
N5 N 0.3203(4) 0.1851(4) 0.3450(6)
Cu1D Cu 0.5000 -0.13725(9) -0.2500
Cu1D_2 Cu 0.5000 -0.13725(9) 0.7500
Cu2A Cu 0.75957(7) 0.25435(7) 0.11750(11)
Cu2B Cu 0.74043(7) -0.24565(7) 0.38250(11)
Cu2C Cu 0.25957(7) -0.24565(7) 0.11750(11)
Cu2F Cu 0.25957(7) 0.24565(7) 0.61750(11)
Cu2G Cu 0.74043(7) 0.24565(7) -0.11750(11)
Cu3A Cu 0.78043(8) 0.02820(7) 0.16431(13)
Cu3B Cu 0.71957(8) 0.52820(7) 0.33569(13)
Cu3C Cu 0.28043(8) 0.52820(7) 0.16431(13)
Cu4A Cu 0.7500 -0.2500 0.0000
I1A I 0.84407(3) 0.13581(3) 0.05976(5)
I1F I 0.34407(3) 0.36419(3) 0.55976(5)
I1G I 0.65593(3) 0.36419(3) -0.05976(5)
I2A I 0.69326(5) -0.10446(5) -0.01845(7)
I2D I 0.69326(5) 0.10446(5) 0.48155(7)
I2E I 0.30674(5) 0.10446(5) 0.01845(7)
I2F I 0.19326(5) -0.39554(5) 0.48155(7)
N1A N 0.5687(4) 0.1383(4) 0.1766(6)
C1A C 0.6161(5) 0.0689(5) 0.1762(6)
C2A C 0.6446(5) 0.3625(4) 0.2242(7)
H1A H 0.7019 0.3443 0.2667
C3A C 0.6106(5) 0.2083(5) 0.1651(7)
C4A C 0.5960(5) -0.0239(5) 0.1840(7)
N2A N 0.6458(5) -0.1675(4) 0.2637(7)
N2B N 0.8542(5) 0.3325(4) 0.2363(7)
N2C N 0.1458(5) 0.3325(4) 0.2637(7)
C5A C 0.6598(5) -0.0803(5) 0.2586(7)
H2A H 0.7143 -0.0574 0.3071
C6A C 0.4786(6) 0.4142(6) 0.0997(9)
H3A H 0.4219 0.4342 0.0568
C7A C 0.5124(5) -0.0561(6) 0.1172(7)
H4A H 0.4671 -0.0186 0.0718
C8A C 0.5828(5) 0.3000(5) 0.1613(7)
C9A C 0.5437(6) 0.4727(5) 0.1632(8)
H5A H 0.5295 0.5319 0.1614
C10A C 0.4987(6) -0.1460(6) 0.1202(8)
H6A H 0.4445 -0.1702 0.0735
C11A C 0.4969(5) 0.3269(6) 0.0995(8)
H7A H 0.4531 0.2864 0.0591
C12A C 0.5667(6) -0.1989(5) 0.1936(8)
H8A H 0.5569 -0.2590 0.1942
N3A N 0.6838(4) 0.0941(4) 0.1625(6)
N4A N 0.6265(4) 0.4486(4) 0.2275(6)
N4B N 0.8735(4) -0.0514(4) 0.2725(6)
N4C N 0.1265(4) -0.0514(4) 0.2275(6)
N5A N 0.6797(4) 0.1851(4) 0.1550(6)
loop_
_geom_bond_atom_site_label_1
_geom_bond_atom_site_label_2
_geom_bond_site_symmetry_1
_geom_bond_site_symmetry_2
Cu1 N1 1_555 1_555
Cu2 I1 1_555 1_555
Cu3 I1 1_555 1_555
Cu4 I2 1_555 1_555
I1 Cu2F 1_555 1_555
I2 Cu3 1_555 1_555
N1 C1 1_555 1_555
C1 C4 1_555 1_555
C2 H1 1_555 1_555
C3 N1 1_555 1_555
C4 C5 1_555 1_555
N2 C5 1_555 1_555
C5 H2 1_555 1_555
C6 H3 1_555 1_555
C7 C4 1_555 1_555
H4 C7 1_555 1_555
C8 C2 1_555 1_555
C9 C6 1_555 1_555
H5 C9 1_555 1_555
C10 C7 1_555 1_555
H6 C10 1_555 1_555
C11 C6 1_555 1_555
H7 C11 1_555 1_555
C12 N2 1_555 1_555
H8 C12 1_555 1_555
N3 Cu3 1_555 1_555
N4 C2 1_555 1_555
N5 Cu2 1_555 1_555
Cu1D I2A 1_555 1_555
Cu1D_2 I2 1_555 1_555
Cu2A I1A 1_555 1_555
Cu2B N2A 1_555 1_555
Cu2C N2 1_555 1_555
Cu2F I1F 1_555 1_555
Cu2G I1A 1_555 1_555
Cu3A I1A 1_555 1_555
Cu3B N4A 1_555 1_555
Cu3C N4 1_555 1_555
Cu4A I2A 1_555 1_555
I1F Cu2 1_555 1_555
I1G Cu2A 1_555 1_555
I2A Cu3A 1_555 1_555
I2D Cu1 1_555 1_555
I2E Cu1 1_555 1_555
I2F Cu4 1_555 1_555
N1A Cu1 1_555 1_555
C1A N1A 1_555 1_555
C2A H1A 1_555 1_555
C3A N1A 1_555 1_555
C4A C1A 1_555 1_555
N2A C5A 1_555 1_555
N2B Cu2A 1_555 1_555
N2C Cu2 1_555 1_555
C5A C4A 1_555 1_555
H2A C5A 1_555 1_555
C6A H3A 1_555 1_555
C7A C4A 1_555 1_555
H4A C7A 1_555 1_555
C8A C2A 1_555 1_555
C9A C6A 1_555 1_555
H5A C9A 1_555 1_555
C10A C7A 1_555 1_555
H6A C10A 1_555 1_555
C11A C6A 1_555 1_555
H7A C11A 1_555 1_555
C12A N2A 1_555 1_555
H8A C12A 1_555 1_555
N3A Cu3A 1_555 1_555
N4A C2A 1_555 1_555
N4B Cu3A 1_555 1_555
N4C Cu3 1_555 1_555
N5A Cu2A 1_555 1_555
C1 N3 1_555 1_555
C3 C8 1_555 1_555
C3 N5 1_555 1_555
C8 C11 1_555 1_555
C9 N4 1_555 1_555
C10 C12 1_555 1_555
N3 N5 1_555 1_555
Cu2G I1G 1_555 1_555
C1A N3A 1_555 1_555
C3A C8A 1_555 1_555
C3A N5A 1_555 1_555
C8A C11A 1_555 1_555
C9A N4A 1_555 1_555
C10A C12A 1_555 1_555
N3A N5A 1_555 1_555

#END
