
#######################################################################
#
#                 Cambridge Crystallographic Data Centre
#                                CCDC 
#
#######################################################################
#
# If this CIF has been generated from an entry in the Cambridge 
# Structural Database, then it will include bibliographic, chemical, 
# crystal, experimental, refinement or atomic coordinate data resulting 
# from the CCDC's data processing and validation procedures.
#
#######################################################################

data_EBODEF
_symmetry_cell_setting           triclinic
_symmetry_space_group_name_H-M   'P -1'
_symmetry_Int_Tables_number      2
_space_group_name_Hall           '-P 1'
loop_
_symmetry_equiv_pos_site_id
_symmetry_equiv_pos_as_xyz
1 x,y,z
2 -x,-y,-z
_cell_length_a                   7.0302(10)
_cell_length_b                   10.0590(14)
_cell_length_c                   10.4550(15)
_cell_angle_alpha                109.372(2)
_cell_angle_beta                 103.980(2)
_cell_angle_gamma                106.137(2)
_cell_volume                     622.904
loop_
_atom_site_label
_atom_site_type_symbol
_atom_site_fract_x
_atom_site_fract_y
_atom_site_fract_z
Zn1 Zn -0.08798(6) 0.10948(4) 0.10592(4)
N1 N -0.1569(5) -0.0134(3) -0.1188(3)
N2 N 0.1194(4) 0.3277(3) 0.1316(3)
N3 N -0.3504(5) 0.2019(4) 0.0628(3)
N4 N 0.0329(4) 0.2439(3) 0.3373(3)
N5 N -0.5207(5) 0.1362(3) -0.0288(3)
N6 N -0.6921(5) 0.0749(4) -0.1200(3)
C1 C 0.0001(6) 0.1994(5) 0.4382(4)
H1 H -0.0845 0.0975 0.4093
C2 C 0.1627(6) 0.3682(4) 0.0298(4)
H2 H 0.1108 0.2928 -0.0651
C3 C 0.1598(5) 0.3922(4) 0.3810(3)
C4 C 0.2011(5) 0.4377(4) 0.2700(3)
C5 C 0.2819(6) 0.5175(4) 0.0583(4)
H3 H 0.3061 0.5408 -0.0168
C6 C 0.0875(6) 0.2992(5) 0.5874(4)
H4 H 0.0624 0.2635 0.6556
C7 C 0.3256(5) 0.5919(4) 0.3090(4)
C8 C 0.2495(5) 0.5007(4) 0.5267(4)
N7 N -0.2077(5) 0.0260(3) -0.2147(3)
C9 C 0.3764(6) 0.6571(4) 0.5632(4)
H5 H 0.4364 0.7292 0.6600
C10 C 0.4093(6) 0.7001(4) 0.4580(4)
H6 H 0.4881 0.8023 0.4834
C11 C 0.2099(6) 0.4494(5) 0.6305(4)
H7 H 0.2669 0.5175 0.7287
C12 C 0.3629(6) 0.6294(4) 0.1965(4)
H8 H 0.4422 0.7298 0.2166
N8 N -0.2559(7) 0.0614(4) -0.3074(4)
N1A N 0.1569(5) 0.0134(3) 0.1188(3)
N6A N -0.3079(5) -0.0749(4) 0.1200(3)
Zn1A Zn 0.08798(6) -0.10948(4) -0.10592(4)
Zn1A_2 Zn -0.91202(6) -0.10948(4) -0.10592(4)
loop_
_geom_bond_atom_site_label_1
_geom_bond_atom_site_label_2
_geom_bond_site_symmetry_1
_geom_bond_site_symmetry_2
Zn1 N1 1_555 1_555
N1 N7 1_555 1_555
N2 Zn1 1_555 1_555
N3 Zn1 1_555 1_555
N4 Zn1 1_555 1_555
N5 N3 1_555 1_555
N6 N5 1_555 1_555
C1 N4 1_555 1_555
H1 C1 1_555 1_555
C2 N2 1_555 1_555
H2 C2 1_555 1_555
C3 N4 1_555 1_555
C4 N2 1_555 1_555
C5 C2 1_555 1_555
H3 C5 1_555 1_555
C6 C1 1_555 1_555
H4 C6 1_555 1_555
C7 C4 1_555 1_555
C8 C3 1_555 1_555
N7 N8 1_555 1_555
C9 C8 1_555 1_555
H5 C9 1_555 1_555
C10 C7 1_555 1_555
H6 C10 1_555 1_555
C11 C6 1_555 1_555
H7 C11 1_555 1_555
C12 C5 1_555 1_555
H8 C12 1_555 1_555
N1A Zn1 1_555 1_555
N6A Zn1 1_555 1_555
Zn1A N1 1_555 1_555
Zn1A_2 N6 1_555 1_555
C3 C4 1_555 1_555
C7 C12 1_555 1_555
C8 C11 1_555 1_555
C9 C10 1_555 1_555
N1A Zn1A 1_555 1_555

#END
