
#######################################################################
#
#                 Cambridge Crystallographic Data Centre
#                                CCDC 
#
#######################################################################
#
# If this CIF has been generated from an entry in the Cambridge 
# Structural Database, then it will include bibliographic, chemical, 
# crystal, experimental, refinement or atomic coordinate data resulting 
# from the CCDC's data processing and validation procedures.
#
#######################################################################

data_EBODOP01
_symmetry_cell_setting           triclinic
_symmetry_space_group_name_H-M   'P -1'
_symmetry_Int_Tables_number      2
_space_group_name_Hall           '-P 1'
loop_
_symmetry_equiv_pos_site_id
_symmetry_equiv_pos_as_xyz
1 x,y,z
2 -x,-y,-z
_cell_length_a                   6.5538(12)
_cell_length_b                   10.8448(14)
_cell_length_c                   16.885(3)
_cell_angle_alpha                96.316(4)
_cell_angle_beta                 95.365(5)
_cell_angle_gamma                90.497(5)
_cell_volume                     1187.37
loop_
_atom_site_label
_atom_site_type_symbol
_atom_site_fract_x
_atom_site_fract_y
_atom_site_fract_z
Zn1 Zn 0.54832(10) 0.15007(6) 0.24411(4)
Zn2 Zn 1.05032(10) 0.26723(6) 0.24733(4)
N1 N 0.3212(7) 0.2466(5) 0.1837(3)
C1 C 0.6908(11) 0.0555(8) 0.4038(4)
H1 H 0.7157 0.1393 0.4208
N2 N 0.3583(9) 0.3157(7) 0.1362(4)
N3 N 0.6194(8) 0.0226(5) 0.3281(3)
N4 N 0.4563(7) -0.0263(5) 0.1784(3)
N5 N 0.8219(7) 0.1539(5) 0.1809(3)
N6 N 1.1798(11) 0.1395(6) 0.3179(4)
N7 N 1.1355(9) 0.0337(5) 0.3203(3)
N8 N 1.1045(11) -0.0700(6) 0.3233(5)
N9 N 0.9655(8) 0.4296(5) 0.1913(3)
C2 C 1.1997(11) 0.4009(7) 0.4117(4)
H2 H 1.2218 0.3209 0.4250
N10 N 1.1266(7) 0.4155(5) 0.3375(3)
N11 N 0.6763(11) 0.2975(6) 0.3197(4)
N12 N 0.6314(8) 0.4017(5) 0.3164(3)
N13 N 0.5915(10) 0.5060(6) 0.3141(5)
N14 N 0.3937(14) 0.3826(12) 0.0899(6)
C3 C 0.7291(14) -0.0284(10) 0.4578(5)
H3 H 0.7785 -0.0027 0.5105
C4 C 0.6925(15) -0.1516(10) 0.4321(6)
H4 H 0.7166 -0.2108 0.4675
C5 C 0.6204(13) -0.1874(8) 0.3540(6)
H5 H 0.5973 -0.2709 0.3357
C6 C 0.5826(9) -0.0971(6) 0.3028(4)
C7 C 0.5006(9) -0.1251(6) 0.2180(4)
C8 C 0.3839(11) -0.0432(7) 0.1009(4)
H6 H 0.3511 0.0254 0.0740
C9 C 0.3575(12) -0.1602(9) 0.0605(6)
H7 H 0.3099 -0.1697 0.0066
C10 C 0.3998(12) -0.2610(8) 0.0983(6)
H8 H 0.3820 -0.3401 0.0709
C11 C 0.4697(11) -0.2453(7) 0.1781(6)
H9 H 0.4965 -0.3141 0.2055
C12 C 1.0130(9) 0.5404(6) 0.2347(4)
C13 C 0.9845(11) 0.6492(6) 0.2016(5)
H10 H 1.0183 0.7245 0.2322
C14 C 0.9057(12) 0.6472(8) 0.1232(5)
H11 H 0.8884 0.7208 0.1000
C15 C 0.8531(12) 0.5360(8) 0.0796(5)
H12 H 0.7971 0.5324 0.0267
C16 C 0.8852(10) 0.4290(7) 0.1161(4)
H13 H 0.8488 0.3531 0.0867
C17 C 1.0956(9) 0.5309(6) 0.3175(4)
C18 C 1.1354(11) 0.6342(7) 0.3737(5)
H14 H 1.1123 0.7137 0.3594
C19 C 1.2090(14) 0.6170(9) 0.4500(5)
H15 H 1.2350 0.6850 0.4884
C20 C 1.2444(13) 0.4994(9) 0.4700(5)
H16 H 1.2972 0.4864 0.5214
N15 N 0.8643(8) 0.0623(5) 0.1391(4)
N16 N 0.8969(12) -0.0247(8) 0.0993(6)
Zn2_2 Zn 0.05032(10) 0.26723(6) 0.24733(4)
N1_2 N 1.3212(7) 0.2466(5) 0.1837(3)
loop_
_geom_bond_atom_site_label_1
_geom_bond_atom_site_label_2
_geom_bond_site_symmetry_1
_geom_bond_site_symmetry_2
Zn1 N1 1_555 1_555
Zn2 N5 1_555 1_555
N1 N2 1_555 1_555
C1 H1 1_555 1_555
N2 N14 1_555 1_555
N3 Zn1 1_555 1_555
N4 Zn1 1_555 1_555
N5 Zn1 1_555 1_555
N6 Zn2 1_555 1_555
N7 N6 1_555 1_555
N8 N7 1_555 1_555
N9 Zn2 1_555 1_555
C2 H2 1_555 1_555
N10 Zn2 1_555 1_555
N11 Zn1 1_555 1_555
N12 N11 1_555 1_555
N13 N12 1_555 1_555
C3 C1 1_555 1_555
H3 C3 1_555 1_555
C4 C3 1_555 1_555
H4 C4 1_555 1_555
C5 C4 1_555 1_555
H5 C5 1_555 1_555
C6 N3 1_555 1_555
C7 N4 1_555 1_555
C8 N4 1_555 1_555
H6 C8 1_555 1_555
C9 C8 1_555 1_555
H7 C9 1_555 1_555
C10 C9 1_555 1_555
H8 C10 1_555 1_555
C11 C7 1_555 1_555
H9 C11 1_555 1_555
C12 N9 1_555 1_555
C13 C12 1_555 1_555
H10 C13 1_555 1_555
C14 C13 1_555 1_555
H11 C14 1_555 1_555
C15 C14 1_555 1_555
H12 C15 1_555 1_555
C16 N9 1_555 1_555
H13 C16 1_555 1_555
C17 N10 1_555 1_555
C18 C17 1_555 1_555
H14 C18 1_555 1_555
C19 C18 1_555 1_555
H15 C19 1_555 1_555
C20 C2 1_555 1_555
H16 C20 1_555 1_555
N15 N5 1_555 1_555
N16 N15 1_555 1_555
Zn2_2 N1 1_555 1_555
N1_2 Zn2 1_555 1_555
C1 N3 1_555 1_555
C2 N10 1_555 1_555
C5 C6 1_555 1_555
C6 C7 1_555 1_555
C10 C11 1_555 1_555
C12 C17 1_555 1_555
C15 C16 1_555 1_555
C19 C20 1_555 1_555

#END
