
#######################################################################
#
#                 Cambridge Crystallographic Data Centre
#                                CCDC 
#
#######################################################################
#
# If this CIF has been generated from an entry in the Cambridge 
# Structural Database, then it will include bibliographic, chemical, 
# crystal, experimental, refinement or atomic coordinate data resulting 
# from the CCDC's data processing and validation procedures.
#
#######################################################################

data_EBODOP
_symmetry_cell_setting           triclinic
_symmetry_space_group_name_H-M   'P -1'
_symmetry_Int_Tables_number      2
_space_group_name_Hall           '-P 1'
loop_
_symmetry_equiv_pos_site_id
_symmetry_equiv_pos_as_xyz
1 x,y,z
2 -x,-y,-z
_cell_length_a                   6.5506(2)
_cell_length_b                   10.8441(6)
_cell_length_c                   16.893(2)
_cell_angle_alpha                96.333(5)
_cell_angle_beta                 95.361(7)
_cell_angle_gamma                90.548(6)
_cell_volume                     1187.22
loop_
_atom_site_label
_atom_site_type_symbol
_atom_site_fract_x
_atom_site_fract_y
_atom_site_fract_z
Zn1 Zn 0.45017(5) 0.23202(2) 0.251940(18)
Zn2 Zn -0.04665(5) 0.35001(2) 0.255110(18)
N1 N -0.1179(3) 0.47753(18) 0.17226(13)
N2 N 0.1796(3) 0.25194(19) 0.31554(14)
N3 N 0.3639(3) 0.46474(19) 0.18084(14)
N4 N -0.1313(3) 0.09766(19) 0.18312(13)
N5 N -0.1788(4) 0.2029(2) 0.17920(16)
C1 C 0.4046(4) -0.0312(2) 0.18157(16)
N6 N 0.0451(3) 0.52554(19) 0.32123(14)
N7 N 0.5360(3) 0.07029(18) 0.30863(13)
C2 C 0.4882(4) -0.0396(2) 0.26533(16)
C3 C 0.0005(4) 0.6260(2) 0.28280(17)
C4 C -0.0805(4) 0.5987(2) 0.19776(17)
N8 N 0.1410(4) 0.1841(3) 0.36421(16)
C5 C -0.1910(5) 0.4460(3) 0.09629(18)
H1 H -0.2168 0.3625 0.0787
N9 N 0.3169(4) 0.3590(2) 0.18143(17)
C6 C 0.0287(4) 0.7443(3) 0.3215(2)
H2 H 0.0006 0.8125 0.2937
C7 C 0.5140(4) -0.1489(2) 0.29779(19)
H3 H 0.4784 -0.2241 0.2673
C8 C 0.6142(4) 0.0703(3) 0.38420(17)
H4 H 0.6476 0.1463 0.4140
C9 C 0.3647(5) -0.1345(3) 0.12560(19)
H5 H 0.3886 -0.2140 0.1396
C10 C -0.1173(5) 0.6889(3) 0.1474(2)
H6 H -0.0919 0.7720 0.1662
C11 C 0.2997(5) 0.0980(3) 0.08681(17)
H7 H 0.2771 0.1780 0.0735
N10 N 0.3730(3) 0.08372(18) 0.16197(13)
C12 C 0.5945(5) -0.1461(3) 0.3772(2)
H8 H 0.6117 -0.2194 0.4008
N11 N 0.4004(4) 0.5677(2) 0.17728(19)
N12 N -0.0914(4) -0.0045(2) 0.18601(19)
C13 C 0.6479(5) -0.0345(3) 0.42018(19)
H9 H 0.7059 -0.0304 0.4728
C14 C 0.2892(5) -0.1167(3) 0.0489(2)
H10 H 0.2603 -0.1847 0.0107
C15 C -0.2297(5) 0.5317(3) 0.0430(2)
H11 H -0.2804 0.5070 -0.0097
C16 C 0.0989(5) 0.7611(3) 0.4016(2)
H12 H 0.1152 0.8405 0.4288
C17 C 0.1167(4) 0.5424(3) 0.39843(19)
H13 H 0.1492 0.4733 0.4249
C18 C 0.1441(5) 0.6595(3) 0.4404(2)
H14 H 0.1927 0.6686 0.4942
C19 C -0.1914(6) 0.6556(3) 0.0696(2)
H15 H -0.2159 0.7157 0.0349
C20 C 0.2566(5) 0.0005(3) 0.02879(19)
H16 H 0.2065 0.0138 -0.0229
N13 N 0.1058(5) 0.1175(3) 0.4098(2)
N14 N 0.6794(3) 0.34556(19) 0.31748(13)
N15 N 0.6371(3) 0.4372(2) 0.36019(16)
N16 N 0.6041(5) 0.5242(3) 0.4008(2)
N14_2 N -0.3206(3) 0.34556(19) 0.31748(13)
Zn2_2 Zn 0.95335(5) 0.35001(2) 0.255110(18)
loop_
_geom_bond_atom_site_label_1
_geom_bond_atom_site_label_2
_geom_bond_site_symmetry_1
_geom_bond_site_symmetry_2
Zn1 N2 1_555 1_555
Zn2 N1 1_555 1_555
N1 C4 1_555 1_555
N2 Zn2 1_555 1_555
N3 N9 1_555 1_555
N4 N5 1_555 1_555
N5 Zn2 1_555 1_555
C1 C2 1_555 1_555
N6 Zn2 1_555 1_555
N7 Zn1 1_555 1_555
C2 N7 1_555 1_555
C3 N6 1_555 1_555
C4 C3 1_555 1_555
N8 N2 1_555 1_555
C5 N1 1_555 1_555
H1 C5 1_555 1_555
N9 Zn1 1_555 1_555
C6 C3 1_555 1_555
H2 C6 1_555 1_555
C7 C2 1_555 1_555
H3 C7 1_555 1_555
C8 N7 1_555 1_555
H4 C8 1_555 1_555
C9 C1 1_555 1_555
H5 C9 1_555 1_555
C10 C4 1_555 1_555
H6 C10 1_555 1_555
C11 H7 1_555 1_555
N10 Zn1 1_555 1_555
C12 C7 1_555 1_555
H8 C12 1_555 1_555
N11 N3 1_555 1_555
N12 N4 1_555 1_555
C13 C8 1_555 1_555
H9 C13 1_555 1_555
C14 C9 1_555 1_555
H10 C14 1_555 1_555
C15 C5 1_555 1_555
H11 C15 1_555 1_555
C16 C6 1_555 1_555
H12 C16 1_555 1_555
C17 N6 1_555 1_555
H13 C17 1_555 1_555
C18 C16 1_555 1_555
H14 C18 1_555 1_555
C19 C10 1_555 1_555
H15 C19 1_555 1_555
C20 C11 1_555 1_555
H16 C20 1_555 1_555
N13 N8 1_555 1_555
N14 Zn1 1_555 1_555
N15 N14 1_555 1_555
N16 N15 1_555 1_555
N14_2 Zn2 1_555 1_555
Zn2_2 N14 1_555 1_555
C1 N10 1_555 1_555
C11 N10 1_555 1_555
C12 C13 1_555 1_555
C14 C20 1_555 1_555
C15 C19 1_555 1_555
C17 C18 1_555 1_555

#END
