
#######################################################################
#
#                 Cambridge Crystallographic Data Centre
#                                CCDC 
#
#######################################################################
#
# If this CIF has been generated from an entry in the Cambridge 
# Structural Database, then it will include bibliographic, chemical, 
# crystal, experimental, refinement or atomic coordinate data resulting 
# from the CCDC's data processing and validation procedures.
#
#######################################################################

data_EBOFEH
_symmetry_cell_setting           monoclinic
_symmetry_space_group_name_H-M   'P 21/n'
_symmetry_Int_Tables_number      14
_space_group_name_Hall           '-P 2yn'
loop_
_symmetry_equiv_pos_site_id
_symmetry_equiv_pos_as_xyz
1 x,y,z
2 1/2+x,1/2-y,1/2+z
3 -x,-y,-z
4 1/2-x,1/2+y,1/2-z
_cell_length_a                   11.4426(2)
_cell_length_b                   22.0767(4)
_cell_length_c                   27.4792(5)
_cell_angle_alpha                90
_cell_angle_beta                 101.2330(10)
_cell_angle_gamma                90
_cell_volume                     6808.67
loop_
_atom_site_label
_atom_site_type_symbol
_atom_site_fract_x
_atom_site_fract_y
_atom_site_fract_z
Co1 Co 0.0000 0.5000 0.0000
Co2 Co -0.87323(6) 0.30315(3) -0.22296(2)
S1 S 0.34440(12) 0.47114(8) 0.12634(5)
S2 S -0.7769(6) 0.4459(2) -0.34031(15)
S3 S -1.0246(6) 0.15187(14) -0.12618(15)
N1 N -0.1491(3) 0.47902(18) 0.03700(13)
N2 N -0.7397(4) 0.33548(19) -0.16125(15)
N3 N -0.0142(3) 0.59823(17) 0.01638(14)
N4 N 0.1224(4) 0.49084(18) 0.06668(14)
N5 N -0.9912(4) 0.37789(17) -0.21151(15)
N6 N -0.7388(4) 0.7265(2) -0.26590(17)
N7 N -0.4892(4) 0.77385(19) -0.21392(16)
N8 N -0.8002(4) 0.3564(2) -0.27242(18)
N9 N -0.9488(4) 0.2476(2) -0.17547(18)
C1 C -0.2454(4) 0.4488(2) 0.01377(18)
H1 H -0.2457 0.4350 -0.0182
C2 C -0.3447(4) 0.4366(2) 0.03402(17)
C3 C -0.3410(5) 0.4554(3) 0.08227(19)
H2 H -0.4045 0.4472 0.0978
C4 C -0.2437(5) 0.4864(3) 0.1071(2)
H3 H -0.2405 0.4994 0.1395
C5 C -0.1502(5) 0.4979(2) 0.08331(18)
H4 H -0.0852 0.5197 0.1001
C6 C -0.5682(5) 0.3827(2) -0.08202(19)
C7 C -0.4499(4) 0.4034(2) 0.00448(18)
C8 C -0.5159(7) 0.3608(4) 0.0342(3)
H5 H -0.5897 0.3791 0.0379
H6 H -0.4675 0.3537 0.0663
H7 H -0.5318 0.3230 0.0168
C9 C -0.4750(5) 0.4100(3) -0.04407(19)
H8 H -0.4250 0.4367 -0.0565
C10 C -0.6766(5) 0.3616(3) -0.0752(2)
H9 H -0.6952 0.3625 -0.0438
C11 C -0.7590(5) 0.3390(3) -0.1151(2)
H10 H -0.8319 0.3255 -0.1092
C12 C -0.6358(5) 0.3570(3) -0.1680(2)
H11 H -0.6196 0.3561 -0.1999
C13 C -0.5508(5) 0.3805(3) -0.1306(2)
H12 H -0.4801 0.3953 -0.1379
C14 C -0.9581(4) 0.4357(2) -0.21311(18)
H13 H -0.8803 0.4437 -0.2166
C15 C -1.0338(5) 0.4854(2) -0.20992(19)
C16 C -1.1473(6) 0.4710(3) -0.2023(2)
H14 H -1.2004 0.5018 -0.1986
C17 C -1.1812(5) 0.4119(3) -0.2002(2)
H15 H -1.2576 0.4026 -0.1956
C18 C -1.1023(5) 0.3659(3) -0.2049(2)
H16 H -1.1264 0.3258 -0.2035
C19 C -0.9928(5) 0.5482(2) -0.2125(2)
C20 C -1.0409(7) 0.5943(3) -0.1811(3)
H17 H -1.0001 0.5906 -0.1473
H18 H -1.1246 0.5875 -0.1831
H19 H -1.0288 0.6343 -0.1930
C21 C -0.9158(6) 0.5616(2) -0.2421(2)
H20 H -0.8967 0.5297 -0.2612
C22 C -0.8575(5) 0.6198(2) -0.2483(2)
C23 C -0.8107(6) 0.6579(3) -0.2101(2)
H21 H -0.8172 0.6483 -0.1777
C24 C -0.8398(6) 0.6354(3) -0.2951(2)
H22 H -0.8669 0.6100 -0.3219
C25 C -0.7815(6) 0.6890(3) -0.3023(2)
H23 H -0.7724 0.6989 -0.3342
C26 C -0.7531(6) 0.7113(3) -0.2197(2)
H24 H -0.7237 0.7372 -0.1935
C27 C -0.0888(5) 0.6339(2) -0.0147(2)
H25 H -0.1359 0.6154 -0.0421
C28 C -0.1020(5) 0.6944(2) -0.0099(2)
C29 C -0.0350(5) 0.7218(3) 0.0314(2)
H26 H -0.0413 0.7632 0.0365
C30 C 0.0409(6) 0.6869(3) 0.0645(2)
H27 H 0.0877 0.7043 0.0925
C31 C 0.0471(5) 0.6263(2) 0.05608(17)
H28 H 0.0973 0.6031 0.0796
C32 C -0.1918(7) 0.7298(3) -0.0474(3)
C34 C -0.146(3) 0.7967(7) -0.0571(13)
H32 H -0.1907 0.8261 -0.0428
H33 H -0.1560 0.8036 -0.0922
H34 H -0.0628 0.8003 -0.0422
C35 C -0.2340(5) 0.7095(3) -0.0896(2)
H35 H -0.2052 0.6714 -0.0954
C36 C -0.3197(5) 0.7337(2) -0.1318(2)
C37 C -0.3569(6) 0.7939(3) -0.1377(2)
H36 H -0.3250 0.8228 -0.1143
C38 C -0.4413(6) 0.8101(3) -0.1785(3)
H37 H -0.4659 0.8503 -0.1809
C39 C -0.4510(6) 0.7165(3) -0.2093(2)
H38 H -0.4815 0.6891 -0.2342
C40 C -0.3687(6) 0.6963(2) -0.1693(2)
H39 H -0.3460 0.6558 -0.1680
C41 C 0.2127(4) 0.4830(2) 0.09132(16)
C42 C -0.7860(8) 0.3910(4) -0.3007(3)
C43 C -0.9799(8) 0.2080(3) -0.1552(3)
N1B N 0.1491(3) 0.52098(18) -0.03700(13)
N2B N 0.7397(4) 0.66452(19) 0.16125(15)
C1B C 0.2454(4) 0.5512(2) -0.01377(18)
H1B H 0.2457 0.5650 0.0182
C2B C 0.3447(4) 0.5634(2) -0.03402(17)
C3B C 0.3410(5) 0.5446(3) -0.08227(19)
H2B H 0.4045 0.5528 -0.0978
C4B C 0.2437(5) 0.5136(3) -0.1071(2)
H3B H 0.2405 0.5006 -0.1395
C5B C 0.1502(5) 0.5021(2) -0.08331(18)
H4B H 0.0852 0.4803 -0.1001
C6B C 0.5682(5) 0.6173(2) 0.08202(19)
C7B C 0.4499(4) 0.5966(2) -0.00448(18)
C8B C 0.5159(7) 0.6392(4) -0.0342(3)
H5B H 0.5897 0.6209 -0.0379
H6B H 0.4675 0.6463 -0.0663
H7B H 0.5318 0.6770 -0.0168
C9B C 0.4750(5) 0.5900(3) 0.04407(19)
H8B H 0.4250 0.5633 0.0565
C10B C 0.6766(5) 0.6384(3) 0.0752(2)
H9B H 0.6952 0.6375 0.0438
C11B C 0.7590(5) 0.6610(3) 0.1151(2)
H10B H 0.8319 0.6745 0.1092
C12B C 0.6358(5) 0.6430(3) 0.1680(2)
H11B H 0.6196 0.6439 0.1999
C13B C 0.5508(5) 0.6195(3) 0.1306(2)
H12B H 0.4801 0.6047 0.1379
N3B N 0.0142(3) 0.40177(17) -0.01638(14)
N7B N 0.4892(4) 0.22615(19) 0.21392(16)
C27B C 0.0888(5) 0.3661(2) 0.0147(2)
H25B H 0.1359 0.3846 0.0421
C28B C 0.1020(5) 0.3056(2) 0.0099(2)
C29B C 0.0350(5) 0.2782(3) -0.0314(2)
H26B H 0.0413 0.2368 -0.0365
C30B C -0.0409(6) 0.3131(3) -0.0645(2)
H27B H -0.0877 0.2957 -0.0925
C31B C -0.0471(5) 0.3737(2) -0.05608(17)
H28B H -0.0973 0.3969 -0.0796
C32B C 0.1918(7) 0.2702(3) 0.0474(3)
C34B C 0.146(3) 0.2033(7) 0.0571(13)
H32B H 0.1907 0.1739 0.0428
H33B H 0.1560 0.1964 0.0922
H34B H 0.0628 0.1997 0.0422
C35B C 0.2340(5) 0.2905(3) 0.0896(2)
H35B H 0.2052 0.3286 0.0954
C36B C 0.3197(5) 0.2663(2) 0.1318(2)
C37B C 0.3569(6) 0.2061(3) 0.1377(2)
H36B H 0.3250 0.1772 0.1143
C38B C 0.4413(6) 0.1899(3) 0.1785(3)
H37B H 0.4659 0.1497 0.1809
C39B C 0.4510(6) 0.2835(3) 0.2093(2)
H38B H 0.4815 0.3109 0.2342
C40B C 0.3687(6) 0.3037(2) 0.1693(2)
H39B H 0.3460 0.3442 0.1680
S1B S -0.34440(12) 0.52886(8) -0.12634(5)
N4B N -0.1224(4) 0.50916(18) -0.06668(14)
C41B C -0.2127(4) 0.5170(2) -0.09132(16)
Co2B Co 0.87323(6) 0.69685(3) 0.22296(2)
N5C N -0.5088(4) -0.12211(17) -0.28849(15)
N6C N -0.7612(4) 0.2265(2) -0.23410(17)
C14C C -0.5419(4) -0.0643(2) -0.28689(18)
H13C H -0.6197 -0.0563 -0.2834
C15C C -0.4662(5) -0.0146(2) -0.29008(19)
C16C C -0.3527(6) -0.0290(3) -0.2977(2)
H14C H -0.2996 0.0018 -0.3014
C17C C -0.3188(5) -0.0881(3) -0.2998(2)
H15C H -0.2424 -0.0974 -0.3044
C18C C -0.3977(5) -0.1341(3) -0.2951(2)
H16C H -0.3736 -0.1742 -0.2965
C19C C -0.5072(5) 0.0482(2) -0.2875(2)
C20C C -0.4591(7) 0.0943(3) -0.3189(3)
H17C H -0.4999 0.0906 -0.3527
H18C H -0.3754 0.0875 -0.3169
H19C H -0.4712 0.1343 -0.3070
C21C C -0.5842(6) 0.0616(2) -0.2579(2)
H20C H -0.6033 0.0297 -0.2388
C22C C -0.6425(5) 0.1198(2) -0.2517(2)
C23C C -0.6893(6) 0.1579(3) -0.2899(2)
H21C H -0.6828 0.1483 -0.3223
C24C C -0.6602(6) 0.1354(3) -0.2049(2)
H22C H -0.6331 0.1100 -0.1781
C25C C -0.7185(6) 0.1890(3) -0.1977(2)
H23C H -0.7276 0.1989 -0.1658
C26C C -0.7469(6) 0.2113(3) -0.2803(2)
H24C H -0.7763 0.2372 -0.3065
S2B S 0.7769(6) 0.5541(2) 0.34031(15)
N8B N 0.8002(4) 0.6436(2) 0.27242(18)
C42B C 0.7860(8) 0.6090(4) 0.3007(3)
S3B S 1.0246(6) 0.84813(14) 0.12618(15)
N9B N 0.9488(4) 0.7524(2) 0.17547(18)
C43B C 0.9799(8) 0.7920(3) 0.1552(3)
N7C N -1.0108(4) 0.27385(19) -0.28608(16)
Co2C Co -0.62677(6) 0.80315(3) -0.27704(2)
Co2A Co 0.62677(6) 0.19685(3) 0.27704(2)
N5B N 0.9912(4) 0.62211(17) 0.21151(15)
N6A N 0.7612(4) 0.7735(2) 0.23410(17)
N7A N 1.0108(4) 0.72615(19) 0.28608(16)
Co2C_2 Co -0.62677(6) -0.19685(3) -0.27704(2)
N10 N 0.5638(10) 0.4768(5) 0.2378(5)
O1 O 0.6255(11) 0.4981(5) 0.2089(4)
O2 O 0.5003(14) 0.5383(6) 0.2337(6)
C44 C 0.4961(15) 0.4532(7) 0.2700(6)
N11 N 0.848(3) 0.2911(15) 0.0717(12)
O3 O 0.751(2) 0.2748(13) 0.0911(9)
O4 O 0.875(4) 0.248(2) 0.0392(15)
C45 C 0.939(4) 0.332(3) 0.100(2)
N12 N 0.057(4) 0.1878(17) 0.2047(15)
O5 O 0.060(4) 0.2434(16) 0.1818(14)
O6 O 0.108(5) 0.186(2) 0.2542(15)
C46 C 0.059(5) 0.1354(18) 0.1719(18)
O7 O 0.322(3) 0.742(2) 0.1721(13)
C47 C 0.327(4) 0.804(2) 0.2017(17)
C33? C -0.2643(14) 0.7779(6) -0.0221(5)
H29? H -0.3456 0.7787 -0.0395
H30? H -0.2295 0.8173 -0.0235
H31? H -0.2616 0.7668 0.0118
loop_
_geom_bond_atom_site_label_1
_geom_bond_atom_site_label_2
_geom_bond_site_symmetry_1
_geom_bond_site_symmetry_2
Co1 N1 1_555 1_555
Co2 N2 1_555 1_555
S1 C41 1_555 1_555
S2 C42 1_555 1_555
S3 C43 1_555 1_555
N1 C1 1_555 1_555
N2 C11 1_555 1_555
N3 Co1 1_555 1_555
N4 Co1 1_555 1_555
N5 Co2 1_555 1_555
N6 C25 1_555 1_555
N7 C38 1_555 1_555
N8 Co2 1_555 1_555
N9 Co2 1_555 1_555
C1 H1 1_555 1_555
C2 C1 1_555 1_555
C3 C2 1_555 1_555
H2 C3 1_555 1_555
C4 C3 1_555 1_555
H3 C4 1_555 1_555
C5 N1 1_555 1_555
H4 C5 1_555 1_555
C6 C9 1_555 1_555
C7 C2 1_555 1_555
C8 C7 1_555 1_555
H5 C8 1_555 1_555
H6 C8 1_555 1_555
H7 C8 1_555 1_555
C9 C7 1_555 1_555
H8 C9 1_555 1_555
C10 C6 1_555 1_555
H9 C10 1_555 1_555
C11 C10 1_555 1_555
H10 C11 1_555 1_555
C12 N2 1_555 1_555
H11 C12 1_555 1_555
C13 C6 1_555 1_555
H12 C13 1_555 1_555
C14 N5 1_555 1_555
H13 C14 1_555 1_555
C15 C14 1_555 1_555
C16 C15 1_555 1_555
H14 C16 1_555 1_555
C17 C16 1_555 1_555
H15 C17 1_555 1_555
C18 N5 1_555 1_555
H16 C18 1_555 1_555
C19 C15 1_555 1_555
C20 C19 1_555 1_555
H17 C20 1_555 1_555
H18 C20 1_555 1_555
H19 C20 1_555 1_555
C21 C19 1_555 1_555
H20 C21 1_555 1_555
C22 C21 1_555 1_555
C23 C22 1_555 1_555
H21 C23 1_555 1_555
C24 C22 1_555 1_555
H22 C24 1_555 1_555
C25 C24 1_555 1_555
H23 C25 1_555 1_555
C26 N6 1_555 1_555
H24 C26 1_555 1_555
C27 N3 1_555 1_555
H25 C27 1_555 1_555
C28 C27 1_555 1_555
C29 C28 1_555 1_555
H26 C29 1_555 1_555
C30 C29 1_555 1_555
H27 C30 1_555 1_555
C31 N3 1_555 1_555
H28 C31 1_555 1_555
C32 C28 1_555 1_555
C34 C32 1_555 1_555
H32 C34 1_555 1_555
H33 C34 1_555 1_555
H34 C34 1_555 1_555
C35 C32 1_555 1_555
H35 C35 1_555 1_555
C36 C35 1_555 1_555
C37 C36 1_555 1_555
H36 C37 1_555 1_555
C38 C37 1_555 1_555
H37 C38 1_555 1_555
C39 N7 1_555 1_555
H38 C39 1_555 1_555
C40 C36 1_555 1_555
H39 C40 1_555 1_555
C41 N4 1_555 1_555
C42 N8 1_555 1_555
C43 N9 1_555 1_555
N10 O1 1_555 1_555
O2 N10 1_555 1_555
C44 N10 1_555 1_555
N11 O3 1_555 1_555
O4 N11 1_555 1_555
C45 N11 1_555 1_555
N12 O5 1_555 1_555
O6 N12 1_555 1_555
C46 N12 1_555 1_555
O7 C47 1_555 1_555
N1B Co1 1_555 1_555
N2B C11B 1_555 1_555
C1B N1B 1_555 1_555
H1B C1B 1_555 1_555
C2B C1B 1_555 1_555
C3B C2B 1_555 1_555
H2B C3B 1_555 1_555
C4B C3B 1_555 1_555
H3B C4B 1_555 1_555
C5B N1B 1_555 1_555
H4B C5B 1_555 1_555
C6B C9B 1_555 1_555
C7B C2B 1_555 1_555
C8B C7B 1_555 1_555
H5B C8B 1_555 1_555
H6B C8B 1_555 1_555
H7B C8B 1_555 1_555
C9B C7B 1_555 1_555
H8B C9B 1_555 1_555
C10B C6B 1_555 1_555
H9B C10B 1_555 1_555
C11B C10B 1_555 1_555
H10B C11B 1_555 1_555
C12B N2B 1_555 1_555
H11B C12B 1_555 1_555
C13B C6B 1_555 1_555
H12B C13B 1_555 1_555
N3B Co1 1_555 1_555
N7B C38B 1_555 1_555
C27B N3B 1_555 1_555
H25B C27B 1_555 1_555
C28B C27B 1_555 1_555
C29B C28B 1_555 1_555
H26B C29B 1_555 1_555
C30B C29B 1_555 1_555
H27B C30B 1_555 1_555
C31B N3B 1_555 1_555
H28B C31B 1_555 1_555
C32B C28B 1_555 1_555
C34B C32B 1_555 1_555
H32B C34B 1_555 1_555
H33B C34B 1_555 1_555
H34B C34B 1_555 1_555
C35B C32B 1_555 1_555
H35B C35B 1_555 1_555
C36B C35B 1_555 1_555
C37B C36B 1_555 1_555
H36B C37B 1_555 1_555
C38B C37B 1_555 1_555
H37B C38B 1_555 1_555
C39B N7B 1_555 1_555
H38B C39B 1_555 1_555
C40B C36B 1_555 1_555
H39B C40B 1_555 1_555
S1B C41B 1_555 1_555
N4B Co1 1_555 1_555
C41B N4B 1_555 1_555
Co2B N2B 1_555 1_555
N5C C14C 1_555 1_555
N6C Co2 1_555 1_555
C14C H13C 1_555 1_555
C15C C14C 1_555 1_555
C16C C15C 1_555 1_555
H14C C16C 1_555 1_555
C17C C16C 1_555 1_555
H15C C17C 1_555 1_555
C18C N5C 1_555 1_555
H16C C18C 1_555 1_555
C19C C15C 1_555 1_555
C20C C19C 1_555 1_555
H17C C20C 1_555 1_555
H18C C20C 1_555 1_555
H19C C20C 1_555 1_555
C21C C19C 1_555 1_555
H20C C21C 1_555 1_555
C22C C21C 1_555 1_555
C23C C22C 1_555 1_555
H21C C23C 1_555 1_555
C24C C22C 1_555 1_555
H22C C24C 1_555 1_555
C25C N6C 1_555 1_555
H23C C25C 1_555 1_555
C26C N6C 1_555 1_555
H24C C26C 1_555 1_555
S2B C42B 1_555 1_555
N8B Co2B 1_555 1_555
C42B N8B 1_555 1_555
S3B C43B 1_555 1_555
N9B Co2B 1_555 1_555
C43B N9B 1_555 1_555
N7C Co2 1_555 1_555
Co2C N6 1_555 1_555
Co2A N7B 1_555 1_555
N5B Co2B 1_555 1_555
N6A Co2B 1_555 1_555
N7A Co2B 1_555 1_555
Co2C_2 N5C 1_555 1_555
N7 Co2C 1_555 1_555
C4 C5 1_555 1_555
C12 C13 1_555 1_555
C17 C18 1_555 1_555
C23 C26 1_555 1_555
C30 C31 1_555 1_555
C39 C40 1_555 1_555
C4B C5B 1_555 1_555
C12B C13B 1_555 1_555
C30B C31B 1_555 1_555
C39B C40B 1_555 1_555
C17C C18C 1_555 1_555
C23C C26C 1_555 1_555
C24C C25C 1_555 1_555

#END
