
#######################################################################
#
#                 Cambridge Crystallographic Data Centre
#                                CCDC 
#
#######################################################################
#
# If this CIF has been generated from an entry in the Cambridge 
# Structural Database, then it will include bibliographic, chemical, 
# crystal, experimental, refinement or atomic coordinate data resulting 
# from the CCDC's data processing and validation procedures.
#
#######################################################################

data_EBOFAD
_symmetry_cell_setting           triclinic
_symmetry_space_group_name_H-M   'P -1'
_symmetry_Int_Tables_number      2
_space_group_name_Hall           '-P 1'
loop_
_symmetry_equiv_pos_site_id
_symmetry_equiv_pos_as_xyz
1 x,y,z
2 -x,-y,-z
_cell_length_a                   7.7313(4)
_cell_length_b                   8.6962(4)
_cell_length_c                   11.1696(4)
_cell_angle_alpha                109.211(3)
_cell_angle_beta                 98.562(3)
_cell_angle_gamma                106.403(2)
_cell_volume                     655.601
loop_
_atom_site_label
_atom_site_type_symbol
_atom_site_fract_x
_atom_site_fract_y
_atom_site_fract_z
Co1 Co 0.0000 0.0000 0.0000
S1 S -0.43312(6) -0.20682(7) 0.23229(4)
N1 N -0.02632(17) 0.26132(16) 0.09127(12)
N2 N 0.76112(17) 0.92283(16) 0.82326(12)
N3 N -0.18837(18) -0.09485(18) 0.09325(13)
C1 C 0.0737(2) 0.37560(19) 0.21345(14)
H1 H 0.1646 0.3478 0.2574
C2 C 0.0517(2) 0.53224(18) 0.27917(14)
C3 C -0.0871(2) 0.5706(2) 0.21331(16)
H2 H -0.1103 0.6719 0.2538
C4 C -0.1906(3) 0.4560(2) 0.08653(17)
H3 H -0.2823 0.4806 0.0404
C5 C -0.1558(2) 0.3052(2) 0.02984(15)
H4 H -0.2257 0.2298 -0.0554
C6 C 0.1679(2) 0.64682(18) 0.41586(14)
C7 C 0.0760(3) 0.7461(2) 0.50622(17)
H5 H 0.1656 0.8206 0.5894
H6 H -0.0261 0.6657 0.5192
H7 H 0.0296 0.8153 0.4678
C8 C 0.3460(2) 0.6584(2) 0.45048(15)
H8 H 0.3896 0.5976 0.3838
C9 C 0.4820(2) 0.7559(2) 0.58136(14)
C10 C 0.4455(2) 0.7436(2) 0.69620(16)
H9 H 0.3261 0.6793 0.6950
C11 C 0.6615(2) 0.8599(2) 0.59305(15)
H10 H 0.6931 0.8757 0.5197
C12 C 0.5862(2) 0.8270(2) 0.81270(16)
H11 H 0.5574 0.8158 0.8881
C13 C 0.7935(2) 0.9401(2) 0.71306(15)
H12 H 0.9120 1.0105 0.7178
C14 C -0.2914(2) -0.1415(2) 0.15032(14)
N1A N 0.02632(17) -0.26132(16) -0.09127(12)
N2A N -0.76112(17) -0.92283(16) -0.82326(12)
C1A C -0.0737(2) -0.37560(19) -0.21345(14)
H1A H -0.1646 -0.3478 -0.2574
C2A C -0.0517(2) -0.53224(18) -0.27917(14)
C3A C 0.0871(2) -0.5706(2) -0.21331(16)
H2A H 0.1103 -0.6719 -0.2538
C4A C 0.1906(3) -0.4560(2) -0.08653(17)
H3A H 0.2823 -0.4806 -0.0404
C5A C 0.1558(2) -0.3052(2) -0.02984(15)
H4A H 0.2257 -0.2298 0.0554
C6A C -0.1679(2) -0.64682(18) -0.41586(14)
C7A C -0.0760(3) -0.7461(2) -0.50622(17)
H5A H -0.1656 -0.8206 -0.5894
H6A H 0.0261 -0.6657 -0.5192
H7A H -0.0296 -0.8153 -0.4678
C8A C -0.3460(2) -0.6584(2) -0.45048(15)
H8A H -0.3896 -0.5976 -0.3838
C9A C -0.4820(2) -0.7559(2) -0.58136(14)
C10A C -0.4455(2) -0.7436(2) -0.69620(16)
H9A H -0.3261 -0.6793 -0.6950
C11A C -0.6615(2) -0.8599(2) -0.59305(15)
H10A H -0.6931 -0.8757 -0.5197
C12A C -0.5862(2) -0.8270(2) -0.81270(16)
H11A H -0.5574 -0.8158 -0.8881
C13A C -0.7935(2) -0.9401(2) -0.71306(15)
H12A H -0.9120 -1.0105 -0.7178
S1A S 0.43312(6) 0.20682(7) -0.23229(4)
N3A N 0.18837(18) 0.09485(18) -0.09325(13)
C14A C 0.2914(2) 0.1415(2) -0.15032(14)
N2_2 N -0.23888(17) -0.07717(16) -0.17674(12)
N2A_2 N 0.23888(17) 0.07717(16) 0.17674(12)
Co1_2 Co 1.0000 1.0000 1.0000
Co1_3 Co -1.0000 -1.0000 -1.0000
loop_
_geom_bond_atom_site_label_1
_geom_bond_atom_site_label_2
_geom_bond_site_symmetry_1
_geom_bond_site_symmetry_2
Co1 N1 1_555 1_555
S1 C14 1_555 1_555
N1 C1 1_555 1_555
N2 C12 1_555 1_555
N3 Co1 1_555 1_555
C1 H1 1_555 1_555
C2 C1 1_555 1_555
C3 C2 1_555 1_555
H2 C3 1_555 1_555
C4 C3 1_555 1_555
H3 C4 1_555 1_555
C5 N1 1_555 1_555
H4 C5 1_555 1_555
C6 C2 1_555 1_555
C7 C6 1_555 1_555
H5 C7 1_555 1_555
H6 C7 1_555 1_555
H7 C7 1_555 1_555
C8 C6 1_555 1_555
H8 C8 1_555 1_555
C9 C8 1_555 1_555
C10 C9 1_555 1_555
H9 C10 1_555 1_555
C11 C9 1_555 1_555
H10 C11 1_555 1_555
C12 C10 1_555 1_555
H11 C12 1_555 1_555
C13 N2 1_555 1_555
H12 C13 1_555 1_555
C14 N3 1_555 1_555
N1A Co1 1_555 1_555
N2A C12A 1_555 1_555
C1A N1A 1_555 1_555
H1A C1A 1_555 1_555
C2A C1A 1_555 1_555
C3A C2A 1_555 1_555
H2A C3A 1_555 1_555
C4A C3A 1_555 1_555
H3A C4A 1_555 1_555
C5A N1A 1_555 1_555
H4A C5A 1_555 1_555
C6A C2A 1_555 1_555
C7A C6A 1_555 1_555
H5A C7A 1_555 1_555
H6A C7A 1_555 1_555
H7A C7A 1_555 1_555
C8A C6A 1_555 1_555
H8A C8A 1_555 1_555
C9A C8A 1_555 1_555
C10A C9A 1_555 1_555
H9A C10A 1_555 1_555
C11A C9A 1_555 1_555
H10A C11A 1_555 1_555
C12A C10A 1_555 1_555
H11A C12A 1_555 1_555
C13A N2A 1_555 1_555
H12A C13A 1_555 1_555
S1A C14A 1_555 1_555
N3A Co1 1_555 1_555
C14A N3A 1_555 1_555
N2_2 Co1 1_555 1_555
N2A_2 Co1 1_555 1_555
Co1_2 N2 1_555 1_555
Co1_3 N2A 1_555 1_555
C4 C5 1_555 1_555
C11 C13 1_555 1_555
C4A C5A 1_555 1_555
C11A C13A 1_555 1_555

#END
