
#######################################################################
#
#                 Cambridge Crystallographic Data Centre
#                                CCDC 
#
#######################################################################
#
# If this CIF has been generated from an entry in the Cambridge 
# Structural Database, then it will include bibliographic, chemical, 
# crystal, experimental, refinement or atomic coordinate data resulting 
# from the CCDC's data processing and validation procedures.
#
#######################################################################

data_EBOJIP
_symmetry_cell_setting           triclinic
_symmetry_space_group_name_H-M   'P -1'
_symmetry_Int_Tables_number      2
_space_group_name_Hall           '-P 1'
loop_
_symmetry_equiv_pos_site_id
_symmetry_equiv_pos_as_xyz
1 x,y,z
2 -x,-y,-z
_cell_length_a                   10.5770(2)
_cell_length_b                   10.6164(2)
_cell_length_c                   14.9403(3)
_cell_angle_alpha                91.6240(10)
_cell_angle_beta                 91.1200(10)
_cell_angle_gamma                113.8920(10)
_cell_volume                     1532.39
loop_
_atom_site_label
_atom_site_type_symbol
_atom_site_fract_x
_atom_site_fract_y
_atom_site_fract_z
Eu1 Eu 0.89985(5) 0.13931(5) 0.24479(3)
Eu2 Eu 0.93652(5) 0.45802(5) 0.36501(3)
Eu3 Eu 0.87083(5) 0.40895(5) 0.10727(3)
Eu4 Eu 0.57148(5) 0.22597(5) 0.26432(3)
O1 O 0.7767(7) 0.4375(6) 0.2458(4)
O2 O 0.7724(7) 0.2259(6) 0.3409(4)
O3 O 0.7322(7) 0.1906(6) 0.1639(4)
O4 O 1.0011(7) 0.3816(7) 0.2331(4)
O5 O 1.0140(8) -0.3576(7) 0.1513(4)
O6 O 1.0209(7) -0.3609(7) 0.4922(4)
O7 O 0.9256(8) -0.4236(7) -0.0246(4)
O8 O 0.8013(8) -0.0554(7) 0.1503(4)
O9 O 1.0229(8) -0.3271(7) 0.2993(4)
O10 O 0.7476(8) 0.4697(8) 0.4447(4)
O11 O 1.0167(8) -0.2217(7) -0.0854(4)
O12 O 1.1239(8) 0.1525(7) 0.2356(4)
O13 O 0.8394(8) -0.0382(7) 0.3473(4)
O14 O 0.6643(8) 0.4167(8) 0.0653(4)
O15 O 0.9687(8) -0.2578(7) 0.6078(4)
O16 O 0.4984(8) 0.3566(8) 0.1627(4)
O17 O 1.3294(8) 0.1780(8) 0.2888(5)
O18 O 0.7387(10) 0.0112(9) 0.4637(5)
O19 O 0.5623(9) 0.4181(9) 0.3571(5)
O20 O 0.6682(12) -0.0542(12) 0.0366(5)
O21 O 1.1937(7) 0.5535(7) 0.3819(4)
O22 O 0.7799(8) 0.2629(7) -0.0324(4)
O23 O 0.5193(10) -0.0231(9) 0.2873(5)
O24 O 0.4349(9) 0.0650(8) 0.1331(5)
O25 O 0.5037(10) 0.1560(9) 0.4251(5)
C1 C 0.5498(11) 0.4077(10) 0.0930(5)
C2 C 1.2090(10) 0.1085(10) 0.2657(5)
C3 C 0.6290(12) 0.4641(11) 0.4287(6)
C4 C 0.9743(11) -0.2766(10) 0.5249(6)
C5 C 0.5679(11) 0.5185(12) 0.5000(7)
H1 H 0.6244 0.5786 0.5449
C6 C 0.8383(12) -0.1357(11) 0.0088(6)
H2 H 0.8782 -0.0875 -0.0416
C7 C 0.8051(13) -0.0485(10) 0.4283(7)
C8 C 0.9256(12) -0.1985(11) 0.4618(6)
H3 H 0.9495 -0.1964 0.4022
C9 C 1.0379(11) -0.2815(10) 0.2224(6)
C10 C 1.1549(12) -0.0446(11) 0.2714(7)
H4 H 1.179 -0.0771 0.3233
C11 C 0.7612(13) -0.0794(11) 0.0678(7)
C12 C 0.8530(11) -0.2487(9) 0.0238(6)
H5 H 0.8105 -0.2986 0.0729
C13 C 0.9338(11) -0.3018(10) -0.0334(6)
C14 C 0.8513(11) -0.1335(11) 0.4867(6)
H6 H 0.8246 -0.1406 0.546
C15 C 0.4754(11) 0.4721(10) 0.0388(6)
H7 H 0.3935 0.4738 0.0591
C16 C 1.0808(14) -0.1342(11) 0.2144(6)
H8 H 1.0512 -0.1042 0.1635
H9 H 0.7369 0.5093 0.2624
H10 H 0.7558 0.1803 0.3788
H11 H 1.066 0.3838 0.1979
H12 H 0.7137 0.1365 0.1045
C5A C 0.4321(11) 0.4815(12) 0.5000(7)
C3A C 0.3710(12) 0.5359(11) 0.5713(6)
O10A O 0.2524(8) 0.5303(8) 0.5553(4)
O19A O 0.4377(9) 0.5819(9) 0.6429(5)
H1A H 0.3756 0.4214 0.4551
C15A C 0.5246(11) 0.5279(10) -0.0388(6)
C1A C 0.4502(11) 0.5923(10) -0.0930(5)
O14A O 0.3357(8) 0.5833(8) -0.0653(4)
O16A O 0.5016(8) 0.6434(8) -0.1627(4)
H7A H 0.6065 0.5262 -0.0591
O7A O 1.0744(8) 0.4236(7) 0.0246(4)
O8A O 1.1987(8) 0.0554(7) -0.1503(4)
O11A O 0.9833(8) 0.2217(7) 0.0854(4)
O20A O 1.3318(12) 0.0542(12) -0.0366(5)
C6A C 1.1617(12) 0.1357(11) -0.0088(6)
H2A H 1.1218 0.0875 0.0416
C11A C 1.2388(13) 0.0794(11) -0.0678(7)
C12A C 1.1470(11) 0.2487(9) -0.0238(6)
H5A H 1.1895 0.2986 -0.0729
C13A C 1.0662(11) 0.3018(10) 0.0334(6)
O6A O 0.9791(7) 0.3609(7) 0.5078(4)
O13A O 1.1606(8) 0.0382(7) 0.6527(4)
O15A O 1.0313(8) 0.2578(7) 0.3922(4)
O18A O 1.2613(10) -0.0112(9) 0.5363(5)
C4A C 1.0257(11) 0.2766(10) 0.4751(6)
C7A C 1.1949(13) 0.0485(10) 0.5717(7)
C8A C 1.0744(12) 0.1985(11) 0.5382(6)
H3A H 1.0505 0.1964 0.5978
C14A C 1.1487(11) 0.1335(11) 0.5133(6)
H6A H 1.1754 0.1406 0.454
Eu1A Eu 1.10015(5) -0.13931(5) -0.24479(3)
Eu2A Eu 1.06348(5) -0.45802(5) 0.63499(3)
Eu3_2 Eu 0.87083(5) -0.59105(5) 0.10727(3)
Eu4_2 Eu 1.57148(5) 0.22597(5) 0.26432(3)
O5_2 O 1.0140(8) 0.6424(7) 0.1513(4)
O9_2 O 1.0229(8) 0.6729(7) 0.2993(4)
O12_2 O 1.1239(8) 1.1525(7) 0.2356(4)
O17_2 O 1.3294(8) 1.1780(8) 0.2888(5)
C2_2 C 1.2090(10) 1.1085(10) 0.2657(5)
C9_2 C 1.0379(11) 0.7185(10) 0.2224(6)
C10_2 C 1.1549(12) 0.9554(11) 0.2714(7)
H4_2 H 1.179 0.9229 0.3233
C16_2 C 1.0808(14) 0.8658(11) 0.2144(6)
H8_2 H 1.0512 0.8958 0.1635
O2A O 1.2276(7) -0.2259(6) -0.3409(4)
H10A H 1.2442 -0.1803 -0.3788
O3A O 1.2678(7) -0.1906(6) -0.1639(4)
H12A H 1.2863 -0.1365 -0.1045
O4A O 0.9989(7) -0.3816(7) -0.2331(4)
H11A H 0.934 -0.3838 -0.1979
O1A O 1.2233(7) -0.4375(6) 0.7542(4)
H9A H 1.2631 -0.5093 0.7376
O21A O 0.8063(7) -0.5535(7) 0.6181(4)
O22_2 O 0.7799(8) -0.7371(7) -0.0324(4)
O23_2 O 1.5193(10) -0.0231(9) 0.2873(5)
O24_2 O 1.4349(9) 0.0650(8) 0.1331(5)
O25_2 O 1.5037(10) 0.1560(9) 0.4251(5)
O6_2 O 1.0209(7) 0.6391(7) 0.4922(4)
O7_2 O 0.9256(8) 0.5764(7) -0.0246(4)
O17_3 O 0.3294(8) 0.1780(8) 0.2888(5)
Eu2_2 Eu 0.93652(5) -0.54198(5) 0.36501(3)
Eu3A Eu 1.12917(5) -0.40895(5) -0.10727(3)
Eu1A_2 Eu 1.10015(5) -0.13931(5) 0.75521(3)
Eu2A_2 Eu 0.06348(5) 0.54198(5) 0.63499(3)
Eu4A Eu 0.42852(5) 0.77403(5) 0.73568(3)
Eu3A_2 Eu 0.12917(5) 0.59105(5) -0.10727(3)
Eu4A_2 Eu 0.42852(5) 0.77403(5) -0.26432(3)
Eu3A_3 Eu 1.12917(5) 0.59105(5) -0.10727(3)
Eu2A_3 Eu 1.06348(5) 0.54198(5) 0.63499(3)
O12A O 0.8761(8) -0.1525(7) -0.2356(4)
O13A_2 O 1.1606(8) 0.0382(7) -0.3473(4)
O15_2 O 0.9687(8) -0.2578(7) -0.3922(4)
O2A_2 O 1.2276(7) -0.2259(6) 0.6591(4)
O4A_2 O 0.9989(7) -0.3816(7) 0.7669(4)
O6A_2 O 0.9791(7) -0.6391(7) 0.5078(4)
O9A O 0.9771(8) -0.6729(7) 0.7007(4)
O10A_2 O 1.2524(8) -0.4697(8) 0.5553(4)
O1_2 O 0.7767(7) -0.5625(6) 0.2458(4)
O3_2 O 0.7322(7) -0.8094(6) 0.1639(4)
O4_2 O 1.0011(7) -0.6184(7) 0.2331(4)
O7A_2 O 1.0744(8) -0.5764(7) 0.0246(4)
O11A_2 O 0.9833(8) -0.7783(7) 0.0854(4)
O14_2 O 0.6643(8) -0.5833(8) 0.0653(4)
O1_3 O 1.7767(7) 0.4375(6) 0.2458(4)
O2_2 O 1.7724(7) 0.2259(6) 0.3409(4)
O3_3 O 1.7322(7) 0.1906(6) 0.1639(4)
O16_2 O 1.4984(8) 0.3566(8) 0.1627(4)
O19_2 O 1.5623(9) 0.4181(9) 0.3571(5)
Eu1_2 Eu 0.89985(5) 1.13931(5) 0.24479(3)
Eu4_3 Eu 1.57148(5) 1.22597(5) 0.26432(3)
Eu2A_4 Eu 1.06348(5) -0.45802(5) -0.36501(3)
Eu4A_3 Eu 1.42852(5) -0.22597(5) -0.26432(3)
Eu3A_4 Eu 1.12917(5) -0.40895(5) 0.89273(3)
Eu4A_4 Eu 1.42852(5) -0.22597(5) 0.73568(3)
H10A_2 H 1.2442 -0.1803 0.6212
H11A_2 H 0.934 -0.3838 0.8021
H9_2 H 0.7369 -0.4907 0.2624
H12_2 H 0.7137 -0.8635 0.1045
H11_2 H 1.066 -0.6162 0.1979
H9_3 H 1.7369 0.5093 0.2624
H10_2 H 1.7558 0.1803 0.3788
H12_3 H 1.7137 0.1365 0.1045
O26 O 1.3054(11) 0.4568(10) 0.2521(6)
O27 O 0.6801(15) -0.3228(10) 0.2428(7)
O28 O 0.4453(13) -0.2342(13) 0.1512(7)
O29 O 1.3414(10) 0.8312(8) 0.4231(5)
loop_
_geom_bond_atom_site_label_1
_geom_bond_atom_site_label_2
_geom_bond_site_symmetry_1
_geom_bond_site_symmetry_2
Eu1 O2 1_555 1_555
Eu2 O1 1_555 1_555
Eu3 O1 1_555 1_555
Eu4 O1 1_555 1_555
O1 H9 1_555 1_555
O2 Eu2 1_555 1_555
O3 Eu1 1_555 1_555
O4 Eu1 1_555 1_555
O5 C9 1_555 1_555
O6 C4 1_555 1_555
O7 C13 1_555 1_555
O8 Eu1 1_555 1_555
O9 C9 1_555 1_555
O10 Eu2 1_555 1_555
O11 C13 1_555 1_555
O12 Eu1 1_555 1_555
O13 Eu1 1_555 1_555
O14 Eu3 1_555 1_555
O15 C4 1_555 1_555
O16 Eu4 1_555 1_555
O17 C2 1_555 1_555
O18 C7 1_555 1_555
O19 Eu4 1_555 1_555
O20 C11 1_555 1_555
O21 Eu2 1_555 1_555
O22 Eu3 1_555 1_555
O23 Eu4 1_555 1_555
O24 Eu4 1_555 1_555
O25 Eu4 1_555 1_555
C1 O14 1_555 1_555
C2 O12 1_555 1_555
C3 O10 1_555 1_555
C4 C8 1_555 1_555
C5 C3 1_555 1_555
H1 C5 1_555 1_555
C6 H2 1_555 1_555
C7 O13 1_555 1_555
C8 H3 1_555 1_555
C9 C16 1_555 1_555
C10 C2 1_555 1_555
H4 C10 1_555 1_555
C11 O8 1_555 1_555
C12 C6 1_555 1_555
H5 C12 1_555 1_555
C13 C12 1_555 1_555
C14 C7 1_555 1_555
H6 C14 1_555 1_555
C15 C1 1_555 1_555
H7 C15 1_555 1_555
C16 C10 1_555 1_555
H8 C16 1_555 1_555
H10 O2 1_555 1_555
H11 O4 1_555 1_555
H12 O3 1_555 1_555
C5A C5 1_555 1_555
C3A C5A 1_555 1_555
O10A C3A 1_555 1_555
O19A C3A 1_555 1_555
H1A C5A 1_555 1_555
C15A C15 1_555 1_555
C1A C15A 1_555 1_555
O14A C1A 1_555 1_555
O16A C1A 1_555 1_555
H7A C15A 1_555 1_555
O7A Eu3 1_555 1_555
O8A C11A 1_555 1_555
O11A Eu1 1_555 1_555
O20A C11A 1_555 1_555
C6A H2A 1_555 1_555
C11A C6A 1_555 1_555
C12A C6A 1_555 1_555
H5A C12A 1_555 1_555
C13A O7A 1_555 1_555
O6A Eu2 1_555 1_555
O13A C7A 1_555 1_555
O15A Eu1 1_555 1_555
O18A C7A 1_555 1_555
C4A O6A 1_555 1_555
C7A C14A 1_555 1_555
C8A C4A 1_555 1_555
H3A C8A 1_555 1_555
C14A C8A 1_555 1_555
H6A C14A 1_555 1_555
Eu1A O11 1_555 1_555
Eu2A O6 1_555 1_555
Eu3_2 O5 1_555 1_555
Eu4_2 O17 1_555 1_555
O5_2 Eu3 1_555 1_555
O9_2 Eu2 1_555 1_555
O12_2 C2_2 1_555 1_555
O17_2 C2_2 1_555 1_555
C2_2 C10_2 1_555 1_555
C9_2 O5_2 1_555 1_555
C10_2 H4_2 1_555 1_555
C16_2 C9_2 1_555 1_555
H8_2 C16_2 1_555 1_555
O2A Eu1A 1_555 1_555
H10A O2A 1_555 1_555
O3A Eu1A 1_555 1_555
H12A O3A 1_555 1_555
O4A Eu1A 1_555 1_555
H11A O4A 1_555 1_555
O1A Eu2A 1_555 1_555
H9A O1A 1_555 1_555
O21A Eu2A 1_555 1_555
O22_2 Eu3_2 1_555 1_555
O23_2 Eu4_2 1_555 1_555
O24_2 Eu4_2 1_555 1_555
O25_2 Eu4_2 1_555 1_555
O6_2 Eu2 1_555 1_555
O7_2 Eu3 1_555 1_555
O17_3 Eu4 1_555 1_555
Eu2_2 O6 1_555 1_555
Eu3A O7 1_555 1_555
Eu1A_2 O15 1_555 1_555
Eu2A_2 O10A 1_555 1_555
Eu4A O19A 1_555 1_555
Eu3A_2 O14A 1_555 1_555
Eu4A_2 O16A 1_555 1_555
Eu3A_3 O7A 1_555 1_555
Eu2A_3 O6A 1_555 1_555
O12A Eu1A 1_555 1_555
O13A_2 Eu1A 1_555 1_555
O15_2 Eu1A 1_555 1_555
O2A_2 Eu2A 1_555 1_555
O4A_2 Eu2A 1_555 1_555
O6A_2 Eu2A 1_555 1_555
O9A Eu2A 1_555 1_555
O10A_2 Eu2A 1_555 1_555
O1_2 Eu3_2 1_555 1_555
O3_2 Eu3_2 1_555 1_555
O4_2 Eu3_2 1_555 1_555
O7A_2 Eu3_2 1_555 1_555
O11A_2 Eu3_2 1_555 1_555
O14_2 Eu3_2 1_555 1_555
O1_3 Eu4_2 1_555 1_555
O2_2 Eu4_2 1_555 1_555
O3_3 Eu4_2 1_555 1_555
O16_2 Eu4_2 1_555 1_555
O19_2 Eu4_2 1_555 1_555
Eu1_2 O12_2 1_555 1_555
Eu4_3 O17_2 1_555 1_555
Eu2A_4 O2A 1_555 1_555
Eu4A_3 O2A 1_555 1_555
Eu3A_4 O1A 1_555 1_555
Eu4A_4 O1A 1_555 1_555
H10A_2 O2A_2 1_555 1_555
H11A_2 O4A_2 1_555 1_555
H9_2 O1_2 1_555 1_555
H12_2 O3_2 1_555 1_555
H11_2 O4_2 1_555 1_555
H9_3 O1_3 1_555 1_555
H10_2 O2_2 1_555 1_555
H12_3 O3_3 1_555 1_555
Eu2 O4 1_555 1_555
Eu2 O15A 1_555 1_555
Eu3 O3 1_555 1_555
Eu3 O4 1_555 1_555
Eu3 O11A 1_555 1_555
Eu4 O2 1_555 1_555
Eu4 O3 1_555 1_555
O7 Eu3_2 1_555 1_555
O9 Eu2_2 1_555 1_555
O11 Eu3A 1_555 1_555
O15 Eu2A 1_555 1_555
O16 C1 1_555 1_555
O19 C3 1_555 1_555
C6 C11 1_555 1_555
C8 C14 1_555 1_555
O8A Eu1A 1_555 1_555
O11A C13A 1_555 1_555
C12A C13A 1_555 1_555
O13A Eu1A_2 1_555 1_555
O15A C4A 1_555 1_555
O9_2 C9_2 1_555 1_555
C10_2 C16_2 1_555 1_555
O3A Eu3A 1_555 1_555
O3A Eu4A_3 1_555 1_555
O4A Eu2A_4 1_555 1_555
O4A Eu3A 1_555 1_555
O6_2 Eu2A_3 1_555 1_555
O7_2 Eu3A_3 1_555 1_555
Eu2_2 O1_2 1_555 1_555
Eu2_2 O4_2 1_555 1_555
Eu2_2 O6A_2 1_555 1_555
Eu3A O7A_2 1_555 1_555
Eu1A_2 O2A_2 1_555 1_555
Eu1A_2 O4A_2 1_555 1_555
O15_2 Eu2A_4 1_555 1_555
O2A_2 Eu4A_4 1_555 1_555
O4A_2 Eu3A_4 1_555 1_555

#END
