
#######################################################################
#
#                 Cambridge Crystallographic Data Centre
#                                CCDC 
#
#######################################################################
#
# If this CIF has been generated from an entry in the Cambridge 
# Structural Database, then it will include bibliographic, chemical, 
# crystal, experimental, refinement or atomic coordinate data resulting 
# from the CCDC's data processing and validation procedures.
#
#######################################################################

data_EBOJEM
_symmetry_cell_setting           monoclinic
_symmetry_space_group_name_H-M   'P 21/n'
_symmetry_Int_Tables_number      14
_space_group_name_Hall           '-P 2yn'
loop_
_symmetry_equiv_pos_site_id
_symmetry_equiv_pos_as_xyz
1 x,y,z
2 1/2-x,1/2+y,1/2-z
3 -x,-y,-z
4 1/2+x,1/2-y,1/2+z
_cell_length_a                   9.1733(10)
_cell_length_b                   10.6165(11)
_cell_length_c                   24.064(3)
_cell_angle_alpha                90
_cell_angle_beta                 90.7180(10)
_cell_angle_gamma                90
_cell_volume                     2343.37
loop_
_atom_site_label
_atom_site_type_symbol
_atom_site_fract_x
_atom_site_fract_y
_atom_site_fract_z
Cd1 Cd 0.54978(2) 0.29256(2) 0.457695(10)
O1 O 0.6761(3) 0.4508(3) 0.49758(12)
O2 O 0.6754(3) 0.5073(3) 0.40919(12)
O3 O 0.9874(3) 0.4966(2) 0.43576(14)
O4 O 1.1008(4) 0.6574(3) 0.40362(15)
O5 O 1.0740(2) 0.8658(2) 0.46698(11)
O6 O 0.6247(3) 0.9155(2) 0.53967(11)
O7 O 0.6292(3) 0.1842(3) 0.54521(12)
N1 N 1.0041(3) 0.6103(3) 0.43152(13)
N2 N 0.6741(3) 0.7249(2) 0.50245(12)
N3 N 0.8505(3) 0.8857(2) 0.50359(12)
H1 H 0.8745 0.9603 0.5142
N4 N 0.4222(3) 0.3200(3) 0.37354(13)
N5 N 0.7761(3) 0.6739(3) 0.08396(13)
C1 C 0.7037(3) 0.5247(3) 0.45854(15)
C2 C 0.7690(3) 0.6520(3) 0.47521(13)
C3 C 0.9067(3) 0.6926(3) 0.46090(14)
C4 C 0.9539(3) 0.8179(3) 0.47529(14)
C5 C 0.7128(3) 0.8455(3) 0.51635(13)
C6 C 0.3237(5) 0.4108(4) 0.36786(17)
H2 H 0.3001 0.4582 0.3990
C7 C 0.4510(6) 0.2519(4) 0.32813(18)
H3 H 0.5183 0.1867 0.3312
C8 C 0.3863(6) 0.2736(4) 0.27713(18)
H4 H 0.4096 0.2231 0.2470
C9 C 0.2543(5) 0.4383(5) 0.31795(18)
H5 H 0.1858 0.5028 0.3162
C10 C 0.2865(4) 0.3704(4) 0.27064(16)
C11 C 0.2228(5) 0.4030(5) 0.21452(18)
H6 H 0.1320 0.4484 0.2193
H7 H 0.2013 0.3261 0.1943
C12 C 0.3274(6) 0.4837(8) 0.1808(2)
H8 H 0.2914 0.4815 0.1427
H9 H 0.3147 0.5696 0.1936
C13 C 0.4652(7) 0.4653(11) 0.1785(4)
H10 H 0.4770 0.3784 0.1669
H11 H 0.5007 0.4696 0.2166
C14 C 0.5719(6) 0.5402(6) 0.1448(2)
C15 C 0.7003(6) 0.4880(5) 0.1304(2)
H12 H 0.7223 0.4060 0.1412
C16 C 0.5471(5) 0.6652(6) 0.1282(2)
H13 H 0.4607 0.7053 0.1375
C17 C 0.6505(5) 0.7285(4) 0.0981(2)
H14 H 0.6326 0.8113 0.0873
C18 C 0.7966(5) 0.5544(4) 0.10029(19)
H15 H 0.8827 0.5147 0.0902
H16 H 0.712(6) 0.199(5) 0.549(2)
H20 H 0.620(5) 0.108(5) 0.5414(19)
Cd1B Cd 0.45022(2) 0.70744(2) 0.542305(10)
Cd1A Cd 0.95022(2) 0.79256(2) 0.042305(10)
N2B N 0.3259(3) 0.2751(2) 0.49755(12)
N5A N 0.7239(3) 0.1739(3) 0.41604(13)
O8 O 0.5413(7) 0.7292(5) 0.3620(2)
H17 H 0.581(8) 0.654(4) 0.370(3)
H21 H 0.480(7) 0.758(7) 0.388(2)
O9 O 0.6845(12) 0.7687(9) 0.2629(3)
H18 H 0.605(4) 0.726(5) 0.253(2)
H22 H 0.70(2) 0.829(12) 0.237(5)
O10 O 0.6833(18) 1.0110(15) 0.2106(4)
H19 H 0.775(5) 0.975(7) 0.212(3)
H23 H 0.67(3) 1.095(4) 0.211(11)
loop_
_geom_bond_atom_site_label_1
_geom_bond_atom_site_label_2
_geom_bond_site_symmetry_1
_geom_bond_site_symmetry_2
Cd1 O1 1_555 1_555
O1 C1 1_555 1_555
O2 C1 1_555 1_555
O3 N1 1_555 1_555
O4 N1 1_555 1_555
O5 C4 1_555 1_555
O6 C5 1_555 1_555
O7 Cd1 1_555 1_555
O8 H17 1_555 1_555
O9 H18 1_555 1_555
O10 H19 1_555 1_555
N1 C3 1_555 1_555
N2 C2 1_555 1_555
N3 H1 1_555 1_555
N4 Cd1 1_555 1_555
N5 C17 1_555 1_555
C1 C2 1_555 1_555
C2 C3 1_555 1_555
C3 C4 1_555 1_555
C4 N3 1_555 1_555
C5 N2 1_555 1_555
C6 N4 1_555 1_555
H2 C6 1_555 1_555
C7 N4 1_555 1_555
H3 C7 1_555 1_555
C8 C7 1_555 1_555
H4 C8 1_555 1_555
C9 C6 1_555 1_555
H5 C9 1_555 1_555
C10 C8 1_555 1_555
C11 C10 1_555 1_555
H6 C11 1_555 1_555
H7 C11 1_555 1_555
C12 C11 1_555 1_555
H8 C12 1_555 1_555
H9 C12 1_555 1_555
C13 C12 1_555 1_555
H10 C13 1_555 1_555
H11 C13 1_555 1_555
C14 C13 1_555 1_555
C15 C14 1_555 1_555
H12 C15 1_555 1_555
C16 C14 1_555 1_555
H13 C16 1_555 1_555
C17 C16 1_555 1_555
H14 C17 1_555 1_555
C18 N5 1_555 1_555
H15 C18 1_555 1_555
H16 O7 1_555 1_555
H20 O7 1_555 1_555
H21 O8 1_555 1_555
H22 O9 1_555 1_555
H23 O10 1_555 1_555
Cd1B N2 1_555 1_555
Cd1A N5 1_555 1_555
N2B Cd1 1_555 1_555
N5A Cd1 1_555 1_555
N3 C5 1_555 1_555
C9 C10 1_555 1_555
C15 C18 1_555 1_555

#END
