
#######################################################################
#
#                 Cambridge Crystallographic Data Centre
#                                CCDC 
#
#######################################################################
#
# If this CIF has been generated from an entry in the Cambridge 
# Structural Database, then it will include bibliographic, chemical, 
# crystal, experimental, refinement or atomic coordinate data resulting 
# from the CCDC's data processing and validation procedures.
#
#######################################################################

data_EBOKAI
_symmetry_cell_setting           monoclinic
_symmetry_space_group_name_H-M   'P 2/c'
_symmetry_Int_Tables_number      13
_space_group_name_Hall           '-P 2yc'
loop_
_symmetry_equiv_pos_site_id
_symmetry_equiv_pos_as_xyz
1 x,y,z
2 x,-y,1/2+z
3 -x,-y,-z
4 -x,y,1/2-z
_cell_length_a                   9.766(3)
_cell_length_b                   11.382(4)
_cell_length_c                   9.738(3)
_cell_angle_alpha                90
_cell_angle_beta                 109.555(5)
_cell_angle_gamma                90
_cell_volume                     1020.01
loop_
_atom_site_label
_atom_site_type_symbol
_atom_site_fract_x
_atom_site_fract_y
_atom_site_fract_z
Ni1 Ni 0.5000 0.91799(4) 0.2500
N1 N 0.5000 0.7277(2) 0.2500
N2 N 0.5000 0.1038(2) 0.2500
O1 O 0.68202(16) 0.91950(15) 0.43521(16)
O2 O 0.83537(19) 0.82149(17) 0.3506(2)
O3 O 0.62788(16) 0.91479(14) 0.11820(17)
H1 H 0.7060 0.8947 0.1731
H2 H 0.6450 0.9679 0.0757
C1 C 0.5700(3) 0.6654(2) 0.1778(3)
H3 H 0.6174 0.7060 0.1240
C2 C 0.5758(3) 0.5444(2) 0.1785(3)
H4 H 0.6309 0.5058 0.1307
C3 C 0.5000 0.4802(3) 0.2500
C4 C 0.5000 0.3494(3) 0.2500
C5 C 0.3724(3) 0.2863(2) 0.2239(3)
H5 H 0.2845 0.3253 0.2068
C6 C 0.3770(3) 0.1655(2) 0.2237(3)
H6 H 0.2902 0.1245 0.2043
C7 C 0.8008(3) 0.8653(2) 0.4501(3)
C8 C 0.9055(2) 0.8595(2) 0.6049(3)
C9 C 0.9518(2) 0.9627(2) 0.6783(3)
H7 H 0.9185 1.0338 0.6321
C10 C 0.9538(2) 0.7495(2) 0.6755(2)
C11 C 0.9115(3) 0.6396(2) 0.6045(3)
H8 H 0.8521 0.6382 0.5073
C12 C 0.9562(3) 0.5366(2) 0.6760(3)
H9 H 0.9288 0.4657 0.6269
C2C C 0.4242(3) 0.5444(2) 0.3215(3)
C1C C 0.4300(3) 0.6654(2) 0.3222(3)
H3C H 0.3826 0.7060 0.3760
H4C H 0.3691 0.5058 0.3693
C6C C 0.6230(3) 0.1655(2) 0.2763(3)
C5C C 0.6276(3) 0.2863(2) 0.2761(3)
H5C H 0.7155 0.3253 0.2932
H6C H 0.7098 0.1245 0.2957
C9C C 1.0482(2) 0.9627(2) 0.8217(3)
C8C C 1.0945(2) 0.8595(2) 0.8951(3)
C7C C 1.1992(3) 0.8653(2) 1.0499(3)
O1C O 1.31798(16) 0.91950(15) 1.06479(16)
O2C O 1.16463(19) 0.82149(17) 1.1494(2)
C10C C 1.0462(2) 0.7495(2) 0.8245(2)
C12C C 1.0438(3) 0.5366(2) 0.8240(3)
C11C C 1.0885(3) 0.6396(2) 0.8955(3)
H8C H 1.1479 0.6382 0.9927
H9C H 1.0712 0.4657 0.8731
H7C H 1.0815 1.0338 0.8679
O3C O 0.37212(16) 0.91479(14) 0.38180(17)
H1C H 0.2940 0.8947 0.3269
H2C H 0.3550 0.9679 0.4243
N2_2 N 0.5000 1.1038(2) 0.2500
O1C_2 O 0.31798(16) 0.91950(15) 0.06479(16)
Ni1_2 Ni 0.5000 -0.08201(4) 0.2500
Ni1_3 Ni 1.5000 0.91799(4) 1.2500
O4 O 0.1109(12) 0.7372(10) 0.3905(13)
H10 H 0.0267 0.7599 0.3869
H11 H 0.1301 0.7644 0.3175
loop_
_geom_bond_atom_site_label_1
_geom_bond_atom_site_label_2
_geom_bond_site_symmetry_1
_geom_bond_site_symmetry_2
Ni1 N1 1_555 1_555
N1 C1 1_555 1_555
N2 C6 1_555 1_555
O1 Ni1 1_555 1_555
O2 C7 1_555 1_555
O3 Ni1 1_555 1_555
H1 O3 1_555 1_555
H2 O3 1_555 1_555
C1 H3 1_555 1_555
C2 C1 1_555 1_555
H4 C2 1_555 1_555
C3 C2 1_555 1_555
C4 C3 1_555 1_555
C5 C4 1_555 1_555
H5 C5 1_555 1_555
C6 C5 1_555 1_555
H6 C6 1_555 1_555
C7 O1 1_555 1_555
C8 C7 1_555 1_555
C9 C8 1_555 1_555
H7 C9 1_555 1_555
C10 C8 1_555 1_555
C11 C10 1_555 1_555
H8 C11 1_555 1_555
C12 C11 1_555 1_555
H9 C12 1_555 1_555
O4 H10 1_555 1_555
H11 O4 1_555 1_555
C2C C3 1_555 1_555
C1C N1 1_555 1_555
H3C C1C 1_555 1_555
H4C C2C 1_555 1_555
C6C N2 1_555 1_555
C5C C4 1_555 1_555
H5C C5C 1_555 1_555
H6C C6C 1_555 1_555
C9C C9 1_555 1_555
C8C C9C 1_555 1_555
C7C C8C 1_555 1_555
O1C C7C 1_555 1_555
O2C C7C 1_555 1_555
C10C C10 1_555 1_555
C12C C12 1_555 1_555
C11C C10C 1_555 1_555
H8C C11C 1_555 1_555
H9C C12C 1_555 1_555
H7C C9C 1_555 1_555
O3C Ni1 1_555 1_555
H1C O3C 1_555 1_555
H2C O3C 1_555 1_555
N2_2 Ni1 1_555 1_555
O1C_2 Ni1 1_555 1_555
Ni1_2 N2 1_555 1_555
Ni1_3 O1C 1_555 1_555
C2C C1C 1_555 1_555
C6C C5C 1_555 1_555
C8C C10C 1_555 1_555
C12C C11C 1_555 1_555

#END
