
#######################################################################
#
#                 Cambridge Crystallographic Data Centre
#                                CCDC 
#
#######################################################################
#
# If this CIF has been generated from an entry in the Cambridge 
# Structural Database, then it will include bibliographic, chemical, 
# crystal, experimental, refinement or atomic coordinate data resulting 
# from the CCDC's data processing and validation procedures.
#
#######################################################################

data_EBOKEM
_symmetry_cell_setting           monoclinic
_symmetry_space_group_name_H-M   'P 2/c'
_symmetry_Int_Tables_number      13
_space_group_name_Hall           '-P 2yc'
loop_
_symmetry_equiv_pos_site_id
_symmetry_equiv_pos_as_xyz
1 x,y,z
2 -x,y,1/2-z
3 -x,-y,-z
4 x,-y,1/2+z
_cell_length_a                   9.849(3)
_cell_length_b                   11.484(3)
_cell_length_c                   9.799(3)
_cell_angle_alpha                90
_cell_angle_beta                 109.870(4)
_cell_angle_gamma                90
_cell_volume                     1042.34
loop_
_atom_site_label
_atom_site_type_symbol
_atom_site_fract_x
_atom_site_fract_y
_atom_site_fract_z
Co1 Co 1.0000 1.0794(1) 0.7500
N1 N 1.0000 0.8910(3) 0.7500
N2 N 1.0000 0.2732(3) 0.7500
O1 O 0.8165(2) 1.0776(2) 0.5643(2)
O2 O 0.6669(2) 1.1777(2) 0.6467(2)
O3 O 1.1281(2) 1.0832(2) 0.6180(2)
C1 C 0.6998(3) 1.1327(2) 0.5475(3)
C2 C 0.5954(3) 1.1387(2) 0.3934(3)
C3 C 0.5486(3) 1.0364(2) 0.3215(3)
C4 C 0.5469(3) 1.2471(2) 0.3239(3)
C5 C 0.5900(3) 1.3555(3) 0.3946(3)
C6 C 0.5450(3) 1.4580(3) 0.3229(3)
C7 C 0.8785(3) 0.8299(3) 0.7237(3)
C8 C 0.8737(3) 0.7102(3) 0.7231(3)
C9 C 1.0000 0.6475(4) 0.7500
C10 C 1.0000 0.5182(4) 0.7500
C11 C 0.9248(3) 0.4550(2) 0.8204(3)
C12 C 0.9304(3) 0.3349(2) 0.8213(3)
H1 H 1.2086 1.1080 0.6751
H2 H 1.1445 1.0233 0.5750
H3 H 0.5815 0.9660 0.3678
H4 H 0.6498 1.3568 0.4913
H5 H 0.5743 1.5283 0.3710
H6 H 0.7923 0.8705 0.7046
H7 H 0.7862 0.6717 0.7049
H8 H 0.8701 0.4934 0.8675
H9 H 0.8831 0.2947 0.8743
C8A C 1.1263(3) 0.7102(3) 0.7769(3)
C7A C 1.1215(3) 0.8299(3) 0.7763(3)
H6A H 1.2077 0.8705 0.7954
H7A H 1.2138 0.6717 0.7951
C12A C 1.0696(3) 0.3349(2) 0.6787(3)
C11A C 1.0752(3) 0.4550(2) 0.6796(3)
H8A H 1.1299 0.4934 0.6325
H9A H 1.1169 0.2947 0.6257
C3A C 0.4514(3) 1.0364(2) 0.1785(3)
C2A C 0.4046(3) 1.1387(2) 0.1066(3)
C1A C 0.3002(3) 1.1327(2) -0.0475(3)
O1A O 0.1835(2) 1.0776(2) -0.0643(2)
O2A O 0.3331(2) 1.1777(2) -0.1467(2)
C4A C 0.4531(3) 1.2471(2) 0.1761(3)
C6A C 0.4550(3) 1.4580(3) 0.1771(3)
C5A C 0.4100(3) 1.3555(3) 0.1054(3)
H4A H 0.3502 1.3568 0.0087
H5A H 0.4257 1.5283 0.1290
H3A H 0.4185 0.9660 0.1322
O3A O 0.8719(2) 1.0832(2) 0.8820(2)
H1A H 0.7914 1.1080 0.8249
H2A H 0.8555 1.0233 0.9250
N2_2 N 1.0000 1.2732(3) 0.7500
O1A_2 O 1.1835(2) 1.0776(2) 0.9357(2)
Co1_2 Co 1.0000 0.0794(1) 0.7500
Co1_3 Co 0.0000 1.0794(1) -0.2500
O4 O 0.6103(5) 0.7368(5) 0.3868(6)
H10 H 0.5235 0.7501 0.3808
H11 H 0.6165 0.7430 0.3027
loop_
_geom_bond_atom_site_label_1
_geom_bond_atom_site_label_2
_geom_bond_site_symmetry_1
_geom_bond_site_symmetry_2
Co1 N1 1_555 1_555
N1 C7 1_555 1_555
N2 C12 1_555 1_555
O1 Co1 1_555 1_555
O2 C1 1_555 1_555
O3 Co1 1_555 1_555
C1 O1 1_555 1_555
C2 C1 1_555 1_555
C3 C2 1_555 1_555
C4 C2 1_555 1_555
C5 C4 1_555 1_555
C6 C5 1_555 1_555
C7 C8 1_555 1_555
C8 C9 1_555 1_555
C9 C10 1_555 1_555
C10 C11 1_555 1_555
C11 C12 1_555 1_555
C12 H9 1_555 1_555
O4 H10 1_555 1_555
H1 O3 1_555 1_555
H2 O3 1_555 1_555
H3 C3 1_555 1_555
H4 C5 1_555 1_555
H5 C6 1_555 1_555
H6 C7 1_555 1_555
H7 C8 1_555 1_555
H8 C11 1_555 1_555
H11 O4 1_555 1_555
C8A C9 1_555 1_555
C7A N1 1_555 1_555
H6A C7A 1_555 1_555
H7A C8A 1_555 1_555
C12A N2 1_555 1_555
C11A C10 1_555 1_555
H8A C11A 1_555 1_555
H9A C12A 1_555 1_555
C3A C3 1_555 1_555
C2A C3A 1_555 1_555
C1A C2A 1_555 1_555
O1A C1A 1_555 1_555
O2A C1A 1_555 1_555
C4A C4 1_555 1_555
C6A C6 1_555 1_555
C5A C4A 1_555 1_555
H4A C5A 1_555 1_555
H5A C6A 1_555 1_555
H3A C3A 1_555 1_555
O3A Co1 1_555 1_555
H1A O3A 1_555 1_555
H2A O3A 1_555 1_555
N2_2 Co1 1_555 1_555
O1A_2 Co1 1_555 1_555
Co1_2 N2 1_555 1_555
Co1_3 O1A 1_555 1_555
C8A C7A 1_555 1_555
C12A C11A 1_555 1_555
C2A C4A 1_555 1_555
C6A C5A 1_555 1_555

#END
