
#######################################################################
#
#                 Cambridge Crystallographic Data Centre
#                                CCDC 
#
#######################################################################
#
# If this CIF has been generated from an entry in the Cambridge 
# Structural Database, then it will include bibliographic, chemical, 
# crystal, experimental, refinement or atomic coordinate data resulting 
# from the CCDC's data processing and validation procedures.
#
#######################################################################

data_EBOKUD
_symmetry_cell_setting           triclinic
_symmetry_space_group_name_H-M   'P -1'
_symmetry_Int_Tables_number      2
_space_group_name_Hall           '-P 1'
loop_
_symmetry_equiv_pos_site_id
_symmetry_equiv_pos_as_xyz
1 x,y,z
2 -x,-y,-z
_cell_length_a                   9.0241(18)
_cell_length_b                   11.139(2)
_cell_length_c                   29.368(5)
_cell_angle_alpha                73.49(2)
_cell_angle_beta                 32.633(9)
_cell_angle_gamma                62.65(3)
_cell_volume                     1381.07
loop_
_atom_site_label
_atom_site_type_symbol
_atom_site_fract_x
_atom_site_fract_y
_atom_site_fract_z
C1 C 0.3419(4) 0.17691(17) -0.06623(11)
C2 C -0.3609(4) 0.32006(17) 0.07757(11)
C3 C -0.3350(4) 0.0443(2) 0.17248(12)
H1 H -0.4953 0.1117 0.1895
C4 C -0.3781(4) 0.0361(2) 0.23075(12)
H2 H -0.5637 0.0973 0.2859
C5 C -0.1494(4) -0.06192(18) 0.20873(11)
C6 C 0.1101(4) -0.15020(18) 0.12768(11)
H3 H 0.2699 -0.2215 0.1101
C7 C 0.1374(4) -0.13507(18) 0.07277(11)
H4 H 0.3183 -0.1966 0.0178
C8 C -0.1667(4) -0.06761(18) 0.26420(11)
C9 C -0.3355(4) 0.05103(19) 0.32084(11)
H5 H -0.4671 0.1335 0.3309
C10 C -0.3139(4) 0.05019(19) 0.36253(11)
H6 H -0.4293 0.1319 0.4003
C11 C -0.1231(4) -0.07053(19) 0.34911(11)
C12 C 0.0294(4) -0.19084(19) 0.29715(11)
H7 H 0.1509 -0.275 0.29
C13 C 0.0064(4) -0.18948(18) 0.25593(11)
H8 H 0.1103 -0.2729 0.2215
C14 C -0.0690(4) -0.07594(19) 0.38498(11)
H9 H 0.0522 -0.1642 0.3758
C15 C -0.1742(4) 0.0316(2) 0.42935(11)
H10 H -0.3055 0.1204 0.4424
C16 C -0.0928(4) 0.0165(2) 0.45851(12)
C17 C -0.1140(4) 0.58996(19) 0.11867(12)
H11 H -0.0929 0.6682 0.0929
C18 C -0.1568(4) 0.58389(19) 0.17659(12)
H12 H -0.166 0.6576 0.19
C19 C -0.1867(4) 0.47103(19) 0.21565(11)
C20 C -0.1775(5) 0.3688(2) 0.19390(13)
H13 H -0.2008 0.2901 0.2193
C21 C -0.1345(5) 0.3822(2) 0.13521(13)
H14 H -0.1284 0.311 0.1214
C22 C -0.2093(4) 0.46007(19) 0.27262(11)
C23 C -0.3377(4) 0.57985(19) 0.31974(12)
H15 H -0.4395 0.6674 0.3223
C24 C -0.3188(4) 0.57278(19) 0.36263(12)
H16 H -0.4067 0.6554 0.3939
C25 C -0.1716(4) 0.44541(19) 0.36041(11)
C26 C -0.0661(4) 0.3259(2) 0.31920(11)
H17 H 0.019 0.238 0.3211
C27 C -0.0824(4) 0.33221(19) 0.27558(11)
H18 H -0.007 0.2493 0.2477
C28 C -0.1114(4) 0.4339(2) 0.39500(12)
H19 H -0.0331 0.3437 0.3973
C29 C -0.1565(4) 0.5388(2) 0.42364(12)
H20 H -0.2417 0.6301 0.4239
C30 C -0.0806(4) 0.5196(2) 0.45473(12)
N1 N 0.2424(3) 0.29177(15) -0.04171(10)
N2 N -0.2653(3) 0.20415(15) 0.05547(9)
N3 N -0.0795(3) -0.03755(15) 0.09314(9)
N4 N -0.1009(4) 0.49029(15) 0.09693(10)
O1 O -0.1791(3) 0.12289(14) 0.49355(10)
O2 O 0.0679(3) -0.10642(14) 0.44537(10)
H21 H 0.1004 -0.1025 0.4645
O3 O -0.1511(4) 0.62545(15) 0.48595(10)
O4 O 0.0549(3) 0.39551(15) 0.44817(10)
H22 H 0.0863 0.3974 0.4679
S1 S 0.48119(10) 0.01442(4) -0.10131(3)
S2 S -0.48650(10) 0.48403(4) 0.10613(3)
Ni1 Ni 0.00000 0.00000 0.00000
Ni2 Ni 0.00000 0.50000 0.00000
C1A C -0.3419(4) -0.17691(17) 0.06623(11)
C2A C 0.3609(4) -0.32006(17) -0.07757(11)
C3A C 0.3350(4) -0.0443(2) -0.17248(12)
H1A H 0.4953 -0.1117 -0.1895
C4A C 0.3781(4) -0.0361(2) -0.23075(12)
H2A H 0.5637 -0.0973 -0.2859
C5A C 0.1494(4) 0.06192(18) -0.20873(11)
C6A C -0.1101(4) 0.15020(18) -0.12768(11)
H3A H -0.2699 0.2215 -0.1101
C7A C -0.1374(4) 0.13507(18) -0.07277(11)
H4A H -0.3183 0.1966 -0.0178
C8A C 0.1667(4) 0.06761(18) -0.26420(11)
C9A C 0.3355(4) -0.05103(19) -0.32084(11)
H5A H 0.4671 -0.1335 -0.3309
C10A C 0.3139(4) -0.05019(19) -0.36253(11)
H6A H 0.4293 -0.1319 -0.4003
C11A C 0.1231(4) 0.07053(19) -0.34911(11)
C12A C -0.0294(4) 0.19084(19) -0.29715(11)
H7A H -0.1509 0.275 -0.29
C13A C -0.0064(4) 0.18948(18) -0.25593(11)
H8A H -0.1103 0.2729 -0.2215
C14A C 0.0690(4) 0.07594(19) -0.38498(11)
H9A H -0.0522 0.1642 -0.3758
C15A C 0.1742(4) -0.0316(2) -0.42935(11)
H10A H 0.3055 -0.1204 -0.4424
C16A C 0.0928(4) -0.0165(2) -0.45851(12)
C17A C 0.1140(4) 0.41004(19) -0.11867(12)
H11A H 0.0929 0.3318 -0.0929
C18A C 0.1568(4) 0.41611(19) -0.17659(12)
H12A H 0.166 0.3424 -0.19
C19A C 0.1867(4) 0.52897(19) -0.21565(11)
C20A C 0.1775(5) 0.6312(2) -0.19390(13)
H13A H 0.2008 0.7099 -0.2193
C21A C 0.1345(5) 0.6178(2) -0.13521(13)
H14A H 0.1284 0.689 -0.1214
C22A C 0.2093(4) 0.53993(19) -0.27262(11)
C23A C 0.3377(4) 0.42015(19) -0.31974(12)
H15A H 0.4395 0.3326 -0.3223
C24A C 0.3188(4) 0.42722(19) -0.36263(12)
H16A H 0.4067 0.3446 -0.3939
C25A C 0.1716(4) 0.55459(19) -0.36041(11)
C26A C 0.0661(4) 0.6741(2) -0.31920(11)
H17A H -0.019 0.762 -0.3211
C27A C 0.0824(4) 0.66779(19) -0.27558(11)
H18A H 0.007 0.7507 -0.2477
C28A C 0.1114(4) 0.5661(2) -0.39500(12)
H19A H 0.0331 0.6563 -0.3973
C29A C 0.1565(4) 0.4612(2) -0.42364(12)
H20A H 0.2417 0.3699 -0.4239
C30A C 0.0806(4) 0.4804(2) -0.45473(12)
N1A N -0.2424(3) -0.29177(15) 0.04171(10)
N1A_2 N -0.2424(3) 0.70823(15) 0.04171(10)
N2A N 0.2653(3) -0.20415(15) -0.05547(9)
N3A N 0.0795(3) 0.03755(15) -0.09314(9)
N4A N 0.1009(4) 0.50971(15) -0.09693(10)
O1A O 0.1791(3) -0.12289(14) -0.49355(10)
O2A O -0.0679(3) 0.10642(14) -0.44537(10)
H21A H -0.1004 0.1025 -0.4645
O3A O 0.1511(4) 0.37455(15) -0.48595(10)
O4A O -0.0549(3) 0.60449(15) -0.44817(10)
H22A H -0.0863 0.6026 -0.4679
S1A S -0.48119(10) -0.01442(4) 0.10131(3)
S2A S 0.48650(10) -0.48403(4) -0.10613(3)
S2A_2 S 0.48650(10) 0.51597(4) -0.10613(3)
Ni2_2 Ni 0.00000 -0.50000 0.00000
loop_
_geom_bond_atom_site_label_1
_geom_bond_atom_site_label_2
_geom_bond_site_symmetry_1
_geom_bond_site_symmetry_2
C1 N1 1_555 1_555
C2 N2 1_555 1_555
C3 H1 1_555 1_555
C4 C3 1_555 1_555
H2 C4 1_555 1_555
C5 C4 1_555 1_555
C6 C5 1_555 1_555
H3 C6 1_555 1_555
C7 C6 1_555 1_555
H4 C7 1_555 1_555
C8 C5 1_555 1_555
C9 C8 1_555 1_555
H5 C9 1_555 1_555
C10 C9 1_555 1_555
H6 C10 1_555 1_555
C11 C10 1_555 1_555
C12 C11 1_555 1_555
H7 C12 1_555 1_555
C13 C8 1_555 1_555
H8 C13 1_555 1_555
C14 C11 1_555 1_555
H9 C14 1_555 1_555
C15 C14 1_555 1_555
H10 C15 1_555 1_555
C16 C15 1_555 1_555
C17 H11 1_555 1_555
C18 C17 1_555 1_555
H12 C18 1_555 1_555
C19 C18 1_555 1_555
C20 C19 1_555 1_555
H13 C20 1_555 1_555
C21 C20 1_555 1_555
H14 C21 1_555 1_555
C22 C19 1_555 1_555
C23 C22 1_555 1_555
H15 C23 1_555 1_555
C24 C23 1_555 1_555
H16 C24 1_555 1_555
C25 C24 1_555 1_555
C26 C25 1_555 1_555
H17 C26 1_555 1_555
C27 C22 1_555 1_555
H18 C27 1_555 1_555
C28 C25 1_555 1_555
H19 C28 1_555 1_555
C29 C28 1_555 1_555
H20 C29 1_555 1_555
C30 C29 1_555 1_555
N1 Ni2 1_555 1_555
N2 Ni1 1_555 1_555
N3 C3 1_555 1_555
N4 C17 1_555 1_555
O1 C16 1_555 1_555
O2 C16 1_555 1_555
H21 O2 1_555 1_555
O3 C30 1_555 1_555
O4 C30 1_555 1_555
H22 O4 1_555 1_555
S1 C1 1_555 1_555
S2 C2 1_555 1_555
Ni1 N3 1_555 1_555
Ni2 N4 1_555 1_555
C1A N1A 1_555 1_555
C2A N2A 1_555 1_555
C3A H1A 1_555 1_555
C4A C3A 1_555 1_555
H2A C4A 1_555 1_555
C5A C4A 1_555 1_555
C6A C5A 1_555 1_555
H3A C6A 1_555 1_555
C7A C6A 1_555 1_555
H4A C7A 1_555 1_555
C8A C5A 1_555 1_555
C9A C8A 1_555 1_555
H5A C9A 1_555 1_555
C10A C9A 1_555 1_555
H6A C10A 1_555 1_555
C11A C10A 1_555 1_555
C12A C11A 1_555 1_555
H7A C12A 1_555 1_555
C13A C8A 1_555 1_555
H8A C13A 1_555 1_555
C14A C11A 1_555 1_555
H9A C14A 1_555 1_555
C15A C14A 1_555 1_555
H10A C15A 1_555 1_555
C16A C15A 1_555 1_555
C17A H11A 1_555 1_555
C18A C17A 1_555 1_555
H12A C18A 1_555 1_555
C19A C18A 1_555 1_555
C20A C19A 1_555 1_555
H13A C20A 1_555 1_555
C21A C20A 1_555 1_555
H14A C21A 1_555 1_555
C22A C19A 1_555 1_555
C23A C22A 1_555 1_555
H15A C23A 1_555 1_555
C24A C23A 1_555 1_555
H16A C24A 1_555 1_555
C25A C24A 1_555 1_555
C26A C25A 1_555 1_555
H17A C26A 1_555 1_555
C27A C22A 1_555 1_555
H18A C27A 1_555 1_555
C28A C25A 1_555 1_555
H19A C28A 1_555 1_555
C29A C28A 1_555 1_555
H20A C29A 1_555 1_555
C30A C29A 1_555 1_555
N1A Ni2_2 1_555 1_555
N1A_2 Ni2 1_555 1_555
N2A Ni1 1_555 1_555
N3A Ni1 1_555 1_555
N4A Ni2 1_555 1_555
O1A C16A 1_555 1_555
O2A C16A 1_555 1_555
H21A O2A 1_555 1_555
O3A C30A 1_555 1_555
O4A C30A 1_555 1_555
H22A O4A 1_555 1_555
S1A Ni1 1_555 1_555
S2A C2A 1_555 1_555
S2A_2 Ni2 1_555 1_555
Ni2_2 S2A 1_555 1_555
C7 N3 1_555 1_555
C12 C13 1_555 1_555
C21 N4 1_555 1_555
C26 C27 1_555 1_555
S1 Ni1 1_555 1_555
S2 Ni2 1_555 1_555
C1A S1A 1_555 1_555
C3A N3A 1_555 1_555
C7A N3A 1_555 1_555
C12A C13A 1_555 1_555
C17A N4A 1_555 1_555
C21A N4A 1_555 1_555
C26A C27A 1_555 1_555

#END
