
#######################################################################
#
#                 Cambridge Crystallographic Data Centre
#                                CCDC 
#
#######################################################################
#
# If this CIF has been generated from an entry in the Cambridge 
# Structural Database, then it will include bibliographic, chemical, 
# crystal, experimental, refinement or atomic coordinate data resulting 
# from the CCDC's data processing and validation procedures.
#
#######################################################################

data_EBOKOX
_symmetry_cell_setting           triclinic
_symmetry_space_group_name_H-M   'P -1'
_symmetry_Int_Tables_number      2
_space_group_name_Hall           '-P 1'
loop_
_symmetry_equiv_pos_site_id
_symmetry_equiv_pos_as_xyz
1 x,y,z
2 -x,-y,-z
_cell_length_a                   10.268(2)
_cell_length_b                   11.0835(7)
_cell_length_c                   28.807(4)
_cell_angle_alpha                87.171(12)
_cell_angle_beta                 35.532(7)
_cell_angle_gamma                84.060(10)
_cell_volume                     1891.58
loop_
_atom_site_label
_atom_site_type_symbol
_atom_site_fract_x
_atom_site_fract_y
_atom_site_fract_z
Br1 Br -1.14584(7) 0.58130(4) 0.66126(2)
Br2 Br 0.35651(6) 0.22562(4) 0.04360(2)
C26 C 0.0975(6) 0.2958(3) 0.1497(2)
C28 C -0.1065(6) 0.3152(3) 0.1850(2)
H19 H -0.1158 0.2955 0.1561
C31 C -0.4902(6) 0.4420(3) 0.3913(2)
C33 C -0.7070(6) 0.4558(3) 0.5250(2)
H23 H -0.722 0.4348 0.5615
C35 C -0.0754(6) 0.3749(3) 0.2683(2)
H25 H -0.064 0.3957 0.2965
C36 C 0.1157(6) 0.3269(3) 0.1902(2)
H26 H 0.2574 0.3155 0.1646
C37 C -0.2856(6) 0.3933(3) 0.3068(2)
C38 C -0.6622(6) 0.5184(3) 0.4186(2)
H27 H -0.6467 0.5411 0.3822
C39 C -0.8763(6) 0.5299(4) 0.5506(2)
C40 C -0.2963(6) 0.3640(3) 0.2632(2)
H28 H -0.4364 0.3777 0.2878
C41 C -0.5155(6) 0.4126(3) 0.4456(2)
H29 H -0.3991 0.3619 0.4279
C42 C -0.8564(6) 0.5620(3) 0.4985(2)
H30 H -0.9731 0.6132 0.5166
Ni1 Ni 0.00000 0.50000 0.00000
Ni2 Ni 0.00000 0.00000 0.00000
S1 S -0.36464(12) 0.40330(7) 0.12141(4)
S2 S 0.35363(12) 0.09533(6) -0.08355(4)
C1 C 0.2089(5) 0.2900(3) -0.29210(17)
H1 H 0.3468 0.2867 -0.3154
C2 C 0.0046(5) 0.3621(3) -0.16164(17)
C3 C -0.2683(5) 0.2618(3) 0.08195(17)
N1 N 0.0051(4) 0.4373(2) -0.06931(14)
N2 N 0.1901(4) 0.3427(2) -0.03367(15)
O1 O 0.0836(4) 0.1741(3) -0.46858(14)
H2 H 0.082 0.1576 -0.4962
O2 O -0.2459(4) 0.1406(2) 0.52814(14)
H3 H -0.2451 0.1523 0.5565
N3 N -0.0715(4) -0.0175(2) 0.09214(15)
C4 C 0.0075(5) 0.3255(3) -0.21158(17)
O3 O 0.1278(4) 0.1251(3) 0.43087(15)
N4 N -0.1990(4) 0.1635(2) 0.05408(15)
C5 C 0.2563(5) 0.2403(3) -0.05357(17)
C6 C -0.1610(5) 0.0735(3) 0.36027(18)
C7 C -0.0084(6) 0.1023(3) 0.39511(19)
H4 H 0.1414 0.0908 0.3403
C8 C 0.2121(5) 0.2591(3) -0.33917(18)
H5 H 0.3521 0.235 -0.3941
C9 C -0.1520(5) 0.2242(3) -0.33667(19)
H6 H -0.301 0.2408 -0.282
C10 C 0.0224(5) 0.2295(3) -0.35853(18)
H7 H 0.1685 0.2093 -0.4133
C11 C -0.1914(5) 0.2986(3) -0.22561(18)
H8 H -0.3294 0.3022 -0.2023
C12 C 0.0724(5) -0.0541(3) 0.12791(18)
H9 H 0.1929 -0.0877 0.1128
C13 C -0.1192(5) 0.1934(3) -0.39504(19)
C14 C 0.0927(5) -0.0621(3) 0.07447(18)
H10 H 0.2288 -0.1008 0.023
C15 C -0.1221(5) 0.0026(3) 0.20331(17)
C16 C -0.2655(5) 0.0309(3) 0.16649(18)
H11 H -0.3864 0.0587 0.1809
C17 C -0.1398(5) 0.0253(3) 0.25881(17)
C18 C -0.1795(5) 0.0980(3) 0.41501(19)
H12 H -0.3275 0.1121 0.4701
O4 O -0.2888(4) 0.1895(3) -0.37132(15)
C19 C 0.0569(5) 0.0225(3) 0.22893(18)
H13 H 0.2001 0.0042 0.1735
C20 C -0.1935(5) 0.3285(3) -0.17908(17)
H14 H -0.3336 0.3517 -0.124
C21 C -0.2992(5) 0.0428(3) 0.22353(18)
H15 H -0.4402 0.0776 0.2756
C22 C 0.0118(5) 0.2631(3) -0.30683(17)
C23 C -0.0429(5) 0.1242(3) 0.45460(19)
C24 C -0.1760(5) 0.4633(3) -0.04508(18)
H16 H -0.3064 0.5082 0.0046
C25 C 0.0450(5) 0.0460(3) 0.27888(19)
H17 H 0.1801 0.0433 0.2573
C27 C -0.1816(5) 0.4281(3) -0.08882(18)
H18 H -0.3136 0.4492 -0.0689
C29 C -0.3575(5) 0.0759(3) 0.39042(19)
H20 H -0.5003 0.0937 0.446
C30 C -0.3470(5) 0.0524(3) 0.34027(18)
H21 H -0.4822 0.055 0.3619
C32 C 0.1846(5) 0.3728(3) -0.13960(18)
H22 H 0.3149 0.3537 -0.1584
C34 C 0.1919(5) 0.3323(3) -0.18642(18)
H24 H 0.3223 0.2848 -0.2349
Ni2_2 Ni 0.00000 1.00000 0.00000
S1A S 0.36464(12) 0.59670(7) -0.12141(4)
S2A S -0.35363(12) 0.90467(6) 0.08355(4)
S2A_2 S -0.35363(12) -0.09533(6) 0.08355(4)
C1A C -0.2089(5) 0.7100(3) 0.29210(17)
H1A H -0.3468 0.7133 0.3154
C2A C -0.0046(5) 0.6379(3) 0.16164(17)
C3A C 0.2683(5) 0.7382(3) -0.08195(17)
N1A N -0.0051(4) 0.5627(2) 0.06931(14)
N2A N -0.1901(4) 0.6573(2) 0.03367(15)
O1A O -0.0836(4) 0.8259(3) 0.46858(14)
H2A H -0.082 0.8424 0.4962
O2A O 0.2459(4) -0.1406(2) -0.52814(14)
H3A H 0.2451 -0.1523 -0.5565
N3A N 0.0715(4) 0.0175(2) -0.09214(15)
C4A C -0.0075(5) 0.6745(3) 0.21158(17)
O3A O -0.1278(4) -0.1251(3) -0.43087(15)
N4A N 0.1990(4) 0.8365(2) -0.05408(15)
N4A_2 N 0.1990(4) -0.1635(2) -0.05408(15)
C5A C -0.2563(5) 0.7597(3) 0.05357(17)
C6A C 0.1610(5) -0.0735(3) -0.36027(18)
C7A C 0.0084(6) -0.1023(3) -0.39511(19)
H4A H -0.1414 -0.0908 -0.3403
C8A C -0.2121(5) 0.7409(3) 0.33917(18)
H5A H -0.3521 0.765 0.3941
C9A C 0.1520(5) 0.7758(3) 0.33667(19)
H6A H 0.301 0.7592 0.282
C10A C -0.0224(5) 0.7705(3) 0.35853(18)
H7A H -0.1685 0.7907 0.4133
C11A C 0.1914(5) 0.7014(3) 0.22561(18)
H8A H 0.3294 0.6978 0.2023
C12A C -0.0724(5) 0.0541(3) -0.12791(18)
H9A H -0.1929 0.0877 -0.1128
C13A C 0.1192(5) 0.8066(3) 0.39504(19)
C14A C -0.0927(5) 0.0621(3) -0.07447(18)
H10A H -0.2288 0.1008 -0.023
C15A C 0.1221(5) -0.0026(3) -0.20331(17)
C16A C 0.2655(5) -0.0309(3) -0.16649(18)
H11A H 0.3864 -0.0587 -0.1809
C17A C 0.1398(5) -0.0253(3) -0.25881(17)
C18A C 0.1795(5) -0.0980(3) -0.41501(19)
H12A H 0.3275 -0.1121 -0.4701
O4A O 0.2888(4) 0.8105(3) 0.37132(15)
C19A C -0.0569(5) -0.0225(3) -0.22893(18)
H13A H -0.2001 -0.0042 -0.1735
C20A C 0.1935(5) 0.6715(3) 0.17908(17)
H14A H 0.3336 0.6483 0.124
C21A C 0.2992(5) -0.0428(3) -0.22353(18)
H15A H 0.4402 -0.0776 -0.2756
C22A C -0.0118(5) 0.7369(3) 0.30683(17)
C23A C 0.0429(5) -0.1242(3) -0.45460(19)
C24A C 0.1760(5) 0.5367(3) 0.04508(18)
H16A H 0.3064 0.4918 -0.0046
C25A C -0.0450(5) -0.0460(3) -0.27888(19)
H17A H -0.1801 -0.0433 -0.2573
C27A C 0.1816(5) 0.5719(3) 0.08882(18)
H18A H 0.3136 0.5508 0.0689
C29A C 0.3575(5) -0.0759(3) -0.39042(19)
H20A H 0.5003 -0.0937 -0.446
C30A C 0.3470(5) -0.0524(3) -0.34027(18)
H21A H 0.4822 -0.055 -0.3619
C32A C -0.1846(5) 0.6272(3) 0.13960(18)
H22A H -0.3149 0.6463 0.1584
C34A C -0.1919(5) 0.6677(3) 0.18642(18)
H24A H -0.3223 0.7152 0.2349
loop_
_geom_bond_atom_site_label_1
_geom_bond_atom_site_label_2
_geom_bond_site_symmetry_1
_geom_bond_site_symmetry_2
Br1 C39 1_555 1_555
Ni1 S1 1_555 1_555
Ni2 S2 1_555 1_555
Br2 C26 1_555 1_555
S1 C3 1_555 1_555
S2 C5 1_555 1_555
C1 H1 1_555 1_555
C2 C4 1_555 1_555
C3 N4 1_555 1_555
N1 Ni1 1_555 1_555
N2 Ni1 1_555 1_555
O1 H2 1_555 1_555
O2 H3 1_555 1_555
N3 Ni2 1_555 1_555
C4 C1 1_555 1_555
O3 C23 1_555 1_555
N4 Ni2 1_555 1_555
C5 N2 1_555 1_555
C6 C18 1_555 1_555
C7 H4 1_555 1_555
C8 C1 1_555 1_555
H5 C8 1_555 1_555
C9 H6 1_555 1_555
C10 C9 1_555 1_555
H7 C10 1_555 1_555
C11 H8 1_555 1_555
C12 H9 1_555 1_555
C13 O1 1_555 1_555
C14 N3 1_555 1_555
H10 C14 1_555 1_555
C15 C12 1_555 1_555
C16 N3 1_555 1_555
H11 C16 1_555 1_555
C17 C15 1_555 1_555
C18 C7 1_555 1_555
H12 C18 1_555 1_555
O4 C13 1_555 1_555
C19 C17 1_555 1_555
H13 C19 1_555 1_555
C20 C4 1_555 1_555
H14 C20 1_555 1_555
C21 C15 1_555 1_555
H15 C21 1_555 1_555
C22 C8 1_555 1_555
C23 O2 1_555 1_555
C24 N1 1_555 1_555
H16 C24 1_555 1_555
C25 C6 1_555 1_555
H17 C25 1_555 1_555
C26 C28 1_555 1_555
C27 C2 1_555 1_555
H18 C27 1_555 1_555
C28 H19 1_555 1_555
C29 C6 1_555 1_555
H20 C29 1_555 1_555
C30 C17 1_555 1_555
H21 C30 1_555 1_555
C31 C37 1_555 1_555
C32 N1 1_555 1_555
H22 C32 1_555 1_555
C33 H23 1_555 1_555
C34 C2 1_555 1_555
H24 C34 1_555 1_555
C35 H25 1_555 1_555
C36 C26 1_555 1_555
H26 C36 1_555 1_555
C37 C35 1_555 1_555
C38 C31 1_555 1_555
H27 C38 1_555 1_555
C39 C33 1_555 1_555
C40 C28 1_555 1_555
H28 C40 1_555 1_555
C41 C31 1_555 1_555
H29 C41 1_555 1_555
C42 C38 1_555 1_555
H30 C42 1_555 1_555
Ni2_2 S2A 1_555 1_555
S1A Ni1 1_555 1_555
S2A C5A 1_555 1_555
S2A_2 Ni2 1_555 1_555
C1A H1A 1_555 1_555
C2A C4A 1_555 1_555
C3A S1A 1_555 1_555
N1A Ni1 1_555 1_555
N2A Ni1 1_555 1_555
O1A H2A 1_555 1_555
O2A H3A 1_555 1_555
N3A Ni2 1_555 1_555
C4A C1A 1_555 1_555
O3A C23A 1_555 1_555
N4A Ni2_2 1_555 1_555
N4A_2 Ni2 1_555 1_555
C5A N2A 1_555 1_555
C6A C18A 1_555 1_555
C7A H4A 1_555 1_555
C8A C1A 1_555 1_555
H5A C8A 1_555 1_555
C9A H6A 1_555 1_555
C10A C9A 1_555 1_555
H7A C10A 1_555 1_555
C11A H8A 1_555 1_555
C12A H9A 1_555 1_555
C13A O1A 1_555 1_555
C14A N3A 1_555 1_555
H10A C14A 1_555 1_555
C15A C12A 1_555 1_555
C16A N3A 1_555 1_555
H11A C16A 1_555 1_555
C17A C15A 1_555 1_555
C18A C7A 1_555 1_555
H12A C18A 1_555 1_555
O4A C13A 1_555 1_555
C19A C17A 1_555 1_555
H13A C19A 1_555 1_555
C20A C4A 1_555 1_555
H14A C20A 1_555 1_555
C21A C15A 1_555 1_555
H15A C21A 1_555 1_555
C22A C8A 1_555 1_555
C23A O2A 1_555 1_555
C24A N1A 1_555 1_555
H16A C24A 1_555 1_555
C25A C6A 1_555 1_555
H17A C25A 1_555 1_555
C27A C2A 1_555 1_555
H18A C27A 1_555 1_555
C29A C6A 1_555 1_555
H20A C29A 1_555 1_555
C30A C17A 1_555 1_555
H21A C30A 1_555 1_555
C32A N1A 1_555 1_555
H22A C32A 1_555 1_555
C34A C2A 1_555 1_555
H24A C34A 1_555 1_555
C7 C23 1_555 1_555
C9 C13 1_555 1_555
C10 C22 1_555 1_555
C11 C20 1_555 1_555
C11 C22 1_555 1_555
C12 C14 1_555 1_555
C16 C21 1_555 1_555
C19 C25 1_555 1_555
C24 C27 1_555 1_555
C29 C30 1_555 1_555
C32 C34 1_555 1_555
C33 C41 1_555 1_555
C35 C36 1_555 1_555
C37 C40 1_555 1_555
C39 C42 1_555 1_555
C3A N4A 1_555 1_555
C7A C23A 1_555 1_555
C9A C13A 1_555 1_555
C10A C22A 1_555 1_555
C11A C20A 1_555 1_555
C11A C22A 1_555 1_555
C12A C14A 1_555 1_555
C16A C21A 1_555 1_555
C19A C25A 1_555 1_555
C24A C27A 1_555 1_555
C29A C30A 1_555 1_555
C32A C34A 1_555 1_555

#END
