
#######################################################################
#
#                 Cambridge Crystallographic Data Centre
#                                CCDC 
#
#######################################################################
#
# If this CIF has been generated from an entry in the Cambridge 
# Structural Database, then it will include bibliographic, chemical, 
# crystal, experimental, refinement or atomic coordinate data resulting 
# from the CCDC's data processing and validation procedures.
#
#######################################################################

data_EBOKAJ
_symmetry_cell_setting           monoclinic
_symmetry_space_group_name_H-M   'P 21/c'
_symmetry_Int_Tables_number      14
_space_group_name_Hall           '-P 2ybc'
loop_
_symmetry_equiv_pos_site_id
_symmetry_equiv_pos_as_xyz
1 x,y,z
2 -x,1/2+y,1/2-z
3 -x,-y,-z
4 x,1/2-y,1/2+z
_cell_length_a                   14.992(3)
_cell_length_b                   7.602(3)
_cell_length_c                   9.470(2)
_cell_angle_alpha                90
_cell_angle_beta                 105.271(19)
_cell_angle_gamma                90
_cell_volume                     1041.18
loop_
_atom_site_label
_atom_site_type_symbol
_atom_site_fract_x
_atom_site_fract_y
_atom_site_fract_z
Zn1 Zn 0.21399(2) 0.48960(5) -0.10048(4)
O1 O -0.08419(13) 0.5795(3) 0.1549(2)
O2 O -0.14435(17) 0.7575(4) -0.0248(3)
N1 N 0.23449(13) 0.6613(3) 0.0676(2)
N2 N 0.31600(15) 0.7580(4) 0.0939(3)
N3 N 0.31658(15) 0.8764(3) 0.1934(2)
N4 N 0.23619(14) 0.8601(3) 0.2401(2)
N5 N 0.32246(15) 0.3195(3) -0.0691(3)
C1 C 0.19304(17) 0.7275(4) 0.1607(3)
C2 C 0.09842(18) 0.6633(4) 0.1730(3)
H1 H 0.0912 0.5397 0.1468
H2 H 0.0952 0.6750 0.2735
C3 C 0.02021(18) 0.7675(4) 0.0735(4)
H3 H 0.0282 0.7666 -0.0249
H4 H 0.0244 0.8888 0.1066
C4 C -0.0761(2) 0.6975(5) 0.0685(3)
C5 C 0.3123(2) 0.1666(5) -0.1396(4)
H5 H 0.2570 0.1440 -0.2092
C6 C 0.3808(2) 0.0397(5) -0.1135(3)
H6 H 0.3695 -0.0669 -0.1631
C7 C 0.46442(17) 0.0679(4) -0.0168(3)
C8 C 0.4734(3) 0.2258(5) 0.0575(4)
H7 H 0.5278 0.2521 0.1282
C9 C 0.4007(2) 0.3452(5) 0.0259(4)
H8 H 0.4089 0.4511 0.0768
Zn1B Zn -0.21399(2) 0.51040(5) 0.10048(4)
Zn1C Zn 0.21399(2) 1.01040(5) 0.39952(4)
Zn1B_2 Zn 0.78601(2) -0.48960(5) 0.10048(4)
Zn1A Zn -0.21399(2) -0.01040(5) -0.39952(4)
O1B O 0.08419(13) 0.4205(3) -0.1549(2)
O2B O 0.14435(17) 0.2425(4) 0.0248(3)
N1B N -0.23449(13) 0.3387(3) -0.0676(2)
N2B N -0.31600(15) 0.2420(4) -0.0939(3)
N3B N -0.31658(15) 0.1236(3) -0.1934(2)
N4B N -0.23619(14) 0.1399(3) -0.2401(2)
N4C N 0.23619(14) 0.6399(3) -0.2599(2)
N4A N -0.23619(14) 0.3601(3) 0.2599(2)
N5B N 0.67754(15) -0.3195(3) 0.0691(3)
N5B_2 N -0.32246(15) 0.6805(3) 0.0691(3)
C1B C -0.19304(17) 0.2725(4) -0.1607(3)
C2B C -0.09842(18) 0.3367(4) -0.1730(3)
H1B H -0.0912 0.4603 -0.1468
H2B H -0.0952 0.3250 -0.2735
C3B C -0.02021(18) 0.2325(4) -0.0735(4)
H3B H -0.0282 0.2334 0.0249
H4B H -0.0244 0.1112 -0.1066
C4B C 0.0761(2) 0.3025(5) -0.0685(3)
C5B C 0.6877(2) -0.1666(5) 0.1396(4)
H5B H 0.7430 -0.1440 0.2092
C6B C 0.6192(2) -0.0397(5) 0.1135(3)
H6B H 0.6305 0.0669 0.1631
C7B C 0.53558(17) -0.0679(4) 0.0168(3)
C8B C 0.5266(3) -0.2258(5) -0.0575(4)
H7B H 0.4722 -0.2521 -0.1282
C9B C 0.5993(2) -0.3452(5) -0.0259(4)
H8B H 0.5911 -0.4511 -0.0768
loop_
_geom_bond_atom_site_label_1
_geom_bond_atom_site_label_2
_geom_bond_site_symmetry_1
_geom_bond_site_symmetry_2
Zn1 N1 1_555 1_555
O1 C4 1_555 1_555
O2 C4 1_555 1_555
N1 N2 1_555 1_555
N2 N3 1_555 1_555
N3 N4 1_555 1_555
N4 C1 1_555 1_555
N5 Zn1 1_555 1_555
C1 N1 1_555 1_555
C2 C1 1_555 1_555
H1 C2 1_555 1_555
H2 C2 1_555 1_555
C3 C2 1_555 1_555
H3 C3 1_555 1_555
H4 C3 1_555 1_555
C4 C3 1_555 1_555
C5 N5 1_555 1_555
H5 C5 1_555 1_555
C6 C5 1_555 1_555
H6 C6 1_555 1_555
C7 C6 1_555 1_555
C8 C7 1_555 1_555
H7 C8 1_555 1_555
C9 N5 1_555 1_555
H8 C9 1_555 1_555
Zn1B O1 1_555 1_555
Zn1C N4 1_555 1_555
Zn1B_2 N5B 1_555 1_555
Zn1A N4B 1_555 1_555
O1B Zn1 1_555 1_555
O2B C4B 1_555 1_555
N1B Zn1B 1_555 1_555
N2B N1B 1_555 1_555
N3B N2B 1_555 1_555
N4B N3B 1_555 1_555
N4C Zn1 1_555 1_555
N4A Zn1B 1_555 1_555
N5B C5B 1_555 1_555
N5B_2 Zn1B 1_555 1_555
C1B N1B 1_555 1_555
C2B C1B 1_555 1_555
H1B C2B 1_555 1_555
H2B C2B 1_555 1_555
C3B C2B 1_555 1_555
H3B C3B 1_555 1_555
H4B C3B 1_555 1_555
C4B O1B 1_555 1_555
C5B H5B 1_555 1_555
C6B C5B 1_555 1_555
H6B C6B 1_555 1_555
C7B C7 1_555 1_555
C8B C7B 1_555 1_555
H7B C8B 1_555 1_555
C9B N5B 1_555 1_555
H8B C9B 1_555 1_555
C8 C9 1_555 1_555
N4B C1B 1_555 1_555
C3B C4B 1_555 1_555
C6B C7B 1_555 1_555
C8B C9B 1_555 1_555

#END
