
#######################################################################
#
#                 Cambridge Crystallographic Data Centre
#                                CCDC 
#
#######################################################################
#
# If this CIF has been generated from an entry in the Cambridge 
# Structural Database, then it will include bibliographic, chemical, 
# crystal, experimental, refinement or atomic coordinate data resulting 
# from the CCDC's data processing and validation procedures.
#
#######################################################################

data_EBOLUE
_symmetry_cell_setting           monoclinic
_symmetry_space_group_name_H-M   'C 2'
_symmetry_Int_Tables_number      5
_space_group_name_Hall           'C 2y'
loop_
_symmetry_equiv_pos_site_id
_symmetry_equiv_pos_as_xyz
1 x,y,z
2 -x,y,-z
3 1/2+x,1/2+y,z
4 1/2-x,1/2+y,-z
_cell_length_a                   21.574(3)
_cell_length_b                   5.9897(3)
_cell_length_c                   14.1692(18)
_cell_angle_alpha                90
_cell_angle_beta                 127.501(19)
_cell_angle_gamma                90
_cell_volume                     1452.59
loop_
_atom_site_label
_atom_site_type_symbol
_atom_site_fract_x
_atom_site_fract_y
_atom_site_fract_z
Cu1 Cu -0.10014(3) -0.42684(7) -0.20945(4)
O1 O -0.12412(17) -0.0694(5) -0.0670(3)
O2 O -0.18207(16) -0.3540(4) -0.1937(3)
O3 O -0.59829(17) 0.3689(4) -0.2626(3)
O4 O -0.56302(17) 0.5592(6) -0.3568(2)
O5 O -0.1061(2) -0.7383(5) -0.1776(4)
H1 H -0.1275 -0.8343 -0.1570
H2 H -0.0879 -0.7996 -0.1867
O6 O 0.0000 -0.3153(6) 0.0000
H3 H 0.0351 -0.2369 0.0052
N1 N -0.53296(19) -0.0037(5) -0.2601(3)
H4 H -0.5470 -0.1405 -0.2954
C1 C -0.1819(2) -0.1902(6) -0.1386(4)
C2 C -0.2570(2) -0.1355(6) -0.1576(3)
C3 C -0.3183(3) -0.2862(7) -0.2117(4)
H5 H -0.3165 -0.4158 -0.2460
C4 C -0.3826(3) -0.2427(7) -0.2145(5)
H6 H -0.4230 -0.3461 -0.2492
C5 C -0.3876(3) -0.0508(7) -0.1670(4)
C6 C -0.3283(2) 0.1027(9) -0.1188(4)
H7 H -0.3320 0.2372 -0.0897
C7 C -0.2632(2) 0.0595(10) -0.1131(3)
H8 H -0.2230 0.1639 -0.0787
C8 C -0.4506(2) -0.0118(7) -0.1510(4)
H9 H -0.4464 -0.1295 -0.1003
H10 H -0.4391 0.1280 -0.1087
C9 C -0.5707(2) 0.3844(7) -0.3208(4)
C10 C -0.5475(2) 0.1658(6) -0.3473(4)
H11 H -0.4987 0.1906 -0.3366
C11 C -0.6100(3) 0.0839(11) -0.4759(3)
H12 H -0.5900 -0.0542 -0.4856
C12 C -0.6212(5) 0.2471(11) -0.5654(6)
H13 H -0.5716 0.2801 -0.5477
H14 H -0.6438 0.3821 -0.5621
H15 H -0.6554 0.1837 -0.6436
C13 C -0.6873(3) 0.0267(12) -0.5011(5)
H16 H -0.6786 -0.0791 -0.4433
H17 H -0.7219 -0.0368 -0.5793
H18 H -0.7102 0.1597 -0.4968
Cu1B Cu 0.39986(3) -0.92684(7) -0.20945(4)
Cu1B_2 Cu -0.60014(3) 0.07316(7) -0.20945(4)
Cu1A Cu 0.10014(3) -0.42684(7) 0.20945(4)
O1B O 0.37588(17) -0.5694(5) -0.0670(3)
O2B O 0.31793(16) -0.8540(4) -0.1937(3)
O3B O -0.09829(17) -0.1311(4) -0.2626(3)
O3_2 O 0.40171(17) -0.6311(4) -0.2626(3)
O4B O -0.06302(17) 0.0592(6) -0.3568(2)
O5B O 0.3939(2) -1.2383(5) -0.1776(4)
H1B H 0.3725 -1.3343 -0.1570
H2B H 0.4121 -1.2996 -0.1867
O6B O 0.5000 -0.8153(6) 0.0000
H3A H -0.0351 -0.2369 -0.0052
H3B H 0.5351 -0.7369 0.0052
H3C H 0.4649 -0.7369 -0.0052
N1B N -0.03296(19) -0.5037(5) -0.2601(3)
N1_2 N 0.46704(19) -1.0037(5) -0.2601(3)
H4B H -0.0470 -0.6405 -0.2954
H4_2 H 0.4530 -1.1405 -0.2954
C1B C 0.3181(2) -0.6902(6) -0.1386(4)
C2B C 0.2430(2) -0.6355(6) -0.1576(3)
C3B C 0.1817(3) -0.7862(7) -0.2117(4)
H5B H 0.1835 -0.9158 -0.2460
C4B C 0.1174(3) -0.7427(7) -0.2145(5)
H6B H 0.0770 -0.8461 -0.2492
C5B C 0.1124(3) -0.5508(7) -0.1670(4)
C6B C 0.1717(2) -0.3973(9) -0.1188(4)
H7B H 0.1680 -0.2628 -0.0897
C7B C 0.2368(2) -0.4405(10) -0.1131(3)
H8B H 0.2770 -0.3361 -0.0787
C8B C 0.0494(2) -0.5118(7) -0.1510(4)
H9B H 0.0536 -0.6295 -0.1003
H10B H 0.0609 -0.3720 -0.1087
C9B C -0.0707(2) -0.1156(7) -0.3208(4)
C10B C -0.0475(2) -0.3342(6) -0.3473(4)
H11B H 0.0013 -0.3094 -0.3366
C11B C -0.1100(3) -0.4161(11) -0.4759(3)
H12B H -0.0900 -0.5542 -0.4856
C12B C -0.1212(5) -0.2529(11) -0.5654(6)
H13B H -0.0716 -0.2199 -0.5477
H14B H -0.1438 -0.1179 -0.5621
H15B H -0.1554 -0.3163 -0.6436
C13B C -0.1873(3) -0.4733(12) -0.5011(5)
H16B H -0.1786 -0.5791 -0.4433
H17B H -0.2219 -0.5368 -0.5793
H18B H -0.2102 -0.3403 -0.4968
loop_
_geom_bond_atom_site_label_1
_geom_bond_atom_site_label_2
_geom_bond_site_symmetry_1
_geom_bond_site_symmetry_2
Cu1 O2 1_555 1_555
O1 C1 1_555 1_555
O2 C1 1_555 1_555
O3 C9 1_555 1_555
O4 C9 1_555 1_555
O5 Cu1 1_555 1_555
H1 O5 1_555 1_555
H2 O5 1_555 1_555
O6 Cu1 1_555 1_555
H3 O6 1_555 1_555
N1 H4 1_555 1_555
C1 C2 1_555 1_555
C2 C3 1_555 1_555
C3 H5 1_555 1_555
C4 C3 1_555 1_555
H6 C4 1_555 1_555
C5 C4 1_555 1_555
C6 C5 1_555 1_555
H7 C6 1_555 1_555
C7 C2 1_555 1_555
H8 C7 1_555 1_555
C8 N1 1_555 1_555
H9 C8 1_555 1_555
H10 C8 1_555 1_555
C9 C10 1_555 1_555
C10 N1 1_555 1_555
H11 C10 1_555 1_555
C11 C10 1_555 1_555
H12 C11 1_555 1_555
C12 C11 1_555 1_555
H13 C12 1_555 1_555
H14 C12 1_555 1_555
H15 C12 1_555 1_555
C13 C11 1_555 1_555
H16 C13 1_555 1_555
H17 C13 1_555 1_555
H18 C13 1_555 1_555
Cu1B O2B 1_555 1_555
Cu1B_2 O3 1_555 1_555
Cu1A O6 1_555 1_555
O1B C1B 1_555 1_555
O2B C1B 1_555 1_555
O3B Cu1 1_555 1_555
O3_2 Cu1B 1_555 1_555
O4B C9B 1_555 1_555
O5B Cu1B 1_555 1_555
H1B O5B 1_555 1_555
H2B O5B 1_555 1_555
O6B Cu1B 1_555 1_555
H3A O6 1_555 1_555
H3B O6B 1_555 1_555
H3C O6B 1_555 1_555
N1B Cu1 1_555 1_555
N1_2 Cu1B 1_555 1_555
H4B N1B 1_555 1_555
H4_2 N1_2 1_555 1_555
C1B C2B 1_555 1_555
C2B C3B 1_555 1_555
C3B H5B 1_555 1_555
C4B C3B 1_555 1_555
H6B C4B 1_555 1_555
C5B C4B 1_555 1_555
C6B C5B 1_555 1_555
H7B C6B 1_555 1_555
C7B C2B 1_555 1_555
H8B C7B 1_555 1_555
C8B N1B 1_555 1_555
H9B C8B 1_555 1_555
H10B C8B 1_555 1_555
C9B O3B 1_555 1_555
C10B N1B 1_555 1_555
H11B C10B 1_555 1_555
C11B C10B 1_555 1_555
H12B C11B 1_555 1_555
C12B C11B 1_555 1_555
H13B C12B 1_555 1_555
H14B C12B 1_555 1_555
H15B C12B 1_555 1_555
C13B C11B 1_555 1_555
H16B C13B 1_555 1_555
H17B C13B 1_555 1_555
H18B C13B 1_555 1_555
N1 Cu1B_2 1_555 1_555
C5 C8 1_555 1_555
C6 C7 1_555 1_555
C5B C8B 1_555 1_555
C6B C7B 1_555 1_555
C9B C10B 1_555 1_555

#END
