
#######################################################################
#
#                 Cambridge Crystallographic Data Centre
#                                CCDC 
#
#######################################################################
#
# If this CIF has been generated from an entry in the Cambridge 
# Structural Database, then it will include bibliographic, chemical, 
# crystal, experimental, refinement or atomic coordinate data resulting 
# from the CCDC's data processing and validation procedures.
#
#######################################################################

data_EBOMUF
_symmetry_cell_setting           monoclinic
_symmetry_space_group_name_H-M   'P 2/n'
_symmetry_Int_Tables_number      13
_space_group_name_Hall           '-P 2yac'
loop_
_symmetry_equiv_pos_site_id
_symmetry_equiv_pos_as_xyz
1 x,y,z
2 1/2-x,y,1/2-z
3 -x,-y,-z
4 1/2+x,-y,1/2+z
_cell_length_a                   9.288(4)
_cell_length_b                   10.108(5)
_cell_length_c                   11.775(6)
_cell_angle_alpha                90
_cell_angle_beta                 112.531(8)
_cell_angle_gamma                90
_cell_volume                     1021.1
loop_
_atom_site_label
_atom_site_type_symbol
_atom_site_fract_x
_atom_site_fract_y
_atom_site_fract_z
Ag1 Ag 0.2500 0.22075(4) 0.2500
Ag2 Ag -0.2500 0.47200(4) -0.2500
C1 C -0.0081(5) 0.2898(4) -0.0055(4)
C2 C -0.2597(5) 0.2266(4) -0.0649(4)
C3 C -0.0741(5) 0.1180(4) 0.0898(4)
C4 C -0.0287(6) 0.0118(4) 0.1851(5)
H1 H 0.0837 0.0164 0.2333
H2 H -0.0851 0.0241 0.2396
H3 H -0.0548 -0.0748 0.1450
C5 C -0.0237(5) 0.3999(4) 0.3050(4)
C6 C -0.1847(5) 0.3988(7) 0.3090(5)
H4 H -0.1934 0.3196 0.3553
H5 H -0.1943 0.4774 0.3559
N1 N 0.1014(4) 0.3638(3) -0.0196(3)
H6 H 0.0761 0.4231 -0.0788
H7 H 0.1994 0.3538 0.0303
N2 N -0.4099(4) 0.2449(4) -0.1307(4)
H8 H -0.4400 0.3093 -0.1851
H9 H -0.4795 0.1927 -0.1202
N3 N -0.1559(4) 0.3072(3) -0.0825(3)
N4 N 0.0374(4) 0.1996(3) 0.0878(3)
N5 N -0.2226(4) 0.1242(3) 0.0163(3)
O1 O 0.0035(3) 0.4843(3) 0.2382(3)
O3 O 0.0729(4) 0.3186(4) 0.3687(3)
Ag1B Ag -0.2500 0.77925(4) -0.2500
Ag1_2 Ag -0.7500 0.22075(4) 0.2500
Ag2B Ag 0.2500 0.52800(4) 0.2500
Ag2B_2 Ag -0.7500 0.52800(4) 0.2500
Ag2_2 Ag 0.7500 0.47200(4) 0.7500
C1A C 0.5081(5) 0.2898(4) 0.5055(4)
C2A C 0.7597(5) 0.2266(4) 0.5649(4)
C3A C 0.5741(5) 0.1180(4) 0.4102(4)
C4A C 0.5287(6) 0.0118(4) 0.3149(5)
H1A H 0.4163 0.0164 0.2667
H2A H 0.5851 0.0241 0.2604
H3A H 0.5548 -0.0748 0.3550
C5A C -0.4763(5) 0.3999(4) 0.1950(4)
C6A C -0.3153(5) 0.3988(7) 0.1910(5)
H4A H -0.3066 0.3196 0.1447
H5A H -0.3057 0.4774 0.1441
N1A N 0.3986(4) 0.3638(3) 0.5196(3)
H6A H 0.4239 0.4231 0.5788
H7A H 0.3006 0.3538 0.4697
N2A N 0.9099(4) 0.2449(4) 0.6307(4)
H8A H 0.9400 0.3093 0.6851
H9A H 0.9795 0.1927 0.6202
N3A N 0.6559(4) 0.3072(3) 0.5825(3)
N3A_2 N -0.3441(4) 0.3072(3) -0.4175(3)
N4A N 0.4626(4) 0.1996(3) 0.4122(3)
N5A N 0.7226(4) 0.1242(3) 0.4837(3)
O1A O -0.5035(3) 0.4843(3) 0.2618(3)
O1B O -0.0035(3) 0.5157(3) -0.2382(3)
O1C O -0.4965(3) 0.5157(3) -0.2618(3)
O3A O -0.5729(4) 0.3186(4) 0.1313(3)
O3A_2 O 0.4271(4) 0.3186(4) 0.1313(3)
O2 O 0.6206(5) 0.8782(3) 0.0459(4)
H10 H 0.6089 0.8222 -0.0107
H11 H 0.6655 0.9463 0.0325
loop_
_geom_bond_atom_site_label_1
_geom_bond_atom_site_label_2
_geom_bond_site_symmetry_1
_geom_bond_site_symmetry_2
Ag1 N4 1_555 1_555
Ag2 N3 1_555 1_555
C1 N1 1_555 1_555
C2 N2 1_555 1_555
C3 C4 1_555 1_555
C4 H1 1_555 1_555
H2 C4 1_555 1_555
H3 C4 1_555 1_555
C5 C6 1_555 1_555
C6 H4 1_555 1_555
H5 C6 1_555 1_555
N1 H6 1_555 1_555
H7 N1 1_555 1_555
N2 H8 1_555 1_555
H9 N2 1_555 1_555
N3 C1 1_555 1_555
N4 C1 1_555 1_555
N5 C2 1_555 1_555
O1 C5 1_555 1_555
O2 H10 1_555 1_555
H11 O2 1_555 1_555
O3 Ag1 1_555 1_555
Ag1B Ag2 1_555 1_555
Ag1_2 Ag2B_2 1_555 1_555
Ag2B Ag1 1_555 1_555
Ag2B_2 O1A 1_555 1_555
Ag2_2 N3A 1_555 1_555
C1A N1A 1_555 1_555
C2A N2A 1_555 1_555
C3A C4A 1_555 1_555
C4A H1A 1_555 1_555
H2A C4A 1_555 1_555
H3A C4A 1_555 1_555
C5A C6A 1_555 1_555
C6A C6 1_555 1_555
H4A C6A 1_555 1_555
H5A C6A 1_555 1_555
N1A H6A 1_555 1_555
H7A N1A 1_555 1_555
N2A H8A 1_555 1_555
H9A N2A 1_555 1_555
N3A C1A 1_555 1_555
N3A_2 Ag2 1_555 1_555
N4A Ag1 1_555 1_555
N5A C2A 1_555 1_555
O1A C5A 1_555 1_555
O1B Ag2 1_555 1_555
O1C Ag2 1_555 1_555
O3A Ag1_2 1_555 1_555
O3A_2 Ag1 1_555 1_555
C2 N3 1_555 1_555
C3 N4 1_555 1_555
C3 N5 1_555 1_555
C5 O3 1_555 1_555
O1 Ag2B 1_555 1_555
C1A N4A 1_555 1_555
C2A N3A 1_555 1_555
C3A N4A 1_555 1_555
C3A N5A 1_555 1_555
C5A O3A 1_555 1_555

#END
