
#######################################################################
#
#                 Cambridge Crystallographic Data Centre
#                                CCDC 
#
#######################################################################
#
# If this CIF has been generated from an entry in the Cambridge 
# Structural Database, then it will include bibliographic, chemical, 
# crystal, experimental, refinement or atomic coordinate data resulting 
# from the CCDC's data processing and validation procedures.
#
#######################################################################

data_EBOMOZ
_symmetry_cell_setting           cubic
_symmetry_space_group_name_H-M   'P 21 3'
_symmetry_Int_Tables_number      198
_space_group_name_Hall           'P 2ac 2ab 3'
loop_
_symmetry_equiv_pos_site_id
_symmetry_equiv_pos_as_xyz
1 x,y,z
2 1/2-x,-y,1/2+z
3 -x,1/2+y,1/2-z
4 1/2+x,1/2-y,-z
5 z,x,y
6 1/2+z,1/2-x,-y
7 1/2-z,-x,1/2+y
8 -z,1/2+x,1/2-y
9 y,z,x
10 -y,1/2+z,1/2-x
11 1/2+y,1/2-z,-x
12 1/2-y,-z,1/2+x
_cell_length_a                   17.01460(10)
_cell_length_b                   17.01460(10)
_cell_length_c                   17.01460(10)
_cell_angle_alpha                90
_cell_angle_beta                 90
_cell_angle_gamma                90
_cell_volume                     4925.67
loop_
_atom_site_label
_atom_site_type_symbol
_atom_site_fract_x
_atom_site_fract_y
_atom_site_fract_z
Cd1 Cd 0.41467(3) -1.16172(3) -0.90948(3)
Na1 Na -0.00496(13) -0.99504(13) -0.49504(13)
Cl1 Cl 0.31213(9) -1.31213(9) -0.81213(9)
O1 O 0.4952(4) -1.2035(3) -0.7903(4)
H1 H 0.5364 -1.2393 -0.7918
O2 O 0.1647(4) -0.8281(4) -0.5302(3)
O3 O 0.1205(3) -0.9420(3) -0.4967(3)
O4 O 0.3356(2) -1.2697(3) -0.8848(3)
O5 O 0.5281(3) -0.9929(3) -0.7521(3)
O6 O 0.4898(3) -1.0439(3) -0.8631(3)
O7 O 0.2619(3) -1.2619(3) -0.7619(3)
N1 N 0.3608(3) -1.1084(3) -0.7960(3)
H2 H 0.3295 -1.1430 -0.7660
C1 C 0.3094(5) -1.0422(5) -0.8132(5)
H3 H 0.2682 -1.0598 -0.8485
H4 H 0.3396 -1.0023 -0.8404
C2 C 0.4676(5) -1.1632(5) -0.7185(5)
H5 H 0.5117 -1.1504 -0.6846
H6 H 0.4314 -1.1964 -0.6896
C3 C 0.4270(3) -1.0894(4) -0.7460(3)
H7 H 0.4078 -1.0605 -0.7000
C4 C 0.1590(4) -0.9009(5) -0.5404(4)
C5 C 0.4844(4) -1.0374(4) -0.7906(4)
C6 C 0.2714(4) -1.0052(4) -0.7413(4)
C7 C 0.2293(5) -1.0505(5) -0.6880(5)
H8 H 0.2264 -1.1047 -0.6944
C8 C 0.2806(4) -0.9223(5) -0.7265(4)
H9 H 0.3116 -0.8921 -0.7599
C9 C 0.1917(5) -1.0146(5) -0.6252(5)
H10 H 0.1607 -1.0445 -0.5916
C10 C 0.2438(5) -0.8874(4) -0.6636(5)
H11 H 0.2485 -0.8334 -0.6560
C11 C 0.2000(4) -0.9320(4) -0.6117(4)
Cd1I Cd 0.16172(3) -1.40948(3) -0.91467(3)
Cd1A Cd 0.08533(3) -0.83828(3) -0.40948(3)
Cd1E Cd 0.59052(3) -0.91467(3) -0.83828(3)
Cd1F Cd 0.40948(3) -1.41467(3) -0.66172(3)
Cd1H Cd -0.16172(3) -0.90948(3) -0.58533(3)
Cd1C Cd -0.08533(3) -1.33828(3) -1.09052(3)
Cd1_2 Cd 0.41467(3) -1.16172(3) 0.09052(3)
Cd1G Cd -0.09052(3) -1.08533(3) -0.33828(3)
Na1A Na 0.50496(13) -1.00496(13) -0.99504(13)
Na1B Na 0.00496(13) -1.49504(13) -1.00496(13)
Na1A_2 Na 0.50496(13) -1.00496(13) 0.00496(13)
O1I O 0.2035(3) -1.2903(4) -0.9952(4)
O1A O 0.0048(4) -0.7965(3) -0.2903(4)
H1I H 0.2393 -1.2918 -1.0364
H1A H -0.0364 -0.7607 -0.2918
O2I O -0.1719(4) -1.0302(3) -0.6647(4)
O2A O 0.3353(4) -1.1719(4) -0.0302(3)
O2A_2 O 0.3353(4) -1.1719(4) -1.0302(3)
O2H O 0.1719(4) -1.5302(3) -0.8353(4)
O3I O -0.0580(3) -0.9967(3) -0.6205(3)
O3A O 0.3795(3) -1.0580(3) 0.0033(3)
O3A_2 O 0.3795(3) -1.0580(3) -0.9967(3)
O3F O -0.0033(3) -1.1205(3) -0.4420(3)
O3H O 0.0580(3) -1.4967(3) -0.8795(3)
O4F O 0.3848(3) -1.3356(2) -0.7697(3)
O4I O 0.2697(3) -1.3848(3) -0.8356(2)
O4A O 0.1644(2) -0.7303(3) -0.3848(3)
O5I O -0.0071(3) -1.2521(3) -1.0281(3)
O5A O -0.0281(3) -1.0071(3) -0.2521(3)
O5K O 0.4929(3) -1.2479(3) -0.9719(3)
O5D O 0.2479(3) -1.4719(3) -0.9929(3)
O5H O 0.0071(3) -0.7521(3) -0.4719(3)
O6I O 0.0439(3) -1.3631(3) -0.9898(3)
O6A O 0.0102(3) -0.9561(3) -0.3631(3)
O6H O -0.0439(3) -0.8631(3) -0.5102(3)
O6G O -0.1369(3) -1.0102(3) -0.4561(3)
N1I N 0.1084(3) -1.2960(3) -0.8608(3)
N1A N 0.1392(3) -0.8916(3) -0.2960(3)
H2I H 0.1430 -1.2660 -0.8295
H2A H 0.1705 -0.8570 -0.2660
C1I C 0.0422(5) -1.3132(5) -0.8094(5)
C1A C 0.1906(5) -0.9578(5) -0.3132(5)
H3I H 0.0598 -1.3485 -0.7682
H3A H 0.2318 -0.9402 -0.3485
H4I H 0.0023 -1.3404 -0.8396
H4A H 0.1604 -0.9977 -0.3404
C2I C 0.1632(5) -1.2185(5) -0.9676(5)
C2A C 0.0324(5) -0.8368(5) -0.2185(5)
H5I H 0.1504 -1.1846 -1.0117
H5A H -0.0117 -0.8496 -0.1846
H6I H 0.1964 -1.1896 -0.9314
H6A H 0.0686 -0.8036 -0.1896
C3I C 0.0894(4) -1.2460(3) -0.9270(3)
C3A C 0.0730(3) -0.9106(4) -0.2460(3)
H7I H 0.0605 -1.2000 -0.9078
H7A H 0.0922 -0.9395 -0.2000
C4I C -0.0991(5) -1.0404(4) -0.6590(4)
C4A C 0.3410(4) -1.0991(5) -0.0404(4)
C5I C 0.0374(4) -1.2906(4) -0.9844(4)
C5A C 0.0156(4) -0.9626(4) -0.2906(4)
C6I C 0.0052(4) -1.2413(4) -0.7714(4)
C6A C 0.2286(4) -0.9948(4) -0.2413(4)
C7I C 0.0505(5) -1.1880(5) -0.7293(5)
C7A C 0.2707(5) -0.9495(5) -0.1880(5)
H8I H 0.1047 -1.1944 -0.7264
H8A H 0.2736 -0.8953 -0.1944
C8I C -0.0777(5) -1.2265(4) -0.7806(4)
C8A C 0.2194(4) -1.0777(5) -0.2265(4)
H9I H -0.1079 -1.2599 -0.8116
H9A H 0.1884 -1.1079 -0.2599
C9I C 0.0146(5) -1.1252(5) -0.6917(5)
C9A C 0.3083(5) -0.9854(5) -0.1252(5)
H10I H 0.0445 -1.0916 -0.6607
H10A H 0.3393 -0.9555 -0.0916
C10I C -0.1126(4) -1.1636(5) -0.7438(5)
C10A C 0.2562(5) -1.1126(4) -0.1636(5)
H11I H -0.1666 -1.1560 -0.7485
H11A H 0.2515 -1.1666 -0.1560
C11I C -0.0680(4) -1.1117(4) -0.7000(4)
C11A C 0.3000(4) -1.0680(4) -0.1117(4)
loop_
_geom_bond_atom_site_label_1
_geom_bond_atom_site_label_2
_geom_bond_site_symmetry_1
_geom_bond_site_symmetry_2
Cd1 O1 1_555 1_555
Na1 O3 1_555 1_555
Cl1 O4 1_555 1_555
O1 H1 1_555 1_555
O2 C4 1_555 1_555
O3 C4 1_555 1_555
O4 Cd1 1_555 1_555
O5 C5 1_555 1_555
O6 Cd1 1_555 1_555
O7 Cl1 1_555 1_555
N1 Cd1 1_555 1_555
H2 N1 1_555 1_555
C1 N1 1_555 1_555
H3 C1 1_555 1_555
H4 C1 1_555 1_555
C2 O1 1_555 1_555
H5 C2 1_555 1_555
H6 C2 1_555 1_555
C3 N1 1_555 1_555
H7 C3 1_555 1_555
C4 C11 1_555 1_555
C5 O6 1_555 1_555
C6 C1 1_555 1_555
C7 C6 1_555 1_555
H8 C7 1_555 1_555
C8 C6 1_555 1_555
H9 C8 1_555 1_555
C9 C7 1_555 1_555
H10 C9 1_555 1_555
C10 C8 1_555 1_555
H11 C10 1_555 1_555
C11 C9 1_555 1_555
Cd1I O1I 1_555 1_555
Cd1A O2 1_555 1_555
Cd1E O5 1_555 1_555
Cd1F O4F 1_555 1_555
Cd1H O2I 1_555 1_555
Cd1C O5I 1_555 1_555
Cd1_2 O2A 1_555 1_555
Cd1G O3F 1_555 1_555
Na1A O6 1_555 1_555
Na1B O3H 1_555 1_555
Na1A_2 O3A 1_555 1_555
O1I H1I 1_555 1_555
O1A Cd1A 1_555 1_555
H1A O1A 1_555 1_555
O2I C4I 1_555 1_555
O2A C4A 1_555 1_555
O2A_2 Cd1 1_555 1_555
O2H Cd1I 1_555 1_555
O3I Na1 1_555 1_555
O3A Cd1_2 1_555 1_555
O3A_2 Cd1 1_555 1_555
O3F Na1 1_555 1_555
O3H Cd1I 1_555 1_555
O4F Cl1 1_555 1_555
O4I Cl1 1_555 1_555
O4A Cd1A 1_555 1_555
O5I C5I 1_555 1_555
O5A Cd1G 1_555 1_555
O5K Cd1 1_555 1_555
O5D Cd1I 1_555 1_555
O5H Cd1A 1_555 1_555
O6I Cd1I 1_555 1_555
O6A Na1 1_555 1_555
O6H Na1 1_555 1_555
O6G Na1 1_555 1_555
N1I Cd1I 1_555 1_555
N1A Cd1A 1_555 1_555
H2I N1I 1_555 1_555
H2A N1A 1_555 1_555
C1I N1I 1_555 1_555
C1A N1A 1_555 1_555
H3I C1I 1_555 1_555
H3A C1A 1_555 1_555
H4I C1I 1_555 1_555
H4A C1A 1_555 1_555
C2I O1I 1_555 1_555
C2A O1A 1_555 1_555
H5I C2I 1_555 1_555
H5A C2A 1_555 1_555
H6I C2I 1_555 1_555
H6A C2A 1_555 1_555
C3I N1I 1_555 1_555
C3A N1A 1_555 1_555
H7I C3I 1_555 1_555
H7A C3A 1_555 1_555
C4I O3I 1_555 1_555
C4A O3A 1_555 1_555
C5I O6I 1_555 1_555
C5A O5A 1_555 1_555
C6I C1I 1_555 1_555
C6A C1A 1_555 1_555
C7I C6I 1_555 1_555
C7A C6A 1_555 1_555
H8I C7I 1_555 1_555
H8A C7A 1_555 1_555
C8I C6I 1_555 1_555
C8A C6A 1_555 1_555
H9I C8I 1_555 1_555
H9A C8A 1_555 1_555
C9I C7I 1_555 1_555
C9A C7A 1_555 1_555
H10I C9I 1_555 1_555
H10A C9A 1_555 1_555
C10I C8I 1_555 1_555
C10A C8A 1_555 1_555
H11I C10I 1_555 1_555
H11A C10A 1_555 1_555
C11I C4I 1_555 1_555
C11A C4A 1_555 1_555
O3 Cd1A 1_555 1_555
C2 C3 1_555 1_555
C3 C5 1_555 1_555
C10 C11 1_555 1_555
Cd1I O4I 1_555 1_555
Cd1A O6A 1_555 1_555
Cd1H O3I 1_555 1_555
Cd1H O6H 1_555 1_555
Cd1G O6G 1_555 1_555
Na1A O3A_2 1_555 1_555
Na1B O6I 1_555 1_555
O6A C5A 1_555 1_555
C2I C3I 1_555 1_555
C2A C3A 1_555 1_555
C3I C5I 1_555 1_555
C3A C5A 1_555 1_555
C9I C11I 1_555 1_555
C9A C11A 1_555 1_555
C10I C11I 1_555 1_555
C10A C11A 1_555 1_555

#END
