
#######################################################################
#
#                 Cambridge Crystallographic Data Centre
#                                CCDC 
#
#######################################################################
#
# If this CIF has been generated from an entry in the Cambridge 
# Structural Database, then it will include bibliographic, chemical, 
# crystal, experimental, refinement or atomic coordinate data resulting 
# from the CCDC's data processing and validation procedures.
#
#######################################################################

data_EBOMAL
_symmetry_cell_setting           orthorhombic
_symmetry_space_group_name_H-M   'P 21 21 21'
_symmetry_Int_Tables_number      19
_space_group_name_Hall           'P 2ac 2ab'
loop_
_symmetry_equiv_pos_site_id
_symmetry_equiv_pos_as_xyz
1 x,y,z
2 1/2-x,-y,1/2+z
3 -x,1/2+y,1/2-z
4 1/2+x,1/2-y,-z
_cell_length_a                   6.65340(10)
_cell_length_b                   18.9600(3)
_cell_length_c                   22.5591(3)
_cell_angle_alpha                90
_cell_angle_beta                 90
_cell_angle_gamma                90
_cell_volume                     2845.8
loop_
_atom_site_label
_atom_site_type_symbol
_atom_site_fract_x
_atom_site_fract_y
_atom_site_fract_z
Zn1 Zn 0.79778(7) 0.48997(2) 0.138155(16)
Zn2 Zn 1.29258(7) 0.50780(3) 0.092290(16)
O1 O 0.9241(6) 0.58481(19) 0.15018(16)
O2 O 1.2176(7) 0.60724(17) 0.10831(13)
O3 O 0.9520(4) 0.94600(15) 0.40105(11)
O4 O 0.7470(6) 0.8557(2) 0.40207(18)
O5 O 0.6300(5) 0.5174(2) 0.21031(11)
O6 O 0.3207(5) 0.4919(2) 0.18391(11)
O7 O -0.0947(4) 0.49270(16) 0.57465(9)
O8 O -0.3245(5) 0.4667(2) 0.50732(13)
N1 N 1.1872(6) 0.88444(17) 0.32295(14)
H1 H 1.3141 0.8676 0.3177
N2 N 0.2020(5) 0.48679(17) 0.49692(11)
H2 H 0.3088 0.4602 0.4854
C1 C 1.0700(8) 0.6232(2) 0.13986(18)
C2 C 1.0720(7) 0.6934(2) 0.17009(18)
C3 C 0.9047(8) 0.7177(3) 0.1993(2)
H3 H 0.7880 0.6907 0.1993
C4 C 0.9069(8) 0.7812(3) 0.2286(2)
H4 H 0.7917 0.7968 0.2479
C5 C 1.0777(8) 0.8217(2) 0.22969(18)
C6 C 1.2458(8) 0.7977(3) 0.2003(2)
H5 H 1.3626 0.8246 0.2005
C7 C 1.2429(7) 0.7342(3) 0.17070(19)
H6 H 1.3574 0.7188 0.1510
C8 C 1.0853(9) 0.8899(2) 0.26412(18)
H7 H 1.1548 0.9250 0.2405
H8 H 0.9489 0.9065 0.2703
C9 C 0.9089(8) 0.8812(2) 0.39106(17)
C10 C 1.0777(8) 0.8379(2) 0.36378(19)
H9 H 1.0180 0.7993 0.3408
C11 C 1.2212(11) 0.8059(3) 0.4098(2)
H10 H 1.3059 0.8441 0.4252
C12 C 1.1153(17) 0.7753(6) 0.4593(5)
H11 H 1.2104 0.7572 0.4874
H12 H 1.0311 0.7376 0.4455
H13 H 1.0337 0.8107 0.4779
C13 C 1.3582(12) 0.7518(4) 0.3807(4)
H14 H 1.4504 0.7336 0.4097
H15 H 1.4320 0.7738 0.3492
H16 H 1.2786 0.7140 0.3650
C14 C 0.4471(6) 0.5111(2) 0.22064(14)
C15 C 0.3818(7) 0.5262(2) 0.28334(15)
C16 C 0.1881(7) 0.5422(2) 0.29740(16)
H17 H 0.0920 0.5452 0.2676
C17 C 0.1324(7) 0.5542(2) 0.35606(17)
H18 H 0.0003 0.5662 0.3648
C18 C 0.2712(7) 0.5484(2) 0.40144(14)
C19 C 0.4667(7) 0.5334(3) 0.38637(18)
H19 H 0.5634 0.5303 0.4160
C20 C 0.5221(7) 0.5228(3) 0.32815(17)
H20 H 0.6558 0.5134 0.3190
C21 C 0.2182(8) 0.5558(2) 0.46625(14)
H21 H 0.3203 0.5840 0.4857
H22 H 0.0913 0.5806 0.4697
C22 C -0.1510(6) 0.4705(2) 0.52260(16)
C23 C 0.0194(6) 0.4479(2) 0.48115(15)
H23 H -0.0182 0.4615 0.4407
C24 C 0.2028(13) 0.3472(3) 0.4334(3)
H24 H 0.2256 0.2973 0.4345
H25 H 0.3274 0.3715 0.4399
H26 H 0.1493 0.3602 0.3954
C25 C 0.0534(10) 0.3675(3) 0.4818(2)
H27 H 0.1121 0.3548 0.5201
C26 C -0.1406(14) 0.3265(4) 0.4744(4)
H28 H -0.1124 0.2769 0.4755
H29 H -0.2011 0.3383 0.4371
H30 H -0.2312 0.3384 0.5060
Zn1B Zn 1.20222(7) 0.98997(2) 0.361845(16)
Zn1A Zn -0.29778(7) 0.51003(2) 0.638155(16)
Zn2B Zn 0.70742(7) 1.00780(3) 0.407710(16)
Zn2_2 Zn 0.29258(7) 0.50780(3) 0.092290(16)
Zn2A Zn 0.20742(7) 0.49220(3) 0.592290(16)
O3B O 1.0480(4) 0.44600(15) 0.09895(11)
O6_2 O 1.3207(5) 0.4919(2) 0.18391(11)
O7A O 0.5947(4) 0.50730(16) 0.07465(9)
O7A_2 O 1.5947(4) 0.50730(16) 0.07465(9)
N1B N 0.8128(6) 0.38444(17) 0.17705(14)
H1B H 0.6859 0.3676 0.1823
N2A N 1.2980(5) 0.51321(17) -0.00308(11)
H2A H 1.1912 0.5398 -0.0146
loop_
_geom_bond_atom_site_label_1
_geom_bond_atom_site_label_2
_geom_bond_site_symmetry_1
_geom_bond_site_symmetry_2
Zn1 O1 1_555 1_555
Zn2 O2 1_555 1_555
O1 C1 1_555 1_555
O2 C1 1_555 1_555
O3 C9 1_555 1_555
O4 C9 1_555 1_555
O5 Zn1 1_555 1_555
O6 C14 1_555 1_555
O7 C22 1_555 1_555
O8 C22 1_555 1_555
N1 H1 1_555 1_555
N2 H2 1_555 1_555
C1 C2 1_555 1_555
C2 C3 1_555 1_555
C3 H3 1_555 1_555
C4 C3 1_555 1_555
H4 C4 1_555 1_555
C5 C4 1_555 1_555
C6 C5 1_555 1_555
H5 C6 1_555 1_555
C7 C2 1_555 1_555
H6 C7 1_555 1_555
C8 N1 1_555 1_555
H7 C8 1_555 1_555
H8 C8 1_555 1_555
C9 C10 1_555 1_555
C10 N1 1_555 1_555
H9 C10 1_555 1_555
C11 C10 1_555 1_555
H10 C11 1_555 1_555
C12 C11 1_555 1_555
H11 C12 1_555 1_555
H12 C12 1_555 1_555
H13 C12 1_555 1_555
C13 C11 1_555 1_555
H14 C13 1_555 1_555
H15 C13 1_555 1_555
H16 C13 1_555 1_555
C14 O5 1_555 1_555
C15 C14 1_555 1_555
C16 C15 1_555 1_555
H17 C16 1_555 1_555
C17 C16 1_555 1_555
H18 C17 1_555 1_555
C18 C17 1_555 1_555
C19 C18 1_555 1_555
H19 C19 1_555 1_555
C20 C15 1_555 1_555
H20 C20 1_555 1_555
C21 N2 1_555 1_555
H21 C21 1_555 1_555
H22 C21 1_555 1_555
C22 C23 1_555 1_555
C23 N2 1_555 1_555
H23 C23 1_555 1_555
C24 H24 1_555 1_555
H25 C24 1_555 1_555
H26 C24 1_555 1_555
C25 C23 1_555 1_555
H27 C25 1_555 1_555
C26 C25 1_555 1_555
H28 C26 1_555 1_555
H29 C26 1_555 1_555
H30 C26 1_555 1_555
Zn1B O3 1_555 1_555
Zn1A O7 1_555 1_555
Zn2B O3 1_555 1_555
Zn2_2 O6 1_555 1_555
Zn2A O7 1_555 1_555
O3B Zn1 1_555 1_555
O6_2 Zn2 1_555 1_555
O7A Zn1 1_555 1_555
O7A_2 Zn2 1_555 1_555
N1B Zn1 1_555 1_555
H1B N1B 1_555 1_555
N2A Zn2 1_555 1_555
H2A N2A 1_555 1_555
Zn2 O3B 1_555 1_555
N1 Zn1B 1_555 1_555
N2 Zn2A 1_555 1_555
C5 C8 1_555 1_555
C6 C7 1_555 1_555
C18 C21 1_555 1_555
C19 C20 1_555 1_555
C24 C25 1_555 1_555
Zn2_2 O7A 1_555 1_555

#END
