
#######################################################################
#
#                 Cambridge Crystallographic Data Centre
#                                CCDC 
#
#######################################################################
#
# If this CIF has been generated from an entry in the Cambridge 
# Structural Database, then it will include bibliographic, chemical, 
# crystal, experimental, refinement or atomic coordinate data resulting 
# from the CCDC's data processing and validation procedures.
#
#######################################################################

data_EBONEQ
_symmetry_cell_setting           triclinic
_symmetry_space_group_name_H-M   'P -1'
_symmetry_Int_Tables_number      2
_space_group_name_Hall           '-P 1'
loop_
_symmetry_equiv_pos_site_id
_symmetry_equiv_pos_as_xyz
1 x,y,z
2 -x,-y,-z
_cell_length_a                   7.127(3)
_cell_length_b                   11.788(5)
_cell_length_c                   12.716(5)
_cell_angle_alpha                62.542(7)
_cell_angle_beta                 74.618(7)
_cell_angle_gamma                75.193(9)
_cell_volume                     902.852
loop_
_atom_site_label
_atom_site_type_symbol
_atom_site_fract_x
_atom_site_fract_y
_atom_site_fract_z
Ag1 Ag 1.03383(6) 0.45732(4) 0.67808(4)
Ag2 Ag 1.26187(6) 0.59501(4) 0.44314(3)
C1 C 1.0435(7) 0.2363(5) 0.9568(5)
C2 C 0.9175(7) 0.2582(5) 1.1305(4)
C3 C 0.8495(7) 0.4229(5) 0.9553(5)
C4 C 0.9013(9) 0.2055(5) 1.2615(4)
H1 H 0.9249 0.2703 1.2826
H2 H 0.9993 0.1275 1.2889
H3 H 0.7690 0.1836 1.3004
C5 C 1.2931(7) 0.8248(5) 0.1669(4)
C6 C 1.4520(7) 0.8110(5) -0.0064(5)
C7 C 1.4881(7) 0.6368(5) 0.1692(4)
C8 C 1.4935(8) 0.8718(5) -0.1401(4)
H4 H 1.5423 0.8042 -0.1695
H5 H 1.3722 0.9233 -0.1708
H6 H 1.5933 0.9280 -0.1681
C9 C 0.9187(7) 0.7531(5) 0.5496(5)
C10 C 0.7798(8) 0.8779(5) 0.5292(5)
H7 H 0.8535 0.9460 0.5144
H8 H 0.6786 0.8668 0.6022
C11 C 0.6788(7) 0.9204(5) 0.4214(4)
H9 H 0.6026 1.0082 0.4040
H10 H 0.7814 0.9258 0.3501
C12 C 0.5420(7) 0.8311(5) 0.4402(5)
H11 H 0.4532 0.8141 0.5186
H12 H 0.4593 0.8754 0.3766
C13 C 0.6466(8) 0.7036(5) 0.4381(4)
N1 N 0.9613(6) 0.3578(4) 0.8903(4)
N2 N 1.0251(6) 0.1814(4) 1.0782(4)
N3 N 0.8248(6) 0.3769(4) 1.0757(4)
N4 N 1.1540(6) 0.1650(4) 0.9004(4)
H13 H 1.1724 0.1971 0.8214
H14 H 1.2089 0.0857 0.9420
N5 N 0.7577(6) 0.5405(4) 0.8975(4)
H15 H 0.6845 0.5849 0.9377
H16 H 0.7697 0.5745 0.8186
N6 N 1.3659(6) 0.6996(4) 0.2332(4)
N7 N 1.3342(6) 0.8840(4) 0.0463(4)
N8 N 1.5335(6) 0.6892(4) 0.0489(4)
N9 N 1.5717(7) 0.5169(4) 0.2277(4)
H17 H 1.6534 0.4747 0.1875
H18 H 1.5457 0.4790 0.3067
N10 N 1.1781(6) 0.8945(4) 0.2230(4)
H19 H 1.1319 0.9761 0.1814
H20 H 1.1476 0.8594 0.3020
O1 O 1.0853(5) 0.7593(3) 0.4834(3)
O2 O 0.8584(5) 0.6516(3) 0.6310(3)
O3 O 0.8007(5) 0.7069(3) 0.3622(3)
O4 O 0.5713(5) 0.6045(3) 0.5110(3)
Ag1A Ag 0.96617(6) 0.54268(4) 0.32192(4)
Ag2A Ag 0.73813(6) 0.40499(4) 0.55686(3)
Ag2_2 Ag 0.26187(6) 0.59501(4) 0.44314(3)
O3A O 1.1993(5) 0.2931(3) 0.6378(3)
O4A O 1.4287(5) 0.3955(3) 0.4890(3)
O4_2 O 1.5713(5) 0.6045(3) 0.5110(3)
loop_
_geom_bond_atom_site_label_1
_geom_bond_atom_site_label_2
_geom_bond_site_symmetry_1
_geom_bond_site_symmetry_2
Ag1 Ag2 1_555 1_555
Ag2 N6 1_555 1_555
C1 N1 1_555 1_555
C2 C4 1_555 1_555
C3 N1 1_555 1_555
C4 H1 1_555 1_555
H2 C4 1_555 1_555
H3 C4 1_555 1_555
C5 N6 1_555 1_555
C6 C8 1_555 1_555
C7 N6 1_555 1_555
C8 H4 1_555 1_555
H5 C8 1_555 1_555
H6 C8 1_555 1_555
C9 C10 1_555 1_555
C10 H7 1_555 1_555
H8 C10 1_555 1_555
C11 C10 1_555 1_555
H9 C11 1_555 1_555
H10 C11 1_555 1_555
C12 C11 1_555 1_555
H11 C12 1_555 1_555
H12 C12 1_555 1_555
C13 C12 1_555 1_555
N1 Ag1 1_555 1_555
N2 C1 1_555 1_555
N3 C2 1_555 1_555
N4 C1 1_555 1_555
H13 N4 1_555 1_555
H14 N4 1_555 1_555
N5 C3 1_555 1_555
H15 N5 1_555 1_555
H16 N5 1_555 1_555
N7 C5 1_555 1_555
N8 C6 1_555 1_555
N9 C7 1_555 1_555
H17 N9 1_555 1_555
H18 N9 1_555 1_555
N10 C5 1_555 1_555
H19 N10 1_555 1_555
H20 N10 1_555 1_555
O1 Ag2 1_555 1_555
O2 Ag1 1_555 1_555
O3 C13 1_555 1_555
O4 C13 1_555 1_555
Ag1A Ag2 1_555 1_555
Ag2A Ag1 1_555 1_555
Ag2_2 O4 1_555 1_555
O3A Ag1 1_555 1_555
O4A Ag2 1_555 1_555
O4_2 Ag2 1_555 1_555
C2 N2 1_555 1_555
C3 N3 1_555 1_555
C6 N7 1_555 1_555
C7 N8 1_555 1_555
C9 O1 1_555 1_555
C9 O2 1_555 1_555
O3 Ag1A 1_555 1_555
O4 Ag2A 1_555 1_555
Ag1A Ag2A 1_555 1_555

#END
