
#######################################################################
#
#                 Cambridge Crystallographic Data Centre
#                                CCDC 
#
#######################################################################
#
# If this CIF has been generated from an entry in the Cambridge 
# Structural Database, then it will include bibliographic, chemical, 
# crystal, experimental, refinement or atomic coordinate data resulting 
# from the CCDC's data processing and validation procedures.
#
#######################################################################

data_EBONOA
_symmetry_cell_setting           monoclinic
_symmetry_space_group_name_H-M   'P 21/c'
_symmetry_Int_Tables_number      14
_space_group_name_Hall           '-P 2ybc'
loop_
_symmetry_equiv_pos_site_id
_symmetry_equiv_pos_as_xyz
1 x,y,z
2 -x,1/2+y,1/2-z
3 -x,-y,-z
4 x,1/2-y,1/2+z
_cell_length_a                   10.551(7)
_cell_length_b                   8.536(6)
_cell_length_c                   12.311(8)
_cell_angle_alpha                90
_cell_angle_beta                 115.375(3)
_cell_angle_gamma                90
_cell_volume                     1001.8
loop_
_atom_site_label
_atom_site_type_symbol
_atom_site_fract_x
_atom_site_fract_y
_atom_site_fract_z
Ag1 Ag 1.06682(4) 0.68809(6) 0.62016(4)
C1 C 1.2779(5) 0.5698(6) 0.8861(4)
C2 C 1.2567(5) 0.5903(7) 1.0572(5)
C3 C 1.3134(6) 0.5591(9) 1.1868(5)
H1 H 1.3467 0.4507 1.2028
H2 H 1.2396 0.5752 1.2141
H3 H 1.3915 0.6307 1.2301
C4 C 1.0816(5) 0.6797(6) 0.8849(5)
C5 C 0.7582(5) 0.6040(7) 0.4964(5)
C6 C 0.5612(5) 0.4154(7) 0.4422(5)
H4 H 0.6036 0.3548 0.4020
C7 C 0.6230(5) 0.5524(6) 0.4964(4)
C8 C 0.5613(6) 0.6374(7) 0.5556(5)
H5 H 0.6030 0.7324 0.5950
N1 N 1.1491(4) 0.6321(5) 0.8198(3)
N2 N 1.3343(4) 0.5455(6) 1.0034(4)
N3 N 1.3553(4) 0.5316(6) 0.8296(4)
H6 H 1.4398 0.4923 0.8701
H7 H 1.3225 0.5455 0.7514
N4 N 1.1341(4) 0.6655(5) 1.0050(4)
N5 N 0.9575(4) 0.7488(6) 0.8280(4)
H8 H 0.9217 0.7624 0.7496
H9 H 0.9113 0.7811 0.8687
O1 O 0.8297(4) 0.7010(6) 0.5755(4)
O2 O 0.7936(4) 0.5540(5) 0.4206(4)
Ag1C Ag 1.06682(4) 0.81191(6) 0.12016(4)
Ag1C_2 Ag 1.06682(4) 0.81191(6) 1.12016(4)
Ag1B Ag 0.93318(4) 0.31191(6) 0.37984(4)
Ag1B_2 Ag -0.06682(4) 0.31191(6) 0.37984(4)
Ag1_2 Ag 0.06682(4) 0.68809(6) 0.62016(4)
C1C C 1.2779(5) 0.9302(6) 0.3861(4)
C2C C 1.2567(5) 0.9097(7) 0.5572(5)
C3C C 1.3134(6) 0.9409(9) 0.6868(5)
H1C H 1.3467 1.0493 0.7028
H2C H 1.2396 0.9248 0.7141
H3C H 1.3915 0.8693 0.7301
C4C C 1.0816(5) 0.8203(6) 0.3849(5)
C5B C 0.2418(5) 0.3960(7) 0.5036(5)
C6B C 0.4388(5) 0.5846(7) 0.5578(5)
H4B H 0.3964 0.6452 0.5980
C7B C 0.3770(5) 0.4476(6) 0.5036(4)
C8B C 0.4387(6) 0.3626(7) 0.4444(5)
H5B H 0.3970 0.2676 0.4050
N1C N 1.1491(4) 0.8679(5) 0.3198(3)
N2C N 1.3343(4) 0.9545(6) 0.5034(4)
N3C N 1.3553(4) 0.9684(6) 0.3296(4)
H6C H 1.4398 1.0077 0.3701
H7C H 1.3225 0.9545 0.2514
N4C N 1.1341(4) 0.8345(5) 0.5050(4)
N4_2 N 1.1341(4) 0.6655(5) 0.0050(4)
N5C N 0.9575(4) 0.7512(6) 0.3280(4)
H8C H 0.9217 0.7376 0.2496
H9C H 0.9113 0.7189 0.3687
O1B O 0.1703(4) 0.2990(6) 0.4245(4)
O1C O 0.8297(4) 0.7990(6) 0.0755(4)
O2B O 0.2064(4) 0.4460(5) 0.5794(4)
O2B_2 O 1.2064(4) 0.4460(5) 0.5794(4)
O2A O 1.2064(4) 1.0540(5) 0.0794(4)
loop_
_geom_bond_atom_site_label_1
_geom_bond_atom_site_label_2
_geom_bond_site_symmetry_1
_geom_bond_site_symmetry_2
Ag1 N1 1_555 1_555
C1 N1 1_555 1_555
C2 C3 1_555 1_555
C3 H1 1_555 1_555
H2 C3 1_555 1_555
H3 C3 1_555 1_555
C4 N1 1_555 1_555
C5 C7 1_555 1_555
C6 H4 1_555 1_555
C7 C6 1_555 1_555
C8 C7 1_555 1_555
H5 C8 1_555 1_555
N2 C1 1_555 1_555
N3 C1 1_555 1_555
H6 N3 1_555 1_555
H7 N3 1_555 1_555
N4 C2 1_555 1_555
N5 C4 1_555 1_555
H8 N5 1_555 1_555
H9 N5 1_555 1_555
O1 Ag1 1_555 1_555
O2 C5 1_555 1_555
Ag1C N1C 1_555 1_555
Ag1C_2 N4 1_555 1_555
Ag1B O2 1_555 1_555
Ag1B_2 O1B 1_555 1_555
Ag1_2 O2B 1_555 1_555
C1C N1C 1_555 1_555
C2C C3C 1_555 1_555
C3C H1C 1_555 1_555
H2C C3C 1_555 1_555
H3C C3C 1_555 1_555
C4C N1C 1_555 1_555
C5B C7B 1_555 1_555
C6B C8 1_555 1_555
H4B C6B 1_555 1_555
C7B C6B 1_555 1_555
C8B C6 1_555 1_555
H5B C8B 1_555 1_555
N2C C1C 1_555 1_555
N3C C1C 1_555 1_555
H6C N3C 1_555 1_555
H7C N3C 1_555 1_555
N4C Ag1 1_555 1_555
N4_2 Ag1C 1_555 1_555
N5C C4C 1_555 1_555
H8C N5C 1_555 1_555
H9C N5C 1_555 1_555
O1B C5B 1_555 1_555
O1C Ag1C 1_555 1_555
O2B C5B 1_555 1_555
O2B_2 Ag1 1_555 1_555
O2A Ag1C 1_555 1_555
C2 N2 1_555 1_555
C4 N4 1_555 1_555
C5 O1 1_555 1_555
C2C N2C 1_555 1_555
C2C N4C 1_555 1_555
C4C N4C 1_555 1_555
C7B C8B 1_555 1_555

#END
