
#######################################################################
#
#                 Cambridge Crystallographic Data Centre
#                                CCDC 
#
#######################################################################
#
# If this CIF has been generated from an entry in the Cambridge 
# Structural Database, then it will include bibliographic, chemical, 
# crystal, experimental, refinement or atomic coordinate data resulting 
# from the CCDC's data processing and validation procedures.
#
#######################################################################

data_EBOPAO
_symmetry_cell_setting           triclinic
_symmetry_space_group_name_H-M   'P -1'
_symmetry_Int_Tables_number      2
_space_group_name_Hall           '-P 1'
loop_
_symmetry_equiv_pos_site_id
_symmetry_equiv_pos_as_xyz
1 x,y,z
2 -x,-y,-z
_cell_length_a                   5.0680(3)
_cell_length_b                   11.0147(7)
_cell_length_c                   20.8655(13)
_cell_angle_alpha                81.306(3)
_cell_angle_beta                 89.114(3)
_cell_angle_gamma                80.325(3)
_cell_volume                     1134.95
loop_
_atom_site_label
_atom_site_type_symbol
_atom_site_fract_x
_atom_site_fract_y
_atom_site_fract_z
Cu1 Cu 1.20478(8) 1.01674(4) 0.254405(18)
S1 S 1.28094(17) 1.01598(8) 0.40772(4)
N1 N 1.6770(5) 1.0220(3) 0.18822(14)
O1 O 1.1315(5) 1.2640(3) 0.44840(12)
O2 O 1.3254(5) 0.7571(3) 0.47624(12)
O3 O 1.1133(5) 1.0138(2) 0.34805(11)
O7 O 1.1545(6) 1.1947(3) 0.24043(13)
H1 H 1.028(11) 1.230(5) 0.245(3)
H2 H 1.251(15) 1.237(7) 0.203(4)
O8 O 1.2352(7) 0.8395(3) 0.25932(14)
H3 H 1.365(12) 0.799(5) 0.265(3)
H4 H 1.118(12) 0.802(5) 0.272(3)
O10 O 1.4344(4) 1.0155(2) 0.17526(11)
O11 O 1.7369(5) 1.0257(2) 0.24625(11)
O12 O 1.8418(5) 1.0249(3) 0.14484(13)
C1 C 0.9201(8) 1.3635(3) 0.4499(2)
H7 H 0.7849 1.3628 0.4163
H8 H 0.9879 1.4436 0.4410
C2 C 1.2583(8) 1.2654(4) 0.38759(17)
H9 H 1.3524 1.3379 0.3786
H10 H 1.1237 1.2719 0.3528
C3 C 1.4545(8) 1.1465(4) 0.38975(17)
H11 H 1.5926 1.1420 0.4235
H12 H 1.5448 1.1444 0.3474
C4 C 1.5623(7) 0.8930(4) 0.40842(17)
H13 H 1.6602 0.9043 0.3671
H14 H 1.6864 0.8952 0.4443
C5 C 1.4662(8) 0.7698(4) 0.41722(18)
H15 H 1.3472 0.7662 0.3806
H16 H 1.6205 0.7012 0.4183
C6 C 0.7962(8) 1.3503(3) 0.5154(2)
H17 H 0.6606 1.4248 0.5192
H18 H 0.9350 1.3428 0.5493
Cu1A Cu 0.79522(8) 0.98326(4) 0.745595(18)
Cu1_2 Cu 2.20478(8) 1.01674(4) 0.254405(18)
Cu1_3 Cu 0.20478(8) 1.01674(4) 0.254405(18)
S1A S 0.71906(17) 0.98402(8) 0.59228(4)
N1_2 N 0.6770(5) 1.0220(3) 0.18822(14)
O1A O 0.8685(5) 0.7360(3) 0.55160(12)
O2A O 0.6746(5) 1.2429(3) 0.52376(12)
O3A O 0.8867(5) 0.9862(2) 0.65195(11)
O7A O 0.8455(6) 0.8053(3) 0.75957(13)
H1A H 0.972(11) 0.770(5) 0.755(3)
H2A H 0.749(15) 0.763(7) 0.797(4)
O8A O 0.7648(7) 1.1605(3) 0.74068(14)
H3A H 0.635(12) 1.201(5) 0.735(3)
H4A H 0.882(12) 1.198(5) 0.728(3)
O10_2 O 0.4344(4) 1.0155(2) 0.17526(11)
O10A O 0.5656(4) 0.9845(2) 0.82474(11)
O11_2 O 0.7369(5) 1.0257(2) 0.24625(11)
O11A O 1.2631(5) 0.9743(2) 0.75375(11)
O12_2 O 0.8418(5) 1.0249(3) 0.14484(13)
C1A C 1.0799(8) 0.6365(3) 0.5501(2)
H7A H 1.2151 0.6372 0.5837
H8A H 1.0121 0.5564 0.5590
C2A C 0.7417(8) 0.7346(4) 0.61241(17)
H9A H 0.6476 0.6621 0.6214
H10A H 0.8763 0.7281 0.6472
C3A C 0.5455(8) 0.8535(4) 0.61025(17)
H11A H 0.4074 0.8580 0.5765
H12A H 0.4552 0.8556 0.6526
C4A C 0.4377(7) 1.1070(4) 0.59158(17)
H13A H 0.3398 1.0957 0.6329
H14A H 0.3136 1.1048 0.5557
C5A C 0.5338(8) 1.2302(4) 0.58278(18)
H15A H 0.6528 1.2338 0.6194
H16A H 0.3795 1.2988 0.5817
C6A C 1.2038(8) 0.6497(3) 0.4846(2)
H17A H 1.3394 0.5752 0.4808
H18A H 1.0650 0.6572 0.4507
S2 S 1.24499(18) 1.40217(8) 0.08848(4)
O4 O 1.3315(5) 1.2510(2) -0.01948(12)
O5 O 1.7597(6) 1.3260(2) -0.08790(12)
O6 O 1.3965(5) 1.3272(2) 0.14781(12)
C7 C 0.9900(8) 1.5129(3) 0.11839(18)
H19 H 0.8584 1.5506 0.0834
H20 H 0.8945 1.4702 0.1545
C8 C 1.0337(8) 1.3014(4) 0.06330(18)
H21 H 0.9332 1.2670 0.1009
H22 H 0.9030 1.3492 0.0302
C9 C 1.2047(8) 1.1973(4) 0.03566(17)
H23 H 1.3400 1.1510 0.0681
H24 H 1.0929 1.1387 0.0235
C10 C 1.5213(8) 1.1643(3) -0.04582(19)
H25 H 1.4343 1.0965 -0.0575
H26 H 1.6635 1.1271 -0.0133
C11 C 1.6415(8) 1.2277(4) -0.1048(2)
H27 H 1.7787 1.1672 -0.1228
H28 H 1.5010 1.2609 -0.1383
C12 C 1.1137(9) 1.6128(4) 0.14170(18)
H29 H 1.2467 1.5758 0.1765
H30 H 0.9743 1.6729 0.1593
S2A S 1.75501(18) 1.59783(8) -0.08848(4)
O4A O 1.6685(5) 1.7490(2) 0.01948(12)
O5A O 1.2403(6) 1.6740(2) 0.08790(12)
O6A O 1.6035(5) 1.6728(2) -0.14781(12)
C7A C 2.0100(8) 1.4871(3) -0.11839(18)
H19A H 2.1416 1.4494 -0.0834
H20A H 2.1055 1.5298 -0.1545
C8A C 1.9663(8) 1.6986(4) -0.06330(18)
H21A H 2.0668 1.7330 -0.1009
H22A H 2.0970 1.6508 -0.0302
C9A C 1.7953(8) 1.8027(4) -0.03566(17)
H23A H 1.6600 1.8490 -0.0681
H24A H 1.9071 1.8613 -0.0235
C10A C 1.4787(8) 1.8357(3) 0.04582(19)
H25A H 1.5657 1.9035 0.0575
H26A H 1.3365 1.8729 0.0133
C11A C 1.3585(8) 1.7723(4) 0.1048(2)
H27A H 1.2213 1.8328 0.1228
H28A H 1.4990 1.7391 0.1383
C12A C 1.8863(9) 1.3872(4) -0.14170(18)
H29A H 1.7533 1.4242 -0.1765
H30A H 2.0257 1.3271 -0.1593
N2 N 0.8065(7) 0.6291(3) 0.29123(16)
O13 O 1.0119(7) 0.5630(4) 0.3098(2)
O14 O 0.6073(8) 0.5843(4) 0.2800(3)
O15 O 0.7834(7) 0.7451(3) 0.28179(18)
O9 O 0.6970(6) 1.3353(3) 0.26034(17)
H5 H 0.608(11) 1.344(5) 0.230(3)
H6 H 0.692(10) 1.399(5) 0.269(2)
loop_
_geom_bond_atom_site_label_1
_geom_bond_atom_site_label_2
_geom_bond_site_symmetry_1
_geom_bond_site_symmetry_2
Cu1 O3 1_555 1_555
S1 O3 1_555 1_555
S2 O6 1_555 1_555
N1 O10 1_555 1_555
N2 O13 1_555 1_555
O1 C1 1_555 1_555
O2 C5 1_555 1_555
O4 C9 1_555 1_555
O5 C11 1_555 1_555
O7 Cu1 1_555 1_555
H1 O7 1_555 1_555
H2 O7 1_555 1_555
O8 Cu1 1_555 1_555
H3 O8 1_555 1_555
H4 O8 1_555 1_555
O9 H5 1_555 1_555
H6 O9 1_555 1_555
O10 Cu1 1_555 1_555
O11 N1 1_555 1_555
O12 N1 1_555 1_555
O14 N2 1_555 1_555
O15 N2 1_555 1_555
C1 H7 1_555 1_555
H8 C1 1_555 1_555
C2 O1 1_555 1_555
H9 C2 1_555 1_555
H10 C2 1_555 1_555
C3 S1 1_555 1_555
H11 C3 1_555 1_555
H12 C3 1_555 1_555
C4 S1 1_555 1_555
H13 C4 1_555 1_555
H14 C4 1_555 1_555
C5 C4 1_555 1_555
H15 C5 1_555 1_555
H16 C5 1_555 1_555
C6 C1 1_555 1_555
H17 C6 1_555 1_555
H18 C6 1_555 1_555
C7 S2 1_555 1_555
H19 C7 1_555 1_555
H20 C7 1_555 1_555
C8 S2 1_555 1_555
H21 C8 1_555 1_555
H22 C8 1_555 1_555
C9 C8 1_555 1_555
H23 C9 1_555 1_555
H24 C9 1_555 1_555
C10 O4 1_555 1_555
H25 C10 1_555 1_555
H26 C10 1_555 1_555
C11 C10 1_555 1_555
H27 C11 1_555 1_555
H28 C11 1_555 1_555
C12 C7 1_555 1_555
H29 C12 1_555 1_555
H30 C12 1_555 1_555
Cu1A O3A 1_555 1_555
Cu1_2 O11 1_555 1_555
Cu1_3 O10_2 1_555 1_555
S1A O3A 1_555 1_555
S2A O6A 1_555 1_555
N1_2 O10_2 1_555 1_555
O1A C1A 1_555 1_555
O2A C6 1_555 1_555
O4A C9A 1_555 1_555
O5A C12 1_555 1_555
O7A Cu1A 1_555 1_555
H1A O7A 1_555 1_555
H2A O7A 1_555 1_555
O8A Cu1A 1_555 1_555
H3A O8A 1_555 1_555
H4A O8A 1_555 1_555
O10A Cu1A 1_555 1_555
O11_2 Cu1 1_555 1_555
O11A Cu1A 1_555 1_555
O12_2 N1_2 1_555 1_555
C1A H7A 1_555 1_555
H8A C1A 1_555 1_555
C2A O1A 1_555 1_555
H9A C2A 1_555 1_555
H10A C2A 1_555 1_555
C3A S1A 1_555 1_555
H11A C3A 1_555 1_555
H12A C3A 1_555 1_555
C4A S1A 1_555 1_555
H13A C4A 1_555 1_555
H14A C4A 1_555 1_555
C5A O2A 1_555 1_555
H15A C5A 1_555 1_555
H16A C5A 1_555 1_555
C6A O2 1_555 1_555
H17A C6A 1_555 1_555
H18A C6A 1_555 1_555
C7A S2A 1_555 1_555
H19A C7A 1_555 1_555
H20A C7A 1_555 1_555
C8A S2A 1_555 1_555
H21A C8A 1_555 1_555
H22A C8A 1_555 1_555
C9A C8A 1_555 1_555
H23A C9A 1_555 1_555
H24A C9A 1_555 1_555
C10A O4A 1_555 1_555
H25A C10A 1_555 1_555
H26A C10A 1_555 1_555
C11A O5A 1_555 1_555
H27A C11A 1_555 1_555
H28A C11A 1_555 1_555
C12A O5 1_555 1_555
H29A C12A 1_555 1_555
H30A C12A 1_555 1_555
C2 C3 1_555 1_555
N1_2 O11_2 1_555 1_555
C1A C6A 1_555 1_555
C2A C3A 1_555 1_555
C4A C5A 1_555 1_555
C7A C12A 1_555 1_555
C10A C11A 1_555 1_555

#END
