
#######################################################################
#
#                 Cambridge Crystallographic Data Centre
#                                CCDC 
#
#######################################################################
#
# If this CIF has been generated from an entry in the Cambridge 
# Structural Database, then it will include bibliographic, chemical, 
# crystal, experimental, refinement or atomic coordinate data resulting 
# from the CCDC's data processing and validation procedures.
#
#######################################################################

data_EBOPOC
_symmetry_cell_setting           monoclinic
_symmetry_space_group_name_H-M   'P 21/c'
_symmetry_Int_Tables_number      14
_space_group_name_Hall           '-P 2ybc'
loop_
_symmetry_equiv_pos_site_id
_symmetry_equiv_pos_as_xyz
1 x,y,z
2 -x,1/2+y,1/2-z
3 -x,-y,-z
4 x,1/2-y,1/2+z
_cell_length_a                   9.751(2)
_cell_length_b                   20.573(4)
_cell_length_c                   13.834(5)
_cell_angle_alpha                90
_cell_angle_beta                 114.75(2)
_cell_angle_gamma                90
_cell_volume                     2520.28
loop_
_atom_site_label
_atom_site_type_symbol
_atom_site_fract_x
_atom_site_fract_y
_atom_site_fract_z
Mn1 Mn 0.73108(13) 0.00863(5) 0.47822(9)
C1 C 0.9752(10) 0.0772(4) 0.4185(6)
C2 C 1.0613(8) 0.1410(3) 0.4350(6)
C3 C 1.0627(9) 0.1843(4) 0.5150(7)
H1 H 1.0058 0.1745 0.5528
C4 C 1.1478(10) 0.2415(4) 0.5383(7)
H2 H 1.1472 0.2696 0.5908
C5 C 1.2341(10) 0.2559(4) 0.4819(8)
H3 H 1.2932 0.2933 0.4982
C6 C 1.2319(9) 0.2146(4) 0.4014(7)
H4 H 1.2871 0.2256 0.3628
C7 C 1.1472(8) 0.1563(3) 0.3773(6)
C8 C 1.1355(9) 0.1174(4) 0.2803(6)
C9 C 1.0033(9) 0.1217(4) 0.1865(7)
H5 H 0.9199 0.1430 0.1878
C10 C 0.9927(11) 0.0946(5) 0.0897(7)
H6 H 0.9036 0.0979 0.0282
C11 C 1.1170(10) 0.0632(5) 0.0883(7)
H7 H 1.1126 0.0460 0.0249
C12 C 1.2499(9) 0.0572(4) 0.1820(7)
H8 H 1.3329 0.0364 0.1794
C13 C 1.2609(9) 0.0817(4) 0.2793(6)
C14 C 1.4018(9) 0.0668(3) 0.3803(6)
C15 C 0.8832(9) 0.0864(4) 0.7132(6)
H9 H 0.9337 0.0474 0.7384
C16 C 0.9232(10) 0.1404(4) 0.7819(7)
H10 H 0.9949 0.1367 0.8518
C17 C 0.8522(9) 0.2001(4) 0.7421(6)
H11 H 0.8792 0.2370 0.7849
C18 C 0.7408(8) 0.2038(3) 0.6381(6)
C19 C 0.7055(8) 0.1461(3) 0.5776(6)
H12 H 0.6292 0.1479 0.5090
C20 C 0.6620(8) 0.2654(3) 0.5864(6)
C21 C 0.5508(9) 0.3400(4) 0.4717(6)
C22 C 0.4773(9) 0.3754(4) 0.3694(6)
C23 C 0.4815(10) 0.3522(4) 0.2768(7)
H13 H 0.5321 0.3136 0.2783
C24 C 0.4107(9) 0.3861(4) 0.1811(6)
H14 H 0.4160 0.3689 0.1206
C25 C 0.3310(10) 0.4651(4) 0.2620(7)
H15 H 0.2791 0.5037 0.2581
C26 C 0.3991(10) 0.4349(4) 0.3606(7)
H16 H 0.3935 0.4534 0.4202
N1 N 0.7748(7) 0.0884(3) 0.6122(5)
N2 N 0.6162(7) 0.2790(3) 0.4819(5)
N3 N 0.6243(7) 0.3140(3) 0.6352(5)
N4 N 0.5533(7) 0.3629(3) 0.5634(5)
N5 N 0.3347(7) 0.4425(3) 0.1715(5)
O1 O 0.8422(6) 0.0802(2) 0.4153(4)
O2 O 1.0411(5) 0.0252(2) 0.4123(4)
O3 O 1.3892(5) 0.0603(2) 0.4684(4)
O4 O 1.5268(6) 0.0605(2) 0.3719(4)
H17 H 0.6432 0.3169 0.6979
Mn1A Mn 0.26892(13) 0.50863(5) 0.02178(9)
Mn1B Mn 1.26892(13) -0.00863(5) 0.52178(9)
Mn1_2 Mn 1.73108(13) 0.00863(5) 0.47822(9)
N5A N 0.6653(7) -0.0575(3) 0.3285(5)
O2B O 0.9589(5) -0.0252(2) 0.5877(4)
O3B O 0.6108(5) -0.0603(2) 0.5316(4)
O4_2 O 0.5268(6) 0.0605(2) 0.3719(4)
O5 O 0.6810(8) 0.1953(3) 0.3389(5)
H18 H 0.7196 0.1623 0.3783
H19 H 0.6735 0.2091 0.3944
loop_
_geom_bond_atom_site_label_1
_geom_bond_atom_site_label_2
_geom_bond_site_symmetry_1
_geom_bond_site_symmetry_2
Mn1 N1 1_555 1_555
C1 C2 1_555 1_555
C2 C3 1_555 1_555
C3 H1 1_555 1_555
C4 C3 1_555 1_555
H2 C4 1_555 1_555
C5 C4 1_555 1_555
H3 C5 1_555 1_555
C6 C5 1_555 1_555
H4 C6 1_555 1_555
C7 C2 1_555 1_555
C8 C7 1_555 1_555
C9 C8 1_555 1_555
H5 C9 1_555 1_555
C10 C9 1_555 1_555
H6 C10 1_555 1_555
C11 C10 1_555 1_555
H7 C11 1_555 1_555
C12 C11 1_555 1_555
H8 C12 1_555 1_555
C13 C8 1_555 1_555
C14 C13 1_555 1_555
C15 H9 1_555 1_555
C16 C15 1_555 1_555
H10 C16 1_555 1_555
C17 C16 1_555 1_555
H11 C17 1_555 1_555
C18 C17 1_555 1_555
C19 C18 1_555 1_555
H12 C19 1_555 1_555
C20 C18 1_555 1_555
C21 C22 1_555 1_555
C22 C23 1_555 1_555
C23 H13 1_555 1_555
C24 C23 1_555 1_555
H14 C24 1_555 1_555
C25 H15 1_555 1_555
C26 C22 1_555 1_555
H16 C26 1_555 1_555
N1 C15 1_555 1_555
N2 C20 1_555 1_555
N3 C20 1_555 1_555
N4 C21 1_555 1_555
N5 C24 1_555 1_555
O1 Mn1 1_555 1_555
O2 C1 1_555 1_555
O3 C14 1_555 1_555
O4 C14 1_555 1_555
O5 H18 1_555 1_555
H17 N3 1_555 1_555
H19 O5 1_555 1_555
Mn1A N5 1_555 1_555
Mn1B O2 1_555 1_555
Mn1_2 O4 1_555 1_555
N5A Mn1 1_555 1_555
O2B Mn1 1_555 1_555
O3B Mn1 1_555 1_555
O4_2 Mn1 1_555 1_555
C1 O1 1_555 1_555
C6 C7 1_555 1_555
C12 C13 1_555 1_555
C19 N1 1_555 1_555
C21 N2 1_555 1_555
C25 C26 1_555 1_555
C25 N5 1_555 1_555
N3 N4 1_555 1_555
O3 Mn1B 1_555 1_555

#END
