
#######################################################################
#
#                 Cambridge Crystallographic Data Centre
#                                CCDC 
#
#######################################################################
#
# If this CIF has been generated from an entry in the Cambridge 
# Structural Database, then it will include bibliographic, chemical, 
# crystal, experimental, refinement or atomic coordinate data resulting 
# from the CCDC's data processing and validation procedures.
#
#######################################################################

data_EBOPUI
_symmetry_cell_setting           monoclinic
_symmetry_space_group_name_H-M   'P 21/n'
_symmetry_Int_Tables_number      14
_space_group_name_Hall           '-P 2yn'
loop_
_symmetry_equiv_pos_site_id
_symmetry_equiv_pos_as_xyz
1 x,y,z
2 1/2-x,1/2+y,1/2-z
3 -x,-y,-z
4 1/2+x,1/2-y,1/2+z
_cell_length_a                   9.0580(18)
_cell_length_b                   20.067(4)
_cell_length_c                   12.886(3)
_cell_angle_alpha                90
_cell_angle_beta                 106.79(3)
_cell_angle_gamma                90
_cell_volume                     2242.4
loop_
_atom_site_label
_atom_site_type_symbol
_atom_site_fract_x
_atom_site_fract_y
_atom_site_fract_z
Ni1 Ni 0.25387(9) 0.99012(4) 0.02252(7)
C1 C 0.5550(7) 0.9246(3) 0.0762(5)
C2 C 0.6262(7) 0.8587(3) 0.0632(5)
C3 C 0.5482(8) 0.8137(3) -0.0133(6)
H1 H 0.4476 0.8239 -0.0531
C4 C 0.6095(9) 0.7551(4) -0.0344(7)
H2 H 0.5535 0.7261 -0.0877
C5 C 0.7526(9) 0.7408(4) 0.0244(7)
H3 H 0.7989 0.7014 0.0120
C6 C 0.8322(8) 0.7842(3) 0.1033(6)
H4 H 0.9317 0.7729 0.1438
C7 C 0.7706(7) 0.8439(3) 0.1251(5)
C8 C 0.8535(7) 0.8848(3) 0.2187(6)
C9 C 0.8157(8) 0.8785(4) 0.3153(6)
H5 H 0.7282 0.8542 0.3153
C10 C 0.9016(10) 0.9066(4) 0.4110(7)
H6 H 0.8699 0.9031 0.4733
C11 C 1.0304(9) 0.9388(4) 0.4131(6)
H7 H 1.0938 0.9560 0.4777
C12 C 1.0685(8) 0.9464(3) 0.3176(6)
H8 H 1.1582 0.9695 0.3195
C13 C 0.9820(7) 0.9219(3) 0.2207(5)
C14 C 1.0196(7) 0.9383(3) 0.1184(5)
C15 C 0.1744(8) 0.9184(3) -0.2012(6)
H9 H 0.1984 0.9589 -0.2275
C16 C 0.1446(9) 0.8641(3) -0.2693(6)
H10 H 0.1470 0.8687 -0.3406
C17 C 0.1112(8) 0.8028(3) -0.2330(5)
H11 H 0.0906 0.7659 -0.2785
C18 C 0.1094(7) 0.7985(3) -0.1262(5)
C19 C 0.1356(7) 0.8563(3) -0.0637(5)
H12 H 0.1284 0.8537 0.0068
C20 C 0.0841(7) 0.7361(3) -0.0724(5)
C21 C 0.0848(8) 0.6596(3) 0.0400(5)
C22 C 0.1140(7) 0.6230(3) 0.1443(5)
C23 C 0.0459(8) 0.5631(3) 0.1516(6)
H13 H -0.0194 0.5436 0.0898
C24 C 0.0736(8) 0.5315(4) 0.2503(6)
H14 H 0.0237 0.4912 0.2527
C25 C 0.2320(8) 0.6124(3) 0.3332(6)
H15 H 0.2989 0.6303 0.3958
C26 C 0.2081(8) 0.6481(3) 0.2377(6)
H16 H 0.2564 0.6890 0.2377
N1 N 0.1701(6) 0.9150(2) -0.0984(4)
N2 N 0.1412(6) 0.7218(2) 0.0315(4)
N3 N -0.0031(6) 0.6858(3) -0.1228(4)
N4 N -0.0033(6) 0.6359(3) -0.0520(4)
N5 N 0.1665(6) 0.5547(3) 0.3415(4)
O1 O 0.4222(5) 0.92131(19) 0.0814(3)
O2 O 0.6264(4) 0.97693(19) 0.0805(3)
O3 O 0.9193(5) 0.9445(2) 0.0316(3)
O4 O 1.1554(5) 0.9448(2) 0.1270(3)
H17 H -0.0570 0.6839 -0.1890
Ni1B Ni 0.74613(9) 1.00988(4) -0.02252(7)
Ni1_2 Ni 1.25387(9) 0.99012(4) 0.02252(7)
Ni1A Ni 0.24613(9) 0.49012(4) 0.47748(7)
N5A N 0.3335(6) 1.0547(3) 0.1585(4)
O2B O 0.3736(4) 1.02307(19) -0.0805(3)
O3B O 0.0807(5) 1.0555(2) -0.0316(3)
O4_2 O 0.1554(5) 0.9448(2) 0.1270(3)
O5 O 0.3470(7) 0.8075(3) 0.1729(4)
H18 H 0.3671 0.8400 0.1426
H19 H 0.2756 0.7880 0.1335
loop_
_geom_bond_atom_site_label_1
_geom_bond_atom_site_label_2
_geom_bond_site_symmetry_1
_geom_bond_site_symmetry_2
Ni1 N1 1_555 1_555
C1 C2 1_555 1_555
C2 C3 1_555 1_555
C3 H1 1_555 1_555
C4 C3 1_555 1_555
H2 C4 1_555 1_555
C5 C4 1_555 1_555
H3 C5 1_555 1_555
C6 C5 1_555 1_555
H4 C6 1_555 1_555
C7 C2 1_555 1_555
C8 C7 1_555 1_555
C9 C8 1_555 1_555
H5 C9 1_555 1_555
C10 C9 1_555 1_555
H6 C10 1_555 1_555
C11 C10 1_555 1_555
H7 C11 1_555 1_555
C12 C11 1_555 1_555
H8 C12 1_555 1_555
C13 C8 1_555 1_555
C14 C13 1_555 1_555
C15 H9 1_555 1_555
C16 C15 1_555 1_555
H10 C16 1_555 1_555
C17 C16 1_555 1_555
H11 C17 1_555 1_555
C18 C17 1_555 1_555
C19 C18 1_555 1_555
H12 C19 1_555 1_555
C20 C18 1_555 1_555
C21 C22 1_555 1_555
C22 C23 1_555 1_555
C23 H13 1_555 1_555
C24 C23 1_555 1_555
H14 C24 1_555 1_555
C25 H15 1_555 1_555
C26 C22 1_555 1_555
H16 C26 1_555 1_555
N1 C15 1_555 1_555
N2 C20 1_555 1_555
N3 C20 1_555 1_555
N4 C21 1_555 1_555
N5 C24 1_555 1_555
O1 Ni1 1_555 1_555
O2 C1 1_555 1_555
O3 C14 1_555 1_555
O4 C14 1_555 1_555
O5 H18 1_555 1_555
H17 N3 1_555 1_555
H19 O5 1_555 1_555
Ni1B O2 1_555 1_555
Ni1_2 O4 1_555 1_555
Ni1A N5 1_555 1_555
N5A Ni1 1_555 1_555
O2B Ni1 1_555 1_555
O3B Ni1 1_555 1_555
O4_2 Ni1 1_555 1_555
C1 O1 1_555 1_555
C6 C7 1_555 1_555
C12 C13 1_555 1_555
C19 N1 1_555 1_555
C21 N2 1_555 1_555
C25 C26 1_555 1_555
C25 N5 1_555 1_555
N3 N4 1_555 1_555
O3 Ni1B 1_555 1_555

#END
