
#######################################################################
#
#                 Cambridge Crystallographic Data Centre
#                                CCDC 
#
#######################################################################
#
# If this CIF has been generated from an entry in the Cambridge 
# Structural Database, then it will include bibliographic, chemical, 
# crystal, experimental, refinement or atomic coordinate data resulting 
# from the CCDC's data processing and validation procedures.
#
#######################################################################

data_EBOQIX
_symmetry_cell_setting           triclinic
_symmetry_space_group_name_H-M   'P -1'
_symmetry_Int_Tables_number      2
_space_group_name_Hall           '-P 1'
loop_
_symmetry_equiv_pos_site_id
_symmetry_equiv_pos_as_xyz
1 x,y,z
2 -x,-y,-z
_cell_length_a                   9.1380(18)
_cell_length_b                   11.366(2)
_cell_length_c                   12.541(3)
_cell_angle_alpha                66.69(3)
_cell_angle_beta                 85.90(3)
_cell_angle_gamma                85.13(3)
_cell_volume                     1190.88
loop_
_atom_site_label
_atom_site_type_symbol
_atom_site_fract_x
_atom_site_fract_y
_atom_site_fract_z
Zn1 Zn 1.0000 0.5000 0.0000
Zn2 Zn 0.70035(9) -0.45471(8) 0.84447(7)
C1 C 0.9830(8) 0.5046(6) -0.2510(6)
C2 C 1.0852(8) 0.5197(7) -0.3539(6)
C3 C 1.0524(9) 0.6246(8) -0.4571(6)
H1 H 0.9683 0.6782 -0.4613
C4 C 1.1483(9) 0.6467(8) -0.5531(6)
H2 H 1.1296 0.7175 -0.6216
C5 C 1.2723(9) 0.5646(9) -0.5488(6)
H3 H 1.3335 0.5772 -0.6145
C6 C 1.3013(9) 0.4661(9) -0.4467(7)
H4 H 1.3850 0.4123 -0.4429
C7 C 1.2106(8) 0.4416(7) -0.3462(6)
C8 C 1.2510(8) 0.3258(7) -0.2417(7)
C9 C 1.3716(8) 0.3157(6) -0.1762(6)
C10 C 1.4574(7) 0.4285(7) -0.1935(6)
C11 C 1.4063(9) 0.1984(7) -0.0856(7)
H5 H 1.4889 0.1911 -0.0437
C12 C 1.3245(10) 0.0936(7) -0.0556(7)
H6 H 1.3495 0.0170 0.0059
C13 C 1.2030(9) 0.1061(7) -0.1202(7)
H7 H 1.1441 0.0372 -0.1011
C14 C 1.1688(9) 0.2184(7) -0.2117(7)
H8 H 1.0884 0.2234 -0.2552
C15 C 1.0777(9) 0.2045(7) 0.1150(7)
H9 H 1.1454 0.2213 0.0525
C16 C 1.0739(9) 0.0795(8) 0.1998(8)
H10 H 1.1351 0.0128 0.1933
C17 C 0.9762(9) 0.0590(8) 0.2932(7)
H11 H 0.9745 -0.0224 0.3523
C18 C 0.8828(8) 0.1538(7) 0.3012(6)
C19 C 0.8891(8) 0.2759(7) 0.2112(6)
H12 H 0.8235 0.3418 0.2143
C20 C 0.7810(8) 0.1295(6) 0.3967(6)
C21 C 0.6480(9) 0.0422(6) 0.5537(6)
C22 C 0.5908(8) -0.0556(6) 0.6567(6)
C23 C 0.6526(9) -0.1793(6) 0.6932(6)
H13 H 0.7332 -0.1974 0.6513
C24 C 0.4729(9) -0.0313(7) 0.7235(7)
H14 H 0.4308 0.0517 0.7026
C25 C 0.4187(9) -0.1283(7) 0.8193(6)
H15 H 0.3395 -0.1125 0.8636
C26 C 0.4847(9) -0.2512(7) 0.8489(6)
H16 H 0.4469 -0.3180 0.9131
N1 N 0.9863(7) 0.3010(6) 0.1211(5)
N2 N 0.7654(7) 0.0184(6) 0.4872(5)
N3 N 0.6736(7) 0.2157(6) 0.4091(5)
N4 N 0.5895(7) 0.1624(6) 0.5071(6)
N5 N 0.5986(6) -0.2763(5) 0.7896(5)
O1 O 1.0236(6) 0.4397(5) -0.1487(4)
O2 O 0.8525(5) 0.5584(5) -0.2741(4)
O3 O 1.4023(6) 0.5397(5) -0.2421(5)
O4 O 1.5807(6) 0.4036(5) -0.1463(5)
O5 O 0.7801(5) 0.5148(5) -0.0110(4)
H17 H 0.6543 0.2893 0.3570
H18 H 0.7316 0.5237 0.0441
Zn2A Zn 1.29965(9) 1.45471(8) -0.84447(7)
Zn2_2 Zn 0.70035(9) 0.54529(8) -0.15553(7)
Zn2_3 Zn 1.70035(9) 0.54529(8) -0.15553(7)
Zn2A_2 Zn 1.29965(9) 0.45471(8) 0.15553(7)
Zn2A_3 Zn 0.29965(9) 0.45471(8) 0.15553(7)
C1A C 1.0170(8) 0.4954(6) 0.2510(6)
C2A C 0.9148(8) 0.4803(7) 0.3539(6)
C3A C 0.9476(9) 0.3754(8) 0.4571(6)
H1A H 1.0317 0.3218 0.4613
C4A C 0.8517(9) 0.3533(8) 0.5531(6)
H2A H 0.8704 0.2825 0.6216
C5A C 0.7277(9) 0.4354(9) 0.5488(6)
H3A H 0.6665 0.4228 0.6145
C6A C 0.6987(9) 0.5339(9) 0.4467(7)
H4A H 0.6150 0.5877 0.4429
C7A C 0.7894(8) 0.5584(7) 0.3462(6)
C8A C 0.7490(8) 0.6742(7) 0.2417(7)
C9A C 0.6284(8) 0.6843(6) 0.1762(6)
C10A C 0.5426(7) 0.5715(7) 0.1935(6)
C11A C 0.5937(9) 0.8016(7) 0.0856(7)
H5A H 0.5111 0.8089 0.0437
C12A C 0.6755(10) 0.9064(7) 0.0556(7)
H6A H 0.6505 0.9830 -0.0059
C13A C 0.7970(9) 0.8939(7) 0.1202(7)
H7A H 0.8559 0.9628 0.1011
C14A C 0.8312(9) 0.7816(7) 0.2117(7)
H8A H 0.9116 0.7766 0.2552
C15A C 0.9223(9) 0.7955(7) -0.1150(7)
H9A H 0.8546 0.7787 -0.0525
C16A C 0.9261(9) 0.9205(8) -0.1998(8)
H10A H 0.8649 0.9872 -0.1933
C17A C 1.0238(9) 0.9410(8) -0.2932(7)
H11A H 1.0255 1.0224 -0.3523
C18A C 1.1172(8) 0.8462(7) -0.3012(6)
C19A C 1.1109(8) 0.7241(7) -0.2112(6)
H12A H 1.1765 0.6582 -0.2143
C20A C 1.2190(8) 0.8705(6) -0.3967(6)
C21A C 1.3520(9) 0.9578(6) -0.5537(6)
C22A C 1.4092(8) 1.0556(6) -0.6567(6)
C23A C 1.3474(9) 1.1793(6) -0.6932(6)
H13A H 1.2668 1.1974 -0.6513
C24A C 1.5271(9) 1.0313(7) -0.7235(7)
H14A H 1.5692 0.9483 -0.7026
C25A C 1.5813(9) 1.1283(7) -0.8193(6)
H15A H 1.6605 1.1125 -0.8636
C26A C 1.5153(9) 1.2512(7) -0.8489(6)
H16A H 1.5531 1.3180 -0.9131
N1A N 1.0137(7) 0.6990(6) -0.1211(5)
N2A N 1.2346(7) 0.9816(6) -0.4872(5)
N3A N 1.3264(7) 0.7843(6) -0.4091(5)
N4A N 1.4105(7) 0.8376(6) -0.5071(6)
N5A N 1.4014(6) 1.2763(5) -0.7896(5)
O1A O 0.9764(6) 0.5603(5) 0.1487(4)
O2A O 1.1475(5) 0.4416(5) 0.2741(4)
O2_2 O 0.8525(5) -0.4416(5) 0.7259(4)
O2A_2 O 1.1475(5) 1.4416(5) -0.7259(4)
O3A O 0.5977(6) 0.4603(5) 0.2421(5)
O4A O 0.4193(6) 0.5964(5) 0.1463(5)
O4_2 O 0.5807(6) -0.5964(5) 0.8537(5)
O4A_2 O 1.4193(6) 1.5964(5) -0.8537(5)
O5A O 1.2199(5) 0.4852(5) 0.0110(4)
O5_2 O 0.7801(5) -0.4852(5) 0.9890(4)
O5A_2 O 1.2199(5) 1.4852(5) -0.9890(4)
H17A H 1.3457 0.7107 -0.3570
H18A H 1.2684 0.4763 -0.0441
H18_2 H 0.7316 -0.4763 1.0441
H18A_2 H 1.2684 1.4763 -1.0441
O6 O 0.8148(9) 0.2038(7) 0.9092(7)
H19 H 0.8817 0.2121 0.8563
H20 H 0.7309 0.2206 0.8794
loop_
_geom_bond_atom_site_label_1
_geom_bond_atom_site_label_2
_geom_bond_site_symmetry_1
_geom_bond_site_symmetry_2
Zn1 N1 1_555 1_555
Zn2 N5 1_555 1_555
C1 C2 1_555 1_555
C2 C3 1_555 1_555
C3 H1 1_555 1_555
C4 C3 1_555 1_555
H2 C4 1_555 1_555
C5 C4 1_555 1_555
H3 C5 1_555 1_555
C6 C5 1_555 1_555
H4 C6 1_555 1_555
C7 C2 1_555 1_555
C8 C7 1_555 1_555
C9 C8 1_555 1_555
C10 C9 1_555 1_555
C11 C9 1_555 1_555
H5 C11 1_555 1_555
C12 C11 1_555 1_555
H6 C12 1_555 1_555
C13 C12 1_555 1_555
H7 C13 1_555 1_555
C14 C8 1_555 1_555
H8 C14 1_555 1_555
C15 H9 1_555 1_555
C16 C15 1_555 1_555
H10 C16 1_555 1_555
C17 C16 1_555 1_555
H11 C17 1_555 1_555
C18 C17 1_555 1_555
C19 C18 1_555 1_555
H12 C19 1_555 1_555
C20 C18 1_555 1_555
C21 C22 1_555 1_555
C22 C23 1_555 1_555
C23 H13 1_555 1_555
C24 C22 1_555 1_555
H14 C24 1_555 1_555
C25 C24 1_555 1_555
H15 C25 1_555 1_555
C26 C25 1_555 1_555
H16 C26 1_555 1_555
N1 C15 1_555 1_555
N2 C20 1_555 1_555
N3 C20 1_555 1_555
N4 C21 1_555 1_555
N5 C23 1_555 1_555
O1 Zn1 1_555 1_555
O2 C1 1_555 1_555
O3 C10 1_555 1_555
O4 C10 1_555 1_555
O5 Zn1 1_555 1_555
O6 H19 1_555 1_555
H17 N3 1_555 1_555
H18 O5 1_555 1_555
H20 O6 1_555 1_555
Zn2A N5A 1_555 1_555
Zn2_2 O2 1_555 1_555
Zn2_3 O4 1_555 1_555
Zn2A_2 O2A 1_555 1_555
Zn2A_3 O4A 1_555 1_555
C1A C2A 1_555 1_555
C2A C3A 1_555 1_555
C3A H1A 1_555 1_555
C4A C3A 1_555 1_555
H2A C4A 1_555 1_555
C5A C4A 1_555 1_555
H3A C5A 1_555 1_555
C6A C5A 1_555 1_555
H4A C6A 1_555 1_555
C7A C2A 1_555 1_555
C8A C7A 1_555 1_555
C9A C8A 1_555 1_555
C10A C9A 1_555 1_555
C11A C9A 1_555 1_555
H5A C11A 1_555 1_555
C12A C11A 1_555 1_555
H6A C12A 1_555 1_555
C13A C12A 1_555 1_555
H7A C13A 1_555 1_555
C14A C8A 1_555 1_555
H8A C14A 1_555 1_555
C15A H9A 1_555 1_555
C16A C15A 1_555 1_555
H10A C16A 1_555 1_555
C17A C16A 1_555 1_555
H11A C17A 1_555 1_555
C18A C17A 1_555 1_555
C19A C18A 1_555 1_555
H12A C19A 1_555 1_555
C20A C18A 1_555 1_555
C21A C22A 1_555 1_555
C22A C23A 1_555 1_555
C23A H13A 1_555 1_555
C24A C22A 1_555 1_555
H14A C24A 1_555 1_555
C25A C24A 1_555 1_555
H15A C25A 1_555 1_555
C26A C25A 1_555 1_555
H16A C26A 1_555 1_555
N1A Zn1 1_555 1_555
N2A C20A 1_555 1_555
N3A C20A 1_555 1_555
N4A C21A 1_555 1_555
N5A C23A 1_555 1_555
O1A Zn1 1_555 1_555
O2A C1A 1_555 1_555
O2_2 Zn2 1_555 1_555
O2A_2 Zn2A 1_555 1_555
O3A C10A 1_555 1_555
O4A C10A 1_555 1_555
O4_2 Zn2 1_555 1_555
O4A_2 Zn2A 1_555 1_555
O5A Zn1 1_555 1_555
O5_2 Zn2 1_555 1_555
O5A_2 Zn2A 1_555 1_555
H17A N3A 1_555 1_555
H18A O5A 1_555 1_555
H18_2 O5_2 1_555 1_555
H18A_2 O5A_2 1_555 1_555
C1 O1 1_555 1_555
C6 C7 1_555 1_555
C13 C14 1_555 1_555
C19 N1 1_555 1_555
C21 N2 1_555 1_555
C26 N5 1_555 1_555
N3 N4 1_555 1_555
O5 Zn2_2 1_555 1_555
Zn2A_2 O5A 1_555 1_555
C1A O1A 1_555 1_555
C6A C7A 1_555 1_555
C13A C14A 1_555 1_555
C15A N1A 1_555 1_555
C19A N1A 1_555 1_555
C21A N2A 1_555 1_555
C26A N5A 1_555 1_555
N3A N4A 1_555 1_555

#END
