
#######################################################################
#
#                 Cambridge Crystallographic Data Centre
#                                CCDC 
#
#######################################################################
#
# If this CIF has been generated from an entry in the Cambridge 
# Structural Database, then it will include bibliographic, chemical, 
# crystal, experimental, refinement or atomic coordinate data resulting 
# from the CCDC's data processing and validation procedures.
#
#######################################################################

data_EBOQOD
_symmetry_cell_setting           triclinic
_symmetry_space_group_name_H-M   'P -1'
_symmetry_Int_Tables_number      2
_space_group_name_Hall           '-P 1'
loop_
_symmetry_equiv_pos_site_id
_symmetry_equiv_pos_as_xyz
1 x,y,z
2 -x,-y,-z
_cell_length_a                   9.850(2)
_cell_length_b                   11.721(2)
_cell_length_c                   12.217(2)
_cell_angle_alpha                103.76(3)
_cell_angle_beta                 102.53(3)
_cell_angle_gamma                94.49(3)
_cell_volume                     1324.76
loop_
_atom_site_label
_atom_site_type_symbol
_atom_site_fract_x
_atom_site_fract_y
_atom_site_fract_z
Co1 Co 0.0000 0.5000 0.0000
Co2 Co 1.0000 1.5000 0.5000
C1 C -0.0798(2) 0.3284(2) 0.13389(19)
C2 C -0.0700(2) 0.2139(2) 0.1678(2)
C3 C -0.1960(3) 0.1469(2) 0.1602(2)
H1 H -0.2800 0.1749 0.1356
C4 C -0.1990(3) 0.0403(2) 0.1882(3)
H2 H -0.2845 -0.0045 0.1804
C5 C -0.0763(4) 0.0002(3) 0.2275(3)
H3 H -0.0777 -0.0712 0.2482
C6 C 0.0492(3) 0.0655(2) 0.2365(2)
H4 H 0.1324 0.0378 0.2643
C7 C 0.0555(3) 0.1717(2) 0.2053(2)
C8 C 0.1977(3) 0.2279(2) 0.2089(2)
C9 C 0.2575(3) 0.1789(3) 0.1189(2)
H5 H 0.2053 0.1174 0.0574
C10 C 0.3921(3) 0.2190(3) 0.1184(3)
H6 H 0.4292 0.1859 0.0561
C11 C 0.4715(3) 0.3075(3) 0.2093(3)
H7 H 0.5618 0.3362 0.2081
C12 C 0.4173(3) 0.3539(2) 0.3023(2)
H8 H 0.4730 0.4117 0.3654
C13 C 0.2807(2) 0.3158(2) 0.3035(2)
C14 C 0.2281(2) 0.37403(19) 0.4059(2)
C15 C 0.2451(3) 0.5809(2) 0.2106(2)
H9 H 0.2306 0.5006 0.2070
C16 C 0.3629(3) 0.6492(2) 0.2876(2)
H10 H 0.4256 0.6154 0.3350
C17 C 0.3867(2) 0.7674(2) 0.29363(19)
C18 C 0.2881(3) 0.8132(2) 0.2236(2)
H11 H 0.2999 0.8934 0.2263
C19 C 0.1727(3) 0.7399(2) 0.1503(2)
H12 H 0.1064 0.7725 0.1048
C20 C 0.5131(2) 0.8451(2) 0.3660(2)
C21 C 0.6702(2) 0.9904(2) 0.4403(2)
C22 C 0.7459(2) 1.1086(2) 0.4641(2)
C23 C 0.8878(3) 1.1357(2) 0.5152(2)
H13 H 0.9376 1.0793 0.5416
C24 C 0.9542(3) 1.2455(2) 0.5266(2)
H14 H 1.0505 1.2613 0.5589
C25 C 0.7510(2) 1.3066(2) 0.4490(2)
H15 H 0.7023 1.3662 0.4285
C26 C 0.6768(2) 1.1973(2) 0.4312(2)
H16 H 0.5809 1.1831 0.3973
C27 C 0.1916(4) 0.3361(3) -0.1226(3)
H17 H 0.1245 0.3169 -0.1975
H18 H 0.1718 0.2762 -0.0834
C28 C 0.3352(4) 0.3327(4) -0.1412(4)
H19 H 0.3417 0.2553 -0.1868
H20 H 0.4020 0.3498 -0.0674
H21 H 0.3548 0.3909 -0.1813
H22 H 1.1784 1.5268 0.7054
H23 H 1.2252 1.4624 0.6206
H24 H 0.6307 0.7460 0.4501
H25 H 0.1894 0.4999 -0.0969
N1 N 0.1508(2) 0.62380(17) 0.14095(17)
N2 N 0.6185(2) 0.81427(17) 0.43742(18)
N3 N 0.7218(2) 0.90627(18) 0.48540(19)
N4 N 0.5421(2) 0.95671(17) 0.36630(17)
N5 N 0.8885(2) 1.33224(17) 0.49392(17)
O1 O 0.01218(16) 0.36633(14) 0.09076(14)
O2 O -0.18695(17) 0.37736(15) 0.14720(15)
O3 O 0.11083(16) 0.40705(14) 0.38790(14)
O4 O 0.31067(17) 0.38908(14) 0.50580(14)
O5 O 0.17406(19) 0.44626(16) -0.05704(17)
O6 O 1.14763(17) 1.47835(15) 0.64052(14)
Co2_2 Co 0.0000 0.5000 0.5000
Co2_3 Co -1.0000 -0.5000 -0.5000
Co2_4 Co 0.0000 0.5000 -0.5000
C1A C 0.0798(2) 0.6716(2) -0.13389(19)
C2A C 0.0700(2) 0.7861(2) -0.1678(2)
C3A C 0.1960(3) 0.8531(2) -0.1602(2)
H1A H 0.2800 0.8251 -0.1356
C4A C 0.1990(3) 0.9597(2) -0.1882(3)
H2A H 0.2845 1.0045 -0.1804
C5A C 0.0763(4) 0.9998(3) -0.2275(3)
H3A H 0.0777 1.0712 -0.2482
C6A C -0.0492(3) 0.9345(2) -0.2365(2)
H4A H -0.1324 0.9622 -0.2643
C7A C -0.0555(3) 0.8283(2) -0.2053(2)
C8A C -0.1977(3) 0.7721(2) -0.2089(2)
C9A C -0.2575(3) 0.8211(3) -0.1189(2)
H5A H -0.2053 0.8826 -0.0574
C10A C -0.3921(3) 0.7810(3) -0.1184(3)
H6A H -0.4292 0.8141 -0.0561
C11A C -0.4715(3) 0.6925(3) -0.2093(3)
H7A H -0.5618 0.6638 -0.2081
C12A C -0.4173(3) 0.6461(2) -0.3023(2)
H8A H -0.4730 0.5883 -0.3654
C13A C -0.2807(2) 0.6842(2) -0.3035(2)
C14A C -0.2281(2) 0.62597(19) -0.4059(2)
C15A C -0.2451(3) 0.4191(2) -0.2106(2)
H9A H -0.2306 0.4994 -0.2070
C16A C -0.3629(3) 0.3508(2) -0.2876(2)
H10A H -0.4256 0.3846 -0.3350
C17A C -0.3867(2) 0.2326(2) -0.29363(19)
C18A C -0.2881(3) 0.1868(2) -0.2236(2)
H11A H -0.2999 0.1066 -0.2263
C19A C -0.1727(3) 0.2601(2) -0.1503(2)
H12A H -0.1064 0.2275 -0.1048
C20A C -0.5131(2) 0.1549(2) -0.3660(2)
C21A C -0.6702(2) 0.0096(2) -0.4403(2)
C22A C -0.7459(2) -0.1086(2) -0.4641(2)
C23A C -0.8878(3) -0.1357(2) -0.5152(2)
H13A H -0.9376 -0.0793 -0.5416
C24A C -0.9542(3) -0.2455(2) -0.5266(2)
H14A H -1.0505 -0.2613 -0.5589
C25A C -0.7510(2) -0.3066(2) -0.4490(2)
H15A H -0.7023 -0.3662 -0.4285
C26A C -0.6768(2) -0.1973(2) -0.4312(2)
H16A H -0.5809 -0.1831 -0.3973
C27A C -0.1916(4) 0.6639(3) 0.1226(3)
H17A H -0.1245 0.6831 0.1975
H18A H -0.1718 0.7238 0.0834
C28A C -0.3352(4) 0.6673(4) 0.1412(4)
H19A H -0.3417 0.7447 0.1868
H20A H -0.4020 0.6502 0.0674
H21A H -0.3548 0.6091 0.1813
H22A H 0.8216 1.4732 0.2946
H23A H 0.7748 1.5376 0.3794
H24A H -0.6307 0.2540 -0.4501
H25A H -0.1894 0.5001 0.0969
N1A N -0.1508(2) 0.37620(17) -0.14095(17)
N2A N -0.6185(2) 0.18573(17) -0.43742(18)
N3A N -0.7218(2) 0.09373(18) -0.48540(19)
N4A N -0.5421(2) 0.04329(17) -0.36630(17)
N5A N -0.8885(2) -0.33224(17) -0.49392(17)
N5A_2 N 1.1115(2) 1.66776(17) 0.50608(17)
O1A O -0.01218(16) 0.63367(14) -0.09076(14)
O2A O 0.18695(17) 0.62264(15) -0.14720(15)
O3A O -0.11083(16) 0.59295(14) -0.38790(14)
O3_2 O 1.11083(16) 1.40705(14) 0.38790(14)
O3A_2 O 0.88917(16) 1.59295(14) 0.61210(14)
O4A O -0.31067(17) 0.61092(14) -0.50580(14)
O5A O -0.17406(19) 0.55374(16) 0.05704(17)
O6A O 0.85237(17) 1.52165(15) 0.35948(14)
loop_
_geom_bond_atom_site_label_1
_geom_bond_atom_site_label_2
_geom_bond_site_symmetry_1
_geom_bond_site_symmetry_2
Co1 N1 1_555 1_555
Co2 N5 1_555 1_555
C1 C2 1_555 1_555
C2 C3 1_555 1_555
C3 H1 1_555 1_555
C4 C3 1_555 1_555
H2 C4 1_555 1_555
C5 C4 1_555 1_555
H3 C5 1_555 1_555
C6 C5 1_555 1_555
H4 C6 1_555 1_555
C7 C2 1_555 1_555
C8 C7 1_555 1_555
C9 C8 1_555 1_555
H5 C9 1_555 1_555
C10 C9 1_555 1_555
H6 C10 1_555 1_555
C11 C10 1_555 1_555
H7 C11 1_555 1_555
C12 C11 1_555 1_555
H8 C12 1_555 1_555
C13 C8 1_555 1_555
C14 C13 1_555 1_555
C15 H9 1_555 1_555
C16 C15 1_555 1_555
H10 C16 1_555 1_555
C17 C16 1_555 1_555
C18 C17 1_555 1_555
H11 C18 1_555 1_555
C19 C18 1_555 1_555
H12 C19 1_555 1_555
C20 C17 1_555 1_555
C21 C22 1_555 1_555
C22 C23 1_555 1_555
C23 H13 1_555 1_555
C24 C23 1_555 1_555
H14 C24 1_555 1_555
C25 H15 1_555 1_555
C26 C22 1_555 1_555
H16 C26 1_555 1_555
C27 H17 1_555 1_555
H18 C27 1_555 1_555
C28 C27 1_555 1_555
H19 C28 1_555 1_555
H20 C28 1_555 1_555
H21 C28 1_555 1_555
H22 O6 1_555 1_555
H23 O6 1_555 1_555
H24 N2 1_555 1_555
H25 O5 1_555 1_555
N1 C15 1_555 1_555
N2 C20 1_555 1_555
N3 C21 1_555 1_555
N4 C20 1_555 1_555
N5 C24 1_555 1_555
O1 Co1 1_555 1_555
O2 C1 1_555 1_555
O3 C14 1_555 1_555
O4 C14 1_555 1_555
O5 Co1 1_555 1_555
O6 Co2 1_555 1_555
Co2_2 O3 1_555 1_555
Co2_3 N5A 1_555 1_555
Co2_4 O3A 1_555 1_555
C1A C2A 1_555 1_555
C2A C3A 1_555 1_555
C3A H1A 1_555 1_555
C4A C3A 1_555 1_555
H2A C4A 1_555 1_555
C5A C4A 1_555 1_555
H3A C5A 1_555 1_555
C6A C5A 1_555 1_555
H4A C6A 1_555 1_555
C7A C2A 1_555 1_555
C8A C7A 1_555 1_555
C9A C8A 1_555 1_555
H5A C9A 1_555 1_555
C10A C9A 1_555 1_555
H6A C10A 1_555 1_555
C11A C10A 1_555 1_555
H7A C11A 1_555 1_555
C12A C11A 1_555 1_555
H8A C12A 1_555 1_555
C13A C8A 1_555 1_555
C14A C13A 1_555 1_555
C15A H9A 1_555 1_555
C16A C15A 1_555 1_555
H10A C16A 1_555 1_555
C17A C16A 1_555 1_555
C18A C17A 1_555 1_555
H11A C18A 1_555 1_555
C19A C18A 1_555 1_555
H12A C19A 1_555 1_555
C20A C17A 1_555 1_555
C21A C22A 1_555 1_555
C22A C23A 1_555 1_555
C23A H13A 1_555 1_555
C24A C23A 1_555 1_555
H14A C24A 1_555 1_555
C25A H15A 1_555 1_555
C26A C22A 1_555 1_555
H16A C26A 1_555 1_555
C27A H17A 1_555 1_555
H18A C27A 1_555 1_555
C28A C27A 1_555 1_555
H19A C28A 1_555 1_555
H20A C28A 1_555 1_555
H21A C28A 1_555 1_555
H22A O6A 1_555 1_555
H23A O6A 1_555 1_555
H24A N2A 1_555 1_555
H25A O5A 1_555 1_555
N1A Co1 1_555 1_555
N2A C20A 1_555 1_555
N3A C21A 1_555 1_555
N4A C20A 1_555 1_555
N5A C24A 1_555 1_555
N5A_2 Co2 1_555 1_555
O1A Co1 1_555 1_555
O2A C1A 1_555 1_555
O3A C14A 1_555 1_555
O3_2 Co2 1_555 1_555
O3A_2 Co2 1_555 1_555
O4A C14A 1_555 1_555
O5A Co1 1_555 1_555
O6A Co2 1_555 1_555
C1 O1 1_555 1_555
C6 C7 1_555 1_555
C12 C13 1_555 1_555
C19 N1 1_555 1_555
C21 N4 1_555 1_555
C25 C26 1_555 1_555
C25 N5 1_555 1_555
C27 O5 1_555 1_555
N2 N3 1_555 1_555
C1A O1A 1_555 1_555
C6A C7A 1_555 1_555
C12A C13A 1_555 1_555
C15A N1A 1_555 1_555
C19A N1A 1_555 1_555
C21A N4A 1_555 1_555
C25A C26A 1_555 1_555
C25A N5A 1_555 1_555
C27A O5A 1_555 1_555
N2A N3A 1_555 1_555

#END
