
#######################################################################
#
#                 Cambridge Crystallographic Data Centre
#                                CCDC 
#
#######################################################################
#
# If this CIF has been generated from an entry in the Cambridge 
# Structural Database, then it will include bibliographic, chemical, 
# crystal, experimental, refinement or atomic coordinate data resulting 
# from the CCDC's data processing and validation procedures.
#
#######################################################################

data_EBOQAP
_symmetry_cell_setting           monoclinic
_symmetry_space_group_name_H-M   'P 21/n'
_symmetry_Int_Tables_number      14
_space_group_name_Hall           '-P 2yn'
loop_
_symmetry_equiv_pos_site_id
_symmetry_equiv_pos_as_xyz
1 x,y,z
2 1/2-x,1/2+y,1/2-z
3 -x,-y,-z
4 1/2+x,1/2-y,1/2+z
_cell_length_a                   9.0580(18)
_cell_length_b                   20.067(4)
_cell_length_c                   12.886(3)
_cell_angle_alpha                90
_cell_angle_beta                 106.79(3)
_cell_angle_gamma                90
_cell_volume                     2242.4
loop_
_atom_site_label
_atom_site_type_symbol
_atom_site_fract_x
_atom_site_fract_y
_atom_site_fract_z
Zn1 Zn 0.25271(5) 0.99152(2) 0.02210(4)
C1 C 0.5556(4) 0.92380(19) 0.0775(3)
C2 C 0.6259(4) 0.85905(19) 0.0636(3)
C3 C 0.5466(5) 0.8147(2) -0.0145(4)
H1 H 0.4459 0.8250 -0.0539
C4 C 0.6099(5) 0.7563(2) -0.0365(4)
H2 H 0.5545 0.7278 -0.0907
C5 C 0.7525(5) 0.7416(2) 0.0221(4)
H3 H 0.7987 0.7023 0.0092
C6 C 0.8306(5) 0.7840(2) 0.1005(4)
H4 H 0.9299 0.7724 0.1411
C7 C 0.7699(4) 0.8439(2) 0.1233(4)
C8 C 0.8551(4) 0.8843(2) 0.2186(4)
C9 C 0.8164(5) 0.8790(2) 0.3151(4)
H5 H 0.7275 0.8558 0.3148
C10 C 0.9032(6) 0.9063(3) 0.4102(4)
H6 H 0.8725 0.9024 0.4728
C11 C 1.0306(6) 0.9380(3) 0.4120(4)
H7 H 1.0940 0.9550 0.4767
C12 C 1.0693(5) 0.9457(2) 0.3178(4)
H8 H 1.1584 0.9692 0.3195
C13 C 0.9821(4) 0.9202(2) 0.2209(3)
C14 C 1.0214(4) 0.93619(19) 0.1181(3)
C15 C 0.1736(5) 0.9163(2) -0.2059(4)
H9 H 0.1999 0.9565 -0.2317
C16 C 0.1435(6) 0.8623(2) -0.2746(4)
H10 H 0.1452 0.8668 -0.3460
C17 C 0.1107(5) 0.8016(2) -0.2368(4)
H11 H 0.0918 0.7644 -0.2816
C18 C 0.1067(4) 0.79753(19) -0.1306(3)
C19 C 0.1324(4) 0.85505(19) -0.0687(3)
H12 H 0.1253 0.8525 0.0017
C20 C 0.0805(4) 0.7357(2) -0.0773(3)
C21 C 0.0830(4) 0.6599(2) 0.0353(3)
C22 C 0.1111(5) 0.6236(2) 0.1390(3)
C23 C 0.0427(6) 0.5640(2) 0.1472(4)
H13 H -0.0238 0.5445 0.0858
C24 C 0.0721(5) 0.5327(2) 0.2460(4)
H14 H 0.0230 0.4923 0.2489
C25 C 0.2301(5) 0.6137(2) 0.3280(4)
H15 H 0.2960 0.6321 0.3906
C26 C 0.2072(5) 0.6484(2) 0.2324(4)
H16 H 0.2574 0.6888 0.2318
N1 N 0.1666(4) 0.91348(16) -0.1035(3)
N2 N 0.1388(4) 0.72123(16) 0.0261(3)
N3 N -0.0061(4) 0.68566(16) -0.1273(3)
N4 N -0.0060(4) 0.63589(17) -0.0559(3)
N5 N 0.1648(4) 0.55612(16) 0.3363(3)
O1 O 0.4250(3) 0.92162(13) 0.0833(2)
O2 O 0.6277(3) 0.97644(13) 0.0829(2)
O3 O 0.9196(3) 0.94253(13) 0.0318(2)
O4 O 1.1554(3) 0.94276(14) 0.1272(2)
H17 H -0.070(5) 0.686(2) -0.198(2)
Zn1B Zn 0.74729(5) 1.00848(2) -0.02210(4)
Zn1_2 Zn 1.25271(5) 0.99152(2) 0.02210(4)
Zn1A Zn 0.24729(5) 0.49152(2) 0.47790(4)
N5A N 0.3352(4) 1.05612(16) 0.1637(3)
O2B O 0.3723(3) 1.02356(13) -0.0829(2)
O3B O 0.0804(3) 1.05747(13) -0.0318(2)
O4_2 O 0.1554(3) 0.94276(14) 0.1272(2)
O5 O 0.3455(5) 0.80653(19) 0.1672(3)
H18 H 0.265(6) 0.785(3) 0.133(6)
H19 H 0.350(6) 0.8431(16) 0.137(4)
loop_
_geom_bond_atom_site_label_1
_geom_bond_atom_site_label_2
_geom_bond_site_symmetry_1
_geom_bond_site_symmetry_2
Zn1 N1 1_555 1_555
C1 C2 1_555 1_555
C2 C3 1_555 1_555
C3 H1 1_555 1_555
C4 C3 1_555 1_555
H2 C4 1_555 1_555
C5 C4 1_555 1_555
H3 C5 1_555 1_555
C6 C5 1_555 1_555
H4 C6 1_555 1_555
C7 C2 1_555 1_555
C8 C7 1_555 1_555
C9 C8 1_555 1_555
H5 C9 1_555 1_555
C10 C9 1_555 1_555
H6 C10 1_555 1_555
C11 C10 1_555 1_555
H7 C11 1_555 1_555
C12 C11 1_555 1_555
H8 C12 1_555 1_555
C13 C8 1_555 1_555
C14 C13 1_555 1_555
C15 H9 1_555 1_555
C16 C15 1_555 1_555
H10 C16 1_555 1_555
C17 C16 1_555 1_555
H11 C17 1_555 1_555
C18 C17 1_555 1_555
C19 C18 1_555 1_555
H12 C19 1_555 1_555
C20 C18 1_555 1_555
C21 C22 1_555 1_555
C22 C23 1_555 1_555
C23 H13 1_555 1_555
C24 C23 1_555 1_555
H14 C24 1_555 1_555
C25 H15 1_555 1_555
C26 C22 1_555 1_555
H16 C26 1_555 1_555
N1 C15 1_555 1_555
N2 C20 1_555 1_555
N3 C20 1_555 1_555
N4 C21 1_555 1_555
N5 C24 1_555 1_555
O1 Zn1 1_555 1_555
O2 C1 1_555 1_555
O3 C14 1_555 1_555
O4 C14 1_555 1_555
O5 H18 1_555 1_555
H17 N3 1_555 1_555
H19 O5 1_555 1_555
Zn1B O2 1_555 1_555
Zn1_2 O4 1_555 1_555
Zn1A N5 1_555 1_555
N5A Zn1 1_555 1_555
O2B Zn1 1_555 1_555
O3B Zn1 1_555 1_555
O4_2 Zn1 1_555 1_555
C1 O1 1_555 1_555
C6 C7 1_555 1_555
C12 C13 1_555 1_555
C19 N1 1_555 1_555
C21 N2 1_555 1_555
C25 C26 1_555 1_555
C25 N5 1_555 1_555
N3 N4 1_555 1_555
O3 Zn1B 1_555 1_555

#END
