
#######################################################################
#
#                 Cambridge Crystallographic Data Centre
#                                CCDC 
#
#######################################################################
#
# If this CIF has been generated from an entry in the Cambridge 
# Structural Database, then it will include bibliographic, chemical, 
# crystal, experimental, refinement or atomic coordinate data resulting 
# from the CCDC's data processing and validation procedures.
#
#######################################################################

data_EBORAQ
_symmetry_cell_setting           triclinic
_symmetry_space_group_name_H-M   'P -1'
_symmetry_Int_Tables_number      2
_space_group_name_Hall           '-P 1'
loop_
_symmetry_equiv_pos_site_id
_symmetry_equiv_pos_as_xyz
1 x,y,z
2 -x,-y,-z
_cell_length_a                   9.6870(19)
_cell_length_b                   11.870(2)
_cell_length_c                   12.456(3)
_cell_angle_alpha                100.03(3)
_cell_angle_beta                 99.52(3)
_cell_angle_gamma                97.24(3)
_cell_volume                     1373.15
loop_
_atom_site_label
_atom_site_type_symbol
_atom_site_fract_x
_atom_site_fract_y
_atom_site_fract_z
Ni1 Ni 0.5000 0.5000 1.0000
Ni2 Ni 1.5000 1.5000 1.5000
C1 C 0.2943(6) 0.6436(6) 0.9020(6)
C2 C 0.2329(7) 0.6847(6) 0.7982(6)
C3 C 0.2602(7) 0.8024(7) 0.7984(6)
H1 H 0.3038 0.8540 0.8638
C4 C 0.2234(8) 0.8435(7) 0.7024(7)
H2 H 0.2442 0.9220 0.7021
C5 C 0.1552(8) 0.7660(8) 0.6067(7)
H3 H 0.1327 0.7927 0.5411
C6 C 0.1205(8) 0.6515(7) 0.6067(6)
H4 H 0.0709 0.6017 0.5420
C7 C 0.1586(6) 0.6074(6) 0.7030(6)
C8 C 0.1044(7) 0.4844(6) 0.7042(5)
C9 C -0.0246(7) 0.4633(8) 0.7370(6)
H5 H -0.0693 0.5255 0.7603
C10 C -0.0896(9) 0.3508(9) 0.7360(7)
H6 H -0.1773 0.3385 0.7570
C11 C -0.0245(9) 0.2612(9) 0.7047(7)
H7 H -0.0682 0.1860 0.7014
C12 C 0.1075(8) 0.2803(7) 0.6774(6)
H8 H 0.1534 0.2175 0.6587
C13 C 0.1726(7) 0.3890(6) 0.6769(5)
C14 C 0.3135(7) 0.4027(6) 0.6433(6)
C15 C 0.6612(7) 0.7492(6) 1.0506(6)
H9 H 0.5747 0.7684 1.0642
C16 C 0.7751(7) 0.8366(6) 1.0733(6)
H10 H 0.7657 0.9125 1.1018
C17 C 0.9045(6) 0.8095(6) 1.0527(5)
C18 C 0.9109(7) 0.6967(6) 1.0076(6)
H11 H 0.9949 0.6758 0.9899
C19 C 0.7910(7) 0.6150(6) 0.9890(6)
H12 H 0.7975 0.5387 0.9596
C20 C 1.0324(7) 0.8977(6) 1.0869(5)
C21 C 1.1813(7) 1.0448(6) 1.1600(6)
C22 C 1.2481(7) 1.1597(6) 1.2282(6)
C23 C 1.1745(7) 1.2297(6) 1.2888(6)
H13 H 1.0769 1.2103 1.2814
C24 C 1.2452(7) 1.3280(6) 1.3598(6)
H14 H 1.1933 1.3731 1.4013
C25 C 1.4544(7) 1.2975(7) 1.3101(7)
H15 H 1.5509 1.3210 1.3149
C26 C 1.3895(8) 1.1966(7) 1.2381(7)
H16 H 1.4423 1.1533 1.1958
N1 N 0.6666(5) 0.6380(5) 1.0103(5)
N2 N 1.0405(5) 1.0029(5) 1.1465(5)
N3 N 1.1581(6) 0.8796(5) 1.0643(5)
N4 N 1.2563(6) 0.9746(5) 1.1112(5)
N5 N 1.3847(5) 1.3635(5) 1.3737(5)
O1 O 0.3666(4) 0.5643(4) 0.8871(4)
O2 O 0.2758(5) 0.6937(4) 0.9942(4)
O3 O 0.3963(5) 0.3308(5) 0.6669(4)
O4 O 0.3421(5) 0.4793(4) 0.5886(4)
O5 O 0.4287(4) 0.5890(4) 1.1307(4)
O6 O 1.3915(5) 1.6179(5) 1.4318(4)
H17 H 0.4717 0.6568 1.1644
H18 H 0.3581 0.5586 1.1545
H19 H 1.3143 1.6323 1.4510
H20 H 1.4240 1.6520 1.3844
H21 H 1.192(8) 0.823(5) 1.030(6)
Ni2_2 Ni 0.5000 0.5000 0.5000
Ni2_3 Ni -0.5000 -0.5000 0.5000
Ni2_4 Ni 0.5000 0.5000 1.5000
C1A C 0.7057(6) 0.3564(6) 1.0980(6)
C2A C 0.7671(7) 0.3153(6) 1.2018(6)
C3A C 0.7398(7) 0.1976(7) 1.2016(6)
H1A H 0.6962 0.1460 1.1362
C4A C 0.7766(8) 0.1565(7) 1.2976(7)
H2A H 0.7558 0.0780 1.2979
C5A C 0.8448(8) 0.2340(8) 1.3933(7)
H3A H 0.8673 0.2073 1.4589
C6A C 0.8795(8) 0.3485(7) 1.3933(6)
H4A H 0.9291 0.3983 1.4580
C7A C 0.8414(6) 0.3926(6) 1.2970(6)
C8A C 0.8956(7) 0.5156(6) 1.2958(5)
C9A C 1.0246(7) 0.5367(8) 1.2630(6)
H5A H 1.0693 0.4745 1.2397
C10A C 1.0896(9) 0.6492(9) 1.2640(7)
H6A H 1.1773 0.6615 1.2430
C11A C 1.0245(9) 0.7388(9) 1.2953(7)
H7A H 1.0682 0.8140 1.2986
C12A C 0.8925(8) 0.7197(7) 1.3226(6)
H8A H 0.8466 0.7825 1.3413
C13A C 0.8274(7) 0.6110(6) 1.3231(5)
C14A C 0.6865(7) 0.5973(6) 1.3567(6)
C15A C 0.3388(7) 0.2508(6) 0.9494(6)
H9A H 0.4253 0.2316 0.9358
C16A C 0.2249(7) 0.1634(6) 0.9267(6)
H10A H 0.2343 0.0875 0.8982
C17A C 0.0955(6) 0.1905(6) 0.9473(5)
C18A C 0.0891(7) 0.3033(6) 0.9924(6)
H11A H 0.0051 0.3242 1.0101
C19A C 0.2090(7) 0.3850(6) 1.0110(6)
H12A H 0.2025 0.4613 1.0404
C20A C -0.0324(7) 0.1023(6) 0.9131(5)
C21A C -0.1813(7) -0.0448(6) 0.8400(6)
C22A C -0.2481(7) -0.1597(6) 0.7718(6)
C23A C -0.1745(7) -0.2297(6) 0.7112(6)
H13A H -0.0769 -0.2103 0.7186
C24A C -0.2452(7) -0.3280(6) 0.6402(6)
H14A H -0.1933 -0.3731 0.5987
C25A C -0.4544(7) -0.2975(7) 0.6899(7)
H15A H -0.5509 -0.3210 0.6851
C26A C -0.3895(8) -0.1966(7) 0.7619(7)
H16A H -0.4423 -0.1533 0.8042
N1A N 0.3334(5) 0.3620(5) 0.9897(5)
N2A N -0.0405(5) -0.0029(5) 0.8535(5)
N3A N -0.1581(6) 0.1204(5) 0.9357(5)
N4A N -0.2563(6) 0.0254(5) 0.8888(5)
N5A N -0.3847(5) -0.3635(5) 0.6263(5)
N5A_2 N 1.6153(5) 1.6365(5) 1.6263(5)
O1A O 0.6334(4) 0.4357(4) 1.1129(4)
O2A O 0.7242(5) 0.3063(4) 1.0058(4)
O3A O 0.6037(5) 0.6692(5) 1.3331(4)
O4A O 0.6579(5) 0.5207(4) 1.4114(4)
O4_2 O 1.3421(5) 1.4793(4) 1.5886(4)
O4A_2 O 1.6579(5) 1.5207(4) 1.4114(4)
O5A O 0.5713(4) 0.4110(4) 0.8693(4)
O6A O 1.6085(5) 1.3821(5) 1.5682(4)
H17A H 0.5283 0.3432 0.8356
H18A H 0.6419 0.4414 0.8455
H19A H 1.6857 1.3677 1.5490
H20A H 1.5760 1.3480 1.6156
H21A H -0.192(8) 0.177(5) 0.970(6)
O7 O 0.5000 0.0000 0.0000
O8? O 0.573(8) -0.027(9) 0.508(8)
O9? O 0.645(6) -0.083(5) 0.408(6)
O10? O 0.475(7) 0.100(6) 0.740(5)
loop_
_geom_bond_atom_site_label_1
_geom_bond_atom_site_label_2
_geom_bond_site_symmetry_1
_geom_bond_site_symmetry_2
Ni1 N1 1_555 1_555
Ni2 N5 1_555 1_555
C1 C2 1_555 1_555
C2 C3 1_555 1_555
C3 H1 1_555 1_555
C4 C3 1_555 1_555
H2 C4 1_555 1_555
C5 C4 1_555 1_555
H3 C5 1_555 1_555
C6 C5 1_555 1_555
H4 C6 1_555 1_555
C7 C2 1_555 1_555
C8 C7 1_555 1_555
C9 C8 1_555 1_555
H5 C9 1_555 1_555
C10 C9 1_555 1_555
H6 C10 1_555 1_555
C11 C10 1_555 1_555
H7 C11 1_555 1_555
C12 C11 1_555 1_555
H8 C12 1_555 1_555
C13 C8 1_555 1_555
C14 C13 1_555 1_555
C15 H9 1_555 1_555
C16 C15 1_555 1_555
H10 C16 1_555 1_555
C17 C16 1_555 1_555
C18 C17 1_555 1_555
H11 C18 1_555 1_555
C19 C18 1_555 1_555
H12 C19 1_555 1_555
C20 C17 1_555 1_555
C21 C22 1_555 1_555
C22 C23 1_555 1_555
C23 H13 1_555 1_555
C24 C23 1_555 1_555
H14 C24 1_555 1_555
C25 H15 1_555 1_555
C26 C22 1_555 1_555
H16 C26 1_555 1_555
N1 C15 1_555 1_555
N2 C20 1_555 1_555
N3 C20 1_555 1_555
N4 C21 1_555 1_555
N5 C24 1_555 1_555
O1 Ni1 1_555 1_555
O2 C1 1_555 1_555
O3 C14 1_555 1_555
O4 C14 1_555 1_555
O5 Ni1 1_555 1_555
O6 Ni2 1_555 1_555
H17 O5 1_555 1_555
H18 O5 1_555 1_555
H19 O6 1_555 1_555
H20 O6 1_555 1_555
H21 N3 1_555 1_555
Ni2_2 O4 1_555 1_555
Ni2_3 N5A 1_555 1_555
Ni2_4 O4A 1_555 1_555
C1A C2A 1_555 1_555
C2A C3A 1_555 1_555
C3A H1A 1_555 1_555
C4A C3A 1_555 1_555
H2A C4A 1_555 1_555
C5A C4A 1_555 1_555
H3A C5A 1_555 1_555
C6A C5A 1_555 1_555
H4A C6A 1_555 1_555
C7A C2A 1_555 1_555
C8A C7A 1_555 1_555
C9A C8A 1_555 1_555
H5A C9A 1_555 1_555
C10A C9A 1_555 1_555
H6A C10A 1_555 1_555
C11A C10A 1_555 1_555
H7A C11A 1_555 1_555
C12A C11A 1_555 1_555
H8A C12A 1_555 1_555
C13A C8A 1_555 1_555
C14A C13A 1_555 1_555
C15A H9A 1_555 1_555
C16A C15A 1_555 1_555
H10A C16A 1_555 1_555
C17A C16A 1_555 1_555
C18A C17A 1_555 1_555
H11A C18A 1_555 1_555
C19A C18A 1_555 1_555
H12A C19A 1_555 1_555
C20A C17A 1_555 1_555
C21A C22A 1_555 1_555
C22A C23A 1_555 1_555
C23A H13A 1_555 1_555
C24A C23A 1_555 1_555
H14A C24A 1_555 1_555
C25A H15A 1_555 1_555
C26A C22A 1_555 1_555
H16A C26A 1_555 1_555
N1A Ni1 1_555 1_555
N2A C20A 1_555 1_555
N3A C20A 1_555 1_555
N4A C21A 1_555 1_555
N5A C24A 1_555 1_555
N5A_2 Ni2 1_555 1_555
O1A Ni1 1_555 1_555
O2A C1A 1_555 1_555
O3A C14A 1_555 1_555
O4A C14A 1_555 1_555
O4_2 Ni2 1_555 1_555
O4A_2 Ni2 1_555 1_555
O5A Ni1 1_555 1_555
O6A Ni2 1_555 1_555
H17A O5A 1_555 1_555
H18A O5A 1_555 1_555
H19A O6A 1_555 1_555
H20A O6A 1_555 1_555
H21A N3A 1_555 1_555
C1 O1 1_555 1_555
C6 C7 1_555 1_555
C12 C13 1_555 1_555
C19 N1 1_555 1_555
C21 N2 1_555 1_555
C25 C26 1_555 1_555
C25 N5 1_555 1_555
N3 N4 1_555 1_555
C1A O1A 1_555 1_555
C6A C7A 1_555 1_555
C12A C13A 1_555 1_555
C15A N1A 1_555 1_555
C19A N1A 1_555 1_555
C21A N2A 1_555 1_555
C25A C26A 1_555 1_555
C25A N5A 1_555 1_555
N3A N4A 1_555 1_555

#END
