
#######################################################################
#
#                 Cambridge Crystallographic Data Centre
#                                CCDC 
#
#######################################################################
#
# If this CIF has been generated from an entry in the Cambridge 
# Structural Database, then it will include bibliographic, chemical, 
# crystal, experimental, refinement or atomic coordinate data resulting 
# from the CCDC's data processing and validation procedures.
#
#######################################################################

data_EBOSIZ
_symmetry_cell_setting           monoclinic
_symmetry_space_group_name_H-M   'C 2/c'
_symmetry_Int_Tables_number      15
_space_group_name_Hall           '-C 2yn'
loop_
_symmetry_equiv_pos_site_id
_symmetry_equiv_pos_as_xyz
1 x,y,z
2 -x,y,1/2-z
3 1/2+x,1/2+y,z
4 1/2-x,1/2+y,1/2-z
5 -x,-y,-z
6 x,-y,1/2+z
7 1/2-x,1/2-y,-z
8 1/2+x,1/2-y,1/2+z
_cell_length_a                   14.069(3)
_cell_length_b                   10.443(2)
_cell_length_c                   15.714(3)
_cell_angle_alpha                90
_cell_angle_beta                 98.528(3)
_cell_angle_gamma                90
_cell_volume                     2283.21
loop_
_atom_site_label
_atom_site_type_symbol
_atom_site_fract_x
_atom_site_fract_y
_atom_site_fract_z
Tb1 Tb 0.560314(11) 0.222338(15) 0.063907(10)
P1 P 0.79595(7) 0.40082(9) 0.09764(6)
O1 O 0.70382(18) 0.3283(3) 0.08730(16)
O2 O 0.76945(18) 0.5478(3) 0.09812(18)
H1 H 0.8213 0.5939 0.1084
O3 O 0.86585(19) 0.3746(2) 0.03770(17)
O4 O 0.92759(17) 0.3624(2) 0.48107(15)
O5 O 0.90580(19) 0.5130(2) 0.37836(16)
O6 O 0.61320(18) 0.2334(2) 0.21982(16)
O7 O 0.57112(17) 0.1975(2) 0.34991(16)
O8 O 0.50752(19) 0.4329(2) 0.10259(17)
O9 O 0.46868(19) 0.6323(2) 0.05745(17)
N1 N 0.7872(2) 0.3622(3) 0.26817(19)
H2 H 0.7644 0.4437 0.2745
H3 H 0.7359 0.3121 0.2455
C1 C 0.8569(3) 0.3665(4) 0.2056(2)
H4 H 0.8905 0.2832 0.2057
H5 H 0.9057 0.4335 0.2233
C2 C 0.8266(3) 0.3119(4) 0.3546(3)
H6 H 0.8624 0.2320 0.3475
H7 H 0.7725 0.2904 0.3857
C3 C 0.8927(3) 0.4050(3) 0.4083(2)
C4 C 0.5535(2) 0.2159(3) 0.2701(2)
C5 C 0.4929(3) 0.5189(4) 0.0461(2)
Tb1F Tb 0.939686(11) 0.277662(15) -0.063907(10)
Tb1G Tb 1.060314(11) 0.277662(15) 0.563907(10)
Tb1C Tb 0.939686(11) 0.722338(15) 0.436093(10)
Tb1A Tb 0.439686(11) 0.222338(15) 0.436093(10)
Tb1D Tb 0.439686(11) 0.777662(15) -0.063907(10)
Tb1A_2 Tb 0.439686(11) 0.222338(15) -0.563907(10)
Tb1E Tb 0.560314(11) -0.222338(15) -0.436093(10)
P1F P 0.70405(7) 0.09918(9) -0.09764(6)
O1F O 0.79618(18) 0.1717(3) -0.08730(16)
O2F O 0.73055(18) -0.0478(3) -0.09812(18)
H1F H 0.6787 -0.0939 -0.1084
O3F O 0.63415(19) 0.1254(2) -0.03770(17)
O4F O 0.57241(17) 0.1376(2) -0.48107(15)
O4G O 0.42759(17) 0.1376(2) -0.01893(15)
O4A O 1.07241(17) 0.3624(2) 0.01893(15)
O5F O 0.59420(19) -0.0130(2) -0.37836(16)
O5C O 0.59420(19) 0.0130(2) 0.12164(16)
O5E O 0.90580(19) 0.4870(2) -0.12164(16)
O6A O 0.38680(18) 0.2334(2) 0.28018(16)
O6F O 0.88680(18) 0.2666(2) -0.21982(16)
O7A O 0.42888(17) 0.1975(2) 0.15009(16)
O7G O 1.07112(17) 0.3025(2) -0.15009(16)
O8D O 0.49248(19) 0.5671(2) -0.10259(17)
O8F O 0.99248(19) 0.0671(2) -0.10259(17)
O9D O 0.53132(19) 0.3677(2) -0.05745(17)
O9B O 0.96868(19) 0.1323(2) 0.05745(17)
N1F N 0.7128(2) 0.1378(3) -0.26817(19)
H2F H 0.7356 0.0563 -0.2745
H3F H 0.7641 0.1879 -0.2455
C1F C 0.6431(3) 0.1335(4) -0.2056(2)
H4F H 0.6095 0.2168 -0.2057
H5F H 0.5943 0.0665 -0.2233
C2F C 0.6734(3) 0.1881(4) -0.3546(3)
H6F H 0.6376 0.2680 -0.3475
H7F H 0.7275 0.2096 -0.3857
C3F C 0.6073(3) 0.0950(3) -0.4083(2)
C4A C 0.4465(2) 0.2159(3) 0.2299(2)
C5D C 0.5071(3) 0.4811(4) -0.0461(2)
O10 O 0.6287(4) 0.5355(5) 0.2670(4)
O11? O 0.5000 0.5622(9) 0.2500
loop_
_geom_bond_atom_site_label_1
_geom_bond_atom_site_label_2
_geom_bond_site_symmetry_1
_geom_bond_site_symmetry_2
Tb1 O1 1_555 1_555
P1 O1 1_555 1_555
O2 P1 1_555 1_555
H1 O2 1_555 1_555
O3 P1 1_555 1_555
O4 C3 1_555 1_555
O5 C3 1_555 1_555
O6 Tb1 1_555 1_555
O7 C4 1_555 1_555
O8 Tb1 1_555 1_555
O9 C5 1_555 1_555
N1 H2 1_555 1_555
H3 N1 1_555 1_555
C1 P1 1_555 1_555
H4 C1 1_555 1_555
H5 C1 1_555 1_555
C2 N1 1_555 1_555
H6 C2 1_555 1_555
H7 C2 1_555 1_555
C3 C2 1_555 1_555
C4 O6 1_555 1_555
C5 O8 1_555 1_555
Tb1F O3 1_555 1_555
Tb1G O4 1_555 1_555
Tb1C O5 1_555 1_555
Tb1A O7 1_555 1_555
Tb1D O9 1_555 1_555
Tb1A_2 O4F 1_555 1_555
Tb1E O5F 1_555 1_555
P1F O1F 1_555 1_555
O1F Tb1F 1_555 1_555
O2F P1F 1_555 1_555
H1F O2F 1_555 1_555
O3F Tb1 1_555 1_555
O4F C3F 1_555 1_555
O4G Tb1 1_555 1_555
O4A Tb1F 1_555 1_555
O5F C3F 1_555 1_555
O5C Tb1 1_555 1_555
O5E Tb1F 1_555 1_555
O6A Tb1A 1_555 1_555
O6F Tb1F 1_555 1_555
O7A Tb1 1_555 1_555
O7G Tb1F 1_555 1_555
O8D Tb1D 1_555 1_555
O8F Tb1F 1_555 1_555
O9D Tb1 1_555 1_555
O9B Tb1F 1_555 1_555
N1F H2F 1_555 1_555
H3F N1F 1_555 1_555
C1F P1F 1_555 1_555
H4F C1F 1_555 1_555
H5F C1F 1_555 1_555
C2F N1F 1_555 1_555
H6F C2F 1_555 1_555
H7F C2F 1_555 1_555
C3F C2F 1_555 1_555
C4A C4 1_555 1_555
C5D C5 1_555 1_555
N1 C1 1_555 1_555
P1F O3F 1_555 1_555
O6A C4A 1_555 1_555
O7A C4A 1_555 1_555
O8D C5D 1_555 1_555
O9D C5D 1_555 1_555
N1F C1F 1_555 1_555

#END
