
#######################################################################
#
#                 Cambridge Crystallographic Data Centre
#                                CCDC 
#
#######################################################################
#
# If this CIF has been generated from an entry in the Cambridge 
# Structural Database, then it will include bibliographic, chemical, 
# crystal, experimental, refinement or atomic coordinate data resulting 
# from the CCDC's data processing and validation procedures.
#
#######################################################################

data_EBOSEV
_symmetry_cell_setting           monoclinic
_symmetry_space_group_name_H-M   'C 2/c'
_symmetry_Int_Tables_number      15
_space_group_name_Hall           '-C 2yn'
loop_
_symmetry_equiv_pos_site_id
_symmetry_equiv_pos_as_xyz
1 x,y,z
2 -x,y,1/2-z
3 1/2+x,1/2+y,z
4 1/2-x,1/2+y,1/2-z
5 -x,-y,-z
6 x,-y,1/2+z
7 1/2-x,1/2-y,-z
8 1/2+x,1/2-y,1/2+z
_cell_length_a                   14.132(5)
_cell_length_b                   10.507(3)
_cell_length_c                   15.816(5)
_cell_angle_alpha                90
_cell_angle_beta                 98.504(4)
_cell_angle_gamma                90
_cell_volume                     2322.62
loop_
_atom_site_label
_atom_site_type_symbol
_atom_site_fract_x
_atom_site_fract_y
_atom_site_fract_z
Eu1 Eu 0.439939(10) 0.221102(13) 0.436538(9)
P1 P 0.20318(5) 0.39968(7) 0.40092(5)
O1 O 0.29491(15) 0.3264(2) 0.41235(13)
O2 O 0.23063(15) 0.5451(2) 0.40001(15)
H1 H 0.1800 0.5942 0.3918
O3 O 0.13245(16) 0.3748(2) 0.45961(14)
O4 O 0.09780(16) 0.51135(19) 0.12189(13)
O5 O 0.07482(14) 0.3621(2) 0.01906(13)
O6 O 0.38714(15) 0.23260(19) 0.28030(14)
O7 O 0.42896(14) 0.19545(19) 0.15071(13)
O8 O 0.49345(16) 0.4327(2) 0.39794(14)
O9 O 0.53066(16) 0.6312(2) 0.44240(13)
N1 N 0.21326(18) 0.3603(2) 0.23161(15)
H2 H 0.2364 0.4411 0.2255
H3 H 0.2641 0.3102 0.2544
C1 C 0.1434(2) 0.3652(3) 0.29364(19)
H4 H 0.1099 0.2825 0.2936
H5 H 0.0951 0.4318 0.2757
C2 C 0.1748(3) 0.3105(3) 0.1454(2)
H6 H 0.1389 0.2311 0.1520
H7 H 0.2290 0.2890 0.1149
C3 C 0.1096(2) 0.4035(3) 0.09160(18)
C4 C 0.4465(2) 0.2138(2) 0.22978(19)
C5 C 0.5072(2) 0.5190(3) 0.45371(19)
Eu1F Eu 0.060061(10) 0.278898(13) 0.563462(9)
Eu1C Eu 0.060061(10) 0.721102(13) 0.063462(9)
Eu1G Eu -0.060061(10) 0.278898(13) -0.063462(9)
Eu1A Eu 0.560061(10) 0.221102(13) 0.063462(9)
Eu1D Eu 0.560061(10) 0.778898(13) 0.563462(9)
Eu1E Eu 0.439939(10) -0.221102(13) 0.936538(9)
Eu1A_2 Eu 0.560061(10) 0.221102(13) 1.063462(9)
P1F P 0.29682(5) 0.10032(7) 0.59908(5)
O1F O 0.20509(15) 0.1736(2) 0.58765(13)
O2F O 0.26937(15) -0.0451(2) 0.59999(15)
H1F H 0.3200 -0.0942 0.6082
O3F O 0.36755(16) 0.1252(2) 0.54039(14)
O4F O 0.40220(16) -0.01135(19) 0.87811(13)
O4C O 0.40220(16) 0.01135(19) 0.37811(13)
O4E O 0.09780(16) 0.48865(19) 0.62189(13)
O5F O 0.42518(14) 0.1379(2) 0.98094(13)
O5G O 0.57482(14) 0.1379(2) 0.51906(13)
O5A O -0.07482(14) 0.3621(2) 0.48094(13)
O6A O 0.61286(15) 0.23260(19) 0.21970(14)
O6F O 0.11286(15) 0.26740(19) 0.71970(14)
O7A O 0.57104(14) 0.19545(19) 0.34929(13)
O7G O -0.07104(14) 0.30455(19) 0.65071(13)
O8D O 0.50655(16) 0.5673(2) 0.60206(14)
O8F O 0.00655(16) 0.0673(2) 0.60206(14)
O9D O 0.46934(16) 0.3688(2) 0.55760(13)
O9B O 0.03066(16) 0.1312(2) 0.44240(13)
N1F N 0.28674(18) 0.1397(2) 0.76839(15)
H2F H 0.2636 0.0589 0.7745
H3F H 0.2359 0.1898 0.7456
C1F C 0.3566(2) 0.1348(3) 0.70636(19)
H4F H 0.3901 0.2175 0.7064
H5F H 0.4049 0.0682 0.7243
C2F C 0.3252(3) 0.1895(3) 0.8546(2)
H6F H 0.3611 0.2689 0.8480
H7F H 0.2710 0.2110 0.8851
C3F C 0.3904(2) 0.0965(3) 0.90840(18)
C4A C 0.5535(2) 0.2138(2) 0.27022(19)
C5D C 0.4928(2) 0.4810(3) 0.54629(19)
O10 O 0.3058(4) 0.5797(5) 0.1843(4)
O11 O 0.5000 0.5572(7) 0.2500
O12? O 0.3718(4) 0.5326(5) 0.2332(3)
loop_
_geom_bond_atom_site_label_1
_geom_bond_atom_site_label_2
_geom_bond_site_symmetry_1
_geom_bond_site_symmetry_2
Eu1 O1 1_555 1_555
P1 O1 1_555 1_555
O2 P1 1_555 1_555
H1 O2 1_555 1_555
O3 P1 1_555 1_555
O4 C3 1_555 1_555
O5 C3 1_555 1_555
O6 Eu1 1_555 1_555
O7 C4 1_555 1_555
O8 Eu1 1_555 1_555
O9 C5 1_555 1_555
N1 H2 1_555 1_555
H3 N1 1_555 1_555
C1 P1 1_555 1_555
H4 C1 1_555 1_555
H5 C1 1_555 1_555
C2 N1 1_555 1_555
H6 C2 1_555 1_555
H7 C2 1_555 1_555
C3 C2 1_555 1_555
C4 O6 1_555 1_555
C5 O8 1_555 1_555
Eu1F O3 1_555 1_555
Eu1C O4 1_555 1_555
Eu1G O5 1_555 1_555
Eu1A O7 1_555 1_555
Eu1D O9 1_555 1_555
Eu1E O4F 1_555 1_555
Eu1A_2 O5F 1_555 1_555
P1F O1F 1_555 1_555
O1F Eu1F 1_555 1_555
O2F P1F 1_555 1_555
H1F O2F 1_555 1_555
O3F Eu1 1_555 1_555
O4F C3F 1_555 1_555
O4C Eu1 1_555 1_555
O4E Eu1F 1_555 1_555
O5F C3F 1_555 1_555
O5G Eu1 1_555 1_555
O5A Eu1F 1_555 1_555
O6A Eu1A 1_555 1_555
O6F Eu1F 1_555 1_555
O7A Eu1 1_555 1_555
O7G Eu1F 1_555 1_555
O8D Eu1D 1_555 1_555
O8F Eu1F 1_555 1_555
O9D Eu1 1_555 1_555
O9B Eu1F 1_555 1_555
N1F H2F 1_555 1_555
H3F N1F 1_555 1_555
C1F P1F 1_555 1_555
H4F C1F 1_555 1_555
H5F C1F 1_555 1_555
C2F N1F 1_555 1_555
H6F C2F 1_555 1_555
H7F C2F 1_555 1_555
C3F C2F 1_555 1_555
C4A C4 1_555 1_555
C5D C5 1_555 1_555
N1 C1 1_555 1_555
P1F O3F 1_555 1_555
O6A C4A 1_555 1_555
O7A C4A 1_555 1_555
O8D C5D 1_555 1_555
O9D C5D 1_555 1_555
N1F C1F 1_555 1_555

#END
