
#######################################################################
#
#                 Cambridge Crystallographic Data Centre
#                                CCDC 
#
#######################################################################
#
# If this CIF has been generated from an entry in the Cambridge 
# Structural Database, then it will include bibliographic, chemical, 
# crystal, experimental, refinement or atomic coordinate data resulting 
# from the CCDC's data processing and validation procedures.
#
#######################################################################

data_EBOTEW
_symmetry_cell_setting           monoclinic
_symmetry_space_group_name_H-M   'P 2/c'
_symmetry_Int_Tables_number      13
_space_group_name_Hall           '-P 2yc'
loop_
_symmetry_equiv_pos_site_id
_symmetry_equiv_pos_as_xyz
1 x,y,z
2 -x,y,1/2-z
3 -x,-y,-z
4 x,-y,1/2+z
_cell_length_a                   6.5238(2)
_cell_length_b                   7.6246(2)
_cell_length_c                   19.2614(7)
_cell_angle_alpha                90
_cell_angle_beta                 108.791(3)
_cell_angle_gamma                90
_cell_volume                     907.022
loop_
_atom_site_label
_atom_site_type_symbol
_atom_site_fract_x
_atom_site_fract_y
_atom_site_fract_z
Sm1 Sm 0.34220(4) -0.40329(3) -0.103309(13)
C1 C 0.2950(8) -0.2588(7) 0.0532(3)
C2 C 0.0105(8) -0.2649(7) 0.1086(3)
C3 C 0.0115(9) -0.0808(7) 0.1104(3)
H1 H -0.0820 -0.0198 0.1293
C4 C 0.2982(8) -0.0798(7) 0.0556(3)
H2 H 0.3954 -0.0172 0.0389
C5 C 0.1545(7) 0.0077(7) 0.0833(3)
C6 C 0.1488(8) 0.2061(7) 0.0844(3)
C7 C 0.3792(9) -1.0681(7) -0.2132(3)
C8 C 0.3751(9) -0.8855(7) -0.2153(3)
H3 H 0.2894 -0.8232 -0.1936
C9 C 0.5000 -0.7982(10) -0.2500
C10 C 0.5000 -0.5980(10) -0.2500
N1 N 0.1505(7) -0.3438(6) 0.0796(2)
H4 H 0.1485 -0.4565 0.0777
N2 N 0.5000 -1.1496(8) -0.2500
H5 H 0.5000 -1.2624 -0.2500
O1 O 0.4162(5) -0.3610(5) 0.02668(19)
O2 O -0.1160(6) -0.3613(5) 0.1308(2)
O3 O -0.0112(6) 0.2813(5) 0.09383(19)
O4 O 0.3037(6) 0.2868(5) 0.0736(2)
O5 O 0.2831(6) -1.1642(5) -0.1786(2)
O6 O 0.4453(6) -0.5215(5) -0.20141(18)
Sm1B Sm 0.65780(4) -0.59671(3) 0.103309(13)
Sm1B_2 Sm -0.34220(4) -0.59671(3) 0.103309(13)
Sm1B_3 Sm -0.34220(4) 0.40329(3) 0.103309(13)
Sm1B_4 Sm 0.65780(4) 0.40329(3) 0.103309(13)
Sm1A Sm 0.65780(4) -0.40329(3) -0.396691(13)
Sm1_2 Sm 1.34220(4) -0.40329(3) -0.103309(13)
Sm1_3 Sm 1.34220(4) -1.40329(3) -0.103309(13)
Sm1_4 Sm 0.34220(4) -1.40329(3) -0.103309(13)
Sm1A_2 Sm 0.65780(4) -1.40329(3) -0.396691(13)
C1B C 0.7050(8) -0.7412(7) -0.0532(3)
C2B C 0.9895(8) -0.7351(7) -0.1086(3)
C3B C 0.9885(9) -0.9192(7) -0.1104(3)
H1B H 1.0820 -0.9802 -0.1293
C4B C 0.7018(8) -0.9202(7) -0.0556(3)
H2B H 0.6046 -0.9828 -0.0389
C5B C 0.8455(7) -1.0077(7) -0.0833(3)
C6B C 0.8512(8) -1.2061(7) -0.0844(3)
C7A C 0.6208(9) -1.0681(7) -0.2868(3)
C8A C 0.6249(9) -0.8855(7) -0.2847(3)
H3A H 0.7106 -0.8232 -0.3064
N1B N 0.8495(7) -0.6562(6) -0.0796(2)
H4B H 0.8515 -0.5435 -0.0777
O1B O 0.5838(5) -0.6390(5) -0.02668(19)
O2B O 1.1160(6) -0.6387(5) -0.1308(2)
O2B_2 O 0.1160(6) -0.6387(5) -0.1308(2)
O2_2 O 0.8840(6) -0.3613(5) 0.1308(2)
O3B O 1.0112(6) -1.2813(5) -0.09383(19)
O3B_2 O 0.0112(6) -0.2813(5) -0.09383(19)
O3_2 O 0.9888(6) -0.7187(5) 0.09383(19)
O4B O 0.6963(6) -1.2868(5) -0.0736(2)
O4B_2 O 0.6963(6) -0.2868(5) -0.0736(2)
O4_2 O 0.3037(6) -0.7132(5) 0.0736(2)
O5B O 0.7169(6) -0.8358(5) 0.1786(2)
O5_2 O 0.2831(6) -0.1642(5) -0.1786(2)
O5A O 0.7169(6) -1.1642(5) -0.3214(2)
O6B O 0.5547(6) -0.4785(5) 0.20141(18)
O6A O 0.5547(6) -0.5215(5) -0.29859(18)
loop_
_geom_bond_atom_site_label_1
_geom_bond_atom_site_label_2
_geom_bond_site_symmetry_1
_geom_bond_site_symmetry_2
Sm1 O1 1_555 1_555
C1 C4 1_555 1_555
C2 C3 1_555 1_555
C3 H1 1_555 1_555
C4 H2 1_555 1_555
C5 C3 1_555 1_555
C6 C5 1_555 1_555
C7 C8 1_555 1_555
C8 H3 1_555 1_555
C9 C8 1_555 1_555
C10 C9 1_555 1_555
N1 C1 1_555 1_555
H4 N1 1_555 1_555
N2 C7 1_555 1_555
H5 N2 1_555 1_555
O1 C1 1_555 1_555
O2 C2 1_555 1_555
O3 C6 1_555 1_555
O4 C6 1_555 1_555
O5 C7 1_555 1_555
O6 Sm1 1_555 1_555
Sm1B O1 1_555 1_555
Sm1B_2 O2 1_555 1_555
Sm1B_3 O3 1_555 1_555
Sm1B_4 O4 1_555 1_555
Sm1A O6A 1_555 1_555
Sm1_2 O2B 1_555 1_555
Sm1_3 O3B 1_555 1_555
Sm1_4 O5 1_555 1_555
Sm1A_2 O5A 1_555 1_555
C1B C4B 1_555 1_555
C2B C3B 1_555 1_555
C3B H1B 1_555 1_555
C4B H2B 1_555 1_555
C5B C3B 1_555 1_555
C6B C5B 1_555 1_555
C7A N2 1_555 1_555
C8A C9 1_555 1_555
H3A C8A 1_555 1_555
N1B C1B 1_555 1_555
H4B N1B 1_555 1_555
O1B Sm1 1_555 1_555
O2B C2B 1_555 1_555
O2B_2 Sm1 1_555 1_555
O2_2 Sm1B 1_555 1_555
O3B C6B 1_555 1_555
O3B_2 Sm1 1_555 1_555
O3_2 Sm1B 1_555 1_555
O4B Sm1_4 1_555 1_555
O4B_2 Sm1 1_555 1_555
O4_2 Sm1B 1_555 1_555
O5B Sm1B 1_555 1_555
O5_2 Sm1 1_555 1_555
O5A C7A 1_555 1_555
O6B Sm1B 1_555 1_555
O6A C10 1_555 1_555
C2 N1 1_555 1_555
C4 C5 1_555 1_555
C10 O6 1_555 1_555
Sm1B O1B 1_555 1_555
C1B O1B 1_555 1_555
C2B N1B 1_555 1_555
C4B C5B 1_555 1_555
C6B O4B 1_555 1_555
C7A C8A 1_555 1_555

#END
