
#######################################################################
#
#                 Cambridge Crystallographic Data Centre
#                                CCDC 
#
#######################################################################
#
# If this CIF has been generated from an entry in the Cambridge 
# Structural Database, then it will include bibliographic, chemical, 
# crystal, experimental, refinement or atomic coordinate data resulting 
# from the CCDC's data processing and validation procedures.
#
#######################################################################

data_EBOTAS
_symmetry_cell_setting           monoclinic
_symmetry_space_group_name_H-M   'P 2/c'
_symmetry_Int_Tables_number      13
_space_group_name_Hall           '-P 2yc'
loop_
_symmetry_equiv_pos_site_id
_symmetry_equiv_pos_as_xyz
1 x,y,z
2 -x,y,1/2-z
3 -x,-y,-z
4 x,-y,1/2+z
_cell_length_a                   6.6571(6)
_cell_length_b                   7.6931(7)
_cell_length_c                   19.610(2)
_cell_angle_alpha                90
_cell_angle_beta                 108.808(8)
_cell_angle_gamma                90
_cell_volume                     950.676
loop_
_atom_site_label
_atom_site_type_symbol
_atom_site_fract_x
_atom_site_fract_y
_atom_site_fract_z
La1 La 0.83566(12) 0.40008(9) 0.89554(4)
O1 O 0.9190(15) 0.3602(12) 1.0288(5)
O2 O 0.8033(16) -0.2822(12) 1.0727(6)
O3 O 0.4954(16) -0.2761(12) 1.0932(5)
O4 O 0.3970(16) 0.3591(12) 1.1330(6)
O5 O 0.9446(15) 0.5173(12) 0.7973(5)
O6 O 0.7837(17) 1.1534(13) 0.8187(6)
N1 N 0.6577(18) 0.3433(13) 1.0816(6)
H1 H 0.6574 0.4551 1.0809
N2 N 1.0000 1.141(2) 0.7500
H2 H 1.0000 1.2529 0.7500
C1 C 0.796(2) 0.2601(16) 1.0538(7)
C2 C 0.797(2) 0.0830(17) 1.0564(8)
H3 H 0.8914 0.0204 1.0398
C3 C 0.657(2) -0.0040(17) 1.0836(7)
C4 C 0.648(2) -0.2003(17) 1.0831(8)
C5 C 0.515(3) 0.0821(17) 1.1101(8)
H4 H 0.4205 0.0210 1.1271
C6 C 0.519(2) 0.2635(16) 1.1106(7)
C7 C 1.0000 0.597(2) 0.7500
C8 C 1.0000 0.791(3) 0.7500
C9 C 0.876(2) 0.8794(17) 0.7835(8)
H5 H 0.7896 0.8181 0.8042
C10 C 0.881(3) 1.056(2) 0.7857(8)
La1B La 1.16434(12) 0.59992(9) 1.10446(4)
La1B_2 La 1.16434(12) -0.40008(9) 1.10446(4)
La1B_3 La 0.16434(12) -0.40008(9) 1.10446(4)
La1B_4 La 0.16434(12) 0.59992(9) 1.10446(4)
La1_2 La 0.83566(12) 1.40008(9) 0.89554(4)
La1A La 1.16434(12) 0.40008(9) 0.60446(4)
La1A_2 La 1.16434(12) 1.40008(9) 0.60446(4)
La1_3 La 1.83566(12) 1.40008(9) 0.89554(4)
La1_4 La 1.83566(12) 0.40008(9) 0.89554(4)
O1B O 1.0810(15) 0.6398(12) 0.9712(5)
O2B O 1.1967(16) 1.2822(12) 0.9273(6)
O2B_2 O 1.1967(16) 0.2822(12) 0.9273(6)
O2_2 O 0.8033(16) 0.7178(12) 1.0727(6)
O3B O 1.5046(16) 1.2761(12) 0.9068(5)
O3B_2 O 0.5046(16) 0.2761(12) 0.9068(5)
O3_2 O 1.4954(16) 0.7239(12) 1.0932(5)
O4B O 1.6030(16) 0.6409(12) 0.8670(6)
O4B_2 O 0.6030(16) 0.6409(12) 0.8670(6)
O4_2 O 1.3970(16) 0.3591(12) 1.1330(6)
O5A O 1.0554(15) 0.5173(12) 0.7027(5)
O5B O 1.0554(15) 0.4827(12) 1.2027(5)
O6A O 1.2163(17) 1.1534(13) 0.6813(6)
O6_2 O 0.7837(17) 0.1534(13) 0.8187(6)
O6B O 1.2163(17) 0.8466(13) 1.1813(6)
N1B N 1.3423(18) 0.6567(13) 0.9184(6)
H1B H 1.3426 0.5449 0.9191
C1B C 1.204(2) 0.7399(16) 0.9462(7)
C2B C 1.203(2) 0.9170(17) 0.9436(8)
H3B H 1.1086 0.9796 0.9602
C3B C 1.343(2) 1.0040(17) 0.9164(7)
C4B C 1.352(2) 1.2003(17) 0.9169(8)
C5B C 1.485(3) 0.9179(17) 0.8899(8)
H4B H 1.5795 0.9790 0.8729
C6B C 1.481(2) 0.7365(16) 0.8894(7)
C9A C 1.124(2) 0.8794(17) 0.7165(8)
H5A H 1.2104 0.8181 0.6958
C10A C 1.119(3) 1.056(2) 0.7143(8)
loop_
_geom_bond_atom_site_label_1
_geom_bond_atom_site_label_2
_geom_bond_site_symmetry_1
_geom_bond_site_symmetry_2
La1 O1 1_555 1_555
O1 C1 1_555 1_555
O2 C4 1_555 1_555
O3 C4 1_555 1_555
O4 C6 1_555 1_555
O5 La1 1_555 1_555
O6 C10 1_555 1_555
N1 H1 1_555 1_555
N2 H2 1_555 1_555
C1 N1 1_555 1_555
C2 C1 1_555 1_555
H3 C2 1_555 1_555
C3 C2 1_555 1_555
C4 C3 1_555 1_555
C5 C3 1_555 1_555
H4 C5 1_555 1_555
C6 N1 1_555 1_555
C7 O5 1_555 1_555
C8 C7 1_555 1_555
C9 C8 1_555 1_555
H5 C9 1_555 1_555
C10 N2 1_555 1_555
La1B O1 1_555 1_555
La1B_2 O2 1_555 1_555
La1B_3 O3 1_555 1_555
La1B_4 O4 1_555 1_555
La1_2 O6 1_555 1_555
La1A O5A 1_555 1_555
La1A_2 O6A 1_555 1_555
La1_3 O3B 1_555 1_555
La1_4 O4B 1_555 1_555
O1B La1 1_555 1_555
O2B La1_2 1_555 1_555
O2B_2 La1 1_555 1_555
O2_2 La1B 1_555 1_555
O3B C4B 1_555 1_555
O3B_2 La1 1_555 1_555
O3_2 La1B 1_555 1_555
O4B C6B 1_555 1_555
O4B_2 La1 1_555 1_555
O4_2 La1B 1_555 1_555
O5A C7 1_555 1_555
O5B La1B 1_555 1_555
O6A C10A 1_555 1_555
O6_2 La1 1_555 1_555
O6B La1B 1_555 1_555
N1B H1B 1_555 1_555
C1B O1B 1_555 1_555
C2B C1B 1_555 1_555
H3B C2B 1_555 1_555
C3B C2B 1_555 1_555
C4B O2B 1_555 1_555
C5B C3B 1_555 1_555
H4B C5B 1_555 1_555
C6B N1B 1_555 1_555
C9A C8 1_555 1_555
H5A C9A 1_555 1_555
C10A N2 1_555 1_555
C5 C6 1_555 1_555
C9 C10 1_555 1_555
La1B O1B 1_555 1_555
N1B C1B 1_555 1_555
C3B C4B 1_555 1_555
C5B C6B 1_555 1_555
C9A C10A 1_555 1_555

#END
