
#######################################################################
#
#                 Cambridge Crystallographic Data Centre
#                                CCDC 
#
#######################################################################
#
# If this CIF has been generated from an entry in the Cambridge 
# Structural Database, then it will include bibliographic, chemical, 
# crystal, experimental, refinement or atomic coordinate data resulting 
# from the CCDC's data processing and validation procedures.
#
#######################################################################

data_EBOTOF
_symmetry_cell_setting           orthorhombic
_symmetry_space_group_name_H-M   'P m m n'
_symmetry_Int_Tables_number      59
_space_group_name_Hall           '-P 2ab 2a'
loop_
_symmetry_equiv_pos_site_id
_symmetry_equiv_pos_as_xyz
1 x,y,z
2 1/2-x,y,z
3 x,1/2-y,z
4 1/2+x,1/2+y,-z
5 -x,-y,-z
6 1/2+x,-y,-z
7 -x,1/2+y,-z
8 1/2-x,1/2-y,z
_cell_length_a                   12.05910(16)
_cell_length_b                   19.1647(4)
_cell_length_c                   4.91142(7)
_cell_angle_alpha                90
_cell_angle_beta                 90
_cell_angle_gamma                90
_cell_volume                     1135.07
loop_
_atom_site_label
_atom_site_type_symbol
_atom_site_fract_x
_atom_site_fract_y
_atom_site_fract_z
O6 O 0.6927(9) 0.1444(6) 0.0874(23)
O6A O 0.8073(9) 0.1444(6) 0.0874(23)
P1 P 0.01543(26) 0.10471(17) 0.5024(8)
F1 F 0.1461(4) 0.01350(31) -0.0737(11)
O1 O 0.0030(6) 0.08533(29) 0.2003(10)
O2 O 0.1424(4) 0.1102(4) 0.5344(15)
O3 O -0.0413(5) 0.0492(4) 0.6828(11)
O4 O 0.25000 -0.0128(5) -0.5323(21)
O5 O 0.25000 0.1319(5) 0.0434(20)
C1 C -0.0516(7) 0.18758(25) 0.5592(22)
C2 C 0.0124(12) 0.25000 0.4514(32)
Al1 Al 0.00000 0.00000 0.0000
Al2 Al 0.25000 0.06234(32) -0.2663(11)
C1B C -0.0516(7) 0.31242(25) 0.5592(22)
P1B P 0.01543(26) 0.39529(17) 0.5024(8)
O1B O 0.0030(6) 0.41467(29) 0.2003(10)
O2B O 0.1424(4) 0.3898(4) 0.5344(15)
O3B O -0.0413(5) 0.4508(4) 0.6828(11)
F1D F -0.1461(4) -0.01350(31) 0.0737(11)
Al2_2 Al 0.25000 0.06234(32) 0.7337(11)
Al1_2 Al 0.00000 0.00000 1.0000
O1D O -0.0030(6) -0.08533(29) -0.2003(10)
O3_2 O -0.0413(5) 0.0492(4) -0.3172(11)
O3D O 0.0413(5) -0.0492(4) 0.3172(11)
F1A F 0.3539(4) 0.01350(31) -0.0737(11)
O2_2 O 0.1424(4) 0.1102(4) -0.4656(15)
O2A O 0.3576(4) 0.1102(4) -0.4656(15)
Al1B Al 0.00000 0.50000 0.0000
Al2B Al 0.25000 0.43766(32) 0.7337(11)
Al1B_2 Al 0.00000 0.50000 1.0000
Al2D Al -0.25000 -0.06234(32) 0.2663(11)
loop_
_geom_bond_atom_site_label_1
_geom_bond_atom_site_label_2
_geom_bond_site_symmetry_1
_geom_bond_site_symmetry_2
P1 O1 1_555 1_555
F1 Al1 1_555 1_555
O1 Al1 1_555 1_555
O2 P1 1_555 1_555
O3 P1 1_555 1_555
O4 Al2 1_555 1_555
O5 Al2 1_555 1_555
C1 P1 1_555 1_555
C2 C1 1_555 1_555
O6 O6A 1_555 1_555
Al1 F1D 1_555 1_555
Al2 F1 1_555 1_555
C1B C2 1_555 1_555
P1B C1B 1_555 1_555
O1B P1B 1_555 1_555
O2B P1B 1_555 1_555
O3B P1B 1_555 1_555
F1D Al2D 1_555 1_555
Al2_2 O2 1_555 1_555
Al1_2 O3 1_555 1_555
O1D Al1 1_555 1_555
O3_2 Al1 1_555 1_555
O3D Al1 1_555 1_555
F1A Al2 1_555 1_555
O2_2 Al2 1_555 1_555
O2A Al2 1_555 1_555
Al1B O1B 1_555 1_555
Al2B O2B 1_555 1_555
Al1B_2 O3B 1_555 1_555

#END
