
#######################################################################
#
#                 Cambridge Crystallographic Data Centre
#                                CCDC 
#
#######################################################################
#
# If this CIF has been generated from an entry in the Cambridge 
# Structural Database, then it will include bibliographic, chemical, 
# crystal, experimental, refinement or atomic coordinate data resulting 
# from the CCDC's data processing and validation procedures.
#
#######################################################################

data_EBOWUN
_symmetry_cell_setting           monoclinic
_symmetry_space_group_name_H-M   'P 21/n'
_symmetry_Int_Tables_number      14
_space_group_name_Hall           '-P 2yn'
loop_
_symmetry_equiv_pos_site_id
_symmetry_equiv_pos_as_xyz
1 x,y,z
2 1/2+x,1/2-y,1/2+z
3 -x,-y,-z
4 1/2-x,1/2+y,1/2-z
_cell_length_a                   9.0525(7)
_cell_length_b                   15.2308(13)
_cell_length_c                   15.9726(13)
_cell_angle_alpha                90.00
_cell_angle_beta                 92.487(2)
_cell_angle_gamma                90.00
_cell_volume                     2200.18
loop_
_atom_site_label
_atom_site_type_symbol
_atom_site_fract_x
_atom_site_fract_y
_atom_site_fract_z
Cu1 Cu 0.58829(3) 0.770614(19) 0.716716(18)
O1 O 0.65320(18) 0.84805(11) 0.62809(10)
O2 O 0.7646(2) 0.73983(11) 0.56010(12)
O3 O 1.01916(19) 0.80241(11) 0.30709(10)
O4 O 1.0548(2) 0.93932(12) 0.26243(13)
C1 C 0.7303(2) 0.81827(16) 0.56933(15)
C2 C 0.7822(3) 0.88484(16) 0.50777(15)
C3 C 0.7523(3) 0.97380(17) 0.51662(16)
H1 H 0.6958 0.9935 0.5617
C4 C 0.8047(3) 1.03374(17) 0.46000(17)
H2 H 0.7840 1.0945 0.4665
C5 C 0.8871(3) 1.00597(17) 0.39387(17)
H3 H 0.9238 1.0476 0.3557
C6 C 0.9161(3) 0.91707(15) 0.38335(15)
C7 C 0.8627(3) 0.85770(16) 0.44054(15)
H4 H 0.8818 0.7969 0.4335
C8 C 1.0038(3) 0.88612(17) 0.31112(15)
N1 N 0.5009(2) 0.89029(14) 0.78538(13)
C9 C 0.4720(3) 0.88390(18) 0.86651(17)
H5 H 0.5147 0.8367 0.8980
C10 C 0.3828(3) 0.9427(2) 0.9068(2)
H6 H 0.3641 0.9359 0.9645
C11 C 0.3216(3) 1.0117(2) 0.8609(2)
H7 H 0.2578 1.0525 0.8862
C12 C 0.3541(3) 1.0204(2) 0.7789(2)
H8 H 0.3155 1.0682 0.7467
C13 C 0.4436(3) 0.95898(18) 0.74343(19)
H9 H 0.4657 0.9658 0.6862
N2 N 0.7909(2) 0.77471(13) 0.77471(13)
C14 C 0.8583(3) 0.85257(17) 0.78512(16)
H10 H 0.8142 0.9029 0.7593
C15 C 0.9896(3) 0.86264(18) 0.83196(17)
H11 H 1.0345 0.9188 0.8382
C16 C 1.0539(3) 0.78982(19) 0.86932(16)
H12 H 1.1431 0.7950 0.9025
C17 C 0.9864(3) 0.70877(19) 0.85766(17)
H13 H 1.0294 0.6573 0.8820
C18 C 0.8557(3) 0.70419(18) 0.81009(16)
H14 H 0.8098 0.6485 0.8021
N3 N 0.3959(2) 0.74758(13) 0.65035(13)
C19 C 0.3909(3) 0.72389(17) 0.57023(16)
H15 H 0.4812 0.7156 0.5432
C20 C 0.2590(3) 0.71085(18) 0.52453(17)
H16 H 0.2593 0.6939 0.4673
C21 C 0.1273(3) 0.72276(16) 0.56334(17)
H17 H 0.0354 0.7141 0.5334
C22 C 0.1317(3) 0.74747(17) 0.64638(17)
H18 H 0.0428 0.7566 0.6747
C23 C 0.2667(3) 0.75869(17) 0.68764(16)
H19 H 0.2689 0.7750 0.7451
O3A O 0.51916(19) 0.69759(11) 0.80709(10)
Cu1A Cu 1.08829(3) 0.729386(19) 0.216716(18)
O5 O 0.6992(3) 0.56814(15) 0.61136(16)
H20 H 0.6358 0.5677 0.6560
H21 H 0.7386 0.6216 0.6023
O6? O 0.4597(8) 0.5327(4) 0.5139(4)
loop_
_geom_bond_atom_site_label_1
_geom_bond_atom_site_label_2
_geom_bond_site_symmetry_1
_geom_bond_site_symmetry_2
Cu1 O1 1_555 1_555
O1 C1 1_555 1_555
O2 C1 1_555 1_555
O3 C8 1_555 1_555
O4 C8 1_555 1_555
C1 C2 1_555 1_555
C2 C3 1_555 1_555
C3 H1 1_555 1_555
C4 C3 1_555 1_555
H2 C4 1_555 1_555
C5 C4 1_555 1_555
H3 C5 1_555 1_555
C6 C5 1_555 1_555
C7 C2 1_555 1_555
H4 C7 1_555 1_555
C8 C6 1_555 1_555
N1 Cu1 1_555 1_555
C9 N1 1_555 1_555
H5 C9 1_555 1_555
C10 C9 1_555 1_555
H6 C10 1_555 1_555
C11 C10 1_555 1_555
H7 C11 1_555 1_555
C12 C11 1_555 1_555
H8 C12 1_555 1_555
C13 N1 1_555 1_555
H9 C13 1_555 1_555
N2 Cu1 1_555 1_555
C14 N2 1_555 1_555
H10 C14 1_555 1_555
C15 C14 1_555 1_555
H11 C15 1_555 1_555
C16 C15 1_555 1_555
H12 C16 1_555 1_555
C17 C16 1_555 1_555
H13 C17 1_555 1_555
C18 N2 1_555 1_555
H14 C18 1_555 1_555
N3 Cu1 1_555 1_555
C19 N3 1_555 1_555
H15 C19 1_555 1_555
C20 C19 1_555 1_555
H16 C20 1_555 1_555
C21 C20 1_555 1_555
H17 C21 1_555 1_555
C22 C21 1_555 1_555
H18 C22 1_555 1_555
C23 N3 1_555 1_555
H19 C23 1_555 1_555
O5 H20 1_555 1_555
H21 O5 1_555 1_555
O3A Cu1 1_555 1_555
Cu1A O3 1_555 1_555
C6 C7 1_555 1_555
C12 C13 1_555 1_555
C17 C18 1_555 1_555
C22 C23 1_555 1_555

#END
