
#######################################################################
#
#                 Cambridge Crystallographic Data Centre
#                                CCDC 
#
#######################################################################
#
# If this CIF has been generated from an entry in the Cambridge 
# Structural Database, then it will include bibliographic, chemical, 
# crystal, experimental, refinement or atomic coordinate data resulting 
# from the CCDC's data processing and validation procedures.
#
#######################################################################

data_EBOXUO
_symmetry_cell_setting           monoclinic
_symmetry_space_group_name_H-M   'C 2/c'
_symmetry_Int_Tables_number      15
_space_group_name_Hall           '-C 2yn'
loop_
_symmetry_equiv_pos_site_id
_symmetry_equiv_pos_as_xyz
1 x,y,z
2 1/2+x,1/2+y,z
3 x,-y,1/2+z
4 1/2+x,1/2-y,1/2+z
5 -x,-y,-z
6 1/2-x,1/2-y,-z
7 -x,y,1/2-z
8 1/2-x,1/2+y,1/2-z
_cell_length_a                   16.8285(17)
_cell_length_b                   13.1606(14)
_cell_length_c                   7.2915(8)
_cell_angle_alpha                90.00
_cell_angle_beta                 108.009(2)
_cell_angle_gamma                90.00
_cell_volume                     1535.76
loop_
_atom_site_label
_atom_site_type_symbol
_atom_site_fract_x
_atom_site_fract_y
_atom_site_fract_z
Co1 Co -0.2500 0.2500 0.5000
O1 O -0.65283(11) 0.34531(13) 0.1340(3)
O2 O -0.71769(11) 0.47789(15) 0.2131(3)
C1 C -0.65399(15) 0.43628(19) 0.1891(3)
C2 C -0.57464(15) 0.49584(18) 0.2253(3)
C3 C -0.57385(16) 0.6017(2) 0.2302(4)
H1 H -0.6238 0.6381 0.2200
C4 C -0.5000 0.6538(3) 0.2500
H2 H -0.5000 0.7260 0.2500
C5 C -0.5000 0.4432(3) 0.2500
H3 H -0.5000 0.3711 0.2500
O3 O -0.28357(11) 0.15258(14) 0.2633(3)
H4 H -0.2593 0.0859 0.2729
C6 C -0.3380(3) 0.1717(3) 0.0767(5)
H5 H -0.3660 0.2371 0.0755
H6 H -0.3798 0.1175 0.0397
H7 H -0.3059 0.1739 -0.0149
O4 O -0.17108(11) 0.33411(14) 0.3801(3)
H8 H -0.1909 0.3990 0.3506
C7 C -0.08874(17) 0.3637(2) 0.4894(5)
H9 H -0.0610 0.3988 0.4220
H10 H -0.0900 0.4055 0.5895
H11 H -0.0601 0.3004 0.5497
C3F C -0.42615(16) 0.6017(2) 0.2698(4)
C2F C -0.42536(15) 0.49584(18) 0.2747(3)
C1F C -0.34601(15) 0.43628(19) 0.3109(3)
O1F O -0.34717(11) 0.34531(13) 0.3660(3)
Co1C Co -0.7500 0.2500 0.0000
O1C O -0.15283(11) 0.15469(13) 0.6340(3)
O3E O -0.21643(11) 0.34742(14) 0.7367(3)
H4E H -0.2407 0.4141 0.7271
C6E C -0.1620(3) 0.3283(3) 0.9233(5)
H5E H -0.1340 0.2629 0.9245
H6E H -0.1202 0.3825 0.9603
H7E H -0.1941 0.3261 1.0149
O4E O -0.32892(11) 0.16589(14) 0.6199(3)
H8E H -0.3091 0.1010 0.6494
C7E C -0.41126(17) 0.1363(2) 0.5106(5)
H9E H -0.4390 0.1012 0.5780
H10E H -0.4100 0.0945 0.4105
H11E H -0.4399 0.1996 0.4503
O2F O -0.28231(11) 0.47789(15) 0.2869(3)
H1F H -0.3762 0.6381 0.2800
loop_
_geom_bond_atom_site_label_1
_geom_bond_atom_site_label_2
_geom_bond_site_symmetry_1
_geom_bond_site_symmetry_2
Co1 O3 1_555 1_555
O1 C1 1_555 1_555
O2 C1 1_555 1_555
C1 C2 1_555 1_555
C2 C3 1_555 1_555
C3 H1 1_555 1_555
C4 C3 1_555 1_555
H2 C4 1_555 1_555
C5 C2 1_555 1_555
H3 C5 1_555 1_555
O3 H4 1_555 1_555
C6 O3 1_555 1_555
H5 C6 1_555 1_555
H6 C6 1_555 1_555
H7 C6 1_555 1_555
O4 Co1 1_555 1_555
H8 O4 1_555 1_555
C7 O4 1_555 1_555
H9 C7 1_555 1_555
H10 C7 1_555 1_555
H11 C7 1_555 1_555
C3F C4 1_555 1_555
C2F C5 1_555 1_555
C1F C2F 1_555 1_555
O1F Co1 1_555 1_555
Co1C O1 1_555 1_555
O1C Co1 1_555 1_555
O3E Co1 1_555 1_555
H4E O3E 1_555 1_555
C6E O3E 1_555 1_555
H5E C6E 1_555 1_555
H6E C6E 1_555 1_555
H7E C6E 1_555 1_555
O4E Co1 1_555 1_555
H8E O4E 1_555 1_555
C7E O4E 1_555 1_555
H9E C7E 1_555 1_555
H10E C7E 1_555 1_555
H11E C7E 1_555 1_555
O2F C1F 1_555 1_555
H1F C3F 1_555 1_555
C3F C2F 1_555 1_555
C1F O1F 1_555 1_555

#END
