
#######################################################################
#
#                 Cambridge Crystallographic Data Centre
#                                CCDC 
#
#######################################################################
#
# If this CIF has been generated from an entry in the Cambridge 
# Structural Database, then it will include bibliographic, chemical, 
# crystal, experimental, refinement or atomic coordinate data resulting 
# from the CCDC's data processing and validation procedures.
#
#######################################################################

data_EBOXAU
_symmetry_cell_setting           orthorhombic
_symmetry_space_group_name_H-M   'P n a 21'
_symmetry_Int_Tables_number      33
_space_group_name_Hall           'P 2c -2n'
loop_
_symmetry_equiv_pos_site_id
_symmetry_equiv_pos_as_xyz
1 x,y,z
2 -x,-y,1/2+z
3 1/2-x,1/2+y,1/2+z
4 1/2+x,1/2-y,z
_cell_length_a                   16.3014(16)
_cell_length_b                   16.1441(15)
_cell_length_c                   9.0093(9)
_cell_angle_alpha                90
_cell_angle_beta                 90
_cell_angle_gamma                90
_cell_volume                     2370.99
loop_
_atom_site_label
_atom_site_type_symbol
_atom_site_fract_x
_atom_site_fract_y
_atom_site_fract_z
Cu1 Cu 0.22132(2) 0.20963(2) 0.89060(7)
O1 O 0.14578(17) 0.29562(15) 0.8189(3)
O2 O 0.2490(2) 0.36314(19) 0.7090(4)
O3 O 0.20451(15) 0.62348(15) 0.4634(3)
O4 O 0.08614(17) 0.69219(16) 0.4821(4)
C1 C 0.1761(3) 0.3563(2) 0.7460(4)
C2 C 0.1172(2) 0.4256(2) 0.7084(4)
C3 C 0.0370(2) 0.4260(2) 0.7571(5)
H1 H 0.0161 0.3802 0.8114
C4 C -0.0132(2) 0.4933(2) 0.7270(5)
H2 H -0.0680 0.4940 0.7630
C5 C 0.0163(2) 0.5600(2) 0.6438(5)
H3 H -0.0188 0.6053 0.6215
C6 C 0.0967(2) 0.5600(2) 0.5938(4)
C7 C 0.1471(2) 0.4928(2) 0.6270(4)
H4 H 0.2024 0.4926 0.5939
C8 C 0.1303(2) 0.6316(2) 0.5059(4)
N1 N 0.11497(19) 0.13483(18) 0.9836(4)
C9 C 0.1226(3) 0.0533(2) 1.0133(5)
H5 H 0.1685 0.0244 0.9739
C10 C 0.0669(3) 0.0101(3) 1.0983(6)
H6 H 0.0748 -0.0472 1.1177
C11 C 0.0003(3) 0.0506(3) 1.1542(6)
H7 H -0.0386 0.0222 1.2139
C12 C -0.0094(3) 0.1337(3) 1.1222(6)
H8 H -0.0556 0.1635 1.1582
C13 C 0.0491(3) 0.1720(3) 1.0372(5)
H9 H 0.0419 0.2291 1.0154
N2 N 0.2414(2) 0.2767(2) 1.0794(4)
C14 C 0.2604(3) 0.3567(3) 1.0804(6)
H10 H 0.2648 0.3850 0.9883
C15 C 0.2739(3) 0.4002(3) 1.2090(6)
H11 H 0.2882 0.4572 1.2043
C16 C 0.2671(3) 0.3620(3) 1.3441(5)
H12 H 0.2753 0.3914 1.4342
C17 C 0.2478(4) 0.2787(3) 1.3436(6)
H13 H 0.2424 0.2491 1.4343
C18 C 0.2364(3) 0.2393(3) 1.2103(6)
H14 H 0.2243 0.1817 1.2117
N3 N 0.2225(2) 0.15185(19) 0.6888(4)
C19 C 0.2912(2) 0.1226(2) 0.6297(5)
H15 H 0.3419 0.1332 0.6783
C20 C 0.2913(3) 0.0764(3) 0.4974(6)
H16 H 0.3411 0.0558 0.4569
C21 C 0.2171(3) 0.0616(2) 0.4274(5)
H17 H 0.2152 0.0296 0.3389
C22 C 0.1464(3) 0.0934(2) 0.4870(5)
H18 H 0.0951 0.0849 0.4396
C23 C 0.1514(3) 0.1386(2) 0.6188(5)
H19 H 0.1025 0.1608 0.6602
O3B O 0.29549(15) 0.12348(15) 0.9634(3)
Cu1B Cu 0.27868(2) 0.70963(2) 0.39060(7)
O5 O 0.4043(2) 0.3015(2) 0.7438(4)
H20 H 0.3438 0.3026 0.7392
H21 H 0.3984 0.2709 0.8302
O6 O 0.4756(2) 0.3014(2) 0.4745(5)
H22 H 0.4428 0.3051 0.5549
C24 C 0.4925(4) 0.2220(3) 0.4227(7)
H23 H 0.5406 0.2237 0.3574
H24 H 0.4452 0.2010 0.3673
H25 H 0.5037 0.1853 0.5070
loop_
_geom_bond_atom_site_label_1
_geom_bond_atom_site_label_2
_geom_bond_site_symmetry_1
_geom_bond_site_symmetry_2
Cu1 O1 1_555 1_555
O1 C1 1_555 1_555
O2 C1 1_555 1_555
O3 C8 1_555 1_555
O4 C8 1_555 1_555
C1 C2 1_555 1_555
C2 C3 1_555 1_555
C3 H1 1_555 1_555
C4 C3 1_555 1_555
H2 C4 1_555 1_555
C5 C4 1_555 1_555
H3 C5 1_555 1_555
C6 C5 1_555 1_555
C7 C2 1_555 1_555
H4 C7 1_555 1_555
C8 C6 1_555 1_555
N1 Cu1 1_555 1_555
C9 N1 1_555 1_555
H5 C9 1_555 1_555
C10 C9 1_555 1_555
H6 C10 1_555 1_555
C11 C10 1_555 1_555
H7 C11 1_555 1_555
C12 C11 1_555 1_555
H8 C12 1_555 1_555
C13 N1 1_555 1_555
H9 C13 1_555 1_555
N2 Cu1 1_555 1_555
C14 N2 1_555 1_555
H10 C14 1_555 1_555
C15 C14 1_555 1_555
H11 C15 1_555 1_555
C16 C15 1_555 1_555
H12 C16 1_555 1_555
C17 C16 1_555 1_555
H13 C17 1_555 1_555
C18 N2 1_555 1_555
H14 C18 1_555 1_555
N3 Cu1 1_555 1_555
C19 N3 1_555 1_555
H15 C19 1_555 1_555
C20 C19 1_555 1_555
H16 C20 1_555 1_555
C21 C20 1_555 1_555
H17 C21 1_555 1_555
C22 C21 1_555 1_555
H18 C22 1_555 1_555
C23 N3 1_555 1_555
H19 C23 1_555 1_555
O5 H20 1_555 1_555
H21 O5 1_555 1_555
O6 H22 1_555 1_555
C24 O6 1_555 1_555
H23 C24 1_555 1_555
H24 C24 1_555 1_555
H25 C24 1_555 1_555
O3B Cu1 1_555 1_555
Cu1B O3 1_555 1_555
C6 C7 1_555 1_555
C12 C13 1_555 1_555
C17 C18 1_555 1_555
C22 C23 1_555 1_555

#END
