
#######################################################################
#
#                 Cambridge Crystallographic Data Centre
#                                CCDC 
#
#######################################################################
#
# If this CIF has been generated from an entry in the Cambridge 
# Structural Database, then it will include bibliographic, chemical, 
# crystal, experimental, refinement or atomic coordinate data resulting 
# from the CCDC's data processing and validation procedures.
#
#######################################################################

data_EBOXIC
_symmetry_cell_setting           monoclinic
_symmetry_space_group_name_H-M   'P 21/n'
_symmetry_Int_Tables_number      14
_space_group_name_Hall           '-P 2yn'
loop_
_symmetry_equiv_pos_site_id
_symmetry_equiv_pos_as_xyz
1 x,y,z
2 1/2+x,1/2-y,1/2+z
3 -x,-y,-z
4 1/2-x,1/2+y,1/2-z
_cell_length_a                   8.9920(11)
_cell_length_b                   14.8039(18)
_cell_length_c                   16.959(2)
_cell_angle_alpha                90.00
_cell_angle_beta                 91.191(2)
_cell_angle_gamma                90.00
_cell_volume                     2257.04
loop_
_atom_site_label
_atom_site_type_symbol
_atom_site_fract_x
_atom_site_fract_y
_atom_site_fract_z
Co1 Co -0.07752(4) 0.23191(3) -0.21159(2)
O1 O -0.1574(2) 0.31533(14) -0.12661(11)
O2 O -0.2431(2) 0.22214(13) -0.03454(12)
O3 O -0.4845(2) 0.33700(13) 0.19499(11)
O4 O -0.5227(3) 0.48336(14) 0.21292(14)
C1 C -0.2196(3) 0.2984(2) -0.06175(16)
C2 C -0.2668(3) 0.37901(18) -0.01442(16)
C3 C -0.2366(3) 0.46710(19) -0.03783(17)
H1 H -0.1848 0.4780 -0.0851
C4 C -0.2823(3) 0.5386(2) 0.00795(18)
H2 H -0.2610 0.5986 -0.0081
C5 C -0.3589(3) 0.5243(2) 0.07686(17)
H3 H -0.3902 0.5742 0.1076
C6 C -0.3895(3) 0.43672(18) 0.10071(16)
C7 C -0.3422(3) 0.36501(18) 0.05530(16)
H4 H -0.3617 0.3050 0.0721
C8 C -0.4729(3) 0.41874(18) 0.17582(16)
N1 N 0.0095(2) 0.35328(15) -0.26754(14)
C9 C 0.0284(3) 0.35541(19) -0.34547(17)
H5 H -0.0131 0.3079 -0.3765
C10 C 0.1051(4) 0.4231(2) -0.38326(19)
H6 H 0.1176 0.4214 -0.4387
C11 C 0.1629(4) 0.4931(2) -0.3389(2)
H7 H 0.2176 0.5402 -0.3628
C12 C 0.1397(3) 0.4931(2) -0.25896(19)
H8 H 0.1759 0.5414 -0.2271
C13 C 0.0640(3) 0.4227(2) -0.22538(18)
H9 H 0.0496 0.4234 -0.1700
N2 N -0.2816(3) 0.24738(16) -0.27910(15)
C14 C -0.3571(3) 0.3257(2) -0.27757(17)
H10 H -0.3204 0.3730 -0.2447
C15 C -0.4852(3) 0.3405(2) -0.32147(18)
H11 H -0.5351 0.3970 -0.3191
C16 C -0.5402(3) 0.2721(2) -0.36900(18)
H12 H -0.6281 0.2807 -0.4002
C17 C -0.4649(3) 0.1906(2) -0.37039(18)
H13 H -0.5008 0.1422 -0.4022
C18 C -0.3373(3) 0.1808(2) -0.32500(17)
H14 H -0.2864 0.1246 -0.3261
N3 N 0.1289(3) 0.21780(15) -0.14509(14)
C19 C 0.1285(3) 0.1998(2) -0.06802(17)
H15 H 0.0356 0.1909 -0.0435
C20 C 0.2567(3) 0.1937(2) -0.02219(19)
H16 H 0.2513 0.1797 0.0323
C21 C 0.3916(3) 0.2079(2) -0.0558(2)
H17 H 0.4812 0.2048 -0.0253
C22 C 0.3937(3) 0.2270(2) -0.1355(2)
H18 H 0.4853 0.2371 -0.1610
C23 C 0.2614(3) 0.23107(19) -0.17745(19)
H19 H 0.2643 0.2440 -0.2323
O5 O -0.1394(3) 0.10040(16) -0.16961(14)
H20 H -0.088(5) 0.061(3) -0.217(2)
C24 C -0.2698(5) 0.0591(3) -0.1462(3)
H21 H -0.3233 0.0995 -0.1109
H22 H -0.2457 0.0027 -0.1185
H23 H -0.3324 0.0458 -0.1928
O3A O 0.0155(2) 0.16300(13) -0.30501(11)
Co1A Co -0.57752(4) 0.26809(3) 0.28841(2)
O6 O 0.0000 0.0000 0.0000
O7? O -0.1714(10) 0.0422(7) 0.9772(6)
loop_
_geom_bond_atom_site_label_1
_geom_bond_atom_site_label_2
_geom_bond_site_symmetry_1
_geom_bond_site_symmetry_2
Co1 O1 1_555 1_555
O1 C1 1_555 1_555
O2 C1 1_555 1_555
O3 C8 1_555 1_555
O4 C8 1_555 1_555
C1 C2 1_555 1_555
C2 C3 1_555 1_555
C3 H1 1_555 1_555
C4 C3 1_555 1_555
H2 C4 1_555 1_555
C5 C4 1_555 1_555
H3 C5 1_555 1_555
C6 C5 1_555 1_555
C7 C2 1_555 1_555
H4 C7 1_555 1_555
C8 C6 1_555 1_555
N1 Co1 1_555 1_555
C9 N1 1_555 1_555
H5 C9 1_555 1_555
C10 C9 1_555 1_555
H6 C10 1_555 1_555
C11 C10 1_555 1_555
H7 C11 1_555 1_555
C12 C11 1_555 1_555
H8 C12 1_555 1_555
C13 N1 1_555 1_555
H9 C13 1_555 1_555
N2 Co1 1_555 1_555
C14 N2 1_555 1_555
H10 C14 1_555 1_555
C15 C14 1_555 1_555
H11 C15 1_555 1_555
C16 C15 1_555 1_555
H12 C16 1_555 1_555
C17 C16 1_555 1_555
H13 C17 1_555 1_555
C18 N2 1_555 1_555
H14 C18 1_555 1_555
N3 Co1 1_555 1_555
C19 N3 1_555 1_555
H15 C19 1_555 1_555
C20 C19 1_555 1_555
H16 C20 1_555 1_555
C21 C20 1_555 1_555
H17 C21 1_555 1_555
C22 C21 1_555 1_555
H18 C22 1_555 1_555
C23 N3 1_555 1_555
H19 C23 1_555 1_555
O5 Co1 1_555 1_555
H20 O5 1_555 1_555
C24 O5 1_555 1_555
H21 C24 1_555 1_555
H22 C24 1_555 1_555
H23 C24 1_555 1_555
O3A Co1 1_555 1_555
Co1A O3 1_555 1_555
C6 C7 1_555 1_555
C12 C13 1_555 1_555
C17 C18 1_555 1_555
C22 C23 1_555 1_555

#END
