
#######################################################################
#
#                 Cambridge Crystallographic Data Centre
#                                CCDC 
#
#######################################################################
#
# If this CIF has been generated from an entry in the Cambridge 
# Structural Database, then it will include bibliographic, chemical, 
# crystal, experimental, refinement or atomic coordinate data resulting 
# from the CCDC's data processing and validation procedures.
#
#######################################################################

data_EBOXOI
_symmetry_cell_setting           monoclinic
_symmetry_space_group_name_H-M   'P 21/n'
_symmetry_Int_Tables_number      14
_space_group_name_Hall           '-P 2yn'
loop_
_symmetry_equiv_pos_site_id
_symmetry_equiv_pos_as_xyz
1 x,y,z
2 1/2+x,1/2-y,1/2+z
3 -x,-y,-z
4 1/2-x,1/2+y,1/2-z
_cell_length_a                   9.9118(11)
_cell_length_b                   11.2256(12)
_cell_length_c                   15.6261(17)
_cell_angle_alpha                90.00
_cell_angle_beta                 101.344(2)
_cell_angle_gamma                90.00
_cell_volume                     1704.69
loop_
_atom_site_label
_atom_site_type_symbol
_atom_site_fract_x
_atom_site_fract_y
_atom_site_fract_z
Cu1 Cu -0.09786(3) -0.10480(3) -0.40361(2)
O1 O -0.20786(19) -0.05624(17) -0.31723(12)
O2 O -0.2151(2) -0.25304(18) -0.30326(13)
O3 O -0.4968(2) -0.29322(18) 0.02974(12)
O4 O -0.4688(2) -0.41432(17) -0.07877(13)
C1 C -0.2345(3) -0.1508(3) -0.27793(18)
C2 C -0.2901(3) -0.1339(2) -0.19581(18)
C3 C -0.2865(3) -0.0215(3) -0.15806(19)
H1 H -0.2522 0.0445 -0.1853
C4 C -0.3328(3) -0.0058(3) -0.08070(19)
H2 H -0.3294 0.0709 -0.0546
C5 C -0.3842(3) -0.1019(3) -0.04136(18)
H3 H -0.4148 -0.0912 0.0120
C6 C -0.3910(3) -0.2140(2) -0.08001(17)
C7 C -0.3418(3) -0.2303(2) -0.15653(17)
H4 H -0.3433 -0.3073 -0.1820
C8 C -0.4562(3) -0.3169(2) -0.04053(17)
N1 N 0.0651(2) -0.1147(2) -0.30083(15)
C9 C 0.0817(3) -0.0275(3) -0.2413(2)
H5 H 0.0238 0.0406 -0.2517
C10 C 0.1794(3) -0.0326(3) -0.1657(2)
H6 H 0.1887 0.0308 -0.1247
C11 C 0.2639(4) -0.1312(3) -0.1500(2)
H7 H 0.3314 -0.1370 -0.0978
C12 C 0.2485(3) -0.2205(3) -0.2110(2)
H8 H 0.3063 -0.2887 -0.2022
C13 C 0.1471(3) -0.2097(3) -0.2860(2)
H9 H 0.1360 -0.2719 -0.3280
N2 N -0.2668(2) -0.1030(2) -0.49955(15)
C14 C -0.2836(3) -0.0262(3) -0.5661(2)
H10 H -0.2110 0.0277 -0.5698
C15 C -0.4011(4) -0.0217(3) -0.6297(2)
H11 H -0.4097 0.0347 -0.6758
C16 C -0.5072(4) -0.1012(3) -0.6253(2)
H12 H -0.5896 -0.1003 -0.6683
C17 C -0.4899(4) -0.1807(3) -0.5574(2)
H13 H -0.5603 -0.2364 -0.5528
C18 C -0.3690(3) -0.1790(3) -0.4958(2)
H14 H -0.3582 -0.2341 -0.4488
O3A O 0.0032(2) -0.20678(18) -0.47026(12)
Cu1A Cu -0.59786(3) -0.39520(3) 0.09639(2)
Cu1C Cu -0.40214(3) -0.60480(3) -0.09639(2)
O4C O -0.0312(2) 0.08568(17) -0.42123(13)
loop_
_geom_bond_atom_site_label_1
_geom_bond_atom_site_label_2
_geom_bond_site_symmetry_1
_geom_bond_site_symmetry_2
Cu1 O1 1_555 1_555
O1 C1 1_555 1_555
O2 C1 1_555 1_555
O3 C8 1_555 1_555
O4 C8 1_555 1_555
C1 C2 1_555 1_555
C2 C3 1_555 1_555
C3 H1 1_555 1_555
C4 C3 1_555 1_555
H2 C4 1_555 1_555
C5 C4 1_555 1_555
H3 C5 1_555 1_555
C6 C5 1_555 1_555
C7 C2 1_555 1_555
H4 C7 1_555 1_555
C8 C6 1_555 1_555
N1 Cu1 1_555 1_555
C9 N1 1_555 1_555
H5 C9 1_555 1_555
C10 C9 1_555 1_555
H6 C10 1_555 1_555
C11 C10 1_555 1_555
H7 C11 1_555 1_555
C12 C11 1_555 1_555
H8 C12 1_555 1_555
C13 N1 1_555 1_555
H9 C13 1_555 1_555
N2 Cu1 1_555 1_555
C14 N2 1_555 1_555
H10 C14 1_555 1_555
C15 C14 1_555 1_555
H11 C15 1_555 1_555
C16 C15 1_555 1_555
H12 C16 1_555 1_555
C17 C16 1_555 1_555
H13 C17 1_555 1_555
C18 N2 1_555 1_555
H14 C18 1_555 1_555
O3A Cu1 1_555 1_555
Cu1A O3 1_555 1_555
Cu1C O4 1_555 1_555
O4C Cu1 1_555 1_555
C6 C7 1_555 1_555
C12 C13 1_555 1_555
C17 C18 1_555 1_555

#END
