
#######################################################################
#
#                 Cambridge Crystallographic Data Centre
#                                CCDC 
#
#######################################################################
#
# If this CIF has been generated from an entry in the Cambridge 
# Structural Database, then it will include bibliographic, chemical, 
# crystal, experimental, refinement or atomic coordinate data resulting 
# from the CCDC's data processing and validation procedures.
#
#######################################################################

data_EBOXEY
_symmetry_cell_setting           monoclinic
_symmetry_space_group_name_H-M   'P 21/n'
_symmetry_Int_Tables_number      14
_space_group_name_Hall           '-P 2yn'
loop_
_symmetry_equiv_pos_site_id
_symmetry_equiv_pos_as_xyz
1 x,y,z
2 1/2+x,1/2-y,1/2+z
3 -x,-y,-z
4 1/2-x,1/2+y,1/2-z
_cell_length_a                   9.0679(12)
_cell_length_b                   15.069(2)
_cell_length_c                   16.648(2)
_cell_angle_alpha                90.00
_cell_angle_beta                 91.772(2)
_cell_angle_gamma                90.00
_cell_volume                     2273.76
loop_
_atom_site_label
_atom_site_type_symbol
_atom_site_fract_x
_atom_site_fract_y
_atom_site_fract_z
Co1 Co 0.90469(5) 0.24826(2) 0.28132(2)
O1 O 0.8304(2) 0.17012(14) 0.37183(12)
O2 O 0.7396(3) 0.26988(14) 0.45579(14)
O3 O 0.4847(2) 0.17848(14) 0.68957(12)
O4 O 0.4852(3) 0.04091(16) 0.73348(16)
C1 C 0.7656(3) 0.19243(19) 0.43494(16)
C2 C 0.7200(3) 0.11774(19) 0.48917(15)
C3 C 0.7506(3) 0.0301(2) 0.47315(18)
H1 H 0.8016 0.0152 0.4260
C4 C 0.7086(4) -0.0361(2) 0.5242(2)
H2 H 0.7317 -0.0962 0.5128
C5 C 0.6319(4) -0.0150(2) 0.59305(19)
H3 H 0.6024 -0.0609 0.6283
C6 C 0.5988(3) 0.07243(19) 0.61016(17)
C7 C 0.6429(3) 0.13821(18) 0.55805(16)
H4 H 0.6202 0.1984 0.5694
C8 C 0.5152(3) 0.0977(2) 0.68374(17)
N1 N 1.1119(3) 0.26712(17) 0.34904(16)
C9 C 1.1167(4) 0.2856(2) 0.42734(18)
H5 H 1.0261 0.2929 0.4537
C10 C 1.2460(4) 0.2948(2) 0.47217(19)
H6 H 1.2437 0.3086 0.5278
C11 C 1.3790(4) 0.2836(2) 0.4352(2)
H7 H 1.4699 0.2889 0.4647
C12 C 1.3758(4) 0.2645(2) 0.3543(2)
H8 H 1.4653 0.2566 0.3269
C13 C 1.2438(4) 0.25698(19) 0.3138(2)
H9 H 1.2440 0.2440 0.2579
N2 N 0.9963(3) 0.13217(17) 0.22611(14)
C14 C 1.0159(3) 0.1320(2) 0.14666(18)
H10 H 0.9757 0.1793 0.1153
C15 C 1.0925(4) 0.0656(2) 0.1086(2)
H11 H 1.1053 0.0674 0.0522
C16 C 1.1499(4) -0.0033(2) 0.1542(2)
H12 H 1.2057 -0.0489 0.1300
C17 C 1.1253(4) -0.0052(2) 0.2354(2)
H13 H 1.1599 -0.0533 0.2677
C18 C 1.0499(3) 0.0639(2) 0.26847(19)
H14 H 1.0351 0.0630 0.3247
N3 N 0.7009(3) 0.23005(18) 0.21349(16)
C19 C 0.6298(3) 0.1529(2) 0.21105(19)
H15 H 0.6713 0.1044 0.2403
C20 C 0.4985(3) 0.1394(2) 0.16818(19)
H16 H 0.4509 0.0833 0.1682
C21 C 0.4389(4) 0.2094(3) 0.12560(19)
H17 H 0.3497 0.2023 0.0949
C22 C 0.5103(4) 0.2902(3) 0.12802(19)
H18 H 0.4701 0.3396 0.0994
C23 C 0.6397(4) 0.2986(2) 0.17213(19)
H19 H 0.6880 0.3546 0.1737
O5 O 0.8077(3) 0.36422(17) 0.32698(16)
H20 H 0.7910 0.3500 0.3740
H21 H 0.8510 0.4120 0.3150
O3A O 0.9847(2) 0.32152(14) 0.18957(12)
Co1A Co 0.40469(5) 0.25174(2) 0.78132(2)
loop_
_geom_bond_atom_site_label_1
_geom_bond_atom_site_label_2
_geom_bond_site_symmetry_1
_geom_bond_site_symmetry_2
Co1 O1 1_555 1_555
O1 C1 1_555 1_555
O2 C1 1_555 1_555
O3 C8 1_555 1_555
O4 C8 1_555 1_555
C1 C2 1_555 1_555
C2 C3 1_555 1_555
C3 H1 1_555 1_555
C4 C3 1_555 1_555
H2 C4 1_555 1_555
C5 C4 1_555 1_555
H3 C5 1_555 1_555
C6 C5 1_555 1_555
C7 C2 1_555 1_555
H4 C7 1_555 1_555
C8 C6 1_555 1_555
N1 Co1 1_555 1_555
C9 N1 1_555 1_555
H5 C9 1_555 1_555
C10 C9 1_555 1_555
H6 C10 1_555 1_555
C11 C10 1_555 1_555
H7 C11 1_555 1_555
C12 C11 1_555 1_555
H8 C12 1_555 1_555
C13 N1 1_555 1_555
H9 C13 1_555 1_555
N2 Co1 1_555 1_555
C14 N2 1_555 1_555
H10 C14 1_555 1_555
C15 C14 1_555 1_555
H11 C15 1_555 1_555
C16 C15 1_555 1_555
H12 C16 1_555 1_555
C17 C16 1_555 1_555
H13 C17 1_555 1_555
C18 N2 1_555 1_555
H14 C18 1_555 1_555
N3 Co1 1_555 1_555
C19 N3 1_555 1_555
H15 C19 1_555 1_555
C20 C19 1_555 1_555
H16 C20 1_555 1_555
C21 C20 1_555 1_555
H17 C21 1_555 1_555
C22 C21 1_555 1_555
H18 C22 1_555 1_555
C23 N3 1_555 1_555
H19 C23 1_555 1_555
O5 Co1 1_555 1_555
H20 O5 1_555 1_555
H21 O5 1_555 1_555
O3A Co1 1_555 1_555
Co1A O3 1_555 1_555
C6 C7 1_555 1_555
C12 C13 1_555 1_555
C17 C18 1_555 1_555
C22 C23 1_555 1_555

#END
