
#######################################################################
#
#                 Cambridge Crystallographic Data Centre
#                                CCDC 
#
#######################################################################
#
# If this CIF has been generated from an entry in the Cambridge 
# Structural Database, then it will include bibliographic, chemical, 
# crystal, experimental, refinement or atomic coordinate data resulting 
# from the CCDC's data processing and validation procedures.
#
#######################################################################

data_EBOXIE
_symmetry_cell_setting           tetragonal
_symmetry_space_group_name_H-M   'P -4 21 c'
_symmetry_Int_Tables_number      114
_space_group_name_Hall           'P -4 2n'
loop_
_symmetry_equiv_pos_site_id
_symmetry_equiv_pos_as_xyz
1 x,y,z
2 -x,-y,z
3 y,-x,-z
4 -y,x,-z
5 1/2-x,1/2+y,1/2-z
6 1/2+x,1/2-y,1/2-z
7 1/2-y,1/2-x,1/2+z
8 1/2+y,1/2+x,1/2+z
_cell_length_a                   14.0358(7)
_cell_length_b                   14.0358(7)
_cell_length_c                   16.4004(15)
_cell_angle_alpha                90
_cell_angle_beta                 90
_cell_angle_gamma                90
_cell_volume                     3230.94
loop_
_atom_site_label
_atom_site_type_symbol
_atom_site_fract_x
_atom_site_fract_y
_atom_site_fract_z
Mn1 Mn 0.36173(5) 0.58649(6) 1.00305(6)
Mn2 Mn 0.44083(8) 0.71825(7) 0.86087(7)
Mn3 Mn 0.5000 0.5000 0.85972(7)
O1 O 0.4765(2) 0.5963(2) 0.9393(2)
O2 O 0.3281(3) 0.6999(3) 0.9495(3)
O3 O 0.2505(3) 0.5702(3) 1.0632(3)
O4 O 0.5185(4) 0.4015(3) 0.7849(3)
O5 O 0.3105(5) 0.7284(5) 0.7765(4)
N1 N 0.4670(6) 0.8504(5) 0.8011(5)
N2 N 0.5000 1.0000 0.7354(7)
N3 N 0.6588(4) 0.5375(4) 0.8966(3)
N4 N 0.7179(4) 0.5692(5) 0.8550(4)
N5 N 0.7758(7) 0.6027(7) 0.8130(7)
C1 C 0.2467(6) 0.7570(5) 0.9638(6)
H1 H 0.2038 0.7464 0.9175
C2 C 0.1923(6) 0.7286(6) 1.0387(6)
H2 H 0.2295 0.7472 1.0859
H3 H 0.1337 0.7653 1.0400
C3 C 0.1666(5) 0.6248(6) 1.0478(6)
H4 H 0.1270 0.6199 1.0968
C4 C 0.2750(7) 0.8615(6) 0.9607(7)
H5 H 0.3078 0.8742 0.9105
H6 H 0.2189 0.9005 0.9638
H7 H 0.3162 0.8758 1.0058
C5 C 0.1107(6) 0.5836(7) 0.9804(9)
H8 H 0.0993 0.5173 0.9911
H9 H 0.0509 0.6165 0.9761
H10 H 0.1454 0.5902 0.9303
C6 C 0.4823(6) 0.9233(5) 0.7741(5)
C7 C 0.5164(9) 0.4121(9) 0.6989(7)
C8 C 0.4768(9) 0.3343(9) 0.6578(7)
H11 H 0.4600 0.2858 0.6964
H12 H 0.4209 0.3545 0.6289
H13 H 0.5224 0.3093 0.6198
C9 C 0.5505(16) 0.502(2) 0.6720(13)
C10 C 0.2407(8) 0.6569(9) 0.7612(7)
H14 H 0.1945 0.6807 0.7231
H15 H 0.2710 0.6014 0.7389
H16 H 0.2095 0.6404 0.8114
Mn1A Mn 0.63827(5) 0.41351(6) 1.00305(6)
Mn1B Mn 0.58649(6) 0.63827(5) 0.99695(6)
Mn1C Mn 0.41351(6) 0.36173(5) 0.99695(6)
Mn2A Mn 0.55917(8) 0.28175(7) 0.86087(7)
Mn2C Mn 0.28175(7) 0.44083(8) 1.13913(7)
Mn2A_2 Mn 0.55917(8) 1.28175(7) 0.86087(7)
Mn2B Mn 0.71825(7) 0.55917(8) 1.13913(7)
O1A O 0.5235(2) 0.4037(2) 0.9393(2)
O1C O 0.4037(2) 0.4765(2) 1.0607(2)
O1B O 0.5963(2) 0.5235(2) 1.0607(2)
O2B O 0.6999(3) 0.6719(3) 1.0505(3)
O2A O 0.6719(3) 0.3001(3) 0.9495(3)
O3B O 0.5702(3) 0.7495(3) 0.9368(3)
O3A O 0.7495(3) 0.4298(3) 1.0632(3)
O3C O 0.4298(3) 0.2505(3) 0.9368(3)
O4A O 0.4815(4) 0.5985(3) 0.7849(3)
O5A O 0.6895(5) 0.2716(5) 0.7765(4)
N1A N 0.5330(6) 1.1496(5) 0.8011(5)
N1A_2 N 0.5330(6) 0.1496(5) 0.8011(5)
N3A N 0.3412(4) 0.4625(4) 0.8966(3)
N3C N 0.4625(4) 0.6588(4) 1.1034(3)
N3B N 0.5375(4) 0.3412(4) 1.1034(3)
N4A N 0.2821(4) 0.4308(5) 0.8550(4)
N5A N 0.2242(7) 0.3973(7) 0.8130(7)
C1B C 0.7570(5) 0.7533(6) 1.0362(6)
H1B H 0.7464 0.7962 1.0825
C2B C 0.7286(6) 0.8077(6) 0.9613(6)
H2B H 0.7472 0.7705 0.9141
H3B H 0.7653 0.8663 0.9600
C3B C 0.6248(6) 0.8334(5) 0.9522(6)
H4B H 0.6199 0.8730 0.9032
C4B C 0.8615(6) 0.7250(7) 1.0393(7)
H5B H 0.8742 0.6922 1.0895
H6B H 0.9005 0.7811 1.0362
H7B H 0.8758 0.6838 0.9942
C5B C 0.5836(7) 0.8893(6) 1.0196(9)
H8B H 0.5173 0.9007 1.0089
H9B H 0.6165 0.9491 1.0239
H10B H 0.5902 0.8546 1.0697
C6A C 0.5177(6) 1.0767(5) 0.7741(5)
C7A C 0.4836(9) 0.5879(9) 0.6989(7)
C8A C 0.5232(9) 0.6657(9) 0.6578(7)
H11A H 0.5400 0.7142 0.6964
H12A H 0.5791 0.6455 0.6289
H13A H 0.4776 0.6907 0.6198
C9A C 0.4495(16) 0.498(2) 0.6720(13)
C10A C 0.7593(8) 0.3431(9) 0.7612(7)
H14A H 0.8055 0.3193 0.7231
H15A H 0.7290 0.3986 0.7389
H16A H 0.7905 0.3596 0.8114
loop_
_geom_bond_atom_site_label_1
_geom_bond_atom_site_label_2
_geom_bond_site_symmetry_1
_geom_bond_site_symmetry_2
Mn1 O1 1_555 1_555
Mn2 O1 1_555 1_555
Mn3 O1 1_555 1_555
O1 Mn1B 1_555 1_555
O2 Mn1 1_555 1_555
O3 Mn1 1_555 1_555
O4 Mn3 1_555 1_555
O5 Mn2 1_555 1_555
N1 Mn2 1_555 1_555
N2 C6 1_555 1_555
N3 Mn3 1_555 1_555
N4 N3 1_555 1_555
N5 N4 1_555 1_555
C1 O2 1_555 1_555
H1 C1 1_555 1_555
C2 C1 1_555 1_555
H2 C2 1_555 1_555
H3 C2 1_555 1_555
C3 O3 1_555 1_555
H4 C3 1_555 1_555
C4 C1 1_555 1_555
H5 C4 1_555 1_555
H6 C4 1_555 1_555
H7 C4 1_555 1_555
C5 C3 1_555 1_555
H8 C5 1_555 1_555
H9 C5 1_555 1_555
H10 C5 1_555 1_555
C6 N1 1_555 1_555
C7 O4 1_555 1_555
C8 C7 1_555 1_555
H11 C8 1_555 1_555
H12 C8 1_555 1_555
H13 C8 1_555 1_555
C9 C7 1_555 1_555
C10 O5 1_555 1_555
H14 C10 1_555 1_555
H15 C10 1_555 1_555
H16 C10 1_555 1_555
Mn1A O1A 1_555 1_555
Mn1B N3 1_555 1_555
Mn1C O1A 1_555 1_555
Mn2A O4 1_555 1_555
Mn2C O3 1_555 1_555
Mn2A_2 N1A 1_555 1_555
Mn2B O1B 1_555 1_555
O1A Mn3 1_555 1_555
O1C Mn1 1_555 1_555
O1B Mn1A 1_555 1_555
O2B Mn1B 1_555 1_555
O2A Mn1A 1_555 1_555
O3B Mn2 1_555 1_555
O3A Mn1A 1_555 1_555
O3C Mn1C 1_555 1_555
O4A Mn2 1_555 1_555
O5A Mn2A 1_555 1_555
N1A C6A 1_555 1_555
N1A_2 Mn2A 1_555 1_555
N3A Mn3 1_555 1_555
N3C Mn1 1_555 1_555
N3B Mn1A 1_555 1_555
N4A N3A 1_555 1_555
N5A N4A 1_555 1_555
C1B O2B 1_555 1_555
H1B C1B 1_555 1_555
C2B C1B 1_555 1_555
H2B C2B 1_555 1_555
H3B C2B 1_555 1_555
C3B O3B 1_555 1_555
H4B C3B 1_555 1_555
C4B C1B 1_555 1_555
H5B C4B 1_555 1_555
H6B C4B 1_555 1_555
H7B C4B 1_555 1_555
C5B C3B 1_555 1_555
H8B C5B 1_555 1_555
H9B C5B 1_555 1_555
H10B C5B 1_555 1_555
C6A N2 1_555 1_555
C7A C9 1_555 1_555
C8A C7A 1_555 1_555
H11A C8A 1_555 1_555
H12A C8A 1_555 1_555
H13A C8A 1_555 1_555
C9A C7 1_555 1_555
C10A O5A 1_555 1_555
H14A C10A 1_555 1_555
H15A C10A 1_555 1_555
H16A C10A 1_555 1_555
Mn2 O2 1_555 1_555
Mn3 O4A 1_555 1_555
C2 C3 1_555 1_555
C9 C9A 1_555 1_555
Mn1B O1B 1_555 1_555
Mn1B O3B 1_555 1_555
Mn1C O1C 1_555 1_555
Mn1C N3A 1_555 1_555
Mn2A O1A 1_555 1_555
Mn2A O2A 1_555 1_555
Mn2A O3C 1_555 1_555
Mn2C O1C 1_555 1_555
Mn2B O2B 1_555 1_555
Mn2B O3A 1_555 1_555
O4A C7A 1_555 1_555
C2B C3B 1_555 1_555
C7A C9A 1_555 1_555

#END
