
#######################################################################
#
#                 Cambridge Crystallographic Data Centre
#                                CCDC 
#
#######################################################################
#
# If this CIF has been generated from an entry in the Cambridge 
# Structural Database, then it will include bibliographic, chemical, 
# crystal, experimental, refinement or atomic coordinate data resulting 
# from the CCDC's data processing and validation procedures.
#
#######################################################################

data_EBOYOK
_symmetry_cell_setting           orthorhombic
_symmetry_space_group_name_H-M   'F d d 2'
_symmetry_Int_Tables_number      43
_space_group_name_Hall           'F 2 -2d'
loop_
_symmetry_equiv_pos_site_id
_symmetry_equiv_pos_as_xyz
1 x,y,z
2 -x,-y,z
3 1/4+x,1/4-y,1/4+z
4 1/4-x,1/4+y,1/4+z
5 x,1/2+y,1/2+z
6 -x,1/2-y,1/2+z
7 1/4+x,3/4-y,3/4+z
8 1/4-x,3/4+y,3/4+z
9 1/2+x,y,1/2+z
10 1/2-x,-y,1/2+z
11 3/4+x,1/4-y,3/4+z
12 3/4-x,1/4+y,3/4+z
13 1/2+x,1/2+y,z
14 1/2-x,1/2-y,z
15 3/4+x,3/4-y,1/4+z
16 3/4-x,3/4+y,1/4+z
_cell_length_a                   17.549(9)
_cell_length_b                   26.740(11)
_cell_length_c                   9.830(4)
_cell_angle_alpha                90
_cell_angle_beta                 90
_cell_angle_gamma                90
_cell_volume                     4612.83
loop_
_atom_site_label
_atom_site_type_symbol
_atom_site_fract_x
_atom_site_fract_y
_atom_site_fract_z
Sn1 Sn 0.02436(2) 0.214027(15) 0.73704(4)
N1 N 0.0353(3) 0.18816(19) 0.5307(5)
N2 N 0.0180(3) 0.21153(18) 0.4124(6)
S1 S 0.05413(12) 0.12216(6) 0.35260(17)
S2 S 0.07676(12) 0.10613(7) 0.65820(18)
S3 S 0.00637(13) 0.20156(7) 0.14509(18)
C1 C 0.0562(3) 0.1409(2) 0.5226(6)
C2 C 0.0247(3) 0.1818(2) 0.3093(6)
C3 C -0.0769(4) 0.1794(3) 0.7982(7)
H1 H -0.1158 0.1854 0.7316
H2 H -0.0927 0.1928 0.8843
H3 H -0.0687 0.1440 0.8069
C4 C 0.1347(4) 0.2197(3) 0.8192(8)
H4 H 0.1661 0.2392 0.7594
H5 H 0.1561 0.1869 0.8292
H6 H 0.1321 0.2357 0.9066
N1E N -0.0353(3) 0.31184(19) 1.0307(5)
N2E N -0.0180(3) 0.28847(18) 0.9124(6)
S1E S -0.05413(12) 0.37784(6) 0.85260(17)
S2E S -0.07676(12) 0.39387(7) 1.15820(18)
S3E S -0.00637(13) 0.29844(7) 0.64509(18)
C1E C -0.0562(3) 0.3591(2) 1.0226(6)
C2E C -0.0247(3) 0.3182(2) 0.8093(6)
Sn1E Sn -0.02436(2) 0.285973(15) 1.23704(4)
C3E C 0.0769(4) 0.3206(3) 1.2982(7)
H1E H 0.1158 0.3146 1.2316
H2E H 0.0927 0.3072 1.3843
H3E H 0.0687 0.3560 1.3069
C4E C -0.1347(4) 0.2803(3) 1.3192(8)
H4E H -0.1661 0.2608 1.2594
H5E H -0.1561 0.3131 1.3292
H6E H -0.1321 0.2643 1.4066
Sn1E_2 Sn -0.02436(2) 0.285973(15) 0.23704(4)
N2_2 N 0.0180(3) 0.21153(18) 1.4124(6)
S3_2 S 0.00637(13) 0.20156(7) 1.14509(18)
C5 C 1.0000 0.0000 -0.0974(12)
H7 H 1.0000 0.0000 -0.1920
C6 C 0.9708(4) 0.0389(3) -0.0294(12)
H8 H 0.9501 0.0658 -0.0766
C7 C 0.9714(4) 0.0390(3) 0.1075(11)
H9 H 0.9518 0.0662 0.1550
C8 C 1.0000 0.0000 0.1751(12)
H10 H 1.0000 0.0000 0.2697
C7A C 1.0286(4) -0.0390(3) 0.1075(11)
C6A C 1.0292(4) -0.0389(3) -0.0294(12)
H8A H 1.0499 -0.0658 -0.0766
H9A H 1.0482 -0.0662 0.1550
loop_
_geom_bond_atom_site_label_1
_geom_bond_atom_site_label_2
_geom_bond_site_symmetry_1
_geom_bond_site_symmetry_2
Sn1 N1 1_555 1_555
N1 N2 1_555 1_555
N2 C2 1_555 1_555
S1 C1 1_555 1_555
S2 Sn1 1_555 1_555
S3 C2 1_555 1_555
C1 N1 1_555 1_555
C2 S1 1_555 1_555
C3 Sn1 1_555 1_555
H1 C3 1_555 1_555
H2 C3 1_555 1_555
H3 C3 1_555 1_555
C4 Sn1 1_555 1_555
H4 C4 1_555 1_555
H5 C4 1_555 1_555
H6 C4 1_555 1_555
C5 H7 1_555 1_555
C6 C5 1_555 1_555
H8 C6 1_555 1_555
C7 C6 1_555 1_555
H9 C7 1_555 1_555
C8 C7 1_555 1_555
H10 C8 1_555 1_555
C7A C8 1_555 1_555
C6A C5 1_555 1_555
H8A C6A 1_555 1_555
H9A C7A 1_555 1_555
N1E N2E 1_555 1_555
N2E Sn1 1_555 1_555
S1E C1E 1_555 1_555
S2E C1E 1_555 1_555
S3E Sn1 1_555 1_555
C1E N1E 1_555 1_555
C2E N2E 1_555 1_555
Sn1E N1E 1_555 1_555
C3E Sn1E 1_555 1_555
H1E C3E 1_555 1_555
H2E C3E 1_555 1_555
H3E C3E 1_555 1_555
C4E Sn1E 1_555 1_555
H4E C4E 1_555 1_555
H5E C4E 1_555 1_555
H6E C4E 1_555 1_555
Sn1E_2 N2 1_555 1_555
N2_2 Sn1E 1_555 1_555
S3_2 Sn1E 1_555 1_555
S2 C1 1_555 1_555
S3 Sn1E_2 1_555 1_555
C7A C6A 1_555 1_555
S1E C2E 1_555 1_555
S2E Sn1E 1_555 1_555
S3E C2E 1_555 1_555

#END
