
#######################################################################
#
#                 Cambridge Crystallographic Data Centre
#                                CCDC 
#
#######################################################################
#
# If this CIF has been generated from an entry in the Cambridge 
# Structural Database, then it will include bibliographic, chemical, 
# crystal, experimental, refinement or atomic coordinate data resulting 
# from the CCDC's data processing and validation procedures.
#
#######################################################################

data_EBUCAF
_symmetry_cell_setting           tetragonal
_symmetry_space_group_name_H-M   'P 4/n c c'
_symmetry_Int_Tables_number      130
_space_group_name_Hall           '-P 4a 2ac'
loop_
_symmetry_equiv_pos_site_id
_symmetry_equiv_pos_as_xyz
1 x,y,z
2 1/2-y,x,z
3 y,1/2-x,z
4 1/2+y,1/2+x,1/2-z
5 1/2+x,1/2+y,-z
6 1/2-x,y,1/2+z
7 x,1/2-y,1/2+z
8 y,x,1/2+z
9 -x,-y,-z
10 1/2+y,-x,-z
11 -y,1/2+x,-z
12 1/2-y,1/2-x,1/2+z
13 1/2-x,1/2-y,z
14 1/2+x,-y,1/2-z
15 -x,1/2+y,1/2-z
16 -y,-x,1/2-z
_cell_length_a                   19.0356(9)
_cell_length_b                   19.0356(9)
_cell_length_c                   16.2530(11)
_cell_angle_alpha                90
_cell_angle_beta                 90
_cell_angle_gamma                90
_cell_volume                     5889.34
loop_
_atom_site_label
_atom_site_type_symbol
_atom_site_fract_x
_atom_site_fract_y
_atom_site_fract_z
C14 C 0.22321(18) 0.18486(14) -0.23534(16)
C15 C 0.27831(18) 0.18446(14) -0.23684(16)
C14A C 0.31514(14) 0.22321(18) -0.23534(16)
C15A C 0.31554(14) 0.27831(18) -0.23684(16)
C14L C 0.27679(18) 0.31514(14) -0.23534(16)
C15L C 0.22169(18) 0.31554(14) -0.23684(16)
C14B C 0.18486(14) 0.27679(18) -0.23534(16)
C15B C 0.18446(14) 0.22169(18) -0.23684(16)
C16 C 0.8003(6) 0.3003(6) 0.2500
C17 C 0.7800(5) 0.2734(5) 0.1715(6)
C17L C 0.7200(5) 0.2266(5) 0.1715(6)
C16L C 0.6997(6) 0.1997(6) 0.2500
C17O C 0.7266(5) 0.2200(5) 0.3285(6)
C17C C 0.7734(5) 0.2800(5) 0.3285(6)
Zn1 Zn 0.44973(2) 0.02285(2) 0.18301(2)
O1 O 0.54787(13) 0.02822(14) 0.13968(17)
O2 O 0.60708(14) -0.02359(13) 0.24119(16)
O3 O 0.92035(14) 0.05643(13) 0.14097(17)
O4 O 0.86755(13) -0.00238(15) 0.24122(16)
C1 C 0.60374(19) 0.00973(18) 0.1753(2)
C2 C 0.67105(19) 0.03004(18) 0.1332(2)
C3 C 0.6693(2) 0.0573(2) 0.0543(2)
H1 H 0.6255 0.0626 0.0270
C4 C 0.7305(2) 0.0768(2) 0.0145(3)
H2 H 0.7288 0.0955 -0.0397
C5 C 0.7941(2) 0.0688(2) 0.0544(3)
H3 H 0.8362 0.0829 0.0276
C6 C 0.79738(18) 0.04058(19) 0.1327(2)
C7 C 0.73517(18) 0.02080(18) 0.1721(2)
H4 H 0.7368 0.0009 0.2257
C8 C 0.86735(19) 0.03133(19) 0.1755(2)
N1 N 0.39414(15) 0.06906(15) 0.09111(19)
C9 C 0.4215(2) 0.08820(19) 0.0187(2)
H5 H 0.4703 0.0814 0.0096
C10 C 0.3814(2) 0.11755(19) -0.0434(2)
H6 H 0.4022 0.1307 -0.0942
C11 C 0.3109(2) 0.1273(2) -0.0301(2)
H7 H 0.2820 0.1468 -0.0719
C12 C 0.2830(2) 0.1085(2) 0.0444(3)
H8 H 0.2350 0.1176 0.0559
C13 C 0.32498(18) 0.07609(14) 0.10312(16)
H9 H 0.3043 0.0587 0.1523
O1C O 0.52822(14) 0.04787(13) 0.36032(17)
O2C O 0.47641(13) 0.10708(14) 0.25881(16)
O3C O 0.55643(13) 0.42035(14) 0.35903(17)
O4C O 0.49762(15) 0.36755(13) 0.25878(16)
C1C C 0.50973(18) 0.10374(19) 0.3247(2)
C2C C 0.53004(18) 0.17105(19) 0.3668(2)
C3C C 0.5573(2) 0.1693(2) 0.4457(2)
H1C H 0.5626 0.1255 0.4730
C4C C 0.5768(2) 0.2305(2) 0.4855(3)
H2C H 0.5955 0.2288 0.5397
C5C C 0.5688(2) 0.2941(2) 0.4456(3)
H3C H 0.5829 0.3362 0.4724
C6C C 0.54058(19) 0.29738(18) 0.3673(2)
C7C C 0.52080(18) 0.23517(18) 0.3279(2)
H4C H 0.5009 0.2368 0.2743
C8C C 0.53133(19) 0.36735(19) 0.3245(2)
O1A O 0.47178(14) -0.45213(13) 0.13968(17)
O2A O 0.52359(13) -0.39292(14) 0.24119(16)
O3A O 0.44357(13) -0.07965(14) 0.14097(17)
O4A O 0.50238(15) -0.13245(13) 0.24122(16)
C1A C 0.49027(18) -0.39626(19) 0.1753(2)
C2A C 0.46996(18) -0.32895(19) 0.1332(2)
C3A C 0.4427(2) -0.3307(2) 0.0543(2)
H1A H 0.4374 -0.3745 0.0270
C4A C 0.4232(2) -0.2695(2) 0.0145(3)
H2A H 0.4045 -0.2712 -0.0397
C5A C 0.4312(2) -0.2059(2) 0.0544(3)
H3A H 0.4171 -0.1638 0.0276
C6A C 0.45942(19) -0.20262(18) 0.1327(2)
C7A C 0.47920(18) -0.26483(18) 0.1721(2)
H4A H 0.4991 -0.2632 0.2257
C8A C 0.46867(19) -0.13265(19) 0.1755(2)
O1M O 0.04787(13) -0.02822(14) 0.36032(17)
O2M O 0.10708(14) 0.02359(13) 0.25881(16)
O3M O 0.42035(14) -0.05643(13) 0.35903(17)
O4M O 0.36755(13) 0.00238(15) 0.25878(16)
C1M C 0.10374(19) -0.00973(18) 0.3247(2)
C2M C 0.17105(19) -0.03004(18) 0.3668(2)
C3M C 0.1693(2) -0.0573(2) 0.4457(2)
H1M H 0.1255 -0.0626 0.4730
C4M C 0.2305(2) -0.0768(2) 0.4855(3)
H2M H 0.2288 -0.0955 0.5397
C5M C 0.2941(2) -0.0688(2) 0.4456(3)
H3M H 0.3362 -0.0829 0.4724
C6M C 0.29738(18) -0.04058(19) 0.3673(2)
C7M C 0.23517(18) -0.02080(18) 0.3279(2)
H4M H 0.2368 -0.0009 0.2743
C8M C 0.36735(19) -0.03133(19) 0.3245(2)
Zn1C Zn 0.52285(2) -0.05027(2) 0.31699(2)
Zn1A Zn 0.47715(2) -0.55027(2) 0.18301(2)
Zn1M Zn -0.05027(2) -0.02285(2) 0.31699(2)
N1C N 0.56906(15) -0.10586(15) 0.40889(19)
C9C C 0.58820(19) -0.0785(2) 0.4813(2)
H5C H 0.5814 -0.0297 0.4904
C10C C 0.61755(19) -0.1186(2) 0.5434(2)
H6C H 0.6307 -0.0978 0.5942
C11C C 0.6273(2) -0.1891(2) 0.5301(2)
H7C H 0.6468 -0.2180 0.5719
C12C C 0.6085(2) -0.2170(2) 0.4556(3)
H8C H 0.6176 -0.2650 0.4441
C13C C 0.57609(14) -0.17502(18) 0.39688(16)
H9C H 0.5587 -0.1957 0.3477
Zn1B Zn 1.02285(2) 0.05027(2) 0.18301(2)
Zn1M_2 Zn 0.94973(2) -0.02285(2) 0.31699(2)
Zn1N Zn 0.55027(2) 0.52285(2) 0.31699(2)
Zn1A_2 Zn 0.47715(2) 0.44973(2) 0.18301(2)
Zn1N_2 Zn 0.55027(2) -0.47715(2) 0.31699(2)
Zn1B_2 Zn 0.02285(2) 0.05027(2) 0.18301(2)
O2N O 0.39292(14) -0.52359(13) 0.25881(16)
O3L O 0.57965(14) -0.55643(13) 0.14097(17)
O4C_2 O 0.49762(15) -0.63245(13) 0.25878(16)
N1A N 0.43094(15) -0.60586(15) 0.09111(19)
O2B O -0.02359(13) -0.10708(14) 0.24119(16)
O3O O -0.05643(13) 0.07965(14) 0.35903(17)
O4_2 O -0.13245(13) -0.00238(15) 0.24122(16)
N1M N -0.10586(15) -0.06906(15) 0.40889(19)
C9A C 0.41180(19) -0.5785(2) 0.0187(2)
C13A C 0.42391(14) -0.67502(18) 0.10312(16)
C12A C 0.3915(2) -0.7170(2) 0.0444(3)
H9A H 0.4413 -0.6957 0.1523
H5A H 0.4186 -0.5297 0.0096
C10A C 0.38245(19) -0.6186(2) -0.0434(2)
C11A C 0.3727(2) -0.6891(2) -0.0301(2)
H8A H 0.3824 -0.7650 0.0559
H6A H 0.3693 -0.5978 -0.0942
H7A H 0.3532 -0.7180 -0.0719
C9M C -0.0785(2) -0.08820(19) 0.4813(2)
C13M C -0.17502(18) -0.07609(14) 0.39688(16)
H5M H -0.0297 -0.0814 0.4904
C10M C -0.1186(2) -0.11755(19) 0.5434(2)
C12M C -0.2170(2) -0.1085(2) 0.4556(3)
H9M H -0.1957 -0.0587 0.3477
H6M H -0.0978 -0.1307 0.5942
C11M C -0.1891(2) -0.1273(2) 0.5301(2)
H8M H -0.2650 -0.1176 0.4441
H7M H -0.2180 -0.1468 0.5719
loop_
_geom_bond_atom_site_label_1
_geom_bond_atom_site_label_2
_geom_bond_site_symmetry_1
_geom_bond_site_symmetry_2
Zn1 O1 1_555 1_555
O1 C1 1_555 1_555
O2 C1 1_555 1_555
O3 C8 1_555 1_555
O4 C8 1_555 1_555
C1 C2 1_555 1_555
C2 C3 1_555 1_555
C3 H1 1_555 1_555
C4 C3 1_555 1_555
H2 C4 1_555 1_555
C5 C4 1_555 1_555
H3 C5 1_555 1_555
C6 C5 1_555 1_555
C7 C2 1_555 1_555
H4 C7 1_555 1_555
C8 C6 1_555 1_555
N1 Zn1 1_555 1_555
C9 N1 1_555 1_555
H5 C9 1_555 1_555
C10 C9 1_555 1_555
H6 C10 1_555 1_555
C11 C10 1_555 1_555
H7 C11 1_555 1_555
C12 C11 1_555 1_555
H8 C12 1_555 1_555
C13 N1 1_555 1_555
H9 C13 1_555 1_555
C14 C15 1_555 1_555
C15 C14A 1_555 1_555
C16 C17 1_555 1_555
C17 C17L 1_555 1_555
C14A C15A 1_555 1_555
C15A C14L 1_555 1_555
C14L C15L 1_555 1_555
C15L C14B 1_555 1_555
C14B C15B 1_555 1_555
C15B C14 1_555 1_555
C17L C16L 1_555 1_555
C16L C17O 1_555 1_555
C17O C17C 1_555 1_555
C17C C16 1_555 1_555
O1C C1C 1_555 1_555
O2C Zn1 1_555 1_555
O3C C8C 1_555 1_555
O4C C8C 1_555 1_555
C1C O2C 1_555 1_555
C2C C1C 1_555 1_555
C3C C2C 1_555 1_555
H1C C3C 1_555 1_555
C4C C3C 1_555 1_555
H2C C4C 1_555 1_555
C5C C4C 1_555 1_555
H3C C5C 1_555 1_555
C6C C5C 1_555 1_555
C7C C2C 1_555 1_555
H4C C7C 1_555 1_555
C8C C6C 1_555 1_555
O1A C1A 1_555 1_555
O2A C1A 1_555 1_555
O3A Zn1 1_555 1_555
O4A C8A 1_555 1_555
C1A C2A 1_555 1_555
C2A C3A 1_555 1_555
C3A H1A 1_555 1_555
C4A C3A 1_555 1_555
H2A C4A 1_555 1_555
C5A C4A 1_555 1_555
H3A C5A 1_555 1_555
C6A C5A 1_555 1_555
C7A C2A 1_555 1_555
H4A C7A 1_555 1_555
C8A O3A 1_555 1_555
O1M C1M 1_555 1_555
O2M C1M 1_555 1_555
O3M C8M 1_555 1_555
O4M Zn1 1_555 1_555
C1M C2M 1_555 1_555
C2M C3M 1_555 1_555
C3M H1M 1_555 1_555
C4M C3M 1_555 1_555
H2M C4M 1_555 1_555
C5M C4M 1_555 1_555
H3M C5M 1_555 1_555
C6M C5M 1_555 1_555
C7M C2M 1_555 1_555
H4M C7M 1_555 1_555
C8M O4M 1_555 1_555
Zn1C O2 1_555 1_555
Zn1A O1A 1_555 1_555
Zn1M O1M 1_555 1_555
N1C Zn1C 1_555 1_555
C9C N1C 1_555 1_555
H5C C9C 1_555 1_555
C10C C9C 1_555 1_555
H6C C10C 1_555 1_555
C11C C10C 1_555 1_555
H7C C11C 1_555 1_555
C12C C11C 1_555 1_555
H8C C12C 1_555 1_555
C13C N1C 1_555 1_555
H9C C13C 1_555 1_555
Zn1B O3 1_555 1_555
Zn1M_2 O4 1_555 1_555
Zn1N O3C 1_555 1_555
Zn1A_2 O4C 1_555 1_555
Zn1N_2 O2A 1_555 1_555
Zn1B_2 O2M 1_555 1_555
O2N Zn1A 1_555 1_555
O3L Zn1A 1_555 1_555
O4C_2 Zn1A 1_555 1_555
N1A Zn1A 1_555 1_555
O2B Zn1M 1_555 1_555
O3O Zn1M 1_555 1_555
O4_2 Zn1M 1_555 1_555
N1M Zn1M 1_555 1_555
C9A N1A 1_555 1_555
C13A N1A 1_555 1_555
C12A C13A 1_555 1_555
H9A C13A 1_555 1_555
H5A C9A 1_555 1_555
C10A C9A 1_555 1_555
C11A C12A 1_555 1_555
H8A C12A 1_555 1_555
H6A C10A 1_555 1_555
H7A C11A 1_555 1_555
C9M N1M 1_555 1_555
C13M N1M 1_555 1_555
H5M C9M 1_555 1_555
C10M C9M 1_555 1_555
C12M C13M 1_555 1_555
H9M C13M 1_555 1_555
H6M C10M 1_555 1_555
C11M C10M 1_555 1_555
H8M C12M 1_555 1_555
H7M C11M 1_555 1_555
C6 C7 1_555 1_555
C12 C13 1_555 1_555
O1C Zn1C 1_555 1_555
C6C C7C 1_555 1_555
O4A Zn1C 1_555 1_555
C6A C7A 1_555 1_555
C6A C8A 1_555 1_555
O3M Zn1C 1_555 1_555
C6M C7M 1_555 1_555
C6M C8M 1_555 1_555
C12C C13C 1_555 1_555
C10A C11A 1_555 1_555
C12M C11M 1_555 1_555

#END
