
#######################################################################
#
#                 Cambridge Crystallographic Data Centre
#                                CCDC 
#
#######################################################################
#
# If this CIF has been generated from an entry in the Cambridge 
# Structural Database, then it will include bibliographic, chemical, 
# crystal, experimental, refinement or atomic coordinate data resulting 
# from the CCDC's data processing and validation procedures.
#
#######################################################################

data_EBUDUC
_symmetry_cell_setting           monoclinic
_symmetry_space_group_name_H-M   'C 2/c'
_symmetry_Int_Tables_number      15
_space_group_name_Hall           '-C 2yn'
loop_
_symmetry_equiv_pos_site_id
_symmetry_equiv_pos_as_xyz
1 x,y,z
2 -x,y,1/2-z
3 1/2+x,1/2+y,z
4 1/2-x,1/2+y,1/2-z
5 -x,-y,-z
6 x,-y,1/2+z
7 1/2-x,1/2-y,-z
8 1/2+x,1/2-y,1/2+z
_cell_length_a                   22.479(7)
_cell_length_b                   13.058(4)
_cell_length_c                   17.853(10)
_cell_angle_alpha                90
_cell_angle_beta                 119.695(4)
_cell_angle_gamma                90
_cell_volume                     4552.21
loop_
_atom_site_label
_atom_site_type_symbol
_atom_site_fract_x
_atom_site_fract_y
_atom_site_fract_z
Zn1 Zn 0.251802(17) 0.37472(3) 0.21113(2)
N1 N 0.21269(11) 0.32764(18) 0.28661(16)
N2 N -0.15845(12) -0.04652(18) 0.28890(16)
O1 O 0.29321(14) 0.24882(19) 0.20316(18)
O2 O 0.3352(2) 0.1170(2) 0.1713(3)
O3 O 0.17525(13) 0.32669(19) 0.07068(17)
O4 O 0.19959(12) 0.49794(17) 0.15424(16)
O5 O 0.11271(15) 0.5784(2) 0.0475(2)
C1 C 0.2876(2) 0.1795(3) 0.1495(3)
C2 C 0.2258(2) 0.1717(3) 0.0616(3)
C3 C 0.1731(2) 0.2404(3) 0.0241(3)
C4 C 0.1191(3) 0.2254(4) -0.0600(3)
H1 H 0.0833 0.2721 -0.0848
C5 C 0.1199(3) 0.1406(5) -0.1054(4)
H2 H 0.0845 0.1310 -0.1616
C6 C 0.1708(4) 0.0715(4) -0.0699(5)
H3 H 0.1704 0.0149 -0.1017
C7 C 0.2232(3) 0.0841(3) 0.0127(4)
H4 H 0.2575 0.0348 0.0372
C8 C 0.1285(2) 0.4072(3) 0.0241(3)
H5 H 0.0823 0.3867 0.0085
H6 H 0.1297 0.4215 -0.0284
C9 C 0.14798(18) 0.5014(3) 0.0794(2)
C10 C 0.23998(15) 0.2480(2) 0.3391(2)
H7 H 0.2784 0.2167 0.3426
C11 C 0.21392(15) 0.2102(2) 0.3883(2)
H8 H 0.2350 0.1545 0.4243
C12 C 0.15663(14) 0.2536(2) 0.38513(19)
C13 C 0.12913(17) 0.3376(3) 0.3314(3)
H9 H 0.0910 0.3705 0.3275
C14 C 0.15755(17) 0.3726(2) 0.2837(3)
H10 H 0.1382 0.4293 0.2483
C15 C 0.12577(15) 0.2128(3) 0.4363(2)
H11 H 0.1212 0.2683 0.4693
H12 H 0.1566 0.1623 0.4769
C16 C 0.05575(15) 0.1635(3) 0.38084(19)
H13 H 0.0241 0.2139 0.3411
H14 H 0.0596 0.1082 0.3472
C17 C 0.02819(18) 0.1219(3) 0.4373(2)
H15 H 0.0621 0.0767 0.4806
H16 H 0.0209 0.1784 0.4671
C18 C -0.03780(15) 0.0642(2) 0.38653(19)
C19 C -0.10078(17) 0.1092(2) 0.3551(2)
H17 H -0.1039 0.1780 0.3661
C20 C -0.15925(16) 0.0531(2) 0.3074(2)
H18 H -0.2014 0.0854 0.2869
C21 C -0.09759(17) -0.0912(3) 0.3210(2)
H19 H -0.0956 -0.1605 0.3105
C22 C -0.03722(16) -0.0384(3) 0.3694(2)
H20 H 0.0044 -0.0726 0.3907
Zn1B Zn -0.248198(17) -0.12528(3) 0.21113(2)
N2B N 0.34155(12) 0.45348(18) 0.28890(16)
O6 O 0.4406(2) 0.1394(3) 0.3403(4)
O7 O 0.9907(2) 0.5921(5) 0.8895(3)
O8 O 0.0000 0.2512(16) 0.7500
loop_
_geom_bond_atom_site_label_1
_geom_bond_atom_site_label_2
_geom_bond_site_symmetry_1
_geom_bond_site_symmetry_2
Zn1 N1 1_555 1_555
N1 C10 1_555 1_555
N2 C20 1_555 1_555
O1 Zn1 1_555 1_555
O2 C1 1_555 1_555
O3 Zn1 1_555 1_555
O4 Zn1 1_555 1_555
O5 C9 1_555 1_555
C1 O1 1_555 1_555
C2 C1 1_555 1_555
C3 O3 1_555 1_555
C4 C3 1_555 1_555
H1 C4 1_555 1_555
C5 C4 1_555 1_555
H2 C5 1_555 1_555
C6 C5 1_555 1_555
H3 C6 1_555 1_555
C7 C2 1_555 1_555
H4 C7 1_555 1_555
C8 O3 1_555 1_555
H5 C8 1_555 1_555
H6 C8 1_555 1_555
C9 O4 1_555 1_555
C10 H7 1_555 1_555
C11 C10 1_555 1_555
H8 C11 1_555 1_555
C12 C11 1_555 1_555
C13 C12 1_555 1_555
H9 C13 1_555 1_555
C14 N1 1_555 1_555
H10 C14 1_555 1_555
C15 C12 1_555 1_555
H11 C15 1_555 1_555
H12 C15 1_555 1_555
C16 C15 1_555 1_555
H13 C16 1_555 1_555
H14 C16 1_555 1_555
C17 C16 1_555 1_555
H15 C17 1_555 1_555
H16 C17 1_555 1_555
C18 C17 1_555 1_555
C19 C18 1_555 1_555
H17 C19 1_555 1_555
C20 C19 1_555 1_555
H18 C20 1_555 1_555
C21 N2 1_555 1_555
H19 C21 1_555 1_555
C22 C18 1_555 1_555
H20 C22 1_555 1_555
Zn1B N2 1_555 1_555
N2B Zn1 1_555 1_555
C2 C3 1_555 1_555
C6 C7 1_555 1_555
C8 C9 1_555 1_555
C13 C14 1_555 1_555
C21 C22 1_555 1_555

#END
