
#######################################################################
#
#                 Cambridge Crystallographic Data Centre
#                                CCDC 
#
#######################################################################
#
# If this CIF has been generated from an entry in the Cambridge 
# Structural Database, then it will include bibliographic, chemical, 
# crystal, experimental, refinement or atomic coordinate data resulting 
# from the CCDC's data processing and validation procedures.
#
#######################################################################

data_EBUFAK
_symmetry_cell_setting           triclinic
_symmetry_space_group_name_H-M   'P -1'
_symmetry_Int_Tables_number      2
_space_group_name_Hall           '-P 1'
loop_
_symmetry_equiv_pos_site_id
_symmetry_equiv_pos_as_xyz
1 x,y,z
2 -x,-y,-z
_cell_length_a                   8.9846(2)
_cell_length_b                   9.2383(2)
_cell_length_c                   13.4394(3)
_cell_angle_alpha                82.9500(10)
_cell_angle_beta                 83.4740(10)
_cell_angle_gamma                84.5990(10)
_cell_volume                     1096.25
loop_
_atom_site_label
_atom_site_type_symbol
_atom_site_fract_x
_atom_site_fract_y
_atom_site_fract_z
Zn1 Zn 0.14279(2) 0.74005(2) 0.247249(15)
O1 O 0.21983(15) 0.53645(14) 0.22533(11)
O2 O 0.32350(16) 0.26526(14) 0.17612(11)
O3 O 0.30486(17) -0.15204(15) 0.27604(13)
O4 O 0.14449(17) 0.04453(17) 0.27339(16)
O5 O 0.3573(2) 0.64495(16) 0.09613(14)
N1 N 0.01026(17) 0.80916(17) 0.13843(12)
N2 N -0.17785(18) 0.92446(18) 0.06407(14)
N3 N -0.00232(18) 0.70719(18) 0.37284(12)
N4 N -0.17900(19) 0.6092(2) 0.47905(13)
C1 C 0.4032(2) 0.06870(19) 0.29258(14)
C2 C 0.4235(2) 0.20950(18) 0.24283(14)
C3 C 0.2723(2) -0.01506(19) 0.27880(14)
C4 C 0.3119(2) 0.53603(19) 0.14590(15)
C5 C 0.5078(3) 0.0044(3) 0.35566(19)
H1 H 0.4960 -0.0894 0.3879
C6 C 0.6297(3) 0.0759(3) 0.3720(2)
H2 H 0.6985 0.0314 0.4154
C7 C -0.4325(2) 0.9487(2) 0.01170(19)
H3 H -0.3952 0.9128 -0.0512
H4 H -0.4603 0.8683 0.0605
C8 C -0.0320(3) 0.7875(3) 0.4530(2)
H5 H 0.0155 0.8698 0.4611
C9 C -0.1090(2) 0.9030(2) 0.14764(16)
H6 H -0.1408 0.9484 0.2053
C10 C -0.1404(3) 0.7287(3) 0.5181(2)
H7 H -0.1816 0.7628 0.5784
C11 C -0.0922(2) 0.5996(2) 0.39226(15)
H8 H -0.0947 0.5266 0.3507
C12 C -0.0992(2) 0.8406(2) -0.00356(16)
H9 H -0.1210 0.8336 -0.0687
C13 C 0.3600(3) 0.3898(2) 0.10699(16)
H10 H 0.3131 0.3861 0.0459
H11 H 0.4680 0.3837 0.0892
C14 C 0.6477(3) 0.2142(3) 0.3230(2)
H12 H 0.7300 0.2628 0.3329
C15 C -0.4423(2) 0.5543(3) 0.47911(18)
H13 H -0.4780 0.6515 0.4936
H14 H -0.4295 0.5514 0.4075
C16 C 0.0172(2) 0.7691(2) 0.04274(16)
H15 H 0.0900 0.7036 0.0144
C17 C -0.3139(2) 1.0226(2) 0.0478(2)
H16 H -0.2874 1.1048 -0.0011
H17 H -0.3526 1.0607 0.1106
C18 C -0.2936(2) 0.5112(3) 0.52183(19)
H18 H -0.3080 0.5123 0.5944
H19 H -0.2593 0.4122 0.5082
C19 C 0.5454(2) 0.2815(2) 0.25936(19)
H20 H 0.5582 0.3754 0.2275
Zn1A Zn -1.14279(2) 0.25995(2) 0.752751(15)
Zn1_2 Zn 0.14279(2) -0.25995(2) 0.247249(15)
Zn1A_2 Zn -1.14279(2) 1.25995(2) -0.247249(15)
Zn1A_3 Zn -1.14279(2) 1.25995(2) 0.752751(15)
O1A O -1.21983(15) 0.46355(14) 0.77467(11)
O2A O -1.32350(16) 0.73474(14) 0.82388(11)
O3A O -1.30486(17) 1.15204(15) 0.72396(13)
O3_2 O 0.30486(17) 0.84796(15) 0.27604(13)
O3A_2 O -1.30486(17) 0.15204(15) 0.72396(13)
O4A O -1.14449(17) 0.95547(17) 0.72661(16)
O5A O -1.3573(2) 0.35505(16) 0.90387(14)
N1A N -1.01026(17) 1.19084(17) -0.13843(12)
N1A_2 N -1.01026(17) 0.19084(17) 0.86157(12)
N2A N -0.82215(18) 1.07554(18) -0.06407(14)
N3A N -0.99768(18) 0.29281(18) 0.62716(12)
N4A N -0.82100(19) 0.3908(2) 0.52095(13)
C1A C -1.4032(2) 0.93130(19) 0.70742(14)
C2A C -1.4235(2) 0.79050(18) 0.75717(14)
C3A C -1.2723(2) 1.01506(19) 0.72120(14)
C4A C -1.3119(2) 0.46397(19) 0.85410(15)
C5A C -1.5078(3) 0.9956(3) 0.64434(19)
H1A H -1.4960 1.0894 0.6121
C6A C -1.6297(3) 0.9241(3) 0.6280(2)
H2A H -1.6985 0.9686 0.5846
C7A C -0.5675(2) 1.0513(2) -0.01170(19)
H3A H -0.6048 1.0872 0.0512
H4A H -0.5397 1.1317 -0.0605
C8A C -0.9680(3) 0.2125(3) 0.5470(2)
H5A H -1.0155 0.1302 0.5389
C9A C -0.8910(2) 1.0970(2) -0.14764(16)
H6A H -0.8592 1.0516 -0.2053
C10A C -0.8596(3) 0.2713(3) 0.4819(2)
H7A H -0.8184 0.2372 0.4216
C11A C -0.9078(2) 0.4004(2) 0.60774(15)
H8A H -0.9053 0.4734 0.6493
C12A C -0.9008(2) 1.1594(2) 0.00356(16)
H9A H -0.8790 1.1664 0.0687
C13A C -1.3600(3) 0.6102(2) 0.89301(16)
H10A H -1.3131 0.6139 0.9541
H11A H -1.4680 0.6163 0.9108
C14A C -1.6477(3) 0.7858(3) 0.6770(2)
H12A H -1.7300 0.7372 0.6671
C15A C -0.5577(2) 0.4457(3) 0.52089(18)
H13A H -0.5220 0.3485 0.5064
H14A H -0.5705 0.4486 0.5925
C16A C -1.0172(2) 1.2309(2) -0.04274(16)
H15A H -1.0900 1.2964 -0.0144
C17A C -0.6861(2) 0.9774(2) -0.0478(2)
H16A H -0.7126 0.8952 0.0011
H17A H -0.6474 0.9393 -0.1106
C18A C -0.7064(2) 0.4888(3) 0.47817(19)
H18A H -0.6920 0.4877 0.4056
H19A H -0.7407 0.5878 0.4918
C19A C -1.5454(2) 0.7185(2) 0.74064(19)
H20A H -1.5582 0.6246 0.7725
O6 O -0.00176(19) 0.3288(2) 0.24597(17)
O7 O -0.1928(5) 0.4849(4) 0.1144(3)
O8 O 0.6167(4) -0.3133(5) 0.2323(3)
loop_
_geom_bond_atom_site_label_1
_geom_bond_atom_site_label_2
_geom_bond_site_symmetry_1
_geom_bond_site_symmetry_2
Zn1 O1 1_555 1_555
O1 C4 1_555 1_555
O2 C2 1_555 1_555
O3 C3 1_555 1_555
O4 C3 1_555 1_555
O5 C4 1_555 1_555
N1 Zn1 1_555 1_555
N2 C9 1_555 1_555
N3 Zn1 1_555 1_555
N4 C10 1_555 1_555
C1 C2 1_555 1_555
C2 C19 1_555 1_555
C3 C1 1_555 1_555
C4 C13 1_555 1_555
C5 C1 1_555 1_555
H1 C5 1_555 1_555
C6 C5 1_555 1_555
H2 C6 1_555 1_555
C7 H3 1_555 1_555
H4 C7 1_555 1_555
C8 N3 1_555 1_555
H5 C8 1_555 1_555
C9 N1 1_555 1_555
H6 C9 1_555 1_555
C10 C8 1_555 1_555
H7 C10 1_555 1_555
C11 N3 1_555 1_555
H8 C11 1_555 1_555
C12 N2 1_555 1_555
H9 C12 1_555 1_555
C13 O2 1_555 1_555
H10 C13 1_555 1_555
H11 C13 1_555 1_555
C14 C6 1_555 1_555
H12 C14 1_555 1_555
C15 H13 1_555 1_555
H14 C15 1_555 1_555
C16 N1 1_555 1_555
H15 C16 1_555 1_555
C17 N2 1_555 1_555
H16 C17 1_555 1_555
H17 C17 1_555 1_555
C18 N4 1_555 1_555
H18 C18 1_555 1_555
H19 C18 1_555 1_555
C19 C14 1_555 1_555
H20 C19 1_555 1_555
Zn1A O1A 1_555 1_555
Zn1_2 O3 1_555 1_555
Zn1A_2 N1A 1_555 1_555
Zn1A_3 O3A 1_555 1_555
O1A C4A 1_555 1_555
O2A C2A 1_555 1_555
O3A C3A 1_555 1_555
O3_2 Zn1 1_555 1_555
O3A_2 Zn1A 1_555 1_555
O4A C3A 1_555 1_555
O5A C4A 1_555 1_555
N1A C9A 1_555 1_555
N1A_2 Zn1A 1_555 1_555
N2A C9A 1_555 1_555
N3A Zn1A 1_555 1_555
N4A C10A 1_555 1_555
C1A C2A 1_555 1_555
C2A C19A 1_555 1_555
C3A C1A 1_555 1_555
C4A C13A 1_555 1_555
C5A C1A 1_555 1_555
H1A C5A 1_555 1_555
C6A C5A 1_555 1_555
H2A C6A 1_555 1_555
C7A C7 1_555 1_555
H3A C7A 1_555 1_555
H4A C7A 1_555 1_555
C8A N3A 1_555 1_555
H5A C8A 1_555 1_555
C9A H6A 1_555 1_555
C10A C8A 1_555 1_555
H7A C10A 1_555 1_555
C11A N3A 1_555 1_555
H8A C11A 1_555 1_555
C12A N2A 1_555 1_555
H9A C12A 1_555 1_555
C13A O2A 1_555 1_555
H10A C13A 1_555 1_555
H11A C13A 1_555 1_555
C14A C6A 1_555 1_555
H12A C14A 1_555 1_555
C15A C15 1_555 1_555
H13A C15A 1_555 1_555
H14A C15A 1_555 1_555
C16A N1A 1_555 1_555
H15A C16A 1_555 1_555
C17A N2A 1_555 1_555
H16A C17A 1_555 1_555
H17A C17A 1_555 1_555
C18A N4A 1_555 1_555
H18A C18A 1_555 1_555
H19A C18A 1_555 1_555
C19A C14A 1_555 1_555
H20A C19A 1_555 1_555
N4 C11 1_555 1_555
C7 C17 1_555 1_555
C12 C16 1_555 1_555
C15 C18 1_555 1_555
N4A C11A 1_555 1_555
C7A C17A 1_555 1_555
C12A C16A 1_555 1_555
C15A C18A 1_555 1_555

#END
