
#######################################################################
#
#                 Cambridge Crystallographic Data Centre
#                                CCDC 
#
#######################################################################
#
# If this CIF has been generated from an entry in the Cambridge 
# Structural Database, then it will include bibliographic, chemical, 
# crystal, experimental, refinement or atomic coordinate data resulting 
# from the CCDC's data processing and validation procedures.
#
#######################################################################

data_EBUFIS
_symmetry_cell_setting           monoclinic
_symmetry_space_group_name_H-M   'C 2/c'
_symmetry_Int_Tables_number      15
_space_group_name_Hall           '-C 2yn'
loop_
_symmetry_equiv_pos_site_id
_symmetry_equiv_pos_as_xyz
1 x,y,z
2 -x,y,1/2-z
3 1/2+x,1/2+y,z
4 1/2-x,1/2+y,1/2-z
5 -x,-y,-z
6 x,-y,1/2+z
7 1/2-x,1/2-y,-z
8 1/2+x,1/2-y,1/2+z
_cell_length_a                   10.64(2)
_cell_length_b                   21.61(5)
_cell_length_c                   7.347(16)
_cell_angle_alpha                90
_cell_angle_beta                 133.67
_cell_angle_gamma                90
_cell_volume                     1221.92
loop_
_atom_site_label
_atom_site_type_symbol
_atom_site_fract_x
_atom_site_fract_y
_atom_site_fract_z
Cu1 Cu 0.0000 0.22111(5) 0.7500
Cl1 Cl -0.13894(15) 0.29253(8) 0.7856(2)
C1 C 0.2265(6) 0.1455(3) 0.7219(9)
N1 N 0.0753(5) 0.1538(2) 0.6511(7)
N2 N -0.0195(5) 0.1018(3) 0.5208(8)
N3 N 0.0692(5) 0.0640(3) 0.5122(8)
N4 N 0.2258(5) 0.0904(2) 0.6384(7)
C2 C 0.3638(5) 0.0572(3) 0.6888(8)
C3 C 0.5000 0.0913(4) 0.7500
H1 H 0.5000 0.1343 0.7500
C4 C 0.3609(6) -0.0066(3) 0.6847(8)
H2 H 0.2668 -0.0281 0.6387
C5 C 0.5000 -0.0380(4) 0.7500
H3 H 0.5000 -0.0810 0.7500
H4 H 0.314(7) 0.170(3) 0.830(9)
Cu1_2 Cu 1.0000 0.22111(5) 0.7500
Cl1A Cl 0.13894(15) 0.29253(8) 0.7144(2)
C1A C 0.7735(6) 0.1455(3) 0.7781(9)
N1A N 0.9247(5) 0.1538(2) 0.8489(7)
N1A_2 N -0.0753(5) 0.1538(2) 0.8489(7)
N2A N 1.0195(5) 0.1018(3) 0.9792(8)
N3A N 0.9308(5) 0.0640(3) 0.9878(8)
N4A N 0.7742(5) 0.0904(2) 0.8616(7)
C2A C 0.6362(5) 0.0572(3) 0.8112(8)
C4A C 0.6391(6) -0.0066(3) 0.8153(8)
H2A H 0.7332 -0.0281 0.8613
H4A H 0.686(7) 0.170(3) 0.670(9)
loop_
_geom_bond_atom_site_label_1
_geom_bond_atom_site_label_2
_geom_bond_site_symmetry_1
_geom_bond_site_symmetry_2
Cu1 Cl1 1_555 1_555
C1 N1 1_555 1_555
N1 Cu1 1_555 1_555
N2 N1 1_555 1_555
N3 N2 1_555 1_555
N4 C1 1_555 1_555
C2 N4 1_555 1_555
C3 C2 1_555 1_555
H1 C3 1_555 1_555
C4 C2 1_555 1_555
H2 C4 1_555 1_555
C5 C4 1_555 1_555
H3 C5 1_555 1_555
H4 C1 1_555 1_555
Cu1_2 N1A 1_555 1_555
Cl1A Cu1 1_555 1_555
C1A N1A 1_555 1_555
N1A N2A 1_555 1_555
N1A_2 Cu1 1_555 1_555
N2A N3A 1_555 1_555
N3A N4A 1_555 1_555
N4A C1A 1_555 1_555
C2A C3 1_555 1_555
C4A C5 1_555 1_555
H2A C4A 1_555 1_555
H4A C1A 1_555 1_555
N3 N4 1_555 1_555
N4A C2A 1_555 1_555
C2A C4A 1_555 1_555

#END
