
#######################################################################
#
#                 Cambridge Crystallographic Data Centre
#                                CCDC 
#
#######################################################################
#
# If this CIF has been generated from an entry in the Cambridge 
# Structural Database, then it will include bibliographic, chemical, 
# crystal, experimental, refinement or atomic coordinate data resulting 
# from the CCDC's data processing and validation procedures.
#
#######################################################################

data_EBUFEO
_symmetry_cell_setting           monoclinic
_symmetry_space_group_name_H-M   'P 21/c'
_symmetry_Int_Tables_number      14
_space_group_name_Hall           '-P 2ybc'
loop_
_symmetry_equiv_pos_site_id
_symmetry_equiv_pos_as_xyz
1 x,y,z
2 -x,1/2+y,1/2-z
3 -x,-y,-z
4 x,1/2-y,1/2+z
_cell_length_a                   11.572(4)
_cell_length_b                   17.273(7)
_cell_length_c                   15.536(6)
_cell_angle_alpha                90
_cell_angle_beta                 98.170(7)
_cell_angle_gamma                90
_cell_volume                     3073.87
loop_
_atom_site_label
_atom_site_type_symbol
_atom_site_fract_x
_atom_site_fract_y
_atom_site_fract_z
Cd1 Cd 0.25544(8) 0.22721(5) 0.53433(5)
Cd2 Cd 0.25892(7) 0.24127(5) 0.29187(5)
N1 N 0.4291(9) 0.2971(6) 0.3049(6)
N2 N 0.5870(9) 0.3491(6) 0.2616(6)
N3 N 0.9018(9) 0.1751(6) 0.2066(7)
N4 N 1.0808(9) 0.1903(6) 0.2713(6)
O1 O 0.0814(8) 0.2896(5) 0.5010(5)
O2 O 0.1966(8) 0.3205(5) 0.4058(5)
O3 O 0.0796(8) 0.3963(5) 0.2679(5)
O4 O 0.2047(8) 0.3258(5) 0.1615(5)
O5 O 0.1266(9) 0.3908(6) 0.0474(5)
O6 O 0.4103(8) 0.3031(5) 0.5697(5)
O7 O 0.3033(8) 0.3310(5) 0.6719(5)
O8 O 0.4446(8) 0.3954(5) 0.8110(5)
O9 O 0.3142(8) 0.3319(5) 0.9177(5)
O10 O 0.4204(9) 0.3836(6) 1.0334(5)
C1 C 0.1027(11) 0.3278(7) 0.4368(7)
C2 C 0.0142(10) 0.3883(6) 0.4015(7)
C3 C -0.0624(11) 0.4142(8) 0.4581(8)
H1 H -0.0588 0.3911 0.5125
C4 C -0.1431(12) 0.4729(8) 0.4358(9)
H2 H -0.1954 0.4875 0.4731
C5 C -0.1432(12) 0.5089(8) 0.3564(9)
H3 H -0.1933 0.5504 0.3414
C6 C -0.0693(11) 0.4842(7) 0.2982(9)
H4 H -0.0731 0.5074 0.2438
C7 C 0.0098(11) 0.4249(7) 0.3218(8)
C8 C 0.0629(12) 0.4252(7) 0.1792(7)
H5 H 0.0855 0.4792 0.1786
H6 H -0.0187 0.4211 0.1546
C9 C 0.1367(11) 0.3780(7) 0.1259(7)
C10 C 0.3920(11) 0.3421(7) 0.6357(7)
C11 C 0.4770(10) 0.4051(6) 0.6636(7)
C12 C 0.5026(11) 0.4295(7) 0.7504(8)
C13 C 0.5884(11) 0.4850(7) 0.7721(8)
H7 H 0.6091 0.4999 0.8297
C14 C 0.6433(12) 0.5184(8) 0.7073(10)
H8 H 0.6998 0.5564 0.7219
C15 C 0.6152(13) 0.4961(8) 0.6211(9)
H9 H 0.6495 0.5198 0.5773
C16 C 0.5362(12) 0.4385(7) 0.6029(8)
H10 H 0.5213 0.4205 0.5459
C17 C 0.4750(13) 0.4171(9) 0.8979(8)
H11 H 0.4651 0.4725 0.9040
H12 H 0.5561 0.4044 0.9175
C18 C 0.3972(12) 0.3743(7) 0.9516(8)
C19 C 0.4795(11) 0.3232(7) 0.2393(8)
H13 H 0.4423 0.3233 0.1822
C20 C 0.5125(12) 0.3076(8) 0.3759(8)
H14 H 0.5040 0.2948 0.4328
C21 C 0.6112(13) 0.3401(8) 0.3502(8)
H15 H 0.6800 0.3533 0.3857
C22 C 0.6644(11) 0.3763(8) 0.2002(9)
H16 H 0.6189 0.3847 0.1436
H17 H 0.6994 0.4252 0.2204
C23 C 0.7613(12) 0.3167(8) 0.1919(10)
H18 H 0.8124 0.3127 0.2470
H19 H 0.8077 0.3341 0.1483
C24 C 0.7098(12) 0.2382(8) 0.1666(11)
H20 H 0.6773 0.2164 0.2155
H21 H 0.6466 0.2443 0.1190
C25 C 0.8001(11) 0.1821(8) 0.1392(10)
H22 H 0.8252 0.2003 0.0858
H23 H 0.7646 0.1315 0.1280
C26 C 1.0102(12) 0.1971(8) 0.1986(8)
H24 H 1.0326 0.2153 0.1471
C27 C 1.0140(13) 0.1619(8) 0.3304(9)
H25 H 1.0404 0.1512 0.3886
C28 C 0.9061(13) 0.1522(8) 0.2914(10)
H26 H 0.8439 0.1332 0.3169
Cd1C Cd 0.25544(8) 0.27279(5) 0.03433(5)
Cd1C_2 Cd 0.25544(8) 0.27279(5) 1.03433(5)
Cd2_2 Cd 1.25892(7) 0.24127(5) 0.29187(5)
Cd2C Cd 0.25892(7) 0.25873(5) 0.79187(5)
N4_2 N 0.0808(9) 0.1903(6) 0.2713(6)
O4C O 0.2047(8) 0.1742(5) 0.6615(5)
O5C O 0.1266(9) 0.1092(6) 0.5474(5)
O7C O 0.3033(8) 0.1690(5) 0.1719(5)
O9C O 0.3142(8) 0.1681(5) 0.4177(5)
O11 O 0.851(3) 0.4467(14) -0.0052(18)
O12 O 0.856(4) 0.196(2) 0.492(2)
loop_
_geom_bond_atom_site_label_1
_geom_bond_atom_site_label_2
_geom_bond_site_symmetry_1
_geom_bond_site_symmetry_2
Cd1 O1 1_555 1_555
Cd2 N1 1_555 1_555
N1 C19 1_555 1_555
N2 C19 1_555 1_555
N3 C25 1_555 1_555
N4 C26 1_555 1_555
O1 C1 1_555 1_555
O2 Cd1 1_555 1_555
O3 C7 1_555 1_555
O4 Cd2 1_555 1_555
O5 C9 1_555 1_555
O6 Cd1 1_555 1_555
O7 C10 1_555 1_555
O8 C12 1_555 1_555
O9 C18 1_555 1_555
O10 C18 1_555 1_555
C1 O2 1_555 1_555
C2 C1 1_555 1_555
C3 C2 1_555 1_555
H1 C3 1_555 1_555
C4 C3 1_555 1_555
H2 C4 1_555 1_555
C5 C4 1_555 1_555
H3 C5 1_555 1_555
C6 C5 1_555 1_555
H4 C6 1_555 1_555
C7 C2 1_555 1_555
C8 O3 1_555 1_555
H5 C8 1_555 1_555
H6 C8 1_555 1_555
C9 O4 1_555 1_555
C10 O6 1_555 1_555
C11 C10 1_555 1_555
C12 C11 1_555 1_555
C13 C12 1_555 1_555
H7 C13 1_555 1_555
C14 C13 1_555 1_555
H8 C14 1_555 1_555
C15 C14 1_555 1_555
H9 C15 1_555 1_555
C16 C11 1_555 1_555
H10 C16 1_555 1_555
C17 O8 1_555 1_555
H11 C17 1_555 1_555
H12 C17 1_555 1_555
C18 C17 1_555 1_555
C19 H13 1_555 1_555
C20 N1 1_555 1_555
H14 C20 1_555 1_555
C21 N2 1_555 1_555
H15 C21 1_555 1_555
C22 N2 1_555 1_555
H16 C22 1_555 1_555
H17 C22 1_555 1_555
C23 C22 1_555 1_555
H18 C23 1_555 1_555
H19 C23 1_555 1_555
C24 C23 1_555 1_555
H20 C24 1_555 1_555
H21 C24 1_555 1_555
C25 C24 1_555 1_555
H22 C25 1_555 1_555
H23 C25 1_555 1_555
C26 N3 1_555 1_555
H24 C26 1_555 1_555
C27 N4 1_555 1_555
H25 C27 1_555 1_555
C28 N3 1_555 1_555
H26 C28 1_555 1_555
Cd1C O4 1_555 1_555
Cd1C_2 O9 1_555 1_555
Cd2_2 N4 1_555 1_555
Cd2C O7 1_555 1_555
N4_2 Cd2 1_555 1_555
O4C Cd1 1_555 1_555
O5C Cd1 1_555 1_555
O7C Cd2 1_555 1_555
O9C Cd1 1_555 1_555
Cd2 O2 1_555 1_555
Cd2 O9C 1_555 1_555
O5 Cd1C 1_555 1_555
O9 Cd2C 1_555 1_555
C6 C7 1_555 1_555
C8 C9 1_555 1_555
C15 C16 1_555 1_555
C20 C21 1_555 1_555
C27 C28 1_555 1_555
Cd2C O4C 1_555 1_555

#END
