
#######################################################################
#
#                 Cambridge Crystallographic Data Centre
#                                CCDC 
#
#######################################################################
#
# If this CIF has been generated from an entry in the Cambridge 
# Structural Database, then it will include bibliographic, chemical, 
# crystal, experimental, refinement or atomic coordinate data resulting 
# from the CCDC's data processing and validation procedures.
#
#######################################################################

data_EBUFOY
_symmetry_cell_setting           orthorhombic
_symmetry_space_group_name_H-M   'P b c a'
_symmetry_Int_Tables_number      61
_space_group_name_Hall           '-P 2ac 2ab'
loop_
_symmetry_equiv_pos_site_id
_symmetry_equiv_pos_as_xyz
1 x,y,z
2 1/2-x,-y,1/2+z
3 1/2+x,1/2-y,-z
4 -x,1/2+y,1/2-z
5 -x,-y,-z
6 1/2+x,y,1/2-z
7 1/2-x,1/2+y,z
8 x,1/2-y,1/2+z
_cell_length_a                   22.687(3)
_cell_length_b                   14.2059(16)
_cell_length_c                   32.493(4)
_cell_angle_alpha                90
_cell_angle_beta                 90
_cell_angle_gamma                90
_cell_volume                     10472.1
loop_
_atom_site_label
_atom_site_type_symbol
_atom_site_fract_x
_atom_site_fract_y
_atom_site_fract_z
Ni1 Ni 0.74688(4) -0.16908(8) 0.14742(3)
Ni2 Ni 0.75792(4) 0.41717(8) -0.14896(3)
O1 O 0.7395(2) -0.0748(5) 0.19683(15)
H1 H 0.7063 -0.0474 0.1955
H2 H 0.7670 -0.0342 0.1953
O2 O 0.6723(3) -0.1138(4) 0.12141(17)
O3 O 0.6938(2) -0.2670(4) 0.17740(15)
H3 H 0.6901 -0.3155 0.1623
H4 H 0.6601 -0.2426 0.1817
O4 O 0.6419(3) -0.0035(5) 0.16472(17)
O5 O 0.7665(2) 0.3249(4) -0.19920(14)
H5 H 0.7985 0.2943 -0.1968
H6 H 0.7376 0.2868 -0.1995
O6 O 0.7145(2) 0.3149(4) -0.11633(15)
O7 O 0.8010(2) 0.5210(3) -0.18113(14)
H7 H 0.8326 0.4998 -0.1917
H8 H 0.8094 0.5668 -0.1654
O8 O 0.6811(2) 0.2110(4) -0.16214(16)
O9 O 0.5245(2) 0.1282(5) -0.00279(16)
O10 O 0.7969(3) -0.0743(4) 0.11581(16)
O11 O 0.8240(3) 0.0371(4) 0.15994(16)
O12 O 0.8359(2) 0.3685(4) -0.12468(16)
O13 O 0.8637(3) 0.2525(5) -0.16668(17)
O14 O 0.9830(2) 0.1232(5) 0.00085(18)
N1 N 0.7533(2) -0.2518(6) 0.09417(18)
N2 N 0.7482(2) -0.5023(5) -0.09513(18)
N3 N 0.8204(3) -0.2226(5) 0.17672(18)
N4 N 1.0782(3) -0.2299(6) 0.3000(3)
N5 N 0.6776(2) 0.4632(4) -0.17360(17)
N6 N 0.4092(3) 0.4840(6) -0.2848(3)
C1 C 0.6414(4) -0.0443(7) 0.1306(3)
C2 C 0.6050(4) -0.0045(6) 0.0966(2)
C3 C 0.6071(4) -0.0437(6) 0.0579(3)
H9 H 0.6266 -0.1005 0.0539
C4 C 0.5803(4) 0.0005(8) 0.0249(2)
H10 H 0.5819 -0.0271 -0.0011
C5 C 0.5514(3) 0.0847(8) 0.0300(3)
C6 C 0.5471(4) 0.1234(7) 0.0682(3)
H11 H 0.5260 0.1789 0.0721
C7 C 0.5745(4) 0.0792(6) 0.1016(3)
H12 H 0.5722 0.1065 0.1276
C8 C 0.6803(3) 0.2495(6) -0.1272(2)
C9 C 0.6384(3) 0.2165(5) -0.0951(2)
C10 C 0.6366(4) 0.2618(7) -0.0574(2)
H13 H 0.6616 0.3125 -0.0526
C11 C 0.5988(4) 0.2336(7) -0.0269(3)
H14 H 0.5976 0.2654 -0.0019
C12 C 0.5630(3) 0.1581(6) -0.0338(2)
C13 C 0.5626(4) 0.1120(7) -0.0710(3)
H15 H 0.5375 0.0612 -0.0753
C14 C 0.5999(4) 0.1420(7) -0.1018(3)
H16 H 0.5992 0.1122 -0.1273
C15 C 0.8271(4) -0.0045(6) 0.1256(3)
C16 C 0.8702(4) 0.0292(6) 0.0935(3)
C17 C 0.8717(4) -0.0124(7) 0.0548(3)
H17 H 0.8477 -0.0640 0.0496
C18 C 0.9074(4) 0.0201(7) 0.0241(3)
H18 H 0.9059 -0.0068 -0.0019
C19 C 0.9449(4) 0.0919(8) 0.0320(3)
C20 C 0.9476(4) 0.1322(8) 0.0704(3)
H19 H 0.9747 0.1797 0.0758
C21 C 0.9095(4) 0.1011(7) 0.1009(3)
H20 H 0.9105 0.1293 0.1267
C22 C 0.8643(3) 0.2948(6) -0.1330(2)
C23 C 0.9000(3) 0.2529(6) -0.0981(2)
C24 C 0.8962(3) 0.2928(6) -0.0590(2)
H21 H 0.8761 0.3492 -0.0550
C25 C 0.9225(3) 0.2478(6) -0.0260(2)
H22 H 0.9183 0.2720 0.0004
C26 C 0.9550(3) 0.1676(6) -0.0323(3)
C27 C 0.9603(4) 0.1282(7) -0.0709(3)
H23 H 0.9822 0.0736 -0.0750
C28 C 0.9322(4) 0.1724(6) -0.1037(3)
H24 H 0.9353 0.1466 -0.1299
C29 C 0.7419(4) -0.2095(7) 0.0580(2)
H25 H 0.7350 -0.1449 0.0579
C30 C 0.7399(4) -0.2566(7) 0.0214(2)
H26 H 0.7311 -0.2239 -0.0026
C31 C 0.7506(3) -0.3515(6) 0.0197(2)
C32 C 0.7657(4) -0.3934(6) 0.0564(2)
H27 H 0.7748 -0.4572 0.0570
C33 C 0.7676(4) -0.3413(6) 0.0927(2)
H28 H 0.7794 -0.3711 0.1169
C34 C 0.7284(3) -0.4149(6) -0.0927(2)
H29 H 0.7140 -0.3864 -0.1164
C35 C 0.7281(3) -0.3636(6) -0.0561(2)
H30 H 0.7141 -0.3021 -0.0560
C36 C 0.7484(3) -0.4037(7) -0.0201(2)
C37 C 0.7666(4) -0.4959(6) -0.0231(2)
H31 H 0.7795 -0.5276 0.0003
C38 C 0.7658(4) -0.5413(7) -0.0600(2)
H32 H 0.7783 -0.6036 -0.0607
C39 C 0.8751(4) -0.2133(6) 0.1599(2)
H33 H 0.8782 -0.2028 0.1317
C40 C 0.9268(4) -0.2187(6) 0.1831(3)
H34 H 0.9634 -0.2116 0.1707
C41 C 0.9222(3) -0.2351(5) 0.2253(2)
C42 C 0.8685(3) -0.2491(7) 0.2411(3)
H35 H 0.8643 -0.2637 0.2689
C43 C 0.8186(4) -0.2419(7) 0.2160(3)
H36 H 0.7818 -0.2515 0.2280
C44 C 1.0823(4) -0.2403(7) 0.2601(3)
H37 H 1.1193 -0.2467 0.2482
C45 C 1.0322(4) -0.2420(6) 0.2349(3)
H38 H 1.0367 -0.2490 0.2066
C46 C 0.9770(4) -0.2337(6) 0.2512(2)
C47 C 0.9729(4) -0.2239(7) 0.2933(2)
H39 H 0.9364 -0.2190 0.3062
C48 C 1.0249(4) -0.2215(7) 0.3160(3)
H40 H 1.0220 -0.2136 0.3444
C49 C 0.6261(3) 0.4485(5) -0.1559(2)
H41 H 0.6263 0.4321 -0.1282
C50 C 0.5729(3) 0.4554(6) -0.1745(2)
H42 H 0.5385 0.4438 -0.1598
C51 C 0.5702(3) 0.4802(6) -0.2163(2)
C52 C 0.6239(3) 0.5000(6) -0.2348(2)
H43 H 0.6248 0.5193 -0.2622
C53 C 0.6756(3) 0.4913(6) -0.2132(2)
H44 H 0.7108 0.5056 -0.2264
C54 C 0.4096(3) 0.4901(6) -0.2436(3)
H45 H 0.3739 0.4954 -0.2298
C55 C 0.4606(3) 0.4889(6) -0.2209(3)
H46 H 0.4583 0.4924 -0.1924
C56 C 0.5150(3) 0.4827(6) -0.2395(2)
C57 C 0.5138(4) 0.4760(6) -0.2827(2)
H47 H 0.5488 0.4711 -0.2974
C58 C 0.4609(4) 0.4769(6) -0.3030(3)
H48 H 0.4616 0.4721 -0.3315
Ni2_2 Ni 0.75792(4) -0.58283(8) -0.14896(3)
N2_2 N 0.7482(2) 0.4977(5) -0.09513(18)
loop_
_geom_bond_atom_site_label_1
_geom_bond_atom_site_label_2
_geom_bond_site_symmetry_1
_geom_bond_site_symmetry_2
Ni1 O1 1_555 1_555
Ni2 O5 1_555 1_555
O1 H1 1_555 1_555
H2 O1 1_555 1_555
O2 Ni1 1_555 1_555
O3 Ni1 1_555 1_555
H3 O3 1_555 1_555
H4 O3 1_555 1_555
O4 C1 1_555 1_555
O5 H5 1_555 1_555
H6 O5 1_555 1_555
O6 Ni2 1_555 1_555
O7 Ni2 1_555 1_555
H7 O7 1_555 1_555
H8 O7 1_555 1_555
O8 C8 1_555 1_555
O9 C5 1_555 1_555
O10 Ni1 1_555 1_555
O11 C15 1_555 1_555
O12 Ni2 1_555 1_555
O13 C22 1_555 1_555
O14 C19 1_555 1_555
N1 Ni1 1_555 1_555
N2 C34 1_555 1_555
N3 Ni1 1_555 1_555
N4 C44 1_555 1_555
N5 Ni2 1_555 1_555
N6 C54 1_555 1_555
C1 O2 1_555 1_555
C2 C1 1_555 1_555
C3 C2 1_555 1_555
H9 C3 1_555 1_555
C4 C3 1_555 1_555
H10 C4 1_555 1_555
C5 C4 1_555 1_555
C6 C5 1_555 1_555
H11 C6 1_555 1_555
C7 C2 1_555 1_555
H12 C7 1_555 1_555
C8 O6 1_555 1_555
C9 C8 1_555 1_555
C10 C9 1_555 1_555
H13 C10 1_555 1_555
C11 C10 1_555 1_555
H14 C11 1_555 1_555
C12 O9 1_555 1_555
C13 C12 1_555 1_555
H15 C13 1_555 1_555
C14 C9 1_555 1_555
H16 C14 1_555 1_555
C15 O10 1_555 1_555
C16 C15 1_555 1_555
C17 C16 1_555 1_555
H17 C17 1_555 1_555
C18 C17 1_555 1_555
H18 C18 1_555 1_555
C19 C18 1_555 1_555
C20 C19 1_555 1_555
H19 C20 1_555 1_555
C21 C16 1_555 1_555
H20 C21 1_555 1_555
C22 O12 1_555 1_555
C23 C22 1_555 1_555
C24 C23 1_555 1_555
H21 C24 1_555 1_555
C25 C24 1_555 1_555
H22 C25 1_555 1_555
C26 O14 1_555 1_555
C27 C26 1_555 1_555
H23 C27 1_555 1_555
C28 C23 1_555 1_555
H24 C28 1_555 1_555
C29 N1 1_555 1_555
H25 C29 1_555 1_555
C30 C29 1_555 1_555
H26 C30 1_555 1_555
C31 C30 1_555 1_555
C32 C31 1_555 1_555
H27 C32 1_555 1_555
C33 N1 1_555 1_555
H28 C33 1_555 1_555
C34 H29 1_555 1_555
C35 C34 1_555 1_555
H30 C35 1_555 1_555
C36 C31 1_555 1_555
C37 C36 1_555 1_555
H31 C37 1_555 1_555
C38 N2 1_555 1_555
H32 C38 1_555 1_555
C39 N3 1_555 1_555
H33 C39 1_555 1_555
C40 C39 1_555 1_555
H34 C40 1_555 1_555
C41 C40 1_555 1_555
C42 C41 1_555 1_555
H35 C42 1_555 1_555
C43 N3 1_555 1_555
H36 C43 1_555 1_555
C44 H37 1_555 1_555
C45 C44 1_555 1_555
H38 C45 1_555 1_555
C46 C41 1_555 1_555
C47 C46 1_555 1_555
H39 C47 1_555 1_555
C48 N4 1_555 1_555
H40 C48 1_555 1_555
C49 N5 1_555 1_555
H41 C49 1_555 1_555
C50 C49 1_555 1_555
H42 C50 1_555 1_555
C51 C50 1_555 1_555
C52 C51 1_555 1_555
H43 C52 1_555 1_555
C53 N5 1_555 1_555
H44 C53 1_555 1_555
C54 H45 1_555 1_555
C55 C54 1_555 1_555
H46 C55 1_555 1_555
C56 C51 1_555 1_555
C57 C56 1_555 1_555
H47 C57 1_555 1_555
C58 N6 1_555 1_555
H48 C58 1_555 1_555
Ni2_2 N2 1_555 1_555
N2_2 Ni2 1_555 1_555
C6 C7 1_555 1_555
C11 C12 1_555 1_555
C13 C14 1_555 1_555
C20 C21 1_555 1_555
C25 C26 1_555 1_555
C27 C28 1_555 1_555
C32 C33 1_555 1_555
C35 C36 1_555 1_555
C37 C38 1_555 1_555
C42 C43 1_555 1_555
C45 C46 1_555 1_555
C47 C48 1_555 1_555
C52 C53 1_555 1_555
C55 C56 1_555 1_555
C57 C58 1_555 1_555

#END
