
#######################################################################
#
#                 Cambridge Crystallographic Data Centre
#                                CCDC 
#
#######################################################################
#
# If this CIF has been generated from an entry in the Cambridge 
# Structural Database, then it will include bibliographic, chemical, 
# crystal, experimental, refinement or atomic coordinate data resulting 
# from the CCDC's data processing and validation procedures.
#
#######################################################################

data_EBUHUG
_symmetry_cell_setting           triclinic
_symmetry_space_group_name_H-M   'P -1'
_symmetry_Int_Tables_number      2
_space_group_name_Hall           '-P 1'
loop_
_symmetry_equiv_pos_site_id
_symmetry_equiv_pos_as_xyz
1 x,y,z
2 -x,-y,-z
_cell_length_a                   10.6009(10)
_cell_length_b                   12.2124(12)
_cell_length_c                   13.7623(14)
_cell_angle_alpha                72.1200(10)
_cell_angle_beta                 68.4780(10)
_cell_angle_gamma                87.3250(10)
_cell_volume                     1573.04
loop_
_atom_site_label
_atom_site_type_symbol
_atom_site_fract_x
_atom_site_fract_y
_atom_site_fract_z
Mo1 Mo -0.16300(4) 0.43299(4) 1.57220(3)
Mo2 Mo 0.08008(4) 0.31640(4) 0.65388(3)
Mo3 Mo -0.18975(4) 0.50066(4) 0.79950(3)
Mo4 Mo 0.16906(4) 0.28679(4) 1.41198(3)
O1 O -0.1427(4) 0.0081(4) 1.6787(3)
O2 O 0.0166(3) 0.3843(3) 1.5116(3)
O3 O -0.0897(3) 0.6380(3) 0.6979(3)
O4 O -0.0042(4) 0.1808(3) 0.7112(3)
O5 O -0.0772(3) 0.4011(3) 0.6991(3)
O6 O -0.2551(3) 0.5295(3) 0.6571(3)
O7 O 0.2209(3) 0.2837(3) 1.5320(3)
O8 O 0.0555(4) 0.1644(3) 1.4724(3)
O9 O -0.2648(4) 0.3086(3) 1.6278(3)
O10 O 0.1651(4) 0.3202(3) 0.7371(3)
O11 O 0.3136(4) 0.2441(3) 1.3328(3)
O12 O -0.1835(3) 0.4993(3) 1.4476(3)
O13 O -0.3325(4) 0.5530(3) 0.8736(3)
O14 O -0.0972(4) 0.4618(3) 0.8824(3)
Cu1 Cu 0.0000 0.0000 1.5000
Cu2 Cu 0.0000 0.5000 1.0000
C1 C -0.4251(5) 0.3137(5) 0.9780(4)
H1 H -0.4682 0.3703 1.0080
C2 C -0.2919(6) 0.2253(4) 0.8752(4)
H2 H -0.2213 0.2115 0.8168
C3 C -0.5684(5) 0.1419(5) 1.1252(4)
H3 H -0.6158 0.1982 1.1595
H4 H -0.6333 0.1024 1.1104
C4 C -0.5162(6) 0.0540(5) 1.2054(4)
H5 H -0.5932 0.0164 1.2717
H6 H -0.4737 -0.0048 1.1725
C5 C -0.4140(6) 0.1059(5) 1.2369(5)
H7 H -0.4478 0.1740 1.2574
H8 H -0.3278 0.1280 1.1752
C6 C -0.3954(7) 0.0152(6) 1.3329(6)
H9 H -0.3628 -0.0523 1.3108
H10 H -0.4833 -0.0076 1.3924
C7 C -0.1975(6) -0.0014(5) 1.3937(5)
H11 H -0.1651 -0.0671 1.3750
C8 C -0.2266(7) 0.1404(5) 1.4529(6)
H12 H -0.2153 0.1935 1.4857
C9 C 0.0226(6) 0.2564(5) 1.1491(4)
H13 H -0.0153 0.2751 1.2140
C10 C 0.0946(6) 0.2707(5) 0.9818(5)
H14 H 0.1192 0.2978 0.9059
C11 C 0.1635(7) 0.0673(5) 0.9971(6)
H15 H 0.2155 0.0238 1.0393
H16 H 0.2247 0.0966 0.9209
C12 C 0.0574(9) -0.0092(9) 1.0053(12)
H17 H 0.0349 -0.0657 1.0776
H18 H 0.1037 -0.0502 0.9534
C13 C 0.2117(5) 0.5563(5) 0.7645(4)
H19 H 0.1486 0.5639 0.7309
C14 C 0.3022(6) 0.5277(6) 0.8831(5)
H20 H 0.3125 0.5128 0.9501
C15 C 0.4241(6) 0.5939(5) 0.5934(4)
H21 H 0.3690 0.6344 0.5529
H22 H 0.5041 0.6443 0.5724
C16 C 0.4682(6) 0.4857(5) 0.5617(4)
H23 H 0.3900 0.4309 0.5903
H24 H 0.5334 0.4503 0.5940
N1 N -0.3173(4) 0.3324(4) 0.8838(3)
N2 N -0.4600(4) 0.2020(4) 1.0213(4)
N3 N -0.3761(5) 0.1428(4) 0.9569(4)
N4 N -0.3217(6) 0.1450(5) 1.4120(5)
N5 N -0.3005(5) 0.0520(4) 1.3745(4)
N6 N -0.1463(5) 0.0512(4) 1.4431(4)
N7 N 0.0390(5) 0.3325(4) 1.0482(3)
N8 N 0.1109(5) 0.1655(4) 1.0371(4)
N9 N 0.0649(6) 0.1554(4) 1.1459(4)
N10 N 0.1809(4) 0.5312(4) 0.8712(3)
N11 N 0.3459(5) 0.5692(4) 0.7119(3)
N12 N 0.4026(6) 0.5477(6) 0.7888(5)
Mo1A Mo 0.16300(4) -0.43299(4) 1.42780(3)
Mo1A_2 Mo 0.16300(4) 0.56701(4) 1.42780(3)
Mo1_2 Mo -0.16300(4) 0.43299(4) 0.57220(3)
Mo1A_3 Mo 0.16300(4) -0.43299(4) 2.42780(3)
Mo1_3 Mo -0.16300(4) -0.56701(4) 1.57220(3)
Mo1A_4 Mo 0.16300(4) 0.56701(4) 0.42780(3)
Mo2A Mo -0.08008(4) -0.31640(4) 2.34612(3)
Mo2_2 Mo 0.08008(4) 0.31640(4) 1.65388(3)
Mo2A_2 Mo -0.08008(4) 0.68360(4) 1.34612(3)
Mo2A_3 Mo -0.08008(4) -0.31640(4) 1.34612(3)
Mo3A Mo 0.18975(4) -0.50066(4) 2.20050(3)
Mo3A_2 Mo 0.18975(4) 0.49934(4) 1.20050(3)
Mo4A Mo -0.16906(4) -0.28679(4) 1.58802(3)
Mo4A_2 Mo -0.16906(4) 0.71321(4) 0.58802(3)
O1A O 0.1427(4) -0.0081(4) 1.3213(3)
O2A O -0.0166(3) -0.3843(3) 1.4884(3)
O2A_2 O -0.0166(3) 0.6157(3) 1.4884(3)
O2_2 O 0.0166(3) 0.3843(3) 0.5116(3)
O2_3 O 0.0166(3) -0.6157(3) 1.5116(3)
O2A_3 O -0.0166(3) -0.3843(3) 2.4884(3)
O3A O 0.0897(3) 0.3620(3) 1.3021(3)
O3A_2 O 0.0897(3) -0.6380(3) 2.3021(3)
O3_2 O -0.0897(3) -0.3620(3) 1.6979(3)
O4A O 0.0042(4) -0.1808(3) 2.2888(3)
O5A O 0.0772(3) -0.4011(3) 2.3009(3)
O5_2 O -0.0772(3) 0.4011(3) 1.6991(3)
O5A_2 O 0.0772(3) -0.4011(3) 1.3009(3)
O6A O 0.2551(3) 0.4705(3) 1.3429(3)
O6_2 O -0.2551(3) 0.5295(3) 1.6571(3)
O6A_2 O 0.2551(3) -0.5295(3) 2.3429(3)
O6_3 O -0.2551(3) -0.4705(3) 1.6571(3)
O6A_3 O 0.2551(3) -0.5295(3) 1.3429(3)
O7A O -0.2209(3) -0.2837(3) 1.4680(3)
O7_2 O 0.2209(3) 0.2837(3) 0.5320(3)
O7A_2 O -0.2209(3) -0.2837(3) 2.4680(3)
O8A O -0.0555(4) -0.1644(3) 1.5276(3)
O9A O 0.2648(4) -0.3086(3) 1.3722(3)
O10A O -0.1651(4) -0.3202(3) 2.2629(3)
O11A O -0.3136(4) -0.2441(3) 1.6672(3)
O12A O 0.1835(3) 0.5007(3) 0.5524(3)
O12A_2 O 0.1835(3) -0.4993(3) 1.5524(3)
O12_2 O -0.1835(3) -0.5007(3) 2.4476(3)
O13A O 0.3325(4) -0.5530(3) 2.1264(3)
O14A O 0.0972(4) -0.4618(3) 2.1176(3)
O14A_2 O 0.0972(4) 0.5382(3) 1.1176(3)
Cu2_2 Cu 0.0000 -0.5000 1.0000
Cu2_3 Cu 1.0000 0.5000 0.0000
C1A C 0.4251(5) -0.3137(5) 2.0220(4)
H1A H 0.4682 -0.3703 1.9920
C2A C 0.2919(6) -0.2253(4) 2.1248(4)
H2A H 0.2213 -0.2115 2.1832
C3A C 0.5684(5) -0.1419(5) 1.8748(4)
H3A H 0.6158 -0.1982 1.8405
H4A H 0.6333 -0.1024 1.8896
C4A C 0.5162(6) -0.0540(5) 1.7946(4)
H5A H 0.5932 -0.0164 1.7283
H6A H 0.4737 0.0048 1.8275
C5A C 0.4140(6) -0.1059(5) 1.7631(5)
H7A H 0.4478 -0.1740 1.7426
H8A H 0.3278 -0.1280 1.8248
C6A C 0.3954(7) -0.0152(6) 1.6671(6)
H9A H 0.3628 0.0523 1.6892
H10A H 0.4833 0.0076 1.6076
C7A C 0.1975(6) 0.0014(5) 1.6063(5)
H11A H 0.1651 0.0671 1.6250
C8A C 0.2266(7) -0.1404(5) 1.5471(6)
H12A H 0.2153 -0.1935 1.5143
C9A C -0.0226(6) -0.2564(5) 0.8509(4)
H13A H 0.0153 -0.2751 0.7860
C10A C -0.0946(6) -0.2707(5) 1.0182(5)
H14A H -0.1192 -0.2978 1.0941
C11A C -0.1635(7) -0.0673(5) 1.0029(6)
H15A H -0.2155 -0.0238 0.9607
H16A H -0.2247 -0.0966 1.0791
C12A C -0.0574(9) 0.0092(9) 0.9947(12)
H17A H -0.0349 0.0657 0.9224
H18A H -0.1037 0.0502 1.0466
C13A C 0.7883(5) 0.4437(5) 0.2355(4)
H19A H 0.8514 0.4361 0.2691
C14A C 0.6978(6) 0.4723(6) 0.1169(5)
H20A H 0.6875 0.4872 0.0499
C15A C 0.5759(6) 0.4061(5) 0.4066(4)
H21A H 0.6310 0.3656 0.4471
H22A H 0.4959 0.3557 0.4276
C16A C 0.5318(6) 0.5143(5) 0.4383(4)
H23A H 0.6100 0.5691 0.4097
H24A H 0.4666 0.5497 0.4060
N1A N 0.3173(4) -0.3324(4) 2.1162(3)
N2A N 0.4600(4) -0.2020(4) 1.9787(4)
N3A N 0.3761(5) -0.1428(4) 2.0431(4)
N4A N 0.3217(6) -0.1450(5) 1.5880(5)
N5A N 0.3005(5) -0.0520(4) 1.6255(4)
N6A N 0.1463(5) -0.0512(4) 1.5569(4)
N7A N -0.0390(5) -0.3325(4) 0.9518(3)
N7A_2 N -0.0390(5) 0.6675(4) 0.9518(3)
N8A N -0.1109(5) -0.1655(4) 0.9629(4)
N9A N -0.0649(6) -0.1554(4) 0.8541(4)
N10A N 0.8191(4) 0.4688(4) 0.1288(3)
N10A_2 N -0.1809(4) 0.4688(4) 1.1288(3)
N11A N 0.6541(5) 0.4308(4) 0.2881(3)
N12A N 0.5974(6) 0.4523(6) 0.2112(5)
O15 O -0.4233(11) 0.7656(9) 1.2170(8)
loop_
_geom_bond_atom_site_label_1
_geom_bond_atom_site_label_2
_geom_bond_site_symmetry_1
_geom_bond_site_symmetry_2
Mo1 O2 1_555 1_555
Mo2 O4 1_555 1_555
Mo3 O3 1_555 1_555
Mo4 O2 1_555 1_555
O1 Cu1 1_555 1_555
O2 Mo1A_2 1_555 1_555
O3 Mo4A_2 1_555 1_555
O5 Mo2 1_555 1_555
O6 Mo3 1_555 1_555
O7 Mo4 1_555 1_555
O8 Mo4 1_555 1_555
O9 Mo1 1_555 1_555
O10 Mo2 1_555 1_555
O11 Mo4 1_555 1_555
O12 Mo1 1_555 1_555
O13 Mo3 1_555 1_555
O14 Mo3 1_555 1_555
Cu1 O8 1_555 1_555
Cu2 O14 1_555 1_555
C1 H1 1_555 1_555
C2 H2 1_555 1_555
C3 H3 1_555 1_555
H4 C3 1_555 1_555
C4 C3 1_555 1_555
H5 C4 1_555 1_555
H6 C4 1_555 1_555
C5 C4 1_555 1_555
H7 C5 1_555 1_555
H8 C5 1_555 1_555
C6 C5 1_555 1_555
H9 C6 1_555 1_555
H10 C6 1_555 1_555
C7 H11 1_555 1_555
C8 H12 1_555 1_555
C9 H13 1_555 1_555
C10 H14 1_555 1_555
C11 H15 1_555 1_555
H16 C11 1_555 1_555
C12 C11 1_555 1_555
H17 C12 1_555 1_555
H18 C12 1_555 1_555
C13 H19 1_555 1_555
C14 H20 1_555 1_555
C15 H21 1_555 1_555
H22 C15 1_555 1_555
C16 C15 1_555 1_555
H23 C16 1_555 1_555
H24 C16 1_555 1_555
N1 Mo3 1_555 1_555
N2 C1 1_555 1_555
N3 C2 1_555 1_555
N4 C8 1_555 1_555
N5 C6 1_555 1_555
N6 Cu1 1_555 1_555
N7 Cu2 1_555 1_555
N8 C10 1_555 1_555
N9 C9 1_555 1_555
N10 Cu2 1_555 1_555
N11 C13 1_555 1_555
N12 C14 1_555 1_555
Mo1A O2A 1_555 1_555
Mo1A_2 O2A_2 1_555 1_555
Mo1_2 O5 1_555 1_555
Mo1A_3 O2A_3 1_555 1_555
Mo1_3 O2A 1_555 1_555
Mo1A_4 O2_2 1_555 1_555
Mo2A O2A_3 1_555 1_555
Mo2_2 O2 1_555 1_555
Mo2A_2 O12 1_555 1_555
Mo2A_3 O2A 1_555 1_555
Mo3A O3A_2 1_555 1_555
Mo3A_2 O3A 1_555 1_555
Mo4A O2A 1_555 1_555
Mo4A_2 O6 1_555 1_555
O1A Cu1 1_555 1_555
O2A_2 Mo1 1_555 1_555
O2_2 Mo2 1_555 1_555
O2_3 Mo1A 1_555 1_555
O3A Mo4 1_555 1_555
O3_2 Mo4A 1_555 1_555
O4A Mo2A 1_555 1_555
O5A Mo1A_3 1_555 1_555
O5_2 Mo1 1_555 1_555
O5A_2 Mo1A 1_555 1_555
O6A Mo4 1_555 1_555
O6_2 Mo1 1_555 1_555
O6A_2 Mo1A_3 1_555 1_555
O6_3 Mo1_3 1_555 1_555
O6A_3 Mo1A 1_555 1_555
O7A Mo2A_3 1_555 1_555
O7_2 Mo2 1_555 1_555
O7A_2 Mo2A 1_555 1_555
O8A Cu1 1_555 1_555
O9A Mo1A 1_555 1_555
O10A Mo2A 1_555 1_555
O11A Mo4A 1_555 1_555
O12A Mo2 1_555 1_555
O12A_2 Mo1A 1_555 1_555
O12_2 Mo2A 1_555 1_555
O13A Mo3A 1_555 1_555
O14A Mo3A 1_555 1_555
O14A_2 Cu2 1_555 1_555
Cu2_2 N7A 1_555 1_555
Cu2_3 N10A 1_555 1_555
C1A H1A 1_555 1_555
C2A H2A 1_555 1_555
C3A H3A 1_555 1_555
H4A C3A 1_555 1_555
C4A C3A 1_555 1_555
H5A C4A 1_555 1_555
H6A C4A 1_555 1_555
C5A C4A 1_555 1_555
H7A C5A 1_555 1_555
H8A C5A 1_555 1_555
C6A C5A 1_555 1_555
H9A C6A 1_555 1_555
H10A C6A 1_555 1_555
C7A H11A 1_555 1_555
C8A H12A 1_555 1_555
C9A H13A 1_555 1_555
C10A H14A 1_555 1_555
C11A H15A 1_555 1_555
H16A C11A 1_555 1_555
C12A C12 1_555 1_555
H17A C12A 1_555 1_555
H18A C12A 1_555 1_555
C13A H19A 1_555 1_555
C14A H20A 1_555 1_555
C15A H21A 1_555 1_555
H22A C15A 1_555 1_555
C16A C16 1_555 1_555
H23A C16A 1_555 1_555
H24A C16A 1_555 1_555
N1A Mo3A 1_555 1_555
N2A C1A 1_555 1_555
N3A C2A 1_555 1_555
N4A C8A 1_555 1_555
N5A C6A 1_555 1_555
N6A Cu1 1_555 1_555
N7A C9A 1_555 1_555
N7A_2 Cu2 1_555 1_555
N8A C10A 1_555 1_555
N9A C9A 1_555 1_555
N10A C13A 1_555 1_555
N10A_2 Cu2 1_555 1_555
N11A C13A 1_555 1_555
N12A C14A 1_555 1_555
Mo3 O5 1_555 1_555
O6 Mo1_2 1_555 1_555
O7 Mo2_2 1_555 1_555
C1 N1 1_555 1_555
C2 N1 1_555 1_555
C3 N2 1_555 1_555
C7 N5 1_555 1_555
C7 N6 1_555 1_555
C8 N6 1_555 1_555
C9 N7 1_555 1_555
C10 N7 1_555 1_555
C11 N8 1_555 1_555
C13 N10 1_555 1_555
C14 N10 1_555 1_555
C15 N11 1_555 1_555
N2 N3 1_555 1_555
N4 N5 1_555 1_555
N8 N9 1_555 1_555
N11 N12 1_555 1_555
Mo1A_2 O6A 1_555 1_555
Mo1_2 O2_2 1_555 1_555
Mo1_3 O2_3 1_555 1_555
Mo1A_4 O12A 1_555 1_555
Mo2A O5A 1_555 1_555
Mo2_2 O5_2 1_555 1_555
Mo2A_2 O2A_2 1_555 1_555
Mo2A_3 O5A_2 1_555 1_555
Mo3A O5A 1_555 1_555
Mo3A O6A_2 1_555 1_555
Mo3A_2 O6A 1_555 1_555
Mo3A_2 O14A_2 1_555 1_555
Mo4A O6_3 1_555 1_555
Mo4A O7A 1_555 1_555
Mo4A O8A 1_555 1_555
C1A N1A 1_555 1_555
C2A N1A 1_555 1_555
C3A N2A 1_555 1_555
C7A N5A 1_555 1_555
C7A N6A 1_555 1_555
C8A N6A 1_555 1_555
C10A N7A 1_555 1_555
C11A C12A 1_555 1_555
C11A N8A 1_555 1_555
C14A N10A 1_555 1_555
C15A C16A 1_555 1_555
C15A N11A 1_555 1_555
N2A N3A 1_555 1_555
N4A N5A 1_555 1_555
N8A N9A 1_555 1_555
N11A N12A 1_555 1_555

#END
