
#######################################################################
#
#                 Cambridge Crystallographic Data Centre
#                                CCDC 
#
#######################################################################
#
# If this CIF has been generated from an entry in the Cambridge 
# Structural Database, then it will include bibliographic, chemical, 
# crystal, experimental, refinement or atomic coordinate data resulting 
# from the CCDC's data processing and validation procedures.
#
#######################################################################

data_EBUHOA
_symmetry_cell_setting           triclinic
_symmetry_space_group_name_H-M   'P -1'
_symmetry_Int_Tables_number      2
_space_group_name_Hall           '-P 1'
loop_
_symmetry_equiv_pos_site_id
_symmetry_equiv_pos_as_xyz
1 x,y,z
2 -x,-y,-z
_cell_length_a                   10.7103(9)
_cell_length_b                   11.2561(10)
_cell_length_c                   11.9413(17)
_cell_angle_alpha                109.8290(10)
_cell_angle_beta                 96.5170(10)
_cell_angle_gamma                116.3170(10)
_cell_volume                     1152.91
loop_
_atom_site_label
_atom_site_type_symbol
_atom_site_fract_x
_atom_site_fract_y
_atom_site_fract_z
Mo1 Mo 0.02936(4) 0.17796(4) 0.04755(3)
Mo2 Mo 0.31085(4) 0.09689(4) 0.06147(4)
Mo3 Mo -0.09763(5) 0.16726(5) 0.29174(4)
Mo4 Mo 0.19607(4) 0.14954(5) 0.30256(4)
Cu1 Cu 0.63460(8) 0.37807(8) -0.02098(6)
Cu2 Cu 0.38173(8) 0.52610(8) 0.62194(7)
O1 O -0.2692(4) 0.0581(4) 0.2904(4)
O2 O 0.7085(9) 0.2549(8) -0.1656(5)
O3 O 0.2289(4) 0.0232(4) 0.3251(3)
O4 O -0.0167(4) 0.2911(4) 0.0140(3)
O5 O 0.2778(4) 0.2998(4) 0.4452(3)
O6 O -0.0139(4) 0.3150(4) 0.4370(3)
O7 O 0.1945(3) 0.2187(4) 0.0143(3)
O8 O 0.4414(4) 0.2017(4) 0.0114(3)
O9 O 0.3442(3) 0.2326(4) 0.2282(3)
O10 O 0.3802(4) 0.0035(4) 0.1058(3)
O11 O 0.0963(3) 0.0120(3) 0.0972(3)
O12 O -0.1636(3) 0.0635(4) 0.0940(3)
O13 O -0.0086(4) 0.0598(4) 0.3051(3)
O14 O 0.0931(3) 0.2599(3) 0.2245(3)
C1 C 0.3554(6) 0.2946(6) -0.1788(5)
H1 H 0.3045 0.2198 -0.1558
C2 C 0.5236(6) 0.4743(6) -0.1935(5)
H2 H 0.6161 0.5497 -0.1819
C3 C 0.1382(5) 0.2592(6) -0.3231(5)
H3 H 0.1270 0.2669 -0.4016
H4 H 0.0874 0.1553 -0.3424
C4 C 0.0673(5) 0.3315(6) -0.2447(5)
H5 H 0.0844 0.3295 -0.1640
H6 H -0.0378 0.2743 -0.2860
C5 C -0.2538(6) 0.2834(6) 0.1357(5)
H7 H -0.3260 0.1872 0.0800
C6 C 0.0741(5) 0.5366(6) -0.2918(5)
H8 H -0.0038 0.4791 -0.3660
C7 C 0.2964(6) 0.5971(6) 0.4234(5)
H9 H 0.2455 0.4994 0.3636
C8 C 0.4212(5) 0.7866(6) 0.5973(5)
H10 H 0.4747 0.8502 0.6813
C9 C 0.4355(6) 0.9744(6) 0.5251(5)
H11 H 0.4642 1.0408 0.6127
H12 H 0.3550 0.9744 0.4788
N1 N 0.5007(5) 0.3872(5) -0.1354(4)
N2 N -0.4017(4) 0.5578(4) 0.2692(4)
N3 N 0.2946(4) 0.3258(5) -0.2598(4)
N4 N 0.1222(4) 0.4836(4) -0.2245(4)
N5 N -0.2396(4) 0.3996(5) 0.1227(4)
N6 N -0.1522(4) 0.3181(5) 0.2387(4)
N7 N 0.3644(4) 0.6404(5) 0.5447(4)
N8 N 0.3090(5) 0.7065(5) 0.3980(4)
N9 N 0.3893(5) 0.8259(5) 0.5113(4)
Mo1A Mo -0.02936(4) -0.17796(4) -0.04755(3)
Mo2A Mo -0.31085(4) -0.09689(4) -0.06147(4)
Mo3A Mo 0.09763(5) 0.83274(5) -0.29174(4)
Mo3A_2 Mo 0.09763(5) -0.16726(5) -0.29174(4)
Mo4A Mo -0.19607(4) -0.14954(5) -0.30256(4)
Cu1A Cu -0.63460(8) 0.62193(8) 0.02098(6)
Cu1_2 Cu -0.36540(8) 0.37807(8) -0.02098(6)
Cu1A_2 Cu 0.36540(8) 0.62193(8) 0.02098(6)
Cu1A_3 Cu -0.63460(8) -0.37807(8) 0.02098(6)
Cu2A Cu 0.61827(8) 1.47390(8) 0.37806(7)
Cu2A_2 Cu -0.38173(8) 0.47390(8) 0.37806(7)
Cu2_2 Cu 0.38173(8) 0.52610(8) -0.37806(7)
Cu2A_3 Cu -0.38173(8) -0.52610(8) -0.62194(7)
O1A O 0.2692(4) -0.0581(4) -0.2904(4)
O2A O -0.7085(9) -0.2549(8) 0.1656(5)
O3A O -0.2289(4) -0.0232(4) -0.3251(3)
O4A O 0.0167(4) -0.2911(4) -0.0140(3)
O5A O -0.2778(4) -0.2998(4) -0.4452(3)
O6A O 0.0139(4) -0.3150(4) -0.4370(3)
O7A O -0.1945(3) -0.2187(4) -0.0143(3)
O8A O -0.4414(4) -0.2017(4) -0.0114(3)
O9A O -0.3442(3) -0.2326(4) -0.2282(3)
O10A O -0.3802(4) -0.0035(4) -0.1058(3)
O11A O -0.0963(3) -0.0120(3) -0.0972(3)
O12A O 0.1636(3) -0.0635(4) -0.0940(3)
O13A O 0.0086(4) -0.0598(4) -0.3051(3)
O14A O -0.0931(3) -0.2599(3) -0.2245(3)
C1A C -0.3554(6) 0.7054(6) 0.1788(5)
H1A H -0.3045 0.7802 0.1558
C2A C -0.5236(6) 0.5257(6) 0.1935(5)
H2A H -0.6161 0.4503 0.1819
C3A C -0.1382(5) 0.7408(6) 0.3231(5)
H3A H -0.1270 0.7331 0.4016
H4A H -0.0874 0.8447 0.3424
C4A C -0.0673(5) 0.6685(6) 0.2447(5)
H5A H -0.0844 0.6705 0.1640
H6A H 0.0378 0.7257 0.2860
C5A C 0.2538(6) 0.7166(6) -0.1357(5)
H7A H 0.3260 0.8128 -0.0800
C6A C -0.0741(5) 0.4634(6) 0.2918(5)
H8A H 0.0038 0.5209 0.3660
C7A C 0.7036(6) 1.4029(6) 0.5766(5)
H9A H 0.7545 1.5006 0.6364
C8A C 0.5788(5) 1.2134(6) 0.4027(5)
H10A H 0.5253 1.1498 0.3187
C9A C 0.5645(6) 1.0256(6) 0.4749(5)
H11A H 0.5358 0.9592 0.3873
H12A H 0.6450 1.0256 0.5212
N1A N -0.5007(5) 0.6128(5) 0.1354(4)
N1A_2 N -0.5007(5) -0.3872(5) 0.1354(4)
N2A N 0.4017(4) 0.4422(4) 0.7308(4)
N2A_2 N 0.4017(4) 0.4422(4) -0.2692(4)
N2_2 N -0.4017(4) -0.4422(4) -0.7308(4)
N3A N -0.2946(4) 0.6742(5) 0.2598(4)
N4A N -0.1222(4) 0.5164(4) 0.2245(4)
N5_2 N 0.7604(4) 0.3996(5) 0.1227(4)
N5A N 0.2396(4) 0.6004(5) -0.1227(4)
N5A_2 N -0.7604(4) -0.3996(5) -0.1227(4)
N6A N 0.1522(4) 0.6819(5) -0.2387(4)
N6A_2 N 0.1522(4) -0.3181(5) -0.2387(4)
N7A N 0.6356(4) 1.3596(5) 0.4553(4)
N7A_2 N -0.3644(4) -0.6404(5) -0.5447(4)
N8A N 0.6910(5) 1.2935(5) 0.6020(4)
N9A N 0.6107(5) 1.1741(5) 0.4887(4)
loop_
_geom_bond_atom_site_label_1
_geom_bond_atom_site_label_2
_geom_bond_site_symmetry_1
_geom_bond_site_symmetry_2
Mo1 O4 1_555 1_555
Mo2 O7 1_555 1_555
Mo3 O1 1_555 1_555
Mo4 O3 1_555 1_555
Cu1 O2 1_555 1_555
Cu2 O5 1_555 1_555
O5 Mo4 1_555 1_555
O6 Mo3 1_555 1_555
O7 Mo1 1_555 1_555
O8 Mo2 1_555 1_555
O9 Mo2 1_555 1_555
O10 Mo2 1_555 1_555
O11 Mo1 1_555 1_555
O12 Mo1 1_555 1_555
O13 Mo3 1_555 1_555
O14 Mo1 1_555 1_555
C1 H1 1_555 1_555
C2 H2 1_555 1_555
C3 H3 1_555 1_555
H4 C3 1_555 1_555
C4 C3 1_555 1_555
H5 C4 1_555 1_555
H6 C4 1_555 1_555
C5 H7 1_555 1_555
C6 H8 1_555 1_555
C7 H9 1_555 1_555
C8 H10 1_555 1_555
C9 H11 1_555 1_555
H12 C9 1_555 1_555
N1 Cu1 1_555 1_555
N2 Cu2A_2 1_555 1_555
N3 C1 1_555 1_555
N4 C4 1_555 1_555
N5 C5 1_555 1_555
N6 Mo3 1_555 1_555
N7 Cu2 1_555 1_555
N8 C7 1_555 1_555
N9 C8 1_555 1_555
Mo1A O11 1_555 1_555
Mo2A O12 1_555 1_555
Mo3A N6A 1_555 1_555
Mo3A_2 O1A 1_555 1_555
Mo4A O3A 1_555 1_555
Cu1A N1A 1_555 1_555
Cu1_2 N5 1_555 1_555
Cu1A_2 N5A 1_555 1_555
Cu1A_3 O2A 1_555 1_555
Cu2A N7A 1_555 1_555
Cu2_2 N2A_2 1_555 1_555
Cu2A_3 O5A 1_555 1_555
O4A Mo1A 1_555 1_555
O5A Mo4A 1_555 1_555
O6A Mo3A_2 1_555 1_555
O7A Mo1A 1_555 1_555
O8A Mo2A 1_555 1_555
O9A Mo2A 1_555 1_555
O10A Mo2A 1_555 1_555
O11A Mo1 1_555 1_555
O12A Mo2 1_555 1_555
O13A Mo3A_2 1_555 1_555
O14A Mo1A 1_555 1_555
C1A H1A 1_555 1_555
C2A N2 1_555 1_555
H2A C2A 1_555 1_555
C3A H3A 1_555 1_555
H4A C3A 1_555 1_555
C4A C3A 1_555 1_555
H5A C4A 1_555 1_555
H6A C4A 1_555 1_555
C5A H7A 1_555 1_555
C6A N6 1_555 1_555
H8A C6A 1_555 1_555
C7A H9A 1_555 1_555
C8A H10A 1_555 1_555
C9A C9 1_555 1_555
H11A C9A 1_555 1_555
H12A C9A 1_555 1_555
N1A C1A 1_555 1_555
N1A_2 Cu1A_3 1_555 1_555
N2A Cu2 1_555 1_555
N2A_2 C2 1_555 1_555
N2_2 Cu2A_3 1_555 1_555
N3A N2 1_555 1_555
N4A N5 1_555 1_555
N5_2 Cu1 1_555 1_555
N5A N4 1_555 1_555
N5A_2 Cu1A_3 1_555 1_555
N6A C6 1_555 1_555
N6A_2 Mo3A_2 1_555 1_555
N7A C7A 1_555 1_555
N7A_2 Cu2A_3 1_555 1_555
N8A C7A 1_555 1_555
N9A C8A 1_555 1_555
Mo2 O11 1_555 1_555
Mo3 O12 1_555 1_555
Mo3 O14 1_555 1_555
Mo4 O9 1_555 1_555
Mo4 O11 1_555 1_555
Mo4 O13 1_555 1_555
Mo4 O14 1_555 1_555
Cu1 O8 1_555 1_555
C1 N1 1_555 1_555
C2 N1 1_555 1_555
C3 N3 1_555 1_555
C5 N6 1_555 1_555
C6 N4 1_555 1_555
C7 N7 1_555 1_555
C8 N7 1_555 1_555
C9 N9 1_555 1_555
N3 N2A_2 1_555 1_555
N8 N9 1_555 1_555
Mo1A O11A 1_555 1_555
Mo1A O12A 1_555 1_555
Mo2A O7A 1_555 1_555
Mo2A O11A 1_555 1_555
Mo3A_2 O12A 1_555 1_555
Mo3A_2 O14A 1_555 1_555
Mo4A O9A 1_555 1_555
Mo4A O11A 1_555 1_555
Mo4A O13A 1_555 1_555
Mo4A O14A 1_555 1_555
Cu1A_3 O8A 1_555 1_555
C1A N3A 1_555 1_555
C2A N1A 1_555 1_555
C3A N3A 1_555 1_555
C4A N4A 1_555 1_555
C5A N5A 1_555 1_555
C5A N6A 1_555 1_555
C6A N4A 1_555 1_555
C8A N7A 1_555 1_555
C9A N9A 1_555 1_555
N8A N9A 1_555 1_555

#END
