
#######################################################################
#
#                 Cambridge Crystallographic Data Centre
#                                CCDC 
#
#######################################################################
#
# If this CIF has been generated from an entry in the Cambridge 
# Structural Database, then it will include bibliographic, chemical, 
# crystal, experimental, refinement or atomic coordinate data resulting 
# from the CCDC's data processing and validation procedures.
#
#######################################################################

data_EBUJAO
_symmetry_cell_setting           monoclinic
_symmetry_space_group_name_H-M   'P 21/n'
_symmetry_Int_Tables_number      14
_space_group_name_Hall           '-P 2yn'
loop_
_symmetry_equiv_pos_site_id
_symmetry_equiv_pos_as_xyz
1 x,y,z
2 1/2-x,1/2+y,1/2-z
3 -x,-y,-z
4 1/2+x,1/2-y,1/2+z
_cell_length_a                   14.5811(9)
_cell_length_b                   11.2874(7)
_cell_length_c                   15.8490(9)
_cell_angle_alpha                90
_cell_angle_beta                 106.0460(10)
_cell_angle_gamma                90
_cell_volume                     2506.85
loop_
_atom_site_label
_atom_site_type_symbol
_atom_site_fract_x
_atom_site_fract_y
_atom_site_fract_z
Mo1 Mo 0.92973(3) -0.20726(4) 0.07446(3)
Mo2 Mo 1.19842(3) -0.21342(4) 0.11039(3)
Mo3 Mo 0.77630(3) 0.00288(5) 0.02265(3)
Mo4 Mo 1.06604(3) 0.03318(4) 0.10739(3)
Cu1 Cu 1.39782(5) -0.14732(7) 0.28146(5)
O1 O 1.0643(3) -0.1617(3) 0.1011(2)
O2 O 1.3771(4) 0.0399(5) 0.2260(4)
O3 O 0.7856(4) 0.0200(5) 0.1307(3)
O4 O 1.4726(3) -0.0757(4) 0.3948(3)
O5 O 0.9361(3) -0.0163(3) 0.0484(2)
O6 O 1.1723(3) -0.3591(4) 0.1045(3)
O7 O 0.6567(3) 0.0022(5) -0.0277(3)
O8 O 1.0676(3) 0.0418(4) 0.2141(3)
O9 O 1.3194(3) -0.2063(4) 0.1668(3)
O10 O 1.1964(3) -0.1741(4) -0.0025(2)
O11 O 0.8020(3) -0.1655(4) 0.0174(3)
O12 O 0.9383(3) -0.3553(4) 0.0489(3)
O13 O 1.1918(3) -0.0085(3) 0.1090(2)
O14 O 0.9403(3) -0.1808(4) -0.0727(3)
O15 O 0.9224(3) -0.2090(4) 0.1794(3)
C1 C 1.2518(4) -0.1267(6) 0.3855(4)
H1 H 1.2924 -0.0976 0.4373
C2 C 1.1280(4) -0.1880(6) 0.2900(4)
H2 H 1.0658 -0.2116 0.2627
C3 C 1.1004(5) -0.1444(8) 0.4349(5)
H3 H 1.0348 -0.1277 0.4028
H4 H 1.1017 -0.2206 0.4635
C4 C 1.1352(5) -0.0501(7) 0.5037(4)
C5 C 1.1864(6) -0.0799(7) 0.5868(5)
H5 H 1.2024 -0.1586 0.6007
C6 C 1.2144(7) 0.0067(7) 0.6503(5)
H6 H 1.2475 -0.0152 0.7071
C7 C 1.1948(4) 0.1232(6) 0.6318(4)
C8 C 1.1453(5) 0.1549(7) 0.5482(5)
H7 H 1.1324 0.2344 0.5346
C9 C 1.1141(5) 0.0692(8) 0.4835(5)
H8 H 1.0795 0.0912 0.4271
C10 C 1.2309(4) 0.2151(7) 0.7029(5)
H9 H 1.2001 0.2041 0.7493
H10 H 1.2155 0.2938 0.6787
C11 C 1.3999(4) 0.2073(6) 0.6950(4)
H11 H 1.3878 0.2246 0.6356
C12 C 1.3764(5) 0.1757(8) 0.8230(4)
H12 H 1.3476 0.1667 0.8682
N1 N 1.2769(3) -0.1500(4) 0.3149(3)
N2 N 1.1587(3) -0.1508(5) 0.3731(3)
N3 N 1.1969(3) -0.1867(5) 0.2521(3)
N4 N 1.3344(4) 0.2034(5) 0.7388(4)
N5 N 1.4660(6) 0.1644(9) 0.8271(5)
N6 N 1.4843(4) 0.1830(5) 0.7481(3)
Mo3B Mo 1.22370(3) -0.00288(5) -0.02265(3)
Mo4B Mo 0.93396(3) -0.03318(4) -0.10739(3)
Cu1B Cu 1.60218(5) 0.14732(7) 0.71854(5)
O5B O 1.0639(3) 0.0163(3) -0.0484(2)
O10B O 0.8036(3) 0.1741(4) 0.0025(2)
O13B O 0.8082(3) 0.0085(3) -0.1090(2)
O14B O 1.0597(3) 0.1808(4) 0.0727(3)
N6B N 1.5157(4) -0.1830(5) 0.2519(3)
loop_
_geom_bond_atom_site_label_1
_geom_bond_atom_site_label_2
_geom_bond_site_symmetry_1
_geom_bond_site_symmetry_2
Mo1 O1 1_555 1_555
Mo2 O1 1_555 1_555
Mo3 O3 1_555 1_555
Mo4 O1 1_555 1_555
Cu1 O2 1_555 1_555
O4 Cu1 1_555 1_555
O5 Mo1 1_555 1_555
O6 Mo2 1_555 1_555
O7 Mo3 1_555 1_555
O8 Mo4 1_555 1_555
O9 Mo2 1_555 1_555
O10 Mo2 1_555 1_555
O11 Mo1 1_555 1_555
O12 Mo1 1_555 1_555
O13 Mo2 1_555 1_555
O14 Mo1 1_555 1_555
O15 Mo1 1_555 1_555
C1 H1 1_555 1_555
C2 H2 1_555 1_555
C3 H3 1_555 1_555
H4 C3 1_555 1_555
C4 C3 1_555 1_555
C5 C4 1_555 1_555
H5 C5 1_555 1_555
C6 C5 1_555 1_555
H6 C6 1_555 1_555
C7 C6 1_555 1_555
C8 C7 1_555 1_555
H7 C8 1_555 1_555
C9 C4 1_555 1_555
H8 C9 1_555 1_555
C10 C7 1_555 1_555
H9 C10 1_555 1_555
H10 C10 1_555 1_555
C11 H11 1_555 1_555
C12 H12 1_555 1_555
N1 Cu1 1_555 1_555
N2 C1 1_555 1_555
N3 Mo2 1_555 1_555
N4 C10 1_555 1_555
N5 C12 1_555 1_555
N6 C11 1_555 1_555
Mo3B O10 1_555 1_555
Mo4B O5 1_555 1_555
Cu1B N6 1_555 1_555
O5B Mo4 1_555 1_555
O10B Mo3 1_555 1_555
O13B Mo3 1_555 1_555
O14B Mo4 1_555 1_555
N6B Cu1 1_555 1_555
Mo3 O5 1_555 1_555
Mo3 O11 1_555 1_555
Mo4 O5 1_555 1_555
Mo4 O13 1_555 1_555
Cu1 O9 1_555 1_555
O13 Mo3B 1_555 1_555
O14 Mo4B 1_555 1_555
C1 N1 1_555 1_555
C2 N2 1_555 1_555
C2 N3 1_555 1_555
C3 N2 1_555 1_555
C8 C9 1_555 1_555
C11 N4 1_555 1_555
C12 N4 1_555 1_555
N1 N3 1_555 1_555
N5 N6 1_555 1_555
Mo3B O5B 1_555 1_555
Mo4B O5B 1_555 1_555
Mo4B O13B 1_555 1_555

#END
