
#######################################################################
#
#                 Cambridge Crystallographic Data Centre
#                                CCDC 
#
#######################################################################
#
# If this CIF has been generated from an entry in the Cambridge 
# Structural Database, then it will include bibliographic, chemical, 
# crystal, experimental, refinement or atomic coordinate data resulting 
# from the CCDC's data processing and validation procedures.
#
#######################################################################

data_EBUKAP01
_symmetry_cell_setting           triclinic
_symmetry_space_group_name_H-M   'P -1'
_symmetry_Int_Tables_number      2
_space_group_name_Hall           '-P 1'
loop_
_symmetry_equiv_pos_site_id
_symmetry_equiv_pos_as_xyz
1 x,y,z
2 -x,-y,-z
_cell_length_a                   7.7131(11)
_cell_length_b                   9.2600(13)
_cell_length_c                   10.2716(15)
_cell_angle_alpha                113.988(2)
_cell_angle_beta                 91.893(3)
_cell_angle_gamma                94.895(2)
_cell_volume                     665.973
loop_
_atom_site_label
_atom_site_type_symbol
_atom_site_fract_x
_atom_site_fract_y
_atom_site_fract_z
Co1 Co 0.5000 0.5000 0.0000
S1 S 0.79068(14) 0.08862(13) 0.04577(12)
N1 N 0.4094(3) 0.5355(3) 0.2037(2)
N2 N 0.3565(3) 0.6538(3) 0.4339(3)
N3 N 0.3079(3) 0.4953(3) 0.3821(3)
N4 N 0.7507(3) 0.6156(3) 0.1056(2)
N5 N 1.0118(3) 0.6616(3) 0.2241(3)
N6 N 0.9583(3) 0.7986(3) 0.2286(2)
N7 N 0.5748(3) 0.2793(3) -0.0191(3)
C1 C 0.4167(4) 0.6720(3) 0.3229(3)
H1 H 0.4605 0.7702 0.3260
C2 C 0.3399(4) 0.4279(3) 0.2462(3)
H2 H 0.3168 0.3198 0.1884
C3 C 0.2280(4) 0.4210(4) 0.4700(4)
H3 H 0.2762 0.4781 0.5680
H4 H 0.2575 0.3126 0.4368
C4 C 0.0317(4) 0.4190(4) 0.4660(3)
H5 H -0.0151 0.3680 0.3672
H6 H -0.0143 0.3549 0.5144
C5 C 1.0851(4) 0.9910(3) 0.4650(3)
H7 H 1.1411 0.9079 0.4790
H8 H 1.1613 1.0894 0.5117
C6 C 1.0645(4) 0.9504(4) 0.3058(3)
H9 H 1.0102 1.0337 0.2909
H10 H 1.1788 0.9452 0.2684
C7 C 0.8834(4) 0.5563(3) 0.1485(3)
H11 H 0.8836 0.4484 0.1261
C8 C 0.8043(4) 0.7683(3) 0.1582(3)
H12 H 0.7419 0.8447 0.1473
C9 C 0.6606(4) 0.1986(3) 0.0080(3)
N1A N -0.4094(3) 0.4645(3) 0.7963(2)
N2A N -0.3565(3) 0.3462(3) 0.5661(3)
N3A N -0.3079(3) 0.5047(3) 0.6179(3)
C1A C -0.4167(4) 0.3280(3) 0.6771(3)
H1A H -0.4605 0.2298 0.6740
C2A C -0.3399(4) 0.5721(3) 0.7538(3)
H2A H -0.3168 0.6802 0.8116
C3A C -0.2280(4) 0.5790(4) 0.5300(4)
H3A H -0.2762 0.5219 0.4320
H4A H -0.2575 0.6874 0.5632
C4A C -0.0317(4) 0.5810(4) 0.5340(3)
H5A H 0.0151 0.6320 0.6328
H6A H 0.0143 0.6451 0.4856
N4A N 1.2493(3) 1.3844(3) 0.8944(2)
N5A N 0.9882(3) 1.3384(3) 0.7759(3)
N6A N 1.0417(3) 1.2014(3) 0.7714(2)
C5A C 0.9149(4) 1.0090(3) 0.5350(3)
H7A H 0.8589 1.0921 0.5210
H8A H 0.8387 0.9106 0.4883
C6A C 0.9355(4) 1.0496(4) 0.6942(3)
H9A H 0.9898 0.9663 0.7091
H10A H 0.8212 1.0548 0.7316
C7A C 1.1166(4) 1.4437(3) 0.8515(3)
H11A H 1.1164 1.5516 0.8739
C8A C 1.1957(4) 1.2317(3) 0.8418(3)
H12A H 1.2581 1.1553 0.8527
S1A S 0.20932(14) 0.91138(13) -0.04577(12)
N7A N 0.4252(3) 0.7207(3) 0.0191(3)
C9A C 0.3394(4) 0.8014(3) -0.0080(3)
Co1_2 Co -0.5000 0.5000 1.0000
Co1_3 Co 1.5000 1.5000 1.0000
N1A_2 N 0.5906(3) 0.4645(3) -0.2037(2)
N4A_2 N 0.2493(3) 0.3844(3) -0.1056(2)
O1 O 0.5035(6) 0.9225(5) 0.6903(4)
H13 H 0.430(8) 0.859(8) 0.629(6)
H14 H 0.479(10) 0.934(9) 0.771(3)
loop_
_geom_bond_atom_site_label_1
_geom_bond_atom_site_label_2
_geom_bond_site_symmetry_1
_geom_bond_site_symmetry_2
Co1 N1 1_555 1_555
S1 C9 1_555 1_555
N1 C1 1_555 1_555
N2 N3 1_555 1_555
N3 C2 1_555 1_555
N4 Co1 1_555 1_555
N5 N6 1_555 1_555
N6 C6 1_555 1_555
N7 Co1 1_555 1_555
C1 N2 1_555 1_555
H1 C1 1_555 1_555
C2 N1 1_555 1_555
H2 C2 1_555 1_555
C3 N3 1_555 1_555
H3 C3 1_555 1_555
H4 C3 1_555 1_555
C4 C3 1_555 1_555
H5 C4 1_555 1_555
H6 C4 1_555 1_555
C5 H7 1_555 1_555
H8 C5 1_555 1_555
C6 C5 1_555 1_555
H9 C6 1_555 1_555
H10 C6 1_555 1_555
C7 N4 1_555 1_555
H11 C7 1_555 1_555
C8 N4 1_555 1_555
H12 C8 1_555 1_555
C9 N7 1_555 1_555
O1 H13 1_555 1_555
H14 O1 1_555 1_555
N1A C1A 1_555 1_555
N2A N3A 1_555 1_555
N3A C2A 1_555 1_555
C1A N2A 1_555 1_555
H1A C1A 1_555 1_555
C2A N1A 1_555 1_555
H2A C2A 1_555 1_555
C3A N3A 1_555 1_555
H3A C3A 1_555 1_555
H4A C3A 1_555 1_555
C4A C4 1_555 1_555
H5A C4A 1_555 1_555
H6A C4A 1_555 1_555
N4A C7A 1_555 1_555
N5A N6A 1_555 1_555
N6A C6A 1_555 1_555
C5A C5 1_555 1_555
H7A C5A 1_555 1_555
H8A C5A 1_555 1_555
C6A C5A 1_555 1_555
H9A C6A 1_555 1_555
H10A C6A 1_555 1_555
C7A N5A 1_555 1_555
H11A C7A 1_555 1_555
C8A N4A 1_555 1_555
H12A C8A 1_555 1_555
S1A C9A 1_555 1_555
N7A Co1 1_555 1_555
C9A N7A 1_555 1_555
Co1_2 N1A 1_555 1_555
Co1_3 N4A 1_555 1_555
N1A_2 Co1 1_555 1_555
N4A_2 Co1 1_555 1_555
N5 C7 1_555 1_555
N6 C8 1_555 1_555
C3A C4A 1_555 1_555
N6A C8A 1_555 1_555

#END
