
#######################################################################
#
#                 Cambridge Crystallographic Data Centre
#                                CCDC 
#
#######################################################################
#
# If this CIF has been generated from an entry in the Cambridge 
# Structural Database, then it will include bibliographic, chemical, 
# crystal, experimental, refinement or atomic coordinate data resulting 
# from the CCDC's data processing and validation procedures.
#
#######################################################################

data_EBUKIX
_symmetry_cell_setting           monoclinic
_symmetry_space_group_name_H-M   'P 21/c'
_symmetry_Int_Tables_number      14
_space_group_name_Hall           '-P 2ybc'
loop_
_symmetry_equiv_pos_site_id
_symmetry_equiv_pos_as_xyz
1 x,y,z
2 -x,1/2+y,1/2-z
3 -x,-y,-z
4 x,1/2-y,1/2+z
_cell_length_a                   7.7348(5)
_cell_length_b                   17.2121(12)
_cell_length_c                   8.7343(6)
_cell_angle_alpha                90
_cell_angle_beta                 113.8490(10)
_cell_angle_gamma                90
_cell_volume                     1063.53
loop_
_atom_site_label
_atom_site_type_symbol
_atom_site_fract_x
_atom_site_fract_y
_atom_site_fract_z
C1 C -0.0337(4) 0.32957(16) 0.4016(4)
H1 H -0.1422 0.3239 0.4219
C2 C 0.2060(4) 0.38011(16) 0.3845(3)
H2 H 0.2999 0.4146 0.3874
C3 C 0.3098(4) 0.26512(18) 0.2679(4)
H3 H 0.3607 0.3018 0.2126
H4 H 0.2319 0.2283 0.1843
C4 C 0.4717(4) 0.22176(16) 0.3998(3)
H5 H 0.4225 0.1858 0.4580
H6 H 0.5541 0.2583 0.4811
C5 C 0.5840(4) 0.17713(16) 0.3202(3)
H7 H 0.5015 0.1400 0.2406
H8 H 0.6296 0.2131 0.2594
C6 C 0.7491(4) 0.13482(18) 0.4484(3)
H9 H 0.8229 0.1709 0.5358
H10 H 0.7027 0.0944 0.4993
C7 C 1.1194(4) 0.06036(16) 0.3628(4)
H11 H 1.2455 0.0477 0.3914
C8 C 0.8280(4) 0.07507(16) 0.2215(3)
H12 H 0.7073 0.0756 0.1360
Cu1 Cu 0.0000 0.5000 0.5000
N1 N 0.0661(3) 0.39678(12) 0.4306(3)
N2 N 0.0356(3) 0.27329(13) 0.3426(3)
N3 N 0.1912(3) 0.30704(13) 0.3337(3)
N4 N 0.8709(3) 0.09992(12) 0.3752(3)
N5 N 1.0587(3) 0.09040(14) 0.4691(3)
N6 N 0.9822(3) 0.04916(12) 0.2063(3)
Br1 Br 0.40867(4) 0.538209(18) 0.70339(4)
C1B C 0.0337(4) 0.67043(16) 0.5984(4)
H1B H 0.1422 0.6761 0.5781
C2B C -0.2060(4) 0.61989(16) 0.6155(3)
H2B H -0.2999 0.5854 0.6126
C3B C -0.3098(4) 0.73488(18) 0.7321(4)
H3B H -0.3607 0.6982 0.7874
H4B H -0.2319 0.7717 0.8157
C4B C -0.4717(4) 0.77824(16) 0.6002(3)
H5B H -0.4225 0.8142 0.5420
H6B H -0.5541 0.7417 0.5189
C5B C -0.5840(4) 0.82287(16) 0.6798(3)
H7B H -0.5015 0.8600 0.7594
H8B H -0.6296 0.7869 0.7406
C6B C -0.7491(4) 0.86518(18) 0.5516(3)
H9B H -0.8229 0.8291 0.4642
H10B H -0.7027 0.9056 0.5007
C7B C -1.1194(4) 0.93964(16) 0.6372(4)
H11B H -1.2455 0.9523 0.6086
C8B C -0.8280(4) 0.92493(16) 0.7785(3)
H12B H -0.7073 0.9244 0.8640
Cu1A Cu -1.0000 1.0000 1.0000
Cu1A_2 Cu 1.0000 0.0000 0.0000
N1B N -0.0661(3) 0.60322(12) 0.5694(3)
N2B N -0.0356(3) 0.72671(13) 0.6574(3)
N3B N -0.1912(3) 0.69296(13) 0.6663(3)
N4B N -0.8709(3) 0.90008(12) 0.6248(3)
N5B N -1.0587(3) 0.90960(14) 0.5309(3)
N6B N -0.9822(3) 0.95084(12) 0.7937(3)
N6A N 0.0178(3) 0.54916(12) 0.2937(3)
N6C N -0.0178(3) 0.45084(12) 0.7063(3)
Br1B Br -0.40867(4) 0.461791(18) 0.29661(4)
loop_
_geom_bond_atom_site_label_1
_geom_bond_atom_site_label_2
_geom_bond_site_symmetry_1
_geom_bond_site_symmetry_2
C1 H1 1_555 1_555
C2 H2 1_555 1_555
C3 H3 1_555 1_555
H4 C3 1_555 1_555
C4 C3 1_555 1_555
H5 C4 1_555 1_555
H6 C4 1_555 1_555
C5 C4 1_555 1_555
H7 C5 1_555 1_555
H8 C5 1_555 1_555
C6 C5 1_555 1_555
H9 C6 1_555 1_555
H10 C6 1_555 1_555
C7 H11 1_555 1_555
C8 H12 1_555 1_555
Cu1 N1 1_555 1_555
N1 C1 1_555 1_555
N2 C1 1_555 1_555
N3 C2 1_555 1_555
N4 C6 1_555 1_555
N5 C7 1_555 1_555
N6 C7 1_555 1_555
Br1 Cu1 1_555 1_555
C1B H1B 1_555 1_555
C2B H2B 1_555 1_555
C3B H3B 1_555 1_555
H4B C3B 1_555 1_555
C4B C3B 1_555 1_555
H5B C4B 1_555 1_555
H6B C4B 1_555 1_555
C5B C4B 1_555 1_555
H7B C5B 1_555 1_555
H8B C5B 1_555 1_555
C6B C5B 1_555 1_555
H9B C6B 1_555 1_555
H10B C6B 1_555 1_555
C7B H11B 1_555 1_555
C8B H12B 1_555 1_555
Cu1A N6B 1_555 1_555
Cu1A_2 N6 1_555 1_555
N1B Cu1 1_555 1_555
N2B C1B 1_555 1_555
N3B C2B 1_555 1_555
N4B C6B 1_555 1_555
N5B C7B 1_555 1_555
N6B C7B 1_555 1_555
N6A Cu1 1_555 1_555
N6C Cu1 1_555 1_555
Br1B Cu1 1_555 1_555
C2 N1 1_555 1_555
C3 N3 1_555 1_555
C8 N4 1_555 1_555
C8 N6 1_555 1_555
N2 N3 1_555 1_555
N4 N5 1_555 1_555
C1B N1B 1_555 1_555
C2B N1B 1_555 1_555
C3B N3B 1_555 1_555
C8B N4B 1_555 1_555
C8B N6B 1_555 1_555
N2B N3B 1_555 1_555
N4B N5B 1_555 1_555

#END
