
#######################################################################
#
#                 Cambridge Crystallographic Data Centre
#                                CCDC 
#
#######################################################################
#
# If this CIF has been generated from an entry in the Cambridge 
# Structural Database, then it will include bibliographic, chemical, 
# crystal, experimental, refinement or atomic coordinate data resulting 
# from the CCDC's data processing and validation procedures.
#
#######################################################################

data_EBUKOD
_symmetry_cell_setting           rhombohedral
_symmetry_space_group_name_H-M   'R -3'
_symmetry_Int_Tables_number      148
_space_group_name_Hall           '-R 3'
loop_
_symmetry_equiv_pos_site_id
_symmetry_equiv_pos_as_xyz
1 x,y,z
2 -y,x-y,z
3 -x+y,-x,z
4 2/3+x,1/3+y,1/3+z
5 2/3-y,1/3+x-y,1/3+z
6 2/3-x+y,1/3-x,1/3+z
7 1/3+x,2/3+y,2/3+z
8 1/3-y,2/3+x-y,2/3+z
9 1/3-x+y,2/3-x,2/3+z
10 -x,-y,-z
11 y,-x+y,-z
12 x-y,x,-z
13 1/3-x,2/3-y,2/3-z
14 1/3+y,2/3-x+y,2/3-z
15 1/3+x-y,2/3+x,2/3-z
16 2/3-x,1/3-y,1/3-z
17 2/3+y,1/3-x+y,1/3-z
18 2/3+x-y,1/3+x,1/3-z
_cell_length_a                   18.787(2)
_cell_length_b                   18.787(2)
_cell_length_c                   25.170(4)
_cell_angle_alpha                90
_cell_angle_beta                 90
_cell_angle_gamma                120
_cell_volume                     7693.58
loop_
_atom_site_label
_atom_site_type_symbol
_atom_site_fract_x
_atom_site_fract_y
_atom_site_fract_z
Ni1 Ni 0.3333 0.6667 0.005710(16)
N1 N 0.26340(10) 0.56283(10) 0.05512(7)
N2 N 0.20992(11) 0.44260(11) 0.09301(7)
N3 N 0.18618(12) 0.48635(12) 0.12390(7)
N4 N 0.14594(11) 0.22934(11) 0.26250(7)
N5 N 0.17389(13) 0.18638(12) 0.23476(8)
N6 N 0.07366(10) 0.10358(10) 0.29129(7)
C1 C 0.25475(13) 0.48807(13) 0.05279(8)
H1 H 0.2776 0.4700 0.0259
C2 C 0.21995(13) 0.55815(13) 0.09971(8)
H2 H 0.2145 0.6029 0.1123
C3 C 0.17973(15) 0.35494(13) 0.10212(9)
H3 H 0.1993 0.3339 0.0729
H4 H 0.1189 0.3251 0.1008
C4 C 0.20662(14) 0.33592(13) 0.15479(9)
H5 H 0.2658 0.3753 0.1603
H6 H 0.1995 0.2801 0.1531
C5 C 0.15834(14) 0.34062(13) 0.20215(8)
H7 H 0.1675 0.3972 0.2045
H8 H 0.0990 0.3032 0.1956
C6 C 0.18093(14) 0.31828(13) 0.25517(9)
H9 H 0.2415 0.3455 0.2578
H10 H 0.1614 0.3397 0.2842
C7 C 0.08700(13) 0.17986(13) 0.29565(8)
H11 H 0.0584 0.1965 0.3191
C8 C 0.12837(14) 0.11126(14) 0.25319(9)
H12 H 0.1333 0.0661 0.2409
Ni1C Ni -0.0000 0.0000 0.339043(16)
Ni1C_2 Ni -0.0000 1.0000 0.339043(16)
Ni1C_3 Ni 1.0000 1.0000 0.339043(16)
N1A N 0.43717(10) 0.70057(14) 0.05512(7)
N1B N 0.29943(14) 0.73660(10) 0.05512(7)
N2A N 0.55740(11) 0.76732(16) 0.09301(7)
N2B N 0.23268(16) 0.79008(11) 0.09301(7)
N3A N 0.51365(12) 0.69983(17) 0.12390(7)
N3B N 0.30017(17) 0.81382(12) 0.12390(7)
N4A N 0.77066(11) 0.91660(16) 0.26250(7)
N4B N 0.08340(16) 0.85406(11) 0.26250(7)
N5A N 0.81362(12) 0.98751(18) 0.23476(8)
N5B N 0.01249(18) 0.82611(13) 0.23476(8)
N6A N 0.89642(10) 0.97008(14) 0.29129(7)
N6B N 0.02992(14) 0.92634(10) 0.29129(7)
N6F N 0.40699(10) 0.77025(10) -0.04204(7)
N6G N 0.22975(10) 0.63675(14) -0.04204(7)
N6H N 0.36325(14) 0.59301(10) -0.04204(7)
C1A C 0.51193(13) 0.76668(18) 0.05279(8)
C1B C 0.23332(18) 0.74525(13) 0.05279(8)
H1A H 0.5300 0.8076 0.0259
H1B H 0.1924 0.7224 0.0259
C2A C 0.44185(13) 0.66180(18) 0.09971(8)
C2B C 0.33820(18) 0.78005(13) 0.09971(8)
H2A H 0.3971 0.6116 0.1123
H2B H 0.3884 0.7855 0.1123
C3A C 0.64506(13) 0.82479(20) 0.10212(9)
C3B C 0.17521(20) 0.82027(15) 0.10212(9)
H3A H 0.6661 0.8654 0.0729
H3B H 0.1346 0.8007 0.0729
H4A H 0.6749 0.7938 0.1008
H4B H 0.2062 0.8811 0.1008
C4A C 0.66408(13) 0.87070(19) 0.15479(9)
C4B C 0.12930(19) 0.79338(14) 0.15479(9)
H5A H 0.6247 0.8905 0.1603
H5B H 0.1095 0.7342 0.1603
H6A H 0.7199 0.9194 0.1531
H6B H 0.0806 0.8005 0.1531
C5A C 0.65938(13) 0.81772(19) 0.20215(8)
C5B C 0.18228(19) 0.84166(14) 0.20215(8)
H7A H 0.6028 0.7703 0.2045
H7B H 0.2297 0.8325 0.2045
H8A H 0.6968 0.7958 0.1956
H8B H 0.2042 0.9010 0.1956
C6A C 0.68172(13) 0.86265(19) 0.25517(9)
C6B C 0.13735(19) 0.81907(14) 0.25517(9)
H9A H 0.6545 0.8960 0.2578
H9B H 0.1040 0.7585 0.2578
H10A H 0.6603 0.8217 0.2842
H10B H 0.1783 0.8386 0.2842
C7A C 0.82014(13) 0.90714(18) 0.29565(8)
C7B C 0.09286(18) 0.91300(13) 0.29565(8)
H11A H 0.8035 0.8619 0.3191
H11B H 0.1381 0.9416 0.3191
C8A C 0.88874(14) 1.01711(20) 0.25319(9)
C8B C -0.01711(20) 0.87163(14) 0.25319(9)
H12A H 0.9339 1.0672 0.2409
H12B H -0.0672 0.8667 0.2409
Ni2 Ni 0.0000 0.0000 0.0000
N7 N 0.08621(11) -0.00761(11) 0.04945(7)
N8 N 0.20077(11) 0.03649(12) 0.09285(8)
N9 N 0.14283(12) -0.02351(12) 0.12417(8)
C9 C 0.16672(13) 0.04548(14) 0.04933(9)
H13 H 0.1955 0.0842 0.0220
C10 C 0.07511(14) -0.04878(14) 0.09620(9)
H14 H 0.0231 -0.0919 0.1076
C11 C 0.28567(13) 0.08586(15) 0.11106(9)
H15 H 0.3208 0.1202 0.0815
H16 H 0.3064 0.0493 0.1229
C12 C 0.28958(13) 0.14030(14) 0.15657(9)
H17 H 0.2541 0.1056 0.1859
H18 H 0.2683 0.1763 0.1446
Ni2C Ni -0.3333 -0.6667 0.3333
Ni2C_2 Ni -0.3333 0.3333 0.3333
Ni2C_3 Ni 0.6667 0.3333 0.3333
N7O N 0.58046(11) 0.34094(11) 0.28388(7)
N7A N 0.00761(11) 0.09382(16) 0.04945(7)
N7P N -0.34094(11) 0.23951(16) 0.28388(7)
N7B N -0.09382(16) -0.08621(11) 0.04945(7)
N7Q N -0.23951(16) -0.58046(11) 0.28388(7)
N7I N -0.08621(11) 0.00761(11) -0.04945(7)
N7J N -0.00761(11) -0.09382(16) -0.04945(7)
N7K N 0.09382(16) 0.08621(11) -0.04945(7)
N8O N 0.46590(11) 0.29684(12) 0.24048(8)
N8A N -0.03649(12) 0.16428(16) 0.09285(8)
N8P N -0.29684(12) 0.16905(16) 0.24048(8)
N8B N -0.16428(16) -0.20077(11) 0.09285(8)
N8Q N -0.16905(16) -0.46590(11) 0.24048(8)
N9O N 0.52384(12) 0.35684(12) 0.20916(8)
N9A N 0.02351(12) 0.16634(17) 0.12417(8)
N9P N -0.35684(12) 0.16699(17) 0.20916(8)
N9B N -0.16634(17) -0.14283(12) 0.12417(8)
N9Q N -0.16699(17) -0.52384(12) 0.20916(8)
C9O C 0.49995(13) 0.28785(14) 0.28400(9)
C9A C -0.04548(14) 0.12124(19) 0.04933(9)
C9P C -0.28785(14) 0.21209(19) 0.28400(9)
C9B C -0.12124(19) -0.16672(13) 0.04933(9)
C9Q C -0.21209(19) -0.49995(13) 0.28400(9)
H13O H 0.4712 0.2491 0.3113
H13A H -0.0842 0.1113 0.0220
H13P H -0.2491 0.2220 0.3113
H13B H -0.1113 -0.1955 0.0220
H13Q H -0.2220 -0.4712 0.3113
C10O C 0.59156(14) 0.38211(14) 0.23713(9)
C10A C 0.04878(14) 0.12389(20) 0.09620(9)
C10P C -0.38211(14) 0.20944(20) 0.23713(9)
C10B C -0.12389(20) -0.07511(14) 0.09620(9)
C10Q C -0.20944(20) -0.59156(14) 0.23713(9)
H14O H 0.6436 0.4252 0.2257
H14A H 0.0919 0.1150 0.1076
H14P H -0.4252 0.2183 0.2257
H14B H -0.1150 -0.0231 0.1076
H14Q H -0.2183 -0.6436 0.2257
C11O C 0.38100(13) 0.24747(15) 0.22227(9)
C11A C -0.08586(15) 0.19981(20) 0.11106(9)
C11P C -0.24747(15) 0.13352(20) 0.22227(9)
C11B C -0.19981(20) -0.28567(13) 0.11106(9)
C11Q C -0.13352(20) -0.38100(13) 0.22227(9)
H15O H 0.3459 0.2131 0.2518
H15A H -0.1202 0.2006 0.0815
H15P H -0.2131 0.1327 0.2518
H15B H -0.2006 -0.3208 0.0815
H15Q H -0.1327 -0.3459 0.2518
H16O H 0.3603 0.2840 0.2104
H16A H -0.0493 0.2571 0.1229
H16P H -0.2840 0.0762 0.2104
H16B H -0.2571 -0.3064 0.1229
H16Q H -0.0762 -0.3603 0.2104
C12O C 0.37709(13) 0.19303(14) 0.17676(9)
C12A C -0.14030(14) 0.14928(19) 0.15657(9)
C12P C -0.19303(14) 0.18405(19) 0.17676(9)
C12B C -0.14928(19) -0.28958(13) 0.15657(9)
C12Q C -0.18405(19) -0.37709(13) 0.17676(9)
H17O H 0.4126 0.2277 0.1474
H17A H -0.1056 0.1485 0.1859
H17P H -0.2277 0.1848 0.1474
H17B H -0.1485 -0.2541 0.1859
H17Q H -0.1848 -0.4126 0.1474
H18O H 0.3984 0.1570 0.1887
H18A H -0.1763 0.0920 0.1446
H18P H -0.1570 0.2413 0.1887
H18B H -0.0920 -0.2683 0.1446
H18Q H -0.2413 -0.3984 0.1887
Cl1 Cl 0.33476(4) 0.30430(4) 0.02968(2)
O1 O 0.34011(15) 0.38260(14) 0.02725(11)
O2 O 0.25237(13) 0.23939(13) 0.03638(12)
O3 O 0.3738(2) 0.29515(19) -0.01536(13)
O4 O 0.38126(18) 0.30525(17) 0.07399(13)
loop_
_geom_bond_atom_site_label_1
_geom_bond_atom_site_label_2
_geom_bond_site_symmetry_1
_geom_bond_site_symmetry_2
Ni1 N1 1_555 1_555
Ni2 N7 1_555 1_555
N1 C1 1_555 1_555
N2 N3 1_555 1_555
N3 C2 1_555 1_555
N4 N5 1_555 1_555
N5 C8 1_555 1_555
N6 C7 1_555 1_555
N7 C9 1_555 1_555
N8 N9 1_555 1_555
N9 C10 1_555 1_555
C1 N2 1_555 1_555
H1 C1 1_555 1_555
C2 N1 1_555 1_555
H2 C2 1_555 1_555
C3 N2 1_555 1_555
H3 C3 1_555 1_555
H4 C3 1_555 1_555
C4 C3 1_555 1_555
H5 C4 1_555 1_555
H6 C4 1_555 1_555
C5 C4 1_555 1_555
H7 C5 1_555 1_555
H8 C5 1_555 1_555
C6 N4 1_555 1_555
H9 C6 1_555 1_555
H10 C6 1_555 1_555
C7 N4 1_555 1_555
H11 C7 1_555 1_555
C8 N6 1_555 1_555
H12 C8 1_555 1_555
C9 N8 1_555 1_555
H13 C9 1_555 1_555
C10 N7 1_555 1_555
H14 C10 1_555 1_555
C11 N8 1_555 1_555
H15 C11 1_555 1_555
H16 C11 1_555 1_555
C12 C11 1_555 1_555
H17 C12 1_555 1_555
H18 C12 1_555 1_555
Cl1 O1 1_555 1_555
O2 Cl1 1_555 1_555
O3 Cl1 1_555 1_555
O4 Cl1 1_555 1_555
Ni1C N6 1_555 1_555
Ni1C_2 N6B 1_555 1_555
Ni1C_3 N6A 1_555 1_555
Ni2C N7Q 1_555 1_555
Ni2C_2 N7P 1_555 1_555
Ni2C_3 N7O 1_555 1_555
N1A Ni1 1_555 1_555
N1B Ni1 1_555 1_555
N2A N3A 1_555 1_555
N2B N3B 1_555 1_555
N3A C2A 1_555 1_555
N3B C2B 1_555 1_555
N4A N5A 1_555 1_555
N4B N5B 1_555 1_555
N5A C8A 1_555 1_555
N5B C8B 1_555 1_555
N6A C7A 1_555 1_555
N6B C7B 1_555 1_555
N6F Ni1 1_555 1_555
N6G Ni1 1_555 1_555
N6H Ni1 1_555 1_555
N7O C9O 1_555 1_555
N7A Ni2 1_555 1_555
N7P C9P 1_555 1_555
N7B Ni2 1_555 1_555
N7Q C9Q 1_555 1_555
N7I Ni2 1_555 1_555
N7J Ni2 1_555 1_555
N7K Ni2 1_555 1_555
N8O N9O 1_555 1_555
N8A N9A 1_555 1_555
N8P N9P 1_555 1_555
N8B N9B 1_555 1_555
N8Q N9Q 1_555 1_555
N9O C10O 1_555 1_555
N9A C10A 1_555 1_555
N9P C10P 1_555 1_555
N9B C10B 1_555 1_555
N9Q C10Q 1_555 1_555
C1A N1A 1_555 1_555
C1B N1B 1_555 1_555
H1A C1A 1_555 1_555
H1B C1B 1_555 1_555
C2A N1A 1_555 1_555
C2B N1B 1_555 1_555
H2A C2A 1_555 1_555
H2B C2B 1_555 1_555
C3A N2A 1_555 1_555
C3B N2B 1_555 1_555
H3A C3A 1_555 1_555
H3B C3B 1_555 1_555
H4A C3A 1_555 1_555
H4B C3B 1_555 1_555
C4A C3A 1_555 1_555
C4B C3B 1_555 1_555
H5A C4A 1_555 1_555
H5B C4B 1_555 1_555
H6A C4A 1_555 1_555
H6B C4B 1_555 1_555
C5A C4A 1_555 1_555
C5B C4B 1_555 1_555
H7A C5A 1_555 1_555
H7B C5B 1_555 1_555
H8A C5A 1_555 1_555
H8B C5B 1_555 1_555
C6A N4A 1_555 1_555
C6B N4B 1_555 1_555
H9A C6A 1_555 1_555
H9B C6B 1_555 1_555
H10A C6A 1_555 1_555
H10B C6B 1_555 1_555
C7A N4A 1_555 1_555
C7B N4B 1_555 1_555
H11A C7A 1_555 1_555
H11B C7B 1_555 1_555
C8A N6A 1_555 1_555
C8B N6B 1_555 1_555
H12A C8A 1_555 1_555
H12B C8B 1_555 1_555
C9O N8O 1_555 1_555
C9A N7A 1_555 1_555
C9P N8P 1_555 1_555
C9B N7B 1_555 1_555
C9Q N8Q 1_555 1_555
H13O C9O 1_555 1_555
H13A C9A 1_555 1_555
H13P C9P 1_555 1_555
H13B C9B 1_555 1_555
H13Q C9Q 1_555 1_555
C10O N7O 1_555 1_555
C10A N7A 1_555 1_555
C10P N7P 1_555 1_555
C10B N7B 1_555 1_555
C10Q N7Q 1_555 1_555
H14O C10O 1_555 1_555
H14A C10A 1_555 1_555
H14P C10P 1_555 1_555
H14B C10B 1_555 1_555
H14Q C10Q 1_555 1_555
C11O N8O 1_555 1_555
C11A N8A 1_555 1_555
C11P N8P 1_555 1_555
C11B N8B 1_555 1_555
C11Q N8Q 1_555 1_555
H15O C11O 1_555 1_555
H15A C11A 1_555 1_555
H15P C11P 1_555 1_555
H15B C11B 1_555 1_555
H15Q C11Q 1_555 1_555
H16O C11O 1_555 1_555
H16A C11A 1_555 1_555
H16P C11P 1_555 1_555
H16B C11B 1_555 1_555
H16Q C11Q 1_555 1_555
C12O C12 1_555 1_555
C12A C11A 1_555 1_555
C12P C11P 1_555 1_555
C12B C11B 1_555 1_555
C12Q C11Q 1_555 1_555
H17O C12O 1_555 1_555
H17A C12A 1_555 1_555
H17P C12P 1_555 1_555
H17B C12B 1_555 1_555
H17Q C12Q 1_555 1_555
H18O C12O 1_555 1_555
H18A C12A 1_555 1_555
H18P C12P 1_555 1_555
H18B C12B 1_555 1_555
H18Q C12Q 1_555 1_555
C5 C6 1_555 1_555
N2A C1A 1_555 1_555
N2B C1B 1_555 1_555
N8A C9A 1_555 1_555
N8B C9B 1_555 1_555
C5A C6A 1_555 1_555
C5B C6B 1_555 1_555
C11O C12O 1_555 1_555
C12A C12P 1_555 1_555
C12B C12Q 1_555 1_555

#END
