
#######################################################################
#
#                 Cambridge Crystallographic Data Centre
#                                CCDC 
#
#######################################################################
#
# If this CIF has been generated from an entry in the Cambridge 
# Structural Database, then it will include bibliographic, chemical, 
# crystal, experimental, refinement or atomic coordinate data resulting 
# from the CCDC's data processing and validation procedures.
#
#######################################################################

data_EBUMUK
_symmetry_cell_setting           orthorhombic
_symmetry_space_group_name_H-M   'P b c a'
_symmetry_Int_Tables_number      61
_space_group_name_Hall           '-P 2ac 2ab'
loop_
_symmetry_equiv_pos_site_id
_symmetry_equiv_pos_as_xyz
1 x,y,z
2 1/2+x,y,1/2-z
3 x,1/2-y,1/2+z
4 1/2-x,1/2+y,z
5 -x,-y,-z
6 1/2-x,-y,1/2+z
7 -x,1/2+y,1/2-z
8 1/2+x,1/2-y,-z
_cell_length_a                   18.907(2)
_cell_length_b                   14.565(3)
_cell_length_c                   21.414(4)
_cell_angle_alpha                90
_cell_angle_beta                 90
_cell_angle_gamma                90
_cell_volume                     5897
loop_
_atom_site_label
_atom_site_type_symbol
_atom_site_fract_x
_atom_site_fract_y
_atom_site_fract_z
Co1 Co -0.43778(2) 0.35310(3) 0.409993(19)
Co2 Co -0.46219(2) 0.46590(3) 0.289515(19)
Co3 Co -0.29895(2) 0.46245(3) 0.378359(19)
Na1 Na -0.40899(8) 0.70702(11) 0.37266(7)
O1 O -0.40037(11) 0.38347(17) 0.50049(10)
O2 O -0.30080(13) 0.45706(17) 0.47352(11)
O3 O -0.41274(12) 0.28735(18) 0.72876(11)
O4 O -0.31546(14) 0.3028(2) 0.78653(11)
O5 O -0.08603(13) 0.2976(2) 0.67342(12)
O6 O -0.08528(13) 0.3376(2) 0.57218(12)
O7 O -0.54523(11) 0.38859(16) 0.42118(10)
O8 O -0.55596(11) 0.47865(16) 0.33648(11)
O9 O -0.87693(13) 0.3360(2) 0.47763(12)
O10 O -0.77684(12) 0.29912(17) 0.52770(10)
O11 O -0.87677(12) 0.4409(2) 0.26499(11)
O12 O -0.77507(13) 0.4596(2) 0.21349(11)
O13 O -0.45578(12) 0.22048(16) 0.43254(11)
O14 O -0.52195(14) 0.44749(19) 0.20927(12)
O15 O -0.46118(12) 0.61408(16) 0.27993(11)
H1 H -0.5104 0.6349 0.2731
H2 H -0.4339 0.6297 0.2419
O16 O -0.28726(13) 0.61120(17) 0.37444(11)
H3 H -0.2598 0.6270 0.3366
H4 H -0.2593 0.6312 0.4111
O17 O -0.18982(13) 0.43901(19) 0.38781(13)
O18 O -0.47131(11) 0.31659(15) 0.31389(10)
H5 H -0.5201 0.2921 0.3112
H6 H -0.4374 0.2766 0.2914
O19 O -0.32770(12) 0.31352(15) 0.38418(10)
H7 H -0.3243 0.2807 0.3438
H8 H -0.3023 0.2798 0.4175
O20 O -0.40639(11) 0.47257(15) 0.37074(10)
H9 H -0.4237 0.5253 0.3964
O21 O -0.46247(12) 0.61022(17) 0.44732(11)
O22 O -0.51601(18) 0.7986(2) 0.37007(15)
O23 O -0.35470(18) 0.7952(2) 0.29638(14)
O24 O -0.35358(13) 0.78709(19) 0.45600(12)
C1 C -0.33766(16) 0.4108(2) 0.51066(14)
C2 C -0.30261(16) 0.3830(2) 0.57105(14)
C3 C -0.34113(16) 0.3555(2) 0.62296(14)
H10 H -0.3913 0.3542 0.6212
C4 C -0.30634(17) 0.3300(2) 0.67753(15)
C5 C -0.34725(17) 0.3045(2) 0.73505(15)
C6 C -0.23311(17) 0.3249(2) 0.67900(15)
H11 H -0.2097 0.3066 0.7162
C7 C -0.19397(16) 0.3466(2) 0.62611(15)
C8 C -0.22897(16) 0.3806(2) 0.57351(15)
H12 H -0.2022 0.4024 0.5390
C9 C -0.11603(17) 0.3273(3) 0.62423(16)
C10 C -0.58063(16) 0.4281(2) 0.37894(14)
C11 C -0.65965(15) 0.4131(2) 0.37762(14)
C12 C -0.69572(16) 0.3775(2) 0.42883(14)
H13 H -0.6703 0.3596 0.4651
C13 C -0.76926(16) 0.3681(2) 0.42706(14)
C14 C -0.81040(16) 0.3324(2) 0.48182(15)
C15 C -0.80546(16) 0.3926(2) 0.37322(14)
H14 H -0.8556 0.3878 0.3723
C16 C -0.76986(16) 0.4239(2) 0.32050(14)
C17 C -0.81099(17) 0.4437(2) 0.26189(15)
C18 C -0.69666(16) 0.4353(2) 0.32319(14)
H15 H -0.6719 0.4583 0.2879
H16 H -0.5015 0.2054 0.4298
H17 H -0.4323 0.2050 0.4663
H18 H -0.5477 0.4921 0.1919
H19 H -0.5034 0.4109 0.1821
H20 H -0.1559 0.4835 0.3860
H21 H -0.1676 0.3964 0.4103
H22 H -0.5088 0.6133 0.4489
H23 H -0.4465 0.6027 0.4860
H24 H -0.5434 0.7732 0.3401
H25 H -0.5390 0.8145 0.4067
H26 H -0.3884 0.8275 0.2771
H27 H -0.3312 0.8399 0.3129
H28 H -0.3143 0.7580 0.4669
H29 H -0.3812 0.7997 0.4884
O11A O -0.37677(12) 0.4409(2) 0.23501(11)
O12A O -0.27507(13) 0.4596(2) 0.28651(11)
Co2A Co -0.96219(2) 0.46590(3) 0.210485(19)
Co3A Co -0.79895(2) 0.46245(3) 0.121641(19)
O25 O -0.40214(16) 0.0771(2) 0.35529(14)
H30 H -0.4241 0.1274 0.3811
H31 H -0.3681 0.1174 0.3290
O26 O -0.0698(8) 0.4775(10) 0.4876(7)
H32 H -0.0421 0.5260 0.4951
H33 H -0.0717 0.4342 0.5130
O27? O 0.0274(8) 0.4805(9) 0.4393(8)
H34? H -0.0068 0.4813 0.4647
H35? H 0.0318 0.4349 0.4186
loop_
_geom_bond_atom_site_label_1
_geom_bond_atom_site_label_2
_geom_bond_site_symmetry_1
_geom_bond_site_symmetry_2
Co1 O1 1_555 1_555
Co2 O8 1_555 1_555
Co3 O2 1_555 1_555
Na1 O15 1_555 1_555
O1 C1 1_555 1_555
O2 C1 1_555 1_555
O3 C5 1_555 1_555
O4 C5 1_555 1_555
O5 C9 1_555 1_555
O6 C9 1_555 1_555
O7 Co1 1_555 1_555
O8 C10 1_555 1_555
O9 C14 1_555 1_555
O10 C14 1_555 1_555
O11 C17 1_555 1_555
O12 C17 1_555 1_555
O13 Co1 1_555 1_555
O14 Co2 1_555 1_555
O15 Co2 1_555 1_555
H1 O15 1_555 1_555
H2 O15 1_555 1_555
O16 Co3 1_555 1_555
H3 O16 1_555 1_555
H4 O16 1_555 1_555
O17 Co3 1_555 1_555
O18 Co1 1_555 1_555
H5 O18 1_555 1_555
H6 O18 1_555 1_555
O19 Co1 1_555 1_555
H7 O19 1_555 1_555
H8 O19 1_555 1_555
O20 Co1 1_555 1_555
H9 O20 1_555 1_555
O21 Na1 1_555 1_555
O22 Na1 1_555 1_555
O23 Na1 1_555 1_555
O24 Na1 1_555 1_555
O25 H30 1_555 1_555
C1 C2 1_555 1_555
C2 C3 1_555 1_555
C3 H10 1_555 1_555
C4 C3 1_555 1_555
C5 C4 1_555 1_555
C6 C4 1_555 1_555
H11 C6 1_555 1_555
C7 C6 1_555 1_555
C8 C2 1_555 1_555
H12 C8 1_555 1_555
C9 C7 1_555 1_555
C10 O7 1_555 1_555
C11 C10 1_555 1_555
C12 C11 1_555 1_555
H13 C12 1_555 1_555
C13 C12 1_555 1_555
C14 C13 1_555 1_555
C15 C13 1_555 1_555
H14 C15 1_555 1_555
C16 C15 1_555 1_555
C17 C16 1_555 1_555
C18 C11 1_555 1_555
H15 C18 1_555 1_555
H16 O13 1_555 1_555
H17 O13 1_555 1_555
H18 O14 1_555 1_555
H19 O14 1_555 1_555
H20 O17 1_555 1_555
H21 O17 1_555 1_555
H22 O21 1_555 1_555
H23 O21 1_555 1_555
H24 O22 1_555 1_555
H25 O22 1_555 1_555
H26 O23 1_555 1_555
H27 O23 1_555 1_555
H28 O24 1_555 1_555
H29 O24 1_555 1_555
H31 O25 1_555 1_555
O26 H32 1_555 1_555
H33 O26 1_555 1_555
O11A Co2 1_555 1_555
O12A Co3 1_555 1_555
Co2A O11 1_555 1_555
Co3A O12 1_555 1_555
Co2 O18 1_555 1_555
Co2 O20 1_555 1_555
Co3 O19 1_555 1_555
Co3 O20 1_555 1_555
Na1 O16 1_555 1_555
C7 C8 1_555 1_555
C16 C18 1_555 1_555

#END
