
#######################################################################
#
#                 Cambridge Crystallographic Data Centre
#                                CCDC 
#
#######################################################################
#
# If this CIF has been generated from an entry in the Cambridge 
# Structural Database, then it will include bibliographic, chemical, 
# crystal, experimental, refinement or atomic coordinate data resulting 
# from the CCDC's data processing and validation procedures.
#
#######################################################################

data_EBUPEY
_symmetry_cell_setting           triclinic
_symmetry_space_group_name_H-M   'P -1'
_symmetry_Int_Tables_number      2
_space_group_name_Hall           '-P 1'
loop_
_symmetry_equiv_pos_site_id
_symmetry_equiv_pos_as_xyz
1 x,y,z
2 -x,-y,-z
_cell_length_a                   6.5724(15)
_cell_length_b                   8.922(2)
_cell_length_c                   10.621(4)
_cell_angle_alpha                108.461(5)
_cell_angle_beta                 94.233(5)
_cell_angle_gamma                110.179(3)
_cell_volume                     542.648
loop_
_atom_site_label
_atom_site_type_symbol
_atom_site_fract_x
_atom_site_fract_y
_atom_site_fract_z
Cu1 Cu 0.5000 0.5000 0.5000
Cu2 Cu 0.42494(4) 0.80625(3) 0.45366(2)
O1 O 0.7671(3) 0.7800(2) 0.50225(17)
N1 N 0.2947(3) 0.6246(2) 0.52664(19)
N2 N 0.2230(3) 0.6548(2) 0.6306(2)
N3 N 0.1525(4) 0.6810(3) 0.7260(3)
N4 N 0.4702(4) 1.0053(2) 0.61955(19)
N5 N 0.5480(3) 1.0280(2) 0.7347(2)
N6 N 0.6157(4) 1.0512(3) 0.8437(2)
N7 N 0.1055(3) 0.2010(2) -0.19123(18)
C1 C 0.3501(4) 0.4897(3) 0.2309(2)
C2 C 0.2701(4) 0.3885(3) 0.0810(2)
C3 C 0.2247(4) 0.4651(3) -0.0058(2)
H1 H 0.2496 0.5811 0.0277
C4 C 0.1426(4) 0.3698(3) -0.1417(2)
H2 H 0.1122 0.4217 -0.2000
C5 C 0.1574(4) 0.1261(3) -0.1092(2)
H3 H 0.1377 0.0113 -0.1452
C6 C 0.2391(4) 0.2168(3) 0.0268(2)
H4 H 0.2737 0.1636 0.0828
O2 O 0.3517(3) 0.6388(2) 0.26975(15)
O3 O 0.4084(3) 0.4185(2) 0.30224(15)
O4 O 0.0165(3) 0.1116(2) -0.32056(16)
H5 H 0.833(5) 0.866(3) 0.575(2)
H6 H 0.821(5) 0.798(4) 0.436(2)
Cu2A Cu 0.57506(4) 0.19375(3) 0.54634(2)
Cu2A_2 Cu 0.57506(4) 1.19375(3) 0.54634(2)
O1A O 0.2329(3) 0.2200(2) 0.49775(17)
N1A N 0.7053(3) 0.3754(2) 0.47336(19)
N2A N 0.7770(3) 0.3452(2) 0.3694(2)
N3A N 0.8475(4) 0.3190(3) 0.2740(3)
N4A N 0.5298(4) 0.9947(2) 0.38045(19)
N4A_2 N 0.5298(4) -0.0053(2) 0.38045(19)
N4_2 N 0.4702(4) 0.0053(2) 0.61955(19)
N5A N 0.4520(3) 0.9720(2) 0.2653(2)
N6A N 0.3843(4) 0.9488(3) 0.1563(2)
N7A N 0.8945(3) 0.7990(2) 1.19123(18)
C1A C 0.6499(4) 0.5103(3) 0.7691(2)
C2A C 0.7299(4) 0.6115(3) 0.9190(2)
C3A C 0.7753(4) 0.5349(3) 1.0058(2)
H1A H 0.7504 0.4189 0.9723
C4A C 0.8574(4) 0.6302(3) 1.1417(2)
H2A H 0.8878 0.5783 1.2000
C5A C 0.8426(4) 0.8739(3) 1.1092(2)
H3A H 0.8623 0.9887 1.1452
C6A C 0.7609(4) 0.7832(3) 0.9732(2)
H4A H 0.7263 0.8364 0.9172
O2A O 0.6483(3) 0.3612(2) 0.73025(15)
O3A O 0.5916(3) 0.5815(2) 0.69776(15)
O4A O 0.9835(3) 0.8884(2) 1.32056(16)
H5A H 0.167(5) 0.134(3) 0.425(2)
H6A H 0.179(5) 0.202(4) 0.564(2)
loop_
_geom_bond_atom_site_label_1
_geom_bond_atom_site_label_2
_geom_bond_site_symmetry_1
_geom_bond_site_symmetry_2
Cu1 O1 1_555 1_555
Cu2 O1 1_555 1_555
O1 H5 1_555 1_555
N1 Cu1 1_555 1_555
N2 N1 1_555 1_555
N3 N2 1_555 1_555
N4 Cu2 1_555 1_555
N5 N4 1_555 1_555
N6 N5 1_555 1_555
N7 C4 1_555 1_555
C1 C2 1_555 1_555
C2 C3 1_555 1_555
C3 H1 1_555 1_555
C4 C3 1_555 1_555
H2 C4 1_555 1_555
C5 N7 1_555 1_555
H3 C5 1_555 1_555
C6 C2 1_555 1_555
H4 C6 1_555 1_555
O2 Cu2 1_555 1_555
O3 Cu1 1_555 1_555
O4 N7 1_555 1_555
H6 O1 1_555 1_555
Cu2A O1A 1_555 1_555
Cu2A_2 N4 1_555 1_555
O1A Cu1 1_555 1_555
N1A Cu1 1_555 1_555
N2A N1A 1_555 1_555
N3A N2A 1_555 1_555
N4A Cu2 1_555 1_555
N4A_2 Cu2A 1_555 1_555
N4_2 Cu2A 1_555 1_555
N5A N4A 1_555 1_555
N6A N5A 1_555 1_555
N7A C4A 1_555 1_555
C1A C2A 1_555 1_555
C2A C3A 1_555 1_555
C3A H1A 1_555 1_555
C4A C3A 1_555 1_555
H2A C4A 1_555 1_555
C5A N7A 1_555 1_555
H3A C5A 1_555 1_555
C6A C2A 1_555 1_555
H4A C6A 1_555 1_555
O2A Cu2A 1_555 1_555
O3A Cu1 1_555 1_555
O4A N7A 1_555 1_555
H5A O1A 1_555 1_555
H6A O1A 1_555 1_555
Cu2 N1 1_555 1_555
C1 O2 1_555 1_555
C1 O3 1_555 1_555
C5 C6 1_555 1_555
Cu2A N1A 1_555 1_555
Cu2A_2 N4A 1_555 1_555
C1A O2A 1_555 1_555
C1A O3A 1_555 1_555
C5A C6A 1_555 1_555

#END
