
#######################################################################
#
#                 Cambridge Crystallographic Data Centre
#                                CCDC 
#
#######################################################################
#
# If this CIF has been generated from an entry in the Cambridge 
# Structural Database, then it will include bibliographic, chemical, 
# crystal, experimental, refinement or atomic coordinate data resulting 
# from the CCDC's data processing and validation procedures.
#
#######################################################################

data_EBUQOJ
_symmetry_cell_setting           monoclinic
_symmetry_space_group_name_H-M   'P 21/c'
_symmetry_Int_Tables_number      14
_space_group_name_Hall           '-P 2ybc'
loop_
_symmetry_equiv_pos_site_id
_symmetry_equiv_pos_as_xyz
1 x,y,z
2 -x,1/2+y,1/2-z
3 -x,-y,-z
4 x,1/2-y,1/2+z
_cell_length_a                   11.698(2)
_cell_length_b                   14.156(3)
_cell_length_c                   9.4216(19)
_cell_angle_alpha                90
_cell_angle_beta                 98.16(3)
_cell_angle_gamma                90
_cell_volume                     1544.39
loop_
_atom_site_label
_atom_site_type_symbol
_atom_site_fract_x
_atom_site_fract_y
_atom_site_fract_z
Pb1 Pb 0.63805(6) 0.89933(5) 0.10796(7)
I1 I 0.35921(11) 0.91774(10) 0.08960(17)
I2 I 0.69921(16) 0.76105(13) -0.15531(19)
N1 N 0.8460(12) 0.9534(11) 0.1931(15)
N2 N 0.6602(12) 1.0246(11) 0.3067(16)
Cl1 Cl 0.9266(7) 1.2601(4) 0.6182(7)
C1 C 0.5748(19) 1.0587(14) 0.368(2)
H1 H 0.5020 1.0325 0.3416
C2 C 0.585(2) 1.1312(16) 0.469(2)
H2 H 0.5198 1.1538 0.5054
C3 C 0.692(2) 1.1683(14) 0.514(2)
H3 H 0.7022 1.2166 0.5821
C4 C 0.7861(18) 1.1309(14) 0.4550(19)
C5 C 0.9030(19) 1.1692(13) 0.4962(19)
C6 C 0.995(2) 1.1347(16) 0.440(2)
H4 H 1.0694 1.1579 0.4686
C7 C 0.9746(17) 1.0608(13) 0.333(2)
C8 C 1.0684(16) 1.0233(17) 0.269(2)
H5 H 1.1427 1.0474 0.2918
C9 C 1.0465(15) 0.9512(16) 0.172(3)
H6 H 1.1063 0.9240 0.1309
C10 C 0.9380(18) 0.9203(14) 0.137(2)
H7 H 0.9252 0.8723 0.0695
C11 C 0.8657(16) 1.0228(12) 0.2895(19)
C12 C 0.7680(17) 1.0596(12) 0.3517(18)
Pb1B Pb 0.36195(6) 1.10067(5) -0.10796(7)
Pb1C Pb 0.63805(6) 0.60067(5) -0.39204(7)
I1B I 0.64079(11) 1.08226(10) -0.08960(17)
I2C I 0.69921(16) 0.73895(13) 0.34469(19)
loop_
_geom_bond_atom_site_label_1
_geom_bond_atom_site_label_2
_geom_bond_site_symmetry_1
_geom_bond_site_symmetry_2
Pb1 I1 1_555 1_555
I1 Pb1B 1_555 1_555
I2 Pb1 1_555 1_555
N1 Pb1 1_555 1_555
N2 Pb1 1_555 1_555
Cl1 C5 1_555 1_555
C1 N2 1_555 1_555
H1 C1 1_555 1_555
C2 C1 1_555 1_555
H2 C2 1_555 1_555
C3 C2 1_555 1_555
H3 C3 1_555 1_555
C4 C3 1_555 1_555
C5 C4 1_555 1_555
C6 C5 1_555 1_555
H4 C6 1_555 1_555
C7 C6 1_555 1_555
C8 C7 1_555 1_555
H5 C8 1_555 1_555
C9 C8 1_555 1_555
H6 C9 1_555 1_555
C10 N1 1_555 1_555
H7 C10 1_555 1_555
C11 N1 1_555 1_555
C12 N2 1_555 1_555
Pb1B I1B 1_555 1_555
Pb1C I2 1_555 1_555
I1B Pb1 1_555 1_555
I2C Pb1 1_555 1_555
C4 C12 1_555 1_555
C7 C11 1_555 1_555
C9 C10 1_555 1_555
C11 C12 1_555 1_555

#END
