
#######################################################################
#
#                 Cambridge Crystallographic Data Centre
#                                CCDC 
#
#######################################################################
#
# If this CIF has been generated from an entry in the Cambridge 
# Structural Database, then it will include bibliographic, chemical, 
# crystal, experimental, refinement or atomic coordinate data resulting 
# from the CCDC's data processing and validation procedures.
#
#######################################################################

data_EBUQID
_symmetry_cell_setting           monoclinic
_symmetry_space_group_name_H-M   'C c'
_symmetry_Int_Tables_number      9
_space_group_name_Hall           'C -2yc'
loop_
_symmetry_equiv_pos_site_id
_symmetry_equiv_pos_as_xyz
1 x,y,z
2 x,-y,1/2+z
3 1/2+x,1/2+y,z
4 1/2+x,1/2-y,1/2+z
_cell_length_a                   10.178(2)
_cell_length_b                   19.652(4)
_cell_length_c                   8.1846(16)
_cell_angle_alpha                90
_cell_angle_beta                 116.79(3)
_cell_angle_gamma                90
_cell_volume                     1461.35
loop_
_atom_site_label
_atom_site_type_symbol
_atom_site_fract_x
_atom_site_fract_y
_atom_site_fract_z
I1 I 0.61173(12) 0.04764(10) 0.28505(14)
Pb1 Pb 0.36995(11) 0.04500(2) 0.43641(12)
I2 I 0.12746(12) -0.04787(10) 0.08784(13)
N1 N 0.2969(19) 0.1558(9) 0.249(2)
N2 N 0.4426(17) 0.1518(8) 0.623(2)
N3 N 0.334(2) 0.4007(9) 0.280(3)
H1 H 0.3609 0.4352 0.3521
H2 H 0.3005 0.4064 0.1639
C1 C 0.239(3) 0.1543(12) 0.071(3)
H3 H 0.2171 0.1122 0.0128
C2 C 0.206(2) 0.2151(13) -0.039(3)
H4 H 0.1590 0.2130 -0.1660
C3 C 0.247(3) 0.2761(10) 0.051(4)
H5 H 0.2329 0.3164 -0.0146
C4 C 0.313(2) 0.2769(10) 0.245(3)
C5 C 0.344(3) 0.3395(11) 0.347(5)
C6 C 0.399(3) 0.3389(13) 0.532(5)
H6 H 0.4136 0.3796 0.5958
C7 C 0.433(3) 0.2746(12) 0.630(3)
C8 C 0.496(4) 0.2680(13) 0.820(4)
H7 H 0.5147 0.3079 0.8880
C9 C 0.532(3) 0.2087(13) 0.914(3)
H8 H 0.5710 0.2073 1.0407
C10 C 0.509(3) 0.1502(11) 0.810(3)
H9 H 0.5385 0.1085 0.8687
C11 C 0.408(2) 0.2124(9) 0.537(3)
C12 C 0.334(2) 0.2142(9) 0.337(3)
I1A I 0.61173(12) -0.04764(10) 0.78505(14)
Pb1A Pb 0.36995(11) -0.04500(2) -0.06359(12)
I2A I 0.12746(12) 0.04787(10) 0.58784(13)
loop_
_geom_bond_atom_site_label_1
_geom_bond_atom_site_label_2
_geom_bond_site_symmetry_1
_geom_bond_site_symmetry_2
I1 Pb1 1_555 1_555
Pb1 I2 1_555 1_555
I2 Pb1A 1_555 1_555
N1 Pb1 1_555 1_555
N2 Pb1 1_555 1_555
N3 H1 1_555 1_555
H2 N3 1_555 1_555
C1 N1 1_555 1_555
H3 C1 1_555 1_555
C2 C1 1_555 1_555
H4 C2 1_555 1_555
C3 C2 1_555 1_555
H5 C3 1_555 1_555
C4 C3 1_555 1_555
C5 N3 1_555 1_555
C6 C5 1_555 1_555
H6 C6 1_555 1_555
C7 C6 1_555 1_555
C8 C7 1_555 1_555
H7 C8 1_555 1_555
C9 C8 1_555 1_555
H8 C9 1_555 1_555
C10 N2 1_555 1_555
H9 C10 1_555 1_555
C11 N2 1_555 1_555
C12 N1 1_555 1_555
I1A Pb1 1_555 1_555
Pb1A I1 1_555 1_555
I2A Pb1 1_555 1_555
C4 C5 1_555 1_555
C4 C12 1_555 1_555
C7 C11 1_555 1_555
C9 C10 1_555 1_555
C11 C12 1_555 1_555

#END
