
#######################################################################
#
#                 Cambridge Crystallographic Data Centre
#                                CCDC 
#
#######################################################################
#
# If this CIF has been generated from an entry in the Cambridge 
# Structural Database, then it will include bibliographic, chemical, 
# crystal, experimental, refinement or atomic coordinate data resulting 
# from the CCDC's data processing and validation procedures.
#
#######################################################################

data_EBUQEX
_symmetry_cell_setting           monoclinic
_symmetry_space_group_name_H-M   'C 2/c'
_symmetry_Int_Tables_number      15
_space_group_name_Hall           '-C 2yn'
loop_
_symmetry_equiv_pos_site_id
_symmetry_equiv_pos_as_xyz
1 x,y,z
2 1/2+x,1/2+y,z
3 x,-y,1/2+z
4 1/2+x,1/2-y,1/2+z
5 -x,-y,-z
6 1/2-x,1/2-y,-z
7 -x,y,1/2-z
8 1/2-x,1/2+y,1/2-z
_cell_length_a                   19.2710(5)
_cell_length_b                   26.2120(9)
_cell_length_c                   24.0160(7)
_cell_angle_alpha                90
_cell_angle_beta                 92.2180(18)
_cell_angle_gamma                90
_cell_volume                     12122.1
loop_
_atom_site_label
_atom_site_type_symbol
_atom_site_fract_x
_atom_site_fract_y
_atom_site_fract_z
N1 N 0.48683(12) 0.07355(8) 0.10033(10)
N2 N 0.61710(11) 0.07795(8) 0.16439(10)
H1 H 0.5930 0.0525 0.1513
N3 N 0.62557(11) -0.03296(8) 0.15688(9)
N4 N 0.50112(11) -0.03490(9) 0.08444(9)
H2 H 0.5227 -0.0151 0.1046
C1 C 0.43857(14) -0.02760(11) 0.05647(12)
C2 C 0.39988(14) 0.01717(11) 0.05499(12)
C3 C 0.42174(14) 0.06391(11) 0.07663(12)
C4 C 0.38185(15) 0.11017(11) 0.07501(13)
H3 H 0.3358 0.1135 0.0624
C5 C 0.42313(16) 0.14794(12) 0.09508(14)
H4 H 0.4111 0.1821 0.0983
C6 C 0.48985(15) 0.12527(11) 0.11069(13)
C7 C 0.54741(15) 0.15176(10) 0.13321(12)
C8 C 0.60696(15) 0.12907(11) 0.15692(12)
C9 C 0.66650(15) 0.15507(12) 0.18141(14)
H5 H 0.6739 0.1901 0.1819
C10 C 0.70965(16) 0.11907(11) 0.20352(13)
H6 H 0.7522 0.1252 0.2219
C11 C 0.67891(14) 0.06988(11) 0.19386(13)
C12 C 0.70713(14) 0.02284(11) 0.21062(12)
C13 C 0.68033(14) -0.02489(10) 0.19461(12)
C14 C 0.70863(15) -0.07385(11) 0.21165(12)
H7 H 0.7449 -0.0792 0.2377
C15 C 0.67302(15) -0.11033(11) 0.18296(12)
H8 H 0.6805 -0.1453 0.1850
C16 C 0.62103(14) -0.08448(10) 0.14845(12)
C17 C 0.57402(14) -0.10880(10) 0.11092(12)
C18 C 0.51881(14) -0.08526(10) 0.08143(12)
C19 C 0.46620(16) -0.11066(12) 0.04787(13)
H9 H 0.4656 -0.1450 0.0382
C20 C 0.41769(16) -0.07561(11) 0.03281(14)
H10 H 0.3777 -0.0816 0.0109
C21 C 0.32874(14) 0.01467(11) 0.02793(12)
C22 C 0.31928(15) 0.01921(14) -0.02953(13)
H11 H 0.3577 0.0237 -0.0513
C23 C 0.25381(15) 0.01710(14) -0.05474(14)
H12 H 0.2485 0.0197 -0.0933
C24 C 0.19609(13) 0.01112(11) -0.02308(12)
C25 C 0.20541(15) 0.00596(13) 0.03361(13)
H13 H 0.1670 0.0014 0.0554
C26 C 0.27122(15) 0.00753(14) 0.05869(14)
H14 H 0.2765 0.0037 0.0971
C27 C 0.12492(14) 0.00768(11) -0.04847(13)
O1 O 0.07392(10) 0.00138(8) -0.02006(9)
O2 O 0.12024(10) 0.01209(9) -0.10231(9)
H15 H 0.0763 0.0105 -0.1214
C28 C 0.54400(14) 0.20895(11) 0.13161(13)
C29 C 0.54645(16) 0.23822(11) 0.17992(13)
H16 H 0.5522 0.2224 0.2145
C30 C 0.54034(16) 0.29078(11) 0.17680(12)
H17 H 0.5423 0.3101 0.2093
C31 C 0.53128(15) 0.31503(11) 0.12564(12)
C32 C 0.52905(17) 0.28613(11) 0.07757(13)
H18 H 0.5237 0.3020 0.0431
C33 C 0.53481(17) 0.23372(11) 0.08059(13)
H19 H 0.5325 0.2146 0.0479
C34 C 0.52329(16) 0.37136(11) 0.12090(14)
O3 O 0.52006(11) 0.39445(8) 0.17009(9)
H20 H 0.5121 0.4298 0.1643
O4 O 0.51956(13) 0.39437(8) 0.07689(9)
C35 C 0.77085(14) 0.02379(10) 0.24775(12)
C36 C 0.83101(14) -0.00137(11) 0.23275(12)
H21 H 0.8320 -0.0178 0.1985
C37 C 0.88937(14) -0.00218(11) 0.26831(12)
H22 H 0.9287 -0.0199 0.2580
C38 C 0.88987(14) 0.02283(10) 0.31857(12)
C39 C 0.83074(14) 0.04930(11) 0.33341(12)
H23 H 0.8307 0.0669 0.3670
C40 C 0.77209(14) 0.04960(11) 0.29840(12)
H24 H 0.7329 0.0673 0.3089
C41 C 0.95371(14) 0.02296(11) 0.35689(12)
O5 O 1.00207(10) -0.00802(7) 0.34609(8)
O6 O 0.95693(10) 0.05363(7) 0.39695(8)
C42 C 0.57943(14) -0.16517(10) 0.10344(12)
C43 C 0.60199(17) -0.18607(12) 0.05447(14)
H25 H 0.6184 -0.1646 0.0271
C44 C 0.60064(18) -0.23827(12) 0.04527(14)
H26 H 0.6142 -0.2513 0.0113
C45 C 0.57958(15) -0.27055(11) 0.08576(13)
C46 C 0.55858(19) -0.25053(12) 0.13557(14)
H27 H 0.5445 -0.2723 0.1635
C47 C 0.55825(18) -0.19840(12) 0.14424(14)
H28 H 0.5436 -0.1855 0.1779
C48 C 0.57606(17) -0.32655(12) 0.07574(15)
O7 O 0.57636(14) -0.34686(8) 0.03043(10)
O8 O 0.57001(13) -0.35281(8) 0.12237(9)
H29 H 0.5601 -0.3877 0.1152
Na1 Na -0.00359(6) -0.07071(4) -0.00995(5)
O9 O 0.08183(18) -0.12038(17) -0.05980(16)
O10 O 0.0938(2) -0.20195(19) -0.04946(15)
N5 N 0.0921(2) -0.1629(2) -0.07766(19)
C49 C 0.1034(2) -0.16866(17) -0.13751(17)
C50 C 0.0923(2) -0.12817(17) -0.1712(2)
H30 H 0.0790 -0.0969 -0.1567
C51 C 0.1009(3) -0.1338(3) -0.2260(3)
H31 H 0.0917 -0.1065 -0.2499
C52 C 0.1229(3) -0.1788(3) -0.2473(2)
H32 H 0.1311 -0.1814 -0.2851
C53 C 0.1326(3) -0.2192(2) -0.2141(2)
H33 H 0.1473 -0.2500 -0.2288
C54 C 0.1209(3) -0.21536(19) -0.1571(2)
H34 H 0.1249 -0.2435 -0.1337
Na1D Na 0.00359(6) 0.07071(4) 0.00995(5)
Na1A Na 0.49641(6) 0.42929(4) -0.00995(5)
Na1B Na 0.99641(6) 0.07071(4) 0.49005(5)
Na1E Na 0.50359(6) -0.42929(4) 0.00995(5)
O1D O -0.07392(10) -0.00138(8) 0.02006(9)
O4A O 0.01956(13) -0.10563(8) 0.07689(9)
O6B O -0.04307(10) -0.05363(7) -0.10305(8)
O7E O -0.07636(14) -0.15314(8) -0.03043(10)
loop_
_geom_bond_atom_site_label_1
_geom_bond_atom_site_label_2
_geom_bond_site_symmetry_1
_geom_bond_site_symmetry_2
N1 C3 1_555 1_555
N2 H1 1_555 1_555
N3 C13 1_555 1_555
N4 H2 1_555 1_555
C1 N4 1_555 1_555
C2 C1 1_555 1_555
C3 C2 1_555 1_555
C4 C3 1_555 1_555
H3 C4 1_555 1_555
C5 C4 1_555 1_555
H4 C5 1_555 1_555
C6 N1 1_555 1_555
C7 C6 1_555 1_555
C8 N2 1_555 1_555
C9 C8 1_555 1_555
H5 C9 1_555 1_555
C10 C9 1_555 1_555
H6 C10 1_555 1_555
C11 N2 1_555 1_555
C12 C11 1_555 1_555
C13 C12 1_555 1_555
C14 C13 1_555 1_555
H7 C14 1_555 1_555
C15 C14 1_555 1_555
H8 C15 1_555 1_555
C16 N3 1_555 1_555
C17 C16 1_555 1_555
C18 N4 1_555 1_555
C19 C18 1_555 1_555
H9 C19 1_555 1_555
C20 C1 1_555 1_555
H10 C20 1_555 1_555
C21 C2 1_555 1_555
C22 C21 1_555 1_555
H11 C22 1_555 1_555
C23 C22 1_555 1_555
H12 C23 1_555 1_555
C24 C23 1_555 1_555
C25 C24 1_555 1_555
H13 C25 1_555 1_555
C26 C21 1_555 1_555
H14 C26 1_555 1_555
C27 C24 1_555 1_555
O1 C27 1_555 1_555
O2 C27 1_555 1_555
H15 O2 1_555 1_555
C28 C7 1_555 1_555
C29 C28 1_555 1_555
H16 C29 1_555 1_555
C30 C29 1_555 1_555
H17 C30 1_555 1_555
C31 C30 1_555 1_555
C32 C31 1_555 1_555
H18 C32 1_555 1_555
C33 C28 1_555 1_555
H19 C33 1_555 1_555
C34 C31 1_555 1_555
O3 C34 1_555 1_555
H20 O3 1_555 1_555
O4 C34 1_555 1_555
C35 C12 1_555 1_555
C36 C35 1_555 1_555
H21 C36 1_555 1_555
C37 C36 1_555 1_555
H22 C37 1_555 1_555
C38 C37 1_555 1_555
C39 C38 1_555 1_555
H23 C39 1_555 1_555
C40 C35 1_555 1_555
H24 C40 1_555 1_555
C41 C38 1_555 1_555
O5 C41 1_555 1_555
O6 C41 1_555 1_555
C42 C17 1_555 1_555
C43 C42 1_555 1_555
H25 C43 1_555 1_555
C44 C43 1_555 1_555
H26 C44 1_555 1_555
C45 C44 1_555 1_555
C46 C45 1_555 1_555
H27 C46 1_555 1_555
C47 C42 1_555 1_555
H28 C47 1_555 1_555
C48 C45 1_555 1_555
O7 C48 1_555 1_555
O8 C48 1_555 1_555
H29 O8 1_555 1_555
Na1 O1 1_555 1_555
O9 Na1 1_555 1_555
O10 N5 1_555 1_555
N5 O9 1_555 1_555
C49 N5 1_555 1_555
C50 C49 1_555 1_555
H30 C50 1_555 1_555
C51 C50 1_555 1_555
H31 C51 1_555 1_555
C52 C51 1_555 1_555
H32 C52 1_555 1_555
C53 C52 1_555 1_555
H33 C53 1_555 1_555
C54 C49 1_555 1_555
H34 C54 1_555 1_555
Na1D O1 1_555 1_555
Na1A O4 1_555 1_555
Na1B O6 1_555 1_555
Na1E O7 1_555 1_555
O1D Na1 1_555 1_555
O4A Na1 1_555 1_555
O6B Na1 1_555 1_555
O7E Na1 1_555 1_555
C5 C6 1_555 1_555
C7 C8 1_555 1_555
C10 C11 1_555 1_555
C15 C16 1_555 1_555
C17 C18 1_555 1_555
C19 C20 1_555 1_555
C25 C26 1_555 1_555
C32 C33 1_555 1_555
C39 C40 1_555 1_555
C46 C47 1_555 1_555
C53 C54 1_555 1_555
Na1D O1D 1_555 1_555

#END
