
#######################################################################
#
#                 Cambridge Crystallographic Data Centre
#                                CCDC 
#
#######################################################################
#
# If this CIF has been generated from an entry in the Cambridge 
# Structural Database, then it will include bibliographic, chemical, 
# crystal, experimental, refinement or atomic coordinate data resulting 
# from the CCDC's data processing and validation procedures.
#
#######################################################################

data_EBUQEZ
_symmetry_cell_setting           monoclinic
_symmetry_space_group_name_H-M   'P 21/c'
_symmetry_Int_Tables_number      14
_space_group_name_Hall           '-P 2ybc'
loop_
_symmetry_equiv_pos_site_id
_symmetry_equiv_pos_as_xyz
1 x,y,z
2 -x,1/2+y,1/2-z
3 -x,-y,-z
4 x,1/2-y,1/2+z
_cell_length_a                   11.494(2)
_cell_length_b                   14.205(3)
_cell_length_c                   9.7499(19)
_cell_angle_alpha                90
_cell_angle_beta                 98.87(3)
_cell_angle_gamma                90
_cell_volume                     1572.85
loop_
_atom_site_label
_atom_site_type_symbol
_atom_site_fract_x
_atom_site_fract_y
_atom_site_fract_z
Pb1 Pb 0.64133(4) 0.10269(3) 0.11125(5)
I1 I 0.35662(8) 0.08652(7) 0.07043(11)
I2 I 0.70075(12) 0.24498(9) -0.14771(13)
C1 C 0.9437(14) 0.0682(12) 0.1541(16)
H1 H 0.9371 0.1156 0.0875
C2 C 0.7551(9) -0.0588(7) 0.3583(11)
N1 N 0.8455(8) 0.0413(8) 0.2035(11)
C3 C 0.8586(11) -0.0272(8) 0.3040(12)
C4 C 0.7657(11) -0.1289(8) 0.4614(13)
C5 C 0.5562(11) -0.0507(10) 0.3501(15)
H2 H 0.4840 -0.0254 0.3113
O1 O 0.8390(14) -0.2395(9) 0.7044(12)
C6 C 0.6569(12) -0.1563(9) 0.5053(14)
H3 H 0.6579 -0.2023 0.5734
C7 C 0.5557(13) -0.1180(10) 0.4514(16)
H4 H 0.4858 -0.1360 0.4811
C8 C 0.8812(13) -0.1677(9) 0.5065(14)
C9 C 0.9736(12) -0.1417(10) 0.4523(15)
H5 H 1.0455 -0.1712 0.4808
N2 N 0.8928(13) -0.2439(9) 0.6071(14)
C10 C 1.0646(11) -0.0375(11) 0.2958(17)
H6 H 1.1385 -0.0626 0.3276
O2 O 0.9576(15) -0.3088(10) 0.5881(16)
C11 C 1.0520(13) 0.0300(12) 0.1961(18)
H7 H 1.1166 0.0499 0.1568
N3 N 0.6490(8) -0.0196(7) 0.3043(10)
C12 C 0.9660(11) -0.0690(10) 0.3506(14)
Pb1B Pb 0.35867(4) -0.10269(3) -0.11125(5)
Pb1C Pb 0.64133(4) 0.39731(3) -0.38875(5)
I1B I 0.64338(8) -0.08652(7) -0.07043(11)
I2C I 0.70075(12) 0.25502(9) 0.35229(13)
loop_
_geom_bond_atom_site_label_1
_geom_bond_atom_site_label_2
_geom_bond_site_symmetry_1
_geom_bond_site_symmetry_2
Pb1 I1 1_555 1_555
I1 Pb1B 1_555 1_555
I2 Pb1 1_555 1_555
C1 H1 1_555 1_555
C2 C3 1_555 1_555
N1 Pb1 1_555 1_555
C3 N1 1_555 1_555
C4 C2 1_555 1_555
C5 H2 1_555 1_555
O1 N2 1_555 1_555
C6 C4 1_555 1_555
H3 C6 1_555 1_555
C7 C5 1_555 1_555
H4 C7 1_555 1_555
C8 C4 1_555 1_555
C9 C8 1_555 1_555
H5 C9 1_555 1_555
N2 C8 1_555 1_555
C10 H6 1_555 1_555
O2 N2 1_555 1_555
C11 C1 1_555 1_555
H7 C11 1_555 1_555
N3 Pb1 1_555 1_555
C12 C3 1_555 1_555
Pb1B I1B 1_555 1_555
Pb1C I2 1_555 1_555
I1B Pb1 1_555 1_555
I2C Pb1 1_555 1_555
C1 N1 1_555 1_555
C2 N3 1_555 1_555
C5 N3 1_555 1_555
C6 C7 1_555 1_555
C9 C12 1_555 1_555
C10 C11 1_555 1_555
C10 C12 1_555 1_555

#END
