
#######################################################################
#
#                 Cambridge Crystallographic Data Centre
#                                CCDC 
#
#######################################################################
#
# If this CIF has been generated from an entry in the Cambridge 
# Structural Database, then it will include bibliographic, chemical, 
# crystal, experimental, refinement or atomic coordinate data resulting 
# from the CCDC's data processing and validation procedures.
#
#######################################################################

data_EBUQOH
_symmetry_cell_setting           monoclinic
_symmetry_space_group_name_H-M   'P 2/c'
_symmetry_Int_Tables_number      13
_space_group_name_Hall           '-P 2yc'
loop_
_symmetry_equiv_pos_site_id
_symmetry_equiv_pos_as_xyz
1 x,y,z
2 x,-y,1/2+z
3 -x,-y,-z
4 -x,y,1/2-z
_cell_length_a                   30.7150(5)
_cell_length_b                   13.7960(3)
_cell_length_c                   33.5550(8)
_cell_angle_alpha                90
_cell_angle_beta                 92.7990(6)
_cell_angle_gamma                90
_cell_volume                     14201.8
loop_
_atom_site_label
_atom_site_type_symbol
_atom_site_fract_x
_atom_site_fract_y
_atom_site_fract_z
Na3 Na 0.75040(6) 0.37056(12) 0.04075(6)
O17 O 0.76631(11) 0.1982(2) 0.07118(10)
C107 C 0.76458(16) 0.1257(4) 0.04395(18)
C108 C 0.75981(19) 0.0273(4) 0.0545(2)
H59 H 0.7589 0.0085 0.0810
C109 C 0.7565(2) -0.0398(5) 0.0241(3)
H60 H 0.7507 -0.1039 0.0306
C110 C 0.7613(2) -0.0178(5) -0.0132(3)
H61 H 0.7618 -0.0665 -0.0323
C111 C 0.7657(2) 0.0805(5) -0.0246(2)
H62 H 0.7667 0.0967 -0.0514
C112 C 0.76861(18) 0.1536(4) 0.00477(19)
O18 O 0.77363(14) 0.2510(2) -0.00499(11)
C113 C 0.8160(3) 0.2816(6) -0.0194(3)
H63 H 0.8280 0.2322 -0.0364
H64 H 0.8133 0.3417 -0.0343
C114 C 0.8422(2) 0.2940(4) 0.0154(4)
H65 H 0.8724 0.3018 0.0087
H66 H 0.8402 0.2373 0.0323
O19 O 0.82795(12) 0.3786(2) 0.03636(15)
C115 C 0.8472(2) 0.3921(5) 0.0752(3)
H67 H 0.8785 0.4002 0.0738
H68 H 0.8419 0.3357 0.0915
C116 C 0.8273(3) 0.4822(6) 0.0937(3)
H69 H 0.8398 0.4925 0.1205
H70 H 0.8330 0.5391 0.0778
O20 O 0.78271(17) 0.4659(3) 0.09467(12)
C117 C 0.7547(3) 0.5596(5) 0.0978(3)
H71 H 0.7250 0.5423 0.1034
H72 H 0.7664 0.5995 0.1196
C118 C 0.7550(3) 0.6120(5) 0.0620(3)
H73 H 0.7374 0.6700 0.0640
H74 H 0.7846 0.6315 0.0569
O21 O 0.73871(11) 0.5556(2) 0.03128(15)
C119 C 0.74172(18) 0.5931(5) -0.0083(2)
C120 C 0.74648(19) 0.6917(4) -0.0135(3)
H75 H 0.7479 0.7338 0.0082
C121 C 0.7490(2) 0.7242(4) -0.0505(3)
H76 H 0.7535 0.7899 -0.0551
C122 C 0.7450(2) 0.6606(4) -0.0820(3)
H77 H 0.7464 0.6850 -0.1077
C123 C 0.7391(2) 0.5637(5) -0.0772(3)
H78 H 0.7365 0.5220 -0.0990
C124 C 0.7371(2) 0.5290(4) -0.0377(3)
O22 O 0.73300(15) 0.4311(3) -0.02661(15)
C125 C 0.7041(4) 0.3841(6) -0.0488(3)
H79 H 0.7123 0.3167 -0.0518
H80 H 0.7001 0.4135 -0.0750
C126 C 0.6678(3) 0.3927(7) -0.0280(4)
H81 H 0.6427 0.3700 -0.0441
H82 H 0.6631 0.4602 -0.0214
O23 O 0.67237(19) 0.3373(4) 0.0074(2)
C127 C 0.6628(3) 0.3304(5) 0.0400(3)
H83 H 0.6315 0.3336 0.0344
H84 H 0.6703 0.3963 0.0477
C128 C 0.6607(2) 0.2908(6) 0.0819(4)
H85 H 0.6588 0.2207 0.0825
H86 H 0.6372 0.3192 0.0963
O24 O 0.7049(2) 0.3278(3) 0.09606(18)
C129 C 0.7305(3) 0.2802(5) 0.1222(2)
H87 H 0.7148 0.2715 0.1463
H88 H 0.7556 0.3205 0.1290
C130 C 0.7472(2) 0.1799(4) 0.10929(19)
H89 H 0.7688 0.1549 0.1286
H90 H 0.7233 0.1339 0.1063
N1 N 0.01261(10) 0.1983(2) 0.09308(9)
N2 N 0.06803(10) 0.2353(2) 0.02712(9)
N3 N 0.00372(10) 0.1447(2) -0.02715(9)
N4 N -0.05263(10) 0.11239(19) 0.03889(9)
C1 C -0.07486(12) 0.1085(2) 0.07265(11)
C2 C -0.05956(13) 0.1382(3) 0.11021(12)
C3 C -0.01805(13) 0.1783(3) 0.11976(12)
C4 C -0.00284(14) 0.2063(3) 0.15929(13)
H1 H -0.0177 0.1987 0.1826
C5 C 0.03715(14) 0.2459(3) 0.15615(13)
H2 H 0.0549 0.2713 0.1768
C6 C 0.04729(13) 0.2412(3) 0.11346(12)
C7 C 0.08490(13) 0.2781(3) 0.09775(12)
C8 C 0.09480(12) 0.2749(2) 0.05759(12)
C9 C 0.13427(13) 0.3062(3) 0.04151(12)
H3 H 0.1574 0.3358 0.0556
C10 C 0.13236(13) 0.2853(2) 0.00163(12)
H4 H 0.1538 0.2978 -0.0163
C11 C 0.09106(12) 0.2405(2) -0.00706(11)
C12 C 0.07618(12) 0.2073(2) -0.04462(12)
C13 C 0.03551(12) 0.1599(3) -0.05317(12)
C14 C 0.02167(13) 0.1200(3) -0.09190(12)
H5 H 0.0375 0.1200 -0.1148
C15 C -0.01862(13) 0.0831(3) -0.08797(12)
H6 H -0.0357 0.0522 -0.1078
C16 C -0.03024(12) 0.1000(2) -0.04803(12)
C17 C -0.06980(12) 0.0751(2) -0.03212(11)
C18 C -0.08007(13) 0.0796(2) 0.00816(12)
C19 C -0.12108(13) 0.0529(3) 0.02406(12)
H7 H -0.1451 0.0276 0.0097
C20 C -0.11833(13) 0.0712(3) 0.06335(12)
H8 H -0.1401 0.0617 0.0812
C21 C -0.09122(13) 0.1314(3) 0.14328(11)
C22 C -0.10602(14) 0.0421(3) 0.15574(13)
H9 H -0.0936 -0.0144 0.1463
C23 C -0.13875(13) 0.0365(3) 0.18174(13)
H10 H -0.1490 -0.0242 0.1889
C24 C -0.15729(13) 0.1190(3) 0.19783(12)
C25 C -0.14146(13) 0.2081(3) 0.18640(12)
H11 H -0.1528 0.2644 0.1970
C26 C -0.10910(14) 0.2144(3) 0.15941(12)
H12 H -0.0991 0.2750 0.1519
C27 C -0.19409(13) 0.1122(3) 0.22597(12)
O1 O -0.20921(9) 0.18812(19) 0.23961(9)
O2 O -0.20752(10) 0.0280(2) 0.23333(9)
C28 C 0.11762(13) 0.3289(3) 0.12489(12)
C29 C 0.14065(13) 0.2783(3) 0.15550(12)
H13 H 0.1360 0.2120 0.1582
C30 C 0.16978(13) 0.3239(3) 0.18153(12)
H14 H 0.1849 0.2884 0.2013
C31 C 0.17673(14) 0.4220(3) 0.17845(12)
C32 C 0.15441(15) 0.4742(3) 0.14838(14)
H15 H 0.1593 0.5404 0.1456
C33 C 0.12493(15) 0.4270(3) 0.12258(13)
H16 H 0.1096 0.4628 0.1031
C34 C 0.20709(13) 0.4780(3) 0.20694(13)
O3 O 0.21045(11) 0.56527(19) 0.20509(9)
O4 O 0.22779(10) 0.42421(19) 0.23337(9)
C35 C 0.10446(12) 0.2237(2) -0.07938(12)
C36 C 0.14358(13) 0.1762(3) -0.08167(12)
H17 H 0.1524 0.1329 -0.0616
C37 C 0.16996(12) 0.1917(2) -0.11314(12)
H18 H 0.1959 0.1574 -0.1145
C38 C 0.15836(12) 0.2573(2) -0.14240(12)
C39 C 0.11859(13) 0.3038(3) -0.14023(13)
H19 H 0.1095 0.3467 -0.1603
C40 C 0.09262(14) 0.2880(3) -0.10929(12)
H20 H 0.0664 0.3212 -0.1083
C41 C 0.18658(13) 0.2772(3) -0.17668(13)
O5 O 0.22284(9) 0.23398(18) -0.17857(8)
O6 O 0.17399(9) 0.3375(2) -0.20295(9)
C42 C -0.10559(13) 0.0425(3) -0.06158(12)
C43 C -0.12583(13) -0.0474(3) -0.05706(13)
H21 H -0.1163 -0.0886 -0.0365
C44 C -0.15962(13) -0.0751(3) -0.08262(12)
H22 H -0.1731 -0.1347 -0.0790
C45 C -0.17400(13) -0.0162(3) -0.11363(13)
C46 C -0.15393(14) 0.0734(3) -0.11831(13)
H23 H -0.1632 0.1137 -0.1393
C47 C -0.12057(14) 0.1027(3) -0.09223(12)
H24 H -0.1080 0.1634 -0.0952
C48 C -0.21095(13) -0.0482(3) -0.14191(13)
O7 O -0.22930(9) -0.1282(2) -0.13140(9)
O8 O -0.22221(11) -0.0006(2) -0.17188(10)
Zn1 Zn 0.003917(14) 0.19102(3) 0.031695(13)
N5 N -0.02595(11) 0.3311(2) 0.02272(11)
C49 C -0.02945(17) 0.3969(3) 0.05134(18)
H25 H -0.0197 0.3818 0.0773
C50 C -0.0474(2) 0.4874(3) 0.0434(2)
H26 H -0.0493 0.5336 0.0634
C51 C -0.0618(2) 0.5061(5) 0.0058(3)
H27 H -0.0745 0.5661 0.0001
C52 C -0.0588(3) 0.4423(4) -0.0238(3)
H28 H -0.0685 0.4568 -0.0498
C53 C -0.04093(16) 0.3550(3) -0.01380(19)
H29 H -0.0390 0.3089 -0.0339
C54 C -0.43913(10) -0.5078(2) 0.50421(13)
H30 H -0.4271 -0.5682 0.5103
C55 C -0.44255(13) -0.4762(3) 0.46484(13)
H31 H -0.4328 -0.5155 0.4446
C56 C -0.46051(14) -0.3860(3) 0.45574(12)
H32 H -0.4628 -0.3649 0.4294
N6 N -0.47506(11) -0.3272(2) 0.48602(15)
C57 C -0.47164(13) -0.3588(3) 0.52539(13)
H33 H -0.4814 -0.3195 0.5456
C58 C -0.45368(13) -0.4491(3) 0.53448(12)
H34 H -0.4514 -0.4702 0.5608
N7 N -0.50847(12) -0.2268(3) 0.41038(11)
N8 N -0.44438(11) -0.1307(3) 0.46334(11)
N9 N -0.50552(11) -0.1403(3) 0.52631(10)
N10 N -0.56690(11) -0.2459(3) 0.47478(10)
C59 C -0.59209(14) -0.2927(3) 0.44530(13)
C60 C -0.58070(15) -0.3029(3) 0.40654(13)
C61 C -0.54265(16) -0.2699(4) 0.38968(14)
C62 C -0.53232(16) -0.2790(4) 0.34849(15)
H35 H -0.5501 -0.3064 0.3283
C63 C -0.49286(17) -0.2414(4) 0.34426(15)
H36 H -0.4784 -0.2360 0.3207
C64 C -0.47696(16) -0.2103(4) 0.38354(14)
C65 C -0.43464(16) -0.1733(3) 0.39315(14)
C66 C -0.41976(14) -0.1410(3) 0.43063(14)
C67 C -0.37504(15) -0.1152(3) 0.44189(14)
H37 H -0.3515 -0.1176 0.4255
C68 C -0.37360(14) -0.0872(3) 0.48037(13)
H38 H -0.3491 -0.0661 0.4953
C69 C -0.41740(14) -0.0957(3) 0.49430(14)
C70 C -0.43146(13) -0.0721(3) 0.53205(13)
C71 C -0.47224(15) -0.0879(3) 0.54586(13)
C72 C -0.48811(14) -0.0578(3) 0.58367(13)
H39 H -0.4731 -0.0193 0.6025
C73 C -0.52821(14) -0.0948(3) 0.58709(13)
H40 H -0.5459 -0.0872 0.6086
C74 C -0.53844(13) -0.1475(3) 0.55184(12)
C75 C -0.57749(13) -0.2003(3) 0.54430(12)
C76 C -0.59010(14) -0.2461(3) 0.50838(14)
C77 C -0.63072(15) -0.2969(4) 0.50061(14)
H41 H -0.6521 -0.3079 0.5188
C78 C -0.63200(15) -0.3254(4) 0.46204(13)
H42 H -0.6544 -0.3597 0.4487
C79 C -0.61283(14) -0.3592(3) 0.37806(12)
C80 C -0.6105(2) -0.4569(4) 0.3759(2)
H43 H -0.5898 -0.4905 0.3916
C81 C -0.6398(2) -0.5079(4) 0.34951(17)
H44 H -0.6383 -0.5752 0.3486
C82 C -0.66904(14) -0.4632(3) 0.32621(13)
C83 C -0.6714(2) -0.3639(4) 0.3304(2)
H45 H -0.6921 -0.3292 0.3150
C84 C -0.6441(2) -0.3162(4) 0.3564(2)
H46 H -0.6476 -0.2497 0.3592
C85 C -0.69867(14) -0.5216(3) 0.29919(12)
O9 O -0.69561(10) -0.60747(19) 0.29627(8)
O10 O -0.72785(10) -0.4706(2) 0.27909(10)
C86 C -0.40378(15) -0.1701(3) 0.36097(14)
C87 C -0.38764(15) -0.0835(3) 0.34748(14)
H47 H -0.3975 -0.0264 0.3587
C88 C -0.35740(15) -0.0770(3) 0.31801(14)
H48 H -0.3478 -0.0170 0.3094
C89 C -0.34202(15) -0.1616(3) 0.30186(13)
C90 C -0.35773(17) -0.2486(3) 0.31439(16)
H49 H -0.3482 -0.3056 0.3028
C91 C -0.38739(18) -0.2536(4) 0.34377(16)
H50 H -0.3967 -0.3140 0.3523
C92 C -0.30795(14) -0.1560(3) 0.27047(13)
O11 O -0.29193(10) -0.23113(19) 0.25759(9)
O12 O -0.29753(11) -0.0718(2) 0.26001(10)
C93 C -0.39705(14) -0.0281(3) 0.56032(13)
C94 C -0.38778(14) -0.0681(3) 0.59731(14)
H51 H -0.4036 -0.1214 0.6055
C95 C -0.35582(15) -0.0304(3) 0.62199(14)
H52 H -0.3500 -0.0587 0.6468
C96 C -0.33188(14) 0.0489(3) 0.61113(13)
C97 C -0.34156(15) 0.0920(3) 0.57471(13)
H53 H -0.3259 0.1461 0.5672
C98 C -0.37419(15) 0.0556(3) 0.54943(14)
H54 H -0.3811 0.0861 0.5252
C99 C -0.29589(15) 0.0873(3) 0.63793(14)
O13 O -0.27723(10) 0.1672(2) 0.62498(9)
O14 O -0.28387(11) 0.0472(2) 0.66885(10)
C100 C -0.60639(13) -0.2121(3) 0.57827(12)
C101 C -0.63690(14) -0.1455(3) 0.58719(12)
H55 H -0.6409 -0.0918 0.5706
C102 C -0.66236(14) -0.1540(3) 0.61979(12)
H56 H -0.6829 -0.1065 0.6247
C103 C -0.65757(12) -0.2321(3) 0.64499(12)
C104 C -0.62719(18) -0.2995(4) 0.63491(15)
H57 H -0.6237 -0.3548 0.6506
C105 C -0.60197(18) -0.2891(4) 0.60305(16)
H58 H -0.5812 -0.3360 0.5982
C106 C -0.68422(13) -0.2443(3) 0.68087(12)
O15 O -0.71676(8) -0.18899(18) 0.68460(8)
O16 O -0.67413(11) -0.3062(2) 0.70665(10)
Zn2 Zn -0.503010(17) -0.20141(4) 0.470630(15)
Na1 Na -0.26280(5) 0.06717(10) 0.27386(5)
Na2 Na -0.26927(5) 0.28325(10) 0.24821(5)
O25 O -0.30567(11) 0.1384(2) 0.21902(10)
H91 H -0.3429 0.1460 0.2199
Na4 Na -0.24065(5) -0.11195(11) 0.22113(5)
Na5 Na 0.23433(6) 0.67206(11) 0.25465(5)
O26 O -0.19482(13) -0.1809(2) 0.27330(10)
H92 H -0.1564 -0.1755 0.2753
Na2C Na 0.26927(5) 0.28325(10) 0.25179(5)
Na4B Na 0.24065(5) 0.11195(11) -0.22113(5)
Na5A Na 0.23433(6) 0.32794(11) -0.24535(5)
Na1A Na -0.26280(5) -0.06717(10) -0.22614(5)
Na2C_2 Na -0.73073(5) -0.71675(10) 0.25179(5)
Na5_2 Na -0.76567(6) -0.32794(11) 0.25465(5)
Na5C Na -0.23433(6) -0.32794(11) 0.24535(5)
Na4A Na -0.24065(5) 0.11195(11) 0.72113(5)
Na1B Na -0.73720(5) -0.06717(10) 0.72614(5)
Na2B Na -0.73073(5) -0.28325(10) 0.75179(5)
O8A O -0.22221(11) 0.0006(2) 0.32812(10)
O15B O -0.28324(8) 0.18899(18) 0.31540(8)
O4C O -0.22779(10) 0.42421(19) 0.26663(9)
O9C O -0.30439(10) 0.39253(19) 0.20373(8)
O16B O -0.32587(11) 0.3062(2) 0.29335(10)
O5B O -0.22284(9) -0.23398(18) 0.17857(8)
O14A O -0.28387(11) -0.0472(2) 0.16885(10)
O6A O 0.17399(9) 0.6625(2) 0.29705(9)
O10_2 O 0.27215(10) 0.5294(2) 0.27909(10)
O11C O 0.29193(10) 0.76887(19) 0.24241(9)
Na4C Na 0.24065(5) 0.88805(11) 0.27887(5)
O26C O 0.19482(13) 0.8191(2) 0.22670(10)
H92C H 0.1564 0.8245 0.2247
loop_
_geom_bond_atom_site_label_1
_geom_bond_atom_site_label_2
_geom_bond_site_symmetry_1
_geom_bond_site_symmetry_2
N1 C3 1_555 1_555
N2 C8 1_555 1_555
N3 C13 1_555 1_555
N4 C1 1_555 1_555
C1 C2 1_555 1_555
C2 C3 1_555 1_555
C3 C4 1_555 1_555
C4 H1 1_555 1_555
C5 C4 1_555 1_555
H2 C5 1_555 1_555
C6 N1 1_555 1_555
C7 C6 1_555 1_555
C8 C7 1_555 1_555
C9 C8 1_555 1_555
H3 C9 1_555 1_555
C10 C9 1_555 1_555
H4 C10 1_555 1_555
C11 N2 1_555 1_555
C12 C11 1_555 1_555
C13 C12 1_555 1_555
C14 C13 1_555 1_555
H5 C14 1_555 1_555
C15 C14 1_555 1_555
H6 C15 1_555 1_555
C16 N3 1_555 1_555
C17 C16 1_555 1_555
C18 N4 1_555 1_555
C19 C18 1_555 1_555
H7 C19 1_555 1_555
C20 C1 1_555 1_555
H8 C20 1_555 1_555
C21 C2 1_555 1_555
C22 C21 1_555 1_555
H9 C22 1_555 1_555
C23 C22 1_555 1_555
H10 C23 1_555 1_555
C24 C23 1_555 1_555
C25 C24 1_555 1_555
H11 C25 1_555 1_555
C26 C21 1_555 1_555
H12 C26 1_555 1_555
C27 C24 1_555 1_555
O1 C27 1_555 1_555
O2 C27 1_555 1_555
C28 C7 1_555 1_555
C29 C28 1_555 1_555
H13 C29 1_555 1_555
C30 C29 1_555 1_555
H14 C30 1_555 1_555
C31 C30 1_555 1_555
C32 C31 1_555 1_555
H15 C32 1_555 1_555
C33 C28 1_555 1_555
H16 C33 1_555 1_555
C34 C31 1_555 1_555
O3 C34 1_555 1_555
O4 C34 1_555 1_555
C35 C12 1_555 1_555
C36 C35 1_555 1_555
H17 C36 1_555 1_555
C37 C36 1_555 1_555
H18 C37 1_555 1_555
C38 C37 1_555 1_555
C39 C38 1_555 1_555
H19 C39 1_555 1_555
C40 C35 1_555 1_555
H20 C40 1_555 1_555
C41 C38 1_555 1_555
O5 C41 1_555 1_555
O6 C41 1_555 1_555
C42 C17 1_555 1_555
C43 C42 1_555 1_555
H21 C43 1_555 1_555
C44 C43 1_555 1_555
H22 C44 1_555 1_555
C45 C44 1_555 1_555
C46 C45 1_555 1_555
H23 C46 1_555 1_555
C47 C42 1_555 1_555
H24 C47 1_555 1_555
C48 C45 1_555 1_555
O7 C48 1_555 1_555
O8 C48 1_555 1_555
Zn1 N1 1_555 1_555
N5 Zn1 1_555 1_555
C49 N5 1_555 1_555
H25 C49 1_555 1_555
C50 C49 1_555 1_555
H26 C50 1_555 1_555
C51 C50 1_555 1_555
H27 C51 1_555 1_555
C52 C51 1_555 1_555
H28 C52 1_555 1_555
C53 N5 1_555 1_555
H29 C53 1_555 1_555
C54 H30 1_555 1_555
C55 C54 1_555 1_555
H31 C55 1_555 1_555
C56 C55 1_555 1_555
H32 C56 1_555 1_555
N6 C56 1_555 1_555
C57 N6 1_555 1_555
H33 C57 1_555 1_555
C58 C54 1_555 1_555
H34 C58 1_555 1_555
N7 C61 1_555 1_555
N8 C66 1_555 1_555
N9 C71 1_555 1_555
N10 C59 1_555 1_555
C59 C60 1_555 1_555
C60 C61 1_555 1_555
C61 C62 1_555 1_555
C62 H35 1_555 1_555
C63 C62 1_555 1_555
H36 C63 1_555 1_555
C64 N7 1_555 1_555
C65 C64 1_555 1_555
C66 C65 1_555 1_555
C67 C66 1_555 1_555
H37 C67 1_555 1_555
C68 C67 1_555 1_555
H38 C68 1_555 1_555
C69 N8 1_555 1_555
C70 C69 1_555 1_555
C71 C70 1_555 1_555
C72 C71 1_555 1_555
H39 C72 1_555 1_555
C73 C72 1_555 1_555
H40 C73 1_555 1_555
C74 N9 1_555 1_555
C75 C74 1_555 1_555
C76 N10 1_555 1_555
C77 C76 1_555 1_555
H41 C77 1_555 1_555
C78 C59 1_555 1_555
H42 C78 1_555 1_555
C79 C60 1_555 1_555
C80 C79 1_555 1_555
H43 C80 1_555 1_555
C81 C80 1_555 1_555
H44 C81 1_555 1_555
C82 C81 1_555 1_555
C83 C82 1_555 1_555
H45 C83 1_555 1_555
C84 C79 1_555 1_555
H46 C84 1_555 1_555
C85 C82 1_555 1_555
O9 C85 1_555 1_555
O10 C85 1_555 1_555
C86 C65 1_555 1_555
C87 C86 1_555 1_555
H47 C87 1_555 1_555
C88 C87 1_555 1_555
H48 C88 1_555 1_555
C89 C88 1_555 1_555
C90 C89 1_555 1_555
H49 C90 1_555 1_555
C91 C86 1_555 1_555
H50 C91 1_555 1_555
C92 C89 1_555 1_555
O11 C92 1_555 1_555
O12 C92 1_555 1_555
C93 C70 1_555 1_555
C94 C93 1_555 1_555
H51 C94 1_555 1_555
C95 C94 1_555 1_555
H52 C95 1_555 1_555
C96 C95 1_555 1_555
C97 C96 1_555 1_555
H53 C97 1_555 1_555
C98 C93 1_555 1_555
H54 C98 1_555 1_555
C99 C96 1_555 1_555
O13 C99 1_555 1_555
O14 C99 1_555 1_555
C100 C75 1_555 1_555
C101 C100 1_555 1_555
H55 C101 1_555 1_555
C102 C101 1_555 1_555
H56 C102 1_555 1_555
C103 C102 1_555 1_555
C104 C103 1_555 1_555
H57 C104 1_555 1_555
C105 C100 1_555 1_555
H58 C105 1_555 1_555
C106 C103 1_555 1_555
O15 C106 1_555 1_555
O16 C106 1_555 1_555
Zn2 N6 1_555 1_555
Na1 O2 1_555 1_555
Na2 O1 1_555 1_555
Na3 O17 1_555 1_555
O17 C107 1_555 1_555
C107 C108 1_555 1_555
C108 H59 1_555 1_555
C109 C108 1_555 1_555
H60 C109 1_555 1_555
C110 C109 1_555 1_555
H61 C110 1_555 1_555
C111 C110 1_555 1_555
H62 C111 1_555 1_555
C112 C107 1_555 1_555
O18 Na3 1_555 1_555
C113 O18 1_555 1_555
H63 C113 1_555 1_555
H64 C113 1_555 1_555
C114 C113 1_555 1_555
H65 C114 1_555 1_555
H66 C114 1_555 1_555
O19 Na3 1_555 1_555
C115 O19 1_555 1_555
H67 C115 1_555 1_555
H68 C115 1_555 1_555
C116 C115 1_555 1_555
H69 C116 1_555 1_555
H70 C116 1_555 1_555
O20 Na3 1_555 1_555
C117 O20 1_555 1_555
H71 C117 1_555 1_555
H72 C117 1_555 1_555
C118 C117 1_555 1_555
H73 C118 1_555 1_555
H74 C118 1_555 1_555
O21 Na3 1_555 1_555
C119 O21 1_555 1_555
C120 C119 1_555 1_555
H75 C120 1_555 1_555
C121 C120 1_555 1_555
H76 C121 1_555 1_555
C122 C121 1_555 1_555
H77 C122 1_555 1_555
C123 C122 1_555 1_555
H78 C123 1_555 1_555
C124 C119 1_555 1_555
O22 Na3 1_555 1_555
C125 O22 1_555 1_555
H79 C125 1_555 1_555
H80 C125 1_555 1_555
C126 C125 1_555 1_555
H81 C126 1_555 1_555
H82 C126 1_555 1_555
O23 Na3 1_555 1_555
C127 O23 1_555 1_555
H83 C127 1_555 1_555
H84 C127 1_555 1_555
C128 C127 1_555 1_555
H85 C128 1_555 1_555
H86 C128 1_555 1_555
O24 Na3 1_555 1_555
C129 O24 1_555 1_555
H87 C129 1_555 1_555
H88 C129 1_555 1_555
C130 O17 1_555 1_555
H89 C130 1_555 1_555
H90 C130 1_555 1_555
O25 Na1 1_555 1_555
H91 O25 1_555 1_555
Na4 O2 1_555 1_555
Na5 O3 1_555 1_555
O26 Na4 1_555 1_555
H92 O26 1_555 1_555
Na2C O4 1_555 1_555
Na4B O5 1_555 1_555
Na5A O6 1_555 1_555
Na1A O8 1_555 1_555
Na2C_2 O9 1_555 1_555
Na5_2 O10 1_555 1_555
Na5C O11 1_555 1_555
Na4A O14 1_555 1_555
Na1B O15 1_555 1_555
Na2B O16 1_555 1_555
O8A Na1 1_555 1_555
O15B Na1 1_555 1_555
O4C Na2 1_555 1_555
O9C Na2 1_555 1_555
O16B Na2 1_555 1_555
O5B Na4 1_555 1_555
O14A Na4 1_555 1_555
O6A Na5 1_555 1_555
O10_2 Na5 1_555 1_555
O11C Na5 1_555 1_555
Na4C O26C 1_555 1_555
O26C Na5 1_555 1_555
H92C O26C 1_555 1_555
N2 Zn1 1_555 1_555
N3 Zn1 1_555 1_555
N4 Zn1 1_555 1_555
C5 C6 1_555 1_555
C10 C11 1_555 1_555
C15 C16 1_555 1_555
C17 C18 1_555 1_555
C19 C20 1_555 1_555
C25 C26 1_555 1_555
C32 C33 1_555 1_555
C39 C40 1_555 1_555
C46 C47 1_555 1_555
C52 C53 1_555 1_555
C57 C58 1_555 1_555
N7 Zn2 1_555 1_555
N8 Zn2 1_555 1_555
N9 Zn2 1_555 1_555
N10 Zn2 1_555 1_555
C63 C64 1_555 1_555
C68 C69 1_555 1_555
C73 C74 1_555 1_555
C75 C76 1_555 1_555
C77 C78 1_555 1_555
C83 C84 1_555 1_555
C90 C91 1_555 1_555
O12 Na1 1_555 1_555
O12 Na4 1_555 1_555
C97 C98 1_555 1_555
C104 C105 1_555 1_555
Na2 O25 1_555 1_555
C111 C112 1_555 1_555
C112 O18 1_555 1_555
C114 O19 1_555 1_555
C116 O20 1_555 1_555
C118 O21 1_555 1_555
C123 C124 1_555 1_555
C124 O22 1_555 1_555
C126 O23 1_555 1_555
C128 O24 1_555 1_555
C129 C130 1_555 1_555
O26 Na5C 1_555 1_555

#END
