
#######################################################################
#
#                 Cambridge Crystallographic Data Centre
#                                CCDC 
#
#######################################################################
#
# If this CIF has been generated from an entry in the Cambridge 
# Structural Database, then it will include bibliographic, chemical, 
# crystal, experimental, refinement or atomic coordinate data resulting 
# from the CCDC's data processing and validation procedures.
#
#######################################################################

data_EBUQAT
_symmetry_cell_setting           triclinic
_symmetry_space_group_name_H-M   'P -1'
_symmetry_Int_Tables_number      2
_space_group_name_Hall           '-P 1'
loop_
_symmetry_equiv_pos_site_id
_symmetry_equiv_pos_as_xyz
1 x,y,z
2 -x,-y,-z
_cell_length_a                   17.6260(6)
_cell_length_b                   18.7190(5)
_cell_length_c                   19.8820(5)
_cell_angle_alpha                115.9721(15)
_cell_angle_beta                 94.1900(17)
_cell_angle_gamma                104.5250(16)
_cell_volume                     5581.4
loop_
_atom_site_label
_atom_site_type_symbol
_atom_site_fract_x
_atom_site_fract_y
_atom_site_fract_z
N1 N 0.55807(15) -0.07330(15) 0.46088(14)
H1 H 0.5150 -0.1053 0.4249
N2 N 0.43095(15) -0.21441(15) 0.44627(14)
N3 N 0.32414(16) -0.19951(15) 0.33598(14)
H2 H 0.3758 -0.1692 0.3594
N4 N 0.45439(15) -0.06312(15) 0.34579(14)
C1 C 0.52536(19) -0.00811(18) 0.34982(17)
C2 C 0.59673(18) 0.02002(18) 0.40261(17)
C3 C 0.60940(18) -0.00750(18) 0.45663(17)
C4 C 0.68122(19) 0.02413(19) 0.51356(17)
H3 H 0.7256 0.0695 0.5241
C5 C 0.67303(19) -0.02382(19) 0.54940(17)
H4 H 0.7104 -0.0170 0.5890
C6 C 0.59580(18) -0.08717(18) 0.51481(17)
C7 C 0.56546(18) -0.15443(18) 0.53002(17)
C8 C 0.48937(19) -0.21461(19) 0.49601(17)
C9 C 0.4604(2) -0.28659(19) 0.50749(19)
H5 H 0.4887 -0.3015 0.5379
C10 C 0.38464(19) -0.32856(19) 0.46614(17)
H6 H 0.3509 -0.3774 0.4629
C11 C 0.36630(19) -0.28327(19) 0.42811(18)
C12 C 0.29221(19) -0.30583(19) 0.38134(18)
C13 C 0.27345(19) -0.2663(2) 0.34014(18)
C14 C 0.1982(2) -0.2919(2) 0.28844(19)
H7 H 0.1523 -0.3348 0.2801
C15 C 0.2060(2) -0.2423(2) 0.2542(2)
H8 H 0.1665 -0.2451 0.2186
C16 C 0.28652(19) -0.1845(2) 0.28285(17)
C17 C 0.32119(19) -0.12674(19) 0.25923(17)
C18 C 0.40099(19) -0.07306(19) 0.28617(17)
C19 C 0.4392(2) -0.0243(2) 0.25181(19)
H9 H 0.4153 -0.0206 0.2106
C20 C 0.5167(2) 0.0157(2) 0.29061(19)
H10 H 0.5563 0.0512 0.2809
C21 C 0.66783(18) 0.07950(18) 0.39793(16)
C22 C 0.66772(19) 0.15744(18) 0.40601(18)
H11 H 0.6221 0.1735 0.4149
C23 C 0.73513(19) 0.21170(19) 0.40095(17)
H12 H 0.7342 0.2636 0.4071
C24 C 0.80380(19) 0.18801(18) 0.38672(17)
C25 C 0.80282(19) 0.10954(19) 0.37693(18)
H13 H 0.8475 0.0921 0.3658
C26 C 0.73631(19) 0.0569(2) 0.38352(18)
H14 H 0.7377 0.0054 0.3782
C27 C 0.87813(19) 0.2448(2) 0.38473(18)
O1 O 0.93776(14) 0.22179(15) 0.37384(15)
O2 O 0.87626(12) 0.31863(13) 0.39489(12)
H15 H 0.9246 0.3605 0.4028
C28 C 0.62013(19) -0.16602(19) 0.58299(18)
C29 C 0.6919(2) -0.1791(2) 0.56593(19)
H16 H 0.7061 -0.1796 0.5216
C30 C 0.7431(2) -0.1916(2) 0.61309(19)
H17 H 0.7907 -0.2007 0.6004
C31 C 0.72243(19) -0.1903(2) 0.67912(18)
C32 C 0.65168(19) -0.17576(19) 0.69796(18)
H18 H 0.6382 -0.1738 0.7430
C33 C 0.60077(19) -0.16409(19) 0.64957(18)
H19 H 0.5531 -0.1549 0.6623
C34 C 0.77882(19) -0.2031(2) 0.72891(19)
O3 O 0.82927(15) -0.23630(17) 0.70685(14)
O4 O 0.76816(14) -0.17599(14) 0.80005(12)
H20 H 0.7993 -0.1782 0.8321
C35 C 0.22661(18) -0.37847(18) 0.37527(17)
C36 C 0.2259(2) -0.4607(2) 0.3307(2)
H21 H 0.2664 -0.4709 0.3040
C37 C 0.16502(19) -0.5272(2) 0.32600(19)
H22 H 0.1644 -0.5819 0.2954
C38 C 0.10563(18) -0.51249(18) 0.36648(17)
C39 C 0.10613(19) -0.43085(19) 0.41191(18)
H23 H 0.0663 -0.4209 0.4397
C40 C 0.16603(19) -0.3647(2) 0.41554(19)
H24 H 0.1658 -0.3102 0.4453
C41 C 0.03984(19) -0.58566(19) 0.35886(17)
O5 O 0.02371(13) -0.65428(12) 0.30190(12)
O6 O 0.00220(12) -0.57228(13) 0.41537(12)
C42 C 0.2713(2) -0.1247(2) 0.19640(18)
C43 C 0.2552(2) -0.0525(2) 0.2060(2)
H25 H 0.2752 -0.0043 0.2529
C44 C 0.2103(2) -0.0505(2) 0.1475(2)
H26 H 0.2000 -0.0013 0.1556
C45 C 0.1801(2) -0.1216(2) 0.07632(18)
C46 C 0.1967(2) -0.1950(2) 0.06550(18)
H27 H 0.1779 -0.2429 0.0182
C47 C 0.2411(2) -0.1962(2) 0.1250(2)
H28 H 0.2512 -0.2453 0.1175
C48 C 0.1306(2) -0.1233(2) 0.0125(2)
O7 O 0.11734(14) -0.17812(16) -0.05341(13)
O8 O 0.10216(16) -0.05902(15) 0.03338(14)
H29 H 0.0675 -0.0683 -0.0073
Na1 Na -0.05108(7) -0.73885(7) 0.17994(7)
Na2 Na 1.05187(7) 0.24299(7) 0.32797(7)
N5 N 0.45004(15) -0.42000(15) 0.04036(14)
N6 N 0.58178(15) -0.28942(15) 0.04276(14)
H30 H 0.5763 -0.3171 0.0683
N7 N 0.68327(15) -0.30144(15) 0.15724(14)
N8 N 0.55019(15) -0.42981(15) 0.15742(15)
H31 H 0.5574 -0.4110 0.1192
C49 C 0.47594(19) -0.47763(19) 0.15709(18)
C50 C 0.40446(18) -0.50592(18) 0.10429(17)
C51 C 0.39473(18) -0.48138(18) 0.04763(17)
C52 C 0.32292(19) -0.5145(2) -0.00998(17)
H32 H 0.2776 -0.5584 -0.0193
C53 C 0.33448(19) -0.46895(19) -0.04807(18)
H33 H 0.2979 -0.4758 -0.0883
C54 C 0.41292(18) -0.40842(19) -0.01551(17)
C55 C 0.44390(18) -0.34557(19) -0.03550(17)
C56 C 0.52218(19) -0.28820(19) -0.00557(17)
C57 C 0.5525(2) -0.2177(2) -0.0186(2)
H34 H 0.5246 -0.2029 -0.0493
C58 C 0.6288(2) -0.1767(2) 0.02190(19)
H35 H 0.6627 -0.1283 0.0243
C59 C 0.64828(19) -0.22163(18) 0.06084(18)
C60 C 0.72147(19) -0.20029(18) 0.10823(17)
C61 C 0.73820(19) -0.24039(19) 0.15003(17)
C62 C 0.81597(19) -0.2220(2) 0.19416(18)
H36 H 0.8637 -0.1838 0.1981
C63 C 0.80592(19) -0.27064(19) 0.22843(18)
H37 H 0.8458 -0.2725 0.2604
C64 C 0.72276(19) -0.31910(18) 0.20701(17)
C65 C 0.68655(18) -0.37208(18) 0.23634(16)
C66 C 0.60506(18) -0.41810(18) 0.21600(17)
C67 C 0.5646(2) -0.4580(2) 0.25653(19)
H38 H 0.5880 -0.4592 0.2994
C68 C 0.4862(2) -0.4938(2) 0.22116(18)
H39 H 0.4461 -0.5235 0.2356
C69 C 0.33251(18) -0.56066(19) 0.11258(17)
C70 C 0.33456(19) -0.63472(19) 0.11418(16)
H40 H 0.3816 -0.6489 0.1113
C71 C 0.26704(18) -0.68621(19) 0.12002(17)
H41 H 0.2690 -0.7348 0.1214
C72 C 0.19644(19) -0.66641(19) 0.12392(17)
C73 C 0.19444(19) -0.5926(2) 0.12367(18)
H42 H 0.1473 -0.5787 0.1265
C74 C 0.26210(18) -0.54032(19) 0.11932(18)
H43 H 0.2606 -0.4903 0.1209
C75 C 0.12010(19) -0.72413(19) 0.12409(17)
O9 O 0.05820(13) -0.70546(14) 0.12964(14)
O10 O 0.12482(13) -0.79782(13) 0.11447(12)
H44 H 0.0773 -0.8301 0.1079
C76 C 0.38866(19) -0.33419(19) -0.08749(18)
C77 C 0.40477(19) -0.33995(19) -0.15720(18)
H45 H 0.4524 -0.3486 -0.1707
C78 C 0.35151(19) -0.33310(19) -0.20578(18)
H46 H 0.3631 -0.3377 -0.2521
C79 C 0.27992(19) -0.31931(19) -0.18676(17)
C80 C 0.2641(2) -0.3119(2) -0.11703(18)
H47 H 0.2168 -0.3026 -0.1031
C81 C 0.3186(2) -0.3185(2) -0.06866(19)
H48 H 0.3079 -0.3121 -0.0216
C82 C 0.2200(2) -0.31298(19) -0.23847(18)
O11 O 0.15910(14) -0.29704(16) -0.22129(13)
O12 O 0.23671(14) -0.32981(14) -0.30698(12)
H49 H 0.2021 -0.3264 -0.3363
C83 C 0.78694(19) -0.12580(18) 0.11774(18)
C84 C 0.8211(2) -0.1260(2) 0.0565(2)
H50 H 0.8040 -0.1739 0.0091
C85 C 0.8796(2) -0.0567(2) 0.06524(19)
H51 H 0.9016 -0.0585 0.0237
C86 C 0.90636(18) 0.01596(18) 0.13468(16)
C87 C 0.8738(2) 0.0167(2) 0.19562(19)
H52 H 0.8913 0.0649 0.2428
C88 C 0.8149(2) -0.0536(2) 0.1881(2)
H53 H 0.7944 -0.0522 0.2303
C89 C 0.96773(19) 0.09282(19) 0.14475(18)
O13 O 1.00167(13) 0.08659(13) 0.08754(12)
O14 O 0.98311(13) 0.15878(13) 0.20459(12)
C90 C 0.73654(18) -0.37552(19) 0.29824(17)
C91 C 0.7715(2) -0.3040(2) 0.36873(19)
H54 H 0.7654 -0.2531 0.3769
C92 C 0.8149(2) -0.3088(2) 0.42607(19)
H55 H 0.8365 -0.2612 0.4733
C93 C 0.82694(18) -0.3833(2) 0.41483(17)
C94 C 0.7945(2) -0.4531(2) 0.34436(19)
H56 H 0.8032 -0.5032 0.3353
C95 C 0.7494(2) -0.4492(2) 0.28763(19)
H57 H 0.7269 -0.4973 0.2409
C96 C 0.8736(2) -0.3858(2) 0.47894(19)
O15 O 0.88713(15) -0.33157(17) 0.54502(13)
O16 O 0.89893(15) -0.45156(15) 0.45706(13)
H58 H 0.9329 -0.4434 0.5010
Na2A Na 0.94813(7) -0.24299(7) 0.67203(7)
Na2_2 Na 0.05187(7) -0.75701(7) 0.32797(7)
Na1A Na 0.05108(7) -0.26115(7) -0.17994(7)
O7A O -0.11734(14) -0.82188(16) 0.05341(13)
O11A O -0.15910(14) -0.70296(16) 0.22129(13)
O14_2 O -0.01689(13) -0.84122(13) 0.20459(12)
O3A O 1.17073(15) 0.23630(17) 0.29315(14)
O5_2 O 1.02371(13) 0.34572(12) 0.30190(12)
O15A O 1.11287(15) 0.33157(17) 0.45498(13)
Na1_2 Na 0.94892(7) 0.26115(7) 0.17994(7)
loop_
_geom_bond_atom_site_label_1
_geom_bond_atom_site_label_2
_geom_bond_site_symmetry_1
_geom_bond_site_symmetry_2
N1 H1 1_555 1_555
N2 C8 1_555 1_555
N3 H2 1_555 1_555
N4 C1 1_555 1_555
C1 C2 1_555 1_555
C2 C3 1_555 1_555
C3 N1 1_555 1_555
C4 C3 1_555 1_555
H3 C4 1_555 1_555
C5 C4 1_555 1_555
H4 C5 1_555 1_555
C6 N1 1_555 1_555
C7 C6 1_555 1_555
C8 C7 1_555 1_555
C9 C8 1_555 1_555
H5 C9 1_555 1_555
C10 C9 1_555 1_555
H6 C10 1_555 1_555
C11 N2 1_555 1_555
C12 C11 1_555 1_555
C13 N3 1_555 1_555
C14 C13 1_555 1_555
H7 C14 1_555 1_555
C15 C14 1_555 1_555
H8 C15 1_555 1_555
C16 N3 1_555 1_555
C17 C16 1_555 1_555
C18 N4 1_555 1_555
C19 C18 1_555 1_555
H9 C19 1_555 1_555
C20 C1 1_555 1_555
H10 C20 1_555 1_555
C21 C2 1_555 1_555
C22 C21 1_555 1_555
H11 C22 1_555 1_555
C23 C22 1_555 1_555
H12 C23 1_555 1_555
C24 C23 1_555 1_555
C25 C24 1_555 1_555
H13 C25 1_555 1_555
C26 C21 1_555 1_555
H14 C26 1_555 1_555
C27 C24 1_555 1_555
O1 C27 1_555 1_555
O2 C27 1_555 1_555
H15 O2 1_555 1_555
C28 C7 1_555 1_555
C29 C28 1_555 1_555
H16 C29 1_555 1_555
C30 C29 1_555 1_555
H17 C30 1_555 1_555
C31 C30 1_555 1_555
C32 C31 1_555 1_555
H18 C32 1_555 1_555
C33 C28 1_555 1_555
H19 C33 1_555 1_555
C34 C31 1_555 1_555
O3 C34 1_555 1_555
O4 C34 1_555 1_555
H20 O4 1_555 1_555
C35 C12 1_555 1_555
C36 C35 1_555 1_555
H21 C36 1_555 1_555
C37 C36 1_555 1_555
H22 C37 1_555 1_555
C38 C37 1_555 1_555
C39 C38 1_555 1_555
H23 C39 1_555 1_555
C40 C35 1_555 1_555
H24 C40 1_555 1_555
C41 C38 1_555 1_555
O5 C41 1_555 1_555
O6 C41 1_555 1_555
C42 C17 1_555 1_555
C43 C42 1_555 1_555
H25 C43 1_555 1_555
C44 C43 1_555 1_555
H26 C44 1_555 1_555
C45 C44 1_555 1_555
C46 C45 1_555 1_555
H27 C46 1_555 1_555
C47 C42 1_555 1_555
H28 C47 1_555 1_555
C48 C45 1_555 1_555
O7 C48 1_555 1_555
O8 C48 1_555 1_555
H29 O8 1_555 1_555
Na1 O5 1_555 1_555
Na2 O1 1_555 1_555
N5 C51 1_555 1_555
N6 H30 1_555 1_555
N7 C61 1_555 1_555
N8 H31 1_555 1_555
C49 N8 1_555 1_555
C50 C49 1_555 1_555
C51 C50 1_555 1_555
C52 C51 1_555 1_555
H32 C52 1_555 1_555
C53 C52 1_555 1_555
H33 C53 1_555 1_555
C54 N5 1_555 1_555
C55 C54 1_555 1_555
C56 N6 1_555 1_555
C57 C56 1_555 1_555
H34 C57 1_555 1_555
C58 C57 1_555 1_555
H35 C58 1_555 1_555
C59 N6 1_555 1_555
C60 C59 1_555 1_555
C61 C60 1_555 1_555
C62 C61 1_555 1_555
H36 C62 1_555 1_555
C63 C62 1_555 1_555
H37 C63 1_555 1_555
C64 N7 1_555 1_555
C65 C64 1_555 1_555
C66 N8 1_555 1_555
C67 C66 1_555 1_555
H38 C67 1_555 1_555
C68 C49 1_555 1_555
H39 C68 1_555 1_555
C69 C50 1_555 1_555
C70 C69 1_555 1_555
H40 C70 1_555 1_555
C71 C70 1_555 1_555
H41 C71 1_555 1_555
C72 C71 1_555 1_555
C73 C72 1_555 1_555
H42 C73 1_555 1_555
C74 C69 1_555 1_555
H43 C74 1_555 1_555
C75 C72 1_555 1_555
O9 Na1 1_555 1_555
O10 C75 1_555 1_555
H44 O10 1_555 1_555
C76 C55 1_555 1_555
C77 C76 1_555 1_555
H45 C77 1_555 1_555
C78 C77 1_555 1_555
H46 C78 1_555 1_555
C79 C78 1_555 1_555
C80 C79 1_555 1_555
H47 C80 1_555 1_555
C81 C76 1_555 1_555
H48 C81 1_555 1_555
C82 C79 1_555 1_555
O11 C82 1_555 1_555
O12 C82 1_555 1_555
H49 O12 1_555 1_555
C83 C60 1_555 1_555
C84 C83 1_555 1_555
H50 C84 1_555 1_555
C85 C84 1_555 1_555
H51 C85 1_555 1_555
C86 C85 1_555 1_555
C87 C86 1_555 1_555
H52 C87 1_555 1_555
C88 C83 1_555 1_555
H53 C88 1_555 1_555
C89 C86 1_555 1_555
O13 C89 1_555 1_555
O14 Na2 1_555 1_555
C90 C65 1_555 1_555
C91 C90 1_555 1_555
H54 C91 1_555 1_555
C92 C91 1_555 1_555
H55 C92 1_555 1_555
C93 C92 1_555 1_555
C94 C93 1_555 1_555
H56 C94 1_555 1_555
C95 C90 1_555 1_555
H57 C95 1_555 1_555
C96 C93 1_555 1_555
O15 C96 1_555 1_555
O16 C96 1_555 1_555
H58 O16 1_555 1_555
Na2A O3 1_555 1_555
Na2_2 O5 1_555 1_555
Na1A O7 1_555 1_555
O7A Na1 1_555 1_555
O11A Na1 1_555 1_555
O14_2 Na1 1_555 1_555
O3A Na2 1_555 1_555
O5_2 Na2 1_555 1_555
O15A Na2 1_555 1_555
Na1_2 O14 1_555 1_555
C5 C6 1_555 1_555
C10 C11 1_555 1_555
C12 C13 1_555 1_555
C15 C16 1_555 1_555
C17 C18 1_555 1_555
C19 C20 1_555 1_555
C25 C26 1_555 1_555
C32 C33 1_555 1_555
C39 C40 1_555 1_555
C46 C47 1_555 1_555
C53 C54 1_555 1_555
C55 C56 1_555 1_555
C58 C59 1_555 1_555
C63 C64 1_555 1_555
C65 C66 1_555 1_555
C67 C68 1_555 1_555
C73 C74 1_555 1_555
C75 O9 1_555 1_555
C80 C81 1_555 1_555
O11 Na1A 1_555 1_555
C87 C88 1_555 1_555
C89 O14 1_555 1_555
C94 C95 1_555 1_555
O15 Na2A 1_555 1_555
Na2_2 O14_2 1_555 1_555
O5_2 Na1_2 1_555 1_555

#END
