
#######################################################################
#
#                 Cambridge Crystallographic Data Centre
#                                CCDC 
#
#######################################################################
#
# If this CIF has been generated from an entry in the Cambridge 
# Structural Database, then it will include bibliographic, chemical, 
# crystal, experimental, refinement or atomic coordinate data resulting 
# from the CCDC's data processing and validation procedures.
#
#######################################################################

data_EBUTEC
_symmetry_cell_setting           hexagonal
_symmetry_space_group_name_H-M   'P 65'
_symmetry_Int_Tables_number      170
_space_group_name_Hall           'P 65'
loop_
_symmetry_equiv_pos_site_id
_symmetry_equiv_pos_as_xyz
1 x,y,z
2 -y,x-y,2/3+z
3 -x+y,-x,1/3+z
4 -x,-y,1/2+z
5 y,-x+y,1/6+z
6 x-y,x,5/6+z
_cell_length_a                   10.9374(2)
_cell_length_b                   10.9374(2)
_cell_length_c                   21.0837(8)
_cell_angle_alpha                90
_cell_angle_beta                 90
_cell_angle_gamma                120
_cell_volume                     2184.27
loop_
_atom_site_label
_atom_site_type_symbol
_atom_site_fract_x
_atom_site_fract_y
_atom_site_fract_z
C1 C 1.0446(7) 0.9681(6) 0.2353(3)
C2 C 0.9607(7) 0.8350(6) 0.1990(3)
H1 H 1.0228 0.8176 0.1732
H2 H 0.8941 0.8434 0.1724
H3 H 0.9109 0.7579 0.2280
C3 C 0.6381(5) 0.9259(5) 0.1295(3)
C4 C 0.4960(5) 0.8543(5) 0.1634(3)
C5 C 0.3699(6) 0.8239(6) 0.1226(3)
H4 H 0.3923 0.8264 0.0780
H5 H 0.3398 0.8922 0.1306
C6 C 0.2532(6) 0.6730(7) 0.1427(4)
H6 H 0.1646 0.6710 0.1497
H7 H 0.2393 0.6054 0.1097
C7 C 0.3023(5) 0.6363(5) 0.2036(3)
C8 C 0.2628(8) 0.6981(7) 0.2604(4)
H8 H 0.1621 0.6494 0.2652
H9 H 0.2969 0.7966 0.2533
H10 H 0.3050 0.6868 0.2983
C9 C 0.4663(6) 0.7123(6) 0.1948(3)
C10 C 0.5060(7) 0.6283(6) 0.1501(5)
H11 H 0.6033 0.6849 0.1381
H12 H 0.4477 0.6026 0.1129
H13 H 0.4921 0.5445 0.1712
C11 C 0.5494(8) 0.7378(8) 0.2562(4)
H14 H 0.5315 0.6491 0.2733
H15 H 0.5205 0.7844 0.2863
H16 H 0.6484 0.7961 0.2476
C12 C 0.2428(6) 0.4794(6) 0.2165(3)
Gd1 Gd 0.96708(2) 1.19133(2) 0.14637(3)
H17 H 0.485(4) 0.895(4) 0.208(2)
O1 O 1.0908(4) 1.3358(4) 0.0486(2)
O2 O 1.0219(4) 1.0714(3) 0.2282(2)
O3 O 1.1364(5) 0.9800(4) 0.2753(2)
O4 O 0.6394(4) 0.9139(4) 0.0705(2)
O5 O 0.7460(4) 0.9939(4) 0.1632(2)
O6 O 0.1777(4) 0.3923(4) 0.1724(2)
O7 O 0.2622(5) 0.4439(4) 0.2690(2)
Gd1_2 Gd -0.03292(2) 0.19133(2) 0.14637(3)
Gd1D Gd 0.19133(2) 0.22425(3) 0.31304(3)
Gd1D_2 Gd 1.19133(2) 1.22425(3) 0.31304(3)
Gd1E Gd 0.77575(3) 0.96708(2) -0.02030(3)
O2E O 0.9505(5) 1.0219(4) 0.0615(2)
O3E O 1.1564(6) 1.1364(5) 0.1086(2)
O4D O 0.9139(4) 1.2745(6) 0.2372(2)
O6_2 O 1.1777(4) 1.3923(4) 0.1724(2)
O7E O 0.8183(6) 1.2622(5) 0.1023(2)
loop_
_geom_bond_atom_site_label_1
_geom_bond_atom_site_label_2
_geom_bond_site_symmetry_1
_geom_bond_site_symmetry_2
C1 C2 1_555 1_555
C2 H1 1_555 1_555
H2 C2 1_555 1_555
H3 C2 1_555 1_555
C3 C4 1_555 1_555
C4 C5 1_555 1_555
C5 H4 1_555 1_555
H5 C5 1_555 1_555
C6 C5 1_555 1_555
H6 C6 1_555 1_555
H7 C6 1_555 1_555
C7 C6 1_555 1_555
C8 C7 1_555 1_555
H8 C8 1_555 1_555
H9 C8 1_555 1_555
H10 C8 1_555 1_555
C9 C4 1_555 1_555
C10 C9 1_555 1_555
H11 C10 1_555 1_555
H12 C10 1_555 1_555
H13 C10 1_555 1_555
C11 C9 1_555 1_555
H14 C11 1_555 1_555
H15 C11 1_555 1_555
H16 C11 1_555 1_555
C12 C7 1_555 1_555
Gd1 O1 1_555 1_555
H17 C4 1_555 1_555
O2 C1 1_555 1_555
O3 C1 1_555 1_555
O4 C3 1_555 1_555
O5 C3 1_555 1_555
O6 C12 1_555 1_555
O7 C12 1_555 1_555
Gd1_2 O6 1_555 1_555
Gd1D O7 1_555 1_555
Gd1D_2 O2 1_555 1_555
Gd1E O4 1_555 1_555
O2E Gd1 1_555 1_555
O3E Gd1 1_555 1_555
O4D Gd1 1_555 1_555
O6_2 Gd1 1_555 1_555
O7E Gd1 1_555 1_555
C7 C9 1_555 1_555
Gd1 O2 1_555 1_555
Gd1 O5 1_555 1_555
O3 Gd1D_2 1_555 1_555
Gd1E O2E 1_555 1_555

#END
