
#######################################################################
#
#                 Cambridge Crystallographic Data Centre
#                                CCDC 
#
#######################################################################
#
# If this CIF has been generated from an entry in the Cambridge 
# Structural Database, then it will include bibliographic, chemical, 
# crystal, experimental, refinement or atomic coordinate data resulting 
# from the CCDC's data processing and validation procedures.
#
#######################################################################

data_EBUTIG01
_symmetry_cell_setting           hexagonal
_symmetry_space_group_name_H-M   'P 65'
_symmetry_Int_Tables_number      170
_space_group_name_Hall           'P 65'
loop_
_symmetry_equiv_pos_site_id
_symmetry_equiv_pos_as_xyz
1 x,y,z
2 -y,x-y,2/3+z
3 -x+y,-x,1/3+z
4 -x,-y,1/2+z
5 y,-x+y,1/6+z
6 x-y,x,5/6+z
_cell_length_a                   10.9244(2)
_cell_length_b                   10.9244(2)
_cell_length_c                   21.0072(7)
_cell_angle_alpha                90
_cell_angle_beta                 90
_cell_angle_gamma                120
_cell_volume                     2171.17
loop_
_atom_site_label
_atom_site_type_symbol
_atom_site_fract_x
_atom_site_fract_y
_atom_site_fract_z
Tb1 Tb 1.18788(6) 0.22311(6) 0.66642(6)
O1 O 1.1355(14) -0.0175(13) 0.6292(6)
O2 O 0.9885(13) 0.2424(16) 0.6827(5)
O3 O 1.3310(13) 0.2433(14) 0.5687(6)
H1 H 1.2783 0.2116 0.5378
C1 C 1.0502(16) -0.0268(17) 0.5883(7)
C2 C 0.9140(19) 0.2833(17) 0.6494(7)
C3 C 0.8444(13) 0.3405(14) 0.6823(6)
H2 H 0.9083 0.3959 0.7169
C4 C 0.6230(18) 0.120(2) 0.6679(15)
H3 H 0.6691 0.0658 0.6629
H4 H 0.6182 0.1586 0.6274
H5 H 0.5291 0.0611 0.6840
C5 C 0.7058(17) 0.2399(19) 0.7141(9)
C6 C 0.671(2) 0.418(2) 0.6617(12)
H6 H 0.6703 0.5053 0.6684
H7 H 0.6029 0.3645 0.6286
C7 C 0.963(2) -0.1704(18) 0.5518(9)
H8 H 1.0094 -0.1669 0.5126
H9 H 0.8698 -0.1858 0.5428
H10 H 0.9552 -0.2463 0.5776
C8 C 0.723(3) 0.173(3) 0.7737(12)
H11 H 0.7674 0.1193 0.7635
H12 H 0.6312 0.1119 0.7919
H13 H 0.7796 0.2457 0.8038
C9 C 0.822(2) 0.450(2) 0.6415(10)
H14 H 0.8923 0.5464 0.6517
H15 H 0.8254 0.4342 0.5963
C10 C 0.6317(15) 0.3320(17) 0.7232(7)
C11 C 0.700(2) 0.436(2) 0.7802(10)
H16 H 0.6545 0.4916 0.7852
H17 H 0.7988 0.4981 0.7720
H18 H 0.6888 0.3838 0.8185
C12 C 0.4757(16) 0.2379(17) 0.7357(8)
O4 O 0.4408(13) 0.1831(13) 0.7878(6)
O5 O 0.3884(11) 0.2166(14) 0.6914(6)
O6 O 0.9016(13) 0.2619(12) 0.5892(5)
O7 O 1.0199(12) 0.0687(9) 0.5808(5)
Tb1_2 Tb 0.18788(6) 0.22311(6) 0.66642(6)
Tb1D Tb 0.22311(6) 0.03523(8) 0.83309(6)
Tb1E Tb 0.96477(8) 0.18788(6) 0.49975(6)
O4E O 1.2577(18) 0.4408(13) 0.6211(6)
O5_2 O 1.3884(11) 0.2166(14) 0.6914(6)
O6D O 1.2619(12) 0.3603(18) 0.7559(5)
O7D O 1.0687(9) 0.0488(15) 0.7475(5)
loop_
_geom_bond_atom_site_label_1
_geom_bond_atom_site_label_2
_geom_bond_site_symmetry_1
_geom_bond_site_symmetry_2
Tb1 O1 1_555 1_555
O1 C1 1_555 1_555
O2 Tb1 1_555 1_555
O3 Tb1 1_555 1_555
H1 O3 1_555 1_555
C1 C7 1_555 1_555
C2 O2 1_555 1_555
C3 C2 1_555 1_555
H2 C3 1_555 1_555
C4 H3 1_555 1_555
H4 C4 1_555 1_555
H5 C4 1_555 1_555
C5 C3 1_555 1_555
C6 H6 1_555 1_555
H7 C6 1_555 1_555
C7 H8 1_555 1_555
H9 C7 1_555 1_555
H10 C7 1_555 1_555
C8 C5 1_555 1_555
H11 C8 1_555 1_555
H12 C8 1_555 1_555
H13 C8 1_555 1_555
C9 C3 1_555 1_555
H14 C9 1_555 1_555
H15 C9 1_555 1_555
C10 C5 1_555 1_555
C11 C10 1_555 1_555
H16 C11 1_555 1_555
H17 C11 1_555 1_555
H18 C11 1_555 1_555
C12 C10 1_555 1_555
O4 C12 1_555 1_555
O5 C12 1_555 1_555
O6 C2 1_555 1_555
O7 Tb1 1_555 1_555
Tb1_2 O5 1_555 1_555
Tb1D O4 1_555 1_555
Tb1E O6 1_555 1_555
O4E Tb1 1_555 1_555
O5_2 Tb1 1_555 1_555
O6D Tb1 1_555 1_555
O7D Tb1 1_555 1_555
C1 O7 1_555 1_555
C4 C5 1_555 1_555
C6 C9 1_555 1_555
C6 C10 1_555 1_555
O7 Tb1E 1_555 1_555

#END
