
#######################################################################
#
#                 Cambridge Crystallographic Data Centre
#                                CCDC 
#
#######################################################################
#
# If this CIF has been generated from an entry in the Cambridge 
# Structural Database, then it will include bibliographic, chemical, 
# crystal, experimental, refinement or atomic coordinate data resulting 
# from the CCDC's data processing and validation procedures.
#
#######################################################################

data_EBUTOM01
_symmetry_cell_setting           hexagonal
_symmetry_space_group_name_H-M   'P 65'
_symmetry_Int_Tables_number      170
_space_group_name_Hall           'P 65'
loop_
_symmetry_equiv_pos_site_id
_symmetry_equiv_pos_as_xyz
1 x,y,z
2 -y,x-y,2/3+z
3 -x+y,-x,1/3+z
4 -x,-y,1/2+z
5 y,-x+y,1/6+z
6 x-y,x,5/6+z
_cell_length_a                   10.94200(10)
_cell_length_b                   10.94200(10)
_cell_length_c                   21.1487(5)
_cell_angle_alpha                90
_cell_angle_beta                 90
_cell_angle_gamma                120
_cell_volume                     2192.84
loop_
_atom_site_label
_atom_site_type_symbol
_atom_site_fract_x
_atom_site_fract_y
_atom_site_fract_z
Eu1 Eu 1.19091(2) 0.22398(2) 0.83396(2)
O1 O 1.1342(5) -0.0210(5) 0.7964(2)
O2 O 1.3362(5) 0.2438(5) 0.7364(2)
H1 H 1.2839 0.2123 0.7056
O3 O 0.9937(4) 0.2491(5) 0.8506(2)
C1 C 0.9252(6) 0.2896(6) 0.8172(2)
C2 C 1.0457(6) -0.0318(6) 0.7568(3)
C3 C 0.8498(6) 0.3539(6) 0.8507(3)
H2 H 0.9130 0.4120 0.8847
C4 C 0.7132(7) 0.2466(8) 0.8828(3)
C5 C 0.6291(7) 0.1225(7) 0.8376(5)
H3 H 0.6772 0.0699 0.8326
H4 H 0.6206 0.1577 0.7973
H5 H 0.5367 0.0621 0.8548
C6 C 0.6735(8) 0.4189(8) 0.8297(4)
H6 H 0.6711 0.5054 0.8362
H7 H 0.6062 0.3647 0.7969
C7 C 0.8235(8) 0.4537(8) 0.8098(4)
H8 H 0.8269 0.4351 0.7652
H9 H 0.8922 0.5515 0.8186
C8 C 0.9604(8) -0.1664(7) 0.7204(3)
H10 H 1.0171 -0.1720 0.6872
H11 H 0.8792 -0.1676 0.7025
H12 H 0.9304 -0.2455 0.7483
C9 C 0.7375(10) 0.1876(12) 0.9441(4)
H13 H 0.7847 0.1357 0.9348
H14 H 0.6484 0.1261 0.9638
H15 H 0.7947 0.2640 0.9723
C10 C 0.6351(6) 0.3330(6) 0.8916(3)
C11 C 0.6983(8) 0.4365(9) 0.9474(4)
H16 H 0.6495 0.4886 0.9518
H17 H 0.7965 0.5008 0.9396
H18 H 0.6882 0.3848 0.9856
C12 C 0.4798(6) 0.2360(6) 0.9044(3)
O4 O 0.4453(5) 0.1813(5) 0.9567(2)
O5 O 0.3905(5) 0.2126(6) 0.8607(2)
O6 O 0.9130(5) 0.2728(5) 0.7580(2)
O7 O 1.0204(4) 0.0689(4) 0.7492(2)
Eu1_2 Eu 0.19091(2) 0.22398(2) 0.83396(2)
Eu1D Eu 0.22398(2) 0.03307(3) 1.00063(2)
Eu1E Eu 0.96693(3) 0.19091(2) 0.66729(2)
O4E O 1.2640(7) 0.4453(5) 0.7900(2)
O5_2 O 1.3905(5) 0.2126(6) 0.8607(2)
O6D O 1.2728(5) 0.3598(7) 0.9247(2)
O7D O 1.0689(4) 0.0485(6) 0.9159(2)
loop_
_geom_bond_atom_site_label_1
_geom_bond_atom_site_label_2
_geom_bond_site_symmetry_1
_geom_bond_site_symmetry_2
Eu1 O1 1_555 1_555
O1 C2 1_555 1_555
O2 Eu1 1_555 1_555
H1 O2 1_555 1_555
O3 Eu1 1_555 1_555
C1 O3 1_555 1_555
C2 C8 1_555 1_555
C3 C1 1_555 1_555
H2 C3 1_555 1_555
C4 C3 1_555 1_555
C5 C4 1_555 1_555
H3 C5 1_555 1_555
H4 C5 1_555 1_555
H5 C5 1_555 1_555
C6 H6 1_555 1_555
H7 C6 1_555 1_555
C7 C3 1_555 1_555
H8 C7 1_555 1_555
H9 C7 1_555 1_555
C8 H10 1_555 1_555
H11 C8 1_555 1_555
H12 C8 1_555 1_555
C9 C4 1_555 1_555
H13 C9 1_555 1_555
H14 C9 1_555 1_555
H15 C9 1_555 1_555
C10 C4 1_555 1_555
C11 C10 1_555 1_555
H16 C11 1_555 1_555
H17 C11 1_555 1_555
H18 C11 1_555 1_555
C12 C10 1_555 1_555
O4 C12 1_555 1_555
O5 C12 1_555 1_555
O6 C1 1_555 1_555
O7 Eu1 1_555 1_555
Eu1_2 O5 1_555 1_555
Eu1D O4 1_555 1_555
Eu1E O6 1_555 1_555
O4E Eu1 1_555 1_555
O5_2 Eu1 1_555 1_555
O6D Eu1 1_555 1_555
O7D Eu1 1_555 1_555
C2 O7 1_555 1_555
C6 C7 1_555 1_555
C6 C10 1_555 1_555
O7 Eu1E 1_555 1_555

#END
