
#######################################################################
#
#                 Cambridge Crystallographic Data Centre
#                                CCDC 
#
#######################################################################
#
# If this CIF has been generated from an entry in the Cambridge 
# Structural Database, then it will include bibliographic, chemical, 
# crystal, experimental, refinement or atomic coordinate data resulting 
# from the CCDC's data processing and validation procedures.
#
#######################################################################

data_EBUTOM
_symmetry_cell_setting           hexagonal
_symmetry_space_group_name_H-M   'P 65'
_symmetry_Int_Tables_number      170
_space_group_name_Hall           'P 65'
loop_
_symmetry_equiv_pos_site_id
_symmetry_equiv_pos_as_xyz
1 x,y,z
2 -y,x-y,2/3+z
3 -x+y,-x,1/3+z
4 -x,-y,1/2+z
5 y,-x+y,1/6+z
6 x-y,x,5/6+z
_cell_length_a                   10.94450(10)
_cell_length_b                   10.94450(10)
_cell_length_c                   21.1465(5)
_cell_angle_alpha                90
_cell_angle_beta                 90
_cell_angle_gamma                120
_cell_volume                     2193.62
loop_
_atom_site_label
_atom_site_type_symbol
_atom_site_fract_x
_atom_site_fract_y
_atom_site_fract_z
C1 C -0.0760(5) -0.0449(6) 0.2478(3)
C2 C -0.1260(6) 0.0387(7) 0.2112(3)
H1 H -0.2074 -0.0241 0.1867
H2 H -0.0523 0.1028 0.1834
H3 H -0.1503 0.0911 0.2399
C3 C 0.2899(5) 0.3628(5) 0.1414(2)
C4 C 0.3593(5) 0.5047(5) 0.1754(2)
C5 C 0.4539(5) 0.6306(6) 0.1351(3)
H4 H 0.4343 0.6084 0.0906
H5 H 0.5524 0.6612 0.1431
C6 C 0.4195(5) 0.7460(6) 0.1550(4)
H6 H 0.5059 0.8348 0.1618
H7 H 0.3655 0.7594 0.1221
C7 C 0.2467(5) 0.5330(5) 0.2068(3)
C8 C 0.1229(7) 0.4931(6) 0.1620(5)
H8 H 0.0799 0.3949 0.1514
H9 H 0.1563 0.5488 0.1242
H10 H 0.0547 0.5107 0.1823
C9 C 0.1896(7) 0.4509(8) 0.2684(4)
H11 H 0.1271 0.4774 0.2879
H12 H 0.2666 0.4720 0.2964
H13 H 0.1391 0.3516 0.2594
C10 C 0.3337(5) 0.6972(5) 0.2161(2)
C11 C 0.4348(8) 0.7375(6) 0.2725(3)
H14 H 0.4848 0.8381 0.2776
H15 H 0.5009 0.7057 0.2650
H16 H 0.3819 0.6938 0.3102
C12 C 0.2350(5) 0.7548(5) 0.2289(3)
Eu1 Eu 0.22452(2) 0.03238(2) 0.15862(2)
H17 H 0.412(4) 0.513(4) 0.218(2)
H18 H 0.220(7) -0.086(6) 0.0236(15)
H19 H 0.191(5) -0.1777(17) 0.065(3)
O1 O 0.2135(4) 0.8212(4) 0.1852(2)
O2 O 0.0494(4) -0.0210(4) 0.24006(19)
O3 O 0.2469(5) -0.0899(4) 0.0609(2)
O4 O 0.2767(4) 0.3607(4) 0.08277(19)
O5 O 0.2497(4) 0.2544(4) 0.17514(18)
O6 O 0.1807(5) 0.7353(4) 0.2810(2)
O7 O -0.1557(4) -0.1354(4) 0.28744(19)
Eu1E Eu 0.19214(3) 0.22452(2) -0.00805(2)
Eu1D Eu 0.03238(2) -0.19214(3) 0.32529(2)
Eu1_2 Eu 0.22452(2) 1.03238(2) 0.15862(2)
Eu1D_2 Eu 0.03238(2) 0.80786(3) 0.32529(2)
O1_2 O 0.2135(4) -0.1788(4) 0.1852(2)
O2E O 0.0704(6) 0.0494(4) 0.07339(19)
O4D O 0.3607(4) 0.0840(6) 0.24944(19)
O6E O 0.4454(6) 0.1807(5) 0.1143(2)
O7E O -0.0203(6) -0.1557(4) 0.12077(19)
loop_
_geom_bond_atom_site_label_1
_geom_bond_atom_site_label_2
_geom_bond_site_symmetry_1
_geom_bond_site_symmetry_2
C1 C2 1_555 1_555
C2 H1 1_555 1_555
H2 C2 1_555 1_555
H3 C2 1_555 1_555
C3 C4 1_555 1_555
C4 C5 1_555 1_555
C5 H4 1_555 1_555
H5 C5 1_555 1_555
C6 C5 1_555 1_555
H6 C6 1_555 1_555
H7 C6 1_555 1_555
C7 C4 1_555 1_555
C8 C7 1_555 1_555
H8 C8 1_555 1_555
H9 C8 1_555 1_555
H10 C8 1_555 1_555
C9 C7 1_555 1_555
H11 C9 1_555 1_555
H12 C9 1_555 1_555
H13 C9 1_555 1_555
C10 C6 1_555 1_555
C11 C10 1_555 1_555
H14 C11 1_555 1_555
H15 C11 1_555 1_555
H16 C11 1_555 1_555
C12 C10 1_555 1_555
Eu1 O2 1_555 1_555
H17 C4 1_555 1_555
H18 O3 1_555 1_555
H19 O3 1_555 1_555
O1 C12 1_555 1_555
O2 C1 1_555 1_555
O3 Eu1 1_555 1_555
O4 C3 1_555 1_555
O5 C3 1_555 1_555
O6 C12 1_555 1_555
O7 C1 1_555 1_555
Eu1E O4 1_555 1_555
Eu1D O2 1_555 1_555
Eu1_2 O1 1_555 1_555
Eu1D_2 O6 1_555 1_555
O1_2 Eu1 1_555 1_555
O2E Eu1 1_555 1_555
O4D Eu1 1_555 1_555
O6E Eu1 1_555 1_555
O7E Eu1 1_555 1_555
C7 C10 1_555 1_555
Eu1 O5 1_555 1_555
O7 Eu1D 1_555 1_555
Eu1E O2E 1_555 1_555

#END
