
#######################################################################
#
#                 Cambridge Crystallographic Data Centre
#                                CCDC 
#
#######################################################################
#
# If this CIF has been generated from an entry in the Cambridge 
# Structural Database, then it will include bibliographic, chemical, 
# crystal, experimental, refinement or atomic coordinate data resulting 
# from the CCDC's data processing and validation procedures.
#
#######################################################################

data_EBUTEA
_symmetry_cell_setting           monoclinic
_symmetry_space_group_name_H-M   'P 21/n'
_symmetry_Int_Tables_number      14
_space_group_name_Hall           '-P 2yn'
loop_
_symmetry_equiv_pos_site_id
_symmetry_equiv_pos_as_xyz
1 x,y,z
2 1/2+x,1/2-y,1/2+z
3 -x,-y,-z
4 1/2-x,1/2+y,1/2-z
_cell_length_a                   8.384(2)
_cell_length_b                   9.223(2)
_cell_length_c                   13.983(3)
_cell_angle_alpha                90
_cell_angle_beta                 90.95(3)
_cell_angle_gamma                90
_cell_volume                     1081.1
loop_
_atom_site_label
_atom_site_type_symbol
_atom_site_fract_x
_atom_site_fract_y
_atom_site_fract_z
Fe1 Fe -0.61998(4) -0.26593(4) -0.87308(3)
N1 N -0.5209(2) -0.3670(2) -0.7499(2)
N2 N -0.2142(3) -0.3564(2) -0.4889(2)
N3 N -0.4013(2) -0.4706(2) -0.6033(1)
C1 C -0.4614(3) -0.4084(3) -0.6806(2)
C2 C -0.3034(3) -0.4032(3) -0.5450(2)
N4 N -0.3395(3) -0.2476(2) -0.3048(2)
N5 N -0.7857(3) -0.4049(2) -0.1725(2)
N6 N -0.5439(3) -0.2521(2) -0.1813(2)
C3 C -0.4400(3) -0.2578(2) -0.2494(2)
C4 C -0.6714(3) -0.3374(3) -0.1809(2)
N7 N -0.1862(2) -0.0227(2) -0.4396(1)
N8 N -0.0928(2) 0.1612(2) -0.5455(1)
C5 C -0.0771(3) 0.0385(3) -0.4959(2)
C6 C 0.2353(3) -0.2264(3) -0.4596(2)
C7 C 0.3548(3) -0.1725(3) -0.5153(2)
C8 C 0.3256(3) -0.0483(3) -0.5663(2)
H1 H 0.252(2) -0.306(2) -0.426(1)
H2 H 0.455(3) -0.218(2) -0.518(2)
H3 H 0.401(3) -0.005(3) -0.610(2)
O1 O 0.0047(2) -0.4221(2) -0.3290(1)
H4 H 0.001(3) -0.503(3) -0.353(2)
H5 H 0.068(3) -0.417(3) -0.278(2)
N8C N -0.4072(2) -0.3388(2) -0.9545(1)
Fe1A Fe -0.11998(4) -0.23407(4) -0.37308(3)
N1A N -0.0209(2) -0.1330(2) -0.2499(2)
C1A C 0.0386(3) -0.0916(3) -0.1806(2)
N3A N 0.0987(2) -0.0294(2) -0.1033(1)
C2A C 0.1966(3) -0.0968(3) -0.0450(2)
N2A N 0.2858(3) -0.1436(2) 0.0111(2)
Fe1_2 Fe 0.38002(4) -0.26593(4) 0.12692(3)
Fe1C Fe 0.11998(4) 0.23407(4) -0.62692(3)
N7B N 0.1862(2) 0.0227(2) -0.5604(1)
C5B C 0.0771(3) -0.0385(3) -0.5041(2)
N8B N 0.0928(2) -0.1612(2) -0.4545(1)
C6B C -0.2353(3) 0.2264(3) -0.5404(2)
C7B C -0.3548(3) 0.1725(3) -0.4847(2)
C8B C -0.3256(3) 0.0483(3) -0.4337(2)
H3B H -0.401(3) 0.005(3) -0.390(2)
H2B H -0.455(3) 0.218(2) -0.482(2)
H1B H -0.252(2) 0.306(2) -0.574(1)
N2A_2 N -0.7142(3) -0.1436(2) -0.9889(2)
N4A N -0.8395(3) -0.2524(2) -0.8048(2)
C3A C -0.9400(3) -0.2422(2) -0.7494(2)
N6A N -1.0439(3) -0.2479(2) -0.6813(2)
C4A C -1.1714(3) -0.1626(3) -0.6809(2)
N5A N -1.2857(3) -0.0951(2) -0.6725(2)
N7A N -0.6862(2) -0.4773(2) -0.9396(1)
O1A O -0.4953(2) -0.0779(2) -0.8290(1)
H4A H -0.499(3) 0.003(3) -0.853(2)
H5A H -0.432(3) -0.083(3) -0.778(2)
loop_
_geom_bond_atom_site_label_1
_geom_bond_atom_site_label_2
_geom_bond_site_symmetry_1
_geom_bond_site_symmetry_2
Fe1 N1 1_555 1_555
N1 C1 1_555 1_555
N2 C2 1_555 1_555
N3 C1 1_555 1_555
C2 N3 1_555 1_555
N4 C3 1_555 1_555
N5 C4 1_555 1_555
N6 C3 1_555 1_555
C4 N6 1_555 1_555
N7 C5 1_555 1_555
N8 C5 1_555 1_555
C5 C5B 1_555 1_555
C6 C7 1_555 1_555
C7 C8 1_555 1_555
C8 H3 1_555 1_555
H1 C6 1_555 1_555
H2 C7 1_555 1_555
O1 H4 1_555 1_555
H5 O1 1_555 1_555
N8C Fe1 1_555 1_555
Fe1A N2 1_555 1_555
N1A Fe1A 1_555 1_555
C1A N1A 1_555 1_555
N3A C1A 1_555 1_555
C2A N3A 1_555 1_555
N2A C2A 1_555 1_555
Fe1_2 N2A 1_555 1_555
Fe1C N8 1_555 1_555
N7B C8 1_555 1_555
C5B N7B 1_555 1_555
N8B C6 1_555 1_555
C6B N8 1_555 1_555
C7B C6B 1_555 1_555
C8B N7 1_555 1_555
H3B C8B 1_555 1_555
H2B C7B 1_555 1_555
H1B C6B 1_555 1_555
N2A_2 Fe1 1_555 1_555
N4A Fe1 1_555 1_555
C3A N4A 1_555 1_555
N6A C3A 1_555 1_555
C4A N6A 1_555 1_555
N5A C4A 1_555 1_555
N7A Fe1 1_555 1_555
O1A Fe1 1_555 1_555
H4A O1A 1_555 1_555
H5A O1A 1_555 1_555
N4 Fe1A 1_555 1_555
N7 Fe1A 1_555 1_555
O1 Fe1A 1_555 1_555
Fe1A N8B 1_555 1_555
Fe1C N7B 1_555 1_555
C5B N8B 1_555 1_555
C7B C8B 1_555 1_555

#END
