
#######################################################################
#
#                 Cambridge Crystallographic Data Centre
#                                CCDC 
#
#######################################################################
#
# If this CIF has been generated from an entry in the Cambridge 
# Structural Database, then it will include bibliographic, chemical, 
# crystal, experimental, refinement or atomic coordinate data resulting 
# from the CCDC's data processing and validation procedures.
#
#######################################################################

data_EBUTIG
_symmetry_cell_setting           hexagonal
_symmetry_space_group_name_H-M   'P 65'
_symmetry_Int_Tables_number      170
_space_group_name_Hall           'P 65'
loop_
_symmetry_equiv_pos_site_id
_symmetry_equiv_pos_as_xyz
1 x,y,z
2 -y,x-y,2/3+z
3 -x+y,-x,1/3+z
4 -x,-y,1/2+z
5 y,-x+y,1/6+z
6 x-y,x,5/6+z
_cell_length_a                   10.9106(2)
_cell_length_b                   10.9106(2)
_cell_length_c                   20.9713(7)
_cell_angle_alpha                90
_cell_angle_beta                 90
_cell_angle_gamma                120
_cell_volume                     2161.99
loop_
_atom_site_label
_atom_site_type_symbol
_atom_site_fract_x
_atom_site_fract_y
_atom_site_fract_z
C1 C 0.6398(6) 0.7127(6) 0.0798(3)
C2 C 0.4973(6) 0.6421(6) 0.0454(3)
C3 C 0.4669(6) 0.7544(7) 0.0150(3)
C4 C 0.5050(7) 0.8771(6) 0.0600(5)
H1 H 0.6034 0.9207 0.0711
H2 H 0.4485 0.8429 0.0980
H3 H 0.4873 0.9453 0.0395
C5 C 0.3026(6) 0.6655(6) 0.0054(3)
C6 C 0.2412(6) 0.7613(6) -0.0055(3)
C7 C 0.2635(9) 0.5672(8) -0.0523(4)
H4 H 0.1634 0.5220 -0.0596
H5 H 0.2896 0.4966 -0.0443
H6 H 0.3131 0.6213 -0.0892
C8 C 0.2527(6) 0.5771(7) 0.0667(4)
H7 H 0.2377 0.6296 0.1002
H8 H 0.1644 0.4899 0.0593
C9 C 0.3686(7) 0.5448(7) 0.0861(4)
H9 H 0.3389 0.4464 0.0779
H10 H 0.3905 0.5640 0.1311
C10 C 1.0456(7) 1.0748(6) -0.0252(3)
C11 C 0.9638(8) 1.1260(7) 0.0125(3)
H11 H 1.0267 1.2006 0.0406
H12 H 0.8925 1.0493 0.0372
H13 H 0.9195 1.1610 -0.0160
C12 C 0.5496(9) 0.8142(11) -0.0468(4)
H14 H 0.5252 0.8798 -0.0651
H15 H 0.5264 0.7384 -0.0763
H16 H 0.6492 0.8621 -0.0379
H17 H 0.5045 0.5856 0.0072
O1 O 1.0901(5) 0.7533(5) 0.1616(2)
O2 O 1.0241(5) 0.9506(4) -0.0181(2)
O3 O 1.1386(5) 1.1559(5) -0.0642(2)
O4 O 0.7492(5) 0.7532(5) 0.0467(2)
O5 O 0.6401(4) 0.7248(4) 0.1396(2)
O6 O 0.2587(5) 0.8181(5) -0.0586(2)
O7 O 0.1762(5) 0.7827(5) 0.0384(2)
Tb1 Tb 0.96756(2) 0.77574(2) 0.06344(3)
O2D O 0.9506(4) 0.9265(6) 0.1486(2)
O3D O 1.1559(5) 1.0173(7) 0.1025(2)
O5E O 0.9153(6) 0.6401(4) -0.0271(2)
O6D O 0.8181(5) 0.5594(7) 0.1081(2)
O7_2 O 1.1762(5) 0.7827(5) 0.0384(2)
Tb1_2 Tb -0.03244(2) 0.77574(2) 0.06344(3)
Tb1D Tb 0.77574(2) 0.80818(3) 0.23011(3)
Tb1E Tb 0.19182(3) 0.96756(2) -0.10323(3)
Tb1E_2 Tb 1.19182(3) 0.96756(2) -0.10323(3)
loop_
_geom_bond_atom_site_label_1
_geom_bond_atom_site_label_2
_geom_bond_site_symmetry_1
_geom_bond_site_symmetry_2
C1 C2 1_555 1_555
C2 C3 1_555 1_555
C3 C4 1_555 1_555
C4 H1 1_555 1_555
H2 C4 1_555 1_555
H3 C4 1_555 1_555
C5 C3 1_555 1_555
C6 C5 1_555 1_555
C7 C5 1_555 1_555
H4 C7 1_555 1_555
H5 C7 1_555 1_555
H6 C7 1_555 1_555
C8 C5 1_555 1_555
H7 C8 1_555 1_555
H8 C8 1_555 1_555
C9 C2 1_555 1_555
H9 C9 1_555 1_555
H10 C9 1_555 1_555
C10 C11 1_555 1_555
C11 H11 1_555 1_555
H12 C11 1_555 1_555
H13 C11 1_555 1_555
C12 C3 1_555 1_555
H14 C12 1_555 1_555
H15 C12 1_555 1_555
H16 C12 1_555 1_555
H17 C2 1_555 1_555
O1 Tb1 1_555 1_555
O2 C10 1_555 1_555
O3 C10 1_555 1_555
O4 C1 1_555 1_555
O5 C1 1_555 1_555
O6 C6 1_555 1_555
O7 C6 1_555 1_555
Tb1 O2 1_555 1_555
O2D Tb1 1_555 1_555
O3D Tb1 1_555 1_555
O5E Tb1 1_555 1_555
O6D Tb1 1_555 1_555
O7_2 Tb1 1_555 1_555
Tb1_2 O7 1_555 1_555
Tb1D O5 1_555 1_555
Tb1E O6 1_555 1_555
Tb1E_2 O2 1_555 1_555
C8 C9 1_555 1_555
O3 Tb1E_2 1_555 1_555
O4 Tb1 1_555 1_555
O2D Tb1D 1_555 1_555

#END
