
#######################################################################
#
#                 Cambridge Crystallographic Data Centre
#                                CCDC 
#
#######################################################################
#
# If this CIF has been generated from an entry in the Cambridge 
# Structural Database, then it will include bibliographic, chemical, 
# crystal, experimental, refinement or atomic coordinate data resulting 
# from the CCDC's data processing and validation procedures.
#
#######################################################################

data_EBUTUS
_symmetry_cell_setting           hexagonal
_symmetry_space_group_name_H-M   'P 65'
_symmetry_Int_Tables_number      170
_space_group_name_Hall           'P 65'
loop_
_symmetry_equiv_pos_site_id
_symmetry_equiv_pos_as_xyz
1 x,y,z
2 -y,x-y,2/3+z
3 -x+y,-x,1/3+z
4 -x,-y,1/2+z
5 y,-x+y,1/6+z
6 x-y,x,5/6+z
_cell_length_a                   10.8956(2)
_cell_length_b                   10.8956(2)
_cell_length_c                   20.9289(12)
_cell_angle_alpha                90
_cell_angle_beta                 90
_cell_angle_gamma                120
_cell_volume                     2151.69
loop_
_atom_site_label
_atom_site_type_symbol
_atom_site_fract_x
_atom_site_fract_y
_atom_site_fract_z
C1 C 0.2637(6) 0.5676(6) 0.3828(3)
H1 H 0.1626 0.5157 0.3775
H2 H 0.2977 0.5025 0.3891
H3 H 0.3070 0.6236 0.3453
C2 C 0.2395(5) 0.7628(5) 0.4301(3)
C3 C 0.3017(4) 0.6656(5) 0.4414(3)
C4 C 0.2541(5) 0.5788(6) 0.5033(4)
H4 H 0.2400 0.6321 0.5368
H5 H 0.1657 0.4911 0.4965
C5 C 0.4656(5) 0.7554(5) 0.4510(3)
C6 C 0.5046(5) 0.8781(5) 0.4973(4)
H6 H 0.6034 0.9219 0.5078
H7 H 0.4490 0.8428 0.5355
H8 H 0.4860 0.9466 0.4775
C7 C 0.5506(6) 0.8181(7) 0.3899(4)
H9 H 0.5239 0.8817 0.3710
H10 H 0.5314 0.7432 0.3604
H11 H 0.6499 0.8690 0.3998
C8 C 0.4992(5) 0.6460(5) 0.4815(3)
C9 C 0.3714(5) 0.5477(5) 0.5220(3)
H12 H 0.3935 0.5663 0.5671
H13 H 0.3425 0.4495 0.5134
C10 C 1.0479(5) 1.0760(5) 0.4110(3)
C11 C 0.9628(6) 1.1258(6) 0.4485(3)
H14 H 1.0254 1.2058 0.4742
H15 H 0.8968 1.0505 0.4756
H16 H 0.9119 1.1526 0.4196
C12 C 0.6396(5) 0.7139(5) 0.5169(3)
Dy1 Dy 0.96718(2) 0.77661(2) 0.49958(3)
O1 O 1.0241(4) 0.9499(3) 0.4184(2)
O2 O 0.7494(3) 0.7555(4) 0.48284(19)
O3 O 1.1386(4) 1.1559(4) 0.37138(19)
O4 O 1.0885(4) 0.7528(4) 0.5977(2)
O5 O 0.2576(4) 0.8181(4) 0.3774(2)
O6 O 0.1740(3) 0.7823(4) 0.47458(19)
O7 O 0.6412(3) 0.7284(4) 0.57595(19)
H17 H 0.4961 0.5930 0.4436
Dy1_2 Dy -0.03282(2) 0.77661(2) 0.49958(3)
Dy1D Dy 0.77661(2) 0.80943(3) 0.66625(3)
Dy1E Dy 0.19057(3) 0.96718(2) 0.33291(3)
Dy1E_2 Dy 1.19057(3) 0.96718(2) 0.33291(3)
O1D O 0.9499(3) 0.9258(5) 0.5851(2)
O3D O 1.1559(4) 1.0173(6) 0.53805(19)
O5D O 0.8181(4) 0.5605(6) 0.5441(2)
O6_2 O 1.1740(3) 0.7823(4) 0.47458(19)
O7E O 0.9128(5) 0.6412(3) 0.40928(19)
loop_
_geom_bond_atom_site_label_1
_geom_bond_atom_site_label_2
_geom_bond_site_symmetry_1
_geom_bond_site_symmetry_2
C1 H1 1_555 1_555
H2 C1 1_555 1_555
H3 C1 1_555 1_555
C2 C3 1_555 1_555
C3 C1 1_555 1_555
C4 C3 1_555 1_555
H4 C4 1_555 1_555
H5 C4 1_555 1_555
C5 C3 1_555 1_555
C6 C5 1_555 1_555
H6 C6 1_555 1_555
H7 C6 1_555 1_555
H8 C6 1_555 1_555
C7 C5 1_555 1_555
H9 C7 1_555 1_555
H10 C7 1_555 1_555
H11 C7 1_555 1_555
C8 C5 1_555 1_555
C9 C4 1_555 1_555
H12 C9 1_555 1_555
H13 C9 1_555 1_555
C10 C11 1_555 1_555
C11 H14 1_555 1_555
H15 C11 1_555 1_555
H16 C11 1_555 1_555
C12 C8 1_555 1_555
Dy1 O1 1_555 1_555
O1 C10 1_555 1_555
O2 C12 1_555 1_555
O3 C10 1_555 1_555
O4 Dy1 1_555 1_555
O5 C2 1_555 1_555
O6 C2 1_555 1_555
O7 C12 1_555 1_555
H17 C8 1_555 1_555
Dy1_2 O6 1_555 1_555
Dy1D O7 1_555 1_555
Dy1E O5 1_555 1_555
Dy1E_2 O1 1_555 1_555
O1D Dy1 1_555 1_555
O3D Dy1 1_555 1_555
O5D Dy1 1_555 1_555
O6_2 Dy1 1_555 1_555
O7E Dy1 1_555 1_555
C8 C9 1_555 1_555
Dy1 O2 1_555 1_555
O3 Dy1E_2 1_555 1_555
Dy1D O1D 1_555 1_555

#END
