
#######################################################################
#
#                 Cambridge Crystallographic Data Centre
#                                CCDC 
#
#######################################################################
#
# If this CIF has been generated from an entry in the Cambridge 
# Structural Database, then it will include bibliographic, chemical, 
# crystal, experimental, refinement or atomic coordinate data resulting 
# from the CCDC's data processing and validation procedures.
#
#######################################################################

data_EBUTUS01
_symmetry_cell_setting           hexagonal
_symmetry_space_group_name_H-M   'P 65'
_symmetry_Int_Tables_number      170
_space_group_name_Hall           'P 65'
loop_
_symmetry_equiv_pos_site_id
_symmetry_equiv_pos_as_xyz
1 x,y,z
2 -y,x-y,2/3+z
3 -x+y,-x,1/3+z
4 -x,-y,1/2+z
5 y,-x+y,1/6+z
6 x-y,x,5/6+z
_cell_length_a                   10.908
_cell_length_b                   10.908
_cell_length_c                   20.9429(3)
_cell_angle_alpha                90
_cell_angle_beta                 90
_cell_angle_gamma                120
_cell_volume                     2158.03
loop_
_atom_site_label
_atom_site_type_symbol
_atom_site_fract_x
_atom_site_fract_y
_atom_site_fract_z
Dy1 Dy 0.18886(3) 0.96583(3) 0.14426(3)
O1 O 0.2673(5) 0.9085(6) 0.0545(2)
O2 O 0.1385(6) 1.1546(5) 0.1828(3)
C1 C 0.2833(7) 0.9217(7) -0.0049(3)
C2 C 0.3482(7) 0.8491(7) -0.0392(3)
H1 H 0.4036 0.9119 -0.0743
C3 C 0.0491(8) 1.0774(7) 0.2227(3)
C4 C 0.2416(8) 0.7079(8) -0.0699(4)
C5 C 0.4521(9) 0.8232(9) 0.0006(4)
H2 H 0.5493 0.8929 -0.0095
H3 H 0.4365 0.8280 0.0459
C6 C 0.4201(9) 0.6741(9) -0.0183(5)
H4 H 0.5075 0.6730 -0.0252
H5 H 0.3671 0.6070 0.0153
C7 C 0.1215(9) 0.6232(8) -0.0235(6)
H6 H 0.0665 0.6690 -0.0180
H7 H 0.1597 0.6174 0.0169
H8 H 0.0622 0.5295 -0.0401
C8 C -0.0346(10) 1.1290(9) 0.2602(4)
H9 H 0.0225 1.1886 0.2945
H10 H -0.1180 1.0494 0.2773
H11 H -0.0613 1.1820 0.2326
C9 C 0.1791(12) 0.7274(11) -0.1317(5)
H12 H 0.1244 0.7720 -0.1224
H13 H 0.1193 0.6367 -0.1510
H14 H 0.2543 0.7858 -0.1606
O3 O 0.2206(6) 0.3920(5) -0.0463(2)
C10 C 0.2389(8) 0.4764(7) -0.0917(4)
C11 C 0.3330(7) 0.6348(7) -0.0798(3)
C12 C 0.4341(11) 0.6960(9) -0.1377(4)
H15 H 0.4878 0.6486 -0.1418
H16 H 0.4973 0.7954 -0.1313
H17 H 0.3798 0.6820 -0.1758
O4 O 0.0239(6) 0.9510(5) 0.2300(2)
O5 O 0.2429(6) 0.9913(5) -0.0388(2)
O6 O 0.1819(6) 0.4382(6) -0.1440(3)
O7 O 0.3335(6) 1.0876(6) 0.2418(3)
H18 H 0.2812 1.0666 0.2729
Dy1A Dy 0.03417(3) 0.22303(4) -0.18907(3)
Dy1D Dy -0.03417(3) 0.77697(4) 0.31093(3)
Dy1E Dy 0.22303(4) 0.18886(3) -0.02241(3)
Dy1E_2 Dy 0.22303(4) 1.18886(3) -0.02241(3)
O3D O 0.3920(5) 1.1714(8) 0.1204(2)
O4E O 0.0729(8) 1.0239(6) 0.0633(2)
O5D O -0.0087(5) 0.7484(8) 0.1279(2)
O6B O 0.2563(8) 0.8181(6) 0.1893(3)
loop_
_geom_bond_atom_site_label_1
_geom_bond_atom_site_label_2
_geom_bond_site_symmetry_1
_geom_bond_site_symmetry_2
Dy1 O1 1_555 1_555
O1 C1 1_555 1_555
O2 Dy1 1_555 1_555
C1 C2 1_555 1_555
C2 H1 1_555 1_555
C3 O2 1_555 1_555
C4 C2 1_555 1_555
C5 C2 1_555 1_555
H2 C5 1_555 1_555
H3 C5 1_555 1_555
C6 C5 1_555 1_555
H4 C6 1_555 1_555
H5 C6 1_555 1_555
C7 C4 1_555 1_555
H6 C7 1_555 1_555
H7 C7 1_555 1_555
H8 C7 1_555 1_555
C8 C3 1_555 1_555
H9 C8 1_555 1_555
H10 C8 1_555 1_555
H11 C8 1_555 1_555
C9 C4 1_555 1_555
H12 C9 1_555 1_555
H13 C9 1_555 1_555
H14 C9 1_555 1_555
O3 C10 1_555 1_555
C10 C11 1_555 1_555
C11 C4 1_555 1_555
C12 C11 1_555 1_555
H15 C12 1_555 1_555
H16 C12 1_555 1_555
H17 C12 1_555 1_555
O4 Dy1 1_555 1_555
O5 C1 1_555 1_555
O6 C10 1_555 1_555
O7 Dy1 1_555 1_555
H18 O7 1_555 1_555
Dy1A O6 1_555 1_555
Dy1D O4 1_555 1_555
Dy1E O3 1_555 1_555
Dy1E_2 O5 1_555 1_555
O3D Dy1 1_555 1_555
O4E Dy1 1_555 1_555
O5D Dy1 1_555 1_555
O6B Dy1 1_555 1_555
C3 O4 1_555 1_555
C6 C11 1_555 1_555
Dy1E_2 O4E 1_555 1_555

#END
