
#######################################################################
#
#                 Cambridge Crystallographic Data Centre
#                                CCDC 
#
#######################################################################
#
# If this CIF has been generated from an entry in the Cambridge 
# Structural Database, then it will include bibliographic, chemical, 
# crystal, experimental, refinement or atomic coordinate data resulting 
# from the CCDC's data processing and validation procedures.
#
#######################################################################

data_EBUTEC01
_symmetry_cell_setting           hexagonal
_symmetry_space_group_name_H-M   'P 65'
_symmetry_Int_Tables_number      170
_space_group_name_Hall           'P 65'
loop_
_symmetry_equiv_pos_site_id
_symmetry_equiv_pos_as_xyz
1 x,y,z
2 -y,x-y,2/3+z
3 -x+y,-x,1/3+z
4 -x,-y,1/2+z
5 y,-x+y,1/6+z
6 x-y,x,5/6+z
_cell_length_a                   10.93920(10)
_cell_length_b                   10.93920(10)
_cell_length_c                   21.0904(4)
_cell_angle_alpha                90
_cell_angle_beta                 90
_cell_angle_gamma                120
_cell_volume                     2185.68
loop_
_atom_site_label
_atom_site_type_symbol
_atom_site_fract_x
_atom_site_fract_y
_atom_site_fract_z
Gd1 Gd 0.22383(2) 0.03348(2) 1.00629(2)
O1 O -0.0201(4) -0.1543(4) 0.9685(2)
O2 O 0.2445(5) -0.0907(4) 0.90913(19)
H1 H 0.2131 -0.0700 0.8782
C1 C -0.0317(6) -0.0772(5) 0.9290(3)
O3 O 0.4445(4) 0.1822(5) 0.9624(2)
C2 C 0.4786(6) 0.2361(6) 0.9098(3)
C3 C 0.7110(7) 0.2453(7) 0.8885(3)
C4 C 0.6347(6) 0.3329(6) 0.8973(3)
C5 C 0.6281(7) 0.1228(7) 0.8431(5)
H2 H 0.6759 0.0699 0.8383
H3 H 0.6210 0.1588 0.8025
H4 H 0.5352 0.0626 0.8598
C6 C 0.6986(8) 0.4363(8) 0.9537(4)
H5 H 0.6505 0.4890 0.9582
H6 H 0.7971 0.5000 0.9459
H7 H 0.6879 0.3840 0.9918
C7 C 0.6728(7) 0.4187(7) 0.8356(4)
H8 H 0.6709 0.5055 0.8423
H9 H 0.6054 0.3648 0.8027
C8 C 0.7353(9) 0.1859(11) 0.9496(4)
H10 H 0.7835 0.1350 0.9401
H11 H 0.6461 0.1234 0.9691
H12 H 0.7917 0.2620 0.9781
C9 C -0.1662(6) -0.1272(7) 0.8922(3)
H13 H -0.1815 -0.2044 0.8653
H14 H -0.1591 -0.0512 0.8667
H15 H -0.2439 -0.1579 0.9211
O4 O 0.0702(3) 0.0493(4) 0.9214(2)
O5 O 0.9929(4) 0.2464(5) 0.85635(18)
C10 C 0.9233(6) 0.2872(5) 0.8226(2)
C11 C 0.8499(5) 0.3533(5) 0.8566(2)
H16 H 0.9134 0.4109 0.8907
C12 C 0.8233(7) 0.4527(7) 0.8157(3)
H17 H 0.8265 0.4341 0.7709
H18 H 0.8922 0.5506 0.8244
O6 O 0.3905(4) 0.2140(5) 0.8660(2)
O7 O 0.9116(5) 0.2712(5) 0.76360(19)
Gd1A Gd 0.96652(2) 0.19035(3) 0.67296(2)
Gd1E Gd 0.19035(3) 0.22383(2) 0.83962(2)
Gd1E_2 Gd 1.19035(3) 0.22383(2) 0.83962(2)
O4D O 0.0493(4) -0.0209(5) 1.0881(2)
O5D O 0.2464(5) 0.2535(6) 1.02302(18)
O6D O 0.2140(5) -0.1765(6) 1.0327(2)
O7B O 0.3596(7) 0.0884(5) 1.09693(19)
loop_
_geom_bond_atom_site_label_1
_geom_bond_atom_site_label_2
_geom_bond_site_symmetry_1
_geom_bond_site_symmetry_2
Gd1 O1 1_555 1_555
O1 C1 1_555 1_555
O2 Gd1 1_555 1_555
H1 O2 1_555 1_555
C1 C9 1_555 1_555
O3 Gd1 1_555 1_555
C2 O3 1_555 1_555
C3 C4 1_555 1_555
C4 C2 1_555 1_555
C5 C3 1_555 1_555
H2 C5 1_555 1_555
H3 C5 1_555 1_555
H4 C5 1_555 1_555
C6 C4 1_555 1_555
H5 C6 1_555 1_555
H6 C6 1_555 1_555
H7 C6 1_555 1_555
C7 C4 1_555 1_555
H8 C7 1_555 1_555
H9 C7 1_555 1_555
C8 C3 1_555 1_555
H10 C8 1_555 1_555
H11 C8 1_555 1_555
H12 C8 1_555 1_555
C9 H13 1_555 1_555
H14 C9 1_555 1_555
H15 C9 1_555 1_555
O4 Gd1 1_555 1_555
O5 C10 1_555 1_555
C10 C11 1_555 1_555
C11 C3 1_555 1_555
H16 C11 1_555 1_555
C12 C7 1_555 1_555
H17 C12 1_555 1_555
H18 C12 1_555 1_555
O6 C2 1_555 1_555
O7 C10 1_555 1_555
Gd1A O7 1_555 1_555
Gd1E O4 1_555 1_555
Gd1E_2 O5 1_555 1_555
O4D Gd1 1_555 1_555
O5D Gd1 1_555 1_555
O6D Gd1 1_555 1_555
O7B Gd1 1_555 1_555
C1 O4 1_555 1_555
C11 C12 1_555 1_555
O6 Gd1E 1_555 1_555

#END
