
#######################################################################
#
#                 Cambridge Crystallographic Data Centre
#                                CCDC 
#
#######################################################################
#
# If this CIF has been generated from an entry in the Cambridge 
# Structural Database, then it will include bibliographic, chemical, 
# crystal, experimental, refinement or atomic coordinate data resulting 
# from the CCDC's data processing and validation procedures.
#
#######################################################################

data_EBUVAA
_symmetry_cell_setting           monoclinic
_symmetry_space_group_name_H-M   'P 21/c'
_symmetry_Int_Tables_number      14
_space_group_name_Hall           '-P 2ybc'
loop_
_symmetry_equiv_pos_site_id
_symmetry_equiv_pos_as_xyz
1 x,y,z
2 -x,1/2+y,1/2-z
3 -x,-y,-z
4 x,1/2-y,1/2+z
_cell_length_a                   14.6280(16)
_cell_length_b                   11.6031(11)
_cell_length_c                   22.004(3)
_cell_angle_alpha                90
_cell_angle_beta                 116.141(9)
_cell_angle_gamma                90
_cell_volume                     3352.72
loop_
_atom_site_label
_atom_site_type_symbol
_atom_site_fract_x
_atom_site_fract_y
_atom_site_fract_z
C1 C -0.1899(6) -0.3588(6) -0.0706(4)
H1 H -0.1273 -0.3708 -0.073
C2 C -0.1894(6) -0.3514(6) -0.0079(4)
H2 H -0.1275 -0.3611 0.0319
C3 C -0.2794(5) -0.3297(6) -0.0028(4)
C4 C -0.3695(5) -0.3261(6) -0.0624(3)
H3 H -0.4327 -0.3162 -0.0605
C5 C -0.3674(6) -0.3369(6) -0.1240(4)
H4 H -0.4299 -0.3356 -0.164
C6 C -0.1962(6) -0.2460(6) 0.1796(4)
H5 H -0.1348 -0.2236 0.2171
C7 C -0.1924(6) -0.2767(6) 0.1193(3)
H6 H -0.1293 -0.276 0.1167
C8 C -0.2810(5) -0.3084(6) 0.0633(3)
C9 C -0.3702(5) -0.3107(6) 0.0711(4)
H7 H -0.4329 -0.3323 0.0344
C10 C -0.3663(5) -0.2810(6) 0.1334(3)
H8 H -0.4276 -0.2854 0.1382
C11 C -0.2556(5) -0.0722(6) -0.1762(3)
C12 C -0.2746(5) 0.0373(6) -0.1598(3)
H9 H -0.2203 0.089 -0.1355
C13 C -0.3749(5) 0.0696(6) -0.1798(3)
H10 H -0.3905 0.1452 -0.1706
C14 C -0.4512(5) -0.0077(6) -0.2127(3)
C15 C -0.4263(6) -0.1149(6) -0.2292(4)
H11 H -0.4794 -0.1669 -0.255
C16 C -0.5625(5) 0.0208(7) -0.2323(3)
C17 C -0.1494(6) -0.1174(6) -0.1540(4)
C18 C 0.2752(5) -0.0183(6) -0.1029(4)
H12 H 0.2339 -0.0279 -0.1501
C19 C 0.3795(5) -0.0158(6) -0.0801(4)
H13 H 0.4074 -0.0237 -0.1116
C20 C 0.4428(5) -0.0023(6) -0.0135(4)
C21 C 0.3957(5) 0.0112(6) 0.0280(4)
H14 H 0.4358 0.0221 0.0752
C22 C 0.2913(5) 0.0091(6) 0.0020(3)
H15 H 0.2622 0.0205 0.0326
C23 C 0.0262(6) -0.3715(7) -0.2883(4)
C24 C 0.0678(5) -0.2285(7) -0.1943(4)
H16 H 0.0646 -0.1702 -0.2255
C25 C 0.0567(5) -0.3449(7) -0.2156(4)
C26 C 0.0942(5) -0.2814(7) -0.0868(4)
C27 C 0.0657(5) -0.4274(7) -0.1689(3)
H17 H 0.0562 -0.5062 -0.1819
C28 C 0.0883(5) -0.3979(7) -0.1034(4)
H18 H 0.0995 -0.4555 -0.0702
C29 C 0.1129(6) -0.2404(7) -0.0177(4)
N1 N -0.2779(4) -0.3495(5) -0.1296(3)
N2 N -0.2821(5) -0.2467(5) 0.1870(3)
N3 N -0.3307(4) -0.1465(5) -0.2100(3)
N4 N 0.2286(4) -0.0079(5) -0.0626(3)
N5 N 0.0826(4) -0.1970(5) -0.1327(3)
O1 O -0.1408(3) -0.2207(4) -0.1704(2)
O2 O -0.0779(3) -0.0513(4) -0.1197(2)
O4 O -0.6241(3) -0.0624(4) -0.2499(2)
O6 O -0.5823(3) 0.1239(4) -0.2270(2)
O8 O 0.0544(3) 0.1139(4) -0.0489(2)
O10 O -0.2038(3) -0.4593(4) -0.2253(2)
O12 O 0.1035(4) -0.1336(4) -0.0098(2)
O13 O 0.1305(3) -0.3148(4) 0.0275(2)
O14 O -0.0284(3) -0.4620(4) -0.3119(2)
O15 O 0.0484(3) -0.3046(4) -0.3240(2)
Ni1 Ni -0.27580(7) -0.30598(8) -0.22185(5)
Ni2 Ni 0.07255(7) -0.03851(8) -0.09494(5)
C1B C 1.1899(6) 0.3588(6) 0.0706(4)
H1B H 1.1273 0.3708 0.073
C2B C 1.1894(6) 0.3514(6) 0.0079(4)
H2B H 1.1275 0.3611 -0.0319
C3B C 1.2794(5) 0.3297(6) 0.0028(4)
C4B C 1.3695(5) 0.3261(6) 0.0624(3)
H3B H 1.4327 0.3162 0.0605
C5B C 1.3674(6) 0.3369(6) 0.1240(4)
H4B H 1.4299 0.3356 0.164
C6B C 1.1962(6) 0.2460(6) -0.1796(4)
H5B H 1.1348 0.2236 -0.2171
C7B C 1.1924(6) 0.2767(6) -0.1193(3)
H6B H 1.1293 0.276 -0.1167
C8B C 1.2810(5) 0.3084(6) -0.0633(3)
C9B C 1.3702(5) 0.3107(6) -0.0711(4)
H7B H 1.4329 0.3323 -0.0344
C10B C 1.3663(5) 0.2810(6) -0.1334(3)
H8B H 1.4276 0.2854 -0.1382
C11B C 1.2556(5) 0.0722(6) 0.1762(3)
C12B C 1.2746(5) -0.0373(6) 0.1598(3)
H9B H 1.2203 -0.089 0.1355
C13B C 1.3749(5) -0.0696(6) 0.1798(3)
H10B H 1.3905 -0.1452 0.1706
C14B C 1.4512(5) 0.0077(6) 0.2127(3)
C15B C 1.4263(6) 0.1149(6) 0.2292(4)
H11B H 1.4794 0.1669 0.255
C16B C 1.5625(5) -0.0208(7) 0.2323(3)
C17B C 1.1494(6) 0.1174(6) 0.1540(4)
C18B C 0.7248(5) 0.0183(6) 0.1029(4)
H12B H 0.7661 0.0279 0.1501
C19B C 0.6205(5) 0.0158(6) 0.0801(4)
H13B H 0.5926 0.0237 0.1116
C20B C 0.5572(5) 0.0023(6) 0.0135(4)
C21B C 0.6043(5) -0.0112(6) -0.0280(4)
H14B H 0.5642 -0.0221 -0.0752
C22B C 0.7087(5) -0.0091(6) -0.0020(3)
H15B H 0.7378 -0.0205 -0.0326
C23B C 0.9738(6) 0.3715(7) 0.2883(4)
C24B C 0.9322(5) 0.2285(7) 0.1943(4)
H16B H 0.9354 0.1702 0.2255
C25B C 0.9433(5) 0.3449(7) 0.2156(4)
C26B C 0.9058(5) 0.2814(7) 0.0868(4)
C27B C 0.9343(5) 0.4274(7) 0.1689(3)
H17B H 0.9438 0.5062 0.1819
C28B C 0.9117(5) 0.3979(7) 0.1034(4)
H18B H 0.9005 0.4555 0.0702
C29B C 0.8871(6) 0.2404(7) 0.0177(4)
N1B N 1.2779(4) 0.3495(5) 0.1296(3)
N2B N 1.2821(5) 0.2467(5) -0.1870(3)
N2A N 1.2821(5) 0.2533(5) 0.3130(3)
N2C N -0.2821(5) -0.2533(5) -0.3130(3)
N3B N 1.3307(4) 0.1465(5) 0.2100(3)
N4B N 0.7714(4) 0.0079(5) 0.0626(3)
N5B N 0.9174(4) 0.1970(5) 0.1327(3)
O1B O 1.1408(3) 0.2207(4) 0.1704(2)
O2B O 1.0779(3) 0.0513(4) 0.1197(2)
O4B O 1.6241(3) 0.0624(4) 0.2499(2)
O6B O 1.5823(3) -0.1239(4) 0.2270(2)
O6A O -0.4177(3) -0.3761(4) -0.2730(2)
O6C O 1.4177(3) 0.3761(4) 0.2730(2)
O8B O 0.9456(3) -0.1139(4) 0.0489(2)
O10B O 1.2038(3) 0.4593(4) 0.2253(2)
O12B O 0.8965(4) 0.1336(4) 0.0098(2)
O13B O 0.8695(3) 0.3148(4) -0.0275(2)
O14B O 1.0284(3) 0.4620(4) 0.3119(2)
O14A O 0.0284(3) 0.0380(4) -0.1881(2)
O14C O 0.9716(3) -0.0380(4) 0.1881(2)
O15B O 0.9516(3) 0.3046(4) 0.3240(2)
Ni1B Ni 1.27580(7) 0.30598(8) 0.22185(5)
Ni1A Ni -0.72420(7) 0.19402(8) -0.27815(5)
Ni1A_2 Ni 1.27580(7) 0.19402(8) -0.27815(5)
Ni1C Ni -0.27580(7) -0.19402(8) 0.27815(5)
Ni1C_2 Ni 1.72420(7) -0.19402(8) 0.27815(5)
Ni2B Ni 0.92745(7) 0.03851(8) 0.09494(5)
Ni2A Ni -0.07255(7) -0.53851(8) -0.40506(5)
Ni2C Ni 1.07255(7) 0.53851(8) 0.40506(5)
O3 O 0.3416(4) -0.1562(5) -0.3807(3)
O5 O 0.0707(4) -0.4017(4) 0.1213(2)
O7 O 0.4232(9) -0.0761(12) -0.4640(6)
O9 O -0.2857(9) -0.7652(11) -0.2890(6)
O11 O 0.4075(10) -0.0909(12) -0.5938(7)
loop_
_geom_bond_atom_site_label_1
_geom_bond_atom_site_label_2
_geom_bond_site_symmetry_1
_geom_bond_site_symmetry_2
C1 H1 1_555 1_555
C2 C1 1_555 1_555
H2 C2 1_555 1_555
C3 C2 1_555 1_555
C4 C3 1_555 1_555
H3 C4 1_555 1_555
C5 C4 1_555 1_555
H4 C5 1_555 1_555
C6 H5 1_555 1_555
C7 C6 1_555 1_555
H6 C7 1_555 1_555
C8 C3 1_555 1_555
C9 C8 1_555 1_555
H7 C9 1_555 1_555
C10 C9 1_555 1_555
H8 C10 1_555 1_555
C11 C12 1_555 1_555
C12 H9 1_555 1_555
C13 C12 1_555 1_555
H10 C13 1_555 1_555
C14 C13 1_555 1_555
C15 C14 1_555 1_555
H11 C15 1_555 1_555
C16 C14 1_555 1_555
C17 C11 1_555 1_555
C18 H12 1_555 1_555
C19 C18 1_555 1_555
H13 C19 1_555 1_555
C20 C19 1_555 1_555
C21 C20 1_555 1_555
H14 C21 1_555 1_555
C22 C21 1_555 1_555
H15 C22 1_555 1_555
C23 C25 1_555 1_555
C24 H16 1_555 1_555
C25 C24 1_555 1_555
C26 C28 1_555 1_555
C27 C25 1_555 1_555
H17 C27 1_555 1_555
C28 C27 1_555 1_555
H18 C28 1_555 1_555
C29 C26 1_555 1_555
N1 C1 1_555 1_555
N2 C6 1_555 1_555
N3 C11 1_555 1_555
N4 C18 1_555 1_555
N5 C24 1_555 1_555
O1 C17 1_555 1_555
O2 C17 1_555 1_555
O4 C16 1_555 1_555
O6 C16 1_555 1_555
O8 Ni2 1_555 1_555
O10 Ni1 1_555 1_555
O12 C29 1_555 1_555
O13 C29 1_555 1_555
O14 C23 1_555 1_555
O15 C23 1_555 1_555
Ni1 N1 1_555 1_555
Ni2 N4 1_555 1_555
C1B H1B 1_555 1_555
C2B C1B 1_555 1_555
H2B C2B 1_555 1_555
C3B C2B 1_555 1_555
C4B C3B 1_555 1_555
H3B C4B 1_555 1_555
C5B C4B 1_555 1_555
H4B C5B 1_555 1_555
C6B H5B 1_555 1_555
C7B C6B 1_555 1_555
H6B C7B 1_555 1_555
C8B C3B 1_555 1_555
C9B C8B 1_555 1_555
H7B C9B 1_555 1_555
C10B C9B 1_555 1_555
H8B C10B 1_555 1_555
C11B C12B 1_555 1_555
C12B H9B 1_555 1_555
C13B C12B 1_555 1_555
H10B C13B 1_555 1_555
C14B C13B 1_555 1_555
C15B C14B 1_555 1_555
H11B C15B 1_555 1_555
C16B C14B 1_555 1_555
C17B C11B 1_555 1_555
C18B H12B 1_555 1_555
C19B C18B 1_555 1_555
H13B C19B 1_555 1_555
C20B C20 1_555 1_555
C21B C20B 1_555 1_555
H14B C21B 1_555 1_555
C22B C21B 1_555 1_555
H15B C22B 1_555 1_555
C23B C25B 1_555 1_555
C24B H16B 1_555 1_555
C25B C24B 1_555 1_555
C26B C28B 1_555 1_555
C27B C25B 1_555 1_555
H17B C27B 1_555 1_555
C28B C27B 1_555 1_555
H18B C28B 1_555 1_555
C29B C26B 1_555 1_555
N1B C1B 1_555 1_555
N2B C6B 1_555 1_555
N2A Ni1B 1_555 1_555
N2C Ni1 1_555 1_555
N3B C11B 1_555 1_555
N4B C18B 1_555 1_555
N5B C24B 1_555 1_555
O1B C17B 1_555 1_555
O2B C17B 1_555 1_555
O4B C16B 1_555 1_555
O6B C16B 1_555 1_555
O6A Ni1 1_555 1_555
O6C Ni1B 1_555 1_555
O8B Ni2B 1_555 1_555
O10B Ni1B 1_555 1_555
O12B C29B 1_555 1_555
O13B C29B 1_555 1_555
O14B C23B 1_555 1_555
O14A Ni2 1_555 1_555
O14C Ni2B 1_555 1_555
O15B C23B 1_555 1_555
Ni1B N1B 1_555 1_555
Ni1A O6 1_555 1_555
Ni1A_2 N2B 1_555 1_555
Ni1C N2 1_555 1_555
Ni1C_2 O6B 1_555 1_555
Ni2B N4B 1_555 1_555
Ni2A O14 1_555 1_555
Ni2C O14B 1_555 1_555
C5 N1 1_555 1_555
C7 C8 1_555 1_555
C10 N2 1_555 1_555
C15 N3 1_555 1_555
C22 N4 1_555 1_555
C26 N5 1_555 1_555
N3 Ni1 1_555 1_555
N5 Ni2 1_555 1_555
O1 Ni1 1_555 1_555
O2 Ni2 1_555 1_555
O12 Ni2 1_555 1_555
C5B N1B 1_555 1_555
C7B C8B 1_555 1_555
C10B N2B 1_555 1_555
C15B N3B 1_555 1_555
C19B C20B 1_555 1_555
C22B N4B 1_555 1_555
C26B N5B 1_555 1_555
N3B Ni1B 1_555 1_555
N5B Ni2B 1_555 1_555
O1B Ni1B 1_555 1_555
O2B Ni2B 1_555 1_555
O12B Ni2B 1_555 1_555

#END
