
#######################################################################
#
#                 Cambridge Crystallographic Data Centre
#                                CCDC 
#
#######################################################################
#
# If this CIF has been generated from an entry in the Cambridge 
# Structural Database, then it will include bibliographic, chemical, 
# crystal, experimental, refinement or atomic coordinate data resulting 
# from the CCDC's data processing and validation procedures.
#
#######################################################################

data_EBUXEG
_symmetry_cell_setting           triclinic
_symmetry_space_group_name_H-M   'P -1'
_symmetry_Int_Tables_number      2
_space_group_name_Hall           '-P 1'
loop_
_symmetry_equiv_pos_site_id
_symmetry_equiv_pos_as_xyz
1 x,y,z
2 -x,-y,-z
_cell_length_a                   7.8309(13)
_cell_length_b                   13.545(2)
_cell_length_c                   17.271(3)
_cell_angle_alpha                73.472(2)
_cell_angle_beta                 89.038(2)
_cell_angle_gamma                80.625(3)
_cell_volume                     1731.93
loop_
_atom_site_label
_atom_site_type_symbol
_atom_site_fract_x
_atom_site_fract_y
_atom_site_fract_z
Ag1 Ag 0.67262(9) 0.52657(5) 0.19820(3)
Ag2 Ag 0.56190(9) 0.78001(5) 0.20945(3)
N1 N 0.6799(7) 0.5546(4) 0.3172(3)
N2 N 0.6805(7) 0.6589(4) 0.3148(3)
N3 N 0.5873(10) 1.1365(5) -0.1032(4)
N4 N 0.4131(11) 0.3951(6) -0.0744(4)
C1 C 0.5084(12) 0.3776(6) -0.0219(5)
C2 C 0.6353(11) 0.3620(6) 0.0410(4)
C3 C 0.5941(10) 0.3257(5) 0.1210(4)
H1 H 0.4853 0.3082 0.1346
C4 C 0.7176(11) 0.3156(6) 0.1815(4)
C5 C 0.8781(11) 0.3429(7) 0.1590(5)
H2 H 0.9604 0.3378 0.1988
C6 C 0.9187(12) 0.3778(8) 0.0782(6)
H3 H 1.0281 0.3940 0.0643
C7 C 0.7982(12) 0.3881(7) 0.0195(5)
H4 H 0.8242 0.4124 -0.0346
C8 C 0.6825(12) 0.2707(6) 0.2675(4)
H5 H 0.5671 0.2527 0.2728
H6 H 0.7653 0.2077 0.2905
C9 C 0.6975(9) 0.3163(5) 0.3923(4)
C10 C 0.6834(11) 0.2152(6) 0.4371(4)
H7 H 0.6681 0.1656 0.4111
C11 C 0.6921(12) 0.1888(6) 0.5199(5)
H8 H 0.6763 0.1221 0.5495
C12 C 0.7234(12) 0.2582(6) 0.5600(4)
H9 H 0.7394 0.2373 0.6159
C13 C 0.7306(11) 0.3588(6) 0.5163(4)
H10 H 0.7444 0.4074 0.5434
C14 C 0.7179(9) 0.3906(5) 0.4325(4)
C15 C 0.7159(8) 0.5007(5) 0.3904(4)
C16 C 0.7243(8) 0.6597(5) 0.3870(4)
C17 C 0.7572(9) 0.7416(5) 0.4212(4)
C18 C 0.7733(10) 0.7204(6) 0.5039(4)
H11 H 0.7609 0.6544 0.5363
C19 C 0.8063(12) 0.7922(6) 0.5394(4)
H12 H 0.8114 0.7770 0.5954
C20 C 0.8328(12) 0.8898(6) 0.4908(5)
H13 H 0.8611 0.9386 0.5147
C21 C 0.8176(11) 0.9151(6) 0.4070(4)
H14 H 0.8345 0.9804 0.3749
C22 C 0.7770(9) 0.8414(5) 0.3728(4)
C23 C 0.8369(10) 0.9446(6) 0.2399(4)
H15 H 0.9542 0.9421 0.2584
H16 H 0.7684 1.0107 0.2408
C24 C 0.8360(9) 0.9323(5) 0.1563(4)
C25 C 0.9217(11) 0.8424(6) 0.1428(5)
H17 H 0.9804 0.7900 0.1855
C26 C 0.9221(14) 0.8287(7) 0.0675(5)
H18 H 0.9799 0.7668 0.0596
C27 C 0.8383(12) 0.9048(7) 0.0037(5)
H19 H 0.8381 0.8952 -0.0474
C28 C 0.7538(10) 0.9965(6) 0.0165(4)
C29 C 0.7557(9) 1.0107(5) 0.0919(4)
H20 H 0.7025 1.0737 0.0996
C30 C 0.6621(11) 1.0764(6) -0.0515(5)
O1 O 0.7463(6) 0.5612(3) 0.4375(2)
O2 O 0.6966(7) 0.3469(3) 0.3096(3)
O3 O 0.7629(7) 0.8591(4) 0.2900(2)
Ag1A Ag 0.32738(9) 0.47343(5) -0.19820(3)
Ag2A Ag 0.43810(9) 1.21999(5) -0.20945(3)
N3A N 0.4127(10) 0.8635(5) 0.1032(4)
N4A N 0.5869(11) 0.6049(6) 0.0744(4)
F1 F 0.3466(7) 0.4743(5) 0.3433(4)
F2 F 0.2960(7) 0.6419(4) 0.2136(4)
F3 F 0.0591(7) 0.6082(5) 0.3208(4)
F4 F 0.0102(7) 0.5848(4) 0.1776(3)
F5 F 0.0573(7) 0.4222(4) 0.3021(3)
F12 F 0.3053(10) 0.4600(5) 0.1949(4)
Sb2 Sb 0.18036(6) 0.53067(4) 0.25945(3)
F6 F 0.2495(7) 0.2220(4) 0.2434(4)
F7 F 0.4583(9) 0.0599(5) 0.3264(4)
F8 F 0.4270(9) 0.0954(6) 0.1686(4)
F9 F 0.3063(10) -0.0629(4) 0.2650(4)
F10 F 0.1195(8) 0.0628(5) 0.3361(3)
F11 F 0.0903(8) 0.1029(5) 0.1809(3)
Sb1 Sb 0.27641(7) 0.07984(4) 0.25357(3)
loop_
_geom_bond_atom_site_label_1
_geom_bond_atom_site_label_2
_geom_bond_site_symmetry_1
_geom_bond_site_symmetry_2
Ag1 N1 1_555 1_555
Ag2 N2 1_555 1_555
N1 N2 1_555 1_555
N2 C16 1_555 1_555
N3 C30 1_555 1_555
N4 C1 1_555 1_555
C1 C2 1_555 1_555
C2 C3 1_555 1_555
C3 H1 1_555 1_555
C4 C3 1_555 1_555
C5 C4 1_555 1_555
H2 C5 1_555 1_555
C6 C5 1_555 1_555
H3 C6 1_555 1_555
C7 C2 1_555 1_555
H4 C7 1_555 1_555
C8 C4 1_555 1_555
H5 C8 1_555 1_555
H6 C8 1_555 1_555
C9 C10 1_555 1_555
C10 H7 1_555 1_555
C11 C10 1_555 1_555
H8 C11 1_555 1_555
C12 C11 1_555 1_555
H9 C12 1_555 1_555
C13 C12 1_555 1_555
H10 C13 1_555 1_555
C14 C9 1_555 1_555
C15 N1 1_555 1_555
C16 C17 1_555 1_555
C17 C18 1_555 1_555
C18 H11 1_555 1_555
C19 C18 1_555 1_555
H12 C19 1_555 1_555
C20 C19 1_555 1_555
H13 C20 1_555 1_555
C21 C20 1_555 1_555
H14 C21 1_555 1_555
C22 C17 1_555 1_555
C23 H15 1_555 1_555
H16 C23 1_555 1_555
C24 C23 1_555 1_555
C25 C24 1_555 1_555
H17 C25 1_555 1_555
C26 C25 1_555 1_555
H18 C26 1_555 1_555
C27 C26 1_555 1_555
H19 C27 1_555 1_555
C28 C27 1_555 1_555
C29 C24 1_555 1_555
H20 C29 1_555 1_555
C30 C28 1_555 1_555
O1 C15 1_555 1_555
O2 Ag1 1_555 1_555
O3 Ag2 1_555 1_555
F1 Sb2 1_555 1_555
F2 Sb2 1_555 1_555
F3 Sb2 1_555 1_555
F4 Sb2 1_555 1_555
F5 Sb2 1_555 1_555
F6 Sb1 1_555 1_555
F7 Sb1 1_555 1_555
F8 Sb1 1_555 1_555
F9 Sb1 1_555 1_555
F10 Sb1 1_555 1_555
F11 Sb1 1_555 1_555
F12 Sb2 1_555 1_555
Ag1A N4 1_555 1_555
Ag2A N3 1_555 1_555
N3A Ag2 1_555 1_555
N4A Ag1 1_555 1_555
C6 C7 1_555 1_555
C8 O2 1_555 1_555
C9 O2 1_555 1_555
C13 C14 1_555 1_555
C14 C15 1_555 1_555
C16 O1 1_555 1_555
C21 C22 1_555 1_555
C22 O3 1_555 1_555
C23 O3 1_555 1_555
C28 C29 1_555 1_555

#END
