
#######################################################################
#
#                 Cambridge Crystallographic Data Centre
#                                CCDC 
#
#######################################################################
#
# If this CIF has been generated from an entry in the Cambridge 
# Structural Database, then it will include bibliographic, chemical, 
# crystal, experimental, refinement or atomic coordinate data resulting 
# from the CCDC's data processing and validation procedures.
#
#######################################################################

data_EBUXAC
_symmetry_cell_setting           triclinic
_symmetry_space_group_name_H-M   'P -1'
_symmetry_Int_Tables_number      2
_space_group_name_Hall           '-P 1'
loop_
_symmetry_equiv_pos_site_id
_symmetry_equiv_pos_as_xyz
1 x,y,z
2 -x,-y,-z
_cell_length_a                   10.518(2)
_cell_length_b                   13.249(2)
_cell_length_c                   13.926(3)
_cell_angle_alpha                83.357(3)
_cell_angle_beta                 82.318(3)
_cell_angle_gamma                70.574(3)
_cell_volume                     1808.45
loop_
_atom_site_label
_atom_site_type_symbol
_atom_site_fract_x
_atom_site_fract_y
_atom_site_fract_z
Ag1 Ag 0.10799(3) 1.04415(2) -0.105045(19)
N1 N 0.1157(3) 0.9450(2) 0.1113(2)
N2 N 0.1721(3) 1.0129(2) 0.04836(19)
N3 N 0.2228(3) 1.0932(2) 0.7562(2)
N4 N -0.2208(4) 0.6080(3) -0.1975(3)
O1 O 0.2634(2) 0.98401(18) 0.18535(15)
O2 O 0.0720(3) 0.75558(18) 0.20841(17)
O3 O 0.3935(2) 1.11386(19) 0.21673(16)
O4 O 0.1582(3) 0.8513(2) -0.15010(18)
O5 O 0.2113(3) 0.8845(2) -0.32208(18)
O6 O 0.0129(3) 0.8335(2) -0.2627(2)
S1 S 0.14508(10) 0.83166(7) -0.24687(7)
C1 C 0.1728(3) 0.9297(3) 0.1917(2)
C2 C 0.1530(4) 0.8689(3) 0.2836(2)
C3 C 0.1867(4) 0.8994(3) 0.3667(3)
H1 H 0.2212 0.9563 0.3614
C4 C 0.1702(4) 0.8472(3) 0.4561(3)
H2 H 0.1911 0.8693 0.5113
C5 C 0.1225(4) 0.7620(3) 0.4627(3)
H3 H 0.1119 0.7258 0.5230
C6 C 0.0901(4) 0.7291(3) 0.3821(3)
H4 H 0.0585 0.6706 0.3882
C7 C 0.1040(4) 0.7823(3) 0.2919(3)
C8 C 0.0167(4) 0.6691(3) 0.2187(3)
H5 H -0.0567 0.6814 0.2707
H6 H 0.0861 0.6023 0.2357
C9 C -0.0351(4) 0.6608(3) 0.1261(3)
C10 C -0.0032(4) 0.7109(3) 0.0377(3)
H7 H 0.0532 0.7527 0.0341
C11 C -0.0544(4) 0.6994(3) -0.0450(3)
H8 H -0.0340 0.7348 -0.1037
C12 C -0.1355(4) 0.6360(3) -0.0411(3)
C13 C -0.1846(4) 0.6206(3) -0.1283(3)
C14 C -0.1677(4) 0.5843(3) 0.0474(3)
H9 H -0.2220 0.5408 0.0506
C15 C -0.1186(4) 0.5983(3) 0.1291(3)
H10 H -0.1417 0.5651 0.1882
C16 C 0.2584(3) 1.0336(3) 0.0948(2)
C17 C 0.3484(3) 1.0952(3) 0.0588(2)
C18 C 0.3698(3) 1.1168(3) -0.0416(2)
H11 H 0.3238 1.0933 -0.0822
C19 C 0.4555(4) 1.1710(3) -0.0818(3)
H12 H 0.4661 1.1861 -0.1487
C20 C 0.5267(4) 1.2035(3) -0.0220(3)
H13 H 0.5873 1.2390 -0.0492
C21 C 0.5096(4) 1.1842(3) 0.0772(3)
H14 H 0.5589 1.2062 0.1164
C22 C 0.4189(3) 1.1320(3) 0.1190(2)
C23 C 0.4535(4) 1.1625(3) 0.2770(2)
H15 H 0.4315 1.2387 0.2580
H16 H 0.5513 1.1303 0.2694
C24 C 0.3998(4) 1.1458(3) 0.3814(2)
C25 C 0.4782(4) 1.1474(3) 0.4537(3)
H17 H 0.5622 1.1569 0.4362
C26 C 0.4343(4) 1.1351(3) 0.5508(3)
H18 H 0.4870 1.1374 0.5985
C27 C 0.3090(4) 1.1192(3) 0.5760(3)
C28 C 0.2302(4) 1.1172(3) 0.5047(3)
H19 H 0.1474 1.1054 0.5219
C29 C 0.2752(4) 1.1328(3) 0.4072(2)
H20 H 0.2207 1.1344 0.3593
C30 C 0.2616(4) 1.1042(3) 0.6771(3)
C31 C 0.2475(4) 0.6911(3) -0.2523(3)
F1 F 0.3743(2) 0.67549(19) -0.2359(2)
F2 F 0.2547(3) 0.6567(2) -0.33896(19)
F3 F 0.2037(3) 0.62650(19) -0.1880(2)
Ag1A Ag -0.10799(3) 0.95585(2) 0.105045(19)
Ag1_2 Ag 0.10799(3) 1.04415(2) 0.894955(19)
Ag1A_2 Ag -0.10799(3) 0.95585(2) -0.894955(19)
N1A N -0.1157(3) 1.0550(2) -0.1113(2)
N2A N -0.1721(3) 0.9871(2) -0.04836(19)
N3A N -0.2228(3) 0.9068(2) -0.7562(2)
N3_2 N 0.2228(3) 1.0932(2) -0.2438(2)
N3A_2 N -0.2228(3) 0.9068(2) 0.2438(2)
N4A N 0.2208(4) 1.3920(3) 0.1975(3)
O1A O -0.2634(2) 1.01599(18) -0.18535(15)
O2A O -0.0720(3) 1.24442(18) -0.20841(17)
O3A O -0.3935(2) 0.88614(19) -0.21673(16)
O4A O -0.1582(3) 1.1487(2) 0.15010(18)
O5A O -0.2113(3) 1.1155(2) 0.32208(18)
O6A O -0.0129(3) 1.1665(2) 0.2627(2)
S1A S -0.14508(10) 1.16834(7) 0.24687(7)
C1A C -0.1728(3) 1.0703(3) -0.1917(2)
C2A C -0.1530(4) 1.1311(3) -0.2836(2)
C3A C -0.1867(4) 1.1006(3) -0.3667(3)
H1A H -0.2212 1.0437 -0.3614
C4A C -0.1702(4) 1.1528(3) -0.4561(3)
H2A H -0.1911 1.1307 -0.5113
C5A C -0.1225(4) 1.2380(3) -0.4627(3)
H3A H -0.1119 1.2742 -0.5230
C6A C -0.0901(4) 1.2709(3) -0.3821(3)
H4A H -0.0585 1.3294 -0.3882
C7A C -0.1040(4) 1.2177(3) -0.2919(3)
C8A C -0.0167(4) 1.3309(3) -0.2187(3)
H5A H 0.0567 1.3186 -0.2707
H6A H -0.0861 1.3977 -0.2357
C9A C 0.0351(4) 1.3392(3) -0.1261(3)
C10A C 0.0032(4) 1.2891(3) -0.0377(3)
H7A H -0.0532 1.2473 -0.0341
C11A C 0.0544(4) 1.3006(3) 0.0450(3)
H8A H 0.0340 1.2652 0.1037
C12A C 0.1355(4) 1.3640(3) 0.0411(3)
C13A C 0.1846(4) 1.3794(3) 0.1283(3)
C14A C 0.1677(4) 1.4157(3) -0.0474(3)
H9A H 0.2220 1.4592 -0.0506
C15A C 0.1186(4) 1.4017(3) -0.1291(3)
H10A H 0.1417 1.4349 -0.1882
C16A C -0.2584(3) 0.9664(3) -0.0948(2)
C17A C -0.3484(3) 0.9048(3) -0.0588(2)
C18A C -0.3698(3) 0.8832(3) 0.0416(2)
H11A H -0.3238 0.9067 0.0822
C19A C -0.4555(4) 0.8290(3) 0.0818(3)
H12A H -0.4661 0.8139 0.1487
C20A C -0.5267(4) 0.7965(3) 0.0220(3)
H13A H -0.5873 0.7610 0.0492
C21A C -0.5096(4) 0.8158(3) -0.0772(3)
H14A H -0.5589 0.7938 -0.1164
C22A C -0.4189(3) 0.8680(3) -0.1190(2)
C23A C -0.4535(4) 0.8375(3) -0.2770(2)
H15A H -0.4315 0.7613 -0.2580
H16A H -0.5513 0.8697 -0.2694
C24A C -0.3998(4) 0.8542(3) -0.3814(2)
C25A C -0.4782(4) 0.8526(3) -0.4537(3)
H17A H -0.5622 0.8431 -0.4362
C26A C -0.4343(4) 0.8649(3) -0.5508(3)
H18A H -0.4870 0.8626 -0.5985
C27A C -0.3090(4) 0.8808(3) -0.5760(3)
C28A C -0.2302(4) 0.8828(3) -0.5047(3)
H19A H -0.1474 0.8946 -0.5219
C29A C -0.2752(4) 0.8672(3) -0.4072(2)
H20A H -0.2207 0.8656 -0.3593
C30A C -0.2616(4) 0.8958(3) -0.6771(3)
C31A C -0.2475(4) 1.3089(3) 0.2523(3)
F1A F -0.3743(2) 1.32451(19) 0.2359(2)
F2A F -0.2547(3) 1.3433(2) 0.33896(19)
F3A F -0.2037(3) 1.37350(19) 0.1880(2)
C32 C 0.8760(7) 0.5693(4) 0.5286(5)
H21 H 0.7917 0.6167 0.5489
C33 C 0.9833(9) 0.5531(5) 0.5798(4)
H22 H 0.9709 0.5902 0.6349
C34 C 1.1080(7) 0.4844(5) 0.5531(5)
H23 H 1.1804 0.4740 0.5890
C32A C 1.1240(7) 0.4307(4) 0.4714(5)
H21A H 1.2083 0.3833 0.4511
C33A C 1.0167(9) 0.4469(5) 0.4202(4)
H22A H 1.0291 0.4098 0.3651
C34A C 0.8920(7) 0.5156(5) 0.4469(5)
H23A H 0.8196 0.5260 0.4110
loop_
_geom_bond_atom_site_label_1
_geom_bond_atom_site_label_2
_geom_bond_site_symmetry_1
_geom_bond_site_symmetry_2
Ag1 N2 1_555 1_555
N1 N2 1_555 1_555
N2 C16 1_555 1_555
N3 C30 1_555 1_555
N4 C13 1_555 1_555
O1 C1 1_555 1_555
O2 C7 1_555 1_555
O3 C22 1_555 1_555
O4 Ag1 1_555 1_555
O5 S1 1_555 1_555
O6 S1 1_555 1_555
S1 O4 1_555 1_555
C1 N1 1_555 1_555
C2 C1 1_555 1_555
C3 C2 1_555 1_555
H1 C3 1_555 1_555
C4 C3 1_555 1_555
H2 C4 1_555 1_555
C5 C4 1_555 1_555
H3 C5 1_555 1_555
C6 C5 1_555 1_555
H4 C6 1_555 1_555
C7 C2 1_555 1_555
C8 O2 1_555 1_555
H5 C8 1_555 1_555
H6 C8 1_555 1_555
C9 C8 1_555 1_555
C10 C9 1_555 1_555
H7 C10 1_555 1_555
C11 C10 1_555 1_555
H8 C11 1_555 1_555
C12 C11 1_555 1_555
C13 C12 1_555 1_555
C14 C12 1_555 1_555
H9 C14 1_555 1_555
C15 C9 1_555 1_555
H10 C15 1_555 1_555
C16 O1 1_555 1_555
C17 C16 1_555 1_555
C18 C17 1_555 1_555
H11 C18 1_555 1_555
C19 C18 1_555 1_555
H12 C19 1_555 1_555
C20 C19 1_555 1_555
H13 C20 1_555 1_555
C21 C20 1_555 1_555
H14 C21 1_555 1_555
C22 C17 1_555 1_555
C23 O3 1_555 1_555
H15 C23 1_555 1_555
H16 C23 1_555 1_555
C24 C23 1_555 1_555
C25 C24 1_555 1_555
H17 C25 1_555 1_555
C26 C25 1_555 1_555
H18 C26 1_555 1_555
C27 C26 1_555 1_555
C28 C27 1_555 1_555
H19 C28 1_555 1_555
C29 C24 1_555 1_555
H20 C29 1_555 1_555
C30 C27 1_555 1_555
C31 S1 1_555 1_555
C32 H21 1_555 1_555
C33 C32 1_555 1_555
H22 C33 1_555 1_555
C34 C33 1_555 1_555
H23 C34 1_555 1_555
F1 C31 1_555 1_555
F2 C31 1_555 1_555
F3 C31 1_555 1_555
Ag1A N1 1_555 1_555
Ag1_2 N3 1_555 1_555
Ag1A_2 N3A 1_555 1_555
N1A Ag1 1_555 1_555
N2A Ag1A 1_555 1_555
N3A C30A 1_555 1_555
N3_2 Ag1 1_555 1_555
N3A_2 Ag1A 1_555 1_555
N4A C13A 1_555 1_555
O1A C1A 1_555 1_555
O2A C7A 1_555 1_555
O3A C22A 1_555 1_555
O4A Ag1A 1_555 1_555
O5A S1A 1_555 1_555
O6A S1A 1_555 1_555
S1A O4A 1_555 1_555
C1A N1A 1_555 1_555
C2A C1A 1_555 1_555
C3A C2A 1_555 1_555
H1A C3A 1_555 1_555
C4A C3A 1_555 1_555
H2A C4A 1_555 1_555
C5A C4A 1_555 1_555
H3A C5A 1_555 1_555
C6A C5A 1_555 1_555
H4A C6A 1_555 1_555
C7A C2A 1_555 1_555
C8A O2A 1_555 1_555
H5A C8A 1_555 1_555
H6A C8A 1_555 1_555
C9A C8A 1_555 1_555
C10A C9A 1_555 1_555
H7A C10A 1_555 1_555
C11A C10A 1_555 1_555
H8A C11A 1_555 1_555
C12A C11A 1_555 1_555
C13A C12A 1_555 1_555
C14A C12A 1_555 1_555
H9A C14A 1_555 1_555
C15A C9A 1_555 1_555
H10A C15A 1_555 1_555
C16A N2A 1_555 1_555
C17A C16A 1_555 1_555
C18A C17A 1_555 1_555
H11A C18A 1_555 1_555
C19A C18A 1_555 1_555
H12A C19A 1_555 1_555
C20A C19A 1_555 1_555
H13A C20A 1_555 1_555
C21A C20A 1_555 1_555
H14A C21A 1_555 1_555
C22A C17A 1_555 1_555
C23A O3A 1_555 1_555
H15A C23A 1_555 1_555
H16A C23A 1_555 1_555
C24A C23A 1_555 1_555
C25A C24A 1_555 1_555
H17A C25A 1_555 1_555
C26A C25A 1_555 1_555
H18A C26A 1_555 1_555
C27A C26A 1_555 1_555
C28A C27A 1_555 1_555
H19A C28A 1_555 1_555
C29A C24A 1_555 1_555
H20A C29A 1_555 1_555
C30A C27A 1_555 1_555
C31A S1A 1_555 1_555
C32A C34 1_555 1_555
H21A C32A 1_555 1_555
C33A C32A 1_555 1_555
H22A C33A 1_555 1_555
C34A C32 1_555 1_555
H23A C34A 1_555 1_555
F1A C31A 1_555 1_555
F2A C31A 1_555 1_555
F3A C31A 1_555 1_555
C6 C7 1_555 1_555
C14 C15 1_555 1_555
C21 C22 1_555 1_555
C28 C29 1_555 1_555
N1A N2A 1_555 1_555
O1A C16A 1_555 1_555
C6A C7A 1_555 1_555
C14A C15A 1_555 1_555
C21A C22A 1_555 1_555
C28A C29A 1_555 1_555
C33A C34A 1_555 1_555

#END
