
#######################################################################
#
#                 Cambridge Crystallographic Data Centre
#                                CCDC 
#
#######################################################################
#
# If this CIF has been generated from an entry in the Cambridge 
# Structural Database, then it will include bibliographic, chemical, 
# crystal, experimental, refinement or atomic coordinate data resulting 
# from the CCDC's data processing and validation procedures.
#
#######################################################################

data_EBUXUW
_symmetry_cell_setting           monoclinic
_symmetry_space_group_name_H-M   'C 2/m'
_symmetry_Int_Tables_number      12
_space_group_name_Hall           '-C 2y'
loop_
_symmetry_equiv_pos_site_id
_symmetry_equiv_pos_as_xyz
1 x,y,z
2 -x,y,-z
3 1/2+x,1/2+y,z
4 1/2-x,1/2+y,-z
5 -x,-y,-z
6 x,-y,z
7 1/2-x,1/2-y,-z
8 1/2+x,1/2-y,z
_cell_length_a                   24.406(4)
_cell_length_b                   18.749(3)
_cell_length_c                   8.3657(12)
_cell_angle_alpha                90
_cell_angle_beta                 90.991(2)
_cell_angle_gamma                90
_cell_volume                     3827.47
loop_
_atom_site_label
_atom_site_type_symbol
_atom_site_fract_x
_atom_site_fract_y
_atom_site_fract_z
Ag1 Ag 0.5000 0.09557(3) 0.0000
C1 C 0.36944(16) 0.0571(3) 0.0520(5)
C2 C 0.34779(17) 0.1290(3) 0.0698(5)
C3 C 0.37166(18) 0.1846(3) -0.0136(6)
H1 H 0.4006 0.1760 -0.0818
C4 C 0.35182(19) 0.2528(3) 0.0062(6)
H2 H 0.3676 0.2904 -0.0490
C5 C 0.30877(19) 0.2659(3) 0.1071(6)
H3 H 0.2958 0.3122 0.1203
C6 C 0.28506(17) 0.2099(3) 0.1885(5)
C7 C 0.30371(17) 0.1419(3) 0.1704(5)
H4 H 0.2873 0.1045 0.2245
C8 C 0.2133(2) 0.1741(3) 0.3600(6)
H5 H 0.2371 0.1501 0.4371
H6 H 0.2009 0.1392 0.2817
C9 C 0.16484(19) 0.2059(3) 0.4433(6)
C10 C 0.1328(2) 0.1624(3) 0.5376(7)
H7 H 0.1405 0.1139 0.5444
C11 C 0.0894(2) 0.1900(3) 0.6216(7)
H8 H 0.0684 0.1606 0.6858
C12 C 0.07750(19) 0.2629(3) 0.6090(6)
C13 C 0.1088(2) 0.3057(3) 0.5138(6)
H9 H 0.1007 0.3541 0.5051
C14 C 0.1524(2) 0.2776(3) 0.4305(6)
H10 H 0.1733 0.3070 0.3660
C15 C 0.0352(2) 0.2946(3) 0.7042(6)
N1 N 0.41806(14) 0.0375(2) 0.0105(4)
N2 N 0.00330(18) 0.3207(3) 0.7839(6)
O1 O 0.33684(16) 0.0000 0.0823(5)
O2 O 0.24225(13) 0.22892(19) 0.2838(4)
Ag1D Ag 0.5000 -0.09557(3) 0.0000
Ag1B Ag 0.0000 -0.40443(3) 1.0000
Ag1B_2 Ag 1.0000 -0.40443(3) -1.0000
Ag1F Ag 0.0000 0.40443(3) 1.0000
Ag1F_2 Ag 1.0000 0.40443(3) -1.0000
C1E C 0.36944(16) -0.0571(3) 0.0520(5)
C1A C 0.63056(16) 0.0571(3) -0.0520(5)
C1D C 0.63056(16) -0.0571(3) -0.0520(5)
C2E C 0.34779(17) -0.1290(3) 0.0698(5)
C2A C 0.65221(17) 0.1290(3) -0.0698(5)
C2D C 0.65221(17) -0.1290(3) -0.0698(5)
C3E C 0.37166(18) -0.1846(3) -0.0136(6)
C3A C 0.62834(18) 0.1846(3) 0.0136(6)
C3D C 0.62834(18) -0.1846(3) 0.0136(6)
H1E H 0.4006 -0.1760 -0.0818
H1A H 0.5994 0.1760 0.0818
H1D H 0.5994 -0.1760 0.0818
C4E C 0.35182(19) -0.2528(3) 0.0062(6)
C4A C 0.64818(19) 0.2528(3) -0.0062(6)
C4D C 0.64818(19) -0.2528(3) -0.0062(6)
H2E H 0.3676 -0.2904 -0.0490
H2A H 0.6324 0.2904 0.0490
H2D H 0.6324 -0.2904 0.0490
C5E C 0.30877(19) -0.2659(3) 0.1071(6)
C5A C 0.69123(19) 0.2659(3) -0.1071(6)
C5D C 0.69123(19) -0.2659(3) -0.1071(6)
H3E H 0.2958 -0.3122 0.1203
H3A H 0.7042 0.3122 -0.1203
H3D H 0.7042 -0.3122 -0.1203
C6E C 0.28506(17) -0.2099(3) 0.1885(5)
C6A C 0.71494(17) 0.2099(3) -0.1885(5)
C6D C 0.71494(17) -0.2099(3) -0.1885(5)
C7E C 0.30371(17) -0.1419(3) 0.1704(5)
C7A C 0.69629(17) 0.1419(3) -0.1704(5)
C7D C 0.69629(17) -0.1419(3) -0.1704(5)
H4E H 0.2873 -0.1045 0.2245
H4A H 0.7127 0.1045 -0.2245
H4D H 0.7127 -0.1045 -0.2245
C8E C 0.2133(2) -0.1741(3) 0.3600(6)
C8A C 0.7867(2) 0.1741(3) -0.3600(6)
C8D C 0.7867(2) -0.1741(3) -0.3600(6)
H5E H 0.2371 -0.1501 0.4371
H5A H 0.7629 0.1501 -0.4371
H5D H 0.7629 -0.1501 -0.4371
H6E H 0.2009 -0.1392 0.2817
H6A H 0.7991 0.1392 -0.2817
H6D H 0.7991 -0.1392 -0.2817
C9E C 0.16484(19) -0.2059(3) 0.4433(6)
C9A C 0.83516(19) 0.2059(3) -0.4433(6)
C9D C 0.83516(19) -0.2059(3) -0.4433(6)
C10E C 0.1328(2) -0.1624(3) 0.5376(7)
C10A C 0.8672(2) 0.1624(3) -0.5376(7)
C10D C 0.8672(2) -0.1624(3) -0.5376(7)
H7E H 0.1405 -0.1139 0.5444
H7A H 0.8595 0.1139 -0.5444
H7D H 0.8595 -0.1139 -0.5444
C11E C 0.0894(2) -0.1900(3) 0.6216(7)
C11A C 0.9106(2) 0.1900(3) -0.6216(7)
C11D C 0.9106(2) -0.1900(3) -0.6216(7)
H8E H 0.0684 -0.1606 0.6858
H8A H 0.9316 0.1606 -0.6858
H8D H 0.9316 -0.1606 -0.6858
C12E C 0.07750(19) -0.2629(3) 0.6090(6)
C12A C 0.92250(19) 0.2629(3) -0.6090(6)
C12D C 0.92250(19) -0.2629(3) -0.6090(6)
C13E C 0.1088(2) -0.3057(3) 0.5138(6)
C13A C 0.8912(2) 0.3057(3) -0.5138(6)
C13D C 0.8912(2) -0.3057(3) -0.5138(6)
H9E H 0.1007 -0.3541 0.5051
H9A H 0.8993 0.3541 -0.5051
H9D H 0.8993 -0.3541 -0.5051
C14E C 0.1524(2) -0.2776(3) 0.4305(6)
C14A C 0.8476(2) 0.2776(3) -0.4305(6)
C14D C 0.8476(2) -0.2776(3) -0.4305(6)
H10E H 0.1733 -0.3070 0.3660
H10A H 0.8267 0.3070 -0.3660
H10D H 0.8267 -0.3070 -0.3660
C15E C 0.0352(2) -0.2946(3) 0.7042(6)
C15A C 0.9648(2) 0.2946(3) -0.7042(6)
C15D C 0.9648(2) -0.2946(3) -0.7042(6)
N1E N 0.41806(14) -0.0375(2) 0.0105(4)
N1A N 0.58194(14) 0.0375(2) -0.0105(4)
N1D N 0.58194(14) -0.0375(2) -0.0105(4)
N2E N 0.00330(18) -0.3207(3) 0.7839(6)
N2A N 0.99670(18) 0.3207(3) -0.7839(6)
N2D N 0.99670(18) -0.3207(3) -0.7839(6)
N2B N 0.50330(18) -0.1793(3) -0.2161(6)
N2C N 0.49670(18) -0.1793(3) 0.2161(6)
N2F N 0.49670(18) 0.1793(3) 0.2161(6)
N2G N 0.50330(18) 0.1793(3) -0.2161(6)
O1A O 0.66316(16) 0.0000 -0.0823(5)
O2E O 0.24225(13) -0.22892(19) 0.2838(4)
O2A O 0.75775(13) 0.22892(19) -0.2838(4)
O2D O 0.75775(13) -0.22892(19) -0.2838(4)
C16 C 0.4999(4) 0.0000 0.3330(9)
H11 H 0.4996 0.0000 0.2218
C17 C 0.4523(3) 0.0000 0.4160(11)
H12 H 0.4191 0.0000 0.3600
C18 C 0.4521(3) 0.0000 0.5817(13)
H13 H 0.4190 0.0000 0.6349
C16A C 0.5001(4) 0.0000 0.6670(9)
H11A H 0.5004 0.0000 0.7782
C17A C 0.5477(3) 0.0000 0.5840(11)
H12A H 0.5809 0.0000 0.6400
C18A C 0.5479(3) 0.0000 0.4183(13)
H13A H 0.5810 0.0000 0.3651
F1 F 0.1847(2) 0.4411(2) 0.4834(6)
F2 F 0.2623(3) 0.5000 0.5146(14)
F3 F 0.2469(3) 0.4396(3) 0.2994(9)
F4 F 0.1701(4) 0.5000 0.2603(8)
P1 P 0.21552(10) 0.5000 0.3861(3)
F1E F 0.1847(2) 0.5589(2) 0.4834(6)
F3E F 0.2469(3) 0.5604(3) 0.2994(9)
loop_
_geom_bond_atom_site_label_1
_geom_bond_atom_site_label_2
_geom_bond_site_symmetry_1
_geom_bond_site_symmetry_2
Ag1 N1 1_555 1_555
C1 C2 1_555 1_555
C2 C3 1_555 1_555
C3 H1 1_555 1_555
C4 C3 1_555 1_555
H2 C4 1_555 1_555
C5 C4 1_555 1_555
H3 C5 1_555 1_555
C6 C5 1_555 1_555
C7 C2 1_555 1_555
H4 C7 1_555 1_555
C8 H5 1_555 1_555
H6 C8 1_555 1_555
C9 C8 1_555 1_555
C10 C9 1_555 1_555
H7 C10 1_555 1_555
C11 C10 1_555 1_555
H8 C11 1_555 1_555
C12 C11 1_555 1_555
C13 C12 1_555 1_555
H9 C13 1_555 1_555
C14 C9 1_555 1_555
H10 C14 1_555 1_555
C15 C12 1_555 1_555
C16 H11 1_555 1_555
C17 C16 1_555 1_555
H12 C17 1_555 1_555
C18 C17 1_555 1_555
H13 C18 1_555 1_555
F1 P1 1_555 1_555
F2 P1 1_555 1_555
F3 P1 1_555 1_555
F4 P1 1_555 1_555
N1 C1 1_555 1_555
N2 C15 1_555 1_555
O1 C1 1_555 1_555
O2 C6 1_555 1_555
P1 F1E 1_555 1_555
Ag1D N1E 1_555 1_555
Ag1B N2E 1_555 1_555
Ag1B_2 N2D 1_555 1_555
Ag1F N2 1_555 1_555
Ag1F_2 N2A 1_555 1_555
C1E O1 1_555 1_555
C1A C2A 1_555 1_555
C1D C2D 1_555 1_555
C2E C1E 1_555 1_555
C2A C3A 1_555 1_555
C2D C3D 1_555 1_555
C3E C2E 1_555 1_555
C3A H1A 1_555 1_555
C3D H1D 1_555 1_555
H1E C3E 1_555 1_555
C4E C3E 1_555 1_555
C4A C3A 1_555 1_555
C4D C3D 1_555 1_555
H2E C4E 1_555 1_555
H2A C4A 1_555 1_555
H2D C4D 1_555 1_555
C5E C4E 1_555 1_555
C5A C4A 1_555 1_555
C5D C4D 1_555 1_555
H3E C5E 1_555 1_555
H3A C5A 1_555 1_555
H3D C5D 1_555 1_555
C6E C5E 1_555 1_555
C6A C5A 1_555 1_555
C6D C5D 1_555 1_555
C7E C2E 1_555 1_555
C7A C2A 1_555 1_555
C7D C2D 1_555 1_555
H4E C7E 1_555 1_555
H4A C7A 1_555 1_555
H4D C7D 1_555 1_555
C8E H5E 1_555 1_555
C8A H5A 1_555 1_555
C8D H5D 1_555 1_555
H6E C8E 1_555 1_555
H6A C8A 1_555 1_555
H6D C8D 1_555 1_555
C9E C8E 1_555 1_555
C9A C8A 1_555 1_555
C9D C8D 1_555 1_555
C10E C9E 1_555 1_555
C10A C9A 1_555 1_555
C10D C9D 1_555 1_555
H7E C10E 1_555 1_555
H7A C10A 1_555 1_555
H7D C10D 1_555 1_555
C11E C10E 1_555 1_555
C11A C10A 1_555 1_555
C11D C10D 1_555 1_555
H8E C11E 1_555 1_555
H8A C11A 1_555 1_555
H8D C11D 1_555 1_555
C12E C11E 1_555 1_555
C12A C11A 1_555 1_555
C12D C11D 1_555 1_555
C13E C12E 1_555 1_555
C13A C12A 1_555 1_555
C13D C12D 1_555 1_555
H9E C13E 1_555 1_555
H9A C13A 1_555 1_555
H9D C13D 1_555 1_555
C14E C9E 1_555 1_555
C14A C9A 1_555 1_555
C14D C9D 1_555 1_555
H10E C14E 1_555 1_555
H10A C14A 1_555 1_555
H10D C14D 1_555 1_555
C15E C12E 1_555 1_555
C15A C12A 1_555 1_555
C15D C12D 1_555 1_555
C16A C18 1_555 1_555
H11A C16A 1_555 1_555
C17A C16A 1_555 1_555
H12A C17A 1_555 1_555
C18A C16 1_555 1_555
H13A C18A 1_555 1_555
F3E P1 1_555 1_555
N1E N1 1_555 1_555
N1A Ag1 1_555 1_555
N1D Ag1D 1_555 1_555
N2E C15E 1_555 1_555
N2A C15A 1_555 1_555
N2D C15D 1_555 1_555
N2B Ag1D 1_555 1_555
N2C Ag1D 1_555 1_555
N2F Ag1 1_555 1_555
N2G Ag1 1_555 1_555
O1A C1A 1_555 1_555
O2E C6E 1_555 1_555
O2A C6A 1_555 1_555
O2D C6D 1_555 1_555
C6 C7 1_555 1_555
C8 O2 1_555 1_555
C13 C14 1_555 1_555
C1E N1E 1_555 1_555
C1A N1A 1_555 1_555
C1D N1D 1_555 1_555
C1D O1A 1_555 1_555
C6E C7E 1_555 1_555
C6A C7A 1_555 1_555
C6D C7D 1_555 1_555
C8E O2E 1_555 1_555
C8A O2A 1_555 1_555
C8D O2D 1_555 1_555
C13E C14E 1_555 1_555
C13A C14A 1_555 1_555
C13D C14D 1_555 1_555
C17A C18A 1_555 1_555
N1A N1D 1_555 1_555

#END
