
#######################################################################
#
#                 Cambridge Crystallographic Data Centre
#                                CCDC 
#
#######################################################################
#
# If this CIF has been generated from an entry in the Cambridge 
# Structural Database, then it will include bibliographic, chemical, 
# crystal, experimental, refinement or atomic coordinate data resulting 
# from the CCDC's data processing and validation procedures.
#
#######################################################################

data_EBUXOQ
_symmetry_cell_setting           monoclinic
_symmetry_space_group_name_H-M   'C 2/m'
_symmetry_Int_Tables_number      12
_space_group_name_Hall           '-C 2y'
loop_
_symmetry_equiv_pos_site_id
_symmetry_equiv_pos_as_xyz
1 x,y,z
2 -x,y,-z
3 1/2+x,1/2+y,z
4 1/2-x,1/2+y,-z
5 -x,-y,-z
6 x,-y,z
7 1/2-x,1/2-y,-z
8 1/2+x,1/2-y,z
_cell_length_a                   23.985(3)
_cell_length_b                   19.144(3)
_cell_length_c                   8.5795(13)
_cell_angle_alpha                90
_cell_angle_beta                 90.577(3)
_cell_angle_gamma                90
_cell_volume                     3939.24
loop_
_atom_site_label
_atom_site_type_symbol
_atom_site_fract_x
_atom_site_fract_y
_atom_site_fract_z
Ag1 Ag 0.5000 0.40636(3) 0.5000
N1 N 0.41723(17) 0.4635(2) 0.5206(5)
N2 N 0.0015(2) 0.1749(4) 1.2883(8)
C1 C 0.3679(2) 0.4437(3) 0.5623(6)
C2 C 0.3459(2) 0.3733(3) 0.5768(6)
C3 C 0.3700(2) 0.3196(3) 0.4921(7)
H1 H 0.3991 0.3289 0.4243
C4 C 0.3504(3) 0.2528(3) 0.5097(8)
H2 H 0.3664 0.2166 0.4532
C5 C 0.3075(3) 0.2386(3) 0.6096(8)
H3 H 0.2952 0.1929 0.6222
C6 C 0.2826(2) 0.2923(3) 0.6918(7)
C7 C 0.3016(2) 0.3601(3) 0.6777(6)
H4 H 0.2853 0.3961 0.7339
C8 C 0.2102(3) 0.3254(3) 0.8645(8)
H5 H 0.1969 0.3604 0.7913
H6 H 0.2346 0.3480 0.9397
C9 C 0.1614(3) 0.2923(4) 0.9472(8)
C10 C 0.1495(3) 0.2226(4) 0.9324(8)
H7 H 0.1704 0.1949 0.8660
C11 C 0.1065(3) 0.1933(4) 1.0156(8)
H8 H 0.0987 0.1459 1.0054
C12 C 0.0749(3) 0.2342(4) 1.1142(8)
C13 C 0.0860(3) 0.3057(4) 1.1270(10)
H9 H 0.0643 0.3339 1.1906
C14 C 0.1295(3) 0.3338(4) 1.0440(10)
H10 H 0.1375 0.3812 1.0532
C15 C 0.0329(3) 0.2022(4) 1.2100(9)
O1 O 0.3346(2) 0.5000 0.5933(6)
O2 O 0.23965(18) 0.2726(2) 0.7842(5)
Ag1D Ag 0.5000 0.59364(3) 0.5000
Ag1F Ag 0.0000 0.09364(3) 1.5000
Ag1B Ag 0.0000 0.90636(3) 1.5000
Ag1F_2 Ag 1.0000 0.09364(3) -0.5000
Ag1B_2 Ag 1.0000 0.90636(3) -0.5000
N1E N 0.41723(17) 0.5365(2) 0.5206(5)
N1A N 0.58277(17) 0.4635(2) 0.4794(5)
N1D N 0.58277(17) 0.5365(2) 0.4794(5)
N2E N 0.0015(2) 0.8251(4) 1.2883(8)
N2A N 0.9985(2) 0.1749(4) -0.2883(8)
N2D N 0.9985(2) 0.8251(4) -0.2883(8)
N2G N 0.5015(2) 0.3251(4) 0.2883(8)
N2F N 0.4985(2) 0.3251(4) 0.7117(8)
N2B N 0.5015(2) 0.6749(4) 0.2883(8)
N2C N 0.4985(2) 0.6749(4) 0.7117(8)
C1E C 0.3679(2) 0.5563(3) 0.5623(6)
C1A C 0.6321(2) 0.4437(3) 0.4377(6)
C1D C 0.6321(2) 0.5563(3) 0.4377(6)
C2E C 0.3459(2) 0.6267(3) 0.5768(6)
C2A C 0.6541(2) 0.3733(3) 0.4232(6)
C2D C 0.6541(2) 0.6267(3) 0.4232(6)
C3E C 0.3700(2) 0.6804(3) 0.4921(7)
C3A C 0.6300(2) 0.3196(3) 0.5079(7)
C3D C 0.6300(2) 0.6804(3) 0.5079(7)
H1E H 0.3991 0.6711 0.4243
H1A H 0.6009 0.3289 0.5757
H1D H 0.6009 0.6711 0.5757
C4E C 0.3504(3) 0.7472(3) 0.5097(8)
C4A C 0.6496(3) 0.2528(3) 0.4903(8)
C4D C 0.6496(3) 0.7472(3) 0.4903(8)
H2E H 0.3664 0.7834 0.4532
H2A H 0.6336 0.2166 0.5468
H2D H 0.6336 0.7834 0.5468
C5E C 0.3075(3) 0.7614(3) 0.6096(8)
C5A C 0.6925(3) 0.2386(3) 0.3904(8)
C5D C 0.6925(3) 0.7614(3) 0.3904(8)
H3E H 0.2952 0.8071 0.6222
H3A H 0.7048 0.1929 0.3778
H3D H 0.7048 0.8071 0.3778
C6E C 0.2826(2) 0.7077(3) 0.6918(7)
C6A C 0.7174(2) 0.2923(3) 0.3082(7)
C6D C 0.7174(2) 0.7077(3) 0.3082(7)
C7E C 0.3016(2) 0.6399(3) 0.6777(6)
C7A C 0.6984(2) 0.3601(3) 0.3223(6)
C7D C 0.6984(2) 0.6399(3) 0.3223(6)
H4E H 0.2853 0.6039 0.7339
H4A H 0.7147 0.3961 0.2661
H4D H 0.7147 0.6039 0.2661
C8E C 0.2102(3) 0.6746(3) 0.8645(8)
C8A C 0.7898(3) 0.3254(3) 0.1355(8)
C8D C 0.7898(3) 0.6746(3) 0.1355(8)
H5E H 0.1969 0.6396 0.7913
H5A H 0.8031 0.3604 0.2087
H5D H 0.8031 0.6396 0.2087
H6E H 0.2346 0.6520 0.9397
H6A H 0.7654 0.3480 0.0603
H6D H 0.7654 0.6520 0.0603
C9E C 0.1614(3) 0.7077(4) 0.9472(8)
C9A C 0.8386(3) 0.2923(4) 0.0528(8)
C9D C 0.8386(3) 0.7077(4) 0.0528(8)
C10E C 0.1495(3) 0.7774(4) 0.9324(8)
C10A C 0.8505(3) 0.2226(4) 0.0676(8)
C10D C 0.8505(3) 0.7774(4) 0.0676(8)
H7E H 0.1704 0.8051 0.8660
H7A H 0.8296 0.1949 0.1340
H7D H 0.8296 0.8051 0.1340
C11E C 0.1065(3) 0.8067(4) 1.0156(8)
C11A C 0.8935(3) 0.1933(4) -0.0156(8)
C11D C 0.8935(3) 0.8067(4) -0.0156(8)
H8E H 0.0987 0.8541 1.0054
H8A H 0.9013 0.1459 -0.0054
H8D H 0.9013 0.8541 -0.0054
C12E C 0.0749(3) 0.7658(4) 1.1142(8)
C12A C 0.9251(3) 0.2342(4) -0.1142(8)
C12D C 0.9251(3) 0.7658(4) -0.1142(8)
C13E C 0.0860(3) 0.6943(4) 1.1270(10)
C13A C 0.9140(3) 0.3057(4) -0.1270(10)
C13D C 0.9140(3) 0.6943(4) -0.1270(10)
H9E H 0.0643 0.6661 1.1906
H9A H 0.9357 0.3339 -0.1906
H9D H 0.9357 0.6661 -0.1906
C14E C 0.1295(3) 0.6662(4) 1.0440(10)
C14A C 0.8705(3) 0.3338(4) -0.0440(10)
C14D C 0.8705(3) 0.6662(4) -0.0440(10)
H10E H 0.1375 0.6188 1.0532
H10A H 0.8625 0.3812 -0.0532
H10D H 0.8625 0.6188 -0.0532
C15E C 0.0329(3) 0.7978(4) 1.2100(9)
C15A C 0.9671(3) 0.2022(4) -0.2100(9)
C15D C 0.9671(3) 0.7978(4) -0.2100(9)
O1A O 0.6654(2) 0.5000 0.4067(6)
O2E O 0.23965(18) 0.7274(2) 0.7842(5)
O2A O 0.76035(18) 0.2726(2) 0.2158(5)
O2D O 0.76035(18) 0.7274(2) 0.2158(5)
C16 C 0.4518(4) 0.5000 0.9176(14)
H11 H 0.4184 0.5000 0.8616
C17 C 0.5010(6) 0.5000 0.8400(8)
H12 H 0.5015 0.5000 0.7316
C18 C 0.4509(4) 0.5000 1.0776(15)
H13 H 0.4170 0.5000 1.1292
C16A C 0.5482(4) 0.5000 1.0824(14)
H11A H 0.5816 0.5000 1.1384
C17A C 0.4990(6) 0.5000 1.1600(8)
H12A H 0.4985 0.5000 1.2684
C18A C 0.5491(4) 0.5000 0.9224(15)
H13A H 0.5830 0.5000 0.8708
C19 C 0.3597(10) 0.0603(14) 0.432(3)
H14 H 0.3360 0.1009 0.4435
H15 H 0.3862 0.0678 0.3492
C20 C 0.3870(13) 0.0393(3) 0.581(3)
H16 H 0.3663 0.0571 0.6691
H17 H 0.4248 0.0571 0.5867
O3 O 0.3302(17) 0.0000 0.414(5)
C19E C 0.3597(10) -0.0603(14) 0.432(3)
H14E H 0.3360 -0.1009 0.4435
H15E H 0.3862 -0.0678 0.3492
C20E C 0.3870(13) -0.0393(3) 0.581(3)
H16E H 0.3663 -0.0571 0.6691
H17E H 0.4248 -0.0571 0.5867
Sb1 Sb 0.22485(4) 0.0000 0.86752(10)
F1 F 0.1658(6) 0.0000 0.7355(11)
F2 F 0.2844(6) 0.0000 1.003(3)
F3 F 0.2592(5) 0.0702(5) 0.7647(15)
F4 F 0.1890(3) 0.0667(4) 0.9851(10)
F3E F 0.2592(5) -0.0702(5) 0.7647(15)
F4E F 0.1890(3) -0.0667(4) 0.9851(10)
loop_
_geom_bond_atom_site_label_1
_geom_bond_atom_site_label_2
_geom_bond_site_symmetry_1
_geom_bond_site_symmetry_2
Ag1 N1 1_555 1_555
N1 C1 1_555 1_555
N2 C15 1_555 1_555
C1 C2 1_555 1_555
C2 C3 1_555 1_555
C3 H1 1_555 1_555
C4 C3 1_555 1_555
H2 C4 1_555 1_555
C5 C4 1_555 1_555
H3 C5 1_555 1_555
C6 C5 1_555 1_555
C7 C2 1_555 1_555
H4 C7 1_555 1_555
C8 H5 1_555 1_555
H6 C8 1_555 1_555
C9 C8 1_555 1_555
C10 C9 1_555 1_555
H7 C10 1_555 1_555
C11 C10 1_555 1_555
H8 C11 1_555 1_555
C12 C11 1_555 1_555
C13 C12 1_555 1_555
H9 C13 1_555 1_555
C14 C9 1_555 1_555
H10 C14 1_555 1_555
C15 C12 1_555 1_555
C16 H11 1_555 1_555
C17 C16 1_555 1_555
H12 C17 1_555 1_555
C18 C16 1_555 1_555
H13 C18 1_555 1_555
C19 H14 1_555 1_555
H15 C19 1_555 1_555
C20 C19 1_555 1_555
H16 C20 1_555 1_555
H17 C20 1_555 1_555
O1 C1 1_555 1_555
O2 C6 1_555 1_555
O3 C19 1_555 1_555
Sb1 F1 1_555 1_555
F2 Sb1 1_555 1_555
F3 Sb1 1_555 1_555
F4 Sb1 1_555 1_555
Ag1D N1E 1_555 1_555
Ag1F N2 1_555 1_555
Ag1B N2E 1_555 1_555
Ag1F_2 N2A 1_555 1_555
Ag1B_2 N2D 1_555 1_555
N1E N1 1_555 1_555
N1A Ag1 1_555 1_555
N1D Ag1D 1_555 1_555
N2E C15E 1_555 1_555
N2A C15A 1_555 1_555
N2D C15D 1_555 1_555
N2G Ag1 1_555 1_555
N2F Ag1 1_555 1_555
N2B Ag1D 1_555 1_555
N2C Ag1D 1_555 1_555
C1E O1 1_555 1_555
C1A N1A 1_555 1_555
C1D N1D 1_555 1_555
C2E C1E 1_555 1_555
C2A C1A 1_555 1_555
C2D C1D 1_555 1_555
C3E C2E 1_555 1_555
C3A C2A 1_555 1_555
C3D C2D 1_555 1_555
H1E C3E 1_555 1_555
H1A C3A 1_555 1_555
H1D C3D 1_555 1_555
C4E C3E 1_555 1_555
C4A C3A 1_555 1_555
C4D C3D 1_555 1_555
H2E C4E 1_555 1_555
H2A C4A 1_555 1_555
H2D C4D 1_555 1_555
C5E C4E 1_555 1_555
C5A C4A 1_555 1_555
C5D C4D 1_555 1_555
H3E C5E 1_555 1_555
H3A C5A 1_555 1_555
H3D C5D 1_555 1_555
C6E C5E 1_555 1_555
C6A C5A 1_555 1_555
C6D C5D 1_555 1_555
C7E C2E 1_555 1_555
C7A C2A 1_555 1_555
C7D C2D 1_555 1_555
H4E C7E 1_555 1_555
H4A C7A 1_555 1_555
H4D C7D 1_555 1_555
C8E H5E 1_555 1_555
C8A H5A 1_555 1_555
C8D H5D 1_555 1_555
H6E C8E 1_555 1_555
H6A C8A 1_555 1_555
H6D C8D 1_555 1_555
C9E C8E 1_555 1_555
C9A C8A 1_555 1_555
C9D C8D 1_555 1_555
C10E C9E 1_555 1_555
C10A C9A 1_555 1_555
C10D C9D 1_555 1_555
H7E C10E 1_555 1_555
H7A C10A 1_555 1_555
H7D C10D 1_555 1_555
C11E C10E 1_555 1_555
C11A C10A 1_555 1_555
C11D C10D 1_555 1_555
H8E C11E 1_555 1_555
H8A C11A 1_555 1_555
H8D C11D 1_555 1_555
C12E C11E 1_555 1_555
C12A C11A 1_555 1_555
C12D C11D 1_555 1_555
C13E C12E 1_555 1_555
C13A C12A 1_555 1_555
C13D C12D 1_555 1_555
H9E C13E 1_555 1_555
H9A C13A 1_555 1_555
H9D C13D 1_555 1_555
C14E C9E 1_555 1_555
C14A C9A 1_555 1_555
C14D C9D 1_555 1_555
H10E C14E 1_555 1_555
H10A C14A 1_555 1_555
H10D C14D 1_555 1_555
C15E C12E 1_555 1_555
C15A C12A 1_555 1_555
C15D C12D 1_555 1_555
C16A H11A 1_555 1_555
C17A C18 1_555 1_555
H12A C17A 1_555 1_555
C18A C17 1_555 1_555
H13A C18A 1_555 1_555
C19E O3 1_555 1_555
H14E C19E 1_555 1_555
H15E C19E 1_555 1_555
C20E C20 1_555 1_555
H16E C20E 1_555 1_555
H17E C20E 1_555 1_555
O1A C1A 1_555 1_555
O2E C6E 1_555 1_555
O2A C6A 1_555 1_555
O2D C6D 1_555 1_555
F3E Sb1 1_555 1_555
F4E Sb1 1_555 1_555
C6 C7 1_555 1_555
C8 O2 1_555 1_555
C13 C14 1_555 1_555
N1E C1E 1_555 1_555
N1A N1D 1_555 1_555
C1D O1A 1_555 1_555
C6E C7E 1_555 1_555
C6A C7A 1_555 1_555
C6D C7D 1_555 1_555
C8E O2E 1_555 1_555
C8A O2A 1_555 1_555
C8D O2D 1_555 1_555
C13E C14E 1_555 1_555
C13A C14A 1_555 1_555
C13D C14D 1_555 1_555
C16A C17A 1_555 1_555
C16A C18A 1_555 1_555
C19E C20E 1_555 1_555

#END
