
#######################################################################
#
#                 Cambridge Crystallographic Data Centre
#                                CCDC 
#
#######################################################################
#
# If this CIF has been generated from an entry in the Cambridge 
# Structural Database, then it will include bibliographic, chemical, 
# crystal, experimental, refinement or atomic coordinate data resulting 
# from the CCDC's data processing and validation procedures.
#
#######################################################################

data_EBUYAD
_symmetry_cell_setting           monoclinic
_symmetry_space_group_name_H-M   'C 2/m'
_symmetry_Int_Tables_number      12
_space_group_name_Hall           '-C 2y'
loop_
_symmetry_equiv_pos_site_id
_symmetry_equiv_pos_as_xyz
1 x,y,z
2 -x,y,-z
3 1/2+x,1/2+y,z
4 1/2-x,1/2+y,-z
5 -x,-y,-z
6 x,-y,z
7 1/2-x,1/2-y,-z
8 1/2+x,1/2-y,z
_cell_length_a                   24.970(19)
_cell_length_b                   18.714(14)
_cell_length_c                   8.194(6)
_cell_angle_alpha                90
_cell_angle_beta                 90.02(2)
_cell_angle_gamma                90
_cell_volume                     3828.96
loop_
_atom_site_label
_atom_site_type_symbol
_atom_site_fract_x
_atom_site_fract_y
_atom_site_fract_z
Ag1 Ag 0.0000 0.09568(3) 0.0000
C1 C 0.12923(17) 0.0579(2) 0.0384(5)
C2 C 0.15038(16) 0.1294(2) 0.0574(5)
C3 C 0.12609(19) 0.1853(3) -0.0209(5)
H1 H 0.0973 0.1772 -0.0905
C4 C 0.1447(2) 0.2540(3) 0.0045(6)
H2 H 0.1276 0.2922 -0.0458
C5 C 0.1882(2) 0.2664(3) 0.1031(6)
H3 H 0.2011 0.3126 0.1175
C6 C 0.21260(17) 0.2097(3) 0.1803(5)
C7 C 0.19474(16) 0.1411(3) 0.1578(5)
H4 H 0.2119 0.1030 0.2085
C8 C 0.2844(2) 0.1736(3) 0.3515(6)
H5 H 0.2955 0.1390 0.2702
H6 H 0.2624 0.1493 0.4319
C9 C 0.33314(19) 0.2058(3) 0.4333(5)
C10 C 0.3422(2) 0.2781(3) 0.4292(5)
H7 H 0.3194 0.3078 0.3704
C11 C 0.3856(2) 0.3070(3) 0.5134(6)
H8 H 0.3920 0.3559 0.5097
C12 C 0.4187(2) 0.2635(3) 0.6011(6)
C13 C 0.4099(2) 0.1908(3) 0.6012(7)
H9 H 0.4333 0.1608 0.6570
C14 C 0.3667(2) 0.1622(3) 0.5193(7)
H10 H 0.3604 0.1132 0.5226
C15 C 0.4612(2) 0.2937(3) 0.6973(6)
N1 N 0.08158(13) 0.03791(17) 0.0004(4)
N2 N 0.49278(18) 0.3200(3) 0.7761(5)
O1 O 0.16150(15) 0.0000 0.0631(4)
O2 O 0.25484(13) 0.22844(17) 0.2771(4)
Ag1D Ag 0.0000 -0.09568(3) 0.0000
Ag1B Ag -0.5000 -0.40432(3) -1.0000
Ag1B_2 Ag 0.5000 -0.40432(3) 1.0000
Ag1F Ag -0.5000 0.40432(3) -1.0000
Ag1F_2 Ag 0.5000 0.40432(3) 1.0000
C1E C 0.12923(17) -0.0579(2) 0.0384(5)
C1A C -0.12923(17) 0.0579(2) -0.0384(5)
C1D C -0.12923(17) -0.0579(2) -0.0384(5)
C2E C 0.15038(16) -0.1294(2) 0.0574(5)
C2A C -0.15038(16) 0.1294(2) -0.0574(5)
C2D C -0.15038(16) -0.1294(2) -0.0574(5)
C3E C 0.12609(19) -0.1853(3) -0.0209(5)
C3A C -0.12609(19) 0.1853(3) 0.0209(5)
C3D C -0.12609(19) -0.1853(3) 0.0209(5)
H1E H 0.0973 -0.1772 -0.0905
H1A H -0.0973 0.1772 0.0905
H1D H -0.0973 -0.1772 0.0905
C4E C 0.1447(2) -0.2540(3) 0.0045(6)
C4A C -0.1447(2) 0.2540(3) -0.0045(6)
C4D C -0.1447(2) -0.2540(3) -0.0045(6)
H2E H 0.1276 -0.2922 -0.0458
H2A H -0.1276 0.2922 0.0458
H2D H -0.1276 -0.2922 0.0458
C5E C 0.1882(2) -0.2664(3) 0.1031(6)
C5A C -0.1882(2) 0.2664(3) -0.1031(6)
C5D C -0.1882(2) -0.2664(3) -0.1031(6)
H3E H 0.2011 -0.3126 0.1175
H3A H -0.2011 0.3126 -0.1175
H3D H -0.2011 -0.3126 -0.1175
C6E C 0.21260(17) -0.2097(3) 0.1803(5)
C6A C -0.21260(17) 0.2097(3) -0.1803(5)
C6D C -0.21260(17) -0.2097(3) -0.1803(5)
C7E C 0.19474(16) -0.1411(3) 0.1578(5)
C7A C -0.19474(16) 0.1411(3) -0.1578(5)
C7D C -0.19474(16) -0.1411(3) -0.1578(5)
H4E H 0.2119 -0.1030 0.2085
H4A H -0.2119 0.1030 -0.2085
H4D H -0.2119 -0.1030 -0.2085
C8E C 0.2844(2) -0.1736(3) 0.3515(6)
C8A C -0.2844(2) 0.1736(3) -0.3515(6)
C8D C -0.2844(2) -0.1736(3) -0.3515(6)
H5E H 0.2955 -0.1390 0.2702
H5A H -0.2955 0.1390 -0.2702
H5D H -0.2955 -0.1390 -0.2702
H6E H 0.2624 -0.1493 0.4319
H6A H -0.2624 0.1493 -0.4319
H6D H -0.2624 -0.1493 -0.4319
C9E C 0.33314(19) -0.2058(3) 0.4333(5)
C9A C -0.33314(19) 0.2058(3) -0.4333(5)
C9D C -0.33314(19) -0.2058(3) -0.4333(5)
C10E C 0.3422(2) -0.2781(3) 0.4292(5)
C10A C -0.3422(2) 0.2781(3) -0.4292(5)
C10D C -0.3422(2) -0.2781(3) -0.4292(5)
H7E H 0.3194 -0.3078 0.3704
H7A H -0.3194 0.3078 -0.3704
H7D H -0.3194 -0.3078 -0.3704
C11E C 0.3856(2) -0.3070(3) 0.5134(6)
C11A C -0.3856(2) 0.3070(3) -0.5134(6)
C11D C -0.3856(2) -0.3070(3) -0.5134(6)
H8E H 0.3920 -0.3559 0.5097
H8A H -0.3920 0.3559 -0.5097
H8D H -0.3920 -0.3559 -0.5097
C12E C 0.4187(2) -0.2635(3) 0.6011(6)
C12A C -0.4187(2) 0.2635(3) -0.6011(6)
C12D C -0.4187(2) -0.2635(3) -0.6011(6)
C13E C 0.4099(2) -0.1908(3) 0.6012(7)
C13A C -0.4099(2) 0.1908(3) -0.6012(7)
C13D C -0.4099(2) -0.1908(3) -0.6012(7)
H9E H 0.4333 -0.1608 0.6570
H9A H -0.4333 0.1608 -0.6570
H9D H -0.4333 -0.1608 -0.6570
C14E C 0.3667(2) -0.1622(3) 0.5193(7)
C14A C -0.3667(2) 0.1622(3) -0.5193(7)
C14D C -0.3667(2) -0.1622(3) -0.5193(7)
H10E H 0.3604 -0.1132 0.5226
H10A H -0.3604 0.1132 -0.5226
H10D H -0.3604 -0.1132 -0.5226
C15E C 0.4612(2) -0.2937(3) 0.6973(6)
C15A C -0.4612(2) 0.2937(3) -0.6973(6)
C15D C -0.4612(2) -0.2937(3) -0.6973(6)
N1E N 0.08158(13) -0.03791(17) 0.0004(4)
N1A N -0.08158(13) 0.03791(17) -0.0004(4)
N1D N -0.08158(13) -0.03791(17) -0.0004(4)
N2E N 0.49278(18) -0.3200(3) 0.7761(5)
N2A N -0.49278(18) 0.3200(3) -0.7761(5)
N2D N -0.49278(18) -0.3200(3) -0.7761(5)
N2B N -0.00722(18) -0.1800(3) -0.2239(5)
N2C N 0.00722(18) -0.1800(3) 0.2239(5)
N2F N 0.00722(18) 0.1800(3) 0.2239(5)
N2G N -0.00722(18) 0.1800(3) -0.2239(5)
O1A O -0.16150(15) 0.0000 -0.0631(4)
O2E O 0.25484(13) -0.22844(17) 0.2771(4)
O2A O -0.25484(13) 0.22844(17) -0.2771(4)
O2D O -0.25484(13) -0.22844(17) -0.2771(4)
Cl1 Cl 0.20880(17) 0.0000 0.5891(4)
O3 O 0.1783(9) 0.0000 0.4517(14)
O4 O 0.2054(5) 0.0592(4) 0.6713(8)
O5 O 0.2529(7) 0.0000 0.497(3)
O4E O 0.2054(5) -0.0592(4) 0.6713(8)
C16 C 0.5029(5) 0.5000 0.6709(6)
H11 H 0.5046 0.5000 0.7842
C17 C 0.4508(4) 0.5000 0.4195(13)
H12 H 0.4178 0.5000 0.3672
C18 C 0.4533(4) 0.5000 0.5928(13)
H13 H 0.4219 0.5000 0.6538
C16A C 0.4971(5) 0.5000 0.3291(6)
H11A H 0.4954 0.5000 0.2158
C17A C 0.5492(4) 0.5000 0.5805(13)
H12A H 0.5822 0.5000 0.6328
C18A C 0.5467(4) 0.5000 0.4072(13)
H13A H 0.5781 0.5000 0.3462
loop_
_geom_bond_atom_site_label_1
_geom_bond_atom_site_label_2
_geom_bond_site_symmetry_1
_geom_bond_site_symmetry_2
Ag1 N1 1_555 1_555
C1 C2 1_555 1_555
C2 C3 1_555 1_555
C3 H1 1_555 1_555
C4 C3 1_555 1_555
H2 C4 1_555 1_555
C5 C4 1_555 1_555
H3 C5 1_555 1_555
C6 C5 1_555 1_555
C7 C2 1_555 1_555
H4 C7 1_555 1_555
C8 H5 1_555 1_555
H6 C8 1_555 1_555
C9 C8 1_555 1_555
C10 C9 1_555 1_555
H7 C10 1_555 1_555
C11 C10 1_555 1_555
H8 C11 1_555 1_555
C12 C11 1_555 1_555
C13 C12 1_555 1_555
H9 C13 1_555 1_555
C14 C9 1_555 1_555
H10 C14 1_555 1_555
C15 C12 1_555 1_555
Cl1 O3 1_555 1_555
N1 C1 1_555 1_555
N2 C15 1_555 1_555
O1 C1 1_555 1_555
O2 C6 1_555 1_555
O4 Cl1 1_555 1_555
O5 Cl1 1_555 1_555
C16 H11 1_555 1_555
C17 H12 1_555 1_555
C18 C16 1_555 1_555
H13 C18 1_555 1_555
Ag1D N1E 1_555 1_555
Ag1B N2D 1_555 1_555
Ag1B_2 N2E 1_555 1_555
Ag1F N2A 1_555 1_555
Ag1F_2 N2 1_555 1_555
C1E O1 1_555 1_555
C1A C2A 1_555 1_555
C1D C2D 1_555 1_555
C2E C1E 1_555 1_555
C2A C3A 1_555 1_555
C2D C3D 1_555 1_555
C3E C2E 1_555 1_555
C3A H1A 1_555 1_555
C3D H1D 1_555 1_555
H1E C3E 1_555 1_555
C4E C3E 1_555 1_555
C4A C3A 1_555 1_555
C4D C3D 1_555 1_555
H2E C4E 1_555 1_555
H2A C4A 1_555 1_555
H2D C4D 1_555 1_555
C5E C4E 1_555 1_555
C5A C4A 1_555 1_555
C5D C4D 1_555 1_555
H3E C5E 1_555 1_555
H3A C5A 1_555 1_555
H3D C5D 1_555 1_555
C6E C5E 1_555 1_555
C6A C5A 1_555 1_555
C6D C5D 1_555 1_555
C7E C2E 1_555 1_555
C7A C2A 1_555 1_555
C7D C2D 1_555 1_555
H4E C7E 1_555 1_555
H4A C7A 1_555 1_555
H4D C7D 1_555 1_555
C8E H5E 1_555 1_555
C8A H5A 1_555 1_555
C8D H5D 1_555 1_555
H6E C8E 1_555 1_555
H6A C8A 1_555 1_555
H6D C8D 1_555 1_555
C9E C8E 1_555 1_555
C9A C8A 1_555 1_555
C9D C8D 1_555 1_555
C10E C9E 1_555 1_555
C10A C9A 1_555 1_555
C10D C9D 1_555 1_555
H7E C10E 1_555 1_555
H7A C10A 1_555 1_555
H7D C10D 1_555 1_555
C11E C10E 1_555 1_555
C11A C10A 1_555 1_555
C11D C10D 1_555 1_555
H8E C11E 1_555 1_555
H8A C11A 1_555 1_555
H8D C11D 1_555 1_555
C12E C11E 1_555 1_555
C12A C11A 1_555 1_555
C12D C11D 1_555 1_555
C13E C12E 1_555 1_555
C13A C12A 1_555 1_555
C13D C12D 1_555 1_555
H9E C13E 1_555 1_555
H9A C13A 1_555 1_555
H9D C13D 1_555 1_555
C14E C9E 1_555 1_555
C14A C9A 1_555 1_555
C14D C9D 1_555 1_555
H10E C14E 1_555 1_555
H10A C14A 1_555 1_555
H10D C14D 1_555 1_555
C15E C12E 1_555 1_555
C15A C12A 1_555 1_555
C15D C12D 1_555 1_555
N1E N1 1_555 1_555
N1A Ag1 1_555 1_555
N1D Ag1D 1_555 1_555
N2E C15E 1_555 1_555
N2A C15A 1_555 1_555
N2D C15D 1_555 1_555
N2B Ag1D 1_555 1_555
N2C Ag1D 1_555 1_555
N2F Ag1 1_555 1_555
N2G Ag1 1_555 1_555
O1A C1A 1_555 1_555
O2E C6E 1_555 1_555
O2A C6A 1_555 1_555
O2D C6D 1_555 1_555
O4E Cl1 1_555 1_555
C16A C17 1_555 1_555
H11A C16A 1_555 1_555
C17A C16 1_555 1_555
H12A C17A 1_555 1_555
C18A C16A 1_555 1_555
H13A C18A 1_555 1_555
C6 C7 1_555 1_555
C8 O2 1_555 1_555
C13 C14 1_555 1_555
C17 C18 1_555 1_555
C1E N1E 1_555 1_555
C1A N1A 1_555 1_555
C1D N1D 1_555 1_555
C1D O1A 1_555 1_555
C6E C7E 1_555 1_555
C6A C7A 1_555 1_555
C6D C7D 1_555 1_555
C8E O2E 1_555 1_555
C8A O2A 1_555 1_555
C8D O2D 1_555 1_555
C13E C14E 1_555 1_555
C13A C14A 1_555 1_555
C13D C14D 1_555 1_555
N1A N1D 1_555 1_555
C17A C18A 1_555 1_555

#END
