
#######################################################################
#
#                 Cambridge Crystallographic Data Centre
#                                CCDC 
#
#######################################################################
#
# If this CIF has been generated from an entry in the Cambridge 
# Structural Database, then it will include bibliographic, chemical, 
# crystal, experimental, refinement or atomic coordinate data resulting 
# from the CCDC's data processing and validation procedures.
#
#######################################################################

data_EBUYOR
_symmetry_cell_setting           monoclinic
_symmetry_space_group_name_H-M   'C 2/c'
_symmetry_Int_Tables_number      15
_space_group_name_Hall           '-C 2yn'
loop_
_symmetry_equiv_pos_site_id
_symmetry_equiv_pos_as_xyz
1 x,y,z
2 -x,y,1/2-z
3 1/2+x,1/2+y,z
4 1/2-x,1/2+y,1/2-z
5 -x,-y,-z
6 x,-y,1/2+z
7 1/2-x,1/2-y,-z
8 1/2+x,1/2-y,1/2+z
_cell_length_a                   24.744(4)
_cell_length_b                   13.627(2)
_cell_length_c                   19.476(3)
_cell_angle_alpha                90
_cell_angle_beta                 102.663(3)
_cell_angle_gamma                90
_cell_volume                     6407.31
loop_
_atom_site_label
_atom_site_type_symbol
_atom_site_fract_x
_atom_site_fract_y
_atom_site_fract_z
C1 C 0.3760(8) 0.8294(7) 0.1370(7)
H1 H 0.3994 0.7832 0.1191
H2 H 0.3487 0.7916 0.1545
Cl2 Cl 0.4153(3) 0.8898(9) 0.2048(4)
Cl3 Cl 0.3440(4) 0.8958(8) 0.0722(5)
Ag1 Ag 0.430179(17) 0.55247(3) 0.18929(2)
C2 C 0.5189(2) -0.3065(4) 0.1304(3)
C3 C 0.54973(18) -0.2429(3) 0.0950(2)
C4 C 0.58318(19) -0.2846(4) 0.0546(2)
H3 H 0.5865 -0.3524 0.0520
C5 C 0.6114(2) -0.2236(4) 0.0184(3)
H4 H 0.6342 -0.2503 -0.0088
C6 C 0.60616(18) -0.1236(4) 0.0222(3)
H5 H 0.6258 -0.0835 -0.0024
C7 C 0.57199(17) -0.0808(3) 0.0620(2)
C8 C 0.54389(17) -0.1407(3) 0.0984(2)
H6 H 0.5210 -0.1138 0.1254
C9 C 0.56695(19) 0.0289(3) 0.0606(3)
H7 H 0.6029 0.0582 0.0790
H8 H 0.5538 0.0512 0.0126
C10 C 0.51940(16) 0.1567(3) 0.1060(2)
C11 C 0.54390(18) 0.2284(3) 0.0731(2)
H9 H 0.5692 0.2111 0.0462
C12 C 0.53074(19) 0.3260(3) 0.0803(3)
H10 H 0.5474 0.3740 0.0580
C13 C 0.49325(18) 0.3531(3) 0.1200(2)
H11 H 0.4844 0.4188 0.1243
C14 C 0.46894(16) 0.2804(3) 0.1535(2)
C15 C 0.48168(16) 0.1823(3) 0.1463(2)
H12 H 0.4651 0.1339 0.1683
C16 C 0.43018(15) 0.3097(3) 0.1960(2)
C17 C 0.37183(17) 0.2901(3) 0.2617(2)
C18 C 0.33712(16) 0.2395(3) 0.3014(2)
C19 C 0.31485(19) 0.2941(3) 0.3487(2)
H13 H 0.3219 0.3610 0.3539
C20 C 0.2824(2) 0.2482(4) 0.3876(3)
H14 H 0.2676 0.2843 0.4197
C21 C 0.27139(19) 0.1491(4) 0.3796(2)
H15 H 0.2485 0.1192 0.4054
C22 C 0.29395(17) 0.0946(3) 0.3339(2)
C23 C 0.32780(15) 0.1406(3) 0.2946(2)
H16 H 0.3439 0.1040 0.2641
C24 C 0.2527(2) -0.0538(3) 0.3619(3)
H17 H 0.2143 -0.0364 0.3432
H18 H 0.2624 -0.0342 0.4109
C25 C 0.26009(17) -0.1619(3) 0.3561(2)
C26 C 0.2343(2) -0.2239(4) 0.3952(3)
H19 H 0.2114 -0.1971 0.4224
C27 C 0.2414(2) -0.3234(4) 0.3950(3)
H20 H 0.2232 -0.3632 0.4215
C28 C 0.2755(2) -0.3649(4) 0.3557(2)
H21 H 0.2812 -0.4324 0.3560
C29 C 0.30075(18) -0.3045(3) 0.3161(2)
C30 C 0.29347(17) -0.2032(3) 0.3157(2)
H22 H 0.3110 -0.1636 0.2883
C31 C 0.3375(2) -0.3445(4) 0.2751(3)
N1 N 0.37859(15) 0.3831(3) 0.25722(19)
N2 N 0.41730(14) 0.3942(3) 0.21409(19)
N3 N 0.4937(2) -0.3566(3) 0.1586(3)
N4 N 0.3669(2) -0.3751(3) 0.2435(3)
O5 O 0.40282(11) 0.2377(2) 0.22440(15)
O6 O 0.52922(14) 0.0584(2) 0.10229(19)
O7 O 0.28740(13) -0.0039(2) 0.32336(18)
Ag1_2 Ag 0.430179(17) -0.44753(3) 0.18929(2)
N3_2 N 0.4937(2) 0.6434(3) 0.1586(3)
N4_2 N 0.3669(2) 0.6249(3) 0.2435(3)
Cl1 Cl 0.15203(5) 0.02691(9) 0.48358(7)
O1 O 0.1340(3) 0.1050(6) 0.4414(4)
O2 O 0.20999(18) 0.0401(3) 0.5116(3)
O3 O 0.12625(19) 0.0165(3) 0.5410(3)
O4 O 0.1438(2) -0.0631(4) 0.4451(3)
O8? O 0.3508(12) 0.9588(18) 0.1433(11)
H23? H 0.3849 0.9764 0.1552
H24? H 0.3429 0.8973 0.1415
loop_
_geom_bond_atom_site_label_1
_geom_bond_atom_site_label_2
_geom_bond_site_symmetry_1
_geom_bond_site_symmetry_2
Cl1 O1 1_555 1_555
O2 Cl1 1_555 1_555
O3 Cl1 1_555 1_555
O4 Cl1 1_555 1_555
C1 H1 1_555 1_555
H2 C1 1_555 1_555
Cl2 C1 1_555 1_555
Cl3 C1 1_555 1_555
Ag1 N2 1_555 1_555
C2 C3 1_555 1_555
C3 C4 1_555 1_555
C4 H3 1_555 1_555
C5 C4 1_555 1_555
H4 C5 1_555 1_555
C6 C5 1_555 1_555
H5 C6 1_555 1_555
C7 C6 1_555 1_555
C8 C3 1_555 1_555
H6 C8 1_555 1_555
C9 C7 1_555 1_555
H7 C9 1_555 1_555
H8 C9 1_555 1_555
C10 C11 1_555 1_555
C11 H9 1_555 1_555
C12 C11 1_555 1_555
H10 C12 1_555 1_555
C13 C12 1_555 1_555
H11 C13 1_555 1_555
C14 C13 1_555 1_555
C15 C10 1_555 1_555
H12 C15 1_555 1_555
C16 C14 1_555 1_555
C17 C18 1_555 1_555
C18 C19 1_555 1_555
C19 H13 1_555 1_555
C20 C19 1_555 1_555
H14 C20 1_555 1_555
C21 C20 1_555 1_555
H15 C21 1_555 1_555
C22 C21 1_555 1_555
C23 C18 1_555 1_555
H16 C23 1_555 1_555
C24 H17 1_555 1_555
H18 C24 1_555 1_555
C25 C24 1_555 1_555
C26 C25 1_555 1_555
H19 C26 1_555 1_555
C27 C26 1_555 1_555
H20 C27 1_555 1_555
C28 C27 1_555 1_555
H21 C28 1_555 1_555
C29 C28 1_555 1_555
C30 C25 1_555 1_555
H22 C30 1_555 1_555
C31 C29 1_555 1_555
N1 C17 1_555 1_555
N2 C16 1_555 1_555
N3 C2 1_555 1_555
N4 C31 1_555 1_555
O5 C16 1_555 1_555
O6 C9 1_555 1_555
O7 C22 1_555 1_555
Ag1_2 N3 1_555 1_555
N3_2 Ag1 1_555 1_555
N4_2 Ag1 1_555 1_555
C7 C8 1_555 1_555
C10 O6 1_555 1_555
C14 C15 1_555 1_555
C17 O5 1_555 1_555
C22 C23 1_555 1_555
C24 O7 1_555 1_555
C29 C30 1_555 1_555
N1 N2 1_555 1_555
N4 Ag1_2 1_555 1_555

#END
