
#######################################################################
#
#                 Cambridge Crystallographic Data Centre
#                                CCDC 
#
#######################################################################
#
# If this CIF has been generated from an entry in the Cambridge 
# Structural Database, then it will include bibliographic, chemical, 
# crystal, experimental, refinement or atomic coordinate data resulting 
# from the CCDC's data processing and validation procedures.
#
#######################################################################

data_EBUYIL
_symmetry_cell_setting           monoclinic
_symmetry_space_group_name_H-M   'C c'
_symmetry_Int_Tables_number      9
_space_group_name_Hall           'C -2yc'
loop_
_symmetry_equiv_pos_site_id
_symmetry_equiv_pos_as_xyz
1 x,y,z
2 x,-y,1/2+z
3 1/2+x,1/2+y,z
4 1/2+x,1/2-y,1/2+z
_cell_length_a                   13.9206(17)
_cell_length_b                   18.112(2)
_cell_length_c                   26.968(3)
_cell_angle_alpha                90
_cell_angle_beta                 100.037(2)
_cell_angle_gamma                90
_cell_volume                     6695.38
loop_
_atom_site_label
_atom_site_type_symbol
_atom_site_fract_x
_atom_site_fract_y
_atom_site_fract_z
Ag1 Ag 0.06192(3) -0.08723(3) 0.903090(18)
Ag2 Ag 0.05464(3) 0.11363(3) 0.896630(19)
C1 C -0.0210(6) -0.2285(6) 1.3011(3)
C2 C -0.0204(6) -0.2855(4) 1.2653(3)
C3 C 0.0037(9) -0.3562(6) 1.2818(4)
H1 H 0.0134 -0.3671 1.3168
C4 C 0.0139(10) -0.4112(6) 1.2476(4)
H2 H 0.0400 -0.4580 1.2587
C5 C -0.0144(11) -0.3968(5) 1.1975(4)
H3 H -0.0195 -0.4366 1.1742
C6 C -0.0356(6) -0.3268(4) 1.1797(3)
C7 C -0.0411(5) -0.2700(4) 1.2134(3)
H4 H -0.0585 -0.2216 1.2017
C8 C -0.0582(5) -0.3157(4) 1.1236(3)
H5 H -0.0112 -0.3436 1.1072
H6 H -0.1247 -0.3340 1.1102
C9 C -0.0683(5) -0.2190(4) 1.0632(2)
C10 C -0.0939(5) -0.2669(4) 1.0239(3)
H7 H -0.1002 -0.3180 1.0306
C11 C -0.1108(6) -0.2417(5) 0.9741(3)
H8 H -0.1288 -0.2752 0.9470
C12 C -0.1010(5) -0.1679(4) 0.9650(3)
H9 H -0.1140 -0.1500 0.9314
C13 C -0.0721(5) -0.1190(4) 1.0046(3)
C14 C -0.0567(5) -0.1440(4) 1.0543(3)
H10 H -0.0386 -0.1106 1.0814
C15 C -0.0534(5) -0.0436(4) 0.9917(3)
C16 C -0.0496(5) 0.0753(4) 0.9944(3)
C17 C -0.0655(5) 0.1493(4) 1.0117(2)
C18 C -0.0861(5) 0.2056(5) 0.9752(3)
H11 H -0.0908 0.1947 0.9404
C19 C -0.0988(6) 0.2743(5) 0.9905(3)
H12 H -0.1136 0.3120 0.9658
C20 C -0.0912(6) 0.2930(4) 1.0412(3)
H13 H -0.1006 0.3425 1.0510
C21 C -0.0697(5) 0.2380(4) 1.0768(2)
C22 C -0.0589(5) 0.1656(4) 1.0624(3)
H14 H -0.0471 0.1275 1.0870
C23 C -0.0663(6) 0.3252(4) 1.1428(3)
H15 H -0.1315 0.3453 1.1287
H16 H -0.0165 0.3551 1.1299
C24 C -0.0498(6) 0.3294(4) 1.1997(3)
C25 C -0.0370(5) 0.2682(4) 1.2310(3)
H17 H -0.0364 0.2202 1.2168
C26 C -0.0251(5) 0.2766(5) 1.2827(3)
C27 C -0.0162(6) 0.2143(5) 1.3157(3)
C28 C -0.0274(8) 0.3461(6) 1.3040(3)
H18 H -0.0182 0.3515 1.3396
C29 C -0.0436(10) 0.4085(6) 1.2727(4)
H19 H -0.0494 0.4561 1.2867
C30 C -0.0509(10) 0.3998(6) 1.2217(4)
H20 H -0.0568 0.4422 1.2007
C31 C 0.1583(5) 0.2109(5) 0.4934(3)
C32 C 0.1719(5) 0.2735(4) 0.5265(3)
C33 C 0.1739(5) 0.3429(5) 0.5061(3)
H21 H 0.1648 0.3493 0.4706
C34 C 0.1891(6) 0.4030(5) 0.5377(3)
H22 H 0.1903 0.4513 0.5241
C35 C 0.2025(6) 0.3929(4) 0.5882(3)
H23 H 0.2121 0.4351 0.6094
C36 C 0.2027(5) 0.3234(4) 0.6104(2)
C37 C 0.1845(5) 0.2613(4) 0.5786(3)
H24 H 0.1808 0.2131 0.5920
C38 C 0.2220(6) 0.3179(4) 0.6663(3)
H25 H 0.2886 0.3361 0.6795
H26 H 0.1750 0.3491 0.6803
C39 C 0.2189(5) 0.2318(4) 0.7321(2)
C40 C 0.2361(6) 0.2862(4) 0.7694(3)
H27 H 0.2446 0.3360 0.7599
C41 C 0.2410(6) 0.2697(4) 0.8192(3)
H28 H 0.2520 0.3077 0.8439
C42 C 0.2296(5) 0.1951(4) 0.8339(3)
H29 H 0.2342 0.1822 0.8684
C43 C 0.2118(5) 0.1423(4) 0.7968(2)
C44 C 0.2079(5) 0.1584(4) 0.7458(2)
H30 H 0.1981 0.1205 0.7211
C45 C 0.1951(5) 0.0667(4) 0.8128(3)
C46 C 0.1993(5) -0.0507(4) 0.8180(3)
C47 C 0.2176(5) -0.1289(4) 0.8080(3)
C48 C 0.2362(5) -0.1761(4) 0.8492(3)
H31 H 0.2433 -0.1572 0.8825
C49 C 0.2442(6) -0.2514(5) 0.8410(3)
H32 H 0.2563 -0.2842 0.8689
C50 C 0.2350(5) -0.2783(4) 0.7934(3)
H33 H 0.2393 -0.3299 0.7881
C51 C 0.2194(5) -0.2313(4) 0.7527(3)
C52 C 0.2103(5) -0.1560(4) 0.7584(3)
H34 H 0.1997 -0.1238 0.7302
C53 C 0.1924(5) -0.2208(3) 0.6638(2)
H35 H 0.2435 -0.1827 0.6643
H36 H 0.1290 -0.1956 0.6627
C54 C 0.1886(5) -0.2696(4) 0.6179(3)
C55 C 0.2000(6) -0.3445(4) 0.6214(3)
H37 H 0.2104 -0.3672 0.6537
C56 C 0.1965(7) -0.3889(4) 0.5780(3)
H38 H 0.2040 -0.4409 0.5812
C57 C 0.1819(6) -0.3556(5) 0.5302(3)
H39 H 0.1812 -0.3841 0.5005
C58 C 0.1687(5) -0.2804(4) 0.5278(2)
C59 C 0.1725(5) -0.2372(4) 0.5714(3)
H40 H 0.1638 -0.1853 0.5686
C60 C 0.1527(5) -0.2424(4) 0.4805(3)
N1 N 0.1528(4) 0.0489(3) 0.8505(2)
N2 N 0.1545(5) -0.0283(3) 0.8537(2)
N3 N 0.1500(6) 0.1640(5) 0.4651(3)
N4 N 0.1391(5) -0.2109(4) 0.4434(2)
N5 N -0.0137(4) 0.0552(3) 0.9556(2)
N6 N -0.0155(5) -0.0221(3) 0.9541(2)
N7 N -0.0215(5) -0.1828(5) 1.3309(3)
N8 N -0.0096(5) 0.1657(5) 1.3431(3)
O2 O 0.2264(4) 0.0060(2) 0.79053(18)
O3 O 0.2131(4) 0.2434(3) 0.68139(17)
O4 O 0.2134(4) -0.2650(3) 0.70714(18)
O5 O -0.0761(4) 0.0145(2) 1.01959(18)
O6 O -0.0518(4) -0.2393(3) 1.11331(17)
O7 O -0.0600(4) 0.2497(3) 1.12755(17)
Ag1A Ag 0.06192(3) 0.08723(3) 0.403090(18)
Ag1A_2 Ag 0.06192(3) 0.08723(3) 1.403090(18)
Ag2A Ag 0.05464(3) -0.11363(3) 0.396630(19)
Ag2A_2 Ag 0.05464(3) -0.11363(3) 1.396630(19)
N3A N 0.1500(6) -0.1640(5) 0.9651(3)
N4A N 0.1391(5) 0.2109(4) 0.9434(2)
N7A N -0.0215(5) 0.1828(5) 0.8309(3)
N8A N -0.0096(5) -0.1657(5) 0.8431(3)
C61 C 0.9062(8) 0.9954(10) 0.1779(5)
H41 H 0.9214 1.0349 0.1550
H42 H 0.9134 0.9471 0.1617
C62 C 0.9754(11) 1.0000(10) 0.2281(6)
H43 H 1.0188 0.9563 0.2335
H44 H 1.0158 1.0452 0.2302
C63 C 0.9073(11) 1.0020(8) 0.2658(6)
H45 H 0.9103 1.0508 0.2826
H46 H 0.9254 0.9636 0.2919
C64 C 0.8051(10) 0.9878(6) 0.2365(4)
H47 H 0.7859 0.9357 0.2400
H48 H 0.7568 1.0202 0.2487
O8 O 0.8105(6) 1.0036(5) 0.1868(3)
C65 C 0.3599(16) -0.0095(11) 0.9957(8)
H49 H 0.3322 -0.0507 1.0128
H50 H 0.4137 0.0137 1.0195
C66 C 0.394(2) -0.0353(11) 0.9474(12)
H51 H 0.4537 -0.0657 0.9548
H52 H 0.3423 -0.0632 0.9252
C67 C 0.413(2) 0.0388(14) 0.9248(11)
H53 H 0.4786 0.0587 0.9386
H54 H 0.4031 0.0379 0.8876
O1 O 0.3403(17) 0.0740(13) 0.9429(8)
C68 C 0.2824(12) 0.0464(9) 0.9747(7)
H55 H 0.2214 0.0236 0.9568
H56 H 0.2683 0.0826 0.9999
F1 F 0.2479(6) 0.5015(4) 0.4401(2)
F2 F 0.2864(6) 0.5515(4) 0.3713(3)
F3 F 0.2873(6) 0.4305(5) 0.3805(4)
F4 F 0.1338(6) 0.4299(5) 0.3940(3)
F5 F 0.1304(8) 0.5505(6) 0.3816(5)
F6 F 0.1731(7) 0.4792(6) 0.3235(3)
P1 P 0.2075(2) 0.49230(13) 0.38294(9)
F7 F 0.1287(8) -0.0662(5) 0.1311(3)
F8 F 0.2382(8) 0.0084(5) 0.1720(4)
F9 F 0.1128(7) 0.0557(5) 0.1265(4)
F10 F 0.2523(6) 0.0643(4) 0.1003(4)
F11 F 0.1380(7) -0.0089(6) 0.0594(3)
F12 F 0.2685(9) -0.0546(5) 0.1044(5)
P2 P 0.1922(2) -0.00083(11) 0.11392(11)
loop_
_geom_bond_atom_site_label_1
_geom_bond_atom_site_label_2
_geom_bond_site_symmetry_1
_geom_bond_site_symmetry_2
Ag1 N2 1_555 1_555
Ag2 N1 1_555 1_555
C1 C2 1_555 1_555
C2 C3 1_555 1_555
C3 H1 1_555 1_555
C4 C3 1_555 1_555
H2 C4 1_555 1_555
C5 C4 1_555 1_555
H3 C5 1_555 1_555
C6 C5 1_555 1_555
C7 C2 1_555 1_555
H4 C7 1_555 1_555
C8 C6 1_555 1_555
H5 C8 1_555 1_555
H6 C8 1_555 1_555
C9 C10 1_555 1_555
C10 H7 1_555 1_555
C11 C10 1_555 1_555
H8 C11 1_555 1_555
C12 C11 1_555 1_555
H9 C12 1_555 1_555
C13 C12 1_555 1_555
C14 C9 1_555 1_555
H10 C14 1_555 1_555
C15 C13 1_555 1_555
C16 C17 1_555 1_555
C17 C18 1_555 1_555
C18 H11 1_555 1_555
C19 C18 1_555 1_555
H12 C19 1_555 1_555
C20 C19 1_555 1_555
H13 C20 1_555 1_555
C21 C20 1_555 1_555
C22 C17 1_555 1_555
H14 C22 1_555 1_555
C23 H15 1_555 1_555
H16 C23 1_555 1_555
C24 C23 1_555 1_555
C25 C24 1_555 1_555
H17 C25 1_555 1_555
C26 C25 1_555 1_555
C27 C26 1_555 1_555
C28 C26 1_555 1_555
H18 C28 1_555 1_555
C29 C28 1_555 1_555
H19 C29 1_555 1_555
C30 C24 1_555 1_555
H20 C30 1_555 1_555
C31 C32 1_555 1_555
C32 C33 1_555 1_555
C33 H21 1_555 1_555
C34 C33 1_555 1_555
H22 C34 1_555 1_555
C35 C34 1_555 1_555
H23 C35 1_555 1_555
C36 C35 1_555 1_555
C37 C32 1_555 1_555
H24 C37 1_555 1_555
C38 C36 1_555 1_555
H25 C38 1_555 1_555
H26 C38 1_555 1_555
C39 C40 1_555 1_555
C40 H27 1_555 1_555
C41 C40 1_555 1_555
H28 C41 1_555 1_555
C42 C41 1_555 1_555
H29 C42 1_555 1_555
C43 C42 1_555 1_555
C44 C39 1_555 1_555
H30 C44 1_555 1_555
C45 C43 1_555 1_555
C46 C47 1_555 1_555
C47 C48 1_555 1_555
C48 H31 1_555 1_555
C49 C48 1_555 1_555
H32 C49 1_555 1_555
C50 C49 1_555 1_555
H33 C50 1_555 1_555
C51 C50 1_555 1_555
C52 C47 1_555 1_555
H34 C52 1_555 1_555
C53 H35 1_555 1_555
H36 C53 1_555 1_555
C54 C53 1_555 1_555
C55 C54 1_555 1_555
H37 C55 1_555 1_555
C56 C55 1_555 1_555
H38 C56 1_555 1_555
C57 C56 1_555 1_555
H39 C57 1_555 1_555
C58 C57 1_555 1_555
C59 C54 1_555 1_555
H40 C59 1_555 1_555
C60 C58 1_555 1_555
C61 H41 1_555 1_555
H42 C61 1_555 1_555
C62 C61 1_555 1_555
H43 C62 1_555 1_555
H44 C62 1_555 1_555
C63 C62 1_555 1_555
H45 C63 1_555 1_555
H46 C63 1_555 1_555
C64 C63 1_555 1_555
H47 C64 1_555 1_555
H48 C64 1_555 1_555
C65 H49 1_555 1_555
H50 C65 1_555 1_555
C66 C65 1_555 1_555
H51 C66 1_555 1_555
H52 C66 1_555 1_555
C67 C66 1_555 1_555
H53 C67 1_555 1_555
H54 C67 1_555 1_555
O1 C67 1_555 1_555
F1 P1 1_555 1_555
F2 P1 1_555 1_555
F3 P1 1_555 1_555
F4 P1 1_555 1_555
F5 P1 1_555 1_555
F6 P1 1_555 1_555
F7 P2 1_555 1_555
F8 P2 1_555 1_555
F9 P2 1_555 1_555
F10 P2 1_555 1_555
F11 P2 1_555 1_555
F12 P2 1_555 1_555
N1 C45 1_555 1_555
N2 C46 1_555 1_555
N3 C31 1_555 1_555
N4 C60 1_555 1_555
N5 Ag2 1_555 1_555
N6 Ag1 1_555 1_555
N7 C1 1_555 1_555
N8 C27 1_555 1_555
O2 C45 1_555 1_555
O3 C38 1_555 1_555
O4 C51 1_555 1_555
O5 C15 1_555 1_555
O6 C8 1_555 1_555
O7 C21 1_555 1_555
O8 C61 1_555 1_555
C68 C65 1_555 1_555
H55 C68 1_555 1_555
H56 C68 1_555 1_555
Ag1A N3 1_555 1_555
Ag1A_2 N8 1_555 1_555
Ag2A N4 1_555 1_555
Ag2A_2 N7 1_555 1_555
N3A Ag1 1_555 1_555
N4A Ag2 1_555 1_555
N7A Ag2 1_555 1_555
N8A Ag1 1_555 1_555
C6 C7 1_555 1_555
C9 O6 1_555 1_555
C13 C14 1_555 1_555
C15 N6 1_555 1_555
C16 N5 1_555 1_555
C16 O5 1_555 1_555
C21 C22 1_555 1_555
C23 O7 1_555 1_555
C29 C30 1_555 1_555
C36 C37 1_555 1_555
C39 O3 1_555 1_555
C43 C44 1_555 1_555
C46 O2 1_555 1_555
C51 C52 1_555 1_555
C53 O4 1_555 1_555
C58 C59 1_555 1_555
C64 O8 1_555 1_555
O1 C68 1_555 1_555
N1 N2 1_555 1_555
N5 N6 1_555 1_555

#END
