
#######################################################################
#
#                 Cambridge Crystallographic Data Centre
#                                CCDC 
#
#######################################################################
#
# If this CIF has been generated from an entry in the Cambridge 
# Structural Database, then it will include bibliographic, chemical, 
# crystal, experimental, refinement or atomic coordinate data resulting 
# from the CCDC's data processing and validation procedures.
#
#######################################################################

data_EBUZIM
_symmetry_cell_setting           orthorhombic
_symmetry_space_group_name_H-M   'P b c a'
_symmetry_Int_Tables_number      61
_space_group_name_Hall           '-P 2ac 2ab'
loop_
_symmetry_equiv_pos_site_id
_symmetry_equiv_pos_as_xyz
1 x,y,z
2 1/2-x,-y,1/2+z
3 -x,1/2+y,1/2-z
4 1/2+x,1/2-y,-z
5 -x,-y,-z
6 1/2+x,y,1/2-z
7 x,1/2-y,1/2+z
8 1/2-x,1/2+y,z
_cell_length_a                   17.353(3)
_cell_length_b                   10.3148(16)
_cell_length_c                   20.974(4)
_cell_angle_alpha                90
_cell_angle_beta                 90
_cell_angle_gamma                90
_cell_volume                     3754.19
loop_
_atom_site_label
_atom_site_type_symbol
_atom_site_fract_x
_atom_site_fract_y
_atom_site_fract_z
Zn1 Zn 0.086011(12) 0.36089(2) 0.328749(10)
Cl1 Cl 0.10929(3) 0.15150(5) 0.31715(3)
Cl2 Cl -0.03592(3) 0.42347(5) 0.33730(3)
Cl3 Cl 0.49967(3) 0.82476(6) -0.02757(2)
N1 N 0.13660(9) 0.44699(15) 0.25066(7)
N2 N 0.22715(9) 0.75233(15) 0.07961(7)
N3 N 0.14371(9) 1.04821(17) -0.09831(8)
N4 N 0.63240(10) 0.81927(18) 0.12413(10)
C1 C 0.21037(11) 0.41697(17) 0.23652(9)
H1 H 0.2329 0.3434 0.2564
C2 C 0.25459(11) 0.48813(18) 0.19458(9)
H2 H 0.3068 0.4653 0.1867
C3 C 0.22124(10) 0.59445(17) 0.16383(8)
C4 C 0.14333(11) 0.61984(18) 0.17478(9)
H3 H 0.1178 0.6872 0.1522
C5 C 0.10371(11) 0.54561(18) 0.21893(9)
H4 H 0.0511 0.5652 0.2271
C6 C 0.26707(10) 0.68149(17) 0.12213(8)
C7 C 0.34665(10) 0.69149(17) 0.12966(9)
H5 H 0.3727 0.6385 0.1598
C8 C 0.38774(10) 0.78000(17) 0.09252(8)
C9 C 0.34622(11) 0.85469(18) 0.04973(9)
H6 H 0.3716 0.9180 0.0244
C10 C 0.26702(10) 0.83652(17) 0.04403(8)
C11 C 0.10983(11) 1.01702(19) -0.04276(9)
H7 H 0.0578 1.0426 -0.0361
C12 C 0.14694(11) 0.94967(19) 0.00510(9)
H8 H 0.1209 0.9296 0.0437
C13 C 0.22324(10) 0.91152(18) -0.00416(8)
C14 C 0.25792(11) 0.9422(2) -0.06166(9)
H9 H 0.3096 0.9168 -0.0698
C15 C 0.21704(11) 1.0098(2) -0.10691(10)
H10 H 0.2417 1.0304 -0.1461
C16 C 0.58241(12) 0.7999(2) 0.17140(11)
H11 H 0.6016 0.7963 0.2138
C17 C 0.50387(11) 0.7847(2) 0.16205(10)
H12 H 0.4713 0.7676 0.1975
C18 C 0.47233(10) 0.79431(17) 0.10118(9)
C19 C 0.52539(11) 0.81594(18) 0.05208(10)
C20 C 0.60351(12) 0.8261(2) 0.06585(12)
H13 H 0.6382 0.8387 0.0314
Zn1F Zn 0.086011(12) 1.13911(2) -0.171251(10)
N3F N 0.14371(9) 0.45179(17) 0.40169(8)
loop_
_geom_bond_atom_site_label_1
_geom_bond_atom_site_label_2
_geom_bond_site_symmetry_1
_geom_bond_site_symmetry_2
Zn1 Cl1 1_555 1_555
Cl2 Zn1 1_555 1_555
Cl3 C19 1_555 1_555
N1 Zn1 1_555 1_555
N2 C6 1_555 1_555
N3 C11 1_555 1_555
N4 C16 1_555 1_555
C1 N1 1_555 1_555
H1 C1 1_555 1_555
C2 C1 1_555 1_555
H2 C2 1_555 1_555
C3 C2 1_555 1_555
C4 C3 1_555 1_555
H3 C4 1_555 1_555
C5 N1 1_555 1_555
H4 C5 1_555 1_555
C6 C3 1_555 1_555
C7 C6 1_555 1_555
H5 C7 1_555 1_555
C8 C7 1_555 1_555
C9 C8 1_555 1_555
H6 C9 1_555 1_555
C10 N2 1_555 1_555
C11 H7 1_555 1_555
C12 C11 1_555 1_555
H8 C12 1_555 1_555
C13 C10 1_555 1_555
C14 C13 1_555 1_555
H9 C14 1_555 1_555
C15 N3 1_555 1_555
H10 C15 1_555 1_555
C16 H11 1_555 1_555
C17 C16 1_555 1_555
H12 C17 1_555 1_555
C18 C8 1_555 1_555
C19 C18 1_555 1_555
C20 N4 1_555 1_555
H13 C20 1_555 1_555
Zn1F N3 1_555 1_555
N3F Zn1 1_555 1_555
C4 C5 1_555 1_555
C9 C10 1_555 1_555
C12 C13 1_555 1_555
C14 C15 1_555 1_555
C17 C18 1_555 1_555
C19 C20 1_555 1_555

#END
