
#######################################################################
#
#                 Cambridge Crystallographic Data Centre
#                                CCDC 
#
#######################################################################
#
# If this CIF has been generated from an entry in the Cambridge 
# Structural Database, then it will include bibliographic, chemical, 
# crystal, experimental, refinement or atomic coordinate data resulting 
# from the CCDC's data processing and validation procedures.
#
#######################################################################

data_EBUZEI
_symmetry_cell_setting           monoclinic
_symmetry_space_group_name_H-M   'P 21/n'
_symmetry_Int_Tables_number      14
_space_group_name_Hall           '-P 2yn'
loop_
_symmetry_equiv_pos_site_id
_symmetry_equiv_pos_as_xyz
1 x,y,z
2 1/2-x,1/2+y,1/2-z
3 -x,-y,-z
4 1/2+x,1/2-y,1/2+z
_cell_length_a                   9.8708(17)
_cell_length_b                   10.5239(11)
_cell_length_c                   20.888(4)
_cell_angle_alpha                90
_cell_angle_beta                 101.277(13)
_cell_angle_gamma                90
_cell_volume                     2127.94
loop_
_atom_site_label
_atom_site_type_symbol
_atom_site_fract_x
_atom_site_fract_y
_atom_site_fract_z
Zn1 Zn 0.98698(5) 0.37982(4) 0.18682(2)
I1 I 0.94762(4) 0.14394(3) 0.202874(13)
I2 I 1.19734(3) 0.44161(3) 0.141890(15)
N1 N 0.9835(3) 0.4680(3) 0.27446(16)
N2 N 1.0156(3) 0.7412(3) 0.47632(15)
N3 N 1.3152(4) 1.0368(3) 0.62933(16)
N4 N 0.3598(4) 0.6531(4) 0.5617(2)
Cl1 Cl 0.73272(12) 0.68256(14) 0.66791(5)
C1 C 0.9147(4) 0.4125(4) 0.31596(18)
H1 H 0.8769 0.3303 0.3056
C2 C 0.8960(4) 0.4690(4) 0.37296(19)
H2 H 0.8458 0.4266 0.4010
C3 C 0.9516(4) 0.5888(4) 0.38901(19)
C4 C 1.0292(5) 0.6436(4) 0.3483(2)
H3 H 1.0728 0.7234 0.3590
C5 C 1.0430(5) 0.5814(4) 0.2917(2)
H4 H 1.0965 0.6200 0.2639
C6 C 0.9212(4) 0.6570(4) 0.44726(19)
C7 C 0.7979(4) 0.6352(4) 0.46713(19)
H5 H 0.7347 0.5740 0.4452
C8 C 0.7665(4) 0.7031(4) 0.51932(18)
C9 C 0.8651(4) 0.7892(4) 0.55002(18)
H6 H 0.8486 0.8373 0.5862
C10 C 0.9868(4) 0.8047(4) 0.52791(17)
C11 C 1.3163(5) 0.9932(4) 0.56910(19)
H7 H 1.3938 1.0112 0.5499
C12 C 1.2083(4) 0.9227(4) 0.53397(19)
H8 H 1.2111 0.8958 0.4908
C13 C 1.0970(4) 0.8916(4) 0.56149(18)
C14 C 1.0938(5) 0.9417(5) 0.6227(2)
H9 H 1.0160 0.9278 0.6423
C15 C 1.2036(5) 1.0113(6) 0.6544(2)
H10 H 1.2003 1.0433 0.6966
C16 C 0.3831(5) 0.6610(5) 0.5015(2)
H11 H 0.3064 0.6548 0.4662
C17 C 0.5130(4) 0.6778(4) 0.4870(2)
H12 H 0.5227 0.6831 0.4428
C18 C 0.6293(4) 0.6870(4) 0.53650(19)
C19 C 0.6037(4) 0.6786(4) 0.5996(2)
C20 C 0.4685(5) 0.6617(4) 0.6091(2)
H13 H 0.4543 0.6559 0.6527
Zn1C Zn 1.48698(5) 1.12018(4) 0.68682(2)
N3C N 0.8152(4) 0.4632(3) 0.12933(16)
O1 O 1.000(5) 0.813(3) 0.3087(12)
loop_
_geom_bond_atom_site_label_1
_geom_bond_atom_site_label_2
_geom_bond_site_symmetry_1
_geom_bond_site_symmetry_2
Zn1 I1 1_555 1_555
I2 Zn1 1_555 1_555
N1 Zn1 1_555 1_555
N2 C6 1_555 1_555
N3 C11 1_555 1_555
N4 C16 1_555 1_555
Cl1 C19 1_555 1_555
C1 N1 1_555 1_555
H1 C1 1_555 1_555
C2 C1 1_555 1_555
H2 C2 1_555 1_555
C3 C2 1_555 1_555
C4 C3 1_555 1_555
H3 C4 1_555 1_555
C5 N1 1_555 1_555
H4 C5 1_555 1_555
C6 C3 1_555 1_555
C7 C6 1_555 1_555
H5 C7 1_555 1_555
C8 C7 1_555 1_555
C9 C8 1_555 1_555
H6 C9 1_555 1_555
C10 N2 1_555 1_555
C11 H7 1_555 1_555
C12 C11 1_555 1_555
H8 C12 1_555 1_555
C13 C10 1_555 1_555
C14 C13 1_555 1_555
H9 C14 1_555 1_555
C15 N3 1_555 1_555
H10 C15 1_555 1_555
C16 H11 1_555 1_555
C17 C16 1_555 1_555
H12 C17 1_555 1_555
C18 C8 1_555 1_555
C19 C18 1_555 1_555
C20 N4 1_555 1_555
H13 C20 1_555 1_555
Zn1C N3 1_555 1_555
N3C Zn1 1_555 1_555
C4 C5 1_555 1_555
C9 C10 1_555 1_555
C12 C13 1_555 1_555
C14 C15 1_555 1_555
C17 C18 1_555 1_555
C19 C20 1_555 1_555

#END
