
#######################################################################
#
#                 Cambridge Crystallographic Data Centre
#                                CCDC 
#
#######################################################################
#
# If this CIF has been generated from an entry in the Cambridge 
# Structural Database, then it will include bibliographic, chemical, 
# crystal, experimental, refinement or atomic coordinate data resulting 
# from the CCDC's data processing and validation procedures.
#
#######################################################################

data_ECADUJ
_symmetry_cell_setting           triclinic
_symmetry_space_group_name_H-M   'P -1'
_symmetry_Int_Tables_number      2
_space_group_name_Hall           '-P 1'
loop_
_symmetry_equiv_pos_site_id
_symmetry_equiv_pos_as_xyz
1 x,y,z
2 -x,-y,-z
_cell_length_a                   7.631(5)
_cell_length_b                   9.653(5)
_cell_length_c                   14.908(5)
_cell_angle_alpha                95.559(5)
_cell_angle_beta                 90.729(5)
_cell_angle_gamma                97.844(5)
_cell_volume                     1082.39
loop_
_atom_site_label
_atom_site_type_symbol
_atom_site_fract_x
_atom_site_fract_y
_atom_site_fract_z
Zn1 Zn 0.0000 0.5000 0.5000
N1 N 0.1883(2) 0.68886(16) 0.50142(11)
N2 N -0.1333(2) 0.55849(17) 0.38531(11)
N3 N -0.6273(2) 0.5418(2) 0.23178(12)
N4 N 0.4514(2) 0.75482(19) -0.07189(13)
N5 N -0.0279(2) 0.69860(17) -0.23553(12)
O1 O -0.16283(18) 0.60345(15) 0.59106(10)
H1 H -0.134(3) 0.621(3) 0.6421(18)
C1 C -0.2879(4) 0.6945(4) 0.57343(19)
H2 H -0.3494 0.7168 0.6276
H3 H -0.3713 0.6487 0.5275
H4 H -0.2276 0.7793 0.5533
C2 C 0.2674(3) 0.7250(2) 0.42620(15)
H5 H 0.2402 0.6663 0.3732
C3 C 0.3875(3) 0.8452(2) 0.42277(15)
H6 H 0.4374 0.8657 0.3682
C4 C 0.4344(3) 0.9353(2) 0.50006(14)
C5 C 0.3531(3) 0.8962(2) 0.57831(17)
H7 H 0.3798 0.9518 0.6325
C6 C 0.2328(3) 0.7751(2) 0.57611(16)
H8 H 0.1800 0.7524 0.6296
C7 C -0.1869(3) 0.60490(18) 0.15465(13)
C8 C 0.0016(3) 0.63370(19) 0.15947(13)
H9 H 0.0604 0.6336 0.2145
C9 C 0.0974(3) 0.66139(19) 0.08491(13)
H10 H 0.2201 0.6805 0.0901
C10 C 0.0121(3) 0.66149(19) -0.00101(13)
C11 C -0.1771(3) 0.63331(19) -0.00579(13)
H11 H -0.2362 0.6326 -0.0608
C12 C -0.2722(3) 0.60750(19) 0.06929(13)
H12 H -0.3951 0.5913 0.0646
C13 C -0.2857(3) 0.5793(2) 0.23346(13)
C14 C -0.2015(3) 0.56858(19) 0.31677(14)
C15 C -0.4746(3) 0.5578(2) 0.23198(13)
C16 C 0.1113(3) 0.68968(19) -0.07798(13)
C17 C 0.3000(3) 0.7251(2) -0.07380(13)
C18 C 0.0312(3) 0.69345(19) -0.16448(14)
Zn1_2 Zn 1.0000 1.5000 0.5000
N1A N 0.8117(2) 1.31114(16) 0.49858(11)
N1A_2 N -0.1883(2) 0.31114(16) 0.49858(11)
N2A N 0.1333(2) 0.44151(17) 0.61469(11)
N3A N 0.6273(2) 0.4582(2) 0.76822(12)
N4A N -0.4514(2) 0.24518(19) 1.07189(13)
N5A N 0.0279(2) 0.30140(17) 1.23553(12)
O1A O 0.16283(18) 0.39655(15) 0.40894(10)
H1A H 0.134(3) 0.379(3) 0.3579(18)
C1A C 0.2879(4) 0.3055(4) 0.42657(19)
H2A H 0.3494 0.2832 0.3724
H3A H 0.3713 0.3513 0.4725
H4A H 0.2276 0.2207 0.4467
C2A C 0.7326(3) 1.2750(2) 0.57380(15)
H5A H 0.7598 1.3337 0.6268
C3A C 0.6125(3) 1.1548(2) 0.57723(15)
H6A H 0.5626 1.1343 0.6318
C4A C 0.5656(3) 1.0647(2) 0.49994(14)
C5A C 0.6469(3) 1.1038(2) 0.42169(17)
H7A H 0.6202 1.0482 0.3675
C6A C 0.7672(3) 1.2249(2) 0.42389(16)
H8A H 0.8200 1.2476 0.3704
C7A C 0.1869(3) 0.39510(18) 0.84535(13)
C8A C -0.0016(3) 0.36630(19) 0.84053(13)
H9A H -0.0604 0.3664 0.7855
C9A C -0.0974(3) 0.33861(19) 0.91509(13)
H10A H -0.2201 0.3195 0.9099
C10A C -0.0121(3) 0.33851(19) 1.00101(13)
C11A C 0.1771(3) 0.36669(19) 1.00579(13)
H11A H 0.2362 0.3674 1.0608
C12A C 0.2722(3) 0.39250(19) 0.93071(13)
H12A H 0.3951 0.4087 0.9354
C13A C 0.2857(3) 0.4207(2) 0.76654(13)
C14A C 0.2015(3) 0.43142(19) 0.68323(14)
C15A C 0.4746(3) 0.4422(2) 0.76802(13)
C16A C -0.1113(3) 0.31032(19) 1.07798(13)
C17A C -0.3000(3) 0.2749(2) 1.07380(13)
C18A C -0.0312(3) 0.30655(19) 1.16448(14)
N6 N 0.0186(3) 0.9529(2) 0.31394(14)
N7 N -0.4994(3) 0.9046(2) 0.18169(14)
C19 C -0.0798(3) 0.97453(19) 0.08336(14)
C20 C 0.1100(3) 1.00697(19) 0.07791(14)
H13 H 0.1807 1.0113 0.1296
C21 C -0.1860(3) 0.96884(19) 0.00145(14)
H14 H -0.3084 0.9482 0.0036
C22 C -0.1590(3) 0.9507(2) 0.16441(14)
C23 C -0.3486(3) 0.9240(2) 0.17275(15)
C24 C -0.0579(3) 0.9526(2) 0.24704(16)
N6A N -0.0186(3) 1.0471(2) -0.31394(14)
N7A N 0.4994(3) 1.0954(2) -0.18169(14)
C19A C 0.0798(3) 1.02547(19) -0.08336(14)
C20A C -0.1100(3) 0.99303(19) -0.07791(14)
H13A H -0.1807 0.9887 -0.1296
C21A C 0.1860(3) 1.03116(19) -0.00145(14)
H14A H 0.3084 1.0518 -0.0036
C22A C 0.1590(3) 1.0493(2) -0.16441(14)
C23A C 0.3486(3) 1.0760(2) -0.17275(15)
C24A C 0.0579(3) 1.0474(2) -0.24704(16)
loop_
_geom_bond_atom_site_label_1
_geom_bond_atom_site_label_2
_geom_bond_site_symmetry_1
_geom_bond_site_symmetry_2
Zn1 N1 1_555 1_555
N1 C2 1_555 1_555
N2 Zn1 1_555 1_555
N3 C15 1_555 1_555
N4 C17 1_555 1_555
N5 C18 1_555 1_555
N6 C24 1_555 1_555
N7 C23 1_555 1_555
O1 Zn1 1_555 1_555
H1 O1 1_555 1_555
C1 O1 1_555 1_555
H2 C1 1_555 1_555
H3 C1 1_555 1_555
H4 C1 1_555 1_555
C2 H5 1_555 1_555
C3 C2 1_555 1_555
H6 C3 1_555 1_555
C4 C3 1_555 1_555
C5 C4 1_555 1_555
H7 C5 1_555 1_555
C6 N1 1_555 1_555
H8 C6 1_555 1_555
C7 C8 1_555 1_555
C8 H9 1_555 1_555
C9 C8 1_555 1_555
H10 C9 1_555 1_555
C10 C9 1_555 1_555
C11 C10 1_555 1_555
H11 C11 1_555 1_555
C12 C7 1_555 1_555
H12 C12 1_555 1_555
C13 C7 1_555 1_555
C14 N2 1_555 1_555
C15 C13 1_555 1_555
C16 C10 1_555 1_555
C17 C16 1_555 1_555
C18 C16 1_555 1_555
C19 C20 1_555 1_555
C20 H13 1_555 1_555
C21 C19 1_555 1_555
H14 C21 1_555 1_555
C22 C19 1_555 1_555
C23 C22 1_555 1_555
C24 C22 1_555 1_555
Zn1_2 N1A 1_555 1_555
N1A C2A 1_555 1_555
N1A_2 Zn1 1_555 1_555
N2A Zn1 1_555 1_555
N3A C15A 1_555 1_555
N4A C17A 1_555 1_555
N5A C18A 1_555 1_555
N6A C24A 1_555 1_555
N7A C23A 1_555 1_555
O1A Zn1 1_555 1_555
H1A O1A 1_555 1_555
C1A O1A 1_555 1_555
H2A C1A 1_555 1_555
H3A C1A 1_555 1_555
H4A C1A 1_555 1_555
C2A H5A 1_555 1_555
C3A C2A 1_555 1_555
H6A C3A 1_555 1_555
C4A C4 1_555 1_555
C5A C4A 1_555 1_555
H7A C5A 1_555 1_555
C6A N1A 1_555 1_555
H8A C6A 1_555 1_555
C7A C8A 1_555 1_555
C8A H9A 1_555 1_555
C9A C8A 1_555 1_555
H10A C9A 1_555 1_555
C10A C9A 1_555 1_555
C11A C10A 1_555 1_555
H11A C11A 1_555 1_555
C12A C7A 1_555 1_555
H12A C12A 1_555 1_555
C13A C7A 1_555 1_555
C14A N2A 1_555 1_555
C15A C13A 1_555 1_555
C16A C10A 1_555 1_555
C17A C16A 1_555 1_555
C18A C16A 1_555 1_555
C19A C20A 1_555 1_555
C20A C21 1_555 1_555
H13A C20A 1_555 1_555
C21A C20 1_555 1_555
H14A C21A 1_555 1_555
C22A C19A 1_555 1_555
C23A C22A 1_555 1_555
C24A C22A 1_555 1_555
C5 C6 1_555 1_555
C11 C12 1_555 1_555
C13 C14 1_555 1_555
C3A C4A 1_555 1_555
C5A C6A 1_555 1_555
C11A C12A 1_555 1_555
C13A C14A 1_555 1_555
C19A C21A 1_555 1_555

#END
