
#######################################################################
#
#                 Cambridge Crystallographic Data Centre
#                                CCDC 
#
#######################################################################
#
# If this CIF has been generated from an entry in the Cambridge 
# Structural Database, then it will include bibliographic, chemical, 
# crystal, experimental, refinement or atomic coordinate data resulting 
# from the CCDC's data processing and validation procedures.
#
#######################################################################

data_ECAHOG
_symmetry_cell_setting           monoclinic
_symmetry_space_group_name_H-M   'C 2/c'
_symmetry_Int_Tables_number      15
_space_group_name_Hall           '-C 2yn'
loop_
_symmetry_equiv_pos_site_id
_symmetry_equiv_pos_as_xyz
1 x,y,z
2 1/2+x,1/2+y,z
3 -x,y,1/2-z
4 1/2-x,1/2+y,1/2-z
5 -x,-y,-z
6 1/2-x,1/2-y,-z
7 x,-y,1/2+z
8 1/2+x,1/2-y,1/2+z
_cell_length_a                   19.5706(3)
_cell_length_b                   20.7246(5)
_cell_length_c                   14.1497(3)
_cell_angle_alpha                90
_cell_angle_beta                 118.309(1)
_cell_angle_gamma                90
_cell_volume                     5052.65
loop_
_atom_site_label
_atom_site_type_symbol
_atom_site_fract_x
_atom_site_fract_y
_atom_site_fract_z
Mn1 Mn 0.26670(4) 0.25033(3) 0.24139(6)
N1 N 0.2931(2) 0.14189(18) 0.2798(3)
N2 N 0.1550(3) 0.19452(19) 0.1582(4)
N3 N 0.2917(3) 0.2762(2) 0.4114(4)
N4 N 0.3215(2) 0.34927(18) 0.2759(3)
N5 N 0.2681(3) 0.2520(3) 0.0878(4)
N6 N 0.4147(2) 0.2220(2) 0.3311(3)
N7 N 0.1433(3) 0.3210(2) 0.1868(3)
N8 N 0.2500 0.2500 0.0000
C1 C 0.4762(3) 0.2616(3) 0.3564(4)
H1 H 0.4686 0.3060 0.3507
C2 C 0.5490(3) 0.2374(3) 0.3902(4)
H2 H 0.5900 0.2655 0.4056
C3 C 0.5624(3) 0.1722(3) 0.4019(4)
H3 H 0.6122 0.1557 0.4264
C4 C 0.5011(3) 0.1321(3) 0.3767(4)
H4 H 0.5082 0.0876 0.3827
C5 C 0.4274(3) 0.1587(3) 0.3418(4)
C6 C 0.3601(3) 0.1181(3) 0.3127(4)
H5 H 0.3663 0.0735 0.3184
C7 C 0.2260(3) 0.0988(3) 0.2453(6)
H6 H 0.2077 0.0984 0.2981
H7 H 0.2398 0.0552 0.2363
C8 C 0.1646(4) 0.1249(3) 0.1405(5)
H8 H 0.1802 0.1201 0.0853
H9 H 0.1161 0.1019 0.1180
C9 C 0.0885(3) 0.2179(3) 0.1302(4)
H10 H 0.0450 0.1914 0.0986
C10 C 0.0797(3) 0.2848(2) 0.1467(4)
C11 C 0.0067(3) 0.3108(3) 0.1154(4)
H11 H -0.0371 0.2846 0.0862
C12 C 0.0003(4) 0.3748(3) 0.1281(5)
H12 H -0.0477 0.3934 0.1096
C13 C 0.0662(4) 0.4118(3) 0.1688(5)
H13 H 0.0635 0.4560 0.1775
C14 C 0.1361(4) 0.3830(3) 0.1966(5)
H14 H 0.1803 0.4087 0.2237
C15 C 0.3375(3) 0.3852(3) 0.2096(5)
H15 H 0.3186 0.3731 0.1383
C16 C 0.3829(4) 0.4410(3) 0.2491(7)
H16 H 0.3958 0.4650 0.2043
C17 C 0.4078(4) 0.4600(3) 0.3505(7)
H17 H 0.4381 0.4970 0.3759
C18 C 0.3891(4) 0.4258(3) 0.4158(5)
H18 H 0.4048 0.4389 0.4860
C19 C 0.3458(3) 0.3706(2) 0.3743(4)
C20 C 0.3246(3) 0.3299(3) 0.4445(4)
H19 H 0.3357 0.3445 0.5125
C21 C 0.2759(6) 0.2358(3) 0.4842(8)
H20 H 0.2544 0.1950 0.4491
H21 H 0.3246 0.2267 0.5479
Mn1E Mn 0.23330(4) 0.24967(3) 0.75861(6)
Mn1E_2 Mn 0.23330(4) 0.24967(3) -0.24139(6)
N1E N 0.2069(2) 0.35811(18) 0.7202(3)
N2E N 0.3450(3) 0.30548(19) 0.8418(4)
N3E N 0.2083(3) 0.2238(2) 0.5886(4)
N4E N 0.1785(2) 0.15073(18) 0.7241(3)
N5E N 0.2319(3) 0.2480(3) -0.0878(4)
N5E_2 N 0.2319(3) 0.2480(3) 0.9122(4)
N6E N 0.0853(2) 0.2780(2) 0.6689(3)
N7E N 0.3567(3) 0.1790(2) 0.8132(3)
C1E C 0.0238(3) 0.2384(3) 0.6436(4)
H1E H 0.0314 0.1940 0.6493
C2E C -0.0490(3) 0.2626(3) 0.6098(4)
H2E H -0.0900 0.2345 0.5944
C3E C -0.0624(3) 0.3278(3) 0.5981(4)
H3E H -0.1122 0.3443 0.5736
C4E C -0.0011(3) 0.3679(3) 0.6233(4)
H4E H -0.0082 0.4124 0.6173
C5E C 0.0726(3) 0.3413(3) 0.6582(4)
C6E C 0.1399(3) 0.3819(3) 0.6873(4)
H5E H 0.1337 0.4265 0.6816
C7E C 0.2740(3) 0.4012(3) 0.7547(6)
H6E H 0.2923 0.4016 0.7019
H7E H 0.2602 0.4448 0.7637
C8E C 0.3354(4) 0.3751(3) 0.8595(5)
H8E H 0.3198 0.3799 0.9147
H9E H 0.3839 0.3981 0.8820
C9E C 0.4115(3) 0.2821(3) 0.8698(4)
H10E H 0.4550 0.3086 0.9014
C10E C 0.4203(3) 0.2152(2) 0.8533(4)
C11E C 0.4933(3) 0.1892(3) 0.8846(4)
H11E H 0.5371 0.2154 0.9138
C12E C 0.4997(4) 0.1252(3) 0.8719(5)
H12E H 0.5477 0.1066 0.8904
C13E C 0.4338(4) 0.0882(3) 0.8312(5)
H13E H 0.4365 0.0440 0.8225
C14E C 0.3639(4) 0.1170(3) 0.8034(5)
H14E H 0.3197 0.0913 0.7763
C15E C 0.1625(3) 0.1148(3) 0.7904(5)
H15E H 0.1814 0.1269 0.8617
C16E C 0.1171(4) 0.0590(3) 0.7509(7)
H16E H 0.1042 0.0350 0.7957
C17E C 0.0922(4) 0.0400(3) 0.6495(7)
H17E H 0.0619 0.0030 0.6241
C18E C 0.1109(4) 0.0742(3) 0.5842(5)
H18E H 0.0952 0.0611 0.5140
C19E C 0.1542(3) 0.1294(2) 0.6257(4)
C20E C 0.1754(3) 0.1701(3) 0.5555(4)
H19E H 0.1643 0.1555 0.4875
C21E C 0.2241(6) 0.2642(3) 0.5158(8)
H20E H 0.2456 0.3050 0.5509
H21E H 0.1754 0.2733 0.4521
Cl1 Cl 0.30724(11) -0.00130(8) 0.03717(14)
O1 O 0.2474(8) 0.0325(8) 0.0179(9)
O2 O 0.3217(6) 0.0149(4) -0.0450(6)
O3 O 0.3697(6) 0.0159(3) 0.1359(6)
O4 O 0.3006(5) -0.0691(3) 0.0323(6)
Cl2 Cl 0.0000 0.11423(11) 0.2500
O5 O 0.0020(6) 0.0829(4) 0.1727(7)
O6 O 0.0568(6) 0.1573(5) 0.2983(5)
O5B O -0.0020(6) 0.0829(4) 0.3273(7)
O6B O -0.0568(6) 0.1573(5) 0.2017(5)
loop_
_geom_bond_atom_site_label_1
_geom_bond_atom_site_label_2
_geom_bond_site_symmetry_1
_geom_bond_site_symmetry_2
Mn1 N1 1_555 1_555
Cl1 O1 1_555 1_555
Cl2 O5 1_555 1_555
O2 Cl1 1_555 1_555
O3 Cl1 1_555 1_555
O4 Cl1 1_555 1_555
O6 Cl2 1_555 1_555
N1 C6 1_555 1_555
N2 Mn1 1_555 1_555
N3 Mn1 1_555 1_555
N4 Mn1 1_555 1_555
N5 Mn1 1_555 1_555
N6 Mn1 1_555 1_555
N7 Mn1 1_555 1_555
N8 N5 1_555 1_555
C1 N6 1_555 1_555
H1 C1 1_555 1_555
C2 C1 1_555 1_555
H2 C2 1_555 1_555
C3 C2 1_555 1_555
H3 C3 1_555 1_555
C4 C3 1_555 1_555
H4 C4 1_555 1_555
C5 N6 1_555 1_555
C6 C5 1_555 1_555
H5 C6 1_555 1_555
C7 N1 1_555 1_555
H6 C7 1_555 1_555
H7 C7 1_555 1_555
C8 N2 1_555 1_555
H8 C8 1_555 1_555
H9 C8 1_555 1_555
C9 N2 1_555 1_555
H10 C9 1_555 1_555
C10 N7 1_555 1_555
C11 C10 1_555 1_555
H11 C11 1_555 1_555
C12 C11 1_555 1_555
H12 C12 1_555 1_555
C13 C12 1_555 1_555
H13 C13 1_555 1_555
C14 N7 1_555 1_555
H14 C14 1_555 1_555
C15 N4 1_555 1_555
H15 C15 1_555 1_555
C16 C15 1_555 1_555
H16 C16 1_555 1_555
C17 C16 1_555 1_555
H17 C17 1_555 1_555
C18 C17 1_555 1_555
H18 C18 1_555 1_555
C19 N4 1_555 1_555
C20 N3 1_555 1_555
H19 C20 1_555 1_555
C21 N3 1_555 1_555
H20 C21 1_555 1_555
H21 C21 1_555 1_555
Mn1E N1E 1_555 1_555
Mn1E_2 N5E 1_555 1_555
O5B Cl2 1_555 1_555
O6B Cl2 1_555 1_555
N1E C6E 1_555 1_555
N2E Mn1E 1_555 1_555
N3E Mn1E 1_555 1_555
N4E Mn1E 1_555 1_555
N5E N8 1_555 1_555
N5E_2 Mn1E 1_555 1_555
N6E Mn1E 1_555 1_555
N7E Mn1E 1_555 1_555
C1E N6E 1_555 1_555
H1E C1E 1_555 1_555
C2E C1E 1_555 1_555
H2E C2E 1_555 1_555
C3E C2E 1_555 1_555
H3E C3E 1_555 1_555
C4E C3E 1_555 1_555
H4E C4E 1_555 1_555
C5E N6E 1_555 1_555
C6E C5E 1_555 1_555
H5E C6E 1_555 1_555
C7E N1E 1_555 1_555
H6E C7E 1_555 1_555
H7E C7E 1_555 1_555
C8E N2E 1_555 1_555
H8E C8E 1_555 1_555
H9E C8E 1_555 1_555
C9E N2E 1_555 1_555
H10E C9E 1_555 1_555
C10E N7E 1_555 1_555
C11E C10E 1_555 1_555
H11E C11E 1_555 1_555
C12E C11E 1_555 1_555
H12E C12E 1_555 1_555
C13E C12E 1_555 1_555
H13E C13E 1_555 1_555
C14E N7E 1_555 1_555
H14E C14E 1_555 1_555
C15E N4E 1_555 1_555
H15E C15E 1_555 1_555
C16E C15E 1_555 1_555
H16E C16E 1_555 1_555
C17E C16E 1_555 1_555
H17E C17E 1_555 1_555
C18E C17E 1_555 1_555
H18E C18E 1_555 1_555
C19E N4E 1_555 1_555
C20E N3E 1_555 1_555
H19E C20E 1_555 1_555
C21E C21 1_555 1_555
H20E C21E 1_555 1_555
H21E C21E 1_555 1_555
C4 C5 1_555 1_555
C7 C8 1_555 1_555
C9 C10 1_555 1_555
C13 C14 1_555 1_555
C18 C19 1_555 1_555
C19 C20 1_555 1_555
N3E C21E 1_555 1_555
C4E C5E 1_555 1_555
C7E C8E 1_555 1_555
C9E C10E 1_555 1_555
C13E C14E 1_555 1_555
C18E C19E 1_555 1_555
C19E C20E 1_555 1_555

#END
