
#######################################################################
#
#                 Cambridge Crystallographic Data Centre
#                                CCDC 
#
#######################################################################
#
# If this CIF has been generated from an entry in the Cambridge 
# Structural Database, then it will include bibliographic, chemical, 
# crystal, experimental, refinement or atomic coordinate data resulting 
# from the CCDC's data processing and validation procedures.
#
#######################################################################

data_ECAJEX
_symmetry_cell_setting           monoclinic
_symmetry_space_group_name_H-M   'P 21/c'
_symmetry_Int_Tables_number      14
_space_group_name_Hall           '-P 2ybc'
loop_
_symmetry_equiv_pos_site_id
_symmetry_equiv_pos_as_xyz
1 x,y,z
2 -x,1/2+y,1/2-z
3 -x,-y,-z
4 x,1/2-y,1/2+z
_cell_length_a                   8.288(1)
_cell_length_b                   8.966(1)
_cell_length_c                   16.190(1)
_cell_angle_alpha                90
_cell_angle_beta                 90.550(1)
_cell_angle_gamma                90
_cell_volume                     1203.03
loop_
_atom_site_label
_atom_site_type_symbol
_atom_site_fract_x
_atom_site_fract_y
_atom_site_fract_z
Co1 Co 0.7456(1) 0.1953(1) 0.5191(1)
O1 O 0.9740(2) 0.1824(1) 0.4635(1)
O2 O 1.1486(2) 0.0058(2) 0.4248(1)
O3 O 0.6559(2) 0.0405(2) 0.4315(1)
O4 O 0.4641(2) -0.1337(2) 0.4234(1)
N1 N 0.6785(2) 0.3841(2) 0.4472(1)
N2 N 0.8041(2) 0.3405(2) 0.6144(1)
N3 N 0.8269(2) 0.5547(2) 0.5301(1)
C1 C 0.5913(3) 0.3628(2) 0.3768(1)
C2 C 0.5740(3) 0.4669(3) 0.3158(1)
C3 C 0.6511(3) 0.6032(3) 0.3261(1)
C4 C 0.7367(3) 0.6295(2) 0.3969(1)
C5 C 0.7459(2) 0.5189(2) 0.4576(1)
C6 C 0.8320(2) 0.4870(2) 0.6066(1)
C7 C 0.8707(3) 0.5770(2) 0.6749(1)
C8 C 0.8772(3) 0.5147(3) 0.7516(1)
C9 C 0.8446(3) 0.3632(2) 0.7607(1)
C10 C 0.8090(3) 0.2826(2) 0.6916(1)
C11 C 1.0365(2) 0.0535(2) 0.4674(1)
C12 C 0.5348(2) -0.0270(2) 0.4580(1)
C11B C 0.9635(2) -0.0535(2) 0.5326(1)
O1B O 1.0260(2) -0.1824(1) 0.5365(1)
O2B O 0.8514(2) -0.0058(2) 0.5752(1)
C12B C 0.4652(2) 0.0270(2) 0.5420(1)
O3B O 0.3441(2) -0.0405(2) 0.5685(1)
O4B O 0.5359(2) 0.1337(2) 0.5766(1)
Co1B Co 1.2544(1) -0.1953(1) 0.4809(1)
N1B N 1.3215(2) -0.3841(2) 0.5528(1)
N2B N 1.1959(2) -0.3405(2) 0.3856(1)
N3B N 1.1731(2) -0.5547(2) 0.4699(1)
C1B C 1.4087(3) -0.3628(2) 0.6232(1)
C2B C 1.4260(3) -0.4669(3) 0.6842(1)
C3B C 1.3489(3) -0.6032(3) 0.6739(1)
C4B C 1.2633(3) -0.6295(2) 0.6031(1)
C5B C 1.2541(2) -0.5189(2) 0.5424(1)
C6B C 1.1680(2) -0.4870(2) 0.3934(1)
C7B C 1.1293(3) -0.5770(2) 0.3251(1)
C8B C 1.1228(3) -0.5147(3) 0.2484(1)
C9B C 1.1554(3) -0.3632(2) 0.2393(1)
C10B C 1.1910(3) -0.2826(2) 0.3084(1)
Co1B_2 Co 0.2544(1) -0.1953(1) 0.4809(1)
O3B_2 O 1.3441(2) -0.0405(2) 0.5685(1)
O4_2 O 1.4641(2) -0.1337(2) 0.4234(1)
loop_
_geom_bond_atom_site_label_1
_geom_bond_atom_site_label_2
_geom_bond_site_symmetry_1
_geom_bond_site_symmetry_2
Co1 O1 1_555 1_555
O1 C11 1_555 1_555
O2 C11 1_555 1_555
O3 Co1 1_555 1_555
O4 C12 1_555 1_555
N1 Co1 1_555 1_555
N2 Co1 1_555 1_555
N3 C5 1_555 1_555
C1 N1 1_555 1_555
C2 C1 1_555 1_555
C3 C2 1_555 1_555
C4 C3 1_555 1_555
C5 N1 1_555 1_555
C6 N2 1_555 1_555
C7 C6 1_555 1_555
C8 C7 1_555 1_555
C9 C8 1_555 1_555
C10 N2 1_555 1_555
C11 C11B 1_555 1_555
C12 O3 1_555 1_555
C11B O1B 1_555 1_555
O1B Co1B 1_555 1_555
O2B Co1 1_555 1_555
C12B C12 1_555 1_555
O3B C12B 1_555 1_555
O4B Co1 1_555 1_555
Co1B O2 1_555 1_555
N1B Co1B 1_555 1_555
N2B Co1B 1_555 1_555
N3B C5B 1_555 1_555
C1B N1B 1_555 1_555
C2B C1B 1_555 1_555
C3B C2B 1_555 1_555
C4B C3B 1_555 1_555
C5B N1B 1_555 1_555
C6B N2B 1_555 1_555
C7B C6B 1_555 1_555
C8B C7B 1_555 1_555
C9B C8B 1_555 1_555
C10B N2B 1_555 1_555
Co1B_2 O4 1_555 1_555
O3B_2 Co1B 1_555 1_555
O4_2 Co1B 1_555 1_555
N3 C6 1_555 1_555
C4 C5 1_555 1_555
C9 C10 1_555 1_555
C11B O2B 1_555 1_555
C12B O4B 1_555 1_555
O3B Co1B_2 1_555 1_555
N3B C6B 1_555 1_555
C4B C5B 1_555 1_555
C9B C10B 1_555 1_555

#END
