
#######################################################################
#
#                 Cambridge Crystallographic Data Centre
#                                CCDC 
#
#######################################################################
#
# If this CIF has been generated from an entry in the Cambridge 
# Structural Database, then it will include bibliographic, chemical, 
# crystal, experimental, refinement or atomic coordinate data resulting 
# from the CCDC's data processing and validation procedures.
#
#######################################################################

data_ECAJAU
_symmetry_cell_setting           orthorhombic
_symmetry_space_group_name_H-M   'P b c n'
_symmetry_Int_Tables_number      60
_space_group_name_Hall           '-P 2n 2ab'
loop_
_symmetry_equiv_pos_site_id
_symmetry_equiv_pos_as_xyz
1 x,y,z
2 1/2-x,1/2-y,1/2+z
3 -x,y,1/2-z
4 1/2+x,1/2-y,-z
5 -x,-y,-z
6 1/2+x,1/2+y,1/2-z
7 x,-y,1/2+z
8 1/2-x,1/2+y,z
_cell_length_a                   12.5606(6)
_cell_length_b                   17.2500(8)
_cell_length_c                   18.1617(9)
_cell_angle_alpha                90
_cell_angle_beta                 90
_cell_angle_gamma                90
_cell_volume                     3935.1
loop_
_atom_site_label
_atom_site_type_symbol
_atom_site_fract_x
_atom_site_fract_y
_atom_site_fract_z
Mn1 Mn 0.5000 0.73528(4) 0.7500
Mn2 Mn 0.5000 0.53408(4) 0.7500
N1 N 0.5542(2) 0.63350(14) 0.68228(13)
N2 N 0.5461(2) 0.63369(16) 0.61589(16)
N3 N 0.5388(3) 0.6351(2) 0.55313(16)
N4 N 0.4666(2) 0.80555(17) 0.85378(16)
N5 N 0.0414(2) 0.94453(19) 0.83500(18)
N6 N 0.6578(2) 0.75309(15) 0.80539(14)
N7 N -0.1500(2) 1.01443(15) 0.81619(14)
C1 C 0.5441(3) 0.8038(2) 0.8993(2)
H1 H 0.5332 0.8196 0.9488
C2 C 0.6493(3) 0.7776(2) 0.87586(19)
C3 C 0.7357(3) 0.7774(2) 0.9240(2)
H2 H 0.7268 0.7919 0.9741
C4 C 0.8338(3) 0.7558(2) 0.8978(2)
H3 H 0.8942 0.7570 0.9292
C5 C 0.8439(3) 0.7323(2) 0.8253(2)
H4 H 0.9111 0.7175 0.8059
C6 C 0.7534(3) 0.73099(19) 0.78185(18)
H5 H 0.7599 0.7133 0.7325
C7 C 0.3627(3) 0.8334(2) 0.8809(2)
H6 H 0.3642 0.8387 0.9351
H7 H 0.3059 0.7961 0.8676
C8 C 0.3414(3) 0.9107(2) 0.8456(2)
H8 H 0.3456 0.9051 0.7915
H9 H 0.3972 0.9478 0.8611
C9 C 0.2292(3) 0.9446(2) 0.8667(2)
H10 H 0.2228 0.9470 0.9210
H11 H 0.2229 0.9980 0.8473
C10 C 0.1415(3) 0.8964(2) 0.8365(2)
H12 H 0.1308 0.8500 0.8677
H13 H 0.1596 0.8790 0.7861
C11 C -0.0297(3) 0.9350(3) 0.8847(2)
H14 H -0.0155 0.9021 0.9255
C12 C -0.1337(3) 0.9747(2) 0.87932(19)
C13 C -0.2117(3) 0.9667(2) 0.9317(2)
H15 H -0.1975 0.9397 0.9762
C14 C -0.3111(3) 0.9985(2) 0.9189(2)
H16 H -0.3658 0.9946 0.9548
C15 C -0.3297(3) 1.0361(2) 0.8528(2)
H17 H -0.3980 1.0564 0.8413
C16 C -0.2458(3) 1.04332(19) 0.8038(2)
H18 H -0.2578 1.0704 0.7590
Mn2E Mn 0.0000 1.03408(4) 0.7500
Mn2E_2 Mn 1.0000 1.03408(4) 0.7500
N1B N 0.4458(2) 0.63350(14) 0.81772(13)
N2B N 0.4539(2) 0.63369(16) 0.88411(16)
N3B N 0.4612(3) 0.6351(2) 0.94687(16)
N4B N 0.5334(2) 0.80555(17) 0.64622(16)
N5B N 0.9586(2) 0.94453(19) 0.66500(18)
N5E N 0.5414(2) 0.44453(19) 0.66500(18)
N5G N 0.4586(2) 0.44453(19) 0.83500(18)
N6B N 0.3422(2) 0.75309(15) 0.69461(14)
N7B N 1.1500(2) 1.01443(15) 0.68381(14)
N7E N 0.3500(2) 0.51443(15) 0.68381(14)
N7G N 0.6500(2) 0.51443(15) 0.81619(14)
C1B C 0.4559(3) 0.8038(2) 0.6007(2)
H1B H 0.4668 0.8196 0.5512
C2B C 0.3507(3) 0.7776(2) 0.62414(19)
C3B C 0.2643(3) 0.7774(2) 0.5760(2)
H2B H 0.2732 0.7919 0.5259
C4B C 0.1662(3) 0.7558(2) 0.6022(2)
H3B H 0.1058 0.7570 0.5708
C5B C 0.1561(3) 0.7323(2) 0.6747(2)
H4B H 0.0889 0.7175 0.6941
C6B C 0.2466(3) 0.73099(19) 0.71815(18)
H5B H 0.2401 0.7133 0.7675
C7B C 0.6373(3) 0.8334(2) 0.6191(2)
H6B H 0.6358 0.8387 0.5649
H7B H 0.6941 0.7961 0.6324
C8B C 0.6586(3) 0.9107(2) 0.6544(2)
H8B H 0.6544 0.9051 0.7085
H9B H 0.6028 0.9478 0.6389
C9B C 0.7708(3) 0.9446(2) 0.6333(2)
H10B H 0.7772 0.9470 0.5790
H11B H 0.7771 0.9980 0.6527
C10B C 0.8585(3) 0.8964(2) 0.6635(2)
H12B H 0.8692 0.8500 0.6323
H13B H 0.8404 0.8790 0.7139
C11B C 1.0297(3) 0.9350(3) 0.6153(2)
H14B H 1.0155 0.9021 0.5745
C12B C 1.1337(3) 0.9747(2) 0.62068(19)
C13B C 1.2117(3) 0.9667(2) 0.5683(2)
H15B H 1.1975 0.9397 0.5238
C14B C 1.3111(3) 0.9985(2) 0.5811(2)
H16B H 1.3658 0.9946 0.5452
C15B C 1.3297(3) 1.0361(2) 0.6472(2)
H17B H 1.3980 1.0564 0.6587
C16B C 1.2458(3) 1.04332(19) 0.6962(2)
H18B H 1.2578 1.0704 0.7410
Cl1 Cl 0.89134(6) 0.63819(5) 0.60732(4)
O1 O 0.9194(2) 0.61973(17) 0.68149(13)
O2 O 0.9479(3) 0.5900(2) 0.55809(14)
O3 O 0.7796(2) 0.63017(18) 0.59589(19)
O4 O 0.9177(3) 0.71738(17) 0.59194(19)
loop_
_geom_bond_atom_site_label_1
_geom_bond_atom_site_label_2
_geom_bond_site_symmetry_1
_geom_bond_site_symmetry_2
Mn1 N1 1_555 1_555
Mn2 N1 1_555 1_555
N1 N2 1_555 1_555
N2 N3 1_555 1_555
N4 Mn1 1_555 1_555
N5 C10 1_555 1_555
N6 Mn1 1_555 1_555
N7 C12 1_555 1_555
C1 N4 1_555 1_555
H1 C1 1_555 1_555
C2 N6 1_555 1_555
C3 C2 1_555 1_555
H2 C3 1_555 1_555
C4 C3 1_555 1_555
H3 C4 1_555 1_555
C5 C4 1_555 1_555
H4 C5 1_555 1_555
C6 N6 1_555 1_555
H5 C6 1_555 1_555
C7 N4 1_555 1_555
H6 C7 1_555 1_555
H7 C7 1_555 1_555
C8 C7 1_555 1_555
H8 C8 1_555 1_555
H9 C8 1_555 1_555
C9 C8 1_555 1_555
H10 C9 1_555 1_555
H11 C9 1_555 1_555
C10 C9 1_555 1_555
H12 C10 1_555 1_555
H13 C10 1_555 1_555
C11 N5 1_555 1_555
H14 C11 1_555 1_555
C12 C11 1_555 1_555
C13 C12 1_555 1_555
H15 C13 1_555 1_555
C14 C13 1_555 1_555
H16 C14 1_555 1_555
C15 C14 1_555 1_555
H17 C15 1_555 1_555
C16 N7 1_555 1_555
H18 C16 1_555 1_555
Cl1 O1 1_555 1_555
O2 Cl1 1_555 1_555
O3 Cl1 1_555 1_555
O4 Cl1 1_555 1_555
Mn2E N5 1_555 1_555
Mn2E_2 N5B 1_555 1_555
N1B Mn1 1_555 1_555
N2B N1B 1_555 1_555
N3B N2B 1_555 1_555
N4B Mn1 1_555 1_555
N5B C10B 1_555 1_555
N5E Mn2 1_555 1_555
N5G Mn2 1_555 1_555
N6B Mn1 1_555 1_555
N7B Mn2E_2 1_555 1_555
N7E Mn2 1_555 1_555
N7G Mn2 1_555 1_555
C1B N4B 1_555 1_555
H1B C1B 1_555 1_555
C2B N6B 1_555 1_555
C3B C2B 1_555 1_555
H2B C3B 1_555 1_555
C4B C3B 1_555 1_555
H3B C4B 1_555 1_555
C5B C4B 1_555 1_555
H4B C5B 1_555 1_555
C6B N6B 1_555 1_555
H5B C6B 1_555 1_555
C7B N4B 1_555 1_555
H6B C7B 1_555 1_555
H7B C7B 1_555 1_555
C8B C7B 1_555 1_555
H8B C8B 1_555 1_555
H9B C8B 1_555 1_555
C9B C8B 1_555 1_555
H10B C9B 1_555 1_555
H11B C9B 1_555 1_555
C10B C9B 1_555 1_555
H12B C10B 1_555 1_555
H13B C10B 1_555 1_555
C11B N5B 1_555 1_555
H14B C11B 1_555 1_555
C12B N7B 1_555 1_555
C13B C12B 1_555 1_555
H15B C13B 1_555 1_555
C14B C13B 1_555 1_555
H16B C14B 1_555 1_555
C15B C14B 1_555 1_555
H17B C15B 1_555 1_555
C16B N7B 1_555 1_555
H18B C16B 1_555 1_555
Mn2 N1B 1_555 1_555
N7 Mn2E 1_555 1_555
C1 C2 1_555 1_555
C5 C6 1_555 1_555
C15 C16 1_555 1_555
C1B C2B 1_555 1_555
C5B C6B 1_555 1_555
C11B C12B 1_555 1_555
C15B C16B 1_555 1_555

#END
