
#######################################################################
#
#                 Cambridge Crystallographic Data Centre
#                                CCDC 
#
#######################################################################
#
# If this CIF has been generated from an entry in the Cambridge 
# Structural Database, then it will include bibliographic, chemical, 
# crystal, experimental, refinement or atomic coordinate data resulting 
# from the CCDC's data processing and validation procedures.
#
#######################################################################

data_ECALOK
_symmetry_cell_setting           triclinic
_symmetry_space_group_name_H-M   'P -1'
_symmetry_Int_Tables_number      2
_space_group_name_Hall           '-P 1'
loop_
_symmetry_equiv_pos_site_id
_symmetry_equiv_pos_as_xyz
1 x,y,z
2 -x,-y,-z
_cell_length_a                   10.2250(5)
_cell_length_b                   11.5836(6)
_cell_length_c                   12.1961(6)
_cell_angle_alpha                103.944(1)
_cell_angle_beta                 103.595(1)
_cell_angle_gamma                112.743(1)
_cell_volume                     1202.9
loop_
_atom_site_label
_atom_site_type_symbol
_atom_site_fract_x
_atom_site_fract_y
_atom_site_fract_z
Cd1 Cd 1.5000 1.0000 0.5000
F1 F 0.65292(18) 0.67504(16) 0.23649(15)
N1 N 1.2721(2) 0.9428(2) 0.5358(2)
O1 O 1.3810(2) 0.9900(2) 0.30989(16)
H1 H 1.2981 0.9946 0.2897
H2 H 1.3943 0.9573 0.2451
C1 C 1.1277(3) 0.8705(3) 0.4636(2)
H3 H 1.0932 0.8260 0.3783
F2 F 0.51569(19) 0.41026(16) 0.11123(14)
F3 F 0.79190(19) 0.35026(16) 0.44083(16)
N3 N 1.0345(2) 0.8677(2) 0.52683(19)
C2 C 1.1259(3) 0.9438(3) 0.6469(2)
H4 H 1.0937 0.9610 0.7133
F4 F 0.91990(17) 0.61412(16) 0.57102(14)
C3 C 1.2716(3) 0.9894(3) 0.6510(2)
H5 H 1.3601 1.0451 0.7226
F5 F 0.9830(2) 0.5145(2) 0.22052(16)
C4 C 0.8670(3) 0.8024(3) 0.4785(3)
H6 H 0.8329 0.8464 0.4261
H7 H 0.8311 0.8157 0.5469
F6 F 1.2108(2) 0.4453(3) -0.06450(19)
C5 C 0.7951(3) 0.6535(2) 0.4061(2)
C6 C 0.6903(3) 0.5965(3) 0.2889(2)
C7 C 0.6187(3) 0.4599(3) 0.2235(2)
C8 C 0.6506(3) 0.3720(3) 0.2712(2)
C9 C 0.7560(3) 0.4295(3) 0.3884(2)
C10 C 0.8244(3) 0.5656(3) 0.4549(2)
C11 C 0.5723(3) 0.2231(3) 0.1979(3)
H8 H 0.5885 0.1749 0.2523
H9 H 0.4613 0.1909 0.1615
N4 N 0.6294(2) 0.1914(2) 0.1010(2)
C12 C 0.5559(3) 0.1563(3) -0.0185(3)
H10 H 0.4580 0.1488 -0.0523
N5 N 0.6372(3) 0.1335(2) -0.0826(2)
C13 C 0.7697(3) 0.1552(3) 0.0018(2)
H11 H 0.8512 0.1463 -0.0170
C14 C 0.7665(3) 0.1910(3) 0.1150(2)
H12 H 0.8432 0.2115 0.1888
N6 N 1.4409(2) 0.7773(2) 0.41217(19)
C15 C 1.3430(3) 0.6980(3) 0.3011(2)
H13 H 1.2994 0.7280 0.2436
N7 N 1.3126(2) 0.5686(2) 0.27947(19)
C16 C 1.3971(3) 0.5654(3) 0.3833(2)
H14 H 1.4000 0.4885 0.3959
C17 C 1.4755(3) 0.6941(3) 0.4642(2)
H15 H 1.5440 0.7228 0.5447
C18 C 1.2071(4) 0.4499(3) 0.1678(3)
H16 H 1.1450 0.3757 0.1897
H17 H 1.2667 0.4194 0.1261
C19 C 1.1035(3) 0.4789(3) 0.0829(2)
C20 C 0.9924(3) 0.5062(3) 0.1108(2)
C21 C 1.1073(3) 0.4735(3) -0.0305(3)
Cd1_2 Cd 0.5000 0.0000 -0.5000
F1A F 2.34708(18) 1.32496(16) 0.76351(15)
N1A N 1.7279(2) 1.0572(2) 0.4642(2)
O1A O 1.6190(2) 1.0100(2) 0.69011(16)
H1A H 1.7019 1.0054 0.7103
H2A H 1.6057 1.0427 0.7549
C1A C 1.8723(3) 1.1295(3) 0.5364(2)
H3A H 1.9068 1.1740 0.6217
F2A F 2.48431(19) 1.58974(16) 0.88877(14)
F3A F 2.20810(19) 1.64974(16) 0.55917(16)
N3A N 1.9655(2) 1.1323(2) 0.47317(19)
C2A C 1.8741(3) 1.0562(3) 0.3531(2)
H4A H 1.9063 1.0390 0.2867
F4A F 2.08010(17) 1.38588(16) 0.42898(14)
C3A C 1.7284(3) 1.0106(3) 0.3490(2)
H5A H 1.6399 0.9549 0.2774
F5A F 1.0170(2) 0.4855(2) -0.22052(16)
C4A C 2.1330(3) 1.1976(3) 0.5215(3)
H6A H 2.1671 1.1536 0.5739
H7A H 2.1689 1.1843 0.4531
F6A F 0.7892(2) 0.5547(3) 0.06450(19)
C5A C 2.2049(3) 1.3465(2) 0.5939(2)
C6A C 2.3097(3) 1.4035(3) 0.7111(2)
C7A C 2.3813(3) 1.5401(3) 0.7765(2)
C8A C 2.3494(3) 1.6280(3) 0.7288(2)
C9A C 2.2440(3) 1.5705(3) 0.6116(2)
C10A C 2.1756(3) 1.4344(3) 0.5451(2)
C11A C 2.4277(3) 1.7769(3) 0.8021(3)
H8A H 2.4115 1.8251 0.7477
H9A H 2.5387 1.8091 0.8385
N4A N 2.3706(2) 1.8086(2) 0.8990(2)
C12A C 2.4441(3) 1.8437(3) 1.0185(3)
H10A H 2.5420 1.8512 1.0523
N5A N 2.3628(3) 1.8665(2) 1.0826(2)
C13A C 2.2303(3) 1.8448(3) 0.9982(2)
H11A H 2.1488 1.8537 1.0170
C14A C 2.2335(3) 1.8090(3) 0.8850(2)
H12A H 2.1568 1.7885 0.8112
N6A N 0.5591(2) 0.2227(2) -0.41217(19)
N6A_2 N 1.5591(2) 1.2227(2) 0.58783(19)
C15A C 0.6570(3) 0.3020(3) -0.3011(2)
H13A H 0.7006 0.2720 -0.2436
N7A N 0.6874(2) 0.4314(2) -0.27947(19)
C16A C 0.6029(3) 0.4346(3) -0.3833(2)
H14A H 0.6000 0.5115 -0.3959
C17A C 0.5245(3) 0.3059(3) -0.4642(2)
H15A H 0.4560 0.2772 -0.5447
C18A C 0.7929(4) 0.5501(3) -0.1678(3)
H16A H 0.8550 0.6243 -0.1897
H17A H 0.7333 0.5806 -0.1261
C19A C 0.8965(3) 0.5211(3) -0.0829(2)
C20A C 1.0076(3) 0.4938(3) -0.1108(2)
C21A C 0.8927(3) 0.5265(3) 0.0305(3)
N2 N 0.1618(3) 0.1392(2) 0.2161(2)
O2 O 0.2878(3) 0.2366(2) 0.2557(2)
O3 O 0.1408(3) 0.0393(3) 0.2465(3)
O4 O 0.0475(2) 0.1362(2) 0.1455(2)
O5 O 0.7787(3) 0.8687(3) 0.0488(3)
H18 H 0.7617 0.8430 -0.0282
H19 H 0.8589 0.9446 0.0753
loop_
_geom_bond_atom_site_label_1
_geom_bond_atom_site_label_2
_geom_bond_site_symmetry_1
_geom_bond_site_symmetry_2
Cd1 N1 1_555 1_555
F1 C6 1_555 1_555
N1 C1 1_555 1_555
O1 Cd1 1_555 1_555
H1 O1 1_555 1_555
H2 O1 1_555 1_555
C1 H3 1_555 1_555
F2 C7 1_555 1_555
N2 O2 1_555 1_555
F3 C9 1_555 1_555
N3 C1 1_555 1_555
O3 N2 1_555 1_555
C2 N3 1_555 1_555
H4 C2 1_555 1_555
F4 C10 1_555 1_555
O4 N2 1_555 1_555
C3 N1 1_555 1_555
H5 C3 1_555 1_555
F5 C20 1_555 1_555
C4 N3 1_555 1_555
H6 C4 1_555 1_555
H7 C4 1_555 1_555
F6 C21 1_555 1_555
C5 C4 1_555 1_555
C6 C5 1_555 1_555
C7 C6 1_555 1_555
C8 C7 1_555 1_555
C9 C8 1_555 1_555
C10 C5 1_555 1_555
C11 C8 1_555 1_555
H8 C11 1_555 1_555
H9 C11 1_555 1_555
N4 C11 1_555 1_555
C12 N4 1_555 1_555
H10 C12 1_555 1_555
N5 C12 1_555 1_555
C13 N5 1_555 1_555
H11 C13 1_555 1_555
C14 N4 1_555 1_555
H12 C14 1_555 1_555
N6 Cd1 1_555 1_555
C15 N6 1_555 1_555
H13 C15 1_555 1_555
N7 C15 1_555 1_555
C16 N7 1_555 1_555
H14 C16 1_555 1_555
C17 N6 1_555 1_555
H15 C17 1_555 1_555
C18 N7 1_555 1_555
H16 C18 1_555 1_555
H17 C18 1_555 1_555
C19 C18 1_555 1_555
C20 C19 1_555 1_555
C21 C19 1_555 1_555
O5 H18 1_555 1_555
H19 O5 1_555 1_555
Cd1_2 N6A 1_555 1_555
F1A C6A 1_555 1_555
N1A Cd1 1_555 1_555
O1A Cd1 1_555 1_555
H1A O1A 1_555 1_555
H2A O1A 1_555 1_555
C1A N1A 1_555 1_555
H3A C1A 1_555 1_555
F2A C7A 1_555 1_555
F3A C9A 1_555 1_555
N3A C1A 1_555 1_555
C2A N3A 1_555 1_555
H4A C2A 1_555 1_555
F4A C10A 1_555 1_555
C3A N1A 1_555 1_555
H5A C3A 1_555 1_555
F5A C20A 1_555 1_555
C4A N3A 1_555 1_555
H6A C4A 1_555 1_555
H7A C4A 1_555 1_555
F6A C21A 1_555 1_555
C5A C4A 1_555 1_555
C6A C5A 1_555 1_555
C7A C6A 1_555 1_555
C8A C7A 1_555 1_555
C9A C8A 1_555 1_555
C10A C5A 1_555 1_555
C11A C8A 1_555 1_555
H8A C11A 1_555 1_555
H9A C11A 1_555 1_555
N4A C11A 1_555 1_555
C12A N4A 1_555 1_555
H10A C12A 1_555 1_555
N5A C12A 1_555 1_555
C13A N5A 1_555 1_555
H11A C13A 1_555 1_555
C14A N4A 1_555 1_555
H12A C14A 1_555 1_555
N6A C15A 1_555 1_555
N6A_2 Cd1 1_555 1_555
C15A H13A 1_555 1_555
N7A C15A 1_555 1_555
C16A N7A 1_555 1_555
H14A C16A 1_555 1_555
C17A N6A 1_555 1_555
H15A C17A 1_555 1_555
C18A N7A 1_555 1_555
H16A C18A 1_555 1_555
H17A C18A 1_555 1_555
C19A C18A 1_555 1_555
C20A C21 1_555 1_555
C21A C20 1_555 1_555
C2 C3 1_555 1_555
C9 C10 1_555 1_555
C13 C14 1_555 1_555
C16 C17 1_555 1_555
C2A C3A 1_555 1_555
C9A C10A 1_555 1_555
C13A C14A 1_555 1_555
C16A C17A 1_555 1_555
C19A C20A 1_555 1_555
C19A C21A 1_555 1_555

#END
