
#######################################################################
#
#                 Cambridge Crystallographic Data Centre
#                                CCDC 
#
#######################################################################
#
# If this CIF has been generated from an entry in the Cambridge 
# Structural Database, then it will include bibliographic, chemical, 
# crystal, experimental, refinement or atomic coordinate data resulting 
# from the CCDC's data processing and validation procedures.
#
#######################################################################

data_ECALUQ
_symmetry_cell_setting           monoclinic
_symmetry_space_group_name_H-M   'C 2/c'
_symmetry_Int_Tables_number      15
_space_group_name_Hall           '-C 2yn'
loop_
_symmetry_equiv_pos_site_id
_symmetry_equiv_pos_as_xyz
1 x,y,z
2 1/2+x,1/2+y,z
3 -x,y,1/2-z
4 1/2-x,1/2+y,1/2-z
5 -x,-y,-z
6 1/2-x,1/2-y,-z
7 x,-y,1/2+z
8 1/2+x,1/2-y,1/2+z
_cell_length_a                   17.5825(8)
_cell_length_b                   10.6000(5)
_cell_length_c                   23.1545(11)
_cell_angle_alpha                90
_cell_angle_beta                 105.410(1)
_cell_angle_gamma                90
_cell_volume                     4160.27
loop_
_atom_site_label
_atom_site_type_symbol
_atom_site_fract_x
_atom_site_fract_y
_atom_site_fract_z
Ag1 Ag 1.018458(14) 0.76388(2) 0.489567(10)
C1 C 0.98309(19) 0.9983(3) 0.40392(14)
H1 H 1.0340 0.9965 0.3971
C2 C 0.92691(19) 1.0864(3) 0.38259(14)
H2 H 0.9309 1.1569 0.3583
C3 C 0.88161(18) 0.9469(3) 0.43632(13)
C4 C 0.8280(2) 0.8795(3) 0.46586(15)
H3 H 0.7829 0.8458 0.4353
H4 H 0.8091 0.9383 0.4917
H5 H 0.8565 0.8101 0.4901
C5 C 0.79074(18) 1.1283(3) 0.39327(14)
H6 H 0.8051 1.2172 0.4041
H7 H 0.7597 1.0971 0.4203
C6 C 0.74002(18) 1.1237(3) 0.32966(13)
C7 C 0.74176(19) 1.2173(3) 0.28862(15)
C8 C 0.6896(2) 1.2183(3) 0.23221(15)
C9 C 0.63349(18) 1.1249(3) 0.21365(14)
C10 C 0.63374(18) 1.0295(3) 0.25450(14)
C11 C 0.68520(18) 1.0286(3) 0.31058(13)
C12 C 0.5714(2) 1.1311(3) 0.15466(14)
H8 H 0.5192 1.1131 0.1615
H9 H 0.5698 1.2177 0.1384
C13 C 0.64902(19) 1.0453(3) 0.08614(14)
H10 H 0.6919 1.1030 0.0956
C14 C 0.63815(19) 0.9500(3) 0.04591(14)
H11 H 0.6727 0.9289 0.0220
C15 C 0.53837(18) 0.9453(3) 0.08469(14)
C16 C 0.46374(19) 0.9100(3) 0.09918(15)
H12 H 0.4423 0.8333 0.0772
H13 H 0.4255 0.9787 0.0876
H14 H 0.4743 0.8945 0.1423
F1 F 0.68076(11) 0.93476(17) 0.34870(8)
F2 F 0.57920(11) 0.93676(17) 0.23937(8)
F3 F 0.69282(12) 1.31506(18) 0.19500(9)
F4 F 0.79371(12) 1.31315(18) 0.30407(9)
N1 N 0.95420(15) 0.9112(3) 0.43744(12)
N2 N 0.86284(15) 1.0538(2) 0.40301(11)
N3 N 0.58569(15) 1.0421(2) 0.11062(11)
N4 N 0.56837(15) 0.8881(2) 0.04514(11)
Ag1G Ag 0.518458(14) 0.73612(2) -0.010433(10)
N4G N 1.06837(15) 0.6119(2) 0.54514(11)
O1 O 0.61703(14) 0.1939(2) 0.40973(11)
O2 O 0.6613(2) 0.3597(3) 0.37615(16)
O3 O 0.65841(17) 0.3512(3) 0.46827(12)
N5 N 0.64636(16) 0.3018(3) 0.41853(13)
C17 C 0.6277(3) 0.6337(4) 0.31430(19)
H15 H 0.5719 0.6103 0.3056
H16 H 0.6546 0.5773 0.2926
H17 H 0.6322 0.7210 0.3016
O4 O 0.66294(16) 0.6231(3) 0.37636(14)
H18 H 0.6703 0.5466 0.3856
C18? C 0.4837(5) 0.3580(6) 0.2415(4)
H19? H 0.4662 0.4127 0.2696
H20? H 0.4378 0.3312 0.2096
H21? H 0.5203 0.4046 0.2240
O5? O 0.5217(3) 0.2519(5) 0.2719(2)
H22? H 0.5632 0.2743 0.2972
loop_
_geom_bond_atom_site_label_1
_geom_bond_atom_site_label_2
_geom_bond_site_symmetry_1
_geom_bond_site_symmetry_2
Ag1 N1 1_555 1_555
C1 H1 1_555 1_555
C2 C1 1_555 1_555
H2 C2 1_555 1_555
C3 C4 1_555 1_555
C4 H3 1_555 1_555
H4 C4 1_555 1_555
H5 C4 1_555 1_555
C5 H6 1_555 1_555
H7 C5 1_555 1_555
C6 C5 1_555 1_555
C7 C6 1_555 1_555
C8 C7 1_555 1_555
C9 C8 1_555 1_555
C10 C9 1_555 1_555
C11 C6 1_555 1_555
C12 C9 1_555 1_555
H8 C12 1_555 1_555
H9 C12 1_555 1_555
C13 H10 1_555 1_555
C14 C13 1_555 1_555
H11 C14 1_555 1_555
C15 C16 1_555 1_555
C16 H12 1_555 1_555
H13 C16 1_555 1_555
H14 C16 1_555 1_555
F1 C11 1_555 1_555
F2 C10 1_555 1_555
F3 C8 1_555 1_555
F4 C7 1_555 1_555
N1 C1 1_555 1_555
N2 C2 1_555 1_555
N3 C12 1_555 1_555
N4 C14 1_555 1_555
O1 N5 1_555 1_555
O2 N5 1_555 1_555
O3 N5 1_555 1_555
C17 H15 1_555 1_555
H16 C17 1_555 1_555
H17 C17 1_555 1_555
O4 C17 1_555 1_555
H18 O4 1_555 1_555
Ag1G N4 1_555 1_555
N4G Ag1 1_555 1_555
C3 N1 1_555 1_555
C3 N2 1_555 1_555
C5 N2 1_555 1_555
C10 C11 1_555 1_555
C13 N3 1_555 1_555
C15 N3 1_555 1_555
C15 N4 1_555 1_555

#END
