
#######################################################################
#
#                 Cambridge Crystallographic Data Centre
#                                CCDC 
#
#######################################################################
#
# If this CIF has been generated from an entry in the Cambridge 
# Structural Database, then it will include bibliographic, chemical, 
# crystal, experimental, refinement or atomic coordinate data resulting 
# from the CCDC's data processing and validation procedures.
#
#######################################################################

data_ECAVAF
_symmetry_cell_setting           monoclinic
_symmetry_space_group_name_H-M   'P 21/n'
_symmetry_Int_Tables_number      14
_space_group_name_Hall           '-P 2yn'
loop_
_symmetry_equiv_pos_site_id
_symmetry_equiv_pos_as_xyz
1 x,y,z
2 1/2+x,1/2-y,1/2+z
3 -x,-y,-z
4 1/2-x,1/2+y,1/2-z
_cell_length_a                   7.446(4)
_cell_length_b                   11.478(4)
_cell_length_c                   12.064(4)
_cell_angle_alpha                90
_cell_angle_beta                 107.75(2)
_cell_angle_gamma                90
_cell_volume                     981.97
loop_
_atom_site_label
_atom_site_type_symbol
_atom_site_fract_x
_atom_site_fract_y
_atom_site_fract_z
Zn1 Zn 0.07357(3) 0.04546(2) 0.250388(19)
N1 N 0.1117(2) 0.11768(14) 0.09273(14)
N2 N -0.0487(2) -0.08774(15) 0.10988(14)
C1 C 0.1950(3) 0.21964(18) 0.08442(19)
C2 C 0.2065(3) 0.25959(19) -0.0212(2)
C3 C -0.1305(3) -0.19052(19) 0.1181(2)
C4 C 0.0442(3) 0.05670(15) -0.00494(16)
N3 N -0.0497(3) -0.04570(18) 0.35302(19)
C5 C -0.1902(3) -0.05658(18) 0.37286(19)
N4 N -0.3350(3) -0.0747(3) 0.4074(3)
C6 C -0.5035(3) -0.04084(18) 0.3503(2)
N5 N 0.3404(3) -0.0177(2) 0.30990(19)
N6 N 0.1077(4) 0.2026(2) 0.33098(18)
C7 C 0.1133(3) 0.2754(2) 0.39582(19)
N7 N 0.1114(4) 0.3671(2) 0.4580(2)
C8 C 0.1581(4) 0.3631(2) 0.5703(2)
N8 N 0.2012(7) 0.3718(3) 0.6679(3)
H1 H 0.242(4) 0.265(3) 0.151(3)
H2 H 0.275(4) 0.327(3) -0.021(3)
H3 H -0.123(3) -0.212(2) 0.193(2)
C3B C 0.1305(3) 0.19052(19) -0.1181(2)
N2B N 0.0487(2) 0.08774(15) -0.10988(14)
Zn1B Zn -0.07357(3) -0.04546(2) -0.250388(19)
N1B N -0.1117(2) -0.11768(14) -0.09273(14)
C1B C -0.1950(3) -0.21964(18) -0.08442(19)
C2B C -0.2065(3) -0.25959(19) 0.0212(2)
N5_2 N -0.6596(3) -0.0177(2) 0.30990(19)
Zn1_2 Zn -0.92643(3) 0.04546(2) 0.250388(19)
C4B C -0.0442(3) -0.05670(15) 0.00494(16)
H2B H -0.275(4) -0.327(3) 0.021(3)
H1B H -0.242(4) -0.265(3) -0.151(3)
N3B N 0.0497(3) 0.04570(18) -0.35302(19)
N5B N -0.3404(3) 0.0177(2) -0.30990(19)
N6B N -0.1077(4) -0.2026(2) -0.33098(18)
C7B C -0.1133(3) -0.2754(2) -0.39582(19)
N7B N -0.1114(4) -0.3671(2) -0.4580(2)
C8B C -0.1581(4) -0.3631(2) -0.5703(2)
N8B N -0.2012(7) -0.3718(3) -0.6679(3)
H3B H 0.123(3) 0.212(2) -0.193(2)
C6_2 C 0.4965(3) -0.04084(18) 0.3503(2)
N4_2 N 0.6650(3) -0.0747(3) 0.4074(3)
C5_2 C 0.8098(3) -0.05658(18) 0.37286(19)
Zn1_3 Zn 1.07357(3) 0.04546(2) 0.250388(19)
N3_2 N 0.9503(3) -0.04570(18) 0.35302(19)
loop_
_geom_bond_atom_site_label_1
_geom_bond_atom_site_label_2
_geom_bond_site_symmetry_1
_geom_bond_site_symmetry_2
Zn1 N1 1_555 1_555
N1 C1 1_555 1_555
N2 Zn1 1_555 1_555
C1 C2 1_555 1_555
C2 H2 1_555 1_555
C3 N2 1_555 1_555
C4 N1 1_555 1_555
N3 Zn1 1_555 1_555
C5 N3 1_555 1_555
N4 C5 1_555 1_555
C6 N4 1_555 1_555
N5 Zn1 1_555 1_555
N6 Zn1 1_555 1_555
C7 N6 1_555 1_555
N7 C7 1_555 1_555
C8 N7 1_555 1_555
N8 C8 1_555 1_555
H1 C1 1_555 1_555
H3 C3 1_555 1_555
C3B C2 1_555 1_555
N2B C4 1_555 1_555
Zn1B N2B 1_555 1_555
N1B Zn1B 1_555 1_555
C1B N1B 1_555 1_555
C2B C3 1_555 1_555
N5_2 C6 1_555 1_555
Zn1_2 N5_2 1_555 1_555
C4B N2 1_555 1_555
H2B C2B 1_555 1_555
H1B C1B 1_555 1_555
N3B Zn1B 1_555 1_555
N5B Zn1B 1_555 1_555
N6B Zn1B 1_555 1_555
C7B N6B 1_555 1_555
N7B C7B 1_555 1_555
C8B N7B 1_555 1_555
N8B C8B 1_555 1_555
H3B C3B 1_555 1_555
C6_2 N5 1_555 1_555
N4_2 C6_2 1_555 1_555
C5_2 N4_2 1_555 1_555
Zn1_3 N3_2 1_555 1_555
N3_2 C5_2 1_555 1_555
C4 C4B 1_555 1_555
C3B N2B 1_555 1_555
N1B C4B 1_555 1_555
C1B C2B 1_555 1_555

#END
