
#######################################################################
#
#                 Cambridge Crystallographic Data Centre
#                                CCDC 
#
#######################################################################
#
# If this CIF has been generated from an entry in the Cambridge 
# Structural Database, then it will include bibliographic, chemical, 
# crystal, experimental, refinement or atomic coordinate data resulting 
# from the CCDC's data processing and validation procedures.
#
#######################################################################

data_ECAWOW
_symmetry_cell_setting           monoclinic
_symmetry_space_group_name_H-M   'C 2/c'
_symmetry_Int_Tables_number      15
_space_group_name_Hall           '-C 2yn'
loop_
_symmetry_equiv_pos_site_id
_symmetry_equiv_pos_as_xyz
1 x,y,z
2 -x,y,1/2-z
3 1/2+x,1/2+y,z
4 1/2-x,1/2+y,1/2-z
5 -x,-y,-z
6 x,-y,1/2+z
7 1/2-x,1/2-y,-z
8 1/2+x,1/2-y,1/2+z
_cell_length_a                   18.0701(7)
_cell_length_b                   6.6051(3)
_cell_length_c                   15.6456(7)
_cell_angle_alpha                90
_cell_angle_beta                 104.807(4)
_cell_angle_gamma                90
_cell_volume                     1805.37
loop_
_atom_site_label
_atom_site_type_symbol
_atom_site_fract_x
_atom_site_fract_y
_atom_site_fract_z
Cu1 Cu 0.54885(2) 0.06527(7) 0.09077(3)
O1 O 0.55518(14) -0.0658(4) -0.01651(19)
O2 O 0.52292(14) 0.1966(4) 0.19119(18)
O3 O 0.5000 -0.0993(6) 0.2500
N1 N 0.66026(18) 0.0135(5) 0.1504(2)
C1 C 0.6836(2) -0.0022(6) 0.2388(3)
H1 H 0.6457 -0.0077 0.2712
C2 C 0.7593(2) -0.0106(6) 0.2850(3)
H2 H 0.7732 -0.0206 0.3476
C3 C 0.8144(2) -0.0044(6) 0.2386(3)
H3 H 0.8672 -0.0080 0.2687
C4 C 0.7915(2) 0.0072(6) 0.1479(3)
H4 H 0.8288 0.0103 0.1147
C5 C 0.7142(2) 0.0144(6) 0.1044(3)
C6 C 0.6882(2) 0.0224(6) 0.0051(3)
H5 H 0.7326 -0.0054 -0.0194
H6 H 0.6698 0.1608 -0.0132
C7 C 0.6253(2) -0.1271(6) -0.0336(3)
H7 H 0.6188 -0.1373 -0.0982
H8 H 0.6397 -0.2625 -0.0074
C8 C 0.5000 0.0931(8) 0.2500
O4 O 0.58807(18) 0.3974(5) 0.0482(2)
H10 H 0.570(3) 0.416(7) -0.007(4)
H12 H 0.576(5) 0.514(12) 0.058(6)
Cu1D Cu 0.45115(2) -0.06527(7) -0.09077(3)
Cu1A Cu 0.45115(2) 0.06527(7) 0.40923(3)
O1D O 0.44482(14) 0.0658(4) 0.01651(19)
O2A O 0.47708(14) 0.1966(4) 0.30881(18)
O2D O 0.47708(14) -0.1966(4) -0.19119(18)
N1D N 0.33974(18) -0.0135(5) -0.1504(2)
C1D C 0.3164(2) 0.0022(6) -0.2388(3)
H1D H 0.3543 0.0077 -0.2712
C2D C 0.2407(2) 0.0106(6) -0.2850(3)
H2D H 0.2268 0.0206 -0.3476
C3D C 0.1856(2) 0.0044(6) -0.2386(3)
H3D H 0.1328 0.0080 -0.2687
C4D C 0.2085(2) -0.0072(6) -0.1479(3)
H4D H 0.1712 -0.0103 -0.1147
C5D C 0.2858(2) -0.0144(6) -0.1044(3)
C6D C 0.3118(2) -0.0224(6) -0.0051(3)
H5D H 0.2674 0.0054 0.0194
H6D H 0.3302 -0.1608 0.0132
C7D C 0.3747(2) 0.1271(6) 0.0336(3)
H7D H 0.3812 0.1373 0.0982
H8D H 0.3603 0.2625 0.0074
O4D O 0.41193(18) -0.3974(5) -0.0482(2)
H10D H 0.430(3) -0.416(7) 0.007(4)
H12D H 0.424(5) -0.514(12) -0.058(6)
O5 O 0.48165(18) 0.5858(5) 0.1315(2)
H9 H 0.489(3) 0.479(8) 0.154(3)
H11 H 0.495(3) 0.704(10) 0.170(4)
loop_
_geom_bond_atom_site_label_1
_geom_bond_atom_site_label_2
_geom_bond_site_symmetry_1
_geom_bond_site_symmetry_2
Cu1 O1 1_555 1_555
O1 C7 1_555 1_555
O2 Cu1 1_555 1_555
O3 C8 1_555 1_555
N1 Cu1 1_555 1_555
C1 N1 1_555 1_555
H1 C1 1_555 1_555
C2 C1 1_555 1_555
H2 C2 1_555 1_555
C3 C2 1_555 1_555
H3 C3 1_555 1_555
C4 C3 1_555 1_555
H4 C4 1_555 1_555
C5 N1 1_555 1_555
C6 C5 1_555 1_555
H5 C6 1_555 1_555
H6 C6 1_555 1_555
C7 C6 1_555 1_555
H7 C7 1_555 1_555
H8 C7 1_555 1_555
C8 O2 1_555 1_555
O4 Cu1 1_555 1_555
O5 H9 1_555 1_555
H10 O4 1_555 1_555
H11 O5 1_555 1_555
H12 O4 1_555 1_555
Cu1D O1 1_555 1_555
Cu1A O2A 1_555 1_555
O1D Cu1 1_555 1_555
O2A C8 1_555 1_555
O2D Cu1D 1_555 1_555
N1D Cu1D 1_555 1_555
C1D N1D 1_555 1_555
H1D C1D 1_555 1_555
C2D C1D 1_555 1_555
H2D C2D 1_555 1_555
C3D C2D 1_555 1_555
H3D C3D 1_555 1_555
C4D C3D 1_555 1_555
H4D C4D 1_555 1_555
C5D N1D 1_555 1_555
C6D C5D 1_555 1_555
H5D C6D 1_555 1_555
H6D C6D 1_555 1_555
C7D O1D 1_555 1_555
H7D C7D 1_555 1_555
H8D C7D 1_555 1_555
O4D Cu1D 1_555 1_555
H10D O4D 1_555 1_555
H12D O4D 1_555 1_555
C4 C5 1_555 1_555
Cu1D O1D 1_555 1_555
C4D C5D 1_555 1_555
C6D C7D 1_555 1_555

#END
