
#######################################################################
#
#                 Cambridge Crystallographic Data Centre
#                                CCDC 
#
#######################################################################
#
# If this CIF has been generated from an entry in the Cambridge 
# Structural Database, then it will include bibliographic, chemical, 
# crystal, experimental, refinement or atomic coordinate data resulting 
# from the CCDC's data processing and validation procedures.
#
#######################################################################

data_ECAWIQ
_symmetry_cell_setting           monoclinic
_symmetry_space_group_name_H-M   'P 21/n'
_symmetry_Int_Tables_number      14
_space_group_name_Hall           '-P 2yn'
loop_
_symmetry_equiv_pos_site_id
_symmetry_equiv_pos_as_xyz
1 x,y,z
2 1/2-x,1/2+y,1/2-z
3 -x,-y,-z
4 1/2+x,1/2-y,1/2+z
_cell_length_a                   13.5980(5)
_cell_length_b                   4.7885(2)
_cell_length_c                   14.5449(8)
_cell_angle_alpha                90
_cell_angle_beta                 112.389(5)
_cell_angle_gamma                90
_cell_volume                     875.686
loop_
_atom_site_label
_atom_site_type_symbol
_atom_site_fract_x
_atom_site_fract_y
_atom_site_fract_z
Cu1 Cu 0.540951(17) 0.06992(5) 0.421817(16)
O1 O 0.59107(10) -0.0228(3) 0.56119(10)
O2 O 0.47716(11) 0.2160(3) 0.28169(10)
O3 O 0.53092(12) 0.5940(3) 0.36829(11)
O4 O 0.46607(13) 0.6126(3) 0.20680(11)
N1 N 0.68771(13) 0.1177(4) 0.42784(12)
N2 N 0.49121(13) 0.4810(4) 0.28457(12)
C1 C 0.71515(18) 0.0257(5) 0.35386(16)
H1 H 0.6632 -0.0670 0.2991
C2 C 0.81578(19) 0.0605(5) 0.35439(18)
H2 H 0.8333 -0.0086 0.3013
C3 C 0.89102(17) 0.1983(6) 0.43393(17)
H3 H 0.9606 0.2295 0.4355
C4 C 0.86355(16) 0.2895(5) 0.51071(16)
H4 H 0.9148 0.3813 0.5663
C5 C 0.76083(15) 0.2475(4) 0.50699(14)
C6 C 0.72690(15) 0.3353(4) 0.58929(14)
H5 H 0.6702 0.4779 0.5638
H6 H 0.7881 0.4221 0.6430
C7 C 0.68581(16) 0.0914(4) 0.63207(14)
H7 H 0.6721 0.1562 0.6907
H8 H 0.7410 -0.0558 0.6545
Cu1B Cu 0.459049(17) -0.06992(5) 0.578183(16)
Cu1_2 Cu 0.540951(17) 1.06992(5) 0.421817(16)
O1B O 0.40893(10) 0.0228(3) 0.43881(10)
O3_2 O 0.53092(12) -0.4060(3) 0.36829(11)
loop_
_geom_bond_atom_site_label_1
_geom_bond_atom_site_label_2
_geom_bond_site_symmetry_1
_geom_bond_site_symmetry_2
Cu1 O1 1_555 1_555
O1 C7 1_555 1_555
O2 Cu1 1_555 1_555
O3 Cu1 1_555 1_555
O4 N2 1_555 1_555
N1 Cu1 1_555 1_555
N2 O2 1_555 1_555
C1 N1 1_555 1_555
H1 C1 1_555 1_555
C2 C1 1_555 1_555
H2 C2 1_555 1_555
C3 C2 1_555 1_555
H3 C3 1_555 1_555
C4 C3 1_555 1_555
H4 C4 1_555 1_555
C5 N1 1_555 1_555
C6 C5 1_555 1_555
H5 C6 1_555 1_555
H6 C6 1_555 1_555
C7 C6 1_555 1_555
H7 C7 1_555 1_555
H8 C7 1_555 1_555
Cu1B O1 1_555 1_555
Cu1_2 O3 1_555 1_555
O1B Cu1 1_555 1_555
O3_2 Cu1 1_555 1_555
O3 N2 1_555 1_555
C4 C5 1_555 1_555
Cu1B O1B 1_555 1_555

#END
