
#######################################################################
#
#                 Cambridge Crystallographic Data Centre
#                                CCDC 
#
#######################################################################
#
# If this CIF has been generated from an entry in the Cambridge 
# Structural Database, then it will include bibliographic, chemical, 
# crystal, experimental, refinement or atomic coordinate data resulting 
# from the CCDC's data processing and validation procedures.
#
#######################################################################

data_ECAWEL
_symmetry_cell_setting           monoclinic
_symmetry_space_group_name_H-M   'C 2/c'
_symmetry_Int_Tables_number      15
_space_group_name_Hall           '-C 2yn'
loop_
_symmetry_equiv_pos_site_id
_symmetry_equiv_pos_as_xyz
1 x,y,z
2 1/2+x,1/2+y,z
3 -x,y,1/2-z
4 1/2-x,1/2+y,1/2-z
5 -x,-y,-z
6 1/2-x,1/2-y,-z
7 x,-y,1/2+z
8 1/2+x,1/2-y,1/2+z
_cell_length_a                   25.078(5)
_cell_length_b                   8.8168(12)
_cell_length_c                   18.639(4)
_cell_angle_alpha                90
_cell_angle_beta                 112.284(14)
_cell_angle_gamma                90
_cell_volume                     3813.44
loop_
_atom_site_label
_atom_site_type_symbol
_atom_site_fract_x
_atom_site_fract_y
_atom_site_fract_z
Na1 Na 0.0000 0.1791(2) 0.2500
B1 B 0.13107(15) 0.0804(4) 0.44530(18)
N1 N 0.17623(11) 0.0565(3) 0.52512(13)
C1 C -0.20860(16) -0.0860(4) -0.0441(2)
H1 H -0.1870 -0.1609 -0.0612
H2 H -0.2142 -0.1241 0.0019
H3 H -0.2462 -0.0683 -0.0858
C2 C -0.16791(16) 0.1218(5) -0.09259(18)
H4 H -0.2055 0.1441 -0.1332
H5 H -0.1455 0.2157 -0.0773
H6 H -0.1472 0.0493 -0.1123
N2 N 0.07355(11) -0.0109(3) 0.42603(13)
N3 N 0.02876(12) -0.0020(3) 0.35516(15)
C3 C 0.01186(14) -0.0931(4) 0.1395(2)
H7 H 0.0481 -0.1097 0.1804
C4 C -0.00473(15) -0.1606(4) 0.0676(2)
H8 H 0.0168 -0.2286 0.0496
C5 C -0.05947(14) -0.1072(4) 0.02793(18)
H9 H -0.0835 -0.1339 -0.0236
N4 N -0.11399(10) 0.2508(3) 0.06407(14)
N5 N -0.15593(13) 0.3591(3) 0.04834(18)
C6 C -0.12951(18) 0.4897(4) 0.0481(3)
H10 H -0.1483 0.5854 0.0387
C7 C -0.07206(18) 0.4706(5) 0.0631(2)
H11 H -0.0444 0.5466 0.0662
C8 C -0.06355(15) 0.3176(4) 0.07240(19)
H12 H -0.0280 0.2667 0.0830
N6 N -0.15691(10) 0.0277(3) 0.11510(13)
N7 N -0.20669(12) 0.0937(3) 0.11405(16)
C9 C -0.22250(17) 0.0102(5) 0.1622(2)
H13 H -0.2557 0.0302 0.1736
C10 C -0.18554(18) -0.1074(5) 0.1933(2)
H14 H -0.1880 -0.1819 0.2288
C11 C -0.14411(15) -0.0948(4) 0.16229(17)
H15 H -0.1121 -0.1605 0.1722
O1 O -0.06598(11) 0.3228(3) 0.27693(15)
C12 C -0.0766(3) 0.4825(6) 0.2692(4)
H16 H -0.0413 0.5400 0.2994
H17 H -0.0898 0.5137 0.2141
C13 C -0.1213(5) 0.5085(8) 0.2994(7)
H18 H -0.1517 0.5742 0.2633
H19 H -0.1047 0.5608 0.3501
C14 C -0.1450(4) 0.3701(8) 0.3083(6)
H20 H -0.1470 0.3636 0.3602
H21 H -0.1845 0.3591 0.2686
C15 C -0.1077(2) 0.2525(6) 0.2990(4)
H22 H -0.1305 0.1792 0.2587
H23 H -0.0889 0.1969 0.3484
Na2 Na 0.2500 0.2500 0.5000
B1B B -0.13107(15) 0.0804(4) 0.05470(18)
N1E N 0.32377(11) 0.4435(3) 0.47488(13)
N1B N -0.17623(11) 0.0565(3) -0.02512(13)
C1B C 0.20860(16) -0.0860(4) 0.5441(2)
H1B H 0.1870 -0.1609 0.5612
H2B H 0.2142 -0.1241 0.4981
H3B H 0.2462 -0.0683 0.5858
C2B C 0.16791(16) 0.1218(5) 0.59259(18)
H4B H 0.2055 0.1441 0.6332
H5B H 0.1455 0.2157 0.5773
H6B H 0.1472 0.0493 0.6123
N2B N -0.07355(11) -0.0109(3) 0.07397(13)
N3B N -0.02876(12) -0.0020(3) 0.14484(15)
C3B C -0.01186(14) -0.0931(4) 0.3605(2)
H7B H -0.0481 -0.1097 0.3196
C4B C 0.00473(15) -0.1606(4) 0.4324(2)
H8B H -0.0168 -0.2286 0.4504
C5B C 0.05947(14) -0.1072(4) 0.47207(18)
H9B H 0.0835 -0.1339 0.5236
N4B N 0.11399(10) 0.2508(3) 0.43593(14)
N5G N 0.34407(13) 0.1409(3) 0.54834(18)
N5B N 0.15593(13) 0.3591(3) 0.45166(18)
C6B C 0.12951(18) 0.4897(4) 0.4519(3)
H10B H 0.1483 0.5854 0.4613
C7B C 0.07206(18) 0.4706(5) 0.4369(2)
H11B H 0.0444 0.5466 0.4338
C8B C 0.06355(15) 0.3176(4) 0.42760(19)
H12B H 0.0280 0.2667 0.4170
N6B N 0.15691(10) 0.0277(3) 0.38490(13)
N7G N 0.29331(12) 0.4063(3) 0.61405(16)
N7B N 0.20669(12) 0.0937(3) 0.38595(16)
C9B C 0.22250(17) 0.0102(5) 0.3378(2)
H13B H 0.2557 0.0302 0.3264
C10B C 0.18554(18) -0.1074(5) 0.3067(2)
H14B H 0.1880 -0.1819 0.2712
C11B C 0.14411(15) -0.0948(4) 0.33771(17)
H15B H 0.1121 -0.1605 0.3278
O1B O 0.06598(11) 0.3228(3) 0.22307(15)
C12B C 0.0766(3) 0.4825(6) 0.2308(4)
H16B H 0.0413 0.5400 0.2006
H17B H 0.0898 0.5137 0.2859
C13B C 0.1213(5) 0.5085(8) 0.2006(7)
H18B H 0.1517 0.5742 0.2367
H19B H 0.1047 0.5608 0.1499
C14B C 0.1450(4) 0.3701(8) 0.1917(6)
H20B H 0.1470 0.3636 0.1398
H21B H 0.1845 0.3591 0.2314
C15B C 0.1077(2) 0.2525(6) 0.2010(4)
H22B H 0.1305 0.1792 0.2413
H23B H 0.0889 0.1969 0.1516
Na2G Na -0.2500 0.2500 0.0000
loop_
_geom_bond_atom_site_label_1
_geom_bond_atom_site_label_2
_geom_bond_site_symmetry_1
_geom_bond_site_symmetry_2
Na1 N3 1_555 1_555
B1 N1 1_555 1_555
N1 Na2 1_555 1_555
C1 H1 1_555 1_555
H2 C1 1_555 1_555
H3 C1 1_555 1_555
C2 H4 1_555 1_555
H5 C2 1_555 1_555
H6 C2 1_555 1_555
N2 B1 1_555 1_555
N3 N2 1_555 1_555
C3 H7 1_555 1_555
C4 C3 1_555 1_555
H8 C4 1_555 1_555
C5 C4 1_555 1_555
H9 C5 1_555 1_555
N4 N5 1_555 1_555
N5 C6 1_555 1_555
C6 H10 1_555 1_555
C7 C6 1_555 1_555
H11 C7 1_555 1_555
C8 N4 1_555 1_555
H12 C8 1_555 1_555
N6 N7 1_555 1_555
N7 C9 1_555 1_555
C9 H13 1_555 1_555
C10 C9 1_555 1_555
H14 C10 1_555 1_555
C11 N6 1_555 1_555
H15 C11 1_555 1_555
O1 Na1 1_555 1_555
C12 O1 1_555 1_555
H16 C12 1_555 1_555
H17 C12 1_555 1_555
C13 C12 1_555 1_555
H18 C13 1_555 1_555
H19 C13 1_555 1_555
C14 C13 1_555 1_555
H20 C14 1_555 1_555
H21 C14 1_555 1_555
C15 O1 1_555 1_555
H22 C15 1_555 1_555
H23 C15 1_555 1_555
Na2 N1E 1_555 1_555
B1B N4 1_555 1_555
N1B C1 1_555 1_555
C1B N1 1_555 1_555
H1B C1B 1_555 1_555
H2B C1B 1_555 1_555
H3B C1B 1_555 1_555
C2B N1 1_555 1_555
H4B C2B 1_555 1_555
H5B C2B 1_555 1_555
H6B C2B 1_555 1_555
N2B C5 1_555 1_555
N3B Na1 1_555 1_555
C3B N3 1_555 1_555
H7B C3B 1_555 1_555
C4B C3B 1_555 1_555
H8B C4B 1_555 1_555
C5B N2 1_555 1_555
H9B C5B 1_555 1_555
N4B B1 1_555 1_555
N5G Na2 1_555 1_555
N5B Na2 1_555 1_555
C6B N5B 1_555 1_555
H10B C6B 1_555 1_555
C7B C6B 1_555 1_555
H11B C7B 1_555 1_555
C8B N4B 1_555 1_555
H12B C8B 1_555 1_555
N6B B1 1_555 1_555
N7G Na2 1_555 1_555
N7B Na2 1_555 1_555
C9B N7B 1_555 1_555
H13B C9B 1_555 1_555
C10B C9B 1_555 1_555
H14B C10B 1_555 1_555
C11B N6B 1_555 1_555
H15B C11B 1_555 1_555
O1B Na1 1_555 1_555
C12B O1B 1_555 1_555
H16B C12B 1_555 1_555
H17B C12B 1_555 1_555
C13B C12B 1_555 1_555
H18B C13B 1_555 1_555
H19B C13B 1_555 1_555
C14B C13B 1_555 1_555
H20B C14B 1_555 1_555
H21B C14B 1_555 1_555
C15B O1B 1_555 1_555
H22B C15B 1_555 1_555
H23B C15B 1_555 1_555
Na2G N5 1_555 1_555
C2 N1B 1_555 1_555
C3 N3B 1_555 1_555
C7 C8 1_555 1_555
N6 B1B 1_555 1_555
N7 Na2G 1_555 1_555
C10 C11 1_555 1_555
C14 C15 1_555 1_555
B1B N1B 1_555 1_555
B1B N2B 1_555 1_555
N1B Na2G 1_555 1_555
N2B N3B 1_555 1_555
C4B C5B 1_555 1_555
N4B N5B 1_555 1_555
C7B C8B 1_555 1_555
N6B N7B 1_555 1_555
C10B C11B 1_555 1_555
C14B C15B 1_555 1_555

#END
