
#######################################################################
#
#                 Cambridge Crystallographic Data Centre
#                                CCDC 
#
#######################################################################
#
# If this CIF has been generated from an entry in the Cambridge 
# Structural Database, then it will include bibliographic, chemical, 
# crystal, experimental, refinement or atomic coordinate data resulting 
# from the CCDC's data processing and validation procedures.
#
#######################################################################

data_ECEFIC
_symmetry_cell_setting           tetragonal
_symmetry_space_group_name_H-M   'P 43 21 2'
_symmetry_Int_Tables_number      96
_space_group_name_Hall           'P 4nw 2abw'
loop_
_symmetry_equiv_pos_site_id
_symmetry_equiv_pos_as_xyz
1 x,y,z
2 -x,-y,1/2+z
3 1/2-y,1/2+x,3/4+z
4 1/2+y,1/2-x,1/4+z
5 1/2-x,1/2+y,3/4-z
6 1/2+x,1/2-y,1/4-z
7 y,x,-z
8 -y,-x,1/2-z
_cell_length_a                   23.944(3)
_cell_length_b                   23.944(3)
_cell_length_c                   26.201(5)
_cell_angle_alpha                90
_cell_angle_beta                 90
_cell_angle_gamma                90
_cell_volume                     15021.4
loop_
_atom_site_label
_atom_site_type_symbol
_atom_site_fract_x
_atom_site_fract_y
_atom_site_fract_z
K1 K -0.50696(18) 0.05112(17) 0.40508(13)
O50 O -0.5131(4) 0.1676(5) 0.4014(4)
O51 O -0.5326(15) -0.1058(16) 0.4162(13)
O53 O -0.7481(9) 0.0225(9) 0.6532(8)
O54 O -0.0453(13) 0.1245(13) 0.3950(11)
O55 O 0.0171(13) 0.0099(13) 0.6159(12)
O56 O -0.3586(15) 0.3977(14) 0.6555(12)
O57 O -0.0083(16) -0.0391(17) 0.5500(15)
O58 O -0.1029(13) 0.2305(14) 0.2790(11)
O59 O -0.055(3) 0.097(3) 0.280(2)
B1 B -0.2420(6) 0.2052(6) 0.5022(5)
W1 W -0.35475(2) 0.15166(2) 0.56934(2)
W2 W -0.38142(2) 0.23842(2) 0.47258(2)
W3 W -0.26632(3) 0.29161(2) 0.39540(2)
W4 W -0.15829(2) 0.30824(2) 0.55789(2)
W5 W -0.28657(2) 0.34235(2) 0.52557(2)
W6 W -0.26425(3) 0.25870(3) 0.62509(2)
W7 W -0.10790(2) 0.16652(2) 0.53245(2)
W8 W -0.21122(3) 0.11775(3) 0.60359(2)
W9 W -0.33526(2) 0.11128(2) 0.44987(2)
W10 W -0.19266(2) 0.07108(2) 0.48539(2)
W11 W -0.13584(2) 0.26162(2) 0.42660(2)
W12 W -0.21722(2) 0.16381(3) 0.37672(2)
Cu1 Cu -0.65836(7) -0.00564(7) 0.39080(6)
Cu2 Cu -0.49840(7) -0.03033(7) 0.28140(6)
Cu3 Cu -0.37399(7) -0.04716(7) 0.42219(6)
O1 O -0.3021(3) 0.1848(3) 0.4987(3)
O2 O -0.2046(3) 0.1617(4) 0.5213(3)
O3 O -0.2382(3) 0.2573(3) 0.5363(3)
O4 O -0.2231(3) 0.2242(3) 0.4467(3)
O5 O -0.2708(4) 0.0712(3) 0.4753(3)
O6 O -0.2233(4) 0.1897(4) 0.6287(3)
O7 O -0.3343(4) 0.2619(4) 0.4174(3)
O8 O -0.2542(4) 0.2302(4) 0.3519(3)
O9 O -0.3248(4) 0.2146(4) 0.6049(3)
O10 O -0.1428(3) 0.3048(3) 0.4869(3)
O11 O -0.3890(3) 0.1676(4) 0.4392(3)
O12 O -0.1056(4) 0.2035(4) 0.4683(3)
O13 O -0.4051(4) 0.2021(4) 0.5341(3)
O14 O -0.1864(4) 0.1111(4) 0.4204(3)
O15 O -0.1170(3) 0.0962(3) 0.4999(3)
O16 O -0.1942(3) 0.2952(4) 0.6208(3)
O17 O -0.2022(3) 0.0572(4) 0.5568(3)
O18 O -0.2890(4) 0.1397(4) 0.3988(3)
O19 O -0.3674(4) 0.0993(4) 0.5163(3)
O20 O -0.1243(4) 0.2369(4) 0.5615(3)
O21 O -0.2664(4) 0.3365(4) 0.4568(3)
O22 O -0.2973(4) 0.3242(4) 0.5968(3)
O23 O -0.2127(4) 0.3648(4) 0.5432(3)
O24 O -0.1501(4) 0.2047(4) 0.3761(3)
O25 O -0.1875(4) 0.3083(4) 0.3917(3)
O26 O -0.2902(4) 0.1128(4) 0.5889(3)
O27 O -0.3506(4) 0.2971(4) 0.5114(3)
O28 O -0.0370(4) 0.1642(4) 0.5452(4)
O29 O -0.3674(4) 0.0594(3) 0.4169(3)
O30 O -0.6523(4) -0.1045(4) 0.4220(3)
O31 O -0.2091(5) 0.0793(5) 0.6566(4)
O32 O -0.4018(4) 0.1272(4) 0.6133(4)
O33 O -0.3167(4) 0.4069(4) 0.5269(4)
O34 O -0.1776(4) 0.0049(4) 0.4649(4)
O35 O -0.2106(4) 0.1292(4) 0.3204(4)
O36 O -0.2811(4) 0.2703(4) 0.6877(4)
O37 O -0.1350(4) 0.1320(4) 0.5949(3)
O38 O -0.0747(4) 0.2863(4) 0.4027(3)
O39 O -0.4428(4) 0.2672(4) 0.4555(4)
O40 O -0.2874(4) 0.3400(4) 0.3520(3)
O41 O -0.6091(4) 0.0063(4) 0.4502(4)
O42 O -0.5957(4) -0.0201(4) 0.3442(4)
O43 O -0.5759(4) -0.0226(4) 0.2614(4)
O44 O -0.6107(4) 0.0092(4) 0.5343(4)
O45 O -0.4525(4) -0.0110(4) 0.5515(3)
O46 O -0.4211(4) -0.0417(4) 0.2775(4)
O47 O -0.4221(4) -0.0405(4) 0.3616(3)
O48 O -0.4339(4) -0.0221(4) 0.4690(3)
N1 N -0.7053(5) -0.0145(5) 0.3290(4)
H1 H -0.7198 0.0206 0.3218
N2 N -0.7173(5) 0.0149(5) 0.4397(4)
H2 H -0.7463 -0.0105 0.4356
N3 N -0.3120(4) -0.0653(4) 0.3720(4)
H3 H -0.3009 -0.1021 0.3768
N4 N -0.3254(4) -0.0450(4) 0.4849(4)
H4 H -0.3020 -0.0142 0.4821
C1 C -0.6094(6) -0.0224(6) 0.2960(6)
C2 C -0.6671(6) -0.0297(6) 0.2839(5)
H5 H -0.6771 -0.0066 0.2534
C3 C -0.6819(8) -0.0916(8) 0.2740(7)
H6 H -0.6615 -0.1165 0.2977
H7 H -0.6731 -0.1025 0.2385
C4 C -0.7488(7) -0.0938(7) 0.2845(6)
H8 H -0.7699 -0.0802 0.2545
H9 H -0.7611 -0.1322 0.2928
C5 C -0.7561(7) -0.0558(7) 0.3291(6)
H10 H -0.7569 -0.0776 0.3612
H11 H -0.7916 -0.0349 0.3261
C6 C -0.6341(6) 0.0085(5) 0.4928(6)
C7 C -0.6981(6) 0.0104(6) 0.4912(5)
H12 H -0.7140 -0.0239 0.5076
C8 C -0.7160(9) 0.0627(8) 0.5210(7)
H13 H -0.7531 0.0579 0.5371
H14 H -0.6882 0.0729 0.5474
C9 C -0.7416(9) 0.0726(8) 0.4328(7)
H17 H -0.7829 0.0718 0.4339
H18 H -0.7295 0.0894 0.4000
C10 C -0.718(3) 0.1049(14) 0.4783(11)
H21 H -0.6797 0.1190 0.4706
H23 H -0.7488 0.1344 0.4895
C12 C -0.3969(6) -0.0458(5) 0.3201(5)
C13 C -0.3336(6) -0.0588(5) 0.3205(5)
H25 H -0.3271 -0.0944 0.3014
C14 C -0.2966(7) -0.0120(7) 0.2962(6)
H26 H -0.2897 -0.0195 0.2596
H27 H -0.3145 0.0251 0.2998
C15 C -0.2500(7) -0.0145(8) 0.3225(6)
H28 H -0.2307 0.0220 0.3213
H29 H -0.2250 -0.0431 0.3077
C16 C -0.2636(6) -0.0292(6) 0.3762(5)
H30 H -0.2321 -0.0490 0.3926
H31 H -0.2725 0.0047 0.3963
C17 C -0.4201(6) -0.0218(6) 0.5150(6)
C18 C -0.3619(6) -0.0362(6) 0.5296(5)
H32 H -0.3461 -0.0056 0.5511
C19 C -0.3578(6) -0.0929(6) 0.5594(6)
H33 H -0.3663 -0.0877 0.5961
H34 H -0.3835 -0.1212 0.5450
C20 C -0.2974(8) -0.1096(8) 0.5516(7)
H35 H -0.2916 -0.1498 0.5585
H36 H -0.2721 -0.0874 0.5734
C21 C -0.2890(7) -0.0959(6) 0.4944(6)
H37 H -0.2493 -0.0875 0.4871
H38 H -0.3010 -0.1276 0.4728
O49 O -0.4096(5) -0.1362(4) 0.4389(4)
W4F W -0.69176(2) -0.15829(2) 0.44211(2)
Cu2C Cu -0.53033(7) -0.00160(7) 0.53140(6)
O30F O -0.1045(4) 0.3477(4) 0.5780(3)
O44B O -0.5092(4) -0.1107(4) 0.2843(4)
O45B O -0.4890(4) 0.0475(4) 0.3015(3)
H15? H -0.7347 0.0519 0.5532
H16? H -0.6832 0.0862 0.5293
H19? H -0.7756 0.0717 0.4114
H20? H -0.7138 0.0975 0.4164
H22? H -0.7419 0.1369 0.4873
C11? C -0.7550(13) 0.0936(13) 0.4869(8)
H24? H -0.7943 0.0854 0.4959
O52? O -0.5248(11) -0.1348(12) 0.3991(10)
loop_
_geom_bond_atom_site_label_1
_geom_bond_atom_site_label_2
_geom_bond_site_symmetry_1
_geom_bond_site_symmetry_2
B1 O1 1_555 1_555
W1 O1 1_555 1_555
W2 O1 1_555 1_555
W3 O4 1_555 1_555
W4 O3 1_555 1_555
W5 O3 1_555 1_555
W6 O3 1_555 1_555
W7 O2 1_555 1_555
W8 O2 1_555 1_555
W9 O1 1_555 1_555
W10 O2 1_555 1_555
W11 O4 1_555 1_555
W12 O4 1_555 1_555
Cu1 O30 1_555 1_555
Cu2 O43 1_555 1_555
Cu3 O29 1_555 1_555
O2 B1 1_555 1_555
O3 B1 1_555 1_555
O4 B1 1_555 1_555
O5 W9 1_555 1_555
O6 W6 1_555 1_555
O7 W2 1_555 1_555
O8 W3 1_555 1_555
O9 W1 1_555 1_555
O10 W4 1_555 1_555
O11 W2 1_555 1_555
O12 W7 1_555 1_555
O13 W1 1_555 1_555
O14 W10 1_555 1_555
O15 W7 1_555 1_555
O16 W4 1_555 1_555
O17 W8 1_555 1_555
O18 W9 1_555 1_555
O19 W1 1_555 1_555
O20 W4 1_555 1_555
O21 W3 1_555 1_555
O22 W5 1_555 1_555
O23 W4 1_555 1_555
O24 W11 1_555 1_555
O25 W3 1_555 1_555
O26 W1 1_555 1_555
O27 W2 1_555 1_555
O28 W7 1_555 1_555
O29 W9 1_555 1_555
O30 W4F 1_555 1_555
O31 W8 1_555 1_555
O32 W1 1_555 1_555
O33 W5 1_555 1_555
O34 W10 1_555 1_555
O35 W12 1_555 1_555
O36 W6 1_555 1_555
O37 W7 1_555 1_555
O38 W11 1_555 1_555
O39 W2 1_555 1_555
O40 W3 1_555 1_555
O41 Cu1 1_555 1_555
O42 Cu1 1_555 1_555
O43 C1 1_555 1_555
O44 C6 1_555 1_555
O45 C17 1_555 1_555
O46 Cu2 1_555 1_555
O47 Cu3 1_555 1_555
O48 Cu3 1_555 1_555
N1 Cu1 1_555 1_555
H1 N1 1_555 1_555
N2 Cu1 1_555 1_555
H2 N2 1_555 1_555
N3 Cu3 1_555 1_555
H3 N3 1_555 1_555
N4 Cu3 1_555 1_555
H4 N4 1_555 1_555
C1 O42 1_555 1_555
C2 N1 1_555 1_555
H5 C2 1_555 1_555
C3 C2 1_555 1_555
H6 C3 1_555 1_555
H7 C3 1_555 1_555
C4 C3 1_555 1_555
H8 C4 1_555 1_555
H9 C4 1_555 1_555
C5 N1 1_555 1_555
H10 C5 1_555 1_555
H11 C5 1_555 1_555
C6 O41 1_555 1_555
C7 N2 1_555 1_555
H12 C7 1_555 1_555
C8 C7 1_555 1_555
H13 C8 1_555 1_555
H14 C8 1_555 1_555
C9 N2 1_555 1_555
H17 C9 1_555 1_555
H18 C9 1_555 1_555
C10 C8 1_555 1_555
H21 C10 1_555 1_555
H23 C10 1_555 1_555
C12 O46 1_555 1_555
C13 N3 1_555 1_555
H25 C13 1_555 1_555
C14 C13 1_555 1_555
H26 C14 1_555 1_555
H27 C14 1_555 1_555
C15 C14 1_555 1_555
H28 C15 1_555 1_555
H29 C15 1_555 1_555
C16 N3 1_555 1_555
H30 C16 1_555 1_555
H31 C16 1_555 1_555
C17 O48 1_555 1_555
C18 N4 1_555 1_555
H32 C18 1_555 1_555
C19 C18 1_555 1_555
H33 C19 1_555 1_555
H34 C19 1_555 1_555
C20 C19 1_555 1_555
H35 C20 1_555 1_555
H36 C20 1_555 1_555
C21 N4 1_555 1_555
H37 C21 1_555 1_555
H38 C21 1_555 1_555
O49 Cu3 1_555 1_555
Cu2C O44 1_555 1_555
O30F W4 1_555 1_555
O44B Cu2 1_555 1_555
O45B Cu2 1_555 1_555
W2 O13 1_555 1_555
W3 O7 1_555 1_555
W5 O21 1_555 1_555
W5 O23 1_555 1_555
W5 O27 1_555 1_555
W6 O9 1_555 1_555
W6 O16 1_555 1_555
W6 O22 1_555 1_555
W7 O20 1_555 1_555
W8 O6 1_555 1_555
W8 O26 1_555 1_555
W8 O37 1_555 1_555
W9 O11 1_555 1_555
W9 O19 1_555 1_555
W10 O5 1_555 1_555
W10 O15 1_555 1_555
W10 O17 1_555 1_555
W11 O10 1_555 1_555
W11 O12 1_555 1_555
W11 O25 1_555 1_555
W12 O8 1_555 1_555
W12 O14 1_555 1_555
W12 O18 1_555 1_555
W12 O24 1_555 1_555
O45 Cu2C 1_555 1_555
O47 C12 1_555 1_555
C1 C2 1_555 1_555
C4 C5 1_555 1_555
C6 C7 1_555 1_555
C9 C10 1_555 1_555
C12 C13 1_555 1_555
C15 C16 1_555 1_555
C17 C18 1_555 1_555
C20 C21 1_555 1_555

#END
