
#######################################################################
#
#                 Cambridge Crystallographic Data Centre
#                                CCDC 
#
#######################################################################
#
# If this CIF has been generated from an entry in the Cambridge 
# Structural Database, then it will include bibliographic, chemical, 
# crystal, experimental, refinement or atomic coordinate data resulting 
# from the CCDC's data processing and validation procedures.
#
#######################################################################

data_ECEJIH
_symmetry_cell_setting           monoclinic
_symmetry_space_group_name_H-M   'P 21/c'
_symmetry_Int_Tables_number      14
_space_group_name_Hall           '-P 2ybc'
loop_
_symmetry_equiv_pos_site_id
_symmetry_equiv_pos_as_xyz
1 x,y,z
2 -x,1/2+y,1/2-z
3 -x,-y,-z
4 x,1/2-y,1/2+z
_cell_length_a                   7.0841(7)
_cell_length_b                   18.7054(19)
_cell_length_c                   9.5569(10)
_cell_angle_alpha                90
_cell_angle_beta                 97.4920(10)
_cell_angle_gamma                90
_cell_volume                     1255.58
loop_
_atom_site_label
_atom_site_type_symbol
_atom_site_fract_x
_atom_site_fract_y
_atom_site_fract_z
Cd1 Cd 0.25832(4) 0.490071(17) 0.08275(3)
Cl1 Cl 0.40457(15) 0.43880(6) -0.13272(10)
Cl2 Cl 0.05299(15) 0.59166(6) -0.03190(10)
N1 N 0.3615(5) 0.3924(2) 0.2467(4)
N2 N 0.4349(7) 0.2865(3) 0.4502(6)
N3 N 0.2194(5) 0.52295(19) 0.3128(3)
N4 N 0.2534(6) 0.5027(2) 0.5430(4)
H1 H 0.278(8) 0.481(3) 0.608(6)
C1 C 0.3407(6) 0.4052(2) 0.3820(4)
C2 C 0.3798(7) 0.3518(3) 0.4827(5)
H2 H 0.3671 0.3621 0.5762
C3 C 0.4498(9) 0.2745(3) 0.3167(7)
H3 H 0.4829 0.2289 0.2896
C4 C 0.4180(8) 0.3274(3) 0.2145(6)
H4 H 0.4365 0.3172 0.1220
C5 C 0.2734(6) 0.4761(2) 0.4128(4)
C6 C 0.1642(6) 0.5836(2) 0.3792(4)
C7 C 0.0991(8) 0.6496(3) 0.3266(5)
H5 H 0.0830 0.6587 0.2301
C8 C 0.0592(9) 0.7008(3) 0.4209(6)
H6 H 0.0168 0.7454 0.3876
C9 C 0.0805(8) 0.6876(3) 0.5652(6)
H7 H 0.0509 0.7236 0.6258
C10 C 0.1432(7) 0.6237(3) 0.6203(5)
H8 H 0.1567 0.6153 0.7170
C11 C 0.1866(6) 0.5712(3) 0.5259(4)
Cd1B Cd 0.74168(4) 0.509929(17) -0.08275(3)
Cd1B_2 Cd -0.25832(4) 0.509929(17) -0.08275(3)
Cl1B Cl 0.59543(15) 0.56120(6) 0.13272(10)
Cl2B Cl -0.05299(15) 0.40834(6) 0.03190(10)
loop_
_geom_bond_atom_site_label_1
_geom_bond_atom_site_label_2
_geom_bond_site_symmetry_1
_geom_bond_site_symmetry_2
Cd1 Cl1 1_555 1_555
Cl1 Cd1B 1_555 1_555
Cl2 Cd1 1_555 1_555
N1 Cd1 1_555 1_555
N2 C2 1_555 1_555
N3 Cd1 1_555 1_555
N4 H1 1_555 1_555
C1 N1 1_555 1_555
C2 C1 1_555 1_555
H2 C2 1_555 1_555
C3 N2 1_555 1_555
H3 C3 1_555 1_555
C4 N1 1_555 1_555
H4 C4 1_555 1_555
C5 N3 1_555 1_555
C6 N3 1_555 1_555
C7 C6 1_555 1_555
H5 C7 1_555 1_555
C8 C7 1_555 1_555
H6 C8 1_555 1_555
C9 C8 1_555 1_555
H7 C9 1_555 1_555
C10 C9 1_555 1_555
H8 C10 1_555 1_555
C11 N4 1_555 1_555
Cd1B Cl1B 1_555 1_555
Cd1B_2 Cl2 1_555 1_555
Cl1B Cd1 1_555 1_555
Cl2B Cd1 1_555 1_555
N4 C5 1_555 1_555
C1 C5 1_555 1_555
C3 C4 1_555 1_555
C6 C11 1_555 1_555
C10 C11 1_555 1_555
Cd1B_2 Cl2B 1_555 1_555

#END
