
#######################################################################
#
#                 Cambridge Crystallographic Data Centre
#                                CCDC 
#
#######################################################################
#
# If this CIF has been generated from an entry in the Cambridge 
# Structural Database, then it will include bibliographic, chemical, 
# crystal, experimental, refinement or atomic coordinate data resulting 
# from the CCDC's data processing and validation procedures.
#
#######################################################################

data_ECEKII
_symmetry_cell_setting           triclinic
_symmetry_space_group_name_H-M   'P -1'
_symmetry_Int_Tables_number      2
_space_group_name_Hall           '-P 1'
loop_
_symmetry_equiv_pos_site_id
_symmetry_equiv_pos_as_xyz
1 x,y,z
2 -x,-y,-z
_cell_length_a                   8.4000(3)
_cell_length_b                   12.8091(5)
_cell_length_c                   13.6326(6)
_cell_angle_alpha                81.844(2)
_cell_angle_beta                 72.639(2)
_cell_angle_gamma                78.950(2)
_cell_volume                     1368.42
loop_
_atom_site_label
_atom_site_type_symbol
_atom_site_fract_x
_atom_site_fract_y
_atom_site_fract_z
C1 C -0.3816(5) 0.1646(3) -0.1261(3)
C2 C -0.4083(5) 0.2559(3) -0.2040(3)
C3 C -0.2872(6) 0.3229(4) -0.2433(4)
H1 H -0.1899 0.3107 -0.2214
C4 C -0.3119(8) 0.4072(4) -0.3147(4)
H2 H -0.2308 0.4517 -0.3416
C5 C -0.4570(8) 0.4258(4) -0.3464(4)
H3 H -0.4722 0.4831 -0.3947
C6 C -0.5796(7) 0.3618(4) -0.3086(3)
C7 C -0.5531(6) 0.2762(4) -0.2367(3)
H4 H -0.6345 0.2318 -0.2102
C8 C -0.7423(10) 0.3835(7) -0.3406(6)
H5 H -0.8286 0.4254 -0.2918
H6 H -0.7776 0.3169 -0.3423
H7 H -0.7235 0.4217 -0.4078
C9 C -0.3301(5) -0.1228(3) -0.1660(3)
C10 C -0.2363(6) -0.1858(3) -0.2564(3)
C11 C -0.3238(8) -0.2219(4) -0.3130(4)
H8 H -0.4408 -0.2044 -0.2974
C12 C -0.2354(11) -0.2841(6) -0.3929(5)
H9 H -0.2936 -0.3109 -0.4295
C13 C -0.0629(11) -0.3065(5) -0.4185(5)
H10 H -0.0055 -0.3471 -0.4736
C14 C 0.0266(8) -0.2709(5) -0.3653(4)
C15 C -0.0627(6) -0.2105(4) -0.2832(3)
H11 H -0.0036 -0.1861 -0.2455
C16 C 0.2193(10) -0.2961(7) -0.3933(6)
H12 H 0.2537 -0.3271 -0.3330
H13 H 0.2658 -0.2314 -0.4192
H14 H 0.2594 -0.3456 -0.4453
C17 C 0.0187(5) -0.1884(3) -0.0016(3)
C18 C 0.1346(5) -0.2907(3) -0.0262(3)
C19 C 0.2708(6) -0.2948(4) -0.1129(4)
H15 H 0.2927 -0.2332 -0.1563
C20 C 0.3743(7) -0.3909(4) -0.1348(5)
H16 H 0.4645 -0.3943 -0.1943
C21 C 0.3455(8) -0.4819(4) -0.0693(5)
H17 H 0.4181 -0.5457 -0.0843
C22 C 0.2101(7) -0.4795(4) 0.0183(5)
C23 C 0.1036(6) -0.3831(3) 0.0389(4)
H18 H 0.0105 -0.3803 0.0968
C24 C 0.1795(10) -0.5784(5) 0.0928(6)
H19 H 0.2019 -0.6396 0.0545
H20 H 0.0641 -0.5694 0.1344
H21 H 0.2531 -0.5888 0.1365
C25 C 0.0287(8) -0.0712(6) 0.3732(5)
H22 H 0.1213 -0.0810 0.3120
H23 H 0.0319 -0.1343 0.4203
H24 H 0.0374 -0.0113 0.4053
C26 C -0.2858(11) -0.0228(10) 0.4237(6)
H25 H -0.3050 0.0528 0.4291
H26 H -0.2784 -0.0603 0.4887
H27 H -0.3775 -0.0418 0.4053
C27 C -0.1335(6) -0.0535(4) 0.2510(3)
H28 H -0.0305 -0.0703 0.2020
Ce1 Ce -0.27463(2) -0.005240(14) 0.035590(14)
N1 N -0.1305(6) -0.0513(4) 0.3456(3)
O1 O -0.4953(3) 0.1083(2) -0.0848(2)
O2 O -0.2433(4) 0.1460(2) -0.1039(2)
O3 O -0.4880(4) -0.1098(2) -0.1405(2)
O4 O -0.2410(3) -0.0877(2) -0.1219(2)
O5 O 0.0635(4) -0.1000(2) -0.0480(2)
O6 O -0.1208(4) -0.1901(3) 0.0637(3)
O7 O -0.2598(4) -0.0356(3) 0.2211(2)
Ce1A Ce -0.72537(2) 0.005240(14) -0.035590(14)
Ce1A_2 Ce 0.27463(2) 0.005240(14) -0.035590(14)
O1A O -0.5047(3) -0.1083(2) 0.0848(2)
O3A O -0.5120(4) 0.1098(2) 0.1405(2)
O5A O -0.0635(4) 0.1000(2) 0.0480(2)
loop_
_geom_bond_atom_site_label_1
_geom_bond_atom_site_label_2
_geom_bond_site_symmetry_1
_geom_bond_site_symmetry_2
C1 C2 1_555 1_555
C2 C3 1_555 1_555
C3 H1 1_555 1_555
C4 C3 1_555 1_555
H2 C4 1_555 1_555
C5 C4 1_555 1_555
H3 C5 1_555 1_555
C6 C5 1_555 1_555
C7 C2 1_555 1_555
H4 C7 1_555 1_555
C8 C6 1_555 1_555
H5 C8 1_555 1_555
H6 C8 1_555 1_555
H7 C8 1_555 1_555
C9 C10 1_555 1_555
C10 C11 1_555 1_555
C11 H8 1_555 1_555
C12 C11 1_555 1_555
H9 C12 1_555 1_555
C13 C12 1_555 1_555
H10 C13 1_555 1_555
C14 C13 1_555 1_555
C15 C10 1_555 1_555
H11 C15 1_555 1_555
C16 C14 1_555 1_555
H12 C16 1_555 1_555
H13 C16 1_555 1_555
H14 C16 1_555 1_555
C17 C18 1_555 1_555
C18 C19 1_555 1_555
C19 H15 1_555 1_555
C20 C19 1_555 1_555
H16 C20 1_555 1_555
C21 C20 1_555 1_555
H17 C21 1_555 1_555
C22 C21 1_555 1_555
C23 C18 1_555 1_555
H18 C23 1_555 1_555
C24 C22 1_555 1_555
H19 C24 1_555 1_555
H20 C24 1_555 1_555
H21 C24 1_555 1_555
C25 H22 1_555 1_555
H23 C25 1_555 1_555
H24 C25 1_555 1_555
C26 H25 1_555 1_555
H26 C26 1_555 1_555
H27 C26 1_555 1_555
C27 H28 1_555 1_555
Ce1 O1 1_555 1_555
N1 C25 1_555 1_555
O1 C1 1_555 1_555
O2 C1 1_555 1_555
O3 C9 1_555 1_555
O4 C9 1_555 1_555
O5 C17 1_555 1_555
O6 C17 1_555 1_555
O7 C27 1_555 1_555
Ce1A O1 1_555 1_555
Ce1A_2 O5 1_555 1_555
O1A Ce1 1_555 1_555
O3A Ce1 1_555 1_555
O5A Ce1 1_555 1_555
C6 C7 1_555 1_555
C14 C15 1_555 1_555
C22 C23 1_555 1_555
C26 N1 1_555 1_555
C27 N1 1_555 1_555
Ce1 O2 1_555 1_555
Ce1 O4 1_555 1_555
Ce1 O5 1_555 1_555
Ce1 O6 1_555 1_555
Ce1 O7 1_555 1_555
O3 Ce1A 1_555 1_555
Ce1A O1A 1_555 1_555
Ce1A_2 O5A 1_555 1_555

#END
