
#######################################################################
#
#                 Cambridge Crystallographic Data Centre
#                                CCDC 
#
#######################################################################
#
# If this CIF has been generated from an entry in the Cambridge 
# Structural Database, then it will include bibliographic, chemical, 
# crystal, experimental, refinement or atomic coordinate data resulting 
# from the CCDC's data processing and validation procedures.
#
#######################################################################

data_ECENIJ03
_symmetry_cell_setting           orthorhombic
_symmetry_space_group_name_H-M   'P n n a'
_symmetry_Int_Tables_number      52
_space_group_name_Hall           '-P 2a 2bc'
loop_
_symmetry_equiv_pos_site_id
_symmetry_equiv_pos_as_xyz
1 x,y,z
2 1/2+x,y,-z
3 1/2+x,1/2-y,1/2+z
4 -x,1/2+y,1/2+z
5 -x,-y,-z
6 1/2-x,-y,z
7 1/2-x,1/2+y,1/2-z
8 x,1/2-y,1/2-z
_cell_length_a                   20.645(3)
_cell_length_b                   13.484(2)
_cell_length_c                   8.2038(12)
_cell_angle_alpha                90
_cell_angle_beta                 90
_cell_angle_gamma                90
_cell_volume                     2283.75
loop_
_atom_site_label
_atom_site_type_symbol
_atom_site_fract_x
_atom_site_fract_y
_atom_site_fract_z
Co1 Co 0.502520(13) 0.7500 0.2500
O1 O 0.42633(6) 0.80837(8) 0.40239(16)
O2 O 0.37555(6) 0.94798(10) 0.47210(16)
O3 O 0.57541(6) 0.76826(9) 0.06409(16)
O4 O 0.64571(6) 0.88004(10) -0.03170(16)
K1 K 0.71415(3) 0.7500 -0.2500
K2 K 0.7500 1.0000 0.02294(7)
N1 N 0.51080(6) 0.89882(11) 0.22628(16)
C1 C 0.41926(7) 0.90105(12) 0.4025(2)
C2 C 0.47002(7) 0.95860(12) 0.3060(2)
C3 C 0.47594(9) 1.06024(13) 0.2960(2)
H1 H 0.4473 1.1017 0.3510
C4 C 0.52573(9) 1.09936(13) 0.2017(2)
H2 H 0.5308 1.1677 0.1932
C5 C 0.56769(8) 1.03627(12) 0.1205(2)
H3 H 0.6014 1.0615 0.0579
C6 C 0.55851(7) 0.93554(11) 0.13419(19)
C7 C 0.59763(7) 0.85597(12) 0.0481(2)
O5 O 0.81369(6) 0.80802(10) -0.04134(17)
H4 H 0.8070 0.8060 0.0609
H5 H 0.8476 0.7746 -0.0621
O6 O 0.78868(7) 0.87858(12) 0.27962(18)
H6 H 0.8173 0.8940 0.3497
H7 H 0.7533 0.8680 0.3295
O7 O 0.67358(7) 0.63539(12) 0.0419(3)
H8 H 0.6441 0.6788 0.0546
H9 H 0.6558 0.5785 0.0411
O8 O 0.7500 1.0000 -0.2961(3)
H10 H 0.7842 0.9821 -0.3459
H10E H 0.7158 1.0179 -0.3459
O1G O 0.42633(6) 0.69163(8) 0.09761(16)
O2G O 0.37555(6) 0.55202(10) 0.02790(16)
O3G O 0.57541(6) 0.73174(9) 0.43591(16)
O4G O 0.64571(6) 0.61996(10) 0.53170(16)
N1G N 0.51080(6) 0.60118(11) 0.27372(16)
C1G C 0.41926(7) 0.59895(12) 0.0975(2)
C2G C 0.47002(7) 0.54140(12) 0.1940(2)
C3G C 0.47594(9) 0.43976(13) 0.2040(2)
H1G H 0.4473 0.3983 0.1490
C4G C 0.52573(9) 0.40064(13) 0.2983(2)
H2G H 0.5308 0.3323 0.3068
C5G C 0.56769(8) 0.46373(12) 0.3795(2)
H3G H 0.6014 0.4385 0.4421
C6G C 0.55851(7) 0.56446(11) 0.36581(19)
C7G C 0.59763(7) 0.64403(12) 0.4519(2)
O5G O 0.81369(6) 0.69198(10) -0.45866(17)
H4G H 0.8070 0.6940 -0.5609
H5G H 0.8476 0.7254 -0.4379
O7G O 0.67358(7) 0.86461(12) -0.5419(3)
H8G H 0.6441 0.8212 -0.5546
H9G H 0.6558 0.9215 -0.5411
O6E O 0.71132(7) 1.12142(12) 0.27962(18)
H6E H 0.6827 1.1060 0.3497
H7E H 0.7467 1.1320 0.3295
O4G_2 O 0.64571(6) 0.61996(10) -0.46830(16)
O4E O 0.85429(6) 1.11996(10) -0.03170(16)
O5E O 0.68631(6) 1.19198(10) -0.04134(17)
K1_2 K 0.71415(3) 0.7500 0.7500
K2F K 0.7500 0.5000 0.47706(7)
K2F_2 K 0.7500 0.5000 -0.52294(7)
H4E H 0.6930 1.1940 0.0609
H5E H 0.6524 1.2254 -0.0621
loop_
_geom_bond_atom_site_label_1
_geom_bond_atom_site_label_2
_geom_bond_site_symmetry_1
_geom_bond_site_symmetry_2
Co1 O1 1_555 1_555
O1 C1 1_555 1_555
O2 C1 1_555 1_555
O3 Co1 1_555 1_555
O4 K1 1_555 1_555
K1 O5 1_555 1_555
K2 O4 1_555 1_555
N1 Co1 1_555 1_555
C1 C2 1_555 1_555
C2 N1 1_555 1_555
C3 C2 1_555 1_555
H1 C3 1_555 1_555
C4 C3 1_555 1_555
H2 C4 1_555 1_555
C5 C4 1_555 1_555
H3 C5 1_555 1_555
C6 N1 1_555 1_555
C7 O3 1_555 1_555
O5 K2 1_555 1_555
H4 O5 1_555 1_555
H5 O5 1_555 1_555
O6 K2 1_555 1_555
H6 O6 1_555 1_555
H7 O6 1_555 1_555
O7 K1 1_555 1_555
H8 O7 1_555 1_555
H9 O7 1_555 1_555
O8 K2 1_555 1_555
H10 O8 1_555 1_555
H10E O8 1_555 1_555
O1G Co1 1_555 1_555
O2G C1G 1_555 1_555
O3G Co1 1_555 1_555
O4G C7G 1_555 1_555
N1G Co1 1_555 1_555
C1G O1G 1_555 1_555
C2G N1G 1_555 1_555
C3G C2G 1_555 1_555
H1G C3G 1_555 1_555
C4G C3G 1_555 1_555
H2G C4G 1_555 1_555
C5G C4G 1_555 1_555
H3G C5G 1_555 1_555
C6G N1G 1_555 1_555
C7G O3G 1_555 1_555
O5G K1 1_555 1_555
H4G O5G 1_555 1_555
H5G O5G 1_555 1_555
O7G K1 1_555 1_555
H8G O7G 1_555 1_555
H9G O7G 1_555 1_555
O6E K2 1_555 1_555
H6E O6E 1_555 1_555
H7E O6E 1_555 1_555
O4G_2 K1 1_555 1_555
O4E K2 1_555 1_555
O5E K2 1_555 1_555
K1_2 O4G 1_555 1_555
K2F O4G 1_555 1_555
K2F_2 O5G 1_555 1_555
H4E O5E 1_555 1_555
H5E O5E 1_555 1_555
O4 C7 1_555 1_555
C5 C6 1_555 1_555
C6 C7 1_555 1_555
C1G C2G 1_555 1_555
C5G C6G 1_555 1_555
C6G C7G 1_555 1_555
O4G_2 K2F_2 1_555 1_555

#END
