
#######################################################################
#
#                 Cambridge Crystallographic Data Centre
#                                CCDC 
#
#######################################################################
#
# If this CIF has been generated from an entry in the Cambridge 
# Structural Database, then it will include bibliographic, chemical, 
# crystal, experimental, refinement or atomic coordinate data resulting 
# from the CCDC's data processing and validation procedures.
#
#######################################################################

data_ECENIJ
_symmetry_cell_setting           orthorhombic
_symmetry_space_group_name_H-M   'P n n a'
_symmetry_Int_Tables_number      52
_space_group_name_Hall           '-P 2a 2bc'
loop_
_symmetry_equiv_pos_site_id
_symmetry_equiv_pos_as_xyz
1 x,y,z
2 1/2+x,y,-z
3 1/2+x,1/2-y,1/2+z
4 -x,1/2+y,1/2+z
5 -x,-y,-z
6 1/2-x,-y,z
7 1/2-x,1/2+y,1/2-z
8 x,1/2-y,1/2-z
_cell_length_a                   20.637(2)
_cell_length_b                   13.4797(11)
_cell_length_c                   8.2004(10)
_cell_angle_alpha                90
_cell_angle_beta                 90
_cell_angle_gamma                90
_cell_volume                     2281.19
loop_
_atom_site_label
_atom_site_type_symbol
_atom_site_fract_x
_atom_site_fract_y
_atom_site_fract_z
Co1 Co 0.49763(2) 0.2500 0.2500
N1 N 0.48939(9) 0.3990(2) 0.2266(2)
O1 O 0.57382(8) 0.30793(12) 0.4023(2)
O2 O 0.62443(9) 0.44812(14) 0.4726(2)
O3 O 0.42484(9) 0.26809(13) 0.0642(2)
O4 O 0.35448(9) 0.38005(14) -0.0316(2)
C1 C 0.58092(11) 0.4014(2) 0.4025(3)
C2 C 0.53008(10) 0.4587(2) 0.3065(3)
C3 C 0.52405(13) 0.5603(2) 0.2964(3)
H1 H 0.55271(13) 0.6018(2) 0.3511(3)
C4 C 0.47411(13) 0.5992(2) 0.2024(3)
H2 H 0.46878(13) 0.6675(2) 0.1947(3)
C5 C 0.43223(12) 0.5363(2) 0.1201(3)
H3 H 0.39862(12) 0.5615(2) 0.0570(3)
C6 C 0.44156(11) 0.4352(2) 0.1340(3)
C7 C 0.40264(11) 0.3558(2) 0.0479(3)
K1 K 0.28590(5) 0.2500 -0.2500
K2 K 0.2500 0.5000 0.02303(10)
O5 O 0.32643(11) 0.1360(2) 0.0414(4)
H4 H 0.35816(11) 0.1756(2) 0.0535(4)
H5 H 0.34545(11) 0.0803(2) 0.0327(4)
O6 O 0.18638(10) 0.30817(15) -0.0413(2)
H6 H 0.15135(10) 0.27769(15) -0.0628(2)
H7 H 0.19128(10) 0.30000(15) 0.0608(2)
O7 O 0.21131(11) 0.3780(2) 0.2805(3)
H8 H 0.24704(11) 0.3816(2) 0.3317(3)
H9 H 0.18369(11) 0.3990(2) 0.3492(3)
O8 O 0.2500 0.5000 -0.2980(5)
H10 H 0.2177 0.4847 -0.3573(5)
H10E H 0.2823 0.5153 -0.3573(5)
N1G N 0.48939(9) 0.1010(2) 0.2734(2)
O1G O 0.57382(8) 0.19207(12) 0.0977(2)
O2G O 0.62443(9) 0.05188(14) 0.0274(2)
O3G O 0.42484(9) 0.23191(13) 0.4358(2)
O4G O 0.35448(9) 0.11995(14) 0.5316(2)
C1G C 0.58092(11) 0.0986(2) 0.0975(3)
C2G C 0.53008(10) 0.0413(2) 0.1935(3)
C3G C 0.52405(13) -0.0603(2) 0.2036(3)
H1G H 0.55271(13) -0.1018(2) 0.1489(3)
C4G C 0.47411(13) -0.0992(2) 0.2976(3)
H2G H 0.46878(13) -0.1675(2) 0.3053(3)
C5G C 0.43223(12) -0.0363(2) 0.3799(3)
H3G H 0.39862(12) -0.0615(2) 0.4430(3)
C6G C 0.44156(11) 0.0648(2) 0.3660(3)
C7G C 0.40264(11) 0.1442(2) 0.4521(3)
O5G O 0.32643(11) 0.3640(2) -0.5414(4)
H4G H 0.35816(11) 0.3244(2) -0.5535(4)
H5G H 0.34545(11) 0.4197(2) -0.5327(4)
O6G O 0.18638(10) 0.19183(15) -0.4587(2)
H6G H 0.15135(10) 0.22231(15) -0.4372(2)
H7G H 0.19128(10) 0.20000(15) -0.5608(2)
O7E O 0.28869(11) 0.6220(2) 0.2805(3)
H8E H 0.25296(11) 0.6184(2) 0.3317(3)
H9E H 0.31631(11) 0.6010(2) 0.3492(3)
O4G_2 O 0.35448(9) 0.11995(14) -0.4684(2)
O4E O 0.14552(9) 0.61995(14) -0.0316(2)
O6E O 0.31362(10) 0.69183(15) -0.0413(2)
K1_2 K 0.28590(5) 0.2500 0.7500
K2F K 0.2500 0.0000 0.47697(10)
K2F_2 K 0.2500 0.0000 -0.52303(10)
H6E H 0.34865(10) 0.72231(15) -0.0628(2)
H7E H 0.30872(10) 0.70000(15) 0.0608(2)
loop_
_geom_bond_atom_site_label_1
_geom_bond_atom_site_label_2
_geom_bond_site_symmetry_1
_geom_bond_site_symmetry_2
Co1 N1 1_555 1_555
N1 C2 1_555 1_555
O1 Co1 1_555 1_555
O2 C1 1_555 1_555
O3 Co1 1_555 1_555
O4 C7 1_555 1_555
C1 O1 1_555 1_555
C2 C1 1_555 1_555
C3 C2 1_555 1_555
H1 C3 1_555 1_555
C4 C3 1_555 1_555
H2 C4 1_555 1_555
C5 C4 1_555 1_555
H3 C5 1_555 1_555
C6 N1 1_555 1_555
C7 O3 1_555 1_555
K1 O4 1_555 1_555
K2 O4 1_555 1_555
O5 K1 1_555 1_555
H4 O5 1_555 1_555
H5 O5 1_555 1_555
O6 K1 1_555 1_555
H6 O6 1_555 1_555
H7 O6 1_555 1_555
O7 K2 1_555 1_555
H8 O7 1_555 1_555
H9 O7 1_555 1_555
O8 K2 1_555 1_555
H10 O8 1_555 1_555
H10E O8 1_555 1_555
N1G Co1 1_555 1_555
O1G Co1 1_555 1_555
O2G C1G 1_555 1_555
O3G Co1 1_555 1_555
O4G C7G 1_555 1_555
C1G O1G 1_555 1_555
C2G N1G 1_555 1_555
C3G C2G 1_555 1_555
H1G C3G 1_555 1_555
C4G C3G 1_555 1_555
H2G C4G 1_555 1_555
C5G C4G 1_555 1_555
H3G C5G 1_555 1_555
C6G N1G 1_555 1_555
C7G O3G 1_555 1_555
O5G K1 1_555 1_555
H4G O5G 1_555 1_555
H5G O5G 1_555 1_555
O6G K1 1_555 1_555
H6G O6G 1_555 1_555
H7G O6G 1_555 1_555
O7E K2 1_555 1_555
H8E O7E 1_555 1_555
H9E O7E 1_555 1_555
O4G_2 K1 1_555 1_555
O4E K2 1_555 1_555
O6E K2 1_555 1_555
K1_2 O4G 1_555 1_555
K2F O4G 1_555 1_555
K2F_2 O6G 1_555 1_555
H6E O6E 1_555 1_555
H7E O6E 1_555 1_555
C5 C6 1_555 1_555
C6 C7 1_555 1_555
K2 O6 1_555 1_555
C1G C2G 1_555 1_555
C5G C6G 1_555 1_555
C6G C7G 1_555 1_555
O4G_2 K2F_2 1_555 1_555

#END
