
#######################################################################
#
#                 Cambridge Crystallographic Data Centre
#                                CCDC 
#
#######################################################################
#
# If this CIF has been generated from an entry in the Cambridge 
# Structural Database, then it will include bibliographic, chemical, 
# crystal, experimental, refinement or atomic coordinate data resulting 
# from the CCDC's data processing and validation procedures.
#
#######################################################################

data_ECENOP
_symmetry_cell_setting           orthorhombic
_symmetry_space_group_name_H-M   'P n n a'
_symmetry_Int_Tables_number      52
_space_group_name_Hall           '-P 2a 2bc'
loop_
_symmetry_equiv_pos_site_id
_symmetry_equiv_pos_as_xyz
1 x,y,z
2 1/2+x,y,-z
3 1/2+x,1/2-y,1/2+z
4 -x,1/2+y,1/2+z
5 -x,-y,-z
6 1/2-x,-y,z
7 1/2-x,1/2+y,1/2-z
8 x,1/2-y,1/2-z
_cell_length_a                   20.6477(14)
_cell_length_b                   13.3747(12)
_cell_length_c                   8.2393(8)
_cell_angle_alpha                90
_cell_angle_beta                 90
_cell_angle_gamma                90
_cell_volume                     2275.34
loop_
_atom_site_label
_atom_site_type_symbol
_atom_site_fract_x
_atom_site_fract_y
_atom_site_fract_z
Ni1 Ni 0.49480(2) 0.2500 0.2500
N1 N 0.48907(11) 0.3963(2) 0.2249(3)
O1 O 0.56991(9) 0.30250(15) 0.4085(3)
O2 O 0.62331(11) 0.4424(2) 0.4745(3)
O3 O 0.42217(10) 0.2648(2) 0.0707(3)
O4 O 0.35450(10) 0.3789(2) -0.0324(3)
C1 C 0.57879(13) 0.3959(2) 0.4047(3)
C2 C 0.53010(13) 0.4549(2) 0.3061(3)
C3 C 0.5250(2) 0.5581(2) 0.2963(4)
H1 H 0.5537(2) 0.5994(2) 0.3519(4)
C4 C 0.4757(2) 0.5980(2) 0.2010(4)
H2 H 0.4713(2) 0.6670(2) 0.1920(4)
C5 C 0.43319(14) 0.5357(2) 0.1194(4)
H3 H 0.39975(14) 0.5619(2) 0.0569(4)
C6 C 0.44168(12) 0.4334(2) 0.1331(3)
C7 C 0.40189(13) 0.3542(2) 0.0490(3)
K1 K 0.28495(6) 0.2500 -0.2500
K2 K 0.2500 0.5000 0.02216(12)
O5 O 0.32587(13) 0.1301(2) 0.0373(5)
H4 H 0.32719(13) 0.1218(2) 0.1395(5)
H5 H 0.35678(13) 0.1714(2) 0.0491(5)
O6 O 0.18591(11) 0.3080(2) -0.0401(3)
H6 H 0.15012(11) 0.2790(2) -0.0599(3)
H7 H 0.19238(11) 0.3006(2) 0.0611(3)
O7 O 0.21096(13) 0.3787(2) 0.2790(3)
H8 H 0.24602(13) 0.3782(2) 0.3331(3)
H9 H 0.18068(13) 0.3821(2) 0.3487(3)
O8 O 0.2500 0.5000 -0.2977(6)
H10 H 0.2433 0.5577 -0.3375(6)
H10E H 0.2567 0.4423 -0.3375(6)
N1G N 0.48907(11) 0.1037(2) 0.2751(3)
O1G O 0.56991(9) 0.19750(15) 0.0915(3)
O2G O 0.62331(11) 0.0576(2) 0.0255(3)
O3G O 0.42217(10) 0.2352(2) 0.4293(3)
O4G O 0.35450(10) 0.1211(2) 0.5324(3)
C1G C 0.57879(13) 0.1041(2) 0.0953(3)
C2G C 0.53010(13) 0.0451(2) 0.1939(3)
C3G C 0.5250(2) -0.0581(2) 0.2037(4)
H1G H 0.5537(2) -0.0994(2) 0.1481(4)
C4G C 0.4757(2) -0.0980(2) 0.2990(4)
H2G H 0.4713(2) -0.1670(2) 0.3080(4)
C5G C 0.43319(14) -0.0357(2) 0.3806(4)
H3G H 0.39975(14) -0.0619(2) 0.4431(4)
C6G C 0.44168(12) 0.0666(2) 0.3669(3)
C7G C 0.40189(13) 0.1458(2) 0.4510(3)
O5G O 0.32587(13) 0.3699(2) -0.5373(5)
H4G H 0.32719(13) 0.3782(2) -0.6395(5)
H5G H 0.35678(13) 0.3286(2) -0.5491(5)
O6G O 0.18591(11) 0.1920(2) -0.4599(3)
H6G H 0.15012(11) 0.2210(2) -0.4401(3)
H7G H 0.19238(11) 0.1994(2) -0.5611(3)
O7E O 0.28904(13) 0.6213(2) 0.2790(3)
H8E H 0.25398(13) 0.6218(2) 0.3331(3)
H9E H 0.31932(13) 0.6179(2) 0.3487(3)
O4G_2 O 0.35450(10) 0.1211(2) -0.4676(3)
O4E O 0.14550(10) 0.6211(2) -0.0324(3)
O6E O 0.31409(11) 0.6920(2) -0.0401(3)
K1_2 K 0.28495(6) 0.2500 0.7500
K2F K 0.2500 0.0000 0.47784(12)
K2F_2 K 0.2500 0.0000 -0.52216(12)
H6E H 0.34988(11) 0.7210(2) -0.0599(3)
H7E H 0.30762(11) 0.6994(2) 0.0611(3)
loop_
_geom_bond_atom_site_label_1
_geom_bond_atom_site_label_2
_geom_bond_site_symmetry_1
_geom_bond_site_symmetry_2
Ni1 N1 1_555 1_555
N1 C2 1_555 1_555
O1 Ni1 1_555 1_555
O2 C1 1_555 1_555
O3 Ni1 1_555 1_555
O4 C7 1_555 1_555
C1 O1 1_555 1_555
C2 C1 1_555 1_555
C3 C2 1_555 1_555
H1 C3 1_555 1_555
C4 C3 1_555 1_555
H2 C4 1_555 1_555
C5 C4 1_555 1_555
H3 C5 1_555 1_555
C6 N1 1_555 1_555
C7 O3 1_555 1_555
K1 O4 1_555 1_555
K2 O4 1_555 1_555
O5 K1 1_555 1_555
H4 O5 1_555 1_555
H5 O5 1_555 1_555
O6 K1 1_555 1_555
H6 O6 1_555 1_555
H7 O6 1_555 1_555
O7 K2 1_555 1_555
H8 O7 1_555 1_555
H9 O7 1_555 1_555
O8 K2 1_555 1_555
H10 O8 1_555 1_555
H10E O8 1_555 1_555
N1G Ni1 1_555 1_555
O1G Ni1 1_555 1_555
O2G C1G 1_555 1_555
O3G Ni1 1_555 1_555
O4G C7G 1_555 1_555
C1G O1G 1_555 1_555
C2G N1G 1_555 1_555
C3G C2G 1_555 1_555
H1G C3G 1_555 1_555
C4G C3G 1_555 1_555
H2G C4G 1_555 1_555
C5G C4G 1_555 1_555
H3G C5G 1_555 1_555
C6G N1G 1_555 1_555
C7G O3G 1_555 1_555
O5G K1 1_555 1_555
H4G O5G 1_555 1_555
H5G O5G 1_555 1_555
O6G K1 1_555 1_555
H6G O6G 1_555 1_555
H7G O6G 1_555 1_555
O7E K2 1_555 1_555
H8E O7E 1_555 1_555
H9E O7E 1_555 1_555
O4G_2 K1 1_555 1_555
O4E K2 1_555 1_555
O6E K2 1_555 1_555
K1_2 O4G 1_555 1_555
K2F O4G 1_555 1_555
K2F_2 O6G 1_555 1_555
H6E O6E 1_555 1_555
H7E O6E 1_555 1_555
C5 C6 1_555 1_555
C6 C7 1_555 1_555
K2 O6 1_555 1_555
C1G C2G 1_555 1_555
C5G C6G 1_555 1_555
C6G C7G 1_555 1_555
O4G_2 K2F_2 1_555 1_555

#END
