
#######################################################################
#
#                 Cambridge Crystallographic Data Centre
#                                CCDC 
#
#######################################################################
#
# If this CIF has been generated from an entry in the Cambridge 
# Structural Database, then it will include bibliographic, chemical, 
# crystal, experimental, refinement or atomic coordinate data resulting 
# from the CCDC's data processing and validation procedures.
#
#######################################################################

data_ECENAC
_symmetry_cell_setting           triclinic
_symmetry_space_group_name_H-M   'P -1'
_symmetry_Int_Tables_number      2
_space_group_name_Hall           '-P 1'
loop_
_symmetry_equiv_pos_site_id
_symmetry_equiv_pos_as_xyz
1 x,y,z
2 -x,-y,-z
_cell_length_a                   10.6142(6)
_cell_length_b                   11.3799(6)
_cell_length_c                   17.5157(9)
_cell_angle_alpha                96.2600(10)
_cell_angle_beta                 101.2480(10)
_cell_angle_gamma                106.5040(10)
_cell_volume                     1958.91
loop_
_atom_site_label
_atom_site_type_symbol
_atom_site_fract_x
_atom_site_fract_y
_atom_site_fract_z
C1 C 0.6076(2) 0.7179(2) 0.28210(13)
C2 C 0.6659(3) 0.8147(3) 0.24183(15)
H1 H 0.6234 0.8341 0.1954
C3 C 0.8019(3) 0.8762(3) 0.28627(17)
H2 H 0.8638 0.9425 0.2734
C4 C 0.8263(3) 0.8196(3) 0.35276(18)
H3 H 0.9069 0.8423 0.3912
C5 C 0.7078(2) 0.7225(2) 0.35134(15)
H4 H 0.6968 0.6706 0.3887
C6 C 0.5005(2) 0.9205(2) 0.38409(14)
C7 C 0.5651(3) 1.0153(2) 0.34384(18)
H5 H 0.5254 1.0351 0.2968
C8 C 0.6990(3) 1.0730(3) 0.3881(2)
H6 H 0.7631 1.1374 0.3751
C9 C 0.7199(3) 1.0171(3) 0.45501(19)
H7 H 0.7998 1.0386 0.4940
C10 C 0.5978(3) 0.9215(3) 0.45314(15)
H8 H 0.5842 0.8695 0.4902
C11 C 0.4689(2) 0.6342(2) 0.26040(13)
C12 C 0.3013(3) 0.4917(2) 0.29495(14)
H9 H 0.2707 0.4413 0.3302
C13 C 0.2114(3) 0.4892(2) 0.22592(15)
H10 H 0.1219 0.4392 0.2165
C14 C 0.3794(2) 0.6292(2) 0.18922(13)
H11 H 0.4103 0.6770 0.1529
C15 C 0.3592(2) 0.8414(2) 0.35864(13)
C16 C 0.1565(3) 0.7809(3) 0.26787(15)
H12 H 0.1037 0.7864 0.2202
C17 C 0.0984(2) 0.7020(2) 0.31402(14)
H13 H 0.0074 0.6555 0.2969
C18 C 0.2983(2) 0.7609(2) 0.40516(13)
H14 H 0.3499 0.7561 0.4535
C19 C 0.0639(2) 0.3135(2) 0.44756(16)
C20 C 0.0945(4) 0.1991(3) 0.4157(2)
H15 H 0.1657 0.1864 0.4537
H16 H 0.1226 0.2099 0.3674
H17 H 0.0149 0.1281 0.4058
C21 C -0.2138(2) 0.4247(2) 0.39054(15)
C22 C -0.3397(3) 0.3755(3) 0.32573(17)
H18 H -0.4123 0.3281 0.3460
H19 H -0.3248 0.3230 0.2839
H20 H -0.3630 0.4437 0.3057
C23 C 0.1743(3) 0.5239(3) -0.08217(17)
C24 C 0.2747(4) 0.5342(4) -0.1323(2)
H21 H 0.2284 0.5179 -0.1870
H22 H 0.3218 0.4747 -0.1227
H23 H 0.3384 0.6166 -0.1192
C25 C 0.0094(2) 0.7271(2) 0.00627(14)
C26 C 0.0073(3) 0.8593(2) 0.01169(18)
H24 H 0.0734 0.9050 -0.0136
H25 H 0.0282 0.8972 0.0663
H26 H -0.0808 0.8601 -0.0141
Cu1 Cu 0.06386(3) 0.56343(3) 0.453122(16)
Cu2 Cu 0.09830(3) 0.53129(2) 0.063610(16)
Fe1 Fe 0.66684(3) 0.88747(3) 0.35397(2)
N1 N 0.4291(2) 0.56250(19) 0.31327(11)
N2 N 0.2505(2) 0.55727(18) 0.17224(11)
N3 N 0.2868(2) 0.8502(2) 0.28919(12)
N4 N 0.16892(19) 0.69052(18) 0.38265(11)
O1 O 0.1054(2) 0.41036(19) 0.41976(13)
O2 O -0.00254(19) 0.30402(17) 0.49930(11)
O3 O -0.11104(19) 0.49520(19) 0.37507(11)
O4 O -0.21934(18) 0.39149(19) 0.45595(11)
O5 O 0.21887(19) 0.54605(19) -0.00851(12)
O6 O 0.0511(2) 0.49334(19) -0.11722(11)
O7 O 0.09316(18) 0.70244(14) 0.05959(10)
O8 O -0.07235(19) 0.64910(15) -0.05029(11)
Cu1A Cu -0.06386(3) 0.43657(3) 0.546878(16)
Cu2A Cu -0.09830(3) 0.46871(2) -0.063610(16)
O2A O 0.00254(19) 0.69598(17) 0.50070(11)
O4A O 0.21934(18) 0.60851(19) 0.54405(11)
O6A O -0.0511(2) 0.50666(19) 0.11722(11)
O8A O 0.07235(19) 0.35090(15) 0.05029(11)
C27 C 0.5801(3) 0.8117(3) 0.00835(18)
C28 C 0.6290(4) 0.7003(3) 0.0153(3)
H27 H 0.7063 0.7213 0.0591
H28 H 0.6536 0.6762 -0.0325
H29 H 0.5582 0.6325 0.0238
C29 C 0.7010(3) 1.1216(2) 0.11242(16)
C30 C 0.8258(3) 1.1871(3) 0.1757(2)
H30 H 0.8015 1.2038 0.2248
H31 H 0.8727 1.2642 0.1618
H32 H 0.8835 1.1356 0.1811
Cu3 Cu 0.43272(3) 0.96983(3) 0.053059(18)
O9 O 0.5060(2) 0.83025(18) 0.05249(12)
O10 O 0.6186(3) 0.8795(2) -0.04048(14)
O11 O 0.5950(2) 1.0705(2) 0.13305(12)
O12 O 0.7099(2) 1.1209(2) 0.04165(12)
O13 O 0.31141(18) 0.90398(18) 0.13462(10)
Cu3A Cu 0.56728(3) 1.03017(3) -0.053059(18)
O10A O 0.3814(3) 1.1205(2) 0.04048(14)
O12A O 0.2901(2) 0.8791(2) -0.04165(12)
C31 C 0.3061(6) 0.1909(5) 0.2078(4)
H33 H 0.3499 0.1447 0.1789
H34 H 0.3623 0.2258 0.2599
H35 H 0.2916 0.2567 0.1808
C32 C 0.1841(6) 0.1132(5) 0.2131(3)
N5 N 0.0786(6) 0.0459(6) 0.2141(4)
C33? C 0.5754(9) 0.6954(10) 0.5629(7)
C34? C 0.5284(6) 0.5684(7) 0.5184(4)
N6? N 0.5284(6) 0.5684(7) 0.5184(4)
loop_
_geom_bond_atom_site_label_1
_geom_bond_atom_site_label_2
_geom_bond_site_symmetry_1
_geom_bond_site_symmetry_2
C1 C2 1_555 1_555
C2 H1 1_555 1_555
C3 C2 1_555 1_555
H2 C3 1_555 1_555
C4 C3 1_555 1_555
H3 C4 1_555 1_555
C5 C1 1_555 1_555
H4 C5 1_555 1_555
C6 C7 1_555 1_555
C7 H5 1_555 1_555
C8 C7 1_555 1_555
H6 C8 1_555 1_555
C9 C8 1_555 1_555
H7 C9 1_555 1_555
C10 C6 1_555 1_555
H8 C10 1_555 1_555
C11 C1 1_555 1_555
C12 H9 1_555 1_555
C13 C12 1_555 1_555
H10 C13 1_555 1_555
C14 C11 1_555 1_555
H11 C14 1_555 1_555
C15 C6 1_555 1_555
C16 H12 1_555 1_555
C17 C16 1_555 1_555
H13 C17 1_555 1_555
C18 C15 1_555 1_555
H14 C18 1_555 1_555
C19 C20 1_555 1_555
C20 H15 1_555 1_555
H16 C20 1_555 1_555
H17 C20 1_555 1_555
C21 C22 1_555 1_555
C22 H18 1_555 1_555
H19 C22 1_555 1_555
H20 C22 1_555 1_555
C23 C24 1_555 1_555
C24 H21 1_555 1_555
H22 C24 1_555 1_555
H23 C24 1_555 1_555
C25 C26 1_555 1_555
C26 H24 1_555 1_555
H25 C26 1_555 1_555
H26 C26 1_555 1_555
C27 C28 1_555 1_555
C28 H27 1_555 1_555
H28 C28 1_555 1_555
H29 C28 1_555 1_555
C29 C30 1_555 1_555
C30 H30 1_555 1_555
H31 C30 1_555 1_555
H32 C30 1_555 1_555
C31 H33 1_555 1_555
H34 C31 1_555 1_555
H35 C31 1_555 1_555
C32 C31 1_555 1_555
Cu1 N4 1_555 1_555
Cu2 N2 1_555 1_555
Cu3 O9 1_555 1_555
Fe1 C1 1_555 1_555
N1 C11 1_555 1_555
N2 C13 1_555 1_555
N3 C15 1_555 1_555
N4 C17 1_555 1_555
N5 C32 1_555 1_555
O1 C19 1_555 1_555
O2 C19 1_555 1_555
O3 C21 1_555 1_555
O4 C21 1_555 1_555
O5 C23 1_555 1_555
O6 C23 1_555 1_555
O7 C25 1_555 1_555
O8 C25 1_555 1_555
O9 C27 1_555 1_555
O10 C27 1_555 1_555
O11 C29 1_555 1_555
O12 C29 1_555 1_555
O13 Cu3 1_555 1_555
Cu1A Cu1 1_555 1_555
Cu2A Cu2 1_555 1_555
Cu3A Cu3 1_555 1_555
O2A Cu1 1_555 1_555
O4A Cu1 1_555 1_555
O6A Cu2 1_555 1_555
O8A Cu2 1_555 1_555
O10A Cu3 1_555 1_555
O12A Cu3 1_555 1_555
C2 Fe1 1_555 1_555
C3 Fe1 1_555 1_555
C4 C5 1_555 1_555
C4 Fe1 1_555 1_555
C5 Fe1 1_555 1_555
C6 Fe1 1_555 1_555
C7 Fe1 1_555 1_555
C8 Fe1 1_555 1_555
C9 C10 1_555 1_555
C9 Fe1 1_555 1_555
C10 Fe1 1_555 1_555
C12 N1 1_555 1_555
C14 N2 1_555 1_555
C16 N3 1_555 1_555
C18 N4 1_555 1_555
Cu1 O1 1_555 1_555
Cu1 O3 1_555 1_555
Cu2 O5 1_555 1_555
Cu2 O7 1_555 1_555
Cu3 O11 1_555 1_555
O2 Cu1A 1_555 1_555
O4 Cu1A 1_555 1_555
O6 Cu2A 1_555 1_555
O8 Cu2A 1_555 1_555
O10 Cu3A 1_555 1_555
O12 Cu3A 1_555 1_555

#END
