
#######################################################################
#
#                 Cambridge Crystallographic Data Centre
#                                CCDC 
#
#######################################################################
#
# If this CIF has been generated from an entry in the Cambridge 
# Structural Database, then it will include bibliographic, chemical, 
# crystal, experimental, refinement or atomic coordinate data resulting 
# from the CCDC's data processing and validation procedures.
#
#######################################################################

data_ECEVAL
_symmetry_cell_setting           triclinic
_symmetry_space_group_name_H-M   'P -1'
_symmetry_Int_Tables_number      2
_space_group_name_Hall           '-P 1'
loop_
_symmetry_equiv_pos_site_id
_symmetry_equiv_pos_as_xyz
1 x,y,z
2 -x,-y,-z
_cell_length_a                   10.067(2)
_cell_length_b                   11.536(2)
_cell_length_c                   15.393(3)
_cell_angle_alpha                105.81(3)
_cell_angle_beta                 98.43(3)
_cell_angle_gamma                99.60(3)
_cell_volume                     1660.81
loop_
_atom_site_label
_atom_site_type_symbol
_atom_site_fract_x
_atom_site_fract_y
_atom_site_fract_z
Cu1 Cu 0.5000 -1.0000 0.5000
Fe1 Fe 0.07747(7) -0.84137(7) 0.35247(5)
Cu2 Cu 0.0000 -1.0000 0.0000
N1 N 0.0503(4) -0.7532(4) 0.4765(3)
N2 N 0.5541(4) -0.8179(4) 0.5108(3)
N3 N -0.1722(5) -1.1134(5) 0.0075(3)
N4 N 0.5589(5) -1.0313(4) 0.3781(3)
C1 C -0.0787(6) -0.9755(5) 0.3340(4)
N5 N 0.4583(5) -1.2527(4) 0.3265(3)
N6 N -0.1097(6) -0.7062(5) 0.2566(4)
C2 C 0.1948(5) -0.9345(5) 0.4042(3)
N7 N 0.0154(6) -0.7152(5) 0.6161(3)
H1 H -0.0013 -0.7273 0.6665
C3 C -0.0412(6) -0.7551(5) 0.2935(4)
C4 C 0.2310(6) -0.7116(6) 0.3590(4)
C5 C 0.6394(6) -0.8084(5) 0.4399(4)
H2 H 0.7307 -0.8214 0.4613
N8 N 0.3188(6) -0.6338(6) 0.3605(5)
N9 N 0.2627(5) -0.9905(5) 0.4330(3)
N10 N 0.1202(6) -0.9795(5) 0.1625(4)
N11 N 0.0893(5) -1.1385(5) -0.0525(3)
N12 N -0.1706(5) -1.0549(5) 0.3224(4)
C6 C 0.4713(7) -1.1396(5) 0.3031(4)
H3 H 0.5105 -1.1493 0.2482
H4 H 0.3805 -1.1235 0.2885
C7 C 0.1072(5) -0.9272(5) 0.2337(4)
C8 C 0.5686(6) -0.9138(5) 0.3538(4)
H5 H 0.6210 -0.9153 0.3056
H6 H 0.4774 -0.9035 0.3316
C9 C -0.1458(8) -1.2214(7) 0.0369(5)
H7 H -0.0937 -1.1922 0.0998
H8 H -0.2332 -1.2724 0.0363
C10 C 0.6233(6) -0.7385(5) 0.6061(4)
H9 H 0.7093 -0.7620 0.6231
H10 H 0.6452 -0.6533 0.6063
C11 C 0.0262(7) -0.8009(6) 0.5418(4)
H11 H 0.0178 -0.8841 0.5368
O2 O 0.4905(6) -1.5076(5) 0.2760(4)
H12 H 0.5366 -1.5472 0.2446
N13 N -0.0720(7) -1.2956(5) -0.0204(4)
C12 C 0.0349(8) -0.6062(6) 0.5992(5)
H13 H 0.0335 -0.5298 0.6391
C13 C 0.5883(7) -1.2940(6) 0.3385(5)
H14 H 0.6273 -1.2959 0.2842
H15 H 0.6520 -1.2331 0.3906
C14 C 0.6563(7) -0.6843(6) 0.4216(5)
H16 H 0.7018 -0.6201 0.4775
H17 H 0.7104 -0.6841 0.3752
H18 H 0.5675 -0.6704 0.4007
C15 C 0.2370(7) -1.0816(7) -0.0422(5)
H19 H 0.2844 -1.0622 0.0213
H20 H 0.2804 -1.1385 -0.0811
C16 C 0.0703(8) -1.2412(7) -0.0122(5)
H21 H 0.1146 -1.2108 0.0525
H22 H 0.1152 -1.3042 -0.0428
C17 C 0.0568(7) -0.6301(6) 0.5127(5)
H23 H 0.0739 -0.5716 0.4822
C18 C -0.2451(7) -1.0344(7) 0.0698(4)
H24 H -0.1943 -1.0130 0.1334
C19 C -0.3954(8) -1.0960(8) 0.0649(6)
H25 H -0.3974 -1.1690 0.0837
H26 H -0.4463 -1.1179 0.0028
H27 H -0.4362 -1.0396 0.1052
C20 C 0.5788(8) -1.4166(7) 0.3535(7)
H28 H 0.5428 -1.4162 0.4087
H29 H 0.6695 -1.4352 0.3618
C21 C -0.1493(11) -1.3663(8) -0.1131(7)
H30 H -0.2156 -1.3359 -0.1437
O4 O -0.1287(15) -1.5585(8) -0.1007(8)
H31 H -0.1142 -1.6242 -0.1305
C22 C -0.122(2) -1.4757(13) -0.1528(11)
H32 H -0.0308 -1.4619 -0.1663
H33 H -0.1869 -1.5142 -0.2111
Fe1A Fe 0.92253(7) -1.15863(7) 0.64753(5)
Cu2_2 Cu 1.0000 -1.0000 1.0000
N1A N 0.9497(4) -1.2468(4) 0.5235(3)
N2A N 0.4459(4) -1.1821(4) 0.4892(3)
N3A N 0.1722(5) -0.8866(5) -0.0075(3)
N4A N 0.4411(5) -0.9687(4) 0.6219(3)
C1A C 1.0787(6) -1.0245(5) 0.6660(4)
N5A N 0.5417(5) -0.7473(4) 0.6735(3)
N6A N 1.1097(6) -1.2938(5) 0.7434(4)
C2A C 0.8052(5) -1.0655(5) 0.5958(3)
N7A N 0.9846(6) -1.2848(5) 0.3839(3)
H1A H 1.0013 -1.2727 0.3335
C3A C 1.0412(6) -1.2449(5) 0.7065(4)
C4A C 0.7690(6) -1.2884(6) 0.6410(4)
C5A C 0.3606(6) -1.1916(5) 0.5601(4)
H2A H 0.2693 -1.1786 0.5387
N8A N 0.6812(6) -1.3662(6) 0.6395(5)
N9A N 0.7373(5) -1.0095(5) 0.5670(3)
N10A N 0.8798(6) -1.0205(5) 0.8375(4)
N10A_2 N -0.1202(6) -1.0205(5) -0.1625(4)
N11A N -0.0893(5) -0.8615(5) 0.0525(3)
N12A N 1.1706(5) -0.9451(5) 0.6776(4)
C6A C 0.5287(7) -0.8604(5) 0.6969(4)
H3A H 0.4895 -0.8507 0.7518
H4A H 0.6195 -0.8765 0.7115
C7A C 0.8928(5) -1.0728(5) 0.7663(4)
C8A C 0.4314(6) -1.0862(5) 0.6462(4)
H5A H 0.3790 -1.0847 0.6944
H6A H 0.5226 -1.0965 0.6684
C9A C 0.1458(8) -0.7786(7) -0.0369(5)
H7A H 0.0937 -0.8078 -0.0998
H8A H 0.2332 -0.7276 -0.0363
C10A C 0.3767(6) -1.2615(5) 0.3939(4)
H9A H 0.2907 -1.2380 0.3769
H10A H 0.3548 -1.3467 0.3937
C11A C 0.9738(7) -1.1991(6) 0.4582(4)
H11A H 0.9822 -1.1159 0.4632
O2A O 0.5095(6) -0.4924(5) 0.7240(4)
H12A H 0.4634 -0.4528 0.7554
N13A N 0.0720(7) -0.7044(5) 0.0204(4)
C12A C 0.9651(8) -1.3938(6) 0.4008(5)
H13A H 0.9665 -1.4702 0.3609
C13A C 0.4117(7) -0.7060(6) 0.6615(5)
H14A H 0.3727 -0.7041 0.7158
H15A H 0.3480 -0.7669 0.6094
C14A C 0.3437(7) -1.3157(6) 0.5784(5)
H16A H 0.2982 -1.3799 0.5225
H17A H 0.2896 -1.3159 0.6248
H18A H 0.4325 -1.3296 0.5993
C15A C -0.2370(7) -0.9184(7) 0.0422(5)
H19A H -0.2844 -0.9378 -0.0213
H20A H -0.2804 -0.8615 0.0811
C16A C -0.0703(8) -0.7588(7) 0.0122(5)
H21A H -0.1146 -0.7892 -0.0525
H22A H -0.1152 -0.6958 0.0428
C17A C 0.9432(7) -1.3699(6) 0.4873(5)
H23A H 0.9261 -1.4284 0.5178
C18A C 0.2451(7) -0.9656(7) -0.0698(4)
H24A H 0.1943 -0.9870 -0.1334
C19A C 0.3954(8) -0.9040(8) -0.0649(6)
H25A H 0.3974 -0.8310 -0.0837
H26A H 0.4463 -0.8821 -0.0028
H27A H 0.4362 -0.9604 -0.1052
C20A C 0.4212(8) -0.5834(7) 0.6465(7)
H28A H 0.4572 -0.5838 0.5913
H29A H 0.3305 -0.5648 0.6382
C21A C 0.1493(11) -0.6337(8) 0.1131(7)
H30A H 0.2156 -0.6641 0.1437
O4A O 0.1287(15) -0.4415(8) 0.1007(8)
H31A H 0.1142 -0.3758 0.1305
C22A C 0.122(2) -0.5243(13) 0.1528(11)
H32A H 0.0308 -0.5381 0.1663
H33A H 0.1869 -0.4858 0.2111
O1 O 1.3461(8) -0.3585(7) 0.8324(5)
O3 O 1.0769(8) -0.2420(7) 0.2288(4)
O5 O 1.5939(10) -0.1835(13) 0.8380(7)
loop_
_geom_bond_atom_site_label_1
_geom_bond_atom_site_label_2
_geom_bond_site_symmetry_1
_geom_bond_site_symmetry_2
Cu1 N2 1_555 1_555
Fe1 N1 1_555 1_555
Cu2 N3 1_555 1_555
N1 C11 1_555 1_555
N2 C5 1_555 1_555
N3 C9 1_555 1_555
N4 Cu1 1_555 1_555
C1 Fe1 1_555 1_555
N5 C6 1_555 1_555
N6 C3 1_555 1_555
C2 Fe1 1_555 1_555
N7 H1 1_555 1_555
C3 Fe1 1_555 1_555
C4 Fe1 1_555 1_555
C5 H2 1_555 1_555
N8 C4 1_555 1_555
N9 Cu1 1_555 1_555
N10 Cu2 1_555 1_555
N11 Cu2 1_555 1_555
N12 C1 1_555 1_555
C6 N4 1_555 1_555
H3 C6 1_555 1_555
H4 C6 1_555 1_555
C7 Fe1 1_555 1_555
C8 N4 1_555 1_555
H5 C8 1_555 1_555
H6 C8 1_555 1_555
C9 H7 1_555 1_555
H8 C9 1_555 1_555
C10 N2 1_555 1_555
H9 C10 1_555 1_555
H10 C10 1_555 1_555
C11 N7 1_555 1_555
H11 C11 1_555 1_555
O2 H12 1_555 1_555
N13 C9 1_555 1_555
C12 N7 1_555 1_555
H13 C12 1_555 1_555
C13 N5 1_555 1_555
H14 C13 1_555 1_555
H15 C13 1_555 1_555
C14 C5 1_555 1_555
H16 C14 1_555 1_555
H17 C14 1_555 1_555
H18 C14 1_555 1_555
C15 N11 1_555 1_555
H19 C15 1_555 1_555
H20 C15 1_555 1_555
C16 N11 1_555 1_555
H21 C16 1_555 1_555
H22 C16 1_555 1_555
C17 N1 1_555 1_555
H23 C17 1_555 1_555
C18 N3 1_555 1_555
H24 C18 1_555 1_555
C19 C18 1_555 1_555
H25 C19 1_555 1_555
H26 C19 1_555 1_555
H27 C19 1_555 1_555
C20 O2 1_555 1_555
H28 C20 1_555 1_555
H29 C20 1_555 1_555
C21 N13 1_555 1_555
H30 C21 1_555 1_555
O4 H31 1_555 1_555
C22 C21 1_555 1_555
H32 C22 1_555 1_555
H33 C22 1_555 1_555
Fe1A N1A 1_555 1_555
Cu2_2 N10A 1_555 1_555
N1A C11A 1_555 1_555
N2A Cu1 1_555 1_555
N3A Cu2 1_555 1_555
N4A Cu1 1_555 1_555
C1A Fe1A 1_555 1_555
N5A C10 1_555 1_555
N6A C3A 1_555 1_555
C2A Fe1A 1_555 1_555
N7A H1A 1_555 1_555
C3A Fe1A 1_555 1_555
C4A Fe1A 1_555 1_555
C5A N2A 1_555 1_555
H2A C5A 1_555 1_555
N8A C4A 1_555 1_555
N9A Cu1 1_555 1_555
N10A C7A 1_555 1_555
N10A_2 Cu2 1_555 1_555
N11A Cu2 1_555 1_555
N12A C1A 1_555 1_555
C6A N4A 1_555 1_555
H3A C6A 1_555 1_555
H4A C6A 1_555 1_555
C7A Fe1A 1_555 1_555
C8A N4A 1_555 1_555
H5A C8A 1_555 1_555
H6A C8A 1_555 1_555
C9A N3A 1_555 1_555
H7A C9A 1_555 1_555
H8A C9A 1_555 1_555
C10A N5 1_555 1_555
H9A C10A 1_555 1_555
H10A C10A 1_555 1_555
C11A N7A 1_555 1_555
H11A C11A 1_555 1_555
O2A H12A 1_555 1_555
N13A C9A 1_555 1_555
C12A N7A 1_555 1_555
H13A C12A 1_555 1_555
C13A N5A 1_555 1_555
H14A C13A 1_555 1_555
H15A C13A 1_555 1_555
C14A C5A 1_555 1_555
H16A C14A 1_555 1_555
H17A C14A 1_555 1_555
H18A C14A 1_555 1_555
C15A C18 1_555 1_555
H19A C15A 1_555 1_555
H20A C15A 1_555 1_555
C16A N11A 1_555 1_555
H21A C16A 1_555 1_555
H22A C16A 1_555 1_555
C17A N1A 1_555 1_555
H23A C17A 1_555 1_555
C18A C15 1_555 1_555
H24A C18A 1_555 1_555
C19A C18A 1_555 1_555
H25A C19A 1_555 1_555
H26A C19A 1_555 1_555
H27A C19A 1_555 1_555
C20A O2A 1_555 1_555
H28A C20A 1_555 1_555
H29A C20A 1_555 1_555
C21A N13A 1_555 1_555
H30A C21A 1_555 1_555
O4A H31A 1_555 1_555
C22A C21A 1_555 1_555
H32A C22A 1_555 1_555
H33A C22A 1_555 1_555
C2 N9 1_555 1_555
C5 C8 1_555 1_555
N10 C7 1_555 1_555
N13 C16 1_555 1_555
C12 C17 1_555 1_555
C13 C20 1_555 1_555
O4 C22 1_555 1_555
N2A C10A 1_555 1_555
N3A C18A 1_555 1_555
N5A C6A 1_555 1_555
C2A N9A 1_555 1_555
C5A C8A 1_555 1_555
N11A C15A 1_555 1_555
N13A C16A 1_555 1_555
C12A C17A 1_555 1_555
C13A C20A 1_555 1_555
O4A C22A 1_555 1_555

#END
