
#######################################################################
#
#                 Cambridge Crystallographic Data Centre
#                                CCDC 
#
#######################################################################
#
# If this CIF has been generated from an entry in the Cambridge 
# Structural Database, then it will include bibliographic, chemical, 
# crystal, experimental, refinement or atomic coordinate data resulting 
# from the CCDC's data processing and validation procedures.
#
#######################################################################

data_ECEVIS
_symmetry_cell_setting           monoclinic
_symmetry_space_group_name_H-M   'P 21/c'
_symmetry_Int_Tables_number      14
_space_group_name_Hall           '-P 2ybc'
loop_
_symmetry_equiv_pos_site_id
_symmetry_equiv_pos_as_xyz
1 x,y,z
2 -x,1/2+y,1/2-z
3 -x,-y,-z
4 x,1/2-y,1/2+z
_cell_length_a                   9.1569(11)
_cell_length_b                   31.760(4)
_cell_length_c                   8.2462(9)
_cell_angle_alpha                90
_cell_angle_beta                 99.380(3)
_cell_angle_gamma                90
_cell_volume                     2366.12
loop_
_atom_site_label
_atom_site_type_symbol
_atom_site_fract_x
_atom_site_fract_y
_atom_site_fract_z
I1 I 0.50394(6) 0.055268(16) 0.88063(6)
I2 I 0.43877(6) -0.061770(16) 0.58758(6)
Cu1 Cu 0.36890(11) -0.01770(3) 0.83200(12)
Cu2 Cu 0.60543(11) 0.00638(3) 0.66399(12)
C1 C -0.1943(8) -0.0665(2) 0.8743(8)
H1 H -0.2965 -0.0630 0.8589
N1 N -0.1694(7) -0.0022(2) 0.7262(8)
N2 N 0.1423(7) -0.0113(2) 0.7897(8)
C3 C 0.1065(12) -0.1428(3) 1.3908(10)
H5 H 0.2084 -0.1463 1.4023
C4 C -0.0781(10) 0.0260(3) 0.6782(9)
H6 H -0.1183 0.0495 0.6197
C5 C -0.1043(9) -0.0363(2) 0.8123(9)
C6 C 0.0518(8) -0.0413(2) 0.8384(9)
C7 C -0.1322(10) -0.1370(2) 1.2159(9)
C8 C -0.2057(9) -0.1361(2) 1.0376(9)
H7 H -0.3133 -0.1326 1.0242
C9 C 0.0265(9) -0.1068(2) 0.9799(9)
C10 C -0.0052(9) -0.1814(2) 0.9778(9)
C12 C 0.0794(9) -0.1463(2) 1.0735(10)
H8 H 0.1870 -0.1500 1.0882
C13 C -0.1909(14) -0.2411(3) 0.8097(12)
H9 H -0.2527 -0.2612 0.7525
C14 C 0.0758(9) 0.0219(3) 0.7119(9)
H10 H 0.1340 0.0433 0.6786
C15 C 0.0541(11) -0.2162(3) 0.9127(11)
H11 H 0.1562 -0.2197 0.9257
C16 C -0.1591(10) -0.1767(2) 0.9589(9)
C17 C 0.0383(13) -0.1384(3) 1.5273(11)
H12 H 0.0950 -0.1382 1.6318
C18 C -0.2012(12) -0.1331(3) 1.3539(11)
H13 H -0.3032 -0.1296 1.3421
C19 C -0.1297(8) -0.1011(2) 0.9575(9)
C20 C -0.2546(12) -0.2056(3) 0.8766(11)
H14 H -0.3566 -0.2022 0.8651
C21 C 0.0200(10) -0.1418(2) 1.2361(10)
C22 C 0.1138(9) -0.0781(3) 0.9200(10)
H15 H 0.2153 -0.0826 0.9326
C23 C -0.0395(14) -0.2463(3) 0.8274(12)
H16 H -0.0001 -0.2698 0.7827
C24 C -0.1153(14) -0.1343(3) 1.5094(11)
H17 H -0.1606 -0.1325 1.6022
I1B I 0.49606(6) -0.055268(16) 1.11937(6)
I2B I 0.56123(6) 0.061770(16) 0.41242(6)
Cu1B Cu 0.63110(11) 0.01770(3) 1.16800(12)
Cu2B Cu 0.39457(11) -0.00638(3) 0.33601(12)
Cu2_2 Cu -0.39457(11) 0.00638(3) 0.66399(12)
N1_2 N 0.8306(7) -0.0022(2) 0.7262(8)
C2 C -0.4964(17) -0.1986(5) 1.4821(18)
H2 H -0.3918 -0.2031 1.5120
H3 H -0.5488 -0.2196 1.5335
H4 H -0.5214 -0.1712 1.5179
N3 N -0.5679(17) -0.2032(6) 1.1673(18)
C11 C -0.5374(17) -0.2016(5) 1.305(2)
loop_
_geom_bond_atom_site_label_1
_geom_bond_atom_site_label_2
_geom_bond_site_symmetry_1
_geom_bond_site_symmetry_2
I1 Cu1 1_555 1_555
I2 Cu1 1_555 1_555
Cu1 N2 1_555 1_555
Cu2 I1 1_555 1_555
C1 H1 1_555 1_555
N1 C4 1_555 1_555
N2 C6 1_555 1_555
C2 H2 1_555 1_555
H3 C2 1_555 1_555
H4 C2 1_555 1_555
C3 H5 1_555 1_555
C4 H6 1_555 1_555
C5 C1 1_555 1_555
C6 C5 1_555 1_555
C7 C8 1_555 1_555
C8 H7 1_555 1_555
C9 C12 1_555 1_555
N3 C11 1_555 1_555
C10 C12 1_555 1_555
C11 C2 1_555 1_555
C12 H8 1_555 1_555
C13 H9 1_555 1_555
C14 N2 1_555 1_555
H10 C14 1_555 1_555
C15 C10 1_555 1_555
H11 C15 1_555 1_555
C16 C8 1_555 1_555
C17 C3 1_555 1_555
H12 C17 1_555 1_555
C18 C7 1_555 1_555
H13 C18 1_555 1_555
C19 C1 1_555 1_555
C20 C13 1_555 1_555
H14 C20 1_555 1_555
C21 C3 1_555 1_555
C22 C6 1_555 1_555
H15 C22 1_555 1_555
C23 C13 1_555 1_555
H16 C23 1_555 1_555
C24 C17 1_555 1_555
H17 C24 1_555 1_555
I1B Cu1 1_555 1_555
I2B Cu2 1_555 1_555
Cu1B I1 1_555 1_555
Cu2B I2 1_555 1_555
Cu2_2 N1 1_555 1_555
N1_2 Cu2 1_555 1_555
I2 Cu2 1_555 1_555
N1 C5 1_555 1_555
C4 C14 1_555 1_555
C7 C21 1_555 1_555
C8 C19 1_555 1_555
C9 C19 1_555 1_555
C9 C22 1_555 1_555
C10 C16 1_555 1_555
C12 C21 1_555 1_555
C15 C23 1_555 1_555
C16 C20 1_555 1_555
C18 C24 1_555 1_555
I1B Cu1B 1_555 1_555
I2B Cu2B 1_555 1_555

#END
