
#######################################################################
#
#                 Cambridge Crystallographic Data Centre
#                                CCDC 
#
#######################################################################
#
# If this CIF has been generated from an entry in the Cambridge 
# Structural Database, then it will include bibliographic, chemical, 
# crystal, experimental, refinement or atomic coordinate data resulting 
# from the CCDC's data processing and validation procedures.
#
#######################################################################

data_ECEYUH
_symmetry_cell_setting           monoclinic
_symmetry_space_group_name_H-M   'P 21/c'
_symmetry_Int_Tables_number      14
_space_group_name_Hall           '-P 2ybc'
loop_
_symmetry_equiv_pos_site_id
_symmetry_equiv_pos_as_xyz
1 x,y,z
2 -x,1/2+y,1/2-z
3 -x,-y,-z
4 x,1/2-y,1/2+z
_cell_length_a                   6.4234(2)
_cell_length_b                   14.0681(7)
_cell_length_c                   12.6690(6)
_cell_angle_alpha                90
_cell_angle_beta                 91.051(5)
_cell_angle_gamma                90
_cell_volume                     1144.64
loop_
_atom_site_label
_atom_site_type_symbol
_atom_site_fract_x
_atom_site_fract_y
_atom_site_fract_z
Ni1 Ni -0.49256(5) 0.06271(3) 1.09543(3)
Ni2 Ni 0.0000 0.0000 1.0000
O1 O -0.2805(4) 0.0833(2) 1.2237(2)
O2 O -0.6941(3) 0.1523(2) 1.1744(2)
O3 O -0.3029(3) -0.0337(1) 1.0253(2)
C1 C -0.1238(5) 0.3015(2) 0.9795(3)
C2 C -0.2983(5) 0.3739(2) 0.9887(3)
C3 C -0.3482(5) 0.3961(2) 1.1032(3)
C4 C -0.1560(5) 0.4301(2) 1.1655(3)
C5 C 0.0218(5) 0.3588(2) 1.1549(3)
C6 C 0.0706(5) 0.3381(2) 1.0400(3)
C7 C -0.1849(5) 0.2011(2) 1.0144(2)
O4 O -0.0361(3) 0.1441(2) 1.0362(2)
O5 O -0.3741(3) 0.1797(2) 1.0180(2)
C8 C -0.1987(4) 0.4542(2) 1.2798(3)
O6 O -0.3861(3) 0.4556(2) 1.3094(2)
O7 O -0.0442(3) 0.4747(2) 1.3383(2)
H1 H -0.0934 0.2952 0.9068
H2 H -0.4198 0.3493 0.9546
H3 H -0.2575 0.4310 0.9548
H4 H -0.4003 0.3402 1.1355
H5 H -0.4513 0.4445 1.1045
H6 H -0.1147 0.4886 1.1348
H7 H -0.0164 0.3010 1.1884
H8 H 0.1429 0.3840 1.1889
H9 H 0.1176 0.3949 1.0076
H10 H 0.1769 0.2913 1.0374
H11 H -0.3027 -0.0881 1.0697
Ni1B Ni 0.49256(5) -0.06271(3) 0.90457(3)
Ni1B_2 Ni -0.50744(5) -0.06271(3) 0.90457(3)
Ni1A Ni -0.50744(5) 0.56271(3) 1.40457(3)
Ni1_2 Ni 0.50744(5) 0.06271(3) 1.09543(3)
Ni1C Ni 0.50744(5) -0.56271(3) 0.59543(3)
Ni2C Ni 0.0000 0.5000 1.5000
Ni2C_2 Ni 0.0000 -0.5000 0.5000
O1B O 0.2805(4) -0.0833(2) 0.7763(2)
O2B O 0.6941(3) -0.1523(2) 0.8256(2)
O3B O 0.3029(3) 0.0337(1) 0.9747(2)
O3B_2 O -0.6971(3) 0.0337(1) 0.9747(2)
O3_2 O 0.6971(3) -0.0337(1) 1.0253(2)
C1B C 0.1238(5) -0.3015(2) 1.0205(3)
C2B C 0.2983(5) -0.3739(2) 1.0113(3)
C3B C 0.3482(5) -0.3961(2) 0.8968(3)
C4B C 0.1560(5) -0.4301(2) 0.8345(3)
C5B C -0.0218(5) -0.3588(2) 0.8451(3)
C6B C -0.0706(5) -0.3381(2) 0.9600(3)
C7B C 0.1849(5) -0.2011(2) 0.9856(2)
O4B O 0.0361(3) -0.1441(2) 0.9638(2)
O5B O 0.3741(3) -0.1797(2) 0.9820(2)
C8B C 0.1987(4) -0.4542(2) 0.7202(3)
O6B O 0.3861(3) -0.4556(2) 0.6906(2)
O6A O -0.6139(3) -0.0444(2) 1.1906(2)
O6C O 0.6139(3) 0.0444(2) 0.8094(2)
O7B O 0.0442(3) -0.4747(2) 0.6617(2)
O7C O -0.0442(3) 0.0253(2) 0.8383(2)
O7A O 0.0442(3) -0.0253(2) 1.1617(2)
H1B H 0.0934 -0.2952 1.0932
H2B H 0.4198 -0.3493 1.0454
H3B H 0.2575 -0.4310 1.0452
H4B H 0.4003 -0.3402 0.8645
H5B H 0.4513 -0.4445 0.8955
H6B H 0.1147 -0.4886 0.8652
H7B H 0.0164 -0.3010 0.8116
H8B H -0.1429 -0.3840 0.8111
H9B H -0.1176 -0.3949 0.9924
H10B H -0.1769 -0.2913 0.9626
H11B H 0.3027 0.0881 0.9303
H11B_2 H -0.6973 0.0881 0.9303
H11_2 H 0.6973 -0.0881 1.0697
O8 O 0.3944(4) 0.2134(2) 0.8291(2)
loop_
_geom_bond_atom_site_label_1
_geom_bond_atom_site_label_2
_geom_bond_site_symmetry_1
_geom_bond_site_symmetry_2
Ni1 O1 1_555 1_555
Ni2 O3 1_555 1_555
O2 Ni1 1_555 1_555
O3 Ni1 1_555 1_555
C1 C2 1_555 1_555
C2 C3 1_555 1_555
C3 C4 1_555 1_555
C4 C5 1_555 1_555
C5 C6 1_555 1_555
C6 C1 1_555 1_555
C7 C1 1_555 1_555
O4 Ni2 1_555 1_555
O5 Ni1 1_555 1_555
C8 C4 1_555 1_555
O6 C8 1_555 1_555
O7 C8 1_555 1_555
H1 C1 1_555 1_555
H2 C2 1_555 1_555
H3 C2 1_555 1_555
H4 C3 1_555 1_555
H5 C3 1_555 1_555
H6 C4 1_555 1_555
H7 C5 1_555 1_555
H8 C5 1_555 1_555
H9 C6 1_555 1_555
H10 C6 1_555 1_555
H11 O3 1_555 1_555
Ni1B O1B 1_555 1_555
Ni1B_2 O3 1_555 1_555
Ni1A O6 1_555 1_555
Ni1_2 O3B 1_555 1_555
Ni1C O6B 1_555 1_555
Ni2C O7 1_555 1_555
Ni2C_2 O7B 1_555 1_555
O2B Ni1B 1_555 1_555
O3B Ni2 1_555 1_555
O3B_2 Ni1 1_555 1_555
O3_2 Ni1B 1_555 1_555
C1B C2B 1_555 1_555
C2B C3B 1_555 1_555
C3B C4B 1_555 1_555
C4B C5B 1_555 1_555
C5B C6B 1_555 1_555
C6B C1B 1_555 1_555
C7B C1B 1_555 1_555
O4B Ni2 1_555 1_555
O5B Ni1B 1_555 1_555
C8B C4B 1_555 1_555
O6B C8B 1_555 1_555
O6A Ni1 1_555 1_555
O6C Ni1B 1_555 1_555
O7B C8B 1_555 1_555
O7C Ni2 1_555 1_555
O7A Ni2 1_555 1_555
H1B C1B 1_555 1_555
H2B C2B 1_555 1_555
H3B C2B 1_555 1_555
H4B C3B 1_555 1_555
H5B C3B 1_555 1_555
H6B C4B 1_555 1_555
H7B C5B 1_555 1_555
H8B C5B 1_555 1_555
H9B C6B 1_555 1_555
H10B C6B 1_555 1_555
H11B O3B 1_555 1_555
H11B_2 O3B_2 1_555 1_555
H11_2 O3_2 1_555 1_555
C7 O4 1_555 1_555
C7 O5 1_555 1_555
Ni1B O3B 1_555 1_555
Ni1B_2 O3B_2 1_555 1_555
Ni1_2 O3_2 1_555 1_555
C7B O4B 1_555 1_555
C7B O5B 1_555 1_555

#END
