
#######################################################################
#
#                 Cambridge Crystallographic Data Centre
#                                CCDC 
#
#######################################################################
#
# If this CIF has been generated from an entry in the Cambridge 
# Structural Database, then it will include bibliographic, chemical, 
# crystal, experimental, refinement or atomic coordinate data resulting 
# from the CCDC's data processing and validation procedures.
#
#######################################################################

data_ECEYIV
_symmetry_cell_setting           orthorhombic
_symmetry_space_group_name_H-M   'P b c n'
_symmetry_Int_Tables_number      60
_space_group_name_Hall           '-P 2n 2ab'
loop_
_symmetry_equiv_pos_site_id
_symmetry_equiv_pos_as_xyz
1 x,y,z
2 1/2-x,1/2-y,1/2+z
3 1/2+x,1/2-y,-z
4 -x,y,1/2-z
5 -x,-y,-z
6 1/2+x,1/2+y,1/2-z
7 1/2-x,1/2+y,z
8 x,-y,1/2+z
_cell_length_a                   18.458(2)
_cell_length_b                   12.0616(14)
_cell_length_c                   11.4859(14)
_cell_angle_alpha                90
_cell_angle_beta                 90
_cell_angle_gamma                90
_cell_volume                     2557.14
loop_
_atom_site_label
_atom_site_type_symbol
_atom_site_fract_x
_atom_site_fract_y
_atom_site_fract_z
Co1 Co 0.5000 0.58859(8) 0.2500
Co2 Co 0.50892(4) 0.39344(6) 0.07213(6)
O1 O 0.5331(2) 0.5629(3) 0.0811(3)
H1 H 0.580(4) 0.583(6) 0.090(5)
O2 O 0.42847(18) 0.4468(3) 0.1896(3)
O3 O 0.3929(2) 0.3625(3) 0.3526(4)
O4 O 0.1623(2) 0.1326(4) 0.3302(4)
O5 O 0.07905(18) 0.1993(3) 0.2086(4)
O6 O 0.2111(2) 0.4297(4) -0.0752(4)
H2 H 0.244(5) 0.416(7) -0.137(6)
N1 N 0.4833(3) 0.2267(4) 0.0775(4)
N2 N 0.4863(3) 0.0512(4) 0.1282(5)
C1 C 0.3814(3) 0.3957(4) 0.2510(5)
C2 C 0.1429(3) 0.1947(5) 0.2485(5)
C3 C 0.3100(3) 0.3718(4) 0.1957(5)
C4 C 0.2613(3) 0.3003(5) 0.2490(5)
H3 H 0.273(2) 0.281(4) 0.324(4)
C5 C 0.1965(3) 0.2725(5) 0.1941(5)
C6 C 0.1817(3) 0.3165(5) 0.0849(5)
H4 H 0.140(3) 0.300(5) 0.043(5)
C7 C 0.2295(3) 0.3884(5) 0.0304(5)
C8 C 0.2933(3) 0.4171(5) 0.0874(5)
H5 H 0.323(3) 0.470(4) 0.056(4)
C9 C 0.4165(3) 0.1802(5) 0.0573(6)
H6 H 0.381(3) 0.219(5) 0.025(5)
C10 C 0.4176(4) 0.0733(6) 0.0896(6)
H7 H 0.384(5) 0.013(7) 0.083(7)
C11 C 0.5238(3) 0.1467(5) 0.1203(5)
H8 H 0.568(3) 0.162(5) 0.153(5)
C12 C 0.5118(5) -0.0501(5) 0.1866(6)
H9 H 0.491(3) -0.111(5) 0.145(5)
H10 H 0.563(4) -0.043(5) 0.178(5)
Co1E Co 0.0000 0.08859(8) 0.2500
Co1E_2 Co 1.0000 0.08859(8) 0.2500
Co2C Co 0.49108(4) 0.39344(6) 0.42787(6)
Co2D Co 0.49108(4) 0.60656(6) -0.07213(6)
Co2G Co 0.50892(4) 0.60656(6) 0.57213(6)
O1C O 0.4669(2) 0.5629(3) 0.4189(3)
O1D O 0.4669(2) 0.4371(3) -0.0811(3)
O1G O 0.5331(2) 0.4371(3) 0.5811(3)
H1C H 0.420(4) 0.583(6) 0.410(5)
H1D H 0.420(4) 0.417(6) -0.090(5)
H1G H 0.580(4) 0.417(6) 0.590(5)
O2C O 0.57153(18) 0.4468(3) 0.3104(3)
O3C O 0.6071(2) 0.3625(3) 0.1474(4)
O4C O 0.8377(2) 0.1326(4) 0.1698(4)
O5C O 0.92095(18) 0.1993(3) 0.2914(4)
O5E O 0.57905(18) 0.6993(3) 0.2914(4)
O5F O 0.42095(18) 0.6993(3) 0.2086(4)
O6C O 0.7889(2) 0.4297(4) 0.5752(4)
H2C H 0.756(5) 0.416(7) 0.637(6)
N1C N 0.5167(3) 0.2267(4) 0.4225(4)
N2C N 0.5137(3) 0.0512(4) 0.3718(5)
C1C C 0.6186(3) 0.3957(4) 0.2490(5)
C2C C 0.8571(3) 0.1947(5) 0.2515(5)
C3C C 0.6900(3) 0.3718(4) 0.3043(5)
C4C C 0.7387(3) 0.3003(5) 0.2510(5)
H3C H 0.727(2) 0.281(4) 0.176(4)
C5C C 0.8035(3) 0.2725(5) 0.3059(5)
C6C C 0.8183(3) 0.3165(5) 0.4151(5)
H4C H 0.860(3) 0.300(5) 0.457(5)
C7C C 0.7705(3) 0.3884(5) 0.4696(5)
C8C C 0.7067(3) 0.4171(5) 0.4126(5)
H5C H 0.677(3) 0.470(4) 0.444(4)
C9C C 0.5835(3) 0.1802(5) 0.4427(6)
H6C H 0.619(3) 0.219(5) 0.475(5)
C10C C 0.5824(4) 0.0733(6) 0.4104(6)
H7C H 0.616(5) 0.013(7) 0.417(7)
C11C C 0.4762(3) 0.1467(5) 0.3797(5)
H8C H 0.432(3) 0.162(5) 0.347(5)
C12C C 0.4882(5) -0.0501(5) 0.3134(6)
H9C H 0.509(3) -0.111(5) 0.355(5)
H10C H 0.437(4) -0.043(5) 0.322(5)
loop_
_geom_bond_atom_site_label_1
_geom_bond_atom_site_label_2
_geom_bond_site_symmetry_1
_geom_bond_site_symmetry_2
Co1 O1 1_555 1_555
Co2 O1 1_555 1_555
O1 H1 1_555 1_555
O2 Co1 1_555 1_555
O3 C1 1_555 1_555
O4 C2 1_555 1_555
O5 C2 1_555 1_555
O6 H2 1_555 1_555
N1 Co2 1_555 1_555
N2 C10 1_555 1_555
C1 O2 1_555 1_555
C2 C5 1_555 1_555
C3 C1 1_555 1_555
C4 C3 1_555 1_555
H3 C4 1_555 1_555
C5 C4 1_555 1_555
C6 C5 1_555 1_555
H4 C6 1_555 1_555
C7 O6 1_555 1_555
C8 C3 1_555 1_555
H5 C8 1_555 1_555
C9 N1 1_555 1_555
H6 C9 1_555 1_555
C10 C9 1_555 1_555
H7 C10 1_555 1_555
C11 N1 1_555 1_555
H8 C11 1_555 1_555
C12 N2 1_555 1_555
H9 C12 1_555 1_555
H10 C12 1_555 1_555
Co1E O5 1_555 1_555
Co1E_2 O5C 1_555 1_555
Co2C O3 1_555 1_555
Co2D O1 1_555 1_555
Co2G O1C 1_555 1_555
O1C Co1 1_555 1_555
O1D Co2 1_555 1_555
O1G Co2C 1_555 1_555
H1C O1C 1_555 1_555
H1D O1D 1_555 1_555
H1G O1G 1_555 1_555
O2C Co1 1_555 1_555
O3C Co2 1_555 1_555
O4C C2C 1_555 1_555
O5C C2C 1_555 1_555
O5E Co1 1_555 1_555
O5F Co1 1_555 1_555
O6C H2C 1_555 1_555
N1C Co2C 1_555 1_555
N2C C10C 1_555 1_555
C1C O2C 1_555 1_555
C2C C5C 1_555 1_555
C3C C1C 1_555 1_555
C4C C3C 1_555 1_555
H3C C4C 1_555 1_555
C5C C4C 1_555 1_555
C6C C5C 1_555 1_555
H4C C6C 1_555 1_555
C7C O6C 1_555 1_555
C8C C3C 1_555 1_555
H5C C8C 1_555 1_555
C9C N1C 1_555 1_555
H6C C9C 1_555 1_555
C10C C9C 1_555 1_555
H7C C10C 1_555 1_555
C11C N1C 1_555 1_555
H8C C11C 1_555 1_555
C12C C12 1_555 1_555
H9C C12C 1_555 1_555
H10C C12C 1_555 1_555
Co2 O2 1_555 1_555
N2 C11 1_555 1_555
C6 C7 1_555 1_555
C7 C8 1_555 1_555
Co2C O1C 1_555 1_555
Co2C O2C 1_555 1_555
Co2D O1D 1_555 1_555
Co2G O1G 1_555 1_555
O3C C1C 1_555 1_555
N2C C11C 1_555 1_555
N2C C12C 1_555 1_555
C6C C7C 1_555 1_555
C7C C8C 1_555 1_555

#END
