
#######################################################################
#
#                 Cambridge Crystallographic Data Centre
#                                CCDC 
#
#######################################################################
#
# If this CIF has been generated from an entry in the Cambridge 
# Structural Database, then it will include bibliographic, chemical, 
# crystal, experimental, refinement or atomic coordinate data resulting 
# from the CCDC's data processing and validation procedures.
#
#######################################################################

data_ECEYOB
_symmetry_cell_setting           orthorhombic
_symmetry_space_group_name_H-M   'P b c n'
_symmetry_Int_Tables_number      60
_space_group_name_Hall           '-P 2n 2ab'
loop_
_symmetry_equiv_pos_site_id
_symmetry_equiv_pos_as_xyz
1 x,y,z
2 1/2-x,1/2-y,1/2+z
3 1/2+x,1/2-y,-z
4 -x,y,1/2-z
5 -x,-y,-z
6 1/2+x,1/2+y,1/2-z
7 1/2-x,1/2+y,z
8 x,-y,1/2+z
_cell_length_a                   18.2119(12)
_cell_length_b                   11.6847(7)
_cell_length_c                   12.0688(6)
_cell_angle_alpha                90
_cell_angle_beta                 90
_cell_angle_gamma                90
_cell_volume                     2568.25
loop_
_atom_site_label
_atom_site_type_symbol
_atom_site_fract_x
_atom_site_fract_y
_atom_site_fract_z
Cu1 Cu 0.02335(4) 0.10284(7) 0.55939(7)
Cu2 Cu 0.0000 0.08197(9) 0.2500
O1 O -0.0356(3) 0.0605(4) 0.4347(4)
O2 O 0.2127(3) 0.4210(5) 0.5655(4)
O3 O 0.0740(2) 0.2002(4) 0.2840(4)
O4 O 0.4259(2) 0.4632(4) 0.2990(4)
N1 N -0.0063(3) 0.2648(5) 0.5727(4)
O5 O 0.3888(2) 0.3694(4) 0.1464(4)
C1 C 0.2942(4) 0.4155(6) 0.4084(5)
N2 N -0.0077(3) 0.4428(5) 0.6320(5)
C2 C 0.3799(3) 0.4062(6) 0.2444(5)
O6 O 0.1583(2) 0.1440(5) 0.1609(4)
C3 C -0.0758(5) 0.4203(7) 0.5874(7)
C4 C 0.3087(3) 0.3760(6) 0.3005(5)
C5 C 0.2295(3) 0.3839(6) 0.4605(5)
C6 C -0.0739(4) 0.3118(7) 0.5503(6)
C7 C 0.1383(3) 0.1998(6) 0.2426(6)
C8 C 0.1930(3) 0.2767(6) 0.2995(5)
C9 C 0.0327(4) 0.3467(7) 0.6227(7)
C10 C 0.0141(5) 0.5469(6) 0.6913(7)
C11 C 0.2578(3) 0.3070(6) 0.2471(6)
C12 C 0.1797(4) 0.3147(6) 0.4077(6)
H1 H 0.273(3) 0.282(5) 0.171(5)
H2 H 0.327(4) 0.463(6) 0.444(6)
H3 H 0.084(3) 0.352(5) 0.643(5)
H4 H -0.004(4) 0.615(6) 0.654(7)
H5 H 0.143(4) 0.297(7) 0.437(6)
H6 H -0.112(5) 0.483(8) 0.579(7)
H7 H 0.071(4) 0.546(6) 0.692(6)
H8 H -0.067(5) 0.080(7) 0.422(7)
H9 H -0.112(3) 0.261(5) 0.522(5)
H10 H 0.241(4) 0.417(6) 0.603(5)
Cu1C Cu -0.02335(4) 0.10284(7) -0.05939(7)
Cu1D Cu -0.02335(4) -0.10284(7) 0.44061(7)
Cu1A Cu 0.47665(4) 0.39716(7) 0.05939(7)
Cu1C_2 Cu -0.02335(4) 0.10284(7) 0.94061(7)
Cu1G Cu 0.02335(4) -0.10284(7) 0.05939(7)
Cu1B Cu -0.47665(4) 0.39716(7) 0.44061(7)
Cu2E Cu 0.5000 0.58197(9) 0.2500
Cu2E_2 Cu -0.5000 0.58197(9) 0.2500
O1C O 0.0356(3) 0.0605(4) 0.0653(4)
O1D O 0.0356(3) -0.0605(4) 0.5653(4)
O1G O -0.0356(3) -0.0605(4) -0.0653(4)
O2C O -0.2127(3) 0.4210(5) -0.0655(4)
O3C O -0.0740(2) 0.2002(4) 0.2160(4)
O4C O -0.4259(2) 0.4632(4) 0.2010(4)
O4E O -0.0741(2) -0.0368(4) 0.2010(4)
O4F O 0.0741(2) -0.0368(4) 0.2990(4)
N1C N 0.0063(3) 0.2648(5) 0.9273(4)
N1C_2 N 0.0063(3) 0.2648(5) -0.0727(4)
O5C O -0.3888(2) 0.3694(4) 0.3536(4)
O5A O 0.1112(2) 0.1306(4) 0.6464(4)
O5B O -0.1112(2) 0.1306(4) -0.1464(4)
C1C C -0.2942(4) 0.4155(6) 0.0916(5)
N2C N 0.0077(3) 0.4428(5) 0.8680(5)
C2C C -0.3799(3) 0.4062(6) 0.2556(5)
O6C O -0.1583(2) 0.1440(5) 0.3391(4)
C3C C 0.0758(5) 0.4203(7) 0.9126(7)
C4C C -0.3087(3) 0.3760(6) 0.1995(5)
C5C C -0.2295(3) 0.3839(6) 0.0395(5)
C6C C 0.0739(4) 0.3118(7) 0.9497(6)
C7C C -0.1383(3) 0.1998(6) 0.2574(6)
C8C C -0.1930(3) 0.2767(6) 0.2005(5)
C9C C -0.0327(4) 0.3467(7) 0.8773(7)
C10C C -0.0141(5) 0.5469(6) 0.8087(7)
C11C C -0.2578(3) 0.3070(6) 0.2529(6)
C12C C -0.1797(4) 0.3147(6) 0.0923(6)
H1C H -0.273(3) 0.282(5) 0.329(5)
H2C H -0.327(4) 0.463(6) 0.056(6)
H3C H -0.084(3) 0.352(5) 0.857(5)
H4C H 0.004(4) 0.615(6) 0.846(7)
H5C H -0.143(4) 0.297(7) 0.063(6)
H6C H 0.112(5) 0.483(8) 0.921(7)
H7C H -0.071(4) 0.546(6) 0.808(6)
H8C H 0.067(5) 0.080(7) 0.078(7)
H8D H 0.067(5) -0.080(7) 0.578(7)
H8G H -0.067(5) -0.080(7) -0.078(7)
H9C H 0.112(3) 0.261(5) 0.978(5)
H10C H -0.241(4) 0.417(6) -0.103(5)
loop_
_geom_bond_atom_site_label_1
_geom_bond_atom_site_label_2
_geom_bond_site_symmetry_1
_geom_bond_site_symmetry_2
Cu1 O1 1_555 1_555
Cu2 O1 1_555 1_555
O1 H8 1_555 1_555
O2 C5 1_555 1_555
O3 Cu2 1_555 1_555
O4 C2 1_555 1_555
N1 Cu1 1_555 1_555
O5 C2 1_555 1_555
C1 C4 1_555 1_555
N2 C3 1_555 1_555
C2 C4 1_555 1_555
O6 C7 1_555 1_555
C3 C6 1_555 1_555
C4 C11 1_555 1_555
C5 C1 1_555 1_555
C6 N1 1_555 1_555
C7 O3 1_555 1_555
C8 C7 1_555 1_555
C9 N1 1_555 1_555
C10 N2 1_555 1_555
C11 C8 1_555 1_555
C12 C5 1_555 1_555
H1 C11 1_555 1_555
H2 C1 1_555 1_555
H3 C9 1_555 1_555
H4 C10 1_555 1_555
H5 C12 1_555 1_555
H6 C3 1_555 1_555
H7 C10 1_555 1_555
H9 C6 1_555 1_555
H10 O2 1_555 1_555
Cu1C O1C 1_555 1_555
Cu1D O1 1_555 1_555
Cu1A O5 1_555 1_555
Cu1C_2 N1C 1_555 1_555
Cu1G O1C 1_555 1_555
Cu1B O5C 1_555 1_555
Cu2E O4 1_555 1_555
Cu2E_2 O4C 1_555 1_555
O1C Cu2 1_555 1_555
O1D Cu1 1_555 1_555
O1G Cu1C 1_555 1_555
O2C C5C 1_555 1_555
O3C Cu2 1_555 1_555
O4C C2C 1_555 1_555
O4E Cu2 1_555 1_555
O4F Cu2 1_555 1_555
N1C C6C 1_555 1_555
N1C_2 Cu1C 1_555 1_555
O5C C2C 1_555 1_555
O5A Cu1 1_555 1_555
O5B Cu1C 1_555 1_555
C1C C4C 1_555 1_555
N2C C3C 1_555 1_555
C2C C4C 1_555 1_555
O6C C7C 1_555 1_555
C3C C6C 1_555 1_555
C4C C11C 1_555 1_555
C5C C1C 1_555 1_555
C6C H9C 1_555 1_555
C7C O3C 1_555 1_555
C8C C7C 1_555 1_555
C9C N1C 1_555 1_555
C10C C10 1_555 1_555
C11C C8C 1_555 1_555
C12C C5C 1_555 1_555
H1C C11C 1_555 1_555
H2C C1C 1_555 1_555
H3C C9C 1_555 1_555
H4C C10C 1_555 1_555
H5C C12C 1_555 1_555
H6C C3C 1_555 1_555
H7C C10C 1_555 1_555
H8C O1C 1_555 1_555
H8D O1D 1_555 1_555
H8G O1G 1_555 1_555
H10C O2C 1_555 1_555
N2 C9 1_555 1_555
C8 C12 1_555 1_555
Cu1D O1D 1_555 1_555
Cu1G O1G 1_555 1_555
N2C C9C 1_555 1_555
N2C C10C 1_555 1_555
C8C C12C 1_555 1_555

#END
