
#######################################################################
#
#                 Cambridge Crystallographic Data Centre
#                                CCDC 
#
#######################################################################
#
# If this CIF has been generated from an entry in the Cambridge 
# Structural Database, then it will include bibliographic, chemical, 
# crystal, experimental, refinement or atomic coordinate data resulting 
# from the CCDC's data processing and validation procedures.
#
#######################################################################

data_ECIDAX
_symmetry_cell_setting           orthorhombic
_symmetry_space_group_name_H-M   'P b c n'
_symmetry_Int_Tables_number      60
_space_group_name_Hall           '-P 2n 2ab'
loop_
_symmetry_equiv_pos_site_id
_symmetry_equiv_pos_as_xyz
1 x,y,z
2 1/2-x,1/2-y,1/2+z
3 1/2+x,1/2-y,-z
4 -x,y,1/2-z
5 -x,-y,-z
6 1/2+x,1/2+y,1/2-z
7 1/2-x,1/2+y,z
8 x,-y,1/2+z
_cell_length_a                   37.985(7)
_cell_length_b                   14.570(3)
_cell_length_c                   27.895(5)
_cell_angle_alpha                90
_cell_angle_beta                 90
_cell_angle_gamma                90
_cell_volume                     15438.2
loop_
_atom_site_label
_atom_site_type_symbol
_atom_site_fract_x
_atom_site_fract_y
_atom_site_fract_z
Co1 Co 0.087331(17) 0.85706(4) 0.44861(2)
Co2 Co 0.09382(2) 0.63495(5) 0.56926(3)
Co3 Co 0.182416(18) 0.24970(4) 0.50603(3)
O1 O 0.10890(9) 0.7317(2) 0.44946(14)
O2 O 0.16554(11) 0.3122(2) 0.44675(13)
O3 O 0.13318(10) 0.3832(2) 0.50125(13)
O4 O 0.14626(9) 0.5808(2) 0.51179(13)
O5 O 0.08801(8) 0.9224(2) 0.51178(13)
O6 O 0.16345(10) 1.1850(2) 0.56297(13)
O7 O 0.14528(9) 0.9129(2) 0.49591(12)
O8 O 0.08849(9) 0.5689(2) 0.50498(14)
O9 O 0.11515(10) 0.7588(2) 0.55914(14)
O10 O 0.08390(11) 0.7359(3) 0.37761(16)
O11 O 0.12775(12) 1.1131(2) 0.51242(12)
O12 O 0.10148(16) 0.7440(3) 0.63562(16)
N1 N 0.21342(11) 0.1496(3) 0.47760(15)
N2 N 0.23120(11) 0.0148(3) 0.45128(14)
N3 N 0.28594(11) 0.1522(3) 0.03572(15)
N4 N 0.10373(12) 0.9456(3) 0.39689(16)
N5 N 0.03365(12) 0.8536(3) 0.44538(18)
N6 N 0.26887(12) 0.0173(3) 0.06241(14)
N7 N 0.39143(12) 0.9600(3) 0.11903(17)
N8 N 0.04122(14) 1.3494(3) 0.07875(19)
N9 N 0.12292(12) 1.0730(3) 0.36309(18)
N10 N 0.37688(13) 1.0908(3) 0.1532(2)
N11 N -0.02079(13) 0.8542(4) 0.4193(2)
N12 N -0.01298(15) 1.3515(5) 0.1068(2)
C1 C -0.0588(2) 1.2297(6) 0.2548(3)
H1 H -0.0672 1.2423 0.2862
C2 C 0.36313(17) 1.1871(4) 0.1630(2)
H2 H 0.3588 1.2187 0.1322
H3 H 0.3813 1.2223 0.1807
C3 C -0.03724(18) 1.1223(6) 0.1960(3)
H4 H -0.0306 1.0621 0.1865
C4 C -0.0359(2) 1.1939(7) 0.1631(3)
H5 H -0.0291 1.1807 0.1311
C5 C -0.0570(2) 1.3004(7) 0.2216(3)
H6 H -0.0647 1.3601 0.2305
C6 C 0.12032(12) 0.9283(3) 0.52382(17)
C7 C 0.12856(11) 0.9532(3) 0.57519(16)
C8 C 0.20469(13) 0.0606(3) 0.47114(16)
H7 H 0.1827 0.0344 0.4796
C9 C 0.11954(12) 0.5638(3) 0.48802(18)
C10 C 0.29515(13) 0.0644(3) 0.04186(16)
H8 H 0.3172 0.0390 0.0329
C11 C 0.13988(12) 1.0428(3) 0.58818(17)
C12 C 0.14311(13) 1.1175(3) 0.55132(18)
C13 C 0.25852(13) 0.0752(4) 0.44376(18)
H9 H 0.2808 0.0616 0.4301
C14 C 0.13628(14) 0.4487(3) 0.42277(18)
C15 C 0.12364(13) 0.5367(3) 0.43558(18)
C16 C 0.25194(14) 0.1602(3) 0.0534(2)
H10 H 0.2384 0.2151 0.0540
C17 C 0.24728(13) 0.1576(3) 0.4597(2)
H11 H 0.2606 0.2128 0.4588
C18 C 0.14526(14) 0.3777(3) 0.45987(19)
C19 C 0.25520(16) -0.0890(4) 0.2300(2)
C20 C 0.26802(17) -0.1104(4) 0.3647(2)
H12 H 0.2867 -0.1229 0.3864
C21 C 0.11341(16) 0.7905(4) 0.6016(2)
C22 C 0.02047(16) 1.3691(4) 0.1151(2)
H13 H 0.0288 1.3937 0.1445
C23 C 0.10147(14) 0.6954(4) 0.4097(2)
C24 C 0.20000(17) 1.1945(4) 0.2514(2)
H14 H 0.1995 1.2103 0.2184
C25 C 0.14801(16) 1.0621(4) 0.6359(2)
H15 H 0.1552 1.1224 0.6444
C26 C 0.24109(15) 0.0773(4) 0.06960(18)
H16 H 0.2188 0.0632 0.0832
C27 C 0.11575(13) 1.0300(3) 0.4048(2)
H17 H 0.1189 1.0564 0.4357
C28 C 0.32849(18) 1.1860(4) 0.1927(2)
C29 C 0.12619(15) 0.8861(3) 0.61140(19)
C30 C 0.23539(17) -0.1113(4) 0.1494(2)
H18 H 0.2167 -0.1262 0.1282
C31 C 0.24801(16) -0.0897(4) 0.2831(2)
C32 C 0.38042(13) 1.0452(4) 0.1120(2)
H19 H 0.3756 1.0708 0.0813
C33 C 0.1677(2) 1.1737(4) 0.3257(2)
C34 C 0.13442(18) 0.9075(4) 0.6588(2)
H20 H 0.1322 0.8617 0.6829
C35 C 0.11492(15) 0.5999(4) 0.3994(2)
C36 C 0.26878(15) -0.0900(4) 0.1297(2)
C37 C 0.01270(14) 0.8329(4) 0.4099(2)
H21 H 0.0204 0.8057 0.3807
C38 C 0.29718(18) 1.1977(4) 0.2665(2)
H22 H 0.2975 1.2110 0.2999
C39 C 0.27119(19) -0.0797(4) 0.0762(2)
H23 H 0.2938 -0.1056 0.0648
H24 H 0.2518 -0.1144 0.0608
C40 C 0.39545(17) 0.9526(4) 0.1675(2)
H25 H 0.4030 0.8990 0.1840
C41 C 0.29485(16) -0.0690(4) 0.1627(2)
H26 H 0.3178 -0.0544 0.1516
C42 C 0.23047(17) -0.0832(3) 0.43732(19)
H27 H 0.2081 -0.1113 0.4481
H28 H 0.2501 -0.1161 0.4531
C43 C 0.27456(16) -0.1100(4) 0.3160(2)
H29 H 0.2976 -0.1238 0.3047
C44 C 0.28798(18) -0.0689(5) 0.2128(2)
H30 H 0.3064 -0.0547 0.2345
C45 C 0.23162(18) 1.1726(5) 0.2718(2)
C46 C 0.11505(18) 1.0148(4) 0.3265(2)
H31 H 0.1171 1.0265 0.2931
C47 C 0.16910(18) 1.1947(4) 0.2763(2)
H32 H 0.1479 1.2095 0.2599
C48 C 0.22892(17) -0.1114(4) 0.1977(2)
H33 H 0.2061 -0.1271 0.2091
C49 C 0.26540(19) 1.1738(5) 0.2443(2)
C50 C 0.26628(19) 1.1565(5) 0.1949(2)
H34 H 0.2451 1.1413 0.1787
C51 C 0.10371(19) 0.9367(4) 0.3477(2)
H35 H 0.0967 0.8830 0.3309
C52 C 0.1458(2) 0.9948(4) 0.6713(2)
H36 H 0.1520 1.0086 0.7035
C53 C 0.29734(19) 1.1611(5) 0.1692(2)
H37 H 0.2975 1.1475 0.1359
C54 C 0.32793(19) 1.2019(4) 0.2404(2)
H38 H 0.3493 1.2165 0.2564
C55 C 0.21437(16) -0.0741(5) 0.3014(2)
H39 H 0.1954 -0.0634 0.2799
C56 C 0.14089(18) 0.4262(4) 0.3745(2)
H40 H 0.1503 0.3680 0.3660
C57 C 0.23381(18) -0.0922(4) 0.3830(2)
C58 C 0.1318(2) 0.4882(4) 0.3390(2)
H41 H 0.1341 0.4715 0.3062
C59 C 0.01127(15) 0.8920(5) 0.4799(2)
H42 H 0.0185 0.9139 0.5104
C60 C -0.04868(15) 1.0638(5) 0.2793(3)
C61 C 0.38699(18) 1.0339(4) 0.1886(3)
H43 H 0.3880 1.0477 0.2218
C62 C 0.2006(2) 1.1514(5) 0.3465(3)
H44 H 0.2013 1.1357 0.3796
C63 C -0.04822(19) 1.0830(6) 0.3284(3)
H45 H -0.0477 1.1451 0.3388
C64 C 0.13543(16) 1.1695(4) 0.3560(3)
H46 H 0.1165 1.2058 0.3406
H47 H 0.1405 1.1974 0.3876
C65 C -0.04913(15) 0.9208(6) 0.3479(3)
C66 C 0.2316(2) 1.1513(5) 0.3211(3)
H48 H 0.2531 1.1369 0.3368
C67 C -0.0495(2) 0.9717(7) 0.2655(3)
H49 H -0.0497 0.9565 0.2324
C68 C 0.20804(19) -0.0737(5) 0.3500(2)
H50 H 0.1850 -0.0602 0.3611
C69 C 0.11938(19) 0.5747(4) 0.3511(2)
H51 H 0.1138 0.6174 0.3264
C70 C -0.04828(16) 1.1387(6) 0.2430(3)
C71 C -0.05038(17) 0.8457(6) 0.3846(3)
H52 H -0.0730 0.8487 0.4021
H53 H -0.0490 0.7854 0.3684
C72 C 0.0189(3) 1.3130(7) 0.0460(3)
H54 H 0.0256 1.2901 0.0155
C73 C -0.0423(2) 1.3632(7) 0.1405(3)
H55 H -0.0647 1.3668 0.1224
H56 H -0.0393 1.4215 0.1582
C74 C -0.04847(17) 1.0134(6) 0.3623(3)
H57 H -0.0482 1.0282 0.3955
C75 C -0.0142(2) 1.3143(9) 0.0635(3)
H58 H -0.0347 1.2924 0.0477
C76 C -0.02247(17) 0.8931(5) 0.4629(3)
H59 H -0.0428 0.9165 0.4786
C77 C -0.0500(2) 0.9003(6) 0.3002(3)
H60 H -0.0509 0.8381 0.2902
C78 C -0.04431(17) 1.2857(6) 0.1754(3)
Co2A Co 0.40618(2) 0.86505(5) 0.06926(3)
Co2G Co 0.09382(2) 1.36505(5) 0.06926(3)
Co3_2 Co 0.182416(18) 1.24970(4) 0.50603(3)
Co3A Co 0.317584(18) 0.25030(4) 0.00603(3)
O6_2 O 0.16345(10) 0.1850(2) 0.56297(13)
N3A N 0.21406(11) 0.3478(3) 0.53572(15)
N7A N 0.10857(12) 0.5400(3) 0.61903(17)
N8G N 0.04122(14) 0.6506(3) 0.57875(19)
O13 O 0.18585(10) 0.7478(2) 0.50281(16)
O14 O 0.07818(17) 0.2685(5) 0.5131(4)
O15 O 0.4622(2) 1.0331(6) 0.2524(3)
O16 O 0.0307(3) 0.5486(8) 0.4357(5)
O17 O 0.0345(3) 0.6114(8) 0.3464(5)
O18 O -0.0314(4) 0.6621(17) 0.3151(12)
O19 O 0.0341(5) 0.3754(12) 0.5883(10)
O20? O 0.0405(4) 0.7154(14) 0.2980(5)
O21? O -0.0387(3) 0.6141(9) 0.3473(5)
O22? O 0.0262(8) 0.521(2) 0.4651(15)
O23? O 0.0429(2) 0.4155(7) 0.5506(4)
O24? O 0.0813(8) 0.227(3) 0.469(2)
loop_
_geom_bond_atom_site_label_1
_geom_bond_atom_site_label_2
_geom_bond_site_symmetry_1
_geom_bond_site_symmetry_2
Co1 O1 1_555 1_555
Co2 O8 1_555 1_555
Co3 O2 1_555 1_555
O1 C23 1_555 1_555
O2 C18 1_555 1_555
O3 C18 1_555 1_555
O4 C9 1_555 1_555
O5 Co1 1_555 1_555
O6 C12 1_555 1_555
O7 C6 1_555 1_555
O8 C9 1_555 1_555
O9 Co2 1_555 1_555
O10 C23 1_555 1_555
O11 C12 1_555 1_555
O12 C21 1_555 1_555
N1 Co3 1_555 1_555
N2 C8 1_555 1_555
N3 C10 1_555 1_555
N4 Co1 1_555 1_555
N5 Co1 1_555 1_555
N6 C10 1_555 1_555
N7 C32 1_555 1_555
N8 C22 1_555 1_555
N9 C27 1_555 1_555
N10 C2 1_555 1_555
N11 C37 1_555 1_555
N12 C22 1_555 1_555
C1 H1 1_555 1_555
C2 H2 1_555 1_555
H3 C2 1_555 1_555
C3 H4 1_555 1_555
C4 C3 1_555 1_555
H5 C4 1_555 1_555
C5 C1 1_555 1_555
H6 C5 1_555 1_555
C6 O5 1_555 1_555
C7 C6 1_555 1_555
C8 N1 1_555 1_555
H7 C8 1_555 1_555
C9 C15 1_555 1_555
C10 H8 1_555 1_555
C11 C7 1_555 1_555
C12 C11 1_555 1_555
C13 N2 1_555 1_555
H9 C13 1_555 1_555
C14 C15 1_555 1_555
C15 C35 1_555 1_555
C16 N3 1_555 1_555
H10 C16 1_555 1_555
C17 N1 1_555 1_555
H11 C17 1_555 1_555
C18 C14 1_555 1_555
C19 C31 1_555 1_555
C20 H12 1_555 1_555
C21 O9 1_555 1_555
C22 H13 1_555 1_555
C23 C35 1_555 1_555
C24 H14 1_555 1_555
C25 C11 1_555 1_555
H15 C25 1_555 1_555
C26 N6 1_555 1_555
H16 C26 1_555 1_555
C27 N4 1_555 1_555
H17 C27 1_555 1_555
C28 C2 1_555 1_555
C29 C7 1_555 1_555
C30 H18 1_555 1_555
C31 C43 1_555 1_555
C32 N10 1_555 1_555
H19 C32 1_555 1_555
C33 C47 1_555 1_555
C34 C29 1_555 1_555
H20 C34 1_555 1_555
C35 C69 1_555 1_555
C36 C30 1_555 1_555
C37 N5 1_555 1_555
H21 C37 1_555 1_555
C38 H22 1_555 1_555
C39 N6 1_555 1_555
H23 C39 1_555 1_555
H24 C39 1_555 1_555
C40 N7 1_555 1_555
H25 C40 1_555 1_555
C41 C36 1_555 1_555
H26 C41 1_555 1_555
C42 N2 1_555 1_555
H27 C42 1_555 1_555
H28 C42 1_555 1_555
C43 C20 1_555 1_555
H29 C43 1_555 1_555
C44 C19 1_555 1_555
H30 C44 1_555 1_555
C45 C24 1_555 1_555
C46 N9 1_555 1_555
H31 C46 1_555 1_555
C47 C24 1_555 1_555
H32 C47 1_555 1_555
C48 C19 1_555 1_555
H33 C48 1_555 1_555
C49 C38 1_555 1_555
C50 C49 1_555 1_555
H34 C50 1_555 1_555
C51 N4 1_555 1_555
H35 C51 1_555 1_555
C52 C25 1_555 1_555
H36 C52 1_555 1_555
C53 C28 1_555 1_555
H37 C53 1_555 1_555
C54 C28 1_555 1_555
H38 C54 1_555 1_555
C55 C31 1_555 1_555
H39 C55 1_555 1_555
C56 C14 1_555 1_555
H40 C56 1_555 1_555
C57 C20 1_555 1_555
C58 C56 1_555 1_555
H41 C58 1_555 1_555
C59 N5 1_555 1_555
H42 C59 1_555 1_555
C60 C63 1_555 1_555
C61 N10 1_555 1_555
H43 C61 1_555 1_555
C62 C33 1_555 1_555
H44 C62 1_555 1_555
C63 H45 1_555 1_555
C64 N9 1_555 1_555
H46 C64 1_555 1_555
H47 C64 1_555 1_555
C65 C71 1_555 1_555
C66 C45 1_555 1_555
H48 C66 1_555 1_555
C67 C60 1_555 1_555
H49 C67 1_555 1_555
C68 C55 1_555 1_555
H50 C68 1_555 1_555
C69 C58 1_555 1_555
H51 C69 1_555 1_555
C70 C1 1_555 1_555
C71 N11 1_555 1_555
H52 C71 1_555 1_555
H53 C71 1_555 1_555
C72 N8 1_555 1_555
H54 C72 1_555 1_555
C73 N12 1_555 1_555
H55 C73 1_555 1_555
H56 C73 1_555 1_555
C74 C63 1_555 1_555
H57 C74 1_555 1_555
C75 N12 1_555 1_555
H58 C75 1_555 1_555
C76 N11 1_555 1_555
H59 C76 1_555 1_555
C77 C65 1_555 1_555
H60 C77 1_555 1_555
C78 C4 1_555 1_555
Co2A N7 1_555 1_555
Co2G N8 1_555 1_555
Co3_2 O6 1_555 1_555
Co3A N3 1_555 1_555
O6_2 Co3 1_555 1_555
N3A Co3 1_555 1_555
N7A Co2 1_555 1_555
N8G Co2 1_555 1_555
C3 C70 1_555 1_555
C5 C78 1_555 1_555
C13 C17 1_555 1_555
C16 C26 1_555 1_555
C21 C29 1_555 1_555
C30 C48 1_555 1_555
C33 C64 1_555 1_555
C34 C52 1_555 1_555
C36 C39 1_555 1_555
C38 C54 1_555 1_555
C40 C61 1_555 1_555
C41 C44 1_555 1_555
C42 C57 1_555 1_555
C45 C49 1_555 1_555
C46 C51 1_555 1_555
C50 C53 1_555 1_555
C57 C68 1_555 1_555
C59 C76 1_555 1_555
C60 C70 1_555 1_555
C62 C66 1_555 1_555
C65 C74 1_555 1_555
C67 C77 1_555 1_555
C72 C75 1_555 1_555
C73 C78 1_555 1_555

#END
