
#######################################################################
#
#                 Cambridge Crystallographic Data Centre
#                                CCDC 
#
#######################################################################
#
# If this CIF has been generated from an entry in the Cambridge 
# Structural Database, then it will include bibliographic, chemical, 
# crystal, experimental, refinement or atomic coordinate data resulting 
# from the CCDC's data processing and validation procedures.
#
#######################################################################

data_ECITIT
_symmetry_cell_setting           monoclinic
_symmetry_space_group_name_H-M   'P 21/n'
_symmetry_Int_Tables_number      14
_space_group_name_Hall           '-P 2yn'
loop_
_symmetry_equiv_pos_site_id
_symmetry_equiv_pos_as_xyz
1 x,y,z
2 1/2+x,1/2-y,1/2+z
3 -x,-y,-z
4 1/2-x,1/2+y,1/2-z
_cell_length_a                   6.604(2)
_cell_length_b                   24.078(10)
_cell_length_c                   10.514(6)
_cell_angle_alpha                90
_cell_angle_beta                 93.38
_cell_angle_gamma                90
_cell_volume                     1668.93
loop_
_atom_site_label
_atom_site_type_symbol
_atom_site_fract_x
_atom_site_fract_y
_atom_site_fract_z
Ag1 Ag 0.13498(5) -0.236980(15) 0.74603(3)
O1 O 0.2668(7) -0.14715(15) 0.7121(4)
O2 O 0.1348(6) -0.15953(15) 0.5140(4)
O3 O 0.2788(7) 0.11894(17) 0.3934(4)
O4 O 0.3478(6) 0.13374(16) 0.5932(4)
N1 N 0.4490(5) -0.27857(15) 0.6698(3)
N2 N 0.8220(5) -0.27759(15) 0.6710(3)
N3 N 0.6339(6) -0.36404(15) 0.6258(3)
N4 N 0.6197(5) -0.28836(16) 0.4686(3)
N5 N 0.3024(6) 0.10275(17) 0.5036(5)
C1 C 0.6382(7) -0.25484(18) 0.7295(4)
H1 H 0.6459 -0.2632 0.8189
H2 H 0.6358 -0.2152 0.7200
C2 C 0.8196(7) -0.33894(18) 0.6867(4)
H3 H 0.8280 -0.3478 0.7759
H4 H 0.9359 -0.3547 0.6495
C3 C 0.4575(7) -0.33993(19) 0.6852(4)
H5 H 0.3354 -0.3561 0.6473
H6 H 0.4649 -0.3489 0.7744
C4 C 0.4423(6) -0.26587(19) 0.5309(4)
H7 H 0.4375 -0.2263 0.5193
H8 H 0.3207 -0.2813 0.4907
C5 C 0.8067(7) -0.26482(19) 0.5328(4)
H9 H 0.9228 -0.2797 0.4938
H10 H 0.8071 -0.2253 0.5213
C6 C 0.6217(7) -0.34975(19) 0.4889(4)
H11 H 0.5010 -0.3656 0.4487
H12 H 0.7363 -0.3655 0.4498
C7 C 0.2085(7) -0.1300(2) 0.6025(5)
C8 C 0.2327(6) -0.06836(19) 0.5787(4)
C9 C 0.2679(7) -0.0311(2) 0.6789(5)
H13 H 0.2761 -0.0447 0.7648
C10 C 0.2909(7) 0.0253(2) 0.6556(5)
H14 H 0.3172 0.0509 0.7245
C11 C 0.2756(6) 0.04335(19) 0.5304(5)
C12 C 0.2371(7) 0.0077(2) 0.4279(5)
H15 H 0.2251 0.0216 0.3423
C13 C 0.2153(7) -0.0482(2) 0.4545(4)
H16 H 0.1912 -0.0740 0.3856
N2_2 N -0.1780(5) -0.27759(15) 0.6710(3)
N4A N 0.1197(5) -0.21164(16) 0.9686(3)
Ag1_2 Ag 1.13498(5) -0.236980(15) 0.74603(3)
Ag1A Ag 0.63498(5) -0.263020(15) 0.24603(3)
O5 O 0.586(2) -0.0367(6) 1.0254(14)
H17 H 0.6797 -0.0203 0.9879
H18 H 0.5786 -0.0649 0.9742
O6 O 0.6029(8) -0.1190(3) 0.8805(6)
H19 H 0.4975 -0.1386 0.8887
H20 H 0.6101 -0.1108 0.8022
O7 O 0.8390(16) 0.0149(3) 0.9082(7)
H21 H 0.8649 0.0471 0.9385
H22 H 0.9479 -0.0033 0.9013
loop_
_geom_bond_atom_site_label_1
_geom_bond_atom_site_label_2
_geom_bond_site_symmetry_1
_geom_bond_site_symmetry_2
Ag1 O1 1_555 1_555
O1 C7 1_555 1_555
O2 C7 1_555 1_555
O3 N5 1_555 1_555
O4 N5 1_555 1_555
N1 Ag1 1_555 1_555
N2 C1 1_555 1_555
N3 C2 1_555 1_555
N4 C4 1_555 1_555
N5 C11 1_555 1_555
C1 N1 1_555 1_555
H1 C1 1_555 1_555
H2 C1 1_555 1_555
C2 N2 1_555 1_555
H3 C2 1_555 1_555
H4 C2 1_555 1_555
C3 N1 1_555 1_555
H5 C3 1_555 1_555
H6 C3 1_555 1_555
C4 N1 1_555 1_555
H7 C4 1_555 1_555
H8 C4 1_555 1_555
C5 N2 1_555 1_555
H9 C5 1_555 1_555
H10 C5 1_555 1_555
C6 N3 1_555 1_555
H11 C6 1_555 1_555
H12 C6 1_555 1_555
C7 C8 1_555 1_555
C8 C9 1_555 1_555
C9 H13 1_555 1_555
C10 C9 1_555 1_555
H14 C10 1_555 1_555
C11 C10 1_555 1_555
C12 C11 1_555 1_555
H15 C12 1_555 1_555
C13 C8 1_555 1_555
H16 C13 1_555 1_555
O5 H17 1_555 1_555
H18 O5 1_555 1_555
O6 H19 1_555 1_555
H20 O6 1_555 1_555
O7 H21 1_555 1_555
H22 O7 1_555 1_555
N2_2 Ag1 1_555 1_555
N4A Ag1 1_555 1_555
Ag1_2 N2 1_555 1_555
Ag1A N4 1_555 1_555
N3 C3 1_555 1_555
N4 C5 1_555 1_555
N4 C6 1_555 1_555
C12 C13 1_555 1_555

#END
