
#######################################################################
#
#                 Cambridge Crystallographic Data Centre
#                                CCDC 
#
#######################################################################
#
# If this CIF has been generated from an entry in the Cambridge 
# Structural Database, then it will include bibliographic, chemical, 
# crystal, experimental, refinement or atomic coordinate data resulting 
# from the CCDC's data processing and validation procedures.
#
#######################################################################

data_ECITUF
_symmetry_cell_setting           orthorhombic
_symmetry_space_group_name_H-M   'P n m a'
_symmetry_Int_Tables_number      62
_space_group_name_Hall           '-P 2ac 2n'
loop_
_symmetry_equiv_pos_site_id
_symmetry_equiv_pos_as_xyz
1 x,y,z
2 1/2+x,y,1/2-z
3 x,1/2-y,z
4 1/2-x,1/2+y,1/2+z
5 -x,-y,-z
6 1/2-x,-y,1/2+z
7 -x,1/2+y,-z
8 1/2+x,1/2-y,1/2-z
_cell_length_a                   23.026(7)
_cell_length_b                   6.5270(10)
_cell_length_c                   10.466(4)
_cell_angle_alpha                90
_cell_angle_beta                 90
_cell_angle_gamma                90
_cell_volume                     1572.94
loop_
_atom_site_label
_atom_site_type_symbol
_atom_site_fract_x
_atom_site_fract_y
_atom_site_fract_z
Ag1 Ag 0.23434(2) 0.2500 0.14427(4)
O1 O 0.1365(2) 0.2500 0.0908(5)
O2 O 0.1522(2) 0.2500 -0.1144(4)
O3 O -0.0246(4) 0.2500 -0.3923(7)
O4 O -0.1080(3) 0.2500 -0.3126(6)
O5 O -0.1304(2) 0.2500 0.1442(6)
O6 O -0.0553(3) 0.2500 0.2656(7)
N1 N 0.2106(2) 0.2500 0.3671(4)
N2 N 0.1333(2) 0.2500 0.5265(4)
N3 N 0.22315(13) 0.0610(5) 0.5671(3)
N4 N -0.0556(4) 0.2500 -0.3025(8)
N5 N -0.0782(3) 0.2500 0.1625(8)
C1 C 0.1465(3) 0.2500 0.3904(6)
H1 H 0.1293 0.1309 0.3520
C2 C 0.15885(16) 0.0681(7) 0.5845(4)
H2 H 0.1421 -0.0515 0.5459
H3 H 0.1496 0.0658 0.6739
C3 C 0.23498(18) 0.0662(6) 0.4280(3)
H4 H 0.2762 0.0647 0.4146
H5 H 0.2190 -0.0540 0.3884
C4 C 0.2472(2) 0.2500 0.6242(5)
H6 H 0.2887 0.2500 0.6149
H7 H 0.2386 0.2500 0.7139
C5 C 0.1207(3) 0.2500 -0.0217(6)
C6 C 0.0552(3) 0.2500 -0.0419(6)
C7 C 0.0309(3) 0.2500 -0.1636(6)
H8 H 0.0553 0.2500 -0.2381
C8 C -0.0292(3) 0.2500 -0.1741(7)
C9 C -0.0658(3) 0.2500 -0.0717(9)
H9 H -0.1071 0.2500 -0.0833
C10 C -0.0403(3) 0.2500 0.0467(7)
C11 C 0.0192(3) 0.2500 0.0642(6)
H10 H 0.0353 0.2500 0.1488
C3B C 0.23498(18) 0.4338(6) 0.4280(3)
N3B N 0.22315(13) 0.4390(5) 0.5671(3)
C2B C 0.15885(16) 0.4319(7) 0.5845(4)
H2B H 0.1421 0.5515 0.5459
H3B H 0.1496 0.4342 0.6739
H4B H 0.2762 0.4353 0.4146
H5B H 0.2190 0.5540 0.3884
H1B H 0.1293 0.3691 0.3520
N3C N 0.27685(13) 0.5610(5) 0.0671(3)
N3E N 0.27685(13) -0.0610(5) 0.0671(3)
Ag1C Ag 0.26566(2) -0.2500 0.64427(4)
Ag1C_2 Ag 0.26566(2) 0.7500 0.64427(4)
loop_
_geom_bond_atom_site_label_1
_geom_bond_atom_site_label_2
_geom_bond_site_symmetry_1
_geom_bond_site_symmetry_2
Ag1 O1 1_555 1_555
O1 C5 1_555 1_555
O2 C5 1_555 1_555
O3 N4 1_555 1_555
O4 N4 1_555 1_555
O5 N5 1_555 1_555
O6 N5 1_555 1_555
N1 Ag1 1_555 1_555
N2 C1 1_555 1_555
N3 C2 1_555 1_555
N4 C8 1_555 1_555
N5 C10 1_555 1_555
C1 N1 1_555 1_555
H1 C1 1_555 1_555
C2 N2 1_555 1_555
H2 C2 1_555 1_555
H3 C2 1_555 1_555
C3 N1 1_555 1_555
H4 C3 1_555 1_555
H5 C3 1_555 1_555
C4 N3 1_555 1_555
H6 C4 1_555 1_555
H7 C4 1_555 1_555
C5 C6 1_555 1_555
C6 C7 1_555 1_555
C7 H8 1_555 1_555
C8 C7 1_555 1_555
C9 C8 1_555 1_555
H9 C9 1_555 1_555
C10 C9 1_555 1_555
C11 C6 1_555 1_555
H10 C11 1_555 1_555
C3B N1 1_555 1_555
N3B C4 1_555 1_555
C2B N2 1_555 1_555
H2B C2B 1_555 1_555
H3B C2B 1_555 1_555
H4B C3B 1_555 1_555
H5B C3B 1_555 1_555
H1B C1 1_555 1_555
N3C Ag1 1_555 1_555
N3E Ag1 1_555 1_555
Ag1C N3 1_555 1_555
Ag1C_2 N3B 1_555 1_555
N3 C3 1_555 1_555
C10 C11 1_555 1_555
C3B N3B 1_555 1_555
N3B C2B 1_555 1_555

#END
