
#######################################################################
#
#                 Cambridge Crystallographic Data Centre
#                                CCDC 
#
#######################################################################
#
# If this CIF has been generated from an entry in the Cambridge 
# Structural Database, then it will include bibliographic, chemical, 
# crystal, experimental, refinement or atomic coordinate data resulting 
# from the CCDC's data processing and validation procedures.
#
#######################################################################

data_ECIVIV
_symmetry_cell_setting           orthorhombic
_symmetry_space_group_name_H-M   'P b c a'
_symmetry_Int_Tables_number      61
_space_group_name_Hall           '-P 2ac 2ab'
loop_
_symmetry_equiv_pos_site_id
_symmetry_equiv_pos_as_xyz
1 x,y,z
2 1/2+x,y,1/2-z
3 x,1/2-y,1/2+z
4 1/2-x,1/2+y,z
5 -x,-y,-z
6 1/2-x,-y,1/2+z
7 -x,1/2+y,1/2-z
8 1/2+x,1/2-y,-z
_cell_length_a                   12.193(7)
_cell_length_b                   11.044(3)
_cell_length_c                   33.570(17)
_cell_angle_alpha                90
_cell_angle_beta                 90
_cell_angle_gamma                90
_cell_volume                     4520.52
loop_
_atom_site_label
_atom_site_type_symbol
_atom_site_fract_x
_atom_site_fract_y
_atom_site_fract_z
Ag1 Ag 0.63899(4) 0.09177(4) 0.255222(16)
O1 O 0.6190(4) -0.0324(5) 0.32003(16)
O2 O 0.7876(6) 0.0349(7) 0.31712(18)
O3 O 0.8525(5) -0.1125(5) 0.37972(17)
N1 N 0.4875(4) 0.2072(4) 0.27922(16)
N2 N 0.2853(4) 0.1940(4) 0.27708(17)
N3 N 0.3772(4) 0.3933(4) 0.27509(17)
N4 N 0.3785(4) 0.2725(4) 0.33674(17)
C1 C 0.7156(7) -0.0289(7) 0.3318(2)
C2 C 0.7423(6) -0.1171(7) 0.3656(2)
H1 H 0.6934 -0.1027 0.3875
H2 H 0.7291 -0.1975 0.3558
C3 C 0.8803(6) -0.0220(8) 0.4059(2)
C4 C 0.8131(6) 0.0696(7) 0.4183(2)
H3 H 0.7399 0.0756 0.4079
C5 C 0.8500(8) 0.1545(8) 0.4465(3)
C6 C 0.9578(8) 0.1468(10) 0.4622(3)
C7 C 1.0237(8) 0.0500(10) 0.4472(3)
H4 H 1.0977 0.0438 0.4567
C8 C 0.9870(8) -0.0311(9) 0.4210(3)
H5 H 1.0336 -0.0958 0.4122
C9 C 0.7855(10) 0.2536(9) 0.4596(3)
H6 H 0.7127 0.2625 0.4491
C10 C 0.8252(12) 0.3334(10) 0.4868(4)
H7 H 0.7789 0.3982 0.4958
C11 C 0.9296(14) 0.3258(14) 0.5015(4)
H8 H 0.9567 0.3856 0.5198
C12 C 0.9951(11) 0.2324(11) 0.4901(4)
H9 H 1.0675 0.2256 0.5011
C13 C 0.3917(4) 0.1381(5) 0.2652(2)
H10 H 0.3954 0.0578 0.2761
H11 H 0.3943 0.1315 0.2367
C14 C 0.4814(5) 0.3331(4) 0.2630(2)
H12 H 0.4873 0.3315 0.2345
H13 H 0.5416 0.3793 0.2734
C15 C 0.2844(5) 0.3198(5) 0.2610(2)
H14 H 0.2175 0.3591 0.2688
H15 H 0.2861 0.3160 0.2325
C16 C 0.4810(5) 0.2150(5) 0.3235(2)
H16 H 0.5425 0.2593 0.3338
H17 H 0.4836 0.1343 0.3341
C17 C 0.3729(5) 0.3963(5) 0.3199(2)
H18 H 0.3052 0.4334 0.3279
H19 H 0.4326 0.4439 0.3300
C18 C 0.2848(5) 0.2032(5) 0.3212(2)
H20 H 0.2881 0.1229 0.3321
H21 H 0.2178 0.2403 0.3300
N2A N 0.7853(4) 0.1940(4) 0.22292(17)
N3F N 0.6228(4) -0.1067(4) 0.22491(17)
Ag1A Ag 0.13899(4) 0.09177(4) 0.244778(16)
Ag1F Ag 0.36101(4) 0.59177(4) 0.244778(16)
O4 O 0.4270(6) -0.1022(6) 0.3547(2)
H22 H 0.5043 -0.0800 0.3404
C19 C 0.4260(9) -0.0834(13) 0.3959(4)
H23 H 0.4526 -0.0033 0.4014
H24 H 0.4751 -0.1401 0.4082
C20 C 0.3266(11) -0.0955(16) 0.4139(4)
H25 H 0.3301 -0.0818 0.4421
H26 H 0.2776 -0.0379 0.4020
H27 H 0.3003 -0.1761 0.4089
O5 O 0.9950(6) 0.1535(5) 0.3273(2)
H28 H 0.9000 0.1499 0.3291
H29 H 1.0146 0.2219 0.3350
loop_
_geom_bond_atom_site_label_1
_geom_bond_atom_site_label_2
_geom_bond_site_symmetry_1
_geom_bond_site_symmetry_2
Ag1 O1 1_555 1_555
O1 C1 1_555 1_555
O2 C1 1_555 1_555
O3 C2 1_555 1_555
N1 Ag1 1_555 1_555
N2 C13 1_555 1_555
N3 C14 1_555 1_555
N4 C16 1_555 1_555
C1 C2 1_555 1_555
C2 H1 1_555 1_555
H2 C2 1_555 1_555
C3 O3 1_555 1_555
C4 C3 1_555 1_555
H3 C4 1_555 1_555
C5 C4 1_555 1_555
C6 C5 1_555 1_555
C7 C6 1_555 1_555
H4 C7 1_555 1_555
C8 C3 1_555 1_555
H5 C8 1_555 1_555
C9 C5 1_555 1_555
H6 C9 1_555 1_555
C10 C9 1_555 1_555
H7 C10 1_555 1_555
C11 C10 1_555 1_555
H8 C11 1_555 1_555
C12 C6 1_555 1_555
H9 C12 1_555 1_555
C13 N1 1_555 1_555
H10 C13 1_555 1_555
H11 C13 1_555 1_555
C14 N1 1_555 1_555
H12 C14 1_555 1_555
H13 C14 1_555 1_555
C15 N2 1_555 1_555
H14 C15 1_555 1_555
H15 C15 1_555 1_555
C16 N1 1_555 1_555
H16 C16 1_555 1_555
H17 C16 1_555 1_555
C17 N3 1_555 1_555
H18 C17 1_555 1_555
H19 C17 1_555 1_555
C18 N2 1_555 1_555
H20 C18 1_555 1_555
H21 C18 1_555 1_555
O4 H22 1_555 1_555
C19 O4 1_555 1_555
H23 C19 1_555 1_555
H24 C19 1_555 1_555
C20 C19 1_555 1_555
H25 C20 1_555 1_555
H26 C20 1_555 1_555
H27 C20 1_555 1_555
O5 H28 1_555 1_555
H29 O5 1_555 1_555
N2A Ag1 1_555 1_555
N3F Ag1 1_555 1_555
Ag1A N2 1_555 1_555
Ag1F N3 1_555 1_555
N3 C15 1_555 1_555
N4 C17 1_555 1_555
N4 C18 1_555 1_555
C7 C8 1_555 1_555
C11 C12 1_555 1_555

#END
