
#######################################################################
#
#                 Cambridge Crystallographic Data Centre
#                                CCDC 
#
#######################################################################
#
# If this CIF has been generated from an entry in the Cambridge 
# Structural Database, then it will include bibliographic, chemical, 
# crystal, experimental, refinement or atomic coordinate data resulting 
# from the CCDC's data processing and validation procedures.
#
#######################################################################

data_ECIVOB
_symmetry_cell_setting           orthorhombic
_symmetry_space_group_name_H-M   'P b c n'
_symmetry_Int_Tables_number      60
_space_group_name_Hall           '-P 2n 2ab'
loop_
_symmetry_equiv_pos_site_id
_symmetry_equiv_pos_as_xyz
1 x,y,z
2 1/2+x,1/2+y,1/2-z
3 x,-y,1/2+z
4 1/2-x,1/2+y,z
5 -x,-y,-z
6 1/2-x,1/2-y,1/2+z
7 -x,y,1/2-z
8 1/2+x,1/2-y,-z
_cell_length_a                   17.228(8)
_cell_length_b                   11.979(4)
_cell_length_c                   11.177(5)
_cell_angle_alpha                90
_cell_angle_beta                 90
_cell_angle_gamma                90
_cell_volume                     2306.64
loop_
_atom_site_label
_atom_site_type_symbol
_atom_site_fract_x
_atom_site_fract_y
_atom_site_fract_z
Ag1 Ag 0.24065(3) 0.10191(4) 0.20197(4)
O1 O 0.1151(3) 0.1130(4) 0.0791(5)
O2 O 0.1207(4) -0.0418(6) 0.1790(6)
N1 N 0.3055(3) -0.0428(4) 0.3084(4)
N2 N 0.3078(3) -0.2474(4) 0.3264(4)
N3 N 0.4192(3) -0.1386(4) 0.3904(4)
N4 N 0.2995(3) -0.1312(4) 0.5072(4)
C1 C 0.3918(4) -0.0436(5) 0.3174(5)
H1 H 0.4092 0.0250 0.3527
H2 H 0.4137 -0.0489 0.2387
C2 C 0.2817(4) -0.1500(5) 0.2553(5)
H3 H 0.3033 -0.1556 0.1764
H4 H 0.2262 -0.1518 0.2479
C3 C 0.3928(4) -0.2435(5) 0.3351(5)
H5 H 0.4151 -0.2508 0.2567
H6 H 0.4103 -0.3053 0.3827
C4 C 0.2733(4) -0.0376(5) 0.4315(5)
H7 H 0.2177 -0.0382 0.4276
H8 H 0.2890 0.0312 0.4682
C5 C 0.2750(4) -0.2371(5) 0.4479(5)
H9 H 0.2918 -0.2993 0.4955
H10 H 0.2194 -0.2389 0.4435
C6 C 0.3859(4) -0.1293(5) 0.5109(5)
H11 H 0.4032 -0.0617 0.5484
H12 H 0.4036 -0.1911 0.5582
C7 C 0.0889(4) 0.0196(7) 0.1064(7)
C8 C 0.0143(4) -0.0205(6) 0.0485(6)
H13 H -0.0136 -0.0798 0.0871
C8D C -0.0143(4) 0.0205(6) -0.0485(6)
C7D C -0.0889(4) -0.0196(7) -0.1064(7)
O1D O -0.1151(3) -0.1130(4) -0.0791(5)
O2D O -0.1207(4) 0.0418(6) -0.1790(6)
H13D H 0.0136 0.0798 -0.0871
N1C N 0.1945(3) 0.4572(4) 0.3084(4)
N2C N 0.1922(3) 0.2526(4) 0.3264(4)
N3C N 0.0808(3) 0.3614(4) 0.3904(4)
N4C N 0.2005(3) 0.3688(4) 0.5072(4)
C1C C 0.1082(4) 0.4564(5) 0.3174(5)
H1C H 0.0908 0.5250 0.3527
H2C H 0.0863 0.4511 0.2387
C2C C 0.2183(4) 0.3500(5) 0.2553(5)
H3C H 0.1967 0.3444 0.1764
H4C H 0.2738 0.3482 0.2479
C3C C 0.1072(4) 0.2565(5) 0.3351(5)
H5C H 0.0849 0.2492 0.2567
H6C H 0.0897 0.1947 0.3827
C4C C 0.2267(4) 0.4624(5) 0.4315(5)
H7C H 0.2823 0.4618 0.4276
H8C H 0.2110 0.5312 0.4682
C5C C 0.2250(4) 0.2629(5) 0.4479(5)
H9C H 0.2082 0.2007 0.4955
H10C H 0.2806 0.2611 0.4435
C6C C 0.1141(4) 0.3707(5) 0.5109(5)
H11C H 0.0968 0.4383 0.5484
H12C H 0.0964 0.3089 0.5582
Ag1D Ag -0.24065(3) -0.10191(4) -0.20197(4)
N4B N 0.2995(3) 0.1312(4) 0.0072(4)
Ag1C Ag 0.25935(3) -0.39809(4) 0.20197(4)
Ag1B Ag 0.24065(3) -0.10191(4) 0.70197(4)
Ag1C_2 Ag 0.25935(3) 0.60191(4) 0.20197(4)
Ag1E Ag 0.25935(3) 0.39809(4) 0.70197(4)
N1D N -0.3055(3) 0.0428(4) -0.3084(4)
N2G N -0.1922(3) -0.2526(4) -0.3264(4)
N4F N -0.2995(3) -0.1312(4) -0.0072(4)
O3 O 0.5771(3) -0.1747(5) 0.4804(5)
H14 H 0.5360 -0.1524 0.4374
H15 H 0.5469 -0.1843 0.5468
O4 O 0.5927(5) -0.2457(6) 0.7313(5)
H16 H 0.5905 -0.3244 0.7551
H17 H 0.5388 -0.2358 0.7237
loop_
_geom_bond_atom_site_label_1
_geom_bond_atom_site_label_2
_geom_bond_site_symmetry_1
_geom_bond_site_symmetry_2
Ag1 O1 1_555 1_555
O1 C7 1_555 1_555
O2 C7 1_555 1_555
N1 Ag1 1_555 1_555
N2 C2 1_555 1_555
N3 C1 1_555 1_555
N4 C4 1_555 1_555
C1 N1 1_555 1_555
H1 C1 1_555 1_555
H2 C1 1_555 1_555
C2 N1 1_555 1_555
H3 C2 1_555 1_555
H4 C2 1_555 1_555
C3 N2 1_555 1_555
H5 C3 1_555 1_555
H6 C3 1_555 1_555
C4 N1 1_555 1_555
H7 C4 1_555 1_555
H8 C4 1_555 1_555
C5 N2 1_555 1_555
H9 C5 1_555 1_555
H10 C5 1_555 1_555
C6 N3 1_555 1_555
H11 C6 1_555 1_555
H12 C6 1_555 1_555
C7 C8 1_555 1_555
C8 H13 1_555 1_555
O3 H14 1_555 1_555
H15 O3 1_555 1_555
O4 H16 1_555 1_555
H17 O4 1_555 1_555
C8D C8 1_555 1_555
C7D C8D 1_555 1_555
O1D C7D 1_555 1_555
O2D C7D 1_555 1_555
H13D C8D 1_555 1_555
N1C C1C 1_555 1_555
N2C Ag1 1_555 1_555
N3C C1C 1_555 1_555
N4C C4C 1_555 1_555
C1C H1C 1_555 1_555
H2C C1C 1_555 1_555
C2C N1C 1_555 1_555
H3C C2C 1_555 1_555
H4C C2C 1_555 1_555
C3C N2C 1_555 1_555
H5C C3C 1_555 1_555
H6C C3C 1_555 1_555
C4C N1C 1_555 1_555
H7C C4C 1_555 1_555
H8C C4C 1_555 1_555
C5C N2C 1_555 1_555
H9C C5C 1_555 1_555
H10C C5C 1_555 1_555
C6C N3C 1_555 1_555
H11C C6C 1_555 1_555
H12C C6C 1_555 1_555
Ag1D O1D 1_555 1_555
N4B Ag1 1_555 1_555
Ag1C N2 1_555 1_555
Ag1B N4 1_555 1_555
Ag1C_2 N1C 1_555 1_555
Ag1E N4C 1_555 1_555
N1D Ag1D 1_555 1_555
N2G Ag1D 1_555 1_555
N4F Ag1D 1_555 1_555
N3 C3 1_555 1_555
N4 C5 1_555 1_555
N4 C6 1_555 1_555
N2C C2C 1_555 1_555
N3C C3C 1_555 1_555
N4C C5C 1_555 1_555
N4C C6C 1_555 1_555

#END
