
#######################################################################
#
#                 Cambridge Crystallographic Data Centre
#                                CCDC 
#
#######################################################################
#
# If this CIF has been generated from an entry in the Cambridge 
# Structural Database, then it will include bibliographic, chemical, 
# crystal, experimental, refinement or atomic coordinate data resulting 
# from the CCDC's data processing and validation procedures.
#
#######################################################################

data_ECIVER
_symmetry_cell_setting           orthorhombic
_symmetry_space_group_name_H-M   'P c a 21'
_symmetry_Int_Tables_number      29
_space_group_name_Hall           'P 2c -2ac'
loop_
_symmetry_equiv_pos_site_id
_symmetry_equiv_pos_as_xyz
1 x,y,z
2 -x,-y,1/2+z
3 1/2+x,-y,z
4 1/2-x,y,1/2+z
_cell_length_a                   12.256(8)
_cell_length_b                   15.028(8)
_cell_length_c                   11.013(3)
_cell_angle_alpha                90
_cell_angle_beta                 90
_cell_angle_gamma                90
_cell_volume                     2028.41
loop_
_atom_site_label
_atom_site_type_symbol
_atom_site_fract_x
_atom_site_fract_y
_atom_site_fract_z
Ag1 Ag 0.13526(4) 0.98365(4) 0.41584(10)
O1 O 0.2503(6) 0.8504(4) 0.4191(14)
O2 O 0.1283(5) 0.8283(6) 0.5664(9)
O3 O 0.4259(5) 0.7637(5) 0.4096(13)
H1 H 0.3806 0.8045 0.3789
N1 N 0.1246(5) 1.0476(6) 0.6121(7)
N2 N 0.2161(6) 1.0576(5) 0.8108(6)
N3 N 0.0149(6) 1.0621(5) 0.7998(6)
N4 N 0.1230(6) 1.1886(7) 0.7281(8)
C1 C 0.2141(9) 0.8108(7) 0.5140(12)
C2 C 0.2907(8) 0.7387(7) 0.5657(10)
C3 C 0.3933(8) 0.7209(8) 0.5113(11)
C4 C 0.4635(8) 0.6594(8) 0.5635(11)
H2 H 0.5327 0.6474 0.5261
C5 C 0.4344(8) 0.6136(6) 0.6706(11)
C6 C 0.3285(9) 0.6293(7) 0.7232(11)
C7 C 0.2602(13) 0.6925(6) 0.6696(18)
H3 H 0.1904 0.7043 0.7057
C8 C 0.5086(10) 0.5539(9) 0.7306(13)
H4 H 0.5803 0.5443 0.6981
C9 C 0.4769(12) 0.5112(11) 0.8344(14)
H5 H 0.5264 0.4708 0.8735
C10 C 0.3715(9) 0.5254(10) 0.8853(14)
H6 H 0.3502 0.4943 0.9576
C11 C 0.3008(10) 0.5831(9) 0.8309(13)
H7 H 0.2303 0.5925 0.8665
C12 C 0.2172(6) 1.0187(7) 0.6859(8)
H8 H 0.2837 1.0357 0.6460
H9 H 0.2164 0.9550 0.6918
C13 C 0.2166(7) 1.1563(6) 0.7970(9)
H10 H 0.2824 1.1739 0.7565
H11 H 0.2164 1.1832 0.8760
C14 C 0.1279(7) 1.1483(7) 0.6063(9)
H12 H 0.0673 1.1691 0.5589
H13 H 0.1938 1.1670 0.5666
C15 C 0.0221(7) 1.1612(6) 0.7864(8)
H14 H 0.0175 1.1884 0.8651
H15 H -0.0388 1.1817 0.7392
C16 C 0.0223(7) 1.0224(7) 0.6757(9)
H16 H 0.0189 0.9588 0.6822
H17 H -0.0391 1.0417 0.6284
C17 C 0.1119(6) 1.0321(7) 0.8694(9)
H18 H 0.1092 1.0574 0.9494
H19 H 0.1093 0.9685 0.8777
N2C N 0.2839(6) 1.0576(5) 0.3108(6)
N3A N -0.0149(6) 0.9379(5) 0.2998(6)
Ag1C Ag 0.36474(4) 0.98365(4) 0.91584(10)
Ag1A Ag -0.13526(4) 1.01635(4) 0.91584(10)
O4 O -0.0881(7) 0.7787(7) 0.5907(11)
H20 H -0.0305 0.7952 0.6272
C18 C -0.0865(13) 0.6853(11) 0.615(2)
H21 H -0.0748 0.6771 0.7007
H22 H -0.0247 0.6602 0.5740
C19 C -0.1745(14) 0.6385(13) 0.583(2)
H23 H -0.1862 0.6439 0.4972
H24 H -0.1637 0.5771 0.6036
H25 H -0.2370 0.6610 0.6257
loop_
_geom_bond_atom_site_label_1
_geom_bond_atom_site_label_2
_geom_bond_site_symmetry_1
_geom_bond_site_symmetry_2
Ag1 O1 1_555 1_555
O1 C1 1_555 1_555
O2 C1 1_555 1_555
O3 H1 1_555 1_555
N1 Ag1 1_555 1_555
N2 C12 1_555 1_555
N3 C15 1_555 1_555
N4 C13 1_555 1_555
C1 C2 1_555 1_555
C2 C3 1_555 1_555
C3 O3 1_555 1_555
C4 C3 1_555 1_555
H2 C4 1_555 1_555
C5 C4 1_555 1_555
C6 C5 1_555 1_555
C7 C2 1_555 1_555
H3 C7 1_555 1_555
C8 C5 1_555 1_555
H4 C8 1_555 1_555
C9 C8 1_555 1_555
H5 C9 1_555 1_555
C10 C9 1_555 1_555
H6 C10 1_555 1_555
C11 C6 1_555 1_555
H7 C11 1_555 1_555
C12 N1 1_555 1_555
H8 C12 1_555 1_555
H9 C12 1_555 1_555
C13 N2 1_555 1_555
H10 C13 1_555 1_555
H11 C13 1_555 1_555
C14 N1 1_555 1_555
H12 C14 1_555 1_555
H13 C14 1_555 1_555
C15 N4 1_555 1_555
H14 C15 1_555 1_555
H15 C15 1_555 1_555
C16 N1 1_555 1_555
H16 C16 1_555 1_555
H17 C16 1_555 1_555
C17 N2 1_555 1_555
H18 C17 1_555 1_555
H19 C17 1_555 1_555
O4 H20 1_555 1_555
C18 O4 1_555 1_555
H21 C18 1_555 1_555
H22 C18 1_555 1_555
C19 C18 1_555 1_555
H23 C19 1_555 1_555
H24 C19 1_555 1_555
H25 C19 1_555 1_555
N2C Ag1 1_555 1_555
N3A Ag1 1_555 1_555
Ag1C N2 1_555 1_555
Ag1A N3 1_555 1_555
N3 C16 1_555 1_555
N3 C17 1_555 1_555
N4 C14 1_555 1_555
C6 C7 1_555 1_555
C10 C11 1_555 1_555

#END
