
#######################################################################
#
#                 Cambridge Crystallographic Data Centre
#                                CCDC 
#
#######################################################################
#
# If this CIF has been generated from an entry in the Cambridge 
# Structural Database, then it will include bibliographic, chemical, 
# crystal, experimental, refinement or atomic coordinate data resulting 
# from the CCDC's data processing and validation procedures.
#
#######################################################################

data_ECIVOB01
_symmetry_cell_setting           orthorhombic
_symmetry_space_group_name_H-M   'P b c n'
_symmetry_Int_Tables_number      60
_space_group_name_Hall           '-P 2n 2ab'
loop_
_symmetry_equiv_pos_site_id
_symmetry_equiv_pos_as_xyz
1 x,y,z
2 1/2+x,1/2+y,1/2-z
3 x,-y,1/2+z
4 1/2-x,1/2+y,z
5 -x,-y,-z
6 1/2-x,1/2-y,1/2+z
7 -x,y,1/2-z
8 1/2+x,1/2-y,-z
_cell_length_a                   17.2043(5)
_cell_length_b                   11.9704(2)
_cell_length_c                   11.1685(3)
_cell_angle_alpha                90
_cell_angle_beta                 90
_cell_angle_gamma                90
_cell_volume                     2300.07
loop_
_atom_site_label
_atom_site_type_symbol
_atom_site_fract_x
_atom_site_fract_y
_atom_site_fract_z
Ag1 Ag 0.74068(2) 0.89825(3) 0.20237(3)
N1 N 0.8058(2) 1.0424(3) 0.3092(3)
N2 N 0.8073(2) 1.2471(3) 0.3270(3)
N3 N 0.9194(2) 1.1382(3) 0.3908(3)
N4 N 0.7993(2) 1.1311(3) 0.5077(3)
O1 O 0.6207(3) 1.0432(4) 0.1789(5)
O3 O 0.6154(2) 0.8873(3) 0.0797(4)
C1 C 0.5886(3) 0.9798(4) 0.1066(5)
C2 C 0.5147(3) 1.0197(4) 0.0488(5)
H5 H 0.495(4) 1.065(7) 0.082(7)
C3 C 0.7817(3) 1.1509(3) 0.2560(4)
H6 H 0.8032 1.1569 0.1759
H7 H 0.7255 1.1525 0.2492
C4 C 0.8917(3) 1.0439(4) 0.3181(4)
H8 H 0.9094 0.9745 0.3536
H9 H 0.9138 1.0491 0.2384
C5 C 0.7732(3) 1.0369(4) 0.4318(4)
H10 H 0.7169 1.0375 0.4271
H11 H 0.7889 0.9671 0.4688
C6 C 0.7751(3) 1.2360(4) 0.4496(4)
H12 H 0.7925 1.2986 0.4978
H13 H 0.7189 1.2386 0.4457
C7 C 0.8934(2) 1.2429(4) 0.3354(4)
H14 H 0.9156 1.2491 0.2558
H15 H 0.9118 1.3056 0.3826
C8 C 0.8857(3) 1.1296(4) 0.5112(4)
H16 H 0.9040 1.1914 0.5597
H17 H 0.9032 1.0608 0.5484
C2D C 0.4853(3) 0.9803(4) -0.0488(5)
C1D C 0.4114(3) 1.0202(4) -0.1066(5)
O1D O 0.3793(3) 0.9568(4) -0.1789(5)
O3D O 0.3846(2) 1.1127(3) -0.0797(4)
H5D H 0.505(4) 0.935(7) -0.082(7)
N1C N 0.6942(2) 0.5424(3) 0.3092(3)
N2C N 0.6927(2) 0.7471(3) 0.3270(3)
N3C N 0.5806(2) 0.6382(3) 0.3908(3)
N4C N 0.7007(2) 0.6311(3) 0.5077(3)
C3C C 0.7183(3) 0.6509(3) 0.2560(4)
H6C H 0.6968 0.6569 0.1759
H7C H 0.7745 0.6525 0.2492
C4C C 0.6083(3) 0.5439(4) 0.3181(4)
H8C H 0.5906 0.4745 0.3536
H9C H 0.5862 0.5491 0.2384
C5C C 0.7268(3) 0.5369(4) 0.4318(4)
H10C H 0.7831 0.5375 0.4271
H11C H 0.7111 0.4671 0.4688
C6C C 0.7249(3) 0.7360(4) 0.4496(4)
H12C H 0.7075 0.7986 0.4978
H13C H 0.7811 0.7386 0.4457
C7C C 0.6066(2) 0.7429(4) 0.3354(4)
H14C H 0.5844 0.7491 0.2558
H15C H 0.5882 0.8056 0.3826
C8C C 0.6143(3) 0.6296(4) 0.5112(4)
H16C H 0.5960 0.6914 0.5597
H17C H 0.5968 0.5608 0.5484
Ag1C Ag 0.75932(2) 0.39825(3) 0.20237(3)
N4B N 0.7993(2) 0.8689(3) 0.0077(3)
Ag1C_2 Ag 0.75932(2) 1.39825(3) 0.20237(3)
Ag1B Ag 0.74068(2) 1.10175(3) 0.70237(3)
Ag1D Ag 0.25932(2) 1.10175(3) -0.20237(3)
Ag1E Ag 0.75932(2) 0.60175(3) 0.70237(3)
N1D N 0.1942(2) 0.9576(3) -0.3092(3)
N2G N 0.3073(2) 1.2529(3) -0.3270(3)
N4F N 0.2007(2) 1.1311(3) -0.0077(3)
O2 O 0.5759(2) 0.6739(4) 0.0189(4)
H1 H 0.526(4) 0.659(5) 0.058(6)
H2 H 0.589(4) 0.745(5) 0.029(6)
O4 O 0.5912(5) 1.2535(5) 0.2657(5)
H3 H 0.584(4) 1.271(5) 0.334(6)
H4 H 0.598(9) 1.169(10) 0.243(13)
loop_
_geom_bond_atom_site_label_1
_geom_bond_atom_site_label_2
_geom_bond_site_symmetry_1
_geom_bond_site_symmetry_2
Ag1 N1 1_555 1_555
N1 C3 1_555 1_555
N2 C3 1_555 1_555
N3 C4 1_555 1_555
N4 C5 1_555 1_555
O1 C1 1_555 1_555
O2 H1 1_555 1_555
H2 O2 1_555 1_555
O3 Ag1 1_555 1_555
O4 H3 1_555 1_555
H4 O4 1_555 1_555
C1 O3 1_555 1_555
C2 C1 1_555 1_555
H5 C2 1_555 1_555
C3 H6 1_555 1_555
H7 C3 1_555 1_555
C4 N1 1_555 1_555
H8 C4 1_555 1_555
H9 C4 1_555 1_555
C5 N1 1_555 1_555
H10 C5 1_555 1_555
H11 C5 1_555 1_555
C6 N2 1_555 1_555
H12 C6 1_555 1_555
H13 C6 1_555 1_555
C7 N2 1_555 1_555
H14 C7 1_555 1_555
H15 C7 1_555 1_555
C8 N3 1_555 1_555
H16 C8 1_555 1_555
H17 C8 1_555 1_555
C2D C2 1_555 1_555
C1D C2D 1_555 1_555
O1D C1D 1_555 1_555
O3D C1D 1_555 1_555
H5D C2D 1_555 1_555
N1C C3C 1_555 1_555
N2C Ag1 1_555 1_555
N3C C4C 1_555 1_555
N4C C5C 1_555 1_555
C3C N2C 1_555 1_555
H6C C3C 1_555 1_555
H7C C3C 1_555 1_555
C4C N1C 1_555 1_555
H8C C4C 1_555 1_555
H9C C4C 1_555 1_555
C5C N1C 1_555 1_555
H10C C5C 1_555 1_555
H11C C5C 1_555 1_555
C6C N2C 1_555 1_555
H12C C6C 1_555 1_555
H13C C6C 1_555 1_555
C7C N2C 1_555 1_555
H14C C7C 1_555 1_555
H15C C7C 1_555 1_555
C8C N3C 1_555 1_555
H16C C8C 1_555 1_555
H17C C8C 1_555 1_555
Ag1C N1C 1_555 1_555
N4B Ag1 1_555 1_555
Ag1C_2 N2 1_555 1_555
Ag1B N4 1_555 1_555
Ag1D O3D 1_555 1_555
Ag1E N4C 1_555 1_555
N1D Ag1D 1_555 1_555
N2G Ag1D 1_555 1_555
N4F Ag1D 1_555 1_555
N3 C7 1_555 1_555
N4 C6 1_555 1_555
N4 C8 1_555 1_555
N3C C7C 1_555 1_555
N4C C6C 1_555 1_555
N4C C8C 1_555 1_555

#END
