
#######################################################################
#
#                 Cambridge Crystallographic Data Centre
#                                CCDC 
#
#######################################################################
#
# If this CIF has been generated from an entry in the Cambridge 
# Structural Database, then it will include bibliographic, chemical, 
# crystal, experimental, refinement or atomic coordinate data resulting 
# from the CCDC's data processing and validation procedures.
#
#######################################################################

data_ECIVAN
_symmetry_cell_setting           orthorhombic
_symmetry_space_group_name_H-M   'P c a 21'
_symmetry_Int_Tables_number      29
_space_group_name_Hall           'P 2c -2ac'
loop_
_symmetry_equiv_pos_site_id
_symmetry_equiv_pos_as_xyz
1 x,y,z
2 -x,-y,1/2+z
3 1/2+x,-y,z
4 1/2-x,y,1/2+z
_cell_length_a                   12.154(10)
_cell_length_b                   15.125(16)
_cell_length_c                   11.030(7)
_cell_angle_alpha                90
_cell_angle_beta                 90
_cell_angle_gamma                90
_cell_volume                     2027.64
loop_
_atom_site_label
_atom_site_type_symbol
_atom_site_fract_x
_atom_site_fract_y
_atom_site_fract_z
Ag1 Ag 0.35891(4) 0.01512(4) -0.50153(10)
O1 O 0.3644(7) 0.1652(6) -0.6435(10)
O2 O 0.2384(6) 0.1481(5) -0.5089(13)
O3 O 0.0762(6) 0.2517(5) -0.4983(13)
N1 N 0.5089(5) 0.0621(5) -0.3809(6)
N2 N 0.6208(5) 0.0528(5) -0.1953(6)
N3 N 0.7119(5) 0.0577(5) -0.3953(6)
N4 N 0.6175(7) 0.1891(6) -0.3161(8)
C1 C 0.2769(8) 0.1875(7) -0.6001(11)
C2 C 0.2112(8) 0.2606(7) -0.6522(9)
C3 C 0.1150(9) 0.2880(8) -0.6005(11)
C4 C 0.0475(10) 0.3575(9) -0.6582(16)
C5 C -0.0522(13) 0.3836(11) -0.609(2)
H1 H -0.0766 0.3581 -0.5339
C6 C -0.119(2) 0.4484(17) -0.659(3)
H2 H -0.1889 0.4682 -0.6293
C7 C -0.079(2) 0.4756(18) -0.769(3)
H3 H -0.1189 0.5240 -0.8044
C8 C 0.020(2) 0.4575(13) -0.834(2)
H4 H 0.0409 0.4802 -0.9118
C9 C 0.0858(16) 0.3896(9) -0.7680(19)
C10 C 0.1857(15) 0.3596(11) -0.8188(14)
H5 H 0.2089 0.3805 -0.8969
C11 C 0.2471(17) 0.3000(7) -0.7600(18)
H6 H 0.3190 0.2842 -0.7887
C12 C 0.5182(7) 0.0247(6) -0.2554(8)
H7 H 0.5163 -0.0387 -0.2592
H8 H 0.4565 0.0440 -0.2079
C13 C 0.6073(6) 0.0317(6) -0.4509(8)
H9 H 0.6037 0.0562 -0.5311
H10 H 0.6049 -0.0315 -0.4583
C14 C 0.5152(7) 0.1597(6) -0.3723(8)
H11 H 0.4544 0.1808 -0.3250
H12 H 0.5099 0.1852 -0.4518
C15 C 0.7155(6) 0.0204(6) -0.2693(7)
H13 H 0.7134 -0.0430 -0.2729
H14 H 0.7831 0.0374 -0.2308
C16 C 0.7121(7) 0.1553(6) -0.3856(8)
H15 H 0.7109 0.1809 -0.4652
H16 H 0.7787 0.1740 -0.3463
C17 C 0.6249(6) 0.1508(6) -0.1924(8)
H17 H 0.6925 0.1696 -0.1554
H18 H 0.5651 0.1727 -0.1441
H19 H 0.0905 0.1959 -0.4955
N2A N 0.3792(5) -0.0528(5) -0.6953(6)
N3B N 0.2119(5) -0.0577(5) -0.3953(6)
Ag1A Ag 0.64109(4) -0.01512(4) -0.00153(10)
Ag1B Ag 0.85891(4) -0.01512(4) -0.50153(10)
C18 C 0.5976(15) 0.2996(10) -0.7010(18)
H20 H 0.5457 0.3176 -0.7619
H21 H 0.6701 0.3102 -0.7321
C19 C 0.5819(17) 0.3539(13) -0.600(2)
H22 H 0.5915 0.4152 -0.6204
H23 H 0.5088 0.3448 -0.5696
H24 H 0.6346 0.3373 -0.5396
O4 O 0.5812(8) 0.2080(7) -0.6850(11)
H25 H 0.5062 0.1964 -0.6548
loop_
_geom_bond_atom_site_label_1
_geom_bond_atom_site_label_2
_geom_bond_site_symmetry_1
_geom_bond_site_symmetry_2
Ag1 O2 1_555 1_555
O1 C1 1_555 1_555
O2 C1 1_555 1_555
O3 C3 1_555 1_555
N1 Ag1 1_555 1_555
N2 C12 1_555 1_555
N3 C13 1_555 1_555
N4 C14 1_555 1_555
C1 C2 1_555 1_555
C2 C3 1_555 1_555
C3 C4 1_555 1_555
C4 C5 1_555 1_555
C5 H1 1_555 1_555
C6 C5 1_555 1_555
H2 C6 1_555 1_555
C7 C6 1_555 1_555
H3 C7 1_555 1_555
C8 C7 1_555 1_555
H4 C8 1_555 1_555
C9 C4 1_555 1_555
C10 C9 1_555 1_555
H5 C10 1_555 1_555
C11 C2 1_555 1_555
H6 C11 1_555 1_555
C12 N1 1_555 1_555
H7 C12 1_555 1_555
H8 C12 1_555 1_555
C13 N1 1_555 1_555
H9 C13 1_555 1_555
H10 C13 1_555 1_555
C14 N1 1_555 1_555
H11 C14 1_555 1_555
H12 C14 1_555 1_555
C15 N2 1_555 1_555
H13 C15 1_555 1_555
H14 C15 1_555 1_555
C16 N3 1_555 1_555
H15 C16 1_555 1_555
H16 C16 1_555 1_555
C17 N2 1_555 1_555
H17 C17 1_555 1_555
H18 C17 1_555 1_555
H19 O3 1_555 1_555
C18 H20 1_555 1_555
H21 C18 1_555 1_555
C19 C18 1_555 1_555
H22 C19 1_555 1_555
H23 C19 1_555 1_555
H24 C19 1_555 1_555
O4 C18 1_555 1_555
H25 O4 1_555 1_555
N2A Ag1 1_555 1_555
N3B Ag1 1_555 1_555
Ag1A N2 1_555 1_555
Ag1B N3 1_555 1_555
N3 C15 1_555 1_555
N4 C16 1_555 1_555
N4 C17 1_555 1_555
C8 C9 1_555 1_555
C10 C11 1_555 1_555

#END
