
#######################################################################
#
#                 Cambridge Crystallographic Data Centre
#                                CCDC 
#
#######################################################################
#
# If this CIF has been generated from an entry in the Cambridge 
# Structural Database, then it will include bibliographic, chemical, 
# crystal, experimental, refinement or atomic coordinate data resulting 
# from the CCDC's data processing and validation procedures.
#
#######################################################################

data_ECIWIW
_symmetry_cell_setting           monoclinic
_symmetry_space_group_name_H-M   'I a'
_symmetry_Int_Tables_number      9
_space_group_name_Hall           'I -2ya'
loop_
_symmetry_equiv_pos_site_id
_symmetry_equiv_pos_as_xyz
1 x,y,z
2 1/2+x,-y,z
3 1/2+x,1/2+y,1/2+z
4 x,1/2-y,1/2+z
_cell_length_a                   22.92(2)
_cell_length_b                   28.738(17)
_cell_length_c                   22.999(13)
_cell_angle_alpha                90.00
_cell_angle_beta                 94.908(8)
_cell_angle_gamma                90.00
_cell_volume                     15093.3
loop_
_atom_site_label
_atom_site_type_symbol
_atom_site_fract_x
_atom_site_fract_y
_atom_site_fract_z
Cd1 Cd 0.23255(4) 0.43646(3) -0.65792(4)
Cd2 Cd -0.26887(4) 0.68736(3) -0.65334(4)
C1 C -0.0969(5) 0.6299(4) -0.6529(5)
O3 O -0.1895(4) 0.6486(4) -0.6201(3)
O5 O 0.2713(4) 0.3938(4) -0.7277(4)
O8 O 0.2068(5) 0.4441(4) -0.7707(4)
O11 O 0.2061(4) 0.3915(4) -0.5868(4)
C3 C 0.2371(5) 0.3706(4) -0.4916(5)
O13 O 0.2735(5) 0.4361(3) -0.5394(4)
O14 O 0.6576(4) 0.6417(3) -0.6963(4)
C5 C 0.5652(5) 0.6260(5) -0.6636(5)
O17 O 0.6266(4) 0.6901(3) -0.6334(4)
O18 O -0.1560(4) 0.6935(3) -0.6878(4)
C8 C 0.1871(5) 0.3133(4) -0.4365(5)
H1 H 0.1539 0.2940 -0.4338
C18 C 0.2821(6) 0.3716(4) -0.4459(5)
H6 H 0.3146 0.3917 -0.4490
C19 C -0.0585(5) 0.6345(4) -0.6967(5)
H7 H -0.0662 0.6562 -0.7276
C25 C 0.2886(5) 0.3245(4) -0.8846(5)
H9 H 0.3177 0.3012 -0.8873
C29 C -0.1513(6) 0.6614(5) -0.6551(6)
C32 C 0.2856(5) 0.3488(4) -0.8330(5)
H11 H 0.3110 0.3404 -0.7999
C36 C 0.0047(6) 0.5741(5) -0.6514(5)
C39 C -0.0081(6) 0.6062(5) -0.6937(6)
H16 H 0.0183 0.6098 -0.7230
C41 C -0.0380(5) 0.5683(4) -0.6093(5)
H17 H -0.0325 0.5448 -0.5804
C43 C -0.0856(6) 0.5957(5) -0.6107(6)
H19 H -0.1124 0.5916 -0.5819
C45 C 0.2465(6) 0.3852(5) -0.8286(6)
C47 C 0.1911(5) 0.3398(4) -0.4863(5)
H21 H 0.1616 0.3368 -0.5177
C49 C 0.2374(6) 0.4085(5) -0.7729(6)
C53 C 0.5263(5) 0.6352(4) -0.6204(5)
H23 H 0.5342 0.6600 -0.5936
C54 C 0.6191(5) 0.6553(4) -0.6641(4)
C57 C 0.5512(5) 0.5930(4) -0.7039(5)
H26 H 0.5751 0.5889 -0.7352
C59 C 0.2416(5) 0.4017(4) -0.5421(5)
N2 N 0.1556(4) 0.4858(3) -0.6527(4)
C66 C 0.0547(5) 0.5447(5) -0.6510(5)
C67 C 0.0883(6) 0.5416(5) -0.6989(6)
H34 H 0.0768 0.5590 -0.7331
C68 C 0.1375(6) 0.5141(5) -0.6978(6)
H35 H 0.1602 0.5150 -0.7306
C69 C 0.0747(5) 0.5148(4) -0.6047(6)
H36 H 0.0548 0.5141 -0.5701
C70 C 0.1229(7) 0.4864(6) -0.6092(7)
H37 H 0.1329 0.4656 -0.5778
N3 N 0.2220(4) 0.2360(3) -0.2327(4)
C71 C 0.2602(5) 0.2993(4) -0.2832(5)
H38 H 0.2847 0.3260 -0.2815
C72 C 0.1920(6) 0.2250(5) -0.2813(5)
H39 H 0.1673 0.1985 -0.2810
C73 C 0.2286(5) 0.2875(4) -0.3356(4)
C74 C 0.2565(5) 0.2732(4) -0.2350(5)
H40 H 0.2798 0.2819 -0.2006
C75 C 0.2317(5) 0.3143(4) -0.3888(5)
C76 C 0.1931(4) 0.2490(4) -0.3335(5)
H41 H 0.1698 0.2389 -0.3673
C79 C 0.2805(5) 0.3444(4) -0.3967(5)
H43 H 0.3124 0.3455 -0.3675
C87 C 0.5025(6) 0.5650(4) -0.7006(5)
H49 H 0.4964 0.5393 -0.7264
N4 N 0.3070(4) 0.4912(4) -0.6545(4)
C98 C 0.4623(5) 0.5739(4) -0.6598(5)
C99 C 0.3796(6) 0.5384(5) -0.6077(6)
H58 H 0.3938 0.5526 -0.5720
C100 C 0.4075(5) 0.5462(5) -0.6567(5)
C101 C 0.3328(7) 0.5114(5) -0.6095(7)
H59 H 0.3164 0.5064 -0.5735
C102 C 0.3811(7) 0.5253(5) -0.7097(7)
H60 H 0.3954 0.5312 -0.7465
C103 C 0.4763(6) 0.6079(4) -0.6173(6)
H61 H 0.4519 0.6124 -0.5864
C104 C 0.3347(6) 0.4970(5) -0.7041(6)
H62 H 0.3204 0.4796 -0.7375
N5 N 0.2413(4) 0.2441(4) -1.0832(4)
C105 C 0.1979(6) 0.2711(5) -1.0688(5)
H63 H 0.1626 0.2695 -1.0937
C106 C 0.2083(6) 0.3703(5) -0.9297(6)
H64 H 0.1817 0.3776 -0.9625
C107 C 0.2495(5) 0.3338(4) -0.9322(5)
C108 C 0.2076(7) 0.3952(6) -0.8781(7)
H65 H 0.1802 0.4198 -0.8760
C109 C 0.2486(5) 0.3052(4) -0.9862(5)
C110 C 0.2922(6) 0.2490(5) -1.0470(5)
H66 H 0.3250 0.2303 -1.0544
C111 C 0.1977(6) 0.3011(5) -1.0224(5)
H67 H 0.1637 0.3184 -1.0155
C112 C 0.2978(6) 0.2791(5) -1.0014(6)
H68 H 0.3346 0.2828 -0.9796
O14_2 O -0.3424(4) 0.6417(3) -0.6963(4)
O17_2 O -0.3734(4) 0.6901(3) -0.6334(4)
N3B N -0.2780(4) 0.7360(3) -0.7327(4)
N5B N -0.2587(4) 0.7441(4) -0.5832(4)
Cd2_2 Cd 0.73113(4) 0.68736(3) -0.65334(4)
Cd2B Cd 0.23113(4) 0.18736(3) -0.15334(4)
Cd2B_2 Cd 0.23113(4) 0.18736(3) -1.15334(4)
Cd3 Cd 0.88350(3) 0.12700(3) 0.04901(3)
O2 O 0.8610(4) 0.1415(4) -0.0478(3)
O7 O 0.9829(4) 0.1144(4) 0.0505(5)
C2 C 0.8772(5) 0.1822(4) -0.0444(5)
O12 O 0.8942(4) 0.2023(3) 0.0036(3)
C10 C 0.8838(5) 0.2109(4) -0.0997(5)
C12 C 1.1370(5) -0.0091(4) 0.0533(5)
O19 O 0.9307(4) 0.0520(4) 0.0526(5)
C21 C 0.9809(6) 0.0703(5) 0.0543(6)
C23 C 1.0326(5) 0.0430(4) 0.0533(5)
C33 C 1.1897(5) -0.0364(4) 0.0531(5)
C35 C 1.1383(6) 0.0394(4) 0.0494(5)
H13 H 1.1744 0.0551 0.0469
C37 C 0.8690(6) 0.1857(5) -0.1537(5)
H14 H 0.8593 0.1536 -0.1543
C38 C 1.0859(6) 0.0648(5) 0.0493(6)
H15 H 1.0872 0.0978 0.0465
C42 C 0.9000(5) 0.2539(4) -0.0998(5)
H18 H 0.9092 0.2690 -0.0634
C44 C 1.0307(6) -0.0051(5) 0.0570(5)
H20 H 0.9945 -0.0205 0.0604
C62 C 1.0844(6) -0.0316(5) 0.0555(5)
H30 H 1.0832 -0.0647 0.0561
C78 C 1.2468(5) -0.0167(4) 0.0723(5)
H42 H 1.2493 0.0151 0.0832
C86 C 1.1936(7) -0.0787(5) 0.0323(6)
H48 H 1.1592 -0.0925 0.0136
N6 N 1.2963(5) -0.0858(4) 0.0538(4)
C113 C 1.2967(6) -0.0429(5) 0.0750(5)
H69 H 1.3323 -0.0301 0.0923
C114 C 1.2467(7) -0.1052(6) 0.0360(6)
H70 H 1.2457 -0.1372 0.0255
N7 N 0.8817(4) 0.3329(4) -0.3667(4)
C115 C 0.8881(5) 0.2575(4) -0.2058(5)
C116 C 0.8866(5) 0.2836(5) -0.2597(5)
C117 C 0.9046(5) 0.2788(5) -0.1505(5)
H71 H 0.9185 0.3100 -0.1488
C118 C 0.8701(6) 0.2125(5) -0.2053(6)
H72 H 0.8575 0.1982 -0.2415
C119 C 0.8856(6) 0.3332(5) -0.2617(6)
H73 H 0.8857 0.3508 -0.2267
C120 C 0.8845(5) 0.3548(5) -0.3133(6)
H74 H 0.8858 0.3878 -0.3131
C121 C 0.8877(5) 0.2618(5) -0.3136(5)
H75 H 0.8895 0.2288 -0.3151
C122 C 0.8861(5) 0.2874(5) -0.3660(5)
H76 H 0.8884 0.2712 -0.4018
N6A N 0.7963(5) 0.0858(4) 0.0538(4)
N7C N 0.8817(4) 0.1671(4) 0.1333(4)
Cd3A Cd 1.38350(3) -0.12700(3) 0.04901(3)
Cd3C Cd 0.88350(3) 0.37300(3) -0.45099(3)
Cd4 Cd 0.04579(3) 0.37430(3) -0.12942(3)
O1 O 0.0599(4) 0.3675(3) -0.0291(3)
O4 O 0.0393(4) 0.3050(3) -0.0789(3)
O6 O -0.0514(4) 0.3930(4) -0.1362(4)
C11 C 0.0458(5) 0.2998(4) 0.0242(5)
C20 C 0.0476(5) 0.3257(4) -0.0314(5)
C27 C 0.0552(6) 0.3187(5) 0.0786(5)
H10 H 0.0650 0.3508 0.0814
C28 C -0.0443(6) 0.4361(5) -0.1323(6)
C30 C -0.0988(5) 0.4665(4) -0.1310(5)
O20 O 0.0063(4) 0.4528(4) -0.1344(6)
C63 C -0.1526(5) 0.4446(5) -0.1256(5)
H31 H -0.1548 0.4117 -0.1226
N8 N -0.3645(5) 0.5938(4) -0.1329(4)
C123 C -0.0967(6) 0.5139(5) -0.1328(5)
H77 H -0.0599 0.5288 -0.1345
C124 C -0.1974(6) 0.5201(5) -0.1282(6)
C125 C -0.2556(6) 0.5468(5) -0.1279(5)
C126 C -0.2020(6) 0.4713(4) -0.1246(5)
H78 H -0.2390 0.4571 -0.1215
C127 C -0.1431(5) 0.5390(5) -0.1325(5)
H79 H -0.1396 0.5718 -0.1352
C128 C -0.3036(5) 0.5300(4) -0.1020(5)
H80 H -0.3001 0.5027 -0.0788
C129 C -0.2621(5) 0.5911(4) -0.1526(5)
H81 H -0.2300 0.6060 -0.1682
C130 C -0.3546(6) 0.5519(5) -0.1096(5)
H82 H -0.3876 0.5360 -0.0971
C131 C -0.3146(6) 0.6122(5) -0.1541(5)
H83 H -0.3177 0.6424 -0.1712
N9 N 0.0459(4) 0.1667(4) 0.2858(4)
C132 C 0.0400(5) 0.2485(4) 0.1287(5)
C133 C 0.0393(5) 0.2199(4) 0.1833(5)
C134 C 0.0293(5) 0.2253(5) 0.0751(5)
H84 H 0.0206 0.1930 0.0734
C135 C 0.0321(6) 0.2529(5) 0.0225(6)
H85 H 0.0243 0.2382 -0.0144
C136 C 0.0505(5) 0.2133(5) 0.2868(6)
H86 H 0.0587 0.2281 0.3235
C137 C 0.0412(6) 0.1461(5) 0.2330(6)
H87 H 0.0389 0.1131 0.2305
C138 C 0.0515(5) 0.2943(4) 0.1292(5)
H88 H 0.0573 0.3102 0.1655
C139 C 0.0396(6) 0.1716(5) 0.1829(6)
H89 H 0.0386 0.1559 0.1465
C140 C 0.0444(6) 0.2399(5) 0.2391(6)
H90 H 0.0434 0.2728 0.2431
N8A N 0.1355(5) 0.4062(4) -0.1329(4)
N9C N 0.0459(4) 0.3333(4) -0.2142(4)
Cd4A Cd -0.45421(3) 0.62570(3) -0.12942(3)
Cd4C Cd 0.04579(3) 0.12570(3) 0.37058(3)
Cd5 Cd 0.19182(4) 0.56523(4) 0.08872(4)
Cd6 Cd -0.31017(5) 0.31347(4) 0.09238(5)
N1 N 0.2696(4) 0.5161(4) 0.0861(4)
O10 O 0.2230(6) 0.5628(4) 0.2024(4)
C4 C 0.5239(6) 0.3754(5) 0.0806(6)
C6 C -0.1413(7) 0.3708(5) 0.0993(7)
O15 O 0.5803(4) 0.3090(4) 0.1127(6)
O16 O 0.1661(4) 0.6130(4) 0.1572(4)
C9 C 0.1458(6) 0.6571(4) 0.2646(5)
H2 H 0.1185 0.6638 0.2322
C13 C 0.2215(6) 0.6407(5) 0.3585(6)
H3 H 0.2484 0.6346 0.3913
C14 C 0.1412(6) 0.6811(5) 0.3152(6)
H4 H 0.1104 0.7031 0.3168
C15 C 0.1880(5) 0.6237(4) 0.2580(5)
C16 C 0.4339(7) 0.3920(5) 0.1247(6)
H5 H 0.4078 0.3873 0.1541
C17 C 0.3685(5) 0.4573(5) 0.0815(5)
C24 C 0.4830(7) 0.3648(6) 0.1244(7)
H8 H 0.4903 0.3402 0.1516
C26 C 0.4208(5) 0.4282(5) 0.0805(5)
O21 O 0.6164(5) 0.3594(5) 0.0467(5)
C34 C 0.5108(6) 0.4078(5) 0.0387(6)
H12 H 0.5373 0.4134 0.0098
C40 C 0.1794(6) 0.6748(5) 0.3638(6)
C46 C 0.1904(7) 0.5978(6) 0.2015(7)
C48 C -0.1907(12) 0.3416(8) 0.1051(9)
C50 C 0.2267(5) 0.6146(4) 0.3071(5)
H22 H 0.2559 0.5913 0.3059
C51 C 0.5761(7) 0.3482(6) 0.0799(7)
C60 C 0.4583(6) 0.4334(5) 0.0377(6)
H28 H 0.4488 0.4546 0.0067
C64 C 0.2951(6) 0.4967(5) 0.1321(7)
H32 H 0.2798 0.5030 0.1684
C65 C 0.3439(7) 0.4669(6) 0.1324(7)
H33 H 0.3598 0.4534 0.1680
C88 C 0.2905(7) 0.5050(6) 0.0359(7)
H50 H 0.2721 0.5179 0.0009
C89 C 0.1794(6) 0.6761(4) -0.1792(4)
C90 C 0.1316(5) 0.6482(5) -0.1699(5)
H51 H 0.0982 0.6480 -0.1975
C91 C 0.1324(6) 0.6205(4) -0.1203(6)
H52 H 0.0998 0.6014 -0.1140
C92 C 0.1812(7) 0.6208(4) -0.0799(5)
C93 C 0.2290(6) 0.6487(5) -0.0892(5)
H53 H 0.2623 0.6489 -0.0616
C94 C 0.2281(5) 0.6764(4) -0.1388(6)
H54 H 0.2608 0.6955 -0.1452
C95 C 0.3381(7) 0.4755(6) 0.0319(7)
H55 H 0.3500 0.4677 -0.0054
C96 C -0.1122(10) 0.3892(7) 0.1479(10)
H56 H -0.1248 0.3824 0.1853
O25 O 0.2216(6) 0.6092(5) 0.0229(6)
C97 C -0.1131(14) 0.3802(8) 0.0517(16)
H57 H -0.1294 0.3671 0.0161
N10 N 0.1846(4) 0.7617(4) 0.5151(4)
C141 C 0.1796(5) 0.7034(5) 0.4155(5)
C142 C 0.1295(7) 0.7220(6) 0.4347(7)
H91 H 0.0921 0.7164 0.4148
C143 C 0.2308(6) 0.7160(5) 0.4482(6)
H92 H 0.2669 0.7045 0.4367
C144 C 0.2319(6) 0.7436(4) 0.4950(5)
H93 H 0.2689 0.7506 0.5150
C145 C 0.1366(7) 0.7502(5) 0.4863(6)
H94 H 0.1017 0.7617 0.5006
C146 C 0.2365(4) 0.7534(4) -0.2932(5)
H95 H 0.2721 0.7678 -0.3016
N11 N 0.1863(5) 0.7592(4) -0.3308(4)
C147 C 0.1342(4) 0.7381(4) -0.3185(5)
H96 H 0.0999 0.7420 -0.3442
C148 C 0.1323(4) 0.7112(4) -0.2685(6)
H97 H 0.0967 0.6968 -0.2600
C149 C 0.1825(6) 0.7054(4) -0.2308(4)
C150 C 0.2346(4) 0.7265(4) -0.2431(4)
H98 H 0.2689 0.7225 -0.2174
N14 N 0.1160(5) 0.5145(4) 0.0918(5)
C160 C 0.0472(6) 0.4574(6) 0.0463(7)
H107 H 0.0375 0.4377 0.0137
C161 C -0.0368(6) 0.4274(5) 0.0954(6)
C162 C 0.0134(6) 0.4564(5) 0.0943(5)
C163 C 0.0341(7) 0.4862(5) 0.1401(7)
H108 H 0.0142 0.4861 0.1746
C164 C -0.0636(9) 0.4183(7) 0.1430(9)
H109 H -0.0481 0.4331 0.1778
C165 C 0.0966(6) 0.4881(5) 0.0461(6)
H110 H 0.1166 0.4898 0.0116
C166 C 0.0821(8) 0.5161(6) 0.1382(8)
H111 H 0.0912 0.5375 0.1690
C167 C -0.0623(12) 0.4073(9) 0.0484(12)
H112 H -0.0463 0.4112 0.0119
C168 C 0.1920(8) 0.5881(7) -0.0171(9)
O29 O -0.2311(10) 0.3561(8) 0.1288(9)
O30 O -0.1974(10) 0.3091(8) 0.0672(9)
O31 O 0.1556(6) 0.5609(5) -0.0291(6)
Cd6B Cd 0.18983(5) 0.81347(4) 0.59238(5)
Cd6B_2 Cd 0.18983(5) 0.81347(4) -0.40762(5)
Cd6_2 Cd 0.68983(5) 0.31347(4) 0.09238(5)
O15_2 O -0.4197(4) 0.3090(4) 0.1127(6)
O21_2 O -0.3836(5) 0.3594(5) 0.0467(5)
N10B N -0.3154(4) 0.2617(4) 0.0151(4)
N11B N -0.3137(5) 0.2592(4) 0.1692(4)
Cd7 Cd -0.05102(3) 0.62390(3) -0.28004(4)
O9 O -0.1496(4) 0.6105(3) -0.2790(4)
C7 C -0.2008(6) 0.5372(5) -0.2840(6)
C22 C -0.3602(6) 0.4610(5) -0.2801(6)
C31 C -0.3027(6) 0.4882(4) -0.2798(6)
O22 O -0.0945(4) 0.5467(3) -0.2826(4)
C52 C -0.1462(5) 0.5685(4) -0.2820(5)
C55 C -0.2537(5) 0.5617(5) -0.2915(5)
H24 H -0.2552 0.5944 -0.2971
C56 C -0.3047(6) 0.5342(5) -0.2902(5)
H25 H -0.3418 0.5488 -0.2969
C58 C -0.2519(5) 0.4664(4) -0.2719(5)
H27 H -0.2511 0.4338 -0.2648
C61 C -0.1967(6) 0.4919(5) -0.2740(5)
H29 H -0.1598 0.4766 -0.2684
O23 O -0.0325(6) 0.6947(4) -0.2275(7)
O24 O -0.0397(7) 0.6320(4) -0.1695(7)
C77 C -0.0404(8) 0.6700(7) -0.1839(8)
C80 C -0.0368(7) 0.7559(5) -0.0266(6)
C81 C -0.0325(7) 0.7816(7) -0.0739(7)
H44 H -0.0306 0.8146 -0.0747
C82 C -0.0416(8) 0.7133(7) -0.0176(9)
H45 H -0.0473 0.6999 0.0193
C83 C -0.0372(7) 0.7034(6) -0.1225(7)
C84 C -0.0311(7) 0.7496(6) -0.1274(7)
H46 H -0.0258 0.7628 -0.1644
C85 C -0.4054(6) 0.4795(5) -0.2501(6)
H47 H -0.4012 0.5083 -0.2300
C151 C -0.0581(6) 0.8309(6) 0.0304(8)
H99 H -0.0696 0.8456 -0.0057
C152 C -0.0369(8) 0.6846(7) -0.0756(8)
H100 H -0.0339 0.6517 -0.0735
C153 C -0.0425(6) 0.7871(6) 0.0334(7)
C154 C -0.0229(7) 0.7679(6) 0.0841(8)
H101 H -0.0066 0.7375 0.0858
N12 N -0.4663(4) 0.4147(4) -0.2798(5)
C155 C -0.4569(6) 0.4538(5) -0.2510(6)
H102 H -0.4873 0.4654 -0.2294
C156 C -0.4215(6) 0.3979(5) -0.3095(6)
H103 H -0.4263 0.3695 -0.3304
C157 C -0.3685(6) 0.4225(5) -0.3092(6)
H104 H -0.3381 0.4107 -0.3307
N13 N -0.0442(5) 0.8366(5) 0.1324(6)
C158 C -0.0565(8) 0.8596(8) 0.0948(9)
H105 H -0.0651 0.8917 0.0982
C159 C -0.0278(8) 0.7977(8) 0.1414(9)
H106 H -0.0185 0.7856 0.1796
N12A N 0.0337(4) 0.5853(4) -0.2798(5)
N13C N -0.0442(5) 0.6634(5) -0.3676(6)
Cd7A Cd -0.55102(3) 0.37610(3) -0.28004(4)
Cd7C Cd -0.05102(3) 0.87610(3) 0.21996(4)
O26 O 0.3855(5) 0.4563(4) -0.4752(5)
O27 O -0.1018(7) 0.7341(6) -0.7831(6)
O28 O -0.0547(6) 0.4606(5) -0.3121(6)
loop_
_geom_bond_atom_site_label_1
_geom_bond_atom_site_label_2
_geom_bond_site_symmetry_1
_geom_bond_site_symmetry_2
Cd1 O5 1_555 1_555
Cd2 O3 1_555 1_555
Cd3 O2 1_555 1_555
Cd4 O1 1_555 1_555
Cd5 N1 1_555 1_555
Cd6 O29 1_555 1_555
Cd7 O9 1_555 1_555
O1 C20 1_555 1_555
O2 C2 1_555 1_555
C1 C19 1_555 1_555
O3 C29 1_555 1_555
O4 Cd4 1_555 1_555
O5 C49 1_555 1_555
O6 Cd4 1_555 1_555
O7 Cd3 1_555 1_555
N1 C64 1_555 1_555
O8 Cd1 1_555 1_555
O9 C52 1_555 1_555
C2 O12 1_555 1_555
O10 Cd5 1_555 1_555
O11 Cd1 1_555 1_555
C3 C18 1_555 1_555
O12 Cd3 1_555 1_555
O13 C59 1_555 1_555
C4 C24 1_555 1_555
O14 C54 1_555 1_555
C5 C53 1_555 1_555
C6 C48 1_555 1_555
O15 C51 1_555 1_555
O16 Cd5 1_555 1_555
C7 C52 1_555 1_555
O17 C54 1_555 1_555
O18 C29 1_555 1_555
C8 H1 1_555 1_555
C9 H2 1_555 1_555
C10 C2 1_555 1_555
C11 C20 1_555 1_555
C12 C33 1_555 1_555
C13 H3 1_555 1_555
C14 C9 1_555 1_555
H4 C14 1_555 1_555
C15 C9 1_555 1_555
C16 H5 1_555 1_555
C17 C26 1_555 1_555
C18 H6 1_555 1_555
C19 H7 1_555 1_555
C20 O4 1_555 1_555
O19 Cd3 1_555 1_555
C21 O7 1_555 1_555
C22 C31 1_555 1_555
C23 C21 1_555 1_555
C24 C16 1_555 1_555
H8 C24 1_555 1_555
C25 H9 1_555 1_555
C26 C16 1_555 1_555
C27 C11 1_555 1_555
H10 C27 1_555 1_555
C28 O6 1_555 1_555
C29 C1 1_555 1_555
C30 C28 1_555 1_555
C31 C56 1_555 1_555
O20 Cd4 1_555 1_555
C32 C25 1_555 1_555
H11 C32 1_555 1_555
C33 C78 1_555 1_555
O21 C51 1_555 1_555
C34 C4 1_555 1_555
H12 C34 1_555 1_555
C35 C12 1_555 1_555
H13 C35 1_555 1_555
C36 C39 1_555 1_555
O22 Cd7 1_555 1_555
C37 C10 1_555 1_555
H14 C37 1_555 1_555
C38 C23 1_555 1_555
H15 C38 1_555 1_555
C39 C19 1_555 1_555
H16 C39 1_555 1_555
C40 C13 1_555 1_555
C41 C36 1_555 1_555
H17 C41 1_555 1_555
C42 C10 1_555 1_555
H18 C42 1_555 1_555
C43 C1 1_555 1_555
H19 C43 1_555 1_555
C44 C23 1_555 1_555
H20 C44 1_555 1_555
C45 C32 1_555 1_555
C46 O10 1_555 1_555
C47 C3 1_555 1_555
H21 C47 1_555 1_555
C48 O29 1_555 1_555
C49 O8 1_555 1_555
C50 C13 1_555 1_555
H22 C50 1_555 1_555
C51 C4 1_555 1_555
C52 O22 1_555 1_555
C53 H23 1_555 1_555
C54 C5 1_555 1_555
C55 C7 1_555 1_555
H24 C55 1_555 1_555
C56 C55 1_555 1_555
H25 C56 1_555 1_555
C57 C5 1_555 1_555
H26 C57 1_555 1_555
C58 C31 1_555 1_555
H27 C58 1_555 1_555
C59 O11 1_555 1_555
C60 C26 1_555 1_555
H28 C60 1_555 1_555
C61 C7 1_555 1_555
H29 C61 1_555 1_555
C62 C12 1_555 1_555
H30 C62 1_555 1_555
C63 C30 1_555 1_555
H31 C63 1_555 1_555
C64 H32 1_555 1_555
C65 C17 1_555 1_555
H33 C65 1_555 1_555
N2 Cd1 1_555 1_555
C66 C36 1_555 1_555
C67 C66 1_555 1_555
H34 C67 1_555 1_555
C68 N2 1_555 1_555
H35 C68 1_555 1_555
C69 C66 1_555 1_555
H36 C69 1_555 1_555
C70 N2 1_555 1_555
H37 C70 1_555 1_555
N3 C72 1_555 1_555
C71 H38 1_555 1_555
C72 H39 1_555 1_555
C73 C71 1_555 1_555
C74 N3 1_555 1_555
H40 C74 1_555 1_555
C75 C8 1_555 1_555
O23 Cd7 1_555 1_555
O24 Cd7 1_555 1_555
C76 C72 1_555 1_555
H41 C76 1_555 1_555
C77 O23 1_555 1_555
C78 H42 1_555 1_555
C79 C18 1_555 1_555
H43 C79 1_555 1_555
C80 C81 1_555 1_555
C81 H44 1_555 1_555
C82 C80 1_555 1_555
H45 C82 1_555 1_555
C83 C77 1_555 1_555
C84 C81 1_555 1_555
H46 C84 1_555 1_555
C85 C22 1_555 1_555
H47 C85 1_555 1_555
C86 C33 1_555 1_555
H48 C86 1_555 1_555
C87 C57 1_555 1_555
H49 C87 1_555 1_555
C88 N1 1_555 1_555
H50 C88 1_555 1_555
C89 C90 1_555 1_555
C90 H51 1_555 1_555
C91 C90 1_555 1_555
H52 C91 1_555 1_555
C92 C91 1_555 1_555
C93 C92 1_555 1_555
H53 C93 1_555 1_555
C94 C89 1_555 1_555
H54 C94 1_555 1_555
C95 C17 1_555 1_555
H55 C95 1_555 1_555
C96 C6 1_555 1_555
H56 C96 1_555 1_555
O25 Cd5 1_555 1_555
C97 C6 1_555 1_555
H57 C97 1_555 1_555
N4 Cd1 1_555 1_555
C98 C87 1_555 1_555
C99 H58 1_555 1_555
C100 C98 1_555 1_555
C101 N4 1_555 1_555
H59 C101 1_555 1_555
C102 C100 1_555 1_555
H60 C102 1_555 1_555
C103 C53 1_555 1_555
H61 C103 1_555 1_555
C104 N4 1_555 1_555
H62 C104 1_555 1_555
N5 C105 1_555 1_555
C105 H63 1_555 1_555
C106 H64 1_555 1_555
C107 C25 1_555 1_555
C108 C45 1_555 1_555
H65 C108 1_555 1_555
C109 C107 1_555 1_555
C110 N5 1_555 1_555
H66 C110 1_555 1_555
C111 C105 1_555 1_555
H67 C111 1_555 1_555
C112 C109 1_555 1_555
H68 C112 1_555 1_555
N6 C113 1_555 1_555
C113 C78 1_555 1_555
H69 C113 1_555 1_555
C114 C86 1_555 1_555
H70 C114 1_555 1_555
N7 C120 1_555 1_555
C115 C116 1_555 1_555
C116 C119 1_555 1_555
C117 C42 1_555 1_555
H71 C117 1_555 1_555
C118 C37 1_555 1_555
H72 C118 1_555 1_555
C119 H73 1_555 1_555
C120 C119 1_555 1_555
H74 C120 1_555 1_555
C121 C116 1_555 1_555
H75 C121 1_555 1_555
C122 N7 1_555 1_555
H76 C122 1_555 1_555
N8 C130 1_555 1_555
C123 C30 1_555 1_555
H77 C123 1_555 1_555
C124 C125 1_555 1_555
C125 C128 1_555 1_555
C126 C63 1_555 1_555
H78 C126 1_555 1_555
C127 C123 1_555 1_555
H79 C127 1_555 1_555
C128 H80 1_555 1_555
C129 C125 1_555 1_555
H81 C129 1_555 1_555
C130 C128 1_555 1_555
H82 C130 1_555 1_555
C131 N8 1_555 1_555
H83 C131 1_555 1_555
N9 C136 1_555 1_555
C132 C133 1_555 1_555
C133 C139 1_555 1_555
C134 C132 1_555 1_555
H84 C134 1_555 1_555
C135 C11 1_555 1_555
H85 C135 1_555 1_555
C136 H86 1_555 1_555
C137 N9 1_555 1_555
H87 C137 1_555 1_555
C138 C27 1_555 1_555
H88 C138 1_555 1_555
C139 C137 1_555 1_555
H89 C139 1_555 1_555
C140 C133 1_555 1_555
H90 C140 1_555 1_555
N10 C144 1_555 1_555
C141 C40 1_555 1_555
C142 C141 1_555 1_555
H91 C142 1_555 1_555
C143 C141 1_555 1_555
H92 C143 1_555 1_555
C144 C143 1_555 1_555
H93 C144 1_555 1_555
C145 N10 1_555 1_555
H94 C145 1_555 1_555
C146 H95 1_555 1_555
N11 C146 1_555 1_555
C147 N11 1_555 1_555
H96 C147 1_555 1_555
C148 C147 1_555 1_555
H97 C148 1_555 1_555
C149 C89 1_555 1_555
C150 C146 1_555 1_555
H98 C150 1_555 1_555
C151 H99 1_555 1_555
C152 C82 1_555 1_555
H100 C152 1_555 1_555
C153 C80 1_555 1_555
C154 C153 1_555 1_555
H101 C154 1_555 1_555
N12 C155 1_555 1_555
C155 C85 1_555 1_555
H102 C155 1_555 1_555
C156 N12 1_555 1_555
H103 C156 1_555 1_555
C157 C22 1_555 1_555
H104 C157 1_555 1_555
N13 C158 1_555 1_555
C158 C151 1_555 1_555
H105 C158 1_555 1_555
C159 C154 1_555 1_555
H106 C159 1_555 1_555
N14 Cd5 1_555 1_555
C160 H107 1_555 1_555
C161 C162 1_555 1_555
C162 C160 1_555 1_555
C163 C162 1_555 1_555
H108 C163 1_555 1_555
C164 C96 1_555 1_555
H109 C164 1_555 1_555
C165 N14 1_555 1_555
H110 C165 1_555 1_555
C166 N14 1_555 1_555
H111 C166 1_555 1_555
C167 C97 1_555 1_555
H112 C167 1_555 1_555
C168 C92 1_555 1_555
O30 C48 1_555 1_555
O31 C168 1_555 1_555
O14_2 Cd2 1_555 1_555
O17_2 Cd2 1_555 1_555
N3B Cd2 1_555 1_555
N5B Cd2 1_555 1_555
N6A Cd3 1_555 1_555
N7C Cd3 1_555 1_555
N8A Cd4 1_555 1_555
N9C Cd4 1_555 1_555
N12A Cd7 1_555 1_555
N13C Cd7 1_555 1_555
Cd2_2 O14 1_555 1_555
Cd2B N3 1_555 1_555
Cd2B_2 N5 1_555 1_555
Cd3A N6 1_555 1_555
Cd3C N7 1_555 1_555
Cd4A N8 1_555 1_555
Cd4C N9 1_555 1_555
Cd6B N10 1_555 1_555
Cd6B_2 N11 1_555 1_555
Cd7A N12 1_555 1_555
Cd7C N13 1_555 1_555
Cd6_2 O15 1_555 1_555
O15_2 Cd6 1_555 1_555
O21_2 Cd6 1_555 1_555
N10B Cd6 1_555 1_555
N11B Cd6 1_555 1_555
C3 C59 1_555 1_555
O16 C46 1_555 1_555
O17 Cd2_2 1_555 1_555
C8 C47 1_555 1_555
C14 C40 1_555 1_555
C15 C46 1_555 1_555
C15 C50 1_555 1_555
O19 C21 1_555 1_555
C28 O20 1_555 1_555
O21 Cd6_2 1_555 1_555
C34 C60 1_555 1_555
C35 C38 1_555 1_555
C41 C43 1_555 1_555
C44 C62 1_555 1_555
C45 C49 1_555 1_555
C58 C61 1_555 1_555
C64 C65 1_555 1_555
C67 C68 1_555 1_555
C69 C70 1_555 1_555
C71 C74 1_555 1_555
C73 C75 1_555 1_555
C73 C76 1_555 1_555
C75 C79 1_555 1_555
O24 C77 1_555 1_555
C83 C84 1_555 1_555
C83 C152 1_555 1_555
C88 C95 1_555 1_555
C93 C94 1_555 1_555
O25 C168 1_555 1_555
C98 C103 1_555 1_555
C99 C100 1_555 1_555
C99 C101 1_555 1_555
C102 C104 1_555 1_555
C106 C107 1_555 1_555
C106 C108 1_555 1_555
C109 C111 1_555 1_555
C110 C112 1_555 1_555
N6 C114 1_555 1_555
C115 C118 1_555 1_555
C115 C117 1_555 1_555
C121 C122 1_555 1_555
C124 C126 1_555 1_555
C124 C127 1_555 1_555
C129 C131 1_555 1_555
C132 C138 1_555 1_555
C134 C135 1_555 1_555
C136 C140 1_555 1_555
C142 C145 1_555 1_555
C148 C149 1_555 1_555
C149 C150 1_555 1_555
C151 C153 1_555 1_555
C156 C157 1_555 1_555
N13 C159 1_555 1_555
C160 C165 1_555 1_555
C161 C164 1_555 1_555
C161 C167 1_555 1_555
C163 C166 1_555 1_555

#END
