
#######################################################################
#
#                 Cambridge Crystallographic Data Centre
#                                CCDC 
#
#######################################################################
#
# If this CIF has been generated from an entry in the Cambridge 
# Structural Database, then it will include bibliographic, chemical, 
# crystal, experimental, refinement or atomic coordinate data resulting 
# from the CCDC's data processing and validation procedures.
#
#######################################################################

data_ECIWAO
_symmetry_cell_setting           monoclinic
_symmetry_space_group_name_H-M   'C c'
_symmetry_Int_Tables_number      9
_space_group_name_Hall           'C -2yc'
loop_
_symmetry_equiv_pos_site_id
_symmetry_equiv_pos_as_xyz
1 x,y,z
2 x,-y,1/2+z
3 1/2+x,1/2+y,z
4 1/2+x,1/2-y,1/2+z
_cell_length_a                   10.3518(8)
_cell_length_b                   22.4134(18)
_cell_length_c                   8.3186(7)
_cell_angle_alpha                90.00
_cell_angle_beta                 126.1490(10)
_cell_angle_gamma                90.00
_cell_volume                     1558.51
loop_
_atom_site_label
_atom_site_type_symbol
_atom_site_fract_x
_atom_site_fract_y
_atom_site_fract_z
Zn1 Zn 0.04406(4) 0.849250(10) 0.28951(5)
O1 O 0.2161(3) 0.90419(9) 0.3615(3)
O2 O 0.1271(2) 0.77971(9) 0.4759(3)
O3 O 0.0355(3) 0.95767(9) 0.0934(3)
C1 C 0.1719(4) 0.95073(12) 0.2496(5)
C2 C 0.4397(4) 0.99371(12) 0.4858(4)
C3 C 0.2952(4) 0.99823(13) 0.3173(4)
C4 C 0.1656(3) 0.80594(12) 0.6359(4)
C5 C 0.2392(4) 0.76771(13) 0.8179(4)
C6 C 0.3587(3) 0.69445(12) 1.1836(4)
C7 C 0.2858(3) 0.79054(13) 0.9915(4)
C8 C 0.3500(3) 0.75698(12) 1.1748(4)
O4 O 0.1440(3) 0.85974(11) 0.6426(4)
C9 C 0.4171(3) 0.66593(14) 1.3613(5)
C10 C 0.4029(3) 0.78725(12) 1.3511(4)
C11 C 0.4595(3) 0.75543(12) 1.5230(4)
N1 N 0.4675(3) 0.69582(11) 1.5303(4)
N2 N 0.8359(3) 1.11188(11) 0.7093(4)
C12 C 0.8490(4) 1.06062(14) 0.8030(5)
C13 C 0.7212(4) 1.02282(13) 0.7354(5)
C14 C 0.5711(3) 1.03680(12) 0.5625(4)
C15 C 0.6882(3) 1.12651(11) 0.5448(4)
C16 C 0.5557(3) 1.09131(12) 0.4694(4)
H1 H 0.284(5) 0.831(2) 1.002(6)
H2 H 0.334(4) 0.6714(19) 1.081(6)
H3 H 0.399(4) 0.8284(19) 1.351(6)
H4 H 0.433(4) 0.6287(17) 1.387(5)
H5 H 0.676(4) 1.1605(13) 0.483(5)
H6 H 0.468(4) 0.9595(18) 0.578(6)
H7 H 0.240(4) 0.7255(18) 0.799(5)
H8 H 0.458(5) 1.1020(18) 0.351(6)
H9 H 0.963(5) 1.0511(18) 0.921(6)
H10 H 0.745(4) 0.9859(18) 0.820(5)
H11 H 0.272(6) 1.029(2) 0.258(7)
H12 H 0.485(4) 0.7769(18) 1.631(6)
N1C N -0.0325(3) 0.80418(11) 0.0303(4)
N2A N -0.1641(3) 0.88812(11) 0.2093(4)
Zn1C Zn 0.54406(4) 0.650750(10) 1.78951(5)
Zn1A Zn 1.04406(4) 1.150750(10) 0.78951(5)
loop_
_geom_bond_atom_site_label_1
_geom_bond_atom_site_label_2
_geom_bond_site_symmetry_1
_geom_bond_site_symmetry_2
Zn1 O1 1_555 1_555
O1 C1 1_555 1_555
O2 Zn1 1_555 1_555
O3 C1 1_555 1_555
C1 C3 1_555 1_555
C2 C3 1_555 1_555
C3 H11 1_555 1_555
C4 O2 1_555 1_555
C5 C4 1_555 1_555
C6 C8 1_555 1_555
C7 C5 1_555 1_555
C8 C7 1_555 1_555
O4 C4 1_555 1_555
C9 C6 1_555 1_555
C10 C8 1_555 1_555
C11 C10 1_555 1_555
N1 C9 1_555 1_555
N2 C12 1_555 1_555
C12 C13 1_555 1_555
C13 C14 1_555 1_555
C14 C2 1_555 1_555
C15 N2 1_555 1_555
C16 C14 1_555 1_555
H1 C7 1_555 1_555
H2 C6 1_555 1_555
H3 C10 1_555 1_555
H4 C9 1_555 1_555
H5 C15 1_555 1_555
H6 C2 1_555 1_555
H7 C5 1_555 1_555
H8 C16 1_555 1_555
H9 C12 1_555 1_555
H10 C13 1_555 1_555
H12 C11 1_555 1_555
N1C Zn1 1_555 1_555
N2A Zn1 1_555 1_555
Zn1C N1 1_555 1_555
Zn1A N2 1_555 1_555
C11 N1 1_555 1_555
C15 C16 1_555 1_555

#END
