
#######################################################################
#
#                 Cambridge Crystallographic Data Centre
#                                CCDC 
#
#######################################################################
#
# If this CIF has been generated from an entry in the Cambridge 
# Structural Database, then it will include bibliographic, chemical, 
# crystal, experimental, refinement or atomic coordinate data resulting 
# from the CCDC's data processing and validation procedures.
#
#######################################################################

data_ECIZEV
_symmetry_cell_setting           monoclinic
_symmetry_space_group_name_H-M   'P 21/m'
_symmetry_Int_Tables_number      11
_space_group_name_Hall           '-P 2yb'
loop_
_symmetry_equiv_pos_site_id
_symmetry_equiv_pos_as_xyz
1 x,y,z
2 x,1/2-y,z
3 -x,-y,-z
4 -x,1/2+y,-z
_cell_length_a                   11.802(1)
_cell_length_b                   28.303(2)
_cell_length_c                   18.820(2)
_cell_angle_alpha                90
_cell_angle_beta                 95.673(2)
_cell_angle_gamma                90
_cell_volume                     6255.69
loop_
_atom_site_label
_atom_site_type_symbol
_atom_site_fract_x
_atom_site_fract_y
_atom_site_fract_z
Rh1 Rh 0.98969(8) 0.36406(3) 0.20573(4)
Rh2 Rh 0.93553(8) 0.36136(3) 0.07758(4)
N1 N 0.8847(8) 0.4199(3) 0.2109(5)
N2 N 0.8140(8) 0.4091(3) 0.0928(5)
N3 N 1.1218(8) 0.4065(3) 0.1879(5)
N4 N 1.0527(8) 0.4128(3) 0.0669(5)
N5 N 1.0194(8) 0.3619(4) 0.3231(5)
N6 N 0.8981(9) 0.3523(3) 0.9591(5)
O1 O 0.8457(9) 0.5152(4) 0.4683(5)
O2 O 0.5001(9) 0.4661(4) -0.1341(6)
O3 O 1.4682(9) 0.4474(5) 0.4045(6)
O4 O 1.1571(9) 0.4485(3) -0.2104(5)
O5 O 0.8601(7) 0.3152(3) 0.2163(4)
O6 O 0.8269(7) 0.3060(3) 0.0956(4)
O7 O 1.0943(7) 0.3062(3) 0.1908(4)
O8 O 1.0628(7) 0.3118(3) 0.0719(4)
C1 C 0.8119(10) 0.4310(4) 0.1547(6)
H1 H 0.7579 0.4550 0.1591
C2 C 1.1291(10) 0.4216(4) 0.1216(7)
H2 H 1.1930 0.4398 0.1129
C3 C 1.1086(9) 0.2928(4) 0.1291(6)
C4 C 1.1838(13) 0.2500 0.1227(9)
H3 H 1.2467 0.2500 0.1608
H4 H 1.2156 0.2500 0.0765
C5 C 0.7460(15) 0.2500 0.1711(10)
H5 H 0.6788 0.2500 0.1360
H6 H 0.7197 0.2500 0.2189
C6 C 0.8166(10) 0.2948(4) 0.1615(7)
C7 C 0.8679(10) 0.4438(4) 0.2764(6)
C8 C 0.9602(12) 0.4679(4) 0.3117(7)
H7 H 1.0302 0.4682 0.2918
C9 C 0.9508(12) 0.4914(5) 0.3758(7)
H8 H 1.0135 0.5074 0.3993
C10 C 0.8449(11) 0.4906(5) 0.4048(6)
C11 C 0.7558(11) 0.4677(4) 0.3703(7)
H9 H 0.6853 0.4672 0.3895
C12 C 0.7685(10) 0.4445(4) 0.3057(7)
H10 H 0.7054 0.4289 0.2821
C13 C 0.7455(16) 0.5103(6) 0.5052(9)
H11 H 0.7542 0.5288 0.5488
H12 H 0.7350 0.4773 0.5168
H13 H 0.6798 0.5215 0.4749
C14 C 0.7332(9) 0.4262(4) 0.0349(6)
C15 C 0.6626(11) 0.3924(5) -0.0032(7)
H14 H 0.6688 0.3602 0.0091
C16 C 0.5847(13) 0.4069(6) -0.0585(8)
H15 H 0.5371 0.3848 -0.0839
C17 C 0.5777(10) 0.4557(5) -0.0764(7)
C18 C 0.6444(10) 0.4870(5) -0.0379(7)
H16 H 0.6375 0.5193 -0.0489
C19 C 0.7228(10) 0.4726(4) 0.0176(6)
H17 H 0.7690 0.4951 0.0433
C20 C 0.4870(13) 0.5150(7) -0.1522(9)
H18 H 0.4311 0.5183 -0.1933
H19 H 0.5594 0.5276 -0.1635
H20 H 0.4616 0.5321 -0.1121
C21 C 1.2110(10) 0.4170(4) 0.2417(7)
C22 C 1.2599(12) 0.3812(5) 0.2852(8)
H21 H 1.2356 0.3499 0.2771
C23 C 1.3423(12) 0.3905(6) 0.3393(8)
H22 H 1.3698 0.3658 0.3695
C24 C 1.3854(12) 0.4345(6) 0.3507(8)
C25 C 1.3434(12) 0.4707(6) 0.3086(8)
H23 H 1.3725 0.5014 0.3163
C26 C 1.2550(11) 0.4620(5) 0.2528(7)
H24 H 1.2264 0.4870 0.2235
C27 C 1.5096(19) 0.4096(10) 0.4565(11)
H25 H 1.5672 0.4226 0.4915
H26 H 1.5421 0.3839 0.4311
H27 H 1.4463 0.3978 0.4805
C28 C 1.0867(10) 0.4229(4) -0.0026(6)
C29 C 1.0152(10) 0.4523(4) -0.0487(6)
H28 H 0.9498 0.4663 -0.0332
C30 C 1.0450(11) 0.4598(4) -0.1179(6)
H29 H 0.9994 0.4796 -0.1491
C31 C 1.1403(12) 0.4388(4) -0.1412(6)
C32 C 1.2088(11) 0.4097(4) -0.0957(6)
H30 H 1.2730 0.3947 -0.1113
C33 C 1.1799(10) 0.4031(5) -0.0258(6)
H31 H 1.2272 0.3843 0.0058
C34 C 1.2575(13) 0.4289(6) -0.2353(7)
H32 H 1.2614 0.4378 -0.2847
H33 H 1.2551 0.3947 -0.2315
H34 H 1.3241 0.4407 -0.2065
C35 C 1.0057(10) 0.3639(4) 0.3807(7)
C36 C 0.9923(11) 0.3684(4) 0.4560(6)
C37 C 1.0882(13) 0.3751(4) 0.5047(7)
C38 C 1.0736(13) 0.3757(5) 0.5777(7)
C39 C 0.9664(12) 0.3713(4) 0.6044(6)
C40 C 0.8752(12) 0.3674(5) 0.5522(7)
C41 C 0.8857(11) 0.3645(5) 0.4804(7)
C42 C 0.9535(10) 0.3688(4) 0.6809(7)
C43 C 1.0125(13) 0.3357(5) 0.7241(7)
C44 C 0.9968(14) 0.3310(5) 0.7960(7)
C45 C 0.9191(11) 0.3582(4) 0.8253(6)
C46 C 0.8613(11) 0.3927(4) 0.7840(6)
C47 C 0.8776(12) 0.3979(4) 0.7119(7)
C48 C 0.9042(11) 0.3551(4) 0.9001(6)
F1 F 1.1905(7) 0.3767(3) 0.4840(4)
F2 F 1.1677(7) 0.3811(3) 0.6237(4)
F3 F 0.7692(7) 0.3623(3) 0.5736(4)
F4 F 0.7949(6) 0.3587(3) 0.4346(4)
F5 F 1.0838(9) 0.3058(3) 0.6961(4)
F6 F 1.0557(9) 0.2994(3) 0.8344(4)
F7 F 0.7868(7) 0.4218(3) 0.8117(4)
F8 F 0.8222(7) 0.4325(3) 0.6744(4)
C6A C 0.8166(10) 0.2052(4) 0.1615(7)
O5A O 0.8601(7) 0.1848(3) 0.2163(4)
O6A O 0.8269(7) 0.1940(3) 0.0956(4)
C3A C 1.1086(9) 0.2072(4) 0.1291(6)
O7A O 1.0943(7) 0.1938(3) 0.1908(4)
O8A O 1.0628(7) 0.1882(3) 0.0719(4)
Rh1A Rh 0.98969(8) 0.13594(3) 0.20573(4)
Rh2_2 Rh 0.93553(8) 0.36136(3) 1.07758(4)
N5_2 N 1.0194(8) 0.3619(4) -0.6769(5)
N6_2 N 0.8981(9) 0.3523(3) -0.0409(5)
C35_2 C 1.0057(10) 0.3639(4) -0.6193(7)
C36_2 C 0.9923(11) 0.3684(4) -0.5440(6)
C37_2 C 1.0882(13) 0.3751(4) -0.4953(7)
C38_2 C 1.0736(13) 0.3757(5) -0.4223(7)
C39_2 C 0.9664(12) 0.3713(4) -0.3956(6)
C40_2 C 0.8752(12) 0.3674(5) -0.4478(7)
C41_2 C 0.8857(11) 0.3645(5) -0.5196(7)
C42_2 C 0.9535(10) 0.3688(4) -0.3191(7)
C43_2 C 1.0125(13) 0.3357(5) -0.2759(7)
C44_2 C 0.9968(14) 0.3310(5) -0.2040(7)
C45_2 C 0.9191(11) 0.3582(4) -0.1747(6)
C46_2 C 0.8613(11) 0.3927(4) -0.2160(6)
C47_2 C 0.8776(12) 0.3979(4) -0.2881(7)
C48_2 C 0.9042(11) 0.3551(4) -0.0999(6)
F1_2 F 1.1905(7) 0.3767(3) -0.5160(4)
F2_2 F 1.1677(7) 0.3811(3) -0.3763(4)
F3_2 F 0.7692(7) 0.3623(3) -0.4264(4)
F4_2 F 0.7949(6) 0.3587(3) -0.5654(4)
F5_2 F 1.0838(9) 0.3058(3) -0.3039(4)
F6_2 F 1.0557(9) 0.2994(3) -0.1656(4)
F7_2 F 0.7868(7) 0.4218(3) -0.1883(4)
F8_2 F 0.8222(7) 0.4325(3) -0.3256(4)
N1A N 0.8847(8) 0.0801(3) 0.2109(5)
N2A N 0.8140(8) 0.0909(3) 0.0928(5)
O1A O 0.8457(9) -0.0152(4) 0.4683(5)
O2A O 0.5001(9) 0.0339(4) -0.1341(6)
C1A C 0.8119(10) 0.0690(4) 0.1547(6)
H1A H 0.7579 0.0450 0.1591
C7A C 0.8679(10) 0.0562(4) 0.2764(6)
C8A C 0.9602(12) 0.0321(4) 0.3117(7)
H7A H 1.0302 0.0318 0.2918
C9A C 0.9508(12) 0.0086(5) 0.3758(7)
H8A H 1.0135 -0.0074 0.3993
C10A C 0.8449(11) 0.0094(5) 0.4048(6)
C11A C 0.7558(11) 0.0323(4) 0.3703(7)
H9A H 0.6853 0.0328 0.3895
C12A C 0.7685(10) 0.0555(4) 0.3057(7)
H10A H 0.7054 0.0711 0.2821
C13A C 0.7455(16) -0.0103(6) 0.5052(9)
H11A H 0.7542 -0.0288 0.5488
H12A H 0.7350 0.0227 0.5168
H13A H 0.6798 -0.0215 0.4749
C14A C 0.7332(9) 0.0738(4) 0.0349(6)
C15A C 0.6626(11) 0.1076(5) -0.0032(7)
H14A H 0.6688 0.1398 0.0091
C16A C 0.5847(13) 0.0931(6) -0.0585(8)
H15A H 0.5371 0.1152 -0.0839
C17A C 0.5777(10) 0.0443(5) -0.0764(7)
C18A C 0.6444(10) 0.0130(5) -0.0379(7)
H16A H 0.6375 -0.0193 -0.0489
C19A C 0.7228(10) 0.0274(4) 0.0176(6)
H17A H 0.7690 0.0049 0.0433
C20A C 0.4870(13) -0.0150(7) -0.1522(9)
H18A H 0.4311 -0.0183 -0.1933
H19A H 0.5594 -0.0276 -0.1635
H20A H 0.4616 -0.0321 -0.1121
N3A N 1.1218(8) 0.0935(3) 0.1879(5)
N4A N 1.0527(8) 0.0872(3) 0.0669(5)
O3A O 1.4682(9) 0.0526(5) 0.4045(6)
O4A O 1.1571(9) 0.0515(3) -0.2104(5)
C2A C 1.1291(10) 0.0784(4) 0.1216(7)
H2A H 1.1930 0.0602 0.1129
C21A C 1.2110(10) 0.0830(4) 0.2417(7)
C22A C 1.2599(12) 0.1188(5) 0.2852(8)
H21A H 1.2356 0.1501 0.2771
C23A C 1.3423(12) 0.1095(6) 0.3393(8)
H22A H 1.3698 0.1342 0.3695
C24A C 1.3854(12) 0.0655(6) 0.3507(8)
C25A C 1.3434(12) 0.0293(6) 0.3086(8)
H23A H 1.3725 -0.0014 0.3163
C26A C 1.2550(11) 0.0380(5) 0.2528(7)
H24A H 1.2264 0.0130 0.2235
C27A C 1.5096(19) 0.0904(10) 0.4565(11)
H25A H 1.5672 0.0774 0.4915
H26A H 1.5421 0.1161 0.4311
H27A H 1.4463 0.1022 0.4805
C28A C 1.0867(10) 0.0771(4) -0.0026(6)
C29A C 1.0152(10) 0.0477(4) -0.0487(6)
H28A H 0.9498 0.0337 -0.0332
C30A C 1.0450(11) 0.0402(4) -0.1179(6)
H29A H 0.9994 0.0204 -0.1491
C31A C 1.1403(12) 0.0612(4) -0.1412(6)
C32A C 1.2088(11) 0.0903(4) -0.0957(6)
H30A H 1.2730 0.1053 -0.1113
C33A C 1.1799(10) 0.0969(5) -0.0258(6)
H31A H 1.2272 0.1157 0.0058
C34A C 1.2575(13) 0.0711(6) -0.2353(7)
H32A H 1.2614 0.0622 -0.2847
H33A H 1.2551 0.1053 -0.2315
H34A H 1.3241 0.0593 -0.2065
Rh2A Rh 0.93553(8) 0.13864(3) 0.07758(4)
N5A N 1.0194(8) 0.1381(4) 0.3231(5)
Rh1_2 Rh 0.98969(8) 0.36406(3) 1.20573(4)
N2_2 N 0.8140(8) 0.4091(3) 1.0928(5)
N4_2 N 1.0527(8) 0.4128(3) 1.0669(5)
O6_2 O 0.8269(7) 0.3060(3) 1.0956(4)
O8_2 O 1.0628(7) 0.3118(3) 1.0719(4)
Rh1_3 Rh 0.98969(8) 0.36406(3) -0.79427(4)
C49 C 0.752(2) 0.2500 -0.0387(15)
Cl1 Cl 0.7657(8) 0.2500 -0.1360(3)
Cl2 Cl 0.6046(7) 0.2500 -0.0272(5)
C50 C 1.707(3) 0.2500 0.604(2)
Cl3 Cl 1.8004(12) 0.2500 0.6814(8)
Cl4 Cl 1.849(3) 0.2500 0.5524(16)
C52 C 0.523(4) 0.3732(18) 0.729(3)
Cl10 Cl 0.6048(14) 0.3361(6) 0.7373(9)
Cl11 Cl 0.4997(16) 0.4043(7) 0.6537(11)
Cl5? Cl 1.771(2) 0.2500 0.5215(14)
C51? C 1.474(4) 0.3197(15) 0.194(2)
Cl6? Cl 1.5708(12) 0.3570(5) 0.1955(9)
Cl7? Cl 1.4109(17) 0.3434(8) 0.1122(12)
Cl8? Cl 1.567(3) 0.3365(12) 0.2403(19)
Cl9? Cl 1.427(2) 0.3175(10) 0.0823(15)
C53? C 1.117(8) 0.2500 0.331(5)
Cl12? Cl 1.2938(14) 0.2500 0.3272(10)
Cl13? Cl 1.1293(17) 0.2500 0.4277(11)
C54? C 1.028(4) 0.2500 0.325(4)
Cl14? Cl 1.185(2) 0.2500 0.3591(13)
Cl15? Cl 0.871(3) 0.2500 0.341(2)
Cl16? Cl 0.9357(19) 0.2500 0.3966(12)
Cl17? Cl 1.021(3) 0.2500 0.4165(17)
C55? C 1.58(3) 0.2500 0.42(2)
Cl18? Cl 1.594(3) 0.2806(15) 0.346(2)
C56? C 1.310(7) 0.2500 0.602(5)
Cl19? Cl 1.194(5) 0.2500 0.567(4)
Cl20? Cl 1.376(5) 0.281(2) 0.573(3)
C57? C 0.338(12) 0.2500 -0.162(3)
Cl21? Cl 0.353(2) 0.2990(8) -0.1569(14)
Cl22? Cl 0.312(3) 0.2822(12) -0.0762(19)
loop_
_geom_bond_atom_site_label_1
_geom_bond_atom_site_label_2
_geom_bond_site_symmetry_1
_geom_bond_site_symmetry_2
Rh1 Rh2 1_555 1_555
Rh2 N2 1_555 1_555
N1 Rh1 1_555 1_555
N2 C1 1_555 1_555
N3 Rh1 1_555 1_555
N4 Rh2 1_555 1_555
N5 Rh1 1_555 1_555
N6 C48 1_555 1_555
O1 C10 1_555 1_555
O2 C17 1_555 1_555
O3 C24 1_555 1_555
O4 C31 1_555 1_555
O5 Rh1 1_555 1_555
O6 Rh2 1_555 1_555
O7 Rh1 1_555 1_555
O8 Rh2 1_555 1_555
C1 N1 1_555 1_555
H1 C1 1_555 1_555
C2 N3 1_555 1_555
H2 C2 1_555 1_555
C3 O7 1_555 1_555
C4 C3 1_555 1_555
H3 C4 1_555 1_555
H4 C4 1_555 1_555
C5 H5 1_555 1_555
H6 C5 1_555 1_555
C6 O5 1_555 1_555
C7 N1 1_555 1_555
C8 C7 1_555 1_555
H7 C8 1_555 1_555
C9 C8 1_555 1_555
H8 C9 1_555 1_555
C10 C9 1_555 1_555
C11 C10 1_555 1_555
H9 C11 1_555 1_555
C12 C7 1_555 1_555
H10 C12 1_555 1_555
C13 O1 1_555 1_555
H11 C13 1_555 1_555
H12 C13 1_555 1_555
H13 C13 1_555 1_555
C14 N2 1_555 1_555
C15 C14 1_555 1_555
H14 C15 1_555 1_555
C16 C15 1_555 1_555
H15 C16 1_555 1_555
C17 C16 1_555 1_555
C18 C17 1_555 1_555
H16 C18 1_555 1_555
C19 C14 1_555 1_555
H17 C19 1_555 1_555
C20 O2 1_555 1_555
H18 C20 1_555 1_555
H19 C20 1_555 1_555
H20 C20 1_555 1_555
C21 N3 1_555 1_555
C22 C21 1_555 1_555
H21 C22 1_555 1_555
C23 C22 1_555 1_555
H22 C23 1_555 1_555
C24 C23 1_555 1_555
C25 C24 1_555 1_555
H23 C25 1_555 1_555
C26 C21 1_555 1_555
H24 C26 1_555 1_555
C27 O3 1_555 1_555
H25 C27 1_555 1_555
H26 C27 1_555 1_555
H27 C27 1_555 1_555
C28 N4 1_555 1_555
C29 C28 1_555 1_555
H28 C29 1_555 1_555
C30 C29 1_555 1_555
H29 C30 1_555 1_555
C31 C30 1_555 1_555
C32 C31 1_555 1_555
H30 C32 1_555 1_555
C33 C28 1_555 1_555
H31 C33 1_555 1_555
C34 O4 1_555 1_555
H32 C34 1_555 1_555
H33 C34 1_555 1_555
H34 C34 1_555 1_555
C35 N5 1_555 1_555
C36 C35 1_555 1_555
C37 C36 1_555 1_555
C38 C37 1_555 1_555
C39 C38 1_555 1_555
C40 C39 1_555 1_555
C41 C36 1_555 1_555
C42 C39 1_555 1_555
C43 C42 1_555 1_555
C44 C43 1_555 1_555
C45 C44 1_555 1_555
C46 C45 1_555 1_555
C47 C42 1_555 1_555
C48 C45 1_555 1_555
F1 C37 1_555 1_555
F2 C38 1_555 1_555
F3 C40 1_555 1_555
F4 C41 1_555 1_555
F5 C43 1_555 1_555
F6 C44 1_555 1_555
F7 C46 1_555 1_555
F8 C47 1_555 1_555
C49 Cl1 1_555 1_555
Cl2 C49 1_555 1_555
C50 Cl3 1_555 1_555
Cl4 C50 1_555 1_555
C52 Cl10 1_555 1_555
Cl11 C52 1_555 1_555
C6A C5 1_555 1_555
O5A C6A 1_555 1_555
O6A C6A 1_555 1_555
C3A C4 1_555 1_555
O7A C3A 1_555 1_555
O8A C3A 1_555 1_555
Rh1A O5A 1_555 1_555
Rh2_2 N6 1_555 1_555
N5_2 C35_2 1_555 1_555
N6_2 Rh2 1_555 1_555
C35_2 C36_2 1_555 1_555
C36_2 C37_2 1_555 1_555
C37_2 C38_2 1_555 1_555
C38_2 C39_2 1_555 1_555
C39_2 C40_2 1_555 1_555
C40_2 C41_2 1_555 1_555
C41_2 C36_2 1_555 1_555
C42_2 C39_2 1_555 1_555
C43_2 C42_2 1_555 1_555
C44_2 C43_2 1_555 1_555
C45_2 C44_2 1_555 1_555
C46_2 C45_2 1_555 1_555
C47_2 C42_2 1_555 1_555
C48_2 N6_2 1_555 1_555
F1_2 C37_2 1_555 1_555
F2_2 C38_2 1_555 1_555
F3_2 C40_2 1_555 1_555
F4_2 C41_2 1_555 1_555
F5_2 C43_2 1_555 1_555
F6_2 C44_2 1_555 1_555
F7_2 C46_2 1_555 1_555
F8_2 C47_2 1_555 1_555
N1A Rh1A 1_555 1_555
N2A C1A 1_555 1_555
O1A C10A 1_555 1_555
O2A C17A 1_555 1_555
C1A N1A 1_555 1_555
H1A C1A 1_555 1_555
C7A N1A 1_555 1_555
C8A C7A 1_555 1_555
H7A C8A 1_555 1_555
C9A C8A 1_555 1_555
H8A C9A 1_555 1_555
C10A C9A 1_555 1_555
C11A C10A 1_555 1_555
H9A C11A 1_555 1_555
C12A C7A 1_555 1_555
H10A C12A 1_555 1_555
C13A O1A 1_555 1_555
H11A C13A 1_555 1_555
H12A C13A 1_555 1_555
H13A C13A 1_555 1_555
C14A N2A 1_555 1_555
C15A C14A 1_555 1_555
H14A C15A 1_555 1_555
C16A C15A 1_555 1_555
H15A C16A 1_555 1_555
C17A C16A 1_555 1_555
C18A C17A 1_555 1_555
H16A C18A 1_555 1_555
C19A C14A 1_555 1_555
H17A C19A 1_555 1_555
C20A O2A 1_555 1_555
H18A C20A 1_555 1_555
H19A C20A 1_555 1_555
H20A C20A 1_555 1_555
N3A Rh1A 1_555 1_555
N4A C2A 1_555 1_555
O3A C24A 1_555 1_555
O4A C31A 1_555 1_555
C2A N3A 1_555 1_555
H2A C2A 1_555 1_555
C21A N3A 1_555 1_555
C22A C21A 1_555 1_555
H21A C22A 1_555 1_555
C23A C22A 1_555 1_555
H22A C23A 1_555 1_555
C24A C23A 1_555 1_555
C25A C24A 1_555 1_555
H23A C25A 1_555 1_555
C26A C21A 1_555 1_555
H24A C26A 1_555 1_555
C27A O3A 1_555 1_555
H25A C27A 1_555 1_555
H26A C27A 1_555 1_555
H27A C27A 1_555 1_555
C28A N4A 1_555 1_555
C29A C28A 1_555 1_555
H28A C29A 1_555 1_555
C30A C29A 1_555 1_555
H29A C30A 1_555 1_555
C31A C30A 1_555 1_555
C32A C31A 1_555 1_555
H30A C32A 1_555 1_555
C33A C28A 1_555 1_555
H31A C33A 1_555 1_555
C34A O4A 1_555 1_555
H32A C34A 1_555 1_555
H33A C34A 1_555 1_555
H34A C34A 1_555 1_555
Rh2A O6A 1_555 1_555
N5A Rh1A 1_555 1_555
Rh1_2 Rh2_2 1_555 1_555
N2_2 Rh2_2 1_555 1_555
N4_2 Rh2_2 1_555 1_555
O6_2 Rh2_2 1_555 1_555
O8_2 Rh2_2 1_555 1_555
Rh1_3 N5_2 1_555 1_555
N4 C2 1_555 1_555
O6 C6 1_555 1_555
O8 C3 1_555 1_555
C5 C6 1_555 1_555
C11 C12 1_555 1_555
C18 C19 1_555 1_555
C25 C26 1_555 1_555
C32 C33 1_555 1_555
C40 C41 1_555 1_555
C46 C47 1_555 1_555
O7A Rh1A 1_555 1_555
O8A Rh2A 1_555 1_555
Rh1A Rh2A 1_555 1_555
C45_2 C48_2 1_555 1_555
C46_2 C47_2 1_555 1_555
N2A Rh2A 1_555 1_555
C11A C12A 1_555 1_555
C18A C19A 1_555 1_555
N4A Rh2A 1_555 1_555
C25A C26A 1_555 1_555
C32A C33A 1_555 1_555

#END
