
#######################################################################
#
#                 Cambridge Crystallographic Data Centre
#                                CCDC 
#
#######################################################################
#
# If this CIF has been generated from an entry in the Cambridge 
# Structural Database, then it will include bibliographic, chemical, 
# crystal, experimental, refinement or atomic coordinate data resulting 
# from the CCDC's data processing and validation procedures.
#
#######################################################################

data_ECODUW
_symmetry_cell_setting           triclinic
_symmetry_space_group_name_H-M   'P -1'
_symmetry_Int_Tables_number      2
_space_group_name_Hall           '-P 1'
loop_
_symmetry_equiv_pos_site_id
_symmetry_equiv_pos_as_xyz
1 x,y,z
2 -x,-y,-z
_cell_length_a                   8.0931(16)
_cell_length_b                   13.567(3)
_cell_length_c                   6.2185(12)
_cell_angle_alpha                90.55(3)
_cell_angle_beta                 96.97(3)
_cell_angle_gamma                78.50(3)
_cell_volume                     664.059
loop_
_atom_site_label
_atom_site_type_symbol
_atom_site_fract_x
_atom_site_fract_y
_atom_site_fract_z
Cu1 Cu 0.98371(15) 0.23555(9) -1.00505(17)
Cu2 Cu 1.0000 0.5000 -0.5000
Cu3 Cu 1.5000 0.5000 0.0000
P1 P 1.0170(3) 0.27561(18) -0.4858(4)
P2 P 1.2312(3) 0.36953(18) -0.1573(4)
N1 N 0.8098(11) 0.1491(7) -1.0056(12)
N2 N 1.2545(10) 0.3717(6) -0.5772(12)
C1 C 0.687(2) 0.1711(14) -0.884(2)
H1 H 0.6835 0.2263 -0.7936
C2 C 0.562(2) 0.1152(15) -0.884(3)
H2 H 0.4724 0.1368 -0.8036
C3 C 0.5665(15) 0.0292(9) -0.9998(15)
C4 C 0.6977(16) 0.0078(9) -1.1298(19)
H3 H 0.7067 -0.0477 -1.2196
C5 C 0.8104(16) 0.0681(9) -1.1239(19)
H4 H 0.8969 0.0513 -1.2113
C6 C 1.2306(13) 0.3019(7) -0.4137(15)
C7 C 1.3684(16) 0.2078(10) -0.398(2)
H5 H 1.3485 0.1633 -0.2891
H6 H 1.4770 0.2257 -0.3594
H7 H 1.3670 0.1748 -0.5352
O1 O 0.7850(9) 0.3956(6) -1.0657(12)
O2 O 1.0205(10) 0.2208(6) -0.6991(11)
O3 O 0.9839(10) 0.2102(5) -0.3073(11)
O4 O 0.8981(9) 0.3785(5) -0.5011(12)
O5 O 1.1771(9) 0.3038(5) 0.0089(9)
O6 O 1.1039(8) 0.4678(5) -0.2090(10)
O7 O 1.4076(9) 0.3854(5) -0.0825(11)
O8 O 1.5613(10) 0.4405(7) 0.3035(12)
Cu1A Cu 1.01629(15) 0.76445(9) 0.00505(17)
Cu1_2 Cu 0.98371(15) 0.23555(9) -0.00505(17)
Cu1A_2 Cu 0.01629(15) -0.23555(9) -0.99495(17)
Cu1A_3 Cu 1.01629(15) 0.76445(9) -0.99495(17)
Cu1_3 Cu 1.98371(15) 0.23555(9) -0.00505(17)
Cu3_2 Cu 0.5000 0.5000 -1.0000
P1A P 0.9830(3) 0.72439(18) -0.5142(4)
P2A P 0.7688(3) 0.63047(18) -0.8427(4)
N1A N 0.1902(11) -0.1491(7) -0.9944(12)
N1A_2 N 1.1902(11) 0.8509(7) 0.0056(12)
N2A N 0.7455(10) 0.6283(6) -0.4228(12)
C1A C 0.313(2) -0.1711(14) -1.116(2)
H1A H 0.3165 -0.2263 -1.2064
C2A C 0.438(2) -0.1152(15) -1.116(3)
H2A H 0.5276 -0.1368 -1.1964
C3A C 0.4335(15) -0.0292(9) -1.0002(15)
C4A C 0.3023(16) -0.0078(9) -0.8702(19)
H3A H 0.2933 0.0477 -0.7804
C5A C 0.1896(16) -0.0681(9) -0.8761(19)
H4A H 0.1031 -0.0513 -0.7887
C6A C 0.7694(13) 0.6981(7) -0.5863(15)
C7A C 0.6316(16) 0.7922(10) -0.602(2)
H5A H 0.6515 0.8367 -0.7109
H6A H 0.5230 0.7743 -0.6406
H7A H 0.6330 0.8252 -0.4648
O1_2 O 1.7850(9) 0.3956(6) -0.0657(12)
O1A O 1.2150(9) 0.6044(6) 0.0657(12)
O2A O 0.9795(10) 0.7792(6) -0.3009(11)
O3A O 1.0161(10) 0.7898(5) -0.6927(11)
O3_2 O 0.9839(10) 0.2102(5) -1.3073(11)
O3A_2 O 1.0161(10) 0.7898(5) 0.3073(11)
O4A O 1.1019(9) 0.6215(5) -0.4989(12)
O5A O 0.8229(9) 0.6962(5) -1.0089(9)
O5_2 O 1.1771(9) 0.3038(5) -0.9911(9)
O5A_2 O 0.8229(9) 0.6962(5) -0.0089(9)
O6A O 0.8961(8) 0.5322(5) -0.7910(10)
O7A O 0.5924(9) 0.6146(5) -0.9175(11)
O7A_2 O 1.5924(9) 0.6146(5) 0.0825(11)
O8A O 1.4387(10) 0.5595(7) -0.3035(12)
loop_
_geom_bond_atom_site_label_1
_geom_bond_atom_site_label_2
_geom_bond_site_symmetry_1
_geom_bond_site_symmetry_2
Cu1 N1 1_555 1_555
Cu2 N2 1_555 1_555
Cu3 O7 1_555 1_555
P1 C6 1_555 1_555
P2 C6 1_555 1_555
N1 C1 1_555 1_555
N2 C6 1_555 1_555
C1 H1 1_555 1_555
C2 C1 1_555 1_555
H2 C2 1_555 1_555
C3 C2 1_555 1_555
C4 C3 1_555 1_555
H3 C4 1_555 1_555
C5 N1 1_555 1_555
H4 C5 1_555 1_555
C6 C7 1_555 1_555
C7 H5 1_555 1_555
H6 C7 1_555 1_555
H7 C7 1_555 1_555
O1 Cu1 1_555 1_555
O2 Cu1 1_555 1_555
O3 P1 1_555 1_555
O4 Cu2 1_555 1_555
O5 P2 1_555 1_555
O6 Cu2 1_555 1_555
O7 P2 1_555 1_555
O8 Cu3 1_555 1_555
Cu1A N1A_2 1_555 1_555
Cu1_2 O3 1_555 1_555
Cu1A_2 N1A 1_555 1_555
Cu1A_3 O3A 1_555 1_555
Cu1_3 O1_2 1_555 1_555
Cu3_2 O1 1_555 1_555
P1A C6A 1_555 1_555
P2A C6A 1_555 1_555
N1A C1A 1_555 1_555
N2A Cu2 1_555 1_555
C1A H1A 1_555 1_555
C2A C1A 1_555 1_555
H2A C2A 1_555 1_555
C3A C3 1_555 1_555
C4A C3A 1_555 1_555
H3A C4A 1_555 1_555
C5A N1A 1_555 1_555
H4A C5A 1_555 1_555
C6A N2A 1_555 1_555
C7A C6A 1_555 1_555
H5A C7A 1_555 1_555
H6A C7A 1_555 1_555
H7A C7A 1_555 1_555
O1_2 Cu3 1_555 1_555
O1A Cu3 1_555 1_555
O2A Cu1A 1_555 1_555
O3A P1A 1_555 1_555
O3_2 Cu1 1_555 1_555
O3A_2 Cu1A 1_555 1_555
O4A Cu2 1_555 1_555
O5A Cu1A_3 1_555 1_555
O5_2 Cu1 1_555 1_555
O5A_2 Cu1A 1_555 1_555
O6A Cu2 1_555 1_555
O7A Cu3_2 1_555 1_555
O7A_2 Cu3 1_555 1_555
O8A Cu3 1_555 1_555
P1 O2 1_555 1_555
P1 O4 1_555 1_555
P2 O6 1_555 1_555
C4 C5 1_555 1_555
O5 Cu1_2 1_555 1_555
Cu1A O1A 1_555 1_555
P1A O2A 1_555 1_555
P1A O4A 1_555 1_555
P2A O5A 1_555 1_555
P2A O6A 1_555 1_555
P2A O7A 1_555 1_555
C2A C3A 1_555 1_555
C4A C5A 1_555 1_555

#END
