
#######################################################################
#
#                 Cambridge Crystallographic Data Centre
#                                CCDC 
#
#######################################################################
#
# If this CIF has been generated from an entry in the Cambridge 
# Structural Database, then it will include bibliographic, chemical, 
# crystal, experimental, refinement or atomic coordinate data resulting 
# from the CCDC's data processing and validation procedures.
#
#######################################################################

data_ECODEG
_symmetry_cell_setting           orthorhombic
_symmetry_space_group_name_H-M   'P b c a'
_symmetry_Int_Tables_number      61
_space_group_name_Hall           '-P 2ac 2ab'
loop_
_symmetry_equiv_pos_site_id
_symmetry_equiv_pos_as_xyz
1 x,y,z
2 1/2-x,-y,1/2+z
3 -x,1/2+y,1/2-z
4 1/2+x,1/2-y,-z
5 -x,-y,-z
6 1/2+x,y,1/2-z
7 x,1/2-y,1/2+z
8 1/2-x,1/2+y,z
_cell_length_a                   12.181(9)
_cell_length_b                   15.354(12)
_cell_length_c                   18.785(15)
_cell_angle_alpha                90
_cell_angle_beta                 90
_cell_angle_gamma                90
_cell_volume                     3513.3
loop_
_atom_site_label
_atom_site_type_symbol
_atom_site_fract_x
_atom_site_fract_y
_atom_site_fract_z
Cd1 Cd 0.30698(5) 0.21586(4) 0.81597(3)
N1 N 0.3866(5) 0.3459(4) 0.7781(3)
N2 N 0.4094(6) 0.2200(5) 0.9240(4)
O1 O 0.1911(5) 0.2021(3) 0.7190(3)
O2 O 0.5264(5) 0.6511(4) 0.7426(3)
O3 O 0.6542(5) 0.5683(4) 0.6947(3)
O4 O 0.6496(5) 0.3288(4) 1.1174(3)
O5 O 0.6880(5) 0.1886(4) 1.1167(3)
C3 C 0.4656(7) 0.3464(6) 0.7296(4)
H3 H 0.4823 0.2945 0.7064
C4 C 0.5246(7) 0.4203(5) 0.7118(5)
H4 H 0.5794 0.4179 0.6773
C5 C 0.5009(7) 0.4970(5) 0.7457(4)
C6 C 0.4168(7) 0.4987(6) 0.7948(4)
H5 H 0.3973 0.5503 0.8174
C7 C 0.3625(7) 0.4225(5) 0.8095(4)
H6 H 0.3061 0.4237 0.8428
C8 C 0.5646(7) 0.5782(5) 0.7272(4)
C9 C 0.4885(8) 0.1626(6) 0.9361(5)
H7 H 0.4967 0.1161 0.9049
C10 C 0.5588(8) 0.1691(6) 0.9931(5)
H8 H 0.6123 0.1268 1.0003
C11 C 0.5503(7) 0.2376(5) 1.0392(5)
C12 C 0.4656(7) 0.2962(6) 1.0273(5)
H9 H 0.4555 0.3433 1.0578
C13 C 0.3970(7) 0.2844(6) 0.9704(5)
H10 H 0.3391 0.3231 0.9640
C14 C 0.6338(7) 0.2524(6) 1.0963(4)
Cd1B Cd 0.69302(5) 0.71586(4) 0.68403(3)
Cd1C Cd 0.80698(5) 0.28414(4) 1.18403(3)
O2B O 0.4736(5) 0.1511(4) 0.7574(3)
O3B O 0.3458(5) 0.0683(4) 0.8053(3)
O4C O 0.1496(5) 0.1712(4) 0.8826(3)
O5C O 0.1880(5) 0.3114(4) 0.8833(3)
O6 O 0.6961(11) 0.3613(7) 0.8853(6)
O7 O 0.7496(6) 0.5913(4) 0.8863(3)
C1 C 0.7345(8) 0.5150(7) 0.8691(5)
H1 H 0.7381 0.5019 0.8208
C2 C 0.7139(7) 0.4513(5) 0.9121(4)
H2 H 0.7102 0.4620 0.9608
loop_
_geom_bond_atom_site_label_1
_geom_bond_atom_site_label_2
_geom_bond_site_symmetry_1
_geom_bond_site_symmetry_2
Cd1 N1 1_555 1_555
N1 C3 1_555 1_555
N2 Cd1 1_555 1_555
O1 Cd1 1_555 1_555
O2 C8 1_555 1_555
O3 C8 1_555 1_555
O4 C14 1_555 1_555
O5 C14 1_555 1_555
O6 C2 1_555 1_555
O7 C1 1_555 1_555
C1 H1 1_555 1_555
C2 C1 1_555 1_555
H2 C2 1_555 1_555
C3 H3 1_555 1_555
C4 C3 1_555 1_555
H4 C4 1_555 1_555
C5 C4 1_555 1_555
C6 C5 1_555 1_555
H5 C6 1_555 1_555
C7 N1 1_555 1_555
H6 C7 1_555 1_555
C8 C5 1_555 1_555
C9 N2 1_555 1_555
H7 C9 1_555 1_555
C10 C9 1_555 1_555
H8 C10 1_555 1_555
C11 C10 1_555 1_555
C12 C11 1_555 1_555
H9 C12 1_555 1_555
C13 N2 1_555 1_555
H10 C13 1_555 1_555
C14 C11 1_555 1_555
Cd1B O2 1_555 1_555
Cd1C O4 1_555 1_555
O2B Cd1 1_555 1_555
O3B Cd1 1_555 1_555
O4C Cd1 1_555 1_555
O5C Cd1 1_555 1_555
O3 Cd1B 1_555 1_555
O5 Cd1C 1_555 1_555
C6 C7 1_555 1_555
C12 C13 1_555 1_555

#END
