
#######################################################################
#
#                 Cambridge Crystallographic Data Centre
#                                CCDC 
#
#######################################################################
#
# If this CIF has been generated from an entry in the Cambridge 
# Structural Database, then it will include bibliographic, chemical, 
# crystal, experimental, refinement or atomic coordinate data resulting 
# from the CCDC's data processing and validation procedures.
#
#######################################################################

data_ECOFUZ
_symmetry_cell_setting           orthorhombic
_symmetry_space_group_name_H-M   'P c c n'
_symmetry_Int_Tables_number      56
_space_group_name_Hall           '-P 2ab 2ac'
loop_
_symmetry_equiv_pos_site_id
_symmetry_equiv_pos_as_xyz
1 x,y,z
2 1/2-x,1/2-y,z
3 -x,1/2+y,1/2-z
4 1/2+x,-y,1/2-z
5 -x,-y,-z
6 1/2+x,1/2+y,-z
7 x,1/2-y,1/2+z
8 1/2-x,y,1/2+z
_cell_length_a                   16.1357(7)
_cell_length_b                   32.4593(14)
_cell_length_c                   15.6512(7)
_cell_angle_alpha                90
_cell_angle_beta                 90
_cell_angle_gamma                90
_cell_volume                     8197.37
loop_
_atom_site_label
_atom_site_type_symbol
_atom_site_fract_x
_atom_site_fract_y
_atom_site_fract_z
Zn1 Zn 0.05433(3) 0.626653(15) 0.33134(4)
N1 N -0.0195(3) 0.67075(12) 0.2756(2)
N2 N -0.0006(3) 0.58163(12) 0.2591(2)
N3 N 0.1251(2) 0.58246(11) 0.3909(2)
N4 N 0.1074(2) 0.67139(11) 0.4061(2)
C1 C -0.0194(3) 0.71248(14) 0.2927(3)
C2 C -0.0843(4) 0.73219(17) 0.2427(4)
H1 H -0.0974 0.7607 0.2420
C3 C -0.1221(4) 0.70232(17) 0.1978(4)
H2 H -0.1672 0.7058 0.1595
C4 C -0.0815(3) 0.66408(16) 0.2185(3)
C5 C -0.1009(3) 0.62498(15) 0.1822(3)
C6 C -0.0614(3) 0.58686(15) 0.2005(3)
C7 C -0.0792(4) 0.54842(16) 0.1593(4)
H3 H -0.1198 0.5438 0.1165
C8 C -0.0276(4) 0.52005(17) 0.1924(4)
H4 H -0.0245 0.4918 0.1769
C9 C 0.0219(3) 0.54058(14) 0.2557(3)
C10 C 0.0823(3) 0.52210(14) 0.3056(3)
C11 C 0.1297(3) 0.54185(14) 0.3692(3)
C12 C 0.1920(3) 0.52192(15) 0.4214(4)
H5 H 0.2081 0.4938 0.4183
C13 C 0.2228(4) 0.55019(14) 0.4748(3)
H6 H 0.2644 0.5460 0.5169
C14 C 0.1801(3) 0.58867(14) 0.4557(3)
C15 C 0.1955(3) 0.62698(14) 0.4953(3)
C16 C 0.1622(3) 0.66496(15) 0.4714(3)
C17 C 0.1791(4) 0.70415(15) 0.5136(4)
H7 H 0.2148 0.7083 0.5611
C18 C 0.1351(4) 0.73326(15) 0.4732(4)
H8 H 0.1339 0.7618 0.4863
C19 C 0.0896(3) 0.71275(14) 0.4056(3)
C20 C 0.0321(3) 0.73261(15) 0.3515(3)
C21 C -0.1669(4) 0.62424(16) 0.1213(4)
C22 C -0.2227(3) 0.62247(17) 0.0713(4)
C23 C -0.2949(4) 0.62146(16) 0.0190(4)
C24 C -0.3426(4) 0.65639(19) 0.0120(5)
H9 H -0.3239 0.6819 0.0348
C25 C -0.4193(5) 0.65358(17) -0.0295(5)
H10 H -0.4553 0.6768 -0.0283
N5 N -0.4441(3) 0.61981(13) -0.0708(3)
C26 C -0.3924(3) 0.58665(15) -0.0670(3)
H11 H -0.4069 0.5625 -0.0978
C27 C -0.3221(4) 0.58672(17) -0.0216(4)
H12 H -0.2905 0.5621 -0.0175
C28 C 0.0997(4) 0.47637(14) 0.2923(3)
C29 C 0.1649(4) 0.46424(16) 0.2402(4)
C30 C 0.2232(5) 0.4946(2) 0.1980(5)
H13 H 0.1911 0.5141 0.1634
H14 H 0.2622 0.4797 0.1613
H15 H 0.2539 0.5097 0.2420
C31 C 0.1787(5) 0.42198(18) 0.2300(4)
H16 H 0.2241 0.4133 0.1960
C32 C 0.1299(6) 0.39296(18) 0.2666(5)
C33 C 0.1504(6) 0.34722(18) 0.2532(6)
H17 H 0.1712 0.3431 0.1951
H18 H 0.1002 0.3307 0.2617
H19 H 0.1928 0.3387 0.2944
C34 C 0.0644(5) 0.40577(19) 0.3180(5)
H20 H 0.0298 0.3857 0.3442
C35 C 0.0486(4) 0.44759(17) 0.3316(4)
C36 C -0.0224(5) 0.4604(2) 0.3896(5)
H21 H -0.0680 0.4713 0.3549
H22 H -0.0032 0.4818 0.4292
H23 H -0.0418 0.4365 0.4221
C37 C 0.2528(3) 0.62717(14) 0.5713(3)
C38 C 0.2285(4) 0.60972(16) 0.6487(3)
H24 H 0.1768 0.5959 0.6532
C39 C 0.2790(3) 0.61265(15) 0.7171(3)
H25 H 0.2611 0.6002 0.7688
N6 N 0.3515(3) 0.63169(13) 0.7173(3)
C40 C 0.3758(4) 0.64846(18) 0.6429(4)
H26 H 0.4276 0.6623 0.6408
C41 C 0.3285(3) 0.64644(17) 0.5686(4)
H27 H 0.3482 0.6582 0.5170
C42 C 0.0260(4) 0.77860(16) 0.3626(4)
C43 C 0.0797(4) 0.80397(18) 0.3203(4)
C44 C 0.1411(6) 0.7872(2) 0.2590(6)
H28 H 0.1955 0.7856 0.2865
H29 H 0.1445 0.8053 0.2090
H30 H 0.1238 0.7596 0.2408
C45 C 0.0770(5) 0.84700(19) 0.3367(5)
H31 H 0.1134 0.8649 0.3066
C46 C 0.0223(5) 0.86335(19) 0.3960(5)
C47 C 0.0230(6) 0.91000(18) 0.4125(6)
H32 H -0.0239 0.9228 0.3829
H33 H 0.0749 0.9218 0.3912
H34 H 0.0184 0.9151 0.4740
C48 C -0.0300(5) 0.8385(2) 0.4367(4)
H35 H -0.0680 0.8499 0.4766
C49 C -0.0303(4) 0.79479(17) 0.4217(4)
C50 C -0.0925(5) 0.7689(2) 0.4684(5)
H36 H -0.1224 0.7515 0.4275
H37 H -0.1319 0.7868 0.4982
H38 H -0.0638 0.7514 0.5100
Zn1G Zn -0.55433(3) 0.626653(15) -0.16866(4)
Zn1G_2 Zn 0.44567(3) 0.626653(15) 0.83134(4)
N5G N -0.0559(3) 0.61981(13) 0.4292(3)
N6G N 0.1485(3) 0.63169(13) 0.2173(3)
loop_
_geom_bond_atom_site_label_1
_geom_bond_atom_site_label_2
_geom_bond_site_symmetry_1
_geom_bond_site_symmetry_2
Zn1 N1 1_555 1_555
N1 C1 1_555 1_555
N2 Zn1 1_555 1_555
N3 Zn1 1_555 1_555
N4 Zn1 1_555 1_555
C1 C2 1_555 1_555
C2 H1 1_555 1_555
C3 C2 1_555 1_555
H2 C3 1_555 1_555
C4 N1 1_555 1_555
C5 C4 1_555 1_555
C6 N2 1_555 1_555
C7 C6 1_555 1_555
H3 C7 1_555 1_555
C8 C7 1_555 1_555
H4 C8 1_555 1_555
C9 N2 1_555 1_555
C10 C9 1_555 1_555
C11 N3 1_555 1_555
C12 C11 1_555 1_555
H5 C12 1_555 1_555
C13 C12 1_555 1_555
H6 C13 1_555 1_555
C14 N3 1_555 1_555
C15 C14 1_555 1_555
C16 N4 1_555 1_555
C17 C16 1_555 1_555
H7 C17 1_555 1_555
C18 C17 1_555 1_555
H8 C18 1_555 1_555
C19 N4 1_555 1_555
C20 C1 1_555 1_555
C21 C5 1_555 1_555
C22 C21 1_555 1_555
C23 C22 1_555 1_555
C24 C23 1_555 1_555
H9 C24 1_555 1_555
C25 C24 1_555 1_555
H10 C25 1_555 1_555
N5 C25 1_555 1_555
C26 N5 1_555 1_555
H11 C26 1_555 1_555
C27 C23 1_555 1_555
H12 C27 1_555 1_555
C28 C10 1_555 1_555
C29 C28 1_555 1_555
C30 C29 1_555 1_555
H13 C30 1_555 1_555
H14 C30 1_555 1_555
H15 C30 1_555 1_555
C31 C29 1_555 1_555
H16 C31 1_555 1_555
C32 C31 1_555 1_555
C33 C32 1_555 1_555
H17 C33 1_555 1_555
H18 C33 1_555 1_555
H19 C33 1_555 1_555
C34 C32 1_555 1_555
H20 C34 1_555 1_555
C35 C28 1_555 1_555
C36 C35 1_555 1_555
H21 C36 1_555 1_555
H22 C36 1_555 1_555
H23 C36 1_555 1_555
C37 C15 1_555 1_555
C38 C37 1_555 1_555
H24 C38 1_555 1_555
C39 C38 1_555 1_555
H25 C39 1_555 1_555
N6 C39 1_555 1_555
C40 N6 1_555 1_555
H26 C40 1_555 1_555
C41 C37 1_555 1_555
H27 C41 1_555 1_555
C42 C20 1_555 1_555
C43 C42 1_555 1_555
C44 C43 1_555 1_555
H28 C44 1_555 1_555
H29 C44 1_555 1_555
H30 C44 1_555 1_555
C45 C43 1_555 1_555
H31 C45 1_555 1_555
C46 C45 1_555 1_555
C47 C46 1_555 1_555
H32 C47 1_555 1_555
H33 C47 1_555 1_555
H34 C47 1_555 1_555
C48 C46 1_555 1_555
H35 C48 1_555 1_555
C49 C42 1_555 1_555
C50 C49 1_555 1_555
H36 C50 1_555 1_555
H37 C50 1_555 1_555
H38 C50 1_555 1_555
Zn1G N5 1_555 1_555
Zn1G_2 N6 1_555 1_555
N5G Zn1 1_555 1_555
N6G Zn1 1_555 1_555
C3 C4 1_555 1_555
C5 C6 1_555 1_555
C8 C9 1_555 1_555
C10 C11 1_555 1_555
C13 C14 1_555 1_555
C15 C16 1_555 1_555
C18 C19 1_555 1_555
C19 C20 1_555 1_555
C26 C27 1_555 1_555
C34 C35 1_555 1_555
C40 C41 1_555 1_555
C48 C49 1_555 1_555

#END
