
#######################################################################
#
#                 Cambridge Crystallographic Data Centre
#                                CCDC 
#
#######################################################################
#
# If this CIF has been generated from an entry in the Cambridge 
# Structural Database, then it will include bibliographic, chemical, 
# crystal, experimental, refinement or atomic coordinate data resulting 
# from the CCDC's data processing and validation procedures.
#
#######################################################################

data_ECOFOT
_symmetry_cell_setting           orthorhombic
_symmetry_space_group_name_H-M   'P c c n'
_symmetry_Int_Tables_number      56
_space_group_name_Hall           '-P 2ab 2ac'
loop_
_symmetry_equiv_pos_site_id
_symmetry_equiv_pos_as_xyz
1 x,y,z
2 1/2-x,1/2-y,z
3 -x,1/2+y,1/2-z
4 1/2+x,-y,1/2-z
5 -x,-y,-z
6 1/2+x,1/2+y,-z
7 x,1/2-y,1/2+z
8 1/2-x,y,1/2+z
_cell_length_a                   19.7276(4)
_cell_length_b                   30.6924(6)
_cell_length_c                   14.4077(3)
_cell_angle_alpha                90
_cell_angle_beta                 90
_cell_angle_gamma                90
_cell_volume                     8723.68
loop_
_atom_site_label
_atom_site_type_symbol
_atom_site_fract_x
_atom_site_fract_y
_atom_site_fract_z
Zn1 Zn 0.46087(2) 0.140258(12) 0.43059(3)
N1 N 0.54024(14) 0.10686(9) 0.4890(2)
N2 N 0.39787(15) 0.08992(9) 0.4667(2)
N3 N 0.38746(15) 0.16351(9) 0.3429(2)
N4 N 0.53028(14) 0.18098(9) 0.3662(2)
C1 C 0.60749(18) 0.11930(12) 0.4889(2)
C2 C 0.6460(2) 0.08989(12) 0.5463(3)
H1 H 0.6935 0.0909 0.5572
C3 C 0.6021(2) 0.06072(13) 0.5816(3)
H2 H 0.6127 0.0375 0.6228
C4 C 0.53627(18) 0.07117(11) 0.5451(2)
C5 C 0.47665(19) 0.04724(11) 0.5631(2)
C6 C 0.41227(18) 0.05585(10) 0.5242(2)
C7 C 0.3523(2) 0.02987(12) 0.5394(3)
H3 H 0.3491 0.0042 0.5760
C8 C 0.3016(2) 0.04905(12) 0.4916(3)
H4 H 0.2559 0.0396 0.4885
C9 C 0.33015(18) 0.08671(11) 0.4459(2)
C10 C 0.29361(18) 0.11489(11) 0.3887(2)
C11 C 0.32119(18) 0.15038(12) 0.3405(2)
C12 C 0.28330(19) 0.17823(13) 0.2789(3)
H5 H 0.2363 0.1762 0.2654
C13 C 0.32698(19) 0.20762(13) 0.2441(3)
H6 H 0.3166 0.2302 0.2012
C14 C 0.39258(18) 0.19847(11) 0.2842(2)
C15 C 0.45220(17) 0.22154(10) 0.2651(2)
C16 C 0.51599(18) 0.21319(11) 0.3029(2)
C17 C 0.57731(19) 0.23616(12) 0.2796(3)
H7 H 0.5814 0.2598 0.2373
C18 C 0.6281(2) 0.21774(12) 0.3292(3)
H8 H 0.6744 0.2261 0.3289
C19 C 0.59801(18) 0.18296(11) 0.3827(2)
C20 C 0.63501(18) 0.15436(12) 0.4406(3)
C21 C 0.48295(19) 0.01094(11) 0.6242(3)
C22 C 0.4905(2) -0.01881(11) 0.6767(3)
C23 C 0.5014(2) -0.05401(11) 0.7403(3)
C24 C 0.5609(2) -0.05645(16) 0.7930(3)
H9 H 0.5954 -0.0351 0.7867
C25 C 0.5683(3) -0.09061(18) 0.8542(4)
H10 H 0.6088 -0.0919 0.8896
N5 N 0.5225(2) -0.12200(13) 0.8674(3)
C26 C 0.4673(3) -0.11918(14) 0.8164(3)
H11 H 0.4337 -0.1411 0.8242
C27 C 0.4546(2) -0.08673(13) 0.7527(3)
H12 H 0.4139 -0.0869 0.7175
C28 C 0.21912(18) 0.10691(12) 0.3758(2)
C29 C 0.1721(2) 0.12945(13) 0.4303(3)
C30 C 0.1959(3) 0.16049(17) 0.5043(4)
H13 H 0.2121 0.1874 0.4753
H14 H 0.2329 0.1471 0.5396
H15 H 0.1582 0.1672 0.5463
C31 C 0.1033(2) 0.12288(14) 0.4144(3)
H16 H 0.0712 0.1383 0.4511
C32 C 0.0802(2) 0.09457(14) 0.3468(3)
C33 C 0.0049(2) 0.08776(18) 0.3315(4)
H17 H -0.0206 0.1038 0.3788
H18 H -0.0057 0.0566 0.3361
H19 H -0.0077 0.0984 0.2697
C34 C 0.1272(2) 0.07223(16) 0.2937(3)
H20 H 0.1119 0.0526 0.2472
C35 C 0.1968(2) 0.07802(15) 0.3072(3)
C36 C 0.2472(2) 0.05275(19) 0.2484(4)
H21 H 0.2230 0.0310 0.2112
H22 H 0.2798 0.0380 0.2890
H23 H 0.2713 0.0729 0.2072
C37 C 0.44779(17) 0.25550(11) 0.1912(2)
C38 C 0.4484(3) 0.29972(12) 0.2090(3)
H24 H 0.4505 0.3101 0.2711
C39 C 0.4397(2) 0.27348(12) 0.0307(3)
H25 H 0.4355 0.2640 -0.0318
N6 N 0.44277(15) 0.31611(9) 0.0472(2)
C40 C 0.4458(3) 0.32878(12) 0.1354(3)
H26 H 0.4463 0.3591 0.1485
C41 C 0.44221(19) 0.24246(11) 0.0999(3)
H27 H 0.4401 0.2124 0.0848
C42 C 0.70933(18) 0.16297(12) 0.4525(3)
C43 C 0.7323(2) 0.18333(12) 0.5334(3)
C44 C 0.6833(2) 0.19585(15) 0.6095(3)
H28 H 0.6636 0.1695 0.6367
H29 H 0.6471 0.2140 0.5835
H30 H 0.7074 0.2122 0.6577
C45 C 0.8009(2) 0.19134(14) 0.5436(3)
H31 H 0.8167 0.2043 0.5994
C46 C 0.8474(2) 0.18107(14) 0.4748(3)
C47 C 0.9216(2) 0.19194(17) 0.4854(4)
H32 H 0.9448 0.1679 0.5170
H33 H 0.9264 0.2186 0.5221
H34 H 0.9418 0.1963 0.4239
C48 C 0.8241(2) 0.16106(14) 0.3955(3)
H35 H 0.8555 0.1539 0.3478
C49 C 0.7556(2) 0.15093(13) 0.3832(3)
C50 C 0.7329(2) 0.12677(17) 0.2974(3)
H36 H 0.7035 0.1456 0.2602
H37 H 0.7080 0.1005 0.3157
H38 H 0.7727 0.1185 0.2607
Zn1F Zn 0.46087(2) 0.359742(12) -0.06941(3)
N6F N 0.44277(15) 0.18389(9) 0.5472(2)
C51 C 0.6416(4) 0.0524(4) 0.0179(6)
H39 H 0.6248 0.0831 0.0128
Cl1 Cl 0.68447(11) 0.03766(7) -0.08244(15)
Cl2 Cl 0.69063(10) 0.04608(10) 0.11842(18)
Cl3 Cl 0.57232(17) 0.01585(13) 0.03069(19)
loop_
_geom_bond_atom_site_label_1
_geom_bond_atom_site_label_2
_geom_bond_site_symmetry_1
_geom_bond_site_symmetry_2
Zn1 N1 1_555 1_555
N1 C1 1_555 1_555
N2 Zn1 1_555 1_555
N3 Zn1 1_555 1_555
N4 Zn1 1_555 1_555
C1 C2 1_555 1_555
C2 H1 1_555 1_555
C3 C2 1_555 1_555
H2 C3 1_555 1_555
C4 N1 1_555 1_555
C5 C4 1_555 1_555
C6 N2 1_555 1_555
C7 C6 1_555 1_555
H3 C7 1_555 1_555
C8 C7 1_555 1_555
H4 C8 1_555 1_555
C9 N2 1_555 1_555
C10 C9 1_555 1_555
C11 N3 1_555 1_555
C12 C11 1_555 1_555
H5 C12 1_555 1_555
C13 C12 1_555 1_555
H6 C13 1_555 1_555
C14 N3 1_555 1_555
C15 C14 1_555 1_555
C16 N4 1_555 1_555
C17 C16 1_555 1_555
H7 C17 1_555 1_555
C18 C17 1_555 1_555
H8 C18 1_555 1_555
C19 N4 1_555 1_555
C20 C1 1_555 1_555
C21 C5 1_555 1_555
C22 C21 1_555 1_555
C23 C22 1_555 1_555
C24 C23 1_555 1_555
H9 C24 1_555 1_555
C25 C24 1_555 1_555
H10 C25 1_555 1_555
N5 C25 1_555 1_555
C26 N5 1_555 1_555
H11 C26 1_555 1_555
C27 C23 1_555 1_555
H12 C27 1_555 1_555
C28 C10 1_555 1_555
C29 C28 1_555 1_555
C30 C29 1_555 1_555
H13 C30 1_555 1_555
H14 C30 1_555 1_555
H15 C30 1_555 1_555
C31 C29 1_555 1_555
H16 C31 1_555 1_555
C32 C31 1_555 1_555
C33 C32 1_555 1_555
H17 C33 1_555 1_555
H18 C33 1_555 1_555
H19 C33 1_555 1_555
C34 C32 1_555 1_555
H20 C34 1_555 1_555
C35 C28 1_555 1_555
C36 C35 1_555 1_555
H21 C36 1_555 1_555
H22 C36 1_555 1_555
H23 C36 1_555 1_555
C37 C15 1_555 1_555
C38 C37 1_555 1_555
H24 C38 1_555 1_555
C39 H25 1_555 1_555
N6 C39 1_555 1_555
C40 C38 1_555 1_555
H26 C40 1_555 1_555
C41 C37 1_555 1_555
H27 C41 1_555 1_555
C42 C20 1_555 1_555
C43 C42 1_555 1_555
C44 C43 1_555 1_555
H28 C44 1_555 1_555
H29 C44 1_555 1_555
H30 C44 1_555 1_555
C45 C43 1_555 1_555
H31 C45 1_555 1_555
C46 C45 1_555 1_555
C47 C46 1_555 1_555
H32 C47 1_555 1_555
H33 C47 1_555 1_555
H34 C47 1_555 1_555
C48 C46 1_555 1_555
H35 C48 1_555 1_555
C49 C42 1_555 1_555
C50 C49 1_555 1_555
H36 C50 1_555 1_555
H37 C50 1_555 1_555
H38 C50 1_555 1_555
C51 H39 1_555 1_555
Cl1 C51 1_555 1_555
Cl2 C51 1_555 1_555
Cl3 C51 1_555 1_555
Zn1F N6 1_555 1_555
N6F Zn1 1_555 1_555
C3 C4 1_555 1_555
C5 C6 1_555 1_555
C8 C9 1_555 1_555
C10 C11 1_555 1_555
C13 C14 1_555 1_555
C15 C16 1_555 1_555
C18 C19 1_555 1_555
C19 C20 1_555 1_555
C26 C27 1_555 1_555
C34 C35 1_555 1_555
C39 C41 1_555 1_555
N6 C40 1_555 1_555
C48 C49 1_555 1_555

#END
