
#######################################################################
#
#                 Cambridge Crystallographic Data Centre
#                                CCDC 
#
#######################################################################
#
# If this CIF has been generated from an entry in the Cambridge 
# Structural Database, then it will include bibliographic, chemical, 
# crystal, experimental, refinement or atomic coordinate data resulting 
# from the CCDC's data processing and validation procedures.
#
#######################################################################

data_ECOFEJ
_symmetry_cell_setting           monoclinic
_symmetry_space_group_name_H-M   'P 21/n'
_symmetry_Int_Tables_number      14
_space_group_name_Hall           '-P 2yn'
loop_
_symmetry_equiv_pos_site_id
_symmetry_equiv_pos_as_xyz
1 x,y,z
2 1/2-x,1/2+y,1/2-z
3 -x,-y,-z
4 1/2+x,1/2-y,1/2+z
_cell_length_a                   11.3103(9)
_cell_length_b                   13.8466(12)
_cell_length_c                   15.1616(12)
_cell_angle_alpha                90
_cell_angle_beta                 102.876(4)
_cell_angle_gamma                90
_cell_volume                     2314.74
loop_
_atom_site_label
_atom_site_type_symbol
_atom_site_fract_x
_atom_site_fract_y
_atom_site_fract_z
C27 C 1.0057(11) 1.0177(11) 0.4520(9)
Cl1 Cl 1.0598(6) 1.0897(5) 0.5209(4)
Cl2 Cl 0.9030(6) 1.0578(6) 0.3579(5)
C27B C 0.9943(11) 0.9823(11) 0.5480(9)
Cl1B Cl 0.9402(6) 0.9103(5) 0.4791(4)
Cl2B Cl 1.0970(6) 0.9422(6) 0.6421(5)
Zn1 Zn 0.5000 0.5000 -0.5000
N1 N 0.5599(4) 0.5466(3) -0.3692(3)
N2 N 0.6542(4) 0.4143(3) -0.4858(3)
C1 C 0.5000(5) 0.6065(4) -0.3231(4)
C2 C 0.5707(6) 0.6232(5) -0.2327(4)
H1 H 0.5494 0.6629 -0.1876
C3 C 0.6741(6) 0.5705(5) -0.2249(4)
H2 H 0.7391 0.5665 -0.1731
C4 C 0.6661(6) 0.5216(4) -0.3105(4)
C5 C 0.7540(5) 0.4557(5) -0.3286(4)
C6 C 0.7476(5) 0.4074(4) -0.4110(4)
C7 C 0.8421(5) 0.3465(4) -0.4316(4)
H3 H 0.9156 0.3284 -0.3912
C8 C 0.8061(6) 0.3206(5) -0.5183(4)
H4 H 0.8500 0.2817 -0.5515
C9 C 0.6876(4) 0.3629(4) -0.5525(4)
C10 C 0.3840(6) 0.6463(4) -0.3578(4)
C11 C 0.8623(6) 0.4375(5) -0.2524(4)
C12 C 0.8528(7) 0.3724(6) -0.1824(4)
C13 C 0.9506(9) 0.3632(7) -0.1080(5)
H5 H 0.9452 0.3187 -0.0614
C14 C 1.0552(9) 0.4175(8) -0.1010(6)
C15 C 1.0654(8) 0.4783(6) -0.1720(7)
H6 H 1.1384 0.5135 -0.1683
C16 C 0.9696(7) 0.4895(6) -0.2502(6)
C17 C 0.7404(9) 0.3130(7) -0.1857(6)
H7 H 0.7531 0.2703 -0.1328
H8 H 0.6716 0.3559 -0.1853
H9 H 0.7232 0.2740 -0.2410
C18 C 1.1575(11) 0.4117(9) -0.0172(8)
H10 H 1.1375 0.3634 0.0244
H11 H 1.2327 0.3930 -0.0346
H12 H 1.1683 0.4748 0.0127
C19 C 0.9826(7) 0.5573(6) -0.3252(7)
H13 H 0.9223 0.6090 -0.3305
H14 H 1.0642 0.5853 -0.3115
H15 H 0.9698 0.5216 -0.3823
C20 C 0.3303(6) 0.6991(5) -0.2940(4)
C21 C 0.2848(7) 0.7368(6) -0.2395(4)
C22 C 0.2255(5) 0.7835(5) -0.1772(4)
C23 C 0.2903(6) 0.8364(7) -0.1054(6)
H16 H 0.3758 0.8430 -0.0962
C24 C 0.2281(6) 0.8796(7) -0.0471(6)
H17 H 0.2741 0.9127 0.0041
N3 N 0.1103(5) 0.8780(4) -0.0577(3)
C25 C 0.0510(6) 0.8216(7) -0.1210(6)
H18 H -0.0333 0.8125 -0.1248
C26 C 0.1019(7) 0.7750(7) -0.1818(7)
H19 H 0.0531 0.7364 -0.2277
Zn1A Zn 0.0000 1.0000 0.0000
Zn1A_2 Zn 1.0000 0.0000 -1.0000
N1B N 0.4401(4) 0.4534(3) -0.6308(3)
N2B N 0.3458(4) 0.5857(3) -0.5142(3)
C1B C 0.5000(5) 0.3935(4) -0.6769(4)
C2B C 0.4293(6) 0.3768(5) -0.7673(4)
H1B H 0.4506 0.3371 -0.8124
C3B C 0.3259(6) 0.4295(5) -0.7751(4)
H2B H 0.2609 0.4335 -0.8269
C4B C 0.3339(6) 0.4784(4) -0.6895(4)
C5B C 0.2460(5) 0.5443(5) -0.6714(4)
C6B C 0.2524(5) 0.5926(4) -0.5890(4)
C7B C 0.1579(5) 0.6535(4) -0.5684(4)
H3B H 0.0844 0.6716 -0.6088
C8B C 0.1939(6) 0.6794(5) -0.4817(4)
H4B H 0.1500 0.7183 -0.4485
C9B C 0.3124(4) 0.6371(4) -0.4475(4)
C10B C 0.6160(6) 0.3537(4) -0.6422(4)
C11B C 0.1377(6) 0.5625(5) -0.7476(4)
C12B C 0.1472(7) 0.6276(6) -0.8176(4)
C13B C 0.0494(9) 0.6368(7) -0.8920(5)
H5B H 0.0548 0.6813 -0.9386
C14B C -0.0552(9) 0.5825(8) -0.8990(6)
C15B C -0.0654(8) 0.5217(6) -0.8280(7)
H6B H -0.1384 0.4865 -0.8317
C16B C 0.0304(7) 0.5105(6) -0.7498(6)
C17B C 0.2596(9) 0.6870(7) -0.8143(6)
H7B H 0.2469 0.7297 -0.8672
H8B H 0.3284 0.6441 -0.8147
H9B H 0.2768 0.7260 -0.7590
C18B C -0.1575(11) 0.5883(9) -0.9828(8)
H10B H -0.1375 0.6366 -1.0244
H11B H -0.2327 0.6070 -0.9654
H12B H -0.1683 0.5252 -1.0127
C19B C 0.0174(7) 0.4427(6) -0.6748(7)
H13B H 0.0777 0.3910 -0.6695
H14B H -0.0642 0.4147 -0.6885
H15B H 0.0302 0.4784 -0.6177
C20B C 0.6697(6) 0.3009(5) -0.7060(4)
C21B C 0.7152(7) 0.2632(6) -0.7605(4)
C22B C 0.7745(5) 0.2165(5) -0.8228(4)
C23B C 0.7097(6) 0.1636(7) -0.8946(6)
H16B H 0.6242 0.1570 -0.9038
C24B C 0.7719(6) 0.1204(7) -0.9529(6)
H17B H 0.7259 0.0873 -1.0041
N3B N 0.8897(5) 0.1220(4) -0.9423(3)
N3C N 0.6103(5) 0.6220(4) -0.5577(3)
N3A N 0.3897(5) 0.3780(4) -0.4423(3)
C25B C 0.9490(6) 0.1784(7) -0.8790(6)
H18B H 1.0333 0.1875 -0.8752
C26B C 0.8981(7) 0.2250(7) -0.8182(7)
H19B H 0.9469 0.2636 -0.7723
loop_
_geom_bond_atom_site_label_1
_geom_bond_atom_site_label_2
_geom_bond_site_symmetry_1
_geom_bond_site_symmetry_2
Zn1 N1 1_555 1_555
N1 C1 1_555 1_555
N2 Zn1 1_555 1_555
C1 C2 1_555 1_555
C2 H1 1_555 1_555
C3 C2 1_555 1_555
H2 C3 1_555 1_555
C4 N1 1_555 1_555
C5 C4 1_555 1_555
C6 N2 1_555 1_555
C7 C6 1_555 1_555
H3 C7 1_555 1_555
C8 C7 1_555 1_555
H4 C8 1_555 1_555
C9 N2 1_555 1_555
C10 C1 1_555 1_555
C11 C5 1_555 1_555
C12 C11 1_555 1_555
C13 C12 1_555 1_555
H5 C13 1_555 1_555
C14 C13 1_555 1_555
C15 C14 1_555 1_555
H6 C15 1_555 1_555
C16 C11 1_555 1_555
C17 C12 1_555 1_555
H7 C17 1_555 1_555
H8 C17 1_555 1_555
H9 C17 1_555 1_555
C18 C14 1_555 1_555
H10 C18 1_555 1_555
H11 C18 1_555 1_555
H12 C18 1_555 1_555
C19 C16 1_555 1_555
H13 C19 1_555 1_555
H14 C19 1_555 1_555
H15 C19 1_555 1_555
C20 C10 1_555 1_555
C21 C20 1_555 1_555
C22 C21 1_555 1_555
C23 C22 1_555 1_555
H16 C23 1_555 1_555
C24 C23 1_555 1_555
H17 C24 1_555 1_555
N3 C24 1_555 1_555
C25 N3 1_555 1_555
H18 C25 1_555 1_555
C26 C22 1_555 1_555
H19 C26 1_555 1_555
C27 Cl1 1_555 1_555
Cl1 C27B 1_555 1_555
Cl2 C27 1_555 1_555
Zn1A N3 1_555 1_555
Zn1A_2 N3B 1_555 1_555
N1B Zn1 1_555 1_555
N2B Zn1 1_555 1_555
C1B N1B 1_555 1_555
C2B C1B 1_555 1_555
H1B C2B 1_555 1_555
C3B C2B 1_555 1_555
H2B C3B 1_555 1_555
C4B N1B 1_555 1_555
C5B C4B 1_555 1_555
C6B N2B 1_555 1_555
C7B C6B 1_555 1_555
H3B C7B 1_555 1_555
C8B C7B 1_555 1_555
H4B C8B 1_555 1_555
C9B C10 1_555 1_555
C10B C9 1_555 1_555
C11B C5B 1_555 1_555
C12B C11B 1_555 1_555
C13B C12B 1_555 1_555
H5B C13B 1_555 1_555
C14B C13B 1_555 1_555
C15B C14B 1_555 1_555
H6B C15B 1_555 1_555
C16B C11B 1_555 1_555
C17B C12B 1_555 1_555
H7B C17B 1_555 1_555
H8B C17B 1_555 1_555
H9B C17B 1_555 1_555
C18B C14B 1_555 1_555
H10B C18B 1_555 1_555
H11B C18B 1_555 1_555
H12B C18B 1_555 1_555
C19B C16B 1_555 1_555
H13B C19B 1_555 1_555
H14B C19B 1_555 1_555
H15B C19B 1_555 1_555
C20B C10B 1_555 1_555
C21B C20B 1_555 1_555
C22B C21B 1_555 1_555
C23B C22B 1_555 1_555
H16B C23B 1_555 1_555
C24B C23B 1_555 1_555
H17B C24B 1_555 1_555
N3B C24B 1_555 1_555
N3C Zn1 1_555 1_555
N3A Zn1 1_555 1_555
C25B N3B 1_555 1_555
H18B C25B 1_555 1_555
C26B C22B 1_555 1_555
H19B C26B 1_555 1_555
C27B C27 1_555 1_555
Cl1B C27 1_555 1_555
Cl2B C27B 1_555 1_555
C3 C4 1_555 1_555
C5 C6 1_555 1_555
C8 C9 1_555 1_555
C15 C16 1_555 1_555
C25 C26 1_555 1_555
N2B C9B 1_555 1_555
C1B C10B 1_555 1_555
C3B C4B 1_555 1_555
C5B C6B 1_555 1_555
C8B C9B 1_555 1_555
C15B C16B 1_555 1_555
C25B C26B 1_555 1_555
C27B Cl1B 1_555 1_555

#END
