
#######################################################################
#
#                 Cambridge Crystallographic Data Centre
#                                CCDC 
#
#######################################################################
#
# If this CIF has been generated from an entry in the Cambridge 
# Structural Database, then it will include bibliographic, chemical, 
# crystal, experimental, refinement or atomic coordinate data resulting 
# from the CCDC's data processing and validation procedures.
#
#######################################################################

data_ECOFIN
_symmetry_cell_setting           monoclinic
_symmetry_space_group_name_H-M   'P 21/n'
_symmetry_Int_Tables_number      14
_space_group_name_Hall           '-P 2yn'
loop_
_symmetry_equiv_pos_site_id
_symmetry_equiv_pos_as_xyz
1 x,y,z
2 1/2-x,1/2+y,1/2-z
3 -x,-y,-z
4 1/2+x,1/2-y,1/2+z
_cell_length_a                   10.7971(19)
_cell_length_b                   14.170(3)
_cell_length_c                   14.493(2)
_cell_angle_alpha                90
_cell_angle_beta                 109.694(4)
_cell_angle_gamma                90
_cell_volume                     2087.65
loop_
_atom_site_label
_atom_site_type_symbol
_atom_site_fract_x
_atom_site_fract_y
_atom_site_fract_z
Zn1 Zn 0.0000 0.0000 0.0000
N1 N 0.0894(2) -0.06571(17) 0.13153(17)
N2 N 0.1668(2) 0.07889(16) 0.02179(17)
C1 C 0.0319(3) -0.1281(2) 0.1767(2)
C2 C 0.1229(3) -0.1534(2) 0.2713(2)
H1 H 0.1067 -0.1954 0.3171
C3 C 0.2354(3) -0.1062(2) 0.2827(2)
H2 H 0.3144 -0.1097 0.3374
C4 C 0.2136(3) -0.0495(2) 0.1962(2)
C5 C 0.3038(3) 0.0155(2) 0.1827(2)
C6 C 0.2807(3) 0.0750(2) 0.1010(2)
C7 C 0.3759(3) 0.1389(2) 0.0862(2)
H3 H 0.4621 0.1505 0.1305
C8 C 0.3201(3) 0.1789(2) -0.0021(2)
H4 H 0.3595 0.2239 -0.0322
C9 C 0.1895(3) 0.1409(2) -0.0425(2)
C10 C -0.0990(3) -0.1618(2) 0.1365(2)
C11 C 0.4374(3) 0.0214(2) 0.2611(2)
C12 C 0.5414(3) -0.0276(3) 0.2482(3)
C13 C 0.6656(3) -0.0221(3) 0.3204(3)
H5 H 0.7370 -0.0555 0.3114
C14 C 0.6872(3) 0.0304(3) 0.4039(3)
C15 C 0.5825(3) 0.0787(3) 0.4157(2)
H6 H 0.5964 0.1152 0.4733
C16 C 0.4569(3) 0.0754(2) 0.3457(2)
C17 C 0.5243(4) -0.0872(3) 0.1585(3)
H7 H 0.4626 -0.1387 0.1560
H8 H 0.6095 -0.1135 0.1616
H9 H 0.4896 -0.0480 0.0997
C18 C 0.8242(4) 0.0362(4) 0.4806(3)
H10 H 0.8858 -0.0008 0.4587
H11 H 0.8220 0.0108 0.5429
H12 H 0.8530 0.1022 0.4895
C19 C 0.3470(3) 0.1302(3) 0.3622(3)
H13 H 0.3834 0.1738 0.4172
H14 H 0.2862 0.0864 0.3773
H15 H 0.2997 0.1660 0.3029
C20 C -0.1485(3) -0.2175(2) 0.1991(2)
C21 C -0.1980(3) -0.2576(2) 0.2499(3)
C22 C -0.2678(3) -0.3030(2) 0.3058(2)
C23 C -0.2213(3) -0.3059(3) 0.4069(3)
H16 H -0.1393 -0.2778 0.4428
C24 C -0.2960(3) -0.3504(3) 0.4552(3)
H17 H -0.2622 -0.3514 0.5248
N3 N -0.4102(2) -0.3912(2) 0.4118(2)
C25 C -0.4551(4) -0.3868(3) 0.3141(3)
H18 H -0.5388 -0.4135 0.2805
C26 C -0.3878(4) -0.3459(3) 0.2590(3)
H19 H -0.4234 -0.3471 0.1895
Zn1A Zn -0.5000 -0.5000 0.5000
Zn1A_2 Zn 0.5000 0.5000 -0.5000
N1B N -0.0894(2) 0.06571(17) -0.13153(17)
N2B N -0.1668(2) -0.07889(16) -0.02179(17)
C1B C -0.0319(3) 0.1281(2) -0.1767(2)
C2B C -0.1229(3) 0.1534(2) -0.2713(2)
H1B H -0.1067 0.1954 -0.3171
C3B C -0.2354(3) 0.1062(2) -0.2827(2)
H2B H -0.3144 0.1097 -0.3374
C4B C -0.2136(3) 0.0495(2) -0.1962(2)
C5B C -0.3038(3) -0.0155(2) -0.1827(2)
C6B C -0.2807(3) -0.0750(2) -0.1010(2)
C7B C -0.3759(3) -0.1389(2) -0.0862(2)
H3B H -0.4621 -0.1505 -0.1305
C8B C -0.3201(3) -0.1789(2) 0.0021(2)
H4B H -0.3595 -0.2239 0.0322
C9B C -0.1895(3) -0.1409(2) 0.0425(2)
C10B C 0.0990(3) 0.1618(2) -0.1365(2)
C11B C -0.4374(3) -0.0214(2) -0.2611(2)
C12B C -0.5414(3) 0.0276(3) -0.2482(3)
C13B C -0.6656(3) 0.0221(3) -0.3204(3)
H5B H -0.7370 0.0555 -0.3114
C14B C -0.6872(3) -0.0304(3) -0.4039(3)
C15B C -0.5825(3) -0.0787(3) -0.4157(2)
H6B H -0.5964 -0.1152 -0.4733
C16B C -0.4569(3) -0.0754(2) -0.3457(2)
C17B C -0.5243(4) 0.0872(3) -0.1585(3)
H7B H -0.4626 0.1387 -0.1560
H8B H -0.6095 0.1135 -0.1616
H9B H -0.4896 0.0480 -0.0997
C18B C -0.8242(4) -0.0362(4) -0.4806(3)
H10B H -0.8858 0.0008 -0.4587
H11B H -0.8220 -0.0108 -0.5429
H12B H -0.8530 -0.1022 -0.4895
C19B C -0.3470(3) -0.1302(3) -0.3622(3)
H13B H -0.3834 -0.1738 -0.4172
H14B H -0.2862 -0.0864 -0.3773
H15B H -0.2997 -0.1660 -0.3029
C20B C 0.1485(3) 0.2175(2) -0.1991(2)
C21B C 0.1980(3) 0.2576(2) -0.2499(3)
C22B C 0.2678(3) 0.3030(2) -0.3058(2)
C23B C 0.2213(3) 0.3059(3) -0.4069(3)
H16B H 0.1393 0.2778 -0.4428
C24B C 0.2960(3) 0.3504(3) -0.4552(3)
H17B H 0.2622 0.3514 -0.5248
N3B N 0.4102(2) 0.3912(2) -0.4118(2)
N3C N 0.0898(2) -0.1088(2) -0.0882(2)
N3A N -0.0898(2) 0.1088(2) 0.0882(2)
C25B C 0.4551(4) 0.3868(3) -0.3141(3)
H18B H 0.5388 0.4135 -0.2805
C26B C 0.3878(4) 0.3459(3) -0.2590(3)
H19B H 0.4234 0.3471 -0.1895
loop_
_geom_bond_atom_site_label_1
_geom_bond_atom_site_label_2
_geom_bond_site_symmetry_1
_geom_bond_site_symmetry_2
Zn1 N1 1_555 1_555
N1 C1 1_555 1_555
N2 Zn1 1_555 1_555
C1 C2 1_555 1_555
C2 H1 1_555 1_555
C3 C2 1_555 1_555
H2 C3 1_555 1_555
C4 N1 1_555 1_555
C5 C4 1_555 1_555
C6 N2 1_555 1_555
C7 C6 1_555 1_555
H3 C7 1_555 1_555
C8 C7 1_555 1_555
H4 C8 1_555 1_555
C9 N2 1_555 1_555
C10 C1 1_555 1_555
C11 C5 1_555 1_555
C12 C11 1_555 1_555
C13 C12 1_555 1_555
H5 C13 1_555 1_555
C14 C13 1_555 1_555
C15 C14 1_555 1_555
H6 C15 1_555 1_555
C16 C11 1_555 1_555
C17 C12 1_555 1_555
H7 C17 1_555 1_555
H8 C17 1_555 1_555
H9 C17 1_555 1_555
C18 C14 1_555 1_555
H10 C18 1_555 1_555
H11 C18 1_555 1_555
H12 C18 1_555 1_555
C19 C16 1_555 1_555
H13 C19 1_555 1_555
H14 C19 1_555 1_555
H15 C19 1_555 1_555
C20 C10 1_555 1_555
C21 C20 1_555 1_555
C22 C21 1_555 1_555
C23 C22 1_555 1_555
H16 C23 1_555 1_555
C24 C23 1_555 1_555
H17 C24 1_555 1_555
N3 C24 1_555 1_555
C25 N3 1_555 1_555
H18 C25 1_555 1_555
C26 C22 1_555 1_555
H19 C26 1_555 1_555
Zn1A N3 1_555 1_555
Zn1A_2 N3B 1_555 1_555
N1B Zn1 1_555 1_555
N2B Zn1 1_555 1_555
C1B N1B 1_555 1_555
C2B C1B 1_555 1_555
H1B C2B 1_555 1_555
C3B C2B 1_555 1_555
H2B C3B 1_555 1_555
C4B N1B 1_555 1_555
C5B C4B 1_555 1_555
C6B N2B 1_555 1_555
C7B C6B 1_555 1_555
H3B C7B 1_555 1_555
C8B C7B 1_555 1_555
H4B C8B 1_555 1_555
C9B C10 1_555 1_555
C10B C9 1_555 1_555
C11B C5B 1_555 1_555
C12B C11B 1_555 1_555
C13B C12B 1_555 1_555
H5B C13B 1_555 1_555
C14B C13B 1_555 1_555
C15B C14B 1_555 1_555
H6B C15B 1_555 1_555
C16B C11B 1_555 1_555
C17B C12B 1_555 1_555
H7B C17B 1_555 1_555
H8B C17B 1_555 1_555
H9B C17B 1_555 1_555
C18B C14B 1_555 1_555
H10B C18B 1_555 1_555
H11B C18B 1_555 1_555
H12B C18B 1_555 1_555
C19B C16B 1_555 1_555
H13B C19B 1_555 1_555
H14B C19B 1_555 1_555
H15B C19B 1_555 1_555
C20B C10B 1_555 1_555
C21B C20B 1_555 1_555
C22B C21B 1_555 1_555
C23B C22B 1_555 1_555
H16B C23B 1_555 1_555
C24B C23B 1_555 1_555
H17B C24B 1_555 1_555
N3B C24B 1_555 1_555
N3C Zn1 1_555 1_555
N3A Zn1 1_555 1_555
C25B N3B 1_555 1_555
H18B C25B 1_555 1_555
C26B C22B 1_555 1_555
H19B C26B 1_555 1_555
C3 C4 1_555 1_555
C5 C6 1_555 1_555
C8 C9 1_555 1_555
C15 C16 1_555 1_555
C25 C26 1_555 1_555
N2B C9B 1_555 1_555
C1B C10B 1_555 1_555
C3B C4B 1_555 1_555
C5B C6B 1_555 1_555
C8B C9B 1_555 1_555
C15B C16B 1_555 1_555
C25B C26B 1_555 1_555

#END
