
#######################################################################
#
#                 Cambridge Crystallographic Data Centre
#                                CCDC 
#
#######################################################################
#
# If this CIF has been generated from an entry in the Cambridge 
# Structural Database, then it will include bibliographic, chemical, 
# crystal, experimental, refinement or atomic coordinate data resulting 
# from the CCDC's data processing and validation procedures.
#
#######################################################################

data_ECOGEI
_symmetry_cell_setting           tetragonal
_symmetry_space_group_name_H-M   'P 41 21 2'
_symmetry_Int_Tables_number      92
_space_group_name_Hall           'P 4abw 2nw'
loop_
_symmetry_equiv_pos_site_id
_symmetry_equiv_pos_as_xyz
1 x,y,z
2 -x,-y,1/2+z
3 1/2-y,1/2+x,1/4+z
4 1/2+y,1/2-x,3/4+z
5 y,x,-z
6 -y,-x,1/2-z
7 1/2-x,1/2+y,1/4-z
8 1/2+x,1/2-y,3/4-z
_cell_length_a                   12.3804(7)
_cell_length_b                   12.3804(7)
_cell_length_c                   46.505(2)
_cell_angle_alpha                90
_cell_angle_beta                 90
_cell_angle_gamma                90
_cell_volume                     7128.02
loop_
_atom_site_label
_atom_site_type_symbol
_atom_site_fract_x
_atom_site_fract_y
_atom_site_fract_z
Zn1 Zn 0.18517(6) -0.1852 0.2500
N1 N 0.0790(4) -0.1146(4) 0.28180(9)
N2 N -0.1049(5) -0.0449(5) 0.37659(10)
N3 N -0.0744(5) 0.1312(5) 0.3577(1)
N4 N -0.1533(5) 0.1113(5) 0.4044(1)
N5 N -0.2531(5) -0.2048(5) 0.46777(10)
N6 N 0.3118(5) -0.0605(5) 0.2620(1)
C1 C 0.0164(6) -0.1738(6) 0.2990(1)
C2 C -0.0365(6) -0.1331(5) 0.3228(1)
C3 C -0.0222(5) -0.0244(5) 0.3295(1)
C4 C 0.0372(5) 0.0402(5) 0.3111(1)
C5 C 0.0867(5) -0.0096(6) 0.2876(1)
C6 C -0.0707(5) 0.0238(5) 0.3559(1)
C7 C -0.1199(7) 0.1706(6) 0.3820(1)
C8 C -0.1453(6) 0.0054(6) 0.4001(1)
C9 C -0.1794(6) -0.0683(6) 0.4237(1)
C10 C -0.1803(6) -0.1800(6) 0.4202(1)
C11 C -0.2168(6) -0.2472(6) 0.4426(1)
C12 C -0.2526(7) -0.0968(6) 0.4705(1)
C13 C -0.2185(6) -0.0273(6) 0.4501(1)
C14 C 0.3517(6) 0.0052(7) 0.2745(1)
C15 C 0.4009(8) 0.096(1) 0.2923(2)
H1 H 0.0080 -0.2496 0.2947
H3 H -0.0826 -0.1779 0.3340
H5 H 0.0432 0.1183 0.3145
H6 H 0.1280 0.0350 0.2746
H7 H -0.1282 0.2482 0.3836
H8 H -0.1570 -0.2117 0.4026
H9 H -0.2157 -0.3222 0.4397
H10 H -0.2784 -0.0673 0.4883
H11 H -0.2198 0.0494 0.4533
H12 H 0.4101 0.0741 0.3116
H13 H 0.4676 0.1170 0.2842
H14 H 0.3528 0.1578 0.2920
N1E N 0.1146(4) -0.0790(4) 0.21820(9)
N2E N 0.0449(5) 0.1049(5) 0.12341(10)
N3E N -0.1312(5) 0.0744(5) 0.1423(1)
N4E N -0.1113(5) 0.1533(5) 0.0956(1)
N5E N 0.2048(5) 0.2531(5) 0.03223(10)
C1E C 0.1738(6) -0.0164(6) 0.2010(1)
C2E C 0.1331(5) 0.0365(6) 0.1772(1)
C3E C 0.0244(5) 0.0222(5) 0.1705(1)
C4E C -0.0402(5) -0.0372(5) 0.1889(1)
C5E C 0.0096(6) -0.0867(5) 0.2124(1)
C6E C -0.0238(5) 0.0707(5) 0.1441(1)
C7E C -0.1706(6) 0.1199(7) 0.1180(1)
C8E C -0.0054(6) 0.1453(6) 0.0999(1)
C9E C 0.0683(6) 0.1794(6) 0.0763(1)
C10E C 0.1800(6) 0.1803(6) 0.0798(1)
C11E C 0.2472(6) 0.2168(6) 0.0574(1)
C12E C 0.0968(6) 0.2526(7) 0.0295(1)
C13E C 0.0273(6) 0.2185(6) 0.0499(1)
H1E H 0.2496 -0.0080 0.2053
H3E H 0.1779 0.0826 0.1660
H5E H -0.1183 -0.0432 0.1855
H6E H -0.0350 -0.1280 0.2254
H7E H -0.2482 0.1282 0.1164
H8E H 0.2117 0.1570 0.0974
H9E H 0.3222 0.2157 0.0603
H10E H 0.0673 0.2784 0.0117
H11E H -0.0494 0.2198 0.0467
N6E N 0.0605(5) -0.3118(5) 0.2380(1)
C14E C -0.0052(7) -0.3517(6) 0.2255(1)
C15E C -0.096(1) -0.4009(8) 0.2077(2)
H12E H -0.0741 -0.4101 0.1884
H13E H -0.1170 -0.4676 0.2158
H14E H -0.1578 -0.3528 0.2080
N5C N 0.2952(5) -0.2469(5) 0.21777(10)
N5G N 0.2469(5) -0.2952(5) 0.28223(10)
Zn1B Zn -0.3148 -0.31483(6) 0.5000
Zn1C Zn 0.3148 0.31483(6) 0.0000
Zn2 Zn -0.25638(6) 0.2564 0.2500
O1 O -0.3735(4) 0.3735 0.2500
O2 O -0.1189(4) 0.1189 0.2500
N7 N -0.1482(5) 0.3466(5) 0.27610(9)
N8 N 0.0656(5) 0.4484(5) 0.36256(10)
N9 N 0.0398(5) 0.6196(5) 0.3400(1)
N10 N 0.1221(6) 0.6120(5) 0.3859(1)
N11 N 0.1888(5) 0.3227(5) 0.46064(10)
C16 C -0.0882(7) 0.2939(6) 0.2953(1)
C17 C -0.0249(7) 0.3433(6) 0.3157(1)
C18 C -0.0269(6) 0.4542(5) 0.3172(1)
C19 C -0.0881(7) 0.5131(5) 0.2975(1)
C20 C -0.1493(6) 0.4528(6) 0.2772(1)
C21 C 0.0312(6) 0.5116(6) 0.3412(1)
C22 C 0.0875(7) 0.6616(6) 0.3626(1)
C23 C 0.1092(6) 0.5044(5) 0.3848(1)
C24 C 0.1396(6) 0.4401(6) 0.4105(1)
C25 C 0.1428(6) 0.3270(6) 0.4104(1)
C26 C 0.1668(6) 0.2725(6) 0.4357(1)
C27 C 0.1859(8) 0.4294(7) 0.4601(1)
C28 C 0.1641(7) 0.4931(6) 0.4360(1)
H2 H -0.4221 0.3730 0.2604
H4 H -0.1060 0.0461 0.2508
H15 H -0.0870 0.2179 0.2942
H16 H 0.0170 0.3032 0.3288
H17 H -0.0894 0.5895 0.2976
H18 H -0.1913 0.4905 0.2633
H19 H 0.0989 0.7393 0.3624
H20 H 0.1252 0.2878 0.3935
H21 H 0.1682 0.1966 0.4356
H22 H 0.1958 0.4659 0.4779
H23 H 0.1664 0.5702 0.4366
H2E H -0.3730 0.4221 0.2396
H4E H -0.0461 0.1060 0.2492
N7E N -0.3466(5) 0.1482(5) 0.22390(9)
N8E N -0.4484(5) -0.0656(5) 0.13744(10)
N9E N -0.6196(5) -0.0398(5) 0.1600(1)
N10E N -0.6120(5) -0.1221(6) 0.1141(1)
N11E N -0.3227(5) -0.1888(5) 0.03936(10)
C16E C -0.2939(6) 0.0882(7) 0.2047(1)
C17E C -0.3433(6) 0.0249(7) 0.1843(1)
C18E C -0.4542(5) 0.0269(6) 0.1828(1)
C19E C -0.5131(5) 0.0881(7) 0.2025(1)
C20E C -0.4528(6) 0.1493(6) 0.2228(1)
C21E C -0.5116(6) -0.0312(6) 0.1588(1)
C22E C -0.6616(6) -0.0875(7) 0.1374(1)
C23E C -0.5044(5) -0.1092(6) 0.1152(1)
C24E C -0.4401(6) -0.1396(6) 0.0895(1)
C25E C -0.3270(6) -0.1428(6) 0.0896(1)
C26E C -0.2725(6) -0.1668(6) 0.0643(1)
C27E C -0.4294(7) -0.1859(8) 0.0399(1)
C28E C -0.4931(6) -0.1641(7) 0.0640(1)
H15E H -0.2179 0.0870 0.2058
H16E H -0.3032 -0.0170 0.1712
H17E H -0.5895 0.0894 0.2024
H18E H -0.4905 0.1913 0.2367
H19E H -0.7393 -0.0989 0.1376
H20E H -0.2878 -0.1252 0.1065
H21E H -0.1966 -0.1682 0.0644
H22E H -0.4659 -0.1958 0.0221
H23E H -0.5702 -0.1664 0.0634
N11C N -0.1773(5) 0.3112(5) 0.21064(10)
N11G N -0.3112(5) 0.1773(5) 0.28936(10)
Zn2B Zn 0.2436 0.24362(6) 0.5000
Zn2C Zn -0.2436 -0.24362(6) 0.0000
Cl1 Cl 0.1930(2) 0.2606(2) 0.25007(4)
O3 O 0.1653(5) 0.3676(5) 0.2405(1)
O4 O 0.1100(5) 0.1858(5) 0.2409(1)
O5 O 0.2935(5) 0.2268(6) 0.2382(1)
O6 O 0.1970(6) 0.2542(6) 0.2805(1)
Cl2 Cl 0.2724(2) -0.0124(2) 0.36589(5)
O7 O 0.1845(6) -0.0805(6) 0.3598(1)
O8 O 0.3711(7) -0.0512(7) 0.3504(2)
O9 O 0.247(1) 0.0954(8) 0.3535(2)
O10 O 0.2899(7) 0.009(1) 0.3930(2)
N12 N -0.4966(8) 0.4208(8) 0.2018(2)
C29 C -0.5763(9) 0.4003(9) 0.1905(2)
C30 C -0.6773(8) 0.3773(10) 0.1769(2)
H24 H -0.6930 0.4291 0.1624
H25 H -0.7349 0.3763 0.1905
H26 H -0.6763 0.3065 0.1676
loop_
_geom_bond_atom_site_label_1
_geom_bond_atom_site_label_2
_geom_bond_site_symmetry_1
_geom_bond_site_symmetry_2
Zn1 N1 1_555 1_555
Zn2 O1 1_555 1_555
Cl1 O3 1_555 1_555
Cl2 O7 1_555 1_555
O1 H2 1_555 1_555
O2 Zn2 1_555 1_555
O4 Cl1 1_555 1_555
O5 Cl1 1_555 1_555
O6 Cl1 1_555 1_555
O8 Cl2 1_555 1_555
O9 Cl2 1_555 1_555
O10 Cl2 1_555 1_555
N1 C1 1_555 1_555
N2 C6 1_555 1_555
N3 C6 1_555 1_555
N4 C7 1_555 1_555
N5 C11 1_555 1_555
N6 Zn1 1_555 1_555
N7 Zn2 1_555 1_555
N8 C21 1_555 1_555
N9 C21 1_555 1_555
N10 C22 1_555 1_555
N11 C26 1_555 1_555
N12 C29 1_555 1_555
C1 C2 1_555 1_555
C2 C3 1_555 1_555
C3 C4 1_555 1_555
C4 C5 1_555 1_555
C5 N1 1_555 1_555
C6 C3 1_555 1_555
C7 N3 1_555 1_555
C8 N2 1_555 1_555
C9 C8 1_555 1_555
C10 C9 1_555 1_555
C11 C10 1_555 1_555
C12 N5 1_555 1_555
C13 C9 1_555 1_555
C14 N6 1_555 1_555
C15 C14 1_555 1_555
C16 N7 1_555 1_555
C17 C16 1_555 1_555
C18 C17 1_555 1_555
C19 C18 1_555 1_555
C20 N7 1_555 1_555
C21 C18 1_555 1_555
C22 N9 1_555 1_555
C23 N8 1_555 1_555
C24 C23 1_555 1_555
C25 C24 1_555 1_555
C26 C25 1_555 1_555
C27 N11 1_555 1_555
C28 C24 1_555 1_555
C29 C30 1_555 1_555
C30 H24 1_555 1_555
H1 C1 1_555 1_555
H3 C2 1_555 1_555
H4 O2 1_555 1_555
H5 C4 1_555 1_555
H6 C5 1_555 1_555
H7 C7 1_555 1_555
H8 C10 1_555 1_555
H9 C11 1_555 1_555
H10 C12 1_555 1_555
H11 C13 1_555 1_555
H12 C15 1_555 1_555
H13 C15 1_555 1_555
H14 C15 1_555 1_555
H15 C16 1_555 1_555
H16 C17 1_555 1_555
H17 C19 1_555 1_555
H18 C20 1_555 1_555
H19 C22 1_555 1_555
H20 C25 1_555 1_555
H21 C26 1_555 1_555
H22 C27 1_555 1_555
H23 C28 1_555 1_555
H25 C30 1_555 1_555
H26 C30 1_555 1_555
H2E O1 1_555 1_555
H4E O2 1_555 1_555
N1E Zn1 1_555 1_555
N2E C6E 1_555 1_555
N3E C6E 1_555 1_555
N4E C7E 1_555 1_555
N5E C11E 1_555 1_555
C1E N1E 1_555 1_555
C2E C1E 1_555 1_555
C3E C2E 1_555 1_555
C4E C3E 1_555 1_555
C5E N1E 1_555 1_555
C6E C3E 1_555 1_555
C7E N3E 1_555 1_555
C8E N2E 1_555 1_555
C9E C8E 1_555 1_555
C10E C9E 1_555 1_555
C11E C10E 1_555 1_555
C12E N5E 1_555 1_555
C13E C9E 1_555 1_555
H1E C1E 1_555 1_555
H3E C2E 1_555 1_555
H5E C4E 1_555 1_555
H6E C5E 1_555 1_555
H7E C7E 1_555 1_555
H8E C10E 1_555 1_555
H9E C11E 1_555 1_555
H10E C12E 1_555 1_555
H11E C13E 1_555 1_555
N6E Zn1 1_555 1_555
C14E N6E 1_555 1_555
C15E C14E 1_555 1_555
H12E C15E 1_555 1_555
H13E C15E 1_555 1_555
H14E C15E 1_555 1_555
N7E Zn2 1_555 1_555
N8E C21E 1_555 1_555
N9E C21E 1_555 1_555
N10E C22E 1_555 1_555
N11E C26E 1_555 1_555
C16E N7E 1_555 1_555
C17E C16E 1_555 1_555
C18E C17E 1_555 1_555
C19E C18E 1_555 1_555
C20E N7E 1_555 1_555
C21E C18E 1_555 1_555
C22E N9E 1_555 1_555
C23E N8E 1_555 1_555
C24E C23E 1_555 1_555
C25E C24E 1_555 1_555
C26E C25E 1_555 1_555
C27E N11E 1_555 1_555
C28E C24E 1_555 1_555
H15E C16E 1_555 1_555
H16E C17E 1_555 1_555
H17E C19E 1_555 1_555
H18E C20E 1_555 1_555
H19E C22E 1_555 1_555
H20E C25E 1_555 1_555
H21E C26E 1_555 1_555
H22E C27E 1_555 1_555
H23E C28E 1_555 1_555
N5C Zn1 1_555 1_555
N5G Zn1 1_555 1_555
N11C Zn2 1_555 1_555
N11G Zn2 1_555 1_555
Zn1B N5 1_555 1_555
Zn2B N11 1_555 1_555
Zn1C N5E 1_555 1_555
Zn2C N11E 1_555 1_555
N4 C8 1_555 1_555
N10 C23 1_555 1_555
C12 C13 1_555 1_555
C19 C20 1_555 1_555
C27 C28 1_555 1_555
N4E C8E 1_555 1_555
C4E C5E 1_555 1_555
C12E C13E 1_555 1_555
N10E C23E 1_555 1_555
C19E C20E 1_555 1_555
C27E C28E 1_555 1_555

#END
