
#######################################################################
#
#                 Cambridge Crystallographic Data Centre
#                                CCDC 
#
#######################################################################
#
# If this CIF has been generated from an entry in the Cambridge 
# Structural Database, then it will include bibliographic, chemical, 
# crystal, experimental, refinement or atomic coordinate data resulting 
# from the CCDC's data processing and validation procedures.
#
#######################################################################

data_ECOGOS
_symmetry_cell_setting           triclinic
_symmetry_space_group_name_H-M   'P -1'
_symmetry_Int_Tables_number      2
_space_group_name_Hall           '-P 1'
loop_
_symmetry_equiv_pos_site_id
_symmetry_equiv_pos_as_xyz
1 x,y,z
2 -x,-y,-z
_cell_length_a                   13.165(3)
_cell_length_b                   13.643(3)
_cell_length_c                   13.807(3)
_cell_angle_alpha                113.61(3)
_cell_angle_beta                 103.67(3)
_cell_angle_gamma                91.66(3)
_cell_volume                     2186.54
loop_
_atom_site_label
_atom_site_type_symbol
_atom_site_fract_x
_atom_site_fract_y
_atom_site_fract_z
Rb1 Rb 1.53789(4) 0.93931(4) 0.65949(4)
Rb2 Rb 1.33456(4) 0.59487(4) 0.43249(4)
P1 P 1.57636(12) 0.64851(11) 0.61751(12)
H1 H 1.5306 0.6380 0.6913
P2 P 1.37436(12) 0.85658(12) 0.39667(12)
H2 H 1.2948 0.9068 0.4321
O1 O 1.2282(5) 0.5868(5) 0.5917(5)
O2 O 1.3570(4) 1.0168(5) 0.7350(4)
C1 C 1.2860(8) 0.5333(9) 0.6548(8)
H3 H 1.2948 0.4606 0.6060
H4 H 1.3559 0.5744 0.6978
C2 C 1.2665(8) 0.9592(9) 0.7315(9)
H5 H 1.2795 0.9372 0.7922
H6 H 1.2428 0.8946 0.6620
C3 C 1.1850(8) 1.0367(13) 0.7418(13)
H7 H 1.1156 0.9983 0.6932
H8 H 1.1795 1.0696 0.8174
C4 C 1.2176(9) 1.1139(12) 0.7128(13)
H9 H 1.2116 1.1858 0.7656
H10 H 1.1746 1.1025 0.6398
C5 C 1.1353(12) 0.5728(12) 0.7075(13)
H11 H 1.1288 0.6295 0.7762
H12 H 1.0729 0.5179 0.6761
C6 C 1.1461(10) 0.6177(13) 0.6307(14)
H13 H 1.0817 0.5940 0.5698
H14 H 1.1551 0.6968 0.6678
C7 C 1.2252(12) 0.5277(14) 0.7256(13)
H15 H 1.2069 0.4522 0.7115
H16 H 1.2666 0.5667 0.8023
C8 C 1.3265(8) 1.1041(8) 0.7124(11)
H17 H 1.3350 1.0937 0.6404
H18 H 1.3716 1.1707 0.7678
C9 C 1.6588(4) 0.7716(4) 0.7233(4)
C10 C 1.6328(4) 0.8284(4) 0.8247(4)
C11 C 1.6889(5) 0.9286(5) 0.8990(4)
H19 H 1.6696 0.9642 0.9645
C12 C 1.7707(5) 0.9788(4) 0.8827(5)
C13 C 1.7995(4) 0.9199(5) 0.7879(5)
H20 H 1.8578 0.9501 0.7759
C14 C 1.7482(4) 0.8196(4) 0.7095(4)
C15 C 1.8274(7) 1.0898(5) 0.9621(6)
H21 H 1.8884 1.0903 0.9318
C16 C 1.7797(8) 1.1749(5) 0.9421(6)
H22 H 1.7489 1.1510 0.8638
H23 H 1.8329 1.2373 0.9688
H24 H 1.7250 1.1944 0.9800
C17 C 1.8829(7) 1.0983(7) 1.0685(6)
H25 H 1.9091 1.0308 1.0615
H26 H 1.8353 1.1139 1.1152
H27 H 1.9417 1.1562 1.1009
C18 C 1.5425(5) 0.7778(5) 0.8489(5)
H28 H 1.4956 0.7275 0.7768
C19 C 1.4775(9) 0.8529(9) 0.9040(14)
H29 H 1.4547 0.8969 0.8646
H30 H 1.5181 0.8990 0.9784
H31 H 1.4163 0.8131 0.9058
C20 C 1.5783(7) 0.7137(10) 0.9076(11)
H32 H 1.6184 0.6608 0.8680
H33 H 1.5180 0.6769 0.9143
H34 H 1.6228 0.7601 0.9802
C21 C 1.7876(4) 0.7642(5) 0.6081(4)
H35 H 1.7624 0.6860 0.5774
C22 C 1.9101(5) 0.7783(8) 0.6361(6)
H36 H 1.9317 0.7407 0.5696
H37 H 1.9377 0.7485 0.6885
H38 H 1.9373 0.8545 0.6676
C23 C 1.7427(6) 0.8028(6) 0.5200(5)
H39 H 1.7680 0.7645 0.4561
H40 H 1.7653 0.8797 0.5479
H41 H 1.6663 0.7890 0.4995
C24 C 1.1820(4) 0.7106(4) 0.2993(4)
C25 C 1.1228(4) 0.6100(5) 0.2310(5)
H42 H 1.0536 0.5973 0.2348
C26 C 1.1614(5) 0.5285(5) 0.1585(5)
C27 C 1.2605(5) 0.5509(5) 0.1507(5)
H43 H 1.2869 0.4971 0.0988
C28 C 1.3242(4) 0.6509(4) 0.2168(4)
C29 C 1.2870(4) 0.7334(4) 0.2970(4)
C30 C 1.0945(6) 0.4162(6) 0.0950(8)
H44 H 1.0194 0.4258 0.0886
C31 C 1.1095(10) 0.3645(7) -0.0229(8)
H45 H 1.0900 0.4119 -0.0591
H46 H 1.0649 0.2952 -0.0646
H47 H 1.1827 0.3542 -0.0185
C32 C 1.1211(7) 0.3452(7) 0.1518(9)
H48 H 1.0764 0.2760 0.1099
H49 H 1.1099 0.3784 0.2243
H50 H 1.1945 0.3344 0.1585
C33 C 1.1313(4) 0.7959(5) 0.3757(5)
H51 H 1.1870 0.8367 0.4449
C34 C 1.0942(5) 0.8761(5) 0.3279(5)
H52 H 1.0623 0.9303 0.3775
H53 H 1.0426 0.8381 0.2573
H54 H 1.1541 0.9108 0.3183
C35 C 1.0412(7) 0.7541(7) 0.4058(8)
H55 H 1.0144 0.8145 0.4545
H56 H 1.0662 0.7083 0.4425
H57 H 0.9852 0.7126 0.3397
C36 C 1.4315(5) 0.6689(5) 0.2011(5)
H58 H 1.4544 0.7477 0.2319
C37 C 1.4295(8) 0.6184(8) 0.0782(7)
H59 H 1.3784 0.6486 0.0388
H60 H 1.4099 0.5408 0.0479
H61 H 1.4990 0.6341 0.0710
C38 C 1.5123(5) 0.6201(7) 0.2568(7)
H62 H 1.5800 0.6343 0.2453
H63 H 1.4912 0.5427 0.2265
H64 H 1.5180 0.6515 0.3349
P2A P 1.62564(12) 1.14342(12) 0.60333(12)
P1A P 1.42364(12) 0.35149(11) 0.38249(12)
Rb2A Rb 1.66544(4) 0.40513(4) 0.56751(4)
Rb1A Rb 1.46211(4) 1.06069(4) 0.34051(4)
H2A H 1.7052 1.0932 0.5679
H1A H 1.4694 0.3620 0.3087
loop_
_geom_bond_atom_site_label_1
_geom_bond_atom_site_label_2
_geom_bond_site_symmetry_1
_geom_bond_site_symmetry_2
Rb1 P1 1_555 1_555
Rb2 P1 1_555 1_555
P1 H1 1_555 1_555
P2 Rb1 1_555 1_555
H2 P2 1_555 1_555
O1 Rb2 1_555 1_555
O2 Rb1 1_555 1_555
C1 O1 1_555 1_555
H3 C1 1_555 1_555
H4 C1 1_555 1_555
C2 O2 1_555 1_555
H5 C2 1_555 1_555
H6 C2 1_555 1_555
C3 C2 1_555 1_555
H7 C3 1_555 1_555
H8 C3 1_555 1_555
C4 C3 1_555 1_555
H9 C4 1_555 1_555
H10 C4 1_555 1_555
C5 H11 1_555 1_555
H12 C5 1_555 1_555
C6 O1 1_555 1_555
H13 C6 1_555 1_555
H14 C6 1_555 1_555
C7 C1 1_555 1_555
H15 C7 1_555 1_555
H16 C7 1_555 1_555
C8 O2 1_555 1_555
H17 C8 1_555 1_555
H18 C8 1_555 1_555
C9 Rb1 1_555 1_555
C10 Rb1 1_555 1_555
C11 Rb1 1_555 1_555
H19 C11 1_555 1_555
C12 Rb1 1_555 1_555
C13 Rb1 1_555 1_555
H20 C13 1_555 1_555
C14 Rb1 1_555 1_555
C15 C12 1_555 1_555
H21 C15 1_555 1_555
C16 C15 1_555 1_555
H22 C16 1_555 1_555
H23 C16 1_555 1_555
H24 C16 1_555 1_555
C17 C15 1_555 1_555
H25 C17 1_555 1_555
H26 C17 1_555 1_555
H27 C17 1_555 1_555
C18 C10 1_555 1_555
H28 C18 1_555 1_555
C19 C18 1_555 1_555
H29 C19 1_555 1_555
H30 C19 1_555 1_555
H31 C19 1_555 1_555
C20 C18 1_555 1_555
H32 C20 1_555 1_555
H33 C20 1_555 1_555
H34 C20 1_555 1_555
C21 C14 1_555 1_555
H35 C21 1_555 1_555
C22 C21 1_555 1_555
H36 C22 1_555 1_555
H37 C22 1_555 1_555
H38 C22 1_555 1_555
C23 C21 1_555 1_555
H39 C23 1_555 1_555
H40 C23 1_555 1_555
H41 C23 1_555 1_555
C24 Rb2 1_555 1_555
C25 Rb2 1_555 1_555
H42 C25 1_555 1_555
C26 Rb2 1_555 1_555
C27 Rb2 1_555 1_555
H43 C27 1_555 1_555
C28 Rb2 1_555 1_555
C29 Rb2 1_555 1_555
C30 C26 1_555 1_555
H44 C30 1_555 1_555
C31 C30 1_555 1_555
H45 C31 1_555 1_555
H46 C31 1_555 1_555
H47 C31 1_555 1_555
C32 C30 1_555 1_555
H48 C32 1_555 1_555
H49 C32 1_555 1_555
H50 C32 1_555 1_555
C33 C24 1_555 1_555
H51 C33 1_555 1_555
C34 C33 1_555 1_555
H52 C34 1_555 1_555
H53 C34 1_555 1_555
H54 C34 1_555 1_555
C35 C33 1_555 1_555
H55 C35 1_555 1_555
H56 C35 1_555 1_555
H57 C35 1_555 1_555
C36 C28 1_555 1_555
H58 C36 1_555 1_555
C37 C36 1_555 1_555
H59 C37 1_555 1_555
H60 C37 1_555 1_555
H61 C37 1_555 1_555
C38 C36 1_555 1_555
H62 C38 1_555 1_555
H63 C38 1_555 1_555
H64 C38 1_555 1_555
P2A Rb1 1_555 1_555
P1A Rb2 1_555 1_555
Rb2A P1 1_555 1_555
Rb1A P2 1_555 1_555
H2A P2A 1_555 1_555
H1A P1A 1_555 1_555
Rb2 P2 1_555 1_555
P1 C9 1_555 1_555
P2 C29 1_555 1_555
C4 C8 1_555 1_555
C5 C7 1_555 1_555
C5 C6 1_555 1_555
C9 C10 1_555 1_555
C9 C14 1_555 1_555
C10 C11 1_555 1_555
C11 C12 1_555 1_555
C12 C13 1_555 1_555
C13 C14 1_555 1_555
C24 C29 1_555 1_555
C24 C25 1_555 1_555
C25 C26 1_555 1_555
C26 C27 1_555 1_555
C27 C28 1_555 1_555
C28 C29 1_555 1_555
P2A Rb1A 1_555 1_555
P1A Rb2A 1_555 1_555

#END
