
#######################################################################
#
#                 Cambridge Crystallographic Data Centre
#                                CCDC 
#
#######################################################################
#
# If this CIF has been generated from an entry in the Cambridge 
# Structural Database, then it will include bibliographic, chemical, 
# crystal, experimental, refinement or atomic coordinate data resulting 
# from the CCDC's data processing and validation procedures.
#
#######################################################################

data_ECOJIP
_symmetry_cell_setting           triclinic
_symmetry_space_group_name_H-M   'P -1'
_symmetry_Int_Tables_number      2
_space_group_name_Hall           '-P 1'
loop_
_symmetry_equiv_pos_site_id
_symmetry_equiv_pos_as_xyz
1 x,y,z
2 -x,-y,-z
_cell_length_a                   6.771(2)
_cell_length_b                   10.158(6)
_cell_length_c                   11.635(4)
_cell_angle_alpha                73.210(2)
_cell_angle_beta                 74.5700(10)
_cell_angle_gamma                87.800(2)
_cell_volume                     737.882
loop_
_atom_site_label
_atom_site_type_symbol
_atom_site_fract_x
_atom_site_fract_y
_atom_site_fract_z
Mn1 Mn 0.5000 0.0000 0.0000
Mn2 Mn 0.77140(5) 0.16444(3) 0.18069(3)
O1 O 0.9029(3) -0.04000(19) 0.19618(18)
H1 H 0.8641 -0.0770 0.1486
H2 H 1.0408 -0.0259 0.1755
N1 N 0.6915(3) 0.1747(2) 0.00415(19)
N2 N 0.7774(3) 0.2653(2) -0.08763(19)
N3 N 0.8615(5) 0.3516(3) -0.1742(2)
O2 O 0.0656(3) 0.27368(18) 0.07228(16)
O3 O 0.2454(3) 0.13580(17) -0.03355(17)
C1 C 0.1983(3) 0.2520(2) -0.0178(2)
C2 C 0.3055(4) 0.3782(2) -0.1200(2)
C3 C 0.2759(4) 0.5093(3) -0.1035(2)
H3 H 0.1955 0.5162 -0.0241
C4 C 0.4711(4) 0.6131(3) -0.3035(3)
H4 H 0.5312 0.6950 -0.3678
N4 N 0.3541(4) 0.6258(2) -0.1929(2)
C5 C 0.5087(5) 0.4877(3) -0.3274(3)
H5 H 0.5913 0.4831 -0.4071
C6 C 0.4237(4) 0.3681(3) -0.2346(3)
H6 H 0.4472 0.2797 -0.2490
O4 O 0.4845(3) 0.0657(2) 0.30060(16)
O5 O 0.3453(3) -0.04628(19) 0.19842(15)
C7 C 0.3627(4) -0.0220(2) 0.2956(2)
C8 C 0.2298(4) -0.1099(2) 0.4187(2)
C9 C 0.2314(4) -0.0852(2) 0.5303(2)
H7 H 0.3103 -0.0066 0.5262
C10 C 0.0142(4) -0.2741(3) 0.6475(2)
H8 H -0.0639 -0.3305 0.7271
N5 N 0.1288(3) -0.1654(2) 0.64352(19)
C11 C 0.0038(5) -0.3059(3) 0.5409(3)
H9 H -0.0763 -0.3850 0.5474
C12 C 0.1123(4) -0.2233(3) 0.4248(2)
H10 H 0.1064 -0.2437 0.3501
N1A N 0.3085(3) -0.1747(2) -0.00415(19)
N2A N 0.2226(3) -0.2653(2) 0.08763(19)
N3A N 0.1385(5) -0.3516(3) 0.1742(2)
O2A O 0.9344(3) -0.27368(18) -0.07228(16)
O3A O 0.7546(3) -0.13580(17) 0.03355(17)
C1A C 0.8017(3) -0.2520(2) 0.0178(2)
C2A C 0.6945(4) -0.3782(2) 0.1200(2)
C3A C 0.7241(4) -0.5093(3) 0.1035(2)
H3A H 0.8045 -0.5162 0.0241
C4A C 0.5289(4) -0.6131(3) 0.3035(3)
H4A H 0.4688 -0.6950 0.3678
N4A N 0.6459(4) -0.6258(2) 0.1929(2)
C5A C 0.4913(5) -0.4877(3) 0.3274(3)
H5A H 0.4087 -0.4831 0.4071
C6A C 0.5763(4) -0.3681(3) 0.2346(3)
H6A H 0.5528 -0.2797 0.2490
O4A O 0.5155(3) -0.0657(2) -0.30060(16)
O5A O 0.6547(3) 0.04628(19) -0.19842(15)
C7A C 0.6373(4) 0.0220(2) -0.2956(2)
C8A C 0.7702(4) 0.1099(2) -0.4187(2)
C9A C 0.7686(4) 0.0852(2) -0.5303(2)
H7A H 0.6897 0.0066 -0.5262
C10A C 0.9858(4) 0.2741(3) -0.6475(2)
H8A H 1.0639 0.3305 -0.7271
N5A N 0.8712(3) 0.1654(2) -0.64352(19)
C11A C 0.9962(5) 0.3059(3) -0.5409(3)
H9A H 1.0763 0.3850 -0.5474
C12A C 0.8877(4) 0.2233(3) -0.4248(2)
H10A H 0.8936 0.2437 -0.3501
Mn2A Mn 0.22860(5) -0.16444(3) -0.18069(3)
O1A O 0.0971(3) 0.04000(19) -0.19618(18)
H1A H 0.1359 0.0770 -0.1486
H2A H -0.0408 0.0259 -0.1755
O2_2 O 1.0656(3) 0.27368(18) 0.07228(16)
N4A_2 N 0.6459(4) 0.3742(2) 0.1929(2)
N5A_2 N 0.8712(3) 0.1654(2) 0.35648(19)
Mn2_2 Mn -0.22860(5) 0.16444(3) 0.18069(3)
Mn2A_2 Mn 0.22860(5) 0.83556(3) -0.18069(3)
Mn2A_3 Mn 0.22860(5) -0.16444(3) 0.81931(3)
Mn2A_4 Mn 1.22860(5) -0.16444(3) -0.18069(3)
Mn2_3 Mn 0.77140(5) -0.83556(3) 0.18069(3)
Mn2_4 Mn 0.77140(5) 0.16444(3) -0.81931(3)
O2A_2 O -0.0656(3) -0.27368(18) -0.07228(16)
N4_2 N 0.3541(4) -0.3742(2) -0.1929(2)
N5_2 N 0.1288(3) -0.1654(2) -0.35648(19)
loop_
_geom_bond_atom_site_label_1
_geom_bond_atom_site_label_2
_geom_bond_site_symmetry_1
_geom_bond_site_symmetry_2
Mn1 N1 1_555 1_555
Mn2 O1 1_555 1_555
O1 H1 1_555 1_555
H2 O1 1_555 1_555
N1 Mn2 1_555 1_555
N2 N1 1_555 1_555
N3 N2 1_555 1_555
O2 C1 1_555 1_555
O3 Mn1 1_555 1_555
C1 O3 1_555 1_555
C2 C1 1_555 1_555
C3 C2 1_555 1_555
H3 C3 1_555 1_555
C4 H4 1_555 1_555
N4 C3 1_555 1_555
C5 C4 1_555 1_555
H5 C5 1_555 1_555
C6 C2 1_555 1_555
H6 C6 1_555 1_555
O4 Mn2 1_555 1_555
O5 Mn1 1_555 1_555
C7 O4 1_555 1_555
C8 C7 1_555 1_555
C9 C8 1_555 1_555
H7 C9 1_555 1_555
C10 H8 1_555 1_555
N5 C9 1_555 1_555
C11 C10 1_555 1_555
H9 C11 1_555 1_555
C12 C8 1_555 1_555
H10 C12 1_555 1_555
N1A Mn1 1_555 1_555
N2A N1A 1_555 1_555
N3A N2A 1_555 1_555
O2A C1A 1_555 1_555
O3A Mn1 1_555 1_555
C1A O3A 1_555 1_555
C2A C1A 1_555 1_555
C3A C2A 1_555 1_555
H3A C3A 1_555 1_555
C4A H4A 1_555 1_555
N4A C3A 1_555 1_555
C5A C4A 1_555 1_555
H5A C5A 1_555 1_555
C6A C2A 1_555 1_555
H6A C6A 1_555 1_555
O4A C7A 1_555 1_555
O5A Mn1 1_555 1_555
C7A O5A 1_555 1_555
C8A C7A 1_555 1_555
C9A C8A 1_555 1_555
H7A C9A 1_555 1_555
C10A H8A 1_555 1_555
N5A C9A 1_555 1_555
C11A C10A 1_555 1_555
H9A C11A 1_555 1_555
C12A C8A 1_555 1_555
H10A C12A 1_555 1_555
Mn2A N1A 1_555 1_555
O1A Mn2A 1_555 1_555
H1A O1A 1_555 1_555
H2A O1A 1_555 1_555
O2_2 Mn2 1_555 1_555
N4A_2 Mn2 1_555 1_555
N5A_2 Mn2 1_555 1_555
Mn2_2 O2 1_555 1_555
Mn2A_2 N4 1_555 1_555
Mn2A_3 N5 1_555 1_555
Mn2A_4 O2A 1_555 1_555
Mn2_3 N4A 1_555 1_555
Mn2_4 N5A 1_555 1_555
O2A_2 Mn2A 1_555 1_555
N4_2 Mn2A 1_555 1_555
N5_2 Mn2A 1_555 1_555
C4 N4 1_555 1_555
C5 C6 1_555 1_555
O5 C7 1_555 1_555
C10 N5 1_555 1_555
C11 C12 1_555 1_555
C4A N4A 1_555 1_555
C5A C6A 1_555 1_555
O4A Mn2A 1_555 1_555
C10A N5A 1_555 1_555
C11A C12A 1_555 1_555

#END
