
#######################################################################
#
#                 Cambridge Crystallographic Data Centre
#                                CCDC 
#
#######################################################################
#
# If this CIF has been generated from an entry in the Cambridge 
# Structural Database, then it will include bibliographic, chemical, 
# crystal, experimental, refinement or atomic coordinate data resulting 
# from the CCDC's data processing and validation procedures.
#
#######################################################################

data_ECOKIQ
_symmetry_cell_setting           triclinic
_symmetry_space_group_name_H-M   'P -1'
_symmetry_Int_Tables_number      2
_space_group_name_Hall           '-P 1'
loop_
_symmetry_equiv_pos_site_id
_symmetry_equiv_pos_as_xyz
1 x,y,z
2 -x,-y,-z
_cell_length_a                   6.248(2)
_cell_length_b                   8.035(3)
_cell_length_c                   11.014(4)
_cell_angle_alpha                86.035(6)
_cell_angle_beta                 87.889(6)
_cell_angle_gamma                82.809(5)
_cell_volume                     547.048
loop_
_atom_site_label
_atom_site_type_symbol
_atom_site_fract_x
_atom_site_fract_y
_atom_site_fract_z
Cu1 Cu 0.5000 0.0000 0.5000
Cu2 Cu 0.99477(10) 0.14197(8) 0.18476(6)
Cu3 Cu 1.0000 -0.5000 0.5000
P1 P 0.5152(2) 0.09367(18) 0.23094(13)
P2 P 0.8423(2) -0.17195(18) 0.33967(12)
O1 O 0.5036(7) 0.1635(5) 0.3574(4)
O2 O 0.6930(6) 0.1586(5) 0.1508(3)
O3 O 0.3025(6) 0.1226(5) 0.1680(4)
O4 O 0.7943(6) -0.0895(5) 0.4594(3)
O5 O 1.0102(6) -0.0877(5) 0.2601(3)
O6 O 0.9117(7) -0.3584(5) 0.3585(4)
O7 O 0.4240(6) -0.1961(5) 0.3421(4)
H1 H 0.298(5) -0.181(9) 0.304(5)
O8 O 0.9359(7) 0.2624(5) 0.3752(4)
H2 H 1.021(6) 0.201(7) 0.430(4)
H3 H 0.795(3) 0.247(8) 0.382(5)
O9 O 1.3025(7) -0.5291(6) 0.4260(5)
H4 H 1.408(7) -0.466(7) 0.435(6)
H5 H 1.343(9) -0.629(4) 0.396(6)
C1 C 0.5874(8) -0.1353(7) 0.2587(5)
C2 C 0.6006(11) -0.2226(9) 0.1402(6)
H6 H 0.6386 -0.3413 0.1567
H7 H 0.7083 -0.1792 0.0868
H8 H 0.4632 -0.2025 0.1021
N1 N 0.9916(7) 0.3593(6) 0.0785(4)
C3 C 0.8904(11) 0.3782(8) -0.0260(6)
H9 H 0.814(12) 0.307(10) -0.045(6)
C4 C 1.1018(10) 0.4823(8) 0.1052(6)
H10 H 1.176(12) 0.471(9) 0.184(6)
C4A C 0.8982(10) 0.5177(8) -0.1052(6)
N1A N 1.0084(7) 0.6407(6) -0.0785(4)
C3A C 1.1096(11) 0.6218(8) 0.0260(6)
H9A H 1.186(12) 0.693(10) 0.045(6)
H10A H 0.824(12) 0.529(9) -0.184(6)
P1A P 0.4848(2) -0.09367(18) 0.76906(13)
P2A P 0.1577(2) 0.17195(18) 0.66033(12)
O1A O 0.4964(7) -0.1635(5) 0.6426(4)
O2A O 0.3070(6) -0.1586(5) 0.8492(3)
O3A O 0.6975(6) -0.1226(5) 0.8320(4)
O4A O 0.2057(6) 0.0895(5) 0.5406(3)
O5A O -0.0102(6) 0.0877(5) 0.7399(3)
O6A O 0.0883(7) 0.3584(5) 0.6415(4)
O7A O 0.5760(6) 0.1961(5) 0.6579(4)
H1A H 0.702(5) 0.181(9) 0.696(5)
C1A C 0.4126(8) 0.1353(7) 0.7413(5)
C2A C 0.3994(11) 0.2226(9) 0.8598(6)
H6A H 0.3614 0.3413 0.8433
H7A H 0.2917 0.1792 0.9132
H8A H 0.5368 0.2025 0.8979
Cu2A Cu 0.00523(10) -0.14197(8) 0.81524(6)
O8_2 O 0.9359(7) -0.7376(5) 0.3752(4)
H2_2 H 1.021(6) -0.799(7) 0.430(4)
H3_2 H 0.795(3) -0.753(8) 0.382(5)
O9A O 0.6975(7) -0.4709(6) 0.5740(5)
H4A H 0.592(7) -0.534(7) 0.565(6)
H5A H 0.657(9) -0.371(4) 0.604(6)
O3_2 O 1.3025(6) 0.1226(5) 0.1680(4)
O6A_2 O 1.0883(7) -0.6416(5) 0.6415(4)
O8A O 1.0641(7) -0.2624(5) 0.6248(4)
Cu2_2 Cu -0.00523(10) 0.14197(8) 0.18476(6)
Cu3_2 Cu 1.0000 0.5000 0.5000
Cu2A_2 Cu 1.00523(10) 0.85803(8) -0.18476(6)
Cu2A_3 Cu 1.00523(10) -0.14197(8) 0.81524(6)
Cu3_3 Cu 0.0000 0.5000 0.5000
O3A_2 O -0.3025(6) -0.1226(5) 0.8320(4)
O8A_2 O 0.0641(7) -0.2624(5) 0.6248(4)
N1A_2 N 0.0084(7) -0.3593(6) 0.9215(4)
Cu2_3 Cu 0.99477(10) -0.85803(8) 0.18476(6)
H2A H 0.979(6) -0.201(7) 0.570(4)
H3A H 1.205(3) -0.247(8) 0.618(5)
H2A_2 H -0.021(6) -0.201(7) 0.570(4)
H3A_2 H 0.205(3) -0.247(8) 0.618(5)
loop_
_geom_bond_atom_site_label_1
_geom_bond_atom_site_label_2
_geom_bond_site_symmetry_1
_geom_bond_site_symmetry_2
Cu1 O1 1_555 1_555
Cu2 O2 1_555 1_555
Cu3 O6 1_555 1_555
P1 O1 1_555 1_555
P2 O4 1_555 1_555
O2 P1 1_555 1_555
O3 P1 1_555 1_555
O4 Cu1 1_555 1_555
O5 Cu2 1_555 1_555
O6 P2 1_555 1_555
O7 Cu1 1_555 1_555
H1 O7 1_555 1_555
O8 Cu2 1_555 1_555
H2 O8 1_555 1_555
H3 O8 1_555 1_555
O9 Cu3 1_555 1_555
H4 O9 1_555 1_555
H5 O9 1_555 1_555
C1 P1 1_555 1_555
C2 C1 1_555 1_555
H6 C2 1_555 1_555
H7 C2 1_555 1_555
H8 C2 1_555 1_555
N1 Cu2 1_555 1_555
C3 N1 1_555 1_555
H9 C3 1_555 1_555
C4 N1 1_555 1_555
H10 C4 1_555 1_555
C4A C3 1_555 1_555
N1A C4A 1_555 1_555
C3A C4 1_555 1_555
H9A C3A 1_555 1_555
H10A C4A 1_555 1_555
P1A O1A 1_555 1_555
P2A O4A 1_555 1_555
O1A Cu1 1_555 1_555
O2A P1A 1_555 1_555
O3A P1A 1_555 1_555
O4A Cu1 1_555 1_555
O5A P2A 1_555 1_555
O6A P2A 1_555 1_555
O7A Cu1 1_555 1_555
H1A O7A 1_555 1_555
C1A P1A 1_555 1_555
C2A C1A 1_555 1_555
H6A C2A 1_555 1_555
H7A C2A 1_555 1_555
H8A C2A 1_555 1_555
Cu2A O2A 1_555 1_555
O8_2 Cu3 1_555 1_555
H2_2 O8_2 1_555 1_555
H3_2 O8_2 1_555 1_555
O9A Cu3 1_555 1_555
H4A O9A 1_555 1_555
H5A O9A 1_555 1_555
O3_2 Cu2 1_555 1_555
O6A_2 Cu3 1_555 1_555
O8A Cu3 1_555 1_555
Cu2_2 O3 1_555 1_555
Cu3_2 O8 1_555 1_555
Cu2A_2 N1A 1_555 1_555
Cu2A_3 O3A 1_555 1_555
Cu3_3 O6A 1_555 1_555
O3A_2 Cu2A 1_555 1_555
O8A_2 Cu2A 1_555 1_555
N1A_2 Cu2A 1_555 1_555
Cu2_3 O8_2 1_555 1_555
H2A O8A 1_555 1_555
H3A O8A 1_555 1_555
H2A_2 O8A_2 1_555 1_555
H3A_2 O8A_2 1_555 1_555
P2 C1 1_555 1_555
P2 O5 1_555 1_555
O7 C1 1_555 1_555
N1A C3A 1_555 1_555
P2A C1A 1_555 1_555
O5A Cu2A 1_555 1_555
O7A C1A 1_555 1_555
O8A Cu2A_3 1_555 1_555

#END
