
#######################################################################
#
#                 Cambridge Crystallographic Data Centre
#                                CCDC 
#
#######################################################################
#
# If this CIF has been generated from an entry in the Cambridge 
# Structural Database, then it will include bibliographic, chemical, 
# crystal, experimental, refinement or atomic coordinate data resulting 
# from the CCDC's data processing and validation procedures.
#
#######################################################################

data_ECOLOZ
_symmetry_cell_setting           orthorhombic
_symmetry_space_group_name_H-M   'P c a 21'
_symmetry_Int_Tables_number      29
_space_group_name_Hall           'P 2c -2ac'
loop_
_symmetry_equiv_pos_site_id
_symmetry_equiv_pos_as_xyz
1 x,y,z
2 -x,-y,1/2+z
3 1/2+x,-y,z
4 1/2-x,y,1/2+z
_cell_length_a                   15.882(3)
_cell_length_b                   4.7671(9)
_cell_length_c                   9.9959(19)
_cell_angle_alpha                90
_cell_angle_beta                 90
_cell_angle_gamma                90
_cell_volume                     756.8
loop_
_atom_site_label
_atom_site_type_symbol
_atom_site_fract_x
_atom_site_fract_y
_atom_site_fract_z
Zn1 Zn 0.357427(10) 0.34610(3) 0.68899(2)
O1 O 0.39247(7) -0.0458(2) 0.70613(16)
O2 O 0.46227(7) -0.4429(2) 0.6897(2)
N1 N 0.80559(9) -0.4014(3) 0.51005(16)
N2 N 0.83748(10) -0.5884(4) 0.41996(18)
N3 N 0.79146(10) -0.5873(3) 0.31537(17)
N4 N 0.72768(9) -0.3996(3) 0.33281(16)
C1 C 0.73829(11) -0.2884(3) 0.45348(19)
C2 C 0.67924(10) -0.0823(4) 0.5174(2)
H1 H 0.6660 0.0656 0.4542
H2 H 0.7063 0.0025 0.5944
C3 C 0.59827(12) -0.2273(4) 0.5613(2)
H3 H 0.5706 -0.3051 0.4832
H4 H 0.6124 -0.3817 0.6204
C4 C 0.53769(12) -0.0343(4) 0.6324(2)
H5 H 0.5658 0.0479 0.7091
H6 H 0.5222 0.1171 0.5724
C5 C 0.45938(10) -0.1794(3) 0.6789(2)
Zn1_2 Zn 0.357427(10) -0.65390(3) 0.68899(2)
Zn1A Zn 0.642573(10) -0.34610(3) 0.18899(2)
Zn1B Zn 0.857427(10) -0.34610(3) 0.68899(2)
O2_2 O 0.46227(7) 0.5571(2) 0.6897(2)
N1B N 0.30559(9) 0.4014(3) 0.51005(16)
N4A N 0.27232(9) 0.3996(3) 0.83281(16)
loop_
_geom_bond_atom_site_label_1
_geom_bond_atom_site_label_2
_geom_bond_site_symmetry_1
_geom_bond_site_symmetry_2
Zn1 O1 1_555 1_555
O1 C5 1_555 1_555
O2 C5 1_555 1_555
N1 N2 1_555 1_555
N2 N3 1_555 1_555
N3 N4 1_555 1_555
N4 C1 1_555 1_555
C1 N1 1_555 1_555
C2 C1 1_555 1_555
H1 C2 1_555 1_555
H2 C2 1_555 1_555
C3 C2 1_555 1_555
H3 C3 1_555 1_555
H4 C3 1_555 1_555
C4 C3 1_555 1_555
H5 C4 1_555 1_555
H6 C4 1_555 1_555
C5 C4 1_555 1_555
Zn1_2 O2 1_555 1_555
Zn1A N4 1_555 1_555
Zn1B N1 1_555 1_555
O2_2 Zn1 1_555 1_555
N1B Zn1 1_555 1_555
N4A Zn1 1_555 1_555

#END
