
#######################################################################
#
#                 Cambridge Crystallographic Data Centre
#                                CCDC 
#
#######################################################################
#
# If this CIF has been generated from an entry in the Cambridge 
# Structural Database, then it will include bibliographic, chemical, 
# crystal, experimental, refinement or atomic coordinate data resulting 
# from the CCDC's data processing and validation procedures.
#
#######################################################################

data_ECOPUI01
_symmetry_cell_setting           orthorhombic
_symmetry_space_group_name_H-M   'P 21 21 21'
_symmetry_Int_Tables_number      19
_space_group_name_Hall           'P 2ac 2ab'
loop_
_symmetry_equiv_pos_site_id
_symmetry_equiv_pos_as_xyz
1 x,y,z
2 1/2-x,-y,1/2+z
3 1/2+x,1/2-y,-z
4 -x,1/2+y,1/2-z
_cell_length_a                   6.607(2)
_cell_length_b                   13.075(3)
_cell_length_c                   18.444(4)
_cell_angle_alpha                90
_cell_angle_beta                 90
_cell_angle_gamma                90
_cell_volume                     1593.31
loop_
_atom_site_label
_atom_site_type_symbol
_atom_site_fract_x
_atom_site_fract_y
_atom_site_fract_z
Ca1 Ca -0.0381(2) 0.25457(13) 0.05587(8)
O1 O 0.2969(8) 0.2064(5) 0.0716(3)
O2 O 0.6250(8) 0.1962(4) 0.0582(3)
O3 O -0.1139(9) 0.2553(5) 0.1872(3)
H1 H -0.233(7) 0.285(7) 0.188(4)
H2 H -0.079(11) 0.267(7) 0.2325(19)
O4 O -0.1772(9) 0.4317(5) 0.0636(3)
O5 O -0.0318(9) 0.0773(4) 0.0113(3)
H3 H 0.044(8) 0.056(6) -0.025(3)
H4 H -0.146(6) 0.084(7) -0.014(3)
O6 O 0.1465(9) 0.4127(5) 0.0872(3)
N1 N 0.4788(13) -0.1215(6) 0.3199(4)
H5 H 0.389(12) -0.092(7) 0.349(4)
H6 H 0.595(8) -0.142(8) 0.338(5)
N2 N 0.0979(14) 0.8999(7) 0.1089(5)
H7 H 0.036(15) 0.926(7) 0.071(4)
H8 H 0.217(8) 0.920(8) 0.123(5)
C1 C 0.4751(13) 0.0969(6) 0.1532(4)
C2 C 0.6368(14) 0.0307(7) 0.1610(5)
H9 H 0.7485 0.0348 0.1287
C3 C 0.6357(14) -0.0417(7) 0.2161(5)
H10 H 0.7451 -0.0886 0.2198
C4 C 0.4791(14) -0.0472(7) 0.2656(4)
C5 C 0.3212(15) 0.0218(8) 0.2581(5)
H11 H 0.2144 0.0213 0.2926
C6 C 0.3153(14) 0.0908(8) 0.2022(5)
H12 H 0.2016 0.1347 0.1969
C7 C 0.4644(13) 0.1694(6) 0.0917(4)
C8 C 0.0183(14) 0.5836(6) 0.0862(4)
C9 C -0.1305(15) 0.6505(7) 0.0638(5)
H13 H -0.2521 0.6245 0.0434
C10 C -0.1041(14) 0.7571(8) 0.0707(5)
H14 H -0.2066 0.8026 0.0545
C11 C 0.0725(15) 0.7950(7) 0.1012(5)
C12 C 0.2222(15) 0.7271(7) 0.1249(5)
H15 H 0.3421 0.7523 0.1470
C13 C 0.1939(15) 0.6224(7) 0.1159(5)
H16 H 0.2979 0.5767 0.1305
C14 C -0.0045(13) 0.4706(6) 0.0786(4)
Ca1B Ca 0.4619(2) 0.24543(13) -0.05587(8)
Ca1_2 Ca 0.9619(2) 0.25457(13) 0.05587(8)
O1B O -0.2031(8) 0.2936(5) -0.0716(3)
O2_2 O -0.3750(8) 0.1962(4) 0.0582(3)
O2B O 0.1250(8) 0.3038(4) -0.0582(3)
loop_
_geom_bond_atom_site_label_1
_geom_bond_atom_site_label_2
_geom_bond_site_symmetry_1
_geom_bond_site_symmetry_2
Ca1 O1 1_555 1_555
O1 C7 1_555 1_555
O2 C7 1_555 1_555
O3 Ca1 1_555 1_555
H1 O3 1_555 1_555
H2 O3 1_555 1_555
O4 Ca1 1_555 1_555
O5 Ca1 1_555 1_555
H3 O5 1_555 1_555
H4 O5 1_555 1_555
O6 Ca1 1_555 1_555
N1 H5 1_555 1_555
H6 N1 1_555 1_555
N2 H7 1_555 1_555
H8 N2 1_555 1_555
C1 C2 1_555 1_555
C2 H9 1_555 1_555
C3 C2 1_555 1_555
H10 C3 1_555 1_555
C4 N1 1_555 1_555
C5 C4 1_555 1_555
H11 C5 1_555 1_555
C6 C1 1_555 1_555
H12 C6 1_555 1_555
C7 C1 1_555 1_555
C8 C9 1_555 1_555
C9 H13 1_555 1_555
C10 C9 1_555 1_555
H14 C10 1_555 1_555
C11 N2 1_555 1_555
C12 C11 1_555 1_555
H15 C12 1_555 1_555
C13 C8 1_555 1_555
H16 C13 1_555 1_555
C14 O4 1_555 1_555
Ca1B O1 1_555 1_555
Ca1_2 O2 1_555 1_555
O1B Ca1 1_555 1_555
O2_2 Ca1 1_555 1_555
O2B Ca1 1_555 1_555
O2 Ca1B 1_555 1_555
O6 C14 1_555 1_555
C3 C4 1_555 1_555
C5 C6 1_555 1_555
C8 C14 1_555 1_555
C10 C11 1_555 1_555
C12 C13 1_555 1_555
Ca1B O2B 1_555 1_555

#END
