
#######################################################################
#
#                 Cambridge Crystallographic Data Centre
#                                CCDC 
#
#######################################################################
#
# If this CIF has been generated from an entry in the Cambridge 
# Structural Database, then it will include bibliographic, chemical, 
# crystal, experimental, refinement or atomic coordinate data resulting 
# from the CCDC's data processing and validation procedures.
#
#######################################################################

data_ECOPUI
_symmetry_cell_setting           orthorhombic
_symmetry_space_group_name_H-M   'P 21 21 21'
_symmetry_Int_Tables_number      19
_space_group_name_Hall           'P 2ac 2ab'
loop_
_symmetry_equiv_pos_site_id
_symmetry_equiv_pos_as_xyz
1 x,y,z
2 1/2-x,-y,1/2+z
3 -x,1/2+y,1/2-z
4 1/2+x,1/2-y,-z
_cell_length_a                   6.6289(6)
_cell_length_b                   13.0871(16)
_cell_length_c                   18.479(2)
_cell_angle_alpha                90
_cell_angle_beta                 90
_cell_angle_gamma                90
_cell_volume                     1603.11
loop_
_atom_site_label
_atom_site_type_symbol
_atom_site_fract_x
_atom_site_fract_y
_atom_site_fract_z
Ca1 Ca 0.03838(6) 0.75433(3) 0.94423(2)
O1 O 0.1774(2) 0.93214(11) 0.93633(9)
O2 O 0.3750(2) 0.69610(11) 0.94142(9)
O3 O -0.1460(2) 0.91298(12) 0.91283(9)
O4 O 0.7046(2) 0.70649(12) 0.92828(8)
O5 O 0.0330(3) 0.57861(11) 0.98936(9)
O6 O 0.1133(3) 0.75574(16) 0.81301(9)
N1 N 0.5226(4) 0.37968(16) 0.68001(12)
N2 N -0.0995(5) 1.39899(17) 0.89113(16)
C1 C 0.5185(4) 0.45417(16) 0.73489(11)
C2 C -0.0195(4) 1.08297(16) 0.91381(11)
C3 C 0.5269(3) 0.59762(15) 0.84729(11)
C4 C 0.5354(3) 0.67120(14) 0.90846(10)
C5 C 0.1303(4) 1.15127(17) 0.93588(14)
C6 C 0.0051(3) 0.97025(16) 0.92159(11)
C7 C 0.6810(4) 0.5217(2) 0.74195(14)
C8 C 0.3643(4) 0.53105(19) 0.83927(13)
C9 C 0.6845(4) 0.59178(19) 0.79778(13)
C10 C 0.1037(4) 1.25581(19) 0.92961(14)
C11 C -0.1961(4) 1.12273(18) 0.88387(13)
C12 C -0.0742(4) 1.29523(17) 0.89930(13)
C13 C 0.3618(4) 0.45917(19) 0.78446(14)
C14 C -0.2229(4) 1.22693(18) 0.87601(14)
H1 H 0.239(5) 1.123(2) 0.9588(14)
H2 H 0.125(5) 0.573(2) 1.0246(16)
H3 H 0.785(5) 0.641(2) 0.8005(16)
H4 H -0.066(6) 0.559(3) 1.008(2)
H5 H 0.266(5) 0.532(2) 0.8763(16)
H6 H -0.038(5) 1.432(2) 0.9165(16)
H7 H 0.210(4) 1.300(2) 0.9471(15)
H8 H -0.290(5) 1.082(2) 0.8707(14)
H9 H 0.777(6) 0.514(2) 0.7076(18)
H10 H 0.409(5) 0.359(2) 0.6710(15)
H11 H -0.344(5) 1.250(2) 0.8565(14)
H12 H 0.589(5) 0.403(2) 0.6397(17)
H13 H 0.071(7) 0.726(3) 0.781(3)
H14 H 0.208(8) 0.782(4) 0.806(3)
H15 H 0.257(5) 0.418(2) 0.7797(16)
H16 H -0.211(7) 1.415(3) 0.879(2)
Ca1C Ca 0.53838(6) 0.74567(3) 1.05577(2)
Ca1_2 Ca 1.03838(6) 0.75433(3) 0.94423(2)
O2C O -0.1250(2) 0.80390(11) 1.05858(9)
O4_2 O -0.2954(2) 0.70649(12) 0.92828(8)
O4C O 0.2046(2) 0.79351(12) 1.07172(8)
loop_
_geom_bond_atom_site_label_1
_geom_bond_atom_site_label_2
_geom_bond_site_symmetry_1
_geom_bond_site_symmetry_2
Ca1 O1 1_555 1_555
O1 C6 1_555 1_555
O2 Ca1 1_555 1_555
O3 Ca1 1_555 1_555
O4 C4 1_555 1_555
O5 Ca1 1_555 1_555
O6 Ca1 1_555 1_555
N1 C1 1_555 1_555
N2 C12 1_555 1_555
C1 C7 1_555 1_555
C2 C5 1_555 1_555
C3 C4 1_555 1_555
C4 O2 1_555 1_555
C5 C10 1_555 1_555
C6 O3 1_555 1_555
C7 C9 1_555 1_555
C8 C3 1_555 1_555
C9 C3 1_555 1_555
C10 C12 1_555 1_555
C11 C2 1_555 1_555
C12 C14 1_555 1_555
C13 C1 1_555 1_555
C14 C11 1_555 1_555
H1 C5 1_555 1_555
H2 O5 1_555 1_555
H3 C9 1_555 1_555
H4 O5 1_555 1_555
H5 C8 1_555 1_555
H6 N2 1_555 1_555
H7 C10 1_555 1_555
H8 C11 1_555 1_555
H9 C7 1_555 1_555
H10 N1 1_555 1_555
H11 C14 1_555 1_555
H12 N1 1_555 1_555
H13 O6 1_555 1_555
H14 O6 1_555 1_555
H15 C13 1_555 1_555
H16 N2 1_555 1_555
Ca1C O2 1_555 1_555
Ca1_2 O4 1_555 1_555
O2C Ca1 1_555 1_555
O4_2 Ca1 1_555 1_555
O4C Ca1 1_555 1_555
O4 Ca1C 1_555 1_555
C2 C6 1_555 1_555
C8 C13 1_555 1_555
Ca1C O4C 1_555 1_555

#END
