
#######################################################################
#
#                 Cambridge Crystallographic Data Centre
#                                CCDC 
#
#######################################################################
#
# If this CIF has been generated from an entry in the Cambridge 
# Structural Database, then it will include bibliographic, chemical, 
# crystal, experimental, refinement or atomic coordinate data resulting 
# from the CCDC's data processing and validation procedures.
#
#######################################################################

data_ECORIX
_symmetry_cell_setting           triclinic
_symmetry_space_group_name_H-M   'P -1'
_symmetry_Int_Tables_number      2
_space_group_name_Hall           '-P 1'
loop_
_symmetry_equiv_pos_site_id
_symmetry_equiv_pos_as_xyz
1 x,y,z
2 -x,-y,-z
_cell_length_a                   7.694(1)
_cell_length_b                   9.210(1)
_cell_length_c                   10.764(2)
_cell_angle_alpha                108.598(3)
_cell_angle_beta                 92.300(3)
_cell_angle_gamma                109.814(3)
_cell_volume                     670.661
loop_
_atom_site_label
_atom_site_type_symbol
_atom_site_fract_x
_atom_site_fract_y
_atom_site_fract_z
Ni1 Ni 0.5000 0.0000 0.0000
Ni2 Ni 0.14973(9) 0.13415(7) 0.12783(6)
O1 O 0.3949(5) 0.0900(4) -0.1272(3)
O2 O 0.1092(5) 0.0517(4) -0.0763(3)
O3 O 0.2850(5) -0.0291(4) 0.1198(3)
O4 O 0.6035(5) 0.6827(4) -0.1555(4)
O5 O 0.0203(6) 0.2989(5) 0.1244(4)
O6 O 0.3605(5) 0.7647(4) -0.1252(3)
O7 O 0.3633(7) 0.1003(6) -0.6257(4)
O8 O 0.1473(5) 0.1891(4) -0.6762(3)
C1 C 0.2401(7) 0.1014(5) -0.1412(4)
C2 C 0.2009(7) 0.1891(6) -0.2319(4)
C3 C 0.2545(7) 0.1278(6) -0.3703(5)
C4 C 0.2192(7) 0.2275(6) -0.4505(4)
C5 C 0.3461(7) 0.4112(6) -0.3818(5)
C6 C 0.2969(7) 0.4786(6) -0.2429(5)
C7 C 0.3164(7) 0.3749(6) -0.1596(5)
C8 C 0.2472(8) 0.1655(6) -0.5946(5)
C9 C 0.4338(7) 0.6564(6) -0.1689(5)
H1 H 0.3829 0.1419 -0.3610
H2 H 0.1799 0.0140 -0.4146
H3 H 0.4737 0.4217 -0.3733
H4 H 0.3272 0.4723 -0.4341
H5 H 0.2738 0.4113 -0.0779
H6 H 0.4445 0.3901 -0.1424
H7 H 0.1954 -0.1388 0.0829
H8 H 0.3390 -0.0090 0.2072
H9 H 0.0623 0.3911 0.2064
H10 H 0.0543 0.3396 0.0537
O1A O 0.6051(5) -0.0900(4) 0.1272(3)
O2A O 0.8908(5) -0.0517(4) 0.0763(3)
O4A O 0.3965(5) -0.6827(4) 0.1555(4)
O6A O 0.6395(5) -0.7647(4) 0.1252(3)
O7A O 0.6367(7) -0.1003(6) 0.6257(4)
O8A O 0.8527(5) -0.1891(4) 0.6762(3)
C1A C 0.7599(7) -0.1014(5) 0.1412(4)
C2A C 0.7991(7) -0.1891(6) 0.2319(4)
C3A C 0.7455(7) -0.1278(6) 0.3703(5)
C4A C 0.7808(7) -0.2275(6) 0.4505(4)
C5A C 0.6539(7) -0.4112(6) 0.3818(5)
C6A C 0.7031(7) -0.4786(6) 0.2429(5)
C7A C 0.6836(7) -0.3749(6) 0.1596(5)
C8A C 0.7528(8) -0.1655(6) 0.5946(5)
C9A C 0.5662(7) -0.6564(6) 0.1689(5)
H1A H 0.6171 -0.1419 0.3610
H2A H 0.8201 -0.0140 0.4146
H3A H 0.5263 -0.4217 0.3733
H4A H 0.6728 -0.4723 0.4341
H5A H 0.7262 -0.4113 0.0779
H6A H 0.5555 -0.3901 0.1424
O3A O 0.7150(5) 0.0291(4) -0.1198(3)
H7A H 0.8046 0.1388 -0.0829
H8A H 0.6610 0.0090 -0.2072
Ni2A Ni 0.85027(9) -0.13415(7) -0.12783(6)
O5A O 0.9797(6) -0.2989(5) -0.1244(4)
H9A H 0.9377 -0.3911 -0.2064
H10A H 0.9457 -0.3396 -0.0537
O6_2 O 0.3605(5) -0.2353(4) -0.1252(3)
O6A_2 O 0.6395(5) 0.2353(4) 0.1252(3)
O2A_2 O -0.1092(5) -0.0517(4) 0.0763(3)
O4A_2 O 0.3965(5) 0.3173(4) 0.1555(4)
O8_2 O 0.1473(5) 0.1891(4) 0.3238(3)
Ni2A_2 Ni -0.14973(9) -0.13415(7) -0.12783(6)
Ni2A_3 Ni 0.85027(9) 0.86585(7) -0.12783(6)
Ni1_2 Ni 0.5000 1.0000 0.0000
Ni2_2 Ni 0.14973(9) 0.13415(7) -0.87217(6)
Ni2_3 Ni 1.14973(9) 0.13415(7) 0.12783(6)
Ni2_4 Ni 0.14973(9) -0.86585(7) 0.12783(6)
Ni1_3 Ni 0.5000 -1.0000 0.0000
Ni2A_4 Ni 0.85027(9) -0.13415(7) 0.87217(6)
O2_2 O 1.1092(5) 0.0517(4) -0.0763(3)
O4_2 O 0.6035(5) -0.3173(4) -0.1555(4)
O8A_2 O 0.8527(5) -0.1891(4) -0.3238(3)
O9 O 0.7953(9) 0.3469(7) 0.8319(8)
O10 O 0.735(1) 0.254(1) 0.5625(10)
O11 O 0.962(2) 0.404(2) 0.426(1)
loop_
_geom_bond_atom_site_label_1
_geom_bond_atom_site_label_2
_geom_bond_site_symmetry_1
_geom_bond_site_symmetry_2
Ni1 O1 1_555 1_555
Ni2 O2 1_555 1_555
O1 C1 1_555 1_555
O2 C1 1_555 1_555
O3 Ni1 1_555 1_555
O4 C9 1_555 1_555
O5 Ni2 1_555 1_555
O6 C9 1_555 1_555
O7 C8 1_555 1_555
O8 C8 1_555 1_555
C1 C2 1_555 1_555
C2 C3 1_555 1_555
C3 C4 1_555 1_555
C4 C5 1_555 1_555
C5 C6 1_555 1_555
C6 C7 1_555 1_555
C7 C2 1_555 1_555
C8 C4 1_555 1_555
C9 C6 1_555 1_555
H1 C3 1_555 1_555
H2 C3 1_555 1_555
H3 C5 1_555 1_555
H4 C5 1_555 1_555
H5 C7 1_555 1_555
H6 C7 1_555 1_555
H7 O3 1_555 1_555
H8 O3 1_555 1_555
H9 O5 1_555 1_555
H10 O5 1_555 1_555
O1A Ni1 1_555 1_555
O2A C1A 1_555 1_555
O4A C9A 1_555 1_555
O6A C9A 1_555 1_555
O7A C8A 1_555 1_555
O8A C8A 1_555 1_555
C1A O1A 1_555 1_555
C2A C1A 1_555 1_555
C3A C2A 1_555 1_555
C4A C3A 1_555 1_555
C5A C4A 1_555 1_555
C6A C5A 1_555 1_555
C7A C2A 1_555 1_555
C8A C4A 1_555 1_555
C9A C6A 1_555 1_555
H1A C3A 1_555 1_555
H2A C3A 1_555 1_555
H3A C5A 1_555 1_555
H4A C5A 1_555 1_555
H5A C7A 1_555 1_555
H6A C7A 1_555 1_555
O3A Ni1 1_555 1_555
H7A O3A 1_555 1_555
H8A O3A 1_555 1_555
Ni2A O2A 1_555 1_555
O5A Ni2A 1_555 1_555
H9A O5A 1_555 1_555
H10A O5A 1_555 1_555
O6_2 Ni1 1_555 1_555
O6A_2 Ni1 1_555 1_555
O2A_2 Ni2 1_555 1_555
O4A_2 Ni2 1_555 1_555
O8_2 Ni2 1_555 1_555
Ni2A_2 O2 1_555 1_555
Ni2A_3 O4 1_555 1_555
Ni1_2 O6 1_555 1_555
Ni2_2 O8 1_555 1_555
Ni2_3 O2A 1_555 1_555
Ni2_4 O4A 1_555 1_555
Ni1_3 O6A 1_555 1_555
Ni2A_4 O8A 1_555 1_555
O2_2 Ni2A 1_555 1_555
O4_2 Ni2A 1_555 1_555
O8A_2 Ni2A 1_555 1_555
Ni2 O3 1_555 1_555
C6A C7A 1_555 1_555
O3A Ni2A 1_555 1_555
O2A_2 Ni2A_2 1_555 1_555
Ni2_3 O2_2 1_555 1_555

#END
