
#######################################################################
#
#                 Cambridge Crystallographic Data Centre
#                                CCDC 
#
#######################################################################
#
# If this CIF has been generated from an entry in the Cambridge 
# Structural Database, then it will include bibliographic, chemical, 
# crystal, experimental, refinement or atomic coordinate data resulting 
# from the CCDC's data processing and validation procedures.
#
#######################################################################

data_ECOSIZ
_symmetry_cell_setting           triclinic
_symmetry_space_group_name_H-M   'P -1'
_symmetry_Int_Tables_number      2
_space_group_name_Hall           '-P 1'
loop_
_symmetry_equiv_pos_site_id
_symmetry_equiv_pos_as_xyz
1 x,y,z
2 -x,-y,-z
_cell_length_a                   8.718(3)
_cell_length_b                   11.384(4)
_cell_length_c                   22.573(8)
_cell_angle_alpha                103.077(11)
_cell_angle_beta                 96.329(12)
_cell_angle_gamma                90.864(7)
_cell_volume                     2167.02
loop_
_atom_site_label
_atom_site_type_symbol
_atom_site_fract_x
_atom_site_fract_y
_atom_site_fract_z
La1 La 0.74230(5) -0.07856(4) 0.740032(17)
S1 S 0.9984(2) 0.08724(19) 0.74735(9)
S2 S 0.5025(2) 0.08658(19) 0.77249(8)
Si1 Si 0.8639(2) -0.2992(2) 0.62643(9)
Si2 Si 0.5728(2) -0.18613(18) 0.58463(9)
Si3 Si 0.5985(3) -0.2952(2) 0.80598(10)
Si4 Si 0.9044(3) -0.1832(2) 0.87141(10)
O1 O 1.2484(7) 0.3023(5) 0.8507(3)
O2 O 1.2781(6) 0.3014(5) 0.7144(3)
N1 N 0.7198(7) -0.1997(5) 0.6396(2)
N2 N 0.7519(8) -0.1965(6) 0.8144(3)
C1 C 1.0110(10) -0.2653(10) 0.6963(4)
H1 H 1.0545 -0.1830 0.7025
H2 H 1.0938 -0.3227 0.6906
H3 H 0.9612 -0.2727 0.7322
C2 C 0.7965(11) -0.4589(8) 0.6131(5)
H4 H 0.7301 -0.4678 0.6442
H5 H 0.8858 -0.5096 0.6155
H6 H 0.7379 -0.4839 0.5724
C3 C 0.9693(13) -0.2844(12) 0.5603(5)
H7 H 0.9022 -0.3149 0.5219
H8 H 1.0627 -0.3312 0.5605
H9 H 0.9981 -0.1993 0.5640
C4 C 0.4554(10) -0.3286(9) 0.5528(4)
H10 H 0.5179 -0.3882 0.5289
H11 H 0.3649 -0.3127 0.5264
H12 H 0.4215 -0.3600 0.5865
C5 C 0.4406(10) -0.0687(9) 0.6180(4)
H13 H 0.3912 -0.0947 0.6501
H14 H 0.3613 -0.0569 0.5858
H15 H 0.4998 0.0074 0.6356
C6 C 0.6388(10) -0.1190(9) 0.5154(4)
H16 H 0.6748 -0.0345 0.5312
H17 H 0.5510 -0.1238 0.4838
H18 H 0.7228 -0.1661 0.4978
C7 C 0.6475(11) -0.4592(8) 0.7882(5)
H19 H 0.7051 -0.4762 0.7525
H20 H 0.5520 -0.5098 0.7794
H21 H 0.7108 -0.4770 0.8235
C8 C 0.4880(12) -0.2672(10) 0.8748(5)
H22 H 0.5492 -0.2916 0.9088
H23 H 0.3899 -0.3144 0.8645
H24 H 0.4676 -0.1812 0.8868
C9 C 0.4584(10) -0.2728(8) 0.7403(4)
H25 H 0.4193 -0.1912 0.7502
H26 H 0.3720 -0.3323 0.7332
H27 H 0.5109 -0.2831 0.7034
C10 C 1.0065(9) -0.3202(9) 0.8677(4)
H28 H 0.9357 -0.3847 0.8719
H29 H 1.0918 -0.3074 0.9009
H30 H 1.0478 -0.3433 0.8282
C11 C 1.0477(9) -0.0663(10) 0.8658(5)
H31 H 1.0887 -0.0891 0.8262
H32 H 1.1324 -0.0592 0.8989
H33 H 0.9982 0.0112 0.8692
C12 C 0.8517(9) -0.1120(10) 0.9622(4)
H34 H 0.7961 -0.0375 0.9635
H35 H 0.9477 -0.0947 0.9901
H36 H 0.7870 -0.1712 0.9747
C13 C 0.9369(9) 0.1199(7) 0.6749(3)
C14 C 1.0265(9) 0.0844(7) 0.6263(4)
H37 H 1.1155 0.0390 0.6316
C15 C 0.9864(11) 0.1149(9) 0.5710(4)
H38 H 1.0500 0.0940 0.5389
C16 C 0.8534(11) 0.1758(9) 0.5627(4)
H39 H 0.8226 0.1937 0.5241
C17 C 0.7655(10) 0.2107(9) 0.6096(4)
H40 H 0.6756 0.2548 0.6039
C18 C 0.8071(9) 0.1820(8) 0.6663(4)
H41 H 0.7450 0.2058 0.6986
C19 C 0.5719(9) 0.1255(8) 0.8516(3)
C20 C 0.4830(10) 0.0891(8) 0.8931(4)
H42 H 0.3901 0.0421 0.8781
C21 C 0.5282(13) 0.1205(10) 0.9554(4)
H43 H 0.4666 0.0967 0.9832
C22 C 0.6676(13) 0.1886(12) 0.9770(4)
H44 H 0.7011 0.2104 1.0196
C23 C 0.7528(12) 0.2226(12) 0.9377(5)
H45 H 0.8454 0.2701 0.9526
C24 C 0.7057(11) 0.1882(10) 0.8737(4)
H46 H 0.7697 0.2098 0.8461
C25 C 1.1463(14) 0.2932(12) 0.8944(5)
H47 H 1.1651 0.2189 0.9095
H48 H 1.0379 0.2889 0.8753
C26 C 1.1732(16) 0.4013(12) 0.9465(5)
H49 H 1.1000 0.4649 0.9413
H50 H 1.1643 0.3800 0.9861
C27 C 1.3294(19) 0.4387(15) 0.9420(6)
H51 H 1.4030 0.4012 0.9681
H52 H 1.3435 0.5275 0.9560
C28 C 1.3579(13) 0.4010(10) 0.8786(6)
H53 H 1.3427 0.4684 0.8578
H54 H 1.4650 0.3743 0.8759
C29 C 1.1765(11) 0.3943(9) 0.7037(5)
H55 H 1.1990 0.4688 0.7363
H56 H 1.0674 0.3677 0.7026
C30 C 1.2068(12) 0.4161(10) 0.6427(5)
H57 H 1.1398 0.3622 0.6089
H58 H 1.1893 0.5010 0.6409
C31 C 1.3705(12) 0.3883(8) 0.6395(4)
H59 H 1.4395 0.4575 0.6621
H60 H 1.3939 0.3651 0.5966
C32 C 1.3847(11) 0.2833(9) 0.6700(4)
H61 H 1.3594 0.2062 0.6394
H62 H 1.4913 0.2810 0.6899
Li1 Li 1.2541(15) 0.1956(13) 0.7706(6)
S2_2 S 1.5025(2) 0.08658(19) 0.77249(8)
Li1_2 Li 0.2541(15) 0.1956(13) 0.7706(6)
loop_
_geom_bond_atom_site_label_1
_geom_bond_atom_site_label_2
_geom_bond_site_symmetry_1
_geom_bond_site_symmetry_2
La1 S1 1_555 1_555
S1 C13 1_555 1_555
S2 La1 1_555 1_555
Si1 N1 1_555 1_555
Si2 N1 1_555 1_555
Si3 N2 1_555 1_555
Si4 N2 1_555 1_555
O1 C25 1_555 1_555
O2 C29 1_555 1_555
N1 La1 1_555 1_555
N2 La1 1_555 1_555
C1 Si1 1_555 1_555
H1 C1 1_555 1_555
H2 C1 1_555 1_555
H3 C1 1_555 1_555
C2 Si1 1_555 1_555
H4 C2 1_555 1_555
H5 C2 1_555 1_555
H6 C2 1_555 1_555
C3 Si1 1_555 1_555
H7 C3 1_555 1_555
H8 C3 1_555 1_555
H9 C3 1_555 1_555
C4 Si2 1_555 1_555
H10 C4 1_555 1_555
H11 C4 1_555 1_555
H12 C4 1_555 1_555
C5 Si2 1_555 1_555
H13 C5 1_555 1_555
H14 C5 1_555 1_555
H15 C5 1_555 1_555
C6 Si2 1_555 1_555
H16 C6 1_555 1_555
H17 C6 1_555 1_555
H18 C6 1_555 1_555
C7 Si3 1_555 1_555
H19 C7 1_555 1_555
H20 C7 1_555 1_555
H21 C7 1_555 1_555
C8 Si3 1_555 1_555
H22 C8 1_555 1_555
H23 C8 1_555 1_555
H24 C8 1_555 1_555
C9 Si3 1_555 1_555
H25 C9 1_555 1_555
H26 C9 1_555 1_555
H27 C9 1_555 1_555
C10 Si4 1_555 1_555
H28 C10 1_555 1_555
H29 C10 1_555 1_555
H30 C10 1_555 1_555
C11 Si4 1_555 1_555
H31 C11 1_555 1_555
H32 C11 1_555 1_555
H33 C11 1_555 1_555
C12 Si4 1_555 1_555
H34 C12 1_555 1_555
H35 C12 1_555 1_555
H36 C12 1_555 1_555
C13 C14 1_555 1_555
C14 H37 1_555 1_555
C15 C14 1_555 1_555
H38 C15 1_555 1_555
C16 C15 1_555 1_555
H39 C16 1_555 1_555
C17 C16 1_555 1_555
H40 C17 1_555 1_555
C18 C13 1_555 1_555
H41 C18 1_555 1_555
C19 S2 1_555 1_555
C20 C19 1_555 1_555
H42 C20 1_555 1_555
C21 C20 1_555 1_555
H43 C21 1_555 1_555
C22 C21 1_555 1_555
H44 C22 1_555 1_555
C23 C22 1_555 1_555
H45 C23 1_555 1_555
C24 C19 1_555 1_555
H46 C24 1_555 1_555
C25 H47 1_555 1_555
H48 C25 1_555 1_555
C26 C25 1_555 1_555
H49 C26 1_555 1_555
H50 C26 1_555 1_555
C27 C26 1_555 1_555
H51 C27 1_555 1_555
H52 C27 1_555 1_555
C28 O1 1_555 1_555
H53 C28 1_555 1_555
H54 C28 1_555 1_555
C29 H55 1_555 1_555
H56 C29 1_555 1_555
C30 C29 1_555 1_555
H57 C30 1_555 1_555
H58 C30 1_555 1_555
C31 C30 1_555 1_555
H59 C31 1_555 1_555
H60 C31 1_555 1_555
C32 O2 1_555 1_555
H61 C32 1_555 1_555
H62 C32 1_555 1_555
Li1 S1 1_555 1_555
S2_2 Li1 1_555 1_555
Li1_2 S2 1_555 1_555
O1 Li1 1_555 1_555
O2 Li1 1_555 1_555
C17 C18 1_555 1_555
C23 C24 1_555 1_555
C27 C28 1_555 1_555
C31 C32 1_555 1_555

#END
