
#######################################################################
#
#                 Cambridge Crystallographic Data Centre
#                                CCDC 
#
#######################################################################
#
# If this CIF has been generated from an entry in the Cambridge 
# Structural Database, then it will include bibliographic, chemical, 
# crystal, experimental, refinement or atomic coordinate data resulting 
# from the CCDC's data processing and validation procedures.
#
#######################################################################

data_ECOSAQ
_symmetry_cell_setting           monoclinic
_symmetry_space_group_name_H-M   'P 21/c'
_symmetry_Int_Tables_number      14
_space_group_name_Hall           '-P 2ybc'
loop_
_symmetry_equiv_pos_site_id
_symmetry_equiv_pos_as_xyz
1 x,y,z
2 x,1/2-y,1/2+z
3 -x,-y,-z
4 -x,1/2+y,1/2-z
_cell_length_a                   12.988(5)
_cell_length_b                   20.020(6)
_cell_length_c                   15.548(5)
_cell_angle_alpha                90
_cell_angle_beta                 104.60(3)
_cell_angle_gamma                90
_cell_volume                     3912.24
loop_
_atom_site_label
_atom_site_type_symbol
_atom_site_fract_x
_atom_site_fract_y
_atom_site_fract_z
Mn1 Mn 1.0000 0.0000 1.0000
N1 N 0.9877(3) 0.0996(2) 0.9883(2)
N2 N 1.1119(3) 0.0105(2) 1.1150(2)
N3 N 1.1314(3) -0.0019(2) 0.9283(3)
N4 N 1.3011(3) -0.0264(2) 0.8910(3)
C1 C 0.9215(3) 0.1358(2) 0.9210(3)
C2 C 0.9355(4) 0.2054(2) 0.9391(3)
C3 C 1.0092(4) 0.2127(2) 1.0154(3)
C4 C 1.0428(3) 0.1471(2) 1.0475(3)
C5 C 1.1201(3) 0.1332(2) 1.1252(3)
C6 C 1.1520(3) 0.0694(2) 1.1565(3)
C7 C 1.2314(4) 0.0547(2) 1.2367(3)
C8 C 1.2375(4) -0.0112(2) 1.2442(3)
C9 C 1.1638(3) -0.0397(2) 1.1691(3)
C10 C 0.8505(3) 0.1084(2) 0.8459(3)
C11 C 1.1711(4) 0.1921(2) 1.1812(3)
C12 C 1.2594(4) 0.2239(3) 1.1633(4)
C13 C 1.3051(5) 0.2774(3) 1.2176(4)
C14 C 1.2660(5) 0.2988(3) 1.2883(4)
C15 C 1.1799(5) 0.2662(3) 1.3036(4)
C16 C 1.1302(4) 0.2128(3) 1.2518(4)
C17 C 1.3026(5) 0.2026(4) 1.0872(5)
C18 C 1.3167(7) 0.3570(4) 1.3454(5)
C19 C 1.0367(5) 0.1777(3) 1.2726(4)
C20 C 0.7904(4) 0.1558(2) 0.7764(3)
C21 C 0.6911(4) 0.1801(3) 0.7810(3)
C22 C 0.6370(5) 0.2244(3) 0.7161(4)
C23 C 0.6793(5) 0.2447(3) 0.6481(4)
C24 C 0.7768(5) 0.2194(3) 0.6430(4)
C25 C 0.8332(4) 0.1743(3) 0.7062(3)
C26 C 0.6387(6) 0.1566(5) 0.8526(5)
C27 C 0.6210(7) 0.2920(4) 0.5754(5)
C28 C 0.9384(5) 0.1458(4) 0.6985(4)
C29 C 1.3976(3) -0.0133(2) 0.9465(3)
C30 C 1.4119(3) 0.0105(2) 1.0339(3)
C31 C 1.4894(4) -0.0234(3) 0.9124(3)
C32 C 1.4735(4) -0.0483(4) 0.8176(4)
C33 C 1.2147(4) -0.0137(2) 0.9156(3)
H1 H 0.8986 0.2405 0.9031
H2 H 1.0348 0.2537 1.0434
H3 H 1.2720 0.0863 1.2769
H4 H 1.2830 -0.0354 1.2914
H5 H 1.3647 0.2997 1.2058
H6 H 1.1527 0.2806 1.3518
H7 H 1.2620 0.1661 1.0573
H8 H 1.2987 0.2388 1.0470
H9 H 1.3747 0.1892 1.1089
H10 H 1.3893 0.3471 1.3721
H11 H 1.3124 0.3958 1.3095
H12 H 1.2804 0.3647 1.3904
H13 H 0.9809 0.2089 1.2703
H14 H 1.0124 0.1433 1.2302
H15 H 1.0578 0.1588 1.3304
H16 H 0.5694 0.2408 0.7191
H17 H 0.8061 0.2330 0.5956
H18 H 0.5746 0.1337 0.8258
H19 H 0.6231 0.1941 0.8846
H20 H 0.6855 0.1274 0.8921
H21 H 0.6642 0.3300 0.5735
H22 H 0.5562 0.3059 0.5877
H23 H 0.6061 0.2697 0.5197
H24 H 0.9284 0.1226 0.6436
H25 H 0.9648 0.1157 0.7462
H26 H 0.9879 0.1810 0.7008
H27 H 1.3511 0.0178 1.0562
H28 H 1.3997 -0.0541 0.7913
H29 H 1.5092 -0.0897 0.8180
H30 H 1.5017 -0.0166 0.7843
C10B C 1.1495(3) -0.1084(2) 1.1541(3)
C1B C 1.0785(3) -0.1358(2) 1.0790(3)
N1B N 1.0123(3) -0.0996(2) 1.0117(2)
C4B C 0.9572(3) -0.1471(2) 0.9525(3)
C3B C 0.9908(4) -0.2127(2) 0.9846(3)
C2B C 1.0645(4) -0.2054(2) 1.0609(3)
H1B H 1.1014 -0.2405 1.0969
H2B H 0.9652 -0.2537 0.9566
C5B C 0.8799(3) -0.1332(2) 0.8748(3)
C6B C 0.8480(3) -0.0694(2) 0.8435(3)
N2B N 0.8881(3) -0.0105(2) 0.8850(2)
C9B C 0.8362(3) 0.0397(2) 0.8309(3)
C8B C 0.7625(4) 0.0112(2) 0.7558(3)
C7B C 0.7686(4) -0.0547(2) 0.7633(3)
H3B H 0.7280 -0.0863 0.7231
H4B H 0.7170 0.0354 0.7086
C11B C 0.8289(4) -0.1921(2) 0.8188(3)
C12B C 0.7406(4) -0.2239(3) 0.8367(4)
C13B C 0.6949(5) -0.2774(3) 0.7824(4)
C14B C 0.7340(5) -0.2988(3) 0.7117(4)
C15B C 0.8201(5) -0.2662(3) 0.6964(4)
C16B C 0.8698(4) -0.2128(3) 0.7482(4)
C19B C 0.9633(5) -0.1777(3) 0.7274(4)
H13B H 1.0191 -0.2089 0.7297
H14B H 0.9876 -0.1433 0.7698
H15B H 0.9422 -0.1588 0.6696
H6B H 0.8473 -0.2806 0.6482
C18B C 0.6833(7) -0.3570(4) 0.6546(5)
H10B H 0.6107 -0.3471 0.6279
H11B H 0.6876 -0.3958 0.6905
H12B H 0.7196 -0.3647 0.6096
H5B H 0.6353 -0.2997 0.7942
C17B C 0.6974(5) -0.2026(4) 0.9128(5)
H7B H 0.7380 -0.1661 0.9427
H8B H 0.7013 -0.2388 0.9530
H9B H 0.6253 -0.1892 0.8911
C20B C 1.2096(4) -0.1558(2) 1.2236(3)
C21B C 1.3089(4) -0.1801(3) 1.2190(3)
C22B C 1.3630(5) -0.2244(3) 1.2839(4)
C23B C 1.3207(5) -0.2447(3) 1.3519(4)
C24B C 1.2232(5) -0.2194(3) 1.3570(4)
C25B C 1.1668(4) -0.1743(3) 1.2938(3)
C28B C 1.0616(5) -0.1458(4) 1.3015(4)
H24B H 1.0716 -0.1226 1.3564
H25B H 1.0352 -0.1157 1.2538
H26B H 1.0121 -0.1810 1.2992
H17B H 1.1939 -0.2330 1.4044
C27B C 1.3790(7) -0.2920(4) 1.4246(5)
H21B H 1.3358 -0.3300 1.4265
H22B H 1.4438 -0.3059 1.4123
H23B H 1.3939 -0.2697 1.4803
H16B H 1.4306 -0.2408 1.2809
C26B C 1.3613(6) -0.1566(5) 1.1474(5)
H18B H 1.4254 -0.1337 1.1742
H19B H 1.3769 -0.1941 1.1154
H20B H 1.3145 -0.1274 1.1079
C31B C 1.5106(4) 0.0234(3) 1.0876(3)
C29B C 1.6024(3) 0.0133(2) 1.0535(3)
N4B N 1.6989(3) 0.0264(2) 1.1090(3)
C33B C 1.7853(4) 0.0137(2) 1.0844(3)
N3B N 1.8686(3) 0.0019(2) 1.0717(3)
C30B C 1.5881(3) -0.0105(2) 0.9661(3)
H27B H 1.6489 -0.0178 0.9438
C32B C 1.5265(4) 0.0483(4) 1.1824(4)
H28B H 1.6003 0.0541 1.2087
H29B H 1.4908 0.0897 1.1820
H30B H 1.4983 0.0166 1.2157
N3B_2 N 0.8686(3) 0.0019(2) 1.0717(3)
Mn1_2 Mn 2.0000 0.0000 1.0000
Cl1 Cl 1.4814(3) 0.0629(3) 1.6432(2)
C34 C 1.4818(5) 0.0974(3) 1.5424(4)
C35 C 1.5694(5) 0.0914(4) 1.5063(5)
C36 C 1.5604 0.1191 1.4242
C37 C 1.4820(7) 0.1617(4) 1.3832(4)
C38 C 1.3943(6) 0.1677(4) 1.4192(5)
C39 C 1.3942(5) 0.1356(4) 1.4988(5)
H31 H 1.6325 0.0692 1.5373
H32 H 1.6127 0.1077 1.3937
H33 H 1.4866 0.1863 1.3320
H34 H 1.3347 0.1936 1.3895
H35 H 1.3346 0.1397 1.5234
Cl2 Cl 1.8019(5) 0.1241(3) 1.3362(4)
C40 C 1.8664(7) -0.0643(4) 1.4701(7)
C41 C 1.8530(7) -0.0602(4) 1.3784(7)
C42 C 1.8338(7) 0.0016(4) 1.3357(5)
C43 C 1.8279(5) 0.0591(4) 1.3847(5)
C44 C 1.8412(7) 0.0550(4) 1.4764(5)
C45 C 1.8604(8) -0.0067(5) 1.5191(5)
H36 H 1.8571 -0.0994 1.3450
H37 H 1.8247 0.0044 1.2732
H38 H 1.8372 0.0942 1.5098
H39 H 1.8695 -0.0095 1.5816
Cl3? Cl 1.8894(9) -0.1159(7) 1.5001(10)
loop_
_geom_bond_atom_site_label_1
_geom_bond_atom_site_label_2
_geom_bond_site_symmetry_1
_geom_bond_site_symmetry_2
Mn1 N1 1_555 1_555
Cl1 C34 1_555 1_555
Cl2 C43 1_555 1_555
N1 C1 1_555 1_555
N2 Mn1 1_555 1_555
N3 Mn1 1_555 1_555
N4 C29 1_555 1_555
C1 C2 1_555 1_555
C2 C3 1_555 1_555
C3 C4 1_555 1_555
C4 N1 1_555 1_555
C5 C4 1_555 1_555
C6 N2 1_555 1_555
C7 C6 1_555 1_555
C8 C7 1_555 1_555
C9 N2 1_555 1_555
C10 C1 1_555 1_555
C11 C5 1_555 1_555
C12 C11 1_555 1_555
C13 C12 1_555 1_555
C14 C13 1_555 1_555
C15 C14 1_555 1_555
C16 C11 1_555 1_555
C17 C12 1_555 1_555
C18 C14 1_555 1_555
C19 C16 1_555 1_555
C20 C10 1_555 1_555
C21 C20 1_555 1_555
C22 C21 1_555 1_555
C23 C22 1_555 1_555
C24 C23 1_555 1_555
C25 C20 1_555 1_555
C26 C21 1_555 1_555
C27 C23 1_555 1_555
C28 C25 1_555 1_555
C29 C30 1_555 1_555
C30 H27 1_555 1_555
C31 C29 1_555 1_555
C32 C31 1_555 1_555
C33 N3 1_555 1_555
C34 C35 1_555 1_555
C35 C36 1_555 1_555
C36 C37 1_555 1_555
C37 C38 1_555 1_555
C38 C39 1_555 1_555
C39 C34 1_555 1_555
C40 C41 1_555 1_555
C41 C42 1_555 1_555
C42 C43 1_555 1_555
C43 C44 1_555 1_555
C44 C45 1_555 1_555
C45 C40 1_555 1_555
H1 C2 1_555 1_555
H2 C3 1_555 1_555
H3 C7 1_555 1_555
H4 C8 1_555 1_555
H5 C13 1_555 1_555
H6 C15 1_555 1_555
H7 C17 1_555 1_555
H8 C17 1_555 1_555
H9 C17 1_555 1_555
H10 C18 1_555 1_555
H11 C18 1_555 1_555
H12 C18 1_555 1_555
H13 C19 1_555 1_555
H14 C19 1_555 1_555
H15 C19 1_555 1_555
H16 C22 1_555 1_555
H17 C24 1_555 1_555
H18 C26 1_555 1_555
H19 C26 1_555 1_555
H20 C26 1_555 1_555
H21 C27 1_555 1_555
H22 C27 1_555 1_555
H23 C27 1_555 1_555
H24 C28 1_555 1_555
H25 C28 1_555 1_555
H26 C28 1_555 1_555
H28 C32 1_555 1_555
H29 C32 1_555 1_555
H30 C32 1_555 1_555
H31 C35 1_555 1_555
H32 C36 1_555 1_555
H33 C37 1_555 1_555
H34 C38 1_555 1_555
H35 C39 1_555 1_555
H36 C41 1_555 1_555
H37 C42 1_555 1_555
H38 C44 1_555 1_555
H39 C45 1_555 1_555
C10B C9 1_555 1_555
C1B C10B 1_555 1_555
N1B Mn1 1_555 1_555
C4B N1B 1_555 1_555
C3B C4B 1_555 1_555
C2B C1B 1_555 1_555
H1B C2B 1_555 1_555
H2B C3B 1_555 1_555
C5B C4B 1_555 1_555
C6B C5B 1_555 1_555
N2B Mn1 1_555 1_555
C9B C10 1_555 1_555
C8B C9B 1_555 1_555
C7B C6B 1_555 1_555
H3B C7B 1_555 1_555
H4B C8B 1_555 1_555
C11B C5B 1_555 1_555
C12B C11B 1_555 1_555
C13B C12B 1_555 1_555
C14B C13B 1_555 1_555
C15B C14B 1_555 1_555
C16B C11B 1_555 1_555
C19B C16B 1_555 1_555
H13B C19B 1_555 1_555
H14B C19B 1_555 1_555
H15B C19B 1_555 1_555
H6B C15B 1_555 1_555
C18B C14B 1_555 1_555
H10B C18B 1_555 1_555
H11B C18B 1_555 1_555
H12B C18B 1_555 1_555
H5B C13B 1_555 1_555
C17B C12B 1_555 1_555
H7B C17B 1_555 1_555
H8B C17B 1_555 1_555
H9B C17B 1_555 1_555
C20B C10B 1_555 1_555
C21B C20B 1_555 1_555
C22B C21B 1_555 1_555
C23B C22B 1_555 1_555
C24B C23B 1_555 1_555
C25B C20B 1_555 1_555
C28B C25B 1_555 1_555
H24B C28B 1_555 1_555
H25B C28B 1_555 1_555
H26B C28B 1_555 1_555
H17B C24B 1_555 1_555
C27B C23B 1_555 1_555
H21B C27B 1_555 1_555
H22B C27B 1_555 1_555
H23B C27B 1_555 1_555
H16B C22B 1_555 1_555
C26B C21B 1_555 1_555
H18B C26B 1_555 1_555
H19B C26B 1_555 1_555
H20B C26B 1_555 1_555
C31B C30 1_555 1_555
C29B C31B 1_555 1_555
N4B C29B 1_555 1_555
C33B N4B 1_555 1_555
N3B C33B 1_555 1_555
C30B C31 1_555 1_555
H27B C30B 1_555 1_555
C32B C31B 1_555 1_555
H28B C32B 1_555 1_555
H29B C32B 1_555 1_555
H30B C32B 1_555 1_555
N3B_2 Mn1 1_555 1_555
Mn1_2 N3B 1_555 1_555
N4 C33 1_555 1_555
C5 C6 1_555 1_555
C8 C9 1_555 1_555
C15 C16 1_555 1_555
C24 C25 1_555 1_555
C1B N1B 1_555 1_555
C3B C2B 1_555 1_555
C6B N2B 1_555 1_555
N2B C9B 1_555 1_555
C8B C7B 1_555 1_555
C15B C16B 1_555 1_555
C24B C25B 1_555 1_555
C29B C30B 1_555 1_555

#END
