
#######################################################################
#
#                 Cambridge Crystallographic Data Centre
#                                CCDC 
#
#######################################################################
#
# If this CIF has been generated from an entry in the Cambridge 
# Structural Database, then it will include bibliographic, chemical, 
# crystal, experimental, refinement or atomic coordinate data resulting 
# from the CCDC's data processing and validation procedures.
#
#######################################################################

data_ECOSEU
_symmetry_cell_setting           triclinic
_symmetry_space_group_name_H-M   'P -1'
_symmetry_Int_Tables_number      2
_space_group_name_Hall           '-P 1'
loop_
_symmetry_equiv_pos_site_id
_symmetry_equiv_pos_as_xyz
1 x,y,z
2 -x,-y,-z
_cell_length_a                   12.795(2)
_cell_length_b                   14.082(2)
_cell_length_c                   12.042(2)
_cell_angle_alpha                104.33(1)
_cell_angle_beta                 95.09(2)
_cell_angle_gamma                111.35(1)
_cell_volume                     1919.11
loop_
_atom_site_label
_atom_site_type_symbol
_atom_site_fract_x
_atom_site_fract_y
_atom_site_fract_z
Mn1 Mn 1.0000 0.0000 1.0000
O1 O 0.5785(2) 0.2070(2) 1.1412(2)
N1 N 1.0149(1) -0.0881(1) 1.1036(1)
N2 N 0.8774(1) -0.1313(1) 0.8828(1)
N3 N 0.8708(2) 0.0413(2) 1.0940(2)
N4 N 0.7260(2) 0.1179(2) 1.1119(2)
C1 C 1.0851(2) -0.0520(2) 1.2115(2)
C2 C 1.0702(2) -0.1403(2) 1.2570(2)
C3 C 0.9926(2) -0.2290(2) 1.1760(2)
C4 C 0.9574(2) -0.1967(2) 1.0800(2)
C5 C 0.8768(2) -0.2669(2) 0.9795(2)
C6 C 0.8406(2) -0.2346(1) 0.8885(2)
C7 C 0.7600(2) -0.3064(2) 0.7833(2)
C8 C 0.7495(2) -0.2469(2) 0.7137(2)
C9 C 0.8235(2) -0.1380(2) 0.7751(2)
C10 C 1.1600(2) 0.0532(2) 1.2705(2)
C11 C 0.8336(2) -0.3843(2) 0.9649(2)
C12 C 0.7346(2) -0.4361(2) 1.0034(2)
C13 C 0.6964(2) -0.5461(2) 0.9849(3)
C14 C 0.7549(2) -0.6043(2) 0.9312(2)
C15 C 0.8535(2) -0.5507(2) 0.8969(2)
C16 C 0.8944(2) -0.4411(2) 0.9121(2)
C17 C 0.6700(3) -0.3750(3) 1.0633(4)
C18 C 0.7116(3) -0.7235(2) 0.9119(4)
C19 C 1.0020(3) -0.3864(2) 0.8714(3)
C20 C 1.2188(2) 0.0755(2) 1.3927(2)
C21 C 1.3196(2) 0.0594(2) 1.4154(2)
C22 C 1.3656(2) 0.0741(2) 1.5305(2)
C23 C 1.3157(3) 0.1039(2) 1.6230(2)
C24 C 1.2180(3) 0.1220(2) 1.5989(2)
C25 C 1.1685(2) 0.1086(2) 1.4853(2)
C26 C 1.3766(3) 0.0247(3) 1.3185(3)
C27 C 1.3655(4) 0.1168(4) 1.7470(3)
C28 C 1.0608(3) 0.1271(3) 1.4624(3)
C29 C 0.8004(2) 0.0745(2) 1.0995(2)
C30 C 0.6165(2) 0.0575(2) 1.0558(2)
C31 C 0.5348(2) 0.1053(2) 1.0708(2)
C32 C 0.4226(2) 0.0489(2) 1.0169(2)
C33 C 0.5021(3) 0.2594(3) 1.1597(4)
H1 H 1.1079 -0.1369 1.3304
H2 H 0.9661 -0.2997 1.1814
H3 H 0.7213 -0.3817 0.7658
H4 H 0.7020 -0.2725 0.6384
H5 H 0.6285 -0.5820 1.0098
H6 H 0.8951 -0.5895 0.8615
H7 H 0.7071 -0.3017 1.0681
H8 H 0.5940 -0.4031 1.0198
H9 H 0.6680 -0.3815 1.1398
H10 H 0.6435 -0.7467 0.9417
H11 H 0.6961 -0.7596 0.8305
H12 H 0.7682 -0.7392 0.9512
H13 H 1.0641 -0.3948 0.9110
H14 H 0.9920 -0.4174 0.7895
H15 H 1.0176 -0.3125 0.8879
H16 H 1.4338 0.0632 1.5462
H17 H 1.1837 0.1441 1.6617
H18 H 1.3346 0.0178 1.2457
H19 H 1.3788 -0.0421 1.3178
H20 H 1.4525 0.0766 1.3308
H21 H 1.4322 0.1020 1.7479
H22 H 1.3106 0.0685 1.7768
H23 H 1.3848 0.1880 1.7941
H24 H 1.0745 0.1988 1.5034
H25 H 1.0013 0.0795 1.4885
H26 H 1.0388 0.1148 1.3809
H27 H 0.5429 0.3301 1.2105
H28 H 0.4695 0.2618 1.0870
H29 H 0.4430 0.2211 1.1940
H43 H 0.3697 0.0822 1.0284
C32A C 0.5774(2) -0.0489(2) 0.9831(2)
C31A C 0.4652(2) -0.1053(2) 0.9292(2)
O1A O 0.4215(2) -0.2070(2) 0.8588(2)
C33A C 0.4979(3) -0.2594(3) 0.8403(4)
H27A H 0.4571 -0.3301 0.7895
H28A H 0.5305 -0.2618 0.9130
H29A H 0.5570 -0.2211 0.8060
C30A C 0.3835(2) -0.0575(2) 0.9442(2)
N4A N 0.2740(2) -0.1179(2) 0.8881(2)
C29A C 0.1996(2) -0.0745(2) 0.9005(2)
N3A N 0.1292(2) -0.0413(2) 0.9060(2)
H43A H 0.6303 -0.0822 0.9716
C10A C 0.8400(2) -0.0532(2) 0.7295(2)
C1A C 0.9149(2) 0.0520(2) 0.7885(2)
N1A N 0.9851(1) 0.0881(1) 0.8964(1)
C4A C 1.0426(2) 0.1967(2) 0.9200(2)
C3A C 1.0074(2) 0.2290(2) 0.8240(2)
C2A C 0.9298(2) 0.1403(2) 0.7430(2)
H1A H 0.8921 0.1369 0.6696
H2A H 1.0339 0.2997 0.8186
C5A C 1.1232(2) 0.2669(2) 1.0205(2)
C6A C 1.1594(2) 0.2346(1) 1.1115(2)
N2A N 1.1226(1) 0.1313(1) 1.1172(1)
C9A C 1.1765(2) 0.1380(2) 1.2249(2)
C8A C 1.2505(2) 0.2469(2) 1.2863(2)
C7A C 1.2400(2) 0.3064(2) 1.2167(2)
H3A H 1.2787 0.3817 1.2342
H4A H 1.2980 0.2725 1.3616
C11A C 1.1664(2) 0.3843(2) 1.0351(2)
C12A C 1.2654(2) 0.4361(2) 0.9966(2)
C13A C 1.3036(2) 0.5461(2) 1.0151(3)
C14A C 1.2451(2) 0.6043(2) 1.0688(2)
C15A C 1.1465(2) 0.5507(2) 1.1031(2)
C16A C 1.1056(2) 0.4411(2) 1.0879(2)
C19A C 0.9980(3) 0.3864(2) 1.1286(3)
H13A H 0.9359 0.3948 1.0890
H14A H 1.0080 0.4174 1.2105
H15A H 0.9824 0.3125 1.1121
H6A H 1.1049 0.5895 1.1385
C18A C 1.2884(3) 0.7235(2) 1.0881(4)
H10A H 1.3565 0.7467 1.0583
H11A H 1.3039 0.7596 1.1695
H12A H 1.2318 0.7392 1.0488
H5A H 1.3715 0.5820 0.9902
C17A C 1.3300(3) 0.3750(3) 0.9367(4)
H7A H 1.2929 0.3017 0.9319
H8A H 1.4060 0.4031 0.9802
H9A H 1.3320 0.3815 0.8602
C20A C 0.7812(2) -0.0755(2) 0.6073(2)
C21A C 0.6804(2) -0.0594(2) 0.5846(2)
C22A C 0.6344(2) -0.0741(2) 0.4695(2)
C23A C 0.6843(3) -0.1039(2) 0.3770(2)
C24A C 0.7820(3) -0.1220(2) 0.4011(2)
C25A C 0.8315(2) -0.1086(2) 0.5147(2)
C28A C 0.9392(3) -0.1271(3) 0.5376(3)
H24A H 0.9255 -0.1988 0.4966
H25A H 0.9987 -0.0795 0.5115
H26A H 0.9612 -0.1148 0.6191
H17A H 0.8163 -0.1441 0.3383
C27A C 0.6345(4) -0.1168(4) 0.2530(3)
H21A H 0.5678 -0.1020 0.2521
H22A H 0.6894 -0.0685 0.2232
H23A H 0.6152 -0.1880 0.2059
H16A H 0.5662 -0.0632 0.4538
C26A C 0.6234(3) -0.0247(3) 0.6815(3)
H18A H 0.6654 -0.0178 0.7543
H19A H 0.6212 0.0421 0.6822
H20A H 0.5475 -0.0766 0.6692
N3A_2 N 1.1292(2) -0.0413(2) 0.9060(2)
Mn1_2 Mn 0.0000 0.0000 1.0000
C34 C 0.2082(4) 0.6727(3) 0.4979(4)
C35 C 0.2260(3) 0.6934(3) 0.6184(3)
C36 C 0.2018(3) 0.6130(3) 0.6678(3)
C37 C 0.1539(4) 0.5081(3) 0.6028(4)
C38 C 0.1345(5) 0.4857(3) 0.4834(4)
C39 C 0.1604(4) 0.5653(4) 0.4307(3)
C40 C 0.2400(7) 0.7608(5) 0.4428(7)
C41 C 0.1264(6) 0.4201(4) 0.6585(5)
H30 H 0.2556 0.7653 0.6673
H31 H 0.2189 0.6305 0.7506
H32 H 0.1023 0.4131 0.4359
H33 H 0.1457 0.5472 0.3478
H34 H 0.3198 0.8035 0.4674
H35 H 0.2219 0.7310 0.3602
H36 H 0.1986 0.8038 0.4660
H37 H 0.0470 0.3758 0.6353
H38 H 0.1693 0.3787 0.6344
H39 H 0.1456 0.4501 0.7412
C42 C 0.4430(5) 0.4911(4) 0.5883(5)
C43 C 0.5126(4) 0.4385(3) 0.5709(4)
C44 C 0.5309(6) 0.3760(5) 0.6492(6)
C45 C 0.4299(5) 0.5523(4) 0.5196(5)
H40 H 0.4842 0.3775 0.7062
H41 H 0.5111 0.3040 0.6040
H42 H 0.6091 0.4067 0.6872
H44 H 0.3974 0.4829 0.6492
H45 H 0.3778 0.5884 0.5336
C45A C 0.5701(5) 0.4477(4) 0.4804(5)
C42A C 0.5570(5) 0.5089(4) 0.4117(5)
C43A C 0.4874(4) 0.5615(3) 0.4291(4)
C44A C 0.4691(6) 0.6240(5) 0.3508(6)
H40A H 0.5158 0.6225 0.2938
H41A H 0.4889 0.6960 0.3960
H42A H 0.3909 0.5933 0.3128
H44A H 0.6026 0.5171 0.3508
H45A H 0.6222 0.4116 0.4664
loop_
_geom_bond_atom_site_label_1
_geom_bond_atom_site_label_2
_geom_bond_site_symmetry_1
_geom_bond_site_symmetry_2
Mn1 N1 1_555 1_555
O1 C31 1_555 1_555
N1 C1 1_555 1_555
N2 Mn1 1_555 1_555
N3 Mn1 1_555 1_555
N4 C29 1_555 1_555
C1 C2 1_555 1_555
C2 C3 1_555 1_555
C3 C4 1_555 1_555
C4 N1 1_555 1_555
C5 C4 1_555 1_555
C6 N2 1_555 1_555
C7 C6 1_555 1_555
C8 C7 1_555 1_555
C9 N2 1_555 1_555
C10 C1 1_555 1_555
C11 C5 1_555 1_555
C12 C11 1_555 1_555
C13 C12 1_555 1_555
C14 C13 1_555 1_555
C15 C14 1_555 1_555
C16 C11 1_555 1_555
C17 C12 1_555 1_555
C18 C14 1_555 1_555
C19 C16 1_555 1_555
C20 C10 1_555 1_555
C21 C20 1_555 1_555
C22 C21 1_555 1_555
C23 C22 1_555 1_555
C24 C23 1_555 1_555
C25 C20 1_555 1_555
C26 C21 1_555 1_555
C27 C23 1_555 1_555
C28 C25 1_555 1_555
C29 N3 1_555 1_555
C30 N4 1_555 1_555
C31 C30 1_555 1_555
C32 C31 1_555 1_555
C33 O1 1_555 1_555
C34 C35 1_555 1_555
C35 C36 1_555 1_555
C36 C37 1_555 1_555
C37 C38 1_555 1_555
C38 C39 1_555 1_555
C39 C34 1_555 1_555
C40 C34 1_555 1_555
C41 C37 1_555 1_555
C42 C43 1_555 1_555
C43 C44 1_555 1_555
C44 H40 1_555 1_555
C45 C42 1_555 1_555
H1 C2 1_555 1_555
H2 C3 1_555 1_555
H3 C7 1_555 1_555
H4 C8 1_555 1_555
H5 C13 1_555 1_555
H6 C15 1_555 1_555
H7 C17 1_555 1_555
H8 C17 1_555 1_555
H9 C17 1_555 1_555
H10 C18 1_555 1_555
H11 C18 1_555 1_555
H12 C18 1_555 1_555
H13 C19 1_555 1_555
H14 C19 1_555 1_555
H15 C19 1_555 1_555
H16 C22 1_555 1_555
H17 C24 1_555 1_555
H18 C26 1_555 1_555
H19 C26 1_555 1_555
H20 C26 1_555 1_555
H21 C27 1_555 1_555
H22 C27 1_555 1_555
H23 C27 1_555 1_555
H24 C28 1_555 1_555
H25 C28 1_555 1_555
H26 C28 1_555 1_555
H27 C33 1_555 1_555
H28 C33 1_555 1_555
H29 C33 1_555 1_555
H30 C35 1_555 1_555
H31 C36 1_555 1_555
H32 C38 1_555 1_555
H33 C39 1_555 1_555
H34 C40 1_555 1_555
H35 C40 1_555 1_555
H36 C40 1_555 1_555
H37 C41 1_555 1_555
H38 C41 1_555 1_555
H39 C41 1_555 1_555
H41 C44 1_555 1_555
H42 C44 1_555 1_555
H43 C32 1_555 1_555
H44 C42 1_555 1_555
H45 C45 1_555 1_555
C32A C30 1_555 1_555
C31A C32A 1_555 1_555
O1A C31A 1_555 1_555
C33A O1A 1_555 1_555
H27A C33A 1_555 1_555
H28A C33A 1_555 1_555
H29A C33A 1_555 1_555
C30A C32 1_555 1_555
N4A C30A 1_555 1_555
C29A N4A 1_555 1_555
N3A C29A 1_555 1_555
H43A C32A 1_555 1_555
C10A C9 1_555 1_555
C1A C10A 1_555 1_555
N1A Mn1 1_555 1_555
C4A N1A 1_555 1_555
C3A C4A 1_555 1_555
C2A C1A 1_555 1_555
H1A C2A 1_555 1_555
H2A C3A 1_555 1_555
C5A C4A 1_555 1_555
C6A C5A 1_555 1_555
N2A Mn1 1_555 1_555
C9A C10 1_555 1_555
C8A C9A 1_555 1_555
C7A C6A 1_555 1_555
H3A C7A 1_555 1_555
H4A C8A 1_555 1_555
C11A C5A 1_555 1_555
C12A C11A 1_555 1_555
C13A C12A 1_555 1_555
C14A C13A 1_555 1_555
C15A C14A 1_555 1_555
C16A C11A 1_555 1_555
C19A C16A 1_555 1_555
H13A C19A 1_555 1_555
H14A C19A 1_555 1_555
H15A C19A 1_555 1_555
H6A C15A 1_555 1_555
C18A C14A 1_555 1_555
H10A C18A 1_555 1_555
H11A C18A 1_555 1_555
H12A C18A 1_555 1_555
H5A C13A 1_555 1_555
C17A C12A 1_555 1_555
H7A C17A 1_555 1_555
H8A C17A 1_555 1_555
H9A C17A 1_555 1_555
C20A C10A 1_555 1_555
C21A C20A 1_555 1_555
C22A C21A 1_555 1_555
C23A C22A 1_555 1_555
C24A C23A 1_555 1_555
C25A C20A 1_555 1_555
C28A C25A 1_555 1_555
H24A C28A 1_555 1_555
H25A C28A 1_555 1_555
H26A C28A 1_555 1_555
H17A C24A 1_555 1_555
C27A C23A 1_555 1_555
H21A C27A 1_555 1_555
H22A C27A 1_555 1_555
H23A C27A 1_555 1_555
H16A C22A 1_555 1_555
C26A C21A 1_555 1_555
H18A C26A 1_555 1_555
H19A C26A 1_555 1_555
H20A C26A 1_555 1_555
C45A C43 1_555 1_555
C42A C45A 1_555 1_555
C43A C45 1_555 1_555
C44A C43A 1_555 1_555
H40A C44A 1_555 1_555
H41A C44A 1_555 1_555
H42A C44A 1_555 1_555
H44A C42A 1_555 1_555
H45A C45A 1_555 1_555
N3A_2 Mn1 1_555 1_555
Mn1_2 N3A 1_555 1_555
C5 C6 1_555 1_555
C8 C9 1_555 1_555
C15 C16 1_555 1_555
C24 C25 1_555 1_555
C31A C30A 1_555 1_555
C1A N1A 1_555 1_555
C3A C2A 1_555 1_555
C6A N2A 1_555 1_555
N2A C9A 1_555 1_555
C8A C7A 1_555 1_555
C15A C16A 1_555 1_555
C24A C25A 1_555 1_555
C42A C43A 1_555 1_555

#END
