
#######################################################################
#
#                 Cambridge Crystallographic Data Centre
#                                CCDC 
#
#######################################################################
#
# If this CIF has been generated from an entry in the Cambridge 
# Structural Database, then it will include bibliographic, chemical, 
# crystal, experimental, refinement or atomic coordinate data resulting 
# from the CCDC's data processing and validation procedures.
#
#######################################################################

data_ECOTAS
_symmetry_cell_setting           monoclinic
_symmetry_space_group_name_H-M   'P 21/c'
_symmetry_Int_Tables_number      14
_space_group_name_Hall           '-P 2ybc'
loop_
_symmetry_equiv_pos_site_id
_symmetry_equiv_pos_as_xyz
1 x,y,z
2 -x,1/2+y,1/2-z
3 -x,-y,-z
4 x,1/2-y,1/2+z
_cell_length_a                   8.5085(4)
_cell_length_b                   12.7251(6)
_cell_length_c                   9.8961(4)
_cell_angle_alpha                90
_cell_angle_beta                 107.1170(10)
_cell_angle_gamma                90
_cell_volume                     1024.01
loop_
_atom_site_label
_atom_site_type_symbol
_atom_site_fract_x
_atom_site_fract_y
_atom_site_fract_z
Cs1 Cs 0.46523(3) 0.158358(19) 0.28018(3)
Cs2 Cs 0.03419(3) 0.14103(2) 0.41108(3)
Fe1 Fe 0.27455(6) 0.61827(4) 0.50390(5)
P1 P 0.66875(10) 0.57375(7) 0.69290(9)
P2 P 0.24334(10) 0.64991(6) 0.82564(9)
O1 O 0.5109(3) 0.6055(2) 0.5805(3)
O2 O 0.7244(3) 0.4628(2) 0.6678(3)
O3 O 0.6535(3) 0.5821(2) 0.8412(3)
O4 O 0.8011(3) 0.6559(2) 0.6765(3)
O5 O 0.2488(3) 0.6841(2) 0.6787(3)
O6 O 0.2834(4) 0.7465(2) 0.9211(3)
O7 O 0.0826(3) 0.6001(2) 0.8256(3)
O8 O 0.3804(3) 0.5669(2) 0.8892(3)
O9 O 0.0114(3) 0.6214(2) 0.4214(3)
O10 O -0.2076(3) 0.5226(2) 0.4172(3)
C1 C -0.0569(4) 0.5416(3) 0.4531(3)
Fe1B Fe 0.72545(6) 0.38173(4) 0.49610(5)
Fe1C Fe 0.27455(6) 0.88173(4) 1.00390(5)
Fe1B_2 Fe -0.27455(6) 0.38173(4) 0.49610(5)
Fe1C_2 Fe 0.27455(6) 0.88173(4) 0.00390(5)
P1B P 0.33125(10) 0.42625(7) 0.30710(9)
P2C P 0.24334(10) 0.85009(6) 0.32564(9)
O1B O 0.4891(3) 0.3945(2) 0.4195(3)
O2B O 0.2756(3) 0.5372(2) 0.3322(3)
O3B O 0.3465(3) 0.4179(2) 0.1588(3)
O4B O 0.1989(3) 0.3441(2) 0.3235(3)
O5C O 0.2488(3) 0.8159(2) 0.1787(3)
O5B O 0.7512(3) 0.3159(2) 0.3213(3)
O6C O 0.2834(4) 0.7535(2) 0.4211(3)
O6A O 0.7166(4) 0.2465(2) 0.5789(3)
O7C O 0.0826(3) 0.8999(2) 0.3256(3)
O8C O 0.3804(3) 0.9331(2) 0.3892(3)
O9B O -0.0114(3) 0.3786(2) 0.5786(3)
O9B_2 O 0.9886(3) 0.3786(2) 0.5786(3)
O10B O 0.2076(3) 0.4774(2) 0.5828(3)
O10_2 O 0.7924(3) 0.5226(2) 0.4172(3)
C1B C 0.0569(4) 0.4584(3) 0.5469(3)
loop_
_geom_bond_atom_site_label_1
_geom_bond_atom_site_label_2
_geom_bond_site_symmetry_1
_geom_bond_site_symmetry_2
Fe1 O1 1_555 1_555
P1 O1 1_555 1_555
P2 O5 1_555 1_555
O2 P1 1_555 1_555
O3 P1 1_555 1_555
O4 P1 1_555 1_555
O5 Fe1 1_555 1_555
O6 P2 1_555 1_555
O7 P2 1_555 1_555
O8 P2 1_555 1_555
O9 Fe1 1_555 1_555
O10 C1 1_555 1_555
C1 O9 1_555 1_555
Fe1B O2 1_555 1_555
Fe1C O6 1_555 1_555
Fe1B_2 O10 1_555 1_555
Fe1C_2 O5C 1_555 1_555
P1B O1B 1_555 1_555
P2C O5C 1_555 1_555
O1B Fe1B 1_555 1_555
O2B Fe1 1_555 1_555
O3B P1B 1_555 1_555
O4B P1B 1_555 1_555
O5B Fe1B 1_555 1_555
O6C Fe1 1_555 1_555
O6A Fe1B 1_555 1_555
O7C P2C 1_555 1_555
O8C P2C 1_555 1_555
O9B Fe1B_2 1_555 1_555
O9B_2 Fe1B 1_555 1_555
O10B Fe1 1_555 1_555
O10_2 Fe1B 1_555 1_555
C1B C1 1_555 1_555
P1B O2B 1_555 1_555
P2C O6C 1_555 1_555
O9B C1B 1_555 1_555
O10B C1B 1_555 1_555

#END
