
#######################################################################
#
#                 Cambridge Crystallographic Data Centre
#                                CCDC 
#
#######################################################################
#
# If this CIF has been generated from an entry in the Cambridge 
# Structural Database, then it will include bibliographic, chemical, 
# crystal, experimental, refinement or atomic coordinate data resulting 
# from the CCDC's data processing and validation procedures.
#
#######################################################################

data_ECOWOJ
_symmetry_cell_setting           monoclinic
_symmetry_space_group_name_H-M   'P 21/n'
_symmetry_Int_Tables_number      14
_space_group_name_Hall           '-P 2yn'
loop_
_symmetry_equiv_pos_site_id
_symmetry_equiv_pos_as_xyz
1 x,y,z
2 1/2-x,1/2+y,1/2-z
3 -x,-y,-z
4 1/2+x,1/2-y,1/2+z
_cell_length_a                   14.8205(3)
_cell_length_b                   5.21320(10)
_cell_length_c                   16.2179(5)
_cell_angle_alpha                90
_cell_angle_beta                 107.9202(12)
_cell_angle_gamma                90
_cell_volume                     1192.24
loop_
_atom_site_label
_atom_site_type_symbol
_atom_site_fract_x
_atom_site_fract_y
_atom_site_fract_z
Mn1 Mn 0.0000 0.0000 0.0000
O1 O -0.03943(10) 0.3381(3) 0.05769(10)
O2 O 0.00332(10) 0.7667(3) 0.11332(10)
O3 O 0.01631(11) 0.4162(3) 0.21297(10)
S1 S -0.03396(4) 0.51584(10) 0.12798(4)
C1 C -0.15335(16) 0.5670(4) 0.12428(14)
C2 C -0.17669(16) 0.7758(5) 0.16692(15)
H1 H -0.1293 0.8956 0.1961
C3 C -0.26968(17) 0.8082(5) 0.16663(15)
H2 H -0.2856 0.9502 0.1961
C4 C -0.34009(16) 0.6350(5) 0.12357(15)
C5 C -0.31482(17) 0.4286(5) 0.08185(16)
H3 H -0.3620 0.3084 0.0527
C6 C -0.22199(16) 0.3927(5) 0.08145(15)
H4 H -0.2060 0.2503 0.0521
C7 C -0.44160(17) 0.6775(6) 0.12126(17)
H5 H -0.4723 0.7968 0.0743
H6 H -0.4428 0.7499 0.1767
H7 H -0.4756 0.5135 0.1113
O4 O 0.14957(10) 0.0796(3) 0.05326(10)
C8 C 0.18950(16) 0.2519(5) 0.10483(15)
H8 H 0.1508 0.3620 0.1263
N1 N 0.28193(12) 0.2919(4) 0.13163(12)
C9 C 0.3244(2) 0.4935(5) 0.19370(18)
H9 H 0.2742 0.5939 0.2061
H10 H 0.3626 0.6061 0.1693
H11 H 0.3649 0.4162 0.2474
C10 C 0.34575(16) 0.1388(5) 0.09926(16)
H12 H 0.3113 -0.0083 0.0668
H13 H 0.3985 0.0775 0.1481
H14 H 0.3705 0.2441 0.0610
Mn1_2 Mn 0.0000 1.0000 0.0000
Mn1_3 Mn 0.0000 -1.0000 0.0000
O1B O 0.03943(10) -0.3381(3) -0.05769(10)
O2B O -0.00332(10) -0.7667(3) -0.11332(10)
O2_2 O 0.00332(10) -0.2333(3) 0.11332(10)
O2B_2 O -0.00332(10) 0.2333(3) -0.11332(10)
O3B O -0.01631(11) -0.4162(3) -0.21297(10)
S1B S 0.03396(4) -0.51584(10) -0.12798(4)
C1B C 0.15335(16) -0.5670(4) -0.12428(14)
C2B C 0.17669(16) -0.7758(5) -0.16692(15)
H1B H 0.1293 -0.8956 -0.1961
C3B C 0.26968(17) -0.8082(5) -0.16663(15)
H2B H 0.2856 -0.9502 -0.1961
C4B C 0.34009(16) -0.6350(5) -0.12357(15)
C5B C 0.31482(17) -0.4286(5) -0.08185(16)
H3B H 0.3620 -0.3084 -0.0527
C6B C 0.22199(16) -0.3927(5) -0.08145(15)
H4B H 0.2060 -0.2503 -0.0521
C7B C 0.44160(17) -0.6775(6) -0.12126(17)
H5B H 0.4723 -0.7968 -0.0743
H6B H 0.4428 -0.7499 -0.1767
H7B H 0.4756 -0.5135 -0.1113
O4B O -0.14957(10) -0.0796(3) -0.05326(10)
C8B C -0.18950(16) -0.2519(5) -0.10483(15)
H8B H -0.1508 -0.3620 -0.1263
N1B N -0.28193(12) -0.2919(4) -0.13163(12)
C9B C -0.3244(2) -0.4935(5) -0.19370(18)
H9B H -0.2742 -0.5939 -0.2061
H10B H -0.3626 -0.6061 -0.1693
H11B H -0.3649 -0.4162 -0.2474
C10B C -0.34575(16) -0.1388(5) -0.09926(16)
H12B H -0.3113 0.0083 -0.0668
H13B H -0.3985 -0.0775 -0.1481
H14B H -0.3705 -0.2441 -0.0610
loop_
_geom_bond_atom_site_label_1
_geom_bond_atom_site_label_2
_geom_bond_site_symmetry_1
_geom_bond_site_symmetry_2
Mn1 O1 1_555 1_555
O1 S1 1_555 1_555
O2 S1 1_555 1_555
O3 S1 1_555 1_555
S1 C1 1_555 1_555
C1 C2 1_555 1_555
C2 H1 1_555 1_555
C3 C2 1_555 1_555
H2 C3 1_555 1_555
C4 C3 1_555 1_555
C5 C4 1_555 1_555
H3 C5 1_555 1_555
C6 C1 1_555 1_555
H4 C6 1_555 1_555
C7 C4 1_555 1_555
H5 C7 1_555 1_555
H6 C7 1_555 1_555
H7 C7 1_555 1_555
O4 Mn1 1_555 1_555
C8 O4 1_555 1_555
H8 C8 1_555 1_555
N1 C8 1_555 1_555
C9 N1 1_555 1_555
H9 C9 1_555 1_555
H10 C9 1_555 1_555
H11 C9 1_555 1_555
C10 N1 1_555 1_555
H12 C10 1_555 1_555
H13 C10 1_555 1_555
H14 C10 1_555 1_555
Mn1_2 O2 1_555 1_555
Mn1_3 O2B 1_555 1_555
O1B Mn1 1_555 1_555
O2B S1B 1_555 1_555
O2_2 Mn1 1_555 1_555
O2B_2 Mn1 1_555 1_555
O3B S1B 1_555 1_555
S1B O1B 1_555 1_555
C1B S1B 1_555 1_555
C2B C1B 1_555 1_555
H1B C2B 1_555 1_555
C3B C2B 1_555 1_555
H2B C3B 1_555 1_555
C4B C3B 1_555 1_555
C5B C4B 1_555 1_555
H3B C5B 1_555 1_555
C6B C1B 1_555 1_555
H4B C6B 1_555 1_555
C7B C4B 1_555 1_555
H5B C7B 1_555 1_555
H6B C7B 1_555 1_555
H7B C7B 1_555 1_555
O4B Mn1 1_555 1_555
C8B O4B 1_555 1_555
H8B C8B 1_555 1_555
N1B C8B 1_555 1_555
C9B N1B 1_555 1_555
H9B C9B 1_555 1_555
H10B C9B 1_555 1_555
H11B C9B 1_555 1_555
C10B N1B 1_555 1_555
H12B C10B 1_555 1_555
H13B C10B 1_555 1_555
H14B C10B 1_555 1_555
C5 C6 1_555 1_555
C5B C6B 1_555 1_555

#END
