
#######################################################################
#
#                 Cambridge Crystallographic Data Centre
#                                CCDC 
#
#######################################################################
#
# If this CIF has been generated from an entry in the Cambridge 
# Structural Database, then it will include bibliographic, chemical, 
# crystal, experimental, refinement or atomic coordinate data resulting 
# from the CCDC's data processing and validation procedures.
#
#######################################################################

data_ECOWUO
_symmetry_cell_setting           monoclinic
_symmetry_space_group_name_H-M   'P 21/n'
_symmetry_Int_Tables_number      14
_space_group_name_Hall           '-P 2yn'
loop_
_symmetry_equiv_pos_site_id
_symmetry_equiv_pos_as_xyz
1 x,y,z
2 1/2+x,1/2-y,1/2+z
3 -x,-y,-z
4 1/2-x,1/2+y,1/2-z
_cell_length_a                   12.588(3)
_cell_length_b                   18.717(5)
_cell_length_c                   18.227(5)
_cell_angle_alpha                90.00
_cell_angle_beta                 92.980(5)
_cell_angle_gamma                90.00
_cell_volume                     4288.65
loop_
_atom_site_label
_atom_site_type_symbol
_atom_site_fract_x
_atom_site_fract_y
_atom_site_fract_z
Cu1 Cu 0.20901(6) 0.25196(5) -0.10232(4)
N1 N 0.1286(4) 0.3265(3) -0.0106(3)
N2 N -0.2084(5) 0.3216(3) 0.3019(3)
N3 N 0.2874(4) 0.1891(3) -0.0234(3)
N4 N 0.6295(4) 0.1860(3) 0.3173(3)
N5 N 0.3317(5) 0.3173(3) -0.1033(3)
N6 N 0.0864(5) 0.1865(3) -0.1037(3)
S1 S -0.03291(17) 0.47000(10) 0.15055(12)
S2 S 0.46333(17) 0.04520(10) 0.14345(11)
S3 S 0.4804(2) 0.41592(15) -0.05215(19)
S4 S -0.0571(3) 0.0811(2) -0.0758(2)
C1 C 0.0518(6) 0.3001(4) 0.0292(4)
H1 H 0.0306 0.2529 0.0218
C2 C 0.0018(6) 0.3411(4) 0.0821(4)
H2 H -0.0499 0.3210 0.1103
C3 C 0.0306(5) 0.4111(4) 0.0912(4)
C4 C 0.1108(5) 0.4394(4) 0.0496(4)
C5 C 0.1562(5) 0.3946(4) 0.0012(4)
H3 H 0.2106 0.4130 -0.0258
C6 C 0.1502(6) 0.5148(4) 0.0587(4)
H4 H 0.1097 0.5389 0.0944
H5 H 0.1421 0.5393 0.0124
H6 H 0.2239 0.5143 0.0750
C7 C -0.1044(6) 0.4105(4) 0.2075(4)
C8 C -0.2116(6) 0.4124(4) 0.2071(4)
C9 C -0.2594(6) 0.3657(4) 0.2571(4)
H7 H -0.3332 0.3666 0.2580
C10 C -0.1055(7) 0.3200(4) 0.2999(4)
H8 H -0.0686 0.2867 0.3293
C11 C -0.0461(6) 0.3657(5) 0.2559(4)
H9 H 0.0279 0.3660 0.2591
C12 C -0.2806(6) 0.4588(5) 0.1580(5)
H10 H -0.2369 0.4870 0.1275
H11 H -0.3220 0.4898 0.1873
H12 H -0.3274 0.4294 0.1276
C13 C 0.2861(5) 0.1167(4) -0.0267(4)
H13 H 0.2484 0.0962 -0.0666
C14 C 0.3341(5) 0.0719(4) 0.0218(4)
C15 C 0.3944(5) 0.1037(4) 0.0810(3)
C16 C 0.3992(5) 0.1771(4) 0.0876(3)
H14 H 0.4380 0.1988 0.1262
C17 C 0.3431(5) 0.2177(4) 0.0334(3)
H15 H 0.3449 0.2672 0.0375
C18 C 0.3277(5) -0.0068(4) 0.0139(4)
H16 H 0.2827 -0.0185 -0.0286
H17 H 0.2985 -0.0270 0.0569
H18 H 0.3976 -0.0258 0.0082
C19 C 0.5243(6) 0.1036(3) 0.2088(4)
C20 C 0.4660(5) 0.1368(4) 0.2616(4)
C21 C 0.5255(6) 0.1780(4) 0.3152(4)
H19 H 0.4883 0.2008 0.3512
C22 C 0.6815(5) 0.1545(4) 0.2654(4)
H20 H 0.7546 0.1613 0.2647
C23 C 0.6325(6) 0.1117(4) 0.2118(4)
H21 H 0.6730 0.0884 0.1779
C24 C 0.3974(6) 0.3584(5) -0.0833(4)
C25 C 0.0286(6) 0.1430(5) -0.0930(4)
C26 C 0.3504(5) 0.1299(4) 0.2663(4)
H22 H 0.3224 0.1004 0.2268
H23 H 0.3181 0.1763 0.2627
H24 H 0.3350 0.1084 0.3124
N2A N 0.2916(5) 0.1784(3) -0.1981(3)
N4A N 0.1295(4) 0.3140(3) -0.1827(3)
Cu1A Cu -0.29099(6) 0.24804(5) 0.39768(4)
Cu1A_2 Cu 0.70901(6) 0.24804(5) 0.39768(4)
C27 C 0.3502(10) 0.3731(16) 0.2343(7)
H25 H 0.3966 0.3611 0.2773
Cl1 Cl 0.2531(5) 0.3065(3) 0.2111(4)
Cl2 Cl 0.2439(3) 0.4418(2) 0.2536(2)
Cl3 Cl 0.4112(4) 0.3906(5) 0.1649(4)
C28 C 0.6648(9) 0.2658(6) 0.9809(7)
H26 H 0.6145 0.3039 0.9667
Cl4 Cl 0.6084(3) 0.1926(2) 0.9538(3)
Cl5 Cl 0.6717(3) 0.2644(3) 1.0806(2)
Cl6 Cl 0.7818(3) 0.2953(3) 0.9610(2)
C29 C 0.4988(12) 0.4026(8) 0.6507(7)
H27 H 0.4843 0.4451 0.6204
Cl7 Cl 0.4790(7) 0.4293(6) 0.7335(5)
Cl8 Cl 0.6158(2) 0.3768(2) 0.6278(2)
Cl9 Cl 0.3945(3) 0.3438(2) 0.6247(3)
loop_
_geom_bond_atom_site_label_1
_geom_bond_atom_site_label_2
_geom_bond_site_symmetry_1
_geom_bond_site_symmetry_2
Cu1 N1 1_555 1_555
N1 C1 1_555 1_555
N2 C9 1_555 1_555
N3 Cu1 1_555 1_555
N4 C21 1_555 1_555
N5 Cu1 1_555 1_555
N6 Cu1 1_555 1_555
S1 C3 1_555 1_555
S2 C15 1_555 1_555
S3 C24 1_555 1_555
S4 C25 1_555 1_555
C1 H1 1_555 1_555
C2 C1 1_555 1_555
H2 C2 1_555 1_555
C3 C2 1_555 1_555
C4 C3 1_555 1_555
C5 N1 1_555 1_555
H3 C5 1_555 1_555
C6 C4 1_555 1_555
H4 C6 1_555 1_555
H5 C6 1_555 1_555
H6 C6 1_555 1_555
C7 S1 1_555 1_555
C8 C7 1_555 1_555
C9 C8 1_555 1_555
H7 C9 1_555 1_555
C10 N2 1_555 1_555
H8 C10 1_555 1_555
C11 C7 1_555 1_555
H9 C11 1_555 1_555
C12 C8 1_555 1_555
H10 C12 1_555 1_555
H11 C12 1_555 1_555
H12 C12 1_555 1_555
C13 N3 1_555 1_555
H13 C13 1_555 1_555
C14 C13 1_555 1_555
C15 C14 1_555 1_555
C16 C15 1_555 1_555
H14 C16 1_555 1_555
C17 N3 1_555 1_555
H15 C17 1_555 1_555
C18 C14 1_555 1_555
H16 C18 1_555 1_555
H17 C18 1_555 1_555
H18 C18 1_555 1_555
C19 S2 1_555 1_555
C20 C19 1_555 1_555
C21 C20 1_555 1_555
H19 C21 1_555 1_555
C22 N4 1_555 1_555
H20 C22 1_555 1_555
C23 C19 1_555 1_555
H21 C23 1_555 1_555
C24 N5 1_555 1_555
C25 N6 1_555 1_555
C26 C20 1_555 1_555
H22 C26 1_555 1_555
H23 C26 1_555 1_555
H24 C26 1_555 1_555
C27 H25 1_555 1_555
C28 H26 1_555 1_555
C29 H27 1_555 1_555
Cl1 C27 1_555 1_555
Cl2 C27 1_555 1_555
Cl3 C27 1_555 1_555
Cl4 C28 1_555 1_555
Cl5 C28 1_555 1_555
Cl6 C28 1_555 1_555
Cl7 C29 1_555 1_555
Cl8 C29 1_555 1_555
Cl9 C29 1_555 1_555
N2A Cu1 1_555 1_555
N4A Cu1 1_555 1_555
Cu1A N2 1_555 1_555
Cu1A_2 N4 1_555 1_555
C4 C5 1_555 1_555
C10 C11 1_555 1_555
C16 C17 1_555 1_555
C22 C23 1_555 1_555

#END
