
#######################################################################
#
#                 Cambridge Crystallographic Data Centre
#                                CCDC 
#
#######################################################################
#
# If this CIF has been generated from an entry in the Cambridge 
# Structural Database, then it will include bibliographic, chemical, 
# crystal, experimental, refinement or atomic coordinate data resulting 
# from the CCDC's data processing and validation procedures.
#
#######################################################################

data_ECOYIG
_symmetry_cell_setting           triclinic
_symmetry_space_group_name_H-M   'P -1'
_symmetry_Int_Tables_number      2
_space_group_name_Hall           '-P 1'
loop_
_symmetry_equiv_pos_site_id
_symmetry_equiv_pos_as_xyz
1 x,y,z
2 -x,-y,-z
_cell_length_a                   9.960(5)
_cell_length_b                   10.842(5)
_cell_length_c                   12.121(5)
_cell_angle_alpha                77.350(5)
_cell_angle_beta                 84.755(5)
_cell_angle_gamma                84.329(5)
_cell_volume                     1267.59
loop_
_atom_site_label
_atom_site_type_symbol
_atom_site_fract_x
_atom_site_fract_y
_atom_site_fract_z
Ag1 Ag 0.36943(4) 0.07271(4) -0.30892(4)
Ag2 Ag 0.36511(4) -0.39428(4) 0.31351(3)
Mo1 Mo 0.00951(4) -0.19506(3) 0.37391(3)
Mo2 Mo 0.23001(4) 0.24629(3) -0.57489(3)
Mo3 Mo 0.03831(4) -0.10327(3) -0.36729(3)
Mo4 Mo 0.28033(4) -0.05667(3) -0.56124(3)
C1 C 0.2727(6) 0.0352(5) -0.0541(5)
H1 H 0.2195 0.1092 -0.0811
C2 C 0.2517(6) -0.0239(5) 0.0580(5)
H2 H 0.1885 0.0111 0.1063
C3 C 0.3269(6) -0.1365(5) 0.0968(4)
H3 H 0.3130 -0.1800 0.1716
C4 C 0.4225(5) -0.1842(4) 0.0244(4)
C5 C 0.4405(5) -0.1165(4) -0.0867(4)
H4 H 0.5066 -0.1471 -0.1356
C6 C 0.5063(5) -0.3045(4) 0.0560(4)
C7 C 0.5948(5) -0.6045(4) 0.2234(4)
H5 H 0.5070 -0.6386 0.2405
H6 H 0.6568 -0.6663 0.1939
C8 C 0.5895(5) -0.6109(4) 0.4319(4)
H7 H 0.5092 -0.6493 0.4544
C9 C 0.7712(5) -0.5285(5) 0.4293(4)
H8 H 0.8439 -0.4978 0.4549
C10 C 0.6578(5) -0.4528(5) 0.0388(4)
C11 C 0.7740(5) -0.5226(4) -0.0078(4)
C12 C 0.8472(5) -0.4624(5) -0.1032(4)
H9 H 0.8229 -0.3787 -0.1374
C13 C 0.9562(6) -0.5282(6) -0.1468(5)
H10 H 1.0077 -0.4896 -0.2107
C14 C 0.9882(6) -0.6516(6) -0.0950(5)
H11 H 1.0610 -0.6986 -0.1236
C15 C 0.9108(6) -0.7050(5) 0.0002(5)
H12 H 0.9343 -0.7886 0.0354
N1 N 0.3653(4) -0.0080(4) -0.1260(4)
N2 N 0.6087(4) -0.3373(4) -0.0146(3)
N3 N 0.4856(4) -0.3921(4) 0.1510(3)
N4 N 0.5837(4) -0.4874(3) 0.1385(3)
N5 N 0.6428(4) -0.5834(3) 0.3254(3)
N6 N 0.7618(4) -0.5293(4) 0.3227(4)
N7 N 0.6652(4) -0.5765(3) 0.5002(3)
N8 N 0.8046(5) -0.6440(4) 0.0446(4)
O1 O 0.1338(3) -0.2911(3) 0.3214(3)
O2 O 0.1462(3) -0.1763(3) -0.4832(3)
O3 O -0.1106(3) -0.1669(3) 0.2775(3)
O4 O 0.0742(3) 0.3110(3) -0.4950(3)
O5 O 0.2842(3) 0.3767(3) -0.6671(3)
O6 O 0.3384(3) 0.2227(3) -0.4676(3)
O7 O 0.3064(3) 0.1102(3) -0.6436(3)
O8 O 0.1082(3) 0.0629(3) -0.4818(3)
O9 O 0.1508(3) -0.1182(3) -0.2683(3)
O10 O 0.0653(3) 0.2278(3) -0.6819(3)
O11 O 0.0923(3) -0.0302(3) -0.6722(3)
O12 O 0.3763(3) -0.0695(3) -0.4490(3)
O13 O 0.3719(3) -0.1445(3) -0.6475(3)
Ag2A Ag 0.63489(4) -0.60572(4) 0.68649(3)
Mo1_2 Mo 0.00951(4) -0.19506(3) -0.62609(3)
Mo1A Mo -0.00951(4) 0.19506(3) -0.37391(3)
Mo3A Mo -0.03831(4) 0.10327(3) -0.63271(3)
N7A N 0.3348(4) -0.4235(3) 0.4998(3)
O2_2 O 0.1462(3) -0.1763(3) 0.5168(3)
O4A O -0.0742(3) -0.3110(3) 0.4950(3)
O8A O -0.1082(3) -0.0629(3) 0.4818(3)
O8A_2 O -0.1082(3) -0.0629(3) -0.5182(3)
O10A O -0.0653(3) -0.2278(3) -0.3181(3)
O11_2 O 0.0923(3) -0.0302(3) 0.3278(3)
O11A O -0.0923(3) 0.0302(3) -0.3278(3)
loop_
_geom_bond_atom_site_label_1
_geom_bond_atom_site_label_2
_geom_bond_site_symmetry_1
_geom_bond_site_symmetry_2
Ag1 N1 1_555 1_555
Ag2 N3 1_555 1_555
Mo1 O1 1_555 1_555
Mo2 O4 1_555 1_555
Mo3 O2 1_555 1_555
Mo4 O2 1_555 1_555
C1 H1 1_555 1_555
C2 C1 1_555 1_555
H2 C2 1_555 1_555
C3 C2 1_555 1_555
H3 C3 1_555 1_555
C4 C3 1_555 1_555
C5 C4 1_555 1_555
H4 C5 1_555 1_555
C6 C4 1_555 1_555
C7 H5 1_555 1_555
H6 C7 1_555 1_555
C8 H7 1_555 1_555
C9 H8 1_555 1_555
C10 C11 1_555 1_555
C11 C12 1_555 1_555
C12 H9 1_555 1_555
C13 C12 1_555 1_555
H10 C13 1_555 1_555
C14 C13 1_555 1_555
H11 C14 1_555 1_555
C15 C14 1_555 1_555
H12 C15 1_555 1_555
N1 C1 1_555 1_555
N2 C6 1_555 1_555
N3 C6 1_555 1_555
N4 C7 1_555 1_555
N5 C7 1_555 1_555
N6 C9 1_555 1_555
N7 C8 1_555 1_555
N8 C11 1_555 1_555
O1 Ag2 1_555 1_555
O2 Mo1_2 1_555 1_555
O3 Mo1 1_555 1_555
O4 Mo1A 1_555 1_555
O5 Mo2 1_555 1_555
O6 Ag1 1_555 1_555
O7 Mo2 1_555 1_555
O8 Mo2 1_555 1_555
O9 Mo3 1_555 1_555
O10 Mo2 1_555 1_555
O11 Mo4 1_555 1_555
O12 Ag1 1_555 1_555
O13 Mo4 1_555 1_555
Ag2A N7 1_555 1_555
Mo1_2 O11 1_555 1_555
Mo1A O8 1_555 1_555
Mo3A O8 1_555 1_555
N7A Ag2 1_555 1_555
O2_2 Mo1 1_555 1_555
O4A Mo1 1_555 1_555
O8A Mo1 1_555 1_555
O8A_2 Mo3 1_555 1_555
O10A Mo3 1_555 1_555
O11_2 Mo1 1_555 1_555
O11A Mo3 1_555 1_555
Mo2 O6 1_555 1_555
Mo3 O8 1_555 1_555
Mo4 O7 1_555 1_555
Mo4 O8 1_555 1_555
Mo4 O12 1_555 1_555
C5 N1 1_555 1_555
C8 N5 1_555 1_555
C9 N7 1_555 1_555
C10 N2 1_555 1_555
C10 N4 1_555 1_555
C15 N8 1_555 1_555
N3 N4 1_555 1_555
N5 N6 1_555 1_555
O10 Mo3A 1_555 1_555
O11 Mo3A 1_555 1_555
Mo1_2 O8A_2 1_555 1_555
Mo1A O11A 1_555 1_555
Mo3A O8A_2 1_555 1_555

#END
