
#######################################################################
#
#                 Cambridge Crystallographic Data Centre
#                                CCDC 
#
#######################################################################
#
# If this CIF has been generated from an entry in the Cambridge 
# Structural Database, then it will include bibliographic, chemical, 
# crystal, experimental, refinement or atomic coordinate data resulting 
# from the CCDC's data processing and validation procedures.
#
#######################################################################

data_ECUBEL
_symmetry_cell_setting           monoclinic
_symmetry_space_group_name_H-M   'C 2/c'
_symmetry_Int_Tables_number      15
_space_group_name_Hall           '-C 2yn'
loop_
_symmetry_equiv_pos_site_id
_symmetry_equiv_pos_as_xyz
1 x,y,z
2 -x,y,1/2-z
3 1/2+x,1/2+y,z
4 1/2-x,1/2+y,1/2-z
5 -x,-y,-z
6 x,-y,1/2+z
7 1/2-x,1/2-y,-z
8 1/2+x,1/2-y,1/2+z
_cell_length_a                   13.9344(8)
_cell_length_b                   11.3010(7)
_cell_length_c                   24.2873(15)
_cell_angle_alpha                90
_cell_angle_beta                 97.1830(10)
_cell_angle_gamma                90
_cell_volume                     3794.57
loop_
_atom_site_label
_atom_site_type_symbol
_atom_site_fract_x
_atom_site_fract_y
_atom_site_fract_z
Pr1 Pr 0.17815(4) 0.40337(5) 0.07774(3)
S1 S 0.3966(2) 0.4257(3) 0.12769(13)
S2 S 0.5862(2) 0.1654(2) -0.01709(12)
O1 O 0.7433(7) 0.6006(7) 0.0021(4)
O2 O 0.4487(7) 0.4464(9) 0.1814(4)
C1 C 0.4953(8) 0.3049(10) 0.0532(5)
H1 H 0.4549 0.2406 0.0569
O3 O 0.3329(6) 0.5238(8) 0.1074(4)
C2 C 0.6809(8) 0.6057(10) 0.0366(5)
O4 O 0.3390(6) 0.3165(8) 0.1229(4)
C3 C 0.6321(8) 0.3934(10) 0.0137(5)
H2 H 0.6813 0.3875 -0.0088
O5 O 0.6212(7) 0.0816(7) 0.0270(4)
C4 C 0.4843(8) 0.4094(10) 0.0814(5)
N1 N 0.1463(7) 0.3174(10) 0.1777(4)
C5 C 0.5698(8) 0.2984(10) 0.0187(5)
O6 O 0.6537(7) 0.1880(8) -0.0550(4)
C6 C 0.1254(10) 0.6006(13) 0.2521(6)
C7 C 0.1356(9) 0.3930(12) 0.2203(5)
O7 O 0.4907(6) 0.1312(8) -0.0432(4)
N2 N 0.1518(8) 0.5557(10) 0.1584(4)
C8 C 0.1548(11) 0.6709(13) 0.1479(6)
H3 H 0.1674 0.6955 0.1130
O8 O 0.6654(6) 0.6964(8) 0.0636(4)
C9 C 0.1257(10) 0.7221(14) 0.2392(6)
H4 H 0.1163 0.7780 0.2661
C10 C 0.6192(8) 0.4978(10) 0.0431(5)
C11 C 0.1219(10) 0.3545(15) 0.2740(6)
C12 C 0.1379(8) 0.5183(12) 0.2095(5)
C13 C 0.5449(8) 0.5054(10) 0.0758(5)
H5 H 0.5353 0.5756 0.0943
C14 C 0.1398(11) 0.7571(13) 0.1878(6)
H6 H 0.1397 0.8371 0.1788
C15 C 0.1137(12) 0.5562(16) 0.3066(6)
H7 H 0.1061 0.6092 0.3350
C16 C 0.1136(12) 0.4392(17) 0.3168(6)
H8 H 0.1080 0.4129 0.3526
C17 C 0.1442(10) 0.2026(12) 0.1889(6)
H9 H 0.1539 0.1494 0.1609
C18 C 0.1284(10) 0.1581(14) 0.2396(7)
H10 H 0.1239 0.0767 0.2444
C19 C 0.1190(11) 0.2320(16) 0.2832(6)
H11 H 0.1110 0.2020 0.3180
Pr1D Pr 0.82185(4) 0.59663(5) -0.07774(3)
Pr1B Pr 0.67815(4) -0.09663(5) 0.07774(3)
Pr1F Pr 0.32185(4) 0.09663(5) -0.07774(3)
Pr1B_2 Pr 0.67815(4) 0.90337(5) 0.07774(3)
O1D O 0.2567(7) 0.3994(7) -0.0021(4)
O5B O 0.1212(7) 0.5816(7) 0.0270(4)
O7F O 0.0093(6) 0.3688(8) 0.0432(4)
O8B O 0.1654(6) 0.1964(8) 0.0636(4)
loop_
_geom_bond_atom_site_label_1
_geom_bond_atom_site_label_2
_geom_bond_site_symmetry_1
_geom_bond_site_symmetry_2
Pr1 O3 1_555 1_555
S1 O2 1_555 1_555
S2 O5 1_555 1_555
O1 C2 1_555 1_555
C1 H1 1_555 1_555
O3 S1 1_555 1_555
C2 O8 1_555 1_555
O4 Pr1 1_555 1_555
C3 H2 1_555 1_555
O5 Pr1B 1_555 1_555
C4 S1 1_555 1_555
N1 Pr1 1_555 1_555
C5 S2 1_555 1_555
O6 S2 1_555 1_555
C6 C9 1_555 1_555
C7 N1 1_555 1_555
O7 S2 1_555 1_555
N2 Pr1 1_555 1_555
C8 N2 1_555 1_555
H3 C8 1_555 1_555
O8 Pr1B_2 1_555 1_555
C9 H4 1_555 1_555
C10 C2 1_555 1_555
C11 C7 1_555 1_555
C12 C6 1_555 1_555
C13 C4 1_555 1_555
H5 C13 1_555 1_555
C14 C8 1_555 1_555
H6 C14 1_555 1_555
C15 C6 1_555 1_555
H7 C15 1_555 1_555
C16 C11 1_555 1_555
H8 C16 1_555 1_555
C17 N1 1_555 1_555
H9 C17 1_555 1_555
C18 C17 1_555 1_555
H10 C18 1_555 1_555
C19 C11 1_555 1_555
H11 C19 1_555 1_555
Pr1D O1 1_555 1_555
Pr1F O7 1_555 1_555
O1D Pr1 1_555 1_555
O5B Pr1 1_555 1_555
O7F Pr1 1_555 1_555
O8B Pr1 1_555 1_555
S1 O4 1_555 1_555
C1 C4 1_555 1_555
C1 C5 1_555 1_555
C3 C5 1_555 1_555
C3 C10 1_555 1_555
C7 C12 1_555 1_555
N2 C12 1_555 1_555
C9 C14 1_555 1_555
C10 C13 1_555 1_555
C15 C16 1_555 1_555
C18 C19 1_555 1_555

#END
