
#######################################################################
#
#                 Cambridge Crystallographic Data Centre
#                                CCDC 
#
#######################################################################
#
# If this CIF has been generated from an entry in the Cambridge 
# Structural Database, then it will include bibliographic, chemical, 
# crystal, experimental, refinement or atomic coordinate data resulting 
# from the CCDC's data processing and validation procedures.
#
#######################################################################

data_ECUBUA
_symmetry_cell_setting           rhombohedral
_symmetry_space_group_name_H-M   'R -3'
_symmetry_Int_Tables_number      148
_space_group_name_Hall           '-R 3'
loop_
_symmetry_equiv_pos_site_id
_symmetry_equiv_pos_as_xyz
1 x,y,z
2 -y,x-y,z
3 -x+y,-x,z
4 2/3+x,1/3+y,1/3+z
5 2/3-y,1/3+x-y,1/3+z
6 2/3-x+y,1/3-x,1/3+z
7 1/3+x,2/3+y,2/3+z
8 1/3-y,2/3+x-y,2/3+z
9 1/3-x+y,2/3-x,2/3+z
10 -x,-y,-z
11 y,-x+y,-z
12 x-y,x,-z
13 1/3-x,2/3-y,2/3-z
14 1/3+y,2/3-x+y,2/3-z
15 1/3+x-y,2/3+x,2/3-z
16 2/3-x,1/3-y,1/3-z
17 2/3+y,1/3-x+y,1/3-z
18 2/3+x-y,1/3+x,1/3-z
_cell_length_a                   14.3139(10)
_cell_length_b                   14.3139(10)
_cell_length_c                   14.6728(16)
_cell_angle_alpha                90
_cell_angle_beta                 90
_cell_angle_gamma                120.00
_cell_volume                     2603.51
loop_
_atom_site_label
_atom_site_type_symbol
_atom_site_fract_x
_atom_site_fract_y
_atom_site_fract_z
Co1 Co 0.32029(2) 0.05280(2) 0.89186(2)
O1 O 0.20433(15) 0.01359(15) 0.99735(13)
H1 H 0.244(2) 0.027(3) 1.0440(16)
H2 H 0.1481(19) -0.0478(17) 1.002(3)
O2 O 0.45084(14) 0.13826(14) 0.80098(12)
H3 H 0.434(3) 0.118(3) 0.7464(11)
H4 H 0.501(2) 0.128(3) 0.818(2)
O3 O 0.35700(14) -0.05844(13) 0.94657(12)
O4 O 0.44493(14) -0.06924(14) 0.82591(13)
O5 O 0.57193(14) -0.16963(14) 1.01858(12)
O6 O 0.62644(13) -0.09387(14) 0.88194(13)
C1 C 0.36512(18) -0.21958(18) 0.93006(17)
H5 H 0.3649 -0.2204 0.9969
C2 C 0.44837(18) -0.25020(18) 0.89632(17)
H6 H 0.4509 -0.2483 0.8296
C3 C 0.39324(18) -0.10648(18) 0.89819(17)
C4 C 0.55803(19) -0.16533(18) 0.93481(17)
Co1A Co -0.05280(2) -0.73251(3) 0.89186(2)
Co1B Co 0.73251(3) -0.32029(2) 0.89186(2)
Co1N Co 0.60082(3) -0.01304(2) 0.77481(2)
Co1I Co 0.67971(2) -0.05280(2) 1.10814(2)
Co1J Co 0.05280(2) -0.26749(3) 1.10814(2)
Co1L Co 0.01304(2) -0.38613(2) 0.77481(2)
Co1K Co 0.26749(3) -0.67971(2) 1.10814(2)
Co1M Co 0.38613(2) -0.60082(3) 0.77481(2)
O1A O -0.01359(15) -0.80926(21) 0.99735(13)
O1B O 0.80926(21) -0.20433(15) 0.99735(13)
H1A H -0.027(3) -0.783(4) 1.0440(16)
H1B H 0.783(4) -0.244(2) 1.0440(16)
H2A H 0.0478(17) -0.8041(25) 1.002(3)
H2B H 0.8041(25) -0.1481(19) 1.002(3)
O2A O -0.13826(14) -0.68742(20) 0.80098(12)
O2B O 0.68742(20) -0.45084(14) 0.80098(12)
H3A H -0.118(3) -0.684(4) 0.7464(11)
H3B H 0.684(4) -0.434(3) 0.7464(11)
H4A H -0.128(3) -0.627(4) 0.818(2)
H4B H 0.627(4) -0.501(2) 0.818(2)
O3A O 0.05844(13) -0.58456(19) 0.94657(12)
O3B O 0.58456(19) -0.35700(14) 0.94657(12)
O4A O 0.06924(14) -0.48583(20) 0.82591(13)
O4B O 0.48583(20) -0.44493(14) 0.82591(13)
O4M O 0.26409(14) 0.15250(20) 0.84076(13)
O4N O -0.15250(20) -0.88840(14) 0.84076(13)
O4L O 0.88840(14) -0.26409(14) 0.84076(13)
O5A O 0.16963(14) -0.25844(20) 1.01858(12)
O5B O 0.25844(20) -0.57193(14) 1.01858(12)
O5I O 0.42807(14) 0.16963(14) 0.98142(12)
O5J O -0.16963(14) -0.74156(20) 0.98142(12)
O5K O 0.74156(20) -0.42807(14) 0.98142(12)
O6A O 0.09387(14) -0.27969(19) 0.88194(13)
O6B O 0.27969(19) -0.62644(13) 0.88194(13)
O6M O 0.23946(14) -0.05364(19) 0.78473(13)
O6N O 0.05364(19) -0.70689(13) 0.78473(13)
O6L O 0.70689(13) -0.23946(14) 0.78473(13)
C1B C 0.41530(25) -0.36512(18) 0.93006(17)
C1A C 0.21958(18) -0.41530(25) 0.93006(17)
H5B H 0.4147 -0.3649 0.9969
H5A H 0.2204 -0.4147 0.9969
C2B C 0.30143(25) -0.44837(18) 0.89632(17)
C2A C 0.25020(18) -0.30143(25) 0.89632(17)
H6A H 0.2483 -0.3008 0.8296
H6B H 0.3008 -0.4509 0.8296
C3A C 0.10648(18) -0.50028(25) 0.89819(17)
C3B C 0.50028(25) -0.39324(18) 0.89819(17)
C4A C 0.16533(18) -0.27664(26) 0.93481(17)
C4B C 0.27664(26) -0.55803(19) 0.93481(17)
loop_
_geom_bond_atom_site_label_1
_geom_bond_atom_site_label_2
_geom_bond_site_symmetry_1
_geom_bond_site_symmetry_2
Co1 O1 1_555 1_555
O1 H1 1_555 1_555
H2 O1 1_555 1_555
O2 Co1 1_555 1_555
H3 O2 1_555 1_555
H4 O2 1_555 1_555
O3 Co1 1_555 1_555
O4 C3 1_555 1_555
O5 C4 1_555 1_555
O6 C4 1_555 1_555
C1 H5 1_555 1_555
C2 C1 1_555 1_555
H6 C2 1_555 1_555
C3 O3 1_555 1_555
C4 C2 1_555 1_555
Co1A O1A 1_555 1_555
Co1B O1B 1_555 1_555
Co1N O4 1_555 1_555
Co1I O5 1_555 1_555
Co1J O5A 1_555 1_555
Co1L O4A 1_555 1_555
Co1K O5B 1_555 1_555
Co1M O4B 1_555 1_555
O1A H1A 1_555 1_555
O1B H1B 1_555 1_555
H2A O1A 1_555 1_555
H2B O1B 1_555 1_555
O2A Co1A 1_555 1_555
O2B Co1B 1_555 1_555
H3A O2A 1_555 1_555
H3B O2B 1_555 1_555
H4A O2A 1_555 1_555
H4B O2B 1_555 1_555
O3A Co1A 1_555 1_555
O3B Co1B 1_555 1_555
O4A C3A 1_555 1_555
O4B C3B 1_555 1_555
O4M Co1 1_555 1_555
O4N Co1A 1_555 1_555
O4L Co1B 1_555 1_555
O5A C4A 1_555 1_555
O5B C4B 1_555 1_555
O5I Co1 1_555 1_555
O5J Co1A 1_555 1_555
O5K Co1B 1_555 1_555
O6A Co1L 1_555 1_555
O6B Co1M 1_555 1_555
O6M Co1 1_555 1_555
O6N Co1A 1_555 1_555
O6L Co1B 1_555 1_555
C1B C2 1_555 1_555
C1A H5A 1_555 1_555
H5B C1B 1_555 1_555
C2B C1B 1_555 1_555
C2A C1 1_555 1_555
H6A C2A 1_555 1_555
H6B C2B 1_555 1_555
C3A O3A 1_555 1_555
C3B O3B 1_555 1_555
C4A O6A 1_555 1_555
C4B O6B 1_555 1_555
O6 Co1N 1_555 1_555
C1 C3 1_555 1_555
C1B C3B 1_555 1_555
C1A C2B 1_555 1_555
C1A C2A 1_555 1_555
C1A C3A 1_555 1_555
C2B C4B 1_555 1_555
C2A C4A 1_555 1_555

#END
