
#######################################################################
#
#                 Cambridge Crystallographic Data Centre
#                                CCDC 
#
#######################################################################
#
# If this CIF has been generated from an entry in the Cambridge 
# Structural Database, then it will include bibliographic, chemical, 
# crystal, experimental, refinement or atomic coordinate data resulting 
# from the CCDC's data processing and validation procedures.
#
#######################################################################

data_ECUCEL
_symmetry_cell_setting           rhombohedral
_symmetry_space_group_name_H-M   'R -3'
_symmetry_Int_Tables_number      148
_space_group_name_Hall           '-R 3'
loop_
_symmetry_equiv_pos_site_id
_symmetry_equiv_pos_as_xyz
1 x,y,z
2 -y,x-y,z
3 -x+y,-x,z
4 2/3+x,1/3+y,1/3+z
5 2/3-y,1/3+x-y,1/3+z
6 2/3-x+y,1/3-x,1/3+z
7 1/3+x,2/3+y,2/3+z
8 1/3-y,2/3+x-y,2/3+z
9 1/3-x+y,2/3-x,2/3+z
10 -x,-y,-z
11 y,-x+y,-z
12 x-y,x,-z
13 1/3-x,2/3-y,2/3-z
14 1/3+y,2/3-x+y,2/3-z
15 1/3+x-y,2/3+x,2/3-z
16 2/3-x,1/3-y,1/3-z
17 2/3+y,1/3-x+y,1/3-z
18 2/3+x-y,1/3+x,1/3-z
_cell_length_a                   14.4344(11)
_cell_length_b                   14.4344(11)
_cell_length_c                   14.785(2)
_cell_angle_alpha                90
_cell_angle_beta                 90
_cell_angle_gamma                120.00
_cell_volume                     2667.78
loop_
_atom_site_label
_atom_site_type_symbol
_atom_site_fract_x
_atom_site_fract_y
_atom_site_fract_z
Fe1 Fe 0.93482(4) 0.65374(4) 0.94183(3)
O1 O 1.08361(17) 0.68842(19) 0.88821(17)
O2 O 1.18224(18) 0.77785(18) 1.00660(17)
O3 O 1.09670(18) 0.50292(18) 0.81465(18)
O4 O 1.04235(18) 0.43017(19) 0.95055(18)
O5 O 0.8570(2) 0.5369(2) 0.8351(2)
H1 H 0.860(4) 0.480(2) 0.832(4)
H2 H 0.883(4) 0.576(3) 0.789(2)
O6 O 0.9801(2) 0.7861(2) 1.0332(2)
H3 H 1.036(2) 0.837(3) 1.011(3)
H4 H 0.993(3) 0.770(4) 1.0849(16)
C1 C 1.1671(2) 0.7253(2) 0.9352(2)
C2 C 1.2519(2) 0.6981(2) 0.9033(2)
H5 H 1.2520 0.6981 0.8370
C3 C 1.2192(2) 0.5842(2) 0.9358(2)
H6 H 1.2164 0.5821 1.0020
C4 C 1.1104(3) 0.4999(2) 0.8981(2)
Fe1A Fe 1.34626(4) 0.28108(6) 0.94183(3)
Fe1B Fe 1.71892(6) 1.06518(4) 0.94183(3)
Fe1K Fe 1.28108(6) 0.93482(4) 1.05817(3)
Fe1M Fe 0.98707(4) 0.38559(6) 0.72484(3)
Fe1I Fe 1.06518(4) 0.34626(4) 1.05817(3)
Fe1J Fe 1.65374(4) 0.71892(6) 1.05817(3)
Fe1L Fe 1.39851(4) 1.01293(4) 0.72484(3)
Fe1N Fe 1.61441(6) 0.60149(4) 0.72484(3)
O1A O 1.31158(19) 0.39519(25) 0.88821(17)
O1B O 1.60481(25) 0.91639(17) 0.88821(17)
O2A O 1.22215(18) 0.40439(25) 1.00660(17)
O2B O 1.59561(25) 0.81776(18) 1.00660(17)
O2J O 0.77785(18) 0.59561(25) 0.99340(17)
O2K O 1.40439(25) 0.18224(18) 0.99340(17)
O2I O 1.81776(18) 1.22215(18) 0.99340(17)
O3B O 1.40622(25) 0.90330(18) 0.81465(18)
O3A O 1.49708(18) 0.59378(25) 0.81465(18)
O3N O 0.92711(25) 0.76337(18) 0.85202(18)
O3L O 1.23663(18) 0.16375(18) 0.85202(18)
O3M O 1.83625(18) 1.07289(25) 0.85202(18)
O4B O 1.38782(26) 0.95765(18) 0.95055(18)
O4A O 1.56983(19) 0.61218(26) 0.95055(18)
O4I O 0.95765(18) 0.56983(19) 1.04945(18)
O4J O 1.43017(19) 0.38782(26) 1.04945(18)
O4K O 1.61218(26) 1.04235(18) 1.04945(18)
O5A O 1.4631(2) 0.3201(3) 0.8351(2)
O5B O 1.6799(3) 1.1430(2) 0.8351(2)
H1A H 1.520(2) 0.380(4) 0.832(4)
H1B H 1.620(4) 1.140(4) 0.832(4)
H2A H 1.424(3) 0.307(5) 0.789(2)
H2B H 1.693(5) 1.117(4) 0.789(2)
O6A O 1.2139(2) 0.1940(3) 1.0332(2)
O6B O 1.8060(3) 1.0199(2) 1.0332(2)
H3A H 1.163(3) 0.199(4) 1.011(3)
H3B H 1.801(4) 0.964(2) 1.011(3)
H4A H 1.230(4) 0.223(5) 1.0849(16)
H4B H 1.777(5) 1.007(3) 1.0849(16)
C1A C 1.2747(2) 0.4418(3) 0.9352(2)
C1B C 1.5582(3) 0.8329(2) 0.9352(2)
C2A C 1.3019(2) 0.5538(3) 0.9033(2)
C2B C 1.4462(3) 0.7481(2) 0.9033(2)
H5A H 1.3019 0.5539 0.8370
H5B H 1.4461 0.7480 0.8370
C3A C 1.4158(2) 0.6350(3) 0.9358(2)
C3B C 1.3650(3) 0.7808(2) 0.9358(2)
H6B H 1.3657 0.7836 1.0020
H6A H 1.4179 0.6343 1.0020
C4B C 1.3895(4) 0.8896(3) 0.8981(2)
C4A C 1.5001(2) 0.6105(4) 0.8981(2)
loop_
_geom_bond_atom_site_label_1
_geom_bond_atom_site_label_2
_geom_bond_site_symmetry_1
_geom_bond_site_symmetry_2
Fe1 O1 1_555 1_555
O1 C1 1_555 1_555
O2 C1 1_555 1_555
O3 C4 1_555 1_555
O4 C4 1_555 1_555
O5 Fe1 1_555 1_555
H1 O5 1_555 1_555
H2 O5 1_555 1_555
O6 Fe1 1_555 1_555
H3 O6 1_555 1_555
H4 O6 1_555 1_555
C1 C2 1_555 1_555
C2 H5 1_555 1_555
C3 C2 1_555 1_555
H6 C3 1_555 1_555
C4 C3 1_555 1_555
Fe1A O1A 1_555 1_555
Fe1B O1B 1_555 1_555
Fe1K O2 1_555 1_555
Fe1M O3 1_555 1_555
Fe1I O4 1_555 1_555
Fe1J O2B 1_555 1_555
Fe1L O3B 1_555 1_555
Fe1N O3A 1_555 1_555
O1A C1A 1_555 1_555
O1B C1B 1_555 1_555
O2A Fe1I 1_555 1_555
O2B C1B 1_555 1_555
O2J Fe1 1_555 1_555
O2K Fe1A 1_555 1_555
O2I Fe1B 1_555 1_555
O3B C4B 1_555 1_555
O3A C4A 1_555 1_555
O3N Fe1 1_555 1_555
O3L Fe1A 1_555 1_555
O3M Fe1B 1_555 1_555
O4B Fe1K 1_555 1_555
O4A Fe1J 1_555 1_555
O4I Fe1 1_555 1_555
O4J Fe1A 1_555 1_555
O4K Fe1B 1_555 1_555
O5A Fe1A 1_555 1_555
O5B Fe1B 1_555 1_555
H1A O5A 1_555 1_555
H1B O5B 1_555 1_555
H2A O5A 1_555 1_555
H2B O5B 1_555 1_555
O6A Fe1A 1_555 1_555
O6B Fe1B 1_555 1_555
H3A O6A 1_555 1_555
H3B O6B 1_555 1_555
H4A O6A 1_555 1_555
H4B O6B 1_555 1_555
C1A O2A 1_555 1_555
C1B C2B 1_555 1_555
C2A C3 1_555 1_555
C2B H5B 1_555 1_555
H5A C2A 1_555 1_555
C3A C2A 1_555 1_555
C3B C2 1_555 1_555
H6B C3B 1_555 1_555
H6A C3A 1_555 1_555
C4B O4B 1_555 1_555
C4A O4A 1_555 1_555
C1A C2A 1_555 1_555
C2B C3A 1_555 1_555
C2B C3B 1_555 1_555
C3A C4A 1_555 1_555
C3B C4B 1_555 1_555

#END
