
#######################################################################
#
#                 Cambridge Crystallographic Data Centre
#                                CCDC 
#
#######################################################################
#
# If this CIF has been generated from an entry in the Cambridge 
# Structural Database, then it will include bibliographic, chemical, 
# crystal, experimental, refinement or atomic coordinate data resulting 
# from the CCDC's data processing and validation procedures.
#
#######################################################################

data_ECUCOV
_symmetry_cell_setting           triclinic
_symmetry_space_group_name_H-M   'P -1'
_symmetry_Int_Tables_number      2
_space_group_name_Hall           '-P 1'
loop_
_symmetry_equiv_pos_site_id
_symmetry_equiv_pos_as_xyz
1 x,y,z
2 -x,-y,-z
_cell_length_a                   7.673(3)
_cell_length_b                   9.661(3)
_cell_length_c                   10.533(4)
_cell_angle_alpha                106.54(3)
_cell_angle_beta                 105.28(3)
_cell_angle_gamma                100.62(3)
_cell_volume                     693.06
loop_
_atom_site_label
_atom_site_type_symbol
_atom_site_fract_x
_atom_site_fract_y
_atom_site_fract_z
Tb1 Tb 0.24673(2) 0.032355(19) 0.451129(18)
O1 O 0.4121(4) 0.2985(3) 0.5569(3)
O2 O 0.5990(4) 0.1570(3) 0.5836(3)
O3 O 0.6063(4) 0.9331(3) 0.7108(3)
O4 O 0.3158(4) 0.9605(3) 0.6570(3)
O5 O 0.9348(4) 0.8613(3) 1.4037(3)
O6 O 1.0429(4) 0.8309(3) 1.2280(3)
O7 O 0.0394(4) 0.1434(3) 0.3225(3)
C1 C 0.6909(5) 0.5411(4) 0.7940(4)
C2 C 0.5811(5) 0.6301(4) 0.7506(4)
H1 H 0.5470 0.6250 0.6555
C3 C 0.5214(5) 0.7261(4) 0.8449(4)
C4 C 0.5762(6) 0.7354(4) 0.9842(4)
H2 H 0.5372 0.8018 1.0495
C5 C 0.6886(5) 0.6480(4) 1.0300(4)
C6 C 0.7423(5) 0.5510(4) 0.9337(4)
H3 H 0.8159 0.4898 0.9634
C7 C 0.7390(6) 0.4267(4) 0.6870(5)
H4 H 0.8481 0.3981 0.7358
H5 H 0.7751 0.4723 0.6213
C8 C 0.5739(5) 0.2870(4) 0.6046(4)
C9 C 0.3869(6) 0.8113(5) 0.7960(5)
H6 H 0.3674 0.8762 0.8796
H7 H 0.2641 0.7374 0.7357
C10 C 0.4437(5) 0.9092(4) 0.7155(4)
C11 C 0.7447(6) 0.6621(5) 1.1822(4)
H8 H 0.7709 0.5678 1.1903
H9 H 0.6380 0.6749 1.2162
C12 C 0.9155(5) 0.7923(4) 1.2749(4)
Tb1A Tb 0.75327(2) -0.032355(19) 0.548871(18)
Tb1A_2 Tb 0.75327(2) 0.967645(19) 0.548871(18)
Tb1_2 Tb 0.24673(2) 1.032355(19) 0.451129(18)
Tb1_3 Tb 1.24673(2) 1.032355(19) 1.451129(18)
Tb1A_3 Tb 0.75327(2) 0.967645(19) 1.548871(18)
O2A O 0.4010(4) -0.1570(3) 0.4164(3)
O3A O 0.3937(4) 0.0669(3) 0.2892(3)
O4_2 O 0.3158(4) -0.0395(3) 0.6570(3)
O5_2 O -0.0652(4) -0.1387(3) 0.4037(3)
O5A O 0.0652(4) 0.1387(3) 0.5963(3)
O6_2 O 0.0429(4) -0.1691(3) 0.2280(3)
O8 O 0.9247(6) 0.1299(4) 0.0338(4)
O9 O 0.140(3) 0.4610(17) 0.5515(19)
loop_
_geom_bond_atom_site_label_1
_geom_bond_atom_site_label_2
_geom_bond_site_symmetry_1
_geom_bond_site_symmetry_2
Tb1 O1 1_555 1_555
O1 C8 1_555 1_555
O2 Tb1 1_555 1_555
O3 C10 1_555 1_555
O4 C10 1_555 1_555
O5 C12 1_555 1_555
O6 C12 1_555 1_555
O7 Tb1 1_555 1_555
C1 C2 1_555 1_555
C2 H1 1_555 1_555
C3 C2 1_555 1_555
C4 C3 1_555 1_555
H2 C4 1_555 1_555
C5 C4 1_555 1_555
C6 C1 1_555 1_555
H3 C6 1_555 1_555
C7 C1 1_555 1_555
H4 C7 1_555 1_555
H5 C7 1_555 1_555
C8 O2 1_555 1_555
C9 C3 1_555 1_555
H6 C9 1_555 1_555
H7 C9 1_555 1_555
C10 C9 1_555 1_555
C11 C5 1_555 1_555
H8 C11 1_555 1_555
H9 C11 1_555 1_555
C12 C11 1_555 1_555
Tb1A O2 1_555 1_555
Tb1A_2 O3 1_555 1_555
Tb1_2 O4 1_555 1_555
Tb1_3 O5 1_555 1_555
Tb1A_3 O5 1_555 1_555
O2A Tb1 1_555 1_555
O3A Tb1 1_555 1_555
O4_2 Tb1 1_555 1_555
O5_2 Tb1 1_555 1_555
O5A Tb1 1_555 1_555
O6_2 Tb1 1_555 1_555
O6 Tb1_3 1_555 1_555
C5 C6 1_555 1_555
C7 C8 1_555 1_555
Tb1A O2A 1_555 1_555

#END
