
#######################################################################
#
#                 Cambridge Crystallographic Data Centre
#                                CCDC 
#
#######################################################################
#
# If this CIF has been generated from an entry in the Cambridge 
# Structural Database, then it will include bibliographic, chemical, 
# crystal, experimental, refinement or atomic coordinate data resulting 
# from the CCDC's data processing and validation procedures.
#
#######################################################################

data_ECUCUB
_symmetry_cell_setting           triclinic
_symmetry_space_group_name_H-M   'P -1'
_symmetry_Int_Tables_number      2
_space_group_name_Hall           '-P 1'
loop_
_symmetry_equiv_pos_site_id
_symmetry_equiv_pos_as_xyz
1 x,y,z
2 -x,-y,-z
_cell_length_a                   6.044(6)
_cell_length_b                   10.780(10)
_cell_length_c                   11.486(10)
_cell_angle_alpha                68.71(7)
_cell_angle_beta                 75.01(8)
_cell_angle_gamma                87.61(6)
_cell_volume                     672.428
loop_
_atom_site_label
_atom_site_type_symbol
_atom_site_fract_x
_atom_site_fract_y
_atom_site_fract_z
Yb1 Yb 0.26092(9) 0.12227(5) 0.45521(5)
O1 O 0.4898(19) 0.1889(12) 0.2453(11)
O2 O 0.6369(18) 0.0388(11) 0.3819(9)
O3 O 0.874(2) 0.0357(11) -0.4037(10)
O4 O 1.0550(18) 0.1846(13) -0.3754(10)
O5 O 0.949(2) 0.7394(12) -0.3525(11)
O6 O 1.165(2) 0.5796(12) -0.2748(12)
O7 O 0.487(2) 0.2802(12) 0.4607(11)
C1 C 0.818(3) 0.1919(15) 0.0294(13)
C2 C 0.771(2) 0.1242(13) -0.0430(12)
H1 H 0.7685 0.0295 -0.0109
C3 C 0.727(3) 0.1903(15) -0.1604(14)
C4 C 0.729(3) 0.3287(16) -0.2042(15)
H2 H 0.6983 0.3765 -0.2855
C5 C 0.774(3) 0.3972(13) -0.1337(13)
C6 C 0.822(3) 0.3282(16) -0.0173(15)
H3 H 0.8576 0.3757 0.0314
C7 C 0.858(2) 0.1176(15) 0.1613(13)
H4 H 0.8942 0.0249 0.1698
H5 H 0.9899 0.1610 0.1703
C8 C 0.648(2) 0.1162(14) 0.2670(14)
C9 C 0.672(2) 0.1143(16) -0.2381(14)
H6 H 0.6194 0.0214 -0.1800
H7 H 0.5460 0.1560 -0.2766
C10 C 0.879(3) 0.1132(15) -0.3445(13)
C11 C 0.762(3) 0.5466(15) -0.1834(16)
H8 H 0.6344 0.5697 -0.2258
H9 H 0.7233 0.5758 -0.1085
C12 C 0.974(3) 0.6231(15) -0.2765(15)
Yb1A Yb 0.73908(9) -0.12227(5) 0.54479(5)
Yb1_2 Yb 1.26092(9) 0.12227(5) -0.54479(5)
Yb1A_2 Yb 0.73908(9) -0.12227(5) -0.45521(5)
Yb1A_3 Yb 0.73908(9) 0.87773(5) -0.45521(5)
O2A O 0.3631(18) -0.0388(11) 0.6181(9)
O3_2 O -0.126(2) 0.0357(11) 0.5963(10)
O3A O 0.126(2) -0.0357(11) 0.4037(10)
O4_2 O 0.0550(18) 0.1846(13) 0.6246(10)
O5A O 0.051(2) 0.2606(12) 0.3525(11)
O8 O 0.308(3) 0.3610(18) 0.6551(19)
loop_
_geom_bond_atom_site_label_1
_geom_bond_atom_site_label_2
_geom_bond_site_symmetry_1
_geom_bond_site_symmetry_2
Yb1 O1 1_555 1_555
O1 C8 1_555 1_555
O2 Yb1 1_555 1_555
O3 C10 1_555 1_555
O4 C10 1_555 1_555
O5 C12 1_555 1_555
O6 C12 1_555 1_555
O7 Yb1 1_555 1_555
C1 C2 1_555 1_555
C2 H1 1_555 1_555
C3 C2 1_555 1_555
C4 C3 1_555 1_555
H2 C4 1_555 1_555
C5 C4 1_555 1_555
C6 C1 1_555 1_555
H3 C6 1_555 1_555
C7 C1 1_555 1_555
H4 C7 1_555 1_555
H5 C7 1_555 1_555
C8 O2 1_555 1_555
C9 C3 1_555 1_555
H6 C9 1_555 1_555
H7 C9 1_555 1_555
C10 C9 1_555 1_555
C11 C5 1_555 1_555
H8 C11 1_555 1_555
H9 C11 1_555 1_555
C12 C11 1_555 1_555
Yb1A O2 1_555 1_555
Yb1_2 O3 1_555 1_555
Yb1A_2 O3 1_555 1_555
Yb1A_3 O5 1_555 1_555
O2A Yb1 1_555 1_555
O3_2 Yb1 1_555 1_555
O3A Yb1 1_555 1_555
O4_2 Yb1 1_555 1_555
O5A Yb1 1_555 1_555
O4 Yb1_2 1_555 1_555
C5 C6 1_555 1_555
C7 C8 1_555 1_555
Yb1A O2A 1_555 1_555

#END
