
#######################################################################
#
#                 Cambridge Crystallographic Data Centre
#                                CCDC 
#
#######################################################################
#
# If this CIF has been generated from an entry in the Cambridge 
# Structural Database, then it will include bibliographic, chemical, 
# crystal, experimental, refinement or atomic coordinate data resulting 
# from the CCDC's data processing and validation procedures.
#
#######################################################################

data_ECUCAH
_symmetry_cell_setting           rhombohedral
_symmetry_space_group_name_H-M   'R -3'
_symmetry_Int_Tables_number      148
_space_group_name_Hall           '-R 3'
loop_
_symmetry_equiv_pos_site_id
_symmetry_equiv_pos_as_xyz
1 x,y,z
2 -y,x-y,z
3 -x+y,-x,z
4 2/3+x,1/3+y,1/3+z
5 2/3-y,1/3+x-y,1/3+z
6 2/3-x+y,1/3-x,1/3+z
7 1/3+x,2/3+y,2/3+z
8 1/3-y,2/3+x-y,2/3+z
9 1/3-x+y,2/3-x,2/3+z
10 -x,-y,-z
11 y,-x+y,-z
12 x-y,x,-z
13 1/3-x,2/3-y,2/3-z
14 1/3+y,2/3-x+y,2/3-z
15 1/3+x-y,2/3+x,2/3-z
16 2/3-x,1/3-y,1/3-z
17 2/3+y,1/3-x+y,1/3-z
18 2/3+x-y,1/3+x,1/3-z
_cell_length_a                   14.5568(11)
_cell_length_b                   14.5568(11)
_cell_length_c                   14.9681(17)
_cell_angle_alpha                90
_cell_angle_beta                 90
_cell_angle_gamma                120
_cell_volume                     2746.81
loop_
_atom_site_label
_atom_site_type_symbol
_atom_site_fract_x
_atom_site_fract_y
_atom_site_fract_z
Mn1 Mn 0.67961(3) 0.73121(3) 0.10942(2)
O1 O 0.79535(16) 0.81292(16) -0.00043(14)
H1 H 0.7599(19) 0.792(3) -0.0487(12)
H2 H 0.844(2) 0.799(3) 0.003(2)
O2 O 0.54509(16) 0.68636(16) 0.20105(14)
H3 H 0.561(3) 0.680(3) 0.2541(11)
H4 H 0.495(2) 0.6272(17) 0.183(2)
O3 O 0.64532(15) 0.58108(13) 0.05363(12)
O4 O 0.55834(14) 0.48455(14) 0.17149(13)
O5 O 0.83025(14) 0.56716(14) -0.01877(12)
O6 O 0.90012(14) 0.62270(13) 0.11611(13)
C1 C 0.63603(17) 0.41425(17) 0.06941(16)
H5 H 0.6361 0.4138 0.0039
C2 C 0.74907(17) 0.44649(17) 0.10176(16)
H6 H 0.7514 0.4495 0.1672
C3 C 0.60941(17) 0.49854(17) 0.10048(16)
C4 C 0.83217(18) 0.55424(18) 0.06366(16)
Mn1A Mn 0.26879(3) -0.05160(4) 0.10942(2)
Mn1B Mn 1.05160(4) 0.32039(3) 0.10942(2)
Mn1P Mn 0.39788(3) 0.38493(4) 0.22391(2)
Mn1K Mn 0.94840(4) 0.67961(3) -0.10942(2)
Mn1O Mn 0.98706(3) 0.60212(3) 0.22391(2)
Mn1I Mn 0.32039(3) 0.26879(3) -0.10942(2)
Mn1Q Mn 0.61507(4) 0.01294(3) 0.22391(2)
Mn1J Mn 0.73121(3) 0.05160(4) -0.10942(2)
O1A O 0.18708(16) -0.01757(23) -0.00043(14)
O1B O 1.01757(23) 0.20465(16) -0.00043(14)
H1A H 0.208(3) -0.0321(36) -0.0487(12)
H1B H 1.0321(36) 0.2401(19) -0.0487(12)
H2A H 0.201(3) 0.045(4) 0.003(2)
H2B H 0.955(4) 0.156(2) 0.003(2)
O2A O 0.31364(16) -0.14127(23) 0.20105(14)
O2B O 1.14127(23) 0.45491(16) 0.20105(14)
H3A H 0.320(3) -0.119(4) 0.2541(11)
H3B H 1.119(4) 0.439(3) 0.2541(11)
H4A H 0.3728(17) -0.1322(26) 0.183(2)
H4B H 1.1322(26) 0.505(2) 0.183(2)
O3A O 0.41892(13) 0.06424(20) 0.05363(12)
O3B O 0.93576(20) 0.35468(15) 0.05363(12)
O4A O 0.51545(14) 0.07379(20) 0.17149(13)
O4B O 0.92621(20) 0.44166(14) 0.17149(13)
O4Q O 0.74046(20) 0.89167(14) 0.16184(13)
O4O O 0.10833(14) -0.15122(14) 0.16184(13)
O4P O 1.15122(14) 0.25954(20) 0.16184(13)
O5A O 0.43284(14) 0.26309(20) -0.01877(12)
O5B O 0.73691(20) 0.16975(14) -0.01877(12)
O5J O 0.56716(14) 0.73691(20) 0.01877(12)
O5K O 0.26309(20) -0.16975(14) 0.01877(12)
O5I O 1.16975(14) 0.43284(14) 0.01877(12)
O6A O 0.37730(13) 0.27742(19) 0.11611(13)
O6B O 0.72258(19) 0.09988(14) 0.11611(13)
O6O O 0.76655(14) 0.71063(13) 0.21722(13)
O6P O 0.28937(13) 0.05591(19) 0.21722(13)
O6Q O 0.94409(19) 0.23345(14) 0.21722(13)
C1B C 0.77822(24) 0.36397(17) 0.06941(16)
C1A C 0.58575(17) 0.22178(24) 0.06941(16)
H5B H 0.7777 0.3639 0.0039
H5A H 0.5862 0.2223 0.0039
C2B C 0.69742(24) 0.25093(17) 0.10176(16)
C2A C 0.55351(17) 0.30258(24) 0.10176(16)
H6A H 0.5505 0.3019 0.1672
H6B H 0.6981 0.2486 0.1672
C3A C 0.50146(17) 0.11087(24) 0.10048(16)
C3B C 0.88913(24) 0.39059(17) 0.10048(16)
C4A C 0.44576(18) 0.27793(25) 0.06366(16)
C4B C 0.72207(25) 0.16783(18) 0.06366(16)
loop_
_geom_bond_atom_site_label_1
_geom_bond_atom_site_label_2
_geom_bond_site_symmetry_1
_geom_bond_site_symmetry_2
Mn1 O1 1_555 1_555
O1 H1 1_555 1_555
H2 O1 1_555 1_555
O2 Mn1 1_555 1_555
H3 O2 1_555 1_555
H4 O2 1_555 1_555
O3 Mn1 1_555 1_555
O4 C3 1_555 1_555
O5 C4 1_555 1_555
O6 C4 1_555 1_555
C1 H5 1_555 1_555
C2 C1 1_555 1_555
H6 C2 1_555 1_555
C3 O3 1_555 1_555
C4 C2 1_555 1_555
Mn1A O1A 1_555 1_555
Mn1B O1B 1_555 1_555
Mn1P O4 1_555 1_555
Mn1K O5 1_555 1_555
Mn1O O6 1_555 1_555
Mn1I O5A 1_555 1_555
Mn1Q O4A 1_555 1_555
Mn1J O5B 1_555 1_555
O1A H1A 1_555 1_555
O1B H1B 1_555 1_555
H2A O1A 1_555 1_555
H2B O1B 1_555 1_555
O2A Mn1A 1_555 1_555
O2B Mn1B 1_555 1_555
H3A O2A 1_555 1_555
H3B O2B 1_555 1_555
H4A O2A 1_555 1_555
H4B O2B 1_555 1_555
O3A Mn1A 1_555 1_555
O3B Mn1B 1_555 1_555
O4A C3A 1_555 1_555
O4B Mn1O 1_555 1_555
O4Q Mn1 1_555 1_555
O4O Mn1A 1_555 1_555
O4P Mn1B 1_555 1_555
O5A C4A 1_555 1_555
O5B C4B 1_555 1_555
O5J Mn1 1_555 1_555
O5K Mn1A 1_555 1_555
O5I Mn1B 1_555 1_555
O6A Mn1P 1_555 1_555
O6B Mn1Q 1_555 1_555
O6O Mn1 1_555 1_555
O6P Mn1A 1_555 1_555
O6Q Mn1B 1_555 1_555
C1B C2 1_555 1_555
C1A H5A 1_555 1_555
H5B C1B 1_555 1_555
C2B C1B 1_555 1_555
C2A C1 1_555 1_555
H6A C2A 1_555 1_555
H6B C2B 1_555 1_555
C3A O3A 1_555 1_555
C3B O3B 1_555 1_555
C4A O6A 1_555 1_555
C4B O6B 1_555 1_555
C1 C3 1_555 1_555
O4B C3B 1_555 1_555
C1B C3B 1_555 1_555
C1A C2B 1_555 1_555
C1A C2A 1_555 1_555
C1A C3A 1_555 1_555
C2B C4B 1_555 1_555
C2A C4A 1_555 1_555

#END
