
#######################################################################
#
#                 Cambridge Crystallographic Data Centre
#                                CCDC 
#
#######################################################################
#
# If this CIF has been generated from an entry in the Cambridge 
# Structural Database, then it will include bibliographic, chemical, 
# crystal, experimental, refinement or atomic coordinate data resulting 
# from the CCDC's data processing and validation procedures.
#
#######################################################################

data_ECUCAH02
_symmetry_cell_setting           rhombohedral
_symmetry_space_group_name_H-M   'R -3'
_symmetry_Int_Tables_number      148
_space_group_name_Hall           '-R 3'
loop_
_symmetry_equiv_pos_site_id
_symmetry_equiv_pos_as_xyz
1 x,y,z
2 -y,x-y,z
3 -x+y,-x,z
4 2/3+x,1/3+y,1/3+z
5 2/3-y,1/3+x-y,1/3+z
6 2/3-x+y,1/3-x,1/3+z
7 1/3+x,2/3+y,2/3+z
8 1/3-y,2/3+x-y,2/3+z
9 1/3-x+y,2/3-x,2/3+z
10 -x,-y,-z
11 y,-x+y,-z
12 x-y,x,-z
13 1/3-x,2/3-y,2/3-z
14 1/3+y,2/3-x+y,2/3-z
15 1/3+x-y,2/3+x,2/3-z
16 2/3-x,1/3-y,1/3-z
17 2/3+y,1/3-x+y,1/3-z
18 2/3+x-y,1/3+x,1/3-z
_cell_length_a                   14.5432(4)
_cell_length_b                   14.5432(4)
_cell_length_c                   14.9445(10)
_cell_angle_alpha                90
_cell_angle_beta                 90
_cell_angle_gamma                120
_cell_volume                     2737.36
loop_
_atom_site_label
_atom_site_type_symbol
_atom_site_fract_x
_atom_site_fract_y
_atom_site_fract_z
C1 C 0.72468(17) 0.55633(17) 0.56658(15)
C2 C 0.69763(17) 0.44523(17) 0.59739(16)
H1 H 0.6975 0.4445 0.6643
C3 C 0.58420(17) 0.36429(17) 0.56474(16)
H2 H 0.5819 0.3650 0.4979
C4 C 0.50129(18) 0.38891(17) 0.60281(16)
O1 O 0.68842(14) 0.60269(13) 0.61426(11)
O2 O 0.77520(13) 0.59359(13) 0.49548(12)
O3 O 0.53786(15) 0.68488(15) 0.66743(13)
O4 O 0.50339(13) 0.40393(14) 0.68557(11)
O5 O 0.78828(15) 0.80851(14) 0.46574(12)
O6 O 0.43295(13) 0.38944(13) 0.55035(11)
Mn1 Mn 0.65353(3) 0.71812(3) 0.55736(2)
H3 H 0.8391(18) 0.804(2) 0.4826(19)
H4 H 0.5862(19) 0.704(2) 0.7082(16)
H5 H 0.775(2) 0.786(2) 0.4129(13)
H6 H 0.4847(18) 0.6230(16) 0.6686(19)
C1A C 0.44367(17) 0.16835(24) 0.56658(15)
C2A C 0.55477(17) 0.25240(24) 0.59739(16)
H1A H 0.5555 0.2530 0.6643
C3A C 0.63571(17) 0.21991(24) 0.56474(16)
H2A H 0.6350 0.2169 0.4979
C4A C 0.61109(17) 0.11238(25) 0.60281(16)
O1A O 0.39731(13) 0.08573(19) 0.61426(11)
O2A O 0.40641(13) 0.18161(18) 0.49548(12)
O4A O 0.59607(14) 0.09946(19) 0.68557(11)
O6A O 0.61056(13) 0.04351(18) 0.55035(11)
C1B C 0.83165(24) 0.27532(17) 0.56658(15)
C2B C 0.74760(24) 0.30237(17) 0.59739(16)
H1B H 0.7470 0.3025 0.6643
C3B C 0.78009(24) 0.41580(17) 0.56474(16)
H2B H 0.7831 0.4181 0.4979
C4B C 0.88762(25) 0.49871(18) 0.60281(16)
O1B O 0.91427(19) 0.31158(14) 0.61426(11)
O2B O 0.81839(18) 0.22480(13) 0.49548(12)
O4B O 0.90054(19) 0.49661(13) 0.68557(11)
O6B O 0.95649(18) 0.56705(13) 0.55035(11)
O3A O 0.31512(15) -0.14702(21) 0.66743(13)
O5A O 0.19149(14) -0.02023(21) 0.46574(12)
Mn1A Mn 0.28188(3) -0.06459(4) 0.55736(2)
H3A H 0.196(2) 0.0351(27) 0.4826(19)
H4A H 0.296(2) -0.1178(28) 0.7082(16)
H5A H 0.214(2) -0.011(3) 0.4129(13)
H6A H 0.3770(16) -0.1383(24) 0.6686(19)
O3B O 1.14702(21) 0.46214(15) 0.66743(13)
O5B O 1.02023(21) 0.21172(15) 0.46574(12)
Mn1B Mn 1.06459(4) 0.34647(3) 0.55736(2)
H3B H 0.9649(27) 0.1609(18) 0.4826(19)
H4B H 1.1178(28) 0.4138(19) 0.7082(16)
H5B H 1.011(3) 0.225(2) 0.4129(13)
H6B H 1.1383(24) 0.5153(18) 0.6686(19)
O2I O 1.22480(13) 0.40641(13) 0.50452(12)
O2J O 0.59359(13) 0.81839(18) 0.50452(12)
O2K O 0.18161(18) -0.22480(13) 0.50452(12)
O4O O 0.16328(13) -0.07060(14) 0.64776(11)
O4P O 1.07060(14) 0.23387(19) 0.64776(11)
O4Q O 0.76613(19) 0.83672(13) 0.64776(11)
O6I O 0.56705(13) 0.61056(13) 0.44965(11)
O6J O 0.38944(13) -0.04351(18) 0.44965(11)
O6K O 1.04351(18) 0.43295(13) 0.44965(11)
Mn1I Mn 0.34647(3) 0.28188(3) 0.44264(2)
Mn1J Mn 0.71812(3) 0.06459(4) 0.44264(2)
Mn1K Mn 0.93541(4) 0.65353(3) 0.44264(2)
Mn1O Mn 1.01314(3) 0.61521(3) 0.77597(2)
Mn1P Mn 0.38479(3) 0.39792(4) 0.77597(2)
Mn1Q Mn 0.60208(4) -0.01314(3) 0.77597(2)
loop_
_geom_bond_atom_site_label_1
_geom_bond_atom_site_label_2
_geom_bond_site_symmetry_1
_geom_bond_site_symmetry_2
C1 C2 1_555 1_555
C2 H1 1_555 1_555
C3 C2 1_555 1_555
H2 C3 1_555 1_555
C4 C3 1_555 1_555
O1 C1 1_555 1_555
O2 C1 1_555 1_555
O3 Mn1 1_555 1_555
O4 C4 1_555 1_555
O5 Mn1 1_555 1_555
O6 C4 1_555 1_555
Mn1 O1 1_555 1_555
H3 O5 1_555 1_555
H4 O3 1_555 1_555
H5 O5 1_555 1_555
H6 O3 1_555 1_555
C1A C2A 1_555 1_555
C2A C3 1_555 1_555
H1A C2A 1_555 1_555
C3A C2A 1_555 1_555
H2A C3A 1_555 1_555
C4A C3A 1_555 1_555
O1A C1A 1_555 1_555
O2A C1A 1_555 1_555
O4A C4A 1_555 1_555
O6A C4A 1_555 1_555
C1B C2B 1_555 1_555
C2B C3A 1_555 1_555
H1B C2B 1_555 1_555
C3B C2 1_555 1_555
H2B C3B 1_555 1_555
C4B C3B 1_555 1_555
O1B C1B 1_555 1_555
O2B C1B 1_555 1_555
O4B C4B 1_555 1_555
O6B C4B 1_555 1_555
O3A Mn1A 1_555 1_555
O5A Mn1A 1_555 1_555
Mn1A O1A 1_555 1_555
H3A O5A 1_555 1_555
H4A O3A 1_555 1_555
H5A O5A 1_555 1_555
H6A O3A 1_555 1_555
O3B Mn1B 1_555 1_555
O5B Mn1B 1_555 1_555
Mn1B O1B 1_555 1_555
H3B O5B 1_555 1_555
H4B O3B 1_555 1_555
H5B O5B 1_555 1_555
H6B O3B 1_555 1_555
O2I Mn1B 1_555 1_555
O2J Mn1 1_555 1_555
O2K Mn1A 1_555 1_555
O4O Mn1A 1_555 1_555
O4P Mn1B 1_555 1_555
O4Q Mn1 1_555 1_555
O6I Mn1 1_555 1_555
O6J Mn1A 1_555 1_555
O6K Mn1B 1_555 1_555
Mn1I O6 1_555 1_555
Mn1J O6A 1_555 1_555
Mn1K O2 1_555 1_555
Mn1O O4B 1_555 1_555
Mn1P O4 1_555 1_555
Mn1Q O4A 1_555 1_555
O2A Mn1I 1_555 1_555
C2B C3B 1_555 1_555
O2B Mn1J 1_555 1_555
O6B Mn1K 1_555 1_555

#END
