
#######################################################################
#
#                 Cambridge Crystallographic Data Centre
#                                CCDC 
#
#######################################################################
#
# If this CIF has been generated from an entry in the Cambridge 
# Structural Database, then it will include bibliographic, chemical, 
# crystal, experimental, refinement or atomic coordinate data resulting 
# from the CCDC's data processing and validation procedures.
#
#######################################################################

data_ECUCIP
_symmetry_cell_setting           triclinic
_symmetry_space_group_name_H-M   'P -1'
_symmetry_Int_Tables_number      2
_space_group_name_Hall           '-P 1'
loop_
_symmetry_equiv_pos_site_id
_symmetry_equiv_pos_as_xyz
1 x,y,z
2 -x,-y,-z
_cell_length_a                   7.727(2)
_cell_length_b                   9.705(3)
_cell_length_c                   10.580(3)
_cell_angle_alpha                106.61(3)
_cell_angle_beta                 105.28(3)
_cell_angle_gamma                100.69(3)
_cell_volume                     703.616
loop_
_atom_site_label
_atom_site_type_symbol
_atom_site_fract_x
_atom_site_fract_y
_atom_site_fract_z
Eu1 Eu 0.24655(2) 0.03189(2) 0.450704(19)
O1 O 0.4136(3) 0.3003(3) 0.5569(3)
O2 O 0.5975(4) 0.1572(3) 0.5854(3)
O3 O 0.3152(4) 0.9582(4) 0.6576(3)
O4 O 0.6053(3) 0.9333(3) 0.7120(3)
O5 O 1.0400(4) 0.8292(3) 1.2267(3)
O6 O 0.9329(3) 0.8606(3) 1.4023(3)
O7 O 0.0361(4) 0.1430(3) 0.3219(3)
C1 C 0.6902(5) 0.5413(4) 0.7941(4)
C2 C 0.5820(5) 0.6303(4) 0.7511(4)
H1 H 0.5487 0.6255 0.6565
C3 C 0.5222(5) 0.7259(4) 0.8446(4)
C4 C 0.5766(6) 0.7353(4) 0.9833(4)
H2 H 0.5380 0.8019 1.0480
C5 C 0.6865(5) 0.6493(4) 1.0297(4)
C6 C 0.7409(5) 0.5513(4) 0.9332(4)
H3 H 0.8138 0.4904 0.9630
C7 C 0.7380(5) 0.4265(4) 0.6887(5)
H4 H 0.8454 0.3978 0.7382
H5 H 0.7757 0.4713 0.6235
C8 C 0.5744(5) 0.2880(4) 0.6061(4)
C9 C 0.3878(6) 0.8096(5) 0.7956(5)
H6 H 0.3680 0.8739 0.8788
H7 H 0.2661 0.7352 0.7355
C10 C 0.4424(5) 0.9070(4) 0.7153(4)
C11 C 0.7425(6) 0.6633(5) 1.1818(4)
H8 H 0.6371 0.6770 1.2160
H9 H 0.7671 0.5690 1.1895
C12 C 0.9131(5) 0.7917(4) 1.2738(4)
Eu1A Eu 0.75345(2) -0.03189(2) 0.549296(19)
Eu1_2 Eu 0.24655(2) 1.03189(2) 0.450704(19)
Eu1A_2 Eu 0.75345(2) 0.96811(2) 0.549296(19)
Eu1_3 Eu 1.24655(2) 1.03189(2) 1.450704(19)
Eu1A_3 Eu 0.75345(2) 0.96811(2) 1.549296(19)
O2A O 0.4025(4) -0.1572(3) 0.4146(3)
O3_2 O 0.3152(4) -0.0418(4) 0.6576(3)
O4A O 0.3947(3) 0.0667(3) 0.2880(3)
O5_2 O 0.0400(4) -0.1708(3) 0.2267(3)
O6_2 O -0.0671(3) -0.1394(3) 0.4023(3)
O6A O 0.0671(3) 0.1394(3) 0.5977(3)
O8 O 0.9251(6) 0.1294(5) 0.0347(4)
O9 O 0.1398(14) 0.4579(12) 0.5549(11)
loop_
_geom_bond_atom_site_label_1
_geom_bond_atom_site_label_2
_geom_bond_site_symmetry_1
_geom_bond_site_symmetry_2
Eu1 O1 1_555 1_555
O1 C8 1_555 1_555
O2 Eu1 1_555 1_555
O3 C10 1_555 1_555
O4 C10 1_555 1_555
O5 C12 1_555 1_555
O6 C12 1_555 1_555
O7 Eu1 1_555 1_555
C1 C2 1_555 1_555
C2 H1 1_555 1_555
C3 C2 1_555 1_555
C4 C3 1_555 1_555
H2 C4 1_555 1_555
C5 C4 1_555 1_555
C6 C1 1_555 1_555
H3 C6 1_555 1_555
C7 C1 1_555 1_555
H4 C7 1_555 1_555
H5 C7 1_555 1_555
C8 O2 1_555 1_555
C9 C3 1_555 1_555
H6 C9 1_555 1_555
H7 C9 1_555 1_555
C10 C9 1_555 1_555
C11 C5 1_555 1_555
H8 C11 1_555 1_555
H9 C11 1_555 1_555
C12 C11 1_555 1_555
Eu1A O2 1_555 1_555
Eu1_2 O3 1_555 1_555
Eu1A_2 O4 1_555 1_555
Eu1_3 O5 1_555 1_555
Eu1A_3 O6 1_555 1_555
O2A Eu1 1_555 1_555
O3_2 Eu1 1_555 1_555
O4A Eu1 1_555 1_555
O5_2 Eu1 1_555 1_555
O6_2 Eu1 1_555 1_555
O6A Eu1 1_555 1_555
O6 Eu1_3 1_555 1_555
C5 C6 1_555 1_555
C7 C8 1_555 1_555
Eu1A O2A 1_555 1_555

#END
