
#######################################################################
#
#                 Cambridge Crystallographic Data Centre
#                                CCDC 
#
#######################################################################
#
# If this CIF has been generated from an entry in the Cambridge 
# Structural Database, then it will include bibliographic, chemical, 
# crystal, experimental, refinement or atomic coordinate data resulting 
# from the CCDC's data processing and validation procedures.
#
#######################################################################

data_ECUGIU
_symmetry_cell_setting           triclinic
_symmetry_space_group_name_H-M   'P -1'
_symmetry_Int_Tables_number      2
_space_group_name_Hall           '-P 1'
loop_
_symmetry_equiv_pos_site_id
_symmetry_equiv_pos_as_xyz
1 x,y,z
2 -x,-y,-z
_cell_length_a                   7.6382(12)
_cell_length_b                   8.4834(13)
_cell_length_c                   9.1417(14)
_cell_angle_alpha                101.766(3)
_cell_angle_beta                 95.984(3)
_cell_angle_gamma                107.083(2)
_cell_volume                     545.736
loop_
_atom_site_label
_atom_site_type_symbol
_atom_site_fract_x
_atom_site_fract_y
_atom_site_fract_z
Ba1 Ba 0.39400(3) 0.22371(3) 0.55561(2)
C1 C 0.14740(6) -0.16517(6) 0.97893(5)
H1 H 0.0134 -0.1945 0.9537
H2 H 0.2022 -0.0511 0.9666
C2 C 0.09491(6) -0.33799(6) 0.71045(5)
H3 H -0.0352 -0.3733 0.7204
H4 H 0.1188 -0.4376 0.6547
C3 C 0.41667(6) -0.21967(6) 0.87127(5)
H5 H 0.4782 -0.1535 0.9729
H6 H 0.4410 -0.1447 0.8033
N1 N 0.20926(6) -0.28618(6) 0.86850(5)
H7 H 0.1837 -0.3944 0.8958
O1 O 0.19288(6) -0.00010(6) 1.26889(5)
O2 O 0.39151(6) -0.19145(6) 1.20287(5)
O3 O 0.04496(6) -0.31989(6) 1.19392(5)
H8 H 0.0304 -0.3044 1.2826
O4 O 0.31282(6) -0.15150(6) 0.54622(5)
O5 O -0.04280(6) -0.26295(6) 0.47033(5)
O6 O 0.12724(6) -0.01259(6) 0.69451(5)
H9 H 0.0253 -0.0128 0.7104
O7 O 0.36938(6) -0.55011(6) 0.82918(5)
O8 O 0.69570(6) -0.33765(6) 0.93600(5)
H10 H 0.6706 -0.3741 1.0095
O9 O 0.56395(6) -0.40388(6) 0.66044(5)
P1 P 0.20865(6) -0.16398(6) 1.17788(5)
P2 P 0.12650(6) -0.18596(6) 0.59365(5)
P3 P 0.51428(6) -0.39133(6) 0.81442(5)
Ba1A Ba -0.39400(3) -0.22371(3) 0.44439(2)
Ba1_2 Ba -0.60600(3) 0.22371(3) -0.44439(2)
Ba1_3 Ba -0.60600(3) 0.22371(3) 0.55561(2)
Ba1_4 Ba 0.39400(3) -0.77629(3) 0.55561(2)
Ba1_5 Ba 0.39400(3) 0.22371(3) 1.55561(2)
Ba1A_2 Ba -0.39400(3) -0.22371(3) -0.55561(2)
Ba1A_3 Ba -0.39400(3) 0.77629(3) 0.44439(2)
Ba1A_4 Ba 0.60600(3) -0.22371(3) 0.44439(2)
Ba1A_5 Ba 0.60600(3) -0.22371(3) 1.44439(2)
C1A C -0.14740(6) 0.16517(6) 0.02107(5)
H1A H -0.0134 0.1945 0.0463
H2A H -0.2022 0.0511 0.0334
C2A C -0.09491(6) 0.33799(6) 0.28955(5)
H3A H 0.0352 0.3733 0.2796
H4A H -0.1188 0.4376 0.3453
C3A C -0.41667(6) 0.21967(6) 0.12873(5)
H5A H -0.4782 0.1535 0.0271
H6A H -0.4410 0.1447 0.1967
N1A N -0.20926(6) 0.28618(6) 0.13150(5)
H7A H -0.1837 0.3944 0.1042
O1A O -0.19288(6) 0.00010(6) -0.26889(5)
O1_2 O 0.19288(6) -0.00010(6) 0.26889(5)
O1A_2 O -0.19288(6) 0.00010(6) 0.73111(5)
O2A O -0.39151(6) 0.19145(6) -0.20287(5)
O2_2 O -0.60849(6) -0.19145(6) 0.20287(5)
O2A_2 O 0.60849(6) 0.19145(6) 0.79713(5)
O3A O -0.04496(6) 0.31989(6) -0.19392(5)
H8A H -0.0304 0.3044 -0.2826
O4A O -0.31282(6) 0.15150(6) 0.45378(5)
O4_2 O -0.68718(6) -0.15150(6) 0.54622(5)
O4A_2 O 0.68718(6) 0.15150(6) 0.45378(5)
O5A O 0.04280(6) 0.26295(6) 0.52967(5)
O6A O -0.12724(6) 0.01259(6) 0.30549(5)
H9A H -0.0253 0.0128 0.2896
O7A O -0.36938(6) 0.55011(6) 0.17082(5)
O7_2 O 0.36938(6) 0.44989(6) 0.82918(5)
O7A_2 O -0.36938(6) -0.44989(6) 0.17082(5)
O8A O -0.69570(6) 0.33765(6) 0.06400(5)
H10A H -0.6706 0.3741 -0.0095
O9A O -0.56395(6) 0.40388(6) 0.33956(5)
O9_2 O -0.43605(6) -0.40388(6) 0.66044(5)
O9_3 O 0.56395(6) 0.59612(6) 0.66044(5)
O9A_2 O -0.56395(6) -0.59612(6) 0.33956(5)
O9A_3 O 0.43605(6) 0.40388(6) 0.33956(5)
P1A P -0.20865(6) 0.16398(6) -0.17788(5)
P2A P -0.12650(6) 0.18596(6) 0.40635(5)
P3A P -0.51428(6) 0.39133(6) 0.18558(5)
P3_2 P 0.51428(6) 0.60867(6) 0.81442(5)
P3A_2 P -0.51428(6) -0.60867(6) 0.18558(5)
loop_
_geom_bond_atom_site_label_1
_geom_bond_atom_site_label_2
_geom_bond_site_symmetry_1
_geom_bond_site_symmetry_2
Ba1 O4 1_555 1_555
C1 H1 1_555 1_555
H2 C1 1_555 1_555
C2 H3 1_555 1_555
H4 C2 1_555 1_555
C3 H5 1_555 1_555
H6 C3 1_555 1_555
N1 C1 1_555 1_555
H7 N1 1_555 1_555
O1 P1 1_555 1_555
O2 P1 1_555 1_555
O3 H8 1_555 1_555
O4 P2 1_555 1_555
O5 P2 1_555 1_555
O6 Ba1 1_555 1_555
H9 O6 1_555 1_555
O7 P3 1_555 1_555
O8 H10 1_555 1_555
O9 P3 1_555 1_555
P1 C1 1_555 1_555
P2 C2 1_555 1_555
P3 C3 1_555 1_555
Ba1A O5 1_555 1_555
Ba1_2 O2A 1_555 1_555
Ba1_3 O4A 1_555 1_555
Ba1_4 O7 1_555 1_555
Ba1_5 O1 1_555 1_555
Ba1A_2 O1A 1_555 1_555
Ba1A_3 O7A 1_555 1_555
Ba1A_4 O4 1_555 1_555
Ba1A_5 O2 1_555 1_555
C1A H1A 1_555 1_555
H2A C1A 1_555 1_555
C2A H3A 1_555 1_555
H4A C2A 1_555 1_555
C3A H5A 1_555 1_555
H6A C3A 1_555 1_555
N1A C1A 1_555 1_555
H7A N1A 1_555 1_555
O1A P1A 1_555 1_555
O1_2 Ba1 1_555 1_555
O1A_2 Ba1A 1_555 1_555
O2A P1A 1_555 1_555
O2_2 Ba1A 1_555 1_555
O2A_2 Ba1 1_555 1_555
O3A H8A 1_555 1_555
O4A Ba1A 1_555 1_555
O4_2 Ba1A 1_555 1_555
O4A_2 Ba1 1_555 1_555
O5A Ba1 1_555 1_555
O6A Ba1A 1_555 1_555
H9A O6A 1_555 1_555
O7A P3A 1_555 1_555
O7_2 Ba1 1_555 1_555
O7A_2 Ba1A 1_555 1_555
O8A H10A 1_555 1_555
O9A Ba1_3 1_555 1_555
O9_2 Ba1A 1_555 1_555
O9_3 Ba1 1_555 1_555
O9A_2 Ba1A 1_555 1_555
O9A_3 Ba1 1_555 1_555
P1A C1A 1_555 1_555
P2A C2A 1_555 1_555
P3A C3A 1_555 1_555
P3_2 O7_2 1_555 1_555
P3A_2 O7A_2 1_555 1_555
C2 N1 1_555 1_555
C3 N1 1_555 1_555
O3 P1 1_555 1_555
O6 P2 1_555 1_555
O8 P3 1_555 1_555
O9 Ba1_4 1_555 1_555
O9 Ba1A_4 1_555 1_555
Ba1_3 O4_2 1_555 1_555
Ba1A_3 O9A 1_555 1_555
Ba1A_4 O4A_2 1_555 1_555
C2A N1A 1_555 1_555
C3A N1A 1_555 1_555
O3A P1A 1_555 1_555
O4A P2A 1_555 1_555
O5A P2A 1_555 1_555
O6A P2A 1_555 1_555
O8A P3A 1_555 1_555
O9A P3A 1_555 1_555
O9_3 P3_2 1_555 1_555
O9A_2 P3A_2 1_555 1_555

#END
