
#######################################################################
#
#                 Cambridge Crystallographic Data Centre
#                                CCDC 
#
#######################################################################
#
# If this CIF has been generated from an entry in the Cambridge 
# Structural Database, then it will include bibliographic, chemical, 
# crystal, experimental, refinement or atomic coordinate data resulting 
# from the CCDC's data processing and validation procedures.
#
#######################################################################

data_ECULEU
_symmetry_cell_setting           orthorhombic
_symmetry_space_group_name_H-M   'C m c a'
_symmetry_Int_Tables_number      64
_space_group_name_Hall           '-C 2ac 2'
loop_
_symmetry_equiv_pos_site_id
_symmetry_equiv_pos_as_xyz
1 x,y,z
2 1/2+x,1/2+y,z
3 -x,1/2-y,1/2+z
4 -x,1/2+y,1/2-z
5 x,-y,-z
6 1/2-x,-y,1/2+z
7 1/2-x,y,1/2-z
8 1/2+x,1/2-y,-z
9 -x,-y,-z
10 1/2-x,1/2-y,-z
11 x,1/2+y,1/2-z
12 x,1/2-y,1/2+z
13 -x,y,z
14 1/2+x,y,1/2-z
15 1/2+x,-y,1/2+z
16 1/2-x,1/2+y,z
_cell_length_a                   8.877(3)
_cell_length_b                   15.602(6)
_cell_length_c                   14.170(4)
_cell_angle_alpha                90
_cell_angle_beta                 90
_cell_angle_gamma                90
_cell_volume                     1962.53
loop_
_atom_site_label
_atom_site_type_symbol
_atom_site_fract_x
_atom_site_fract_y
_atom_site_fract_z
Cu1 Cu 0.5000 0.5000 0.0000
S1 S 0.5000 0.66345(6) 0.31088(7)
N1 N 0.33373(18) 0.43299(10) 0.06719(11)
N2 N 0.13513(18) 0.40312(10) 0.15403(11)
N3 N 0.5000 0.60686(18) 0.1242(2)
C1 C 0.1915(2) 0.32644(14) 0.12179(17)
H1 H 0.1537 0.2720 0.1344
C2 C 0.3122(2) 0.34561(13) 0.06839(17)
H2 H 0.3720 0.3058 0.0370
C3 C 0.2247(2) 0.46553(13) 0.11852(14)
H3 H 0.2108 0.5238 0.1291
C4 C 0.0000 0.4136(2) 0.2110(2)
H4 H 0.0000 0.3715 0.2614
H5 H 0.0000 0.4701 0.2395
C5 C 0.5000 0.62989(18) 0.2014(2)
Cu1_2 Cu -0.5000 0.5000 0.0000
Cu1_3 Cu 1.5000 0.5000 0.0000
S1H S 0.5000 0.33655(6) -0.31088(7)
N1L N -0.33373(18) 0.43299(10) 0.06719(11)
N1L_2 N 0.66627(18) 0.43299(10) 0.06719(11)
N1_2 N 1.33373(18) 0.43299(10) 0.06719(11)
N1H N 0.66627(18) 0.56701(10) -0.06719(11)
N1D N 0.33373(18) 0.56701(10) -0.06719(11)
N2L N -0.13513(18) 0.40312(10) 0.15403(11)
N2L_2 N 0.86487(18) 0.40312(10) 0.15403(11)
N2_2 N 1.13513(18) 0.40312(10) 0.15403(11)
N3H N 0.5000 0.39314(18) -0.1242(2)
C1L C -0.1915(2) 0.32644(14) 0.12179(17)
C1L_2 C 0.8085(2) 0.32644(14) 0.12179(17)
C1_2 C 1.1915(2) 0.32644(14) 0.12179(17)
H1L H -0.1537 0.2720 0.1344
H1L_2 H 0.8463 0.2720 0.1344
H1_2 H 1.1537 0.2720 0.1344
C2L C -0.3122(2) 0.34561(13) 0.06839(17)
C2L_2 C 0.6878(2) 0.34561(13) 0.06839(17)
C2_2 C 1.3122(2) 0.34561(13) 0.06839(17)
H2L H -0.3720 0.3058 0.0370
H2L_2 H 0.6280 0.3058 0.0370
H2_2 H 1.3720 0.3058 0.0370
C3L C -0.2247(2) 0.46553(13) 0.11852(14)
C3L_2 C 0.7753(2) 0.46553(13) 0.11852(14)
C3_2 C 1.2247(2) 0.46553(13) 0.11852(14)
H3L H -0.2108 0.5238 0.1291
H3L_2 H 0.7892 0.5238 0.1291
H3_2 H 1.2108 0.5238 0.1291
C4_2 C 1.0000 0.4136(2) 0.2110(2)
H4_2 H 1.0000 0.3715 0.2614
H5_2 H 1.0000 0.4701 0.2395
C5H C 0.5000 0.37011(18) -0.2014(2)
loop_
_geom_bond_atom_site_label_1
_geom_bond_atom_site_label_2
_geom_bond_site_symmetry_1
_geom_bond_site_symmetry_2
Cu1 N1 1_555 1_555
S1 C5 1_555 1_555
N1 C2 1_555 1_555
N2 C1 1_555 1_555
N3 Cu1 1_555 1_555
C1 H1 1_555 1_555
C2 C1 1_555 1_555
H2 C2 1_555 1_555
C3 N1 1_555 1_555
H3 C3 1_555 1_555
C4 N2 1_555 1_555
H4 C4 1_555 1_555
H5 C4 1_555 1_555
C5 N3 1_555 1_555
Cu1_2 N1L 1_555 1_555
Cu1_3 N1_2 1_555 1_555
S1H C5H 1_555 1_555
N1L C2L 1_555 1_555
N1L_2 Cu1 1_555 1_555
N1_2 C2_2 1_555 1_555
N1H Cu1 1_555 1_555
N1D Cu1 1_555 1_555
N2L C4 1_555 1_555
N2L_2 C1L_2 1_555 1_555
N2_2 C1_2 1_555 1_555
N3H Cu1 1_555 1_555
C1L N2L 1_555 1_555
C1L_2 H1L_2 1_555 1_555
C1_2 H1_2 1_555 1_555
H1L C1L 1_555 1_555
C2L C1L 1_555 1_555
C2L_2 N1L_2 1_555 1_555
C2_2 C1_2 1_555 1_555
H2L C2L 1_555 1_555
H2L_2 C2L_2 1_555 1_555
H2_2 C2_2 1_555 1_555
C3L N1L 1_555 1_555
C3L_2 N1L_2 1_555 1_555
C3_2 N1_2 1_555 1_555
H3L C3L 1_555 1_555
H3L_2 C3L_2 1_555 1_555
H3_2 C3_2 1_555 1_555
C4_2 N2L_2 1_555 1_555
H4_2 C4_2 1_555 1_555
H5_2 C4_2 1_555 1_555
C5H N3H 1_555 1_555
N2 C3 1_555 1_555
N2L C3L 1_555 1_555
N2L_2 C3L_2 1_555 1_555
N2_2 C3_2 1_555 1_555
N2_2 C4_2 1_555 1_555
C1L_2 C2L_2 1_555 1_555

#END
