
#######################################################################
#
#                 Cambridge Crystallographic Data Centre
#                                CCDC 
#
#######################################################################
#
# If this CIF has been generated from an entry in the Cambridge 
# Structural Database, then it will include bibliographic, chemical, 
# crystal, experimental, refinement or atomic coordinate data resulting 
# from the CCDC's data processing and validation procedures.
#
#######################################################################

data_ECULUL
_symmetry_cell_setting           monoclinic
_symmetry_space_group_name_H-M   'P 21/c'
_symmetry_Int_Tables_number      14
_space_group_name_Hall           '-P 2ybc'
loop_
_symmetry_equiv_pos_site_id
_symmetry_equiv_pos_as_xyz
1 x,y,z
2 -x,1/2+y,1/2-z
3 -x,-y,-z
4 x,1/2-y,1/2+z
_cell_length_a                   10.7446(17)
_cell_length_b                   14.9493(15)
_cell_length_c                   21.948(3)
_cell_angle_alpha                90
_cell_angle_beta                 116.322(9)
_cell_angle_gamma                90
_cell_volume                     3159.86
loop_
_atom_site_label
_atom_site_type_symbol
_atom_site_fract_x
_atom_site_fract_y
_atom_site_fract_z
Co1 Co 1.25845(5) 0.65414(3) 0.32308(2)
Cr1 Cr 0.74958(6) 0.79251(4) 0.16831(3)
Cl2 Cl 1.3945(4) 0.7517(3) 0.2922(2)
O1 O 0.8961(3) 0.79871(17) 0.26505(12)
O2 O 0.8804(3) 0.70443(17) 0.15953(12)
O3 O 1.1139(3) 0.74897(18) 0.32911(12)
O4 O 1.0902(3) 0.64263(18) 0.22261(12)
O5 O 0.8396(3) 0.89550(18) 0.14546(12)
O6 O 0.6362(3) 0.88953(18) 0.18248(13)
O7 O 0.8429(3) 1.04663(17) 0.15072(13)
O8 O 0.6315(3) 1.03975(18) 0.18720(14)
O9 O 0.6109(3) 0.77109(18) 0.07350(13)
O10 O 0.6417(3) 0.69997(19) 0.18827(13)
O11 O 0.4131(3) 0.6956(2) 0.01379(14)
O12 O 0.4366(4) 0.6288(2) 0.13671(17)
O13 O 1.3983(3) 0.6713(2) 0.42163(14)
H1 H 1.4268 0.6112 0.4525
H2 H 1.4002 0.7134 0.4465
C1 C 1.0039(4) 0.7520(2) 0.27569(17)
C2 C 0.9924(4) 0.6940(2) 0.21453(17)
C3 C 0.7965(4) 0.9714(3) 0.15515(17)
C4 C 0.6767(4) 0.9684(3) 0.17669(18)
C5 C 0.5123(4) 0.7176(3) 0.0674(2)
C6 C 0.5273(5) 0.6779(3) 0.1355(2)
Co1A Co 0.74155(5) 1.15414(3) 0.17692(2)
O7A O 1.1571(3) 0.54663(17) 0.34928(13)
O8A O 1.3685(3) 0.53975(18) 0.31280(14)
Cl1 Cl 1.5000 0.5000 0.5000
O14 O 0.6935(8) 0.4305(8) 0.2295(3)
H3 H 0.7078 0.4321 0.2694
C21 C 0.8086(7) 0.4749(5) 0.2223(4)
H26 H 0.8210 0.5351 0.2405
H27 H 0.8942 0.4420 0.2472
C22 C 0.7757(11) 0.4775(5) 0.1523(4)
H28 H 0.7279 0.4236 0.1307
H29 H 0.8596 0.4826 0.1472
H30 H 0.7172 0.5281 0.1315
O15 O 0.5654(6) 0.5378(4) 0.2655(3)
N1 N 1.1610(4) 0.6345(2) 0.03316(19)
H4 H 1.2496 0.6394 0.0563
N2 N 0.7377(4) 0.5998(4) -0.0790(2)
C7 C 1.1017(5) 0.6404(3) -0.0354(2)
H6 H 1.1576 0.6521 -0.0568
C8 C 0.9631(5) 0.6298(3) -0.0739(2)
H7 H 0.9259 0.6336 -0.1210
C9 C 0.8739(4) 0.6128(3) -0.0426(2)
C10 C 0.9412(5) 0.6106(3) 0.0304(2)
H8 H 0.8888 0.6020 0.0541
C11 C 1.0808(6) 0.6209(3) 0.0650(2)
H9 H 1.1223 0.6185 0.1122
C12 C 0.6772(7) 0.5964(7) -0.1546(3)
H10 H 0.6993 0.6506 -0.1711
H11 H 0.5782 0.5901 -0.1733
H12 H 0.7151 0.5462 -0.1680
C13 C 0.6444(6) 0.5876(5) -0.0465(4)
H13 H 0.6502 0.5269 -0.0312
H14 H 0.5506 0.6006 -0.0787
H15 H 0.6718 0.6273 -0.0083
N3 N 0.7000(8) 0.8285(5) -0.1090(4)
H5 H 0.6163 0.8181 -0.1388
N4 N 1.106(2) 0.8828(17) 0.0355(13)
C14 C 0.8005(10) 0.8426(6) -0.1290(4)
H16 H 0.7781 0.8382 -0.1750
C15 C 0.9330(13) 0.8628(8) -0.0844(6)
H17 H 0.9982 0.8745 -0.1005
C16 C 0.975(2) 0.8664(11) -0.0107(9)
C17 C 0.8704(14) 0.8524(10) 0.0083(6)
H18 H 0.8888 0.8568 0.0538
C18 C 0.7300(14) 0.8306(10) -0.0433(8)
H19 H 0.6609 0.8181 -0.0300
C19 C 1.216(2) 0.898(2) 0.0130(16)
H20 H 1.2309 0.8444 -0.0067
H21 H 1.3010 0.9150 0.0514
H22 H 1.1879 0.9454 -0.0201
C20 C 1.1403(15) 0.8884(10) 0.1037(6)
H23 H 1.0702 0.9217 0.1097
H24 H 1.2282 0.9180 0.1270
H25 H 1.1464 0.8293 0.1219
C23? C 1.2935(12) 0.8926(8) 0.0645(6)
C24? C 1.171(2) 0.8960(11) 0.0100(10)
C25? C 1.056(3) 0.8750(14) 0.0196(13)
C26? C 1.0712(15) 0.8440(9) 0.0838(6)
C27? C 1.1948(14) 0.8433(10) 0.1332(6)
C28? C 0.8979(19) 0.8977(12) -0.1048(7)
C29? C 0.7961(18) 0.8548(11) -0.0261(10)
H31? H 1.3722 0.9094 0.0599
H32? H 1.1630 0.9119 -0.0326
H33? H 0.9951 0.8249 0.0899
H34? H 1.2065 0.8262 0.1762
H35? H 0.9174 0.9601 -0.1064
H36? H 0.8024 0.8861 -0.1352
H37? H 0.9566 0.8629 -0.1183
H38? H 0.7971 0.7936 -0.0126
H39? H 0.7150 0.8653 -0.0681
H40? H 0.7946 0.8935 0.0085
H41? H 1.3897 0.8643 0.1586
N5? N 1.3085(11) 0.8665(7) 0.1248(5)
N6? N 0.924(2) 0.8735(13) -0.0355(8)
O16? O 0.5654(10) 0.8457(7) -0.2068(5)
loop_
_geom_bond_atom_site_label_1
_geom_bond_atom_site_label_2
_geom_bond_site_symmetry_1
_geom_bond_site_symmetry_2
Co1 Cl2 1_555 1_555
Cr1 O1 1_555 1_555
O1 C1 1_555 1_555
O2 Cr1 1_555 1_555
O3 Co1 1_555 1_555
O4 Co1 1_555 1_555
O5 Cr1 1_555 1_555
O6 Cr1 1_555 1_555
O7 C3 1_555 1_555
O8 C4 1_555 1_555
O9 Cr1 1_555 1_555
O10 Cr1 1_555 1_555
O11 C5 1_555 1_555
O12 C6 1_555 1_555
O13 Co1 1_555 1_555
H1 O13 1_555 1_555
H2 O13 1_555 1_555
O14 H3 1_555 1_555
N1 H4 1_555 1_555
N2 C9 1_555 1_555
N3 H5 1_555 1_555
N4 C16 1_555 1_555
C1 O3 1_555 1_555
C2 O2 1_555 1_555
C3 O5 1_555 1_555
C4 O6 1_555 1_555
C5 O9 1_555 1_555
C6 O10 1_555 1_555
C7 N1 1_555 1_555
H6 C7 1_555 1_555
C8 C7 1_555 1_555
H7 C8 1_555 1_555
C9 C8 1_555 1_555
C10 C9 1_555 1_555
H8 C10 1_555 1_555
C11 N1 1_555 1_555
H9 C11 1_555 1_555
C12 N2 1_555 1_555
H10 C12 1_555 1_555
H11 C12 1_555 1_555
H12 C12 1_555 1_555
C13 N2 1_555 1_555
H13 C13 1_555 1_555
H14 C13 1_555 1_555
H15 C13 1_555 1_555
C14 N3 1_555 1_555
H16 C14 1_555 1_555
C15 C14 1_555 1_555
H17 C15 1_555 1_555
C16 C15 1_555 1_555
C17 C16 1_555 1_555
H18 C17 1_555 1_555
C18 N3 1_555 1_555
H19 C18 1_555 1_555
C19 N4 1_555 1_555
H20 C19 1_555 1_555
H21 C19 1_555 1_555
H22 C19 1_555 1_555
C20 N4 1_555 1_555
H23 C20 1_555 1_555
H24 C20 1_555 1_555
H25 C20 1_555 1_555
C21 O14 1_555 1_555
H26 C21 1_555 1_555
H27 C21 1_555 1_555
C22 C21 1_555 1_555
H28 C22 1_555 1_555
H29 C22 1_555 1_555
H30 C22 1_555 1_555
Co1A O7 1_555 1_555
O7A Co1 1_555 1_555
O8A Co1 1_555 1_555
O4 C2 1_555 1_555
O8 Co1A 1_555 1_555
C1 C2 1_555 1_555
C3 C4 1_555 1_555
C5 C6 1_555 1_555
C10 C11 1_555 1_555
C17 C18 1_555 1_555

#END
