
#######################################################################
#
#                 Cambridge Crystallographic Data Centre
#                                CCDC 
#
#######################################################################
#
# If this CIF has been generated from an entry in the Cambridge 
# Structural Database, then it will include bibliographic, chemical, 
# crystal, experimental, refinement or atomic coordinate data resulting 
# from the CCDC's data processing and validation procedures.
#
#######################################################################

data_ECULOF
_symmetry_cell_setting           monoclinic
_symmetry_space_group_name_H-M   'P 21/c'
_symmetry_Int_Tables_number      14
_space_group_name_Hall           '-P 2ybc'
loop_
_symmetry_equiv_pos_site_id
_symmetry_equiv_pos_as_xyz
1 x,y,z
2 -x,1/2+y,1/2-z
3 -x,-y,-z
4 x,1/2-y,1/2+z
_cell_length_a                   21.239(4)
_cell_length_b                   15.109(2)
_cell_length_c                   21.809(3)
_cell_angle_alpha                90
_cell_angle_beta                 115.163(9)
_cell_angle_gamma                90
_cell_volume                     6334.36
loop_
_atom_site_label
_atom_site_type_symbol
_atom_site_fract_x
_atom_site_fract_y
_atom_site_fract_z
Mn1 Mn 1.13563(3) 0.14461(4) 0.82093(3)
Cr1 Cr 0.87368(3) 0.28167(4) 0.66834(3)
O1 O 0.94695(13) 0.28584(16) 0.76418(11)
O2 O 0.93992(13) 0.19695(16) 0.65707(11)
O3 O 1.05588(13) 0.23646(16) 0.82645(11)
O4 O 1.04560(14) 0.13661(17) 0.71679(12)
O5 O 1.08186(12) -0.11485(16) 0.85386(12)
O6 O 1.18488(13) -0.12442(17) 0.81636(13)
O7 O 1.08166(12) 0.03413(16) 0.84872(12)
O8 O 1.18888(14) 0.02387(17) 0.80962(13)
O9 O 0.80470(13) 0.26308(17) 0.57396(11)
O10 O 0.82080(13) 0.18651(17) 0.68779(12)
O11 O 0.70714(15) 0.1867(2) 0.51469(13)
O12 O 0.72112(15) 0.11053(19) 0.63650(14)
O13 O 1.18653(17) 0.2258(2) 0.77338(15)
H1 H 1.1694 0.2795 0.7693
H2 H 1.1832 0.2046 0.7280
O14 O 1.20774(14) 0.17500(18) 0.92186(12)
H3 H 1.2089 0.2142 0.9498
H4 H 1.2222 0.1230 0.9453
C1 C 1.00121(18) 0.2407(2) 0.77357(16)
C2 C 0.99602(18) 0.1854(2) 0.71093(16)
C3 C 1.10450(17) -0.0399(2) 0.84403(16)
C4 C 1.16538(17) -0.0458(2) 0.82173(16)
C5 C 0.75705(19) 0.2068(2) 0.56793(17)
C6 C 0.76520(19) 0.1631(2) 0.63554(18)
Cr1A Cr 1.12632(3) -0.21833(4) 0.83166(3)
O5A O 0.91814(12) 0.38515(16) 0.64614(12)
O6A O 0.81512(13) 0.37558(17) 0.68364(13)
Mn2 Mn 0.36875(3) -0.34464(4) 0.67540(2)
Cr2 Cr 0.63138(3) -0.21106(4) 0.83035(3)
Cl2 Cl 0.29806(6) -0.24510(8) 0.71039(6)
O15 O 0.56674(13) -0.30102(16) 0.83902(11)
O16 O 0.55881(13) -0.20653(17) 0.73389(12)
O17 O 0.45804(13) -0.35356(17) 0.77992(12)
O18 O 0.45085(13) -0.25638(17) 0.67052(12)
O19 O 0.41766(12) -0.61268(16) 0.64609(12)
O20 O 0.31411(12) -0.61156(16) 0.68317(12)
O21 O 0.42194(12) -0.46290(16) 0.64894(12)
O22 O 0.31414(13) -0.46323(16) 0.68613(13)
O23 O 0.70015(13) -0.23173(17) 0.92447(12)
O24 O 0.69129(14) -0.29443(18) 0.80887(13)
O25 O 0.80579(15) -0.2920(2) 0.98229(14)
O26 O 0.80592(17) -0.3304(2) 0.85458(16)
O27 O 0.30520(15) -0.32775(19) 0.57085(12)
H5 H 0.2890 -0.3742 0.5467
H6 H 0.3027 -0.2786 0.5468
C7 C 0.50853(17) -0.3081(2) 0.78590(16)
C8 C 0.50469(17) -0.2522(2) 0.72403(16)
C9 C 0.39739(16) -0.5355(2) 0.65449(16)
C10 C 0.33637(18) -0.5356(2) 0.67586(16)
C11 C 0.7546(2) -0.2748(2) 0.92880(19)
C12 C 0.7523(2) -0.3035(3) 0.8587(2)
Cr2A Cr 0.36862(3) -0.71106(4) 0.66965(3)
O19A O 0.58234(12) -0.11268(16) 0.85391(12)
O20A O 0.68589(12) -0.11156(16) 0.81683(12)
Cl1 Cl 0.25062(5) -0.49983(7) 0.49710(5)
O28 O 0.8486(2) -0.1036(2) 0.7306(2)
H7 H 0.8253 -0.0692 0.7415
C41 C 0.9067(3) -0.0542(4) 0.7243(3)
H55 H 0.9152 0.0008 0.7495
H56 H 0.9489 -0.0893 0.7432
C42 C 0.8887(5) -0.0358(5) 0.6544(4)
H57 H 0.8735 -0.0892 0.6285
H58 H 0.9287 -0.0129 0.6499
H59 H 0.8520 0.0073 0.6381
O29 O 0.3582(5) 0.0244(6) 0.6186(5)
H8 H 0.3717 0.0741 0.6335
C43 C 0.3968(7) -0.0378(6) 0.6655(6)
H60 H 0.4437 -0.0396 0.6685
H61 H 0.3761 -0.0959 0.6517
C44 C 0.3990(4) -0.0147(5) 0.7324(3)
H62 H 0.4107 0.0468 0.7417
H63 H 0.4335 -0.0502 0.7669
H64 H 0.3543 -0.0255 0.7320
O30 O 0.78680(15) 0.02742(19) 0.76491(14)
H9 H 0.7510 0.0261 0.7806
H10 H 0.7578 0.0639 0.7244
N1 N 1.06524(19) 0.1485(2) 0.52232(19)
H11 H 1.1085 0.1622 0.5440
N2 N 0.86043(19) 0.0714(3) 0.4183(2)
C13 C 1.0354(2) 0.1502(3) 0.4546(2)
H15 H 1.0614 0.1684 0.4317
C14 C 0.9676(2) 0.1256(3) 0.41828(19)
H16 H 0.9481 0.1268 0.3712
C15 C 0.9263(2) 0.0980(3) 0.45238(19)
C16 C 0.9603(2) 0.1012(3) 0.52457(19)
H17 H 0.9358 0.0865 0.5497
C17 C 1.0283(2) 0.1257(3) 0.5570(2)
H18 H 1.0497 0.1266 0.6041
C18 C 0.8299(3) 0.0603(4) 0.3432(3)
H19 H 0.8248 0.1172 0.3221
H20 H 0.7851 0.0325 0.3280
H21 H 0.8601 0.0240 0.3312
C19 C 0.8170(3) 0.0490(5) 0.4547(4)
H22 H 0.8399 0.0041 0.4879
H23 H 0.7726 0.0276 0.4229
H24 H 0.8107 0.1009 0.4768
N3 N 0.85341(19) 0.3231(3) 0.3874(2)
H12 H 0.8127 0.3089 0.3575
N4 N 1.04955(18) 0.3887(2) 0.53154(17)
C20 C 0.9027(2) 0.3504(3) 0.3675(2)
H25 H 0.8918 0.3537 0.3215
C21 C 0.9681(2) 0.3732(3) 0.4138(2)
H26 H 1.0011 0.3922 0.3992
C22 C 0.9857(2) 0.3676(2) 0.48498(19)
C23 C 0.9311(2) 0.3387(3) 0.5023(2)
H27 H 0.9396 0.3343 0.5477
C24 C 0.8680(2) 0.3180(3) 0.4543(2)
H28 H 0.8335 0.2996 0.4670
C25 C 1.1051(2) 0.4162(4) 0.5127(3)
H29 H 1.1150 0.3691 0.4885
H30 H 1.1463 0.4298 0.5529
H31 H 1.0906 0.4677 0.4843
C26 C 1.0681(3) 0.3805(4) 0.6050(2)
H32 H 1.0307 0.4031 0.6142
H33 H 1.1096 0.4138 0.6302
H34 H 1.0758 0.3194 0.6180
N5 N 0.41784(18) -0.1233(2) 0.46720(17)
H13 H 0.3732 -0.1228 0.4456
N6 N 0.6320(2) -0.1170(3) 0.5733(2)
C27 C 0.4576(2) -0.1067(3) 0.4341(2)
H35 H 0.4361 -0.0969 0.3876
C28 C 0.5287(2) -0.1037(3) 0.4668(2)
H36 H 0.5550 -0.0917 0.4428
C29 C 0.5622(2) -0.1192(3) 0.5382(2)
C30 C 0.5180(2) -0.1392(3) 0.57043(19)
H37 H 0.5373 -0.1512 0.6166
C31 C 0.4479(2) -0.1408(3) 0.5343(2)
H38 H 0.4200 -0.1543 0.5562
C32 C 0.6783(3) -0.0996(5) 0.5395(4)
H39 H 0.6681 -0.1409 0.5031
H40 H 0.7259 -0.1062 0.5717
H41 H 0.6708 -0.0404 0.5219
C33 C 0.6639(3) -0.1321(5) 0.6467(3)
H42 H 0.6466 -0.0892 0.6682
H43 H 0.7135 -0.1266 0.6639
H44 H 0.6524 -0.1905 0.6560
N7 N 0.6498(2) 0.1447(3) 1.1225(2)
H14 H 0.6904 0.1493 1.1555
N8 N 0.4542(2) 0.1251(3) 0.9634(2)
C34 C 0.6433(3) 0.1141(3) 1.0633(3)
H45 H 0.6831 0.0963 1.0589
C35 C 0.5801(3) 0.1074(3) 1.0081(2)
H46 H 0.5773 0.0878 0.9666
C36 C 0.5185(2) 0.1314(3) 1.0158(2)
C37 C 0.5276(3) 0.1632(3) 1.0799(2)
H47 H 0.4891 0.1801 1.0870
C38 C 0.5925(3) 0.1692(4) 1.1313(3)
H48 H 0.5978 0.1904 1.1733
C39 C 0.4442(3) 0.0974(4) 0.8958(2)
H49 H 0.4775 0.1268 0.8838
H50 H 0.3980 0.1126 0.8637
H51 H 0.4505 0.0345 0.8953
C40 C 0.3905(3) 0.1449(4) 0.9715(3)
H52 H 0.3848 0.1022 1.0013
H53 H 0.3512 0.1425 0.9281
H54 H 0.3939 0.2031 0.9904
loop_
_geom_bond_atom_site_label_1
_geom_bond_atom_site_label_2
_geom_bond_site_symmetry_1
_geom_bond_site_symmetry_2
Mn1 O3 1_555 1_555
Mn2 Cl2 1_555 1_555
Cr1 O1 1_555 1_555
Cr2 O15 1_555 1_555
O1 C1 1_555 1_555
O2 Cr1 1_555 1_555
O3 C1 1_555 1_555
O4 Mn1 1_555 1_555
O5 C3 1_555 1_555
O6 C4 1_555 1_555
O7 Mn1 1_555 1_555
O8 Mn1 1_555 1_555
O9 Cr1 1_555 1_555
O10 Cr1 1_555 1_555
O11 C5 1_555 1_555
O12 C6 1_555 1_555
O13 Mn1 1_555 1_555
H1 O13 1_555 1_555
H2 O13 1_555 1_555
O14 Mn1 1_555 1_555
H3 O14 1_555 1_555
H4 O14 1_555 1_555
O15 C7 1_555 1_555
O16 Cr2 1_555 1_555
O17 Mn2 1_555 1_555
O18 Mn2 1_555 1_555
O19 C9 1_555 1_555
O20 C10 1_555 1_555
O21 Mn2 1_555 1_555
O22 Mn2 1_555 1_555
O23 Cr2 1_555 1_555
O24 Cr2 1_555 1_555
O25 C11 1_555 1_555
O26 C12 1_555 1_555
O27 Mn2 1_555 1_555
H5 O27 1_555 1_555
H6 O27 1_555 1_555
O28 H7 1_555 1_555
O29 H8 1_555 1_555
O30 H9 1_555 1_555
H10 O30 1_555 1_555
N1 H11 1_555 1_555
N2 C15 1_555 1_555
N3 H12 1_555 1_555
N4 C22 1_555 1_555
N5 H13 1_555 1_555
N6 C29 1_555 1_555
N7 H14 1_555 1_555
N8 C36 1_555 1_555
C1 C2 1_555 1_555
C2 O2 1_555 1_555
C3 O7 1_555 1_555
C4 O8 1_555 1_555
C5 O9 1_555 1_555
C6 O10 1_555 1_555
C7 O17 1_555 1_555
C8 O16 1_555 1_555
C9 O21 1_555 1_555
C10 O22 1_555 1_555
C11 O23 1_555 1_555
C12 O24 1_555 1_555
C13 N1 1_555 1_555
H15 C13 1_555 1_555
C14 C13 1_555 1_555
H16 C14 1_555 1_555
C15 C14 1_555 1_555
C16 C15 1_555 1_555
H17 C16 1_555 1_555
C17 N1 1_555 1_555
H18 C17 1_555 1_555
C18 N2 1_555 1_555
H19 C18 1_555 1_555
H20 C18 1_555 1_555
H21 C18 1_555 1_555
C19 N2 1_555 1_555
H22 C19 1_555 1_555
H23 C19 1_555 1_555
H24 C19 1_555 1_555
C20 N3 1_555 1_555
H25 C20 1_555 1_555
C21 C20 1_555 1_555
H26 C21 1_555 1_555
C22 C21 1_555 1_555
C23 C22 1_555 1_555
H27 C23 1_555 1_555
C24 N3 1_555 1_555
H28 C24 1_555 1_555
C25 N4 1_555 1_555
H29 C25 1_555 1_555
H30 C25 1_555 1_555
H31 C25 1_555 1_555
C26 N4 1_555 1_555
H32 C26 1_555 1_555
H33 C26 1_555 1_555
H34 C26 1_555 1_555
C27 N5 1_555 1_555
H35 C27 1_555 1_555
C28 C27 1_555 1_555
H36 C28 1_555 1_555
C29 C28 1_555 1_555
C30 C29 1_555 1_555
H37 C30 1_555 1_555
C31 N5 1_555 1_555
H38 C31 1_555 1_555
C32 N6 1_555 1_555
H39 C32 1_555 1_555
H40 C32 1_555 1_555
H41 C32 1_555 1_555
C33 N6 1_555 1_555
H42 C33 1_555 1_555
H43 C33 1_555 1_555
H44 C33 1_555 1_555
C34 N7 1_555 1_555
H45 C34 1_555 1_555
C35 C34 1_555 1_555
H46 C35 1_555 1_555
C36 C35 1_555 1_555
C37 C36 1_555 1_555
H47 C37 1_555 1_555
C38 N7 1_555 1_555
H48 C38 1_555 1_555
C39 N8 1_555 1_555
H49 C39 1_555 1_555
H50 C39 1_555 1_555
H51 C39 1_555 1_555
C40 N8 1_555 1_555
H52 C40 1_555 1_555
H53 C40 1_555 1_555
H54 C40 1_555 1_555
C41 O28 1_555 1_555
H55 C41 1_555 1_555
H56 C41 1_555 1_555
C42 C41 1_555 1_555
H57 C42 1_555 1_555
H58 C42 1_555 1_555
H59 C42 1_555 1_555
C43 O29 1_555 1_555
H60 C43 1_555 1_555
H61 C43 1_555 1_555
C44 C43 1_555 1_555
H62 C44 1_555 1_555
H63 C44 1_555 1_555
H64 C44 1_555 1_555
Cr1A O5 1_555 1_555
Cr2A O19 1_555 1_555
O5A Cr1 1_555 1_555
O6A Cr1 1_555 1_555
O19A Cr2 1_555 1_555
O20A Cr2 1_555 1_555
O4 C2 1_555 1_555
O6 Cr1A 1_555 1_555
O18 C8 1_555 1_555
O20 Cr2A 1_555 1_555
C3 C4 1_555 1_555
C5 C6 1_555 1_555
C7 C8 1_555 1_555
C9 C10 1_555 1_555
C11 C12 1_555 1_555
C16 C17 1_555 1_555
C23 C24 1_555 1_555
C30 C31 1_555 1_555
C37 C38 1_555 1_555

#END
