
#######################################################################
#
#                 Cambridge Crystallographic Data Centre
#                                CCDC 
#
#######################################################################
#
# If this CIF has been generated from an entry in the Cambridge 
# Structural Database, then it will include bibliographic, chemical, 
# crystal, experimental, refinement or atomic coordinate data resulting 
# from the CCDC's data processing and validation procedures.
#
#######################################################################

data_ECULUK
_symmetry_cell_setting           monoclinic
_symmetry_space_group_name_H-M   'C 2/c'
_symmetry_Int_Tables_number      15
_space_group_name_Hall           '-C 2yn'
loop_
_symmetry_equiv_pos_site_id
_symmetry_equiv_pos_as_xyz
1 x,y,z
2 1/2+x,1/2+y,z
3 -x,y,1/2-z
4 1/2-x,1/2+y,1/2-z
5 -x,-y,-z
6 1/2-x,1/2-y,-z
7 x,-y,1/2+z
8 1/2+x,1/2-y,1/2+z
_cell_length_a                   24.440(2)
_cell_length_b                   6.9711(6)
_cell_length_c                   23.924(2)
_cell_angle_alpha                90
_cell_angle_beta                 119.728(6)
_cell_angle_gamma                90
_cell_volume                     3539.57
loop_
_atom_site_label
_atom_site_type_symbol
_atom_site_fract_x
_atom_site_fract_y
_atom_site_fract_z
Cu1 Cu 0.659219(14) 0.47135(4) 0.712618(14)
O1 O 0.73194(8) 0.6460(3) 0.74072(9)
C1 C 0.76192(12) 0.6337(3) 0.71052(12)
O2 O 0.80718(9) 0.7379(3) 0.71995(9)
C2 C 0.74264(13) 0.4776(4) 0.65984(14)
H1 H 0.7358 0.5350 0.6190
H2 H 0.7771 0.3825 0.6740
N1 N 0.68442(9) 0.3795(3) 0.64866(10)
H3 H 0.6921 0.2483 0.6542
N2 N 0.63133(10) 0.6031(3) 0.76742(10)
N3 N 0.64844(11) 0.5498(3) 0.82821(11)
H4 H 0.6678 0.4417 0.8462
C3 C 0.63203(15) 0.6838(5) 0.85773(15)
C4 C 0.60224(15) 0.8257(4) 0.81387(16)
H5 H 0.5847 0.9395 0.8203
C5 C 0.60229(12) 0.7730(4) 0.75801(14)
C6 C 0.6477(2) 0.6641(6) 0.92630(17)
H6 H 0.6183 0.5743 0.9290
H7 H 0.6444 0.7896 0.9428
H8 H 0.6908 0.6154 0.9521
C7 C 0.57856(17) 0.8778(4) 0.69652(16)
H9 H 0.6006 0.8326 0.6742
H10 H 0.5861 1.0155 0.7052
H11 H 0.5332 0.8548 0.6695
N4 N 0.57296(9) 0.3964(3) 0.64057(10)
C8 C 0.63098(12) 0.4138(4) 0.58382(12)
H12 H 0.6287 0.5510 0.5722
H13 H 0.6354 0.3364 0.5516
N5 N 0.57478(10) 0.3571(3) 0.58605(10)
C9 C 0.51994(12) 0.2829(3) 0.54001(12)
C10 C 0.48095(12) 0.2730(3) 0.56607(13)
H14 H 0.4388 0.2273 0.5455
C11 C 0.51576(12) 0.3437(3) 0.62891(12)
C12 C 0.50973(13) 0.2249(3) 0.47556(12)
H15 H 0.5136 0.3377 0.4533
H16 H 0.4675 0.1696 0.4501
H17 H 0.5414 0.1294 0.4809
C13 C 0.49705(13) 0.3593(4) 0.67926(14)
H18 H 0.5282 0.2933 0.7184
H19 H 0.4556 0.2999 0.6636
H20 H 0.4950 0.4948 0.6889
Cu1C Cu 0.840781(14) 0.97135(4) 0.787382(14)
O2C O 0.69282(9) 0.2379(3) 0.78005(9)
N6 N 0.67808(11) 0.9400(3) 0.56584(12)
O3 O 0.71262(14) 1.0761(4) 0.57190(16)
O4 O 0.64591(15) 0.9492(4) 0.59254(15)
O5 O 0.67594(13) 0.7960(3) 0.53391(13)
O6 O 0.6896(2) 0.7831(6) 0.42067(18)
H21 H 0.686(3) 0.824(8) 0.4515(19)
H22 H 0.7268(12) 0.741(8) 0.437(3)
loop_
_geom_bond_atom_site_label_1
_geom_bond_atom_site_label_2
_geom_bond_site_symmetry_1
_geom_bond_site_symmetry_2
Cu1 O1 1_555 1_555
O1 C1 1_555 1_555
C1 O2 1_555 1_555
O2 Cu1C 1_555 1_555
C2 C1 1_555 1_555
H1 C2 1_555 1_555
H2 C2 1_555 1_555
N1 Cu1 1_555 1_555
H3 N1 1_555 1_555
N2 Cu1 1_555 1_555
N3 N2 1_555 1_555
H4 N3 1_555 1_555
C3 N3 1_555 1_555
C4 C3 1_555 1_555
H5 C4 1_555 1_555
C5 N2 1_555 1_555
C6 C3 1_555 1_555
H6 C6 1_555 1_555
H7 C6 1_555 1_555
H8 C6 1_555 1_555
C7 C5 1_555 1_555
H9 C7 1_555 1_555
H10 C7 1_555 1_555
H11 C7 1_555 1_555
N4 Cu1 1_555 1_555
C8 N1 1_555 1_555
H12 C8 1_555 1_555
H13 C8 1_555 1_555
N5 N4 1_555 1_555
C9 N5 1_555 1_555
C10 C9 1_555 1_555
H14 C10 1_555 1_555
C11 N4 1_555 1_555
C12 C9 1_555 1_555
H15 C12 1_555 1_555
H16 C12 1_555 1_555
H17 C12 1_555 1_555
C13 C11 1_555 1_555
H18 C13 1_555 1_555
H19 C13 1_555 1_555
H20 C13 1_555 1_555
N6 O3 1_555 1_555
O4 N6 1_555 1_555
O5 N6 1_555 1_555
O6 H21 1_555 1_555
H22 O6 1_555 1_555
O2C Cu1 1_555 1_555
C2 N1 1_555 1_555
C4 C5 1_555 1_555
C8 N5 1_555 1_555
C10 C11 1_555 1_555

#END
