
#######################################################################
#
#                 Cambridge Crystallographic Data Centre
#                                CCDC 
#
#######################################################################
#
# If this CIF has been generated from an entry in the Cambridge 
# Structural Database, then it will include bibliographic, chemical, 
# crystal, experimental, refinement or atomic coordinate data resulting 
# from the CCDC's data processing and validation procedures.
#
#######################################################################

data_ECULIZ
_symmetry_cell_setting           monoclinic
_symmetry_space_group_name_H-M   'P c'
_symmetry_Int_Tables_number      7
_space_group_name_Hall           'P -2yc'
loop_
_symmetry_equiv_pos_site_id
_symmetry_equiv_pos_as_xyz
1 x,y,z
2 x,-y,1/2+z
_cell_length_a                   9.3746(11)
_cell_length_b                   11.9158(17)
_cell_length_c                   10.2291(9)
_cell_angle_alpha                90
_cell_angle_beta                 115.202(10)
_cell_angle_gamma                90
_cell_volume                     1033.88
loop_
_atom_site_label
_atom_site_type_symbol
_atom_site_fract_x
_atom_site_fract_y
_atom_site_fract_z
Mn1 Mn 0.73117(5) 0.66298(4) 0.50851(5)
Cr1 Cr 0.37231(5) 0.26367(4) 0.36257(5)
O1 O 0.5441(3) 0.1845(2) 0.3389(2)
O2 O 0.3622(3) 0.1251(2) 0.4621(3)
O3 O 0.6520(3) 0.0129(2) 0.3659(3)
O4 O 0.4370(4) -0.0544(2) 0.4816(4)
O5 O 0.3989(3) 0.40515(19) 0.2715(2)
O6 O 0.5258(3) 0.33854(19) 0.5433(2)
O7 O 0.6644(3) 0.4996(2) 0.6135(2)
O8 O 0.5073(3) 0.5771(2) 0.3363(2)
O9 O 1.2091(3) 0.7946(2) 0.6772(2)
O10 O 1.1865(3) 0.6672(2) 0.8792(2)
O11 O 0.9466(3) 0.7808(2) 0.5410(3)
O12 O 0.9295(3) 0.6326(2) 0.7372(2)
O13 O 0.8376(3) 0.5464(2) 0.4144(3)
H1 H 0.9281 0.5199 0.4397
H2 H 0.8153 0.5451 0.3279
O14 O 0.6245(4) 0.7710(2) 0.6057(3)
H3 H 0.5450 0.8012 0.5206
H4 H 0.6167 0.7787 0.6652
O15 O 0.6388(3) 0.7799(2) 0.3214(3)
H5 H 0.5968 0.7512 0.2074
H6 H 0.6485 0.8518 0.3303
C1 C 0.5587(4) 0.0786(3) 0.3773(4)
C2 C 0.4450(4) 0.0441(3) 0.4474(4)
C3 C 0.4859(4) 0.4795(3) 0.3636(3)
C4 C 0.5679(4) 0.4374(3) 0.5228(3)
C5 C 1.0693(4) 0.7585(3) 0.6481(3)
C6 C 1.0571(4) 0.6787(3) 0.7610(3)
Cr1A Cr 1.37231(5) 0.73633(4) 0.86257(5)
O9A O 0.2091(3) 0.2054(2) 0.1772(2)
O10A O 0.1865(3) 0.3328(2) 0.3792(2)
O16 O 1.1609(7) 0.5423(5) 0.4965(7)
H7 H 1.1800 0.4745 0.4941
H8 H 1.2337 0.5545 0.5828
N1 N 0.0531(5) 0.1867(4) 0.6913(4)
C7 C 0.0049(11) 0.1001(10) 0.7703(9)
H9 H 0.0972 0.0689 0.8467
H10 H -0.0529 0.0415 0.7045
H11 H -0.0604 0.1341 0.8103
C8 C -0.0777(8) 0.2565(7) 0.6001(10)
H12 H -0.1128 0.3008 0.6592
H13 H -0.1626 0.2099 0.5370
H14 H -0.0446 0.3052 0.5435
C9 C 0.1025(16) 0.1230(9) 0.5958(11)
H15 H 0.1955 0.1565 0.5956
H16 H 0.0196 0.1237 0.4996
H17 H 0.1249 0.0470 0.6296
C10 C 0.1757(12) 0.2527(8) 0.7912(13)
H18 H 0.2243 0.2951 0.7413
H19 H 0.2528 0.2049 0.8614
H20 H 0.1335 0.3032 0.8389
H21? H 1.1799 0.4744 0.4943
H22? H 1.2335 0.5544 0.5830
O17? O 1.1389(11) 0.4933(9) 0.5522(10)
loop_
_geom_bond_atom_site_label_1
_geom_bond_atom_site_label_2
_geom_bond_site_symmetry_1
_geom_bond_site_symmetry_2
Mn1 O7 1_555 1_555
Cr1 O1 1_555 1_555
O1 C1 1_555 1_555
O2 Cr1 1_555 1_555
O3 C1 1_555 1_555
O4 C2 1_555 1_555
O5 Cr1 1_555 1_555
O6 Cr1 1_555 1_555
O7 C4 1_555 1_555
O8 Mn1 1_555 1_555
O9 C5 1_555 1_555
O10 C6 1_555 1_555
O11 Mn1 1_555 1_555
O12 Mn1 1_555 1_555
O13 Mn1 1_555 1_555
H1 O13 1_555 1_555
H2 O13 1_555 1_555
O14 Mn1 1_555 1_555
H3 O14 1_555 1_555
H4 O14 1_555 1_555
O15 Mn1 1_555 1_555
H5 O15 1_555 1_555
H6 O15 1_555 1_555
O16 H7 1_555 1_555
H8 O16 1_555 1_555
N1 C7 1_555 1_555
C1 C2 1_555 1_555
C2 O2 1_555 1_555
C3 O5 1_555 1_555
C4 O6 1_555 1_555
C5 O11 1_555 1_555
C6 O12 1_555 1_555
C7 H9 1_555 1_555
H10 C7 1_555 1_555
H11 C7 1_555 1_555
C8 N1 1_555 1_555
H12 C8 1_555 1_555
H13 C8 1_555 1_555
H14 C8 1_555 1_555
C9 N1 1_555 1_555
H15 C9 1_555 1_555
H16 C9 1_555 1_555
H17 C9 1_555 1_555
C10 N1 1_555 1_555
H18 C10 1_555 1_555
H19 C10 1_555 1_555
H20 C10 1_555 1_555
Cr1A O9 1_555 1_555
O9A Cr1 1_555 1_555
O10A Cr1 1_555 1_555
O8 C3 1_555 1_555
O10 Cr1A 1_555 1_555
C3 C4 1_555 1_555
C5 C6 1_555 1_555

#END
