
#######################################################################
#
#                 Cambridge Crystallographic Data Centre
#                                CCDC 
#
#######################################################################
#
# If this CIF has been generated from an entry in the Cambridge 
# Structural Database, then it will include bibliographic, chemical, 
# crystal, experimental, refinement or atomic coordinate data resulting 
# from the CCDC's data processing and validation procedures.
#
#######################################################################

data_ECUMEW
_symmetry_cell_setting           triclinic
_symmetry_space_group_name_H-M   'P 1'
_symmetry_Int_Tables_number      1
_space_group_name_Hall           'P 1'
loop_
_symmetry_equiv_pos_site_id
_symmetry_equiv_pos_as_xyz
1 x,y,z
_cell_length_a                   10.5240(10)
_cell_length_b                   12.8130(10)
_cell_length_c                   15.440(2)
_cell_angle_alpha                91.666(12)
_cell_angle_beta                 94.199(7)
_cell_angle_gamma                90.373(10)
_cell_volume                     2075.45
loop_
_atom_site_label
_atom_site_type_symbol
_atom_site_fract_x
_atom_site_fract_y
_atom_site_fract_z
Mn1 Mn 0.15472(4) 0.49421(4) 0.33706(3)
Cr1 Cr 0.19943(4) 0.10965(4) 0.49513(3)
Cr2 Cr 0.60533(4) 0.47986(4) 0.17845(3)
C1 C 0.2058(3) 0.2680(3) 0.3738(2)
C2 C 0.1307(3) 0.3124(3) 0.4510(2)
O1 O 0.2176(2) 0.32445(17) 0.31051(14)
O2 O 0.09857(19) 0.40682(17) 0.45069(14)
O3 O 0.24610(19) 0.17372(18) 0.38328(14)
O4 O 0.10759(19) 0.24632(17) 0.50922(14)
C3 C 0.8588(3) 0.4909(3) 0.2454(2)
C4 C 0.8081(3) 0.6063(3) 0.24741(19)
O5 O 0.9694(2) 0.47064(19) 0.27187(15)
O6 O 0.8780(2) 0.67979(17) 0.27669(15)
O7 O 0.77522(18) 0.42196(17) 0.21507(14)
O8 O 0.69042(18) 0.61491(17) 0.21696(15)
C5 C 0.4291(3) 0.4957(2) 0.3066(2)
C6 C 0.3589(3) 0.5276(2) 0.2198(2)
O9 O 0.37088(18) 0.49959(18) 0.37481(14)
O10 O 0.24161(19) 0.54044(18) 0.21818(15)
O11 O 0.54587(18) 0.46656(17) 0.30057(14)
O12 O 0.42936(18) 0.53815(18) 0.15675(14)
O13 O 0.09450(19) 0.64184(17) 0.38577(15)
H1 H 0.0280 0.6719 0.3568
H2 H 0.1395 0.6998 0.4105
C7 C 0.2092(3) -0.1007(3) 0.4509(2)
C8 C 0.0713(3) -0.0658(3) 0.4197(2)
O14 O 0.28724(19) -0.02419(17) 0.47022(15)
O15 O 0.05197(19) 0.03391(18) 0.43358(14)
O16 O 0.2373(2) -0.19484(18) 0.45502(17)
O17 O -0.0047(2) -0.12977(19) 0.38367(16)
C9 C 0.3624(3) 0.1371(3) 0.6419(2)
C10 C 0.2585(3) 0.0563(3) 0.6637(2)
O18 O 0.34994(19) 0.17033(17) 0.56345(14)
O19 O 0.15950(19) 0.05393(17) 0.60721(14)
O20 O 0.4485(2) 0.1632(2) 0.69713(15)
O21 O 0.2737(2) 0.0042(2) 0.72897(16)
C11 C 0.5542(3) 0.3178(3) 0.0556(2)
C12 C 0.6124(3) 0.4097(3) 0.0059(2)
O22 O 0.54380(18) 0.33849(17) 0.13836(14)
O23 O 0.6454(2) 0.49156(19) 0.05717(15)
O24 O 0.5239(2) 0.2337(2) 0.01781(16)
O25 O 0.6237(2) 0.4012(2) -0.07263(17)
Mn1_2 Mn 1.15472(4) 0.49421(4) 0.33706(3)
O5_2 O -0.0306(2) 0.47064(19) 0.27187(15)
N1 N -0.2660(2) -0.7083(2) -0.40042(18)
N2 N 0.2086(3) -0.2104(2) 0.11162(19)
O26 O -0.3283(2) -0.6816(2) -0.59012(17)
H3 H -0.3654 -0.6363 -0.6208
C13 C -0.1539(3) -0.6670(3) -0.4208(2)
H4 H -0.1224 -0.6849 -0.4754
C14 C -0.0841(3) -0.5995(3) -0.3645(2)
H5 H -0.0056 -0.5721 -0.3808
C15 C -0.1281(3) -0.5702(3) -0.2818(2)
C16 C -0.2454(3) -0.6148(3) -0.2624(2)
H6 H -0.2794 -0.5983 -0.2084
C17 C -0.3113(3) -0.6824(3) -0.3216(2)
H7 H -0.3900 -0.7116 -0.3072
C18 C -0.3397(3) -0.7810(3) -0.4631(2)
H8 H -0.3988 -0.8230 -0.4309
H9 H -0.2798 -0.8297 -0.4894
C19 C -0.4158(3) -0.7256(3) -0.5350(2)
H10 H -0.4735 -0.7757 -0.5687
H11 H -0.4680 -0.6699 -0.5100
C20 C -0.0520(3) -0.4996(3) -0.2226(2)
H12 H 0.0266 -0.4754 -0.2415
C21 C -0.0834(3) -0.4652(3) -0.1428(2)
H13 H -0.1636 -0.4880 -0.1256
C22 C -0.0084(3) -0.3972(3) -0.0802(2)
C23 C 0.1150(3) -0.3599(3) -0.0943(2)
H14 H 0.1500 -0.3766 -0.1479
C24 C 0.1868(3) -0.2995(3) -0.0318(2)
H15 H 0.2692 -0.2760 -0.0441
C25 C 0.1402(3) -0.2723(3) 0.0495(2)
C26 C 0.0147(3) -0.3101(3) 0.0644(2)
H16 H -0.0203 -0.2943 0.1182
C27 C -0.0557(3) -0.3696(3) 0.0009(2)
H17 H -0.1386 -0.3926 0.0124
C28 C 0.3419(3) -0.1842(3) 0.0995(3)
H18 H 0.3938 -0.2473 0.1048
H19 H 0.3730 -0.1321 0.1439
H20 H 0.3480 -0.1557 0.0417
C29 C 0.1627(3) -0.1895(3) 0.1987(2)
H21 H 0.0778 -0.1584 0.1926
H22 H 0.2216 -0.1412 0.2319
H23 H 0.1581 -0.2552 0.2294
N3 N 0.2008(2) 0.1048(2) 0.07207(17)
N4 N -0.2649(2) -0.3845(2) -0.45162(18)
O27 O 0.3330(2) 0.05033(19) 0.24748(16)
H24 H 0.3054 0.0809 0.2911
C30 C 0.2481(3) 0.0805(3) -0.0053(2)
H25 H 0.3276 0.1098 -0.0180
C31 C 0.1837(3) 0.0141(3) -0.0666(2)
H26 H 0.2196 -0.0014 -0.1201
C32 C 0.0657(3) -0.0303(3) -0.0501(2)
C33 C 0.0218(3) -0.0045(3) 0.0320(2)
H27 H -0.0565 -0.0339 0.0470
C34 C 0.0881(3) 0.0614(3) 0.0909(2)
H28 H 0.0549 0.0769 0.1453
C35 C 0.2706(3) 0.1779(3) 0.1372(2)
H29 H 0.2093 0.2074 0.1768
H30 H 0.3065 0.2365 0.1062
C36 C 0.3769(3) 0.1257(3) 0.1903(2)
H31 H 0.4342 0.0911 0.1505
H32 H 0.4274 0.1798 0.2250
C37 C -0.0116(3) -0.0981(3) -0.1119(2)
H33 H -0.0895 -0.1242 -0.0932
C38 C 0.0176(3) -0.1267(3) -0.1928(2)
H34 H 0.0957 -0.1001 -0.2105
C39 C -0.0567(3) -0.1941(3) -0.2570(2)
C40 C -0.0075(3) -0.2211(3) -0.3368(2)
H35 H 0.0738 -0.1941 -0.3482
C41 C -0.0719(3) -0.2853(3) -0.4001(2)
H36 H -0.0330 -0.3033 -0.4521
C42 C -0.1954(3) -0.3239(3) -0.3871(2)
C43 C -0.2478(3) -0.2976(3) -0.3069(2)
H37 H -0.3297 -0.3235 -0.2959
C44 C -0.1795(3) -0.2340(3) -0.2439(2)
H38 H -0.2167 -0.2172 -0.1911
C45 C -0.2034(3) -0.4194(3) -0.5301(2)
H39 H -0.1719 -0.3586 -0.5592
H40 H -0.2655 -0.4578 -0.5696
H41 H -0.1320 -0.4652 -0.5136
C46 C -0.3897(3) -0.4282(3) -0.4359(2)
H42 H -0.3800 -0.4777 -0.3886
H43 H -0.4261 -0.4645 -0.4888
H44 H -0.4465 -0.3718 -0.4197
N5 N -0.3747(3) -0.1520(2) -0.5202(2)
N6 N 0.1001(3) 0.3489(3) -0.0081(2)
O28 O -0.4531(2) -0.0662(2) -0.6843(2)
H45 H -0.5125 -0.0299 -0.7064
C47 C -0.4495(3) -0.1307(3) -0.4544(3)
H46 H -0.5334 -0.1591 -0.4574
C48 C -0.4076(3) -0.0691(3) -0.3831(3)
H47 H -0.4630 -0.0556 -0.3383
C49 C -0.2839(4) -0.0261(3) -0.3760(3)
C50 C -0.2093(3) -0.0489(3) -0.4458(3)
H48 H -0.1258 -0.0202 -0.4452
C51 C -0.2552(4) -0.1122(3) -0.5156(3)
H49 H -0.2015 -0.1280 -0.5610
C52 C -0.4205(5) -0.2190(4) -0.5979(3)
H50 H -0.3454 -0.2472 -0.6255
H51 H -0.4691 -0.2789 -0.5778
C53 C -0.5016(5) -0.1647(4) -0.6642(3)
H52 H -0.5107 -0.2091 -0.7179
H53 H -0.5875 -0.1556 -0.6430
C54 C -0.2426(4) 0.0414(3) -0.2971(3)
H54 H -0.2999 0.0502 -0.2528
C55 C -0.1329(4) 0.0878(3) -0.2871(3)
H55 H -0.0791 0.0776 -0.3333
C56 C -0.0787(4) 0.1561(3) -0.2118(3)
C57 C -0.1424(4) 0.1787(3) -0.1344(3)
H56 H -0.2249 0.1503 -0.1289
C58 C -0.0844(4) 0.2423(3) -0.0664(3)
H57 H -0.1276 0.2555 -0.0154
C59 C 0.0394(3) 0.2871(3) -0.0738(3)
C60 C 0.0978(4) 0.2638(3) -0.1518(3)
H58 H 0.1796 0.2927 -0.1591
C61 C 0.0406(4) 0.2008(3) -0.2175(3)
H59 H 0.0843 0.1876 -0.2684
C62 C 0.0347(4) 0.3789(4) 0.0694(3)
H60 H -0.0429 0.4171 0.0520
H61 H 0.0911 0.4235 0.1081
H62 H 0.0123 0.3160 0.0997
C63 C 0.2219(4) 0.3984(4) -0.0194(3)
H63 H 0.2870 0.3447 -0.0248
H64 H 0.2459 0.4445 0.0310
H65 H 0.2151 0.4394 -0.0721
N7 N -0.2505(2) 0.0362(2) 0.20767(18)
N8 N -0.6770(3) -0.4569(3) -0.3241(2)
O29 O -0.0954(5) 0.2207(4) 0.2055(3)
H66 H -0.1145 0.2842 0.2078
C64 C -0.3094(3) 0.0704(3) 0.1329(2)
H67 H -0.3291 0.1424 0.1280
C65 C -0.3418(3) 0.0010(3) 0.0626(2)
H68 H -0.3809 0.0270 0.0103
C66 C -0.3172(3) -0.1072(3) 0.0685(2)
C67 C -0.2495(3) -0.1374(3) 0.1466(2)
H69 H -0.2250 -0.2082 0.1527
C68 C -0.2182(3) -0.0663(3) 0.2143(2)
H70 H -0.1736 -0.0892 0.2659
C69 C -0.2297(3) 0.1119(3) 0.2850(2)
H71 H -0.3052 0.1573 0.2878
H72 H -0.2212 0.0721 0.3391
C70 C -0.1116(4) 0.1796(4) 0.2796(3)
H73 H -0.1140 0.2369 0.3239
H74 H -0.0361 0.1367 0.2957
C71 C -0.3604(3) -0.1866(3) 0.0029(2)
H75 H -0.3349 -0.2566 0.0122
C72 C -0.4348(3) -0.1672(3) -0.0705(2)
H76 H -0.4519 -0.0959 -0.0817
C73 C -0.4917(3) -0.2443(3) -0.1347(2)
C74 C -0.5711(3) -0.2088(3) -0.2052(2)
H77 H -0.5840 -0.1359 -0.2107
C75 C -0.6317(3) -0.2780(3) -0.2677(2)
H78 H -0.6841 -0.2507 -0.3143
C76 C -0.6164(3) -0.3878(3) -0.2628(2)
C77 C -0.5367(3) -0.4241(3) -0.1915(2)
H79 H -0.5239 -0.4969 -0.1857
C78 C -0.4770(3) -0.3541(3) -0.1302(2)
H80 H -0.4244 -0.3811 -0.0836
C79 C -0.7461(4) -0.4166(3) -0.4021(3)
H81 H -0.8190 -0.3755 -0.3852
H82 H -0.7765 -0.4752 -0.4405
H83 H -0.6890 -0.3723 -0.4327
C80 C -0.6657(2) -0.57016(18) -0.3181(3)
H84 H -0.5784 -0.5908 -0.3280
H85 H -0.7250 -0.6044 -0.3621
H86 H -0.6862 -0.5911 -0.2601
O30 O 0.5066(2) 0.09405(18) -0.12814(17)
H87 H 0.5732 0.1085 -0.1631
H88 H 0.5276 0.1276 -0.0775
H89? H 0.0189 0.1065 0.3212
O31? O -0.0060(4) 0.1302(5) 0.2727(3)
loop_
_geom_bond_atom_site_label_1
_geom_bond_atom_site_label_2
_geom_bond_site_symmetry_1
_geom_bond_site_symmetry_2
Mn1 O1 1_555 1_555
Cr1 O3 1_555 1_555
Cr2 O7 1_555 1_555
C1 C2 1_555 1_555
C2 O2 1_555 1_555
O1 C1 1_555 1_555
O2 Mn1 1_555 1_555
O3 C1 1_555 1_555
O4 Cr1 1_555 1_555
C3 C4 1_555 1_555
C4 O6 1_555 1_555
O5 C3 1_555 1_555
O7 C3 1_555 1_555
O8 Cr2 1_555 1_555
C5 C6 1_555 1_555
C6 O10 1_555 1_555
O9 Mn1 1_555 1_555
O10 Mn1 1_555 1_555
O11 Cr2 1_555 1_555
O12 Cr2 1_555 1_555
O13 Mn1 1_555 1_555
H1 O13 1_555 1_555
H2 O13 1_555 1_555
C7 C8 1_555 1_555
C8 O15 1_555 1_555
O14 Cr1 1_555 1_555
O15 Cr1 1_555 1_555
O16 C7 1_555 1_555
O17 C8 1_555 1_555
C9 C10 1_555 1_555
C10 O19 1_555 1_555
O18 Cr1 1_555 1_555
O19 Cr1 1_555 1_555
O20 C9 1_555 1_555
O21 C10 1_555 1_555
C11 C12 1_555 1_555
C12 O23 1_555 1_555
O22 Cr2 1_555 1_555
O23 Cr2 1_555 1_555
O24 C11 1_555 1_555
O25 C12 1_555 1_555
N1 C13 1_555 1_555
N2 C25 1_555 1_555
O26 H3 1_555 1_555
C13 H4 1_555 1_555
C14 C13 1_555 1_555
H5 C14 1_555 1_555
C15 C14 1_555 1_555
C16 C15 1_555 1_555
H6 C16 1_555 1_555
C17 N1 1_555 1_555
H7 C17 1_555 1_555
C18 N1 1_555 1_555
H8 C18 1_555 1_555
H9 C18 1_555 1_555
C19 O26 1_555 1_555
H10 C19 1_555 1_555
H11 C19 1_555 1_555
C20 C15 1_555 1_555
H12 C20 1_555 1_555
C21 C20 1_555 1_555
H13 C21 1_555 1_555
C22 C21 1_555 1_555
C23 C22 1_555 1_555
H14 C23 1_555 1_555
C24 C23 1_555 1_555
H15 C24 1_555 1_555
C25 C24 1_555 1_555
C26 C25 1_555 1_555
H16 C26 1_555 1_555
C27 C22 1_555 1_555
H17 C27 1_555 1_555
C28 N2 1_555 1_555
H18 C28 1_555 1_555
H19 C28 1_555 1_555
H20 C28 1_555 1_555
C29 N2 1_555 1_555
H21 C29 1_555 1_555
H22 C29 1_555 1_555
H23 C29 1_555 1_555
N3 C30 1_555 1_555
N4 C42 1_555 1_555
O27 H24 1_555 1_555
C30 H25 1_555 1_555
C31 C30 1_555 1_555
H26 C31 1_555 1_555
C32 C31 1_555 1_555
C33 C32 1_555 1_555
H27 C33 1_555 1_555
C34 N3 1_555 1_555
H28 C34 1_555 1_555
C35 N3 1_555 1_555
H29 C35 1_555 1_555
H30 C35 1_555 1_555
C36 O27 1_555 1_555
H31 C36 1_555 1_555
H32 C36 1_555 1_555
C37 C32 1_555 1_555
H33 C37 1_555 1_555
C38 C37 1_555 1_555
H34 C38 1_555 1_555
C39 C38 1_555 1_555
C40 C39 1_555 1_555
H35 C40 1_555 1_555
C41 C40 1_555 1_555
H36 C41 1_555 1_555
C42 C41 1_555 1_555
C43 C42 1_555 1_555
H37 C43 1_555 1_555
C44 C39 1_555 1_555
H38 C44 1_555 1_555
C45 N4 1_555 1_555
H39 C45 1_555 1_555
H40 C45 1_555 1_555
H41 C45 1_555 1_555
C46 N4 1_555 1_555
H42 C46 1_555 1_555
H43 C46 1_555 1_555
H44 C46 1_555 1_555
N5 C47 1_555 1_555
N6 C59 1_555 1_555
O28 H45 1_555 1_555
C47 H46 1_555 1_555
C48 C47 1_555 1_555
H47 C48 1_555 1_555
C49 C48 1_555 1_555
C50 C49 1_555 1_555
H48 C50 1_555 1_555
C51 N5 1_555 1_555
H49 C51 1_555 1_555
C52 N5 1_555 1_555
H50 C52 1_555 1_555
H51 C52 1_555 1_555
C53 O28 1_555 1_555
H52 C53 1_555 1_555
H53 C53 1_555 1_555
C54 C49 1_555 1_555
H54 C54 1_555 1_555
C55 C54 1_555 1_555
H55 C55 1_555 1_555
C56 C55 1_555 1_555
C57 C56 1_555 1_555
H56 C57 1_555 1_555
C58 C57 1_555 1_555
H57 C58 1_555 1_555
C59 C58 1_555 1_555
C60 C59 1_555 1_555
H58 C60 1_555 1_555
C61 C56 1_555 1_555
H59 C61 1_555 1_555
C62 N6 1_555 1_555
H60 C62 1_555 1_555
H61 C62 1_555 1_555
H62 C62 1_555 1_555
C63 N6 1_555 1_555
H63 C63 1_555 1_555
H64 C63 1_555 1_555
H65 C63 1_555 1_555
N7 C64 1_555 1_555
N8 C76 1_555 1_555
O29 H66 1_555 1_555
C64 H67 1_555 1_555
C65 C64 1_555 1_555
H68 C65 1_555 1_555
C66 C65 1_555 1_555
C67 C66 1_555 1_555
H69 C67 1_555 1_555
C68 N7 1_555 1_555
H70 C68 1_555 1_555
C69 N7 1_555 1_555
H71 C69 1_555 1_555
H72 C69 1_555 1_555
C70 O29 1_555 1_555
H73 C70 1_555 1_555
H74 C70 1_555 1_555
C71 C66 1_555 1_555
H75 C71 1_555 1_555
C72 C71 1_555 1_555
H76 C72 1_555 1_555
C73 C72 1_555 1_555
C74 C73 1_555 1_555
H77 C74 1_555 1_555
C75 C74 1_555 1_555
H78 C75 1_555 1_555
C76 C75 1_555 1_555
C77 C76 1_555 1_555
H79 C77 1_555 1_555
C78 C73 1_555 1_555
H80 C78 1_555 1_555
C79 N8 1_555 1_555
H81 C79 1_555 1_555
H82 C79 1_555 1_555
H83 C79 1_555 1_555
C80 N8 1_555 1_555
H84 C80 1_555 1_555
H85 C80 1_555 1_555
H86 C80 1_555 1_555
O30 H87 1_555 1_555
H88 O30 1_555 1_555
Mn1_2 O5 1_555 1_555
O5_2 Mn1 1_555 1_555
C2 O4 1_555 1_555
C4 O8 1_555 1_555
C5 O9 1_555 1_555
C5 O11 1_555 1_555
C6 O12 1_555 1_555
C7 O14 1_555 1_555
C9 O18 1_555 1_555
C11 O22 1_555 1_555
C16 C17 1_555 1_555
C18 C19 1_555 1_555
C26 C27 1_555 1_555
C33 C34 1_555 1_555
C35 C36 1_555 1_555
C43 C44 1_555 1_555
C50 C51 1_555 1_555
C52 C53 1_555 1_555
C60 C61 1_555 1_555
C67 C68 1_555 1_555
C69 C70 1_555 1_555
C77 C78 1_555 1_555

#END
