
#######################################################################
#
#                 Cambridge Crystallographic Data Centre
#                                CCDC 
#
#######################################################################
#
# If this CIF has been generated from an entry in the Cambridge 
# Structural Database, then it will include bibliographic, chemical, 
# crystal, experimental, refinement or atomic coordinate data resulting 
# from the CCDC's data processing and validation procedures.
#
#######################################################################

data_ECUSOM
_symmetry_cell_setting           triclinic
_symmetry_space_group_name_H-M   'P -1'
_symmetry_Int_Tables_number      2
_space_group_name_Hall           '-P 1'
loop_
_symmetry_equiv_pos_site_id
_symmetry_equiv_pos_as_xyz
1 x,y,z
2 -x,-y,-z
_cell_length_a                   8.1880(8)
_cell_length_b                   9.8539(9)
_cell_length_c                   11.5691(12)
_cell_angle_alpha                98.7370(10)
_cell_angle_beta                 99.6800(10)
_cell_angle_gamma                110.703(2)
_cell_volume                     837.818
loop_
_atom_site_label
_atom_site_type_symbol
_atom_site_fract_x
_atom_site_fract_y
_atom_site_fract_z
C1 C 1.0457(6) 0.7538(6) 0.3187(5)
H1 H 1.0582 0.8399 0.3781
H2 H 0.9975 0.6662 0.3505
Sn1 Sn 0.61472(4) 0.96456(3) 0.29290(3)
Sn2 Sn 1.18490(4) 0.39669(3) 0.23117(3)
O1 O 1.3397(4) 0.9045(3) 0.3178(3)
C2 C 0.6539(8) 1.1917(6) 0.3487(7)
H3 H 0.7158 1.2480 0.2972
H4 H 0.7242 1.2306 0.4303
H5 H 0.5393 1.1993 0.3437
C3 C 1.2291(6) 0.7700(5) 0.2989(4)
O2 O 1.2647(5) 0.6619(4) 0.2647(4)
C4 C 0.6925(7) 0.8594(6) 0.4250(5)
H6 H 0.8213 0.8947 0.4472
H7 H 0.6424 0.7535 0.3934
H8 H 0.6493 0.8821 0.4947
O3 O 0.9237(5) 1.0634(4) 0.2733(3)
C5 C 0.5301(8) 0.8698(7) 0.1049(5)
H9 H 0.4248 0.8861 0.0716
H10 H 0.5025 0.7647 0.0910
H11 H 0.6245 0.9158 0.0671
C6 C 1.2112(10) 0.4228(7) 0.4192(5)
H12 H 1.2028 0.3307 0.4408
H13 H 1.1170 0.4499 0.4411
H14 H 1.3258 0.4996 0.4610
C7 C 1.0052(7) 0.9030(5) 0.1345(5)
H15 H 1.1256 0.9082 0.1338
H16 H 0.9442 0.8916 0.0520
O4 O 1.1457(5) 1.1611(4) 0.1858(3)
C8 C 1.4168(9) 0.4454(7) 0.1599(7)
H17 H 1.5197 0.5162 0.2201
H18 H 1.3995 0.4865 0.0909
H19 H 1.4358 0.3555 0.1364
C9 C 0.9343(8) 0.3580(6) 0.1173(5)
H20 H 0.9494 0.3664 0.0379
H21 H 0.8897 0.4303 0.1485
H22 H 0.8502 0.2597 0.1140
C10 C 1.0225(6) 1.0519(5) 0.2068(4)
S1 S 0.88996(16) 0.73712(13) 0.18210(12)
Sn1_2 Sn 1.61472(4) 0.96456(3) 0.29290(3)
Sn2_2 Sn 1.18490(4) 1.39669(3) 0.23117(3)
O1_2 O 0.3397(4) 0.9045(3) 0.3178(3)
O4_2 O 1.1457(5) 0.1611(4) 0.1858(3)
loop_
_geom_bond_atom_site_label_1
_geom_bond_atom_site_label_2
_geom_bond_site_symmetry_1
_geom_bond_site_symmetry_2
C1 H1 1_555 1_555
H2 C1 1_555 1_555
Sn1 C2 1_555 1_555
Sn2 O2 1_555 1_555
O1 C3 1_555 1_555
C2 H3 1_555 1_555
H4 C2 1_555 1_555
H5 C2 1_555 1_555
C3 C1 1_555 1_555
O2 C3 1_555 1_555
C4 Sn1 1_555 1_555
H6 C4 1_555 1_555
H7 C4 1_555 1_555
H8 C4 1_555 1_555
O3 Sn1 1_555 1_555
C5 Sn1 1_555 1_555
H9 C5 1_555 1_555
H10 C5 1_555 1_555
H11 C5 1_555 1_555
C6 Sn2 1_555 1_555
H12 C6 1_555 1_555
H13 C6 1_555 1_555
H14 C6 1_555 1_555
C7 H15 1_555 1_555
H16 C7 1_555 1_555
O4 C10 1_555 1_555
C8 Sn2 1_555 1_555
H17 C8 1_555 1_555
H18 C8 1_555 1_555
H19 C8 1_555 1_555
C9 Sn2 1_555 1_555
H20 C9 1_555 1_555
H21 C9 1_555 1_555
H22 C9 1_555 1_555
C10 O3 1_555 1_555
S1 C1 1_555 1_555
Sn1_2 O1 1_555 1_555
Sn2_2 O4 1_555 1_555
O1_2 Sn1 1_555 1_555
O4_2 Sn2 1_555 1_555
C7 C10 1_555 1_555
C7 S1 1_555 1_555

#END
