
#######################################################################
#
#                 Cambridge Crystallographic Data Centre
#                                CCDC 
#
#######################################################################
#
# If this CIF has been generated from an entry in the Cambridge 
# Structural Database, then it will include bibliographic, chemical, 
# crystal, experimental, refinement or atomic coordinate data resulting 
# from the CCDC's data processing and validation procedures.
#
#######################################################################

data_ECUSUS
_symmetry_cell_setting           orthorhombic
_symmetry_space_group_name_H-M   'P 21 21 21'
_symmetry_Int_Tables_number      19
_space_group_name_Hall           'P 2ac 2ab'
loop_
_symmetry_equiv_pos_site_id
_symmetry_equiv_pos_as_xyz
1 x,y,z
2 1/2-x,-y,1/2+z
3 -x,1/2+y,1/2-z
4 1/2+x,1/2-y,-z
_cell_length_a                   10.0586(10)
_cell_length_b                   10.0986(11)
_cell_length_c                   38.57(3)
_cell_angle_alpha                90
_cell_angle_beta                 90
_cell_angle_gamma                90
_cell_volume                     3917.85
loop_
_atom_site_label
_atom_site_type_symbol
_atom_site_fract_x
_atom_site_fract_y
_atom_site_fract_z
Sn1 Sn 0.45805(15) 0.62653(13) 0.73211(3)
Sn2 Sn 0.29848(14) 0.71344(16) 0.48193(4)
O1 O 0.3808(17) 0.7872(16) 0.7004(4)
O2 O 0.4635(16) 0.9342(15) 0.7329(4)
O3 O 0.1105(17) 0.7864(16) 0.5179(4)
O4 O -0.0497(16) 0.8610(15) 0.5530(3)
S1 S 0.2342(8) 1.0895(6) 0.62254(17)
C1 C 0.398(3) 0.899(2) 0.7080(6)
C2 C 0.345(2) 1.0065(19) 0.6851(5)
H1 H 0.4195 1.0584 0.6767
H2 H 0.2901 1.0645 0.6991
C3 C 0.264(2) 0.961(2) 0.6540(5)
H3 H 0.1789 0.9278 0.6622
H4 H 0.3099 0.8884 0.6428
C4 C 0.082(3) 0.851(2) 0.5435(6)
C5 C 0.176(2) 0.907(2) 0.5701(5)
H5 H 0.2506 0.9461 0.5580
H6 H 0.2100 0.8336 0.5838
C6 C 0.119(2) 1.010(2) 0.5949(5)
H7 H 0.0520 0.9671 0.6092
H8 H 0.0740 1.0771 0.5812
C7 C 0.342(2) 0.666(3) 0.7766(5)
H9 H 0.3475 0.5897 0.7919
H10 H 0.3809 0.7404 0.7888
C8 C 0.195(2) 0.696(3) 0.7700(5)
H11 H 0.1545 0.6226 0.7578
H12 H 0.1874 0.7744 0.7557
C9 C 0.123(2) 0.719(3) 0.8046(5)
H13 H 0.1090 0.6336 0.8158
H14 H 0.1789 0.7714 0.8196
C10 C -0.011(3) 0.788(3) 0.8008(8)
H15 H 0.0020 0.8756 0.7921
H16 H -0.0544 0.7919 0.8230
H17 H -0.0662 0.7386 0.7849
C11 C 0.667(2) 0.672(3) 0.7279(6)
H18 H 0.6780 0.7633 0.7354
H19 H 0.7130 0.6173 0.7446
C12 C 0.739(3) 0.658(3) 0.6937(6)
H20 H 0.6907 0.7052 0.6758
H21 H 0.7424 0.5653 0.6872
C13 C 0.882(2) 0.713(3) 0.6958(7)
H22 H 0.9188 0.6934 0.7184
H23 H 0.9366 0.6698 0.6784
C14 C 0.882(4) 0.863(3) 0.6897(10)
H24 H 0.8490 0.8813 0.6669
H25 H 0.9710 0.8957 0.6919
H26 H 0.8259 0.9047 0.7066
C15 C 0.372(3) 0.482(3) 0.7010(5)
H27 H 0.4252 0.4046 0.7057
H28 H 0.2872 0.4656 0.7124
C16 C 0.338(2) 0.469(3) 0.6630(6)
H29 H 0.2545 0.5135 0.6586
H30 H 0.3264 0.3760 0.6577
C17 C 0.443(3) 0.526(2) 0.6387(6)
H31 H 0.4787 0.6057 0.6489
H32 H 0.3998 0.5500 0.6170
C18 C 0.557(3) 0.431(3) 0.6307(9)
H33 H 0.5711 0.3726 0.6501
H34 H 0.6370 0.4806 0.6265
H35 H 0.5362 0.3792 0.6105
C19 C 0.330(3) 0.591(2) 0.5256(7)
H36 H 0.3932 0.6324 0.5411
H37 H 0.2467 0.5793 0.5380
C20 C 0.382(4) 0.457(2) 0.5137(7)
H38 H 0.3507 0.4393 0.4904
H39 H 0.4788 0.4602 0.5129
C21 C 0.340(3) 0.343(3) 0.5372(8)
H40 H 0.2452 0.3291 0.5355
H41 H 0.3619 0.3636 0.5611
C22 C 0.415(4) 0.218(3) 0.5257(9)
H42 H 0.4886 0.2427 0.5112
H43 H 0.3556 0.1619 0.5128
H44 H 0.4469 0.1716 0.5457
C23 C 0.343(3) 0.921(3) 0.4739(7)
H45 H 0.2607 0.9704 0.4756
H46 H 0.3996 0.9504 0.4929
C24 C 0.410(3) 0.959(3) 0.4403(7)
H47 H 0.4049 0.8841 0.4247
H48 H 0.5036 0.9749 0.4450
C25 C 0.354(3) 1.080(3) 0.4218(6)
H49 H 0.2582 1.0739 0.4214
H50 H 0.3857 1.0802 0.3980
C26 C 0.395(4) 1.209(3) 0.4394(10)
H51 H 0.4887 1.2078 0.4441
H52 H 0.3469 1.2190 0.4607
H53 H 0.3749 1.2822 0.4243
C27 C 0.141(3) 0.638(3) 0.4521(7)
H54 H 0.0715 0.6242 0.4691
H55 H 0.1131 0.7138 0.4386
C28 C 0.123(3) 0.523(3) 0.4271(8)
H56 H 0.1590 0.4421 0.4371
H57 H 0.0286 0.5086 0.4227
C29 C 0.194(4) 0.555(3) 0.3935(7)
H58 H 0.2712 0.6093 0.3983
H59 H 0.1349 0.6045 0.3783
C30 C 0.236(4) 0.426(4) 0.3759(9)
H60 H 0.2864 0.3732 0.3920
H61 H 0.2899 0.4455 0.3560
H62 H 0.1585 0.3776 0.3688
Sn1B Sn 0.54195(15) 1.12653(13) 0.76789(3)
Sn2C Sn -0.20152(14) 0.78656(16) 0.51807(4)
O2B O 0.5365(16) 0.4342(15) 0.7671(4)
O4C O 0.4503(16) 0.6390(15) 0.4470(3)
loop_
_geom_bond_atom_site_label_1
_geom_bond_atom_site_label_2
_geom_bond_site_symmetry_1
_geom_bond_site_symmetry_2
Sn1 O1 1_555 1_555
Sn2 O3 1_555 1_555
O1 C1 1_555 1_555
O2 C1 1_555 1_555
O3 C4 1_555 1_555
O4 C4 1_555 1_555
S1 C3 1_555 1_555
C1 C2 1_555 1_555
C2 H1 1_555 1_555
H2 C2 1_555 1_555
C3 C2 1_555 1_555
H3 C3 1_555 1_555
H4 C3 1_555 1_555
C4 C5 1_555 1_555
C5 H5 1_555 1_555
H6 C5 1_555 1_555
C6 S1 1_555 1_555
H7 C6 1_555 1_555
H8 C6 1_555 1_555
C7 Sn1 1_555 1_555
H9 C7 1_555 1_555
H10 C7 1_555 1_555
C8 C7 1_555 1_555
H11 C8 1_555 1_555
H12 C8 1_555 1_555
C9 C8 1_555 1_555
H13 C9 1_555 1_555
H14 C9 1_555 1_555
C10 C9 1_555 1_555
H15 C10 1_555 1_555
H16 C10 1_555 1_555
H17 C10 1_555 1_555
C11 Sn1 1_555 1_555
H18 C11 1_555 1_555
H19 C11 1_555 1_555
C12 C11 1_555 1_555
H20 C12 1_555 1_555
H21 C12 1_555 1_555
C13 C12 1_555 1_555
H22 C13 1_555 1_555
H23 C13 1_555 1_555
C14 C13 1_555 1_555
H24 C14 1_555 1_555
H25 C14 1_555 1_555
H26 C14 1_555 1_555
C15 Sn1 1_555 1_555
H27 C15 1_555 1_555
H28 C15 1_555 1_555
C16 C15 1_555 1_555
H29 C16 1_555 1_555
H30 C16 1_555 1_555
C17 C16 1_555 1_555
H31 C17 1_555 1_555
H32 C17 1_555 1_555
C18 C17 1_555 1_555
H33 C18 1_555 1_555
H34 C18 1_555 1_555
H35 C18 1_555 1_555
C19 Sn2 1_555 1_555
H36 C19 1_555 1_555
H37 C19 1_555 1_555
C20 C19 1_555 1_555
H38 C20 1_555 1_555
H39 C20 1_555 1_555
C21 C20 1_555 1_555
H40 C21 1_555 1_555
H41 C21 1_555 1_555
C22 C21 1_555 1_555
H42 C22 1_555 1_555
H43 C22 1_555 1_555
H44 C22 1_555 1_555
C23 Sn2 1_555 1_555
H45 C23 1_555 1_555
H46 C23 1_555 1_555
C24 C23 1_555 1_555
H47 C24 1_555 1_555
H48 C24 1_555 1_555
C25 C24 1_555 1_555
H49 C25 1_555 1_555
H50 C25 1_555 1_555
C26 C25 1_555 1_555
H51 C26 1_555 1_555
H52 C26 1_555 1_555
H53 C26 1_555 1_555
C27 Sn2 1_555 1_555
H54 C27 1_555 1_555
H55 C27 1_555 1_555
C28 C27 1_555 1_555
H56 C28 1_555 1_555
H57 C28 1_555 1_555
C29 C28 1_555 1_555
H58 C29 1_555 1_555
H59 C29 1_555 1_555
C30 C29 1_555 1_555
H60 C30 1_555 1_555
H61 C30 1_555 1_555
H62 C30 1_555 1_555
Sn1B O2 1_555 1_555
Sn2C O4 1_555 1_555
O2B Sn1 1_555 1_555
O4C Sn2 1_555 1_555
C5 C6 1_555 1_555

#END
