
#######################################################################
#
#                 Cambridge Crystallographic Data Centre
#                                CCDC 
#
#######################################################################
#
# If this CIF has been generated from an entry in the Cambridge 
# Structural Database, then it will include bibliographic, chemical, 
# crystal, experimental, refinement or atomic coordinate data resulting 
# from the CCDC's data processing and validation procedures.
#
#######################################################################

data_ECUTAZ
_symmetry_cell_setting           orthorhombic
_symmetry_space_group_name_H-M   'P n a 21'
_symmetry_Int_Tables_number      33
_space_group_name_Hall           'P 2c -2n'
loop_
_symmetry_equiv_pos_site_id
_symmetry_equiv_pos_as_xyz
1 x,y,z
2 -x,-y,1/2+z
3 1/2+x,1/2-y,z
4 1/2-x,1/2+y,1/2+z
_cell_length_a                   14.3250(14)
_cell_length_b                   10.6041(10)
_cell_length_c                   12.8550(12)
_cell_angle_alpha                90
_cell_angle_beta                 90
_cell_angle_gamma                90
_cell_volume                     1952.72
loop_
_atom_site_label
_atom_site_type_symbol
_atom_site_fract_x
_atom_site_fract_y
_atom_site_fract_z
Sn1 Sn 0.10262(3) 0.61617(4) 0.78916(5)
Sn2 Sn 0.27257(3) 1.04969(4) 0.72235(4)
S1 S 0.02149(16) 0.95489(16) 0.47049(17)
O1 O 0.1225(3) 1.0297(4) 0.6975(4)
O2 O 0.1324(3) 0.8306(4) 0.7468(4)
O3 O 0.0618(3) 0.5647(4) 0.2516(4)
O4 O -0.0748(3) 0.5814(4) 0.3316(4)
C1 C 0.0868(5) 0.9210(6) 0.7096(6)
C2 C 0.0043(5) 0.6251(6) 0.3046(7)
C3 C 0.2636(6) 1.2382(7) 0.6675(8)
H1 H 0.2130 1.2451 0.6188
H2 H 0.3210 1.2609 0.6338
H3 H 0.2527 1.2940 0.7251
C4 C 0.2399(6) 0.6084(9) 0.8503(9)
H4 H 0.2640 0.5244 0.8429
H5 H 0.2388 0.6309 0.9226
H6 H 0.2792 0.6662 0.8130
C5 C 0.3117(6) 0.9098(7) 0.6163(7)
H7 H 0.3644 0.9382 0.5767
H8 H 0.2605 0.8925 0.5702
H9 H 0.3280 0.8343 0.6533
C6 C 0.2642(6) 1.0212(10) 0.8840(7)
H10 H 0.3124 0.9638 0.9054
H11 H 0.2043 0.9864 0.9012
H12 H 0.2722 1.1003 0.9192
C7 C -0.0018(6) 0.6838(7) 0.8924(7)
H13 H -0.0605 0.6884 0.8565
H14 H 0.0152 0.7661 0.9170
H15 H -0.0073 0.6273 0.9505
C8 C -0.0151(5) 0.9059(7) 0.6792(6)
H16 H -0.0267 0.8181 0.6625
H17 H -0.0539 0.9276 0.7384
C9 C 0.0992(7) 0.5827(8) 0.6293(7)
H18 H 0.1482 0.6296 0.5960
H19 H 0.0400 0.6088 0.6018
H20 H 0.1080 0.4943 0.6164
C10 C -0.0284(6) 0.8054(6) 0.4283(6)
H21 H -0.0275 0.7453 0.4852
H22 H -0.0927 0.8175 0.4068
C11 C 0.0276(5) 0.7566(6) 0.3400(7)
H23 H 0.0929 0.7588 0.3596
H24 H 0.0197 0.8133 0.2814
C12 C -0.0435(6) 0.9858(7) 0.5881(7)
H25 H -0.0357 1.0738 0.6066
H26 H -0.1093 0.9719 0.5743
Sn1A Sn -0.10262(3) 0.38383(4) 0.28916(5)
Sn2C Sn 0.22743(3) 0.54969(4) 0.22235(4)
O3C O 0.4382(3) 1.0647(4) 0.7516(4)
O4A O 0.0748(3) 0.4186(4) 0.8316(4)
loop_
_geom_bond_atom_site_label_1
_geom_bond_atom_site_label_2
_geom_bond_site_symmetry_1
_geom_bond_site_symmetry_2
Sn1 O2 1_555 1_555
Sn2 O1 1_555 1_555
S1 C10 1_555 1_555
O1 C1 1_555 1_555
O2 C1 1_555 1_555
O3 C2 1_555 1_555
O4 C2 1_555 1_555
C1 C8 1_555 1_555
C2 C11 1_555 1_555
C3 Sn2 1_555 1_555
H1 C3 1_555 1_555
H2 C3 1_555 1_555
H3 C3 1_555 1_555
C4 Sn1 1_555 1_555
H4 C4 1_555 1_555
H5 C4 1_555 1_555
H6 C4 1_555 1_555
C5 Sn2 1_555 1_555
H7 C5 1_555 1_555
H8 C5 1_555 1_555
H9 C5 1_555 1_555
C6 Sn2 1_555 1_555
H10 C6 1_555 1_555
H11 C6 1_555 1_555
H12 C6 1_555 1_555
C7 Sn1 1_555 1_555
H13 C7 1_555 1_555
H14 C7 1_555 1_555
H15 C7 1_555 1_555
C8 H16 1_555 1_555
H17 C8 1_555 1_555
C9 Sn1 1_555 1_555
H18 C9 1_555 1_555
H19 C9 1_555 1_555
H20 C9 1_555 1_555
C10 H21 1_555 1_555
H22 C10 1_555 1_555
C11 C10 1_555 1_555
H23 C11 1_555 1_555
H24 C11 1_555 1_555
C12 S1 1_555 1_555
H25 C12 1_555 1_555
H26 C12 1_555 1_555
Sn1A O4 1_555 1_555
Sn2C O3 1_555 1_555
O3C Sn2 1_555 1_555
O4A Sn1 1_555 1_555
C8 C12 1_555 1_555

#END
