
#######################################################################
#
#                 Cambridge Crystallographic Data Centre
#                                CCDC 
#
#######################################################################
#
# If this CIF has been generated from an entry in the Cambridge 
# Structural Database, then it will include bibliographic, chemical, 
# crystal, experimental, refinement or atomic coordinate data resulting 
# from the CCDC's data processing and validation procedures.
#
#######################################################################

data_ECUTEB
_symmetry_cell_setting           monoclinic
_symmetry_space_group_name_H-M   'P 21/n'
_symmetry_Int_Tables_number      14
_space_group_name_Hall           '-P 2yn'
loop_
_symmetry_equiv_pos_site_id
_symmetry_equiv_pos_as_xyz
1 x,y,z
2 1/2-x,1/2+y,1/2-z
3 -x,-y,-z
4 1/2+x,1/2-y,1/2+z
_cell_length_a                   13.0362(6)
_cell_length_b                   8.7731(4)
_cell_length_c                   16.8340(6)
_cell_angle_alpha                90
_cell_angle_beta                 107.289(2)
_cell_angle_gamma                90
_cell_volume                     1838.28
loop_
_atom_site_label
_atom_site_type_symbol
_atom_site_fract_x
_atom_site_fract_y
_atom_site_fract_z
Cd1 Cd 0.5000 0.5000 0.5000
O1 O 0.62421(17) 0.6195(3) 0.61760(13)
H1 H 0.685(3) 0.600(4) 0.629(2)
N1 N 0.64532(18) 0.0430(2) 0.51292(13)
N2 N 0.57853(17) 0.2625(2) 0.53810(12)
N3 N 0.81262(17) 0.0847(2) 0.17647(12)
N4 N 0.88075(18) 0.0222(2) 0.07621(13)
C1 C 0.7519(2) -0.0713(3) 0.42814(15)
C2 C 0.7373(2) 0.0277(3) 0.36084(16)
H2 H 0.6714 0.0814 0.3402
C3 C 0.8181(2) 0.0481(3) 0.32391(15)
C4 C 0.9139(2) -0.0323(3) 0.35395(17)
H3 H 0.9694 -0.0176 0.3288
C5 C 0.9300(2) -0.1339(3) 0.42023(16)
C6 C 0.8474(2) -0.1511(3) 0.45697(16)
H4 H 0.8571 -0.2190 0.5026
C7 C 0.6106(3) 0.6601(5) 0.6962(2)
H5 H 0.5344 0.6796 0.6892
H6 H 0.6524 0.7521 0.7174
H7 H 0.6357 0.5763 0.7357
C8 C 0.6630(2) -0.0923(3) 0.46688(17)
H8 H 0.5957 -0.1164 0.4226
H9 H 0.6803 -0.1803 0.5054
C9 C 0.5729(2) 0.1527(3) 0.48328(16)
H10 H 0.5231 0.1517 0.4291
C10 C 0.6599(2) 0.2196(3) 0.60674(16)
H11 H 0.6835 0.2760 0.6571
C11 C 0.7021(2) 0.0839(3) 0.59215(16)
H12 H 0.7593 0.0291 0.6294
C12 C 0.8021(2) 0.1585(3) 0.25196(16)
H13 H 0.7299 0.2049 0.2396
H14 H 0.8558 0.2413 0.2685
C13 C 0.8957(2) 0.0997(3) 0.14572(15)
H15 H 0.9578 0.1590 0.1709
C14 C 0.7814(2) -0.0466(3) 0.06160(17)
H16 H 0.7483 -0.1106 0.0156
C15 C 0.7385(2) -0.0085(3) 0.12288(18)
H17 H 0.6710 -0.0397 0.1279
C16 C 1.0326(2) -0.2231(4) 0.4513(2)
H18 H 1.0940 -0.1536 0.4617
H19 H 1.0366 -0.2986 0.4095
H20 H 1.0341 -0.2753 0.5031
O1B O 0.37579(17) 0.3805(3) 0.38240(13)
H1B H 0.315(3) 0.400(4) 0.371(2)
C7B C 0.3894(3) 0.3399(5) 0.3038(2)
H5B H 0.4656 0.3204 0.3108
H6B H 0.3476 0.2479 0.2826
H7B H 0.3643 0.4237 0.2643
N1B N 0.35468(18) 0.9570(2) 0.48708(13)
N2B N 0.42147(17) 0.7375(2) 0.46190(12)
N3B N 0.18738(17) 0.9153(2) 0.82353(12)
N4B N 0.11925(18) 0.9778(2) 0.92379(13)
C1B C 0.2481(2) 1.0713(3) 0.57186(15)
C2B C 0.2627(2) 0.9723(3) 0.63916(16)
H2B H 0.3286 0.9186 0.6598
C3B C 0.1819(2) 0.9519(3) 0.67609(15)
C4B C 0.0861(2) 1.0323(3) 0.64605(17)
H3B H 0.0306 1.0176 0.6712
C5B C 0.0700(2) 1.1339(3) 0.57977(16)
C6B C 0.1526(2) 1.1511(3) 0.54303(16)
H4B H 0.1429 1.2190 0.4974
C8B C 0.3370(2) 1.0923(3) 0.53312(17)
H8B H 0.4043 1.1164 0.5774
H9B H 0.3197 1.1803 0.4946
C9B C 0.4271(2) 0.8473(3) 0.51672(16)
H10B H 0.4769 0.8483 0.5709
C10B C 0.3401(2) 0.7804(3) 0.39326(16)
H11B H 0.3165 0.7240 0.3429
C11B C 0.2979(2) 0.9161(3) 0.40785(16)
H12B H 0.2407 0.9709 0.3706
C12B C 0.1979(2) 0.8415(3) 0.74804(16)
H13B H 0.2701 0.7951 0.7604
H14B H 0.1442 0.7587 0.7315
C13B C 0.1043(2) 0.9003(3) 0.85428(15)
H15B H 0.0422 0.8410 0.8291
C14B C 0.2186(2) 1.0466(3) 0.93840(17)
H16B H 0.2517 1.1106 0.9844
C15B C 0.2615(2) 1.0085(3) 0.87712(18)
H17B H 0.3290 1.0397 0.8721
C16B C -0.0326(2) 1.2231(4) 0.5487(2)
H18B H -0.0940 1.1536 0.5383
H19B H -0.0366 1.2986 0.5905
H20B H -0.0341 1.2753 0.4969
N4C N 0.38075(18) 0.4778(2) 0.57621(13)
N4A N 0.61925(18) 0.5222(2) 0.42379(13)
Cd1C Cd 1.0000 0.0000 0.0000
Cd1C_2 Cd 0.0000 1.0000 1.0000
Cl1 Cl 0.91960(6) 0.60957(9) 0.68919(5)
O2 O 0.8312(2) 0.5078(3) 0.6575(2)
O3 O 0.8811(2) 0.7615(3) 0.69357(17)
O4 O 0.9796(3) 0.5635(4) 0.77069(17)
O5 O 0.9855(2) 0.6064(4) 0.63514(19)
loop_
_geom_bond_atom_site_label_1
_geom_bond_atom_site_label_2
_geom_bond_site_symmetry_1
_geom_bond_site_symmetry_2
Cd1 O1 1_555 1_555
O1 H1 1_555 1_555
N1 C8 1_555 1_555
N2 Cd1 1_555 1_555
N3 C12 1_555 1_555
N4 C13 1_555 1_555
C1 C2 1_555 1_555
C2 H2 1_555 1_555
C3 C2 1_555 1_555
C4 C3 1_555 1_555
H3 C4 1_555 1_555
C5 C4 1_555 1_555
C6 C1 1_555 1_555
H4 C6 1_555 1_555
C7 O1 1_555 1_555
H5 C7 1_555 1_555
H6 C7 1_555 1_555
H7 C7 1_555 1_555
C8 C1 1_555 1_555
H8 C8 1_555 1_555
H9 C8 1_555 1_555
C9 N1 1_555 1_555
H10 C9 1_555 1_555
C10 N2 1_555 1_555
H11 C10 1_555 1_555
C11 N1 1_555 1_555
H12 C11 1_555 1_555
C12 C3 1_555 1_555
H13 C12 1_555 1_555
H14 C12 1_555 1_555
C13 N3 1_555 1_555
H15 C13 1_555 1_555
C14 N4 1_555 1_555
H16 C14 1_555 1_555
C15 N3 1_555 1_555
H17 C15 1_555 1_555
C16 C5 1_555 1_555
H18 C16 1_555 1_555
H19 C16 1_555 1_555
H20 C16 1_555 1_555
Cl1 O2 1_555 1_555
O3 Cl1 1_555 1_555
O4 Cl1 1_555 1_555
O5 Cl1 1_555 1_555
O1B Cd1 1_555 1_555
H1B O1B 1_555 1_555
C7B O1B 1_555 1_555
H5B C7B 1_555 1_555
H6B C7B 1_555 1_555
H7B C7B 1_555 1_555
N1B C8B 1_555 1_555
N2B Cd1 1_555 1_555
N3B C12B 1_555 1_555
N4B C13B 1_555 1_555
C1B C2B 1_555 1_555
C2B H2B 1_555 1_555
C3B C2B 1_555 1_555
C4B C3B 1_555 1_555
H3B C4B 1_555 1_555
C5B C4B 1_555 1_555
C6B C1B 1_555 1_555
H4B C6B 1_555 1_555
C8B C1B 1_555 1_555
H8B C8B 1_555 1_555
H9B C8B 1_555 1_555
C9B N1B 1_555 1_555
H10B C9B 1_555 1_555
C10B N2B 1_555 1_555
H11B C10B 1_555 1_555
C11B N1B 1_555 1_555
H12B C11B 1_555 1_555
C12B C3B 1_555 1_555
H13B C12B 1_555 1_555
H14B C12B 1_555 1_555
C13B N3B 1_555 1_555
H15B C13B 1_555 1_555
C14B N4B 1_555 1_555
H16B C14B 1_555 1_555
C15B N3B 1_555 1_555
H17B C15B 1_555 1_555
C16B C5B 1_555 1_555
H18B C16B 1_555 1_555
H19B C16B 1_555 1_555
H20B C16B 1_555 1_555
N4C Cd1 1_555 1_555
N4A Cd1 1_555 1_555
Cd1C N4 1_555 1_555
Cd1C_2 N4B 1_555 1_555
N2 C9 1_555 1_555
C5 C6 1_555 1_555
C10 C11 1_555 1_555
C14 C15 1_555 1_555
N2B C9B 1_555 1_555
C5B C6B 1_555 1_555
C10B C11B 1_555 1_555
C14B C15B 1_555 1_555

#END
