
#######################################################################
#
#                 Cambridge Crystallographic Data Centre
#                                CCDC 
#
#######################################################################
#
# If this CIF has been generated from an entry in the Cambridge 
# Structural Database, then it will include bibliographic, chemical, 
# crystal, experimental, refinement or atomic coordinate data resulting 
# from the CCDC's data processing and validation procedures.
#
#######################################################################

data_ECUTUT
_symmetry_cell_setting           monoclinic
_symmetry_space_group_name_H-M   'P 21/n'
_symmetry_Int_Tables_number      14
_space_group_name_Hall           '-P 2yn'
loop_
_symmetry_equiv_pos_site_id
_symmetry_equiv_pos_as_xyz
1 x,y,z
2 1/2-x,1/2+y,1/2-z
3 -x,-y,-z
4 1/2+x,1/2-y,1/2+z
_cell_length_a                   13.831(3)
_cell_length_b                   11.212(2)
_cell_length_c                   15.158(3)
_cell_angle_alpha                90
_cell_angle_beta                 100.98(3)
_cell_angle_gamma                90
_cell_volume                     2307.57
loop_
_atom_site_label
_atom_site_type_symbol
_atom_site_fract_x
_atom_site_fract_y
_atom_site_fract_z
C1 C 0.2830(3) 0.6164(3) 0.8169(2)
C2 C 0.2322(3) 0.5451(3) 0.8690(2)
C3 C 0.1292(3) 0.5481(3) 0.8468(3)
C4 C 0.0779(3) 0.6152(4) 0.7770(3)
H1 H 0.0094 0.6144 0.7641
C5 C 0.1301(3) 0.6833(4) 0.7270(3)
H2 H 0.0968 0.7288 0.6794
C6 C 0.2317(3) 0.6847(4) 0.7469(3)
H3 H 0.2662 0.7320 0.7131
C7 C 0.3945(3) 0.6248(4) 0.8369(2)
C8 C 0.2861(3) 0.4691(4) 0.9445(2)
C9 C 0.4472(3) 0.0508(4) 1.0993(3)
H4 H 0.5013 0.0626 1.1453
C10 C 0.4189(3) -0.0557(3) 1.0613(3)
H5 H 0.4494 -0.1291 1.0752
C11 C 0.3190(3) 0.0853(4) 0.9995(3)
H6 H 0.2673 0.1236 0.9620
C12 C 0.2814(3) -0.1210(4) 0.9355(3)
H7 H 0.3082 -0.1998 0.9513
H8 H 0.2914 -0.1033 0.8753
C13 C 0.1728(3) -0.1230(4) 0.9352(3)
C14 C 0.1104(4) -0.0704(4) 0.8639(3)
H9 H 0.1372 -0.0323 0.8196
C15 C 0.0096(5) -0.0728(5) 0.8563(4)
H10 H -0.0308 -0.0363 0.8077
C16 C -0.0306(4) -0.1289(5) 0.9203(4)
H11 H -0.0986 -0.1306 0.9153
C17 C 0.0289(4) -0.1831(4) 0.9924(3)
H12 H 0.0007 -0.2222 1.0353
C18 C 0.1308(3) -0.1798(3) 1.0015(3)
C19 C 0.1922(3) -0.2434(4) 1.0815(3)
H13 H 0.1660 -0.3231 1.0853
H14 H 0.2591 -0.2513 1.0714
C20 C 0.1429(3) -0.2129(4) 1.2300(3)
H15 H 0.0985 -0.2760 1.2240
C21 C 0.2289(4) -0.0628(5) 1.2822(3)
H16 H 0.2566 -0.0016 1.3201
C22 C 0.2480(4) -0.0856(5) 1.2004(3)
H17 H 0.2904 -0.0428 1.1715
Cd1 Cd 0.41025(2) 0.33925(2) 1.077954(18)
N1 N 0.0715(2) 0.4773(3) 0.9009(2)
N2 N 0.3846(3) 0.1393(3) 1.0605(2)
N3 N 0.3364(2) -0.0334(3) 0.9982(2)
N4 N 0.1944(3) -0.1823(3) 1.1676(2)
N5 N 0.1622(3) -0.1440(3) 1.3008(2)
O1 O 0.4315(2) 0.7254(3) 0.8310(2)
O2 O 0.4445(2) 0.5335(3) 0.86053(18)
O3 O 0.33267(19) 0.5210(3) 1.01326(16)
O4 O 0.2839(2) 0.3585(2) 0.9357(2)
O5 O 0.1033(2) 0.4632(3) 0.9804(2)
O6 O -0.0084(2) 0.4385(3) 0.8610(2)
O7 O 0.5033(2) 0.3363(2) 0.95782(17)
H18 H 0.5642 0.3295 0.9802
H19 H 0.4935 0.4010 0.9282
C1B C 0.7170(3) 0.3836(3) 1.1831(2)
C2B C 0.7678(3) 0.4549(3) 1.1310(2)
C3B C 0.8708(3) 0.4519(3) 1.1532(3)
C4B C 0.9221(3) 0.3848(4) 1.2230(3)
H1B H 0.9906 0.3856 1.2359
C5B C 0.8699(3) 0.3167(4) 1.2730(3)
H2B H 0.9032 0.2712 1.3206
C6B C 0.7683(3) 0.3153(4) 1.2531(3)
H3B H 0.7338 0.2680 1.2869
C7B C 0.6055(3) 0.3752(4) 1.1631(2)
C8B C 0.7139(3) 0.5309(4) 1.0555(2)
C9B C 0.5528(3) 0.9492(4) 0.9007(3)
H4B H 0.4987 0.9374 0.8547
C10B C 0.5811(3) 1.0557(3) 0.9387(3)
H5B H 0.5506 1.1291 0.9248
C11B C 0.6810(3) 0.9147(4) 1.0005(3)
H6B H 0.7327 0.8764 1.0380
C12B C 0.7186(3) 1.1210(4) 1.0645(3)
H7B H 0.6918 1.1998 1.0487
H8B H 0.7086 1.1033 1.1247
C13B C 0.8272(3) 1.1230(4) 1.0648(3)
C14B C 0.8896(4) 1.0704(4) 1.1361(3)
H9B H 0.8628 1.0323 1.1804
C15B C 0.9904(5) 1.0728(5) 1.1437(4)
H10B H 1.0308 1.0363 1.1923
C16B C 1.0306(4) 1.1289(5) 1.0797(4)
H11B H 1.0986 1.1306 1.0847
C17B C 0.9711(4) 1.1831(4) 1.0076(3)
H12B H 0.9993 1.2222 0.9647
C18B C 0.8692(3) 1.1798(3) 0.9985(3)
C19B C 0.8078(3) 1.2434(4) 0.9185(3)
H13B H 0.8340 1.3231 0.9147
H14B H 0.7409 1.2513 0.9286
C20B C 0.8571(3) 1.2129(4) 0.7700(3)
H15B H 0.9015 1.2760 0.7760
C21B C 0.7711(4) 1.0628(5) 0.7178(3)
H16B H 0.7434 1.0016 0.6799
C22B C 0.7520(4) 1.0856(5) 0.7996(3)
H17B H 0.7096 1.0428 0.8285
Cd1B Cd 0.58975(2) 0.66075(2) 0.922046(18)
Cd1A Cd 0.08975(2) -0.16075(2) 1.422046(18)
Cd1C Cd 0.91025(2) 1.16075(2) 0.577954(18)
N1B N 0.9285(2) 0.5227(3) 1.0991(2)
N2B N 0.6154(3) 0.8607(3) 0.9395(2)
N3B N 0.6636(2) 1.0334(3) 1.0018(2)
N4B N 0.8056(3) 1.1823(3) 0.8324(2)
N5B N 0.8378(3) 1.1440(3) 0.6992(2)
N5A N 0.3378(3) 0.3560(3) 1.1992(2)
N5C N 0.6622(3) 0.6440(3) 0.8008(2)
O1B O 0.5685(2) 0.2746(3) 1.1690(2)
O2B O 0.5555(2) 0.4665(3) 1.13947(18)
O3B O 0.66733(19) 0.4790(3) 0.98674(16)
O4B O 0.7161(2) 0.6415(2) 1.0643(2)
O5B O 0.8967(2) 0.5368(3) 1.0196(2)
O6B O 1.0084(2) 0.5615(3) 1.1390(2)
O7B O 0.4967(2) 0.6637(2) 1.04218(17)
H18B H 0.4358 0.6705 1.0198
H19B H 0.5065 0.5990 1.0718
loop_
_geom_bond_atom_site_label_1
_geom_bond_atom_site_label_2
_geom_bond_site_symmetry_1
_geom_bond_site_symmetry_2
C1 C2 1_555 1_555
C2 C3 1_555 1_555
C3 C4 1_555 1_555
C4 H1 1_555 1_555
C5 C4 1_555 1_555
H2 C5 1_555 1_555
C6 C1 1_555 1_555
H3 C6 1_555 1_555
C7 C1 1_555 1_555
C8 C2 1_555 1_555
C9 H4 1_555 1_555
C10 C9 1_555 1_555
H5 C10 1_555 1_555
C11 H6 1_555 1_555
C12 H7 1_555 1_555
H8 C12 1_555 1_555
C13 C12 1_555 1_555
C14 C13 1_555 1_555
H9 C14 1_555 1_555
C15 C14 1_555 1_555
H10 C15 1_555 1_555
C16 C15 1_555 1_555
H11 C16 1_555 1_555
C17 C16 1_555 1_555
H12 C17 1_555 1_555
C18 C13 1_555 1_555
C19 C18 1_555 1_555
H13 C19 1_555 1_555
H14 C19 1_555 1_555
C20 H15 1_555 1_555
C21 H16 1_555 1_555
C22 C21 1_555 1_555
H17 C22 1_555 1_555
Cd1 N2 1_555 1_555
N1 C3 1_555 1_555
N2 C9 1_555 1_555
N3 C10 1_555 1_555
N4 C19 1_555 1_555
N5 C20 1_555 1_555
O1 C7 1_555 1_555
O2 C7 1_555 1_555
O3 C8 1_555 1_555
O4 C8 1_555 1_555
O5 N1 1_555 1_555
O6 N1 1_555 1_555
O7 Cd1 1_555 1_555
H18 O7 1_555 1_555
H19 O7 1_555 1_555
C1B C2B 1_555 1_555
C2B C3B 1_555 1_555
C3B C4B 1_555 1_555
C4B H1B 1_555 1_555
C5B C4B 1_555 1_555
H2B C5B 1_555 1_555
C6B C1B 1_555 1_555
H3B C6B 1_555 1_555
C7B C1B 1_555 1_555
C8B C2B 1_555 1_555
C9B H4B 1_555 1_555
C10B C9B 1_555 1_555
H5B C10B 1_555 1_555
C11B H6B 1_555 1_555
C12B H7B 1_555 1_555
H8B C12B 1_555 1_555
C13B C12B 1_555 1_555
C14B C13B 1_555 1_555
H9B C14B 1_555 1_555
C15B C14B 1_555 1_555
H10B C15B 1_555 1_555
C16B C15B 1_555 1_555
H11B C16B 1_555 1_555
C17B C16B 1_555 1_555
H12B C17B 1_555 1_555
C18B C13B 1_555 1_555
C19B C18B 1_555 1_555
H13B C19B 1_555 1_555
H14B C19B 1_555 1_555
C20B H15B 1_555 1_555
C21B H16B 1_555 1_555
C22B C21B 1_555 1_555
H17B C22B 1_555 1_555
Cd1B O1 1_555 1_555
Cd1A N5 1_555 1_555
Cd1C N5B 1_555 1_555
N1B C3B 1_555 1_555
N2B C9B 1_555 1_555
N3B C10B 1_555 1_555
N4B C19B 1_555 1_555
N5B C20B 1_555 1_555
N5A Cd1 1_555 1_555
N5C Cd1B 1_555 1_555
O1B Cd1 1_555 1_555
O2B Cd1 1_555 1_555
O3B C8B 1_555 1_555
O4B C8B 1_555 1_555
O5B N1B 1_555 1_555
O6B N1B 1_555 1_555
O7B Cd1B 1_555 1_555
H18B O7B 1_555 1_555
H19B O7B 1_555 1_555
C5 C6 1_555 1_555
C11 N2 1_555 1_555
C11 N3 1_555 1_555
C12 N3 1_555 1_555
C17 C18 1_555 1_555
C20 N4 1_555 1_555
C21 N5 1_555 1_555
C22 N4 1_555 1_555
Cd1 O3 1_555 1_555
Cd1 O4 1_555 1_555
O2 Cd1B 1_555 1_555
C5B C6B 1_555 1_555
C7B O1B 1_555 1_555
C7B O2B 1_555 1_555
C11B N2B 1_555 1_555
C11B N3B 1_555 1_555
C12B N3B 1_555 1_555
C17B C18B 1_555 1_555
C20B N4B 1_555 1_555
C21B N5B 1_555 1_555
C22B N4B 1_555 1_555
Cd1B N2B 1_555 1_555
Cd1B O3B 1_555 1_555
Cd1B O4B 1_555 1_555

#END
