
#######################################################################
#
#                 Cambridge Crystallographic Data Centre
#                                CCDC 
#
#######################################################################
#
# If this CIF has been generated from an entry in the Cambridge 
# Structural Database, then it will include bibliographic, chemical, 
# crystal, experimental, refinement or atomic coordinate data resulting 
# from the CCDC's data processing and validation procedures.
#
#######################################################################

data_ECUVAB
_symmetry_cell_setting           triclinic
_symmetry_space_group_name_H-M   'P -1'
_symmetry_Int_Tables_number      2
_space_group_name_Hall           '-P 1'
loop_
_symmetry_equiv_pos_site_id
_symmetry_equiv_pos_as_xyz
1 x,y,z
2 -x,-y,-z
_cell_length_a                   9.3751(12)
_cell_length_b                   10.1430(13)
_cell_length_c                   12.1536(15)
_cell_angle_alpha                103.105(2)
_cell_angle_beta                 108.907(2)
_cell_angle_gamma                98.667(2)
_cell_volume                     1032.88
loop_
_atom_site_label
_atom_site_type_symbol
_atom_site_fract_x
_atom_site_fract_y
_atom_site_fract_z
C1 C 0.5238(2) 0.68368(19) 1.12628(18)
C2 C 0.3929(2) 0.65395(19) 1.02065(18)
C3 C 0.2761(2) 0.5359(2) 0.9962(2)
C4 C 0.2838(3) 0.4540(2) 1.0740(2)
H1 H 0.2028 0.3771 1.0552
C5 C 0.4122(3) 0.4877(2) 1.1792(2)
H2 H 0.4179 0.4349 1.2332
C6 C 0.5329(3) 0.6002(2) 1.2045(2)
H3 H 0.6216 0.6210 1.2744
C7 C 0.6588(2) 0.8085(2) 1.16523(18)
C8 C 0.3713(2) 0.75035(19) 0.93957(18)
C9 C 0.2184(3) 0.7028(2) 0.61693(19)
H4 H 0.2956 0.6710 0.6663
C10 C 0.0488(3) 0.8172(2) 0.5553(2)
H5 H -0.0130 0.8809 0.5555
C11 C 0.0440(3) 0.7229(2) 0.4549(2)
H6 H -0.0201 0.7094 0.3747
C12 C 0.1828(3) 0.5318(3) 0.4183(2)
H7 H 0.1577 0.5416 0.3371
H8 H 0.1140 0.4465 0.4121
C13 C 0.3481(3) 0.5183(2) 0.46501(19)
C14 C 0.3767(3) 0.3891(2) 0.4705(2)
H9 H 0.2937 0.3136 0.4509
C15 C 0.4740(3) 0.6294(2) 0.4955(2)
H10 H 0.4577 0.7170 0.4930
C16 C -0.0655(2) 1.0416(2) 0.80509(19)
H11 H -0.0230 1.1197 0.7878
C17 C -0.0940(3) 0.8521(3) 0.8546(2)
H12 H -0.0729 0.7737 0.8781
C18 C -0.2300(3) 0.8892(3) 0.8344(2)
H13 H -0.3189 0.8424 0.8408
C19 C -0.3300(3) 1.0852(2) 0.7632(2)
H14 H -0.2812 1.1842 0.7890
H15 H -0.4035 1.0719 0.8028
C20 C -0.4174(2) 1.0382(2) 0.62677(19)
C21 C -0.3418(3) 1.0147(2) 0.5449(2)
H16 H -0.2349 1.0241 0.5744
C22 C -0.5766(3) 1.0225(2) 0.5792(2)
H17 H -0.6298 1.0372 0.6318
N1 N 0.1399(2) 0.4914(2) 0.88208(19)
N2 N 0.1591(2) 0.80476(18) 0.65713(16)
N3 N 0.1529(2) 0.65123(19) 0.49554(16)
N4 N 0.0090(2) 0.94712(18) 0.83533(16)
N5 N -0.2110(2) 1.01000(19) 0.80260(16)
O1 O 0.7876(2) 0.8051(2) 1.23042(19)
O2 O 0.62337(17) 0.91238(14) 1.12974(14)
O3 O 0.44574(18) 0.75763(16) 0.87425(14)
O4 O 0.26745(18) 0.81639(15) 0.94814(14)
O5 O 0.1512(2) 0.5294(2) 0.79626(17)
O6 O 0.0221(2) 0.4138(2) 0.8767(2)
Zn1 Zn 0.21664(2) 0.92178(2) 0.831504(19)
C1A C -1.5238(2) 1.31632(19) -0.12628(18)
C2A C -1.3929(2) 1.34605(19) -0.02065(18)
C3A C -1.2761(2) 1.4641(2) 0.0038(2)
C4A C -1.2838(3) 1.5460(2) -0.0740(2)
H1A H -1.2028 1.6229 -0.0552
C5A C -1.4122(3) 1.5123(2) -0.1792(2)
H2A H -1.4179 1.5651 -0.2332
C6A C -1.5329(3) 1.3998(2) -0.2045(2)
H3A H -1.6216 1.3790 -0.2744
C7A C -1.6588(2) 1.1915(2) -0.16523(18)
C8A C -1.3713(2) 1.24965(19) 0.06043(18)
C9A C 0.7816(3) 0.2972(2) 0.38307(19)
H4A H 0.7044 0.3290 0.3337
C10A C 0.9512(3) 0.1828(2) 0.4447(2)
H5A H 1.0130 0.1191 0.4445
C11A C 0.9560(3) 0.2771(2) 0.5451(2)
H6A H 1.0201 0.2906 0.6253
C12A C 0.8172(3) 0.4682(3) 0.5817(2)
H7A H 0.8423 0.4584 0.6629
H8A H 0.8860 0.5535 0.5879
C13A C 0.6519(3) 0.4817(2) 0.53499(19)
C14A C 0.6233(3) 0.6109(2) 0.5295(2)
H9A H 0.7063 0.6864 0.5491
C15A C 0.5260(3) 0.3706(2) 0.5045(2)
H10A H 0.5423 0.2830 0.5070
C16A C -0.9345(2) 0.9584(2) 0.19491(19)
H11A H -0.9770 0.8803 0.2122
C17A C -0.9060(3) 1.1479(3) 0.1454(2)
H12A H -0.9271 1.2263 0.1219
C18A C -0.7700(3) 1.1108(3) 0.1656(2)
H13A H -0.6811 1.1576 0.1592
C19A C -0.6700(3) 0.9148(2) 0.2368(2)
H14A H -0.7188 0.8158 0.2110
H15A H -0.5965 0.9281 0.1972
C20A C -0.5826(2) 0.9618(2) 0.37323(19)
C21A C -0.6582(3) 0.9853(2) 0.4551(2)
H16A H -0.7651 0.9759 0.4256
C22A C -0.4234(3) 0.9775(2) 0.4208(2)
H17A H -0.3702 0.9628 0.3682
N1A N -1.1399(2) 1.5086(2) 0.11792(19)
N2A N 0.8409(2) 0.19524(18) 0.34287(16)
N2A_2 N -1.1591(2) 1.19524(18) 0.34287(16)
N3A N 0.8471(2) 0.34877(19) 0.50446(16)
N4A N -1.0090(2) 1.05288(18) 0.16467(16)
N5A N -0.7890(2) 0.99000(19) 0.19740(16)
O1A O -1.7876(2) 1.1949(2) -0.23042(19)
O2A O -1.62337(17) 1.08762(14) -0.12974(14)
O2_2 O -1.37663(17) 0.91238(14) 0.12974(14)
O2A_2 O 0.37663(17) 1.08762(14) 0.87026(14)
O3A O -1.44574(18) 1.24237(16) 0.12575(14)
O4A O -1.26745(18) 1.18361(15) 0.05186(14)
O5A O -1.1512(2) 1.4706(2) 0.20374(17)
O6A O -1.0221(2) 1.5862(2) 0.1233(2)
Zn1A Zn -1.21664(2) 1.07822(2) 0.168496(19)
Zn1_2 Zn -1.78336(2) 0.92178(2) -0.168496(19)
Zn1A_2 Zn 0.78336(2) 0.07822(2) 0.168496(19)
Zn1A_3 Zn 0.78336(2) 1.07822(2) 1.168496(19)
loop_
_geom_bond_atom_site_label_1
_geom_bond_atom_site_label_2
_geom_bond_site_symmetry_1
_geom_bond_site_symmetry_2
C1 C2 1_555 1_555
C2 C3 1_555 1_555
C3 C4 1_555 1_555
C4 H1 1_555 1_555
C5 C4 1_555 1_555
H2 C5 1_555 1_555
C6 C1 1_555 1_555
H3 C6 1_555 1_555
C7 C1 1_555 1_555
C8 C2 1_555 1_555
C9 H4 1_555 1_555
C10 H5 1_555 1_555
C11 C10 1_555 1_555
H6 C11 1_555 1_555
C12 H7 1_555 1_555
H8 C12 1_555 1_555
C13 C12 1_555 1_555
C14 C13 1_555 1_555
H9 C14 1_555 1_555
C15 C13 1_555 1_555
H10 C15 1_555 1_555
C16 H11 1_555 1_555
C17 H12 1_555 1_555
C18 C17 1_555 1_555
H13 C18 1_555 1_555
C19 H14 1_555 1_555
H15 C19 1_555 1_555
C20 C19 1_555 1_555
C21 C20 1_555 1_555
H16 C21 1_555 1_555
C22 C20 1_555 1_555
H17 C22 1_555 1_555
N1 C3 1_555 1_555
N2 C9 1_555 1_555
N3 C9 1_555 1_555
N4 C16 1_555 1_555
N5 C16 1_555 1_555
O1 C7 1_555 1_555
O2 C7 1_555 1_555
O3 C8 1_555 1_555
O4 C8 1_555 1_555
O5 N1 1_555 1_555
O6 N1 1_555 1_555
Zn1 N2 1_555 1_555
C1A C2A 1_555 1_555
C2A C3A 1_555 1_555
C3A C4A 1_555 1_555
C4A H1A 1_555 1_555
C5A C4A 1_555 1_555
H2A C5A 1_555 1_555
C6A C1A 1_555 1_555
H3A C6A 1_555 1_555
C7A C1A 1_555 1_555
C8A C2A 1_555 1_555
C9A H4A 1_555 1_555
C10A H5A 1_555 1_555
C11A C10A 1_555 1_555
H6A C11A 1_555 1_555
C12A H7A 1_555 1_555
H8A C12A 1_555 1_555
C13A C12A 1_555 1_555
C14A C15 1_555 1_555
H9A C14A 1_555 1_555
C15A C14 1_555 1_555
H10A C15A 1_555 1_555
C16A H11A 1_555 1_555
C17A H12A 1_555 1_555
C18A C17A 1_555 1_555
H13A C18A 1_555 1_555
C19A H14A 1_555 1_555
H15A C19A 1_555 1_555
C20A C19A 1_555 1_555
C21A C22 1_555 1_555
H16A C21A 1_555 1_555
C22A C21 1_555 1_555
H17A C22A 1_555 1_555
N1A C3A 1_555 1_555
N2A C9A 1_555 1_555
N2A_2 Zn1A 1_555 1_555
N3A C9A 1_555 1_555
N4A C16A 1_555 1_555
N5A C16A 1_555 1_555
O1A C7A 1_555 1_555
O2A C7A 1_555 1_555
O2_2 Zn1A 1_555 1_555
O2A_2 Zn1 1_555 1_555
O3A C8A 1_555 1_555
O4A C8A 1_555 1_555
O5A N1A 1_555 1_555
O6A N1A 1_555 1_555
Zn1A N4A 1_555 1_555
Zn1_2 O2A 1_555 1_555
Zn1A_2 N2A 1_555 1_555
Zn1A_3 O2 1_555 1_555
C5 C6 1_555 1_555
C10 N2 1_555 1_555
C11 N3 1_555 1_555
C12 N3 1_555 1_555
C17 N4 1_555 1_555
C18 N5 1_555 1_555
C19 N5 1_555 1_555
N4 Zn1 1_555 1_555
O4 Zn1 1_555 1_555
C5A C6A 1_555 1_555
C10A N2A 1_555 1_555
C11A N3A 1_555 1_555
C12A N3A 1_555 1_555
C13A C14A 1_555 1_555
C13A C15A 1_555 1_555
C17A N4A 1_555 1_555
C18A N5A 1_555 1_555
C19A N5A 1_555 1_555
C20A C21A 1_555 1_555
C20A C22A 1_555 1_555
O4A Zn1A 1_555 1_555

#END
