
#######################################################################
#
#                 Cambridge Crystallographic Data Centre
#                                CCDC 
#
#######################################################################
#
# If this CIF has been generated from an entry in the Cambridge 
# Structural Database, then it will include bibliographic, chemical, 
# crystal, experimental, refinement or atomic coordinate data resulting 
# from the CCDC's data processing and validation procedures.
#
#######################################################################

data_ECUVEF
_symmetry_cell_setting           rhombohedral
_symmetry_space_group_name_H-M   'R -3'
_symmetry_Int_Tables_number      148
_space_group_name_Hall           '-R 3'
loop_
_symmetry_equiv_pos_site_id
_symmetry_equiv_pos_as_xyz
1 x,y,z
2 -y,x-y,z
3 -x+y,-x,z
4 2/3+x,1/3+y,1/3+z
5 2/3-y,1/3+x-y,1/3+z
6 2/3-x+y,1/3-x,1/3+z
7 1/3+x,2/3+y,2/3+z
8 1/3-y,2/3+x-y,2/3+z
9 1/3-x+y,2/3-x,2/3+z
10 -x,-y,-z
11 y,-x+y,-z
12 x-y,x,-z
13 1/3-x,2/3-y,2/3-z
14 1/3+y,2/3-x+y,2/3-z
15 1/3+x-y,2/3+x,2/3-z
16 2/3-x,1/3-y,1/3-z
17 2/3+y,1/3-x+y,1/3-z
18 2/3+x-y,1/3+x,1/3-z
_cell_length_a                   27.814(4)
_cell_length_b                   27.814(4)
_cell_length_c                   18.428(2)
_cell_angle_alpha                90
_cell_angle_beta                 90
_cell_angle_gamma                120
_cell_volume                     12346.3
loop_
_atom_site_label
_atom_site_type_symbol
_atom_site_fract_x
_atom_site_fract_y
_atom_site_fract_z
Zn1 Zn 0.052756(13) 0.308121(13) 0.077079(17)
O1 O -0.00139(10) 0.37691(10) 0.13599(12)
O2 O 0.01466(11) 0.39758(12) 0.30733(15)
H1 H -0.0095 0.3831 0.3384
C1 C 0.04726(12) 0.45725(12) 0.06304(15)
Zn2 Zn 0.001098(13) 0.340462(13) 0.227343(18)
O3 O 0.05571(10) 0.37744(9) 0.05055(13)
C2 C 0.02688(12) 0.48549(12) 0.10360(15)
H2 H 0.0035 0.4684 0.1429
O4 O -0.00845(10) 0.54994(9) 0.18035(12)
C3 C 0.04217(12) 0.53972(12) 0.08427(16)
O5 O 0.03592(10) 0.61993(10) 0.10202(14)
C4 C 0.07771(14) 0.56530(13) 0.02634(18)
H3 H 0.0883 0.6018 0.0144
O6 O 0.13197(14) 0.56729(12) -0.06902(16)
C5 C 0.09758(15) 0.53667(14) -0.01393(17)
O7 O 0.08940(9) 0.28901(10) 0.00094(11)
C6 C 0.08272(13) 0.48266(13) 0.00401(16)
H4 H 0.0961 0.4635 -0.0228
O8 O 0.02067(9) 0.27630(9) -0.07162(13)
C7 C 0.03248(12) 0.39963(12) 0.08488(16)
O9 O 0.24444(9) 0.26691(9) -0.09218(11)
C8 C 0.02120(12) 0.57211(12) 0.12503(17)
O10 O 0.25979(8) 0.27969(9) -0.21130(11)
C9 C 0.1484(2) 0.54228(19) -0.1228(2)
H5 H 0.1170 0.5077 -0.1394
H6 H 0.1767 0.5348 -0.1044
O11 O 0.07234(10) 0.23699(11) -0.31412(12)
C10 C 0.1712(2) 0.5845(2) -0.1835(3)
C11 C 0.1360(2) 0.5870(2) -0.2337(3)
H7 H 0.0983 0.5612 -0.2313
C12 C 0.1554(2) 0.6271(2) -0.2881(3)
H8 H 0.1312 0.6271 -0.3228
C13 C 0.2105(2) 0.6664(2) -0.2899(3)
H9 H 0.2236 0.6938 -0.3254
C14 C 0.2469(2) 0.6658(2) -0.2393(3)
H10 H 0.2844 0.6925 -0.2410
C15 C 0.2267(2) 0.6247(2) -0.1853(3)
H11 H 0.2509 0.6245 -0.1505
C16 C 0.09380(12) 0.26562(12) -0.12116(15)
C17 C 0.14484(12) 0.26934(12) -0.10935(15)
H12 H 0.1600 0.2762 -0.0630
C18 C 0.17307(11) 0.26277(11) -0.16718(15)
C19 C 0.15035(12) 0.25220(12) -0.23692(15)
H13 H 0.1697 0.2487 -0.2758
C20 C 0.09844(13) 0.24704(12) -0.24738(15)
C21 C 0.07004(12) 0.25369(12) -0.19004(16)
H14 H 0.0354 0.2502 -0.1975
C22 C 0.06567(12) 0.27774(12) -0.06024(15)
C23 C 0.22968(11) 0.27036(11) -0.15635(15)
C24 C 0.10154(19) 0.23514(18) -0.3772(2)
H15 H 0.1396 0.2655 -0.3749
H16 H 0.0845 0.2406 -0.4200
C25 C 0.10195(19) 0.18155(19) -0.3852(2)
C26 C 0.0680(2) 0.1357(2) -0.3442(3)
H17 H 0.0446 0.1373 -0.3095
C27 C 0.0692(2) 0.0864(2) -0.3550(3)
H18 H 0.0473 0.0556 -0.3263
C28 C 0.1024(2) 0.0834(2) -0.4081(3)
H19 H 0.1015 0.0500 -0.4166
C29 C 0.1361(2) 0.1283(2) -0.4476(3)
H20 H 0.1593 0.1262 -0.4823
C30 C 0.1365(2) 0.1780(2) -0.4367(3)
H21 H 0.1600 0.2091 -0.4641
H22 H 0.0425(10) 0.4224(17) 0.324(2)
Zn1P Zn -0.025212(13) 0.588698(18) 0.256254(17)
Zn1J Zn 0.308121(13) 0.255365(18) -0.077079(17)
Zn2P Zn 0.007129(13) 0.672697(18) 0.105990(18)
Zn2G Zn -0.007129(13) 0.327303(18) -0.105990(18)
Zn2J Zn 0.340462(13) 0.339364(18) -0.227343(18)
O4Q O 0.10828(13) 0.32488(10) 0.15298(12)
O5Q O 0.08266(14) 0.36925(10) 0.23131(14)
O8E O -0.07770(13) 0.31266(9) 0.26171(13)
O9K O -0.02247(13) 0.24444(9) 0.09218(11)
O10K O -0.01990(12) 0.25979(8) 0.21130(11)
loop_
_geom_bond_atom_site_label_1
_geom_bond_atom_site_label_2
_geom_bond_site_symmetry_1
_geom_bond_site_symmetry_2
Zn1 O3 1_555 1_555
O1 Zn2 1_555 1_555
O2 H1 1_555 1_555
C1 C2 1_555 1_555
Zn2 O2 1_555 1_555
O3 C7 1_555 1_555
C2 H2 1_555 1_555
O4 C8 1_555 1_555
C3 C2 1_555 1_555
O5 C8 1_555 1_555
C4 C3 1_555 1_555
H3 C4 1_555 1_555
O6 C5 1_555 1_555
C5 C4 1_555 1_555
O7 Zn1 1_555 1_555
C6 C1 1_555 1_555
H4 C6 1_555 1_555
O8 C22 1_555 1_555
C7 O1 1_555 1_555
O9 C23 1_555 1_555
C8 C3 1_555 1_555
O10 C23 1_555 1_555
C9 O6 1_555 1_555
H5 C9 1_555 1_555
H6 C9 1_555 1_555
O11 C20 1_555 1_555
C10 C9 1_555 1_555
C11 C10 1_555 1_555
H7 C11 1_555 1_555
C12 C11 1_555 1_555
H8 C12 1_555 1_555
C13 C12 1_555 1_555
H9 C13 1_555 1_555
C14 C13 1_555 1_555
H10 C14 1_555 1_555
C15 C10 1_555 1_555
H11 C15 1_555 1_555
C16 C17 1_555 1_555
C17 H12 1_555 1_555
C18 C17 1_555 1_555
C19 C18 1_555 1_555
H13 C19 1_555 1_555
C20 C19 1_555 1_555
C21 C16 1_555 1_555
H14 C21 1_555 1_555
C22 O7 1_555 1_555
C23 C18 1_555 1_555
C24 O11 1_555 1_555
H15 C24 1_555 1_555
H16 C24 1_555 1_555
C25 C24 1_555 1_555
C26 C25 1_555 1_555
H17 C26 1_555 1_555
C27 C26 1_555 1_555
H18 C27 1_555 1_555
C28 C27 1_555 1_555
H19 C28 1_555 1_555
C29 C28 1_555 1_555
H20 C29 1_555 1_555
C30 C25 1_555 1_555
H21 C30 1_555 1_555
H22 O2 1_555 1_555
Zn1P O4 1_555 1_555
Zn1J O9 1_555 1_555
Zn2P O5 1_555 1_555
Zn2G O8 1_555 1_555
Zn2J O10 1_555 1_555
O4Q Zn1 1_555 1_555
O5Q Zn2 1_555 1_555
O8E Zn2 1_555 1_555
O9K Zn1 1_555 1_555
O10K Zn2 1_555 1_555
C1 C7 1_555 1_555
C5 C6 1_555 1_555
C14 C15 1_555 1_555
C16 C22 1_555 1_555
C20 C21 1_555 1_555
C29 C30 1_555 1_555

#END
