
#######################################################################
#
#                 Cambridge Crystallographic Data Centre
#                                CCDC 
#
#######################################################################
#
# If this CIF has been generated from an entry in the Cambridge 
# Structural Database, then it will include bibliographic, chemical, 
# crystal, experimental, refinement or atomic coordinate data resulting 
# from the CCDC's data processing and validation procedures.
#
#######################################################################

data_ECUVUV
_symmetry_cell_setting           triclinic
_symmetry_space_group_name_H-M   'P -1'
_symmetry_Int_Tables_number      2
_space_group_name_Hall           '-P 1'
loop_
_symmetry_equiv_pos_site_id
_symmetry_equiv_pos_as_xyz
1 x,y,z
2 -x,-y,-z
_cell_length_a                   8.127(5)
_cell_length_b                   8.670(5)
_cell_length_c                   11.027(5)
_cell_angle_alpha                70.478(5)
_cell_angle_beta                 79.790(5)
_cell_angle_gamma                77.737(5)
_cell_volume                     710.819
loop_
_atom_site_label
_atom_site_type_symbol
_atom_site_fract_x
_atom_site_fract_y
_atom_site_fract_z
Cu1 Cu 0.0000 0.0000 0.5000
N1 N -0.1107(2) 0.2357(2) 0.48559(16)
O1 O 0.1732(3) -0.4390(2) 1.08045(17)
O2 O -0.0082(2) -0.0462(2) 0.68628(13)
O3 O -0.4696(2) 0.3274(2) 0.77762(16)
C1 C 0.0822(3) -0.1532(2) 0.98599(17)
O4 O 0.2964(3) 0.1046(3) 0.42564(17)
O5 O 0.2246(3) -0.3341(2) 0.86830(16)
C2 C 0.0510(3) -0.0167(3) 0.87646(17)
C3 C -0.4175(3) 0.4492(3) 0.6964(2)
C4 C -0.2164(3) 0.2705(3) 0.58448(18)
H1 H -0.2365 0.1836 0.6594
C5 C -0.2970(3) 0.4289(3) 0.58081(19)
C6 C -0.0309(3) 0.1334(3) 0.89175(17)
H2 H -0.0525 0.2238 0.8186
N2 N -0.4672(3) 0.6014(3) 0.7035(2)
O6 O 0.2434(3) 0.0150(3) 0.68514(16)
C7 C -0.1619(4) 0.5213(3) 0.3652(2)
H3 H -0.1427 0.6054 0.2882
C8 C 0.1674(3) -0.3168(3) 0.97197(19)
C9 C 0.1035(3) -0.0207(3) 0.73891(17)
C10 C -0.2683(3) 0.5575(3) 0.4680(2)
H4 H -0.3197 0.6660 0.4618
C11 C -0.0845(3) 0.3609(3) 0.3769(2)
H5 H -0.0118 0.3384 0.3074
H6 H -0.536(4) 0.617(4) 0.764(3)
H7 H -0.417(4) 0.677(5) 0.662(3)
H8 H 0.3455 0.0648 0.3639
H9 H 0.3737 0.0737 0.4854
H10 H 0.227(5) -0.525(5) 1.066(4)
Cu1_2 Cu 0.0000 0.0000 1.5000
N1A N 0.1107(2) -0.2357(2) 0.51441(16)
O1A O -0.1732(3) 0.4390(2) 0.91955(17)
O2A O 0.0082(2) 0.0462(2) 0.31372(13)
O2A_2 O 0.0082(2) 0.0462(2) 1.31372(13)
O3A O 0.4696(2) -0.3274(2) 0.22238(16)
C1A C -0.0822(3) 0.1532(2) 1.01401(17)
O4A O -0.2964(3) -0.1046(3) 0.57436(17)
O5A O -0.2246(3) 0.3341(2) 1.13170(16)
C2A C -0.0510(3) 0.0167(3) 1.12354(17)
C3A C 0.4175(3) -0.4492(3) 0.3036(2)
C4A C 0.2164(3) -0.2705(3) 0.41552(18)
H1A H 0.2365 -0.1836 0.3406
C5A C 0.2970(3) -0.4289(3) 0.41919(19)
C6A C 0.0309(3) -0.1334(3) 1.10825(17)
H2A H 0.0525 -0.2238 1.1814
N2A N 0.4672(3) -0.6014(3) 0.2965(2)
O6A O -0.2434(3) -0.0150(3) 1.31486(16)
C7A C 0.1619(4) -0.5213(3) 0.6348(2)
H3A H 0.1427 -0.6054 0.7118
C8A C -0.1674(3) 0.3168(3) 1.02803(19)
C9A C -0.1035(3) 0.0207(3) 1.26109(17)
C10A C 0.2683(3) -0.5575(3) 0.5320(2)
H4A H 0.3197 -0.6660 0.5382
C11A C 0.0845(3) -0.3609(3) 0.6231(2)
H5A H 0.0118 -0.3384 0.6926
H6A H 0.536(4) -0.617(4) 0.236(3)
H7A H 0.417(4) -0.677(5) 0.338(3)
H8A H -0.3455 -0.0648 0.6361
H9A H -0.3737 -0.0737 0.5146
H10A H -0.227(5) 0.525(5) 0.934(4)
O7 O 0.5282(2) -0.0023(2) 0.78862(19)
H11 H 0.5342 0.0991 0.7909
H12 H 0.4227 0.0078 0.7691
O8 O 0.6635(4) -0.2972(3) 0.9713(2)
H13 H 0.6257 -0.1977 0.9167
H14 H 0.5769 -0.3223 1.0335
loop_
_geom_bond_atom_site_label_1
_geom_bond_atom_site_label_2
_geom_bond_site_symmetry_1
_geom_bond_site_symmetry_2
Cu1 N1 1_555 1_555
N1 C4 1_555 1_555
O1 C8 1_555 1_555
O2 Cu1 1_555 1_555
O3 C3 1_555 1_555
C1 C2 1_555 1_555
O4 Cu1 1_555 1_555
O5 C8 1_555 1_555
C2 C6 1_555 1_555
C3 C5 1_555 1_555
C4 H1 1_555 1_555
C5 C4 1_555 1_555
C6 H2 1_555 1_555
N2 C3 1_555 1_555
O6 C9 1_555 1_555
C7 H3 1_555 1_555
C8 C1 1_555 1_555
C9 O2 1_555 1_555
C10 C5 1_555 1_555
H4 C10 1_555 1_555
C11 N1 1_555 1_555
H5 C11 1_555 1_555
H6 N2 1_555 1_555
H7 N2 1_555 1_555
H8 O4 1_555 1_555
H9 O4 1_555 1_555
H10 O1 1_555 1_555
O7 H11 1_555 1_555
H12 O7 1_555 1_555
O8 H13 1_555 1_555
H14 O8 1_555 1_555
Cu1_2 O2A_2 1_555 1_555
N1A Cu1 1_555 1_555
O1A C8A 1_555 1_555
O2A Cu1 1_555 1_555
O2A_2 C9A 1_555 1_555
O3A C3A 1_555 1_555
C1A C6 1_555 1_555
O4A Cu1 1_555 1_555
O5A C8A 1_555 1_555
C2A C1A 1_555 1_555
C3A C5A 1_555 1_555
C4A N1A 1_555 1_555
H1A C4A 1_555 1_555
C5A C4A 1_555 1_555
C6A C1 1_555 1_555
H2A C6A 1_555 1_555
N2A C3A 1_555 1_555
O6A C9A 1_555 1_555
C7A H3A 1_555 1_555
C8A C1A 1_555 1_555
C9A C2A 1_555 1_555
C10A C5A 1_555 1_555
H4A C10A 1_555 1_555
C11A N1A 1_555 1_555
H5A C11A 1_555 1_555
H6A N2A 1_555 1_555
H7A N2A 1_555 1_555
H8A O4A 1_555 1_555
H9A O4A 1_555 1_555
H10A O1A 1_555 1_555
C2 C9 1_555 1_555
C7 C10 1_555 1_555
C7 C11 1_555 1_555
C2A C6A 1_555 1_555
C7A C10A 1_555 1_555
C7A C11A 1_555 1_555

#END
