
#######################################################################
#
#                 Cambridge Crystallographic Data Centre
#                                CCDC 
#
#######################################################################
#
# If this CIF has been generated from an entry in the Cambridge 
# Structural Database, then it will include bibliographic, chemical, 
# crystal, experimental, refinement or atomic coordinate data resulting 
# from the CCDC's data processing and validation procedures.
#
#######################################################################

data_ECUWEG
_symmetry_cell_setting           triclinic
_symmetry_space_group_name_H-M   'P -1'
_symmetry_Int_Tables_number      2
_space_group_name_Hall           '-P 1'
loop_
_symmetry_equiv_pos_site_id
_symmetry_equiv_pos_as_xyz
1 x,y,z
2 -x,-y,-z
_cell_length_a                   8.4943(6)
_cell_length_b                   8.7541(6)
_cell_length_c                   9.0536(7)
_cell_angle_alpha                84.814(6)
_cell_angle_beta                 68.864(6)
_cell_angle_gamma                82.267(6)
_cell_volume                     621.586
loop_
_atom_site_label
_atom_site_type_symbol
_atom_site_fract_x
_atom_site_fract_y
_atom_site_fract_z
Co1 Co 1.0000 0.5000 0.5000
O1 O 1.05162(17) 0.38113(14) 0.68684(15)
O2 O 1.18216(16) 0.35885(14) 0.31930(14)
O3 O 1.32903(18) 0.16662(18) 0.16585(18)
O4 O 1.1781(2) -0.00469(18) 0.80670(18)
O6 O 1.0111(2) -0.19406(18) 0.87504(16)
C1 C 1.1172(2) 0.06916(18) 0.53479(19)
H1 H 1.1960 0.1164 0.5591
N1 N 1.20698(17) 0.60616(15) 0.50341(16)
N2 N 1.1723(2) 0.3943(2) 0.8673(2)
C2 C 1.0945(2) 0.10805(17) 0.39143(19)
C3 C 1.0257(2) -0.03830(18) 0.64357(18)
C4 C 1.1503(2) 0.43929(19) 0.73396(19)
C5 C 1.2507(2) 0.56292(18) 0.63046(19)
C6 C 1.0676(2) -0.08622(19) 0.78868(19)
C7 C 1.4244(2) 0.7741(2) 0.4164(2)
H2 H 1.4836 0.8448 0.3406
C8 C 1.2091(2) 0.21992(19) 0.28049(19)
C9 C 1.3789(2) 0.6238(2) 0.6576(2)
H3 H 1.4062 0.5929 0.7473
C10 C 1.4657(2) 0.7319(3) 0.5485(3)
H4 H 1.5518 0.7757 0.5645
C11 C 1.2928(2) 0.7096(2) 0.3980(2)
H5 H 1.2633 0.7393 0.3093
H6 H 1.113(4) 0.326(3) 0.927(3)
H7 H 1.233(4) 0.445(4) 0.905(4)
H12 H 1.207(4) -0.045(4) 0.878(4)
Co1_2 Co 1.0000 -0.5000 0.5000
O1A O 0.94838(17) 0.61887(14) 0.31316(15)
O2A O 0.81784(16) -0.35885(14) 0.68070(14)
O2A_2 O 0.81784(16) 0.64115(14) 0.68070(14)
O3A O 0.67097(18) -0.16662(18) 0.83415(18)
O4A O 0.8219(2) 0.00469(18) 0.19330(18)
O6A O 0.9889(2) 0.19406(18) 0.12496(16)
C1A C 0.8828(2) -0.06916(18) 0.46521(19)
H1A H 0.8040 -0.1164 0.4409
N1A N 0.79302(17) 0.39384(15) 0.49659(16)
N2A N 0.8277(2) 0.6057(2) 0.1327(2)
C2A C 0.9055(2) -0.10805(17) 0.60857(19)
C3A C 0.9743(2) 0.03830(18) 0.35643(18)
C4A C 0.8497(2) 0.56071(19) 0.26604(19)
C5A C 0.7493(2) 0.43708(18) 0.36954(19)
C6A C 0.9324(2) 0.08622(19) 0.21132(19)
C7A C 0.5756(2) 0.2259(2) 0.5836(2)
H2A H 0.5164 0.1552 0.6594
C8A C 0.7909(2) -0.21992(19) 0.71951(19)
C9A C 0.6211(2) 0.3762(2) 0.3424(2)
H3A H 0.5938 0.4071 0.2527
C10A C 0.5343(2) 0.2681(3) 0.4515(3)
H4A H 0.4482 0.2243 0.4355
C11A C 0.7072(2) 0.2904(2) 0.6020(2)
H5A H 0.7367 0.2607 0.6907
H6A H 0.887(4) 0.674(3) 0.073(3)
H7A H 0.767(4) 0.555(4) 0.095(4)
H12A H 0.793(4) 0.045(4) 0.122(4)
O5 O 1.3141(3) -0.1023(3) 1.0213(2)
H8 H 1.409(4) -0.160(5) 0.971(6)
H10 H 1.346(7) -0.029(6) 1.063(8)
O7 O 1.3254(3) 0.5436(2) 1.04582(19)
H9 H 1.280(4) 0.490(3) 1.134(3)
H11 H 1.259(10) 0.629(6) 1.055(8)
loop_
_geom_bond_atom_site_label_1
_geom_bond_atom_site_label_2
_geom_bond_site_symmetry_1
_geom_bond_site_symmetry_2
Co1 O1 1_555 1_555
O1 C4 1_555 1_555
O2 Co1 1_555 1_555
O3 C8 1_555 1_555
O4 C6 1_555 1_555
O5 H8 1_555 1_555
O6 C6 1_555 1_555
O7 H9 1_555 1_555
C1 H1 1_555 1_555
N1 Co1 1_555 1_555
N2 C4 1_555 1_555
C2 C1 1_555 1_555
C3 C1 1_555 1_555
C4 C5 1_555 1_555
C5 N1 1_555 1_555
C6 C3 1_555 1_555
C7 H2 1_555 1_555
C8 O2 1_555 1_555
C9 C5 1_555 1_555
H3 C9 1_555 1_555
C10 C7 1_555 1_555
H4 C10 1_555 1_555
C11 N1 1_555 1_555
H5 C11 1_555 1_555
H6 N2 1_555 1_555
H7 N2 1_555 1_555
H10 O5 1_555 1_555
H11 O7 1_555 1_555
H12 O4 1_555 1_555
Co1_2 O2A 1_555 1_555
O1A Co1 1_555 1_555
O2A C8A 1_555 1_555
O2A_2 Co1 1_555 1_555
O3A C8A 1_555 1_555
O4A C6A 1_555 1_555
O6A C6A 1_555 1_555
C1A H1A 1_555 1_555
N1A Co1 1_555 1_555
N2A C4A 1_555 1_555
C2A C3 1_555 1_555
C3A C2 1_555 1_555
C4A O1A 1_555 1_555
C5A N1A 1_555 1_555
C6A C3A 1_555 1_555
C7A H2A 1_555 1_555
C8A C2A 1_555 1_555
C9A C5A 1_555 1_555
H3A C9A 1_555 1_555
C10A C7A 1_555 1_555
H4A C10A 1_555 1_555
C11A N1A 1_555 1_555
H5A C11A 1_555 1_555
H6A N2A 1_555 1_555
H7A N2A 1_555 1_555
H12A O4A 1_555 1_555
C2 C8 1_555 1_555
C7 C11 1_555 1_555
C9 C10 1_555 1_555
C1A C2A 1_555 1_555
C1A C3A 1_555 1_555
C4A C5A 1_555 1_555
C7A C11A 1_555 1_555
C9A C10A 1_555 1_555

#END
