
#######################################################################
#
#                 Cambridge Crystallographic Data Centre
#                                CCDC 
#
#######################################################################
#
# If this CIF has been generated from an entry in the Cambridge 
# Structural Database, then it will include bibliographic, chemical, 
# crystal, experimental, refinement or atomic coordinate data resulting 
# from the CCDC's data processing and validation procedures.
#
#######################################################################

data_ECUWOQ
_symmetry_cell_setting           monoclinic
_symmetry_space_group_name_H-M   'P 21/c'
_symmetry_Int_Tables_number      14
_space_group_name_Hall           '-P 2ybc'
loop_
_symmetry_equiv_pos_site_id
_symmetry_equiv_pos_as_xyz
1 x,y,z
2 -x,1/2+y,1/2-z
3 -x,-y,-z
4 x,1/2-y,1/2+z
_cell_length_a                   7.4849(3)
_cell_length_b                   29.198(2)
_cell_length_c                   15.5253(7)
_cell_angle_alpha                90
_cell_angle_beta                 102.836(5)
_cell_angle_gamma                90
_cell_volume                     3308.17
loop_
_atom_site_label
_atom_site_type_symbol
_atom_site_fract_x
_atom_site_fract_y
_atom_site_fract_z
Nd1 Nd 0.24393(4) 0.256387(9) 0.037740(18)
Nd2 Nd -0.21578(4) 0.272735(9) 0.131175(17)
O1 O -0.0905(6) 0.34715(13) 0.1874(3)
O2 O 0.0995(5) 0.30770(11) 0.1279(2)
O3 O 0.2959(5) 0.33708(13) -0.0046(2)
O4 O 0.4977(5) 0.31280(12) 0.1113(3)
O5 O 0.5589(5) 0.22209(12) 0.0361(2)
O6 O 0.3616(5) 0.22506(13) -0.0909(2)
O7 O 0.9695(5) 0.22013(11) 0.0755(2)
O8 O 1.1278(5) 0.17451(13) 0.0097(3)
O9 O 0.3415(5) 0.22702(13) 0.1842(2)
O10 O 0.6419(5) 0.23393(12) 0.2341(2)
O11 O 0.7687(5) 0.19196(13) 0.4856(2)
O12 O 0.9844(5) 0.22029(13) 0.4227(2)
O13 O 0.0186(7) 0.2487(2) 0.2594(3)
C1 C 0.2647(8) 0.41110(17) 0.1420(4)
C2 C 0.0988(9) 0.4222(2) 0.0669(4)
H1 H 0.1411 0.4395 0.0204
H2 H 0.0441 0.3931 0.0404
C3 C -0.0489(10) 0.4502(2) 0.0981(5)
H3 H -0.1486 0.4578 0.0465
H4 H -0.102 0.4315 0.1393
C4 C 0.0281(12) 0.4937(3) 0.1435(7)
H5 H -0.0696 0.5104 0.1643
H6 H 0.0722 0.5136 0.1009
C5 C 0.1853(12) 0.4835(2) 0.2214(6)
H7 H 0.1394 0.466 0.2666
H8 H 0.2383 0.5126 0.2485
C6 C 0.3335(9) 0.4558(2) 0.1905(5)
H9 H 0.4319 0.4482 0.2426
H10 H 0.3879 0.4751 0.1507
C7 C 0.2148(8) 0.37630(18) 0.2092(4)
H11 H 0.327 0.3591 0.2366
H12 H 0.177 0.3939 0.2567
C8 C 0.0663(7) 0.34231(17) 0.1728(3)
C9 C 0.4285(8) 0.39318(18) 0.1042(4)
H13 H 0.4476 0.4146 0.0576
H14 H 0.5406 0.3939 0.1521
C10 C 0.4058(7) 0.34563(17) 0.0661(4)
C11 C 0.7148(7) 0.13878(18) -0.0494(3)
C12 C 0.8117(10) 0.1151(2) -0.1158(4)
H15 H 0.7272 0.1143 -0.1748
H16 H 0.9205 0.1333 -0.1209
C13 C 0.8721(12) 0.0661(2) -0.0882(5)
H17 H 0.9229 0.0516 -0.1353
H18 H 0.9705 0.0671 -0.0338
C14 C 0.7141(12) 0.0368(2) -0.0713(6)
H19 H 0.6267 0.0307 -0.1281
H20 H 0.7626 0.007 -0.046
C15 C 0.6137(11) 0.0602(2) -0.0083(5)
H21 H 0.504 0.042 -0.0047
H22 H 0.6948 0.0612 0.0514
C16 C 0.5552(8) 0.10852(19) -0.0379(4)
H23 H 0.4954 0.1227 0.0064
H24 H 0.4636 0.1071 -0.0946
C17 C 0.6394(7) 0.18514(18) -0.0913(3)
H25 H 0.7455 0.205 -0.0936
H26 H 0.5743 0.1791 -0.153
C18 C 0.5114(7) 0.21214(17) -0.0473(3)
C19 C 0.8494(8) 0.14494(17) 0.0414(4)
H27 H 0.7786 0.1534 0.0859
H28 H 0.9105 0.1153 0.0595
C20 C 0.9933(7) 0.18073(17) 0.0414(3)
C21 C 0.6082(7) 0.14240(16) 0.3181(3)
C22 C 0.5869(8) 0.11948(18) 0.2263(3)
H29 H 0.6087 0.1427 0.1833
H30 H 0.6813 0.0953 0.2302
C23 C 0.3989(9) 0.0983(2) 0.1927(4)
H31 H 0.3953 0.0834 0.1351
H32 H 0.3054 0.1229 0.1831
C24 C 0.3517(9) 0.0632(2) 0.2567(4)
H33 H 0.4337 0.0364 0.2597
H34 H 0.2241 0.0526 0.2347
C25 C 0.3722(9) 0.0837(2) 0.3489(4)
H35 H 0.2756 0.1069 0.3478
H36 H 0.3556 0.0592 0.3907
C26 C 0.5599(8) 0.10575(18) 0.3810(4)
H37 H 0.6545 0.0814 0.3895
H38 H 0.5646 0.1201 0.4393
C27 C 0.4772(7) 0.18350(17) 0.3108(3)
H39 H 0.35 0.1718 0.3008
H40 H 0.5035 0.2 0.3679
C28 C 0.4886(7) 0.21724(17) 0.2379(3)
C29 C 0.8100(7) 0.15771(18) 0.3499(3)
H41 H 0.8848 0.13 0.3684
H42 H 0.8504 0.1708 0.2985
C30 C 0.8554(7) 0.19246(17) 0.4252(3)
H43 H 0.007(10) 0.239(2) 0.308(5)
H44 H 0.122(14) 0.247(3) 0.263(6)
Nd1_2 Nd 1.24393(4) 0.256387(9) 0.037740(18)
Nd1C Nd 1.24393(4) 0.243613(9) 0.537740(18)
Nd2_2 Nd 0.78422(4) 0.272735(9) 0.131175(17)
Nd2C Nd 0.78422(4) 0.227265(9) 0.631175(17)
O4_2 O -0.5023(5) 0.31280(12) 0.1113(3)
O5_2 O -0.4411(5) 0.22209(12) 0.0361(2)
O7_2 O -0.0305(5) 0.22013(11) 0.0755(2)
O8_2 O 0.1278(5) 0.17451(13) 0.0097(3)
O10_2 O -0.3581(5) 0.23393(12) 0.2341(2)
O11C O -0.2313(5) 0.30804(13) -0.0144(2)
O12C O -0.0156(5) 0.27971(13) -0.0773(2)
loop_
_geom_bond_atom_site_label_1
_geom_bond_atom_site_label_2
_geom_bond_site_symmetry_1
_geom_bond_site_symmetry_2
Nd1 O2 1_555 1_555
Nd2 O1 1_555 1_555
O1 C8 1_555 1_555
O2 Nd2 1_555 1_555
O3 Nd1 1_555 1_555
O4 Nd1 1_555 1_555
O5 Nd1 1_555 1_555
O6 Nd1 1_555 1_555
O7 C20 1_555 1_555
O8 C20 1_555 1_555
O9 Nd1 1_555 1_555
O10 C28 1_555 1_555
O11 C30 1_555 1_555
O12 C30 1_555 1_555
O13 Nd2 1_555 1_555
C1 C2 1_555 1_555
C2 H1 1_555 1_555
H2 C2 1_555 1_555
C3 C2 1_555 1_555
H3 C3 1_555 1_555
H4 C3 1_555 1_555
C4 C3 1_555 1_555
H5 C4 1_555 1_555
H6 C4 1_555 1_555
C5 C4 1_555 1_555
H7 C5 1_555 1_555
H8 C5 1_555 1_555
C6 C1 1_555 1_555
H9 C6 1_555 1_555
H10 C6 1_555 1_555
C7 C1 1_555 1_555
H11 C7 1_555 1_555
H12 C7 1_555 1_555
C8 O2 1_555 1_555
C9 C1 1_555 1_555
H13 C9 1_555 1_555
H14 C9 1_555 1_555
C10 O3 1_555 1_555
C11 C12 1_555 1_555
C12 H15 1_555 1_555
H16 C12 1_555 1_555
C13 C12 1_555 1_555
H17 C13 1_555 1_555
H18 C13 1_555 1_555
C14 C13 1_555 1_555
H19 C14 1_555 1_555
H20 C14 1_555 1_555
C15 C14 1_555 1_555
H21 C15 1_555 1_555
H22 C15 1_555 1_555
C16 C11 1_555 1_555
H23 C16 1_555 1_555
H24 C16 1_555 1_555
C17 C11 1_555 1_555
H25 C17 1_555 1_555
H26 C17 1_555 1_555
C18 O5 1_555 1_555
C19 C11 1_555 1_555
H27 C19 1_555 1_555
H28 C19 1_555 1_555
C20 C19 1_555 1_555
C21 C22 1_555 1_555
C22 H29 1_555 1_555
H30 C22 1_555 1_555
C23 C22 1_555 1_555
H31 C23 1_555 1_555
H32 C23 1_555 1_555
C24 C23 1_555 1_555
H33 C24 1_555 1_555
H34 C24 1_555 1_555
C25 C24 1_555 1_555
H35 C25 1_555 1_555
H36 C25 1_555 1_555
C26 C21 1_555 1_555
H37 C26 1_555 1_555
H38 C26 1_555 1_555
C27 C21 1_555 1_555
H39 C27 1_555 1_555
H40 C27 1_555 1_555
C28 O9 1_555 1_555
C29 C21 1_555 1_555
H41 C29 1_555 1_555
H42 C29 1_555 1_555
C30 C29 1_555 1_555
H43 O13 1_555 1_555
H44 O13 1_555 1_555
Nd1_2 O7 1_555 1_555
Nd1C O12 1_555 1_555
Nd2_2 O4 1_555 1_555
Nd2C O11 1_555 1_555
O4_2 Nd2 1_555 1_555
O5_2 Nd2 1_555 1_555
O7_2 Nd1 1_555 1_555
O8_2 Nd1 1_555 1_555
O10_2 Nd2 1_555 1_555
O11C Nd2 1_555 1_555
O12C Nd1 1_555 1_555
Nd2 O7_2 1_555 1_555
O4 C10 1_555 1_555
O5 Nd2_2 1_555 1_555
O6 C18 1_555 1_555
O7 Nd2_2 1_555 1_555
O8 Nd1_2 1_555 1_555
O10 Nd2_2 1_555 1_555
C5 C6 1_555 1_555
C7 C8 1_555 1_555
C9 C10 1_555 1_555
C15 C16 1_555 1_555
C17 C18 1_555 1_555
C25 C26 1_555 1_555
C27 C28 1_555 1_555

#END
