
#######################################################################
#
#                 Cambridge Crystallographic Data Centre
#                                CCDC 
#
#######################################################################
#
# If this CIF has been generated from an entry in the Cambridge 
# Structural Database, then it will include bibliographic, chemical, 
# crystal, experimental, refinement or atomic coordinate data resulting 
# from the CCDC's data processing and validation procedures.
#
#######################################################################

data_ECUWIK
_symmetry_cell_setting           triclinic
_symmetry_space_group_name_H-M   'P -1'
_symmetry_Int_Tables_number      2
_space_group_name_Hall           '-P 1'
loop_
_symmetry_equiv_pos_site_id
_symmetry_equiv_pos_as_xyz
1 x,y,z
2 -x,-y,-z
_cell_length_a                   7.3952(4)
_cell_length_b                   14.2173(12)
_cell_length_c                   20.4731(18)
_cell_angle_alpha                103.711(4)
_cell_angle_beta                 92.318(4)
_cell_angle_gamma                91.546(4)
_cell_volume                     2088
loop_
_atom_site_label
_atom_site_type_symbol
_atom_site_fract_x
_atom_site_fract_y
_atom_site_fract_z
Sm1 Sm 0.98163(3) 0.805720(15) 0.757733(11)
Sm2 Sm 0.48967(3) 0.705858(15) 0.716508(10)
C1 C 0.5437(6) 1.0120(3) 0.7741(2)
H1 H 0.5823 1.0723 0.8076
H2 H 0.4389 0.9830 0.7920
O1 O 0.7940(4) 0.6558(2) 0.74685(15)
C2 C 0.8083(6) 0.7024(3) 0.5990(2)
O2 O 0.9469(4) 0.7200(2) 0.63896(15)
O3 O 0.6311(4) 0.5429(2) 0.67638(16)
O4 O 0.5245(4) 0.7939(2) 0.83414(15)
O5 O 0.6486(4) 0.7056(2) 0.61790(15)
O6 O 0.6806(4) 0.8580(2) 0.72808(15)
O7 O 1.1908(4) 0.6844(2) 0.76319(16)
O8 O 1.3902(4) 0.5844(3) 0.7852(2)
O9 O 0.8410(4) 0.9674(2) 0.80347(17)
C3 C 0.6962(6) 0.9427(3) 0.7683(2)
C4 C 1.2339(6) 0.6143(3) 0.7900(2)
C5 C 0.4794(6) 1.0392(3) 0.7083(2)
C6 C 0.7762(6) 0.5689(3) 0.7105(2)
C7 C 0.8329(6) 0.6780(4) 0.5238(2)
H3 H 0.7692 0.6152 0.5032
H4 H 0.9633 0.6705 0.5157
C8 C 1.0890(6) 0.5690(3) 0.8236(2)
H5 H 0.9992 0.6181 0.8408
H6 H 1.1445 0.5485 0.8626
C9 C 0.9904(6) 0.4803(3) 0.7753(2)
C10 C 0.7603(7) 0.7558(4) 0.4892(2)
C11 C 0.9271(6) 0.4997(3) 0.7077(2)
H7 H 1.0321 0.5255 0.6880
H8 H 0.8872 0.4371 0.6769
C12 C 0.3835(6) 0.9539(3) 0.6571(2)
H9 H 0.3280 0.9782 0.6197
H10 H 0.4747 0.9066 0.6380
O10 O 0.8217(4) 0.8047(2) 0.85892(15)
O11 O 0.2809(4) 0.8273(2) 0.70761(17)
O12 O 0.0833(4) 0.9328(2) 0.69484(19)
C13 C 0.2381(6) 0.9028(3) 0.6874(2)
O13 O 0.3649(6) 0.6133(3) 0.4830(2)
C14 C 0.6609(6) 0.8109(3) 0.8759(2)
C15 C 0.6398(7) 1.0803(4) 0.6762(3)
H11 H 0.7482 1.0414 0.6778
H12 H 0.6084 1.0803 0.6288
C16 C 0.4590(7) 0.6604(4) 0.4541(2)
C17 C 0.3604(7) 1.1280(3) 0.7276(3)
H13 H 0.2780 1.1323 0.6892
H14 H 0.2867 1.1236 0.7662
C18 C 0.5517(7) 0.7564(4) 0.4862(2)
H15 H 0.5106 0.7784 0.5326
H16 H 0.5128 0.8042 0.4608
C19 C 1.1143(8) 0.3928(4) 0.7652(3)
H17 H 1.0715 0.3420 0.7252
H18 H 1.2404 0.4130 0.7590
C20 C 0.6229(7) 0.8387(4) 0.9499(2)
H19 H 0.4901 0.8403 0.9544
H20 H 0.6741 0.9050 0.9694
C21 C 0.8331(7) 0.4441(4) 0.8119(3)
H21 H 0.7659 0.4993 0.8371
H22 H 0.7478 0.4003 0.7792
C22 C 0.7017(8) 0.7693(4) 0.9911(2)
C23 C 0.8430(9) 0.7405(5) 0.4193(3)
H23 H 0.8623 0.6710 0.4003
H24 H 0.7616 0.7645 0.3877
C24 C 0.8395(9) 0.8574(4) 0.5261(3)
H25 H 0.7703 0.9091 0.5128
H26 H 0.8373 0.8664 0.5755
O14 O 0.2842(6) 0.6302(3) 0.6198(2)
O15 O 1.1912(6) 0.8781(3) 0.8513(2)
O16 O 0.4891(6) 0.6303(3) 0.39001(19)
C25 C 0.9038(8) 0.7882(5) 1.0060(3)
H27 H 0.9536 0.7334 1.0223
H28 H 0.9621 0.7900 0.9636
C26 C 0.4918(8) 1.2164(4) 0.7467(3)
H29 H 0.4468 1.2692 0.7271
H30 H 0.5040 1.2404 0.7962
C27 C 0.6743(9) 1.1840(4) 0.7187(4)
H31 H 0.7654 1.1855 0.7557
H32 H 0.7186 1.2269 0.6906
C28 C 0.5998(10) 0.7801(7) 1.0565(3)
H33 H 0.6819 0.7703 1.0935
H34 H 0.5496 0.8454 1.0700
C29 C 1.0336(10) 0.8586(6) 0.5038(4)
H35 H 1.1151 0.8294 0.5324
H36 H 1.0781 0.9257 0.5062
C30 C 0.9234(10) 0.3901(5) 0.8597(4)
H37 H 0.8453 0.3343 0.8637
H38 H 0.9455 0.4337 0.9050
C31 C 1.1040(10) 0.3550(5) 0.8293(4)
H39 H 1.2073 0.3816 0.8612
H40 H 1.1059 0.2834 0.8183
C32 C 0.6576(11) 0.6629(5) 0.9545(4)
H41 H 0.6601 0.6540 0.9051
H42 H 0.7450 0.6193 0.9689
C33 C 0.9531(11) 0.8813(6) 1.0576(4)
C34 C 1.0240(11) 0.7985(8) 0.4311(4)
H43 H 1.1259 0.7540 0.4236
H44 H 1.0316 0.8415 0.3996
C35 C 0.473(2) 0.6436(13) 0.9747(7)
H45 H 0.3814 0.6588 0.9424
H46 H 0.4561 0.5744 0.9750
C36 C 0.4497(15) 0.7031(12) 1.0406(6)
H47 H 0.4542 0.6632 1.0742
H48 H 0.3307 0.7336 1.0422
O17 O 1.0714(9) 0.8758(4) 1.1007(3)
O18 O 0.8720(12) 0.9576(5) 1.0630(4)
H49 H 1.173(9) 0.909(5) 0.883(4)
H50 H 1.299(11) 0.856(6) 0.852(4)
H51 H 0.442(11) 0.567(6) 0.373(4)
H52 H 0.180(10) 0.655(5) 0.617(4)
H53 H 0.313(10) 0.630(5) 0.587(4)
H54 H 1.119(18) 0.937(10) 1.135(7)
Sm1_2 Sm -0.01837(3) 0.805720(15) 0.757733(11)
Sm2_2 Sm 1.48967(3) 0.705858(15) 0.716508(10)
O7_2 O 0.1908(4) 0.6844(2) 0.76319(16)
O8_2 O 0.3902(4) 0.5844(3) 0.7852(2)
O11_2 O 1.2809(4) 0.8273(2) 0.70761(17)
O12_2 O 1.0833(4) 0.9328(2) 0.69484(19)
loop_
_geom_bond_atom_site_label_1
_geom_bond_atom_site_label_2
_geom_bond_site_symmetry_1
_geom_bond_site_symmetry_2
Sm1 O1 1_555 1_555
Sm2 O1 1_555 1_555
C1 H1 1_555 1_555
H2 C1 1_555 1_555
O1 C6 1_555 1_555
C2 O2 1_555 1_555
O2 Sm1 1_555 1_555
O3 Sm2 1_555 1_555
O4 Sm2 1_555 1_555
O5 Sm2 1_555 1_555
O6 Sm1 1_555 1_555
O7 Sm1 1_555 1_555
O8 C4 1_555 1_555
O9 Sm1 1_555 1_555
C3 C1 1_555 1_555
C4 O7 1_555 1_555
C5 C1 1_555 1_555
C6 O3 1_555 1_555
C7 C2 1_555 1_555
H3 C7 1_555 1_555
H4 C7 1_555 1_555
C8 C4 1_555 1_555
H5 C8 1_555 1_555
H6 C8 1_555 1_555
C9 C8 1_555 1_555
C10 C7 1_555 1_555
C11 C6 1_555 1_555
H7 C11 1_555 1_555
H8 C11 1_555 1_555
C12 C5 1_555 1_555
H9 C12 1_555 1_555
H10 C12 1_555 1_555
O10 Sm1 1_555 1_555
O11 Sm2 1_555 1_555
O12 C13 1_555 1_555
C13 C12 1_555 1_555
O13 C16 1_555 1_555
C14 O4 1_555 1_555
C15 C5 1_555 1_555
H11 C15 1_555 1_555
H12 C15 1_555 1_555
C16 C18 1_555 1_555
C17 C5 1_555 1_555
H13 C17 1_555 1_555
H14 C17 1_555 1_555
C18 C10 1_555 1_555
H15 C18 1_555 1_555
H16 C18 1_555 1_555
C19 C9 1_555 1_555
H17 C19 1_555 1_555
H18 C19 1_555 1_555
C20 C14 1_555 1_555
H19 C20 1_555 1_555
H20 C20 1_555 1_555
C21 C9 1_555 1_555
H21 C21 1_555 1_555
H22 C21 1_555 1_555
C22 C20 1_555 1_555
C23 C10 1_555 1_555
H23 C23 1_555 1_555
H24 C23 1_555 1_555
C24 C10 1_555 1_555
H25 C24 1_555 1_555
H26 C24 1_555 1_555
O14 Sm2 1_555 1_555
O15 Sm1 1_555 1_555
O16 C16 1_555 1_555
C25 C22 1_555 1_555
H27 C25 1_555 1_555
H28 C25 1_555 1_555
C26 C17 1_555 1_555
H29 C26 1_555 1_555
H30 C26 1_555 1_555
C27 C15 1_555 1_555
H31 C27 1_555 1_555
H32 C27 1_555 1_555
C28 C22 1_555 1_555
H33 C28 1_555 1_555
H34 C28 1_555 1_555
C29 C24 1_555 1_555
H35 C29 1_555 1_555
H36 C29 1_555 1_555
C30 C21 1_555 1_555
H37 C30 1_555 1_555
H38 C30 1_555 1_555
C31 C19 1_555 1_555
H39 C31 1_555 1_555
H40 C31 1_555 1_555
C32 C22 1_555 1_555
H41 C32 1_555 1_555
H42 C32 1_555 1_555
C33 C25 1_555 1_555
C34 C23 1_555 1_555
H43 C34 1_555 1_555
H44 C34 1_555 1_555
C35 C32 1_555 1_555
H45 C35 1_555 1_555
H46 C35 1_555 1_555
C36 C28 1_555 1_555
H47 C36 1_555 1_555
H48 C36 1_555 1_555
O17 C33 1_555 1_555
O18 C33 1_555 1_555
H49 O15 1_555 1_555
H50 O15 1_555 1_555
H51 O16 1_555 1_555
H52 O14 1_555 1_555
H53 O14 1_555 1_555
H54 O17 1_555 1_555
Sm1_2 O11 1_555 1_555
Sm2_2 O7 1_555 1_555
O7_2 Sm2 1_555 1_555
O8_2 Sm2 1_555 1_555
O11_2 Sm1 1_555 1_555
O12_2 Sm1 1_555 1_555
Sm2 O6 1_555 1_555
C2 O5 1_555 1_555
O6 C3 1_555 1_555
O8 Sm2_2 1_555 1_555
O9 C3 1_555 1_555
C9 C11 1_555 1_555
O10 C14 1_555 1_555
O11 C13 1_555 1_555
O12 Sm1_2 1_555 1_555
C26 C27 1_555 1_555
C29 C34 1_555 1_555
C30 C31 1_555 1_555
C35 C36 1_555 1_555
Sm1_2 O7_2 1_555 1_555
Sm2_2 O11_2 1_555 1_555

#END
