
#######################################################################
#
#                 Cambridge Crystallographic Data Centre
#                                CCDC 
#
#######################################################################
#
# If this CIF has been generated from an entry in the Cambridge 
# Structural Database, then it will include bibliographic, chemical, 
# crystal, experimental, refinement or atomic coordinate data resulting 
# from the CCDC's data processing and validation procedures.
#
#######################################################################

data_ECUWUW
_symmetry_cell_setting           triclinic
_symmetry_space_group_name_H-M   'P -1'
_symmetry_Int_Tables_number      2
_space_group_name_Hall           '-P 1'
loop_
_symmetry_equiv_pos_site_id
_symmetry_equiv_pos_as_xyz
1 x,y,z
2 -x,-y,-z
_cell_length_a                   9.979(1)
_cell_length_b                   10.582(1)
_cell_length_c                   12.121(2)
_cell_angle_alpha                101.310(1)
_cell_angle_beta                 111.883(1)
_cell_angle_gamma                107.375(1)
_cell_volume                     1063.05
loop_
_atom_site_label
_atom_site_type_symbol
_atom_site_fract_x
_atom_site_fract_y
_atom_site_fract_z
Zn1 Zn 0.16964(3) 0.27229(2) 0.546324(19)
O1 O 0.37154(17) 0.29560(14) 0.76536(12)
O2 O -0.19493(17) 0.34769(16) 0.74413(13)
O3 O 0.02431(17) 0.21177(14) 0.61599(14)
O4 O 0.26809(17) 0.14129(15) 0.52813(12)
O5 O 0.00672(19) 0.41670(15) 0.63740(16)
C1 C 0.4386(2) 0.39510(19) 0.88422(16)
N1 N 0.01346(18) 0.19548(16) 0.35190(14)
O6 O 0.3912(2) 0.00511(18) 0.58690(16)
N2 N -0.67227(18) -0.52840(16) -0.40782(14)
C2 C 0.4363(2) 0.19503(19) 0.74881(17)
H1 H 0.4199 0.1352 0.7979
H2 H 0.5493 0.2433 0.7791
C3 C -0.4449(2) -0.2507(2) -0.31591(17)
C4 C -0.6044(2) -0.2812(2) -0.36174(19)
H3 H -0.6387 -0.2086 -0.3628
C5 C -0.0930(2) 0.4212(2) 0.87082(18)
C6 C 0.0443(2) 0.4070(2) 0.93959(19)
H4 H 0.0753 0.3450 0.8999
C7 C -0.0334(2) 0.29846(19) 0.64335(16)
C8 C -0.1529(2) -0.0129(2) 0.16794(19)
H5 H -0.1939 -0.1108 0.1333
C9 C 0.3882(2) 0.5032(2) 0.89234(17)
H6 H 0.3125 0.5053 0.8199
C10 C 0.5499(2) 0.3916(2) 0.99210(17)
H7 H 0.5834 0.3185 0.9871
C11 C -0.0505(2) 0.0546(2) 0.29530(18)
H8 H -0.0244 0.0001 0.3445
C12 C -0.0259(2) 0.2706(2) 0.27802(19)
H9 H 0.0173 0.3684 0.3148
C13 C -0.1952(2) 0.0636(2) 0.09125(19)
C14 C -0.5175(2) -0.5001(2) -0.36588(18)
H10 H -0.4865 -0.5748 -0.3682
C15 C -0.1616(3) 0.2412(2) 0.68056(19)
H11 H -0.2578 0.1756 0.6048
H12 H -0.1301 0.1889 0.7355
C16 C -0.4035(2) -0.3653(2) -0.31983(19)
H13 H -0.2978 -0.3505 -0.2910
C17 C -0.3230(2) -0.1017(2) -0.26765(18)
H14 H -0.3768 -0.0416 -0.2924
H15 H -0.2555 -0.0996 -0.3084
C18 C -0.1357(2) 0.5144(2) 0.93205(19)
H16 H -0.2275 0.5247 0.8863
C19 C -0.3049(3) -0.0082(3) -0.0496(2)
H17 H -0.3877 -0.0956 -0.0640
H18 H -0.3547 0.0523 -0.0805
C20 C -0.1276(3) 0.2097(2) 0.1500(2)
H19 H -0.1513 0.2663 0.1026
C21 C -0.2184(2) -0.0401(2) -0.12339(19)
H20 H -0.1761 -0.1066 -0.0969
H21 H -0.1298 0.0462 -0.1027
C22 C -0.7129(2) -0.4188(2) -0.40593(19)
H22 H -0.8194 -0.4362 -0.4359
C23 C 0.3577(2) 0.1052(2) 0.60964(18)
Zn1A Zn -0.16964(3) 0.72771(2) 1.453676(19)
Zn1_2 Zn -0.83036(3) -0.72771(2) -0.453676(19)
Zn1A_2 Zn 0.83036(3) 0.72771(2) 1.453676(19)
Zn1_3 Zn 1.16964(3) 1.27229(2) 1.546324(19)
O1A O 0.62846(17) 0.70440(14) 1.23464(12)
O2A O 0.19493(17) 0.65231(16) 1.25587(13)
O3A O -0.02431(17) 0.78823(14) 1.38401(14)
O4A O 0.73191(17) 0.85871(15) 1.47187(12)
O4A_2 O -0.26809(17) 0.85871(15) 1.47187(12)
O5A O -0.00672(19) 0.58330(15) 1.36260(16)
C1A C 0.5614(2) 0.60490(19) 1.11578(16)
N1_2 N 1.01346(18) 1.19548(16) 1.35190(14)
N1A N -0.01346(18) 0.80452(16) 1.64810(14)
O6A O 0.6088(2) 0.99489(18) 1.41310(16)
N2_2 N 0.32773(18) 0.47160(16) 0.59218(14)
N2A N -0.32773(18) 0.52840(16) 1.40782(14)
C2A C 0.5637(2) 0.80497(19) 1.25119(17)
H1A H 0.5801 0.8648 1.2021
H2A H 0.4507 0.7567 1.2209
C3_2 C 0.5551(2) 0.7493(2) 0.68409(17)
C4_2 C 0.3956(2) 0.7188(2) 0.63826(19)
H3_2 H 0.3613 0.7914 0.6372
C5A C 0.0930(2) 0.5788(2) 1.12918(18)
C6A C -0.0443(2) 0.5930(2) 1.06041(19)
H4A H -0.0753 0.6550 1.1001
C7A C 0.0334(2) 0.70154(19) 1.35665(16)
C8_2 C 0.8471(2) 0.9871(2) 1.16794(19)
H5_2 H 0.8061 0.8892 1.1333
C9A C 0.6118(2) 0.4968(2) 1.10766(17)
H6A H 0.6875 0.4947 1.1801
C10A C 0.4501(2) 0.6084(2) 1.00790(17)
H7A H 0.4166 0.6815 1.0129
C11_2 C 0.9495(2) 1.0546(2) 1.29530(18)
H8_2 H 0.9756 1.0001 1.3445
C12_2 C 0.9741(2) 1.2706(2) 1.27802(19)
H9_2 H 1.0173 1.3684 1.3148
C13_2 C 0.8048(2) 1.0636(2) 1.09125(19)
C14_2 C 0.4825(2) 0.4999(2) 0.63412(18)
H10_2 H 0.5135 0.4252 0.6318
C15A C 0.1616(3) 0.7588(2) 1.31944(19)
H11A H 0.2578 0.8244 1.3952
H12A H 0.1301 0.8111 1.2645
C16_2 C 0.5965(2) 0.6347(2) 0.68017(19)
H13_2 H 0.7022 0.6495 0.7090
C17_2 C 0.6770(2) 0.8983(2) 0.73235(18)
H14_2 H 0.6232 0.9584 0.7076
H15_2 H 0.7445 0.9004 0.6916
C18A C 0.1357(2) 0.4856(2) 1.06795(19)
H16A H 0.2275 0.4753 1.1137
C19_2 C 0.6951(3) 0.9918(3) 0.9504(2)
H17_2 H 0.6123 0.9044 0.9360
H18_2 H 0.6453 1.0523 0.9195
C20_2 C 0.8724(3) 1.2097(2) 1.1500(2)
H19_2 H 0.8487 1.2663 1.1026
C21_2 C 0.7816(2) 0.9599(2) 0.87661(19)
H20_2 H 0.8239 0.8934 0.9031
H21_2 H 0.8702 1.0462 0.8973
C22_2 C 0.2871(2) 0.5812(2) 0.59407(19)
H22_2 H 0.1806 0.5638 0.5641
C23A C 0.6423(2) 0.8948(2) 1.39036(18)
loop_
_geom_bond_atom_site_label_1
_geom_bond_atom_site_label_2
_geom_bond_site_symmetry_1
_geom_bond_site_symmetry_2
Zn1 O3 1_555 1_555
O1 C1 1_555 1_555
O2 C5 1_555 1_555
O3 C7 1_555 1_555
O4 Zn1 1_555 1_555
O5 C7 1_555 1_555
C1 C9 1_555 1_555
N1 Zn1 1_555 1_555
O6 C23 1_555 1_555
N2 C14 1_555 1_555
C2 O1 1_555 1_555
H1 C2 1_555 1_555
H2 C2 1_555 1_555
C3 C4 1_555 1_555
C4 H3 1_555 1_555
C5 C6 1_555 1_555
C6 H4 1_555 1_555
C7 C15 1_555 1_555
C8 H5 1_555 1_555
C9 H6 1_555 1_555
C10 C1 1_555 1_555
H7 C10 1_555 1_555
C11 N1 1_555 1_555
H8 C11 1_555 1_555
C12 N1 1_555 1_555
H9 C12 1_555 1_555
C13 C8 1_555 1_555
C14 H10 1_555 1_555
C15 O2 1_555 1_555
H11 C15 1_555 1_555
H12 C15 1_555 1_555
C16 C3 1_555 1_555
H13 C16 1_555 1_555
C17 C3 1_555 1_555
H14 C17 1_555 1_555
H15 C17 1_555 1_555
C18 C5 1_555 1_555
H16 C18 1_555 1_555
C19 C13 1_555 1_555
H17 C19 1_555 1_555
H18 C19 1_555 1_555
C20 C12 1_555 1_555
H19 C20 1_555 1_555
C21 C17 1_555 1_555
H20 C21 1_555 1_555
H21 C21 1_555 1_555
C22 N2 1_555 1_555
H22 C22 1_555 1_555
C23 O4 1_555 1_555
Zn1A O3A 1_555 1_555
Zn1_2 N2 1_555 1_555
Zn1A_2 O4A 1_555 1_555
Zn1_3 N1_2 1_555 1_555
O1A C1A 1_555 1_555
O2A C5A 1_555 1_555
O3A C7A 1_555 1_555
O4A C23A 1_555 1_555
O4A_2 Zn1A 1_555 1_555
O5A C7A 1_555 1_555
C1A C9A 1_555 1_555
N1_2 C11_2 1_555 1_555
N1A Zn1A 1_555 1_555
O6A C23A 1_555 1_555
N2_2 Zn1 1_555 1_555
N2A Zn1A 1_555 1_555
C2A O1A 1_555 1_555
H1A C2A 1_555 1_555
H2A C2A 1_555 1_555
C3_2 C4_2 1_555 1_555
C4_2 H3_2 1_555 1_555
C5A C6A 1_555 1_555
C6A C18 1_555 1_555
H4A C6A 1_555 1_555
C7A C15A 1_555 1_555
C8_2 H5_2 1_555 1_555
C9A C10 1_555 1_555
H6A C9A 1_555 1_555
C10A C9 1_555 1_555
H7A C10A 1_555 1_555
C11_2 C8_2 1_555 1_555
H8_2 C11_2 1_555 1_555
C12_2 N1_2 1_555 1_555
H9_2 C12_2 1_555 1_555
C13_2 C8_2 1_555 1_555
C14_2 N2_2 1_555 1_555
H10_2 C14_2 1_555 1_555
C15A O2A 1_555 1_555
H11A C15A 1_555 1_555
H12A C15A 1_555 1_555
C16_2 C3_2 1_555 1_555
H13_2 C16_2 1_555 1_555
C17_2 C3_2 1_555 1_555
H14_2 C17_2 1_555 1_555
H15_2 C17_2 1_555 1_555
C18A C6 1_555 1_555
H16A C18A 1_555 1_555
C19_2 C13_2 1_555 1_555
H17_2 C19_2 1_555 1_555
H18_2 C19_2 1_555 1_555
C20_2 C12_2 1_555 1_555
H19_2 C20_2 1_555 1_555
C21_2 C17_2 1_555 1_555
H20_2 C21_2 1_555 1_555
H21_2 C21_2 1_555 1_555
C22_2 N2_2 1_555 1_555
H22_2 C22_2 1_555 1_555
C23A C2A 1_555 1_555
C2 C23 1_555 1_555
C4 C22 1_555 1_555
C8 C11 1_555 1_555
C13 C20 1_555 1_555
C14 C16 1_555 1_555
C19 C21 1_555 1_555
C1A C10A 1_555 1_555
C4_2 C22_2 1_555 1_555
C5A C18A 1_555 1_555
C13_2 C20_2 1_555 1_555
C14_2 C16_2 1_555 1_555
C19_2 C21_2 1_555 1_555

#END
