
#######################################################################
#
#                 Cambridge Crystallographic Data Centre
#                                CCDC 
#
#######################################################################
#
# If this CIF has been generated from an entry in the Cambridge 
# Structural Database, then it will include bibliographic, chemical, 
# crystal, experimental, refinement or atomic coordinate data resulting 
# from the CCDC's data processing and validation procedures.
#
#######################################################################

data_ECUWAC
_symmetry_cell_setting           triclinic
_symmetry_space_group_name_H-M   'P -1'
_symmetry_Int_Tables_number      2
_space_group_name_Hall           '-P 1'
loop_
_symmetry_equiv_pos_site_id
_symmetry_equiv_pos_as_xyz
1 x,y,z
2 -x,-y,-z
_cell_length_a                   8.4470(6)
_cell_length_b                   8.7441(6)
_cell_length_c                   9.0369(6)
_cell_angle_alpha                85.355(6)
_cell_angle_beta                 69.124(5)
_cell_angle_gamma                82.565(5)
_cell_volume                     617.979
loop_
_atom_site_label
_atom_site_type_symbol
_atom_site_fract_x
_atom_site_fract_y
_atom_site_fract_z
Ni1 Ni 1.0000 0.5000 1.0000
O1 O 1.04650(17) 0.38022(15) 1.18536(16)
O2 O 1.18151(17) 0.36038(15) 0.81996(15)
O3 O 1.1799(2) -0.00538(19) 1.3078(2)
O4 O 1.3309(2) 0.16634(19) 0.6692(2)
O5 O 1.0105(2) -0.19379(19) 1.37497(18)
N1 N 1.20210(18) 0.60456(17) 1.00375(18)
C1 C 1.1180(2) 0.0690(2) 1.0357(2)
H1 H 1.1978 0.1158 1.0604
N2 N 1.1699(3) 0.3919(2) 1.3657(2)
C2 C 1.2470(2) 0.5615(2) 1.1304(2)
C3 C 1.0943(2) 0.10876(19) 0.8927(2)
C4 C 1.2090(2) 0.2207(2) 0.7827(2)
C5 C 1.4205(3) 0.7719(2) 0.9159(3)
H2 H 1.4798 0.8421 0.8400
C6 C 1.1460(2) 0.4378(2) 1.2332(2)
C7 C 1.0263(2) -0.03861(19) 1.1434(2)
C8 C 1.0682(2) -0.0864(2) 1.2886(2)
C9 C 1.3764(2) 0.6227(3) 1.1572(2)
H3 H 1.4046 0.5924 1.2466
C10 C 1.4632(3) 0.7303(3) 1.0478(3)
H4 H 1.5502 0.7743 1.0634
C11 C 1.2876(2) 0.7075(2) 0.8980(2)
H5 H 1.2569 0.7366 0.8098
H6 H 1.231(4) 0.440(4) 1.406(4)
H7 H 1.113(4) 0.324(4) 1.423(4)
H8 H 1.207(5) -0.043(4) 1.378(4)
Ni1_2 Ni 1.0000 -0.5000 1.0000
O1A O 0.95350(17) 0.61978(15) 0.81464(16)
O2A O 0.81849(17) -0.36038(15) 1.18004(15)
O2A_2 O 0.81849(17) 0.63962(15) 1.18004(15)
O3A O 0.8201(2) 0.00538(19) 0.6922(2)
O4A O 0.6691(2) -0.16634(19) 1.3308(2)
O5A O 0.9895(2) 0.19379(19) 0.62503(18)
N1A N 0.79790(18) 0.39544(17) 0.99625(18)
C1A C 0.8820(2) -0.0690(2) 0.9643(2)
H1A H 0.8022 -0.1158 0.9396
N2A N 0.8301(3) 0.6081(2) 0.6343(2)
C2A C 0.7530(2) 0.4385(2) 0.8696(2)
C3A C 0.9057(2) -0.10876(19) 1.1073(2)
C4A C 0.7910(2) -0.2207(2) 1.2173(2)
C5A C 0.5795(3) 0.2281(2) 1.0841(3)
H2A H 0.5202 0.1579 1.1600
C6A C 0.8540(2) 0.5622(2) 0.7668(2)
C7A C 0.9737(2) 0.03861(19) 0.8566(2)
C8A C 0.9318(2) 0.0864(2) 0.7114(2)
C9A C 0.6236(2) 0.3773(3) 0.8428(2)
H3A H 0.5954 0.4076 0.7534
C10A C 0.5368(3) 0.2697(3) 0.9522(3)
H4A H 0.4498 0.2257 0.9366
C11A C 0.7124(2) 0.2925(2) 1.1020(2)
H5A H 0.7431 0.2634 1.1902
H6A H 0.769(4) 0.560(4) 0.594(4)
H7A H 0.887(4) 0.676(4) 0.577(4)
H8A H 0.793(5) 0.043(4) 0.622(4)
O6 O 1.3150(3) -0.1048(3) 1.5233(2)
H9 H 1.348(8) -0.023(5) 1.545(9)
H10 H 1.408(5) -0.157(6) 1.468(6)
O7 O 1.3249(3) 0.5411(3) 1.5452(2)
H11 H 1.279(4) 0.490(4) 1.630(3)
H12 H 1.279(13) 0.635(3) 1.565(8)
loop_
_geom_bond_atom_site_label_1
_geom_bond_atom_site_label_2
_geom_bond_site_symmetry_1
_geom_bond_site_symmetry_2
Ni1 O1 1_555 1_555
O1 C6 1_555 1_555
O2 Ni1 1_555 1_555
O3 C8 1_555 1_555
O4 C4 1_555 1_555
O5 C8 1_555 1_555
N1 Ni1 1_555 1_555
C1 H1 1_555 1_555
N2 C6 1_555 1_555
C2 N1 1_555 1_555
C3 C1 1_555 1_555
C4 O2 1_555 1_555
C5 H2 1_555 1_555
C6 C2 1_555 1_555
C7 C1 1_555 1_555
C8 C7 1_555 1_555
C9 C2 1_555 1_555
H3 C9 1_555 1_555
C10 C5 1_555 1_555
H4 C10 1_555 1_555
C11 N1 1_555 1_555
H5 C11 1_555 1_555
H6 N2 1_555 1_555
H7 N2 1_555 1_555
H8 O3 1_555 1_555
O6 H9 1_555 1_555
H10 O6 1_555 1_555
O7 H11 1_555 1_555
H12 O7 1_555 1_555
Ni1_2 O2A 1_555 1_555
O1A Ni1 1_555 1_555
O2A C4A 1_555 1_555
O2A_2 Ni1 1_555 1_555
O3A C8A 1_555 1_555
O4A C4A 1_555 1_555
O5A C8A 1_555 1_555
N1A Ni1 1_555 1_555
C1A H1A 1_555 1_555
N2A C6A 1_555 1_555
C2A N1A 1_555 1_555
C3A C7 1_555 1_555
C4A C3A 1_555 1_555
C5A H2A 1_555 1_555
C6A O1A 1_555 1_555
C7A C3 1_555 1_555
C8A C7A 1_555 1_555
C9A C2A 1_555 1_555
H3A C9A 1_555 1_555
C10A C5A 1_555 1_555
H4A C10A 1_555 1_555
C11A N1A 1_555 1_555
H5A C11A 1_555 1_555
H6A N2A 1_555 1_555
H7A N2A 1_555 1_555
H8A O3A 1_555 1_555
C3 C4 1_555 1_555
C5 C11 1_555 1_555
C9 C10 1_555 1_555
C1A C3A 1_555 1_555
C1A C7A 1_555 1_555
C2A C6A 1_555 1_555
C5A C11A 1_555 1_555
C9A C10A 1_555 1_555

#END
