
#######################################################################
#
#                 Cambridge Crystallographic Data Centre
#                                CCDC 
#
#######################################################################
#
# If this CIF has been generated from an entry in the Cambridge 
# Structural Database, then it will include bibliographic, chemical, 
# crystal, experimental, refinement or atomic coordinate data resulting 
# from the CCDC's data processing and validation procedures.
#
#######################################################################

data_ECUXOR
_symmetry_cell_setting           monoclinic
_symmetry_space_group_name_H-M   'P 21/c'
_symmetry_Int_Tables_number      14
_space_group_name_Hall           '-P 2ybc'
loop_
_symmetry_equiv_pos_site_id
_symmetry_equiv_pos_as_xyz
1 x,y,z
2 -x,1/2+y,1/2-z
3 -x,-y,-z
4 x,1/2-y,1/2+z
_cell_length_a                   12.9812(9)
_cell_length_b                   7.0377(3)
_cell_length_c                   16.3973(12)
_cell_angle_alpha                90
_cell_angle_beta                 109.175(5)
_cell_angle_gamma                90
_cell_volume                     1414.91
loop_
_atom_site_label
_atom_site_type_symbol
_atom_site_fract_x
_atom_site_fract_y
_atom_site_fract_z
C1 C 0.91439(13) 0.4922(3) 0.86136(11)
C2 C 0.81875(14) 0.4293(3) 0.86472(12)
C3 C 1.0181(2) 0.3853(4) 0.8853(2)
C4 C 0.71933(12) 0.5387(2) 0.82736(10)
C5 C 0.60060(12) 0.5623(2) 0.42582(9)
C6 C 0.66978(14) 0.4300(2) 0.48758(10)
C7 C 0.74202(13) 0.4896(2) 0.56114(11)
C8 C 0.8283(2) 0.3777(4) 0.62448(19)
Ca1 Ca 0.52250(2) 0.76963(4) 0.725816(18)
N1 N 0.72252(11) 0.7175(2) 0.80144(10)
N2 N 0.58654(12) 0.74056(19) 0.44825(8)
O1 O 0.83616(13) 0.9648(2) 0.76852(11)
O2 O 0.86435(12) 0.8900(2) 0.91892(10)
O3 O 0.92394(10) 0.6703(2) 0.82904(9)
O4 O 0.67246(12) 0.99315(17) 0.55276(8)
O5 O 0.56833(11) 0.75008(18) 0.59462(8)
O6 O 0.74669(10) 0.67923(17) 0.58489(8)
O7 O 0.62673(10) 0.46577(19) 0.81269(9)
O8 O 0.55643(10) 0.51366(16) 0.34781(7)
O9 O 0.41693(12) 0.60081(17) 0.80586(9)
S1 S 0.83448(3) 0.82855(6) 0.83196(3)
S2 S 0.63735(3) 0.80171(5) 0.54559(2)
H1 H 0.8113(18) 0.304(3) 0.8851(14)
H2 H 1.012(3) 0.258(5) 0.905(2)
H3 H 1.069(3) 0.455(5) 0.929(2)
H4 H 1.041(3) 0.380(5) 0.840(2)
H5 H 0.6702(18) 0.303(3) 0.4753(14)
H6 H 0.828(3) 0.253(5) 0.608(2)
H7 H 0.818(3) 0.389(6) 0.682(3)
H8 H 0.890(3) 0.425(5) 0.628(2)
H9 H 0.349(3) 0.610(5) 0.7969(19)
H10 H 0.447(2) 0.629(4) 0.858(2)
Ca1A Ca 0.47750(2) 0.26963(4) 0.774184(18)
Ca1B Ca 0.47750(2) 0.23037(4) 0.274184(18)
Ca1C Ca 0.52250(2) 0.73037(4) 0.225816(18)
O7A O 0.37327(10) 0.96577(19) 0.68731(9)
O8B O 0.44357(10) 0.48634(16) 0.65219(7)
O8C O 0.55643(10) 0.98634(16) 0.84781(7)
O9A O 0.58307(12) 1.10081(17) 0.69414(9)
H9A H 0.651(3) 1.110(5) 0.7031(19)
H10A H 0.553(2) 1.129(4) 0.642(2)
loop_
_geom_bond_atom_site_label_1
_geom_bond_atom_site_label_2
_geom_bond_site_symmetry_1
_geom_bond_site_symmetry_2
C1 C2 1_555 1_555
C2 C4 1_555 1_555
C3 C1 1_555 1_555
C4 N1 1_555 1_555
C5 C6 1_555 1_555
C6 C7 1_555 1_555
C7 C8 1_555 1_555
C8 H6 1_555 1_555
Ca1 N1 1_555 1_555
N1 S1 1_555 1_555
N2 C5 1_555 1_555
O1 S1 1_555 1_555
O2 S1 1_555 1_555
O3 C1 1_555 1_555
O4 S2 1_555 1_555
O5 Ca1 1_555 1_555
O6 C7 1_555 1_555
O7 C4 1_555 1_555
O8 C5 1_555 1_555
O9 Ca1 1_555 1_555
S1 O3 1_555 1_555
S2 N2 1_555 1_555
H1 C2 1_555 1_555
H2 C3 1_555 1_555
H3 C3 1_555 1_555
H4 C3 1_555 1_555
H5 C6 1_555 1_555
H7 C8 1_555 1_555
H8 C8 1_555 1_555
H9 O9 1_555 1_555
H10 O9 1_555 1_555
Ca1A O7 1_555 1_555
Ca1B O8 1_555 1_555
Ca1C O8 1_555 1_555
O7A Ca1 1_555 1_555
O8B Ca1 1_555 1_555
O8C Ca1 1_555 1_555
O9A Ca1 1_555 1_555
H9A O9A 1_555 1_555
H10A O9A 1_555 1_555
Ca1 O7 1_555 1_555
O5 S2 1_555 1_555
O6 S2 1_555 1_555
O9 Ca1A 1_555 1_555
Ca1A O8B 1_555 1_555

#END
