
#######################################################################
#
#                 Cambridge Crystallographic Data Centre
#                                CCDC 
#
#######################################################################
#
# If this CIF has been generated from an entry in the Cambridge 
# Structural Database, then it will include bibliographic, chemical, 
# crystal, experimental, refinement or atomic coordinate data resulting 
# from the CCDC's data processing and validation procedures.
#
#######################################################################

data_ECUXEG
_symmetry_cell_setting           monoclinic
_symmetry_space_group_name_H-M   'P 21'
_symmetry_Int_Tables_number      4
_space_group_name_Hall           'P 2yb'
loop_
_symmetry_equiv_pos_site_id
_symmetry_equiv_pos_as_xyz
1 x,y,z
2 -x,1/2+y,-z
_cell_length_a                   4.977(3)
_cell_length_b                   10.479(5)
_cell_length_c                   16.965(5)
_cell_angle_alpha                90
_cell_angle_beta                 91.65(4)
_cell_angle_gamma                90
_cell_volume                     884.425
loop_
_atom_site_label
_atom_site_type_symbol
_atom_site_fract_x
_atom_site_fract_y
_atom_site_fract_z
Cu1 Cu 0.02417(16) -0.00021(9) 0.80073(5)
S1 S -0.0483(9) -0.5655(3) 0.7618(2)
O1 O -0.2822(10) -0.0502(6) 0.8639(3)
N1 N 0.1259(13) 0.1318(7) 0.8778(4)
C1 C -0.3442(16) -0.1973(8) 0.7570(5)
H1 H -0.4918 -0.2081 0.7180
C2 C 0.3190(18) 0.2190(9) 0.8720(5)
H2 H 0.4332 0.2253 0.8297
C3 C 0.2911(16) 0.0370(7) 0.6513(5)
N2 N 0.3272(14) 0.2957(7) 0.9342(4)
C4 C 0.495(2) 0.4104(10) 0.9438(5)
H3 H 0.4638 0.4483 0.9943
H4 H 0.4486 0.4704 0.9029
H5 H 0.6807 0.3874 0.9406
C5 C 0.1245(19) 0.2598(9) 0.9819(5)
H6 H 0.0766 0.2982 1.0289
C6 C 0.0091(18) 0.1586(10) 0.9474(5)
H7 H -0.1322 0.1126 0.9681
C7 C 0.164(2) -0.0843(11) 0.5322(5)
H8 H 0.0562 -0.1449 0.5068
C8 C 0.357(2) -0.0224(14) 0.4913(5)
H9 H 0.3830 -0.0429 0.4388
C9 C 0.4808(19) 0.1000(10) 0.6055(6)
H10 H 0.5874 0.1633 0.6288
C10 C -0.234(2) -0.3285(10) 0.7859(6)
H11 H -0.0859 -0.3145 0.8235
H12 H -0.3741 -0.3737 0.8130
C11 C 0.513(2) 0.0711(13) 0.5279(6)
H13 H 0.6416 0.1144 0.4994
O2 O 0.2736(12) 0.0655(6) 0.7262(3)
N3 N -0.1282(12) -0.1213(6) 0.7252(4)
C12 C -0.141(4) -0.4071(13) 0.7213(7)
H14 H 0.0137 -0.3677 0.6976
H15 H -0.2821 -0.4159 0.6810
C13 C 0.1267(19) -0.0571(9) 0.6134(5)
C14 C -0.4417(15) -0.1314(8) 0.8320(5)
C15 C -0.0788(16) -0.1264(8) 0.6513(5)
H16 H -0.1863 -0.1798 0.6200
C16 C 0.137(3) -0.6225(17) 0.6843(9)
H17 H 0.2039 -0.7062 0.6970
H18 H 0.2852 -0.5662 0.6756
H19 H 0.0243 -0.6268 0.6375
O3 O -0.6619(12) -0.1618(7) 0.8578(4)
Cu1_2 Cu -0.97583(16) -0.00021(9) 0.80073(5)
O3_2 O 0.3381(12) -0.1618(7) 0.8578(4)
loop_
_geom_bond_atom_site_label_1
_geom_bond_atom_site_label_2
_geom_bond_site_symmetry_1
_geom_bond_site_symmetry_2
Cu1 O1 1_555 1_555
S1 C12 1_555 1_555
O1 C14 1_555 1_555
N1 Cu1 1_555 1_555
C1 H1 1_555 1_555
C2 N1 1_555 1_555
H2 C2 1_555 1_555
C3 C9 1_555 1_555
N2 C2 1_555 1_555
C4 N2 1_555 1_555
H3 C4 1_555 1_555
H4 C4 1_555 1_555
H5 C4 1_555 1_555
C5 N2 1_555 1_555
H6 C5 1_555 1_555
C6 N1 1_555 1_555
H7 C6 1_555 1_555
C7 H8 1_555 1_555
C8 C7 1_555 1_555
H9 C8 1_555 1_555
C9 H10 1_555 1_555
C10 C1 1_555 1_555
H11 C10 1_555 1_555
H12 C10 1_555 1_555
C11 C8 1_555 1_555
H13 C11 1_555 1_555
O2 Cu1 1_555 1_555
N3 Cu1 1_555 1_555
C12 C10 1_555 1_555
H14 C12 1_555 1_555
H15 C12 1_555 1_555
C13 C3 1_555 1_555
C14 C1 1_555 1_555
C15 N3 1_555 1_555
H16 C15 1_555 1_555
C16 S1 1_555 1_555
H17 C16 1_555 1_555
H18 C16 1_555 1_555
H19 C16 1_555 1_555
O3 C14 1_555 1_555
Cu1_2 O3 1_555 1_555
O3_2 Cu1 1_555 1_555
C1 N3 1_555 1_555
C3 O2 1_555 1_555
C5 C6 1_555 1_555
C7 C13 1_555 1_555
C9 C11 1_555 1_555
C13 C15 1_555 1_555

#END
