
#######################################################################
#
#                 Cambridge Crystallographic Data Centre
#                                CCDC 
#
#######################################################################
#
# If this CIF has been generated from an entry in the Cambridge 
# Structural Database, then it will include bibliographic, chemical, 
# crystal, experimental, refinement or atomic coordinate data resulting 
# from the CCDC's data processing and validation procedures.
#
#######################################################################

data_ECUYUY
_symmetry_cell_setting           monoclinic
_symmetry_space_group_name_H-M   'P 21/c'
_symmetry_Int_Tables_number      14
_space_group_name_Hall           '-P 2ybc'
loop_
_symmetry_equiv_pos_site_id
_symmetry_equiv_pos_as_xyz
1 x,y,z
2 -x,1/2+y,1/2-z
3 -x,-y,-z
4 x,1/2-y,1/2+z
_cell_length_a                   11.3055(7)
_cell_length_b                   15.3143(9)
_cell_length_c                   13.6514(9)
_cell_angle_alpha                90
_cell_angle_beta                 110.9460(10)
_cell_angle_gamma                90
_cell_volume                     2207.36
loop_
_atom_site_label
_atom_site_type_symbol
_atom_site_fract_x
_atom_site_fract_y
_atom_site_fract_z
Cu1 Cu 0.29221(4) 0.62558(2) 0.33761(3)
Cu2 Cu 0.18403(4) 0.32333(2) 0.14504(3)
O1 O 0.5127(2) 0.61143(15) 0.41821(18)
H1 H 0.5527 0.6426 0.3821
O2 O 0.1831(2) 0.37626(13) 0.28069(16)
O3 O 0.2827(2) 0.57425(14) 0.19913(17)
O4 O -0.0262(2) 0.33734(17) 0.04541(19)
H2 H -0.0716 0.3091 0.0817
N1 N 0.3079(3) 0.64216(16) 0.48943(19)
H3 H 0.2982 0.6976 0.4989
N2 N 0.2245(3) 0.51421(16) 0.3555(2)
N3 N 0.2464(3) 0.43611(16) 0.1257(2)
N4 N 0.1896(3) 0.30257(19) -0.0024(2)
H4 H 0.2116 0.2522 -0.0038
C1 C 0.5305(3) 0.6566(2) 0.5138(3)
H5 H 0.5153 0.7185 0.5005
H6 H 0.6166 0.6487 0.5625
C2 C 0.4377(3) 0.6190(2) 0.5589(3)
H7 H 0.4467 0.5560 0.5643
H8 H 0.4543 0.6424 0.6286
C3 C 0.2046(3) 0.5880(2) 0.5013(3)
H9 H 0.1237 0.6165 0.4668
H10 H 0.2173 0.5818 0.5751
C4 C 0.2037(3) 0.4987(2) 0.4534(2)
H11 H 0.2704 0.4623 0.5000
H12 H 0.1230 0.4699 0.4401
C5 C 0.2150(3) 0.4563(2) 0.2841(2)
C6 C 0.2507(3) 0.4940(2) 0.1953(2)
C7 C 0.2736(4) 0.4517(2) 0.0308(3)
H13 H 0.3504 0.4859 0.0463
H14 H 0.2043 0.4828 -0.0206
C8 C 0.2901(4) 0.3621(2) -0.0102(3)
H15 H 0.2841 0.3666 -0.0827
H16 H 0.3729 0.3389 0.0306
C9 C 0.0632(4) 0.3170(3) -0.0841(3)
H17 H 0.0570 0.2849 -0.1470
H18 H 0.0521 0.3786 -0.1017
C10 C -0.0377(4) 0.2874(3) -0.0453(3)
H19 H -0.1205 0.2962 -0.0989
H20 H -0.0276 0.2257 -0.0280
O5 O 0.3207(2) 0.74549(13) 0.30423(17)
O6 O 0.1415(2) 0.76828(14) 0.33049(19)
O7 O 0.1635(2) 1.20288(14) 0.18112(18)
O8 O 0.3643(2) 1.18908(15) 0.1989(2)
C11 C 0.2339(3) 0.7952(2) 0.3102(2)
C12 C 0.2432(3) 0.89059(19) 0.2861(2)
C13 C 0.1353(3) 0.9420(2) 0.2546(2)
H21 H 0.0584 0.9185 0.2522
C14 C 0.1419(3) 1.0282(2) 0.2266(2)
H22 H 0.0690 1.0622 0.2046
C15 C 0.2568(3) 1.06429(19) 0.2312(2)
C16 C 0.3647(3) 1.0126(2) 0.2646(2)
H23 H 0.4421 1.0363 0.2688
C17 C 0.3582(3) 0.9264(2) 0.2916(2)
H24 H 0.4310 0.8922 0.3134
C18 C 0.2635(3) 1.1585(2) 0.2012(2)
Cu2_2 Cu 0.18403(4) 1.32333(2) 0.14504(3)
O7_2 O 0.1635(2) 0.20288(14) 0.18112(18)
O9 O 0.3960(3) 0.68121(19) 0.0916(3)
H25 H 0.3463 0.6401 0.1152
H26 H 0.4627 0.7061 0.1533
loop_
_geom_bond_atom_site_label_1
_geom_bond_atom_site_label_2
_geom_bond_site_symmetry_1
_geom_bond_site_symmetry_2
Cu1 O1 1_555 1_555
Cu2 O2 1_555 1_555
O1 H1 1_555 1_555
O2 C5 1_555 1_555
O3 Cu1 1_555 1_555
O4 Cu2 1_555 1_555
H2 O4 1_555 1_555
N1 Cu1 1_555 1_555
H3 N1 1_555 1_555
N2 Cu1 1_555 1_555
N3 Cu2 1_555 1_555
N4 Cu2 1_555 1_555
H4 N4 1_555 1_555
C1 O1 1_555 1_555
H5 C1 1_555 1_555
H6 C1 1_555 1_555
C2 N1 1_555 1_555
H7 C2 1_555 1_555
H8 C2 1_555 1_555
C3 N1 1_555 1_555
H9 C3 1_555 1_555
H10 C3 1_555 1_555
C4 N2 1_555 1_555
H11 C4 1_555 1_555
H12 C4 1_555 1_555
C5 N2 1_555 1_555
C6 O3 1_555 1_555
C7 N3 1_555 1_555
H13 C7 1_555 1_555
H14 C7 1_555 1_555
C8 N4 1_555 1_555
H15 C8 1_555 1_555
H16 C8 1_555 1_555
C9 N4 1_555 1_555
H17 C9 1_555 1_555
H18 C9 1_555 1_555
C10 O4 1_555 1_555
H19 C10 1_555 1_555
H20 C10 1_555 1_555
O5 Cu1 1_555 1_555
O6 C11 1_555 1_555
O7 C18 1_555 1_555
O8 C18 1_555 1_555
C11 O5 1_555 1_555
C12 C11 1_555 1_555
C13 C12 1_555 1_555
H21 C13 1_555 1_555
C14 C13 1_555 1_555
H22 C14 1_555 1_555
C15 C14 1_555 1_555
C16 C15 1_555 1_555
H23 C16 1_555 1_555
C17 C12 1_555 1_555
H24 C17 1_555 1_555
C18 C15 1_555 1_555
O9 H25 1_555 1_555
H26 O9 1_555 1_555
Cu2_2 O7 1_555 1_555
O7_2 Cu2 1_555 1_555
N3 C6 1_555 1_555
C1 C2 1_555 1_555
C3 C4 1_555 1_555
C5 C6 1_555 1_555
C7 C8 1_555 1_555
C9 C10 1_555 1_555
C16 C17 1_555 1_555

#END
