
#######################################################################
#
#                 Cambridge Crystallographic Data Centre
#                                CCDC 
#
#######################################################################
#
# If this CIF has been generated from an entry in the Cambridge 
# Structural Database, then it will include bibliographic, chemical, 
# crystal, experimental, refinement or atomic coordinate data resulting 
# from the CCDC's data processing and validation procedures.
#
#######################################################################

data_ECUYEI
_symmetry_cell_setting           triclinic
_symmetry_space_group_name_H-M   'P -1'
_symmetry_Int_Tables_number      2
_space_group_name_Hall           '-P 1'
loop_
_symmetry_equiv_pos_site_id
_symmetry_equiv_pos_as_xyz
1 x,y,z
2 -x,-y,-z
_cell_length_a                   12.0280(11)
_cell_length_b                   12.7180(12)
_cell_length_c                   18.2995(17)
_cell_angle_alpha                71.151(1)
_cell_angle_beta                 84.796(1)
_cell_angle_gamma                77.298(1)
_cell_volume                     2583.77
loop_
_atom_site_label
_atom_site_type_symbol
_atom_site_fract_x
_atom_site_fract_y
_atom_site_fract_z
Sn1 Sn 0.20213(2) 0.09858(2) 0.145170(13)
Sn2 Sn 0.44848(2) -0.43229(2) 0.649636(13)
C1 C 0.3718(3) 0.0159(3) 0.1278(2)
C2 C 0.3909(4) -0.0833(3) 0.1091(3)
H1 H 0.3279 -0.1147 0.1049
C3 C 0.5004(4) -0.1383(4) 0.0964(3)
H2 H 0.5120 -0.2064 0.0832
C4 C 0.5922(4) -0.0940(4) 0.1027(3)
H3 H 0.6673 -0.1308 0.0934
C5 C 0.5749(3) 0.0031(4) 0.1226(2)
H4 H 0.6383 0.0327 0.1286
C6 C 0.4657(3) 0.0583(3) 0.1341(2)
H5 H 0.4549 0.1269 0.1466
C7 C 0.1683(3) 0.2270(3) 0.1991(2)
C8 C 0.2416(3) 0.2277(3) 0.2543(2)
H6 H 0.3077 0.1692 0.2678
C9 C 0.2196(4) 0.3114(3) 0.2893(2)
H7 H 0.2712 0.3108 0.3259
C10 C 0.1233(4) 0.3963(4) 0.2715(3)
H8 H 0.1079 0.4536 0.2959
C11 C 0.0493(4) 0.3970(4) 0.2177(3)
H9 H -0.0172 0.4551 0.2055
C12 C 0.0710(3) 0.3138(3) 0.1814(2)
H10 H 0.0195 0.3158 0.1444
C13 C 0.0734(3) 0.0074(3) 0.14628(19)
C14 C 0.0731(3) -0.0478(3) 0.0920(2)
H11 H 0.1291 -0.0412 0.0516
C15 C -0.0078(3) -0.1125(3) 0.0961(2)
H12 H -0.0071 -0.1496 0.0585
C16 C -0.0893(3) -0.1229(3) 0.1548(2)
H13 H -0.1441 -0.1679 0.1579
C17 C -0.0912(3) -0.0679(3) 0.2089(2)
H14 H -0.1477 -0.0746 0.2490
C18 C -0.0108(3) -0.0030(3) 0.2047(2)
H15 H -0.0128 0.0350 0.2420
O1 O 0.1651(2) 0.2066(2) 0.02863(14)
O2 O 0.3141(2) 0.2826(2) 0.03217(13)
C19 C 0.2324(3) 0.2771(3) -0.0014(2)
C20 C 0.1994(3) 0.3531(3) -0.0811(2)
H16 H 0.1255 0.3531 -0.0955
C21 C 0.2571(3) 0.4214(3) -0.1357(2)
H17 H 0.2151 0.4618 -0.1813
C22 C 0.3732(3) 0.4467(3) -0.1392(2)
O3 O 0.4122(2) 0.4965(2) -0.20298(14)
N1 N 0.4297(2) 0.4168(2) -0.07338(16)
H18 H 0.3979 0.3747 -0.0298
C23 C 0.5428(3) 0.4294(3) -0.06847(19)
C24 C 0.5827(3) 0.5247(3) -0.1140(2)
H19 H 0.5340 0.5837 -0.1504
C25 C 0.6923(4) 0.5340(4) -0.1068(2)
H20 H 0.7189 0.5996 -0.1381
C26 C 0.7647(4) 0.4485(4) -0.0541(2)
H21 H 0.8409 0.4547 -0.0497
C27 C 0.7246(3) 0.3547(3) -0.0083(2)
C28 C 0.8008(3) 0.2650(4) 0.0514(2)
F1 F 0.9111(2) 0.2609(2) 0.03326(15)
F2 F 0.7825(2) 0.1624(2) 0.06335(18)
F3 F 0.7879(2) 0.2847(3) 0.11961(14)
C29 C 0.6136(3) 0.3446(3) -0.0146(2)
H22 H 0.5864 0.2800 0.0178
C30 C 0.3169(3) -0.5213(3) 0.6539(2)
C31 C 0.2101(3) -0.4721(4) 0.6224(2)
H23 H 0.1916 -0.3927 0.5969
C32 C 0.1295(4) -0.5384(4) 0.6279(3)
H24 H 0.0566 -0.5041 0.6060
C33 C 0.1553(4) -0.6538(4) 0.6651(3)
H25 H 0.1006 -0.6989 0.6684
C34 C 0.2601(4) -0.7030(4) 0.6972(3)
H26 H 0.2777 -0.7824 0.7230
C35 C 0.3403(3) -0.6381(3) 0.6924(2)
H27 H 0.4123 -0.6732 0.7155
C36 C 0.4333(3) -0.2737(3) 0.6697(2)
C37 C 0.4949(3) -0.1957(3) 0.6218(2)
H28 H 0.5422 -0.2142 0.5814
C38 C 0.4877(3) -0.0914(3) 0.6325(2)
H29 H 0.5299 -0.0390 0.5993
C39 C 0.4197(4) -0.0630(3) 0.6909(2)
H30 H 0.4151 0.0086 0.6981
C40 C 0.3585(4) -0.1391(3) 0.7387(2)
H31 H 0.3112 -0.1198 0.7788
C41 C 0.3657(3) -0.2441(3) 0.7286(2)
H32 H 0.3238 -0.2964 0.7624
C42 C 0.6144(3) -0.5403(3) 0.6641(2)
C43 C 0.6509(3) -0.6179(3) 0.7349(2)
H33 H 0.6026 -0.6225 0.7794
C44 C 0.7579(4) -0.6889(4) 0.7408(3)
H34 H 0.7819 -0.7419 0.7894
C45 C 0.8289(3) -0.6832(3) 0.6776(2)
H35 H 0.9018 -0.7323 0.6822
C46 C 0.7946(3) -0.6065(4) 0.6075(2)
H36 H 0.8442 -0.6018 0.5636
C47 C 0.6872(3) -0.5352(3) 0.6003(2)
H37 H 0.6637 -0.4829 0.5513
O4 O 0.4765(2) -0.3656(2) 0.52897(14)
O5 O 0.3032(2) -0.2580(2) 0.52083(14)
C48 C 0.3970(3) -0.2852(3) 0.4913(2)
C49 C 0.4303(3) -0.2299(3) 0.4098(2)
H38 H 0.5069 -0.2572 0.3965
C50 C 0.3719(3) -0.1486(3) 0.3517(2)
H39 H 0.4161 -0.1283 0.3055
C51 C 0.2515(3) -0.0834(3) 0.3446(2)
O6 O 0.2192(2) -0.0188(2) 0.28099(14)
N2 N 0.1840(2) -0.0987(3) 0.40747(16)
H40 H 0.2088 -0.1392 0.4513
C52 C 0.0660(3) -0.0482(3) 0.40766(19)
C53 C 0.0262(3) 0.0679(3) 0.3771(2)
H41 H 0.0778 0.1168 0.3544
C54 C -0.0893(3) 0.1116(3) 0.3799(2)
H42 H -0.1165 0.1911 0.3586
C55 C -0.1659(3) 0.0425(3) 0.4129(2)
H43 H -0.2453 0.0735 0.4139
C56 C -0.1250(3) -0.0735(3) 0.4449(2)
C57 C -0.2082(4) -0.1481(4) 0.4814(3)
F4 F -0.1569(2) -0.2546(2) 0.51912(18)
F5 F -0.2765(3) -0.1560(3) 0.43215(18)
F6 F -0.2747(3) -0.1112(3) 0.5338(2)
C58 C -0.0100(3) -0.1193(3) 0.4419(2)
H44 H 0.0171 -0.1988 0.4631
Sn2_2 Sn 0.44848(2) 0.56771(2) -0.350364(13)
O3_2 O 0.4122(2) -0.5035(2) 0.79702(14)
loop_
_geom_bond_atom_site_label_1
_geom_bond_atom_site_label_2
_geom_bond_site_symmetry_1
_geom_bond_site_symmetry_2
Sn1 C1 1_555 1_555
Sn2 C30 1_555 1_555
C1 C2 1_555 1_555
C2 H1 1_555 1_555
C3 C2 1_555 1_555
H2 C3 1_555 1_555
C4 C3 1_555 1_555
H3 C4 1_555 1_555
C5 C4 1_555 1_555
H4 C5 1_555 1_555
C6 C1 1_555 1_555
H5 C6 1_555 1_555
C7 Sn1 1_555 1_555
C8 C7 1_555 1_555
H6 C8 1_555 1_555
C9 C8 1_555 1_555
H7 C9 1_555 1_555
C10 C9 1_555 1_555
H8 C10 1_555 1_555
C11 C10 1_555 1_555
H9 C11 1_555 1_555
C12 C7 1_555 1_555
H10 C12 1_555 1_555
C13 Sn1 1_555 1_555
C14 C13 1_555 1_555
H11 C14 1_555 1_555
C15 C14 1_555 1_555
H12 C15 1_555 1_555
C16 C15 1_555 1_555
H13 C16 1_555 1_555
C17 C16 1_555 1_555
H14 C17 1_555 1_555
C18 C13 1_555 1_555
H15 C18 1_555 1_555
O1 Sn1 1_555 1_555
O2 C19 1_555 1_555
C19 O1 1_555 1_555
C20 C19 1_555 1_555
H16 C20 1_555 1_555
C21 C20 1_555 1_555
H17 C21 1_555 1_555
C22 C21 1_555 1_555
O3 C22 1_555 1_555
N1 C22 1_555 1_555
H18 N1 1_555 1_555
C23 N1 1_555 1_555
C24 C23 1_555 1_555
H19 C24 1_555 1_555
C25 C24 1_555 1_555
H20 C25 1_555 1_555
C26 C25 1_555 1_555
H21 C26 1_555 1_555
C27 C26 1_555 1_555
C28 C27 1_555 1_555
F1 C28 1_555 1_555
F2 C28 1_555 1_555
F3 C28 1_555 1_555
C29 C23 1_555 1_555
H22 C29 1_555 1_555
C30 C31 1_555 1_555
C31 H23 1_555 1_555
C32 C31 1_555 1_555
H24 C32 1_555 1_555
C33 C32 1_555 1_555
H25 C33 1_555 1_555
C34 C33 1_555 1_555
H26 C34 1_555 1_555
C35 C30 1_555 1_555
H27 C35 1_555 1_555
C36 Sn2 1_555 1_555
C37 C36 1_555 1_555
H28 C37 1_555 1_555
C38 C37 1_555 1_555
H29 C38 1_555 1_555
C39 C38 1_555 1_555
H30 C39 1_555 1_555
C40 C39 1_555 1_555
H31 C40 1_555 1_555
C41 C36 1_555 1_555
H32 C41 1_555 1_555
C42 Sn2 1_555 1_555
C43 C42 1_555 1_555
H33 C43 1_555 1_555
C44 C43 1_555 1_555
H34 C44 1_555 1_555
C45 C44 1_555 1_555
H35 C45 1_555 1_555
C46 C45 1_555 1_555
H36 C46 1_555 1_555
C47 C42 1_555 1_555
H37 C47 1_555 1_555
O4 Sn2 1_555 1_555
O5 C48 1_555 1_555
C48 O4 1_555 1_555
C49 C48 1_555 1_555
H38 C49 1_555 1_555
C50 C49 1_555 1_555
H39 C50 1_555 1_555
C51 C50 1_555 1_555
O6 Sn1 1_555 1_555
N2 C51 1_555 1_555
H40 N2 1_555 1_555
C52 N2 1_555 1_555
C53 C52 1_555 1_555
H41 C53 1_555 1_555
C54 C53 1_555 1_555
H42 C54 1_555 1_555
C55 C54 1_555 1_555
H43 C55 1_555 1_555
C56 C55 1_555 1_555
C57 C56 1_555 1_555
F4 C57 1_555 1_555
F5 C57 1_555 1_555
F6 C57 1_555 1_555
C58 C52 1_555 1_555
H44 C58 1_555 1_555
Sn2_2 O3 1_555 1_555
O3_2 Sn2 1_555 1_555
C5 C6 1_555 1_555
C11 C12 1_555 1_555
C17 C18 1_555 1_555
C27 C29 1_555 1_555
C34 C35 1_555 1_555
C40 C41 1_555 1_555
C46 C47 1_555 1_555
C51 O6 1_555 1_555
C56 C58 1_555 1_555

#END
