
#######################################################################
#
#                 Cambridge Crystallographic Data Centre
#                                CCDC 
#
#######################################################################
#
# If this CIF has been generated from an entry in the Cambridge 
# Structural Database, then it will include bibliographic, chemical, 
# crystal, experimental, refinement or atomic coordinate data resulting 
# from the CCDC's data processing and validation procedures.
#
#######################################################################

data_ECUZOT
_symmetry_cell_setting           monoclinic
_symmetry_space_group_name_H-M   'P 21/n'
_symmetry_Int_Tables_number      14
_space_group_name_Hall           '-P 2yn'
loop_
_symmetry_equiv_pos_site_id
_symmetry_equiv_pos_as_xyz
1 x,y,z
2 1/2-x,1/2+y,1/2-z
3 -x,-y,-z
4 1/2+x,1/2-y,1/2+z
_cell_length_a                   18.3145(15)
_cell_length_b                   7.8110(7)
_cell_length_c                   20.7812(18)
_cell_angle_alpha                90
_cell_angle_beta                 93.958(2)
_cell_angle_gamma                90
_cell_volume                     2965.75
loop_
_atom_site_label
_atom_site_type_symbol
_atom_site_fract_x
_atom_site_fract_y
_atom_site_fract_z
C1 C 0.5533(2) -0.1895(5) 0.6102(2)
H1 H 0.5958 -0.2545 0.6224
C2 C 0.4914(2) -0.2752(5) 0.5868(2)
H2 H 0.4907 -0.3965 0.5837
C3 C 0.4300(2) -0.1786(5) 0.5681(2)
H3 H 0.3861 -0.2335 0.5521
C4 C 0.4328(2) -0.0011(5) 0.57282(19)
C5 C 0.4968(2) 0.0726(5) 0.5976(2)
H4 H 0.4990 0.1937 0.6015
C6 C 0.3659(2) 0.0968(5) 0.5471(2)
H5 H 0.3666 0.1029 0.4996
H6 H 0.3220 0.0303 0.5570
C7 C 0.3382(2) 0.2982(5) 0.6313(2)
C8 C 0.3160(2) 0.4789(5) 0.6456(2)
C9 C 0.3375(2) 0.5527(5) 0.7042(2)
H7 H 0.3661 0.4888 0.7355
C10 C 0.3173(2) 0.7204(5) 0.71757(19)
C11 C 0.2710(2) 0.8107(5) 0.6734(2)
H8 H 0.2564 0.9243 0.6827
C12 C 0.2463(2) 0.7329(5) 0.6155(2)
C13 C 0.2700(2) 0.5690(5) 0.6013(2)
H9 H 0.2547 0.5179 0.5611
C14 C 0.3483(2) 0.7944(6) 0.7803(2)
C15 C 0.4105(3) 1.0359(7) 0.8336(2)
H10 H 0.4334 0.9455 0.8617
H11 H 0.3755 1.0994 0.8588
C16 C 0.4692(2) 1.1574(6) 0.8134(2)
C17 C 0.4763(3) 1.3225(7) 0.8372(3)
H12 H 0.4429 1.3646 0.8664
C18 C 0.5323(3) 1.4259(7) 0.8182(3)
H13 H 0.5379 1.5392 0.8344
C19 C 0.5794(3) 1.3622(6) 0.7759(3)
H14 H 0.6175 1.4338 0.7625
C20 C 0.5192(2) 1.1052(6) 0.7709(2)
H15 H 0.5145 0.9928 0.7537
C21 C 0.1933(2) 0.8129(5) 0.5661(2)
C22 C 0.1266(2) 1.0673(5) 0.5256(2)
H16 H 0.0982 1.1545 0.5478
H17 H 0.0915 0.9839 0.5051
C23 C 0.1680(2) 1.1533(5) 0.4741(2)
C24 C 0.1623(3) 1.3288(5) 0.4623(2)
H18 H 0.1315 1.3982 0.4863
C25 C 0.2023(3) 1.3999(6) 0.4151(2)
H19 H 0.1987 1.5189 0.4058
C26 C 0.2475(2) 1.2974(6) 0.3815(2)
H20 H 0.2746 1.3479 0.3491
C27 C 0.2145(2) 1.0600(5) 0.4374(2)
H21 H 0.2179 0.9400 0.4444
N1 N 0.68301(19) -0.1894(4) 0.77886(17)
N2 N 0.63402(19) 0.3797(4) 0.57008(17)
N3 N 0.55658(18) -0.0194(4) 0.61646(17)
N4 N 0.3578(2) 0.2692(4) 0.57137(18)
H25 H 0.3659 0.3567 0.5462
N5 N 0.37158(19) 0.9572(5) 0.77813(18)
H26 H 0.3631 1.0169 0.7425
N6 N 0.5738(2) 1.2030(5) 0.75256(19)
N7 N 0.17582(19) 0.9785(4) 0.57320(17)
H27 H 0.1943 1.0349 0.6072
N8 N 0.25475(19) 1.1290(4) 0.39271(18)
O1 O 0.74170(16) -0.1076(4) 0.77408(15)
O2 O 0.67691(17) -0.2888(4) 0.82460(16)
O3 O 0.63202(17) -0.1729(4) 0.73614(16)
O4 O 0.67397(17) 0.2532(4) 0.55772(15)
O5 O 0.61997(19) 0.4918(4) 0.52944(15)
O6 O 0.60808(16) 0.3872(4) 0.62488(14)
O7 O 0.33827(18) 0.1871(4) 0.67311(15)
O8 O 0.35551(19) 0.7055(4) 0.82917(15)
O9 O 0.16738(17) 0.7266(4) 0.52020(15)
Pb1 Pb 0.670543(8) 0.103273(18) 0.673310(7)
N6_2 N 0.5738(2) 0.2030(5) 0.75256(19)
N8B N 0.74525(19) -0.1290(4) 0.60729(18)
Pb1_2 Pb 0.670543(8) 1.103273(18) 0.673310(7)
Pb1B Pb 0.329457(8) 0.896727(18) 0.326690(7)
C28 C 0.0473(5) 0.6885(14) 0.4175(5)
H22 H 0.0085 0.7381 0.3884
H23 H 0.0636 0.5801 0.3996
H24 H 0.0886 0.7682 0.4222
O10 O 0.0198(4) 0.6582(10) 0.4791(4)
H28 H 0.0549 0.6500 0.5071
loop_
_geom_bond_atom_site_label_1
_geom_bond_atom_site_label_2
_geom_bond_site_symmetry_1
_geom_bond_site_symmetry_2
C1 H1 1_555 1_555
C2 C1 1_555 1_555
H2 C2 1_555 1_555
C3 C2 1_555 1_555
H3 C3 1_555 1_555
C4 C3 1_555 1_555
C5 C4 1_555 1_555
H4 C5 1_555 1_555
C6 C4 1_555 1_555
H5 C6 1_555 1_555
H6 C6 1_555 1_555
C7 C8 1_555 1_555
C8 C9 1_555 1_555
C9 H7 1_555 1_555
C10 C9 1_555 1_555
C11 C10 1_555 1_555
H8 C11 1_555 1_555
C12 C11 1_555 1_555
C13 C8 1_555 1_555
H9 C13 1_555 1_555
C14 C10 1_555 1_555
C15 H10 1_555 1_555
H11 C15 1_555 1_555
C16 C15 1_555 1_555
C17 C16 1_555 1_555
H12 C17 1_555 1_555
C18 C17 1_555 1_555
H13 C18 1_555 1_555
C19 C18 1_555 1_555
H14 C19 1_555 1_555
C20 C16 1_555 1_555
H15 C20 1_555 1_555
C21 C12 1_555 1_555
C22 H16 1_555 1_555
H17 C22 1_555 1_555
C23 C22 1_555 1_555
C24 C23 1_555 1_555
H18 C24 1_555 1_555
C25 C24 1_555 1_555
H19 C25 1_555 1_555
C26 C25 1_555 1_555
H20 C26 1_555 1_555
C27 C23 1_555 1_555
H21 C27 1_555 1_555
C28 H22 1_555 1_555
H23 C28 1_555 1_555
H24 C28 1_555 1_555
N1 O1 1_555 1_555
N2 O4 1_555 1_555
N3 C1 1_555 1_555
N4 C6 1_555 1_555
H25 N4 1_555 1_555
N5 C14 1_555 1_555
H26 N5 1_555 1_555
N6 C19 1_555 1_555
N7 C21 1_555 1_555
H27 N7 1_555 1_555
N8 C26 1_555 1_555
O2 N1 1_555 1_555
O3 N1 1_555 1_555
O4 Pb1 1_555 1_555
O5 N2 1_555 1_555
O6 N2 1_555 1_555
O7 C7 1_555 1_555
O8 C14 1_555 1_555
O9 C21 1_555 1_555
O10 C28 1_555 1_555
H28 O10 1_555 1_555
Pb1 N3 1_555 1_555
N6_2 Pb1 1_555 1_555
N8B Pb1 1_555 1_555
Pb1_2 N6 1_555 1_555
Pb1B N8 1_555 1_555
C5 N3 1_555 1_555
C7 N4 1_555 1_555
C12 C13 1_555 1_555
C15 N5 1_555 1_555
C20 N6 1_555 1_555
C22 N7 1_555 1_555
C27 N8 1_555 1_555
O3 Pb1 1_555 1_555
O6 Pb1 1_555 1_555

#END
