
#######################################################################
#
#                 Cambridge Crystallographic Data Centre
#                                CCDC 
#
#######################################################################
#
# If this CIF has been generated from an entry in the Cambridge 
# Structural Database, then it will include bibliographic, chemical, 
# crystal, experimental, refinement or atomic coordinate data resulting 
# from the CCDC's data processing and validation procedures.
#
#######################################################################

data_ECUZEJ
_symmetry_cell_setting           triclinic
_symmetry_space_group_name_H-M   'P -1'
_symmetry_Int_Tables_number      2
_space_group_name_Hall           '-P 1'
loop_
_symmetry_equiv_pos_site_id
_symmetry_equiv_pos_as_xyz
1 x,y,z
2 -x,-y,-z
_cell_length_a                   12.835(3)
_cell_length_b                   12.845(3)
_cell_length_c                   16.225(3)
_cell_angle_alpha                91.21(3)
_cell_angle_beta                 112.43(3)
_cell_angle_gamma                97.52(3)
_cell_volume                     2443.93
loop_
_atom_site_label
_atom_site_type_symbol
_atom_site_fract_x
_atom_site_fract_y
_atom_site_fract_z
Zn1 Zn 0.40022(4) 0.03850(4) 0.31522(4)
N1 N 0.4751(3) 0.0488(3) 0.2113(3)
O1 O 0.5980(3) -0.2392(3) 0.4413(3)
O2 O 0.6420(3) -0.6074(3) 0.4838(3)
N2 N 1.2269(3) 0.0402(3) 0.2278(3)
O3 O 0.4992(4) -0.0739(3) 0.3769(3)
C1 C 0.6512(4) -0.3205(4) 0.4847(4)
C2 C 0.4889(5) -0.2626(4) 0.3721(4)
H1 H 0.4379 -0.3054 0.3937
H2 H 0.4936 -0.3027 0.3227
C3 C 0.6118(4) -0.4260(4) 0.4540(3)
H3 H 0.5489 -0.4454 0.4008
C4 C 0.4416(6) -0.1619(5) 0.3400(4)
C5 C 0.5159(4) -0.0330(4) 0.1891(4)
H4 H 0.5002 -0.0981 0.2093
O4 O 0.4339(4) -0.8039(3) 0.3386(3)
C6 C 1.0000(4) 0.0562(4) 0.1184(4)
C7 C 0.6064(4) 0.0698(4) 0.1061(3)
C8 C 0.5427(4) -0.6441(4) 0.4082(4)
H5 H 0.5492 -0.6151 0.3554
H6 H 0.4774 -0.6209 0.4153
C9 C 0.6700(4) -0.5014(4) 0.5056(4)
C10 C 1.1544(4) -0.0425(4) 0.1775(4)
H7 H 1.1808 -0.1068 0.1790
O5 O 0.3481(4) -0.1721(4) 0.2769(3)
C11 C 0.4957(5) 0.1388(4) 0.1768(4)
H8 H 0.4645 0.1961 0.1883
C12 C 0.7623(5) -0.4736(4) 0.5836(4)
H9 H 0.7998 -0.5248 0.6176
C13 C 0.8792(4) 0.0658(5) 0.0606(4)
H10 H 0.8478 0.0063 0.0162
H11 H 0.8783 0.1293 0.0292
C14 C 0.6819(4) 0.0783(5) 0.0550(4)
H12 H 0.6793 0.1454 0.0284
H13 H 0.6534 0.0229 0.0068
C15 C 0.7441(5) -0.2900(4) 0.5616(4)
H14 H 0.7698 -0.2190 0.5800
C16 C 0.5596(5) 0.1526(4) 0.1257(4)
H15 H 0.5713 0.2178 0.1043
C17 C 1.0426(5) -0.0375(4) 0.1234(4)
H16 H 0.9956 -0.0977 0.0902
C18 C 0.5249(6) -0.7648(5) 0.3965(5)
C19 C 0.8052(4) 0.0696(5) 0.1136(4)
H17 H 0.8363 0.1296 0.1576
H18 H 0.8068 0.0064 0.1454
O6 O 0.5984(6) -0.8142(4) 0.4393(5)
C20 C 1.1841(5) 0.1303(4) 0.2227(5)
H19 H 1.2317 0.1898 0.2567
C21 C 0.7996(5) -0.3667(5) 0.6119(5)
H20 H 0.8625 -0.3470 0.6650
C22 C 1.0747(5) 0.1396(5) 0.1705(5)
H21 H 1.0501 0.2046 0.1703
C45 C 0.5811(4) -0.0253(4) 0.1372(4)
H43 H 0.6077 -0.0846 0.1235
Zn1_2 Zn 1.40022(4) 0.03850(4) 0.31522(4)
Zn1_3 Zn 0.40022(4) -0.96150(4) 0.31522(4)
N2_2 N 0.2269(3) 0.0402(3) 0.2278(3)
O4_2 O 0.4339(4) 0.1961(3) 0.3386(3)
Zn2 Zn 0.74435(5) 0.71076(5) 0.21070(4)
O7 O 0.9969(3) 0.6977(3) 0.0478(3)
N3 N 0.8236(3) 0.8426(3) 0.2964(3)
O8 O 0.7558(4) 0.7190(4) 0.0914(3)
O9 O 1.5870(3) 0.7254(3) 0.1905(3)
N4 N 0.7923(4) 1.5835(3) 0.2797(3)
O10 O 0.9324(4) 0.7098(4) 0.1800(3)
O11 O 1.3293(3) 0.6224(3) 0.0149(3)
O12 O 1.5467(4) 0.5846(3) 0.0981(3)
C23 C 0.9101(5) 1.0364(4) 0.3968(4)
C24 C 1.0413(5) 0.6524(4) -0.0061(4)
C25 C 0.7668(5) 0.8858(5) 0.3386(4)
H22 H 0.6962 0.8505 0.3332
C26 C 1.1591(5) 0.6612(4) 0.0311(4)
H23 H 1.2002 0.6947 0.0879
C27 C 0.9246(5) 0.8947(4) 0.3056(4)
H24 H 0.9664 0.8650 0.2780
C28 C 0.8076(5) 0.9794(5) 0.3894(4)
H25 H 0.7659 1.0050 0.4192
C29 C 1.5177(5) 0.6571(4) 0.1293(4)
C30 C 1.2148(5) 0.6201(4) -0.0163(4)
C31 C 0.7202(6) 1.4959(5) 0.2721(5)
H26 H 0.6437 1.4930 0.2352
C32 C 0.8569(5) 0.7075(5) 0.1072(5)
C33 C 1.3939(4) 0.6692(5) 0.1029(4)
H27 H 1.3649 0.6355 0.1444
H28 H 1.3867 0.7433 0.1053
C34 C 0.8776(5) 0.6852(5) 0.0208(4)
H29 H 0.8434 0.6141 -0.0052
H30 H 0.8452 0.7345 -0.0230
C35 C 0.9784(5) 0.6022(4) -0.0905(4)
H31 H 0.8992 0.5955 -0.1151
C36 C 0.9703(5) 0.9913(4) 0.3544(4)
H32 H 1.0409 1.0255 0.3586
C37 C 0.9523(6) 1.1427(4) 0.4464(4)
H33 H 1.0345 1.1582 0.4656
H34 H 0.9339 1.1437 0.4990
C38 C 0.9013(6) 1.5842(6) 0.3311(5)
H35 H 0.9528 1.6442 0.3355
C39 C 1.0369(5) 0.5629(5) -0.1365(4)
H36 H 0.9961 0.5299 -0.1935
C40 C 0.9169(8) 1.3252(6) 0.4331(6)
H37 H 0.9986 1.3444 0.4646
H38 H 0.8834 1.3173 0.4775
C41 C 0.9415(7) 1.5008(7) 0.3777(6)
H39 H 1.0192 1.5045 0.4114
C42 C 1.1530(6) 0.5705(5) -0.1013(4)
H40 H 1.1903 0.5429 -0.1339
C43 C 0.8946(8) 1.2286(5) 0.3835(5)
H41 H 0.9242 1.2366 0.3368
H42 H 0.8129 1.2061 0.3553
C44 C 0.8700(8) 1.4138(6) 0.3755(6)
C46 C 0.7564(7) 1.4082(6) 0.3180(6)
H44 H 0.7052 1.3469 0.3103
Zn2_2 Zn 1.74435(5) 0.71076(5) 0.21070(4)
Zn2_3 Zn 0.74435(5) 1.71076(5) 0.21070(4)
O9_2 O 0.5870(3) 0.7254(3) 0.1905(3)
N4_2 N 0.7923(4) 0.5835(3) 0.2797(3)
O13 O 0.3358(4) 0.0270(3) 0.4277(3)
O14 O 0.4260(5) 0.3780(4) 0.0796(4)
O15 O 0.1573(5) -0.3187(5) 0.2700(4)
O16 O 0.7945(6) -0.8177(6) 0.5770(4)
O17 O 0.3380(8) 0.4252(18) 0.2141(8)
loop_
_geom_bond_atom_site_label_1
_geom_bond_atom_site_label_2
_geom_bond_site_symmetry_1
_geom_bond_site_symmetry_2
Zn1 N1 1_555 1_555
N1 C5 1_555 1_555
O1 C1 1_555 1_555
O2 C8 1_555 1_555
N2 C10 1_555 1_555
O3 Zn1 1_555 1_555
C1 C3 1_555 1_555
C2 O1 1_555 1_555
H1 C2 1_555 1_555
H2 C2 1_555 1_555
C3 H3 1_555 1_555
C4 O3 1_555 1_555
C5 H4 1_555 1_555
O4 C18 1_555 1_555
C6 C13 1_555 1_555
C7 C14 1_555 1_555
C8 H5 1_555 1_555
H6 C8 1_555 1_555
C9 O2 1_555 1_555
C10 H7 1_555 1_555
O5 C4 1_555 1_555
C11 N1 1_555 1_555
H8 C11 1_555 1_555
C12 C9 1_555 1_555
H9 C12 1_555 1_555
C13 H10 1_555 1_555
H11 C13 1_555 1_555
C14 H12 1_555 1_555
H13 C14 1_555 1_555
C15 C1 1_555 1_555
H14 C15 1_555 1_555
C16 C7 1_555 1_555
H15 C16 1_555 1_555
C17 C6 1_555 1_555
H16 C17 1_555 1_555
C18 C8 1_555 1_555
C19 C13 1_555 1_555
H17 C19 1_555 1_555
H18 C19 1_555 1_555
O6 C18 1_555 1_555
C20 N2 1_555 1_555
H19 C20 1_555 1_555
C21 C12 1_555 1_555
H20 C21 1_555 1_555
C22 C6 1_555 1_555
H21 C22 1_555 1_555
Zn2 N3 1_555 1_555
O7 C24 1_555 1_555
N3 C25 1_555 1_555
O8 Zn2 1_555 1_555
O9 C29 1_555 1_555
N4 C31 1_555 1_555
O10 C32 1_555 1_555
O11 C30 1_555 1_555
O12 C29 1_555 1_555
C23 C28 1_555 1_555
C24 C26 1_555 1_555
C25 H22 1_555 1_555
C26 H23 1_555 1_555
C27 N3 1_555 1_555
H24 C27 1_555 1_555
C28 C25 1_555 1_555
H25 C28 1_555 1_555
C29 C33 1_555 1_555
C30 C26 1_555 1_555
C31 H26 1_555 1_555
C32 O8 1_555 1_555
C33 O11 1_555 1_555
H27 C33 1_555 1_555
H28 C33 1_555 1_555
C34 O7 1_555 1_555
H29 C34 1_555 1_555
H30 C34 1_555 1_555
C35 C24 1_555 1_555
H31 C35 1_555 1_555
C36 C23 1_555 1_555
H32 C36 1_555 1_555
C37 C23 1_555 1_555
H33 C37 1_555 1_555
H34 C37 1_555 1_555
C38 N4 1_555 1_555
H35 C38 1_555 1_555
C39 C35 1_555 1_555
H36 C39 1_555 1_555
C40 H37 1_555 1_555
H38 C40 1_555 1_555
C41 C38 1_555 1_555
H39 C41 1_555 1_555
C42 C30 1_555 1_555
H40 C42 1_555 1_555
C43 C37 1_555 1_555
H41 C43 1_555 1_555
H42 C43 1_555 1_555
C44 C40 1_555 1_555
C45 C5 1_555 1_555
H43 C45 1_555 1_555
C46 C31 1_555 1_555
H44 C46 1_555 1_555
Zn1_2 N2 1_555 1_555
Zn1_3 O4 1_555 1_555
N2_2 Zn1 1_555 1_555
O4_2 Zn1 1_555 1_555
Zn2_2 O9 1_555 1_555
Zn2_3 N4 1_555 1_555
O9_2 Zn2 1_555 1_555
N4_2 Zn2 1_555 1_555
C2 C4 1_555 1_555
C3 C9 1_555 1_555
C7 C45 1_555 1_555
C10 C17 1_555 1_555
C11 C16 1_555 1_555
C14 C19 1_555 1_555
C15 C21 1_555 1_555
C20 C22 1_555 1_555
C27 C36 1_555 1_555
C32 C34 1_555 1_555
C39 C42 1_555 1_555
C40 C43 1_555 1_555
C41 C44 1_555 1_555
C44 C46 1_555 1_555

#END
