
#######################################################################
#
#                 Cambridge Crystallographic Data Centre
#                                CCDC 
#
#######################################################################
#
# If this CIF has been generated from an entry in the Cambridge 
# Structural Database, then it will include bibliographic, chemical, 
# crystal, experimental, refinement or atomic coordinate data resulting 
# from the CCDC's data processing and validation procedures.
#
#######################################################################

data_EDABIW
_symmetry_cell_setting           triclinic
_symmetry_space_group_name_H-M   'P -1'
_symmetry_Int_Tables_number      2
_space_group_name_Hall           '-P 1'
loop_
_symmetry_equiv_pos_site_id
_symmetry_equiv_pos_as_xyz
1 x,y,z
2 -x,-y,-z
_cell_length_a                   7.7575(16)
_cell_length_b                   11.554(2)
_cell_length_c                   14.081(3)
_cell_angle_alpha                102.97(3)
_cell_angle_beta                 95.00(3)
_cell_angle_gamma                101.92(3)
_cell_volume                     1191.51
loop_
_atom_site_label
_atom_site_type_symbol
_atom_site_fract_x
_atom_site_fract_y
_atom_site_fract_z
Sm1 Sm 0.35281(3) 1.00935(2) 0.884865(18)
Sm2 Sm 0.90001(3) 1.11498(2) 0.930450(18)
C1 C 0.1092(8) 0.7425(5) 0.8197(4)
C2 C 0.0396(8) 0.6120(5) 0.7651(4)
C3 C 0.0704(11) 0.5669(6) 0.6703(5)
H1 H 0.1319 0.6192 0.6367
C4 C 0.0091(11) 0.4429(7) 0.6251(5)
H2 H 0.0254 0.4111 0.5607
C5 C -0.0752(10) 0.3703(6) 0.6784(6)
H3 H -0.1111 0.2869 0.6495
C6 C -0.0513(9) 0.5303(6) 0.8112(5)
H4 H -0.0733 0.5599 0.8750
C7 C 0.5637(6) 0.9461(5) 0.7345(4)
C8 C 0.4942(13) 0.8447(13) 0.5542(6)
H5 H 0.4109 0.8912 0.5490
C9 C 0.5224(16) 0.7644(16) 0.4723(7)
H6 H 0.4644 0.7582 0.4101
C10 C 0.6384(19) 0.6946(16) 0.4860(9)
H7 H 0.6495 0.6355 0.4314
C11 C 0.7093(10) 0.7831(7) 0.6491(6)
H8 H 0.7731 0.7898 0.7099
C12 C 0.2879(7) 1.2981(5) 0.8944(4)
C13 C 0.3597(7) 1.4171(5) 0.8689(4)
C14 C 0.4601(9) 1.4211(6) 0.7930(5)
H9 H 0.4815 1.3495 0.7557
C15 C 0.5298(9) 1.5327(6) 0.7724(5)
H10 H 0.5965 1.5371 0.7210
C16 C 0.5909(10) 0.8558(7) 0.6443(5)
C17 C 0.3332(8) 1.5280(6) 0.9240(5)
H11 H 0.2655 1.5261 0.9752
C18 C 0.0065(7) 1.0505(5) 0.7336(4)
C19 C 0.0698(9) 1.0088(7) 0.6374(4)
H12 H 0.1935 1.0506 0.6426
H13 H 0.0651 0.9222 0.6264
C20 C -0.0314(10) 1.0288(7) 0.5483(4)
H14 H -0.1572 0.9938 0.5455
H15 H -0.0160 1.1158 0.5547
C21 C 0.4960(9) 1.6361(6) 0.8308(6)
H16 H 0.5418 1.7107 0.8173
N1 N -0.1104(8) 0.4103(5) 0.7695(5)
N2 N 0.7376(15) 0.7024(10) 0.5698(7)
N3 N 0.4010(7) 1.6358(5) 0.9062(4)
O1 O 0.2345(6) 0.8036(4) 0.7863(3)
O2 O 0.6431(5) 0.9473(4) 0.8180(3)
O3 O 0.4588(6) 1.0107(4) 0.7238(3)
O4 O 0.3758(6) 1.2178(4) 0.8747(3)
O5 O 0.0644(5) 1.0116(4) 0.8067(3)
O6 O 0.1706(5) 1.0651(3) 1.0059(3)
O7 O 0.3893(5) 0.8880(3) 1.0004(3)
O8 O 0.0463(6) 0.7843(4) 0.8961(3)
O9 O 0.7596(6) 1.2731(4) 0.8940(3)
H17 H 0.654(4) 1.282(8) 0.888(6)
H18 H 0.817(8) 1.314(7) 0.859(5)
O10 O 0.1453(6) 1.2864(4) 0.9298(3)
O11 O -0.1001(6) 1.1165(4) 0.7437(3)
Sm1A Sm -0.35281(3) 0.99065(2) 0.115135(18)
Sm1A_2 Sm 0.64719(3) 0.99065(2) 1.115135(18)
Sm1_2 Sm 1.35281(3) 1.00935(2) 0.884865(18)
Sm2_2 Sm -0.09999(3) 1.11498(2) 0.930450(18)
Sm2A Sm 0.09999(3) 0.88502(2) 1.069550(18)
Sm2A_2 Sm 0.09999(3) 0.88502(2) 0.069550(18)
Sm2A_3 Sm 1.09999(3) 0.88502(2) 1.069550(18)
Sm2A_4 Sm -0.90001(3) 0.88502(2) 0.069550(18)
C1A C 0.8908(8) 1.2575(5) 1.1803(4)
C2A C 0.9604(8) 1.3880(5) 1.2349(4)
C3A C 0.9296(11) 1.4331(6) 1.3297(5)
H1A H 0.8681 1.3808 1.3633
C4A C 0.9909(11) 1.5571(7) 1.3749(5)
H2A H 0.9746 1.5889 1.4393
C5A C 1.0752(10) 1.6297(6) 1.3216(6)
H3A H 1.1111 1.7131 1.3505
C6A C 1.0513(9) 1.4697(6) 1.1888(5)
H4A H 1.0733 1.4401 1.1250
C7A C -0.5637(6) 1.0539(5) 0.2655(4)
C8A C -0.4942(13) 1.1553(13) 0.4458(6)
H5A H -0.4109 1.1088 0.4510
C9A C -0.5224(16) 1.2356(16) 0.5277(7)
H6A H -0.4644 1.2418 0.5899
C10A C -0.6384(19) 1.3054(16) 0.5140(9)
H7A H -0.6495 1.3645 0.5686
C11A C -0.7093(10) 1.2169(7) 0.3509(6)
H8A H -0.7731 1.2102 0.2901
C12_2 C 1.2879(7) 1.2981(5) 0.8944(4)
C13_2 C 1.3597(7) 1.4171(5) 0.8689(4)
C14_2 C 1.4601(9) 1.4211(6) 0.7930(5)
H9_2 H 1.4815 1.3495 0.7557
C15_2 C 1.5298(9) 1.5327(6) 0.7724(5)
H10_2 H 1.5965 1.5371 0.7210
C16A C -0.5909(10) 1.1442(7) 0.3557(5)
C17_2 C 1.3332(8) 1.5280(6) 0.9240(5)
H11_2 H 1.2655 1.5261 0.9752
C18A C -0.0065(7) 0.9495(5) 0.2664(4)
C19A C -0.0698(9) 0.9912(7) 0.3626(4)
H12A H -0.1935 0.9494 0.3574
H13A H -0.0651 1.0778 0.3736
C20A C 0.0314(10) 0.9712(7) 0.4517(4)
H14A H 0.1572 1.0062 0.4545
H15A H 0.0160 0.8842 0.4453
C21_2 C 1.4960(9) 1.6361(6) 0.8308(6)
H16_2 H 1.5418 1.7107 0.8173
N1A N 1.1104(8) 1.5897(5) 1.2305(5)
N2A N -0.7376(15) 1.2976(10) 0.4302(7)
N3_2 N 1.4010(7) 1.6358(5) 0.9062(4)
O1A O 0.7655(6) 1.1964(4) 1.2137(3)
O1A_2 O -0.2345(6) 1.1964(4) 0.2137(3)
O2A O -0.6431(5) 1.0527(4) 0.1820(3)
O2_2 O -0.3569(5) 0.9473(4) 0.8180(3)
O3A O -0.4588(6) 0.9893(4) 0.2762(3)
O4_2 O 1.3758(6) 1.2178(4) 0.8747(3)
O4A O -0.3758(6) 0.7822(4) 0.1253(3)
O5A O -0.0644(5) 0.9884(4) 0.1933(3)
O5_2 O 1.0644(5) 1.0116(4) 0.8067(3)
O6A O 0.8294(5) 0.9349(3) 0.9941(3)
O6_2 O 1.1706(5) 1.0651(3) 1.0059(3)
O6A_2 O -0.1706(5) 0.9349(3) -0.0059(3)
O6A_3 O -0.1706(5) 0.9349(3) 0.9941(3)
O7A O 0.6107(5) 1.1120(3) 0.9996(3)
O7A_2 O -0.3893(5) 1.1120(3) -0.0004(3)
O7_2 O -0.6107(5) 0.8880(3) 0.0004(3)
O7A_3 O -0.3893(5) 1.1120(3) 0.9996(3)
O8A O 0.9537(6) 1.2157(4) 1.1039(3)
O8A_2 O -0.0463(6) 1.2157(4) 1.1039(3)
O9_2 O -0.2404(6) 1.2731(4) 0.8940(3)
H17_2 H -0.346(4) 1.282(8) 0.888(6)
H18_2 H -0.183(8) 1.314(7) 0.859(5)
O10_2 O 1.1453(6) 1.2864(4) 0.9298(3)
O11A O 0.1001(6) 0.8835(4) 0.2563(3)
O11_2 O 0.8999(6) 1.1165(4) 0.7437(3)
loop_
_geom_bond_atom_site_label_1
_geom_bond_atom_site_label_2
_geom_bond_site_symmetry_1
_geom_bond_site_symmetry_2
Sm1 O1 1_555 1_555
Sm2 O2 1_555 1_555
C1 C2 1_555 1_555
C2 C3 1_555 1_555
C3 H1 1_555 1_555
C4 C3 1_555 1_555
H2 C4 1_555 1_555
C5 C4 1_555 1_555
H3 C5 1_555 1_555
C6 C2 1_555 1_555
H4 C6 1_555 1_555
C7 C16 1_555 1_555
C8 H5 1_555 1_555
C9 C8 1_555 1_555
H6 C9 1_555 1_555
C10 C9 1_555 1_555
H7 C10 1_555 1_555
C11 H8 1_555 1_555
C12 C13 1_555 1_555
C13 C14 1_555 1_555
C14 H9 1_555 1_555
C15 C14 1_555 1_555
H10 C15 1_555 1_555
C16 C8 1_555 1_555
C17 C13 1_555 1_555
H11 C17 1_555 1_555
C18 C19 1_555 1_555
C19 H12 1_555 1_555
H13 C19 1_555 1_555
C20 C19 1_555 1_555
H14 C20 1_555 1_555
H15 C20 1_555 1_555
C21 C15 1_555 1_555
H16 C21 1_555 1_555
N1 C5 1_555 1_555
N2 C10 1_555 1_555
N3 C17 1_555 1_555
O1 C1 1_555 1_555
O2 Sm1 1_555 1_555
O3 Sm1 1_555 1_555
O4 Sm1 1_555 1_555
O5 Sm1 1_555 1_555
O6 Sm1 1_555 1_555
O7 Sm1 1_555 1_555
O8 C1 1_555 1_555
O9 Sm2 1_555 1_555
H17 O9 1_555 1_555
H18 O9 1_555 1_555
O10 C12 1_555 1_555
O11 C18 1_555 1_555
Sm1A O1A_2 1_555 1_555
Sm1A_2 O7 1_555 1_555
Sm1_2 O4_2 1_555 1_555
Sm2_2 O5 1_555 1_555
Sm2A O6 1_555 1_555
Sm2A_2 O5A 1_555 1_555
Sm2A_3 O6A 1_555 1_555
Sm2A_4 O2A 1_555 1_555
C1A C2A 1_555 1_555
C2A C3A 1_555 1_555
C3A H1A 1_555 1_555
C4A C3A 1_555 1_555
H2A C4A 1_555 1_555
C5A C4A 1_555 1_555
H3A C5A 1_555 1_555
C6A C2A 1_555 1_555
H4A C6A 1_555 1_555
C7A C16A 1_555 1_555
C8A H5A 1_555 1_555
C9A C8A 1_555 1_555
H6A C9A 1_555 1_555
C10A C9A 1_555 1_555
H7A C10A 1_555 1_555
C11A H8A 1_555 1_555
C12_2 C13_2 1_555 1_555
C13_2 C14_2 1_555 1_555
C14_2 H9_2 1_555 1_555
C15_2 C14_2 1_555 1_555
H10_2 C15_2 1_555 1_555
C16A C8A 1_555 1_555
C17_2 C13_2 1_555 1_555
H11_2 C17_2 1_555 1_555
C18A C19A 1_555 1_555
C19A H12A 1_555 1_555
H13A C19A 1_555 1_555
C20A C20 1_555 1_555
H14A C20A 1_555 1_555
H15A C20A 1_555 1_555
C21_2 C15_2 1_555 1_555
H16_2 C21_2 1_555 1_555
N1A C5A 1_555 1_555
N2A C10A 1_555 1_555
N3_2 C17_2 1_555 1_555
O1A Sm1A_2 1_555 1_555
O2A Sm1A 1_555 1_555
O2_2 Sm2_2 1_555 1_555
O3A Sm1A 1_555 1_555
O4_2 C12_2 1_555 1_555
O4A Sm1A 1_555 1_555
O5A Sm1A 1_555 1_555
O5_2 Sm2 1_555 1_555
O6A Sm2 1_555 1_555
O6_2 Sm2 1_555 1_555
O6A_2 Sm1A 1_555 1_555
O6A_3 Sm2_2 1_555 1_555
O7A Sm1 1_555 1_555
O7A_2 Sm1A 1_555 1_555
O7_2 Sm1A 1_555 1_555
O7A_3 Sm2_2 1_555 1_555
O8A Sm2 1_555 1_555
O8A_2 Sm2_2 1_555 1_555
O9_2 Sm2_2 1_555 1_555
H17_2 O9_2 1_555 1_555
H18_2 O9_2 1_555 1_555
O10_2 Sm2 1_555 1_555
O11A Sm2A_2 1_555 1_555
O11_2 Sm2 1_555 1_555
Sm2 O7A 1_555 1_555
C6 N1 1_555 1_555
C7 O2 1_555 1_555
C7 O3 1_555 1_555
C11 C16 1_555 1_555
C11 N2 1_555 1_555
C12 O4 1_555 1_555
C18 O5 1_555 1_555
C21 N3 1_555 1_555
O6 Sm2_2 1_555 1_555
O7 Sm2A 1_555 1_555
O8 Sm2A 1_555 1_555
O10 Sm2_2 1_555 1_555
O11 Sm2_2 1_555 1_555
Sm1A_2 O6A 1_555 1_555
Sm1A_2 O7A 1_555 1_555
Sm1_2 O5_2 1_555 1_555
Sm1_2 O6_2 1_555 1_555
Sm2A O6A_3 1_555 1_555
Sm2A_2 O6A_2 1_555 1_555
Sm2A_3 O6_2 1_555 1_555
Sm2A_4 O7_2 1_555 1_555
C1A O1A 1_555 1_555
C1A O8A 1_555 1_555
C6A N1A 1_555 1_555
C7A O2A 1_555 1_555
C7A O3A 1_555 1_555
C11A C16A 1_555 1_555
C11A N2A 1_555 1_555
C12_2 O10_2 1_555 1_555
C18A O5A 1_555 1_555
C18A O11A 1_555 1_555
C19A C20A 1_555 1_555
C21_2 N3_2 1_555 1_555

#END
