
#######################################################################
#
#                 Cambridge Crystallographic Data Centre
#                                CCDC 
#
#######################################################################
#
# If this CIF has been generated from an entry in the Cambridge 
# Structural Database, then it will include bibliographic, chemical, 
# crystal, experimental, refinement or atomic coordinate data resulting 
# from the CCDC's data processing and validation procedures.
#
#######################################################################

data_EDABAO
_symmetry_cell_setting           orthorhombic
_symmetry_space_group_name_H-M   'P n a 21'
_symmetry_Int_Tables_number      33
_space_group_name_Hall           'P 2c -2n'
loop_
_symmetry_equiv_pos_site_id
_symmetry_equiv_pos_as_xyz
1 x,y,z
2 -x,-y,1/2+z
3 1/2+x,1/2-y,z
4 1/2-x,1/2+y,1/2+z
_cell_length_a                   11.1924(4)
_cell_length_b                   17.0336(6)
_cell_length_c                   4.3034(1)
_cell_angle_alpha                90
_cell_angle_beta                 90
_cell_angle_gamma                90
_cell_volume                     820.43
loop_
_atom_site_label
_atom_site_type_symbol
_atom_site_fract_x
_atom_site_fract_y
_atom_site_fract_z
Cd1 Cd 0.34904(3) 0.467419(15) 0.60500(13)
I1 I 0.18320(2) 0.467295(14) 0.11408(7)
N1 N 0.4013(3) 0.33525(18) 0.6254(13)
O1 O 0.5240(3) 0.4489(2) 0.3333(10)
O2 O 0.6546(3) 0.3651(2) 0.1401(14)
C1 C 0.3377(4) 0.2776(3) 0.7577(13)
H1 H 0.2681 0.2912 0.8722
C2 C 0.3689(4) 0.1985(3) 0.7351(14)
H2 H 0.3219 0.1592 0.8328
C3 C 0.4692(4) 0.1790(3) 0.5679(15)
H3 H 0.4923 0.1255 0.5491
C4 C 0.5364(5) 0.2368(3) 0.4275(14)
H4 H 0.6067 0.2240 0.3148
C5 C 0.4986(4) 0.3147(3) 0.4549(13)
C6 C 0.5656(4) 0.3797(3) 0.2950(13)
Cd1_2 Cd 0.34904(3) 0.467419(15) -0.39500(13)
Cd1A Cd 0.65096(3) 0.532581(15) 0.10500(13)
I1_2 I 0.18320(2) 0.467295(14) 1.11408(7)
O1A O 0.4760(3) 0.5511(2) 0.8333(10)
loop_
_geom_bond_atom_site_label_1
_geom_bond_atom_site_label_2
_geom_bond_site_symmetry_1
_geom_bond_site_symmetry_2
Cd1 I1 1_555 1_555
I1 Cd1_2 1_555 1_555
N1 Cd1 1_555 1_555
O1 Cd1 1_555 1_555
O2 C6 1_555 1_555
C1 N1 1_555 1_555
H1 C1 1_555 1_555
C2 C1 1_555 1_555
H2 C2 1_555 1_555
C3 C2 1_555 1_555
H3 C3 1_555 1_555
C4 C3 1_555 1_555
H4 C4 1_555 1_555
C5 N1 1_555 1_555
C6 O1 1_555 1_555
Cd1A O1 1_555 1_555
I1_2 Cd1 1_555 1_555
O1A Cd1 1_555 1_555
C4 C5 1_555 1_555
C5 C6 1_555 1_555

#END
