
#######################################################################
#
#                 Cambridge Crystallographic Data Centre
#                                CCDC 
#
#######################################################################
#
# If this CIF has been generated from an entry in the Cambridge 
# Structural Database, then it will include bibliographic, chemical, 
# crystal, experimental, refinement or atomic coordinate data resulting 
# from the CCDC's data processing and validation procedures.
#
#######################################################################

data_EDACAP
_symmetry_cell_setting           monoclinic
_symmetry_space_group_name_H-M   'P 21/c'
_symmetry_Int_Tables_number      14
_space_group_name_Hall           '-P 2ybc'
loop_
_symmetry_equiv_pos_site_id
_symmetry_equiv_pos_as_xyz
1 x,y,z
2 -x,1/2+y,1/2-z
3 -x,-y,-z
4 x,1/2-y,1/2+z
_cell_length_a                   11.6055(4)
_cell_length_b                   11.1671(6)
_cell_length_c                   14.1182(9)
_cell_angle_alpha                90
_cell_angle_beta                 120(18)
_cell_angle_gamma                90
_cell_volume                     1584.58
loop_
_atom_site_label
_atom_site_type_symbol
_atom_site_fract_x
_atom_site_fract_y
_atom_site_fract_z
Sn1 Sn 0.000(5) 0.239(4) 0.373(4)
Cu1 Cu 0.502(5) 0.110(4) 0.624(4)
N1 N 0.526(5) -0.074(4) 0.627(4)
C1 C 0.326(5) 0.159(4) 0.529(4)
N2 N 0.219(5) 0.191(4) 0.472(4)
C2 C 0.642(5) -0.121(4) 0.707(4)
C3 C 0.574(5) -0.310(4) 0.668(4)
C4 C 0.438(5) -0.149(4) 0.579(4)
N3 N 0.669(5) -0.239(4) 0.732(4)
C5 C 0.387(5) -0.486(4) 0.562(4)
C6 C 0.354(5) -0.365(4) 0.533(4)
C7 C 0.512(5) -0.512(4) 0.645(4)
C8 C 0.444(5) -0.289(4) 0.590(4)
C9 C 0.598(5) -0.431(4) 0.697(4)
C10 C 0.667(5) 0.177(4) 0.714(4)
N4 N 0.770(5) 0.210(4) 0.767(4)
C11 C -0.040(5) 0.077(4) 0.281(4)
C12 C 0.024(5) 0.401(4) 0.469(4)
C13 C 0.062(5) 0.393(4) 0.314(4)
C14 C -0.039(5) 0.084(4) 0.441(4)
C15 C 0.009(5) 0.236(4) 0.213(4)
C16 C -0.008(5) 0.249(4) 0.521(4)
H1 H 0.716(5) -0.070(4) 0.751(4)
H2 H 0.350(5) -0.125(4) 0.527(4)
H3 H 0.322(5) -0.547(4) 0.528(4)
H4 H 0.537(5) -0.594(4) 0.663(4)
H5 H 0.679(5) -0.458(4) 0.756(4)
H6 H 0.271(5) -0.346(4) 0.471(4)
H7 H -0.131700 0.072580 0.228710
H8 H 0.012100 0.075680 0.245210
H9 H -0.016100 0.010180 0.330010
H10 H -0.076590 0.255470 0.153920
H11 H 0.072310 0.293770 0.217520
H12 H 0.034410 0.157670 0.202520
H13 H -0.013100 0.439140 0.263310
H14 H 0.120400 0.443150 0.373010
H15 H 0.107100 0.361540 0.277810
H16 H -0.058540 0.442480 0.442560
H17 H 0.056560 0.378180 0.542860
H18 H 0.086960 0.453380 0.463860
H19 H -0.095730 0.270370 0.505050
H20 H 0.014970 0.172570 0.556250
H21 H 0.053170 0.308570 0.567950
H22 H -0.133180 0.078040 0.412060
H23 H -0.008280 0.013340 0.421060
H24 H 0.003220 0.089640 0.518560
Sn1C Sn 1.000(5) 0.261(4) 0.873(4)
N4C N -0.230(5) 0.290(4) 0.267(4)
loop_
_geom_bond_atom_site_label_1
_geom_bond_atom_site_label_2
_geom_bond_site_symmetry_1
_geom_bond_site_symmetry_2
Sn1 N2 1_555 1_555
Cu1 N1 1_555 1_555
N1 C2 1_555 1_555
C1 Cu1 1_555 1_555
N2 C1 1_555 1_555
C2 N3 1_555 1_555
C3 N3 1_555 1_555
C4 N1 1_555 1_555
C5 C6 1_555 1_555
C6 C8 1_555 1_555
C7 C5 1_555 1_555
C8 C3 1_555 1_555
C9 C3 1_555 1_555
C10 Cu1 1_555 1_555
N4 C10 1_555 1_555
C11 Sn1 1_555 1_555
C12 Sn1 1_555 1_555
C13 Sn1 1_555 1_555
C14 Sn1 1_555 1_555
C15 Sn1 1_555 1_555
C16 Sn1 1_555 1_555
H1 C2 1_555 1_555
H2 C4 1_555 1_555
H3 C5 1_555 1_555
H4 C7 1_555 1_555
H5 C9 1_555 1_555
H6 C6 1_555 1_555
H7 C11 1_555 1_555
H8 C11 1_555 1_555
H9 C11 1_555 1_555
H10 C15 1_555 1_555
H11 C15 1_555 1_555
H12 C15 1_555 1_555
H13 C13 1_555 1_555
H14 C13 1_555 1_555
H15 C13 1_555 1_555
H16 C12 1_555 1_555
H17 C12 1_555 1_555
H18 C12 1_555 1_555
H19 C16 1_555 1_555
H20 C16 1_555 1_555
H21 C16 1_555 1_555
H22 C14 1_555 1_555
H23 C14 1_555 1_555
H24 C14 1_555 1_555
Sn1C N4 1_555 1_555
N4C Sn1 1_555 1_555
C4 C8 1_555 1_555
C7 C9 1_555 1_555

#END
