
#######################################################################
#
#                 Cambridge Crystallographic Data Centre
#                                CCDC 
#
#######################################################################
#
# If this CIF has been generated from an entry in the Cambridge 
# Structural Database, then it will include bibliographic, chemical, 
# crystal, experimental, refinement or atomic coordinate data resulting 
# from the CCDC's data processing and validation procedures.
#
#######################################################################

data_EDACET
_symmetry_cell_setting           monoclinic
_symmetry_space_group_name_H-M   'P 21/c'
_symmetry_Int_Tables_number      14
_space_group_name_Hall           '-P 2ybc'
loop_
_symmetry_equiv_pos_site_id
_symmetry_equiv_pos_as_xyz
1 x,y,z
2 -x,1/2+y,1/2-z
3 -x,-y,-z
4 x,1/2-y,1/2+z
_cell_length_a                   17.7239(10)
_cell_length_b                   13.8069(8)
_cell_length_c                   21.8968(12)
_cell_angle_alpha                90
_cell_angle_beta                 113.1320(10)
_cell_angle_gamma                90
_cell_volume                     4927.61
loop_
_atom_site_label
_atom_site_type_symbol
_atom_site_fract_x
_atom_site_fract_y
_atom_site_fract_z
Sm1 Sm 0.249715(9) 0.521347(14) 0.499484(8)
Sm2 Sm 0.022064(9) 0.317248(13) 0.242876(8)
Sm3 Sm 0.518396(9) 0.811633(13) 0.744978(8)
O1 O 0.36670(13) 0.6005(2) 0.58791(11)
O2 O 0.42729(16) 0.7333(2) 0.64407(12)
O3 O 0.13069(13) 0.59801(19) 0.41062(11)
O4 O 0.29905(13) 0.56891(19) 0.41094(11)
O5 O 0.38152(14) 0.5577(2) 0.35599(12)
H1 H 0.4211 0.5250 0.3582
O6 O 0.31182(13) 0.3935(2) 0.58136(11)
O7 O 0.19061(13) 0.3941(2) 0.41714(11)
O8 O 0.09163(15) 0.2887(2) 0.36140(12)
O9 O 0.20133(13) 0.5660(2) 0.58779(12)
O10 O 0.11848(14) 0.5529(2) 0.64196(11)
H2 H 0.0790 0.5199 0.6397
O11 O -0.01938(14) 0.4502(2) 0.16441(12)
O12 O 0.0008(2) 0.5467(3) 0.09191(17)
H3 H -0.0318 0.5804 0.1005
O13 O 0.12256(14) 0.1947(2) 0.25238(12)
O14 O 0.21734(15) 0.1245(2) 0.22462(15)
H4 H 0.2209 0.0886 0.2555
O15 O -0.02281(15) 0.1586(2) 0.27550(14)
H5 H -0.0282 0.1178 0.2468
O16 O -0.11856(16) 0.3320(2) 0.23642(16)
H6 H -0.1316 0.3894 0.2334
O17 O 0.00265(15) 0.4685(2) 0.30650(13)
H7 H -0.0427 0.4923 0.2859
O18 O 0.14461(14) 0.4276(2) 0.28287(12)
O19 O 0.06339(15) 0.7287(2) 0.35684(12)
O20 O 0.61848(14) 0.6881(2) 0.75648(12)
O21 O 0.71735(14) 0.6199(2) 0.73245(12)
H8 H 0.7203 0.5845 0.7634
O22 O 0.47718(14) 0.9437(2) 0.66527(12)
O23 O 0.48637(18) 1.0273(2) 0.58143(15)
H9 H 0.4524 1.0617 0.5877
O24 O 0.41209(15) 0.2894(2) 0.63610(12)
O25 O 0.63984(14) 0.9220(2) 0.78287(12)
O26 O 0.37810(16) 0.8255(2) 0.74748(15)
H10 H 0.3628 0.8820 0.7413
O27 O 0.49927(15) 0.9666(2) 0.80431(13)
H11 H 0.4537 0.9897 0.7834
O28 O 0.47363(15) 0.6516(2) 0.77581(13)
H12 H 0.488(2) 0.5924(11) 0.781(3)
H13 H 0.4419(10) 0.667(3) 0.7943(11)
N1 N 0.24774(14) 0.7028(2) 0.49885(12)
N2 N 0.37402(15) 0.4301(2) 0.49281(13)
N3 N 0.12719(15) 0.4274(2) 0.50494(13)
N4 N 0.09060(16) 0.3270(2) 0.16069(14)
N5 N 0.58816(16) 0.8186(2) 0.66356(14)
C1 C 0.37200(19) 0.6912(3) 0.59713(16)
C2 C 0.30749(19) 0.7533(3) 0.54551(16)
C3 C 0.3104(2) 0.8532(3) 0.5456(2)
H14 H 0.3519 0.8866 0.5789
C4 C 0.2501(2) 0.9022(3) 0.4948(2)
H15 H 0.2515 0.9694 0.4930
C5 C 0.1874(2) 0.8515(3) 0.4466(2)
H16 H 0.1459 0.8837 0.4125
C6 C 0.18846(19) 0.7516(3) 0.45040(16)
C7 C 0.12281(18) 0.6883(3) 0.40128(16)
C8 C 0.35780(19) 0.5312(3) 0.39962(16)
C9 C 0.40236(19) 0.4499(3) 0.44591(16)
C10 C 0.46842(19) 0.3997(3) 0.44166(17)
H17 H 0.4870 0.4138 0.4084
C11 C 0.5059(2) 0.3279(3) 0.48845(18)
H18 H 0.5499 0.2931 0.4866
C12 C 0.4778(2) 0.3085(3) 0.53719(17)
H19 H 0.5025 0.2615 0.5693
C13 C 0.41133(19) 0.3615(3) 0.53706(16)
C14 C 0.3760(2) 0.3466(3) 0.58935(16)
C15 C 0.1274(2) 0.3455(3) 0.40927(16)
C16 C 0.09049(19) 0.3579(3) 0.46007(16)
C17 C 0.0244(2) 0.3049(3) 0.45961(18)
H20 H 0.0002 0.2578 0.4275
C18 C -0.0052(2) 0.3240(3) 0.50860(18)
H21 H -0.0495 0.2893 0.5101
C19 C 0.03218(19) 0.3953(3) 0.55504(17)
H22 H 0.0135 0.4092 0.5883
C20 C 0.09808(19) 0.4459(3) 0.55140(16)
C21 C 0.14183(19) 0.5275(3) 0.59853(16)
C22 C 0.0133(2) 0.4721(3) 0.12386(18)
C23 C 0.0718(2) 0.3987(3) 0.11582(17)
C24 C 0.1051(2) 0.4050(3) 0.06895(18)
H23 H 0.0893 0.4539 0.0372
C25 C 0.1633(2) 0.3358(3) 0.07049(19)
H24 H 0.1868 0.3380 0.0393
C26 C 0.1857(2) 0.2649(3) 0.11792(18)
H25 H 0.2258 0.2199 0.1204
C27 C 0.14705(19) 0.2614(3) 0.16254(17)
C28 C 0.1639(2) 0.1868(3) 0.21726(19)
C29 C 0.66253(19) 0.6811(3) 0.72313(17)
C30 C 0.6464(2) 0.7544(3) 0.66798(17)
C31 C 0.6874(2) 0.7573(3) 0.62523(17)
H26 H 0.7288 0.7131 0.6294
C32 C 0.6650(2) 0.8276(3) 0.57640(18)
H27 H 0.6901 0.8299 0.5463
C33 C 0.6046(2) 0.8951(3) 0.57232(18)
H28 H 0.5892 0.9434 0.5401
C34 C 0.5683(2) 0.8879(3) 0.61781(16)
C35 C 0.5058(2) 0.9595(3) 0.62188(17)
H55 H 0.180(3) 0.417(3) 0.277(2)
H56 H 0.681(3) 0.909(3) 0.778(2)
H57 H 0.161(3) 0.432(3) 0.320(2)
H58 H 0.653(3) 0.925(4) 0.821(2)
Sm2A Sm -0.022064(9) 0.817248(13) 0.257124(8)
Sm3A Sm 0.481604(9) 0.311633(13) 0.755022(8)
O19A O -0.06339(15) 0.2287(2) 0.14316(12)
O24A O 0.58791(15) 0.7894(2) 0.86390(12)
N6 N -0.1686(6) 0.0994(8) 0.2728(4)
H29 H -0.1560 0.0409 0.2674
C36 C -0.1567(8) 0.1294(12) 0.3442(4)
H30 H -0.0999 0.1484 0.3568
H31 H -0.1862 0.1900 0.3304
C37 C -0.1536(3) 0.1345(4) 0.4053(2)
H32 H -0.1015 0.1604 0.4342
H33 H -0.1604 0.0709 0.4201
H34 H -0.1968 0.1759 0.4061
C38 C -0.2005(4) 0.1636(6) 0.2113(4)
H35 H -0.1514 0.2010 0.2188
H36 H -0.2020 0.1164 0.1780
C39 C -0.2536(3) 0.2220(4) 0.1751(3)
H37 H -0.2389 0.2432 0.1395
H38 H -0.2563 0.2770 0.2010
H39 H -0.3061 0.1906 0.1571
N7 N -0.3315(9) 0.3907(11) 0.2223(5)
H40 H -0.3265 0.4522 0.2288
C40 C -0.3639(3) 0.3708(4) 0.1494(2)
H41 H -0.3867 0.3067 0.1487
H42 H -0.4114 0.4131 0.1345
C41 C -0.3495(7) 0.3661(12) 0.0922(5)
H43 H -0.3949 0.3346 0.0581
H44 H -0.3002 0.3300 0.1005
H45 H -0.3435 0.4304 0.0781
C42 C -0.3058(6) 0.3416(8) 0.2854(5)
H46 H -0.3060 0.3926 0.3158
H47 H -0.3524 0.3009 0.2805
C43 C -0.2424(2) 0.2882(3) 0.3210(2)
H48 H -0.2486 0.2669 0.3606
H49 H -0.1931 0.3258 0.3330
H50 H -0.2392 0.2329 0.2956
O29 O 0.8369(3) 0.9118(4) 0.6073(4)
O30 O 0.7886(4) 1.0041(5) 0.6716(3)
O31 O 0.7083(2) 0.4941(3) 0.83054(18)
H51 H 0.7381 0.4700 0.8680
H52 H 0.6705 0.4543 0.8092
O32 O 0.65654(16) 0.6057(2) 0.91421(15)
H53 H 0.6788 0.6082 0.9564
H54 H 0.6188 0.5632 0.9024
O33? O 0.8514(6) 0.8923(9) 0.5895(5)
O34? O 0.7745(4) 1.0195(6) 0.6948(3)
loop_
_geom_bond_atom_site_label_1
_geom_bond_atom_site_label_2
_geom_bond_site_symmetry_1
_geom_bond_site_symmetry_2
Sm1 O1 1_555 1_555
Sm2 O8 1_555 1_555
Sm3 O2 1_555 1_555
O1 C1 1_555 1_555
O2 C1 1_555 1_555
O3 Sm1 1_555 1_555
O4 Sm1 1_555 1_555
O5 H1 1_555 1_555
O6 Sm1 1_555 1_555
O7 Sm1 1_555 1_555
O8 C15 1_555 1_555
O9 Sm1 1_555 1_555
O10 H2 1_555 1_555
O11 Sm2 1_555 1_555
O12 H3 1_555 1_555
O13 Sm2 1_555 1_555
O14 H4 1_555 1_555
O15 Sm2 1_555 1_555
H5 O15 1_555 1_555
O16 Sm2 1_555 1_555
H6 O16 1_555 1_555
O17 Sm2 1_555 1_555
H7 O17 1_555 1_555
O18 Sm2 1_555 1_555
O19 C7 1_555 1_555
O20 Sm3 1_555 1_555
O21 H8 1_555 1_555
O22 Sm3 1_555 1_555
O23 H9 1_555 1_555
O24 C14 1_555 1_555
O25 Sm3 1_555 1_555
O26 Sm3 1_555 1_555
H10 O26 1_555 1_555
O27 Sm3 1_555 1_555
H11 O27 1_555 1_555
O28 Sm3 1_555 1_555
H12 O28 1_555 1_555
H13 O28 1_555 1_555
N1 Sm1 1_555 1_555
N2 Sm1 1_555 1_555
N3 Sm1 1_555 1_555
N4 Sm2 1_555 1_555
N5 Sm3 1_555 1_555
C1 C2 1_555 1_555
C2 N1 1_555 1_555
C3 C2 1_555 1_555
H14 C3 1_555 1_555
C4 C3 1_555 1_555
H15 C4 1_555 1_555
C5 C4 1_555 1_555
H16 C5 1_555 1_555
C6 N1 1_555 1_555
C7 O3 1_555 1_555
C8 O4 1_555 1_555
C9 N2 1_555 1_555
C10 C9 1_555 1_555
H17 C10 1_555 1_555
C11 C10 1_555 1_555
H18 C11 1_555 1_555
C12 C11 1_555 1_555
H19 C12 1_555 1_555
C13 N2 1_555 1_555
C14 O6 1_555 1_555
C15 O7 1_555 1_555
C16 N3 1_555 1_555
C17 C16 1_555 1_555
H20 C17 1_555 1_555
C18 C17 1_555 1_555
H21 C18 1_555 1_555
C19 C18 1_555 1_555
H22 C19 1_555 1_555
C20 N3 1_555 1_555
C21 O9 1_555 1_555
C22 O11 1_555 1_555
C23 N4 1_555 1_555
C24 C23 1_555 1_555
H23 C24 1_555 1_555
C25 C24 1_555 1_555
H24 C25 1_555 1_555
C26 C25 1_555 1_555
H25 C26 1_555 1_555
C27 N4 1_555 1_555
C28 O13 1_555 1_555
C29 O20 1_555 1_555
C30 N5 1_555 1_555
C31 C30 1_555 1_555
H26 C31 1_555 1_555
C32 C31 1_555 1_555
H27 C32 1_555 1_555
C33 C32 1_555 1_555
H28 C33 1_555 1_555
C34 N5 1_555 1_555
C35 O22 1_555 1_555
N6 H29 1_555 1_555
C36 N6 1_555 1_555
H30 C36 1_555 1_555
H31 C36 1_555 1_555
C37 C36 1_555 1_555
H32 C37 1_555 1_555
H33 C37 1_555 1_555
H34 C37 1_555 1_555
C38 N6 1_555 1_555
H35 C38 1_555 1_555
H36 C38 1_555 1_555
C39 C38 1_555 1_555
H37 C39 1_555 1_555
H38 C39 1_555 1_555
H39 C39 1_555 1_555
N7 H40 1_555 1_555
C40 N7 1_555 1_555
H41 C40 1_555 1_555
H42 C40 1_555 1_555
C41 C40 1_555 1_555
H43 C41 1_555 1_555
H44 C41 1_555 1_555
H45 C41 1_555 1_555
C42 N7 1_555 1_555
H46 C42 1_555 1_555
H47 C42 1_555 1_555
C43 C42 1_555 1_555
H48 C43 1_555 1_555
H49 C43 1_555 1_555
H50 C43 1_555 1_555
O31 H51 1_555 1_555
H52 O31 1_555 1_555
O32 H53 1_555 1_555
H54 O32 1_555 1_555
H55 O18 1_555 1_555
H56 O25 1_555 1_555
H57 O18 1_555 1_555
H58 O25 1_555 1_555
Sm2A O19 1_555 1_555
Sm3A O24 1_555 1_555
O19A Sm2 1_555 1_555
O24A Sm3 1_555 1_555
O5 C8 1_555 1_555
O10 C21 1_555 1_555
O12 C22 1_555 1_555
O14 C28 1_555 1_555
O21 C29 1_555 1_555
O23 C35 1_555 1_555
C5 C6 1_555 1_555
C6 C7 1_555 1_555
C8 C9 1_555 1_555
C12 C13 1_555 1_555
C13 C14 1_555 1_555
C15 C16 1_555 1_555
C19 C20 1_555 1_555
C20 C21 1_555 1_555
C22 C23 1_555 1_555
C26 C27 1_555 1_555
C27 C28 1_555 1_555
C29 C30 1_555 1_555
C33 C34 1_555 1_555
C34 C35 1_555 1_555

#END
