
#######################################################################
#
#                 Cambridge Crystallographic Data Centre
#                                CCDC 
#
#######################################################################
#
# If this CIF has been generated from an entry in the Cambridge 
# Structural Database, then it will include bibliographic, chemical, 
# crystal, experimental, refinement or atomic coordinate data resulting 
# from the CCDC's data processing and validation procedures.
#
#######################################################################

data_EDADAP
_symmetry_cell_setting           tetragonal
_symmetry_space_group_name_H-M   'P 41 21 2'
_symmetry_Int_Tables_number      92
_space_group_name_Hall           'P 4abw 2nw'
loop_
_symmetry_equiv_pos_site_id
_symmetry_equiv_pos_as_xyz
1 x,y,z
2 -x,-y,1/2+z
3 1/2-y,1/2+x,1/4+z
4 1/2+y,1/2-x,3/4+z
5 1/2-x,1/2+y,1/4-z
6 1/2+x,1/2-y,3/4-z
7 y,x,-z
8 -y,-x,1/2-z
_cell_length_a                   23.897(3)
_cell_length_b                   23.897(3)
_cell_length_c                   26.124(5)
_cell_angle_alpha                90
_cell_angle_beta                 90
_cell_angle_gamma                90
_cell_volume                     14918.5
loop_
_atom_site_label
_atom_site_type_symbol
_atom_site_fract_x
_atom_site_fract_y
_atom_site_fract_z
K1 K -0.4934(3) 0.0516(3) 0.1558(2)
O50 O -0.4879(6) 0.1688(7) 0.1516(6)
O51 O -0.4766(17) -0.1428(17) 0.1506(15)
O53 O -0.4757(13) -0.2480(13) 0.1527(12)
O54 O -0.4879(17) 0.5161(17) 0.1185(17)
O55 O -0.527(4) 0.495(4) 0.051(4)
O56 O -0.3732(16) 0.4586(16) -0.1066(15)
O57 O -0.116(3) 0.126(3) 0.160(3)
O59 O -0.394(2) 0.254(2) -0.2768(19)
O61 O -0.342(4) 0.496(4) -0.200(4)
O63 O -0.089(3) 0.092(3) -0.113(3)
B1 B -0.2951(10) 0.2591(9) 0.0020(9)
W1 W -0.26221(4) 0.11972(4) -0.02697(4)
W2 W -0.38963(4) 0.16564(4) -0.04972(3)
W3 W -0.43024(4) 0.30845(4) -0.01430(4)
W4 W -0.23961(4) 0.36549(4) -0.07374(3)
W5 W -0.33757(4) 0.28387(4) -0.12326(3)
W6 W -0.20967(4) 0.23475(4) -0.10488(4)
W7 W -0.19269(4) 0.34357(4) 0.05768(3)
W8 W -0.15815(4) 0.21513(4) 0.02549(4)
W9 W -0.34902(4) 0.14669(4) 0.06992(3)
W10 W -0.24169(4) 0.23755(4) 0.12538(4)
W11 W -0.33487(4) 0.39381(4) 0.03221(4)
W12 W -0.38296(4) 0.29051(4) 0.10402(4)
O1 O -0.3150(5) 0.2001(5) 0.0000(5)
O2 O -0.2441(5) 0.2636(5) 0.0365(5)
O3 O -0.2771(5) 0.2784(5) -0.0530(4)
O4 O -0.3401(5) 0.2974(5) 0.0210(5)
O5 O -0.3338(6) 0.1105(5) -0.0598(5)
O6 O -0.2650(5) 0.3769(5) 0.0610(5)
O7 O -0.1353(5) 0.2890(6) 0.0431(5)
O8 O -0.1640(5) 0.2348(5) -0.0435(5)
O9 O -0.2701(5) 0.2459(5) -0.1493(4)
O10 O -0.2971(6) 0.3949(5) -0.0330(5)
O11 O -0.4043(5) 0.3841(5) -0.0002(5)
O12 O -0.4021(5) 0.1333(5) 0.0169(5)
O13 O -0.2051(5) 0.3086(5) 0.1210(5)
O14 O -0.3616(5) 0.2124(5) -0.1001(5)
O15 O -0.3906(5) 0.3145(6) -0.0788(5)
O16 O -0.2971(5) 0.0966(5) 0.0344(5)
O17 O -0.2856(6) 0.1762(5) 0.1047(5)
O18 O -0.3864(5) 0.2126(5) 0.0898(4)
O19 O -0.3113(6) 0.2782(5) 0.1285(5)
O20 O -0.1963(5) 0.3590(5) -0.0139(5)
O21 O -0.1934(6) 0.3142(5) -0.1099(5)
O22 O -0.1755(5) 0.2048(6) 0.0967(5)
O23 O -0.2389(5) 0.1661(5) -0.0825(5)
O24 O -0.4286(5) 0.2303(5) -0.0258(5)
O25 O -0.4438(5) 0.2992(5) 0.0575(5)
O26 O -0.2030(5) 0.1500(5) 0.0116(5)
O27 O -0.3686(5) 0.3672(5) 0.0953(5)
O28 O -0.6020(6) -0.1530(5) -0.0779(5)
O29 O -0.3733(6) 0.2903(7) -0.1804(6)
O30 O -0.1604(6) 0.2141(6) -0.1477(5)
O31 O -0.2312(7) 0.2197(7) 0.1881(6)
O32 O -0.2155(6) 0.4278(5) -0.0986(5)
O33 O -0.2976(5) 0.3523(5) -0.1236(5)
O34 O -0.4964(5) 0.3242(6) -0.0353(5)
O35 O -0.3719(7) 0.0988(5) 0.1145(5)
O36 O -0.2348(6) 0.0584(6) -0.0443(6)
O37 O -0.0940(5) 0.1855(6) 0.0270(6)
O38 O -0.4226(7) 0.2910(7) 0.1570(6)
O39 O -0.4430(5) 0.1331(6) -0.0838(5)
O40 O -0.3384(6) 0.4644(6) 0.0443(6)
Cu1 Cu -0.50435(11) -0.15879(11) -0.10842(10)
Cu2 Cu -0.53051(11) 0.00130(11) -0.21810(10)
Cu3 Cu -0.54776(11) 0.12589(11) -0.07743(10)
O41 O -0.4933(6) -0.1087(6) -0.0498(5)
O42 O -0.5185(6) -0.0960(6) -0.1545(6)
O43 O -0.5224(5) -0.0758(6) -0.2382(5)
O44 O -0.4891(6) -0.1111(6) 0.0362(5)
O45 O -0.5106(6) 0.0474(5) 0.0522(5)
O46 O -0.5413(6) 0.0793(6) -0.2235(5)
O47 O -0.5404(5) 0.0772(6) -0.1379(5)
O48 O -0.5224(6) 0.0649(6) -0.0307(5)
N1 N -0.4817(7) -0.2180(7) -0.0590(6)
H1 H -0.5079 -0.2133 -0.0812
C1 C -0.4887(9) -0.1351(9) -0.0090(10)
C2 C -0.4862(9) -0.1987(9) -0.0089(9)
H2 H -0.5215 -0.2127 0.0053
C3 C -0.4394(4) -0.2188(4) 0.0254(4)
H3 H -0.4311 -0.1924 0.0527
H4 H -0.4469 -0.2554 0.0398
C4 C -0.4276(4) -0.2480(4) -0.0719(4)
H7 H -0.4096 -0.2343 -0.1027
H8 H -0.4305 -0.2885 -0.0725
C5 C -0.3965(4) -0.2203(4) -0.0124(4)
H11 H -0.3661 -0.2442 -0.0011
H12 H -0.3818 -0.1830 -0.0181
N2 N -0.5103(4) -0.2078(4) -0.1697(4)
H15 H -0.4759 -0.2222 -0.1766
C7 C -0.5208(4) -0.1106(4) -0.2043(4)
C8 C -0.5272(4) -0.1706(4) -0.2133(4)
H16 H -0.5059 -0.1811 -0.2439
C9 C -0.5914(10) -0.1863(10) -0.2218(10)
H17 H -0.6150 -0.1682 -0.1965
H18 H -0.6039 -0.1756 -0.2557
C10 C -0.5920(9) -0.2498(10) -0.2151(9)
H19 H -0.6293 -0.2636 -0.2075
H20 H -0.5776 -0.2688 -0.2452
C11 C -0.5535(10) -0.2561(10) -0.1703(9)
H21 H -0.5342 -0.2917 -0.1724
H22 H -0.5750 -0.2556 -0.1388
N3 N -0.5651(7) 0.1870(7) -0.1283(6)
H23 H -0.6015 0.1974 -0.1244
C12 C -0.5458(9) 0.1032(8) -0.1801(9)
C13 C -0.5572(8) 0.1682(8) -0.1793(8)
H24 H -0.5921 0.1749 -0.1980
C14 C -0.5128(9) 0.2030(9) -0.2034(8)
H25 H -0.4762 0.1858 -0.2000
H26 H -0.5205 0.2099 -0.2393
C15 C -0.5168(10) 0.2504(11) -0.1752(9)
H27 H -0.5458 0.2743 -0.1893
H28 H -0.4816 0.2706 -0.1764
C16 C -0.5295(10) 0.2374(10) -0.1254(9)
H29 H -0.5495 0.2679 -0.1092
H30 H -0.4958 0.2298 -0.1060
N4 N -0.5443(6) 0.1749(6) -0.0139(6)
H31 H -0.5232 0.1756 -0.0406
C17 C -0.5197(9) 0.0796(9) 0.0157(10)
C18 C -0.5359(9) 0.1406(9) 0.0313(9)
H32 H -0.5063 0.1568 0.0527
C19 C -0.5934(9) 0.1446(9) 0.0597(9)
H33 H -0.6198 0.1177 0.0459
H34 H -0.5888 0.1375 0.0960
C20 C -0.6128(11) 0.2014(10) 0.0510(9)
H35 H -0.5938 0.2281 0.0729
H36 H -0.6529 0.2047 0.0558
C21 C -0.5960(9) 0.2089(9) -0.0061(8)
H37 H -0.6257 0.1958 -0.0284
H38 H -0.5887 0.2480 -0.0135
O49 O -0.6375(7) 0.0887(7) -0.0602(6)
W7F W -0.65643(4) -0.19269(4) -0.05768(3)
O28F O -0.1530(5) 0.3980(6) 0.0779(5)
Cu2B Cu -0.50130(11) -0.03051(11) 0.03190(10)
O44C O -0.6111(6) -0.0109(6) -0.2138(5)
O45C O -0.4526(5) 0.0106(6) -0.1978(5)
H5? H -0.4533 -0.2359 0.0566
H6? H -0.4143 -0.1883 0.0342
H9? H -0.4010 -0.2226 -0.0875
H10? H -0.4331 -0.2801 -0.0941
C6? C -0.4073(4) -0.2672(4) -0.0140(4)
H13? H -0.3669 -0.2655 -0.0108
H14? H -0.4197 -0.3049 -0.0062
O52? O -0.4704(13) -0.1121(15) 0.1642(12)
O58? O -0.088(2) 0.154(2) 0.152(2)
O60? O 0.0872(19) 0.188(2) 0.0314(17)
O62? O -0.330(3) 0.506(3) -0.165(3)
O64? O -0.579(3) 0.449(3) 0.088(3)
loop_
_geom_bond_atom_site_label_1
_geom_bond_atom_site_label_2
_geom_bond_site_symmetry_1
_geom_bond_site_symmetry_2
B1 O1 1_555 1_555
W1 O1 1_555 1_555
W2 O1 1_555 1_555
W3 O4 1_555 1_555
W4 O3 1_555 1_555
W5 O3 1_555 1_555
W6 O3 1_555 1_555
W7 O2 1_555 1_555
W8 O2 1_555 1_555
W9 O1 1_555 1_555
W10 O2 1_555 1_555
W11 O4 1_555 1_555
W12 O4 1_555 1_555
O2 B1 1_555 1_555
O3 B1 1_555 1_555
O4 B1 1_555 1_555
O5 W1 1_555 1_555
O6 W7 1_555 1_555
O7 W7 1_555 1_555
O8 W6 1_555 1_555
O9 W5 1_555 1_555
O10 W4 1_555 1_555
O11 W3 1_555 1_555
O12 W2 1_555 1_555
O13 W7 1_555 1_555
O14 W2 1_555 1_555
O15 W3 1_555 1_555
O16 W1 1_555 1_555
O17 W9 1_555 1_555
O18 W9 1_555 1_555
O19 W10 1_555 1_555
O20 W4 1_555 1_555
O21 W4 1_555 1_555
O22 W8 1_555 1_555
O23 W1 1_555 1_555
O24 W2 1_555 1_555
O25 W3 1_555 1_555
O26 W1 1_555 1_555
O27 W11 1_555 1_555
O28 Cu1 1_555 1_555
O29 W5 1_555 1_555
O30 W6 1_555 1_555
O31 W10 1_555 1_555
O32 W4 1_555 1_555
O33 W4 1_555 1_555
O34 W3 1_555 1_555
O35 W9 1_555 1_555
O36 W1 1_555 1_555
O37 W8 1_555 1_555
O38 W12 1_555 1_555
O39 W2 1_555 1_555
O40 W11 1_555 1_555
Cu1 O41 1_555 1_555
Cu2 O43 1_555 1_555
Cu3 O39 1_555 1_555
O41 C1 1_555 1_555
O42 Cu1 1_555 1_555
O43 C7 1_555 1_555
O44 C1 1_555 1_555
O45 C17 1_555 1_555
O46 Cu2 1_555 1_555
O47 Cu3 1_555 1_555
O48 Cu3 1_555 1_555
N1 Cu1 1_555 1_555
H1 N1 1_555 1_555
C1 C2 1_555 1_555
C2 N1 1_555 1_555
H2 C2 1_555 1_555
C3 C2 1_555 1_555
H3 C3 1_555 1_555
H4 C3 1_555 1_555
C4 N1 1_555 1_555
H7 C4 1_555 1_555
H8 C4 1_555 1_555
C5 C3 1_555 1_555
H11 C5 1_555 1_555
H12 C5 1_555 1_555
N2 Cu1 1_555 1_555
H15 N2 1_555 1_555
C7 O42 1_555 1_555
C8 N2 1_555 1_555
H16 C8 1_555 1_555
C9 C8 1_555 1_555
H17 C9 1_555 1_555
H18 C9 1_555 1_555
C10 C9 1_555 1_555
H19 C10 1_555 1_555
H20 C10 1_555 1_555
C11 N2 1_555 1_555
H21 C11 1_555 1_555
H22 C11 1_555 1_555
N3 Cu3 1_555 1_555
H23 N3 1_555 1_555
C12 O46 1_555 1_555
C13 N3 1_555 1_555
H24 C13 1_555 1_555
C14 C13 1_555 1_555
H25 C14 1_555 1_555
H26 C14 1_555 1_555
C15 C14 1_555 1_555
H27 C15 1_555 1_555
H28 C15 1_555 1_555
C16 N3 1_555 1_555
H29 C16 1_555 1_555
H30 C16 1_555 1_555
N4 Cu3 1_555 1_555
H31 N4 1_555 1_555
C17 O48 1_555 1_555
C18 N4 1_555 1_555
H32 C18 1_555 1_555
C19 C18 1_555 1_555
H33 C19 1_555 1_555
H34 C19 1_555 1_555
C20 C19 1_555 1_555
H35 C20 1_555 1_555
H36 C20 1_555 1_555
C21 N4 1_555 1_555
H37 C21 1_555 1_555
H38 C21 1_555 1_555
O49 Cu3 1_555 1_555
W7F O28 1_555 1_555
O28F W7 1_555 1_555
Cu2B O44 1_555 1_555
O44C Cu2 1_555 1_555
O45C Cu2 1_555 1_555
W2 O5 1_555 1_555
W3 O24 1_555 1_555
W5 O14 1_555 1_555
W5 O15 1_555 1_555
W5 O33 1_555 1_555
W6 O9 1_555 1_555
W6 O21 1_555 1_555
W6 O23 1_555 1_555
W7 O20 1_555 1_555
W8 O7 1_555 1_555
W8 O8 1_555 1_555
W8 O26 1_555 1_555
W9 O12 1_555 1_555
W9 O16 1_555 1_555
W10 O13 1_555 1_555
W10 O17 1_555 1_555
W10 O22 1_555 1_555
W11 O6 1_555 1_555
W11 O10 1_555 1_555
W11 O11 1_555 1_555
W12 O18 1_555 1_555
W12 O19 1_555 1_555
W12 O25 1_555 1_555
W12 O27 1_555 1_555
O45 Cu2B 1_555 1_555
O47 C12 1_555 1_555
C4 C5 1_555 1_555
C7 C8 1_555 1_555
C10 C11 1_555 1_555
C12 C13 1_555 1_555
C15 C16 1_555 1_555
C17 C18 1_555 1_555
C20 C21 1_555 1_555

#END
