
#######################################################################
#
#                 Cambridge Crystallographic Data Centre
#                                CCDC 
#
#######################################################################
#
# If this CIF has been generated from an entry in the Cambridge 
# Structural Database, then it will include bibliographic, chemical, 
# crystal, experimental, refinement or atomic coordinate data resulting 
# from the CCDC's data processing and validation procedures.
#
#######################################################################

data_EDADEU
_symmetry_cell_setting           triclinic
_symmetry_space_group_name_H-M   'P -1'
_symmetry_Int_Tables_number      2
_space_group_name_Hall           '-P 1'
loop_
_symmetry_equiv_pos_site_id
_symmetry_equiv_pos_as_xyz
1 x,y,z
2 -x,-y,-z
_cell_length_a                   9.601(5)
_cell_length_b                   13.798(5)
_cell_length_c                   15.061(5)
_cell_angle_alpha                64.402(5)
_cell_angle_beta                 89.406(5)
_cell_angle_gamma                86.927(5)
_cell_volume                     1796.6
loop_
_atom_site_label
_atom_site_type_symbol
_atom_site_fract_x
_atom_site_fract_y
_atom_site_fract_z
Ni1 Ni 0.25621(5) 0.44159(3) 0.25926(3)
O1 O 0.2338(3) 1.29477(18) 0.24616(18)
O2 O 0.1504(3) 1.44556(18) 0.12649(18)
N1 N 0.4705(3) 0.2292(3) 0.5146(2)
C1 C 0.1772(4) 1.3457(3) 0.1618(3)
O3 O 0.2549(3) 0.60315(19) 0.21487(19)
N2 N 0.8478(3) -0.5139(3) 0.3373(3)
N3 N 1.0654(3) -0.5673(2) 0.3250(2)
O4 O 0.2487(4) 0.6075(2) 0.3611(2)
C2 C 0.1452(4) 1.2848(3) 0.1031(3)
N4 N 0.6309(4) 0.4093(3) 0.1240(3)
C3 C 0.1873(4) 0.9983(3) 0.1316(3)
C4 C 0.2004(4) 0.8277(3) 0.2762(3)
H1 H 0.1966 0.7895 0.3443
N5 N 0.3614(3) 0.3667(2) 0.3931(2)
C5 C 0.1858(4) 1.1769(3) 0.1384(3)
H2 H 0.2355 1.1434 0.1976
N6 N 0.4423(3) 0.4539(2) 0.1846(2)
C6 C 0.1541(4) 1.1167(3) 0.0875(3)
C7 C 0.6608(4) 0.0873(3) 0.5458(3)
C8 C 0.2269(4) 0.7726(3) 0.2193(3)
C9 C 0.0719(4) 1.3355(3) 0.0139(3)
H3 H 0.0440 1.4081 -0.0108
C10 C 0.2167(4) 0.9427(3) 0.0754(3)
H4 H 0.2235 0.9808 0.0075
C11 C 0.7056(4) -0.0203(3) 0.5880(3)
H5 H 0.6460 -0.0711 0.6294
C12 C 0.2361(4) 0.8314(3) 0.1183(3)
H6 H 0.2555 0.7960 0.0789
C13 C 0.1796(4) 0.9385(3) 0.2337(3)
H7 H 0.1602 0.9736 0.2733
C14 C 0.0411(5) 1.2774(3) -0.0375(3)
H8 H -0.0080 1.3111 -0.0970
C15 C 0.5217(4) 0.1190(3) 0.5755(3)
H9 H 0.4534 0.0707 0.5735
H10 H 0.5292 0.1092 0.6431
C16 C 0.9293(4) 0.0182(3) 0.5091(3)
C17 C 0.2452(4) 0.6512(3) 0.2699(3)
C18 C 0.4281(4) 0.4021(3) 0.4524(3)
H11 H 0.4268 0.4734 0.4429
C19 C 0.8362(4) -0.0540(3) 0.5703(3)
H12 H 0.8627 -0.1270 0.6002
C20 C 0.0822(4) 1.1695(3) -0.0019(3)
H13 H 0.0616 1.1317 -0.0380
C21 C 0.7112(4) 0.0044(4) 0.2037(3)
C22 C 0.7120(4) -0.1122(3) 0.2284(3)
C23 C 0.7183(4) -0.3349(3) 0.2776(3)
C24 C 0.6025(5) -0.1585(4) 0.2052(4)
H14 H 0.5241 -0.1154 0.1732
C25 C 0.4962(4) 0.3189(3) 0.5268(3)
H15 H 0.5498 0.3222 0.5764
C26 C 0.8250(5) -0.1815(4) 0.2761(4)
H16 H 0.9014 -0.1537 0.2927
C27 C 0.5280(4) 0.3746(3) 0.1885(3)
H17 H 0.5180 0.3027 0.2313
C28 C 0.3903(4) 0.2617(3) 0.4335(3)
H18 H 0.3587 0.2157 0.4085
C29 C 1.0304(5) -0.5944(4) 0.4176(3)
H19 H 1.0923 -0.6319 0.4699
C30 C 0.7272(5) 0.2279(4) 0.1455(4)
C31 C 0.6105(5) 0.5179(3) 0.0762(3)
H20 H 0.6659 0.5651 0.0272
C32 C 0.9018(5) -0.5646(4) 0.4309(3)
H21 H 0.8584 -0.5756 0.4897
C33 C 0.8290(5) -0.2898(4) 0.3000(4)
H22 H 0.9076 -0.3330 0.3317
C34 C 0.8835(5) 0.1262(3) 0.4674(4)
H23 H 0.9431 0.1774 0.4267
C35 C 0.6062(5) -0.2666(4) 0.2281(4)
H24 H 0.5313 -0.2942 0.2098
C36 C 0.7522(5) 0.1595(3) 0.4848(4)
H25 H 0.7249 0.2323 0.4547
C37 C 0.7136(5) -0.4538(4) 0.3064(4)
H26 H 0.6484 -0.4841 0.3598
H27 H 0.6781 -0.4635 0.2509
C38 C 0.7481(5) 0.3472(4) 0.1068(4)
H28 H 0.8312 0.3567 0.1377
H29 H 0.7642 0.3764 0.0366
C39 C 0.4944(5) 0.5441(3) 0.1137(3)
H30 H 0.4555 0.6136 0.0940
C40 C 0.9523(4) -0.5205(3) 0.2808(3)
H31 H 0.9427 -0.4922 0.2127
C41 C 0.8117(6) 0.0460(4) 0.2409(4)
H32 H 0.8763 -0.0014 0.2869
C42 C 0.6137(5) 0.0790(4) 0.1403(4)
H33 H 0.5408 0.0550 0.1162
C43 C 0.8196(6) 0.1547(4) 0.2123(5)
H34 H 0.8893 0.1788 0.2390
C44 C 0.6217(6) 0.1879(4) 0.1118(4)
H35 H 0.5544 0.2355 0.0688
Ni1A Ni 1.74379(5) -0.44159(3) 0.74074(3)
Ni1_2 Ni 0.25621(5) 1.44159(3) 0.25926(3)
Ni1_3 Ni 1.25621(5) -0.55841(3) 0.25926(3)
Ni1A_2 Ni 0.74379(5) 0.55841(3) 0.74074(3)
Ni1A_3 Ni 1.74379(5) -1.44159(3) 0.74074(3)
O1A O 1.7662(3) -1.29477(18) 0.75384(18)
O1_2 O 0.2338(3) 0.29477(18) 0.24616(18)
O1A_2 O 1.7662(3) -0.29477(18) 0.75384(18)
O2A O 1.8496(3) -1.44556(18) 0.87351(18)
O2_2 O 0.1504(3) 0.44556(18) 0.12649(18)
O2A_2 O 1.8496(3) -0.44556(18) 0.87351(18)
N1A N 1.5295(3) -0.2292(3) 0.4854(2)
C1A C 1.8228(4) -1.3457(3) 0.8382(3)
C1_2 C 0.1772(4) 0.3457(3) 0.1618(3)
C1A_2 C 1.8228(4) -0.3457(3) 0.8382(3)
O3A O 1.7451(3) -0.60315(19) 0.78513(19)
N2A N 1.1522(3) 0.5139(3) 0.6627(3)
N3A N 0.9346(3) 0.5673(2) 0.6750(2)
N3_2 N 0.0654(3) 0.4327(2) 0.3250(2)
N3A_2 N 1.9346(3) -0.4327(2) 0.6750(2)
O4A O 1.7513(4) -0.6075(2) 0.6389(2)
C2A C 1.8548(4) -1.2848(3) 0.8969(3)
N4A N 1.3691(4) -0.4093(3) 0.8760(3)
C3A C 1.8127(4) -0.9983(3) 0.8684(3)
C4A C 1.7996(4) -0.8277(3) 0.7238(3)
H1A H 1.8034 -0.7895 0.6557
N5A N 1.6386(3) -0.3667(2) 0.6069(2)
C5A C 1.8142(4) -1.1769(3) 0.8616(3)
H2A H 1.7645 -1.1434 0.8024
N6A N 1.5577(3) -0.4539(2) 0.8154(2)
C6A C 1.8459(4) -1.1167(3) 0.9125(3)
C7A C 1.3392(4) -0.0873(3) 0.4542(3)
C8A C 1.7731(4) -0.7726(3) 0.7807(3)
C9A C 1.9281(4) -1.3355(3) 0.9861(3)
H3A H 1.9560 -1.4081 1.0108
C10A C 1.7833(4) -0.9427(3) 0.9246(3)
H4A H 1.7765 -0.9808 0.9925
C11A C 1.2944(4) 0.0203(3) 0.4120(3)
H5A H 1.3540 0.0711 0.3706
C12A C 1.7639(4) -0.8314(3) 0.8817(3)
H6A H 1.7445 -0.7960 0.9211
C13A C 1.8204(4) -0.9385(3) 0.7663(3)
H7A H 1.8398 -0.9736 0.7267
C14A C 1.9589(5) -1.2774(3) 1.0375(3)
H8A H 2.0080 -1.3111 1.0970
C15A C 1.4783(4) -0.1190(3) 0.4245(3)
H9A H 1.5466 -0.0707 0.4265
H10A H 1.4708 -0.1092 0.3569
C16A C 1.0707(4) -0.0182(3) 0.4909(3)
C17A C 1.7548(4) -0.6512(3) 0.7301(3)
C18A C 1.5719(4) -0.4021(3) 0.5476(3)
H11A H 1.5732 -0.4734 0.5571
C19A C 1.1638(4) 0.0540(3) 0.4297(3)
H12A H 1.1373 0.1270 0.3998
C20A C 1.9178(4) -1.1695(3) 1.0019(3)
H13A H 1.9384 -1.1317 1.0380
C21A C 1.2888(4) -0.0044(4) 0.7963(3)
C22A C 1.2880(4) 0.1122(3) 0.7716(3)
C23A C 1.2817(4) 0.3349(3) 0.7224(3)
C24A C 1.3975(5) 0.1585(4) 0.7948(4)
H14A H 1.4759 0.1154 0.8268
C25A C 1.5038(4) -0.3189(3) 0.4732(3)
H15A H 1.4502 -0.3222 0.4236
C26A C 1.1750(5) 0.1815(4) 0.7239(4)
H16A H 1.0986 0.1537 0.7073
C27A C 1.4720(4) -0.3746(3) 0.8115(3)
H17A H 1.4820 -0.3027 0.7687
C28A C 1.6097(4) -0.2617(3) 0.5665(3)
H18A H 1.6413 -0.2157 0.5915
C29A C 0.9696(5) 0.5944(4) 0.5824(3)
H19A H 0.9077 0.6319 0.5301
C30A C 1.2728(5) -0.2279(4) 0.8545(4)
C31A C 1.3895(5) -0.5179(3) 0.9238(3)
H20A H 1.3341 -0.5651 0.9728
C32A C 1.0982(5) 0.5646(4) 0.5691(3)
H21A H 1.1416 0.5756 0.5103
C33A C 1.1710(5) 0.2898(4) 0.7000(4)
H22A H 1.0924 0.3330 0.6683
C34A C 1.1165(5) -0.1262(3) 0.5326(4)
H23A H 1.0569 -0.1774 0.5733
C35A C 1.3938(5) 0.2666(4) 0.7719(4)
H24A H 1.4687 0.2942 0.7902
C36A C 1.2478(5) -0.1595(3) 0.5152(4)
H25A H 1.2751 -0.2323 0.5453
C37A C 1.2864(5) 0.4538(4) 0.6936(4)
H26A H 1.3516 0.4841 0.6402
H27A H 1.3219 0.4635 0.7491
C38A C 1.2519(5) -0.3472(4) 0.8932(4)
H28A H 1.1688 -0.3567 0.8623
H29A H 1.2358 -0.3764 0.9634
C39A C 1.5056(5) -0.5441(3) 0.8863(3)
H30A H 1.5445 -0.6136 0.9060
C40A C 1.0477(4) 0.5205(3) 0.7192(3)
H31A H 1.0573 0.4922 0.7873
C41A C 1.1883(6) -0.0460(4) 0.7591(4)
H32A H 1.1237 0.0014 0.7131
C42A C 1.3863(5) -0.0790(4) 0.8597(4)
H33A H 1.4592 -0.0550 0.8838
C43A C 1.1804(6) -0.1547(4) 0.7877(5)
H34A H 1.1107 -0.1788 0.7610
C44A C 1.3783(6) -0.1879(4) 0.8882(4)
H35A H 1.4456 -0.2355 0.9312
loop_
_geom_bond_atom_site_label_1
_geom_bond_atom_site_label_2
_geom_bond_site_symmetry_1
_geom_bond_site_symmetry_2
Ni1 O3 1_555 1_555
O1 C1 1_555 1_555
O2 C1 1_555 1_555
N1 C15 1_555 1_555
C1 C2 1_555 1_555
O3 C17 1_555 1_555
N2 C32 1_555 1_555
N3 C29 1_555 1_555
O4 C17 1_555 1_555
C2 C5 1_555 1_555
N4 C27 1_555 1_555
C3 C6 1_555 1_555
C4 H1 1_555 1_555
N5 Ni1 1_555 1_555
C5 H2 1_555 1_555
N6 Ni1 1_555 1_555
C6 C5 1_555 1_555
C7 C11 1_555 1_555
C8 C4 1_555 1_555
C9 C2 1_555 1_555
H3 C9 1_555 1_555
C10 C3 1_555 1_555
H4 C10 1_555 1_555
C11 H5 1_555 1_555
C12 C8 1_555 1_555
H6 C12 1_555 1_555
C13 C3 1_555 1_555
H7 C13 1_555 1_555
C14 C9 1_555 1_555
H8 C14 1_555 1_555
C15 C7 1_555 1_555
H9 C15 1_555 1_555
H10 C15 1_555 1_555
C16 C19 1_555 1_555
C17 C8 1_555 1_555
C18 N5 1_555 1_555
H11 C18 1_555 1_555
C19 C11 1_555 1_555
H12 C19 1_555 1_555
C20 C6 1_555 1_555
H13 C20 1_555 1_555
C21 C22 1_555 1_555
C22 C24 1_555 1_555
C23 C33 1_555 1_555
C24 H14 1_555 1_555
C25 N1 1_555 1_555
H15 C25 1_555 1_555
C26 C22 1_555 1_555
H16 C26 1_555 1_555
C27 N6 1_555 1_555
H17 C27 1_555 1_555
C28 N1 1_555 1_555
H18 C28 1_555 1_555
C29 H19 1_555 1_555
C30 C38 1_555 1_555
C31 N4 1_555 1_555
H20 C31 1_555 1_555
C32 C29 1_555 1_555
H21 C32 1_555 1_555
C33 C26 1_555 1_555
H22 C33 1_555 1_555
C34 C16 1_555 1_555
H23 C34 1_555 1_555
C35 C23 1_555 1_555
H24 C35 1_555 1_555
C36 C7 1_555 1_555
H25 C36 1_555 1_555
C37 N2 1_555 1_555
H26 C37 1_555 1_555
H27 C37 1_555 1_555
C38 N4 1_555 1_555
H28 C38 1_555 1_555
H29 C38 1_555 1_555
C39 N6 1_555 1_555
H30 C39 1_555 1_555
C40 N2 1_555 1_555
H31 C40 1_555 1_555
C41 C21 1_555 1_555
H32 C41 1_555 1_555
C42 C21 1_555 1_555
H33 C42 1_555 1_555
C43 C30 1_555 1_555
H34 C43 1_555 1_555
C44 C30 1_555 1_555
H35 C44 1_555 1_555
Ni1A O1A_2 1_555 1_555
Ni1_2 O1 1_555 1_555
Ni1_3 N3 1_555 1_555
Ni1A_2 N3A 1_555 1_555
Ni1A_3 O1A 1_555 1_555
O1A C1A 1_555 1_555
O1_2 Ni1 1_555 1_555
O1A_2 C1A_2 1_555 1_555
O2A Ni1A_3 1_555 1_555
O2_2 Ni1 1_555 1_555
O2A_2 Ni1A 1_555 1_555
N1A C15A 1_555 1_555
C1A O2A 1_555 1_555
C1_2 O1_2 1_555 1_555
C1A_2 O2A_2 1_555 1_555
O3A Ni1A 1_555 1_555
N2A C32A 1_555 1_555
N3A C29A 1_555 1_555
N3_2 Ni1 1_555 1_555
N3A_2 Ni1A 1_555 1_555
O4A C17A 1_555 1_555
C2A C1A 1_555 1_555
N4A C27A 1_555 1_555
C3A C6A 1_555 1_555
C4A H1A 1_555 1_555
N5A Ni1A 1_555 1_555
C5A C2A 1_555 1_555
H2A C5A 1_555 1_555
N6A Ni1A 1_555 1_555
C6A C5A 1_555 1_555
C7A C11A 1_555 1_555
C8A C4A 1_555 1_555
C9A C2A 1_555 1_555
H3A C9A 1_555 1_555
C10A C3A 1_555 1_555
H4A C10A 1_555 1_555
C11A H5A 1_555 1_555
C12A C8A 1_555 1_555
H6A C12A 1_555 1_555
C13A C3A 1_555 1_555
H7A C13A 1_555 1_555
C14A C9A 1_555 1_555
H8A C14A 1_555 1_555
C15A C7A 1_555 1_555
H9A C15A 1_555 1_555
H10A C15A 1_555 1_555
C16A C16 1_555 1_555
C17A O3A 1_555 1_555
C18A N5A 1_555 1_555
H11A C18A 1_555 1_555
C19A C11A 1_555 1_555
H12A C19A 1_555 1_555
C20A C6A 1_555 1_555
H13A C20A 1_555 1_555
C21A C22A 1_555 1_555
C22A C24A 1_555 1_555
C23A C33A 1_555 1_555
C24A H14A 1_555 1_555
C25A N1A 1_555 1_555
H15A C25A 1_555 1_555
C26A C22A 1_555 1_555
H16A C26A 1_555 1_555
C27A N6A 1_555 1_555
H17A C27A 1_555 1_555
C28A N1A 1_555 1_555
H18A C28A 1_555 1_555
C29A H19A 1_555 1_555
C30A C38A 1_555 1_555
C31A N4A 1_555 1_555
H20A C31A 1_555 1_555
C32A C29A 1_555 1_555
H21A C32A 1_555 1_555
C33A C26A 1_555 1_555
H22A C33A 1_555 1_555
C34A C16A 1_555 1_555
H23A C34A 1_555 1_555
C35A C23A 1_555 1_555
H24A C35A 1_555 1_555
C36A C7A 1_555 1_555
H25A C36A 1_555 1_555
C37A N2A 1_555 1_555
H26A C37A 1_555 1_555
H27A C37A 1_555 1_555
C38A N4A 1_555 1_555
H28A C38A 1_555 1_555
H29A C38A 1_555 1_555
C39A N6A 1_555 1_555
H30A C39A 1_555 1_555
C40A N2A 1_555 1_555
H31A C40A 1_555 1_555
C41A C21A 1_555 1_555
H32A C41A 1_555 1_555
C42A C21A 1_555 1_555
H33A C42A 1_555 1_555
C43A C30A 1_555 1_555
H34A C43A 1_555 1_555
C44A C30A 1_555 1_555
H35A C44A 1_555 1_555
O2 Ni1_2 1_555 1_555
N3 C40 1_555 1_555
C4 C13 1_555 1_555
N5 C28 1_555 1_555
C10 C12 1_555 1_555
C14 C20 1_555 1_555
C18 C25 1_555 1_555
C23 C37 1_555 1_555
C24 C35 1_555 1_555
C31 C39 1_555 1_555
C34 C36 1_555 1_555
C41 C43 1_555 1_555
C42 C44 1_555 1_555
O2_2 C1_2 1_555 1_555
N3A C40A 1_555 1_555
C4A C13A 1_555 1_555
N5A C28A 1_555 1_555
C8A C17A 1_555 1_555
C10A C12A 1_555 1_555
C14A C20A 1_555 1_555
C16A C19A 1_555 1_555
C18A C25A 1_555 1_555
C23A C37A 1_555 1_555
C24A C35A 1_555 1_555
C31A C39A 1_555 1_555
C34A C36A 1_555 1_555
C41A C43A 1_555 1_555
C42A C44A 1_555 1_555

#END
