
#######################################################################
#
#                 Cambridge Crystallographic Data Centre
#                                CCDC 
#
#######################################################################
#
# If this CIF has been generated from an entry in the Cambridge 
# Structural Database, then it will include bibliographic, chemical, 
# crystal, experimental, refinement or atomic coordinate data resulting 
# from the CCDC's data processing and validation procedures.
#
#######################################################################

data_EDADET
_symmetry_cell_setting           monoclinic
_symmetry_space_group_name_H-M   'P 21/c'
_symmetry_Int_Tables_number      14
_space_group_name_Hall           '-P 2ybc'
loop_
_symmetry_equiv_pos_site_id
_symmetry_equiv_pos_as_xyz
1 x,y,z
2 -x,1/2+y,1/2-z
3 -x,-y,-z
4 x,1/2-y,1/2+z
_cell_length_a                   6.7981(12)
_cell_length_b                   11.978(2)
_cell_length_c                   13.515(3)
_cell_angle_alpha                90
_cell_angle_beta                 100.174(2)
_cell_angle_gamma                90
_cell_volume                     1083.19
loop_
_atom_site_label
_atom_site_type_symbol
_atom_site_fract_x
_atom_site_fract_y
_atom_site_fract_z
Pr1 Pr 0.44372(12) 0.32986(8) 0.24349(6)
O1 O 0.4172(18) 0.2571(12) 0.4105(9)
O2 O 0.4952(18) 0.2441(11) 0.5771(9)
O3 O 0.1163(18) 0.1005(12) 0.7783(9)
O4 O -0.2169(17) 0.0940(11) 0.7388(9)
O5 O -0.4211(18) 0.0133(11) 0.3453(9)
O6 O -0.335(2) 0.1679(11) 0.2716(9)
O7 O 0.230(2) 0.1491(11) 0.2169(10)
H1 H 0.1216 0.1333 0.1775
H2 H 0.2481 0.0867 0.2471
O8 O 0.519(2) 0.4834(13) 0.3796(11)
H3 H 0.5833 0.4573 0.4345
H4 H 0.4992 0.5534 0.3770
N1 N 0.145(2) 0.1636(12) 0.5941(10)
C1 C 0.376(2) 0.2339(15) 0.4947(12)
C2 C 0.171(3) 0.1894(14) 0.5007(13)
C3 C -0.031(3) 0.1215(15) 0.6079(12)
C4 C -0.046(2) 0.1043(15) 0.7164(13)
C5 C -0.183(2) 0.0974(14) 0.5284(13)
H5 H -0.3010 0.0641 0.5394
C6 C -0.156(3) 0.1238(15) 0.4327(12)
C7 C -0.317(2) 0.0996(15) 0.3430(13)
C8 C 0.021(3) 0.1742(15) 0.4184(13)
H6 H 0.0380 0.1974 0.3548
Pr1C Pr 0.44372(12) 0.17014(8) 0.74349(6)
Pr1C_2 Pr -0.55628(12) 0.17014(8) 0.74349(6)
Pr1A Pr -0.44372(12) -0.17014(8) 0.25651(6)
Pr1_2 Pr -0.55628(12) 0.32986(8) 0.24349(6)
O2C O 0.4952(18) 0.2559(11) 0.0771(9)
O3C O 0.1163(18) 0.3995(12) 0.2783(9)
O4C O 0.7831(17) 0.4060(11) 0.2388(9)
O5A O 0.4211(18) 0.5133(11) 0.1547(9)
O6_2 O 0.665(2) 0.1679(11) 0.2716(9)
N1C N 0.145(2) 0.3364(12) 0.0941(10)
O9 O 0.855(4) 0.110(3) 0.085(2)
H7 H 0.7920 0.1548 0.0389
H8 H 0.9291 0.0603 0.0648
O10 O 0.864(10) 0.951(9) 0.016(5)
loop_
_geom_bond_atom_site_label_1
_geom_bond_atom_site_label_2
_geom_bond_site_symmetry_1
_geom_bond_site_symmetry_2
Pr1 O1 1_555 1_555
O1 C1 1_555 1_555
O2 C1 1_555 1_555
O3 C4 1_555 1_555
O4 C4 1_555 1_555
O5 C7 1_555 1_555
O6 C7 1_555 1_555
O7 Pr1 1_555 1_555
H1 O7 1_555 1_555
H2 O7 1_555 1_555
O8 Pr1 1_555 1_555
H3 O8 1_555 1_555
H4 O8 1_555 1_555
N1 C2 1_555 1_555
C1 C2 1_555 1_555
C2 C8 1_555 1_555
C3 N1 1_555 1_555
C4 C3 1_555 1_555
C5 C3 1_555 1_555
H5 C5 1_555 1_555
C6 C5 1_555 1_555
C7 C6 1_555 1_555
C8 C6 1_555 1_555
H6 C8 1_555 1_555
O9 H7 1_555 1_555
H8 O9 1_555 1_555
Pr1C O2 1_555 1_555
Pr1C_2 O4 1_555 1_555
Pr1A O5 1_555 1_555
Pr1_2 O6 1_555 1_555
O2C Pr1 1_555 1_555
O3C Pr1 1_555 1_555
O4C Pr1 1_555 1_555
O5A Pr1 1_555 1_555
O6_2 Pr1 1_555 1_555
N1C Pr1 1_555 1_555
O3 Pr1C 1_555 1_555
N1 Pr1C 1_555 1_555

#END
