
#######################################################################
#
#                 Cambridge Crystallographic Data Centre
#                                CCDC 
#
#######################################################################
#
# If this CIF has been generated from an entry in the Cambridge 
# Structural Database, then it will include bibliographic, chemical, 
# crystal, experimental, refinement or atomic coordinate data resulting 
# from the CCDC's data processing and validation procedures.
#
#######################################################################

data_EDADAQ
_symmetry_cell_setting           monoclinic
_symmetry_space_group_name_H-M   'P 21/c'
_symmetry_Int_Tables_number      14
_space_group_name_Hall           '-P 2ybc'
loop_
_symmetry_equiv_pos_site_id
_symmetry_equiv_pos_as_xyz
1 x,y,z
2 -x,1/2+y,1/2-z
3 -x,-y,-z
4 x,1/2-y,1/2+z
_cell_length_a                   14.3606(12)
_cell_length_b                   13.4455(11)
_cell_length_c                   22.2071(18)
_cell_angle_alpha                90
_cell_angle_beta                 103.5486(12)
_cell_angle_gamma                90
_cell_volume                     4168.54
loop_
_atom_site_label
_atom_site_type_symbol
_atom_site_fract_x
_atom_site_fract_y
_atom_site_fract_z
Mn1 Mn 1.06096(3) 1.10648(5) 0.98611(2)
Mn2 Mn 1.85669(4) 1.17309(5) 1.08935(2)
N1 N 1.0125(2) 1.2061(3) 0.90551(15)
O1 O 1.77592(16) 1.1980(2) 1.16524(10)
O2 O 0.92124(15) 1.03757(19) 0.96008(10)
O3 O 0.84277(15) 1.1632(2) 0.99117(10)
O4 O 1.69872(15) 1.1968(2) 1.06696(11)
C1 C 0.6691(2) 1.0777(3) 0.91833(14)
H1 H 0.6638 1.1009 0.9568
O5 O 1.00035(16) 1.1644(2) 1.13967(11)
C2 C 0.7594(2) 1.0672(3) 0.90677(15)
N2 N 0.9323(2) 1.3191(3) 0.84076(16)
C3 C 1.3352(2) 1.2390(3) 1.19204(15)
O6 O 1.07406(15) 1.1935(2) 1.06284(11)
O7 O 0.15149(17) 0.9928(2) 0.91042(12)
N3 N 0.1233(2) 1.6593(3) 0.90415(14)
N4 N 0.1693(2) 1.5023(3) 0.90236(17)
C4 C 0.3093(2) 1.0560(3) 0.91893(17)
C5 C 1.1632(2) 1.2140(3) 1.16660(16)
O8 O 0.20394(16) 1.1124(2) 0.97899(11)
C6 C 0.9759(3) 1.2967(4) 0.9004(2)
C7 C 0.5864(2) 1.0545(3) 0.87409(15)
C8 C 0.6490(3) 1.3287(3) 0.86400(15)
H2 H 0.6211 1.2700 0.8734
C9 C 1.2495(2) 1.2191(3) 1.14939(15)
H3 H 1.2504 1.2089 1.1081
C10 C 0.4902(2) 1.0584(3) 0.88842(16)
C11 C 0.4071(2) 1.0292(3) 0.84591(16)
H4 H 0.4109 1.0104 0.8062
C12 C 0.7679(2) 1.0334(3) 0.84984(16)
H5 H 0.8283 1.0239 0.8423
C13 C 0.5981(2) 1.0243(3) 0.81664(16)
H6 H 0.5439 1.0107 0.7855
C14 C 1.4284(2) 1.2374(3) 1.17431(16)
C15 C 1.6060(2) 1.2234(3) 1.14085(16)
C16 C 1.6992(3) 1.2067(3) 1.12347(19)
C17 C 1.3304(2) 1.2563(3) 1.25331(16)
H7 H 1.3862 1.2709 1.2829
C18 C 1.1606(2) 1.2294(3) 1.22761(16)
H8 H 1.1031 1.2245 1.2398
C19 C 0.3240(3) 1.4188(4) 0.90519(19)
C20 C 0.6006(3) 1.4171(3) 0.86444(16)
C21 C 0.3193(2) 1.0274(3) 0.86116(17)
H9 H 0.2657 1.0064 0.8318
C22 C 0.7801(3) 1.4095(3) 0.83480(16)
C23 C 0.4785(2) 1.0875(3) 0.94573(16)
H10 H 0.5323 1.1076 0.9754
C24 C 0.7369(3) 1.3247(3) 0.85018(16)
H11 H 0.7680 1.2638 0.8512
C25 C 0.4401(3) 1.4940(3) 0.85864(16)
H12 H 0.4566 1.5457 0.8353
C26 C 0.8467(2) 1.0917(3) 0.95639(16)
C27 C 0.2149(3) 1.0532(3) 0.93743(19)
C28 C 1.5138(2) 1.2341(3) 1.21763(16)
H13 H 1.5133 1.2361 1.2594
C29 C 1.2444(3) 1.2520(3) 1.27038(16)
H14 H 1.2427 1.2646 1.3113
C30 C 0.8757(3) 1.4077(3) 0.81733(17)
H15 H 0.8650 1.4097 0.7726
H16 H 0.9118 1.4667 0.8338
C31 C 0.6450(3) 1.5014(3) 0.84889(17)
H17 H 0.6141 1.5624 0.8484
C32 C 1.4348(2) 1.2381(3) 1.11311(16)
H18 H 1.3790 1.2430 1.0820
C33 C 1.5218(3) 1.2316(3) 1.09691(16)
H19 H 1.5232 1.2329 1.0553
C34 C 1.0728(3) 1.1878(3) 1.11931(19)
C35 C 0.5066(3) 1.4199(3) 0.88012(16)
C36 C 0.6871(3) 1.0137(3) 0.80389(16)
H20 H 0.6925 0.9934 0.7648
C37 C 0.3904(2) 1.0882(3) 0.96131(16)
H21 H 0.3858 1.1102 1.0002
C38 C 0.3497(3) 1.4935(3) 0.87101(17)
H22 H 0.3067 1.5443 0.8559
C39 C 0.0732(3) 1.6125(4) 0.84999(18)
H23 H 0.0266 1.6431 0.8194
C40 C 0.1806(3) 1.5883(4) 0.93359(19)
C41 C 0.7323(3) 1.4989(3) 0.83423(18)
H24 H 0.7595 1.5573 0.8239
C42 C 1.6005(3) 1.2280(3) 1.20118(17)
H25 H 1.6567 1.2271 1.2321
C43 C 0.9422(3) 1.2371(4) 0.80577(19)
H26 H 0.9193 1.2300 0.7632
C44 C 0.4789(3) 1.3473(3) 0.91688(18)
H27 H 0.5222 1.2975 0.9337
C45 C 0.1011(3) 1.5184(4) 0.8481(2)
H28 H 0.0791 1.4727 0.8165
C46 C 0.9797(3) 1.3666(3) 0.95264(17)
H29 H 1.0288 1.3458 0.9876
H30 H 0.9190 1.3668 0.9637
H31 H 0.9938 1.4323 0.9404
C47 C 0.2247(3) 1.4115(3) 0.9188(2)
H32 H 0.1903 1.3562 0.8957
H33 H 0.2317 1.3981 0.9625
C48 C 0.9916(3) 1.1687(3) 0.84536(19)
H34 H 1.0092 1.1061 0.8341
C49 C 0.2515(3) 1.5997(4) 0.99345(15)
H35 H 0.2453 1.6646 1.0101
H36 H 0.3149 1.5918 0.9871
H37 H 0.2401 1.5500 1.0219
C50 C 0.3894(3) 1.3467(4) 0.92915(19)
H38 H 0.3732 1.2969 0.9539
Mn1B Mn 0.93904(3) 0.89352(5) 1.01389(2)
Mn1_2 Mn 0.06096(3) 1.10648(5) 0.98611(2)
Mn2_2 Mn 0.85669(4) 1.17309(5) 1.08935(2)
Mn2B Mn 0.14331(4) 0.82691(5) 0.91065(2)
Mn2B_2 Mn 0.14331(4) 1.82691(5) 0.91065(2)
O2B O 1.07876(15) 0.96243(19) 1.03992(10)
O3_2 O 1.84277(15) 1.1632(2) 0.99117(10)
O5_2 O 2.00035(16) 1.1644(2) 1.13967(11)
O7B O 1.84851(17) 1.0072(2) 1.08958(12)
N3B N 1.8767(2) 1.3407(3) 1.09585(14)
O8_2 O 1.20394(16) 1.1124(2) 0.97899(11)
loop_
_geom_bond_atom_site_label_1
_geom_bond_atom_site_label_2
_geom_bond_site_symmetry_1
_geom_bond_site_symmetry_2
Mn1 N1 1_555 1_555
Mn2 O1 1_555 1_555
N1 C6 1_555 1_555
O1 C16 1_555 1_555
O2 Mn1 1_555 1_555
O3 C26 1_555 1_555
O4 Mn2 1_555 1_555
C1 H1 1_555 1_555
O5 C34 1_555 1_555
C2 C1 1_555 1_555
N2 C6 1_555 1_555
C3 C9 1_555 1_555
O6 Mn1 1_555 1_555
O7 C27 1_555 1_555
N3 C39 1_555 1_555
N4 C40 1_555 1_555
C4 C21 1_555 1_555
C5 C9 1_555 1_555
O8 C27 1_555 1_555
C6 C46 1_555 1_555
C7 C1 1_555 1_555
C8 H2 1_555 1_555
C9 H3 1_555 1_555
C10 C7 1_555 1_555
C11 C10 1_555 1_555
H4 C11 1_555 1_555
C12 C2 1_555 1_555
H5 C12 1_555 1_555
C13 C7 1_555 1_555
H6 C13 1_555 1_555
C14 C3 1_555 1_555
C15 C16 1_555 1_555
C16 O4 1_555 1_555
C17 C3 1_555 1_555
H7 C17 1_555 1_555
C18 C5 1_555 1_555
H8 C18 1_555 1_555
C19 C38 1_555 1_555
C20 C8 1_555 1_555
C21 C11 1_555 1_555
H9 C21 1_555 1_555
C22 C24 1_555 1_555
C23 C10 1_555 1_555
H10 C23 1_555 1_555
C24 C8 1_555 1_555
H11 C24 1_555 1_555
C25 H12 1_555 1_555
C26 O2 1_555 1_555
C27 C4 1_555 1_555
C28 C14 1_555 1_555
H13 C28 1_555 1_555
C29 C17 1_555 1_555
H14 C29 1_555 1_555
C30 N2 1_555 1_555
H15 C30 1_555 1_555
H16 C30 1_555 1_555
C31 C20 1_555 1_555
H17 C31 1_555 1_555
C32 C14 1_555 1_555
H18 C32 1_555 1_555
C33 C15 1_555 1_555
H19 C33 1_555 1_555
C34 O6 1_555 1_555
C35 C20 1_555 1_555
C36 C12 1_555 1_555
H20 C36 1_555 1_555
C37 C4 1_555 1_555
H21 C37 1_555 1_555
C38 C25 1_555 1_555
H22 C38 1_555 1_555
C39 H23 1_555 1_555
C40 N3 1_555 1_555
C41 C22 1_555 1_555
H24 C41 1_555 1_555
C42 C15 1_555 1_555
H25 C42 1_555 1_555
C43 N2 1_555 1_555
H26 C43 1_555 1_555
C44 C35 1_555 1_555
H27 C44 1_555 1_555
C45 N4 1_555 1_555
H28 C45 1_555 1_555
C46 H29 1_555 1_555
H30 C46 1_555 1_555
H31 C46 1_555 1_555
C47 N4 1_555 1_555
H32 C47 1_555 1_555
H33 C47 1_555 1_555
C48 N1 1_555 1_555
H34 C48 1_555 1_555
C49 C40 1_555 1_555
H35 C49 1_555 1_555
H36 C49 1_555 1_555
H37 C49 1_555 1_555
C50 C19 1_555 1_555
H38 C50 1_555 1_555
Mn1B O2 1_555 1_555
Mn1_2 O8 1_555 1_555
Mn2_2 O3 1_555 1_555
Mn2B O7 1_555 1_555
Mn2B_2 N3 1_555 1_555
O2B Mn1 1_555 1_555
O3_2 Mn2 1_555 1_555
O5_2 Mn2 1_555 1_555
O7B Mn2 1_555 1_555
N3B Mn2 1_555 1_555
O8_2 Mn1 1_555 1_555
O5 Mn2_2 1_555 1_555
C2 C26 1_555 1_555
C5 C34 1_555 1_555
C13 C36 1_555 1_555
C18 C29 1_555 1_555
C19 C47 1_555 1_555
C22 C30 1_555 1_555
C23 C37 1_555 1_555
C25 C35 1_555 1_555
C28 C42 1_555 1_555
C31 C41 1_555 1_555
C32 C33 1_555 1_555
C39 C45 1_555 1_555
C43 C48 1_555 1_555
C44 C50 1_555 1_555
Mn1B O2B 1_555 1_555

#END
