
#######################################################################
#
#                 Cambridge Crystallographic Data Centre
#                                CCDC 
#
#######################################################################
#
# If this CIF has been generated from an entry in the Cambridge 
# Structural Database, then it will include bibliographic, chemical, 
# crystal, experimental, refinement or atomic coordinate data resulting 
# from the CCDC's data processing and validation procedures.
#
#######################################################################

data_EDAHEX
_symmetry_cell_setting           monoclinic
_symmetry_space_group_name_H-M   'P 2/n'
_symmetry_Int_Tables_number      13
_space_group_name_Hall           '-P 2yac'
loop_
_symmetry_equiv_pos_site_id
_symmetry_equiv_pos_as_xyz
1 x,y,z
2 1/2-x,y,1/2-z
3 -x,-y,-z
4 1/2+x,-y,1/2+z
_cell_length_a                   13.0030(9)
_cell_length_b                   16.8653(12)
_cell_length_c                   21.5855(15)
_cell_angle_alpha                90
_cell_angle_beta                 94.5690(10)
_cell_angle_gamma                90
_cell_volume                     4718.65
loop_
_atom_site_label
_atom_site_type_symbol
_atom_site_fract_x
_atom_site_fract_y
_atom_site_fract_z
Cd1 Cd 1.2500 0.256048(16) 0.7500
Cd2 Cd 0.7500 0.243897(16) 0.2500
F1 F 0.67181(14) 0.00791(12) 0.66213(8)
F2 F 0.99212(12) -0.06515(13) 0.59254(8)
F3 F 0.58337(13) -0.00953(12) 0.54782(8)
F4 F 0.90333(13) -0.08199(12) 0.47703(7)
F5 F 0.98948(12) 0.58050(12) 0.55963(7)
F6 F 0.71555(13) 0.51816(12) 0.68185(8)
F7 F 0.86281(13) 0.56445(12) 0.45702(7)
F8 F 0.58941(13) 0.50640(12) 0.57971(9)
O1 O 1.24881(18) 0.21742(14) 0.64144(10)
O2 O 1.3016(2) 0.26635(16) 0.55714(11)
O3 O 1.34873(18) 0.31944(15) 0.64531(11)
O4 O 0.91264(18) 0.28013(15) 0.30313(11)
O5 O 1.0711(3) 0.24134(19) 0.3199(2)
O6 O 0.9686(2) 0.17762(16) 0.25554(13)
N1 N 1.11098(17) 0.16503(14) 0.73436(10)
N2 N 0.73565(17) 0.14278(14) 0.32431(10)
N3 N 1.13004(16) 0.35764(14) 0.71787(10)
N4 N 0.70551(18) 0.33599(14) 0.32671(10)
N5 N 1.3003(2) 0.26838(16) 0.61358(12)
N6 N 0.9845(2) 0.23208(18) 0.29308(17)
C1 C 1.1006(2) 0.10447(17) 0.77317(12)
H2 H 1.1447 0.1024 0.8104
C2 C 1.0470(2) 0.16653(18) 0.68235(13)
H3 H 1.0531 0.2090 0.6540
C3 C 1.0292(2) 0.04476(17) 0.76196(12)
H4 H 1.0250 0.0029 0.7911
C4 C 0.9732(2) 0.10999(18) 0.66817(12)
H5 H 0.9289 0.1145 0.6312
C5 C 0.9632(2) 0.04587(17) 0.70800(12)
C6 C 0.8861(2) -0.0211(2) 0.69656(13)
H6 H 0.9217 -0.0718 0.7070
H7 H 0.8313 -0.0146 0.7255
C7 C 0.8353(2) -0.02746(18) 0.63128(12)
C8 C 0.7315(2) -0.01367(19) 0.61674(13)
C9 C 0.8900(2) -0.05034(18) 0.58213(13)
C10 C 0.6859(2) -0.0235(2) 0.55789(13)
C11 C 0.8449(2) -0.05927(18) 0.52240(12)
C12 C 0.7402(2) -0.04638(16) 0.50829(12)
C13 C 0.6895(2) -0.05764(17) 0.44372(12)
H8 H 0.6146 -0.0660 0.4462
H9 H 0.7180 -0.1057 0.4251
C14 C 0.7056(2) 0.01247(17) 0.40236(12)
C15 C 0.6407(2) 0.07810(18) 0.40086(12)
H10 H 0.5851 0.0798 0.4268
C16 C 0.7870(2) 0.01424(17) 0.36405(12)
H11 H 0.8337 -0.0290 0.3635
C17 C 0.6572(2) 0.14075(18) 0.36171(13)
H12 H 0.6112 0.1845 0.3610
C18 C 0.7984(2) 0.08024(17) 0.32677(12)
H13 H 0.8548 0.0808 0.3013
C19 C 1.1608(2) 0.42183(17) 0.68745(12)
H14 H 1.2284 0.4222 0.6737
C20 C 1.0336(2) 0.35799(18) 0.73600(13)
H15 H 1.0104 0.3128 0.7571
C21 C 1.0983(2) 0.48764(17) 0.67522(12)
H16 H 1.1235 0.5320 0.6539
C22 C 0.9668(2) 0.42070(17) 0.72544(12)
H17 H 0.8993 0.4183 0.7391
C23 C 0.9993(2) 0.48847(16) 0.69423(12)
C24 C 0.9282(2) 0.55921(17) 0.68232(12)
H18 H 0.8866 0.5665 0.7183
H19 H 0.9704 0.6076 0.6784
C25 C 0.8571(2) 0.54931(16) 0.62434(11)
C26 C 0.8908(2) 0.56043(17) 0.56540(12)
C27 C 0.7549(2) 0.53020(19) 0.62622(12)
C28 C 0.8253(2) 0.55213(17) 0.51258(12)
C29 C 0.6888(2) 0.5221(2) 0.57306(13)
C30 C 0.7221(2) 0.53195(18) 0.51429(12)
C31 C 0.6505(2) 0.52502(19) 0.45578(13)
H20 H 0.6541 0.5751 0.4322
H21 H 0.5790 0.5197 0.4680
C32 C 0.6712(2) 0.45698(17) 0.41266(12)
C33 C 0.7365(2) 0.39356(17) 0.42817(12)
H22 H 0.7703 0.3901 0.4687
C34 C 0.6229(2) 0.45738(17) 0.35265(12)
H23 H 0.5775 0.4993 0.3396
C35 C 0.7522(2) 0.33559(18) 0.38479(12)
H24 H 0.7981 0.2934 0.3964
C36 C 0.6414(2) 0.39693(18) 0.31250(12)
H25 H 0.6067 0.3982 0.2721
Cd2_2 Cd 1.7500 0.243897(16) 1.2500
F1A F 1.82819(14) 0.00791(12) 0.83787(8)
F2A F 1.50788(12) -0.06515(13) 0.90746(8)
F3A F 1.91663(13) -0.00953(12) 0.95218(8)
F4A F 1.59667(13) -0.08199(12) 1.02297(7)
F5A F 1.51052(12) 0.58050(12) 0.94037(7)
F6A F 1.78445(13) 0.51816(12) 0.81815(8)
F7A F 1.63719(13) 0.56445(12) 1.04298(7)
F8A F 1.91059(13) 0.50640(12) 0.92029(9)
O1A O 1.25119(18) 0.21742(14) 0.85856(10)
O2A O 1.1984(2) 0.26635(16) 0.94286(11)
O3A O 1.15127(18) 0.31944(15) 0.85469(11)
O4A O 0.58736(18) 0.28013(15) 0.19687(11)
O5A O 0.4289(3) 0.24134(19) 0.1801(2)
O6A O 0.5314(2) 0.17762(16) 0.24446(13)
N1A N 1.38902(17) 0.16503(14) 0.76564(10)
N2A N 1.76435(17) 0.14278(14) 1.17569(10)
N2A_2 N 0.76435(17) 0.14278(14) 0.17569(10)
N3A N 1.36996(16) 0.35764(14) 0.78213(10)
N4A N 1.79449(18) 0.33599(14) 1.17329(10)
N4A_2 N 0.79449(18) 0.33599(14) 0.17329(10)
N5A N 1.1997(2) 0.26838(16) 0.88642(12)
N6A N 0.5155(2) 0.23208(18) 0.20692(17)
C1A C 1.3994(2) 0.10447(17) 0.72683(12)
H2A H 1.3553 0.1024 0.6896
C2A C 1.4530(2) 0.16653(18) 0.81765(13)
H3A H 1.4469 0.2090 0.8460
C3A C 1.4708(2) 0.04476(17) 0.73804(12)
H4A H 1.4750 0.0029 0.7089
C4A C 1.5268(2) 0.10999(18) 0.83183(12)
H5A H 1.5711 0.1145 0.8688
C5A C 1.5368(2) 0.04587(17) 0.79200(12)
C6A C 1.6139(2) -0.0211(2) 0.80344(13)
H6A H 1.5783 -0.0718 0.7930
H7A H 1.6687 -0.0146 0.7745
C7A C 1.6647(2) -0.02746(18) 0.86872(12)
C8A C 1.7685(2) -0.01367(19) 0.88326(13)
C9A C 1.6100(2) -0.05034(18) 0.91787(13)
C10A C 1.8141(2) -0.0235(2) 0.94211(13)
C11A C 1.6551(2) -0.05927(18) 0.97760(12)
C12A C 1.7598(2) -0.04638(16) 0.99171(12)
C13A C 1.8105(2) -0.05764(17) 1.05628(12)
H8A H 1.8854 -0.0660 1.0538
H9A H 1.7820 -0.1057 1.0749
C14A C 1.7944(2) 0.01247(17) 1.09764(12)
C15A C 1.8593(2) 0.07810(18) 1.09914(12)
H10A H 1.9149 0.0798 1.0732
C16A C 1.7130(2) 0.01424(17) 1.13595(12)
H11A H 1.6663 -0.0290 1.1365
C17A C 1.8428(2) 0.14075(18) 1.13829(13)
H12A H 1.8888 0.1845 1.1390
C18A C 1.7016(2) 0.08024(17) 1.17323(12)
H13A H 1.6452 0.0808 1.1987
C19A C 1.3392(2) 0.42183(17) 0.81255(12)
H14A H 1.2716 0.4222 0.8263
C20A C 1.4664(2) 0.35799(18) 0.76400(13)
H15A H 1.4896 0.3128 0.7429
C21A C 1.4017(2) 0.48764(17) 0.82478(12)
H16A H 1.3765 0.5320 0.8461
C22A C 1.5332(2) 0.42070(17) 0.77456(12)
H17A H 1.6007 0.4183 0.7609
C23A C 1.5007(2) 0.48847(16) 0.80577(12)
C24A C 1.5718(2) 0.55921(17) 0.81768(12)
H18A H 1.6134 0.5665 0.7817
H19A H 1.5296 0.6076 0.8216
C25A C 1.6429(2) 0.54931(16) 0.87566(11)
C26A C 1.6092(2) 0.56043(17) 0.93460(12)
C27A C 1.7451(2) 0.53020(19) 0.87378(12)
C28A C 1.6747(2) 0.55213(17) 0.98742(12)
C29A C 1.8112(2) 0.5221(2) 0.92694(13)
C30A C 1.7779(2) 0.53195(18) 0.98571(12)
C31A C 1.8495(2) 0.52502(19) 1.04422(13)
H20A H 1.8459 0.5751 1.0678
H21A H 1.9210 0.5197 1.0320
C32A C 1.8288(2) 0.45698(17) 1.08734(12)
C33A C 1.7635(2) 0.39356(17) 1.07183(12)
H22A H 1.7297 0.3901 1.0313
C34A C 1.8771(2) 0.45738(17) 1.14735(12)
H23A H 1.9225 0.4993 1.1604
C35A C 1.7478(2) 0.33559(18) 1.11521(12)
H24A H 1.7019 0.2934 1.1036
C36A C 1.8586(2) 0.39693(18) 1.18750(12)
H25A H 1.8933 0.3982 1.2279
O7 O 0.6007(6) 0.8237(6) 0.6154(6)
H1 H 0.5696 0.8208 0.6480
C47 C 0.6097(13) 0.7502(10) 0.5911(8)
H40 H 0.5420 0.7258 0.5784
H41 H 0.6545 0.7491 0.5562
C48 C 0.6402(18) 0.7284(10) 0.6263(12)
H42 H 0.6835 0.6837 0.6154
H43 H 0.5872 0.7096 0.6525
H44 H 0.6832 0.7684 0.6489
O8 O 0.2500 0.1733(4) 0.2500
C37 C 0.7596(3) 0.2493(2) 0.57330(17)
C38 C 0.8348(3) 0.3045(2) 0.59042(16)
H26 H 0.8232 0.3429 0.6213
C39 C 0.9260(3) 0.3040(3) 0.56316(19)
H27 H 0.9765 0.3432 0.5745
C40 C 0.9454(3) 0.2490(3) 0.5205(2)
H28 H 1.0093 0.2493 0.5020
C41 C 0.8731(3) 0.1927(3) 0.50403(17)
H29 H 0.8869 0.1533 0.4743
C42 C 0.7804(3) 0.1929(2) 0.53024(15)
H30 H 0.7302 0.1536 0.5185
C43 C 0.6539(4) 0.2516(3) 0.6034(3)
C44 C 0.5852(4) 0.1847(4) 0.5875(3)
H31 H 0.5586 0.1889 0.5438
H32 H 0.5275 0.1855 0.6140
H33 H 0.6235 0.1350 0.5939
C45 C 0.6130(4) 0.3291(3) 0.6063(4)
H34 H 0.5946 0.3485 0.5641
H35 H 0.6647 0.3643 0.6272
H36 H 0.5513 0.3281 0.6296
C46 C 0.6847(6) 0.2273(5) 0.6771(3)
H37 H 0.6225 0.2274 0.6998
H38 H 0.7343 0.2658 0.6959
H39 H 0.7157 0.1743 0.6790
loop_
_geom_bond_atom_site_label_1
_geom_bond_atom_site_label_2
_geom_bond_site_symmetry_1
_geom_bond_site_symmetry_2
Cd1 O1 1_555 1_555
Cd2 O4 1_555 1_555
F1 C8 1_555 1_555
F2 C9 1_555 1_555
F3 C10 1_555 1_555
F4 C11 1_555 1_555
F5 C26 1_555 1_555
F6 C27 1_555 1_555
F7 C28 1_555 1_555
F8 C29 1_555 1_555
O1 N5 1_555 1_555
O2 N5 1_555 1_555
O3 N5 1_555 1_555
O4 N6 1_555 1_555
O5 N6 1_555 1_555
O6 N6 1_555 1_555
O7 H1 1_555 1_555
N1 Cd1 1_555 1_555
N2 Cd2 1_555 1_555
N3 Cd1 1_555 1_555
N4 Cd2 1_555 1_555
C1 N1 1_555 1_555
H2 C1 1_555 1_555
C2 N1 1_555 1_555
H3 C2 1_555 1_555
C3 C1 1_555 1_555
H4 C3 1_555 1_555
C4 C2 1_555 1_555
H5 C4 1_555 1_555
C5 C3 1_555 1_555
C6 C5 1_555 1_555
H6 C6 1_555 1_555
H7 C6 1_555 1_555
C7 C6 1_555 1_555
C8 C7 1_555 1_555
C9 C7 1_555 1_555
C10 C8 1_555 1_555
C11 C9 1_555 1_555
C12 C10 1_555 1_555
C13 C12 1_555 1_555
H8 C13 1_555 1_555
H9 C13 1_555 1_555
C14 C13 1_555 1_555
C15 C14 1_555 1_555
H10 C15 1_555 1_555
C16 C14 1_555 1_555
H11 C16 1_555 1_555
C17 N2 1_555 1_555
H12 C17 1_555 1_555
C18 N2 1_555 1_555
H13 C18 1_555 1_555
C19 N3 1_555 1_555
H14 C19 1_555 1_555
C20 N3 1_555 1_555
H15 C20 1_555 1_555
C21 C19 1_555 1_555
H16 C21 1_555 1_555
C22 C20 1_555 1_555
H17 C22 1_555 1_555
C23 C21 1_555 1_555
C24 C23 1_555 1_555
H18 C24 1_555 1_555
H19 C24 1_555 1_555
C25 C24 1_555 1_555
C26 C25 1_555 1_555
C27 C25 1_555 1_555
C28 C26 1_555 1_555
C29 C27 1_555 1_555
C30 C28 1_555 1_555
C31 C30 1_555 1_555
H20 C31 1_555 1_555
H21 C31 1_555 1_555
C32 C31 1_555 1_555
C33 C32 1_555 1_555
H22 C33 1_555 1_555
C34 C32 1_555 1_555
H23 C34 1_555 1_555
C35 N4 1_555 1_555
H24 C35 1_555 1_555
C36 N4 1_555 1_555
H25 C36 1_555 1_555
C37 C38 1_555 1_555
C38 H26 1_555 1_555
C39 C38 1_555 1_555
H27 C39 1_555 1_555
C40 C39 1_555 1_555
H28 C40 1_555 1_555
C41 C40 1_555 1_555
H29 C41 1_555 1_555
C42 C37 1_555 1_555
H30 C42 1_555 1_555
C43 C37 1_555 1_555
C44 C43 1_555 1_555
H31 C44 1_555 1_555
H32 C44 1_555 1_555
H33 C44 1_555 1_555
C45 C43 1_555 1_555
H34 C45 1_555 1_555
H35 C45 1_555 1_555
H36 C45 1_555 1_555
C46 C43 1_555 1_555
H37 C46 1_555 1_555
H38 C46 1_555 1_555
H39 C46 1_555 1_555
C47 O7 1_555 1_555
H40 C47 1_555 1_555
H41 C47 1_555 1_555
C48 C47 1_555 1_555
H42 C48 1_555 1_555
H43 C48 1_555 1_555
H44 C48 1_555 1_555
Cd2_2 N2A 1_555 1_555
F1A C8A 1_555 1_555
F2A C9A 1_555 1_555
F3A C10A 1_555 1_555
F4A C11A 1_555 1_555
F5A C26A 1_555 1_555
F6A C27A 1_555 1_555
F7A C28A 1_555 1_555
F8A C29A 1_555 1_555
O1A Cd1 1_555 1_555
O2A N5A 1_555 1_555
O3A N5A 1_555 1_555
O4A Cd2 1_555 1_555
O5A N6A 1_555 1_555
O6A N6A 1_555 1_555
N1A Cd1 1_555 1_555
N2A C17A 1_555 1_555
N2A_2 Cd2 1_555 1_555
N3A Cd1 1_555 1_555
N4A Cd2_2 1_555 1_555
N4A_2 Cd2 1_555 1_555
N5A O1A 1_555 1_555
N6A O4A 1_555 1_555
C1A N1A 1_555 1_555
H2A C1A 1_555 1_555
C2A N1A 1_555 1_555
H3A C2A 1_555 1_555
C3A C1A 1_555 1_555
H4A C3A 1_555 1_555
C4A C2A 1_555 1_555
H5A C4A 1_555 1_555
C5A C3A 1_555 1_555
C6A C5A 1_555 1_555
H6A C6A 1_555 1_555
H7A C6A 1_555 1_555
C7A C6A 1_555 1_555
C8A C7A 1_555 1_555
C9A C7A 1_555 1_555
C10A C8A 1_555 1_555
C11A C9A 1_555 1_555
C12A C10A 1_555 1_555
C13A C12A 1_555 1_555
H8A C13A 1_555 1_555
H9A C13A 1_555 1_555
C14A C13A 1_555 1_555
C15A C14A 1_555 1_555
H10A C15A 1_555 1_555
C16A C14A 1_555 1_555
H11A C16A 1_555 1_555
C17A C15A 1_555 1_555
H12A C17A 1_555 1_555
C18A N2A 1_555 1_555
H13A C18A 1_555 1_555
C19A N3A 1_555 1_555
H14A C19A 1_555 1_555
C20A N3A 1_555 1_555
H15A C20A 1_555 1_555
C21A C19A 1_555 1_555
H16A C21A 1_555 1_555
C22A C20A 1_555 1_555
H17A C22A 1_555 1_555
C23A C21A 1_555 1_555
C24A C23A 1_555 1_555
H18A C24A 1_555 1_555
H19A C24A 1_555 1_555
C25A C24A 1_555 1_555
C26A C25A 1_555 1_555
C27A C25A 1_555 1_555
C28A C26A 1_555 1_555
C29A C27A 1_555 1_555
C30A C28A 1_555 1_555
C31A C30A 1_555 1_555
H20A C31A 1_555 1_555
H21A C31A 1_555 1_555
C32A C31A 1_555 1_555
C33A C32A 1_555 1_555
H22A C33A 1_555 1_555
C34A C32A 1_555 1_555
H23A C34A 1_555 1_555
C35A N4A 1_555 1_555
H24A C35A 1_555 1_555
C36A N4A 1_555 1_555
H25A C36A 1_555 1_555
C4 C5 1_555 1_555
C11 C12 1_555 1_555
C15 C17 1_555 1_555
C16 C18 1_555 1_555
C22 C23 1_555 1_555
C29 C30 1_555 1_555
C33 C35 1_555 1_555
C34 C36 1_555 1_555
C41 C42 1_555 1_555
C4A C5A 1_555 1_555
C11A C12A 1_555 1_555
C16A C18A 1_555 1_555
C22A C23A 1_555 1_555
C29A C30A 1_555 1_555
C33A C35A 1_555 1_555
C34A C36A 1_555 1_555

#END
