
#######################################################################
#
#                 Cambridge Crystallographic Data Centre
#                                CCDC 
#
#######################################################################
#
# If this CIF has been generated from an entry in the Cambridge 
# Structural Database, then it will include bibliographic, chemical, 
# crystal, experimental, refinement or atomic coordinate data resulting 
# from the CCDC's data processing and validation procedures.
#
#######################################################################

data_EDAHIB
_symmetry_cell_setting           orthorhombic
_symmetry_space_group_name_H-M   'P n n n'
_symmetry_Int_Tables_number      48
_space_group_name_Hall           '-P 2ab 2bc'
loop_
_symmetry_equiv_pos_site_id
_symmetry_equiv_pos_as_xyz
1 x,y,z
2 1/2-x,1/2-y,z
3 1/2-x,y,1/2-z
4 x,1/2-y,1/2-z
5 -x,-y,-z
6 1/2+x,1/2+y,-z
7 1/2+x,-y,1/2+z
8 -x,1/2+y,1/2+z
_cell_length_a                   13.5217(13)
_cell_length_b                   15.6921(16)
_cell_length_c                   26.700(3)
_cell_angle_alpha                90
_cell_angle_beta                 90
_cell_angle_gamma                90
_cell_volume                     5665.31
loop_
_atom_site_label
_atom_site_type_symbol
_atom_site_fract_x
_atom_site_fract_y
_atom_site_fract_z
Cd1 Cd 0.7500 0.7500 0.2500
Cd2 Cd 0.2500 0.7500 0.7500
F1 F 0.64389(17) 1.08416(16) 0.42772(8)
F2 F 0.90559(17) 0.97614(17) 0.52297(8)
F3 F 0.52957(16) 1.09577(15) 0.50858(8)
F4 F 0.88353(16) 0.95370(17) 0.61675(8)
F5 F 0.51306(16) 1.09078(15) 0.60361(8)
F6 F 0.77011(16) 0.97295(18) 0.69760(9)
O1 O 0.5760(2) 0.79234(17) 0.28164(10)
O2 O 0.4371(3) 0.7500 0.2500
O3 O 0.1874(2) 0.79317(19) 0.65877(10)
O4 O 0.2500 0.7500 0.58847(13)
N1 N 0.7783(2) 0.8533(2) 0.31224(10)
N2 N 0.3687(2) 0.8540(2) 0.73526(10)
N3 N 0.5272(3) 0.7500 0.2500
N4 N 0.2500 0.7500 0.63437(16)
C1 C 0.7286(3) 0.8522(2) 0.35556(12)
H1 H 0.6777 0.8111 0.3597
C2 C 0.8488(3) 0.9119(3) 0.30748(13)
H2 H 0.8856 0.9135 0.2772
C3 C 0.7474(3) 0.9077(2) 0.39471(12)
H3 H 0.7105 0.9038 0.4249
C4 C 0.8712(3) 0.9704(3) 0.34423(14)
H4 H 0.9213 1.0118 0.3386
C5 C 0.8205(3) 0.9688(2) 0.38946(13)
C6 C 0.8450(3) 1.0350(3) 0.42876(13)
H5 H 0.9147 1.0272 0.4392
H6 H 0.8394 1.0923 0.4134
C7 C 0.7802(3) 1.0323(3) 0.47489(15)
C8 C 0.6813(3) 1.0628(2) 0.47150(13)
C9 C 0.8132(3) 1.0064(3) 0.51941(15)
C10 C 0.6233(3) 1.0663(3) 0.51314(16)
C11 C 0.7550(3) 1.0101(2) 0.56484(14)
C12 C 0.6584(3) 1.0440(2) 0.56001(13)
C13 C 0.7906(3) 0.9876(3) 0.61171(16)
C14 C 0.6034(3) 1.0544(3) 0.60588(15)
C15 C 0.7334(3) 0.9954(3) 0.65308(14)
C16 C 0.6384(3) 1.0328(2) 0.65145(14)
C17 C 0.5830(3) 1.0489(2) 0.69985(12)
H7 H 0.6312 1.0537 0.7276
H8 H 0.5474 1.1039 0.6973
C18 C 0.5098(3) 0.9794(2) 0.71200(13)
C19 C 0.4202(3) 0.9739(3) 0.68715(15)
H9 H 0.4049 1.0135 0.6614
C20 C 0.5261(3) 0.9193(2) 0.74881(14)
H10 H 0.5866 0.9197 0.7670
C21 C 0.3534(3) 0.9115(3) 0.69939(14)
H11 H 0.2930 0.9091 0.6813
C22 C 0.4548(3) 0.8582(3) 0.75950(13)
H12 H 0.4679 0.8178 0.7851
Cd2_2 Cd 1.2500 0.7500 0.7500
Cd2_3 Cd 1.2500 0.7500 -0.2500
Cd2_4 Cd 0.2500 0.7500 -0.2500
F1A F 0.85611(17) 0.41584(16) 0.42772(8)
F1B F 0.85611(17) 1.08416(16) 0.07228(8)
F1C F 0.64389(17) 0.41584(16) 0.07228(8)
F2A F 0.59441(17) 0.52386(17) 0.52297(8)
F2B F 0.59441(17) 0.97614(17) -0.02297(8)
F2C F 0.90559(17) 0.52386(17) -0.02297(8)
F3A F 0.97043(16) 0.40423(15) 0.50858(8)
F3B F 0.97043(16) 1.09577(15) -0.00858(8)
F3C F 0.52957(16) 0.40423(15) -0.00858(8)
F4A F 0.61647(16) 0.54630(17) 0.61675(8)
F4B F 0.61647(16) 0.95370(17) -0.11675(8)
F4C F 0.88353(16) 0.54630(17) -0.11675(8)
F5A F 0.98694(16) 0.40922(15) 0.60361(8)
F5B F 0.98694(16) 1.09078(15) -0.10361(8)
F5C F 0.51306(16) 0.40922(15) -0.10361(8)
F6A F 0.72989(16) 0.52705(18) 0.69760(9)
F6B F 0.72989(16) 0.97295(18) -0.19760(9)
F6C F 0.77011(16) 0.52705(18) -0.19760(9)
O1C O 0.5760(2) 0.70766(17) 0.21836(10)
O1A O 0.9240(2) 0.70766(17) 0.28164(10)
O1B O 0.9240(2) 0.79234(17) 0.21836(10)
O2A O 1.0629(3) 0.7500 0.2500
O3A O 0.3126(2) 0.70683(19) 0.65877(10)
O3B O 0.3126(2) 0.79317(19) 0.84123(10)
O3C O 0.1874(2) 0.70683(19) 0.84123(10)
O4B O 0.2500 0.7500 0.91153(13)
N1A N 0.7217(2) 0.6467(2) 0.31224(10)
N1B N 0.7217(2) 0.8533(2) 0.18776(10)
N1C N 0.7783(2) 0.6467(2) 0.18776(10)
N2A N 1.1313(2) 0.6460(2) 0.73526(10)
N2B N 1.1313(2) 0.8540(2) -0.23526(10)
N2C N 0.3687(2) 0.6460(2) -0.23526(10)
N2A_2 N 0.1313(2) 0.6460(2) 0.73526(10)
N2B_2 N 0.1313(2) 0.8540(2) 0.76474(10)
N2C_2 N 0.3687(2) 0.6460(2) 0.76474(10)
N3A N 0.9728(3) 0.7500 0.2500
N4B N 0.2500 0.7500 0.86563(16)
C1A C 0.7714(3) 0.6478(2) 0.35556(12)
C1B C 0.7714(3) 0.8522(2) 0.14444(12)
C1C C 0.7286(3) 0.6478(2) 0.14444(12)
H1A H 0.8223 0.6889 0.3597
H1B H 0.8223 0.8111 0.1403
H1C H 0.6777 0.6889 0.1403
C2A C 0.6512(3) 0.5881(3) 0.30748(13)
C2B C 0.6512(3) 0.9119(3) 0.19252(13)
C2C C 0.8488(3) 0.5881(3) 0.19252(13)
H2A H 0.6144 0.5865 0.2772
H2B H 0.6144 0.9135 0.2228
H2C H 0.8856 0.5865 0.2228
C3A C 0.7526(3) 0.5923(2) 0.39471(12)
C3B C 0.7526(3) 0.9077(2) 0.10529(12)
C3C C 0.7474(3) 0.5923(2) 0.10529(12)
H3A H 0.7895 0.5962 0.4249
H3B H 0.7895 0.9038 0.0751
H3C H 0.7105 0.5962 0.0751
C4A C 0.6288(3) 0.5296(3) 0.34423(14)
C4B C 0.6288(3) 0.9704(3) 0.15577(14)
C4C C 0.8712(3) 0.5296(3) 0.15577(14)
H4A H 0.5787 0.4882 0.3386
H4B H 0.5787 1.0118 0.1614
H4C H 0.9213 0.4882 0.1614
C5A C 0.6795(3) 0.5312(2) 0.38946(13)
C5B C 0.6795(3) 0.9688(2) 0.11054(13)
C5C C 0.8205(3) 0.5312(2) 0.11054(13)
C6A C 0.6550(3) 0.4650(3) 0.42876(13)
C6B C 0.6550(3) 1.0350(3) 0.07124(13)
C6C C 0.8450(3) 0.4650(3) 0.07124(13)
H5A H 0.5853 0.4728 0.4392
H5B H 0.5853 1.0272 0.0608
H5C H 0.9147 0.4728 0.0608
H6A H 0.6606 0.4077 0.4134
H6B H 0.6606 1.0923 0.0866
H6C H 0.8394 0.4077 0.0866
C7A C 0.7198(3) 0.4677(3) 0.47489(15)
C7B C 0.7198(3) 1.0323(3) 0.02511(15)
C7C C 0.7802(3) 0.4677(3) 0.02511(15)
C8A C 0.8187(3) 0.4372(2) 0.47150(13)
C8B C 0.8187(3) 1.0628(2) 0.02850(13)
C8C C 0.6813(3) 0.4372(2) 0.02850(13)
C9A C 0.6868(3) 0.4936(3) 0.51941(15)
C9B C 0.6868(3) 1.0064(3) -0.01941(15)
C9C C 0.8132(3) 0.4936(3) -0.01941(15)
C10A C 0.8767(3) 0.4337(3) 0.51314(16)
C10B C 0.8767(3) 1.0663(3) -0.01314(16)
C10C C 0.6233(3) 0.4337(3) -0.01314(16)
C11A C 0.7450(3) 0.4899(2) 0.56484(14)
C11B C 0.7450(3) 1.0101(2) -0.06484(14)
C11C C 0.7550(3) 0.4899(2) -0.06484(14)
C12A C 0.8416(3) 0.4560(2) 0.56001(13)
C12B C 0.8416(3) 1.0440(2) -0.06001(13)
C12C C 0.6584(3) 0.4560(2) -0.06001(13)
C13A C 0.7094(3) 0.5124(3) 0.61171(16)
C13B C 0.7094(3) 0.9876(3) -0.11171(16)
C13C C 0.7906(3) 0.5124(3) -0.11171(16)
C14A C 0.8966(3) 0.4456(3) 0.60588(15)
C14B C 0.8966(3) 1.0544(3) -0.10588(15)
C14C C 0.6034(3) 0.4456(3) -0.10588(15)
C15A C 0.7666(3) 0.5046(3) 0.65308(14)
C15B C 0.7666(3) 0.9954(3) -0.15308(14)
C15C C 0.7334(3) 0.5046(3) -0.15308(14)
C16A C 0.8616(3) 0.4672(2) 0.65145(14)
C16B C 0.8616(3) 1.0328(2) -0.15145(14)
C16C C 0.6384(3) 0.4672(2) -0.15145(14)
C17A C 0.9170(3) 0.4511(2) 0.69985(12)
C17B C 0.9170(3) 1.0489(2) -0.19985(12)
C17C C 0.5830(3) 0.4511(2) -0.19985(12)
H7A H 0.8688 0.4463 0.7276
H7B H 0.8688 1.0537 -0.2276
H7C H 0.6312 0.4463 -0.2276
H8A H 0.9526 0.3961 0.6973
H8B H 0.9526 1.1039 -0.1973
H8C H 0.5474 0.3961 -0.1973
C18A C 0.9902(3) 0.5206(2) 0.71200(13)
C18B C 0.9902(3) 0.9794(2) -0.21200(13)
C18C C 0.5098(3) 0.5206(2) -0.21200(13)
C19A C 1.0798(3) 0.5261(3) 0.68715(15)
C19B C 1.0798(3) 0.9739(3) -0.18715(15)
C19C C 0.4202(3) 0.5261(3) -0.18715(15)
H9A H 1.0951 0.4865 0.6614
H9B H 1.0951 1.0135 -0.1614
H9C H 0.4049 0.4865 -0.1614
C20A C 0.9739(3) 0.5807(2) 0.74881(14)
C20B C 0.9739(3) 0.9193(2) -0.24881(14)
C20C C 0.5261(3) 0.5807(2) -0.24881(14)
H10A H 0.9134 0.5803 0.7670
H10B H 0.9134 0.9197 -0.2670
H10C H 0.5866 0.5803 -0.2670
C21A C 1.1466(3) 0.5885(3) 0.69939(14)
C21B C 1.1466(3) 0.9115(3) -0.19939(14)
C21C C 0.3534(3) 0.5885(3) -0.19939(14)
H11A H 1.2070 0.5909 0.6813
H11B H 1.2070 0.9091 -0.1813
H11C H 0.2930 0.5909 -0.1813
C22A C 1.0452(3) 0.6418(3) 0.75950(13)
C22B C 1.0452(3) 0.8582(3) -0.25950(13)
C22C C 0.4548(3) 0.6418(3) -0.25950(13)
H12A H 1.0321 0.6822 0.7851
H12B H 1.0321 0.8178 -0.2851
H12C H 0.4679 0.6822 -0.2851
C23 C 0.3488(5) 0.7221(3) 0.4160(3)
C24 C 0.2985(5) 0.7361(4) 0.3713(2)
H13 H 0.3313 0.7265 0.3403
C25 C 0.2976(3) 0.7369(3) 0.45874(19)
H14 H 0.3299 0.7286 0.4900
C26 C 0.4564(5) 0.6928(4) 0.4158(3)
H15 H 0.4806 0.6893 0.4504
H16 H 0.4967 0.7336 0.3970
H17 H 0.4610 0.6365 0.4001
C23A C 0.1512(5) 0.7779(3) 0.4160(3)
C24A C 0.2015(5) 0.7639(4) 0.3713(2)
H13A H 0.1687 0.7735 0.3403
C25A C 0.2024(3) 0.7631(3) 0.45874(19)
H14A H 0.1701 0.7714 0.4900
C26A C 0.0436(5) 0.8072(4) 0.4158(3)
H15A H 0.0194 0.8107 0.4504
H16A H 0.0033 0.7664 0.3970
H17A H 0.0390 0.8635 0.4001
C27 C 0.1468(5) 0.2644(5) 0.3992(4)
C28 C 0.1988(5) 0.2577(6) 0.4424(3)
H18 H 0.1652 0.2635 0.4735
C29 C 0.1997(5) 0.2577(4) 0.3541(3)
H19 H 0.1657 0.2638 0.3232
C30 C 0.0359(5) 0.2751(5) 0.3985(3)
H20 H 0.0130 0.2780 0.3637
H21 H 0.0180 0.3279 0.4159
H22 H 0.0048 0.2265 0.4153
C27A C 0.3532(5) 0.2356(5) 0.3992(4)
C28A C 0.3012(5) 0.2423(6) 0.4424(3)
H18A H 0.3348 0.2365 0.4735
C29A C 0.3003(5) 0.2423(4) 0.3541(3)
H19A H 0.3343 0.2362 0.3232
C30A C 0.4641(5) 0.2249(5) 0.3985(3)
H20A H 0.4870 0.2220 0.3637
H21A H 0.4820 0.1721 0.4159
H22A H 0.4952 0.2735 0.4153
loop_
_geom_bond_atom_site_label_1
_geom_bond_atom_site_label_2
_geom_bond_site_symmetry_1
_geom_bond_site_symmetry_2
Cd1 O1 1_555 1_555
Cd2 O3 1_555 1_555
F1 C8 1_555 1_555
F2 C9 1_555 1_555
F3 C10 1_555 1_555
F4 C13 1_555 1_555
F5 C14 1_555 1_555
F6 C15 1_555 1_555
O1 N3 1_555 1_555
O2 N3 1_555 1_555
O3 N4 1_555 1_555
O4 N4 1_555 1_555
N1 Cd1 1_555 1_555
N2 Cd2 1_555 1_555
N3 O1C 1_555 1_555
N4 O3A 1_555 1_555
C1 N1 1_555 1_555
H1 C1 1_555 1_555
C2 N1 1_555 1_555
H2 C2 1_555 1_555
C3 C1 1_555 1_555
H3 C3 1_555 1_555
C4 C2 1_555 1_555
H4 C4 1_555 1_555
C5 C3 1_555 1_555
C6 C5 1_555 1_555
H5 C6 1_555 1_555
H6 C6 1_555 1_555
C7 C6 1_555 1_555
C8 C7 1_555 1_555
C9 C7 1_555 1_555
C10 C8 1_555 1_555
C11 C9 1_555 1_555
C12 C10 1_555 1_555
C13 C11 1_555 1_555
C14 C12 1_555 1_555
C15 C13 1_555 1_555
C16 C14 1_555 1_555
C17 C16 1_555 1_555
H7 C17 1_555 1_555
H8 C17 1_555 1_555
C18 C17 1_555 1_555
C19 C18 1_555 1_555
H9 C19 1_555 1_555
C20 C18 1_555 1_555
H10 C20 1_555 1_555
C21 N2 1_555 1_555
H11 C21 1_555 1_555
C22 N2 1_555 1_555
H12 C22 1_555 1_555
C23 C24 1_555 1_555
C24 H13 1_555 1_555
C25 C23 1_555 1_555
H14 C25 1_555 1_555
C26 C23 1_555 1_555
H15 C26 1_555 1_555
H16 C26 1_555 1_555
H17 C26 1_555 1_555
C27 C28 1_555 1_555
C28 H18 1_555 1_555
C29 C27 1_555 1_555
H19 C29 1_555 1_555
C30 C27 1_555 1_555
H20 C30 1_555 1_555
H21 C30 1_555 1_555
H22 C30 1_555 1_555
Cd2_2 N2A 1_555 1_555
Cd2_3 N2B 1_555 1_555
Cd2_4 N2C 1_555 1_555
F1A C8A 1_555 1_555
F1B C8B 1_555 1_555
F1C C8C 1_555 1_555
F2A C9A 1_555 1_555
F2B C9B 1_555 1_555
F2C C9C 1_555 1_555
F3A C10A 1_555 1_555
F3B C10B 1_555 1_555
F3C C10C 1_555 1_555
F4A C13A 1_555 1_555
F4B C13B 1_555 1_555
F4C C13C 1_555 1_555
F5A C14A 1_555 1_555
F5B C14B 1_555 1_555
F5C C14C 1_555 1_555
F6A C15A 1_555 1_555
F6B C15B 1_555 1_555
F6C C15C 1_555 1_555
O1C Cd1 1_555 1_555
O1A Cd1 1_555 1_555
O1B Cd1 1_555 1_555
O2A N3A 1_555 1_555
O3A Cd2 1_555 1_555
O3B Cd2 1_555 1_555
O3C Cd2 1_555 1_555
O4B N4B 1_555 1_555
N1A Cd1 1_555 1_555
N1B Cd1 1_555 1_555
N1C Cd1 1_555 1_555
N2A C21A 1_555 1_555
N2B C21B 1_555 1_555
N2C C21C 1_555 1_555
N2A_2 Cd2 1_555 1_555
N2B_2 Cd2 1_555 1_555
N2C_2 Cd2 1_555 1_555
N3A O1A 1_555 1_555
N4B O3B 1_555 1_555
C1A N1A 1_555 1_555
C1B N1B 1_555 1_555
C1C N1C 1_555 1_555
H1A C1A 1_555 1_555
H1B C1B 1_555 1_555
H1C C1C 1_555 1_555
C2A N1A 1_555 1_555
C2B N1B 1_555 1_555
C2C N1C 1_555 1_555
H2A C2A 1_555 1_555
H2B C2B 1_555 1_555
H2C C2C 1_555 1_555
C3A C1A 1_555 1_555
C3B C1B 1_555 1_555
C3C C1C 1_555 1_555
H3A C3A 1_555 1_555
H3B C3B 1_555 1_555
H3C C3C 1_555 1_555
C4A C2A 1_555 1_555
C4B C2B 1_555 1_555
C4C C2C 1_555 1_555
H4A C4A 1_555 1_555
H4B C4B 1_555 1_555
H4C C4C 1_555 1_555
C5A C3A 1_555 1_555
C5B C3B 1_555 1_555
C5C C3C 1_555 1_555
C6A C5A 1_555 1_555
C6B C5B 1_555 1_555
C6C C5C 1_555 1_555
H5A C6A 1_555 1_555
H5B C6B 1_555 1_555
H5C C6C 1_555 1_555
H6A C6A 1_555 1_555
H6B C6B 1_555 1_555
H6C C6C 1_555 1_555
C7A C6A 1_555 1_555
C7B C6B 1_555 1_555
C7C C6C 1_555 1_555
C8A C7A 1_555 1_555
C8B C7B 1_555 1_555
C8C C7C 1_555 1_555
C9A C7A 1_555 1_555
C9B C7B 1_555 1_555
C9C C7C 1_555 1_555
C10A C8A 1_555 1_555
C10B C8B 1_555 1_555
C10C C8C 1_555 1_555
C11A C9A 1_555 1_555
C11B C9B 1_555 1_555
C11C C9C 1_555 1_555
C12A C10A 1_555 1_555
C12B C10B 1_555 1_555
C12C C10C 1_555 1_555
C13A C11A 1_555 1_555
C13B C11B 1_555 1_555
C13C C11C 1_555 1_555
C14A C12A 1_555 1_555
C14B C12B 1_555 1_555
C14C C12C 1_555 1_555
C15A C13A 1_555 1_555
C15B C13B 1_555 1_555
C15C C13C 1_555 1_555
C16A C14A 1_555 1_555
C16B C14B 1_555 1_555
C16C C14C 1_555 1_555
C17A C16A 1_555 1_555
C17B C16B 1_555 1_555
C17C C16C 1_555 1_555
H7A C17A 1_555 1_555
H7B C17B 1_555 1_555
H7C C17C 1_555 1_555
H8A C17A 1_555 1_555
H8B C17B 1_555 1_555
H8C C17C 1_555 1_555
C18A C17A 1_555 1_555
C18B C17B 1_555 1_555
C18C C17C 1_555 1_555
C19A C18A 1_555 1_555
C19B C18B 1_555 1_555
C19C C18C 1_555 1_555
H9A C19A 1_555 1_555
H9B C19B 1_555 1_555
H9C C19C 1_555 1_555
C20A C18A 1_555 1_555
C20B C18B 1_555 1_555
C20C C18C 1_555 1_555
H10A C20A 1_555 1_555
H10B C20B 1_555 1_555
H10C C20C 1_555 1_555
C21A C19A 1_555 1_555
C21B C19B 1_555 1_555
C21C C19C 1_555 1_555
H11A C21A 1_555 1_555
H11B C21B 1_555 1_555
H11C C21C 1_555 1_555
C22A N2A 1_555 1_555
C22B N2B 1_555 1_555
C22C N2C 1_555 1_555
H12A C22A 1_555 1_555
H12B C22B 1_555 1_555
H12C C22C 1_555 1_555
C23A C24A 1_555 1_555
C24A C24 1_555 1_555
H13A C24A 1_555 1_555
C25A C25 1_555 1_555
H14A C25A 1_555 1_555
C26A C23A 1_555 1_555
H15A C26A 1_555 1_555
H16A C26A 1_555 1_555
H17A C26A 1_555 1_555
C27A C28A 1_555 1_555
C28A C28 1_555 1_555
H18A C28A 1_555 1_555
C29A C29 1_555 1_555
H19A C29A 1_555 1_555
C30A C27A 1_555 1_555
H20A C30A 1_555 1_555
H21A C30A 1_555 1_555
H22A C30A 1_555 1_555
C4 C5 1_555 1_555
C11 C12 1_555 1_555
C15 C16 1_555 1_555
C19 C21 1_555 1_555
C20 C22 1_555 1_555
O1B N3A 1_555 1_555
O3C N4B 1_555 1_555
C4A C5A 1_555 1_555
C4B C5B 1_555 1_555
C4C C5C 1_555 1_555
C11A C12A 1_555 1_555
C11B C12B 1_555 1_555
C11C C12C 1_555 1_555
C15A C16A 1_555 1_555
C15B C16B 1_555 1_555
C15C C16C 1_555 1_555
C20A C22A 1_555 1_555
C20B C22B 1_555 1_555
C20C C22C 1_555 1_555
C23A C25A 1_555 1_555
C27A C29A 1_555 1_555

#END
