
#######################################################################
#
#                 Cambridge Crystallographic Data Centre
#                                CCDC 
#
#######################################################################
#
# If this CIF has been generated from an entry in the Cambridge 
# Structural Database, then it will include bibliographic, chemical, 
# crystal, experimental, refinement or atomic coordinate data resulting 
# from the CCDC's data processing and validation procedures.
#
#######################################################################

data_EDAJEZ
_symmetry_cell_setting           monoclinic
_symmetry_space_group_name_H-M   'P 21/n'
_symmetry_Int_Tables_number      14
_space_group_name_Hall           '-P 2yn'
loop_
_symmetry_equiv_pos_site_id
_symmetry_equiv_pos_as_xyz
1 x,y,z
2 1/2-x,1/2+y,1/2-z
3 -x,-y,-z
4 1/2+x,1/2-y,1/2+z
_cell_length_a                   9.035(3)
_cell_length_b                   12.567(4)
_cell_length_c                   11.276(3)
_cell_angle_alpha                90
_cell_angle_beta                 103.168(4)
_cell_angle_gamma                90
_cell_volume                     1246.65
loop_
_atom_site_label
_atom_site_type_symbol
_atom_site_fract_x
_atom_site_fract_y
_atom_site_fract_z
C8 C 0.498(3) 0.5737(16) 0.6054(15)
C9 C 0.556(4) 0.544(2) 0.586(2)
C10 C 0.233(2) 0.532(2) 0.495(2)
N4 N 0.394(2) 0.5207(12) 0.5056(14)
O3 O 0.190(2) 0.609(2) 0.561(3)
C8B C 0.502(3) 0.4263(16) 0.3946(15)
C9B C 0.444(4) 0.456(2) 0.414(2)
C10B C 0.767(2) 0.468(2) 0.505(2)
N4B N 0.606(2) 0.4793(12) 0.4944(14)
O3B O 0.810(2) 0.391(2) 0.439(3)
O4 O 0.4056(18) 0.8094(12) 0.9171(17)
O5 O 0.0000 0.5000 0.5000
Co1 Co 0.5000 0.5000 0.0000
S1 S 0.07071(13) 0.47129(11) -0.18595(11)
O1 O 0.0717(3) 0.3461(2) 0.0046(2)
N1 N 0.2966(3) 0.4146(3) 0.0082(3)
N2 N 0.3068(4) 0.3529(3) 0.1132(3)
N3 N 0.0510(4) 0.1105(3) 0.3679(3)
C1 C 0.1548(4) 0.4111(3) -0.0553(3)
C2 C 0.1738(4) 0.3148(3) 0.1063(4)
C3 C 0.1289(4) 0.2455(3) 0.1953(4)
C4 C -0.0225(5) 0.2189(4) 0.1896(4)
H1 H -0.1000 0.2460 0.1282
C5 C -0.0544(5) 0.1521(4) 0.2763(4)
H2 H -0.1556 0.1344 0.2714
C6 C 0.1963(4) 0.1383(4) 0.3732(4)
H3 H 0.2718 0.1110 0.4360
C7 C 0.2381(5) 0.2053(4) 0.2901(4)
H4 H 0.3397 0.2234 0.2980
O2 O 0.3772(3) 0.5975(2) -0.1390(3)
H5 H 0.3830 0.5848 -0.2111
H6 H 0.2954 0.6245 -0.1276
Co1C Co 0.0000 0.0000 0.5000
Co1C_2 Co 1.0000 1.0000 -0.5000
S1B S 0.92929(13) 0.52871(11) 0.18595(11)
O1B O 0.9283(3) 0.6539(2) -0.0046(2)
N1B N 0.7034(3) 0.5854(3) -0.0082(3)
N2B N 0.6932(4) 0.6471(3) -0.1132(3)
N3B N 0.9490(4) 0.8895(3) -0.3679(3)
N3C N 0.5510(4) 0.3895(3) -0.1321(3)
N3A N 0.4490(4) 0.6105(3) 0.1321(3)
C1B C 0.8452(4) 0.5889(3) 0.0553(3)
C2B C 0.8262(4) 0.6852(3) -0.1063(4)
C3B C 0.8711(4) 0.7545(3) -0.1953(4)
C4B C 1.0225(5) 0.7811(4) -0.1896(4)
H1B H 1.1000 0.7540 -0.1282
C5B C 1.0544(5) 0.8479(4) -0.2763(4)
H2B H 1.1556 0.8656 -0.2714
C6B C 0.8037(4) 0.8617(4) -0.3732(4)
H3B H 0.7282 0.8890 -0.4360
C7B C 0.7619(5) 0.7947(4) -0.2901(4)
H4B H 0.6603 0.7766 -0.2980
O2B O 0.6228(3) 0.4025(2) 0.1390(3)
H5B H 0.6170 0.4152 0.2111
H6B H 0.7046 0.3755 0.1276
loop_
_geom_bond_atom_site_label_1
_geom_bond_atom_site_label_2
_geom_bond_site_symmetry_1
_geom_bond_site_symmetry_2
Co1 N1 1_555 1_555
S1 C1 1_555 1_555
O1 C1 1_555 1_555
N1 N2 1_555 1_555
N2 C2 1_555 1_555
N3 C5 1_555 1_555
C1 N1 1_555 1_555
C2 O1 1_555 1_555
C3 C2 1_555 1_555
C4 C3 1_555 1_555
H1 C4 1_555 1_555
C5 C4 1_555 1_555
H2 C5 1_555 1_555
C6 N3 1_555 1_555
H3 C6 1_555 1_555
C7 C3 1_555 1_555
H4 C7 1_555 1_555
O2 Co1 1_555 1_555
H5 O2 1_555 1_555
H6 O2 1_555 1_555
C8 C9 1_555 1_555
C9 N4 1_555 1_555
C10 N4 1_555 1_555
N4 C8 1_555 1_555
O3 C10 1_555 1_555
Co1C N3 1_555 1_555
Co1C_2 N3B 1_555 1_555
S1B C1B 1_555 1_555
O1B C1B 1_555 1_555
N1B Co1 1_555 1_555
N2B N1B 1_555 1_555
N3B C5B 1_555 1_555
N3C Co1 1_555 1_555
N3A Co1 1_555 1_555
C1B N1B 1_555 1_555
C2B O1B 1_555 1_555
C3B C2B 1_555 1_555
C4B C3B 1_555 1_555
H1B C4B 1_555 1_555
C5B C4B 1_555 1_555
H2B C5B 1_555 1_555
C6B N3B 1_555 1_555
H3B C6B 1_555 1_555
C7B C3B 1_555 1_555
H4B C7B 1_555 1_555
O2B Co1 1_555 1_555
H5B O2B 1_555 1_555
H6B O2B 1_555 1_555
C8B C9B 1_555 1_555
C9B N4 1_555 1_555
C10B N4B 1_555 1_555
N4B C9 1_555 1_555
O3B C10B 1_555 1_555
C6 C7 1_555 1_555
N2B C2B 1_555 1_555
C6B C7B 1_555 1_555
C8B N4B 1_555 1_555
C9B N4B 1_555 1_555

#END
