
#######################################################################
#
#                 Cambridge Crystallographic Data Centre
#                                CCDC 
#
#######################################################################
#
# If this CIF has been generated from an entry in the Cambridge 
# Structural Database, then it will include bibliographic, chemical, 
# crystal, experimental, refinement or atomic coordinate data resulting 
# from the CCDC's data processing and validation procedures.
#
#######################################################################

data_EDAJUP
_symmetry_cell_setting           rhombohedral
_symmetry_space_group_name_H-M   'R -3 c'
_symmetry_Int_Tables_number      167
_space_group_name_Hall           '-R 3 2"c'
loop_
_symmetry_equiv_pos_site_id
_symmetry_equiv_pos_as_xyz
1 x,y,z
2 -y,x-y,z
3 -x+y,-x,z
4 y,x,1/2-z
5 2/3+x,1/3+y,1/3+z
6 2/3-y,1/3+x-y,1/3+z
7 2/3-x+y,1/3-x,1/3+z
8 2/3+y,1/3+x,5/6-z
9 1/3+x,2/3+y,2/3+z
10 1/3+y,2/3+x,1/6-z
11 x-y,-y,1/2-z
12 -x,-x+y,1/2-z
13 1/3-y,2/3+x-y,2/3+z
14 1/3-x+y,2/3-x,2/3+z
15 1/3+x-y,2/3-y,1/6-z
16 1/3-x,2/3-x+y,1/6-z
17 2/3+x-y,1/3-y,5/6-z
18 2/3-x,1/3-x+y,5/6-z
19 -x,-y,-z
20 y,-x+y,-z
21 x-y,x,-z
22 -y,-x,1/2+z
23 1/3-x,2/3-y,2/3-z
24 1/3+y,2/3-x+y,2/3-z
25 1/3+x-y,2/3+x,2/3-z
26 1/3-y,2/3-x,1/6+z
27 2/3-x,1/3-y,1/3-z
28 2/3-y,1/3-x,5/6+z
29 -x+y,y,1/2+z
30 x,x-y,1/2+z
31 2/3+y,1/3-x+y,1/3-z
32 2/3+x-y,1/3+x,1/3-z
33 2/3-x+y,1/3+y,5/6+z
34 2/3+x,1/3+x-y,5/6+z
35 1/3-x+y,2/3+y,1/6+z
36 1/3+x,2/3+x-y,1/6+z
_cell_length_a                   17.1609(12)
_cell_length_b                   17.1609(12)
_cell_length_c                   12.6734(19)
_cell_angle_alpha                90
_cell_angle_beta                 90
_cell_angle_gamma                120.00
_cell_volume                     3232.24
loop_
_atom_site_label
_atom_site_type_symbol
_atom_site_fract_x
_atom_site_fract_y
_atom_site_fract_z
Co1 Co 0.0000 0.12245(5) 0.2500
O1 O 0.0000 0.0000 0.2500
O2 O -0.1024(2) 0.0721(2) 0.3619(3)
O3 O -0.1761(2) -0.0786(2) 0.3680(3)
N1 N -0.4181 -0.0848(3) 0.4167
C1 C -0.3386(3) -0.0822(3) 0.4083(4)
H1 H -0.3386 -0.1363 0.4054
C2 C -0.2568(3) -0.0029(3) 0.4037(4)
C3 C -0.2560 0.0773(4) 0.4167
H2 H -0.2019 0.1314 0.4167
C4 C -0.1718(3) -0.0036(3) 0.3761(4)
Co1B Co 0.12245(5) 0.0000 0.2500
Co1A Co -0.12245(5) -0.12245(5) 0.2500
Co1HA Co -0.54422(5) -0.21088(5) 0.4167
Co1F Co -0.21088(5) 0.3333 0.5833
Co1E Co -0.45578(5) 0.21088(5) 0.5833
Co1EA Co 0.54422(5) 0.3333 0.0833
Co1L Co 0.21088(5) 0.54422(5) -0.0833
Co1I Co 0.45578(5) 0.6667 -0.0833
Co1IA Co 0.3333 0.54422(5) 0.4167
Co1E_2 Co 0.54422(5) 0.21088(5) 0.5833
Co1D Co 0.6667 0.45578(5) 0.5833
O2G O -0.2612(2) 0.2309(2) 0.4714(3)
O2K O 0.1024(2) 0.1745(3) 0.1381(3)
O2L O 0.2612(2) 0.4922(3) 0.0286(3)
O2B O 0.1745(3) 0.1024(2) 0.3619(3)
O2P O 0.4922(3) 0.2612(2) 0.4714(3)
O2C O 0.0721(2) -0.1024(2) 0.1381(3)
O2A O -0.0721(2) -0.1745(3) 0.3619(3)
O2J O -0.1745(3) -0.0721(2) 0.1381(3)
O3G O -0.4119(2) 0.1572(2) 0.4653(3)
O3K O 0.1761(2) 0.0975(3) 0.1320(3)
O3L O 0.4119(2) 0.5692(3) 0.0347(3)
O3B O 0.0975(3) 0.1761(2) 0.3680(3)
O3P O 0.5692(3) 0.4119(2) 0.4653(3)
O3J O -0.0975(3) 0.0786(2) 0.1320(3)
O3A O 0.0786(2) -0.0975(3) 0.3680(3)
O3C O -0.0786(2) -0.1761(2) 0.1320(3)
N1K N 0.4181 0.3333(3) 0.0833
N1B N 0.3333(3) 0.4181 0.4167
N1FA N -0.0000(3) 0.2485(3) 0.2500
N1GA N 0.2486 0.0000(3) 0.2500
N1V N -0.2486 -0.2485(3) 0.2500
C1G C -0.4155(3) -0.0053(3) 0.4250(4)
C1K C 0.3386(3) 0.2564(4) 0.0917(4)
C1L C 0.4155(3) 0.4103(4) 0.0750(4)
C1B C 0.2564(4) 0.3386(3) 0.4083(4)
C1P C 0.4103(4) 0.4155(3) 0.4250(4)
H1G H -0.4696 -0.0053 0.4279
H1K H 0.3386 0.2023 0.0946
H1L H 0.4696 0.4644 0.0721
H1B H 0.2023 0.3386 0.4054
H1P H 0.4644 0.4696 0.4279
C2G C -0.3362(3) 0.0765(3) 0.4296(4)
C2K C 0.2568(3) 0.2539(4) 0.0963(4)
C2L C 0.3362(3) 0.4128(4) 0.0704(4)
C2B C 0.2539(4) 0.2568(3) 0.4037(4)
C2P C 0.4128(4) 0.3362(3) 0.4296(4)
C3K C 0.2560 0.3333(4) 0.0833
C3B C 0.3333(4) 0.2560 0.4167
H2K H 0.2019 0.3333 0.0833
H2B H 0.3333 0.2019 0.4167
C4G C -0.3369(3) 0.1615(3) 0.4572(4)
C4K C 0.1718(3) 0.1682(4) 0.1239(4)
C4L C 0.3369(3) 0.4985(4) 0.0428(4)
C4B C 0.1682(4) 0.1718(3) 0.3761(4)
C4P C 0.4985(4) 0.3369(3) 0.4572(4)
O4 O 0.0000 0.0000 0.5000
loop_
_geom_bond_atom_site_label_1
_geom_bond_atom_site_label_2
_geom_bond_site_symmetry_1
_geom_bond_site_symmetry_2
Co1 O1 1_555 1_555
O1 Co1B 1_555 1_555
O2 Co1 1_555 1_555
O3 C4 1_555 1_555
N1 C1 1_555 1_555
C1 H1 1_555 1_555
C2 C1 1_555 1_555
C3 C2 1_555 1_555
H2 C3 1_555 1_555
C4 O2 1_555 1_555
Co1B O2B 1_555 1_555
Co1A O1 1_555 1_555
Co1HA N1 1_555 1_555
Co1F O2G 1_555 1_555
Co1E O3G 1_555 1_555
Co1EA N1K 1_555 1_555
Co1L O2L 1_555 1_555
Co1I O3L 1_555 1_555
Co1IA N1B 1_555 1_555
Co1E_2 O2P 1_555 1_555
Co1D O3P 1_555 1_555
O2G C4G 1_555 1_555
O2K Co1 1_555 1_555
O2L C4L 1_555 1_555
O2B C4B 1_555 1_555
O2P C4P 1_555 1_555
O2C Co1B 1_555 1_555
O2A Co1A 1_555 1_555
O2J Co1A 1_555 1_555
O3G C4G 1_555 1_555
O3K Co1B 1_555 1_555
O3L C4L 1_555 1_555
O3B Co1 1_555 1_555
O3P C4P 1_555 1_555
O3J Co1 1_555 1_555
O3A Co1B 1_555 1_555
O3C Co1A 1_555 1_555
N1K C1K 1_555 1_555
N1B C1B 1_555 1_555
N1FA Co1 1_555 1_555
N1GA Co1B 1_555 1_555
N1V Co1A 1_555 1_555
C1G N1 1_555 1_555
C1K H1K 1_555 1_555
C1L N1K 1_555 1_555
C1B H1B 1_555 1_555
C1P N1B 1_555 1_555
H1G C1G 1_555 1_555
H1L C1L 1_555 1_555
H1P C1P 1_555 1_555
C2G C3 1_555 1_555
C2K C1K 1_555 1_555
C2L C1L 1_555 1_555
C2B C1B 1_555 1_555
C2P C1P 1_555 1_555
C3K C2K 1_555 1_555
C3B C2B 1_555 1_555
H2K C3K 1_555 1_555
H2B C3B 1_555 1_555
C4G C2G 1_555 1_555
C4K O2K 1_555 1_555
C4L C2L 1_555 1_555
C4B O3B 1_555 1_555
C4P C2P 1_555 1_555
O3 Co1A 1_555 1_555
C2 C4 1_555 1_555
O3K C4K 1_555 1_555
C1G C2G 1_555 1_555
C2K C4K 1_555 1_555
C2L C3K 1_555 1_555
C2B C4B 1_555 1_555
C2P C3B 1_555 1_555

#END
