
#######################################################################
#
#                 Cambridge Crystallographic Data Centre
#                                CCDC 
#
#######################################################################
#
# If this CIF has been generated from an entry in the Cambridge 
# Structural Database, then it will include bibliographic, chemical, 
# crystal, experimental, refinement or atomic coordinate data resulting 
# from the CCDC's data processing and validation procedures.
#
#######################################################################

data_EDAJOJ
_symmetry_cell_setting           monoclinic
_symmetry_space_group_name_H-M   'P 21/c'
_symmetry_Int_Tables_number      14
_space_group_name_Hall           '-P 2ybc'
loop_
_symmetry_equiv_pos_site_id
_symmetry_equiv_pos_as_xyz
1 x,y,z
2 -x,1/2+y,1/2-z
3 -x,-y,-z
4 x,1/2-y,1/2+z
_cell_length_a                   8.990(4)
_cell_length_b                   12.507(6)
_cell_length_c                   12.752(4)
_cell_angle_alpha                90
_cell_angle_beta                 120.65(2)
_cell_angle_gamma                90
_cell_volume                     1233.5
loop_
_atom_site_label
_atom_site_type_symbol
_atom_site_fract_x
_atom_site_fract_y
_atom_site_fract_z
Ni1 Ni -0.5000 0.0000 0.0000
S1 S -0.2595(4) 0.0282(3) -0.1868(3)
O1 O -0.0694(9) 0.1558(6) 0.0039(7)
O2 O -0.5155(10) -0.0995(6) -0.1358(7)
H1 H -0.4461 -0.0912 -0.1618
H2 H -0.5916 -0.1485 -0.1654
N1 N 0.3184(11) 0.3924(7) 0.3691(8)
N2 N -0.1976(12) 0.1468(7) 0.1134(9)
N3 N -0.2893(10) 0.0847(7) 0.0087(8)
C1 C 0.0690(14) 0.2553(9) 0.1972(11)
C2 C 0.2110(15) 0.2848(10) 0.1892(12)
H3 H 0.2249 0.2599 0.1261
C3 C 0.3326(15) 0.3525(10) 0.2778(11)
H4 H 0.4292 0.3710 0.2731
C4 C 0.1817(15) 0.3614(9) 0.3779(11)
H5 H 0.1730 0.3861 0.4434
C5 C 0.0551(14) 0.2952(9) 0.2950(10)
H6 H -0.0388 0.2769 0.3031
C6 C -0.0720(14) 0.1865(9) 0.1042(11)
C7 C -0.2109(13) 0.0892(9) -0.0556(10)
Ni1C Ni 0.5000 0.5000 0.5000
Ni1C_2 Ni -1.5000 -0.5000 -0.5000
S1B S -0.7405(4) -0.0282(3) 0.1868(3)
O1B O -0.9306(9) -0.1558(6) -0.0039(7)
O2B O -0.4845(10) 0.0995(6) 0.1358(7)
H1B H -0.5539 0.0912 0.1618
H2B H -0.4084 0.1485 0.1654
N1A N -0.3184(11) -0.1076(7) 0.1309(8)
N1C N -0.6816(11) 0.1076(7) -0.1309(8)
N1B N -1.3184(11) -0.3924(7) -0.3691(8)
N2B N -0.8024(12) -0.1468(7) -0.1134(9)
N3B N -0.7107(10) -0.0847(7) -0.0087(8)
C1B C -1.0690(14) -0.2553(9) -0.1972(11)
C2B C -1.2110(15) -0.2848(10) -0.1892(12)
H3B H -1.2249 -0.2599 -0.1261
C3B C -1.3326(15) -0.3525(10) -0.2778(11)
H4B H -1.4292 -0.3710 -0.2731
C4B C -1.1817(15) -0.3614(9) -0.3779(11)
H5B H -1.1730 -0.3861 -0.4434
C5B C -1.0551(14) -0.2952(9) -0.2950(10)
H6B H -0.9612 -0.2769 -0.3031
C6B C -0.9280(14) -0.1865(9) -0.1042(11)
C7B C -0.7891(13) -0.0892(9) 0.0556(10)
O3 O -0.862(5) 0.918(2) 0.609(2)
O4 O -0.466(7) 0.680(4) 0.959(5)
loop_
_geom_bond_atom_site_label_1
_geom_bond_atom_site_label_2
_geom_bond_site_symmetry_1
_geom_bond_site_symmetry_2
Ni1 O2 1_555 1_555
S1 C7 1_555 1_555
O1 C6 1_555 1_555
O2 H1 1_555 1_555
H2 O2 1_555 1_555
N1 C3 1_555 1_555
N2 N3 1_555 1_555
N3 Ni1 1_555 1_555
C1 C2 1_555 1_555
C2 H3 1_555 1_555
C3 C2 1_555 1_555
H4 C3 1_555 1_555
C4 N1 1_555 1_555
H5 C4 1_555 1_555
C5 C1 1_555 1_555
H6 C5 1_555 1_555
C6 N2 1_555 1_555
C7 O1 1_555 1_555
Ni1C N1 1_555 1_555
Ni1C_2 N1B 1_555 1_555
S1B C7B 1_555 1_555
O1B C6B 1_555 1_555
O2B Ni1 1_555 1_555
H1B O2B 1_555 1_555
H2B O2B 1_555 1_555
N1A Ni1 1_555 1_555
N1C Ni1 1_555 1_555
N1B C3B 1_555 1_555
N2B N3B 1_555 1_555
N3B Ni1 1_555 1_555
C1B C2B 1_555 1_555
C2B H3B 1_555 1_555
C3B C2B 1_555 1_555
H4B C3B 1_555 1_555
C4B N1B 1_555 1_555
H5B C4B 1_555 1_555
C5B C1B 1_555 1_555
H6B C5B 1_555 1_555
C6B N2B 1_555 1_555
C7B O1B 1_555 1_555
N3 C7 1_555 1_555
C1 C6 1_555 1_555
C4 C5 1_555 1_555
N3B C7B 1_555 1_555
C1B C6B 1_555 1_555
C4B C5B 1_555 1_555

#END
