
#######################################################################
#
#                 Cambridge Crystallographic Data Centre
#                                CCDC 
#
#######################################################################
#
# If this CIF has been generated from an entry in the Cambridge 
# Structural Database, then it will include bibliographic, chemical, 
# crystal, experimental, refinement or atomic coordinate data resulting 
# from the CCDC's data processing and validation procedures.
#
#######################################################################

data_EDAKOL
_symmetry_cell_setting           triclinic
_symmetry_space_group_name_H-M   'P -1'
_symmetry_Int_Tables_number      2
_space_group_name_Hall           '-P 1'
loop_
_symmetry_equiv_pos_site_id
_symmetry_equiv_pos_as_xyz
1 x,y,z
2 -x,-y,-z
_cell_length_a                   6.843(3)
_cell_length_b                   8.024(4)
_cell_length_c                   8.086(4)
_cell_angle_alpha                78.188(19)
_cell_angle_beta                 69.101(16)
_cell_angle_gamma                82.33(2)
_cell_volume                     405.107
loop_
_atom_site_label
_atom_site_type_symbol
_atom_site_fract_x
_atom_site_fract_y
_atom_site_fract_z
Pb1 Pb 0.07076(4) 0.58938(3) 0.19097(3)
O1 O 0.2174(10) 0.5945(7) -0.1340(8)
N1 N 0.4176(11) 0.6707(8) -0.8135(9)
C1 C 0.2245(12) 0.7576(10) -0.1837(10)
O2 O 0.1979(13) 0.8547(9) -0.0764(9)
C2 C 0.2685(11) 0.8273(10) -0.3794(9)
O3 O 0.1710(11) 1.3538(8) -0.5569(8)
C3 C 0.3304(12) 0.7189(10) -0.5075(10)
H1 H 0.3506 0.5995 -0.4709
O4 O 0.2426(10) 1.3101(7) -0.8346(7)
C4 C 0.3623(12) 0.7842(10) -0.6873(10)
C5 C 0.3255(12) 0.9575(10) -0.7387(11)
H2 H 0.3417 1.0019 -0.8608
C6 C 0.2647(10) 1.0683(9) -0.6130(10)
C7 C 0.2360(11) 1.0026(9) -0.4321(9)
H3 H 0.1947 1.0767 -0.3460
C8 C 0.2262(11) 1.2551(9) -0.6694(9)
H4 H 0.475(12) 0.722(10) -0.928(4)
H5 H 0.506(13) 0.586(9) -0.786(13)
Pb1A Pb -0.07076(4) 0.41062(3) -0.19097(3)
Pb1_2 Pb 0.07076(4) 0.58938(3) -0.80903(3)
Pb1_3 Pb 0.07076(4) 1.58938(3) -0.80903(3)
O1A O -0.2174(10) 0.4055(7) 0.1340(8)
N1_2 N 0.4176(11) 0.6707(8) 0.1865(9)
O3_2 O 0.1710(11) 0.3538(8) 0.4431(8)
O4_2 O 0.2426(10) 0.3101(7) 0.1654(7)
H4_2 H 0.475(12) 0.722(10) 0.072(4)
H5_2 H 0.506(13) 0.586(9) 0.214(13)
loop_
_geom_bond_atom_site_label_1
_geom_bond_atom_site_label_2
_geom_bond_site_symmetry_1
_geom_bond_site_symmetry_2
Pb1 O1 1_555 1_555
O1 C1 1_555 1_555
N1 C4 1_555 1_555
C1 O2 1_555 1_555
O2 Pb1 1_555 1_555
C2 C1 1_555 1_555
O3 C8 1_555 1_555
C3 C2 1_555 1_555
H1 C3 1_555 1_555
O4 C8 1_555 1_555
C4 C3 1_555 1_555
C5 C4 1_555 1_555
H2 C5 1_555 1_555
C6 C5 1_555 1_555
C7 C2 1_555 1_555
H3 C7 1_555 1_555
C8 C6 1_555 1_555
H4 N1 1_555 1_555
H5 N1 1_555 1_555
Pb1A O1 1_555 1_555
Pb1_2 N1 1_555 1_555
Pb1_3 O3 1_555 1_555
O1A Pb1 1_555 1_555
N1_2 Pb1 1_555 1_555
O3_2 Pb1 1_555 1_555
O4_2 Pb1 1_555 1_555
H4_2 N1_2 1_555 1_555
H5_2 N1_2 1_555 1_555
O4 Pb1_3 1_555 1_555
C6 C7 1_555 1_555
Pb1A O1A 1_555 1_555

#END
