
#######################################################################
#
#                 Cambridge Crystallographic Data Centre
#                                CCDC 
#
#######################################################################
#
# If this CIF has been generated from an entry in the Cambridge 
# Structural Database, then it will include bibliographic, chemical, 
# crystal, experimental, refinement or atomic coordinate data resulting 
# from the CCDC's data processing and validation procedures.
#
#######################################################################

data_EDAKIE
_symmetry_cell_setting           monoclinic
_symmetry_space_group_name_H-M   'C c'
_symmetry_Int_Tables_number      9
_space_group_name_Hall           'C -2yc'
loop_
_symmetry_equiv_pos_site_id
_symmetry_equiv_pos_as_xyz
1 x,y,z
2 x,-y,1/2+z
3 1/2+x,1/2+y,z
4 1/2+x,1/2-y,1/2+z
_cell_length_a                   10.5340(10)
_cell_length_b                   10.4940(10)
_cell_length_c                   7.5640(8)
_cell_angle_alpha                90
_cell_angle_beta                 120.8010(10)
_cell_angle_gamma                90
_cell_volume                     718.215
loop_
_atom_site_label
_atom_site_type_symbol
_atom_site_fract_x
_atom_site_fract_y
_atom_site_fract_z
K1 K 0.50000(12) 0.56252(10) 0.50000(14)
O1 O 0.6110(4) 0.8267(4) 0.5299(6)
O2 O 0.8346(4) 0.8883(4) 0.5947(6)
O3 O 0.7334(4) 0.6285(3) 0.3048(6)
H1 H 0.8143 0.5933 0.3621
O4 O 0.6024(4) 0.6425(4) -0.1149(6)
O5 O 0.7244(4) 0.8251(3) -0.0892(6)
H2 H 0.6844 0.8079 -0.2120
O6 O 0.8351(5) 0.5749(4) 0.7211(7)
H3 H 0.8632 0.6450 0.7751
H4 H 0.8621 0.5636 0.6381
C1 C 0.7049(6) 0.8543(5) 0.4753(8)
C2 C 0.6503(6) 0.8418(5) 0.2466(8)
H5 H 0.6570 0.9236 0.1921
H6 H 0.5477 0.8151 0.1729
C3 C 0.7450(6) 0.7435(5) 0.2164(7)
H7 H 0.8482 0.7717 0.2860
C4 C 0.6835(6) 0.7304(5) -0.0148(8)
K1B K 1.00000(12) 1.06252(10) 0.50000(14)
K1C K 1.00000(12) 0.93748(10) 1.00000(14)
K1A K 0.50000(12) 0.43748(10) 0.00000(14)
K1_2 K 0.50000(12) 0.56252(10) -0.50000(14)
K1C_2 K 1.00000(12) 0.93748(10) 0.00000(14)
O2B O 0.3346(4) 0.3883(4) 0.5947(6)
O2C O 0.3346(4) 0.6117(4) 0.0947(6)
O3A O 0.7334(4) 0.3715(3) 0.8048(6)
H1A H 0.8143 0.4067 0.8621
O4_2 O 0.6024(4) 0.6425(4) 0.8851(6)
O4A O 0.6024(4) 0.3575(4) 0.3851(6)
O5C O 0.2244(4) 0.6749(3) 0.4108(6)
H2C H 0.1844 0.6921 0.2880
loop_
_geom_bond_atom_site_label_1
_geom_bond_atom_site_label_2
_geom_bond_site_symmetry_1
_geom_bond_site_symmetry_2
K1 O1 1_555 1_555
O1 C1 1_555 1_555
O2 C1 1_555 1_555
O3 H1 1_555 1_555
O4 C4 1_555 1_555
O5 H2 1_555 1_555
O6 K1 1_555 1_555
H3 O6 1_555 1_555
H4 O6 1_555 1_555
C1 C2 1_555 1_555
C2 H5 1_555 1_555
H6 C2 1_555 1_555
C3 O3 1_555 1_555
H7 C3 1_555 1_555
C4 O5 1_555 1_555
K1B O2 1_555 1_555
K1C O2 1_555 1_555
K1A O3 1_555 1_555
K1_2 O4 1_555 1_555
K1C_2 O5 1_555 1_555
O2B K1 1_555 1_555
O2C K1 1_555 1_555
O3A K1 1_555 1_555
H1A O3A 1_555 1_555
O4_2 K1 1_555 1_555
O4A K1 1_555 1_555
O5C K1 1_555 1_555
H2C O5C 1_555 1_555
O4 K1A 1_555 1_555
C2 C3 1_555 1_555
C3 C4 1_555 1_555
K1A O2C 1_555 1_555
K1A O4A 1_555 1_555

#END
