
#######################################################################
#
#                 Cambridge Crystallographic Data Centre
#                                CCDC 
#
#######################################################################
#
# If this CIF has been generated from an entry in the Cambridge 
# Structural Database, then it will include bibliographic, chemical, 
# crystal, experimental, refinement or atomic coordinate data resulting 
# from the CCDC's data processing and validation procedures.
#
#######################################################################

data_EDAMOM
_symmetry_cell_setting           triclinic
_symmetry_space_group_name_H-M   'P -1'
_symmetry_Int_Tables_number      2
_space_group_name_Hall           '-P 1'
loop_
_symmetry_equiv_pos_site_id
_symmetry_equiv_pos_as_xyz
1 x,y,z
2 -x,-y,-z
_cell_length_a                   8.9083(5)
_cell_length_b                   9.0627(5)
_cell_length_c                   11.9452(7)
_cell_angle_alpha                78.7490(10)
_cell_angle_beta                 81.9590(10)
_cell_angle_gamma                85.2430(10)
_cell_volume                     935.004
loop_
_atom_site_label
_atom_site_type_symbol
_atom_site_fract_x
_atom_site_fract_y
_atom_site_fract_z
B1 B 1.2093(2) 0.1926(3) 0.1847(2)
C1 C 1.0841(2) 0.2916(2) 0.26105(18)
F1 F 0.94367(15) 0.31327(17) 0.21815(13)
F2 F 1.05492(18) 0.21191(16) 0.37080(12)
C2 C 1.1094(3) 0.4500(3) 0.2790(2)
F3 F 1.2465(2) 0.45586(19) 0.30850(16)
F4 F 1.0067(2) 0.4933(2) 0.35895(15)
F5 F 1.0972(2) 0.55206(16) 0.18329(13)
C3 C 1.1182(3) 0.0508(3) 0.1603(2)
F6 F 1.22256(18) -0.04765(18) 0.11113(17)
F7 F 1.02020(17) 0.09847(18) 0.07797(15)
C4 C 1.0229(3) -0.0538(3) 0.2559(4)
F8 F 1.0982(3) -0.1103(2) 0.3417(2)
F9 F 0.8960(2) 0.0156(2) 0.2954(2)
F10 F 0.9811(2) -0.1678(2) 0.2125(3)
C5 C 1.2613(3) 0.3024(3) 0.06008(19)
F11 F 1.34338(17) 0.41749(16) 0.07619(12)
F12 F 1.13672(18) 0.37728(19) 0.01038(12)
C6 C 1.3576(3) 0.2448(4) -0.0419(2)
F13 F 1.48370(19) 0.1704(2) -0.01214(16)
F14 F 1.2851(2) 0.1565(3) -0.08711(17)
F15 F 1.3980(3) 0.3613(3) -0.12555(17)
C7 C 1.3503(3) 0.1136(3) 0.2545(2)
C8 C 1.4761(2) 0.2024(3) 0.27507(19)
O1 O 1.5733(2) 0.2473(3) 0.19597(15)
C9 C 1.4904(2) 0.2299(3) 0.39246(18)
C10 C 1.6141(3) 0.3052(4) 0.4054(2)
C11 C 1.6360(4) 0.3324(4) 0.5111(3)
C12 C 1.5342(4) 0.2856(4) 0.6054(2)
C13 C 1.4115(4) 0.2112(4) 0.5949(2)
C14 C 1.3891(3) 0.1827(4) 0.4892(2)
H1 H 1.310(3) 0.058(3) 0.322(2)
H2 H 1.400(3) 0.041(3) 0.210(2)
H3 H 1.679(4) 0.342(4) 0.342(3)
H4 H 1.724(4) 0.381(4) 0.517(3)
H5 H 1.555(4) 0.307(4) 0.675(3)
H6 H 1.338(4) 0.182(4) 0.658(3)
H7 H 1.308(4) 0.134(3) 0.482(3)
K1 K 0.78404(6) 0.28812(6) 0.02919(5)
F5A F 0.9028(2) 0.44794(16) -0.18329(13)
F6A F 0.77744(18) 0.04765(18) -0.11113(17)
F11A F 0.65662(17) 0.58251(16) -0.07619(12)
F12A F 0.86328(18) 0.62272(19) -0.01038(12)
F13_2 F 0.48370(19) 0.1704(2) -0.01214(16)
O1_2 O 0.5733(2) 0.2473(3) 0.19597(15)
K1A K 1.21596(6) 0.71188(6) -0.02919(5)
K1A_2 K 1.21596(6) -0.28812(6) -0.02919(5)
K1_2 K 1.78404(6) 0.28812(6) 0.02919(5)
loop_
_geom_bond_atom_site_label_1
_geom_bond_atom_site_label_2
_geom_bond_site_symmetry_1
_geom_bond_site_symmetry_2
B1 C1 1_555 1_555
C1 F1 1_555 1_555
F1 K1 1_555 1_555
F2 C1 1_555 1_555
C2 C1 1_555 1_555
F3 C2 1_555 1_555
F4 C2 1_555 1_555
F5 C2 1_555 1_555
C3 B1 1_555 1_555
F6 C3 1_555 1_555
F7 C3 1_555 1_555
C4 C3 1_555 1_555
F8 C4 1_555 1_555
F9 C4 1_555 1_555
F10 C4 1_555 1_555
C5 B1 1_555 1_555
F11 C5 1_555 1_555
F12 C5 1_555 1_555
C6 C5 1_555 1_555
F13 C6 1_555 1_555
F14 C6 1_555 1_555
F15 C6 1_555 1_555
C7 B1 1_555 1_555
C8 C7 1_555 1_555
O1 C8 1_555 1_555
C9 C8 1_555 1_555
C10 C9 1_555 1_555
C11 C10 1_555 1_555
C12 C11 1_555 1_555
C13 C12 1_555 1_555
C14 C9 1_555 1_555
H1 C7 1_555 1_555
H2 C7 1_555 1_555
H3 C10 1_555 1_555
H4 C11 1_555 1_555
H5 C12 1_555 1_555
H6 C13 1_555 1_555
H7 C14 1_555 1_555
K1 F7 1_555 1_555
F5A K1 1_555 1_555
F6A K1 1_555 1_555
F11A K1 1_555 1_555
F12A K1 1_555 1_555
F13_2 K1 1_555 1_555
O1_2 K1 1_555 1_555
K1A F5 1_555 1_555
K1A_2 F6 1_555 1_555
K1_2 F13 1_555 1_555
F11 K1A 1_555 1_555
F12 K1 1_555 1_555
F12 K1A 1_555 1_555
O1 K1_2 1_555 1_555
C13 C14 1_555 1_555
F12A K1A 1_555 1_555

#END
