
#######################################################################
#
#                 Cambridge Crystallographic Data Centre
#                                CCDC 
#
#######################################################################
#
# If this CIF has been generated from an entry in the Cambridge 
# Structural Database, then it will include bibliographic, chemical, 
# crystal, experimental, refinement or atomic coordinate data resulting 
# from the CCDC's data processing and validation procedures.
#
#######################################################################

data_EDAPAC
_symmetry_cell_setting           monoclinic
_symmetry_space_group_name_H-M   'P 21/n'
_symmetry_Int_Tables_number      14
_space_group_name_Hall           '-P 2yn'
loop_
_symmetry_equiv_pos_site_id
_symmetry_equiv_pos_as_xyz
1 x,y,z
2 1/2-x,1/2+y,1/2-z
3 -x,-y,-z
4 1/2+x,1/2-y,1/2+z
_cell_length_a                   12.923(3)
_cell_length_b                   8.9349(18)
_cell_length_c                   13.133(3)
_cell_angle_alpha                90
_cell_angle_beta                 101.90(3)
_cell_angle_gamma                90
_cell_volume                     1483.82
loop_
_atom_site_label
_atom_site_type_symbol
_atom_site_fract_x
_atom_site_fract_y
_atom_site_fract_z
Cu1 Cu 0.33227(5) -0.00657(7) 0.25809(5)
O1 O 0.5628(3) -0.3188(6) -0.0182(4)
O2 O 0.4680(3) -0.4090(6) -0.1661(3)
N1 N 0.4692(3) -0.0375(5) 0.1681(3)
N2 N 0.5602(4) -0.0330(5) 0.2293(4)
N3 N 0.4720(3) -0.1227(6) 0.0850(3)
N4 N 0.4677(3) 0.0808(5) 0.3468(3)
C1 C 0.4701(5) 0.1650(7) 0.4314(5)
H1 H 0.4062 0.1916 0.4485
C2 C 0.5620(5) 0.2141(7) 0.4942(5)
H2 H 0.5607 0.2714 0.5530
C3 C 0.6565(5) 0.1764(8) 0.4677(5)
H3 H 0.7202 0.2080 0.5087
C4 C 0.6555(4) 0.0920(8) 0.3807(5)
H4 H 0.7185 0.0630 0.3627
C5 C 0.5600(4) 0.0510(7) 0.3203(4)
C6 C 0.3817(4) -0.1363(7) 0.0051(4)
C7 C 0.2921(5) -0.0507(7) 0.0040(5)
H5 H 0.2912 0.0188 0.0565
C8 C 0.2041(5) -0.0685(9) -0.0749(5)
H6 H 0.1443 -0.0105 -0.0753
C9 C 0.2043(5) -0.1721(8) -0.1534(5)
H7 H 0.1443 -0.1858 -0.2055
C10 C 0.2935(4) -0.2536(7) -0.1534(4)
H8 H 0.2937 -0.3215 -0.2071
C11 C 0.3837(4) -0.2388(7) -0.0763(4)
C12 C 0.4805(5) -0.3245(7) -0.0819(4)
C13 C 0.5597(6) -0.4910(8) -0.1828(7)
H9 H 0.5413 -0.5477 -0.2461
H10 H 0.5833 -0.5578 -0.1254
H11 H 0.6153 -0.4220 -0.1879
C14 C 0.2506(4) 0.1750(6) 0.2363(4)
N5 N 0.2182(4) 0.2888(8) 0.2398(4)
Cu1A Cu 0.16773(5) 0.49343(7) 0.24191(5)
N5A N 0.2818(4) -0.2112(8) 0.2602(4)
loop_
_geom_bond_atom_site_label_1
_geom_bond_atom_site_label_2
_geom_bond_site_symmetry_1
_geom_bond_site_symmetry_2
Cu1 N1 1_555 1_555
O1 C12 1_555 1_555
O2 C12 1_555 1_555
N1 N2 1_555 1_555
N2 C5 1_555 1_555
N3 N1 1_555 1_555
N4 Cu1 1_555 1_555
C1 N4 1_555 1_555
H1 C1 1_555 1_555
C2 C1 1_555 1_555
H2 C2 1_555 1_555
C3 C2 1_555 1_555
H3 C3 1_555 1_555
C4 C3 1_555 1_555
H4 C4 1_555 1_555
C5 N4 1_555 1_555
C6 N3 1_555 1_555
C7 C6 1_555 1_555
H5 C7 1_555 1_555
C8 C7 1_555 1_555
H6 C8 1_555 1_555
C9 C8 1_555 1_555
H7 C9 1_555 1_555
C10 C9 1_555 1_555
H8 C10 1_555 1_555
C11 C6 1_555 1_555
C12 C11 1_555 1_555
C13 O2 1_555 1_555
H9 C13 1_555 1_555
H10 C13 1_555 1_555
H11 C13 1_555 1_555
C14 Cu1 1_555 1_555
N5 C14 1_555 1_555
Cu1A N5 1_555 1_555
N5A Cu1 1_555 1_555
C4 C5 1_555 1_555
C10 C11 1_555 1_555

#END
