
#######################################################################
#
#                 Cambridge Crystallographic Data Centre
#                                CCDC 
#
#######################################################################
#
# If this CIF has been generated from an entry in the Cambridge 
# Structural Database, then it will include bibliographic, chemical, 
# crystal, experimental, refinement or atomic coordinate data resulting 
# from the CCDC's data processing and validation procedures.
#
#######################################################################

data_EDAPIK
_symmetry_cell_setting           tetragonal
_symmetry_space_group_name_H-M   'P 42 21 2'
_symmetry_Int_Tables_number      94
_space_group_name_Hall           'P 4n 2n'
loop_
_symmetry_equiv_pos_site_id
_symmetry_equiv_pos_as_xyz
1 x,y,z
2 1/2-y,1/2+x,1/2+z
3 -x,-y,z
4 1/2+y,1/2-x,1/2+z
5 1/2-x,1/2+y,1/2-z
6 y,x,-z
7 1/2+x,1/2-y,1/2-z
8 -y,-x,-z
_cell_length_a                   23.485(5)
_cell_length_b                   23.485(5)
_cell_length_c                   8.995(5)
_cell_angle_alpha                90
_cell_angle_beta                 90
_cell_angle_gamma                90
_cell_volume                     4961.15
loop_
_atom_site_label
_atom_site_type_symbol
_atom_site_fract_x
_atom_site_fract_y
_atom_site_fract_z
Cu1 Cu 0.823362(18) 0.823362(18) 0.5000
Cl1 Cl 0.76793(13) 0.87914(15) 0.2800(4)
O1 O 0.85917(11) 1.04130(11) 0.5440(2)
O2 O 0.81727(9) 1.20644(9) 0.6711(2)
N1 N 0.83843(13) 0.89376(13) 0.6211(3)
N2 N 0.75196(13) 1.31230(14) 0.8939(4)
C1 C 0.8359(2) 0.89341(18) 0.7672(4)
C2 C 0.8458(2) 0.93989(19) 0.8566(5)
C3 C 0.85310(18) 0.99292(17) 0.7862(4)
C4 C 0.85255(15) 0.99474(15) 0.6267(3)
C5 C 0.84649(15) 0.94401(16) 0.5532(4)
C6 C 0.86402(16) 1.09232(14) 0.6158(4)
C7 C 0.85881(14) 1.14119(14) 0.5000
C8 C 0.79080(18) 1.3561(2) 0.8939(5)
C9 C 0.83930(16) 1.3508(2) 0.8100(6)
C10 C 0.85055(15) 1.30017(17) 0.7311(5)
C11 C 0.81391(14) 1.25842(15) 0.7399(4)
C12 C 0.76230(16) 1.26603(15) 0.8231(4)
C13 C 0.86702(18) 1.19791(16) 0.5730(4)
Cu1B Cu 1.176638(18) 1.176638(18) 0.5000
Cu1A Cu 0.676638(18) 1.323362(18) 0.0000
Cu1A_2 Cu 0.676638(18) 1.323362(18) 1.0000
Cu1C Cu 1.323362(18) 0.676638(18) 0.0000
Cu1C_2 Cu 1.323362(18) 0.676638(18) 1.0000
Cl1B Cl 1.23207(13) 1.12086(15) 0.2800(4)
Cl1E Cl 0.87914(15) 0.76793(13) 0.7200(4)
Cl1G Cl 1.12086(15) 1.23207(13) 0.7200(4)
O1G O 0.95870(11) 1.14083(11) 0.4560(2)
O1B O 1.14083(11) 0.95870(11) 0.5440(2)
O1E O 1.04130(11) 0.85917(11) 0.4560(2)
O2G O 0.79356(9) 1.18273(9) 0.3289(2)
O2B O 1.18273(9) 0.79356(9) 0.6711(2)
O2E O 1.20644(9) 0.81727(9) 0.3289(2)
N1G N 1.10624(13) 1.16157(13) 0.3789(3)
N1B N 1.16157(13) 1.10624(13) 0.6211(3)
N1E N 0.89376(13) 0.83843(13) 0.3789(3)
N2G N 0.68770(14) 1.24804(13) 0.1061(4)
N2B N 1.24804(13) 0.68770(14) 0.8939(4)
N2E N 1.31230(14) 0.75196(13) 0.1061(4)
N2A N 1.18770(14) 1.25196(13) 0.3939(4)
N2C N 0.81230(14) 0.74804(13) 0.3939(4)
N2D N 0.74804(13) 0.81230(14) 0.6061(4)
N2F N 1.25196(13) 1.18770(14) 0.6061(4)
C1G C 1.10659(18) 1.1641(2) 0.2328(4)
C1B C 1.1641(2) 1.10659(18) 0.7672(4)
C1E C 0.89341(18) 0.8359(2) 0.2328(4)
C2G C 1.06011(19) 1.1542(2) 0.1434(5)
C2B C 1.1542(2) 1.06011(19) 0.8566(5)
C2E C 0.93989(19) 0.8458(2) 0.1434(5)
C3G C 1.00708(17) 1.14690(18) 0.2138(4)
C3B C 1.14690(18) 1.00708(17) 0.7862(4)
C3E C 0.99292(17) 0.85310(18) 0.2138(4)
C4G C 1.00526(15) 1.14745(15) 0.3733(3)
C4B C 1.14745(15) 1.00526(15) 0.6267(3)
C4E C 0.99474(15) 0.85255(15) 0.3733(3)
C5G C 1.05599(16) 1.15351(15) 0.4468(4)
C5B C 1.15351(15) 1.05599(16) 0.5532(4)
C5E C 0.94401(16) 0.84649(15) 0.4468(4)
C6G C 0.90768(14) 1.13598(16) 0.3842(4)
C6B C 1.13598(16) 0.90768(14) 0.6158(4)
C6E C 1.09232(14) 0.86402(16) 0.3842(4)
C7B C 1.14119(14) 0.85881(14) 0.5000
C8G C 0.6439(2) 1.20920(18) 0.1061(5)
C8B C 1.20920(18) 0.6439(2) 0.8939(5)
C8E C 1.3561(2) 0.79080(18) 0.1061(5)
C9G C 0.6492(2) 1.16070(16) 0.1900(6)
C9B C 1.16070(16) 0.6492(2) 0.8100(6)
C9E C 1.3508(2) 0.83930(16) 0.1900(6)
C10G C 0.69983(17) 1.14945(15) 0.2689(5)
C10B C 1.14945(15) 0.69983(17) 0.7311(5)
C10E C 1.30017(17) 0.85055(15) 0.2689(5)
C11G C 0.74158(15) 1.18609(14) 0.2601(4)
C11B C 1.18609(14) 0.74158(15) 0.7399(4)
C11E C 1.25842(15) 0.81391(14) 0.2601(4)
C12G C 0.73397(15) 1.23770(16) 0.1769(4)
C12B C 1.23770(16) 0.73397(15) 0.8231(4)
C12E C 1.26603(15) 0.76230(16) 0.1769(4)
C13G C 0.80209(16) 1.13298(18) 0.4270(4)
C13B C 1.13298(18) 0.80209(16) 0.5730(4)
C13E C 1.19791(16) 0.86702(18) 0.4270(4)
loop_
_geom_bond_atom_site_label_1
_geom_bond_atom_site_label_2
_geom_bond_site_symmetry_1
_geom_bond_site_symmetry_2
Cu1 Cl1 1_555 1_555
O1 C4 1_555 1_555
O2 C11 1_555 1_555
N1 Cu1 1_555 1_555
N2 C8 1_555 1_555
C1 N1 1_555 1_555
C2 C1 1_555 1_555
C3 C2 1_555 1_555
C4 C3 1_555 1_555
C5 N1 1_555 1_555
C6 O1 1_555 1_555
C7 C6 1_555 1_555
C8 C9 1_555 1_555
C9 C10 1_555 1_555
C10 C11 1_555 1_555
C11 C12 1_555 1_555
C12 N2 1_555 1_555
C13 O2 1_555 1_555
Cu1B Cl1B 1_555 1_555
Cu1A N2G 1_555 1_555
Cu1A_2 N2 1_555 1_555
Cu1C N2E 1_555 1_555
Cu1C_2 N2B 1_555 1_555
Cl1E Cu1 1_555 1_555
Cl1G Cu1B 1_555 1_555
O1G C4G 1_555 1_555
O1B C4B 1_555 1_555
O1E C4E 1_555 1_555
O2G C11G 1_555 1_555
O2B C11B 1_555 1_555
O2E C11E 1_555 1_555
N1G Cu1B 1_555 1_555
N1B Cu1B 1_555 1_555
N1E Cu1 1_555 1_555
N2G C8G 1_555 1_555
N2B C8B 1_555 1_555
N2E C8E 1_555 1_555
N2A Cu1B 1_555 1_555
N2C Cu1 1_555 1_555
N2D Cu1 1_555 1_555
N2F Cu1B 1_555 1_555
C1G N1G 1_555 1_555
C1B N1B 1_555 1_555
C1E N1E 1_555 1_555
C2G C1G 1_555 1_555
C2B C1B 1_555 1_555
C2E C1E 1_555 1_555
C3G C2G 1_555 1_555
C3B C2B 1_555 1_555
C3E C2E 1_555 1_555
C4G C3G 1_555 1_555
C4B C3B 1_555 1_555
C4E C3E 1_555 1_555
C5G N1G 1_555 1_555
C5B N1B 1_555 1_555
C5E N1E 1_555 1_555
C6G C7 1_555 1_555
C6B O1B 1_555 1_555
C6E O1E 1_555 1_555
C7B C6B 1_555 1_555
C8G C9G 1_555 1_555
C8B C9B 1_555 1_555
C8E C9E 1_555 1_555
C9G C10G 1_555 1_555
C9B C10B 1_555 1_555
C9E C10E 1_555 1_555
C10G C11G 1_555 1_555
C10B C11B 1_555 1_555
C10E C11E 1_555 1_555
C11G C12G 1_555 1_555
C11B C12B 1_555 1_555
C11E C12E 1_555 1_555
C12G N2G 1_555 1_555
C12B N2B 1_555 1_555
C12E N2E 1_555 1_555
C13G C7 1_555 1_555
C13B O2B 1_555 1_555
C13E O2E 1_555 1_555
C4 C5 1_555 1_555
C7 C13 1_555 1_555
O1G C6G 1_555 1_555
O2G C13G 1_555 1_555
C4G C5G 1_555 1_555
C4B C5B 1_555 1_555
C4E C5E 1_555 1_555
C6E C7B 1_555 1_555
C7B C13B 1_555 1_555
C7B C13E 1_555 1_555

#END
