
#######################################################################
#
#                 Cambridge Crystallographic Data Centre
#                                CCDC 
#
#######################################################################
#
# If this CIF has been generated from an entry in the Cambridge 
# Structural Database, then it will include bibliographic, chemical, 
# crystal, experimental, refinement or atomic coordinate data resulting 
# from the CCDC's data processing and validation procedures.
#
#######################################################################

data_EDASOS
_symmetry_cell_setting           triclinic
_symmetry_space_group_name_H-M   'P -1'
_symmetry_Int_Tables_number      2
_space_group_name_Hall           '-P 1'
loop_
_symmetry_equiv_pos_site_id
_symmetry_equiv_pos_as_xyz
1 x,y,z
2 -x,-y,-z
_cell_length_a                   8.660(5)
_cell_length_b                   13.717(8)
_cell_length_c                   19.526(10)
_cell_angle_alpha                105.70(4)
_cell_angle_beta                 93.02(4)
_cell_angle_gamma                99.44(4)
_cell_volume                     2191.17
loop_
_atom_site_label
_atom_site_type_symbol
_atom_site_fract_x
_atom_site_fract_y
_atom_site_fract_z
Cu1 Cu 0.5000 0.0000 0.5000
Cu2 Cu 0.48472(4) 0.48341(3) 0.77133(2)
Cu3 Cu 0.5000 1.0000 1.0000
F1 F 0.9700(2) 0.27111(13) 0.47377(11)
F2 F 1.0391(2) 0.12347(14) 0.45841(11)
F3 F 0.9610(2) 0.16915(18) 0.36725(11)
F4 F 0.4554(2) 0.19535(18) 0.30152(12)
F5 F 0.2678(2) 0.07544(14) 0.30900(10)
F6 F 0.3069(2) 0.22333(13) 0.38737(11)
F7 F 0.2430(2) 0.62249(14) 0.61834(11)
F8 F 0.4119(2) 0.60275(14) 0.54062(10)
F9 F 0.2466(2) 0.47101(14) 0.54879(11)
F10 F 0.9856(2) 0.5316(2) 0.70350(12)
F11 F 0.9119(2) 0.5401(2) 0.59937(12)
F12 F 0.8751(2) 0.39628(19) 0.62309(16)
F13 F 0.0578(2) 0.53473(13) 0.90075(11)
F14 F -0.0267(2) 0.38956(19) 0.82332(12)
F15 F 0.0442(2) 0.39597(17) 0.93209(12)
F16 F 0.7292(2) 0.43162(18) 0.96976(11)
F17 F 0.6767(2) 0.28401(16) 0.89487(13)
F18 F 0.5360(2) 0.3219(2) 0.98248(18)
F19 F 0.3115(2) 1.13499(16) 0.82248(11)
F20 F 0.4539(2) 1.06068(16) 0.74452(10)
F21 F 0.2670(2) 0.96967(16) 0.78121(10)
F22 F 1.0081(2) 1.18046(16) 0.93620(13)
F23 F 0.9598(2) 1.0748(2) 0.83154(12)
F24 F 1.0216(2) 1.02481(18) 0.92132(14)
O1 O 0.4123(2) 0.06309(13) 0.43136(11)
O2 O 0.7468(2) 0.07777(14) 0.48679(11)
O3 O 0.3849(2) 0.52446(14) 0.69530(11)
O4 O 0.6877(2) 0.49184(14) 0.73225(11)
O5 O 0.2796(2) 0.47099(14) 0.80876(11)
O6 O 0.5795(2) 0.43384(14) 0.84422(11)
O7 O 0.4175(2) 1.03872(14) 0.91760(11)
O8 O 0.7463(2) 1.06044(14) 0.97527(11)
N1 N 0.4813(2) 0.12541(18) 0.58116(12)
N2 N 0.4456(2) 0.29500(18) 0.69222(12)
N3 N 0.5295(2) 0.66650(18) 0.84429(12)
N4 N 0.5116(2) 0.85872(18) 0.93465(12)
C1 C 0.3271(3) 0.2462(2) 0.64109(16)
C2 C 0.3471(3) 0.1622(2) 0.58476(16)
C3 C 0.5981(3) 0.1727(2) 0.63353(16)
C4 C 0.5800(3) 0.2575(2) 0.68774(16)
C5 C 0.1691(3) 0.2789(2) 0.64778(17)
C6 C 0.0689(3) 0.2213(2) 0.69193(19)
C7 C 0.0246(4) 0.1057(2) 0.6584(2)
C8 C 0.6526(3) 0.7216(2) 0.89089(16)
C9 C 0.6413(3) 0.8178(2) 0.93654(16)
C10 C 0.3905(3) 0.8035(2) 0.88694(16)
C11 C 0.3993(3) 0.7077(2) 0.84299(17)
C12 C 0.8032(3) 0.6806(2) 0.89194(17)
C13 C 0.9439(3) 0.7523(2) 0.87535(19)
C14 C 0.9145(4) 0.7762(2) 0.8046(2)
C15 C 0.9365(3) 0.1725(2) 0.43473(17)
C16 C 0.7647(3) 0.1248(2) 0.44073(16)
C17 C 0.6492(3) 0.1443(2) 0.39543(17)
C18 C 0.4889(3) 0.1153(2) 0.39575(14)
C19 C 0.3797(3) 0.1525(2) 0.34759(18)
C20 C 0.3378(3) 0.5595(2) 0.58675(18)
C21 C 0.4507(3) 0.5397(2) 0.64231(17)
C22 C 0.6058(3) 0.5355(2) 0.62779(17)
C23 C 0.7110(3) 0.5097(2) 0.67301(17)
C24 C 0.8739(3) 0.4960(2) 0.64955(19)
C25 C 0.0779(3) 0.4374(2) 0.87925(18)
C26 C 0.2477(3) 0.4334(2) 0.85941(17)
C27 C 0.3467(3) 0.3934(2) 0.89854(18)
C28 C 0.5045(3) 0.3978(2) 0.88810(17)
C29 C 0.6100(4) 0.3570(3) 0.9345(2)
C30 C 0.3818(3) 1.0529(2) 0.80254(18)
C31 C 0.4918(3) 1.0471(2) 0.86423(16)
C32 C 0.6505(3) 1.0530(2) 0.85642(17)
C33 C 0.7654(3) 1.0644(2) 0.91326(17)
C34 C 0.9393(3) 1.0865(2) 0.89921(18)
H1 H 0.2630 0.1305 0.5482
H2 H 0.6941 0.1477 0.6332
H3 H 0.6657 0.2904 0.7233
H4 H 0.1847 0.3509 0.6706
H5 H 0.1156 0.2643 0.6014
H6 H 0.1263 0.2334 0.7372
H7 H -0.0254 0.2482 0.6984
H8 H -0.0722 0.0901 0.6290
H9 H 0.0137 0.0721 0.6950
H10 H 0.1046 0.0824 0.6302
H11 H 0.7287 0.8554 0.9700
H12 H 0.2974 0.8308 0.8834
H13 H 0.3104 0.6695 0.8107
H14 H 0.8262 0.6728 0.9380
H15 H 0.7889 0.6154 0.8572
H16 H 0.9645 0.8153 0.9126
H17 H 1.0332 0.7200 0.8736
H18 H 0.9480 0.7261 0.7673
H19 H 0.9718 0.8426 0.8074
H20 H 0.8053 0.7746 0.7950
H21 H 0.6841 0.1802 0.3621
H22 H 0.6404 0.5507 0.5858
H23 H 0.3052 0.3622 0.9332
H24 H 0.6838 1.0492 0.8103
Cu2A Cu 0.51528(4) -0.48341(3) 0.22867(2)
Cu3_2 Cu 0.5000 -1.0000 0.0000
F1A F 0.0300(2) -0.27111(13) 0.52623(11)
F2A F -0.0391(2) -0.12347(14) 0.54159(11)
F3A F 0.0390(2) -0.16915(18) 0.63275(11)
F4A F 0.5446(2) -0.19535(18) 0.69848(12)
F5A F 0.7322(2) -0.07544(14) 0.69100(10)
F6A F 0.6931(2) -0.22333(13) 0.61263(11)
F7A F 0.7570(2) -0.62249(14) 0.38166(11)
F8A F 0.5881(2) -0.60275(14) 0.45938(10)
F9A F 0.7534(2) -0.47101(14) 0.45121(11)
F10A F 0.0144(2) -0.5316(2) 0.29650(12)
F11A F 0.0881(2) -0.5401(2) 0.40063(12)
F12A F 0.1249(2) -0.39628(19) 0.37691(16)
F13A F 0.9422(2) -0.53473(13) 0.09925(11)
F14A F 1.0267(2) -0.38956(19) 0.17668(12)
F15A F 0.9558(2) -0.39597(17) 0.06791(12)
F16A F 0.2708(2) -0.43162(18) 0.03024(11)
F17A F 0.3233(2) -0.28401(16) 0.10513(13)
F18A F 0.4640(2) -0.3219(2) 0.01752(18)
F19A F 0.6885(2) 0.86501(16) 1.17752(11)
F20A F 0.5461(2) 0.93932(16) 1.25548(10)
F21A F 0.7330(2) 1.03033(16) 1.21879(10)
F22A F -0.0081(2) 0.81954(16) 1.06380(13)
F23A F 0.0402(2) 0.9252(2) 1.16846(12)
F24A F -0.0216(2) 0.97519(18) 1.07868(14)
O1A O 0.5877(2) -0.06309(13) 0.56864(11)
O2A O 0.2532(2) -0.07777(14) 0.51321(11)
O3A O 0.6151(2) -0.52446(14) 0.30470(11)
O4A O 0.3123(2) -0.49184(14) 0.26775(11)
O5A O 0.7204(2) -0.47099(14) 0.19124(11)
O6A O 0.4205(2) -0.43384(14) 0.15578(11)
O7A O 0.5825(2) 0.96128(14) 1.08240(11)
O8A O 0.2537(2) 0.93956(14) 1.02473(11)
N1A N 0.5187(2) -0.12541(18) 0.41884(12)
N2A N 0.5544(2) -0.29500(18) 0.30778(12)
N3A N 0.4705(2) -0.66650(18) 0.15571(12)
N4A N 0.4884(2) -0.85872(18) 0.06535(12)
N4A_2 N 0.4884(2) 1.14128(18) 1.06535(12)
C1A C 0.6729(3) -0.2462(2) 0.35891(16)
C2A C 0.6529(3) -0.1622(2) 0.41524(16)
C3A C 0.4019(3) -0.1727(2) 0.36647(16)
C4A C 0.4200(3) -0.2575(2) 0.31226(16)
C5A C 0.8309(3) -0.2789(2) 0.35222(17)
C6A C 0.9311(3) -0.2213(2) 0.30807(19)
C7A C 0.9754(4) -0.1057(2) 0.3416(2)
C8A C 0.3474(3) -0.7216(2) 0.10911(16)
C9A C 0.3587(3) -0.8178(2) 0.06346(16)
C10A C 0.6095(3) -0.8035(2) 0.11306(16)
C11A C 0.6007(3) -0.7077(2) 0.15701(17)
C12A C 0.1968(3) -0.6806(2) 0.10806(17)
C13A C 0.0561(3) -0.7523(2) 0.12465(19)
C14A C 0.0855(4) -0.7762(2) 0.1954(2)
C15A C 0.0635(3) -0.1725(2) 0.56527(17)
C16A C 0.2353(3) -0.1248(2) 0.55927(16)
C17A C 0.3508(3) -0.1443(2) 0.60457(17)
C18A C 0.5111(3) -0.1153(2) 0.60425(14)
C19A C 0.6203(3) -0.1525(2) 0.65241(18)
C20A C 0.6622(3) -0.5595(2) 0.41325(18)
C21A C 0.5493(3) -0.5397(2) 0.35769(17)
C22A C 0.3942(3) -0.5355(2) 0.37221(17)
C23A C 0.2890(3) -0.5097(2) 0.32699(17)
C24A C 0.1261(3) -0.4960(2) 0.35045(19)
C25A C 0.9221(3) -0.4374(2) 0.12075(18)
C26A C 0.7523(3) -0.4334(2) 0.14059(17)
C27A C 0.6533(3) -0.3934(2) 0.10146(18)
C28A C 0.4955(3) -0.3978(2) 0.11190(17)
C29A C 0.3900(4) -0.3570(3) 0.0655(2)
C30A C 0.6182(3) 0.9471(2) 1.19746(18)
C31A C 0.5082(3) 0.9529(2) 1.13577(16)
C32A C 0.3495(3) 0.9470(2) 1.14358(17)
C33A C 0.2346(3) 0.9356(2) 1.08674(17)
C34A C 0.0607(3) 0.9135(2) 1.10079(18)
H1A H 0.7370 -0.1305 0.4518
H2A H 0.3059 -0.1477 0.3668
H3A H 0.3343 -0.2904 0.2767
H4A H 0.8153 -0.3509 0.3294
H5A H 0.8844 -0.2643 0.3986
H6A H 0.8737 -0.2334 0.2628
H7A H 1.0254 -0.2482 0.3016
H8A H 1.0722 -0.0901 0.3710
H9A H 0.9863 -0.0721 0.3050
H10A H 0.8954 -0.0824 0.3698
H11A H 0.2713 -0.8554 0.0300
H12A H 0.7026 -0.8308 0.1166
H13A H 0.6896 -0.6695 0.1893
H14A H 0.1738 -0.6728 0.0620
H15A H 0.2111 -0.6154 0.1428
H16A H 0.0355 -0.8153 0.0874
H17A H -0.0332 -0.7200 0.1264
H18A H 0.0520 -0.7261 0.2327
H19A H 0.0282 -0.8426 0.1926
H20A H 0.1947 -0.7746 0.2050
H21A H 0.3159 -0.1802 0.6379
H22A H 0.3596 -0.5507 0.4142
H23A H 0.6948 -0.3622 0.0668
H24A H 0.3162 0.9508 1.1897
loop_
_geom_bond_atom_site_label_1
_geom_bond_atom_site_label_2
_geom_bond_site_symmetry_1
_geom_bond_site_symmetry_2
Cu1 O1 1_555 1_555
Cu2 O3 1_555 1_555
Cu3 O7 1_555 1_555
F1 C15 1_555 1_555
F2 C15 1_555 1_555
F3 C15 1_555 1_555
F4 C19 1_555 1_555
F5 C19 1_555 1_555
F6 C19 1_555 1_555
F7 C20 1_555 1_555
F8 C20 1_555 1_555
F9 C20 1_555 1_555
F10 C24 1_555 1_555
F11 C24 1_555 1_555
F12 C24 1_555 1_555
F13 C25 1_555 1_555
F14 C25 1_555 1_555
F15 C25 1_555 1_555
F16 C29 1_555 1_555
F17 C29 1_555 1_555
F18 C29 1_555 1_555
F19 C30 1_555 1_555
F20 C30 1_555 1_555
F21 C30 1_555 1_555
F22 C34 1_555 1_555
F23 C34 1_555 1_555
F24 C34 1_555 1_555
O1 C18 1_555 1_555
O2 Cu1 1_555 1_555
O3 C21 1_555 1_555
O4 Cu2 1_555 1_555
O5 Cu2 1_555 1_555
O6 Cu2 1_555 1_555
O7 C31 1_555 1_555
O8 Cu3 1_555 1_555
N1 Cu1 1_555 1_555
N2 Cu2 1_555 1_555
N3 Cu2 1_555 1_555
N4 Cu3 1_555 1_555
C1 N2 1_555 1_555
C2 N1 1_555 1_555
C3 N1 1_555 1_555
C4 N2 1_555 1_555
C5 C1 1_555 1_555
C6 C5 1_555 1_555
C7 C6 1_555 1_555
C8 N3 1_555 1_555
C9 N4 1_555 1_555
C10 N4 1_555 1_555
C11 N3 1_555 1_555
C12 C8 1_555 1_555
C13 C12 1_555 1_555
C14 C13 1_555 1_555
C15 C16 1_555 1_555
C16 O2 1_555 1_555
C17 C16 1_555 1_555
C18 C17 1_555 1_555
C19 C18 1_555 1_555
C20 C21 1_555 1_555
C21 C22 1_555 1_555
C22 C23 1_555 1_555
C23 O4 1_555 1_555
C24 C23 1_555 1_555
C25 C26 1_555 1_555
C26 O5 1_555 1_555
C27 C26 1_555 1_555
C28 O6 1_555 1_555
C29 C28 1_555 1_555
C30 C31 1_555 1_555
C31 C32 1_555 1_555
C32 C33 1_555 1_555
C33 O8 1_555 1_555
C34 C33 1_555 1_555
H1 C2 1_555 1_555
H2 C3 1_555 1_555
H3 C4 1_555 1_555
H4 C5 1_555 1_555
H5 C5 1_555 1_555
H6 C6 1_555 1_555
H7 C6 1_555 1_555
H8 C7 1_555 1_555
H9 C7 1_555 1_555
H10 C7 1_555 1_555
H11 C9 1_555 1_555
H12 C10 1_555 1_555
H13 C11 1_555 1_555
H14 C12 1_555 1_555
H15 C12 1_555 1_555
H16 C13 1_555 1_555
H17 C13 1_555 1_555
H18 C14 1_555 1_555
H19 C14 1_555 1_555
H20 C14 1_555 1_555
H21 C17 1_555 1_555
H22 C22 1_555 1_555
H23 C27 1_555 1_555
H24 C32 1_555 1_555
Cu2A O3A 1_555 1_555
Cu3_2 N4A 1_555 1_555
F1A C15A 1_555 1_555
F2A C15A 1_555 1_555
F3A C15A 1_555 1_555
F4A C19A 1_555 1_555
F5A C19A 1_555 1_555
F6A C19A 1_555 1_555
F7A C20A 1_555 1_555
F8A C20A 1_555 1_555
F9A C20A 1_555 1_555
F10A C24A 1_555 1_555
F11A C24A 1_555 1_555
F12A C24A 1_555 1_555
F13A C25A 1_555 1_555
F14A C25A 1_555 1_555
F15A C25A 1_555 1_555
F16A C29A 1_555 1_555
F17A C29A 1_555 1_555
F18A C29A 1_555 1_555
F19A C30A 1_555 1_555
F20A C30A 1_555 1_555
F21A C30A 1_555 1_555
F22A C34A 1_555 1_555
F23A C34A 1_555 1_555
F24A C34A 1_555 1_555
O1A Cu1 1_555 1_555
O2A Cu1 1_555 1_555
O3A C21A 1_555 1_555
O4A Cu2A 1_555 1_555
O5A Cu2A 1_555 1_555
O6A Cu2A 1_555 1_555
O7A Cu3 1_555 1_555
O8A Cu3 1_555 1_555
N1A Cu1 1_555 1_555
N2A Cu2A 1_555 1_555
N3A Cu2A 1_555 1_555
N4A C9A 1_555 1_555
N4A_2 Cu3 1_555 1_555
C1A N2A 1_555 1_555
C2A N1A 1_555 1_555
C3A N1A 1_555 1_555
C4A N2A 1_555 1_555
C5A C1A 1_555 1_555
C6A C5A 1_555 1_555
C7A C6A 1_555 1_555
C8A N3A 1_555 1_555
C9A C8A 1_555 1_555
C10A N4A 1_555 1_555
C11A N3A 1_555 1_555
C12A C8A 1_555 1_555
C13A C12A 1_555 1_555
C14A C13A 1_555 1_555
C15A C16A 1_555 1_555
C16A O2A 1_555 1_555
C17A C16A 1_555 1_555
C18A O1A 1_555 1_555
C19A C18A 1_555 1_555
C20A C21A 1_555 1_555
C21A C22A 1_555 1_555
C22A C23A 1_555 1_555
C23A O4A 1_555 1_555
C24A C23A 1_555 1_555
C25A C26A 1_555 1_555
C26A O5A 1_555 1_555
C27A C26A 1_555 1_555
C28A O6A 1_555 1_555
C29A C28A 1_555 1_555
C30A C31A 1_555 1_555
C31A O7A 1_555 1_555
C32A C31A 1_555 1_555
C33A O8A 1_555 1_555
C34A C33A 1_555 1_555
H1A C2A 1_555 1_555
H2A C3A 1_555 1_555
H3A C4A 1_555 1_555
H4A C5A 1_555 1_555
H5A C5A 1_555 1_555
H6A C6A 1_555 1_555
H7A C6A 1_555 1_555
H8A C7A 1_555 1_555
H9A C7A 1_555 1_555
H10A C7A 1_555 1_555
H11A C9A 1_555 1_555
H12A C10A 1_555 1_555
H13A C11A 1_555 1_555
H14A C12A 1_555 1_555
H15A C12A 1_555 1_555
H16A C13A 1_555 1_555
H17A C13A 1_555 1_555
H18A C14A 1_555 1_555
H19A C14A 1_555 1_555
H20A C14A 1_555 1_555
H21A C17A 1_555 1_555
H22A C22A 1_555 1_555
H23A C27A 1_555 1_555
H24A C32A 1_555 1_555
C1 C2 1_555 1_555
C3 C4 1_555 1_555
C8 C9 1_555 1_555
C10 C11 1_555 1_555
C27 C28 1_555 1_555
C1A C2A 1_555 1_555
C3A C4A 1_555 1_555
C10A C11A 1_555 1_555
C17A C18A 1_555 1_555
C27A C28A 1_555 1_555
C32A C33A 1_555 1_555

#END
