
#######################################################################
#
#                 Cambridge Crystallographic Data Centre
#                                CCDC 
#
#######################################################################
#
# If this CIF has been generated from an entry in the Cambridge 
# Structural Database, then it will include bibliographic, chemical, 
# crystal, experimental, refinement or atomic coordinate data resulting 
# from the CCDC's data processing and validation procedures.
#
#######################################################################

data_EDAZEQ
_symmetry_cell_setting           triclinic
_symmetry_space_group_name_H-M   'P -1'
_symmetry_Int_Tables_number      2
_space_group_name_Hall           '-P 1'
loop_
_symmetry_equiv_pos_site_id
_symmetry_equiv_pos_as_xyz
1 x,y,z
2 -x,-y,-z
_cell_length_a                   10.006(2)
_cell_length_b                   10.241(2)
_cell_length_c                   10.658(2)
_cell_angle_alpha                78.102(8)
_cell_angle_beta                 68.184(7)
_cell_angle_gamma                81.527(9)
_cell_volume                     989.13
loop_
_atom_site_label
_atom_site_type_symbol
_atom_site_fract_x
_atom_site_fract_y
_atom_site_fract_z
Mn1 Mn 1.07144(8) 0.61613(7) 0.09167(7)
O1 O 1.1596(5) 0.7090(4) 0.2222(4)
O2 O 1.0689(5) 0.8371(4) 0.0763(4)
O3 O 1.1370(4) 1.4174(3) 0.1709(4)
N1 N 0.8688(5) 0.5898(5) 0.2829(4)
N2 N 0.2782(5) 0.6102(5) 0.9074(4)
C1 C 1.1308(6) 0.9448(5) 0.2216(5)
C2 C 1.1072(6) 1.0735(5) 0.1541(5)
H1 H 1.0801 1.0852 0.0768
C3 C 0.6370(6) 0.5926(5) 0.5326(5)
C4 C 1.1240(6) 1.1842(5) 0.2018(5)
C5 C 1.1052(6) 1.3249(5) 0.1286(5)
O4 O 1.2069(7) 0.9122(5) 0.5790(5)
C6 C 1.1673(7) 0.9280(5) 0.3382(6)
H2 H 1.1827 0.8418 0.3846
C7 C 1.1198(6) 0.8212(5) 0.1700(5)
C8 C 0.6278(6) 0.6618(6) 0.4085(6)
H3 H 0.5416 0.7118 0.4071
C9 C 0.7438(6) 0.6575(6) 0.2879(6)
H4 H 0.7338 0.7045 0.2059
C10 C 1.1616(7) 1.1690(5) 0.3173(6)
H5 H 1.1739 1.2436 0.3494
C11 C 1.1803(8) 1.0391(6) 0.3840(6)
C12 C 0.5156(6) 0.5987(6) 0.6647(5)
N3 N 1.2121(8) 1.0215(6) 0.5116(6)
C13 C 0.7684(7) 0.5199(7) 0.5260(6)
H6 H 0.7814 0.4702 0.6058
C14 C 0.3876(6) 0.5160(6) 0.8999(6)
H7 H 0.3832 0.4523 0.9784
O5 O 1.2294(14) 1.1171(7) 0.5485(8)
C15 C 0.5055(7) 0.5082(7) 0.7831(6)
H8 H 0.5802 0.4407 0.7833
C16 C 0.8784(7) 0.5219(6) 0.4010(6)
H9 H 0.9659 0.4723 0.3985
C17 C 0.4065(8) 0.6981(8) 0.6766(7)
H10 H 0.4122 0.7680 0.6026
C18 C 0.2882(9) 0.6970(8) 0.7959(7)
H11 H 0.2108 0.7617 0.7974
O6 O 1.0570(5) 1.3414(4) 0.0336(4)
Mn1_2 Mn 1.07144(8) 1.61613(7) 0.09167(7)
Mn1_3 Mn 0.07144(8) 0.61613(7) 1.09167(7)
Mn1A Mn 0.92856(8) 1.38387(7) -0.09167(7)
O3_2 O 1.1370(4) 0.4174(3) 0.1709(4)
N2_2 N 1.2782(5) 0.6102(5) -0.0926(4)
O6A O 0.9430(5) 0.6586(4) -0.0336(4)
loop_
_geom_bond_atom_site_label_1
_geom_bond_atom_site_label_2
_geom_bond_site_symmetry_1
_geom_bond_site_symmetry_2
Mn1 O1 1_555 1_555
O1 C7 1_555 1_555
O2 Mn1 1_555 1_555
O3 C5 1_555 1_555
N1 Mn1 1_555 1_555
N2 C14 1_555 1_555
C1 C2 1_555 1_555
C2 H1 1_555 1_555
C3 C8 1_555 1_555
C4 C2 1_555 1_555
C5 C4 1_555 1_555
O4 N3 1_555 1_555
C6 C1 1_555 1_555
H2 C6 1_555 1_555
C7 O2 1_555 1_555
C8 H3 1_555 1_555
C9 N1 1_555 1_555
H4 C9 1_555 1_555
C10 C4 1_555 1_555
H5 C10 1_555 1_555
C11 C6 1_555 1_555
C12 C3 1_555 1_555
N3 C11 1_555 1_555
C13 C3 1_555 1_555
H6 C13 1_555 1_555
C14 H7 1_555 1_555
O5 N3 1_555 1_555
C15 C12 1_555 1_555
H8 C15 1_555 1_555
C16 N1 1_555 1_555
H9 C16 1_555 1_555
C17 C12 1_555 1_555
H10 C17 1_555 1_555
C18 N2 1_555 1_555
H11 C18 1_555 1_555
O6 C5 1_555 1_555
Mn1_2 O3 1_555 1_555
Mn1_3 N2 1_555 1_555
Mn1A O6 1_555 1_555
O3_2 Mn1 1_555 1_555
N2_2 Mn1 1_555 1_555
O6A Mn1 1_555 1_555
C1 C7 1_555 1_555
C8 C9 1_555 1_555
C10 C11 1_555 1_555
C13 C16 1_555 1_555
C14 C15 1_555 1_555
C17 C18 1_555 1_555

#END
