
#######################################################################
#
#                 Cambridge Crystallographic Data Centre
#                                CCDC 
#
#######################################################################
#
# If this CIF has been generated from an entry in the Cambridge 
# Structural Database, then it will include bibliographic, chemical, 
# crystal, experimental, refinement or atomic coordinate data resulting 
# from the CCDC's data processing and validation procedures.
#
#######################################################################

data_EDAZUF
_symmetry_cell_setting           orthorhombic
_symmetry_space_group_name_H-M   'P 21 21 21'
_symmetry_Int_Tables_number      19
_space_group_name_Hall           'P 2ac 2ab'
loop_
_symmetry_equiv_pos_site_id
_symmetry_equiv_pos_as_xyz
1 x,y,z
2 1/2-x,-y,1/2+z
3 1/2+x,1/2-y,-z
4 -x,1/2+y,1/2-z
_cell_length_a                   9.0510(2)
_cell_length_b                   14.4710(3)
_cell_length_c                   26.8060(8)
_cell_angle_alpha                90
_cell_angle_beta                 90
_cell_angle_gamma                90
_cell_volume                     3510.97
loop_
_atom_site_label
_atom_site_type_symbol
_atom_site_fract_x
_atom_site_fract_y
_atom_site_fract_z
Cr1 Cr -0.14048(9) 0.01660(5) 0.39410(3)
Mn1 Mn -0.64076(8) 0.02392(5) 0.28084(2)
K1 K -0.44337(14) -0.01126(8) 0.58649(4)
O1 O -0.3242(4) 0.0926(2) 0.38757(12)
O2 O -0.2371(4) -0.0573(2) 0.34053(12)
O3 O -0.5227(4) 0.1043(2) 0.33781(13)
O4 O -0.4412(4) -0.0573(2) 0.29399(12)
O5 O 0.0435(4) -0.0580(2) 0.38579(12)
O6 O -0.0431(4) 0.0959(2) 0.34281(12)
O7 O 0.2421(4) -0.0643(2) 0.33613(12)
O8 O 0.1585(4) 0.0994(2) 0.29518(12)
O9 O -0.0598(4) 0.0859(2) 0.44903(12)
O10 O -0.2206(4) -0.0614(2) 0.44609(12)
O11 O -0.0357(6) 0.0791(3) 0.53168(14)
O12 O -0.2234(5) -0.0762(3) 0.52903(14)
C1 C -0.3601(6) -0.0248(3) 0.32634(16)
C2 C -0.4077(5) 0.0652(3) 0.35262(17)
C3 C 0.1268(5) -0.0280(3) 0.35182(17)
C4 C 0.0784(6) 0.0645(3) 0.32745(17)
C5 C -0.0841(6) 0.0493(4) 0.49259(19)
C6 C -0.1845(6) -0.0362(3) 0.49103(19)
N1 N -0.6833(5) -0.0707(3) 0.21704(15)
C7 C -0.7483(6) -0.1533(3) 0.2214(2)
H1 H -0.7847 -0.1706 0.2525
C8 C -0.7639(7) -0.2139(4) 0.1822(2)
H2 H -0.8057 -0.2720 0.1867
C9 C -0.7156(8) -0.1852(4) 0.1362(2)
H3 H -0.7298 -0.2226 0.1084
C10 C -0.6452(8) -0.1001(3) 0.1311(2)
H4 H -0.6076 -0.0816 0.1004
C11 C -0.6322(6) -0.0431(3) 0.17290(18)
C12 C -0.5634(6) 0.0493(3) 0.17032(18)
C13 C -0.4967(7) 0.0828(4) 0.1277(2)
H5 H -0.4895 0.0460 0.0994
C14 C -0.4405(7) 0.1719(4) 0.12769(19)
H6 H -0.3944 0.1950 0.0993
C15 C -0.4528(7) 0.2264(4) 0.1697(2)
H7 H -0.4195 0.2872 0.1699
C16 C -0.5170(6) 0.1869(3) 0.21146(18)
H8 H -0.5243 0.2223 0.2403
N2 N -0.5692(5) 0.1000(3) 0.21248(15)
O13 O -0.4030(5) 0.1804(3) 0.57612(19)
C17 C -0.2840(9) 0.2148(5) 0.6036(3)
H9 H -0.2782 0.2814 0.5998
H10 H -0.1924 0.1882 0.5915
C18 C -0.3047(9) 0.1914(5) 0.6557(3)
H11 H -0.2240 0.2169 0.6751
H12 H -0.3959 0.2189 0.6676
O14 O -0.3105(5) 0.0936(3) 0.66313(16)
C19 C -0.3440(9) 0.0698(5) 0.7124(2)
H13 H -0.4404 0.0939 0.7214
H14 H -0.2713 0.0963 0.7348
C20 C -0.3434(8) -0.0320(5) 0.7170(2)
H15 H -0.2475 -0.0556 0.7071
H16 H -0.3595 -0.0490 0.7516
O15 O -0.4532(5) -0.0726(3) 0.68732(16)
C21 C -0.4601(9) -0.1693(5) 0.6924(3)
H17 H -0.4805 -0.1852 0.7269
H18 H -0.3658 -0.1963 0.6833
C22 C -0.5776(9) -0.2068(4) 0.6599(3)
H19 H -0.5819 -0.2735 0.6635
H20 H -0.6724 -0.1816 0.6699
O16 O -0.5488(6) -0.1838(3) 0.60959(19)
C23 C -0.6509(12) -0.2211(5) 0.5772(4)
H21 H -0.7484 -0.1989 0.5862
H22 H -0.6508 -0.2878 0.5810
C24 C -0.6229(13) -0.1985(5) 0.5247(4)
H23 H -0.5242 -0.2179 0.5153
H24 H -0.6933 -0.2303 0.5035
O17 O -0.6379(6) -0.0997(3) 0.51893(17)
C25 C -0.6342(9) 0.0335(7) 0.4681(2)
H25 H -0.6260 0.0544 0.4338
H26 H -0.7305 0.0514 0.4807
C26 C -0.6176(9) -0.0688(7) 0.4704(3)
H27 H -0.6897 -0.0977 0.4486
H28 H -0.5198 -0.0861 0.4589
O18 O -0.5201(5) 0.0752(3) 0.49791(16)
C27 C -0.3953(8) 0.2088(4) 0.5245(3)
H29 H -0.3048 0.1859 0.5095
H30 H -0.3951 0.2757 0.5224
C28 C -0.5239(9) 0.1713(5) 0.4977(3)
H31 H -0.6141 0.1925 0.5135
H32 H -0.5234 0.1935 0.4635
Mn1_2 Mn 0.35924(8) 0.02392(5) 0.28084(2)
O7_2 O -0.7579(4) -0.0643(2) 0.33613(12)
O8_2 O -0.8415(4) 0.0994(2) 0.29518(12)
loop_
_geom_bond_atom_site_label_1
_geom_bond_atom_site_label_2
_geom_bond_site_symmetry_1
_geom_bond_site_symmetry_2
Cr1 O1 1_555 1_555
Mn1 O3 1_555 1_555
K1 O12 1_555 1_555
O1 C2 1_555 1_555
O2 Cr1 1_555 1_555
O3 C2 1_555 1_555
O4 Mn1 1_555 1_555
O5 Cr1 1_555 1_555
O6 Cr1 1_555 1_555
O7 C3 1_555 1_555
O8 C4 1_555 1_555
O9 Cr1 1_555 1_555
O10 Cr1 1_555 1_555
O11 C5 1_555 1_555
O12 C6 1_555 1_555
C1 O2 1_555 1_555
C2 C1 1_555 1_555
C3 O5 1_555 1_555
C4 O6 1_555 1_555
C5 O9 1_555 1_555
C6 O10 1_555 1_555
N1 Mn1 1_555 1_555
C7 N1 1_555 1_555
H1 C7 1_555 1_555
C8 C7 1_555 1_555
H2 C8 1_555 1_555
C9 C8 1_555 1_555
H3 C9 1_555 1_555
C10 C9 1_555 1_555
H4 C10 1_555 1_555
C11 N1 1_555 1_555
C12 C11 1_555 1_555
C13 C12 1_555 1_555
H5 C13 1_555 1_555
C14 C13 1_555 1_555
H6 C14 1_555 1_555
C15 C14 1_555 1_555
H7 C15 1_555 1_555
C16 C15 1_555 1_555
H8 C16 1_555 1_555
N2 Mn1 1_555 1_555
O13 K1 1_555 1_555
C17 O13 1_555 1_555
H9 C17 1_555 1_555
H10 C17 1_555 1_555
C18 C17 1_555 1_555
H11 C18 1_555 1_555
H12 C18 1_555 1_555
O14 K1 1_555 1_555
C19 O14 1_555 1_555
H13 C19 1_555 1_555
H14 C19 1_555 1_555
C20 C19 1_555 1_555
H15 C20 1_555 1_555
H16 C20 1_555 1_555
O15 K1 1_555 1_555
C21 O15 1_555 1_555
H17 C21 1_555 1_555
H18 C21 1_555 1_555
C22 C21 1_555 1_555
H19 C22 1_555 1_555
H20 C22 1_555 1_555
O16 K1 1_555 1_555
C23 O16 1_555 1_555
H21 C23 1_555 1_555
H22 C23 1_555 1_555
C24 C23 1_555 1_555
H23 C24 1_555 1_555
H24 C24 1_555 1_555
O17 K1 1_555 1_555
C25 H25 1_555 1_555
H26 C25 1_555 1_555
C26 O17 1_555 1_555
H27 C26 1_555 1_555
H28 C26 1_555 1_555
O18 K1 1_555 1_555
C27 O13 1_555 1_555
H29 C27 1_555 1_555
H30 C27 1_555 1_555
C28 O18 1_555 1_555
H31 C28 1_555 1_555
H32 C28 1_555 1_555
Mn1_2 O7 1_555 1_555
O7_2 Mn1 1_555 1_555
O8_2 Mn1 1_555 1_555
O4 C1 1_555 1_555
O8 Mn1_2 1_555 1_555
C3 C4 1_555 1_555
C5 C6 1_555 1_555
C10 C11 1_555 1_555
C12 N2 1_555 1_555
C16 N2 1_555 1_555
C18 O14 1_555 1_555
C20 O15 1_555 1_555
C22 O16 1_555 1_555
C24 O17 1_555 1_555
C25 C26 1_555 1_555
C25 O18 1_555 1_555
C27 C28 1_555 1_555

#END
