
#######################################################################
#
#                 Cambridge Crystallographic Data Centre
#                                CCDC 
#
#######################################################################
#
# If this CIF has been generated from an entry in the Cambridge 
# Structural Database, then it will include bibliographic, chemical, 
# crystal, experimental, refinement or atomic coordinate data resulting 
# from the CCDC's data processing and validation procedures.
#
#######################################################################

data_EDEDUN
_symmetry_cell_setting           monoclinic
_symmetry_space_group_name_H-M   'P 21/n'
_symmetry_Int_Tables_number      14
_space_group_name_Hall           '-P 2yn'
loop_
_symmetry_equiv_pos_site_id
_symmetry_equiv_pos_as_xyz
1 x,y,z
2 1/2-x,1/2+y,1/2-z
3 -x,-y,-z
4 1/2+x,1/2-y,1/2+z
_cell_length_a                   15.541(2)
_cell_length_b                   7.5256(10)
_cell_length_c                   21.261(3)
_cell_angle_alpha                90
_cell_angle_beta                 101.810(6)
_cell_angle_gamma                90
_cell_volume                     2433.95
loop_
_atom_site_label
_atom_site_type_symbol
_atom_site_fract_x
_atom_site_fract_y
_atom_site_fract_z
Cu1 Cu 1.0000 1.0000 0.0000
C1 C 0.88497(13) 1.0102(2) 0.10255(9)
C2 C 0.76873(14) 1.0756(3) 0.14843(10)
N1 N 0.93050(12) 1.0144(2) 0.06698(9)
N2 N 0.70502(16) 1.1381(4) 0.15473(14)
N3 N 0.84097(13) 0.9903(3) 0.14769(10)
C3 C 1.10403(13) 1.3449(3) 0.04938(10)
C4 C 1.12655(13) 1.6416(3) 0.06727(10)
N4 N 1.06800(11) 1.2151(2) 0.03485(8)
N5 N 1.10961(13) 1.7872(2) 0.06907(10)
N6 N 1.15463(15) 1.4784(3) 0.06749(15)
Cu1_2 Cu 1.0000 2.0000 0.0000
Cu1_3 Cu 1.0000 0.0000 0.0000
C1B C 1.11503(13) 0.9898(2) -0.10255(9)
C2B C 1.23127(14) 0.9244(3) -0.14843(10)
N1B N 1.06950(12) 0.9856(2) -0.06698(9)
N2B N 1.29498(16) 0.8619(4) -0.15473(14)
N3B N 1.15903(13) 1.0097(3) -0.14769(10)
C3B C 0.89597(13) 0.6551(3) -0.04938(10)
C4B C 0.87345(13) 0.3584(3) -0.06727(10)
N4B N 0.93200(11) 0.7849(2) -0.03485(8)
N5B N 0.89039(13) 0.2128(2) -0.06907(10)
N5_2 N 1.10961(13) 0.7872(2) 0.06907(10)
N5B_2 N 0.89039(13) 1.2128(2) -0.06907(10)
N6B N 0.84537(15) 0.5216(3) -0.06749(15)
P1 P 0.48254(3) 0.31326(6) 0.18176(2)
C5 C 0.40975(12) 0.4584(2) 0.21304(8)
C6 C 0.40687(13) 0.4578(3) 0.27772(9)
H1 H 0.4400 0.3760 0.3053
C7 C 0.35424(14) 0.5802(3) 0.30105(10)
H2 H 0.3520 0.5802 0.3444
C8 C 0.30528(15) 0.7017(3) 0.26020(11)
H3 H 0.2705 0.7838 0.2762
C9 C 0.30765(14) 0.7020(3) 0.19568(10)
H4 H 0.2739 0.7832 0.1681
C10 C 0.36001(13) 0.5821(3) 0.17227(9)
H5 H 0.3622 0.5836 0.1289
C11 C 0.55461(12) 0.4521(3) 0.14696(9)
C12 C 0.56029(15) 0.4410(3) 0.08287(10)
H6 H 0.5248 0.3618 0.0556
C13 C 0.61954(17) 0.5492(4) 0.05968(12)
H7 H 0.6241 0.5410 0.0168
C14 C 0.67030(17) 0.6655(4) 0.09881(13)
H8 H 0.7090 0.7382 0.0826
C15 C 0.6654(2) 0.6778(4) 0.16232(13)
H9 H 0.7013 0.7571 0.1893
C16 C 0.60656(17) 0.5712(3) 0.18603(11)
H10 H 0.6024 0.5808 0.2289
C17 C 0.42391(12) 0.1664(2) 0.12155(8)
C18 C 0.33372(13) 0.1751(3) 0.09916(9)
H11 H 0.3009 0.2622 0.1146
C19 C 0.29253(15) 0.0543(3) 0.05387(10)
H12 H 0.2321 0.0607 0.0386
C20 C 0.34042(16) -0.0746(3) 0.03147(10)
H13 H 0.3124 -0.1559 0.0011
C21 C 0.42958(16) -0.0847(3) 0.05355(11)
H14 H 0.4616 -0.1729 0.0380
C22 C 0.47214(14) 0.0336(3) 0.09834(10)
H15 H 0.5326 0.0256 0.1132
C23 C 0.54652(13) 0.1803(2) 0.24413(9)
H16 H 0.5956 0.1302 0.2283
H17 H 0.5706 0.2570 0.2801
C24 C 0.49661(17) 0.0290(3) 0.26844(11)
H18 H 0.4708 -0.0465 0.2326
H19 H 0.4491 0.0783 0.2863
C25 C 0.55589(19) -0.0830(3) 0.31955(12)
H20 H 0.5232 -0.1866 0.3283
H21 H 0.6053 -0.1247 0.3022
C26 C 0.5901(2) 0.0088(4) 0.38055(13)
H22 H 0.6272 -0.0705 0.4094
H23 H 0.5419 0.0460 0.3994
H24 H 0.6234 0.1109 0.3727
loop_
_geom_bond_atom_site_label_1
_geom_bond_atom_site_label_2
_geom_bond_site_symmetry_1
_geom_bond_site_symmetry_2
Cu1 N1 1_555 1_555
C1 N1 1_555 1_555
C2 N2 1_555 1_555
N3 C1 1_555 1_555
C3 N4 1_555 1_555
C4 N5 1_555 1_555
N4 Cu1 1_555 1_555
N5 Cu1_2 1_555 1_555
N6 C3 1_555 1_555
P1 C5 1_555 1_555
C5 C6 1_555 1_555
C6 H1 1_555 1_555
C7 C6 1_555 1_555
H2 C7 1_555 1_555
C8 C7 1_555 1_555
H3 C8 1_555 1_555
C9 C8 1_555 1_555
H4 C9 1_555 1_555
C10 C5 1_555 1_555
H5 C10 1_555 1_555
C11 P1 1_555 1_555
C12 C11 1_555 1_555
H6 C12 1_555 1_555
C13 C12 1_555 1_555
H7 C13 1_555 1_555
C14 C13 1_555 1_555
H8 C14 1_555 1_555
C15 C14 1_555 1_555
H9 C15 1_555 1_555
C16 C11 1_555 1_555
H10 C16 1_555 1_555
C17 P1 1_555 1_555
C18 C17 1_555 1_555
H11 C18 1_555 1_555
C19 C18 1_555 1_555
H12 C19 1_555 1_555
C20 C19 1_555 1_555
H13 C20 1_555 1_555
C21 C20 1_555 1_555
H14 C21 1_555 1_555
C22 C17 1_555 1_555
H15 C22 1_555 1_555
C23 P1 1_555 1_555
H16 C23 1_555 1_555
H17 C23 1_555 1_555
C24 C23 1_555 1_555
H18 C24 1_555 1_555
H19 C24 1_555 1_555
C25 C24 1_555 1_555
H20 C25 1_555 1_555
H21 C25 1_555 1_555
C26 C25 1_555 1_555
H22 C26 1_555 1_555
H23 C26 1_555 1_555
H24 C26 1_555 1_555
Cu1_3 N5B 1_555 1_555
C1B N1B 1_555 1_555
C2B N2B 1_555 1_555
N1B Cu1 1_555 1_555
N3B C1B 1_555 1_555
C3B N4B 1_555 1_555
C4B N5B 1_555 1_555
N4B Cu1 1_555 1_555
N5_2 Cu1 1_555 1_555
N5B_2 Cu1 1_555 1_555
N6B C3B 1_555 1_555
C2 N3 1_555 1_555
C4 N6 1_555 1_555
C9 C10 1_555 1_555
C15 C16 1_555 1_555
C21 C22 1_555 1_555
C2B N3B 1_555 1_555
C4B N6B 1_555 1_555

#END
