
#######################################################################
#
#                 Cambridge Crystallographic Data Centre
#                                CCDC 
#
#######################################################################
#
# If this CIF has been generated from an entry in the Cambridge 
# Structural Database, then it will include bibliographic, chemical, 
# crystal, experimental, refinement or atomic coordinate data resulting 
# from the CCDC's data processing and validation procedures.
#
#######################################################################

data_EDEDUN01
_symmetry_cell_setting           monoclinic
_symmetry_space_group_name_H-M   'P 21/n'
_symmetry_Int_Tables_number      14
_space_group_name_Hall           '-P 2yn'
loop_
_symmetry_equiv_pos_site_id
_symmetry_equiv_pos_as_xyz
1 x,y,z
2 1/2-x,1/2+y,1/2-z
3 -x,-y,-z
4 1/2+x,1/2-y,1/2+z
_cell_length_a                   15.466(10)
_cell_length_b                   7.460(5)
_cell_length_c                   21.153(14)
_cell_angle_alpha                90
_cell_angle_beta                 102.079(10)
_cell_angle_gamma                90
_cell_volume                     2386.52
loop_
_atom_site_label
_atom_site_type_symbol
_atom_site_fract_x
_atom_site_fract_y
_atom_site_fract_z
Cu1 Cu 1.0000 1.0000 0.0000
C1 C 0.88357(11) 1.0140(2) 0.10282(8)
C2 C 0.76722(12) 1.0838(2) 0.14925(9)
N1 N 0.92832(10) 1.01780(19) 0.06616(7)
N2 N 0.70261(13) 1.1502(3) 0.15489(10)
N3 N 0.84009(10) 0.9943(2) 0.14875(8)
C3 C 1.12652(11) 1.6504(2) 0.06924(8)
C4 C 1.10406(11) 1.3516(2) 0.04976(9)
N4 N 1.06657(9) 1.22069(19) 0.03429(7)
N5 N 1.10810(10) 1.7991(2) 0.07144(8)
N6 N 1.15629(12) 1.4860(2) 0.06893(12)
Cu1_2 Cu 1.0000 2.0000 0.0000
Cu1_3 Cu 1.0000 0.0000 0.0000
C1B C 1.11643(11) 0.9860(2) -0.10282(8)
C2B C 1.23278(12) 0.9162(2) -0.14925(9)
N1B N 1.07168(10) 0.98220(19) -0.06616(7)
N2B N 1.29739(13) 0.8498(3) -0.15489(10)
N3B N 1.15991(10) 1.0057(2) -0.14875(8)
C3B C 0.87348(11) 0.3496(2) -0.06924(8)
C4B C 0.89594(11) 0.6484(2) -0.04976(9)
N4B N 0.93343(9) 0.77931(19) -0.03429(7)
N5B N 0.89190(10) 0.2009(2) -0.07144(8)
N5_2 N 1.10810(10) 0.7991(2) 0.07144(8)
N5B_2 N 0.89190(10) 1.2009(2) -0.07144(8)
N6B N 0.84371(12) 0.5140(2) -0.06893(12)
P1 P 0.48180(3) 0.31880(5) 0.181686(19)
C5 C 0.40907(10) 0.4654(2) 0.21307(7)
C6 C 0.40644(11) 0.4650(2) 0.27862(8)
H1 H 0.4403 0.3804 0.3070
C7 C 0.35394(11) 0.5892(2) 0.30210(8)
H2 H 0.3521 0.5896 0.3467
C8 C 0.30419(11) 0.7125(2) 0.26062(9)
H3 H 0.2686 0.7972 0.2771
C9 C 0.30601(11) 0.7131(2) 0.19523(8)
H4 H 0.2714 0.7971 0.1669
C10 C 0.35853(11) 0.5906(2) 0.17158(8)
H5 H 0.3603 0.5913 0.1270
C11 C 0.55405(11) 0.4597(2) 0.14691(8)
C12 C 0.56034(12) 0.4471(3) 0.08254(9)
H6 H 0.5242 0.3647 0.0545
C13 C 0.61987(13) 0.5558(3) 0.05926(9)
H7 H 0.6246 0.5471 0.0153
C14 C 0.67156(13) 0.6750(3) 0.09944(10)
H8 H 0.7115 0.7498 0.0831
C15 C 0.66620(15) 0.6875(3) 0.16359(10)
H9 H 0.7032 0.7688 0.1915
C16 C 0.60652(13) 0.5809(3) 0.18740(9)
H10 H 0.6017 0.5911 0.2313
C17 C 0.42292(10) 0.1705(2) 0.12078(7)
C18 C 0.33165(11) 0.1794(2) 0.09797(8)
H11 H 0.2980 0.2695 0.1135
C19 C 0.29006(12) 0.0558(3) 0.05244(8)
H12 H 0.2279 0.0614 0.0368
C20 C 0.33906(13) -0.0753(3) 0.02980(8)
H13 H 0.3104 -0.1594 -0.0014
C21 C 0.42984(13) -0.0847(2) 0.05235(9)
H14 H 0.4630 -0.1752 0.0366
C22 C 0.47228(12) 0.0369(2) 0.09767(9)
H15 H 0.5345 0.0301 0.1131
C23 C 0.54641(11) 0.1840(2) 0.24466(8)
H16 H 0.5967 0.1322 0.2286
H17 H 0.5712 0.2626 0.2817
C24 C 0.49545(13) 0.0309(2) 0.26872(9)
H18 H 0.4692 -0.0471 0.2318
H19 H 0.4466 0.0815 0.2868
C25 C 0.55568(14) -0.0818(2) 0.32066(9)
H20 H 0.5224 -0.1884 0.3301
H21 H 0.6066 -0.1247 0.3032
C26 C 0.59020(15) 0.0169(3) 0.38293(10)
H22 H 0.6287 -0.0627 0.4133
H23 H 0.5404 0.0556 0.4017
H24 H 0.6239 0.1220 0.3743
loop_
_geom_bond_atom_site_label_1
_geom_bond_atom_site_label_2
_geom_bond_site_symmetry_1
_geom_bond_site_symmetry_2
Cu1 N1 1_555 1_555
C1 N1 1_555 1_555
C2 N2 1_555 1_555
N3 C1 1_555 1_555
C3 N5 1_555 1_555
C4 N4 1_555 1_555
N4 Cu1 1_555 1_555
N5 Cu1_2 1_555 1_555
N6 C3 1_555 1_555
P1 C5 1_555 1_555
C5 C6 1_555 1_555
C6 H1 1_555 1_555
C7 C6 1_555 1_555
H2 C7 1_555 1_555
C8 C7 1_555 1_555
H3 C8 1_555 1_555
C9 C8 1_555 1_555
H4 C9 1_555 1_555
C10 C5 1_555 1_555
H5 C10 1_555 1_555
C11 P1 1_555 1_555
C12 C11 1_555 1_555
H6 C12 1_555 1_555
C13 C12 1_555 1_555
H7 C13 1_555 1_555
C14 C13 1_555 1_555
H8 C14 1_555 1_555
C15 C14 1_555 1_555
H9 C15 1_555 1_555
C16 C11 1_555 1_555
H10 C16 1_555 1_555
C17 P1 1_555 1_555
C18 C17 1_555 1_555
H11 C18 1_555 1_555
C19 C18 1_555 1_555
H12 C19 1_555 1_555
C20 C19 1_555 1_555
H13 C20 1_555 1_555
C21 C20 1_555 1_555
H14 C21 1_555 1_555
C22 C17 1_555 1_555
H15 C22 1_555 1_555
C23 P1 1_555 1_555
H16 C23 1_555 1_555
H17 C23 1_555 1_555
C24 C23 1_555 1_555
H18 C24 1_555 1_555
H19 C24 1_555 1_555
C25 C24 1_555 1_555
H20 C25 1_555 1_555
H21 C25 1_555 1_555
C26 C25 1_555 1_555
H22 C26 1_555 1_555
H23 C26 1_555 1_555
H24 C26 1_555 1_555
Cu1_3 N5B 1_555 1_555
C1B N1B 1_555 1_555
C2B N2B 1_555 1_555
N1B Cu1 1_555 1_555
N3B C1B 1_555 1_555
C3B N5B 1_555 1_555
C4B N4B 1_555 1_555
N4B Cu1 1_555 1_555
N5_2 Cu1 1_555 1_555
N5B_2 Cu1 1_555 1_555
N6B C3B 1_555 1_555
C2 N3 1_555 1_555
C4 N6 1_555 1_555
C9 C10 1_555 1_555
C15 C16 1_555 1_555
C21 C22 1_555 1_555
C2B N3B 1_555 1_555
C4B N6B 1_555 1_555

#END
