
#######################################################################
#
#                 Cambridge Crystallographic Data Centre
#                                CCDC 
#
#######################################################################
#
# If this CIF has been generated from an entry in the Cambridge 
# Structural Database, then it will include bibliographic, chemical, 
# crystal, experimental, refinement or atomic coordinate data resulting 
# from the CCDC's data processing and validation procedures.
#
#######################################################################

data_EDEFAV
_symmetry_cell_setting           monoclinic
_symmetry_space_group_name_H-M   'P 21'
_symmetry_Int_Tables_number      4
_space_group_name_Hall           'P 2yb'
loop_
_symmetry_equiv_pos_site_id
_symmetry_equiv_pos_as_xyz
1 x,y,z
2 -x,1/2+y,-z
_cell_length_a                   7.4094(11)
_cell_length_b                   23.526(4)
_cell_length_c                   8.9951(13)
_cell_angle_alpha                90
_cell_angle_beta                 111.938(6)
_cell_angle_gamma                90
_cell_volume                     1454.43
loop_
_atom_site_label
_atom_site_type_symbol
_atom_site_fract_x
_atom_site_fract_y
_atom_site_fract_z
Cu1 Cu 0.76161(4) 0.254149(13) 0.78926(3)
O1 O 0.9686(4) 0.31003(11) 0.8037(3)
H1 H 1.057(4) 0.3131(17) 0.885(3)
H2 H 1.001(6) 0.3067(17) 0.727(4)
N1 N 0.8793(4) 0.24148(12) 1.0222(3)
N2 N 1.0683(5) 0.29946(14) 1.5286(4)
N3 N 1.0272(7) 0.23272(16) 1.3105(4)
N4 N 0.6291(4) 0.28663(11) 0.5751(3)
N5 N 0.2377(6) 0.33828(19) 0.0966(5)
N6 N 0.5257(7) 0.3438(2) 0.3348(5)
N7 N 0.5209(4) 0.21316(11) 0.7729(3)
N8 N -0.0819(4) 0.18296(11) 0.7177(4)
N9 N 0.2286(4) 0.15670(12) 0.7025(4)
C1 C 0.9455(5) 0.24061(13) 1.1587(4)
C2 C 1.0448(5) 0.27110(15) 1.4212(4)
C3 C 0.5720(5) 0.31184(15) 0.4599(4)
C4 C 0.3683(6) 0.33798(17) 0.2115(5)
C5 C 0.3787(4) 0.18970(12) 0.7422(4)
C6 C 0.0673(4) 0.17318(11) 0.7145(4)
Cu1_2 Cu -0.23839(4) 0.254149(13) 0.78926(3)
N8_2 N 0.9181(4) 0.18296(11) 0.7177(4)
P1 P 0.14475(10) 0.01320(3) 0.20214(8)
C7 C 0.2821(4) -0.04603(11) 0.1759(4)
C8 C 0.4650(5) -0.05572(14) 0.2954(4)
H3 H 0.5123 -0.0319 0.3841
C9 C 0.5747(5) -0.10145(16) 0.2798(5)
H4 H 0.6955 -0.1088 0.3595
C10 C 0.5064(6) -0.13585(14) 0.1478(5)
H5 H 0.5812 -0.1663 0.1380
C11 C 0.3274(6) -0.12559(13) 0.0294(5)
H6 H 0.2833 -0.1489 -0.0605
C12 C 0.2122(5) -0.08107(12) 0.0425(4)
H7 H 0.0903 -0.0748 -0.0367
C13 C 0.0798(4) 0.00220(12) 0.3731(3)
C14 C -0.0356(5) 0.04309(13) 0.4068(4)
H8 H -0.0708 0.0758 0.3445
C15 C -0.0975(5) 0.03538(15) 0.5316(4)
H9 H -0.1723 0.0631 0.5553
C16 C -0.0478(6) -0.01378(16) 0.6216(4)
H10 H -0.0902 -0.0191 0.7057
C17 C 0.0628(6) -0.05475(15) 0.5887(4)
H11 H 0.0937 -0.0878 0.6498
C18 C 0.1295(5) -0.04740(13) 0.4643(4)
H12 H 0.2058 -0.0751 0.4424
C19 C 0.2970(4) 0.07495(11) 0.2276(3)
C20 C 0.3839(5) 0.08377(14) 0.1189(4)
H13 H 0.3609 0.0586 0.0340
C21 C 0.5050(5) 0.12969(15) 0.1350(4)
H14 H 0.5615 0.1359 0.0599
C22 C 0.5421(6) 0.16620(16) 0.2619(5)
H15 H 0.6262 0.1967 0.2742
C23 C 0.4550(6) 0.15764(16) 0.3708(5)
H16 H 0.4796 0.1827 0.4561
C24 C 0.3322(5) 0.11245(13) 0.3548(4)
H17 H 0.2731 0.1069 0.4285
C25 C -0.0817(4) 0.02130(11) 0.0343(3)
C26 C -0.2193(4) -0.02189(12) 0.0047(4)
H18 H -0.1909 -0.0543 0.0683
C27 C -0.3977(5) -0.01651(14) -0.1190(4)
H19 H -0.4891 -0.0455 -0.1393
C28 C -0.4411(4) 0.03236(14) -0.2137(4)
H20 H -0.5618 0.0361 -0.2965
C29 C -0.3057(5) 0.07498(13) -0.1846(4)
H21 H -0.3351 0.1075 -0.2481
C30 C -0.1255(4) 0.06992(11) -0.0612(4)
H22 H -0.0341 0.0989 -0.0421
loop_
_geom_bond_atom_site_label_1
_geom_bond_atom_site_label_2
_geom_bond_site_symmetry_1
_geom_bond_site_symmetry_2
Cu1 O1 1_555 1_555
O1 H1 1_555 1_555
H2 O1 1_555 1_555
N1 Cu1 1_555 1_555
N2 C2 1_555 1_555
N3 C1 1_555 1_555
N4 Cu1 1_555 1_555
N5 C4 1_555 1_555
N6 C3 1_555 1_555
N7 Cu1 1_555 1_555
N8 C6 1_555 1_555
N9 C5 1_555 1_555
C1 N1 1_555 1_555
C2 N3 1_555 1_555
C3 N4 1_555 1_555
C4 N6 1_555 1_555
C5 N7 1_555 1_555
C6 N9 1_555 1_555
P1 C7 1_555 1_555
C7 C8 1_555 1_555
C8 H3 1_555 1_555
C9 C8 1_555 1_555
H4 C9 1_555 1_555
C10 C9 1_555 1_555
H5 C10 1_555 1_555
C11 C10 1_555 1_555
H6 C11 1_555 1_555
C12 C7 1_555 1_555
H7 C12 1_555 1_555
C13 P1 1_555 1_555
C14 C13 1_555 1_555
H8 C14 1_555 1_555
C15 C14 1_555 1_555
H9 C15 1_555 1_555
C16 C15 1_555 1_555
H10 C16 1_555 1_555
C17 C16 1_555 1_555
H11 C17 1_555 1_555
C18 C13 1_555 1_555
H12 C18 1_555 1_555
C19 P1 1_555 1_555
C20 C19 1_555 1_555
H13 C20 1_555 1_555
C21 C20 1_555 1_555
H14 C21 1_555 1_555
C22 C21 1_555 1_555
H15 C22 1_555 1_555
C23 C22 1_555 1_555
H16 C23 1_555 1_555
C24 C19 1_555 1_555
H17 C24 1_555 1_555
C25 P1 1_555 1_555
C26 C25 1_555 1_555
H18 C26 1_555 1_555
C27 C26 1_555 1_555
H19 C27 1_555 1_555
C28 C27 1_555 1_555
H20 C28 1_555 1_555
C29 C28 1_555 1_555
H21 C29 1_555 1_555
C30 C25 1_555 1_555
H22 C30 1_555 1_555
Cu1_2 N8 1_555 1_555
N8_2 Cu1 1_555 1_555
C11 C12 1_555 1_555
C17 C18 1_555 1_555
C23 C24 1_555 1_555
C29 C30 1_555 1_555

#END
