
#######################################################################
#
#                 Cambridge Crystallographic Data Centre
#                                CCDC 
#
#######################################################################
#
# If this CIF has been generated from an entry in the Cambridge 
# Structural Database, then it will include bibliographic, chemical, 
# crystal, experimental, refinement or atomic coordinate data resulting 
# from the CCDC's data processing and validation procedures.
#
#######################################################################

data_EDEPAG
_symmetry_cell_setting           triclinic
_symmetry_space_group_name_H-M   'P -1'
_symmetry_Int_Tables_number      2
_space_group_name_Hall           '-P 1'
loop_
_symmetry_equiv_pos_site_id
_symmetry_equiv_pos_as_xyz
1 x,y,z
2 -x,-y,-z
_cell_length_a                   11.0552(7)
_cell_length_b                   11.0713(6)
_cell_length_c                   17.6488(10)
_cell_angle_alpha                93.084(5)
_cell_angle_beta                 104.429(5)
_cell_angle_gamma                119.032(6)
_cell_volume                     1789.77
loop_
_atom_site_label
_atom_site_type_symbol
_atom_site_fract_x
_atom_site_fract_y
_atom_site_fract_z
C1 C -0.1171(10) 0.0799(10) 0.8814(6)
C2 C -0.1512(10) 0.1925(10) 0.8640(6)
C3 C -0.2671(11) 0.1676(10) 0.7987(6)
H1 H -0.3320 0.0755 0.7664
C4 C -0.2873(11) 0.2793(10) 0.7809(6)
H2 H -0.3658 0.2634 0.7362
C5 C -0.1915(10) 0.4153(10) 0.8291(6)
C6 C -0.0760(10) 0.4391(10) 0.8935(6)
H3 H -0.0094 0.5316 0.9250
C7 C -0.0575(11) 0.3270(10) 0.9123(6)
H4 H 0.0192 0.3424 0.9581
C8 C -0.2046(11) 0.5371(10) 0.8032(6)
C9 C -0.3012(10) 0.6258(10) 0.4392(6)
C10 C -0.2269(10) 0.7391(10) 0.3932(6)
C11 C -0.3025(11) 0.7442(10) 0.3193(6)
H5 H -0.4026 0.6751 0.2946
C12 C -0.2302(10) 0.8512(10) 0.2819(6)
H6 H -0.2816 0.8546 0.2309
C13 C -0.0829(10) 0.9550(10) 0.3174(6)
C14 C -0.0068(10) 0.9509(10) 0.3922(6)
H7 H 0.0935 1.0202 0.4164
C15 C -0.0782(10) 0.8449(10) 0.4313(6)
H8 H -0.0279 0.8432 0.4831
C16 C -0.0075(11) 1.0746(10) 0.2781(6)
C17 C -0.5034(11) 0.7340(10) 0.4894(6)
C18 C -0.5009(11) 0.8721(10) 0.4956(6)
C19 C -0.5919(11) 0.8920(10) 0.4335(6)
H9 H -0.6541 0.8192 0.3872
C20 C -0.4078(11) 0.9838(10) 0.5610(6)
H10 H -0.3424 0.9739 0.6030
C21 C 0.2630(10) 0.2298(10) 1.0050(6)
C22 C 0.3850(10) 0.3714(10) 1.0021(6)
C23 C 0.4729(10) 0.4740(10) 1.0730(6)
H11 H 0.4543 0.4568 1.1223
C24 C 0.4126(10) 0.3991(10) 0.9311(6)
H12 H 0.3511 0.3290 0.8836
C25 C 0.2920(12) -0.1260(13) 0.9090(7)
H13 H 0.2934 -0.0808 0.8647
C26 C 0.3927(13) -0.2306(14) 1.0007(8)
H14 H 0.3408 -0.3329 0.9810
H15 H 0.4939 -0.1970 1.0319
H16 H 0.3450 -0.2090 1.0347
C27 C 0.5050(13) -0.1288(15) 0.8936(8)
H17 H 0.5097 -0.0589 0.8608
H18 H 0.5999 -0.0912 0.9345
H19 H 0.4803 -0.2156 0.8595
C28 C -0.0756(15) 0.4983(16) 0.6662(9)
H20 H -0.1526 0.4104 0.6329
C29 C 0.1474(16) 0.6099(16) 0.7759(9)
H21 H 0.1278 0.5918 0.8265
H22 H 0.2435 0.6239 0.7798
H23 H 0.1457 0.6948 0.7645
C30 C 0.0384(19) 0.3688(18) 0.7141(11)
H24 H 0.0449 0.3366 0.6633
H25 H 0.1222 0.3846 0.7581
H26 H -0.0519 0.2968 0.7221
N1 N 0.3902(10) -0.1609(11) 0.9333(6)
N2 N 0.0382(12) 0.4918(13) 0.7128(7)
O1 O -0.1443(7) -0.0118(7) 0.8252(4)
O2 O -0.0557(7) 0.0830(7) 0.9534(4)
O3 O -0.3056(7) 0.5120(7) 0.7418(4)
O4 O -0.1098(7) 0.6596(7) 0.8466(4)
O5 O -0.2283(7) 0.6356(7) 0.5097(4)
O6 O -0.4295(7) 0.5291(7) 0.4017(4)
O7 O 0.1210(8) 1.1727(8) 0.3176(4)
O8 O -0.0783(7) 1.0697(7) 0.2072(4)
O9 O -0.4051(8) 0.7318(7) 0.5447(4)
O10 O -0.6044(8) 0.6341(7) 0.4342(4)
O11 O 0.2091(7) 0.1269(7) 0.9460(4)
O12 O 0.2214(7) 0.2226(7) 1.0656(4)
O13 O 0.1959(8) -0.1493(8) 0.9414(4)
O14 O -0.0960(9) 0.5870(9) 0.6594(5)
O15 O -0.3758(8) 0.7289(7) 0.7176(4)
Eu1 Eu -0.32056(4) 0.60236(4) 0.62124(3)
Eu2 Eu -0.00114(4) -0.10577(4) 0.90507(3)
C1A C 0.1171(10) -0.0799(10) 1.1186(6)
C2A C 0.1512(10) -0.1925(10) 1.1360(6)
C3A C 0.2671(11) -0.1676(10) 1.2013(6)
H1A H 0.3320 -0.0755 1.2336
C4A C 0.2873(11) -0.2793(10) 1.2191(6)
H2A H 0.3658 -0.2634 1.2638
C5A C 0.1915(10) -0.4153(10) 1.1709(6)
C6A C 0.0760(10) -0.4391(10) 1.1065(6)
H3A H 0.0094 -0.5316 1.0750
C7A C 0.0575(11) -0.3270(10) 1.0877(6)
H4A H -0.0192 -0.3424 1.0419
C8A C 0.2046(11) -0.5371(10) 1.1968(6)
C9A C -0.6988(10) 0.3742(10) 0.5608(6)
C10A C -0.7731(10) 0.2609(10) 0.6068(6)
C11A C -0.6975(11) 0.2558(10) 0.6807(6)
H5A H -0.5974 0.3249 0.7054
C12A C -0.7698(10) 0.1488(10) 0.7181(6)
H6A H -0.7184 0.1454 0.7691
C13A C -0.9171(10) 0.0450(10) 0.6826(6)
C14A C -0.9932(10) 0.0491(10) 0.6078(6)
H7A H -1.0935 -0.0202 0.5836
C15A C -0.9218(10) 0.1551(10) 0.5687(6)
H8A H -0.9721 0.1568 0.5169
C16A C -0.9925(11) -0.0746(10) 0.7219(6)
C17A C -0.4966(11) 1.2660(10) 0.5106(6)
C18A C -0.4991(11) 1.1279(10) 0.5044(6)
C19A C -0.4081(11) 1.1080(10) 0.5665(6)
H9A H -0.3459 1.1808 0.6128
C20A C -0.5922(11) 1.0162(10) 0.4390(6)
H10A H -0.6576 1.0261 0.3970
C21A C 0.7370(10) 0.7702(10) 0.9950(6)
C22A C 0.6150(10) 0.6286(10) 0.9979(6)
C23A C 0.5271(10) 0.5260(10) 0.9270(6)
H11A H 0.5457 0.5432 0.8777
C24A C 0.5874(10) 0.6009(10) 1.0689(6)
H12A H 0.6489 0.6710 1.1164
C25A C -0.2920(12) 0.1260(13) 1.0910(7)
H13A H -0.2934 0.0808 1.1353
C26A C -0.3927(13) 0.2306(14) 0.9993(8)
H14A H -0.3408 0.3329 1.0190
H15A H -0.4939 0.1970 0.9681
H16A H -0.3450 0.2090 0.9653
C27A C -0.5050(13) 0.1288(15) 1.1064(8)
H17A H -0.5097 0.0589 1.1392
H18A H -0.5999 0.0912 1.0655
H19A H -0.4803 0.2156 1.1405
C28A C -0.9244(15) 0.5017(16) 0.3338(9)
H20A H -0.8474 0.5896 0.3671
C29A C -1.1474(16) 0.3901(16) 0.2241(9)
H21A H -1.1278 0.4082 0.1735
H22A H -1.2435 0.3761 0.2202
H23A H -1.1457 0.3052 0.2355
C30A C -1.0384(19) 0.6312(18) 0.2859(11)
H24A H -1.0449 0.6634 0.3367
H25A H -1.1222 0.6154 0.2419
H26A H -0.9481 0.7032 0.2779
N1A N -0.3902(10) 0.1609(11) 1.0667(6)
N2A N -1.0382(12) 0.5082(13) 0.2872(7)
O1A O 0.1443(7) 0.0118(7) 1.1748(4)
O2A O 0.0557(7) -0.0830(7) 1.0466(4)
O3A O 0.3056(7) -0.5120(7) 1.2582(4)
O3A_2 O -0.6944(7) 0.4880(7) 0.2582(4)
O4A O 0.1098(7) -0.6596(7) 1.1534(4)
O4_2 O -0.1098(7) -0.3404(7) 0.8466(4)
O4A_2 O 0.1098(7) 0.3404(7) 1.1534(4)
O5A O -0.7717(7) 0.3644(7) 0.4903(4)
O6A O -0.5705(7) 0.4709(7) 0.5983(4)
O7A O -1.1210(8) -0.1727(8) 0.6824(4)
O7A_2 O -0.1210(8) 0.8273(8) 0.6824(4)
O7_2 O -0.8790(8) 0.1727(8) 0.3176(4)
O8A O -0.9217(7) -0.0697(7) 0.7928(4)
O8A_2 O 0.0783(7) -0.0697(7) 0.7928(4)
O8_2 O -0.0783(7) 0.0697(7) 1.2072(4)
O9A O -0.5949(8) 1.2682(7) 0.4553(4)
O9A_2 O -0.5949(8) 0.2682(7) 0.4553(4)
O10A O -0.3956(8) 1.3659(7) 0.5658(4)
O10A_2 O -0.3956(8) 0.3659(7) 0.5658(4)
O11A O 0.7909(7) 0.8731(7) 1.0540(4)
O11A_2 O -0.2091(7) -0.1269(7) 1.0540(4)
O12A O 0.7786(7) 0.7774(7) 0.9344(4)
O12A_2 O -0.2214(7) -0.2226(7) 0.9344(4)
O13A O -0.1959(8) 0.1493(8) 1.0586(4)
O14A O -0.9040(9) 0.4130(9) 0.3406(5)
O15A O -0.6242(8) 0.2711(7) 0.2824(4)
Eu1A Eu -0.67944(4) 0.39764(4) 0.37876(3)
Eu1A_2 Eu 0.32056(4) 1.39764(4) 0.37876(3)
Eu1A_3 Eu -0.67944(4) 1.39764(4) 0.37876(3)
Eu1_2 Eu -0.32056(4) 1.60236(4) 0.62124(3)
Eu1_3 Eu -1.32056(4) -0.39764(4) 0.62124(3)
Eu1A_4 Eu 0.32056(4) -0.60236(4) 1.37876(3)
Eu2A Eu 0.00114(4) 0.10577(4) 1.09493(3)
Eu2_2 Eu -0.00114(4) 0.89423(4) 0.90507(3)
Eu2A_2 Eu 0.00114(4) 1.10577(4) 0.09493(3)
Eu2A_3 Eu 1.00114(4) 1.10577(4) 1.09493(3)
Eu2_3 Eu 0.99886(4) 0.89423(4) 0.90507(3)
Eu2_4 Eu -1.00114(4) -0.10577(4) 0.90507(3)
Eu2A_4 Eu 0.00114(4) -0.89423(4) 1.09493(3)
C31 C 0.6802(17) 0.2767(18) 0.3726(8)
H27 H 0.6848 0.3573 0.3980
C32 C 0.869(2) 0.331(2) 0.4914(11)
H28 H 0.8546 0.4081 0.5059
H29 H 0.9707 0.3690 0.4930
H30 H 0.8472 0.2675 0.5292
C33 C 0.792(2) 0.136(2) 0.3799(12)
H31 H 0.7009 0.0558 0.3435
H32 H 0.8266 0.1052 0.4271
H33 H 0.8654 0.1734 0.3525
N3 N 0.7648(16) 0.2454(17) 0.4043(8)
O16 O 0.5828(14) 0.2068(15) 0.3055(7)
loop_
_geom_bond_atom_site_label_1
_geom_bond_atom_site_label_2
_geom_bond_site_symmetry_1
_geom_bond_site_symmetry_2
C1 C2 1_555 1_555
C2 C3 1_555 1_555
C3 H1 1_555 1_555
C4 C3 1_555 1_555
H2 C4 1_555 1_555
C5 C4 1_555 1_555
C6 C5 1_555 1_555
H3 C6 1_555 1_555
C7 C2 1_555 1_555
H4 C7 1_555 1_555
C8 C5 1_555 1_555
C9 C10 1_555 1_555
C10 C11 1_555 1_555
C11 H5 1_555 1_555
C12 C11 1_555 1_555
H6 C12 1_555 1_555
C13 C12 1_555 1_555
C14 C13 1_555 1_555
H7 C14 1_555 1_555
C15 C10 1_555 1_555
H8 C15 1_555 1_555
C16 C13 1_555 1_555
C17 C18 1_555 1_555
C18 C19 1_555 1_555
C19 H9 1_555 1_555
C20 C18 1_555 1_555
H10 C20 1_555 1_555
C21 C22 1_555 1_555
C22 C23 1_555 1_555
C23 H11 1_555 1_555
C24 C22 1_555 1_555
H12 C24 1_555 1_555
C25 H13 1_555 1_555
C26 H14 1_555 1_555
H15 C26 1_555 1_555
H16 C26 1_555 1_555
C27 H17 1_555 1_555
H18 C27 1_555 1_555
H19 C27 1_555 1_555
C28 H20 1_555 1_555
C29 H21 1_555 1_555
H22 C29 1_555 1_555
H23 C29 1_555 1_555
C30 H24 1_555 1_555
H25 C30 1_555 1_555
H26 C30 1_555 1_555
C31 H27 1_555 1_555
C32 H28 1_555 1_555
H29 C32 1_555 1_555
H30 C32 1_555 1_555
C33 H31 1_555 1_555
H32 C33 1_555 1_555
H33 C33 1_555 1_555
N1 C25 1_555 1_555
N2 C28 1_555 1_555
N3 C31 1_555 1_555
O1 C1 1_555 1_555
O2 C1 1_555 1_555
O3 C8 1_555 1_555
O4 C8 1_555 1_555
O5 C9 1_555 1_555
O6 C9 1_555 1_555
O7 C16 1_555 1_555
O8 C16 1_555 1_555
O9 C17 1_555 1_555
O10 C17 1_555 1_555
O11 C21 1_555 1_555
O12 C21 1_555 1_555
O13 C25 1_555 1_555
O14 C28 1_555 1_555
O15 Eu1 1_555 1_555
O16 C31 1_555 1_555
Eu1 O3 1_555 1_555
Eu2 O1 1_555 1_555
C1A C2A 1_555 1_555
C2A C3A 1_555 1_555
C3A H1A 1_555 1_555
C4A C3A 1_555 1_555
H2A C4A 1_555 1_555
C5A C4A 1_555 1_555
C6A C5A 1_555 1_555
H3A C6A 1_555 1_555
C7A C2A 1_555 1_555
H4A C7A 1_555 1_555
C8A C5A 1_555 1_555
C9A C10A 1_555 1_555
C10A C11A 1_555 1_555
C11A H5A 1_555 1_555
C12A C11A 1_555 1_555
H6A C12A 1_555 1_555
C13A C12A 1_555 1_555
C14A C13A 1_555 1_555
H7A C14A 1_555 1_555
C15A C10A 1_555 1_555
H8A C15A 1_555 1_555
C16A C13A 1_555 1_555
C17A C18A 1_555 1_555
C18A C19A 1_555 1_555
C19A C20 1_555 1_555
H9A C19A 1_555 1_555
C20A C19 1_555 1_555
H10A C20A 1_555 1_555
C21A C22A 1_555 1_555
C22A C23A 1_555 1_555
C23A C24 1_555 1_555
H11A C23A 1_555 1_555
C24A C23 1_555 1_555
H12A C24A 1_555 1_555
C25A H13A 1_555 1_555
C26A H14A 1_555 1_555
H15A C26A 1_555 1_555
H16A C26A 1_555 1_555
C27A H17A 1_555 1_555
H18A C27A 1_555 1_555
H19A C27A 1_555 1_555
C28A H20A 1_555 1_555
C29A H21A 1_555 1_555
H22A C29A 1_555 1_555
H23A C29A 1_555 1_555
C30A H24A 1_555 1_555
H25A C30A 1_555 1_555
H26A C30A 1_555 1_555
N1A C25A 1_555 1_555
N2A C28A 1_555 1_555
O1A C1A 1_555 1_555
O2A Eu2 1_555 1_555
O3A C8A 1_555 1_555
O3A_2 Eu1A 1_555 1_555
O4A C8A 1_555 1_555
O4_2 Eu2 1_555 1_555
O4A_2 Eu2A 1_555 1_555
O5A C9A 1_555 1_555
O6A Eu1 1_555 1_555
O7A C16A 1_555 1_555
O7A_2 Eu1 1_555 1_555
O7_2 Eu1A 1_555 1_555
O8A C16A 1_555 1_555
O8A_2 Eu2 1_555 1_555
O8_2 Eu2A 1_555 1_555
O9A C17A 1_555 1_555
O9A_2 Eu1A 1_555 1_555
O10A C17A 1_555 1_555
O10A_2 Eu1 1_555 1_555
O11A C21A 1_555 1_555
O11A_2 Eu2A 1_555 1_555
O12A C21A 1_555 1_555
O12A_2 Eu2 1_555 1_555
O13A C25A 1_555 1_555
O14A C28A 1_555 1_555
O15A Eu1A 1_555 1_555
Eu1A O6 1_555 1_555
Eu1A_2 O7 1_555 1_555
Eu1A_3 O9A 1_555 1_555
Eu1_2 O10A 1_555 1_555
Eu1_3 O7A 1_555 1_555
Eu1A_4 O3A 1_555 1_555
Eu2A O2 1_555 1_555
Eu2_2 O4 1_555 1_555
Eu2A_2 O8 1_555 1_555
Eu2A_3 O11A 1_555 1_555
Eu2_3 O12A 1_555 1_555
Eu2_4 O8A 1_555 1_555
Eu2A_4 O4A 1_555 1_555
C6 C7 1_555 1_555
C14 C15 1_555 1_555
C26 N1 1_555 1_555
C27 N1 1_555 1_555
C29 N2 1_555 1_555
C30 N2 1_555 1_555
C32 N3 1_555 1_555
C33 N3 1_555 1_555
O2 Eu2 1_555 1_555
O5 Eu1 1_555 1_555
O9 Eu1 1_555 1_555
O10 Eu1A 1_555 1_555
O11 Eu2 1_555 1_555
O12 Eu2A 1_555 1_555
O13 Eu2 1_555 1_555
O14 Eu1 1_555 1_555
C1A O2A 1_555 1_555
C6A C7A 1_555 1_555
C9A O6A 1_555 1_555
C14A C15A 1_555 1_555
C18A C20A 1_555 1_555
C22A C24A 1_555 1_555
C26A N1A 1_555 1_555
C27A N1A 1_555 1_555
C29A N2A 1_555 1_555
C30A N2A 1_555 1_555
O1A Eu2A 1_555 1_555
O2A Eu2A 1_555 1_555
O5A Eu1A 1_555 1_555
O13A Eu2A 1_555 1_555
O14A Eu1A 1_555 1_555

#END
