
#######################################################################
#
#                 Cambridge Crystallographic Data Centre
#                                CCDC 
#
#######################################################################
#
# If this CIF has been generated from an entry in the Cambridge 
# Structural Database, then it will include bibliographic, chemical, 
# crystal, experimental, refinement or atomic coordinate data resulting 
# from the CCDC's data processing and validation procedures.
#
#######################################################################

data_EDEXOB
_symmetry_cell_setting           monoclinic
_symmetry_space_group_name_H-M   'P 21/n'
_symmetry_Int_Tables_number      14
_space_group_name_Hall           '-P 2yn'
loop_
_symmetry_equiv_pos_site_id
_symmetry_equiv_pos_as_xyz
1 x,y,z
2 1/2-x,1/2+y,1/2-z
3 -x,-y,-z
4 1/2+x,1/2-y,1/2+z
_cell_length_a                   8.8097(4)
_cell_length_b                   14.2323(10)
_cell_length_c                   11.2912(7)
_cell_angle_alpha                90
_cell_angle_beta                 92.835(4)
_cell_angle_gamma                90
_cell_volume                     1413.98
loop_
_atom_site_label
_atom_site_type_symbol
_atom_site_fract_x
_atom_site_fract_y
_atom_site_fract_z
C1 C 0.2085(4) 0.0925(3) 0.0808(3)
H1 H 0.2729 0.1379 0.0474
C2 C 0.2108(4) 0.0013(3) 0.0398(3)
H2 H 0.2805 -0.0151 -0.0183
C3 C 0.0283(4) -0.0386(3) 0.1642(3)
H3 H -0.0387 -0.0838 0.1947
C4 C 0.0274(4) 0.0518(2) 0.2110(3)
C5 C -0.0698(4) 0.0757(3) 0.3124(3)
H4 H -0.0144 0.0580 0.3876
H5 H -0.1637 0.0375 0.3055
C6 C -0.2637(4) 0.2102(3) 0.1984(3)
H6 H -0.3147 0.1487 0.1864
H7 H -0.3417 0.2557 0.2221
C7 C -0.2061(4) 0.2413(2) 0.0823(3)
C8 C -0.0271(4) 0.3093(3) -0.0305(3)
H8 H 0.0710 0.3357 -0.0381
C9 C -0.1266(4) 0.3058(3) -0.1284(3)
H9 H -0.0964 0.3318 -0.2011
C10 C -0.3042(4) 0.2365(2) -0.0178(3)
H10 H -0.4027 0.2107 -0.0103
N1 N 0.1176(3) 0.1186(2) 0.1669(2)
N2 N 0.1177(3) -0.0650(2) 0.0792(3)
N3 N -0.2650(3) 0.2669(2) -0.1242(2)
N4 N -0.0654(3) 0.2759(2) 0.0763(2)
N5 N -0.0416(3) 0.4415(2) 0.2879(3)
N6 N 0.3427(4) 0.3641(2) 0.1005(3)
Ni1 Ni 0.09169(5) 0.25826(3) 0.22213(4)
O1 O 0.0798(2) 0.39381(17) 0.2804(2)
O2 O -0.1673(3) 0.4027(2) 0.2773(3)
O3 O -0.0307(3) 0.5266(2) 0.3090(3)
O4 O 0.2876(3) 0.28788(17) 0.1354(2)
O5 O 0.2583(3) 0.4312(2) 0.0699(2)
O6 O 0.4824(3) 0.3692(2) 0.0924(2)
S1 S -0.12230(10) 0.19871(6) 0.32020(7)
N3C N 0.2350(3) 0.2331(2) 0.3758(2)
Ni1C Ni -0.40831(5) 0.24174(3) -0.27787(4)
loop_
_geom_bond_atom_site_label_1
_geom_bond_atom_site_label_2
_geom_bond_site_symmetry_1
_geom_bond_site_symmetry_2
C1 H1 1_555 1_555
C2 C1 1_555 1_555
H2 C2 1_555 1_555
C3 H3 1_555 1_555
C4 C3 1_555 1_555
C5 C4 1_555 1_555
H4 C5 1_555 1_555
H5 C5 1_555 1_555
C6 H6 1_555 1_555
H7 C6 1_555 1_555
C7 C6 1_555 1_555
C8 H8 1_555 1_555
C9 C8 1_555 1_555
H9 C9 1_555 1_555
C10 C7 1_555 1_555
H10 C10 1_555 1_555
N1 C1 1_555 1_555
N2 C2 1_555 1_555
N3 C9 1_555 1_555
N4 C7 1_555 1_555
N5 O1 1_555 1_555
N6 O4 1_555 1_555
Ni1 N1 1_555 1_555
O1 Ni1 1_555 1_555
O2 N5 1_555 1_555
O3 N5 1_555 1_555
O4 Ni1 1_555 1_555
O5 N6 1_555 1_555
O6 N6 1_555 1_555
S1 C5 1_555 1_555
N3C Ni1 1_555 1_555
Ni1C N3 1_555 1_555
C3 N2 1_555 1_555
C4 N1 1_555 1_555
C6 S1 1_555 1_555
C8 N4 1_555 1_555
C10 N3 1_555 1_555
N4 Ni1 1_555 1_555
Ni1 S1 1_555 1_555

#END
