
#######################################################################
#
#                 Cambridge Crystallographic Data Centre
#                                CCDC 
#
#######################################################################
#
# If this CIF has been generated from an entry in the Cambridge 
# Structural Database, then it will include bibliographic, chemical, 
# crystal, experimental, refinement or atomic coordinate data resulting 
# from the CCDC's data processing and validation procedures.
#
#######################################################################

data_EDEXER
_symmetry_cell_setting           monoclinic
_symmetry_space_group_name_H-M   'C c'
_symmetry_Int_Tables_number      9
_space_group_name_Hall           'C -2yc'
loop_
_symmetry_equiv_pos_site_id
_symmetry_equiv_pos_as_xyz
1 x,y,z
2 x,-y,1/2+z
3 1/2+x,1/2+y,z
4 1/2+x,1/2-y,1/2+z
_cell_length_a                   14.567(3)
_cell_length_b                   26.263(2)
_cell_length_c                   7.251(4)
_cell_angle_alpha                90
_cell_angle_beta                 115.94(2)
_cell_angle_gamma                90
_cell_volume                     2494.56
loop_
_atom_site_label
_atom_site_type_symbol
_atom_site_fract_x
_atom_site_fract_y
_atom_site_fract_z
Ba1 Ba -0.08946(9) -0.45143(3) 0.21115(10)
C1 C 0.1271(14) -0.3701(6) 0.205(3)
C2 C 0.1712(16) -0.3185(8) 0.216(3)
C3 C 0.0984(19) -0.2776(8) 0.176(5)
H1 H 0.0328 -0.2917 0.1586
H2 H 0.0892 -0.2595 0.0511
H3 H 0.1238 -0.2539 0.2922
C4 C 0.269(2) -0.3130(9) 0.247(5)
H4 H 0.295 -0.28 0.2453
H5 H 0.3112 -0.3421 0.2723
O1 O 0.0413(10) -0.3767(4) 0.179(2)
O2 O 0.1927(11) -0.4079(5) 0.253(3)
H6 H 0.162 -0.4355 0.2438
C5 C -0.3640(13) -0.4479(7) -0.178(3)
C6 C -0.4603(14) -0.4212(8) -0.290(4)
C7 C -0.4651(16) -0.3727(8) -0.198(4)
H7 H -0.405 -0.369 -0.0662
H8 H -0.5271 -0.3714 -0.1772
H9 H -0.4665 -0.345 -0.2899
C8 C -0.5310(16) -0.4343(10) -0.470(4)
H10 H -0.5864 -0.4119 -0.543
H11 H -0.527 -0.4661 -0.5282
O3 O -0.2972(8) -0.4343(4) -0.0195(17)
O4 O -0.3649(9) -0.4951(5) -0.2597(19)
H12 H -0.3087 -0.5096 -0.1913
O5 O 0.0193(12) -0.3332(5) 0.608(2)
H13 H 0.0338 -0.3638 0.5998
C9 C -0.0625(15) -0.3216(6) 0.451(3)
C10 C -0.0970(19) -0.2672(6) 0.445(4)
O6 O -0.1153(10) -0.3535(4) 0.326(2)
C11 C -0.1757(12) -0.4335(5) 0.634(2)
C12 C -0.2335(14) -0.3835(6) 0.596(2)
C13 C -0.194(3) -0.2565(12) 0.260(5)
H14 H -0.2214 -0.2883 0.1865
H15 H -0.1799 -0.2329 0.1703
H16 H -0.243 -0.2411 0.3015
O7 O -0.1899(8) -0.4596(3) 0.4735(15)
O8 O -0.1199(10) -0.4476(4) 0.8117(17)
C14 C 0.1155(13) -0.5371(6) 0.223(2)
C15 C 0.2237(14) -0.5542(8) 0.341(3)
C16 C 0.2897(15) -0.5234(8) 0.488(3)
H17 H 0.3578 -0.5342 0.5695
H18 H 0.268 -0.4908 0.5105
C17 C 0.252(2) -0.6043(8) 0.299(4)
H19 H 0.1932 -0.6203 0.1876
H20 H 0.2743 -0.6254 0.4229
H21 H 0.3081 -0.6011 0.2597
O9 O 0.0902(9) -0.4926(4) 0.228(2)
O10 O 0.0547(11) -0.5697(4) 0.1056(18)
C18 C -0.1947(18) -0.3488(6) 0.757(3)
H22 H -0.1369 -0.3641 0.8729
H23 H -0.2481 -0.3397 0.7985
H24 H -0.1718 -0.3181 0.7119
C19 C -0.3158(14) -0.3743(6) 0.409(3)
H25 H -0.35 -0.3424 0.3831
H26 H -0.3382 -0.3999 0.3054
C20 C -0.032(2) -0.2339(8) 0.588(4)
H27 H -0.0472 -0.1985 0.5748
H28 H 0.0274 -0.2461 0.6998
Ba1A Ba -0.08946(9) -0.54857(3) 0.71115(10)
Ba1_2 Ba -0.08946(9) -0.45143(3) 1.21115(10)
Ba1A_2 Ba -0.08946(9) -0.54857(3) -0.28885(10)
O7A O -0.1899(8) -0.5404(3) -0.0265(15)
O8_2 O -0.1199(10) -0.4476(4) -0.1883(17)
O8A O -0.1199(10) -0.5524(4) 0.3117(17)
O10A O 0.0547(11) -0.4303(4) 0.6056(18)
loop_
_geom_bond_atom_site_label_1
_geom_bond_atom_site_label_2
_geom_bond_site_symmetry_1
_geom_bond_site_symmetry_2
Ba1 O1 1_555 1_555
C1 C2 1_555 1_555
C2 C3 1_555 1_555
C3 H1 1_555 1_555
H2 C3 1_555 1_555
H3 C3 1_555 1_555
C4 C2 1_555 1_555
H4 C4 1_555 1_555
H5 C4 1_555 1_555
O1 C1 1_555 1_555
O2 C1 1_555 1_555
H6 O2 1_555 1_555
C5 C6 1_555 1_555
C6 C7 1_555 1_555
C7 H7 1_555 1_555
H8 C7 1_555 1_555
H9 C7 1_555 1_555
C8 C6 1_555 1_555
H10 C8 1_555 1_555
H11 C8 1_555 1_555
O3 Ba1 1_555 1_555
O4 C5 1_555 1_555
H12 O4 1_555 1_555
O5 H13 1_555 1_555
C9 O5 1_555 1_555
C10 C9 1_555 1_555
O6 Ba1 1_555 1_555
C11 C12 1_555 1_555
C12 C18 1_555 1_555
C13 C10 1_555 1_555
H14 C13 1_555 1_555
H15 C13 1_555 1_555
H16 C13 1_555 1_555
O7 Ba1 1_555 1_555
O8 C11 1_555 1_555
C14 C15 1_555 1_555
C15 C16 1_555 1_555
C16 H17 1_555 1_555
H18 C16 1_555 1_555
C17 C15 1_555 1_555
H19 C17 1_555 1_555
H20 C17 1_555 1_555
H21 C17 1_555 1_555
O9 Ba1 1_555 1_555
O10 C14 1_555 1_555
C18 H22 1_555 1_555
H23 C18 1_555 1_555
H24 C18 1_555 1_555
C19 C12 1_555 1_555
H25 C19 1_555 1_555
H26 C19 1_555 1_555
C20 C10 1_555 1_555
H27 C20 1_555 1_555
H28 C20 1_555 1_555
Ba1A O7 1_555 1_555
Ba1_2 O8 1_555 1_555
Ba1A_2 O10 1_555 1_555
O7A Ba1 1_555 1_555
O8_2 Ba1 1_555 1_555
O8A Ba1 1_555 1_555
O10A Ba1 1_555 1_555
C5 O3 1_555 1_555
C9 O6 1_555 1_555
C11 O7 1_555 1_555
O8 Ba1A 1_555 1_555
C14 O9 1_555 1_555
Ba1A O8A 1_555 1_555
Ba1A_2 O7A 1_555 1_555
Ba1A_2 O8_2 1_555 1_555

#END
