
#######################################################################
#
#                 Cambridge Crystallographic Data Centre
#                                CCDC 
#
#######################################################################
#
# If this CIF has been generated from an entry in the Cambridge 
# Structural Database, then it will include bibliographic, chemical, 
# crystal, experimental, refinement or atomic coordinate data resulting 
# from the CCDC's data processing and validation procedures.
#
#######################################################################

data_EDICUQ
_symmetry_cell_setting           triclinic
_symmetry_space_group_name_H-M   'P -1'
_symmetry_Int_Tables_number      2
_space_group_name_Hall           '-P 1'
loop_
_symmetry_equiv_pos_site_id
_symmetry_equiv_pos_as_xyz
1 x,y,z
2 -x,-y,-z
_cell_length_a                   8.846(6)
_cell_length_b                   9.526(6)
_cell_length_c                   12.650(9)
_cell_angle_alpha                84.110(11)
_cell_angle_beta                 87.564(13)
_cell_angle_gamma                84.044(13)
_cell_volume                     1054.08
loop_
_atom_site_label
_atom_site_type_symbol
_atom_site_fract_x
_atom_site_fract_y
_atom_site_fract_z
Bi1 Bi 0.52646(10) -0.46193(10) -0.19325(8)
I1 I 0.68066(18) -0.34280(18) 0.00345(14)
I2 I 0.3650(3) -0.5800(3) -0.3541(2)
N1 N 0.802(2) -0.213(2) -0.4424(17)
N2 N 0.280(2) -0.281(2) -0.1532(17)
N3 N -0.303(2) 0.299(2) -0.1547(17)
O1 O 0.952(2) -0.077(2) -0.6202(15)
S1 S 0.7889(8) -0.4530(7) -0.3154(6)
S2 S 0.5474(8) -0.2163(8) -0.3216(6)
C1 C 0.716(3) -0.296(3) -0.368(2)
C2 C 0.753(3) -0.064(3) -0.484(2)
H1 H 0.8006 0.0005 -0.4445
H2 H 0.6437 -0.0454 -0.4745
C3 C 0.797(3) -0.040(3) -0.599(2)
H3 H 0.7381 -0.0956 -0.6393
H4 H 0.7715 0.0592 -0.6237
C4 C 0.996(3) -0.223(3) -0.590(2)
H5 H 1.1039 -0.2442 -0.6039
H6 H 0.9423 -0.2807 -0.6324
C5 C 0.958(3) -0.261(3) -0.472(2)
H7 H 0.9746 -0.3626 -0.4552
H8 H 1.0262 -0.2175 -0.4298
C6 C 0.304(3) -0.152(3) -0.122(2)
H9 H 0.4010 -0.1394 -0.1007
C7 C 0.193(3) -0.042(3) -0.119(2)
H10 H 0.2157 0.0441 -0.0984
C8 C 0.046(3) -0.058(3) -0.1474(19)
C9 C 0.022(3) -0.189(2) -0.1739(19)
H11 H -0.0751 -0.2060 -0.1909
C10 C 0.139(3) -0.295(3) -0.176(2)
H12 H 0.1175 -0.3826 -0.1949
C11 C -0.160(2) 0.304(2) -0.123(2)
H13 H -0.1349 0.3899 -0.1030
C12 C -0.047(2) 0.191(2) -0.118(2)
H14 H 0.0485 0.2046 -0.0954
C13 C -0.073(2) 0.059(2) -0.1472(19)
C14 C -0.224(2) 0.050(2) -0.174(2)
H15 H -0.2529 -0.0369 -0.1869
C15 C -0.330(3) 0.168(2) -0.181(2)
H16 H -0.4261 0.1578 -0.2051
Bi1A Bi 0.47354(10) -0.53807(10) 0.19325(8)
Bi1_2 Bi -0.47354(10) 0.53807(10) -0.19325(8)
I1A I 0.31934(18) -0.65720(18) -0.00345(14)
N3_2 N 0.697(2) -0.701(2) -0.1547(17)
loop_
_geom_bond_atom_site_label_1
_geom_bond_atom_site_label_2
_geom_bond_site_symmetry_1
_geom_bond_site_symmetry_2
Bi1 I1 1_555 1_555
I1 Bi1A 1_555 1_555
I2 Bi1 1_555 1_555
N1 C1 1_555 1_555
N2 Bi1 1_555 1_555
N3 C11 1_555 1_555
O1 C3 1_555 1_555
S1 Bi1 1_555 1_555
S2 Bi1 1_555 1_555
C1 S1 1_555 1_555
C2 N1 1_555 1_555
H1 C2 1_555 1_555
H2 C2 1_555 1_555
C3 C2 1_555 1_555
H3 C3 1_555 1_555
H4 C3 1_555 1_555
C4 O1 1_555 1_555
H5 C4 1_555 1_555
H6 C4 1_555 1_555
C5 N1 1_555 1_555
H7 C5 1_555 1_555
H8 C5 1_555 1_555
C6 N2 1_555 1_555
H9 C6 1_555 1_555
C7 C6 1_555 1_555
H10 C7 1_555 1_555
C8 C7 1_555 1_555
C9 C8 1_555 1_555
H11 C9 1_555 1_555
C10 N2 1_555 1_555
H12 C10 1_555 1_555
C11 H13 1_555 1_555
C12 C11 1_555 1_555
H14 C12 1_555 1_555
C13 C8 1_555 1_555
C14 C13 1_555 1_555
H15 C14 1_555 1_555
C15 N3 1_555 1_555
H16 C15 1_555 1_555
Bi1A I1A 1_555 1_555
Bi1_2 N3 1_555 1_555
I1A Bi1 1_555 1_555
N3_2 Bi1 1_555 1_555
S2 C1 1_555 1_555
C4 C5 1_555 1_555
C9 C10 1_555 1_555
C12 C13 1_555 1_555
C14 C15 1_555 1_555

#END
