
#######################################################################
#
#                 Cambridge Crystallographic Data Centre
#                                CCDC 
#
#######################################################################
#
# If this CIF has been generated from an entry in the Cambridge 
# Structural Database, then it will include bibliographic, chemical, 
# crystal, experimental, refinement or atomic coordinate data resulting 
# from the CCDC's data processing and validation procedures.
#
#######################################################################

data_EDICOK
_symmetry_cell_setting           monoclinic
_symmetry_space_group_name_H-M   'P 21/n'
_symmetry_Int_Tables_number      14
_space_group_name_Hall           '-P 2yn'
loop_
_symmetry_equiv_pos_site_id
_symmetry_equiv_pos_as_xyz
1 x,y,z
2 1/2-x,1/2+y,1/2-z
3 -x,-y,-z
4 1/2+x,1/2-y,1/2+z
_cell_length_a                   5.787(11)
_cell_length_b                   16.31(3)
_cell_length_c                   19.70(4)
_cell_angle_alpha                90
_cell_angle_beta                 93.97(3)
_cell_angle_gamma                90
_cell_volume                     1854.94
loop_
_atom_site_label
_atom_site_type_symbol
_atom_site_fract_x
_atom_site_fract_y
_atom_site_fract_z
Bi1 Bi 0.26284(15) 0.77210(7) 0.14694(5)
I1 I -0.2213(3) 0.83548(15) 0.21796(10)
N1 N 0.076(3) 0.5102(16) 0.1391(13)
N2 N 0.412(4) 0.8866(18) -0.0453(12)
S1 S -0.0352(10) 0.6618(5) 0.1032(4)
S2 S 0.3982(11) 0.6151(5) 0.1766(4)
S3 S 0.4993(12) 0.7650(5) 0.0384(4)
S4 S 0.1153(11) 0.8816(6) 0.0491(4)
C1 C 0.137(4) 0.5852(19) 0.1393(15)
C2 C -0.162(4) 0.4817(19) 0.1116(16)
H1 H -0.2470 0.5271 0.0902
H2 H -0.2486 0.4611 0.1484
C3 C -0.129(4) 0.4130(19) 0.0590(17)
H3 H -0.2793 0.3909 0.0435
H4 H -0.0588 0.4358 0.0199
C4 C 0.017(5) 0.347(2) 0.0883(18)
H5 H -0.0677 0.3181 0.1217
H6 H 0.0468 0.3083 0.0525
C5 C 0.238(5) 0.374(2) 0.1206(18)
H7 H 0.3337 0.3961 0.0864
H8 H 0.3184 0.3279 0.1422
C6 C 0.198(5) 0.4385(19) 0.1724(16)
H9 H 0.3454 0.4561 0.1941
H10 H 0.1055 0.4161 0.2072
C7 C 0.347(4) 0.848(2) 0.0070(15)
C8 C 0.282(5) 0.959(2) -0.0786(15)
H11 H 0.1518 0.9743 -0.0528
H12 H 0.3836 1.0058 -0.0815
C9 C 0.199(5) 0.929(2) -0.1490(14)
H13 H 0.1132 0.8782 -0.1451
H14 H 0.0953 0.9693 -0.1708
C10 C 0.401(5) 0.915(2) -0.1920(15)
H15 H 0.4947 0.9639 -0.1938
H16 H 0.3469 0.8995 -0.2380
C11 C 0.546(5) 0.842(2) -0.1553(15)
H17 H 0.4526 0.7921 -0.1564
H18 H 0.6832 0.8308 -0.1793
C12 C 0.614(5) 0.864(2) -0.0844(14)
H19 H 0.7212 0.9091 -0.0838
H20 H 0.6929 0.8174 -0.0622
Bi1_2 Bi -0.73716(15) 0.77210(7) 0.14694(5)
I1_2 I 0.7787(3) 0.83548(15) 0.21796(10)
loop_
_geom_bond_atom_site_label_1
_geom_bond_atom_site_label_2
_geom_bond_site_symmetry_1
_geom_bond_site_symmetry_2
Bi1 I1 1_555 1_555
I1 Bi1_2 1_555 1_555
N1 C1 1_555 1_555
N2 C7 1_555 1_555
S1 Bi1 1_555 1_555
S2 Bi1 1_555 1_555
S3 Bi1 1_555 1_555
S4 Bi1 1_555 1_555
C1 S1 1_555 1_555
C2 N1 1_555 1_555
H1 C2 1_555 1_555
H2 C2 1_555 1_555
C3 C2 1_555 1_555
H3 C3 1_555 1_555
H4 C3 1_555 1_555
C4 C3 1_555 1_555
H5 C4 1_555 1_555
H6 C4 1_555 1_555
C5 C4 1_555 1_555
H7 C5 1_555 1_555
H8 C5 1_555 1_555
C6 N1 1_555 1_555
H9 C6 1_555 1_555
H10 C6 1_555 1_555
C7 S3 1_555 1_555
C8 N2 1_555 1_555
H11 C8 1_555 1_555
H12 C8 1_555 1_555
C9 C8 1_555 1_555
H13 C9 1_555 1_555
H14 C9 1_555 1_555
C10 C9 1_555 1_555
H15 C10 1_555 1_555
H16 C10 1_555 1_555
C11 C10 1_555 1_555
H17 C11 1_555 1_555
H18 C11 1_555 1_555
C12 N2 1_555 1_555
H19 C12 1_555 1_555
H20 C12 1_555 1_555
I1_2 Bi1 1_555 1_555
S2 C1 1_555 1_555
S4 C7 1_555 1_555
C5 C6 1_555 1_555
C11 C12 1_555 1_555

#END
