
#######################################################################
#
#                 Cambridge Crystallographic Data Centre
#                                CCDC 
#
#######################################################################
#
# If this CIF has been generated from an entry in the Cambridge 
# Structural Database, then it will include bibliographic, chemical, 
# crystal, experimental, refinement or atomic coordinate data resulting 
# from the CCDC's data processing and validation procedures.
#
#######################################################################

data_EDICIE
_symmetry_cell_setting           monoclinic
_symmetry_space_group_name_H-M   'P 21/c'
_symmetry_Int_Tables_number      14
_space_group_name_Hall           '-P 2ybc'
loop_
_symmetry_equiv_pos_site_id
_symmetry_equiv_pos_as_xyz
1 x,y,z
2 -x,1/2+y,1/2-z
3 -x,-y,-z
4 x,1/2-y,1/2+z
_cell_length_a                   13.757(4)
_cell_length_b                   17.721(5)
_cell_length_c                   17.713(5)
_cell_angle_alpha                90
_cell_angle_beta                 109.874(3)
_cell_angle_gamma                90
_cell_volume                     4061.03
loop_
_atom_site_label
_atom_site_type_symbol
_atom_site_fract_x
_atom_site_fract_y
_atom_site_fract_z
Sn1 Sn -0.36059(2) -0.274000(15) 0.271410(17)
Sn2 Sn 0.13045(2) -0.360920(17) 0.228750(19)
S1 S -0.19856(8) -0.18916(6) 0.33458(7)
S2 S -0.75681(9) -0.46272(7) 0.19390(10)
N1 N -0.0053(2) -0.27196(19) 0.2402(2)
N2 N -0.0540(2) -0.27333(18) 0.29783(19)
N3 N -0.1146(2) -0.17860(19) 0.2153(2)
N4 N -0.5177(3) -0.34637(19) 0.1979(2)
N5 N -0.5939(3) -0.3648(2) 0.2302(2)
N6 N -0.6218(3) -0.4272(2) 0.1176(2)
C1 C -0.1185(3) -0.2163(2) 0.2817(2)
C2 C -0.0436(3) -0.2151(2) 0.1932(2)
H1 H -0.0241 -0.2015 0.1496
C3 C -0.1715(3) -0.1115(2) 0.1775(3)
H2 H -0.1241 -0.0704 0.1830
H3 H -0.2206 -0.0986 0.2030
H4 H -0.2072 -0.1213 0.1216
C4 C -0.6543(3) -0.4138(2) 0.1812(3)
C5 C -0.5355(4) -0.3849(3) 0.1326(3)
H5 H -0.4945 -0.3837 0.1003
C6 C -0.6642(5) -0.4806(4) 0.0522(4)
H6 H -0.6372 -0.4698 0.0100
H7 H -0.7381 -0.4763 0.0318
H8 H -0.6452 -0.5310 0.0716
C7 C -0.3165(3) -0.3616(2) 0.3591(2)
C8 C -0.2134(4) -0.3815(3) 0.3935(3)
H9 H -0.1643 -0.3566 0.3773
C9 C -0.1814(5) -0.4371(3) 0.4512(3)
H10 H -0.1117 -0.4494 0.4733
C10 C -0.2522(5) -0.4742(3) 0.4759(3)
H11 H -0.2307 -0.5116 0.5149
C11 C -0.3547(5) -0.4563(3) 0.4433(3)
H12 H -0.4032 -0.4816 0.4599
C12 C -0.3862(4) -0.4005(3) 0.3857(3)
H13 H -0.4561 -0.3887 0.3641
C13 C -0.4616(3) -0.1869(2) 0.2832(2)
C14 C -0.4614(4) -0.1167(3) 0.2498(3)
H14 H -0.4160 -0.1069 0.2223
C15 C -0.5275(5) -0.0606(3) 0.2567(4)
H15 H -0.5283 -0.0142 0.2320
C16 C -0.5919(4) -0.0732(3) 0.2999(4)
H16 H -0.6353 -0.0351 0.3058
C17 C -0.5918(4) -0.1413(3) 0.3337(4)
H17 H -0.6351 -0.1500 0.3633
C18 C -0.5282(3) -0.1983(3) 0.3250(3)
H18 H -0.5304 -0.2453 0.3478
C19 C -0.3261(3) -0.2930(2) 0.1647(2)
C20 C -0.2658(3) -0.3536(3) 0.1600(3)
H19 H -0.2422 -0.3863 0.2034
C21 C -0.2392(4) -0.3673(3) 0.0923(3)
H20 H -0.1988 -0.4088 0.0902
C22 C -0.2738(5) -0.3186(4) 0.0286(4)
H21 H -0.2554 -0.3265 -0.0167
C23 C -0.3344(5) -0.2589(4) 0.0311(3)
H22 H -0.3580 -0.2265 -0.0128
C24 C -0.3614(4) -0.2458(3) 0.0988(3)
H23 H -0.4035 -0.2050 0.0998
C25 C 0.2282(3) -0.3300(3) 0.3475(3)
C26 C 0.3154(4) -0.3719(3) 0.3877(3)
H24 H 0.3312 -0.4145 0.3633
C27 C 0.3796(4) -0.3511(4) 0.4638(4)
H25 H 0.4377 -0.3799 0.4901
C28 C 0.3581(4) -0.2890(4) 0.5001(4)
H26 H 0.4011 -0.2757 0.5514
C29 C 0.2736(4) -0.2463(3) 0.4615(4)
H27 H 0.2592 -0.2034 0.4860
C30 C 0.2093(4) -0.2669(3) 0.3858(3)
H28 H 0.1517 -0.2374 0.3599
C31 C 0.0178(3) -0.4478(2) 0.2154(3)
C32 C -0.0044(3) -0.5011(3) 0.1534(3)
H29 H 0.0269 -0.4970 0.1146
C33 C -0.0720(4) -0.5594(3) 0.1492(4)
H30 H -0.0868 -0.5941 0.1075
C34 C -0.1178(4) -0.5662(3) 0.2069(5)
H31 H -0.1631 -0.6059 0.2041
C35 C -0.0976(4) -0.5159(3) 0.2672(4)
H32 H -0.1291 -0.5211 0.3058
C36 C -0.0299(3) -0.4562(3) 0.2724(3)
H33 H -0.0165 -0.4218 0.3143
C37 C 0.1275(3) -0.2837(2) 0.1358(3)
C38 C 0.0541(4) -0.2881(3) 0.0604(3)
H34 H 0.0119 -0.3304 0.0456
C39 C 0.0429(4) -0.2292(4) 0.0062(3)
H35 H -0.0070 -0.2319 -0.0446
C40 C 0.1054(5) -0.1674(4) 0.0278(4)
H36 H 0.0964 -0.1276 -0.0082
C41 C 0.1809(4) -0.1631(3) 0.1014(3)
H37 H 0.2245 -0.1214 0.1150
C42 C 0.1917(3) -0.2215(2) 0.1552(3)
H38 H 0.2430 -0.2189 0.2053
Sn2_2 Sn -0.86955(2) -0.360920(17) 0.228750(19)
S2_2 S 0.24319(9) -0.46272(7) 0.19390(10)
loop_
_geom_bond_atom_site_label_1
_geom_bond_atom_site_label_2
_geom_bond_site_symmetry_1
_geom_bond_site_symmetry_2
Sn1 S1 1_555 1_555
Sn2 N1 1_555 1_555
S1 C1 1_555 1_555
S2 C4 1_555 1_555
N1 N2 1_555 1_555
N2 C1 1_555 1_555
N3 C1 1_555 1_555
N4 Sn1 1_555 1_555
N5 N4 1_555 1_555
N6 C4 1_555 1_555
C2 N1 1_555 1_555
H1 C2 1_555 1_555
C3 N3 1_555 1_555
H2 C3 1_555 1_555
H3 C3 1_555 1_555
H4 C3 1_555 1_555
C4 N5 1_555 1_555
C5 N4 1_555 1_555
H5 C5 1_555 1_555
C6 N6 1_555 1_555
H6 C6 1_555 1_555
H7 C6 1_555 1_555
H8 C6 1_555 1_555
C7 Sn1 1_555 1_555
C8 C7 1_555 1_555
H9 C8 1_555 1_555
C9 C8 1_555 1_555
H10 C9 1_555 1_555
C10 C9 1_555 1_555
H11 C10 1_555 1_555
C11 C10 1_555 1_555
H12 C11 1_555 1_555
C12 C7 1_555 1_555
H13 C12 1_555 1_555
C13 Sn1 1_555 1_555
C14 C13 1_555 1_555
H14 C14 1_555 1_555
C15 C14 1_555 1_555
H15 C15 1_555 1_555
C16 C15 1_555 1_555
H16 C16 1_555 1_555
C17 C16 1_555 1_555
H17 C17 1_555 1_555
C18 C13 1_555 1_555
H18 C18 1_555 1_555
C19 Sn1 1_555 1_555
C20 C19 1_555 1_555
H19 C20 1_555 1_555
C21 C20 1_555 1_555
H20 C21 1_555 1_555
C22 C21 1_555 1_555
H21 C22 1_555 1_555
C23 C22 1_555 1_555
H22 C23 1_555 1_555
C24 C19 1_555 1_555
H23 C24 1_555 1_555
C25 Sn2 1_555 1_555
C26 C25 1_555 1_555
H24 C26 1_555 1_555
C27 C26 1_555 1_555
H25 C27 1_555 1_555
C28 C27 1_555 1_555
H26 C28 1_555 1_555
C29 C28 1_555 1_555
H27 C29 1_555 1_555
C30 C25 1_555 1_555
H28 C30 1_555 1_555
C31 Sn2 1_555 1_555
C32 C31 1_555 1_555
H29 C32 1_555 1_555
C33 C32 1_555 1_555
H30 C33 1_555 1_555
C34 C33 1_555 1_555
H31 C34 1_555 1_555
C35 C34 1_555 1_555
H32 C35 1_555 1_555
C36 C31 1_555 1_555
H33 C36 1_555 1_555
C37 Sn2 1_555 1_555
C38 C37 1_555 1_555
H34 C38 1_555 1_555
C39 C38 1_555 1_555
H35 C39 1_555 1_555
C40 C39 1_555 1_555
H36 C40 1_555 1_555
C41 C40 1_555 1_555
H37 C41 1_555 1_555
C42 C37 1_555 1_555
H38 C42 1_555 1_555
Sn2_2 S2 1_555 1_555
S2_2 Sn2 1_555 1_555
N3 C2 1_555 1_555
N6 C5 1_555 1_555
C11 C12 1_555 1_555
C17 C18 1_555 1_555
C23 C24 1_555 1_555
C29 C30 1_555 1_555
C35 C36 1_555 1_555
C41 C42 1_555 1_555

#END
