
#######################################################################
#
#                 Cambridge Crystallographic Data Centre
#                                CCDC 
#
#######################################################################
#
# If this CIF has been generated from an entry in the Cambridge 
# Structural Database, then it will include bibliographic, chemical, 
# crystal, experimental, refinement or atomic coordinate data resulting 
# from the CCDC's data processing and validation procedures.
#
#######################################################################

data_EDIHOO
_symmetry_cell_setting           triclinic
_symmetry_space_group_name_H-M   'P -1'
_symmetry_Int_Tables_number      2
_space_group_name_Hall           '-P 1'
loop_
_symmetry_equiv_pos_site_id
_symmetry_equiv_pos_as_xyz
1 x,y,z
2 -x,-y,-z
_cell_length_a                   10.647(2)
_cell_length_b                   11.165(1)
_cell_length_c                   10.036(1)
_cell_angle_alpha                91.56(1)
_cell_angle_beta                 111.34(1)
_cell_angle_gamma                115.642(10)
_cell_volume                     977.248
loop_
_atom_site_label
_atom_site_type_symbol
_atom_site_fract_x
_atom_site_fract_y
_atom_site_fract_z
Co1 Co 1.0000 0.5000 0.5000
O1 O 0.1747(2) 0.5072(2) -0.2965(2)
O2 O 0.2832(2) 0.4204(2) -0.3946(2)
O3 O 0.2493(2) 0.1739(2) -0.2689(2)
O4 O 0.4793(2) 0.2556(2) -0.2703(2)
O5 O 1.1057(2) 0.4611(2) 0.3742(2)
N1 N 0.8685(2) 0.2872(2) 0.4701(2)
N2 N 0.7840(2) 0.0677(2) 0.4010(2)
C1 C 0.2716(2) 0.4669(2) -0.2882(2)
C2 C 0.3853(2) 0.4792(2) -0.1374(2)
C3 C 0.4448(2) 0.3886(2) -0.1123(2)
C4 C 0.4403(2) 0.5886(2) -0.0249(2)
C5 C 0.3862(2) 0.2642(2) -0.2271(2)
C6 C 0.7124(3) 0.2178(3) 0.4269(3)
C7 C 0.6601(3) 0.0835(3) 0.3837(3)
C8 C 0.9061(3) 0.1921(2) 0.4529(3)
C4A C 0.5597(2) 0.4114(2) 0.0249(2)
C2A C 0.6147(2) 0.5208(2) 0.1374(2)
C1A C 0.7284(2) 0.5331(2) 0.2882(2)
O1A O 0.8253(2) 0.4928(2) 0.2965(2)
Co1_2 Co 0.0000 0.5000 -0.5000
O1_2 O 1.1747(2) 0.5072(2) 0.7035(2)
O5A O 0.8943(2) 0.5389(2) 0.6258(2)
N1A N 1.1315(2) 0.7128(2) 0.5299(2)
C6A C 1.2876(3) 0.7822(3) 0.5731(3)
C7A C 1.3399(3) 0.9165(3) 0.6163(3)
N2A N 1.2160(2) 0.9323(2) 0.5990(2)
C8A C 1.0939(3) 0.8079(2) 0.5471(3)
O2A O 0.7168(2) 0.5796(2) 0.3946(2)
C3A C 0.5552(2) 0.6114(2) 0.1123(2)
C5A C 0.6138(2) 0.7358(2) 0.2271(2)
O3A O 0.7507(2) 0.8261(2) 0.2689(2)
O4A O 0.5207(2) 0.7444(2) 0.2703(2)
Co2 Co 0.0000 0.0000 -1.0000
O6 O -0.0603(2) -0.1412(2) -0.8667(2)
N3 N 0.1917(2) 0.1413(2) -0.8094(2)
N4 N 0.3490(3) 0.2303(3) -0.5788(2)
N5 N -0.1340(2) 0.0860(2) -0.9680(2)
N6 N -0.1941(3) 0.2300(2) -0.8871(2)
C9 C 0.2288(3) 0.1198(3) -0.6760(3)
C10 C 0.3916(3) 0.3290(3) -0.6522(3)
C11 C 0.2953(3) 0.2737(3) -0.7941(3)
C12 C -0.0829(3) 0.1999(3) -0.8772(3)
C13 C -0.3253(3) 0.1284(3) -0.9908(4)
C14 C -0.2877(3) 0.0412(3) -1.0387(4)
O6A O 0.0603(2) 0.1412(2) -1.1333(2)
N3A N -0.1917(2) -0.1413(2) -1.1906(2)
C9A C -0.2288(3) -0.1198(3) -1.3240(3)
N4A N -0.3490(3) -0.2303(3) -1.4212(2)
C10A C -0.3916(3) -0.3290(3) -1.3478(3)
C11A C -0.2953(3) -0.2737(3) -1.2059(3)
N5A N 0.1340(2) -0.0860(2) -1.0320(2)
C12A C 0.0829(3) -0.1999(3) -1.1228(3)
N6A N 0.1941(3) -0.2300(2) -1.1129(2)
C13A C 0.3253(3) -0.1284(3) -1.0092(4)
C14A C 0.2877(3) -0.0412(3) -0.9613(4)
O7 O 0.0501(2) 0.3864(2) -0.1004(2)
O8 O 0.2116(2) 0.5807(2) -0.8257(2)
loop_
_geom_bond_atom_site_label_1
_geom_bond_atom_site_label_2
_geom_bond_site_symmetry_1
_geom_bond_site_symmetry_2
Co1 O5 1_555 1_555
Co2 O6 1_555 1_555
O1 C1 1_555 1_555
O2 C1 1_555 1_555
O3 C5 1_555 1_555
O4 C5 1_555 1_555
N1 Co1 1_555 1_555
N2 C7 1_555 1_555
N3 Co2 1_555 1_555
N4 C9 1_555 1_555
N5 Co2 1_555 1_555
N6 C12 1_555 1_555
C1 C2 1_555 1_555
C2 C3 1_555 1_555
C3 C5 1_555 1_555
C4 C2 1_555 1_555
C6 N1 1_555 1_555
C7 C6 1_555 1_555
C8 N1 1_555 1_555
C9 N3 1_555 1_555
C10 N4 1_555 1_555
C11 N3 1_555 1_555
C12 N5 1_555 1_555
C13 N6 1_555 1_555
C14 N5 1_555 1_555
C4A C3 1_555 1_555
C2A C4A 1_555 1_555
C1A C2A 1_555 1_555
O1A Co1 1_555 1_555
Co1_2 O1 1_555 1_555
O1_2 Co1 1_555 1_555
O5A Co1 1_555 1_555
N1A Co1 1_555 1_555
C6A N1A 1_555 1_555
C7A C6A 1_555 1_555
N2A C7A 1_555 1_555
C8A N1A 1_555 1_555
O2A C1A 1_555 1_555
C3A C4 1_555 1_555
C5A C3A 1_555 1_555
O3A C5A 1_555 1_555
O4A C5A 1_555 1_555
O6A Co2 1_555 1_555
N3A Co2 1_555 1_555
C9A N3A 1_555 1_555
N4A C9A 1_555 1_555
C10A N4A 1_555 1_555
C11A N3A 1_555 1_555
N5A Co2 1_555 1_555
C12A N5A 1_555 1_555
N6A C12A 1_555 1_555
C13A N6A 1_555 1_555
C14A N5A 1_555 1_555
N2 C8 1_555 1_555
C10 C11 1_555 1_555
C13 C14 1_555 1_555
C2A C3A 1_555 1_555
C1A O1A 1_555 1_555
N2A C8A 1_555 1_555
C10A C11A 1_555 1_555
C13A C14A 1_555 1_555

#END
