
#######################################################################
#
#                 Cambridge Crystallographic Data Centre
#                                CCDC 
#
#######################################################################
#
# If this CIF has been generated from an entry in the Cambridge 
# Structural Database, then it will include bibliographic, chemical, 
# crystal, experimental, refinement or atomic coordinate data resulting 
# from the CCDC's data processing and validation procedures.
#
#######################################################################

data_EDIKEH
_symmetry_cell_setting           triclinic
_symmetry_space_group_name_H-M   'P -1'
_symmetry_Int_Tables_number      2
_space_group_name_Hall           '-P 1'
loop_
_symmetry_equiv_pos_site_id
_symmetry_equiv_pos_as_xyz
1 x,y,z
2 -x,-y,-z
_cell_length_a                   8.2293(2)
_cell_length_b                   9.7386(3)
_cell_length_c                   9.7543(2)
_cell_angle_alpha                60.7410(10)
_cell_angle_beta                 72.3570(10)
_cell_angle_gamma                84.666(2)
_cell_volume                     648.483
loop_
_atom_site_label
_atom_site_type_symbol
_atom_site_fract_x
_atom_site_fract_y
_atom_site_fract_z
O10 O 1.0826(13) 0.8857(14) 0.9462(12)
H11 H 1.163(16) 0.891(14) 0.928(15)
H12 H 1.032(38) 0.966(31) 0.897(33)
O11 O 0.8149(10) 0.4174(8) 1.2251(10)
H13 H 0.830(22) 0.419(18) 1.138(19)
H14 H 0.748(13) 0.360(11) 1.248(11)
N1 N 0.9878(14) 0.3655(10) 0.6533(11)
C5 C 0.8338(12) 0.4221(11) 0.5892(11)
C6 C 1.1504(10) 0.4086(9) 0.5184(9)
C7 C 1.2999(17) 0.3500(16) 0.5814(18)
H1 H 0.9922(14) 0.4081(10) 0.7159(11)
H2 H 0.9754(14) 0.2600(10) 0.7172(11)
H3 H 0.8230(12) 0.3695(11) 0.5295(11)
H4 H 0.7310(12) 0.3943(11) 0.6814(11)
H5 H 1.1440(10) 0.3584(9) 0.4540(9)
H6 H 1.2837(17) 0.2377(16) 0.6518(18)
H7 H 1.4015(17) 0.3747(16) 0.4906(18)
H8 H 1.3113(17) 0.3995(16) 0.6426(18)
C6A C 0.8496(10) 0.5914(9) 0.4816(9)
N1A N 1.0122(14) 0.6345(10) 0.3467(11)
C5A C 1.1662(12) 0.5779(11) 0.4108(11)
H3A H 1.1770(12) 0.6305(11) 0.4705(11)
H4A H 1.2690(12) 0.6057(11) 0.3186(11)
H1A H 1.0078(14) 0.5919(10) 0.2841(11)
H2A H 1.0246(14) 0.7400(10) 0.2828(11)
C7A C 0.7001(17) 0.6500(16) 0.4186(18)
H6A H 0.7163(17) 0.7623(16) 0.3482(18)
H7A H 0.5985(17) 0.6253(16) 0.5094(18)
H8A H 0.6887(17) 0.6005(16) 0.3574(18)
H5A H 0.8560(10) 0.6416(9) 0.5460(9)
Y1 Y 0.6704(1) 0.8413(1) 0.7868(1)
O1 O 0.6902(6) 0.9068(6) 0.9881(6)
O2 O 0.4700(7) 0.6605(5) 1.0369(6)
O3 O 0.8817(6) 0.8284(5) 0.5614(5)
O4 O 0.5602(6) 1.0082(6) 1.1532(6)
O5 O 0.4632(6) 0.8120(5) 0.6732(6)
O6 O 1.0869(6) 0.9720(5) 0.3289(5)
O7 O 0.3298(6) 0.4223(5) 1.1811(5)
O8 O 0.8874(8) 0.6948(7) 0.9171(9)
O9 O 0.3404(6) 0.9217(6) 0.4702(6)
C1 C 0.4430(8) 0.9235(8) 0.5411(8)
C2 C 0.5729(9) 0.9760(7) 1.0392(8)
C3 C 0.9929(8) 0.9435(8) 0.4674(8)
C4 C 0.4419(9) 0.5240(8) 1.0635(8)
H9 H 0.921(17) 0.719(15) 0.983(16)
H10 H 0.9411(94) 0.6749(84) 0.8718(83)
C2A C 0.4271(9) 1.0240(7) 0.9608(8)
O1A O 0.3098(6) 1.0932(6) 1.0119(6)
O4A O 0.4398(6) 0.9918(6) 0.8468(6)
C4A C 0.5581(9) 0.4760(8) 0.9365(8)
O2A O 0.5300(7) 0.3395(5) 0.9631(6)
O7A O 0.6702(6) 0.5777(5) 0.8189(5)
C3A C 1.0071(8) 1.0565(8) 0.5326(8)
O3A O 1.1183(6) 1.1716(5) 0.4386(5)
O6A O 0.9131(6) 1.0280(5) 0.6711(5)
C1A C 0.5570(8) 1.0765(8) 0.4589(8)
O5A O 0.5368(6) 1.1880(5) 0.3268(6)
O9A O 0.6596(6) 1.0783(6) 0.5298(6)
Y1A Y 0.3296(1) 1.1587(1) 1.2132(1)
O8A O 0.1126(8) 1.3052(7) 1.0829(9)
H9A H 0.079(17) 1.281(15) 1.017(16)
H10A H 0.0589(94) 1.3251(84) 1.1282(83)
Y1A_2 Y 1.3296(1) 1.1587(1) 0.2132(1)
Y1A_3 Y 0.3296(1) 0.1587(1) 1.2132(1)
Y1A_4 Y 0.3296(1) 1.1587(1) 0.2132(1)
O2A_2 O 0.5300(7) 1.3395(5) 0.9631(6)
O3A_2 O 0.1183(6) 1.1716(5) 1.4386(5)
O5A_2 O 0.5368(6) 1.1880(5) 1.3268(6)
O6_2 O 0.0869(6) 0.9720(5) 1.3289(5)
O7_2 O 0.3298(6) 1.4223(5) 1.1811(5)
O9_2 O 0.3404(6) 0.9217(6) 1.4702(6)
loop_
_geom_bond_atom_site_label_1
_geom_bond_atom_site_label_2
_geom_bond_site_symmetry_1
_geom_bond_site_symmetry_2
Y1 O1 1_555 1_555
O1 C2 1_555 1_555
O2 Y1 1_555 1_555
O3 Y1 1_555 1_555
O4 C2 1_555 1_555
O5 Y1 1_555 1_555
O6 C3 1_555 1_555
O7 C4 1_555 1_555
O8 Y1 1_555 1_555
O9 C1 1_555 1_555
C1 O5 1_555 1_555
C2 C2A 1_555 1_555
C3 O3 1_555 1_555
C4 O2 1_555 1_555
O10 H11 1_555 1_555
O11 H13 1_555 1_555
N1 C5 1_555 1_555
C5 H3 1_555 1_555
C6 N1 1_555 1_555
C7 C6 1_555 1_555
H1 N1 1_555 1_555
H2 N1 1_555 1_555
H4 C5 1_555 1_555
H5 C6 1_555 1_555
H6 C7 1_555 1_555
H7 C7 1_555 1_555
H8 C7 1_555 1_555
H9 O8 1_555 1_555
H10 O8 1_555 1_555
H12 O10 1_555 1_555
H14 O11 1_555 1_555
C2A O1A 1_555 1_555
O1A Y1A 1_555 1_555
O4A Y1 1_555 1_555
C4A C4 1_555 1_555
O2A C4A 1_555 1_555
O7A Y1 1_555 1_555
C3A C3 1_555 1_555
O3A C3A 1_555 1_555
O6A Y1 1_555 1_555
C1A C1 1_555 1_555
O5A C1A 1_555 1_555
O9A Y1 1_555 1_555
C6A C5 1_555 1_555
N1A C6A 1_555 1_555
C5A C6 1_555 1_555
H3A C5A 1_555 1_555
H4A C5A 1_555 1_555
H1A N1A 1_555 1_555
H2A N1A 1_555 1_555
C7A C6A 1_555 1_555
H6A C7A 1_555 1_555
H7A C7A 1_555 1_555
H8A C7A 1_555 1_555
H5A C6A 1_555 1_555
Y1A O4 1_555 1_555
O8A Y1A 1_555 1_555
H9A O8A 1_555 1_555
H10A O8A 1_555 1_555
Y1A_2 O6 1_555 1_555
Y1A_3 O7 1_555 1_555
Y1A_4 O9 1_555 1_555
O2A_2 Y1A 1_555 1_555
O3A_2 Y1A 1_555 1_555
O5A_2 Y1A 1_555 1_555
O6_2 Y1A 1_555 1_555
O7_2 Y1A 1_555 1_555
O9_2 Y1A 1_555 1_555
C2A O4A 1_555 1_555
C4A O7A 1_555 1_555
O2A Y1A_3 1_555 1_555
C3A O6A 1_555 1_555
O3A Y1A_2 1_555 1_555
C1A O9A 1_555 1_555
O5A Y1A_4 1_555 1_555
N1A C5A 1_555 1_555

#END
