
#######################################################################
#
#                 Cambridge Crystallographic Data Centre
#                                CCDC 
#
#######################################################################
#
# If this CIF has been generated from an entry in the Cambridge 
# Structural Database, then it will include bibliographic, chemical, 
# crystal, experimental, refinement or atomic coordinate data resulting 
# from the CCDC's data processing and validation procedures.
#
#######################################################################

data_EDIMUZ
_symmetry_cell_setting           monoclinic
_symmetry_space_group_name_H-M   'P 21/c'
_symmetry_Int_Tables_number      14
_space_group_name_Hall           '-P 2ybc'
loop_
_symmetry_equiv_pos_site_id
_symmetry_equiv_pos_as_xyz
1 x,y,z
2 -x,1/2+y,1/2-z
3 -x,-y,-z
4 x,1/2-y,1/2+z
_cell_length_a                   10.268(2)
_cell_length_b                   10.333(2)
_cell_length_c                   10.194(2)
_cell_angle_alpha                90
_cell_angle_beta                 117.87(3)
_cell_angle_gamma                90
_cell_volume                     956.124
loop_
_atom_site_label
_atom_site_type_symbol
_atom_site_fract_x
_atom_site_fract_y
_atom_site_fract_z
Sr1 Sr 0.3589(1) 0.1582(1) -0.0095(1)
O1 O 0.3338(3) 0.4160(3) -0.0296(3)
O2 O 0.6014(3) 0.2833(3) 0.1297(3)
O3 O 0.5044(3) 0.4575(3) 0.3690(3)
O4 O 0.4249(3) 0.2698(3) 0.2552(3)
O5 O 0.1453(3) 0.1241(3) 0.0636(3)
O6 O 0.1427(3) -0.0149(3) -0.1567(3)
O7 O 0.1167(3) 0.2258(3) -0.2391(3)
O8 O -0.1223(3) 0.2319(3) -0.3168(5)
C1 C 0.4689(4) 0.4849(4) 0.0529(4)
C2 C 0.5729(4) 0.4013(4) 0.1838(4)
C3 C 0.4966(5) 0.3723(4) 0.2778(4)
C4 C 0.0079(4) 0.0641(3) -0.0330(4)
C5 C 0.0080(4) 0.0462(4) -0.1820(4)
C6 C -0.0005(5) 0.1801(4) -0.2513(4)
H1 H 0.4490 0.5660 0.0902
H2 H 0.6654 0.4477 0.2432
H3 H -0.0730 0.1219 -0.0462
H4 H -0.0763 -0.0069 -0.2484
H5 H 0.1400 0.1661 0.1328
H6 H 0.1370 -0.1091 -0.1514
H7 H 0.7033 0.2704 0.1453
H8 H 0.2588 0.4427 -0.0024
C1B C 0.5311(4) 0.5151(4) -0.0529(4)
O1B O 0.6662(3) 0.5840(3) 0.0296(3)
H8B H 0.7412 0.5573 0.0024
C2B C 0.4271(4) 0.5987(4) -0.1838(4)
O2B O 0.3986(3) 0.7167(3) -0.1297(3)
H7B H 0.2967 0.7296 -0.1453
C3B C 0.5034(5) 0.6277(4) -0.2778(4)
O3B O 0.4956(3) 0.5425(3) -0.3690(3)
O4B O 0.5751(3) 0.7302(3) -0.2552(3)
H2B H 0.3346 0.5523 -0.2432
H1B H 0.5510 0.4340 -0.0902
C4B C -0.0079(4) -0.0641(3) 0.0330(4)
O5B O -0.1453(3) -0.1241(3) -0.0636(3)
H5B H -0.1400 -0.1661 -0.1328
C5B C -0.0080(4) -0.0462(4) 0.1820(4)
O6B O -0.1427(3) 0.0149(3) 0.1567(3)
H6B H -0.1370 0.1091 0.1514
C6B C 0.0005(5) -0.1801(4) 0.2513(4)
O7B O -0.1167(3) -0.2258(3) 0.2391(3)
O8B O 0.1223(3) -0.2319(3) 0.3168(5)
H4B H 0.0763 0.0069 0.2484
H3B H 0.0730 -0.1219 0.0462
Sr1B Sr 0.6411(1) 0.8418(1) 0.0095(1)
O3A O 0.4956(3) -0.0425(3) 0.1310(3)
O3C O 0.5044(3) 0.0425(3) -0.1310(3)
O4C O 0.4249(3) 0.2302(3) -0.2448(3)
Sr1A Sr 0.6411(1) 0.6582(1) 0.5095(1)
Sr1C Sr 0.3589(1) 0.3418(1) 0.4905(1)
Sr1A_2 Sr 0.6411(1) 0.6582(1) -0.4905(1)
Sr1C_2 Sr 0.3589(1) 0.3418(1) -0.5095(1)
Sr1B_2 Sr -0.3589(1) -0.1582(1) 0.0095(1)
O3A_2 O 0.4956(3) 0.9575(3) 0.1310(3)
O3C_2 O 0.5044(3) 1.0425(3) -0.1310(3)
O4A O 0.5751(3) 0.7698(3) 0.2448(3)
O5B_2 O 0.8547(3) 0.8759(3) -0.0636(3)
O6B_2 O 0.8573(3) 1.0149(3) 0.1567(3)
O7B_2 O 0.8833(3) 0.7742(3) 0.2391(3)
H5B_2 H 0.8600 0.8339 -0.1328
H6B_2 H 0.8630 1.1091 0.1514
O9 O 0.1538(6) -0.0281(6) -0.4354(5)
H9 H 0.1780 -0.0224 -0.3417
H10 H 0.1610 -0.1156 -0.4488
loop_
_geom_bond_atom_site_label_1
_geom_bond_atom_site_label_2
_geom_bond_site_symmetry_1
_geom_bond_site_symmetry_2
Sr1 O1 1_555 1_555
O1 C1 1_555 1_555
O2 Sr1 1_555 1_555
O3 C3 1_555 1_555
O4 Sr1 1_555 1_555
O5 Sr1 1_555 1_555
O6 Sr1 1_555 1_555
O7 Sr1 1_555 1_555
O8 C6 1_555 1_555
O9 H9 1_555 1_555
C1 C2 1_555 1_555
C2 O2 1_555 1_555
C3 O4 1_555 1_555
C4 O5 1_555 1_555
C5 O6 1_555 1_555
C6 O7 1_555 1_555
H1 C1 1_555 1_555
H2 C2 1_555 1_555
H3 C4 1_555 1_555
H4 C5 1_555 1_555
H5 O5 1_555 1_555
H6 O6 1_555 1_555
H7 O2 1_555 1_555
H8 O1 1_555 1_555
H10 O9 1_555 1_555
C1B C1 1_555 1_555
O1B C1B 1_555 1_555
H8B O1B 1_555 1_555
C2B C1B 1_555 1_555
O2B C2B 1_555 1_555
H7B O2B 1_555 1_555
C3B C2B 1_555 1_555
O3B C3B 1_555 1_555
O4B C3B 1_555 1_555
H2B C2B 1_555 1_555
H1B C1B 1_555 1_555
C4B C4 1_555 1_555
O5B C4B 1_555 1_555
H5B O5B 1_555 1_555
C5B C4B 1_555 1_555
O6B C5B 1_555 1_555
H6B O6B 1_555 1_555
C6B C5B 1_555 1_555
O7B C6B 1_555 1_555
O8B C6B 1_555 1_555
H4B C5B 1_555 1_555
H3B C4B 1_555 1_555
Sr1B O1B 1_555 1_555
O3A Sr1 1_555 1_555
O3C Sr1 1_555 1_555
O4C Sr1 1_555 1_555
Sr1A O3 1_555 1_555
Sr1C O3 1_555 1_555
Sr1A_2 O3B 1_555 1_555
Sr1C_2 O3B 1_555 1_555
Sr1B_2 O5B 1_555 1_555
O3A_2 Sr1B 1_555 1_555
O3C_2 Sr1B 1_555 1_555
O4A Sr1B 1_555 1_555
O5B_2 Sr1B 1_555 1_555
O6B_2 Sr1B 1_555 1_555
O7B_2 Sr1B 1_555 1_555
H5B_2 O5B_2 1_555 1_555
H6B_2 O6B_2 1_555 1_555
O4 Sr1C 1_555 1_555
C2 C3 1_555 1_555
C4 C5 1_555 1_555
C5 C6 1_555 1_555
O2B Sr1B 1_555 1_555
O4B Sr1B 1_555 1_555
O4B Sr1A_2 1_555 1_555
O6B Sr1B_2 1_555 1_555
O7B Sr1B_2 1_555 1_555
O4C Sr1C_2 1_555 1_555
Sr1A O4A 1_555 1_555

#END
