
#######################################################################
#
#                 Cambridge Crystallographic Data Centre
#                                CCDC 
#
#######################################################################
#
# If this CIF has been generated from an entry in the Cambridge 
# Structural Database, then it will include bibliographic, chemical, 
# crystal, experimental, refinement or atomic coordinate data resulting 
# from the CCDC's data processing and validation procedures.
#
#######################################################################

data_EDIMOT
_symmetry_cell_setting           trigonal
_symmetry_space_group_name_H-M   'P -3'
_symmetry_Int_Tables_number      147
_space_group_name_Hall           '-P 3'
loop_
_symmetry_equiv_pos_site_id
_symmetry_equiv_pos_as_xyz
1 x,y,z
2 -y,x-y,z
3 -x+y,-x,z
4 -x,-y,-z
5 y,-x+y,-z
6 x-y,x,-z
_cell_length_a                   14.15(2)
_cell_length_b                   14.15(2)
_cell_length_c                   6.552(4)
_cell_angle_alpha                90
_cell_angle_beta                 90
_cell_angle_gamma                120
_cell_volume                     1136.1
loop_
_atom_site_label
_atom_site_type_symbol
_atom_site_fract_x
_atom_site_fract_y
_atom_site_fract_z
Mn1 Mn 0.6667 0.3333 0.5002(2)
O1 O 0.5639(2) 0.3724(2) 0.6870(4)
O2 O 0.6278(2) 0.4363(2) 0.3139(4)
C1 C 0.5294(3) 0.4320(3) 0.6094(5)
C2 C 0.5682(3) 0.4704(3) 0.3912(5)
C3 C 0.4628(3) 0.4630(3) 0.7065(5)
H1 H 0.4405 0.4410 0.8385
C3C C 0.5372(3) 0.5370(3) 0.2935(5)
C1C C 0.4706(3) 0.5680(3) 0.3906(5)
O1C O 0.4361(2) 0.6276(2) 0.3130(4)
C2C C 0.4318(3) 0.5296(3) 0.6088(5)
O2C O 0.3722(2) 0.5637(2) 0.6861(4)
H1C H 0.5595 0.5590 0.1615
O1A O 0.6276(2) 0.1915(3) 0.6870(4)
O2A O 0.5637(2) 0.1915(3) 0.3139(4)
C1A C 0.5680(3) 0.0974(4) 0.6094(5)
C2A C 0.5296(3) 0.0978(4) 0.3912(5)
C3A C 0.5370(3) -0.0002(4) 0.7065(5)
H1A H 0.5590 -0.0005 0.8385
C3D C 0.4630(3) 0.0002(4) 0.2935(5)
C1D C 0.4320(3) -0.0974(4) 0.3906(5)
O1D O 0.3724(2) -0.1915(3) 0.3130(4)
C2D C 0.4704(3) -0.0978(4) 0.6088(5)
O2D O 0.4363(2) -0.1915(3) 0.6861(4)
H1D H 0.4410 0.0005 0.1615
O1B O 0.8085(3) 0.4361(2) 0.6870(4)
O2B O 0.8085(3) 0.3722(2) 0.3139(4)
C1B C 0.9026(4) 0.4706(3) 0.6094(5)
C2B C 0.9022(4) 0.4318(3) 0.3912(5)
C3B C 1.0002(4) 0.5372(3) 0.7065(5)
H1B H 1.0005 0.5595 0.8385
C3E C 0.9998(4) 0.4628(3) 0.2935(5)
C1E C 1.0974(4) 0.5294(3) 0.3906(5)
O1E O 1.1915(3) 0.5639(2) 0.3130(4)
C2E C 1.0978(4) 0.5682(3) 0.6088(5)
O2E O 1.1915(3) 0.6278(2) 0.6861(4)
H1E H 0.9995 0.4405 0.1615
Mn1C Mn 0.3333 0.6667 0.4998(2)
Mn1C_2 Mn 0.3333 -0.3333 0.4998(2)
Mn1C_3 Mn 1.3333 0.6667 0.4998(2)
O1D_2 O 0.3724(2) 0.8085(3) 0.3130(4)
O1E_2 O 0.1915(3) 0.5639(2) 0.3130(4)
O2D_2 O 0.4363(2) 0.8085(3) 0.6861(4)
O2E_2 O 0.1915(3) 0.6278(2) 0.6861(4)
Cl1 Cl 1.0000 0.0000 1.0000
Cl2 Cl 1.0000 0.0000 0.5000
O3 O 0.7949(3) 0.1136(3) 0.3167(5)
H2 H 0.7810 0.1540 0.2160
H3 H 0.7720 0.0370 0.3040
O4 O 0.8886(3) 0.2063(3) 0.6862(4)
H4 H 0.8640 0.1960 0.5750
H5 H 0.8470 0.2030 0.7990
O5 O 0.4586(2) 0.2289(2) 0.9998(4)
H6 H 0.5080 0.2890 0.9170
H7 H 0.5010 0.2190 1.0989
O6 O 1.1258(2) 0.1255(2) 0.7515(4)
H8 H 1.1300 0.1900 0.7646
H9 H 1.2020 0.1320 0.7130
loop_
_geom_bond_atom_site_label_1
_geom_bond_atom_site_label_2
_geom_bond_site_symmetry_1
_geom_bond_site_symmetry_2
Mn1 O1 1_555 1_555
O1 C1 1_555 1_555
O2 Mn1 1_555 1_555
O3 H2 1_555 1_555
O4 H4 1_555 1_555
O5 H6 1_555 1_555
O6 H8 1_555 1_555
C1 C2 1_555 1_555
C2 O2 1_555 1_555
C3 C1 1_555 1_555
H1 C3 1_555 1_555
H3 O3 1_555 1_555
H5 O4 1_555 1_555
H7 O5 1_555 1_555
H9 O6 1_555 1_555
C3C C2 1_555 1_555
C1C C3C 1_555 1_555
O1C C1C 1_555 1_555
C2C C3 1_555 1_555
O2C C2C 1_555 1_555
H1C C3C 1_555 1_555
O1A Mn1 1_555 1_555
O2A Mn1 1_555 1_555
C1A O1A 1_555 1_555
C2A O2A 1_555 1_555
C3A C1A 1_555 1_555
H1A C3A 1_555 1_555
C3D C2A 1_555 1_555
C1D C3D 1_555 1_555
O1D C1D 1_555 1_555
C2D C3A 1_555 1_555
O2D C2D 1_555 1_555
H1D C3D 1_555 1_555
O1B Mn1 1_555 1_555
O2B Mn1 1_555 1_555
C1B O1B 1_555 1_555
C2B O2B 1_555 1_555
C3B C1B 1_555 1_555
H1B C3B 1_555 1_555
C3E C2B 1_555 1_555
C1E C3E 1_555 1_555
O1E C1E 1_555 1_555
C2E C3B 1_555 1_555
O2E C2E 1_555 1_555
H1E C3E 1_555 1_555
Mn1C O1C 1_555 1_555
Mn1C_2 O1D 1_555 1_555
Mn1C_3 O1E 1_555 1_555
O1D_2 Mn1C 1_555 1_555
O1E_2 Mn1C 1_555 1_555
O2D_2 Mn1C 1_555 1_555
O2E_2 Mn1C 1_555 1_555
C1C C2C 1_555 1_555
O2C Mn1C 1_555 1_555
C1A C2A 1_555 1_555
C1D C2D 1_555 1_555
O2D Mn1C_2 1_555 1_555
C1B C2B 1_555 1_555
C1E C2E 1_555 1_555
O2E Mn1C_3 1_555 1_555

#END
