
#######################################################################
#
#                 Cambridge Crystallographic Data Centre
#                                CCDC 
#
#######################################################################
#
# If this CIF has been generated from an entry in the Cambridge 
# Structural Database, then it will include bibliographic, chemical, 
# crystal, experimental, refinement or atomic coordinate data resulting 
# from the CCDC's data processing and validation procedures.
#
#######################################################################

data_EDINIO
_symmetry_cell_setting           monoclinic
_symmetry_space_group_name_H-M   'P 21/m'
_symmetry_Int_Tables_number      11
_space_group_name_Hall           '-P 2yb'
loop_
_symmetry_equiv_pos_site_id
_symmetry_equiv_pos_as_xyz
1 x,y,z
2 -x,1/2+y,-z
3 -x,-y,-z
4 x,1/2-y,z
_cell_length_a                   8.808(1)
_cell_length_b                   6.4149(8)
_cell_length_c                   5.3418(8)
_cell_angle_alpha                90
_cell_angle_beta                 105.75(1)
_cell_angle_gamma                90
_cell_volume                     290.493
loop_
_atom_site_label
_atom_site_type_symbol
_atom_site_fract_x
_atom_site_fract_y
_atom_site_fract_z
Cu1 Cu 0.8267(3) 0.2500 0.5240(4)
P1 P 0.1855(6) 0.2500 -0.4055(8)
O1 O 0.636(1) 0.2500 0.225(2)
O2 O 0.7993(9) 0.2500 -0.021(2)
O3 O 0.1777(6) 0.0613(7) -0.579(1)
O4 O 0.0546(8) 0.2500 -0.269(1)
C1 C 0.3584(9) 0.2500 -0.125(2)
C2 C 0.511(1) 0.2500 -0.234(2)
C3 C 0.666(2) 0.2500 0.001(3)
O3C O 0.1777(6) 0.4387(7) -0.579(1)
O2_2 O 0.7993(9) 0.2500 0.979(2)
O3A O 0.8223(6) 0.5613(7) 0.579(1)
O3B O 0.8223(6) -0.0613(7) 0.579(1)
O4_2 O 1.0546(8) 0.2500 0.731(1)
Cu1_2 Cu 0.8267(3) 0.2500 -0.4760(4)
Cu1A Cu 0.1733(3) -0.2500 -0.5240(4)
Cu1_3 Cu -0.1733(3) 0.2500 -0.4760(4)
Cu1A_2 Cu 0.1733(3) 0.7500 -0.5240(4)
Na1 Na 0.0000 0.0000 0.0000
loop_
_geom_bond_atom_site_label_1
_geom_bond_atom_site_label_2
_geom_bond_site_symmetry_1
_geom_bond_site_symmetry_2
Cu1 O1 1_555 1_555
P1 O3 1_555 1_555
O1 C3 1_555 1_555
O2 C3 1_555 1_555
O3 Cu1A 1_555 1_555
O4 P1 1_555 1_555
C1 P1 1_555 1_555
C2 C1 1_555 1_555
C3 C2 1_555 1_555
O3C P1 1_555 1_555
O2_2 Cu1 1_555 1_555
O3A Cu1 1_555 1_555
O3B Cu1 1_555 1_555
O4_2 Cu1 1_555 1_555
Cu1_2 O2 1_555 1_555
Cu1_3 O4 1_555 1_555
Cu1A_2 O3C 1_555 1_555

#END
