
#######################################################################
#
#                 Cambridge Crystallographic Data Centre
#                                CCDC 
#
#######################################################################
#
# If this CIF has been generated from an entry in the Cambridge 
# Structural Database, then it will include bibliographic, chemical, 
# crystal, experimental, refinement or atomic coordinate data resulting 
# from the CCDC's data processing and validation procedures.
#
#######################################################################

data_EDOGOT
_symmetry_cell_setting           monoclinic
_symmetry_space_group_name_H-M   'C 2/c'
_symmetry_Int_Tables_number      15
_space_group_name_Hall           '-C 2yn'
loop_
_symmetry_equiv_pos_site_id
_symmetry_equiv_pos_as_xyz
1 x,y,z
2 x,-y,1/2+z
3 1/2+x,1/2+y,z
4 1/2+x,1/2-y,1/2+z
5 -x,-y,-z
6 -x,y,1/2-z
7 1/2-x,1/2-y,-z
8 1/2-x,1/2+y,1/2-z
_cell_length_a                   11.068(6)
_cell_length_b                   19.811(5)
_cell_length_c                   11.485(6)
_cell_angle_alpha                90
_cell_angle_beta                 95.30(4)
_cell_angle_gamma                90
_cell_volume                     2507.53
loop_
_atom_site_label
_atom_site_type_symbol
_atom_site_fract_x
_atom_site_fract_y
_atom_site_fract_z
Ag1 Ag 1.0000 0.20834(2) 0.7500
S1 S 0.7990(1) 0.42786(5) 1.15373(8)
S2 S 0.88140(9) 0.51570(5) 1.11675(8)
N1 N 0.9112(3) 0.2791(1) 0.8803(3)
N2 N 0.6272(3) 0.6416(1) 0.8701(2)
C1 C 0.9137(4) 0.2631(2) 0.9940(4)
C2 C 0.8799(4) 0.3075(2) 1.0785(3)
C3 C 0.8444(3) 0.3717(2) 1.0455(3)
C4 C 0.8413(3) 0.3892(2) 0.9279(3)
C5 C 0.8745(3) 0.3418(2) 0.8502(3)
C6 C 0.7349(4) 0.6638(2) 0.9187(3)
C7 C 0.8111(3) 0.6256(2) 0.9937(3)
C8 C 0.7770(3) 0.5605(2) 1.0205(3)
C9 C 0.6669(3) 0.5368(1) 0.9706(3)
C10 C 0.5962(3) 0.5788(2) 0.8975(3)
H1 H 0.9397 0.2186 1.0171
H2 H 0.8828 0.2933 1.1580
H3 H 0.8168 0.4332 0.9019
H4 H 0.8713 0.3532 0.7683
H5 H 0.7585 0.7092 0.9004
H6 H 0.8869 0.6445 1.0276
H7 H 0.6406 0.4921 0.9869
H8 H 0.5193 0.5624 0.8636
S1E S 1.2010(1) 0.42786(5) 0.34627(8)
S2E S 1.11860(9) 0.51570(5) 0.38325(8)
N1E N 1.0888(3) 0.2791(1) 0.6197(3)
N2E N 1.3728(3) 0.6416(1) 0.6299(2)
C1E C 1.0863(4) 0.2631(2) 0.5060(4)
C2E C 1.1201(4) 0.3075(2) 0.4215(3)
C3E C 1.1556(3) 0.3717(2) 0.4545(3)
C4E C 1.1587(3) 0.3892(2) 0.5721(3)
C5E C 1.1255(3) 0.3418(2) 0.6498(3)
C6E C 1.2651(4) 0.6638(2) 0.5813(3)
C7E C 1.1889(3) 0.6256(2) 0.5063(3)
C8E C 1.2230(3) 0.5605(2) 0.4795(3)
C9E C 1.3331(3) 0.5368(1) 0.5294(3)
C10E C 1.4038(3) 0.5788(2) 0.6025(3)
H1E H 1.0603 0.2186 0.4829
H2E H 1.1172 0.2933 0.3420
H3E H 1.1832 0.4332 0.5981
H4E H 1.1287 0.3532 0.7317
H5E H 1.2415 0.7092 0.5996
H6E H 1.1131 0.6445 0.4724
H7E H 1.3594 0.4921 0.5131
H8E H 1.4807 0.5624 0.6364
N2B N 1.1272(3) 0.1416(1) 0.8701(2)
N2G N 0.8728(3) 0.1416(1) 0.6299(2)
Ag1B Ag 0.5000 0.70834(2) 0.7500
Ag1B_2 Ag 1.5000 0.70834(2) 0.7500
P1 P 0.5000 0.38390(6) 0.7500
F1 F 0.5478(2) 0.3848(1) 0.8859(2)
F2 F 0.5962(3) 0.4410(1) 0.7268(2)
F3 F 0.5956(3) 0.3276(1) 0.7262(2)
F1E F 0.4522(2) 0.3848(1) 0.6141(2)
F2E F 0.4038(3) 0.4410(1) 0.7732(2)
F3E F 0.4044(3) 0.3276(1) 0.7738(2)
loop_
_geom_bond_atom_site_label_1
_geom_bond_atom_site_label_2
_geom_bond_site_symmetry_1
_geom_bond_site_symmetry_2
Ag1 N1 1_555 1_555
S1 S2 1_555 1_555
S2 C8 1_555 1_555
P1 F1 1_555 1_555
F2 P1 1_555 1_555
F3 P1 1_555 1_555
N1 C1 1_555 1_555
N2 C6 1_555 1_555
C1 C2 1_555 1_555
C2 C3 1_555 1_555
C3 S1 1_555 1_555
C4 C3 1_555 1_555
C5 N1 1_555 1_555
C6 C7 1_555 1_555
C7 C8 1_555 1_555
C8 C9 1_555 1_555
C9 C10 1_555 1_555
C10 N2 1_555 1_555
H1 C1 1_555 1_555
H2 C2 1_555 1_555
H3 C4 1_555 1_555
H4 C5 1_555 1_555
H5 C6 1_555 1_555
H6 C7 1_555 1_555
H7 C9 1_555 1_555
H8 C10 1_555 1_555
F1E P1 1_555 1_555
F2E P1 1_555 1_555
F3E P1 1_555 1_555
S1E S2E 1_555 1_555
S2E C8E 1_555 1_555
N1E Ag1 1_555 1_555
N2E C6E 1_555 1_555
C1E N1E 1_555 1_555
C2E C1E 1_555 1_555
C3E S1E 1_555 1_555
C4E C3E 1_555 1_555
C5E N1E 1_555 1_555
C6E C7E 1_555 1_555
C7E C8E 1_555 1_555
C8E C9E 1_555 1_555
C9E C10E 1_555 1_555
C10E N2E 1_555 1_555
H1E C1E 1_555 1_555
H2E C2E 1_555 1_555
H3E C4E 1_555 1_555
H4E C5E 1_555 1_555
H5E C6E 1_555 1_555
H6E C7E 1_555 1_555
H7E C9E 1_555 1_555
H8E C10E 1_555 1_555
N2B Ag1 1_555 1_555
N2G Ag1 1_555 1_555
Ag1B N2 1_555 1_555
Ag1B_2 N2E 1_555 1_555
C4 C5 1_555 1_555
C2E C3E 1_555 1_555
C4E C5E 1_555 1_555

#END
