
#######################################################################
#
#                 Cambridge Crystallographic Data Centre
#                                CCDC 
#
#######################################################################
#
# If this CIF has been generated from an entry in the Cambridge 
# Structural Database, then it will include bibliographic, chemical, 
# crystal, experimental, refinement or atomic coordinate data resulting 
# from the CCDC's data processing and validation procedures.
#
#######################################################################

data_EDOHAG
_symmetry_cell_setting           monoclinic
_symmetry_space_group_name_H-M   'P 21/n'
_symmetry_Int_Tables_number      14
_space_group_name_Hall           '-P 2yn'
loop_
_symmetry_equiv_pos_site_id
_symmetry_equiv_pos_as_xyz
1 x,y,z
2 1/2+x,1/2-y,1/2+z
3 -x,-y,-z
4 1/2-x,1/2+y,1/2-z
_cell_length_a                   10.611(6)
_cell_length_b                   9.640(3)
_cell_length_c                   18.684(3)
_cell_angle_alpha                90
_cell_angle_beta                 94.06(2)
_cell_angle_gamma                90
_cell_volume                     1906.39
loop_
_atom_site_label
_atom_site_type_symbol
_atom_site_fract_x
_atom_site_fract_y
_atom_site_fract_z
Ag1 Ag 0.3998(1) 0.39996(10) 0.02339(5)
S1 S 0.6900(4) -0.1385(4) -0.1199(2)
S2 S 0.6004(4) -0.1990(3) -0.2114(2)
N1 N 0.4870(10) 0.2378(9) -0.0373(5)
N2 N 0.8192(9) -0.0142(8) -0.3910(5)
C1 C 0.438(1) 0.180(1) -0.0943(6)
C2 C 0.505(1) 0.065(1) -0.1283(6)
C3 C 0.609(1) 0.017(1) -0.0901(7)
C4 C 0.655(1) 0.073(1) -0.0334(8)
C5 C 0.593(1) 0.181(1) -0.0081(7)
C6 C 0.883(1) -0.059(1) -0.3313(7)
C7 C 0.827(2) -0.115(1) -0.2737(6)
C8 C 0.694(1) -0.122(1) -0.2778(6)
C9 C 0.628(1) -0.077(1) -0.3383(9)
C10 C 0.690(1) -0.026(1) -0.3927(7)
H1 H 0.3568 0.2150 -0.1160
H2 H 0.4786 0.0266 -0.1745
H3 H 0.7280 0.0355 -0.0078
H4 H 0.6260 0.2223 0.0374
H5 H 0.9725 -0.0464 -0.3271
H6 H 0.8732 -0.1496 -0.2326
H7 H 0.5384 -0.0838 -0.3400
H8 H 0.6427 0.0020 -0.4361
Ag1B Ag 0.6002(1) 0.60004(10) -0.02339(5)
N2A N 0.3192(9) 0.5142(8) 0.1090(5)
Ag1A Ag 0.8998(1) 0.10004(10) -0.47661(5)
S3 S -0.2189(3) 0.4844(3) 0.1175(2)
O1 O -0.189(1) 0.542(1) 0.1875(5)
O2 O -0.3537(9) 0.468(1) 0.1022(6)
O3 O -0.1577(9) 0.5566(9) 0.0622(5)
C11 C -0.1540(10) 0.313(1) 0.1239(5)
C12 C -0.073(1) 0.270(1) 0.0729(6)
C13 C -0.029(1) 0.134(1) 0.0759(7)
C14 C -0.064(1) 0.043(1) 0.1255(6)
C15 C -0.015(2) -0.100(1) 0.1304(9)
C16 C -0.146(2) 0.091(2) 0.1736(6)
C17 C -0.192(1) 0.219(2) 0.1731(5)
H9 H -0.0516 0.3339 0.0357
H10 H 0.0309 0.1061 0.0410
H11 H -0.0825 -0.1688 0.1258
H12 H 0.0414 -0.1196 0.0945
H13 H 0.0299 -0.1182 0.1768
H14 H -0.1757 0.0250 0.2088
H15 H -0.2532 0.2472 0.2068
loop_
_geom_bond_atom_site_label_1
_geom_bond_atom_site_label_2
_geom_bond_site_symmetry_1
_geom_bond_site_symmetry_2
Ag1 N1 1_555 1_555
S1 S2 1_555 1_555
S2 C8 1_555 1_555
S3 O1 1_555 1_555
O2 S3 1_555 1_555
O3 S3 1_555 1_555
N1 C1 1_555 1_555
N2 C6 1_555 1_555
C1 C2 1_555 1_555
C2 C3 1_555 1_555
C3 S1 1_555 1_555
C4 C3 1_555 1_555
C5 N1 1_555 1_555
C6 C7 1_555 1_555
C7 C8 1_555 1_555
C8 C9 1_555 1_555
C9 C10 1_555 1_555
C10 N2 1_555 1_555
C11 S3 1_555 1_555
C12 C11 1_555 1_555
C13 C12 1_555 1_555
C14 C13 1_555 1_555
C15 C14 1_555 1_555
C16 C14 1_555 1_555
C17 C11 1_555 1_555
H1 C1 1_555 1_555
H2 C2 1_555 1_555
H3 C4 1_555 1_555
H4 C5 1_555 1_555
H5 C6 1_555 1_555
H6 C7 1_555 1_555
H7 C9 1_555 1_555
H8 C10 1_555 1_555
H9 C12 1_555 1_555
H10 C13 1_555 1_555
H11 C15 1_555 1_555
H12 C15 1_555 1_555
H13 C15 1_555 1_555
H14 C16 1_555 1_555
H15 C17 1_555 1_555
Ag1B Ag1 1_555 1_555
N2A Ag1 1_555 1_555
Ag1A N2 1_555 1_555
C4 C5 1_555 1_555
C16 C17 1_555 1_555

#END
