
#######################################################################
#
#                 Cambridge Crystallographic Data Centre
#                                CCDC 
#
#######################################################################
#
# If this CIF has been generated from an entry in the Cambridge 
# Structural Database, then it will include bibliographic, chemical, 
# crystal, experimental, refinement or atomic coordinate data resulting 
# from the CCDC's data processing and validation procedures.
#
#######################################################################

data_EDOKIS
_symmetry_cell_setting           triclinic
_symmetry_space_group_name_H-M   'P -1'
_symmetry_Int_Tables_number      2
_space_group_name_Hall           '-P 1'
loop_
_symmetry_equiv_pos_site_id
_symmetry_equiv_pos_as_xyz
1 x,y,z
2 -x,-y,-z
_cell_length_a                   7.350(3)
_cell_length_b                   10.453(4)
_cell_length_c                   11.652(4)
_cell_angle_alpha                100.265(5)
_cell_angle_beta                 101.038(4)
_cell_angle_gamma                96.057(5)
_cell_volume                     855.509
loop_
_atom_site_label
_atom_site_type_symbol
_atom_site_fract_x
_atom_site_fract_y
_atom_site_fract_z
O5 O 0.511(5) -0.022(3) -0.035(2)
O6 O 0.457(5) -0.073(3) -0.126(4)
N2 N 0.109(4) 0.0908(17) 0.0905(15)
C8 C 0.186(3) 0.0105(16) 0.0183(15)
C9 C 0.109(4) 0.0908(17) 0.0905(15)
C10 C 0.387(8) 0.017(6) 0.037(7)
C11 C 0.082(4) -0.0843(17) -0.0770(17)
O5A O 0.489(5) 0.022(3) 0.035(2)
O6A O 0.543(5) 0.073(3) 0.126(4)
N2A N -0.109(4) -0.0908(17) -0.0905(15)
C8A C 0.814(3) -0.0105(16) -0.0183(15)
C8A_2 C -0.186(3) -0.0105(16) -0.0183(15)
C10A C 0.613(8) -0.017(6) -0.037(7)
C11A C -0.082(4) 0.0843(17) 0.0770(17)
Nd1 Nd 0.24274(6) 0.52743(5) 0.43165(4)
Ag1 Ag -0.21020(12) -0.25107(9) 0.21199(8)
O1 O 0.0399(8) 0.3713(6) 0.5032(6)
O2 O 0.4270(8) 0.3551(6) 0.4832(6)
O3 O 0.4395(10) 0.2357(7) 0.6250(6)
O4 O 0.4040(9) 0.4710(7) 0.2715(6)
N1 N -0.0111(11) -0.0751(8) 0.3056(8)
C1 C 0.1773(14) -0.0705(9) 0.3221(9)
H1 H 0.2258 -0.1433 0.2883
C2 C 0.2991(13) 0.0382(9) 0.3873(9)
H2 H 0.4274 0.0383 0.3949
C3 C 0.2334(12) 0.1490(9) 0.4424(8)
C4 C 0.0379(12) 0.1455(9) 0.4247(8)
C5 C -0.0760(14) 0.0307(9) 0.3554(9)
H3 H -0.2052 0.0284 0.3434
C6 C -0.0540(12) 0.2558(9) 0.4738(8)
C7 C 0.3751(12) 0.2557(9) 0.5260(8)
O7 O -0.2149(8) 0.2355(6) 0.4932(6)
O8 O 0.6924(9) 0.4374(6) 0.3502(6)
O9 O 1.0304(9) 0.3675(6) 0.2566(6)
N3 N 0.4591(11) 0.3207(8) -0.0686(7)
C12 C 0.4443(12) 0.3577(9) 0.0453(8)
C13 C 0.6336(13) 0.3295(10) -0.0910(8)
H4 H 0.3249 0.3535 0.0615
C14 C 0.5956(12) 0.4013(9) 0.1399(8)
C15 C 0.7748(12) 0.4073(9) 0.1163(8)
C16 C 0.5613(12) 0.4417(8) 0.2650(8)
C17 C 0.7899(14) 0.3706(9) -0.0004(9)
C18 C 0.9479(12) 0.4536(9) 0.2138(8)
H5 H 0.9078 0.3736 -0.0183
H6 H 0.6479 0.3077 -0.1693
O10 O 1.0098(9) 0.5759(6) 0.2480(6)
Nd1A Nd -0.24274(6) 0.47257(5) 0.56835(4)
Nd1A_2 Nd 0.75726(6) 0.47257(5) 0.56835(4)
Nd1_2 Nd 1.24274(6) 0.52743(5) 0.43165(4)
Ag1A Ag 0.21020(12) 0.25107(9) -0.21199(8)
Ag1_2 Ag 0.78980(12) 0.74893(9) 0.21199(8)
O1A O -0.0399(8) 0.6287(6) 0.4968(6)
O2A O 0.5730(8) 0.6449(6) 0.5168(6)
O7A O 0.2149(8) 0.7645(6) 0.5068(6)
O8A O 0.3076(9) 0.5626(6) 0.6498(6)
O9_2 O 0.0304(9) 0.3675(6) 0.2566(6)
N3A N -0.4591(11) -0.3207(8) 0.0686(7)
O10_2 O 0.0098(9) 0.5759(6) 0.2480(6)
O10_3 O 0.0098(9) -0.4241(6) 0.2480(6)
loop_
_geom_bond_atom_site_label_1
_geom_bond_atom_site_label_2
_geom_bond_site_symmetry_1
_geom_bond_site_symmetry_2
Nd1 O1 1_555 1_555
Ag1 N1 1_555 1_555
O1 C6 1_555 1_555
O2 Nd1 1_555 1_555
O3 C7 1_555 1_555
O4 Nd1 1_555 1_555
N1 C1 1_555 1_555
C1 H1 1_555 1_555
C2 C1 1_555 1_555
H2 C2 1_555 1_555
C3 C2 1_555 1_555
C4 C3 1_555 1_555
C5 N1 1_555 1_555
H3 C5 1_555 1_555
C6 C4 1_555 1_555
C7 O2 1_555 1_555
O5 O6 1_555 1_555
O6 C10A 1_555 1_555
N2 C8 1_555 1_555
C8 C9 1_555 1_555
C9 N2 1_555 1_555
C10 O5 1_555 1_555
C11 C8 1_555 1_555
O7 C6 1_555 1_555
O8 C16 1_555 1_555
O9 C18 1_555 1_555
N3 C12 1_555 1_555
C12 H4 1_555 1_555
C13 N3 1_555 1_555
C14 C12 1_555 1_555
C15 C14 1_555 1_555
C16 O4 1_555 1_555
C17 C13 1_555 1_555
C18 C15 1_555 1_555
H5 C17 1_555 1_555
H6 C13 1_555 1_555
O10 C18 1_555 1_555
Nd1A O1 1_555 1_555
Nd1A_2 O2 1_555 1_555
Nd1_2 O9 1_555 1_555
Ag1A N3 1_555 1_555
Ag1_2 O10 1_555 1_555
O1A Nd1 1_555 1_555
O2A Nd1 1_555 1_555
O5A O5 1_555 1_555
O6A C10 1_555 1_555
N2A C11 1_555 1_555
C8A C10A 1_555 1_555
C8A_2 N2A 1_555 1_555
C10A O5 1_555 1_555
C11A N2 1_555 1_555
O7A Nd1 1_555 1_555
O8A Nd1 1_555 1_555
O9_2 Nd1 1_555 1_555
N3A Ag1 1_555 1_555
O10_2 Nd1 1_555 1_555
O10_3 Ag1 1_555 1_555
C3 C7 1_555 1_555
C4 C5 1_555 1_555
C8 C10 1_555 1_555
C9 C11A 1_555 1_555
C10 O5A 1_555 1_555
O7 Nd1A 1_555 1_555
O8 Nd1A_2 1_555 1_555
C14 C16 1_555 1_555
C15 C17 1_555 1_555
O10 Nd1_2 1_555 1_555
Nd1A O1A 1_555 1_555
Nd1A_2 O2A 1_555 1_555
O5A O6A 1_555 1_555
O5A C10A 1_555 1_555
C8A_2 C11A 1_555 1_555

#END
