
#######################################################################
#
#                 Cambridge Crystallographic Data Centre
#                                CCDC 
#
#######################################################################
#
# If this CIF has been generated from an entry in the Cambridge 
# Structural Database, then it will include bibliographic, chemical, 
# crystal, experimental, refinement or atomic coordinate data resulting 
# from the CCDC's data processing and validation procedures.
#
#######################################################################

data_EDOKEO
_symmetry_cell_setting           triclinic
_symmetry_space_group_name_H-M   'P -1'
_symmetry_Int_Tables_number      2
_space_group_name_Hall           '-P 1'
loop_
_symmetry_equiv_pos_site_id
_symmetry_equiv_pos_as_xyz
1 x,y,z
2 -x,-y,-z
_cell_length_a                   7.2636(18)
_cell_length_b                   10.409(3)
_cell_length_c                   11.639(3)
_cell_angle_alpha                100.486(3)
_cell_angle_beta                 101.062(3)
_cell_angle_gamma                95.619(3)
_cell_volume                     841.131
loop_
_atom_site_label
_atom_site_type_symbol
_atom_site_fract_x
_atom_site_fract_y
_atom_site_fract_z
C13 C 0.811(3) 0.9886(12) -0.0182(11)
C14 C 0.885(4) 0.904(2) -0.0962(16)
C15 C 0.929(5) 1.0806(15) 0.0771(15)
N3 N 0.929(5) 1.0806(15) 0.0771(15)
O6 O 0.511(5) 0.9770(16) -0.0390(17)
O7 O 0.486(5) 0.929(3) -0.132(2)
C16 C 0.601(4) 0.982(8) -0.031(4)
C13A C 1.189(3) 1.0114(12) 0.0182(11)
C13A_2 C 0.189(3) 1.0114(12) 0.0182(11)
C14A C 1.115(4) 1.096(2) 0.0962(16)
C15A C 1.071(5) 0.9194(15) -0.0771(15)
O6A O 0.489(5) 1.0230(16) 0.0390(17)
O7A O 0.514(5) 1.071(3) 0.132(2)
C16A C 0.399(4) 1.018(8) 0.031(4)
Eu1 Eu -0.24305(3) 0.47472(2) -0.43321(2)
Ag1 Ag -0.79086(7) 0.25111(5) -0.21219(5)
O1 O 0.4371(6) 0.2374(4) -0.3719(4)
O2 O -0.3997(5) 0.5290(4) -0.2735(3)
O3 O 0.0386(5) 0.3738(3) -0.4945(3)
O4 O -1.0331(5) 0.6335(4) -0.2614(3)
O5 O -1.0137(5) 0.4252(4) -0.2511(3)
N1 N -0.0095(7) -0.0746(5) -0.6930(4)
N2 N -0.4583(7) 0.6785(5) 0.0667(4)
C1 C -0.7776(7) 0.5927(5) -0.1196(5)
C2 C -0.6350(8) 0.6702(6) 0.0885(5)
H1 H -0.6489 0.6935 0.1671
C3 C 0.1802(8) -0.0688(5) -0.6768(5)
H2 H 0.2299 -0.1416 -0.7114
C4 C -0.4429(8) 0.6426(5) -0.0471(5)
H3 H -0.3222 0.6470 -0.0632
C5 C 0.2340(7) 0.1496(5) -0.5573(5)
C6 C -0.0784(8) 0.0324(5) -0.6431(5)
H4 H -0.2090 0.0303 -0.6545
C7 C 0.3027(8) 0.0394(6) -0.6115(5)
H5 H 0.4326 0.0392 -0.6032
C8 C -0.9531(7) 0.5475(5) -0.2180(5)
C9 C 0.3763(7) 0.2577(5) -0.4718(5)
C10 C 0.0367(7) 0.1457(5) -0.5755(5)
C11 C -0.7953(8) 0.6289(6) -0.0009(5)
H6 H -0.9144 0.6251 0.0176
C12 C -0.5972(7) 0.5991(5) -0.1426(4)
O8 O -0.6934(5) 0.5635(4) -0.3521(3)
O9 O -0.2178(5) 0.2384(4) -0.5040(4)
O10 O 0.4303(5) 0.3578(3) -0.5135(3)
C17 C -0.0548(7) 0.2587(5) -0.5221(5)
C18 C -0.5610(7) 0.5603(5) -0.2673(4)
Eu1A Eu 0.24305(3) 0.52528(2) -0.56679(2)
Eu1_2 Eu -1.24305(3) 0.47472(2) -0.43321(2)
Eu1A_2 Eu -0.75695(3) 0.52528(2) -0.56679(2)
Eu1_3 Eu 0.75695(3) 0.47472(2) -0.43321(2)
Ag1A Ag -0.20914(7) -0.25111(5) -0.78781(5)
Ag1A_2 Ag -0.20914(7) 0.74889(5) 0.21219(5)
O3A O -0.0386(5) 0.6262(3) -0.5055(3)
O4_2 O -0.0331(5) 0.6335(4) -0.2614(3)
O5_2 O -0.0137(5) 0.4252(4) -0.2511(3)
N1A N -0.9905(7) 0.0746(5) -0.3070(4)
N2A N -0.5417(7) 0.3215(5) -0.0667(4)
O8A O -0.3066(5) 0.4365(4) -0.6479(3)
O10_2 O -0.5697(5) 0.3578(3) -0.5135(3)
O10A O -0.4303(5) 0.6422(3) -0.4865(3)
loop_
_geom_bond_atom_site_label_1
_geom_bond_atom_site_label_2
_geom_bond_site_symmetry_1
_geom_bond_site_symmetry_2
Eu1 O2 1_555 1_555
Ag1 O5 1_555 1_555
O1 C9 1_555 1_555
O2 C18 1_555 1_555
O3 Eu1 1_555 1_555
O4 C8 1_555 1_555
O5 C8 1_555 1_555
N1 C3 1_555 1_555
N2 C2 1_555 1_555
C1 C8 1_555 1_555
C2 H1 1_555 1_555
C3 H2 1_555 1_555
C4 N2 1_555 1_555
H3 C4 1_555 1_555
C5 C7 1_555 1_555
C6 N1 1_555 1_555
H4 C6 1_555 1_555
C7 C3 1_555 1_555
H5 C7 1_555 1_555
C9 C5 1_555 1_555
C10 C5 1_555 1_555
C11 C1 1_555 1_555
H6 C11 1_555 1_555
C12 C1 1_555 1_555
C13 C14 1_555 1_555
C14 C15A 1_555 1_555
C15 C13 1_555 1_555
N3 C13 1_555 1_555
O6 O7 1_555 1_555
O7 C16 1_555 1_555
C16 C13 1_555 1_555
O8 C18 1_555 1_555
O9 Eu1 1_555 1_555
O10 C9 1_555 1_555
C17 O3 1_555 1_555
C18 C12 1_555 1_555
Eu1A O3 1_555 1_555
Eu1_2 O4 1_555 1_555
Eu1A_2 O8 1_555 1_555
Eu1_3 O10 1_555 1_555
Ag1A N1 1_555 1_555
Ag1A_2 N2 1_555 1_555
O3A Eu1 1_555 1_555
O4_2 Eu1 1_555 1_555
O5_2 Eu1 1_555 1_555
N1A Ag1 1_555 1_555
N2A Ag1 1_555 1_555
C13A C14A 1_555 1_555
C13A_2 C16A 1_555 1_555
C14A C15 1_555 1_555
C15A C13A 1_555 1_555
O6A O6 1_555 1_555
O7A O6A 1_555 1_555
C16A O6 1_555 1_555
O8A Eu1 1_555 1_555
O10_2 Eu1 1_555 1_555
O10A Eu1 1_555 1_555
O5 Eu1_2 1_555 1_555
C2 C11 1_555 1_555
C4 C12 1_555 1_555
C6 C10 1_555 1_555
C10 C17 1_555 1_555
C15 N3 1_555 1_555
N3 C14A 1_555 1_555
O6 C16 1_555 1_555
C16 O6A 1_555 1_555
O9 C17 1_555 1_555
O10 Eu1A 1_555 1_555
Eu1A O3A 1_555 1_555
Eu1A_2 O10_2 1_555 1_555
Eu1A_2 O10A 1_555 1_555
O6A C16A 1_555 1_555
O7A C16A 1_555 1_555

#END
