
#######################################################################
#
#                 Cambridge Crystallographic Data Centre
#                                CCDC 
#
#######################################################################
#
# If this CIF has been generated from an entry in the Cambridge 
# Structural Database, then it will include bibliographic, chemical, 
# crystal, experimental, refinement or atomic coordinate data resulting 
# from the CCDC's data processing and validation procedures.
#
#######################################################################

data_EDOKAK
_symmetry_cell_setting           monoclinic
_symmetry_space_group_name_H-M   'P 21/n'
_symmetry_Int_Tables_number      14
_space_group_name_Hall           '-P 2yn'
loop_
_symmetry_equiv_pos_site_id
_symmetry_equiv_pos_as_xyz
1 x,y,z
2 1/2-x,1/2+y,1/2-z
3 -x,-y,-z
4 1/2+x,1/2-y,1/2+z
_cell_length_a                   7.2395(4)
_cell_length_b                   19.4035(14)
_cell_length_c                   7.3889(3)
_cell_angle_alpha                90
_cell_angle_beta                 91.844(5)
_cell_angle_gamma                90
_cell_volume                     1037.39
loop_
_atom_site_label
_atom_site_type_symbol
_atom_site_fract_x
_atom_site_fract_y
_atom_site_fract_z
C1 C 0.8031(10) 0.1778(3) 0.2342(7)
C2 C 0.9745(11) 0.1356(3) 0.1900(9)
C3 C 1.1469(10) 0.1780(3) 0.2374(7)
C4 C 0.9786(17) 0.0650(4) 0.2756(11)
C5 C 0.531(2) 0.0739(4) 0.6374(12)
H1 H 0.5590 0.0658 0.5174
C6 C 0.538(2) 0.0188(4) 0.7542(11)
H2 H 0.5699 -0.0247 0.7127
C7 C 0.4979(7) 0.0286(3) 0.9331(7)
C8 C 0.4667(10) 0.0951(3) 0.9830(9)
H3 H 0.4496 0.1058 1.1040
C9 C 0.4606(9) 0.1465(3) 0.8544(7)
H4 H 0.4362 0.1912 0.8925
Cu1 Cu 0.47499(7) 0.21292(3) 0.49562(8)
N1 N 0.4868(6) 0.1364(2) 0.6822(5)
O1 O 0.6989(6) 0.1569(2) 0.3556(5)
O2 O 0.7714(6) 0.2330(2) 0.1451(5)
O3 O 0.4765(8) 0.2843(2) 0.3041(5)
O4 O 1.2581(6) 0.1557(2) 0.3572(5)
O5 O 1.1719(6) 0.23349(19) 0.1510(5)
H5 H 0.563(11) 0.276(4) 0.252(11)
H6 H 0.398(10) 0.283(4) 0.259(10)
H7 H 1.057(15) 0.033(6) 0.218(15)
H8 H 0.865(9) 0.040(4) 0.235(9)
H9 H 0.981(8) 0.068(3) 0.409(11)
H10 H 0.970(10) 0.129(4) 0.077(11)
C1C C 0.3031(10) 0.3222(3) 0.7342(7)
C2C C 0.4745(11) 0.3644(3) 0.6900(9)
C3C C 0.6469(10) 0.3220(3) 0.7374(7)
C4C C 0.4786(17) 0.4350(4) 0.7756(11)
C5B C 0.469(2) -0.0739(4) 1.3626(12)
H1B H 0.4410 -0.0658 1.4826
C6B C 0.462(2) -0.0188(4) 1.2458(11)
H2B H 0.4301 0.0247 1.2873
C7B C 0.5021(7) -0.0286(3) 1.0669(7)
C8B C 0.5333(10) -0.0951(3) 1.0170(9)
H3B H 0.5504 -0.1058 0.8960
C9B C 0.5394(9) -0.1465(3) 1.1456(7)
H4B H 0.5638 -0.1912 1.1075
Cu1B Cu 0.52501(7) -0.21292(3) 1.50438(8)
Cu1C Cu 0.97499(7) 0.28708(3) -0.00438(8)
Cu1_2 Cu 1.47499(7) 0.21292(3) 0.49562(8)
Cu1C_2 Cu -0.02501(7) 0.28708(3) 0.99562(8)
Cu1C_3 Cu 0.97499(7) 0.28708(3) 0.99562(8)
N1B N 0.5132(6) -0.1364(2) 1.3178(5)
O1C O 0.1989(6) 0.3431(2) 0.8556(5)
O1B O 0.3011(6) -0.1569(2) 1.6444(5)
O2C O 0.2714(6) 0.2670(2) 0.6451(5)
O2A O 0.7286(6) -0.2670(2) 1.3549(5)
O3B O 0.5235(8) -0.2843(2) 1.6959(5)
O4C O 0.7581(6) 0.3443(2) 0.8572(5)
O4_2 O 0.2581(6) 0.1557(2) 0.3572(5)
O4B O 0.7419(6) -0.1557(2) 1.6428(5)
O5C O 0.6719(6) 0.26651(19) 0.6510(5)
O5A O 0.3281(6) -0.26651(19) 1.3490(5)
H5B H 0.437(11) -0.276(4) 1.748(11)
H6B H 0.602(10) -0.283(4) 1.741(10)
H7C H 0.557(15) 0.467(6) 0.718(15)
H8C H 0.365(9) 0.460(4) 0.735(9)
H9C H 0.481(8) 0.432(3) 0.909(11)
H10C H 0.470(10) 0.371(4) 0.577(11)
loop_
_geom_bond_atom_site_label_1
_geom_bond_atom_site_label_2
_geom_bond_site_symmetry_1
_geom_bond_site_symmetry_2
C1 C2 1_555 1_555
C2 C3 1_555 1_555
C3 O4 1_555 1_555
C4 C2 1_555 1_555
C5 H1 1_555 1_555
C6 C5 1_555 1_555
H2 C6 1_555 1_555
C7 C6 1_555 1_555
C8 C7 1_555 1_555
H3 C8 1_555 1_555
C9 C8 1_555 1_555
H4 C9 1_555 1_555
Cu1 N1 1_555 1_555
N1 C5 1_555 1_555
O1 C1 1_555 1_555
O2 C1 1_555 1_555
O3 Cu1 1_555 1_555
O4 Cu1_2 1_555 1_555
O5 C3 1_555 1_555
H5 O3 1_555 1_555
H6 O3 1_555 1_555
H7 C4 1_555 1_555
H8 C4 1_555 1_555
H9 C4 1_555 1_555
H10 C2 1_555 1_555
C1C C2C 1_555 1_555
C2C C3C 1_555 1_555
C3C O4C 1_555 1_555
C4C C2C 1_555 1_555
C5B H1B 1_555 1_555
C6B C5B 1_555 1_555
H2B C6B 1_555 1_555
C7B C7 1_555 1_555
C8B C7B 1_555 1_555
H3B C8B 1_555 1_555
C9B C8B 1_555 1_555
H4B C9B 1_555 1_555
Cu1B N1B 1_555 1_555
Cu1C O2 1_555 1_555
Cu1C_2 O1C 1_555 1_555
Cu1C_3 O4C 1_555 1_555
N1B C5B 1_555 1_555
O1C C1C 1_555 1_555
O1B Cu1B 1_555 1_555
O2C Cu1 1_555 1_555
O2A Cu1B 1_555 1_555
O3B Cu1B 1_555 1_555
O4_2 Cu1 1_555 1_555
O4B Cu1B 1_555 1_555
O5C Cu1 1_555 1_555
O5A Cu1B 1_555 1_555
H5B O3B 1_555 1_555
H6B O3B 1_555 1_555
H7C C4C 1_555 1_555
H8C C4C 1_555 1_555
H9C C4C 1_555 1_555
H10C C2C 1_555 1_555
C9 N1 1_555 1_555
Cu1 O1 1_555 1_555
O5 Cu1C 1_555 1_555
C1C O2C 1_555 1_555
C3C O5C 1_555 1_555
C6B C7B 1_555 1_555
C9B N1B 1_555 1_555

#END
