
#######################################################################
#
#                 Cambridge Crystallographic Data Centre
#                                CCDC 
#
#######################################################################
#
# If this CIF has been generated from an entry in the Cambridge 
# Structural Database, then it will include bibliographic, chemical, 
# crystal, experimental, refinement or atomic coordinate data resulting 
# from the CCDC's data processing and validation procedures.
#
#######################################################################

data_EDOREU
_symmetry_cell_setting           triclinic
_symmetry_space_group_name_H-M   'P -1'
_symmetry_Int_Tables_number      2
_space_group_name_Hall           '-P 1'
loop_
_symmetry_equiv_pos_site_id
_symmetry_equiv_pos_as_xyz
1 x,y,z
2 -x,-y,-z
_cell_length_a                   7.4488(2)
_cell_length_b                   9.2576(1)
_cell_length_c                   13.9332(4)
_cell_angle_alpha                71.992(2)
_cell_angle_beta                 89.745(2)
_cell_angle_gamma                73.640(2)
_cell_volume                     873.141
loop_
_atom_site_label
_atom_site_type_symbol
_atom_site_fract_x
_atom_site_fract_y
_atom_site_fract_z
Mo1 Mo 0.19658(12) 0.68816(10) 0.50206(6)
Mo2 Mo 0.37006(12) 0.00472(10) 0.60852(6)
Cu1 Cu 0.10258(17) 1.06988(13) 0.39908(9)
Cu2 Cu 0.30357(17) 0.33574(13) 0.42531(9)
O1 O 0.3453(10) -0.0538(8) 0.7350(5)
O3 O 0.1835(10) 0.8529(7) 0.3924(5)
O5 O 0.3509(9) 0.2090(7) 0.5710(5)
O7 O -0.1833(9) 1.0327(7) 0.4516(5)
O8 O 0.1948(9) 0.5298(7) 0.4598(5)
O9 O 0.4040(9) 0.6332(8) 0.5796(5)
O10 O -0.0025(9) 0.7244(7) 0.5742(5)
O11 O 0.4023(9) 1.1194(7) 0.4050(5)
N1 N 0.0265(12) 1.1652(9) 0.2514(6)
N2 N -0.2426(11) 1.5430(9) -0.2764(6)
C1 C -0.1436(14) 1.3835(11) -0.0670(7)
C2 C -0.0613(18) 1.3217(14) -0.1404(8)
H7 H 0.0284 1.2225 -0.1207
C3 C -0.1089(17) 1.4033(13) -0.2414(8)
H8 H -0.0453 1.3594 -0.2881
C4 C -0.3330(16) 1.6014(12) -0.2057(8)
H9 H -0.4308 1.6957 -0.2272
C5 C -0.2860(15) 1.5271(13) -0.1039(8)
H10 H -0.3504 1.5733 -0.0583
C6 C 0.1010(15) 1.0931(12) 0.1842(8)
H11 H 0.1912 0.9944 0.2080
C7 C -0.1034(15) 1.3044(13) 0.2156(8)
H12 H -0.1562 1.3564 0.2610
C8 C -0.1646(17) 1.3767(13) 0.1132(8)
H13 H -0.2581 1.4737 0.0920
C9 C 0.0492(17) 1.1596(12) 0.0810(8)
H14 H 0.1063 1.1065 0.0370
C10 C -0.0880(14) 1.3057(11) 0.0430(7)
O7A O 0.1833(9) -0.0327(7) 0.5484(5)
O11A O 0.5977(9) -0.1194(7) 0.5950(5)
O7A_2 O 0.1833(9) 0.9673(7) 0.5484(5)
O10A O 0.0025(9) 1.2756(7) 0.4258(5)
O9A O 0.5960(9) 0.3668(8) 0.4204(5)
O10A_2 O 0.0025(9) 0.2756(7) 0.4258(5)
O11_2 O 0.4023(9) 0.1194(7) 0.4050(5)
N2A N 0.2426(11) 0.4570(9) 0.2764(6)
Mo2A Mo -0.37006(12) 0.99528(10) 0.39148(6)
Cu1A Cu -0.10258(17) 0.93012(13) 0.60092(9)
Cu2A Cu 0.69643(17) 0.66426(13) 0.57469(9)
Cu2A_2 Cu -0.30357(17) 0.66426(13) 0.57469(9)
Mo2A_2 Mo 0.62994(12) 0.99528(10) 0.39148(6)
Cu2_2 Cu 0.30357(17) 1.33574(13) 0.42531(9)
Cu2A_3 Cu -0.30357(17) 1.66426(13) -0.42531(9)
O2 O 0.4579(18) 0.3310(13) 0.7235(8)
H1 H 0.4349 0.3583 0.7801
H2 H 0.3446 0.3366 0.6967
O4 O -0.6957(16) 0.9841(14) 0.9297(8)
H3 H -0.6111 1.0349 0.9008
H4 H -0.7112 0.9282 0.8887
O6 O 0.4338(19) 0.2407(12) 0.9298(8)
H5 H 0.4206 0.3265 0.8744
H6 H 0.4259 0.1612 0.9067
loop_
_geom_bond_atom_site_label_1
_geom_bond_atom_site_label_2
_geom_bond_site_symmetry_1
_geom_bond_site_symmetry_2
Mo1 O3 1_555 1_555
Mo2 O1 1_555 1_555
Cu1 O3 1_555 1_555
Cu2 O5 1_555 1_555
O2 H1 1_555 1_555
H2 O2 1_555 1_555
O4 H3 1_555 1_555
H4 O4 1_555 1_555
O5 Mo2 1_555 1_555
O6 H5 1_555 1_555
H6 O6 1_555 1_555
O7 Cu1 1_555 1_555
O8 Mo1 1_555 1_555
O9 Mo1 1_555 1_555
O10 Mo1 1_555 1_555
O11 Cu1 1_555 1_555
N1 Cu1 1_555 1_555
N2 C3 1_555 1_555
C1 C2 1_555 1_555
C2 H7 1_555 1_555
C3 C2 1_555 1_555
H8 C3 1_555 1_555
C4 N2 1_555 1_555
H9 C4 1_555 1_555
C5 C1 1_555 1_555
H10 C5 1_555 1_555
C6 N1 1_555 1_555
H11 C6 1_555 1_555
C7 N1 1_555 1_555
H12 C7 1_555 1_555
C8 C7 1_555 1_555
H13 C8 1_555 1_555
C9 C6 1_555 1_555
H14 C9 1_555 1_555
C10 C1 1_555 1_555
O7A Mo2 1_555 1_555
O11A Mo2 1_555 1_555
O7A_2 Cu1 1_555 1_555
O10A Cu1 1_555 1_555
O9A Cu2 1_555 1_555
O10A_2 Cu2 1_555 1_555
O11_2 Cu2 1_555 1_555
N2A Cu2 1_555 1_555
Mo2A O7 1_555 1_555
Cu1A O7 1_555 1_555
Cu2A O9 1_555 1_555
Cu2A_2 O10 1_555 1_555
Mo2A_2 O11 1_555 1_555
Cu2_2 O11 1_555 1_555
Cu2A_3 N2 1_555 1_555
Cu2 O8 1_555 1_555
O10 Cu1A 1_555 1_555
C4 C5 1_555 1_555
C8 C10 1_555 1_555
C9 C10 1_555 1_555
O7A_2 Cu1A 1_555 1_555
O10A Cu2_2 1_555 1_555

#END
