
#######################################################################
#
#                 Cambridge Crystallographic Data Centre
#                                CCDC 
#
#######################################################################
#
# If this CIF has been generated from an entry in the Cambridge 
# Structural Database, then it will include bibliographic, chemical, 
# crystal, experimental, refinement or atomic coordinate data resulting 
# from the CCDC's data processing and validation procedures.
#
#######################################################################

data_EDOREU01
_symmetry_cell_setting           triclinic
_symmetry_space_group_name_H-M   'P -1'
_symmetry_Int_Tables_number      2
_space_group_name_Hall           '-P 1'
loop_
_symmetry_equiv_pos_site_id
_symmetry_equiv_pos_as_xyz
1 x,y,z
2 -x,-y,-z
_cell_length_a                   7.4273(7)
_cell_length_b                   9.2314(8)
_cell_length_c                   13.8806(12)
_cell_angle_alpha                71.411(2)
_cell_angle_beta                 88.528(2)
_cell_angle_gamma                73.650(2)
_cell_volume                     863.435
loop_
_atom_site_label
_atom_site_type_symbol
_atom_site_fract_x
_atom_site_fract_y
_atom_site_fract_z
Mo1 Mo 0.19761(9) 0.68776(7) 0.00315(5)
Mo2 Mo -0.63321(9) 1.00237(7) 0.11011(5)
Cu1 Cu -0.10792(12) 0.92964(10) 0.10141(7)
Cu2 Cu 0.69375(13) 0.66437(10) 0.07346(7)
O1 O -0.4034(7) 0.8798(6) 0.0939(4)
O2 O 0.4017(7) 0.6313(6) 0.0823(4)
O3 O -0.6623(7) 0.9428(6) 0.2388(4)
O4 O 0.6500(7) 0.7898(6) -0.0732(4)
O5 O 0.1833(7) 0.9664(6) 0.0487(4)
O6 O -0.0062(7) 0.7243(6) 0.0744(4)
O7 O 0.1912(8) 0.8526(6) -0.1081(4)
O8 O 0.1952(7) 0.5278(6) -0.0374(4)
N1 N -0.0332(9) 0.8335(7) 0.2496(5)
N2 N 0.2465(9) 0.4579(7) 0.7773(5)
C1 C 0.3393(11) 0.4049(10) 0.7067(6)
H1 H 0.4404 0.3128 0.7275
C2 C 0.2919(12) 0.4816(10) 0.6022(6)
H2 H 0.3605 0.4394 0.5555
C3 C 0.1453(12) 0.6183(9) 0.5684(6)
C4 C 0.0512(13) 0.6775(10) 0.6440(6)
H3 H -0.0460 0.7725 0.6251
C5 C 0.1030(13) 0.5951(10) 0.7447(6)
H4 H 0.0371 0.6349 0.7932
C6 C -0.1028(12) 0.9110(10) 0.3167(6)
H5 H -0.1912 1.0107 0.2932
C7 C -0.0459(13) 0.8460(10) 0.4185(7)
H6 H -0.0967 0.9031 0.4620
C8 C 0.0949(10) 0.6891(9) 0.2866(6)
H7 H 0.1458 0.6349 0.2416
C9 C 0.1533(11) 0.6190(9) 0.3883(6)
H8 H 0.2392 0.5179 0.4105
C10 C 0.0859(11) 0.6968(9) 0.4584(6)
O4A O -0.6500(7) 1.2102(6) 0.0732(4)
O5_2 O -0.8167(7) 0.9664(6) 0.0487(4)
O5A O -0.1833(7) 1.0336(6) -0.0487(4)
O7A O -0.1912(8) 1.1474(6) 0.1081(4)
O1_2 O 0.5966(7) 0.8798(6) 0.0939(4)
O6_2 O 0.9938(7) 0.7243(6) 0.0744(4)
O8A O 0.8048(7) 0.4722(6) 0.0374(4)
N2A N 0.7535(9) 0.5421(7) 0.2227(5)
Cu2_2 Cu -0.30625(13) 0.66437(10) 0.07346(7)
Mo2A Mo 0.63321(9) 0.99763(7) -0.11011(5)
Mo2_2 Mo 0.36679(9) 1.00237(7) 0.11011(5)
Cu1A Cu 0.10792(12) 1.07036(10) -0.10141(7)
Cu2A Cu 0.30625(13) 0.33563(10) -0.07346(7)
Cu2A_2 Cu 0.30625(13) 0.33563(10) 0.92654(7)
O9 O 0.4423(12) 0.3276(8) 0.2272(5)
O10 O 0.4193(12) 0.2419(10) 0.4324(6)
O11 O 0.6918(14) 0.0175(12) 0.5706(8)
loop_
_geom_bond_atom_site_label_1
_geom_bond_atom_site_label_2
_geom_bond_site_symmetry_1
_geom_bond_site_symmetry_2
Mo1 O2 1_555 1_555
Mo2 O1 1_555 1_555
Cu1 O1 1_555 1_555
Cu2 O2 1_555 1_555
O1 Cu2_2 1_555 1_555
O3 Mo2 1_555 1_555
O4 Cu2 1_555 1_555
O5 Cu1 1_555 1_555
O6 Mo1 1_555 1_555
O7 Mo1 1_555 1_555
O8 Mo1 1_555 1_555
N1 Cu1 1_555 1_555
N2 C1 1_555 1_555
C1 H1 1_555 1_555
C2 C1 1_555 1_555
H2 C2 1_555 1_555
C3 C2 1_555 1_555
C4 C3 1_555 1_555
H3 C4 1_555 1_555
C5 N2 1_555 1_555
H4 C5 1_555 1_555
C6 N1 1_555 1_555
H5 C6 1_555 1_555
C7 C6 1_555 1_555
H6 C7 1_555 1_555
C8 N1 1_555 1_555
H7 C8 1_555 1_555
C9 C8 1_555 1_555
H8 C9 1_555 1_555
C10 C3 1_555 1_555
O4A Mo2 1_555 1_555
O5_2 Mo2 1_555 1_555
O5A Cu1 1_555 1_555
O7A Cu1 1_555 1_555
O1_2 Cu2 1_555 1_555
O6_2 Cu2 1_555 1_555
O8A Cu2 1_555 1_555
N2A Cu2 1_555 1_555
Cu2_2 O6 1_555 1_555
Mo2A O4 1_555 1_555
Mo2_2 O5 1_555 1_555
Cu1A O5 1_555 1_555
Cu2A O8 1_555 1_555
Cu2A_2 N2 1_555 1_555
Cu1 O6 1_555 1_555
O7 Cu1A 1_555 1_555
C4 C5 1_555 1_555
C7 C10 1_555 1_555
C9 C10 1_555 1_555
O5A Cu1A 1_555 1_555
O1_2 Mo2_2 1_555 1_555

#END
