
#######################################################################
#
#                 Cambridge Crystallographic Data Centre
#                                CCDC 
#
#######################################################################
#
# If this CIF has been generated from an entry in the Cambridge 
# Structural Database, then it will include bibliographic, chemical, 
# crystal, experimental, refinement or atomic coordinate data resulting 
# from the CCDC's data processing and validation procedures.
#
#######################################################################

data_EDOTUN
_symmetry_cell_setting           orthorhombic
_symmetry_space_group_name_H-M   'P m n a'
_symmetry_Int_Tables_number      53
_space_group_name_Hall           '-P 2ac 2'
loop_
_symmetry_equiv_pos_site_id
_symmetry_equiv_pos_as_xyz
1 x,y,z
2 1/2-x,-y,1/2+z
3 1/2-x,y,1/2-z
4 x,-y,-z
5 -x,-y,-z
6 1/2+x,y,1/2-z
7 1/2+x,-y,1/2+z
8 -x,y,z
_cell_length_a                   21.881(11)
_cell_length_b                   7.070(3)
_cell_length_c                   26.967(13)
_cell_angle_alpha                90
_cell_angle_beta                 90
_cell_angle_gamma                90
_cell_volume                     4171.76
loop_
_atom_site_label
_atom_site_type_symbol
_atom_site_fract_x
_atom_site_fract_y
_atom_site_fract_z
C1 C 0.3030(7) 0.854(3) 0.4123(6)
C2 C 0.3281(8) 0.795(3) 0.4625(5)
C3 C 0.3897(9) 0.790(5) 0.4708(7)
H1 H 0.4172 0.8174 0.4456
C4 C 0.4105(10) 0.742(6) 0.5184(7)
H2 H 0.4523 0.7424 0.5250
C5 C 0.3699(10) 0.695(5) 0.5555(7)
H3 H 0.3845 0.6537 0.5861
C6 C 0.3081(8) 0.708(3) 0.5475(5)
C7 C 0.2872(7) 0.750(2) 0.4997(6)
H4 H 0.2456 0.7468 0.4929
C8 C 0.2623(8) 0.669(3) 0.5886(6)
C9 C 0.1138(7) 0.787(4) 0.2526(7)
C10 C 0.0546(7) 0.754(3) 0.2262(5)
C11 C 0.0556(7) 0.684(3) 0.1776(6)
H5 H 0.0925 0.6617 0.1615
C12 C 0.0000 0.650(4) 0.1538(8)
H6 H 0.0000 0.6036 0.1215
C13 C 0.0000 0.792(3) 0.2491(8)
H7 H 0.0000 0.8448 0.2807
C14 C 0.3854(7) 1.262(2) 0.2556(5)
C15 C 0.4446(7) 1.308(2) 0.2307(5)
C16 C 0.4444(8) 1.390(3) 0.1832(6)
H8 H 0.4077 1.4140 0.1670
C17 C 0.5000 1.434(4) 0.1606(8)
H9 H 0.5000 1.4948 0.1299
C18 C 0.5000 1.268(4) 0.2542(8)
H10 H 0.5000 1.2145 0.2857
Co1 Co 0.18185(9) 0.8384(3) 0.34996(7)
Co2 Co 0.2500 0.7970(4) 0.2500
H11 H 0.200(6) 0.510(15) 0.297(6)
H12 H 0.221(9) 1.104(16) 0.293(7)
H13 H 0.252(4) 0.530(16) 0.324(5)
O1 O 0.2473(6) 0.843(2) 0.4050(4)
O2 O 0.3413(5) 0.930(2) 0.3834(4)
O3 O 0.2076(5) 0.6512(19) 0.5777(4)
O4 O 0.2835(6) 0.6629(17) 0.6333(4)
O5 O 0.1124(5) 0.8285(16) 0.2980(3)
O6 O 0.1625(5) 0.7758(19) 0.2270(4)
O7 O 0.3883(5) 1.183(2) 0.2971(4)
O8 O 0.3355(5) 1.3040(19) 0.2342(5)
O9 O 0.1341(6) 1.0713(19) 0.3826(4)
O10 O 0.1359(5) 0.6549(17) 0.3983(4)
O11 O 0.2238(5) 0.5931(16) 0.3092(4)
O12 O 0.2359(5) 1.0029(17) 0.3042(4)
Zn1 Zn 0.31415(8) 1.0970(3) 0.32952(6)
C1C C 0.3030(7) 1.146(3) 0.5877(6)
C2C C 0.3281(8) 1.205(3) 0.5375(5)
C3C C 0.3897(9) 1.210(5) 0.5292(7)
H1C H 0.4172 1.1826 0.5544
C4C C 0.4105(10) 1.258(6) 0.4816(7)
H2C H 0.4523 1.2576 0.4750
C5C C 0.3699(10) 1.305(5) 0.4445(7)
H3C H 0.3845 1.3463 0.4139
C6C C 0.3081(8) 1.292(3) 0.4525(5)
C7C C 0.2872(7) 1.250(2) 0.5003(6)
H4C H 0.2456 1.2532 0.5071
C8C C 0.2623(8) 1.331(3) 0.4114(6)
C9G C -0.1138(7) 0.787(4) 0.2526(7)
C10G C -0.0546(7) 0.754(3) 0.2262(5)
C11G C -0.0556(7) 0.684(3) 0.1776(6)
H5G H -0.0925 0.6617 0.1615
C14G C 0.6146(7) 1.262(2) 0.2556(5)
C15G C 0.5554(7) 1.308(2) 0.2307(5)
C16G C 0.5556(8) 1.390(3) 0.1832(6)
H8G H 0.5923 1.4140 0.1670
Co1G Co -0.18185(9) 0.8384(3) 0.34996(7)
Co1B Co 0.31815(9) 0.8384(3) 0.15004(7)
Co1C Co 0.18185(9) 1.1616(3) 0.65004(7)
Co2E Co -0.2500 0.7970(4) 0.2500
H11B H 0.300(6) 0.510(15) 0.203(6)
H11G H -0.200(6) 0.510(15) 0.297(6)
H12B H 0.279(9) 1.104(16) 0.207(7)
H12G H -0.221(9) 1.104(16) 0.293(7)
H13B H 0.248(4) 0.530(16) 0.176(5)
H13G H -0.252(4) 0.530(16) 0.324(5)
O1C O 0.2473(6) 1.157(2) 0.5950(4)
O1G O -0.2473(6) 0.843(2) 0.4050(4)
O2C O 0.3413(5) 1.070(2) 0.6166(4)
O2B O 0.1587(5) 0.930(2) 0.1166(4)
O3C O 0.2076(5) 1.3488(19) 0.4223(4)
O4C O 0.2835(6) 1.3371(17) 0.3667(4)
O4A O 0.2165(6) 1.3371(17) 0.1333(4)
O5G O -0.1124(5) 0.8285(16) 0.2980(3)
O6G O -0.1625(5) 0.7758(19) 0.2270(4)
O6B O 0.3375(5) 0.7758(19) 0.2730(4)
O7G O 0.6117(5) 1.183(2) 0.2971(4)
O7B O 0.1117(5) 1.183(2) 0.2029(4)
O8G O 0.6645(5) 1.3040(19) 0.2342(5)
O9G O -0.1341(6) 1.0713(19) 0.3826(4)
O10G O -0.1359(5) 0.6549(17) 0.3983(4)
O11B O 0.2762(5) 0.5931(16) 0.1908(4)
O11G O -0.2238(5) 0.5931(16) 0.3092(4)
O12B O 0.2641(5) 1.0029(17) 0.1958(4)
O12G O -0.2359(5) 1.0029(17) 0.3042(4)
Zn1B Zn 0.18585(8) 1.0970(3) 0.17048(6)
Zn1C Zn 0.31415(8) 0.9030(3) 0.67048(6)
Zn1G Zn 0.68585(8) 1.0970(3) 0.32952(6)
O13 O 0.3802(7) 0.795(3) 0.0025(6)
O14 O 0.0000 0.137(14) 0.115(2)
O15 O 0.0000 0.951(9) 0.3869(15)
O16 O 0.5000 0.671(9) 0.026(3)
O17 O 0.5000 0.760(11) -0.035(3)
loop_
_geom_bond_atom_site_label_1
_geom_bond_atom_site_label_2
_geom_bond_site_symmetry_1
_geom_bond_site_symmetry_2
C1 C2 1_555 1_555
C2 C3 1_555 1_555
C3 H1 1_555 1_555
C4 C3 1_555 1_555
H2 C4 1_555 1_555
C5 C4 1_555 1_555
H3 C5 1_555 1_555
C6 C5 1_555 1_555
C7 C2 1_555 1_555
H4 C7 1_555 1_555
C8 C6 1_555 1_555
C9 C10 1_555 1_555
C10 C11 1_555 1_555
C11 H5 1_555 1_555
C12 C11 1_555 1_555
H6 C12 1_555 1_555
C13 C10 1_555 1_555
H7 C13 1_555 1_555
C14 C15 1_555 1_555
C15 C16 1_555 1_555
C16 H8 1_555 1_555
C17 C16 1_555 1_555
H9 C17 1_555 1_555
C18 C15 1_555 1_555
H10 C18 1_555 1_555
Co1 O1 1_555 1_555
Co2 O6 1_555 1_555
H11 O11 1_555 1_555
H12 O12 1_555 1_555
H13 O11 1_555 1_555
O1 C1 1_555 1_555
O2 C1 1_555 1_555
O3 C8 1_555 1_555
O4 C8 1_555 1_555
O5 C9 1_555 1_555
O6 C9 1_555 1_555
O7 C14 1_555 1_555
O8 C14 1_555 1_555
O9 Co1 1_555 1_555
O10 Co1 1_555 1_555
O11 Co1 1_555 1_555
O12 Co1 1_555 1_555
Zn1 O2 1_555 1_555
C1C C2C 1_555 1_555
C2C C3C 1_555 1_555
C3C H1C 1_555 1_555
C4C C3C 1_555 1_555
H2C C4C 1_555 1_555
C5C C4C 1_555 1_555
H3C C5C 1_555 1_555
C6C C5C 1_555 1_555
C7C C2C 1_555 1_555
H4C C7C 1_555 1_555
C8C C6C 1_555 1_555
C9G C10G 1_555 1_555
C10G C13 1_555 1_555
C11G C12 1_555 1_555
H5G C11G 1_555 1_555
C14G C15G 1_555 1_555
C15G C18 1_555 1_555
C16G C17 1_555 1_555
H8G C16G 1_555 1_555
Co1G O1G 1_555 1_555
Co1B O11B 1_555 1_555
Co1C O1C 1_555 1_555
Co2E O6G 1_555 1_555
H11B O11B 1_555 1_555
H11G O11G 1_555 1_555
H12B O12B 1_555 1_555
H12G O12G 1_555 1_555
H13B O11B 1_555 1_555
H13G O11G 1_555 1_555
O1C C1C 1_555 1_555
O2C C1C 1_555 1_555
O2B Zn1B 1_555 1_555
O3C C8C 1_555 1_555
O4C Zn1 1_555 1_555
O4A Zn1B 1_555 1_555
O5G C9G 1_555 1_555
O6G C9G 1_555 1_555
O6B Co2 1_555 1_555
O7G C14G 1_555 1_555
O7B Zn1B 1_555 1_555
O8G C14G 1_555 1_555
O9G Co1G 1_555 1_555
O10G Co1G 1_555 1_555
O11B Co2 1_555 1_555
O11G Co1G 1_555 1_555
O12B Co2 1_555 1_555
O12G Co1G 1_555 1_555
Zn1B O12B 1_555 1_555
Zn1C O4 1_555 1_555
Zn1G O7G 1_555 1_555
C6 C7 1_555 1_555
Co1 O5 1_555 1_555
Co2 O11 1_555 1_555
Co2 O12 1_555 1_555
O7 Zn1 1_555 1_555
O12 Zn1 1_555 1_555
C6C C7C 1_555 1_555
C8C O4C 1_555 1_555
C10G C11G 1_555 1_555
C15G C16G 1_555 1_555
Co1G O5G 1_555 1_555
Co1B O12B 1_555 1_555
Co2E O11G 1_555 1_555
Co2E O12G 1_555 1_555
O2C Zn1C 1_555 1_555

#END
