
#######################################################################
#
#                 Cambridge Crystallographic Data Centre
#                                CCDC 
#
#######################################################################
#
# If this CIF has been generated from an entry in the Cambridge 
# Structural Database, then it will include bibliographic, chemical, 
# crystal, experimental, refinement or atomic coordinate data resulting 
# from the CCDC's data processing and validation procedures.
#
#######################################################################

data_EDOVAV
_symmetry_cell_setting           monoclinic
_symmetry_space_group_name_H-M   'P 21/c'
_symmetry_Int_Tables_number      14
_space_group_name_Hall           '-P 2ybc'
loop_
_symmetry_equiv_pos_site_id
_symmetry_equiv_pos_as_xyz
1 x,y,z
2 -x,1/2+y,1/2-z
3 -x,-y,-z
4 x,1/2-y,1/2+z
_cell_length_a                   11.791(2)
_cell_length_b                   23.168(5)
_cell_length_c                   25.506(5)
_cell_angle_alpha                90
_cell_angle_beta                 103.17(3)
_cell_angle_gamma                90
_cell_volume                     6784.31
loop_
_atom_site_label
_atom_site_type_symbol
_atom_site_fract_x
_atom_site_fract_y
_atom_site_fract_z
Nb1 Nb 0.22784(6) 0.30029(3) 0.50050(2)
Nb2 Nb 0.36741(6) 0.19751(3) 0.49213(3)
Nb3 Nb 0.21654(6) 0.17261(3) 0.38619(2)
Nb4 Nb 0.32962(6) 0.28539(3) 0.40703(2)
Nb5 Nb 0.07698(6) 0.27515(3) 0.39478(3)
Nb6 Nb 0.11443(6) 0.18723(3) 0.47976(3)
Mn1 Mn 0.21713(10) 0.41313(5) 0.68851(4)
Cl1 Cl 0.39902(17) 0.26638(8) 0.56767(7)
Cl2 Cl 0.35549(18) 0.36981(8) 0.46796(8)
Cl3 Cl 0.10124(18) 0.25418(9) 0.55315(8)
Cl4 Cl 0.05946(18) 0.35802(8) 0.45310(8)
Cl5 Cl 0.38364(19) 0.11390(8) 0.43366(8)
Cl6 Cl 0.26668(19) 0.13449(8) 0.54437(8)
Cl7 Cl 0.51895(17) 0.24800(9) 0.45775(8)
Cl8 Cl 0.04510(17) 0.20723(9) 0.31928(7)
Cl9 Cl 0.17811(18) 0.33903(8) 0.34271(8)
Cl10 Cl 0.09003(19) 0.10266(8) 0.41880(8)
Cl11 Cl 0.34466(17) 0.21834(8) 0.33445(7)
Cl12 Cl -0.07480(17) 0.22447(9) 0.42924(8)
C1 C 0.2294(7) 0.3693(3) 0.5642(3)
C2 C 0.5236(9) 0.1536(4) 0.5458(4)
C3 C 0.2111(7) 0.3922(3) 0.8180(3)
C4 C 0.4424(8) 0.3379(4) 0.3645(4)
C5 C -0.0825(8) 0.3155(4) 0.3401(4)
C6 C 0.0019(9) 0.1321(4) 0.5202(4)
C7 C -0.0164(7) 0.4592(3) 0.6506(3)
C8 C 0.4405(8) 0.3546(4) 0.7244(3)
H1 H 0.4833 0.3210 0.7342
C9 C -0.2589(8) 0.4482(4) 0.6161(3)
C10 C 0.1592(7) 0.2916(3) 0.6980(3)
H2 H 0.1600 0.2861 0.7358
H3 H 0.1148 0.2603 0.6778
C11 C 0.5035(7) 0.4084(3) 0.7333(3)
C12 C 0.6271(8) 0.4064(4) 0.7532(3)
H4 H 0.6631 0.3710 0.7630
C13 C -0.0881(7) 0.5075(3) 0.6371(3)
H5 H -0.0545 0.5440 0.6396
C14 C -0.1928(7) 0.3996(3) 0.6280(3)
H6 H -0.2281 0.3635 0.6246
C15 C -0.0699(7) 0.4042(3) 0.6456(3)
C16 C 0.2801(7) 0.2908(3) 0.6902(3)
H7 H 0.2799 0.2816 0.6531
H8 H 0.3256 0.2618 0.7132
C17 C -0.0067(7) 0.3521(3) 0.6617(3)
H9 H -0.0502 0.3183 0.6592
C18 C 0.4502(8) 0.4622(3) 0.7199(3)
C19 C 0.8711(9) 0.4057(5) 0.7818(5)
H10 H 0.9527 0.4133 0.7946
H11 H 0.8445 0.3814 0.8070
H12 H 0.8583 0.3866 0.7475
C20 C 0.6372(8) 0.5073(4) 0.7450(4)
H13 H 0.6815 0.5409 0.7495
C21 C -0.4363(8) 0.3942(5) 0.5997(4)
H14 H -0.5186 0.3991 0.5862
H15 H -0.4075 0.3663 0.5781
H16 H -0.4213 0.3811 0.6363
C22 C 0.6929(8) 0.4550(4) 0.7580(4)
C23 C -0.2068(8) 0.5024(4) 0.6202(4)
H17 H -0.2525 0.5352 0.6115
C24 C 0.5207(8) 0.5115(4) 0.7259(4)
H18 H 0.4870 0.5475 0.7167
O5 O 0.0976(4) 0.4673(2) 0.6683(2)
O6 O 0.3349(4) 0.4684(2) 0.70029(19)
O7 O -0.3790(5) 0.4480(3) 0.5974(3)
O8 O 0.8098(6) 0.4574(3) 0.7761(3)
N1 N 0.2268(6) 0.3999(3) 0.5984(3)
N2 N 0.5998(9) 0.1294(5) 0.5730(4)
N3 N 0.2110(6) 0.4162(3) 0.7796(3)
N4 N 0.5000(8) 0.3603(4) 0.3411(4)
N5 N -0.1629(9) 0.3320(4) 0.3116(4)
N6 N -0.0545(9) 0.1034(4) 0.5406(4)
N7 N 0.1043(6) 0.3472(2) 0.6794(2)
N8 N 0.3311(6) 0.3486(3) 0.7042(2)
Nb3C Nb 0.21654(6) 0.32739(3) 0.88619(2)
C3C C 0.2111(7) 0.1078(3) 0.3180(3)
C25 C 0.743(2) 0.2560(12) 0.6006(11)
O1 O 0.7994(19) 0.2430(9) 0.5673(9)
C26 C 0.631(4) 0.258(2) 0.280(2)
O2 O 0.650(3) 0.2264(13) 0.3248(13)
C27 C 0.360(3) 0.3461(12) 0.2208(12)
O4 O 0.454(3) 0.3530(13) 0.1865(12)
O9 O 0.165(2) 0.1306(12) 0.6672(11)
N9 N 0.7383(6) 0.4375(3) 0.4474(3)
C28 C 0.7627(10) 0.4315(5) 0.3933(4)
H19 H 0.6974 0.4136 0.3694
H20 H 0.8308 0.4081 0.3956
H21 H 0.7758 0.4690 0.3797
C29 C 0.7295(11) 0.3782(5) 0.4685(5)
H22 H 0.7098 0.3804 0.5030
H23 H 0.8028 0.3587 0.4723
H24 H 0.6701 0.3571 0.4439
C30 C 0.8377(10) 0.4693(5) 0.4824(5)
H25 H 0.8279 0.4700 0.5187
H26 H 0.8395 0.5082 0.4695
H27 H 0.9094 0.4503 0.4814
C31 C 0.6301(9) 0.4690(5) 0.4441(6)
H28 H 0.6192 0.4759 0.4797
H29 H 0.5661 0.4467 0.4241
H30 H 0.6337 0.5052 0.4263
N10 N -0.2999(7) 0.0405(3) 0.4290(3)
C32 C -0.3109(12) 0.0296(5) 0.4854(5)
H31 H -0.2441 0.0451 0.5102
H32 H -0.3155 -0.0112 0.4911
H33 H -0.3801 0.0480 0.4910
C33 C -0.3969(10) 0.0128(5) 0.3899(5)
H34 H -0.3992 0.0272 0.3544
H35 H -0.4692 0.0214 0.3996
H36 H -0.3853 -0.0282 0.3905
C34 C -0.3023(11) 0.1044(4) 0.4201(5)
H37 H -0.2953 0.1124 0.3841
H38 H -0.2386 0.1219 0.4453
H39 H -0.3745 0.1197 0.4254
C35 C -0.1875(9) 0.0162(5) 0.4224(5)
H40 H -0.1837 0.0186 0.3853
H41 H -0.1818 -0.0234 0.4336
H42 H -0.1243 0.0378 0.4441
N11 N -0.1378(12) 0.4228(4) 0.1896(4)
C36 C -0.0423(12) 0.4422(6) 0.2344(5)
H43 H 0.0242 0.4525 0.2205
H44 H -0.0217 0.4116 0.2602
H45 H -0.0675 0.4752 0.2514
C37 C -0.1230(13) 0.3642(6) 0.1777(6)
H46 H -0.0456 0.3584 0.1726
H47 H -0.1787 0.3538 0.1454
H48 H -0.1346 0.3406 0.2070
C38 C -0.1444(13) 0.4591(7) 0.1429(6)
H49 H -0.0688 0.4618 0.1350
H50 H -0.1704 0.4969 0.1501
H51 H -0.1983 0.4427 0.1126
C39 C -0.2530(14) 0.4296(7) 0.2108(7)
H52 H -0.3187 0.4182 0.1831
H53 H -0.2618 0.4692 0.2202
H54 H -0.2483 0.4057 0.2419
O3? O 0.572(4) 0.3045(18) 0.2525(17)
loop_
_geom_bond_atom_site_label_1
_geom_bond_atom_site_label_2
_geom_bond_site_symmetry_1
_geom_bond_site_symmetry_2
Nb1 Nb2 1_555 1_555
Nb2 Nb3 1_555 1_555
Nb3 Nb4 1_555 1_555
Nb4 Nb1 1_555 1_555
Nb5 Nb1 1_555 1_555
Nb6 Nb1 1_555 1_555
Mn1 O5 1_555 1_555
Cl1 Nb1 1_555 1_555
Cl2 Nb1 1_555 1_555
Cl3 Nb1 1_555 1_555
Cl4 Nb1 1_555 1_555
Cl5 Nb2 1_555 1_555
Cl6 Nb2 1_555 1_555
Cl7 Nb2 1_555 1_555
Cl8 Nb3 1_555 1_555
Cl9 Nb4 1_555 1_555
Cl10 Nb3 1_555 1_555
Cl11 Nb3 1_555 1_555
Cl12 Nb5 1_555 1_555
C1 Nb1 1_555 1_555
C2 Nb2 1_555 1_555
C3 N3 1_555 1_555
C4 Nb4 1_555 1_555
C5 Nb5 1_555 1_555
C6 Nb6 1_555 1_555
C7 C13 1_555 1_555
C8 H1 1_555 1_555
C9 C14 1_555 1_555
C10 H2 1_555 1_555
H3 C10 1_555 1_555
C11 C8 1_555 1_555
C12 C11 1_555 1_555
H4 C12 1_555 1_555
C13 H5 1_555 1_555
C14 H6 1_555 1_555
C15 C7 1_555 1_555
C16 C10 1_555 1_555
H7 C16 1_555 1_555
H8 C16 1_555 1_555
C17 C15 1_555 1_555
H9 C17 1_555 1_555
C18 C11 1_555 1_555
C19 H10 1_555 1_555
H11 C19 1_555 1_555
H12 C19 1_555 1_555
C20 H13 1_555 1_555
C21 H14 1_555 1_555
H15 C21 1_555 1_555
H16 C21 1_555 1_555
C22 C12 1_555 1_555
C23 C9 1_555 1_555
H17 C23 1_555 1_555
C24 C18 1_555 1_555
H18 C24 1_555 1_555
C25 O1 1_555 1_555
C26 O2 1_555 1_555
C27 O4 1_555 1_555
O5 C7 1_555 1_555
O6 Mn1 1_555 1_555
O7 C9 1_555 1_555
O8 C19 1_555 1_555
N1 Mn1 1_555 1_555
N2 C2 1_555 1_555
N3 Mn1 1_555 1_555
N4 C4 1_555 1_555
N5 C5 1_555 1_555
N6 C6 1_555 1_555
N7 Mn1 1_555 1_555
N8 Mn1 1_555 1_555
N9 C28 1_555 1_555
C28 H19 1_555 1_555
H20 C28 1_555 1_555
H21 C28 1_555 1_555
C29 N9 1_555 1_555
H22 C29 1_555 1_555
H23 C29 1_555 1_555
H24 C29 1_555 1_555
C30 N9 1_555 1_555
H25 C30 1_555 1_555
H26 C30 1_555 1_555
H27 C30 1_555 1_555
C31 N9 1_555 1_555
H28 C31 1_555 1_555
H29 C31 1_555 1_555
H30 C31 1_555 1_555
N10 C32 1_555 1_555
C32 H31 1_555 1_555
H32 C32 1_555 1_555
H33 C32 1_555 1_555
C33 N10 1_555 1_555
H34 C33 1_555 1_555
H35 C33 1_555 1_555
H36 C33 1_555 1_555
C34 N10 1_555 1_555
H37 C34 1_555 1_555
H38 C34 1_555 1_555
H39 C34 1_555 1_555
C35 N10 1_555 1_555
H40 C35 1_555 1_555
H41 C35 1_555 1_555
H42 C35 1_555 1_555
N11 C36 1_555 1_555
C36 H43 1_555 1_555
H44 C36 1_555 1_555
H45 C36 1_555 1_555
C37 N11 1_555 1_555
H46 C37 1_555 1_555
H47 C37 1_555 1_555
H48 C37 1_555 1_555
C38 N11 1_555 1_555
H49 C38 1_555 1_555
H50 C38 1_555 1_555
H51 C38 1_555 1_555
C39 N11 1_555 1_555
H52 C39 1_555 1_555
H53 C39 1_555 1_555
H54 C39 1_555 1_555
Nb3C C3 1_555 1_555
C3C Nb3 1_555 1_555
Nb2 Nb4 1_555 1_555
Nb2 Nb6 1_555 1_555
Nb2 Cl1 1_555 1_555
Nb3 Nb5 1_555 1_555
Nb3 Nb6 1_555 1_555
Nb3 Cl5 1_555 1_555
Nb4 Nb5 1_555 1_555
Nb4 Cl2 1_555 1_555
Nb4 Cl7 1_555 1_555
Nb4 Cl11 1_555 1_555
Nb5 Nb6 1_555 1_555
Nb5 Cl4 1_555 1_555
Nb5 Cl8 1_555 1_555
Nb5 Cl9 1_555 1_555
Nb6 Cl3 1_555 1_555
Nb6 Cl6 1_555 1_555
Nb6 Cl10 1_555 1_555
Nb6 Cl12 1_555 1_555
C1 N1 1_555 1_555
C8 N8 1_555 1_555
C10 N7 1_555 1_555
C13 C23 1_555 1_555
C14 C15 1_555 1_555
C16 N8 1_555 1_555
C17 N7 1_555 1_555
C18 O6 1_555 1_555
C20 C22 1_555 1_555
C20 C24 1_555 1_555
C21 O7 1_555 1_555
C22 O8 1_555 1_555

#END
