
#######################################################################
#
#                 Cambridge Crystallographic Data Centre
#                                CCDC 
#
#######################################################################
#
# If this CIF has been generated from an entry in the Cambridge 
# Structural Database, then it will include bibliographic, chemical, 
# crystal, experimental, refinement or atomic coordinate data resulting 
# from the CCDC's data processing and validation procedures.
#
#######################################################################

data_EDOVIE
_symmetry_cell_setting           trigonal
_symmetry_space_group_name_H-M   'P 31 2 1'
_symmetry_Int_Tables_number      152
_space_group_name_Hall           'P 31 2"'
loop_
_symmetry_equiv_pos_site_id
_symmetry_equiv_pos_as_xyz
1 x,y,z
2 -y,x-y,1/3+z
3 -x+y,-x,2/3+z
4 y,x,-z
5 x-y,-y,2/3-z
6 -x,-x+y,1/3-z
_cell_length_a                   18.036(3)
_cell_length_b                   18.036(3)
_cell_length_c                   21.362(4)
_cell_angle_alpha                90
_cell_angle_beta                 90
_cell_angle_gamma                120
_cell_volume                     6018.01
loop_
_atom_site_label
_atom_site_type_symbol
_atom_site_fract_x
_atom_site_fract_y
_atom_site_fract_z
Dy1 Dy 1.06530(2) 1.39876(2) 0.089630(14)
Dy2 Dy 0.83013(2) 1.22823(2) 0.087320(15)
Dy3 Dy 1.00000(3) 1.18676(3) 0.1667
Zn1 Zn 0.64778(6) 0.64778(6) 0.0000
C1 C 1.0165(5) 1.4121(5) -0.2016(3)
C2 C 1.0114(5) 1.4111(5) -0.1359(3)
H1 H 1.0501 1.4580 -0.1124
C3 C 0.9480(6) 1.3393(5) -0.1077(3)
C4 C 0.8943(6) 1.2696(6) -0.1433(3)
H2 H 0.8510 1.2200 -0.1249
C5 C 0.9064(6) 1.2753(6) -0.2080(3)
H3 H 0.8706 1.2278 -0.2322
C6 C 1.0830(5) 1.4887(5) -0.2365(3)
C7 C 1.1303(5) 1.5691(5) -0.2092(3)
H4 H 1.1227 1.5768 -0.1671
C8 C 1.1873(5) 1.6360(5) -0.2442(4)
C9 C 1.1983(5) 1.6246(6) -0.3087(3)
H5 H 1.2371 1.6696 -0.3337
C10 C 1.1485(5) 1.5432(6) -0.3321(3)
H6 H 1.1553 1.5344 -0.3741
C11 C 0.9402(6) 1.3359(5) -0.0366(3)
C12 C 1.2346(6) 1.7253(6) -0.2125(4)
C13 C 0.7874(5) 0.8313(5) 0.0141(3)
C14 C 0.8306(6) 0.9144(5) 0.0364(3)
H7 H 0.8901 0.9450 0.0357
C15 C 0.7866(5) 0.9526(5) 0.0596(3)
C16 C 0.6983(5) 0.9057(5) 0.0591(4)
H8 H 0.6659 0.9301 0.0715
C17 C 0.6595(5) 0.8213(6) 0.0399(4)
H9 H 0.6002 0.7891 0.0430
C18 C 0.8318(5) 1.0418(6) 0.0843(3)
N1 N 0.9662(4) 1.3446(4) -0.2369(2)
N2 N 1.0911(4) 1.4759(4) -0.2991(2)
N3 N 0.6999(4) 0.7824(4) 0.0174(3)
O1 O 0.8741(4) 1.2695(4) -0.0154(2)
O2 O 0.9924(4) 1.3915(4) -0.0052(2)
O3 O 1.2905(4) 1.7865(4) -0.2455(3)
O4 O 1.2145(4) 1.7290(4) -0.1589(2)
O5 O 0.7967(4) 1.0871(4) 0.0752(3)
O6 O 0.90280(18) 1.06535(19) 0.11125(12)
O7 O 0.97201(18) 1.25051(19) 0.08011(12)
H10 H 0.9764 1.2143 0.0549
O8 O 0.92634(18) 1.35820(19) 0.13315(12)
H11 H 0.8829 1.3709 0.1251
O9 O 1.1190(3) 1.3261(3) 0.1481(2)
H12 H 1.1517 1.3043 0.1544
O10 O 1.0691(4) 1.5322(4) 0.0836(3)
O11 O 1.1322(5) 1.3584(5) 0.0054(3)
O12 O 1.0801(5) 1.1591(4) 0.0855(3)
O13 O 0.6952(5) 1.1454(5) 0.0313(3)
O14 O 0.7772(4) 1.3271(4) 0.0545(3)
Dy1E Dy 0.93470(2) 1.33346(3) 0.243703(14)
Dy1B Dy 1.33346(3) 1.93470(2) -0.243703(14)
Dy1A Dy 1.60124(2) 1.66654(3) 0.422963(14)
Dy2C Dy 1.22823(2) 0.83013(2) -0.087320(15)
Dy2C_2 Dy 1.22823(2) 1.83013(2) -0.087320(15)
Dy2E Dy 1.16987(2) 1.39810(3) 0.246013(15)
Dy2A Dy 1.77177(2) 1.60190(3) 0.420653(15)
Dy3C Dy 1.18676(3) 1.00000(3) -0.1667
Zn1B Zn 1.00000(8) 1.35222(6) -0.3333
Zn1_2 Zn 1.64778(6) 1.64778(6) 0.0000
C1A C 1.5879(5) 1.6044(7) 0.1317(3)
C2A C 1.5889(5) 1.6003(7) 0.1974(3)
H1A H 1.5420 1.5921 0.2209
C3A C 1.6607(5) 1.6087(8) 0.2256(3)
C4A C 1.7304(6) 1.6247(8) 0.1900(3)
H2A H 1.7800 1.6310 0.2084
C5A C 1.7247(6) 1.6311(8) 0.1253(3)
H3A H 1.7722 1.6428 0.1011
C6A C 1.5113(5) 1.5943(7) 0.0968(3)
C7A C 1.4309(5) 1.5612(7) 0.1241(3)
H4A H 1.4232 1.5459 0.1662
C8A C 1.3640(5) 1.5513(7) 0.0891(4)
C9A C 1.3754(6) 1.5737(8) 0.0246(3)
H5A H 1.3304 1.5675 -0.0004
C10A C 1.4568(6) 1.6053(8) 0.0012(3)
H6A H 1.4656 1.6209 -0.0408
C11A C 1.6641(5) 1.6043(8) 0.2967(3)
C12A C 1.2747(6) 1.5093(8) 0.1208(4)
C13C C 0.8313(5) 0.7874(5) -0.0141(3)
C14C C 0.9144(5) 0.8306(6) -0.0364(3)
H7C H 0.9450 0.8901 -0.0357
C15C C 0.9526(5) 0.7866(5) -0.0596(3)
C16C C 0.9057(5) 0.6983(5) -0.0591(4)
H8C H 0.9301 0.6659 -0.0715
C17C C 0.8213(6) 0.6595(5) -0.0399(4)
H9C H 0.7891 0.6002 -0.0430
C18C C 1.0418(6) 0.8318(5) -0.0843(3)
N1A N 1.6554(4) 1.6216(6) 0.0964(2)
N1A_2 N 0.6554(4) 0.6216(6) 0.0964(2)
N1D N 0.6216(6) 0.6554(4) -0.0964(2)
N2A N 1.5241(4) 1.6152(6) 0.0342(2)
N2A_2 N 0.5241(4) 0.6152(6) 0.0342(2)
N2D N 0.6152(6) 0.5241(4) -0.0342(2)
N3C N 0.7824(4) 0.6999(4) -0.0174(3)
O1A O 1.7305(4) 1.6046(6) 0.3179(2)
O1C O 1.2695(4) 0.8741(4) 0.0154(2)
O2A O 1.6085(4) 1.6009(6) 0.3281(2)
O2E O 1.0076(4) 1.3991(6) 0.3385(2)
O3A O 1.2135(4) 1.5040(6) 0.0878(3)
O3C O 0.7865(4) 1.2905(4) 0.2455(3)
O4A O 1.2710(4) 1.4855(6) 0.1744(2)
O4C O 0.7290(4) 1.2145(4) 0.1589(2)
O4_2 O 1.2145(4) 0.7290(4) -0.1589(2)
O5C O 1.0871(4) 0.7967(4) -0.0752(3)
O6C O 1.06535(19) 0.90280(18) -0.11125(12)
O6E O 1.09720(18) 1.16255(26) 0.22208(12)
O7E O 1.02799(18) 1.27850(26) 0.25322(12)
O7C O 1.25051(19) 0.97201(18) -0.08011(12)
H10E H 1.0236 1.2379 0.2784
H10C H 1.2143 0.9764 -0.0549
O8E O 1.07366(18) 1.43186(26) 0.20018(12)
O8C O 1.35820(19) 0.92634(18) -0.13315(12)
H11E H 1.1171 1.4880 0.2082
H11C H 1.3709 0.8829 -0.1251
O9E O 0.8810(3) 1.2071(4) 0.1852(2)
O9B O 1.2071(4) 0.8810(3) -0.1852(2)
H12E H 0.8483 1.1526 0.1789
H12B H 1.1526 0.8483 -0.1789
O10E O 0.9309(4) 1.4631(6) 0.2497(3)
O11E O 0.8678(5) 1.2262(7) 0.3279(3)
O12E O 0.9199(5) 1.0790(6) 0.2478(3)
O13C O 1.1454(5) 0.6952(5) -0.0313(3)
O14C O 1.3271(4) 0.7772(4) -0.0545(3)
loop_
_geom_bond_atom_site_label_1
_geom_bond_atom_site_label_2
_geom_bond_site_symmetry_1
_geom_bond_site_symmetry_2
Dy1 O2 1_555 1_555
Dy2 O1 1_555 1_555
Dy3 O6 1_555 1_555
Zn1 N3 1_555 1_555
C1 C2 1_555 1_555
C2 H1 1_555 1_555
C3 C2 1_555 1_555
C4 C3 1_555 1_555
H2 C4 1_555 1_555
C5 C4 1_555 1_555
H3 C5 1_555 1_555
C6 C1 1_555 1_555
C7 C6 1_555 1_555
H4 C7 1_555 1_555
C8 C7 1_555 1_555
C9 C8 1_555 1_555
H5 C9 1_555 1_555
C10 C9 1_555 1_555
H6 C10 1_555 1_555
C11 C3 1_555 1_555
C12 C8 1_555 1_555
C13 C14 1_555 1_555
C14 H7 1_555 1_555
C15 C14 1_555 1_555
C16 C15 1_555 1_555
H8 C16 1_555 1_555
C17 C16 1_555 1_555
H9 C17 1_555 1_555
C18 C15 1_555 1_555
N1 C1 1_555 1_555
N2 C6 1_555 1_555
N3 C13 1_555 1_555
O1 C11 1_555 1_555
O2 C11 1_555 1_555
O3 C12 1_555 1_555
O4 C12 1_555 1_555
O5 Dy2 1_555 1_555
O6 C18 1_555 1_555
O7 Dy1 1_555 1_555
H10 O7 1_555 1_555
O8 Dy1 1_555 1_555
H11 O8 1_555 1_555
O9 Dy1 1_555 1_555
H12 O9 1_555 1_555
O10 Dy1 1_555 1_555
O11 Dy1 1_555 1_555
O12 Dy3 1_555 1_555
O13 Dy2 1_555 1_555
O14 Dy2 1_555 1_555
Dy1E O8 1_555 1_555
Dy1B O3 1_555 1_555
Dy1A O2A 1_555 1_555
Dy2C O1C 1_555 1_555
Dy2C_2 O4 1_555 1_555
Dy2E O9 1_555 1_555
Dy2A O1A 1_555 1_555
Dy3C O6C 1_555 1_555
Zn1B N1 1_555 1_555
Zn1_2 N1A 1_555 1_555
C1A C2A 1_555 1_555
C2A H1A 1_555 1_555
C3A C2A 1_555 1_555
C4A C3A 1_555 1_555
H2A C4A 1_555 1_555
C5A C4A 1_555 1_555
H3A C5A 1_555 1_555
C6A C1A 1_555 1_555
C7A C6A 1_555 1_555
H4A C7A 1_555 1_555
C8A C7A 1_555 1_555
C9A C8A 1_555 1_555
H5A C9A 1_555 1_555
C10A C9A 1_555 1_555
H6A C10A 1_555 1_555
C11A C3A 1_555 1_555
C12A C8A 1_555 1_555
C13C C13 1_555 1_555
C14C C13C 1_555 1_555
H7C C14C 1_555 1_555
C15C C14C 1_555 1_555
C16C C15C 1_555 1_555
H8C C16C 1_555 1_555
C17C C16C 1_555 1_555
H9C C17C 1_555 1_555
C18C C15C 1_555 1_555
N1A C1A 1_555 1_555
N1A_2 Zn1 1_555 1_555
N1D Zn1 1_555 1_555
N2A Zn1_2 1_555 1_555
N2A_2 Zn1 1_555 1_555
N2D Zn1 1_555 1_555
N3C Zn1 1_555 1_555
O1A C11A 1_555 1_555
O2A C11A 1_555 1_555
O2E Dy1E 1_555 1_555
O3A Dy1 1_555 1_555
O3C Dy1E 1_555 1_555
O4A Dy2E 1_555 1_555
O4C Dy2 1_555 1_555
O4_2 Dy2C 1_555 1_555
O5C Dy2C 1_555 1_555
O6C C18C 1_555 1_555
O6E Dy3 1_555 1_555
O7E Dy3 1_555 1_555
O7C Dy2C 1_555 1_555
H10E O7E 1_555 1_555
H10C O7C 1_555 1_555
O8E Dy1 1_555 1_555
O8C Dy2C 1_555 1_555
H11E O8E 1_555 1_555
H11C O8C 1_555 1_555
O9E Dy2 1_555 1_555
O9B Dy2C 1_555 1_555
H12E O9E 1_555 1_555
H12B O9B 1_555 1_555
O10E Dy1E 1_555 1_555
O11E Dy1E 1_555 1_555
O12E Dy3 1_555 1_555
O13C Dy2C 1_555 1_555
O14C Dy2C 1_555 1_555
Dy2 O7 1_555 1_555
Dy2 O8 1_555 1_555
Dy3 O7 1_555 1_555
Dy3 O9 1_555 1_555
Dy3 O9E 1_555 1_555
C5 N1 1_555 1_555
C10 N2 1_555 1_555
C17 N3 1_555 1_555
C18 O5 1_555 1_555
N2 Zn1B 1_555 1_555
Dy1E O7E 1_555 1_555
Dy1E O8E 1_555 1_555
Dy1E O9E 1_555 1_555
Dy2E O7E 1_555 1_555
Dy2E O8E 1_555 1_555
Dy3C O7C 1_555 1_555
Dy3C O9B 1_555 1_555
C5A N1A 1_555 1_555
C6A N2A 1_555 1_555
C10A N2A 1_555 1_555
C12A O3A 1_555 1_555
C12A O4A 1_555 1_555
C13C N3C 1_555 1_555
C17C N3C 1_555 1_555
C18C O5C 1_555 1_555

#END
