
#######################################################################
#
#                 Cambridge Crystallographic Data Centre
#                                CCDC 
#
#######################################################################
#
# If this CIF has been generated from an entry in the Cambridge 
# Structural Database, then it will include bibliographic, chemical, 
# crystal, experimental, refinement or atomic coordinate data resulting 
# from the CCDC's data processing and validation procedures.
#
#######################################################################

data_EDOVEA
_symmetry_cell_setting           trigonal
_symmetry_space_group_name_H-M   'P 31 2 1'
_symmetry_Int_Tables_number      152
_space_group_name_Hall           'P 31 2"'
loop_
_symmetry_equiv_pos_site_id
_symmetry_equiv_pos_as_xyz
1 x,y,z
2 -y,x-y,1/3+z
3 -x+y,-x,2/3+z
4 x-y,-y,2/3-z
5 -x,-x+y,1/3-z
6 y,x,-z
_cell_length_a                   17.9869(3)
_cell_length_b                   17.9869(3)
_cell_length_c                   21.3482(4)
_cell_angle_alpha                90
_cell_angle_beta                 90
_cell_angle_gamma                120
_cell_volume                     5981.42
loop_
_atom_site_label
_atom_site_type_symbol
_atom_site_fract_x
_atom_site_fract_y
_atom_site_fract_z
Gd1 Gd 1.17275(3) 0.77109(3) 0.08778(2)
Gd2 Gd 1.0000 0.81192(4) 0.1667
Gd3 Gd 1.06527(3) 0.66384(3) 0.24474(2)
Zn1 Zn 0.64894(8) 1.0000 0.3333
C1 C 0.8310(7) 0.7894(7) 0.2503(5)
C2 C 0.7861(7) 0.8347(7) 0.2746(5)
C3 C 0.8303(6) 0.9169(6) 0.2972(4)
H1 H 0.8900 0.9459 0.2975
C4 C 0.7875(6) 0.9573(5) 0.3194(4)
C5 C 0.6574(6) 0.8389(6) 0.2931(4)
H2 H 0.5981 0.8134 0.2903
C6 C 0.6951(7) 0.7929(6) 0.2736(5)
H3 H 0.6622 0.7364 0.2602
C7 C 0.7579(6) 0.2750(6) -0.2170(5)
C8 C 1.0634(6) 0.6639(6) -0.0384(4)
C9 C 1.0944(7) 0.7278(6) -0.2082(4)
H4 H 1.1290 0.7763 -0.2320
C10 C 1.1068(7) 0.7317(7) -0.1436(4)
H5 H 1.1508 0.7808 -0.1249
C11 C 1.0533(6) 0.6620(6) -0.1081(4)
C12 C 0.9901(6) 0.5886(6) -0.1375(4)
H6 H 0.9530 0.5404 -0.1142
C13 C 0.9834(5) 0.5885(5) -0.2019(4)
C14 C 0.9186(6) 0.5125(6) -0.2368(4)
C15 C 0.8661(6) 0.4293(6) -0.2102(5)
H7 H 0.8705 0.4205 -0.1677
C16 C 0.8111(6) 0.3642(7) -0.2458(5)
C17 C 0.8023(6) 0.3779(7) -0.3088(4)
H8 H 0.7633 0.3332 -0.3341
C18 C 0.8525(6) 0.4589(7) -0.3330(5)
H9 H 0.8454 0.4684 -0.3749
N1 N 0.7014(5) 0.9179(5) 0.3157(3)
N2 N 1.0344(4) 0.6569(4) -0.2374(3)
N3 N 0.9109(5) 0.5246(5) -0.2992(3)
O1 O 1.0801(2) 0.9217(2) 0.24662(16)
O2 O 1.1219(2) 0.7927(2) 0.18518(16)
H10 H 1.1554 0.8407 0.2102
O3 O 0.9684(2) 0.7172(2) 0.25351(16)
H11 H 0.9701 0.7473 0.2882
O4 O 0.9028(5) 0.8366(5) 0.2236(4)
O5 O 0.7962(3) 0.7098(3) 0.2584(2)
O6 O 1.0746(3) 0.6404(3) 0.1335(2)
H12 H 1.0807 0.6008 0.1227
O7 O 1.0711(4) 0.5325(4) 0.2501(3)
O8 O 1.1326(5) 0.7723(5) 0.3280(3)
O9 O 1.0087(4) 0.6055(4) -0.0067(3)
O10 O 1.1310(4) 0.7288(4) -0.0166(3)
O11 O 1.2255(4) 0.6699(4) 0.0556(3)
O12 O 1.3128(4) 0.8599(4) 0.0347(3)
O13 O 0.7778(4) 0.2713(5) -0.1601(3)
O14 O 0.7064(4) 0.2149(4) -0.2491(3)
Gd1D Gd 0.82725(3) 0.59834(4) 0.24555(2)
Gd1E Gd 0.77109(3) 0.17275(3) -0.08778(2)
Gd1A Gd 1.22891(3) 1.40166(4) 0.42111(2)
Gd1E_2 Gd 1.77109(3) 1.17275(3) -0.08778(2)
Gd2C Gd 1.18808(4) 1.18808(4) 0.5000
Gd3D Gd 0.93473(3) 0.59857(4) 0.08859(2)
Gd3E Gd 0.66384(3) 0.06527(3) -0.24474(2)
Gd3B Gd 1.59857(4) 0.93473(3) -0.08859(2)
Zn1E Zn 1.0000 0.64894(8) -0.3333
Zn1_2 Zn 1.64894(8) 1.0000 0.3333
C1C C 1.0416(10) 1.2106(7) 0.4164(5)
C2C C 0.9514(10) 1.1653(7) 0.3921(5)
C3C C 0.9134(8) 1.0831(6) 0.3695(4)
H1C H 0.9441 1.0541 0.3692
C4C C 0.8302(8) 1.0427(5) 0.3473(4)
C5C C 0.8185(8) 1.1611(6) 0.3736(4)
H2C H 0.7847 1.1866 0.3764
C6C C 0.9022(9) 1.2071(6) 0.3931(5)
H3C H 0.9258 1.2636 0.4065
C7E C 1.2750(6) 0.7579(6) 0.2170(5)
C8E C 1.6639(6) 1.0634(6) 0.0384(4)
C9E C 1.7278(6) 1.0944(7) 0.2082(4)
H4E H 1.7763 1.1290 0.2320
C10E C 1.7317(7) 1.1068(7) 0.1436(4)
H5E H 1.7808 1.1508 0.1249
C11E C 1.6620(6) 1.0533(6) 0.1081(4)
C12E C 1.5886(6) 0.9901(6) 0.1375(4)
H6E H 1.5404 0.9530 0.1142
C13E C 1.5885(5) 0.9834(5) 0.2019(4)
C14E C 1.5125(6) 0.9186(6) 0.2368(4)
C15E C 1.4293(6) 0.8661(6) 0.2102(5)
H7E H 1.4205 0.8705 0.1677
C16E C 1.3642(7) 0.8111(6) 0.2458(5)
C17E C 1.3779(7) 0.8023(6) 0.3088(4)
H8E H 1.3332 0.7633 0.3341
C18E C 1.4589(7) 0.8525(6) 0.3330(5)
H9E H 1.4684 0.8454 0.3749
N1C N 0.7835(7) 1.0821(5) 0.3510(3)
N2E N 1.6569(4) 1.0344(4) 0.2374(3)
N2E_2 N 0.6569(4) 1.0344(4) 0.2374(3)
N2B N 0.6225(6) 0.9656(4) 0.4293(3)
N3E N 1.5246(5) 0.9109(5) 0.2992(3)
N3E_2 N 0.5246(5) 0.9109(5) 0.2992(3)
N3B N 0.6137(7) 1.0891(5) 0.3675(3)
O1D O 0.9199(2) 0.8416(3) 0.08671(16)
O2D O 0.8781(2) 0.6708(3) 0.14815(16)
H10D H 0.8446 0.6853 0.1231
O3D O 1.0316(2) 0.7488(3) 0.07982(16)
H11D H 1.0299 0.7772 0.0451
O4C O 1.0662(7) 1.1634(5) 0.4431(4)
O4D O 1.0972(5) 0.9338(7) 0.1097(4)
O5C O 1.0864(4) 1.2902(3) 0.4083(2)
O5D O 1.2038(3) 0.9136(4) 0.0749(2)
O6D O 0.9254(3) 0.5658(4) 0.1998(2)
H12D H 0.9193 0.5201 0.2106
O7D O 0.9289(4) 0.4614(6) 0.0832(3)
O8D O 0.8674(5) 0.6397(7) 0.0053(3)
O9E O 1.6055(4) 1.0087(4) 0.0067(3)
O9D O 0.9913(4) 0.5968(6) 0.3400(3)
O10E O 1.7288(4) 1.1310(4) 0.0166(3)
O10D O 0.8690(4) 0.5978(6) 0.3499(3)
O11D O 0.7745(4) 0.4444(6) 0.2777(3)
O12D O 0.6872(4) 0.5471(6) 0.2986(3)
O13E O 1.2713(5) 0.7778(4) 0.1601(3)
O13A O 0.7287(5) 0.5065(6) 0.1732(3)
O14E O 1.2149(4) 0.7064(4) 0.2491(3)
O14A O 0.7851(4) 0.4915(6) 0.0842(3)
loop_
_geom_bond_atom_site_label_1
_geom_bond_atom_site_label_2
_geom_bond_site_symmetry_1
_geom_bond_site_symmetry_2
Gd1 O2 1_555 1_555
Gd2 O1 1_555 1_555
Gd3 O2 1_555 1_555
Zn1 N1 1_555 1_555
C1 C2 1_555 1_555
C2 C3 1_555 1_555
C3 H1 1_555 1_555
C4 C3 1_555 1_555
C5 H2 1_555 1_555
C6 C2 1_555 1_555
H3 C6 1_555 1_555
C7 C16 1_555 1_555
C8 C11 1_555 1_555
C9 H4 1_555 1_555
C10 C9 1_555 1_555
H5 C10 1_555 1_555
C11 C10 1_555 1_555
C12 C11 1_555 1_555
H6 C12 1_555 1_555
C13 C12 1_555 1_555
C14 C13 1_555 1_555
C15 C14 1_555 1_555
H7 C15 1_555 1_555
C16 C15 1_555 1_555
C17 C16 1_555 1_555
H8 C17 1_555 1_555
C18 C17 1_555 1_555
H9 C18 1_555 1_555
N1 C4 1_555 1_555
N2 C9 1_555 1_555
N3 C14 1_555 1_555
O2 Gd2 1_555 1_555
H10 O2 1_555 1_555
O3 Gd2 1_555 1_555
H11 O3 1_555 1_555
O4 Gd2 1_555 1_555
O5 C1 1_555 1_555
O6 Gd1 1_555 1_555
H12 O6 1_555 1_555
O7 Gd3 1_555 1_555
O8 Gd3 1_555 1_555
O9 C8 1_555 1_555
O10 Gd1 1_555 1_555
O11 Gd1 1_555 1_555
O12 Gd1 1_555 1_555
O13 C7 1_555 1_555
O14 C7 1_555 1_555
Gd1D O3 1_555 1_555
Gd1E O13 1_555 1_555
Gd1A O5C 1_555 1_555
Gd1E_2 O10E 1_555 1_555
Gd2C O4C 1_555 1_555
Gd3D O6 1_555 1_555
Gd3E O14 1_555 1_555
Gd3B O9E 1_555 1_555
Zn1E N2 1_555 1_555
Zn1_2 N2E 1_555 1_555
C1C C2C 1_555 1_555
C2C C3C 1_555 1_555
C3C H1C 1_555 1_555
C4C C4 1_555 1_555
C5C H2C 1_555 1_555
C6C C2C 1_555 1_555
H3C C6C 1_555 1_555
C7E C16E 1_555 1_555
C8E C11E 1_555 1_555
C9E H4E 1_555 1_555
C10E C9E 1_555 1_555
H5E C10E 1_555 1_555
C11E C10E 1_555 1_555
C12E C11E 1_555 1_555
H6E C12E 1_555 1_555
C13E C12E 1_555 1_555
C14E C13E 1_555 1_555
C15E C14E 1_555 1_555
H7E C15E 1_555 1_555
C16E C15E 1_555 1_555
C17E C16E 1_555 1_555
H8E C17E 1_555 1_555
C18E C17E 1_555 1_555
H9E C18E 1_555 1_555
N1C Zn1 1_555 1_555
N2E C9E 1_555 1_555
N2E_2 Zn1 1_555 1_555
N2B Zn1 1_555 1_555
N3E Zn1_2 1_555 1_555
N3E_2 Zn1 1_555 1_555
N3B Zn1 1_555 1_555
O1D Gd2 1_555 1_555
O2D Gd2 1_555 1_555
H10D O2D 1_555 1_555
O3D Gd1 1_555 1_555
H11D O3D 1_555 1_555
O4C C1C 1_555 1_555
O4D Gd2 1_555 1_555
O5C C1C 1_555 1_555
O5D Gd1 1_555 1_555
O6D Gd3 1_555 1_555
H12D O6D 1_555 1_555
O7D Gd3D 1_555 1_555
O8D Gd3D 1_555 1_555
O9E C8E 1_555 1_555
O9D Gd3 1_555 1_555
O10E C8E 1_555 1_555
O10D Gd1D 1_555 1_555
O11D Gd1D 1_555 1_555
O12D Gd1D 1_555 1_555
O13E Gd1 1_555 1_555
O13A Gd1D 1_555 1_555
O14E Gd3 1_555 1_555
O14A Gd3D 1_555 1_555
Gd2 O3D 1_555 1_555
Gd3 O3 1_555 1_555
Gd3 O6 1_555 1_555
C1 O4 1_555 1_555
C5 C6 1_555 1_555
C5 N1 1_555 1_555
C8 O10 1_555 1_555
C13 N2 1_555 1_555
C18 N3 1_555 1_555
N3 Zn1E 1_555 1_555
O5 Gd1D 1_555 1_555
O9 Gd3D 1_555 1_555
Gd1D O2D 1_555 1_555
Gd1D O6D 1_555 1_555
Gd3D O2D 1_555 1_555
Gd3D O3D 1_555 1_555
Gd3D O6D 1_555 1_555
C3C C4C 1_555 1_555
C4C N1C 1_555 1_555
C5C C6C 1_555 1_555
C5C N1C 1_555 1_555
C7E O13E 1_555 1_555
C7E O14E 1_555 1_555
C13E N2E 1_555 1_555
C14E N3E 1_555 1_555
C18E N3E 1_555 1_555

#END
