
#######################################################################
#
#                 Cambridge Crystallographic Data Centre
#                                CCDC 
#
#######################################################################
#
# If this CIF has been generated from an entry in the Cambridge 
# Structural Database, then it will include bibliographic, chemical, 
# crystal, experimental, refinement or atomic coordinate data resulting 
# from the CCDC's data processing and validation procedures.
#
#######################################################################

data_EDOVEZ
_symmetry_cell_setting           orthorhombic
_symmetry_space_group_name_H-M   'P b c a'
_symmetry_Int_Tables_number      61
_space_group_name_Hall           '-P 2ac 2ab'
loop_
_symmetry_equiv_pos_site_id
_symmetry_equiv_pos_as_xyz
1 x,y,z
2 1/2-x,-y,1/2+z
3 -x,1/2+y,1/2-z
4 1/2+x,1/2-y,-z
5 -x,-y,-z
6 1/2+x,y,1/2-z
7 x,1/2-y,1/2+z
8 1/2-x,1/2+y,z
_cell_length_a                   13.1663(17)
_cell_length_b                   23.426(3)
_cell_length_c                   23.615(3)
_cell_angle_alpha                90
_cell_angle_beta                 90
_cell_angle_gamma                90
_cell_volume                     7283.66
loop_
_atom_site_label
_atom_site_type_symbol
_atom_site_fract_x
_atom_site_fract_y
_atom_site_fract_z
Nb1 Nb 0.03697(4) 0.42842(2) 0.04705(2)
Nb2 Nb -0.07858(4) 0.44940(2) -0.05662(2)
Nb3 Nb -0.13180(4) 0.50991(2) 0.04773(2)
Mn1 Mn 0.19006(8) 0.22590(4) 0.13161(4)
Cl1 Cl -0.11082(12) 0.42677(7) 0.11093(7)
Cl2 Cl -0.04696(12) 0.35612(7) -0.01181(7)
Cl3 Cl -0.24674(12) 0.45394(7) -0.01206(7)
Cl4 Cl -0.19794(12) 0.59644(7) 0.00089(7)
Cl5 Cl 0.13479(12) 0.47535(7) 0.12313(7)
Cl6 Cl 0.06121(12) 0.42811(7) -0.12257(7)
O1 O 0.1527(3) 0.22038(19) 0.20841(19)
O2 O 0.0832(4) 0.1811(2) 0.1047(2)
N1 N 0.1012(4) 0.3088(3) 0.1219(3)
N2 N -0.2104(4) 0.3553(2) -0.1395(2)
N3 N -0.3421(5) 0.5184(3) 0.1326(3)
N5 N 0.3120(4) 0.2712(2) 0.1538(3)
N6 N 0.2434(4) 0.2382(2) 0.0526(3)
C1 C 0.0769(5) 0.3491(3) 0.0983(3)
C2 C -0.1648(5) 0.3906(3) -0.1163(3)
C3 C -0.2746(6) 0.5181(3) 0.1025(3)
C8 C 0.3407(6) 0.3086(3) 0.1069(3)
H13 H 0.4112 0.3222 0.1124
H14 H 0.2953 0.3423 0.1061
C9 C 0.3330(6) 0.2773(3) 0.0528(3)
H15 H 0.3958 0.2549 0.0467
H16 H 0.3266 0.3050 0.0213
C10 C 0.1044(6) 0.1454(4) -0.0459(3)
H17 H 0.1403 0.1557 -0.0793
C11 C 0.1862(6) 0.1844(3) 0.2981(3)
H18 H 0.1174 0.1725 0.3006
C12 C -0.0205(6) 0.0882(3) -0.0025(4)
H19 H -0.0696 0.0586 -0.0044
C13 C 0.3846(6) 0.2210(3) 0.2945(3)
H20 H 0.4527 0.2344 0.2939
C14 C 0.2515(6) 0.1727(3) 0.3424(3)
H21 H 0.2278 0.1521 0.3744
C15 C 0.3208(5) 0.2331(3) 0.2475(3)
C16 C 0.1279(6) 0.1747(3) 0.0047(3)
C17 C 0.0323(7) 0.1025(4) -0.0498(4)
H22 H 0.0201 0.0835 -0.0847
C18 C 0.2194(5) 0.2133(3) 0.2496(3)
C19 C 0.3524(6) 0.1911(3) 0.3401(4)
H23 H 0.3978 0.1827 0.3703
C20 C -0.0040(6) 0.1161(3) 0.0485(3)
H24 H -0.0438 0.1063 0.0807
C21 C 0.0709(5) 0.1587(3) 0.0532(3)
C22 C 0.3595(5) 0.2695(3) 0.2024(3)
C23 C 0.2100(6) 0.2158(3) 0.0062(3)
C24 C 0.4542(6) 0.3038(4) 0.2127(4)
H25 H 0.4547 0.3370 0.1875
H26 H 0.5139 0.2801 0.2051
H27 H 0.4555 0.3166 0.2522
C25 C 0.2604(7) 0.2315(4) -0.0495(3)
H28 H 0.3061 0.2640 -0.0436
H29 H 0.2082 0.2418 -0.0773
H30 H 0.2994 0.1988 -0.0636
Nb1D Nb -0.03697(4) 0.57158(2) -0.04705(2)
Nb2D Nb 0.07858(4) 0.55060(2) 0.05662(2)
Nb3D Nb 0.13180(4) 0.49009(2) -0.04773(2)
Mn1C Mn -0.30994(8) 0.27410(4) -0.13161(4)
Cl4D Cl 0.19794(12) 0.40356(7) -0.00089(7)
Cl5D Cl -0.13479(12) 0.52465(7) -0.12313(7)
Cl6D Cl -0.06121(12) 0.57189(7) 0.12257(7)
N2C N 0.2896(4) 0.1447(2) 0.1395(2)
N4 N -0.4116(4) 0.4684(2) -0.2095(2)
C4 C -0.4653(7) 0.5172(3) -0.2373(4)
H1 H -0.4258 0.5522 -0.2321
H2 H -0.5326 0.5219 -0.2202
H3 H -0.4728 0.5093 -0.2779
C5 C -0.3952(6) 0.4803(4) -0.1483(3)
H4 H -0.3493 0.5130 -0.1442
H5 H -0.3651 0.4467 -0.1302
H6 H -0.4604 0.4891 -0.1304
C6 C -0.3111(6) 0.4592(4) -0.2375(3)
H7 H -0.2720 0.4948 -0.2368
H8 H -0.3218 0.4473 -0.2769
H9 H -0.2737 0.4293 -0.2173
C7 C -0.4745(6) 0.4158(3) -0.2161(3)
H10 H -0.5379 0.4202 -0.1948
H11 H -0.4369 0.3829 -0.2016
H12 H -0.4901 0.4099 -0.2562
C26 C 0.2067(11) 0.3740(6) 0.2767(7)
O3 O 0.1428(15) 0.3981(8) 0.3177(9)
O4? O 0.2364(14) 0.3887(8) 0.2202(9)
loop_
_geom_bond_atom_site_label_1
_geom_bond_atom_site_label_2
_geom_bond_site_symmetry_1
_geom_bond_site_symmetry_2
Nb1 Nb2 1_555 1_555
Nb2 Nb3 1_555 1_555
Nb3 Nb1 1_555 1_555
Mn1 O1 1_555 1_555
Cl1 Nb1 1_555 1_555
Cl2 Nb1 1_555 1_555
Cl3 Nb2 1_555 1_555
Cl4 Nb3 1_555 1_555
Cl5 Nb1 1_555 1_555
Cl6 Nb2 1_555 1_555
O1 C18 1_555 1_555
O2 Mn1 1_555 1_555
N1 Mn1 1_555 1_555
N2 C2 1_555 1_555
N3 C3 1_555 1_555
N4 C4 1_555 1_555
N5 Mn1 1_555 1_555
N6 Mn1 1_555 1_555
C1 Nb1 1_555 1_555
C2 Nb2 1_555 1_555
C3 Nb3 1_555 1_555
C4 H1 1_555 1_555
H2 C4 1_555 1_555
H3 C4 1_555 1_555
C5 N4 1_555 1_555
H4 C5 1_555 1_555
H5 C5 1_555 1_555
H6 C5 1_555 1_555
C6 N4 1_555 1_555
H7 C6 1_555 1_555
H8 C6 1_555 1_555
H9 C6 1_555 1_555
C7 N4 1_555 1_555
H10 C7 1_555 1_555
H11 C7 1_555 1_555
H12 C7 1_555 1_555
C8 N5 1_555 1_555
H13 C8 1_555 1_555
H14 C8 1_555 1_555
C9 N6 1_555 1_555
H15 C9 1_555 1_555
H16 C9 1_555 1_555
C10 H17 1_555 1_555
C11 H18 1_555 1_555
C12 H19 1_555 1_555
C13 H20 1_555 1_555
C14 C11 1_555 1_555
H21 C14 1_555 1_555
C15 C13 1_555 1_555
C16 C10 1_555 1_555
C17 C10 1_555 1_555
H22 C17 1_555 1_555
C18 C11 1_555 1_555
C19 C13 1_555 1_555
H23 C19 1_555 1_555
C20 C12 1_555 1_555
H24 C20 1_555 1_555
C21 O2 1_555 1_555
C22 N5 1_555 1_555
C23 N6 1_555 1_555
C24 C22 1_555 1_555
H25 C24 1_555 1_555
H26 C24 1_555 1_555
H27 C24 1_555 1_555
C25 C23 1_555 1_555
H28 C25 1_555 1_555
H29 C25 1_555 1_555
H30 C25 1_555 1_555
C26 O3 1_555 1_555
Nb1D Nb2 1_555 1_555
Nb2D Nb1 1_555 1_555
Nb3D Nb1 1_555 1_555
Mn1C N2 1_555 1_555
Cl4D Nb1 1_555 1_555
Cl5D Nb2 1_555 1_555
Cl6D Nb3 1_555 1_555
N2C Mn1 1_555 1_555
Nb2 Cl2 1_555 1_555
Nb2 Nb3D 1_555 1_555
Nb3 Cl1 1_555 1_555
Nb3 Cl3 1_555 1_555
Nb3 Nb1D 1_555 1_555
Nb3 Nb2D 1_555 1_555
Cl4 Nb1D 1_555 1_555
Cl5 Nb2D 1_555 1_555
Cl6 Nb3D 1_555 1_555
N1 C1 1_555 1_555
C8 C9 1_555 1_555
C12 C17 1_555 1_555
C14 C19 1_555 1_555
C15 C18 1_555 1_555
C15 C22 1_555 1_555
C16 C21 1_555 1_555
C16 C23 1_555 1_555
C20 C21 1_555 1_555
Nb1D Nb2D 1_555 1_555
Nb1D Nb3D 1_555 1_555
Nb1D Cl5D 1_555 1_555
Nb2D Nb3D 1_555 1_555
Nb2D Cl6D 1_555 1_555
Nb3D Cl4D 1_555 1_555

#END
