
#######################################################################
#
#                 Cambridge Crystallographic Data Centre
#                                CCDC 
#
#######################################################################
#
# If this CIF has been generated from an entry in the Cambridge 
# Structural Database, then it will include bibliographic, chemical, 
# crystal, experimental, refinement or atomic coordinate data resulting 
# from the CCDC's data processing and validation procedures.
#
#######################################################################

data_EDOWUR
_symmetry_cell_setting           monoclinic
_symmetry_space_group_name_H-M   'P 21/c'
_symmetry_Int_Tables_number      14
_space_group_name_Hall           '-P 2ybc'
loop_
_symmetry_equiv_pos_site_id
_symmetry_equiv_pos_as_xyz
1 x,y,z
2 -x,1/2+y,1/2-z
3 -x,-y,-z
4 x,1/2-y,1/2+z
_cell_length_a                   9.7250(11)
_cell_length_b                   11.3956(13)
_cell_length_c                   19.296(2)
_cell_angle_alpha                90
_cell_angle_beta                 103.109(2)
_cell_angle_gamma                90
_cell_volume                     2082.7
loop_
_atom_site_label
_atom_site_type_symbol
_atom_site_fract_x
_atom_site_fract_y
_atom_site_fract_z
C1 C 1.3426(2) 0.48546(18) 0.68601(11)
H1 H 1.4358 0.4878 0.6816
C2 C 1.1479(2) 0.42156(18) 0.71347(10)
C3 C 1.1260(2) 0.53227(18) 0.68112(10)
C4 C 1.0404(2) 0.36045(18) 0.73494(11)
H2 H 1.0562 0.2867 0.7559
C5 C 0.9938(2) 0.58516(18) 0.66973(10)
H3 H 0.9779 0.6581 0.6478
C6 C 0.8856(2) 0.52623(18) 0.69192(10)
C7 C 0.9086(2) 0.41394(18) 0.72378(10)
C8 C 0.7474(2) 0.59071(19) 0.68525(11)
C9 C 0.7931(2) 0.34525(17) 0.74648(11)
C10 C 1.0432(2) 0.6841(2) 0.50646(12)
H4 H 1.0391 0.6120 0.5285
C11 C 0.9388(3) 0.7105(3) 0.44561(13)
H5 H 0.8667 0.6573 0.4283
C12 C 0.9437(3) 0.8156(3) 0.41175(13)
H6 H 0.8746 0.8346 0.3715
C13 C 1.0545(3) 0.8945(2) 0.43849(12)
C14 C 1.1541(2) 0.8620(2) 0.50049(11)
C15 C 1.0694(3) 1.0065(3) 0.40662(13)
H7 H 1.0032 1.0290 0.3660
C16 C 1.2671(2) 0.9407(2) 0.53097(11)
C17 C 1.1763(3) 1.0794(3) 0.43389(14)
H8 H 1.1840 1.1504 0.4113
C18 C 1.2792(3) 1.0495(2) 0.49759(13)
C19 C 1.3919(3) 1.1230(2) 0.53034(15)
H9 H 1.4036 1.1958 0.5106
C20 C 1.4835(3) 1.0876(2) 0.59082(15)
H10 H 1.5584 1.1354 0.6125
C21 C 1.4637(3) 0.9778(2) 0.62018(13)
H11 H 1.5269 0.9545 0.6616
N1 N 1.28761(18) 0.39420(15) 0.71539(9)
H12 H 1.3311 0.3310 0.7321
N2 N 1.25154(17) 0.57083(15) 0.66427(9)
N3 N 1.14805(19) 0.75700(17) 0.53420(9)
N4 N 1.35904(19) 0.90575(16) 0.59153(9)
O1 O 0.71519(16) 0.66394(16) 0.63497(9)
O2 O 0.67695(16) 0.57174(14) 0.73083(8)
O3 O 0.68891(16) 0.31022(14) 0.69976(8)
O4 O 0.81500(15) 0.32296(12) 0.81218(7)
O5 O 1.48766(15) 0.74220(13) 0.72173(8)
H13 H 1.4385 0.7496 0.7528
H14 H 1.5411 0.6824 0.7277
O6 O 1.44440(16) 0.65584(16) 0.57697(8)
H15 H 1.5323 0.6657 0.5961
H16 H 1.4266 0.6556 0.5327
Co1 Co 1.30844(3) 0.73795(2) 0.629920(14)
O4A O 1.18500(15) 0.82296(12) 0.68782(7)
Co1A Co 0.69156(3) 0.23795(2) 0.870080(14)
O7 O 0.5829(3) 0.1182(2) 1.06327(10)
H17 H 0.6403 0.1383 1.1027
H18 H 0.5210 0.0701 1.0688
O8 O 1.2843(5) 0.0672(3) 1.0004(2)
H19 H 1.3167 0.0004 0.9924
H20 H 1.2609 0.1116 0.9637
loop_
_geom_bond_atom_site_label_1
_geom_bond_atom_site_label_2
_geom_bond_site_symmetry_1
_geom_bond_site_symmetry_2
C1 H1 1_555 1_555
C2 C3 1_555 1_555
C3 C5 1_555 1_555
C4 C2 1_555 1_555
H2 C4 1_555 1_555
C5 H3 1_555 1_555
C6 C5 1_555 1_555
C7 C4 1_555 1_555
C8 C6 1_555 1_555
C9 C7 1_555 1_555
C10 H4 1_555 1_555
C11 C10 1_555 1_555
H5 C11 1_555 1_555
C12 C11 1_555 1_555
H6 C12 1_555 1_555
C13 C12 1_555 1_555
C14 C13 1_555 1_555
C15 C13 1_555 1_555
H7 C15 1_555 1_555
C16 C14 1_555 1_555
C17 C15 1_555 1_555
H8 C17 1_555 1_555
C18 C16 1_555 1_555
C19 C18 1_555 1_555
H9 C19 1_555 1_555
C20 C19 1_555 1_555
H10 C20 1_555 1_555
C21 C20 1_555 1_555
H11 C21 1_555 1_555
N1 C1 1_555 1_555
H12 N1 1_555 1_555
N2 C1 1_555 1_555
N3 C10 1_555 1_555
N4 C16 1_555 1_555
O1 C8 1_555 1_555
O2 C8 1_555 1_555
O3 C9 1_555 1_555
O4 C9 1_555 1_555
O5 H13 1_555 1_555
H14 O5 1_555 1_555
O6 H15 1_555 1_555
H16 O6 1_555 1_555
O7 H17 1_555 1_555
H18 O7 1_555 1_555
O8 H19 1_555 1_555
H20 O8 1_555 1_555
Co1 N2 1_555 1_555
O4A Co1 1_555 1_555
Co1A O4 1_555 1_555
C2 N1 1_555 1_555
C3 N2 1_555 1_555
C6 C7 1_555 1_555
C14 N3 1_555 1_555
C17 C18 1_555 1_555
C21 N4 1_555 1_555
N3 Co1 1_555 1_555
N4 Co1 1_555 1_555
O5 Co1 1_555 1_555
O6 Co1 1_555 1_555

#END
