
#######################################################################
#
#                 Cambridge Crystallographic Data Centre
#                                CCDC 
#
#######################################################################
#
# If this CIF has been generated from an entry in the Cambridge 
# Structural Database, then it will include bibliographic, chemical, 
# crystal, experimental, refinement or atomic coordinate data resulting 
# from the CCDC's data processing and validation procedures.
#
#######################################################################

data_EDTASN
_symmetry_cell_setting           triclinic
_symmetry_space_group_name_H-M   'P 1'
_symmetry_Int_Tables_number      1
_space_group_name_Hall           'P 1'
loop_
_symmetry_equiv_pos_site_id
_symmetry_equiv_pos_as_xyz
1 x,y,z
_cell_length_a                   7.732(3)
_cell_length_b                   8.110(3)
_cell_length_c                   6.599(3)
_cell_angle_alpha                94.15(5)
_cell_angle_beta                 87.80(2)
_cell_angle_gamma                107.97(2)
_cell_volume                     392.526
loop_
_atom_site_label
_atom_site_type_symbol
_atom_site_fract_x
_atom_site_fract_y
_atom_site_fract_z
C1 C 0.66100 0.11600 0.40100
C2 C 0.73500 0.30400 0.35200
C3 C 0.45300 -0.08100 0.62800
C4 C 0.80800 0.61000 0.49200
C5 C 0.30200 -0.10800 0.78700
C6 C 0.81800 0.72200 0.68800
C7 C 0.32600 0.07100 0.39300
C8 C 0.94000 0.40900 0.63500
C9 C 0.30200 0.24100 0.36100
C10 C 0.90000 0.27000 0.78800
N1 N 0.48600 0.08500 0.53000
N2 N 0.77600 0.42200 0.54000
O1 O 0.26600 0.03000 0.85700
O2 O 0.73000 0.65400 0.83600
O3 O 0.26600 -0.25200 0.83700
O4 O 0.90700 0.87800 0.68400
O5 O 0.37400 0.37200 0.48300
O6 O 0.74700 0.20900 0.86200
O7 O 0.20000 0.25000 0.23000
O8 O 1.04100 0.22800 0.83500
Sn1 Sn 0.00000 0.00000 1.00000
Sn2 Sn 0.51230 0.33460 0.76990
Sn1_2 Sn 1.00000 1.00000 1.00000
Sn1_3 Sn 0.00000 0.00000 0.00000
Sn1_4 Sn 1.00000 0.00000 1.00000
O4_2 O -0.09300 -0.12200 0.68400
O7_2 O 0.20000 0.25000 1.23000
O8_2 O 0.04100 0.22800 0.83500
O9 O 0.17400 0.59100 0.20700
O10 O 0.55100 0.74600 0.16200
loop_
_geom_bond_atom_site_label_1
_geom_bond_atom_site_label_2
_geom_bond_site_symmetry_1
_geom_bond_site_symmetry_2
C1 C2 1_555 1_555
C2 N2 1_555 1_555
C3 C5 1_555 1_555
C4 C6 1_555 1_555
C5 O1 1_555 1_555
C6 O2 1_555 1_555
C7 C9 1_555 1_555
C8 C10 1_555 1_555
C9 O5 1_555 1_555
C10 O6 1_555 1_555
N1 C1 1_555 1_555
N2 C4 1_555 1_555
O1 Sn1 1_555 1_555
O3 C5 1_555 1_555
O4 C6 1_555 1_555
O5 Sn2 1_555 1_555
O6 Sn2 1_555 1_555
O7 C9 1_555 1_555
O8 C10 1_555 1_555
Sn1 O4_2 1_555 1_555
Sn2 N1 1_555 1_555
Sn1_2 O4 1_555 1_555
Sn1_3 O7 1_555 1_555
Sn1_4 O8 1_555 1_555
O7_2 Sn1 1_555 1_555
O8_2 Sn1 1_555 1_555
C3 N1 1_555 1_555
C7 N1 1_555 1_555
C8 N2 1_555 1_555
N2 Sn2 1_555 1_555

#END
