
#######################################################################
#
#                 Cambridge Crystallographic Data Centre
#                                CCDC 
#
#######################################################################
#
# If this CIF has been generated from an entry in the Cambridge 
# Structural Database, then it will include bibliographic, chemical, 
# crystal, experimental, refinement or atomic coordinate data resulting 
# from the CCDC's data processing and validation procedures.
#
#######################################################################

data_EDUBEM
_symmetry_cell_setting           triclinic
_symmetry_space_group_name_H-M   'P -1'
_symmetry_Int_Tables_number      2
_space_group_name_Hall           '-P 1'
loop_
_symmetry_equiv_pos_site_id
_symmetry_equiv_pos_as_xyz
1 x,y,z
2 -x,-y,-z
_cell_length_a                   8.5815(17)
_cell_length_b                   9.2928(19)
_cell_length_c                   12.753(3)
_cell_angle_alpha                69.99(3)
_cell_angle_beta                 87.63(3)
_cell_angle_gamma                65.85(3)
_cell_volume                     866.182
loop_
_atom_site_label
_atom_site_type_symbol
_atom_site_fract_x
_atom_site_fract_y
_atom_site_fract_z
Zn1 Zn 1.02440(3) 0.08858(3) 0.301753(18)
O1 O 0.8000(2) 0.15494(19) 0.36940(13)
O2 O 0.7541(3) 0.4185(2) 0.26829(18)
O3 O 0.44358(18) 0.53732(17) 0.35155(12)
O4 O 0.1984(2) 0.84783(19) 0.33670(14)
O5 O 0.0295(2) 0.7310(2) 0.43028(18)
N1 N 0.9017(2) 0.1152(2) 0.15016(15)
N2 N 1.1346(2) 0.2204(2) 0.18046(15)
C1 C 0.7097(3) 0.3148(3) 0.33458(17)
C2 C 0.5420(3) 0.3677(2) 0.38022(17)
C3 C 0.4610(3) 0.2801(3) 0.4468(2)
H1 H 0.5014 0.1632 0.4773
C4 C 0.3028(3) 0.3994(3) 0.4615(2)
H2 H 0.2189 0.3765 0.5034
C5 C 0.2977(3) 0.5523(3) 0.40305(17)
C6 C 0.1649(3) 0.7242(3) 0.38908(18)
C7 C 0.7801(3) 0.0635(3) 0.1426(2)
H3 H 0.7456 0.0075 0.2082
C8 C 0.7031(4) 0.0910(4) 0.0391(3)
H4 H 0.6182 0.0545 0.0354
C9 C 0.7551(4) 0.1728(4) -0.0565(2)
H5 H 0.7053 0.1926 -0.1263
C10 C 0.8824(4) 0.2266(3) -0.0497(2)
H6 H 0.9190 0.2821 -0.1143
C11 C 0.9536(3) 0.1952(3) 0.05628(18)
C12 C 1.0886(3) 0.2478(3) 0.07396(18)
C13 C 1.1640(3) 0.3239(3) -0.0142(2)
H7 H 1.1321 0.3414 -0.0878
C14 C 1.2854(4) 0.3726(3) 0.0090(2)
H8 H 1.3368 0.4232 -0.0489
C15 C 1.3307(4) 0.3460(3) 0.1186(2)
H9 H 1.4113 0.3799 0.1359
C16 C 1.2541(3) 0.2686(3) 0.2017(2)
H10 H 1.2862 0.2485 0.2759
O6 O 1.1508(2) 0.1017(2) 0.43471(13)
H11 H 1.079(3) 0.175(3) 0.462(2)
H12 H 1.189(3) 0.005(2) 0.4890(18)
Zn1_2 Zn 0.02440(3) 1.08858(3) 0.301753(18)
O4_2 O 1.1984(2) -0.15217(19) 0.33670(14)
O7 O 0.8859(7) 0.6378(6) 0.2753(2)
H13 H 0.872(8) 0.543(5) 0.291(4)
H14 H 0.919(8) 0.632(7) 0.342(3)
O8 O 0.5178(5) 0.8678(5) 0.2312(3)
H15 H 0.456(5) 0.842(6) 0.285(3)
H16 H 0.612(4) 0.777(5) 0.240(4)
loop_
_geom_bond_atom_site_label_1
_geom_bond_atom_site_label_2
_geom_bond_site_symmetry_1
_geom_bond_site_symmetry_2
Zn1 O1 1_555 1_555
O1 C1 1_555 1_555
O2 C1 1_555 1_555
O3 C2 1_555 1_555
O4 C6 1_555 1_555
O5 C6 1_555 1_555
N1 Zn1 1_555 1_555
N2 Zn1 1_555 1_555
C1 C2 1_555 1_555
C2 C3 1_555 1_555
C3 H1 1_555 1_555
C4 C3 1_555 1_555
H2 C4 1_555 1_555
C5 O3 1_555 1_555
C6 C5 1_555 1_555
C7 N1 1_555 1_555
H3 C7 1_555 1_555
C8 C7 1_555 1_555
H4 C8 1_555 1_555
C9 C8 1_555 1_555
H5 C9 1_555 1_555
C10 C9 1_555 1_555
H6 C10 1_555 1_555
C11 N1 1_555 1_555
C12 N2 1_555 1_555
C13 C12 1_555 1_555
H7 C13 1_555 1_555
C14 C13 1_555 1_555
H8 C14 1_555 1_555
C15 C14 1_555 1_555
H9 C15 1_555 1_555
C16 N2 1_555 1_555
H10 C16 1_555 1_555
O6 Zn1 1_555 1_555
H11 O6 1_555 1_555
H12 O6 1_555 1_555
O7 H13 1_555 1_555
H14 O7 1_555 1_555
O8 H15 1_555 1_555
H16 O8 1_555 1_555
Zn1_2 O4 1_555 1_555
O4_2 Zn1 1_555 1_555
C4 C5 1_555 1_555
C10 C11 1_555 1_555
C11 C12 1_555 1_555
C15 C16 1_555 1_555

#END
