
#######################################################################
#
#                 Cambridge Crystallographic Data Centre
#                                CCDC 
#
#######################################################################
#
# If this CIF has been generated from an entry in the Cambridge 
# Structural Database, then it will include bibliographic, chemical, 
# crystal, experimental, refinement or atomic coordinate data resulting 
# from the CCDC's data processing and validation procedures.
#
#######################################################################

data_EDUDAK
_symmetry_cell_setting           monoclinic
_symmetry_space_group_name_H-M   'P 21/n'
_symmetry_Int_Tables_number      14
_space_group_name_Hall           '-P 2yn'
loop_
_symmetry_equiv_pos_site_id
_symmetry_equiv_pos_as_xyz
1 x,y,z
2 1/2-x,1/2+y,1/2-z
3 -x,-y,-z
4 1/2+x,1/2-y,1/2+z
_cell_length_a                   7.7053(15)
_cell_length_b                   11.432(2)
_cell_length_c                   11.916(2)
_cell_angle_alpha                90
_cell_angle_beta                 92.16(3)
_cell_angle_gamma                90
_cell_volume                     1048.9
loop_
_atom_site_label
_atom_site_type_symbol
_atom_site_fract_x
_atom_site_fract_y
_atom_site_fract_z
Ca1 Ca 0.03092(6) 0.05117(4) 0.65920(3)
O1 O 0.0060(2) 0.12495(14) 0.46120(13)
O2 O 0.0320(3) 0.27178(16) 0.33877(13)
N1 N 0.1313(3) 0.26241(16) 0.63011(14)
C1 C 0.1190(3) 0.30679(18) 0.52650(17)
C2 C 0.1834(3) 0.41685(18) 0.50185(18)
H1 H 0.1705 0.4487 0.4302
C3 C 0.0438(3) 0.22887(19) 0.43434(18)
O3 O 0.3231(3) 0.64500(15) 0.48018(14)
O4 O -0.2529(3) 0.14194(19) 0.6459(2)
O5 O -0.1678(3) -0.08219(17) 0.76038(16)
N2 N 0.2839(3) 0.43217(16) 0.69222(14)
O6 O 0.3228(3) 0.0407(2) 0.59679(18)
C4 C 0.2132(3) 0.32771(19) 0.70832(18)
H2 H 0.2216 0.2974 0.7807
C5 C 0.2679(3) 0.47703(19) 0.58880(17)
C6 C 0.3517(3) 0.59611(18) 0.57191(18)
H3 H 0.390(5) -0.010(4) 0.601(3)
O7 O 0.4436(2) 0.63449(14) 0.65273(13)
H4 H -0.285(4) 0.187(3) 0.600(3)
H5 H -0.174(5) -0.090(3) 0.824(3)
H6 H 0.358(5) 0.081(4) 0.540(3)
H7 H -0.120(6) -0.146(4) 0.743(4)
H8 H -0.324(8) 0.138(5) 0.693(5)
Ca1B Ca -0.03092(6) -0.05117(4) 0.34080(3)
Ca1A Ca 0.46908(6) 0.55117(4) 0.84080(3)
O1B O -0.0060(2) -0.12495(14) 0.53880(13)
N2A N 0.2161(3) -0.06783(16) 0.80778(14)
O7A O 0.0564(2) 0.13449(14) 0.84727(13)
O8 O 0.9331(3) 0.35726(19) 0.89833(19)
H9 H 0.882(6) 0.384(5) 0.847(4)
H10 H 0.957(5) 0.293(3) 0.888(3)
loop_
_geom_bond_atom_site_label_1
_geom_bond_atom_site_label_2
_geom_bond_site_symmetry_1
_geom_bond_site_symmetry_2
Ca1 O1 1_555 1_555
O1 C3 1_555 1_555
O2 C3 1_555 1_555
N1 Ca1 1_555 1_555
C1 N1 1_555 1_555
C2 C1 1_555 1_555
H1 C2 1_555 1_555
C3 C1 1_555 1_555
O3 C6 1_555 1_555
O4 Ca1 1_555 1_555
O5 Ca1 1_555 1_555
N2 C4 1_555 1_555
O6 Ca1 1_555 1_555
C4 N1 1_555 1_555
H2 C4 1_555 1_555
C5 C2 1_555 1_555
C6 C5 1_555 1_555
H3 O6 1_555 1_555
O7 C6 1_555 1_555
H4 O4 1_555 1_555
H5 O5 1_555 1_555
H6 O6 1_555 1_555
H7 O5 1_555 1_555
H8 O4 1_555 1_555
O8 H9 1_555 1_555
H10 O8 1_555 1_555
Ca1B O1 1_555 1_555
Ca1A N2 1_555 1_555
O1B Ca1 1_555 1_555
N2A Ca1 1_555 1_555
O7A Ca1 1_555 1_555
N2 C5 1_555 1_555
O7 Ca1A 1_555 1_555
Ca1B O1B 1_555 1_555

#END
