
#######################################################################
#
#                 Cambridge Crystallographic Data Centre
#                                CCDC 
#
#######################################################################
#
# If this CIF has been generated from an entry in the Cambridge 
# Structural Database, then it will include bibliographic, chemical, 
# crystal, experimental, refinement or atomic coordinate data resulting 
# from the CCDC's data processing and validation procedures.
#
#######################################################################

data_EDUDUE
_symmetry_cell_setting           monoclinic
_symmetry_space_group_name_H-M   'P 21/c'
_symmetry_Int_Tables_number      14
_space_group_name_Hall           '-P 2ybc'
loop_
_symmetry_equiv_pos_site_id
_symmetry_equiv_pos_as_xyz
1 x,y,z
2 -x,1/2+y,1/2-z
3 -x,-y,-z
4 x,1/2-y,1/2+z
_cell_length_a                   16.620(3)
_cell_length_b                   11.600(2)
_cell_length_c                   20.168(4)
_cell_angle_alpha                90
_cell_angle_beta                 92.41(3)
_cell_angle_gamma                90
_cell_volume                     3884.79
loop_
_atom_site_label
_atom_site_type_symbol
_atom_site_fract_x
_atom_site_fract_y
_atom_site_fract_z
Cu1 Cu 0.262045(16) 0.46824(3) 0.095417(14)
Cu2 Cu 0.778317(16) 0.54556(3) 0.415298(14)
O1 O 0.34174(10) 0.45626(16) 0.16869(9)
O2 O 0.40602(11) 0.62411(17) 0.15533(10)
O3 O 0.51971(10) 0.55941(14) 0.25061(8)
O4 O 0.68947(10) 0.49579(18) 0.35584(9)
O5 O 0.64533(13) 0.66569(18) 0.31577(12)
C1 C 0.39872(14) 0.5275(2) 0.17983(11)
C2 C 0.46290(13) 0.4827(2) 0.22686(11)
C3 C 0.47776(14) 0.3759(2) 0.25122(12)
H1 H 0.4478 0.3095 0.2425
C4 C 0.54854(14) 0.3858(2) 0.29291(12)
H2 H 0.5740 0.3267 0.3169
C5 C 0.57159(14) 0.4961(2) 0.29108(11)
C6 C 0.64101(15) 0.5605(2) 0.32343(12)
O6 O 0.17981(10) 0.52844(16) 0.15262(9)
O7 O 0.10622(13) 0.36742(18) 0.15767(12)
O8 O 0.00890(10) 0.46740(14) 0.24548(8)
O9 O -0.14260(11) 0.57111(16) 0.34843(10)
O10 O -0.11593(13) 0.39158(18) 0.31678(12)
C7 C 0.12146(14) 0.4682(2) 0.17212(12)
C8 C 0.06639(13) 0.5318(2) 0.21566(12)
C9 C 0.05879(15) 0.6436(2) 0.23144(13)
H3 H 0.0908 0.7041 0.2176
C10 C -0.00770(15) 0.6518(2) 0.27353(13)
H4 H -0.0277 0.7185 0.2924
C11 C -0.03577(13) 0.5440(2) 0.28061(11)
C12 C -0.10354(14) 0.4955(2) 0.31801(12)
N1 N 0.19302(12) 0.4938(2) 0.01174(11)
N2 N 0.34234(12) 0.4163(2) 0.02842(11)
C13 C 0.11996(16) 0.5389(3) 0.00524(16)
H5 H 0.0945 0.5630 0.0430
C14 C 0.07967(19) 0.5515(3) -0.05710(18)
H6 H 0.0285 0.5841 -0.0602
C15 C 0.1155(2) 0.5162(4) -0.11220(18)
H7 H 0.0887 0.5234 -0.1534
C16 C 0.1937(2) 0.4683(3) -0.10785(15)
C17 C 0.2383(3) 0.4298(4) -0.16290(16)
H8 H 0.2149 0.4340 -0.2055
C18 C 0.3126(3) 0.3879(3) -0.15429(16)
H9 H 0.3399 0.3637 -0.1911
C19 C 0.35201(19) 0.3792(3) -0.08942(15)
C20 C 0.4306(2) 0.3379(3) -0.07688(19)
H10 H 0.4610 0.3124 -0.1116
C21 C 0.4615(2) 0.3356(3) -0.0137(2)
H11 H 0.5132 0.3073 -0.0050
C22 C 0.41626(16) 0.3754(3) 0.03824(16)
H12 H 0.4388 0.3732 0.0812
C23 C 0.31052(16) 0.4169(2) -0.03446(13)
C24 C 0.23022(17) 0.4602(2) -0.04374(13)
N3 N 0.70653(14) 0.5346(2) 0.49399(11)
N4 N 0.85693(13) 0.6052(2) 0.48709(12)
C25 C 0.63292(18) 0.4888(4) 0.49529(17)
H13 H 0.6080 0.4631 0.4559
C26 C 0.5921(2) 0.4784(4) 0.5545(2)
H14 H 0.5412 0.4451 0.5542
C27 C 0.6266(3) 0.5165(4) 0.6111(2)
H15 H 0.5987 0.5114 0.6500
C28 C 0.7044(3) 0.5642(3) 0.61325(16)
C29 C 0.7473(3) 0.6017(4) 0.67048(18)
H16 H 0.7229 0.5989 0.7111
C30 C 0.8223(3) 0.6412(3) 0.66776(16)
H17 H 0.8484 0.6674 0.7066
C31 C 0.8645(3) 0.6449(3) 0.60622(18)
C32 C 0.9437(3) 0.6788(4) 0.5992(2)
H18 H 0.9738 0.7038 0.6364
C33 C 0.9790(3) 0.6765(4) 0.5388(3)
H19 H 1.0323 0.6991 0.5351
C34 C 0.9324(2) 0.6387(3) 0.48203(19)
H20 H 0.9554 0.6375 0.4408
C35 C 0.8235(2) 0.6091(3) 0.54787(13)
C36 C 0.74293(19) 0.5699(3) 0.55125(13)
O11 O 0.23887(10) 0.26884(16) 0.10600(9)
H21 H 0.2766(12) 0.245(2) 0.1317(12)
H22 H 0.1959(11) 0.275(3) 0.1272(12)
O12 O 0.81807(12) 0.34807(19) 0.43587(11)
H23 H 0.8410(17) 0.3280(17) 0.3991(11)
H24 H 0.7755(13) 0.3099(16) 0.4451(15)
O13 O 0.30778(18) 0.6991(3) 0.05478(13)
H25 H 0.346(2) 0.725(2) 0.0796(14)
H26 H 0.324(2) 0.696(2) 0.0140(10)
Cu2_2 Cu -0.221683(16) 0.54556(3) 0.415298(14)
Cu2A Cu 0.221683(16) 0.04556(3) 0.084702(14)
O9_2 O 0.85740(11) 0.57111(16) 0.34843(10)
O11A O 0.76113(10) 0.76884(16) 0.39400(9)
H21A H 0.7234(12) 0.745(2) 0.3683(12)
H22A H 0.8041(11) 0.775(3) 0.3728(12)
O14 O 0.6377(2) 0.3137(3) 0.07231(14)
C37 C 0.6527(3) 0.2954(4) 0.1319(2)
H27 H 0.6138 0.3170 0.1614
N5 N 0.71914(18) 0.2478(3) 0.15731(15)
C38 C 0.7841(3) 0.2158(4) 0.1167(2)
H28 H 0.7954 0.1352 0.1224
H29 H 0.8311 0.2599 0.1295
H30 H 0.7693 0.2309 0.0710
C39 C 0.7313(3) 0.2344(5) 0.2284(2)
H31 H 0.7728 0.2862 0.2444
H32 H 0.7471 0.1565 0.2384
H33 H 0.6821 0.2517 0.2497
loop_
_geom_bond_atom_site_label_1
_geom_bond_atom_site_label_2
_geom_bond_site_symmetry_1
_geom_bond_site_symmetry_2
Cu1 O1 1_555 1_555
Cu2 O4 1_555 1_555
O1 C1 1_555 1_555
O2 C1 1_555 1_555
O3 C2 1_555 1_555
O4 C6 1_555 1_555
O5 C6 1_555 1_555
C1 C2 1_555 1_555
C2 C3 1_555 1_555
C3 H1 1_555 1_555
C4 C3 1_555 1_555
H2 C4 1_555 1_555
C5 O3 1_555 1_555
C6 C5 1_555 1_555
O6 Cu1 1_555 1_555
O7 C7 1_555 1_555
O8 C8 1_555 1_555
O9 C12 1_555 1_555
O10 C12 1_555 1_555
C7 O6 1_555 1_555
C8 C7 1_555 1_555
C9 C8 1_555 1_555
H3 C9 1_555 1_555
C10 C9 1_555 1_555
H4 C10 1_555 1_555
C11 O8 1_555 1_555
C12 C11 1_555 1_555
N1 Cu1 1_555 1_555
N2 Cu1 1_555 1_555
C13 N1 1_555 1_555
H5 C13 1_555 1_555
C14 C13 1_555 1_555
H6 C14 1_555 1_555
C15 C14 1_555 1_555
H7 C15 1_555 1_555
C16 C15 1_555 1_555
C17 C16 1_555 1_555
H8 C17 1_555 1_555
C18 C17 1_555 1_555
H9 C18 1_555 1_555
C19 C18 1_555 1_555
C20 C19 1_555 1_555
H10 C20 1_555 1_555
C21 C20 1_555 1_555
H11 C21 1_555 1_555
C22 N2 1_555 1_555
H12 C22 1_555 1_555
C23 N2 1_555 1_555
C24 N1 1_555 1_555
N3 Cu2 1_555 1_555
N4 Cu2 1_555 1_555
C25 N3 1_555 1_555
H13 C25 1_555 1_555
C26 C25 1_555 1_555
H14 C26 1_555 1_555
C27 C26 1_555 1_555
H15 C27 1_555 1_555
C28 C27 1_555 1_555
C29 C28 1_555 1_555
H16 C29 1_555 1_555
C30 C29 1_555 1_555
H17 C30 1_555 1_555
C31 C30 1_555 1_555
C32 C31 1_555 1_555
H18 C32 1_555 1_555
C33 C32 1_555 1_555
H19 C33 1_555 1_555
C34 N4 1_555 1_555
H20 C34 1_555 1_555
C35 N4 1_555 1_555
C36 N3 1_555 1_555
O11 Cu1 1_555 1_555
H21 O11 1_555 1_555
H22 O11 1_555 1_555
O12 Cu2 1_555 1_555
H23 O12 1_555 1_555
H24 O12 1_555 1_555
O13 Cu1 1_555 1_555
H25 O13 1_555 1_555
H26 O13 1_555 1_555
O14 C37 1_555 1_555
C37 H27 1_555 1_555
N5 C37 1_555 1_555
C38 N5 1_555 1_555
H28 C38 1_555 1_555
H29 C38 1_555 1_555
H30 C38 1_555 1_555
C39 N5 1_555 1_555
H31 C39 1_555 1_555
H32 C39 1_555 1_555
H33 C39 1_555 1_555
Cu2_2 O9 1_555 1_555
Cu2A O11 1_555 1_555
O9_2 Cu2 1_555 1_555
O11A Cu2 1_555 1_555
H21A O11A 1_555 1_555
H22A O11A 1_555 1_555
C4 C5 1_555 1_555
C10 C11 1_555 1_555
C16 C24 1_555 1_555
C19 C23 1_555 1_555
C21 C22 1_555 1_555
C23 C24 1_555 1_555
C28 C36 1_555 1_555
C31 C35 1_555 1_555
C33 C34 1_555 1_555
C35 C36 1_555 1_555

#END
