
#######################################################################
#
#                 Cambridge Crystallographic Data Centre
#                                CCDC 
#
#######################################################################
#
# If this CIF has been generated from an entry in the Cambridge 
# Structural Database, then it will include bibliographic, chemical, 
# crystal, experimental, refinement or atomic coordinate data resulting 
# from the CCDC's data processing and validation procedures.
#
#######################################################################

data_EDUFOA
_symmetry_cell_setting           triclinic
_symmetry_space_group_name_H-M   'P -1'
_symmetry_Int_Tables_number      2
_space_group_name_Hall           '-P 1'
loop_
_symmetry_equiv_pos_site_id
_symmetry_equiv_pos_as_xyz
1 x,y,z
2 -x,-y,-z
_cell_length_a                   7.6768(7)
_cell_length_b                   10.7223(10)
_cell_length_c                   11.0663(10)
_cell_angle_alpha                92.067(7)
_cell_angle_beta                 102.850(7)
_cell_angle_gamma                101.879(7)
_cell_volume                     865.864
loop_
_atom_site_label
_atom_site_type_symbol
_atom_site_fract_x
_atom_site_fract_y
_atom_site_fract_z
C1 C -0.003(4) 0.838(2) -0.726(2)
H1 H -0.0886 0.7662 -0.7095
H2 H 0.0734 0.8091 -0.7743
H3 H -0.0680 0.8955 -0.7723
C2 C 0.211(2) 0.8446(18) -0.5315(18)
C3 C 0.327(3) 0.9261(17) -0.4289(17)
C4 C 0.329(3) 1.0579(19) -0.4102(19)
H4 H 0.2567 1.0962 -0.4702
C5 C 0.434(3) 1.128(2) -0.3060(19)
H5 H 0.4316 1.2142 -0.2930
C6 C 0.540(3) 1.075(2) -0.223(2)
H6 H 0.6140 1.1230 -0.1517
C7 C 0.539(3) 0.948(2) -0.244(2)
H7 H 0.6186 0.9131 -0.1855
N1 N 0.211(2) 0.7237(14) -0.5445(16)
H8 H 0.1406 0.6742 -0.6067
N2 N 0.435(3) 0.8714(16) -0.3409(15)
O1 O 0.110(2) 0.9040(13) -0.6109(12)
Hg1 Hg 0.41370(13) 0.64830(8) -0.39109(9)
Hg2 Hg 0.5000 0.5000 0.0000
Hg3 Hg -0.04536(12) 0.64042(7) -0.14661(8)
Br1 Br 0.7283(3) 0.6379(2) -0.4186(2)
Br2 Br 0.2253(3) 0.5162(2) -0.26046(19)
Br3 Br 0.6541(3) 0.72282(19) -0.0001(2)
Br4 Br 0.1178(4) 0.8617(2) -0.1174(3)
Br5 Br 0.7893(3) 0.41969(18) -0.1371(2)
C1A C 1.003(4) 0.162(2) 0.726(2)
H1A H 1.0886 0.2338 0.7095
H2A H 0.9266 0.1909 0.7743
H3A H 1.0680 0.1045 0.7723
C2A C 0.789(2) 0.1554(18) 0.5315(18)
C3A C 0.673(3) 0.0739(17) 0.4289(17)
C4A C 0.671(3) -0.0579(19) 0.4102(19)
H4A H 0.7433 -0.0962 0.4702
C5A C 0.566(3) -0.128(2) 0.3060(19)
H5A H 0.5684 -0.2142 0.2930
C6A C 0.460(3) -0.075(2) 0.223(2)
H6A H 0.3860 -0.1230 0.1517
C7A C 0.461(3) 0.052(2) 0.244(2)
H7A H 0.3814 0.0869 0.1855
N1A N 0.789(2) 0.2763(14) 0.5445(16)
H8A H 0.8594 0.3258 0.6067
N2A N 0.565(3) 0.1286(16) 0.3409(15)
O1A O 0.890(2) 0.0960(13) 0.6109(12)
Hg1A Hg 0.58630(13) 0.35170(8) 0.39109(9)
Hg1_2 Hg -0.58630(13) 0.64830(8) -0.39109(9)
Hg3A Hg 1.04536(12) 0.35958(7) 0.14661(8)
Hg3_2 Hg 0.95464(12) 0.64042(7) -0.14661(8)
Hg3A_2 Hg 0.04536(12) 0.35958(7) 0.14661(8)
Br1_2 Br -0.2717(3) 0.6379(2) -0.4186(2)
Br1A Br 0.2717(3) 0.3621(2) 0.4186(2)
Br1A_2 Br 1.2717(3) 0.3621(2) 0.4186(2)
Br2A Br 0.7747(3) 0.4838(2) 0.26046(19)
Br3A Br 0.3459(3) 0.27718(19) 0.0001(2)
Br3_2 Br -0.3459(3) 0.72282(19) -0.0001(2)
Br3A_2 Br 1.3459(3) 0.27718(19) 0.0001(2)
Br4A Br 0.8822(4) 0.1383(2) 0.1174(3)
Br5A Br 0.2107(3) 0.58031(18) 0.1371(2)
Br5_2 Br -0.2107(3) 0.41969(18) -0.1371(2)
Br5A_2 Br 1.2107(3) 0.58031(18) 0.1371(2)
loop_
_geom_bond_atom_site_label_1
_geom_bond_atom_site_label_2
_geom_bond_site_symmetry_1
_geom_bond_site_symmetry_2
C1 H1 1_555 1_555
H2 C1 1_555 1_555
H3 C1 1_555 1_555
C2 C3 1_555 1_555
C3 C4 1_555 1_555
C4 H4 1_555 1_555
C5 C4 1_555 1_555
H5 C5 1_555 1_555
C6 C5 1_555 1_555
H6 C6 1_555 1_555
C7 C6 1_555 1_555
H7 C7 1_555 1_555
N1 C2 1_555 1_555
H8 N1 1_555 1_555
N2 C3 1_555 1_555
O1 C1 1_555 1_555
Hg1 N1 1_555 1_555
Hg2 Br2 1_555 1_555
Hg3 Br2 1_555 1_555
Br1 Hg1 1_555 1_555
Br2 Hg1 1_555 1_555
Br3 Hg2 1_555 1_555
Br4 Hg3 1_555 1_555
Br5 Hg2 1_555 1_555
C1A H1A 1_555 1_555
H2A C1A 1_555 1_555
H3A C1A 1_555 1_555
C2A C3A 1_555 1_555
C3A C4A 1_555 1_555
C4A H4A 1_555 1_555
C5A C4A 1_555 1_555
H5A C5A 1_555 1_555
C6A C5A 1_555 1_555
H6A C6A 1_555 1_555
C7A C6A 1_555 1_555
H7A C7A 1_555 1_555
N1A C2A 1_555 1_555
H8A N1A 1_555 1_555
N2A C3A 1_555 1_555
O1A C1A 1_555 1_555
Hg1A N1A 1_555 1_555
Hg1_2 Br1_2 1_555 1_555
Hg3A Br1A_2 1_555 1_555
Hg3_2 Br1 1_555 1_555
Hg3A_2 Br1A 1_555 1_555
Br1_2 Hg3 1_555 1_555
Br1A Hg1A 1_555 1_555
Br2A Hg2 1_555 1_555
Br3A Hg2 1_555 1_555
Br3_2 Hg3 1_555 1_555
Br3A_2 Hg3A 1_555 1_555
Br4A Hg3A 1_555 1_555
Br5A Hg2 1_555 1_555
Br5_2 Hg3 1_555 1_555
Br5A_2 Hg3A 1_555 1_555
C2 O1 1_555 1_555
C7 N2 1_555 1_555
N2 Hg1 1_555 1_555
Br3 Hg3_2 1_555 1_555
Br5 Hg3_2 1_555 1_555
C2A O1A 1_555 1_555
C7A N2A 1_555 1_555
N2A Hg1A 1_555 1_555
Hg1A Br2A 1_555 1_555
Hg3A Br2A 1_555 1_555
Hg3A_2 Br3A 1_555 1_555
Hg3A_2 Br5A 1_555 1_555

#END
