
#######################################################################
#
#                 Cambridge Crystallographic Data Centre
#                                CCDC 
#
#######################################################################
#
# If this CIF has been generated from an entry in the Cambridge 
# Structural Database, then it will include bibliographic, chemical, 
# crystal, experimental, refinement or atomic coordinate data resulting 
# from the CCDC's data processing and validation procedures.
#
#######################################################################

data_EDUFUG
_symmetry_cell_setting           monoclinic
_symmetry_space_group_name_H-M   'C 2/c'
_symmetry_Int_Tables_number      15
_space_group_name_Hall           '-C 2yn'
loop_
_symmetry_equiv_pos_site_id
_symmetry_equiv_pos_as_xyz
1 x,y,z
2 -x,y,1/2-z
3 1/2+x,1/2+y,z
4 1/2-x,1/2+y,1/2-z
5 -x,-y,-z
6 x,-y,1/2+z
7 1/2-x,1/2-y,-z
8 1/2+x,1/2-y,1/2+z
_cell_length_a                   17.979(4)
_cell_length_b                   10.5319(18)
_cell_length_c                   7.4496(16)
_cell_angle_alpha                90
_cell_angle_beta                 108.403(17)
_cell_angle_gamma                90
_cell_volume                     1338.47
loop_
_atom_site_label
_atom_site_type_symbol
_atom_site_fract_x
_atom_site_fract_y
_atom_site_fract_z
Cd1 Cd 0.0000 0.92501(14) 0.2500
Br1 Br 0.09337(9) 1.08683(16) 0.4997(2)
N1 N -0.0688(6) 0.7414(11) 0.1090(15)
C1 C -0.0397(7) 0.6266(12) 0.1779(18)
C2 C -0.0804(7) 0.5157(13) 0.111(2)
H1 H -0.0585 0.4376 0.1574
C3 C -0.1384(8) 0.7427(15) -0.025(2)
H2 H -0.1579 0.8209 -0.0767
C4 C -0.1535(8) 0.5209(14) -0.025(2)
C5 C -0.2002(8) 0.4012(14) -0.094(2)
H3 H -0.2098 0.3586 0.0101
H4 H -0.1712 0.3462 -0.1505
H5 H -0.2493 0.4229 -0.1869
C6 C -0.1825(8) 0.6396(14) -0.091(2)
H6 H -0.2318 0.6478 -0.1806
Cd1D Cd 0.0000 1.07499(14) 0.7500
Cd1D_2 Cd 0.0000 1.07499(14) -0.2500
Br1A Br -0.09337(9) 1.08683(16) 0.0003(2)
Br1D Br -0.09337(9) 0.91317(16) 0.5003(2)
Br1E Br 0.09337(9) 0.91317(16) -0.0003(2)
N1A N 0.0688(6) 0.7414(11) 0.3910(15)
C1A C 0.0397(7) 0.6266(12) 0.3221(18)
C2A C 0.0804(7) 0.5157(13) 0.389(2)
H1A H 0.0585 0.4376 0.3426
C3A C 0.1384(8) 0.7427(15) 0.525(2)
H2A H 0.1579 0.8209 0.5767
C4A C 0.1535(8) 0.5209(14) 0.525(2)
C5A C 0.2002(8) 0.4012(14) 0.594(2)
H3A H 0.2098 0.3586 0.4899
H4A H 0.1712 0.3462 0.6505
H5A H 0.2493 0.4229 0.6869
C6A C 0.1825(8) 0.6396(14) 0.591(2)
H6A H 0.2318 0.6478 0.6806
loop_
_geom_bond_atom_site_label_1
_geom_bond_atom_site_label_2
_geom_bond_site_symmetry_1
_geom_bond_site_symmetry_2
Cd1 Br1 1_555 1_555
Br1 Cd1D 1_555 1_555
N1 Cd1 1_555 1_555
C1 N1 1_555 1_555
C2 C1 1_555 1_555
H1 C2 1_555 1_555
C3 N1 1_555 1_555
H2 C3 1_555 1_555
C4 C2 1_555 1_555
C5 C4 1_555 1_555
H3 C5 1_555 1_555
H4 C5 1_555 1_555
H5 C5 1_555 1_555
C6 C3 1_555 1_555
H6 C6 1_555 1_555
Cd1D Br1D 1_555 1_555
Cd1D_2 Br1A 1_555 1_555
Br1A Cd1 1_555 1_555
Br1D Cd1 1_555 1_555
Br1E Cd1 1_555 1_555
N1A Cd1 1_555 1_555
C1A C1 1_555 1_555
C2A C1A 1_555 1_555
H1A C2A 1_555 1_555
C3A N1A 1_555 1_555
H2A C3A 1_555 1_555
C4A C2A 1_555 1_555
C5A C4A 1_555 1_555
H3A C5A 1_555 1_555
H4A C5A 1_555 1_555
H5A C5A 1_555 1_555
C6A C3A 1_555 1_555
H6A C6A 1_555 1_555
C4 C6 1_555 1_555
Cd1D_2 Br1E 1_555 1_555
N1A C1A 1_555 1_555
C4A C6A 1_555 1_555

#END
