
#######################################################################
#
#                 Cambridge Crystallographic Data Centre
#                                CCDC 
#
#######################################################################
#
# If this CIF has been generated from an entry in the Cambridge 
# Structural Database, then it will include bibliographic, chemical, 
# crystal, experimental, refinement or atomic coordinate data resulting 
# from the CCDC's data processing and validation procedures.
#
#######################################################################

data_EDUJIY
_symmetry_cell_setting           monoclinic
_symmetry_space_group_name_H-M   'C 2/c'
_symmetry_Int_Tables_number      15
_space_group_name_Hall           '-C 2yn'
loop_
_symmetry_equiv_pos_site_id
_symmetry_equiv_pos_as_xyz
1 x,y,z
2 -x,y,1/2-z
3 1/2+x,1/2+y,z
4 1/2-x,1/2+y,1/2-z
5 -x,-y,-z
6 x,-y,1/2+z
7 1/2-x,1/2-y,-z
8 1/2+x,1/2-y,1/2+z
_cell_length_a                   29.854(4)
_cell_length_b                   5.3535(7)
_cell_length_c                   17.353(2)
_cell_angle_alpha                90
_cell_angle_beta                 118.686(2)
_cell_angle_gamma                90
_cell_volume                     2433.02
loop_
_atom_site_label
_atom_site_type_symbol
_atom_site_fract_x
_atom_site_fract_y
_atom_site_fract_z
Cu1 Cu 0.0000 0.98462(9) 0.2500
O1 O -0.01260(9) 0.5988(4) 0.10232(13)
O2 O 0.23784(7) 0.6328(4) 0.58520(13)
O3 O 0.0000 1.3863(5) 0.2500
H1 H -0.0035(12) 1.471(4) 0.2067(12)
O4 O 0.01923(7) 0.9749(3) 0.15746(11)
N1 N 0.34390(10) 0.8621(5) 0.83508(17)
N2 N 0.24546(9) 1.0496(5) 0.61401(16)
H2 H 0.2343(11) 1.199(4) 0.5910(18)
N3 N 0.07405(8) 0.9573(4) 0.34350(14)
C1 C 0.37744(12) 1.0459(6) 0.8530(2)
H3 H 0.4076 1.0448 0.9083
C2 C 0.37059(12) 1.2372(6) 0.7956(2)
H4 H 0.3955 1.3652 0.8108
C3 C 0.32648(12) 1.2391(6) 0.7149(2)
H5 H 0.3203 1.3698 0.6739
C4 C 0.30186(11) 0.8643(6) 0.75726(19)
H6 H 0.2777 0.7335 0.7438
C5 C 0.29173(10) 1.0479(5) 0.69522(18)
C6 C 0.16993(10) 0.8946(5) 0.48796(18)
C7 C 0.09141(10) 1.1150(5) 0.41137(18)
H7 H 0.0702 1.2498 0.4094
C8 C 0.15215(10) 0.7307(5) 0.41788(18)
H8 H 0.1725 0.5933 0.4188
C9 C 0.13897(10) 1.0906(5) 0.48445(18)
H9 H 0.1502 1.2068 0.5315
C10 C 0.10459(10) 0.7686(5) 0.34665(18)
H10 H 0.0930 0.6575 0.2981
C11 C 0.00282(10) 0.8103(5) 0.09670(18)
C12 C 0.00079(10) 0.8823(5) 0.01221(17)
H11 H 0.0006 0.7540 -0.0257
C13 C 0.22077(10) 0.8447(5) 0.56670(18)
Cu1D Cu 0.0000 1.01538(9) -0.2500
O1D O 0.01260(9) 1.4012(4) -0.10232(13)
O2A O -0.23784(7) 0.6328(4) -0.08520(13)
H1A H 0.0035(12) 1.471(4) 0.2933(12)
O4D O -0.01923(7) 1.0251(3) -0.15746(11)
O4A O -0.01923(7) 0.9749(3) 0.34254(11)
N1A N -0.34390(10) 0.8621(5) -0.33508(17)
N2A N -0.24546(9) 1.0496(5) -0.11401(16)
H2A H -0.2343(11) 1.199(4) -0.0910(18)
N3A N -0.07405(8) 0.9573(4) 0.15650(14)
C1A C -0.37744(12) 1.0459(6) -0.3530(2)
H3A H -0.4076 1.0448 -0.4083
C2A C -0.37059(12) 1.2372(6) -0.2956(2)
H4A H -0.3955 1.3652 -0.3108
C3A C -0.32648(12) 1.2391(6) -0.2149(2)
H5A H -0.3203 1.3698 -0.1739
C4A C -0.30186(11) 0.8643(6) -0.25726(19)
H6A H -0.2777 0.7335 -0.2438
C5A C -0.29173(10) 1.0479(5) -0.19522(18)
C6A C -0.16993(10) 0.8946(5) 0.01204(18)
C7A C -0.09141(10) 1.1150(5) 0.08863(18)
H7A H -0.0702 1.2498 0.0906
C8A C -0.15215(10) 0.7307(5) 0.08212(18)
H8A H -0.1725 0.5933 0.0812
C9A C -0.13897(10) 1.0906(5) 0.01555(18)
H9A H -0.1502 1.2068 -0.0315
C10A C -0.10459(10) 0.7686(5) 0.15335(18)
H10A H -0.0930 0.6575 0.2019
C11D C -0.00282(10) 1.1897(5) -0.09670(18)
C12D C -0.00079(10) 1.1177(5) -0.01221(17)
H11D H -0.0006 1.2460 0.0257
C13A C -0.22077(10) 0.8447(5) -0.06670(18)
loop_
_geom_bond_atom_site_label_1
_geom_bond_atom_site_label_2
_geom_bond_site_symmetry_1
_geom_bond_site_symmetry_2
Cu1 O3 1_555 1_555
O1 C11 1_555 1_555
O2 C13 1_555 1_555
O3 H1 1_555 1_555
O4 Cu1 1_555 1_555
N1 C1 1_555 1_555
N2 H2 1_555 1_555
N3 Cu1 1_555 1_555
C1 H3 1_555 1_555
C2 C1 1_555 1_555
H4 C2 1_555 1_555
C3 C2 1_555 1_555
H5 C3 1_555 1_555
C4 N1 1_555 1_555
H6 C4 1_555 1_555
C5 N2 1_555 1_555
C6 C8 1_555 1_555
C7 N3 1_555 1_555
H7 C7 1_555 1_555
C8 H8 1_555 1_555
C9 C6 1_555 1_555
H9 C9 1_555 1_555
C10 N3 1_555 1_555
H10 C10 1_555 1_555
C11 O4 1_555 1_555
C12 C11 1_555 1_555
H11 C12 1_555 1_555
C13 N2 1_555 1_555
Cu1D O4D 1_555 1_555
O1D C11D 1_555 1_555
O2A C13A 1_555 1_555
H1A O3 1_555 1_555
O4D C11D 1_555 1_555
O4A Cu1 1_555 1_555
N1A C1A 1_555 1_555
N2A H2A 1_555 1_555
N3A Cu1 1_555 1_555
C1A H3A 1_555 1_555
C2A C1A 1_555 1_555
H4A C2A 1_555 1_555
C3A C2A 1_555 1_555
H5A C3A 1_555 1_555
C4A N1A 1_555 1_555
H6A C4A 1_555 1_555
C5A N2A 1_555 1_555
C6A C8A 1_555 1_555
C7A N3A 1_555 1_555
H7A C7A 1_555 1_555
C8A H8A 1_555 1_555
C9A C6A 1_555 1_555
H9A C9A 1_555 1_555
C10A N3A 1_555 1_555
H10A C10A 1_555 1_555
C11D C12D 1_555 1_555
C12D C12 1_555 1_555
H11D C12D 1_555 1_555
C13A N2A 1_555 1_555
C3 C5 1_555 1_555
C4 C5 1_555 1_555
C6 C13 1_555 1_555
C7 C9 1_555 1_555
C8 C10 1_555 1_555
C3A C5A 1_555 1_555
C4A C5A 1_555 1_555
C6A C13A 1_555 1_555
C7A C9A 1_555 1_555
C8A C10A 1_555 1_555

#END
