
#######################################################################
#
#                 Cambridge Crystallographic Data Centre
#                                CCDC 
#
#######################################################################
#
# If this CIF has been generated from an entry in the Cambridge 
# Structural Database, then it will include bibliographic, chemical, 
# crystal, experimental, refinement or atomic coordinate data resulting 
# from the CCDC's data processing and validation procedures.
#
#######################################################################

data_EDUMOG
_symmetry_cell_setting           triclinic
_symmetry_space_group_name_H-M   'P -1'
_symmetry_Int_Tables_number      2
_space_group_name_Hall           '-P 1'
loop_
_symmetry_equiv_pos_site_id
_symmetry_equiv_pos_as_xyz
1 x,y,z
2 -x,-y,-z
_cell_length_a                   7.495(2)
_cell_length_b                   9.998(3)
_cell_length_c                   11.384(4)
_cell_angle_alpha                71.699(4)
_cell_angle_beta                 84.631(5)
_cell_angle_gamma                71.660(4)
_cell_volume                     768.761
loop_
_atom_site_label
_atom_site_type_symbol
_atom_site_fract_x
_atom_site_fract_y
_atom_site_fract_z
Cu1 Cu 0.48400(12) 0.26871(9) 0.30660(7)
Cu2 Cu 0.26653(13) 0.09988(10) 0.46832(8)
Br1 Br 0.14822(9) 0.30472(7) 0.28097(6)
Br2 Br 0.58078(9) 0.15599(7) 0.52382(6)
N1 N 0.6070(7) 0.2314(5) 0.1432(4)
N2 N 0.6777(7) 0.1109(6) -0.0148(5)
N3 N 0.5026(8) 0.0355(6) 0.1571(5)
H1 H 0.4513 0.0437 0.2264
H2 H 0.4929 -0.0323 0.1290
N4 N 0.6064(7) 0.4370(5) 0.2421(4)
N5 N 1.0730(7) 0.1330(6) -0.3996(5)
C1 C 0.5977(8) 0.1282(7) 0.0932(5)
C2 C 0.7621(8) 0.2102(7) -0.0782(5)
C3 C 0.7653(8) 0.3272(7) -0.0382(6)
H3 H 0.8175 0.3993 -0.0867
C4 C 0.6893(8) 0.3327(6) 0.0743(5)
C5 C 0.6860(8) 0.4510(6) 0.1292(5)
C6 C 0.7558(8) 0.5670(7) 0.0693(6)
H4 H 0.8090 0.5742 -0.0087
C7 C 0.7459(9) 0.6717(7) 0.1260(6)
H5 H 0.7894 0.7518 0.0856
C8 C 0.6716(9) 0.6576(7) 0.2425(6)
H6 H 0.6675 0.7256 0.2836
C9 C 0.6030(9) 0.5390(7) 0.2970(6)
H7 H 0.5518 0.5293 0.3758
C10 C 0.9970(9) 0.2707(7) -0.3903(6)
H8 H 1.0168 0.3495 -0.4542
C11 C 0.8911(9) 0.3006(7) -0.2903(5)
H9 H 0.8405 0.3975 -0.2880
C12 C 0.8608(8) 0.1850(7) -0.1934(5)
C13 C 0.9325(8) 0.0426(7) -0.2048(6)
H10 H 0.9103 -0.0375 -0.1437
C14 C 1.0367(8) 0.0225(7) -0.3080(6)
H11 H 1.0841 -0.0728 -0.3142
Cu2A Cu 0.73347(13) -0.09988(10) 0.53168(8)
Cu2_2 Cu 1.26653(13) 0.09988(10) -0.53168(8)
Br2A Br 0.41922(9) -0.15599(7) 0.47618(6)
N5_2 N 0.0730(7) 0.1330(6) 0.6004(5)
loop_
_geom_bond_atom_site_label_1
_geom_bond_atom_site_label_2
_geom_bond_site_symmetry_1
_geom_bond_site_symmetry_2
Cu1 Br1 1_555 1_555
Cu2 Br1 1_555 1_555
Br2 Cu1 1_555 1_555
N1 Cu1 1_555 1_555
N2 C1 1_555 1_555
N3 H1 1_555 1_555
H2 N3 1_555 1_555
N4 Cu1 1_555 1_555
N5 C10 1_555 1_555
C1 N1 1_555 1_555
C2 N2 1_555 1_555
C3 C2 1_555 1_555
H3 C3 1_555 1_555
C4 N1 1_555 1_555
C5 N4 1_555 1_555
C6 C5 1_555 1_555
H4 C6 1_555 1_555
C7 C6 1_555 1_555
H5 C7 1_555 1_555
C8 C7 1_555 1_555
H6 C8 1_555 1_555
C9 N4 1_555 1_555
H7 C9 1_555 1_555
C10 H8 1_555 1_555
C11 C10 1_555 1_555
H9 C11 1_555 1_555
C12 C2 1_555 1_555
C13 C12 1_555 1_555
H10 C13 1_555 1_555
C14 N5 1_555 1_555
H11 C14 1_555 1_555
Cu2A Br2 1_555 1_555
Cu2_2 N5 1_555 1_555
Br2A Cu2 1_555 1_555
N5_2 Cu2 1_555 1_555
N3 C1 1_555 1_555
C3 C4 1_555 1_555
C4 C5 1_555 1_555
C8 C9 1_555 1_555
C11 C12 1_555 1_555
C13 C14 1_555 1_555

#END
