
#######################################################################
#
#                 Cambridge Crystallographic Data Centre
#                                CCDC 
#
#######################################################################
#
# If this CIF has been generated from an entry in the Cambridge 
# Structural Database, then it will include bibliographic, chemical, 
# crystal, experimental, refinement or atomic coordinate data resulting 
# from the CCDC's data processing and validation procedures.
#
#######################################################################

data_EDUNOH
_symmetry_cell_setting           monoclinic
_symmetry_space_group_name_H-M   'C 2/c'
_symmetry_Int_Tables_number      15
_space_group_name_Hall           '-C 2yn'
loop_
_symmetry_equiv_pos_site_id
_symmetry_equiv_pos_as_xyz
1 x,y,z
2 1/2+x,1/2+y,z
3 -x,y,1/2-z
4 1/2-x,1/2+y,1/2-z
5 -x,-y,-z
6 1/2-x,1/2-y,-z
7 x,-y,1/2+z
8 1/2+x,1/2-y,1/2+z
_cell_length_a                   20.940(3)
_cell_length_b                   9.6078(12)
_cell_length_c                   14.7942(19)
_cell_angle_alpha                90
_cell_angle_beta                 125.884(2)
_cell_angle_gamma                90
_cell_volume                     2411.5
loop_
_atom_site_label
_atom_site_type_symbol
_atom_site_fract_x
_atom_site_fract_y
_atom_site_fract_z
Zn1 Zn 0.5000 0.12559(3) 0.7500
C1 C 0.32554(15) -0.1920(3) 0.64815(19)
H1 H 0.3122 -0.2483 0.6859
O1 O 0.39232(9) 0.29538(15) 0.71869(12)
O2 O 0.49428(9) 0.19702(15) 0.86982(13)
C2 C 0.36932(14) -0.0250(2) 0.54810(19)
H2 H 0.3839 0.0327 0.5125
O3 O 0.25572(10) 0.67575(18) 0.91871(14)
H3 H 0.2165 0.7250 0.8809
O4 O 0.22568(15) 0.6223(2) 0.75308(18)
N1 N 0.40947(9) -0.01606(16) 0.65816(14)
C3 C 0.28368(11) -0.20154(19) 0.53335(16)
C4 C 0.38715(12) 0.5013(2) 1.02708(18)
H4 H 0.3772 0.5512 1.0714
C5 C 0.26886(15) 0.6106(2) 0.8536(2)
C6 C 0.43472(12) 0.27635(19) 0.82190(17)
C7 C 0.46543(13) 0.3362(2) 1.00919(18)
H5 H 0.5082 0.2756 1.0425
C8 C 0.41740(12) 0.35150(19) 0.89450(17)
C9 C 0.35402(12) 0.4413(2) 0.84621(17)
H6 H 0.3213 0.4514 0.7691
C10 C 0.33852(12) 0.5171(2) 0.91158(18)
C11 C 0.44993(14) 0.4114(3) 1.07490(19)
H7 H 0.4825 0.4005 1.1520
C12 C 0.30732(15) -0.1149(2) 0.4840(2)
H8 H 0.2813 -0.1172 0.4071
C13 C 0.38671(15) -0.0992(3) 0.70599(19)
H9 H 0.4137 -0.0944 0.7830
Zn1G Zn 0.0000 -0.62559(3) 0.2500
C1E C 0.17446(15) -0.3080(3) 0.35185(19)
H1E H 0.1878 -0.2517 0.3141
O1B O 0.60768(9) 0.29538(15) 0.78131(12)
O2B O 0.50572(9) 0.19702(15) 0.63018(13)
C2E C 0.13068(14) -0.4750(2) 0.45190(19)
H2E H 0.1161 -0.5327 0.4875
O3B O 0.74428(10) 0.67575(18) 0.58129(14)
H3B H 0.7835 0.7250 0.6191
O4B O 0.77432(15) 0.6223(2) 0.74692(18)
N1E N 0.09053(9) -0.48394(16) 0.34184(14)
N1B N 0.59053(9) -0.01606(16) 0.84184(14)
C3E C 0.21632(11) -0.29846(19) 0.46665(16)
C4B C 0.61285(12) 0.5013(2) 0.47292(18)
H4B H 0.6228 0.5512 0.4286
C5B C 0.73114(15) 0.6106(2) 0.6464(2)
C6B C 0.56528(12) 0.27635(19) 0.67810(17)
C7B C 0.53457(13) 0.3362(2) 0.49081(18)
H5B H 0.4918 0.2756 0.4575
C8B C 0.58260(12) 0.35150(19) 0.60550(17)
C9B C 0.64598(12) 0.4413(2) 0.65379(17)
H6B H 0.6787 0.4514 0.7309
C10B C 0.66148(12) 0.5171(2) 0.58842(18)
C11B C 0.55007(14) 0.4114(3) 0.42510(19)
H7B H 0.5175 0.4005 0.3480
C12E C 0.19268(15) -0.3851(2) 0.5160(2)
H8E H 0.2187 -0.3828 0.5929
C13E C 0.11329(15) -0.4008(3) 0.29401(19)
H9E H 0.0863 -0.4056 0.2170
loop_
_geom_bond_atom_site_label_1
_geom_bond_atom_site_label_2
_geom_bond_site_symmetry_1
_geom_bond_site_symmetry_2
Zn1 O1 1_555 1_555
C1 H1 1_555 1_555
O1 C6 1_555 1_555
O2 Zn1 1_555 1_555
C2 H2 1_555 1_555
O3 H3 1_555 1_555
O4 C5 1_555 1_555
N1 Zn1 1_555 1_555
C3 C1 1_555 1_555
C4 H4 1_555 1_555
C5 O3 1_555 1_555
C6 O2 1_555 1_555
C7 H5 1_555 1_555
C8 C6 1_555 1_555
C9 C8 1_555 1_555
H6 C9 1_555 1_555
C10 C4 1_555 1_555
C11 C4 1_555 1_555
H7 C11 1_555 1_555
C12 C2 1_555 1_555
H8 C12 1_555 1_555
C13 C1 1_555 1_555
H9 C13 1_555 1_555
Zn1G N1E 1_555 1_555
C1E H1E 1_555 1_555
O1B Zn1 1_555 1_555
O2B Zn1 1_555 1_555
C2E H2E 1_555 1_555
O3B H3B 1_555 1_555
O4B C5B 1_555 1_555
N1E C2E 1_555 1_555
N1B Zn1 1_555 1_555
C3E C3 1_555 1_555
C4B H4B 1_555 1_555
C5B O3B 1_555 1_555
C6B O1B 1_555 1_555
C7B H5B 1_555 1_555
C8B C6B 1_555 1_555
C9B C8B 1_555 1_555
H6B C9B 1_555 1_555
C10B C4B 1_555 1_555
C11B C4B 1_555 1_555
H7B C11B 1_555 1_555
C12E C2E 1_555 1_555
H8E C12E 1_555 1_555
C13E C1E 1_555 1_555
H9E C13E 1_555 1_555
C2 N1 1_555 1_555
N1 C13 1_555 1_555
C3 C12 1_555 1_555
C5 C10 1_555 1_555
C7 C8 1_555 1_555
C7 C11 1_555 1_555
C9 C10 1_555 1_555
C1E C3E 1_555 1_555
O2B C6B 1_555 1_555
N1E C13E 1_555 1_555
C3E C12E 1_555 1_555
C5B C10B 1_555 1_555
C7B C8B 1_555 1_555
C7B C11B 1_555 1_555
C9B C10B 1_555 1_555

#END
