
#######################################################################
#
#                 Cambridge Crystallographic Data Centre
#                                CCDC 
#
#######################################################################
#
# If this CIF has been generated from an entry in the Cambridge 
# Structural Database, then it will include bibliographic, chemical, 
# crystal, experimental, refinement or atomic coordinate data resulting 
# from the CCDC's data processing and validation procedures.
#
#######################################################################

data_EDUQUQ
_symmetry_cell_setting           monoclinic
_symmetry_space_group_name_H-M   'C 2/c'
_symmetry_Int_Tables_number      15
_space_group_name_Hall           '-C 2yn'
loop_
_symmetry_equiv_pos_site_id
_symmetry_equiv_pos_as_xyz
1 x,y,z
2 1/2+x,1/2+y,z
3 -x,y,1/2-z
4 1/2-x,1/2+y,1/2-z
5 -x,-y,-z
6 1/2-x,1/2-y,-z
7 x,-y,1/2+z
8 1/2+x,1/2-y,1/2+z
_cell_length_a                   15.657(2)
_cell_length_b                   13.140(2)
_cell_length_c                   21.287(3)
_cell_angle_alpha                90
_cell_angle_beta                 111.129(7)
_cell_angle_gamma                90
_cell_volume                     4085.01
loop_
_atom_site_label
_atom_site_type_symbol
_atom_site_fract_x
_atom_site_fract_y
_atom_site_fract_z
Cd1 Cd 0.080646(8) 0.284616(9) 0.123018(6)
O1 O 0.02519(11) 0.12460(11) 0.14821(8)
O2 O 0.09220(10) 0.12329(10) 0.07448(7)
O3 O 0.31579(11) -0.08861(12) 0.28706(7)
O4 O 0.28497(11) -0.24890(12) 0.29135(8)
N1 N -0.03620(10) 0.33899(12) 0.02391(7)
N2 N 0.14472(10) 0.35410(11) 0.04817(7)
C1 C 0.03560(11) -0.03692(13) 0.09607(9)
H1 H -0.0215 -0.0447 0.0554
C2 C 0.11186(13) -0.09148(14) 0.08048(8)
H2 H 0.0908 -0.1605 0.0631
H3 H 0.1253 -0.0537 0.0449
C3 C 0.19908(12) -0.10019(15) 0.14249(8)
H4 H 0.2236 -0.0313 0.1574
H5 H 0.2457 -0.1384 0.1307
C4 C 0.18109(12) -0.15446(13) 0.20009(8)
H6 H 0.1592 -0.2248 0.1846
C5 C 0.10546(13) -0.09983(16) 0.21658(9)
H7 H 0.0920 -0.1381 0.2520
H8 H 0.1270 -0.0311 0.2344
C6 C 0.01800(13) -0.09027(16) 0.15444(10)
H9 H -0.0281 -0.0512 0.1663
H10 H -0.0073 -0.1590 0.1398
C7 C 0.05292(11) 0.07719(13) 0.10726(8)
C8 C 0.26644(12) -0.16340(14) 0.26295(8)
C9 C -0.12522(13) 0.33531(17) 0.01507(10)
H11 H -0.1422 0.3126 0.0513
C10 C -0.19346(14) 0.36323(17) -0.04460(11)
H12 H -0.2561 0.3586 -0.0495
C11 C -0.16894(15) 0.39772(17) -0.09652(11)
H13 H -0.2144 0.4178 -0.1380
C12 C -0.07745(14) 0.40283(16) -0.08773(10)
H14 H -0.0592 0.4274 -0.1230
C13 C -0.01204(12) 0.37183(12) -0.02710(8)
C14 C 0.08787(12) 0.37469(13) -0.01483(8)
C15 C 0.12179(15) 0.39695(17) -0.06533(10)
H15 H 0.0810 0.4113 -0.1098
C16 C 0.21509(16) 0.39796(18) -0.05037(12)
H16 H 0.2391 0.4121 -0.0845
C17 C 0.27259(14) 0.37856(17) 0.01389(12)
H17 H 0.3371 0.3801 0.0254
C18 C 0.23508(13) 0.35671(16) 0.06174(10)
H18 H 0.2752 0.3428 0.1065
O5 O -0.02233(11) 0.34639(13) 0.16952(8)
H19 H -0.0145 0.4034 0.1896
H20 H -0.0633 0.3109 0.1766
Cd1C Cd 0.419354(8) 0.784616(9) 0.376982(6)
Cd1C_2 Cd 0.419354(8) -0.215384(9) 0.376982(6)
O1C O 0.47481(11) 0.62460(11) 0.35179(8)
O2C O 0.40780(10) 0.62329(10) 0.42552(7)
O3C O 0.18421(11) 0.41139(12) 0.21294(7)
O3_2 O 0.31579(11) 0.91139(12) 0.28706(7)
O4C O 0.21503(11) 0.25110(12) 0.20865(8)
O4_2 O 0.28497(11) 0.75110(12) 0.29135(8)
N1C N 0.53620(10) 0.83899(12) 0.47609(7)
N2C N 0.35528(10) 0.85410(11) 0.45183(7)
C1C C 0.46440(11) 0.46308(13) 0.40393(9)
H1C H 0.5215 0.4553 0.4446
C2C C 0.38814(13) 0.40852(14) 0.41952(8)
H2C H 0.4092 0.3395 0.4369
H3C H 0.3747 0.4463 0.4551
C3C C 0.30092(12) 0.39981(15) 0.35751(8)
H4C H 0.2764 0.4687 0.3426
H5C H 0.2543 0.3616 0.3693
C4C C 0.31891(12) 0.34554(13) 0.29991(8)
H6C H 0.3408 0.2752 0.3154
C5C C 0.39454(13) 0.40017(16) 0.28342(9)
H7C H 0.4080 0.3619 0.2480
H8C H 0.3730 0.4689 0.2656
C6C C 0.48200(13) 0.40973(16) 0.34556(10)
H9C H 0.5281 0.4488 0.3337
H10C H 0.5073 0.3410 0.3602
C7C C 0.44708(11) 0.57719(13) 0.39274(8)
C8C C 0.23356(12) 0.33660(14) 0.23705(8)
C9C C 0.62522(13) 0.83531(17) 0.48493(10)
H11C H 0.6422 0.8126 0.4487
C10C C 0.69346(14) 0.86323(17) 0.54460(11)
H12C H 0.7561 0.8586 0.5495
C11C C 0.66894(15) 0.89772(17) 0.59652(11)
H13C H 0.7144 0.9178 0.6380
C12C C 0.57745(14) 0.90283(16) 0.58773(10)
H14C H 0.5592 0.9274 0.6230
C13C C 0.51204(12) 0.87183(12) 0.52710(8)
C14C C 0.41213(12) 0.87469(13) 0.51483(8)
C15C C 0.37821(15) 0.89695(17) 0.56533(10)
H15C H 0.4190 0.9113 0.6098
C16C C 0.28491(16) 0.89796(18) 0.55037(12)
H16C H 0.2609 0.9121 0.5845
C17C C 0.22741(14) 0.87856(17) 0.48611(12)
H17C H 0.1629 0.8801 0.4746
C18C C 0.26492(13) 0.85671(16) 0.43826(10)
H18C H 0.2248 0.8428 0.3935
O5C O 0.52233(11) 0.84639(13) 0.33048(8)
H19C H 0.5145 0.9034 0.3104
H20C H 0.5633 0.8109 0.3234
O6 O 0.11546(12) 0.17682(16) 0.30796(10)
H21 H 0.1068 0.1607 0.2674
H22 H 0.0777 0.1396 0.3178
O7 O -0.15770(12) 0.40072(13) -0.26097(10)
H23 H -0.1957 0.3517 -0.2721
H24 H -0.1796 0.4531 -0.2487
O8 O 0.0000 0.51674(19) 0.2500
H25 H 0.0434 0.5594 0.2576
H25B H -0.0434 0.5594 0.2424
loop_
_geom_bond_atom_site_label_1
_geom_bond_atom_site_label_2
_geom_bond_site_symmetry_1
_geom_bond_site_symmetry_2
Cd1 O1 1_555 1_555
O1 C7 1_555 1_555
O2 Cd1 1_555 1_555
O3 C8 1_555 1_555
O4 C8 1_555 1_555
N1 Cd1 1_555 1_555
N2 Cd1 1_555 1_555
C1 H1 1_555 1_555
C2 C1 1_555 1_555
H2 C2 1_555 1_555
H3 C2 1_555 1_555
C3 C2 1_555 1_555
H4 C3 1_555 1_555
H5 C3 1_555 1_555
C4 C3 1_555 1_555
H6 C4 1_555 1_555
C5 C4 1_555 1_555
H7 C5 1_555 1_555
H8 C5 1_555 1_555
C6 C1 1_555 1_555
H9 C6 1_555 1_555
H10 C6 1_555 1_555
C7 O2 1_555 1_555
C8 C4 1_555 1_555
C9 N1 1_555 1_555
H11 C9 1_555 1_555
C10 C9 1_555 1_555
H12 C10 1_555 1_555
C11 C10 1_555 1_555
H13 C11 1_555 1_555
C12 C11 1_555 1_555
H14 C12 1_555 1_555
C13 N1 1_555 1_555
C14 N2 1_555 1_555
C15 C14 1_555 1_555
H15 C15 1_555 1_555
C16 C15 1_555 1_555
H16 C16 1_555 1_555
C17 C16 1_555 1_555
H17 C17 1_555 1_555
C18 N2 1_555 1_555
H18 C18 1_555 1_555
O5 Cd1 1_555 1_555
H19 O5 1_555 1_555
H20 O5 1_555 1_555
O6 H21 1_555 1_555
H22 O6 1_555 1_555
O7 H23 1_555 1_555
H24 O7 1_555 1_555
O8 H25 1_555 1_555
Cd1C O1C 1_555 1_555
Cd1C_2 O3 1_555 1_555
O1C C7C 1_555 1_555
O2C Cd1C 1_555 1_555
O3C Cd1 1_555 1_555
O3_2 Cd1C 1_555 1_555
O4C Cd1 1_555 1_555
O4_2 Cd1C 1_555 1_555
N1C Cd1C 1_555 1_555
N2C Cd1C 1_555 1_555
C1C H1C 1_555 1_555
C2C C1C 1_555 1_555
H2C C2C 1_555 1_555
H3C C2C 1_555 1_555
C3C C2C 1_555 1_555
H4C C3C 1_555 1_555
H5C C3C 1_555 1_555
C4C C3C 1_555 1_555
H6C C4C 1_555 1_555
C5C C4C 1_555 1_555
H7C C5C 1_555 1_555
H8C C5C 1_555 1_555
C6C C1C 1_555 1_555
H9C C6C 1_555 1_555
H10C C6C 1_555 1_555
C7C O2C 1_555 1_555
C8C O3C 1_555 1_555
C9C N1C 1_555 1_555
H11C C9C 1_555 1_555
C10C C9C 1_555 1_555
H12C C10C 1_555 1_555
C11C C10C 1_555 1_555
H13C C11C 1_555 1_555
C12C C11C 1_555 1_555
H14C C12C 1_555 1_555
C13C N1C 1_555 1_555
C14C N2C 1_555 1_555
C15C C14C 1_555 1_555
H15C C15C 1_555 1_555
C16C C15C 1_555 1_555
H16C C16C 1_555 1_555
C17C C16C 1_555 1_555
H17C C17C 1_555 1_555
C18C N2C 1_555 1_555
H18C C18C 1_555 1_555
O5C Cd1C 1_555 1_555
H19C O5C 1_555 1_555
H20C O5C 1_555 1_555
H25B O8 1_555 1_555
O4 Cd1C_2 1_555 1_555
C1 C7 1_555 1_555
C5 C6 1_555 1_555
C12 C13 1_555 1_555
C13 C14 1_555 1_555
C17 C18 1_555 1_555
O4C C8C 1_555 1_555
C1C C7C 1_555 1_555
C4C C8C 1_555 1_555
C5C C6C 1_555 1_555
C12C C13C 1_555 1_555
C13C C14C 1_555 1_555
C17C C18C 1_555 1_555

#END
