
#######################################################################
#
#                 Cambridge Crystallographic Data Centre
#                                CCDC 
#
#######################################################################
#
# If this CIF has been generated from an entry in the Cambridge 
# Structural Database, then it will include bibliographic, chemical, 
# crystal, experimental, refinement or atomic coordinate data resulting 
# from the CCDC's data processing and validation procedures.
#
#######################################################################

data_EDUQOK01
_symmetry_cell_setting           monoclinic
_symmetry_space_group_name_H-M   'P 21/m'
_symmetry_Int_Tables_number      11
_space_group_name_Hall           '-P 2yb'
loop_
_symmetry_equiv_pos_site_id
_symmetry_equiv_pos_as_xyz
1 x,y,z
2 -x,1/2+y,-z
3 -x,-y,-z
4 x,1/2-y,z
_cell_length_a                   13.569(3)
_cell_length_b                   6.5188(13)
_cell_length_c                   17.250(3)
_cell_angle_alpha                90
_cell_angle_beta                 111.29(3)
_cell_angle_gamma                90
_cell_volume                     1421.69
loop_
_atom_site_label
_atom_site_type_symbol
_atom_site_fract_x
_atom_site_fract_y
_atom_site_fract_z
Fe1 Fe 0.19827(6) 0.2500 0.48351(5)
S1 S 0.24112(10) -0.2500 0.45911(8)
O1 O 0.1936(2) -0.0687(4) 0.48551(17)
O2 O 0.3548(3) -0.2500 0.5027(3)
O3 O 0.2138(3) -0.2500 0.3692(2)
N1 N 0.2338(3) 0.2500 0.3697(3)
N2 N 0.0376(3) 0.2500 0.3757(3)
N3 N 0.0884(3) 0.2500 0.0710(3)
N4 N -0.1174(3) 0.2500 0.0761(3)
N5 N 0.3566(3) 0.2500 0.5927(3)
N6 N 0.1584(3) 0.2500 0.5971(3)
N7 N 0.5079(3) 0.2500 0.8924(3)
N8 N 0.3011(3) 0.2500 0.8960(3)
C1 C 0.3296(5) 0.2500 0.3662(4)
H1 H 0.3873 0.2500 0.4162
C2 C 0.3495(5) 0.2500 0.2933(4)
H2 H 0.4186 0.2500 0.2944
C3 C 0.2661(4) 0.2500 0.2197(4)
H3 H 0.2774 0.2500 0.1697
C4 C 0.1641(4) 0.2500 0.2199(3)
C5 C 0.0715(4) 0.2500 0.1420(3)
C6 C 0.0016(4) 0.2500 0.0003(3)
C7 C 0.0145(4) 0.2500 -0.0777(3)
H4 H 0.0820 0.2500 -0.0799
C8 C -0.0718(4) 0.2500 -0.1492(3)
H5 H -0.0629 0.2500 -0.2001
C9 C -0.1749(4) 0.2500 -0.1472(4)
H6 H -0.2331 0.2500 -0.1968
C10 C -0.1900(4) 0.2500 -0.0730(3)
H7 H -0.2583 0.2500 -0.0726
C11 C -0.1027(4) 0.2500 0.0029(3)
C12 C -0.0321(4) 0.2500 0.1447(3)
C13 C -0.0438(4) 0.2500 0.2254(3)
C14 C -0.1438(4) 0.2500 0.2314(4)
H8 H -0.2045 0.2500 0.1836
C15 C -0.1514(5) 0.2500 0.3081(4)
H9 H -0.2173 0.2500 0.3133
C16 C -0.0598(4) 0.2500 0.3780(4)
H10 H -0.0664 0.2500 0.4299
C17 C 0.0448(4) 0.2500 0.2996(3)
C18 C 0.1512(4) 0.2500 0.2965(3)
C19 C 0.4543(5) 0.2500 0.5915(4)
H11 H 0.4616 0.2500 0.5400
C20 C 0.5449(5) 0.2500 0.6612(4)
H12 H 0.6110 0.2500 0.6565
C21 C 0.5360(4) 0.2500 0.7373(4)
H13 H 0.5964 0.2500 0.7853
C22 C 0.4365(4) 0.2500 0.7433(3)
C23 C 0.4223(4) 0.2500 0.8227(3)
C24 C 0.4912(4) 0.2500 0.9650(3)
C25 C 0.5791(4) 0.2500 1.0421(3)
H14 H 0.6478 0.2500 1.0424
C26 C 0.5622(5) 0.2500 1.1144(3)
H15 H 0.6199 0.2500 1.1643
C27 C 0.4586(4) 0.2500 1.1159(4)
H16 H 0.4492 0.2500 1.1667
C28 C 0.3726(5) 0.2500 1.0440(3)
H17 H 0.3048 0.2500 1.0455
C29 C 0.3869(4) 0.2500 0.9668(3)
C30 C 0.3181(4) 0.2500 0.8251(3)
C31 C 0.2275(4) 0.2500 0.7473(3)
C32 C 0.1237(4) 0.2500 0.7472(3)
H18 H 0.1118 0.2500 0.7970
C33 C 0.0410(4) 0.2500 0.6729(4)
H19 H -0.0283 0.2500 0.6711
C34 C 0.0622(4) 0.2500 0.6002(4)
H20 H 0.0049 0.2500 0.5500
C35 C 0.2410(4) 0.2500 0.6709(3)
C36 C 0.3478(4) 0.2500 0.6688(3)
Fe1_2 Fe 0.19827(6) -0.7500 0.48351(5)
O1C O 0.1936(2) -0.4313(4) 0.48551(17)
O1C_2 O 0.1936(2) 0.5687(4) 0.48551(17)
O4 O 0.6077(3) 0.2500 0.3275(3)
H21 H 0.6390 0.2500 0.3706
loop_
_geom_bond_atom_site_label_1
_geom_bond_atom_site_label_2
_geom_bond_site_symmetry_1
_geom_bond_site_symmetry_2
Fe1 O1 1_555 1_555
S1 O1 1_555 1_555
O2 S1 1_555 1_555
O3 S1 1_555 1_555
N1 Fe1 1_555 1_555
N2 Fe1 1_555 1_555
N3 C5 1_555 1_555
N4 C11 1_555 1_555
N5 Fe1 1_555 1_555
N6 Fe1 1_555 1_555
N7 C23 1_555 1_555
N8 C29 1_555 1_555
C1 N1 1_555 1_555
H1 C1 1_555 1_555
C2 C1 1_555 1_555
H2 C2 1_555 1_555
C3 C2 1_555 1_555
H3 C3 1_555 1_555
C4 C3 1_555 1_555
C5 C4 1_555 1_555
C6 N3 1_555 1_555
C7 C6 1_555 1_555
H4 C7 1_555 1_555
C8 C7 1_555 1_555
H5 C8 1_555 1_555
C9 C8 1_555 1_555
H6 C9 1_555 1_555
C10 C9 1_555 1_555
H7 C10 1_555 1_555
C11 C6 1_555 1_555
C12 N4 1_555 1_555
C13 C12 1_555 1_555
C14 C13 1_555 1_555
H8 C14 1_555 1_555
C15 C14 1_555 1_555
H9 C15 1_555 1_555
C16 N2 1_555 1_555
H10 C16 1_555 1_555
C17 N2 1_555 1_555
C18 N1 1_555 1_555
C19 N5 1_555 1_555
H11 C19 1_555 1_555
C20 C19 1_555 1_555
H12 C20 1_555 1_555
C21 C20 1_555 1_555
H13 C21 1_555 1_555
C22 C21 1_555 1_555
C23 C22 1_555 1_555
C24 N7 1_555 1_555
C25 C24 1_555 1_555
H14 C25 1_555 1_555
C26 C25 1_555 1_555
H15 C26 1_555 1_555
C27 C26 1_555 1_555
H16 C27 1_555 1_555
C28 C27 1_555 1_555
H17 C28 1_555 1_555
C29 C24 1_555 1_555
C30 N8 1_555 1_555
C31 C30 1_555 1_555
C32 C31 1_555 1_555
H18 C32 1_555 1_555
C33 C32 1_555 1_555
H19 C33 1_555 1_555
C34 N6 1_555 1_555
H20 C34 1_555 1_555
C35 N6 1_555 1_555
C36 N5 1_555 1_555
O4 H21 1_555 1_555
Fe1_2 O1C 1_555 1_555
O1C S1 1_555 1_555
O1C_2 Fe1 1_555 1_555
C4 C18 1_555 1_555
C5 C12 1_555 1_555
C10 C11 1_555 1_555
C13 C17 1_555 1_555
C15 C16 1_555 1_555
C17 C18 1_555 1_555
C22 C36 1_555 1_555
C23 C30 1_555 1_555
C28 C29 1_555 1_555
C31 C35 1_555 1_555
C33 C34 1_555 1_555
C35 C36 1_555 1_555

#END
