
#######################################################################
#
#                 Cambridge Crystallographic Data Centre
#                                CCDC 
#
#######################################################################
#
# If this CIF has been generated from an entry in the Cambridge 
# Structural Database, then it will include bibliographic, chemical, 
# crystal, experimental, refinement or atomic coordinate data resulting 
# from the CCDC's data processing and validation procedures.
#
#######################################################################

data_EDURAX
_symmetry_cell_setting           monoclinic
_symmetry_space_group_name_H-M   'P 21/n'
_symmetry_Int_Tables_number      14
_space_group_name_Hall           '-P 2yn'
loop_
_symmetry_equiv_pos_site_id
_symmetry_equiv_pos_as_xyz
1 x,y,z
2 1/2-x,1/2+y,1/2-z
3 -x,-y,-z
4 1/2+x,1/2-y,1/2+z
_cell_length_a                   11.1294(6)
_cell_length_b                   12.2109(7)
_cell_length_c                   13.2924(7)
_cell_angle_alpha                90
_cell_angle_beta                 101.0080(10)
_cell_angle_gamma                90
_cell_volume                     1773.2
loop_
_atom_site_label
_atom_site_type_symbol
_atom_site_fract_x
_atom_site_fract_y
_atom_site_fract_z
I1 I 0.70846(4) 0.50859(4) 0.42967(3)
I2 I 0.72925(4) 0.63673(4) 0.10377(3)
Cd1 Cd 0.59541(3) 0.59870(3) 0.24959(3)
N1 N 0.5170(3) 0.7677(3) 0.2704(3)
N2 N 0.5426(4) 0.8568(3) 0.2178(3)
H2 H 0.6002 0.8594 0.1830
N3 N 0.0920(3) 1.0264(3) 0.3095(3)
N4 N 0.1727(4) 1.0898(3) 0.3735(3)
H3 H 0.1519 1.1447 0.4069
C1 C 0.3664(5) 0.7180(4) 0.3772(4)
H4 H 0.3066 0.6737 0.3338
H5 H 0.3277 0.7579 0.4245
H6 H 0.4293 0.6718 0.4145
C2 C 0.4215(4) 0.7964(4) 0.3133(4)
C3 C 0.3872(4) 0.9052(4) 0.2869(4)
C4 C 0.4669(4) 0.9408(4) 0.2266(4)
C5 C 0.4749(5) 1.0490(4) 0.1743(5)
H7 H 0.5112 1.1024 0.2240
H8 H 0.3943 1.0726 0.1427
H9 H 0.5244 1.0412 0.1230
C6 C 0.1046(5) 0.8661(4) 0.1984(5)
H10 H 0.0299 0.8405 0.2164
H11 H 0.1606 0.8060 0.2003
H12 H 0.0873 0.8965 0.1306
C7 C 0.1599(4) 0.9514(4) 0.2722(4)
C8 C 0.2850(4) 0.9679(4) 0.3138(4)
C9 C 0.2887(4) 1.0570(4) 0.3788(4)
C10 C 0.3915(5) 1.1113(4) 0.4491(5)
H13 H 0.3749 1.1882 0.4526
H14 H 0.4660 1.1009 0.4240
H15 H 0.3999 1.0798 0.5163
Cd1A Cd -0.09541(3) 1.09870(3) 0.25041(3)
N3A N 0.4080(3) 0.5264(3) 0.1905(3)
O1 O 0.1126(6) 1.2458(4) 0.5060(4)
H1 H 0.1723 1.2865 0.5149
C11 C 0.1035(11) 1.1962(7) 0.5970(7)
H16 H 0.1789 1.1593 0.6243
H17 H 0.0378 1.1440 0.5855
H18 H 0.0876 1.2506 0.6450
loop_
_geom_bond_atom_site_label_1
_geom_bond_atom_site_label_2
_geom_bond_site_symmetry_1
_geom_bond_site_symmetry_2
I1 Cd1 1_555 1_555
I2 Cd1 1_555 1_555
Cd1 N1 1_555 1_555
O1 H1 1_555 1_555
N1 N2 1_555 1_555
N2 H2 1_555 1_555
N3 N4 1_555 1_555
N4 H3 1_555 1_555
C1 H4 1_555 1_555
H5 C1 1_555 1_555
H6 C1 1_555 1_555
C2 N1 1_555 1_555
C3 C2 1_555 1_555
C4 N2 1_555 1_555
C5 C4 1_555 1_555
H7 C5 1_555 1_555
H8 C5 1_555 1_555
H9 C5 1_555 1_555
C6 H10 1_555 1_555
H11 C6 1_555 1_555
H12 C6 1_555 1_555
C7 N3 1_555 1_555
C8 C3 1_555 1_555
C9 N4 1_555 1_555
C10 C9 1_555 1_555
H13 C10 1_555 1_555
H14 C10 1_555 1_555
H15 C10 1_555 1_555
C11 O1 1_555 1_555
H16 C11 1_555 1_555
H17 C11 1_555 1_555
H18 C11 1_555 1_555
Cd1A N3 1_555 1_555
N3A Cd1 1_555 1_555
C1 C2 1_555 1_555
C3 C4 1_555 1_555
C6 C7 1_555 1_555
C7 C8 1_555 1_555
C8 C9 1_555 1_555

#END
