
#######################################################################
#
#                 Cambridge Crystallographic Data Centre
#                                CCDC 
#
#######################################################################
#
# If this CIF has been generated from an entry in the Cambridge 
# Structural Database, then it will include bibliographic, chemical, 
# crystal, experimental, refinement or atomic coordinate data resulting 
# from the CCDC's data processing and validation procedures.
#
#######################################################################

data_EDUVEF
_symmetry_cell_setting           triclinic
_symmetry_space_group_name_H-M   'P -1'
_symmetry_Int_Tables_number      2
_space_group_name_Hall           '-P 1'
loop_
_symmetry_equiv_pos_site_id
_symmetry_equiv_pos_as_xyz
1 x,y,z
2 -x,-y,-z
_cell_length_a                   11.439(2)
_cell_length_b                   11.964(2)
_cell_length_c                   12.343(3)
_cell_angle_alpha                94.794(18)
_cell_angle_beta                 115.82(3)
_cell_angle_gamma                101.128(12)
_cell_volume                     1464.87
loop_
_atom_site_label
_atom_site_type_symbol
_atom_site_fract_x
_atom_site_fract_y
_atom_site_fract_z
Pr1 Pr 0.488253(18) 0.430131(16) 0.319055(17)
Pr2 Pr 0.462496(17) 0.167914(16) 0.025852(16)
C1 C 0.7123(3) 0.4174(3) 0.2526(3)
C2 C 0.8420(3) 0.4200(3) 0.2469(3)
H1 H 0.8221 0.3692 0.1712
C3 C 0.9097(4) 0.5418(4) 0.2471(4)
H2 H 0.9243 0.5936 0.3190
H3 H 0.8515 0.5679 0.1752
C4 C 0.9352(4) 0.3750(3) 0.3572(4)
H4 H 0.9435 0.4176 0.4317
H5 H 0.8945 0.2939 0.3502
C5 C 1.0442(4) 0.5469(4) 0.2471(4)
H6 H 1.0292 0.4975 0.1733
H7 H 1.0847 0.6257 0.2464
C6 C 1.0758(4) 0.3865(3) 0.3678(4)
H8 H 1.1335 0.3688 0.4458
H9 H 1.0700 0.3301 0.3033
C7 C 1.1394(3) 0.5078(3) 0.3584(3)
H10 H 1.1609 0.5625 0.4321
C8 C 1.2686(3) 0.5033(3) 0.3541(3)
C9 C 0.2286(4) 0.2082(3) 0.0562(3)
C10 C 0.0992(3) 0.2270(3) 0.0508(4)
H11 H 0.1172 0.3063 0.0929
C11 C 0.0512(3) 0.1417(3) 0.1181(3)
H12 H 0.0498 0.0640 0.0873
H13 H 0.1145 0.1614 0.2048
C12 C -0.0075(4) 0.2124(4) -0.0817(4)
H14 H -0.0206 0.1365 -0.1262
H15 H 0.0233 0.2705 -0.1203
C13 C -0.0887(3) 0.1431(3) 0.1022(3)
H16 H -0.0829 0.2152 0.1489
H17 H -0.1196 0.0798 0.1354
C14 C -0.1411(4) 0.2248(4) -0.0888(4)
H18 H -0.1291 0.3010 -0.0455
H19 H -0.2066 0.2169 -0.1738
C15 C -0.1914(3) 0.1317(3) -0.0317(3)
H20 H -0.2029 0.0556 -0.0767
C16 C -0.3234(3) 0.1365(3) -0.0334(3)
C17 C 0.4813(4) 0.2186(3) 0.4184(3)
C18 C 0.4814(5) 0.1149(3) 0.4800(4)
H21 H 0.4469 0.1289 0.5387
C19 C 0.6205(5) 0.0967(4) 0.5510(4)
H22 H 0.6786 0.1656 0.6125
H23 H 0.6582 0.0841 0.4957
C20 C 0.3862(5) 0.0083(4) 0.3863(4)
H24 H 0.4165 -0.0071 0.3257
H25 H 0.2973 0.0213 0.3445
C21 C 0.2456(4) 0.1272(3) -0.2847(3)
C22 C 0.1333(4) 0.0380(3) -0.3917(3)
H26 H 0.1574 -0.0363 -0.3880
C23 C 0.0041(5) 0.0232(5) -0.3810(4)
H27 H -0.0200 0.0966 -0.3819
H28 H 0.0181 0.0004 -0.3035
C24 C 0.1101(5) 0.0684(5) -0.5141(4)
H29 H 0.1917 0.0748 -0.5222
H30 H 0.0887 0.1430 -0.5187
O1 O 0.6014(2) 0.3505(2) 0.1740(2)
O2 O 0.7147(3) 0.4855(2) 0.3370(3)
O3 O 1.2670(2) 0.4772(2) 0.2521(2)
O4 O 1.3767(2) 0.5187(2) 0.4522(2)
O5 O 0.3421(2) 0.2627(2) 0.1422(2)
O6 O 0.2228(3) 0.1361(2) -0.0272(3)
O7 O -0.3943(2) 0.0465(2) -0.0225(2)
O8 O -0.3589(3) 0.2292(2) -0.0383(2)
O9 O 0.5688(3) 0.2502(2) 0.3825(3)
O10 O 0.3942(3) 0.2739(2) 0.4051(2)
O11 O 0.3319(3) 0.0925(2) -0.1981(2)
O12 O 0.2456(3) 0.2317(2) -0.2863(2)
O13 O 0.5733(3) 0.6472(2) 0.3677(2)
H31 H 0.5998 0.6778 0.4418
H32 H 0.6316 0.6758 0.3456
O14 O 0.4036(3) 0.5128(2) 0.1098(2)
H33 H 0.4583 0.5631 0.0980
H34 H 0.3428 0.5457 0.1062
O15 O 0.6203(3) 0.1250(2) 0.2213(2)
H35 H 0.6340 0.1582 0.2909
H36 H 0.6368 0.0589 0.2269
O16 O 0.4041(3) 0.3423(2) -0.0683(2)
H37 H 0.3485 0.3204 -0.1440
H38 H 0.3895 0.3857 -0.0200
Pr1_2 Pr -0.511747(18) 0.430131(16) 0.319055(17)
Pr1_3 Pr 1.488253(18) 0.430131(16) 0.319055(17)
Pr1A Pr 1.511747(18) 0.569869(16) 0.680945(17)
Pr1A_2 Pr 0.511747(18) -0.430131(16) 0.680945(17)
Pr1A_3 Pr 0.511747(18) 0.569869(16) 0.680945(17)
Pr2_2 Pr -0.537504(17) 0.167914(16) 0.025852(16)
Pr2A Pr -0.462496(17) -0.167914(16) -0.025852(16)
Pr2A_2 Pr -0.462496(17) -0.167914(16) -1.025852(16)
Pr2_3 Pr 1.462496(17) 0.167914(16) 0.025852(16)
Pr2A_3 Pr 0.537504(17) -0.167914(16) -0.025852(16)
C1_2 C -0.2877(3) 0.4174(3) 0.2526(3)
C2_2 C -0.1580(3) 0.4200(3) 0.2469(3)
H1_2 H -0.1779 0.3692 0.1712
C3_2 C -0.0903(4) 0.5418(4) 0.2471(4)
H2_2 H -0.0757 0.5936 0.3190
H3_2 H -0.1485 0.5679 0.1752
C4_2 C -0.0648(4) 0.3750(3) 0.3572(4)
H4_2 H -0.0565 0.4176 0.4317
H5_2 H -0.1055 0.2939 0.3502
C5_2 C 0.0442(4) 0.5469(4) 0.2471(4)
H6_2 H 0.0292 0.4975 0.1733
H7_2 H 0.0847 0.6257 0.2464
C6_2 C 0.0758(4) 0.3865(3) 0.3678(4)
H8_2 H 0.1335 0.3688 0.4458
H9_2 H 0.0700 0.3301 0.3033
C7_2 C 0.1394(3) 0.5078(3) 0.3584(3)
H10_2 H 0.1609 0.5625 0.4321
C8_2 C 0.2686(3) 0.5033(3) 0.3541(3)
C9_2 C 1.2286(4) 0.2082(3) 0.0562(3)
C10_2 C 1.0992(3) 0.2270(3) 0.0508(4)
H11_2 H 1.1172 0.3063 0.0929
C11_2 C 1.0512(3) 0.1417(3) 0.1181(3)
H12_2 H 1.0498 0.0640 0.0873
H13_2 H 1.1145 0.1614 0.2048
C12_2 C 0.9925(4) 0.2124(4) -0.0817(4)
H14_2 H 0.9794 0.1365 -0.1262
H15_2 H 1.0233 0.2705 -0.1203
C13_2 C 0.9113(3) 0.1431(3) 0.1022(3)
H16_2 H 0.9171 0.2152 0.1489
H17_2 H 0.8804 0.0798 0.1354
C14_2 C 0.8589(4) 0.2248(4) -0.0888(4)
H18_2 H 0.8709 0.3010 -0.0455
H19_2 H 0.7934 0.2169 -0.1738
C15_2 C 0.8086(3) 0.1317(3) -0.0317(3)
H20_2 H 0.7971 0.0556 -0.0767
C16_2 C 0.6766(3) 0.1365(3) -0.0334(3)
C17A C 0.5187(4) -0.2186(3) 0.5816(3)
C18A C 0.5186(5) -0.1149(3) 0.5200(4)
H21A H 0.5531 -0.1289 0.4613
C19A C 0.3795(5) -0.0967(4) 0.4490(4)
H22A H 0.3214 -0.1656 0.3875
H23A H 0.3418 -0.0841 0.5043
C20A C 0.6138(5) -0.0083(4) 0.6137(4)
H24A H 0.5835 0.0071 0.6743
H25A H 0.7027 -0.0213 0.6555
C21A C -0.2456(4) -0.1272(3) -0.7153(3)
C22A C -0.1333(4) -0.0380(3) -0.6083(3)
H26A H -0.1574 0.0363 -0.6120
C23A C -0.0041(5) -0.0232(5) -0.6190(4)
H27A H 0.0200 -0.0966 -0.6181
H28A H -0.0181 -0.0004 -0.6965
C24A C -0.1101(5) -0.0684(5) -0.4859(4)
H29A H -0.1917 -0.0748 -0.4778
H30A H -0.0887 -0.1430 -0.4813
O1_2 O -0.3986(2) 0.3505(2) 0.1740(2)
O2_2 O -0.2853(3) 0.4855(2) 0.3370(3)
O3_2 O 0.2670(2) 0.4772(2) 0.2521(2)
O3_3 O -0.7330(2) 0.4772(2) 0.2521(2)
O4_2 O 0.3767(2) 0.5187(2) 0.4522(2)
O4A O 0.6233(2) 0.4813(2) 0.5478(2)
O4_3 O -0.6233(2) 0.5187(2) 0.4522(2)
O4A_2 O -0.3767(2) 0.4813(2) 0.5478(2)
O5_2 O 1.3421(2) 0.2627(2) 0.1422(2)
O5_3 O -0.6579(2) 0.2627(2) 0.1422(2)
O6_2 O 1.2228(3) 0.1361(2) -0.0272(3)
O6_3 O -0.7772(3) 0.1361(2) -0.0272(3)
O7_2 O 0.6057(2) 0.0465(2) -0.0225(2)
O7A O 0.3943(2) -0.0465(2) 0.0225(2)
O7A_2 O -0.6057(2) -0.0465(2) 0.0225(2)
O8_2 O 0.6411(3) 0.2292(2) -0.0383(2)
O9A O 0.4312(3) -0.2502(2) 0.6175(3)
O9_2 O -0.4312(3) 0.2502(2) 0.3825(3)
O10A O 0.6058(3) -0.2739(2) 0.5949(2)
O10_2 O -0.6058(3) 0.2739(2) 0.4051(2)
O11A O -0.3319(3) -0.0925(2) -0.8019(2)
O11_2 O -0.6681(3) 0.0925(2) -0.1981(2)
O12A O -0.2456(3) -0.2317(2) -0.7137(2)
O13_2 O -0.4267(3) 0.6472(2) 0.3677(2)
H31_2 H -0.4002 0.6778 0.4418
H32_2 H -0.3684 0.6758 0.3456
O14_2 O -0.5964(3) 0.5128(2) 0.1098(2)
H33_2 H -0.5417 0.5631 0.0980
H34_2 H -0.6572 0.5457 0.1062
O15_2 O -0.3797(3) 0.1250(2) 0.2213(2)
H35_2 H -0.3660 0.1582 0.2909
H36_2 H -0.3632 0.0589 0.2269
O16_2 O -0.5959(3) 0.3423(2) -0.0683(2)
H37_2 H -0.6515 0.3204 -0.1440
H38_2 H -0.6105 0.3857 -0.0200
loop_
_geom_bond_atom_site_label_1
_geom_bond_atom_site_label_2
_geom_bond_site_symmetry_1
_geom_bond_site_symmetry_2
Pr1 O1 1_555 1_555
Pr2 O1 1_555 1_555
C1 C2 1_555 1_555
C2 H1 1_555 1_555
C3 C2 1_555 1_555
H2 C3 1_555 1_555
H3 C3 1_555 1_555
C4 C2 1_555 1_555
H4 C4 1_555 1_555
H5 C4 1_555 1_555
C5 C3 1_555 1_555
H6 C5 1_555 1_555
H7 C5 1_555 1_555
C6 C4 1_555 1_555
H8 C6 1_555 1_555
H9 C6 1_555 1_555
C7 C5 1_555 1_555
H10 C7 1_555 1_555
C8 C7 1_555 1_555
C9 C10 1_555 1_555
C10 H11 1_555 1_555
C11 C10 1_555 1_555
H12 C11 1_555 1_555
H13 C11 1_555 1_555
C12 C10 1_555 1_555
H14 C12 1_555 1_555
H15 C12 1_555 1_555
C13 C11 1_555 1_555
H16 C13 1_555 1_555
H17 C13 1_555 1_555
C14 C12 1_555 1_555
H18 C14 1_555 1_555
H19 C14 1_555 1_555
C15 C13 1_555 1_555
H20 C15 1_555 1_555
C16 C15 1_555 1_555
C17 C18 1_555 1_555
C18 H21 1_555 1_555
C19 C18 1_555 1_555
H22 C19 1_555 1_555
H23 C19 1_555 1_555
C20 C18 1_555 1_555
H24 C20 1_555 1_555
H25 C20 1_555 1_555
C21 C22 1_555 1_555
C22 H26 1_555 1_555
C23 C22 1_555 1_555
H27 C23 1_555 1_555
H28 C23 1_555 1_555
C24 C22 1_555 1_555
H29 C24 1_555 1_555
H30 C24 1_555 1_555
O1 C1 1_555 1_555
O2 Pr1 1_555 1_555
O3 C8 1_555 1_555
O4 C8 1_555 1_555
O5 Pr1 1_555 1_555
O6 Pr2 1_555 1_555
O7 C16 1_555 1_555
O8 C16 1_555 1_555
O9 Pr1 1_555 1_555
O10 Pr1 1_555 1_555
O11 Pr2 1_555 1_555
O12 C21 1_555 1_555
O13 Pr1 1_555 1_555
H31 O13 1_555 1_555
H32 O13 1_555 1_555
O14 Pr1 1_555 1_555
H33 O14 1_555 1_555
H34 O14 1_555 1_555
O15 Pr2 1_555 1_555
H35 O15 1_555 1_555
H36 O15 1_555 1_555
O16 Pr2 1_555 1_555
H37 O16 1_555 1_555
H38 O16 1_555 1_555
Pr1_2 O1_2 1_555 1_555
Pr1_3 O3 1_555 1_555
Pr1A O4 1_555 1_555
Pr1A_2 O9A 1_555 1_555
Pr1A_3 O4_2 1_555 1_555
Pr2_2 O7 1_555 1_555
Pr2A O7 1_555 1_555
Pr2A_2 O11A 1_555 1_555
Pr2_3 O5_2 1_555 1_555
Pr2A_3 O7_2 1_555 1_555
C1_2 C2_2 1_555 1_555
C2_2 H1_2 1_555 1_555
C3_2 C2_2 1_555 1_555
H2_2 C3_2 1_555 1_555
H3_2 C3_2 1_555 1_555
C4_2 C2_2 1_555 1_555
H4_2 C4_2 1_555 1_555
H5_2 C4_2 1_555 1_555
C5_2 C3_2 1_555 1_555
H6_2 C5_2 1_555 1_555
H7_2 C5_2 1_555 1_555
C6_2 C4_2 1_555 1_555
H8_2 C6_2 1_555 1_555
H9_2 C6_2 1_555 1_555
C7_2 C5_2 1_555 1_555
H10_2 C7_2 1_555 1_555
C8_2 C7_2 1_555 1_555
C9_2 C10_2 1_555 1_555
C10_2 H11_2 1_555 1_555
C11_2 C10_2 1_555 1_555
H12_2 C11_2 1_555 1_555
H13_2 C11_2 1_555 1_555
C12_2 C10_2 1_555 1_555
H14_2 C12_2 1_555 1_555
H15_2 C12_2 1_555 1_555
C13_2 C11_2 1_555 1_555
H16_2 C13_2 1_555 1_555
H17_2 C13_2 1_555 1_555
C14_2 C12_2 1_555 1_555
H18_2 C14_2 1_555 1_555
H19_2 C14_2 1_555 1_555
C15_2 C13_2 1_555 1_555
H20_2 C15_2 1_555 1_555
C16_2 C15_2 1_555 1_555
C17A C18A 1_555 1_555
C18A H21A 1_555 1_555
C19A C20 1_555 1_555
H22A C19A 1_555 1_555
H23A C19A 1_555 1_555
C20A C19 1_555 1_555
H24A C20A 1_555 1_555
H25A C20A 1_555 1_555
C21A C22A 1_555 1_555
C22A H26A 1_555 1_555
C23A C24 1_555 1_555
H27A C23A 1_555 1_555
H28A C23A 1_555 1_555
C24A C23 1_555 1_555
H29A C24A 1_555 1_555
H30A C24A 1_555 1_555
O1_2 Pr2_2 1_555 1_555
O2_2 Pr1_2 1_555 1_555
O3_2 Pr1 1_555 1_555
O3_3 Pr1_2 1_555 1_555
O4_2 Pr1 1_555 1_555
O4A Pr1 1_555 1_555
O4_3 Pr1_2 1_555 1_555
O4A_2 Pr1_2 1_555 1_555
O5_2 Pr1_3 1_555 1_555
O5_3 Pr1_2 1_555 1_555
O6_2 Pr2_3 1_555 1_555
O6_3 Pr2_2 1_555 1_555
O7_2 Pr2 1_555 1_555
O7A Pr2 1_555 1_555
O7A_2 Pr2_2 1_555 1_555
O8_2 Pr2 1_555 1_555
O9A C17A 1_555 1_555
O9_2 Pr1_2 1_555 1_555
O10A Pr1A_2 1_555 1_555
O10_2 Pr1_2 1_555 1_555
O11A C21A 1_555 1_555
O11_2 Pr2_2 1_555 1_555
O12A C21A 1_555 1_555
O13_2 Pr1_2 1_555 1_555
H31_2 O13_2 1_555 1_555
H32_2 O13_2 1_555 1_555
O14_2 Pr1_2 1_555 1_555
H33_2 O14_2 1_555 1_555
H34_2 O14_2 1_555 1_555
O15_2 Pr2_2 1_555 1_555
H35_2 O15_2 1_555 1_555
H36_2 O15_2 1_555 1_555
O16_2 Pr2_2 1_555 1_555
H37_2 O16_2 1_555 1_555
H38_2 O16_2 1_555 1_555
Pr2 O5 1_555 1_555
C1 O2 1_555 1_555
C6 C7 1_555 1_555
C9 O5 1_555 1_555
C9 O6 1_555 1_555
C14 C15 1_555 1_555
C17 O9 1_555 1_555
C17 O10 1_555 1_555
C21 O11 1_555 1_555
O4 Pr1_3 1_555 1_555
O8 Pr2_2 1_555 1_555
Pr1A_3 O4A 1_555 1_555
Pr2_2 O5_3 1_555 1_555
Pr2A O7A_2 1_555 1_555
Pr2A_3 O7A 1_555 1_555
C1_2 O1_2 1_555 1_555
C1_2 O2_2 1_555 1_555
C6_2 C7_2 1_555 1_555
C8_2 O3_2 1_555 1_555
C8_2 O4_2 1_555 1_555
C9_2 O5_2 1_555 1_555
C9_2 O6_2 1_555 1_555
C14_2 C15_2 1_555 1_555
C16_2 O7_2 1_555 1_555
C16_2 O8_2 1_555 1_555
C17A O10A 1_555 1_555
C18A C19A 1_555 1_555
C18A C20A 1_555 1_555
C22A C23A 1_555 1_555
C22A C24A 1_555 1_555

#END
