
#######################################################################
#
#                 Cambridge Crystallographic Data Centre
#                                CCDC 
#
#######################################################################
#
# If this CIF has been generated from an entry in the Cambridge 
# Structural Database, then it will include bibliographic, chemical, 
# crystal, experimental, refinement or atomic coordinate data resulting 
# from the CCDC's data processing and validation procedures.
#
#######################################################################

data_EFADAR
_symmetry_cell_setting           monoclinic
_symmetry_space_group_name_H-M   'P 21'
_symmetry_Int_Tables_number      4
_space_group_name_Hall           'P 2yb'
loop_
_symmetry_equiv_pos_site_id
_symmetry_equiv_pos_as_xyz
1 x,y,z
2 -x,1/2+y,-z
_cell_length_a                   9.9528(7)
_cell_length_b                   10.7265(7)
_cell_length_c                   16.1488(10)
_cell_angle_alpha                90.00
_cell_angle_beta                 93.504(6)
_cell_angle_gamma                90.00
_cell_volume                     1720.8
loop_
_atom_site_label
_atom_site_type_symbol
_atom_site_fract_x
_atom_site_fract_y
_atom_site_fract_z
Sn1 Sn 0.45018(6) 0.56857(6) 0.46906(4)
Sn2 Sn 0.18801(7) 0.91009(7) 0.28683(4)
P1 P 0.2858(2) 0.8568(2) 0.48192(14)
O1 O 0.2958(6) 0.7232(6) 0.4514(4)
O2 O 0.2292(7) 0.9446(6) 0.4121(4)
O3 O 0.4128(6) 0.9069(7) 0.5254(4)
O4 O 0.1633(7) 0.7821(7) 0.6254(4)
C1 C 0.3189(11) 0.4657(13) 0.3885(9)
H1 H 0.2673 0.4094 0.4201
H2 H 0.3701 0.4191 0.3506
H3 H 0.2592 0.5217 0.3578
C2 C 0.6066(10) 0.6813(12) 0.4253(8)
H4 H 0.6209 0.6598 0.3688
H5 H 0.6881 0.6674 0.4590
H6 H 0.5816 0.7675 0.4283
C3 C 0.4313(14) 0.5687(16) 0.5996(7)
H7 H 0.3382 0.5601 0.6110
H8 H 0.4656 0.6457 0.6227
H9 H 0.4816 0.5003 0.6242
C4 C 0.1805(16) 1.1077(13) 0.2580(8)
H10 H 0.2703 1.1408 0.2601
H11 H 0.1290 1.1502 0.2977
H12 H 0.1388 1.1195 0.2033
C5 C 0.0052(13) 0.8217(18) 0.2913(10)
H13 H -0.0556 0.8528 0.2476
H14 H -0.0314 0.8376 0.3439
H15 H 0.0171 0.7336 0.2844
C6 C 0.3585(13) 0.8174(18) 0.2536(7)
H16 H 0.4317 0.8352 0.2933
H17 H 0.3813 0.8446 0.1996
H18 H 0.3416 0.7292 0.2525
C7 C 0.1605(9) 0.8693(9) 0.5571(5)
H19 H 0.1447 0.9554 0.5743
C8 C 0.0450(10) 0.7864(13) 0.5692(6)
H20 H -0.0328 0.8277 0.5915
C9 C 0.0123(15) 0.6738(15) 0.5199(8)
H21 H -0.0072 0.6064 0.5564
H22 H 0.0877 0.6519 0.4885
H23 H -0.0647 0.6898 0.4828
Sn1A Sn 0.54982(6) 1.06857(6) 0.53094(4)
O3A O 0.5872(6) 0.4069(7) 0.4746(4)
Sn3 Sn 0.53651(6) 0.69051(6) 0.04421(4)
Sn4 Sn 0.79046(7) 0.31332(6) 0.21085(4)
P2 P 0.7067(2) 0.4114(3) 0.01958(14)
O5 O 0.6815(7) 0.5327(7) 0.0622(4)
O6 O 0.7559(7) 0.3123(8) 0.0826(4)
O7 O 0.5902(8) 0.3661(8) -0.0364(4)
O8 O 0.8629(8) 0.3685(10) -0.1185(5)
C10 C 0.6611(11) 0.7852(14) 0.1361(8)
H24 H 0.6178 0.8610 0.1516
H25 H 0.7461 0.8046 0.1141
H26 H 0.6755 0.7328 0.1840
C11 C 0.3705(11) 0.5812(14) 0.0712(9)
H27 H 0.3331 0.6118 0.1207
H28 H 0.3986 0.4963 0.0795
H29 H 0.3036 0.5855 0.0259
C12 C 0.5801(14) 0.7047(15) -0.0820(7)
H30 H 0.5678 0.6249 -0.1083
H31 H 0.6716 0.7313 -0.0858
H32 H 0.5207 0.7643 -0.1093
C13 C 0.6138(13) 0.4027(16) 0.2514(7)
H33 H 0.5431 0.3978 0.2084
H34 H 0.6334 0.4886 0.2637
H35 H 0.5857 0.3618 0.3004
C14 C 0.9664(15) 0.4305(14) 0.2196(8)
H36 H 1.0428 0.3839 0.2032
H37 H 0.9825 0.4586 0.2757
H38 H 0.9523 0.5012 0.1836
C15 C 0.8023(14) 0.1193(11) 0.2169(7)
H39 H 0.7164 0.0859 0.2295
H40 H 0.8689 0.0955 0.2595
H41 H 0.8272 0.0872 0.1645
C16 C 0.8412(10) 0.4495(10) -0.0465(7)
H42 H 0.8442 0.5385 -0.0602
C17 C 0.9704(11) 0.3861(15) -0.0564(7)
H43 H 1.0436 0.4402 -0.0728
C18 C 1.0153(18) 0.269(2) -0.0101(13)
H44 H 0.9380 0.2263 0.0089
H45 H 1.0750 0.2905 0.0366
H46 H 1.0612 0.2149 -0.0466
Sn3A Sn 0.46349(6) 0.19051(6) -0.04421(4)
O7A O 0.4098(8) 0.8661(8) 0.0364(4)
loop_
_geom_bond_atom_site_label_1
_geom_bond_atom_site_label_2
_geom_bond_site_symmetry_1
_geom_bond_site_symmetry_2
Sn1 O1 1_555 1_555
Sn2 O2 1_555 1_555
P1 O1 1_555 1_555
O2 P1 1_555 1_555
O3 P1 1_555 1_555
O4 C7 1_555 1_555
C1 Sn1 1_555 1_555
H1 C1 1_555 1_555
H2 C1 1_555 1_555
H3 C1 1_555 1_555
C2 Sn1 1_555 1_555
H4 C2 1_555 1_555
H5 C2 1_555 1_555
H6 C2 1_555 1_555
C3 Sn1 1_555 1_555
H7 C3 1_555 1_555
H8 C3 1_555 1_555
H9 C3 1_555 1_555
C4 Sn2 1_555 1_555
H10 C4 1_555 1_555
H11 C4 1_555 1_555
H12 C4 1_555 1_555
C5 Sn2 1_555 1_555
H13 C5 1_555 1_555
H14 C5 1_555 1_555
H15 C5 1_555 1_555
C6 Sn2 1_555 1_555
H16 C6 1_555 1_555
H17 C6 1_555 1_555
H18 C6 1_555 1_555
C7 P1 1_555 1_555
H19 C7 1_555 1_555
C8 O4 1_555 1_555
H20 C8 1_555 1_555
C9 C8 1_555 1_555
H21 C9 1_555 1_555
H22 C9 1_555 1_555
H23 C9 1_555 1_555
Sn3 O5 1_555 1_555
Sn4 O6 1_555 1_555
P2 O5 1_555 1_555
O6 P2 1_555 1_555
O7 P2 1_555 1_555
O8 C16 1_555 1_555
C10 Sn3 1_555 1_555
H24 C10 1_555 1_555
H25 C10 1_555 1_555
H26 C10 1_555 1_555
C11 Sn3 1_555 1_555
H27 C11 1_555 1_555
H28 C11 1_555 1_555
H29 C11 1_555 1_555
C12 Sn3 1_555 1_555
H30 C12 1_555 1_555
H31 C12 1_555 1_555
H32 C12 1_555 1_555
C13 Sn4 1_555 1_555
H33 C13 1_555 1_555
H34 C13 1_555 1_555
H35 C13 1_555 1_555
C14 Sn4 1_555 1_555
H36 C14 1_555 1_555
H37 C14 1_555 1_555
H38 C14 1_555 1_555
C15 Sn4 1_555 1_555
H39 C15 1_555 1_555
H40 C15 1_555 1_555
H41 C15 1_555 1_555
C16 P2 1_555 1_555
H42 C16 1_555 1_555
C17 O8 1_555 1_555
H43 C17 1_555 1_555
C18 C17 1_555 1_555
H44 C18 1_555 1_555
H45 C18 1_555 1_555
H46 C18 1_555 1_555
Sn1A O3 1_555 1_555
O3A Sn1 1_555 1_555
Sn3A O7 1_555 1_555
O7A Sn3 1_555 1_555
C7 C8 1_555 1_555
C16 C17 1_555 1_555

#END
