
#######################################################################
#
#                 Cambridge Crystallographic Data Centre
#                                CCDC 
#
#######################################################################
#
# If this CIF has been generated from an entry in the Cambridge 
# Structural Database, then it will include bibliographic, chemical, 
# crystal, experimental, refinement or atomic coordinate data resulting 
# from the CCDC's data processing and validation procedures.
#
#######################################################################

data_EFALIG
_symmetry_cell_setting           monoclinic
_symmetry_space_group_name_H-M   'P 21/c'
_symmetry_Int_Tables_number      14
_space_group_name_Hall           '-P 2ybc'
loop_
_symmetry_equiv_pos_site_id
_symmetry_equiv_pos_as_xyz
1 x,y,z
2 x,1/2-y,1/2+z
3 -x,-y,-z
4 -x,1/2+y,1/2-z
_cell_length_a                   18.62270(10)
_cell_length_b                   14.27080(10)
_cell_length_c                   17.52550(10)
_cell_angle_alpha                90
_cell_angle_beta                 91.6500(10)
_cell_angle_gamma                90
_cell_volume                     4655.66
loop_
_atom_site_label
_atom_site_type_symbol
_atom_site_fract_x
_atom_site_fract_y
_atom_site_fract_z
Cu1 Cu 0.499829(11) -0.364789(16) 0.261012(11)
S1 S 0.56188(2) -0.59098(3) 0.19495(2)
O1 O 0.51062(7) -0.52287(9) 0.22565(7)
O2 O 0.58860(8) -0.55606(10) 0.12128(7)
O3 O 0.52640(7) -0.68225(9) 0.18358(9)
O4 O 0.62412(7) -0.60075(9) 0.24876(7)
N1 N 0.53634(7) -0.39228(10) 0.36746(8)
N2 N 0.55952(8) -0.37558(10) 0.49020(8)
N3 N 0.39944(7) -0.39084(10) 0.29611(8)
N4 N 0.29024(8) -0.37450(11) 0.33868(8)
N5 N 0.46004(7) -0.33103(10) 0.15786(8)
N6 N 0.39526(8) -0.26715(10) 0.06540(8)
N7 N 0.59807(8) -0.31941(11) 0.23184(8)
N8 N 0.70692(8) -0.31038(12) 0.18733(9)
C1 C 0.53201(9) -0.33536(13) 0.42659(10)
H1 H 0.5125 -0.2754 0.4244
C2 C 0.58244(10) -0.46325(13) 0.47032(10)
H2 H 0.6036 -0.5076 0.5027
C3 C 0.56829(9) -0.47298(13) 0.39436(10)
H3 H 0.5785 -0.5256 0.3653
C4 C 0.56646(11) -0.33389(14) 0.56580(10)
H4 H 0.5494 -0.2704 0.5639
H5 H 0.5386 -0.3692 0.6009
H6 H 0.6160 -0.3344 0.5825
C5 C 0.34909(9) -0.33014(12) 0.31491(10)
H7 H 0.3539 -0.2654 0.3120
C6 C 0.30355(10) -0.46856(13) 0.33476(11)
H8 H 0.2725 -0.5167 0.3478
C7 C 0.37101(10) -0.47787(13) 0.30812(11)
H9 H 0.3942 -0.5344 0.2994
C8 C 0.22391(10) -0.33023(16) 0.36372(12)
H10 H 0.2276 -0.2635 0.3580
H11 H 0.1840 -0.3529 0.3332
H12 H 0.2167 -0.3452 0.4163
C9 C 0.41537(9) -0.26232(12) 0.13968(9)
H13 H 0.3999 -0.2169 0.1735
C10 C 0.42908(10) -0.34320(13) 0.03436(10)
H14 H 0.4253 -0.3638 -0.0159
C11 C 0.46922(10) -0.38217(13) 0.09217(10)
H15 H 0.4982 -0.4349 0.0880
C12 C 0.34355(11) -0.20616(15) 0.02593(12)
H16 H 0.3241 -0.1626 0.0617
H17 H 0.3671 -0.1723 -0.0136
H18 H 0.3054 -0.2433 0.0037
C13 C 0.64755(10) -0.36325(13) 0.19260(10)
H19 H 0.6420 -0.4227 0.1715
C14 C 0.69444(11) -0.22825(14) 0.22447(11)
H20 H 0.7259 -0.1779 0.2299
C15 C 0.62721(10) -0.23415(13) 0.25195(11)
H21 H 0.6045 -0.1879 0.2799
C16 C 0.77291(11) -0.33598(19) 0.14854(14)
H22 H 0.7776 -0.2977 0.1039
H23 H 0.8136 -0.3262 0.1825
H24 H 0.7707 -0.4007 0.1338
O3C O 0.47360(7) -0.18225(9) 0.31642(9)
Cu1C Cu 0.500171(11) -0.864789(16) 0.238988(11)
Cu2 Cu 0.013919(11) -0.416559(16) 0.264011(11)
S2 S 0.07097(2) -0.15721(3) 0.29701(2)
O5 O 0.06826(7) -0.25479(9) 0.27022(7)
O6 O 0.02589(7) -0.09634(9) 0.24730(7)
O7 O 0.14642(6) -0.12274(9) 0.29653(8)
O8 O 0.04528(7) -0.15361(9) 0.37623(7)
N9 N -0.02357(8) -0.37777(10) 0.16061(8)
N10 N -0.06946(8) -0.38306(10) 0.04398(8)
N11 N 0.10588(8) -0.45830(10) 0.21926(8)
N12 N 0.20856(7) -0.44650(10) 0.16179(8)
N13 N 0.05209(7) -0.44348(10) 0.37098(8)
N14 N 0.08916(8) -0.41929(11) 0.48961(8)
N15 N -0.08021(8) -0.38241(10) 0.30791(8)
N16 N -0.19043(8) -0.39301(11) 0.34700(9)
C17 C -0.04812(10) -0.43304(12) 0.10547(10)
H25 H -0.0504 -0.4980 0.1087
C18 C -0.05756(11) -0.29040(13) 0.06113(11)
H26 H -0.0670 -0.2393 0.0294
C19 C -0.02939(10) -0.28785(13) 0.13308(10)
H27 H -0.0161 -0.2339 0.1597
C20 C -0.10045(12) -0.41974(15) -0.02705(11)
H28 H -0.1031 -0.4868 -0.0242
H29 H -0.1479 -0.3946 -0.0352
H30 H -0.0709 -0.4020 -0.0687
C21 C 0.15110(9) -0.40038(13) 0.18670(10)
H31 H 0.1440 -0.3361 0.1817
C22 C 0.19960(9) -0.53949(13) 0.17914(10)
H32 H 0.2309 -0.5883 0.1687
C23 C 0.13586(9) -0.54608(12) 0.21454(10)
H33 H 0.1157 -0.6011 0.2327
C24 C 0.26920(10) -0.40369(15) 0.12410(12)
H34 H 0.2641 -0.3368 0.1246
H35 H 0.3131 -0.4209 0.1506
H36 H 0.2704 -0.4253 0.0723
C25 C 0.06346(9) -0.37973(12) 0.42501(9)
H37 H 0.0548 -0.3160 0.4189
C26 C 0.09426(11) -0.51411(13) 0.47659(11)
H38 H 0.1101 -0.5596 0.5111
C27 C 0.07140(10) -0.52773(13) 0.40300(10)
H39 H 0.0692 -0.5853 0.3782
C28 C 0.10936(11) -0.37097(14) 0.56068(11)
H40 H 0.1043 -0.3046 0.5536
H41 H 0.0786 -0.3912 0.6005
H42 H 0.1584 -0.3854 0.5746
C29 C -0.13776(9) -0.43609(12) 0.30975(10)
H43 H -0.1414 -0.4955 0.2882
C30 C -0.16489(10) -0.30720(13) 0.37052(11)
H44 H -0.1895 -0.2622 0.3979
C31 C -0.09651(10) -0.30119(13) 0.34576(10)
H45 H -0.0658 -0.2504 0.3532
C32 C -0.26156(10) -0.43117(15) 0.36292(13)
H46 H -0.2632 -0.4483 0.4158
H47 H -0.2976 -0.3847 0.3516
H48 H -0.2704 -0.4855 0.3318
O6C O -0.02589(7) -0.59634(9) 0.25270(7)
Cu2C Cu -0.013919(11) 0.083441(16) 0.235989(11)
O9 O 0.24702(9) -0.17514(13) 0.19041(10)
H49 H 0.2141(16) -0.162(2) 0.2180(17)
H50 H 0.2791(16) -0.156(2) 0.2094(16)
O10 O 0.26049(12) -0.07596(18) 0.40307(12)
H51 H 0.300(2) -0.074(2) 0.3877(19)
H52 H 0.2352(19) -0.083(2) 0.365(2)
O11 O 0.14936(13) -0.15637(14) 0.49416(10)
H53 H 0.1183(17) -0.154(2) 0.4596(18)
H54 H 0.1812(16) -0.137(2) 0.4760(16)
N17 N -0.29741(12) -0.21602(19) 0.47097(14)
C33 C -0.33913(12) -0.15952(17) 0.46150(14)
C34 C -0.39318(14) -0.08688(17) 0.44966(17)
H55 H -0.4400 -0.1150 0.4464
H56 H -0.3842 -0.0540 0.4031
H57 H -0.3910 -0.0437 0.4917
loop_
_geom_bond_atom_site_label_1
_geom_bond_atom_site_label_2
_geom_bond_site_symmetry_1
_geom_bond_site_symmetry_2
Cu1 O1 1_555 1_555
S1 O1 1_555 1_555
O2 S1 1_555 1_555
O3 S1 1_555 1_555
O4 S1 1_555 1_555
N1 Cu1 1_555 1_555
N2 C1 1_555 1_555
N3 Cu1 1_555 1_555
N4 C5 1_555 1_555
N5 Cu1 1_555 1_555
N6 C9 1_555 1_555
N7 Cu1 1_555 1_555
N8 C13 1_555 1_555
C1 N1 1_555 1_555
H1 C1 1_555 1_555
C2 N2 1_555 1_555
H2 C2 1_555 1_555
C3 N1 1_555 1_555
H3 C3 1_555 1_555
C4 N2 1_555 1_555
H4 C4 1_555 1_555
H5 C4 1_555 1_555
H6 C4 1_555 1_555
C5 N3 1_555 1_555
H7 C5 1_555 1_555
C6 N4 1_555 1_555
H8 C6 1_555 1_555
C7 N3 1_555 1_555
H9 C7 1_555 1_555
C8 N4 1_555 1_555
H10 C8 1_555 1_555
H11 C8 1_555 1_555
H12 C8 1_555 1_555
C9 N5 1_555 1_555
H13 C9 1_555 1_555
C10 N6 1_555 1_555
H14 C10 1_555 1_555
C11 N5 1_555 1_555
H15 C11 1_555 1_555
C12 N6 1_555 1_555
H16 C12 1_555 1_555
H17 C12 1_555 1_555
H18 C12 1_555 1_555
C13 N7 1_555 1_555
H19 C13 1_555 1_555
C14 N8 1_555 1_555
H20 C14 1_555 1_555
C15 N7 1_555 1_555
H21 C15 1_555 1_555
C16 N8 1_555 1_555
H22 C16 1_555 1_555
H23 C16 1_555 1_555
H24 C16 1_555 1_555
Cu2 O5 1_555 1_555
S2 O5 1_555 1_555
O6 S2 1_555 1_555
O7 S2 1_555 1_555
O8 S2 1_555 1_555
N9 Cu2 1_555 1_555
N10 C17 1_555 1_555
N11 Cu2 1_555 1_555
N12 C21 1_555 1_555
N13 Cu2 1_555 1_555
N14 C25 1_555 1_555
N15 Cu2 1_555 1_555
N16 C29 1_555 1_555
C17 N9 1_555 1_555
H25 C17 1_555 1_555
C18 N10 1_555 1_555
H26 C18 1_555 1_555
C19 N9 1_555 1_555
H27 C19 1_555 1_555
C20 N10 1_555 1_555
H28 C20 1_555 1_555
H29 C20 1_555 1_555
H30 C20 1_555 1_555
C21 N11 1_555 1_555
H31 C21 1_555 1_555
C22 N12 1_555 1_555
H32 C22 1_555 1_555
C23 N11 1_555 1_555
H33 C23 1_555 1_555
C24 N12 1_555 1_555
H34 C24 1_555 1_555
H35 C24 1_555 1_555
H36 C24 1_555 1_555
C25 N13 1_555 1_555
H37 C25 1_555 1_555
C26 N14 1_555 1_555
H38 C26 1_555 1_555
C27 N13 1_555 1_555
H39 C27 1_555 1_555
C28 N14 1_555 1_555
H40 C28 1_555 1_555
H41 C28 1_555 1_555
H42 C28 1_555 1_555
C29 N15 1_555 1_555
H43 C29 1_555 1_555
C30 N16 1_555 1_555
H44 C30 1_555 1_555
C31 N15 1_555 1_555
H45 C31 1_555 1_555
C32 N16 1_555 1_555
H46 C32 1_555 1_555
H47 C32 1_555 1_555
H48 C32 1_555 1_555
O9 H49 1_555 1_555
H50 O9 1_555 1_555
O10 H51 1_555 1_555
H52 O10 1_555 1_555
O11 H53 1_555 1_555
H54 O11 1_555 1_555
N17 C33 1_555 1_555
C33 C34 1_555 1_555
C34 H55 1_555 1_555
H56 C34 1_555 1_555
H57 C34 1_555 1_555
O3C Cu1 1_555 1_555
Cu1C O3 1_555 1_555
O6C Cu2 1_555 1_555
Cu2C O6 1_555 1_555
C2 C3 1_555 1_555
C6 C7 1_555 1_555
C10 C11 1_555 1_555
C14 C15 1_555 1_555
C18 C19 1_555 1_555
C22 C23 1_555 1_555
C26 C27 1_555 1_555
C30 C31 1_555 1_555

#END
