
#######################################################################
#
#                 Cambridge Crystallographic Data Centre
#                                CCDC 
#
#######################################################################
#
# If this CIF has been generated from an entry in the Cambridge 
# Structural Database, then it will include bibliographic, chemical, 
# crystal, experimental, refinement or atomic coordinate data resulting 
# from the CCDC's data processing and validation procedures.
#
#######################################################################

data_EFARAE
_symmetry_cell_setting           monoclinic
_symmetry_space_group_name_H-M   'P 21/c'
_symmetry_Int_Tables_number      14
_space_group_name_Hall           '-P 2ybc'
loop_
_symmetry_equiv_pos_site_id
_symmetry_equiv_pos_as_xyz
1 x,y,z
2 x,1/2-y,1/2+z
3 -x,-y,-z
4 -x,1/2+y,1/2-z
_cell_length_a                   7.5297(10)
_cell_length_b                   23.628(3)
_cell_length_c                   9.2916(10)
_cell_angle_alpha                90
_cell_angle_beta                 104.175(10)
_cell_angle_gamma                90
_cell_volume                     1602.75
loop_
_atom_site_label
_atom_site_type_symbol
_atom_site_fract_x
_atom_site_fract_y
_atom_site_fract_z
Cu1 Cu 0.92344(3) 0.111890(10) 0.34920(2)
N1 N 1.1136(3) 0.24195(7) 0.68048(19)
N2 N 1.1965(3) 0.34243(8) 0.6909(2)
N3 N 0.9725(2) 0.18147(6) 0.47044(17)
N4 N 0.4737(2) 0.06293(7) 0.59410(16)
N5 N 0.7275(2) 0.07599(7) 0.47291(18)
N6 N 0.1490(2) 0.07578(6) 0.46986(17)
N7 N 0.74664(19) 0.15045(6) 0.17939(16)
N8 N 0.8693(2) 0.04704(6) 0.20603(15)
C1 C 1.1558(3) 0.29573(8) 0.6772(2)
C2 C 1.0395(2) 0.21286(7) 0.5632(2)
C3 C 0.6026(2) 0.07021(7) 0.52289(19)
C4 C 0.3033(2) 0.07041(7) 0.52202(18)
C5 C 0.6974(2) 0.20507(7) 0.1739(2)
C6 C 0.5775(2) 0.22947(7) 0.0515(2)
C7 C 0.5050(3) 0.19421(8) -0.0675(2)
C8 C 0.5569(3) 0.13790(8) -0.0644(2)
C9 C 0.6803(2) 0.11705(7) 0.06041(19)
C10 C 0.5322(3) 0.29145(8) 0.0486(2)
C11 C 0.9354(2) -0.00544(7) 0.23325(19)
C12 C 0.8893(2) -0.04947(7) 0.1314(2)
C13 C 0.7712(3) -0.03694(8) -0.0053(2)
C14 C 0.7002(2) 0.01720(8) -0.0337(2)
C15 C 0.7502(2) 0.05849(7) 0.07514(19)
C16 C 0.9657(3) -0.10791(7) 0.1700(2)
H1 H 0.74670 0.22830 0.25770
H2 H 0.41910 0.20880 -0.15180
H3 H 0.50850 0.11390 -0.14670
H4 H 0.54530 0.30800 -0.04500
H5 H 0.61600 0.31050 0.13200
H6 H 0.40590 0.29630 0.05690
H7 H 1.01770 -0.01300 0.32640
H8 H 0.73920 -0.06550 -0.07910
H9 H 0.61840 0.02590 -0.12630
H10 H 1.06520 -0.10620 0.26040
H11 H 1.01300 -0.12270 0.08810
H12 H 0.86860 -0.13290 0.18650
N6_2 N 1.1490(2) 0.07578(6) 0.46986(17)
Cu1_2 Cu -0.07656(3) 0.111890(10) 0.34920(2)
loop_
_geom_bond_atom_site_label_1
_geom_bond_atom_site_label_2
_geom_bond_site_symmetry_1
_geom_bond_site_symmetry_2
Cu1 N3 1_555 1_555
N1 C1 1_555 1_555
N2 C1 1_555 1_555
N3 C2 1_555 1_555
N4 C3 1_555 1_555
N5 Cu1 1_555 1_555
N6 C4 1_555 1_555
N7 Cu1 1_555 1_555
N8 Cu1 1_555 1_555
C2 N1 1_555 1_555
C3 N5 1_555 1_555
C4 N4 1_555 1_555
C5 N7 1_555 1_555
C6 C5 1_555 1_555
C7 C6 1_555 1_555
C8 C7 1_555 1_555
C9 N7 1_555 1_555
C10 C6 1_555 1_555
C11 N8 1_555 1_555
C12 C11 1_555 1_555
C13 C12 1_555 1_555
C14 C13 1_555 1_555
C15 N8 1_555 1_555
C16 C12 1_555 1_555
H1 C5 1_555 1_555
H2 C7 1_555 1_555
H3 C8 1_555 1_555
H4 C10 1_555 1_555
H5 C10 1_555 1_555
H6 C10 1_555 1_555
H7 C11 1_555 1_555
H8 C13 1_555 1_555
H9 C14 1_555 1_555
H10 C16 1_555 1_555
H11 C16 1_555 1_555
H12 C16 1_555 1_555
N6_2 Cu1 1_555 1_555
Cu1_2 N6 1_555 1_555
C8 C9 1_555 1_555
C9 C15 1_555 1_555
C14 C15 1_555 1_555

#END
