
#######################################################################
#
#                 Cambridge Crystallographic Data Centre
#                                CCDC 
#
#######################################################################
#
# If this CIF has been generated from an entry in the Cambridge 
# Structural Database, then it will include bibliographic, chemical, 
# crystal, experimental, refinement or atomic coordinate data resulting 
# from the CCDC's data processing and validation procedures.
#
#######################################################################

data_EFEBOH
_symmetry_cell_setting           triclinic
_symmetry_space_group_name_H-M   'P -1'
_symmetry_Int_Tables_number      2
_space_group_name_Hall           '-P 1'
loop_
_symmetry_equiv_pos_site_id
_symmetry_equiv_pos_as_xyz
1 x,y,z
2 -x,-y,-z
_cell_length_a                   10.976(2)
_cell_length_b                   14.010(3)
_cell_length_c                   29.750(6)
_cell_angle_alpha                97.44(3)
_cell_angle_beta                 96.94(3)
_cell_angle_gamma                109.64(3)
_cell_volume                     4205.67
loop_
_atom_site_label
_atom_site_type_symbol
_atom_site_fract_x
_atom_site_fract_y
_atom_site_fract_z
Mo1 Mo 0.88683(5) 0.64119(4) 0.626194(17)
Mo2 Mo -0.51956(5) 0.23679(4) 0.852257(17)
Cu1 Cu 0.79467(8) 0.61233(6) 0.53789(3)
Cu2 Cu 0.96292(7) 0.83526(6) 0.60909(3)
Cu3 Cu 0.65751(7) 0.66935(6) 0.62500(3)
Cu4 Cu -0.56278(7) 0.03766(6) 0.84303(3)
Cu5 Cu -0.27268(7) 0.23893(6) 0.86594(3)
Cu6 Cu -0.49879(7) 0.21814(6) 0.94171(2)
Br1 Br 0.71567(8) 0.59753(6) 0.46176(2)
Br2 Br 1.17176(7) 0.98107(6) 0.63850(3)
Br3 Br -0.60825(8) -0.13693(5) 0.83094(3)
Br4 Br -0.57482(6) 0.32054(5) 0.99833(2)
S1 S 0.68429(15) 0.53056(12) 0.58769(5)
S2 S 1.00068(15) 0.70261(12) 0.57017(6)
S3 S 0.85109(15) 0.77893(12) 0.66454(5)
S4 S -0.42985(15) 0.14388(12) 0.80635(5)
S5 S -0.35297(14) 0.33514(11) 0.91051(5)
S6 S -0.66361(14) 0.11858(12) 0.88510(5)
N1 N 0.4667(5) 1.2793(4) 0.41148(17)
N2 N 0.8608(5) 0.8965(4) 0.56591(18)
N3 N 0.5405(5) 0.6198(4) 0.67591(18)
N4 N -0.1295(5) 0.3371(4) 0.83388(17)
N5 N 0.4097(5) -0.1406(4) 1.02086(17)
N6 N -0.1563(5) 0.1772(4) 0.90072(17)
C1 C 0.5140(7) 1.3146(5) 0.4564(2)
H5 H 0.4892 1.3672 0.4717
C2 C 0.5976(7) 1.2778(5) 0.4814(2)
H6 H 0.6278 1.3045 0.5134
C3 C 0.6365(6) 1.2038(5) 0.4605(2)
C4 C 0.5929(7) 1.1698(6) 0.4137(2)
H7 H 0.6210 1.1203 0.3974
C5 C 0.5082(7) 1.2084(5) 0.3907(2)
H8 H 0.4779 1.1834 0.3586
C6 C 0.7238(7) 1.1574(6) 0.4874(3)
H9 H 0.7346 1.1834 0.5208
H10 H 0.8119 1.1801 0.4786
C7 C 0.6685(10) 1.0448(6) 0.4787(3)
H11 H 0.5745 1.0231 0.4815
H12 H 0.6729 1.0195 0.4465
C8 C 0.7335(7) 0.9936(6) 0.5096(3)
C9 C 0.7134(7) 0.9883(6) 0.5542(3)
H13 H 0.6563 1.0185 0.5666
C10 C 0.7760(7) 0.9389(5) 0.5809(3)
H14 H 0.7585 0.9346 0.6113
C11 C 0.8764(8) 0.8992(6) 0.5226(2)
H15 H 0.9317 0.8667 0.5104
C12 C 0.8160(8) 0.9470(6) 0.4943(3)
H16 H 0.8320 0.9475 0.4637
C13 C 0.4424(6) 0.5283(5) 0.6649(2)
H17 H 0.4273 0.4893 0.6349
C14 C 0.3619(6) 0.4880(6) 0.6954(3)
H18 H 0.2946 0.4219 0.6863
C15 C 0.3790(6) 0.5430(5) 0.7389(2)
C16 C 0.4785(6) 0.6380(5) 0.7502(2)
H19 H 0.4936 0.6793 0.7797
C17 C 0.5572(7) 0.6730(6) 0.7178(2)
H20 H 0.6262 0.7383 0.7262
C18 C 0.2897(6) 0.4997(6) 0.7720(2)
H21 H 0.3367 0.5293 0.8040
H22 H 0.2669 0.4240 0.7676
C19 C 0.1632(6) 0.5240(6) 0.7648(3)
H23 H 0.1836 0.5980 0.7766
H24 H 0.1278 0.5101 0.7314
C20 C 0.0600(6) 0.4592(5) 0.7894(2)
C21 C -0.0169(7) 0.3604(6) 0.7699(2)
H25 H -0.0069 0.3315 0.7405
C22 C -0.1099(6) 0.3017(6) 0.7927(2)
H26 H -0.1620 0.2329 0.7783
C23 C -0.0536(6) 0.4338(5) 0.8528(2)
H27 H -0.0654 0.4609 0.8823
C24 C 0.0409(6) 0.4972(5) 0.8324(2)
H28 H 0.0920 0.5656 0.8475
C25 C 0.3928(6) -0.0551(5) 1.0395(2)
H29 H 0.4419 -0.0202 1.0691
C26 C 0.3079(6) -0.0144(5) 1.0182(2)
H30 H 0.2986 0.0462 1.0332
C27 C 0.2366(5) -0.0624(5) 0.9748(2)
C28 C 0.2602(6) -0.1472(5) 0.9540(2)
H31 H 0.2178 -0.1798 0.9234
C29 C 0.3449(6) -0.1844(5) 0.9777(2)
H32 H 0.3582 -0.2436 0.9630
C30 C 0.1340(6) -0.0294(5) 0.9502(2)
H33 H 0.1496 -0.0256 0.9182
H34 H 0.0469 -0.0834 0.9484
C31 C 0.1289(6) 0.0728(5) 0.9717(2)
H35 H 0.1127 0.0689 1.0035
H36 H 0.2162 0.1267 0.9737
C32 C 0.0257(5) 0.1063(4) 0.9466(2)
C33 C 0.0074(6) 0.1950(5) 0.9654(2)
H37 H 0.0571 0.2335 0.9945
C34 C -0.0832(6) 0.2274(5) 0.9419(2)
H38 H -0.0945 0.2883 0.9556
C35 C -0.1408(6) 0.0911(5) 0.8833(2)
H39 H -0.1935 0.0531 0.8546
C36 C -0.0517(6) 0.0530(5) 0.9046(2)
H40 H -0.0439 -0.0090 0.8905
C37 C 1.0838(9) 0.6244(7) 0.6594(3)
C38 C 1.0379(9) 0.6613(7) 0.6945(3)
C39 C 0.9196(9) 0.5878(7) 0.6979(3)
C40 C 0.8886(9) 0.5013(7) 0.6633(3)
C41 C 0.9975(9) 0.5263(7) 0.6369(3)
C42 C 1.2192(8) 0.6801(7) 0.6476(3)
H41 H 1.2270 0.7502 0.6438
H42 H 1.2291 0.6425 0.6190
H43 H 1.2880 0.6832 0.6727
C43 C 1.1035(9) 0.7630(7) 0.7285(3)
H44 H 1.1774 0.7592 0.7493
H45 H 1.0395 0.7758 0.7464
H46 H 1.1357 0.8193 0.7115
C44 C 0.8347(9) 0.5918(7) 0.7345(3)
H47 H 0.8683 0.5695 0.7617
H48 H 0.7439 0.5460 0.7222
H49 H 0.8374 0.6625 0.7430
C45 C 0.7835(9) 0.4009(7) 0.6574(3)
H50 H 0.8152 0.3554 0.6740
H51 H 0.7568 0.3704 0.6246
H52 H 0.7082 0.4097 0.6696
C46 C 1.0162(9) 0.4576(7) 0.5974(3)
H53 H 1.0594 0.4994 0.5759
H54 H 0.9305 0.4081 0.5814
H55 H 1.0710 0.4204 0.6090
C47 C -0.5736(6) 0.3873(5) 0.8525(2)
C48 C -0.6926(6) 0.3030(5) 0.8414(2)
C49 C -0.6951(6) 0.2428(5) 0.7990(2)
C50 C -0.5759(7) 0.2930(5) 0.7831(2)
C51 C -0.4998(6) 0.3811(5) 0.8166(2)
C52 C -0.5371(8) 0.4740(5) 0.8924(3)
H56 H -0.5858 0.5194 0.8861
H57 H -0.4425 0.5132 0.8970
H58 H -0.5589 0.4463 0.9202
C53 C -0.8033(7) 0.2848(7) 0.8686(3)
H59 H -0.7675 0.2964 0.9015
H60 H -0.8651 0.2137 0.8587
H61 H -0.8492 0.3325 0.8632
C54 C -0.8063(8) 0.1493(7) 0.7735(3)
H62 H -0.8490 0.1089 0.7955
H63 H -0.7728 0.1073 0.7529
H64 H -0.8702 0.1702 0.7552
C55 C -0.5457(11) 0.2633(8) 0.7370(3)
H65 H -0.5752 0.3013 0.7152
H66 H -0.5913 0.1891 0.7260
H67 H -0.4507 0.2800 0.7393
C56 C -0.3710(7) 0.4605(6) 0.8128(3)
H68 H -0.3213 0.4271 0.7955
H69 H -0.3203 0.4932 0.8437
H70 H -0.3877 0.5129 0.7967
Cu3A Cu 0.34249(7) 1.33065(6) 0.37500(3)
Cu6A Cu 0.49879(7) -0.21814(6) 1.05829(2)
N1A N 0.5333(5) 0.7207(4) 0.58852(17)
N5A N -0.4097(5) 0.1406(4) 0.97914(17)
N7 N 0.4032(8) 0.2411(8) 0.1056(3)
H1 H 0.449(9) 0.205(7) 0.113(3)
H2 H 0.421(9) 0.263(7) 0.081(2)
C57 C 0.2876(8) 0.2387(6) 0.1199(3)
C58 C 0.2487(8) 0.1948(5) 0.1579(3)
H71 H 0.3011 0.1636 0.1738
C59 C 0.1360(9) 0.1966(7) 0.1722(3)
H72 H 0.1117 0.1670 0.1983
C60 C 0.0560(9) 0.2402(7) 0.1500(3)
H73 H -0.0227 0.2403 0.1602
C61 C 0.0934(8) 0.2835(6) 0.1127(3)
H74 H 0.0402 0.3146 0.0972
C62 C 0.2066(8) 0.2826(6) 0.0973(3)
H75 H 0.2298 0.3121 0.0711
N8 N 0.4337(7) 0.9341(6) 0.7137(3)
H3 H 0.376(7) 0.956(7) 0.701(3)
H4 H 0.414(11) 0.917(9) 0.739(3)
C63 C 0.5655(8) 0.9824(5) 0.7127(2)
C64 C 0.6043(8) 1.0491(6) 0.6825(3)
H76 H 0.5411 1.0669 0.6641
C65 C 0.7372(8) 1.0905(6) 0.6794(3)
H77 H 0.7632 1.1351 0.6580
C66 C 0.8312(9) 1.0683(7) 0.7063(3)
H78 H 0.9214 1.0971 0.7040
C67 C 0.7905(9) 1.0025(7) 0.7369(3)
H79 H 0.8536 0.9858 0.7559
C68 C 0.6604(9) 0.9613(6) 0.7402(3)
H80 H 0.6350 0.9173 0.7619
N9 N 0.4183(9) 0.8236(6) 0.4120(3)
C69 C 0.6038(9) 0.7615(7) 0.3908(3)
H81 H 0.5675 0.7025 0.3654
H82 H 0.6434 0.7410 0.4175
H83 H 0.6710 0.8178 0.3814
C70 C 0.4999(10) 0.7959(6) 0.4031(3)
N10 N 0.0902(9) 0.2720(7) 0.6742(3)
C71 C 0.0343(10) 0.1842(7) 0.5893(3)
H84 H 0.0992 0.2246 0.5726
H85 H -0.0537 0.1799 0.5757
H86 H 0.0373 0.1147 0.5871
C72 C 0.0640(8) 0.2336(6) 0.6372(3)
N11 N 0.0744(10) 0.5842(8) -0.0396(3)
C73 C 0.2192(8) 0.4829(6) -0.0137(3)
H87 H 0.1931 0.4556 0.0137
H88 H 0.3118 0.5281 -0.0067
H89 H 0.2069 0.4258 -0.0387
C74 C 0.1408(10) 0.5396(8) -0.0275(3)
loop_
_geom_bond_atom_site_label_1
_geom_bond_atom_site_label_2
_geom_bond_site_symmetry_1
_geom_bond_site_symmetry_2
Mo1 S1 1_555 1_555
Mo2 S4 1_555 1_555
Cu1 Br1 1_555 1_555
Cu2 Br2 1_555 1_555
Cu3 S1 1_555 1_555
Cu4 Br3 1_555 1_555
Cu5 S4 1_555 1_555
Cu6 Br4 1_555 1_555
S1 Cu1 1_555 1_555
S2 Mo1 1_555 1_555
S3 Mo1 1_555 1_555
S4 Cu4 1_555 1_555
S5 Mo2 1_555 1_555
S6 Mo2 1_555 1_555
N1 C1 1_555 1_555
N2 Cu2 1_555 1_555
N3 Cu3 1_555 1_555
N4 Cu5 1_555 1_555
N5 C25 1_555 1_555
N6 Cu5 1_555 1_555
N7 H1 1_555 1_555
H2 N7 1_555 1_555
N8 H3 1_555 1_555
H4 N8 1_555 1_555
N9 C70 1_555 1_555
N10 C72 1_555 1_555
N11 C74 1_555 1_555
C1 H5 1_555 1_555
C2 C1 1_555 1_555
H6 C2 1_555 1_555
C3 C2 1_555 1_555
C4 C3 1_555 1_555
H7 C4 1_555 1_555
C5 N1 1_555 1_555
H8 C5 1_555 1_555
C6 C3 1_555 1_555
H9 C6 1_555 1_555
H10 C6 1_555 1_555
C7 C6 1_555 1_555
H11 C7 1_555 1_555
H12 C7 1_555 1_555
C8 C7 1_555 1_555
C9 C8 1_555 1_555
H13 C9 1_555 1_555
C10 N2 1_555 1_555
H14 C10 1_555 1_555
C11 N2 1_555 1_555
H15 C11 1_555 1_555
C12 C8 1_555 1_555
H16 C12 1_555 1_555
C13 N3 1_555 1_555
H17 C13 1_555 1_555
C14 C13 1_555 1_555
H18 C14 1_555 1_555
C15 C14 1_555 1_555
C16 C15 1_555 1_555
H19 C16 1_555 1_555
C17 N3 1_555 1_555
H20 C17 1_555 1_555
C18 C15 1_555 1_555
H21 C18 1_555 1_555
H22 C18 1_555 1_555
C19 C18 1_555 1_555
H23 C19 1_555 1_555
H24 C19 1_555 1_555
C20 C19 1_555 1_555
C21 C20 1_555 1_555
H25 C21 1_555 1_555
C22 N4 1_555 1_555
H26 C22 1_555 1_555
C23 N4 1_555 1_555
H27 C23 1_555 1_555
C24 C20 1_555 1_555
H28 C24 1_555 1_555
C25 H29 1_555 1_555
C26 C25 1_555 1_555
H30 C26 1_555 1_555
C27 C26 1_555 1_555
C28 C27 1_555 1_555
H31 C28 1_555 1_555
C29 N5 1_555 1_555
H32 C29 1_555 1_555
C30 C27 1_555 1_555
H33 C30 1_555 1_555
H34 C30 1_555 1_555
C31 C30 1_555 1_555
H35 C31 1_555 1_555
H36 C31 1_555 1_555
C32 C31 1_555 1_555
C33 C32 1_555 1_555
H37 C33 1_555 1_555
C34 N6 1_555 1_555
H38 C34 1_555 1_555
C35 N6 1_555 1_555
H39 C35 1_555 1_555
C36 C32 1_555 1_555
H40 C36 1_555 1_555
C37 Mo1 1_555 1_555
C38 Mo1 1_555 1_555
C39 Mo1 1_555 1_555
C40 Mo1 1_555 1_555
C41 Mo1 1_555 1_555
C42 C37 1_555 1_555
H41 C42 1_555 1_555
H42 C42 1_555 1_555
H43 C42 1_555 1_555
C43 C38 1_555 1_555
H44 C43 1_555 1_555
H45 C43 1_555 1_555
H46 C43 1_555 1_555
C44 C39 1_555 1_555
H47 C44 1_555 1_555
H48 C44 1_555 1_555
H49 C44 1_555 1_555
C45 C40 1_555 1_555
H50 C45 1_555 1_555
H51 C45 1_555 1_555
H52 C45 1_555 1_555
C46 C41 1_555 1_555
H53 C46 1_555 1_555
H54 C46 1_555 1_555
H55 C46 1_555 1_555
C47 Mo2 1_555 1_555
C48 Mo2 1_555 1_555
C49 Mo2 1_555 1_555
C50 Mo2 1_555 1_555
C51 Mo2 1_555 1_555
C52 C47 1_555 1_555
H56 C52 1_555 1_555
H57 C52 1_555 1_555
H58 C52 1_555 1_555
C53 C48 1_555 1_555
H59 C53 1_555 1_555
H60 C53 1_555 1_555
H61 C53 1_555 1_555
C54 C49 1_555 1_555
H62 C54 1_555 1_555
H63 C54 1_555 1_555
H64 C54 1_555 1_555
C55 C50 1_555 1_555
H65 C55 1_555 1_555
H66 C55 1_555 1_555
H67 C55 1_555 1_555
C56 C51 1_555 1_555
H68 C56 1_555 1_555
H69 C56 1_555 1_555
H70 C56 1_555 1_555
C57 N7 1_555 1_555
C58 C57 1_555 1_555
H71 C58 1_555 1_555
C59 C58 1_555 1_555
H72 C59 1_555 1_555
C60 C59 1_555 1_555
H73 C60 1_555 1_555
C61 C60 1_555 1_555
H74 C61 1_555 1_555
C62 C57 1_555 1_555
H75 C62 1_555 1_555
C63 N8 1_555 1_555
C64 C63 1_555 1_555
H76 C64 1_555 1_555
C65 C64 1_555 1_555
H77 C65 1_555 1_555
C66 C65 1_555 1_555
H78 C66 1_555 1_555
C67 C66 1_555 1_555
H79 C67 1_555 1_555
C68 C63 1_555 1_555
H80 C68 1_555 1_555
C69 H81 1_555 1_555
H82 C69 1_555 1_555
H83 C69 1_555 1_555
C70 C69 1_555 1_555
C71 H84 1_555 1_555
H85 C71 1_555 1_555
H86 C71 1_555 1_555
C72 C71 1_555 1_555
C73 H87 1_555 1_555
H88 C73 1_555 1_555
H89 C73 1_555 1_555
C74 C73 1_555 1_555
Cu3A N1 1_555 1_555
Cu6A N5 1_555 1_555
N1A Cu3 1_555 1_555
N5A Cu6 1_555 1_555
Cu1 S2 1_555 1_555
Cu2 S2 1_555 1_555
Cu2 S3 1_555 1_555
Cu3 S3 1_555 1_555
Cu4 S6 1_555 1_555
Cu5 S5 1_555 1_555
Cu6 S5 1_555 1_555
Cu6 S6 1_555 1_555
C4 C5 1_555 1_555
C9 C10 1_555 1_555
C11 C12 1_555 1_555
C16 C17 1_555 1_555
C21 C22 1_555 1_555
C23 C24 1_555 1_555
C28 C29 1_555 1_555
C33 C34 1_555 1_555
C35 C36 1_555 1_555
C37 C38 1_555 1_555
C37 C41 1_555 1_555
C38 C39 1_555 1_555
C39 C40 1_555 1_555
C40 C41 1_555 1_555
C47 C48 1_555 1_555
C47 C51 1_555 1_555
C48 C49 1_555 1_555
C49 C50 1_555 1_555
C50 C51 1_555 1_555
C61 C62 1_555 1_555
C67 C68 1_555 1_555

#END
