
#######################################################################
#
#                 Cambridge Crystallographic Data Centre
#                                CCDC 
#
#######################################################################
#
# If this CIF has been generated from an entry in the Cambridge 
# Structural Database, then it will include bibliographic, chemical, 
# crystal, experimental, refinement or atomic coordinate data resulting 
# from the CCDC's data processing and validation procedures.
#
#######################################################################

data_EFEBUN
_symmetry_cell_setting           triclinic
_symmetry_space_group_name_H-M   'P -1'
_symmetry_Int_Tables_number      2
_space_group_name_Hall           '-P 1'
loop_
_symmetry_equiv_pos_site_id
_symmetry_equiv_pos_as_xyz
1 x,y,z
2 -x,-y,-z
_cell_length_a                   11.288(2)
_cell_length_b                   18.141(4)
_cell_length_c                   20.997(4)
_cell_angle_alpha                94.63(3)
_cell_angle_beta                 100.67(3)
_cell_angle_gamma                103.06(3)
_cell_volume                     4082.17
loop_
_atom_site_label
_atom_site_type_symbol
_atom_site_fract_x
_atom_site_fract_y
_atom_site_fract_z
Mo1 Mo 0.85103(17) -0.18413(10) 0.56445(8)
Mo2 Mo -0.20569(16) -0.82554(10) -0.08770(8)
Cu1 Cu 0.7687(3) -0.32899(15) 0.50435(13)
Cu2 Cu 0.6088(2) -0.20319(14) 0.56428(12)
Cu3 Cu 0.7558(2) -0.16075(14) 0.44596(12)
Cu4 Cu -0.1219(3) -0.67837(15) -0.10414(14)
Cu5 Cu 0.0343(2) 0.17270(14) 0.93146(12)
Cu6 Cu -0.1433(3) -0.77477(15) 0.04165(12)
Br1 Br 0.8917(3) -0.42275(16) 0.53268(16)
Br2 Br 0.6600(2) -0.13846(14) 0.34634(10)
Br3 Br -0.2274(3) -0.62217(15) -0.19574(16)
Br4 Br -0.2951(3) -0.80110(16) 0.11613(12)
S1 S 0.8891(5) -0.2324(3) 0.4678(3)
S2 S 0.7232(5) -0.2827(3) 0.5973(3)
S3 S 0.7301(5) -0.1009(3) 0.5364(3)
S4 S -0.2446(5) -0.7214(3) -0.0364(3)
S5 S -0.0673(5) 0.2205(3) 0.8499(3)
S6 S -0.0969(5) 0.1233(3) 0.9934(2)
N1 N 0.4438(10) -0.2512(8) 0.4998(6)
C1 C 0.4031(13) -0.2137(7) 0.4481(7)
H1 H 0.4555 -0.1682 0.4398
C2 C 0.2857(14) -0.2427(9) 0.4085(6)
H2 H 0.2578 -0.2170 0.3731
C3 C 0.2089(11) -0.3093(9) 0.4206(7)
C4 C 0.2497(13) -0.3468(7) 0.4724(8)
H3 H 0.1972 -0.3923 0.4807
C5 C 0.3671(14) -0.3178(8) 0.5120(6)
H4 H 0.3949 -0.3434 0.5474
C6 C 0.071(2) -0.3453(16) 0.3737(13)
H5 H 0.0668 -0.3962 0.3514
H6 H 0.0062 -0.3510 0.4004
C7 C 0.047(3) -0.2889(19) 0.3213(16)
H7 H 0.0507 -0.2377 0.3433
H8 H 0.1095 -0.2838 0.2937
C8 C -0.0870(18) -0.3259(15) 0.2790(12)
C9 C -0.186(3) -0.2949(12) 0.2876(12)
H9 H -0.1715 -0.2498 0.3172
C10 C -0.305(2) -0.3299(14) 0.2529(13)
H10 H -0.3729 -0.3087 0.2587
N2 N -0.3262(17) -0.3959(14) 0.2096(11)
C11 C -0.227(2) -0.4269(12) 0.2010(11)
H11 H -0.2417 -0.4720 0.1714
C12 C -0.108(2) -0.3918(15) 0.2358(13)
H12 H -0.0403 -0.4130 0.2299
N3 N 0.5326(12) -0.1567(7) 0.6382(6)
C13 C 0.5185(13) -0.1881(6) 0.6954(6)
H13 H 0.5400 -0.2350 0.7024
C14 C 0.4729(15) -0.1509(8) 0.7424(5)
H14 H 0.4633 -0.1724 0.7815
C15 C 0.4415(14) -0.0824(8) 0.7323(6)
C16 C 0.4556(14) -0.0510(7) 0.6751(7)
H15 H 0.4341 -0.0042 0.6681
C17 C 0.5012(14) -0.0882(8) 0.6280(6)
H16 H 0.5108 -0.0668 0.5889
C18 C 0.3862(19) -0.0430(13) 0.7833(11)
H17 H 0.4095 -0.0609 0.8261
H18 H 0.4215 0.0129 0.7883
C19 C 0.247(2) -0.0598(13) 0.7635(10)
H19 H 0.2109 -0.1140 0.7666
H20 H 0.2234 -0.0509 0.7175
C20 C 0.1950(13) -0.0080(7) 0.8082(6)
C21 C 0.1493(13) -0.0314(6) 0.8623(6)
H21 H 0.1505 -0.0808 0.8740
C22 C 0.1018(12) 0.0174(7) 0.8993(5)
H22 H 0.0706 0.0014 0.9363
N4 N 0.1001(12) 0.0897(6) 0.8822(6)
C23 C 0.1458(13) 0.1131(6) 0.8281(6)
H23 H 0.1446 0.1625 0.8165
C24 C 0.1932(13) 0.0643(8) 0.7912(6)
H24 H 0.2245 0.0803 0.7542
N5 N 0.2065(12) 0.2395(8) 0.9671(8)
C25 C 0.2855(16) 0.2280(9) 1.0226(8)
H25 H 0.2572 0.1888 1.0475
C26 C 0.4057(15) 0.2741(12) 1.0415(8)
H26 H 0.4597 0.2663 1.0794
C27 C 0.4470(13) 0.3315(11) 1.0051(11)
C28 C 0.3680(19) 0.3430(10) 0.9496(10)
H27 H 0.3962 0.3823 0.9247
C29 C 0.2478(17) 0.2969(10) 0.9306(7)
H28 H 0.1938 0.3048 0.8927
C30 C 0.578(3) 0.3928(19) 1.0294(16)
H29 H 0.5695 0.4316 1.0630
H30 H 0.6403 0.3666 1.0501
C31 C 0.623(3) 0.4307(18) 0.9773(16)
H31 H 0.5620 0.4581 0.9571
H32 H 0.6307 0.3921 0.9432
C32 C 0.7517(15) 0.4886(11) 1.0028(10)
C33 C 0.831(2) 0.4733(9) 1.0562(10)
H33 H 0.8089 0.4273 1.0745
C34 C 0.9443(18) 0.5253(12) 1.0827(8)
H34 H 0.9988 0.5149 1.1192
N6 N 0.9773(14) 0.5927(10) 1.0558(9)
C35 C 0.8975(19) 0.6079(9) 1.0025(9)
H35 H 0.9201 0.6540 0.9841
C36 C 0.7847(17) 0.5559(12) 0.9760(8)
H36 H 0.7302 0.5663 0.9395
N7 N 0.0005(13) -0.7122(8) 0.1130(7)
C37 C 0.1114(16) -0.7342(8) 0.1296(8)
H37 H 0.1198 -0.7809 0.1093
C38 C 0.2099(13) -0.6877(11) 0.1757(9)
H38 H 0.2857 -0.7028 0.1870
C39 C 0.1976(15) -0.6193(10) 0.2054(7)
C40 C 0.0868(18) -0.5973(8) 0.1889(8)
H39 H 0.0784 -0.5506 0.2091
C41 C -0.0118(14) -0.6438(9) 0.1427(8)
H40 H -0.0875 -0.6287 0.1314
C42 C 0.308(3) -0.567(2) 0.2581(18)
H41 H 0.3622 -0.5987 0.2775
H42 H 0.3584 -0.5292 0.2358
C43 C 0.272(3) -0.5241(19) 0.3123(16)
H43 H 0.2254 -0.5601 0.3373
H44 H 0.2190 -0.4907 0.2946
C44 C 0.3954(13) -0.4755(9) 0.3569(8)
C45 C 0.4655(16) -0.5095(7) 0.4018(9)
H45 H 0.4383 -0.5623 0.4051
C46 C 0.5756(15) -0.4662(8) 0.4418(7)
H46 H 0.6235 -0.4894 0.4725
N8 N 0.6154(12) -0.3890(8) 0.4370(7)
C47 C 0.5453(16) -0.3550(7) 0.3922(8)
H47 H 0.5725 -0.3022 0.3889
C48 C 0.4352(15) -0.3983(10) 0.3521(8)
H48 H 0.3873 -0.3750 0.3215
C49 C 1.0711(8) -0.1764(5) 0.6101(4)
C50 C 1.0034(8) -0.1939(5) 0.6601(4)
C51 C 0.9536(8) -0.1307(5) 0.6754(4)
C52 C 0.9905(9) -0.0743(5) 0.6348(4)
C53 C 1.0631(9) -0.1025(5) 0.5945(4)
C54 C 1.1395(13) -0.2275(7) 0.5790(7)
H49 H 1.1579 -0.2091 0.5384
H50 H 1.0874 -0.2798 0.5693
H51 H 1.2173 -0.2266 0.6092
C55 C 0.9872(13) -0.2667(7) 0.6916(6)
H52 H 1.0443 -0.2577 0.7343
H53 H 1.0055 -0.3067 0.6635
H54 H 0.9014 -0.2830 0.6973
C56 C 0.8753(13) -0.1247(7) 0.7259(6)
H55 H 0.8426 -0.1756 0.7374
H56 H 0.8059 -0.1032 0.7080
H57 H 0.9265 -0.0915 0.7651
C57 C 0.9583(14) 0.0023(7) 0.6346(7)
H58 H 0.9818 0.0293 0.6792
H59 H 0.8686 -0.0054 0.6184
H60 H 1.0036 0.0327 0.6062
C58 C 1.1216(14) -0.0612(7) 0.5438(7)
H61 H 1.1009 -0.0117 0.5423
H62 H 1.0896 -0.0918 0.5009
H63 H 1.2121 -0.0534 0.5555
C59 C -0.4234(9) -0.8933(5) -0.1004(4)
C60 C -0.4161(8) -0.8488(5) -0.1528(4)
C61 C -0.3430(9) -0.8769(5) -0.1925(4)
C62 C -0.3051(9) -0.9388(5) -0.1647(5)
C63 C -0.3549(9) -0.9489(5) -0.1078(5)
C64 C -0.4921(14) -0.8832(8) -0.0464(7)
H64 H -0.4462 -0.8948 -0.0056
H65 H -0.5753 -0.9178 -0.0579
H66 H -0.4994 -0.8303 -0.0407
C65 C -0.4755(13) -0.7831(8) -0.1642(7)
H67 H -0.4870 -0.7603 -0.1226
H68 H -0.5565 -0.8017 -0.1943
H69 H -0.4217 -0.7446 -0.1833
C66 C -0.3110(14) -0.8465(8) -0.2536(7)
H70 H -0.2498 -0.8709 -0.2680
H71 H -0.2761 -0.7912 -0.2443
H72 H -0.3864 -0.8575 -0.2881
C67 C -0.2260(14) -0.9857(8) -0.1909(7)
H73 H -0.2770 -1.0223 -0.2282
H74 H -0.1919 -1.0132 -0.1566
H75 H -0.1577 -0.9519 -0.2052
C68 C -0.3379(15) -1.0083(8) -0.0629(7)
H76 H -0.3173 -0.9845 -0.0174
H77 H -0.2702 -1.0305 -0.0719
H78 H -0.4151 -1.0486 -0.0703
Mo2_2 Mo -0.20569(16) 0.17446(10) 0.91230(8)
Cu4_2 Cu -0.1219(3) 0.32163(15) 0.89586(14)
Cu4A Cu 1.1219(3) 0.67837(15) 1.10414(14)
Cu5_2 Cu 0.0343(2) -0.82730(14) -0.06854(12)
Cu6_2 Cu -0.1433(3) 0.22523(15) 1.04165(12)
S5_2 S -0.0673(5) -0.7795(3) -0.1501(3)
S6_2 S -0.0969(5) -0.8767(3) -0.0066(2)
N6A N 0.0227(14) -0.5927(10) -0.0558(9)
loop_
_geom_bond_atom_site_label_1
_geom_bond_atom_site_label_2
_geom_bond_site_symmetry_1
_geom_bond_site_symmetry_2
Mo1 S1 1_555 1_555
Mo2 S4 1_555 1_555
Cu1 Br1 1_555 1_555
Cu2 S2 1_555 1_555
Cu3 Br2 1_555 1_555
Cu4 Br3 1_555 1_555
Cu5 S5 1_555 1_555
Cu6 Br4 1_555 1_555
S1 Cu1 1_555 1_555
S2 Mo1 1_555 1_555
S3 Mo1 1_555 1_555
S4 Cu4 1_555 1_555
S5 Mo2_2 1_555 1_555
S6 Cu5 1_555 1_555
N1 Cu2 1_555 1_555
C1 N1 1_555 1_555
H1 C1 1_555 1_555
C2 C1 1_555 1_555
H2 C2 1_555 1_555
C3 C2 1_555 1_555
C4 C3 1_555 1_555
H3 C4 1_555 1_555
C5 N1 1_555 1_555
H4 C5 1_555 1_555
C6 C3 1_555 1_555
H5 C6 1_555 1_555
H6 C6 1_555 1_555
C7 C6 1_555 1_555
H7 C7 1_555 1_555
H8 C7 1_555 1_555
C8 C7 1_555 1_555
C9 C8 1_555 1_555
H9 C9 1_555 1_555
C10 C9 1_555 1_555
H10 C10 1_555 1_555
N2 C10 1_555 1_555
C11 N2 1_555 1_555
H11 C11 1_555 1_555
C12 C8 1_555 1_555
H12 C12 1_555 1_555
N3 Cu2 1_555 1_555
C13 N3 1_555 1_555
H13 C13 1_555 1_555
C14 C13 1_555 1_555
H14 C14 1_555 1_555
C15 C14 1_555 1_555
C16 C15 1_555 1_555
H15 C16 1_555 1_555
C17 N3 1_555 1_555
H16 C17 1_555 1_555
C18 C15 1_555 1_555
H17 C18 1_555 1_555
H18 C18 1_555 1_555
C19 C18 1_555 1_555
H19 C19 1_555 1_555
H20 C19 1_555 1_555
C20 C19 1_555 1_555
C21 C20 1_555 1_555
H21 C21 1_555 1_555
C22 C21 1_555 1_555
H22 C22 1_555 1_555
N4 Cu5 1_555 1_555
C23 N4 1_555 1_555
H23 C23 1_555 1_555
C24 C20 1_555 1_555
H24 C24 1_555 1_555
N5 Cu5 1_555 1_555
C25 N5 1_555 1_555
H25 C25 1_555 1_555
C26 C25 1_555 1_555
H26 C26 1_555 1_555
C27 C26 1_555 1_555
C28 C27 1_555 1_555
H27 C28 1_555 1_555
C29 N5 1_555 1_555
H28 C29 1_555 1_555
C30 C27 1_555 1_555
H29 C30 1_555 1_555
H30 C30 1_555 1_555
C31 C30 1_555 1_555
H31 C31 1_555 1_555
H32 C31 1_555 1_555
C32 C31 1_555 1_555
C33 C32 1_555 1_555
H33 C33 1_555 1_555
C34 C33 1_555 1_555
H34 C34 1_555 1_555
N6 C34 1_555 1_555
C35 N6 1_555 1_555
H35 C35 1_555 1_555
C36 C32 1_555 1_555
H36 C36 1_555 1_555
N7 Cu6 1_555 1_555
C37 N7 1_555 1_555
H37 C37 1_555 1_555
C38 C37 1_555 1_555
H38 C38 1_555 1_555
C39 C38 1_555 1_555
C40 C39 1_555 1_555
H39 C40 1_555 1_555
C41 N7 1_555 1_555
H40 C41 1_555 1_555
C42 C39 1_555 1_555
H41 C42 1_555 1_555
H42 C42 1_555 1_555
C43 C42 1_555 1_555
H43 C43 1_555 1_555
H44 C43 1_555 1_555
C44 C43 1_555 1_555
C45 C44 1_555 1_555
H45 C45 1_555 1_555
C46 C45 1_555 1_555
H46 C46 1_555 1_555
N8 Cu1 1_555 1_555
C47 N8 1_555 1_555
H47 C47 1_555 1_555
C48 C44 1_555 1_555
H48 C48 1_555 1_555
C49 Mo1 1_555 1_555
C50 Mo1 1_555 1_555
C51 Mo1 1_555 1_555
C52 Mo1 1_555 1_555
C53 Mo1 1_555 1_555
C54 C49 1_555 1_555
H49 C54 1_555 1_555
H50 C54 1_555 1_555
H51 C54 1_555 1_555
C55 C50 1_555 1_555
H52 C55 1_555 1_555
H53 C55 1_555 1_555
H54 C55 1_555 1_555
C56 C51 1_555 1_555
H55 C56 1_555 1_555
H56 C56 1_555 1_555
H57 C56 1_555 1_555
C57 C52 1_555 1_555
H58 C57 1_555 1_555
H59 C57 1_555 1_555
H60 C57 1_555 1_555
C58 C53 1_555 1_555
H61 C58 1_555 1_555
H62 C58 1_555 1_555
H63 C58 1_555 1_555
C59 Mo2 1_555 1_555
C60 Mo2 1_555 1_555
C61 Mo2 1_555 1_555
C62 Mo2 1_555 1_555
C63 Mo2 1_555 1_555
C64 C59 1_555 1_555
H64 C64 1_555 1_555
H65 C64 1_555 1_555
H66 C64 1_555 1_555
C65 C60 1_555 1_555
H67 C65 1_555 1_555
H68 C65 1_555 1_555
H69 C65 1_555 1_555
C66 C61 1_555 1_555
H70 C66 1_555 1_555
H71 C66 1_555 1_555
H72 C66 1_555 1_555
C67 C62 1_555 1_555
H73 C67 1_555 1_555
H74 C67 1_555 1_555
H75 C67 1_555 1_555
C68 C63 1_555 1_555
H76 C68 1_555 1_555
H77 C68 1_555 1_555
H78 C68 1_555 1_555
Mo2_2 S6 1_555 1_555
Cu4_2 S5 1_555 1_555
Cu4A N6 1_555 1_555
Cu5_2 S5_2 1_555 1_555
Cu6_2 S6 1_555 1_555
S5_2 Mo2 1_555 1_555
S6_2 Mo2 1_555 1_555
N6A Cu4 1_555 1_555
Cu1 S2 1_555 1_555
Cu2 S3 1_555 1_555
Cu3 S1 1_555 1_555
Cu3 S3 1_555 1_555
Cu4 S5_2 1_555 1_555
Cu6 S4 1_555 1_555
Cu6 S6_2 1_555 1_555
C4 C5 1_555 1_555
C11 C12 1_555 1_555
C16 C17 1_555 1_555
C22 N4 1_555 1_555
C23 C24 1_555 1_555
C28 C29 1_555 1_555
C35 C36 1_555 1_555
C40 C41 1_555 1_555
C46 N8 1_555 1_555
C47 C48 1_555 1_555
C49 C50 1_555 1_555
C49 C53 1_555 1_555
C50 C51 1_555 1_555
C51 C52 1_555 1_555
C52 C53 1_555 1_555
C59 C60 1_555 1_555
C59 C63 1_555 1_555
C60 C61 1_555 1_555
C61 C62 1_555 1_555
C62 C63 1_555 1_555
Cu5_2 S6_2 1_555 1_555

#END
