
#######################################################################
#
#                 Cambridge Crystallographic Data Centre
#                                CCDC 
#
#######################################################################
#
# If this CIF has been generated from an entry in the Cambridge 
# Structural Database, then it will include bibliographic, chemical, 
# crystal, experimental, refinement or atomic coordinate data resulting 
# from the CCDC's data processing and validation procedures.
#
#######################################################################

data_EFEBIB
_symmetry_cell_setting           triclinic
_symmetry_space_group_name_H-M   'P -1'
_symmetry_Int_Tables_number      2
_space_group_name_Hall           '-P 1'
loop_
_symmetry_equiv_pos_site_id
_symmetry_equiv_pos_as_xyz
1 x,y,z
2 -x,-y,-z
_cell_length_a                   10.857(2)
_cell_length_b                   14.397(3)
_cell_length_c                   15.052(3)
_cell_angle_alpha                74.01(3)
_cell_angle_beta                 75.42(3)
_cell_angle_gamma                74.51(3)
_cell_volume                     2138.88
loop_
_atom_site_label
_atom_site_type_symbol
_atom_site_fract_x
_atom_site_fract_y
_atom_site_fract_z
Mo1 Mo 0.79870(7) 0.21905(6) 0.35504(5)
Cu1 Cu 0.79749(11) 0.03671(9) 0.35811(8)
Cu2 Cu 0.56230(10) 0.22404(9) 0.32834(8)
Cu3 Cu 0.85998(11) 0.20194(9) 0.17438(8)
Br1 Br 1.02464(11) 0.26238(9) 0.04119(8)
Br2 Br 0.79571(12) -0.11305(8) 0.33631(8)
S1 S 0.9642(2) 0.10891(19) 0.28954(17)
S2 S 0.6513(2) 0.12696(19) 0.45008(17)
S3 S 0.7007(2) 0.31576(18) 0.23312(16)
N1 N 0.4620(7) 0.1561(6) 0.2808(6)
N2 N 0.2152(8) -0.1304(7) -0.1068(6)
N3 N 0.4044(7) 0.3279(6) 0.3838(6)
C1 C 0.3886(9) 0.2079(8) 0.2153(7)
H1 H 0.3848 0.2769 0.1938
C2 C 0.3186(9) 0.1651(8) 0.1780(8)
H2 H 0.2657 0.2049 0.1340
C3 C 0.3263(9) 0.0638(8) 0.2053(7)
C4 C 0.4012(11) 0.0110(9) 0.2728(8)
H3 H 0.4088 -0.0585 0.2945
C5 C 0.4643(10) 0.0602(9) 0.3083(8)
H4 H 0.5128 0.0226 0.3557
C6 C 0.2646(10) 0.0139(9) 0.1589(7)
H5 H 0.1778 0.0543 0.1489
H6 H 0.2533 -0.0515 0.1994
C7 C 0.3517(12) 0.0013(11) 0.0655(9)
H7 H 0.4378 -0.0390 0.0775
H8 H 0.3650 0.0673 0.0278
C8 C 0.3014(11) -0.0473(11) 0.0064(8)
C9 C 0.3655(11) -0.1374(11) -0.0096(9)
H9 H 0.4389 -0.1737 0.0178
C10 C 0.3195(11) -0.1747(10) -0.0679(8)
H10 H 0.3662 -0.2369 -0.0811
C11 C 0.1535(11) -0.0422(8) -0.0867(8)
H11 H 0.0777 -0.0087 -0.1121
C12 C 0.1919(12) 0.0028(9) -0.0321(8)
H12 H 0.1455 0.0659 -0.0211
C13 C 0.3636(10) 0.4192(8) 0.3389(8)
H13 H 0.4117 0.4420 0.2782
C14 C 0.2557(10) 0.4837(8) 0.3741(8)
H14 H 0.2317 0.5491 0.3386
C15 C 0.1847(9) 0.4531(8) 0.4592(8)
C16 C 0.2265(9) 0.3567(8) 0.5099(7)
H15 H 0.1803 0.3330 0.5711
C17 C 0.3332(9) 0.2984(8) 0.4701(7)
H16 H 0.3600 0.2329 0.5046
C18 C 0.0593(9) 0.5181(7) 0.5016(8)
H17 H 0.0609 0.5158 0.5677
H18 H 0.0535 0.5875 0.4658
C19 C 0.9627(9) 0.2420(8) 0.4213(7)
C20 C 0.9283(9) 0.3288(8) 0.3519(7)
C21 C 0.7962(10) 0.3769(7) 0.3829(8)
C22 C 0.7511(10) 0.3149(9) 0.4690(8)
C23 C 0.8533(10) 0.2333(8) 0.4933(7)
C24 C 1.0935(11) 0.1796(10) 0.4233(9)
H19 H 1.1310 0.1936 0.4698
H20 H 1.1489 0.1936 0.3609
H21 H 1.0880 0.1098 0.4406
C25 C 1.0167(11) 0.3699(9) 0.2642(8)
H22 H 1.0802 0.3960 0.2811
H23 H 0.9651 0.4232 0.2236
H24 H 1.0627 0.3174 0.2304
C26 C 0.7287(13) 0.4750(9) 0.3364(10)
H25 H 0.6344 0.4792 0.3531
H26 H 0.7571 0.4843 0.2680
H27 H 0.7498 0.5266 0.3574
C27 C 0.6180(11) 0.3402(11) 0.5310(9)
H28 H 0.6228 0.3803 0.5726
H29 H 0.5914 0.2791 0.5690
H30 H 0.5542 0.3775 0.4912
C28 C 0.8489(12) 0.1581(10) 0.5839(7)
H31 H 0.9268 0.1049 0.5794
H32 H 0.7710 0.1308 0.5970
H33 H 0.8461 0.1892 0.6349
Mo1A Mo 0.20130(7) -0.21905(6) -0.35504(5)
Cu1A Cu 0.20251(11) -0.03671(9) -0.35811(8)
Cu2A Cu 0.43770(10) -0.22404(9) -0.32834(8)
Cu2A_2 Cu -0.56230(10) 0.77596(9) 0.67166(8)
Cu3A Cu 0.14002(11) -0.20194(9) -0.17438(8)
Br1A Br -0.02464(11) -0.26238(9) -0.04119(8)
Br2A Br 0.20429(12) 0.11305(8) -0.33631(8)
S1A S 0.0358(2) -0.10891(19) -0.28954(17)
S2A S 0.3487(2) -0.12696(19) -0.45008(17)
S3A S 0.2993(2) -0.31576(18) -0.23312(16)
N1A N 0.5380(7) -0.1561(6) -0.2808(6)
N2A N 0.7848(8) 0.1304(7) 0.1068(6)
N3A N -0.4044(7) 0.6721(6) 0.6162(6)
N3A_2 N 0.5956(7) -0.3279(6) -0.3838(6)
C1A C 0.6114(9) -0.2079(8) -0.2153(7)
H1A H 0.6152 -0.2769 -0.1938
C2A C 0.6814(9) -0.1651(8) -0.1780(8)
H2A H 0.7343 -0.2049 -0.1340
C3A C 0.6737(9) -0.0638(8) -0.2053(7)
C4A C 0.5988(11) -0.0110(9) -0.2728(8)
H3A H 0.5912 0.0585 -0.2945
C5A C 0.5357(10) -0.0602(9) -0.3083(8)
H4A H 0.4872 -0.0226 -0.3557
C6A C 0.7354(10) -0.0139(9) -0.1589(7)
H5A H 0.8222 -0.0543 -0.1489
H6A H 0.7467 0.0515 -0.1994
C7A C 0.6483(12) -0.0013(11) -0.0655(9)
H7A H 0.5622 0.0390 -0.0775
H8A H 0.6350 -0.0673 -0.0278
C8A C 0.6986(11) 0.0473(11) -0.0064(8)
C9A C 0.6345(11) 0.1374(11) 0.0096(9)
H9A H 0.5611 0.1737 -0.0178
C10A C 0.6805(11) 0.1747(10) 0.0679(8)
H10A H 0.6338 0.2369 0.0811
C11A C 0.8465(11) 0.0422(8) 0.0867(8)
H11A H 0.9223 0.0087 0.1121
C12A C 0.8081(12) -0.0028(9) 0.0321(8)
H12A H 0.8545 -0.0659 0.0211
C13A C -0.3636(10) 0.5808(8) 0.6611(8)
H13A H -0.4117 0.5580 0.7218
C14A C -0.2557(10) 0.5163(8) 0.6259(8)
H14A H -0.2317 0.4509 0.6614
C15A C -0.1847(9) 0.5469(8) 0.5408(8)
C16A C -0.2265(9) 0.6433(8) 0.4901(7)
H15A H -0.1803 0.6670 0.4289
C17A C -0.3332(9) 0.7016(8) 0.5299(7)
H16A H -0.3600 0.7671 0.4954
C18A C -0.0593(9) 0.4819(7) 0.4984(8)
H17A H -0.0609 0.4842 0.4323
H18A H -0.0535 0.4125 0.5342
C19A C 0.0373(9) -0.2420(8) -0.4213(7)
C20A C 0.0717(9) -0.3288(8) -0.3519(7)
C21A C 0.2038(10) -0.3769(7) -0.3829(8)
C22A C 0.2489(10) -0.3149(9) -0.4690(8)
C23A C 0.1467(10) -0.2333(8) -0.4933(7)
C24A C -0.0935(11) -0.1796(10) -0.4233(9)
H19A H -0.1310 -0.1936 -0.4698
H20A H -0.1489 -0.1936 -0.3609
H21A H -0.0880 -0.1098 -0.4406
C25A C -0.0167(11) -0.3699(9) -0.2642(8)
H22A H -0.0802 -0.3960 -0.2811
H23A H 0.0349 -0.4232 -0.2236
H24A H -0.0627 -0.3174 -0.2304
C26A C 0.2713(13) -0.4750(9) -0.3364(10)
H25A H 0.3656 -0.4792 -0.3531
H26A H 0.2429 -0.4843 -0.2680
H27A H 0.2502 -0.5266 -0.3574
C27A C 0.3820(11) -0.3402(11) -0.5310(9)
H28A H 0.3772 -0.3803 -0.5726
H29A H 0.4086 -0.2791 -0.5690
H30A H 0.4458 -0.3775 -0.4912
C28A C 0.1511(12) -0.1581(10) -0.5839(7)
H31A H 0.0732 -0.1049 -0.5794
H32A H 0.2290 -0.1308 -0.5970
H33A H 0.1539 -0.1892 -0.6349
N4 N 0.9869(13) -0.3690(10) 0.2632(10)
C29 C 1.0913(14) -0.2237(12) 0.1706(11)
H34 H 1.0854 -0.2101 0.1041
H35 H 1.1828 -0.2375 0.1759
H36 H 1.0431 -0.1660 0.1966
C30 C 1.0375(14) -0.3059(11) 0.2207(10)
N5 N 0.538(3) 0.260(2) 0.7871(18)
C31 C 0.324(2) 0.2454(18) 0.8158(18)
H37 H 0.3102 0.2276 0.7612
H38 H 0.2609 0.3060 0.8269
H39 H 0.3121 0.1916 0.8714
C32 C 0.445(2) 0.2605(18) 0.7991(15)
S4 S 0.3480(7) 0.4836(6) -0.0130(6)
O1 O 0.409(2) 0.3855(14) 0.0428(17)
C33 C 0.203(2) 0.470(2) -0.0364(19)
H40 H 0.2235 0.4447 -0.0935
H41 H 0.1430 0.5349 -0.0456
H42 H 0.1631 0.4243 0.0169
C34 C 0.269(3) 0.516(3) 0.0901(15)
H43 H 0.3310 0.5273 0.1211
H44 H 0.2266 0.4629 0.1312
H45 H 0.2023 0.5769 0.0776
loop_
_geom_bond_atom_site_label_1
_geom_bond_atom_site_label_2
_geom_bond_site_symmetry_1
_geom_bond_site_symmetry_2
Mo1 S1 1_555 1_555
Cu1 Br2 1_555 1_555
Cu2 S2 1_555 1_555
Cu3 Br1 1_555 1_555
S1 Cu1 1_555 1_555
S2 Mo1 1_555 1_555
S3 Mo1 1_555 1_555
N1 Cu2 1_555 1_555
N2 C10 1_555 1_555
N3 Cu2 1_555 1_555
N4 C30 1_555 1_555
N5 C32 1_555 1_555
C1 N1 1_555 1_555
H1 C1 1_555 1_555
C2 C1 1_555 1_555
H2 C2 1_555 1_555
C3 C2 1_555 1_555
C4 C3 1_555 1_555
H3 C4 1_555 1_555
C5 N1 1_555 1_555
H4 C5 1_555 1_555
C6 C3 1_555 1_555
H5 C6 1_555 1_555
H6 C6 1_555 1_555
C7 C6 1_555 1_555
H7 C7 1_555 1_555
H8 C7 1_555 1_555
C8 C7 1_555 1_555
C9 C8 1_555 1_555
H9 C9 1_555 1_555
C10 C9 1_555 1_555
H10 C10 1_555 1_555
C11 N2 1_555 1_555
H11 C11 1_555 1_555
C12 C8 1_555 1_555
H12 C12 1_555 1_555
C13 N3 1_555 1_555
H13 C13 1_555 1_555
C14 C13 1_555 1_555
H14 C14 1_555 1_555
C15 C14 1_555 1_555
C16 C15 1_555 1_555
H15 C16 1_555 1_555
C17 N3 1_555 1_555
H16 C17 1_555 1_555
C18 C15 1_555 1_555
H17 C18 1_555 1_555
H18 C18 1_555 1_555
C19 Mo1 1_555 1_555
C20 Mo1 1_555 1_555
C21 Mo1 1_555 1_555
C22 Mo1 1_555 1_555
C23 Mo1 1_555 1_555
C24 C19 1_555 1_555
H19 C24 1_555 1_555
H20 C24 1_555 1_555
H21 C24 1_555 1_555
C25 C20 1_555 1_555
H22 C25 1_555 1_555
H23 C25 1_555 1_555
H24 C25 1_555 1_555
C26 C21 1_555 1_555
H25 C26 1_555 1_555
H26 C26 1_555 1_555
H27 C26 1_555 1_555
C27 C22 1_555 1_555
H28 C27 1_555 1_555
H29 C27 1_555 1_555
H30 C27 1_555 1_555
C28 C23 1_555 1_555
H31 C28 1_555 1_555
H32 C28 1_555 1_555
H33 C28 1_555 1_555
C29 H34 1_555 1_555
H35 C29 1_555 1_555
H36 C29 1_555 1_555
C30 C29 1_555 1_555
C31 H37 1_555 1_555
H38 C31 1_555 1_555
H39 C31 1_555 1_555
C32 C31 1_555 1_555
S4 O1 1_555 1_555
C33 S4 1_555 1_555
H40 C33 1_555 1_555
H41 C33 1_555 1_555
H42 C33 1_555 1_555
C34 S4 1_555 1_555
H43 C34 1_555 1_555
H44 C34 1_555 1_555
H45 C34 1_555 1_555
Mo1A S1A 1_555 1_555
Cu1A Br2A 1_555 1_555
Cu2A S2A 1_555 1_555
Cu2A_2 N3A 1_555 1_555
Cu3A N2 1_555 1_555
Br1A Cu3A 1_555 1_555
S1A Cu1A 1_555 1_555
S2A Mo1A 1_555 1_555
S3A Mo1A 1_555 1_555
N1A Cu2A 1_555 1_555
N2A Cu3 1_555 1_555
N3A C13A 1_555 1_555
N3A_2 Cu2A 1_555 1_555
C1A N1A 1_555 1_555
H1A C1A 1_555 1_555
C2A C1A 1_555 1_555
H2A C2A 1_555 1_555
C3A C2A 1_555 1_555
C4A C3A 1_555 1_555
H3A C4A 1_555 1_555
C5A N1A 1_555 1_555
H4A C5A 1_555 1_555
C6A C3A 1_555 1_555
H5A C6A 1_555 1_555
H6A C6A 1_555 1_555
C7A C6A 1_555 1_555
H7A C7A 1_555 1_555
H8A C7A 1_555 1_555
C8A C7A 1_555 1_555
C9A C8A 1_555 1_555
H9A C9A 1_555 1_555
C10A N2A 1_555 1_555
H10A C10A 1_555 1_555
C11A N2A 1_555 1_555
H11A C11A 1_555 1_555
C12A C8A 1_555 1_555
H12A C12A 1_555 1_555
C13A H13A 1_555 1_555
C14A C13A 1_555 1_555
H14A C14A 1_555 1_555
C15A C14A 1_555 1_555
C16A C15A 1_555 1_555
H15A C16A 1_555 1_555
C17A N3A 1_555 1_555
H16A C17A 1_555 1_555
C18A C18 1_555 1_555
H17A C18A 1_555 1_555
H18A C18A 1_555 1_555
C19A Mo1A 1_555 1_555
C20A Mo1A 1_555 1_555
C21A Mo1A 1_555 1_555
C22A Mo1A 1_555 1_555
C23A Mo1A 1_555 1_555
C24A C19A 1_555 1_555
H19A C24A 1_555 1_555
H20A C24A 1_555 1_555
H21A C24A 1_555 1_555
C25A C20A 1_555 1_555
H22A C25A 1_555 1_555
H23A C25A 1_555 1_555
H24A C25A 1_555 1_555
C26A C21A 1_555 1_555
H25A C26A 1_555 1_555
H26A C26A 1_555 1_555
H27A C26A 1_555 1_555
C27A C22A 1_555 1_555
H28A C27A 1_555 1_555
H29A C27A 1_555 1_555
H30A C27A 1_555 1_555
C28A C23A 1_555 1_555
H31A C28A 1_555 1_555
H32A C28A 1_555 1_555
H33A C28A 1_555 1_555
Cu1 S2 1_555 1_555
Cu2 S3 1_555 1_555
Cu3 S1 1_555 1_555
Cu3 S3 1_555 1_555
C4 C5 1_555 1_555
C11 C12 1_555 1_555
C16 C17 1_555 1_555
C19 C20 1_555 1_555
C19 C23 1_555 1_555
C20 C21 1_555 1_555
C21 C22 1_555 1_555
C22 C23 1_555 1_555
Cu1A S2A 1_555 1_555
Cu2A S3A 1_555 1_555
Cu3A S1A 1_555 1_555
Cu3A S3A 1_555 1_555
C4A C5A 1_555 1_555
C9A C10A 1_555 1_555
C11A C12A 1_555 1_555
C15A C18A 1_555 1_555
C16A C17A 1_555 1_555
C19A C20A 1_555 1_555
C19A C23A 1_555 1_555
C20A C21A 1_555 1_555
C21A C22A 1_555 1_555
C22A C23A 1_555 1_555

#END
