
#######################################################################
#
#                 Cambridge Crystallographic Data Centre
#                                CCDC 
#
#######################################################################
#
# If this CIF has been generated from an entry in the Cambridge 
# Structural Database, then it will include bibliographic, chemical, 
# crystal, experimental, refinement or atomic coordinate data resulting 
# from the CCDC's data processing and validation procedures.
#
#######################################################################

data_EFEFOM
_symmetry_cell_setting           tetragonal
_symmetry_space_group_name_H-M   'P 42/n'
_symmetry_Int_Tables_number      86
_space_group_name_Hall           '-P 4bc'
loop_
_symmetry_equiv_pos_site_id
_symmetry_equiv_pos_as_xyz
1 x,y,z
2 1/2-x,1/2-y,z
3 -y,1/2+x,1/2+z
4 1/2+y,-x,1/2+z
5 -x,-y,-z
6 1/2+x,1/2+y,-z
7 y,1/2-x,1/2-z
8 1/2-y,x,1/2-z
_cell_length_a                   22.671(4)
_cell_length_b                   22.671(4)
_cell_length_c                   10.073(3)
_cell_angle_alpha                90
_cell_angle_beta                 90
_cell_angle_gamma                90
_cell_volume                     5177.26
loop_
_atom_site_label
_atom_site_type_symbol
_atom_site_fract_x
_atom_site_fract_y
_atom_site_fract_z
Mn1 Mn 0.95921(4) 0.26927(3) 1.02186(9)
Mn2 Mn 0.93353(3) 0.11157(3) 0.75727(8)
O1 O 0.9035(3) 0.2012(3) 0.7144(7)
O2 O 0.8966(3) 0.2782(4) 0.8647(8)
O3 O 0.7372(3) 0.3977(2) 0.6889(5)
O4 O 0.8084(4) 0.3597(5) 0.5578(10)
O5 O 0.8528(2) 0.1026(2) 0.8697(5)
H1 H 0.8548 0.1231 0.9403
H2 H 0.8165 0.1017 0.8489
O6 O 0.9964(2) 0.1385(2) 0.5974(5)
H3 H 1.0063 0.1090 0.5506
H4 H 0.9855 0.1665 0.5467
N1 N 1.0359(2) 0.2603(2) 1.1939(5)
N2 N 1.1160(3) 0.2309(3) 1.3942(6)
N3 N 0.9962(2) 0.17936(18) 1.0188(4)
N4 N 0.99164(19) 0.13356(18) 0.9315(4)
N5 N 1.06650(19) 0.11267(19) 1.0712(4)
N6 N 0.99894(18) 0.03561(17) 0.7946(4)
N7 N 0.90840(17) 0.03187(19) 0.6318(5)
N8 N 0.86483(18) 0.01754(19) 0.5431(4)
N9 N 0.93325(18) -0.05425(18) 0.5369(4)
N10 N 0.7909(2) -0.0392(2) 0.3755(5)
N11 N 0.8255(3) -0.1378(3) 0.2330(6)
C1 C 1.0542(3) 0.2992(3) 1.2840(6)
H5 H 1.0394 0.3374 1.2813
C2 C 1.0942(4) 0.2845(3) 1.3812(7)
H6 H 1.1065 0.3136 1.4401
C3 C 1.0986(3) 0.1915(3) 1.3025(6)
H7 H 1.1133 0.1533 1.3064
C4 C 1.0593(3) 0.2064(2) 1.2022(5)
C5 C 1.0412(2) 0.1651(2) 1.0985(5)
C6 C 1.0334(2) 0.0953(2) 0.9661(5)
C7 C 1.0401(2) 0.0411(2) 0.8882(5)
C8 C 1.0840(2) -0.0009(2) 0.9062(6)
H8 H 1.1125 0.0032 0.9718
C9 C 1.0832(3) -0.0498(2) 0.8213(6)
H9 H 1.1121 -0.0787 0.8294
C10 C 1.0408(2) -0.0553(2) 0.7276(5)
H10 H 1.0403 -0.0878 0.6712
C11 C 0.9982(2) -0.0117(2) 0.7170(5)
C12 C 0.9476(2) -0.0118(2) 0.6255(5)
C13 C 0.8815(2) -0.0339(2) 0.4898(5)
C14 C 0.8437(2) -0.0631(2) 0.3927(5)
C15 C 0.8605(3) -0.1127(3) 0.3228(6)
H11 H 0.8974 -0.1291 0.3389
C16 C 0.7723(3) -0.1140(3) 0.2164(6)
H12 H 0.7460 -0.1311 0.1570
C17 C 0.7555(3) -0.0640(3) 0.2861(6)
H13 H 0.7187 -0.0474 0.2700
C18 C 0.8826(5) 0.2464(5) 0.7704(11)
C19 C 0.8296(5) 0.2665(6) 0.7022(14)
H14 H 0.8023 0.2337 0.6976
H15 H 0.8404 0.2766 0.6118
C20 C 0.7982(6) 0.3174(5) 0.7605(13)
H16 H 0.7638 0.3029 0.8074
H17 H 0.8238 0.3359 0.8253
C21 C 0.7792(5) 0.3622(5) 0.6655(12)
Mn1B Mn 0.73073(3) 0.45921(4) 0.52186(9)
Mn1C Mn 0.76927(3) 0.04079(4) 0.52186(9)
O3C O 0.8977(2) 0.2628(3) 1.1889(5)
N8B N 0.98246(19) 0.36483(18) 1.0431(4)
N10B N 1.0392(2) 0.2909(2) 0.8755(5)
O7 O 0.9515(5) 0.2296(6) 0.4634(13)
H18 H 0.9369 0.2383 0.3881
H19 H 0.9301 0.2438 0.5248
O8 O 0.2496(7) 0.2028(9) 0.4629(19)
H20 H 0.2206 0.2216 0.4301
H21 H 0.2607 0.1754 0.4108
loop_
_geom_bond_atom_site_label_1
_geom_bond_atom_site_label_2
_geom_bond_site_symmetry_1
_geom_bond_site_symmetry_2
Mn1 O2 1_555 1_555
Mn2 O1 1_555 1_555
O1 C18 1_555 1_555
O2 C18 1_555 1_555
O3 C21 1_555 1_555
O4 C21 1_555 1_555
O5 Mn2 1_555 1_555
H1 O5 1_555 1_555
H2 O5 1_555 1_555
O6 Mn2 1_555 1_555
H3 O6 1_555 1_555
H4 O6 1_555 1_555
N1 Mn1 1_555 1_555
N2 C2 1_555 1_555
N3 Mn1 1_555 1_555
N4 Mn2 1_555 1_555
N5 C5 1_555 1_555
N6 Mn2 1_555 1_555
N7 Mn2 1_555 1_555
N8 N7 1_555 1_555
N9 C12 1_555 1_555
N10 C14 1_555 1_555
N11 C15 1_555 1_555
C1 N1 1_555 1_555
H5 C1 1_555 1_555
C2 C1 1_555 1_555
H6 C2 1_555 1_555
C3 N2 1_555 1_555
H7 C3 1_555 1_555
C4 N1 1_555 1_555
C5 N3 1_555 1_555
C6 N4 1_555 1_555
C7 N6 1_555 1_555
C8 C7 1_555 1_555
H8 C8 1_555 1_555
C9 C8 1_555 1_555
H9 C9 1_555 1_555
C10 C9 1_555 1_555
H10 C10 1_555 1_555
C11 N6 1_555 1_555
C12 N7 1_555 1_555
C13 N8 1_555 1_555
C14 C13 1_555 1_555
C15 C14 1_555 1_555
H11 C15 1_555 1_555
C16 N11 1_555 1_555
H12 C16 1_555 1_555
C17 N10 1_555 1_555
H13 C17 1_555 1_555
C18 C19 1_555 1_555
C19 H14 1_555 1_555
H15 C19 1_555 1_555
C20 C19 1_555 1_555
H16 C20 1_555 1_555
H17 C20 1_555 1_555
C21 C20 1_555 1_555
O7 H18 1_555 1_555
H19 O7 1_555 1_555
O8 H20 1_555 1_555
H21 O8 1_555 1_555
Mn1B O3 1_555 1_555
Mn1C N8 1_555 1_555
O3C Mn1 1_555 1_555
N8B Mn1 1_555 1_555
N10B Mn1 1_555 1_555
N3 N4 1_555 1_555
N5 C6 1_555 1_555
N9 C13 1_555 1_555
N10 Mn1C 1_555 1_555
C3 C4 1_555 1_555
C4 C5 1_555 1_555
C6 C7 1_555 1_555
C10 C11 1_555 1_555
C11 C12 1_555 1_555
C16 C17 1_555 1_555

#END
