
#######################################################################
#
#                 Cambridge Crystallographic Data Centre
#                                CCDC 
#
#######################################################################
#
# If this CIF has been generated from an entry in the Cambridge 
# Structural Database, then it will include bibliographic, chemical, 
# crystal, experimental, refinement or atomic coordinate data resulting 
# from the CCDC's data processing and validation procedures.
#
#######################################################################

data_EFEGIH
_symmetry_cell_setting           monoclinic
_symmetry_space_group_name_H-M   'P 21/n'
_symmetry_Int_Tables_number      14
_space_group_name_Hall           '-P 2yn'
loop_
_symmetry_equiv_pos_site_id
_symmetry_equiv_pos_as_xyz
1 x,y,z
2 1/2-x,1/2+y,1/2-z
3 -x,-y,-z
4 1/2+x,1/2-y,1/2+z
_cell_length_a                   11.637(6)
_cell_length_b                   10.905(6)
_cell_length_c                   21.023(12)
_cell_angle_alpha                90
_cell_angle_beta                 97.947(11)
_cell_angle_gamma                90
_cell_volume                     2642.23
loop_
_atom_site_label
_atom_site_type_symbol
_atom_site_fract_x
_atom_site_fract_y
_atom_site_fract_z
Zn1 Zn 0.59435(5) 0.59333(6) 0.17414(3)
C1 C 0.8587(5) 0.6213(5) -0.0014(2)
C2 C 0.8610(4) 0.6509(5) 0.0639(2)
C3 C 0.9260(4) 0.7495(5) 0.0892(3)
H1 H 0.9297 0.7683 0.1326
C4 C 0.9856(4) 0.8206(5) 0.0502(3)
C5 C 0.9840(5) 0.7936(6) -0.0134(3)
H2 H 1.0242 0.8421 -0.0393
C6 C 0.9206(5) 0.6914(6) -0.0388(3)
H3 H 0.9205 0.6708 -0.0818
C7 C 1.3210(5) 0.9153(5) 0.2201(3)
C8 C 1.3128(4) 0.8264(5) 0.1719(2)
C9 C 1.2158(4) 0.8270(5) 0.1240(3)
H4 H 1.2074 0.7667 0.0924
C10 C 1.1334(5) 0.9173(5) 0.1240(3)
C11 C 1.1425(5) 1.0080(5) 0.1713(3)
H5 H 1.0866 1.0691 0.1707
C12 C 1.2364(5) 1.0043(6) 0.2191(3)
H6 H 1.2429 1.0633 0.2513
C13 C 0.7840(5) 0.5915(5) 0.1079(3)
C14 C 0.7880(5) 0.5160(6) -0.0300(3)
C15 C 1.4170(5) 0.9099(6) 0.2750(3)
C16 C 1.4066(5) 0.7340(6) 0.1682(3)
C17 C 0.7332(6) 0.4815(6) 0.2890(3)
H7 H 0.7454 0.4200 0.2600
C18 C 0.7738(6) 0.4638(6) 0.3529(3)
H8 H 0.8094 0.3901 0.3664
C19 C 0.7619(5) 0.5561(5) 0.3976(3)
C20 C 0.7102(5) 0.6642(5) 0.3734(3)
H9 H 0.7029 0.7298 0.4008
C21 C 0.6696(5) 0.6747(5) 0.3085(2)
H10 H 0.6360 0.7485 0.2935
C22 C 0.9950(6) 0.1631(6) 0.6808(3)
H11 H 0.9990 0.1493 0.7247
C23 C 0.9454(6) 0.2714(7) 0.6564(3)
H12 H 0.9198 0.3290 0.6839
C24 C 0.9335(5) 0.2944(5) 0.5904(2)
C25 C 0.9775(5) 0.2052(6) 0.5537(2)
H13 H 0.9724 0.2154 0.5095
C26 C 1.0286(6) 0.1017(6) 0.5821(3)
H14 H 1.0590 0.0450 0.5559
C27 C 0.7941(6) 0.5399(6) 0.4688(3)
H15 H 0.7242 0.5479 0.4888
H16 H 0.8456 0.6064 0.4847
C28 C 0.8525(5) 0.4196(5) 0.4907(3)
H17 H 0.9252 0.4128 0.4733
H18 H 0.8032 0.3520 0.4738
C29 C 0.8760(6) 0.4100(5) 0.5641(3)
H19 H 0.9243 0.4788 0.5802
H20 H 0.8027 0.4181 0.5807
N1 N 0.6762(4) 0.5838(4) 0.2662(2)
N2 N 1.0377(4) 0.0770(4) 0.6452(2)
O1 O 0.6842(3) 0.6411(4) 0.10577(17)
O2 O 0.8218(3) 0.5100(4) 0.1462(2)
O3 O 0.7387(4) 0.4427(5) -0.0005(2)
H21 H 0.6839 0.4989 -0.0017
O4 O 0.7831(5) 0.5083(5) -0.0938(2)
O5 O 1.4401(4) 0.8190(4) 0.30729(19)
O6 O 1.4716(4) 1.0152(5) 0.2871(2)
H22 H 1.4491 1.0813 0.2628
O7 O 1.3818(6) 0.6268(5) 0.1551(4)
O8 O 1.5100(4) 0.7615(5) 0.1824(2)
O9 O 1.0409(3) 0.9282(3) 0.0743(2)
Zn1_2 Zn 1.59435(5) 0.59333(6) 0.17414(3)
Zn1C Zn 1.09435(5) -0.09333(6) 0.67414(3)
N2C N 0.5377(4) 0.4230(4) 0.1452(2)
O7_2 O 0.3818(6) 0.6268(5) 0.1551(4)
O8_2 O 0.5100(4) 0.7615(5) 0.1824(2)
loop_
_geom_bond_atom_site_label_1
_geom_bond_atom_site_label_2
_geom_bond_site_symmetry_1
_geom_bond_site_symmetry_2
Zn1 N1 1_555 1_555
C1 C2 1_555 1_555
C2 C3 1_555 1_555
C3 H1 1_555 1_555
C4 C3 1_555 1_555
C5 C4 1_555 1_555
H2 C5 1_555 1_555
C6 C1 1_555 1_555
H3 C6 1_555 1_555
C7 C8 1_555 1_555
C8 C9 1_555 1_555
C9 H4 1_555 1_555
C10 C9 1_555 1_555
C11 C10 1_555 1_555
H5 C11 1_555 1_555
C12 C7 1_555 1_555
H6 C12 1_555 1_555
C13 C2 1_555 1_555
C14 C1 1_555 1_555
C15 C7 1_555 1_555
C16 C8 1_555 1_555
C17 H7 1_555 1_555
C18 C17 1_555 1_555
H8 C18 1_555 1_555
C19 C18 1_555 1_555
C20 C19 1_555 1_555
H9 C20 1_555 1_555
C21 C20 1_555 1_555
H10 C21 1_555 1_555
C22 H11 1_555 1_555
C23 C22 1_555 1_555
H12 C23 1_555 1_555
C24 C23 1_555 1_555
C25 C24 1_555 1_555
H13 C25 1_555 1_555
C26 C25 1_555 1_555
H14 C26 1_555 1_555
C27 C19 1_555 1_555
H15 C27 1_555 1_555
H16 C27 1_555 1_555
C28 C27 1_555 1_555
H17 C28 1_555 1_555
H18 C28 1_555 1_555
C29 C24 1_555 1_555
H19 C29 1_555 1_555
H20 C29 1_555 1_555
N1 C17 1_555 1_555
N2 C22 1_555 1_555
O1 Zn1 1_555 1_555
O2 C13 1_555 1_555
O3 C14 1_555 1_555
H21 O3 1_555 1_555
O4 C14 1_555 1_555
O5 C15 1_555 1_555
O6 C15 1_555 1_555
H22 O6 1_555 1_555
O7 C16 1_555 1_555
O8 C16 1_555 1_555
O9 C4 1_555 1_555
Zn1_2 O7 1_555 1_555
Zn1C N2 1_555 1_555
N2C Zn1 1_555 1_555
O7_2 Zn1 1_555 1_555
O8_2 Zn1 1_555 1_555
C5 C6 1_555 1_555
C10 O9 1_555 1_555
C11 C12 1_555 1_555
C13 O1 1_555 1_555
C21 N1 1_555 1_555
C26 N2 1_555 1_555
C28 C29 1_555 1_555
O8 Zn1_2 1_555 1_555

#END
