
#######################################################################
#
#                 Cambridge Crystallographic Data Centre
#                                CCDC 
#
#######################################################################
#
# If this CIF has been generated from an entry in the Cambridge 
# Structural Database, then it will include bibliographic, chemical, 
# crystal, experimental, refinement or atomic coordinate data resulting 
# from the CCDC's data processing and validation procedures.
#
#######################################################################

data_EFEKOQ
_symmetry_cell_setting           monoclinic
_symmetry_space_group_name_H-M   'P 21/c'
_symmetry_Int_Tables_number      14
_space_group_name_Hall           '-P 2ybc'
loop_
_symmetry_equiv_pos_site_id
_symmetry_equiv_pos_as_xyz
1 x,y,z
2 -x,1/2+y,1/2-z
3 -x,-y,-z
4 x,1/2-y,1/2+z
_cell_length_a                   19.507(4)
_cell_length_b                   8.4120(10)
_cell_length_c                   12.104(2)
_cell_angle_alpha                90.00
_cell_angle_beta                 91.85(2)
_cell_angle_gamma                90.00
_cell_volume                     1985.15
loop_
_atom_site_label
_atom_site_type_symbol
_atom_site_fract_x
_atom_site_fract_y
_atom_site_fract_z
Mn1 Mn 0.0000 0.0000 0.0000
N1 N -0.0829(2) 0.1002(5) -0.1083(4)
C13 C -0.0962(2) 0.2126(6) -0.1569(4)
N2 N -0.1156(2) 0.3479(6) -0.1996(4)
C14 C -0.0855(2) 0.4054(6) -0.2847(4)
N3 N -0.0639(2) 0.4702(5) -0.3582(4)
N4 N 0.0365(11) 0.2611(15) 0.0402(19)
C15 C 0.0006(5) 0.3684(11) 0.0414(9)
N5 N -0.0425(5) 0.4838(9) 0.0596(8)
C16 C 0.0375(5) 0.3770(9) -0.0135(8)
N6 N 0.0344(10) 0.2461(13) 0.0111(19)
Mn1C Mn 0.0000 0.5000 -0.5000
Mn1_2 Mn 0.0000 1.0000 0.0000
Mn1C_2 Mn 0.0000 -0.5000 0.5000
N1B N 0.0829(2) -0.1002(5) 0.1083(4)
C13B C 0.0962(2) -0.2126(6) 0.1569(4)
N2B N 0.1156(2) -0.3479(6) 0.1996(4)
C14B C 0.0855(2) -0.4054(6) 0.2847(4)
N3B N 0.0639(2) -0.4702(5) 0.3582(4)
N3C N -0.0639(2) 0.0298(5) 0.1418(4)
N3A N 0.0639(2) -0.0298(5) -0.1418(4)
N4B N -0.0365(11) 0.7389(15) -0.0402(19)
N4B_2 N -0.0365(11) -0.2611(15) -0.0402(19)
C15B C -0.0006(5) 0.6316(11) -0.0414(9)
N5B N 0.0425(5) 0.5162(9) -0.0596(8)
C16B C -0.0375(5) 0.6230(9) 0.0135(8)
N6B N -0.0344(10) 0.7539(13) -0.0111(19)
N6B_2 N -0.0344(10) -0.2461(13) -0.0111(19)
Se1 Se 0.40481(2) 0.05089(5) 0.24770(3)
Se2 Se 0.37051(2) 0.27627(5) 0.44865(3)
Se3 Se 0.57307(2) 0.05170(5) 0.33292(3)
Se4 Se 0.53631(2) 0.27413(5) 0.53423(3)
S1 S 0.26058(6) 0.0676(2) 0.14948(9)
S2 S 0.22097(5) 0.31567(14) 0.37017(8)
S3 S 0.72710(5) 0.09487(15) 0.37676(9)
S4 S 0.68526(5) 0.32274(14) 0.60291(9)
C1 C 0.4381(2) 0.1650(4) 0.3718(3)
C2 C 0.5047(2) 0.1663(5) 0.4055(3)
C3 C 0.3151(2) 0.1340(4) 0.2568(3)
C4 C 0.2999(2) 0.2332(4) 0.3406(3)
C5 C 0.6460(2) 0.1472(5) 0.4179(3)
C6 C 0.6298(2) 0.2380(4) 0.5045(3)
C7 C 0.1878(2) 0.1969(5) 0.1620(3)
H1 H 0.2001(2) 0.3027(5) 0.1376(3)
H2 H 0.1507(2) 0.1589(5) 0.1138(3)
C8 C 0.1632(2) 0.2063(5) 0.2787(3)
H3 H 0.1580(2) 0.0994(5) 0.3072(3)
H4 H 0.1186(2) 0.2569(5) 0.2778(3)
C9 C 0.7714(3) 0.0955(6) 0.5089(4)
H5 H 0.7510(3) 0.0159(6) 0.5556(4)
H6 H 0.8188(3) 0.0658(6) 0.4990(4)
C10 C 0.7695(2) 0.2537(6) 0.5664(4)
H7 H 0.7897(2) 0.3326(6) 0.5190(4)
H8 H 0.7980(2) 0.2471(6) 0.6334(4)
C11? C 0.7841(4) 0.1708(23) 0.4817(10)
H9? H 0.8246(4) 0.1037(23) 0.4854(10)
H10? H 0.7987(4) 0.2760(23) 0.4596(10)
C12? C 0.7562(7) 0.1823(20) 0.5959(8)
H11? H 0.7927(7) 0.2152(20) 0.6472(8)
H12? H 0.7407(7) 0.0781(20) 0.6185(8)
loop_
_geom_bond_atom_site_label_1
_geom_bond_atom_site_label_2
_geom_bond_site_symmetry_1
_geom_bond_site_symmetry_2
Se1 C1 1_555 1_555
Se2 C1 1_555 1_555
Se3 C2 1_555 1_555
Se4 C2 1_555 1_555
S1 C3 1_555 1_555
S2 C4 1_555 1_555
S3 C5 1_555 1_555
S4 C6 1_555 1_555
C1 C2 1_555 1_555
C3 Se1 1_555 1_555
C4 Se2 1_555 1_555
C5 Se3 1_555 1_555
C6 Se4 1_555 1_555
C7 S1 1_555 1_555
H1 C7 1_555 1_555
H2 C7 1_555 1_555
C8 S2 1_555 1_555
H3 C8 1_555 1_555
H4 C8 1_555 1_555
C9 S3 1_555 1_555
H5 C9 1_555 1_555
H6 C9 1_555 1_555
C10 S4 1_555 1_555
H7 C10 1_555 1_555
H8 C10 1_555 1_555
Mn1 N1 1_555 1_555
N1 C13 1_555 1_555
C13 N2 1_555 1_555
N2 C14 1_555 1_555
C14 N3 1_555 1_555
N3 Mn1C 1_555 1_555
N4 Mn1 1_555 1_555
C15 N4 1_555 1_555
N5 C15 1_555 1_555
C16 N4 1_555 1_555
N6 Mn1 1_555 1_555
Mn1_2 N4B 1_555 1_555
Mn1C_2 N3B 1_555 1_555
N1B Mn1 1_555 1_555
C13B N1B 1_555 1_555
N2B C13B 1_555 1_555
C14B N2B 1_555 1_555
N3B C14B 1_555 1_555
N3C Mn1 1_555 1_555
N3A Mn1 1_555 1_555
N4B C15B 1_555 1_555
N4B_2 Mn1 1_555 1_555
C15B N5 1_555 1_555
N5B C15 1_555 1_555
C16B N5 1_555 1_555
N6B Mn1_2 1_555 1_555
N6B_2 Mn1 1_555 1_555
C3 C4 1_555 1_555
C5 C6 1_555 1_555
C7 C8 1_555 1_555
C9 C10 1_555 1_555
N4 N6 1_555 1_555
C15 C16 1_555 1_555
C15 N6 1_555 1_555
C16 N6 1_555 1_555
C16 N5B 1_555 1_555
N4B C16B 1_555 1_555
N4B N6B 1_555 1_555
N4B_2 N6B_2 1_555 1_555
C15B N5B 1_555 1_555
C15B C16B 1_555 1_555
C15B N6B 1_555 1_555
C16B N6B 1_555 1_555

#END
