
#######################################################################
#
#                 Cambridge Crystallographic Data Centre
#                                CCDC 
#
#######################################################################
#
# If this CIF has been generated from an entry in the Cambridge 
# Structural Database, then it will include bibliographic, chemical, 
# crystal, experimental, refinement or atomic coordinate data resulting 
# from the CCDC's data processing and validation procedures.
#
#######################################################################

data_EFEYIZ
_symmetry_cell_setting           triclinic
_symmetry_space_group_name_H-M   'P -1'
_symmetry_Int_Tables_number      2
_space_group_name_Hall           '-P 1'
loop_
_symmetry_equiv_pos_site_id
_symmetry_equiv_pos_as_xyz
1 x,y,z
2 -x,-y,-z
_cell_length_a                   7.595(10)
_cell_length_b                   9.676(12)
_cell_length_c                   12.126(15)
_cell_angle_alpha                99.659(14)
_cell_angle_beta                 102.125(13)
_cell_angle_gamma                112.122(13)
_cell_volume                     776.549
loop_
_atom_site_label
_atom_site_type_symbol
_atom_site_fract_x
_atom_site_fract_y
_atom_site_fract_z
Cd1 Cd 1.24733(2) 0.64963(2) 0.348429(15)
O1 O 0.9673(3) 0.4766(2) 0.22494(16)
O2 O 0.9817(3) 0.3869(2) 0.37750(16)
O3 O 0.4824(3) -0.1456(2) 0.31559(16)
O4 O 0.1910(3) -0.2200(2) 0.19362(18)
O5 O 0.1362(3) 0.0580(3) -0.10392(18)
O6 O 0.3651(3) 0.2784(3) -0.07984(18)
O7 O 1.1106(3) 0.7679(2) 0.45981(16)
H1 H 1.0773 0.7197 0.5155
H2 H 0.9979 0.7675 0.4154
N1 N 0.2964(3) 0.1622(3) -0.05088(19)
N2 N 1.5966(3) 0.5063(3) 0.73733(19)
H3 H 1.4657 0.4434 0.7281
H4 H 1.6613 0.5492 0.8163
N3 N 1.4701(3) 0.6998(3) 0.52386(18)
C1 C 0.5941(4) 0.2635(3) 0.1112(2)
H5 H 0.6439 0.3530 0.0841
C2 C 0.8983(4) 0.3791(3) 0.2774(2)
C3 C 0.7036(3) 0.2495(3) 0.2104(2)
C4 C 0.6306(4) 0.1193(3) 0.2469(2)
H6 H 0.7079 0.1097 0.3153
C5 C 0.3351(4) 0.0160(3) 0.0881(2)
H7 H 0.2063 -0.0637 0.0459
C6 C 0.3669(4) -0.1316(3) 0.2326(2)
C7 C 1.6059(4) 0.6233(3) 0.6831(2)
C8 C 0.4118(4) 0.1454(3) 0.0527(2)
C9 C 1.6305(4) 0.8330(3) 0.5592(2)
H8 H 1.6408 0.9069 0.5155
C10 C 1.7701(4) 0.7609(3) 0.7196(2)
H9 H 1.8754 0.7831 0.7877
C11 C 1.4577(4) 0.5990(3) 0.5855(2)
H10 H 1.3401 0.5047 0.5612
C12 C 0.4479(4) 0.0029(3) 0.1864(2)
C13 C 1.7813(4) 0.8663(3) 0.6572(2)
H11 H 1.8946 0.9635 0.6820
Cd1_2 Cd 0.24733(2) -0.35037(2) 0.348429(15)
Cd1A Cd 1.75267(2) 0.35037(2) 0.651571(15)
O3_2 O 1.4824(3) 0.8544(2) 0.31559(16)
O4_2 O 1.1910(3) 0.7800(2) 0.19362(18)
N2A N 1.4034(3) 0.4937(3) 0.26267(19)
O8 O 0.0810(4) 0.3604(3) 0.03821(19)
H12 H 0.0135 0.3993 0.0722
H13 H 0.0390 0.3456 -0.0372
O9 O 0.7929(3) 0.7716(3) 0.32075(18)
H14 H 0.7347 0.8325 0.3327
H15 H 0.8028 0.7602 0.2499
loop_
_geom_bond_atom_site_label_1
_geom_bond_atom_site_label_2
_geom_bond_site_symmetry_1
_geom_bond_site_symmetry_2
Cd1 O1 1_555 1_555
O1 C2 1_555 1_555
O2 Cd1 1_555 1_555
O3 C6 1_555 1_555
O4 C6 1_555 1_555
O5 N1 1_555 1_555
O6 N1 1_555 1_555
O7 Cd1 1_555 1_555
H1 O7 1_555 1_555
H2 O7 1_555 1_555
N1 C8 1_555 1_555
N2 H3 1_555 1_555
H4 N2 1_555 1_555
N3 Cd1 1_555 1_555
C1 H5 1_555 1_555
C2 O2 1_555 1_555
C3 C1 1_555 1_555
C4 C3 1_555 1_555
H6 C4 1_555 1_555
C5 H7 1_555 1_555
C6 C12 1_555 1_555
C7 N2 1_555 1_555
C8 C1 1_555 1_555
C9 N3 1_555 1_555
H8 C9 1_555 1_555
C10 C7 1_555 1_555
H9 C10 1_555 1_555
C11 N3 1_555 1_555
H10 C11 1_555 1_555
C12 C4 1_555 1_555
C13 C9 1_555 1_555
H11 C13 1_555 1_555
O8 H12 1_555 1_555
H13 O8 1_555 1_555
O9 H14 1_555 1_555
H15 O9 1_555 1_555
Cd1_2 O3 1_555 1_555
Cd1A N2 1_555 1_555
O3_2 Cd1 1_555 1_555
O4_2 Cd1 1_555 1_555
N2A Cd1 1_555 1_555
O4 Cd1_2 1_555 1_555
C2 C3 1_555 1_555
C5 C8 1_555 1_555
C5 C12 1_555 1_555
C7 C11 1_555 1_555
C10 C13 1_555 1_555

#END
