
#######################################################################
#
#                 Cambridge Crystallographic Data Centre
#                                CCDC 
#
#######################################################################
#
# If this CIF has been generated from an entry in the Cambridge 
# Structural Database, then it will include bibliographic, chemical, 
# crystal, experimental, refinement or atomic coordinate data resulting 
# from the CCDC's data processing and validation procedures.
#
#######################################################################

data_EFEYOF
_symmetry_cell_setting           triclinic
_symmetry_space_group_name_H-M   'P -1'
_symmetry_Int_Tables_number      2
_space_group_name_Hall           '-P 1'
loop_
_symmetry_equiv_pos_site_id
_symmetry_equiv_pos_as_xyz
1 x,y,z
2 -x,-y,-z
_cell_length_a                   8.1492(6)
_cell_length_b                   10.7539(8)
_cell_length_c                   13.0045(9)
_cell_angle_alpha                99.2800(10)
_cell_angle_beta                 92.0080(10)
_cell_angle_gamma                97.3910(10)
_cell_volume                     1113.58
loop_
_atom_site_label
_atom_site_type_symbol
_atom_site_fract_x
_atom_site_fract_y
_atom_site_fract_z
Cd1 Cd 0.47037(3) 0.42908(2) 0.200531(19)
Cd2 Cd 0.85564(3) 0.23584(2) 0.10904(2)
O1 O 0.3689(3) -0.3291(2) -0.0259(2)
O2 O 0.2626(3) 0.5411(2) 0.1430(2)
H1 H 0.1647 0.4927 0.1350
H2 H 0.2869 0.5639 0.0821
O3 O 1.0459(3) 0.1286(2) 0.1828(2)
H3 H 1.1406 0.1790 0.1997
H4 H 1.0643 0.0617 0.1379
O4 O 0.6219(3) -0.2688(2) -0.07307(19)
N1 N 0.6383(3) 0.6185(3) 0.2120(2)
O5 O 0.9819(3) 0.4105(2) 0.2230(2)
O6 O 1.0547(3) 0.8844(2) 0.0706(2)
O7 O 0.7244(3) 0.3580(2) 0.26210(19)
O8 O 0.6926(3) 0.7109(2) 0.70054(19)
C1 C 1.0376(5) 0.7233(3) 0.4648(3)
O9 O 0.6129(3) 0.5099(2) 0.6328(2)
N2 N 0.6658(3) 0.0690(3) 0.1322(2)
O10 O 1.0007(3) 0.6783(2) 0.0097(2)
C2 C 0.5052(5) -0.2548(3) -0.0148(3)
C3 C 1.0208(4) 0.6281(3) 0.3786(3)
H5 H 1.0968 0.6290 0.3249
C4 C 0.7824(4) 0.5299(3) 0.4540(3)
H6 H 0.6931 0.4629 0.4499
C5 C 0.8893(4) 0.5311(3) 0.3732(3)
C6 C 0.7299(5) 0.8224(3) 0.3142(3)
H7 H 0.7196 0.8834 0.3743
C7 C 0.8510(5) 0.8461(3) 0.2445(3)
H8 H 0.9237 0.9241 0.2557
C8 C 0.8635(4) 0.4269(3) 0.2797(3)
C9 C 0.6252(4) 0.7089(3) 0.2947(3)
H9 H 0.5406 0.6939 0.3415
C10 C 0.9327(5) 0.7251(3) 0.5462(3)
H10 H 0.9481 0.7924 0.6041
C11 C 0.7577(4) 0.6413(3) 0.1467(3)
H11 H 0.7701 0.5768 0.0895
C12 C 0.4181(4) -0.1283(3) 0.1509(3)
H12 H 0.3328 -0.1954 0.1570
C13 C 0.5609(4) 0.0802(3) 0.2108(3)
H13 H 0.5726 0.1572 0.2594
C14 C 0.8048(4) 0.6258(3) 0.5407(3)
C15 C 0.6485(4) -0.0404(3) 0.0645(3)
H14 H 0.7235 -0.0499 0.0104
C16 C 0.4379(4) -0.0166(3) 0.2224(3)
H15 H 0.3675 -0.0065 0.2790
C17 C 0.8640(4) 0.7547(3) 0.1589(3)
C18 C 0.9818(4) 0.7745(3) 0.0750(3)
C19 C 0.6958(4) 0.6162(3) 0.6308(3)
C20 C 0.5250(4) -0.1408(3) 0.0702(3)
O11 O 1.2606(4) 0.8310(3) 0.3962(3)
N3 N 1.1760(5) 0.8267(3) 0.4698(3)
O12 O 1.2020(6) 0.9020(4) 0.5508(3)
Cd1A Cd 0.52963(3) -0.42908(2) -0.200531(19)
Cd1A_2 Cd 0.52963(3) 0.57092(2) 0.799469(19)
Cd2A Cd 0.14436(3) -0.23584(2) -0.10904(2)
Cd2A_2 Cd 1.14436(3) 0.76416(2) -0.10904(2)
O1A O 0.6311(3) 0.3291(2) 0.0259(2)
O4A O 0.3781(3) 0.2688(2) 0.07307(19)
O6A O 0.9453(3) 0.1156(2) -0.0706(2)
O8A O 0.3074(3) 0.2891(2) 0.29946(19)
O9A O 0.3871(3) 0.4901(2) 0.3672(2)
O10A O 0.9993(3) 0.3217(2) -0.0097(2)
loop_
_geom_bond_atom_site_label_1
_geom_bond_atom_site_label_2
_geom_bond_site_symmetry_1
_geom_bond_site_symmetry_2
Cd1 O2 1_555 1_555
Cd2 O3 1_555 1_555
O1 C2 1_555 1_555
O2 H1 1_555 1_555
H2 O2 1_555 1_555
O3 H3 1_555 1_555
H4 O3 1_555 1_555
O4 C2 1_555 1_555
N1 Cd1 1_555 1_555
O5 Cd2 1_555 1_555
O6 C18 1_555 1_555
O7 Cd1 1_555 1_555
O8 C19 1_555 1_555
C1 C3 1_555 1_555
O9 C19 1_555 1_555
N2 Cd2 1_555 1_555
O10 C18 1_555 1_555
C2 C20 1_555 1_555
C3 H5 1_555 1_555
C4 H6 1_555 1_555
C5 C3 1_555 1_555
C6 H7 1_555 1_555
C7 C6 1_555 1_555
H8 C7 1_555 1_555
C8 O5 1_555 1_555
C9 N1 1_555 1_555
H9 C9 1_555 1_555
C10 C1 1_555 1_555
H10 C10 1_555 1_555
C11 N1 1_555 1_555
H11 C11 1_555 1_555
C12 H12 1_555 1_555
C13 N2 1_555 1_555
H13 C13 1_555 1_555
C14 C4 1_555 1_555
C15 N2 1_555 1_555
H14 C15 1_555 1_555
C16 C12 1_555 1_555
H15 C16 1_555 1_555
C17 C7 1_555 1_555
C18 C17 1_555 1_555
C19 C14 1_555 1_555
C20 C12 1_555 1_555
O11 N3 1_555 1_555
N3 C1 1_555 1_555
O12 N3 1_555 1_555
Cd1A O1 1_555 1_555
Cd1A_2 O8 1_555 1_555
Cd2A O1 1_555 1_555
Cd2A_2 O6 1_555 1_555
O1A Cd1 1_555 1_555
O4A Cd1 1_555 1_555
O6A Cd2 1_555 1_555
O8A Cd1 1_555 1_555
O9A Cd1 1_555 1_555
O10A Cd2 1_555 1_555
Cd2 O7 1_555 1_555
Cd2 O1A 1_555 1_555
O4 Cd1A 1_555 1_555
O7 C8 1_555 1_555
O9 Cd1A_2 1_555 1_555
O10 Cd2A_2 1_555 1_555
C4 C5 1_555 1_555
C5 C8 1_555 1_555
C6 C9 1_555 1_555
C10 C14 1_555 1_555
C11 C17 1_555 1_555
C13 C16 1_555 1_555
C15 C20 1_555 1_555

#END
