
#######################################################################
#
#                 Cambridge Crystallographic Data Centre
#                                CCDC 
#
#######################################################################
#
# If this CIF has been generated from an entry in the Cambridge 
# Structural Database, then it will include bibliographic, chemical, 
# crystal, experimental, refinement or atomic coordinate data resulting 
# from the CCDC's data processing and validation procedures.
#
#######################################################################

data_EFIKAG
_symmetry_cell_setting           orthorhombic
_symmetry_space_group_name_H-M   'F d d 2'
_symmetry_Int_Tables_number      43
_space_group_name_Hall           'F 2 -2d'
loop_
_symmetry_equiv_pos_site_id
_symmetry_equiv_pos_as_xyz
1 x,y,z
2 -x,-y,z
3 1/4+x,1/4-y,1/4+z
4 1/4-x,1/4+y,1/4+z
5 x,1/2+y,1/2+z
6 -x,1/2-y,1/2+z
7 1/4+x,3/4-y,3/4+z
8 1/4-x,3/4+y,3/4+z
9 1/2+x,y,1/2+z
10 1/2-x,-y,1/2+z
11 3/4+x,1/4-y,3/4+z
12 3/4-x,1/4+y,3/4+z
13 1/2+x,1/2+y,z
14 1/2-x,1/2-y,z
15 3/4+x,3/4-y,1/4+z
16 3/4-x,3/4+y,1/4+z
_cell_length_a                   28.6911(19)
_cell_length_b                   50.103(3)
_cell_length_c                   10.0620(7)
_cell_angle_alpha                90
_cell_angle_beta                 90
_cell_angle_gamma                90
_cell_volume                     14464.2
loop_
_atom_site_label
_atom_site_type_symbol
_atom_site_fract_x
_atom_site_fract_y
_atom_site_fract_z
C1 C 0.1878(2) 0.27404(15) 1.0078(8)
C2 C 0.1897(2) 0.24728(16) 1.0164(7)
H1 H 0.1906 0.2369 0.9399
C3 C 0.1905(3) 0.23507(11) 1.1443(10)
H2 H 0.1932 0.2166 1.1527
C4 C 0.1871(3) 0.25083(18) 1.2539(9)
H3 H 0.1869 0.2429 1.3376
C5 C 0.1840(2) 0.27858(13) 1.2440(7)
C6 C 0.1843(2) 0.28934(13) 1.1252(8)
H4 H 0.1820 0.3078 1.1179
C7 C 0.1897(2) 0.28633(14) 0.8732(8)
C8 C 0.1804(2) 0.29438(14) 1.3713(7)
C9 C 0.4036(2) 0.29009(11) 0.4592(7)
C10 C 0.4392(2) 0.30631(11) 0.4065(8)
C11 C 0.4776(2) 0.29108(13) 0.3604(6)
C12 C 0.47151(19) 0.26350(11) 0.3769(8)
C13 C 0.3580(2) 0.29723(12) 0.5083(7)
C14 C 0.3344(2) 0.28107(12) 0.5957(6)
H5 H 0.3487 0.2658 0.6284
C15 C 0.28882(19) 0.28746(11) 0.6364(8)
H6 H 0.2739 0.2759 0.6951
C16 C 0.2895(2) 0.32491(12) 0.5144(7)
H7 H 0.2744 0.3402 0.4850
C17 C 0.3346(2) 0.32048(13) 0.4703(7)
H8 H 0.3492 0.3329 0.4157
C18 C 0.4393(2) 0.33537(11) 0.4028(8)
C19 C 0.4386(2) 0.35054(15) 0.5133(8)
H9 H 0.4375 0.3421 0.5956
C20 C 0.4396(3) 0.37820(15) 0.5093(8)
H10 H 0.4396 0.3879 0.5880
C21 C 0.4404(3) 0.37554(16) 0.2852(9)
H11 H 0.4399 0.3841 0.2032
C22 C 0.4411(3) 0.34885(16) 0.2842(8)
H12 H 0.4428 0.3396 0.2044
C23 C 0.5213(2) 0.30137(13) 0.3051(8)
C24 C 0.5493(2) 0.31792(13) 0.3656(9)
H13 H 0.5397 0.3254 0.4457
C25 C 0.5926(2) 0.32488(15) 0.3162(8)
H14 H 0.6129 0.3348 0.3687
C26 C 0.57580(19) 0.30332(13) 0.1293(8)
H15 H 0.5845 0.2982 0.0440
C27 C 0.5328(2) 0.29489(13) 0.1722(7)
H16 H 0.5125 0.2855 0.1173
C28 C 0.4999(2) 0.23998(12) 0.3487(7)
C29 C 0.5470(2) 0.24043(14) 0.3768(9)
H17 H 0.5609 0.2557 0.4115
C30 C 0.5737(2) 0.21724(15) 0.3518(8)
H18 H 0.6058 0.2180 0.3641
C31 C 0.5117(3) 0.19563(14) 0.2844(9)
H19 H 0.4984 0.1800 0.2523
C32 C 0.4840(3) 0.21645(14) 0.2967(8)
H20 H 0.4531 0.2151 0.2695
Cd1 Cd 0.186834(16) 0.312860(8) 0.63658(5)
N1 N 0.26610(18) 0.30869(10) 0.5964(5)
N2 N 0.44040(19) 0.39090(9) 0.3924(7)
N3 N 0.6056(2) 0.31764(10) 0.1949(6)
N4 N 0.5554(2) 0.19499(12) 0.3126(6)
O1 O 0.19976(18) 0.31143(8) 0.8678(5)
O2 O 0.18410(18) 0.27262(11) 0.7751(5)
O3 O 0.18320(17) 0.31969(10) 1.3605(6)
O4 O 0.17421(16) 0.28351(10) 1.4792(5)
S1 S 0.41732(5) 0.25720(3) 0.44897(17)
Cd1F Cd 0.436834(16) 0.437140(8) 0.38658(5)
Cd1H Cd 0.686834(16) 0.312860(8) 0.13658(5)
Cd1_2 Cd 0.186834(16) 0.312860(8) 1.63658(5)
N2N N 0.19040(19) 0.35910(9) 0.6424(7)
N3H N 0.1056(2) 0.31764(10) 0.6949(6)
O4_2 O 0.17421(16) 0.28351(10) 0.4792(5)
O5 O 0.27576(19) 0.33704(11) 0.9749(6)
H21 H 0.2524 0.3289 0.9425
H22 H 0.2737 0.3536 0.9571
O6 O 0.32428(18) 0.38069(11) 0.8613(6)
H23 H 0.3521 0.3749 0.8639
H24 H 0.3221 0.3948 0.9077
O7 O 0.40692(17) 0.35672(10) 0.8845(6)
H25 H 0.4270 0.3675 0.8529
H26 H 0.4077 0.3422 0.8412
O8 O 0.47642(19) 0.39195(11) 0.9494(6)
H27 H 0.5048 0.3874 0.9393
H28 H 0.4703 0.4058 0.9039
O9 O 0.57507(19) 0.38732(12) 0.9355(6)
H29 H 0.5810 0.3726 0.8973
H30 H 0.5867 0.4002 0.8913
O10 O 0.3431(2) 0.41115(11) 1.0567(6)
H31 H 0.3706 0.4163 1.0742
H32 H 0.3427 0.4037 0.9807
loop_
_geom_bond_atom_site_label_1
_geom_bond_atom_site_label_2
_geom_bond_site_symmetry_1
_geom_bond_site_symmetry_2
C1 C2 1_555 1_555
C2 H1 1_555 1_555
C3 C2 1_555 1_555
H2 C3 1_555 1_555
C4 C3 1_555 1_555
H3 C4 1_555 1_555
C5 C4 1_555 1_555
C6 C1 1_555 1_555
H4 C6 1_555 1_555
C7 C1 1_555 1_555
C8 C5 1_555 1_555
C9 C10 1_555 1_555
C10 C11 1_555 1_555
C11 C12 1_555 1_555
C12 C28 1_555 1_555
C13 C9 1_555 1_555
C14 C13 1_555 1_555
H5 C14 1_555 1_555
C15 C14 1_555 1_555
H6 C15 1_555 1_555
C16 H7 1_555 1_555
C17 C13 1_555 1_555
H8 C17 1_555 1_555
C18 C10 1_555 1_555
C19 C18 1_555 1_555
H9 C19 1_555 1_555
C20 C19 1_555 1_555
H10 C20 1_555 1_555
C21 H11 1_555 1_555
C22 C18 1_555 1_555
H12 C22 1_555 1_555
C23 C11 1_555 1_555
C24 C23 1_555 1_555
H13 C24 1_555 1_555
C25 C24 1_555 1_555
H14 C25 1_555 1_555
C26 H15 1_555 1_555
C27 C23 1_555 1_555
H16 C27 1_555 1_555
C28 C29 1_555 1_555
C29 H17 1_555 1_555
C30 C29 1_555 1_555
H18 C30 1_555 1_555
C31 H19 1_555 1_555
C32 C28 1_555 1_555
H20 C32 1_555 1_555
Cd1 N1 1_555 1_555
N1 C15 1_555 1_555
N2 C20 1_555 1_555
N3 C25 1_555 1_555
N4 C30 1_555 1_555
O1 C7 1_555 1_555
O2 C7 1_555 1_555
O3 C8 1_555 1_555
O4 C8 1_555 1_555
S1 C9 1_555 1_555
O5 H21 1_555 1_555
H22 O5 1_555 1_555
O6 H23 1_555 1_555
H24 O6 1_555 1_555
O7 H25 1_555 1_555
H26 O7 1_555 1_555
O8 H27 1_555 1_555
H28 O8 1_555 1_555
O9 H29 1_555 1_555
H30 O9 1_555 1_555
O10 H31 1_555 1_555
H32 O10 1_555 1_555
Cd1F N2 1_555 1_555
Cd1H N3 1_555 1_555
Cd1_2 O4 1_555 1_555
N2N Cd1 1_555 1_555
N3H Cd1 1_555 1_555
O4_2 Cd1 1_555 1_555
C5 C6 1_555 1_555
C12 S1 1_555 1_555
C16 C17 1_555 1_555
C16 N1 1_555 1_555
C21 C22 1_555 1_555
C21 N2 1_555 1_555
C26 C27 1_555 1_555
C26 N3 1_555 1_555
C31 C32 1_555 1_555
C31 N4 1_555 1_555
Cd1 O1 1_555 1_555
Cd1 O2 1_555 1_555

#END
