
#######################################################################
#
#                 Cambridge Crystallographic Data Centre
#                                CCDC 
#
#######################################################################
#
# If this CIF has been generated from an entry in the Cambridge 
# Structural Database, then it will include bibliographic, chemical, 
# crystal, experimental, refinement or atomic coordinate data resulting 
# from the CCDC's data processing and validation procedures.
#
#######################################################################

data_EFILOU
_symmetry_cell_setting           orthorhombic
_symmetry_space_group_name_H-M   'P b c 21'
_symmetry_Int_Tables_number      29
_space_group_name_Hall           'P 2c -2b'
loop_
_symmetry_equiv_pos_site_id
_symmetry_equiv_pos_as_xyz
1 x,y,z
2 -x,-y,1/2+z
3 -x,1/2+y,z
4 x,1/2-y,1/2+z
_cell_length_a                   7.4364(2)
_cell_length_b                   9.5646(4)
_cell_length_c                   20.4537(7)
_cell_angle_alpha                90
_cell_angle_beta                 90
_cell_angle_gamma                90
_cell_volume                     1454.79
loop_
_atom_site_label
_atom_site_type_symbol
_atom_site_fract_x
_atom_site_fract_y
_atom_site_fract_z
Fe1 Fe 0.6404(4) 0.8818(3) 0.7153(2)
Fe2 Fe 0.8592(4) 1.3828(3) 0.7041(1)
P1 P 0.8795(7) 1.0934(7) 0.6202(3)
P2 P 0.6223(8) 1.1713(8) 0.7992(4)
O1 O 0.870(2) 1.252(1) 0.626(1)
O2 O 0.634(2) 1.011(1) 0.794(1)
O3 O 0.657(2) 0.726(2) 0.645(1)
O4 O 0.884(2) 0.845(2) 0.726(1)
O5 O 0.786(2) 1.239(2) 0.768(1)
O6 O 0.839(2) 1.537(2) 0.777(1)
O7 O 0.720(2) 1.025(2) 0.651(1)
O8 O 0.399(2) 0.921(2) 0.683(1)
O9 O 1.071(3) 1.044(2) 0.645(1)
O10 O 0.442(3) 1.222(2) 0.774(1)
O11 O 1.176(3) 1.140(2) 0.395(1)
O12 O 0.687(3) 1.112(2) 1.026(1)
O13 O 0.949(3) 0.992(3) 0.400(1)
O14 O 0.465(3) 1.251(3) 1.024(1)
C1 C 0.640(3) 1.204(2) 0.885(1)
C2 C 0.516(4) 1.119(3) 0.929(2)
C3 C 0.540(5) 1.168(3) 0.997(2)
C4 C 0.883(3) 1.056(3) 0.532(1)
C5 C 1.015(3) 1.127(3) 0.495(2)
C6 C 1.045(4) 1.085(4) 0.423(2)
H1 H 0.763(3) 1.187(2) 0.898(1)
H2 H 0.616(2) 1.303(2) 0.892(1)
H3 H 0.392(3) 1.130(3) 0.916(2)
H4 H 0.546(4) 1.020(3) 0.927(1)
H5 H 0.766(3) 1.079(3) 0.514(1)
H6 H 0.901(4) 0.956(3) 0.526(1)
H7 H 0.985(3) 1.226(3) 0.496(2)
H8 H 1.129(3) 1.116(3) 0.518(2)
O10B O 0.558(3) 0.722(2) 0.774(1)
O4B O 1.116(2) 1.345(2) 0.726(1)
O8B O 0.601(2) 1.421(2) 0.683(1)
O9B O 0.929(3) 1.544(2) 0.645(1)
Fe2B Fe 1.1408(4) 0.8828(3) 0.7041(1)
Fe2B_2 Fe 0.1408(4) 0.8828(3) 0.7041(1)
Fe1B Fe 0.3596(4) 1.3818(3) 0.7153(2)
loop_
_geom_bond_atom_site_label_1
_geom_bond_atom_site_label_2
_geom_bond_site_symmetry_1
_geom_bond_site_symmetry_2
Fe1 O2 1_555 1_555
Fe2 O1 1_555 1_555
P1 O1 1_555 1_555
P2 O2 1_555 1_555
O3 Fe1 1_555 1_555
O4 Fe1 1_555 1_555
O5 Fe2 1_555 1_555
O6 Fe2 1_555 1_555
O7 Fe1 1_555 1_555
O8 Fe1 1_555 1_555
O9 P1 1_555 1_555
O10 P2 1_555 1_555
O11 C6 1_555 1_555
O12 C3 1_555 1_555
O13 C6 1_555 1_555
O14 C3 1_555 1_555
C1 P2 1_555 1_555
C2 C1 1_555 1_555
C3 C2 1_555 1_555
C4 P1 1_555 1_555
C5 C4 1_555 1_555
C6 C5 1_555 1_555
H1 C1 1_555 1_555
H2 C1 1_555 1_555
H3 C2 1_555 1_555
H4 C2 1_555 1_555
H5 C4 1_555 1_555
H6 C4 1_555 1_555
H7 C5 1_555 1_555
H8 C5 1_555 1_555
O10B Fe1 1_555 1_555
O4B Fe2 1_555 1_555
O8B Fe2 1_555 1_555
O9B Fe2 1_555 1_555
Fe2B O4 1_555 1_555
Fe2B_2 O8 1_555 1_555
Fe1B O10 1_555 1_555
P1 O7 1_555 1_555
P2 O5 1_555 1_555
O9 Fe2B 1_555 1_555
O8B Fe1B 1_555 1_555

#END
