
#######################################################################
#
#                 Cambridge Crystallographic Data Centre
#                                CCDC 
#
#######################################################################
#
# If this CIF has been generated from an entry in the Cambridge 
# Structural Database, then it will include bibliographic, chemical, 
# crystal, experimental, refinement or atomic coordinate data resulting 
# from the CCDC's data processing and validation procedures.
#
#######################################################################

data_EFILIP
_symmetry_cell_setting           orthorhombic
_symmetry_space_group_name_H-M   'P n a 21'
_symmetry_Int_Tables_number      33
_space_group_name_Hall           'P 2c -2n'
loop_
_symmetry_equiv_pos_site_id
_symmetry_equiv_pos_as_xyz
1 x,y,z
2 -x,-y,1/2+z
3 1/2-x,1/2+y,1/2+z
4 1/2+x,1/2-y,z
_cell_length_a                   19.3708(11)
_cell_length_b                   7.6797(4)
_cell_length_c                   16.2156(9)
_cell_angle_alpha                90
_cell_angle_beta                 90
_cell_angle_gamma                90
_cell_volume                     2412.26
loop_
_atom_site_label
_atom_site_type_symbol
_atom_site_fract_x
_atom_site_fract_y
_atom_site_fract_z
K1 K 0.77547(5) 0.44840(12) 0.54225(6)
Zn1 Zn 0.86851(2) 0.17573(6) 0.65894(4)
O1 O 0.70417(14) 0.2866(3) 0.6711(2)
N1 N 0.9115(2) 0.5021(5) 0.4701(3)
N2 N 0.8064(2) 0.2656(5) 0.3883(2)
N3 N 0.6684(2) 0.4343(6) 0.4189(3)
N4 N 0.7241(2) -0.2287(5) 0.5961(3)
C1 C 0.9696(3) 0.5220(9) 0.5278(4)
H1 H 1.0124 0.5402 0.4967
H2 H 0.9739 0.4166 0.5615
H3 H 0.9613 0.6225 0.5637
C2 C 0.9025(3) 0.6610(8) 0.4261(4)
H4 H 0.9428 0.6817 0.3909
H5 H 0.8976 0.7574 0.4653
H6 H 0.8610 0.6533 0.3918
C3 C 0.9288(3) 0.3515(8) 0.4189(4)
H7 H 0.9361 0.2496 0.4552
H8 H 0.9729 0.3752 0.3901
C4 C 0.8750(3) 0.3060(8) 0.3558(3)
H9 H 0.8706 0.4047 0.3169
H10 H 0.8915 0.2042 0.3239
C5 C 0.8036(4) 0.0890(8) 0.4211(4)
H11 H 0.7581 0.0682 0.4457
H12 H 0.8394 0.0747 0.4633
H13 H 0.8114 0.0055 0.3764
C6 C 0.7540(3) 0.2869(7) 0.3246(3)
H14 H 0.7576 0.1882 0.2856
H15 H 0.7641 0.3949 0.2935
C7 C 0.6816(3) 0.2961(8) 0.3557(3)
H16 H 0.6693 0.1818 0.3799
H17 H 0.6504 0.3164 0.3083
C8 C 0.6755(3) 0.6057(8) 0.3822(4)
H18 H 0.6449 0.6150 0.3343
H19 H 0.7234 0.6232 0.3646
H20 H 0.6630 0.6947 0.4229
C9 C 0.5997(3) 0.4134(9) 0.4513(4)
H21 H 0.5904 0.5057 0.4916
H22 H 0.5958 0.2997 0.4783
H23 H 0.5662 0.4207 0.4062
C10 C 0.8727(3) 0.4136(6) 0.7127(3)
H24 H 0.8691 0.5044 0.6695
H25 H 0.8329 0.4271 0.7503
C11 C 0.9391(3) 0.4400(7) 0.7609(3)
H26 H 0.9433 0.3492 0.8030
H27 H 0.9383 0.5546 0.7875
H28 H 0.9786 0.4333 0.7232
C12 C 0.9532(2) 0.0391(7) 0.6252(3)
H29 H 0.9422 -0.0291 0.5751
H30 H 0.9905 0.1218 0.6109
C13 C 0.9796(3) -0.0850(7) 0.6917(3)
H31 H 0.9913 -0.0186 0.7414
H32 H 1.0207 -0.1457 0.6715
H33 H 0.9436 -0.1703 0.7049
C14 C 0.7760(2) 0.0520(6) 0.6362(2)
C15 C 0.7775(2) -0.1216(6) 0.6114(3)
H34 H 0.8221 -0.1709 0.6044
C16 C 0.6617(3) -0.1563(6) 0.6075(3)
H35 H 0.6222 -0.2265 0.5971
C17 C 0.6508(2) 0.0118(6) 0.6333(3)
H36 H 0.6055 0.0561 0.6415
C18 C 0.7089(2) 0.1146(5) 0.6469(3)
C19 C 0.6375(2) 0.3560(6) 0.6891(3)
H37 H 0.6083 0.3484 0.6398
H38 H 0.6420 0.4781 0.7058
H39 H 0.6164 0.2892 0.7339
K1_2 K 0.77547(5) -0.55160(12) 0.54225(6)
N4_2 N 0.7241(2) 0.7713(5) 0.5961(3)
loop_
_geom_bond_atom_site_label_1
_geom_bond_atom_site_label_2
_geom_bond_site_symmetry_1
_geom_bond_site_symmetry_2
K1 O1 1_555 1_555
Zn1 C10 1_555 1_555
O1 C18 1_555 1_555
N1 K1 1_555 1_555
N2 K1 1_555 1_555
N3 K1 1_555 1_555
N4 C15 1_555 1_555
C1 N1 1_555 1_555
H1 C1 1_555 1_555
H2 C1 1_555 1_555
H3 C1 1_555 1_555
C2 N1 1_555 1_555
H4 C2 1_555 1_555
H5 C2 1_555 1_555
H6 C2 1_555 1_555
C3 N1 1_555 1_555
H7 C3 1_555 1_555
H8 C3 1_555 1_555
C4 N2 1_555 1_555
H9 C4 1_555 1_555
H10 C4 1_555 1_555
C5 N2 1_555 1_555
H11 C5 1_555 1_555
H12 C5 1_555 1_555
H13 C5 1_555 1_555
C6 N2 1_555 1_555
H14 C6 1_555 1_555
H15 C6 1_555 1_555
C7 N3 1_555 1_555
H16 C7 1_555 1_555
H17 C7 1_555 1_555
C8 N3 1_555 1_555
H18 C8 1_555 1_555
H19 C8 1_555 1_555
H20 C8 1_555 1_555
C9 N3 1_555 1_555
H21 C9 1_555 1_555
H22 C9 1_555 1_555
H23 C9 1_555 1_555
C10 H24 1_555 1_555
H25 C10 1_555 1_555
C11 C10 1_555 1_555
H26 C11 1_555 1_555
H27 C11 1_555 1_555
H28 C11 1_555 1_555
C12 Zn1 1_555 1_555
H29 C12 1_555 1_555
H30 C12 1_555 1_555
C13 C12 1_555 1_555
H31 C13 1_555 1_555
H32 C13 1_555 1_555
H33 C13 1_555 1_555
C14 Zn1 1_555 1_555
C15 C14 1_555 1_555
H34 C15 1_555 1_555
C16 N4 1_555 1_555
H35 C16 1_555 1_555
C17 C16 1_555 1_555
H36 C17 1_555 1_555
C18 C14 1_555 1_555
C19 O1 1_555 1_555
H37 C19 1_555 1_555
H38 C19 1_555 1_555
H39 C19 1_555 1_555
K1_2 N4 1_555 1_555
N4_2 K1 1_555 1_555
C3 C4 1_555 1_555
C6 C7 1_555 1_555
C17 C18 1_555 1_555

#END
