
#######################################################################
#
#                 Cambridge Crystallographic Data Centre
#                                CCDC 
#
#######################################################################
#
# If this CIF has been generated from an entry in the Cambridge 
# Structural Database, then it will include bibliographic, chemical, 
# crystal, experimental, refinement or atomic coordinate data resulting 
# from the CCDC's data processing and validation procedures.
#
#######################################################################

data_EFIMAJ
_symmetry_cell_setting           monoclinic
_symmetry_space_group_name_H-M   'P 21/n'
_symmetry_Int_Tables_number      14
_space_group_name_Hall           '-P 2yn'
loop_
_symmetry_equiv_pos_site_id
_symmetry_equiv_pos_as_xyz
1 x,y,z
2 1/2-x,1/2+y,1/2-z
3 -x,-y,-z
4 1/2+x,1/2-y,1/2+z
_cell_length_a                   12.090(2)
_cell_length_b                   17.439(3)
_cell_length_c                   12.629(2)
_cell_angle_alpha                90
_cell_angle_beta                 108.314(3)
_cell_angle_gamma                90
_cell_volume                     2527.8
loop_
_atom_site_label
_atom_site_type_symbol
_atom_site_fract_x
_atom_site_fract_y
_atom_site_fract_z
Zn1 Zn 0.76376(3) 0.154525(19) 0.19357(3)
N1 N 1.2990(2) -0.06630(13) -0.0885(2)
O1 O 0.6313(2) 0.22258(13) 0.1554(2)
N2 N 0.8864(2) 0.20360(14) 0.1308(2)
N3 N 1.3295(2) 0.04860(13) -0.0084(2)
N4 N 1.0515(2) 0.21910(14) 0.0899(2)
C1 C 1.4748(3) 0.00864(19) 0.1765(3)
H1 H 1.4885 0.0570 0.2091
C2 C 0.8753(3) 0.26821(16) 0.0625(3)
C3 C 0.4904(2) 0.30667(16) 0.1833(3)
C4 C 1.3989(2) -0.00232(17) 0.0701(3)
C5 C 0.4360(3) 0.33613(17) 0.2557(3)
H2 H 0.4644 0.3231 0.3308
C6 C 0.5978(3) 0.25822(17) 0.2280(3)
O2 O 0.6487(2) 0.25632(15) 0.3290(2)
C7 C 1.2724(2) 0.00816(17) -0.1009(3)
C8 C 0.3409(3) 0.38430(18) 0.2203(3)
C9 C 1.4358(3) -0.13842(17) 0.0744(3)
H3 H 1.4242 -0.1867 0.0415
C10 C 0.9777(3) 0.27850(17) 0.0359(3)
C11 C 0.4467(2) 0.32499(16) 0.0714(3)
H4 H 0.4823 0.3052 0.0219
C12 C 1.3784(2) -0.07419(17) 0.0182(3)
C13 C 0.7846(3) 0.32062(19) 0.0271(3)
H5 H 0.7154 0.3141 0.0435
C14 C 0.9935(3) 0.17738(18) 0.1468(3)
C15 C 0.9936(3) 0.33909(18) -0.0281(3)
H6 H 1.0611 0.3444 -0.0478
C16 C 0.8021(3) 0.3828(2) -0.0334(3)
H7 H 0.7444 0.4200 -0.0562
C17 C 1.1924(3) 0.04297(19) -0.2041(3)
H8 H 1.1155 0.0467 -0.1976
H9 H 1.2198 0.0932 -0.2142
H10 H 1.1901 0.0114 -0.2670
C18 C 1.5105(3) -0.1277(2) 0.1807(3)
H11 H 1.5499 -0.1698 0.2201
C19 C 1.5290(3) -0.0556(2) 0.2311(3)
H12 H 1.5793 -0.0511 0.3036
C20 C 0.2840(4) 0.4148(2) 0.3019(3)
H13 H 0.2309 0.3772 0.3134
H14 H 0.2421 0.4610 0.2727
H15 H 0.3426 0.4258 0.3716
C21 C 0.9037(4) 0.3911(2) -0.0611(3)
H16 H 0.9114 0.4332 -0.1034
C22 C 1.3055(3) 0.12787(17) 0.0153(3)
H17 H 1.3699 0.1477 0.0762
H18 H 1.2975 0.1595 -0.0499
C23 C 1.1724(3) 0.20868(18) 0.0906(3)
H19 H 1.2241 0.2145 0.1663
H20 H 1.1913 0.2486 0.0456
C24 C 1.1941(3) 0.13113(18) 0.0463(3)
H21 H 1.1977 0.0925 0.1025
H22 H 1.1288 0.1187 -0.0190
C25 C 1.0435(3) 0.1108(2) 0.2174(3)
H23 H 1.0083 0.1061 0.2754
H24 H 1.1260 0.1178 0.2500
H25 H 1.0288 0.0651 0.1727
C26 C 0.2994(3) 0.40245(17) 0.1081(3)
H26 H 0.2360 0.4354 0.0829
C27 C 0.3502(2) 0.37263(16) 0.0316(3)
C28 C 0.2979(3) 0.38896(17) -0.0902(3)
O3 O 0.2055(2) 0.42434(15) -0.1252(2)
O4 O 0.35503(18) 0.36280(12) -0.15336(18)
Zn1B Zn 1.23624(3) -0.154525(19) -0.19357(3)
Zn1C Zn 0.26376(3) 0.345475(19) -0.30643(3)
N1B N 0.7010(2) 0.06630(13) 0.0885(2)
O4C O 0.85503(18) 0.13720(12) 0.34664(18)
loop_
_geom_bond_atom_site_label_1
_geom_bond_atom_site_label_2
_geom_bond_site_symmetry_1
_geom_bond_site_symmetry_2
Zn1 O1 1_555 1_555
N1 C7 1_555 1_555
O1 C6 1_555 1_555
N2 Zn1 1_555 1_555
N3 C4 1_555 1_555
N4 C10 1_555 1_555
C1 H1 1_555 1_555
C2 N2 1_555 1_555
C3 C5 1_555 1_555
C4 C1 1_555 1_555
C5 H2 1_555 1_555
C6 C3 1_555 1_555
O2 C6 1_555 1_555
C7 N3 1_555 1_555
C8 C5 1_555 1_555
C9 H3 1_555 1_555
C10 C2 1_555 1_555
C11 C3 1_555 1_555
H4 C11 1_555 1_555
C12 N1 1_555 1_555
C13 C2 1_555 1_555
H5 C13 1_555 1_555
C14 N2 1_555 1_555
C15 C10 1_555 1_555
H6 C15 1_555 1_555
C16 C13 1_555 1_555
H7 C16 1_555 1_555
C17 C7 1_555 1_555
H8 C17 1_555 1_555
H9 C17 1_555 1_555
H10 C17 1_555 1_555
C18 C9 1_555 1_555
H11 C18 1_555 1_555
C19 C1 1_555 1_555
H12 C19 1_555 1_555
C20 C8 1_555 1_555
H13 C20 1_555 1_555
H14 C20 1_555 1_555
H15 C20 1_555 1_555
C21 C15 1_555 1_555
H16 C21 1_555 1_555
C22 N3 1_555 1_555
H17 C22 1_555 1_555
H18 C22 1_555 1_555
C23 N4 1_555 1_555
H19 C23 1_555 1_555
H20 C23 1_555 1_555
C24 C22 1_555 1_555
H21 C24 1_555 1_555
H22 C24 1_555 1_555
C25 C14 1_555 1_555
H23 C25 1_555 1_555
H24 C25 1_555 1_555
H25 C25 1_555 1_555
C26 C8 1_555 1_555
H26 C26 1_555 1_555
C27 C11 1_555 1_555
C28 C27 1_555 1_555
O3 C28 1_555 1_555
O4 C28 1_555 1_555
Zn1B N1 1_555 1_555
Zn1C O4 1_555 1_555
N1B Zn1 1_555 1_555
O4C Zn1 1_555 1_555
N4 C14 1_555 1_555
C4 C12 1_555 1_555
C9 C12 1_555 1_555
C16 C21 1_555 1_555
C18 C19 1_555 1_555
C23 C24 1_555 1_555
C26 C27 1_555 1_555

#END
