
#######################################################################
#
#                 Cambridge Crystallographic Data Centre
#                                CCDC 
#
#######################################################################
#
# If this CIF has been generated from an entry in the Cambridge 
# Structural Database, then it will include bibliographic, chemical, 
# crystal, experimental, refinement or atomic coordinate data resulting 
# from the CCDC's data processing and validation procedures.
#
#######################################################################

data_EFINAK
_symmetry_cell_setting           triclinic
_symmetry_space_group_name_H-M   'P -1'
_symmetry_Int_Tables_number      2
_space_group_name_Hall           '-P 1'
loop_
_symmetry_equiv_pos_site_id
_symmetry_equiv_pos_as_xyz
1 x,y,z
2 -x,-y,-z
_cell_length_a                   7.2702(12)
_cell_length_b                   7.5805(12)
_cell_length_c                   9.8177(16)
_cell_angle_alpha                73.653(2)
_cell_angle_beta                 71.867(2)
_cell_angle_gamma                86.428(2)
_cell_volume                     493.223
loop_
_atom_site_label
_atom_site_type_symbol
_atom_site_fract_x
_atom_site_fract_y
_atom_site_fract_z
Pb1 Pb 0.71581(4) 0.43054(4) -0.38031(3)
Ag1 Ag 0.21718(10) 0.40806(9) 0.05656(7)
O1 O 0.8118(8) 0.1800(8) 0.4991(6)
O2 O 0.5729(8) 0.3370(8) 0.4385(6)
O3 O 0.5583(8) 0.3555(8) -0.0765(6)
O4 O 0.7010(8) 0.1353(7) -0.1760(6)
O5 O 0.9413(9) -0.4098(8) 0.1325(6)
O6 O 0.9504(8) -0.4078(7) 0.3565(6)
C1 C 0.7076(10) 0.1126(10) 0.3132(8)
C2 C 0.6503(11) 0.1932(10) 0.1877(8)
H1 H 0.5880 0.3050 0.1795
C3 C 0.6855(10) 0.1076(11) 0.0743(8)
C4 C 0.7710(11) -0.0632(10) 0.0906(8)
H2 H 0.7965 -0.1194 0.0141
C5 C 0.8190(10) -0.1513(10) 0.2187(7)
C6 C 0.7923(11) -0.0599(11) 0.3282(8)
H3 H 0.8311 -0.1142 0.4120
C7 C 0.6915(11) 0.2163(11) 0.4238(8)
C8 C 0.6423(10) 0.2036(10) -0.0685(8)
C9 C 0.9083(10) -0.3363(10) 0.2360(8)
O7 O 0.1891(9) 0.2029(9) 0.2927(7)
H4 H 0.2401 0.0987 0.2941
H5 H 0.0869 0.1807 0.3671
Pb1_2 Pb 0.71581(4) -0.56946(4) 0.61969(3)
Pb1_3 Pb 0.71581(4) 0.43054(4) 0.61969(3)
Pb1A Pb 0.28419(4) 0.56946(4) 0.38031(3)
Pb1A_2 Pb 1.28419(4) -0.43054(4) 0.38031(3)
Ag1_2 Ag 1.21718(10) -0.59194(9) 0.05656(7)
Ag1A Ag 0.78282(10) -0.40806(9) -0.05656(7)
Ag1A_2 Ag 0.78282(10) 0.59194(9) -0.05656(7)
O1_2 O 0.8118(8) 0.1800(8) -0.5009(6)
O2_2 O 0.5729(8) 0.3370(8) -0.5615(6)
O2A O 0.4271(8) 0.6630(8) -0.4385(6)
O3A O 0.4417(8) 0.6445(8) 0.0765(6)
O5_2 O -0.0587(9) 0.5902(8) 0.1325(6)
O5A O 0.0587(9) 0.4098(8) -0.1325(6)
O6_2 O 0.9504(8) 0.5922(7) -0.6435(6)
O6A O 1.0496(8) 0.4078(7) -0.3565(6)
loop_
_geom_bond_atom_site_label_1
_geom_bond_atom_site_label_2
_geom_bond_site_symmetry_1
_geom_bond_site_symmetry_2
Pb1 O3 1_555 1_555
Ag1 O3 1_555 1_555
O1 C7 1_555 1_555
O2 C7 1_555 1_555
O3 C8 1_555 1_555
O4 Pb1 1_555 1_555
O5 C9 1_555 1_555
O6 C9 1_555 1_555
C1 C2 1_555 1_555
C2 H1 1_555 1_555
C3 C2 1_555 1_555
C4 C3 1_555 1_555
H2 C4 1_555 1_555
C5 C4 1_555 1_555
C6 C1 1_555 1_555
H3 C6 1_555 1_555
C7 C1 1_555 1_555
C8 O4 1_555 1_555
C9 C5 1_555 1_555
O7 Ag1 1_555 1_555
H4 O7 1_555 1_555
H5 O7 1_555 1_555
Pb1_2 O6 1_555 1_555
Pb1_3 O1 1_555 1_555
Pb1A O2 1_555 1_555
Pb1A_2 O6 1_555 1_555
Ag1_2 O5 1_555 1_555
Ag1A O5 1_555 1_555
Ag1A_2 O3 1_555 1_555
O1_2 Pb1 1_555 1_555
O2_2 Pb1 1_555 1_555
O2A Pb1 1_555 1_555
O3A Ag1 1_555 1_555
O5_2 Ag1 1_555 1_555
O5A Ag1 1_555 1_555
O6_2 Pb1 1_555 1_555
O6A Pb1 1_555 1_555
O2 Pb1_3 1_555 1_555
C3 C8 1_555 1_555
C5 C6 1_555 1_555
Pb1A O3A 1_555 1_555
Ag1A_2 O3A 1_555 1_555

#END
