
#######################################################################
#
#                 Cambridge Crystallographic Data Centre
#                                CCDC 
#
#######################################################################
#
# If this CIF has been generated from an entry in the Cambridge 
# Structural Database, then it will include bibliographic, chemical, 
# crystal, experimental, refinement or atomic coordinate data resulting 
# from the CCDC's data processing and validation procedures.
#
#######################################################################

data_EFIPOY
_symmetry_cell_setting           triclinic
_symmetry_space_group_name_H-M   'P -1'
_symmetry_Int_Tables_number      2
_space_group_name_Hall           '-P 1'
loop_
_symmetry_equiv_pos_site_id
_symmetry_equiv_pos_as_xyz
1 x,y,z
2 -x,-y,-z
_cell_length_a                   15.7848(6)
_cell_length_b                   15.8557(6)
_cell_length_c                   19.2559(7)
_cell_angle_alpha                96.0790(10)
_cell_angle_beta                 105.8080(10)
_cell_angle_gamma                118.4200(10)
_cell_volume                     3917.05
loop_
_atom_site_label
_atom_site_type_symbol
_atom_site_fract_x
_atom_site_fract_y
_atom_site_fract_z
Ag1 Ag 0.81536(8) 0.57262(7) 0.01119(5)
Ag2 Ag 1.41473(7) 0.71584(7) 0.48665(5)
S1 S 0.6611(3) 0.4078(2) 0.00704(19)
S2 S 1.3392(2) 0.5786(2) 0.35823(17)
S3 S 0.7063(2) 0.2210(2) 0.52321(16)
S4 S 0.9923(3) 0.6473(3) 0.1255(2)
S5 S 1.1835(3) 1.1174(2) 0.65525(19)
S6 S 0.5546(2) 0.3848(2) 0.42496(17)
S7 S 0.9119(3) 0.5845(2) -0.07964(18)
S8 S 1.2570(2) 1.3117(2) -0.00414(18)
S9 S 0.5985(2) 0.8531(2) -0.49933(17)
N1 N 0.8834(7) 0.3623(7) 0.2923(5)
N2 N 0.9437(7) 0.7244(6) 0.4189(5)
N3 N 0.9108(8) 0.9113(7) -0.2104(6)
C1 C 0.8251(9) 0.3661(8) 0.2233(6)
C2 C 0.8561(10) 0.3631(9) 0.1622(7)
H1 H 0.9125 0.3540 0.1664
C3 C 0.8060(10) 0.3732(9) 0.0961(7)
H2 H 0.8291 0.3731 0.0554
C4 C 0.7212(9) 0.3835(9) 0.0886(7)
C5 C 0.6874(9) 0.3830(8) 0.1471(6)
H3 H 0.6285 0.3881 0.1417
C6 C 0.7398(9) 0.3749(9) 0.2147(7)
H4 H 0.7167 0.3754 0.2554
C7 C 0.6301(15) 0.3063(11) -0.0689(8)
H5 H 0.5710 0.2439 -0.0696
H6 H 0.6902 0.2993 -0.0607
H7 H 0.6125 0.3212 -0.1170
C8 C 0.9940(8) 0.4143(8) 0.3114(6)
C9 C 1.0453(9) 0.3636(8) 0.3280(7)
H8 H 1.0078 0.2954 0.3272
C10 C 1.1512(9) 0.4132(9) 0.3458(7)
H9 H 1.1868 0.3795 0.3591
C11 C 1.2061(9) 0.5119(9) 0.3445(6)
C12 C 1.1535(9) 0.5620(8) 0.3286(6)
H10 H 1.1903 0.6300 0.3287
C13 C 1.0479(8) 0.5127(8) 0.3126(6)
H11 H 1.0126 0.5472 0.3024
C14 C 1.3779(10) 0.4920(10) 0.3802(7)
H12 H 1.3516 0.4397 0.3343
H13 H 1.3494 0.4618 0.4166
H14 H 1.4537 0.5273 0.4017
C15 C 0.8422(9) 0.3244(8) 0.3462(6)
C16 C 0.9025(8) 0.3649(8) 0.4221(6)
H15 H 0.9728 0.4178 0.4383
C17 C 0.8606(9) 0.3284(8) 0.4745(6)
H16 H 0.9031 0.3555 0.5264
C18 C 0.7582(8) 0.2534(8) 0.4525(6)
C19 C 0.6988(9) 0.2080(8) 0.3762(6)
H17 H 0.6297 0.1527 0.3605
C20 C 0.7402(9) 0.2435(9) 0.3229(7)
H18 H 0.6993 0.2130 0.2709
C21 C 0.6294(15) 0.0882(10) 0.4928(10)
H19 H 0.6746 0.0615 0.4959
H20 H 0.5817 0.0663 0.4406
H21 H 0.5896 0.0637 0.5249
C22 C 0.9569(8) 0.7123(8) 0.3497(6)
C23 C 0.8703(9) 0.6528(9) 0.2828(7)
H22 H 0.8027 0.6227 0.2842
C24 C 0.8819(9) 0.6376(9) 0.2156(7)
H23 H 0.8223 0.5976 0.1710
C25 C 0.9797(9) 0.6802(9) 0.2120(7)
C26 C 1.0668(9) 0.7401(9) 0.2779(7)
H24 H 1.1342 0.7696 0.2760
C27 C 1.0552(9) 0.7565(8) 0.3449(6)
H25 H 1.1150 0.7985 0.3891
C28 C 1.0746(12) 0.7676(12) 0.1146(9)
H26 H 1.1430 0.8013 0.1551
H27 H 1.0436 0.8081 0.1170
H28 H 1.0821 0.7589 0.0660
C29 C 1.0039(8) 0.8172(8) 0.4744(7)
C30 C 1.0484(9) 0.9077(9) 0.4563(7)
H29 H 1.0394 0.9075 0.4054
C31 C 1.1056(9) 0.9979(9) 0.5119(7)
H30 H 1.1366 1.0588 0.4989
C32 C 1.1181(9) 1.0000(9) 0.5869(7)
C33 C 1.0741(10) 0.9107(9) 0.6039(7)
H31 H 1.0821 0.9108 0.6546
C34 C 1.0181(11) 0.8201(9) 0.5487(7)
H32 H 0.9893 0.7595 0.5623
C35 C 1.2769(13) 1.1071(12) 0.7261(9)
H33 H 1.3192 1.1685 0.7677
H34 H 1.3217 1.0967 0.7043
H35 H 1.2406 1.0503 0.7449
C36 C 0.8540(9) 0.6455(8) 0.4256(6)
C37 C 0.7806(9) 0.6611(9) 0.4423(7)
H36 H 0.7921 0.7264 0.4530
C38 C 0.6922(9) 0.5818(8) 0.4430(6)
H37 H 0.6419 0.5924 0.4531
C39 C 0.6747(8) 0.4862(8) 0.4292(6)
C40 C 0.7490(9) 0.4715(8) 0.4164(7)
H38 H 0.7389 0.4067 0.4089
C41 C 0.8382(8) 0.5503(8) 0.4142(7)
H39 H 0.8887 0.5392 0.4049
C42 C 0.5048(11) 0.3009(10) 0.3337(7)
H40 H 0.4902 0.3325 0.2949
H41 H 0.4409 0.2392 0.3277
H42 H 0.5563 0.2851 0.3290
C43 C 0.8166(9) 0.7457(9) -0.1928(6)
H43 H 0.7531 0.7398 -0.2200
C44 C 0.9080(9) 0.6758(9) -0.1236(6)
C45 C 1.0024(10) 0.7617(10) -0.1128(7)
H44 H 1.0659 0.7676 -0.0854
C46 C 1.0030(10) 0.8386(9) -0.1422(7)
H45 H 1.0671 0.8970 -0.1349
C47 C 0.9094(9) 0.8301(9) -0.1827(7)
C48 C 0.8158(9) 0.6682(9) -0.1630(7)
H46 H 0.7516 0.6103 -0.1699
C49 C 0.8248(15) 0.4685(10) -0.1526(8)
H47 H 0.8553 0.4662 -0.1902
H48 H 0.7587 0.4635 -0.1765
H49 H 0.8131 0.4127 -0.1307
C50 C 1.1548(9) 1.1967(8) -0.0703(6)
C51 C 1.0857(10) 1.1306(9) -0.0423(7)
H50 H 1.0949 1.1490 0.0090
C52 C 1.0031(10) 1.0377(9) -0.0890(7)
H51 H 0.9550 0.9929 -0.0703
C53 C 0.9920(9) 1.0113(8) -0.1634(7)
C54 C 1.0588(10) 1.0766(9) -0.1922(7)
H52 H 1.0499 1.0579 -0.2434
C55 C 1.1395(10) 1.1706(9) -0.1451(7)
H53 H 1.1845 1.2171 -0.1649
C56 C 1.3517(11) 1.3593(12) -0.0469(9)
H54 H 1.3833 1.3190 -0.0466
H55 H 1.3181 1.3562 -0.0989
H56 H 1.4054 1.4288 -0.0187
C57 C 0.6936(8) 0.8662(8) -0.4148(6)
C58 C 0.7327(10) 0.9473(9) -0.3558(7)
H57 H 0.7121 0.9943 -0.3618
C59 C 0.8030(11) 0.9608(9) -0.2869(7)
H58 H 0.8266 1.0147 -0.2452
C60 C 0.8386(9) 0.8966(8) -0.2787(6)
C61 C 0.8005(10) 0.8167(9) -0.3404(7)
H59 H 0.8255 0.7728 -0.3367
C62 C 0.7266(10) 0.8012(9) -0.4070(7)
H60 H 0.6984 0.7446 -0.4478
C63 C 0.6120(11) 0.7872(11) -0.5740(8)
H61 H 0.6799 0.8298 -0.5769
H62 H 0.6061 0.7258 -0.5637
H63 H 0.5573 0.7704 -0.6218
S8A S 0.7430(2) 0.6883(2) 0.00414(18)
S3A S 1.2937(2) 0.7790(2) 0.47679(16)
S6A S 1.4454(2) 0.6152(2) 0.57504(17)
S9_2 S 1.5985(2) 0.8531(2) 0.50067(17)
Ag2A Ag 0.58527(7) 0.28416(7) 0.51335(5)
Ag1A Ag 1.18464(8) 1.42738(7) -0.01119(5)
Ag2_2 Ag 0.41473(7) 0.71584(7) -0.51335(5)
Sb1 Sb 0.52188(7) 0.53067(7) 0.21025(5)
F1 F 0.4159(8) 0.5476(8) 0.1581(6)
F2 F 0.4232(6) 0.4138(6) 0.2221(5)
F3 F 0.5359(8) 0.5985(7) 0.3008(5)
F4 F 0.5097(7) 0.4627(7) 0.1203(4)
F5 F 0.6235(6) 0.5046(6) 0.2602(5)
F6 F 0.6219(9) 0.6487(7) 0.2021(6)
Sb2 Sb 0.59426(9) 0.12900(9) 0.73134(6)
F7 F 0.5654(13) 0.1414(13) 0.6341(8)
F8 F 0.5528(13) 0.2222(11) 0.7519(9)
F9 F 0.7226(14) 0.2489(14) 0.7573(14)
F10 F 0.4632(15) 0.0281(18) 0.7082(17)
F11 F 0.6294(17) 0.1351(16) 0.8330(9)
F12 F 0.649(2) 0.0567(18) 0.7173(15)
Cl1 Cl 0.7531(5) 1.0953(5) 0.1669(4)
Cl2 Cl 0.5791(7) 1.1091(6) 0.0978(5)
C68 C 0.667(3) 1.080(3) 0.097(2)
Cl3? Cl 0.7010(11) 0.8838(10) -0.1341(8)
C64? C 1.2153(18) 0.9813(17) 0.0498(13)
C65? C 0.644(2) 0.855(2) -0.0041(17)
C66? C 0.617(2) 0.811(2) -0.1230(18)
C67? C 0.650(2) 0.912(2) 0.0782(18)
Cl4? Cl 0.5307(11) 0.8413(11) -0.1491(8)
loop_
_geom_bond_atom_site_label_1
_geom_bond_atom_site_label_2
_geom_bond_site_symmetry_1
_geom_bond_site_symmetry_2
Ag1 S1 1_555 1_555
Ag2 S2 1_555 1_555
S1 C4 1_555 1_555
S2 C11 1_555 1_555
S3 C18 1_555 1_555
S4 Ag1 1_555 1_555
S5 C32 1_555 1_555
S6 C39 1_555 1_555
S7 Ag1 1_555 1_555
S8 C50 1_555 1_555
S9 C57 1_555 1_555
N1 C1 1_555 1_555
N2 C22 1_555 1_555
N3 C47 1_555 1_555
C1 C2 1_555 1_555
C2 H1 1_555 1_555
C3 C2 1_555 1_555
H2 C3 1_555 1_555
C4 C3 1_555 1_555
C5 C4 1_555 1_555
H3 C5 1_555 1_555
C6 C1 1_555 1_555
H4 C6 1_555 1_555
C7 S1 1_555 1_555
H5 C7 1_555 1_555
H6 C7 1_555 1_555
H7 C7 1_555 1_555
C8 N1 1_555 1_555
C9 C8 1_555 1_555
H8 C9 1_555 1_555
C10 C9 1_555 1_555
H9 C10 1_555 1_555
C11 C10 1_555 1_555
C12 C11 1_555 1_555
H10 C12 1_555 1_555
C13 C8 1_555 1_555
H11 C13 1_555 1_555
C14 S2 1_555 1_555
H12 C14 1_555 1_555
H13 C14 1_555 1_555
H14 C14 1_555 1_555
C15 N1 1_555 1_555
C16 C15 1_555 1_555
H15 C16 1_555 1_555
C17 C16 1_555 1_555
H16 C17 1_555 1_555
C18 C17 1_555 1_555
C19 C18 1_555 1_555
H17 C19 1_555 1_555
C20 C15 1_555 1_555
H18 C20 1_555 1_555
C21 S3 1_555 1_555
H19 C21 1_555 1_555
H20 C21 1_555 1_555
H21 C21 1_555 1_555
C22 C23 1_555 1_555
C23 H22 1_555 1_555
C24 C23 1_555 1_555
H23 C24 1_555 1_555
C25 S4 1_555 1_555
C26 C25 1_555 1_555
H24 C26 1_555 1_555
C27 C22 1_555 1_555
H25 C27 1_555 1_555
C28 S4 1_555 1_555
H26 C28 1_555 1_555
H27 C28 1_555 1_555
H28 C28 1_555 1_555
C29 N2 1_555 1_555
C30 C29 1_555 1_555
H29 C30 1_555 1_555
C31 C30 1_555 1_555
H30 C31 1_555 1_555
C32 C31 1_555 1_555
C33 C32 1_555 1_555
H31 C33 1_555 1_555
C34 C29 1_555 1_555
H32 C34 1_555 1_555
C35 S5 1_555 1_555
H33 C35 1_555 1_555
H34 C35 1_555 1_555
H35 C35 1_555 1_555
C36 N2 1_555 1_555
C37 C36 1_555 1_555
H36 C37 1_555 1_555
C38 C37 1_555 1_555
H37 C38 1_555 1_555
C39 C38 1_555 1_555
C40 C39 1_555 1_555
H38 C40 1_555 1_555
C41 C36 1_555 1_555
H39 C41 1_555 1_555
C42 S6 1_555 1_555
H40 C42 1_555 1_555
H41 C42 1_555 1_555
H42 C42 1_555 1_555
C43 H43 1_555 1_555
C44 S7 1_555 1_555
C45 C44 1_555 1_555
H44 C45 1_555 1_555
C46 C45 1_555 1_555
H45 C46 1_555 1_555
C47 C43 1_555 1_555
C48 C43 1_555 1_555
H46 C48 1_555 1_555
C49 S7 1_555 1_555
H47 C49 1_555 1_555
H48 C49 1_555 1_555
H49 C49 1_555 1_555
C50 C51 1_555 1_555
C51 H50 1_555 1_555
C52 C51 1_555 1_555
H51 C52 1_555 1_555
C53 N3 1_555 1_555
C54 C53 1_555 1_555
H52 C54 1_555 1_555
C55 C50 1_555 1_555
H53 C55 1_555 1_555
C56 S8 1_555 1_555
H54 C56 1_555 1_555
H55 C56 1_555 1_555
H56 C56 1_555 1_555
C57 C58 1_555 1_555
C58 H57 1_555 1_555
C59 C58 1_555 1_555
H58 C59 1_555 1_555
C60 N3 1_555 1_555
C61 C60 1_555 1_555
H59 C61 1_555 1_555
C62 C57 1_555 1_555
H60 C62 1_555 1_555
C63 S9 1_555 1_555
H61 C63 1_555 1_555
H62 C63 1_555 1_555
H63 C63 1_555 1_555
Sb1 F1 1_555 1_555
F2 Sb1 1_555 1_555
F3 Sb1 1_555 1_555
F4 Sb1 1_555 1_555
F5 Sb1 1_555 1_555
F6 Sb1 1_555 1_555
Sb2 F7 1_555 1_555
F8 Sb2 1_555 1_555
F9 Sb2 1_555 1_555
F10 Sb2 1_555 1_555
F11 Sb2 1_555 1_555
F12 Sb2 1_555 1_555
Cl1 C68 1_555 1_555
Cl2 C68 1_555 1_555
S8A Ag1 1_555 1_555
S3A Ag2 1_555 1_555
S6A Ag2 1_555 1_555
S9_2 Ag2 1_555 1_555
Ag2A S3 1_555 1_555
Ag1A S8 1_555 1_555
Ag2_2 S9 1_555 1_555
S6 Ag2A 1_555 1_555
C5 C6 1_555 1_555
C12 C13 1_555 1_555
C19 C20 1_555 1_555
C24 C25 1_555 1_555
C26 C27 1_555 1_555
C33 C34 1_555 1_555
C40 C41 1_555 1_555
C44 C48 1_555 1_555
C46 C47 1_555 1_555
C52 C53 1_555 1_555
C54 C55 1_555 1_555
C59 C60 1_555 1_555
C61 C62 1_555 1_555

#END
