
#######################################################################
#
#                 Cambridge Crystallographic Data Centre
#                                CCDC 
#
#######################################################################
#
# If this CIF has been generated from an entry in the Cambridge 
# Structural Database, then it will include bibliographic, chemical, 
# crystal, experimental, refinement or atomic coordinate data resulting 
# from the CCDC's data processing and validation procedures.
#
#######################################################################

data_EFIPAK
_symmetry_cell_setting           triclinic
_symmetry_space_group_name_H-M   'P -1'
_symmetry_Int_Tables_number      2
_space_group_name_Hall           '-P 1'
loop_
_symmetry_equiv_pos_site_id
_symmetry_equiv_pos_as_xyz
1 x,y,z
2 -x,-y,-z
_cell_length_a                   10.1922(11)
_cell_length_b                   14.2843(15)
_cell_length_c                   23.164(2)
_cell_angle_alpha                99.197(3)
_cell_angle_beta                 93.272(3)
_cell_angle_gamma                102.595(3)
_cell_volume                     3234.12
loop_
_atom_site_label
_atom_site_type_symbol
_atom_site_fract_x
_atom_site_fract_y
_atom_site_fract_z
C7 C 0.1834(5) -0.2259(3) 0.34158(19)
H5 H 0.1575 -0.2970 0.3375
H6 H 0.1050 -0.1987 0.3504
H7 H 0.2555 -0.1996 0.3736
C45 C 0.6915(7) 0.2070(5) -0.0244(3)
H43 H 0.6741 0.1511 -0.0546
C46 C 0.6799(7) 0.1984(6) 0.0323(4)
H44 H 0.6510 0.1350 0.0413
C47 C 0.7074(6) 0.2752(6) 0.0767(3)
H45 H 0.6983 0.2660 0.1161
C48 C 0.7499(6) 0.3696(6) 0.0635(3)
H46 H 0.7728 0.4252 0.0939
C49 C 0.7577(6) 0.3794(5) 0.0046(3)
H47 H 0.7826 0.4422 -0.0058
C50 C 0.7294(6) 0.2991(5) -0.0372(3)
H48 H 0.7358 0.3064 -0.0770
C51 C 1.5426(17) 0.4679(6) 0.4482(5)
H49 H 1.5723 0.4456 0.4115
C52 C 1.4103(16) 0.4682(6) 0.4513(5)
H50 H 1.3477 0.4454 0.4173
C53 C 1.6321(11) 0.4980(7) 0.4955(7)
H51 H 1.7241 0.4961 0.4925
C53A C 1.3679(11) 0.5020(7) 0.5045(7)
C52A C 1.5897(16) 0.5318(6) 0.5487(5)
C54 C 0.0800(7) 0.0235(4) -0.0429(3)
H52 H 0.1358 0.0402 -0.0729
C55 C -0.0569(7) 0.0094(4) -0.0532(3)
H53 H -0.0961 0.0157 -0.0902
C56 C 0.1374(6) 0.0138(4) 0.0095(3)
H54 H 0.2326 0.0230 0.0160
C56A C -0.1374(6) -0.0138(4) -0.0095(3)
C55A C 0.0569(7) -0.0094(4) 0.0532(3)
C57 C -0.2048(6) -0.7878(4) -0.5124(3)
C58 C -0.0941(8) -0.8175(5) -0.5289(4)
C59 C -0.0063(11) -0.6502(6) -0.4569(3)
C60 C -0.2042(10) -0.7042(5) -0.4801(3)
C61 C 0.0539(8) -0.7048(9) -0.4816(4)
C62 C 0.0284(10) -0.7753(8) -0.5181(5)
C63 C -0.1113(13) -0.6435(10) -0.4594(4)
S2 S -0.76797(11) -0.45612(7) 0.18990(5)
S3 S -0.16952(11) -0.22345(7) -0.14410(4)
S4 S -0.51527(11) -0.60105(8) 0.26950(5)
S5 S 0.10775(13) 0.06863(11) 0.27928(7)
S6 S -0.49130(12) -0.07080(9) 0.62840(5)
S7 S 0.44549(14) 0.06131(10) 0.16926(6)
S8 S -0.98416(11) -0.56512(7) 0.29667(5)
F2 F 0.6970(7) 0.0949(8) 0.1927(6)
F3 F 0.5981(17) -0.0219(9) 0.1170(12)
F4 F 0.621(2) 0.007(2) 0.2324(7)
F7 F -1.1243(4) -0.7262(3) 0.3213(2)
F8 F -1.0313(4) -0.6244(3) 0.39549(16)
F9 F -1.2052(4) -0.6043(4) 0.3486(2)
O1 O 0.4284(7) 0.1021(8) 0.2279(3)
O2 O 0.4767(9) 0.1375(6) 0.1353(4)
O3 O 0.3378(7) -0.0199(5) 0.1417(5)
O7 O -0.8708(4) -0.6086(3) 0.29729(18)
O8 O -0.9609(6) -0.4680(3) 0.32586(17)
O9 O -1.0622(4) -0.5829(3) 0.24151(16)
N1 N -0.2392(3) -0.3249(2) 0.09526(14)
N2 N -0.3017(4) -0.1905(2) 0.39425(15)
C1 C -0.1271(4) -0.2919(3) 0.13869(17)
C2 C -0.1175(4) -0.3410(3) 0.18577(18)
H1 H -0.1870 -0.3960 0.1887
C3 C -0.0091(4) -0.3114(3) 0.22810(17)
H2 H -0.0046 -0.3456 0.2599
C4 C 0.0938(4) -0.2313(3) 0.22423(17)
C5 C 0.0850(4) -0.1815(3) 0.17792(18)
H3 H 0.1545 -0.1264 0.1752
C6 C -0.0242(4) -0.2116(3) 0.13554(18)
H4 H -0.0289 -0.1770 0.1040
C8 C -0.3693(4) -0.3552(3) 0.11453(16)
C9 C -0.4578(4) -0.4409(3) 0.08700(18)
H8 H -0.4338 -0.4783 0.0532
C10 C -0.5804(4) -0.4722(3) 0.10821(17)
H9 H -0.6394 -0.5319 0.0896
C11 C -0.6184(4) -0.4165(3) 0.15704(17)
C12 C -0.5300(4) -0.3299(3) 0.18391(19)
H10 H -0.5544 -0.2914 0.2171
C13 C -0.4066(4) -0.2996(3) 0.16265(19)
H11 H -0.3471 -0.2401 0.1812
C14 C -0.8980(4) -0.4801(3) 0.1296(2)
H12 H -0.9863 -0.5036 0.1435
H13 H -0.8809 -0.5298 0.0985
H14 H -0.8975 -0.4200 0.1142
C15 C -0.2262(4) -0.3074(3) 0.03698(17)
C16 C -0.1093(4) -0.3153(3) 0.01060(17)
H15 H -0.0423 -0.3388 0.0304
C17 C -0.0882(4) -0.2900(3) -0.04354(18)
H16 H -0.0057 -0.2934 -0.0600
C18 C -0.1879(4) -0.2592(3) -0.07419(17)
C19 C -0.3079(4) -0.2557(3) -0.04975(18)
H17 H -0.3778 -0.2373 -0.0711
C20 C -0.3271(4) -0.2786(3) 0.00549(17)
H18 H -0.4093 -0.2748 0.0221
C21 C 0.0095(4) -0.2051(4) -0.1507(2)
H19 H 0.0571 -0.1440 -0.1254
H20 H 0.0266 -0.2018 -0.1916
H21 H 0.0419 -0.2595 -0.1388
C22 C -0.4511(4) -0.4756(3) 0.30025(17)
C23 C -0.5405(4) -0.4232(3) 0.32492(18)
H22 H -0.6346 -0.4521 0.3212
C24 C -0.4915(4) -0.3286(3) 0.35504(18)
H23 H -0.5524 -0.2927 0.3717
C25 C -0.3538(4) -0.2860(3) 0.36099(17)
C26 C -0.2664(4) -0.3381(3) 0.33527(18)
H24 H -0.1725 -0.3091 0.3385
C27 C -0.3150(4) -0.4327(3) 0.30469(18)
H25 H -0.2543 -0.4678 0.2868
C28 C -0.4102(5) -0.6236(4) 0.2113(2)
H26 H -0.3180 -0.6185 0.2282
H27 H -0.4462 -0.6892 0.1886
H28 H -0.4093 -0.5755 0.1855
C29 C -0.2040(4) -0.1252(3) 0.36870(18)
C30 C -0.0806(4) -0.0771(3) 0.3996(2)
H29 H -0.0615 -0.0855 0.4388
C31 C 0.0144(4) -0.0169(3) 0.3735(2)
H30 H 0.0989 0.0154 0.3948
C32 C -0.0129(4) -0.0034(3) 0.3166(2)
C33 C -0.1343(5) -0.0512(4) 0.2863(2)
H31 H -0.1532 -0.0428 0.2471
C34 C -0.2300(5) -0.1118(4) 0.3121(2)
H32 H -0.3141 -0.1442 0.2906
C35 C 0.1625(6) 0.1818(4) 0.3316(3)
H33 H 0.0924 0.2190 0.3315
H34 H 0.1786 0.1672 0.3710
H35 H 0.2462 0.2201 0.3205
C36 C -0.3401(4) -0.1634(3) 0.45064(17)
C37 C -0.3904(4) -0.2336(3) 0.48436(18)
H36 H -0.3964 -0.3005 0.4695
C38 C -0.4315(4) -0.2069(3) 0.53878(18)
H37 H -0.4649 -0.2557 0.5612
C39 C -0.4250(4) -0.1097(3) 0.56174(17)
C40 C -0.3706(4) -0.0395(3) 0.52933(19)
H38 H -0.3615 0.0274 0.5451
C41 C -0.3298(4) -0.0654(3) 0.47486(19)
H39 H -0.2940 -0.0161 0.4532
C42 C -0.5708(6) -0.1828(4) 0.6508(2)
H40 H -0.6441 -0.2193 0.6211
H41 H -0.5040 -0.2219 0.6549
H42 H -0.6075 -0.1682 0.6885
C43 C -1.0924(6) -0.6327(4) 0.3428(3)
C44 C 0.5782(14) 0.0293(7) 0.1820(5)
Ag1 Ag 0.30604(3) -0.01082(2) 0.289048(15)
Ag2 Ag -0.74025(3) -0.61936(2) 0.212250(14)
Ag2A Ag -0.25975(3) -0.38064(2) -0.212250(14)
Ag1A Ag -0.30604(3) 0.01082(2) 0.710952(15)
S6A S 0.49130(12) 0.07080(9) 0.37160(5)
S3A S -0.83048(11) -0.77655(7) 0.14410(4)
S1? S 0.24242(11) -0.19368(8) 0.27402(5)
F1? F 0.5682(12) -0.0547(12) 0.2023(11)
F5? F 0.692(3) 0.031(3) 0.1473(13)
F6? F 0.589(3) -0.069(3) 0.1305(12)
O4? O 0.485(3) 0.1529(10) 0.2023(13)
O5? O 0.4387(14) 0.0638(19) 0.1058(8)
O6? O 0.3543(13) -0.0156(10) 0.1829(9)
loop_
_geom_bond_atom_site_label_1
_geom_bond_atom_site_label_2
_geom_bond_site_symmetry_1
_geom_bond_site_symmetry_2
S2 C11 1_555 1_555
S3 C18 1_555 1_555
S4 C22 1_555 1_555
S5 C32 1_555 1_555
S6 C39 1_555 1_555
S7 O1 1_555 1_555
S8 O7 1_555 1_555
F2 C44 1_555 1_555
F3 C44 1_555 1_555
F4 C44 1_555 1_555
F7 C43 1_555 1_555
F8 C43 1_555 1_555
F9 C43 1_555 1_555
O1 Ag1 1_555 1_555
O2 S7 1_555 1_555
O3 S7 1_555 1_555
O7 Ag2 1_555 1_555
O8 S8 1_555 1_555
O9 S8 1_555 1_555
N1 C1 1_555 1_555
N2 C25 1_555 1_555
C1 C2 1_555 1_555
C2 H1 1_555 1_555
C3 C2 1_555 1_555
H2 C3 1_555 1_555
C4 C3 1_555 1_555
C5 C4 1_555 1_555
H3 C5 1_555 1_555
C6 C1 1_555 1_555
H4 C6 1_555 1_555
C7 H5 1_555 1_555
H6 C7 1_555 1_555
H7 C7 1_555 1_555
C8 N1 1_555 1_555
C9 C8 1_555 1_555
H8 C9 1_555 1_555
C10 C9 1_555 1_555
H9 C10 1_555 1_555
C11 C10 1_555 1_555
C12 C11 1_555 1_555
H10 C12 1_555 1_555
C13 C8 1_555 1_555
H11 C13 1_555 1_555
C14 S2 1_555 1_555
H12 C14 1_555 1_555
H13 C14 1_555 1_555
H14 C14 1_555 1_555
C15 N1 1_555 1_555
C16 C15 1_555 1_555
H15 C16 1_555 1_555
C17 C16 1_555 1_555
H16 C17 1_555 1_555
C18 C17 1_555 1_555
C19 C18 1_555 1_555
H17 C19 1_555 1_555
C20 C15 1_555 1_555
H18 C20 1_555 1_555
C21 S3 1_555 1_555
H19 C21 1_555 1_555
H20 C21 1_555 1_555
H21 C21 1_555 1_555
C22 C23 1_555 1_555
C23 H22 1_555 1_555
C24 C23 1_555 1_555
H23 C24 1_555 1_555
C25 C24 1_555 1_555
C26 C25 1_555 1_555
H24 C26 1_555 1_555
C27 C22 1_555 1_555
H25 C27 1_555 1_555
C28 S4 1_555 1_555
H26 C28 1_555 1_555
H27 C28 1_555 1_555
H28 C28 1_555 1_555
C29 N2 1_555 1_555
C30 C29 1_555 1_555
H29 C30 1_555 1_555
C31 C30 1_555 1_555
H30 C31 1_555 1_555
C32 C31 1_555 1_555
C33 C32 1_555 1_555
H31 C33 1_555 1_555
C34 C29 1_555 1_555
H32 C34 1_555 1_555
C35 S5 1_555 1_555
H33 C35 1_555 1_555
H34 C35 1_555 1_555
H35 C35 1_555 1_555
C36 N2 1_555 1_555
C37 C36 1_555 1_555
H36 C37 1_555 1_555
C38 C37 1_555 1_555
H37 C38 1_555 1_555
C39 C38 1_555 1_555
C40 C39 1_555 1_555
H38 C40 1_555 1_555
C41 C36 1_555 1_555
H39 C41 1_555 1_555
C42 S6 1_555 1_555
H40 C42 1_555 1_555
H41 C42 1_555 1_555
H42 C42 1_555 1_555
C43 S8 1_555 1_555
C44 S7 1_555 1_555
C45 H43 1_555 1_555
C46 C45 1_555 1_555
H44 C46 1_555 1_555
C47 C46 1_555 1_555
H45 C47 1_555 1_555
C48 C47 1_555 1_555
H46 C48 1_555 1_555
C49 C48 1_555 1_555
H47 C49 1_555 1_555
C50 C45 1_555 1_555
H48 C50 1_555 1_555
C51 H49 1_555 1_555
C52 C51 1_555 1_555
H50 C52 1_555 1_555
C53 C51 1_555 1_555
H51 C53 1_555 1_555
C54 H52 1_555 1_555
C55 C54 1_555 1_555
H53 C55 1_555 1_555
C56 C54 1_555 1_555
H54 C56 1_555 1_555
C57 C58 1_555 1_555
C58 C62 1_555 1_555
C59 C61 1_555 1_555
C60 C57 1_555 1_555
C61 C62 1_555 1_555
C63 C59 1_555 1_555
Ag1 S5 1_555 1_555
Ag2 S2 1_555 1_555
Ag2A S3 1_555 1_555
Ag1A S6 1_555 1_555
C53A C52 1_555 1_555
C52A C53 1_555 1_555
C56A C55 1_555 1_555
C55A C56 1_555 1_555
S6A Ag1 1_555 1_555
S3A Ag2 1_555 1_555
S4 Ag2 1_555 1_555
C5 C6 1_555 1_555
C12 C13 1_555 1_555
C19 C20 1_555 1_555
C26 C27 1_555 1_555
C33 C34 1_555 1_555
C40 C41 1_555 1_555
C49 C50 1_555 1_555
C60 C63 1_555 1_555

#END
