
#######################################################################
#
#                 Cambridge Crystallographic Data Centre
#                                CCDC 
#
#######################################################################
#
# If this CIF has been generated from an entry in the Cambridge 
# Structural Database, then it will include bibliographic, chemical, 
# crystal, experimental, refinement or atomic coordinate data resulting 
# from the CCDC's data processing and validation procedures.
#
#######################################################################

data_EFIPEO
_symmetry_cell_setting           triclinic
_symmetry_space_group_name_H-M   'P -1'
_symmetry_Int_Tables_number      2
_space_group_name_Hall           '-P 1'
loop_
_symmetry_equiv_pos_site_id
_symmetry_equiv_pos_as_xyz
1 x,y,z
2 -x,-y,-z
_cell_length_a                   11.033(4)
_cell_length_b                   12.524(4)
_cell_length_c                   13.345(4)
_cell_angle_alpha                70.404(8)
_cell_angle_beta                 87.048(8)
_cell_angle_gamma                79.495(8)
_cell_volume                     1707.97
loop_
_atom_site_label
_atom_site_type_symbol
_atom_site_fract_x
_atom_site_fract_y
_atom_site_fract_z
Ag1 Ag 0.26601(5) 0.23403(5) 0.12596(5)
S1 S 0.25083(18) 0.36832(17) -0.06046(16)
S2 S -0.08206(17) -0.27399(18) -0.24110(18)
S3 S 0.46769(16) 0.16574(16) -0.76877(14)
O1 O 0.2554(5) 0.0385(5) 0.1322(5)
N1 N 0.2242(6) 0.0940(6) -0.3452(5)
C1 C 0.3584(9) -0.0255(11) 0.0979(12)
H1 H 0.4151 0.0265 0.0581
H2 H 0.4036 -0.0840 0.1603
C2 C 0.3191(9) -0.0796(12) 0.0327(11)
H3 H 0.3597 -0.1613 0.0547
H4 H 0.3407 -0.0415 -0.0422
C3 C 0.1836(8) -0.0714(8) 0.0430(8)
H5 H 0.1614 -0.1486 0.0763
H6 H 0.1424 -0.0345 -0.0274
C4 C 0.1482(9) 0.0010(9) 0.1122(8)
H7 H 0.0844 0.0681 0.0762
H8 H 0.1142 -0.0444 0.1800
C5 C 0.2530(6) 0.2846(6) -0.1433(6)
C6 C 0.1438(7) 0.2463(7) -0.1496(6)
H9 H 0.0745 0.2641 -0.1091
C7 C 0.1363(6) 0.1823(7) -0.2148(6)
H10 H 0.0618 0.1554 -0.2175
C8 C 0.2359(7) 0.1561(6) -0.2772(5)
C9 C 0.3438(7) 0.1936(7) -0.2693(6)
H11 H 0.4134 0.1750 -0.3092
C10 C 0.3527(7) 0.2583(6) -0.2038(6)
H12 H 0.4275 0.2845 -0.2005
C11 C 0.3930(10) 0.4209(9) -0.0897(8)
H13 H 0.3904 0.4744 -0.1628
H14 H 0.4610 0.3561 -0.0818
H15 H 0.4057 0.4610 -0.0404
C12 C 0.0088(6) -0.1662(6) -0.2629(6)
C13 C -0.0244(7) -0.0671(7) -0.3480(6)
H16 H -0.0951 -0.0585 -0.3896
C14 C 0.0444(7) 0.0196(7) -0.3732(6)
H17 H 0.0201 0.0882 -0.4313
C15 C 0.1491(7) 0.0070(7) -0.3141(6)
C16 C 0.1791(6) -0.0891(7) -0.2263(6)
H18 H 0.2480 -0.0958 -0.1834
C17 C 0.1109(7) -0.1760(7) -0.1995(6)
H19 H 0.1326 -0.2422 -0.1385
C18 C 0.0127(9) -0.3984(8) -0.1577(9)
H20 H 0.0858 -0.4188 -0.1969
H21 H 0.0384 -0.3831 -0.0953
H22 H -0.0334 -0.4622 -0.1345
C19 C 0.3987(6) 0.1504(6) -0.6421(5)
C20 C 0.3621(7) 0.2409(7) -0.6023(6)
H23 H 0.3764 0.3159 -0.6426
C21 C 0.3052(7) 0.2221(7) -0.5044(6)
H24 H 0.2808 0.2846 -0.4784
C22 C 0.2832(6) 0.1145(7) -0.4443(6)
C23 C 0.3199(6) 0.0243(6) -0.4842(6)
H25 H 0.3057 -0.0507 -0.4439
C24 C 0.3763(6) 0.0429(6) -0.5813(5)
H26 H 0.4004 -0.0198 -0.6072
C25 C 0.5393(7) 0.2901(7) -0.7968(6)
H27 H 0.6180 0.2684 -0.7581
H28 H 0.4850 0.3489 -0.7742
H29 H 0.5539 0.3209 -0.8734
S2A S 0.08206(17) 0.27399(18) 0.24110(18)
S3_2 S 0.46769(16) 0.16574(16) 0.23123(14)
Ag1A Ag -0.26601(5) -0.23403(5) -0.12596(5)
Ag1_2 Ag 0.26601(5) 0.23403(5) -0.87404(5)
Cl1 Cl -0.74431(19) -0.41126(18) 0.12952(19)
O2 O -0.6711(10) -0.3924(10) 0.2035(8)
O3 O -0.8679(7) -0.3672(6) 0.1368(10)
O4 O -0.7314(6) -0.5313(5) 0.1503(6)
O5 O -0.7003(7) -0.3568(6) 0.0261(6)
O7 O 0.7166(15) 0.3486(17) 0.3844(13)
C28 C 0.742(2) 0.2443(15) 0.5750(17)
H30 H 0.7955 0.2605 0.6236
H31 H 0.7270 0.1642 0.6062
C29 C 0.6172(18) 0.334(2) 0.5477(15)
H32 H 0.5459 0.2952 0.5523
H33 H 0.6043 0.3797 0.5968
C30 C 0.6338(15) 0.4083(17) 0.4385(17)
H34 H 0.5533 0.4348 0.4007
H35 H 0.6655 0.4770 0.4396
C31 C 0.7928(17) 0.2667(16) 0.4696(19)
H36 H 0.8121 0.1929 0.4551
H37 H 0.8715 0.2942 0.4690
O6? O 0.8590(16) 0.5246(15) 0.4927(17)
C26? C 0.9453(17) 0.5491(18) 0.4175(14)
C27? C 0.9312(16) 0.5101(17) 0.5715(14)
loop_
_geom_bond_atom_site_label_1
_geom_bond_atom_site_label_2
_geom_bond_site_symmetry_1
_geom_bond_site_symmetry_2
Ag1 S1 1_555 1_555
S1 C5 1_555 1_555
S2 C12 1_555 1_555
S3 C19 1_555 1_555
Cl1 O2 1_555 1_555
O1 Ag1 1_555 1_555
O3 Cl1 1_555 1_555
O4 Cl1 1_555 1_555
O5 Cl1 1_555 1_555
N1 C8 1_555 1_555
C1 O1 1_555 1_555
H1 C1 1_555 1_555
H2 C1 1_555 1_555
C2 C1 1_555 1_555
H3 C2 1_555 1_555
H4 C2 1_555 1_555
C3 C2 1_555 1_555
H5 C3 1_555 1_555
H6 C3 1_555 1_555
C4 O1 1_555 1_555
H7 C4 1_555 1_555
H8 C4 1_555 1_555
C5 C6 1_555 1_555
C6 H9 1_555 1_555
C7 C6 1_555 1_555
H10 C7 1_555 1_555
C8 C7 1_555 1_555
C9 C8 1_555 1_555
H11 C9 1_555 1_555
C10 C5 1_555 1_555
H12 C10 1_555 1_555
C11 S1 1_555 1_555
H13 C11 1_555 1_555
H14 C11 1_555 1_555
H15 C11 1_555 1_555
C12 C13 1_555 1_555
C13 H16 1_555 1_555
C14 C13 1_555 1_555
H17 C14 1_555 1_555
C15 N1 1_555 1_555
C16 C15 1_555 1_555
H18 C16 1_555 1_555
C17 C12 1_555 1_555
H19 C17 1_555 1_555
C18 S2 1_555 1_555
H20 C18 1_555 1_555
H21 C18 1_555 1_555
H22 C18 1_555 1_555
C19 C20 1_555 1_555
C20 H23 1_555 1_555
C21 C20 1_555 1_555
H24 C21 1_555 1_555
C22 N1 1_555 1_555
C23 C22 1_555 1_555
H25 C23 1_555 1_555
C24 C19 1_555 1_555
H26 C24 1_555 1_555
C25 S3 1_555 1_555
H27 C25 1_555 1_555
H28 C25 1_555 1_555
H29 C25 1_555 1_555
O7 C30 1_555 1_555
C28 H30 1_555 1_555
H31 C28 1_555 1_555
C29 C28 1_555 1_555
H32 C29 1_555 1_555
H33 C29 1_555 1_555
C30 C29 1_555 1_555
H34 C30 1_555 1_555
H35 C30 1_555 1_555
C31 O7 1_555 1_555
H36 C31 1_555 1_555
H37 C31 1_555 1_555
S2A Ag1 1_555 1_555
S3_2 Ag1 1_555 1_555
Ag1A S2 1_555 1_555
Ag1_2 S3 1_555 1_555
C3 C4 1_555 1_555
C9 C10 1_555 1_555
C14 C15 1_555 1_555
C16 C17 1_555 1_555
C21 C22 1_555 1_555
C23 C24 1_555 1_555
C28 C31 1_555 1_555

#END
