
#######################################################################
#
#                 Cambridge Crystallographic Data Centre
#                                CCDC 
#
#######################################################################
#
# If this CIF has been generated from an entry in the Cambridge 
# Structural Database, then it will include bibliographic, chemical, 
# crystal, experimental, refinement or atomic coordinate data resulting 
# from the CCDC's data processing and validation procedures.
#
#######################################################################

data_EFIQER
_symmetry_cell_setting           monoclinic
_symmetry_space_group_name_H-M   'P 21/n'
_symmetry_Int_Tables_number      14
_space_group_name_Hall           '-P 2yn'
loop_
_symmetry_equiv_pos_site_id
_symmetry_equiv_pos_as_xyz
1 x,y,z
2 1/2-x,1/2+y,1/2-z
3 -x,-y,-z
4 1/2+x,1/2-y,1/2+z
_cell_length_a                   11.368(2)
_cell_length_b                   17.489(3)
_cell_length_c                   13.533(2)
_cell_angle_alpha                90
_cell_angle_beta                 109.706(2)
_cell_angle_gamma                90
_cell_volume                     2532.99
loop_
_atom_site_label
_atom_site_type_symbol
_atom_site_fract_x
_atom_site_fract_y
_atom_site_fract_z
Zn1 Zn 0.2758 0.3266 0.7069
O1 O 0.0369(3) 0.3259(1) 0.7169(2)
C1 C -0.1261(3) 0.1646(2) 0.4266(3)
O2 O 0.1597(2) 0.2405(1) 0.6802(2)
C2 C 0.4852(3) 0.6778(2) 0.3493(3)
C3 C 0.1458(3) 0.4105(2) 0.5062(3)
C4 C -0.0327(3) 0.1979(2) 0.6967(3)
N1 N 0.4213(3) 0.7147(2) 0.4030(2)
C5 C 0.0592(3) 0.2601(2) 0.6975(3)
N2 N 0.2142(3) 0.4187(2) 0.6121(2)
N3 N 0.1845(2) 0.5331(2) 0.5378(2)
C6 C 0.0617(3) 0.4923(2) 0.3529(3)
H1 H 0.0500 0.5404 0.3216
C7 C 0.1266(3) 0.4820(2) 0.4586(3)
C8 C 0.5955(3) 0.7770(2) 0.4190(3)
C9 C -0.0705(3) 0.1401(2) 0.6218(3)
C10 C 0.6834(4) 0.8353(2) 0.4497(3)
H2 H 0.7541 0.8358 0.4298
C11 C 0.2356(3) 0.4936(2) 0.6276(3)
C12 C 0.4901(3) 0.7788(2) 0.4490(3)
C13 C 0.2003(3) 0.6148(2) 0.5202(3)
H3 H 0.2056 0.6434 0.5829
H4 H 0.1284 0.6332 0.4633
C14 C 0.4681(4) 0.8362(2) 0.5101(3)
H5 H 0.3972 0.8364 0.5298
C15 C -0.0838(3) 0.2008(2) 0.7764(3)
H6 H -0.0608 0.2405 0.8250
C16 C 0.3032(3) 0.6914(2) 0.4156(3)
H7 H 0.2457 0.6752 0.3480
H8 H 0.2666 0.7352 0.4383
C17 C -0.0315(3) 0.1339(2) 0.5268(3)
H9 H -0.0157 0.0806 0.5162
H10 H 0.0464 0.1615 0.5402
C18 C 0.0969(3) 0.3456(2) 0.4476(3)
H11 H 0.1078 0.2975 0.4785
C19 C -0.2044(4) 0.0894(3) 0.7131(4)
H12 H -0.2609 0.0525 0.7182
C20 C -0.1570(4) 0.0875(2) 0.6329(4)
H13 H -0.1840 0.0489 0.5830
C21 C 0.6607(4) 0.8925(2) 0.5114(4)
H14 H 0.7182 0.9321 0.5340
C22 C 0.3184(3) 0.6277(2) 0.4931(3)
H15 H 0.3871 0.6397 0.5567
H16 H 0.3394 0.5810 0.4641
C23 C 0.4389(4) 0.6058(2) 0.2899(4)
H17 H 0.4721 0.6014 0.2337
H18 H 0.3493 0.6069 0.2616
H19 H 0.4654 0.5628 0.3362
C24 C 0.0324(4) 0.3549(2) 0.3435(3)
H20 H -0.0010 0.3122 0.3027
C25 C 0.5561(4) 0.8928(2) 0.5402(3)
H21 H 0.5446 0.9327 0.5815
C26 C 0.0153(4) 0.4267(2) 0.2968(3)
H22 H -0.0289 0.4306 0.2253
C27 C 0.3057(4) 0.5302(2) 0.7289(3)
H23 H 0.3854 0.5472 0.7275
H24 H 0.3179 0.4939 0.7847
H25 H 0.2593 0.5732 0.7402
C28 C -0.1672(4) 0.1467(3) 0.7859(4)
H26 H -0.1982 0.1491 0.8413
O3 O -0.1992(3) 0.2137(2) 0.4301(2)
O4 O -0.1189(2) 0.1371(2) 0.3426(2)
N4 N 0.5914(3) 0.7131(2) 0.3559(2)
Zn1B Zn 0.7242 0.6734 0.2931
Zn1C Zn -0.2242 0.1734 0.2069
O4C O 0.3811(2) 0.3629(2) 0.8426(2)
N4B N 0.4086(3) 0.2869(2) 0.6441(2)
loop_
_geom_bond_atom_site_label_1
_geom_bond_atom_site_label_2
_geom_bond_site_symmetry_1
_geom_bond_site_symmetry_2
Zn1 O2 1_555 1_555
O1 C5 1_555 1_555
C1 C17 1_555 1_555
O2 C5 1_555 1_555
C2 N1 1_555 1_555
C3 N2 1_555 1_555
C4 C5 1_555 1_555
N1 C12 1_555 1_555
N2 Zn1 1_555 1_555
N3 C7 1_555 1_555
C6 H1 1_555 1_555
C7 C3 1_555 1_555
C8 C10 1_555 1_555
C9 C4 1_555 1_555
C10 H2 1_555 1_555
C11 N2 1_555 1_555
C12 C8 1_555 1_555
C13 N3 1_555 1_555
H3 C13 1_555 1_555
H4 C13 1_555 1_555
C14 C12 1_555 1_555
H5 C14 1_555 1_555
C15 C4 1_555 1_555
H6 C15 1_555 1_555
C16 N1 1_555 1_555
H7 C16 1_555 1_555
H8 C16 1_555 1_555
C17 C9 1_555 1_555
H9 C17 1_555 1_555
H10 C17 1_555 1_555
C18 C3 1_555 1_555
H11 C18 1_555 1_555
C19 H12 1_555 1_555
C20 C9 1_555 1_555
H13 C20 1_555 1_555
C21 C10 1_555 1_555
H14 C21 1_555 1_555
C22 C13 1_555 1_555
H15 C22 1_555 1_555
H16 C22 1_555 1_555
C23 C2 1_555 1_555
H17 C23 1_555 1_555
H18 C23 1_555 1_555
H19 C23 1_555 1_555
C24 C18 1_555 1_555
H20 C24 1_555 1_555
C25 C14 1_555 1_555
H21 C25 1_555 1_555
C26 C6 1_555 1_555
H22 C26 1_555 1_555
C27 C11 1_555 1_555
H23 C27 1_555 1_555
H24 C27 1_555 1_555
H25 C27 1_555 1_555
C28 C15 1_555 1_555
H26 C28 1_555 1_555
O3 C1 1_555 1_555
O4 C1 1_555 1_555
N4 C2 1_555 1_555
Zn1B N4 1_555 1_555
Zn1C O4 1_555 1_555
O4C Zn1 1_555 1_555
N4B Zn1 1_555 1_555
N3 C11 1_555 1_555
C6 C7 1_555 1_555
C8 N4 1_555 1_555
C16 C22 1_555 1_555
C19 C20 1_555 1_555
C19 C28 1_555 1_555
C21 C25 1_555 1_555
C24 C26 1_555 1_555

#END
