
#######################################################################
#
#                 Cambridge Crystallographic Data Centre
#                                CCDC 
#
#######################################################################
#
# If this CIF has been generated from an entry in the Cambridge 
# Structural Database, then it will include bibliographic, chemical, 
# crystal, experimental, refinement or atomic coordinate data resulting 
# from the CCDC's data processing and validation procedures.
#
#######################################################################

data_EFIRUH
_symmetry_cell_setting           monoclinic
_symmetry_space_group_name_H-M   'C 2/c'
_symmetry_Int_Tables_number      15
_space_group_name_Hall           '-C 2yn'
loop_
_symmetry_equiv_pos_site_id
_symmetry_equiv_pos_as_xyz
1 x,y,z
2 1/2+x,1/2+y,z
3 -x,y,1/2-z
4 1/2-x,1/2+y,1/2-z
5 -x,-y,-z
6 1/2-x,1/2-y,-z
7 x,-y,1/2+z
8 1/2+x,1/2-y,1/2+z
_cell_length_a                   8.862(3)
_cell_length_b                   18.299(7)
_cell_length_c                   13.333(5)
_cell_angle_alpha                90
_cell_angle_beta                 98.10(7)
_cell_angle_gamma                90
_cell_volume                     2140.59
loop_
_atom_site_label
_atom_site_type_symbol
_atom_site_fract_x
_atom_site_fract_y
_atom_site_fract_z
Cu1 Cu 0.02568(4) 0.07110(2) 0.44163(3)
Cu2 Cu 0.0000 0.17768(2) 0.2500
N1 N -0.1094(3) 0.15792(13) 0.3986(2)
N2 N -0.2405(3) 0.16461(13) 0.4122(2)
N3 N -0.3656(3) 0.1732(2) 0.4221(3)
N4 N 0.1315(3) 0.09908(12) 0.3263(2)
N5 N 0.2130(3) 0.06021(15) 0.2827(2)
N6 N 0.2928(5) 0.0257(2) 0.2428(3)
N7 N -0.0939(3) 0.03436(13) 0.5482(2)
N8 N -0.1393(3) 0.07587(13) 0.6093(2)
N9 N -0.1847(4) 0.1156(2) 0.6638(3)
N10 N -0.3135(3) 0.35785(12) 0.0559(2)
C1 C -0.1614(3) 0.36657(15) 0.0783(2)
C2 C -0.0741(3) 0.31381(14) 0.1357(2)
H1 H 0.0312 0.31946 0.1475
N11 N -0.1362(3) 0.25549(12) 0.1743(2)
C3 C -0.2886(3) 0.24807(15) 0.1542(2)
H2 H -0.3362 0.20876 0.1809
C4 C -0.3748(3) 0.29889(15) 0.0937(2)
H3 H -0.4794 0.29166 0.0788
C5 C -0.0889(3) 0.4329(2) 0.0404(2)
H4 H 0.0093 0.4404 0.0796
H5 H -0.0773 0.4261 -0.0295
H6 H -0.1522 0.4747 0.0468
Cu1B Cu -0.02568(4) 0.07110(2) 0.05837(3)
Cu1D Cu -0.02568(4) -0.07110(2) 0.55837(3)
Cu1G Cu -0.47432(4) 0.42890(2) -0.05837(3)
Cu1E Cu 0.47432(4) 0.42890(2) 0.55837(3)
N1B N 0.1094(3) 0.15792(13) 0.1014(2)
N2B N 0.2405(3) 0.16461(13) 0.0878(2)
N3B N 0.3656(3) 0.1732(2) 0.0779(3)
N4B N -0.1315(3) 0.09908(12) 0.1737(2)
N5B N -0.2130(3) 0.06021(15) 0.2173(2)
N6B N -0.2928(5) 0.0257(2) 0.2572(3)
N7D N 0.0939(3) -0.03436(13) 0.4518(2)
N7F N -0.0939(3) -0.03436(13) 0.0482(2)
N7B N 0.0939(3) 0.03436(13) -0.0482(2)
N8D N 0.1393(3) -0.07587(13) 0.3907(2)
N9D N 0.1847(4) -0.1156(2) 0.3362(3)
N10B N 0.3135(3) 0.35785(12) 0.4441(2)
N10G N 0.1865(3) 0.14215(12) 0.5559(2)
N10E N -0.1865(3) 0.14215(12) -0.0559(2)
C1B C 0.1614(3) 0.36657(15) 0.4217(2)
C2B C 0.0741(3) 0.31381(14) 0.3643(2)
H1B H -0.0312 0.31946 0.3525
N11B N 0.1362(3) 0.25549(12) 0.3257(2)
C3B C 0.2886(3) 0.24807(15) 0.3458(2)
H2B H 0.3362 0.20876 0.3191
C4B C 0.3748(3) 0.29889(15) 0.4063(2)
H3B H 0.4794 0.29166 0.4212
C5B C 0.0889(3) 0.4329(2) 0.4596(2)
H4B H -0.0093 0.4404 0.4204
H5B H 0.0773 0.4261 0.5295
H6B H 0.1522 0.4747 0.4532
loop_
_geom_bond_atom_site_label_1
_geom_bond_atom_site_label_2
_geom_bond_site_symmetry_1
_geom_bond_site_symmetry_2
Cu1 N1 1_555 1_555
Cu2 N1 1_555 1_555
N1 N2 1_555 1_555
N2 N3 1_555 1_555
N4 Cu1 1_555 1_555
N5 N4 1_555 1_555
N6 N5 1_555 1_555
N7 Cu1 1_555 1_555
N8 N7 1_555 1_555
N9 N8 1_555 1_555
N10 C1 1_555 1_555
C1 C2 1_555 1_555
C2 H1 1_555 1_555
N11 Cu2 1_555 1_555
C3 N11 1_555 1_555
H2 C3 1_555 1_555
C4 N10 1_555 1_555
H3 C4 1_555 1_555
C5 C1 1_555 1_555
H4 C5 1_555 1_555
H5 C5 1_555 1_555
H6 C5 1_555 1_555
Cu1B N1B 1_555 1_555
Cu1D N7 1_555 1_555
Cu1G N10 1_555 1_555
Cu1E N10B 1_555 1_555
N1B Cu2 1_555 1_555
N2B N1B 1_555 1_555
N3B N2B 1_555 1_555
N4B Cu2 1_555 1_555
N5B N4B 1_555 1_555
N6B N5B 1_555 1_555
N7D Cu1 1_555 1_555
N7F Cu1B 1_555 1_555
N7B Cu1B 1_555 1_555
N8D N7D 1_555 1_555
N9D N8D 1_555 1_555
N10B C1B 1_555 1_555
N10G Cu1 1_555 1_555
N10E Cu1B 1_555 1_555
C1B C2B 1_555 1_555
C2B H1B 1_555 1_555
N11B Cu2 1_555 1_555
C3B N11B 1_555 1_555
H2B C3B 1_555 1_555
C4B N10B 1_555 1_555
H3B C4B 1_555 1_555
C5B C1B 1_555 1_555
H4B C5B 1_555 1_555
H5B C5B 1_555 1_555
H6B C5B 1_555 1_555
Cu2 N4 1_555 1_555
C2 N11 1_555 1_555
C3 C4 1_555 1_555
Cu1B N4B 1_555 1_555
Cu1D N7D 1_555 1_555
C2B N11B 1_555 1_555
C3B C4B 1_555 1_555

#END
