
#######################################################################
#
#                 Cambridge Crystallographic Data Centre
#                                CCDC 
#
#######################################################################
#
# If this CIF has been generated from an entry in the Cambridge 
# Structural Database, then it will include bibliographic, chemical, 
# crystal, experimental, refinement or atomic coordinate data resulting 
# from the CCDC's data processing and validation procedures.
#
#######################################################################

data_EFIRAN
_symmetry_cell_setting           triclinic
_symmetry_space_group_name_H-M   'P -1'
_symmetry_Int_Tables_number      2
_space_group_name_Hall           '-P 1'
loop_
_symmetry_equiv_pos_site_id
_symmetry_equiv_pos_as_xyz
1 x,y,z
2 -x,-y,-z
_cell_length_a                   10.508(1)
_cell_length_b                   12.5528(10)
_cell_length_c                   16.649(2)
_cell_angle_alpha                88.623(12)
_cell_angle_beta                 73.953(12)
_cell_angle_gamma                69.668(12)
_cell_volume                     1972.69
loop_
_atom_site_label
_atom_site_type_symbol
_atom_site_fract_x
_atom_site_fract_y
_atom_site_fract_z
Tb1 Tb 0.24770(1) 0.38173(1) 0.06250(1)
O1 O -0.20726(15) 0.18030(12) 0.02435(9)
O2 O 0.12034(14) 0.29142(12) 0.01393(9)
O3 O -0.09647(14) 0.29436(11) 0.08065(9)
O4 O -0.17430(16) -0.07089(13) -0.14004(10)
O5 O -0.30925(16) 0.05176(13) -0.03156(10)
O6 O 0.34339(14) 0.40326(11) 0.16586(8)
O7 O 0.03869(17) 0.28403(14) 0.31862(10)
O8 O 0.12320(14) 0.33075(11) 0.19044(8)
O9 O 0.62079(16) 0.47214(13) 0.26482(9)
O10 O 0.55659(15) 0.45097(13) 0.15236(9)
O11 O 0.27902(14) 0.58416(11) 0.05627(8)
O12 O -0.10792(14) 0.68414(12) 0.23188(9)
O13 O 0.03884(14) 0.54833(11) 0.13086(8)
O14 O 0.57638(14) 0.72028(11) 0.07885(8)
O15 O 0.50770(14) 0.62552(11) 0.00081(8)
O16 O 0.36833(16) 0.18061(12) 0.07659(10)
O17 O 0.16896(16) 0.48051(13) -0.04880(9)
C1 C -0.0831(2) 0.13360(16) -0.03623(12)
C2 C 0.0327(2) 0.16792(15) -0.04115(12)
C3 C 0.1581(2) 0.11869(16) -0.10544(13)
C4 C 0.1738(2) 0.03662(16) -0.16560(13)
C5 C 0.0577(2) 0.00312(16) -0.15843(13)
C6 C -0.0701(2) 0.04932(16) -0.09545(13)
C7 C 0.0202(2) 0.25596(16) 0.02161(12)
C8 C -0.1866(2) 0.00535(17) -0.09191(13)
C9 C 0.3115(2) -0.01691(17) -0.23654(14)
C10 C 0.4161(3) 0.0442(2) -0.24193(19)
C11 C 0.3839(2) -0.14178(18) -0.22211(16)
C12 C 0.2767(3) -0.0120(3) -0.32065(16)
C13 C 0.32683(19) 0.39350(15) 0.24708(12)
C14 C 0.2231(2) 0.35445(16) 0.29905(12)
C15 C 0.2134(2) 0.34595(18) 0.38422(13)
C16 C 0.3000(2) 0.37601(18) 0.42253(13)
C17 C 0.4017(2) 0.41318(17) 0.37065(13)
C18 C 0.4178(2) 0.42063(16) 0.28518(12)
C19 C 0.1260(2) 0.32242(16) 0.26423(12)
C20 C 0.5379(2) 0.45064(16) 0.23353(13)
C21 C 0.2821(3) 0.3656(2) 0.51674(13)
C22 C 0.3805(4) 0.4089(3) 0.54654(17)
C23 C 0.1298(3) 0.4312(3) 0.56651(16)
C24 C 0.3174(4) 0.2389(3) 0.53448(18)
C25 C 0.25427(19) 0.64925(15) 0.12710(11)
C26 C 0.1285(2) 0.66888(16) 0.19199(12)
C27 C 0.1055(2) 0.73262(16) 0.26590(12)
C28 C 0.2022(2) 0.77837(17) 0.27829(12)
C29 C 0.3235(2) 0.76195(16) 0.21115(12)
C30 C 0.35104(19) 0.69885(15) 0.13690(12)
C31 C 0.01673(19) 0.62780(15) 0.18225(12)
C32 C 0.48527(19) 0.68158(15) 0.06937(12)
C33 C 0.1814(2) 0.8440(2) 0.36012(14)
C34 C 0.0515(3) 0.8430(3) 0.42847(16)
C35 C 0.3127(3) 0.7908(3) 0.39073(17)
C36 C 0.1648(3) 0.9690(2) 0.34230(18)
H1 H -0.195(3) 0.223(2) 0.0530(16)
H2 H 0.23580 0.14220 -0.10820
H3 H -0.307(3) 0.101(2) -0.0029(17)
H4 H 0.06610 -0.05370 -0.19830
H5 H 0.37140 0.12480 -0.25010
H6 H 0.50040 0.00910 -0.28930
H7 H 0.44360 0.03800 -0.18990
H8 H 0.41140 -0.14560 -0.17020
H9 H 0.46850 -0.17700 -0.26930
H10 H 0.31820 -0.18260 -0.21760
H11 H 0.21870 -0.05860 -0.32060
H12 H 0.36480 -0.04140 -0.36640
H13 H 0.22430 0.06710 -0.32860
H14 H -0.013(3) 0.271(2) 0.2971(17)
H15 H 0.14420 0.31830 0.41780
H16 H 0.494(3) 0.435(2) 0.1441(16)
H17 H 0.46270 0.43440 0.39440
H18 H 0.35630 0.49060 0.53930
H19 H 0.47870 0.36780 0.51370
H20 H 0.37030 0.39630 0.60600
H21 H 0.10600 0.51220 0.55680
H22 H 0.11880 0.42190 0.62640
H23 H 0.06630 0.40170 0.54850
H24 H 0.30360 0.23190 0.59480
H25 H 0.41610 0.19560 0.50400
H26 H 0.25470 0.20890 0.51600
H27 H 0.351(3) 0.5878(19) 0.0259(15)
H28 H -0.179(3) 0.669(2) 0.2213(15)
H29 H 0.02020 0.74510 0.30940
H30 H 0.38950 0.79530 0.21660
H31 H 0.05920 0.76410 0.43850
H32 H -0.03370 0.88180 0.41080
H33 H 0.04520 0.88270 0.48020
H34 H 0.30050 0.83300 0.44280
H35 H 0.39630 0.79430 0.34790
H36 H 0.32540 0.71110 0.40110
H37 H 0.07860 1.00510 0.32510
H38 H 0.24710 0.97040 0.29730
H39 H 0.15830 1.01070 0.39320
H40 H 0.318(3) 0.151(2) 0.0975(16)
H41 H 0.416(3) 0.147(2) 0.0314(17)
H42 H 0.126(3) 0.462(2) -0.0696(16)
H43 H 0.162(3) 0.542(2) -0.0592(15)
Tb1A Tb 0.75230(1) 0.61827(1) -0.06250(1)
O14A O 0.42362(14) 0.27972(11) -0.07885(8)
O15A O 0.49230(14) 0.37448(11) -0.00081(8)
O18 O 0.67581(15) 0.65995(13) 0.21760(10)
H44 H 0.656(3) 0.678(2) 0.1740(17)
H45 H 0.663(3) 0.602(2) 0.2286(16)
O19 O 0.85368(18) 0.27151(15) 0.25244(11)
H46 H 0.788(3) 0.331(2) 0.2651(18)
H47 H 0.886(3) 0.273(2) 0.2006(19)
loop_
_geom_bond_atom_site_label_1
_geom_bond_atom_site_label_2
_geom_bond_site_symmetry_1
_geom_bond_site_symmetry_2
Tb1 O2 1_555 1_555
O1 C1 1_555 1_555
O2 C7 1_555 1_555
O3 C7 1_555 1_555
O4 C8 1_555 1_555
O5 C8 1_555 1_555
O6 Tb1 1_555 1_555
O7 C19 1_555 1_555
O8 Tb1 1_555 1_555
O9 C20 1_555 1_555
O10 C20 1_555 1_555
O11 Tb1 1_555 1_555
O12 C31 1_555 1_555
O13 Tb1 1_555 1_555
O14 C32 1_555 1_555
O15 C32 1_555 1_555
O16 Tb1 1_555 1_555
O17 Tb1 1_555 1_555
C1 C2 1_555 1_555
C2 C3 1_555 1_555
C3 C4 1_555 1_555
C4 C5 1_555 1_555
C5 C6 1_555 1_555
C6 C1 1_555 1_555
C7 C2 1_555 1_555
C8 C6 1_555 1_555
C9 C4 1_555 1_555
C10 C9 1_555 1_555
C11 C9 1_555 1_555
C12 C9 1_555 1_555
C13 O6 1_555 1_555
C14 C13 1_555 1_555
C15 C14 1_555 1_555
C16 C15 1_555 1_555
C17 C16 1_555 1_555
C18 C13 1_555 1_555
C19 O8 1_555 1_555
C20 C18 1_555 1_555
C21 C16 1_555 1_555
C22 C21 1_555 1_555
C23 C21 1_555 1_555
C24 C21 1_555 1_555
C25 O11 1_555 1_555
C26 C25 1_555 1_555
C27 C26 1_555 1_555
C28 C27 1_555 1_555
C29 C28 1_555 1_555
C30 C25 1_555 1_555
C31 O13 1_555 1_555
C32 C30 1_555 1_555
C33 C28 1_555 1_555
C34 C33 1_555 1_555
C35 C33 1_555 1_555
C36 C33 1_555 1_555
O18 H44 1_555 1_555
O19 H46 1_555 1_555
H1 O1 1_555 1_555
H2 C3 1_555 1_555
H3 O5 1_555 1_555
H4 C5 1_555 1_555
H5 C10 1_555 1_555
H6 C10 1_555 1_555
H7 C10 1_555 1_555
H8 C11 1_555 1_555
H9 C11 1_555 1_555
H10 C11 1_555 1_555
H11 C12 1_555 1_555
H12 C12 1_555 1_555
H13 C12 1_555 1_555
H14 O7 1_555 1_555
H15 C15 1_555 1_555
H16 O10 1_555 1_555
H17 C17 1_555 1_555
H18 C22 1_555 1_555
H19 C22 1_555 1_555
H20 C22 1_555 1_555
H21 C23 1_555 1_555
H22 C23 1_555 1_555
H23 C23 1_555 1_555
H24 C24 1_555 1_555
H25 C24 1_555 1_555
H26 C24 1_555 1_555
H27 O11 1_555 1_555
H28 O12 1_555 1_555
H29 C27 1_555 1_555
H30 C29 1_555 1_555
H31 C34 1_555 1_555
H32 C34 1_555 1_555
H33 C34 1_555 1_555
H34 C35 1_555 1_555
H35 C35 1_555 1_555
H36 C35 1_555 1_555
H37 C36 1_555 1_555
H38 C36 1_555 1_555
H39 C36 1_555 1_555
H40 O16 1_555 1_555
H41 O16 1_555 1_555
H42 O17 1_555 1_555
H43 O17 1_555 1_555
H45 O18 1_555 1_555
H47 O19 1_555 1_555
Tb1A O14 1_555 1_555
O14A Tb1 1_555 1_555
O15A Tb1 1_555 1_555
O15 Tb1A 1_555 1_555
C14 C19 1_555 1_555
C17 C18 1_555 1_555
C26 C31 1_555 1_555
C29 C30 1_555 1_555

#END
