
#######################################################################
#
#                 Cambridge Crystallographic Data Centre
#                                CCDC 
#
#######################################################################
#
# If this CIF has been generated from an entry in the Cambridge 
# Structural Database, then it will include bibliographic, chemical, 
# crystal, experimental, refinement or atomic coordinate data resulting 
# from the CCDC's data processing and validation procedures.
#
#######################################################################

data_EFISAO
_symmetry_cell_setting           monoclinic
_symmetry_space_group_name_H-M   'I 2/a'
_symmetry_Int_Tables_number      15
_space_group_name_Hall           '-I 2ya'
loop_
_symmetry_equiv_pos_site_id
_symmetry_equiv_pos_as_xyz
1 x,y,z
2 1/2+x,1/2+y,1/2+z
3 1/2-x,y,-z
4 -x,1/2+y,1/2-z
5 -x,-y,-z
6 1/2-x,1/2-y,1/2-z
7 1/2+x,-y,z
8 x,1/2-y,1/2+z
_cell_length_a                   15.925(4)
_cell_length_b                   9.367(2)
_cell_length_c                   24.765(6)
_cell_angle_alpha                90
_cell_angle_beta                 94.39(3)
_cell_angle_gamma                90
_cell_volume                     3683.34
loop_
_atom_site_label
_atom_site_type_symbol
_atom_site_fract_x
_atom_site_fract_y
_atom_site_fract_z
Cu1 Cu 0.80349(4) 0.05920(8) 0.27680(3)
Cu2 Cu 0.97992(4) 0.12790(7) 0.23651(3)
N1 N 0.9214(3) 0.1208(6) 0.3054(2)
N2 N 0.9538(3) 0.1102(5) 0.3507(2)
N3 N 0.9836(3) 0.1015(7) 0.3941(2)
N4 N 0.8645(3) 0.0615(5) 0.2093(2)
N5 N 0.8407(3) 0.0009(5) 0.1676(2)
N6 N 0.8167(4) -0.0554(6) 0.1283(2)
N7 N 0.8210(3) -0.1771(6) 0.2828(2)
N8 N 0.8667(3) -0.2374(5) 0.2559(2)
N9 N 0.9127(3) -0.3001(5) 0.2280(2)
N10 N 0.6944(3) 0.0919(6) 0.2356(2)
N11 N 0.6290(3) 0.1063(5) 0.2559(2)
N12 N 0.5636(3) 0.1204(5) 0.2730(2)
N13 N 1.0225(3) 0.1109(5) 0.1635(2)
C1 C 1.0367(4) 0.2287(7) 0.1339(3)
H1 H 1.0244 0.3175 0.1482
C2 C 1.0684(4) 0.2239(7) 0.0838(3)
H2 H 1.0774 0.3070 0.0646
C3 C 1.0866(4) 0.0895(7) 0.0629(3)
C4 C 1.0710(4) -0.0335(8) 0.0921(3)
H3 H 1.0815 -0.1236 0.0784
C5 C 1.0392(4) -0.0172(7) 0.1424(2)
H4 H 1.0289 -0.0986 0.1623
Br1 Br 1.12705(5) 0.07834(9) -0.00640(3)
N14 N 0.7542(3) 0.0683(6) 0.3483(2)
C6 C 0.7223(4) -0.0485(7) 0.3710(3)
H5 H 0.7302 -0.1367 0.3549
C7 C 0.6784(4) -0.0434(8) 0.4170(3)
H6 H 0.6571 -0.1258 0.4317
C8 C 0.6676(4) 0.0879(8) 0.4400(2)
C9 C 0.7000(4) 0.2103(7) 0.4180(3)
H7 H 0.6931 0.2993 0.4337
C10 C 0.7431(4) 0.1955(7) 0.3715(3)
H8 H 0.7649 0.2765 0.3560
Br2 Br 0.60647(4) 0.10354(8) 0.50226(3)
Cu2C Cu 1.02008(4) -0.37210(7) 0.26349(3)
Cu2E Cu 0.52008(4) 0.37210(7) 0.26349(3)
N9C N 1.0873(3) 0.1999(5) 0.2720(2)
N12E N 0.9364(3) 0.3796(5) 0.2270(2)
loop_
_geom_bond_atom_site_label_1
_geom_bond_atom_site_label_2
_geom_bond_site_symmetry_1
_geom_bond_site_symmetry_2
Cu1 N1 1_555 1_555
Cu2 N1 1_555 1_555
N1 N2 1_555 1_555
N2 N3 1_555 1_555
N4 Cu1 1_555 1_555
N5 N4 1_555 1_555
N6 N5 1_555 1_555
N7 Cu1 1_555 1_555
N8 N7 1_555 1_555
N9 N8 1_555 1_555
N10 Cu1 1_555 1_555
N11 N10 1_555 1_555
N12 N11 1_555 1_555
N13 Cu2 1_555 1_555
C1 N13 1_555 1_555
H1 C1 1_555 1_555
C2 C1 1_555 1_555
H2 C2 1_555 1_555
C3 C2 1_555 1_555
C4 C3 1_555 1_555
H3 C4 1_555 1_555
C5 N13 1_555 1_555
H4 C5 1_555 1_555
Br1 C3 1_555 1_555
N14 Cu1 1_555 1_555
C6 N14 1_555 1_555
H5 C6 1_555 1_555
C7 C6 1_555 1_555
H6 C7 1_555 1_555
C8 C7 1_555 1_555
C9 C8 1_555 1_555
H7 C9 1_555 1_555
C10 N14 1_555 1_555
H8 C10 1_555 1_555
Br2 C8 1_555 1_555
Cu2C N9 1_555 1_555
Cu2E N12 1_555 1_555
N9C Cu2 1_555 1_555
N12E Cu2 1_555 1_555
Cu2 N4 1_555 1_555
C4 C5 1_555 1_555
C9 C10 1_555 1_555

#END
