
#######################################################################
#
#                 Cambridge Crystallographic Data Centre
#                                CCDC 
#
#######################################################################
#
# If this CIF has been generated from an entry in the Cambridge 
# Structural Database, then it will include bibliographic, chemical, 
# crystal, experimental, refinement or atomic coordinate data resulting 
# from the CCDC's data processing and validation procedures.
#
#######################################################################

data_EFIWAT
_symmetry_cell_setting           triclinic
_symmetry_space_group_name_H-M   'P -1'
_symmetry_Int_Tables_number      2
_space_group_name_Hall           '-P 1'
loop_
_symmetry_equiv_pos_site_id
_symmetry_equiv_pos_as_xyz
1 x,y,z
2 -x,-y,-z
_cell_length_a                   10.6226(4)
_cell_length_b                   11.3403(4)
_cell_length_c                   13.0267(5)
_cell_angle_alpha                97.916(3)
_cell_angle_beta                 107.979(4)
_cell_angle_gamma                98.096(3)
_cell_volume                     1450.13
loop_
_atom_site_label
_atom_site_type_symbol
_atom_site_fract_x
_atom_site_fract_y
_atom_site_fract_z
Cu1 Cu 0.25362(11) 0.37539(10) 0.24505(9)
N1 N 0.0565(6) 0.3112(6) 0.2102(5)
N2 N 0.4424(6) 0.3776(6) 0.3507(5)
N3 N 0.3325(7) 0.5582(6) 0.2762(5)
N4 N 0.2172(6) 0.2644(6) 0.0937(5)
N5 N 0.3007(8) 0.6617(7) 0.2479(6)
N6 N 0.2752(7) 0.2226(6) 0.0211(6)
C1 C 0.4925(10) 0.2843(9) 0.3891(7)
H1 H 0.4346 0.2096 0.3736
C2 C 0.6244(10) 0.2941(9) 0.4499(8)
H2 H 0.6560 0.2272 0.4747
C3 C 0.7103(10) 0.4043(11) 0.4741(8)
H3 H 0.8012 0.4129 0.5144
C4 C 0.6593(9) 0.5019(9) 0.4378(7)
H4 H 0.7149 0.5780 0.4550
C5 C 0.5264(8) 0.4857(8) 0.3763(6)
C6 C 0.4649(9) 0.5832(8) 0.3331(7)
C7 C 0.5165(12) 0.7046(10) 0.3407(9)
H5 H 0.6056 0.7448 0.3754
C8 C 0.4122(12) 0.7526(9) 0.2880(9)
H6 H 0.4152 0.8331 0.2802
C9 C 0.1614(11) 0.6719(9) 0.1996(8)
H7 H 0.1600 0.7525 0.1827
H8 H 0.1179 0.6654 0.2545
C10 C 0.0782(9) 0.5810(7) 0.0971(6)
C11 C -0.0565(10) 0.5422(8) 0.0749(7)
H9 H -0.0959 0.5705 0.1257
C12 C 0.1357(9) 0.5370(8) 0.0197(7)
H10 H 0.2274 0.5616 0.0326
C13 C -0.0232(9) 0.3442(8) 0.2674(7)
H11 H 0.0166 0.3975 0.3347
C14 C -0.1577(11) 0.3039(11) 0.2321(9)
H12 H -0.2095 0.3309 0.2730
C15 C -0.2166(10) 0.2228(10) 0.1352(9)
H13 H -0.3087 0.1912 0.1106
C16 C -0.1376(9) 0.1881(9) 0.0742(8)
H14 H -0.1765 0.1339 0.0074
C17 C -0.0027(8) 0.2338(7) 0.1126(6)
C18 C 0.0866(8) 0.2060(7) 0.0503(6)
C19 C 0.0666(10) 0.1294(8) -0.0471(7)
H15 H -0.0134 0.0786 -0.0930
C20 C 0.1864(11) 0.1432(9) -0.0619(7)
H16 H 0.2043 0.1031 -0.1216
C21 C 0.4604(9) 0.3864(9) 0.0216(7)
C22 C 0.5515(10) 0.4745(9) 0.1030(7)
H17 H 0.5871 0.4581 0.1732
C23 C 0.4183(10) 0.2624(9) 0.0435(8)
H18 H 0.4482 0.2037 -0.0006
H19 H 0.4652 0.2618 0.1201
C24 C 0.4086(10) 0.4133(9) -0.0827(7)
H20 H 0.3463 0.3544 -0.1392
N1A N 0.9435(6) 0.6888(6) -0.2102(5)
N4A N 0.7828(6) 0.7356(6) -0.0937(5)
N6A N 0.7248(7) 0.7774(6) -0.0211(6)
C13A C 1.0232(9) 0.6558(8) -0.2674(7)
H11A H 0.9834 0.6025 -0.3347
C14A C 1.1577(11) 0.6961(11) -0.2321(9)
H12A H 1.2095 0.6691 -0.2730
C15A C 1.2166(10) 0.7772(10) -0.1352(9)
H13A H 1.3087 0.8088 -0.1106
C16A C 1.1376(9) 0.8119(9) -0.0742(8)
H14A H 1.1765 0.8661 -0.0074
C17A C 1.0027(8) 0.7662(7) -0.1126(6)
C18A C 0.9134(8) 0.7940(7) -0.0503(6)
C19A C 0.9334(10) 0.8706(8) 0.0471(7)
H15A H 1.0134 0.9214 0.0930
C20A C 0.8136(11) 0.8568(9) 0.0619(7)
H16A H 0.7957 0.8969 0.1216
C21A C 0.5396(9) 0.6136(9) -0.0216(7)
C22A C 0.4485(10) 0.5255(9) -0.1030(7)
H17A H 0.4129 0.5419 -0.1732
C23A C 0.5817(10) 0.7376(9) -0.0435(8)
H18A H 0.5518 0.7963 0.0006
H19A H 0.5348 0.7382 -0.1201
C24A C 0.5914(10) 0.5867(9) 0.0827(7)
H20A H 0.6537 0.6456 0.1392
N2A N -0.4424(6) 0.6224(6) -0.3507(5)
N3A N -0.3325(7) 0.4418(6) -0.2762(5)
N5A N -0.3007(8) 0.3383(7) -0.2479(6)
C1A C -0.4925(10) 0.7157(9) -0.3891(7)
H1A H -0.4346 0.7904 -0.3736
C2A C -0.6244(10) 0.7059(9) -0.4499(8)
H2A H -0.6560 0.7728 -0.4747
C3A C -0.7103(10) 0.5957(11) -0.4741(8)
H3A H -0.8012 0.5871 -0.5144
C4A C -0.6593(9) 0.4981(9) -0.4378(7)
H4A H -0.7149 0.4220 -0.4550
C5A C -0.5264(8) 0.5143(8) -0.3763(6)
C6A C -0.4649(9) 0.4168(8) -0.3331(7)
C7A C -0.5165(12) 0.2954(10) -0.3407(9)
H5A H -0.6056 0.2552 -0.3754
C8A C -0.4122(12) 0.2474(9) -0.2880(9)
H6A H -0.4152 0.1669 -0.2802
C9A C -0.1614(11) 0.3281(9) -0.1996(8)
H7A H -0.1600 0.2475 -0.1827
H8A H -0.1179 0.3346 -0.2545
C10A C -0.0782(9) 0.4190(7) -0.0971(6)
C11A C 0.0565(10) 0.4578(8) -0.0749(7)
H9A H 0.0959 0.4295 -0.1257
C12A C -0.1357(9) 0.4630(8) -0.0197(7)
H10A H -0.2274 0.4384 -0.0326
Cu1A Cu -0.25362(11) 0.62461(10) -0.24505(9)
Cu1A_2 Cu 0.74638(11) 0.62461(10) -0.24505(9)
N1A_2 N -0.0565(6) 0.6888(6) -0.2102(5)
N4A_2 N -0.2172(6) 0.7356(6) -0.0937(5)
W1 W -0.12334(3) -0.03784(3) 0.61627(3)
W2 W 0.03829(3) 0.20680(3) 0.56826(3)
W3 W 0.19571(3) -0.01466(3) 0.63550(3)
O1 O 0.0643(7) 0.3590(5) 0.6174(6)
O2 O -0.2118(6) -0.0625(6) 0.7023(5)
O3 O -0.0676(6) 0.1350(5) 0.6473(5)
O4 O -0.2554(5) -0.0188(5) 0.4837(4)
O5 O 0.3385(6) -0.0249(7) 0.7355(5)
O6 O 0.0544(6) -0.0407(5) 0.7006(4)
O7 O 0.1863(5) 0.1540(5) 0.6650(4)
O8 O 0.1327(6) 0.1964(5) 0.4633(4)
O9 O 0.0000 0.0000 0.5000
O10 O -0.1252(5) 0.1780(5) 0.4450(5)
W1A W 0.12334(3) 0.03784(3) 0.38373(3)
W2A W -0.03829(3) -0.20680(3) 0.43174(3)
W3A W -0.19571(3) 0.01466(3) 0.36450(3)
O1A O -0.0643(7) -0.3590(5) 0.3826(6)
O2A O 0.2118(6) 0.0625(6) 0.2977(5)
O3A O 0.0676(6) -0.1350(5) 0.3527(5)
O4A O 0.2554(5) 0.0188(5) 0.5163(4)
O5A O -0.3385(6) 0.0249(7) 0.2645(5)
O6A O -0.0544(6) 0.0407(5) 0.2994(4)
O7A O -0.1863(5) -0.1540(5) 0.3350(4)
O8A O -0.1327(6) -0.1964(5) 0.5367(4)
O10A O 0.1252(5) -0.1780(5) 0.5550(5)
O11 O 0.6278(11) -0.0037(11) 0.8496(9)
loop_
_geom_bond_atom_site_label_1
_geom_bond_atom_site_label_2
_geom_bond_site_symmetry_1
_geom_bond_site_symmetry_2
Cu1 N1 1_555 1_555
N1 C13 1_555 1_555
N2 Cu1 1_555 1_555
N3 Cu1 1_555 1_555
N4 Cu1 1_555 1_555
N5 N3 1_555 1_555
N6 N4 1_555 1_555
C1 N2 1_555 1_555
H1 C1 1_555 1_555
C2 C1 1_555 1_555
H2 C2 1_555 1_555
C3 C2 1_555 1_555
H3 C3 1_555 1_555
C4 C3 1_555 1_555
H4 C4 1_555 1_555
C5 N2 1_555 1_555
C6 N3 1_555 1_555
C7 C6 1_555 1_555
H5 C7 1_555 1_555
C8 N5 1_555 1_555
H6 C8 1_555 1_555
C9 N5 1_555 1_555
H7 C9 1_555 1_555
H8 C9 1_555 1_555
C10 C9 1_555 1_555
C11 C10 1_555 1_555
H9 C11 1_555 1_555
C12 C10 1_555 1_555
H10 C12 1_555 1_555
C13 H11 1_555 1_555
C14 C13 1_555 1_555
H12 C14 1_555 1_555
C15 C14 1_555 1_555
H13 C15 1_555 1_555
C16 C15 1_555 1_555
H14 C16 1_555 1_555
C17 N1 1_555 1_555
C18 N4 1_555 1_555
C19 C18 1_555 1_555
H15 C19 1_555 1_555
C20 N6 1_555 1_555
H16 C20 1_555 1_555
C21 C22 1_555 1_555
C22 H17 1_555 1_555
C23 N6 1_555 1_555
H18 C23 1_555 1_555
H19 C23 1_555 1_555
C24 C21 1_555 1_555
H20 C24 1_555 1_555
W1 O2 1_555 1_555
W2 O1 1_555 1_555
W3 O5 1_555 1_555
O3 W1 1_555 1_555
O4 W1 1_555 1_555
O6 W1 1_555 1_555
O7 W2 1_555 1_555
O8 W2 1_555 1_555
O9 W1 1_555 1_555
O10 W2 1_555 1_555
N1A C13A 1_555 1_555
N4A N6A 1_555 1_555
N6A C20A 1_555 1_555
C13A H11A 1_555 1_555
C14A C13A 1_555 1_555
H12A C14A 1_555 1_555
C15A C14A 1_555 1_555
H13A C15A 1_555 1_555
C16A C15A 1_555 1_555
H14A C16A 1_555 1_555
C17A N1A 1_555 1_555
C18A N4A 1_555 1_555
C19A C18A 1_555 1_555
H15A C19A 1_555 1_555
C20A C19A 1_555 1_555
H16A C20A 1_555 1_555
C21A C22A 1_555 1_555
C22A C24 1_555 1_555
H17A C22A 1_555 1_555
C23A N6A 1_555 1_555
H18A C23A 1_555 1_555
H19A C23A 1_555 1_555
C24A C22 1_555 1_555
H20A C24A 1_555 1_555
N2A C1A 1_555 1_555
N3A N5A 1_555 1_555
N5A C8A 1_555 1_555
C1A H1A 1_555 1_555
C2A C1A 1_555 1_555
H2A C2A 1_555 1_555
C3A C2A 1_555 1_555
H3A C3A 1_555 1_555
C4A C3A 1_555 1_555
H4A C4A 1_555 1_555
C5A N2A 1_555 1_555
C6A N3A 1_555 1_555
C7A C6A 1_555 1_555
H5A C7A 1_555 1_555
C8A C7A 1_555 1_555
H6A C8A 1_555 1_555
C9A N5A 1_555 1_555
H7A C9A 1_555 1_555
H8A C9A 1_555 1_555
C10A C9A 1_555 1_555
C11A C12 1_555 1_555
H9A C11A 1_555 1_555
C12A C11 1_555 1_555
H10A C12A 1_555 1_555
Cu1A N2A 1_555 1_555
Cu1A_2 N1A 1_555 1_555
N1A_2 Cu1A 1_555 1_555
N4A_2 Cu1A 1_555 1_555
W1A O8 1_555 1_555
W2A O9 1_555 1_555
W3A O4 1_555 1_555
O1A W2A 1_555 1_555
O2A W1A 1_555 1_555
O3A W1A 1_555 1_555
O4A W3 1_555 1_555
O5A W3A 1_555 1_555
O6A W1A 1_555 1_555
O7A W2A 1_555 1_555
O8A W1 1_555 1_555
O10A W3 1_555 1_555
C4 C5 1_555 1_555
C5 C6 1_555 1_555
C7 C8 1_555 1_555
C16 C17 1_555 1_555
C17 C18 1_555 1_555
C19 C20 1_555 1_555
C21 C23 1_555 1_555
W2 O3 1_555 1_555
W2 O9 1_555 1_555
W3 O6 1_555 1_555
W3 O7 1_555 1_555
W3 O9 1_555 1_555
O9 W1A 1_555 1_555
O9 W3A 1_555 1_555
O10 W3A 1_555 1_555
N4A Cu1A_2 1_555 1_555
C16A C17A 1_555 1_555
C17A C18A 1_555 1_555
C21A C23A 1_555 1_555
C21A C24A 1_555 1_555
N3A Cu1A 1_555 1_555
C4A C5A 1_555 1_555
C5A C6A 1_555 1_555
C10A C11A 1_555 1_555
C10A C12A 1_555 1_555
W1A O4A 1_555 1_555
W2A O3A 1_555 1_555
W2A O8A 1_555 1_555
W2A O10A 1_555 1_555
W3A O6A 1_555 1_555
W3A O7A 1_555 1_555

#END
