
#######################################################################
#
#                 Cambridge Crystallographic Data Centre
#                                CCDC 
#
#######################################################################
#
# If this CIF has been generated from an entry in the Cambridge 
# Structural Database, then it will include bibliographic, chemical, 
# crystal, experimental, refinement or atomic coordinate data resulting 
# from the CCDC's data processing and validation procedures.
#
#######################################################################

data_EFIXUO
_symmetry_cell_setting           triclinic
_symmetry_space_group_name_H-M   'P -1'
_symmetry_Int_Tables_number      2
_space_group_name_Hall           '-P 1'
loop_
_symmetry_equiv_pos_site_id
_symmetry_equiv_pos_as_xyz
1 x,y,z
2 -x,-y,-z
_cell_length_a                   10.3024(10)
_cell_length_b                   11.9362(11)
_cell_length_c                   13.6767(13)
_cell_angle_alpha                84.1570(10)
_cell_angle_beta                 85.3840(9)
_cell_angle_gamma                83.8400(10)
_cell_volume                     1659.33
loop_
_atom_site_label
_atom_site_type_symbol
_atom_site_fract_x
_atom_site_fract_y
_atom_site_fract_z
Zn1 Zn 0.47271(4) 0.37736(3) 0.51258(3)
Zn2 Zn 0.04786(4) 0.34196(4) 1.02319(4)
O1 O 0.6664(3) 0.3407(2) 0.4689(2)
C1 C 0.1872(4) 0.5326(3) 0.9350(3)
C2 C 0.3289(3) 0.1802(3) 0.6016(3)
C3 C 0.8847(3) 0.3898(3) 0.4290(3)
H1 H 0.9258 0.3976 0.4898
O2 O 0.1157(3) 0.4587(2) 0.9197(2)
O3 O 0.5305(3) 0.3910(2) 0.6499(2)
N1 N 0.0787(3) 0.2033(2) 0.9471(2)
N2 N 0.2847(3) 0.0813(2) 0.5852(2)
N3 N 0.0421(3) 0.0773(3) 0.8462(2)
N4 N 0.3988(3) 0.2245(2) 0.5247(2)
C4 C 0.7375(4) 0.4206(3) 0.4495(3)
C5 C 0.3342(3) 0.5132(3) 0.9120(3)
H2 H 0.3750 0.5125 0.9744
O4 O 0.1436(3) 0.6253(2) 0.9668(2)
C6 C 0.5818(3) 0.4787(3) 0.7896(3)
H3 H 0.6770 0.4677 0.7931
C7 C 0.3316(3) 0.0589(3) 0.4895(3)
C8 C 0.4027(3) 0.1489(3) 0.4526(3)
C9 C 0.5554(3) 0.4807(3) 0.6815(3)
C10 C 0.3867(4) 0.6098(3) 0.8424(3)
H4 H 0.3508 0.6120 0.7787
H5 H 0.3594 0.6816 0.8691
C11 C 0.1570(4) 0.1037(3) 0.9712(3)
C12 C 0.5255(4) 0.3803(3) 0.8544(3)
H6 H 0.5483 0.3109 0.8230
H7 H 0.5645 0.3711 0.9173
C13 C 0.5346(4) 0.5925(3) 0.8302(3)
H8 H 0.5702 0.5948 0.8934
H9 H 0.5666 0.6535 0.7855
C14 C 0.9443(4) 0.4712(3) 0.3492(3)
H10 H 0.9257 0.5479 0.3677
H11 H 0.9045 0.4673 0.2879
C15 C -0.0094(4) 0.0286(3) 0.7646(3)
H12 H -0.1018 0.0541 0.7620
H13 H -0.0010 -0.0532 0.7772
C16 C 0.0122(4) 0.1842(3) 0.8728(3)
C17 C 0.3778(4) 0.3999(3) 0.8718(3)
H14 H 0.3472 0.3396 0.9181
H15 H 0.3381 0.3973 0.8102
C18 C 0.0614(4) 0.0614(3) 0.6651(3)
H16 H 0.0570 0.1433 0.6546
H17 H 0.0157 0.0355 0.6137
C19 C 0.2046(4) 0.0132(3) 0.6552(3)
H18 H 0.2402 0.0074 0.7193
H19 H 0.2093 -0.0625 0.6345
C20 C 1.0922(4) 0.4432(3) 0.3337(3)
H20 H 1.1327 0.4545 0.3931
H21 H 1.1261 0.4947 0.2806
C21 C 0.3203(4) -0.0312(3) 0.4347(3)
H22 H 0.2742 -0.0919 0.4598
C22 C 1.0669(4) 0.2397(3) 0.3873(3)
H23 H 1.0839 0.1633 0.3678
H24 H 1.1075 0.2417 0.4486
C23 C 0.2471(4) 0.0784(4) 1.0415(3)
H25 H 0.2632 0.1316 1.0832
C24 C 0.9204(4) 0.2681(3) 0.4046(3)
H26 H 0.8874 0.2171 0.4585
H27 H 0.8783 0.2563 0.3461
C25 C 0.1342(4) 0.0235(3) 0.9089(3)
C26 C 0.1969(4) -0.0853(3) 0.9159(3)
H28 H 0.1791 -0.1393 0.8758
C27 C 0.4657(4) 0.1518(3) 0.3589(3)
H29 H 0.5154 0.2103 0.3342
C28 C 0.4508(4) 0.0640(4) 0.3046(3)
H30 H 0.4893 0.0650 0.2407
C29 C 0.3025(4) 0.2307(3) 0.6963(3)
H31 H 0.3763 0.2683 0.7092
H32 H 0.2877 0.1722 0.7484
H33 H 0.2263 0.2844 0.6929
C30 C 0.3816(5) -0.0253(4) 0.3409(3)
H34 H 0.3758 -0.0832 0.3013
C31 C 0.2867(5) -0.1085(4) 0.9857(3)
H35 H 0.3324 -0.1801 0.9919
C32 C 0.3123(5) -0.0291(4) 1.0476(3)
H36 H 0.3743 -0.0487 1.0937
C33 C -0.0822(5) 0.2696(4) 0.8222(3)
H37 H -0.0696 0.3437 0.8388
H38 H -0.1700 0.2532 0.8430
H39 H -0.0679 0.2669 0.7522
C34 C 1.1291(4) 0.3208(3) 0.3084(3)
H40 H 1.2243 0.3052 0.3106
C35 C 1.0957(4) 0.3069(4) 0.2045(3)
O5 O 1.0226(4) 0.2372(3) 0.1876(2)
O6 O 1.1457(3) 0.3706(3) 0.1346(2)
O7 O 0.6987(2) 0.5237(2) 0.4469(2)
O8 O 0.5621(3) 0.5736(2) 0.6300(2)
Zn1A Zn 0.52729(4) 0.62264(3) 0.48742(3)
Zn2_2 Zn 1.04786(4) 0.34196(4) 0.02319(4)
Zn2A Zn -0.04786(4) 0.65804(4) 0.97681(4)
O4A O -0.1436(3) 0.3747(2) 1.0332(2)
O5_2 O 0.0226(4) 0.2372(3) 1.1876(2)
O6_2 O 0.1457(3) 0.3706(3) 1.1346(2)
O7A O 0.3013(2) 0.4763(2) 0.5531(2)
O8A O 0.4379(3) 0.4264(2) 0.3700(2)
O9 O 0.771(2) 0.2481(15) 0.6535(15)
loop_
_geom_bond_atom_site_label_1
_geom_bond_atom_site_label_2
_geom_bond_site_symmetry_1
_geom_bond_site_symmetry_2
Zn1 O1 1_555 1_555
Zn2 O2 1_555 1_555
O1 C4 1_555 1_555
C1 O2 1_555 1_555
C2 N2 1_555 1_555
C3 H1 1_555 1_555
O3 Zn1 1_555 1_555
N1 Zn2 1_555 1_555
N2 C7 1_555 1_555
N3 C15 1_555 1_555
N4 Zn1 1_555 1_555
C4 C3 1_555 1_555
C5 C1 1_555 1_555
H2 C5 1_555 1_555
O4 C1 1_555 1_555
C6 H3 1_555 1_555
C7 C8 1_555 1_555
C8 N4 1_555 1_555
C9 O3 1_555 1_555
C10 C5 1_555 1_555
H4 C10 1_555 1_555
H5 C10 1_555 1_555
C11 N1 1_555 1_555
C12 C6 1_555 1_555
H6 C12 1_555 1_555
H7 C12 1_555 1_555
C13 C6 1_555 1_555
H8 C13 1_555 1_555
H9 C13 1_555 1_555
C14 C3 1_555 1_555
H10 C14 1_555 1_555
H11 C14 1_555 1_555
C15 H12 1_555 1_555
H13 C15 1_555 1_555
C16 N1 1_555 1_555
C17 C5 1_555 1_555
H14 C17 1_555 1_555
H15 C17 1_555 1_555
C18 C15 1_555 1_555
H16 C18 1_555 1_555
H17 C18 1_555 1_555
C19 N2 1_555 1_555
H18 C19 1_555 1_555
H19 C19 1_555 1_555
C20 C14 1_555 1_555
H20 C20 1_555 1_555
H21 C20 1_555 1_555
C21 C7 1_555 1_555
H22 C21 1_555 1_555
C22 H23 1_555 1_555
H24 C22 1_555 1_555
C23 C11 1_555 1_555
H25 C23 1_555 1_555
C24 C3 1_555 1_555
H26 C24 1_555 1_555
H27 C24 1_555 1_555
C25 N3 1_555 1_555
C26 C25 1_555 1_555
H28 C26 1_555 1_555
C27 C8 1_555 1_555
H29 C27 1_555 1_555
C28 C27 1_555 1_555
H30 C28 1_555 1_555
C29 C2 1_555 1_555
H31 C29 1_555 1_555
H32 C29 1_555 1_555
H33 C29 1_555 1_555
C30 C21 1_555 1_555
H34 C30 1_555 1_555
C31 C26 1_555 1_555
H35 C31 1_555 1_555
C32 C23 1_555 1_555
H36 C32 1_555 1_555
C33 C16 1_555 1_555
H37 C33 1_555 1_555
H38 C33 1_555 1_555
H39 C33 1_555 1_555
C34 C20 1_555 1_555
H40 C34 1_555 1_555
C35 C34 1_555 1_555
O5 C35 1_555 1_555
O6 C35 1_555 1_555
O7 C4 1_555 1_555
O8 C9 1_555 1_555
Zn1A O7 1_555 1_555
Zn2_2 O5 1_555 1_555
Zn2A O4 1_555 1_555
O4A Zn2 1_555 1_555
O5_2 Zn2 1_555 1_555
O6_2 Zn2 1_555 1_555
O7A Zn1 1_555 1_555
O8A Zn1 1_555 1_555
C2 N4 1_555 1_555
N3 C16 1_555 1_555
C6 C9 1_555 1_555
C10 C13 1_555 1_555
C11 C25 1_555 1_555
C12 C17 1_555 1_555
C18 C19 1_555 1_555
C22 C24 1_555 1_555
C22 C34 1_555 1_555
C28 C30 1_555 1_555
C31 C32 1_555 1_555
O6 Zn2_2 1_555 1_555
O8 Zn1A 1_555 1_555

#END
