
#######################################################################
#
#                 Cambridge Crystallographic Data Centre
#                                CCDC 
#
#######################################################################
#
# If this CIF has been generated from an entry in the Cambridge 
# Structural Database, then it will include bibliographic, chemical, 
# crystal, experimental, refinement or atomic coordinate data resulting 
# from the CCDC's data processing and validation procedures.
#
#######################################################################

data_EFIYID
_symmetry_cell_setting           monoclinic
_symmetry_space_group_name_H-M   'P 21/c'
_symmetry_Int_Tables_number      14
_space_group_name_Hall           '-P 2ybc'
loop_
_symmetry_equiv_pos_site_id
_symmetry_equiv_pos_as_xyz
1 x,y,z
2 -x,1/2+y,1/2-z
3 -x,-y,-z
4 x,1/2-y,1/2+z
_cell_length_a                   11.740(2)
_cell_length_b                   12.119(2)
_cell_length_c                   16.316(3)
_cell_angle_alpha                90
_cell_angle_beta                 91.56(3)
_cell_angle_gamma                90
_cell_volume                     2320.53
loop_
_atom_site_label
_atom_site_type_symbol
_atom_site_fract_x
_atom_site_fract_y
_atom_site_fract_z
Dy1 Dy 0.37807(2) 0.878877(19) -0.006537(16)
C1 C 0.7791(6) 0.6886(5) -0.0531(4)
C2 C 0.7461(5) 0.7752(5) -0.0017(4)
C3 C 0.8203(6) 0.8093(6) 0.0621(4)
H1 H 0.7990 0.8674 0.0956
C4 C 0.9250(7) 0.7586(6) 0.0764(6)
H2 H 0.9727 0.7810 0.1197
C5 C 0.9565(7) 0.6749(8) 0.0255(6)
H3 H 1.0270 0.6410 0.0335
C6 C 0.8858(7) 0.6410(7) -0.0365(6)
H4 H 0.9093 0.5833 -0.0696
C7 C 0.6312(5) 0.8294(5) -0.0067(3)
C8 C 0.7087(5) 0.6502(5) -0.1240(4)
C9 C 0.6499(6) 0.7214(5) -0.1764(4)
H5 H 0.6507 0.7966 -0.1653
C10 C 0.5903(6) 0.6834(5) -0.2446(4)
H6 H 0.5493 0.7330 -0.2773
C11 C 0.5903(5) 0.5724(5) -0.2652(4)
C12 C 0.6491(7) 0.5003(5) -0.2119(4)
H7 H 0.6502 0.4252 -0.2238
C13 C 0.7053(7) 0.5383(6) -0.1424(4)
H8 H 0.7416 0.4883 -0.1072
C14 C 0.5356(6) 0.5329(5) -0.3420(4)
C15 C 0.1440(11) 0.8859(9) -0.1226(9)
H9 H 0.1788 0.8292 -0.1511
C16 C 0.3711(9) 0.6299(6) -0.0912(7)
H10 H 0.4377 0.6170 -0.0606
C17 C 0.3742(13) 0.4407(8) -0.1305(11)
H11 H 0.4379 0.4359 -0.0925
H12 H 0.3985 0.4227 -0.1846
H13 H 0.3161 0.3898 -0.1146
N1 N 0.2420(6) 0.7789(8) 0.1180(5)
N2 N 0.3307(7) 0.5478(5) -0.1301(5)
O1 O 0.5455(3) 0.7706(3) -0.0083(3)
O2 O 0.6281(4) 0.9323(4) -0.0060(3)
O3 O 0.4635(4) 0.5958(4) -0.3775(3)
O4 O 0.5640(4) 0.4379(4) -0.3679(3)
O5 O 0.3343(4) 0.7230(4) -0.0888(3)
O6 O 0.1994(5) 0.9131(5) -0.0719(4)
O7 O 0.3134(7) 0.7269(5) 0.0820(4)
O8 O 0.2279(6) 0.8789(6) 0.0982(5)
O9 O 0.1870(6) 0.7400(7) 0.1743(5)
N3 N 0.0457(6) 0.9076(7) -0.1556(5)
C18 C -0.0353(11) 0.9525(15) -0.1061(11)
H14 H 0.0015 0.9961 -0.0640
H15 H -0.0780 0.8943 -0.0814
H16 H -0.0858 0.9983 -0.1384
C19 C -0.015(2) 0.857(2) -0.2165(18)
H17 H 0.0359 0.8229 -0.2537
H18 H -0.0609 0.9111 -0.2455
H19 H -0.0638 0.8024 -0.1935
C20 C 0.245(3) 0.5594(18) -0.1844(18)
H20 H 0.2184 0.6344 -0.1839
H21 H 0.1835 0.5111 -0.1701
H22 H 0.2701 0.5412 -0.2381
Dy1A Dy 0.62193(2) 0.378877(19) -0.493463(16)
Dy1B Dy 0.62193(2) 1.121123(19) 0.006537(16)
Dy1C Dy 0.37807(2) 0.621123(19) -0.506537(16)
O2B O 0.3719(4) 1.0677(4) 0.0060(3)
O3C O 0.4635(4) 0.9042(4) 0.1225(3)
O4A O 0.4360(4) 0.9379(4) -0.1321(3)
loop_
_geom_bond_atom_site_label_1
_geom_bond_atom_site_label_2
_geom_bond_site_symmetry_1
_geom_bond_site_symmetry_2
Dy1 O1 1_555 1_555
C1 C2 1_555 1_555
C2 C3 1_555 1_555
C3 H1 1_555 1_555
C4 C3 1_555 1_555
H2 C4 1_555 1_555
C5 C4 1_555 1_555
H3 C5 1_555 1_555
C6 C1 1_555 1_555
H4 C6 1_555 1_555
C7 C2 1_555 1_555
C8 C1 1_555 1_555
C9 C8 1_555 1_555
H5 C9 1_555 1_555
C10 C9 1_555 1_555
H6 C10 1_555 1_555
C11 C10 1_555 1_555
C12 C11 1_555 1_555
H7 C12 1_555 1_555
C13 C8 1_555 1_555
H8 C13 1_555 1_555
C14 C11 1_555 1_555
C15 H9 1_555 1_555
C16 H10 1_555 1_555
C17 H11 1_555 1_555
H12 C17 1_555 1_555
H13 C17 1_555 1_555
N1 O7 1_555 1_555
N2 C16 1_555 1_555
O1 C7 1_555 1_555
O2 C7 1_555 1_555
O3 C14 1_555 1_555
O4 C14 1_555 1_555
O5 Dy1 1_555 1_555
O6 Dy1 1_555 1_555
O7 Dy1 1_555 1_555
O8 Dy1 1_555 1_555
O9 N1 1_555 1_555
N3 C15 1_555 1_555
C18 N3 1_555 1_555
H14 C18 1_555 1_555
H15 C18 1_555 1_555
H16 C18 1_555 1_555
C19 N3 1_555 1_555
H17 C19 1_555 1_555
H18 C19 1_555 1_555
H19 C19 1_555 1_555
C20 N2 1_555 1_555
H20 C20 1_555 1_555
H21 C20 1_555 1_555
H22 C20 1_555 1_555
Dy1A O4 1_555 1_555
Dy1B O2 1_555 1_555
Dy1C O3 1_555 1_555
O2B Dy1 1_555 1_555
O3C Dy1 1_555 1_555
O4A Dy1 1_555 1_555
C5 C6 1_555 1_555
C12 C13 1_555 1_555
C15 O6 1_555 1_555
C16 O5 1_555 1_555
C17 N2 1_555 1_555
N1 O8 1_555 1_555

#END
