
#######################################################################
#
#                 Cambridge Crystallographic Data Centre
#                                CCDC 
#
#######################################################################
#
# If this CIF has been generated from an entry in the Cambridge 
# Structural Database, then it will include bibliographic, chemical, 
# crystal, experimental, refinement or atomic coordinate data resulting 
# from the CCDC's data processing and validation procedures.
#
#######################################################################

data_EFIYEZ
_symmetry_cell_setting           monoclinic
_symmetry_space_group_name_H-M   'C 2/c'
_symmetry_Int_Tables_number      15
_space_group_name_Hall           '-C 2yn'
loop_
_symmetry_equiv_pos_site_id
_symmetry_equiv_pos_as_xyz
1 x,y,z
2 -x,y,1/2-z
3 1/2+x,1/2+y,z
4 1/2-x,1/2+y,1/2-z
5 -x,-y,-z
6 x,-y,1/2+z
7 1/2-x,1/2-y,-z
8 1/2+x,1/2-y,1/2+z
_cell_length_a                   19.048(4)
_cell_length_b                   15.298(3)
_cell_length_c                   18.840(4)
_cell_angle_alpha                90
_cell_angle_beta                 116.93(3)
_cell_angle_gamma                90
_cell_volume                     4894.58
loop_
_atom_site_label
_atom_site_type_symbol
_atom_site_fract_x
_atom_site_fract_y
_atom_site_fract_z
Dy1 Dy 0.218896(12) 0.620200(13) 0.013243(12)
O1 O -0.2534(3) 0.5972(3) -0.4022(2)
O2 O -0.2769(2) 0.7309(2) -0.44652(19)
O3 O 0.1029(2) 0.6806(3) -0.1015(2)
O4 O 0.0822(2) 0.6190(3) -0.0070(2)
O5 O 0.1667(2) 0.4723(2) -0.0342(3)
O6 O 0.2928(2) 0.4828(3) 0.0496(3)
O7 O 0.2233(3) 0.5950(3) 0.1401(2)
O8 O 0.3559(2) 0.6476(3) 0.1021(2)
H1 H 0.3844 0.6136 0.0904
H2 H 0.3669 0.7004 0.0969
N1 N 0.1830(4) 0.5733(4) 0.2351(3)
C1 C -0.2819(3) 0.6863(4) -0.2669(3)
C2 C -0.3200(3) 0.6890(3) -0.3497(3)
C3 C -0.3998(3) 0.7034(5) -0.3901(4)
H3 H -0.4245 0.7073 -0.4453
C4 C -0.4437(4) 0.7123(6) -0.3476(4)
H4 H -0.4980 0.7198 -0.3746
C5 C -0.4057(4) 0.7100(7) -0.2653(5)
H5 H -0.4343 0.7172 -0.2367
C6 C -0.3263(4) 0.6973(6) -0.2260(4)
H6 H -0.3014 0.6958 -0.1706
C7 C -0.1949(3) 0.6773(4) -0.2192(3)
C8 C -0.1425(3) 0.7222(4) -0.2388(3)
H7 H -0.1621 0.7577 -0.2838
C9 C -0.0627(3) 0.7154(4) -0.1932(3)
H8 H -0.0292 0.7456 -0.2081
C10 C -0.0832(4) 0.6193(4) -0.1027(4)
H9 H -0.0637 0.5849 -0.0571
C11 C -0.1634(3) 0.6270(4) -0.1493(4)
H10 H -0.1974 0.5982 -0.1340
C12 C -0.2794(3) 0.6710(3) -0.4009(3)
C13 C 0.0557(3) 0.6537(3) -0.0749(3)
C14 C 0.2425(3) 0.3401(3) 0.0015(3)
C15 C 0.1760(3) 0.2864(3) -0.0311(3)
H11 H 0.1259 0.3109 -0.0516
C16 C 0.3153(3) 0.3032(3) 0.0327(3)
H12 H 0.3597 0.3387 0.0554
C17 C 0.2329(3) 0.4375(3) 0.0048(3)
C18 C 0.2616(6) 0.5737(6) 0.2992(4)
H13 H 0.2981 0.5886 0.2789
H14 H 0.2741 0.5168 0.3232
H15 H 0.2652 0.6160 0.3383
C19 C 0.1185(6) 0.5520(7) 0.2536(6)
H16 H 0.0696 0.5540 0.2057
H17 H 0.1173 0.5936 0.2911
H18 H 0.1262 0.4944 0.2760
C20 C 0.1697(4) 0.5847(4) 0.1607(4)
H19 H 0.1177 0.5851 0.1213
C21 C -0.0308(3) 0.6635(4) -0.1243(3)
O5F O 0.3333(2) 0.0277(2) 0.0342(3)
O6F O 0.2072(2) 0.0172(3) -0.0496(3)
C14F C 0.2575(3) 0.1599(3) -0.0015(3)
C15F C 0.3240(3) 0.2136(3) 0.0311(3)
H11F H 0.3741 0.1891 0.0516
C16F C 0.1847(3) 0.1968(3) -0.0327(3)
H12F H 0.1403 0.1613 -0.0554
C17F C 0.2671(3) 0.0625(3) -0.0048(3)
Dy1A Dy -0.218896(12) 0.620200(13) -0.513243(12)
O1A O 0.2534(3) 0.5972(3) -0.0978(2)
O2A O 0.2769(2) 0.7309(2) -0.05348(19)
O3A O -0.1029(2) 0.6806(3) -0.3985(2)
O4A O -0.0822(2) 0.6190(3) -0.4930(2)
O7A O -0.2233(3) 0.5950(3) -0.6401(2)
O8A O -0.3559(2) 0.6476(3) -0.6021(2)
H1A H -0.3844 0.6136 -0.5904
H2A H -0.3669 0.7004 -0.5969
N1A N -0.1830(4) 0.5733(4) -0.7351(3)
C1A C 0.2819(3) 0.6863(4) -0.2331(3)
C2A C 0.3200(3) 0.6890(3) -0.1503(3)
C3A C 0.3998(3) 0.7034(5) -0.1099(4)
H3A H 0.4245 0.7073 -0.0547
C4A C 0.4437(4) 0.7123(6) -0.1524(4)
H4A H 0.4980 0.7198 -0.1254
C5A C 0.4057(4) 0.7100(7) -0.2347(5)
H5A H 0.4343 0.7172 -0.2633
C6A C 0.3263(4) 0.6973(6) -0.2740(4)
H6A H 0.3014 0.6958 -0.3294
C7A C 0.1949(3) 0.6773(4) -0.2808(3)
C8A C 0.1425(3) 0.7222(4) -0.2612(3)
H7A H 0.1621 0.7577 -0.2162
C9A C 0.0627(3) 0.7154(4) -0.3068(3)
H8A H 0.0292 0.7456 -0.2919
C10A C 0.0832(4) 0.6193(4) -0.3973(4)
H9A H 0.0637 0.5849 -0.4429
C11A C 0.1634(3) 0.6270(4) -0.3507(4)
H10A H 0.1974 0.5982 -0.3660
C12A C 0.2794(3) 0.6710(3) -0.0991(3)
C13A C -0.0557(3) 0.6537(3) -0.4251(3)
C18A C -0.2616(6) 0.5737(6) -0.7992(4)
H13A H -0.2981 0.5886 -0.7789
H14A H -0.2741 0.5168 -0.8232
H15A H -0.2652 0.6160 -0.8383
C19A C -0.1185(6) 0.5520(7) -0.7536(6)
H16A H -0.0696 0.5540 -0.7057
H17A H -0.1173 0.5936 -0.7911
H18A H -0.1262 0.4944 -0.7760
C20A C -0.1697(4) 0.5847(4) -0.6607(4)
H19A H -0.1177 0.5851 -0.6213
C21A C 0.0308(3) 0.6635(4) -0.3757(3)
Dy1F Dy 0.281104(12) -0.120200(13) -0.013243(12)
Dy1F_2 Dy 0.281104(12) 0.879800(13) -0.013243(12)
Dy1G Dy -0.281104(12) 0.879800(13) -0.486757(12)
O2F O -0.2231(2) 0.7691(2) -0.55348(19)
O2G O 0.2231(2) 0.7691(2) 0.05348(19)
O5A O -0.1667(2) 0.4723(2) -0.4658(3)
O6A O -0.2928(2) 0.4828(3) -0.5496(3)
O9 O 0.5000 0.5000 0.0000
H20 H 0.5237 0.4632 0.0370
H20D H 0.4763 0.5368 -0.0370
O10 O 0.4312(11) 0.5283(16) 0.2183(12)
H21 H 0.4195 0.5118 0.2547
H22 H 0.4506 0.4855 0.2042
H23? H 0.5302 0.5432 0.0058
loop_
_geom_bond_atom_site_label_1
_geom_bond_atom_site_label_2
_geom_bond_site_symmetry_1
_geom_bond_site_symmetry_2
Dy1 O3 1_555 1_555
O1 C12 1_555 1_555
O2 C12 1_555 1_555
O3 C13 1_555 1_555
O4 Dy1 1_555 1_555
O5 Dy1 1_555 1_555
O6 Dy1 1_555 1_555
O7 Dy1 1_555 1_555
O8 Dy1 1_555 1_555
H1 O8 1_555 1_555
H2 O8 1_555 1_555
N1 C18 1_555 1_555
C1 C2 1_555 1_555
C2 C3 1_555 1_555
C3 H3 1_555 1_555
C4 C3 1_555 1_555
H4 C4 1_555 1_555
C5 C4 1_555 1_555
H5 C5 1_555 1_555
C6 C1 1_555 1_555
H6 C6 1_555 1_555
C7 C1 1_555 1_555
C8 C7 1_555 1_555
H7 C8 1_555 1_555
C9 C8 1_555 1_555
H8 C9 1_555 1_555
C10 H9 1_555 1_555
C11 C7 1_555 1_555
H10 C11 1_555 1_555
C12 C2 1_555 1_555
C13 O4 1_555 1_555
C14 C15 1_555 1_555
C15 H11 1_555 1_555
C16 C14 1_555 1_555
H12 C16 1_555 1_555
C17 O5 1_555 1_555
C18 H13 1_555 1_555
H14 C18 1_555 1_555
H15 C18 1_555 1_555
C19 N1 1_555 1_555
H16 C19 1_555 1_555
H17 C19 1_555 1_555
H18 C19 1_555 1_555
C20 O7 1_555 1_555
H19 C20 1_555 1_555
C21 C9 1_555 1_555
O9 H20 1_555 1_555
O10 H21 1_555 1_555
H22 O10 1_555 1_555
O5F C17F 1_555 1_555
O6F C17F 1_555 1_555
C14F C15F 1_555 1_555
C15F C16 1_555 1_555
H11F C15F 1_555 1_555
C16F C15 1_555 1_555
H12F C16F 1_555 1_555
C17F C14F 1_555 1_555
Dy1A O1 1_555 1_555
O1A Dy1 1_555 1_555
O2A Dy1 1_555 1_555
O3A Dy1A 1_555 1_555
O4A Dy1A 1_555 1_555
O7A Dy1A 1_555 1_555
O8A Dy1A 1_555 1_555
H1A O8A 1_555 1_555
H2A O8A 1_555 1_555
N1A C18A 1_555 1_555
C1A C2A 1_555 1_555
C2A C3A 1_555 1_555
C3A H3A 1_555 1_555
C4A C3A 1_555 1_555
H4A C4A 1_555 1_555
C5A C4A 1_555 1_555
H5A C5A 1_555 1_555
C6A C1A 1_555 1_555
H6A C6A 1_555 1_555
C7A C1A 1_555 1_555
C8A C7A 1_555 1_555
H7A C8A 1_555 1_555
C9A C8A 1_555 1_555
H8A C9A 1_555 1_555
C10A H9A 1_555 1_555
C11A C7A 1_555 1_555
H10A C11A 1_555 1_555
C12A O1A 1_555 1_555
C13A O3A 1_555 1_555
C18A H13A 1_555 1_555
H14A C18A 1_555 1_555
H15A C18A 1_555 1_555
C19A N1A 1_555 1_555
H16A C19A 1_555 1_555
H17A C19A 1_555 1_555
H18A C19A 1_555 1_555
C20A O7A 1_555 1_555
H19A C20A 1_555 1_555
C21A C9A 1_555 1_555
Dy1F O5F 1_555 1_555
Dy1F_2 O2A 1_555 1_555
Dy1G O2 1_555 1_555
O2F Dy1A 1_555 1_555
O2G Dy1 1_555 1_555
O5A Dy1A 1_555 1_555
O6A Dy1A 1_555 1_555
H20D O9 1_555 1_555
O2 Dy1A 1_555 1_555
O6 C17 1_555 1_555
N1 C20 1_555 1_555
C5 C6 1_555 1_555
C10 C11 1_555 1_555
C10 C21 1_555 1_555
C13 C21 1_555 1_555
C14 C17 1_555 1_555
O6F Dy1F 1_555 1_555
C14F C16F 1_555 1_555
O2A C12A 1_555 1_555
O4A C13A 1_555 1_555
N1A C20A 1_555 1_555
C2A C12A 1_555 1_555
C5A C6A 1_555 1_555
C10A C11A 1_555 1_555
C10A C21A 1_555 1_555
C13A C21A 1_555 1_555
Dy1F_2 O2G 1_555 1_555
Dy1G O2F 1_555 1_555

#END
