
#######################################################################
#
#                 Cambridge Crystallographic Data Centre
#                                CCDC 
#
#######################################################################
#
# If this CIF has been generated from an entry in the Cambridge 
# Structural Database, then it will include bibliographic, chemical, 
# crystal, experimental, refinement or atomic coordinate data resulting 
# from the CCDC's data processing and validation procedures.
#
#######################################################################

data_EFOCOT
_symmetry_cell_setting           monoclinic
_symmetry_space_group_name_H-M   'P 21/c'
_symmetry_Int_Tables_number      14
_space_group_name_Hall           '-P 2ybc'
loop_
_symmetry_equiv_pos_site_id
_symmetry_equiv_pos_as_xyz
1 x,y,z
2 -x,1/2+y,1/2-z
3 -x,-y,-z
4 x,1/2-y,1/2+z
_cell_length_a                   11.476(3)
_cell_length_b                   19.122(4)
_cell_length_c                   16.010(4)
_cell_angle_alpha                90
_cell_angle_beta                 102.816(4)
_cell_angle_gamma                90
_cell_volume                     3425.77
loop_
_atom_site_label
_atom_site_type_symbol
_atom_site_fract_x
_atom_site_fract_y
_atom_site_fract_z
Zn1 Zn 0.78737(9) 0.24398(5) -0.17494(5)
N1 N 0.8521(6) 0.3209(3) -0.0942(4)
N2 N 0.9358(6) 0.3762(3) 0.0242(3)
N3 N 0.9934(6) 0.3483(4) 0.1746(4)
N4 N 0.9095(5) 0.2955(3) 0.2666(4)
N5 N 0.7254(6) 0.1723(3) -0.1056(4)
N6 N 0.6309(6) 0.1257(3) -0.0160(4)
N7 N 0.5700(5) 0.1642(3) 0.1127(3)
N8 N 0.6601(6) 0.2181(4) 0.2308(4)
C1 C 0.8109(8) 0.3877(5) -0.0976(6)
H1 H 0.7559 0.4068 -0.1435
C2 C 0.8609(9) 0.4224(5) -0.0253(5)
H2 H 0.8470 0.4686 -0.0120
C3 C 0.9308(7) 0.3157(4) -0.0181(4)
C4 C 0.9967(9) 0.2507(4) 0.0118(6)
H3 H 0.9956 0.2204 -0.0362
H4 H 0.9595 0.2276 0.0523
H5 H 1.0779 0.2620 0.0386
C5 C 1.0157(8) 0.3940(4) 0.1058(5)
H6 H 1.0034 0.4424 0.1198
H7 H 1.0980 0.3888 0.1009
C6 C 1.0778(7) 0.3028(5) 0.2203(5)
H8 H 1.1554 0.2961 0.2134
C7 C 1.0248(8) 0.2701(5) 0.2768(5)
H9 H 1.0599 0.2362 0.3160
C8 C 0.8908(7) 0.3436(4) 0.2045(5)
C9 C 0.7827(9) 0.3835(5) 0.1758(6)
H10 H 0.7303 0.3589 0.1303
H11 H 0.8021 0.4283 0.1555
H12 H 0.7439 0.3898 0.2226
C10 C 0.7685(7) 0.1052(4) -0.0880(5)
H13 H 0.8273 0.0835 -0.1105
C11 C 0.7082(8) 0.0764(4) -0.0308(5)
H14 H 0.7187 0.0319 -0.0070
C12 C 0.6401(7) 0.1838(4) -0.0611(4)
C13 C 0.5744(10) 0.2475(4) -0.0595(6)
H15 H 0.4902 0.2378 -0.0744
H16 H 0.5941 0.2800 -0.1000
H17 H 0.5948 0.2674 -0.0031
C14 C 0.5461(8) 0.1157(4) 0.0416(5)
H18 H 0.4649 0.1225 0.0090
H19 H 0.5528 0.0682 0.0634
C15 C 0.4890(7) 0.2076(5) 0.1333(5)
H20 H 0.4105 0.2139 0.1032
C16 C 0.5437(8) 0.2406(5) 0.2062(6)
H21 H 0.5081 0.2736 0.2353
C17 C 0.6749(7) 0.1703(4) 0.1734(4)
C18 C 0.7848(8) 0.1309(5) 0.1750(5)
H22 H 0.8380 0.1360 0.2301
H23 H 0.8226 0.1485 0.1315
H24 H 0.7658 0.0824 0.1645
Zn1C Zn 0.78737(9) 0.25602(5) 0.32506(5)
N4C N 0.9095(5) 0.2045(3) -0.2334(4)
N8C N 0.6601(6) 0.2819(4) -0.2692(4)
S1 S 0.3425(2) 0.06945(12) 0.80004(15)
F1 F 0.4122(10) 0.0485(6) 0.6618(6)
F2 F 0.4370(8) -0.0373(4) 0.7423(6)
F3 F 0.5491(8) 0.0527(5) 0.7688(7)
O1 O 0.3624(8) 0.1425(4) 0.7982(5)
O2 O 0.2288(6) 0.0479(4) 0.7553(5)
O3 O 0.3823(7) 0.0390(4) 0.8809(4)
C19 C 0.4411(11) 0.0314(7) 0.7433(8)
S2 S 0.2105(4) 0.1079(2) 0.4103(4)
F4 F 0.4426(13) 0.1108(7) 0.4746(10)
F5 F 0.3707(10) 0.0144(6) 0.4709(9)
F6 F 0.3899(15) 0.0644(10) 0.3619(11)
O4 O 0.197(2) 0.1180(12) 0.4988(11)
O5 O 0.2273(17) 0.1744(8) 0.3853(13)
O6 O 0.1359(13) 0.0539(8) 0.3794(10)
C20 C 0.3568(13) 0.0734(10) 0.4296(12)
O7 O 0.2785(8) 0.1992(5) 0.9533(6)
H25 H 0.2238 0.1707 0.9306
H26 H 0.3179 0.2094 0.9159
O8 O 0.0275(14) 0.0376(8) 0.8534(10)
H27 H 0.1132 0.0376 0.8534
H28 H -0.0102 0.0796 0.8237
O9 O 0.1566(16) 0.4112(8) 0.5110(10)
H29 H 0.2423 0.4112 0.5110
H30 H 0.1189 0.4532 0.4813
O10 O 0.0789(17) 0.0904(9) 0.1557(11)
H31 H 0.1646 0.0904 0.1557
H32 H 0.0412 0.1324 0.1260
loop_
_geom_bond_atom_site_label_1
_geom_bond_atom_site_label_2
_geom_bond_site_symmetry_1
_geom_bond_site_symmetry_2
Zn1 N1 1_555 1_555
N1 C1 1_555 1_555
N2 C2 1_555 1_555
N3 C5 1_555 1_555
N4 C7 1_555 1_555
N5 Zn1 1_555 1_555
N6 C11 1_555 1_555
N7 C14 1_555 1_555
N8 C16 1_555 1_555
C1 H1 1_555 1_555
C2 C1 1_555 1_555
H2 C2 1_555 1_555
C3 N1 1_555 1_555
C4 C3 1_555 1_555
H3 C4 1_555 1_555
H4 C4 1_555 1_555
H5 C4 1_555 1_555
C5 N2 1_555 1_555
H6 C5 1_555 1_555
H7 C5 1_555 1_555
C6 N3 1_555 1_555
H8 C6 1_555 1_555
C7 C6 1_555 1_555
H9 C7 1_555 1_555
C8 N3 1_555 1_555
C9 C8 1_555 1_555
H10 C9 1_555 1_555
H11 C9 1_555 1_555
H12 C9 1_555 1_555
C10 N5 1_555 1_555
H13 C10 1_555 1_555
C11 C10 1_555 1_555
H14 C11 1_555 1_555
C12 N5 1_555 1_555
C13 C12 1_555 1_555
H15 C13 1_555 1_555
H16 C13 1_555 1_555
H17 C13 1_555 1_555
C14 N6 1_555 1_555
H18 C14 1_555 1_555
H19 C14 1_555 1_555
C15 N7 1_555 1_555
H20 C15 1_555 1_555
C16 C15 1_555 1_555
H21 C16 1_555 1_555
C17 N7 1_555 1_555
C18 C17 1_555 1_555
H22 C18 1_555 1_555
H23 C18 1_555 1_555
H24 C18 1_555 1_555
S1 O1 1_555 1_555
F1 C19 1_555 1_555
F2 C19 1_555 1_555
F3 C19 1_555 1_555
O2 S1 1_555 1_555
O3 S1 1_555 1_555
C19 S1 1_555 1_555
S2 O4 1_555 1_555
F4 C20 1_555 1_555
F5 C20 1_555 1_555
F6 C20 1_555 1_555
O5 S2 1_555 1_555
O6 S2 1_555 1_555
C20 S2 1_555 1_555
O7 H25 1_555 1_555
H26 O7 1_555 1_555
O8 H27 1_555 1_555
H28 O8 1_555 1_555
O9 H29 1_555 1_555
H30 O9 1_555 1_555
O10 H31 1_555 1_555
H32 O10 1_555 1_555
Zn1C N4 1_555 1_555
N4C Zn1 1_555 1_555
N8C Zn1 1_555 1_555
N2 C3 1_555 1_555
N4 C8 1_555 1_555
N6 C12 1_555 1_555
N8 C17 1_555 1_555
N8 Zn1C 1_555 1_555

#END
