
#######################################################################
#
#                 Cambridge Crystallographic Data Centre
#                                CCDC 
#
#######################################################################
#
# If this CIF has been generated from an entry in the Cambridge 
# Structural Database, then it will include bibliographic, chemical, 
# crystal, experimental, refinement or atomic coordinate data resulting 
# from the CCDC's data processing and validation procedures.
#
#######################################################################

data_EFODAG
_symmetry_cell_setting           monoclinic
_symmetry_space_group_name_H-M   'C 2/c'
_symmetry_Int_Tables_number      15
_space_group_name_Hall           '-C 2yn'
loop_
_symmetry_equiv_pos_site_id
_symmetry_equiv_pos_as_xyz
1 x,y,z
2 -x,y,1/2-z
3 1/2+x,1/2+y,z
4 1/2-x,1/2+y,1/2-z
5 -x,-y,-z
6 x,-y,1/2+z
7 1/2-x,1/2-y,-z
8 1/2+x,1/2-y,1/2+z
_cell_length_a                   27.507(3)
_cell_length_b                   10.6488(10)
_cell_length_c                   18.4968(18)
_cell_angle_alpha                90
_cell_angle_beta                 109.510(2)
_cell_angle_gamma                90
_cell_volume                     5106.93
loop_
_atom_site_label
_atom_site_type_symbol
_atom_site_fract_x
_atom_site_fract_y
_atom_site_fract_z
C1 C 0.24543(12) 0.0559(4) 0.59201(19)
H1 H 0.2551 0.1190 0.5649
C2 C 0.27237(13) 0.0206(4) 0.6644(2)
H2 H 0.3034 0.0541 0.6960
C3 C 0.20231(11) -0.0919(3) 0.62020(17)
H3 H 0.1769 -0.1509 0.6177
C4 C 0.25802(15) -0.1418(4) 0.75398(18)
H4 H 0.2403 -0.2220 0.7453
H5 H 0.2948 -0.1584 0.7724
C5 C 0.27167(13) 0.0236(4) 0.8561(2)
H6 H 0.3023 0.0584 0.8546
C6 C 0.24484(12) 0.0582(4) 0.90151(19)
H7 H 0.2543 0.1222 0.9377
C7 C 0.20232(11) -0.0924(3) 0.83235(17)
H8 H 0.1772 -0.1524 0.8104
C8 C 0.13616(14) 0.2648(3) 0.52996(18)
H9 H 0.1548 0.2289 0.5769
C9 C 0.11320(14) 0.3777(3) 0.52079(19)
H10 H 0.1131 0.4336 0.5594
C10 C 0.10026(12) 0.2916(3) 0.40945(17)
H11 H 0.0891 0.2798 0.3566
C11 C 0.05857(13) 0.5005(2) 0.4067(3)
H12 H 0.0372 0.5266 0.4365
H13 H 0.0359 0.4750 0.3564
C12 C 0.11137(14) 0.6214(3) 0.34252(19)
H14 H 0.1101 0.5654 0.3033
C13 C 0.13473(14) 0.7343(3) 0.35550(19)
H15 H 0.1525 0.7700 0.3259
C14 C 0.10116(12) 0.7082(3) 0.44311(17)
H16 H 0.0910 0.7206 0.4857
Cd1 Cd 0.138783(7) -0.000375(17) 0.444407(11)
N1 N 0.20133(11) -0.0158(2) 0.56437(16)
N2 N 0.24474(10) -0.0742(3) 0.68178(14)
N3 N 0.24460(9) -0.0739(3) 0.81223(14)
N4 N 0.20123(10) -0.0150(2) 0.88665(16)
N5 N 0.12788(10) 0.2103(2) 0.45955(14)
N6 N 0.09017(9) 0.3942(2) 0.44432(14)
N7 N 0.09007(9) 0.6063(2) 0.39859(14)
N8 N 0.12840(10) 0.7887(2) 0.41876(14)
O1 O 0.07466(11) 0.0074(2) 0.31784(17)
H17 H 0.0518 0.0062 0.3402
H18 H 0.0518 0.0748 0.2906
O2 O 0.07398(11) -0.0121(2) 0.5060(2)
H19 H 0.0557 0.0544 0.4950
H20 H 0.0529 -0.0739 0.4934
Cd1_2 Cd 0.138783(7) 0.999625(17) 0.444407(11)
Cd1E Cd 0.138783(7) 0.000375(17) 0.944407(11)
N4E N 0.20123(10) 0.0150(2) 0.38665(16)
N8_2 N 0.12840(10) -0.2113(2) 0.41876(14)
F1 F 0.45290(7) 0.9025(2) 0.41550(10)
F2 F 0.43798(9) 0.7124(2) 0.34446(13)
F3 F 0.36959(8) 0.8117(2) 0.24653(12)
F4 F 0.45204(7) 0.9019(2) 0.28629(12)
F5 F 0.37042(8) 0.8132(2) 0.37565(14)
F6 F 0.38433(9) 1.00183(15) 0.31738(12)
P1 P 0.41090(3) 0.85612(7) 0.33089(4)
O3 O 0.0000 0.1819(3) 0.2500
H21 H 0.0155 0.2132 0.2221
H21A H -0.0155 0.2132 0.2779
O4 O 0.00422(8) 0.8151(3) 0.00288(12)
H22 H 0.0122 0.7676 0.0416
H23 H -0.0037 0.7732 -0.0380
O5 O 0.04803(11) 0.7155(3) 0.14919(15)
H24 H 0.0333 0.7319 0.1812
H25 H 0.0704 0.6578 0.1636
O6 O 0.0000 0.8117(3) 0.2500
H26 H 0.0252 0.8527 0.2792
H26A H -0.0252 0.8527 0.2208
O7 O 0.10932(15) 0.9432(4) 0.1812(2)
H27 H 0.0901 0.9783 0.1405
H28 H 0.1061 0.9817 0.2195
loop_
_geom_bond_atom_site_label_1
_geom_bond_atom_site_label_2
_geom_bond_site_symmetry_1
_geom_bond_site_symmetry_2
C1 H1 1_555 1_555
C2 C1 1_555 1_555
H2 C2 1_555 1_555
C3 H3 1_555 1_555
C4 H4 1_555 1_555
H5 C4 1_555 1_555
C5 H6 1_555 1_555
C6 C5 1_555 1_555
H7 C6 1_555 1_555
C7 H8 1_555 1_555
C8 H9 1_555 1_555
C9 C8 1_555 1_555
H10 C9 1_555 1_555
C10 H11 1_555 1_555
C11 H12 1_555 1_555
H13 C11 1_555 1_555
C12 H14 1_555 1_555
C13 C12 1_555 1_555
H15 C13 1_555 1_555
C14 H16 1_555 1_555
Cd1 N1 1_555 1_555
N1 C1 1_555 1_555
N2 C2 1_555 1_555
N3 C4 1_555 1_555
N4 C6 1_555 1_555
N5 C8 1_555 1_555
N6 C9 1_555 1_555
N7 C11 1_555 1_555
N8 C13 1_555 1_555
O1 Cd1 1_555 1_555
H17 O1 1_555 1_555
H18 O1 1_555 1_555
O2 Cd1 1_555 1_555
H19 O2 1_555 1_555
H20 O2 1_555 1_555
F1 P1 1_555 1_555
F2 P1 1_555 1_555
F3 P1 1_555 1_555
F4 P1 1_555 1_555
F5 P1 1_555 1_555
F6 P1 1_555 1_555
O3 H21 1_555 1_555
O4 H22 1_555 1_555
H23 O4 1_555 1_555
O5 H24 1_555 1_555
H25 O5 1_555 1_555
O6 H26 1_555 1_555
O7 H27 1_555 1_555
H28 O7 1_555 1_555
Cd1_2 N8 1_555 1_555
Cd1E N4 1_555 1_555
N4E Cd1 1_555 1_555
N8_2 Cd1 1_555 1_555
H21A O3 1_555 1_555
H26A O6 1_555 1_555
C3 N1 1_555 1_555
C3 N2 1_555 1_555
C4 N2 1_555 1_555
C5 N3 1_555 1_555
C7 N3 1_555 1_555
C7 N4 1_555 1_555
C10 N5 1_555 1_555
C10 N6 1_555 1_555
C11 N6 1_555 1_555
C12 N7 1_555 1_555
C14 N7 1_555 1_555
C14 N8 1_555 1_555
Cd1 N5 1_555 1_555

#END
