
#######################################################################
#
#                 Cambridge Crystallographic Data Centre
#                                CCDC 
#
#######################################################################
#
# If this CIF has been generated from an entry in the Cambridge 
# Structural Database, then it will include bibliographic, chemical, 
# crystal, experimental, refinement or atomic coordinate data resulting 
# from the CCDC's data processing and validation procedures.
#
#######################################################################

data_EFOLEQ
_symmetry_cell_setting           tetragonal
_symmetry_space_group_name_H-M   'P -4 21 c'
_symmetry_Int_Tables_number      114
_space_group_name_Hall           'P -4 2n'
loop_
_symmetry_equiv_pos_site_id
_symmetry_equiv_pos_as_xyz
1 x,y,z
2 -x,-y,z
3 y,-x,-z
4 -y,x,-z
5 1/2-x,1/2+y,1/2-z
6 1/2+x,1/2-y,1/2-z
7 1/2-y,1/2-x,1/2+z
8 1/2+y,1/2+x,1/2+z
_cell_length_a                   26.304(6)
_cell_length_b                   26.304(6)
_cell_length_c                   7.580(2)
_cell_angle_alpha                90
_cell_angle_beta                 90
_cell_angle_gamma                90
_cell_volume                     5244.61
loop_
_atom_site_label
_atom_site_type_symbol
_atom_site_fract_x
_atom_site_fract_y
_atom_site_fract_z
Tb1 Tb 0.26307(3) 0.01830(3) 0.05623(14)
O1 O 0.1892(5) 0.0516(5) 0.213(2)
O2 O 0.1893(5) -0.0309(5) 0.1764(19)
O3 O 0.1344(7) 0.0037(7) 0.353(3)
O4 O 0.2794(5) -0.0001(6) 0.3704(19)
O5 O 0.3409(4) -0.0189(5) 0.1937(18)
O6 O 0.3498(6) -0.0290(7) 0.479(2)
O7 O 0.3190(5) 0.0844(5) 0.175(2)
O8 O 0.2577(5) 0.1124(5) 0.005(2)
O9 O 0.3183(7) 0.1635(6) 0.088(4)
N1 N 0.1685(6) 0.0069(6) 0.253(2)
N2 N 0.3230(6) -0.0179(7) 0.343(2)
N3 N 0.2990(7) 0.1214(6) 0.093(3)
O10 O 0.3186(5) 0.0335(5) -0.1743(19)
O11 O 0.2097(5) 0.0249(5) -0.1743(18)
O12 O 0.0659(4) 0.2727(4) -0.960(2)
N4 N 0.3686(6) 0.0242(6) -0.185(2)
C1 C 0.4017(7) 0.0613(7) -0.224(3)
H1 H 0.3890 0.0946 -0.2454
C2 C 0.4521(7) 0.0534(7) -0.235(2)
H2 H 0.4742 0.0804 -0.2670
C3 C 0.4721(6) 0.0045(6) -0.199(2)
C4 C 0.4369(7) -0.0342(7) -0.166(3)
H3 H 0.4481 -0.0682 -0.1513
C5 C 0.3863(7) -0.0230(8) -0.154(3)
H4 H 0.3630 -0.0492 -0.1238
N5 N 0.1943(6) 0.0635(7) -0.271(2)
C6 C 0.2259(8) 0.0875(8) -0.381(3)
H5 H 0.2607 0.0780 -0.3860
C7 C 0.2080(8) 0.1257(8) -0.487(3)
H6 H 0.2311 0.1428 -0.5631
C8 C 0.1252(8) 0.1168(8) -0.365(3)
H7 H 0.0904 0.1261 -0.3573
C9 C 0.1447(7) 0.0797(8) -0.256(3)
H8 H 0.1235 0.0650 -0.1679
C10 C 0.1570(8) 0.1404(8) -0.487(3)
N6 N 0.0876(6) 0.2411(6) -0.844(2)
C11 C 0.1283(7) 0.2115(7) -0.903(3)
H9 H 0.1395 0.2129 -1.0218
C12 C 0.1516(8) 0.1800(7) -0.781(3)
H10 H 0.1792 0.1592 -0.8178
C13 C 0.1360(7) 0.1783(8) -0.611(2)
C14 C 0.0959(6) 0.2098(7) -0.559(3)
H11 H 0.0840 0.2096 -0.4404
C15 C 0.0745(8) 0.2406(7) -0.680(3)
H12 H 0.0484 0.2631 -0.6432
C3A C 0.5279(6) -0.0045(6) -0.199(2)
C2A C 0.5479(7) -0.0534(7) -0.235(2)
C1A C 0.5983(7) -0.0613(7) -0.224(3)
N4A N 0.6314(6) -0.0242(6) -0.185(2)
O10A O 0.6814(5) -0.0335(5) -0.1743(19)
C5A C 0.6137(7) 0.0230(8) -0.154(3)
C4A C 0.5631(7) 0.0342(7) -0.166(3)
H3A H 0.5519 0.0682 -0.1513
H4A H 0.6370 0.0492 -0.1238
H1A H 0.6110 -0.0946 -0.2454
H2A H 0.5258 -0.0804 -0.2670
O11B O 0.0249(5) -0.2097(5) -0.8257(18)
O12B O 0.2727(4) -0.0659(4) -0.040(2)
N5B N 0.0635(7) -0.1943(6) -0.729(2)
C6B C 0.0875(8) -0.2259(8) -0.619(3)
H5B H 0.0780 -0.2607 -0.6140
C7B C 0.1257(8) -0.2080(8) -0.513(3)
H6B H 0.1428 -0.2311 -0.4369
C8B C 0.1168(8) -0.1252(8) -0.635(3)
H7B H 0.1261 -0.0904 -0.6427
C9B C 0.0797(8) -0.1447(7) -0.744(3)
H8B H 0.0650 -0.1235 -0.8321
C10B C 0.1404(8) -0.1570(8) -0.513(3)
N6B N 0.2411(6) -0.0876(6) -0.156(2)
C11B C 0.2115(7) -0.1283(7) -0.097(3)
H9B H 0.2129 -0.1395 0.0218
C12B C 0.1800(7) -0.1516(8) -0.219(3)
H10B H 0.1592 -0.1792 -0.1822
C13B C 0.1783(8) -0.1360(7) -0.389(2)
C14B C 0.2098(7) -0.0959(6) -0.441(3)
H11B H 0.2096 -0.0840 -0.5596
C15B C 0.2406(7) -0.0745(8) -0.320(3)
H12B H 0.2631 -0.0484 -0.3568
Tb1A Tb 0.73693(3) -0.01830(3) 0.05623(14)
O1A O 0.8108(5) -0.0516(5) 0.213(2)
O2A O 0.8107(5) 0.0309(5) 0.1764(19)
O3A O 0.8656(7) -0.0037(7) 0.353(3)
N1A N 0.8315(6) -0.0069(6) 0.253(2)
O4A O 0.7206(5) 0.0001(6) 0.3704(19)
O5A O 0.6591(4) 0.0189(5) 0.1937(18)
O6A O 0.6502(6) 0.0290(7) 0.479(2)
N2A N 0.6770(6) 0.0179(7) 0.343(2)
O7A O 0.6810(5) -0.0844(5) 0.175(2)
O8A O 0.7423(5) -0.1124(5) 0.005(2)
O9A O 0.6817(7) -0.1635(6) 0.088(4)
N3A N 0.7010(7) -0.1214(6) 0.093(3)
Tb1C Tb -0.01830(3) 0.26307(3) -1.05623(14)
Tb1B Tb 0.01830(3) -0.26307(3) -1.05623(14)
O11A O 0.7903(5) -0.0249(5) -0.1743(18)
O12C O 0.7273(4) 0.0659(4) -0.040(2)
O13 O 0.0456(9) 0.0561(9) 0.026(3)
C16 C 0.0515(13) 0.0891(11) 0.173(4)
O14 O 0.251(3) 0.247(2) -0.587(9)
O15 O 0.250(2) -0.1850(19) 0.271(7)
loop_
_geom_bond_atom_site_label_1
_geom_bond_atom_site_label_2
_geom_bond_site_symmetry_1
_geom_bond_site_symmetry_2
Tb1 O1 1_555 1_555
O1 N1 1_555 1_555
O2 Tb1 1_555 1_555
O3 N1 1_555 1_555
O4 Tb1 1_555 1_555
O5 Tb1 1_555 1_555
O6 N2 1_555 1_555
O7 Tb1 1_555 1_555
O8 Tb1 1_555 1_555
O9 N3 1_555 1_555
N1 O2 1_555 1_555
N2 O4 1_555 1_555
N3 O7 1_555 1_555
O10 Tb1 1_555 1_555
O11 Tb1 1_555 1_555
O12 N6 1_555 1_555
N4 O10 1_555 1_555
C1 N4 1_555 1_555
H1 C1 1_555 1_555
C2 C1 1_555 1_555
H2 C2 1_555 1_555
C3 C2 1_555 1_555
C4 C3 1_555 1_555
H3 C4 1_555 1_555
C5 N4 1_555 1_555
H4 C5 1_555 1_555
N5 O11 1_555 1_555
C6 N5 1_555 1_555
H5 C6 1_555 1_555
C7 C6 1_555 1_555
H6 C7 1_555 1_555
C8 H7 1_555 1_555
C9 N5 1_555 1_555
H8 C9 1_555 1_555
C10 C7 1_555 1_555
N6 C11 1_555 1_555
C11 H9 1_555 1_555
C12 C11 1_555 1_555
H10 C12 1_555 1_555
C13 C10 1_555 1_555
C14 C13 1_555 1_555
H11 C14 1_555 1_555
C15 N6 1_555 1_555
H12 C15 1_555 1_555
O13 C16 1_555 1_555
C3A C3 1_555 1_555
C2A C3A 1_555 1_555
C1A C2A 1_555 1_555
N4A C1A 1_555 1_555
O10A N4A 1_555 1_555
C5A N4A 1_555 1_555
C4A C3A 1_555 1_555
H3A C4A 1_555 1_555
H4A C5A 1_555 1_555
H1A C1A 1_555 1_555
H2A C2A 1_555 1_555
O11B N5B 1_555 1_555
O12B Tb1 1_555 1_555
N5B C6B 1_555 1_555
C6B H5B 1_555 1_555
C7B C6B 1_555 1_555
H6B C7B 1_555 1_555
C8B H7B 1_555 1_555
C9B N5B 1_555 1_555
H8B C9B 1_555 1_555
C10B C7B 1_555 1_555
N6B O12B 1_555 1_555
C11B N6B 1_555 1_555
H9B C11B 1_555 1_555
C12B C11B 1_555 1_555
H10B C12B 1_555 1_555
C13B C10B 1_555 1_555
C14B C13B 1_555 1_555
H11B C14B 1_555 1_555
C15B N6B 1_555 1_555
H12B C15B 1_555 1_555
Tb1A O10A 1_555 1_555
O1A Tb1A 1_555 1_555
O2A Tb1A 1_555 1_555
O3A N1A 1_555 1_555
N1A O1A 1_555 1_555
O4A Tb1A 1_555 1_555
O5A Tb1A 1_555 1_555
O6A N2A 1_555 1_555
N2A O4A 1_555 1_555
O7A Tb1A 1_555 1_555
O8A Tb1A 1_555 1_555
O9A N3A 1_555 1_555
N3A O7A 1_555 1_555
Tb1C O12 1_555 1_555
Tb1B O11B 1_555 1_555
O11A Tb1A 1_555 1_555
O12C Tb1A 1_555 1_555
O5 N2 1_555 1_555
O8 N3 1_555 1_555
C4 C5 1_555 1_555
C8 C10 1_555 1_555
C8 C9 1_555 1_555
C12 C13 1_555 1_555
C14 C15 1_555 1_555
C5A C4A 1_555 1_555
C8B C10B 1_555 1_555
C8B C9B 1_555 1_555
C12B C13B 1_555 1_555
C14B C15B 1_555 1_555
O2A N1A 1_555 1_555
O5A N2A 1_555 1_555
O8A N3A 1_555 1_555

#END
