
#######################################################################
#
#                 Cambridge Crystallographic Data Centre
#                                CCDC 
#
#######################################################################
#
# If this CIF has been generated from an entry in the Cambridge 
# Structural Database, then it will include bibliographic, chemical, 
# crystal, experimental, refinement or atomic coordinate data resulting 
# from the CCDC's data processing and validation procedures.
#
#######################################################################

data_EFOLOA
_symmetry_cell_setting           monoclinic
_symmetry_space_group_name_H-M   'P 21/c'
_symmetry_Int_Tables_number      14
_space_group_name_Hall           '-P 2ybc'
loop_
_symmetry_equiv_pos_site_id
_symmetry_equiv_pos_as_xyz
1 x,y,z
2 x,1/2-y,1/2+z
3 -x,-y,-z
4 -x,1/2+y,1/2-z
_cell_length_a                   9.3944(6)
_cell_length_b                   14.6498(9)
_cell_length_c                   17.2874(10)
_cell_angle_alpha                90
_cell_angle_beta                 90.577(1)
_cell_angle_gamma                90
_cell_volume                     2379.08
loop_
_atom_site_label
_atom_site_type_symbol
_atom_site_fract_x
_atom_site_fract_y
_atom_site_fract_z
Tb1 Tb 0.292747(11) 0.675091(7) 0.179028(6)
O1 O 0.04959(17) 0.68734(11) 0.17661(9)
O2 O 0.53614(17) 0.64119(11) 0.23677(9)
O3 O 0.48274(18) 0.57047(12) 0.13090(10)
O4 O 0.67592(19) 0.53384(13) 0.19508(12)
O5 O -0.70908(17) 0.75364(11) -0.20284(9)
O6 O 0.20890(18) 0.55208(10) 0.08485(9)
O7 O 0.25665(19) 0.68605(10) 0.03834(9)
O8 O 0.18128(19) 0.57797(11) -0.03849(9)
O9 O 0.25035(18) 0.55347(10) 0.26209(9)
O10 O 0.46463(18) 0.79422(12) 0.14549(11)
O11 O 0.24474(19) 0.83834(11) 0.14189(10)
O12 O 0.4146(2) 0.93482(14) 0.11532(15)
O13 O -0.0933(2) -0.02363(12) 0.06519(11)
N1 N 0.5687(2) 0.58052(14) 0.18766(11)
N2 N 0.2150(2) 0.60392(13) 0.02638(11)
N3 N 0.3757(2) 0.85851(14) 0.13337(12)
N4 N -0.0522(2) 0.69952(13) 0.12298(10)
N5 N -0.61219(19) 0.74828(13) -0.14603(10)
N6 N 0.2038(2) 0.47091(13) 0.24029(10)
N7 N -0.0358(2) 0.05305(13) 0.08645(12)
C1 C -0.1057(3) 0.62710(16) 0.08451(15)
H1 H -0.0658 0.5683 0.0929
C2 C -0.2169(3) 0.63741(17) 0.03351(15)
H2 H -0.2527 0.5857 0.0065
C3 C -0.2784(2) 0.72289(15) 0.02055(12)
C4 C -0.2174(3) 0.79592(16) 0.05971(14)
H3 H -0.2549 0.8555 0.0520
C5 C -0.1041(2) 0.78397(16) 0.10936(13)
H4 H -0.0620 0.8353 0.1342
C6 C -0.5693(3) 0.66461(15) -0.12363(13)
H5 H -0.6111 0.6118 -0.1463
C7 C -0.4646(3) 0.65578(16) -0.06789(13)
H6 H -0.4354 0.5966 -0.0520
C8 C -0.4004(2) 0.73267(15) -0.03415(12)
C9 C -0.4541(3) 0.81776(15) -0.05612(13)
H7 H -0.4177 0.8716 -0.0326
C10 C -0.5599(3) 0.82410(15) -0.11190(14)
H8 H -0.5961 0.8823 -0.1263
C11 C 0.0673(2) 0.46036(16) 0.21581(13)
H9 H 0.0033 0.5104 0.2185
C12 C 0.0206(2) 0.37840(15) 0.18729(12)
H10 H -0.0753 0.3722 0.1702
C13 C 0.1133(2) 0.30347(15) 0.18316(13)
C14 C 0.2495(3) 0.31537(15) 0.21591(14)
H11 H 0.3131 0.2650 0.2188
C15 C 0.2920(2) 0.39906(16) 0.24393(13)
H12 H 0.3844 0.4060 0.2660
C16 C -0.0945(3) 0.13376(17) 0.06349(14)
H13 H -0.1696 0.1339 0.0263
C17 C -0.0460(3) 0.21518(16) 0.09369(13)
H14 H -0.0904 0.2707 0.0785
C18 C 0.0680(2) 0.21684(15) 0.14657(12)
C19 C 0.1356(3) 0.13381(16) 0.16224(13)
H15 H 0.2184 0.1327 0.1943
C20 C 0.0835(3) 0.05413(16) 0.13181(14)
H16 H 0.1315 -0.0016 0.1426
O5A O 0.29092(17) 0.74636(11) 0.29716(9)
Tb1A Tb -0.707253(11) 0.824909(7) -0.320972(6)
loop_
_geom_bond_atom_site_label_1
_geom_bond_atom_site_label_2
_geom_bond_site_symmetry_1
_geom_bond_site_symmetry_2
Tb1 O1 1_555 1_555
O1 N4 1_555 1_555
O2 Tb1 1_555 1_555
O3 Tb1 1_555 1_555
O4 N1 1_555 1_555
O5 N5 1_555 1_555
O6 Tb1 1_555 1_555
O7 Tb1 1_555 1_555
O8 N2 1_555 1_555
O9 Tb1 1_555 1_555
O10 Tb1 1_555 1_555
O11 Tb1 1_555 1_555
O12 N3 1_555 1_555
O13 N7 1_555 1_555
N1 O2 1_555 1_555
N2 O6 1_555 1_555
N3 O10 1_555 1_555
N4 C1 1_555 1_555
N5 C6 1_555 1_555
N6 O9 1_555 1_555
N7 C16 1_555 1_555
C1 H1 1_555 1_555
C2 C1 1_555 1_555
H2 C2 1_555 1_555
C3 C2 1_555 1_555
C4 C3 1_555 1_555
H3 C4 1_555 1_555
C5 N4 1_555 1_555
H4 C5 1_555 1_555
C6 H5 1_555 1_555
C7 C6 1_555 1_555
H6 C7 1_555 1_555
C8 C3 1_555 1_555
C9 C8 1_555 1_555
H7 C9 1_555 1_555
C10 N5 1_555 1_555
H8 C10 1_555 1_555
C11 N6 1_555 1_555
H9 C11 1_555 1_555
C12 C11 1_555 1_555
H10 C12 1_555 1_555
C13 C12 1_555 1_555
C14 C13 1_555 1_555
H11 C14 1_555 1_555
C15 N6 1_555 1_555
H12 C15 1_555 1_555
C16 H13 1_555 1_555
C17 C16 1_555 1_555
H14 C17 1_555 1_555
C18 C13 1_555 1_555
C19 C18 1_555 1_555
H15 C19 1_555 1_555
C20 N7 1_555 1_555
H16 C20 1_555 1_555
O5A Tb1 1_555 1_555
Tb1A O5 1_555 1_555
O3 N1 1_555 1_555
O7 N2 1_555 1_555
O11 N3 1_555 1_555
C4 C5 1_555 1_555
C7 C8 1_555 1_555
C9 C10 1_555 1_555
C14 C15 1_555 1_555
C17 C18 1_555 1_555
C19 C20 1_555 1_555

#END
