
#######################################################################
#
#                 Cambridge Crystallographic Data Centre
#                                CCDC 
#
#######################################################################
#
# If this CIF has been generated from an entry in the Cambridge 
# Structural Database, then it will include bibliographic, chemical, 
# crystal, experimental, refinement or atomic coordinate data resulting 
# from the CCDC's data processing and validation procedures.
#
#######################################################################

data_EFOLAM
_symmetry_cell_setting           triclinic
_symmetry_space_group_name_H-M   'P -1'
_symmetry_Int_Tables_number      2
_space_group_name_Hall           '-P 1'
loop_
_symmetry_equiv_pos_site_id
_symmetry_equiv_pos_as_xyz
1 x,y,z
2 -x,-y,-z
_cell_length_a                   8.086(2)
_cell_length_b                   11.769(3)
_cell_length_c                   13.078(2)
_cell_angle_alpha                86.80(2)
_cell_angle_beta                 79.52(2)
_cell_angle_gamma                78.79(2)
_cell_volume                     1200.18
loop_
_atom_site_label
_atom_site_type_symbol
_atom_site_fract_x
_atom_site_fract_y
_atom_site_fract_z
Tb1 Tb 0.28659(5) 0.33172(4) 0.71566(3)
O1 O 0.4581(8) 0.3744(5) 0.8277(4)
O2 O 0.3174(9) 0.5337(6) 0.6592(5)
O3 O 0.1067(9) 0.5144(6) 0.7814(6)
O4 O 0.1435(18) 0.6853(7) 0.7272(10)
O5 O 0.5338(8) 0.3243(5) 0.5927(4)
O6 O 0.1449(9) 0.2777(6) 0.8906(5)
O7 O -0.0063(9) 0.2891(7) 0.7726(5)
O8 O -0.1214(9) 0.2590(7) 0.9320(6)
O9 O 0.1427(8) 0.3666(6) 1.5775(4)
O10 O 0.4527(10) 0.1414(6) 0.7637(6)
O11 O 0.3084(10) 0.1377(6) 0.6429(6)
O12 O 0.4707(11) -0.0205(6) 0.6876(8)
N1 N 0.1893(12) 0.5813(7) 0.7233(8)
N2 N 0.0026(9) 0.2747(6) 0.8675(6)
N3 N 0.4127(10) 0.0817(7) 0.6983(7)
N4 N 0.4224(8) 0.3697(6) 0.9325(5)
N5 N 0.6618(9) 0.2346(6) 0.5682(5)
N6 N 0.2060(9) 0.3642(6) 1.4744(5)
C1 C 0.4903(13) 0.2746(8) 0.9834(7)
H1 H 0.5588 0.2120 0.9466
C2 C 0.4579(12) 0.2708(8) 1.0898(6)
H2 H 0.5076 0.2059 1.1251
C3 C 0.3513(11) 0.3628(7) 1.1465(6)
C4 C 0.2860(11) 0.4578(8) 1.0897(7)
H3 H 0.2169 0.5216 1.1246
C5 C 0.3198(11) 0.4606(8) 0.9849(6)
H4 H 0.2724 0.5252 0.9485
C6 C 0.6810(13) 0.1816(9) 0.4775(7)
H5 H 0.6038 0.2071 0.4327
C7 C 0.8123(12) 0.0907(9) 0.4502(7)
H6 H 0.8230 0.0555 0.3868
C8 C 0.9283(11) 0.0505(7) 0.5137(6)
C9 C 0.9096(11) 0.1097(8) 0.6052(7)
H7 H 0.9892 0.0880 0.6492
C10 C 0.7747(12) 0.2003(9) 0.6318(8)
H8 H 0.7622 0.2377 0.6942
C11 C 0.2241(14) 0.2666(9) 1.4243(6)
H9 H 0.1996 0.2003 1.4614
C12 C 0.2789(15) 0.2615(8) 1.3178(7)
H10 H 0.2953 0.1917 1.2839
C13 C 0.3089(10) 0.3612(7) 1.2622(6)
C14 C 0.2894(13) 0.4607(8) 1.3178(7)
H11 H 0.3099 0.5290 1.2829
C15 C 0.2404(13) 0.4602(8) 1.4236(7)
H12 H 0.2311 0.5274 1.4601
C8A C 1.0717(11) -0.0505(7) 0.4863(6)
C7A C 1.1877(12) -0.0907(9) 0.5498(7)
C6A C 1.3190(13) -0.1816(9) 0.5225(7)
N5A N 1.3382(9) -0.2346(6) 0.4318(5)
O5A O 1.4662(8) -0.3243(5) 0.4073(4)
C10A C 1.2253(12) -0.2003(9) 0.3682(8)
C9A C 1.0904(11) -0.1097(8) 0.3948(7)
H7A H 1.0108 -0.0880 0.3508
H8A H 1.2378 -0.2377 0.3058
H5A H 1.3962 -0.2071 0.5673
H6A H 1.1770 -0.0555 0.6132
O1_2 O 0.4581(8) 0.3744(5) -0.1723(4)
O9_2 O 0.1427(8) 0.3666(6) 0.5775(4)
N4_2 N 0.4224(8) 0.3697(6) -0.0675(5)
N6_2 N 0.2060(9) 0.3642(6) 0.4744(5)
C1_2 C 0.4903(13) 0.2746(8) -0.0166(7)
H1_2 H 0.5588 0.2120 -0.0534
C2_2 C 0.4579(12) 0.2708(8) 0.0898(6)
H2_2 H 0.5076 0.2059 0.1251
C3_2 C 0.3513(11) 0.3628(7) 0.1465(6)
C4_2 C 0.2860(11) 0.4578(8) 0.0897(7)
H3_2 H 0.2169 0.5216 0.1246
C5_2 C 0.3198(11) 0.4606(8) -0.0151(6)
H4_2 H 0.2724 0.5252 -0.0515
C11_2 C 0.2241(14) 0.2666(9) 0.4243(6)
H9_2 H 0.1996 0.2003 0.4614
C12_2 C 0.2789(15) 0.2615(8) 0.3178(7)
H10_2 H 0.2953 0.1917 0.2839
C13_2 C 0.3089(10) 0.3612(7) 0.2622(6)
C14_2 C 0.2894(13) 0.4607(8) 0.3178(7)
H11_2 H 0.3099 0.5290 0.2829
C15_2 C 0.2404(13) 0.4602(8) 0.4236(7)
H12_2 H 0.2311 0.5274 0.4601
Tb1_2 Tb 0.28659(5) 0.33172(4) -0.28434(3)
O2_2 O 0.3174(9) 0.5337(6) -0.3408(5)
O3_2 O 0.1067(9) 0.5144(6) -0.2186(6)
O4_2 O 0.1435(18) 0.6853(7) -0.2728(10)
N1_2 N 0.1893(12) 0.5813(7) -0.2767(8)
O6_2 O 0.1449(9) 0.2777(6) -0.1094(5)
O7_2 O -0.0063(9) 0.2891(7) -0.2274(5)
O8_2 O -0.1214(9) 0.2590(7) -0.0680(6)
N2_2 N 0.0026(9) 0.2747(6) -0.1325(6)
O10_2 O 0.4527(10) 0.1414(6) -0.2363(6)
O11_2 O 0.3084(10) 0.1377(6) -0.3571(6)
O12_2 O 0.4707(11) -0.0205(6) -0.3124(8)
N3_2 N 0.4127(10) 0.0817(7) -0.3017(7)
Tb1_3 Tb 0.28659(5) 0.33172(4) 1.71566(3)
Tb1A Tb 1.71341(5) -0.33172(4) 0.28434(3)
O5_2 O 0.5338(8) 0.3243(5) -0.4073(4)
O9_3 O 0.1427(8) 0.3666(6) -0.4225(4)
C16 C 0.9417(19) -0.1067(13) 0.8947(11)
H13 H 0.9594 -0.1829 0.8654
H14 H 0.9239 -0.1160 0.9698
Cl1 Cl 0.7598(5) -0.0218(3) 0.8587(3)
Cl2 Cl 1.1251(5) -0.0471(4) 0.8532(3)
loop_
_geom_bond_atom_site_label_1
_geom_bond_atom_site_label_2
_geom_bond_site_symmetry_1
_geom_bond_site_symmetry_2
Tb1 O1 1_555 1_555
O1 N4 1_555 1_555
O2 Tb1 1_555 1_555
O3 Tb1 1_555 1_555
O4 N1 1_555 1_555
O5 Tb1 1_555 1_555
O6 Tb1 1_555 1_555
O7 Tb1 1_555 1_555
O8 N2 1_555 1_555
O9 N6 1_555 1_555
O10 Tb1 1_555 1_555
O11 Tb1 1_555 1_555
O12 N3 1_555 1_555
N1 O2 1_555 1_555
N2 O6 1_555 1_555
N3 O10 1_555 1_555
N4 C1 1_555 1_555
N5 O5 1_555 1_555
N6 C11 1_555 1_555
C1 H1 1_555 1_555
C2 C1 1_555 1_555
H2 C2 1_555 1_555
C3 C2 1_555 1_555
C4 C3 1_555 1_555
H3 C4 1_555 1_555
C5 N4 1_555 1_555
H4 C5 1_555 1_555
C6 N5 1_555 1_555
H5 C6 1_555 1_555
C7 C6 1_555 1_555
H6 C7 1_555 1_555
C8 C7 1_555 1_555
C9 C8 1_555 1_555
H7 C9 1_555 1_555
C10 N5 1_555 1_555
H8 C10 1_555 1_555
C11 H9 1_555 1_555
C12 C11 1_555 1_555
H10 C12 1_555 1_555
C13 C3 1_555 1_555
C14 C13 1_555 1_555
H11 C14 1_555 1_555
C15 N6 1_555 1_555
H12 C15 1_555 1_555
C16 H13 1_555 1_555
H14 C16 1_555 1_555
Cl1 C16 1_555 1_555
Cl2 C16 1_555 1_555
C8A C8 1_555 1_555
C7A C8A 1_555 1_555
C6A C7A 1_555 1_555
N5A C6A 1_555 1_555
O5A N5A 1_555 1_555
C10A N5A 1_555 1_555
C9A C8A 1_555 1_555
H7A C9A 1_555 1_555
H8A C10A 1_555 1_555
H5A C6A 1_555 1_555
H6A C7A 1_555 1_555
O1_2 N4_2 1_555 1_555
O9_2 Tb1 1_555 1_555
N4_2 C1_2 1_555 1_555
N6_2 O9_2 1_555 1_555
C1_2 H1_2 1_555 1_555
C2_2 C1_2 1_555 1_555
H2_2 C2_2 1_555 1_555
C3_2 C2_2 1_555 1_555
C4_2 C3_2 1_555 1_555
H3_2 C4_2 1_555 1_555
C5_2 N4_2 1_555 1_555
H4_2 C5_2 1_555 1_555
C11_2 N6_2 1_555 1_555
H9_2 C11_2 1_555 1_555
C12_2 C11_2 1_555 1_555
H10_2 C12_2 1_555 1_555
C13_2 C3_2 1_555 1_555
C14_2 C13_2 1_555 1_555
H11_2 C14_2 1_555 1_555
C15_2 N6_2 1_555 1_555
H12_2 C15_2 1_555 1_555
Tb1_2 O1_2 1_555 1_555
O2_2 Tb1_2 1_555 1_555
O3_2 Tb1_2 1_555 1_555
O4_2 N1_2 1_555 1_555
N1_2 O2_2 1_555 1_555
O6_2 Tb1_2 1_555 1_555
O7_2 Tb1_2 1_555 1_555
O8_2 N2_2 1_555 1_555
N2_2 O6_2 1_555 1_555
O10_2 Tb1_2 1_555 1_555
O11_2 Tb1_2 1_555 1_555
O12_2 N3_2 1_555 1_555
N3_2 O10_2 1_555 1_555
Tb1_3 O9 1_555 1_555
Tb1A O5A 1_555 1_555
O5_2 Tb1_2 1_555 1_555
O9_3 Tb1_2 1_555 1_555
O3 N1 1_555 1_555
O7 N2 1_555 1_555
O11 N3 1_555 1_555
C4 C5 1_555 1_555
C9 C10 1_555 1_555
C12 C13 1_555 1_555
C14 C15 1_555 1_555
C10A C9A 1_555 1_555
C4_2 C5_2 1_555 1_555
C12_2 C13_2 1_555 1_555
C14_2 C15_2 1_555 1_555
O3_2 N1_2 1_555 1_555
O7_2 N2_2 1_555 1_555
O11_2 N3_2 1_555 1_555

#END
