
#######################################################################
#
#                 Cambridge Crystallographic Data Centre
#                                CCDC 
#
#######################################################################
#
# If this CIF has been generated from an entry in the Cambridge 
# Structural Database, then it will include bibliographic, chemical, 
# crystal, experimental, refinement or atomic coordinate data resulting 
# from the CCDC's data processing and validation procedures.
#
#######################################################################

data_EFOLIU
_symmetry_cell_setting           tetragonal
_symmetry_space_group_name_H-M   'P -4 21 c'
_symmetry_Int_Tables_number      114
_space_group_name_Hall           'P -4 2n'
loop_
_symmetry_equiv_pos_site_id
_symmetry_equiv_pos_as_xyz
1 x,y,z
2 -x,-y,z
3 y,-x,-z
4 -y,x,-z
5 1/2-x,1/2+y,1/2-z
6 1/2+x,1/2-y,1/2-z
7 1/2-y,1/2-x,1/2+z
8 1/2+y,1/2+x,1/2+z
_cell_length_a                   26.154(4)
_cell_length_b                   26.154(4)
_cell_length_c                   7.5828(11)
_cell_angle_alpha                90
_cell_angle_beta                 90
_cell_angle_gamma                90
_cell_volume                     5186.88
loop_
_atom_site_label
_atom_site_type_symbol
_atom_site_fract_x
_atom_site_fract_y
_atom_site_fract_z
C16 C 0.202770(15) 0.301000(18) 0.4145(3)
C17 C 0.19304(3) 0.29495(3) 0.5776(5)
Cl1 Cl 0.25261(6) 0.26599(7) 0.3249(6)
Cl2 Cl 0.16501(8) 0.34359(8) 0.3007(7)
O13 O 0.0446(2) 0.0582(2) 0.0245(8)
C18 C 0.0489(5) 0.0905(4) 0.1686(15)
Tb1 Tb 0.262232(7) 0.020040(7) 0.06197(3)
O1 O 0.18789(12) 0.05300(12) 0.2227(5)
O2 O 0.18836(12) -0.02882(12) 0.1798(5)
O3 O 0.13235(15) 0.00546(16) 0.3603(6)
O4 O 0.27830(13) -0.00086(16) 0.3751(4)
O5 O 0.34062(11) -0.01728(13) 0.1979(4)
O6 O 0.34985(14) -0.02977(17) 0.4774(5)
O7 O 0.31707(14) 0.08839(14) 0.1761(6)
O8 O 0.25562(13) 0.11374(12) 0.0117(5)
O9 O 0.31468(19) 0.16703(15) 0.0939(8)
N1 N 0.16837(15) 0.00944(15) 0.2565(6)
N2 N 0.32359(15) -0.01684(17) 0.3545(5)
N3 N 0.29737(17) 0.12487(16) 0.0947(7)
O10 O 0.31850(11) 0.03320(12) -0.1691(5)
O11 O 0.20784(12) 0.02507(13) -0.1690(5)
O12 O 0.06515(11) 0.27093(11) -0.9719(4)
N4 N 0.36820(13) 0.02466(14) -0.1793(5)
C1 C 0.40133(17) 0.06214(17) -0.2239(6)
H1 H 0.3888 0.0954 -0.2503
C2 C 0.45216(18) 0.05279(17) -0.2314(5)
H2 H 0.4747 0.0800 -0.2603
C3 C 0.47257(16) 0.00462(17) -0.1980(6)
C4 C 0.43730(16) -0.03411(16) -0.1588(6)
H3 H 0.4492 -0.0678 -0.1372
C5 C 0.38570(17) -0.02411(18) -0.1511(6)
H4 H 0.3623 -0.0509 -0.1263
N5 N 0.19217(14) 0.06472(15) -0.2656(5)
C6 C 0.22474(19) 0.08873(19) -0.3766(6)
H5 H 0.2597 0.0788 -0.3794
C7 C 0.20834(19) 0.1266(2) -0.4837(6)
H6 H 0.2320 0.1433 -0.5594
C8 C 0.1245(2) 0.1171(2) -0.3629(7)
H7 H 0.0897 0.1272 -0.3560
C9 C 0.14275(19) 0.0789(2) -0.2546(7)
H8 H 0.1206 0.0626 -0.1727
C10 C 0.15767(19) 0.14129(18) -0.4843(6)
N6 N 0.08807(15) 0.24081(14) -0.8544(5)
C11 C 0.12573(19) 0.20988(17) -0.9070(7)
H9 H 0.1361 0.2099 -1.0270
C12 C 0.1500(2) 0.1775(2) -0.7868(7)
H10 H 0.1765 0.1553 -0.8249
C13 C 0.13492(18) 0.17806(18) -0.6102(6)
C14 C 0.09644(16) 0.21170(17) -0.5630(8)
H11 H 0.0856 0.2131 -0.4435
C15 C 0.07356(17) 0.24302(18) -0.6845(6)
H12 H 0.0476 0.2662 -0.6488
C3A C 0.52743(16) -0.00462(17) -0.1980(6)
C2A C 0.54784(18) -0.05279(17) -0.2314(5)
C1A C 0.59867(17) -0.06214(17) -0.2239(6)
N4A N 0.63180(13) -0.02466(14) -0.1793(5)
O10A O 0.68150(11) -0.03320(12) -0.1691(5)
C5A C 0.61430(17) 0.02411(18) -0.1511(6)
C4A C 0.56270(16) 0.03411(16) -0.1588(6)
H3A H 0.5508 0.0678 -0.1372
H4A H 0.6377 0.0509 -0.1263
H1A H 0.6112 -0.0954 -0.2503
H2A H 0.5253 -0.0800 -0.2603
O11B O 0.02507(13) -0.20784(12) -0.8310(5)
O12B O 0.27093(11) -0.06515(11) -0.0281(4)
N5B N 0.06472(15) -0.19217(14) -0.7344(5)
C6B C 0.08873(19) -0.22474(19) -0.6234(6)
H5B H 0.0788 -0.2597 -0.6206
C7B C 0.1266(2) -0.20834(19) -0.5163(6)
H6B H 0.1433 -0.2320 -0.4406
C8B C 0.1171(2) -0.1245(2) -0.6371(7)
H7B H 0.1272 -0.0897 -0.6440
C9B C 0.0789(2) -0.14275(19) -0.7454(7)
H8B H 0.0626 -0.1206 -0.8273
C10B C 0.14129(18) -0.15767(19) -0.5157(6)
N6B N 0.24081(14) -0.08807(15) -0.1456(5)
C11B C 0.20988(17) -0.12573(19) -0.0930(7)
H9B H 0.2099 -0.1361 0.0270
C12B C 0.1775(2) -0.1500(2) -0.2132(7)
H10B H 0.1553 -0.1765 -0.1751
C13B C 0.17806(18) -0.13492(18) -0.3898(6)
C14B C 0.21170(17) -0.09644(16) -0.4370(8)
H11B H 0.2131 -0.0856 -0.5565
C15B C 0.24302(18) -0.07356(17) -0.3155(6)
H12B H 0.2662 -0.0476 -0.3512
Tb1A Tb 0.737768(7) -0.020040(7) 0.06197(3)
O1A O 0.81211(12) -0.05300(12) 0.2227(5)
O2A O 0.81164(12) 0.02882(12) 0.1798(5)
O3A O 0.86765(15) -0.00546(16) 0.3603(6)
N1A N 0.83163(15) -0.00944(15) 0.2565(6)
O4A O 0.72170(13) 0.00086(16) 0.3751(4)
O5A O 0.65938(11) 0.01728(13) 0.1979(4)
O6A O 0.65015(14) 0.02977(17) 0.4774(5)
N2A N 0.67641(15) 0.01684(17) 0.3545(5)
O7A O 0.68293(14) -0.08839(14) 0.1761(6)
O8A O 0.74438(13) -0.11374(12) 0.0117(5)
O9A O 0.68532(19) -0.16703(15) 0.0939(8)
N3A N 0.70263(17) -0.12487(16) 0.0947(7)
Tb1C Tb -0.020040(7) 0.262232(7) -1.06197(3)
Tb1B Tb 0.020040(7) -0.262232(7) -1.06197(3)
O11A O 0.79216(12) -0.02507(13) -0.1690(5)
O12C O 0.72907(11) 0.06515(11) -0.0281(4)
Cl3? Cl 0.22764(12) 0.25355(10) 0.7083(7)
Cl4? Cl 0.14473(10) 0.32691(10) 0.6868(7)
O14? O -0.0097(17) 0.0190(15) 0.442(6)
C19? C -0.0097(17) 0.0190(15) 0.442(6)
loop_
_geom_bond_atom_site_label_1
_geom_bond_atom_site_label_2
_geom_bond_site_symmetry_1
_geom_bond_site_symmetry_2
Tb1 O1 1_555 1_555
O1 N1 1_555 1_555
O2 Tb1 1_555 1_555
O3 N1 1_555 1_555
O4 Tb1 1_555 1_555
O5 Tb1 1_555 1_555
O6 N2 1_555 1_555
O7 Tb1 1_555 1_555
O8 Tb1 1_555 1_555
O9 N3 1_555 1_555
N1 O2 1_555 1_555
N2 O4 1_555 1_555
N3 O7 1_555 1_555
O10 Tb1 1_555 1_555
O11 Tb1 1_555 1_555
O12 N6 1_555 1_555
N4 O10 1_555 1_555
C1 N4 1_555 1_555
H1 C1 1_555 1_555
C2 C1 1_555 1_555
H2 C2 1_555 1_555
C3 C2 1_555 1_555
C4 C3 1_555 1_555
H3 C4 1_555 1_555
C5 N4 1_555 1_555
H4 C5 1_555 1_555
N5 O11 1_555 1_555
C6 N5 1_555 1_555
H5 C6 1_555 1_555
C7 C6 1_555 1_555
H6 C7 1_555 1_555
C8 H7 1_555 1_555
C9 N5 1_555 1_555
H8 C9 1_555 1_555
C10 C7 1_555 1_555
N6 C11 1_555 1_555
C11 H9 1_555 1_555
C12 C11 1_555 1_555
H10 C12 1_555 1_555
C13 C10 1_555 1_555
C14 C13 1_555 1_555
H11 C14 1_555 1_555
C15 N6 1_555 1_555
H12 C15 1_555 1_555
C16 C17 1_555 1_555
Cl1 C16 1_555 1_555
Cl2 C16 1_555 1_555
O13 C18 1_555 1_555
C3A C3 1_555 1_555
C2A C3A 1_555 1_555
C1A C2A 1_555 1_555
N4A C1A 1_555 1_555
O10A N4A 1_555 1_555
C5A N4A 1_555 1_555
C4A C3A 1_555 1_555
H3A C4A 1_555 1_555
H4A C5A 1_555 1_555
H1A C1A 1_555 1_555
H2A C2A 1_555 1_555
O11B N5B 1_555 1_555
O12B Tb1 1_555 1_555
N5B C6B 1_555 1_555
C6B H5B 1_555 1_555
C7B C6B 1_555 1_555
H6B C7B 1_555 1_555
C8B H7B 1_555 1_555
C9B N5B 1_555 1_555
H8B C9B 1_555 1_555
C10B C7B 1_555 1_555
N6B O12B 1_555 1_555
C11B N6B 1_555 1_555
H9B C11B 1_555 1_555
C12B C11B 1_555 1_555
H10B C12B 1_555 1_555
C13B C10B 1_555 1_555
C14B C13B 1_555 1_555
H11B C14B 1_555 1_555
C15B N6B 1_555 1_555
H12B C15B 1_555 1_555
Tb1A O10A 1_555 1_555
O1A Tb1A 1_555 1_555
O2A Tb1A 1_555 1_555
O3A N1A 1_555 1_555
N1A O1A 1_555 1_555
O4A Tb1A 1_555 1_555
O5A Tb1A 1_555 1_555
O6A N2A 1_555 1_555
N2A O4A 1_555 1_555
O7A Tb1A 1_555 1_555
O8A Tb1A 1_555 1_555
O9A N3A 1_555 1_555
N3A O7A 1_555 1_555
Tb1C O12 1_555 1_555
Tb1B O11B 1_555 1_555
O11A Tb1A 1_555 1_555
O12C Tb1A 1_555 1_555
O5 N2 1_555 1_555
O8 N3 1_555 1_555
C4 C5 1_555 1_555
C8 C10 1_555 1_555
C8 C9 1_555 1_555
C12 C13 1_555 1_555
C14 C15 1_555 1_555
C5A C4A 1_555 1_555
C8B C10B 1_555 1_555
C8B C9B 1_555 1_555
C12B C13B 1_555 1_555
C14B C15B 1_555 1_555
O2A N1A 1_555 1_555
O5A N2A 1_555 1_555
O8A N3A 1_555 1_555

#END
