
#######################################################################
#
#                 Cambridge Crystallographic Data Centre
#                                CCDC 
#
#######################################################################
#
# If this CIF has been generated from an entry in the Cambridge 
# Structural Database, then it will include bibliographic, chemical, 
# crystal, experimental, refinement or atomic coordinate data resulting 
# from the CCDC's data processing and validation procedures.
#
#######################################################################

data_EFOREY
_symmetry_cell_setting           monoclinic
_symmetry_space_group_name_H-M   'P 21/c'
_symmetry_Int_Tables_number      14
_space_group_name_Hall           '-P 2ybc'
loop_
_symmetry_equiv_pos_site_id
_symmetry_equiv_pos_as_xyz
1 x,y,z
2 -x,1/2+y,1/2-z
3 -x,-y,-z
4 x,1/2-y,1/2+z
_cell_length_a                   8.2417(16)
_cell_length_b                   10.946(2)
_cell_length_c                   11.113(2)
_cell_angle_alpha                90
_cell_angle_beta                 93.86(3)
_cell_angle_gamma                90
_cell_volume                     1000.27
loop_
_atom_site_label
_atom_site_type_symbol
_atom_site_fract_x
_atom_site_fract_y
_atom_site_fract_z
Ba1 Ba 0.262424(18) 0.000911(10) 0.536888(13)
O1 O 0.50609(19) 0.16120(18) 0.50094(13)
O2 O 0.2988(3) 0.51612(15) 0.78775(19)
O3 O 0.2258(2) -0.10716(16) 0.74256(16)
O4 O -0.1089(2) -0.31492(16) 1.08548(16)
N1 N 0.3728(3) 0.22241(17) 0.66030(18)
N2 N 0.3194(3) 0.31917(18) 0.72830(18)
N3 N 0.1232(3) -0.2684(2) 0.8378(2)
N4 N 0.0391(3) -0.32870(18) 0.9252(2)
C1 C 0.4543(3) 0.24961(19) 0.5656(2)
C2 C 0.4794(3) 0.3768(2) 0.5311(2)
C3 C 0.4266(3) 0.4719(2) 0.6054(2)
C4 C 0.3451(3) 0.4394(2) 0.7136(2)
C5 C 0.4471(3) 0.5945(2) 0.5748(2)
C6 C 0.1442(3) -0.1482(2) 0.8237(2)
C7 C 0.0682(3) -0.0710(2) 0.9123(2)
C8 C -0.0157(3) -0.1269(2) 1.00465(19)
C9 C -0.0294(3) -0.2609(2) 1.0062(2)
C10 C 0.0827(3) 0.0559(2) 0.9080(2)
H1 H 0.274(3) 0.299(3) 0.786(3)
H2 H 0.163(4) -0.307(3) 0.801(3)
H3 H 0.136(3) 0.088(3) 0.844(3)
H4 H 0.410(3) 0.657(2) 0.630(2)
O1B O 0.49391(19) 0.83880(18) 0.49906(13)
O2B O 0.7012(3) 0.48388(15) 0.21225(19)
N1B N 0.6272(3) 0.77759(17) 0.33970(18)
N2B N 0.6806(3) 0.68083(18) 0.27170(18)
C1B C 0.5457(3) 0.75039(19) 0.4344(2)
C2B C 0.5206(3) 0.6232(2) 0.4689(2)
C3B C 0.5734(3) 0.5281(2) 0.3946(2)
C4B C 0.6549(3) 0.5606(2) 0.2864(2)
C5B C 0.5529(3) 0.4055(2) 0.4252(2)
H1B H 0.726(3) 0.701(3) 0.214(3)
H4B H 0.590(3) 0.343(2) 0.370(2)
O3B O -0.2258(2) 0.10716(16) 1.25744(16)
O4B O 0.1089(2) 0.31492(16) 0.91452(16)
N3B N -0.1232(3) 0.2684(2) 1.1622(2)
N4B N -0.0391(3) 0.32870(18) 1.0748(2)
C6B C -0.1442(3) 0.1482(2) 1.1763(2)
C7B C -0.0682(3) 0.0710(2) 1.0877(2)
C8B C 0.0157(3) 0.1269(2) 0.99535(19)
C9B C 0.0294(3) 0.2609(2) 0.9938(2)
C10B C -0.0827(3) -0.0559(2) 1.0920(2)
H2B H -0.163(4) 0.307(3) 1.199(3)
H3B H -0.136(3) -0.088(3) 1.156(3)
Ba1B Ba -0.262424(18) -0.000911(10) 1.463112(13)
Ba1_2 Ba 0.262424(18) 1.000911(10) 0.536888(13)
Ba1A Ba -0.262424(18) -0.499089(10) 0.963112(13)
Ba1A_2 Ba -0.262424(18) 0.500911(10) 0.963112(13)
Ba1A_3 Ba 0.737576(18) 0.500911(10) -0.036888(13)
Ba1B_2 Ba 0.737576(18) -0.000911(10) 0.463112(13)
Ba1B_3 Ba 0.737576(18) 0.999089(10) 0.463112(13)
Ba1C Ba 0.262424(18) -0.500911(10) 1.036888(13)
Ba1C_2 Ba 0.262424(18) 0.499089(10) 1.036888(13)
O1_2 O -0.49391(19) 0.16120(18) 1.50094(13)
O1B_2 O -0.50609(19) -0.16120(18) 1.49906(13)
O1B_3 O 0.49391(19) -0.16120(18) 0.49906(13)
O2A O -0.2988(3) 0.01612(15) 1.71225(19)
O2C O 0.2988(3) -0.01612(15) 0.28775(19)
O4A O 0.1089(2) 0.18508(16) 0.41452(16)
O4C O -0.1089(2) -0.18508(16) 1.58548(16)
N1B_2 N -0.3728(3) -0.22241(17) 1.33970(18)
N4A N -0.0391(3) 0.17130(18) 0.5748(2)
N4A_2 N -0.0391(3) 0.17130(18) 1.5748(2)
N4C N 0.0391(3) -0.17130(18) 0.4252(2)
N4C_2 N 0.0391(3) -0.17130(18) 1.4252(2)
loop_
_geom_bond_atom_site_label_1
_geom_bond_atom_site_label_2
_geom_bond_site_symmetry_1
_geom_bond_site_symmetry_2
Ba1 O1 1_555 1_555
O1 C1 1_555 1_555
O2 C4 1_555 1_555
O3 Ba1 1_555 1_555
O4 C9 1_555 1_555
N1 Ba1 1_555 1_555
N2 N1 1_555 1_555
N3 N4 1_555 1_555
N4 C9 1_555 1_555
C1 N1 1_555 1_555
C2 C1 1_555 1_555
C3 C2 1_555 1_555
C4 N2 1_555 1_555
C5 C3 1_555 1_555
C6 O3 1_555 1_555
C7 C6 1_555 1_555
C8 C7 1_555 1_555
C9 C8 1_555 1_555
C10 C7 1_555 1_555
H1 N2 1_555 1_555
H2 N3 1_555 1_555
H3 C10 1_555 1_555
H4 C5 1_555 1_555
O1B C1B 1_555 1_555
O2B C4B 1_555 1_555
N1B N2B 1_555 1_555
N2B C4B 1_555 1_555
C1B N1B 1_555 1_555
C2B C5 1_555 1_555
C3B C2B 1_555 1_555
C4B C3B 1_555 1_555
C5B C2 1_555 1_555
H1B N2B 1_555 1_555
H4B C5B 1_555 1_555
O3B C6B 1_555 1_555
O4B C9B 1_555 1_555
N3B N4B 1_555 1_555
N4B C9B 1_555 1_555
C6B N3B 1_555 1_555
C7B C6B 1_555 1_555
C8B C10 1_555 1_555
C9B C8B 1_555 1_555
C10B C8 1_555 1_555
H2B N3B 1_555 1_555
H3B C10B 1_555 1_555
Ba1B O3B 1_555 1_555
Ba1_2 O1B 1_555 1_555
Ba1A O4 1_555 1_555
Ba1A_2 N4B 1_555 1_555
Ba1A_3 O2B 1_555 1_555
Ba1B_2 O1 1_555 1_555
Ba1B_3 O1B 1_555 1_555
Ba1C N4 1_555 1_555
Ba1C_2 O2 1_555 1_555
O1_2 Ba1B 1_555 1_555
O1B_2 Ba1B 1_555 1_555
O1B_3 Ba1 1_555 1_555
O2A Ba1B 1_555 1_555
O2C Ba1 1_555 1_555
O4A Ba1 1_555 1_555
O4C Ba1B 1_555 1_555
N1B_2 Ba1B 1_555 1_555
N4A Ba1 1_555 1_555
N4A_2 Ba1B 1_555 1_555
N4C Ba1 1_555 1_555
N4C_2 Ba1B 1_555 1_555
N3 C6 1_555 1_555
N4 Ba1A 1_555 1_555
C3 C4 1_555 1_555
N1B Ba1B_3 1_555 1_555
C1B C2B 1_555 1_555
C3B C5B 1_555 1_555
O4B Ba1C_2 1_555 1_555
N4B Ba1C_2 1_555 1_555
C7B C8B 1_555 1_555
C7B C10B 1_555 1_555
Ba1B_2 O1B_3 1_555 1_555

#END
