
#######################################################################
#
#                 Cambridge Crystallographic Data Centre
#                                CCDC 
#
#######################################################################
#
# If this CIF has been generated from an entry in the Cambridge 
# Structural Database, then it will include bibliographic, chemical, 
# crystal, experimental, refinement or atomic coordinate data resulting 
# from the CCDC's data processing and validation procedures.
#
#######################################################################

data_EFORIC
_symmetry_cell_setting           monoclinic
_symmetry_space_group_name_H-M   'C 2/m'
_symmetry_Int_Tables_number      12
_space_group_name_Hall           '-C 2y'
loop_
_symmetry_equiv_pos_site_id
_symmetry_equiv_pos_as_xyz
1 x,y,z
2 -x,y,-z
3 1/2+x,1/2+y,z
4 1/2-x,1/2+y,-z
5 -x,-y,-z
6 x,-y,z
7 1/2-x,1/2-y,-z
8 1/2+x,1/2-y,z
_cell_length_a                   19.372(3)
_cell_length_b                   23.436(3)
_cell_length_c                   4.7214(5)
_cell_angle_alpha                90
_cell_angle_beta                 94.727(11)
_cell_angle_gamma                90
_cell_volume                     2136.24
loop_
_atom_site_label
_atom_site_type_symbol
_atom_site_fract_x
_atom_site_fract_y
_atom_site_fract_z
Ba1 Ba 0.0000 0.15974(3) 0.0000
S1 S 0.2621(2) 0.0000 1.1576(6)
N1 N 0.1356(3) 0.1867(3) 0.2751(14)
N2 N 0.1992(3) 0.2062(3) 0.2054(13)
H1 H 0.1983 0.2304 0.0681
C1 C 0.1995(4) 0.1268(3) 0.6182(15)
C2 C 0.2636(4) 0.1483(3) 0.5453(16)
C3 C 0.3257(4) 0.1275(4) 0.6734(17)
H2 H 0.3676 0.1434 0.6307
C4 C 0.3247(5) 0.0829(4) 0.8649(18)
H3 H 0.3659 0.0686 0.9513
C5 C 0.2620(4) 0.0598(3) 0.9273(15)
C6 C 0.2000(5) 0.0808(3) 0.8138(16)
H4 H 0.1587 0.0652 0.8642
C7 C 0.1345(3) 0.1486(3) 0.4803(18)
C8 C 0.2626(3) 0.1923(3) 0.3241(15)
O1 O 0.0760(3) 0.1315(3) 0.5562(14)
O2 O 0.3164(2) 0.2146(2) 0.2401(11)
O3 O 0.1973(6) 0.0000 1.2859(18)
O4 O 0.3254(7) 0.0000 1.3362(19)
O5 O -0.0429(4) 0.2677(4) 0.2487(17)
N1E N 0.1356(3) -0.1867(3) 0.2751(14)
N2E N 0.1992(3) -0.2062(3) 0.2054(13)
H1E H 0.1983 -0.2304 0.0681
C1E C 0.1995(4) -0.1268(3) 0.6182(15)
C2E C 0.2636(4) -0.1483(3) 0.5453(16)
C3E C 0.3257(4) -0.1275(4) 0.6734(17)
H2E H 0.3676 -0.1434 0.6307
C4E C 0.3247(5) -0.0829(4) 0.8649(18)
H3E H 0.3659 -0.0686 0.9513
C5E C 0.2620(4) -0.0598(3) 0.9273(15)
C6E C 0.2000(5) -0.0808(3) 0.8138(16)
H4E H 0.1587 -0.0652 0.8642
C7E C 0.1345(3) -0.1486(3) 0.4803(18)
C8E C 0.2626(3) -0.1923(3) 0.3241(15)
O1E O 0.0760(3) -0.1315(3) 0.5562(14)
O2E O 0.3164(2) -0.2146(2) 0.2401(11)
O5A O 0.0429(4) 0.2677(4) -0.2487(17)
Ba1_2 Ba 0.0000 0.15974(3) 1.0000
Ba1D Ba 0.0000 -0.15974(3) 0.0000
Ba1D_2 Ba 0.0000 -0.15974(3) 1.0000
N1A N -0.1356(3) 0.1867(3) -0.2751(14)
O1_2 O 0.0760(3) 0.1315(3) -0.4438(14)
O1A O -0.0760(3) 0.1315(3) -0.5562(14)
O1A_2 O -0.0760(3) 0.1315(3) 0.4438(14)
O6 O 0.054(2) 0.0000 0.509(9)
loop_
_geom_bond_atom_site_label_1
_geom_bond_atom_site_label_2
_geom_bond_site_symmetry_1
_geom_bond_site_symmetry_2
Ba1 N1 1_555 1_555
S1 C5 1_555 1_555
N1 N2 1_555 1_555
N2 H1 1_555 1_555
C1 C2 1_555 1_555
C2 C3 1_555 1_555
C3 H2 1_555 1_555
C4 C3 1_555 1_555
H3 C4 1_555 1_555
C5 C4 1_555 1_555
C6 C1 1_555 1_555
H4 C6 1_555 1_555
C7 N1 1_555 1_555
C8 N2 1_555 1_555
O1 Ba1 1_555 1_555
O2 C8 1_555 1_555
O3 S1 1_555 1_555
O4 S1 1_555 1_555
O5 Ba1 1_555 1_555
N1E N2E 1_555 1_555
N2E H1E 1_555 1_555
C1E C2E 1_555 1_555
C2E C3E 1_555 1_555
C3E H2E 1_555 1_555
C4E C3E 1_555 1_555
H3E C4E 1_555 1_555
C5E S1 1_555 1_555
C6E C1E 1_555 1_555
H4E C6E 1_555 1_555
C7E N1E 1_555 1_555
C8E N2E 1_555 1_555
O1E C7E 1_555 1_555
O2E C8E 1_555 1_555
O5A Ba1 1_555 1_555
Ba1_2 O1 1_555 1_555
Ba1D N1E 1_555 1_555
Ba1D_2 O1E 1_555 1_555
N1A Ba1 1_555 1_555
O1_2 Ba1 1_555 1_555
O1A Ba1 1_555 1_555
O1A_2 Ba1 1_555 1_555
C1 C7 1_555 1_555
C2 C8 1_555 1_555
C5 C6 1_555 1_555
C7 O1 1_555 1_555
C1E C7E 1_555 1_555
C2E C8E 1_555 1_555
C4E C5E 1_555 1_555
C5E C6E 1_555 1_555
O1E Ba1D 1_555 1_555
Ba1_2 O1A_2 1_555 1_555

#END
