
#######################################################################
#
#                 Cambridge Crystallographic Data Centre
#                                CCDC 
#
#######################################################################
#
# If this CIF has been generated from an entry in the Cambridge 
# Structural Database, then it will include bibliographic, chemical, 
# crystal, experimental, refinement or atomic coordinate data resulting 
# from the CCDC's data processing and validation procedures.
#
#######################################################################

data_EFORUO
_symmetry_cell_setting           orthorhombic
_symmetry_space_group_name_H-M   'P n a 21'
_symmetry_Int_Tables_number      33
_space_group_name_Hall           'P 2c -2n'
loop_
_symmetry_equiv_pos_site_id
_symmetry_equiv_pos_as_xyz
1 x,y,z
2 -x,-y,1/2+z
3 1/2+x,1/2-y,z
4 1/2-x,1/2+y,1/2+z
_cell_length_a                   6.9812(4)
_cell_length_b                   14.8221(9)
_cell_length_c                   19.0460(17)
_cell_angle_alpha                90
_cell_angle_beta                 90
_cell_angle_gamma                90
_cell_volume                     1970.8
loop_
_atom_site_label
_atom_site_type_symbol
_atom_site_fract_x
_atom_site_fract_y
_atom_site_fract_z
Ba1 Ba 0.75477(6) -0.01916(3) 0.54712(3)
Ba2 Ba 0.79178(7) -0.64292(3) 0.45306(3)
O1 O 0.9173(9) -0.1246(3) 0.4435(4)
O2 O 0.9625(9) -0.4855(3) 0.4263(3)
O3 O 0.6823(13) -0.4743(4) 0.1850(4)
O4 O 0.7066(9) -0.3473(4) 0.1232(4)
O5 O 0.7694(10) -0.1727(4) 0.6196(4)
O6 O 0.8732(10) -0.2930(4) 0.8830(3)
O7 O 0.6298(8) -0.5172(3) 0.5504(4)
O8 O 0.9164(8) -0.5699(3) 0.5813(3)
O9 O 0.8995(11) 0.0815(5) 0.4285(4)
O10 O 0.5484(8) -0.7435(3) 0.5411(4)
N1 N 0.9634(11) -0.2637(4) 0.4881(4)
H1 H 0.9851 -0.2379 0.5278
N2 N 0.9764(13) -0.3579(4) 0.4885(4)
N3 N 0.8105(11) -0.1526(4) 0.7373(5)
H2 H 0.8108 -0.0954 0.7300
N4 N 0.8347(11) -0.1799(4) 0.8060(4)
C1 C 0.8244(13) -0.3908(5) 0.3045(5)
H3 H 0.8220 -0.4535 0.3029
C2 C 0.8776(12) -0.3474(5) 0.3666(5)
C3 C 0.8782(12) -0.2536(5) 0.3691(4)
C4 C 0.8297(13) -0.2037(5) 0.3098(5)
H4 H 0.8289 -0.1410 0.3120
C5 C 0.7825(12) -0.2468(6) 0.2473(6)
H5 H 0.7559 -0.2135 0.2071
C6 C 0.7755(14) -0.3417(6) 0.2458(5)
C7 C 0.9223(12) -0.2082(5) 0.4352(5)
C8 C 0.9380(11) -0.3998(5) 0.4292(4)
C9 C 0.7179(12) -0.3915(6) 0.1802(5)
C10 C 0.8339(15) -0.4846(5) 0.7178(5)
H6 H 0.8588 -0.5456 0.7246
C11 C 0.8476(13) -0.4263(5) 0.7739(5)
H7 H 0.8692 -0.4482 0.8190
C12 C 0.8283(13) -0.3323(6) 0.7617(5)
C13 C 0.7893(13) -0.3018(6) 0.6933(5)
C14 C 0.7611(16) -0.3628(5) 0.6393(6)
H8 H 0.7270 -0.3421 0.5950
C15 C 0.7831(11) -0.4539(6) 0.6506(5)
C16 C 0.7866(13) -0.2053(6) 0.6804(5)
C17 C 0.8478(12) -0.2657(5) 0.8192(5)
C18 C 0.7731(12) -0.5188(5) 0.5905(5)
Ba1B Ba 0.25477(6) -0.48084(3) 0.54712(3)
Ba1B_2 Ba 1.25477(6) -0.48084(3) 0.54712(3)
Ba1C Ba 0.74523(6) -0.51916(3) 0.04712(3)
Ba2A Ba 1.20822(7) -0.35708(3) 0.95306(3)
Ba2B Ba 0.29178(7) -0.85708(3) 0.45306(3)
Ba2B_2 Ba 1.29178(7) 0.14292(3) 0.45306(3)
Ba2C Ba 0.70822(7) -0.14292(3) 0.95306(3)
O2B O 0.4625(9) -0.0145(3) 0.4263(3)
O3C O 0.8177(13) 0.0257(4) 0.6850(4)
O4C O 0.7934(9) 0.1527(4) 0.6232(4)
O6A O 1.1268(10) -0.7070(4) 0.3830(3)
O6C O 0.6268(10) -0.7930(4) 0.3830(3)
O7B O 1.1298(8) 0.0172(3) 0.5504(4)
O8B O 0.4164(8) 0.0699(3) 0.5813(3)
O9B O 0.3995(11) -0.5815(5) 0.4285(4)
O10B O 1.0484(8) -0.7565(3) 0.5411(4)
N2B N 0.4764(13) -0.1421(4) 0.4885(4)
N4C N 0.6653(11) -0.6799(4) 0.3060(4)
loop_
_geom_bond_atom_site_label_1
_geom_bond_atom_site_label_2
_geom_bond_site_symmetry_1
_geom_bond_site_symmetry_2
Ba1 O1 1_555 1_555
Ba2 O2 1_555 1_555
O1 C7 1_555 1_555
O2 C8 1_555 1_555
O3 C9 1_555 1_555
O4 C9 1_555 1_555
O5 Ba1 1_555 1_555
O6 C17 1_555 1_555
O7 Ba2 1_555 1_555
O8 Ba2 1_555 1_555
O9 Ba1 1_555 1_555
O10 Ba2 1_555 1_555
N1 H1 1_555 1_555
N2 N1 1_555 1_555
N3 H2 1_555 1_555
N4 N3 1_555 1_555
C1 H3 1_555 1_555
C2 C1 1_555 1_555
C3 C2 1_555 1_555
C4 C3 1_555 1_555
H4 C4 1_555 1_555
C5 C4 1_555 1_555
H5 C5 1_555 1_555
C6 C1 1_555 1_555
C7 N1 1_555 1_555
C8 N2 1_555 1_555
C9 C6 1_555 1_555
C10 H6 1_555 1_555
C11 C10 1_555 1_555
H7 C11 1_555 1_555
C12 C11 1_555 1_555
C13 C12 1_555 1_555
C14 C13 1_555 1_555
H8 C14 1_555 1_555
C15 C10 1_555 1_555
C16 O5 1_555 1_555
C17 N4 1_555 1_555
C18 O7 1_555 1_555
Ba1B O7 1_555 1_555
Ba1B_2 O2 1_555 1_555
Ba1C O3 1_555 1_555
Ba2A O6 1_555 1_555
Ba2B O10 1_555 1_555
Ba2B_2 O9 1_555 1_555
Ba2C O6 1_555 1_555
O2B Ba1 1_555 1_555
O3C Ba1 1_555 1_555
O4C Ba1 1_555 1_555
O6A Ba2 1_555 1_555
O6C Ba2 1_555 1_555
O7B Ba1 1_555 1_555
O8B Ba1 1_555 1_555
O9B Ba2 1_555 1_555
O10B Ba2 1_555 1_555
N2B Ba1 1_555 1_555
N4C Ba2 1_555 1_555
O4 Ba1C 1_555 1_555
O8 C18 1_555 1_555
O8 Ba1B_2 1_555 1_555
N2 Ba1B_2 1_555 1_555
N3 C16 1_555 1_555
N4 Ba2C 1_555 1_555
C2 C8 1_555 1_555
C3 C7 1_555 1_555
C5 C6 1_555 1_555
C12 C17 1_555 1_555
C13 C16 1_555 1_555
C14 C15 1_555 1_555
C15 C18 1_555 1_555
Ba1B O9B 1_555 1_555
Ba2B O6C 1_555 1_555
Ba2B_2 O7B 1_555 1_555

#END
