
#######################################################################
#
#                 Cambridge Crystallographic Data Centre
#                                CCDC 
#
#######################################################################
#
# If this CIF has been generated from an entry in the Cambridge 
# Structural Database, then it will include bibliographic, chemical, 
# crystal, experimental, refinement or atomic coordinate data resulting 
# from the CCDC's data processing and validation procedures.
#
#######################################################################

data_EFOROI
_symmetry_cell_setting           tetragonal
_symmetry_space_group_name_H-M   'I 41/a'
_symmetry_Int_Tables_number      88
_space_group_name_Hall           '-I 4ad'
loop_
_symmetry_equiv_pos_site_id
_symmetry_equiv_pos_as_xyz
1 x,y,z
2 1/2-x,-y,1/2+z
3 3/4-y,1/4+x,1/4+z
4 3/4+y,3/4-x,3/4+z
5 1/2+x,1/2+y,1/2+z
6 -x,1/2-y,z
7 1/4-y,3/4+x,3/4+z
8 1/4+y,1/4-x,1/4+z
9 -x,-y,-z
10 1/2+x,y,1/2-z
11 1/4+y,3/4-x,3/4-z
12 1/4-y,1/4+x,1/4-z
13 1/2-x,1/2-y,1/2-z
14 x,1/2+y,-z
15 3/4+y,1/4-x,1/4-z
16 3/4-y,3/4+x,3/4-z
_cell_length_a                   17.6446(9)
_cell_length_b                   17.6446(9)
_cell_length_c                   22.742(3)
_cell_angle_alpha                90
_cell_angle_beta                 90
_cell_angle_gamma                90
_cell_volume                     7080.31
loop_
_atom_site_label
_atom_site_type_symbol
_atom_site_fract_x
_atom_site_fract_y
_atom_site_fract_z
Zn1 Zn 0.15973(3) 0.77630(3) -0.06183(2)
Zn2 Zn 0.36171(3) 0.72046(3) 0.10681(2)
O1 O 0.1130(2) 0.70098(18) -0.11948(13)
O2 O 0.1422(2) 0.7834(2) -0.34391(15)
O3 O 0.41661(18) 0.79546(18) 0.16707(12)
O4 O 0.3610(2) 0.7174(2) 0.39137(14)
O5 O 0.1950(2) 0.68921(18) -0.01099(15)
O6 O 0.24090(19) 0.83397(17) -0.01128(14)
O7 O 0.32161(19) 0.80923(17) 0.06189(14)
O8 O 0.27877(19) 0.66235(17) 0.05921(13)
C1 C 0.2257(3) 0.8706(3) -0.2553(2)
H1 H 0.2319 0.8895 -0.2932
C2 C 0.2636(3) 0.9029(3) -0.2089(3)
H2 H 0.2971 0.9428 -0.2151
C3 C 0.2512(3) 0.8749(3) -0.1525(3)
H3 H 0.2771 0.8969 -0.1213
C4 C 0.1684(3) 0.7858(2) -0.18731(19)
C5 C 0.1777(3) 0.8091(3) -0.2448(2)
C6 C 0.1194(2) 0.7215(2) -0.17281(18)
C7 C 0.1362(3) 0.7683(3) -0.2910(2)
C8 C 0.2766(3) 0.6393(3) 0.2990(2)
H4 H 0.2627 0.6246 0.3367
C9 C 0.2434(3) 0.6065(3) 0.2507(2)
H5 H 0.2065 0.5694 0.2553
C10 C 0.2659(3) 0.6297(3) 0.1944(2)
H6 H 0.2440 0.6064 0.1619
C11 C 0.3499(2) 0.7160(2) 0.23307(19)
C12 C 0.3317(3) 0.6953(3) 0.2902(2)
C13 C 0.4029(2) 0.7773(2) 0.22264(18)
C14 C 0.3704(3) 0.7339(3) 0.3386(2)
C15 C 0.2718(3) 0.7908(2) 0.02503(19)
C16 C 0.2465(3) 0.7065(2) 0.02467(19)
N1 N 0.0838(2) 0.6855(2) -0.21490(15)
H7 H 0.0556 0.6471 -0.2070
N2 N 0.0922(2) 0.7104(2) -0.27290(16)
N3 N 0.2040(2) 0.8183(2) -0.14128(17)
N4 N 0.4345(2) 0.8134(2) 0.26544(15)
H8 H 0.4653 0.8503 0.2590
N5 N 0.4171(2) 0.7909(2) 0.32201(16)
N6 N 0.3171(2) 0.6836(2) 0.18559(16)
Zn2N Zn 0.47046(3) 0.88829(3) 0.14319(2)
O3K O 0.45454(18) 0.66661(18) 0.08293(12)
O9 O -0.1464(7) 0.9841(7) 0.1459(5)
loop_
_geom_bond_atom_site_label_1
_geom_bond_atom_site_label_2
_geom_bond_site_symmetry_1
_geom_bond_site_symmetry_2
Zn1 O1 1_555 1_555
Zn2 O3 1_555 1_555
O1 C6 1_555 1_555
O2 C7 1_555 1_555
O3 C13 1_555 1_555
O4 C14 1_555 1_555
O5 Zn1 1_555 1_555
O6 Zn1 1_555 1_555
O7 Zn2 1_555 1_555
O8 Zn2 1_555 1_555
C1 H1 1_555 1_555
C2 C1 1_555 1_555
H2 C2 1_555 1_555
C3 C2 1_555 1_555
H3 C3 1_555 1_555
C4 C5 1_555 1_555
C5 C1 1_555 1_555
C6 C4 1_555 1_555
C7 C5 1_555 1_555
C8 H4 1_555 1_555
C9 C8 1_555 1_555
H5 C9 1_555 1_555
C10 C9 1_555 1_555
H6 C10 1_555 1_555
C11 C12 1_555 1_555
C12 C8 1_555 1_555
C13 C11 1_555 1_555
C14 C12 1_555 1_555
C15 O6 1_555 1_555
C16 O5 1_555 1_555
N1 C6 1_555 1_555
H7 N1 1_555 1_555
N2 C7 1_555 1_555
N3 Zn1 1_555 1_555
N4 C13 1_555 1_555
H8 N4 1_555 1_555
N5 C14 1_555 1_555
N6 Zn2 1_555 1_555
Zn2N O3 1_555 1_555
O3K Zn2 1_555 1_555
O7 C15 1_555 1_555
O8 C16 1_555 1_555
C3 N3 1_555 1_555
C4 N3 1_555 1_555
C10 N6 1_555 1_555
C11 N6 1_555 1_555
C15 C16 1_555 1_555
N1 N2 1_555 1_555
N4 N5 1_555 1_555

#END
