
#######################################################################
#
#                 Cambridge Crystallographic Data Centre
#                                CCDC 
#
#######################################################################
#
# If this CIF has been generated from an entry in the Cambridge 
# Structural Database, then it will include bibliographic, chemical, 
# crystal, experimental, refinement or atomic coordinate data resulting 
# from the CCDC's data processing and validation procedures.
#
#######################################################################

data_EFOVAY
_symmetry_cell_setting           monoclinic
_symmetry_space_group_name_H-M   'C 2/c'
_symmetry_Int_Tables_number      15
_space_group_name_Hall           '-C 2yn'
loop_
_symmetry_equiv_pos_site_id
_symmetry_equiv_pos_as_xyz
1 x,y,z
2 -x,y,1/2-z
3 1/2+x,1/2+y,z
4 1/2-x,1/2+y,1/2-z
5 -x,-y,-z
6 x,-y,1/2+z
7 1/2-x,1/2-y,-z
8 1/2+x,1/2-y,1/2+z
_cell_length_a                   17.1629(6)
_cell_length_b                   16.5904(6)
_cell_length_c                   16.1754(6)
_cell_angle_alpha                90
_cell_angle_beta                 112.7500(10)
_cell_angle_gamma                90
_cell_volume                     4247.45
loop_
_atom_site_label
_atom_site_type_symbol
_atom_site_fract_x
_atom_site_fract_y
_atom_site_fract_z
Cd1 Cd 0.82876(2) 0.36490(2) 0.33409(2)
S1 S 0.70735(4) 0.04725(4) 0.52458(5)
O1 O 0.74434(17) 0.25342(15) 0.35829(18)
O2 O 0.87942(18) 0.25708(16) 0.4360(2)
O3 O 0.3962(2) 0.0067(3) 0.3083(3)
O4 O 0.46305(16) -0.09208(16) 0.3880(2)
N1 N 0.70307(15) 0.42967(14) 0.24962(15)
N2 N 0.33264(16) 0.79265(14) 0.21114(16)
C1 C 0.8091(2) 0.22584(17) 0.4186(2)
C2 C 0.80242(19) 0.15458(18) 0.4751(2)
H1 H 0.8441 0.1145 0.4767
H2 H 0.8160 0.1729 0.5361
C3 C 0.7164(2) 0.11553(19) 0.4410(2)
H3 H 0.7077 0.0860 0.3864
H4 H 0.6731 0.1568 0.4271
C4 C 0.61832(19) -0.01437(18) 0.4574(2)
H5 H 0.6346 -0.0461 0.4163
H6 H 0.6056 -0.0516 0.4968
C5 C 0.53858(19) 0.03222(19) 0.4036(2)
H7 H 0.5473 0.0613 0.3559
H8 H 0.5279 0.0716 0.4423
C6 C 0.4610(2) -0.0225(2) 0.3627(2)
C7 C 0.6300(2) 0.3896(2) 0.2218(2)
H9 H 0.6319 0.3343 0.2313
C8 C 0.5522(2) 0.4251(2) 0.1799(2)
H10 H 0.5035 0.3938 0.1616
C9 C 0.54651(19) 0.5056(2) 0.16520(18)
C10 C 0.6218(2) 0.5486(2) 0.1922(2)
H11 H 0.6209 0.6038 0.1820
C11 C 0.6989(2) 0.50891(19) 0.2345(2)
H12 H 0.7487 0.5386 0.2527
C12 C 0.4609(2) 0.5476(2) 0.1242(2)
H13 H 0.4170 0.5069 0.1057
H14 H 0.4530 0.5804 0.1699
C13 C 0.4507(3) 0.5995(3) 0.0458(2)
H15 H 0.4565 0.5668 -0.0012
H16 H 0.4951 0.6399 0.0634
C14 C 0.3633(3) 0.6423(2) 0.0087(2)
H17 H 0.3586 0.6742 -0.0433
H18 H 0.3190 0.6019 -0.0105
C15 C 0.3914(2) 0.80817(19) 0.1785(2)
H19 H 0.4270 0.8520 0.2017
C16 C 0.4027(3) 0.7630(2) 0.1124(3)
H20 H 0.4444 0.7768 0.0916
C17 C 0.3506(2) 0.69625(18) 0.07712(19)
C18 C 0.2882(2) 0.6823(2) 0.1088(2)
H21 H 0.2509 0.6397 0.0861
C19 C 0.2810(2) 0.7311(2) 0.1740(2)
H22 H 0.2375 0.7206 0.1934
Cd1B Cd 0.32876(2) -0.13510(2) 0.33409(2)
Cd1B_2 Cd 0.32876(2) 0.86490(2) 0.33409(2)
Cd1F Cd 0.67124(2) 0.13510(2) 0.66591(2)
S1F S 0.79265(4) 0.45275(4) 0.47542(5)
O3B O 0.8962(2) 0.5067(3) 0.3083(3)
O4B O 0.96305(16) 0.40792(16) 0.3880(2)
N2B N 0.83264(16) 0.29265(14) 0.21114(16)
O5 O 0.6056(4) 0.1707(4) 0.2203(5)
O6 O 0.4649(9) 0.2508(6) 0.1241(10)
O7 O 0.5478(10) 0.2287(10) 0.0787(9)
loop_
_geom_bond_atom_site_label_1
_geom_bond_atom_site_label_2
_geom_bond_site_symmetry_1
_geom_bond_site_symmetry_2
Cd1 O1 1_555 1_555
S1 C3 1_555 1_555
O1 C1 1_555 1_555
O2 Cd1 1_555 1_555
O3 C6 1_555 1_555
O4 C6 1_555 1_555
N1 Cd1 1_555 1_555
N2 C15 1_555 1_555
C1 O2 1_555 1_555
C2 C1 1_555 1_555
H1 C2 1_555 1_555
H2 C2 1_555 1_555
C3 C2 1_555 1_555
H3 C3 1_555 1_555
H4 C3 1_555 1_555
C4 S1 1_555 1_555
H5 C4 1_555 1_555
H6 C4 1_555 1_555
C5 C4 1_555 1_555
H7 C5 1_555 1_555
H8 C5 1_555 1_555
C6 C5 1_555 1_555
C7 N1 1_555 1_555
H9 C7 1_555 1_555
C8 C7 1_555 1_555
H10 C8 1_555 1_555
C9 C8 1_555 1_555
C10 C9 1_555 1_555
H11 C10 1_555 1_555
C11 N1 1_555 1_555
H12 C11 1_555 1_555
C12 C9 1_555 1_555
H13 C12 1_555 1_555
H14 C12 1_555 1_555
C13 C12 1_555 1_555
H15 C13 1_555 1_555
H16 C13 1_555 1_555
C14 C13 1_555 1_555
H17 C14 1_555 1_555
H18 C14 1_555 1_555
C15 H19 1_555 1_555
C16 C15 1_555 1_555
H20 C16 1_555 1_555
C17 C14 1_555 1_555
C18 C17 1_555 1_555
H21 C18 1_555 1_555
C19 N2 1_555 1_555
H22 C19 1_555 1_555
Cd1B O3 1_555 1_555
Cd1B_2 N2 1_555 1_555
Cd1F S1 1_555 1_555
S1F Cd1 1_555 1_555
O3B Cd1 1_555 1_555
O4B Cd1 1_555 1_555
N2B Cd1 1_555 1_555
O4 Cd1B 1_555 1_555
C10 C11 1_555 1_555
C16 C17 1_555 1_555
C18 C19 1_555 1_555

#END
