
#######################################################################
#
#                 Cambridge Crystallographic Data Centre
#                                CCDC 
#
#######################################################################
#
# If this CIF has been generated from an entry in the Cambridge 
# Structural Database, then it will include bibliographic, chemical, 
# crystal, experimental, refinement or atomic coordinate data resulting 
# from the CCDC's data processing and validation procedures.
#
#######################################################################

data_EFOWUT
_symmetry_cell_setting           orthorhombic
_symmetry_space_group_name_H-M   'P n n a'
_symmetry_Int_Tables_number      52
_space_group_name_Hall           '-P 2a 2bc'
loop_
_symmetry_equiv_pos_site_id
_symmetry_equiv_pos_as_xyz
1 x,y,z
2 1/2-x,-y,z
3 1/2-x,1/2+y,1/2-z
4 x,1/2-y,1/2-z
5 -x,-y,-z
6 1/2+x,y,-z
7 1/2+x,1/2-y,1/2+z
8 -x,1/2+y,1/2+z
_cell_length_a                   8.7335(18)
_cell_length_b                   17.358(4)
_cell_length_c                   14.769(3)
_cell_angle_alpha                90
_cell_angle_beta                 90
_cell_angle_gamma                90
_cell_volume                     2238.92
loop_
_atom_site_label
_atom_site_type_symbol
_atom_site_fract_x
_atom_site_fract_y
_atom_site_fract_z
Zn1 Zn 0.09707(7) 0.7500 0.2500
Br1 Br -0.2500 0.5000 0.58032(5)
O1 O -0.0188(3) 0.66918(16) 0.3088(2)
O2 O -0.0896(6) 0.6200(2) 0.1786(2)
N1 N 0.2400(4) 0.72427(18) 0.1476(2)
N2 N 0.4118(4) 0.66491(19) 0.0652(2)
C1 C -0.0877(5) 0.6196(3) 0.2610(3)
C2 C -0.1723(5) 0.5578(2) 0.3120(3)
C3 C -0.1723(5) 0.5575(2) 0.4064(3)
H1 H -0.1204 0.5955 0.4384
C4 C -0.2500 0.5000 0.4518(4)
C5 C -0.2500 0.5000 0.2664(4)
H2 H -0.2500 0.5000 0.2034
C6 C 0.2473(5) 0.7587(2) 0.0635(3)
H3 H 0.1885 0.8005 0.0450
C7 C 0.3525(5) 0.7224(3) 0.0124(3)
H4 H 0.3796 0.7342 -0.0469
C8 C 0.3423(5) 0.6675(2) 0.1466(3)
C9 C 0.3761(7) 0.6163(3) 0.2234(3)
H5 H 0.4810 0.5999 0.2203
H6 H 0.3103 0.5720 0.2208
H7 H 0.3591 0.6434 0.2791
C10 C 0.5226(5) 0.6063(2) 0.0362(3)
H8 H 0.5981 0.5986 0.0835
H9 H 0.5756 0.6241 -0.0176
C11 C 0.4443(5) 0.5307(2) 0.0160(3)
H10 H 0.3673 0.5389 -0.0304
H11 H 0.3927 0.5127 0.0701
O1A O -0.4812(3) 0.33082(16) 0.3088(2)
O2A O -0.4104(6) 0.3800(2) 0.1786(2)
C1A C -0.4123(5) 0.3804(3) 0.2610(3)
C2A C -0.3277(5) 0.4422(2) 0.3120(3)
C3A C -0.3277(5) 0.4425(2) 0.4064(3)
H1A H -0.3796 0.4045 0.4384
N1D N 0.7600(4) 0.27573(18) -0.1476(2)
N2D N 0.5882(4) 0.33509(19) -0.0652(2)
C6D C 0.7527(5) 0.2413(2) -0.0635(3)
H3D H 0.8115 0.1995 -0.0450
C7D C 0.6475(5) 0.2776(3) -0.0124(3)
H4D H 0.6204 0.2658 0.0469
C8D C 0.6577(5) 0.3325(2) -0.1466(3)
C9D C 0.6239(7) 0.3837(3) -0.2234(3)
H5D H 0.5190 0.4001 -0.2203
H6D H 0.6897 0.4280 -0.2208
H7D H 0.6409 0.3566 -0.2791
C10D C 0.4774(5) 0.3937(2) -0.0362(3)
H8D H 0.4019 0.4014 -0.0835
H9D H 0.4244 0.3759 0.0176
C11D C 0.5557(5) 0.4693(2) -0.0160(3)
H10D H 0.6327 0.4611 0.0304
H11D H 0.6073 0.4873 -0.0701
Zn1A Zn -0.59707(7) 0.2500 0.2500
Zn1D Zn 0.90293(7) 0.2500 -0.2500
O1C O -0.0188(3) 0.83082(16) 0.1912(2)
N1C N 0.2400(4) 0.77573(18) 0.3524(2)
loop_
_geom_bond_atom_site_label_1
_geom_bond_atom_site_label_2
_geom_bond_site_symmetry_1
_geom_bond_site_symmetry_2
Zn1 O1 1_555 1_555
Br1 C4 1_555 1_555
O1 C1 1_555 1_555
O2 C1 1_555 1_555
N1 Zn1 1_555 1_555
N2 C7 1_555 1_555
C1 C2 1_555 1_555
C2 C3 1_555 1_555
C3 H1 1_555 1_555
C4 C3 1_555 1_555
C5 C2 1_555 1_555
H2 C5 1_555 1_555
C6 N1 1_555 1_555
H3 C6 1_555 1_555
C7 C6 1_555 1_555
H4 C7 1_555 1_555
C8 N1 1_555 1_555
C9 C8 1_555 1_555
H5 C9 1_555 1_555
H6 C9 1_555 1_555
H7 C9 1_555 1_555
C10 N2 1_555 1_555
H8 C10 1_555 1_555
H9 C10 1_555 1_555
C11 C10 1_555 1_555
H10 C11 1_555 1_555
H11 C11 1_555 1_555
O1A C1A 1_555 1_555
O2A C1A 1_555 1_555
C1A C2A 1_555 1_555
C2A C5 1_555 1_555
C3A C4 1_555 1_555
H1A C3A 1_555 1_555
N1D C6D 1_555 1_555
N2D C7D 1_555 1_555
C6D H3D 1_555 1_555
C7D C6D 1_555 1_555
H4D C7D 1_555 1_555
C8D N1D 1_555 1_555
C9D C8D 1_555 1_555
H5D C9D 1_555 1_555
H6D C9D 1_555 1_555
H7D C9D 1_555 1_555
C10D N2D 1_555 1_555
H8D C10D 1_555 1_555
H9D C10D 1_555 1_555
C11D C11 1_555 1_555
H10D C11D 1_555 1_555
H11D C11D 1_555 1_555
Zn1A O1A 1_555 1_555
Zn1D N1D 1_555 1_555
O1C Zn1 1_555 1_555
N1C Zn1 1_555 1_555
N2 C8 1_555 1_555
C2A C3A 1_555 1_555
N2D C8D 1_555 1_555
C10D C11D 1_555 1_555

#END
