
#######################################################################
#
#                 Cambridge Crystallographic Data Centre
#                                CCDC 
#
#######################################################################
#
# If this CIF has been generated from an entry in the Cambridge 
# Structural Database, then it will include bibliographic, chemical, 
# crystal, experimental, refinement or atomic coordinate data resulting 
# from the CCDC's data processing and validation procedures.
#
#######################################################################

data_EFOYAB
_symmetry_cell_setting           orthorhombic
_symmetry_space_group_name_H-M   'P b c n'
_symmetry_Int_Tables_number      60
_space_group_name_Hall           '-P 2n 2ab'
loop_
_symmetry_equiv_pos_site_id
_symmetry_equiv_pos_as_xyz
1 x,y,z
2 1/2-x,1/2-y,1/2+z
3 -x,y,1/2-z
4 1/2+x,1/2-y,-z
5 -x,-y,-z
6 1/2+x,1/2+y,1/2-z
7 x,-y,1/2+z
8 1/2-x,1/2+y,z
_cell_length_a                   8.947(4)
_cell_length_b                   19.616(9)
_cell_length_c                   10.086(5)
_cell_angle_alpha                90
_cell_angle_beta                 90
_cell_angle_gamma                90
_cell_volume                     1770.14
loop_
_atom_site_label
_atom_site_type_symbol
_atom_site_fract_x
_atom_site_fract_y
_atom_site_fract_z
Gd1 Gd 0.5000 0.488459(12) 0.7500
O1 O 0.2544(3) 0.44901(14) 0.8360(3)
O2 O 0.6974(3) 0.53999(17) 0.8832(3)
H1 H 0.6788 0.5346 0.9621
O3 O 0.6016(3) 0.56729(13) 0.6028(3)
O4 O 0.5438(3) 0.60172(14) 0.3996(3)
N1 N 0.6473(4) 0.82090(19) 0.6303(4)
C1 C 0.6959(6) 0.7698(2) 0.7061(5)
H2 H 0.7459 0.7805 0.7842
C2 C 0.6758(5) 0.7017(2) 0.6748(4)
H3 H 0.7109 0.6676 0.7308
C3 C 0.6022(4) 0.68542(18) 0.5581(3)
C4 C 0.5484(5) 0.7379(2) 0.4802(4)
H4 H 0.4964 0.7286 0.4024
C5 C 0.5731(6) 0.8050(2) 0.5197(5)
H5 H 0.5365 0.8401 0.4670
C6 C 0.5808(4) 0.61231(18) 0.5171(3)
H6 H 0.7850(19) 0.543(3) 0.860(5)
H7 H 0.186(6) 0.476(3) 0.820(9)
H8 H 0.219(7) 0.4105(14) 0.832(7)
O1B O 0.7456(3) 0.44901(14) 0.6640(3)
O2B O 0.3026(3) 0.53999(17) 0.6168(3)
H1B H 0.3212 0.5346 0.5379
O3B O 0.3984(3) 0.56729(13) 0.8972(3)
O4B O 0.4562(3) 0.60172(14) 1.1004(3)
N1B N 0.3527(4) 0.82090(19) 0.8697(4)
C1B C 0.3041(6) 0.7698(2) 0.7939(5)
H2B H 0.2541 0.7805 0.7158
C2B C 0.3242(5) 0.7017(2) 0.8252(4)
H3B H 0.2891 0.6676 0.7692
C3B C 0.3978(4) 0.68542(18) 0.9419(3)
C4B C 0.4516(5) 0.7379(2) 1.0198(4)
H4B H 0.5036 0.7286 1.0976
C5B C 0.4269(6) 0.8050(2) 0.9803(5)
H5B H 0.4635 0.8401 1.0330
C6B C 0.4192(4) 0.61231(18) 0.9829(3)
H6B H 0.2150(19) 0.543(3) 0.640(5)
H7B H 0.814(6) 0.476(3) 0.680(9)
H8B H 0.781(7) 0.4105(14) 0.668(7)
Gd1D Gd 0.5000 0.511541(12) 0.2500
Gd1D_2 Gd 0.5000 0.511541(12) 1.2500
O4D O 0.4562(3) 0.39828(14) 0.6004(3)
O4F O 0.5438(3) 0.39828(14) 0.8996(3)
Cl1 Cl 0.0000 0.55638(11) 0.7500
loop_
_geom_bond_atom_site_label_1
_geom_bond_atom_site_label_2
_geom_bond_site_symmetry_1
_geom_bond_site_symmetry_2
Gd1 O1 1_555 1_555
O1 H7 1_555 1_555
O2 Gd1 1_555 1_555
H1 O2 1_555 1_555
O3 Gd1 1_555 1_555
O4 C6 1_555 1_555
N1 C1 1_555 1_555
C1 H2 1_555 1_555
C2 C1 1_555 1_555
H3 C2 1_555 1_555
C3 C2 1_555 1_555
C4 C3 1_555 1_555
H4 C4 1_555 1_555
C5 N1 1_555 1_555
H5 C5 1_555 1_555
C6 O3 1_555 1_555
H6 O2 1_555 1_555
H8 O1 1_555 1_555
O1B Gd1 1_555 1_555
O2B Gd1 1_555 1_555
H1B O2B 1_555 1_555
O3B Gd1 1_555 1_555
O4B C6B 1_555 1_555
N1B C1B 1_555 1_555
C1B H2B 1_555 1_555
C2B C1B 1_555 1_555
H3B C2B 1_555 1_555
C3B C2B 1_555 1_555
C4B C3B 1_555 1_555
H4B C4B 1_555 1_555
C5B N1B 1_555 1_555
H5B C5B 1_555 1_555
C6B O3B 1_555 1_555
H6B O2B 1_555 1_555
H7B O1B 1_555 1_555
H8B O1B 1_555 1_555
Gd1D O4 1_555 1_555
Gd1D_2 O4B 1_555 1_555
O4D Gd1 1_555 1_555
O4F Gd1 1_555 1_555
C3 C6 1_555 1_555
C4 C5 1_555 1_555
C3B C6B 1_555 1_555
C4B C5B 1_555 1_555

#END
