
#######################################################################
#
#                 Cambridge Crystallographic Data Centre
#                                CCDC 
#
#######################################################################
#
# If this CIF has been generated from an entry in the Cambridge 
# Structural Database, then it will include bibliographic, chemical, 
# crystal, experimental, refinement or atomic coordinate data resulting 
# from the CCDC's data processing and validation procedures.
#
#######################################################################

data_EFOYEF
_symmetry_cell_setting           monoclinic
_symmetry_space_group_name_H-M   'C 2/c'
_symmetry_Int_Tables_number      15
_space_group_name_Hall           '-C 2yn'
loop_
_symmetry_equiv_pos_site_id
_symmetry_equiv_pos_as_xyz
1 x,y,z
2 -x,y,1/2-z
3 1/2+x,1/2+y,z
4 1/2-x,1/2+y,1/2-z
5 -x,-y,-z
6 x,-y,1/2+z
7 1/2-x,1/2-y,-z
8 1/2+x,1/2-y,1/2+z
_cell_length_a                   24.2129(9)
_cell_length_b                   20.7750(8)
_cell_length_c                   15.2980(6)
_cell_angle_alpha                90
_cell_angle_beta                 128.32
_cell_angle_gamma                90
_cell_volume                     6037.38
loop_
_atom_site_label
_atom_site_type_symbol
_atom_site_fract_x
_atom_site_fract_y
_atom_site_fract_z
Hg1 Hg 0.218447(6) 0.525254(7) 0.427862(11)
Cl1 Cl 0.09472(4) 0.48199(4) 0.33765(6)
Cl2 Cl 0.27574(5) 0.52337(5) 0.62741(7)
Cl3 Cl 0.26485(4) 0.45419(5) 0.35815(7)
Cl4 Cl 0.20054(5) 0.63560(5) 0.35087(7)
Eu1 Eu -0.118260(12) 0.755045(11) -0.382089(19)
O1 O -0.17361(9) 0.65187(11) -0.46293(15)
H1 H -0.1849 0.6493 -0.5256
O2 O -0.18129(10) 0.85844(11) -0.43836(18)
H2 H -0.2226 0.8521 -0.4660
O3 O -0.05638(10) 0.83519(11) -0.39804(17)
O4 O 0.06107(10) 0.81278(11) -0.28230(17)
O5 O -0.07092(10) 0.68064(10) -0.24496(15)
O6 O 0.04484(9) 0.69925(11) -0.09995(16)
O7 O -0.20178(11) 0.74968(10) -0.35931(18)
O8 O -0.31614(11) 0.73851(11) -0.42633(18)
N1 N 0.03428(17) 0.95344(18) -0.5659(3)
H3 H 0.0405 0.9768 -0.6056
N2 N -0.03310(16) 0.55178(17) 0.0606(2)
H4 H -0.0380 0.5294 0.1027
N3 N -0.17980(16) 0.69925(16) -0.0252(2)
H5 H -0.1650 0.6885 0.0404
C1 C 0.00535(12) 0.84070(14) -0.3668(2)
C2 C 0.01487(13) 0.88306(16) -0.4358(2)
C3 C 0.08673(17) 0.9006(2) -0.3924(3)
H6 H 0.1270 0.8896 -0.3216
C4 C 0.0877(2) 0.9355(2) -0.4694(4)
H7 H 0.1317 0.9468 -0.4481
C5 C -0.0311(2) 0.9370(2) -0.6069(3)
H8 H -0.0691 0.9481 -0.6795
C6 C -0.04241(19) 0.90247(19) -0.5393(3)
H9 H -0.0878 0.8932 -0.5648
C7 C -0.01288(13) 0.67047(15) -0.1428(2)
C8 C -0.01996(13) 0.62611(15) -0.0753(2)
C9 C 0.03802(17) 0.61730(18) 0.0397(3)
H10 H 0.0814 0.6356 0.0690
C10 C 0.03037(19) 0.5829(2) 0.1057(3)
H11 H 0.0674 0.5798 0.1815
C11 C -0.08636(19) 0.55690(18) -0.0484(3)
H12 H -0.1276 0.5346 -0.0768
C12 C -0.08409(15) 0.59183(17) -0.1189(3)
H13 H -0.1227 0.5941 -0.1940
C13 C -0.25010(14) 0.73936(14) -0.3468(3)
C14 C -0.22627(13) 0.72749(15) -0.2342(2)
C15 C -0.15545(17) 0.7360(2) -0.1423(2)
H14 H -0.1235 0.7507 -0.1525
C16 C -0.1331(2) 0.7228(2) -0.0367(3)
H15 H -0.0866 0.7299 0.0252
C17 C -0.24522(18) 0.6919(2) -0.1065(3)
H16 H -0.2752 0.6761 -0.0929
C18 C -0.27259(17) 0.70745(18) -0.2165(3)
H17 H -0.3205 0.7042 -0.2751
Eu1A Eu 0.118260(12) 0.755045(11) -0.117911(19)
Eu1F Eu -0.381740(12) 0.744955(11) -0.617911(19)
O4A O -0.06107(10) 0.81278(11) -0.21770(17)
O6A O -0.04484(9) 0.69925(11) -0.40005(16)
O8F O -0.18386(11) 0.76149(11) -0.57367(18)
O9 O 0.22544(17) 0.60851(16) 1.1719(2)
O10 O -0.07746(13) 1.02523(15) 1.1688(2)
Hg2? Hg -0.00197(17) 0.82583(18) 0.2205(2)
Cl5? Cl 0.0957(2) 0.8392(2) 0.3383(4)
Hg3? Hg 0.014320(17) 0.790248(19) 0.22916(3)
Cl6? Cl 0.0000 0.67446(11) 0.2500
Cl7? Cl 0.10869(7) 0.85260(9) 0.38023(13)
Cl8? Cl 0.03604(11) 0.76459(10) 0.09794(18)
loop_
_geom_bond_atom_site_label_1
_geom_bond_atom_site_label_2
_geom_bond_site_symmetry_1
_geom_bond_site_symmetry_2
Hg1 Cl1 1_555 1_555
Cl2 Hg1 1_555 1_555
Cl3 Hg1 1_555 1_555
Cl4 Hg1 1_555 1_555
Eu1 O1 1_555 1_555
O1 H1 1_555 1_555
O2 Eu1 1_555 1_555
H2 O2 1_555 1_555
O3 Eu1 1_555 1_555
O4 C1 1_555 1_555
O5 Eu1 1_555 1_555
O6 C7 1_555 1_555
O7 Eu1 1_555 1_555
O8 C13 1_555 1_555
N1 H3 1_555 1_555
N2 H4 1_555 1_555
N3 H5 1_555 1_555
C1 O3 1_555 1_555
C2 C1 1_555 1_555
C3 C2 1_555 1_555
H6 C3 1_555 1_555
C4 N1 1_555 1_555
H7 C4 1_555 1_555
C5 N1 1_555 1_555
H8 C5 1_555 1_555
C6 C2 1_555 1_555
H9 C6 1_555 1_555
C7 O5 1_555 1_555
C8 C7 1_555 1_555
C9 C8 1_555 1_555
H10 C9 1_555 1_555
C10 N2 1_555 1_555
H11 C10 1_555 1_555
C11 N2 1_555 1_555
H12 C11 1_555 1_555
C12 C8 1_555 1_555
H13 C12 1_555 1_555
C13 O7 1_555 1_555
C14 C13 1_555 1_555
C15 C14 1_555 1_555
H14 C15 1_555 1_555
C16 N3 1_555 1_555
H15 C16 1_555 1_555
C17 N3 1_555 1_555
H16 C17 1_555 1_555
C18 C14 1_555 1_555
H17 C18 1_555 1_555
Eu1A O4 1_555 1_555
Eu1F O8 1_555 1_555
O4A Eu1 1_555 1_555
O6A Eu1 1_555 1_555
O8F Eu1 1_555 1_555
O6 Eu1A 1_555 1_555
C3 C4 1_555 1_555
C5 C6 1_555 1_555
C9 C10 1_555 1_555
C11 C12 1_555 1_555
C15 C16 1_555 1_555
C17 C18 1_555 1_555

#END
