
#######################################################################
#
#                 Cambridge Crystallographic Data Centre
#                                CCDC 
#
#######################################################################
#
# If this CIF has been generated from an entry in the Cambridge 
# Structural Database, then it will include bibliographic, chemical, 
# crystal, experimental, refinement or atomic coordinate data resulting 
# from the CCDC's data processing and validation procedures.
#
#######################################################################

data_EFOZIK
_symmetry_cell_setting           rhombohedral
_symmetry_space_group_name_H-M   'R 3 c'
_symmetry_Int_Tables_number      161
_space_group_name_Hall           'R 3 -2"c'
loop_
_symmetry_equiv_pos_site_id
_symmetry_equiv_pos_as_xyz
1 x,y,z
2 -y,x-y,z
3 -x+y,-x,z
4 -y,-x,1/2+z
5 -x+y,y,1/2+z
6 x,x-y,1/2+z
7 2/3+x,1/3+y,1/3+z
8 2/3-y,1/3+x-y,1/3+z
9 2/3-x+y,1/3-x,1/3+z
10 2/3-y,1/3-x,5/6+z
11 2/3-x+y,1/3+y,5/6+z
12 2/3+x,1/3+x-y,5/6+z
13 1/3+x,2/3+y,2/3+z
14 1/3-y,2/3+x-y,2/3+z
15 1/3-x+y,2/3-x,2/3+z
16 1/3-y,2/3-x,1/6+z
17 1/3-x+y,2/3+y,1/6+z
18 1/3+x,2/3+x-y,1/6+z
_cell_length_a                   10.0160(14)
_cell_length_b                   10.0160(14)
_cell_length_c                   37.472(8)
_cell_angle_alpha                90
_cell_angle_beta                 90
_cell_angle_gamma                120
_cell_volume                     3255.56
loop_
_atom_site_label
_atom_site_type_symbol
_atom_site_fract_x
_atom_site_fract_y
_atom_site_fract_z
O1 O -0.1973(4) -0.1029(3) 0.08096(8)
O2 O -0.4319(3) -0.2587(3) 0.10059(6)
C1 C -0.3290(3) -0.2208(3) 0.07762(8)
Zn1 Zn 0.0000 0.0000 0.05120(2)
Na1 Na -0.6667 -0.3333 0.13010(6)
O3 O -0.1238(3) -0.1767(3) 0.01430(6)
C2 C -0.2606(3) -0.2856(3) 0.01620(8)
N1 N -0.3129(3) -0.3849(3) -0.01229(7)
H1 H -0.2516 -0.3642 -0.0301
C3 C -0.3681(3) -0.3210(3) 0.04487(8)
C4 C -0.4533(5) -0.5128(5) -0.01443(13)
H2 H -0.4794 -0.5760 -0.0344
C5 C -0.5113(5) -0.4493(5) 0.04209(12)
H3 H -0.5818 -0.4718 0.0605
C6 C -0.5555(4) -0.5489(5) 0.01219(13)
H4 H -0.6525 -0.6367 0.0110
O1A O -0.8971(3) -0.0944(5) 0.08096(8)
O2A O -0.7413(3) -0.1732(4) 0.10059(6)
C1A C -0.7792(3) -0.1082(4) 0.07762(8)
O3A O -0.8233(3) 0.0529(4) 0.01430(6)
C2A C -0.7144(3) 0.0250(4) 0.01620(8)
N1A N -0.6151(3) 0.0720(4) -0.01229(7)
H1A H -0.6358 0.1126 -0.0301
C3A C -0.6790(3) -0.0471(4) 0.04487(8)
C4A C -0.4872(5) 0.0595(7) -0.01443(13)
H2A H -0.4240 0.0966 -0.0344
C5A C -0.5507(5) -0.0620(7) 0.04209(12)
H3A H -0.5282 -0.1100 0.0605
C6A C -0.4511(5) -0.0066(6) 0.01219(13)
H4A H -0.3633 -0.0158 0.0110
O1B O -0.9056(5) -0.8027(4) 0.08096(8)
O2B O -0.8268(4) -0.5681(3) 0.10059(6)
C1B C -0.8918(4) -0.6710(3) 0.07762(8)
O3B O -1.0529(4) -0.8762(3) 0.01430(6)
C2B C -1.0250(4) -0.7394(3) 0.01620(8)
N1B N -1.0720(4) -0.6871(3) -0.01229(7)
H1B H -1.1126 -0.7484 -0.0301
C3B C -0.9529(4) -0.6319(3) 0.04487(8)
C4B C -1.0595(7) -0.5467(5) -0.01443(13)
H2B H -1.0966 -0.5206 -0.0344
C5B C -0.9380(7) -0.4887(5) 0.04209(12)
H3B H -0.8900 -0.4182 0.0605
C6B C -0.9934(6) -0.4445(4) 0.01219(13)
H4B H -0.9842 -0.3475 0.0110
O1A_2 O 0.1029(3) -0.0944(5) 0.08096(8)
O1B_2 O 0.0944(5) 0.1973(4) 0.08096(8)
Zn1_2 Zn -1.0000 -1.0000 0.05120(2)
Zn1_3 Zn -1.0000 0.0000 0.05120(2)
Na1I Na -1.0000 -1.0000 -0.03657(6)
Na1I_2 Na -1.0000 0.0000 -0.03657(6)
Na1I_3 Na -0.0000 0.0000 -0.03657(6)
O3A_2 O 0.1767(3) 0.0529(4) 0.01430(6)
O3B_2 O -0.0529(4) 0.1238(3) 0.01430(6)
O3O O -0.4900(3) -0.2095(3) 0.18097(6)
O3P O -0.7196(4) -0.5100(3) 0.18097(6)
O3Q O -0.7905(3) -0.2804(4) 0.18097(6)
loop_
_geom_bond_atom_site_label_1
_geom_bond_atom_site_label_2
_geom_bond_site_symmetry_1
_geom_bond_site_symmetry_2
O1 C1 1_555 1_555
O2 C1 1_555 1_555
C1 C3 1_555 1_555
Zn1 O1 1_555 1_555
Na1 O2 1_555 1_555
O3 Zn1 1_555 1_555
C2 O3 1_555 1_555
N1 C2 1_555 1_555
H1 N1 1_555 1_555
C3 C2 1_555 1_555
C4 N1 1_555 1_555
H2 C4 1_555 1_555
C5 C3 1_555 1_555
H3 C5 1_555 1_555
C6 C4 1_555 1_555
H4 C6 1_555 1_555
O1A C1A 1_555 1_555
O2A Na1 1_555 1_555
C1A O2A 1_555 1_555
O3A C2A 1_555 1_555
C2A N1A 1_555 1_555
N1A H1A 1_555 1_555
C3A C1A 1_555 1_555
C4A N1A 1_555 1_555
H2A C4A 1_555 1_555
C5A C3A 1_555 1_555
H3A C5A 1_555 1_555
C6A C4A 1_555 1_555
H4A C6A 1_555 1_555
O1B C1B 1_555 1_555
O2B Na1 1_555 1_555
C1B O2B 1_555 1_555
O3B C2B 1_555 1_555
C2B N1B 1_555 1_555
N1B H1B 1_555 1_555
C3B C1B 1_555 1_555
C4B N1B 1_555 1_555
H2B C4B 1_555 1_555
C5B C3B 1_555 1_555
H3B C5B 1_555 1_555
C6B C4B 1_555 1_555
H4B C6B 1_555 1_555
O1A_2 Zn1 1_555 1_555
O1B_2 Zn1 1_555 1_555
Zn1_2 O1B 1_555 1_555
Zn1_3 O1A 1_555 1_555
Na1I O3B 1_555 1_555
Na1I_2 O3A 1_555 1_555
Na1I_3 O3 1_555 1_555
O3A_2 Zn1 1_555 1_555
O3B_2 Zn1 1_555 1_555
O3O Na1 1_555 1_555
O3P Na1 1_555 1_555
O3Q Na1 1_555 1_555
C5 C6 1_555 1_555
O3A Zn1_3 1_555 1_555
C2A C3A 1_555 1_555
C5A C6A 1_555 1_555
O3B Zn1_2 1_555 1_555
C2B C3B 1_555 1_555
C5B C6B 1_555 1_555
Na1I_3 O3A_2 1_555 1_555
Na1I_3 O3B_2 1_555 1_555

#END
