
#######################################################################
#
#                 Cambridge Crystallographic Data Centre
#                                CCDC 
#
#######################################################################
#
# If this CIF has been generated from an entry in the Cambridge 
# Structural Database, then it will include bibliographic, chemical, 
# crystal, experimental, refinement or atomic coordinate data resulting 
# from the CCDC's data processing and validation procedures.
#
#######################################################################

data_EFOZAC
_symmetry_cell_setting           triclinic
_symmetry_space_group_name_H-M   'P -1'
_symmetry_Int_Tables_number      2
_space_group_name_Hall           '-P 1'
loop_
_symmetry_equiv_pos_site_id
_symmetry_equiv_pos_as_xyz
1 x,y,z
2 -x,-y,-z
_cell_length_a                   9.357(5)
_cell_length_b                   9.932(5)
_cell_length_c                   12.469(5)
_cell_angle_alpha                96.037(5)
_cell_angle_beta                 105.744(5)
_cell_angle_gamma                109.399(5)
_cell_volume                     1027.37
loop_
_atom_site_label
_atom_site_type_symbol
_atom_site_fract_x
_atom_site_fract_y
_atom_site_fract_z
Mn1 Mn 0.54463(4) -0.06161(3) 0.60855(2)
O1 O 0.3433(2) -0.0115(2) 0.60560(19)
O2 O 0.2894(2) 0.1012(2) 0.46344(17)
O3 O -0.3833(2) 0.2669(2) 0.49835(17)
O4 O -0.3223(2) 0.16773(18) 0.64910(16)
O5 O -0.0427(3) 0.2849(2) 0.89862(15)
N1 N 0.5933(2) -0.1263(2) 0.76947(16)
N2 N 0.5843(3) -0.2583(2) 0.89951(16)
C1 C 0.2778(3) 0.0664(3) 0.5551(2)
C2 C 0.1843(3) 0.1267(3) 0.6138(2)
C3 C 0.1573(4) 0.2505(3) 0.5901(2)
H1 H 0.1885 0.2918 0.5325
C4 C 0.0840(4) 0.3137(3) 0.6514(2)
H2 H 0.0687 0.3985 0.6361
C5 C 0.0333(3) 0.2509(2) 0.73546(18)
C6 C 0.0551(3) 0.1230(3) 0.7552(2)
H3 H 0.0179 0.0777 0.8093
C7 C 0.1311(3) 0.0622(3) 0.6957(2)
H4 H 0.1467 -0.0225 0.7108
C8 C -0.0371(3) 0.3194(2) 0.80875(19)
C9 C -0.0876(3) 0.4422(2) 0.77539(19)
C10 C -0.3130(3) 0.2743(3) 0.6015(2)
C11 C -0.1594(4) 0.6818(3) 0.7201(3)
H5 H -0.1820 0.7622 0.7010
C12 C -0.0050(4) 0.5790(3) 0.8479(2)
H6 H 0.0746 0.5906 0.9157
C13 C -0.2102(3) 0.4240(2) 0.6758(2)
C14 C -0.2456(3) 0.5443(3) 0.6482(2)
H7 H -0.3271 0.5326 0.5814
C15 C -0.0399(4) 0.6980(3) 0.8201(3)
H8 H 0.0171 0.7895 0.8688
C16 C 0.5226(3) -0.2549(3) 0.79022(19)
H9 H 0.4404 -0.3333 0.7358
C17 C 0.7069(3) -0.0440(3) 0.8713(2)
H10 H 0.7765 0.0522 0.8830
C18 C 0.7018(4) -0.1241(3) 0.9513(2)
H11 H 0.7661 -0.0940 1.0276
C19 C 0.5393(3) -0.3816(3) 0.9525(2)
C20 C 0.5662(3) -0.5037(3) 0.9146(2)
H12 H 0.6115 -0.5036 0.8568
C21 C 0.4731(3) -0.3726(3) 1.0386(2)
C22 C 0.4400(4) -0.2416(3) 1.0804(3)
H13 H 0.5339 -0.1734 1.1395
H14 H 0.3525 -0.2724 1.1100
H15 H 0.4125 -0.1955 1.0182
N1A N 0.4067(2) -0.8737(2) 1.23053(16)
N2A N 0.4157(3) -0.7417(2) 1.10049(16)
C16A C 0.4774(3) -0.7451(3) 1.20978(19)
H9A H 0.5596 -0.6667 1.2642
C17A C 0.2931(3) -0.9560(3) 1.1287(2)
H10A H 0.2235 -1.0522 1.1170
C18A C 0.2982(4) -0.8759(3) 1.0487(2)
H11A H 0.2339 -0.9060 0.9724
C19A C 0.4607(3) -0.6184(3) 1.0475(2)
C20A C 0.4338(3) -0.4963(3) 1.0854(2)
H12A H 0.3885 -0.4964 1.1432
C21A C 0.5269(3) -0.6274(3) 0.9614(2)
C22A C 0.5600(4) -0.7584(3) 0.9196(3)
H13A H 0.4661 -0.8266 0.8605
H14A H 0.6475 -0.7276 0.8900
H15A H 0.5875 -0.8045 0.9818
Mn1A Mn -0.54463(4) 0.06161(3) 0.39145(2)
O1A O -0.3433(2) 0.0115(2) 0.39440(19)
O2A O -0.2894(2) -0.1012(2) 0.53656(17)
O3A O 0.3833(2) -0.2669(2) 0.50165(17)
O4A O 0.3223(2) -0.16773(18) 0.35090(16)
O5A O 0.0427(3) -0.2849(2) 0.10138(15)
C1A C -0.2778(3) -0.0664(3) 0.4449(2)
C2A C -0.1843(3) -0.1267(3) 0.3862(2)
C3A C -0.1573(4) -0.2505(3) 0.4099(2)
H1A H -0.1885 -0.2918 0.4675
C4A C -0.0840(4) -0.3137(3) 0.3486(2)
H2A H -0.0687 -0.3985 0.3639
C5A C -0.0333(3) -0.2509(2) 0.26454(18)
C6A C -0.0551(3) -0.1230(3) 0.2448(2)
H3A H -0.0179 -0.0777 0.1907
C7A C -0.1311(3) -0.0622(3) 0.3043(2)
H4A H -0.1467 0.0225 0.2892
C8A C 0.0371(3) -0.3194(2) 0.19125(19)
C9A C 0.0876(3) -0.4422(2) 0.22461(19)
C10A C 0.3130(3) -0.2743(3) 0.3985(2)
C11A C 0.1594(4) -0.6818(3) 0.2799(3)
H5A H 0.1820 -0.7622 0.2990
C12A C 0.0050(4) -0.5790(3) 0.1521(2)
H6A H -0.0746 -0.5906 0.0843
C13A C 0.2102(3) -0.4240(2) 0.3242(2)
C14A C 0.2456(3) -0.5443(3) 0.3518(2)
H7A H 0.3271 -0.5326 0.4186
C15A C 0.0399(4) -0.6980(3) 0.1799(3)
H8A H -0.0171 -0.7895 0.1312
Mn1_2 Mn -0.45537(4) -0.06161(3) 0.60855(2)
Mn1A_2 Mn 0.45537(4) -0.93839(3) 1.39145(2)
Mn1A_3 Mn 0.45537(4) 0.06161(3) 0.39145(2)
O2_2 O -0.7106(2) 0.1012(2) 0.46344(17)
O2A_2 O 0.7106(2) -0.1012(2) 0.53656(17)
O4_2 O 0.6777(2) 0.16773(18) 0.64910(16)
O4A_2 O -0.6777(2) -0.16773(18) 0.35090(16)
N1A_2 N -0.5933(2) 0.1263(2) 0.23053(16)
loop_
_geom_bond_atom_site_label_1
_geom_bond_atom_site_label_2
_geom_bond_site_symmetry_1
_geom_bond_site_symmetry_2
Mn1 O1 1_555 1_555
O1 C1 1_555 1_555
O2 C1 1_555 1_555
O3 C10 1_555 1_555
O4 C10 1_555 1_555
O5 C8 1_555 1_555
N1 Mn1 1_555 1_555
N2 C16 1_555 1_555
C1 C2 1_555 1_555
C2 C3 1_555 1_555
C3 H1 1_555 1_555
C4 C3 1_555 1_555
H2 C4 1_555 1_555
C5 C4 1_555 1_555
C6 C5 1_555 1_555
H3 C6 1_555 1_555
C7 C2 1_555 1_555
H4 C7 1_555 1_555
C8 C5 1_555 1_555
C9 C8 1_555 1_555
C10 C13 1_555 1_555
C11 H5 1_555 1_555
C12 C9 1_555 1_555
H6 C12 1_555 1_555
C13 C9 1_555 1_555
C14 C11 1_555 1_555
H7 C14 1_555 1_555
C15 C11 1_555 1_555
H8 C15 1_555 1_555
C16 N1 1_555 1_555
H9 C16 1_555 1_555
C17 N1 1_555 1_555
H10 C17 1_555 1_555
C18 N2 1_555 1_555
H11 C18 1_555 1_555
C19 N2 1_555 1_555
C20 C19 1_555 1_555
H12 C20 1_555 1_555
C21 C19 1_555 1_555
C22 C21 1_555 1_555
H13 C22 1_555 1_555
H14 C22 1_555 1_555
H15 C22 1_555 1_555
N1A C16A 1_555 1_555
N2A C16A 1_555 1_555
C16A H9A 1_555 1_555
C17A N1A 1_555 1_555
H10A C17A 1_555 1_555
C18A N2A 1_555 1_555
H11A C18A 1_555 1_555
C19A N2A 1_555 1_555
C20A C21 1_555 1_555
H12A C20A 1_555 1_555
C21A C20 1_555 1_555
C22A C21A 1_555 1_555
H13A C22A 1_555 1_555
H14A C22A 1_555 1_555
H15A C22A 1_555 1_555
Mn1A O3 1_555 1_555
O1A Mn1A 1_555 1_555
O2A C1A 1_555 1_555
O3A Mn1 1_555 1_555
O4A C10A 1_555 1_555
O5A C8A 1_555 1_555
C1A O1A 1_555 1_555
C2A C1A 1_555 1_555
C3A C2A 1_555 1_555
H1A C3A 1_555 1_555
C4A C3A 1_555 1_555
H2A C4A 1_555 1_555
C5A C4A 1_555 1_555
C6A C5A 1_555 1_555
H3A C6A 1_555 1_555
C7A C2A 1_555 1_555
H4A C7A 1_555 1_555
C8A C5A 1_555 1_555
C9A C8A 1_555 1_555
C10A O3A 1_555 1_555
C11A H5A 1_555 1_555
C12A C9A 1_555 1_555
H6A C12A 1_555 1_555
C13A C9A 1_555 1_555
C14A C11A 1_555 1_555
H7A C14A 1_555 1_555
C15A C11A 1_555 1_555
H8A C15A 1_555 1_555
Mn1_2 O4 1_555 1_555
Mn1A_2 N1A 1_555 1_555
Mn1A_3 O2 1_555 1_555
O2_2 Mn1A 1_555 1_555
O2A_2 Mn1 1_555 1_555
O4_2 Mn1 1_555 1_555
O4A_2 Mn1A 1_555 1_555
N1A_2 Mn1A 1_555 1_555
C6 C7 1_555 1_555
C12 C15 1_555 1_555
C13 C14 1_555 1_555
C17 C18 1_555 1_555
C17A C18A 1_555 1_555
C19A C20A 1_555 1_555
C19A C21A 1_555 1_555
O2A Mn1_2 1_555 1_555
O4A Mn1A_3 1_555 1_555
C6A C7A 1_555 1_555
C10A C13A 1_555 1_555
C12A C15A 1_555 1_555
C13A C14A 1_555 1_555

#END
