
#######################################################################
#
#                 Cambridge Crystallographic Data Centre
#                                CCDC 
#
#######################################################################
#
# If this CIF has been generated from an entry in the Cambridge 
# Structural Database, then it will include bibliographic, chemical, 
# crystal, experimental, refinement or atomic coordinate data resulting 
# from the CCDC's data processing and validation procedures.
#
#######################################################################

data_EFUBEO
_symmetry_cell_setting           monoclinic
_symmetry_space_group_name_H-M   'C 2/c'
_symmetry_Int_Tables_number      15
_space_group_name_Hall           '-C 2yn'
loop_
_symmetry_equiv_pos_site_id
_symmetry_equiv_pos_as_xyz
1 x,y,z
2 -x,y,1/2-z
3 1/2+x,1/2+y,z
4 1/2-x,1/2+y,1/2-z
5 -x,-y,-z
6 x,-y,1/2+z
7 1/2-x,1/2-y,-z
8 1/2+x,1/2-y,1/2+z
_cell_length_a                   12.997(5)
_cell_length_b                   19.376(4)
_cell_length_c                   8.080(6)
_cell_angle_alpha                90
_cell_angle_beta                 109.379(18)
_cell_angle_gamma                90
_cell_volume                     1919.5
loop_
_atom_site_label
_atom_site_type_symbol
_atom_site_fract_x
_atom_site_fract_y
_atom_site_fract_z
Si1 Si 0.2500 0.2500 0.0000
F1 F 0.3676(3) 0.2128(2) 0.1218(5)
F2 F 0.1807(3) 0.20392(16) 0.1049(5)
F3 F 0.2326(3) 0.18742(16) -0.1501(5)
F1F F 0.1324(3) 0.2872(2) -0.1218(5)
F2F F 0.3193(3) 0.29608(16) -0.1049(5)
F3F F 0.2674(3) 0.31258(16) 0.1501(5)
Zn1 Zn 0.5000 0.11164(3) 0.7500
O1 O 0.4935(3) 0.11512(19) 1.0097(4)
O2 O 0.3813(3) 0.19003(19) 0.6677(6)
N1 N 0.3701(3) 0.0403(2) 0.6654(5)
N2 N 0.3633(3) -0.0274(2) 0.7062(6)
N3 N 0.2110(3) 0.00174(19) 0.5001(5)
C1 C 0.2778(4) 0.0567(3) 0.5434(7)
H1 H 0.2609 0.1003 0.4938
C2 C 0.2676(4) -0.0495(3) 0.6067(7)
H2 H 0.2419 -0.0942 0.6087
C3 C 0.1021(3) 0.0002(2) 0.3714(6)
C4 C 0.0521(4) 0.0614(3) 0.3109(9)
H3 H 0.0876 0.1029 0.3511
C5 C 0.0528(4) -0.0608(2) 0.3109(8)
H4 H 0.0889 -0.1022 0.3498
H5 H 0.355(5) 0.199(3) 0.723(8)
H6 H 0.448(4) 0.139(2) 1.033(7)
H7 H 0.397(5) 0.222(3) 0.582(9)
H8 H 0.508(5) 0.080(2) 1.073(7)
N1A N -0.3701(3) 0.0403(2) -0.1654(5)
N2A N -0.3633(3) -0.0274(2) -0.2062(6)
N3A N -0.2110(3) 0.00174(19) -0.0001(5)
C1A C -0.2778(4) 0.0567(3) -0.0434(7)
H1A H -0.2609 0.1003 0.0062
C2A C -0.2676(4) -0.0495(3) -0.1067(7)
H2A H -0.2419 -0.0942 -0.1087
C3A C -0.1021(3) 0.0002(2) 0.1286(6)
C4A C -0.0521(4) 0.0614(3) 0.1891(9)
H3A H -0.0876 0.1029 0.1489
C5A C -0.0528(4) -0.0608(2) 0.1891(8)
H4A H -0.0889 -0.1022 0.1502
O1A O 0.5065(3) 0.11512(19) 0.4903(4)
H6A H 0.552(4) 0.139(2) 0.467(7)
H8A H 0.492(5) 0.080(2) 0.427(7)
O2A O 0.6187(3) 0.19003(19) 0.8323(6)
H5A H 0.645(5) 0.199(3) 0.777(8)
H7A H 0.603(5) 0.222(3) 0.918(9)
Zn1_2 Zn -0.5000 0.11164(3) -0.2500
N1A_2 N 0.6299(3) 0.0403(2) 0.8346(5)
O3 O 0.0587(3) 0.2099(2) 0.5173(6)
H9 H -0.0088(17) 0.213(4) 0.492(7)
H10 H 0.089(4) 0.209(3) 0.624(3)
loop_
_geom_bond_atom_site_label_1
_geom_bond_atom_site_label_2
_geom_bond_site_symmetry_1
_geom_bond_site_symmetry_2
Si1 F1 1_555 1_555
F2 Si1 1_555 1_555
F3 Si1 1_555 1_555
Zn1 O1 1_555 1_555
O1 H6 1_555 1_555
O2 Zn1 1_555 1_555
N1 Zn1 1_555 1_555
N2 N1 1_555 1_555
N3 C1 1_555 1_555
C1 N1 1_555 1_555
H1 C1 1_555 1_555
C2 N2 1_555 1_555
H2 C2 1_555 1_555
C3 N3 1_555 1_555
C4 C3 1_555 1_555
H3 C4 1_555 1_555
C5 C3 1_555 1_555
H4 C5 1_555 1_555
H5 O2 1_555 1_555
H7 O2 1_555 1_555
H8 O1 1_555 1_555
O3 H9 1_555 1_555
H10 O3 1_555 1_555
F1F Si1 1_555 1_555
F2F Si1 1_555 1_555
F3F Si1 1_555 1_555
N1A N2A 1_555 1_555
N2A C2A 1_555 1_555
N3A C1A 1_555 1_555
C1A N1A 1_555 1_555
H1A C1A 1_555 1_555
C2A N3A 1_555 1_555
H2A C2A 1_555 1_555
C3A N3A 1_555 1_555
C4A C4 1_555 1_555
H3A C4A 1_555 1_555
C5A C5 1_555 1_555
H4A C5A 1_555 1_555
O1A Zn1 1_555 1_555
H6A O1A 1_555 1_555
H8A O1A 1_555 1_555
O2A Zn1 1_555 1_555
H5A O2A 1_555 1_555
H7A O2A 1_555 1_555
Zn1_2 N1A 1_555 1_555
N1A_2 Zn1 1_555 1_555
N3 C2 1_555 1_555
C3A C4A 1_555 1_555
C3A C5A 1_555 1_555

#END
