
#######################################################################
#
#                 Cambridge Crystallographic Data Centre
#                                CCDC 
#
#######################################################################
#
# If this CIF has been generated from an entry in the Cambridge 
# Structural Database, then it will include bibliographic, chemical, 
# crystal, experimental, refinement or atomic coordinate data resulting 
# from the CCDC's data processing and validation procedures.
#
#######################################################################

data_EFUBAK
_symmetry_cell_setting           triclinic
_symmetry_space_group_name_H-M   'P -1'
_symmetry_Int_Tables_number      2
_space_group_name_Hall           '-P 1'
loop_
_symmetry_equiv_pos_site_id
_symmetry_equiv_pos_as_xyz
1 x,y,z
2 -x,-y,-z
_cell_length_a                   7.4551(7)
_cell_length_b                   12.6408(9)
_cell_length_c                   14.8996(12)
_cell_angle_alpha                92.366(6)
_cell_angle_beta                 102.239(7)
_cell_angle_gamma                97.322(7)
_cell_volume                     1357.63
loop_
_atom_site_label
_atom_site_type_symbol
_atom_site_fract_x
_atom_site_fract_y
_atom_site_fract_z
Cu1 Cu -0.7597(5) 0.0539(2) 0.5389(2)
Cu2 Cu -0.8008(5) 0.4215(2) 0.4475(2)
Cu3 Cu 0.0142(5) -0.4169(3) 0.1552(2)
Cu4 Cu 0.3333(5) 0.9215(3) 0.8467(2)
S1 S -0.5339(9) 0.7192(5) 0.8412(4)
S2 S -0.7724(8) -0.2245(5) 0.1510(4)
N1 N -0.712(3) 0.5193(13) 0.5674(12)
C1 C -0.783(3) 0.2843(17) 0.4819(13)
N2 N -0.221(3) -0.3389(16) 0.1484(12)
N3 N -0.753(3) -0.0349(13) 0.4208(12)
C2 C -0.682(3) 0.6842(17) 0.6524(16)
H1 H -0.7001 0.7556 0.6525
C3 C -0.370(4) -0.3618(18) 0.0817(15)
H2 H -0.3610 -0.4050 0.0312
C4 C -0.578(3) 0.5356(18) 0.7282(14)
H3 H -0.5257 0.5034 0.7806
N4 N -0.779(3) 0.1959(19) 0.5056(13)
C5 C -0.636(4) 0.4781(18) 0.6442(15)
H4 H -0.6217 0.4062 0.6413
C6 C -0.297(3) 0.7596(17) 0.8450(14)
C7 C -0.795(4) -0.0514(19) 0.2582(15)
H5 H -0.8308 -0.0209 0.2026
N5 N 0.076(3) 0.8382(16) 0.8572(13)
C8 C -0.237(3) -0.273(2) 0.2183(16)
H6 H -0.1330 -0.2520 0.2652
N6 N 0.003(4) -0.4790(19) 0.0356(14)
C9 C -0.555(3) -0.2646(16) 0.1546(14)
C10 C -0.737(3) 0.6186(16) 0.5732(14)
H7 H -0.7951 0.6474 0.5202
C11 C -0.397(3) -0.2359(18) 0.2243(15)
H8 H -0.4017 -0.1915 0.2749
C12 C -0.535(3) -0.3284(19) 0.0802(12)
H9 H -0.6334 -0.3477 0.0301
C13 C -0.746(4) -0.1518(18) 0.2589(16)
C14 C -0.707(3) -0.1945(17) 0.3423(14)
H10 H -0.6766 -0.2635 0.3469
C15 C -0.010(4) 0.8571(19) 0.9236(15)
H11 H 0.0590 0.8973 0.9760
N7 N 0.461(4) 0.9792(18) 0.9632(13)
C16 C -0.187(3) 0.8237(19) 0.9222(14)
H12 H -0.2378 0.8423 0.9714
C17 C -0.714(3) -0.1331(16) 0.4194(14)
H13 H -0.6881 -0.1637 0.4755
C18 C -0.036(4) 0.772(2) 0.7835(16)
H14 H 0.0190 0.7525 0.7361
C19 C -0.213(2) 0.736(2) 0.7753(15)
H15 H -0.2797 0.6942 0.7229
C20 C -0.791(3) 0.0040(17) 0.3391(16)
H16 H -0.8171 0.0739 0.3366
N8 N 0.302(3) 0.9537(16) 0.7206(16)
C21 C 0.274(4) 0.9862(16) 0.6473(15)
C22 C -0.599(4) 0.6418(19) 0.7321(14)
C23 C -0.903(4) 0.5402(17) 0.2744(14)
N9 N -0.865(4) 0.5011(18) 0.3434(17)
N6A N -0.003(4) -0.5210(19) -0.0356(14)
N7A N 0.539(4) 1.0208(18) 1.0368(13)
Cu1A Cu 0.7597(5) -1.0539(2) -0.5389(2)
Cu2A Cu 0.8008(5) -1.4215(2) -0.4475(2)
Cu3A Cu -0.0142(5) -0.5831(3) -0.1552(2)
Cu4A Cu -0.3333(5) -1.9215(3) -0.8467(2)
S1A S 0.5339(9) -1.7192(5) -0.8412(4)
S2A S 0.7724(8) -0.7755(5) -0.1510(4)
N1A N 0.712(3) -1.5193(13) -0.5674(12)
C1A C 0.783(3) -1.2843(17) -0.4819(13)
N2A N 0.221(3) -0.6611(16) -0.1484(12)
N3A N 0.753(3) -0.9651(13) -0.4208(12)
C2A C 0.682(3) -1.6842(17) -0.6524(16)
H1A H 0.7001 -1.7556 -0.6525
C3A C 0.370(4) -0.6382(18) -0.0817(15)
H2A H 0.3610 -0.5950 -0.0312
C4A C 0.578(3) -1.5356(18) -0.7282(14)
H3A H 0.5257 -1.5034 -0.7806
N4A N 0.779(3) -1.1959(19) -0.5056(13)
C5A C 0.636(4) -1.4781(18) -0.6442(15)
H4A H 0.6217 -1.4062 -0.6413
C6A C 0.297(3) -1.7596(17) -0.8450(14)
C7A C 0.795(4) -0.9486(19) -0.2582(15)
H5A H 0.8308 -0.9791 -0.2026
N5A N -0.076(3) -1.8382(16) -0.8572(13)
C8A C 0.237(3) -0.727(2) -0.2183(16)
H6A H 0.1330 -0.7480 -0.2652
C9A C 0.555(3) -0.7354(16) -0.1546(14)
C10A C 0.737(3) -1.6186(16) -0.5732(14)
H7A H 0.7951 -1.6474 -0.5202
C11A C 0.397(3) -0.7641(18) -0.2243(15)
H8A H 0.4017 -0.8085 -0.2749
C12A C 0.535(3) -0.6716(19) -0.0802(12)
H9A H 0.6334 -0.6523 -0.0301
C13A C 0.746(4) -0.8482(18) -0.2589(16)
C14A C 0.707(3) -0.8055(17) -0.3423(14)
H10A H 0.6766 -0.7365 -0.3469
C15A C 0.010(4) -1.8571(19) -0.9236(15)
H11A H -0.0590 -1.8973 -0.9760
C16A C 0.187(3) -1.8237(19) -0.9222(14)
H12A H 0.2378 -1.8423 -0.9714
C17A C 0.714(3) -0.8669(16) -0.4194(14)
H13A H 0.6881 -0.8363 -0.4755
C18A C 0.036(4) -1.772(2) -0.7835(16)
H14A H -0.0190 -1.7525 -0.7361
C19A C 0.213(2) -1.736(2) -0.7753(15)
H15A H 0.2797 -1.6942 -0.7229
C20A C 0.791(3) -1.0040(17) -0.3391(16)
H16A H 0.8171 -1.0739 -0.3366
N8A N -0.302(3) -1.9537(16) -0.7206(16)
C21A C -0.274(4) -1.9862(16) -0.6473(15)
C22A C 0.599(4) -1.6418(19) -0.7321(14)
C23A C 0.903(4) -1.5402(17) -0.2744(14)
N9A N 0.865(4) -1.5011(18) -0.3434(17)
Cu1_2 Cu 0.2403(5) 1.0539(2) 0.5389(2)
Cu1A_2 Cu -0.2403(5) -2.0539(2) -0.5389(2)
Cu3_2 Cu -0.9858(5) -0.4169(3) 0.1552(2)
Cu3_3 Cu -0.9858(5) 0.5831(3) 0.1552(2)
Cu3A_2 Cu 0.9858(5) -1.5831(3) -0.1552(2)
Cu3A_3 Cu 0.9858(5) -0.5831(3) -0.1552(2)
Cu4_2 Cu -0.6667(5) 0.9215(3) 0.8467(2)
Cu4A_2 Cu 0.6667(5) -1.9215(3) -0.8467(2)
Cu4A_3 Cu 0.6667(5) 1.0785(3) 1.1533(2)
S1_2 S 0.4661(9) 0.7192(5) 0.8412(4)
S1A_2 S -0.4661(9) -1.7192(5) -0.8412(4)
S2_2 S 0.2276(8) -0.2245(5) 0.1510(4)
S2A_2 S -0.2276(8) -0.7755(5) -0.1510(4)
N7A_2 N -0.461(4) -1.9792(18) -0.9632(13)
C21_2 C -0.726(4) -0.0138(16) 0.6473(15)
C21A_2 C 0.726(4) -0.9862(16) -0.6473(15)
C23_2 C 0.097(4) -0.4598(17) 0.2744(14)
C23A_2 C -0.097(4) -0.5402(17) -0.2744(14)
loop_
_geom_bond_atom_site_label_1
_geom_bond_atom_site_label_2
_geom_bond_site_symmetry_1
_geom_bond_site_symmetry_2
Cu1 N3 1_555 1_555
Cu2 N1 1_555 1_555
Cu3 N2 1_555 1_555
Cu4 N5 1_555 1_555
S1 C6 1_555 1_555
S2 C9 1_555 1_555
N1 C5 1_555 1_555
C1 Cu2 1_555 1_555
N2 C3 1_555 1_555
N3 C17 1_555 1_555
C2 H1 1_555 1_555
C3 H2 1_555 1_555
C4 H3 1_555 1_555
N4 Cu1 1_555 1_555
C5 C4 1_555 1_555
H4 C5 1_555 1_555
C6 C16 1_555 1_555
C7 H5 1_555 1_555
N5 C15 1_555 1_555
C8 N2 1_555 1_555
H6 C8 1_555 1_555
N6 Cu3 1_555 1_555
C9 C11 1_555 1_555
C10 N1 1_555 1_555
H7 C10 1_555 1_555
C11 C8 1_555 1_555
H8 C11 1_555 1_555
C12 C3 1_555 1_555
H9 C12 1_555 1_555
C13 S2 1_555 1_555
C14 C13 1_555 1_555
H10 C14 1_555 1_555
C15 H11 1_555 1_555
N7 Cu4 1_555 1_555
C16 C15 1_555 1_555
H12 C16 1_555 1_555
C17 C14 1_555 1_555
H13 C17 1_555 1_555
C18 N5 1_555 1_555
H14 C18 1_555 1_555
C19 C6 1_555 1_555
H15 C19 1_555 1_555
C20 N3 1_555 1_555
H16 C20 1_555 1_555
N8 Cu4 1_555 1_555
C21 N8 1_555 1_555
C22 S1 1_555 1_555
C23 N9 1_555 1_555
N9 Cu2 1_555 1_555
N6A N6 1_555 1_555
N7A N7 1_555 1_555
Cu1A N3A 1_555 1_555
Cu2A N1A 1_555 1_555
Cu3A N6A 1_555 1_555
Cu4A N5A 1_555 1_555
S1A C6A 1_555 1_555
S2A C9A 1_555 1_555
N1A C5A 1_555 1_555
C1A Cu2A 1_555 1_555
N2A Cu3A 1_555 1_555
N3A C17A 1_555 1_555
C2A H1A 1_555 1_555
C3A N2A 1_555 1_555
H2A C3A 1_555 1_555
C4A H3A 1_555 1_555
N4A Cu1A 1_555 1_555
C5A C4A 1_555 1_555
H4A C5A 1_555 1_555
C6A C16A 1_555 1_555
C7A H5A 1_555 1_555
N5A C15A 1_555 1_555
C8A N2A 1_555 1_555
H6A C8A 1_555 1_555
C9A C11A 1_555 1_555
C10A N1A 1_555 1_555
H7A C10A 1_555 1_555
C11A C8A 1_555 1_555
H8A C11A 1_555 1_555
C12A C3A 1_555 1_555
H9A C12A 1_555 1_555
C13A S2A 1_555 1_555
C14A C13A 1_555 1_555
H10A C14A 1_555 1_555
C15A H11A 1_555 1_555
C16A C15A 1_555 1_555
H12A C16A 1_555 1_555
C17A C14A 1_555 1_555
H13A C17A 1_555 1_555
C18A N5A 1_555 1_555
H14A C18A 1_555 1_555
C19A C6A 1_555 1_555
H15A C19A 1_555 1_555
C20A N3A 1_555 1_555
H16A C20A 1_555 1_555
N8A Cu4A 1_555 1_555
C21A N8A 1_555 1_555
C22A S1A 1_555 1_555
C23A N9A 1_555 1_555
N9A Cu2A 1_555 1_555
Cu1_2 C21 1_555 1_555
Cu1A_2 C21A 1_555 1_555
Cu3_2 S2 1_555 1_555
Cu3_3 C23 1_555 1_555
Cu3A_2 C23A 1_555 1_555
Cu3A_3 S2A 1_555 1_555
Cu4_2 S1 1_555 1_555
Cu4A_2 S1A 1_555 1_555
Cu4A_3 N7A 1_555 1_555
S1_2 Cu4 1_555 1_555
S1A_2 Cu4A 1_555 1_555
S2_2 Cu3 1_555 1_555
S2A_2 Cu3A 1_555 1_555
N7A_2 Cu4A 1_555 1_555
C21_2 Cu1 1_555 1_555
C21A_2 Cu1A 1_555 1_555
C23_2 Cu3 1_555 1_555
C23A_2 Cu3A 1_555 1_555
C1 N4 1_555 1_555
C2 C10 1_555 1_555
C2 C22 1_555 1_555
C4 C22 1_555 1_555
C7 C13 1_555 1_555
C7 C20 1_555 1_555
C9 C12 1_555 1_555
C18 C19 1_555 1_555
C1A N4A 1_555 1_555
C2A C10A 1_555 1_555
C2A C22A 1_555 1_555
C4A C22A 1_555 1_555
C7A C13A 1_555 1_555
C7A C20A 1_555 1_555
C9A C12A 1_555 1_555
C18A C19A 1_555 1_555

#END
