
#######################################################################
#
#                 Cambridge Crystallographic Data Centre
#                                CCDC 
#
#######################################################################
#
# If this CIF has been generated from an entry in the Cambridge 
# Structural Database, then it will include bibliographic, chemical, 
# crystal, experimental, refinement or atomic coordinate data resulting 
# from the CCDC's data processing and validation procedures.
#
#######################################################################

data_EFUCUF
_symmetry_cell_setting           orthorhombic
_symmetry_space_group_name_H-M   'P 21 21 21'
_symmetry_Int_Tables_number      19
_space_group_name_Hall           'P 2ac 2ab'
loop_
_symmetry_equiv_pos_site_id
_symmetry_equiv_pos_as_xyz
1 x,y,z
2 1/2-x,-y,1/2+z
3 -x,1/2+y,1/2-z
4 1/2+x,1/2-y,-z
_cell_length_a                   7.4856(4)
_cell_length_b                   13.5037(7)
_cell_length_c                   14.3061(7)
_cell_angle_alpha                90
_cell_angle_beta                 90
_cell_angle_gamma                90
_cell_volume                     1446.11
loop_
_atom_site_label
_atom_site_type_symbol
_atom_site_fract_x
_atom_site_fract_y
_atom_site_fract_z
Pd1 Pd 0.72430(5) 0.43888(3) 0.36639(2)
Cu1 Cu 0.25624(8) 0.47579(4) 0.62497(4)
C1 C 0.5306(7) 0.4388(5) 0.4635(4)
C2 C 0.5472(8) 0.4800(4) 0.2694(4)
C3 C 0.9202(8) 0.4485(4) 0.2722(4)
C4 C 0.8999(8) 0.3920(5) 0.4620(4)
C5 C 0.2585(8) 0.6996(4) 0.2630(3)
H1 H 0.3091 0.7674 0.2627
H2 H 0.3480 0.6546 0.2911
C6 C 0.0892(8) 0.6981(5) 0.3211(4)
H3 H 0.0147 0.7560 0.3044
H4 H 0.0203 0.6376 0.3061
C7 C 0.1886(7) 0.6907(4) 0.6130(4)
H5 H 0.2076 0.6872 0.6786
C8 C 0.1542(9) 0.7818(4) 0.5736(4)
H6 H 0.1507 0.8399 0.6111
C9 C 0.1245(8) 0.7868(4) 0.4774(4)
H7 H 0.1028 0.8488 0.4481
C10 C 0.1272(8) 0.7004(4) 0.4251(4)
C11 C 0.1659(7) 0.6134(4) 0.4712(4)
H8 H 0.1713 0.5540 0.4356
N1 N 0.4241(6) 0.4466(4) 0.5201(3)
N2 N 0.4428(7) 0.5010(4) 0.2136(3)
N3 N 1.0327(7) 0.4588(4) 0.2192(4)
N4 N 0.9985(7) 0.3623(5) 0.5145(4)
N5 N 0.2203(7) 0.6679(3) 0.1653(3)
H9 H 0.2992 0.7073 0.1240
H10 H 0.0962 0.6885 0.1512
N6 N 0.1963(6) 0.6077(3) 0.5637(3)
Cu1A Cu 0.24376(8) 0.52421(4) 0.12497(4)
Cu1A_2 Cu 1.24376(8) 0.52421(4) 0.12497(4)
N2A N 0.0572(7) 0.4990(4) 0.7136(3)
N3A N 0.4673(7) 0.5412(4) 0.7192(4)
N5A N 0.2797(7) 0.3321(3) 0.6653(3)
O1 O 0.7099(10) 0.2622(5) 0.6507(4)
H11 H 0.7821 0.2872 0.6169
H12 H 0.6571 0.2310 0.6096
loop_
_geom_bond_atom_site_label_1
_geom_bond_atom_site_label_2
_geom_bond_site_symmetry_1
_geom_bond_site_symmetry_2
Pd1 C1 1_555 1_555
Cu1 N1 1_555 1_555
C1 N1 1_555 1_555
C2 Pd1 1_555 1_555
C3 Pd1 1_555 1_555
C4 Pd1 1_555 1_555
C5 H1 1_555 1_555
H2 C5 1_555 1_555
C6 C5 1_555 1_555
H3 C6 1_555 1_555
H4 C6 1_555 1_555
C7 H5 1_555 1_555
C8 C7 1_555 1_555
H6 C8 1_555 1_555
C9 C8 1_555 1_555
H7 C9 1_555 1_555
C10 C6 1_555 1_555
C11 C10 1_555 1_555
H8 C11 1_555 1_555
N2 C2 1_555 1_555
N3 C3 1_555 1_555
N4 C4 1_555 1_555
N5 C5 1_555 1_555
H9 N5 1_555 1_555
H10 N5 1_555 1_555
N6 Cu1 1_555 1_555
O1 H11 1_555 1_555
H12 O1 1_555 1_555
Cu1A N2 1_555 1_555
Cu1A_2 N3 1_555 1_555
N2A Cu1 1_555 1_555
N3A Cu1 1_555 1_555
N5A Cu1 1_555 1_555
C7 N6 1_555 1_555
C9 C10 1_555 1_555
C11 N6 1_555 1_555
N5 Cu1A 1_555 1_555

#END
