
#######################################################################
#
#                 Cambridge Crystallographic Data Centre
#                                CCDC 
#
#######################################################################
#
# If this CIF has been generated from an entry in the Cambridge 
# Structural Database, then it will include bibliographic, chemical, 
# crystal, experimental, refinement or atomic coordinate data resulting 
# from the CCDC's data processing and validation procedures.
#
#######################################################################

data_EFUDAM
_symmetry_cell_setting           monoclinic
_symmetry_space_group_name_H-M   'P 21/c'
_symmetry_Int_Tables_number      14
_space_group_name_Hall           '-P 2ybc'
loop_
_symmetry_equiv_pos_site_id
_symmetry_equiv_pos_as_xyz
1 x,y,z
2 -x,1/2+y,1/2-z
3 -x,-y,-z
4 x,1/2-y,1/2+z
_cell_length_a                   8.2840(2)
_cell_length_b                   11.9530(3)
_cell_length_c                   11.7070(3)
_cell_angle_alpha                90
_cell_angle_beta                 110.389(3)
_cell_angle_gamma                90
_cell_volume                     1086.59
loop_
_atom_site_label
_atom_site_type_symbol
_atom_site_fract_x
_atom_site_fract_y
_atom_site_fract_z
Pd1 Pd 0.0000 0.0000 0.0000
N1 N -0.30399(17) 0.16336(11) -0.13576(14)
N2 N 0.25736(17) 0.20296(11) 0.05425(13)
C1 C 0.16303(19) 0.12891(12) 0.03388(14)
C2 C -0.1927(2) 0.10365(12) -0.08696(14)
N1B N 0.30399(17) -0.16336(11) 0.13576(14)
N2B N -0.25736(17) -0.20296(11) -0.05425(13)
C1B C -0.16303(19) -0.12891(12) -0.03388(14)
C2B C 0.1927(2) -0.10365(12) 0.08696(14)
Cu1 Cu 0.5000 0.0000 0.5000
N3 N 0.23729(17) -0.00424(9) 0.39133(12)
C3 C -0.1195(2) -0.00102(11) 0.26107(15)
C4 C -0.3117(2) 0.00516(12) 0.19393(15)
H1 H -0.3547 -0.0694 0.1599
H2 H -0.3358 0.0584 0.1252
N4 N -0.42740(15) -0.04707(10) 0.36007(11)
H3 H -0.3161 -0.0870 0.3939
H4 H -0.5132 -0.1013 0.3099
C5 C -0.0175(2) 0.09240(13) 0.27033(15)
H5 H -0.0682 0.1604 0.2326
C6 C 0.1574(2) 0.08777(13) 0.33394(15)
H6 H 0.2242 0.1530 0.3371
C7 C 0.13831(19) -0.09515(13) 0.38339(15)
H7 H 0.1915 -0.1617 0.4234
C8 C -0.03716(19) -0.09636(13) 0.31981(15)
H8 H -0.1013 -0.1629 0.3165
C9 C -0.4075(2) 0.04304(14) 0.27842(15)
H9 H -0.3440 0.1062 0.3289
H10 H -0.5231 0.0706 0.2280
O1 O 0.49164(12) -0.20153(9) 0.52679(11)
H11 H 0.5586 -0.2389 0.4915
H12 H 0.4441 -0.2468 0.5682
N3B N -0.23729(17) 0.00424(9) 0.60867(12)
C3B C 0.1195(2) 0.00102(11) 0.73893(15)
C4B C 0.3117(2) -0.00516(12) 0.80607(15)
H1B H 0.3547 0.0694 0.8401
H2B H 0.3358 -0.0584 0.8748
N4B N 0.42740(15) 0.04707(10) 0.63993(11)
H3B H 0.3161 0.0870 0.6061
H4B H 0.5132 0.1013 0.6901
C5B C 0.0175(2) -0.09240(13) 0.72967(15)
H5B H 0.0682 -0.1604 0.7674
C6B C -0.1574(2) -0.08777(13) 0.66606(15)
H6B H -0.2242 -0.1530 0.6629
C7B C -0.13831(19) 0.09515(13) 0.61661(15)
H7B H -0.1915 0.1617 0.5766
C8B C 0.03716(19) 0.09636(13) 0.68019(15)
H8B H 0.1013 0.1629 0.6835
C9B C 0.4075(2) -0.04304(14) 0.72158(15)
H9B H 0.3440 -0.1062 0.6711
H10B H 0.5231 -0.0706 0.7720
O1B O 0.50836(12) 0.20153(9) 0.47321(11)
H11B H 0.4414 0.2389 0.5085
H12B H 0.5559 0.2468 0.4318
Cu1_2 Cu -0.5000 0.0000 0.5000
N3B_2 N 0.76271(17) 0.00424(9) 0.60867(12)
N4_2 N 0.57260(15) -0.04707(10) 0.36007(11)
loop_
_geom_bond_atom_site_label_1
_geom_bond_atom_site_label_2
_geom_bond_site_symmetry_1
_geom_bond_site_symmetry_2
Pd1 C1 1_555 1_555
N1 C2 1_555 1_555
N2 C1 1_555 1_555
C2 Pd1 1_555 1_555
Cu1 N3 1_555 1_555
N3 C6 1_555 1_555
C3 C4 1_555 1_555
C4 H1 1_555 1_555
H2 C4 1_555 1_555
N4 H3 1_555 1_555
H4 N4 1_555 1_555
C5 C3 1_555 1_555
H5 C5 1_555 1_555
C6 C5 1_555 1_555
H6 C6 1_555 1_555
C7 N3 1_555 1_555
H7 C7 1_555 1_555
C8 C3 1_555 1_555
H8 C8 1_555 1_555
C9 C4 1_555 1_555
H9 C9 1_555 1_555
H10 C9 1_555 1_555
O1 Cu1 1_555 1_555
H11 O1 1_555 1_555
H12 O1 1_555 1_555
N1B C2B 1_555 1_555
N2B C1B 1_555 1_555
C1B Pd1 1_555 1_555
C2B Pd1 1_555 1_555
N3B C6B 1_555 1_555
C3B C4B 1_555 1_555
C4B H1B 1_555 1_555
H2B C4B 1_555 1_555
N4B Cu1 1_555 1_555
H3B N4B 1_555 1_555
H4B N4B 1_555 1_555
C5B C3B 1_555 1_555
H5B C5B 1_555 1_555
C6B C5B 1_555 1_555
H6B C6B 1_555 1_555
C7B N3B 1_555 1_555
H7B C7B 1_555 1_555
C8B C3B 1_555 1_555
H8B C8B 1_555 1_555
C9B C4B 1_555 1_555
H9B C9B 1_555 1_555
H10B C9B 1_555 1_555
O1B Cu1 1_555 1_555
H11B O1B 1_555 1_555
H12B O1B 1_555 1_555
Cu1_2 N4 1_555 1_555
N3B_2 Cu1 1_555 1_555
N4_2 Cu1 1_555 1_555
N4 C9 1_555 1_555
C7 C8 1_555 1_555
N3B Cu1_2 1_555 1_555
N4B C9B 1_555 1_555
C7B C8B 1_555 1_555

#END
