
#######################################################################
#
#                 Cambridge Crystallographic Data Centre
#                                CCDC 
#
#######################################################################
#
# If this CIF has been generated from an entry in the Cambridge 
# Structural Database, then it will include bibliographic, chemical, 
# crystal, experimental, refinement or atomic coordinate data resulting 
# from the CCDC's data processing and validation procedures.
#
#######################################################################

data_EFUFEQ
_symmetry_cell_setting           triclinic
_symmetry_space_group_name_H-M   'P -1'
_symmetry_Int_Tables_number      2
_space_group_name_Hall           '-P 1'
loop_
_symmetry_equiv_pos_site_id
_symmetry_equiv_pos_as_xyz
1 x,y,z
2 -x,-y,-z
_cell_length_a                   6.7843(5)
_cell_length_b                   9.3299(7)
_cell_length_c                   9.4439(7)
_cell_angle_alpha                104.629(1)
_cell_angle_beta                 92.324(1)
_cell_angle_gamma                100.416(1)
_cell_volume                     566.52
loop_
_atom_site_label
_atom_site_type_symbol
_atom_site_fract_x
_atom_site_fract_y
_atom_site_fract_z
Cd1 Cd 0.25821(4) 0.53455(3) 0.12895(3)
O1 O 0.1129(5) 0.5762(4) -0.0963(3)
O2 O 0.3572(5) -0.2143(4) -0.8221(4)
O3 O 0.3625(5) 0.4517(4) -0.1233(3)
O4 O 0.0455(5) -0.2106(4) -0.7614(4)
N1 N 0.2709(6) 0.2983(4) -0.8438(4)
N2 N 0.2557(6) 0.5404(4) -0.6194(4)
C1 C 0.2076(7) -0.1515(5) -0.7969(6)
C2 C 0.2404(7) 0.5153(5) -0.1724(5)
C3 C 0.2770(9) 0.1814(6) -0.9593(6)
C4 C 0.2634(8) 0.0358(6) -0.9465(6)
C5 C 0.2335(7) 0.0084(5) -0.8118(6)
C6 C 0.2261(7) 0.1280(6) -0.6916(6)
C7 C 0.2491(6) 0.2727(5) -0.7098(5)
C8 C 0.2527(6) 0.4092(5) -0.5850(5)
C9 C 0.2540(7) 0.3985(5) -0.4413(5)
C10 C 0.2470(5) 0.5255(5) -0.3289(5)
C11 C 0.2476(7) 0.6630(6) -0.3634(6)
C12 C 0.2561(7) 0.6649(5) -0.5095(5)
H1 H 0.270(9) -0.052(8) -1.038(7)
H2 H 0.212(7) 0.110(6) -0.600(6)
H3 H 0.242(9) 0.730(8) -0.300(8)
H4 H 0.305(8) 0.201(6) -1.047(7)
H5 H 0.246(7) 0.307(7) -0.419(6)
H6 H 0.252(8) 0.749(7) -0.535(6)
O1A O -0.1129(5) 0.4238(4) 0.0963(3)
O2_2 O 0.3572(5) 0.7857(4) 0.1779(4)
O3A O 0.6375(5) 0.5483(4) 0.1233(3)
N1_2 N 0.2709(6) 0.2983(4) 0.1562(4)
N2_2 N 0.2557(6) 0.5404(4) 0.3806(4)
Cd1A Cd -0.25821(4) 0.46545(3) -0.12895(3)
Cd1_2 Cd 0.25821(4) -0.46545(3) -0.87105(3)
Cd1A_2 Cd 0.74179(4) 0.46545(3) -0.12895(3)
Cd1_3 Cd 0.25821(4) 0.53455(3) -0.87105(3)
O5 O 0.2610(7) 0.0409(5) -0.3498(6)
H7 H 0.171(14) 0.093(11) -0.318(10)
H8 H 0.380(17) 0.061(13) -0.322(13)
loop_
_geom_bond_atom_site_label_1
_geom_bond_atom_site_label_2
_geom_bond_site_symmetry_1
_geom_bond_site_symmetry_2
Cd1 O1 1_555 1_555
O1 C2 1_555 1_555
O2 C1 1_555 1_555
O3 Cd1 1_555 1_555
O4 C1 1_555 1_555
O5 H7 1_555 1_555
N1 C3 1_555 1_555
N2 C8 1_555 1_555
C1 C5 1_555 1_555
C2 O3 1_555 1_555
C3 C4 1_555 1_555
C4 C5 1_555 1_555
C5 C6 1_555 1_555
C6 C7 1_555 1_555
C7 N1 1_555 1_555
C8 C7 1_555 1_555
C9 C8 1_555 1_555
C10 C2 1_555 1_555
C11 C10 1_555 1_555
C12 N2 1_555 1_555
H1 C4 1_555 1_555
H2 C6 1_555 1_555
H3 C11 1_555 1_555
H4 C3 1_555 1_555
H5 C9 1_555 1_555
H6 C12 1_555 1_555
H8 O5 1_555 1_555
O1A Cd1 1_555 1_555
O2_2 Cd1 1_555 1_555
O3A Cd1 1_555 1_555
N1_2 Cd1 1_555 1_555
N2_2 Cd1 1_555 1_555
Cd1A O1 1_555 1_555
Cd1_2 O2 1_555 1_555
Cd1A_2 O3 1_555 1_555
Cd1_3 N1 1_555 1_555
N2 Cd1_3 1_555 1_555
C9 C10 1_555 1_555
C11 C12 1_555 1_555
O1A Cd1A 1_555 1_555
O3A Cd1A_2 1_555 1_555

#END
