
#######################################################################
#
#                 Cambridge Crystallographic Data Centre
#                                CCDC 
#
#######################################################################
#
# If this CIF has been generated from an entry in the Cambridge 
# Structural Database, then it will include bibliographic, chemical, 
# crystal, experimental, refinement or atomic coordinate data resulting 
# from the CCDC's data processing and validation procedures.
#
#######################################################################

data_EFUHEU
_symmetry_cell_setting           monoclinic
_symmetry_space_group_name_H-M   'C c'
_symmetry_Int_Tables_number      9
_space_group_name_Hall           'C -2yc'
loop_
_symmetry_equiv_pos_site_id
_symmetry_equiv_pos_as_xyz
1 x,y,z
2 x,-y,1/2+z
3 1/2+x,1/2+y,z
4 1/2+x,1/2-y,1/2+z
_cell_length_a                   19.4733(6)
_cell_length_b                   18.8080(7)
_cell_length_c                   14.5788(4)
_cell_angle_alpha                90
_cell_angle_beta                 128.697(3)
_cell_angle_gamma                90
_cell_volume                     4167.32
loop_
_atom_site_label
_atom_site_type_symbol
_atom_site_fract_x
_atom_site_fract_y
_atom_site_fract_z
Zn1 Zn 0.02439(3) 0.13355(3) 0.35263(4)
O1 O 0.0323(3) 0.0824(3) 0.2444(4)
O2 O 0.1121(3) 0.2086(3) 0.4425(4)
N1 N 0.0051(3) 0.0810(3) 0.4559(4)
N2 N -0.0864(3) 0.1968(3) 0.2483(4)
C1 C -0.0184(4) 0.0297(4) 0.1920(6)
C2 C 0.1847(5) 0.1744(4) 0.5158(6)
O3 O -0.0712(3) 0.0077(3) 0.2043(5)
C3 C -0.0109(4) -0.0084(4) 0.1101(6)
C4 C 0.2650(5) 0.2211(3) 0.5983(6)
O4 O 0.1909(3) 0.1110(3) 0.5215(5)
C5 C -0.0542(4) -0.0719(4) 0.0569(6)
C6 C 0.0387(4) 0.0184(3) 0.0787(6)
C7 C 0.2605(5) 0.2934(3) 0.5966(6)
C8 C 0.3467(4) 0.1891(3) 0.6777(5)
C9 C -0.0442(4) -0.1061(3) -0.0179(6)
H1 H -0.0903 -0.0916 0.0717
C10 C 0.0439(4) -0.0178(3) 0.0014(5)
H2 H 0.0686 0.0612 0.1105
C11 C 0.3341(4) 0.3324(3) 0.6723(6)
H3 H 0.2066 0.3161 0.5435
C12 C 0.4172(4) 0.2311(3) 0.7506(5)
H4 H 0.3526 0.1399 0.6804
H5 H -0.0736 -0.1489 -0.0515
H6 H 0.0755 0.0023 -0.0203
H7 H 0.3291 0.3816 0.6712
H8 H 0.4714 0.2095 0.8056
N1A N 0.0051(3) -0.0810(3) -0.0441(4)
N2C N 0.4136(3) 0.3032(3) 0.7483(4)
Zn1A Zn 0.02439(3) -0.13355(3) -0.14737(4)
Zn1C Zn 0.52439(3) 0.36645(3) 0.85263(4)
Zn2 Zn 0.26698(3) 0.13354(3) 0.10626(4)
O5 O 0.6788(3) 0.2878(3) 0.5308(4)
N3 N 0.3792(3) 0.1934(3) 0.2165(4)
C13 C 0.5275(4) 0.2748(4) 0.3708(5)
C14 C 0.6079(4) 0.3193(4) 0.4528(6)
C15 C 0.3757(4) 0.2634(4) 0.2060(5)
H9 H 0.3224 0.2846 0.1463
O6 O 0.6036(3) 0.3840(3) 0.4393(5)
C16 C 0.4501(4) 0.3068(4) 0.2823(6)
H10 H 0.4466 0.3559 0.2726
C17 C 0.5300(4) 0.2019(4) 0.3805(5)
H11 H 0.5823 0.1790 0.4389
C18 C 0.4539(4) 0.1628(4) 0.3026(5)
H12 H 0.4556 0.1138 0.3114
O7 O 0.7566(3) 0.4260(2) 0.7048(4)
N4 N 0.7816(3) 0.4137(3) 0.4954(4)
C19 C 0.8080(4) 0.4787(3) 0.7592(5)
C20 C 0.8317(4) 0.6120(3) 0.9701(5)
C21 C 0.7382(4) 0.5263(3) 0.9408(5)
C22 C 0.7436(4) 0.4907(4) 0.8656(6)
H13 H 0.7119 0.4490 0.8306
C23 C 0.8412(4) 0.5794(3) 0.8948(5)
H14 H 0.8771 0.5992 0.8800
H15 H 0.8618 0.6543 1.0054
H16 H 0.7018 0.5078 0.9558
C24 C 0.7965(4) 0.5166(4) 0.8410(6)
O8 O 0.8655(3) 0.4971(3) 0.7546(4)
Zn2C Zn 0.76698(3) 0.36646(3) 0.60626(4)
N3C N 0.8792(3) 0.3066(3) 0.7165(4)
N4A N 0.7816(3) 0.5863(3) 0.9954(4)
Zn2B Zn 0.76698(3) 0.63354(3) 1.10626(4)
Zn3 Zn 0.13525(4) 0.36679(3) 0.23544(5)
O9 O 0.1192(4) 0.5942(3) -0.1545(4)
C25 C 0.1611(5) 0.5022(5) -0.0172(7)
C26 C 0.0874(5) 0.5097(4) -0.0271(6)
H17 H 0.0423 0.5402 -0.0823
C27 C 0.1685(5) 0.5404(4) -0.1045(6)
O10 O 0.2204(4) 0.5196(3) -0.1184(5)
N5 N 0.1459(3) 0.4278(3) 0.1288(4)
C28 C 0.2268(4) 0.4585(4) 0.0638(6)
H18 H 0.2770 0.4529 0.0701
C29 C 0.0822(5) 0.4699(4) 0.0482(6)
H19 H 0.0316 0.4732 0.0415
C30 C 0.2169(4) 0.4229(4) 0.1358(5)
H20 H 0.2624 0.3934 0.1931
C31 C -0.1007(4) 0.7290(3) -0.5093(5)
C32 C -0.1792(4) 0.6983(3) -0.5944(5)
C33 C -0.0966(4) 0.8023(3) -0.5022(5)
H21 H -0.0434 0.8252 -0.4469
C34 C -0.1736(4) 0.8413(4) -0.5794(5)
C35 C -0.2539(4) 0.7402(3) -0.6720(5)
H22 H -0.3071 0.7184 -0.7309
H23 H -0.1717 0.8906 -0.5729
N6 N 0.2498(3) 0.6906(3) -0.1629(4)
O11 O 0.0504(3) 0.7122(3) -0.3563(4)
C36 C -0.0220(5) 0.6825(4) -0.4251(6)
O12 O -0.0324(3) 0.6187(2) -0.4270(4)
H24 H -0.1834 0.6490 -0.6012
Zn3A Zn 0.13525(4) 0.63321(3) -0.26456(5)
N5A N 0.1459(3) 0.5722(3) -0.3712(4)
N6C N -0.2502(3) 0.8094(3) -0.6629(4)
Zn3B Zn -0.36475(4) 0.86679(3) -0.76456(5)
N7 N 0.1533(8) 0.2985(4) 0.7490(9)
C37 C 0.2263(13) 0.3238(9) 0.8401(16)
H25 H 0.2313 0.3729 0.8501
C38 C 0.0860(13) 0.3439(10) 0.6715(18)
H26 H 0.1037 0.3919 0.6992
H27 H 0.0352 0.3322 0.6652
H28 H 0.0719 0.3395 0.5958
C39 C 0.1468(12) 0.2263(6) 0.7325(16)
H29 H 0.1585 0.2032 0.7997
H30 H 0.1888 0.2108 0.7227
H31 H 0.0885 0.2145 0.6636
O13 O 0.2916(6) 0.2862(5) 0.9167(8)
O14 O 0.4705(4) 0.0128(3) 0.1788(6)
loop_
_geom_bond_atom_site_label_1
_geom_bond_atom_site_label_2
_geom_bond_site_symmetry_1
_geom_bond_site_symmetry_2
Zn1 O1 1_555 1_555
O1 C1 1_555 1_555
O2 Zn1 1_555 1_555
N1 Zn1 1_555 1_555
N2 Zn1 1_555 1_555
C1 O3 1_555 1_555
C2 O2 1_555 1_555
C3 C1 1_555 1_555
C4 C2 1_555 1_555
O4 C2 1_555 1_555
C5 C3 1_555 1_555
C6 C3 1_555 1_555
C7 C4 1_555 1_555
C8 C4 1_555 1_555
C9 C5 1_555 1_555
H1 C5 1_555 1_555
C10 C6 1_555 1_555
H2 C6 1_555 1_555
C11 C7 1_555 1_555
H3 C7 1_555 1_555
C12 C8 1_555 1_555
H4 C8 1_555 1_555
H5 C9 1_555 1_555
H6 C10 1_555 1_555
H7 C11 1_555 1_555
H8 C12 1_555 1_555
Zn2 N3 1_555 1_555
O5 C14 1_555 1_555
N3 C15 1_555 1_555
C13 C14 1_555 1_555
C14 O6 1_555 1_555
C15 H9 1_555 1_555
C16 C13 1_555 1_555
H10 C16 1_555 1_555
C17 C13 1_555 1_555
H11 C17 1_555 1_555
C18 N3 1_555 1_555
H12 C18 1_555 1_555
O7 C19 1_555 1_555
N4 Zn2C 1_555 1_555
C19 C24 1_555 1_555
C20 C23 1_555 1_555
C21 C22 1_555 1_555
C22 H13 1_555 1_555
C23 H14 1_555 1_555
H15 C20 1_555 1_555
H16 C21 1_555 1_555
C24 C22 1_555 1_555
O8 C19 1_555 1_555
Zn3 N5 1_555 1_555
O9 C27 1_555 1_555
C25 C26 1_555 1_555
C26 H17 1_555 1_555
C27 C25 1_555 1_555
O10 C27 1_555 1_555
N5 C29 1_555 1_555
C28 C25 1_555 1_555
H18 C28 1_555 1_555
C29 C26 1_555 1_555
H19 C29 1_555 1_555
C30 N5 1_555 1_555
H20 C30 1_555 1_555
C31 C32 1_555 1_555
C32 C35 1_555 1_555
C33 C31 1_555 1_555
H21 C33 1_555 1_555
C34 C33 1_555 1_555
C35 H22 1_555 1_555
H23 C34 1_555 1_555
N6 Zn3A 1_555 1_555
O11 C36 1_555 1_555
C36 C31 1_555 1_555
O12 C36 1_555 1_555
H24 C32 1_555 1_555
N7 C37 1_555 1_555
C37 H25 1_555 1_555
C38 N7 1_555 1_555
H26 C38 1_555 1_555
H27 C38 1_555 1_555
H28 C38 1_555 1_555
C39 N7 1_555 1_555
H29 C39 1_555 1_555
H30 C39 1_555 1_555
H31 C39 1_555 1_555
O13 C37 1_555 1_555
N1A C9 1_555 1_555
N2C C11 1_555 1_555
Zn1A N1A 1_555 1_555
Zn1C N2C 1_555 1_555
Zn2C O5 1_555 1_555
N3C Zn2C 1_555 1_555
N4A C20 1_555 1_555
Zn2B N4A 1_555 1_555
Zn3A O9 1_555 1_555
N5A Zn3A 1_555 1_555
N6C C34 1_555 1_555
Zn3B N6C 1_555 1_555
C10 N1A 1_555 1_555
C12 N2C 1_555 1_555
C15 C16 1_555 1_555
C17 C18 1_555 1_555
O7 Zn2C 1_555 1_555
C21 N4A 1_555 1_555
C23 C24 1_555 1_555
C28 C30 1_555 1_555
C35 N6C 1_555 1_555
O11 Zn3A 1_555 1_555

#END
