
#######################################################################
#
#                 Cambridge Crystallographic Data Centre
#                                CCDC 
#
#######################################################################
#
# If this CIF has been generated from an entry in the Cambridge 
# Structural Database, then it will include bibliographic, chemical, 
# crystal, experimental, refinement or atomic coordinate data resulting 
# from the CCDC's data processing and validation procedures.
#
#######################################################################

data_EFUKIZ
_symmetry_cell_setting           monoclinic
_symmetry_space_group_name_H-M   'P 21/n'
_symmetry_Int_Tables_number      14
_space_group_name_Hall           '-P 2yn'
loop_
_symmetry_equiv_pos_site_id
_symmetry_equiv_pos_as_xyz
1 x,y,z
2 1/2+x,1/2-y,1/2+z
3 -x,-y,-z
4 1/2-x,1/2+y,1/2-z
_cell_length_a                   13.7270(10)
_cell_length_b                   10.1806(9)
_cell_length_c                   19.682(2)
_cell_angle_alpha                90
_cell_angle_beta                 105.600(2)
_cell_angle_gamma                90
_cell_volume                     2649.22
loop_
_atom_site_label
_atom_site_type_symbol
_atom_site_fract_x
_atom_site_fract_y
_atom_site_fract_z
Cu1 Cu 0.87865(3) 0.20903(4) 0.73499(2)
P1 P 0.93587(6) 0.15258(8) 0.64318(4)
C1 C 0.8940(3) 0.2671(3) 0.56740(17)
C2 C 0.9066(3) 0.2191(4) 0.49664(19)
C3 C 0.8772(3) 0.3253(4) 0.4399(2)
C4 C 0.7702(3) 0.3745(4) 0.4327(2)
C5 C 0.7598(3) 0.4258(4) 0.5025(2)
C6 C 0.7867(3) 0.3213(4) 0.55992(18)
C7 C 1.0757(2) 0.1416(3) 0.65633(17)
C8 C 1.1293(3) 0.0965(4) 0.73208(18)
C9 C 1.2427(3) 0.0772(4) 0.74159(19)
C10 C 1.2909(3) 0.2057(4) 0.7273(2)
C11 C 1.2393(3) 0.2550(4) 0.6543(2)
C12 C 1.1249(3) 0.2700(3) 0.6414(2)
C13 C 0.8946(3) -0.0125(3) 0.60449(17)
C14 C 0.7796(3) -0.0195(4) 0.5761(2)
C15 C 0.7423(3) -0.1577(4) 0.5499(2)
C16 C 0.7800(3) -0.2587(4) 0.6078(2)
C17 C 0.8940(3) -0.2576(4) 0.6313(3)
C18 C 0.9348(3) -0.1218(3) 0.6585(2)
N1 N 0.8912(2) 0.4968(3) 0.78161(14)
N2 N 0.8266(2) 0.4098(2) 0.73970(14)
C19 C 0.7373(2) 0.4704(3) 0.72491(17)
N3 N 0.7414(2) 0.5914(3) 0.75475(14)
C20 C 0.8386(2) 0.6027(3) 0.78962(17)
N4 N 1.00768(19) 0.3454(3) 0.86416(15)
N5 N 0.9637(2) 0.2270(3) 0.84066(14)
C21 C 0.9730(3) 0.1598(3) 0.89957(18)
N6 N 1.0197(2) 0.2248(3) 0.95900(16)
C22 C 1.0393(3) 0.3402(3) 0.93370(19)
B1 B 1.0052(3) 0.4621(4) 0.8127(2)
H1 H 0.938(3) 0.336(5) 0.582(2)
H2 H 0.867(3) 0.143(5) 0.478(2)
H3 H 0.973(3) 0.197(4) 0.500(2)
H4 H 0.880(4) 0.289(5) 0.397(3)
H5 H 0.928(3) 0.402(5) 0.455(2)
H6 H 0.715(4) 0.299(6) 0.412(3)
H7 H 0.751(4) 0.440(6) 0.393(3)
H8 H 0.687(3) 0.461(4) 0.497(2)
H9 H 0.810(3) 0.502(4) 0.515(2)
H10 H 0.780(3) 0.343(4) 0.604(2)
H11 H 0.732(4) 0.248(5) 0.541(3)
H12 H 1.094(3) 0.077(4) 0.6240(18)
H13 H 1.088(3) 0.013(5) 0.741(2)
H14 H 1.120(3) 0.167(5) 0.760(2)
H15 H 1.256(3) 0.006(4) 0.7065(18)
H16 H 1.269(3) 0.044(4) 0.788(2)
H17 H 1.363(3) 0.193(4) 0.733(2)
H18 H 1.274(4) 0.270(5) 0.761(3)
H19 H 1.256(4) 0.192(5) 0.621(3)
H20 H 1.268(3) 0.322(4) 0.643(2)
H21 H 1.109(3) 0.337(4) 0.675(2)
H22 H 1.096(3) 0.287(4) 0.593(2)
H23 H 0.925(3) -0.026(4) 0.564(2)
H24 H 0.756(3) 0.029(4) 0.536(2)
H25 H 0.747(3) 0.007(4) 0.6133(18)
H26 H 0.767(3) -0.178(4) 0.507(2)
H27 H 0.663(4) -0.160(5) 0.534(3)
H28 H 0.749(3) -0.342(4) 0.587(2)
H29 H 0.758(3) -0.242(4) 0.649(2)
H30 H 0.913(3) -0.279(4) 0.589(2)
H31 H 0.913(4) -0.295(5) 0.665(3)
H32 H 0.917(3) -0.098(4) 0.700(2)
H33 H 1.007(3) -0.125(4) 0.6690(19)
H34 H 0.676(3) 0.437(4) 0.6942(18)
H35 H 0.864(4) 0.676(5) 0.821(3)
H36 H 0.942(3) 0.072(5) 0.898(2)
H37 H 1.073(4) 0.405(5) 0.962(2)
H38 H 1.044(3) 0.429(4) 0.771(2)
H39 H 1.042(3) 0.537(5) 0.843(2)
N3C N 0.7586(2) 0.0914(3) 0.74525(14)
Cu1C Cu 0.62135(3) 0.70903(4) 0.76501(2)
C23 C 0.4568(3) 0.3395(4) 0.6122(2)
O1 O 0.55430(18) 0.3406(3) 0.60122(14)
H40 H 0.417(5) 0.401(8) 0.585(4)
H41 H 0.464(4) 0.362(6) 0.660(3)
H42 H 0.410(6) 0.257(8) 0.594(4)
H43 H 0.544(3) 0.332(4) 0.561(2)
loop_
_geom_bond_atom_site_label_1
_geom_bond_atom_site_label_2
_geom_bond_site_symmetry_1
_geom_bond_site_symmetry_2
Cu1 P1 1_555 1_555
P1 C1 1_555 1_555
C1 C2 1_555 1_555
C2 C3 1_555 1_555
C3 C4 1_555 1_555
C4 C5 1_555 1_555
C5 C6 1_555 1_555
C6 C1 1_555 1_555
C7 P1 1_555 1_555
C8 C7 1_555 1_555
C9 C8 1_555 1_555
C10 C9 1_555 1_555
C11 C10 1_555 1_555
C12 C7 1_555 1_555
C13 P1 1_555 1_555
C14 C13 1_555 1_555
C15 C14 1_555 1_555
C16 C15 1_555 1_555
C17 C16 1_555 1_555
C18 C13 1_555 1_555
N1 N2 1_555 1_555
N2 Cu1 1_555 1_555
C19 N2 1_555 1_555
N3 C19 1_555 1_555
C20 N1 1_555 1_555
N4 N5 1_555 1_555
N5 Cu1 1_555 1_555
C21 N5 1_555 1_555
N6 C21 1_555 1_555
C22 N4 1_555 1_555
B1 N1 1_555 1_555
C23 O1 1_555 1_555
O1 H43 1_555 1_555
H1 C1 1_555 1_555
H2 C2 1_555 1_555
H3 C2 1_555 1_555
H4 C3 1_555 1_555
H5 C3 1_555 1_555
H6 C4 1_555 1_555
H7 C4 1_555 1_555
H8 C5 1_555 1_555
H9 C5 1_555 1_555
H10 C6 1_555 1_555
H11 C6 1_555 1_555
H12 C7 1_555 1_555
H13 C8 1_555 1_555
H14 C8 1_555 1_555
H15 C9 1_555 1_555
H16 C9 1_555 1_555
H17 C10 1_555 1_555
H18 C10 1_555 1_555
H19 C11 1_555 1_555
H20 C11 1_555 1_555
H21 C12 1_555 1_555
H22 C12 1_555 1_555
H23 C13 1_555 1_555
H24 C14 1_555 1_555
H25 C14 1_555 1_555
H26 C15 1_555 1_555
H27 C15 1_555 1_555
H28 C16 1_555 1_555
H29 C16 1_555 1_555
H30 C17 1_555 1_555
H31 C17 1_555 1_555
H32 C18 1_555 1_555
H33 C18 1_555 1_555
H34 C19 1_555 1_555
H35 C20 1_555 1_555
H36 C21 1_555 1_555
H37 C22 1_555 1_555
H38 B1 1_555 1_555
H39 B1 1_555 1_555
H40 C23 1_555 1_555
H41 C23 1_555 1_555
H42 C23 1_555 1_555
N3C Cu1 1_555 1_555
Cu1C N3 1_555 1_555
C11 C12 1_555 1_555
C17 C18 1_555 1_555
N3 C20 1_555 1_555
N4 B1 1_555 1_555
N6 C22 1_555 1_555

#END
