
#######################################################################
#
#                 Cambridge Crystallographic Data Centre
#                                CCDC 
#
#######################################################################
#
# If this CIF has been generated from an entry in the Cambridge 
# Structural Database, then it will include bibliographic, chemical, 
# crystal, experimental, refinement or atomic coordinate data resulting 
# from the CCDC's data processing and validation procedures.
#
#######################################################################

data_EFUKUL
_symmetry_cell_setting           orthorhombic
_symmetry_space_group_name_H-M   'P 21 21 21'
_symmetry_Int_Tables_number      19
_space_group_name_Hall           'P 2ac 2ab'
loop_
_symmetry_equiv_pos_site_id
_symmetry_equiv_pos_as_xyz
1 x,y,z
2 1/2-x,-y,1/2+z
3 1/2+x,1/2-y,-z
4 -x,1/2+y,1/2-z
_cell_length_a                   10.2010(8)
_cell_length_b                   19.5500(16)
_cell_length_c                   22.3910(18)
_cell_angle_alpha                90
_cell_angle_beta                 90
_cell_angle_gamma                90
_cell_volume                     4465.43
loop_
_atom_site_label
_atom_site_type_symbol
_atom_site_fract_x
_atom_site_fract_y
_atom_site_fract_z
Cu1 Cu 0.14846(4) 0.04302(2) 0.963816(18)
P1 P 0.17172(10) -0.05006(5) 1.02295(4)
P2 P 0.23082(9) 0.03572(5) 0.86942(4)
C1 C 0.3345(4) -0.05289(18) 1.05754(16)
C2 C 0.3586(5) -0.0797(2) 1.11435(18)
C3 C 0.4879(5) -0.0780(2) 1.1382(2)
C4 C 0.5140(6) -0.1068(3) 1.1988(2)
C5 C 0.5863(5) -0.0497(3) 1.1038(2)
C6 C 0.5630(5) -0.0241(3) 1.0480(2)
C7 C 0.4372(4) -0.0252(2) 1.0249(2)
C8 C 0.0622(4) -0.05715(19) 1.08710(16)
C9 C 0.0391(4) 0.0024(2) 1.12028(17)
C10 C -0.0369(4) 0.0011(2) 1.17289(18)
C11 C -0.0593(5) 0.0659(3) 1.2085(2)
C12 C -0.0902(4) -0.0606(3) 1.19045(19)
C13 C -0.0717(5) -0.1195(3) 1.1576(2)
C14 C 0.0050(5) -0.1180(2) 1.1061(2)
C15 C 0.1568(5) -0.13339(18) 0.98705(16)
C16 C 0.0551(5) -0.1429(2) 0.9467(2)
C17 C 0.0358(6) -0.2064(3) 0.9185(2)
C18 C -0.0708(7) -0.2168(3) 0.8757(3)
C19 C 0.1214(7) -0.2593(2) 0.9312(2)
C20 C 0.2217(7) -0.2510(2) 0.9706(3)
C21 C 0.2393(6) -0.1881(2) 0.9987(2)
C22 C 0.3902(4) -0.00585(19) 0.86617(16)
C23 C 0.3973(4) -0.07741(19) 0.86983(18)
C24 C 0.5163(4) -0.1111(2) 0.87677(18)
C25 C 0.5204(5) -0.1883(2) 0.8800(3)
C26 C 0.6299(4) -0.0728(2) 0.88097(18)
C27 C 0.6253(4) -0.0019(2) 0.87707(19)
C28 C 0.5055(4) 0.0317(2) 0.86953(18)
C29 C 0.2576(4) 0.11849(18) 0.83251(16)
C30 C 0.2270(4) 0.17664(18) 0.86482(16)
C31 C 0.2378(4) 0.2423(2) 0.84127(18)
C32 C 0.2029(6) 0.3030(2) 0.8798(2)
C33 C 0.2802(4) 0.2484(2) 0.78229(18)
C34 C 0.3130(5) 0.1908(2) 0.74932(18)
C35 C 0.3018(4) 0.1258(2) 0.77384(17)
C36 C 0.1323(4) -0.01175(17) 0.81522(15)
C37 C 0.1848(3) -0.0398(2) 0.76292(15)
C38 C 0.1058(4) -0.0725(2) 0.72094(17)
C39 C 0.1629(5) -0.1004(2) 0.66381(17)
C40 C -0.0270(5) -0.0772(3) 0.73272(19)
C41 C -0.0809(4) -0.0506(3) 0.7845(2)
C42 C -0.0018(4) -0.0179(2) 0.82614(18)
N1 N 0.2433(3) 0.22775(15) 1.05117(14)
N2 N 0.3700(3) 0.21069(15) 1.03734(16)
C43 C 0.3586(4) 0.14979(18) 1.01189(16)
N3 N 0.2321(3) 0.12651(15) 1.00852(13)
C44 C 0.1644(4) 0.17742(17) 1.03353(17)
N4 N 0.2926(3) 0.35238(16) 1.06303(14)
N5 N 0.2539(4) 0.38994(18) 1.01426(16)
C45 C 0.3563(4) 0.4279(2) 1.00298(17)
N6 N 0.4588(3) 0.41833(15) 1.03987(15)
C46 C 0.4143(4) 0.3703(2) 1.07672(19)
N7 N 0.2308(4) 0.28190(17) 1.15352(16)
N8 N 0.3516(5) 0.2712(2) 1.17845(16)
C47 C 0.3213(7) 0.2552(3) 1.2350(2)
N9 N 0.1922(7) 0.2550(3) 1.2479(2)
C48 C 0.1404(7) 0.2718(3) 1.1962(2)
B1 B 0.2068(5) 0.2933(2) 1.0867(2)
H1 H 0.28733 -0.09913 1.13777
H2 H 0.43354 -0.12389 1.21608
H3 H 0.57494 -0.14321 1.19693
H4 H 0.54704 -0.07201 1.22475
H5 H 0.67403 -0.04693 1.11944
H6 H 0.63299 -0.00495 1.02449
H7 H 0.42018 -0.00635 0.98616
H8 H 0.07792 0.04486 1.10671
H9 H -0.13367 0.09033 1.19364
H10 H 0.01575 0.09646 1.20538
H11 H -0.07203 0.05543 1.24917
H12 H -0.14144 -0.06243 1.22689
H13 H -0.11183 -0.16182 1.16990
H14 H 0.02185 -0.15930 1.08416
H15 H -0.00535 -0.10556 0.93773
H16 H -0.07965 -0.26163 0.86086
H17 H -0.15427 -0.20543 0.89525
H18 H -0.06292 -0.18609 0.84250
H19 H 0.10903 -0.30271 0.91093
H20 H 0.28009 -0.28849 0.97884
H21 H 0.31296 -0.18231 1.02692
H22 H 0.31901 -0.10438 0.86663
H23 H 0.60534 -0.20267 0.89329
H24 H 0.45665 -0.20520 0.90847
H25 H 0.50216 -0.20882 0.84244
H26 H 0.71072 -0.09540 0.88779
H27 H 0.70493 0.02409 0.87861
H28 H 0.50363 0.08032 0.86731
H29 H 0.19468 0.17146 0.90543
H30 H 0.11881 0.29484 0.89750
H31 H 0.26607 0.30760 0.91076
H32 H 0.19841 0.34519 0.85810
H33 H 0.28816 0.29301 0.76395
H34 H 0.34398 0.19588 0.70933
H35 H 0.32268 0.08589 0.75015
H36 H 0.27649 -0.03793 0.75563
H37 H 0.14043 -0.07208 0.63065
H38 H 0.13391 -0.14558 0.65659
H39 H 0.25641 -0.10042 0.66802
H40 H -0.08300 -0.09934 0.70398
H41 H -0.17454 -0.05449 0.79114
H42 H -0.03963 0.00021 0.86184
H43 H 0.43157 0.12415 0.99698
H44 H 0.07034 0.17738 1.03805
H45 H 0.35820 0.46175 0.97119
H46 H 0.46573 0.35097 1.10885
H47 H 0.38774 0.24439 1.26346
H48 H 0.04538 0.27545 1.18897
H49 H 0.11329 0.30589 1.08033
N6B N -0.0412(3) 0.08167(15) 0.96013(15)
Cu1B Cu 0.64846(4) 0.45698(2) 1.036184(18)
loop_
_geom_bond_atom_site_label_1
_geom_bond_atom_site_label_2
_geom_bond_site_symmetry_1
_geom_bond_site_symmetry_2
Cu1 P1 1_555 1_555
P1 C1 1_555 1_555
P2 Cu1 1_555 1_555
C1 C2 1_555 1_555
C2 C3 1_555 1_555
C3 C4 1_555 1_555
C4 H2 1_555 1_555
C5 C3 1_555 1_555
C6 C5 1_555 1_555
C7 C1 1_555 1_555
C8 P1 1_555 1_555
C9 C8 1_555 1_555
C10 C9 1_555 1_555
C11 C10 1_555 1_555
C12 C10 1_555 1_555
C13 C12 1_555 1_555
C14 C8 1_555 1_555
C15 P1 1_555 1_555
C16 C15 1_555 1_555
C17 C16 1_555 1_555
C18 C17 1_555 1_555
C19 C17 1_555 1_555
C20 C19 1_555 1_555
C21 C15 1_555 1_555
C22 P2 1_555 1_555
C23 C22 1_555 1_555
C24 C23 1_555 1_555
C25 C24 1_555 1_555
C26 C24 1_555 1_555
C27 C26 1_555 1_555
C28 C22 1_555 1_555
C29 P2 1_555 1_555
C30 C29 1_555 1_555
C31 C30 1_555 1_555
C32 C31 1_555 1_555
C33 C31 1_555 1_555
C34 C33 1_555 1_555
C35 C29 1_555 1_555
C36 P2 1_555 1_555
C37 C36 1_555 1_555
C38 C37 1_555 1_555
C39 C38 1_555 1_555
C40 C38 1_555 1_555
C41 C40 1_555 1_555
C42 C36 1_555 1_555
N1 N2 1_555 1_555
N2 C43 1_555 1_555
C43 N3 1_555 1_555
N3 Cu1 1_555 1_555
C44 N1 1_555 1_555
N4 N5 1_555 1_555
N5 C45 1_555 1_555
C45 N6 1_555 1_555
N6 C46 1_555 1_555
C46 N4 1_555 1_555
N7 N8 1_555 1_555
N8 C47 1_555 1_555
C47 N9 1_555 1_555
N9 C48 1_555 1_555
C48 N7 1_555 1_555
B1 N1 1_555 1_555
H1 C2 1_555 1_555
H3 C4 1_555 1_555
H4 C4 1_555 1_555
H5 C5 1_555 1_555
H6 C6 1_555 1_555
H7 C7 1_555 1_555
H8 C9 1_555 1_555
H9 C11 1_555 1_555
H10 C11 1_555 1_555
H11 C11 1_555 1_555
H12 C12 1_555 1_555
H13 C13 1_555 1_555
H14 C14 1_555 1_555
H15 C16 1_555 1_555
H16 C18 1_555 1_555
H17 C18 1_555 1_555
H18 C18 1_555 1_555
H19 C19 1_555 1_555
H20 C20 1_555 1_555
H21 C21 1_555 1_555
H22 C23 1_555 1_555
H23 C25 1_555 1_555
H24 C25 1_555 1_555
H25 C25 1_555 1_555
H26 C26 1_555 1_555
H27 C27 1_555 1_555
H28 C28 1_555 1_555
H29 C30 1_555 1_555
H30 C32 1_555 1_555
H31 C32 1_555 1_555
H32 C32 1_555 1_555
H33 C33 1_555 1_555
H34 C34 1_555 1_555
H35 C35 1_555 1_555
H36 C37 1_555 1_555
H37 C39 1_555 1_555
H38 C39 1_555 1_555
H39 C39 1_555 1_555
H40 C40 1_555 1_555
H41 C41 1_555 1_555
H42 C42 1_555 1_555
H43 C43 1_555 1_555
H44 C44 1_555 1_555
H45 C45 1_555 1_555
H46 C46 1_555 1_555
H47 C47 1_555 1_555
H48 C48 1_555 1_555
H49 B1 1_555 1_555
N6B Cu1 1_555 1_555
Cu1B N6 1_555 1_555
C6 C7 1_555 1_555
C13 C14 1_555 1_555
C20 C21 1_555 1_555
C27 C28 1_555 1_555
C34 C35 1_555 1_555
C41 C42 1_555 1_555
N3 C44 1_555 1_555
N4 B1 1_555 1_555
N7 B1 1_555 1_555

#END
