
#######################################################################
#
#                 Cambridge Crystallographic Data Centre
#                                CCDC 
#
#######################################################################
#
# If this CIF has been generated from an entry in the Cambridge 
# Structural Database, then it will include bibliographic, chemical, 
# crystal, experimental, refinement or atomic coordinate data resulting 
# from the CCDC's data processing and validation procedures.
#
#######################################################################

data_EFUKIA
_symmetry_cell_setting           rhombohedral
_symmetry_space_group_name_H-M   'R 3 m'
_symmetry_Int_Tables_number      160
_space_group_name_Hall           'R 3 -2"'
loop_
_symmetry_equiv_pos_site_id
_symmetry_equiv_pos_as_xyz
1 x,y,z
2 -y,x-y,z
3 -x+y,-x,z
4 -y,-x,z
5 x,x-y,z
6 -x+y,y,z
7 2/3+x,1/3+y,1/3+z
8 2/3-y,1/3+x-y,1/3+z
9 2/3-x+y,1/3-x,1/3+z
10 2/3-y,1/3-x,1/3+z
11 2/3+x,1/3+x-y,1/3+z
12 2/3-x+y,1/3+y,1/3+z
13 1/3+x,2/3+y,2/3+z
14 1/3-y,2/3+x-y,2/3+z
15 1/3-x+y,2/3-x,2/3+z
16 1/3-y,2/3-x,2/3+z
17 1/3+x,2/3+x-y,2/3+z
18 1/3-x+y,2/3+y,2/3+z
_cell_length_a                   13.9947(4)
_cell_length_b                   13.9947(4)
_cell_length_c                   8.4249(3)
_cell_angle_alpha                90
_cell_angle_beta                 90
_cell_angle_gamma                120.00
_cell_volume                     1428.97
loop_
_atom_site_label
_atom_site_type_symbol
_atom_site_fract_x
_atom_site_fract_y
_atom_site_fract_z
Zn1 Zn 0.082094(10) 0.16419(2) 0.542210(18)
Zn2 Zn 0.0000 0.0000 0.12110(7)
S1 S 0.18436(4) 0.36873(8) -0.06133(12)
N1 N 0.07655(14) 0.1531(3) 0.0492(5)
C1 C 0.12143(15) 0.2429(3) 0.0049(4)
S2 S 0.0000 0.0000 0.40099(11)
N2 N 0.15726(9) 0.31451(19) 0.4456(3)
N3 N 0.18542(11) 0.46937(12) 0.33373(18)
C2 C 0.11270(14) 0.37625(15) 0.4009(2)
H1 H 0.0390 0.3554 0.4158
Zn1B Zn 0.082096(22) -0.082094(10) 0.542210(18)
Zn1A Zn -0.16419(2) -0.082096(22) 0.542210(18)
Zn1M Zn 0.16914(2) 0.584571(22) 0.208877(18)
Zn1N Zn 0.415429(22) 0.584573(10) 0.208877(18)
Zn1H Zn -0.251237(22) 0.251239(10) 0.875543(18)
Zn1G Zn 0.50248(2) 0.251237(22) 0.875543(18)
S1A S -0.36873(8) -0.18437(9) -0.06133(12)
S1B S 0.18437(9) -0.18436(4) -0.06133(12)
N1A N -0.1531(3) -0.07655(33) 0.0492(5)
N1B N 0.07655(33) -0.07655(14) 0.0492(5)
C1A C -0.2429(3) -0.12147(34) 0.0049(4)
C1B C 0.12147(34) -0.12143(15) 0.0049(4)
N2H N -0.17608(21) 0.17607(9) 0.7789(3)
N2I N 0.35216(19) 0.17607(9) 0.7789(3)
N2B N 0.15725(21) -0.15726(9) 0.4456(3)
N2A N -0.31451(19) -0.15725(21) 0.4456(3)
N3E N 0.28395(16) 0.46937(12) 0.33373(18)
N3H N -0.04938(16) 0.14791(11) 0.66706(18)
N3J N -0.14791(11) 0.04938(16) 0.66706(18)
N3I N 0.19730(12) 0.14791(11) 0.66706(18)
N3G N 0.19730(12) 0.04938(16) 0.66706(18)
N3K N -0.04938(16) -0.19730(12) 0.66706(18)
N3F N -0.14791(11) -0.19730(12) 0.66706(18)
C2E C 0.26355(21) 0.37625(15) 0.4009(2)
C2H C -0.06978(21) 0.22063(14) 0.7342(2)
C2J C -0.22063(14) 0.06978(21) 0.7342(2)
C2I C 0.29042(15) 0.22063(14) 0.7342(2)
C2G C 0.29042(15) 0.06978(21) 0.7342(2)
H1E H 0.3164 0.3554 0.4158
H1H H -0.0169 0.2943 0.7491
H1J H -0.2943 0.0169 0.7491
H1I H 0.3113 0.2943 0.7491
H1G H 0.3113 0.0169 0.7491
loop_
_geom_bond_atom_site_label_1
_geom_bond_atom_site_label_2
_geom_bond_site_symmetry_1
_geom_bond_site_symmetry_2
Zn1 S2 1_555 1_555
Zn2 N1 1_555 1_555
S1 C1 1_555 1_555
N1 C1 1_555 1_555
S2 Zn2 1_555 1_555
N2 Zn1 1_555 1_555
N3 C2 1_555 1_555
C2 N2 1_555 1_555
H1 C2 1_555 1_555
Zn1B S2 1_555 1_555
Zn1A S2 1_555 1_555
Zn1M N3 1_555 1_555
Zn1N N3E 1_555 1_555
Zn1H N2H 1_555 1_555
Zn1G N2I 1_555 1_555
S1A C1A 1_555 1_555
S1B C1B 1_555 1_555
N1A Zn2 1_555 1_555
N1B Zn2 1_555 1_555
C1A N1A 1_555 1_555
C1B N1B 1_555 1_555
N2H C2H 1_555 1_555
N2I C2I 1_555 1_555
N2B Zn1B 1_555 1_555
N2A Zn1A 1_555 1_555
N3E N3 1_555 1_555
N3H Zn1 1_555 1_555
N3J Zn1A 1_555 1_555
N3I Zn1 1_555 1_555
N3G Zn1B 1_555 1_555
N3K Zn1B 1_555 1_555
N3F Zn1A 1_555 1_555
C2E N2 1_555 1_555
C2H N3H 1_555 1_555
C2J N2H 1_555 1_555
C2I N3I 1_555 1_555
C2G N2I 1_555 1_555
H1E C2E 1_555 1_555
H1H C2H 1_555 1_555
H1J C2J 1_555 1_555
H1I C2I 1_555 1_555
H1G C2G 1_555 1_555
N3E C2E 1_555 1_555
N3H N3J 1_555 1_555
N3J C2J 1_555 1_555
N3I N3G 1_555 1_555
N3G C2G 1_555 1_555
N3K N3F 1_555 1_555

#END
