
#######################################################################
#
#                 Cambridge Crystallographic Data Centre
#                                CCDC 
#
#######################################################################
#
# If this CIF has been generated from an entry in the Cambridge 
# Structural Database, then it will include bibliographic, chemical, 
# crystal, experimental, refinement or atomic coordinate data resulting 
# from the CCDC's data processing and validation procedures.
#
#######################################################################

data_EFULUN
_symmetry_cell_setting           triclinic
_symmetry_space_group_name_H-M   'P -1'
_symmetry_Int_Tables_number      2
_space_group_name_Hall           '-P 1'
loop_
_symmetry_equiv_pos_site_id
_symmetry_equiv_pos_as_xyz
1 x,y,z
2 -x,-y,-z
_cell_length_a                   12.2286(2)
_cell_length_b                   12.4976(7)
_cell_length_c                   12.951
_cell_angle_alpha                103.759(15)
_cell_angle_beta                 98.726(12)
_cell_angle_gamma                118.767(9)
_cell_volume                     1600.75
loop_
_atom_site_label
_atom_site_type_symbol
_atom_site_fract_x
_atom_site_fract_y
_atom_site_fract_z
Cu1 Cu -0.11200(8) -0.28708(6) 0.48515(6)
N1 N 0.0714(5) -0.1632(4) 0.6140(4)
N2 N 0.2303(3) 0.0233(3) 0.7483(3)
N3 N 0.8359(3) 0.5612(3) 0.5314(3)
N4 N 0.8253(3) 0.4506(3) 0.6415(3)
N5 N -0.2950(3) -0.1077(3) 0.6222(3)
N6 N -0.2250(3) -0.2319(3) 0.5537(3)
O1 O -0.0943(4) -0.3591(3) 0.3383(3)
O2 O -0.0688(4) -0.1707(3) 0.3986(3)
O3 O -0.0379(4) -0.2304(4) 0.2367(3)
C1 C 0.1314(4) -0.0337(4) 0.6538(3)
H1 H 0.1065 0.0119 0.6191
C2 C 0.1411(4) -0.1866(4) 0.6916(4)
H2 H 0.1229 -0.2691 0.6873
C3 C 0.2382(4) -0.0732(4) 0.7735(4)
H3 H 0.2981 -0.0631 0.8346
C4 C 0.3150(4) 0.1639(4) 0.8132(4)
H4 H 0.3305 0.1775 0.8923
H5 H 0.2700 0.2063 0.7949
C5 C 0.4446(4) 0.2264(4) 0.7913(3)
C6 C 0.4592(4) 0.2732(4) 0.7052(3)
H6 H 0.3871 0.2648 0.6591
C7 C 0.5783(4) 0.3324(4) 0.6859(4)
H7 H 0.5858 0.3636 0.6273
C8 C 0.6872(4) 0.3459(4) 0.7531(3)
C9 C 0.6727(4) 0.2975(4) 0.8392(3)
H8 H 0.7443 0.3045 0.8846
C10 C 0.5533(4) 0.2391(4) 0.8581(3)
H9 H 0.5453 0.2076 0.9166
C11 C 0.8222(4) 0.4160(5) 0.7411(4)
H10 H 0.8791 0.4952 0.8065
H11 H 0.8573 0.3608 0.7393
C12 C 0.8401(4) 0.5607(4) 0.6332(3)
H12 H 0.8519 0.6287 0.6921
C13 C 0.8095(5) 0.3755(4) 0.5380(4)
H13 H 0.7967 0.2928 0.5179
C14 C 0.8160(5) 0.4440(4) 0.4707(4)
H14 H 0.8083 0.4162 0.3952
C15 C -0.2002(4) -0.1122(4) 0.5867(3)
H15 H -0.1258 -0.0399 0.5854
C16 C -0.3431(4) -0.3077(4) 0.5691(4)
H16 H -0.3859 -0.3973 0.5533
C17 C -0.3877(4) -0.2322(4) 0.6108(4)
H17 H -0.4657 -0.2593 0.6282
C18 C -0.3009(5) 0.0088(4) 0.6623(4)
H18 H -0.2159 0.0862 0.6762
H19 H -0.3207 0.0145 0.7325
C19 C -0.4039(4) 0.0048(4) 0.5786(3)
C20 C -0.5209(4) -0.0204(4) 0.5969(3)
H20 H -0.5363 -0.0342 0.6621
C21 C -0.3843(4) 0.0252(4) 0.4814(4)
H21 H -0.3059 0.0426 0.4679
C22 C -0.0661(4) -0.2529(4) 0.3205(3)
Cu1_2 Cu -1.11200(8) -1.28708(6) 0.48515(6)
Cu1_3 Cu 0.88800(8) 0.71292(6) 0.48515(6)
Cu1A Cu -0.88800(8) 0.28708(6) 0.51485(6)
N1_2 N -0.9286(5) -1.1632(4) 0.6140(4)
N2_2 N -0.7697(3) -0.9767(3) 0.7483(3)
N3_2 N -0.1641(3) -0.4388(3) 0.5314(3)
N3_3 N -1.1641(3) -1.4388(3) 0.5314(3)
N4_2 N -0.1747(3) -0.5494(3) 0.6415(3)
N5A N -0.7050(3) 0.1077(3) 0.3778(3)
N6A N -0.7750(3) 0.2319(3) 0.4463(3)
N6_2 N -1.2250(3) -1.2319(3) 0.5537(3)
O1_2 O -1.0943(4) -1.3591(3) 0.3383(3)
O2_2 O -1.0688(4) -1.1707(3) 0.3986(3)
O3_2 O -1.0379(4) -1.2304(4) 0.2367(3)
C1_2 C -0.8686(4) -1.0337(4) 0.6538(3)
H1_2 H -0.8935 -0.9881 0.6191
C2_2 C -0.8589(4) -1.1866(4) 0.6916(4)
H2_2 H -0.8771 -1.2691 0.6873
C3_2 C -0.7618(4) -1.0732(4) 0.7735(4)
H3_2 H -0.7019 -1.0631 0.8346
C4_2 C -0.6850(4) -0.8361(4) 0.8132(4)
H4_2 H -0.6695 -0.8225 0.8923
H5_2 H -0.7300 -0.7937 0.7949
C5_2 C -0.5554(4) -0.7736(4) 0.7913(3)
C6_2 C -0.5408(4) -0.7268(4) 0.7052(3)
H6_2 H -0.6129 -0.7352 0.6591
C7_2 C -0.4217(4) -0.6676(4) 0.6859(4)
H7_2 H -0.4142 -0.6364 0.6273
C8_2 C -0.3128(4) -0.6541(4) 0.7531(3)
C9_2 C -0.3273(4) -0.7025(4) 0.8392(3)
H8_2 H -0.2557 -0.6955 0.8846
C10_2 C -0.4467(4) -0.7609(4) 0.8581(3)
H9_2 H -0.4547 -0.7924 0.9166
C11_2 C -0.1778(4) -0.5840(5) 0.7411(4)
H10_2 H -0.1209 -0.5048 0.8065
H11_2 H -0.1427 -0.6392 0.7393
C12_2 C -0.1599(4) -0.4393(4) 0.6332(3)
H12_2 H -0.1481 -0.3713 0.6921
C13_2 C -0.1905(5) -0.6245(4) 0.5380(4)
H13_2 H -0.2033 -0.7072 0.5179
C14_2 C -0.1840(5) -0.5560(4) 0.4707(4)
H14_2 H -0.1917 -0.5838 0.3952
C15A C -0.7998(4) 0.1122(4) 0.4133(3)
H15A H -0.8742 0.0399 0.4146
C16A C -0.6569(4) 0.3077(4) 0.4309(4)
H16A H -0.6141 0.3973 0.4467
C17A C -0.6123(4) 0.2322(4) 0.3892(4)
H17A H -0.5343 0.2593 0.3718
C18A C -0.6991(5) -0.0088(4) 0.3377(4)
H18A H -0.7841 -0.0862 0.3238
H19A H -0.6793 -0.0145 0.2675
C19A C -0.5961(4) -0.0048(4) 0.4214(3)
C20A C -0.4791(4) 0.0204(4) 0.4031(3)
H20A H -0.4637 0.0342 0.3379
C21A C -0.6157(4) -0.0252(4) 0.5186(4)
H21A H -0.6941 -0.0426 0.5321
C22_2 C -1.0661(4) -1.2529(4) 0.3205(3)
N7 N -0.3282(5) -0.0384(5) 0.9232(4)
N8 N -0.4264(4) -0.2533(4) 0.8619(3)
C23 C -0.3116(5) -0.1361(5) 0.9027(4)
H22 H -0.2297 -0.1260 0.9148
C24 C -0.4582(7) -0.0946(6) 0.8938(5)
H23 H -0.5000 -0.0489 0.8984
C25 C -0.5204(5) -0.2246(6) 0.8569(4)
H24 H -0.6108 -0.2841 0.8325
C26 C -0.4431(7) -0.3818(6) 0.8307(5)
H25 H -0.3635 -0.3732 0.8181
H26 H -0.5142 -0.4394 0.7609
C27 C -0.4728(5) -0.4436(4) 0.9190(4)
C28 C -0.5981(5) -0.5073(5) 0.9264(4)
H27 H -0.6656 -0.5127 0.8766
C29 C -0.3750(5) -0.4369(5) 0.9931(5)
H28 H -0.2899 -0.3943 0.9893
N7A N -0.6718(5) -0.9616(5) 1.0768(4)
N8A N -0.5736(4) -0.7467(4) 1.1381(3)
C23A C -0.6884(5) -0.8639(5) 1.0973(4)
H22A H -0.7703 -0.8740 1.0852
C24A C -0.5418(7) -0.9054(6) 1.1062(5)
H23A H -0.5000 -0.9511 1.1016
C25A C -0.4796(5) -0.7754(6) 1.1431(4)
H24A H -0.3892 -0.7159 1.1675
C26A C -0.5569(7) -0.6182(6) 1.1693(5)
H25A H -0.6365 -0.6268 1.1819
H26A H -0.4858 -0.5606 1.2391
C27A C -0.5272(5) -0.5564(4) 1.0810(4)
C28A C -0.4019(5) -0.4927(5) 1.0736(4)
H27A H -0.3344 -0.4873 1.1234
C29A C -0.6250(5) -0.5631(5) 1.0069(5)
H28A H -0.7101 -0.6057 1.0107
O4 O -1.1623(9) -0.5795(8) 1.1702(8)
H29 H -1.129(13) -0.616(11) 1.196(10)
H30 H -1.131(12) -0.506(7) 1.223(8)
O5 O -0.9612(6) -0.6079(5) 0.9426(4)
H31 H -0.974(7) -0.667(5) 0.886(5)
H32 H -0.903(6) -0.536(4) 0.947(6)
O6 O -0.0683(4) -0.1886(4) 0.8758(4)
H33 H -0.006(5) -0.200(6) 0.888(6)
H34 H -0.040(6) -0.120(5) 0.861(6)
O7 O -0.0247(6) -0.0662(5) 0.1206(4)
H35 H -0.011(7) -0.097(7) 0.168(4)
H36 H -0.032(7) -0.111(6) 0.058(3)
O8 O -1.1286(5) -0.7671(4) 1.0416(4)
H37 H -1.071(5) -0.714(5) 1.021(5)
H38 H -1.205(4) -0.838(4) 1.014(6)
loop_
_geom_bond_atom_site_label_1
_geom_bond_atom_site_label_2
_geom_bond_site_symmetry_1
_geom_bond_site_symmetry_2
Cu1 N1 1_555 1_555
N1 C1 1_555 1_555
N2 C1 1_555 1_555
N3 C12 1_555 1_555
N4 C11 1_555 1_555
N5 C15 1_555 1_555
N6 Cu1 1_555 1_555
O1 Cu1 1_555 1_555
O2 Cu1 1_555 1_555
O3 C22 1_555 1_555
C1 H1 1_555 1_555
C2 N1 1_555 1_555
H2 C2 1_555 1_555
C3 N2 1_555 1_555
H3 C3 1_555 1_555
C4 N2 1_555 1_555
H4 C4 1_555 1_555
H5 C4 1_555 1_555
C5 C4 1_555 1_555
C6 C5 1_555 1_555
H6 C6 1_555 1_555
C7 C6 1_555 1_555
H7 C7 1_555 1_555
C8 C7 1_555 1_555
C9 C8 1_555 1_555
H8 C9 1_555 1_555
C10 C5 1_555 1_555
H9 C10 1_555 1_555
C11 C8 1_555 1_555
H10 C11 1_555 1_555
H11 C11 1_555 1_555
C12 N4 1_555 1_555
H12 C12 1_555 1_555
C13 N4 1_555 1_555
H13 C13 1_555 1_555
C14 N3 1_555 1_555
H14 C14 1_555 1_555
C15 N6 1_555 1_555
H15 C15 1_555 1_555
C16 N6 1_555 1_555
H16 C16 1_555 1_555
C17 N5 1_555 1_555
H17 C17 1_555 1_555
C18 N5 1_555 1_555
H18 C18 1_555 1_555
H19 C18 1_555 1_555
C19 C18 1_555 1_555
C20 C19 1_555 1_555
H20 C20 1_555 1_555
C21 C19 1_555 1_555
H21 C21 1_555 1_555
C22 O1 1_555 1_555
N7 C23 1_555 1_555
N8 C23 1_555 1_555
C23 H22 1_555 1_555
C24 N7 1_555 1_555
H23 C24 1_555 1_555
C25 N8 1_555 1_555
H24 C25 1_555 1_555
C26 N8 1_555 1_555
H25 C26 1_555 1_555
H26 C26 1_555 1_555
C27 C26 1_555 1_555
C28 C27 1_555 1_555
H27 C28 1_555 1_555
C29 C27 1_555 1_555
H28 C29 1_555 1_555
O4 H29 1_555 1_555
H30 O4 1_555 1_555
O5 H31 1_555 1_555
H32 O5 1_555 1_555
O6 H33 1_555 1_555
H34 O6 1_555 1_555
O7 H35 1_555 1_555
H36 O7 1_555 1_555
O8 H37 1_555 1_555
H38 O8 1_555 1_555
Cu1_2 N1_2 1_555 1_555
Cu1_3 N3 1_555 1_555
Cu1A N6A 1_555 1_555
N1_2 C1_2 1_555 1_555
N2_2 C1_2 1_555 1_555
N3_2 Cu1 1_555 1_555
N3_3 Cu1_2 1_555 1_555
N4_2 C11_2 1_555 1_555
N5A C15A 1_555 1_555
N6A C15A 1_555 1_555
N6_2 Cu1_2 1_555 1_555
O1_2 Cu1_2 1_555 1_555
O2_2 Cu1_2 1_555 1_555
O3_2 C22_2 1_555 1_555
C1_2 H1_2 1_555 1_555
C2_2 N1_2 1_555 1_555
H2_2 C2_2 1_555 1_555
C3_2 N2_2 1_555 1_555
H3_2 C3_2 1_555 1_555
C4_2 N2_2 1_555 1_555
H4_2 C4_2 1_555 1_555
H5_2 C4_2 1_555 1_555
C5_2 C4_2 1_555 1_555
C6_2 C5_2 1_555 1_555
H6_2 C6_2 1_555 1_555
C7_2 C6_2 1_555 1_555
H7_2 C7_2 1_555 1_555
C8_2 C7_2 1_555 1_555
C9_2 C8_2 1_555 1_555
H8_2 C9_2 1_555 1_555
C10_2 C5_2 1_555 1_555
H9_2 C10_2 1_555 1_555
C11_2 C8_2 1_555 1_555
H10_2 C11_2 1_555 1_555
H11_2 C11_2 1_555 1_555
C12_2 N3_2 1_555 1_555
H12_2 C12_2 1_555 1_555
C13_2 N4_2 1_555 1_555
H13_2 C13_2 1_555 1_555
C14_2 N3_2 1_555 1_555
H14_2 C14_2 1_555 1_555
C15A H15A 1_555 1_555
C16A N6A 1_555 1_555
H16A C16A 1_555 1_555
C17A N5A 1_555 1_555
H17A C17A 1_555 1_555
C18A N5A 1_555 1_555
H18A C18A 1_555 1_555
H19A C18A 1_555 1_555
C19A C18A 1_555 1_555
C20A C21 1_555 1_555
H20A C20A 1_555 1_555
C21A C20 1_555 1_555
H21A C21A 1_555 1_555
C22_2 O1_2 1_555 1_555
N7A C23A 1_555 1_555
N8A C23A 1_555 1_555
C23A H22A 1_555 1_555
C24A N7A 1_555 1_555
H23A C24A 1_555 1_555
C25A N8A 1_555 1_555
H24A C25A 1_555 1_555
C26A N8A 1_555 1_555
H25A C26A 1_555 1_555
H26A C26A 1_555 1_555
C27A C26A 1_555 1_555
C28A C29 1_555 1_555
H27A C28A 1_555 1_555
C29A C28 1_555 1_555
H28A C29A 1_555 1_555
O2 C22 1_555 1_555
C2 C3 1_555 1_555
C9 C10 1_555 1_555
C13 C14 1_555 1_555
C16 C17 1_555 1_555
C24 C25 1_555 1_555
N4_2 C12_2 1_555 1_555
O2_2 C22_2 1_555 1_555
C2_2 C3_2 1_555 1_555
C9_2 C10_2 1_555 1_555
C13_2 C14_2 1_555 1_555
C16A C17A 1_555 1_555
C19A C20A 1_555 1_555
C19A C21A 1_555 1_555
C24A C25A 1_555 1_555
C27A C28A 1_555 1_555
C27A C29A 1_555 1_555

#END
