
#######################################################################
#
#                 Cambridge Crystallographic Data Centre
#                                CCDC 
#
#######################################################################
#
# If this CIF has been generated from an entry in the Cambridge 
# Structural Database, then it will include bibliographic, chemical, 
# crystal, experimental, refinement or atomic coordinate data resulting 
# from the CCDC's data processing and validation procedures.
#
#######################################################################

data_EFULIB
_symmetry_cell_setting           monoclinic
_symmetry_space_group_name_H-M   'P 21/c'
_symmetry_Int_Tables_number      14
_space_group_name_Hall           '-P 2ybc'
loop_
_symmetry_equiv_pos_site_id
_symmetry_equiv_pos_as_xyz
1 x,y,z
2 -x,1/2+y,1/2-z
3 -x,-y,-z
4 x,1/2-y,1/2+z
_cell_length_a                   10.572(3)
_cell_length_b                   17.755(5)
_cell_length_c                   7.390(2)
_cell_angle_alpha                90
_cell_angle_beta                 105.374(5)
_cell_angle_gamma                90
_cell_volume                     1337.51
loop_
_atom_site_label
_atom_site_type_symbol
_atom_site_fract_x
_atom_site_fract_y
_atom_site_fract_z
Cd1 Cd 0.75601(5) -0.03455(3) -0.08662(7)
O1 O 0.7942(6) 0.0683(3) 0.0828(7)
O2 O 0.8063(6) 0.0185(3) 0.3603(7)
O3 O 1.2094(5) 0.3347(3) 0.6460(8)
O4 O 1.0683(5) 0.3974(3) 0.4379(7)
O5 O 0.6601(6) 0.2721(3) 0.1028(10)
O6 O 0.6206(5) 0.1656(3) 0.2073(9)
O7 O 0.8739(5) 0.0186(3) -0.2664(8)
H1 H 0.9396 0.0442 -0.2057
H2 H 0.8531 0.0229 -0.3854
O8 O 0.6421(5) -0.0742(3) 0.1225(8)
H3 H 0.6448 -0.1218 0.1349
H4 H 0.6773 -0.0480 0.2184
N1 N 0.6941(6) 0.2162(3) 0.1969(9)
N2 N 0.5704(6) -0.0161(3) -0.3095(8)
H5 H 0.5025 -0.0219 -0.2565
C1 C 0.8212(7) 0.0699(4) 0.2545(10)
C2 C 0.8838(7) 0.1406(4) 0.3424(9)
C3 C 0.8306(7) 0.2108(4) 0.3020(10)
C4 C 0.8975(7) 0.2750(4) 0.3593(10)
H6 H 0.8583 0.3217 0.3269
C5 C 1.0250(7) 0.2697(4) 0.4666(9)
C6 C 1.0786(7) 0.2008(4) 0.5156(10)
H7 H 1.1639 0.1971 0.5917
C7 C 1.0090(7) 0.1370(4) 0.4546(10)
H8 H 1.0473 0.0902 0.4900
C8 C 1.1057(7) 0.3380(4) 0.5209(10)
C9 C 0.5560(7) -0.0722(4) -0.4567(10)
H9 H 0.5515 -0.1218 -0.4037
H10 H 0.6327 -0.0709 -0.5052
C10 C 0.5633(7) 0.0598(4) -0.3862(11)
H11 H 0.6405 0.0690 -0.4306
H12 H 0.5640 0.0958 -0.2872
Cd1A Cd 1.24399(5) -0.53455(3) 0.58662(7)
Cd1A_2 Cd 1.24399(5) 0.46545(3) 0.58662(7)
Cd1B Cd 0.24399(5) 0.03455(3) -0.91338(7)
O1A O 1.2058(6) -0.4317(3) 0.4172(7)
O2A O 1.1937(6) -0.4815(3) 0.1397(7)
O3A O 0.7906(5) -0.1653(3) -0.1460(8)
O3_2 O 1.2094(5) -0.6653(3) 0.6460(8)
O4A O 0.9317(5) -0.1026(3) 0.0621(7)
O4_2 O 1.0683(5) -0.6026(3) 0.4379(7)
O5A O 1.3399(6) -0.2279(3) 0.3972(10)
O6A O 1.3794(5) -0.3344(3) 0.2927(9)
O7A O 1.1261(5) -0.4814(3) 0.7664(8)
H1A H 1.0604 -0.4558 0.7057
H2A H 1.1469 -0.4771 0.8854
O8A O 1.3579(5) -0.5742(3) 0.3775(8)
H3A H 1.3552 -0.6218 0.3651
H4A H 1.3227 -0.5480 0.2816
N1A N 1.3059(6) -0.2838(3) 0.3031(9)
N2B N 0.4296(6) 0.0161(3) -0.6905(8)
N2A N 1.4296(6) -0.5161(3) 0.8095(8)
H5B H 0.4975 0.0219 -0.7435
H5A H 1.4975 -0.5219 0.7565
C1A C 1.1788(7) -0.4301(4) 0.2455(10)
C2A C 1.1162(7) -0.3594(4) 0.1576(9)
C3A C 1.1694(7) -0.2892(4) 0.1980(10)
C4A C 1.1025(7) -0.2250(4) 0.1407(10)
H6A H 1.1417 -0.1783 0.1731
C5A C 0.9750(7) -0.2303(4) 0.0334(9)
C6A C 0.9214(7) -0.2992(4) -0.0156(10)
H7A H 0.8361 -0.3029 -0.0917
C7A C 0.9910(7) -0.3630(4) 0.0454(10)
H8A H 0.9527 -0.4098 0.0100
C8A C 0.8943(7) -0.1620(4) -0.0209(10)
C9B C 0.4440(7) 0.0722(4) -0.5433(10)
H9B H 0.4485 0.1218 -0.5963
H10B H 0.3673 0.0709 -0.4948
C10B C 0.4367(7) -0.0598(4) -0.6138(11)
H11B H 0.3595 -0.0690 -0.5694
H12B H 0.4360 -0.0958 -0.7128
O9 O 0.6116(8) -0.2219(4) 0.1801(13)
H13 H 0.6709 -0.2511 0.1617
H14 H 0.5333 -0.2383 0.1494
loop_
_geom_bond_atom_site_label_1
_geom_bond_atom_site_label_2
_geom_bond_site_symmetry_1
_geom_bond_site_symmetry_2
Cd1 O1 1_555 1_555
O1 C1 1_555 1_555
O2 C1 1_555 1_555
O3 C8 1_555 1_555
O4 C8 1_555 1_555
O5 N1 1_555 1_555
O6 N1 1_555 1_555
O7 Cd1 1_555 1_555
H1 O7 1_555 1_555
H2 O7 1_555 1_555
O8 Cd1 1_555 1_555
H3 O8 1_555 1_555
H4 O8 1_555 1_555
N1 C3 1_555 1_555
N2 Cd1 1_555 1_555
H5 N2 1_555 1_555
C1 C2 1_555 1_555
C2 C3 1_555 1_555
C3 C4 1_555 1_555
C4 H6 1_555 1_555
C5 C4 1_555 1_555
C6 C5 1_555 1_555
H7 C6 1_555 1_555
C7 C2 1_555 1_555
H8 C7 1_555 1_555
C8 C5 1_555 1_555
C9 N2 1_555 1_555
H9 C9 1_555 1_555
H10 C9 1_555 1_555
C10 N2 1_555 1_555
H11 C10 1_555 1_555
H12 C10 1_555 1_555
O9 H13 1_555 1_555
H14 O9 1_555 1_555
Cd1A O1A 1_555 1_555
Cd1A_2 O3 1_555 1_555
Cd1B N2B 1_555 1_555
O1A C1A 1_555 1_555
O2A C1A 1_555 1_555
O3A Cd1 1_555 1_555
O3_2 Cd1A 1_555 1_555
O4A Cd1 1_555 1_555
O4_2 Cd1A 1_555 1_555
O5A N1A 1_555 1_555
O6A N1A 1_555 1_555
O7A Cd1A 1_555 1_555
H1A O7A 1_555 1_555
H2A O7A 1_555 1_555
O8A Cd1A 1_555 1_555
H3A O8A 1_555 1_555
H4A O8A 1_555 1_555
N1A C3A 1_555 1_555
N2B H5B 1_555 1_555
N2A Cd1A 1_555 1_555
H5A N2A 1_555 1_555
C1A C2A 1_555 1_555
C2A C3A 1_555 1_555
C3A C4A 1_555 1_555
C4A H6A 1_555 1_555
C5A C4A 1_555 1_555
C6A C5A 1_555 1_555
H7A C6A 1_555 1_555
C7A C2A 1_555 1_555
H8A C7A 1_555 1_555
C8A O3A 1_555 1_555
C9B C10 1_555 1_555
H9B C9B 1_555 1_555
H10B C9B 1_555 1_555
C10B C9 1_555 1_555
H11B C10B 1_555 1_555
H12B C10B 1_555 1_555
O4 Cd1A_2 1_555 1_555
C6 C7 1_555 1_555
O4A C8A 1_555 1_555
N2B C9B 1_555 1_555
N2B C10B 1_555 1_555
C5A C8A 1_555 1_555
C6A C7A 1_555 1_555

#END
