
#######################################################################
#
#                 Cambridge Crystallographic Data Centre
#                                CCDC 
#
#######################################################################
#
# If this CIF has been generated from an entry in the Cambridge 
# Structural Database, then it will include bibliographic, chemical, 
# crystal, experimental, refinement or atomic coordinate data resulting 
# from the CCDC's data processing and validation procedures.
#
#######################################################################

data_EFUMUN
_symmetry_cell_setting           triclinic
_symmetry_space_group_name_H-M   'P -1'
_symmetry_Int_Tables_number      2
_space_group_name_Hall           '-P 1'
loop_
_symmetry_equiv_pos_site_id
_symmetry_equiv_pos_as_xyz
1 x,y,z
2 -x,-y,-z
_cell_length_a                   8.0801(4)
_cell_length_b                   8.6606(5)
_cell_length_c                   11.8803(6)
_cell_angle_alpha                82.1680(10)
_cell_angle_beta                 77.8470(10)
_cell_angle_gamma                75.8550(10)
_cell_volume                     784.931
loop_
_atom_site_label
_atom_site_type_symbol
_atom_site_fract_x
_atom_site_fract_y
_atom_site_fract_z
Mo1 Mo 0.32702(4) 0.26488(3) 0.86423(2)
Cu1 Cu 0.23650(6) -0.09197(5) 1.29807(3)
P1 P 0.08214(12) -0.31768(11) 1.17130(7)
P2 P 0.31367(12) -0.09751(10) 1.03304(7)
O1 O 0.2520(3) -0.0004(3) 1.1395(2)
O2 O 0.4728(3) 0.2157(3) 0.7396(2)
O3 O 0.3217(3) 0.0149(3) 0.9234(2)
O4 O 0.4876(3) -0.2186(3) 1.0380(2)
O5 O 0.2953(3) 0.4665(3) 0.8561(2)
O6 O -0.1210(3) -0.2518(3) 1.1940(2)
O7 O 0.1548(3) 0.2893(3) 1.0339(2)
O8 O 0.1488(3) -0.2665(3) 1.2684(2)
O9 O 0.1287(3) -0.4941(3) 1.1644(2)
N1 N 0.3041(4) 0.0916(3) 1.3494(2)
N2 N 0.1914(4) -0.1500(4) 1.4684(2)
C1 C 0.3652(5) 0.2075(4) 1.2810(3)
H1 H 0.3823 0.2050 1.2013
C2 C 0.4045(5) 0.3330(4) 1.3250(3)
H2 H 0.4470 0.4130 1.2756
C3 C 0.3792(5) 0.3360(4) 1.4426(3)
H3 H 0.4033 0.4193 1.4736
C4 C 0.3173(5) 0.2137(4) 1.5159(3)
H4 H 0.3001 0.2137 1.5958
C5 C 0.2821(5) 0.0923(4) 1.4658(3)
C6 C 0.2196(5) -0.0463(4) 1.5332(3)
C7 C 0.1935(5) -0.0721(5) 1.6532(3)
H5 H 0.2125 0.0006 1.6973
C8 C 0.1383(5) -0.2094(5) 1.7055(3)
H6 H 0.1199 -0.2296 1.7855
C9 C 0.1109(5) -0.3157(5) 1.6382(3)
H7 H 0.0762 -0.4088 1.6721
C10 C 0.1361(5) -0.2808(4) 1.5193(3)
H8 H 0.1142 -0.3499 1.4737
C11 C 0.1600(5) -0.2152(4) 1.0328(3)
H9 H 0.0605 -0.1461 1.0047
H10 H 0.2125 -0.2949 0.9782
H11 H 0.172(7) 0.196(6) 1.085(4)
H12 H 0.161(6) 0.357(6) 1.073(4)
O4A O 0.5124(3) 0.2186(3) 0.9620(2)
O6A O 0.1210(3) 0.2518(3) 0.8060(2)
O2A O 0.5272(3) -0.2157(3) 1.2604(2)
Cu1A Cu 0.76350(6) 0.09197(5) 0.70193(3)
Mo1A Mo 0.67298(4) -0.26488(3) 1.13577(2)
Mo1A_2 Mo -0.32702(4) -0.26488(3) 1.13577(2)
loop_
_geom_bond_atom_site_label_1
_geom_bond_atom_site_label_2
_geom_bond_site_symmetry_1
_geom_bond_site_symmetry_2
Mo1 O2 1_555 1_555
Cu1 O1 1_555 1_555
P1 O6 1_555 1_555
P2 O1 1_555 1_555
O2 Cu1A 1_555 1_555
O3 Mo1 1_555 1_555
O4 P2 1_555 1_555
O5 Mo1 1_555 1_555
O6 Mo1A_2 1_555 1_555
O7 Mo1 1_555 1_555
O8 Cu1 1_555 1_555
O9 P1 1_555 1_555
N1 Cu1 1_555 1_555
N2 Cu1 1_555 1_555
C1 N1 1_555 1_555
H1 C1 1_555 1_555
C2 C1 1_555 1_555
H2 C2 1_555 1_555
C3 C2 1_555 1_555
H3 C3 1_555 1_555
C4 C3 1_555 1_555
H4 C4 1_555 1_555
C5 N1 1_555 1_555
C6 N2 1_555 1_555
C7 C6 1_555 1_555
H5 C7 1_555 1_555
C8 C7 1_555 1_555
H6 C8 1_555 1_555
C9 C8 1_555 1_555
H7 C9 1_555 1_555
C10 N2 1_555 1_555
H8 C10 1_555 1_555
C11 P1 1_555 1_555
H9 C11 1_555 1_555
H10 C11 1_555 1_555
H11 O7 1_555 1_555
H12 O7 1_555 1_555
O4A Mo1 1_555 1_555
O6A Mo1 1_555 1_555
O2A Cu1 1_555 1_555
Mo1A O4 1_555 1_555
P1 O8 1_555 1_555
P2 C11 1_555 1_555
P2 O3 1_555 1_555
C4 C5 1_555 1_555
C5 C6 1_555 1_555
C9 C10 1_555 1_555
O2A Mo1A 1_555 1_555

#END
