
#######################################################################
#
#                 Cambridge Crystallographic Data Centre
#                                CCDC 
#
#######################################################################
#
# If this CIF has been generated from an entry in the Cambridge 
# Structural Database, then it will include bibliographic, chemical, 
# crystal, experimental, refinement or atomic coordinate data resulting 
# from the CCDC's data processing and validation procedures.
#
#######################################################################

data_EFUNEY
_symmetry_cell_setting           triclinic
_symmetry_space_group_name_H-M   'P -1'
_symmetry_Int_Tables_number      2
_space_group_name_Hall           '-P 1'
loop_
_symmetry_equiv_pos_site_id
_symmetry_equiv_pos_as_xyz
1 x,y,z
2 -x,-y,-z
_cell_length_a                   8.0759(3)
_cell_length_b                   10.2293(4)
_cell_length_c                   12.4370(5)
_cell_angle_alpha                70.7580(10)
_cell_angle_beta                 71.5760(10)
_cell_angle_gamma                71.5080(10)
_cell_volume                     893.911
loop_
_atom_site_label
_atom_site_type_symbol
_atom_site_fract_x
_atom_site_fract_y
_atom_site_fract_z
Mo1 Mo 0.65349(4) 0.46433(3) 0.88517(2)
Mo2 Mo 0.52556(3) 0.20498(3) 1.18741(2)
Cu1 Cu 0.58714(5) 0.13721(4) 0.78623(3)
P1 P 0.72953(10) -0.01473(8) 1.01248(7)
O1 O 0.7462(3) 0.0116(2) 0.8831(2)
O2 O 0.6371(3) 0.1275(2) 1.0496(2)
O3 O 0.6344(3) -0.1329(2) 1.0889(2)
O4 O 0.8832(3) 0.4149(3) 0.8649(2)
O5 O 0.5920(3) 0.3954(2) 1.05374(19)
O6 O 0.5982(3) 0.3543(3) 0.8322(2)
O7 O 0.6364(3) 0.6370(2) 0.7580(2)
O8 O 0.4194(3) 0.0701(2) 1.2707(2)
O9 O 0.7037(3) 0.1685(3) 1.2460(2)
O10 O 0.3000(3) 0.3034(3) 1.0686(2)
N1 N 0.4517(4) 0.2633(3) 0.6662(2)
N2 N 0.7938(4) 0.1530(3) 0.6449(2)
C1 C 0.2739(5) 0.3228(4) 0.6884(3)
H1 H 0.2070 0.3091 0.7656
C2 C 0.1882(5) 0.4041(4) 0.5984(3)
H2 H 0.0655 0.4453 0.6152
C3 C 0.2885(5) 0.4231(4) 0.4832(3)
H3 H 0.2333 0.4757 0.4217
C4 C 0.4721(5) 0.3627(4) 0.4607(3)
H4 H 0.5414 0.3741 0.3842
C5 C 0.5504(4) 0.2850(3) 0.5545(3)
C6 C 0.7457(4) 0.2246(3) 0.5428(3)
C7 C 0.8724(5) 0.2414(4) 0.4364(3)
H5 H 0.8370 0.2890 0.3665
C8 C 1.0534(5) 0.1855(4) 0.4369(3)
H6 H 1.1412 0.1982 0.3673
C9 C 1.1016(5) 0.1107(4) 0.5418(3)
H7 H 1.2218 0.0711 0.5436
C10 C 0.9675(4) 0.0957(4) 0.6445(3)
H8 H 0.9995 0.0443 0.7150
C11 C 0.9526(4) -0.0618(3) 1.0339(3)
H9 H 0.9471 -0.0833 1.1168
H10 H 1.0215 -0.1464 1.0068
C11A C 1.0474(4) 0.0618(3) 0.9661(3)
P1A P 1.27047(10) 0.01473(8) 0.98752(7)
O1A O 1.2538(3) -0.0116(2) 1.1169(2)
O2A O 1.3629(3) -0.1275(2) 0.9504(2)
O3A O 1.3656(3) 0.1329(2) 0.9111(2)
H9A H 1.0529 0.0833 0.8832
H10A H 0.9785 0.1464 0.9932
O5A O 0.4080(3) 0.6046(2) 0.94626(19)
Mo1A Mo 0.34651(4) 0.53567(3) 1.11483(2)
Mo2A Mo 0.47444(3) 0.79502(3) 0.81259(2)
O7A O 0.3636(3) 0.3630(2) 1.2420(2)
O8A O 0.5806(3) -0.0701(2) 0.7293(2)
O4A O 0.1168(3) 0.5851(3) 1.1351(2)
O6A O 0.4018(3) 0.6457(3) 1.1678(2)
O9A O 0.2963(3) 0.8315(3) 0.7540(2)
O10A O 0.7000(3) 0.6966(3) 0.9314(2)
Cu1A Cu 1.41286(5) -0.13721(4) 1.21377(3)
N1A N 1.5483(4) -0.2633(3) 1.3338(2)
N2A N 1.2062(4) -0.1530(3) 1.3551(2)
C1A C 1.7261(5) -0.3228(4) 1.3116(3)
H1A H 1.7930 -0.3091 1.2344
C2A C 1.8118(5) -0.4041(4) 1.4016(3)
H2A H 1.9345 -0.4453 1.3848
C3A C 1.7115(5) -0.4231(4) 1.5168(3)
H3A H 1.7667 -0.4757 1.5783
C4A C 1.5279(5) -0.3627(4) 1.5393(3)
H4A H 1.4586 -0.3741 1.6158
C5A C 1.4496(4) -0.2850(3) 1.4455(3)
C6A C 1.2543(4) -0.2246(3) 1.4572(3)
C7A C 1.1276(5) -0.2414(4) 1.5636(3)
H5A H 1.1630 -0.2890 1.6335
C8A C 0.9466(5) -0.1855(4) 1.5631(3)
H6A H 0.8588 -0.1982 1.6327
C9A C 0.8984(5) -0.1107(4) 1.4582(3)
H7A H 0.7782 -0.0711 1.4564
C10A C 1.0325(4) -0.0957(4) 1.3555(3)
H8A H 1.0005 -0.0443 1.2850
O3A_2 O 0.3656(3) 0.1329(2) 0.9111(2)
Cu1A_2 Cu 0.41286(5) -0.13721(4) 1.21377(3)
Mo2A_2 Mo 1.47444(3) -0.20498(3) 0.81259(2)
Cu1_2 Cu 1.58714(5) 0.13721(4) 0.78623(3)
O2A_2 O 0.3629(3) 0.8725(2) 0.9504(2)
O8A_2 O 0.5806(3) 0.9299(2) 0.7293(2)
Mo2A_3 Mo 0.47444(3) -0.20498(3) 0.81259(2)
Cu1A_3 Cu 0.41286(5) 0.86279(4) 1.21377(3)
O3_2 O 1.6344(3) -0.1329(2) 1.0889(2)
O6A_2 O 1.4018(3) -0.3543(3) 1.1678(2)
O8_2 O 1.4194(3) 0.0701(2) 1.2707(2)
O11 O 0.0710(4) 0.6167(3) 0.8568(3)
loop_
_geom_bond_atom_site_label_1
_geom_bond_atom_site_label_2
_geom_bond_site_symmetry_1
_geom_bond_site_symmetry_2
Mo1 O4 1_555 1_555
Mo2 O2 1_555 1_555
Cu1 O1 1_555 1_555
P1 O1 1_555 1_555
O2 P1 1_555 1_555
O3 P1 1_555 1_555
O5 Mo1 1_555 1_555
O6 Mo1 1_555 1_555
O7 Mo1 1_555 1_555
O8 Mo2 1_555 1_555
O9 Mo2 1_555 1_555
O10 Mo2 1_555 1_555
N1 Cu1 1_555 1_555
N2 Cu1 1_555 1_555
C1 N1 1_555 1_555
H1 C1 1_555 1_555
C2 C1 1_555 1_555
H2 C2 1_555 1_555
C3 C2 1_555 1_555
H3 C3 1_555 1_555
C4 C3 1_555 1_555
H4 C4 1_555 1_555
C5 N1 1_555 1_555
C6 N2 1_555 1_555
C7 C6 1_555 1_555
H5 C7 1_555 1_555
C8 C7 1_555 1_555
H6 C8 1_555 1_555
C9 C8 1_555 1_555
H7 C9 1_555 1_555
C10 N2 1_555 1_555
H8 C10 1_555 1_555
C11 P1 1_555 1_555
H9 C11 1_555 1_555
H10 C11 1_555 1_555
C11A C11 1_555 1_555
P1A C11A 1_555 1_555
O1A P1A 1_555 1_555
O2A P1A 1_555 1_555
O3A P1A 1_555 1_555
H9A C11A 1_555 1_555
H10A C11A 1_555 1_555
O5A Mo1 1_555 1_555
Mo1A O5 1_555 1_555
Mo2A O7 1_555 1_555
O7A Mo2 1_555 1_555
O8A Cu1 1_555 1_555
O4A Mo1A 1_555 1_555
O6A Mo1A 1_555 1_555
O9A Mo2A 1_555 1_555
O10A Mo2A 1_555 1_555
Cu1A O1A 1_555 1_555
N1A Cu1A 1_555 1_555
N2A Cu1A 1_555 1_555
C1A N1A 1_555 1_555
H1A C1A 1_555 1_555
C2A C1A 1_555 1_555
H2A C2A 1_555 1_555
C3A C2A 1_555 1_555
H3A C3A 1_555 1_555
C4A C3A 1_555 1_555
H4A C4A 1_555 1_555
C5A N1A 1_555 1_555
C6A N2A 1_555 1_555
C7A C6A 1_555 1_555
H5A C7A 1_555 1_555
C8A C7A 1_555 1_555
H6A C8A 1_555 1_555
C9A C8A 1_555 1_555
H7A C9A 1_555 1_555
C10A N2A 1_555 1_555
H8A C10A 1_555 1_555
O3A_2 Cu1 1_555 1_555
Cu1A_2 O3 1_555 1_555
Mo2A_2 O2A 1_555 1_555
Cu1_2 O3A 1_555 1_555
O2A_2 Mo2A 1_555 1_555
O8A_2 Mo2A 1_555 1_555
Mo2A_3 O8A 1_555 1_555
Cu1A_3 O6A 1_555 1_555
O3_2 Cu1A 1_555 1_555
O6A_2 Cu1A 1_555 1_555
O8_2 Cu1A 1_555 1_555
Mo2 O5 1_555 1_555
Cu1 O6 1_555 1_555
O8 Cu1A_2 1_555 1_555
C4 C5 1_555 1_555
C5 C6 1_555 1_555
C9 C10 1_555 1_555
O5A Mo1A 1_555 1_555
O5A Mo2A 1_555 1_555
Mo1A O7A 1_555 1_555
C4A C5A 1_555 1_555
C5A C6A 1_555 1_555
C9A C10A 1_555 1_555

#END
