
#######################################################################
#
#                 Cambridge Crystallographic Data Centre
#                                CCDC 
#
#######################################################################
#
# If this CIF has been generated from an entry in the Cambridge 
# Structural Database, then it will include bibliographic, chemical, 
# crystal, experimental, refinement or atomic coordinate data resulting 
# from the CCDC's data processing and validation procedures.
#
#######################################################################

data_EFUNAU
_symmetry_cell_setting           orthorhombic
_symmetry_space_group_name_H-M   'P b c a'
_symmetry_Int_Tables_number      61
_space_group_name_Hall           '-P 2ac 2ab'
loop_
_symmetry_equiv_pos_site_id
_symmetry_equiv_pos_as_xyz
1 x,y,z
2 1/2+x,y,1/2-z
3 x,1/2-y,1/2+z
4 1/2-x,1/2+y,z
5 -x,-y,-z
6 1/2-x,-y,1/2+z
7 -x,1/2+y,1/2-z
8 1/2+x,1/2-y,-z
_cell_length_a                   7.8280(11)
_cell_length_b                   19.877(3)
_cell_length_c                   25.460(4)
_cell_angle_alpha                90
_cell_angle_beta                 90
_cell_angle_gamma                90
_cell_volume                     3961.5
loop_
_atom_site_label
_atom_site_type_symbol
_atom_site_fract_x
_atom_site_fract_y
_atom_site_fract_z
Mo1 Mo 0.36462(11) 1.18853(5) 0.40952(3)
Mo2 Mo 0.71920(11) 0.97335(5) 0.58036(3)
Cu1 Cu 0.83181(15) 1.15883(7) 0.39224(5)
P1 P 0.6382(3) 1.09325(14) 0.48591(10)
P2 P 0.6866(3) 1.24169(14) 0.48328(10)
O1 O 0.8272(8) 1.2306(3) 0.4434(2)
O2 O 0.7824(8) 1.0895(3) 0.4456(2)
O3 O 0.6415(9) 1.0332(3) 0.5232(3)
O4 O 0.8890(9) 1.0186(4) 0.6013(3)
O5 O 0.5648(9) 0.9936(3) 0.6240(3)
O6 O 0.8888(9) 0.9352(3) 0.5117(3)
O7 O 0.4581(8) 1.0997(3) 0.4610(2)
O8 O 0.2183(8) 1.1149(4) 0.3939(3)
O9 O 0.5357(9) 1.1685(3) 0.3701(3)
O10 O 0.2654(9) 1.2505(4) 0.3771(3)
O11 O 0.5116(9) 1.2496(3) 0.4549(3)
O12 O 0.7152(9) 1.3029(3) 0.5190(2)
N1 N 0.8513(10) 1.0917(5) 0.3344(3)
N2 N 0.9024(10) 1.2226(4) 0.3358(3)
C1 C 0.8162(13) 1.0263(5) 0.3379(4)
H1 H 0.7888 1.0081 0.3705
C2 C 0.8194(13) 0.9846(6) 0.2942(4)
H2 H 0.7944 0.9391 0.2976
C3 C 0.8602(15) 1.0114(6) 0.2456(4)
H3 H 0.8604 0.9845 0.2157
C4 C 0.9016(14) 1.0808(6) 0.2424(4)
H4 H 0.9319 1.1000 0.2104
C5 C 0.8961(12) 1.1192(5) 0.2874(4)
C6 C 0.9292(13) 1.1927(6) 0.2884(4)
C7 C 0.9836(14) 1.2297(6) 0.2449(4)
H5 H 1.0046 1.2087 0.2129
C8 C 1.0053(14) 1.2981(6) 0.2506(4)
H6 H 1.0417 1.3240 0.2223
C9 C 0.9730(14) 1.3275(5) 0.2979(4)
H7 H 0.9851 1.3737 0.3021
C10 C 0.9218(13) 1.2873(6) 0.3399(4)
H8 H 0.9006 1.3077 0.3721
C11 C 0.6652(13) 1.1672(5) 0.5241(4)
H9 H 0.5677 1.1726 0.5472
H10 H 0.7664 1.1625 0.5458
O12G O 0.2152(9) 1.1971(3) 0.4810(2)
O7D O 0.5419(8) 0.9003(3) 0.5390(2)
O8D O 0.7817(8) 0.8851(4) 0.6061(3)
Mo2D Mo 0.28080(11) 1.02665(5) 0.41964(3)
Mo1G Mo 0.86462(11) 1.31147(5) 0.59048(3)
O13 O 0.9067(11) 0.8639(5) 0.3746(4)
loop_
_geom_bond_atom_site_label_1
_geom_bond_atom_site_label_2
_geom_bond_site_symmetry_1
_geom_bond_site_symmetry_2
Mo1 O7 1_555 1_555
Mo2 O3 1_555 1_555
Cu1 O1 1_555 1_555
P1 O2 1_555 1_555
P2 O1 1_555 1_555
O2 Cu1 1_555 1_555
O3 P1 1_555 1_555
O4 Mo2 1_555 1_555
O5 Mo2 1_555 1_555
O6 Mo2 1_555 1_555
O7 P1 1_555 1_555
O8 Mo1 1_555 1_555
O9 Mo1 1_555 1_555
O10 Mo1 1_555 1_555
O11 Mo1 1_555 1_555
O12 P2 1_555 1_555
N1 Cu1 1_555 1_555
N2 Cu1 1_555 1_555
C1 N1 1_555 1_555
H1 C1 1_555 1_555
C2 C1 1_555 1_555
H2 C2 1_555 1_555
C3 C2 1_555 1_555
H3 C3 1_555 1_555
C4 C3 1_555 1_555
H4 C4 1_555 1_555
C5 N1 1_555 1_555
C6 N2 1_555 1_555
C7 C6 1_555 1_555
H5 C7 1_555 1_555
C8 C7 1_555 1_555
H6 C8 1_555 1_555
C9 C8 1_555 1_555
H7 C9 1_555 1_555
C10 N2 1_555 1_555
H8 C10 1_555 1_555
C11 P1 1_555 1_555
H9 C11 1_555 1_555
H10 C11 1_555 1_555
O12G Mo1 1_555 1_555
O7D Mo2 1_555 1_555
O8D Mo2 1_555 1_555
Mo2D O7 1_555 1_555
Mo1G O12 1_555 1_555
Cu1 O9 1_555 1_555
P2 C11 1_555 1_555
P2 O11 1_555 1_555
O8 Mo2D 1_555 1_555
C4 C5 1_555 1_555
C5 C6 1_555 1_555
C9 C10 1_555 1_555

#END
