
#######################################################################
#
#                 Cambridge Crystallographic Data Centre
#                                CCDC 
#
#######################################################################
#
# If this CIF has been generated from an entry in the Cambridge 
# Structural Database, then it will include bibliographic, chemical, 
# crystal, experimental, refinement or atomic coordinate data resulting 
# from the CCDC's data processing and validation procedures.
#
#######################################################################

data_EFUNIC
_symmetry_cell_setting           monoclinic
_symmetry_space_group_name_H-M   'P 21/c'
_symmetry_Int_Tables_number      14
_space_group_name_Hall           '-P 2ybc'
loop_
_symmetry_equiv_pos_site_id
_symmetry_equiv_pos_as_xyz
1 x,y,z
2 x,1/2-y,1/2+z
3 -x,-y,-z
4 -x,1/2+y,1/2-z
_cell_length_a                   8.5535(8)
_cell_length_b                   24.723(2)
_cell_length_c                   9.6296(9)
_cell_angle_alpha                90
_cell_angle_beta                 105.726(2)
_cell_angle_gamma                90
_cell_volume                     1960.13
loop_
_atom_site_label
_atom_site_type_symbol
_atom_site_fract_x
_atom_site_fract_y
_atom_site_fract_z
Mo1 Mo 0.33323(8) -0.33318(3) 0.06021(6)
Mo2 Mo -0.42257(8) -0.16417(3) -0.13089(6)
Cu1 Cu -0.04632(12) -0.36140(4) 0.20983(10)
P1 P -0.2868(2) -0.26449(8) 0.1062(2)
P2 P 0.1978(2) -0.26745(8) 0.3276(2)
O1 O -0.3616(6) -0.2355(2) -0.0396(5)
O2 O -0.1656(6) -0.3061(2) 0.0841(5)
O3 O 0.0793(6) -0.3109(2) 0.3472(5)
O4 O 0.3390(7) -0.2907(2) 0.2753(6)
O5 O 0.2721(6) -0.2390(2) 0.4754(5)
O6 O 0.1441(6) -0.3580(2) 0.0513(6)
O7 O 0.3786(6) -0.3619(2) -0.0840(5)
O8 O 0.4563(7) -0.3790(2) 0.2113(6)
O9 O -0.4273(6) -0.2901(2) 0.1568(5)
O10 O -0.4686(7) -0.1331(2) 0.0103(5)
O11 O -0.2319(6) -0.3600(2) 0.3765(5)
N1 N 0.0654(9) -0.4266(3) 0.3177(7)
N2 N -0.1708(8) -0.4199(3) 0.0821(7)
C1 C -0.2876(12) -0.4120(4) -0.0396(9)
H1 H -0.3168 -0.3767 -0.0691
C2 C -0.3658(15) -0.4537(4) -0.1227(12)
H2 H -0.4446 -0.4471 -0.2088
C3 C -0.3252(15) -0.5061(4) -0.0758(12)
H3 H -0.3801 -0.5353 -0.1282
C4 C -0.2038(12) -0.5149(3) 0.0480(10)
H4 H -0.1724 -0.5499 0.0781
C5 C -0.1288(10) -0.4715(3) 0.1271(9)
C6 C 0.0063(11) -0.4746(4) 0.2599(10)
C7 C 0.0657(12) -0.5236(4) 0.3219(12)
H5 H 0.0217 -0.5563 0.2823
C8 C 0.1972(15) -0.5215(4) 0.4490(15)
H6 H 0.2418 -0.5533 0.4947
C9 C 0.2577(17) -0.4722(5) 0.5037(16)
H7 H 0.3443 -0.4702 0.5864
C10 C 0.1887(12) -0.4260(4) 0.4349(11)
H8 H 0.2305 -0.3927 0.4726
C11 C 0.0994(9) -0.2180(3) 0.1934(7)
H9 H 0.1819 -0.1926 0.1827
H10 H 0.0606 -0.2367 0.1021
C12 C -0.0448(9) -0.1845(3) 0.2181(8)
H11 H -0.0031 -0.1615 0.3016
H12 H -0.0844 -0.1609 0.1355
C13 C -0.1897(9) -0.2162(3) 0.2412(8)
H13 H -0.2712 -0.1903 0.2509
H14 H -0.1533 -0.2352 0.3324
O5A O 0.2721(6) -0.2610(2) -0.0246(5)
O9_2 O 0.5727(6) -0.2901(2) 0.1568(5)
O4A O -0.6610(7) -0.2093(2) -0.2247(6)
O8A O -0.5437(7) -0.1210(2) -0.2887(6)
O9A O -0.4273(6) -0.2099(2) -0.3432(5)
O11A O -0.2319(6) -0.1400(2) -0.1235(5)
Mo2A Mo 0.57743(8) -0.33583(3) 0.36911(6)
Mo1A Mo 0.33323(8) -0.16682(3) 0.56021(6)
Mo1_2 Mo -0.66677(8) -0.33318(3) 0.06021(6)
Mo2A_2 Mo -0.42257(8) -0.33583(3) 0.36911(6)
loop_
_geom_bond_atom_site_label_1
_geom_bond_atom_site_label_2
_geom_bond_site_symmetry_1
_geom_bond_site_symmetry_2
Mo1 O4 1_555 1_555
Mo2 O1 1_555 1_555
Cu1 O2 1_555 1_555
P1 O1 1_555 1_555
P2 O3 1_555 1_555
O2 P1 1_555 1_555
O3 Cu1 1_555 1_555
O4 P2 1_555 1_555
O5 P2 1_555 1_555
O6 Mo1 1_555 1_555
O7 Mo1 1_555 1_555
O8 Mo1 1_555 1_555
O9 P1 1_555 1_555
O10 Mo2 1_555 1_555
O11 Cu1 1_555 1_555
N1 Cu1 1_555 1_555
N2 Cu1 1_555 1_555
C1 N2 1_555 1_555
H1 C1 1_555 1_555
C2 C1 1_555 1_555
H2 C2 1_555 1_555
C3 C2 1_555 1_555
H3 C3 1_555 1_555
C4 C3 1_555 1_555
H4 C4 1_555 1_555
C5 N2 1_555 1_555
C6 N1 1_555 1_555
C7 C6 1_555 1_555
H5 C7 1_555 1_555
C8 C7 1_555 1_555
H6 C8 1_555 1_555
C9 C8 1_555 1_555
H7 C9 1_555 1_555
C10 N1 1_555 1_555
H8 C10 1_555 1_555
C11 P2 1_555 1_555
H9 C11 1_555 1_555
H10 C11 1_555 1_555
C12 C11 1_555 1_555
H11 C12 1_555 1_555
H12 C12 1_555 1_555
C13 P1 1_555 1_555
H13 C13 1_555 1_555
H14 C13 1_555 1_555
O5A Mo1 1_555 1_555
O9_2 Mo1 1_555 1_555
O4A Mo2 1_555 1_555
O8A Mo2 1_555 1_555
O9A Mo2 1_555 1_555
O11A Mo2 1_555 1_555
Mo2A O4 1_555 1_555
Mo1A O5 1_555 1_555
Mo1_2 O9 1_555 1_555
Mo2A_2 O9 1_555 1_555
Cu1 O6 1_555 1_555
O8 Mo2A 1_555 1_555
O11 Mo2A_2 1_555 1_555
C4 C5 1_555 1_555
C5 C6 1_555 1_555
C9 C10 1_555 1_555
C12 C13 1_555 1_555
O9_2 Mo2A 1_555 1_555

#END
