
#######################################################################
#
#                 Cambridge Crystallographic Data Centre
#                                CCDC 
#
#######################################################################
#
# If this CIF has been generated from an entry in the Cambridge 
# Structural Database, then it will include bibliographic, chemical, 
# crystal, experimental, refinement or atomic coordinate data resulting 
# from the CCDC's data processing and validation procedures.
#
#######################################################################

data_EFUNUO
_symmetry_cell_setting           monoclinic
_symmetry_space_group_name_H-M   'P 21/n'
_symmetry_Int_Tables_number      14
_space_group_name_Hall           '-P 2yn'
loop_
_symmetry_equiv_pos_site_id
_symmetry_equiv_pos_as_xyz
1 x,y,z
2 1/2+x,1/2-y,1/2+z
3 -x,-y,-z
4 1/2-x,1/2+y,1/2-z
_cell_length_a                   8.5995(5)
_cell_length_b                   20.8533(13)
_cell_length_c                   12.5137(7)
_cell_angle_alpha                90
_cell_angle_beta                 110.0260(10)
_cell_angle_gamma                90
_cell_volume                     2108.37
loop_
_atom_site_label
_atom_site_type_symbol
_atom_site_fract_x
_atom_site_fract_y
_atom_site_fract_z
Mo1 Mo 0.51295(6) 0.12007(2) 0.41692(4)
Mo2 Mo 0.90630(6) 0.11757(2) 0.42121(4)
Cu1 Cu 0.68839(8) 0.01459(3) 0.02772(5)
P1 P 0.62652(18) 0.01646(7) 0.25441(11)
P2 P 0.73980(18) -0.02463(7) 0.49332(11)
O1 O 0.5726(4) -0.00639(17) 0.1298(3)
O2 O 0.7931(4) 0.05084(17) 0.2861(3)
O3 O 0.4934(4) 0.05776(17) 0.2739(3)
O4 O 0.9173(4) -0.04773(17) 0.5459(3)
O5 O 0.9875(5) 0.16385(18) 0.3424(3)
O6 O 0.9932(5) 0.14640(19) 0.5574(3)
O7 O 0.6932(4) 0.15575(17) 0.3798(3)
O8 O 0.5605(5) 0.14776(18) 0.5526(3)
O9 O 0.3610(5) 0.17009(18) 0.3399(3)
O10 O 0.7399(4) 0.04871(17) 0.4912(3)
O11 O 0.6310(5) -0.04885(17) 0.5590(3)
N1 N 0.7525(6) -0.0768(2) 0.0082(4)
N2 N 0.7938(6) 0.0283(2) -0.0825(4)
N3 N 0.6905(6) 0.1120(2) 0.0279(4)
C1 C 0.7271(7) -0.1291(3) 0.0606(5)
H1 H 0.6794 -0.1246 0.1166
C2 C 0.7687(7) -0.1904(3) 0.0352(5)
H2 H 0.7521 -0.2259 0.0750
C3 C 0.8349(7) -0.1973(3) -0.0498(5)
H3 H 0.8606 -0.2378 -0.0703
C4 C 0.8629(7) -0.1426(3) -0.1049(5)
H4 H 0.9091 -0.1461 -0.1618
C5 C 0.8217(7) -0.0839(3) -0.0743(4)
C6 C 0.8459(7) -0.0223(3) -0.1258(5)
C7 C 0.9176(7) -0.0145(3) -0.2082(4)
H5 H 0.9592 -0.0493 -0.2365
C8 C 0.9250(7) 0.0479(3) -0.2475(5)
H6 H 0.9718 0.0546 -0.3035
C9 C 0.8648(7) 0.0994(3) -0.2053(5)
H7 H 0.8660 0.1403 -0.2345
C10 C 0.8024(7) 0.0891(3) -0.1183(5)
C11 C 0.7454(7) 0.1368(3) -0.0535(5)
C12 C 0.7564(7) 0.2023(3) -0.0673(5)
H8 H 0.7890 0.2184 -0.1257
C13 C 0.7184(7) 0.2438(3) 0.0066(5)
H9 H 0.7289 0.2879 0.0006
C14 C 0.6646(7) 0.2182(3) 0.0893(5)
H10 H 0.6385 0.2450 0.1402
C15 C 0.6499(7) 0.1533(3) 0.0959(5)
H11 H 0.6097 0.1370 0.1505
C16 C 0.6563(7) -0.0526(3) 0.3474(4)
H12 H 0.7324 -0.0826 0.3322
H13 H 0.5517 -0.0743 0.3344
O11B O 0.3690(5) 0.04885(17) 0.4410(3)
O4B O 1.0827(4) 0.04773(17) 0.4541(3)
O1B O 0.4274(4) 0.00639(17) -0.1298(3)
Cu1B Cu 0.31161(8) -0.01459(3) -0.02772(5)
Mo2B Mo 1.09370(6) -0.11757(2) 0.57879(4)
Mo1B Mo 0.48705(6) -0.12007(2) 0.58308(4)
loop_
_geom_bond_atom_site_label_1
_geom_bond_atom_site_label_2
_geom_bond_site_symmetry_1
_geom_bond_site_symmetry_2
Mo1 O3 1_555 1_555
Mo2 O2 1_555 1_555
Cu1 O1 1_555 1_555
P1 O1 1_555 1_555
P2 O4 1_555 1_555
O1 Cu1B 1_555 1_555
O2 P1 1_555 1_555
O3 P1 1_555 1_555
O4 Mo2B 1_555 1_555
O5 Mo2 1_555 1_555
O6 Mo2 1_555 1_555
O7 Mo1 1_555 1_555
O8 Mo1 1_555 1_555
O9 Mo1 1_555 1_555
O10 Mo1 1_555 1_555
O11 P2 1_555 1_555
N1 Cu1 1_555 1_555
N2 Cu1 1_555 1_555
N3 Cu1 1_555 1_555
C1 N1 1_555 1_555
H1 C1 1_555 1_555
C2 C1 1_555 1_555
H2 C2 1_555 1_555
C3 C2 1_555 1_555
H3 C3 1_555 1_555
C4 C3 1_555 1_555
H4 C4 1_555 1_555
C5 N1 1_555 1_555
C6 N2 1_555 1_555
C7 C6 1_555 1_555
H5 C7 1_555 1_555
C8 C7 1_555 1_555
H6 C8 1_555 1_555
C9 C8 1_555 1_555
H7 C9 1_555 1_555
C10 N2 1_555 1_555
C11 N3 1_555 1_555
C12 C11 1_555 1_555
H8 C12 1_555 1_555
C13 C12 1_555 1_555
H9 C13 1_555 1_555
C14 C13 1_555 1_555
H10 C14 1_555 1_555
C15 N3 1_555 1_555
H11 C15 1_555 1_555
C16 P1 1_555 1_555
H12 C16 1_555 1_555
H13 C16 1_555 1_555
O11B Mo1 1_555 1_555
O4B Mo2 1_555 1_555
O1B Cu1 1_555 1_555
Cu1B O1B 1_555 1_555
Mo1B O11 1_555 1_555
Mo2 O7 1_555 1_555
Mo2 O10 1_555 1_555
P2 C16 1_555 1_555
P2 O10 1_555 1_555
C4 C5 1_555 1_555
C5 C6 1_555 1_555
C9 C10 1_555 1_555
C10 C11 1_555 1_555
C14 C15 1_555 1_555

#END
