
#######################################################################
#
#                 Cambridge Crystallographic Data Centre
#                                CCDC 
#
#######################################################################
#
# If this CIF has been generated from an entry in the Cambridge 
# Structural Database, then it will include bibliographic, chemical, 
# crystal, experimental, refinement or atomic coordinate data resulting 
# from the CCDC's data processing and validation procedures.
#
#######################################################################

data_EFUSIJ
_symmetry_cell_setting           monoclinic
_symmetry_space_group_name_H-M   'P 21/c'
_symmetry_Int_Tables_number      14
_space_group_name_Hall           '-P 2ybc'
loop_
_symmetry_equiv_pos_site_id
_symmetry_equiv_pos_as_xyz
1 x,y,z
2 -x,1/2+y,1/2-z
3 -x,-y,-z
4 x,1/2-y,1/2+z
_cell_length_a                   11.7616(8)
_cell_length_b                   20.4431(14)
_cell_length_c                   17.2742(8)
_cell_angle_alpha                90
_cell_angle_beta                 127.810(3)
_cell_angle_gamma                90
_cell_volume                     3281.44
loop_
_atom_site_label
_atom_site_type_symbol
_atom_site_fract_x
_atom_site_fract_y
_atom_site_fract_z
Cd1 Cd -0.01220(3) 0.409226(15) 0.01745(2)
Cd2 Cd -0.05338(4) -0.231114(15) -0.17757(2)
O1 O 0.0807(5) 0.5153(2) 0.1006(3)
O2 O 0.1354(4) 0.4308(2) 0.1920(3)
O3 O 0.7136(4) 0.7225(2) 0.7164(3)
O4 O 0.8653(4) 0.7091(2) 0.6841(3)
O5 O -0.1122(4) 0.32321(17) -0.1019(3)
O6 O -0.0040(4) 0.29282(15) 0.0496(2)
O7 O -0.1496(6) -0.14367(19) -0.1518(4)
O8 O -0.0236(5) -0.1179(2) -0.2005(4)
N1 N 0.1965(4) 0.3816(2) 0.0367(3)
N2 N 0.8174(5) 0.2473(2) 0.1190(3)
N3 N -0.2147(4) 0.4352(2) 0.0058(3)
C1 C 0.1470(6) 0.4899(3) 0.1830(4)
C2 C 0.2220(13) 0.5441(6) 0.2585(9)
H1 H 0.2577 0.5767 0.2375
H2 H 0.1542 0.5651 0.2649
C3 C 0.3456(17) 0.5162(8) 0.3561(12)
H3 H 0.3064 0.4888 0.3805
H4 H 0.4016 0.4882 0.3457
C4 C 0.4439(15) 0.5646(7) 0.4329(10)
C5 C 0.5646(13) 0.5848(6) 0.4454(9)
H5 H 0.5894 0.5640 0.4097
C6 C 0.4095(8) 0.6015(5) 0.4824(6)
H6 H 0.3157 0.6002 0.4620
C7 C 0.5090(6) 0.6404(3) 0.5611(4)
H7 H 0.4906 0.6547 0.6036
C8 C 0.6359(5) 0.6586(3) 0.5779(4)
C9 C 0.6586(7) 0.6384(4) 0.5132(5)
H8 H 0.7291 0.6573 0.5116
C10 C 0.7458(5) 0.6990(2) 0.6646(3)
C11 C -0.0559(6) 0.2802(2) -0.0385(4)
C12 C -0.0336(7) 0.2118(3) -0.0653(5)
H9 H -0.0275 0.2154 -0.1187
H10 H 0.0556 0.1929 -0.0093
C13 C -0.1547(7) 0.1698(3) -0.0945(6)
H11 H -0.2429 0.1883 -0.1519
H12 H -0.1631 0.1685 -0.0421
C14 C -0.1362(8) 0.0985(3) -0.1182(5)
C15 C -0.0515(8) 0.0832(3) -0.1455(5)
H13 H -0.0036 0.1164 -0.1517
C16 C -0.0357(6) 0.0174(3) -0.1643(4)
H14 H 0.0220 0.0075 -0.1827
C17 C -0.1070(6) -0.0311(2) -0.1550(4)
C18 C -0.1930(9) -0.0140(3) -0.1285(6)
H15 H -0.2423 -0.0467 -0.1227
C19 C -0.2077(8) 0.0500(3) -0.1105(5)
H16 H -0.2665 0.0599 -0.0931
C20 C -0.0927(6) -0.1018(2) -0.1711(4)
C21 C 0.2013(5) 0.3731(3) -0.0380(4)
H17 H 0.1240 0.3877 -0.0997
C22 C 0.3149(5) 0.3438(3) -0.0282(4)
H18 H 0.3132 0.3392 -0.0825
C23 C 0.4321(5) 0.3210(3) 0.0627(4)
C24 C 0.4260(7) 0.3293(4) 0.1403(4)
H19 H 0.5014 0.3145 0.2026
C25 C 0.3079(6) 0.3594(3) 0.1248(4)
H20 H 0.3060 0.3643 0.1775
C26 C 0.5606(5) 0.2917(2) 0.0791(4)
C27 C 0.5937(5) 0.3045(2) 0.0162(4)
H21 H 0.5300 0.3285 -0.0407
C28 C 0.7198(5) 0.2819(2) 0.0374(4)
H22 H 0.7389 0.2908 -0.0064
C29 C 0.7815(6) 0.2313(3) 0.1767(4)
H23 H 0.8442 0.2050 0.2310
C30 C 0.6565(6) 0.2519(3) 0.1597(4)
H24 H 0.6361 0.2394 0.2017
C31 C -0.3395(6) 0.4515(3) -0.0775(4)
H25 H -0.3510 0.4459 -0.1354
C32 C -0.4543(6) 0.4766(3) -0.0834(4)
H26 H -0.5402 0.4869 -0.1441
C33 C -0.4402(5) 0.4862(2) 0.0011(4)
C34 C -0.3114(6) 0.4678(3) 0.0875(4)
H27 H -0.2976 0.4719 0.1464
C35 C -0.2024(6) 0.4431(3) 0.0869(4)
H28 H -0.1160 0.4315 0.1464
N3B N -0.7853(4) 0.5648(2) -0.0058(3)
C31B C -0.6605(6) 0.5485(3) 0.0775(4)
H25B H -0.6490 0.5541 0.1354
C32B C -0.5457(6) 0.5234(3) 0.0834(4)
H26B H -0.4598 0.5131 0.1441
C33B C -0.5598(5) 0.5138(2) -0.0011(4)
C34B C -0.6886(6) 0.5322(3) -0.0875(4)
H27B H -0.7024 0.5281 -0.1464
C35B C -0.7976(6) 0.5569(3) -0.0869(4)
H28B H -0.8840 0.5685 -0.1464
Cd1B Cd -0.98780(3) 0.590774(15) -0.01745(2)
Cd2B Cd -0.94662(4) 1.231114(15) 0.17757(2)
O1B O -1.0807(5) 0.4847(2) -0.1006(3)
O2B O -1.1354(4) 0.5692(2) -0.1920(3)
O3B O -1.7136(4) 0.2775(2) -0.7164(3)
O4B O -1.8653(4) 0.2909(2) -0.6841(3)
O5B O -0.8878(4) 0.67679(17) 0.1019(3)
O6B O -0.9960(4) 0.70718(15) -0.0496(2)
O7B O -0.8504(6) 1.14367(19) 0.1518(4)
O8B O -0.9764(5) 1.1179(2) 0.2005(4)
N1B N -1.1965(4) 0.6184(2) -0.0367(3)
N2B N -1.8174(5) 0.7527(2) -0.1190(3)
C1B C -1.1470(6) 0.5101(3) -0.1830(4)
C2B C -1.2220(13) 0.4559(6) -0.2585(9)
H1B H -1.2577 0.4233 -0.2375
H2B H -1.1542 0.4349 -0.2649
C3B C -1.3456(17) 0.4838(8) -0.3561(12)
H3B H -1.3064 0.5112 -0.3805
H4B H -1.4016 0.5118 -0.3457
C4B C -1.4439(15) 0.4354(7) -0.4329(10)
C5B C -1.5646(13) 0.4152(6) -0.4454(9)
H5B H -1.5894 0.4360 -0.4097
C6B C -1.4095(8) 0.3985(5) -0.4824(6)
H6B H -1.3157 0.3998 -0.4620
C7B C -1.5090(6) 0.3596(3) -0.5611(4)
H7B H -1.4906 0.3453 -0.6036
C8B C -1.6359(5) 0.3414(3) -0.5779(4)
C9B C -1.6586(7) 0.3616(4) -0.5132(5)
H8B H -1.7291 0.3427 -0.5116
C10B C -1.7458(5) 0.3010(2) -0.6646(3)
C11B C -0.9441(6) 0.7198(2) 0.0385(4)
C12B C -0.9664(7) 0.7882(3) 0.0653(5)
H9B H -0.9725 0.7846 0.1187
H10B H -1.0556 0.8071 0.0093
C13B C -0.8453(7) 0.8302(3) 0.0945(6)
H11B H -0.7571 0.8117 0.1519
H12B H -0.8369 0.8315 0.0421
C14B C -0.8638(8) 0.9015(3) 0.1182(5)
C15B C -0.9485(8) 0.9168(3) 0.1455(5)
H13B H -0.9964 0.8836 0.1517
C16B C -0.9643(6) 0.9826(3) 0.1643(4)
H14B H -1.0220 0.9925 0.1827
C17B C -0.8930(6) 1.0311(2) 0.1550(4)
C18B C -0.8070(9) 1.0140(3) 0.1285(6)
H15B H -0.7577 1.0467 0.1227
C19B C -0.7923(8) 0.9500(3) 0.1105(5)
H16B H -0.7335 0.9401 0.0931
C20B C -0.9073(6) 1.1018(2) 0.1711(4)
C21B C -1.2013(5) 0.6269(3) 0.0380(4)
H17B H -1.1240 0.6123 0.0997
C22B C -1.3149(5) 0.6562(3) 0.0282(4)
H18B H -1.3132 0.6608 0.0825
C23B C -1.4321(5) 0.6790(3) -0.0627(4)
C24B C -1.4260(7) 0.6707(4) -0.1403(4)
H19B H -1.5014 0.6855 -0.2026
C25B C -1.3079(6) 0.6406(3) -0.1248(4)
H20B H -1.3060 0.6357 -0.1775
C26B C -1.5606(5) 0.7083(2) -0.0791(4)
C27B C -1.5937(5) 0.6955(2) -0.0162(4)
H21B H -1.5300 0.6715 0.0407
C28B C -1.7198(5) 0.7181(2) -0.0374(4)
H22B H -1.7389 0.7092 0.0064
C29B C -1.7815(6) 0.7687(3) -0.1767(4)
H23B H -1.8442 0.7950 -0.2310
C30B C -1.6565(6) 0.7481(3) -0.1597(4)
H24B H -1.6361 0.7606 -0.2017
Cd1_2 Cd -1.01220(3) 0.409226(15) 0.01745(2)
Cd1B_2 Cd 0.01220(3) 0.590774(15) -0.01745(2)
Cd2_2 Cd -2.05338(4) 0.768886(15) -0.17757(2)
Cd2_3 Cd -1.05338(4) 0.768886(15) -0.17757(2)
Cd2_4 Cd 0.94662(4) 0.768886(15) 0.82243(2)
Cd2B_2 Cd -1.94662(4) 0.231114(15) -0.82243(2)
Cd2B_3 Cd 0.05338(4) 0.231114(15) 0.17757(2)
Cd2B_4 Cd 1.05338(4) 0.231114(15) 0.17757(2)
O1_2 O -0.9193(5) 0.5153(2) 0.1006(3)
O1B_2 O -0.0807(5) 0.4847(2) -0.1006(3)
O3_2 O -0.2864(4) -0.2775(2) -0.2836(3)
O3B_2 O -0.7136(4) 1.2775(2) 0.2836(3)
O4_2 O -0.1347(4) -0.2909(2) -0.3159(3)
O4B_2 O -0.8653(4) 1.2909(2) 0.3159(3)
O6_2 O -1.0040(4) 1.29282(15) 0.0496(2)
O6B_2 O 0.0040(4) -0.29282(15) -0.0496(2)
N2_2 N -1.1826(5) 1.2473(2) 0.1190(3)
N2B_2 N 0.1826(5) -0.2473(2) -0.1190(3)
O9 O 0.4613(9) 0.1878(4) 0.2745(6)
C36? C 0.2745(14) 0.5081(5) 0.2920(9)
H29? H 0.2551 0.4915 0.3355
H30? H 0.3631 0.4883 0.3106
C37? C 0.2896(17) 0.5789(6) 0.3006(12)
H31? H 0.2057 0.5979 0.2903
H32? H 0.2949 0.5957 0.2504
C38? C 0.4258(15) 0.5989(7) 0.4023(10)
C39? C 0.5505(16) 0.6161(8) 0.4211(11)
H33? H 0.5633 0.6130 0.3732
loop_
_geom_bond_atom_site_label_1
_geom_bond_atom_site_label_2
_geom_bond_site_symmetry_1
_geom_bond_site_symmetry_2
Cd1 O1 1_555 1_555
Cd2 O7 1_555 1_555
O1 C1 1_555 1_555
O2 Cd1 1_555 1_555
O3 C10 1_555 1_555
O4 C10 1_555 1_555
O5 Cd1 1_555 1_555
O6 Cd1 1_555 1_555
O7 C20 1_555 1_555
O8 Cd2 1_555 1_555
N1 Cd1 1_555 1_555
N2 C28 1_555 1_555
N3 Cd1 1_555 1_555
C1 O2 1_555 1_555
C2 C1 1_555 1_555
H1 C2 1_555 1_555
H2 C2 1_555 1_555
C3 C2 1_555 1_555
H3 C3 1_555 1_555
H4 C3 1_555 1_555
C4 C3 1_555 1_555
C5 C4 1_555 1_555
H5 C5 1_555 1_555
C6 C4 1_555 1_555
H6 C6 1_555 1_555
C7 C6 1_555 1_555
H7 C7 1_555 1_555
C8 C7 1_555 1_555
C9 C5 1_555 1_555
H8 C9 1_555 1_555
C10 C8 1_555 1_555
C11 O5 1_555 1_555
C12 C11 1_555 1_555
H9 C12 1_555 1_555
H10 C12 1_555 1_555
C13 C12 1_555 1_555
H11 C13 1_555 1_555
H12 C13 1_555 1_555
C14 C13 1_555 1_555
C15 C14 1_555 1_555
H13 C15 1_555 1_555
C16 C15 1_555 1_555
H14 C16 1_555 1_555
C17 C16 1_555 1_555
C18 C17 1_555 1_555
H15 C18 1_555 1_555
C19 C14 1_555 1_555
H16 C19 1_555 1_555
C20 O8 1_555 1_555
C21 N1 1_555 1_555
H17 C21 1_555 1_555
C22 C21 1_555 1_555
H18 C22 1_555 1_555
C23 C22 1_555 1_555
C24 C23 1_555 1_555
H19 C24 1_555 1_555
C25 N1 1_555 1_555
H20 C25 1_555 1_555
C26 C23 1_555 1_555
C27 C26 1_555 1_555
H21 C27 1_555 1_555
C28 C27 1_555 1_555
H22 C28 1_555 1_555
C29 N2 1_555 1_555
H23 C29 1_555 1_555
C30 C26 1_555 1_555
H24 C30 1_555 1_555
C31 N3 1_555 1_555
H25 C31 1_555 1_555
C32 C31 1_555 1_555
H26 C32 1_555 1_555
C33 C32 1_555 1_555
C34 C33 1_555 1_555
H27 C34 1_555 1_555
C35 N3 1_555 1_555
H28 C35 1_555 1_555
N3B C31B 1_555 1_555
C31B H25B 1_555 1_555
C32B C31B 1_555 1_555
H26B C32B 1_555 1_555
C33B C33 1_555 1_555
C34B C33B 1_555 1_555
H27B C34B 1_555 1_555
C35B N3B 1_555 1_555
H28B C35B 1_555 1_555
Cd1B N3B 1_555 1_555
Cd2B O7B 1_555 1_555
O1B Cd1B 1_555 1_555
O2B Cd1B 1_555 1_555
O3B C10B 1_555 1_555
O4B C10B 1_555 1_555
O5B Cd1B 1_555 1_555
O6B Cd1B 1_555 1_555
O7B C20B 1_555 1_555
O8B Cd2B 1_555 1_555
N1B Cd1B 1_555 1_555
N2B C28B 1_555 1_555
C1B O1B 1_555 1_555
C2B C1B 1_555 1_555
H1B C2B 1_555 1_555
H2B C2B 1_555 1_555
C3B C2B 1_555 1_555
H3B C3B 1_555 1_555
H4B C3B 1_555 1_555
C4B C3B 1_555 1_555
C5B C4B 1_555 1_555
H5B C5B 1_555 1_555
C6B C4B 1_555 1_555
H6B C6B 1_555 1_555
C7B C6B 1_555 1_555
H7B C7B 1_555 1_555
C8B C7B 1_555 1_555
C9B C5B 1_555 1_555
H8B C9B 1_555 1_555
C10B C8B 1_555 1_555
C11B O5B 1_555 1_555
C12B C11B 1_555 1_555
H9B C12B 1_555 1_555
H10B C12B 1_555 1_555
C13B C12B 1_555 1_555
H11B C13B 1_555 1_555
H12B C13B 1_555 1_555
C14B C13B 1_555 1_555
C15B C14B 1_555 1_555
H13B C15B 1_555 1_555
C16B C15B 1_555 1_555
H14B C16B 1_555 1_555
C17B C16B 1_555 1_555
C18B C17B 1_555 1_555
H15B C18B 1_555 1_555
C19B C14B 1_555 1_555
H16B C19B 1_555 1_555
C20B O8B 1_555 1_555
C21B N1B 1_555 1_555
H17B C21B 1_555 1_555
C22B C21B 1_555 1_555
H18B C22B 1_555 1_555
C23B C22B 1_555 1_555
C24B C23B 1_555 1_555
H19B C24B 1_555 1_555
C25B N1B 1_555 1_555
H20B C25B 1_555 1_555
C26B C23B 1_555 1_555
C27B C26B 1_555 1_555
H21B C27B 1_555 1_555
C28B C27B 1_555 1_555
H22B C28B 1_555 1_555
C29B N2B 1_555 1_555
H23B C29B 1_555 1_555
C30B C26B 1_555 1_555
H24B C30B 1_555 1_555
Cd1_2 O1B 1_555 1_555
Cd1B_2 O1 1_555 1_555
Cd2_2 N2B 1_555 1_555
Cd2_3 O6B 1_555 1_555
Cd2_4 O3 1_555 1_555
Cd2B_2 O3B 1_555 1_555
Cd2B_3 O6 1_555 1_555
Cd2B_4 N2 1_555 1_555
O1_2 Cd1B 1_555 1_555
O1B_2 Cd1 1_555 1_555
O3_2 Cd2 1_555 1_555
O3B_2 Cd2B 1_555 1_555
O4_2 Cd2 1_555 1_555
O4B_2 Cd2B 1_555 1_555
O6_2 Cd2B 1_555 1_555
O6B_2 Cd2 1_555 1_555
N2_2 Cd2B 1_555 1_555
N2B_2 Cd2 1_555 1_555
O4 Cd2_4 1_555 1_555
O6 C11 1_555 1_555
C8 C9 1_555 1_555
C17 C20 1_555 1_555
C18 C19 1_555 1_555
C24 C25 1_555 1_555
C29 C30 1_555 1_555
C34 C35 1_555 1_555
C32B C33B 1_555 1_555
C34B C35B 1_555 1_555
O2B C1B 1_555 1_555
O4B Cd2B_2 1_555 1_555
O6B C11B 1_555 1_555
C8B C9B 1_555 1_555
C17B C20B 1_555 1_555
C18B C19B 1_555 1_555
C24B C25B 1_555 1_555
C29B C30B 1_555 1_555
Cd1_2 O1_2 1_555 1_555
Cd1B_2 O1B_2 1_555 1_555

#END
