
#######################################################################
#
#                 Cambridge Crystallographic Data Centre
#                                CCDC 
#
#######################################################################
#
# If this CIF has been generated from an entry in the Cambridge 
# Structural Database, then it will include bibliographic, chemical, 
# crystal, experimental, refinement or atomic coordinate data resulting 
# from the CCDC's data processing and validation procedures.
#
#######################################################################

data_EFUWUX
_symmetry_cell_setting           monoclinic
_symmetry_space_group_name_H-M   'C 2/c'
_symmetry_Int_Tables_number      15
_space_group_name_Hall           '-C 2yn'
loop_
_symmetry_equiv_pos_site_id
_symmetry_equiv_pos_as_xyz
1 x,y,z
2 1/2+x,1/2+y,z
3 -x,y,1/2-z
4 1/2-x,1/2+y,1/2-z
5 -x,-y,-z
6 1/2-x,1/2-y,-z
7 x,-y,1/2+z
8 1/2+x,1/2-y,1/2+z
_cell_length_a                   17.4446(3)
_cell_length_b                   9.4271(2)
_cell_length_c                   14.7289(3)
_cell_angle_alpha                90
_cell_angle_beta                 116.9742(11)
_cell_angle_gamma                90
_cell_volume                     2158.69
loop_
_atom_site_label
_atom_site_type_symbol
_atom_site_fract_x
_atom_site_fract_y
_atom_site_fract_z
Cu1 Cu 0.7500 0.7500 0.5000
Mn1 Mn 0.5000 0.10837(3) 0.2500
N1 N 0.58723(12) 0.26533(17) 0.24038(14)
N2 N 0.68815(15) 0.4381(2) 0.23399(16)
N3 N 0.76217(13) 0.62729(19) 0.35519(14)
N4 N 0.57741(9) -0.06632(16) 0.22403(11)
N5 N 0.59234(18) -0.18083(18) 0.08521(15)
N6 N 0.57980(10) -0.09804(15) -0.07757(11)
N7 N 0.74841(9) 0.93684(14) 0.43148(10)
N8 N 0.88157(9) 0.75318(15) 0.56894(14)
C1 C 0.63583(12) 0.3481(2) 0.24240(13)
C2 C 0.72596(12) 0.53715(19) 0.30126(14)
C3 C 0.58459(11) -0.11273(16) 0.15621(12)
C4 C 0.58496(11) -0.12830(16) 0.00058(12)
C5 C 0.81062(11) 1.05064(17) 0.48688(14)
C6 C 0.90295(11) 1.0010(2) 0.52928(16)
C7 C 0.92858(11) 0.88690(18) 0.60920(13)
H1 H 0.7567(15) 0.907(2) 0.380(2)
H2 H 0.6967(15) 0.975(2) 0.4095(17)
H3 H 0.8031(14) 1.129(2) 0.4411(18)
H4 H 0.7960(13) 1.081(2) 0.5426(16)
H5 H 0.9114(14) 0.970(2) 0.4780(18)
H6 H 0.9407(14) 1.085(2) 0.5573(17)
H7 H 0.9910(13) 0.869(2) 0.6367(16)
H8 H 0.9152(14) 0.919(2) 0.6618(17)
H9 H 0.8898(16) 0.726(2) 0.521(2)
H10 H 0.8996(16) 0.692(3) 0.611(2)
N1E N 0.91277(12) 1.23467(17) 0.75962(14)
N2E N 0.81185(15) 1.0619(2) 0.76601(16)
N3E N 0.73783(13) 0.87271(19) 0.64481(14)
C1E C 0.86417(12) 1.1519(2) 0.75760(13)
C2E C 0.77404(12) 0.96285(19) 0.69874(14)
N7E N 0.75159(9) 0.56316(14) 0.56852(10)
N8E N 0.61843(9) 0.74682(15) 0.43106(14)
C5E C 0.68938(11) 0.44936(17) 0.51312(14)
C6E C 0.59705(11) 0.4990(2) 0.47072(16)
C7E C 0.57142(11) 0.61310(18) 0.39080(13)
H1E H 0.7433(15) 0.593(2) 0.620(2)
H2E H 0.8033(15) 0.525(2) 0.5905(17)
H3E H 0.6969(14) 0.371(2) 0.5589(18)
H4E H 0.7040(13) 0.419(2) 0.4574(16)
H5E H 0.5886(14) 0.530(2) 0.5220(18)
H6E H 0.5593(14) 0.415(2) 0.4427(17)
H7E H 0.5090(13) 0.631(2) 0.3633(16)
H8E H 0.5848(14) 0.581(2) 0.3382(17)
H9E H 0.6102(16) 0.774(2) 0.479(2)
H10E H 0.6004(16) 0.808(3) 0.389(2)
N4B N 0.42259(9) -0.06632(16) 0.27597(11)
N5B N 0.40766(18) -0.18083(18) 0.41479(15)
N6B N 0.42020(10) -0.09804(15) 0.57757(11)
C3B C 0.41541(11) -0.11273(16) 0.34379(12)
C4B C 0.41504(11) -0.12830(16) 0.49942(12)
N1B N 0.41277(12) 0.26533(17) 0.25962(14)
N6F N 0.57980(10) 0.09804(15) 0.42243(11)
N6D N 0.42020(10) 0.09804(15) 0.07757(11)
Mn1F Mn 0.5000 -0.10837(3) -0.2500
Mn1G Mn 1.0000 1.39163(3) 0.7500
Mn1F_2 Mn 0.5000 -0.10837(3) 0.7500
loop_
_geom_bond_atom_site_label_1
_geom_bond_atom_site_label_2
_geom_bond_site_symmetry_1
_geom_bond_site_symmetry_2
Cu1 N3 1_555 1_555
Mn1 N1 1_555 1_555
N1 C1 1_555 1_555
N2 C1 1_555 1_555
N3 C2 1_555 1_555
N4 Mn1 1_555 1_555
N5 C3 1_555 1_555
N6 C4 1_555 1_555
N7 Cu1 1_555 1_555
N8 Cu1 1_555 1_555
C2 N2 1_555 1_555
C3 N4 1_555 1_555
C4 N5 1_555 1_555
C5 N7 1_555 1_555
C6 C5 1_555 1_555
C7 N8 1_555 1_555
H1 N7 1_555 1_555
H2 N7 1_555 1_555
H3 C5 1_555 1_555
H4 C5 1_555 1_555
H5 C6 1_555 1_555
H6 C6 1_555 1_555
H7 C7 1_555 1_555
H8 C7 1_555 1_555
H9 N8 1_555 1_555
H10 N8 1_555 1_555
N1E C1E 1_555 1_555
N2E C1E 1_555 1_555
N3E Cu1 1_555 1_555
C2E N2E 1_555 1_555
N7E Cu1 1_555 1_555
N8E Cu1 1_555 1_555
C5E N7E 1_555 1_555
C6E C5E 1_555 1_555
C7E N8E 1_555 1_555
H1E N7E 1_555 1_555
H2E N7E 1_555 1_555
H3E C5E 1_555 1_555
H4E C5E 1_555 1_555
H5E C6E 1_555 1_555
H6E C6E 1_555 1_555
H7E C7E 1_555 1_555
H8E C7E 1_555 1_555
H9E N8E 1_555 1_555
H10E N8E 1_555 1_555
N4B Mn1 1_555 1_555
N5B C3B 1_555 1_555
N6B C4B 1_555 1_555
C3B N4B 1_555 1_555
C4B N5B 1_555 1_555
N1B Mn1 1_555 1_555
N6F Mn1 1_555 1_555
N6D Mn1 1_555 1_555
Mn1F N6 1_555 1_555
Mn1G N1E 1_555 1_555
Mn1F_2 N6B 1_555 1_555
C6 C7 1_555 1_555
N3E C2E 1_555 1_555
C6E C7E 1_555 1_555

#END
