
#######################################################################
#
#                 Cambridge Crystallographic Data Centre
#                                CCDC 
#
#######################################################################
#
# If this CIF has been generated from an entry in the Cambridge 
# Structural Database, then it will include bibliographic, chemical, 
# crystal, experimental, refinement or atomic coordinate data resulting 
# from the CCDC's data processing and validation procedures.
#
#######################################################################

data_EFUWOS01
_symmetry_cell_setting           monoclinic
_symmetry_space_group_name_H-M   'P 21/c'
_symmetry_Int_Tables_number      14
_space_group_name_Hall           '-P 2ybc'
loop_
_symmetry_equiv_pos_site_id
_symmetry_equiv_pos_as_xyz
1 x,y,z
2 -x,1/2+y,1/2-z
3 -x,-y,-z
4 x,1/2-y,1/2+z
_cell_length_a                   9.6532(8)
_cell_length_b                   6.7121(5)
_cell_length_c                   8.9946(6)
_cell_angle_alpha                90
_cell_angle_beta                 106.895(3)
_cell_angle_gamma                90
_cell_volume                     557.636
loop_
_atom_site_label
_atom_site_type_symbol
_atom_site_fract_x
_atom_site_fract_y
_atom_site_fract_z
C1 C 0.2219(8) -0.0601(11) 0.7891(8)
C2 C 0.1221(8) 0.0357(12) 0.8684(9)
H1 H 0.1105 -0.0526 0.9494
H2 H 0.0278 0.0534 0.7936
C3 C 0.1769(10) 0.2369(11) 0.9401(11)
H3 H 0.1027 0.2977 0.9784
H4 H 0.1923 0.3229 0.8597
C4 C 0.3177(9) 0.2255(11) 1.0736(10)
O1 O 0.1716(6) -0.1432(10) 0.6593(7)
O2 O 0.3565(5) -0.0478(8) 0.8533(6)
O3 O 0.3330(5) 0.0966(8) 1.1748(5)
O4 O 0.4144(6) 0.3566(7) 1.0770(6)
Pb1 Pb 0.42969(3) -0.23369(4) 0.64195(3)
O3B O 0.6670(5) -0.0966(8) 0.8252(5)
O3C O 0.3330(5) -0.5966(8) 0.6748(5)
O4B O 0.5856(6) -0.3566(7) 0.9230(6)
O4C O 0.4144(6) 0.1434(7) 0.5770(6)
Pb1B Pb 0.57031(3) 0.23369(4) 1.35805(3)
Pb1C Pb 0.42969(3) -0.26631(4) 1.14195(3)
Pb1C_2 Pb 0.42969(3) 0.73369(4) 1.14195(3)
loop_
_geom_bond_atom_site_label_1
_geom_bond_atom_site_label_2
_geom_bond_site_symmetry_1
_geom_bond_site_symmetry_2
C1 C2 1_555 1_555
C2 H1 1_555 1_555
H2 C2 1_555 1_555
C3 C2 1_555 1_555
H3 C3 1_555 1_555
H4 C3 1_555 1_555
C4 C3 1_555 1_555
O1 C1 1_555 1_555
O2 C1 1_555 1_555
O3 C4 1_555 1_555
O4 C4 1_555 1_555
Pb1 O1 1_555 1_555
O3B Pb1 1_555 1_555
O3C Pb1 1_555 1_555
O4B Pb1 1_555 1_555
O4C Pb1 1_555 1_555
Pb1B O3 1_555 1_555
Pb1C O3 1_555 1_555
Pb1C_2 O4 1_555 1_555
O2 Pb1 1_555 1_555
O4 Pb1B 1_555 1_555

#END
