
#######################################################################
#
#                 Cambridge Crystallographic Data Centre
#                                CCDC 
#
#######################################################################
#
# If this CIF has been generated from an entry in the Cambridge 
# Structural Database, then it will include bibliographic, chemical, 
# crystal, experimental, refinement or atomic coordinate data resulting 
# from the CCDC's data processing and validation procedures.
#
#######################################################################

data_EGAGIE
_symmetry_cell_setting           triclinic
_symmetry_space_group_name_H-M   'P -1'
_symmetry_Int_Tables_number      2
_space_group_name_Hall           '-P 1'
loop_
_symmetry_equiv_pos_site_id
_symmetry_equiv_pos_as_xyz
1 x,y,z
2 -x,-y,-z
_cell_length_a                   8.2735(4)
_cell_length_b                   8.6746(5)
_cell_length_c                   13.5650(7)
_cell_angle_alpha                103.465(5)
_cell_angle_beta                 95.601(4)
_cell_angle_gamma                117.312(5)
_cell_volume                     817.359
loop_
_atom_site_label
_atom_site_type_symbol
_atom_site_fract_x
_atom_site_fract_y
_atom_site_fract_z
La1 La -1.04258(3) -1.27795(3) -0.497727(16)
S1 S -1.2169(3) -1.5969(2) -0.15337(11)
O1 O -1.2643(4) -1.5172(4) -0.4246(2)
O2 O -1.3518(5) -1.2655(5) -0.5006(3)
H1 H -1.456(9) -1.346(8) -0.524(5)
H2 H -1.354(9) -1.201(9) -0.454(5)
C1 C -1.2300(6) -1.5798(5) -0.3551(3)
S2 S -1.1576(4) -1.1352(2) 0.09755(11)
O3 O -1.1604(4) -1.6829(4) -0.3642(2)
O4 O -0.6996(5) -1.0248(5) -0.4254(3)
H3 H -0.670(8) -0.936(8) -0.435(4)
H4 H -0.593(9) -1.030(8) -0.405(5)
C2 C -1.2801(8) -1.5199(7) -0.2541(4)
H5 H -1.4140 -1.5657 -0.2679
H6 H -1.2178 -1.3875 -0.2295
S3 S -0.48379(18) -1.17854(17) -0.14107(9)
O5 O -0.9926(5) -0.8843(4) 0.3063(2)
C3 C -1.2669(10) -1.4696(8) -0.0449(4)
H7 H -1.3829 -1.4722 -0.0685
H8 H -1.2817 -1.5261 0.0100
O6 O -1.0168(4) -1.0743(4) 0.3940(2)
C4 C -1.1146(10) -1.2816(8) -0.0044(4)
H9 H -1.0931 -1.2307 -0.0615
H10 H -1.0015 -1.2806 0.0234
O7 O -0.8682(4) -1.3807(4) -0.3960(2)
C5 C -1.1117(8) -1.1981(6) 0.2083(3)
H11 H -1.2266 -1.2983 0.2128
H12 H -1.0224 -1.2405 0.1998
O8 O -0.7055(4) -1.4907(4) -0.3314(2)
C6 C -1.0352(6) -1.0412(5) 0.3077(3)
C7 C -0.7583(6) -1.3764(5) -0.3218(3)
C8 C -0.7046(7) -1.2323(7) -0.2180(3)
H13 H -0.8012 -1.2764 -0.1801
H14 H -0.6949 -1.1226 -0.2298
C9 C -0.4393(7) -0.9796(6) -0.0383(3)
H15 H -0.3092 -0.9165 -0.0007
H16 H -0.4581 -0.8974 -0.0696
S3A S -0.51621(18) -0.82146(17) 0.14107(9)
O7A O -0.1318(4) -0.6193(4) 0.3960(2)
O8A O -0.2945(4) -0.5093(4) 0.3314(2)
C7A C -0.2417(6) -0.6236(5) 0.3218(3)
C8A C -0.2954(7) -0.7677(7) 0.2180(3)
H13A H -0.1988 -0.7236 0.1801
H14A H -0.3051 -0.8774 0.2298
C9A C -0.5607(7) -1.0204(6) 0.0383(3)
H15A H -0.6908 -1.0835 0.0007
H16A H -0.5419 -1.1026 0.0696
La1A La -0.95742(3) -1.72205(3) -0.502273(16)
S1A S -0.7831(3) -1.4031(2) -0.84663(11)
O1A O -0.7357(4) -1.4828(4) -0.5754(2)
O2A O -0.6482(5) -1.7345(5) -0.4994(3)
H1A H -0.544(9) -1.654(8) -0.476(5)
H2A H -0.646(9) -1.799(9) -0.546(5)
C1A C -0.7700(6) -1.4202(5) -0.6449(3)
S2A S -0.8424(4) -1.8648(2) -1.09755(11)
O3A O -0.8396(4) -1.3171(4) -0.6358(2)
O4A O -1.3004(5) -1.9752(5) -0.5746(3)
H3A H -1.330(8) -2.064(8) -0.565(4)
H4A H -1.407(9) -1.970(8) -0.595(5)
C2A C -0.7199(8) -1.4801(7) -0.7459(4)
H5A H -0.5860 -1.4343 -0.7321
H6A H -0.7822 -1.6125 -0.7705
O5A O -1.0074(5) -2.1157(4) -1.3063(2)
C3A C -0.7331(10) -1.5304(8) -0.9551(4)
H7A H -0.6171 -1.5278 -0.9315
H8A H -0.7183 -1.4739 -1.0100
O6A O -0.9832(4) -1.9257(4) -1.3940(2)
C4A C -0.8854(10) -1.7184(8) -0.9956(4)
H9A H -0.9069 -1.7693 -0.9385
H10A H -0.9985 -1.7194 -1.0234
C5A C -0.8883(8) -1.8019(6) -1.2083(3)
H11A H -0.7734 -1.7017 -1.2128
H12A H -0.9776 -1.7595 -1.1998
C6A C -0.9648(6) -1.9588(5) -1.3077(3)
La1_2 La -1.04258(3) -2.27795(3) -1.497727(16)
La1_3 La -1.04258(3) -1.27795(3) 0.502273(16)
La1_4 La -0.04258(3) -0.27795(3) 0.502273(16)
La1A_2 La -0.95742(3) -1.72205(3) -1.502273(16)
La1A_3 La -0.95742(3) -0.72205(3) 0.497727(16)
La1A_4 La 0.04258(3) -0.72205(3) 0.497727(16)
O5_2 O -0.9926(5) -1.8843(4) -0.6937(2)
O5A_2 O -1.0074(5) -1.1157(4) -0.3063(2)
O6_2 O -1.0168(4) -2.0743(4) -0.6060(2)
O6_3 O -1.0168(4) -1.0743(4) -0.6060(2)
O6A_2 O -0.9832(4) -1.9257(4) -0.3940(2)
O6A_3 O -0.9832(4) -0.9257(4) -0.3940(2)
O7A_2 O -1.1318(4) -1.6193(4) -0.6040(2)
O8A_2 O -1.2945(4) -1.5093(4) -0.6686(2)
O9 O -1.3793(5) -1.0276(6) -0.3403(3)
H17 H -1.311(10) -0.928(10) -0.332(5)
H18 H -1.360(9) -1.033(8) -0.285(5)
loop_
_geom_bond_atom_site_label_1
_geom_bond_atom_site_label_2
_geom_bond_site_symmetry_1
_geom_bond_site_symmetry_2
La1 O1 1_555 1_555
S1 C2 1_555 1_555
O1 C1 1_555 1_555
O2 La1 1_555 1_555
H1 O2 1_555 1_555
H2 O2 1_555 1_555
C1 O3 1_555 1_555
S2 C4 1_555 1_555
O3 La1A 1_555 1_555
O4 La1 1_555 1_555
H3 O4 1_555 1_555
H4 O4 1_555 1_555
C2 C1 1_555 1_555
H5 C2 1_555 1_555
H6 C2 1_555 1_555
S3 C8 1_555 1_555
O5 C6 1_555 1_555
C3 S1 1_555 1_555
H7 C3 1_555 1_555
H8 C3 1_555 1_555
O6 C6 1_555 1_555
C4 C3 1_555 1_555
H9 C4 1_555 1_555
H10 C4 1_555 1_555
O7 La1 1_555 1_555
C5 S2 1_555 1_555
H11 C5 1_555 1_555
H12 C5 1_555 1_555
O8 C7 1_555 1_555
C6 C5 1_555 1_555
C7 O7 1_555 1_555
C8 C7 1_555 1_555
H13 C8 1_555 1_555
H14 C8 1_555 1_555
C9 S3 1_555 1_555
H15 C9 1_555 1_555
H16 C9 1_555 1_555
O9 H17 1_555 1_555
H18 O9 1_555 1_555
S3A C8A 1_555 1_555
O7A C7A 1_555 1_555
O8A C7A 1_555 1_555
C7A C8A 1_555 1_555
C8A H13A 1_555 1_555
H14A C8A 1_555 1_555
C9A C9 1_555 1_555
H15A C9A 1_555 1_555
H16A C9A 1_555 1_555
La1A O7 1_555 1_555
S1A C2A 1_555 1_555
O1A La1A 1_555 1_555
O2A La1A 1_555 1_555
H1A O2A 1_555 1_555
H2A O2A 1_555 1_555
C1A O1A 1_555 1_555
S2A C4A 1_555 1_555
O3A La1 1_555 1_555
O4A La1A 1_555 1_555
H3A O4A 1_555 1_555
H4A O4A 1_555 1_555
C2A C1A 1_555 1_555
H5A C2A 1_555 1_555
H6A C2A 1_555 1_555
O5A C6A 1_555 1_555
C3A S1A 1_555 1_555
H7A C3A 1_555 1_555
H8A C3A 1_555 1_555
O6A C6A 1_555 1_555
C4A C3A 1_555 1_555
H9A C4A 1_555 1_555
H10A C4A 1_555 1_555
C5A S2A 1_555 1_555
H11A C5A 1_555 1_555
H12A C5A 1_555 1_555
C6A C5A 1_555 1_555
La1_2 O5A 1_555 1_555
La1_3 O6 1_555 1_555
La1_4 O7A 1_555 1_555
La1A_2 O6A 1_555 1_555
La1A_3 O5 1_555 1_555
La1A_4 O7A 1_555 1_555
O5_2 La1A 1_555 1_555
O5A_2 La1 1_555 1_555
O6_2 La1A 1_555 1_555
O6_3 La1 1_555 1_555
O6A_2 La1A 1_555 1_555
O6A_3 La1 1_555 1_555
O7A_2 La1 1_555 1_555
O8A_2 La1 1_555 1_555
O6 La1A_3 1_555 1_555
O8 La1A 1_555 1_555
S3A C9A 1_555 1_555
O8A La1_4 1_555 1_555
La1A O7A_2 1_555 1_555
C1A O3A 1_555 1_555
O6A La1_2 1_555 1_555

#END
