
#######################################################################
#
#                 Cambridge Crystallographic Data Centre
#                                CCDC 
#
#######################################################################
#
# If this CIF has been generated from an entry in the Cambridge 
# Structural Database, then it will include bibliographic, chemical, 
# crystal, experimental, refinement or atomic coordinate data resulting 
# from the CCDC's data processing and validation procedures.
#
#######################################################################

data_EGAGOK
_symmetry_cell_setting           monoclinic
_symmetry_space_group_name_H-M   'I 2/a'
_symmetry_Int_Tables_number      15
_space_group_name_Hall           '-I 2ya'
loop_
_symmetry_equiv_pos_site_id
_symmetry_equiv_pos_as_xyz
1 x,y,z
2 1/2-x,y,-z
3 1/2+x,1/2+y,1/2+z
4 -x,1/2+y,1/2-z
5 -x,-y,-z
6 1/2+x,-y,z
7 1/2-x,1/2-y,1/2-z
8 x,1/2-y,1/2+z
_cell_length_a                   12.889(2)
_cell_length_b                   14.4316(18)
_cell_length_c                   13.6143(19)
_cell_angle_alpha                90
_cell_angle_beta                 105.888(10)
_cell_angle_gamma                90
_cell_volume                     2435.64
loop_
_atom_site_label
_atom_site_type_symbol
_atom_site_fract_x
_atom_site_fract_y
_atom_site_fract_z
Pd1 Pd 0.2500 0.2500 0.2500
N1 N 0.17753(11) 0.35562(10) 0.30274(11)
O1 O 0.38329(9) 0.32351(9) 0.31583(10)
O2 O 0.43487(9) 0.44611(8) 0.41714(9)
O3 O 0.22157(10) 0.49546(8) 0.38858(9)
C1 C 0.36403(13) 0.39691(12) 0.36296(13)
C2 C 0.24413(13) 0.42135(12) 0.35113(12)
C3 C 0.06310(13) 0.36231(12) 0.28860(14)
C4 C 0.01556(15) 0.30267(13) 0.34627(15)
C5 C -0.09675(16) 0.30589(16) 0.32888(18)
H1 H -0.1305 0.2666 0.3669
C6 C -0.15945(16) 0.36609(16) 0.25653(18)
H2 H -0.2355 0.3675 0.2455
C7 C -0.11139(16) 0.42385(15) 0.20072(17)
H3 H -0.1551 0.4644 0.1514
C8 C 0.00109(15) 0.42362(14) 0.21564(15)
C9 C 0.0829(2) 0.23695(15) 0.42397(19)
H4 H 0.1161 0.1908 0.3893
H5 H 0.0370 0.2056 0.4603
H6 H 0.1395 0.2717 0.4728
C10 C 0.05367(18) 0.48715(16) 0.15550(17)
H7 H -0.0018 0.5245 0.1085
H8 H 0.0923 0.4501 0.1164
H9 H 0.1047 0.5281 0.2025
Na1 Na 0.38012(5) 0.55977(5) 0.51436(5)
O4 O 0.39373(11) 0.70828(10) 0.58547(11)
H10 H 0.363(2) 0.7492(14) 0.611(2)
H11 H 0.4581(9) 0.7094(19) 0.6194(18)
N1A N 0.32247(11) 0.35562(10) 0.69726(11)
O1A O 0.11671(9) 0.32351(9) 0.68417(10)
O2A O 0.06513(9) 0.44611(8) 0.58286(9)
O3A O 0.27843(10) 0.49546(8) 0.61142(9)
C1A C 0.13597(13) 0.39691(12) 0.63704(13)
C2A C 0.25587(13) 0.42135(12) 0.64887(12)
C3A C 0.43690(13) 0.36231(12) 0.71140(14)
C4A C 0.48444(15) 0.30267(13) 0.65373(15)
C5A C 0.59675(16) 0.30589(16) 0.67112(18)
H1A H 0.6305 0.2666 0.6331
C6A C 0.65945(16) 0.36609(16) 0.74347(18)
H2A H 0.7355 0.3675 0.7545
C7A C 0.61139(16) 0.42385(15) 0.79928(17)
H3A H 0.6551 0.4644 0.8486
C8A C 0.49891(15) 0.42362(14) 0.78436(15)
C9A C 0.4171(2) 0.23695(15) 0.57603(19)
H4A H 0.3839 0.1908 0.6107
H5A H 0.4630 0.2056 0.5397
H6A H 0.3605 0.2717 0.5272
C10A C 0.44633(18) 0.48715(16) 0.84450(17)
H7A H 0.5018 0.5245 0.8915
H8A H 0.4077 0.4501 0.8836
H9A H 0.3953 0.5281 0.7975
Na1A Na 0.11988(5) 0.55977(5) 0.48564(5)
O4A O 0.10627(11) 0.70828(10) 0.41453(11)
H10A H 0.137(2) 0.7492(14) 0.389(2)
H11A H 0.0419(9) 0.7094(19) 0.3806(18)
Pd1A Pd 0.2500 0.2500 0.7500
N1F N 0.32247(11) 0.14438(10) 0.19726(11)
O1F O 0.11671(9) 0.17649(9) 0.18417(10)
O2D O 0.56513(9) 0.55389(8) 0.58286(9)
O2E O -0.06513(9) 0.55389(8) 0.41714(9)
Na1D Na 0.61988(5) 0.44023(5) 0.48564(5)
Na1E Na -0.11988(5) 0.44023(5) 0.51436(5)
loop_
_geom_bond_atom_site_label_1
_geom_bond_atom_site_label_2
_geom_bond_site_symmetry_1
_geom_bond_site_symmetry_2
Pd1 N1 1_555 1_555
N1 C2 1_555 1_555
O1 Pd1 1_555 1_555
O2 C1 1_555 1_555
O3 C2 1_555 1_555
C1 O1 1_555 1_555
C2 C1 1_555 1_555
C3 N1 1_555 1_555
C4 C3 1_555 1_555
C5 C4 1_555 1_555
H1 C5 1_555 1_555
C6 C5 1_555 1_555
H2 C6 1_555 1_555
C7 C6 1_555 1_555
H3 C7 1_555 1_555
C8 C3 1_555 1_555
C9 C4 1_555 1_555
H4 C9 1_555 1_555
H5 C9 1_555 1_555
H6 C9 1_555 1_555
C10 C8 1_555 1_555
H7 C10 1_555 1_555
H8 C10 1_555 1_555
H9 C10 1_555 1_555
Na1 O2 1_555 1_555
O4 Na1 1_555 1_555
H10 O4 1_555 1_555
H11 O4 1_555 1_555
N1A C2A 1_555 1_555
O1A C1A 1_555 1_555
O2A C1A 1_555 1_555
O3A Na1 1_555 1_555
C1A C2A 1_555 1_555
C2A O3A 1_555 1_555
C3A N1A 1_555 1_555
C4A C3A 1_555 1_555
C5A C4A 1_555 1_555
H1A C5A 1_555 1_555
C6A C5A 1_555 1_555
H2A C6A 1_555 1_555
C7A C6A 1_555 1_555
H3A C7A 1_555 1_555
C8A C3A 1_555 1_555
C9A C4A 1_555 1_555
H4A C9A 1_555 1_555
H5A C9A 1_555 1_555
H6A C9A 1_555 1_555
C10A C8A 1_555 1_555
H7A C10A 1_555 1_555
H8A C10A 1_555 1_555
H9A C10A 1_555 1_555
Na1A O3 1_555 1_555
O4A Na1A 1_555 1_555
H10A O4A 1_555 1_555
H11A O4A 1_555 1_555
Pd1A N1A 1_555 1_555
N1F Pd1 1_555 1_555
O1F Pd1 1_555 1_555
O2D Na1 1_555 1_555
O2E Na1A 1_555 1_555
Na1D O2 1_555 1_555
Na1E O2A 1_555 1_555
O3 Na1 1_555 1_555
C7 C8 1_555 1_555
O1A Pd1A 1_555 1_555
O2A Na1A 1_555 1_555
O3A Na1A 1_555 1_555
C7A C8A 1_555 1_555
O2D Na1D 1_555 1_555
O2E Na1E 1_555 1_555

#END
