
#######################################################################
#
#                 Cambridge Crystallographic Data Centre
#                                CCDC 
#
#######################################################################
#
# If this CIF has been generated from an entry in the Cambridge 
# Structural Database, then it will include bibliographic, chemical, 
# crystal, experimental, refinement or atomic coordinate data resulting 
# from the CCDC's data processing and validation procedures.
#
#######################################################################

data_EGAHOK
_symmetry_cell_setting           orthorhombic
_symmetry_space_group_name_H-M   'P 21 21 21'
_symmetry_Int_Tables_number      19
_space_group_name_Hall           'P 2ac 2ab'
loop_
_symmetry_equiv_pos_site_id
_symmetry_equiv_pos_as_xyz
1 x,y,z
2 1/2-x,-y,1/2+z
3 1/2+x,1/2-y,-z
4 -x,1/2+y,1/2-z
_cell_length_a                   8.3836(4)
_cell_length_b                   10.4446(5)
_cell_length_c                   14.9207(7)
_cell_angle_alpha                90
_cell_angle_beta                 90
_cell_angle_gamma                90
_cell_volume                     1306.51
loop_
_atom_site_label
_atom_site_type_symbol
_atom_site_fract_x
_atom_site_fract_y
_atom_site_fract_z
Bi1 Bi 0.378171(8) 0.246927(9) -0.002772(6)
O1 O 0.62018(18) 0.2875(2) 0.06808(12)
C1 C 0.6366(3) 0.3016(3) 0.16271(19)
H1 H 0.7272 0.2486 0.1837
H2 H 0.5387 0.2699 0.1925
C2 C 0.6647(4) 0.4399(3) 0.1893(2)
H3 H 0.7585 0.4729 0.1576
H4 H 0.6828 0.4449 0.2541
H5 H 0.5711 0.4912 0.1735
C3 C 0.3830(3) 0.0417(3) 0.04474(18)
C4 C 0.5228(3) -0.0097(3) 0.08089(19)
H6 H 0.6135 0.0435 0.0893
C5 C 0.5298(4) -0.1375(3) 0.1044(2)
H7 H 0.6254 -0.1716 0.1289
C6 C 0.3989(4) -0.2161(3) 0.0927(2)
H8 H 0.4049 -0.3040 0.1088
C7 C 0.2608(4) -0.1673(3) 0.0581(2)
H9 H 0.1706 -0.2213 0.0505
C8 C 0.2518(3) -0.0374(3) 0.03360(19)
H10 H 0.1556 -0.0040 0.0094
C9 C 0.2475(3) 0.3206(3) 0.11844(19)
C10 C 0.2208(4) 0.4524(3) 0.1231(2)
H11 H 0.2562 0.5060 0.0757
C11 C 0.1442(4) 0.5055(4) 0.1953(3)
H12 H 0.1273 0.5954 0.1976
C12 C 0.0912(4) 0.4287(4) 0.2649(3)
H13 H 0.0377 0.4656 0.3148
C13 C 0.1163(3) 0.2996(4) 0.2613(2)
H14 H 0.0798 0.2467 0.3089
C14 C 0.1951(3) 0.2445(3) 0.18845(18)
H15 H 0.2128 0.1547 0.1869
Bi1B Bi 0.878171(8) 0.253073(9) 0.002772(6)
O1B O 0.12018(18) 0.2125(2) -0.06808(12)
loop_
_geom_bond_atom_site_label_1
_geom_bond_atom_site_label_2
_geom_bond_site_symmetry_1
_geom_bond_site_symmetry_2
Bi1 O1 1_555 1_555
O1 C1 1_555 1_555
C1 H1 1_555 1_555
H2 C1 1_555 1_555
C2 C1 1_555 1_555
H3 C2 1_555 1_555
H4 C2 1_555 1_555
H5 C2 1_555 1_555
C3 Bi1 1_555 1_555
C4 C3 1_555 1_555
H6 C4 1_555 1_555
C5 C4 1_555 1_555
H7 C5 1_555 1_555
C6 C5 1_555 1_555
H8 C6 1_555 1_555
C7 C6 1_555 1_555
H9 C7 1_555 1_555
C8 C3 1_555 1_555
H10 C8 1_555 1_555
C9 Bi1 1_555 1_555
C10 C9 1_555 1_555
H11 C10 1_555 1_555
C11 C10 1_555 1_555
H12 C11 1_555 1_555
C12 C11 1_555 1_555
H13 C12 1_555 1_555
C13 C12 1_555 1_555
H14 C13 1_555 1_555
C14 C9 1_555 1_555
H15 C14 1_555 1_555
Bi1B O1 1_555 1_555
O1B Bi1 1_555 1_555
C7 C8 1_555 1_555
C13 C14 1_555 1_555

#END
