
#######################################################################
#
#                 Cambridge Crystallographic Data Centre
#                                CCDC 
#
#######################################################################
#
# If this CIF has been generated from an entry in the Cambridge 
# Structural Database, then it will include bibliographic, chemical, 
# crystal, experimental, refinement or atomic coordinate data resulting 
# from the CCDC's data processing and validation procedures.
#
#######################################################################

data_EGAJUT
_symmetry_cell_setting           monoclinic
_symmetry_space_group_name_H-M   'C c'
_symmetry_Int_Tables_number      9
_space_group_name_Hall           'C -2yc'
loop_
_symmetry_equiv_pos_site_id
_symmetry_equiv_pos_as_xyz
1 x,y,z
2 x,-y,1/2+z
3 1/2+x,1/2+y,z
4 1/2+x,1/2-y,1/2+z
_cell_length_a                   16.4083(6)
_cell_length_b                   22.4457(12)
_cell_length_c                   13.4740(4)
_cell_angle_alpha                90
_cell_angle_beta                 124.4800(10)
_cell_angle_gamma                90
_cell_volume                     4090.64
loop_
_atom_site_label
_atom_site_type_symbol
_atom_site_fract_x
_atom_site_fract_y
_atom_site_fract_z
Pd1 Pd -0.00293(3) 0.36662(2) -0.75399(3)
Pd2 Pd 0.51502(3) 0.38161(2) -0.72944(3)
N1 N 0.1407(4) 0.3614(2) -0.6099(4)
O1 O 0.0291(3) 0.28400(19) -0.7843(4)
O2 O 0.1455(3) 0.21428(19) -0.6991(4)
O3 O 0.2696(3) 0.29289(19) -0.5213(4)
C1 C 0.1158(5) 0.2648(3) -0.7015(5)
C2 C 0.1836(4) 0.3091(3) -0.6005(5)
C3 C 0.2017(4) 0.4062(3) -0.5218(5)
C4 C 0.2711(4) 0.4372(3) -0.5317(5)
C5 C 0.3278(4) 0.4810(3) -0.4458(5)
H1 H 0.3749 0.5029 -0.4509
C6 C 0.3165(4) 0.4932(3) -0.3537(5)
H2 H 0.3547 0.5237 -0.2971
C7 C 0.2491(4) 0.4606(3) -0.3440(5)
H3 H 0.2422 0.4688 -0.2799
C8 C 0.1919(4) 0.4163(3) -0.4269(5)
C9 C 0.2853(4) 0.4239(3) -0.6306(5)
H4 H 0.2393 0.3924 -0.6825
H5 H 0.3533 0.4106 -0.5952
H6 H 0.2723 0.4599 -0.6784
C10 C 0.1228(5) 0.3796(3) -0.4135(6)
H7 H 0.0890 0.3508 -0.4795
H8 H 0.0739 0.4057 -0.4157
H9 H 0.1602 0.3584 -0.3365
N2 N -0.0593(3) 0.4448(2) -0.7426(4)
O4 O -0.1387(3) 0.3615(2) -0.9101(4)
O5 O -0.2735(3) 0.4166(2) -1.0308(4)
O6 O -0.1981(3) 0.5032(2) -0.8561(4)
C11 C -0.1922(4) 0.4089(3) -0.9363(5)
C12 C -0.1486(4) 0.4578(3) -0.8391(5)
C13 C -0.0206(4) 0.4873(3) -0.6477(5)
C14 C 0.0486(4) 0.5287(3) -0.6321(5)
C15 C 0.0820(4) 0.5722(3) -0.5443(5)
H10 H 0.1308 0.5998 -0.5318
C16 C 0.0441(4) 0.5758(3) -0.4735(5)
H11 H 0.0656 0.6062 -0.4147
C17 C -0.0255(4) 0.5339(3) -0.4913(5)
H12 H -0.0511 0.5360 -0.4433
C18 C -0.0587(4) 0.4891(3) -0.5773(5)
C19 C 0.0826(4) 0.5288(3) -0.7150(5)
H13 H 0.0522 0.4954 -0.7714
H14 H 0.1547 0.5249 -0.6675
H15 H 0.0631 0.5664 -0.7600
C20 C -0.1386(4) 0.4465(3) -0.5988(5)
H16 H -0.1529 0.4181 -0.6620
H17 H -0.1986 0.4689 -0.6239
H18 H -0.1159 0.4248 -0.5242
N3 N 0.5038(4) 0.3752(2) -0.8862(4)
O7 O 0.5853(3) 0.45779(18) -0.7167(4)
O8 O 0.6244(3) 0.51332(18) -0.8208(4)
O9 O 0.5393(3) 0.43075(18) -1.0018(3)
C21 C 0.5880(4) 0.4691(3) -0.8094(5)
C22 C 0.5407(4) 0.4221(3) -0.9091(5)
C23 C 0.4647(4) 0.3286(2) -0.9728(5)
C24 C 0.3619(4) 0.3216(3) -1.0497(5)
C25 C 0.3228(4) 0.2765(3) -1.1352(5)
H19 H 0.2532 0.2711 -1.1865
C26 C 0.3854(5) 0.2391(3) -1.1458(5)
H20 H 0.3588 0.2082 -1.2042
C27 C 0.4871(4) 0.2475(3) -1.0703(5)
H21 H 0.5293 0.2219 -1.0781
C28 C 0.5286(4) 0.2918(3) -0.9844(5)
C29 C 0.2956(4) 0.3646(3) -1.0432(5)
H22 H 0.2265 0.3534 -1.1022
H23 H 0.3071 0.4048 -1.0610
H24 H 0.3097 0.3638 -0.9622
C30 C 0.6387(4) 0.3020(3) -0.9094(5)
H25 H 0.6550 0.3350 -0.8534
H26 H 0.6600 0.3119 -0.9621
H27 H 0.6725 0.2658 -0.8638
N4 N 0.4453(3) 0.3105(2) -0.7156(4)
O10 O 0.5427(3) 0.40064(19) -0.5669(4)
O11 O 0.5180(3) 0.3655(2) -0.4314(4)
O12 O 0.4206(3) 0.26969(18) -0.5763(3)
C31 C 0.5081(4) 0.3618(3) -0.5292(5)
C32 C 0.4532(4) 0.3088(3) -0.6115(5)
C33 C 0.3917(4) 0.2631(2) -0.7994(5)
C34 C 0.2874(4) 0.2606(3) -0.8635(5)
C35 C 0.2387(4) 0.2138(3) -0.9445(5)
H28 H 0.1687 0.2114 -0.9889
C36 C 0.2902(5) 0.1706(3) -0.9616(6)
H29 H 0.2556 0.1392 -1.0178
C37 C 0.3926(4) 0.1733(3) -0.8964(5)
H30 H 0.4279 0.1437 -0.9080
C38 C 0.4438(4) 0.2190(3) -0.8146(5)
C39 C 0.2309(4) 0.3061(3) -0.8448(5)
H31 H 0.2770 0.3353 -0.7850
H32 H 0.1946 0.2865 -0.8161
H33 H 0.1842 0.3264 -0.9211
C40 C 0.5546(4) 0.2199(3) -0.7400(5)
H34 H 0.5786 0.2548 -0.6870
H35 H 0.5777 0.2219 -0.7930
H36 H 0.5801 0.1836 -0.6912
Na1 Na 0.32076(18) 0.19958(11) -0.5759(2)
Na2 Na 0.43530(17) 0.30575(10) -0.3747(2)
Na3 Na 0.63247(16) 0.39438(10) -0.23547(19)
Na4 Na 0.63439(16) 0.50741(10) -1.0041(2)
O13 O 0.4850(3) 0.3851(2) -0.2296(4)
O14 O 0.2886(4) 0.1228(2) -0.7200(4)
O1C O 0.5291(3) 0.21600(19) -0.2843(4)
O2C O 0.6455(3) 0.28572(19) -0.1991(4)
O4C O 0.3613(3) 0.1385(2) -0.4101(4)
O5_2 O 0.7265(3) 0.4166(2) -1.0308(4)
O5_3 O 0.7265(3) 0.4166(2) -0.0308(4)
O6_2 O 0.8019(3) 0.5032(2) -0.8561(4)
O7A O 0.5853(3) 0.54221(18) -1.2167(4)
O8A O 0.6244(3) 0.48668(18) -0.3208(4)
O10A O 0.5427(3) 0.59936(19) -1.0669(4)
Na1C Na -0.17924(18) 0.30042(11) -1.0759(2)
Na2C Na -0.06470(17) 0.19425(10) -0.8747(2)
Na3_2 Na -0.36753(16) 0.39438(10) -1.23547(19)
Na3A Na 0.63247(16) 0.60562(10) -0.73547(19)
Na3C Na 0.13247(16) 0.10562(10) -0.73547(19)
Na4_2 Na -0.36561(16) 0.50741(10) -1.0041(2)
Na4A Na 0.63439(16) 0.49259(10) -0.5041(2)
O14C O 0.7886(4) 0.3772(2) -0.2200(4)
loop_
_geom_bond_atom_site_label_1
_geom_bond_atom_site_label_2
_geom_bond_site_symmetry_1
_geom_bond_site_symmetry_2
Pd1 N1 1_555 1_555
Pd2 N3 1_555 1_555
N1 C2 1_555 1_555
O1 Pd1 1_555 1_555
O2 C1 1_555 1_555
O3 C2 1_555 1_555
C1 O1 1_555 1_555
C2 C1 1_555 1_555
C3 N1 1_555 1_555
C4 C3 1_555 1_555
C5 C4 1_555 1_555
H1 C5 1_555 1_555
C6 C5 1_555 1_555
H2 C6 1_555 1_555
C7 C6 1_555 1_555
H3 C7 1_555 1_555
C8 C3 1_555 1_555
C9 C4 1_555 1_555
H4 C9 1_555 1_555
H5 C9 1_555 1_555
H6 C9 1_555 1_555
C10 C8 1_555 1_555
H7 C10 1_555 1_555
H8 C10 1_555 1_555
H9 C10 1_555 1_555
N2 Pd1 1_555 1_555
O4 Pd1 1_555 1_555
O5 C11 1_555 1_555
O6 C12 1_555 1_555
C11 O4 1_555 1_555
C12 N2 1_555 1_555
C13 N2 1_555 1_555
C14 C13 1_555 1_555
C15 C14 1_555 1_555
H10 C15 1_555 1_555
C16 C15 1_555 1_555
H11 C16 1_555 1_555
C17 C16 1_555 1_555
H12 C17 1_555 1_555
C18 C13 1_555 1_555
C19 C14 1_555 1_555
H13 C19 1_555 1_555
H14 C19 1_555 1_555
H15 C19 1_555 1_555
C20 C18 1_555 1_555
H16 C20 1_555 1_555
H17 C20 1_555 1_555
H18 C20 1_555 1_555
N3 C22 1_555 1_555
O7 Pd2 1_555 1_555
O8 C21 1_555 1_555
O9 C22 1_555 1_555
C21 O7 1_555 1_555
C22 C21 1_555 1_555
C23 N3 1_555 1_555
C24 C23 1_555 1_555
C25 C24 1_555 1_555
H19 C25 1_555 1_555
C26 C25 1_555 1_555
H20 C26 1_555 1_555
C27 C26 1_555 1_555
H21 C27 1_555 1_555
C28 C23 1_555 1_555
C29 C24 1_555 1_555
H22 C29 1_555 1_555
H23 C29 1_555 1_555
H24 C29 1_555 1_555
C30 C28 1_555 1_555
H25 C30 1_555 1_555
H26 C30 1_555 1_555
H27 C30 1_555 1_555
N4 Pd2 1_555 1_555
O10 Pd2 1_555 1_555
O11 C31 1_555 1_555
O12 C32 1_555 1_555
C31 O10 1_555 1_555
C32 N4 1_555 1_555
C33 N4 1_555 1_555
C34 C33 1_555 1_555
C35 C34 1_555 1_555
H28 C35 1_555 1_555
C36 C35 1_555 1_555
H29 C36 1_555 1_555
C37 C36 1_555 1_555
H30 C37 1_555 1_555
C38 C33 1_555 1_555
C39 C34 1_555 1_555
H31 C39 1_555 1_555
H32 C39 1_555 1_555
H33 C39 1_555 1_555
C40 C38 1_555 1_555
H34 C40 1_555 1_555
H35 C40 1_555 1_555
H36 C40 1_555 1_555
Na1 O2 1_555 1_555
Na2 O3 1_555 1_555
Na3 O11 1_555 1_555
Na4 O8 1_555 1_555
O13 Na2 1_555 1_555
O14 Na1 1_555 1_555
O1C Na2 1_555 1_555
O2C Na2 1_555 1_555
O4C Na1 1_555 1_555
O5_2 Na4 1_555 1_555
O5_3 Na3 1_555 1_555
O6_2 Na4 1_555 1_555
O7A Na4 1_555 1_555
O8A Na3 1_555 1_555
O10A Na4 1_555 1_555
Na1C O4 1_555 1_555
Na2C O1 1_555 1_555
Na3_2 O5 1_555 1_555
Na3A O8 1_555 1_555
Na3C O2 1_555 1_555
Na4_2 O5 1_555 1_555
Na4A O7 1_555 1_555
O14C Na3 1_555 1_555
O2 Na2C 1_555 1_555
O3 Na1 1_555 1_555
C7 C8 1_555 1_555
O6 Na4_2 1_555 1_555
C11 C12 1_555 1_555
C17 C18 1_555 1_555
O9 Na4 1_555 1_555
C27 C28 1_555 1_555
O10 Na4A 1_555 1_555
O11 Na2 1_555 1_555
O12 Na1 1_555 1_555
O12 Na2 1_555 1_555
C31 C32 1_555 1_555
C37 C38 1_555 1_555
Na3 O13 1_555 1_555
Na3 O2C 1_555 1_555
O14 Na3C 1_555 1_555
O8A Na4A 1_555 1_555

#END
