
#######################################################################
#
#                 Cambridge Crystallographic Data Centre
#                                CCDC 
#
#######################################################################
#
# If this CIF has been generated from an entry in the Cambridge 
# Structural Database, then it will include bibliographic, chemical, 
# crystal, experimental, refinement or atomic coordinate data resulting 
# from the CCDC's data processing and validation procedures.
#
#######################################################################

data_EGASOW
_symmetry_cell_setting           monoclinic
_symmetry_space_group_name_H-M   'P 21/c'
_symmetry_Int_Tables_number      14
_space_group_name_Hall           '-P 2ybc'
loop_
_symmetry_equiv_pos_site_id
_symmetry_equiv_pos_as_xyz
1 x,y,z
2 -x,1/2+y,1/2-z
3 -x,-y,-z
4 x,1/2-y,1/2+z
_cell_length_a                   5.8718(4)
_cell_length_b                   14.2721(15)
_cell_length_c                   24.6470(18)
_cell_angle_alpha                90
_cell_angle_beta                 95.5810(10)
_cell_angle_gamma                90
_cell_volume                     2055.7
loop_
_atom_site_label
_atom_site_type_symbol
_atom_site_fract_x
_atom_site_fract_y
_atom_site_fract_z
Cu1 Cu 0.90904(6) 0.09131(2) 0.517230(13)
N1 N 0.1410(5) 0.2720(2) 0.16155(10)
C1 C -0.4487(6) 0.1364(3) 0.10526(15)
H1 H -0.5838 0.1081 0.0908
O1 O 1.1308(3) -0.00392(14) 0.54433(8)
N2 N -0.0341(4) 0.32814(18) 0.08411(10)
C2 C -0.3340(7) 0.1007(2) 0.15349(15)
H2 H -0.3948 0.0492 0.1702
O2 O 0.5904(4) 0.0361(2) 0.55672(10)
N3 N 0.5592(5) 0.2682(2) 0.40446(10)
C3 C -0.1347(6) 0.1399(2) 0.17648(13)
H3 H -0.0585 0.1162 0.2084
C4 C -0.0513(5) 0.2169(2) 0.14999(12)
N4 N 0.7791(5) 0.19490(18) 0.46935(10)
C5 C -0.1615(5) 0.2529(2) 0.10133(12)
C6 C -0.3656(6) 0.2126(2) 0.07880(13)
H4 H -0.4431 0.2362 0.0470
C7 C 0.1425(5) 0.3356(2) 0.12154(12)
H5 H 0.2565 0.3805 0.1202
C8 C 0.3177(6) 0.2593(3) 0.20737(13)
H6 H 0.4505 0.2963 0.2006
H7 H 0.3640 0.1940 0.2088
C9 C 0.2425(6) 0.2866(3) 0.26202(13)
H8 H 0.1121 0.2491 0.2699
H9 H 0.1975 0.3520 0.2615
C10 C 0.4406(7) 0.2708(3) 0.30548(13)
H10 H 0.4985 0.2076 0.3022
H11 H 0.5634 0.3140 0.2997
C11 C 0.3691(6) 0.2847(3) 0.36207(13)
H12 H 0.3129 0.3481 0.3654
H13 H 0.2448 0.2420 0.3676
C12 C 0.5909(6) 0.1909(2) 0.43528(12)
H14 H 0.4913 0.1401 0.4329
C13 C 0.8796(6) 0.2809(2) 0.45947(12)
C14 C 0.7437(6) 0.3276(2) 0.41831(13)
C15 C 1.0788(6) 0.3221(3) 0.48346(14)
H15 H 1.1715 0.2917 0.5107
C16 C 1.1339(7) 0.4096(3) 0.46539(17)
H16 H 1.2659 0.4389 0.4810
C17 C 0.9971(8) 0.4557(3) 0.42420(16)
H17 H 1.0392 0.5150 0.4132
C18 C 0.8008(8) 0.4149(2) 0.39953(15)
H18 H 0.7110 0.4448 0.3715
Cu1B Cu 1.09096(6) -0.09131(2) 0.482770(13)
Cu1C Cu -0.09096(6) 0.40869(2) 0.017230(13)
O1B O 0.8692(3) 0.00392(14) 0.45567(8)
N2C N 0.9659(4) 0.17186(18) 0.58411(10)
O3 O 0.4437(13) 0.0024(5) 0.7271(3)
O4 O 0.6349(14) -0.0009(8) 0.6676(2)
O5 O 0.7698(15) 0.0053(7) 0.7449(4)
N5 N 0.6301(8) 0.0048(3) 0.71048(18)
O6 O 1.0868(8) -0.0820(3) 0.64842(14)
H19 H 1.1026 -0.0594 0.6171
H20 H 1.1571 -0.0462 0.6720
loop_
_geom_bond_atom_site_label_1
_geom_bond_atom_site_label_2
_geom_bond_site_symmetry_1
_geom_bond_site_symmetry_2
Cu1 O1 1_555 1_555
N1 C4 1_555 1_555
C1 H1 1_555 1_555
O1 Cu1B 1_555 1_555
N2 C5 1_555 1_555
C2 C1 1_555 1_555
H2 C2 1_555 1_555
O2 Cu1 1_555 1_555
N3 C11 1_555 1_555
C3 C2 1_555 1_555
H3 C3 1_555 1_555
C4 C3 1_555 1_555
N4 Cu1 1_555 1_555
C5 C4 1_555 1_555
C6 C1 1_555 1_555
H4 C6 1_555 1_555
C7 N1 1_555 1_555
H5 C7 1_555 1_555
C8 N1 1_555 1_555
H6 C8 1_555 1_555
H7 C8 1_555 1_555
C9 C8 1_555 1_555
H8 C9 1_555 1_555
H9 C9 1_555 1_555
C10 C9 1_555 1_555
H10 C10 1_555 1_555
H11 C10 1_555 1_555
C11 C10 1_555 1_555
H12 C11 1_555 1_555
H13 C11 1_555 1_555
C12 N3 1_555 1_555
H14 C12 1_555 1_555
C13 N4 1_555 1_555
C14 N3 1_555 1_555
C15 C13 1_555 1_555
H15 C15 1_555 1_555
C16 C15 1_555 1_555
H16 C16 1_555 1_555
C17 C16 1_555 1_555
H17 C17 1_555 1_555
C18 C14 1_555 1_555
H18 C18 1_555 1_555
O3 N5 1_555 1_555
O4 N5 1_555 1_555
O5 N5 1_555 1_555
O6 H19 1_555 1_555
H20 O6 1_555 1_555
Cu1B O1B 1_555 1_555
Cu1C N2 1_555 1_555
O1B Cu1 1_555 1_555
N2C Cu1 1_555 1_555
N2 C7 1_555 1_555
N4 C12 1_555 1_555
C5 C6 1_555 1_555
C13 C14 1_555 1_555
C17 C18 1_555 1_555

#END
