
#######################################################################
#
#                 Cambridge Crystallographic Data Centre
#                                CCDC 
#
#######################################################################
#
# If this CIF has been generated from an entry in the Cambridge 
# Structural Database, then it will include bibliographic, chemical, 
# crystal, experimental, refinement or atomic coordinate data resulting 
# from the CCDC's data processing and validation procedures.
#
#######################################################################

data_EGASEM
_symmetry_cell_setting           monoclinic
_symmetry_space_group_name_H-M   'P 21/n'
_symmetry_Int_Tables_number      14
_space_group_name_Hall           '-P 2yn'
loop_
_symmetry_equiv_pos_site_id
_symmetry_equiv_pos_as_xyz
1 x,y,z
2 1/2-x,1/2+y,1/2-z
3 -x,-y,-z
4 1/2+x,1/2-y,1/2+z
_cell_length_a                   12.5921(17)
_cell_length_b                   10.7571(14)
_cell_length_c                   19.818(3)
_cell_angle_alpha                90
_cell_angle_beta                 93.110(3)
_cell_angle_gamma                90
_cell_volume                     2680.48
loop_
_atom_site_label
_atom_site_type_symbol
_atom_site_fract_x
_atom_site_fract_y
_atom_site_fract_z
Co1 Co 0.71556(8) 0.22804(10) -0.07212(5)
N1 N 0.5984(5) 0.2918(6) -0.0122(3)
O1 O 0.8006(6) 0.3953(7) -0.0957(3)
C1 C 0.4964(6) 0.2828(8) -0.0309(4)
H1 H 0.4715 0.2425 -0.0702
N2 N 0.4322(5) 0.3372(7) 0.0119(3)
O2 O 0.8458(6) 0.2245(8) -0.1437(3)
C2 C 0.4945(6) 0.3866(7) 0.0638(4)
N3 N -0.0208(5) 0.1235(6) 0.0552(3)
C3 C 0.5995(6) 0.3573(7) 0.0487(4)
O3 O 0.8581(5) 0.5583(6) -0.3930(3)
N4 N -0.1790(5) 0.1616(6) 0.0035(3)
O4 O 0.8938(6) 0.7257(7) -0.3371(3)
C4 C 0.6832(7) 0.3950(9) 0.0915(4)
H2 H 0.7531 0.3755 0.0830
C5 C 0.6582(8) 0.4637(10) 0.1484(5)
H3 H 0.7129 0.4911 0.1781
C6 C 0.5544(9) 0.4920(11) 0.1615(5)
H4 H 0.5417 0.5375 0.2002
C7 C 0.4703(8) 0.4566(9) 0.1207(4)
H5 H 0.4008 0.4772 0.1298
C8 C 0.3143(6) 0.3355(9) 0.0047(4)
H6 H 0.2923 0.3243 -0.0425
H7 H 0.2873 0.4152 0.0191
C9 C 0.2669(6) 0.2346(8) 0.0453(4)
H8 H 0.2782 0.2531 0.0930
H9 H 0.3019 0.1564 0.0364
C10 C 0.1481(6) 0.2223(8) 0.0275(4)
H10 H 0.1148 0.3031 0.0318
H11 H 0.1377 0.1964 -0.0193
C11 C 0.0940(6) 0.1303(8) 0.0717(4)
H12 H 0.1252 0.0487 0.0662
H13 H 0.1061 0.1544 0.1187
C12 C -0.0778(6) 0.1832(8) 0.0056(4)
H14 H -0.0467 0.2359 -0.0248
C13 C -0.1936(6) 0.0783(8) 0.0562(4)
C14 C -0.0917(6) 0.0524(8) 0.0894(4)
C15 C -0.0816(7) -0.0295(9) 0.1424(4)
H15 H -0.0156 -0.0475 0.1635
C16 C -0.1737(8) -0.0842(9) 0.1629(4)
H16 H -0.1697 -0.1393 0.1991
C17 C -0.2725(7) -0.0587(10) 0.1307(5)
H17 H -0.3326 -0.0973 0.1462
C18 C -0.2840(6) 0.0218(8) 0.0769(4)
H18 H -0.3502 0.0373 0.0554
C19 C 0.8514(7) 0.3406(12) -0.1377(5)
C20 C 0.9269(7) 0.4053(10) -0.1849(5)
C21 C 0.8702(8) 0.4894(12) -0.2346(6)
C22 C 0.7647(7) 0.4617(12) -0.2586(5)
H19 H 0.7404 0.5240 -0.2905
H20 H 0.7191 0.4604 -0.2214
H21 H 0.7633 0.3818 -0.2803
C23 C 0.8637(19) 0.5958(18) -0.1899(11)
H22 H 0.8276 0.6627 -0.2136
H23 H 0.9341 0.6219 -0.1753
H24 H 0.8251 0.5731 -0.1513
C24 C 0.9484(7) 0.5360(9) -0.2825(4)
H25 H 1.0075 0.5810 -0.2594
C25 C 0.8986(7) 0.6084(9) -0.3414(4)
C26 C 0.9838(12) 0.3902(14) -0.3063(7)
H26 H 0.9404 0.3617 -0.3452
H27 H 1.0582 0.3865 -0.3165
C27 C 0.9626(12) 0.3160(13) -0.2440(7)
H28 H 1.0264 0.2712 -0.2289
H29 H 0.9069 0.2556 -0.2546
C28 C 1.0308(11) 0.414(2) -0.1550(9)
H30 H 1.0309 0.4678 -0.1165
H31 H 1.0777 0.4463 -0.1872
H32 H 1.0547 0.3325 -0.1408
Co1_2 Co -0.28444(8) 0.22804(10) -0.07212(5)
Co1A Co 0.78444(8) 0.72804(10) -0.42788(5)
O3A O 0.6419(5) 0.0583(6) -0.1070(3)
N4_2 N 0.8210(5) 0.1616(6) 0.0035(3)
O4A O 0.6062(6) 0.2257(7) -0.1629(3)
loop_
_geom_bond_atom_site_label_1
_geom_bond_atom_site_label_2
_geom_bond_site_symmetry_1
_geom_bond_site_symmetry_2
Co1 N1 1_555 1_555
N1 C1 1_555 1_555
O1 Co1 1_555 1_555
C1 H1 1_555 1_555
N2 C1 1_555 1_555
O2 Co1 1_555 1_555
C2 N2 1_555 1_555
N3 C11 1_555 1_555
C3 N1 1_555 1_555
O3 C25 1_555 1_555
N4 C12 1_555 1_555
O4 C25 1_555 1_555
C4 C3 1_555 1_555
H2 C4 1_555 1_555
C5 C4 1_555 1_555
H3 C5 1_555 1_555
C6 C5 1_555 1_555
H4 C6 1_555 1_555
C7 C2 1_555 1_555
H5 C7 1_555 1_555
C8 N2 1_555 1_555
H6 C8 1_555 1_555
H7 C8 1_555 1_555
C9 C8 1_555 1_555
H8 C9 1_555 1_555
H9 C9 1_555 1_555
C10 C9 1_555 1_555
H10 C10 1_555 1_555
H11 C10 1_555 1_555
C11 C10 1_555 1_555
H12 C11 1_555 1_555
H13 C11 1_555 1_555
C12 N3 1_555 1_555
H14 C12 1_555 1_555
C13 N4 1_555 1_555
C14 N3 1_555 1_555
C15 C14 1_555 1_555
H15 C15 1_555 1_555
C16 C15 1_555 1_555
H16 C16 1_555 1_555
C17 C16 1_555 1_555
H17 C17 1_555 1_555
C18 C13 1_555 1_555
H18 C18 1_555 1_555
C19 O1 1_555 1_555
C20 C19 1_555 1_555
C21 C20 1_555 1_555
C22 C21 1_555 1_555
H19 C22 1_555 1_555
H20 C22 1_555 1_555
H21 C22 1_555 1_555
C23 C21 1_555 1_555
H22 C23 1_555 1_555
H23 C23 1_555 1_555
H24 C23 1_555 1_555
C24 C21 1_555 1_555
H25 C24 1_555 1_555
C25 C24 1_555 1_555
C26 C24 1_555 1_555
H26 C26 1_555 1_555
H27 C26 1_555 1_555
C27 C20 1_555 1_555
H28 C27 1_555 1_555
H29 C27 1_555 1_555
C28 C20 1_555 1_555
H30 C28 1_555 1_555
H31 C28 1_555 1_555
H32 C28 1_555 1_555
Co1_2 N4 1_555 1_555
Co1A O3 1_555 1_555
O3A Co1 1_555 1_555
N4_2 Co1 1_555 1_555
O4A Co1 1_555 1_555
O2 C19 1_555 1_555
C2 C3 1_555 1_555
O4 Co1A 1_555 1_555
C6 C7 1_555 1_555
C13 C14 1_555 1_555
C17 C18 1_555 1_555
C26 C27 1_555 1_555

#END
