
#######################################################################
#
#                 Cambridge Crystallographic Data Centre
#                                CCDC 
#
#######################################################################
#
# If this CIF has been generated from an entry in the Cambridge 
# Structural Database, then it will include bibliographic, chemical, 
# crystal, experimental, refinement or atomic coordinate data resulting 
# from the CCDC's data processing and validation procedures.
#
#######################################################################

data_EGASIO
_symmetry_cell_setting           tetragonal
_symmetry_space_group_name_H-M   'P 4/n c c'
_symmetry_Int_Tables_number      130
_space_group_name_Hall           '-P 4a 2ac'
loop_
_symmetry_equiv_pos_site_id
_symmetry_equiv_pos_as_xyz
1 x,y,z
2 1/2-y,x,z
3 y,1/2-x,z
4 1/2+y,1/2+x,1/2-z
5 1/2-x,1/2-y,z
6 -x,1/2+y,1/2-z
7 1/2+x,-y,1/2-z
8 -y,-x,1/2-z
9 -x,-y,-z
10 1/2+y,-x,-z
11 -y,1/2+x,-z
12 1/2-y,1/2-x,1/2+z
13 1/2+x,1/2+y,-z
14 x,1/2-y,1/2+z
15 1/2-x,y,1/2+z
16 y,x,1/2+z
_cell_length_a                   15.702(5)
_cell_length_b                   15.702(5)
_cell_length_c                   9.745(5)
_cell_angle_alpha                90
_cell_angle_beta                 90
_cell_angle_gamma                90
_cell_volume                     2402.66
loop_
_atom_site_label
_atom_site_type_symbol
_atom_site_fract_x
_atom_site_fract_y
_atom_site_fract_z
V1 V 0.7500 0.7500 0.05035(11)
O1 O 0.7500 0.7500 0.2125(5)
O2 O 0.74377(16) 0.86972(15) -0.0120(3)
O3 O 0.86300(18) 0.94008(18) 0.0448(2)
C1 C 0.8048(2) 0.9218(2) -0.0332(3)
C2 C 0.7935(2) 0.9640(2) -0.1741(3)
H1 H 0.7392 0.9920 -0.1760
H2 H 0.7927 0.9204 -0.2432
N1 N 0.86139(17) 1.02811(17) -0.2112(3)
C3 C 0.8604(2) 1.1055(2) -0.1176(3)
H3 H 0.8587 1.0878 -0.0234
H4 H 0.8106 1.1391 -0.1359
C4 C 0.8421(2) 1.0599(2) -0.3556(3)
H5 H 0.7826 1.0726 -0.3639
H6 H 0.8562 1.0168 -0.4217
C5 C 0.9502(2) 0.9900(2) -0.2101(4)
H7 H 0.9493 0.9352 -0.2539
H8 H 0.9697 0.9826 -0.1175
C4G C 0.9401(2) 1.1579(2) -0.1444(3)
N1G N 0.97189(17) 1.13861(17) -0.2888(3)
C2G C 1.0360(2) 1.2065(2) -0.3259(3)
C1G C 1.0782(2) 1.1952(2) -0.4668(3)
O2G O 1.13028(15) 1.25623(16) -0.4880(3)
O3G O 1.05992(18) 1.13700(18) -0.5448(2)
H1G H 1.0080 1.2608 -0.3240
H2G H 1.0796 1.2073 -0.2568
C3G C 0.8945(2) 1.1396(2) -0.3824(3)
H3G H 0.9122 1.1413 -0.4766
H4G H 0.8609 1.1894 -0.3641
C5G C 1.0100(2) 1.0498(2) -0.2899(4)
H7G H 1.0648 1.0507 -0.2461
H8G H 1.0174 1.0303 -0.3825
H5G H 0.9274 1.2174 -0.1361
H6G H 0.9832 1.1438 -0.0783
O2A O 0.63028(15) 0.74377(16) -0.0120(3)
O3A O 0.55992(18) 0.86300(18) 0.0448(2)
C1A C 0.5782(2) 0.8048(2) -0.0332(3)
C2A C 0.5360(2) 0.7935(2) -0.1741(3)
H1A H 0.5080 0.7392 -0.1760
H2A H 0.5796 0.7927 -0.2432
N1A N 0.47189(17) 0.86139(17) -0.2112(3)
C3A C 0.3945(2) 0.8604(2) -0.1176(3)
H3A H 0.4122 0.8587 -0.0234
H4A H 0.3609 0.8106 -0.1359
C4A C 0.4401(2) 0.8421(2) -0.3556(3)
H5A H 0.4274 0.7826 -0.3639
H6A H 0.4832 0.8562 -0.4217
C5A C 0.5100(2) 0.9502(2) -0.2101(4)
H7A H 0.5648 0.9493 -0.2539
H8A H 0.5174 0.9697 -0.1175
C4F C 0.3421(2) 0.9401(2) -0.1444(3)
N1F N 0.36139(17) 0.97189(17) -0.2888(3)
C2F C 0.2935(2) 1.0360(2) -0.3259(3)
C1F C 0.3048(2) 1.0782(2) -0.4668(3)
O2F O 0.24377(16) 1.13028(15) -0.4880(3)
O3F O 0.36300(18) 1.05992(18) -0.5448(2)
H1F H 0.2392 1.0080 -0.3240
H2F H 0.2927 1.0796 -0.2568
C3F C 0.3604(2) 0.8945(2) -0.3824(3)
H3F H 0.3587 0.9122 -0.4766
H4F H 0.3106 0.8609 -0.3641
C5F C 0.4502(2) 1.0100(2) -0.2899(4)
H7F H 0.4493 1.0648 -0.2461
H8F H 0.4697 1.0174 -0.3825
H5F H 0.2826 0.9274 -0.1361
H6F H 0.3562 0.9832 -0.0783
O2B O 0.86972(15) 0.75623(16) -0.0120(3)
O2D O 0.75623(16) 0.63028(15) -0.0120(3)
V1C V 1.2500 1.2500 -0.55035(11)
V1C_2 V 0.2500 1.2500 -0.55035(11)
Cl1 Cl 0.63703(7) 1.13703(7) -0.2500
loop_
_geom_bond_atom_site_label_1
_geom_bond_atom_site_label_2
_geom_bond_site_symmetry_1
_geom_bond_site_symmetry_2
V1 O1 1_555 1_555
O2 V1 1_555 1_555
O3 C1 1_555 1_555
C1 O2 1_555 1_555
C2 C1 1_555 1_555
H1 C2 1_555 1_555
H2 C2 1_555 1_555
N1 C2 1_555 1_555
C3 N1 1_555 1_555
H3 C3 1_555 1_555
H4 C3 1_555 1_555
C4 N1 1_555 1_555
H5 C4 1_555 1_555
H6 C4 1_555 1_555
C5 N1 1_555 1_555
H7 C5 1_555 1_555
H8 C5 1_555 1_555
C4G C3 1_555 1_555
N1G C4G 1_555 1_555
C2G N1G 1_555 1_555
C1G C2G 1_555 1_555
O2G C1G 1_555 1_555
O3G C1G 1_555 1_555
H1G C2G 1_555 1_555
H2G C2G 1_555 1_555
C3G C4 1_555 1_555
H3G C3G 1_555 1_555
H4G C3G 1_555 1_555
C5G C5 1_555 1_555
H7G C5G 1_555 1_555
H8G C5G 1_555 1_555
H5G C4G 1_555 1_555
H6G C4G 1_555 1_555
O2A V1 1_555 1_555
O3A C1A 1_555 1_555
C1A O2A 1_555 1_555
C2A C1A 1_555 1_555
H1A C2A 1_555 1_555
H2A C2A 1_555 1_555
N1A C2A 1_555 1_555
C3A N1A 1_555 1_555
H3A C3A 1_555 1_555
H4A C3A 1_555 1_555
C4A N1A 1_555 1_555
H5A C4A 1_555 1_555
H6A C4A 1_555 1_555
C5A N1A 1_555 1_555
H7A C5A 1_555 1_555
H8A C5A 1_555 1_555
C4F C3A 1_555 1_555
N1F C4F 1_555 1_555
C2F N1F 1_555 1_555
C1F C2F 1_555 1_555
O2F C1F 1_555 1_555
O3F C1F 1_555 1_555
H1F C2F 1_555 1_555
H2F C2F 1_555 1_555
C3F C4A 1_555 1_555
H3F C3F 1_555 1_555
H4F C3F 1_555 1_555
C5F C5A 1_555 1_555
H7F C5F 1_555 1_555
H8F C5F 1_555 1_555
H5F C4F 1_555 1_555
H6F C4F 1_555 1_555
O2B V1 1_555 1_555
O2D V1 1_555 1_555
V1C O2G 1_555 1_555
V1C_2 O2F 1_555 1_555
N1G C3G 1_555 1_555
N1G C5G 1_555 1_555
N1F C3F 1_555 1_555
N1F C5F 1_555 1_555

#END
