
#######################################################################
#
#                 Cambridge Crystallographic Data Centre
#                                CCDC 
#
#######################################################################
#
# If this CIF has been generated from an entry in the Cambridge 
# Structural Database, then it will include bibliographic, chemical, 
# crystal, experimental, refinement or atomic coordinate data resulting 
# from the CCDC's data processing and validation procedures.
#
#######################################################################

data_EGASOU
_symmetry_cell_setting           tetragonal
_symmetry_space_group_name_H-M   'P 4/n c c'
_symmetry_Int_Tables_number      130
_space_group_name_Hall           '-P 4a 2ac'
loop_
_symmetry_equiv_pos_site_id
_symmetry_equiv_pos_as_xyz
1 x,y,z
2 1/2-y,x,z
3 y,1/2-x,z
4 1/2+y,1/2+x,1/2-z
5 1/2-x,1/2-y,z
6 -x,1/2+y,1/2-z
7 1/2+x,-y,1/2-z
8 -y,-x,1/2-z
9 -x,-y,-z
10 1/2+y,-x,-z
11 -y,1/2+x,-z
12 1/2-y,1/2-x,1/2+z
13 1/2+x,1/2+y,-z
14 x,1/2-y,1/2+z
15 1/2-x,y,1/2+z
16 y,x,1/2+z
_cell_length_a                   15.916(7)
_cell_length_b                   15.916(7)
_cell_length_c                   9.820(4)
_cell_angle_alpha                90
_cell_angle_beta                 90
_cell_angle_gamma                90
_cell_volume                     2487.59
loop_
_atom_site_label
_atom_site_type_symbol
_atom_site_fract_x
_atom_site_fract_y
_atom_site_fract_z
V1 V 0.7500 0.7500 0.04336(17)
O1 O 0.7500 0.7500 0.2034(8)
O2 O 0.7465(2) 0.86742(19) -0.0196(4)
O3 O 0.8648(2) 0.9357(2) 0.0395(4)
C1 C 0.8076(3) 0.9189(3) -0.0393(6)
C2 C 0.7994(3) 0.9607(3) -0.1778(5)
H1 H 0.7456 0.9878 -0.1813
H2 H 0.7996 0.9177 -0.2464
N1 N 0.8655(2) 1.0248(2) -0.2130(4)
C3 C 0.8630(3) 1.1004(3) -0.1200(5)
H3 H 0.8743 1.0828 -0.0283
H4 H 0.8082 1.1253 -0.1244
C4 C 0.8479(3) 1.0573(3) -0.3566(5)
H5 H 0.8497 1.0110 -0.4192
H6 H 0.7932 1.0826 -0.3590
C5 C 0.9531(3) 0.9877(3) -0.2127(5)
H7 H 0.9659 0.9674 -0.1230
H8 H 0.9549 0.9419 -0.2762
C4G C 0.9427(3) 1.1521(3) -0.1434(5)
N1G N 0.9752(2) 1.1345(2) -0.2870(4)
C2G C 1.0393(3) 1.2006(3) -0.3222(5)
C1G C 1.0811(3) 1.1924(3) -0.4607(6)
O2G O 1.13258(19) 1.2535(2) -0.4804(4)
O3G O 1.0643(2) 1.1352(2) -0.5395(4)
H1G H 1.0122 1.2544 -0.3187
H2G H 1.0823 1.2004 -0.2536
C3G C 0.8996(3) 1.1370(3) -0.3800(5)
H3G H 0.9172 1.1257 -0.4717
H4G H 0.8747 1.1918 -0.3756
C5G C 1.0123(3) 1.0469(3) -0.2873(5)
H7G H 1.0326 1.0341 -0.3770
H8G H 1.0581 1.0451 -0.2238
H5G H 0.9890 1.1503 -0.0808
H6G H 0.9174 1.2068 -0.1410
O2A O 0.63258(19) 0.7465(2) -0.0196(4)
O3A O 0.5643(2) 0.8648(2) 0.0395(4)
C1A C 0.5811(3) 0.8076(3) -0.0393(6)
C2A C 0.5393(3) 0.7994(3) -0.1778(5)
H1A H 0.5122 0.7456 -0.1813
H2A H 0.5823 0.7996 -0.2464
N1A N 0.4752(2) 0.8655(2) -0.2130(4)
C3A C 0.3996(3) 0.8630(3) -0.1200(5)
H3A H 0.4172 0.8743 -0.0283
H4A H 0.3747 0.8082 -0.1244
C4A C 0.4427(3) 0.8479(3) -0.3566(5)
H5A H 0.4890 0.8497 -0.4192
H6A H 0.4174 0.7932 -0.3590
C5A C 0.5123(3) 0.9531(3) -0.2127(5)
H7A H 0.5326 0.9659 -0.1230
H8A H 0.5581 0.9549 -0.2762
C4F C 0.3479(3) 0.9427(3) -0.1434(5)
N1F N 0.3655(2) 0.9752(2) -0.2870(4)
C2F C 0.2994(3) 1.0393(3) -0.3222(5)
C1F C 0.3076(3) 1.0811(3) -0.4607(6)
O2F O 0.2465(2) 1.13258(19) -0.4804(4)
O3F O 0.3648(2) 1.0643(2) -0.5395(4)
H1F H 0.2456 1.0122 -0.3187
H2F H 0.2996 1.0823 -0.2536
C3F C 0.3630(3) 0.8996(3) -0.3800(5)
H3F H 0.3743 0.9172 -0.4717
H4F H 0.3082 0.8747 -0.3756
C5F C 0.4531(3) 1.0123(3) -0.2873(5)
H7F H 0.4659 1.0326 -0.3770
H8F H 0.4549 1.0581 -0.2238
H5F H 0.3497 0.9890 -0.0808
H6F H 0.2932 0.9174 -0.1410
O2B O 0.86742(19) 0.7535(2) -0.0196(4)
O2D O 0.7535(2) 0.63258(19) -0.0196(4)
V1C V 1.2500 1.2500 -0.54336(17)
V1C_2 V 0.2500 1.2500 -0.54336(17)
Br1 Br 0.63828(4) 1.13828(4) -0.2500
loop_
_geom_bond_atom_site_label_1
_geom_bond_atom_site_label_2
_geom_bond_site_symmetry_1
_geom_bond_site_symmetry_2
V1 O1 1_555 1_555
O2 V1 1_555 1_555
O3 C1 1_555 1_555
C1 O2 1_555 1_555
C2 C1 1_555 1_555
H1 C2 1_555 1_555
H2 C2 1_555 1_555
N1 C2 1_555 1_555
C3 N1 1_555 1_555
H3 C3 1_555 1_555
H4 C3 1_555 1_555
C4 N1 1_555 1_555
H5 C4 1_555 1_555
H6 C4 1_555 1_555
C5 N1 1_555 1_555
H7 C5 1_555 1_555
H8 C5 1_555 1_555
C4G C3 1_555 1_555
N1G C4G 1_555 1_555
C2G N1G 1_555 1_555
C1G C2G 1_555 1_555
O2G C1G 1_555 1_555
O3G C1G 1_555 1_555
H1G C2G 1_555 1_555
H2G C2G 1_555 1_555
C3G C4 1_555 1_555
H3G C3G 1_555 1_555
H4G C3G 1_555 1_555
C5G C5 1_555 1_555
H7G C5G 1_555 1_555
H8G C5G 1_555 1_555
H5G C4G 1_555 1_555
H6G C4G 1_555 1_555
O2A V1 1_555 1_555
O3A C1A 1_555 1_555
C1A O2A 1_555 1_555
C2A C1A 1_555 1_555
H1A C2A 1_555 1_555
H2A C2A 1_555 1_555
N1A C2A 1_555 1_555
C3A N1A 1_555 1_555
H3A C3A 1_555 1_555
H4A C3A 1_555 1_555
C4A N1A 1_555 1_555
H5A C4A 1_555 1_555
H6A C4A 1_555 1_555
C5A N1A 1_555 1_555
H7A C5A 1_555 1_555
H8A C5A 1_555 1_555
C4F C3A 1_555 1_555
N1F C4F 1_555 1_555
C2F N1F 1_555 1_555
C1F C2F 1_555 1_555
O2F C1F 1_555 1_555
O3F C1F 1_555 1_555
H1F C2F 1_555 1_555
H2F C2F 1_555 1_555
C3F C4A 1_555 1_555
H3F C3F 1_555 1_555
H4F C3F 1_555 1_555
C5F C5A 1_555 1_555
H7F C5F 1_555 1_555
H8F C5F 1_555 1_555
H5F C4F 1_555 1_555
H6F C4F 1_555 1_555
O2B V1 1_555 1_555
O2D V1 1_555 1_555
V1C O2G 1_555 1_555
V1C_2 O2F 1_555 1_555
N1G C3G 1_555 1_555
N1G C5G 1_555 1_555
N1F C3F 1_555 1_555
N1F C5F 1_555 1_555

#END
