
#######################################################################
#
#                 Cambridge Crystallographic Data Centre
#                                CCDC 
#
#######################################################################
#
# If this CIF has been generated from an entry in the Cambridge 
# Structural Database, then it will include bibliographic, chemical, 
# crystal, experimental, refinement or atomic coordinate data resulting 
# from the CCDC's data processing and validation procedures.
#
#######################################################################

data_EGASUA
_symmetry_cell_setting           monoclinic
_symmetry_space_group_name_H-M   'C 2/c'
_symmetry_Int_Tables_number      15
_space_group_name_Hall           '-C 2yn'
loop_
_symmetry_equiv_pos_site_id
_symmetry_equiv_pos_as_xyz
1 x,y,z
2 1/2+x,1/2+y,z
3 -x,y,1/2-z
4 1/2-x,1/2+y,1/2-z
5 -x,-y,-z
6 1/2-x,1/2-y,-z
7 x,-y,1/2+z
8 1/2+x,1/2-y,1/2+z
_cell_length_a                   15.4718(8)
_cell_length_b                   13.2535(6)
_cell_length_c                   19.2782(10)
_cell_angle_alpha                90
_cell_angle_beta                 93.773(2)
_cell_angle_gamma                90
_cell_volume                     3944.53
loop_
_atom_site_label
_atom_site_type_symbol
_atom_site_fract_x
_atom_site_fract_y
_atom_site_fract_z
Cu1 Cu 0.2500 0.7500 0.5000
Cu2 Cu 0.39255(3) 0.82042(3) 0.26694(2)
O1 O 0.45614(16) 0.84239(18) 0.18483(13)
O2 O 0.32666(19) 0.8542(2) 0.13044(14)
N1 N 0.38458(18) 0.6707(2) 0.25879(14)
N2 N 0.33437(19) 0.7940(2) 0.35059(16)
N3 N 0.36613(19) 0.9623(2) 0.29175(15)
N4 N 0.2900(2) 0.6670(3) 0.42439(19)
N5 N 0.2805(2) 0.8697(3) 0.44839(19)
C1 C 0.4080(3) 0.6138(3) 0.2059(2)
C2 C 0.4002(3) 0.5104(3) 0.2052(2)
C3 C 0.3681(3) 0.4646(3) 0.2613(2)
C4 C 0.3422(3) 0.5218(3) 0.3164(2)
C5 C 0.3507(2) 0.6254(3) 0.31337(19)
C6 C 0.3221(2) 0.6963(3) 0.36832(19)
C7 C 0.3123(2) 0.8751(3) 0.38878(19)
C8 C 0.3284(2) 0.9718(3) 0.35204(19)
C9 C 0.3044(3) 1.0655(3) 0.3759(2)
C10 C 0.3185(3) 1.1491(4) 0.3360(3)
C11 C 0.3570(3) 1.1391(3) 0.2752(2)
C12 C 0.3799(3) 1.0460(3) 0.2542(2)
C13 C 0.4067(3) 0.8602(3) 0.1304(2)
C14 C 0.4498(4) 0.8907(5) 0.0664(3)
H1 H 0.425(2) 0.648(3) 0.1643(19)
H2 H 0.419(3) 0.473(3) 0.163(2)
H3 H 0.357(3) 0.397(3) 0.261(2)
H4 H 0.322(2) 0.491(3) 0.3598(19)
H5 H 0.289(3) 0.619(3) 0.429(3)
H6 H 0.278(3) 0.908(3) 0.466(3)
H7 H 0.285(2) 1.069(3) 0.4127(19)
H8 H 0.305(2) 1.191(2) 0.3476(17)
H9 H 0.369(2) 1.193(3) 0.248(2)
H10 H 0.404(2) 1.039(3) 0.2167(18)
H11 H 0.471(3) 0.951(4) 0.075(3)
H12 H 0.420(3) 0.878(4) 0.031(3)
H13 H 0.498(4) 0.851(4) 0.061(3)
N1E N 0.11542(18) 0.8293(2) 0.74121(14)
N2E N 0.16563(19) 0.7060(2) 0.64941(16)
N3E N 0.13387(19) 0.5377(2) 0.70825(15)
N4E N 0.2100(2) 0.8330(3) 0.57561(19)
N5E N 0.2195(2) 0.6303(3) 0.55161(19)
C1E C 0.0920(3) 0.8862(3) 0.7941(2)
C2E C 0.0998(3) 0.9896(3) 0.7948(2)
C3E C 0.1319(3) 1.0354(3) 0.7387(2)
C4E C 0.1578(3) 0.9782(3) 0.6836(2)
C5E C 0.1493(2) 0.8746(3) 0.68663(19)
C6E C 0.1779(2) 0.8037(3) 0.63168(19)
C7E C 0.1877(2) 0.6249(3) 0.61122(19)
C8E C 0.1716(2) 0.5282(3) 0.64796(19)
C9E C 0.1956(3) 0.4345(3) 0.6241(2)
C10E C 0.1815(3) 0.3509(4) 0.6640(3)
C11E C 0.1430(3) 0.3609(3) 0.7248(2)
C12E C 0.1201(3) 0.4540(3) 0.7458(2)
H1E H 0.075(2) 0.852(3) 0.8357(19)
H2E H 0.081(3) 1.027(3) 0.837(2)
H3E H 0.143(3) 1.103(3) 0.739(2)
H4E H 0.178(2) 1.009(3) 0.6402(19)
H5E H 0.211(3) 0.881(3) 0.571(3)
H6E H 0.222(3) 0.592(3) 0.534(3)
H7E H 0.215(2) 0.431(3) 0.5873(19)
H8E H 0.195(2) 0.309(2) 0.6524(17)
H9E H 0.131(2) 0.307(3) 0.752(2)
H10E H 0.096(2) 0.461(3) 0.7833(18)
Cu2E Cu 0.10745(3) 0.67958(3) 0.73306(2)
O1B O 0.54386(16) 0.84239(18) 0.31517(13)
O2B O 0.67334(19) 0.8542(2) 0.36956(14)
C13B C 0.5933(3) 0.8602(3) 0.3696(2)
C14B C 0.5502(4) 0.8907(5) 0.4336(3)
H11B H 0.529(3) 0.951(4) 0.425(3)
H12B H 0.580(3) 0.878(4) 0.469(3)
H13B H 0.502(4) 0.851(4) 0.439(3)
Cu2B Cu 0.60745(3) 0.82042(3) 0.23306(2)
O1G O -0.04386(16) 0.65761(18) 0.68483(13)
O1E O 0.04386(16) 0.65761(18) 0.81517(13)
Cl1 Cl 0.04833(8) 0.75036(8) 0.39513(6)
O3 O -0.0248(3) 0.8040(3) 0.3727(2)
O4 O 0.0740(3) 0.7697(3) 0.46455(19)
O5 O 0.0382(3) 0.6449(2) 0.3843(2)
O6 O 0.1195(3) 0.7863(3) 0.3550(2)
C15 C 0.3331(8) 0.3658(11) 0.4921(5)
O7 O 0.2748(2) 0.4405(2) 0.47033(16)
O8 O 0.4415(11) 0.3815(8) 0.5348(7)
O9? O 0.4894(17) 0.4741(11) 0.5248(8)
loop_
_geom_bond_atom_site_label_1
_geom_bond_atom_site_label_2
_geom_bond_site_symmetry_1
_geom_bond_site_symmetry_2
Cu1 N4 1_555 1_555
Cu2 O1 1_555 1_555
O1 C13 1_555 1_555
O2 C13 1_555 1_555
N1 Cu2 1_555 1_555
N2 Cu2 1_555 1_555
N3 Cu2 1_555 1_555
N4 C6 1_555 1_555
N5 Cu1 1_555 1_555
C1 N1 1_555 1_555
C2 C1 1_555 1_555
C3 C2 1_555 1_555
C4 C3 1_555 1_555
C5 N1 1_555 1_555
C6 N2 1_555 1_555
C7 N2 1_555 1_555
C8 N3 1_555 1_555
C9 C8 1_555 1_555
C10 C9 1_555 1_555
C11 C10 1_555 1_555
C12 N3 1_555 1_555
C13 C14 1_555 1_555
C14 H11 1_555 1_555
H1 C1 1_555 1_555
H2 C2 1_555 1_555
H3 C3 1_555 1_555
H4 C4 1_555 1_555
H5 N4 1_555 1_555
H6 N5 1_555 1_555
H7 C9 1_555 1_555
H8 C10 1_555 1_555
H9 C11 1_555 1_555
H10 C12 1_555 1_555
H12 C14 1_555 1_555
H13 C14 1_555 1_555
Cl1 O3 1_555 1_555
O4 Cl1 1_555 1_555
O5 Cl1 1_555 1_555
O6 Cl1 1_555 1_555
C15 O7 1_555 1_555
N1E C1E 1_555 1_555
N2E C6E 1_555 1_555
N3E C8E 1_555 1_555
N4E Cu1 1_555 1_555
N5E Cu1 1_555 1_555
C1E C2E 1_555 1_555
C2E C3E 1_555 1_555
C3E C4E 1_555 1_555
C4E C5E 1_555 1_555
C5E N1E 1_555 1_555
C6E N4E 1_555 1_555
C7E N2E 1_555 1_555
C8E C7E 1_555 1_555
C9E C8E 1_555 1_555
C10E C9E 1_555 1_555
C11E C10E 1_555 1_555
C12E N3E 1_555 1_555
H1E C1E 1_555 1_555
H2E C2E 1_555 1_555
H3E C3E 1_555 1_555
H4E C4E 1_555 1_555
H5E N4E 1_555 1_555
H6E N5E 1_555 1_555
H7E C9E 1_555 1_555
H8E C10E 1_555 1_555
H9E C11E 1_555 1_555
H10E C12E 1_555 1_555
Cu2E N1E 1_555 1_555
O1B Cu2 1_555 1_555
O2B C13B 1_555 1_555
C13B O1B 1_555 1_555
C14B C13B 1_555 1_555
H11B C14B 1_555 1_555
H12B C14B 1_555 1_555
H13B C14B 1_555 1_555
Cu2B O1 1_555 1_555
O1G Cu2E 1_555 1_555
O1E Cu2E 1_555 1_555
N5 C7 1_555 1_555
C4 C5 1_555 1_555
C5 C6 1_555 1_555
C7 C8 1_555 1_555
C11 C12 1_555 1_555
N2E Cu2E 1_555 1_555
N3E Cu2E 1_555 1_555
N5E C7E 1_555 1_555
C5E C6E 1_555 1_555
C11E C12E 1_555 1_555
O1B Cu2B 1_555 1_555

#END
