
#######################################################################
#
#                 Cambridge Crystallographic Data Centre
#                                CCDC 
#
#######################################################################
#
# If this CIF has been generated from an entry in the Cambridge 
# Structural Database, then it will include bibliographic, chemical, 
# crystal, experimental, refinement or atomic coordinate data resulting 
# from the CCDC's data processing and validation procedures.
#
#######################################################################

data_EGASIQ
_symmetry_cell_setting           monoclinic
_symmetry_space_group_name_H-M   'P 21'
_symmetry_Int_Tables_number      4
_space_group_name_Hall           'P 2yb'
loop_
_symmetry_equiv_pos_site_id
_symmetry_equiv_pos_as_xyz
1 x,y,z
2 -x,1/2+y,-z
_cell_length_a                   12.4597(9)
_cell_length_b                   11.0092(8)
_cell_length_c                   19.7403(14)
_cell_angle_alpha                90
_cell_angle_beta                 93.2260(10)
_cell_angle_gamma                90
_cell_volume                     2703.51
loop_
_atom_site_label
_atom_site_type_symbol
_atom_site_fract_x
_atom_site_fract_y
_atom_site_fract_z
C1 C 0.2417(5) 0.5741(9) 0.2183(3)
H1 H 0.2169 0.6130 0.1787
C2 C 0.3471(5) 0.4981(8) 0.2984(3)
C3 C 0.4324(6) 0.4574(10) 0.3426(4)
H2 H 0.5033 0.4773 0.3350
C4 C 0.4087(7) 0.3899(10) 0.3952(4)
H3 H 0.4646 0.3581 0.4229
C5 C 0.3025(6) 0.3643(11) 0.4110(4)
H4 H 0.2903 0.3215 0.4505
C6 C 0.2164(7) 0.4009(10) 0.3698(4)
H5 H 0.1461 0.3806 0.3787
C7 C 0.2406(6) 0.4698(8) 0.3142(3)
C8 C 0.0575(5) 0.5222(8) 0.2563(4)
H6 H 0.0299 0.4443 0.2703
H7 H 0.0342 0.5349 0.2091
C9 C 0.0127(4) 0.6210(9) 0.2987(3)
H8 H 0.0490 0.6970 0.2904
H9 H 0.0245 0.6011 0.3464
C10 C -0.1094(4) 0.6347(9) 0.2807(3)
H10 H -0.1202 0.6600 0.2337
H11 H -0.1442 0.5565 0.2854
C11 C -0.1594(5) 0.7245(8) 0.3249(3)
H12 H -0.1243 0.8025 0.3207
H13 H -0.1500 0.6986 0.3718
C12 C -0.3512(5) 0.8071(8) 0.3391(3)
C13 C -0.3387(6) 0.8842(8) 0.3935(3)
H14 H -0.2719 0.8978 0.4156
C14 C -0.4302(6) 0.9404(9) 0.4136(4)
H15 H -0.4258 0.9952 0.4495
C15 C -0.5302(6) 0.9155(10) 0.3802(4)
H16 H -0.5909 0.9502 0.3975
C16 C -0.5445(6) 0.8429(9) 0.3235(4)
H17 H -0.6110 0.8327 0.3005
C17 C -0.4503(5) 0.7851(8) 0.3030(3)
C18 C -0.3318(5) 0.6784(8) 0.2527(4)
H18 H -0.3010 0.6270 0.2219
C19 C 0.2936(6) 0.8183(9) 0.0271(3)
H19 H 0.2386 0.8723 0.0440
C20 C 0.2412(12) 0.7391(14) -0.0277(5)
H20 H 0.1635 0.7418 -0.0266
H21 H 0.2649 0.6555 -0.0227
C21 C 0.2796(13) 0.7958(16) -0.0950(6)
H22 H 0.3359 0.7462 -0.1127
H23 H 0.2201 0.7996 -0.1288
C22 C 0.3204(5) 0.9188(7) -0.0796(3)
C23 C 0.3739(7) 0.8953(11) -0.0086(4)
C24 C 0.3459(11) 0.7419(15) 0.0904(6)
C25 C 0.3962(7) 0.9660(10) -0.1295(4)
C26 C 0.2278(10) 0.9939(19) -0.0809(7)
H24 H 0.2428 1.0692 -0.1030
H25 H 0.2088 1.0098 -0.0353
H26 H 0.1693 0.9536 -0.1053
C27 C 0.4816(10) 0.8536(18) -0.0095(7)
H27 H 0.5152 0.8567 0.0355
H28 H 0.5202 0.9050 -0.0390
H29 H 0.4825 0.7716 -0.0260
C28 C 0.3935(14) 1.0077(17) 0.0305(7)
H30 H 0.3394 1.0147 0.0631
H31 H 0.3886 1.0757 0.0001
H32 H 0.4633 1.0066 0.0537
N1 N 0.3432(4) 0.5642(8) 0.2378(3)
N2 N 0.1758(4) 0.5206(7) 0.2630(3)
N3 N -0.2765(3) 0.7371(6) 0.3056(2)
N4 N -0.4359(4) 0.7060(6) 0.2522(3)
O1 O 0.3899(7) 0.7877(10) 0.1334(4)
O2 O 0.3404(9) 0.6356(14) 0.0812(5)
O3 O 0.4320(7) 1.0685(11) -0.1202(4)
O4 O 0.4166(9) 0.9107(11) -0.1773(5)
Zn1 Zn 0.45941(5) 0.62992(6) 0.17980(3)
N4_2 N 0.5641(4) 0.7060(6) 0.2522(3)
O3A O 0.5680(7) 0.5685(11) 0.1202(4)
Zn1_2 Zn -0.54059(5) 0.62992(6) 0.17980(3)
Zn1A Zn 0.54059(5) 1.12992(6) -0.17980(3)
C29 C 0.2586(5) 1.1408(8) 0.2837(3)
H33 H 0.2838 1.1014 0.3232
C30 C 0.2574(5) 1.2445(7) 0.1907(3)
C31 C 0.2809(6) 1.3117(9) 0.1350(3)
H34 H 0.3513 1.3297 0.1252
C32 C 0.1933(7) 1.3515(11) 0.0937(4)
H35 H 0.2048 1.4029 0.0574
C33 C 0.0902(7) 1.3160(10) 0.1057(4)
H36 H 0.0346 1.3357 0.0742
C34 C 0.0665(6) 1.2514(8) 0.1639(4)
H37 H -0.0039 1.2347 0.1742
C35 C 0.1529(5) 1.2137(8) 0.2050(3)
C36 C 0.4398(4) 1.1900(8) 0.2480(3)
H38 H 0.4636 1.1743 0.2948
H39 H 0.4674 1.2689 0.2357
C37 C 0.4862(5) 1.0955(8) 0.2039(3)
H40 H 0.4753 1.1190 0.1566
H41 H 0.4499 1.0186 0.2100
C38 C 0.6047(5) 1.0812(9) 0.2219(3)
H42 H 0.6143 1.0520 0.2682
H43 H 0.6388 1.1602 0.2199
C39 C 0.6611(4) 0.9935(8) 0.1750(3)
H44 H 0.6273 0.9144 0.1774
H45 H 0.6508 1.0223 0.1287
C40 C 0.8324(4) 1.0352(7) 0.2419(3)
H46 H 0.8019 1.0896 0.2713
C41 C 0.9470(5) 0.9257(8) 0.1914(3)
C42 C 1.0336(6) 0.8682(10) 0.1677(4)
H47 H 1.1015 0.8827 0.1881
C43 C 1.0227(7) 0.7907(9) 0.1153(4)
H48 H 1.0815 0.7476 0.1011
C44 C 0.9222(7) 0.7763(10) 0.0828(4)
H49 H 0.9159 0.7253 0.0452
C45 C 0.8315(6) 0.8331(9) 0.1028(4)
H50 H 0.7650 0.8212 0.0800
C46 C 0.8435(5) 0.9090(8) 0.1586(3)
C47 C 1.2020(5) 0.8604(9) 0.4631(3)
H51 H 1.2667 0.8971 0.4850
C48 C 1.2332(5) 0.7331(7) 0.4380(3)
H52 H 1.1897 0.7108 0.3976
H53 H 1.3084 0.7307 0.4278
C49 C 1.2114(7) 0.6472(8) 0.4974(4)
H54 H 1.2755 0.6011 0.5106
H55 H 1.1542 0.5907 0.4842
C50 C 1.1771(5) 0.7307(7) 0.5586(3)
C51 C 1.1224(5) 0.8362(7) 0.5190(3)
C52 C 1.1027(6) 0.6640(10) 0.6054(4)
C53 C 1.2784(6) 0.7597(13) 0.5996(5)
H56 H 1.3287 0.7973 0.5711
H57 H 1.3089 0.6862 0.6185
H58 H 1.2626 0.8143 0.6357
C54 C 1.1594(5) 0.9452(9) 0.4115(4)
C55 C 1.0139(5) 0.7945(9) 0.4878(3)
H59 H 1.0248 0.7334 0.4542
H60 H 0.9768 0.8625 0.4669
H61 H 0.9717 0.7615 0.5226
C56 C 1.1047(8) 0.9542(8) 0.5599(4)
H62 H 1.0780 1.0169 0.5296
H63 H 1.1717 0.9797 0.5818
H64 H 1.0535 0.9392 0.5934
N5 N 0.1548(4) 1.1473(7) 0.2648(3)
N6 N 0.3227(4) 1.1937(6) 0.2427(3)
N7 N 0.9341(4) 1.0073(7) 0.2469(3)
N8 N 0.7751(4) 0.9802(7) 0.1915(3)
O5 O 1.0468(4) 0.7170(7) 0.6448(3)
O6 O 1.1011(5) 0.5444(7) 0.6012(3)
O7 O 1.1068(3) 0.9142(6) 0.3588(2)
O8 O 1.1770(6) 1.0613(8) 0.4186(3)
Zn2 Zn 1.04110(5) 1.06987(6) 0.32116(3)
N5_2 N 1.1548(4) 1.1473(7) 0.2648(3)
O5A O 0.9532(4) 1.2170(7) 0.3552(3)
O6A O 0.8989(5) 1.0444(7) 0.3988(3)
Zn2_2 Zn 0.04110(5) 1.06987(6) 0.32116(3)
Zn2A Zn 0.95890(5) 0.56987(6) 0.67884(3)
loop_
_geom_bond_atom_site_label_1
_geom_bond_atom_site_label_2
_geom_bond_site_symmetry_1
_geom_bond_site_symmetry_2
C1 H1 1_555 1_555
C2 C3 1_555 1_555
C3 H2 1_555 1_555
C4 C3 1_555 1_555
H3 C4 1_555 1_555
C5 C4 1_555 1_555
H4 C5 1_555 1_555
C6 C5 1_555 1_555
H5 C6 1_555 1_555
C7 C2 1_555 1_555
C8 H6 1_555 1_555
H7 C8 1_555 1_555
C9 C8 1_555 1_555
H8 C9 1_555 1_555
H9 C9 1_555 1_555
C10 C9 1_555 1_555
H10 C10 1_555 1_555
H11 C10 1_555 1_555
C11 C10 1_555 1_555
H12 C11 1_555 1_555
H13 C11 1_555 1_555
C12 C13 1_555 1_555
C13 H14 1_555 1_555
C14 C13 1_555 1_555
H15 C14 1_555 1_555
C15 C14 1_555 1_555
H16 C15 1_555 1_555
C16 C15 1_555 1_555
H17 C16 1_555 1_555
C17 C12 1_555 1_555
C18 H18 1_555 1_555
C19 H19 1_555 1_555
C20 C19 1_555 1_555
H20 C20 1_555 1_555
H21 C20 1_555 1_555
C21 C20 1_555 1_555
H22 C21 1_555 1_555
H23 C21 1_555 1_555
C22 C21 1_555 1_555
C23 C19 1_555 1_555
C24 C19 1_555 1_555
C25 C22 1_555 1_555
C26 C22 1_555 1_555
H24 C26 1_555 1_555
H25 C26 1_555 1_555
H26 C26 1_555 1_555
C27 C23 1_555 1_555
H27 C27 1_555 1_555
H28 C27 1_555 1_555
H29 C27 1_555 1_555
C28 C23 1_555 1_555
H30 C28 1_555 1_555
H31 C28 1_555 1_555
H32 C28 1_555 1_555
N1 C1 1_555 1_555
N2 C1 1_555 1_555
N3 C11 1_555 1_555
N4 C17 1_555 1_555
O1 C24 1_555 1_555
O2 C24 1_555 1_555
O3 C25 1_555 1_555
O4 C25 1_555 1_555
Zn1 N1 1_555 1_555
C29 H33 1_555 1_555
C30 C31 1_555 1_555
C31 H34 1_555 1_555
C32 C31 1_555 1_555
H35 C32 1_555 1_555
C33 C32 1_555 1_555
H36 C33 1_555 1_555
C34 C33 1_555 1_555
H37 C34 1_555 1_555
C35 C30 1_555 1_555
C36 H38 1_555 1_555
H39 C36 1_555 1_555
C37 C36 1_555 1_555
H40 C37 1_555 1_555
H41 C37 1_555 1_555
C38 C37 1_555 1_555
H42 C38 1_555 1_555
H43 C38 1_555 1_555
C39 C38 1_555 1_555
H44 C39 1_555 1_555
H45 C39 1_555 1_555
C40 H46 1_555 1_555
C41 C42 1_555 1_555
C42 H47 1_555 1_555
C43 C42 1_555 1_555
H48 C43 1_555 1_555
C44 C43 1_555 1_555
H49 C44 1_555 1_555
C45 C44 1_555 1_555
H50 C45 1_555 1_555
C46 C41 1_555 1_555
C47 H51 1_555 1_555
C48 C47 1_555 1_555
H52 C48 1_555 1_555
H53 C48 1_555 1_555
C49 C48 1_555 1_555
H54 C49 1_555 1_555
H55 C49 1_555 1_555
C50 C49 1_555 1_555
C51 C47 1_555 1_555
C52 C50 1_555 1_555
C53 C50 1_555 1_555
H56 C53 1_555 1_555
H57 C53 1_555 1_555
H58 C53 1_555 1_555
C54 C47 1_555 1_555
C55 C51 1_555 1_555
H59 C55 1_555 1_555
H60 C55 1_555 1_555
H61 C55 1_555 1_555
C56 C51 1_555 1_555
H62 C56 1_555 1_555
H63 C56 1_555 1_555
H64 C56 1_555 1_555
N5 C29 1_555 1_555
N6 C29 1_555 1_555
N7 C40 1_555 1_555
N8 C39 1_555 1_555
O5 C52 1_555 1_555
O6 C52 1_555 1_555
O7 C54 1_555 1_555
O8 C54 1_555 1_555
Zn2 N7 1_555 1_555
N4_2 Zn1 1_555 1_555
O3A Zn1 1_555 1_555
Zn1_2 N4 1_555 1_555
Zn1A O3 1_555 1_555
N5_2 Zn2 1_555 1_555
O5A Zn2 1_555 1_555
O6A Zn2 1_555 1_555
Zn2_2 N5 1_555 1_555
Zn2A O5 1_555 1_555
C2 N1 1_555 1_555
C6 C7 1_555 1_555
C7 N2 1_555 1_555
C8 N2 1_555 1_555
C12 N3 1_555 1_555
C16 C17 1_555 1_555
C18 N3 1_555 1_555
C18 N4 1_555 1_555
C22 C23 1_555 1_555
O1 Zn1 1_555 1_555
O2 Zn1 1_555 1_555
C30 N6 1_555 1_555
C34 C35 1_555 1_555
C35 N5 1_555 1_555
C36 N6 1_555 1_555
C40 N8 1_555 1_555
C41 N7 1_555 1_555
C45 C46 1_555 1_555
C46 N8 1_555 1_555
C50 C51 1_555 1_555
O6 Zn2A 1_555 1_555
O7 Zn2 1_555 1_555
O8 Zn2 1_555 1_555

#END
