
#######################################################################
#
#                 Cambridge Crystallographic Data Centre
#                                CCDC 
#
#######################################################################
#
# If this CIF has been generated from an entry in the Cambridge 
# Structural Database, then it will include bibliographic, chemical, 
# crystal, experimental, refinement or atomic coordinate data resulting 
# from the CCDC's data processing and validation procedures.
#
#######################################################################

data_EGATAJ
_symmetry_cell_setting           triclinic
_symmetry_space_group_name_H-M   'P -1'
_symmetry_Int_Tables_number      2
_space_group_name_Hall           '-P 1'
loop_
_symmetry_equiv_pos_site_id
_symmetry_equiv_pos_as_xyz
1 x,y,z
2 -x,-y,-z
_cell_length_a                   7.1491(7)
_cell_length_b                   8.9173(8)
_cell_length_c                   10.2615(10)
_cell_angle_alpha                75.6260(10)
_cell_angle_beta                 88.3190(10)
_cell_angle_gamma                88.8140(10)
_cell_volume                     633.366
loop_
_atom_site_label
_atom_site_type_symbol
_atom_site_fract_x
_atom_site_fract_y
_atom_site_fract_z
Mn1 Mn 0.0000 0.0000 0.5000
O1 O 0.25939(18) 0.54371(14) -0.08961(12)
O2 O 0.21557(17) -0.15037(13) 0.47095(12)
O3 O 0.28352(18) -0.16999(14) 0.26250(12)
N1 N 0.1601(2) 0.21931(16) 0.37675(14)
N2 N 0.2382(2) 0.72962(16) 0.02914(14)
H1 H 0.2460 0.7420 0.1113
N3 N 0.1431(2) 0.99929(16) -0.29965(14)
C1 C 0.0853(2) 0.36069(19) 0.36555(17)
H2 H 0.0097 0.3780 0.4383
C2 C 0.1120(2) 0.48246(19) 0.25441(17)
H3 H 0.0555 0.5807 0.2510
C3 C 0.2227(2) 0.45958(19) 0.14758(17)
C4 C 0.3060(2) 0.3154(2) 0.15953(17)
H4 H 0.3849 0.2962 0.0892
C5 C 0.2729(2) 0.1998(2) 0.27499(18)
H5 H 0.3328 0.1020 0.2828
C6 C 0.2432(2) 0.5812(2) 0.01723(18)
C7 C 0.2219(2) 0.86621(19) -0.07474(17)
C8 C 0.2471(3) 1.0072(2) -0.04306(18)
H6 H 0.2805 1.0104 0.0451
C9 C 0.1715(2) 1.1336(2) -0.26793(18)
H7 H 0.1556 1.2271 -0.3354
C10 C 0.2228(3) 1.1422(2) -0.14164(18)
H8 H 0.2412 1.2399 -0.1228
C11 C 0.1713(2) 0.8679(2) -0.20450(17)
H9 H 0.1558 0.7718 -0.2270
C12 C 0.2940(2) -0.21564(19) 0.38698(18)
C13 C 0.4040(2) -0.36100(19) 0.44620(17)
C14 C 0.5055(2) -0.43668(19) 0.36269(17)
H10 H 0.5102 -0.3932 0.2683
C15 C 0.5992(2) -0.57408(19) 0.41598(17)
H11 H 0.6667 -0.6248 0.3577
O2A O 0.78443(17) -0.84963(13) 0.52905(12)
O3A O 0.71648(18) -0.83001(14) 0.73750(12)
C12A C 0.7060(2) -0.78436(19) 0.61302(18)
C13A C 0.5960(2) -0.63900(19) 0.55380(17)
C14A C 0.4945(2) -0.56332(19) 0.63731(17)
H10A H 0.4898 -0.6068 0.7317
C15A C 0.4008(2) -0.42592(19) 0.58402(17)
H11A H 0.3333 -0.3752 0.6423
O1A O -0.25939(18) -0.54371(14) 1.08961(12)
N1A N -0.1601(2) -0.21931(16) 0.62325(14)
N2A N -0.2382(2) -0.72962(16) 0.97086(14)
H1A H -0.2460 -0.7420 0.8887
N3A N -0.1431(2) -0.99929(16) 1.29965(14)
C1A C -0.0853(2) -0.36069(19) 0.63445(17)
H2A H -0.0097 -0.3780 0.5617
C2A C -0.1120(2) -0.48246(19) 0.74559(17)
H3A H -0.0555 -0.5807 0.7490
C3A C -0.2227(2) -0.45958(19) 0.85242(17)
C4A C -0.3060(2) -0.3154(2) 0.84047(17)
H4A H -0.3849 -0.2962 0.9108
C5A C -0.2729(2) -0.1998(2) 0.72501(18)
H5A H -0.3328 -0.1020 0.7172
C6A C -0.2432(2) -0.5812(2) 0.98277(18)
C7A C -0.2219(2) -0.86621(19) 1.07474(17)
C8A C -0.2471(3) -1.0072(2) 1.04306(18)
H6A H -0.2805 -1.0104 0.9549
C9A C -0.1715(2) -1.1336(2) 1.26793(18)
H7A H -0.1556 -1.2271 1.3354
C10A C -0.2228(3) -1.1422(2) 1.14164(18)
H8A H -0.2412 -1.2399 1.1228
C11A C -0.1713(2) -0.8679(2) 1.20450(17)
H9A H -0.1558 -0.7718 1.2270
Mn1_2 Mn 0.0000 -1.0000 1.5000
Mn1_3 Mn 0.0000 1.0000 -0.5000
Mn1_4 Mn 1.0000 -1.0000 0.5000
O2A_2 O -0.21557(17) 0.15037(13) 0.52905(12)
N3_2 N 0.1431(2) -0.00071(16) 0.70035(14)
N3A_2 N -0.1431(2) 0.00071(16) 0.29965(14)
loop_
_geom_bond_atom_site_label_1
_geom_bond_atom_site_label_2
_geom_bond_site_symmetry_1
_geom_bond_site_symmetry_2
Mn1 O2 1_555 1_555
O1 C6 1_555 1_555
O2 C12 1_555 1_555
O3 C12 1_555 1_555
N1 Mn1 1_555 1_555
N2 H1 1_555 1_555
N3 C9 1_555 1_555
C1 N1 1_555 1_555
H2 C1 1_555 1_555
C2 C1 1_555 1_555
H3 C2 1_555 1_555
C3 C2 1_555 1_555
C4 C3 1_555 1_555
H4 C4 1_555 1_555
C5 N1 1_555 1_555
H5 C5 1_555 1_555
C6 N2 1_555 1_555
C7 N2 1_555 1_555
C8 C7 1_555 1_555
H6 C8 1_555 1_555
C9 H7 1_555 1_555
C10 C8 1_555 1_555
H8 C10 1_555 1_555
C11 N3 1_555 1_555
H9 C11 1_555 1_555
C12 C13 1_555 1_555
C13 C14 1_555 1_555
C14 H10 1_555 1_555
C15 C14 1_555 1_555
H11 C15 1_555 1_555
O2A C12A 1_555 1_555
O3A C12A 1_555 1_555
C12A C13A 1_555 1_555
C13A C15 1_555 1_555
C14A C13A 1_555 1_555
H10A C14A 1_555 1_555
C15A C13 1_555 1_555
H11A C15A 1_555 1_555
O1A C6A 1_555 1_555
N1A Mn1 1_555 1_555
N2A H1A 1_555 1_555
N3A C9A 1_555 1_555
C1A N1A 1_555 1_555
H2A C1A 1_555 1_555
C2A C1A 1_555 1_555
H3A C2A 1_555 1_555
C3A C2A 1_555 1_555
C4A C3A 1_555 1_555
H4A C4A 1_555 1_555
C5A N1A 1_555 1_555
H5A C5A 1_555 1_555
C6A N2A 1_555 1_555
C7A N2A 1_555 1_555
C8A C7A 1_555 1_555
H6A C8A 1_555 1_555
C9A H7A 1_555 1_555
C10A C8A 1_555 1_555
H8A C10A 1_555 1_555
C11A N3A 1_555 1_555
H9A C11A 1_555 1_555
Mn1_2 N3A 1_555 1_555
Mn1_3 N3 1_555 1_555
Mn1_4 O2A 1_555 1_555
O2A_2 Mn1 1_555 1_555
N3_2 Mn1 1_555 1_555
N3A_2 Mn1 1_555 1_555
C3 C6 1_555 1_555
C4 C5 1_555 1_555
C7 C11 1_555 1_555
C9 C10 1_555 1_555
C14A C15A 1_555 1_555
C3A C6A 1_555 1_555
C4A C5A 1_555 1_555
C7A C11A 1_555 1_555
C9A C10A 1_555 1_555

#END
