
#######################################################################
#
#                 Cambridge Crystallographic Data Centre
#                                CCDC 
#
#######################################################################
#
# If this CIF has been generated from an entry in the Cambridge 
# Structural Database, then it will include bibliographic, chemical, 
# crystal, experimental, refinement or atomic coordinate data resulting 
# from the CCDC's data processing and validation procedures.
#
#######################################################################

data_EGATUC
_symmetry_cell_setting           cubic
_symmetry_space_group_name_H-M   'P -4 3 n'
_symmetry_Int_Tables_number      218
_space_group_name_Hall           'P -4n 2 3'
loop_
_symmetry_equiv_pos_site_id
_symmetry_equiv_pos_as_xyz
1 x,y,z
2 -x,-y,z
3 -x,y,-z
4 x,-y,-z
5 z,x,y
6 z,-x,-y
7 -z,-x,y
8 -z,x,-y
9 y,z,x
10 -y,z,-x
11 y,-z,-x
12 -y,-z,x
13 1/2+y,1/2+x,1/2+z
14 1/2-y,1/2-x,1/2+z
15 1/2+y,1/2-x,1/2-z
16 1/2-y,1/2+x,1/2-z
17 1/2+x,1/2+z,1/2+y
18 1/2-x,1/2+z,1/2-y
19 1/2-x,1/2-z,1/2+y
20 1/2+x,1/2-z,1/2-y
21 1/2+z,1/2+y,1/2+x
22 1/2+z,1/2-y,1/2-x
23 1/2-z,1/2+y,1/2-x
24 1/2-z,1/2-y,1/2+x
_cell_length_a                   17.3240(8)
_cell_length_b                   17.3240(8)
_cell_length_c                   17.3240(8)
_cell_angle_alpha                90
_cell_angle_beta                 90
_cell_angle_gamma                90
_cell_volume                     5199.3
loop_
_atom_site_label
_atom_site_type_symbol
_atom_site_fract_x
_atom_site_fract_y
_atom_site_fract_z
I1 I 0.24119(4) 0.24119(4) 0.24119(4)
I2 I 0.14487(4) 0.19855(3) -0.00051(5)
I3 I 0.0000 0.0000 0.0000
Cu1 Cu 0.24423(10) 0.15148(12) 0.12181(11)
Cu2 Cu 0.09146(14) 0.09146(14) 0.09146(14)
N1 N 0.3415(5) 0.1400(5) 0.0590(6)
N2 N 0.3340(5) 0.1061(6) -0.0112(6)
H1 H 0.2910 0.0925 -0.0320
C1 C 0.4157(6) 0.1525(6) 0.0705(7)
C2 C 0.4436(7) 0.1925(8) 0.1423(7)
H2 H 0.4238 0.2443 0.1435
H3 H 0.4990 0.1940 0.1424
H4 H 0.4258 0.1649 0.1869
C3 C 0.4591(5) 0.1264(5) 0.0060(8)
C4 C 0.4034(6) 0.0972(6) -0.0431(7)
C5 C 0.4097(9) 0.0540(8) -0.1231(9)
H5 H 0.4182 0.0000 -0.1143
H6 H 0.4520 0.0749 -0.1521
H7 H 0.3626 0.0609 -0.1515
I1A I -0.24119(4) -0.24119(4) 0.24119(4)
I1B I -0.24119(4) 0.24119(4) -0.24119(4)
I1C I 0.24119(4) -0.24119(4) -0.24119(4)
I2D I -0.00051(5) 0.14487(4) 0.19855(3)
I2H I 0.19855(3) -0.00051(5) 0.14487(4)
I2A I -0.14487(4) -0.19855(3) -0.00051(5)
I2F I 0.00051(5) -0.14487(4) 0.19855(3)
I2K I -0.19855(3) 0.00051(5) 0.14487(4)
I2B I -0.14487(4) 0.19855(3) 0.00051(5)
I2G I 0.00051(5) 0.14487(4) -0.19855(3)
I2I I -0.19855(3) -0.00051(5) -0.14487(4)
I2C I 0.14487(4) -0.19855(3) 0.00051(5)
I2E I -0.00051(5) -0.14487(4) -0.19855(3)
I2J I 0.19855(3) 0.00051(5) -0.14487(4)
Cu1D Cu 0.12181(11) 0.24423(10) 0.15148(12)
Cu1H Cu 0.15148(12) 0.12181(11) 0.24423(10)
Cu1A Cu -0.24423(10) -0.15148(12) 0.12181(11)
Cu1F Cu -0.12181(11) -0.24423(10) 0.15148(12)
Cu1K Cu -0.15148(12) -0.12181(11) 0.24423(10)
Cu1B Cu -0.24423(10) 0.15148(12) -0.12181(11)
Cu1G Cu -0.12181(11) 0.24423(10) -0.15148(12)
Cu1I Cu -0.15148(12) 0.12181(11) -0.24423(10)
Cu1C Cu 0.24423(10) -0.15148(12) -0.12181(11)
Cu1E Cu 0.12181(11) -0.24423(10) -0.15148(12)
Cu1J Cu 0.15148(12) -0.12181(11) -0.24423(10)
Cu1B_2 Cu 0.75577(10) 0.15148(12) -0.12181(11)
Cu1F_2 Cu -0.12181(11) 0.75577(10) 0.15148(12)
Cu1J_2 Cu 0.15148(12) -0.12181(11) 0.75577(10)
Cu1C_2 Cu -0.75577(10) -0.15148(12) -0.12181(11)
Cu1D_2 Cu 0.12181(11) -0.75577(10) 0.15148(12)
Cu1I_2 Cu -0.15148(12) 0.12181(11) 0.75577(10)
Cu2A Cu -0.09146(14) -0.09146(14) 0.09146(14)
Cu2B Cu -0.09146(14) 0.09146(14) -0.09146(14)
Cu2C Cu 0.09146(14) -0.09146(14) -0.09146(14)
N1B N 0.6585(5) 0.1400(5) -0.0590(6)
N1D N 0.0590(6) 0.3415(5) 0.1400(5)
N1F N -0.0590(6) 0.6585(5) 0.1400(5)
N1H N 0.1400(5) 0.0590(6) 0.3415(5)
N1J N 0.1400(5) -0.0590(6) 0.6585(5)
N1A N -0.3415(5) -0.1400(5) 0.0590(6)
N1C N -0.6585(5) -0.1400(5) -0.0590(6)
N1F_2 N -0.0590(6) -0.3415(5) 0.1400(5)
N1D_2 N 0.0590(6) -0.6585(5) 0.1400(5)
N1K N -0.1400(5) -0.0590(6) 0.3415(5)
N1I N -0.1400(5) 0.0590(6) 0.6585(5)
N1B_2 N -0.3415(5) 0.1400(5) -0.0590(6)
N1G N -0.0590(6) 0.3415(5) -0.1400(5)
N1I_2 N -0.1400(5) 0.0590(6) -0.3415(5)
N1C_2 N 0.3415(5) -0.1400(5) -0.0590(6)
N1E N 0.0590(6) -0.3415(5) -0.1400(5)
N1J_2 N 0.1400(5) -0.0590(6) -0.3415(5)
N2B N 0.6660(5) 0.1061(6) 0.0112(6)
N2D N -0.0112(6) 0.3340(5) 0.1061(6)
N2F N 0.0112(6) 0.6660(5) 0.1061(6)
N2H N 0.1061(6) -0.0112(6) 0.3340(5)
N2J N 0.1061(6) 0.0112(6) 0.6660(5)
N2A N -0.3340(5) -0.1061(6) -0.0112(6)
N2C N -0.6660(5) -0.1061(6) 0.0112(6)
N2F_2 N 0.0112(6) -0.3340(5) 0.1061(6)
N2D_2 N -0.0112(6) -0.6660(5) 0.1061(6)
N2K N -0.1061(6) 0.0112(6) 0.3340(5)
N2I N -0.1061(6) -0.0112(6) 0.6660(5)
H1B H 0.7090 0.0925 0.0320
H1D H -0.0320 0.2910 0.0925
H1F H 0.0320 0.7090 0.0925
H1H H 0.0925 -0.0320 0.2910
H1J H 0.0925 0.0320 0.7090
H1A H -0.2910 -0.0925 -0.0320
H1C H -0.7090 -0.0925 0.0320
H1F_2 H 0.0320 -0.2910 0.0925
H1D_2 H -0.0320 -0.7090 0.0925
H1K H -0.0925 0.0320 0.2910
H1I H -0.0925 -0.0320 0.7090
C1B C 0.5843(6) 0.1525(6) -0.0705(7)
C1D C 0.0705(7) 0.4157(6) 0.1525(6)
C1F C -0.0705(7) 0.5843(6) 0.1525(6)
C1H C 0.1525(6) 0.0705(7) 0.4157(6)
C1J C 0.1525(6) -0.0705(7) 0.5843(6)
C1A C -0.4157(6) -0.1525(6) 0.0705(7)
C1C C -0.5843(6) -0.1525(6) -0.0705(7)
C1F_2 C -0.0705(7) -0.4157(6) 0.1525(6)
C1D_2 C 0.0705(7) -0.5843(6) 0.1525(6)
C1K C -0.1525(6) -0.0705(7) 0.4157(6)
C1I C -0.1525(6) 0.0705(7) 0.5843(6)
C2B C 0.5564(7) 0.1925(8) -0.1423(7)
C2D C 0.1423(7) 0.4436(7) 0.1925(8)
C2F C -0.1423(7) 0.5564(7) 0.1925(8)
C2H C 0.1925(8) 0.1423(7) 0.4436(7)
C2J C 0.1925(8) -0.1423(7) 0.5564(7)
C2A C -0.4436(7) -0.1925(8) 0.1423(7)
C2C C -0.5564(7) -0.1925(8) -0.1423(7)
C2F_2 C -0.1423(7) -0.4436(7) 0.1925(8)
C2D_2 C 0.1423(7) -0.5564(7) 0.1925(8)
C2K C -0.1925(8) -0.1423(7) 0.4436(7)
C2I C -0.1925(8) 0.1423(7) 0.5564(7)
H2B H 0.5762 0.2443 -0.1435
H2D H 0.1435 0.4238 0.2443
H2F H -0.1435 0.5762 0.2443
H2H H 0.2443 0.1435 0.4238
H2J H 0.2443 -0.1435 0.5762
H2A H -0.4238 -0.2443 0.1435
H2C H -0.5762 -0.2443 -0.1435
H2F_2 H -0.1435 -0.4238 0.2443
H2D_2 H 0.1435 -0.5762 0.2443
H2K H -0.2443 -0.1435 0.4238
H2I H -0.2443 0.1435 0.5762
H3B H 0.5010 0.1940 -0.1424
H3D H 0.1424 0.4990 0.1940
H3F H -0.1424 0.5010 0.1940
H3H H 0.1940 0.1424 0.4990
H3J H 0.1940 -0.1424 0.5010
H3A H -0.4990 -0.1940 0.1424
H3C H -0.5010 -0.1940 -0.1424
H3F_2 H -0.1424 -0.4990 0.1940
H3D_2 H 0.1424 -0.5010 0.1940
H3K H -0.1940 -0.1424 0.4990
H3I H -0.1940 0.1424 0.5010
H4B H 0.5742 0.1649 -0.1869
H4D H 0.1869 0.4258 0.1649
H4F H -0.1869 0.5742 0.1649
H4H H 0.1649 0.1869 0.4258
H4J H 0.1649 -0.1869 0.5742
H4A H -0.4258 -0.1649 0.1869
H4C H -0.5742 -0.1649 -0.1869
H4F_2 H -0.1869 -0.4258 0.1649
H4D_2 H 0.1869 -0.5742 0.1649
H4K H -0.1649 -0.1869 0.4258
H4I H -0.1649 0.1869 0.5742
C3B C 0.5409(5) 0.1264(5) -0.0060(8)
C3D C 0.0060(8) 0.4591(5) 0.1264(5)
C3F C -0.0060(8) 0.5409(5) 0.1264(5)
C3H C 0.1264(5) 0.0060(8) 0.4591(5)
C3J C 0.1264(5) -0.0060(8) 0.5409(5)
C3A C -0.4591(5) -0.1264(5) 0.0060(8)
C3C C -0.5409(5) -0.1264(5) -0.0060(8)
C3F_2 C -0.0060(8) -0.4591(5) 0.1264(5)
C3D_2 C 0.0060(8) -0.5409(5) 0.1264(5)
C3K C -0.1264(5) -0.0060(8) 0.4591(5)
C3I C -0.1264(5) 0.0060(8) 0.5409(5)
C4B C 0.5966(6) 0.0972(6) 0.0431(7)
C4D C -0.0431(7) 0.4034(6) 0.0972(6)
C4F C 0.0431(7) 0.5966(6) 0.0972(6)
C4H C 0.0972(6) -0.0431(7) 0.4034(6)
C4J C 0.0972(6) 0.0431(7) 0.5966(6)
C4A C -0.4034(6) -0.0972(6) -0.0431(7)
C4C C -0.5966(6) -0.0972(6) 0.0431(7)
C4F_2 C 0.0431(7) -0.4034(6) 0.0972(6)
C4D_2 C -0.0431(7) -0.5966(6) 0.0972(6)
C4K C -0.0972(6) 0.0431(7) 0.4034(6)
C4I C -0.0972(6) -0.0431(7) 0.5966(6)
C5B C 0.5903(9) 0.0540(8) 0.1231(9)
C5D C -0.1231(9) 0.4097(9) 0.0540(8)
C5F C 0.1231(9) 0.5903(9) 0.0540(8)
C5H C 0.0540(8) -0.1231(9) 0.4097(9)
C5J C 0.0540(8) 0.1231(9) 0.5903(9)
C5A C -0.4097(9) -0.0540(8) -0.1231(9)
C5C C -0.5903(9) -0.0540(8) 0.1231(9)
C5F_2 C 0.1231(9) -0.4097(9) 0.0540(8)
C5D_2 C -0.1231(9) -0.5903(9) 0.0540(8)
C5K C -0.0540(8) 0.1231(9) 0.4097(9)
C5I C -0.0540(8) -0.1231(9) 0.5903(9)
H5B H 0.5818 0.0000 0.1143
H5D H -0.1143 0.4182 0.0000
H5F H 0.1143 0.5818 0.0000
H5H H 0.0000 -0.1143 0.4182
H5J H 0.0000 0.1143 0.5818
H5A H -0.4182 0.0000 -0.1143
H5C H -0.5818 0.0000 0.1143
H5F_2 H 0.1143 -0.4182 0.0000
H5D_2 H -0.1143 -0.5818 0.0000
H5K H 0.0000 0.1143 0.4182
H5I H 0.0000 -0.1143 0.5818
H6B H 0.5480 0.0749 0.1521
H6D H -0.1521 0.4520 0.0749
H6F H 0.1521 0.5480 0.0749
H6H H 0.0749 -0.1521 0.4520
H6J H 0.0749 0.1521 0.5480
H6A H -0.4520 -0.0749 -0.1521
H6C H -0.5480 -0.0749 0.1521
H6F_2 H 0.1521 -0.4520 0.0749
H6D_2 H -0.1521 -0.5480 0.0749
H6K H -0.0749 0.1521 0.4520
H6I H -0.0749 -0.1521 0.5480
H7B H 0.6374 0.0609 0.1515
H7D H -0.1515 0.3626 0.0609
H7F H 0.1515 0.6374 0.0609
H7H H 0.0609 -0.1515 0.3626
H7J H 0.0609 0.1515 0.6374
H7A H -0.3626 -0.0609 -0.1515
H7C H -0.6374 -0.0609 0.1515
H7F_2 H 0.1515 -0.3626 0.0609
H7D_2 H -0.1515 -0.6374 0.0609
H7K H -0.0609 0.1515 0.3626
H7I H -0.0609 -0.1515 0.6374
loop_
_geom_bond_atom_site_label_1
_geom_bond_atom_site_label_2
_geom_bond_site_symmetry_1
_geom_bond_site_symmetry_2
I1 Cu1 1_555 1_555
I2 Cu1 1_555 1_555
I3 Cu2 1_555 1_555
Cu1 N1 1_555 1_555
Cu2 I2 1_555 1_555
N1 N2 1_555 1_555
N2 H1 1_555 1_555
C1 N1 1_555 1_555
C2 C1 1_555 1_555
H2 C2 1_555 1_555
H3 C2 1_555 1_555
H4 C2 1_555 1_555
C3 C1 1_555 1_555
C4 N2 1_555 1_555
C5 C4 1_555 1_555
H5 C5 1_555 1_555
H6 C5 1_555 1_555
H7 C5 1_555 1_555
I1A Cu1A 1_555 1_555
I1B Cu1B 1_555 1_555
I1C Cu1C 1_555 1_555
I2D Cu2 1_555 1_555
I2H Cu1 1_555 1_555
I2A Cu1A 1_555 1_555
I2F Cu1F 1_555 1_555
I2K Cu1A 1_555 1_555
I2B Cu1B 1_555 1_555
I2G Cu1G 1_555 1_555
I2I Cu1B 1_555 1_555
I2C Cu1C 1_555 1_555
I2E Cu1E 1_555 1_555
I2J Cu1C 1_555 1_555
Cu1D I1 1_555 1_555
Cu1H I1 1_555 1_555
Cu1A N1A 1_555 1_555
Cu1F I1A 1_555 1_555
Cu1K I1A 1_555 1_555
Cu1B N1B_2 1_555 1_555
Cu1G I1B 1_555 1_555
Cu1I I1B 1_555 1_555
Cu1C N1C_2 1_555 1_555
Cu1E I1C 1_555 1_555
Cu1J I1C 1_555 1_555
Cu1B_2 N1B 1_555 1_555
Cu1F_2 N1F 1_555 1_555
Cu1J_2 N1J 1_555 1_555
Cu1C_2 N1C 1_555 1_555
Cu1D_2 N1D_2 1_555 1_555
Cu1I_2 N1I 1_555 1_555
Cu2A I3 1_555 1_555
Cu2B I3 1_555 1_555
Cu2C I3 1_555 1_555
N1B N2B 1_555 1_555
N1D Cu1D 1_555 1_555
N1F N2F 1_555 1_555
N1H Cu1H 1_555 1_555
N1J N2J 1_555 1_555
N1A N2A 1_555 1_555
N1C N2C 1_555 1_555
N1F_2 Cu1F 1_555 1_555
N1D_2 N2D_2 1_555 1_555
N1K Cu1K 1_555 1_555
N1I N2I 1_555 1_555
N1G Cu1G 1_555 1_555
N1I_2 Cu1I 1_555 1_555
N1E Cu1E 1_555 1_555
N1J_2 Cu1J 1_555 1_555
N2B H1B 1_555 1_555
N2D N1D 1_555 1_555
N2F H1F 1_555 1_555
N2H N1H 1_555 1_555
N2J H1J 1_555 1_555
N2A H1A 1_555 1_555
N2C H1C 1_555 1_555
N2F_2 N1F_2 1_555 1_555
N2D_2 H1D_2 1_555 1_555
N2K N1K 1_555 1_555
N2I H1I 1_555 1_555
H1D N2D 1_555 1_555
H1H N2H 1_555 1_555
H1F_2 N2F_2 1_555 1_555
H1K N2K 1_555 1_555
C1B N1B 1_555 1_555
C1D N1D 1_555 1_555
C1F N1F 1_555 1_555
C1H N1H 1_555 1_555
C1J N1J 1_555 1_555
C1A N1A 1_555 1_555
C1C N1C 1_555 1_555
C1F_2 N1F_2 1_555 1_555
C1D_2 N1D_2 1_555 1_555
C1K N1K 1_555 1_555
C1I N1I 1_555 1_555
C2B C1B 1_555 1_555
C2D C1D 1_555 1_555
C2F C1F 1_555 1_555
C2H C1H 1_555 1_555
C2J C1J 1_555 1_555
C2A C1A 1_555 1_555
C2C C1C 1_555 1_555
C2F_2 C1F_2 1_555 1_555
C2D_2 C1D_2 1_555 1_555
C2K C1K 1_555 1_555
C2I C1I 1_555 1_555
H2B C2B 1_555 1_555
H2D C2D 1_555 1_555
H2F C2F 1_555 1_555
H2H C2H 1_555 1_555
H2J C2J 1_555 1_555
H2A C2A 1_555 1_555
H2C C2C 1_555 1_555
H2F_2 C2F_2 1_555 1_555
H2D_2 C2D_2 1_555 1_555
H2K C2K 1_555 1_555
H2I C2I 1_555 1_555
H3B C2B 1_555 1_555
H3D C2D 1_555 1_555
H3F C2F 1_555 1_555
H3H C2H 1_555 1_555
H3J C2J 1_555 1_555
H3A C2A 1_555 1_555
H3C C2C 1_555 1_555
H3F_2 C2F_2 1_555 1_555
H3D_2 C2D_2 1_555 1_555
H3K C2K 1_555 1_555
H3I C2I 1_555 1_555
H4B C2B 1_555 1_555
H4D C2D 1_555 1_555
H4F C2F 1_555 1_555
H4H C2H 1_555 1_555
H4J C2J 1_555 1_555
H4A C2A 1_555 1_555
H4C C2C 1_555 1_555
H4F_2 C2F_2 1_555 1_555
H4D_2 C2D_2 1_555 1_555
H4K C2K 1_555 1_555
H4I C2I 1_555 1_555
C3B C3 1_555 1_555
C3D C1D 1_555 1_555
C3F C1F 1_555 1_555
C3H C1H 1_555 1_555
C3J C1J 1_555 1_555
C3A C1A 1_555 1_555
C3C C1C 1_555 1_555
C3F_2 C1F_2 1_555 1_555
C3D_2 C1D_2 1_555 1_555
C3K C1K 1_555 1_555
C3I C1I 1_555 1_555
C4B N2B 1_555 1_555
C4D N2D 1_555 1_555
C4F N2F 1_555 1_555
C4H N2H 1_555 1_555
C4J N2J 1_555 1_555
C4A N2A 1_555 1_555
C4C N2C 1_555 1_555
C4F_2 N2F_2 1_555 1_555
C4D_2 N2D_2 1_555 1_555
C4K N2K 1_555 1_555
C4I N2I 1_555 1_555
C5B C4B 1_555 1_555
C5D C4D 1_555 1_555
C5F C4F 1_555 1_555
C5H C4H 1_555 1_555
C5J C4J 1_555 1_555
C5A C4A 1_555 1_555
C5C C4C 1_555 1_555
C5F_2 C4F_2 1_555 1_555
C5D_2 C4D_2 1_555 1_555
C5K C4K 1_555 1_555
C5I C4I 1_555 1_555
H5B C5B 1_555 1_555
H5D C5D 1_555 1_555
H5F C5F 1_555 1_555
H5H C5H 1_555 1_555
H5J C5J 1_555 1_555
H5A C5A 1_555 1_555
H5C C5C 1_555 1_555
H5F_2 C5F_2 1_555 1_555
H5D_2 C5D_2 1_555 1_555
H5K C5K 1_555 1_555
H5I C5I 1_555 1_555
H6B C5B 1_555 1_555
H6D C5D 1_555 1_555
H6F C5F 1_555 1_555
H6H C5H 1_555 1_555
H6J C5J 1_555 1_555
H6A C5A 1_555 1_555
H6C C5C 1_555 1_555
H6F_2 C5F_2 1_555 1_555
H6D_2 C5D_2 1_555 1_555
H6K C5K 1_555 1_555
H6I C5I 1_555 1_555
H7B C5B 1_555 1_555
H7D C5D 1_555 1_555
H7F C5F 1_555 1_555
H7H C5H 1_555 1_555
H7J C5J 1_555 1_555
H7A C5A 1_555 1_555
H7C C5C 1_555 1_555
H7F_2 C5F_2 1_555 1_555
H7D_2 C5D_2 1_555 1_555
H7K C5K 1_555 1_555
H7I C5I 1_555 1_555
I2 Cu1D 1_555 1_555
Cu2 I2H 1_555 1_555
C3 C4 1_555 1_555
I2D Cu1D 1_555 1_555
I2D Cu1H 1_555 1_555
I2H Cu1H 1_555 1_555
I2A Cu1F 1_555 1_555
I2A Cu2A 1_555 1_555
I2F Cu1K 1_555 1_555
I2F Cu2A 1_555 1_555
I2K Cu1K 1_555 1_555
I2K Cu2A 1_555 1_555
I2B Cu1G 1_555 1_555
I2B Cu2B 1_555 1_555
I2G Cu1I 1_555 1_555
I2G Cu2B 1_555 1_555
I2I Cu1I 1_555 1_555
I2I Cu2B 1_555 1_555
I2C Cu1E 1_555 1_555
I2C Cu2C 1_555 1_555
I2E Cu1J 1_555 1_555
I2E Cu2C 1_555 1_555
I2J Cu1J 1_555 1_555
I2J Cu2C 1_555 1_555
C1B C3B 1_555 1_555
C3B C4B 1_555 1_555
C3D C3F 1_555 1_555
C3D C4D 1_555 1_555
C3F C4F 1_555 1_555
C3H C3J 1_555 1_555
C3H C4H 1_555 1_555
C3J C4J 1_555 1_555
C3A C3C 1_555 1_555
C3A C4A 1_555 1_555
C3C C4C 1_555 1_555
C3F_2 C3D_2 1_555 1_555
C3F_2 C4F_2 1_555 1_555
C3D_2 C4D_2 1_555 1_555
C3K C3I 1_555 1_555
C3K C4K 1_555 1_555
C3I C4I 1_555 1_555

#END
