
#######################################################################
#
#                 Cambridge Crystallographic Data Centre
#                                CCDC 
#
#######################################################################
#
# If this CIF has been generated from an entry in the Cambridge 
# Structural Database, then it will include bibliographic, chemical, 
# crystal, experimental, refinement or atomic coordinate data resulting 
# from the CCDC's data processing and validation procedures.
#
#######################################################################

data_EGATOW
_symmetry_cell_setting           tetragonal
_symmetry_space_group_name_H-M   'P 42 b c'
_symmetry_Int_Tables_number      106
_space_group_name_Hall           'P 4c -2ab'
loop_
_symmetry_equiv_pos_site_id
_symmetry_equiv_pos_as_xyz
1 x,y,z
2 -y,x,1/2+z
3 -x,-y,z
4 y,-x,1/2+z
5 1/2-x,1/2+y,z
6 1/2+y,1/2+x,1/2+z
7 1/2+x,1/2-y,z
8 1/2-y,1/2-x,1/2+z
_cell_length_a                   18.7107(3)
_cell_length_b                   18.7107(3)
_cell_length_c                   11.7603(2)
_cell_angle_alpha                90
_cell_angle_beta                 90
_cell_angle_gamma                90
_cell_volume                     4117.17
loop_
_atom_site_label
_atom_site_type_symbol
_atom_site_fract_x
_atom_site_fract_y
_atom_site_fract_z
Zn1 Zn 0.71429(7) 0.21838(7) 0.35614(17)
Co1 Co 0.84611(8) 0.17832(8) 0.18206(19)
S1 S 0.96935(18) 0.28592(19) 0.1597(3)
O1 O 0.8129(4) 0.2851(4) 0.1732(9)
O2 O 0.7080(4) 0.3048(5) 0.2596(8)
O3 O 0.7226(5) 0.2910(4) -0.0312(8)
O4 O 0.6947(5) 0.3774(4) -0.1531(9)
O5 O 0.7925(5) 0.6205(5) -0.0730(7)
O6 O 0.6979(4) 0.6546(4) 0.0287(7)
O7 O 0.7626(5) 0.6456(4) 0.2402(7)
O8 O 0.8004(7) 0.5646(5) 0.3612(10)
O9 O 0.8879(4) 0.0746(4) 0.1925(9)
O10 O 0.9438(4) 0.2126(4) 0.1223(8)
N1 N 0.9137(6) -0.0282(6) 0.2870(11)
C1 C 0.7591(5) 0.3217(5) 0.1899(11)
C2 C 0.7542(5) 0.3953(5) 0.1406(9)
C3 C 0.7380(6) 0.4113(6) 0.0285(10)
C4 C 0.7379(6) 0.4820(6) -0.0119(11)
H1 H 0.7283 0.4913 -0.0898
C5 C 0.7518(6) 0.5376(6) 0.0610(10)
C6 C 0.7668(5) 0.5245(5) 0.1771(12)
C7 C 0.7681(6) 0.4530(6) 0.2129(11)
H2 H 0.7790 0.4433 0.2902
C8 C 0.7179(5) 0.3552(6) -0.0577(9)
C9 C 0.7482(6) 0.6106(6) 0.0075(10)
C10 C 0.7792(7) 0.5801(7) 0.2667(12)
C11 C 0.8936(6) 0.0385(7) 0.2810(12)
H3 H 0.8823 0.0616 0.3506
C12 C 0.9288(8) -0.0681(7) 0.1811(17)
H4 H 0.9456 -0.0349 0.1225
H5 H 0.8851 -0.0917 0.1549
H6 H 0.9657 -0.1041 0.1958
C13 C 0.9147(8) -0.0669(10) 0.3925(15)
H7 H 0.9051 -0.1176 0.3778
H8 H 0.8779 -0.0477 0.4434
H9 H 0.9617 -0.0619 0.4283
C14 C 1.0650(7) 0.2831(8) 0.1349(15)
H10 H 1.0752 0.2509 0.0712
H11 H 1.0892 0.2657 0.2033
H12 H 1.0822 0.3312 0.1167
C15 C 0.9470(9) 0.3464(8) 0.0511(13)
H13 H 0.9866 0.3498 -0.0030
H14 H 0.9378 0.3936 0.0842
H15 H 0.9040 0.3296 0.0116
Zn1E Zn 0.71838(7) 0.21429(7) -0.14386(17)
Zn1A Zn 0.78162(7) 0.71429(7) -0.14386(17)
Zn1D Zn 0.78571(7) 0.71838(7) 0.35614(17)
Co1E Co 0.67832(8) 0.34611(8) -0.31794(19)
Co1D Co 0.65389(8) 0.67832(8) 0.18206(19)
O3E O 0.7910(4) 0.2226(5) 0.4688(8)
O4E O 0.8774(4) 0.1947(5) 0.3469(9)
O5C O 0.6205(5) 0.2075(5) 0.4270(7)
O6D O 0.8021(4) 0.1546(4) 0.0287(7)
O7D O 0.7374(5) 0.1456(4) 0.2402(7)
loop_
_geom_bond_atom_site_label_1
_geom_bond_atom_site_label_2
_geom_bond_site_symmetry_1
_geom_bond_site_symmetry_2
Zn1 O2 1_555 1_555
Co1 O1 1_555 1_555
S1 O10 1_555 1_555
O1 C1 1_555 1_555
O2 C1 1_555 1_555
O3 C8 1_555 1_555
O4 C8 1_555 1_555
O5 C9 1_555 1_555
O6 C9 1_555 1_555
O7 C10 1_555 1_555
O8 C10 1_555 1_555
O9 Co1 1_555 1_555
O10 Co1 1_555 1_555
N1 C11 1_555 1_555
C1 C2 1_555 1_555
C2 C3 1_555 1_555
C3 C4 1_555 1_555
C4 H1 1_555 1_555
C5 C4 1_555 1_555
C6 C5 1_555 1_555
C7 C2 1_555 1_555
H2 C7 1_555 1_555
C8 C3 1_555 1_555
C9 C5 1_555 1_555
C10 C6 1_555 1_555
C11 O9 1_555 1_555
H3 C11 1_555 1_555
C12 N1 1_555 1_555
H4 C12 1_555 1_555
H5 C12 1_555 1_555
H6 C12 1_555 1_555
C13 N1 1_555 1_555
H7 C13 1_555 1_555
H8 C13 1_555 1_555
H9 C13 1_555 1_555
C14 S1 1_555 1_555
H10 C14 1_555 1_555
H11 C14 1_555 1_555
H12 C14 1_555 1_555
C15 S1 1_555 1_555
H13 C15 1_555 1_555
H14 C15 1_555 1_555
H15 C15 1_555 1_555
Zn1E O3 1_555 1_555
Zn1A O5 1_555 1_555
Zn1D O7 1_555 1_555
Co1E O4 1_555 1_555
Co1D O6 1_555 1_555
O3E Zn1 1_555 1_555
O4E Co1 1_555 1_555
O5C Zn1 1_555 1_555
O6D Co1 1_555 1_555
O7D Zn1 1_555 1_555
Co1 O7D 1_555 1_555
O7 Co1D 1_555 1_555
C6 C7 1_555 1_555

#END
