
#######################################################################
#
#                 Cambridge Crystallographic Data Centre
#                                CCDC 
#
#######################################################################
#
# If this CIF has been generated from an entry in the Cambridge 
# Structural Database, then it will include bibliographic, chemical, 
# crystal, experimental, refinement or atomic coordinate data resulting 
# from the CCDC's data processing and validation procedures.
#
#######################################################################

data_EGATIR
_symmetry_cell_setting           monoclinic
_symmetry_space_group_name_H-M   'P 21/n'
_symmetry_Int_Tables_number      14
_space_group_name_Hall           '-P 2yn'
loop_
_symmetry_equiv_pos_site_id
_symmetry_equiv_pos_as_xyz
1 x,y,z
2 1/2-x,1/2+y,1/2-z
3 -x,-y,-z
4 1/2+x,1/2-y,1/2+z
_cell_length_a                   12.5174(16)
_cell_length_b                   10.3922(14)
_cell_length_c                   17.212(2)
_cell_angle_alpha                90
_cell_angle_beta                 92.095(2)
_cell_angle_gamma                90
_cell_volume                     2237.5
loop_
_atom_site_label
_atom_site_type_symbol
_atom_site_fract_x
_atom_site_fract_y
_atom_site_fract_z
Mn1 Mn 0.77778(5) 0.52554(6) 0.16203(3)
O1 O 1.3056(2) 0.2941(3) -0.09749(16)
O2 O 0.9477(2) 0.4561(3) 0.19625(16)
O3 O 0.2612(2) 0.3516(3) 0.31055(16)
O4 O 0.8145(2) 0.3222(3) 0.20830(15)
O5 O 1.1332(2) 0.2995(3) -0.12495(15)
O6 O 0.7709(2) 0.5904(3) 0.28224(16)
H1 H 0.740(3) 0.664(2) 0.284(2)
H2 H 0.825(2) 0.587(4) 0.312(2)
N1 N 0.6038(3) 0.4607(3) 0.16651(18)
N2 N 0.2901(3) 0.0697(3) 0.54242(18)
N3 N 0.4383(3) 0.3046(3) 0.30965(19)
H3 H 0.495(3) 0.266(4) 0.333(2)
C1 C 0.4239(3) 0.4657(4) 0.1178(2)
H4 H 0.3745 0.4892 0.0771
C2 C 1.2059(3) 0.1539(4) 0.0882(2)
H5 H 1.2815 0.1457 0.0882
C3 C 0.3885(4) 0.4042(4) 0.1834(2)
H6 H 0.3147 0.3866 0.1889
C4 C 1.2006(3) 0.1140(4) -0.0560(2)
H7 H 1.1560 0.0567 -0.0897
H8 H 1.2710 0.0725 -0.0463
C5 C 0.9869(3) 0.1749(4) 0.0903(2)
H9 H 0.9112 0.1802 0.0904
C6 C 0.9922(3) 0.2391(4) 0.2314(2)
H10 H 0.9541 0.1649 0.2535
H11 H 1.0464 0.2692 0.2706
C7 C 1.1563(3) 0.1841(4) 0.1574(2)
H12 H 1.1983 0.1952 0.2040
C8 C 0.3270(3) 0.2143(4) 0.4095(2)
C9 C 0.5693(3) 0.3983(4) 0.2297(2)
H13 H 0.6207 0.3732 0.2688
C10 C 0.5300(3) 0.4926(4) 0.1118(2)
H14 H 0.5525 0.5360 0.0666
C11 C 1.1467(3) 0.1361(4) 0.0203(2)
C12 C 0.2510(3) 0.2525(4) 0.4614(2)
H15 H 0.2098 0.3281 0.4520
C13 C 1.0367(3) 0.1446(4) 0.0220(2)
H16 H 0.9947 0.1294 -0.0242
C14 C 1.0468(3) 0.1977(4) 0.1584(2)
C15 C 1.2149(4) 0.2428(4) -0.0956(2)
C16 C 0.3822(3) 0.1010(4) 0.4241(2)
H17 H 0.4340 0.0712 0.3893
C17 C 0.3391(4) 0.2956(4) 0.3378(2)
C18 C 0.2360(3) 0.1786(4) 0.5272(2)
H18 H 0.1851 0.2066 0.5632
C19 C 0.4632(3) 0.3692(4) 0.2406(2)
C20 C 0.3603(3) 0.0315(4) 0.4908(2)
H19 H 0.3974 -0.0472 0.5000
C21 C 0.9140(3) 0.3458(4) 0.2126(2)
Mn1B Mn 1.22222(5) 0.47446(6) -0.16203(3)
Mn1C Mn 0.27778(5) -0.02554(6) 0.66203(3)
O1B O 0.6944(2) 0.7059(3) 0.09749(16)
O5B O 0.8668(2) 0.7005(3) 0.12495(15)
N2C N 0.7901(3) 0.4303(3) 0.04242(18)
O7 O 0.5453(3) 0.0851(4) 0.11345(19)
H20 H 0.496(3) 0.083(5) 0.145(2)
H21 H 0.517(3) 0.100(5) 0.0684(14)
O8 O 0.3834(3) 0.0578(3) 0.21895(19)
H22 H 0.333(3) 0.004(3) 0.208(3)
H23 H 0.428(3) 0.021(4) 0.252(2)
O9 O 0.4857(3) 0.1607(4) -0.0392(2)
H24 H 0.486(3) 0.100(3) -0.071(2)
H25 H 0.436(3) 0.213(3) -0.051(2)
loop_
_geom_bond_atom_site_label_1
_geom_bond_atom_site_label_2
_geom_bond_site_symmetry_1
_geom_bond_site_symmetry_2
Mn1 O2 1_555 1_555
O1 C15 1_555 1_555
O2 C21 1_555 1_555
O3 C17 1_555 1_555
O4 Mn1 1_555 1_555
O5 C15 1_555 1_555
O6 Mn1 1_555 1_555
H1 O6 1_555 1_555
H2 O6 1_555 1_555
N1 Mn1 1_555 1_555
N2 C18 1_555 1_555
N3 H3 1_555 1_555
C1 H4 1_555 1_555
C2 H5 1_555 1_555
C3 C1 1_555 1_555
H6 C3 1_555 1_555
C4 H7 1_555 1_555
H8 C4 1_555 1_555
C5 H9 1_555 1_555
C6 H10 1_555 1_555
H11 C6 1_555 1_555
C7 C2 1_555 1_555
H12 C7 1_555 1_555
C8 C12 1_555 1_555
C9 N1 1_555 1_555
H13 C9 1_555 1_555
C10 N1 1_555 1_555
H14 C10 1_555 1_555
C11 C2 1_555 1_555
C12 H15 1_555 1_555
C13 C5 1_555 1_555
H16 C13 1_555 1_555
C14 C5 1_555 1_555
C15 C4 1_555 1_555
C16 C8 1_555 1_555
H17 C16 1_555 1_555
C17 N3 1_555 1_555
C18 C12 1_555 1_555
H18 C18 1_555 1_555
C19 N3 1_555 1_555
C20 N2 1_555 1_555
H19 C20 1_555 1_555
C21 O4 1_555 1_555
O7 H20 1_555 1_555
H21 O7 1_555 1_555
O8 H22 1_555 1_555
H23 O8 1_555 1_555
O9 H24 1_555 1_555
H25 O9 1_555 1_555
Mn1B O1 1_555 1_555
Mn1C N2 1_555 1_555
O1B Mn1 1_555 1_555
O5B Mn1 1_555 1_555
N2C Mn1 1_555 1_555
O5 Mn1B 1_555 1_555
C1 C10 1_555 1_555
C3 C19 1_555 1_555
C4 C11 1_555 1_555
C6 C14 1_555 1_555
C6 C21 1_555 1_555
C7 C14 1_555 1_555
C8 C17 1_555 1_555
C9 C19 1_555 1_555
C11 C13 1_555 1_555
C16 C20 1_555 1_555

#END
