
#######################################################################
#
#                 Cambridge Crystallographic Data Centre
#                                CCDC 
#
#######################################################################
#
# If this CIF has been generated from an entry in the Cambridge 
# Structural Database, then it will include bibliographic, chemical, 
# crystal, experimental, refinement or atomic coordinate data resulting 
# from the CCDC's data processing and validation procedures.
#
#######################################################################

data_EGATAI
_symmetry_cell_setting           cubic
_symmetry_space_group_name_H-M   'P 21 3'
_symmetry_Int_Tables_number      198
_space_group_name_Hall           'P 2ac 2ab 3'
loop_
_symmetry_equiv_pos_site_id
_symmetry_equiv_pos_as_xyz
1 x,y,z
2 y,z,x
3 z,x,y
4 1/2+x,1/2-y,-z
5 1/2+y,1/2-z,-x
6 1/2+z,1/2-x,-y
7 -y,1/2+z,1/2-x
8 -z,1/2+x,1/2-y
9 1/2-z,-x,1/2+y
10 1/2-x,-y,1/2+z
11 1/2-y,-z,1/2+x
12 -x,1/2+y,1/2-z
_cell_length_a                   14.1520(3)
_cell_length_b                   14.1520(3)
_cell_length_c                   14.1520(3)
_cell_angle_alpha                90
_cell_angle_beta                 90
_cell_angle_gamma                90
_cell_volume                     2834.35
loop_
_atom_site_label
_atom_site_type_symbol
_atom_site_fract_x
_atom_site_fract_y
_atom_site_fract_z
Zn1 Zn 0.72827(12) 0.27173(12) 0.77173(12)
Co1 Co 0.57970(15) 0.42030(15) 0.92030(15)
O1 O 0.5652(6) 0.4120(6) 0.7759(6)
O2 O 0.6932(6) 0.3739(6) 0.6878(6)
O3 O 0.4284(10) 0.4075(11) 0.9294(11)
O4 O 0.8681(11) 0.1319(11) 0.6319(11)
O5 O 0.808(5) 0.154(3) 0.7760(19)
N1 N 0.325(3) 0.411(4) 0.950(3)
N2 N 0.8095(8) 0.1905(8) 0.6905(8)
C1 C 0.6239(11) 0.4242(9) 0.7089(9)
C2 C 0.5997(9) 0.5041(9) 0.6411(8)
C3 C 0.6564(9) 0.5226(9) 0.5657(10)
H1 H 0.7084 0.4820 0.5539
C4 C 0.376(2) 0.423(3) 0.865(2)
H2 H 0.3720 0.4346 0.7996
C5 C 0.268(3) 0.432(3) 1.033(3)
H3 H 0.2293 0.4888 1.0210
H4 H 0.3090 0.4439 1.0874
H5 H 0.2258 0.3788 1.0470
C6 C 0.246(3) 0.367(3) 0.902(3)
H6 H 0.2472 0.3845 0.8350
H7 H 0.1864 0.3894 0.9302
H8 H 0.2500 0.2985 0.9083
Zn1B Zn 0.77173(12) 0.72827(12) 0.27173(12)
Zn1A Zn 0.27173(12) 0.77173(12) 0.72827(12)
Co1B Co 0.92030(15) 0.57970(15) 0.42030(15)
Co1A Co 0.42030(15) 0.92030(15) 0.57970(15)
O1B O 0.7759(6) 0.5652(6) 0.4120(6)
O1A O 0.4120(6) 0.7759(6) 0.5652(6)
O1F O 0.5880(6) 0.2759(6) 0.9348(6)
O1H O 0.7241(6) 0.4348(6) 0.9120(6)
O2B O 0.6878(6) 0.6932(6) 0.3739(6)
O2A O 0.3739(6) 0.6878(6) 0.6932(6)
O2F O 0.6261(6) 0.1878(6) 0.8068(6)
O2H O 0.8122(6) 0.3068(6) 0.8739(6)
O3F O 0.5925(11) 0.4294(11) 1.0716(10)
O3H O 0.5706(11) 0.5716(10) 0.9075(11)
O5H O 0.7240(19) 0.192(5) 0.654(3)
O5F O 0.846(3) 0.2760(19) 0.692(5)
N1F N 0.589(4) 0.450(3) 1.175(3)
N1H N 0.550(3) 0.675(3) 0.911(4)
C1B C 0.7089(9) 0.6239(11) 0.4242(9)
C1A C 0.4242(9) 0.7089(9) 0.6239(11)
C2B C 0.6411(8) 0.5997(9) 0.5041(9)
C2A C 0.5041(9) 0.6411(8) 0.5997(9)
C3B C 0.5657(10) 0.6564(9) 0.5226(9)
C3A C 0.5226(9) 0.5657(10) 0.6564(9)
H1A H 0.4820 0.5539 0.7084
H1B H 0.5539 0.7084 0.4820
C4F C 0.577(3) 0.365(2) 1.124(2)
C4H C 0.635(2) 0.624(2) 0.923(3)
H2F H 0.5654 0.2996 1.1280
H2H H 0.7004 0.6280 0.9346
C5F C 0.568(3) 0.533(3) 1.232(3)
C5H C 0.467(3) 0.732(3) 0.932(3)
H3F H 0.5112 0.5210 1.2707
H3H H 0.4790 0.7707 0.9888
H4F H 0.5561 0.5874 1.1910
H4H H 0.4126 0.6910 0.9439
H5F H 0.6212 0.5470 1.2742
H5H H 0.4530 0.7742 0.8788
C6F C 0.633(3) 0.402(3) 1.254(3)
C6H C 0.598(3) 0.754(3) 0.867(3)
H6F H 0.6155 0.3350 1.2528
H6H H 0.6650 0.7528 0.8845
H7F H 0.6106 0.4302 1.3136
H7H H 0.5698 0.8136 0.8894
H8F H 0.7015 0.4083 1.2500
H8H H 0.5917 0.7500 0.7985
loop_
_geom_bond_atom_site_label_1
_geom_bond_atom_site_label_2
_geom_bond_site_symmetry_1
_geom_bond_site_symmetry_2
Zn1 O2 1_555 1_555
Co1 O1 1_555 1_555
O1 C1 1_555 1_555
O2 C1 1_555 1_555
O3 Co1 1_555 1_555
O4 N2 1_555 1_555
O5 Zn1 1_555 1_555
N1 C4 1_555 1_555
N2 O5 1_555 1_555
C1 C2 1_555 1_555
C2 C3 1_555 1_555
C3 H1 1_555 1_555
C4 O3 1_555 1_555
H2 C4 1_555 1_555
C5 N1 1_555 1_555
H3 C5 1_555 1_555
H4 C5 1_555 1_555
H5 C5 1_555 1_555
C6 N1 1_555 1_555
H6 C6 1_555 1_555
H7 C6 1_555 1_555
H8 C6 1_555 1_555
Zn1B O2B 1_555 1_555
Zn1A O2A 1_555 1_555
Co1B O1B 1_555 1_555
Co1A O1A 1_555 1_555
O1B C1B 1_555 1_555
O1A C1A 1_555 1_555
O1F Co1 1_555 1_555
O1H Co1 1_555 1_555
O2B C1B 1_555 1_555
O2A C1A 1_555 1_555
O2F Zn1 1_555 1_555
O2H Zn1 1_555 1_555
O3F Co1 1_555 1_555
O3H Co1 1_555 1_555
O5H Zn1 1_555 1_555
O5F Zn1 1_555 1_555
N1F C4F 1_555 1_555
N1H C4H 1_555 1_555
C1B C2B 1_555 1_555
C1A C2A 1_555 1_555
C2B C3 1_555 1_555
C2A C3B 1_555 1_555
C3B C2B 1_555 1_555
C3A C2 1_555 1_555
H1A C3A 1_555 1_555
H1B C3B 1_555 1_555
C4F O3F 1_555 1_555
C4H O3H 1_555 1_555
H2F C4F 1_555 1_555
H2H C4H 1_555 1_555
C5F N1F 1_555 1_555
C5H N1H 1_555 1_555
H3F C5F 1_555 1_555
H3H C5H 1_555 1_555
H4F C5F 1_555 1_555
H4H C5H 1_555 1_555
H5F C5F 1_555 1_555
H5H C5H 1_555 1_555
C6F N1F 1_555 1_555
C6H N1H 1_555 1_555
H6F C6F 1_555 1_555
H6H C6H 1_555 1_555
H7F C6F 1_555 1_555
H7H C6H 1_555 1_555
H8F C6F 1_555 1_555
H8H C6H 1_555 1_555
N2 O5H 1_555 1_555
N2 O5F 1_555 1_555
C2A C3A 1_555 1_555

#END
