
#######################################################################
#
#                 Cambridge Crystallographic Data Centre
#                                CCDC 
#
#######################################################################
#
# If this CIF has been generated from an entry in the Cambridge 
# Structural Database, then it will include bibliographic, chemical, 
# crystal, experimental, refinement or atomic coordinate data resulting 
# from the CCDC's data processing and validation procedures.
#
#######################################################################

data_EGAWOZ
_symmetry_cell_setting           monoclinic
_symmetry_space_group_name_H-M   'P 21/n'
_symmetry_Int_Tables_number      14
_space_group_name_Hall           '-P 2yn'
loop_
_symmetry_equiv_pos_site_id
_symmetry_equiv_pos_as_xyz
1 x,y,z
2 1/2-x,1/2+y,1/2-z
3 -x,-y,-z
4 1/2+x,1/2-y,1/2+z
_cell_length_a                   12.994(6)
_cell_length_b                   8.630(4)
_cell_length_c                   19.302(9)
_cell_angle_alpha                90
_cell_angle_beta                 102.13(3)
_cell_angle_gamma                90
_cell_volume                     2116.17
loop_
_atom_site_label
_atom_site_type_symbol
_atom_site_fract_x
_atom_site_fract_y
_atom_site_fract_z
Cu1 Cu 0.89506(5) 0.17775(9) 0.82547(4)
Cu2 Cu 0.96835(5) 0.18620(8) 0.98733(3)
O1 O 0.9570(2) 0.3180(4) 0.90373(15)
N1 N 1.0255(3) 0.2334(5) 0.7935(2)
N2 N 1.1156(3) 0.2602(5) 1.0070(2)
O2 O 0.7664(3) 0.1529(5) 0.85884(19)
O3 O 0.8174(3) 0.1746(5) 0.97625(18)
N3 N 0.8629(4) 0.0008(6) 0.7605(2)
N4 N 0.7839(4) -0.0723(6) 0.7601(2)
N5 N 0.7099(5) -0.1463(7) 0.7588(3)
N6 N 0.9851(3) 0.0517(5) 1.0728(2)
C1 C 1.0505(5) 0.1803(8) 0.7329(3)
C2 C 1.1329(5) 0.2423(9) 0.7081(3)
C3 C 1.1905(6) 0.3553(10) 0.7455(4)
C4 C 1.1683(5) 0.4075(9) 0.8079(3)
C5 C 1.0831(4) 0.3425(6) 0.8309(3)
C6 C 1.0473(4) 0.3988(6) 0.8979(3)
O4 O 1.0316(3) 0.5619(4) 0.89320(18)
C7 C 1.1325(4) 0.3758(6) 0.9644(3)
C8 C 1.2213(4) 0.4665(7) 0.9819(3)
C9 C 1.2971(4) 0.4321(7) 1.0418(3)
C10 C 1.2808(4) 0.3099(8) 1.0832(3)
C11 C 1.1889(4) 0.2283(7) 1.0647(3)
C12 C 0.9554(6) 0.6112(8) 0.8328(3)
H1 H 0.9771 0.5795 0.7904
H2 H 0.9492 0.7220 0.8334
H3 H 0.8885 0.5653 0.8340
C13 C 0.7493(4) 0.1670(6) 0.9200(3)
C14 C 0.6363(4) 0.1774(7) 0.9255(3)
C15 C 0.5595(5) 0.1929(12) 0.8653(5)
C16 C 0.4550(6) 0.2052(15) 0.8696(6)
C17 C 0.4285(6) 0.2033(13) 0.9343(6)
C18 C 0.5043(7) 0.1911(12) 0.9946(5)
C19 C 0.6085(5) 0.1776(8) 0.9907(4)
N7 N 0.9129(4) 0.0535(6) 1.1023(2)
N8 N 0.8462(5) 0.0531(10) 1.1320(3)
H4 H 1.002(4) 0.101(6) 0.712(3)
H5 H 1.143(4) 0.216(6) 0.670(3)
H6 H 1.248(6) 0.380(8) 0.738(4)
H7 H 1.204(5) 0.476(8) 0.831(4)
H8 H 1.236(4) 0.538(6) 0.957(3)
H9 H 1.367(5) 0.505(8) 1.052(3)
H10 H 1.325(4) 0.285(6) 1.120(3)
H11 H 1.173(4) 0.143(6) 1.087(3)
H12 H 0.571(7) 0.180(10) 0.832(4)
H13 H 0.428(5) 0.209(8) 0.832(4)
H14 H 0.358(5) 0.198(8) 0.930(4)
H15 H 0.491(7) 0.195(10) 1.031(5)
H16 H 0.661(4) 0.163(6) 1.029(3)
N5A N 0.7901(5) 0.3537(7) 0.7412(3)
N6B N 1.0149(3) -0.0517(5) 0.9272(2)
Cu1A Cu 0.60494(5) -0.32225(9) 0.67453(4)
Cu2B Cu 1.03165(5) -0.18620(8) 1.01267(3)
loop_
_geom_bond_atom_site_label_1
_geom_bond_atom_site_label_2
_geom_bond_site_symmetry_1
_geom_bond_site_symmetry_2
Cu1 O1 1_555 1_555
Cu2 O1 1_555 1_555
O1 C6 1_555 1_555
N1 Cu1 1_555 1_555
N2 Cu2 1_555 1_555
O2 Cu1 1_555 1_555
O3 Cu2 1_555 1_555
N3 Cu1 1_555 1_555
N4 N3 1_555 1_555
N5 N4 1_555 1_555
N6 Cu2 1_555 1_555
C1 N1 1_555 1_555
C2 C1 1_555 1_555
C3 C2 1_555 1_555
C4 C3 1_555 1_555
C5 N1 1_555 1_555
C6 C5 1_555 1_555
O4 C6 1_555 1_555
C7 N2 1_555 1_555
C8 C7 1_555 1_555
C9 C8 1_555 1_555
C10 C9 1_555 1_555
C11 N2 1_555 1_555
C12 O4 1_555 1_555
H1 C12 1_555 1_555
H2 C12 1_555 1_555
H3 C12 1_555 1_555
C13 O2 1_555 1_555
C14 C13 1_555 1_555
C15 C14 1_555 1_555
C16 C15 1_555 1_555
C17 C16 1_555 1_555
C18 C17 1_555 1_555
C19 C14 1_555 1_555
N7 N6 1_555 1_555
N8 N7 1_555 1_555
H4 C1 1_555 1_555
H5 C2 1_555 1_555
H6 C3 1_555 1_555
H7 C4 1_555 1_555
H8 C8 1_555 1_555
H9 C9 1_555 1_555
H10 C10 1_555 1_555
H11 C11 1_555 1_555
H12 C15 1_555 1_555
H13 C16 1_555 1_555
H14 C17 1_555 1_555
H15 C18 1_555 1_555
H16 C19 1_555 1_555
N5A Cu1 1_555 1_555
N6B Cu2 1_555 1_555
Cu1A N5 1_555 1_555
Cu2B N6 1_555 1_555
O3 C13 1_555 1_555
C4 C5 1_555 1_555
C6 C7 1_555 1_555
C10 C11 1_555 1_555
C18 C19 1_555 1_555
N6B Cu2B 1_555 1_555

#END
