
#######################################################################
#
#                 Cambridge Crystallographic Data Centre
#                                CCDC 
#
#######################################################################
#
# If this CIF has been generated from an entry in the Cambridge 
# Structural Database, then it will include bibliographic, chemical, 
# crystal, experimental, refinement or atomic coordinate data resulting 
# from the CCDC's data processing and validation procedures.
#
#######################################################################

data_EGAYOB
_symmetry_cell_setting           tetragonal
_symmetry_space_group_name_H-M   'I -4'
_symmetry_Int_Tables_number      82
_space_group_name_Hall           'I -4'
loop_
_symmetry_equiv_pos_site_id
_symmetry_equiv_pos_as_xyz
1 x,y,z
2 -x,-y,z
3 y,-x,-z
4 -y,x,-z
5 1/2+x,1/2+y,1/2+z
6 1/2-x,1/2-y,1/2+z
7 1/2+y,1/2-x,1/2-z
8 1/2-y,1/2+x,1/2-z
_cell_length_a                   18.2660(3)
_cell_length_b                   18.2660(3)
_cell_length_c                   8.8185(2)
_cell_angle_alpha                90
_cell_angle_beta                 90
_cell_angle_gamma                90
_cell_volume                     2942.26
loop_
_atom_site_label
_atom_site_type_symbol
_atom_site_fract_x
_atom_site_fract_y
_atom_site_fract_z
B1 B 0.50000 0.50000 1.50000
F1 F 0.5204(9) 0.5572(11) 1.593(3)
F1A F 0.4796(9) 0.4428(11) 1.593(3)
F1B F 0.5572(11) 0.4796(9) 1.407(3)
F1C F 0.4428(11) 0.5204(9) 1.407(3)
B2 B 0.00000 0.00000 0.50000
F2 F 0.0326(9) -0.0533(7) 0.5890(10)
F2A F -0.0326(9) 0.0533(7) 0.5890(10)
F2B F -0.0533(7) -0.0326(9) 0.4110(10)
F2C F 0.0533(7) 0.0326(9) 0.4110(10)
Cu1 Cu 0.37908(7) 0.08221(7) 0.99850(17)
Cu2 Cu 0.50000 0.00000 0.75000
Cu3 Cu 0.42282(7) -0.11023(7) 1.11761(16)
S1 S 0.28051(12) 0.14686(13) 0.9391(3)
H1 H 0.2269 0.1096 0.9545
S2 S 0.35957(12) -0.21762(11) 1.0893(3)
H2 H 0.4014 -0.2659 1.0579
N1 N 0.2851(4) -0.1129(4) 0.8624(9)
H3 H 0.3052 -0.1412 0.9316
C1 C 0.3208(5) -0.0523(5) 0.8215(13)
S3 S 0.40316(11) -0.03080(12) 0.9148(3)
C2 C 0.2896(5) -0.0079(5) 0.7093(11)
H4 H 0.3142 0.0348 0.6748
C3 C 0.2220(5) -0.0274(5) 0.6492(11)
H5 H 0.1999 0.0026 0.5741
C4 C 0.1869(5) -0.0900(6) 0.6976(13)
H6 H 0.1404 -0.103 0.6578
C5 C 0.2202(5) -0.1330(5) 0.8039(13)
H7 H 0.1975 -0.1771 0.8364
N2 N 0.3745(4) 0.2469(4) 1.1609(10)
H8 H 0.3441 0.219 1.1093
C6 C 0.4388(5) 0.2176(5) 1.2077(11)
S4 S 0.45605(11) 0.12512(12) 1.1705(3)
C7 C 0.4862(5) 0.2610(5) 1.2910(11)
H9 H 0.5315 0.2416 1.326
C8 C 0.4670(6) 0.3337(5) 1.3232(14)
H10 H 0.4995 0.3644 1.378
C9 C 0.3993(6) 0.3603(5) 1.2735(13)
H11 H 0.3845 0.4088 1.2982
C10 C 0.3549(5) 0.3166(5) 1.1898(13)
H12 H 0.31 0.3351 1.1515
Cu1A Cu 0.62092(7) -0.08221(7) 0.99850(17)
Cu1F Cu 0.58221(7) 0.12092(7) 0.50150(17)
Cu1G Cu 0.41779(7) -0.12092(7) 0.50150(17)
Cu1G_2 Cu 0.41779(7) -0.12092(7) 1.50150(17)
Cu3A Cu 0.57718(7) 0.11023(7) 1.11761(16)
Cu3F Cu 0.38977(7) 0.07718(7) 0.38239(16)
Cu3G Cu 0.61023(7) -0.07718(7) 0.38239(16)
Cu3F_2 Cu 0.38977(7) 0.07718(7) 1.38239(16)
Cu3G_2 Cu 0.61023(7) -0.07718(7) 1.38239(16)
Cu3A_2 Cu 0.57718(7) 0.11023(7) 0.11761(16)
S1A S 0.71949(12) -0.14686(13) 0.9391(3)
S1F S 0.64686(13) 0.21949(12) 0.5609(3)
S1G S 0.35314(13) -0.21949(12) 0.5609(3)
H1A H 0.7731 -0.1096 0.9545
H1F H 0.6096 0.2731 0.5455
H1G H 0.3904 -0.2731 0.5455
S2A S 0.64043(12) 0.21762(11) 1.0893(3)
S2F S 0.28238(11) 0.14043(12) 0.4107(3)
S2G S 0.71762(11) -0.14043(12) 0.4107(3)
H2A H 0.5986 0.2659 1.0579
H2F H 0.2341 0.0986 0.4421
H2G H 0.7659 -0.0986 0.4421
N1A N 0.7149(4) 0.1129(4) 0.8624(9)
N1F N 0.3871(4) 0.2149(4) 0.6376(9)
N1G N 0.6129(4) -0.2149(4) 0.6376(9)
H3A H 0.6948 0.1412 0.9316
H3F H 0.3588 0.1948 0.5684
H3G H 0.6412 -0.1948 0.5684
C1A C 0.6792(5) 0.0523(5) 0.8215(13)
C1F C 0.4477(5) 0.1792(5) 0.6785(13)
C1G C 0.5523(5) -0.1792(5) 0.6785(13)
S3A S 0.59684(11) 0.03080(12) 0.9148(3)
S3F S 0.46920(12) 0.09684(11) 0.5852(3)
S3G S 0.53080(12) -0.09684(11) 0.5852(3)
C2A C 0.7104(5) 0.0079(5) 0.7093(11)
C2F C 0.4921(5) 0.2104(5) 0.7907(11)
C2G C 0.5079(5) -0.2104(5) 0.7907(11)
H4A H 0.6858 -0.0348 0.6748
H4F H 0.5348 0.1858 0.8252
H4G H 0.4652 -0.1858 0.8252
C3A C 0.7780(5) 0.0274(5) 0.6492(11)
C3F C 0.4726(5) 0.2780(5) 0.8508(11)
C3G C 0.5274(5) -0.2780(5) 0.8508(11)
H5A H 0.8001 -0.0026 0.5741
H5F H 0.5026 0.3001 0.9259
H5G H 0.4974 -0.3001 0.9259
C4A C 0.8131(5) 0.0900(6) 0.6976(13)
C4F C 0.4100(6) 0.3131(5) 0.8024(13)
C4G C 0.5900(6) -0.3131(5) 0.8024(13)
H6A H 0.8596 0.103 0.6578
H6F H 0.397 0.3596 0.8422
H6G H 0.603 -0.3596 0.8422
C5A C 0.7798(5) 0.1330(5) 0.8039(13)
C5F C 0.3670(5) 0.2798(5) 0.6961(13)
C5G C 0.6330(5) -0.2798(5) 0.6961(13)
H7A H 0.8025 0.1771 0.8364
H7F H 0.3229 0.3025 0.6636
H7G H 0.6771 -0.3025 0.6636
N2A N 0.6255(4) -0.2469(4) 1.1609(10)
N2G N 0.2531(4) -0.1255(4) 1.3391(10)
N2F N 0.7469(4) 0.1255(4) 0.3391(10)
H8A H 0.6559 -0.219 1.1093
H8G H 0.281 -0.1559 1.3907
H8F H 0.719 0.1559 0.3907
C6A C 0.5612(5) -0.2176(5) 1.2077(11)
C6G C 0.2824(5) -0.0612(5) 1.2923(11)
C6F C 0.7176(5) 0.0612(5) 0.2923(11)
S4A S 0.54395(11) -0.12512(12) 1.1705(3)
S4G S 0.37488(12) -0.04395(11) 1.3295(3)
S4F S 0.62512(12) 0.04395(11) 0.3295(3)
S4G_2 S 0.37488(12) -0.04395(11) 0.3295(3)
S4F_2 S 0.62512(12) 0.04395(11) 1.3295(3)
S4_2 S 0.45605(11) 0.12512(12) 0.1705(3)
S4A_2 S 0.54395(11) -0.12512(12) 0.1705(3)
C7A C 0.5138(5) -0.2610(5) 1.2910(11)
C7G C 0.2390(5) -0.0138(5) 1.2090(11)
C7F C 0.7610(5) 0.0138(5) 0.2090(11)
H9A H 0.4685 -0.2416 1.326
H9G H 0.2584 0.0315 1.174
H9F H 0.7416 -0.0315 0.174
C8A C 0.5330(6) -0.3337(5) 1.3232(14)
C8G C 0.1663(5) -0.0330(6) 1.1768(14)
C8F C 0.8337(5) 0.0330(6) 0.1768(14)
H10A H 0.5005 -0.3644 1.378
H10G H 0.1356 -0.0005 1.122
H10F H 0.8644 0.0005 0.122
C9A C 0.6007(6) -0.3603(5) 1.2735(13)
C9G C 0.1397(5) -0.1007(6) 1.2265(13)
C9F C 0.8603(5) 0.1007(6) 0.2265(13)
H11A H 0.6155 -0.4088 1.2982
H11G H 0.0912 -0.1155 1.2018
H11F H 0.9088 0.1155 0.2018
C10A C 0.6451(5) -0.3166(5) 1.1898(13)
C10G C 0.1834(5) -0.1451(5) 1.3102(13)
C10F C 0.8166(5) 0.1451(5) 0.3102(13)
H12A H 0.69 -0.3351 1.1515
H12G H 0.1649 -0.19 1.3485
H12F H 0.8351 0.19 0.3485
loop_
_geom_bond_atom_site_label_1
_geom_bond_atom_site_label_2
_geom_bond_site_symmetry_1
_geom_bond_site_symmetry_2
Cu1 S1 1_555 1_555
Cu2 S3 1_555 1_555
Cu3 S2 1_555 1_555
S1 H1 1_555 1_555
S2 H2 1_555 1_555
N1 H3 1_555 1_555
C1 N1 1_555 1_555
S3 Cu1 1_555 1_555
C2 C1 1_555 1_555
H4 C2 1_555 1_555
C3 C2 1_555 1_555
H5 C3 1_555 1_555
C4 C3 1_555 1_555
H6 C4 1_555 1_555
C5 N1 1_555 1_555
H7 C5 1_555 1_555
N2 H8 1_555 1_555
C6 N2 1_555 1_555
S4 Cu1 1_555 1_555
C7 C6 1_555 1_555
H9 C7 1_555 1_555
C8 C7 1_555 1_555
H10 C8 1_555 1_555
C9 C8 1_555 1_555
H11 C9 1_555 1_555
C10 N2 1_555 1_555
H12 C10 1_555 1_555
B1 F1 1_555 1_555
B2 F2 1_555 1_555
Cu1A S1A 1_555 1_555
Cu1F S1F 1_555 1_555
Cu1G S1G 1_555 1_555
Cu1G_2 S4G 1_555 1_555
Cu3A S4 1_555 1_555
Cu3F S2F 1_555 1_555
Cu3G S2G 1_555 1_555
Cu3F_2 S4 1_555 1_555
Cu3G_2 S4A 1_555 1_555
Cu3A_2 S4F 1_555 1_555
S1A H1A 1_555 1_555
S1F H1F 1_555 1_555
S1G H1G 1_555 1_555
S2A Cu3A 1_555 1_555
S2F H2F 1_555 1_555
S2G H2G 1_555 1_555
H2A S2A 1_555 1_555
N1A H3A 1_555 1_555
N1F H3F 1_555 1_555
N1G H3G 1_555 1_555
C1A N1A 1_555 1_555
C1F N1F 1_555 1_555
C1G N1G 1_555 1_555
S3A Cu2 1_555 1_555
S3F Cu2 1_555 1_555
S3G Cu2 1_555 1_555
C2A C1A 1_555 1_555
C2F C1F 1_555 1_555
C2G C1G 1_555 1_555
H4A C2A 1_555 1_555
H4F C2F 1_555 1_555
H4G C2G 1_555 1_555
C3A C2A 1_555 1_555
C3F C2F 1_555 1_555
C3G C2G 1_555 1_555
H5A C3A 1_555 1_555
H5F C3F 1_555 1_555
H5G C3G 1_555 1_555
C4A C3A 1_555 1_555
C4F C3F 1_555 1_555
C4G C3G 1_555 1_555
H6A C4A 1_555 1_555
H6F C4F 1_555 1_555
H6G C4G 1_555 1_555
C5A N1A 1_555 1_555
C5F N1F 1_555 1_555
C5G N1G 1_555 1_555
H7A C5A 1_555 1_555
H7F C5F 1_555 1_555
H7G C5G 1_555 1_555
N2A H8A 1_555 1_555
N2G H8G 1_555 1_555
N2F H8F 1_555 1_555
C6A N2A 1_555 1_555
C6G N2G 1_555 1_555
C6F N2F 1_555 1_555
S4A Cu3 1_555 1_555
S4G Cu3 1_555 1_555
S4F Cu1F 1_555 1_555
S4G_2 Cu1G 1_555 1_555
S4F_2 Cu3A 1_555 1_555
S4_2 Cu3F 1_555 1_555
S4A_2 Cu3G 1_555 1_555
C7A C6A 1_555 1_555
C7G C6G 1_555 1_555
C7F C6F 1_555 1_555
H9A C7A 1_555 1_555
H9G C7G 1_555 1_555
H9F C7F 1_555 1_555
C8A C7A 1_555 1_555
C8G C7G 1_555 1_555
C8F C7F 1_555 1_555
H10A C8A 1_555 1_555
H10G C8G 1_555 1_555
H10F C8F 1_555 1_555
C9A C8A 1_555 1_555
C9G C8G 1_555 1_555
C9F C8F 1_555 1_555
H11A C9A 1_555 1_555
H11G C9G 1_555 1_555
H11F C9F 1_555 1_555
C10A N2A 1_555 1_555
C10G N2G 1_555 1_555
C10F N2F 1_555 1_555
H12A C10A 1_555 1_555
H12G C10G 1_555 1_555
H12F C10F 1_555 1_555
F1A B1 1_555 1_555
F1B B1 1_555 1_555
F1C B1 1_555 1_555
F2A B2 1_555 1_555
F2B B2 1_555 1_555
F2C B2 1_555 1_555
Cu3 S3 1_555 1_555
C1 S3 1_555 1_555
C4 C5 1_555 1_555
C6 S4 1_555 1_555
C9 C10 1_555 1_555
Cu1A S3A 1_555 1_555
Cu1A S4A 1_555 1_555
Cu1F S3F 1_555 1_555
Cu1G S3G 1_555 1_555
Cu3A S3A 1_555 1_555
Cu3F S3F 1_555 1_555
Cu3F S4G_2 1_555 1_555
Cu3G S3G 1_555 1_555
Cu3G S4F 1_555 1_555
Cu3F_2 S4G 1_555 1_555
Cu3G_2 S4F_2 1_555 1_555
Cu3A_2 S4_2 1_555 1_555
C1A S3A 1_555 1_555
C1F S3F 1_555 1_555
C1G S3G 1_555 1_555
C4A C5A 1_555 1_555
C4F C5F 1_555 1_555
C4G C5G 1_555 1_555
C6A S4A 1_555 1_555
C6G S4G 1_555 1_555
C6F S4F 1_555 1_555
C9A C10A 1_555 1_555
C9G C10G 1_555 1_555
C9F C10F 1_555 1_555

#END
