
#######################################################################
#
#                 Cambridge Crystallographic Data Centre
#                                CCDC 
#
#######################################################################
#
# If this CIF has been generated from an entry in the Cambridge 
# Structural Database, then it will include bibliographic, chemical, 
# crystal, experimental, refinement or atomic coordinate data resulting 
# from the CCDC's data processing and validation procedures.
#
#######################################################################

data_EGEBEY
_symmetry_cell_setting           orthorhombic
_symmetry_space_group_name_H-M   'P 21 21 21'
_symmetry_Int_Tables_number      19
_space_group_name_Hall           'P 2ac 2ab'
loop_
_symmetry_equiv_pos_site_id
_symmetry_equiv_pos_as_xyz
1 x,y,z
2 1/2-x,-y,1/2+z
3 1/2+x,1/2-y,-z
4 -x,1/2+y,1/2-z
_cell_length_a                   5.6307(11)
_cell_length_b                   9.4827(19)
_cell_length_c                   9.5418(19)
_cell_angle_alpha                90
_cell_angle_beta                 90
_cell_angle_gamma                90
_cell_volume                     509.477
loop_
_atom_site_label
_atom_site_type_symbol
_atom_site_fract_x
_atom_site_fract_y
_atom_site_fract_z
Cd1 Cd 0.85205(5) 0.33554(2) 0.40860(3)
S1 S 0.37311(16) 0.36458(7) 0.40546(12)
C1 C 0.3679(7) 0.5310(3) 0.5028(4)
H1 H 0.436(7) 0.523(4) 0.5979(18)
H2 H 0.486(5) 0.595(3) 0.459(3)
O1 O 0.1620(6) 0.7416(3) 0.3057(3)
N1 N -0.0484(5) 0.5055(3) 0.5727(3)
O2 O -0.1103(4) 0.5687(2) 0.2995(3)
C2 C 0.1248(7) 0.6010(3) 0.5069(4)
C3 C 0.0479(7) 0.6392(3) 0.3589(4)
H3 H 0.146(6) 0.685(2) 0.567(3)
H4 H -0.183(5) 0.566(4) 0.601(5)
H5 H 0.027(7) 0.452(4) 0.650(3)
Cd1_2 Cd -0.14795(5) 0.33554(2) 0.40860(3)
Cd1B Cd 0.35205(5) 0.16446(2) 0.59140(3)
Cd1C Cd 0.14795(5) 0.83554(2) 0.09140(3)
S1_2 S 1.37311(16) 0.36458(7) 0.40546(12)
S1B S 0.87311(16) 0.13542(7) 0.59454(12)
O1C O 0.8380(6) 0.2416(3) 0.1943(3)
N1_2 N 0.9516(5) 0.5055(3) 0.5727(3)
O2_2 O 0.8897(4) 0.5687(2) 0.2995(3)
H4_2 H 0.817(5) 0.566(4) 0.601(5)
H5_2 H 1.027(7) 0.452(4) 0.650(3)
loop_
_geom_bond_atom_site_label_1
_geom_bond_atom_site_label_2
_geom_bond_site_symmetry_1
_geom_bond_site_symmetry_2
Cd1 S1 1_555 1_555
S1 C1 1_555 1_555
C1 H1 1_555 1_555
H2 C1 1_555 1_555
O1 C3 1_555 1_555
N1 C2 1_555 1_555
O2 C3 1_555 1_555
C2 C1 1_555 1_555
C3 C2 1_555 1_555
H3 C2 1_555 1_555
H4 N1 1_555 1_555
H5 N1 1_555 1_555
Cd1_2 S1 1_555 1_555
Cd1B S1 1_555 1_555
Cd1C O1 1_555 1_555
S1_2 Cd1 1_555 1_555
S1B Cd1 1_555 1_555
O1C Cd1 1_555 1_555
N1_2 Cd1 1_555 1_555
O2_2 Cd1 1_555 1_555
H4_2 N1_2 1_555 1_555
H5_2 N1_2 1_555 1_555
N1 Cd1_2 1_555 1_555
O2 Cd1_2 1_555 1_555
Cd1B S1B 1_555 1_555

#END
