
#######################################################################
#
#                 Cambridge Crystallographic Data Centre
#                                CCDC 
#
#######################################################################
#
# If this CIF has been generated from an entry in the Cambridge 
# Structural Database, then it will include bibliographic, chemical, 
# crystal, experimental, refinement or atomic coordinate data resulting 
# from the CCDC's data processing and validation procedures.
#
#######################################################################

data_EGEBIC
_symmetry_cell_setting           orthorhombic
_symmetry_space_group_name_H-M   'P 21 21 21'
_symmetry_Int_Tables_number      19
_space_group_name_Hall           'P 2ac 2ab'
loop_
_symmetry_equiv_pos_site_id
_symmetry_equiv_pos_as_xyz
1 x,y,z
2 1/2-x,-y,1/2+z
3 1/2+x,1/2-y,-z
4 -x,1/2+y,1/2-z
_cell_length_a                   6.025(3)
_cell_length_b                   8.838(5)
_cell_length_c                   9.402(5)
_cell_angle_alpha                90
_cell_angle_beta                 90
_cell_angle_gamma                90
_cell_volume                     500.647
loop_
_atom_site_label
_atom_site_type_symbol
_atom_site_fract_x
_atom_site_fract_y
_atom_site_fract_z
Zn1 Zn 0.7287(2) 0.17448(13) 0.95215(12)
S1 S 1.1038(5) 0.1476(3) 0.8805(3)
N1 N 0.6750(16) 0.2833(10) 0.7620(9)
H1 H 0.5346 0.2605 0.7300
H2 H 0.6818 0.3861 0.7765
C1 C 1.0657(19) 0.2503(11) 0.7101(10)
H3 H 1.1041 0.3581 0.7247
H4 H 1.1703 0.2086 0.6390
C2 C 0.8374(18) 0.2410(12) 0.6521(13)
H5 H 0.8241 0.3137 0.5710
O1 O 0.9033(13) 0.0239(8) 0.5076(7)
O2 O 0.5985(16) 0.0252(9) 0.6455(9)
C3 C 0.778(2) 0.0839(10) 0.5990(9)
Zn1B Zn 1.2287(2) 0.32552(13) 1.04785(12)
Zn1A Zn 0.7713(2) -0.17448(13) 0.45215(12)
S1B S 0.6038(5) 0.3524(3) 1.1195(3)
O1A O 0.5967(13) -0.0239(8) 1.0076(7)
loop_
_geom_bond_atom_site_label_1
_geom_bond_atom_site_label_2
_geom_bond_site_symmetry_1
_geom_bond_site_symmetry_2
Zn1 S1 1_555 1_555
S1 C1 1_555 1_555
N1 Zn1 1_555 1_555
H1 N1 1_555 1_555
H2 N1 1_555 1_555
C1 H3 1_555 1_555
H4 C1 1_555 1_555
C2 N1 1_555 1_555
H5 C2 1_555 1_555
O1 C3 1_555 1_555
O2 C3 1_555 1_555
C3 C2 1_555 1_555
Zn1B S1 1_555 1_555
Zn1A O1 1_555 1_555
S1B Zn1 1_555 1_555
O1A Zn1 1_555 1_555
C1 C2 1_555 1_555

#END
