
#######################################################################
#
#                 Cambridge Crystallographic Data Centre
#                                CCDC 
#
#######################################################################
#
# If this CIF has been generated from an entry in the Cambridge 
# Structural Database, then it will include bibliographic, chemical, 
# crystal, experimental, refinement or atomic coordinate data resulting 
# from the CCDC's data processing and validation procedures.
#
#######################################################################

data_EGECEZ
_symmetry_cell_setting           orthorhombic
_symmetry_space_group_name_H-M   'P n n m'
_symmetry_Int_Tables_number      58
_space_group_name_Hall           '-P 2 2n'
loop_
_symmetry_equiv_pos_site_id
_symmetry_equiv_pos_as_xyz
1 x,y,z
2 -x,-y,z
3 1/2-x,1/2+y,1/2-z
4 1/2+x,1/2-y,1/2-z
5 -x,-y,-z
6 x,y,-z
7 1/2+x,1/2-y,1/2+z
8 1/2-x,1/2+y,1/2+z
_cell_length_a                   12.2330(13)
_cell_length_b                   14.5403(16)
_cell_length_c                   15.9717(16)
_cell_angle_alpha                90
_cell_angle_beta                 90
_cell_angle_gamma                90
_cell_volume                     2840.91
loop_
_atom_site_label
_atom_site_type_symbol
_atom_site_fract_x
_atom_site_fract_y
_atom_site_fract_z
Cu1 Cu 0.86538(5) -0.04617(5) 0.0000
Cl1 Cl 0.93176(11) 0.10403(10) 0.0000
Cl2 Cl 0.78743(15) -0.18783(13) 0.0000
P1 P 0.57346(8) 0.07498(8) 0.09109(6)
O1 O 0.5770(2) 0.1614(2) 0.15101(18)
C1 C 0.7578(3) 0.0050(3) 0.1548(3)
C2 C 0.8014(4) -0.0312(3) 0.2949(3)
H1 H 0.7874 -0.0280 0.3520
C3 C 0.4911(3) 0.1878(3) 0.2037(3)
C4 C 0.9103(3) -0.0821(3) 0.1806(3)
H2 H 0.9707 -0.1142 0.1607
C5 C 0.8913(4) -0.0795(4) 0.2658(3)
H3 H 0.9378 -0.1095 0.3028
C6 C 0.7327(3) 0.0121(3) 0.2388(3)
H4 H 0.6718 0.0447 0.2570
C7 C 0.3942(4) 0.2156(4) 0.1702(4)
H5 H 0.3811 0.2139 0.1129
C8 C 0.3156(4) 0.2466(4) 0.2268(5)
H6 H 0.2479 0.2672 0.2080
C9 C 0.3401(5) 0.2462(4) 0.3103(5)
H7 H 0.2889 0.2662 0.3493
C10 C 0.4400(5) 0.2163(4) 0.3357(4)
H8 H 0.4555 0.2175 0.3927
O2 O 0.6989(2) 0.0451(2) 0.09143(17)
N1 N 0.5000 0.0000 0.1343(3)
N2 N 0.8443(3) -0.0398(2) 0.1255(2)
N3 N 0.5177(3) 0.1852(3) 0.2834(2)
N4 N 0.5490(4) 0.1082(3) 0.0000
Cu1D Cu 1.13462(5) 0.04617(5) 0.0000
Cu1D_2 Cu 0.13462(5) 0.04617(5) 0.0000
Cl1D Cl 1.06824(11) -0.10403(10) 0.0000
Cl2D Cl 1.21257(15) 0.18783(13) 0.0000
P1A P 0.42654(8) -0.07498(8) 0.09109(6)
P1D P 0.42654(8) -0.07498(8) -0.09109(6)
P1E P 0.57346(8) 0.07498(8) -0.09109(6)
O1A O 0.4230(2) -0.1614(2) 0.15101(18)
O1D O 0.4230(2) -0.1614(2) -0.15101(18)
O1E O 0.5770(2) 0.1614(2) -0.15101(18)
C1A C 0.2422(3) -0.0050(3) 0.1548(3)
C1D C 0.2422(3) -0.0050(3) -0.1548(3)
C1E C 0.7578(3) 0.0050(3) -0.1548(3)
C2A C 0.1986(4) 0.0312(3) 0.2949(3)
C2D C 0.1986(4) 0.0312(3) -0.2949(3)
C2E C 0.8014(4) -0.0312(3) -0.2949(3)
H1A H 0.2126 0.0280 0.3520
H1D H 0.2126 0.0280 -0.3520
H1E H 0.7874 -0.0280 -0.3520
C3A C 0.5089(3) -0.1878(3) 0.2037(3)
C3D C 0.5089(3) -0.1878(3) -0.2037(3)
C3E C 0.4911(3) 0.1878(3) -0.2037(3)
C4A C 0.0897(3) 0.0821(3) 0.1806(3)
C4D C 0.0897(3) 0.0821(3) -0.1806(3)
C4E C 0.9103(3) -0.0821(3) -0.1806(3)
H2A H 0.0293 0.1142 0.1607
H2D H 0.0293 0.1142 -0.1607
H2E H 0.9707 -0.1142 -0.1607
C5A C 0.1087(4) 0.0795(4) 0.2658(3)
C5D C 0.1087(4) 0.0795(4) -0.2658(3)
C5E C 0.8913(4) -0.0795(4) -0.2658(3)
H3A H 0.0622 0.1095 0.3028
H3D H 0.0622 0.1095 -0.3028
H3E H 0.9378 -0.1095 -0.3028
C6A C 0.2673(3) -0.0121(3) 0.2388(3)
C6D C 0.2673(3) -0.0121(3) -0.2388(3)
C6E C 0.7327(3) 0.0121(3) -0.2388(3)
H4A H 0.3282 -0.0447 0.2570
H4D H 0.3282 -0.0447 -0.2570
H4E H 0.6718 0.0447 -0.2570
C7A C 0.6058(4) -0.2156(4) 0.1702(4)
C7D C 0.6058(4) -0.2156(4) -0.1702(4)
C7E C 0.3942(4) 0.2156(4) -0.1702(4)
H5A H 0.6189 -0.2139 0.1129
H5D H 0.6189 -0.2139 -0.1129
H5E H 0.3811 0.2139 -0.1129
C8A C 0.6844(4) -0.2466(4) 0.2268(5)
C8D C 0.6844(4) -0.2466(4) -0.2268(5)
C8E C 0.3156(4) 0.2466(4) -0.2268(5)
H6A H 0.7521 -0.2672 0.2080
H6D H 0.7521 -0.2672 -0.2080
H6E H 0.2479 0.2672 -0.2080
C9A C 0.6599(5) -0.2462(4) 0.3103(5)
C9D C 0.6599(5) -0.2462(4) -0.3103(5)
C9E C 0.3401(5) 0.2462(4) -0.3103(5)
H7A H 0.7111 -0.2662 0.3493
H7D H 0.7111 -0.2662 -0.3493
H7E H 0.2889 0.2662 -0.3493
C10A C 0.5600(5) -0.2163(4) 0.3357(4)
C10D C 0.5600(5) -0.2163(4) -0.3357(4)
C10E C 0.4400(5) 0.2163(4) -0.3357(4)
H8A H 0.5445 -0.2175 0.3927
H8D H 0.5445 -0.2175 -0.3927
H8E H 0.4555 0.2175 -0.3927
O2A O 0.3011(2) -0.0451(2) 0.09143(17)
O2D O 0.3011(2) -0.0451(2) -0.09143(17)
O2E O 0.6989(2) 0.0451(2) -0.09143(17)
N1E N 0.5000 0.0000 -0.1343(3)
N2A N 0.1557(3) 0.0398(2) 0.1255(2)
N2D N 0.1557(3) 0.0398(2) -0.1255(2)
N2E N 0.8443(3) -0.0398(2) -0.1255(2)
N2D_2 N 1.1557(3) 0.0398(2) -0.1255(2)
N2A_2 N 1.1557(3) 0.0398(2) 0.1255(2)
N3A N 0.4823(3) -0.1852(3) 0.2834(2)
N3D N 0.4823(3) -0.1852(3) -0.2834(2)
N3E N 0.5177(3) 0.1852(3) -0.2834(2)
N4D N 0.4510(4) -0.1082(3) 0.0000
N5 N 0.7879(17) 0.8146(15) 0.5000
C11 C 0.8776(18) 0.8456(18) 0.5000
C12 C 0.9854(18) 0.8803(19) 0.5000
O3 O 0.6455(19) 1.0659(15) 0.5000
C13? C 0.8919(13) 0.9531(16) 0.5000
N6? N 0.8003(12) 0.9713(13) 0.5000
C14? C 1.0000 1.0000 0.5000
N7? N 0.690(3) 0.922(2) 0.5000
C15? C 0.745(3) 0.985(2) 0.5000
C16? C 0.767(4) 1.083(2) 0.5000
loop_
_geom_bond_atom_site_label_1
_geom_bond_atom_site_label_2
_geom_bond_site_symmetry_1
_geom_bond_site_symmetry_2
Cu1 Cl1 1_555 1_555
Cl1 Cu1D 1_555 1_555
Cl2 Cu1 1_555 1_555
P1 O1 1_555 1_555
O1 C3 1_555 1_555
C1 C6 1_555 1_555
C2 H1 1_555 1_555
C3 C7 1_555 1_555
C4 H2 1_555 1_555
C5 C2 1_555 1_555
H3 C5 1_555 1_555
C6 C2 1_555 1_555
H4 C6 1_555 1_555
C7 H5 1_555 1_555
C8 C7 1_555 1_555
H6 C8 1_555 1_555
C9 C8 1_555 1_555
H7 C9 1_555 1_555
C10 C9 1_555 1_555
H8 C10 1_555 1_555
O2 P1 1_555 1_555
N1 P1 1_555 1_555
N2 Cu1 1_555 1_555
N3 C3 1_555 1_555
N4 P1 1_555 1_555
N5 C11 1_555 1_555
C11 C12 1_555 1_555
Cu1D Cl1D 1_555 1_555
Cu1D_2 N2A 1_555 1_555
Cl1D Cu1 1_555 1_555
Cl2D Cu1D 1_555 1_555
P1A N1 1_555 1_555
P1D O1D 1_555 1_555
P1E N4 1_555 1_555
O1A P1A 1_555 1_555
O1D C3D 1_555 1_555
O1E P1E 1_555 1_555
C1A C6A 1_555 1_555
C1D C6D 1_555 1_555
C1E C6E 1_555 1_555
C2A H1A 1_555 1_555
C2D H1D 1_555 1_555
C2E H1E 1_555 1_555
C3A O1A 1_555 1_555
C3D C7D 1_555 1_555
C3E O1E 1_555 1_555
C4A H2A 1_555 1_555
C4D H2D 1_555 1_555
C4E H2E 1_555 1_555
C5A C2A 1_555 1_555
C5D C2D 1_555 1_555
C5E C2E 1_555 1_555
H3A C5A 1_555 1_555
H3D C5D 1_555 1_555
H3E C5E 1_555 1_555
C6A C2A 1_555 1_555
C6D C2D 1_555 1_555
C6E C2E 1_555 1_555
H4A C6A 1_555 1_555
H4D C6D 1_555 1_555
H4E C6E 1_555 1_555
C7A C3A 1_555 1_555
C7D H5D 1_555 1_555
C7E C3E 1_555 1_555
H5A C7A 1_555 1_555
H5E C7E 1_555 1_555
C8A C7A 1_555 1_555
C8D C7D 1_555 1_555
C8E C7E 1_555 1_555
H6A C8A 1_555 1_555
H6D C8D 1_555 1_555
H6E C8E 1_555 1_555
C9A C8A 1_555 1_555
C9D C8D 1_555 1_555
C9E C8E 1_555 1_555
H7A C9A 1_555 1_555
H7D C9D 1_555 1_555
H7E C9E 1_555 1_555
C10A C9A 1_555 1_555
C10D C9D 1_555 1_555
C10E C9E 1_555 1_555
H8A C10A 1_555 1_555
H8D C10D 1_555 1_555
H8E C10E 1_555 1_555
O2A P1A 1_555 1_555
O2D P1D 1_555 1_555
O2E P1E 1_555 1_555
N1E P1D 1_555 1_555
N2A C1A 1_555 1_555
N2D Cu1D_2 1_555 1_555
N2E Cu1 1_555 1_555
N2D_2 Cu1D 1_555 1_555
N2A_2 Cu1D 1_555 1_555
N3A C3A 1_555 1_555
N3D C3D 1_555 1_555
N3E C3E 1_555 1_555
N4D P1A 1_555 1_555
C1 O2 1_555 1_555
C1 N2 1_555 1_555
C4 C5 1_555 1_555
C4 N2 1_555 1_555
C10 N3 1_555 1_555
P1D N4D 1_555 1_555
P1E N1E 1_555 1_555
C1A O2A 1_555 1_555
C1D O2D 1_555 1_555
C1D N2D 1_555 1_555
C1E O2E 1_555 1_555
C1E N2E 1_555 1_555
C4A C5A 1_555 1_555
C4A N2A 1_555 1_555
C4D C5D 1_555 1_555
C4D N2D 1_555 1_555
C4E C5E 1_555 1_555
C4E N2E 1_555 1_555
C10A N3A 1_555 1_555
C10D N3D 1_555 1_555
C10E N3E 1_555 1_555

#END
