
#######################################################################
#
#                 Cambridge Crystallographic Data Centre
#                                CCDC 
#
#######################################################################
#
# If this CIF has been generated from an entry in the Cambridge 
# Structural Database, then it will include bibliographic, chemical, 
# crystal, experimental, refinement or atomic coordinate data resulting 
# from the CCDC's data processing and validation procedures.
#
#######################################################################

data_EGEDOL
_symmetry_cell_setting           monoclinic
_symmetry_space_group_name_H-M   'P 21/c'
_symmetry_Int_Tables_number      14
_space_group_name_Hall           '-P 2ybc'
loop_
_symmetry_equiv_pos_site_id
_symmetry_equiv_pos_as_xyz
1 x,y,z
2 -x,1/2+y,1/2-z
3 -x,-y,-z
4 x,1/2-y,1/2+z
_cell_length_a                   10.3791(6)
_cell_length_b                   17.5735(8)
_cell_length_c                   8.1030(3)
_cell_angle_alpha                90
_cell_angle_beta                 100.512(3)
_cell_angle_gamma                90
_cell_volume                     1453.16
loop_
_atom_site_label
_atom_site_type_symbol
_atom_site_fract_x
_atom_site_fract_y
_atom_site_fract_z
C1 C -0.00175(18) 0.64240(12) 0.9704(2)
H1 H 0.0112 0.5883 0.9980
H2 H 0.0053 0.6720 1.0741
H3 H 0.0653 0.6594 0.9078
C2 C -0.32606(17) 0.64859(10) 0.6214(2)
C3 C -0.35943(17) 0.72187(10) 0.6659(2)
H4 H -0.2989 0.7510 0.7428
C4 C -0.48014(17) 0.75185(10) 0.5982(2)
H5 H -0.5025 0.8016 0.6290
C5 C -0.56941(17) 0.70998(10) 0.4852(2)
C6 C -0.53937(17) 0.63641(10) 0.4425(2)
H6 H -0.6010 0.6070 0.3676
C7 C -0.41718(17) 0.60655(10) 0.5115(2)
H7 H -0.3957 0.5563 0.4827
C8 C -0.77761(17) 0.70741(11) 0.3013(2)
H8 H -0.7360 0.6906 0.2083
H9 H -0.8505 0.7417 0.2585
H10 H -0.8107 0.6631 0.3538
C9 C -0.22953(17) 0.55529(11) 0.1802(2)
H11 H -0.1721 0.5977 0.1873
C10 C -0.34702(17) 0.55887(11) 0.0677(2)
H12 H -0.3673 0.6022 -0.0022
C11 C -0.43516(17) 0.49879(10) 0.0575(2)
C12 C -0.39584(18) 0.43597(11) 0.1594(2)
H13 H -0.4517 0.3930 0.1563
C13 C -0.27497(18) 0.43661(11) 0.2652(2)
H14 H -0.2494 0.3927 0.3316
N1 N -0.19236(15) 0.49556(8) 0.2792(2)
O1 O -0.12995(12) 0.65339(7) 0.86919(16)
O2 O -0.68397(12) 0.74646(7) 0.42235(17)
P1 P -0.16434(4) 0.61181(3) 0.69173(6)
S1 S -0.16540(4) 0.49911(2) 0.71843(6)
S2 S -0.04333(4) 0.64747(2) 0.54092(6)
Cd1 Cd 0.0000 0.5000 0.5000
C9B C -0.77047(17) 0.44471(11) -0.1802(2)
H11B H -0.8279 0.4023 -0.1873
C10B C -0.65298(17) 0.44113(11) -0.0677(2)
H12B H -0.6327 0.3978 0.0022
C11B C -0.56484(17) 0.50121(10) -0.0575(2)
C12B C -0.60416(18) 0.56403(11) -0.1594(2)
H13B H -0.5483 0.6070 -0.1563
C13B C -0.72503(18) 0.56339(11) -0.2652(2)
H14B H -0.7506 0.6073 -0.3316
N1B N -0.80764(15) 0.50444(8) -0.2792(2)
C1B C 0.00175(18) 0.35760(12) 0.0296(2)
H1B H -0.0112 0.4117 0.0020
H2B H -0.0053 0.3280 -0.0741
H3B H -0.0653 0.3406 0.0922
C2B C 0.32606(17) 0.35141(10) 0.3786(2)
C3B C 0.35943(17) 0.27813(10) 0.3341(2)
H4B H 0.2989 0.2490 0.2572
C4B C 0.48014(17) 0.24815(10) 0.4018(2)
H5B H 0.5025 0.1984 0.3710
C5B C 0.56941(17) 0.29002(10) 0.5148(2)
C6B C 0.53937(17) 0.36359(10) 0.5575(2)
H6B H 0.6010 0.3930 0.6324
C7B C 0.41718(17) 0.39345(10) 0.4885(2)
H7B H 0.3957 0.4437 0.5173
C8B C 0.77761(17) 0.29259(11) 0.6987(2)
H8B H 0.7360 0.3094 0.7917
H9B H 0.8505 0.2583 0.7415
H10B H 0.8107 0.3369 0.6462
O1B O 0.12995(12) 0.34661(7) 0.13081(16)
O2B O 0.68397(12) 0.25354(7) 0.57765(17)
P1B P 0.16434(4) 0.38819(3) 0.30827(6)
S1B S 0.16540(4) 0.50089(2) 0.28157(6)
S2B S 0.04333(4) 0.35253(2) 0.45908(6)
N1B_2 N 0.19236(15) 0.50444(8) 0.7208(2)
Cd1_2 Cd -1.0000 0.5000 -0.5000
loop_
_geom_bond_atom_site_label_1
_geom_bond_atom_site_label_2
_geom_bond_site_symmetry_1
_geom_bond_site_symmetry_2
C1 H1 1_555 1_555
H2 C1 1_555 1_555
H3 C1 1_555 1_555
C2 C3 1_555 1_555
C3 H4 1_555 1_555
C4 C3 1_555 1_555
H5 C4 1_555 1_555
C5 C4 1_555 1_555
C6 C5 1_555 1_555
H6 C6 1_555 1_555
C7 C2 1_555 1_555
H7 C7 1_555 1_555
C8 H8 1_555 1_555
H9 C8 1_555 1_555
H10 C8 1_555 1_555
C9 H11 1_555 1_555
C10 C9 1_555 1_555
H12 C10 1_555 1_555
C11 C10 1_555 1_555
C12 C11 1_555 1_555
H13 C12 1_555 1_555
C13 C12 1_555 1_555
H14 C13 1_555 1_555
N1 C9 1_555 1_555
O1 C1 1_555 1_555
O2 C5 1_555 1_555
P1 C2 1_555 1_555
S1 P1 1_555 1_555
S2 P1 1_555 1_555
Cd1 N1 1_555 1_555
C9B H11B 1_555 1_555
C10B C9B 1_555 1_555
H12B C10B 1_555 1_555
C11B C11 1_555 1_555
C12B C11B 1_555 1_555
H13B C12B 1_555 1_555
C13B C12B 1_555 1_555
H14B C13B 1_555 1_555
N1B C9B 1_555 1_555
C1B H1B 1_555 1_555
H2B C1B 1_555 1_555
H3B C1B 1_555 1_555
C2B C3B 1_555 1_555
C3B H4B 1_555 1_555
C4B C3B 1_555 1_555
H5B C4B 1_555 1_555
C5B C4B 1_555 1_555
C6B C5B 1_555 1_555
H6B C6B 1_555 1_555
C7B C2B 1_555 1_555
H7B C7B 1_555 1_555
C8B H8B 1_555 1_555
H9B C8B 1_555 1_555
H10B C8B 1_555 1_555
O1B C1B 1_555 1_555
O2B C5B 1_555 1_555
P1B C2B 1_555 1_555
S1B Cd1 1_555 1_555
S2B Cd1 1_555 1_555
N1B_2 Cd1 1_555 1_555
Cd1_2 N1B 1_555 1_555
C6 C7 1_555 1_555
C8 O2 1_555 1_555
C13 N1 1_555 1_555
O1 P1 1_555 1_555
S1 Cd1 1_555 1_555
S2 Cd1 1_555 1_555
C10B C11B 1_555 1_555
C13B N1B 1_555 1_555
C6B C7B 1_555 1_555
C8B O2B 1_555 1_555
O1B P1B 1_555 1_555
P1B S1B 1_555 1_555
P1B S2B 1_555 1_555

#END
