
#######################################################################
#
#                 Cambridge Crystallographic Data Centre
#                                CCDC 
#
#######################################################################
#
# If this CIF has been generated from an entry in the Cambridge 
# Structural Database, then it will include bibliographic, chemical, 
# crystal, experimental, refinement or atomic coordinate data resulting 
# from the CCDC's data processing and validation procedures.
#
#######################################################################

data_EGEJEG
_symmetry_cell_setting           rhombohedral
_symmetry_space_group_name_H-M   'R -3 m'
_symmetry_Int_Tables_number      166
_space_group_name_Hall           '-R 3 2"'
loop_
_symmetry_equiv_pos_site_id
_symmetry_equiv_pos_as_xyz
1 x,y,z
2 -y,x-y,z
3 y,x,-z
4 -x+y,-x,z
5 2/3+x,1/3+y,1/3+z
6 2/3-y,1/3+x-y,1/3+z
7 2/3+y,1/3+x,1/3-z
8 2/3-x+y,1/3-x,1/3+z
9 1/3+x,2/3+y,2/3+z
10 1/3+y,2/3+x,2/3-z
11 -x,-x+y,-z
12 x-y,-y,-z
13 1/3-y,2/3+x-y,2/3+z
14 1/3-x+y,2/3-x,2/3+z
15 1/3-x,2/3-x+y,2/3-z
16 1/3+x-y,2/3-y,2/3-z
17 2/3-x,1/3-x+y,1/3-z
18 2/3+x-y,1/3-y,1/3-z
19 -x,-y,-z
20 y,-x+y,-z
21 -y,-x,z
22 x-y,x,-z
23 1/3-x,2/3-y,2/3-z
24 1/3+y,2/3-x+y,2/3-z
25 1/3-y,2/3-x,2/3+z
26 1/3+x-y,2/3+x,2/3-z
27 2/3-x,1/3-y,1/3-z
28 2/3-y,1/3-x,1/3+z
29 x,x-y,z
30 -x+y,y,z
31 2/3+y,1/3-x+y,1/3-z
32 2/3+x-y,1/3+x,1/3-z
33 2/3+x,1/3+x-y,1/3+z
34 2/3-x+y,1/3+y,1/3+z
35 1/3+x,2/3+x-y,2/3+z
36 1/3-x+y,2/3+y,2/3+z
_cell_length_a                   59.826
_cell_length_b                   59.826
_cell_length_c                   82.954
_cell_angle_alpha                90
_cell_angle_beta                 90
_cell_angle_gamma                120.00
_cell_volume                     257127
loop_
_atom_site_label
_atom_site_type_symbol
_atom_site_fract_x
_atom_site_fract_y
_atom_site_fract_z
Pt1 Pt 0.441389(18) 0.337521(17) 0.917883(9)
Fe1 Fe 0.39675(6) 0.34888(6) 0.95343(3)
P1 P 0.45288(11) 0.37406(10) 0.93225(6)
P2 P 0.41167(11) 0.30822(10) 0.93525(6)
N1 N 0.5510(5) 0.4490(2) 0.8059(3)
N2 N 0.5521(3) 0.4479(3) 0.8556(3)
C1 C 0.4543(5) 0.3985(3) 0.91807(16)
C2 C 0.4319(3) 0.3955(3) 0.9109(2)
H1 H 0.4160 0.3815 0.9136
C3 C 0.4334(4) 0.4134(5) 0.8997(2)
H2 H 0.4185 0.4114 0.8949
C4 C 0.4573(6) 0.4344(4) 0.89561(17)
H3 H 0.4583 0.4464 0.8881
C5 C 0.4796(4) 0.4374(3) 0.9028(2)
H4 H 0.4956 0.4514 0.9001
C6 C 0.4781(3) 0.4194(4) 0.9140(2)
C7 C 0.4836(2) 0.3864(4) 0.94174(17)
C8 C 0.4982(4) 0.3745(2) 0.94030(15)
H5 H 0.4923 0.3597 0.9340
C9 C 0.5218(4) 0.3845(4) 0.9483(2)
H6 H 0.5316 0.3765 0.9473
C10 C 0.5306(2) 0.4066(4) 0.95764(18)
H7 H 0.5464 0.4134 0.9630
C11 C 0.5159(4) 0.4186(2) 0.95907(15)
H8 H 0.5219 0.4334 0.9653
C12 C 0.4924(4) 0.4085(4) 0.9511(2)
H9 H 0.4826 0.4166 0.9521
C13 C 0.4335(3) 0.3749(4) 0.9486(2)
C14 C 0.4189(4) 0.3877(3) 0.9486(2)
H10 H 0.4169 0.3964 0.9400
C15 C 0.4077(3) 0.3847(4) 0.9641(3)
H11 H 0.3972 0.3911 0.9674
C16 C 0.4155(4) 0.3701(4) 0.97372(16)
H12 H 0.4109 0.3653 0.9844
C17 C 0.4314(4) 0.3641(3) 0.9641(3)
H13 H 0.4392 0.3547 0.9674
C18 C 0.3878(3) 0.3165(3) 0.9412(2)
C19 C 0.3751(4) 0.3111(3) 0.95633(19)
H14 H 0.3772 0.3021 0.9648
C20 C 0.3587(3) 0.3220(3) 0.9564(2)
H15 H 0.3482 0.3212 0.9648
C21 C 0.3613(3) 0.3340(3) 0.9412(3)
H16 H 0.3527 0.3426 0.9380
C22 C 0.3792(4) 0.3307(3) 0.93182(14)
H17 H 0.3844 0.3367 0.9214
C23 C 0.4244(5) 0.3017(5) 0.9527(2)
C24 C 0.4507(5) 0.3164(3) 0.9557(2)
H18 H 0.4614 0.3294 0.9486
C25 C 0.4610(3) 0.3117(4) 0.9695(3)
H19 H 0.4786 0.3215 0.9715
C26 C 0.4451(6) 0.2922(5) 0.98010(19)
H20 H 0.4520 0.2891 0.9893
C27 C 0.4188(5) 0.2775(3) 0.9770(3)
H21 H 0.4081 0.2645 0.9841
C28 C 0.4084(3) 0.2823(4) 0.9633(3)
H22 H 0.3908 0.2724 0.9612
C29 C 0.3920(5) 0.2767(3) 0.9251(2)
C30 C 0.4004(3) 0.2589(6) 0.9251(2)
H23 H 0.4155 0.2626 0.9305
C31 C 0.3863(6) 0.2355(5) 0.9171(3)
H24 H 0.3919 0.2236 0.9171
C32 C 0.3637(5) 0.2300(3) 0.9090(2)
H25 H 0.3543 0.2144 0.9036
C33 C 0.3553(3) 0.2478(6) 0.9090(2)
H26 H 0.3402 0.2441 0.9036
C34 C 0.3694(5) 0.2712(5) 0.9171(3)
H27 H 0.3637 0.2831 0.9171
N3 N 0.4610(3) 0.3574(2) 0.76452(12)
C35 C 0.4870(2) 0.3647(3) 0.76466(15)
H28 H 0.4936 0.3584 0.7569
C36 C 0.5032(3) 0.3815(3) 0.7765(2)
H29 H 0.5206 0.3864 0.7766
C37 C 0.4934(4) 0.3909(2) 0.78815(16)
C38 C 0.4673(3) 0.3835(3) 0.78800(14)
H30 H 0.4607 0.3898 0.7958
C39 C 0.4511(2) 0.3668(3) 0.77619(18)
H31 H 0.4337 0.3619 0.7761
C40 C 0.5040(3) 0.3985(4) 0.81681(15)
C41 C 0.4838(3) 0.3743(3) 0.8224(2)
H32 H 0.4725 0.3606 0.8159
C42 C 0.4840(3) 0.3747(3) 0.8395(2)
H33 H 0.4728 0.3613 0.8462
C43 C 0.5043(3) 0.3992(3) 0.84450(15)
N4 N 0.5166(3) 0.4139(2) 0.8305(2)
C44 C 0.5109(5) 0.4090(5) 0.8017(2)
C45 C 0.5326(4) 0.4324(5) 0.7975(2)
C46 C 0.5381(4) 0.4419(3) 0.7794(2)
H34 H 0.5278 0.4336 0.7705
N5 N 0.4656(3) 0.3605(2) 0.89954(13)
C47 C 0.4916(3) 0.3678(3) 0.89883(18)
H35 H 0.4990 0.3632 0.9071
C48 C 0.5065(2) 0.3821(3) 0.8858(2)
H36 H 0.5239 0.3870 0.8853
C49 C 0.4954(4) 0.3890(2) 0.87347(17)
C50 C 0.4694(4) 0.3817(3) 0.87418(16)
H37 H 0.4620 0.3864 0.8659
C51 C 0.4545(2) 0.3675(3) 0.8872(2)
H38 H 0.4371 0.3626 0.8877
C52 C 0.5122(5) 0.4075(5) 0.8600(3)
C53 C 0.5337(4) 0.4309(4) 0.8649(2)
C54 C 0.5367(4) 0.4397(4) 0.8816(2)
H39 H 0.5256 0.4317 0.8903
Pt1T Pt 0.662479(17) 0.558611(18) 0.917883(9)
Pt1O Pt 0.437201(25) 0.329146(17) 0.748784(9)
Pt1W Pt 0.670854(17) 0.562799(25) 0.748784(9)
Fe1T Fe 0.65112(6) 0.60325(6) 0.95343(3)
P1T P 0.62594(10) 0.54712(11) 0.93225(6)
P2T P 0.69178(10) 0.58833(11) 0.93525(6)
C1T C 0.6015(3) 0.5457(5) 0.91807(16)
C2T C 0.6045(3) 0.5681(3) 0.9109(2)
H1T H 0.6185 0.5840 0.9136
C3T C 0.5866(5) 0.5666(4) 0.8997(2)
H2T H 0.5886 0.5815 0.8949
C4T C 0.5656(4) 0.5427(6) 0.89561(17)
H3T H 0.5536 0.5417 0.8881
C5T C 0.5626(3) 0.5204(4) 0.9028(2)
H4T H 0.5486 0.5044 0.9001
C6T C 0.5806(4) 0.5219(3) 0.9140(2)
C7T C 0.6136(4) 0.5164(2) 0.94174(17)
C8T C 0.6255(2) 0.5018(4) 0.94030(15)
H5T H 0.6403 0.5077 0.9340
C9T C 0.6155(4) 0.4782(4) 0.9483(2)
H6T H 0.6235 0.4684 0.9473
C10T C 0.5934(4) 0.4694(2) 0.95764(18)
H7T H 0.5866 0.4536 0.9630
C11T C 0.5814(2) 0.4841(4) 0.95907(15)
H8T H 0.5666 0.4781 0.9653
C12T C 0.5915(4) 0.5076(4) 0.9511(2)
H9T H 0.5834 0.5174 0.9521
C13T C 0.6251(4) 0.5665(3) 0.9486(2)
C14T C 0.6123(3) 0.5811(4) 0.9486(2)
H10T H 0.6036 0.5831 0.9400
C15T C 0.6153(4) 0.5923(3) 0.9641(3)
H11T H 0.6089 0.6028 0.9674
C16T C 0.6299(4) 0.5845(4) 0.97372(16)
H12T H 0.6347 0.5891 0.9844
C17T C 0.6359(3) 0.5686(4) 0.9641(3)
H13T H 0.6453 0.5608 0.9674
C18T C 0.6835(3) 0.6122(3) 0.9412(2)
C19T C 0.6889(3) 0.6249(4) 0.95633(19)
H14T H 0.6979 0.6228 0.9648
C20T C 0.6780(3) 0.6413(3) 0.9564(2)
H15T H 0.6788 0.6518 0.9648
C21T C 0.6660(3) 0.6387(3) 0.9412(3)
H16T H 0.6574 0.6473 0.9380
C22T C 0.6693(3) 0.6208(4) 0.93182(14)
H17T H 0.6633 0.6156 0.9214
C23T C 0.6983(5) 0.5756(5) 0.9527(2)
C24T C 0.6836(3) 0.5493(5) 0.9557(2)
H18T H 0.6706 0.5386 0.9486
C25T C 0.6883(4) 0.5390(3) 0.9695(3)
H19T H 0.6785 0.5214 0.9715
C26T C 0.7078(5) 0.5549(6) 0.98010(19)
H20T H 0.7109 0.5480 0.9893
C27T C 0.7225(3) 0.5812(5) 0.9770(3)
H21T H 0.7355 0.5919 0.9841
C28T C 0.7177(4) 0.5916(3) 0.9633(3)
H22T H 0.7276 0.6092 0.9612
C29T C 0.7233(3) 0.6080(5) 0.9251(2)
C30T C 0.7411(6) 0.5996(3) 0.9251(2)
H23T H 0.7374 0.5845 0.9305
C31T C 0.7645(5) 0.6137(6) 0.9171(3)
H24T H 0.7764 0.6081 0.9171
C32T C 0.7700(3) 0.6363(5) 0.9090(2)
H25T H 0.7856 0.6457 0.9036
C33T C 0.7522(6) 0.6447(3) 0.9090(2)
H26T H 0.7559 0.6598 0.9036
C34T C 0.7288(5) 0.6306(5) 0.9171(3)
H27T H 0.7169 0.6363 0.9171
N3T N 0.6426(2) 0.5390(3) 0.76452(12)
N3O N 0.4369(4) 0.3093(2) 0.90215(12)
N3W N 0.6907(2) 0.5631(4) 0.90215(12)
C35T C 0.6353(3) 0.5130(2) 0.76466(15)
H28T H 0.6416 0.5064 0.7569
C36T C 0.6185(3) 0.4968(3) 0.7765(2)
H29T H 0.6136 0.4794 0.7766
C37T C 0.6091(2) 0.5066(4) 0.78815(16)
C38T C 0.6165(3) 0.5327(3) 0.78800(14)
H30T H 0.6102 0.5393 0.7958
C39T C 0.6332(3) 0.5489(2) 0.77619(18)
H31T H 0.6381 0.5663 0.7761
C40T C 0.6015(4) 0.4960(3) 0.81681(15)
C41T C 0.6257(3) 0.5162(3) 0.8224(2)
H32T H 0.6394 0.5275 0.8159
C42T C 0.6253(3) 0.5160(3) 0.8395(2)
H33T H 0.6387 0.5272 0.8462
C43T C 0.6008(3) 0.4957(3) 0.84450(15)
N4T N 0.5861(2) 0.4834(3) 0.8305(2)
C44T C 0.5910(5) 0.4891(5) 0.8017(2)
C45T C 0.5676(5) 0.4674(4) 0.7975(2)
C46T C 0.5581(3) 0.4619(4) 0.7794(2)
H34T H 0.5664 0.4722 0.7705
N5T N 0.6395(2) 0.5344(3) 0.89954(13)
C47T C 0.6322(3) 0.5084(3) 0.89883(18)
H35T H 0.6368 0.5010 0.9071
C48T C 0.6179(3) 0.4935(2) 0.8858(2)
H36T H 0.6130 0.4761 0.8853
C49T C 0.6110(2) 0.5046(4) 0.87347(17)
C50T C 0.6183(3) 0.5306(4) 0.87418(16)
H37T H 0.6136 0.5380 0.8659
C51T C 0.6325(3) 0.5455(2) 0.8872(2)
H38T H 0.6374 0.5629 0.8877
C52T C 0.5925(5) 0.4878(5) 0.8600(3)
C53T C 0.5691(4) 0.4663(4) 0.8649(2)
C54T C 0.5603(4) 0.4633(4) 0.8816(2)
H39T H 0.5683 0.4744 0.8903
Pt2 Pt 0.223677(19) 0.22689(2) 0.723430(11)
Pt3 Pt 0.22744(2) 0.22441(2) 0.893434(14)
Fe2 Fe 0.26906(7) 0.27991(9) 0.68789(4)
Fe3 Fe 0.27774(11) 0.26731(10) 0.93142(6)
P3 P 0.25233(12) 0.22443(13) 0.70657(6)
P4 P 0.21322(13) 0.25171(14) 0.70825(7)
P5 P 0.25630(16) 0.21717(17) 0.90643(10)
P6 P 0.22108(16) 0.24889(17) 0.91190(9)
N6 N 0.2291(5) 0.1145(3) 0.7825(3)
N7 N 0.2275(7) 0.1137(3) 0.8302(4)
N8 N 0.1176(4) 0.2352(7) 0.7861(4)
N9 N 0.1162(4) 0.2323(7) 0.8343(4)
C55 C 0.1810(3) 0.2337(6) 0.6996(2)
C56 C 0.1665(6) 0.2070(6) 0.70131(19)
H40 H 0.1724 0.1985 0.7079
C57 C 0.1432(5) 0.1932(3) 0.6932(3)
H41 H 0.1334 0.1754 0.6944
C58 C 0.1344(3) 0.2060(7) 0.6833(3)
H42 H 0.1188 0.1967 0.6779
C59 C 0.1489(6) 0.2326(7) 0.68160(19)
H43 H 0.1431 0.2412 0.6750
C60 C 0.1723(5) 0.2465(3) 0.6897(3)
H44 H 0.1820 0.2643 0.6886
C61 C 0.2115(7) 0.2757(4) 0.7222(2)
C62 C 0.1883(4) 0.2744(4) 0.7259(3)
H45 H 0.1730 0.2618 0.7212
C63 C 0.1878(5) 0.2920(6) 0.7367(3)
H46 H 0.1723 0.2911 0.7392
C64 C 0.2106(8) 0.3108(5) 0.7437(2)
H47 H 0.2103 0.3225 0.7509
C65 C 0.2339(5) 0.3121(4) 0.7400(3)
H48 H 0.2491 0.3246 0.7447
C66 C 0.2343(4) 0.2945(6) 0.7292(3)
H49 H 0.2499 0.2954 0.7267
C67 C 0.2325(4) 0.2692(6) 0.6913(2)
C68 C 0.2347(4) 0.2582(4) 0.6767(4)
H50 H 0.2269 0.2406 0.6744
C69 C 0.2507(5) 0.2786(7) 0.6661(2)
H51 H 0.2553 0.2769 0.6557
C70 C 0.2585(4) 0.3023(5) 0.6742(4)
H52 H 0.2691 0.3187 0.6701
C71 C 0.2473(5) 0.2964(6) 0.6898(3)
H53 H 0.2492 0.3084 0.6977
C72 C 0.2770(3) 0.2551(3) 0.7007(3)
C73 C 0.2836(4) 0.2771(5) 0.71042(18)
H54 H 0.2769 0.2770 0.7205
C74 C 0.3023(4) 0.2993(3) 0.7020(4)
H55 H 0.3099 0.3162 0.7056
C75 C 0.3072(4) 0.2910(6) 0.6870(3)
H56 H 0.3187 0.3016 0.6791
C76 C 0.2916(5) 0.2637(6) 0.6862(2)
H57 H 0.2911 0.2533 0.6777
C77 C 0.2697(4) 0.2106(6) 0.7163(2)
C78 C 0.2608(3) 0.1843(5) 0.7151(2)
H58 H 0.2464 0.1739 0.7088
C79 C 0.2734(6) 0.1736(3) 0.7234(3)
H59 H 0.2675 0.1560 0.7227
C80 C 0.2949(5) 0.1892(6) 0.7328(2)
H60 H 0.3034 0.1821 0.7383
C81 C 0.3038(3) 0.2155(5) 0.73393(19)
H61 H 0.3182 0.2260 0.7402
C82 C 0.2912(4) 0.2262(3) 0.7257(2)
H62 H 0.2971 0.2438 0.7264
C83 C 0.2396(6) 0.2056(3) 0.6894(2)
C84 C 0.2548(3) 0.2017(4) 0.6784(3)
H63 H 0.2725 0.2096 0.6799
C85 C 0.2435(6) 0.1859(5) 0.6650(3)
H64 H 0.2537 0.1833 0.6576
C86 C 0.2170(6) 0.1740(4) 0.6627(2)
H65 H 0.2094 0.1635 0.6538
C87 C 0.2017(3) 0.1779(5) 0.6737(4)
H66 H 0.1840 0.1699 0.6722
C88 C 0.2130(5) 0.1936(5) 0.6871(3)
H67 H 0.2028 0.1962 0.6945
N10 N 0.2272(4) 0.2029(4) 0.73978(15)
C89 C 0.2088(3) 0.1768(4) 0.7403(2)
H68 H 0.1961 0.1698 0.7324
C90 C 0.2094(3) 0.1614(2) 0.7526(3)
H69 H 0.1971 0.1439 0.7529
C91 C 0.2284(4) 0.1719(4) 0.7644(2)
C92 C 0.2468(3) 0.1980(4) 0.76388(17)
H70 H 0.2595 0.2051 0.7718
C93 C 0.2462(3) 0.2135(2) 0.7516(2)
H71 H 0.2586 0.2310 0.7513
C94 C 0.2279(6) 0.1538(6) 0.7782(4)
C95 C 0.2311(6) 0.1344(6) 0.7729(3)
C96 C 0.2359(4) 0.1288(4) 0.7554(3)
H72 H 0.2384 0.1391 0.7464
C97 C 0.2253(4) 0.1609(4) 0.79274(18)
C98 C 0.2216(4) 0.1814(4) 0.7979(3)
H73 H 0.2196 0.1928 0.7912
C99 C 0.2214(4) 0.1815(4) 0.8150(3)
H74 H 0.2192 0.1929 0.8215
C100 C 0.2250(4) 0.1610(4) 0.82044(18)
N11 N 0.2274(3) 0.1483(3) 0.8067(3)
C101 C 0.2272(6) 0.1550(6) 0.8356(4)
C102 C 0.2283(6) 0.1312(6) 0.8407(3)
C103 C 0.2351(5) 0.1282(4) 0.8580(3)
H75 H 0.2385 0.1394 0.8666
C104 C 0.2268(5) 0.1714(5) 0.8491(2)
C105 C 0.2092(4) 0.1600(3) 0.8616(3)
H76 H 0.1972 0.1425 0.8613
C106 C 0.2095(3) 0.1749(5) 0.8746(2)
H77 H 0.1977 0.1673 0.8830
N12 N 0.2274(4) 0.2011(4) 0.87507(19)
C107 C 0.2450(3) 0.2125(3) 0.8626(3)
H78 H 0.2570 0.2300 0.8629
C108 C 0.2447(3) 0.1976(5) 0.8496(2)
H79 H 0.2565 0.2052 0.8412
N13 N 0.2001(4) 0.2273(4) 0.74204(16)
C109 C 0.1737(4) 0.2104(3) 0.7433(2)
H80 H 0.1652 0.1978 0.7354
C110 C 0.1600(3) 0.2122(4) 0.7562(3)
H81 H 0.1423 0.2009 0.7570
C111 C 0.1727(5) 0.2310(5) 0.76795(19)
C112 C 0.1991(5) 0.2479(3) 0.7667(2)
H82 H 0.2076 0.2604 0.7746
C113 C 0.2128(3) 0.2460(3) 0.7538(3)
H83 H 0.2305 0.2574 0.7530
C114 C 0.1577(6) 0.2331(6) 0.7808(4)
C115 C 0.1352(6) 0.2339(6) 0.7763(4)
C116 C 0.1306(4) 0.2387(5) 0.7593(3)
H84 H 0.1411 0.2412 0.7505
C117 C 0.1624(4) 0.2294(4) 0.7968(2)
N14 N 0.1504(3) 0.2328(4) 0.8106(3)
C118 C 0.1640(4) 0.2320(4) 0.8244(2)
C119 C 0.1844(4) 0.2281(4) 0.8192(3)
H85 H 0.1963 0.2269 0.8258
C120 C 0.1834(4) 0.2265(4) 0.8021(3)
H86 H 0.1945 0.2240 0.7955
C121 C 0.1571(6) 0.2341(6) 0.8394(3)
C122 C 0.1326(6) 0.2350(6) 0.8436(3)
C123 C 0.1309(5) 0.2379(5) 0.8620(3)
H87 H 0.1419 0.2392 0.8703
C124 C 0.1722(5) 0.2298(5) 0.8537(2)
C125 C 0.1617(3) 0.2105(4) 0.8653(3)
H88 H 0.1443 0.1980 0.8649
C126 C 0.1772(5) 0.2098(3) 0.8776(2)
H89 H 0.1701 0.1969 0.8853
N15 N 0.2032(4) 0.2284(5) 0.87819(18)
C127 C 0.2137(3) 0.2477(3) 0.8666(3)
H90 H 0.2311 0.2601 0.8670
C128 C 0.1983(6) 0.2483(4) 0.8543(2)
H91 H 0.2053 0.2612 0.8465
C129 C 0.2758(5) 0.2109(8) 0.8923(3)
C130 C 0.2955(7) 0.2332(5) 0.8853(4)
H92 H 0.2978 0.2492 0.8882
C131 C 0.3119(5) 0.2315(7) 0.8741(4)
H93 H 0.3250 0.2464 0.8694
C132 C 0.3085(6) 0.2075(9) 0.8699(3)
H94 H 0.3194 0.2064 0.8623
C133 C 0.2888(7) 0.1852(6) 0.8769(4)
H95 H 0.2866 0.1692 0.8740
C134 C 0.2725(5) 0.1869(5) 0.8881(4)
H96 H 0.2593 0.1720 0.8928
C135 C 0.2422(8) 0.1908(4) 0.9181(3)
C136 C 0.2156(7) 0.1761(8) 0.9203(3)
H97 H 0.2048 0.1813 0.9157
C137 C 0.2052(5) 0.1536(7) 0.9294(4)
H98 H 0.1875 0.1438 0.9309
C138 C 0.2214(9) 0.1458(5) 0.9363(3)
H99 H 0.2145 0.1308 0.9424
C139 C 0.2480(8) 0.1605(8) 0.9342(3)
H100 H 0.2588 0.1553 0.9388
C140 C 0.2583(4) 0.1830(7) 0.9250(4)
H101 H 0.2761 0.1929 0.9236
C141 C 0.2812(4) 0.2459(5) 0.9150(4)
C142 C 0.2944(7) 0.2463(6) 0.9293(4)
H102 H 0.2911 0.2320 0.9355
C143 C 0.3134(5) 0.2723(8) 0.9325(3)
H103 H 0.3248 0.2780 0.9412
C144 C 0.3120(5) 0.2880(4) 0.9202(5)
H104 H 0.3223 0.3058 0.9194
C145 C 0.2921(6) 0.2717(7) 0.9094(3)
H105 H 0.2871 0.2770 0.9002
C146 C 0.2427(5) 0.2610(6) 0.9294(2)
C147 C 0.2441(5) 0.2456(5) 0.9419(3)
H106 H 0.2361 0.2277 0.9420
C148 C 0.2600(5) 0.2624(7) 0.9543(2)
H107 H 0.2642 0.2573 0.9640
C149 C 0.2684(4) 0.2881(6) 0.9495(3)
H108 H 0.2790 0.3029 0.9554
C150 C 0.2577(5) 0.2873(5) 0.9341(3)
H109 H 0.2601 0.3015 0.9281
C151 C 0.2155(8) 0.2716(5) 0.9019(2)
C152 C 0.2394(6) 0.2909(8) 0.8965(3)
H110 H 0.2541 0.2899 0.8986
C153 C 0.2413(5) 0.3117(6) 0.8878(3)
H111 H 0.2573 0.3246 0.8842
C154 C 0.2193(8) 0.3132(5) 0.8846(3)
H112 H 0.2206 0.3271 0.8788
C155 C 0.1954(6) 0.2939(7) 0.8900(4)
H113 H 0.1806 0.2949 0.8879
C156 C 0.1935(5) 0.2731(5) 0.8987(3)
H114 H 0.1774 0.2602 0.9024
C157 C 0.1889(5) 0.2280(9) 0.9223(5)
C158 C 0.1718(10) 0.2026(10) 0.9179(3)
H115 H 0.1759 0.1949 0.9096
C159 C 0.1484(8) 0.1887(5) 0.9260(5)
H116 H 0.1369 0.1718 0.9231
C160 C 0.1422(5) 0.2003(10) 0.9384(5)
H117 H 0.1265 0.1910 0.9438
C161 C 0.1593(11) 0.2257(10) 0.9428(3)
H118 H 0.1551 0.2334 0.9511
C162 C 0.1827(8) 0.2395(5) 0.9347(5)
H119 H 0.1942 0.2565 0.9376
Pt2BA Pt 0.223677(19) -0.003213(28) 0.723430(11)
Pt2CA Pt 0.003213(28) 0.22689(2) 0.723430(11)
Pt3BA Pt 0.22744(2) 0.00303(3) 0.893434(14)
Pt3CA Pt -0.00303(3) 0.22441(2) 0.893434(14)
Fe2BA Fe 0.26906(7) -0.01085(11) 0.68789(4)
Fe3BA Fe 0.27774(11) 0.01043(15) 0.93142(6)
P3BA P 0.25233(12) 0.02790(18) 0.70657(6)
P4BA P 0.21322(13) -0.03849(19) 0.70825(7)
P5BA P 0.25630(16) 0.03913(23) 0.90643(10)
P6BA P 0.22108(16) -0.02781(23) 0.91190(9)
C55BA C 0.1810(3) -0.0527(7) 0.6996(2)
C56BA C 0.1665(6) -0.0405(8) 0.70131(19)
H40BA H 0.1724 -0.0261 0.7079
C57BA C 0.1432(5) -0.0500(6) 0.6932(3)
H41BA H 0.1334 -0.0420 0.6944
C58BA C 0.1344(3) -0.0716(8) 0.6833(3)
H42BA H 0.1188 -0.0779 0.6779
C59BA C 0.1489(6) -0.0837(9) 0.68160(19)
H43BA H 0.1431 -0.0981 0.6750
C60BA C 0.1723(5) -0.0742(6) 0.6897(3)
H44BA H 0.1820 -0.0823 0.6886
C61BA C 0.2115(7) -0.0642(8) 0.7222(2)
C62BA C 0.1883(4) -0.0861(6) 0.7259(3)
H45BA H 0.1730 -0.0888 0.7212
C63BA C 0.1878(5) -0.1042(8) 0.7367(3)
H46BA H 0.1723 -0.1188 0.7392
C64BA C 0.2106(8) -0.1002(9) 0.7437(2)
H47BA H 0.2103 -0.1122 0.7509
C65BA C 0.2339(5) -0.0782(6) 0.7400(3)
H48BA H 0.2491 -0.0755 0.7447
C66BA C 0.2343(4) -0.0602(7) 0.7292(3)
H49BA H 0.2499 -0.0455 0.7267
C67BA C 0.2325(4) -0.0367(7) 0.6913(2)
C68BA C 0.2347(4) -0.0235(6) 0.6767(4)
H50BA H 0.2269 -0.0137 0.6744
C69BA C 0.2507(5) -0.0279(9) 0.6661(2)
H51BA H 0.2553 -0.0216 0.6557
C70BA C 0.2585(4) -0.0438(6) 0.6742(4)
H52BA H 0.2691 -0.0496 0.6701
C71BA C 0.2473(5) -0.0491(8) 0.6898(3)
H53BA H 0.2492 -0.0592 0.6977
C72BA C 0.2770(3) 0.0219(4) 0.7007(3)
C73BA C 0.2836(4) 0.0065(6) 0.71042(18)
H54BA H 0.2769 -0.0001 0.7205
C74BA C 0.3023(4) 0.0030(5) 0.7020(4)
H55BA H 0.3099 -0.0063 0.7056
C75BA C 0.3072(4) 0.0162(7) 0.6870(3)
H56BA H 0.3187 0.0171 0.6791
C76BA C 0.2916(5) 0.0279(8) 0.6862(2)
H57BA H 0.2911 0.0378 0.6777
C77BA C 0.2697(4) 0.0591(7) 0.7163(2)
C78BA C 0.2608(3) 0.0765(6) 0.7151(2)
H58BA H 0.2464 0.0725 0.7088
C79BA C 0.2734(6) 0.0998(7) 0.7234(3)
H59BA H 0.2675 0.1115 0.7227
C80BA C 0.2949(5) 0.1057(8) 0.7328(2)
H60BA H 0.3034 0.1213 0.7383
C81BA C 0.3038(3) 0.0883(6) 0.73393(19)
H61BA H 0.3182 0.0922 0.7402
C82BA C 0.2912(4) 0.0650(5) 0.7257(2)
H62BA H 0.2971 0.0533 0.7264
C83BA C 0.2396(6) 0.0340(7) 0.6894(2)
C84BA C 0.2548(3) 0.0531(5) 0.6784(3)
H63BA H 0.2725 0.0629 0.6799
C85BA C 0.2435(6) 0.0576(8) 0.6650(3)
H64BA H 0.2537 0.0704 0.6576
C86BA C 0.2170(6) 0.0430(7) 0.6627(2)
H65BA H 0.2094 0.0459 0.6538
C87BA C 0.2017(3) 0.0238(6) 0.6737(4)
H66BA H 0.1840 0.0141 0.6722
C88BA C 0.2130(5) 0.0194(7) 0.6871(3)
H67BA H 0.2028 0.0066 0.6945
N10BA N 0.2272(4) 0.0243(6) 0.73978(15)
C89BA C 0.2088(3) 0.0320(5) 0.7403(2)
H68BA H 0.1961 0.0263 0.7324
C90BA C 0.2094(3) 0.0480(4) 0.7526(3)
H69BA H 0.1971 0.0532 0.7529
C91BA C 0.2284(4) 0.0565(6) 0.7644(2)
C92BA C 0.2468(3) 0.0488(5) 0.76388(17)
H70BA H 0.2595 0.0544 0.7718
C93BA C 0.2462(3) 0.0327(4) 0.7516(2)
H71BA H 0.2586 0.0276 0.7513
C94BA C 0.2279(6) 0.0741(8) 0.7782(4)
C95BA C 0.2311(6) 0.0967(8) 0.7729(3)
C96BA C 0.2359(4) 0.1071(6) 0.7554(3)
H72BA H 0.2384 0.0993 0.7464
C97BA C 0.2253(4) 0.0644(6) 0.79274(18)
C98BA C 0.2216(4) 0.0402(6) 0.7979(3)
H73BA H 0.2196 0.0268 0.7912
C99BA C 0.2214(4) 0.0399(6) 0.8150(3)
H74BA H 0.2192 0.0263 0.8215
C100BA C 0.2250(4) 0.0640(6) 0.82044(18)
N11BA N 0.2274(3) 0.0791(4) 0.8067(3)
C101BA C 0.2272(6) 0.0722(8) 0.8356(4)
C102BA C 0.2283(6) 0.0971(8) 0.8407(3)
C103BA C 0.2351(5) 0.1069(6) 0.8580(3)
H75BA H 0.2385 0.0991 0.8666
C104BA C 0.2268(5) 0.0554(7) 0.8491(2)
C105BA C 0.2092(4) 0.0492(5) 0.8616(3)
H76BA H 0.1972 0.0547 0.8613
C106BA C 0.2095(3) 0.0346(6) 0.8746(2)
H77BA H 0.1977 0.0304 0.8830
N12BA N 0.2274(4) 0.0263(6) 0.87507(19)
C107BA C 0.2450(3) 0.0325(4) 0.8626(3)
H78BA H 0.2570 0.0270 0.8629
C108BA C 0.2447(3) 0.0471(6) 0.8496(2)
H79BA H 0.2565 0.0513 0.8412
N13CA N 0.0272(6) 0.2273(4) 0.74204(16)
N13BA N 0.2001(4) -0.0272(6) 0.74204(16)
C109CA C 0.0367(5) 0.2104(3) 0.7433(2)
H80CA H 0.0326 0.1978 0.7354
C110CA C 0.0522(5) 0.2122(4) 0.7562(3)
H81CA H 0.0586 0.2009 0.7570
C111CA C 0.0583(7) 0.2310(5) 0.76795(19)
C112CA C 0.0488(6) 0.2479(3) 0.7667(2)
H82CA H 0.0528 0.2604 0.7746
C113CA C 0.0332(4) 0.2460(3) 0.7538(3)
H83CA H 0.0269 0.2574 0.7530
C114CA C 0.0754(8) 0.2331(6) 0.7808(4)
C115CA C 0.0987(8) 0.2339(6) 0.7763(4)
C116CA C 0.1081(6) 0.2387(5) 0.7593(3)
H84CA H 0.1001 0.2412 0.7505
C117CA C 0.0670(6) 0.2294(4) 0.7968(2)
N14CA N 0.0824(5) 0.2328(4) 0.8106(3)
C118CA C 0.0680(6) 0.2320(4) 0.8244(2)
C119CA C 0.0437(6) 0.2281(4) 0.8192(3)
H85CA H 0.0306 0.2269 0.8258
C120CA C 0.0431(6) 0.2265(4) 0.8021(3)
H86CA H 0.0295 0.2240 0.7955
C121CA C 0.0770(8) 0.2341(6) 0.8394(3)
C122CA C 0.1024(8) 0.2350(6) 0.8436(3)
C123CA C 0.1070(7) 0.2379(5) 0.8620(3)
H87CA H 0.0973 0.2392 0.8703
C124CA C 0.0576(7) 0.2298(5) 0.8537(2)
C125CA C 0.0488(5) 0.2105(4) 0.8653(3)
H88CA H 0.0537 0.1980 0.8649
C126CA C 0.0326(6) 0.2098(3) 0.8776(2)
H89CA H 0.0268 0.1969 0.8853
N15CA N 0.0252(6) 0.2284(5) 0.87819(18)
N15BA N 0.2032(4) -0.0252(6) 0.87819(18)
C127CA C 0.0340(4) 0.2477(3) 0.8666(3)
H90CA H 0.0290 0.2601 0.8670
C128CA C 0.0500(7) 0.2483(4) 0.8543(2)
H91CA H 0.0559 0.2612 0.8465
C129BA C 0.2758(5) 0.0649(9) 0.8923(3)
C130BA C 0.2955(7) 0.0623(9) 0.8853(4)
H92BA H 0.2978 0.0486 0.8882
C131BA C 0.3119(5) 0.0804(9) 0.8741(4)
H93BA H 0.3250 0.0786 0.8694
C132BA C 0.3085(6) 0.1010(11) 0.8699(3)
H94BA H 0.3194 0.1130 0.8623
C133BA C 0.2888(7) 0.1036(9) 0.8769(4)
H95BA H 0.2866 0.1174 0.8740
C134BA C 0.2725(5) 0.0856(7) 0.8881(4)
H96BA H 0.2593 0.0873 0.8928
C135BA C 0.2422(8) 0.0514(9) 0.9181(3)
C136BA C 0.2156(7) 0.0395(11) 0.9203(3)
H97BA H 0.2048 0.0235 0.9157
C137BA C 0.2052(5) 0.0516(9) 0.9294(4)
H98BA H 0.1875 0.0437 0.9309
C138BA C 0.2214(9) 0.0756(10) 0.9363(3)
H99BA H 0.2145 0.0837 0.9424
C139BA C 0.2480(8) 0.0875(11) 0.9342(3)
H100BA H 0.2588 0.1035 0.9388
C140BA C 0.2583(4) 0.0753(8) 0.9250(4)
H101BA H 0.2761 0.0832 0.9236
C141BA C 0.2812(4) 0.0353(6) 0.9150(4)
C142BA C 0.2944(7) 0.0481(9) 0.9293(4)
H102BA H 0.2911 0.0591 0.9355
C143BA C 0.3134(5) 0.0411(9) 0.9325(3)
H103BA H 0.3248 0.0468 0.9412
C144BA C 0.3120(5) 0.0240(6) 0.9202(5)
H104BA H 0.3223 0.0165 0.9194
C145BA C 0.2921(6) 0.0204(9) 0.9094(3)
H105BA H 0.2871 0.0101 0.9002
C146BA C 0.2427(5) -0.0183(8) 0.9294(2)
C147BA C 0.2441(5) -0.0015(7) 0.9419(3)
H106BA H 0.2361 0.0084 0.9420
C148BA C 0.2600(5) -0.0024(9) 0.9543(2)
H107BA H 0.2642 0.0069 0.9640
C149BA C 0.2684(4) -0.0197(7) 0.9495(3)
H108BA H 0.2790 -0.0239 0.9554
C150BA C 0.2577(5) -0.0296(7) 0.9341(3)
H109BA H 0.2601 -0.0414 0.9281
C151BA C 0.2155(8) -0.0561(9) 0.9019(2)
C152BA C 0.2394(6) -0.0515(10) 0.8965(3)
H110BA H 0.2541 -0.0358 0.8986
C153BA C 0.2413(5) -0.0704(8) 0.8878(3)
H111BA H 0.2573 -0.0673 0.8842
C154BA C 0.2193(8) -0.0939(9) 0.8846(3)
H112BA H 0.2206 -0.1065 0.8788
C155BA C 0.1954(6) -0.0985(9) 0.8900(4)
H113BA H 0.1806 -0.1143 0.8879
C156BA C 0.1935(5) -0.0796(7) 0.8987(3)
H114BA H 0.1774 -0.0828 0.9024
C157BA C 0.1889(5) -0.0391(10) 0.9223(5)
C158BA C 0.1718(10) -0.0308(14) 0.9179(3)
H115BA H 0.1759 -0.0190 0.9096
C159BA C 0.1484(8) -0.0403(9) 0.9260(5)
H116BA H 0.1369 -0.0349 0.9231
C160BA C 0.1422(5) -0.0581(11) 0.9384(5)
H117BA H 0.1265 -0.0645 0.9438
C161BA C 0.1593(11) -0.0664(15) 0.9428(3)
H118BA H 0.1551 -0.0783 0.9511
C162BA C 0.1827(8) -0.0568(9) 0.9347(5)
H119BA H 0.1942 -0.0623 0.9376
S1 S 0.5549(3) 0.3574(3) 0.9197(2)
C163 C 0.5256(4) 0.3289(4) 0.9201(3)
O1 O 0.5754(6) 0.3480(7) 0.9111(4)
O2 O 0.5495(7) 0.3776(6) 0.9073(4)
O3 O 0.5630(8) 0.3684(8) 0.9391(3)
F1 F 0.5220(7) 0.3118(6) 0.9322(4)
F2 F 0.5173(6) 0.3127(6) 0.9070(3)
F3 F 0.5050(5) 0.3324(5) 0.9225(3)
S2 S 0.1410(3) 0.1222(3) 0.7355(2)
C164 C 0.1327(5) 0.1434(5) 0.7272(3)
O4 O 0.1492(6) 0.1308(7) 0.7554(3)
O5 O 0.1124(5) 0.0926(5) 0.7334(4)
O6 O 0.1658(5) 0.1244(7) 0.7238(4)
F4 F 0.1306(7) 0.1607(7) 0.7366(3)
F5 F 0.1106(5) 0.1341(6) 0.7182(4)
F6 F 0.1509(5) 0.1590(6) 0.7162(3)
S3 S 0.3489(3) 0.3122(4) 0.8770(2)
C165 C 0.3814(4) 0.3322(5) 0.8798(3)
O7 O 0.3315(7) 0.3247(7) 0.8859(4)
O8 O 0.3420(7) 0.2824(5) 0.8845(4)
O9 O 0.3468(7) 0.3118(7) 0.8558(3)
F7 F 0.3961(7) 0.3210(7) 0.8756(5)
F8 F 0.3897(5) 0.3384(6) 0.8951(3)
F9 F 0.3945(7) 0.3553(6) 0.8724(4)
S4 S 0.3172(4) 0.2956(4) 0.7607(2)
C166 C 0.2916(4) 0.2986(5) 0.7547(3)
O10 O 0.3215(6) 0.2761(6) 0.7472(3)
O11 O 0.3421(6) 0.3277(5) 0.7601(4)
O12 O 0.3096(7) 0.2833(7) 0.7801(3)
F10 F 0.2765(6) 0.3024(7) 0.7651(3)
F11 F 0.2739(4) 0.2773(4) 0.7462(3)
F12 F 0.2977(5) 0.3175(5) 0.7434(3)
S5 S 0.1369(4) 0.1129(4) 0.8956(2)
C167 C 0.1393(6) 0.1425(4) 0.8977(3)
O13 O 0.1402(7) 0.1043(7) 0.9153(3)
O14 O 0.1070(5) 0.0921(7) 0.8874(4)
O15 O 0.1623(5) 0.1169(7) 0.8834(4)
F13 F 0.1283(5) 0.1507(6) 0.8866(3)
F14 F 0.1303(7) 0.1473(7) 0.9119(3)
F15 F 0.1641(4) 0.1626(6) 0.8978(3)
S6 S 0.2918(3) 0.2688(3) 0.8426(2)
C168 C 0.2838(5) 0.2869(5) 0.8551(3)
O16 O 0.3131(5) 0.2920(5) 0.8291(3)
O17 O 0.2620(5) 0.2479(6) 0.8338(4)
O18 O 0.3048(7) 0.2535(6) 0.8531(4)
F16 F 0.2597(5) 0.2838(7) 0.8511(4)
F17 F 0.2981(6) 0.3130(4) 0.8554(4)
F18 F 0.2797(5) 0.2806(5) 0.8710(2)
loop_
_geom_bond_atom_site_label_1
_geom_bond_atom_site_label_2
_geom_bond_site_symmetry_1
_geom_bond_site_symmetry_2
Pt1 P1 1_555 1_555
Fe1 C13 1_555 1_555
P1 C1 1_555 1_555
P2 Pt1 1_555 1_555
N1 C45 1_555 1_555
N2 C53 1_555 1_555
C1 C2 1_555 1_555
C2 H1 1_555 1_555
C3 C2 1_555 1_555
H2 C3 1_555 1_555
C4 C3 1_555 1_555
H3 C4 1_555 1_555
C5 C4 1_555 1_555
H4 C5 1_555 1_555
C6 C1 1_555 1_555
C7 P1 1_555 1_555
C8 C7 1_555 1_555
H5 C8 1_555 1_555
C9 C8 1_555 1_555
H6 C9 1_555 1_555
C10 C9 1_555 1_555
H7 C10 1_555 1_555
C11 C10 1_555 1_555
H8 C11 1_555 1_555
C12 C7 1_555 1_555
H9 C12 1_555 1_555
C13 P1 1_555 1_555
C14 Fe1 1_555 1_555
H10 C14 1_555 1_555
C15 Fe1 1_555 1_555
H11 C15 1_555 1_555
C16 Fe1 1_555 1_555
H12 C16 1_555 1_555
C17 Fe1 1_555 1_555
H13 C17 1_555 1_555
C18 Fe1 1_555 1_555
C19 Fe1 1_555 1_555
H14 C19 1_555 1_555
C20 Fe1 1_555 1_555
H15 C20 1_555 1_555
C21 Fe1 1_555 1_555
H16 C21 1_555 1_555
C22 Fe1 1_555 1_555
H17 C22 1_555 1_555
C23 P2 1_555 1_555
C24 C23 1_555 1_555
H18 C24 1_555 1_555
C25 C24 1_555 1_555
H19 C25 1_555 1_555
C26 C25 1_555 1_555
H20 C26 1_555 1_555
C27 C26 1_555 1_555
H21 C27 1_555 1_555
C28 C23 1_555 1_555
H22 C28 1_555 1_555
C29 P2 1_555 1_555
C30 C29 1_555 1_555
H23 C30 1_555 1_555
C31 C30 1_555 1_555
H24 C31 1_555 1_555
C32 C31 1_555 1_555
H25 C32 1_555 1_555
C33 C32 1_555 1_555
H26 C33 1_555 1_555
C34 C29 1_555 1_555
H27 C34 1_555 1_555
N3 C35 1_555 1_555
C35 H28 1_555 1_555
C36 C35 1_555 1_555
H29 C36 1_555 1_555
C37 C36 1_555 1_555
C38 C37 1_555 1_555
H30 C38 1_555 1_555
C39 N3 1_555 1_555
H31 C39 1_555 1_555
C40 C41 1_555 1_555
C41 H32 1_555 1_555
C42 C41 1_555 1_555
H33 C42 1_555 1_555
C43 C42 1_555 1_555
N4 C40 1_555 1_555
C44 C37 1_555 1_555
C45 C44 1_555 1_555
C46 C45 1_555 1_555
H34 C46 1_555 1_555
N5 Pt1 1_555 1_555
C47 N5 1_555 1_555
H35 C47 1_555 1_555
C48 C47 1_555 1_555
H36 C48 1_555 1_555
C49 C48 1_555 1_555
C50 C49 1_555 1_555
H37 C50 1_555 1_555
C51 N5 1_555 1_555
H38 C51 1_555 1_555
C52 C43 1_555 1_555
C53 C52 1_555 1_555
C54 C53 1_555 1_555
H39 C54 1_555 1_555
Pt2 P3 1_555 1_555
Pt3 P5 1_555 1_555
Fe2 C67 1_555 1_555
Fe3 C141 1_555 1_555
P3 C72 1_555 1_555
P4 Pt2 1_555 1_555
P5 C129 1_555 1_555
P6 Pt3 1_555 1_555
N6 C95 1_555 1_555
N7 C102 1_555 1_555
N8 C115 1_555 1_555
N9 C122 1_555 1_555
C55 P4 1_555 1_555
C56 C55 1_555 1_555
H40 C56 1_555 1_555
C57 C56 1_555 1_555
H41 C57 1_555 1_555
C58 C57 1_555 1_555
H42 C58 1_555 1_555
C59 C58 1_555 1_555
H43 C59 1_555 1_555
C60 C55 1_555 1_555
H44 C60 1_555 1_555
C61 P4 1_555 1_555
C62 C61 1_555 1_555
H45 C62 1_555 1_555
C63 C62 1_555 1_555
H46 C63 1_555 1_555
C64 C63 1_555 1_555
H47 C64 1_555 1_555
C65 C64 1_555 1_555
H48 C65 1_555 1_555
C66 C61 1_555 1_555
H49 C66 1_555 1_555
C67 P4 1_555 1_555
C68 Fe2 1_555 1_555
H50 C68 1_555 1_555
C69 Fe2 1_555 1_555
H51 C69 1_555 1_555
C70 Fe2 1_555 1_555
H52 C70 1_555 1_555
C71 Fe2 1_555 1_555
H53 C71 1_555 1_555
C72 Fe2 1_555 1_555
C73 Fe2 1_555 1_555
H54 C73 1_555 1_555
C74 Fe2 1_555 1_555
H55 C74 1_555 1_555
C75 Fe2 1_555 1_555
H56 C75 1_555 1_555
C76 Fe2 1_555 1_555
H57 C76 1_555 1_555
C77 P3 1_555 1_555
C78 C77 1_555 1_555
H58 C78 1_555 1_555
C79 C78 1_555 1_555
H59 C79 1_555 1_555
C80 C79 1_555 1_555
H60 C80 1_555 1_555
C81 C80 1_555 1_555
H61 C81 1_555 1_555
C82 C77 1_555 1_555
H62 C82 1_555 1_555
C83 P3 1_555 1_555
C84 C83 1_555 1_555
H63 C84 1_555 1_555
C85 C84 1_555 1_555
H64 C85 1_555 1_555
C86 C85 1_555 1_555
H65 C86 1_555 1_555
C87 C86 1_555 1_555
H66 C87 1_555 1_555
C88 C83 1_555 1_555
H67 C88 1_555 1_555
N10 Pt2 1_555 1_555
C89 N10 1_555 1_555
H68 C89 1_555 1_555
C90 C89 1_555 1_555
H69 C90 1_555 1_555
C91 C90 1_555 1_555
C92 C91 1_555 1_555
H70 C92 1_555 1_555
C93 N10 1_555 1_555
H71 C93 1_555 1_555
C94 C91 1_555 1_555
C95 C94 1_555 1_555
C96 C95 1_555 1_555
H72 C96 1_555 1_555
C97 C94 1_555 1_555
C98 C97 1_555 1_555
H73 C98 1_555 1_555
C99 C98 1_555 1_555
H74 C99 1_555 1_555
C100 C99 1_555 1_555
N11 C97 1_555 1_555
C101 C100 1_555 1_555
C102 C101 1_555 1_555
C103 C102 1_555 1_555
H75 C103 1_555 1_555
C104 C101 1_555 1_555
C105 C104 1_555 1_555
H76 C105 1_555 1_555
C106 C105 1_555 1_555
H77 C106 1_555 1_555
N12 Pt3 1_555 1_555
C107 N12 1_555 1_555
H78 C107 1_555 1_555
C108 C104 1_555 1_555
H79 C108 1_555 1_555
N13 Pt2 1_555 1_555
C109 N13 1_555 1_555
H80 C109 1_555 1_555
C110 C109 1_555 1_555
H81 C110 1_555 1_555
C111 C110 1_555 1_555
C112 C111 1_555 1_555
H82 C112 1_555 1_555
C113 N13 1_555 1_555
H83 C113 1_555 1_555
C114 C111 1_555 1_555
C115 C114 1_555 1_555
C116 C115 1_555 1_555
H84 C116 1_555 1_555
C117 C114 1_555 1_555
N14 C117 1_555 1_555
C118 N14 1_555 1_555
C119 C118 1_555 1_555
H85 C119 1_555 1_555
C120 C117 1_555 1_555
H86 C120 1_555 1_555
C121 C118 1_555 1_555
C122 C121 1_555 1_555
C123 C122 1_555 1_555
H87 C123 1_555 1_555
C124 C121 1_555 1_555
C125 C124 1_555 1_555
H88 C125 1_555 1_555
C126 C125 1_555 1_555
H89 C126 1_555 1_555
N15 Pt3 1_555 1_555
C127 N15 1_555 1_555
H90 C127 1_555 1_555
C128 C124 1_555 1_555
H91 C128 1_555 1_555
C129 C130 1_555 1_555
C130 H92 1_555 1_555
C131 C130 1_555 1_555
H93 C131 1_555 1_555
C132 C131 1_555 1_555
H94 C132 1_555 1_555
C133 C132 1_555 1_555
H95 C133 1_555 1_555
C134 C129 1_555 1_555
H96 C134 1_555 1_555
C135 P5 1_555 1_555
C136 C135 1_555 1_555
H97 C136 1_555 1_555
C137 C136 1_555 1_555
H98 C137 1_555 1_555
C138 C137 1_555 1_555
H99 C138 1_555 1_555
C139 C138 1_555 1_555
H100 C139 1_555 1_555
C140 C135 1_555 1_555
H101 C140 1_555 1_555
C141 P5 1_555 1_555
C142 Fe3 1_555 1_555
H102 C142 1_555 1_555
C143 Fe3 1_555 1_555
H103 C143 1_555 1_555
C144 Fe3 1_555 1_555
H104 C144 1_555 1_555
C145 Fe3 1_555 1_555
H105 C145 1_555 1_555
C146 Fe3 1_555 1_555
C147 Fe3 1_555 1_555
H106 C147 1_555 1_555
C148 Fe3 1_555 1_555
H107 C148 1_555 1_555
C149 Fe3 1_555 1_555
H108 C149 1_555 1_555
C150 Fe3 1_555 1_555
H109 C150 1_555 1_555
C151 P6 1_555 1_555
C152 C151 1_555 1_555
H110 C152 1_555 1_555
C153 C152 1_555 1_555
H111 C153 1_555 1_555
C154 C153 1_555 1_555
H112 C154 1_555 1_555
C155 C154 1_555 1_555
H113 C155 1_555 1_555
C156 C151 1_555 1_555
H114 C156 1_555 1_555
C157 P6 1_555 1_555
C158 C157 1_555 1_555
H115 C158 1_555 1_555
C159 C158 1_555 1_555
H116 C159 1_555 1_555
C160 C159 1_555 1_555
H117 C160 1_555 1_555
C161 C160 1_555 1_555
H118 C161 1_555 1_555
C162 C157 1_555 1_555
H119 C162 1_555 1_555
S1 C163 1_555 1_555
S2 C164 1_555 1_555
S3 C165 1_555 1_555
S4 C166 1_555 1_555
S5 C167 1_555 1_555
S6 C168 1_555 1_555
C163 F1 1_555 1_555
C164 F4 1_555 1_555
C165 F7 1_555 1_555
C166 F10 1_555 1_555
C167 F13 1_555 1_555
C168 F16 1_555 1_555
O1 S1 1_555 1_555
O2 S1 1_555 1_555
O3 S1 1_555 1_555
O4 S2 1_555 1_555
O5 S2 1_555 1_555
O6 S2 1_555 1_555
O7 S3 1_555 1_555
O8 S3 1_555 1_555
O9 S3 1_555 1_555
O10 S4 1_555 1_555
O11 S4 1_555 1_555
O12 S4 1_555 1_555
O13 S5 1_555 1_555
O14 S5 1_555 1_555
O15 S5 1_555 1_555
O16 S6 1_555 1_555
O17 S6 1_555 1_555
O18 S6 1_555 1_555
F2 C163 1_555 1_555
F3 C163 1_555 1_555
F5 C164 1_555 1_555
F6 C164 1_555 1_555
F8 C165 1_555 1_555
F9 C165 1_555 1_555
F11 C166 1_555 1_555
F12 C166 1_555 1_555
F14 C167 1_555 1_555
F15 C167 1_555 1_555
F17 C168 1_555 1_555
F18 C168 1_555 1_555
Pt1T P1T 1_555 1_555
Pt1O N3 1_555 1_555
Pt1W N3T 1_555 1_555
Fe1T C13T 1_555 1_555
P1T C1T 1_555 1_555
P2T Pt1T 1_555 1_555
C1T C2T 1_555 1_555
C2T H1T 1_555 1_555
C3T C2T 1_555 1_555
H2T C3T 1_555 1_555
C4T C3T 1_555 1_555
H3T C4T 1_555 1_555
C5T C4T 1_555 1_555
H4T C5T 1_555 1_555
C6T C1T 1_555 1_555
C7T P1T 1_555 1_555
C8T C7T 1_555 1_555
H5T C8T 1_555 1_555
C9T C8T 1_555 1_555
H6T C9T 1_555 1_555
C10T C9T 1_555 1_555
H7T C10T 1_555 1_555
C11T C10T 1_555 1_555
H8T C11T 1_555 1_555
C12T C7T 1_555 1_555
H9T C12T 1_555 1_555
C13T P1T 1_555 1_555
C14T Fe1T 1_555 1_555
H10T C14T 1_555 1_555
C15T Fe1T 1_555 1_555
H11T C15T 1_555 1_555
C16T Fe1T 1_555 1_555
H12T C16T 1_555 1_555
C17T Fe1T 1_555 1_555
H13T C17T 1_555 1_555
C18T Fe1T 1_555 1_555
C19T Fe1T 1_555 1_555
H14T C19T 1_555 1_555
C20T Fe1T 1_555 1_555
H15T C20T 1_555 1_555
C21T Fe1T 1_555 1_555
H16T C21T 1_555 1_555
C22T Fe1T 1_555 1_555
H17T C22T 1_555 1_555
C23T P2T 1_555 1_555
C24T C23T 1_555 1_555
H18T C24T 1_555 1_555
C25T C24T 1_555 1_555
H19T C25T 1_555 1_555
C26T C25T 1_555 1_555
H20T C26T 1_555 1_555
C27T C26T 1_555 1_555
H21T C27T 1_555 1_555
C28T C23T 1_555 1_555
H22T C28T 1_555 1_555
C29T P2T 1_555 1_555
C30T C29T 1_555 1_555
H23T C30T 1_555 1_555
C31T C30T 1_555 1_555
H24T C31T 1_555 1_555
C32T C31T 1_555 1_555
H25T C32T 1_555 1_555
C33T C32T 1_555 1_555
H26T C33T 1_555 1_555
C34T C29T 1_555 1_555
H27T C34T 1_555 1_555
N3T C35T 1_555 1_555
N3O Pt1 1_555 1_555
N3W Pt1T 1_555 1_555
C35T H28T 1_555 1_555
C36T C35T 1_555 1_555
H29T C36T 1_555 1_555
C37T C36T 1_555 1_555
C38T C37T 1_555 1_555
H30T C38T 1_555 1_555
C39T N3T 1_555 1_555
H31T C39T 1_555 1_555
C40T C41T 1_555 1_555
C41T H32T 1_555 1_555
C42T C41T 1_555 1_555
H33T C42T 1_555 1_555
C43T C42T 1_555 1_555
N4T C40T 1_555 1_555
C44T C37T 1_555 1_555
C45T N1 1_555 1_555
C46T C46 1_555 1_555
H34T C46T 1_555 1_555
N5T Pt1T 1_555 1_555
C47T N5T 1_555 1_555
H35T C47T 1_555 1_555
C48T C47T 1_555 1_555
H36T C48T 1_555 1_555
C49T C48T 1_555 1_555
C50T C49T 1_555 1_555
H37T C50T 1_555 1_555
C51T N5T 1_555 1_555
H38T C51T 1_555 1_555
C52T C43T 1_555 1_555
C53T N2 1_555 1_555
C54T C54 1_555 1_555
H39T C54T 1_555 1_555
Pt2BA P3BA 1_555 1_555
Pt2CA N13CA 1_555 1_555
Pt3BA P5BA 1_555 1_555
Pt3CA N15CA 1_555 1_555
Fe2BA C67BA 1_555 1_555
Fe3BA C141BA 1_555 1_555
P3BA C72BA 1_555 1_555
P4BA Pt2BA 1_555 1_555
P5BA C129BA 1_555 1_555
P6BA Pt3BA 1_555 1_555
C55BA P4BA 1_555 1_555
C56BA C55BA 1_555 1_555
H40BA C56BA 1_555 1_555
C57BA C56BA 1_555 1_555
H41BA C57BA 1_555 1_555
C58BA C57BA 1_555 1_555
H42BA C58BA 1_555 1_555
C59BA C58BA 1_555 1_555
H43BA C59BA 1_555 1_555
C60BA C55BA 1_555 1_555
H44BA C60BA 1_555 1_555
C61BA P4BA 1_555 1_555
C62BA C61BA 1_555 1_555
H45BA C62BA 1_555 1_555
C63BA C62BA 1_555 1_555
H46BA C63BA 1_555 1_555
C64BA C63BA 1_555 1_555
H47BA C64BA 1_555 1_555
C65BA C64BA 1_555 1_555
H48BA C65BA 1_555 1_555
C66BA C61BA 1_555 1_555
H49BA C66BA 1_555 1_555
C67BA P4BA 1_555 1_555
C68BA Fe2BA 1_555 1_555
H50BA C68BA 1_555 1_555
C69BA Fe2BA 1_555 1_555
H51BA C69BA 1_555 1_555
C70BA Fe2BA 1_555 1_555
H52BA C70BA 1_555 1_555
C71BA Fe2BA 1_555 1_555
H53BA C71BA 1_555 1_555
C72BA Fe2BA 1_555 1_555
C73BA Fe2BA 1_555 1_555
H54BA C73BA 1_555 1_555
C74BA Fe2BA 1_555 1_555
H55BA C74BA 1_555 1_555
C75BA Fe2BA 1_555 1_555
H56BA C75BA 1_555 1_555
C76BA Fe2BA 1_555 1_555
H57BA C76BA 1_555 1_555
C77BA P3BA 1_555 1_555
C78BA C77BA 1_555 1_555
H58BA C78BA 1_555 1_555
C79BA C78BA 1_555 1_555
H59BA C79BA 1_555 1_555
C80BA C79BA 1_555 1_555
H60BA C80BA 1_555 1_555
C81BA C80BA 1_555 1_555
H61BA C81BA 1_555 1_555
C82BA C77BA 1_555 1_555
H62BA C82BA 1_555 1_555
C83BA P3BA 1_555 1_555
C84BA C83BA 1_555 1_555
H63BA C84BA 1_555 1_555
C85BA C84BA 1_555 1_555
H64BA C85BA 1_555 1_555
C86BA C85BA 1_555 1_555
H65BA C86BA 1_555 1_555
C87BA C86BA 1_555 1_555
H66BA C87BA 1_555 1_555
C88BA C83BA 1_555 1_555
H67BA C88BA 1_555 1_555
N10BA Pt2BA 1_555 1_555
C89BA N10BA 1_555 1_555
H68BA C89BA 1_555 1_555
C90BA C89BA 1_555 1_555
H69BA C90BA 1_555 1_555
C91BA C90BA 1_555 1_555
C92BA C91BA 1_555 1_555
H70BA C92BA 1_555 1_555
C93BA N10BA 1_555 1_555
H71BA C93BA 1_555 1_555
C94BA C91BA 1_555 1_555
C95BA N6 1_555 1_555
C96BA C96 1_555 1_555
H72BA C96BA 1_555 1_555
C97BA C94BA 1_555 1_555
C98BA C97BA 1_555 1_555
H73BA C98BA 1_555 1_555
C99BA C98BA 1_555 1_555
H74BA C99BA 1_555 1_555
C100BA C99BA 1_555 1_555
N11BA C97BA 1_555 1_555
C101BA C100BA 1_555 1_555
C102BA N7 1_555 1_555
C103BA C103 1_555 1_555
H75BA C103BA 1_555 1_555
C104BA C101BA 1_555 1_555
C105BA C104BA 1_555 1_555
H76BA C105BA 1_555 1_555
C106BA C105BA 1_555 1_555
H77BA C106BA 1_555 1_555
N12BA Pt3BA 1_555 1_555
C107BA N12BA 1_555 1_555
H78BA C107BA 1_555 1_555
C108BA C104BA 1_555 1_555
H79BA C108BA 1_555 1_555
N13CA C109CA 1_555 1_555
N13BA Pt2BA 1_555 1_555
C109CA H80CA 1_555 1_555
C110CA C109CA 1_555 1_555
H81CA C110CA 1_555 1_555
C111CA C110CA 1_555 1_555
C112CA C111CA 1_555 1_555
H82CA C112CA 1_555 1_555
C113CA N13CA 1_555 1_555
H83CA C113CA 1_555 1_555
C114CA C111CA 1_555 1_555
C115CA N8 1_555 1_555
C116CA C116 1_555 1_555
H84CA C116CA 1_555 1_555
C117CA C114CA 1_555 1_555
N14CA C117CA 1_555 1_555
C118CA N14CA 1_555 1_555
C119CA C118CA 1_555 1_555
H85CA C119CA 1_555 1_555
C120CA C117CA 1_555 1_555
H86CA C120CA 1_555 1_555
C121CA C118CA 1_555 1_555
C122CA N9 1_555 1_555
C123CA C123 1_555 1_555
H87CA C123CA 1_555 1_555
C124CA C121CA 1_555 1_555
C125CA C124CA 1_555 1_555
H88CA C125CA 1_555 1_555
C126CA C125CA 1_555 1_555
H89CA C126CA 1_555 1_555
N15CA C126CA 1_555 1_555
N15BA Pt3BA 1_555 1_555
C127CA N15CA 1_555 1_555
H90CA C127CA 1_555 1_555
C128CA C124CA 1_555 1_555
H91CA C128CA 1_555 1_555
C129BA C130BA 1_555 1_555
C130BA H92BA 1_555 1_555
C131BA C130BA 1_555 1_555
H93BA C131BA 1_555 1_555
C132BA C131BA 1_555 1_555
H94BA C132BA 1_555 1_555
C133BA C132BA 1_555 1_555
H95BA C133BA 1_555 1_555
C134BA C129BA 1_555 1_555
H96BA C134BA 1_555 1_555
C135BA P5BA 1_555 1_555
C136BA C135BA 1_555 1_555
H97BA C136BA 1_555 1_555
C137BA C136BA 1_555 1_555
H98BA C137BA 1_555 1_555
C138BA C137BA 1_555 1_555
H99BA C138BA 1_555 1_555
C139BA C138BA 1_555 1_555
H100BA C139BA 1_555 1_555
C140BA C135BA 1_555 1_555
H101BA C140BA 1_555 1_555
C141BA P5BA 1_555 1_555
C142BA Fe3BA 1_555 1_555
H102BA C142BA 1_555 1_555
C143BA Fe3BA 1_555 1_555
H103BA C143BA 1_555 1_555
C144BA Fe3BA 1_555 1_555
H104BA C144BA 1_555 1_555
C145BA Fe3BA 1_555 1_555
H105BA C145BA 1_555 1_555
C146BA Fe3BA 1_555 1_555
C147BA Fe3BA 1_555 1_555
H106BA C147BA 1_555 1_555
C148BA Fe3BA 1_555 1_555
H107BA C148BA 1_555 1_555
C149BA Fe3BA 1_555 1_555
H108BA C149BA 1_555 1_555
C150BA Fe3BA 1_555 1_555
H109BA C150BA 1_555 1_555
C151BA P6BA 1_555 1_555
C152BA C151BA 1_555 1_555
H110BA C152BA 1_555 1_555
C153BA C152BA 1_555 1_555
H111BA C153BA 1_555 1_555
C154BA C153BA 1_555 1_555
H112BA C154BA 1_555 1_555
C155BA C154BA 1_555 1_555
H113BA C155BA 1_555 1_555
C156BA C151BA 1_555 1_555
H114BA C156BA 1_555 1_555
C157BA P6BA 1_555 1_555
C158BA C157BA 1_555 1_555
H115BA C158BA 1_555 1_555
C159BA C158BA 1_555 1_555
H116BA C159BA 1_555 1_555
C160BA C159BA 1_555 1_555
H117BA C160BA 1_555 1_555
C161BA C160BA 1_555 1_555
H118BA C161BA 1_555 1_555
C162BA C157BA 1_555 1_555
H119BA C162BA 1_555 1_555
P2 C18 1_555 1_555
C5 C6 1_555 1_555
C11 C12 1_555 1_555
C13 C14 1_555 1_555
C13 C17 1_555 1_555
C14 C15 1_555 1_555
C15 C16 1_555 1_555
C16 C17 1_555 1_555
C18 C19 1_555 1_555
C18 C22 1_555 1_555
C19 C20 1_555 1_555
C20 C21 1_555 1_555
C21 C22 1_555 1_555
C27 C28 1_555 1_555
C33 C34 1_555 1_555
C38 C39 1_555 1_555
C40 C44 1_555 1_555
C43 N4 1_555 1_555
C49 C52 1_555 1_555
C50 C51 1_555 1_555
P6 C146 1_555 1_555
C59 C60 1_555 1_555
C65 C66 1_555 1_555
C67 C68 1_555 1_555
C67 C71 1_555 1_555
C68 C69 1_555 1_555
C69 C70 1_555 1_555
C70 C71 1_555 1_555
C72 C73 1_555 1_555
C72 C76 1_555 1_555
C73 C74 1_555 1_555
C74 C75 1_555 1_555
C75 C76 1_555 1_555
C81 C82 1_555 1_555
C87 C88 1_555 1_555
C92 C93 1_555 1_555
C100 N11 1_555 1_555
C106 N12 1_555 1_555
C107 C108 1_555 1_555
C112 C113 1_555 1_555
C119 C120 1_555 1_555
C126 N15 1_555 1_555
C127 C128 1_555 1_555
C133 C134 1_555 1_555
C139 C140 1_555 1_555
C141 C142 1_555 1_555
C141 C145 1_555 1_555
C142 C143 1_555 1_555
C143 C144 1_555 1_555
C144 C145 1_555 1_555
C146 C147 1_555 1_555
C146 C150 1_555 1_555
C147 C148 1_555 1_555
C148 C149 1_555 1_555
C149 C150 1_555 1_555
C155 C156 1_555 1_555
C161 C162 1_555 1_555
P2T C18T 1_555 1_555
C5T C6T 1_555 1_555
C11T C12T 1_555 1_555
C13T C14T 1_555 1_555
C13T C17T 1_555 1_555
C14T C15T 1_555 1_555
C15T C16T 1_555 1_555
C16T C17T 1_555 1_555
C18T C19T 1_555 1_555
C18T C22T 1_555 1_555
C19T C20T 1_555 1_555
C20T C21T 1_555 1_555
C21T C22T 1_555 1_555
C27T C28T 1_555 1_555
C33T C34T 1_555 1_555
C38T C39T 1_555 1_555
C40T C44T 1_555 1_555
C43T N4T 1_555 1_555
C44T C45T 1_555 1_555
C45T C46T 1_555 1_555
C49T C52T 1_555 1_555
C50T C51T 1_555 1_555
C52T C53T 1_555 1_555
C53T C54T 1_555 1_555
P6BA C146BA 1_555 1_555
C59BA C60BA 1_555 1_555
C65BA C66BA 1_555 1_555
C67BA C68BA 1_555 1_555
C67BA C71BA 1_555 1_555
C68BA C69BA 1_555 1_555
C69BA C70BA 1_555 1_555
C70BA C71BA 1_555 1_555
C72BA C73BA 1_555 1_555
C72BA C76BA 1_555 1_555
C73BA C74BA 1_555 1_555
C74BA C75BA 1_555 1_555
C75BA C76BA 1_555 1_555
C81BA C82BA 1_555 1_555
C87BA C88BA 1_555 1_555
C92BA C93BA 1_555 1_555
C94BA C95BA 1_555 1_555
C95BA C96BA 1_555 1_555
C100BA N11BA 1_555 1_555
C101BA C102BA 1_555 1_555
C102BA C103BA 1_555 1_555
C106BA N12BA 1_555 1_555
C107BA C108BA 1_555 1_555
C112CA C113CA 1_555 1_555
C114CA C115CA 1_555 1_555
C115CA C116CA 1_555 1_555
C119CA C120CA 1_555 1_555
C121CA C122CA 1_555 1_555
C122CA C123CA 1_555 1_555
C127CA C128CA 1_555 1_555
C133BA C134BA 1_555 1_555
C139BA C140BA 1_555 1_555
C141BA C142BA 1_555 1_555
C141BA C145BA 1_555 1_555
C142BA C143BA 1_555 1_555
C143BA C144BA 1_555 1_555
C144BA C145BA 1_555 1_555
C146BA C147BA 1_555 1_555
C146BA C150BA 1_555 1_555
C147BA C148BA 1_555 1_555
C148BA C149BA 1_555 1_555
C149BA C150BA 1_555 1_555
C155BA C156BA 1_555 1_555
C161BA C162BA 1_555 1_555

#END
