
#######################################################################
#
#                 Cambridge Crystallographic Data Centre
#                                CCDC 
#
#######################################################################
#
# If this CIF has been generated from an entry in the Cambridge 
# Structural Database, then it will include bibliographic, chemical, 
# crystal, experimental, refinement or atomic coordinate data resulting 
# from the CCDC's data processing and validation procedures.
#
#######################################################################

data_EGELUY
_symmetry_cell_setting           orthorhombic
_symmetry_space_group_name_H-M   'P n m a'
_symmetry_Int_Tables_number      62
_space_group_name_Hall           '-P 2ac 2n'
loop_
_symmetry_equiv_pos_site_id
_symmetry_equiv_pos_as_xyz
1 x,y,z
2 1/2+x,1/2-y,1/2-z
3 -x,1/2+y,-z
4 1/2-x,-y,1/2+z
5 -x,-y,-z
6 1/2-x,1/2+y,1/2+z
7 x,1/2-y,z
8 1/2+x,y,1/2-z
_cell_length_a                   16.243(4)
_cell_length_b                   6.6352(10)
_cell_length_c                   13.4943(28)
_cell_angle_alpha                90
_cell_angle_beta                 90
_cell_angle_gamma                90
_cell_volume                     1454.36
loop_
_atom_site_label
_atom_site_type_symbol
_atom_site_fract_x
_atom_site_fract_y
_atom_site_fract_z
Al1 Al 0.00000 0.00000 0.00000
O1 O -0.00271 0.25000 0.05962
C1 C 0.1809(1) 0.25000 -0.2004(4)
C2 C 0.21548(7) 0.07119 -0.2296(2)
C3 C 0.28452(7) 0.07119 -0.2880(2)
C4 C 0.3190(1) 0.25000 -0.3171(1)
C5 C 0.1053(1) 0.25000 -0.1366(1)
O2 O 0.0726(3) 0.08033 -0.1089(2)
C6 C 0.3946(3) 0.25000 -0.3810(2)
O3 O 0.4273(3) 0.08033 -0.4087(4)
Al1C Al 0.50000 0.00000 -0.50000
Al1A Al 0.50000 0.50000 -0.50000
Al1B Al 0.00000 0.50000 0.00000
O1B O 0.00271 -0.25000 -0.05962
C2F C 0.21548(7) 0.42881 -0.2296(2)
C3F C 0.28452(7) 0.42881 -0.2880(2)
O2F O 0.0726(3) 0.41967 -0.1089(2)
O2D O -0.0726(3) -0.08033 0.1089(2)
O3F O 0.4273(3) 0.41967 -0.4087(4)
O3C O 0.0727(3) -0.08033 0.0913(4)
O3G O -0.0727(3) 0.08033 -0.0913(4)
loop_
_geom_bond_atom_site_label_1
_geom_bond_atom_site_label_2
_geom_bond_site_symmetry_1
_geom_bond_site_symmetry_2
Al1 O1 1_555 1_555
O1 Al1B 1_555 1_555
C1 C2 1_555 1_555
C2 C3 1_555 1_555
C3 C4 1_555 1_555
C4 C6 1_555 1_555
C5 C1 1_555 1_555
O2 Al1 1_555 1_555
C6 O3 1_555 1_555
O3 Al1C 1_555 1_555
Al1A O3F 1_555 1_555
Al1B O2F 1_555 1_555
O1B Al1 1_555 1_555
C2F C1 1_555 1_555
C3F C4 1_555 1_555
O2F C5 1_555 1_555
O2D Al1 1_555 1_555
O3F C6 1_555 1_555
O3C Al1 1_555 1_555
O3G Al1 1_555 1_555
C5 O2 1_555 1_555
C2F C3F 1_555 1_555

#END
