
#######################################################################
#
#                 Cambridge Crystallographic Data Centre
#                                CCDC 
#
#######################################################################
#
# If this CIF has been generated from an entry in the Cambridge 
# Structural Database, then it will include bibliographic, chemical, 
# crystal, experimental, refinement or atomic coordinate data resulting 
# from the CCDC's data processing and validation procedures.
#
#######################################################################

data_EGELUY01
_symmetry_cell_setting           orthorhombic
_symmetry_space_group_name_H-M   'I m m a'
_symmetry_Int_Tables_number      74
_space_group_name_Hall           '-I 2b 2'
loop_
_symmetry_equiv_pos_site_id
_symmetry_equiv_pos_as_xyz
1 x,y,z
2 1/2+x,1/2+y,1/2+z
3 x,-y,-z
4 -x,1/2+y,-z
5 -x,1/2-y,z
6 1/2+x,1/2-y,1/2-z
7 1/2-x,y,1/2-z
8 1/2-x,-y,1/2+z
9 -x,-y,-z
10 1/2-x,1/2-y,1/2-z
11 -x,y,z
12 x,1/2-y,z
13 x,1/2+y,-z
14 1/2-x,1/2+y,1/2+z
15 1/2+x,-y,1/2+z
16 1/2+x,y,1/2-z
_cell_length_a                   6.6218(17)
_cell_length_b                   16.2148(22)
_cell_length_c                   13.5886(23)
_cell_angle_alpha                90
_cell_angle_beta                 90
_cell_angle_gamma                90
_cell_volume                     1459.02
loop_
_atom_site_label
_atom_site_type_symbol
_atom_site_fract_x
_atom_site_fract_y
_atom_site_fract_z
C8 C 0.193(2) 0.251(3) 0.424(1)
C9 C 0.193(3) 0.178(2) 0.273(2)
C10 C 0.220(3) 0.179(2) 0.376(1)
C11 C 0.138(1) 0.321(1) 0.376(1)
C12 C 0.138(1) 0.248(2) 0.225(1)
C13 C 0.110(2) 0.180(1) 0.276(2)
C14 C 0.392(1) 0.253(3) 0.385(1)
C15 C 0.223(1) 0.252(3) 0.534(1)
C9F C 0.307(3) 0.178(2) 0.227(2)
C9K C 0.193(3) 0.322(2) 0.273(2)
C9I C 0.307(3) 0.322(2) 0.227(2)
C10K C 0.220(3) 0.321(2) 0.376(1)
C11K C 0.138(1) 0.179(1) 0.376(1)
C12I C 0.362(1) 0.252(2) 0.275(1)
C13F C 0.390(2) 0.180(1) 0.224(2)
C13K C 0.110(2) 0.320(1) 0.276(2)
C13J C -0.110(2) 0.180(1) 0.276(2)
C14K C 0.392(1) 0.247(3) 0.385(1)
C14I C 0.108(1) 0.247(3) 0.115(1)
C14F C 0.108(1) 0.253(3) 0.115(1)
C14J C 0.608(1) 0.253(3) 0.385(1)
C14D C 0.608(1) 0.247(3) 0.385(1)
Al1 Al 0.25000 0.25000 0.75000
O1 O 0.00000 0.25000 0.67298(7)
C2 C -0.17917 0.02943(1) 0.9639(1)
C3 C 0.17917 0.02943(1) 0.9639(1)
C4 C 0.00000 0.05887(2) 0.9277(2)
C7 C 0.00000 0.1233(2) 0.8485(3)
O2 O 0.17001 0.1512(3) 0.8142(2)
Al1D Al -0.25000 0.25000 0.75000
Al1B Al 0.25000 -0.25000 1.25000
Al1A Al -0.25000 -0.25000 1.25000
O1E O 0.50000 0.25000 0.82702(7)
C2B C -0.17917 -0.02943(1) 1.0361(1)
C3B C 0.17917 -0.02943(1) 1.0361(1)
C4B C 0.00000 -0.05887(2) 1.0723(2)
C7B C 0.00000 -0.1233(2) 1.1515(3)
O2K O 0.17001 0.3488(3) 0.8142(2)
O2I O 0.32999 0.3488(3) 0.6858(2)
O2F O 0.32999 0.1512(3) 0.6858(2)
O2J O -0.17001 0.1512(3) 0.8142(2)
O2H O -0.17001 -0.1512(3) 1.1858(2)
O2B O 0.17001 -0.1512(3) 1.1858(2)
C1? C 0.00000 -0.05887(2) 0.0723(2)
C5? C 0.00000 -0.1233(2) 0.1515(3)
C6? C 0.17001 -0.1512(3) 0.1858(2)
loop_
_geom_bond_atom_site_label_1
_geom_bond_atom_site_label_2
_geom_bond_site_symmetry_1
_geom_bond_site_symmetry_2
Al1 O1 1_555 1_555
O1 Al1D 1_555 1_555
C2 C4 1_555 1_555
C3 C4 1_555 1_555
C4 C7 1_555 1_555
C7 O2 1_555 1_555
O2 Al1 1_555 1_555
C8 C10 1_555 1_555
C9 C10 1_555 1_555
C10 C13 1_555 1_555
C11 C8 1_555 1_555
C12 C9 1_555 1_555
C13 C9 1_555 1_555
C14 C8 1_555 1_555
C15 C8 1_555 1_555
Al1D O2J 1_555 1_555
Al1B O2B 1_555 1_555
Al1A O2H 1_555 1_555
O1E Al1 1_555 1_555
C2B C2 1_555 1_555
C3B C3 1_555 1_555
C4B C2B 1_555 1_555
C7B C4B 1_555 1_555
O2K Al1 1_555 1_555
O2I Al1 1_555 1_555
O2F Al1 1_555 1_555
O2J C7 1_555 1_555
O2H C7B 1_555 1_555
O2B C7B 1_555 1_555
C9F C9 1_555 1_555
C9K C11 1_555 1_555
C9I C12 1_555 1_555
C10K C8 1_555 1_555
C11K C8 1_555 1_555
C12I C9 1_555 1_555
C13F C9 1_555 1_555
C13K C11 1_555 1_555
C13J C13 1_555 1_555
C14K C8 1_555 1_555
C14I C12 1_555 1_555
C14F C12 1_555 1_555
C14J C14 1_555 1_555
C14D C14 1_555 1_555
C9 C11K 1_555 1_555
C10 C14 1_555 1_555
C10 C11K 1_555 1_555
C10 C14K 1_555 1_555
C11 C10K 1_555 1_555
C12 C13 1_555 1_555
C12 C9F 1_555 1_555
C12 C9K 1_555 1_555
C12 C12I 1_555 1_555
C12 C13K 1_555 1_555
C13 C9F 1_555 1_555
C13 C11K 1_555 1_555
C14 C10K 1_555 1_555
C14 C12I 1_555 1_555
C14 C14K 1_555 1_555
C3B C4B 1_555 1_555
C9F C12I 1_555 1_555
C9F C13F 1_555 1_555
C9K C9I 1_555 1_555
C9K C10K 1_555 1_555
C9K C12I 1_555 1_555
C9K C13K 1_555 1_555
C9I C12I 1_555 1_555
C9I C13K 1_555 1_555
C10K C13K 1_555 1_555
C10K C14K 1_555 1_555
C12I C13F 1_555 1_555
C12I C14K 1_555 1_555
C14K C14J 1_555 1_555
C14K C14D 1_555 1_555
C14I C14F 1_555 1_555
C14J C14D 1_555 1_555

#END
