
#######################################################################
#
#                 Cambridge Crystallographic Data Centre
#                                CCDC 
#
#######################################################################
#
# If this CIF has been generated from an entry in the Cambridge 
# Structural Database, then it will include bibliographic, chemical, 
# crystal, experimental, refinement or atomic coordinate data resulting 
# from the CCDC's data processing and validation procedures.
#
#######################################################################

data_EGEMEK
_symmetry_cell_setting           monoclinic
_symmetry_space_group_name_H-M   'P 21/n'
_symmetry_Int_Tables_number      14
_space_group_name_Hall           '-P 2yn'
loop_
_symmetry_equiv_pos_site_id
_symmetry_equiv_pos_as_xyz
1 x,y,z
2 1/2-x,1/2+y,1/2-z
3 -x,-y,-z
4 1/2+x,1/2-y,1/2+z
_cell_length_a                   11.9856(9)
_cell_length_b                   17.7146(11)
_cell_length_c                   15.2383(5)
_cell_angle_alpha                90
_cell_angle_beta                 101.808(4)
_cell_angle_gamma                90
_cell_volume                     3166.93
loop_
_atom_site_label
_atom_site_type_symbol
_atom_site_fract_x
_atom_site_fract_y
_atom_site_fract_z
C1 C 0.2352(2) 0.85551(15) 0.75534(17)
H1 H 0.2497 0.9073 0.7774
H2 H 0.1565 0.8415 0.7569
H3 H 0.2467 0.8523 0.6936
C2 C 0.50204(18) 0.73889(11) 0.88976(14)
C3 C 0.44354(19) 0.70813(13) 0.95198(15)
H4 H 0.3722 0.7288 0.9576
C4 C 0.4890(2) 0.64769(13) 1.00550(16)
H5 H 0.4482 0.6265 1.0468
C5 C 0.59437(19) 0.61829(12) 0.99854(14)
C6 C 0.65419(19) 0.64879(12) 0.93799(14)
H6 H 0.7265 0.6291 0.9336
C7 C 0.60688(18) 0.70855(12) 0.88389(14)
H7 H 0.6473 0.7291 0.8419
C8 C 0.7430(2) 0.53053(13) 1.05618(16)
H8 H 0.7464 0.5104 0.9969
H9 H 0.7602 0.4902 1.1009
H10 H 0.7989 0.5712 1.0716
C9 C 0.9019(2) 0.75796(13) 0.69259(17)
H11 H 0.8763 0.7298 0.7402
H12 H 0.9550 0.7268 0.6671
H13 H 0.8359 0.7709 0.6455
C10 C 0.98991(18) 0.96504(12) 0.78870(14)
C11 C 1.02307(18) 1.00448(12) 0.71827(14)
H14 H 0.9910 0.9912 0.6580
C12 C 1.10158(19) 1.06214(12) 0.73567(14)
H15 H 1.1240 1.0881 0.6875
C13 C 1.14834(19) 1.08252(12) 0.82418(15)
C14 C 1.11587(19) 1.04443(13) 0.89477(14)
H16 H 1.1471 1.0583 0.9550
C15 C 1.03702(18) 0.98581(12) 0.87624(14)
H17 H 1.0151 0.9596 0.9244
C16 C 1.2643(2) 1.17077(15) 0.92138(16)
H18 H 1.1990 1.1875 0.9459
H19 H 1.3148 1.2138 0.9181
H20 H 1.3063 1.1318 0.9603
C17 C 0.44168(18) 1.07439(11) 0.72212(14)
H21 H 0.4230 1.0586 0.7770
C18 C 0.39373(18) 1.14041(12) 0.68270(14)
H22 H 0.3432 1.1688 0.7104
C19 C 0.41961(18) 1.16522(11) 0.60258(14)
C20 C 0.4911(2) 1.11927(13) 0.56397(15)
H23 H 0.5091 1.1326 0.5081
C21 C 0.5354(2) 1.05435(13) 0.60760(15)
H24 H 0.5844 1.0240 0.5805
C22 C 0.37037(18) 1.23620(12) 0.56208(14)
C23 C 0.19892(19) 1.43689(12) 0.43194(14)
H25 H 0.1487 1.4664 0.4587
C24 C 0.25370(18) 1.37651(12) 0.47951(14)
H26 H 0.2411 1.3652 0.5377
C25 C 0.32763(18) 1.33221(11) 0.44166(14)
C26 C 0.34323(19) 1.35289(12) 0.35655(14)
H27 H 0.3939 1.3250 0.3285
C27 C 0.28485(19) 1.41394(12) 0.31330(14)
H28 H 0.2960 1.4267 0.2552
C28 C 0.38411(19) 1.26445(12) 0.48475(15)
N1 N 0.51311(15) 1.03179(10) 0.68635(11)
N2 N 0.21309(15) 1.45602(10) 0.34963(12)
O1 O 0.31281(12) 0.80453(8) 0.81170(10)
O2 O 0.63126(14) 0.55937(9) 1.05492(10)
O3 O 0.95874(12) 0.82651(8) 0.72941(10)
O4 O 1.22482(14) 1.14051(9) 0.83342(10)
P1 P 0.44686(4) 0.81925(3) 0.82279(3)
P2 P 0.88382(5) 0.89195(3) 0.76223(4)
S1 S 0.48904(5) 0.91605(3) 0.89030(4)
S2 S 0.49457(5) 0.81886(3) 0.70493(3)
S3 S 0.76247(4) 0.92396(3) 0.65696(3)
S4 S 0.82045(5) 0.85934(3) 0.86650(4)
Cd1 Cd 0.626504(12) 0.935844(8) 0.773911(10)
H29 H 0.323(2) 1.2615(13) 0.5947(15)
H30 H 0.427(2) 1.2372(15) 0.4506(17)
N2C N 0.71309(15) 1.04398(10) 0.84963(12)
Cd1C Cd 0.126504(12) 1.564156(8) 0.273911(10)
loop_
_geom_bond_atom_site_label_1
_geom_bond_atom_site_label_2
_geom_bond_site_symmetry_1
_geom_bond_site_symmetry_2
C1 H1 1_555 1_555
H2 C1 1_555 1_555
H3 C1 1_555 1_555
C2 C3 1_555 1_555
C3 H4 1_555 1_555
C4 C3 1_555 1_555
H5 C4 1_555 1_555
C5 C4 1_555 1_555
C6 C5 1_555 1_555
H6 C6 1_555 1_555
C7 C2 1_555 1_555
H7 C7 1_555 1_555
C8 H8 1_555 1_555
H9 C8 1_555 1_555
H10 C8 1_555 1_555
C9 H11 1_555 1_555
H12 C9 1_555 1_555
H13 C9 1_555 1_555
C10 C11 1_555 1_555
C11 H14 1_555 1_555
C12 C11 1_555 1_555
H15 C12 1_555 1_555
C13 C12 1_555 1_555
C14 C13 1_555 1_555
H16 C14 1_555 1_555
C15 C10 1_555 1_555
H17 C15 1_555 1_555
C16 H18 1_555 1_555
H19 C16 1_555 1_555
H20 C16 1_555 1_555
C17 H21 1_555 1_555
C18 C17 1_555 1_555
H22 C18 1_555 1_555
C19 C18 1_555 1_555
C20 C19 1_555 1_555
H23 C20 1_555 1_555
C21 C20 1_555 1_555
H24 C21 1_555 1_555
C22 C19 1_555 1_555
C23 H25 1_555 1_555
C24 C23 1_555 1_555
H26 C24 1_555 1_555
C25 C24 1_555 1_555
C26 C25 1_555 1_555
H27 C26 1_555 1_555
C27 C26 1_555 1_555
H28 C27 1_555 1_555
C28 C22 1_555 1_555
N1 C17 1_555 1_555
N2 C23 1_555 1_555
O1 C1 1_555 1_555
O2 C5 1_555 1_555
O3 C9 1_555 1_555
O4 C13 1_555 1_555
P1 C2 1_555 1_555
P2 C10 1_555 1_555
S1 P1 1_555 1_555
S2 P1 1_555 1_555
S3 P2 1_555 1_555
S4 P2 1_555 1_555
Cd1 N1 1_555 1_555
H29 C22 1_555 1_555
H30 C28 1_555 1_555
N2C Cd1 1_555 1_555
Cd1C N2 1_555 1_555
C6 C7 1_555 1_555
C8 O2 1_555 1_555
C14 C15 1_555 1_555
C16 O4 1_555 1_555
C21 N1 1_555 1_555
C25 C28 1_555 1_555
C27 N2 1_555 1_555
O1 P1 1_555 1_555
O3 P2 1_555 1_555
S1 Cd1 1_555 1_555
S2 Cd1 1_555 1_555
S3 Cd1 1_555 1_555
S4 Cd1 1_555 1_555

#END
