
#######################################################################
#
#                 Cambridge Crystallographic Data Centre
#                                CCDC 
#
#######################################################################
#
# If this CIF has been generated from an entry in the Cambridge 
# Structural Database, then it will include bibliographic, chemical, 
# crystal, experimental, refinement or atomic coordinate data resulting 
# from the CCDC's data processing and validation procedures.
#
#######################################################################

data_EGEPUD
_symmetry_cell_setting           orthorhombic
_symmetry_space_group_name_H-M   'P c a 21'
_symmetry_Int_Tables_number      29
_space_group_name_Hall           'P 2c -2ac'
loop_
_symmetry_equiv_pos_site_id
_symmetry_equiv_pos_as_xyz
1 x,y,z
2 -x,-y,1/2+z
3 1/2-x,y,1/2+z
4 1/2+x,-y,z
_cell_length_a                   16.1550(7)
_cell_length_b                   9.5010(5)
_cell_length_c                   19.1570(9)
_cell_angle_alpha                90
_cell_angle_beta                 90
_cell_angle_gamma                90
_cell_volume                     2940.38
loop_
_atom_site_label
_atom_site_type_symbol
_atom_site_fract_x
_atom_site_fract_y
_atom_site_fract_z
C1 C 0.7169(4) 0.0107(7) 0.4840(3)
C2 C 0.6211(4) -0.1415(8) 0.3163(4)
C3 C 0.6023(4) 0.3514(8) 0.4130(4)
C4 C 0.6537(5) -0.4145(9) 0.2702(5)
H1 H 0.6638 -0.5049 0.2536
C5 C 0.7743(6) -0.1130(11) 0.5801(5)
H2 H 0.8201 -0.1580 0.5993
C6 C 0.5767(5) -0.3695(8) 0.2812(5)
H3 H 0.5326 -0.4305 0.2735
C7 C 0.5395(5) 0.5600(9) 0.4542(4)
H4 H 0.4907 0.6092 0.4623
C8 C 0.7126(4) 0.2038(8) 0.2391(4)
C9 C 0.7037(6) -0.1062(11) 0.6165(5)
H5 H 0.6995 -0.1450 0.6609
C10 C 0.6387(6) -0.0403(10) 0.5860(5)
H6 H 0.5895 -0.0330 0.6111
C11 C 0.7186(5) -0.3221(10) 0.2842(5)
H7 H 0.7730 -0.3519 0.2786
C12 C 0.7026(5) -0.1874(9) 0.3063(5)
H8 H 0.7463 -0.1260 0.3148
C13 C 0.6260(6) 0.2359(13) 0.1363(5)
H9 H 0.5753 0.2264 0.1138
C14 C 0.6414(5) 0.0160(9) 0.5202(4)
H10 H 0.5947 0.0565 0.5002
C15 C 0.6794(5) 0.4129(9) 0.4292(4)
H11 H 0.7282 0.3645 0.4202
C16 C 0.6932(7) 0.2955(13) 0.1016(5)
H12 H 0.6865 0.3305 0.0566
C17 C 0.6351(5) 0.1917(11) 0.2037(4)
H13 H 0.5900 0.1530 0.2270
C18 C 0.7676(6) 0.3028(11) 0.1326(4)
H14 H 0.8139 0.3353 0.1087
C19 C 0.6818(6) 0.5440(11) 0.4582(6)
H15 H 0.7329 0.5826 0.4698
C20 C 0.6114(6) 0.6210(9) 0.4710(5)
H16 H 0.6137 0.7107 0.4903
N1 N 0.7279(3) 0.1656(6) 0.3045(3)
N2 N 0.7320(3) 0.0679(7) 0.4198(3)
N3 N 0.5969(3) -0.0142(6) 0.3401(3)
N4 N 0.5893(3) 0.2195(6) 0.3856(3)
N5 N 0.7728(4) 0.2603(7) 0.2013(3)
H17 H 0.8198 0.2716 0.2217
N6 N 0.5616(4) -0.2390(6) 0.3030(3)
H18 H 0.5108 -0.2148 0.3092
N7 N 0.7797(4) -0.0556(8) 0.5159(3)
H19 H 0.8262 -0.0617 0.4941
N8 N 0.5347(4) 0.4310(7) 0.4260(3)
H20 H 0.4867 0.3976 0.4159
Cl1 Cl 0.93166(11) 0.1160(2) 0.44674(10)
Cl2 Cl 0.41174(11) -0.0098(2) 0.27343(10)
Cl3 Cl 0.87537(11) 0.3762(2) 0.33511(11)
Cl4 Cl 0.38811(11) 0.2360(2) 0.39505(12)
P1 P 0.66140(9) 0.11002(17) 0.36321(12)
Cu1 Cu 0.83101(5) 0.15649(9) 0.36642(6)
Cu2 Cu 0.49080(4) 0.09560(9) 0.35836(5)
Cl1C Cl 0.43166(11) -0.1160(2) 0.44674(10)
Cl2C Cl 0.91174(11) 0.0098(2) 0.27343(10)
Cu1C Cu 0.33101(5) -0.15649(9) 0.36642(6)
Cu2C Cu 0.99080(4) -0.09560(9) 0.35836(5)
O1 O 0.5703(6) -0.3982(13) 0.0912(8)
O2 O 0.4552(6) -0.3545(16) 0.1636(6)
O3 O 0.4606(8) -0.2766(12) 0.0528(4)
O4 O 0.5471(7) -0.1901(14) 0.1405(6)
Cl5 Cl 0.5076(2) -0.3094(5) 0.10948(15)
loop_
_geom_bond_atom_site_label_1
_geom_bond_atom_site_label_2
_geom_bond_site_symmetry_1
_geom_bond_site_symmetry_2
C1 C14 1_555 1_555
C2 C12 1_555 1_555
C3 C15 1_555 1_555
C4 H1 1_555 1_555
C5 H2 1_555 1_555
C6 C4 1_555 1_555
H3 C6 1_555 1_555
C7 H4 1_555 1_555
C8 C17 1_555 1_555
C9 C5 1_555 1_555
H5 C9 1_555 1_555
C10 C9 1_555 1_555
H6 C10 1_555 1_555
C11 C4 1_555 1_555
H7 C11 1_555 1_555
C12 C11 1_555 1_555
H8 C12 1_555 1_555
C13 H9 1_555 1_555
C14 C10 1_555 1_555
H10 C14 1_555 1_555
C15 H11 1_555 1_555
C16 C13 1_555 1_555
H12 C16 1_555 1_555
C17 C13 1_555 1_555
H13 C17 1_555 1_555
C18 C16 1_555 1_555
H14 C18 1_555 1_555
C19 C15 1_555 1_555
H15 C19 1_555 1_555
C20 C7 1_555 1_555
H16 C20 1_555 1_555
N1 C8 1_555 1_555
N2 C1 1_555 1_555
N3 C2 1_555 1_555
N4 C3 1_555 1_555
N5 C8 1_555 1_555
H17 N5 1_555 1_555
N6 C2 1_555 1_555
H18 N6 1_555 1_555
N7 C1 1_555 1_555
H19 N7 1_555 1_555
N8 C3 1_555 1_555
H20 N8 1_555 1_555
Cl1 Cu1 1_555 1_555
Cl2 Cu2 1_555 1_555
Cl3 Cu1 1_555 1_555
Cl4 Cu2 1_555 1_555
P1 N1 1_555 1_555
Cu1 N1 1_555 1_555
Cu2 N3 1_555 1_555
O1 Cl5 1_555 1_555
O2 Cl5 1_555 1_555
O3 Cl5 1_555 1_555
O4 Cl5 1_555 1_555
Cl1C Cu2 1_555 1_555
Cl2C Cu1 1_555 1_555
Cu1C Cl2 1_555 1_555
Cu2C Cl1 1_555 1_555
C5 N7 1_555 1_555
C6 N6 1_555 1_555
C7 N8 1_555 1_555
C18 N5 1_555 1_555
C19 C20 1_555 1_555
N2 P1 1_555 1_555
N2 Cu1 1_555 1_555
N3 P1 1_555 1_555
N4 P1 1_555 1_555
N4 Cu2 1_555 1_555
Cl1C Cu1C 1_555 1_555
Cl2C Cu2C 1_555 1_555

#END
