
#######################################################################
#
#                 Cambridge Crystallographic Data Centre
#                                CCDC 
#
#######################################################################
#
# If this CIF has been generated from an entry in the Cambridge 
# Structural Database, then it will include bibliographic, chemical, 
# crystal, experimental, refinement or atomic coordinate data resulting 
# from the CCDC's data processing and validation procedures.
#
#######################################################################

data_EGEPOW
_symmetry_cell_setting           monoclinic
_symmetry_space_group_name_H-M   'P 21/c'
_symmetry_Int_Tables_number      14
_space_group_name_Hall           '-P 2ybc'
loop_
_symmetry_equiv_pos_site_id
_symmetry_equiv_pos_as_xyz
1 x,y,z
2 -x,1/2+y,1/2-z
3 -x,-y,-z
4 x,1/2-y,1/2+z
_cell_length_a                   11.8112(11)
_cell_length_b                   19.3356(16)
_cell_length_c                   14.1134(12)
_cell_angle_alpha                90
_cell_angle_beta                 109.412(2)
_cell_angle_gamma                90
_cell_volume                     3039.94
loop_
_atom_site_label
_atom_site_type_symbol
_atom_site_fract_x
_atom_site_fract_y
_atom_site_fract_z
C1 C 0.0791(6) 0.9149(4) 0.4269(5)
H1 H 0.0385 0.9355 0.4676
C2 C 0.1099(7) 0.9560(4) 0.3595(6)
H2 H 0.0914 1.0039 0.3553
C3 C 0.1683(7) 0.9274(4) 0.2974(6)
C4 C 0.1958(7) 0.8570(4) 0.3096(6)
H3 H 0.2367 0.8353 0.2701
C5 C 0.1632(7) 0.8191(4) 0.3796(5)
H4 H 0.1834 0.7714 0.3870
C6 C 0.2022(7) 0.9710(4) 0.2228(6)
H5 H 0.1417 1.0079 0.1973
H6 H 0.2022 0.9419 0.1651
C7 C 0.3257(7) 1.0037(4) 0.2694(6)
H7 H 0.3293 1.0280 0.3321
H8 H 0.3878 0.9670 0.2868
C8 C 0.3383(7) 1.1675(4) 0.1273(5)
H9 H 0.3162 1.2147 0.1283
C9 C 0.3202(7) 1.1232(4) 0.1972(5)
H10 H 0.2868 1.1402 0.2453
C10 C 0.3505(7) 1.0539(4) 0.1978(5)
C11 C 0.3977(7) 1.0321(4) 0.1238(6)
H11 H 0.4180 0.9849 0.1198
C12 C 0.4145(7) 1.0793(4) 0.0572(6)
H12 H 0.4478 1.0637 0.0084
C13 C -0.3814(7) 0.3196(4) 0.8286(5)
H13 H -0.3949 0.2752 0.7978
C14 C -0.3127(7) 0.3662(4) 0.7985(6)
H14 H -0.2787 0.3537 0.7487
C15 C -0.2929(6) 0.4323(4) 0.8412(5)
C16 C -0.3465(7) 0.4477(4) 0.9126(6)
H15 H -0.3368 0.4923 0.9426
C17 C -0.4139(7) 0.3982(4) 0.9397(6)
H16 H -0.4504 0.4096 0.9883
C18 C -0.2149(7) 0.4847(4) 0.8126(5)
H17 H -0.1308 0.4681 0.8360
H18 H -0.2173 0.5289 0.8473
C19 C -0.2543(8) 0.4979(4) 0.6988(6)
H19 H -0.2459 0.4544 0.6647
H20 H -0.3404 0.5107 0.6746
C20 C -0.1087(7) 0.6689(4) 0.6800(5)
H21 H -0.0985 0.7129 0.7116
C21 C -0.1664(7) 0.6184(4) 0.7150(6)
H22 H -0.1937 0.6276 0.7699
C22 C -0.1846(6) 0.5534(4) 0.6693(5)
C23 C -0.1376(8) 0.5435(4) 0.5921(6)
H23 H -0.1459 0.4998 0.5598
C24 C -0.0790(7) 0.5965(4) 0.5617(6)
H24 H -0.0470 0.5882 0.5092
C25 C -0.0331(7) 0.6838(4) 0.3452(6)
C26 C 0.2644(8) 0.6772(4) 0.5337(6)
C27 C 0.4841(7) 1.3235(4) 0.1591(5)
N1 N 0.1041(6) 0.8464(3) 0.4377(4)
N2 N 0.3858(5) 1.1471(3) 0.0578(5)
N3 N -0.4301(6) 0.3336(3) 0.8992(5)
N4 N -0.0661(6) 0.6600(3) 0.6046(4)
N5 N -0.0666(6) 0.7205(3) 0.3962(5)
N6 N 0.1913(7) 0.6887(5) 0.5690(5)
N7 N 0.5099(6) 1.2955(3) 0.0982(5)
N8 N -0.2224(6) 0.8547(3) 0.5295(5)
O1 O -0.2164(5) 0.7881(3) 0.5328(4)
O2 O -0.1475(5) 0.8869(3) 0.5048(4)
O3 O -0.3057(6) 0.8826(3) 0.5517(5)
Pb1 Pb 0.01547(3) 0.772491(14) 0.55439(2)
Pb2 Pb 0.43205(3) 1.242500(14) -0.05933(2)
S1 S 0.0080(2) 0.63345(11) 0.27020(17)
S2 S 0.3618(2) 0.65549(12) 0.47961(16)
S3 S 0.4492(2) 1.36233(12) 0.24842(17)
N3_2 N 0.5699(6) 1.3336(3) -0.1008(5)
O1A O 0.2164(5) 1.2881(3) -0.0328(4)
Pb2_2 Pb -0.56795(3) 0.242500(14) 0.94067(2)
Pb2A Pb -0.43205(3) 0.742500(14) 0.55933(2)
Pb2A_2 Pb 0.56795(3) 0.742500(14) 0.55933(2)
S2A S 0.6382(2) 1.15549(12) 0.02039(16)
loop_
_geom_bond_atom_site_label_1
_geom_bond_atom_site_label_2
_geom_bond_site_symmetry_1
_geom_bond_site_symmetry_2
C1 H1 1_555 1_555
C2 C1 1_555 1_555
H2 C2 1_555 1_555
C3 C2 1_555 1_555
C4 C3 1_555 1_555
H3 C4 1_555 1_555
C5 C4 1_555 1_555
H4 C5 1_555 1_555
C6 C3 1_555 1_555
H5 C6 1_555 1_555
H6 C6 1_555 1_555
C7 C6 1_555 1_555
H7 C7 1_555 1_555
H8 C7 1_555 1_555
C8 H9 1_555 1_555
C9 C8 1_555 1_555
H10 C9 1_555 1_555
C10 C7 1_555 1_555
C11 C10 1_555 1_555
H11 C11 1_555 1_555
C12 C11 1_555 1_555
H12 C12 1_555 1_555
C13 H13 1_555 1_555
C14 C13 1_555 1_555
H14 C14 1_555 1_555
C15 C14 1_555 1_555
C16 C15 1_555 1_555
H15 C16 1_555 1_555
C17 C16 1_555 1_555
H16 C17 1_555 1_555
C18 C15 1_555 1_555
H17 C18 1_555 1_555
H18 C18 1_555 1_555
C19 C18 1_555 1_555
H19 C19 1_555 1_555
H20 C19 1_555 1_555
C20 H21 1_555 1_555
C21 C20 1_555 1_555
H22 C21 1_555 1_555
C22 C19 1_555 1_555
C23 C22 1_555 1_555
H23 C23 1_555 1_555
C24 C23 1_555 1_555
H24 C24 1_555 1_555
C25 N5 1_555 1_555
C26 N6 1_555 1_555
C27 N7 1_555 1_555
N1 C1 1_555 1_555
N2 C8 1_555 1_555
N3 C13 1_555 1_555
N4 C20 1_555 1_555
N5 Pb1 1_555 1_555
N6 Pb1 1_555 1_555
N7 Pb2 1_555 1_555
N8 O1 1_555 1_555
O1 Pb1 1_555 1_555
O2 N8 1_555 1_555
O3 N8 1_555 1_555
Pb1 N1 1_555 1_555
Pb2 N2 1_555 1_555
S1 C25 1_555 1_555
S2 C26 1_555 1_555
S3 C27 1_555 1_555
N3_2 Pb2 1_555 1_555
O1A Pb2 1_555 1_555
Pb2_2 N3 1_555 1_555
Pb2A O1 1_555 1_555
Pb2A_2 S2 1_555 1_555
S2A Pb2 1_555 1_555
C5 N1 1_555 1_555
C9 C10 1_555 1_555
C12 N2 1_555 1_555
C17 N3 1_555 1_555
C21 C22 1_555 1_555
C24 N4 1_555 1_555
N4 Pb1 1_555 1_555
O2 Pb1 1_555 1_555

#END
