
#######################################################################
#
#                 Cambridge Crystallographic Data Centre
#                                CCDC 
#
#######################################################################
#
# If this CIF has been generated from an entry in the Cambridge 
# Structural Database, then it will include bibliographic, chemical, 
# crystal, experimental, refinement or atomic coordinate data resulting 
# from the CCDC's data processing and validation procedures.
#
#######################################################################

data_EGEPUC
_symmetry_cell_setting           monoclinic
_symmetry_space_group_name_H-M   'C 2/c'
_symmetry_Int_Tables_number      15
_space_group_name_Hall           '-C 2yn'
loop_
_symmetry_equiv_pos_site_id
_symmetry_equiv_pos_as_xyz
1 x,y,z
2 1/2+x,1/2+y,z
3 -x,y,1/2-z
4 1/2-x,1/2+y,1/2-z
5 -x,-y,-z
6 1/2-x,1/2-y,-z
7 x,-y,1/2+z
8 1/2+x,1/2-y,1/2+z
_cell_length_a                   19.068(7)
_cell_length_b                   10.312(4)
_cell_length_c                   7.130(3)
_cell_angle_alpha                90
_cell_angle_beta                 97.265(6)
_cell_angle_gamma                90
_cell_volume                     1390.71
loop_
_atom_site_label
_atom_site_type_symbol
_atom_site_fract_x
_atom_site_fract_y
_atom_site_fract_z
Pb1 Pb 0.91946(3) 1.34985(6) -0.47417(9)
Pb2 Pb 1.0000 1.06935(8) 0.2500
P1 P 0.8891(2) 1.3194(4) -0.0083(6)
O1 O 0.9447(7) 1.3632(12) -0.1376(17)
O2 O 0.8485(7) 1.4317(11) 0.0541(18)
O3 O 0.9232(7) 1.2410(12) 0.1590(17)
O4 O 0.9468(6) 0.8781(12) 0.0346(16)
H1 H 0.8992 0.9129 -0.0028
N1 N 0.8073(7) 1.2443(12) -0.3462(18)
C1 C 0.8334(9) 1.2009(16) -0.151(2)
H2 H 0.7929 1.1806 -0.0866
H3 H 0.8603 1.1217 -0.1588
C2 C 0.7825(9) 1.1288(16) -0.455(2)
H4 H 0.8216 1.0693 -0.4590
H5 H 0.7468 1.0852 -0.3922
C3 C 0.7485(10) 1.3365(16) -0.345(2)
H6 H 0.7653 1.4145 -0.2782
H7 H 0.7120 1.2983 -0.2796
Pb1E Pb 0.58054(3) 1.15015(6) -0.52583(9)
Pb1B Pb 1.08054(3) 1.34985(6) -0.02583(9)
Pb1F Pb 0.91946(3) 1.65015(6) 0.02583(9)
Pb1F_2 Pb 0.91946(3) 0.65015(6) 0.02583(9)
Pb1G Pb 0.41946(3) 1.15015(6) -0.97417(9)
Pb1C Pb 0.58054(3) 0.84985(6) -1.02583(9)
Pb1_2 Pb 0.91946(3) 1.34985(6) 0.52583(9)
Pb2F Pb 1.0000 0.93065(8) -0.2500
Pb2G Pb 0.5000 1.43065(8) -1.2500
Pb2F_2 Pb 1.0000 0.93065(8) 0.7500
P1E P 0.6109(2) 1.1806(4) -0.9917(6)
O1E O 0.5553(7) 1.1368(12) -0.8624(17)
O1B O 1.0553(7) 1.3632(12) -0.3624(17)
O1G O 0.4447(7) 1.1368(12) -0.6376(17)
O2E O 0.6515(7) 1.0683(11) -1.0541(18)
O2F O 0.8485(7) 1.5683(11) -0.4459(18)
O2C O 0.6515(7) 0.9317(11) -0.5541(18)
O3E O 0.5768(7) 1.2590(12) -1.1590(17)
O3B O 1.0768(7) 1.2410(12) 0.3410(17)
O4F O 0.9468(6) 1.1219(12) 0.5346(16)
O4F_2 O 0.9468(6) 1.1219(12) -0.4654(16)
O4D O 1.0532(6) 1.1219(12) -0.0346(16)
O4B O 1.0532(6) 0.8781(12) 0.4654(16)
O4C O 0.5532(6) 1.3781(12) -0.5346(16)
H1F H 0.8992 1.0871 0.4972
H1F_2 H 0.8992 1.0871 -0.5028
H1D H 1.1008 1.0871 0.0028
H1B H 1.1008 0.9129 0.5028
H1C H 0.6008 1.4129 -0.4972
N1E N 0.6927(7) 1.2557(12) -0.6538(18)
C1E C 0.6666(9) 1.2991(16) -0.849(2)
H2E H 0.7071 1.3194 -0.9134
H3E H 0.6397 1.3783 -0.8412
C2E C 0.7175(9) 1.3712(16) -0.545(2)
H4E H 0.6784 1.4307 -0.5410
H5E H 0.7532 1.4148 -0.6078
C3E C 0.7515(10) 1.1635(16) -0.655(2)
H6E H 0.7347 1.0855 -0.7218
H7E H 0.7880 1.2017 -0.7204
loop_
_geom_bond_atom_site_label_1
_geom_bond_atom_site_label_2
_geom_bond_site_symmetry_1
_geom_bond_site_symmetry_2
Pb1 O1 1_555 1_555
Pb2 O3 1_555 1_555
P1 O1 1_555 1_555
O1 Pb1B 1_555 1_555
O2 P1 1_555 1_555
O3 P1 1_555 1_555
O4 Pb2 1_555 1_555
H1 O4 1_555 1_555
N1 Pb1 1_555 1_555
C1 P1 1_555 1_555
H2 C1 1_555 1_555
H3 C1 1_555 1_555
C2 N1 1_555 1_555
H4 C2 1_555 1_555
H5 C2 1_555 1_555
C3 N1 1_555 1_555
H6 C3 1_555 1_555
H7 C3 1_555 1_555
Pb1E O1E 1_555 1_555
Pb1B O1B 1_555 1_555
Pb1F O2 1_555 1_555
Pb1F_2 O4 1_555 1_555
Pb1G O1E 1_555 1_555
Pb1C O2E 1_555 1_555
Pb1_2 O4F 1_555 1_555
Pb2F O4 1_555 1_555
Pb2G O3E 1_555 1_555
Pb2F_2 O4F 1_555 1_555
P1E O1E 1_555 1_555
O1B Pb1 1_555 1_555
O1G Pb1E 1_555 1_555
O2E P1E 1_555 1_555
O2F Pb1 1_555 1_555
O2C Pb1E 1_555 1_555
O3E P1E 1_555 1_555
O3B Pb2 1_555 1_555
O4F Pb2 1_555 1_555
O4F_2 Pb1 1_555 1_555
O4D Pb2 1_555 1_555
O4B Pb2 1_555 1_555
O4C Pb1E 1_555 1_555
H1F O4F 1_555 1_555
H1F_2 O4F_2 1_555 1_555
H1D O4D 1_555 1_555
H1B O4B 1_555 1_555
H1C O4C 1_555 1_555
N1E Pb1E 1_555 1_555
C1E P1E 1_555 1_555
H2E C1E 1_555 1_555
H3E C1E 1_555 1_555
C2E C3 1_555 1_555
H4E C2E 1_555 1_555
H5E C2E 1_555 1_555
C3E C2 1_555 1_555
H6E C3E 1_555 1_555
H7E C3E 1_555 1_555
N1 C1 1_555 1_555
Pb1B O4D 1_555 1_555
Pb1G O1G 1_555 1_555
Pb2F O4F_2 1_555 1_555
Pb2F O4D 1_555 1_555
Pb2F_2 O4B 1_555 1_555
N1E C1E 1_555 1_555
N1E C2E 1_555 1_555
N1E C3E 1_555 1_555

#END
