
#######################################################################
#
#                 Cambridge Crystallographic Data Centre
#                                CCDC 
#
#######################################################################
#
# If this CIF has been generated from an entry in the Cambridge 
# Structural Database, then it will include bibliographic, chemical, 
# crystal, experimental, refinement or atomic coordinate data resulting 
# from the CCDC's data processing and validation procedures.
#
#######################################################################

data_EGEQOW03
_symmetry_cell_setting           monoclinic
_symmetry_space_group_name_H-M   'C 2/c'
_symmetry_Int_Tables_number      15
_space_group_name_Hall           '-C 2yn'
loop_
_symmetry_equiv_pos_site_id
_symmetry_equiv_pos_as_xyz
1 x,y,z
2 -x,y,1/2-z
3 1/2+x,1/2+y,z
4 1/2-x,1/2+y,1/2-z
5 -x,-y,-z
6 x,-y,1/2+z
7 1/2-x,1/2-y,-z
8 1/2+x,1/2-y,1/2+z
_cell_length_a                   14.3900
_cell_length_b                   11.4180
_cell_length_c                   22.9080
_cell_angle_alpha                90.0
_cell_angle_beta                 95.08
_cell_angle_gamma                90.0
_cell_volume                     3749.11
loop_
_atom_site_label
_atom_site_type_symbol
_atom_site_fract_x
_atom_site_fract_y
_atom_site_fract_z
Zn1 Zn 0.00000 0.00500 0.75000
O1 O 0.14870 0.00225 0.75200
N1 N 0.00000 -0.18510 0.75000
N2 N 0.00000 -0.80580 0.75000
N3 N -0.00875 0.00450 0.65425
C7 C 0.07350 -0.24800 0.73620
C8 C 0.07650 -0.36850 0.73460
C9 C 0.00000 -0.43000 0.75000
C10 C 0.07650 -0.74350 0.76970
C11 C 0.08105 -0.62200 0.77020
C12 C 0.00000 -0.55900 0.75000
C13 C -0.04350 -0.08400 0.62190
C14 C -0.04100 -0.08850 0.56145
C15 C -0.00395 0.00200 0.53215
C16 C 0.03245 0.09650 0.56490
C17 C 0.02805 0.09550 0.62625
C8A C -0.07650 -0.36850 0.76540
C7A C -0.07350 -0.24800 0.76380
C10A C -0.07650 -0.74350 0.73030
C11A C -0.08105 -0.62200 0.72980
C15D C 0.00395 -0.00200 0.46785
C14D C 0.04100 0.08850 0.43855
C13D C 0.04350 0.08400 0.37810
N3D N 0.00875 -0.00450 0.34575
C17D C -0.02805 -0.09550 0.37375
C16D C -0.03245 -0.09650 0.43510
O1A O -0.14870 0.00225 0.74800
N2_2 N 0.00000 0.19420 0.75000
N3A N 0.00875 0.00450 0.84575
Zn1_2 Zn 0.00000 -0.99500 0.75000
Zn1D Zn 0.00000 -0.00500 0.25000
O2 O 0.25995 -0.42650 0.64840
O3 O 0.23150 -0.74500 0.57260
O4 O 0.23000 -0.65700 0.65480
O5 O 0.23300 -0.20400 0.63090
O6 O 0.17900 -0.14350 0.54940
O7 O 0.03150 -0.38750 0.40845
O8 O 0.05000 -0.57650 0.41095
N4 N 0.22000 -0.65800 0.60200
N5 N 0.19610 -0.22200 0.58465
N6 N 0.06200 -0.48250 0.42900
C1 C 0.21450 -0.43700 0.59860
C2 C 0.19400 -0.54900 0.57145
C3 C 0.14800 -0.56850 0.51550
C4 C 0.11700 -0.46650 0.48715
C5 C 0.13200 -0.35350 0.50890
C6 C 0.18100 -0.34100 0.56255
O9 O 0.24675 0.04800 0.65730
loop_
_geom_bond_atom_site_label_1
_geom_bond_atom_site_label_2
_geom_bond_site_symmetry_1
_geom_bond_site_symmetry_2
Zn1 O1 1_555 1_555
O2 C1 1_555 1_555
O3 N4 1_555 1_555
O4 N4 1_555 1_555
O5 N5 1_555 1_555
O6 N5 1_555 1_555
O7 N6 1_555 1_555
O8 N6 1_555 1_555
N1 Zn1 1_555 1_555
N2 C10 1_555 1_555
N3 Zn1 1_555 1_555
N4 C2 1_555 1_555
N5 C6 1_555 1_555
N6 C4 1_555 1_555
C1 C2 1_555 1_555
C2 C3 1_555 1_555
C3 C4 1_555 1_555
C4 C5 1_555 1_555
C5 C6 1_555 1_555
C6 C1 1_555 1_555
C7 N1 1_555 1_555
C8 C7 1_555 1_555
C9 C8 1_555 1_555
C10 C11 1_555 1_555
C11 C12 1_555 1_555
C12 C9 1_555 1_555
C13 N3 1_555 1_555
C14 C13 1_555 1_555
C15 C14 1_555 1_555
C16 C15 1_555 1_555
C17 N3 1_555 1_555
C8A C9 1_555 1_555
C7A N1 1_555 1_555
C10A N2 1_555 1_555
C11A C12 1_555 1_555
C15D C15 1_555 1_555
C14D C15D 1_555 1_555
C13D C14D 1_555 1_555
N3D C13D 1_555 1_555
C17D N3D 1_555 1_555
C16D C15D 1_555 1_555
O1A Zn1 1_555 1_555
N2_2 Zn1 1_555 1_555
N3A Zn1 1_555 1_555
Zn1_2 N2 1_555 1_555
Zn1D N3D 1_555 1_555
C16 C17 1_555 1_555
C8A C7A 1_555 1_555
C10A C11A 1_555 1_555
C17D C16D 1_555 1_555

#END
