
#######################################################################
#
#                 Cambridge Crystallographic Data Centre
#                                CCDC 
#
#######################################################################
#
# If this CIF has been generated from an entry in the Cambridge 
# Structural Database, then it will include bibliographic, chemical, 
# crystal, experimental, refinement or atomic coordinate data resulting 
# from the CCDC's data processing and validation procedures.
#
#######################################################################

data_EGEQOW
_symmetry_cell_setting           monoclinic
_symmetry_space_group_name_H-M   'C c'
_symmetry_Int_Tables_number      9
_space_group_name_Hall           'C -2yc'
loop_
_symmetry_equiv_pos_site_id
_symmetry_equiv_pos_as_xyz
1 x,y,z
2 x,-y,1/2+z
3 1/2+x,1/2+y,z
4 1/2+x,1/2-y,1/2+z
_cell_length_a                   14.390(2)
_cell_length_b                   11.418(1)
_cell_length_c                   22.908(3)
_cell_angle_alpha                90
_cell_angle_beta                 95.08(1)
_cell_angle_gamma                90
_cell_volume                     3749.11
loop_
_atom_site_label
_atom_site_type_symbol
_atom_site_fract_x
_atom_site_fract_y
_atom_site_fract_z
Zn1 Zn 0.199 0.0050(1) 0.976
O1 O 0.3446(6) 0.0045(9) 0.9803(4)
O2 O 0.0472(7) 0.000(1) 0.9763(4)
N1 N 0.194(2) -0.1851(8) 0.976(1)
N2 N 0.191(1) -0.8058(7) 0.9772(8)
N3 N 0.1881(8) -0.001(1) 0.8821(4)
N4 N 0.2056(8) -0.010(1) 0.5736(4)
C13 C 0.277(1) -0.249(1) 0.9696(6)
C14 C 0.2770(9) -0.369(1) 0.9664(5)
C15 C 0.207(1) -0.4300(9) 0.9763(9)
C16 C 0.124(1) -0.368(1) 0.9972(7)
C17 C 0.130(1) -0.247(1) 0.9972(6)
C18 C 0.2710(8) -0.744(1) 0.9993(5)
C19 C 0.287(1) -0.621(1) 0.9950(7)
C20 C 0.201(2) -0.559(1) 0.973(1)
C21 C 0.1249(9) -0.623(1) 0.9546(6)
C22 C 0.118(1) -0.743(2) 0.9599(8)
C23 C 0.141(1) -0.076(1) 0.8474(7)
C24 C 0.144(1) -0.079(1) 0.7875(6)
C25 C 0.1961(8) -0.004(1) 0.7579(5)
C26 C 0.238(1) 0.093(2) 0.7898(8)
C27 C 0.230(1) 0.097(2) 0.8537(9)
C28 C 0.1739(8) -0.094(1) 0.6012(5)
C29 C 0.1731(9) -0.100(1) 0.6600(5)
C30 C 0.240(1) -0.008(2) 0.6936(6)
C31 C 0.226(1) 0.098(1) 0.6646(7)
C32 C 0.228(1) 0.092(1) 0.6036(6)
N2_2 N 0.191(1) 0.1942(7) 0.9772(8)
N4A N 0.2056(8) 0.010(1) 1.0736(4)
Zn1_2 Zn 0.199 -0.9950(1) 0.976
Zn1A Zn 0.199 -0.0050(1) 0.476
O3 O 0.4649(8) -0.425(1) 0.8714(5)
O4 O 0.417(1) -0.746(2) 0.7943(7)
O5 O 0.415(1) -0.656(1) 0.8847(7)
O6 O 0.407(1) -0.203(1) 0.8648(6)
O7 O 0.371(2) -0.147(2) 0.774(1)
O8 O 0.225(1) -0.366(1) 0.6360(6)
O9 O 0.243(1) -0.558(1) 0.6365(7)
N5 N 0.413(1) -0.650(2) 0.8285(8)
N6 N 0.390(2) -0.218(2) 0.812(1)
N7 N 0.256(1) -0.466(1) 0.6552(6)
C1 C 0.410(2) -0.427(2) 0.8241(9)
C2 C 0.393(1) -0.554(2) 0.7943(7)
C3 C 0.345(2) -0.579(2) 0.7395(9)
C4 C 0.312(1) -0.448(1) 0.7136(6)
C5 C 0.330(1) -0.340(1) 0.7380(7)
C6 C 0.376(1) -0.348(1) 0.7853(7)
O10 O -0.055(1) -0.572(1) 0.5746(5)
O11 O -0.045(1) -0.342(1) 0.5751(7)
O12 O -0.046(1) -0.256(1) 0.6491(7)
O13 O 0.143(1) -0.405(2) 0.8146(7)
O14 O 0.162(1) -0.591(1) 0.8191(7)
O15 O 0.013(1) -0.860(1) 0.6752(6)
O16 O -0.059(2) -0.795(2) 0.603(1)
N8 N -0.027(1) -0.334(1) 0.6245(7)
N9 N 0.132(1) -0.501(2) 0.7972(9)
N10 N -0.0022(9) -0.774(1) 0.6427(5)
C7 C -0.019(1) -0.553(1) 0.6269(6)
C8 C 0.005(1) -0.456(1) 0.6514(7)
C9 C 0.049(1) -0.442(1) 0.7085(7)
C10 C 0.078(1) -0.515(2) 0.7393(7)
C11 C 0.066(1) -0.633(2) 0.7202(8)
C12 C 0.014(1) -0.666(1) 0.6602(7)
O17 O 0.4425(9) 0.036(1) 0.8816(5)
O18 O 0.9490(9) 0.060(1) 0.0670(6)
loop_
_geom_bond_atom_site_label_1
_geom_bond_atom_site_label_2
_geom_bond_site_symmetry_1
_geom_bond_site_symmetry_2
Zn1 O1 1_555 1_555
O2 Zn1 1_555 1_555
O3 C1 1_555 1_555
O4 N5 1_555 1_555
O5 N5 1_555 1_555
O6 N6 1_555 1_555
O7 N6 1_555 1_555
O8 N7 1_555 1_555
O9 N7 1_555 1_555
O10 C7 1_555 1_555
O11 N8 1_555 1_555
O12 N8 1_555 1_555
O13 N9 1_555 1_555
O14 N9 1_555 1_555
O15 N10 1_555 1_555
O16 N10 1_555 1_555
N1 Zn1 1_555 1_555
N2 C18 1_555 1_555
N3 Zn1 1_555 1_555
N4 C28 1_555 1_555
N5 C2 1_555 1_555
N6 C6 1_555 1_555
N7 C4 1_555 1_555
N8 C8 1_555 1_555
N9 C10 1_555 1_555
N10 C12 1_555 1_555
C1 C2 1_555 1_555
C2 C3 1_555 1_555
C3 C4 1_555 1_555
C4 C5 1_555 1_555
C5 C6 1_555 1_555
C6 C1 1_555 1_555
C7 C8 1_555 1_555
C8 C9 1_555 1_555
C9 C10 1_555 1_555
C10 C11 1_555 1_555
C11 C12 1_555 1_555
C12 C7 1_555 1_555
C13 N1 1_555 1_555
C14 C13 1_555 1_555
C15 C14 1_555 1_555
C16 C15 1_555 1_555
C17 N1 1_555 1_555
C18 C19 1_555 1_555
C19 C20 1_555 1_555
C20 C15 1_555 1_555
C21 C20 1_555 1_555
C22 N2 1_555 1_555
C23 N3 1_555 1_555
C24 C23 1_555 1_555
C25 C24 1_555 1_555
C26 C25 1_555 1_555
C27 N3 1_555 1_555
C28 C29 1_555 1_555
C29 C30 1_555 1_555
C30 C25 1_555 1_555
C31 C30 1_555 1_555
C32 N4 1_555 1_555
N2_2 Zn1 1_555 1_555
N4A Zn1 1_555 1_555
Zn1_2 N2 1_555 1_555
Zn1A N4 1_555 1_555
C16 C17 1_555 1_555
C21 C22 1_555 1_555
C26 C27 1_555 1_555
C31 C32 1_555 1_555

#END
