
#######################################################################
#
#                 Cambridge Crystallographic Data Centre
#                                CCDC 
#
#######################################################################
#
# If this CIF has been generated from an entry in the Cambridge 
# Structural Database, then it will include bibliographic, chemical, 
# crystal, experimental, refinement or atomic coordinate data resulting 
# from the CCDC's data processing and validation procedures.
#
#######################################################################

data_EGERUE
_symmetry_cell_setting           monoclinic
_symmetry_space_group_name_H-M   'P 21/c'
_symmetry_Int_Tables_number      14
_space_group_name_Hall           '-P 2ybc'
loop_
_symmetry_equiv_pos_site_id
_symmetry_equiv_pos_as_xyz
1 x,y,z
2 -x,1/2+y,1/2-z
3 -x,-y,-z
4 x,1/2-y,1/2+z
_cell_length_a                   17.3940(3)
_cell_length_b                   15.3870(6)
_cell_length_c                   10.3820(6)
_cell_angle_alpha                90
_cell_angle_beta                 97.2960(18)
_cell_angle_gamma                90
_cell_volume                     2756.16
loop_
_atom_site_label
_atom_site_type_symbol
_atom_site_fract_x
_atom_site_fract_y
_atom_site_fract_z
In1 In 0.26414(3) 0.02639(4) 0.10548(6)
C1 C 0.3289(5) 0.2002(7) 0.2162(10)
C2 C 0.3785(5) 0.2453(7) 0.3157(10)
H1 H 0.4012 0.2145 0.3877
C3 C 0.3931(6) 0.3325(9) 0.3074(12)
H2 H 0.4257 0.3593 0.3736
C4 C 0.3614(8) 0.3803(8) 0.2054(16)
H3 H 0.3718 0.4394 0.2007
C5 C 0.3122(7) 0.3386(8) 0.1064(13)
H4 H 0.2904 0.3708 0.0351
C6 C 0.2949(5) 0.2493(6) 0.1124(9)
C7 C 0.2460(5) 0.2135(7) -0.0001(9)
H5 H 0.2247 0.2535 -0.0616
C8 C 0.1802(5) 0.1097(6) -0.1417(9)
H6 H 0.2111 0.0820 -0.2014
H7 H 0.1551 0.1602 -0.1841
C9 C 0.1209(5) 0.0480(6) -0.1055(9)
H8 H 0.0896 0.0268 -0.1832
H9 H 0.0870 0.0774 -0.0523
C10 C 0.1103(5) -0.0740(6) 0.0464(9)
H10 H 0.1340 -0.1295 0.0722
H11 H 0.0611 -0.0856 -0.0058
C11 C 0.0960(5) -0.0241(6) 0.1666(9)
H12 H 0.0595 0.0224 0.1416
H13 H 0.0725 -0.0628 0.2243
C12 C 0.2023(5) -0.0395(7) 0.3486(9)
H14 H 0.1630 -0.0538 0.4036
H15 H 0.2422 -0.0057 0.3998
C13 C 0.2373(6) -0.1220(7) 0.3049(10)
H16 H 0.2679 -0.1498 0.3781
H17 H 0.1965 -0.1617 0.2705
C14 C 0.3280(5) -0.1625(6) 0.1635(10)
H18 H 0.3266 -0.2157 0.2057
C15 C 0.3761(5) -0.1584(7) 0.0607(10)
C16 C 0.4119(6) -0.2356(9) 0.0267(12)
H19 H 0.4019 -0.2865 0.0697
C17 C 0.4601(8) -0.2393(11) -0.0653(14)
H20 H 0.4825 -0.2916 -0.0859
C18 C 0.4750(7) -0.1635(13) -0.1274(13)
H21 H 0.5086 -0.1647 -0.1902
C19 C 0.4421(6) -0.0869(9) -0.0996(11)
H22 H 0.4552 -0.0371 -0.1426
C20 C 0.3898(5) -0.0796(8) -0.0099(9)
O1 O 0.3176(4) 0.1171(5) 0.2350(6)
O2 O 0.3561(4) -0.0081(5) 0.0056(8)
N1 N 0.2296(4) 0.1358(5) -0.0234(7)
N2 N 0.1602(4) -0.0271(5) -0.0314(7)
H23 H 0.1780 -0.0647 -0.0886
N3 N 0.1671(4) 0.0134(4) 0.2375(7)
H24 H 0.1559 0.0671 0.2669
N4 N 0.2868(4) -0.1014(5) 0.2040(7)
Mn1 Mn 0.01569(7) 0.17921(8) 0.45773(12)
C21 C -0.0260(5) 0.2650(5) 0.2074(8)
C22 C 0.0513(5) 0.2189(5) 0.1952(8)
C23 C 0.0390(5) 0.0006(6) 0.5486(8)
O3 O -0.0516(3) 0.2585(4) 0.3153(5)
O4 O 0.0830(3) 0.1785(4) 0.2935(5)
O5 O -0.0570(3) 0.3045(4) 0.1121(6)
O6 O 0.0760(3) 0.2247(4) 0.0882(5)
O7 O 0.0758(3) 0.0697(4) 0.5556(5)
O8 O 0.0566(3) -0.0687(4) 0.6076(5)
Mn1C Mn 0.01569(7) 0.32079(8) 0.95773(12)
Mn1C_2 Mn 0.01569(7) 0.32079(8) -0.04227(12)
Mn1B Mn -0.01569(7) -0.17921(8) 0.54227(12)
C21C C -0.0260(5) 0.2350(5) 0.7074(8)
C22C C 0.0513(5) 0.2811(5) 0.6952(8)
C23B C -0.0390(5) -0.0006(6) 0.4514(8)
O3C O -0.0516(3) 0.2415(4) 0.8153(5)
O4C O 0.0830(3) 0.3215(4) 0.7935(5)
O5C O -0.0570(3) 0.1955(4) 0.6121(6)
O5_2 O -0.0570(3) 0.3045(4) 1.1121(6)
O6C O 0.0760(3) 0.2753(4) 0.5882(5)
O6_2 O 0.0760(3) 0.2247(4) 1.0882(5)
O7B O -0.0758(3) -0.0697(4) 0.4444(5)
O7C O 0.0758(3) 0.4303(4) 1.0556(5)
O8B O -0.0566(3) 0.0687(4) 0.3924(5)
O8A O -0.0566(3) 0.4313(4) 0.8924(5)
O9 O -0.1968(12) 0.1473(12) 0.234(2)
C24 C -0.2493(16) 0.103(2) 0.322(3)
O12 O -0.4036(18) 0.006(2) 0.546(4)
O10? O -0.2166(17) 0.119(2) 0.276(3)
O11? O -0.4746(16) -0.004(3) 0.570(6)
loop_
_geom_bond_atom_site_label_1
_geom_bond_atom_site_label_2
_geom_bond_site_symmetry_1
_geom_bond_site_symmetry_2
In1 O1 1_555 1_555
Mn1 O3 1_555 1_555
C1 C2 1_555 1_555
C2 H1 1_555 1_555
C3 C2 1_555 1_555
H2 C3 1_555 1_555
C4 C3 1_555 1_555
H3 C4 1_555 1_555
C5 C4 1_555 1_555
H4 C5 1_555 1_555
C6 C1 1_555 1_555
C7 C6 1_555 1_555
H5 C7 1_555 1_555
C8 H6 1_555 1_555
H7 C8 1_555 1_555
C9 C8 1_555 1_555
H8 C9 1_555 1_555
H9 C9 1_555 1_555
C10 H10 1_555 1_555
H11 C10 1_555 1_555
C11 C10 1_555 1_555
H12 C11 1_555 1_555
H13 C11 1_555 1_555
C12 H14 1_555 1_555
H15 C12 1_555 1_555
C13 C12 1_555 1_555
H16 C13 1_555 1_555
H17 C13 1_555 1_555
C14 H18 1_555 1_555
C15 C14 1_555 1_555
C16 C15 1_555 1_555
H19 C16 1_555 1_555
C17 C16 1_555 1_555
H20 C17 1_555 1_555
C18 C17 1_555 1_555
H21 C18 1_555 1_555
C19 C18 1_555 1_555
H22 C19 1_555 1_555
C20 C15 1_555 1_555
C21 C22 1_555 1_555
C22 O4 1_555 1_555
C23 O7 1_555 1_555
O1 C1 1_555 1_555
O2 In1 1_555 1_555
O3 C21 1_555 1_555
O4 Mn1 1_555 1_555
O5 C21 1_555 1_555
O6 C22 1_555 1_555
O7 Mn1 1_555 1_555
O8 C23 1_555 1_555
N1 In1 1_555 1_555
N2 In1 1_555 1_555
H23 N2 1_555 1_555
N3 In1 1_555 1_555
H24 N3 1_555 1_555
N4 In1 1_555 1_555
O9 C24 1_555 1_555
Mn1C O3C 1_555 1_555
Mn1C_2 O5 1_555 1_555
Mn1B O8 1_555 1_555
C21C C22C 1_555 1_555
C22C O4C 1_555 1_555
C23B C23 1_555 1_555
O3C C21C 1_555 1_555
O4C Mn1C 1_555 1_555
O5C Mn1 1_555 1_555
O5_2 Mn1C 1_555 1_555
O6C Mn1 1_555 1_555
O6_2 Mn1C 1_555 1_555
O7B Mn1B 1_555 1_555
O7C Mn1C 1_555 1_555
O8B Mn1 1_555 1_555
O8A Mn1C 1_555 1_555
C5 C6 1_555 1_555
C7 N1 1_555 1_555
C8 N1 1_555 1_555
C9 N2 1_555 1_555
C10 N2 1_555 1_555
C11 N3 1_555 1_555
C12 N3 1_555 1_555
C13 N4 1_555 1_555
C14 N4 1_555 1_555
C19 C20 1_555 1_555
C20 O2 1_555 1_555
O6 Mn1C_2 1_555 1_555
C21C O5C 1_555 1_555
C22C O6C 1_555 1_555
C23B O7B 1_555 1_555
C23B O8B 1_555 1_555

#END
