
#######################################################################
#
#                 Cambridge Crystallographic Data Centre
#                                CCDC 
#
#######################################################################
#
# If this CIF has been generated from an entry in the Cambridge 
# Structural Database, then it will include bibliographic, chemical, 
# crystal, experimental, refinement or atomic coordinate data resulting 
# from the CCDC's data processing and validation procedures.
#
#######################################################################

data_EGETAN
_symmetry_cell_setting           triclinic
_symmetry_space_group_name_H-M   'P -1'
_symmetry_Int_Tables_number      2
_space_group_name_Hall           '-P 1'
loop_
_symmetry_equiv_pos_site_id
_symmetry_equiv_pos_as_xyz
1 x,y,z
2 -x,-y,-z
_cell_length_a                   9.1961(3)
_cell_length_b                   10.5439(4)
_cell_length_c                   12.5033(4)
_cell_angle_alpha                113.948(2)
_cell_angle_beta                 98.202(2)
_cell_angle_gamma                95.732(2)
_cell_volume                     1079.84
loop_
_atom_site_label
_atom_site_type_symbol
_atom_site_fract_x
_atom_site_fract_y
_atom_site_fract_z
C1 C -0.2635(3) 0.1694(3) 0.2793(2)
C2 C -0.3694(3) 0.0474(3) 0.2326(3)
H1 H -0.3470 -0.0310 0.2471
C3 C -0.5080(3) 0.0371(3) 0.1648(3)
H2 H -0.5794 -0.0473 0.1333
C4 C -0.5403(3) 0.1519(3) 0.1441(3)
C5 C -0.4357(3) 0.2755(3) 0.1915(3)
H3 H -0.4583 0.3541 0.1776
C6 C -0.2987(3) 0.2842(3) 0.2587(3)
H4 H -0.2280 0.3691 0.2911
C7 C -0.7872(3) 0.0348(3) 0.0331(3)
H5 H -0.7494 -0.0501 -0.0135
H6 H -0.8704 0.0476 -0.0178
H7 H -0.8218 0.0250 0.1004
C8 C 0.1499(3) 0.3823(4) 0.4408(3)
H8 H 0.1671 0.3542 0.5075
H9 H 0.1579 0.4861 0.4756
C9 C 0.2664(4) 0.3406(4) 0.3680(3)
H10 H 0.2675 0.2397 0.3423
H11 H 0.3642 0.3946 0.4161
H12 H 0.2440 0.3600 0.2977
O1 O 0.0009(2) 0.3167(2) 0.36923(17)
O2 O -0.6703(2) 0.1549(2) 0.07751(19)
P1 P -0.08840(8) 0.18048(8) 0.37125(6)
S1 S 0.00560(7) 0.01000(7) 0.30434(6)
S2 S -0.11631(7) 0.21075(8) 0.53522(6)
Ni1 Ni 0.0000 0.0000 0.5000
C10 C -0.8445(3) -0.5578(3) 0.0989(2)
C11 C -0.8942(3) -0.6687(3) -0.0193(2)
H13 H -0.8328 -0.7078 -0.0752
C12 C -1.0505(3) -0.7098(3) -0.0383(2)
H14 H -1.1121 -0.7809 -0.1093
C13 C -1.0990(3) -0.6268(3) 0.0665(2)
H15 H -1.1990 -0.6333 0.0780
C14 C -0.9737(3) -0.5320(3) 0.1519(2)
H16 H -0.9751 -0.4640 0.2299
C15 C -0.6913(3) -0.4816(3) 0.1479(2)
H17 H -0.6219 -0.5018 0.0962
C16 C -0.6425(3) -0.3857(3) 0.2600(3)
H18 H -0.7127 -0.3690 0.3110
C17 C -0.4916(3) -0.3031(3) 0.3133(2)
C18 C -0.4659(3) -0.1922(3) 0.4268(2)
H19 H -0.5448 -0.1728 0.4693
C19 C -0.3264(3) -0.1105(3) 0.4775(2)
H20 H -0.3125 -0.0347 0.5546
C20 C -0.2314(3) -0.2419(3) 0.3154(2)
H21 H -0.1492 -0.2613 0.2767
C21 C -0.3686(3) -0.3274(3) 0.2580(2)
H22 H -0.3795 -0.4027 0.1810
N1 N -0.2089(2) -0.1323(2) 0.42367(19)
Fe1 Fe -1.0000 -0.5000 0.0000
C10A C -1.1555(3) -0.4422(3) -0.0989(2)
C11A C -1.1058(3) -0.3313(3) 0.0193(2)
H13A H -1.1672 -0.2922 0.0752
C12A C -0.9495(3) -0.2902(3) 0.0383(2)
H14A H -0.8879 -0.2191 0.1093
C13A C -0.9010(3) -0.3732(3) -0.0665(2)
H15A H -0.8010 -0.3667 -0.0780
C14A C -1.0263(3) -0.4680(3) -0.1519(2)
H16A H -1.0249 -0.5360 -0.2299
C15A C -1.3087(3) -0.5184(3) -0.1479(2)
H17A H -1.3781 -0.4982 -0.0962
C16A C -1.3575(3) -0.6143(3) -0.2600(3)
H18A H -1.2873 -0.6310 -0.3110
C17A C -1.5084(3) -0.6969(3) -0.3133(2)
C18A C -1.5341(3) -0.8078(3) -0.4268(2)
H19A H -1.4552 -0.8272 -0.4693
C19A C -1.6736(3) -0.8895(3) -0.4775(2)
H20A H -1.6875 -0.9653 -0.5546
C20A C -1.7686(3) -0.7581(3) -0.3154(2)
H21A H -1.8508 -0.7387 -0.2767
C21A C -1.6314(3) -0.6726(3) -0.2580(2)
H22A H -1.6205 -0.5973 -0.1810
N1A N -1.7911(2) -0.8677(2) -0.42367(19)
C1A C 0.2635(3) -0.1694(3) 0.7207(2)
C2A C 0.3694(3) -0.0474(3) 0.7674(3)
H1A H 0.3470 0.0310 0.7529
C3A C 0.5080(3) -0.0371(3) 0.8352(3)
H2A H 0.5794 0.0473 0.8667
C4A C 0.5403(3) -0.1519(3) 0.8559(3)
C5A C 0.4357(3) -0.2755(3) 0.8085(3)
H3A H 0.4583 -0.3541 0.8224
C6A C 0.2987(3) -0.2842(3) 0.7413(3)
H4A H 0.2280 -0.3691 0.7089
C7A C 0.7872(3) -0.0348(3) 0.9669(3)
H5A H 0.7494 0.0501 1.0135
H6A H 0.8704 -0.0476 1.0178
H7A H 0.8218 -0.0250 0.8996
C8A C -0.1499(3) -0.3823(4) 0.5592(3)
H8A H -0.1671 -0.3542 0.4925
H9A H -0.1579 -0.4861 0.5244
C9A C -0.2664(4) -0.3406(4) 0.6320(3)
H10A H -0.2675 -0.2397 0.6577
H11A H -0.3642 -0.3946 0.5839
H12A H -0.2440 -0.3600 0.7023
O1A O -0.0009(2) -0.3167(2) 0.63077(17)
O2A O 0.6703(2) -0.1549(2) 0.92249(19)
P1A P 0.08840(8) -0.18048(8) 0.62875(6)
S1A S -0.00560(7) -0.01000(7) 0.69566(6)
S2A S 0.11631(7) -0.21075(8) 0.46478(6)
Ni1_2 Ni -2.0000 -1.0000 -0.5000
N1A_2 N 0.2089(2) 0.1323(2) 0.57633(19)
loop_
_geom_bond_atom_site_label_1
_geom_bond_atom_site_label_2
_geom_bond_site_symmetry_1
_geom_bond_site_symmetry_2
C1 C2 1_555 1_555
C2 H1 1_555 1_555
C3 C2 1_555 1_555
H2 C3 1_555 1_555
C4 C3 1_555 1_555
C5 C4 1_555 1_555
H3 C5 1_555 1_555
C6 C1 1_555 1_555
H4 C6 1_555 1_555
C7 H5 1_555 1_555
H6 C7 1_555 1_555
H7 C7 1_555 1_555
C8 H8 1_555 1_555
H9 C8 1_555 1_555
C9 C8 1_555 1_555
H10 C9 1_555 1_555
H11 C9 1_555 1_555
H12 C9 1_555 1_555
O1 C8 1_555 1_555
O2 C4 1_555 1_555
P1 C1 1_555 1_555
S1 P1 1_555 1_555
S2 P1 1_555 1_555
Ni1 S1 1_555 1_555
C10 C11 1_555 1_555
C11 H13 1_555 1_555
C12 C11 1_555 1_555
H14 C12 1_555 1_555
C13 C12 1_555 1_555
H15 C13 1_555 1_555
C14 C10 1_555 1_555
H16 C14 1_555 1_555
C15 C10 1_555 1_555
H17 C15 1_555 1_555
C16 C15 1_555 1_555
H18 C16 1_555 1_555
C17 C16 1_555 1_555
C18 C17 1_555 1_555
H19 C18 1_555 1_555
C19 C18 1_555 1_555
H20 C19 1_555 1_555
C20 H21 1_555 1_555
C21 C17 1_555 1_555
H22 C21 1_555 1_555
N1 Ni1 1_555 1_555
Fe1 C10 1_555 1_555
C10A Fe1 1_555 1_555
C11A Fe1 1_555 1_555
H13A C11A 1_555 1_555
C12A Fe1 1_555 1_555
H14A C12A 1_555 1_555
C13A Fe1 1_555 1_555
H15A C13A 1_555 1_555
C14A Fe1 1_555 1_555
H16A C14A 1_555 1_555
C15A C10A 1_555 1_555
H17A C15A 1_555 1_555
C16A C15A 1_555 1_555
H18A C16A 1_555 1_555
C17A C16A 1_555 1_555
C18A C17A 1_555 1_555
H19A C18A 1_555 1_555
C19A C18A 1_555 1_555
H20A C19A 1_555 1_555
C20A H21A 1_555 1_555
C21A C17A 1_555 1_555
H22A C21A 1_555 1_555
N1A C19A 1_555 1_555
C1A C2A 1_555 1_555
C2A H1A 1_555 1_555
C3A C2A 1_555 1_555
H2A C3A 1_555 1_555
C4A C3A 1_555 1_555
C5A C4A 1_555 1_555
H3A C5A 1_555 1_555
C6A C1A 1_555 1_555
H4A C6A 1_555 1_555
C7A H5A 1_555 1_555
H6A C7A 1_555 1_555
H7A C7A 1_555 1_555
C8A H8A 1_555 1_555
H9A C8A 1_555 1_555
C9A C8A 1_555 1_555
H10A C9A 1_555 1_555
H11A C9A 1_555 1_555
H12A C9A 1_555 1_555
O1A C8A 1_555 1_555
O2A C4A 1_555 1_555
P1A C1A 1_555 1_555
S1A Ni1 1_555 1_555
S2A Ni1 1_555 1_555
Ni1_2 N1A 1_555 1_555
N1A_2 Ni1 1_555 1_555
C5 C6 1_555 1_555
C7 O2 1_555 1_555
O1 P1 1_555 1_555
S2 Ni1 1_555 1_555
C11 Fe1 1_555 1_555
C12 Fe1 1_555 1_555
C13 C14 1_555 1_555
C13 Fe1 1_555 1_555
C14 Fe1 1_555 1_555
C19 N1 1_555 1_555
C20 C21 1_555 1_555
C20 N1 1_555 1_555
C10A C11A 1_555 1_555
C10A C14A 1_555 1_555
C11A C12A 1_555 1_555
C12A C13A 1_555 1_555
C13A C14A 1_555 1_555
C20A C21A 1_555 1_555
C20A N1A 1_555 1_555
C5A C6A 1_555 1_555
C7A O2A 1_555 1_555
O1A P1A 1_555 1_555
P1A S1A 1_555 1_555
P1A S2A 1_555 1_555

#END
