
#######################################################################
#
#                 Cambridge Crystallographic Data Centre
#                                CCDC 
#
#######################################################################
#
# If this CIF has been generated from an entry in the Cambridge 
# Structural Database, then it will include bibliographic, chemical, 
# crystal, experimental, refinement or atomic coordinate data resulting 
# from the CCDC's data processing and validation procedures.
#
#######################################################################

data_EGEXOD01
_symmetry_cell_setting           triclinic
_symmetry_space_group_name_H-M   'P -1'
_symmetry_Int_Tables_number      2
_space_group_name_Hall           '-P 1'
loop_
_symmetry_equiv_pos_site_id
_symmetry_equiv_pos_as_xyz
1 x,y,z
2 -x,-y,-z
_cell_length_a                   7.8613(11)
_cell_length_b                   8.8903(13)
_cell_length_c                   12.2678(15)
_cell_angle_alpha                83.348(2)
_cell_angle_beta                 77.9320(10)
_cell_angle_gamma                70.1330(10)
_cell_volume                     787.604
loop_
_atom_site_label
_atom_site_type_symbol
_atom_site_fract_x
_atom_site_fract_y
_atom_site_fract_z
Ca1 Ca 0.22919(9) 0.52155(8) 0.05683(6)
N1 N 0.2293(4) 0.4161(4) 0.2643(2)
N2 N 0.2730(5) 0.2936(5) 0.4832(3)
N3 N -0.0663(4) 0.7536(3) 0.1655(3)
N4 N -0.3440(5) 1.0213(4) 0.2635(4)
O1 O 0.5274(3) 0.4674(3) 0.11849(19)
O2 O 0.6916(3) 0.4057(3) 0.2574(2)
O3 O 0.2593(3) 0.7837(3) 0.0547(2)
O4 O 0.1679(4) 1.0446(3) 0.0914(3)
O5 O 0.0247(3) 0.6218(3) -0.08691(19)
H1 H 0.1147 0.6134 -0.1407
H2 H -0.0345 0.7214 -0.0836
O6 O 0.3768(3) 0.2464(3) 0.0142(2)
H3 H 0.4927 0.2224 -0.0057
H4 H 0.3486 0.1622 0.0361
C1 C 0.5471(4) 0.4270(4) 0.2186(3)
C2 C 0.3868(5) 0.3938(4) 0.3015(3)
C3 C 0.4031(5) 0.3375(5) 0.4101(3)
H5 H 0.5108 0.3295 0.4340
C4 C 0.1194(5) 0.3081(5) 0.4448(3)
C5 C 0.0985(5) 0.3708(5) 0.3378(3)
H6 H -0.0112 0.3825 0.3151
C6 C -0.0268(6) 0.2500(6) 0.5218(4)
H7 H 0.0195 0.1356 0.5327
H8 H -0.1348 0.2796 0.4888
H9 H -0.0573 0.2982 0.5925
C7 C 0.1444(5) 0.9104(4) 0.0973(3)
C8 C -0.0394(5) 0.8971(4) 0.1616(3)
C9 C -0.1765(6) 1.0271(5) 0.2136(4)
H10 H -0.1512 1.1220 0.2138
C10 C -0.3742(5) 0.8819(5) 0.2658(3)
C11 C -0.2312(5) 0.7482(5) 0.2184(3)
H11 H -0.2529 0.6508 0.2243
C12 C -0.5610(6) 0.8719(6) 0.3202(4)
H12 H -0.6020 0.9268 0.3887
H13 H -0.5530 0.7616 0.3358
H14 H -0.6469 0.9208 0.2709
Ca1A Ca 0.77081(9) 0.47845(8) -0.05683(6)
Ca1A_2 Ca -0.22919(9) 0.47845(8) -0.05683(6)
O1A O 0.4726(3) 0.5326(3) -0.11849(19)
O5A O -0.0247(3) 0.3782(3) 0.08691(19)
H1A H -0.1147 0.3866 0.1407
H2A H 0.0345 0.2786 0.0836
loop_
_geom_bond_atom_site_label_1
_geom_bond_atom_site_label_2
_geom_bond_site_symmetry_1
_geom_bond_site_symmetry_2
Ca1 N1 1_555 1_555
N1 C2 1_555 1_555
N2 C3 1_555 1_555
N3 Ca1 1_555 1_555
N4 C9 1_555 1_555
O1 Ca1 1_555 1_555
O2 C1 1_555 1_555
O3 Ca1 1_555 1_555
O4 C7 1_555 1_555
O5 Ca1 1_555 1_555
H1 O5 1_555 1_555
H2 O5 1_555 1_555
O6 Ca1 1_555 1_555
H3 O6 1_555 1_555
H4 O6 1_555 1_555
C1 O1 1_555 1_555
C2 C1 1_555 1_555
C3 C2 1_555 1_555
H5 C3 1_555 1_555
C4 N2 1_555 1_555
C5 N1 1_555 1_555
H6 C5 1_555 1_555
C6 C4 1_555 1_555
H7 C6 1_555 1_555
H8 C6 1_555 1_555
H9 C6 1_555 1_555
C7 O3 1_555 1_555
C8 N3 1_555 1_555
C9 C8 1_555 1_555
H10 C9 1_555 1_555
C10 N4 1_555 1_555
C11 N3 1_555 1_555
H11 C11 1_555 1_555
C12 C10 1_555 1_555
H12 C12 1_555 1_555
H13 C12 1_555 1_555
H14 C12 1_555 1_555
Ca1A O1 1_555 1_555
Ca1A_2 O5 1_555 1_555
O1A Ca1 1_555 1_555
O5A Ca1 1_555 1_555
H1A O5A 1_555 1_555
H2A O5A 1_555 1_555
C4 C5 1_555 1_555
C7 C8 1_555 1_555
C10 C11 1_555 1_555
Ca1A O1A 1_555 1_555
Ca1A_2 O5A 1_555 1_555

#END
