
#######################################################################
#
#                 Cambridge Crystallographic Data Centre
#                                CCDC 
#
#######################################################################
#
# If this CIF has been generated from an entry in the Cambridge 
# Structural Database, then it will include bibliographic, chemical, 
# crystal, experimental, refinement or atomic coordinate data resulting 
# from the CCDC's data processing and validation procedures.
#
#######################################################################

data_EGEXOD
_symmetry_cell_setting           triclinic
_symmetry_space_group_name_H-M   'P -1'
_symmetry_Int_Tables_number      2
_space_group_name_Hall           '-P 1'
loop_
_symmetry_equiv_pos_site_id
_symmetry_equiv_pos_as_xyz
1 x,y,z
2 -x,-y,-z
_cell_length_a                   7.773(2)
_cell_length_b                   8.792(2)
_cell_length_c                   12.142(2)
_cell_angle_alpha                83.77(3)
_cell_angle_beta                 77.94(3)
_cell_angle_gamma                70.17(3)
_cell_volume                     762.716
loop_
_atom_site_label
_atom_site_type_symbol
_atom_site_fract_x
_atom_site_fract_y
_atom_site_fract_z
Ca1 Ca 0.7708(3) 0.4784(2) 0.4432(2)
O1 O 1.0248(1) 0.6218(1) 0.41295(7)
O2 O 0.6231(1) 0.7539(1) 0.4864(1)
O3 O 0.4727(1) 0.5324(1) 0.38224(7)
O4 O 0.3085(1) 0.5934(1) 0.24239(8)
O5 O 0.7406(1) 0.2167(1) 0.4457(1)
O6 O 0.8316(2) -0.0450(1) 0.4091(1)
N1 N 0.7701(1) 0.5846(1) 0.23600(9)
N2 N 0.7273(2) 0.7062(2) 0.0167(1)
N3 N 1.0654(1) 0.2468(1) 0.3348(9)
N4 N 1.3451(2) -0.0222(2) 0.2360(2)
C1 C 0.6129(1) 0.6054(1) 0.19920(9)
C2 C 0.5950(2) 0.6623(2) 0.0890(1)
C3 C 0.8815(2) 0.6927(2) 0.0550(1)
C4 C 0.9036(2) 0.6271(2) 0.1632(1)
C5 C 0.4523(1) 0.5737(1) 0.28138(9)
C6 C 1.0284(3) 0.7481(3) -0.0219(2)
C7 C 1.0389(2) 0.1028(1) 0.338(1)
C8 C 1.1762(3) -0.0277(2) 0.2869(2)
C9 C 1.3739(2) 0.1184(2) 0.2345(1)
C10 C 1.2319(2) 0.2522(2) 0.2815(1)
C11 C 0.8558(2) 0.0899(1) 0.4028(1)
C12 C 1.5618(3) 0.1282(3) 0.1799(2)
H1 H 1.109(4) 0.621(3) 0.349(2)
H2 H 0.983(3) 0.711(2) 0.416(2)
H3 H 0.513(4) 0.762(3) 0.505(3)
H4 H 0.659(4) 0.832(3) 0.463(2)
H5 H 0.486(4) 0.676(4) 0.062(2)
H6 H 1.019(3) 0.611(3) 0.187(2)
H7 H 1.050(4) 0.713(4) -0.094(3)
H8 H 1.101(9) 0.739(8) 0.010(5)
H9 H 0.977(5) 0.859(4) -0.017(3)
H10 H 1.163(4) -0.133(3) 0.291(2)
H11 H 1.244(3) 0.349(3) 0.278(2)
H12 H 1.585(6) 0.225(5) 0.210(4)
H13 H 1.587(4) 0.086(3) 0.103(3)
H14 H 1.633(5) 0.052(4) 0.205(3)
O1A O 0.9752(1) 0.3782(1) 0.58705(7)
O3A O 0.5273(1) 0.4676(1) 0.61776(7)
Ca1A Ca 1.2292(3) 0.5216(2) 0.5568(2)
Ca1A_2 Ca 0.2292(3) 0.5216(2) 0.5568(2)
H1A H 0.891(4) 0.379(3) 0.651(2)
H2A H 1.017(3) 0.289(2) 0.584(2)
loop_
_geom_bond_atom_site_label_1
_geom_bond_atom_site_label_2
_geom_bond_site_symmetry_1
_geom_bond_site_symmetry_2
Ca1 O1 1_555 1_555
O1 H1 1_555 1_555
O2 Ca1 1_555 1_555
O3 Ca1 1_555 1_555
O4 C5 1_555 1_555
O5 Ca1 1_555 1_555
O6 C11 1_555 1_555
N1 Ca1 1_555 1_555
N2 C2 1_555 1_555
N3 Ca1 1_555 1_555
N4 C8 1_555 1_555
C1 N1 1_555 1_555
C2 C1 1_555 1_555
C3 N2 1_555 1_555
C4 N1 1_555 1_555
C5 O3 1_555 1_555
C6 C3 1_555 1_555
C7 N3 1_555 1_555
C8 C7 1_555 1_555
C9 N4 1_555 1_555
C10 N3 1_555 1_555
C11 O5 1_555 1_555
C12 C9 1_555 1_555
H2 O1 1_555 1_555
H3 O2 1_555 1_555
H4 O2 1_555 1_555
H5 C2 1_555 1_555
H6 C4 1_555 1_555
H7 C6 1_555 1_555
H8 C6 1_555 1_555
H9 C6 1_555 1_555
H10 C8 1_555 1_555
H11 C10 1_555 1_555
H12 C12 1_555 1_555
H13 C12 1_555 1_555
H14 C12 1_555 1_555
O1A Ca1 1_555 1_555
O3A Ca1 1_555 1_555
Ca1A O1 1_555 1_555
Ca1A_2 O3 1_555 1_555
H1A O1A 1_555 1_555
H2A O1A 1_555 1_555
C1 C5 1_555 1_555
C3 C4 1_555 1_555
C7 C11 1_555 1_555
C9 C10 1_555 1_555
O1A Ca1A 1_555 1_555
O3A Ca1A_2 1_555 1_555

#END
