
#######################################################################
#
#                 Cambridge Crystallographic Data Centre
#                                CCDC 
#
#######################################################################
#
# If this CIF has been generated from an entry in the Cambridge 
# Structural Database, then it will include bibliographic, chemical, 
# crystal, experimental, refinement or atomic coordinate data resulting 
# from the CCDC's data processing and validation procedures.
#
#######################################################################

data_EGEYOE
_symmetry_cell_setting           monoclinic
_symmetry_space_group_name_H-M   'P 21/c'
_symmetry_Int_Tables_number      14
_space_group_name_Hall           '-P 2ybc'
loop_
_symmetry_equiv_pos_site_id
_symmetry_equiv_pos_as_xyz
1 x,y,z
2 -x,1/2+y,1/2-z
3 -x,-y,-z
4 x,1/2-y,1/2+z
_cell_length_a                   12.241(8)
_cell_length_b                   9.660(6)
_cell_length_c                   23.708(15)
_cell_angle_alpha                90
_cell_angle_beta                 102.722(12)
_cell_angle_gamma                90
_cell_volume                     2734.6
loop_
_atom_site_label
_atom_site_type_symbol
_atom_site_fract_x
_atom_site_fract_y
_atom_site_fract_z
Sn1 Sn 0.2332(1) 0.1873(1) 0.8512(1)
O1 O 0.2538(4) 0.4124(4) 0.8517(2)
C1 C 0.1892(6) 0.6414(6) 0.8358(3)
C2 C 0.2913(6) 0.6945(7) 0.8696(3)
C3 C 0.3027(6) 0.8398(7) 0.8696(3)
C4 C 0.4012(5) 0.1989(7) 0.9645(3)
C5 C 0.4048(7) 0.3503(11) 1.0454(5)
C6 C 0.3723(6) 0.1115(12) 1.0560(4)
C7 C 0.1998(5) 0.1713(7) 0.7579(3)
C8 C 0.3972(7) 0.1762(10) 0.7465(3)
C9 C 0.4764(11) 0.0104(14) 0.6980(6)
C10 C 0.2838(8) -0.0149(8) 0.7068(4)
C11 C 0.0074(6) 0.1160(7) 0.8871(3)
C12 C -0.1761(7) 0.0989(12) 0.8200(4)
C13 C -0.1204(11) -0.0796(10) 0.8896(6)
N1 N 0.2215(5) 0.9261(5) 0.8471(2)
O3 O 0.0786(4) 0.4445(5) 0.8047(2)
C14 C 0.1688(7) 0.4878(6) 0.8293(3)
C15 C 0.1062(6) 0.7321(6) 0.8121(3)
C16 C 0.1249(6) 0.8729(7) 0.8192(3)
C17 C 0.4039(5) 0.1773(7) 0.9021(3)
C18 C 0.4142(6) 0.3322(9) 0.9878(4)
C19 C 0.3833(7) 0.2430(12) 1.0794(4)
C20 C 0.3827(5) 0.0860(8) 0.9980(3)
C21 C 0.2972(6) 0.1097(7) 0.7375(3)
C22 C 0.4875(8) 0.1291(13) 0.7271(4)
C23 C 0.3812(12) -0.0635(10) 0.6859(4)
C24 C 0.1139(6) 0.1925(8) 0.9064(3)
C25 C -0.0752(7) 0.1694(9) 0.8390(3)
C26 C -0.1981(9) -0.0163(14) 0.8434(5)
C27 C -0.0116(8) -0.0077(10) 0.9142(4)
N1_2 N 0.2215(5) -0.0739(5) 0.8471(2)
Sn1_2 Sn 0.2332(1) 1.1873(1) 0.8512(1)
O2 O 0.2480(12) 0.7233(10) 0.0235(5)
loop_
_geom_bond_atom_site_label_1
_geom_bond_atom_site_label_2
_geom_bond_site_symmetry_1
_geom_bond_site_symmetry_2
Sn1 O1 1_555 1_555
O1 C14 1_555 1_555
C1 C2 1_555 1_555
C2 C3 1_555 1_555
C3 N1 1_555 1_555
C4 C17 1_555 1_555
C5 C18 1_555 1_555
C6 C19 1_555 1_555
C7 Sn1 1_555 1_555
C8 C21 1_555 1_555
C9 C22 1_555 1_555
C10 C21 1_555 1_555
C11 C24 1_555 1_555
C12 C25 1_555 1_555
C13 C26 1_555 1_555
N1 C16 1_555 1_555
O3 C14 1_555 1_555
C14 C1 1_555 1_555
C15 C1 1_555 1_555
C16 C15 1_555 1_555
C17 Sn1 1_555 1_555
C18 C4 1_555 1_555
C19 C5 1_555 1_555
C20 C4 1_555 1_555
C21 C7 1_555 1_555
C22 C8 1_555 1_555
C23 C9 1_555 1_555
C24 Sn1 1_555 1_555
C25 C11 1_555 1_555
C26 C12 1_555 1_555
C27 C11 1_555 1_555
N1_2 Sn1 1_555 1_555
Sn1_2 N1 1_555 1_555
C6 C20 1_555 1_555
C10 C23 1_555 1_555
C13 C27 1_555 1_555

#END
