
#######################################################################
#
#                 Cambridge Crystallographic Data Centre
#                                CCDC 
#
#######################################################################
#
# If this CIF has been generated from an entry in the Cambridge 
# Structural Database, then it will include bibliographic, chemical, 
# crystal, experimental, refinement or atomic coordinate data resulting 
# from the CCDC's data processing and validation procedures.
#
#######################################################################

data_EGIBAZ
_symmetry_cell_setting           triclinic
_symmetry_space_group_name_H-M   'P -1'
_symmetry_Int_Tables_number      2
_space_group_name_Hall           '-P 1'
loop_
_symmetry_equiv_pos_site_id
_symmetry_equiv_pos_as_xyz
1 x,y,z
2 -x,-y,-z
_cell_length_a                   9.804(3)
_cell_length_b                   10.912(4)
_cell_length_c                   20.446(6)
_cell_angle_alpha                100.683(12)
_cell_angle_beta                 92.766(9)
_cell_angle_gamma                91.801(11)
_cell_volume                     2145.11
loop_
_atom_site_label
_atom_site_type_symbol
_atom_site_fract_x
_atom_site_fract_y
_atom_site_fract_z
Eu1 Eu 0.19500(2) 0.30912(2) 0.857953(9)
Eu2 Eu 0.62458(2) 0.29579(2) 0.337863(10)
Cd1 Cd 0.36062(3) 0.27256(3) 0.681545(14)
Cd2 Cd 0.79760(3) 0.26359(3) 0.163440(14)
O1 O 0.5997(3) 0.2160(3) 0.44739(15)
O2 O 0.3257(3) 0.1756(3) 0.91962(15)
H1 H 0.3136 0.1961 0.9617
H2 H 0.2990 0.0986 0.9061
O3 O 0.4814(3) 0.3760(3) 0.43012(15)
O4 O -0.0237(3) 0.4027(4) 0.84425(16)
H3 H -0.0522 0.3931 0.8009
H4 H -0.0901 0.3687 0.8651
O5 O 0.4176(3) 0.4865(3) 0.68685(15)
O6 O 0.4481(3) 0.1265(3) 0.32170(16)
H5 H 0.4844 0.0530 0.3237
H6 H 0.3865 0.1398 0.3530
O7 O 0.5880(3) 0.6269(3) 0.71002(16)
O8 O 0.7773(3) 0.4297(4) 0.41939(16)
H7 H 0.8605 0.4139 0.4109
H8 H 0.7754 0.4526 0.4614
O9 O 0.3665(3) 0.0519(3) 0.67560(15)
O10 O 0.2314(3) -0.1205(3) 0.66309(15)
O11 O 0.1611(3) 0.3249(3) 0.73729(13)
O12 O -0.0533(3) 0.3736(4) 0.71489(17)
O13 O 0.4028(3) 0.2621(3) 0.79497(14)
O14 O 0.5599(3) 0.2017(4) 0.86393(16)
O15 O 0.8397(3) 0.3373(3) 0.28056(14)
O16 O 1.0076(3) 0.3790(4) 0.36056(17)
O17 O 0.7972(3) 0.0392(3) 0.15228(15)
O18 O 0.8872(3) -0.1085(3) 0.20137(14)
O19 O 1.1336(3) 0.3950(3) -0.02753(15)
O20 O 1.0316(3) 0.2145(3) -0.07136(15)
O21 O 0.4026(3) 0.1022(4) 0.19353(16)
O22 O 0.5976(3) 0.2178(3) 0.21503(14)
O23 O 0.7415(3) 0.4622(3) 0.14016(15)
O24 O 0.5995(3) 0.5607(3) 0.08319(16)
N1 N 0.4545(3) 0.2152(3) 0.57102(16)
N2 N 0.1720(3) 0.1779(3) 0.61241(16)
N3 N 0.5984(3) 0.2949(3) 0.70650(16)
N4 N 0.9077(4) 0.2113(3) 0.05697(17)
N5 N 0.6107(3) 0.2332(3) 0.08230(16)
N6 N 1.0187(3) 0.2064(3) 0.19498(16)
C1 C 0.4662(4) 0.3221(4) 0.5369(2)
H9 H 0.5259 0.3855 0.5647
H10 H 0.3766 0.3567 0.5344
C2 C 0.5192(4) 0.2994(4) 0.4670(2)
C3 C 0.5885(4) 0.1653(4) 0.5900(2)
H11 H 0.6415 0.1464 0.5507
H12 H 0.5718 0.0882 0.6060
C4 C 0.3578(4) 0.1171(4) 0.5333(2)
H13 H 0.3709 0.0395 0.5490
H14 H 0.3767 0.1034 0.4864
C5 C 0.2098(4) 0.1543(5) 0.5415(2)
H15 H 0.1959 0.2292 0.5232
H16 H 0.1495 0.0884 0.5162
C6 C 0.6707(4) 0.2574(5) 0.6436(2)
H17 H 0.7557 0.2204 0.6540
H18 H 0.6932 0.3316 0.6259
C7 C 0.6278(4) 0.2160(4) 0.7559(2)
H19 H 0.7180 0.2392 0.7769
H20 H 0.6285 0.1297 0.7332
C8 C 0.5231(4) 0.2274(4) 0.8098(2)
C9 C 0.6298(4) 0.4281(4) 0.7367(2)
H21 H 0.7245 0.4482 0.7298
H22 H 0.6197 0.4391 0.7843
C10 C 0.5401(4) 0.5193(4) 0.70872(19)
C11 C 0.1336(4) 0.0606(4) 0.6349(2)
H23 H 0.0844 0.0050 0.5982
H24 H 0.0717 0.0797 0.6707
C12 C 0.2542(4) -0.0080(4) 0.65947(19)
C13 C 0.0632(4) 0.2686(5) 0.6244(2)
H25 H -0.0240 0.2270 0.6079
H26 H 0.0797 0.3345 0.5994
C14 C 0.0551(4) 0.3263(4) 0.6980(2)
C15 C 0.7986(4) 0.1365(4) 0.0127(2)
H27 H 0.7862 0.0563 0.0261
H28 H 0.8277 0.1212 -0.0327
C16 C 0.6625(4) 0.1998(5) 0.0143(2)
H29 H 0.6726 0.2751 -0.0041
H30 H 0.5953 0.1447 -0.0140
C17 C 1.0253(4) 0.1365(4) 0.0718(2)
H31 H 1.0858 0.1278 0.0352
H32 H 0.9922 0.0536 0.0758
C18 C 1.1049(4) 0.1973(5) 0.1361(2)
H33 H 1.1837 0.1486 0.1430
H34 H 1.1377 0.2802 0.1322
C19 C 0.9561(4) 0.3251(4) 0.0341(2)
H35 H 1.0062 0.3784 0.0714
H36 H 0.8766 0.3693 0.0230
C20 C 1.0465(4) 0.3085(4) -0.0253(2)
C21 C 0.5215(4) 0.1355(4) 0.1001(2)
H37 H 0.5595 0.0548 0.0849
H38 H 0.4324 0.1357 0.0774
C22 C 0.5045(4) 0.1533(4) 0.1754(2)
C23 C 0.5359(4) 0.3505(4) 0.0882(2)
H39 H 0.4719 0.3535 0.1232
H40 H 0.4838 0.3510 0.0467
C24 C 0.6319(4) 0.4649(4) 0.1040(2)
C25 C 1.0078(4) 0.0863(4) 0.2192(2)
H41 H 0.9998 0.1044 0.2671
H42 H 1.0919 0.0430 0.2106
C26 C 0.8879(4) -0.0008(4) 0.1877(2)
C27 C 1.0717(4) 0.3072(4) 0.2501(2)
H43 H 1.0984 0.3799 0.2319
H44 H 1.1523 0.2796 0.2716
C28 C 0.9657(4) 0.3435(4) 0.3016(2)
Eu1_2 Eu 1.19500(2) 0.30912(2) -0.142047(9)
Eu1A Eu 0.80500(2) -0.30912(2) 0.142047(9)
Eu1A_2 Eu 0.80500(2) 0.69088(2) 0.142047(9)
Eu2A Eu 0.37542(2) -0.29579(2) 0.662137(10)
Eu2A_2 Eu 0.37542(2) 0.70421(2) 0.662137(10)
O5A O 0.5824(3) 0.5135(3) 0.31315(15)
O7A O 0.4120(3) 0.3731(3) 0.28998(16)
O10A O 0.7686(3) 0.1205(3) 0.33691(15)
O18A O 0.1128(3) 0.1085(3) 0.79863(14)
O19_2 O 0.1336(3) 0.3950(3) 0.97247(15)
O20_2 O 0.0316(3) 0.2145(3) 0.92864(15)
O23A O 0.2585(3) 0.5378(3) 0.85984(15)
O24A O 0.4005(3) 0.4393(3) 0.91681(16)
O25 O 0.1820(6) 0.1394(6) 0.3823(3)
O26 O 0.2337(4) 0.4911(4) 0.44523(19)
H45 H 0.1648 0.4563 0.4213
H46 H 0.3111 0.4588 0.4395
O27 O 0.2611(4) 0.5436(4) 0.0882(2)
H47 H 0.3422 0.5726 0.0868
H48 H 0.2371 0.4968 0.0511
O28 O 0.905(3) 0.207(3) 0.4823(14)
loop_
_geom_bond_atom_site_label_1
_geom_bond_atom_site_label_2
_geom_bond_site_symmetry_1
_geom_bond_site_symmetry_2
Eu1 O2 1_555 1_555
Eu2 O1 1_555 1_555
Cd1 O5 1_555 1_555
Cd2 O15 1_555 1_555
O1 C2 1_555 1_555
O2 H1 1_555 1_555
H2 O2 1_555 1_555
O3 Eu2 1_555 1_555
O4 Eu1 1_555 1_555
H3 O4 1_555 1_555
H4 O4 1_555 1_555
O5 C10 1_555 1_555
O6 Eu2 1_555 1_555
H5 O6 1_555 1_555
H6 O6 1_555 1_555
O7 C10 1_555 1_555
O8 Eu2 1_555 1_555
H7 O8 1_555 1_555
H8 O8 1_555 1_555
O9 Cd1 1_555 1_555
O10 C12 1_555 1_555
O11 Eu1 1_555 1_555
O12 C14 1_555 1_555
O13 Eu1 1_555 1_555
O14 C8 1_555 1_555
O15 Eu2 1_555 1_555
O16 C28 1_555 1_555
O17 Cd2 1_555 1_555
O18 C26 1_555 1_555
O19 C20 1_555 1_555
O20 C20 1_555 1_555
O21 C22 1_555 1_555
O22 Eu2 1_555 1_555
O23 Cd2 1_555 1_555
O24 C24 1_555 1_555
N1 Cd1 1_555 1_555
N2 Cd1 1_555 1_555
N3 Cd1 1_555 1_555
N4 Cd2 1_555 1_555
N5 Cd2 1_555 1_555
N6 Cd2 1_555 1_555
C1 N1 1_555 1_555
H9 C1 1_555 1_555
H10 C1 1_555 1_555
C2 O3 1_555 1_555
C3 N1 1_555 1_555
H11 C3 1_555 1_555
H12 C3 1_555 1_555
C4 N1 1_555 1_555
H13 C4 1_555 1_555
H14 C4 1_555 1_555
C5 N2 1_555 1_555
H15 C5 1_555 1_555
H16 C5 1_555 1_555
C6 N3 1_555 1_555
H17 C6 1_555 1_555
H18 C6 1_555 1_555
C7 N3 1_555 1_555
H19 C7 1_555 1_555
H20 C7 1_555 1_555
C8 O13 1_555 1_555
C9 N3 1_555 1_555
H21 C9 1_555 1_555
H22 C9 1_555 1_555
C10 C9 1_555 1_555
C11 N2 1_555 1_555
H23 C11 1_555 1_555
H24 C11 1_555 1_555
C12 O9 1_555 1_555
C13 N2 1_555 1_555
H25 C13 1_555 1_555
H26 C13 1_555 1_555
C14 O11 1_555 1_555
C15 N4 1_555 1_555
H27 C15 1_555 1_555
H28 C15 1_555 1_555
C16 N5 1_555 1_555
H29 C16 1_555 1_555
H30 C16 1_555 1_555
C17 N4 1_555 1_555
H31 C17 1_555 1_555
H32 C17 1_555 1_555
C18 N6 1_555 1_555
H33 C18 1_555 1_555
H34 C18 1_555 1_555
C19 N4 1_555 1_555
H35 C19 1_555 1_555
H36 C19 1_555 1_555
C20 C19 1_555 1_555
C21 N5 1_555 1_555
H37 C21 1_555 1_555
H38 C21 1_555 1_555
C22 O22 1_555 1_555
C23 N5 1_555 1_555
H39 C23 1_555 1_555
H40 C23 1_555 1_555
C24 O23 1_555 1_555
C25 N6 1_555 1_555
H41 C25 1_555 1_555
H42 C25 1_555 1_555
C26 O17 1_555 1_555
C27 N6 1_555 1_555
H43 C27 1_555 1_555
H44 C27 1_555 1_555
C28 O15 1_555 1_555
O26 H45 1_555 1_555
H46 O26 1_555 1_555
O27 H47 1_555 1_555
H48 O27 1_555 1_555
Eu1_2 O19 1_555 1_555
Eu1A O18 1_555 1_555
Eu1A_2 O23 1_555 1_555
Eu2A O10 1_555 1_555
Eu2A_2 O5 1_555 1_555
O5A Eu2 1_555 1_555
O7A Eu2 1_555 1_555
O10A Eu2 1_555 1_555
O18A Eu1 1_555 1_555
O19_2 Eu1 1_555 1_555
O20_2 Eu1 1_555 1_555
O23A Eu1 1_555 1_555
O24A Eu1 1_555 1_555
Cd1 O11 1_555 1_555
Cd1 O13 1_555 1_555
Cd2 O22 1_555 1_555
O7 Eu2A_2 1_555 1_555
O20 Eu1_2 1_555 1_555
O24 Eu1A_2 1_555 1_555
C1 C2 1_555 1_555
C3 C6 1_555 1_555
C4 C5 1_555 1_555
C7 C8 1_555 1_555
C11 C12 1_555 1_555
C13 C14 1_555 1_555
C15 C16 1_555 1_555
C17 C18 1_555 1_555
C21 C22 1_555 1_555
C23 C24 1_555 1_555
C25 C26 1_555 1_555
C27 C28 1_555 1_555

#END
