
#######################################################################
#
#                 Cambridge Crystallographic Data Centre
#                                CCDC 
#
#######################################################################
#
# If this CIF has been generated from an entry in the Cambridge 
# Structural Database, then it will include bibliographic, chemical, 
# crystal, experimental, refinement or atomic coordinate data resulting 
# from the CCDC's data processing and validation procedures.
#
#######################################################################

data_EGIBUT
_symmetry_cell_setting           triclinic
_symmetry_space_group_name_H-M   'P -1'
_symmetry_Int_Tables_number      2
_space_group_name_Hall           '-P 1'
loop_
_symmetry_equiv_pos_site_id
_symmetry_equiv_pos_as_xyz
1 x,y,z
2 -x,-y,-z
_cell_length_a                   12.5125(3)
_cell_length_b                   13.1269(3)
_cell_length_c                   13.9163(3)
_cell_angle_alpha                117.169(2)
_cell_angle_beta                 102.567(2)
_cell_angle_gamma                101.203(2)
_cell_volume                     1867.91
loop_
_atom_site_label
_atom_site_type_symbol
_atom_site_fract_x
_atom_site_fract_y
_atom_site_fract_z
Ag1 Ag 0.90150(3) 0.68745(3) 0.89975(3)
P1 P 1.07416(10) 0.65958(11) 0.98831(10)
P2 P 0.87584(11) 0.83135(11) 0.84115(10)
N1 N 0.7248(4) 0.5345(4) 0.8425(4)
N2 N 0.8792(4) 0.4813(4) 0.6986(4)
C1 C 0.6433(5) 0.5374(5) 0.8921(5)
H1 H 0.6620 0.6008 0.9673
C2 C 0.5334(5) 0.4510(5) 0.8369(5)
H2 H 0.4807 0.4568 0.8755
C3 C 0.5009(5) 0.3551(5) 0.7238(5)
H3 H 0.4267 0.2971 0.6843
C4 C 0.5853(5) 0.3510(5) 0.6737(5)
C5 C 0.5852(5) 0.2619(5) 0.5580(5)
C6 C 0.7053(5) 0.3096(5) 0.5588(5)
C7 C 0.7581(6) 0.2686(6) 0.4783(5)
H4 H 0.7185 0.1985 0.4060
C8 C 0.8731(6) 0.3364(6) 0.5099(5)
H5 H 0.9123 0.3128 0.4581
C9 C 0.9293(6) 0.4397(6) 0.6191(5)
H6 H 1.0066 0.4828 0.6385
C10 C 0.7690(5) 0.4150(5) 0.6658(4)
C11 C 0.6940(4) 0.4408(4) 0.7364(4)
C12 C 1.1721(4) 0.6639(4) 0.9101(4)
C13 C 1.1876(5) 0.7552(5) 0.8846(5)
H7 H 1.1517 0.8131 0.9114
C14 C 1.2549(6) 0.7613(6) 0.8203(6)
H8 H 1.2641 0.8226 0.8034
C15 C 1.3097(5) 0.6753(5) 0.7804(5)
H9 H 1.3559 0.6794 0.7373
C16 C 1.2949(5) 0.5849(5) 0.8051(5)
H10 H 1.3315 0.5276 0.7786
C17 C 1.2261(4) 0.5773(5) 0.8692(4)
H11 H 1.2161 0.5150 0.8848
C18 C 1.1643(4) 0.7609(4) 1.1402(4)
C19 C 1.2831(5) 0.7852(5) 1.1803(4)
H12 H 1.3200 0.7499 1.1289
C20 C 1.3472(5) 0.8623(5) 1.2974(5)
H13 H 1.4273 0.8800 1.3241
C21 C 1.2917(5) 0.9129(5) 1.3744(5)
H14 H 1.3345 0.9636 1.4529
C22 C 1.1729(5) 0.8881(5) 1.3349(5)
H15 H 1.1359 0.9218 1.3867
C23 C 1.0428(4) 0.5081(4) 0.9700(4)
H16 H 1.0094 0.4462 0.8885
H17 H 1.1143 0.4988 1.0029
C24 C 0.7441(4) 0.8685(4) 0.8493(4)
C25 C 0.6960(5) 0.8548(5) 0.9257(5)
H18 H 0.7306 0.8257 0.9695
C26 C 0.5980(6) 0.8837(6) 0.9370(5)
H19 H 0.5667 0.8747 0.9886
C27 C 0.5457(5) 0.9264(5) 0.8718(5)
H20 H 0.4797 0.9466 0.8801
C28 C 0.5912(5) 0.9389(5) 0.7950(5)
H21 H 0.5550 0.9662 0.7503
C29 C 0.6905(4) 0.9110(5) 0.7838(4)
H22 H 0.7216 0.9207 0.7323
C30 C 0.8730(4) 0.7921(4) 0.6973(4)
C31 C 0.8051(6) 0.6748(5) 0.6075(5)
H23 H 0.7667 0.6195 0.6235
C32 C 0.7937(7) 0.6391(6) 0.4950(5)
H24 H 0.7479 0.5602 0.4359
C33 C 0.8499(5) 0.7199(5) 0.4698(5)
H25 H 0.8410 0.6961 0.3936
C34 C 0.9193(5) 0.8355(5) 0.5577(5)
H26 H 0.9583 0.8900 0.5412
C35 C 0.9314(5) 0.8716(5) 0.6716(4)
H27 H 0.9792 0.9499 0.7307
C36 C 0.9909(4) 0.9797(4) 0.9371(4)
H28 H 1.0628 0.9745 0.9230
H29 H 0.9698 1.0393 0.9213
O1 O 0.5071(4) 0.1705(4) 0.4813(4)
C37 C 1.1089(5) 0.8131(5) 1.2179(5)
H30 H 1.0292 0.7974 1.1912
P1A P 0.92584(10) 0.34042(11) 1.01169(10)
C12A C 0.8279(4) 0.3361(4) 1.0899(4)
C13A C 0.8124(5) 0.2448(5) 1.1154(5)
H7A H 0.8483 0.1869 1.0886
C14A C 0.7451(6) 0.2387(6) 1.1797(6)
H8A H 0.7359 0.1774 1.1966
C15A C 0.6903(5) 0.3247(5) 1.2196(5)
H9A H 0.6441 0.3206 1.2627
C16A C 0.7051(5) 0.4151(5) 1.1949(5)
H10A H 0.6685 0.4724 1.2214
C17A C 0.7739(4) 0.4227(5) 1.1308(4)
H11A H 0.7839 0.4850 1.1152
C18A C 0.8357(4) 0.2391(4) 0.8598(4)
C19A C 0.7169(5) 0.2148(5) 0.8197(4)
H12A H 0.6800 0.2501 0.8711
C20A C 0.6528(5) 0.1377(5) 0.7026(5)
H13A H 0.5727 0.1200 0.6759
C21A C 0.7083(5) 0.0871(5) 0.6256(5)
H14A H 0.6655 0.0364 0.5471
C22A C 0.8271(5) 0.1119(5) 0.6651(5)
H15A H 0.8641 0.0782 0.6133
C23A C 0.9572(4) 0.4919(4) 1.0300(4)
H16A H 0.9906 0.5538 1.1115
H17A H 0.8857 0.5012 0.9971
C37A C 0.8911(5) 0.1869(5) 0.7821(5)
H30A H 0.9708 0.2026 0.8088
P2A P 1.12416(11) 1.16865(11) 1.15885(10)
C24A C 1.2559(4) 1.1315(4) 1.1507(4)
C25A C 1.3040(5) 1.1452(5) 1.0743(5)
H18A H 1.2694 1.1743 1.0305
C26A C 1.4020(6) 1.1163(6) 1.0630(5)
H19A H 1.4333 1.1253 1.0114
C27A C 1.4543(5) 1.0736(5) 1.1282(5)
H20A H 1.5203 1.0534 1.1199
C28A C 1.4088(5) 1.0611(5) 1.2050(5)
H21A H 1.4450 1.0338 1.2497
C29A C 1.3095(4) 1.0890(5) 1.2162(4)
H22A H 1.2784 1.0793 1.2677
C30A C 1.1270(4) 1.2079(4) 1.3027(4)
C31A C 1.1949(6) 1.3252(5) 1.3925(5)
H23A H 1.2333 1.3805 1.3765
C32A C 1.2063(7) 1.3609(6) 1.5050(5)
H24A H 1.2521 1.4398 1.5641
C33A C 1.1501(5) 1.2801(5) 1.5302(5)
H25A H 1.1590 1.3039 1.6064
C34A C 1.0807(5) 1.1645(5) 1.4423(5)
H26A H 1.0417 1.1100 1.4588
C35A C 1.0686(5) 1.1284(5) 1.3284(4)
H27A H 1.0208 1.0501 1.2693
C36A C 1.0091(4) 1.0203(4) 1.0629(4)
H28A H 0.9372 1.0255 1.0770
H29A H 1.0302 0.9607 1.0787
Ag1A Ag 1.09850(3) 0.31255(3) 1.10025(3)
N1A N 1.2752(4) 0.4655(4) 1.1575(4)
N2A N 1.1208(4) 0.5187(4) 1.3014(4)
C1A C 1.3567(5) 0.4626(5) 1.1079(5)
H1A H 1.3380 0.3992 1.0327
C2A C 1.4666(5) 0.5490(5) 1.1631(5)
H2A H 1.5193 0.5432 1.1245
C3A C 1.4991(5) 0.6449(5) 1.2762(5)
H3A H 1.5733 0.7029 1.3157
C4A C 1.4147(5) 0.6490(5) 1.3263(5)
C5A C 1.4148(5) 0.7381(5) 1.4420(5)
C6A C 1.2947(5) 0.6904(5) 1.4412(5)
C7A C 1.2419(6) 0.7314(6) 1.5217(5)
H4A H 1.2815 0.8015 1.5940
C8A C 1.1269(6) 0.6636(6) 1.4901(5)
H5A H 1.0877 0.6872 1.5419
C9A C 1.0707(6) 0.5603(6) 1.3809(5)
H6A H 0.9934 0.5172 1.3615
C10A C 1.2310(5) 0.5850(5) 1.3342(4)
C11A C 1.3060(4) 0.5592(4) 1.2636(4)
O1A O 1.4929(4) 0.8295(4) 1.5187(4)
Ag1A_2 Ag 1.09850(3) 1.31255(3) 1.10025(3)
P2A_2 P 1.12416(11) 0.16865(11) 1.15885(10)
S1 S 0.20063(11) 0.19573(11) 0.77784(11)
F1 F 0.3995(4) 0.1660(4) 0.8444(4)
F2 F 0.2517(5) 0.0014(4) 0.7493(4)
F3 F 0.3208(4) 0.0809(4) 0.6610(4)
O2 O 0.1762(3) 0.2012(4) 0.8764(3)
O3 O 0.2720(3) 0.3096(3) 0.7996(3)
O4 O 0.1037(4) 0.1250(4) 0.6716(3)
C38 C 0.2971(6) 0.1055(6) 0.7565(6)
Cl1 Cl 0.5284(6) 0.5811(6) 0.6493(6)
Cl2 Cl 0.5094(10) 0.4167(9) 0.4445(10)
C39 C 0.601(3) 0.479(4) 0.5876(10)
C40? C 0.429(3) 0.437(3) 0.537(2)
loop_
_geom_bond_atom_site_label_1
_geom_bond_atom_site_label_2
_geom_bond_site_symmetry_1
_geom_bond_site_symmetry_2
Ag1 P1 1_555 1_555
P1 C12 1_555 1_555
P2 Ag1 1_555 1_555
N1 Ag1 1_555 1_555
N2 C9 1_555 1_555
C1 N1 1_555 1_555
H1 C1 1_555 1_555
C2 C1 1_555 1_555
H2 C2 1_555 1_555
C3 C2 1_555 1_555
H3 C3 1_555 1_555
C4 C3 1_555 1_555
C5 C4 1_555 1_555
C6 C5 1_555 1_555
C7 C6 1_555 1_555
H4 C7 1_555 1_555
C8 C7 1_555 1_555
H5 C8 1_555 1_555
C9 C8 1_555 1_555
H6 C9 1_555 1_555
C10 N2 1_555 1_555
C11 N1 1_555 1_555
C12 C13 1_555 1_555
C13 H7 1_555 1_555
C14 C13 1_555 1_555
H8 C14 1_555 1_555
C15 C14 1_555 1_555
H9 C15 1_555 1_555
C16 C15 1_555 1_555
H10 C16 1_555 1_555
C17 C12 1_555 1_555
H11 C17 1_555 1_555
C18 P1 1_555 1_555
C19 C18 1_555 1_555
H12 C19 1_555 1_555
C20 C19 1_555 1_555
H13 C20 1_555 1_555
C21 C20 1_555 1_555
H14 C21 1_555 1_555
C22 C21 1_555 1_555
H15 C22 1_555 1_555
C23 P1 1_555 1_555
H16 C23 1_555 1_555
H17 C23 1_555 1_555
C24 P2 1_555 1_555
C25 C24 1_555 1_555
H18 C25 1_555 1_555
C26 C25 1_555 1_555
H19 C26 1_555 1_555
C27 C26 1_555 1_555
H20 C27 1_555 1_555
C28 C27 1_555 1_555
H21 C28 1_555 1_555
C29 C24 1_555 1_555
H22 C29 1_555 1_555
C30 P2 1_555 1_555
C31 C30 1_555 1_555
H23 C31 1_555 1_555
C32 C31 1_555 1_555
H24 C32 1_555 1_555
C33 C32 1_555 1_555
H25 C33 1_555 1_555
C34 C33 1_555 1_555
H26 C34 1_555 1_555
C35 C30 1_555 1_555
H27 C35 1_555 1_555
C36 P2 1_555 1_555
H28 C36 1_555 1_555
H29 C36 1_555 1_555
O1 C5 1_555 1_555
C37 C18 1_555 1_555
H30 C37 1_555 1_555
S1 O2 1_555 1_555
F1 C38 1_555 1_555
F2 C38 1_555 1_555
F3 C38 1_555 1_555
O3 S1 1_555 1_555
O4 S1 1_555 1_555
C38 S1 1_555 1_555
Cl1 C39 1_555 1_555
Cl2 C39 1_555 1_555
P1A C12A 1_555 1_555
C12A C13A 1_555 1_555
C13A H7A 1_555 1_555
C14A C13A 1_555 1_555
H8A C14A 1_555 1_555
C15A C14A 1_555 1_555
H9A C15A 1_555 1_555
C16A C15A 1_555 1_555
H10A C16A 1_555 1_555
C17A C12A 1_555 1_555
H11A C17A 1_555 1_555
C18A P1A 1_555 1_555
C19A C18A 1_555 1_555
H12A C19A 1_555 1_555
C20A C19A 1_555 1_555
H13A C20A 1_555 1_555
C21A C20A 1_555 1_555
H14A C21A 1_555 1_555
C22A C21A 1_555 1_555
H15A C22A 1_555 1_555
C23A C23 1_555 1_555
H16A C23A 1_555 1_555
H17A C23A 1_555 1_555
C37A C18A 1_555 1_555
H30A C37A 1_555 1_555
P2A C24A 1_555 1_555
C24A C25A 1_555 1_555
C25A H18A 1_555 1_555
C26A C25A 1_555 1_555
H19A C26A 1_555 1_555
C27A C26A 1_555 1_555
H20A C27A 1_555 1_555
C28A C27A 1_555 1_555
H21A C28A 1_555 1_555
C29A C24A 1_555 1_555
H22A C29A 1_555 1_555
C30A P2A 1_555 1_555
C31A C30A 1_555 1_555
H23A C31A 1_555 1_555
C32A C31A 1_555 1_555
H24A C32A 1_555 1_555
C33A C32A 1_555 1_555
H25A C33A 1_555 1_555
C34A C33A 1_555 1_555
H26A C34A 1_555 1_555
C35A C30A 1_555 1_555
H27A C35A 1_555 1_555
C36A C36 1_555 1_555
H28A C36A 1_555 1_555
H29A C36A 1_555 1_555
Ag1A P1A 1_555 1_555
N1A Ag1A 1_555 1_555
N2A C9A 1_555 1_555
C1A N1A 1_555 1_555
H1A C1A 1_555 1_555
C2A C1A 1_555 1_555
H2A C2A 1_555 1_555
C3A C2A 1_555 1_555
H3A C3A 1_555 1_555
C4A C3A 1_555 1_555
C5A C4A 1_555 1_555
C6A C5A 1_555 1_555
C7A C6A 1_555 1_555
H4A C7A 1_555 1_555
C8A C7A 1_555 1_555
H5A C8A 1_555 1_555
C9A C8A 1_555 1_555
H6A C9A 1_555 1_555
C10A N2A 1_555 1_555
C11A N1A 1_555 1_555
O1A C5A 1_555 1_555
Ag1A_2 P2A 1_555 1_555
P2A_2 Ag1A 1_555 1_555
C4 C11 1_555 1_555
C6 C10 1_555 1_555
C10 C11 1_555 1_555
C16 C17 1_555 1_555
C22 C37 1_555 1_555
C28 C29 1_555 1_555
C34 C35 1_555 1_555
P1A C23A 1_555 1_555
C16A C17A 1_555 1_555
C22A C37A 1_555 1_555
P2A C36A 1_555 1_555
C28A C29A 1_555 1_555
C34A C35A 1_555 1_555
C4A C11A 1_555 1_555
C6A C10A 1_555 1_555
C10A C11A 1_555 1_555

#END
