
#######################################################################
#
#                 Cambridge Crystallographic Data Centre
#                                CCDC 
#
#######################################################################
#
# If this CIF has been generated from an entry in the Cambridge 
# Structural Database, then it will include bibliographic, chemical, 
# crystal, experimental, refinement or atomic coordinate data resulting 
# from the CCDC's data processing and validation procedures.
#
#######################################################################

data_EGIGEG
_symmetry_cell_setting           monoclinic
_symmetry_space_group_name_H-M   'P 21/n'
_symmetry_Int_Tables_number      14
_space_group_name_Hall           '-P 2yn'
loop_
_symmetry_equiv_pos_site_id
_symmetry_equiv_pos_as_xyz
1 x,y,z
2 1/2+x,1/2-y,1/2+z
3 -x,-y,-z
4 1/2-x,1/2+y,1/2-z
_cell_length_a                   14.0608(12)
_cell_length_b                   13.8902(12)
_cell_length_c                   19.0465(16)
_cell_angle_alpha                90
_cell_angle_beta                 98.487(2)
_cell_angle_gamma                90
_cell_volume                     3679.19
loop_
_atom_site_label
_atom_site_type_symbol
_atom_site_fract_x
_atom_site_fract_y
_atom_site_fract_z
Cu1 Cu 0.12143(3) -0.38413(3) 0.03683(2)
Cu2 Cu 0.13410(3) -0.39581(3) -0.52016(2)
S1 S 0.32752(7) -0.28465(8) 0.10011(6)
S2 S 0.11534(7) -0.20751(7) -0.06447(5)
S3 S 0.12266(8) -0.18182(7) -0.55577(6)
O1 O 0.10235(17) -0.52256(18) 0.05453(12)
O2 O 0.26748(18) -0.3743(2) 0.09865(15)
O3 O 0.1039(2) -0.24637(19) 0.00860(15)
O4 O 0.10075(18) -0.53260(17) -0.53201(13)
O5 O 0.2758(2) -0.4144(3) -0.55737(18)
O6 O 0.1592(2) -0.25826(19) -0.50127(14)
N1 N 0.4413(2) -0.4396(3) -0.2004(2)
O7 O 0.17740(19) -0.41562(19) -0.04832(13)
O8 O 0.04021(18) -0.4210(2) -0.12418(14)
O9 O 0.19116(18) -0.41737(18) -0.42120(13)
O10 O 0.05039(19) -0.40562(19) -0.38024(14)
O11 O 0.4785(2) -0.4613(2) -0.14055(16)
O12 O 0.4861(2) -0.4265(3) -0.24959(19)
C1 C 0.1866(3) -0.4219(2) -0.17067(18)
C2 C 0.1410(2) -0.4175(2) -0.23992(18)
H1 H 0.0728 -0.4143 -0.2488
C3 C 0.1919(3) -0.4177(2) -0.29693(18)
C4 C 0.2916(3) -0.4237(2) -0.28397(19)
H2 H 0.3283 -0.4238 -0.3220
C5 C 0.3356(3) -0.4295(3) -0.21487(19)
C6 C 0.2855(3) -0.4286(2) -0.15755(19)
H3 H 0.3185 -0.4324 -0.1103
C7 C 0.1288(3) -0.4204(3) -0.10969(19)
C8 C 0.1388(3) -0.4131(3) -0.37236(19)
C9 C -0.0297(3) -0.3488(3) 0.1105(2)
O13 O 0.06924(18) -0.37131(18) 0.38305(13)
O14 O -0.06715(19) -0.35306(19) 0.42753(13)
O15 O -0.3711(2) -0.3219(3) 0.15718(16)
O16 O -0.3673(2) -0.3337(3) 0.26991(15)
O17 O 0.06110(18) -0.35613(19) 0.12063(13)
O18 O -0.08174(19) -0.3504(2) 0.05151(13)
C10 C -0.0731(3) -0.3430(2) 0.30305(18)
C11 C -0.1726(3) -0.3358(2) 0.29402(19)
H4 H -0.2058 -0.3354 0.3340
C12 C -0.2225(3) -0.3292(2) 0.22649(19)
C13 C -0.1772(3) -0.3291(3) 0.16681(19)
H5 H -0.2133 -0.3234 0.1207
C14 C -0.0777(3) -0.3373(3) 0.17575(19)
C15 C -0.0268(3) -0.3436(2) 0.24364(18)
H6 H 0.0413 -0.3483 0.2496
C16 C -0.0207(3) -0.3565(2) 0.37710(19)
N2 N -0.3280(2) -0.3270(2) 0.21710(18)
C17 C 0.1574(3) -0.0735(3) -0.5094(2)
H7 H 0.1158 -0.0625 -0.4732
H8 H 0.1513 -0.0195 -0.5429
H9 H 0.2244 -0.0788 -0.4865
C18 C 0.4189(3) -0.3085(3) 0.0478(2)
H10 H 0.4525 -0.3680 0.0643
H11 H 0.4648 -0.2550 0.0522
H12 H 0.3901 -0.3158 -0.0020
C19 C 0.2044(4) -0.1785(4) -0.6175(2)
H13 H 0.2701 -0.1723 -0.5921
H14 H 0.1897 -0.1233 -0.6492
H15 H 0.1990 -0.2380 -0.6454
C20 C 0.4013(3) -0.2863(4) 0.1845(2)
H16 H 0.3614 -0.2751 0.2218
H17 H 0.4500 -0.2356 0.1862
H18 H 0.4330 -0.3490 0.1919
C21 C 0.1596(5) -0.0904(3) -0.0469(3)
H19 H 0.1171 -0.0555 -0.0192
H20 H 0.1619 -0.0566 -0.0918
H21 H 0.2244 -0.0936 -0.0198
C23 C -0.0003(3) -0.1794(5) -0.1048(3)
H25 H -0.0377 -0.2387 -0.1140
H26 H 0.0028 -0.1460 -0.1497
H27 H -0.0312 -0.1376 -0.0734
H31 H 0.0603 -0.5383 0.0779
H32 H 0.0535 -0.5536 -0.5616
H33 H 0.0994 -0.5553 0.0168
H34 H 0.3169 -0.3835 -0.5282
H35 H 0.1001 -0.5634 -0.4929
H36 H 0.2766 -0.4146 -0.6061
O13_2 O 0.06924(18) -0.37131(18) -0.61695(13)
Cu2_2 Cu 0.13410(3) -0.39581(3) 0.47984(2)
S4 S 0.29249(10) -0.50055(11) -0.73376(7)
O19 O 0.3025(3) -0.4078(3) -0.69383(19)
C22 C 0.1689(4) -0.5248(4) -0.7501(3)
H22 H 0.1414 -0.5172 -0.7061
H23 H 0.1586 -0.5909 -0.7675
H24 H 0.1376 -0.4799 -0.7859
C24 C 0.3276(4) -0.5918(4) -0.6705(3)
H28 H 0.3960 -0.5843 -0.6517
H29 H 0.3170 -0.6550 -0.6932
H30 H 0.2894 -0.5866 -0.6316
O20 O 0.4067(5) -0.3563(3) -0.4456(2)
loop_
_geom_bond_atom_site_label_1
_geom_bond_atom_site_label_2
_geom_bond_site_symmetry_1
_geom_bond_site_symmetry_2
Cu1 O1 1_555 1_555
Cu2 O4 1_555 1_555
S1 O2 1_555 1_555
S2 O3 1_555 1_555
S3 O6 1_555 1_555
S4 O19 1_555 1_555
O1 H31 1_555 1_555
O2 Cu1 1_555 1_555
O3 Cu1 1_555 1_555
O4 H32 1_555 1_555
O5 Cu2 1_555 1_555
O6 Cu2 1_555 1_555
N1 O11 1_555 1_555
O7 Cu1 1_555 1_555
O8 C7 1_555 1_555
O9 Cu2 1_555 1_555
O10 C8 1_555 1_555
O12 N1 1_555 1_555
C1 C2 1_555 1_555
C2 H1 1_555 1_555
C3 C2 1_555 1_555
C4 C3 1_555 1_555
H2 C4 1_555 1_555
C5 N1 1_555 1_555
C6 C1 1_555 1_555
H3 C6 1_555 1_555
C7 O7 1_555 1_555
C8 O9 1_555 1_555
C9 O17 1_555 1_555
O13 C16 1_555 1_555
O14 C16 1_555 1_555
O15 N2 1_555 1_555
O16 N2 1_555 1_555
O17 Cu1 1_555 1_555
O18 C9 1_555 1_555
C10 C11 1_555 1_555
C11 H4 1_555 1_555
C12 C11 1_555 1_555
C13 C12 1_555 1_555
H5 C13 1_555 1_555
C14 C9 1_555 1_555
C15 C10 1_555 1_555
H6 C15 1_555 1_555
C16 C10 1_555 1_555
N2 C12 1_555 1_555
C17 S3 1_555 1_555
H7 C17 1_555 1_555
H8 C17 1_555 1_555
H9 C17 1_555 1_555
C18 S1 1_555 1_555
H10 C18 1_555 1_555
H11 C18 1_555 1_555
H12 C18 1_555 1_555
C19 S3 1_555 1_555
H13 C19 1_555 1_555
H14 C19 1_555 1_555
H15 C19 1_555 1_555
C20 S1 1_555 1_555
H16 C20 1_555 1_555
H17 C20 1_555 1_555
H18 C20 1_555 1_555
C21 S2 1_555 1_555
H19 C21 1_555 1_555
H20 C21 1_555 1_555
H21 C21 1_555 1_555
C22 S4 1_555 1_555
H22 C22 1_555 1_555
H23 C22 1_555 1_555
H24 C22 1_555 1_555
C23 S2 1_555 1_555
H25 C23 1_555 1_555
H26 C23 1_555 1_555
H27 C23 1_555 1_555
C24 S4 1_555 1_555
H28 C24 1_555 1_555
H29 C24 1_555 1_555
H30 C24 1_555 1_555
H33 O1 1_555 1_555
H34 O5 1_555 1_555
H35 O4 1_555 1_555
H36 O5 1_555 1_555
O13_2 Cu2 1_555 1_555
Cu2_2 O13 1_555 1_555
C1 C7 1_555 1_555
C3 C8 1_555 1_555
C4 C5 1_555 1_555
C5 C6 1_555 1_555
C13 C14 1_555 1_555
C14 C15 1_555 1_555

#END
