
#######################################################################
#
#                 Cambridge Crystallographic Data Centre
#                                CCDC 
#
#######################################################################
#
# If this CIF has been generated from an entry in the Cambridge 
# Structural Database, then it will include bibliographic, chemical, 
# crystal, experimental, refinement or atomic coordinate data resulting 
# from the CCDC's data processing and validation procedures.
#
#######################################################################

data_EGIJUB
_symmetry_cell_setting           orthorhombic
_symmetry_space_group_name_H-M   'P c a 21'
_symmetry_Int_Tables_number      29
_space_group_name_Hall           'P 2c -2ac'
loop_
_symmetry_equiv_pos_site_id
_symmetry_equiv_pos_as_xyz
1 x,y,z
2 -x,-y,1/2+z
3 1/2+x,-y,z
4 1/2-x,y,1/2+z
_cell_length_a                   8.3658(17)
_cell_length_b                   8.3006(17)
_cell_length_c                   16.711(3)
_cell_angle_alpha                90
_cell_angle_beta                 90
_cell_angle_gamma                90
_cell_volume                     1160.43
loop_
_atom_site_label
_atom_site_type_symbol
_atom_site_fract_x
_atom_site_fract_y
_atom_site_fract_z
Sr1 Sr -1.91765(4) -0.41723(3) -0.16210(4)
N1 N -1.7769(5) -0.5927(4) -0.2815(2)
N2 N -1.7528(4) -0.6877(4) -0.39712(18)
O1 O -1.8855(3) -0.1546(4) -0.07972(17)
N3 N -1.8583(5) -0.6231(5) -0.3447(2)
N4 N -1.6164(4) -0.6331(4) -0.2900(2)
C1 C -1.6058(5) -0.6918(5) -0.3642(2)
N5 N -1.4714(4) -0.7439(4) -0.4028(2)
H1 H -1.4697 -0.7402 -0.4542
C2 C -1.3395(5) -0.8016(5) -0.3640(2)
C3 C -1.8058(5) -0.7315(5) -0.4767(2)
H2 H -1.9217 -0.7311 -0.4779
H3 H -1.7703 -0.8402 -0.4883
N6 N -1.2123(4) -0.8643(4) -0.4035(2)
N7 N -1.3221(4) -0.8118(4) -0.28498(19)
N8 N -1.1119(5) -0.9170(5) -0.3483(3)
N9 N -1.1774(4) -0.8838(4) -0.2787(2)
C4 C -1.7442(5) -0.6196(5) -0.5411(3)
O2 O -1.7934(4) -0.6427(4) -0.61027(18)
O3 O -1.6471(4) -0.5128(4) -0.52010(18)
C5 C -1.1076(5) -0.9392(6) -0.2039(3)
H4 H -1.0084 -0.9946 -0.2159
H5 H -1.1796 -1.0171 -0.1799
O4 O -1.0202(4) -0.8563(4) -0.0758(2)
C6 C -1.0728(5) -0.8067(6) -0.1418(3)
O5 O -1.1018(3) -0.6672(3) -0.1626(3)
Sr1_2 Sr -0.91765(4) -0.41723(3) -0.16210(4)
Sr1A Sr -2.08235(4) -0.58277(3) -0.66210(4)
Sr1B Sr -1.41765(4) -0.58277(3) -0.16210(4)
Sr1C Sr -1.58235(4) -0.41723(3) -0.66210(4)
N4B N -2.1164(4) -0.3669(4) -0.2900(2)
N7B N -1.8221(4) -0.1882(4) -0.28498(19)
O2A O -2.2066(4) -0.3573(4) -0.11027(18)
O2C O -1.7066(4) -0.6427(4) -0.11027(18)
O3C O -1.8529(4) -0.5128(4) -0.02010(18)
O5_2 O -2.1018(3) -0.6672(3) -0.1626(3)
O5B O -1.6018(3) -0.3328(3) -0.1626(3)
loop_
_geom_bond_atom_site_label_1
_geom_bond_atom_site_label_2
_geom_bond_site_symmetry_1
_geom_bond_site_symmetry_2
Sr1 N1 1_555 1_555
N1 N3 1_555 1_555
N2 N3 1_555 1_555
O1 Sr1 1_555 1_555
N4 N1 1_555 1_555
C1 N2 1_555 1_555
N5 C1 1_555 1_555
H1 N5 1_555 1_555
C2 N5 1_555 1_555
C3 N2 1_555 1_555
H2 C3 1_555 1_555
H3 C3 1_555 1_555
N6 C2 1_555 1_555
N7 C2 1_555 1_555
N8 N6 1_555 1_555
N9 N7 1_555 1_555
C4 C3 1_555 1_555
O2 C4 1_555 1_555
O3 C4 1_555 1_555
C5 N9 1_555 1_555
H4 C5 1_555 1_555
H5 C5 1_555 1_555
O4 C6 1_555 1_555
C6 C5 1_555 1_555
O5 C6 1_555 1_555
Sr1_2 O5 1_555 1_555
Sr1A O2 1_555 1_555
Sr1B N4 1_555 1_555
Sr1C O2 1_555 1_555
N4B Sr1 1_555 1_555
N7B Sr1 1_555 1_555
O2A Sr1 1_555 1_555
O2C Sr1 1_555 1_555
O3C Sr1 1_555 1_555
O5_2 Sr1 1_555 1_555
O5B Sr1 1_555 1_555
N4 C1 1_555 1_555
N7 Sr1B 1_555 1_555
N8 N9 1_555 1_555
O3 Sr1C 1_555 1_555
O5 Sr1B 1_555 1_555
Sr1B O2C 1_555 1_555
Sr1B O5B 1_555 1_555

#END
