
#######################################################################
#
#                 Cambridge Crystallographic Data Centre
#                                CCDC 
#
#######################################################################
#
# If this CIF has been generated from an entry in the Cambridge 
# Structural Database, then it will include bibliographic, chemical, 
# crystal, experimental, refinement or atomic coordinate data resulting 
# from the CCDC's data processing and validation procedures.
#
#######################################################################

data_EGIKUB
_symmetry_cell_setting           tetragonal
_symmetry_space_group_name_H-M   'P 43 21 2'
_symmetry_Int_Tables_number      96
_space_group_name_Hall           'P 4nw 2abw'
loop_
_symmetry_equiv_pos_site_id
_symmetry_equiv_pos_as_xyz
1 x,y,z
2 1/2-y,1/2+x,3/4+z
3 -x,-y,1/2+z
4 1/2+y,1/2-x,1/4+z
5 1/2+x,1/2-y,1/4-z
6 y,x,-z
7 1/2-x,1/2+y,3/4-z
8 -y,-x,1/2-z
_cell_length_a                   9.6432(4)
_cell_length_b                   9.6432(4)
_cell_length_c                   32.2446(18)
_cell_angle_alpha                90
_cell_angle_beta                 90
_cell_angle_gamma                90
_cell_volume                     2998.47
loop_
_atom_site_label
_atom_site_type_symbol
_atom_site_fract_x
_atom_site_fract_y
_atom_site_fract_z
Zn1 Zn -0.01549(9) -1.01549(9) -0.5000
Zn2 Zn 0.48458(8) -1.04963(8) -0.49960(2)
Zn3 Zn -0.04477(9) -0.95523(9) -0.2500
O1 O -0.2421(6) -0.9618(6) -0.26486(15)
O2 O 0.2870(5) -1.0562(7) -0.48232(14)
O3 O 0.0896(5) -1.0151(6) -0.44975(14)
O4 O -0.2126(5) -0.9962(6) -0.48272(15)
O5 O -0.4148(5) -0.9989(6) -0.45116(14)
O6 O 0.0617(5) -0.9993(6) -0.29899(14)
O7 O -0.4401(5) -0.9681(5) -0.29955(13)
O8 O 0.2549(6) -1.0183(6) -0.26294(16)
C1 C 0.4175(9) -1.2441(8) -0.3670(2)
H1 H 0.4850 -1.3127 -0.3651
C2 C -0.1279(7) -0.8165(7) -0.4119(2)
H2 H -0.0878 -0.7889 -0.4368
C3 C -0.2428(7) -0.9027(7) -0.3372(2)
C4 C 0.2725(7) -1.0970(8) -0.4089(2)
C5 C 0.3732(9) -1.1951(8) -0.4059(2)
H3 H 0.4134 -1.2303 -0.4299
C6 C -0.1426(8) -0.8013(8) -0.3375(2)
H4 H -0.1127 -0.7628 -0.3126
C7 C 0.1866(7) -1.0287(7) -0.29616(19)
C8 C -0.2880(7) -0.9584(8) -0.37479(19)
H5 H -0.3587 -1.0240 -0.3748
C9 C 0.2121(7) -1.0437(8) -0.37297(19)
H6 H 0.1413 -0.9786 -0.3751
C10 C -0.2293(7) -0.9177(7) -0.4121(2)
C11 C -0.2863(7) -0.9760(8) -0.45141(19)
C12 C 0.2562(7) -1.0866(7) -0.3341(2)
C13 C 0.2154(7) -1.0510(8) -0.45010(19)
C14 C 0.3579(8) -1.1873(8) -0.3314(2)
H7 H 0.3870 -1.2176 -0.3054
C15 C -0.3112(7) -0.9485(8) -0.29791(19)
C16 C -0.0849(9) -0.7553(8) -0.3750(2)
H8 H -0.0190 -0.6850 -0.3752
Zn2E Zn -0.04963(8) -0.51542(8) -0.50040(2)
Zn2_2 Zn -0.51542(8) -1.04963(8) -0.49960(2)
Zn2C Zn -0.54963(8) -0.98458(8) -0.24960(2)
Zn2C_2 Zn 0.45037(8) -0.98458(8) -0.24960(2)
Zn2F Zn 0.01542(8) -0.54963(8) -0.75040(2)
Zn2E_2 Zn -0.04963(8) -1.51542(8) -0.50040(2)
Zn2F_2 Zn 0.01542(8) -1.54963(8) -0.75040(2)
Zn3B Zn 0.04477(9) -1.04477(9) -0.7500
O1E O 0.0382(6) -1.2421(6) -0.73514(15)
O1G O -0.0382(6) -0.7579(6) -0.23514(15)
O2E O -0.0562(7) -0.7130(5) -0.51768(14)
O3E O -0.0151(6) -0.9104(5) -0.55025(14)
O4E O 0.0038(6) -1.2126(5) -0.51728(15)
O5E O 0.0011(6) -1.4148(5) -0.54884(14)
O5_2 O 0.5852(5) -0.9989(6) -0.45116(14)
O5E_2 O 0.0011(6) -0.4148(5) -0.54884(14)
O6E O 0.0007(6) -0.9383(5) -0.70101(14)
O6G O -0.0007(6) -1.0617(5) -0.20101(14)
O7E O 0.0319(5) -1.4401(5) -0.70045(13)
O7A O 0.4681(5) -0.9401(5) -0.54955(13)
O7D O 0.0599(5) -0.5319(5) -0.45045(13)
O8E O -0.0183(6) -0.7451(6) -0.73706(16)
O8A O 0.5183(6) -1.2451(6) -0.51294(16)
O8D O -0.2451(6) -0.4817(6) -0.48706(16)
C1E C -0.2441(8) -0.5825(9) -0.6330(2)
H1E H -0.3127 -0.5150 -0.6349
C2E C 0.1835(7) -1.1279(7) -0.5881(2)
H2E H 0.2111 -1.0878 -0.5632
C3E C 0.0973(7) -1.2428(7) -0.6628(2)
C4E C -0.0970(8) -0.7275(7) -0.5911(2)
C5E C -0.1951(8) -0.6268(9) -0.5941(2)
H3E H -0.2303 -0.5866 -0.5701
C6E C 0.1987(8) -1.1426(8) -0.6625(2)
H4E H 0.2372 -1.1127 -0.6874
C7E C -0.0287(7) -0.8134(7) -0.70384(19)
C8E C 0.0416(8) -1.2880(7) -0.62521(19)
H5E H -0.0240 -1.3587 -0.6252
C9E C -0.0437(8) -0.7879(7) -0.62703(19)
H6E H 0.0214 -0.8587 -0.6249
C10E C 0.0823(7) -1.2293(7) -0.5879(2)
C11E C 0.0240(8) -1.2863(7) -0.54859(19)
C12E C -0.0866(7) -0.7438(7) -0.6659(2)
C13E C -0.0510(8) -0.7846(7) -0.54990(19)
C14E C -0.1873(8) -0.6421(8) -0.6686(2)
H7E H -0.2176 -0.6130 -0.6946
C15E C 0.0515(8) -1.3112(7) -0.70209(19)
C16E C 0.2447(8) -1.0849(9) -0.6250(2)
H8E H 0.3150 -1.0190 -0.6248
loop_
_geom_bond_atom_site_label_1
_geom_bond_atom_site_label_2
_geom_bond_site_symmetry_1
_geom_bond_site_symmetry_2
Zn1 O3 1_555 1_555
Zn2 O2 1_555 1_555
Zn3 O1 1_555 1_555
O1 C15 1_555 1_555
O2 C13 1_555 1_555
O3 C13 1_555 1_555
O4 Zn1 1_555 1_555
O5 C11 1_555 1_555
O6 Zn3 1_555 1_555
O7 C15 1_555 1_555
O8 C7 1_555 1_555
C1 H1 1_555 1_555
C2 H2 1_555 1_555
C3 C6 1_555 1_555
C4 C5 1_555 1_555
C5 C1 1_555 1_555
H3 C5 1_555 1_555
C6 H4 1_555 1_555
C7 O6 1_555 1_555
C8 C3 1_555 1_555
H5 C8 1_555 1_555
C9 C4 1_555 1_555
H6 C9 1_555 1_555
C10 C2 1_555 1_555
C11 O4 1_555 1_555
C12 C7 1_555 1_555
C13 C4 1_555 1_555
C14 C1 1_555 1_555
H7 C14 1_555 1_555
C15 C3 1_555 1_555
C16 C2 1_555 1_555
H8 C16 1_555 1_555
Zn2E O2E 1_555 1_555
Zn2_2 O5 1_555 1_555
Zn2C O7 1_555 1_555
Zn2C_2 O8 1_555 1_555
Zn2F O8E 1_555 1_555
Zn2E_2 O5E 1_555 1_555
Zn2F_2 O7E 1_555 1_555
Zn3B O1E 1_555 1_555
O1E C15E 1_555 1_555
O1G Zn3 1_555 1_555
O2E C13E 1_555 1_555
O3E Zn1 1_555 1_555
O4E Zn1 1_555 1_555
O5E C11E 1_555 1_555
O5_2 Zn2 1_555 1_555
O5E_2 Zn2E 1_555 1_555
O6E Zn3B 1_555 1_555
O6G Zn3 1_555 1_555
O7E C15E 1_555 1_555
O7A Zn2 1_555 1_555
O7D Zn2E 1_555 1_555
O8E C7E 1_555 1_555
O8A Zn2 1_555 1_555
O8D Zn2E 1_555 1_555
C1E H1E 1_555 1_555
C2E H2E 1_555 1_555
C3E C6E 1_555 1_555
C4E C5E 1_555 1_555
C5E C1E 1_555 1_555
H3E C5E 1_555 1_555
C6E H4E 1_555 1_555
C7E O6E 1_555 1_555
C8E C3E 1_555 1_555
H5E C8E 1_555 1_555
C9E C4E 1_555 1_555
H6E C9E 1_555 1_555
C10E C2E 1_555 1_555
C11E O4E 1_555 1_555
C12E C7E 1_555 1_555
C13E O3E 1_555 1_555
C14E C1E 1_555 1_555
H7E C14E 1_555 1_555
C15E C3E 1_555 1_555
C16E C2E 1_555 1_555
H8E C16E 1_555 1_555
C6 C16 1_555 1_555
C8 C10 1_555 1_555
C9 C12 1_555 1_555
C10 C11 1_555 1_555
C12 C14 1_555 1_555
C4E C13E 1_555 1_555
C6E C16E 1_555 1_555
C8E C10E 1_555 1_555
C9E C12E 1_555 1_555
C10E C11E 1_555 1_555
C12E C14E 1_555 1_555

#END
