
#######################################################################
#
#                 Cambridge Crystallographic Data Centre
#                                CCDC 
#
#######################################################################
#
# If this CIF has been generated from an entry in the Cambridge 
# Structural Database, then it will include bibliographic, chemical, 
# crystal, experimental, refinement or atomic coordinate data resulting 
# from the CCDC's data processing and validation procedures.
#
#######################################################################

data_EGILIQ
_symmetry_cell_setting           triclinic
_symmetry_space_group_name_H-M   'P -1'
_symmetry_Int_Tables_number      2
_space_group_name_Hall           '-P 1'
loop_
_symmetry_equiv_pos_site_id
_symmetry_equiv_pos_as_xyz
1 x,y,z
2 -x,-y,-z
_cell_length_a                   9.5442(11)
_cell_length_b                   10.3758(10)
_cell_length_c                   21.851(2)
_cell_angle_alpha                83.720(12)
_cell_angle_beta                 80.106(13)
_cell_angle_gamma                85.457(13)
_cell_volume                     2114.87
loop_
_atom_site_label
_atom_site_type_symbol
_atom_site_fract_x
_atom_site_fract_y
_atom_site_fract_z
Mn1 Mn 0.39997(9) 0.50219(8) 0.12938(3)
Mn2 Mn 0.29660(9) 0.98554(8) 0.23081(3)
O1 O 0.3536(4) 0.5865(4) 0.03813(14)
C1 C 0.4352(5) 0.5457(5) -0.0067(2)
O2 O 0.4237(4) 0.5730(4) -0.06318(14)
O3 O 0.2364(4) 0.6249(4) 0.17723(15)
O4 O 0.1896(4) 0.8266(4) 0.20382(16)
C2 C 0.2722(6) 0.7346(5) 0.1845(2)
C3 C 0.4316(6) 0.7596(6) 0.1681(2)
O5 O 0.5123(4) 0.6704(4) 0.14448(16)
O6 O 0.4673(4) 0.8668(4) 0.17829(15)
O7 O 0.4559(4) 0.3566(3) 0.20193(14)
O8 O 0.4186(4) 0.1514(4) 0.24100(15)
C4 C 0.3969(6) 0.2513(5) 0.2053(2)
C5 C 0.2888(6) 0.2432(6) 0.1617(2)
O9 O 0.2623(4) 0.3444(4) 0.12842(16)
O10 O 0.2349(4) 0.1361(4) 0.16329(15)
O11 O 0.1023(4) 1.0055(4) 0.29913(15)
O12 O -0.0039(4) 0.8881(4) 0.38398(16)
C6 C 0.1034(6) 0.9255(5) 0.3469(2)
C7 C 0.2498(7) 0.8658(6) 0.3586(2)
O13 O 0.3522(4) 0.8843(4) 0.31514(16)
O14 O 0.2563(5) 0.8029(5) 0.40974(17)
Mn1A Mn 0.60003(9) 0.49781(8) -0.12938(3)
Mn1_2 Mn 0.39997(9) 1.50219(8) 0.12938(3)
Mn2_2 Mn 0.29660(9) -0.01446(8) 0.23081(3)
Mn2A Mn 0.70340(9) 0.01446(8) -0.23081(3)
O1A O 0.6464(4) 0.4135(4) -0.03813(14)
C1A C 0.5648(5) 0.4543(5) 0.0067(2)
O2A O 0.5763(4) 0.4270(4) 0.06318(14)
O3A O 0.7636(4) 0.3751(4) -0.17723(15)
O4A O 0.8104(4) 0.1734(4) -0.20382(16)
O4_2 O 0.1896(4) -0.1734(4) 0.20382(16)
C2A C 0.7278(6) 0.2654(5) -0.1845(2)
C3A C 0.5684(6) 0.2404(6) -0.1681(2)
O5A O 0.4877(4) 0.3296(4) -0.14448(16)
O6A O 0.5327(4) 0.1332(4) -0.17829(15)
O6_2 O 0.4673(4) -0.1332(4) 0.17829(15)
O7_2 O 0.4559(4) 1.3566(3) 0.20193(14)
O7A O 0.5441(4) 0.6434(3) -0.20193(14)
O8_2 O 0.4186(4) 1.1514(4) 0.24100(15)
C4_2 C 0.3969(6) 1.2513(5) 0.2053(2)
C5_2 C 0.2888(6) 1.2432(6) 0.1617(2)
O9_2 O 0.2623(4) 1.3444(4) 0.12842(16)
O9A O 0.7377(4) 0.6556(4) -0.12842(16)
O10_2 O 0.2349(4) 1.1361(4) 0.16329(15)
O11_2 O 0.1023(4) 0.0055(4) 0.29913(15)
O12_2 O -0.0039(4) -0.1119(4) 0.38398(16)
C6_2 C 0.1034(6) -0.0745(5) 0.3469(2)
C7_2 C 0.2498(7) -0.1342(6) 0.3586(2)
O13_2 O 0.3522(4) -0.1157(4) 0.31514(16)
O14_2 O 0.2563(5) -0.1971(5) 0.40974(17)
Mn3 Mn 0.91337(9) 0.93501(8) 0.04613(3)
O15 O 1.0962(4) 0.9782(4) 0.02993(15)
N1 N 0.7011(5) 0.8936(4) 0.05736(18)
H1 H 0.6761 0.8491 0.0954
C8 C 0.6921(6) 0.8091(6) 0.0084(2)
H2 H 0.7180 0.8552 -0.0326
H3 H 0.5958 0.7820 0.0121
C9 C 0.7937(6) 0.6930(6) 0.0169(2)
H4 H 0.7556 0.6370 0.0535
H5 H 0.8051 0.6438 -0.0191
N2 N 0.9342(5) 0.7358(4) 0.02445(18)
H6 H 0.9961 0.7296 -0.0119
C10 C 0.9951(6) 0.6583(6) 0.0756(3)
H7 H 1.0967 0.6687 0.0703
H8 H 0.9806 0.5670 0.0749
C11 C 0.9226(7) 0.7042(6) 0.1368(2)
H9 H 0.8222 0.6876 0.1438
H10 H 0.9653 0.6586 0.1708
N3 N 0.9401(5) 0.8436(5) 0.13358(18)
H11 H 1.0325 0.8518 0.1371
C12 C 0.8517(7) 0.9128(7) 0.1846(2)
H12 H 0.7539 0.8883 0.1909
H13 H 0.8886 0.8911 0.2233
C13 C 0.8589(7) 1.0545(7) 0.1647(2)
H14 H 0.7965 1.1035 0.1950
H15 H 0.9554 1.0797 0.1627
N4 N 0.8150(5) 1.0840(5) 0.10300(19)
H16 H 0.8487 1.1615 0.0856
C14 C 0.6589(6) 1.0912(6) 0.1054(3)
H17 H 0.6240 1.1814 0.1000
H18 H 0.6136 1.0538 0.1459
C15 C 0.6206(7) 1.0199(6) 0.0556(2)
H19 H 0.5191 1.0080 0.0631
H20 H 0.6452 1.0684 0.0151
Mn3A Mn 1.08663(9) 1.06499(8) -0.04613(3)
O15A O 0.9038(4) 1.0218(4) -0.02993(15)
N1A N 1.2989(5) 1.1064(4) -0.05736(18)
H1A H 1.3239 1.1509 -0.0954
C8A C 1.3079(6) 1.1909(6) -0.0084(2)
H2A H 1.2820 1.1448 0.0326
H3A H 1.4042 1.2180 -0.0121
C9A C 1.2063(6) 1.3070(6) -0.0169(2)
H4A H 1.2444 1.3630 -0.0535
H5A H 1.1949 1.3562 0.0191
N2A N 1.0658(5) 1.2642(4) -0.02445(18)
H6A H 1.0039 1.2704 0.0119
C10A C 1.0049(6) 1.3417(6) -0.0756(3)
H7A H 0.9033 1.3313 -0.0703
H8A H 1.0194 1.4330 -0.0749
C11A C 1.0774(7) 1.2958(6) -0.1368(2)
H9A H 1.1778 1.3124 -0.1438
H10A H 1.0347 1.3414 -0.1708
N3A N 1.0599(5) 1.1564(5) -0.13358(18)
H11A H 0.9675 1.1482 -0.1371
C12A C 1.1483(7) 1.0872(7) -0.1846(2)
H12A H 1.2461 1.1117 -0.1909
H13A H 1.1114 1.1089 -0.2233
C13A C 1.1411(7) 0.9455(7) -0.1647(2)
H14A H 1.2035 0.8965 -0.1950
H15A H 1.0446 0.9203 -0.1627
N4A N 1.1850(5) 0.9160(5) -0.10300(19)
H16A H 1.1513 0.8385 -0.0856
C14A C 1.3411(6) 0.9088(6) -0.1054(3)
H17A H 1.3760 0.8186 -0.1000
H18A H 1.3864 0.9462 -0.1459
C15A C 1.3794(7) 0.9801(6) -0.0556(2)
H19A H 1.4809 0.9920 -0.0631
H20A H 1.3548 0.9316 -0.0151
Mn4 Mn 0.02386(12) 0.43430(9) 0.44874(4)
O16 O -0.1217(5) 0.5244(4) 0.49363(17)
N5 N 0.2018(7) 0.3396(5) 0.4029(2)
H21 H 0.2620 0.3406 0.4309
C16 C 0.2860(16) 0.4080(13) 0.3474(6)
H22 H 0.3866 0.3833 0.3459
H23 H 0.2574 0.3850 0.3097
C17 C 0.2605(14) 0.5467(12) 0.3517(5)
H24 H 0.3209 0.5739 0.3787
N6 N 0.1148(12) 0.5820(10) 0.3755(4)
H25 H 0.1116 0.6585 0.3926
C18 C 0.0188(15) 0.5986(13) 0.3269(6)
H26 H 0.0655 0.5583 0.2900
H27 H 0.0004 0.6903 0.3148
C19 C -0.1230(19) 0.5358(15) 0.3527(7)
H28 H -0.1745 0.5308 0.3185
H29 H -0.1806 0.5910 0.3817
N7 N -0.1032(8) 0.3970(6) 0.3866(2)
H30 H -0.0496 0.3469 0.3586
C20 C -0.2146(11) 0.3180(9) 0.4226(4)
H31 H -0.2790 0.2961 0.3960
H32 H -0.2690 0.3644 0.4560
C21 C -0.1391(9) 0.1983(7) 0.4486(3)
H33 H -0.2063 0.1473 0.4779
H34 H -0.0977 0.1458 0.4151
N8 N -0.0266(6) 0.2347(5) 0.4802(2)
H35 H -0.0583 0.2282 0.5221
C22 C 0.1077(8) 0.1559(7) 0.4678(3)
H36 H 0.0880 0.0653 0.4690
H37 H 0.1647 0.1638 0.4997
C23 C 0.1887(9) 0.1999(6) 0.4051(3)
H38 H 0.2824 0.1550 0.3990
H39 H 0.1384 0.1811 0.3724
Mn4A Mn -0.02386(12) 0.56570(9) 0.55126(4)
O16A O 0.1217(5) 0.4756(4) 0.50637(17)
N5A N -0.2018(7) 0.6604(5) 0.5971(2)
H21A H -0.2620 0.6594 0.5691
C16A C -0.2860(16) 0.5920(13) 0.6526(6)
H22A H -0.3866 0.6167 0.6541
H23A H -0.2574 0.6150 0.6903
C17A C -0.2605(14) 0.4533(12) 0.6483(5)
H24A H -0.3209 0.4261 0.6213
N6A N -0.1148(12) 0.4180(10) 0.6245(4)
H25A H -0.1116 0.3415 0.6074
C18A C -0.0188(15) 0.4014(13) 0.6731(6)
H26A H -0.0655 0.4417 0.7100
H27A H -0.0004 0.3097 0.6852
C19A C 0.1230(19) 0.4642(15) 0.6473(7)
H28A H 0.1745 0.4692 0.6815
H29A H 0.1806 0.4090 0.6183
N7A N 0.1032(8) 0.6030(6) 0.6134(2)
H30A H 0.0496 0.6531 0.6414
C20A C 0.2146(11) 0.6820(9) 0.5774(4)
H31A H 0.2790 0.7039 0.6040
H32A H 0.2690 0.6356 0.5440
C21A C 0.1391(9) 0.8017(7) 0.5514(3)
H33A H 0.2063 0.8527 0.5221
H34A H 0.0977 0.8542 0.5849
N8A N 0.0266(6) 0.7653(5) 0.5198(2)
H35A H 0.0583 0.7718 0.4779
C22A C -0.1077(8) 0.8441(7) 0.5322(3)
H36A H -0.0880 0.9347 0.5310
H37A H -0.1647 0.8362 0.5003
C23A C -0.1887(9) 0.8001(6) 0.5949(3)
H38A H -0.2824 0.8450 0.6010
H39A H -0.1384 0.8189 0.6276
O17 O 0.8545(8) 0.3578(6) 0.0781(4)
O18 O 0.9102(6) 0.2139(5) 0.2893(2)
O19 O 0.9509(8) 0.3969(6) 0.1865(3)
O20 O 0.664(2) 0.497(2) 0.2452(8)
O21 O 0.7216(9) 0.8934(10) 0.3603(4)
O22 O 0.6092(11) 0.7318(11) 0.3013(5)
O23 O 0.5839(17) 0.5858(19) 0.5181(7)
O24 O 0.6371(18) 0.1221(16) 0.3198(8)
O25 O 0.5120(10) 0.8056(10) 0.4542(4)
O26 O 0.485(3) 0.635(3) 0.4368(11)
H40? H 0.2786 0.3533 0.4204
H41? H 0.2865 0.5924 0.3106
C24? C 0.2186(15) 0.4052(12) 0.3358(5)
H42? H 0.3137 0.3853 0.3137
H43? H 0.1503 0.3738 0.3136
C25? C 0.1928(17) 0.5511(15) 0.3388(7)
H44? H 0.2608 0.5817 0.3613
H45? H 0.2065 0.5949 0.2968
N9? N 0.0452(12) 0.5825(11) 0.3708(5)
H46? H 0.0414 0.6617 0.3855
C26? C -0.0558(19) 0.5840(16) 0.3313(7)
H47? H -0.0131 0.5435 0.2940
H48? H -0.0851 0.6733 0.3187
C27? C -0.1868(18) 0.5120(15) 0.3635(7)
H49? H -0.2433 0.5571 0.3969
H50? H -0.2465 0.4922 0.3344
H51? H -0.0534 0.3556 0.3543
O27? O 0.881(4) 0.355(4) 0.0976(14)
O28? O 1.036(2) 0.2740(19) 0.2740(8)
O29? O 0.790(2) 0.3726(19) 0.2183(8)
O30? O 0.649(6) 0.635(7) 0.248(2)
O31? O 0.728(2) 0.970(2) 0.3669(9)
O32? O 0.608(3) 0.785(3) 0.3370(14)
O33? O 0.536(4) 0.765(5) 0.5490(18)
O34? O 0.572(4) 0.679(5) 0.518(2)
O35? O 0.549(3) 0.659(3) 0.5691(11)
O36? O 0.611(2) 0.169(2) 0.3242(9)
O37? O 0.643(3) 0.186(3) 0.3039(11)
O38? O 0.514(4) 0.988(3) 0.4714(12)
loop_
_geom_bond_atom_site_label_1
_geom_bond_atom_site_label_2
_geom_bond_site_symmetry_1
_geom_bond_site_symmetry_2
Mn1 O1 1_555 1_555
Mn2 O4 1_555 1_555
O1 C1 1_555 1_555
C1 O2 1_555 1_555
O2 Mn1A 1_555 1_555
O3 Mn1 1_555 1_555
O4 C2 1_555 1_555
C2 O3 1_555 1_555
C3 C2 1_555 1_555
O5 Mn1 1_555 1_555
O6 Mn2 1_555 1_555
O7 Mn1 1_555 1_555
O8 C4 1_555 1_555
C4 O7 1_555 1_555
C5 C4 1_555 1_555
O9 Mn1 1_555 1_555
O10 C5 1_555 1_555
O11 Mn2 1_555 1_555
O12 C6 1_555 1_555
C6 O11 1_555 1_555
C7 C6 1_555 1_555
O13 Mn2 1_555 1_555
O14 C7 1_555 1_555
Mn3 O15 1_555 1_555
O15 Mn3A 1_555 1_555
N1 Mn3 1_555 1_555
H1 N1 1_555 1_555
C8 N1 1_555 1_555
H2 C8 1_555 1_555
H3 C8 1_555 1_555
C9 C8 1_555 1_555
H4 C9 1_555 1_555
H5 C9 1_555 1_555
N2 Mn3 1_555 1_555
H6 N2 1_555 1_555
C10 N2 1_555 1_555
H7 C10 1_555 1_555
H8 C10 1_555 1_555
C11 C10 1_555 1_555
H9 C11 1_555 1_555
H10 C11 1_555 1_555
N3 Mn3 1_555 1_555
H11 N3 1_555 1_555
C12 N3 1_555 1_555
H12 C12 1_555 1_555
H13 C12 1_555 1_555
C13 C12 1_555 1_555
H14 C13 1_555 1_555
H15 C13 1_555 1_555
N4 Mn3 1_555 1_555
H16 N4 1_555 1_555
C14 N4 1_555 1_555
H17 C14 1_555 1_555
H18 C14 1_555 1_555
C15 N1 1_555 1_555
H19 C15 1_555 1_555
H20 C15 1_555 1_555
Mn4 O16 1_555 1_555
O16 Mn4A 1_555 1_555
N5 Mn4 1_555 1_555
H21 N5 1_555 1_555
C16 N5 1_555 1_555
H22 C16 1_555 1_555
H23 C16 1_555 1_555
C17 C16 1_555 1_555
H24 C17 1_555 1_555
N6 Mn4 1_555 1_555
H25 N6 1_555 1_555
C18 N6 1_555 1_555
H26 C18 1_555 1_555
H27 C18 1_555 1_555
C19 C18 1_555 1_555
H28 C19 1_555 1_555
H29 C19 1_555 1_555
N7 Mn4 1_555 1_555
H30 N7 1_555 1_555
C20 N7 1_555 1_555
H31 C20 1_555 1_555
H32 C20 1_555 1_555
C21 C20 1_555 1_555
H33 C21 1_555 1_555
H34 C21 1_555 1_555
N8 Mn4 1_555 1_555
H35 N8 1_555 1_555
C22 N8 1_555 1_555
H36 C22 1_555 1_555
H37 C22 1_555 1_555
C23 N5 1_555 1_555
H38 C23 1_555 1_555
H39 C23 1_555 1_555
Mn1A O1A 1_555 1_555
Mn1_2 O7_2 1_555 1_555
Mn2_2 O8 1_555 1_555
Mn2A O4A 1_555 1_555
O1A C1A 1_555 1_555
C1A C1 1_555 1_555
O2A Mn1 1_555 1_555
O3A Mn1A 1_555 1_555
O4A C2A 1_555 1_555
O4_2 Mn2_2 1_555 1_555
C2A O3A 1_555 1_555
C3A C2A 1_555 1_555
O5A Mn1A 1_555 1_555
O6A Mn2A 1_555 1_555
O6_2 Mn2_2 1_555 1_555
O7_2 C4_2 1_555 1_555
O7A Mn1A 1_555 1_555
O8_2 Mn2 1_555 1_555
C4_2 O8_2 1_555 1_555
C5_2 C4_2 1_555 1_555
O9_2 Mn1_2 1_555 1_555
O9A Mn1A 1_555 1_555
O10_2 Mn2 1_555 1_555
O11_2 Mn2_2 1_555 1_555
O12_2 C6_2 1_555 1_555
C6_2 O11_2 1_555 1_555
C7_2 C6_2 1_555 1_555
O13_2 Mn2_2 1_555 1_555
O14_2 C7_2 1_555 1_555
Mn3A O15A 1_555 1_555
O15A Mn3 1_555 1_555
N1A Mn3A 1_555 1_555
H1A N1A 1_555 1_555
C8A N1A 1_555 1_555
H2A C8A 1_555 1_555
H3A C8A 1_555 1_555
C9A C8A 1_555 1_555
H4A C9A 1_555 1_555
H5A C9A 1_555 1_555
N2A Mn3A 1_555 1_555
H6A N2A 1_555 1_555
C10A N2A 1_555 1_555
H7A C10A 1_555 1_555
H8A C10A 1_555 1_555
C11A C10A 1_555 1_555
H9A C11A 1_555 1_555
H10A C11A 1_555 1_555
N3A Mn3A 1_555 1_555
H11A N3A 1_555 1_555
C12A N3A 1_555 1_555
H12A C12A 1_555 1_555
H13A C12A 1_555 1_555
C13A C12A 1_555 1_555
H14A C13A 1_555 1_555
H15A C13A 1_555 1_555
N4A Mn3A 1_555 1_555
H16A N4A 1_555 1_555
C14A N4A 1_555 1_555
H17A C14A 1_555 1_555
H18A C14A 1_555 1_555
C15A N1A 1_555 1_555
H19A C15A 1_555 1_555
H20A C15A 1_555 1_555
Mn4A O16A 1_555 1_555
O16A Mn4 1_555 1_555
N5A Mn4A 1_555 1_555
H21A N5A 1_555 1_555
C16A N5A 1_555 1_555
H22A C16A 1_555 1_555
H23A C16A 1_555 1_555
C17A C16A 1_555 1_555
H24A C17A 1_555 1_555
N6A Mn4A 1_555 1_555
H25A N6A 1_555 1_555
C18A N6A 1_555 1_555
H26A C18A 1_555 1_555
H27A C18A 1_555 1_555
C19A C18A 1_555 1_555
H28A C19A 1_555 1_555
H29A C19A 1_555 1_555
N7A Mn4A 1_555 1_555
H30A N7A 1_555 1_555
C20A N7A 1_555 1_555
H31A C20A 1_555 1_555
H32A C20A 1_555 1_555
C21A C20A 1_555 1_555
H33A C21A 1_555 1_555
H34A C21A 1_555 1_555
N8A Mn4A 1_555 1_555
H35A N8A 1_555 1_555
C22A N8A 1_555 1_555
H36A C22A 1_555 1_555
H37A C22A 1_555 1_555
C23A N5A 1_555 1_555
H38A C23A 1_555 1_555
H39A C23A 1_555 1_555
C3 O5 1_555 1_555
C3 O6 1_555 1_555
C5 O9 1_555 1_555
O10 Mn2_2 1_555 1_555
C7 O13 1_555 1_555
C9 N2 1_555 1_555
C11 N3 1_555 1_555
C13 N4 1_555 1_555
C14 C15 1_555 1_555
C17 N6 1_555 1_555
C19 N7 1_555 1_555
C21 N8 1_555 1_555
C22 C23 1_555 1_555
C1A O2A 1_555 1_555
C3A O5A 1_555 1_555
C3A O6A 1_555 1_555
C5_2 O9_2 1_555 1_555
C5_2 O10_2 1_555 1_555
C7_2 O13_2 1_555 1_555
C9A N2A 1_555 1_555
C11A N3A 1_555 1_555
C13A N4A 1_555 1_555
C14A C15A 1_555 1_555
C17A N6A 1_555 1_555
C19A N7A 1_555 1_555
C21A N8A 1_555 1_555
C22A C23A 1_555 1_555

#END
