
#######################################################################
#
#                 Cambridge Crystallographic Data Centre
#                                CCDC 
#
#######################################################################
#
# If this CIF has been generated from an entry in the Cambridge 
# Structural Database, then it will include bibliographic, chemical, 
# crystal, experimental, refinement or atomic coordinate data resulting 
# from the CCDC's data processing and validation procedures.
#
#######################################################################

data_EGIMUD
_symmetry_cell_setting           monoclinic
_symmetry_space_group_name_H-M   'C 2/c'
_symmetry_Int_Tables_number      15
_space_group_name_Hall           '-C 2yn'
loop_
_symmetry_equiv_pos_site_id
_symmetry_equiv_pos_as_xyz
1 x,y,z
2 1/2+x,1/2+y,z
3 -x,y,1/2-z
4 1/2-x,1/2+y,1/2-z
5 -x,-y,-z
6 1/2-x,1/2-y,-z
7 x,-y,1/2+z
8 1/2+x,1/2-y,1/2+z
_cell_length_a                   13.2701(13)
_cell_length_b                   7.9050(8)
_cell_length_c                   22.428(2)
_cell_angle_alpha                90
_cell_angle_beta                 98.773(3)
_cell_angle_gamma                90
_cell_volume                     2325.17
loop_
_atom_site_label
_atom_site_type_symbol
_atom_site_fract_x
_atom_site_fract_y
_atom_site_fract_z
Ba1 Ba 0.33451(3) 0.86724(5) 0.767553(19)
S1 S 0.36333(14) 1.1586(2) 0.99269(8)
S2 S 0.38421(14) 0.6404(2) 0.98713(8)
O1 O 0.2933(4) 1.1711(6) 0.8173(2)
O2 O 0.3116(6) 1.3681(7) 0.8893(3)
O3 O 0.4276(5) 0.4376(7) 1.0960(3)
O4 O 0.4466(5) 0.6450(6) 1.1639(2)
O5 O 0.5000 1.1038(9) 0.7500
O6 O 0.3766(4) 0.5107(7) 0.7590(2)
O7 O 0.5416(4) 0.8297(7) 0.8309(3)
O8 O 0.2229(4) 0.6238(7) 0.8235(2)
N1 N 0.3447(4) 0.9261(7) 0.9086(3)
N2 N 0.4040(4) 0.8773(7) 1.0696(2)
C1 C 0.3121(6) 1.2206(9) 0.8706(4)
C2 C 0.3393(5) 1.0890(9) 0.9185(3)
C3 C 0.3686(5) 0.8484(8) 0.9645(3)
C4 C 0.3821(5) 0.9525(9) 1.0139(3)
C5 C 0.4084(5) 0.7137(9) 1.0615(3)
C6 C 0.4292(5) 0.5869(9) 1.1107(3)
H1 H 0.479(5) 1.165(9) 0.7207(10)
H2 H 0.410(5) 0.511(4) 0.7908(16)
H3 H 0.181(5) 0.671(11) 0.840(3)
H4 H 0.255(6) 0.562(10) 0.848(3)
H5 H 0.567(7) 0.754(11) 0.853(4)
H6 H 0.407(5) 0.484(4) 0.733(2)
H7 H 0.553(8) 0.916(10) 0.850(4)
Ba1C Ba 0.16549(3) 0.36724(5) 0.732447(19)
Ba1C_2 Ba 0.16549(3) 1.36724(5) 0.732447(19)
Ba1B Ba 0.66549(3) 0.86724(5) 0.732447(19)
S1C S 0.13667(14) 0.6586(2) 0.50731(8)
S2C S 0.11579(14) 0.1404(2) 0.51287(8)
O1C O 0.2067(4) 0.6711(6) 0.6827(2)
O1_2 O 0.2933(4) 0.1711(6) 0.8173(2)
O2C O 0.1884(6) 0.8681(7) 0.6107(3)
O3C O 0.0724(5) -0.0624(7) 0.4040(3)
O4C O 0.0534(5) 0.1450(6) 0.3361(2)
O5A O 0.0000 0.6038(9) 0.7500
O6C O 0.1234(4) 1.0107(7) 0.7410(2)
O6C_2 O 0.1234(4) 0.0107(7) 0.7410(2)
O7B O 0.4584(4) 0.8297(7) 0.6691(3)
O7C O -0.0416(4) 0.3297(7) 0.6691(3)
O7A O 0.0416(4) 0.3297(7) 0.8309(3)
O8C O 0.2771(4) 1.1238(7) 0.6765(2)
O8C_2 O 0.2771(4) 0.1238(7) 0.6765(2)
N1C N 0.1553(4) 0.4261(7) 0.5914(3)
N2C N 0.0960(4) 0.3773(7) 0.4304(2)
C1C C 0.1879(6) 0.7206(9) 0.6294(4)
C2C C 0.1607(5) 0.5890(9) 0.5815(3)
C3C C 0.1314(5) 0.3484(8) 0.5355(3)
C4C C 0.1179(5) 0.4525(9) 0.4861(3)
C5C C 0.0916(5) 0.2137(9) 0.4385(3)
C6C C 0.0708(5) 0.0869(9) 0.3893(3)
H1B H 0.521(5) 1.165(9) 0.7793(10)
H1C H 0.021(5) 0.665(9) 0.7793(10)
H1A H -0.021(5) 0.665(9) 0.7207(10)
H2C H 0.090(5) 1.011(4) 0.7092(16)
H2C_2 H 0.090(5) 0.011(4) 0.7092(16)
H3C H 0.319(5) 1.171(11) 0.660(3)
H3C_2 H 0.319(5) 0.171(11) 0.660(3)
H4C H 0.245(6) 1.062(10) 0.652(3)
H4C_2 H 0.245(6) 0.062(10) 0.652(3)
H5B H 0.433(7) 0.754(11) 0.647(4)
H5C H -0.067(7) 0.254(11) 0.647(4)
H5A H 0.067(7) 0.254(11) 0.853(4)
H6C H 0.093(5) 0.984(4) 0.767(2)
H6C_2 H 0.093(5) -0.016(4) 0.767(2)
H7B H 0.447(8) 0.916(10) 0.650(4)
H7C H -0.053(8) 0.416(10) 0.650(4)
H7A H 0.053(8) 0.416(10) 0.850(4)
loop_
_geom_bond_atom_site_label_1
_geom_bond_atom_site_label_2
_geom_bond_site_symmetry_1
_geom_bond_site_symmetry_2
Ba1 O1 1_555 1_555
S1 C2 1_555 1_555
S2 C3 1_555 1_555
O1 C1 1_555 1_555
O2 C1 1_555 1_555
O3 C6 1_555 1_555
O4 C6 1_555 1_555
O5 Ba1 1_555 1_555
O6 Ba1 1_555 1_555
O7 Ba1 1_555 1_555
O8 Ba1 1_555 1_555
N1 Ba1 1_555 1_555
N2 C4 1_555 1_555
C1 C2 1_555 1_555
C2 N1 1_555 1_555
C3 N1 1_555 1_555
C4 S1 1_555 1_555
C5 S2 1_555 1_555
C6 C5 1_555 1_555
H1 O5 1_555 1_555
H2 O6 1_555 1_555
H3 O8 1_555 1_555
H4 O8 1_555 1_555
H5 O7 1_555 1_555
H6 O6 1_555 1_555
H7 O7 1_555 1_555
Ba1C O6 1_555 1_555
Ba1C_2 O1 1_555 1_555
Ba1B O5 1_555 1_555
S1C C2C 1_555 1_555
S2C C3C 1_555 1_555
O1C Ba1 1_555 1_555
O1_2 Ba1C 1_555 1_555
O2C C1C 1_555 1_555
O3C C6C 1_555 1_555
O4C C6C 1_555 1_555
O5A Ba1C 1_555 1_555
O6C Ba1 1_555 1_555
O6C_2 Ba1C 1_555 1_555
O7B Ba1 1_555 1_555
O7C Ba1C 1_555 1_555
O7A Ba1C 1_555 1_555
O8C Ba1 1_555 1_555
O8C_2 Ba1C 1_555 1_555
N1C Ba1C 1_555 1_555
N2C C4C 1_555 1_555
C1C O1C 1_555 1_555
C2C N1C 1_555 1_555
C3C N1C 1_555 1_555
C4C S1C 1_555 1_555
C5C S2C 1_555 1_555
C6C C5C 1_555 1_555
H1B O5 1_555 1_555
H1C O5A 1_555 1_555
H1A O5A 1_555 1_555
H2C O6C 1_555 1_555
H2C_2 O6C_2 1_555 1_555
H3C O8C 1_555 1_555
H3C_2 O8C_2 1_555 1_555
H4C O8C 1_555 1_555
H4C_2 O8C_2 1_555 1_555
H5B O7B 1_555 1_555
H5C O7C 1_555 1_555
H5A O7A 1_555 1_555
H6C O6C 1_555 1_555
H6C_2 O6C_2 1_555 1_555
H7B O7B 1_555 1_555
H7C O7C 1_555 1_555
H7A O7A 1_555 1_555
O7 Ba1B 1_555 1_555
O8 Ba1C 1_555 1_555
N2 C5 1_555 1_555
C3 C4 1_555 1_555
Ba1C O1C 1_555 1_555
Ba1C_2 O6C 1_555 1_555
Ba1C_2 O8C 1_555 1_555
Ba1B O7B 1_555 1_555
N2C C5C 1_555 1_555
C1C C2C 1_555 1_555
C3C C4C 1_555 1_555

#END
