
#######################################################################
#
#                 Cambridge Crystallographic Data Centre
#                                CCDC 
#
#######################################################################
#
# If this CIF has been generated from an entry in the Cambridge 
# Structural Database, then it will include bibliographic, chemical, 
# crystal, experimental, refinement or atomic coordinate data resulting 
# from the CCDC's data processing and validation procedures.
#
#######################################################################

data_EGIMEN
_symmetry_cell_setting           triclinic
_symmetry_space_group_name_H-M   'P -1'
_symmetry_Int_Tables_number      2
_space_group_name_Hall           '-P 1'
loop_
_symmetry_equiv_pos_site_id
_symmetry_equiv_pos_as_xyz
1 x,y,z
2 -x,-y,-z
_cell_length_a                   5.032(5)
_cell_length_b                   7.426(8)
_cell_length_c                   7.877(9)
_cell_angle_alpha                85.27(2)
_cell_angle_beta                 85.17(2)
_cell_angle_gamma                73.33(2)
_cell_volume                     280.448
loop_
_atom_site_label
_atom_site_type_symbol
_atom_site_fract_x
_atom_site_fract_y
_atom_site_fract_z
Mg1 Mg 0.5000 0.0000 0.0000
S1 S 0.2224(4) 0.2239(3) 0.4671(3)
O1 O 0.2180(10) 0.2518(7) -0.0489(7)
O2 O 0.2284(11) -0.0815(7) 0.1732(7)
O3 O 0.7455(10) 0.3956(7) 0.1466(7)
O4 O 0.6642(10) 0.1152(6) 0.1988(6)
N1 N 0.2418(12) 0.5586(8) 0.3396(7)
C1 C -0.0218(14) 0.4193(9) 0.5417(9)
C2 C 0.3629(14) 0.3768(10) 0.3310(9)
C3 C 0.6111(16) 0.2913(10) 0.2137(10)
H1 H 0.079(12) 0.003(7) 0.175(10)
H2 H 0.238(16) -0.171(7) 0.244(9)
H3 H 0.063(11) 0.271(12) -0.006(10)
H4 H 0.278(14) 0.336(9) -0.091(10)
Mg1_2 Mg -0.5000 1.0000 1.0000
S1A S -0.2224(4) 0.7761(3) 0.5329(3)
O1A O 0.7820(10) -0.2518(7) 0.0489(7)
O2A O 0.7716(11) 0.0815(7) -0.1732(7)
O3A O -0.7455(10) 0.6044(7) 0.8534(7)
O4A O -0.6642(10) 0.8848(6) 0.8012(6)
O4A_2 O 0.3358(10) -0.1152(6) -0.1988(6)
N1A N -0.2418(12) 0.4414(8) 0.6604(7)
C1A C 0.0218(14) 0.5807(9) 0.4583(9)
C2A C -0.3629(14) 0.6232(10) 0.6690(9)
C3A C -0.6111(16) 0.7087(10) 0.7863(10)
H1A H 0.921(12) -0.003(7) -0.175(10)
H2A H 0.762(16) 0.171(7) -0.244(9)
H3A H 0.937(11) -0.271(12) 0.006(10)
H4A H 0.722(14) -0.336(9) 0.091(10)
loop_
_geom_bond_atom_site_label_1
_geom_bond_atom_site_label_2
_geom_bond_site_symmetry_1
_geom_bond_site_symmetry_2
Mg1 O1 1_555 1_555
S1 C1 1_555 1_555
O1 H3 1_555 1_555
O2 Mg1 1_555 1_555
O3 C3 1_555 1_555
O4 Mg1 1_555 1_555
N1 C2 1_555 1_555
C1 N1A 1_555 1_555
C2 S1 1_555 1_555
C3 O4 1_555 1_555
H1 O2 1_555 1_555
H2 O2 1_555 1_555
H4 O1 1_555 1_555
Mg1_2 O4A 1_555 1_555
S1A C1A 1_555 1_555
O1A Mg1 1_555 1_555
O2A Mg1 1_555 1_555
O3A C3A 1_555 1_555
O4A C3A 1_555 1_555
O4A_2 Mg1 1_555 1_555
N1A C2A 1_555 1_555
C1A N1 1_555 1_555
C2A S1A 1_555 1_555
C3A C2A 1_555 1_555
H1A O2A 1_555 1_555
H2A O2A 1_555 1_555
H3A O1A 1_555 1_555
H4A O1A 1_555 1_555
C1 C1A 1_555 1_555
C2 C3 1_555 1_555

#END
