
#######################################################################
#
#                 Cambridge Crystallographic Data Centre
#                                CCDC 
#
#######################################################################
#
# If this CIF has been generated from an entry in the Cambridge 
# Structural Database, then it will include bibliographic, chemical, 
# crystal, experimental, refinement or atomic coordinate data resulting 
# from the CCDC's data processing and validation procedures.
#
#######################################################################

data_EGIQUI
_symmetry_cell_setting           orthorhombic
_symmetry_space_group_name_H-M   'P n m a'
_symmetry_Int_Tables_number      62
_space_group_name_Hall           '-P 2ac 2n'
loop_
_symmetry_equiv_pos_site_id
_symmetry_equiv_pos_as_xyz
1 x,y,z
2 1/2-x,-y,1/2+z
3 -x,1/2+y,-z
4 1/2+x,1/2-y,1/2-z
5 -x,-y,-z
6 1/2+x,y,1/2-z
7 x,1/2-y,z
8 1/2-x,1/2+y,1/2+z
_cell_length_a                   11.8428(3)
_cell_length_b                   19.9023(5)
_cell_length_c                   26.1585(5)
_cell_angle_alpha                90
_cell_angle_beta                 90
_cell_angle_gamma                90
_cell_volume                     6165.53
loop_
_atom_site_label
_atom_site_type_symbol
_atom_site_fract_x
_atom_site_fract_y
_atom_site_fract_z
Ag1 Ag 0.38641(3) 0.00941(2) 0.328169(13)
S1 S 1.10254(8) -0.06543(6) 0.59679(4)
S2 S 1.07143(9) 0.09997(6) 0.60416(4)
S3 S 0.49440(9) -0.08251(6) 0.38088(4)
S4 S 0.44948(8) 0.08614(6) 0.40119(4)
S5 S 0.88007(9) -0.06625(5) 0.54130(4)
S6 S 0.85056(9) 0.08018(5) 0.55011(4)
S7 S 0.65994(8) -0.07183(5) 0.46552(4)
S8 S 0.62674(8) 0.07288(5) 0.48109(4)
C1 C 1.0365(4) -0.1313(2) 0.63375(15)
H1 H 0.9895 -0.1579 0.6111
H2 H 1.0950 -0.1606 0.6471
C2 C 0.9652(4) -0.1072(2) 0.67771(15)
H3 H 0.9033 -0.0807 0.6641
H4 H 0.9327 -0.1460 0.6946
C3 C 1.0241(4) -0.0672(2) 0.71560(15)
C4 C 0.9894(4) 0.1528(2) 0.64609(16)
H5 H 1.0347 0.1916 0.6552
H6 H 0.9242 0.1690 0.6274
C5 C 0.9487(4) 0.1198(2) 0.69471(16)
H7 H 1.0121 0.0980 0.7112
H8 H 0.9209 0.1543 0.7177
C6 C 0.8595(4) 0.0703(2) 0.68658(15)
C7 C 0.6103(4) -0.1157(3) 0.34268(18)
H9 H 0.6598 -0.1416 0.3647
H10 H 0.5798 -0.1460 0.3172
C8 C 0.6787(4) -0.0623(3) 0.31616(18)
H11 H 0.7382 -0.0830 0.2968
H12 H 0.7108 -0.0326 0.3412
H13 H 0.6308 -0.0371 0.2936
C9 C 0.5363(4) 0.1545(2) 0.3785(2)
H14 H 0.4876 0.1883 0.3634
H15 H 0.5739 0.1748 0.4075
C10 C 0.6233(4) 0.1352(3) 0.3401(2)
H16 H 0.6652 0.1744 0.3301
H17 H 0.5871 0.1160 0.3107
H18 H 0.6738 0.1028 0.3549
C11 C 0.9845(3) -0.0215(2) 0.57453(13)
C12 C 0.9709(3) 0.0452(2) 0.57865(13)
C13 C 0.5672(3) -0.0304(2) 0.42352(13)
C14 C 0.5504(3) 0.0354(2) 0.43116(13)
C15 C 0.8000(3) 0.00445(19) 0.52471(13)
C16 C 0.7091(3) 0.00187(19) 0.49425(14)
N1 N 1.0670(4) -0.0373(2) 0.74679(14)
N2 N 0.7904(3) 0.0321(2) 0.68051(13)
Ag1A Ag 1.11359(3) -0.00941(2) 0.828169(13)
Ag1D Ag 0.61359(3) -0.00941(2) 0.671831(13)
N1A N 0.4330(4) 0.0373(2) 0.24679(14)
N2D N 0.2096(3) -0.0321(2) 0.31949(13)
S9 S 0.25189(18) 0.2500 0.32124(11)
C17 C 0.3413(9) 0.2500 0.2665(3)
O1 O 0.2845(5) 0.1896(6) 0.3431(4)
O2 O 0.1400(5) 0.2500 0.3022(4)
F1 F 0.3189(6) 0.1989(5) 0.2394(3)
F2 F 0.4468(4) 0.2500 0.2762(2)
O1F O 0.2845(5) 0.3104(6) 0.3431(4)
F1F F 0.3189(6) 0.3011(5) 0.2394(3)
C18 C 0.6677(7) 0.2500 0.6723(5)
O3 O 0.6454(7) 0.1897(7) 0.7529(5)
O4 O 0.8170(5) 0.2500 0.7431(2)
F3 F 0.7087(5) 0.1958(4) 0.6536(3)
F4 F 0.5582(5) 0.2500 0.6626(3)
S10 S 0.6982(2) 0.2500 0.74065(12)
O3F O 0.6454(7) 0.3103(7) 0.7529(5)
F3F F 0.7087(5) 0.3042(4) 0.6536(3)
O5 O 1.2276(9) -0.2500 0.5756(3)
C19 C 1.1997(12) -0.2500 0.5316(5)
C20 C 1.0781(11) -0.2500 0.5177(4)
H19 H 1.0332 -0.2500 0.5483
H20 H 1.0613 -0.2894 0.4980
C21 C 1.2812(11) -0.2500 0.4885(6)
H21 H 1.3568 -0.2500 0.5018
H22 H 1.2697 -0.2106 0.4680
H20F H 1.0613 -0.2106 0.4980
H22F H 1.2697 -0.2894 0.4680
O6 O 0.724(2) -0.2500 0.4237(6)
C22 C 0.697(2) -0.2500 0.4681(8)
C23 C 0.774(2) -0.2500 0.5037(8)
H25 H 0.8472 -0.2500 0.4882
H26 H 0.7654 -0.2894 0.5245
C24 C 0.579(2) -0.2500 0.4773(15)
H27 H 0.5392 -0.2500 0.4453
H28 H 0.5588 -0.2106 0.4965
H26F H 0.7654 -0.2106 0.5245
H28F H 0.5588 -0.2894 0.4965
H23? H 1.0613 -0.2894 0.4980
H24? H 1.2697 -0.2106 0.4680
H29? H 0.7654 -0.2894 0.5245
H30? H 0.5588 -0.2106 0.4965
loop_
_geom_bond_atom_site_label_1
_geom_bond_atom_site_label_2
_geom_bond_site_symmetry_1
_geom_bond_site_symmetry_2
Ag1 S3 1_555 1_555
S1 C1 1_555 1_555
S2 C4 1_555 1_555
S3 C7 1_555 1_555
S4 Ag1 1_555 1_555
S5 C11 1_555 1_555
S6 C12 1_555 1_555
S7 C13 1_555 1_555
S8 C14 1_555 1_555
C1 H1 1_555 1_555
H2 C1 1_555 1_555
C2 C1 1_555 1_555
H3 C2 1_555 1_555
H4 C2 1_555 1_555
C3 C2 1_555 1_555
C4 H5 1_555 1_555
H6 C4 1_555 1_555
C5 C4 1_555 1_555
H7 C5 1_555 1_555
H8 C5 1_555 1_555
C6 C5 1_555 1_555
C7 H9 1_555 1_555
H10 C7 1_555 1_555
C8 C7 1_555 1_555
H11 C8 1_555 1_555
H12 C8 1_555 1_555
H13 C8 1_555 1_555
C9 S4 1_555 1_555
H14 C9 1_555 1_555
H15 C9 1_555 1_555
C10 C9 1_555 1_555
H16 C10 1_555 1_555
H17 C10 1_555 1_555
H18 C10 1_555 1_555
C11 S1 1_555 1_555
C12 S2 1_555 1_555
C13 S3 1_555 1_555
C14 S4 1_555 1_555
C15 S5 1_555 1_555
C16 S7 1_555 1_555
N1 C3 1_555 1_555
N2 C6 1_555 1_555
S9 C17 1_555 1_555
C17 F1 1_555 1_555
O1 S9 1_555 1_555
O2 S9 1_555 1_555
F2 C17 1_555 1_555
C18 F3 1_555 1_555
O3 S10 1_555 1_555
O4 S10 1_555 1_555
F4 C18 1_555 1_555
S10 C18 1_555 1_555
O5 C19 1_555 1_555
C19 C20 1_555 1_555
C20 H19 1_555 1_555
H20 C20 1_555 1_555
C21 C19 1_555 1_555
H21 C21 1_555 1_555
H22 C21 1_555 1_555
O6 C22 1_555 1_555
C22 C23 1_555 1_555
C23 H25 1_555 1_555
H26 C23 1_555 1_555
C24 C22 1_555 1_555
H27 C24 1_555 1_555
H28 C24 1_555 1_555
Ag1A N1 1_555 1_555
Ag1D N2 1_555 1_555
N1A Ag1 1_555 1_555
N2D Ag1 1_555 1_555
O1F S9 1_555 1_555
F1F C17 1_555 1_555
O3F S10 1_555 1_555
F3F C18 1_555 1_555
H20F C20 1_555 1_555
H22F C21 1_555 1_555
H26F C23 1_555 1_555
H28F C24 1_555 1_555
S6 C15 1_555 1_555
S8 C16 1_555 1_555
C11 C12 1_555 1_555
C13 C14 1_555 1_555
C15 C16 1_555 1_555

#END
