
#######################################################################
#
#                 Cambridge Crystallographic Data Centre
#                                CCDC 
#
#######################################################################
#
# If this CIF has been generated from an entry in the Cambridge 
# Structural Database, then it will include bibliographic, chemical, 
# crystal, experimental, refinement or atomic coordinate data resulting 
# from the CCDC's data processing and validation procedures.
#
#######################################################################

data_EGIROD
_symmetry_cell_setting           monoclinic
_symmetry_space_group_name_H-M   'C c'
_symmetry_Int_Tables_number      9
_space_group_name_Hall           'C -2yc'
loop_
_symmetry_equiv_pos_site_id
_symmetry_equiv_pos_as_xyz
1 x,y,z
2 x,-y,1/2+z
3 1/2+x,1/2+y,z
4 1/2+x,1/2-y,1/2+z
_cell_length_a                   10.113(2)
_cell_length_b                   15.561(3)
_cell_length_c                   8.7481(17)
_cell_angle_alpha                90
_cell_angle_beta                 121.19(3)
_cell_angle_gamma                90
_cell_volume                     1177.68
loop_
_atom_site_label
_atom_site_type_symbol
_atom_site_fract_x
_atom_site_fract_y
_atom_site_fract_z
O1 O -0.1107(5) 0.7696(2) 0.2259(6)
Mn1 Mn 0.45058(8) 0.86167(5) 0.82470(9)
N1 N 0.2042(5) 0.7965(3) 1.0821(6)
C1 C 0.1257(6) 0.8423(3) 0.8266(7)
N2 N 0.2832(6) 0.8429(3) 0.9169(7)
N3 N 0.0723(5) 0.8134(3) 0.9287(6)
N4 N 0.3282(5) 0.8132(3) 1.0789(6)
N5 N 0.2227(5) 0.9071(3) 0.5855(6)
N6 N 0.0302(5) 0.8667(3) 0.6550(6)
H1 H -0.0677 0.8625 0.6119
C2 C 0.0779(6) 0.8972(3) 0.5456(7)
N7 N 0.2148(6) 0.9396(3) 0.4365(6)
N8 N -0.0165(5) 0.9230(3) 0.3772(6)
N9 N 0.0729(6) 0.9479(3) 0.3103(7)
O2 O 0.2237(4) 0.6216(2) 1.0811(5)
C3 C -0.2193(7) 0.8222(4) 0.1742(8)
C4 C 0.2022(7) 0.7483(4) 1.2221(8)
H2 H 0.1225 0.7709 1.2413
H3 H 0.3009 0.7543 1.3326
C5 C 0.1706(7) 0.6533(4) 1.1709(8)
C6 C -0.1817(7) 0.9112(4) 0.2585(9)
H4 H -0.2208 0.9543 0.1650
H5 H -0.2331 0.9191 0.3253
O3 O 0.0956(6) 0.6134(3) 1.2216(7)
O4 O -0.3586(4) 0.8077(3) 0.0605(5)
O5 O 0.4767(5) 0.9973(3) 0.9053(7)
H6 H 0.559(8) 1.025(4) 0.909(8)
H7 H 0.462(7) 1.001(4) 1.006(8)
O1C O 0.3893(5) 0.7304(2) 0.7259(6)
Mn1_2 Mn -0.54942(8) 0.86167(5) -0.17530(9)
Mn1C Mn -0.04942(8) 0.63833(5) 0.32470(9)
Mn1C_2 Mn -0.04942(8) 0.63833(5) 1.32470(9)
O3C O 0.5956(6) 0.8866(3) 0.7216(7)
O4_2 O 0.6414(4) 0.8077(3) 1.0605(5)
loop_
_geom_bond_atom_site_label_1
_geom_bond_atom_site_label_2
_geom_bond_site_symmetry_1
_geom_bond_site_symmetry_2
O1 C3 1_555 1_555
Mn1 N2 1_555 1_555
N1 N3 1_555 1_555
C1 N2 1_555 1_555
N2 N4 1_555 1_555
N3 C1 1_555 1_555
N4 N1 1_555 1_555
N5 Mn1 1_555 1_555
N6 C1 1_555 1_555
H1 N6 1_555 1_555
C2 N5 1_555 1_555
N7 N5 1_555 1_555
N8 C2 1_555 1_555
N9 N7 1_555 1_555
O2 C5 1_555 1_555
C3 C6 1_555 1_555
C4 N1 1_555 1_555
H2 C4 1_555 1_555
H3 C4 1_555 1_555
C5 C4 1_555 1_555
C6 N8 1_555 1_555
H4 C6 1_555 1_555
H5 C6 1_555 1_555
O3 C5 1_555 1_555
O4 C3 1_555 1_555
O5 Mn1 1_555 1_555
H6 O5 1_555 1_555
H7 O5 1_555 1_555
O1C Mn1 1_555 1_555
Mn1_2 O4 1_555 1_555
Mn1C O1 1_555 1_555
Mn1C_2 O3 1_555 1_555
O3C Mn1 1_555 1_555
O4_2 Mn1 1_555 1_555
N6 C2 1_555 1_555
N8 N9 1_555 1_555

#END
