
#######################################################################
#
#                 Cambridge Crystallographic Data Centre
#                                CCDC 
#
#######################################################################
#
# If this CIF has been generated from an entry in the Cambridge 
# Structural Database, then it will include bibliographic, chemical, 
# crystal, experimental, refinement or atomic coordinate data resulting 
# from the CCDC's data processing and validation procedures.
#
#######################################################################

data_EGIRET
_symmetry_cell_setting           orthorhombic
_symmetry_space_group_name_H-M   'P b c a'
_symmetry_Int_Tables_number      61
_space_group_name_Hall           '-P 2ac 2ab'
loop_
_symmetry_equiv_pos_site_id
_symmetry_equiv_pos_as_xyz
1 x,y,z
2 1/2-x,-y,1/2+z
3 -x,1/2+y,1/2-z
4 1/2+x,1/2-y,-z
5 -x,-y,-z
6 1/2+x,y,1/2-z
7 x,1/2-y,1/2+z
8 1/2-x,1/2+y,z
_cell_length_a                   14.1640(5)
_cell_length_b                   13.8318(4)
_cell_length_c                   14.7175(4)
_cell_angle_alpha                90
_cell_angle_beta                 90
_cell_angle_gamma                90
_cell_volume                     2883.36
loop_
_atom_site_label
_atom_site_type_symbol
_atom_site_fract_x
_atom_site_fract_y
_atom_site_fract_z
Ag1 Ag 0.915848(14) 0.484509(15) 0.418511(13)
S1 S 0.91138(4) 0.49163(4) 0.23911(4)
S2 S 0.75014(4) 0.53549(4) 0.11236(4)
S3 S 0.63380(4) 0.62145(4) 0.24791(4)
S4 S 0.56052(4) 0.61392(4) 0.06006(4)
S5 S 0.76794(4) 0.59395(4) 0.40039(4)
C1 C 0.91219(17) 0.38130(18) 0.17036(19)
H1 H 0.9448 0.3306 0.2033
H2 H 0.8477 0.3602 0.1603
C2 C 0.79763(14) 0.53765(15) 0.22094(14)
C3 C 0.81927(19) 0.71545(18) 0.40368(17)
H3 H 0.8541 0.7232 0.4600
H4 H 0.8636 0.7222 0.3539
C4 C 0.9596(2) 0.3964(3) 0.0804(2)
H5 H 0.9585 0.3372 0.0465
H6 H 1.0238 0.4161 0.0901
H7 H 0.9268 0.4458 0.0471
C5 C 0.7468(2) 0.7938(2) 0.3970(2)
H8 H 0.7774 0.8557 0.3990
H9 H 0.7035 0.7885 0.4470
H10 H 0.7129 0.7875 0.3408
C6 C 0.74297(15) 0.58016(16) 0.28440(14)
C7 C 0.64500(14) 0.58909(15) 0.13737(14)
Ag1A Ag 0.584152(14) 0.515491(15) -0.081489(13)
Ag1E Ag 0.415848(14) 0.484509(15) 0.081489(13)
S4A S 0.93948(4) 0.38608(4) 0.56006(4)
S4E S 1.06052(4) 0.61392(4) 0.43994(4)
Cl1 Cl 1.11225(4) 0.30980(4) 0.33332(4)
O1 O 1.11978(17) 0.38019(15) 0.26182(13)
O2 O 1.07176(17) 0.3581(2) 0.40949(15)
O3 O 1.20319(13) 0.27447(15) 0.35835(16)
O4 O 1.05553(17) 0.23204(17) 0.30361(19)
loop_
_geom_bond_atom_site_label_1
_geom_bond_atom_site_label_2
_geom_bond_site_symmetry_1
_geom_bond_site_symmetry_2
Ag1 S1 1_555 1_555
S1 C1 1_555 1_555
S2 C2 1_555 1_555
S3 C6 1_555 1_555
S4 C7 1_555 1_555
S5 Ag1 1_555 1_555
C1 H1 1_555 1_555
H2 C1 1_555 1_555
C2 S1 1_555 1_555
C3 S5 1_555 1_555
H3 C3 1_555 1_555
H4 C3 1_555 1_555
C4 C1 1_555 1_555
H5 C4 1_555 1_555
H6 C4 1_555 1_555
H7 C4 1_555 1_555
C5 C3 1_555 1_555
H8 C5 1_555 1_555
H9 C5 1_555 1_555
H10 C5 1_555 1_555
C6 S5 1_555 1_555
C7 S2 1_555 1_555
Cl1 O1 1_555 1_555
O2 Cl1 1_555 1_555
O3 Cl1 1_555 1_555
O4 Cl1 1_555 1_555
Ag1A S4 1_555 1_555
Ag1E S4 1_555 1_555
S4A Ag1 1_555 1_555
S4E Ag1 1_555 1_555
S3 C7 1_555 1_555
C2 C6 1_555 1_555

#END
