
#######################################################################
#
#                 Cambridge Crystallographic Data Centre
#                                CCDC 
#
#######################################################################
#
# If this CIF has been generated from an entry in the Cambridge 
# Structural Database, then it will include bibliographic, chemical, 
# crystal, experimental, refinement or atomic coordinate data resulting 
# from the CCDC's data processing and validation procedures.
#
#######################################################################

data_EGIRAO
_symmetry_cell_setting           monoclinic
_symmetry_space_group_name_H-M   'P 21/c'
_symmetry_Int_Tables_number      14
_space_group_name_Hall           '-P 2ybc'
loop_
_symmetry_equiv_pos_site_id
_symmetry_equiv_pos_as_xyz
1 x,y,z
2 -x,1/2+y,1/2-z
3 -x,-y,-z
4 x,1/2-y,1/2+z
_cell_length_a                   11.1406(5)
_cell_length_b                   17.0449(6)
_cell_length_c                   9.6215(4)
_cell_angle_alpha                90
_cell_angle_beta                 96.9970(10)
_cell_angle_gamma                90
_cell_volume                     1813.42
loop_
_atom_site_label
_atom_site_type_symbol
_atom_site_fract_x
_atom_site_fract_y
_atom_site_fract_z
Cd1 Cd 0.61122(4) -0.29972(2) -0.37182(5)
O1 O 0.4557(4) -0.2183(2) -0.3761(5)
O2 O 0.4007(4) -0.3120(2) -0.5262(5)
O3 O -0.0818(3) -0.1072(2) -0.5249(5)
O4 O -0.2368(4) -0.2175(2) -0.4259(5)
O5 O -0.3361(3) -0.2318(2) -0.6393(4)
N1 N 0.6908(4) -0.4145(3) -0.4365(6)
N2 N 0.6949(4) -0.5445(3) -0.4488(6)
N3 N 0.5154(4) -0.4123(3) -0.2626(5)
C1 C 0.7767(5) -0.4354(3) -0.5208(7)
C2 C 0.8502(6) -0.3900(3) -0.5943(8)
H1 H 0.8493 -0.3343 -0.5894
C3 C 0.9250(7) -0.4294(4) -0.6751(8)
H2 H 0.9757 -0.3998 -0.7280
C4 C 0.9284(6) -0.5110(4) -0.6817(8)
H3 H 0.9827 -0.5355 -0.7370
C5 C 0.8561(6) -0.5562(4) -0.6113(7)
H4 H 0.8573 -0.6118 -0.6176
C6 C 0.7811(5) -0.5183(3) -0.5304(6)
C7 C 0.6428(5) -0.4802(3) -0.3962(6)
C8 C 0.5471(5) -0.4829(3) -0.3068(6)
C9 C 0.4945(5) -0.5508(3) -0.2667(6)
H5 H 0.5202 -0.6000 -0.2988
C10 C 0.4052(6) -0.5481(4) -0.1808(7)
H6 H 0.3675 -0.5946 -0.1535
C11 C 0.3709(6) -0.4735(4) -0.1339(7)
H7 H 0.3100 -0.4685 -0.0735
C12 C 0.4290(5) -0.4081(3) -0.1789(7)
H8 H 0.4061 -0.3579 -0.1485
C13 C 0.3768(5) -0.2517(3) -0.4601(6)
C14 C 0.2534(5) -0.2155(3) -0.4805(7)
C15 C 0.2307(5) -0.1480(3) -0.4093(7)
H9 H 0.2934 -0.1254 -0.3462
C16 C 0.1185(5) -0.1128(3) -0.4282(7)
H10 H 0.1048 -0.0654 -0.3807
C17 C 0.0257(5) -0.1472(3) -0.5173(7)
C18 C 0.0461(5) -0.2133(3) -0.5914(7)
H11 H -0.0172 -0.2358 -0.6539
C19 C 0.1608(5) -0.2477(3) -0.5743(7)
H12 H 0.1760 -0.2931 -0.6267
C20 C -0.1829(5) -0.1355(4) -0.6130(8)
H13 H -0.1546 -0.1548 -0.7004
H14 H -0.2379 -0.0907 -0.6385
C21 C -0.2562(5) -0.2009(3) -0.5540(6)
H15 H 0.667(5) -0.5915(14) -0.447(7)
Cd1_2 Cd -0.38878(4) -0.29972(2) -0.37182(5)
Cd1C Cd -0.38878(4) -0.20028(2) -0.87182(5)
O4_2 O 0.7632(4) -0.2175(2) -0.4259(5)
O5C O 0.6639(3) -0.2682(2) -0.1393(4)
loop_
_geom_bond_atom_site_label_1
_geom_bond_atom_site_label_2
_geom_bond_site_symmetry_1
_geom_bond_site_symmetry_2
Cd1 O1 1_555 1_555
O1 C13 1_555 1_555
O2 Cd1 1_555 1_555
O3 C17 1_555 1_555
O4 C21 1_555 1_555
O5 C21 1_555 1_555
N1 Cd1 1_555 1_555
N2 C6 1_555 1_555
N3 Cd1 1_555 1_555
C1 N1 1_555 1_555
C2 C1 1_555 1_555
H1 C2 1_555 1_555
C3 C2 1_555 1_555
H2 C3 1_555 1_555
C4 C3 1_555 1_555
H3 C4 1_555 1_555
C5 C4 1_555 1_555
H4 C5 1_555 1_555
C6 C1 1_555 1_555
C7 N1 1_555 1_555
C8 N3 1_555 1_555
C9 C8 1_555 1_555
H5 C9 1_555 1_555
C10 C9 1_555 1_555
H6 C10 1_555 1_555
C11 C10 1_555 1_555
H7 C11 1_555 1_555
C12 N3 1_555 1_555
H8 C12 1_555 1_555
C13 O2 1_555 1_555
C14 C13 1_555 1_555
C15 C14 1_555 1_555
H9 C15 1_555 1_555
C16 C15 1_555 1_555
H10 C16 1_555 1_555
C17 C16 1_555 1_555
C18 C17 1_555 1_555
H11 C18 1_555 1_555
C19 C14 1_555 1_555
H12 C19 1_555 1_555
C20 O3 1_555 1_555
H13 C20 1_555 1_555
H14 C20 1_555 1_555
C21 C20 1_555 1_555
H15 N2 1_555 1_555
Cd1_2 O4 1_555 1_555
Cd1C O5 1_555 1_555
O4_2 Cd1 1_555 1_555
O5C Cd1 1_555 1_555
N2 C7 1_555 1_555
C5 C6 1_555 1_555
C7 C8 1_555 1_555
C11 C12 1_555 1_555
C18 C19 1_555 1_555

#END
