
#######################################################################
#
#                 Cambridge Crystallographic Data Centre
#                                CCDC 
#
#######################################################################
#
# If this CIF has been generated from an entry in the Cambridge 
# Structural Database, then it will include bibliographic, chemical, 
# crystal, experimental, refinement or atomic coordinate data resulting 
# from the CCDC's data processing and validation procedures.
#
#######################################################################

data_EGISEU
_symmetry_cell_setting           monoclinic
_symmetry_space_group_name_H-M   'C c'
_symmetry_Int_Tables_number      9
_space_group_name_Hall           'C -2yc'
loop_
_symmetry_equiv_pos_site_id
_symmetry_equiv_pos_as_xyz
1 x,y,z
2 x,-y,1/2+z
3 1/2+x,1/2+y,z
4 1/2+x,1/2-y,1/2+z
_cell_length_a                   13.048(3)
_cell_length_b                   14.271(3)
_cell_length_c                   8.0741(16)
_cell_angle_alpha                90
_cell_angle_beta                 105.07(3)
_cell_angle_gamma                90
_cell_volume                     1451.76
loop_
_atom_site_label
_atom_site_type_symbol
_atom_site_fract_x
_atom_site_fract_y
_atom_site_fract_z
Ca1 Ca 0.96397(16) 0.02649(8) 0.9615(2)
O1 O 1.1436(6) -0.0613(6) 1.0502(9)
N1 N 1.3224(5) -0.1257(5) 1.2911(10)
C1 C 1.1313(7) -0.0745(7) 1.1996(12)
C2 C 1.2242(7) -0.1189(8) 1.3399(14)
H1 H 1.2359 -0.0816 1.4435
H2 H 1.2033 -0.1812 1.3664
N2 N 1.4516(7) -0.1742(9) 1.2115(14)
N3 N 1.3624(7) -0.2062(6) 1.2649(12)
C3 C 1.4569(8) -0.0863(9) 1.2101(15)
N4 N 1.3789(7) -0.0535(6) 1.2593(11)
N5 N 1.5313(4) -0.0255(4) 1.1742(7)
H3 H 1.5843 -0.0539 1.1518
O2 O 0.8606(4) 0.1635(4) 0.8229(7)
H4 H 0.8863 0.1838 0.7424
H5 H 0.8657 0.2066 0.8958
O3 O 1.0654(5) 0.1577(5) 1.0966(9)
H6 H 1.0354 0.2081 1.0532
H7 H 1.0695 0.1567 1.2033
N6 N 1.4617(9) 0.1200(11) 1.2113(14)
N7 N 1.6055(6) 0.1218(5) 1.1362(10)
N8 N 1.4880(8) 0.2076(10) 1.1963(17)
N9 N 1.5722(7) 0.2087(7) 1.1580(16)
C4 C 1.5376(5) 0.0595(2) 1.1678(8)
C5 C 1.7017(7) 0.1048(7) 1.0777(14)
H8 H 1.7199 0.1612 1.0244
H9 H 1.6880 0.0553 0.9924
C6 C 1.7938(7) 0.0770(6) 1.2265(14)
O4 O 1.7819(5) 0.0600(4) 1.3704(10)
O5 O 1.8811(5) 0.0611(4) 1.1862(8)
O6 O 1.0492(5) -0.0620(6) 1.2367(10)
Ca1_2 Ca 1.96397(16) 0.02649(8) 0.9615(2)
Ca1A Ca 0.96397(16) -0.02649(8) 1.4615(2)
Ca1A_2 Ca 1.96397(16) -0.02649(8) 1.4615(2)
O4A O 0.7819(5) -0.0600(4) 0.8704(10)
O5_2 O 0.8811(5) 0.0611(4) 1.1862(8)
O5A O 0.8811(5) -0.0611(4) 0.6862(8)
O6A O 1.0492(5) 0.0620(6) 0.7367(10)
O7 O 1.2586(5) -0.1437(2) 0.8467(8)
H10 H 1.2278 -0.1248 0.9209
H11 H 1.2789 -0.0962 0.8010
O8 O 1.6687(5) -0.1447(2) 1.0745(8)
H12 H 1.6743 -0.2003 1.0402
H13 H 1.6791 -0.1143 0.9898
loop_
_geom_bond_atom_site_label_1
_geom_bond_atom_site_label_2
_geom_bond_site_symmetry_1
_geom_bond_site_symmetry_2
Ca1 O1 1_555 1_555
O1 C1 1_555 1_555
N1 C2 1_555 1_555
C1 C2 1_555 1_555
C2 H1 1_555 1_555
H2 C2 1_555 1_555
N2 N3 1_555 1_555
N3 N1 1_555 1_555
C3 N2 1_555 1_555
N4 N1 1_555 1_555
N5 C3 1_555 1_555
H3 N5 1_555 1_555
O2 Ca1 1_555 1_555
H4 O2 1_555 1_555
H5 O2 1_555 1_555
O3 Ca1 1_555 1_555
H6 O3 1_555 1_555
H7 O3 1_555 1_555
N6 N8 1_555 1_555
N7 N9 1_555 1_555
N8 N9 1_555 1_555
C4 N5 1_555 1_555
C5 N7 1_555 1_555
H8 C5 1_555 1_555
H9 C5 1_555 1_555
C6 C5 1_555 1_555
O4 C6 1_555 1_555
O5 C6 1_555 1_555
O6 Ca1 1_555 1_555
O7 H10 1_555 1_555
H11 O7 1_555 1_555
O8 H12 1_555 1_555
H13 O8 1_555 1_555
Ca1_2 O5 1_555 1_555
Ca1A O6 1_555 1_555
Ca1A_2 O4 1_555 1_555
O4A Ca1 1_555 1_555
O5_2 Ca1 1_555 1_555
O5A Ca1 1_555 1_555
O6A Ca1 1_555 1_555
C1 O6 1_555 1_555
C3 N4 1_555 1_555
N6 C4 1_555 1_555
N7 C4 1_555 1_555
O5 Ca1A_2 1_555 1_555
Ca1A O5_2 1_555 1_555

#END
