
#######################################################################
#
#                 Cambridge Crystallographic Data Centre
#                                CCDC 
#
#######################################################################
#
# If this CIF has been generated from an entry in the Cambridge 
# Structural Database, then it will include bibliographic, chemical, 
# crystal, experimental, refinement or atomic coordinate data resulting 
# from the CCDC's data processing and validation procedures.
#
#######################################################################

data_EGIXAU
_symmetry_cell_setting           monoclinic
_symmetry_space_group_name_H-M   'C 2/c'
_symmetry_Int_Tables_number      15
_space_group_name_Hall           '-C 2yn'
loop_
_symmetry_equiv_pos_site_id
_symmetry_equiv_pos_as_xyz
1 x,y,z
2 1/2+x,1/2+y,z
3 -x,y,1/2-z
4 1/2-x,1/2+y,1/2-z
5 -x,-y,-z
6 1/2-x,1/2-y,-z
7 x,-y,1/2+z
8 1/2+x,1/2-y,1/2+z
_cell_length_a                   13.1809(6)
_cell_length_b                   7.8494(5)
_cell_length_c                   9.4366(5)
_cell_angle_alpha                90
_cell_angle_beta                 129.352(4)
_cell_angle_gamma                90
_cell_volume                     754.963
loop_
_atom_site_label
_atom_site_type_symbol
_atom_site_fract_x
_atom_site_fract_y
_atom_site_fract_z
Co1 Co 0.0000 0.17921(6) 0.2500
O1 O 0.11817(18) 0.0045(3) 0.2381(2)
O2 O 0.11698(18) -0.1367(2) 0.0307(2)
O3 O 0.1197(2) 0.3667(3) 0.2746(3)
C1 C 0.0682(3) -0.0381(3) 0.0789(4)
C2 C 0.1086(4) 0.5506(4) 0.2782(6)
C3 C 0.0377(7) 0.6028(9) 0.3336(10)
H1 H 0.1963(19) 0.337(3) 0.327(4)
Co1F Co 0.0000 -0.17921(6) -0.2500
O1D O -0.11817(18) -0.0045(3) -0.2381(2)
O1B O -0.11817(18) 0.0045(3) 0.2619(2)
O2D O -0.11698(18) 0.1367(2) -0.0307(2)
O2F O 0.11698(18) 0.1367(2) 0.5307(2)
O3B O -0.1197(2) 0.3667(3) 0.2254(3)
C1D C -0.0682(3) 0.0381(3) -0.0789(4)
C2B C -0.1086(4) 0.5506(4) 0.2218(6)
C3B C -0.0377(7) 0.6028(9) 0.1664(10)
H1B H -0.1963(19) 0.337(3) 0.173(4)
loop_
_geom_bond_atom_site_label_1
_geom_bond_atom_site_label_2
_geom_bond_site_symmetry_1
_geom_bond_site_symmetry_2
Co1 O1 1_555 1_555
O1 C1 1_555 1_555
O2 C1 1_555 1_555
O3 Co1 1_555 1_555
C1 C1D 1_555 1_555
C2 O3 1_555 1_555
C3 C2 1_555 1_555
H1 O3 1_555 1_555
Co1F O2 1_555 1_555
O1D Co1F 1_555 1_555
O1B Co1 1_555 1_555
O2D Co1 1_555 1_555
O2F Co1 1_555 1_555
O3B Co1 1_555 1_555
C1D O1D 1_555 1_555
C2B C3 1_555 1_555
C3B C2 1_555 1_555
H1B O3B 1_555 1_555
C3 C3B 1_555 1_555
O2D C1D 1_555 1_555
O3B C2B 1_555 1_555
C2B C3B 1_555 1_555

#END
