
#######################################################################
#
#                 Cambridge Crystallographic Data Centre
#                                CCDC 
#
#######################################################################
#
# If this CIF has been generated from an entry in the Cambridge 
# Structural Database, then it will include bibliographic, chemical, 
# crystal, experimental, refinement or atomic coordinate data resulting 
# from the CCDC's data processing and validation procedures.
#
#######################################################################

data_EGOCEI
_symmetry_cell_setting           orthorhombic
_symmetry_space_group_name_H-M   'P c n b'
_symmetry_Int_Tables_number      60
_space_group_name_Hall           '-P 2b 2ac'
loop_
_symmetry_equiv_pos_site_id
_symmetry_equiv_pos_as_xyz
1 x,y,z
2 1/2+x,1/2-y,1/2+z
3 x,1/2+y,-z
4 1/2-x,y,1/2+z
5 -x,-y,-z
6 1/2-x,1/2+y,1/2-z
7 -x,1/2-y,z
8 1/2+x,-y,1/2-z
_cell_length_a                   14.4994(2)
_cell_length_b                   15.8128(3)
_cell_length_c                   16.6850(2)
_cell_angle_alpha                90
_cell_angle_beta                 90
_cell_angle_gamma                90
_cell_volume                     3825.47
loop_
_atom_site_label
_atom_site_type_symbol
_atom_site_fract_x
_atom_site_fract_y
_atom_site_fract_z
S1 S 0.80687(3) 0.04051(3) -0.00146(3)
O2 O 0.84458(9) -0.02321(9) 0.05144(9)
O3 O 0.82221(9) 0.12668(9) 0.02366(9)
N3 N 0.69843(10) 0.02319(10) -0.01989(10)
C11 C 0.68414(12) 0.00822(11) -0.09849(12)
O4 O 0.60738(9) -0.00656(8) -0.12910(8)
C12 C 0.77124(13) 0.01031(11) -0.14796(12)
C13 C 0.78093(15) -0.00153(12) -0.22982(13)
H11 H 0.7299 -0.0106 -0.2625
C14 C 0.87020(16) 0.00065(13) -0.26159(14)
H12 H 0.8787 -0.0066 -0.3164
C15 C 0.94651(15) 0.01352(13) -0.21260(14)
H13 H 1.0052 0.0129 -0.2351
C16 C 0.93695(14) 0.02736(12) -0.13082(13)
H14 H 0.9877 0.0372 -0.0980
C17 C 0.84743(13) 0.02569(11) -0.10042(12)
N4 N 0.0000 0.2500 0.0635(2)
C18 C 0.0605(4) 0.1861(3) 0.0642(4)
H15 H 0.075(3) 0.178(4) 0.1201(9)
H16 H 0.117(2) 0.194(3) 0.034(2)
H17 H 0.029(3) 0.137(2) 0.045(3)
C19 C -0.0355(4) 0.2833(4) -0.0146(4)
H18 H -0.077(3) 0.241(3) -0.037(3)
H19 H 0.071(3) 0.165(2) -0.008(4)
H20 H 0.012(3) 0.294(4) -0.054(3)
C20 C -0.0227(5) 0.2992(4) 0.1305(5)
H21 H 0.059(5) 0.154(3) 0.119(4)
O5 O 0.0037(5) 0.2834(4) 0.1972(3)
C20F C 0.0227(5) 0.2008(4) 0.1305(5)
C18F C -0.0605(4) 0.3139(3) 0.0642(4)
H15F H -0.075(3) 0.322(4) 0.1201(9)
H16F H -0.117(2) 0.306(3) 0.034(2)
H17F H -0.029(3) 0.363(2) 0.045(3)
H19F H -0.071(3) 0.335(2) -0.008(4)
C19F C 0.0355(4) 0.2167(4) -0.0146(4)
H18F H 0.077(3) 0.259(3) -0.037(3)
H20F H -0.012(3) 0.206(4) -0.054(3)
H21F H -0.059(5) 0.346(3) 0.119(4)
O5F O -0.0037(5) 0.2166(4) 0.1972(3)
Cu1 Cu 0.5000 0.2500 0.045543(15)
N1 N 0.59454(10) 0.25634(8) -0.04215(8)
C1 C 0.65365(11) 0.32134(11) -0.04999(10)
H1 H 0.6541 0.3632 -0.0108
C2 C 0.71363(11) 0.32835(11) -0.11382(10)
H2 H 0.7538 0.3741 -0.1172
C3 C 0.71362(12) 0.26631(11) -0.17336(10)
C4 C 0.65162(11) 0.19960(11) -0.16508(10)
H3 H 0.6489 0.1574 -0.2038
C5 C 0.59440(11) 0.19647(10) -0.09940(10)
H4 H 0.5540 0.1511 -0.0944
N2 N 0.90292(9) 0.26759(9) -0.36967(8)
C6 C 0.91992(11) 0.31293(10) -0.30300(10)
H5 H 0.9741 0.3442 -0.3002
C7 C 0.86028(12) 0.31485(11) -0.23866(10)
H6 H 0.8750 0.3460 -0.1932
C8 C 0.77747(12) 0.26962(11) -0.24229(10)
C9 C 0.75826(12) 0.22619(11) -0.31325(11)
H7 H 0.7026 0.1977 -0.3193
C10 C 0.82226(11) 0.22591(11) -0.37415(10)
H8 H 0.8091 0.1955 -0.4205
O1 O 0.47156(9) 0.40228(8) 0.05136(7)
H9 H 0.5104(12) 0.4370(12) 0.0703(14)
H10 H 0.4250(11) 0.4280(13) 0.0319(15)
N1F N 0.40546(10) 0.24366(8) -0.04215(8)
C1F C 0.34635(11) 0.17866(11) -0.04999(10)
H1F H 0.3459 0.1368 -0.0108
C2F C 0.28637(11) 0.17165(11) -0.11382(10)
H2F H 0.2462 0.1259 -0.1172
C3F C 0.28638(12) 0.23369(11) -0.17336(10)
C4F C 0.34838(11) 0.30040(11) -0.16508(10)
H3F H 0.3511 0.3426 -0.2038
C5F C 0.40560(11) 0.30353(10) -0.09940(10)
H4F H 0.4460 0.3489 -0.0944
N2F N 0.09708(9) 0.23241(9) -0.36967(8)
C6F C 0.08008(11) 0.18707(10) -0.30300(10)
H5F H 0.0259 0.1558 -0.3002
C7F C 0.13972(12) 0.18515(11) -0.23866(10)
H6F H 0.1250 0.1540 -0.1932
C8F C 0.22253(12) 0.23038(11) -0.24229(10)
C9F C 0.24174(12) 0.27381(11) -0.31325(11)
H7F H 0.2974 0.3023 -0.3193
C10F C 0.17774(11) 0.27409(11) -0.37415(10)
H8F H 0.1909 0.3045 -0.4205
O1F O 0.52844(9) 0.09772(8) 0.05136(7)
H9F H 0.4896(12) 0.0630(12) 0.0703(14)
H10F H 0.5750(11) 0.0720(13) 0.0319(15)
N2A N 0.40292(9) 0.23241(9) 0.13033(8)
N2C N 0.59708(9) 0.26759(9) 0.13033(8)
Cu1A Cu 1.0000 0.2500 -0.454457(15)
Cu1A_2 Cu 0.0000 0.2500 -0.454457(15)
loop_
_geom_bond_atom_site_label_1
_geom_bond_atom_site_label_2
_geom_bond_site_symmetry_1
_geom_bond_site_symmetry_2
Cu1 N1 1_555 1_555
N1 C1 1_555 1_555
C1 H1 1_555 1_555
C2 C1 1_555 1_555
H2 C2 1_555 1_555
C3 C2 1_555 1_555
C4 C3 1_555 1_555
H3 C4 1_555 1_555
C5 N1 1_555 1_555
H4 C5 1_555 1_555
N2 C6 1_555 1_555
C6 H5 1_555 1_555
C7 C6 1_555 1_555
H6 C7 1_555 1_555
C8 C3 1_555 1_555
C9 C8 1_555 1_555
H7 C9 1_555 1_555
C10 N2 1_555 1_555
H8 C10 1_555 1_555
O1 Cu1 1_555 1_555
H9 O1 1_555 1_555
H10 O1 1_555 1_555
S1 O2 1_555 1_555
O3 S1 1_555 1_555
N3 S1 1_555 1_555
C11 N3 1_555 1_555
O4 C11 1_555 1_555
C12 C11 1_555 1_555
C13 C12 1_555 1_555
H11 C13 1_555 1_555
C14 C13 1_555 1_555
H12 C14 1_555 1_555
C15 C14 1_555 1_555
H13 C15 1_555 1_555
C16 C15 1_555 1_555
H14 C16 1_555 1_555
C17 S1 1_555 1_555
N4 C18 1_555 1_555
C18 H15 1_555 1_555
H15 H21 1_555 1_555
H16 C18 1_555 1_555
H17 C18 1_555 1_555
C19 N4 1_555 1_555
H18 C19 1_555 1_555
H19 C18 1_555 1_555
H20 C19 1_555 1_555
C20 N4 1_555 1_555
H21 C18 1_555 1_555
O5 C20 1_555 1_555
C20F N4 1_555 1_555
C18F N4 1_555 1_555
H15F C20 1_555 1_555
H16F C18F 1_555 1_555
H17F C18F 1_555 1_555
H19F C19 1_555 1_555
C19F N4 1_555 1_555
H18F C19F 1_555 1_555
H20F C19F 1_555 1_555
H21F C20 1_555 1_555
O5F C20 1_555 1_555
N1F Cu1 1_555 1_555
C1F N1F 1_555 1_555
H1F C1F 1_555 1_555
C2F C1F 1_555 1_555
H2F C2F 1_555 1_555
C3F C2F 1_555 1_555
C4F C3F 1_555 1_555
H3F C4F 1_555 1_555
C5F N1F 1_555 1_555
H4F C5F 1_555 1_555
N2F C6F 1_555 1_555
C6F H5F 1_555 1_555
C7F C6F 1_555 1_555
H6F C7F 1_555 1_555
C8F C3F 1_555 1_555
C9F C8F 1_555 1_555
H7F C9F 1_555 1_555
C10F N2F 1_555 1_555
H8F C10F 1_555 1_555
O1F Cu1 1_555 1_555
H9F O1F 1_555 1_555
H10F O1F 1_555 1_555
N2A Cu1 1_555 1_555
N2C Cu1 1_555 1_555
Cu1A N2 1_555 1_555
Cu1A_2 N2F 1_555 1_555
C4 C5 1_555 1_555
C7 C8 1_555 1_555
C9 C10 1_555 1_555
C12 C17 1_555 1_555
C16 C17 1_555 1_555
C18 C19F 1_555 1_555
C18 C20F 1_555 1_555
H15 C20F 1_555 1_555
C19 C19F 1_555 1_555
C19 C18F 1_555 1_555
H19 C19F 1_555 1_555
C20 C20F 1_555 1_555
C20 C18F 1_555 1_555
H21 C20F 1_555 1_555
O5 C20F 1_555 1_555
O5 O5F 1_555 1_555
C20F O5F 1_555 1_555
C18F H15F 1_555 1_555
C18F H19F 1_555 1_555
C18F H21F 1_555 1_555
H15F H21F 1_555 1_555
C4F C5F 1_555 1_555
C7F C8F 1_555 1_555
C9F C10F 1_555 1_555

#END
