
#######################################################################
#
#                 Cambridge Crystallographic Data Centre
#                                CCDC 
#
#######################################################################
#
# If this CIF has been generated from an entry in the Cambridge 
# Structural Database, then it will include bibliographic, chemical, 
# crystal, experimental, refinement or atomic coordinate data resulting 
# from the CCDC's data processing and validation procedures.
#
#######################################################################

data_EGODOU
_symmetry_cell_setting           orthorhombic
_symmetry_space_group_name_H-M   'P b c m'
_symmetry_Int_Tables_number      57
_space_group_name_Hall           '-P 2c 2b'
loop_
_symmetry_equiv_pos_site_id
_symmetry_equiv_pos_as_xyz
1 x,y,z
2 -x,-y,1/2+z
3 -x,1/2+y,1/2-z
4 x,1/2-y,-z
5 -x,-y,-z
6 x,y,1/2-z
7 x,1/2-y,1/2+z
8 -x,1/2+y,z
_cell_length_a                   6.5488(6)
_cell_length_b                   9.4281(8)
_cell_length_c                   10.6417(9)
_cell_angle_alpha                90
_cell_angle_beta                 90
_cell_angle_gamma                90
_cell_volume                     657.048
loop_
_atom_site_label
_atom_site_type_symbol
_atom_site_fract_x
_atom_site_fract_y
_atom_site_fract_z
Cu1 Cu 0.0000 0.0000 0.5000
Cl1 Cl 0.18336(11) 0.2500 0.5000
C1 C 0.4638(4) -0.1518(3) 0.2500
H1 H 0.5912 -0.1953 0.2500
C2 C 0.3671(3) -0.11874(17) 0.36078(16)
H2 H 0.4308 -0.1384 0.4369
O1 O -0.18678(18) 0.06480(13) 0.35534(12)
N1 N 0.1814(2) -0.05831(14) 0.36024(13)
C3 C 0.0977(3) -0.0310(2) 0.2500
C4 C -0.1112(4) 0.0397(2) 0.2500
Cu1G Cu 0.0000 0.5000 0.5000
Cu1E Cu 0.0000 0.0000 0.0000
Cl1G Cl -0.18336(11) -0.2500 0.5000
C2E C 0.3671(3) -0.11874(17) 0.13922(16)
H2E H 0.4308 -0.1384 0.0631
O1E O -0.18678(18) 0.06480(13) 0.14466(12)
O1D O 0.18678(18) -0.06480(13) 0.64466(12)
N1E N 0.1814(2) -0.05831(14) 0.13976(13)
N1D N -0.1814(2) 0.05831(14) 0.63976(13)
loop_
_geom_bond_atom_site_label_1
_geom_bond_atom_site_label_2
_geom_bond_site_symmetry_1
_geom_bond_site_symmetry_2
Cu1 Cl1 1_555 1_555
Cl1 Cu1G 1_555 1_555
C1 H1 1_555 1_555
C2 C1 1_555 1_555
H2 C2 1_555 1_555
O1 Cu1 1_555 1_555
N1 Cu1 1_555 1_555
C3 N1 1_555 1_555
C4 O1 1_555 1_555
Cu1E O1E 1_555 1_555
Cl1G Cu1 1_555 1_555
C2E C1 1_555 1_555
H2E C2E 1_555 1_555
O1E C4 1_555 1_555
O1D Cu1 1_555 1_555
N1E C3 1_555 1_555
N1D Cu1 1_555 1_555
C2 N1 1_555 1_555
C3 C4 1_555 1_555
Cu1E N1E 1_555 1_555
C2E N1E 1_555 1_555

#END
