
#######################################################################
#
#                 Cambridge Crystallographic Data Centre
#                                CCDC 
#
#######################################################################
#
# If this CIF has been generated from an entry in the Cambridge 
# Structural Database, then it will include bibliographic, chemical, 
# crystal, experimental, refinement or atomic coordinate data resulting 
# from the CCDC's data processing and validation procedures.
#
#######################################################################

data_EGODEK
_symmetry_cell_setting           monoclinic
_symmetry_space_group_name_H-M   'P 21/c'
_symmetry_Int_Tables_number      14
_space_group_name_Hall           '-P 2ybc'
loop_
_symmetry_equiv_pos_site_id
_symmetry_equiv_pos_as_xyz
1 x,y,z
2 -x,1/2+y,1/2-z
3 -x,-y,-z
4 x,1/2-y,1/2+z
_cell_length_a                   15.1781(2)
_cell_length_b                   6.2444(2)
_cell_length_c                   9.8825(5)
_cell_angle_alpha                90
_cell_angle_beta                 101.1850(1)
_cell_angle_gamma                90
_cell_volume                     918.854
loop_
_atom_site_label
_atom_site_type_symbol
_atom_site_fract_x
_atom_site_fract_y
_atom_site_fract_z
Co1 Co 0.0000 0.0000 0.0000
N1 N 0.05405(15) -0.2803(4) -0.2347(2)
N2 N 0.20362(16) 0.4460(4) -0.0381(3)
N3 N 0.16360(17) 0.1454(4) -0.1303(3)
N4 N 0.11231(15) 0.1848(4) -0.0328(2)
N5 N 0.37859(16) 0.4919(4) 0.1480(3)
N6 N 0.02714(17) -0.2414(4) -0.1349(3)
N7 N 0.21861(17) 0.3025(4) -0.1334(3)
C1 C 0.13907(19) 0.3711(5) 0.0216(3)
H1 H 0.1163 0.4395 0.0911
C2 C 0.35296(19) 0.6123(5) 0.0202(3)
H2 H 0.3722 0.5349 -0.0540
H3 H 0.3834 0.7497 0.0299
N8 N 0.4067(2) 0.4381(5) 0.3629(3)
C3 C 0.3734(2) 0.5735(5) 0.2704(3)
H4 H 0.3496 0.7064 0.2859
N9 N 0.4347(2) 0.2612(5) 0.3038(3)
C4 C 0.2527(2) 0.6486(5) -0.0168(3)
H5 H 0.2334 0.7280 0.0567
H6 H 0.2387 0.7338 -0.1003
N10 N 0.4168(2) 0.3003(6) 0.1698(4)
N11 N 0.08272(17) -0.3271(4) -0.3329(2)
Co1C Co 0.0000 -0.5000 -0.5000
Co1C_2 Co 0.0000 -0.5000 0.5000
N1C N 0.05405(15) -0.2197(4) 0.2653(2)
N2B N -0.20362(16) -0.4460(4) 0.0381(3)
N3B N -0.16360(17) -0.1454(4) 0.1303(3)
N4B N -0.11231(15) -0.1848(4) 0.0328(2)
N5B N -0.37859(16) -0.4919(4) -0.1480(3)
N6C N 0.02714(17) -0.2586(4) 0.3651(3)
N6B N -0.02714(17) 0.2414(4) 0.1349(3)
N7B N -0.21861(17) -0.3025(4) 0.1334(3)
C1B C -0.13907(19) -0.3711(5) -0.0216(3)
H1B H -0.1163 -0.4395 -0.0911
C2B C -0.35296(19) -0.6123(5) -0.0202(3)
H2B H -0.3722 -0.5349 0.0540
H3B H -0.3834 -0.7497 -0.0299
N8B N -0.4067(2) -0.4381(5) -0.3629(3)
C3B C -0.3734(2) -0.5735(5) -0.2704(3)
H4B H -0.3496 -0.7064 -0.2859
N9B N -0.4347(2) -0.2612(5) -0.3038(3)
C4B C -0.2527(2) -0.6486(5) 0.0168(3)
H5B H -0.2334 -0.7280 -0.0567
H6B H -0.2387 -0.7338 0.1003
N10B N -0.4168(2) -0.3003(6) -0.1698(4)
N11C N 0.08272(17) -0.1729(4) 0.1671(2)
N11A N -0.08272(17) 0.1729(4) -0.1671(2)
loop_
_geom_bond_atom_site_label_1
_geom_bond_atom_site_label_2
_geom_bond_site_symmetry_1
_geom_bond_site_symmetry_2
Co1 N4 1_555 1_555
N1 N6 1_555 1_555
N2 N7 1_555 1_555
N3 N4 1_555 1_555
N4 C1 1_555 1_555
N5 C2 1_555 1_555
N6 Co1 1_555 1_555
N7 N3 1_555 1_555
C1 N2 1_555 1_555
H1 C1 1_555 1_555
C2 H2 1_555 1_555
H3 C2 1_555 1_555
N8 C3 1_555 1_555
C3 N5 1_555 1_555
H4 C3 1_555 1_555
N9 N8 1_555 1_555
C4 N2 1_555 1_555
H5 C4 1_555 1_555
H6 C4 1_555 1_555
N10 N5 1_555 1_555
N11 N1 1_555 1_555
Co1C N11 1_555 1_555
Co1C_2 N6C 1_555 1_555
N1C N6C 1_555 1_555
N2B N7B 1_555 1_555
N3B N4B 1_555 1_555
N4B Co1 1_555 1_555
N5B C2B 1_555 1_555
N6B Co1 1_555 1_555
N7B N3B 1_555 1_555
C1B N2B 1_555 1_555
H1B C1B 1_555 1_555
C2B H2B 1_555 1_555
H3B C2B 1_555 1_555
N8B C3B 1_555 1_555
C3B N5B 1_555 1_555
H4B C3B 1_555 1_555
N9B N8B 1_555 1_555
C4B N2B 1_555 1_555
H5B C4B 1_555 1_555
H6B C4B 1_555 1_555
N10B N5B 1_555 1_555
N11C Co1 1_555 1_555
N11A Co1 1_555 1_555
C2 C4 1_555 1_555
N9 N10 1_555 1_555
N1C N11C 1_555 1_555
N4B C1B 1_555 1_555
C2B C4B 1_555 1_555
N9B N10B 1_555 1_555

#END
