
#######################################################################
#
#                 Cambridge Crystallographic Data Centre
#                                CCDC 
#
#######################################################################
#
# If this CIF has been generated from an entry in the Cambridge 
# Structural Database, then it will include bibliographic, chemical, 
# crystal, experimental, refinement or atomic coordinate data resulting 
# from the CCDC's data processing and validation procedures.
#
#######################################################################

data_EGODIP
_symmetry_cell_setting           monoclinic
_symmetry_space_group_name_H-M   'P 21/c'
_symmetry_Int_Tables_number      14
_space_group_name_Hall           '-P 2ybc'
loop_
_symmetry_equiv_pos_site_id
_symmetry_equiv_pos_as_xyz
1 x,y,z
2 -x,1/2+y,1/2-z
3 -x,-y,-z
4 x,1/2-y,1/2+z
_cell_length_a                   12.608(2)
_cell_length_b                   13.831(3)
_cell_length_c                   17.334(2)
_cell_angle_alpha                90
_cell_angle_beta                 119.575(9)
_cell_angle_gamma                90
_cell_volume                     2628.89
loop_
_atom_site_label
_atom_site_type_symbol
_atom_site_fract_x
_atom_site_fract_y
_atom_site_fract_z
Cu1 Cu 0.67186(5) 0.39454(3) 0.55991(3)
S1 S 0.60693(12) 0.57811(8) 0.43676(7)
O1 O 0.6808(3) 0.4896(2) 0.48016(19)
O2 O 0.5500(3) 0.6106(2) 0.4892(2)
O3 O 0.5108(3) 0.5520(2) 0.3480(2)
O4 O 0.6867(4) 0.6502(2) 0.4336(2)
O5 O 0.6758(3) 0.5008(2) 0.63595(18)
H1 H 0.6408 0.5434 0.5959
H2 H 0.6242 0.4861 0.6521
N1 N 0.6395(3) 0.2898(2) 0.4753(2)
N2 N 0.5232(3) 0.1966(2) 0.3604(2)
N3 N -0.0977(3) 0.2547(2) 0.2848(2)
N4 N -0.2495(3) 0.1901(2) 0.1637(2)
C1 C 0.6418(4) 0.1693(3) 0.3883(3)
C2 C 0.7151(4) 0.2280(3) 0.4608(3)
C3 C 0.8401(4) 0.2188(3) 0.5044(3)
H3 H 0.8899 0.2579 0.5525
C4 C 0.8878(4) 0.1497(3) 0.4742(3)
H4 H 0.9720 0.1414 0.5029
C5 C 0.8148(4) 0.0913(3) 0.4017(3)
H5 H 0.8512 0.0450 0.3834
C6 C 0.6907(4) 0.1005(3) 0.3569(3)
H6 H 0.6416 0.0625 0.3078
C7 C 0.5283(4) 0.2679(3) 0.4141(3)
H7 H 0.4595 0.2990 0.4085
C8 C 0.4111(4) 0.1547(3) 0.2879(3)
H8 H 0.4183 0.0849 0.2885
H9 H 0.3989 0.1782 0.2314
C9 C 0.3039(4) 0.1823(3) 0.2987(3)
C10 C 0.2800(4) 0.1294(3) 0.3577(3)
C11 C 0.1859(4) 0.1570(3) 0.3720(3)
C12 C 0.1205(4) 0.2407(3) 0.3323(3)
C13 C 0.1420(4) 0.2938(3) 0.2730(3)
C14 C 0.2336(4) 0.2641(3) 0.2556(3)
C15 C 0.3592(5) 0.0440(4) 0.4075(3)
H10 H 0.3775 0.0464 0.4682
H11 H 0.4337 0.0464 0.4052
H12 H 0.3167 -0.0149 0.3807
C16 C 0.1546(5) 0.0961(4) 0.4305(3)
H13 H 0.1795 0.0305 0.4306
H14 H 0.0682 0.0981 0.4082
H15 H 0.1963 0.1211 0.4899
C17 C 0.0678(4) 0.3832(3) 0.2285(3)
H16 H -0.0021 0.3854 0.2368
H17 H 0.0414 0.3811 0.1663
H18 H 0.1170 0.4397 0.2543
C18 C 0.2594(5) 0.3226(3) 0.1936(3)
H19 H 0.1848 0.3502 0.1480
H20 H 0.2940 0.2815 0.1672
H21 H 0.3158 0.3734 0.2261
C19 C 0.0262(4) 0.2769(3) 0.3548(3)
H22 H 0.0402 0.2475 0.4099
H23 H 0.0347 0.3464 0.3636
C20 C -0.2027(4) 0.3010(3) 0.2709(3)
C21 C -0.2978(4) 0.2601(3) 0.1943(3)
C22 C -0.4157(4) 0.2927(3) 0.1623(3)
H24 H -0.4800 0.2674 0.1106
C23 C -0.4346(4) 0.3635(3) 0.2095(3)
H25 H -0.5132 0.3866 0.1892
C24 C -0.3392(5) 0.4019(3) 0.2873(3)
H26 H -0.3559 0.4489 0.3181
C25 C -0.2217(4) 0.3719(3) 0.3190(3)
H27 H -0.1576 0.3979 0.3703
C26 C -0.1314(4) 0.1886(3) 0.2196(3)
H28 H -0.0774 0.1467 0.2148
Cu1B Cu 0.32814(5) 0.60546(3) 0.44009(3)
Cu1C Cu -0.32814(5) 0.10546(3) 0.05991(3)
O2B O 0.4500(3) 0.3894(2) 0.5108(2)
N4C N 0.7505(3) 0.3099(2) 0.6637(2)
O6 O 0.9270(4) 0.4623(3) 0.6000(3)
H29 H 0.9894 0.4314 0.6070
H30 H 0.8986 0.4896 0.5498
O7 O 0.8971(5) 0.6212(4) 0.4279(4)
H31 H 0.8400 0.6176 0.4406
H32 H 0.9470 0.5768 0.4583
loop_
_geom_bond_atom_site_label_1
_geom_bond_atom_site_label_2
_geom_bond_site_symmetry_1
_geom_bond_site_symmetry_2
Cu1 O1 1_555 1_555
S1 O1 1_555 1_555
O2 S1 1_555 1_555
O3 S1 1_555 1_555
O4 S1 1_555 1_555
O5 Cu1 1_555 1_555
H1 O5 1_555 1_555
H2 O5 1_555 1_555
N1 Cu1 1_555 1_555
N2 C1 1_555 1_555
N3 C19 1_555 1_555
N4 C21 1_555 1_555
C1 C2 1_555 1_555
C2 N1 1_555 1_555
C3 C2 1_555 1_555
H3 C3 1_555 1_555
C4 C3 1_555 1_555
H4 C4 1_555 1_555
C5 C4 1_555 1_555
H5 C5 1_555 1_555
C6 C1 1_555 1_555
H6 C6 1_555 1_555
C7 N1 1_555 1_555
H7 C7 1_555 1_555
C8 N2 1_555 1_555
H8 C8 1_555 1_555
H9 C8 1_555 1_555
C9 C8 1_555 1_555
C10 C9 1_555 1_555
C11 C10 1_555 1_555
C12 C11 1_555 1_555
C13 C12 1_555 1_555
C14 C9 1_555 1_555
C15 C10 1_555 1_555
H10 C15 1_555 1_555
H11 C15 1_555 1_555
H12 C15 1_555 1_555
C16 C11 1_555 1_555
H13 C16 1_555 1_555
H14 C16 1_555 1_555
H15 C16 1_555 1_555
C17 C13 1_555 1_555
H16 C17 1_555 1_555
H17 C17 1_555 1_555
H18 C17 1_555 1_555
C18 C14 1_555 1_555
H19 C18 1_555 1_555
H20 C18 1_555 1_555
H21 C18 1_555 1_555
C19 C12 1_555 1_555
H22 C19 1_555 1_555
H23 C19 1_555 1_555
C20 N3 1_555 1_555
C21 C20 1_555 1_555
C22 C21 1_555 1_555
H24 C22 1_555 1_555
C23 C22 1_555 1_555
H25 C23 1_555 1_555
C24 C23 1_555 1_555
H26 C24 1_555 1_555
C25 C20 1_555 1_555
H27 C25 1_555 1_555
C26 N3 1_555 1_555
H28 C26 1_555 1_555
O6 H29 1_555 1_555
H30 O6 1_555 1_555
O7 H31 1_555 1_555
H32 O7 1_555 1_555
Cu1B O2 1_555 1_555
Cu1C N4 1_555 1_555
O2B Cu1 1_555 1_555
N4C Cu1 1_555 1_555
N2 C7 1_555 1_555
N4 C26 1_555 1_555
C5 C6 1_555 1_555
C13 C14 1_555 1_555
C24 C25 1_555 1_555

#END
