
#######################################################################
#
#                 Cambridge Crystallographic Data Centre
#                                CCDC 
#
#######################################################################
#
# If this CIF has been generated from an entry in the Cambridge 
# Structural Database, then it will include bibliographic, chemical, 
# crystal, experimental, refinement or atomic coordinate data resulting 
# from the CCDC's data processing and validation procedures.
#
#######################################################################

data_EGODAG
_symmetry_cell_setting           triclinic
_symmetry_space_group_name_H-M   'P -1'
_symmetry_Int_Tables_number      2
_space_group_name_Hall           '-P 1'
loop_
_symmetry_equiv_pos_site_id
_symmetry_equiv_pos_as_xyz
1 x,y,z
2 -x,-y,-z
_cell_length_a                   5.3024(3)
_cell_length_b                   6.1218(4)
_cell_length_c                   8.6207(5)
_cell_angle_alpha                71.807(4)
_cell_angle_beta                 87.818(4)
_cell_angle_gamma                81.955(2)
_cell_volume                     263.22
loop_
_atom_site_label
_atom_site_type_symbol
_atom_site_fract_x
_atom_site_fract_y
_atom_site_fract_z
Co1 Co 0.0000 0.0000 0.0000
N1 N 0.0787(3) -0.1641(3) -0.18501(19)
N2 N 0.0274(3) -0.2958(3) -0.3831(2)
N3 N 0.2999(3) -0.1761(3) -0.2677(2)
N4 N 0.7037(4) 0.2336(3) -0.1529(2)
N5 N 0.2715(4) -0.2559(3) -0.3870(2)
N6 N 0.2650(4) 0.2404(3) -0.1023(2)
N7 N 0.4841(4) 0.2320(3) -0.12510(18)
C1 C -0.0860(4) -0.2404(4) -0.2589(3)
H1 H -0.2548 -0.2534 -0.2285
C2 C -0.0726(5) -0.3842(4) -0.5042(3)
H2 H -0.0577 -0.2760 -0.6126
H3 H -0.2515 -0.3990 -0.4835
Co1_2 Co 1.0000 0.0000 0.0000
Co1_3 Co 0.0000 -1.0000 -1.0000
N1A N -0.0787(3) -0.8359(3) -0.81499(19)
N1A_2 N -0.0787(3) 0.1641(3) 0.18501(19)
N2A N -0.0274(3) -0.7042(3) -0.6169(2)
N3A N -0.2999(3) -0.8239(3) -0.7323(2)
N4_2 N -0.2963(4) 0.2336(3) -0.1529(2)
N4A N 0.2963(4) -0.2336(3) 0.1529(2)
N5A N -0.2715(4) -0.7441(3) -0.6130(2)
N6A N -0.2650(4) -0.2404(3) 0.1023(2)
N6A_2 N 0.7350(4) -0.2404(3) 0.1023(2)
N7A N 0.5159(4) -0.2320(3) 0.12510(18)
C1A C 0.0860(4) -0.7596(4) -0.7411(3)
H1A H 0.2548 -0.7466 -0.7715
C2A C 0.0726(5) -0.6158(4) -0.4958(3)
H2A H 0.0577 -0.7240 -0.3874
H3A H 0.2515 -0.6010 -0.5165
loop_
_geom_bond_atom_site_label_1
_geom_bond_atom_site_label_2
_geom_bond_site_symmetry_1
_geom_bond_site_symmetry_2
Co1 N1 1_555 1_555
N1 N3 1_555 1_555
N2 N5 1_555 1_555
N3 N5 1_555 1_555
N4 N7 1_555 1_555
N6 Co1 1_555 1_555
N7 N6 1_555 1_555
C1 N1 1_555 1_555
H1 C1 1_555 1_555
C2 N2 1_555 1_555
H2 C2 1_555 1_555
H3 C2 1_555 1_555
Co1_2 N4 1_555 1_555
Co1_3 N1A 1_555 1_555
N1A N3A 1_555 1_555
N1A_2 Co1 1_555 1_555
N2A N5A 1_555 1_555
N3A N5A 1_555 1_555
N4_2 Co1 1_555 1_555
N4A Co1 1_555 1_555
N6A Co1 1_555 1_555
N6A_2 Co1_2 1_555 1_555
N7A N4A 1_555 1_555
C1A N1A 1_555 1_555
H1A C1A 1_555 1_555
C2A C2 1_555 1_555
H2A C2A 1_555 1_555
H3A C2A 1_555 1_555
N2 C1 1_555 1_555
N2A C1A 1_555 1_555
N2A C2A 1_555 1_555
N6A_2 N7A 1_555 1_555

#END
