
#######################################################################
#
#                 Cambridge Crystallographic Data Centre
#                                CCDC 
#
#######################################################################
#
# If this CIF has been generated from an entry in the Cambridge 
# Structural Database, then it will include bibliographic, chemical, 
# crystal, experimental, refinement or atomic coordinate data resulting 
# from the CCDC's data processing and validation procedures.
#
#######################################################################

data_EGODIO
_symmetry_cell_setting           orthorhombic
_symmetry_space_group_name_H-M   'P m c 21'
_symmetry_Int_Tables_number      26
_space_group_name_Hall           'P 2c -2'
loop_
_symmetry_equiv_pos_site_id
_symmetry_equiv_pos_as_xyz
1 x,y,z
2 -x,-y,1/2+z
3 -x,y,z
4 x,-y,1/2+z
_cell_length_a                   5.2929(8)
_cell_length_b                   6.7384(10)
_cell_length_c                   9.8478(14)
_cell_angle_alpha                90
_cell_angle_beta                 90
_cell_angle_gamma                90
_cell_volume                     351.228
loop_
_atom_site_label
_atom_site_type_symbol
_atom_site_fract_x
_atom_site_fract_y
_atom_site_fract_z
Br1 Br 0.0000 0.19481(7) 0.78927(14)
Cu1 Cu 0.0000 0.0003(3) 1.03920(18)
O1 O 0.2860(11) -0.1776(8) 0.9768(6)
C1 C 0.5000 0.1005(15) 1.0783(12)
C2 C 0.5000 -0.1006(14) 1.0088(10)
N1 N 0.2804(11) 0.1786(9) 1.0990(5)
C3 C 0.2759(9) 0.3541(7) 1.1570(6)
H1 H 0.1218 0.4145 1.1756
C4 C 0.5000 0.4503(11) 1.1909(7)
H2 H 0.5000 0.5730 1.2341
Br1A Br 0.0000 -0.19481(7) 1.28927(14)
Cu1A Cu 0.0000 -0.0003(3) 0.53920(18)
Cu1_2 Cu 1.0000 0.0003(3) 1.03920(18)
O1B O 0.7140(11) -0.1776(8) 0.9768(6)
O1B_2 O -0.2860(11) -0.1776(8) 0.9768(6)
N1B N 0.7196(11) 0.1786(9) 1.0990(5)
N1B_2 N -0.2804(11) 0.1786(9) 1.0990(5)
C3B C 0.7241(9) 0.3541(7) 1.1570(6)
H1B H 0.8782 0.4145 1.1756
loop_
_geom_bond_atom_site_label_1
_geom_bond_atom_site_label_2
_geom_bond_site_symmetry_1
_geom_bond_site_symmetry_2
Br1 Cu1 1_555 1_555
Cu1 O1 1_555 1_555
O1 C2 1_555 1_555
C1 C2 1_555 1_555
C2 O1B 1_555 1_555
N1 Cu1 1_555 1_555
C3 N1 1_555 1_555
H1 C3 1_555 1_555
C4 C3 1_555 1_555
H2 C4 1_555 1_555
Br1A Cu1 1_555 1_555
Cu1A Br1 1_555 1_555
Cu1_2 O1B 1_555 1_555
O1B_2 Cu1 1_555 1_555
N1B C1 1_555 1_555
N1B_2 Cu1 1_555 1_555
C3B C4 1_555 1_555
H1B C3B 1_555 1_555
C1 N1 1_555 1_555
Cu1_2 N1B 1_555 1_555
N1B C3B 1_555 1_555

#END
