
#######################################################################
#
#                 Cambridge Crystallographic Data Centre
#                                CCDC 
#
#######################################################################
#
# If this CIF has been generated from an entry in the Cambridge 
# Structural Database, then it will include bibliographic, chemical, 
# crystal, experimental, refinement or atomic coordinate data resulting 
# from the CCDC's data processing and validation procedures.
#
#######################################################################

data_EGODAG01
_symmetry_cell_setting           triclinic
_symmetry_space_group_name_H-M   'P -1'
_symmetry_Int_Tables_number      2
_space_group_name_Hall           '-P 1'
loop_
_symmetry_equiv_pos_site_id
_symmetry_equiv_pos_as_xyz
1 x,y,z
2 -x,-y,-z
_cell_length_a                   6.5645(2)
_cell_length_b                   9.0680(3)
_cell_length_c                   9.6467(4)
_cell_angle_alpha                75.6290(14)
_cell_angle_beta                 88.1640(14)
_cell_angle_gamma                70.200(2)
_cell_volume                     522.53
loop_
_atom_site_label
_atom_site_type_symbol
_atom_site_fract_x
_atom_site_fract_y
_atom_site_fract_z
Co1 Co 0.0000 0.0000 0.0000
Co2 Co 0.5000 -1.0000 0.5000
N1 N 0.2356(5) 0.1160(4) 0.2120(3)
N2 N 0.1911(5) 0.1129(4) -0.2868(4)
N3 N 0.5941(5) -0.3920(4) 0.1326(3)
N4 N 0.6423(5) -0.8193(4) 0.4900(3)
N5 N 0.2791(5) -0.2148(4) 0.0659(3)
N6 N 0.3686(5) 0.1193(4) 0.2878(4)
N7 N 0.7869(5) -0.6362(4) 0.4089(3)
N8 N 0.7250(5) -0.6258(4) 0.5413(4)
C1 C 0.4851(6) -0.2360(5) 0.0822(4)
H1 H 0.5452 -0.1543 0.0615
C2 C 0.8282(5) -0.4793(5) 0.1665(4)
H2 H 0.9077 -0.4113 0.1164
H3 H 0.8707 -0.5762 0.1312
N9 N 0.6378(5) -0.7354(4) 0.5894(4)
N10 N 0.2153(5) 0.1338(4) -0.4108(4)
N11 N 0.4522(5) -0.4733(4) 0.1492(4)
N12 N 0.2627(5) -0.3655(4) 0.1098(4)
N13 N 0.1715(5) 0.0965(4) -0.1636(4)
C3 C 0.7365(6) -0.7559(5) 0.3805(4)
H4 H 0.7637 -0.7897 0.2961
C4 C 0.8911(6) -0.5272(5) 0.3251(4)
H5 H 0.8521 -0.4302 0.3600
H6 H 1.0472 -0.5795 0.3393
N14 N 0.0971(6) 0.1222(4) 0.1345(4)
Co2_2 Co 0.5000 0.0000 0.5000
Co2_3 Co 0.5000 0.0000 -0.5000
Co2_4 Co -0.5000 1.0000 -0.5000
Co2_5 Co -0.5000 0.0000 0.5000
Co2_6 Co -0.5000 0.0000 -0.5000
N1A N -0.2356(5) -0.1160(4) -0.2120(3)
N2A N -0.1911(5) -0.1129(4) 0.2868(4)
N3A N -0.5941(5) 0.3920(4) -0.1326(3)
N4A N -0.6423(5) 0.8193(4) -0.4900(3)
N4A_2 N 0.3577(5) -1.1807(4) 0.5100(3)
N5A N -0.2791(5) 0.2148(4) -0.0659(3)
N6A N -0.3686(5) -0.1193(4) -0.2878(4)
N6A_2 N 0.6314(5) -1.1193(4) 0.7122(4)
N6_2 N 0.3686(5) -0.8807(4) 0.2878(4)
N7A N -0.7869(5) 0.6362(4) -0.4089(3)
N8A N -0.7250(5) 0.6258(4) -0.5413(4)
C1A C -0.4851(6) 0.2360(5) -0.0822(4)
H1A H -0.5452 0.1543 -0.0615
C2A C -0.8282(5) 0.4793(5) -0.1665(4)
H2A H -0.9077 0.4113 -0.1164
H3A H -0.8707 0.5762 -0.1312
N9A N -0.6378(5) 0.7354(4) -0.5894(4)
N10A N -0.2153(5) -0.1338(4) 0.4108(4)
N10A_2 N 0.7847(5) -1.1338(4) 0.4108(4)
N10_2 N 0.2153(5) -0.8662(4) 0.5892(4)
N11A N -0.4522(5) 0.4733(4) -0.1492(4)
N12A N -0.2627(5) 0.3655(4) -0.1098(4)
N13A N -0.1715(5) -0.0965(4) 0.1636(4)
C3A C -0.7365(6) 0.7559(5) -0.3805(4)
H4A H -0.7637 0.7897 -0.2961
C4A C -0.8911(6) 0.5272(5) -0.3251(4)
H5A H -0.8521 0.4302 -0.3600
H6A H -1.0472 0.5795 -0.3393
N14A N -0.0971(6) -0.1222(4) -0.1345(4)
loop_
_geom_bond_atom_site_label_1
_geom_bond_atom_site_label_2
_geom_bond_site_symmetry_1
_geom_bond_site_symmetry_2
Co1 N5 1_555 1_555
Co2 N4 1_555 1_555
N1 N6 1_555 1_555
N2 N10 1_555 1_555
N3 C1 1_555 1_555
N4 N9 1_555 1_555
N5 C1 1_555 1_555
N6 Co2_2 1_555 1_555
N7 N8 1_555 1_555
N8 N9 1_555 1_555
C1 H1 1_555 1_555
C2 N3 1_555 1_555
H2 C2 1_555 1_555
H3 C2 1_555 1_555
N10 Co2_3 1_555 1_555
N11 N3 1_555 1_555
N12 N5 1_555 1_555
N13 Co1 1_555 1_555
C3 N4 1_555 1_555
H4 C3 1_555 1_555
C4 N7 1_555 1_555
H5 C4 1_555 1_555
H6 C4 1_555 1_555
N14 Co1 1_555 1_555
Co2_4 N4A 1_555 1_555
Co2_5 N10A 1_555 1_555
Co2_6 N6A 1_555 1_555
N1A N6A 1_555 1_555
N2A N10A 1_555 1_555
N3A C1A 1_555 1_555
N4A N9A 1_555 1_555
N4A_2 Co2 1_555 1_555
N5A Co1 1_555 1_555
N6A_2 Co2 1_555 1_555
N6_2 Co2 1_555 1_555
N7A N8A 1_555 1_555
N8A N9A 1_555 1_555
C1A N5A 1_555 1_555
H1A C1A 1_555 1_555
C2A N3A 1_555 1_555
H2A C2A 1_555 1_555
H3A C2A 1_555 1_555
N10A_2 Co2 1_555 1_555
N10_2 Co2 1_555 1_555
N11A N3A 1_555 1_555
N12A N5A 1_555 1_555
N13A Co1 1_555 1_555
C3A N4A 1_555 1_555
H4A C3A 1_555 1_555
C4A N7A 1_555 1_555
H5A C4A 1_555 1_555
H6A C4A 1_555 1_555
N14A Co1 1_555 1_555
N1 N14 1_555 1_555
N2 N13 1_555 1_555
N7 C3 1_555 1_555
C2 C4 1_555 1_555
N11 N12 1_555 1_555
N1A N14A 1_555 1_555
N2A N13A 1_555 1_555
N7A C3A 1_555 1_555
C2A C4A 1_555 1_555
N11A N12A 1_555 1_555

#END
