
#######################################################################
#
#                 Cambridge Crystallographic Data Centre
#                                CCDC 
#
#######################################################################
#
# If this CIF has been generated from an entry in the Cambridge 
# Structural Database, then it will include bibliographic, chemical, 
# crystal, experimental, refinement or atomic coordinate data resulting 
# from the CCDC's data processing and validation procedures.
#
#######################################################################

data_EGODEK01
_symmetry_cell_setting           monoclinic
_symmetry_space_group_name_H-M   'P 21/c'
_symmetry_Int_Tables_number      14
_space_group_name_Hall           '-P 2ybc'
loop_
_symmetry_equiv_pos_site_id
_symmetry_equiv_pos_as_xyz
1 x,y,z
2 -x,1/2+y,1/2-z
3 -x,-y,-z
4 x,1/2-y,1/2+z
_cell_length_a                   15.172(4)
_cell_length_b                   6.2441(15)
_cell_length_c                   9.875(2)
_cell_angle_alpha                90
_cell_angle_beta                 101.175(3)
_cell_angle_gamma                90
_cell_volume                     917.775
loop_
_atom_site_label
_atom_site_type_symbol
_atom_site_fract_x
_atom_site_fract_y
_atom_site_fract_z
Co1 Co 0.5000 0.0000 0.5000
C1 C 0.36126(12) 0.3712(3) 0.47883(18)
H1 H 0.3845 0.4399 0.4099
C2 C 0.24771(12) 0.6481(3) 0.5167(2)
H2 H 0.2674 0.7276 0.4435
H3 H 0.2616 0.7329 0.6005
C3 C 0.14727(12) 0.6130(3) 0.47892(19)
H4 H 0.1276 0.5372 0.5535
H5 H 0.1172 0.7508 0.4684
C4 C 0.08360(14) 0.3007(4) 0.3294(2)
H6 H 0.0719 0.2084 0.3977
N1 N 0.38750(9) 0.1853(2) 0.53303(14)
N2 N 0.33642(10) 0.1452(3) 0.62947(16)
N3 N 0.28151(10) 0.3019(3) 0.63316(17)
N4 N 0.29624(9) 0.4456(2) 0.53783(15)
N5 N 0.12105(9) 0.4911(2) 0.35160(15)
N6 N 0.12707(12) 0.5760(3) 0.22879(17)
N7 N 0.09345(12) 0.4360(3) 0.13705(18)
N8 N 0.06520(12) 0.2608(3) 0.19635(19)
N9 N 0.47256(11) -0.2411(3) 0.63461(16)
N10 N 0.44585(9) -0.2802(2) 0.73476(14)
N11 N 0.41732(10) -0.3273(3) 0.83290(15)
Co1A Co 0.5000 -0.5000 1.0000
Co1A_2 Co 0.5000 0.5000 0.0000
C1B C 0.63874(12) -0.3712(3) 0.52117(18)
H1B H 0.6155 -0.4399 0.5901
C2B C 0.75229(12) -0.6481(3) 0.4833(2)
H2B H 0.7326 -0.7276 0.5565
H3B H 0.7384 -0.7329 0.3995
C3B C 0.85273(12) -0.6130(3) 0.52108(19)
H4B H 0.8724 -0.5372 0.4465
H5B H 0.8828 -0.7508 0.5316
C4B C 0.91640(14) -0.3007(4) 0.6706(2)
H6B H 0.9281 -0.2084 0.6023
N1B N 0.61250(9) -0.1853(2) 0.46697(14)
N2B N 0.66358(10) -0.1452(3) 0.37053(16)
N3B N 0.71849(10) -0.3019(3) 0.36684(17)
N4B N 0.70376(9) -0.4456(2) 0.46217(15)
N5B N 0.87895(9) -0.4911(2) 0.64840(15)
N6B N 0.87293(12) -0.5760(3) 0.77121(17)
N7B N 0.90655(12) -0.4360(3) 0.86295(18)
N8B N 0.93480(12) -0.2608(3) 0.80365(19)
N9B N 0.52744(11) 0.2411(3) 0.36539(16)
N10B N 0.55415(9) 0.2802(2) 0.26524(14)
N11B N 0.58268(10) 0.3273(3) 0.16710(15)
N11A N 0.58268(10) 0.1727(3) 0.66710(15)
N11C N 0.41732(10) -0.1727(3) 0.33290(15)
loop_
_geom_bond_atom_site_label_1
_geom_bond_atom_site_label_2
_geom_bond_site_symmetry_1
_geom_bond_site_symmetry_2
Co1 N1 1_555 1_555
C1 H1 1_555 1_555
C2 H2 1_555 1_555
H3 C2 1_555 1_555
C3 C2 1_555 1_555
H4 C3 1_555 1_555
H5 C3 1_555 1_555
C4 H6 1_555 1_555
N1 C1 1_555 1_555
N2 N1 1_555 1_555
N3 N2 1_555 1_555
N4 C1 1_555 1_555
N5 C3 1_555 1_555
N6 N5 1_555 1_555
N7 N6 1_555 1_555
N8 C4 1_555 1_555
N9 Co1 1_555 1_555
N10 N9 1_555 1_555
N11 N10 1_555 1_555
Co1A N11 1_555 1_555
Co1A_2 N11B 1_555 1_555
C1B H1B 1_555 1_555
C2B H2B 1_555 1_555
H3B C2B 1_555 1_555
C3B C2B 1_555 1_555
H4B C3B 1_555 1_555
H5B C3B 1_555 1_555
C4B H6B 1_555 1_555
N1B Co1 1_555 1_555
N2B N1B 1_555 1_555
N3B N2B 1_555 1_555
N4B C1B 1_555 1_555
N5B C3B 1_555 1_555
N6B N5B 1_555 1_555
N7B N6B 1_555 1_555
N8B C4B 1_555 1_555
N9B Co1 1_555 1_555
N10B N9B 1_555 1_555
N11B N10B 1_555 1_555
N11A Co1 1_555 1_555
N11C Co1 1_555 1_555
C2 N4 1_555 1_555
C4 N5 1_555 1_555
N3 N4 1_555 1_555
N7 N8 1_555 1_555
C1B N1B 1_555 1_555
C2B N4B 1_555 1_555
C4B N5B 1_555 1_555
N3B N4B 1_555 1_555
N7B N8B 1_555 1_555

#END
