
#######################################################################
#
#                 Cambridge Crystallographic Data Centre
#                                CCDC 
#
#######################################################################
#
# If this CIF has been generated from an entry in the Cambridge 
# Structural Database, then it will include bibliographic, chemical, 
# crystal, experimental, refinement or atomic coordinate data resulting 
# from the CCDC's data processing and validation procedures.
#
#######################################################################

data_EGODOV
_symmetry_cell_setting           trigonal
_symmetry_space_group_name_H-M   'P -3'
_symmetry_Int_Tables_number      147
_space_group_name_Hall           '-P 3'
loop_
_symmetry_equiv_pos_site_id
_symmetry_equiv_pos_as_xyz
1 x,y,z
2 -y,x-y,z
3 -x+y,-x,z
4 -x,-y,-z
5 y,-x+y,-z
6 x-y,x,-z
_cell_length_a                   13.4688(12)
_cell_length_b                   13.4688(12)
_cell_length_c                   10.4961(13)
_cell_angle_alpha                90
_cell_angle_beta                 90
_cell_angle_gamma                120
_cell_volume                     1648.98
loop_
_atom_site_label
_atom_site_type_symbol
_atom_site_fract_x
_atom_site_fract_y
_atom_site_fract_z
Mn1 Mn 0.0000 0.0000 0.5000
N1 N 0.08081(19) 0.16547(19) 0.3844(2)
N2 N 0.1532(2) 0.3542(2) 0.3599(2)
C1 C 0.1548(2) 0.2026(3) 0.2796(3)
C2 C 0.2021(3) 0.3217(3) 0.2645(3)
C3 C 0.2790(3) 0.3835(3) 0.1702(3)
H1 H 0.3098 0.4639 0.1618
C4 C 0.3094(3) 0.3229(3) 0.0881(3)
H2 H 0.3636 0.3625 0.0225
C5 C 0.2622(3) 0.2059(3) 0.0999(3)
H3 H 0.2841 0.1669 0.0407
C6 C 0.1847(3) 0.1432(3) 0.1942(3)
H4 H 0.1530 0.0625 0.2004
C7 C 0.0836(2) 0.2597(2) 0.4263(3)
H5 H 0.0399 0.2601 0.4972
C8 C 0.1794(3) 0.4725(2) 0.3828(3)
H6 H 0.1975 0.5137 0.3004
H7 H 0.2486 0.5116 0.4372
C9 C 0.0830(3) 0.4809(2) 0.4461(3)
C10 C -0.0070(3) 0.4715(2) 0.3707(3)
C11 C 0.0890(3) 0.5064(2) 0.5763(3)
C12 C -0.0170(3) 0.4320(3) 0.2336(3)
H8 H 0.0515 0.4865 0.1862
H9 H -0.0850 0.4280 0.1945
H10 H -0.0241 0.3560 0.2315
C13 C 0.1780(3) 0.5028(3) 0.6605(3)
H11 H 0.2341 0.5808 0.6874
H12 H 0.2170 0.4695 0.6131
H13 H 0.1406 0.4557 0.7358
N1C N -0.08081(19) 0.83453(19) 0.6156(2)
N2C N -0.1532(2) 0.6458(2) 0.6401(2)
C1C C -0.1548(2) 0.7974(3) 0.7204(3)
C2C C -0.2021(3) 0.6783(3) 0.7355(3)
C3C C -0.2790(3) 0.6165(3) 0.8298(3)
H1C H -0.3098 0.5361 0.8382
C4C C -0.3094(3) 0.6771(3) 0.9119(3)
H2C H -0.3636 0.6375 0.9775
C5C C -0.2622(3) 0.7941(3) 0.9001(3)
H3C H -0.2841 0.8331 0.9593
C6C C -0.1847(3) 0.8568(3) 0.8058(3)
H4C H -0.1530 0.9375 0.7996
C7C C -0.0836(2) 0.7403(2) 0.5737(3)
H5C H -0.0399 0.7399 0.5028
C8C C -0.1794(3) 0.5275(2) 0.6172(3)
H6C H -0.1975 0.4863 0.6996
H7C H -0.2486 0.4884 0.5628
C9C C -0.0830(3) 0.5191(2) 0.5539(3)
C10C C 0.0070(3) 0.5285(2) 0.6293(3)
C11C C -0.0890(3) 0.4936(2) 0.4237(3)
C12C C 0.0170(3) 0.5680(3) 0.7664(3)
H8C H -0.0515 0.5135 0.8138
H9C H 0.0850 0.5720 0.8055
H10C H 0.0241 0.6440 0.7685
C13C C -0.1780(3) 0.4972(3) 0.3395(3)
H11C H -0.2341 0.4192 0.3126
H12C H -0.2170 0.5305 0.3869
H13C H -0.1406 0.5443 0.2642
N1A N -0.16547(19) -0.08466(27) 0.3844(2)
N2A N -0.3542(2) -0.2010(3) 0.3599(2)
C1A C -0.2026(3) -0.0478(4) 0.2796(3)
C2A C -0.3217(3) -0.1196(4) 0.2645(3)
C3A C -0.3835(3) -0.1045(4) 0.1702(3)
H1A H -0.4639 -0.1541 0.1618
C4A C -0.3229(3) -0.0135(4) 0.0881(3)
H2A H -0.3625 0.0011 0.0225
C5A C -0.2059(3) 0.0563(4) 0.0999(3)
H3A H -0.1669 0.1172 0.0407
C6A C -0.1432(3) 0.0415(4) 0.1942(3)
H4A H -0.0625 0.0905 0.2004
C7A C -0.2597(2) -0.1761(3) 0.4263(3)
H5A H -0.2601 -0.2202 0.4972
C8A C -0.4725(2) -0.2931(4) 0.3828(3)
H6A H -0.5137 -0.3162 0.3004
H7A H -0.5116 -0.2630 0.4372
C9A C -0.4809(2) -0.3979(4) 0.4461(3)
C10A C -0.4715(2) -0.4785(4) 0.3707(3)
C11A C -0.5064(2) -0.4174(4) 0.5763(3)
C12A C -0.4320(3) -0.4490(4) 0.2336(3)
H8A H -0.4865 -0.4350 0.1862
H9A H -0.4280 -0.5130 0.1945
H10A H -0.3560 -0.3801 0.2315
C13A C -0.5028(3) -0.3248(4) 0.6605(3)
H11A H -0.5808 -0.3467 0.6874
H12A H -0.4695 -0.2525 0.6131
H13A H -0.4557 -0.3151 0.7358
N1D N -0.83453(19) -0.91534(27) 0.6156(2)
N2D N -0.6458(2) -0.7990(3) 0.6401(2)
C1D C -0.7974(3) -0.9522(4) 0.7204(3)
C2D C -0.6783(3) -0.8804(4) 0.7355(3)
C3D C -0.6165(3) -0.8955(4) 0.8298(3)
H1D H -0.5361 -0.8459 0.8382
C4D C -0.6771(3) -0.9865(4) 0.9119(3)
H2D H -0.6375 -1.0011 0.9775
C5D C -0.7941(3) -1.0563(4) 0.9001(3)
H3D H -0.8331 -1.1172 0.9593
C6D C -0.8568(3) -1.0415(4) 0.8058(3)
H4D H -0.9375 -1.0905 0.7996
C7D C -0.7403(2) -0.8239(3) 0.5737(3)
H5D H -0.7399 -0.7798 0.5028
C8D C -0.5275(2) -0.7069(4) 0.6172(3)
H6D H -0.4863 -0.6838 0.6996
H7D H -0.4884 -0.7370 0.5628
C9D C -0.5191(2) -0.6021(4) 0.5539(3)
C10D C -0.5285(2) -0.5215(4) 0.6293(3)
C11D C -0.4936(2) -0.5826(4) 0.4237(3)
C12D C -0.5680(3) -0.5510(4) 0.7664(3)
H8D H -0.5135 -0.5650 0.8138
H9D H -0.5720 -0.4870 0.8055
H10D H -0.6440 -0.6199 0.7685
C13D C -0.4972(3) -0.6752(4) 0.3395(3)
H11D H -0.4192 -0.6533 0.3126
H12D H -0.5305 -0.7475 0.3869
H13D H -0.5443 -0.6849 0.2642
N1B N -0.91534(27) -0.08081(19) 0.3844(2)
N2B N -0.7990(3) -0.1532(2) 0.3599(2)
C1B C -0.9522(4) -0.1548(2) 0.2796(3)
C2B C -0.8804(4) -0.2021(3) 0.2645(3)
C3B C -0.8955(4) -0.2790(3) 0.1702(3)
H1B H -0.8459 -0.3098 0.1618
C4B C -0.9865(4) -0.3094(3) 0.0881(3)
H2B H -1.0011 -0.3636 0.0225
C5B C -1.0563(4) -0.2622(3) 0.0999(3)
H3B H -1.1172 -0.2841 0.0407
C6B C -1.0415(4) -0.1847(3) 0.1942(3)
H4B H -1.0905 -0.1530 0.2004
C7B C -0.8239(3) -0.0836(2) 0.4263(3)
H5B H -0.7798 -0.0399 0.4972
C8B C -0.7069(4) -0.1794(3) 0.3828(3)
H6B H -0.6838 -0.1975 0.3004
H7B H -0.7370 -0.2486 0.4372
C9B C -0.6021(4) -0.0830(3) 0.4461(3)
C10B C -0.5215(4) 0.0070(3) 0.3707(3)
C11B C -0.5826(4) -0.0890(3) 0.5763(3)
C12B C -0.5510(4) 0.0170(3) 0.2336(3)
H8B H -0.5650 -0.0515 0.1862
H9B H -0.4870 0.0850 0.1945
H10B H -0.6199 0.0241 0.2315
C13B C -0.6752(4) -0.1780(3) 0.6605(3)
H11B H -0.6533 -0.2341 0.6874
H12B H -0.7475 -0.2170 0.6131
H13B H -0.6849 -0.1406 0.7358
N1E N -0.08466(27) 0.08081(19) 0.6156(2)
N2E N -0.2010(3) 0.1532(2) 0.6401(2)
C1E C -0.0478(4) 0.1548(2) 0.7204(3)
C2E C -0.1196(4) 0.2021(3) 0.7355(3)
C3E C -0.1045(4) 0.2790(3) 0.8298(3)
H1E H -0.1541 0.3098 0.8382
C4E C -0.0135(4) 0.3094(3) 0.9119(3)
H2E H 0.0011 0.3636 0.9775
C5E C 0.0563(4) 0.2622(3) 0.9001(3)
H3E H 0.1172 0.2841 0.9593
C6E C 0.0415(4) 0.1847(3) 0.8058(3)
H4E H 0.0905 0.1530 0.7996
C7E C -0.1761(3) 0.0836(2) 0.5737(3)
H5E H -0.2202 0.0399 0.5028
C8E C -0.2931(4) 0.1794(3) 0.6172(3)
H6E H -0.3162 0.1975 0.6996
H7E H -0.2630 0.2486 0.5628
C9E C -0.3979(4) 0.0830(3) 0.5539(3)
C10E C -0.4785(4) -0.0070(3) 0.6293(3)
C11E C -0.4174(4) 0.0890(3) 0.4237(3)
C12E C -0.4490(4) -0.0170(3) 0.7664(3)
H8E H -0.4350 0.0515 0.8138
H9E H -0.5130 -0.0850 0.8055
H10E H -0.3801 -0.0241 0.7685
C13E C -0.3248(4) 0.1780(3) 0.3395(3)
H11E H -0.3467 0.2341 0.3126
H12E H -0.2525 0.2170 0.3869
H13E H -0.3151 0.1406 0.2642
Mn1_2 Mn -1.0000 -1.0000 0.5000
Mn1_3 Mn -1.0000 0.0000 0.5000
Mn1_4 Mn 0.0000 1.0000 0.5000
N1B_2 N 0.08466(27) -0.08081(19) 0.3844(2)
N1C_2 N -0.08081(19) -0.16547(19) 0.6156(2)
N1D_2 N 0.16547(19) 0.08466(27) 0.6156(2)
Cl1 Cl 0.3333 0.6667 0.02539(13)
O1 O 0.3333 0.6667 0.1615(3)
O2 O 0.3609(3) 0.7778(2) -0.0165(3)
O2A O 0.2222(2) 0.5831(4) -0.0165(3)
O2B O 0.4169(4) 0.6391(3) -0.0165(3)
loop_
_geom_bond_atom_site_label_1
_geom_bond_atom_site_label_2
_geom_bond_site_symmetry_1
_geom_bond_site_symmetry_2
Mn1 N1 1_555 1_555
N1 C1 1_555 1_555
N2 C2 1_555 1_555
C1 C2 1_555 1_555
C2 C3 1_555 1_555
C3 H1 1_555 1_555
C4 C3 1_555 1_555
H2 C4 1_555 1_555
C5 C4 1_555 1_555
H3 C5 1_555 1_555
C6 C1 1_555 1_555
H4 C6 1_555 1_555
C7 N1 1_555 1_555
H5 C7 1_555 1_555
C8 N2 1_555 1_555
H6 C8 1_555 1_555
H7 C8 1_555 1_555
C9 C8 1_555 1_555
C10 C9 1_555 1_555
C11 C9 1_555 1_555
C12 C10 1_555 1_555
H8 C12 1_555 1_555
H9 C12 1_555 1_555
H10 C12 1_555 1_555
C13 C11 1_555 1_555
H11 C13 1_555 1_555
H12 C13 1_555 1_555
H13 C13 1_555 1_555
Cl1 O1 1_555 1_555
O2 Cl1 1_555 1_555
N1C C1C 1_555 1_555
N2C C2C 1_555 1_555
C1C C2C 1_555 1_555
C2C C3C 1_555 1_555
C3C H1C 1_555 1_555
C4C C3C 1_555 1_555
H2C C4C 1_555 1_555
C5C C4C 1_555 1_555
H3C C5C 1_555 1_555
C6C C1C 1_555 1_555
H4C C6C 1_555 1_555
C7C N1C 1_555 1_555
H5C C7C 1_555 1_555
C8C N2C 1_555 1_555
H6C C8C 1_555 1_555
H7C C8C 1_555 1_555
C9C C8C 1_555 1_555
C10C C11 1_555 1_555
C11C C10 1_555 1_555
C12C C10C 1_555 1_555
H8C C12C 1_555 1_555
H9C C12C 1_555 1_555
H10C C12C 1_555 1_555
C13C C11C 1_555 1_555
H11C C13C 1_555 1_555
H12C C13C 1_555 1_555
H13C C13C 1_555 1_555
N1A Mn1 1_555 1_555
N2A C2A 1_555 1_555
C1A N1A 1_555 1_555
C2A C1A 1_555 1_555
C3A C2A 1_555 1_555
H1A C3A 1_555 1_555
C4A C3A 1_555 1_555
H2A C4A 1_555 1_555
C5A C4A 1_555 1_555
H3A C5A 1_555 1_555
C6A C1A 1_555 1_555
H4A C6A 1_555 1_555
C7A N1A 1_555 1_555
H5A C7A 1_555 1_555
C8A N2A 1_555 1_555
H6A C8A 1_555 1_555
H7A C8A 1_555 1_555
C9A C8A 1_555 1_555
C10A C9A 1_555 1_555
C11A C9A 1_555 1_555
C12A C10A 1_555 1_555
H8A C12A 1_555 1_555
H9A C12A 1_555 1_555
H10A C12A 1_555 1_555
C13A C11A 1_555 1_555
H11A C13A 1_555 1_555
H12A C13A 1_555 1_555
H13A C13A 1_555 1_555
N1D C1D 1_555 1_555
N2D C2D 1_555 1_555
C1D C2D 1_555 1_555
C2D C3D 1_555 1_555
C3D H1D 1_555 1_555
C4D C3D 1_555 1_555
H2D C4D 1_555 1_555
C5D C4D 1_555 1_555
H3D C5D 1_555 1_555
C6D C1D 1_555 1_555
H4D C6D 1_555 1_555
C7D N1D 1_555 1_555
H5D C7D 1_555 1_555
C8D N2D 1_555 1_555
H6D C8D 1_555 1_555
H7D C8D 1_555 1_555
C9D C8D 1_555 1_555
C10D C11A 1_555 1_555
C11D C10A 1_555 1_555
C12D C10D 1_555 1_555
H8D C12D 1_555 1_555
H9D C12D 1_555 1_555
H10D C12D 1_555 1_555
C13D C11D 1_555 1_555
H11D C13D 1_555 1_555
H12D C13D 1_555 1_555
H13D C13D 1_555 1_555
N1B C1B 1_555 1_555
N2B C2B 1_555 1_555
C1B C2B 1_555 1_555
C2B C3B 1_555 1_555
C3B H1B 1_555 1_555
C4B C3B 1_555 1_555
H2B C4B 1_555 1_555
C5B C4B 1_555 1_555
H3B C5B 1_555 1_555
C6B C1B 1_555 1_555
H4B C6B 1_555 1_555
C7B N1B 1_555 1_555
H5B C7B 1_555 1_555
C8B N2B 1_555 1_555
H6B C8B 1_555 1_555
H7B C8B 1_555 1_555
C9B C8B 1_555 1_555
C10B C9B 1_555 1_555
C11B C9B 1_555 1_555
C12B C10B 1_555 1_555
H8B C12B 1_555 1_555
H9B C12B 1_555 1_555
H10B C12B 1_555 1_555
C13B C11B 1_555 1_555
H11B C13B 1_555 1_555
H12B C13B 1_555 1_555
H13B C13B 1_555 1_555
N1E Mn1 1_555 1_555
N2E C2E 1_555 1_555
C1E N1E 1_555 1_555
C2E C1E 1_555 1_555
C3E C2E 1_555 1_555
H1E C3E 1_555 1_555
C4E C3E 1_555 1_555
H2E C4E 1_555 1_555
C5E C4E 1_555 1_555
H3E C5E 1_555 1_555
C6E C1E 1_555 1_555
H4E C6E 1_555 1_555
C7E N1E 1_555 1_555
H5E C7E 1_555 1_555
C8E N2E 1_555 1_555
H6E C8E 1_555 1_555
H7E C8E 1_555 1_555
C9E C8E 1_555 1_555
C10E C11B 1_555 1_555
C11E C10B 1_555 1_555
C12E C10E 1_555 1_555
H8E C12E 1_555 1_555
H9E C12E 1_555 1_555
H10E C12E 1_555 1_555
C13E C11E 1_555 1_555
H11E C13E 1_555 1_555
H12E C13E 1_555 1_555
H13E C13E 1_555 1_555
Mn1_2 N1D 1_555 1_555
Mn1_3 N1B 1_555 1_555
Mn1_4 N1C 1_555 1_555
N1B_2 Mn1 1_555 1_555
N1C_2 Mn1 1_555 1_555
N1D_2 Mn1 1_555 1_555
O2A Cl1 1_555 1_555
O2B Cl1 1_555 1_555
N2 C7 1_555 1_555
C5 C6 1_555 1_555
N2C C7C 1_555 1_555
C5C C6C 1_555 1_555
C9C C10C 1_555 1_555
C9C C11C 1_555 1_555
N2A C7A 1_555 1_555
C5A C6A 1_555 1_555
N2D C7D 1_555 1_555
C5D C6D 1_555 1_555
C9D C10D 1_555 1_555
C9D C11D 1_555 1_555
N2B C7B 1_555 1_555
C5B C6B 1_555 1_555
N2E C7E 1_555 1_555
C5E C6E 1_555 1_555
C9E C10E 1_555 1_555
C9E C11E 1_555 1_555

#END
