
#######################################################################
#
#                 Cambridge Crystallographic Data Centre
#                                CCDC 
#
#######################################################################
#
# If this CIF has been generated from an entry in the Cambridge 
# Structural Database, then it will include bibliographic, chemical, 
# crystal, experimental, refinement or atomic coordinate data resulting 
# from the CCDC's data processing and validation procedures.
#
#######################################################################

data_EGODUA
_symmetry_cell_setting           rhombohedral
_symmetry_space_group_name_H-M   'R -3'
_symmetry_Int_Tables_number      148
_space_group_name_Hall           '-R 3'
loop_
_symmetry_equiv_pos_site_id
_symmetry_equiv_pos_as_xyz
1 x,y,z
2 -y,x-y,z
3 -x+y,-x,z
4 2/3+x,1/3+y,1/3+z
5 2/3-y,1/3+x-y,1/3+z
6 2/3-x+y,1/3-x,1/3+z
7 1/3+x,2/3+y,2/3+z
8 1/3-y,2/3+x-y,2/3+z
9 1/3-x+y,2/3-x,2/3+z
10 -x,-y,-z
11 y,-x+y,-z
12 x-y,x,-z
13 1/3-x,2/3-y,2/3-z
14 1/3+y,2/3-x+y,2/3-z
15 1/3+x-y,2/3+x,2/3-z
16 2/3-x,1/3-y,1/3-z
17 2/3+y,1/3-x+y,1/3-z
18 2/3+x-y,1/3+x,1/3-z
_cell_length_a                   21.5359(10)
_cell_length_b                   21.5359(10)
_cell_length_c                   13.2232(13)
_cell_angle_alpha                90
_cell_angle_beta                 90
_cell_angle_gamma                120.00
_cell_volume                     5311.21
loop_
_atom_site_label
_atom_site_type_symbol
_atom_site_fract_x
_atom_site_fract_y
_atom_site_fract_z
Cu1 Cu 0.25624(3) 0.01920(3) -0.24915(4)
S1 S 0.15889(11) 0.13680(10) -0.43013(15)
O1 O 0.34593(18) 0.04835(17) -0.3722(2)
O2 O 0.3609(2) -0.00573(18) -0.5054(2)
N1 N 0.21136(19) -0.0680(2) -0.3421(3)
N2 N 0.2344(2) -0.11967(18) -0.4837(3)
C1 C 0.2523(2) -0.0672(2) -0.4169(3)
C2 C 0.1237(3) -0.1834(2) -0.3995(4)
H1 H 0.0785 -0.2240 -0.3930
C3 C 0.3260(2) -0.0017(2) -0.4311(3)
C4 C 0.1919(3) 0.0970(3) -0.3638(4)
N3 N 0.2147(3) 0.0681(3) -0.3175(3)
C5 C 0.1692(3) -0.1787(2) -0.4745(3)
H2 H 0.1553 -0.2164 -0.5198
C6 C 0.1464(2) -0.1265(3) -0.3336(4)
H3 H 0.1159 -0.1288 -0.2821
O3 O 0.1553(3) -0.0362(2) -0.1148(4)
Cu1G Cu 0.31413(3) -0.09629(4) -0.58248(4)
O2E O 0.30004(27) -0.0276(2) -0.1721(2)
N2E N 0.31260(27) 0.0989(2) -0.1504(3)
O4 O 0.0000 0.0000 -0.5000
O5 O 0.0335(5) -0.1830(4) -0.0810(6)
O6 O 0.0828(18) 0.0461(16) -0.153(3)
O7 O 0.0000 0.0000 0.0000
loop_
_geom_bond_atom_site_label_1
_geom_bond_atom_site_label_2
_geom_bond_site_symmetry_1
_geom_bond_site_symmetry_2
Cu1 O1 1_555 1_555
S1 C4 1_555 1_555
O1 C3 1_555 1_555
O2 C3 1_555 1_555
N1 Cu1 1_555 1_555
N2 C1 1_555 1_555
C1 N1 1_555 1_555
C2 H1 1_555 1_555
C3 C1 1_555 1_555
C4 N3 1_555 1_555
N3 Cu1 1_555 1_555
C5 N2 1_555 1_555
H2 C5 1_555 1_555
C6 N1 1_555 1_555
H3 C6 1_555 1_555
O3 Cu1 1_555 1_555
Cu1G O2 1_555 1_555
O2E Cu1 1_555 1_555
N2E Cu1 1_555 1_555
N2 Cu1G 1_555 1_555
C2 C5 1_555 1_555
C2 C6 1_555 1_555

#END
