
#######################################################################
#
#                 Cambridge Crystallographic Data Centre
#                                CCDC 
#
#######################################################################
#
# If this CIF has been generated from an entry in the Cambridge 
# Structural Database, then it will include bibliographic, chemical, 
# crystal, experimental, refinement or atomic coordinate data resulting 
# from the CCDC's data processing and validation procedures.
#
#######################################################################

data_EGODEL
_symmetry_cell_setting           triclinic
_symmetry_space_group_name_H-M   'P -1'
_symmetry_Int_Tables_number      2
_space_group_name_Hall           '-P 1'
loop_
_symmetry_equiv_pos_site_id
_symmetry_equiv_pos_as_xyz
1 x,y,z
2 -x,-y,-z
_cell_length_a                   9.144(4)
_cell_length_b                   9.914(4)
_cell_length_c                   10.981(5)
_cell_angle_alpha                113.235(6)
_cell_angle_beta                 104.079(7)
_cell_angle_gamma                92.301(7)
_cell_volume                     876.845
loop_
_atom_site_label
_atom_site_type_symbol
_atom_site_fract_x
_atom_site_fract_y
_atom_site_fract_z
Co1 Co 0.5000 0.5000 0.0000
O1 O 0.7271(3) 0.5025(3) -0.0004(3)
O2 O 0.7166(3) 0.3071(3) -0.1947(3)
O3 O 0.5695(3) 0.6918(3) 0.1934(3)
H1 H 0.4832 0.7114 0.2056
N1 N 0.5347(3) 0.3528(3) 0.0933(3)
N2 N 0.6616(4) 0.2501(4) 0.2270(4)
C1 C 0.5161(5) 0.1683(4) 0.1651(4)
C2 C 0.4379(4) 0.2340(4) 0.0826(4)
C3 C 0.2865(5) 0.1782(4) 0.0042(4)
H2 H 0.2321 0.2220 -0.0524
C4 C 0.2196(5) 0.0563(5) 0.0128(5)
H3 H 0.1164 0.0156 -0.0388
C5 C 0.2999(6) -0.0092(5) 0.0957(5)
H4 H 0.2494 -0.0930 0.0987
C6 C 0.4489(6) 0.0440(5) 0.1727(5)
H5 H 0.5034 -0.0012 0.2280
C7 C 0.6642(4) 0.3556(4) 0.1792(4)
H6 H 0.7522 0.4261 0.2052
C8 C 0.7870(5) 0.2277(5) 0.3261(5)
H7 H 0.8415 0.1499 0.2755
H8 H 0.7452 0.1934 0.3858
C9 C 0.8978(5) 0.3704(5) 0.4149(4)
C10 C 0.8625(5) 0.4757(5) 0.5294(4)
C11 C 1.0326(5) 0.3963(5) 0.3836(4)
C12 C 0.7118(5) 0.4535(6) 0.5575(5)
H9 H 0.7255 0.4136 0.6275
H10 H 0.6376 0.3836 0.4721
H11 H 0.6743 0.5490 0.5912
C13 C 1.0660(6) 0.2893(6) 0.2536(5)
H12 H 1.1229 0.2154 0.2738
H13 H 1.1269 0.3444 0.2212
H14 H 0.9698 0.2391 0.1819
C14 C 0.7875(4) 0.4175(4) -0.0856(4)
C15 C 0.9568(4) 0.4475(4) -0.0559(5)
H15 H 1.0031 0.3864 -0.1224
C16 C 0.6818(8) 0.7258(8) 0.3199(7)
H16 H 0.6597 0.6558 0.3582
H17 H 0.6810 0.8272 0.3852
H18 H 0.7825 0.7178 0.3036
O1A O 1.2729(3) 0.4975(3) 0.0004(3)
O2A O 1.2834(3) 0.6929(3) 0.1947(3)
C14A C 1.2125(4) 0.5825(4) 0.0856(4)
C15A C 1.0432(4) 0.5525(4) 0.0559(5)
H15A H 0.9969 0.6136 0.1224
N1A N 1.4653(3) 0.6472(3) 0.9067(3)
N2A N 1.3384(4) 0.7499(4) 0.7730(4)
C1A C 1.4839(5) 0.8317(4) 0.8349(4)
C2A C 1.5621(4) 0.7660(4) 0.9174(4)
C3A C 1.7135(5) 0.8218(4) 0.9958(4)
H2A H 1.7679 0.7780 1.0524
C4A C 1.7804(5) 0.9437(5) 0.9872(5)
H3A H 1.8836 0.9844 1.0388
C5A C 1.7001(6) 1.0092(5) 0.9043(5)
H4A H 1.7506 1.0930 0.9013
C6A C 1.5511(6) 0.9560(5) 0.8273(5)
H5A H 1.4966 1.0012 0.7720
C7A C 1.3358(4) 0.6444(4) 0.8208(4)
H6A H 1.2478 0.5739 0.7948
C8A C 1.2130(5) 0.7723(5) 0.6739(5)
H7A H 1.1585 0.8501 0.7245
H8A H 1.2548 0.8066 0.6142
C9A C 1.1022(5) 0.6296(5) 0.5851(4)
C10A C 1.1375(5) 0.5243(5) 0.4706(4)
C11A C 0.9674(5) 0.6037(5) 0.6164(4)
C12A C 1.2882(5) 0.5465(6) 0.4425(5)
H9A H 1.2745 0.5864 0.3725
H10A H 1.3624 0.6164 0.5279
H11A H 1.3257 0.4510 0.4088
C13A C 0.9340(6) 0.7107(6) 0.7464(5)
H12A H 0.8771 0.7846 0.7262
H13A H 0.8731 0.6556 0.7788
H14A H 1.0302 0.7609 0.8181
O3A O 0.4305(3) 0.3082(3) -0.1934(3)
H1A H 0.5168 0.2886 -0.2056
C16A C 0.3182(8) 0.2742(8) -0.3199(7)
H16A H 0.3403 0.3442 -0.3582
H17A H 0.3190 0.1728 -0.3852
H18A H 0.2175 0.2822 -0.3036
Co1_2 Co 1.5000 0.5000 0.0000
Co1_3 Co 1.5000 0.5000 1.0000
O1A_2 O 0.2729(3) 0.4975(3) 0.0004(3)
N1A_2 N 0.4653(3) 0.6472(3) -0.0933(3)
O4 O 0.1533(7) 0.8608(6) 0.3969(6)
C17 C 0.0764(10) 0.9648(9) 0.3428(10)
C18? C 0.129(3) 0.914(5) 0.361(5)
O5? O 0.289(3) 0.927(3) 0.447(2)
loop_
_geom_bond_atom_site_label_1
_geom_bond_atom_site_label_2
_geom_bond_site_symmetry_1
_geom_bond_site_symmetry_2
Co1 O1 1_555 1_555
O1 C14 1_555 1_555
O2 C14 1_555 1_555
O3 Co1 1_555 1_555
H1 O3 1_555 1_555
N1 Co1 1_555 1_555
N2 C1 1_555 1_555
C1 C2 1_555 1_555
C2 N1 1_555 1_555
C3 C2 1_555 1_555
H2 C3 1_555 1_555
C4 C3 1_555 1_555
H3 C4 1_555 1_555
C5 C4 1_555 1_555
H4 C5 1_555 1_555
C6 C1 1_555 1_555
H5 C6 1_555 1_555
C7 N1 1_555 1_555
H6 C7 1_555 1_555
C8 N2 1_555 1_555
H7 C8 1_555 1_555
H8 C8 1_555 1_555
C9 C8 1_555 1_555
C10 C9 1_555 1_555
C11 C9 1_555 1_555
C12 C10 1_555 1_555
H9 C12 1_555 1_555
H10 C12 1_555 1_555
H11 C12 1_555 1_555
C13 C11 1_555 1_555
H12 C13 1_555 1_555
H13 C13 1_555 1_555
H14 C13 1_555 1_555
C14 C15 1_555 1_555
C15 H15 1_555 1_555
C16 O3 1_555 1_555
H16 C16 1_555 1_555
H17 C16 1_555 1_555
H18 C16 1_555 1_555
O4 C17 1_555 1_555
O1A C14A 1_555 1_555
O2A C14A 1_555 1_555
C14A C15A 1_555 1_555
C15A C15 1_555 1_555
H15A C15A 1_555 1_555
N1A C2A 1_555 1_555
N2A C1A 1_555 1_555
C1A C2A 1_555 1_555
C2A C3A 1_555 1_555
C3A H2A 1_555 1_555
C4A C3A 1_555 1_555
H3A C4A 1_555 1_555
C5A C4A 1_555 1_555
H4A C5A 1_555 1_555
C6A C1A 1_555 1_555
H5A C6A 1_555 1_555
C7A N1A 1_555 1_555
H6A C7A 1_555 1_555
C8A N2A 1_555 1_555
H7A C8A 1_555 1_555
H8A C8A 1_555 1_555
C9A C8A 1_555 1_555
C10A C11 1_555 1_555
C11A C10 1_555 1_555
C12A C10A 1_555 1_555
H9A C12A 1_555 1_555
H10A C12A 1_555 1_555
H11A C12A 1_555 1_555
C13A C11A 1_555 1_555
H12A C13A 1_555 1_555
H13A C13A 1_555 1_555
H14A C13A 1_555 1_555
O3A Co1 1_555 1_555
H1A O3A 1_555 1_555
C16A O3A 1_555 1_555
H16A C16A 1_555 1_555
H17A C16A 1_555 1_555
H18A C16A 1_555 1_555
Co1_2 O1A 1_555 1_555
Co1_3 N1A 1_555 1_555
O1A_2 Co1 1_555 1_555
N1A_2 Co1 1_555 1_555
N2 C7 1_555 1_555
C5 C6 1_555 1_555
N2A C7A 1_555 1_555
C5A C6A 1_555 1_555
C9A C10A 1_555 1_555
C9A C11A 1_555 1_555

#END
