
#######################################################################
#
#                 Cambridge Crystallographic Data Centre
#                                CCDC 
#
#######################################################################
#
# If this CIF has been generated from an entry in the Cambridge 
# Structural Database, then it will include bibliographic, chemical, 
# crystal, experimental, refinement or atomic coordinate data resulting 
# from the CCDC's data processing and validation procedures.
#
#######################################################################

data_EGOFAI
_symmetry_cell_setting           monoclinic
_symmetry_space_group_name_H-M   'C 2/c'
_symmetry_Int_Tables_number      15
_space_group_name_Hall           '-C 2yn'
loop_
_symmetry_equiv_pos_site_id
_symmetry_equiv_pos_as_xyz
1 x,y,z
2 1/2+x,1/2+y,z
3 -x,y,1/2-z
4 1/2-x,1/2+y,1/2-z
5 -x,-y,-z
6 1/2-x,1/2-y,-z
7 x,-y,1/2+z
8 1/2+x,1/2-y,1/2+z
_cell_length_a                   9.7896(8)
_cell_length_b                   11.6751(10)
_cell_length_c                   13.2753(11)
_cell_angle_alpha                90
_cell_angle_beta                 100.9250(10)
_cell_angle_gamma                90
_cell_volume                     1489.8
loop_
_atom_site_label
_atom_site_type_symbol
_atom_site_fract_x
_atom_site_fract_y
_atom_site_fract_z
H1 H 0.949(4) 0.234(3) 0.053(2)
H2 H 1.301(3) 0.077(3) 0.058(2)
H3 H 1.074(4) 0.104(3) -0.019(3)
Cu1 Cu 1.0000 0.39610(4) 0.2500
Cu2 Cu 1.5000 0.17398(4) 0.2500
N1 N 1.3046(2) 0.18246(19) 0.16671(16)
O1 O 1.2067(3) 0.3799(2) 0.34105(19)
N2 N 1.0886(2) 0.2723(2) 0.16665(18)
N3 N 1.0538(3) 0.5280(3) 0.1574(3)
O2 O 1.4104(2) 0.2950(2) 0.33699(17)
N4 N 1.1709(3) 0.5345(3) 0.1419(2)
C1 C 1.2855(3) 0.3156(3) 0.3035(2)
C2 C 1.2222(2) 0.2534(2) 0.20582(19)
C3 C 1.2489(3) 0.1240(3) 0.0824(2)
C4 C 1.1114(3) 0.1393(3) 0.0368(2)
N5 N 1.2817(4) 0.5420(3) 0.1279(3)
C5 C 1.0343(3) 0.2153(3) 0.0808(2)
H1B H 1.051(4) 0.234(3) 0.447(2)
H2B H 0.699(3) 0.077(3) 0.442(2)
H3B H 0.926(4) 0.104(3) 0.519(3)
Cu2A Cu 1.0000 0.67398(4) 0.2500
Cu2_2 Cu 0.5000 0.17398(4) 0.2500
N1B N 0.6954(2) 0.18246(19) 0.33329(16)
N1B_2 N 1.6954(2) 0.18246(19) 0.33329(16)
O1B O 0.7933(3) 0.3799(2) 0.15895(19)
N2B N 0.9114(2) 0.2723(2) 0.33335(18)
N3B N 0.9462(3) 0.5280(3) 0.3426(3)
N3A N 1.5538(3) 0.0280(3) 0.1574(3)
N3C N 1.4462(3) 0.0280(3) 0.3426(3)
O2B O 0.5896(2) 0.2950(2) 0.16301(17)
O2B_2 O 1.5896(2) 0.2950(2) 0.16301(17)
N4B N 0.8291(3) 0.5345(3) 0.3581(2)
C1B C 0.7145(3) 0.3156(3) 0.1965(2)
C2B C 0.7778(2) 0.2534(2) 0.29418(19)
C3B C 0.7511(3) 0.1240(3) 0.4176(2)
C4B C 0.8886(3) 0.1393(3) 0.4632(2)
N5B N 0.7183(4) 0.5420(3) 0.3721(3)
C5B C 0.9657(3) 0.2153(3) 0.4192(2)
loop_
_geom_bond_atom_site_label_1
_geom_bond_atom_site_label_2
_geom_bond_site_symmetry_1
_geom_bond_site_symmetry_2
H1 C5 1_555 1_555
H2 C3 1_555 1_555
H3 C4 1_555 1_555
Cu1 O1 1_555 1_555
Cu2 N1 1_555 1_555
N1 C2 1_555 1_555
O1 C1 1_555 1_555
N2 Cu1 1_555 1_555
N3 Cu1 1_555 1_555
O2 Cu2 1_555 1_555
N4 N3 1_555 1_555
C1 O2 1_555 1_555
C2 N2 1_555 1_555
C3 N1 1_555 1_555
C4 C3 1_555 1_555
N5 N4 1_555 1_555
C5 N2 1_555 1_555
H1B C5B 1_555 1_555
H2B C3B 1_555 1_555
H3B C4B 1_555 1_555
Cu2A N3 1_555 1_555
Cu2_2 N1B 1_555 1_555
N1B C2B 1_555 1_555
N1B_2 Cu2 1_555 1_555
O1B Cu1 1_555 1_555
N2B Cu1 1_555 1_555
N3B Cu1 1_555 1_555
N3A Cu2 1_555 1_555
N3C Cu2 1_555 1_555
O2B Cu2_2 1_555 1_555
O2B_2 Cu2 1_555 1_555
N4B N3B 1_555 1_555
C1B O1B 1_555 1_555
C2B N2B 1_555 1_555
C3B N1B 1_555 1_555
C4B C3B 1_555 1_555
N5B N4B 1_555 1_555
C5B N2B 1_555 1_555
C1 C2 1_555 1_555
C4 C5 1_555 1_555
Cu2A N3B 1_555 1_555
O2B C1B 1_555 1_555
C1B C2B 1_555 1_555
C4B C5B 1_555 1_555

#END
