
#######################################################################
#
#                 Cambridge Crystallographic Data Centre
#                                CCDC 
#
#######################################################################
#
# If this CIF has been generated from an entry in the Cambridge 
# Structural Database, then it will include bibliographic, chemical, 
# crystal, experimental, refinement or atomic coordinate data resulting 
# from the CCDC's data processing and validation procedures.
#
#######################################################################

data_EGOFEM
_symmetry_cell_setting           triclinic
_symmetry_space_group_name_H-M   'P -1'
_symmetry_Int_Tables_number      2
_space_group_name_Hall           '-P 1'
loop_
_symmetry_equiv_pos_site_id
_symmetry_equiv_pos_as_xyz
1 x,y,z
2 -x,-y,-z
_cell_length_a                   6.5203(13)
_cell_length_b                   8.1470(16)
_cell_length_c                   9.998(2)
_cell_angle_alpha                84.71(3)
_cell_angle_beta                 72.64(3)
_cell_angle_gamma                67.20(3)
_cell_volume                     467.136
loop_
_atom_site_label
_atom_site_type_symbol
_atom_site_fract_x
_atom_site_fract_y
_atom_site_fract_z
Cu1 Cu 0.73764(4) 0.21663(3) 0.70864(2)
O1 O 0.4196(2) 0.22603(18) 0.78468(15)
O2 O 0.2190(2) 0.0611(2) 0.89699(16)
N1 N 0.8157(3) -0.0403(2) 0.75276(16)
N2 N 0.6259(3) -0.2278(2) 0.87433(17)
N3 N 0.6060(3) 0.7512(2) 0.5400(2)
O3 O 0.7689(2) 0.27293(18) 0.91340(14)
N4 N 0.6331(3) 0.4599(2) 0.6379(2)
N5 N 0.9404(3) 0.8173(2) 0.4005(2)
C1 C 0.6272(3) -0.0743(2) 0.82044(18)
C2 C 0.3983(3) 0.0832(2) 0.83638(19)
C3 C 0.8335(4) -0.3591(3) 0.8585(2)
C4 C 0.6312(3) 0.5929(3) 0.5888(2)
C5 C 1.0377(4) -0.3370(3) 0.7895(3)
C6 C 0.7883(3) 0.7795(2) 0.4654(2)
C7 C 1.0228(4) -0.1724(3) 0.7376(2)
H1 H 0.833(4) -0.460(3) 0.897(2)
H2 H 1.185(5) -0.434(4) 0.786(3)
H3 H 1.139(5) -0.151(3) 0.697(3)
H4 H 0.9108 0.2029 0.9098
H5 H 0.6783 0.2450 0.9776
Cu1A Cu 1.26236(4) 0.78337(3) 0.29136(2)
N5A N 1.0596(3) 0.1827(2) 0.5995(2)
loop_
_geom_bond_atom_site_label_1
_geom_bond_atom_site_label_2
_geom_bond_site_symmetry_1
_geom_bond_site_symmetry_2
Cu1 O1 1_555 1_555
O1 C2 1_555 1_555
O2 C2 1_555 1_555
N1 Cu1 1_555 1_555
N2 C1 1_555 1_555
N3 C4 1_555 1_555
O3 Cu1 1_555 1_555
N4 Cu1 1_555 1_555
N5 C6 1_555 1_555
C1 N1 1_555 1_555
C2 C1 1_555 1_555
C3 N2 1_555 1_555
C4 N4 1_555 1_555
C5 C3 1_555 1_555
C6 N3 1_555 1_555
C7 N1 1_555 1_555
H1 C3 1_555 1_555
H2 C5 1_555 1_555
H3 C7 1_555 1_555
H4 O3 1_555 1_555
H5 O3 1_555 1_555
Cu1A N5 1_555 1_555
N5A Cu1 1_555 1_555
C5 C7 1_555 1_555

#END
