
#######################################################################
#
#                 Cambridge Crystallographic Data Centre
#                                CCDC 
#
#######################################################################
#
# If this CIF has been generated from an entry in the Cambridge 
# Structural Database, then it will include bibliographic, chemical, 
# crystal, experimental, refinement or atomic coordinate data resulting 
# from the CCDC's data processing and validation procedures.
#
#######################################################################

data_EGOGUD
_symmetry_cell_setting           monoclinic
_symmetry_space_group_name_H-M   'P 21/c'
_symmetry_Int_Tables_number      14
_space_group_name_Hall           '-P 2ybc'
loop_
_symmetry_equiv_pos_site_id
_symmetry_equiv_pos_as_xyz
1 x,y,z
2 -x,1/2+y,1/2-z
3 -x,-y,-z
4 x,1/2-y,1/2+z
_cell_length_a                   11.375(2)
_cell_length_b                   14.281(4)
_cell_length_c                   13.598(3)
_cell_angle_alpha                90
_cell_angle_beta                 91.462(10)
_cell_angle_gamma                90
_cell_volume                     2208.23
loop_
_atom_site_label
_atom_site_type_symbol
_atom_site_fract_x
_atom_site_fract_y
_atom_site_fract_z
Ag1 Ag 0.62998(3) 0.09551(3) 0.62308(3)
N1 N 0.4414(3) 0.0801(2) 0.5963(3)
N2 N -0.1791(3) 0.0845(2) 0.6176(2)
C1 C 0.3771(3) 0.1529(3) 0.5641(3)
C2 C 0.2566(3) 0.1531(3) 0.5640(3)
C3 C 0.1958(3) 0.0759(3) 0.5978(3)
C4 C 0.2626(3) 0.0002(3) 0.6298(3)
C5 C 0.3827(3) 0.0050(3) 0.6277(4)
C6 C 0.0662(3) 0.0765(3) 0.6045(3)
C7 C 0.0078(3) 0.0302(3) 0.6781(3)
C8 C -0.1126(3) 0.0356(3) 0.6832(3)
C9 C -0.1235(3) 0.1301(3) 0.5459(3)
C10 C -0.0040(3) 0.1271(3) 0.5362(3)
H1 H 0.418 0.206 0.539
H2 H 0.214 0.207 0.541
H3 H 0.224 -0.055 0.654
H4 H 0.428 -0.049 0.649
H5 H 0.052 -0.006 0.726
H6 H -0.151 0.003 0.735
H7 H -0.170 0.166 0.500
H8 H 0.032 0.159 0.483
Ag1_2 Ag -0.37002(3) 0.09551(3) 0.62308(3)
N2_2 N 0.8209(3) 0.0845(2) 0.6176(2)
Ag2 Ag 0.64985(3) 0.21590(3) 0.82032(3)
N3 N 0.8414(3) 0.2237(2) 0.8254(3)
N4 N 1.4599(3) 0.2142(2) 0.8127(2)
C11 C 0.9002(3) 0.2719(3) 0.7596(3)
C12 C 1.0202(3) 0.2739(3) 0.7566(3)
C13 C 1.0854(3) 0.2213(2) 0.8235(3)
C14 C 1.0235(3) 0.1710(3) 0.8927(3)
C15 C 0.9032(3) 0.1736(3) 0.8907(3)
C16 C 1.2158(3) 0.2189(3) 0.8216(3)
C17 C 1.2801(3) 0.2980(3) 0.7966(3)
C18 C 1.3992(3) 0.2928(3) 0.7928(3)
C19 C 1.3988(3) 0.1377(3) 0.8371(3)
C20 C 1.2777(3) 0.1377(3) 0.8431(3)
H9 H 0.856 0.308 0.712
H10 H 1.060 0.310 0.708
H11 H 1.066 0.135 0.941
H12 H 0.861 0.138 0.938
H13 H 1.240 0.356 0.783
H14 H 1.443 0.348 0.775
H15 H 1.441 0.081 0.851
H16 H 1.236 0.082 0.861
Ag2_2 Ag 1.64985(3) 0.21590(3) 0.82032(3)
N4_2 N 0.4599(3) 0.2142(2) 0.8127(2)
V1 V 0.32793(5) 0.46379(4) 0.58818(5)
V2 V 0.39782(5) 0.63805(4) 0.42500(5)
O1 O 0.1999(2) 0.4102(2) 0.5914(2)
O2 O 0.3522(2) 0.5165(2) 0.6936(2)
O3 O 0.3202(3) 0.54877(20) 0.4905(2)
O4 O 0.3539(3) 0.6364(2) 0.3101(2)
O5 O 0.3674(3) 0.74066(20) 0.4719(2)
O6 O 0.4465(2) 0.38255(18) 0.5663(2)
V2B V 0.60218(5) 0.36195(4) 0.57500(5)
O6B O 0.5535(2) 0.61745(18) 0.4337(2)
O7 O 0.9351(6) 0.0597(6) 0.1056(5)
H17 H 1.010(2) 0.060(6) 0.100(6)
H18 H 0.906(6) 0.081(6) 0.051(3)
loop_
_geom_bond_atom_site_label_1
_geom_bond_atom_site_label_2
_geom_bond_site_symmetry_1
_geom_bond_site_symmetry_2
Ag1 N1 1_555 1_555
N1 C1 1_555 1_555
N2 C8 1_555 1_555
C1 C2 1_555 1_555
C2 C3 1_555 1_555
C3 C4 1_555 1_555
C4 C5 1_555 1_555
C5 N1 1_555 1_555
C6 C3 1_555 1_555
C7 C6 1_555 1_555
C8 C7 1_555 1_555
C9 N2 1_555 1_555
C10 C6 1_555 1_555
Ag2 N3 1_555 1_555
N3 C11 1_555 1_555
N4 C18 1_555 1_555
C11 C12 1_555 1_555
C12 C13 1_555 1_555
C13 C14 1_555 1_555
C14 C15 1_555 1_555
C15 N3 1_555 1_555
C16 C13 1_555 1_555
C17 C16 1_555 1_555
C18 C17 1_555 1_555
C19 N4 1_555 1_555
C20 C16 1_555 1_555
V1 O1 1_555 1_555
V2 O3 1_555 1_555
O2 V1 1_555 1_555
O3 V1 1_555 1_555
O4 V2 1_555 1_555
O5 V2 1_555 1_555
O6 V1 1_555 1_555
H1 C1 1_555 1_555
H2 C2 1_555 1_555
H3 C4 1_555 1_555
H4 C5 1_555 1_555
H5 C7 1_555 1_555
H6 C8 1_555 1_555
H7 C9 1_555 1_555
H8 C10 1_555 1_555
H9 C11 1_555 1_555
H10 C12 1_555 1_555
H11 C14 1_555 1_555
H12 C15 1_555 1_555
H13 C17 1_555 1_555
H14 C18 1_555 1_555
H15 C19 1_555 1_555
H16 C20 1_555 1_555
O7 H17 1_555 1_555
H18 O7 1_555 1_555
Ag1_2 N2 1_555 1_555
N2_2 Ag1 1_555 1_555
Ag2_2 N4 1_555 1_555
N4_2 Ag2 1_555 1_555
V2B O6 1_555 1_555
O6B V2 1_555 1_555
C9 C10 1_555 1_555
C19 C20 1_555 1_555

#END
