
#######################################################################
#
#                 Cambridge Crystallographic Data Centre
#                                CCDC 
#
#######################################################################
#
# If this CIF has been generated from an entry in the Cambridge 
# Structural Database, then it will include bibliographic, chemical, 
# crystal, experimental, refinement or atomic coordinate data resulting 
# from the CCDC's data processing and validation procedures.
#
#######################################################################

data_EGOHAK
_symmetry_cell_setting           monoclinic
_symmetry_space_group_name_H-M   'P 21/c'
_symmetry_Int_Tables_number      14
_space_group_name_Hall           '-P 2ybc'
loop_
_symmetry_equiv_pos_site_id
_symmetry_equiv_pos_as_xyz
1 x,y,z
2 -x,1/2+y,1/2-z
3 -x,-y,-z
4 x,1/2-y,1/2+z
_cell_length_a                   13.5748(3)
_cell_length_b                   15.3372(4)
_cell_length_c                   14.1854(3)
_cell_angle_alpha                90
_cell_angle_beta                 114.1410(9)
_cell_angle_gamma                90
_cell_volume                     2695.09
loop_
_atom_site_label
_atom_site_type_symbol
_atom_site_fract_x
_atom_site_fract_y
_atom_site_fract_z
Ag1 Ag 0.487760(12) 0.174135(10) 0.245144(13)
N1 N 0.33176(13) 0.18835(11) 0.25318(13)
N2 N -0.36343(14) 0.15968(11) 0.22338(14)
C1 C 0.29094(15) 0.12114(13) 0.28744(16)
C2 C 0.19115(15) 0.12323(14) 0.29017(16)
C3 C 0.12703(15) 0.19754(14) 0.25645(16)
C4 C 0.16929(15) 0.26721(13) 0.22328(15)
C5 C 0.27119(15) 0.26074(13) 0.22313(15)
C6 C -0.30177(16) 0.08940(14) 0.26252(17)
C7 C -0.20374(16) 0.07682(13) 0.25543(17)
C8 C -0.16625(15) 0.13825(13) 0.20685(15)
C9 C -0.23085(15) 0.21177(13) 0.16616(16)
C10 C -0.32728(15) 0.21975(13) 0.17707(15)
C11 C 0.01750(16) 0.20242(15) 0.25874(18)
C12 C -0.05901(15) 0.12851(14) 0.20008(16)
H1 H 0.334 0.069 0.310
H2 H 0.166 0.074 0.316
H3 H 0.128 0.320 0.200
H4 H 0.300 0.310 0.201
H5 H -0.326 0.046 0.297
H6 H -0.162 0.026 0.285
H7 H -0.208 0.256 0.131
H8 H -0.370 0.271 0.150
H9 H 0.027 0.200 0.329
H10 H -0.015 0.257 0.229
H11 H -0.027 0.074 0.230
H12 H -0.070 0.130 0.129
Ag1_2 Ag -0.512240(12) 0.174135(10) 0.245144(13)
N2_2 N 0.63657(14) 0.15968(11) 0.22338(14)
Ag2 Ag 0.588881(12) 0.331330(11) 0.400315(13)
N3 N 0.45337(13) 0.34438(12) 0.44346(14)
N4 N -0.25082(14) 0.34671(12) 0.40316(14)
C13 C 0.41971(15) 0.27282(14) 0.47639(15)
C14 C 0.32752(16) 0.27207(14) 0.49544(16)
C15 C 0.26549(15) 0.34700(14) 0.48029(16)
C16 C 0.30256(17) 0.42118(14) 0.44958(18)
C17 C 0.39550(16) 0.41759(14) 0.43139(17)
C18 C -0.17653(15) 0.28334(14) 0.43513(16)
C19 C -0.07162(15) 0.29413(14) 0.44260(16)
C20 C -0.04124(14) 0.37407(14) 0.41490(15)
C21 C -0.11960(16) 0.43904(14) 0.38153(17)
C22 C -0.22197(17) 0.42378(14) 0.37673(18)
C23 C 0.16241(16) 0.34395(14) 0.49678(17)
C24 C 0.06774(15) 0.39143(14) 0.41326(16)
H13 H 0.461 0.220 0.487
H14 H 0.306 0.220 0.519
H15 H 0.264 0.475 0.441
H16 H 0.420 0.469 0.409
H17 H -0.196 0.228 0.454
H18 H -0.021 0.247 0.467
H19 H -0.102 0.495 0.362
H20 H -0.275 0.470 0.354
H21 H 0.142 0.284 0.497
H22 H 0.176 0.370 0.562
H23 H 0.065 0.374 0.347
H24 H 0.082 0.453 0.423
Ag2_2 Ag -0.411119(12) 0.331330(11) 0.400315(13)
N4_2 N 0.74918(14) 0.34671(12) 0.40316(14)
V1 V 0.34149(2) -0.07406(2) 0.48111(3)
V2 V 0.50928(2) -0.06231(2) 0.34359(3)
O1 O 0.40826(11) -0.06329(9) 0.39537(12)
O2 O 0.21134(11) -0.08802(10) 0.41544(12)
O3 O 0.39044(13) -0.15928(10) 0.55596(12)
O4 O 0.36174(11) 0.02427(9) 0.55874(11)
O5 O 0.46902(11) 0.00266(10) 0.24314(11)
O6 O 0.52521(12) -0.16026(9) 0.30539(12)
V2B V 0.49072(2) 0.06231(2) 0.65641(3)
O4B O 0.63826(11) -0.02427(9) 0.44126(11)
O7 O 0.99305(13) 0.45261(12) 0.12066(14)
H25 H 0.926 0.441 0.101
H26 H 1.031 0.419 0.101
O8 O 0.13245(15) 0.40927(12) 0.01295(15)
H27 H 0.091 0.447 -0.029
H28 H 0.193 0.423 0.011
loop_
_geom_bond_atom_site_label_1
_geom_bond_atom_site_label_2
_geom_bond_site_symmetry_1
_geom_bond_site_symmetry_2
Ag1 N1 1_555 1_555
Ag2 N3 1_555 1_555
N1 C1 1_555 1_555
N2 C6 1_555 1_555
N3 C13 1_555 1_555
N4 C18 1_555 1_555
C1 C2 1_555 1_555
C2 C3 1_555 1_555
C3 C4 1_555 1_555
C4 C5 1_555 1_555
C5 N1 1_555 1_555
C6 C7 1_555 1_555
C7 C8 1_555 1_555
C8 C9 1_555 1_555
C9 C10 1_555 1_555
C10 N2 1_555 1_555
C11 C3 1_555 1_555
C12 C8 1_555 1_555
C13 C14 1_555 1_555
C14 C15 1_555 1_555
C15 C16 1_555 1_555
C16 C17 1_555 1_555
C17 N3 1_555 1_555
C18 C19 1_555 1_555
C19 C20 1_555 1_555
C20 C21 1_555 1_555
C21 C22 1_555 1_555
C22 N4 1_555 1_555
C23 C15 1_555 1_555
C24 C20 1_555 1_555
V1 O1 1_555 1_555
V2 O1 1_555 1_555
O2 V1 1_555 1_555
O3 V1 1_555 1_555
O4 V1 1_555 1_555
O5 V2 1_555 1_555
O6 V2 1_555 1_555
H1 C1 1_555 1_555
H2 C2 1_555 1_555
H3 C4 1_555 1_555
H4 C5 1_555 1_555
H5 C6 1_555 1_555
H6 C7 1_555 1_555
H7 C9 1_555 1_555
H8 C10 1_555 1_555
H9 C11 1_555 1_555
H10 C11 1_555 1_555
H11 C12 1_555 1_555
H12 C12 1_555 1_555
H13 C13 1_555 1_555
H14 C14 1_555 1_555
H15 C16 1_555 1_555
H16 C17 1_555 1_555
H17 C18 1_555 1_555
H18 C19 1_555 1_555
H19 C21 1_555 1_555
H20 C22 1_555 1_555
H21 C23 1_555 1_555
H22 C23 1_555 1_555
H23 C24 1_555 1_555
H24 C24 1_555 1_555
O7 H25 1_555 1_555
H26 O7 1_555 1_555
O8 H27 1_555 1_555
H28 O8 1_555 1_555
Ag1_2 N2 1_555 1_555
Ag2_2 N4 1_555 1_555
N2_2 Ag1 1_555 1_555
N4_2 Ag2 1_555 1_555
V2B O4 1_555 1_555
O4B V2 1_555 1_555
C11 C12 1_555 1_555
C23 C24 1_555 1_555

#END
