
#######################################################################
#
#                 Cambridge Crystallographic Data Centre
#                                CCDC 
#
#######################################################################
#
# If this CIF has been generated from an entry in the Cambridge 
# Structural Database, then it will include bibliographic, chemical, 
# crystal, experimental, refinement or atomic coordinate data resulting 
# from the CCDC's data processing and validation procedures.
#
#######################################################################

data_EGOHEO
_symmetry_cell_setting           triclinic
_symmetry_space_group_name_H-M   'P -1'
_symmetry_Int_Tables_number      2
_space_group_name_Hall           '-P 1'
loop_
_symmetry_equiv_pos_site_id
_symmetry_equiv_pos_as_xyz
1 x,y,z
2 -x,-y,-z
_cell_length_a                   3.5800(14)
_cell_length_b                   11.839(4)
_cell_length_c                   19.321(7)
_cell_angle_alpha                89.110(7)
_cell_angle_beta                 87.719(9)
_cell_angle_gamma                86.243(8)
_cell_volume                     816.418
loop_
_atom_site_label
_atom_site_type_symbol
_atom_site_fract_x
_atom_site_fract_y
_atom_site_fract_z
Ag1 Ag 0.1801(4) 0.14142(10) 0.48822(6)
Ag2 Ag -0.2230(3) 0.26490(10) 0.85949(6)
Ag3 Ag -0.6350(4) 0.66086(9) 0.99769(7)
Ag4 Ag 0.6372(3) -0.25716(9) 0.64537(6)
V1 V -0.7516(7) 0.07443(18) 0.95047(13)
V2 V -0.2253(7) 0.43684(19) 0.44597(13)
O1 O 0.331(3) -0.0285(8) 0.5669(5)
O2 O 0.389(3) -0.0758(9) 0.6779(6)
N1 N -0.003(4) 0.1775(10) 0.6046(7)
N2 N -0.153(4) 0.2190(10) 0.7437(7)
C1 C 0.293(4) -0.0091(12) 0.6316(8)
C2 C 0.099(4) 0.0994(10) 0.6520(7)
C3 C 0.008(4) 0.1198(11) 0.7233(7)
H1 H 0.0637 0.0620 0.7568
C4 C -0.253(4) 0.2949(11) 0.6948(8)
H2 H -0.3763 0.3652 0.7081
C5 C -0.181(4) 0.2730(11) 0.6253(8)
H3 H -0.2604 0.3280 0.5917
O3 O -0.525(3) 0.4879(8) 0.9269(6)
O4 O -0.691(3) 0.4094(8) 0.8267(6)
N3 N -1.151(3) 0.7153(9) 0.7544(6)
N4 N -0.901(3) 0.6880(10) 0.8894(6)
C6 C -0.676(5) 0.4899(11) 0.8689(8)
C7 C -0.997(4) 0.6158(12) 0.7784(8)
H4 H -0.9805 0.5521 0.7489
C8 C -0.860(4) 0.6028(12) 0.8455(7)
C9 C -1.059(4) 0.7873(12) 0.8667(8)
H5 H -1.0870 0.8502 0.8968
C10 C -1.179(4) 0.7981(11) 0.7995(8)
H6 H -1.2887 0.8694 0.7851
O5 O -0.783(3) 0.2178(8) 0.9466(5)
O6 O -0.719(3) 0.0294(8) 0.8713(6)
O7 O -1.256(3) 0.0577(7) 0.9812(5)
O8 O -0.187(3) 0.2951(7) 0.4347(5)
O9 O -0.732(3) 0.4483(8) 0.4775(6)
O10 O -0.221(3) 0.4973(9) 0.3707(5)
Ag1A Ag -0.1801(4) -0.14142(10) 0.51178(6)
Ag1A_2 Ag 0.8199(4) -0.14142(10) 0.51178(6)
Ag2_2 Ag -1.2230(3) 0.26490(10) 0.85949(6)
Ag3A Ag -0.3650(4) 0.33914(9) 1.00231(7)
Ag3A_2 Ag -1.3650(4) 0.33914(9) 1.00231(7)
Ag4_2 Ag -1.3628(3) 0.74284(9) 0.64537(6)
Ag4A Ag 0.3628(3) 0.25716(9) 0.35463(6)
Ag4A_2 Ag -0.6372(3) 0.25716(9) 0.35463(6)
V1_2 V -1.7516(7) 0.07443(18) 0.95047(13)
V1A V -1.2484(7) -0.07443(18) 1.04953(13)
V2_2 V -1.2253(7) 0.43684(19) 0.44597(13)
V2A V -0.7747(7) 0.56316(19) 0.55403(13)
O1A O -0.331(3) 0.0285(8) 0.4331(5)
O1A_2 O 0.669(3) 0.0285(8) 0.4331(5)
O3A O -0.475(3) 0.5121(8) 1.0731(6)
O4_2 O 0.309(3) 0.4094(8) 0.8267(6)
N3_2 N 0.849(3) -0.2847(9) 0.7544(6)
O5_2 O 0.217(3) 0.2178(8) 0.9466(5)
O5A O -0.217(3) 0.7822(8) 1.0534(5)
O5A_2 O -1.217(3) 0.7822(8) 1.0534(5)
O7_2 O -0.256(3) 0.0577(7) 0.9812(5)
O7A O -0.744(3) -0.0577(7) 1.0188(5)
O8A O 1.187(3) -0.2951(7) 0.5653(5)
O8A_2 O 0.187(3) -0.2951(7) 0.5653(5)
O9_2 O 0.268(3) 0.4483(8) 0.4775(6)
O9A O -0.268(3) 0.5517(8) 0.5225(6)
loop_
_geom_bond_atom_site_label_1
_geom_bond_atom_site_label_2
_geom_bond_site_symmetry_1
_geom_bond_site_symmetry_2
Ag1 O1 1_555 1_555
Ag2 N2 1_555 1_555
Ag3 O3 1_555 1_555
Ag4 O2 1_555 1_555
V1 O5 1_555 1_555
V2 O8 1_555 1_555
O1 C1 1_555 1_555
O2 C1 1_555 1_555
N1 Ag1 1_555 1_555
N2 C3 1_555 1_555
C1 C2 1_555 1_555
C2 N1 1_555 1_555
C3 C2 1_555 1_555
H1 C3 1_555 1_555
C4 N2 1_555 1_555
H2 C4 1_555 1_555
C5 N1 1_555 1_555
H3 C5 1_555 1_555
O3 C6 1_555 1_555
O4 Ag2 1_555 1_555
N3 C7 1_555 1_555
N4 Ag3 1_555 1_555
C6 O4 1_555 1_555
C7 H4 1_555 1_555
C8 N4 1_555 1_555
C9 N4 1_555 1_555
H5 C9 1_555 1_555
C10 N3 1_555 1_555
H6 C10 1_555 1_555
O5 Ag2 1_555 1_555
O6 V1 1_555 1_555
O7 V1 1_555 1_555
O8 Ag1 1_555 1_555
O9 V2 1_555 1_555
O10 V2 1_555 1_555
Ag1A O1 1_555 1_555
Ag1A_2 O1 1_555 1_555
Ag2_2 O4 1_555 1_555
Ag3A O3 1_555 1_555
Ag3A_2 O5 1_555 1_555
Ag4_2 N3 1_555 1_555
Ag4A O8 1_555 1_555
Ag4A_2 O8 1_555 1_555
V1_2 O7 1_555 1_555
V1A O7 1_555 1_555
V2_2 O9 1_555 1_555
V2A O9 1_555 1_555
O1A Ag1 1_555 1_555
O1A_2 Ag1 1_555 1_555
O3A Ag3 1_555 1_555
O4_2 Ag2 1_555 1_555
N3_2 Ag4 1_555 1_555
O5_2 Ag2 1_555 1_555
O5A Ag3 1_555 1_555
O5A_2 Ag3 1_555 1_555
O7_2 V1 1_555 1_555
O7A V1 1_555 1_555
O8A Ag4 1_555 1_555
O8A_2 Ag4 1_555 1_555
O9_2 V2 1_555 1_555
O9A V2 1_555 1_555
C4 C5 1_555 1_555
C6 C8 1_555 1_555
C7 C8 1_555 1_555
C9 C10 1_555 1_555
O5 Ag2_2 1_555 1_555
O5 Ag3A 1_555 1_555
Ag1A O1A 1_555 1_555
Ag1A O8A_2 1_555 1_555
Ag1A_2 O1A_2 1_555 1_555
Ag1A_2 O8A 1_555 1_555
Ag3A O3A 1_555 1_555
Ag3A O5_2 1_555 1_555
V1A O7A 1_555 1_555
V2A O9A 1_555 1_555

#END
