
#######################################################################
#
#                 Cambridge Crystallographic Data Centre
#                                CCDC 
#
#######################################################################
#
# If this CIF has been generated from an entry in the Cambridge 
# Structural Database, then it will include bibliographic, chemical, 
# crystal, experimental, refinement or atomic coordinate data resulting 
# from the CCDC's data processing and validation procedures.
#
#######################################################################

data_EGOJER
_symmetry_cell_setting           triclinic
_symmetry_space_group_name_H-M   'P -1'
_symmetry_Int_Tables_number      2
_space_group_name_Hall           '-P 1'
loop_
_symmetry_equiv_pos_site_id
_symmetry_equiv_pos_as_xyz
1 x,y,z
2 -x,-y,-z
_cell_length_a                   11.5037(19)
_cell_length_b                   12.472(2)
_cell_length_c                   16.387(3)
_cell_angle_alpha                77.007(5)
_cell_angle_beta                 76.790(5)
_cell_angle_gamma                81.216(5)
_cell_volume                     2217.54
loop_
_atom_site_label
_atom_site_type_symbol
_atom_site_fract_x
_atom_site_fract_y
_atom_site_fract_z
Mn1 Mn 0.02416(4) 0.11467(4) 0.41781(3)
Mn2 Mn -0.05302(4) 0.29590(4) 0.21639(3)
Mn3 Mn 0.0000 0.5000 0.0000
N1 N 0.1298(3) -0.0279(2) 0.48850(17)
N2 N 0.2158(3) -0.0125(3) 0.5108(2)
N3 N 0.3002(4) 0.0018(6) 0.5322(3)
N4 N 0.0342(3) 0.2239(3) 0.5036(2)
N5 N 0.0860(3) 0.3021(3) 0.49055(19)
N6 N 0.1341(4) 0.3806(3) 0.4807(3)
N7 N -0.1033(3) 0.2441(3) 0.35860(18)
N8 N -0.1931(4) 0.2800(4) 0.3965(2)
N9 N -0.2827(7) 0.3144(9) 0.4342(4)
N10 N -0.0030(3) 0.3264(2) 0.07485(18)
N11 N -0.0124(4) 0.2548(3) 0.0402(2)
N12 N -0.0244(7) 0.1849(4) 0.0064(3)
N13 N 0.1559(2) 0.7098(2) 0.31847(17)
N14 N 0.4899(3) 0.4440(2) 0.2627(2)
N15 N 0.4515(3) 1.0402(2) 0.2723(2)
N16 N 0.7943(2) 0.7864(2) 0.2149(2)
O1 O 0.1861(2) 0.17906(19) 0.33666(15)
O2 O 0.1314(2) 0.3032(2) 0.22652(17)
O3 O -0.0732(2) 0.46788(19) 0.22725(16)
O4 O 0.0315(3) 0.5581(3) 0.10558(17)
O5 O -0.1954(3) 0.5245(3) 0.0483(2)
H1 H -0.196(6) 0.516(6) 0.000(2)
O6 O 0.9735(3) 1.12187(19) 0.21039(15)
O7 O 1.0104(2) 1.01058(19) 0.33109(16)
O8 O 0.6925(3) 1.3362(3) 0.0974(2)
O9 O 0.7587(2) 1.2954(2) 0.21837(17)
C1 C 0.1968(3) 0.2633(3) 0.2791(2)
C2 C 0.3031(3) 0.3266(2) 0.2725(2)
C3 C 0.3638(3) 0.3073(3) 0.3386(2)
H2 H 0.3420 0.2535 0.3871
C4 C 0.4566(3) 0.3679(3) 0.3326(3)
H3 H 0.4967 0.3559 0.3777
C5 C 0.4329(3) 0.4637(3) 0.1964(3)
H4 H 0.4579 0.5163 0.1478
C6 C 0.3388(3) 0.4067(3) 0.2004(2)
H5 H 0.2988 0.4213 0.1552
C7 C 0.5838(3) 0.5150(3) 0.2592(3)
H6 H 0.6389 0.5204 0.2042
H7 H 0.6292 0.4819 0.3034
C8 C 0.5271(3) 0.6303(3) 0.2719(2)
C9 C 0.4084(3) 0.6499(3) 0.3108(2)
H8 H 0.3627 0.5904 0.3306
C10 C 0.3541(3) 0.7540(3) 0.3218(2)
C11 C 0.2214(3) 0.7673(3) 0.3617(2)
H9 H 0.2088 0.7356 0.4223
H10 H 0.1916 0.8452 0.3547
C12 C 0.1044(3) 0.6187(3) 0.3611(2)
H11 H 0.1053 0.5934 0.4189
C13 C 0.0498(3) 0.5625(3) 0.3192(2)
H12 H 0.0114 0.5006 0.3490
C14 C 0.0523(3) 0.5982(3) 0.2330(2)
C15 C -0.0021(3) 0.5352(3) 0.1843(2)
C16 C 0.1068(3) 0.6927(3) 0.1906(2)
H13 H 0.1093 0.7182 0.1325
C17 C 0.1569(3) 0.7479(3) 0.2346(2)
H14 H 0.1918 0.8123 0.2066
C18 C 0.4226(3) 0.8424(3) 0.2945(2)
C19 C 0.3655(4) 0.9565(3) 0.3087(3)
H15 H 0.2959 0.9772 0.2822
H16 H 0.3384 0.9545 0.3696
C20 C 0.4561(4) 1.0959(3) 0.1929(3)
H17 H 0.4041 1.0830 0.1611
C21 C 0.5369(4) 1.1727(3) 0.1568(3)
H18 H 0.5394 1.2120 0.1011
C22 C 0.6145(3) 1.1904(3) 0.2047(2)
C23 C 0.6983(3) 1.2808(3) 0.1691(2)
C24 C 0.6094(3) 1.1295(3) 0.2866(2)
H19 H 0.6617 1.1394 0.3193
C25 C 0.5273(4) 1.0547(3) 0.3195(3)
H20 H 0.5237 1.0137 0.3747
C26 C 0.5417(3) 0.8229(3) 0.2564(3)
H21 H 0.5878 0.8822 0.2383
C27 C 0.5961(3) 0.7194(3) 0.2440(2)
C28 C 0.7264(3) 0.7027(3) 0.2003(3)
H22 H 0.7610 0.6290 0.2226
H23 H 0.7321 0.7095 0.1394
C29 C 0.8138(3) 0.7798(3) 0.2935(3)
H24 H 0.7874 0.7216 0.3371
C30 C 0.8721(3) 0.8579(3) 0.3104(2)
H25 H 0.8862 0.8522 0.3650
C31 C 0.9097(3) 0.9448(2) 0.2458(2)
C32 C 0.9702(3) 1.0343(3) 0.2643(2)
C33 C 0.8884(3) 0.9503(3) 0.1652(2)
H26 H 0.9129 1.0085 0.1210
C34 C 0.8312(3) 0.8697(3) 0.1506(2)
H27 H 0.8179 0.8728 0.0962
Mn1A Mn -0.02416(4) -0.11467(4) 0.58219(3)
Mn2A Mn 0.05302(4) -0.29590(4) 0.78361(3)
N1A N -0.1298(3) 0.0279(2) 0.51150(17)
N2A N -0.2158(3) 0.0125(3) 0.4892(2)
N3A N -0.3002(4) -0.0018(6) 0.4678(3)
N4A N -0.0342(3) -0.2239(3) 0.4964(2)
N5A N -0.0860(3) -0.3021(3) 0.50945(19)
N6A N -0.1341(4) -0.3806(3) 0.5193(3)
N7A N 0.1033(3) -0.2441(3) 0.64140(18)
N8A N 0.1931(4) -0.2800(4) 0.6035(2)
N9A N 0.2827(7) -0.3144(9) 0.5658(4)
N10A N 0.0030(3) -0.3264(2) 0.92515(18)
N11A N 0.0124(4) -0.2548(3) 0.9598(2)
N12A N 0.0244(7) -0.1849(4) 0.9936(3)
N13A N -0.1559(2) -0.7098(2) 0.68153(17)
N14A N -0.4899(3) -0.4440(2) 0.7373(2)
N15A N -0.4515(3) -1.0402(2) 0.7277(2)
N16A N -0.7943(2) -0.7864(2) 0.7851(2)
O1A O -0.1861(2) -0.17906(19) 0.66334(15)
O2A O -0.1314(2) -0.3032(2) 0.77348(17)
O3A O 0.0732(2) -0.46788(19) 0.77275(16)
O4A O -0.0315(3) -0.5581(3) 0.89442(17)
O6A O -0.9735(3) -1.12187(19) 0.78961(15)
O7A O -1.0104(2) -1.01058(19) 0.66891(16)
O8A O -0.6925(3) -1.3362(3) 0.9026(2)
O9A O -0.7587(2) -1.2954(2) 0.78163(17)
C1A C -0.1968(3) -0.2633(3) 0.7209(2)
C2A C -0.3031(3) -0.3266(2) 0.7275(2)
C3A C -0.3638(3) -0.3073(3) 0.6614(2)
H2A H -0.3420 -0.2535 0.6129
C4A C -0.4566(3) -0.3679(3) 0.6674(3)
H3A H -0.4967 -0.3559 0.6223
C5A C -0.4329(3) -0.4637(3) 0.8036(3)
H4A H -0.4579 -0.5163 0.8522
C6A C -0.3388(3) -0.4067(3) 0.7996(2)
H5A H -0.2988 -0.4213 0.8448
C7A C -0.5838(3) -0.5150(3) 0.7408(3)
H6A H -0.6389 -0.5204 0.7958
H7A H -0.6292 -0.4819 0.6966
C8A C -0.5271(3) -0.6303(3) 0.7281(2)
C9A C -0.4084(3) -0.6499(3) 0.6892(2)
H8A H -0.3627 -0.5904 0.6694
C10A C -0.3541(3) -0.7540(3) 0.6782(2)
C11A C -0.2214(3) -0.7673(3) 0.6383(2)
H9A H -0.2088 -0.7356 0.5777
H10A H -0.1916 -0.8452 0.6453
C12A C -0.1044(3) -0.6187(3) 0.6389(2)
H11A H -0.1053 -0.5934 0.5811
C13A C -0.0498(3) -0.5625(3) 0.6808(2)
H12A H -0.0114 -0.5006 0.6510
C14A C -0.0523(3) -0.5982(3) 0.7670(2)
C15A C 0.0021(3) -0.5352(3) 0.8157(2)
C16A C -0.1068(3) -0.6927(3) 0.8094(2)
H13A H -0.1093 -0.7182 0.8675
C17A C -0.1569(3) -0.7479(3) 0.7654(2)
H14A H -0.1918 -0.8123 0.7934
C18A C -0.4226(3) -0.8424(3) 0.7055(2)
C19A C -0.3655(4) -0.9565(3) 0.6913(3)
H15A H -0.2959 -0.9772 0.7178
H16A H -0.3384 -0.9545 0.6304
C20A C -0.4561(4) -1.0959(3) 0.8071(3)
H17A H -0.4041 -1.0830 0.8389
C21A C -0.5369(4) -1.1727(3) 0.8432(3)
H18A H -0.5394 -1.2120 0.8989
C22A C -0.6145(3) -1.1904(3) 0.7953(2)
C23A C -0.6983(3) -1.2808(3) 0.8309(2)
C24A C -0.6094(3) -1.1295(3) 0.7134(2)
H19A H -0.6617 -1.1394 0.6807
C25A C -0.5273(4) -1.0547(3) 0.6805(3)
H20A H -0.5237 -1.0137 0.6253
C26A C -0.5417(3) -0.8229(3) 0.7436(3)
H21A H -0.5878 -0.8822 0.7617
C27A C -0.5961(3) -0.7194(3) 0.7560(2)
C28A C -0.7264(3) -0.7027(3) 0.7997(3)
H22A H -0.7610 -0.6290 0.7774
H23A H -0.7321 -0.7095 0.8606
C29A C -0.8138(3) -0.7798(3) 0.7065(3)
H24A H -0.7874 -0.7216 0.6629
C30A C -0.8721(3) -0.8579(3) 0.6896(2)
H25A H -0.8862 -0.8522 0.6350
C31A C -0.9097(3) -0.9448(2) 0.7542(2)
C32A C -0.9702(3) -1.0343(3) 0.7357(2)
C33A C -0.8884(3) -0.9503(3) 0.8348(2)
H26A H -0.9129 -1.0085 0.8790
C34A C -0.8312(3) -0.8697(3) 0.8494(2)
H27A H -0.8179 -0.8728 0.9038
O5A O 0.1954(3) 0.4755(3) -0.0483(2)
H1A H 0.196(6) 0.484(6) 0.000(2)
Mn1_2 Mn 1.02416(4) 1.11467(4) 0.41781(3)
Mn1A_2 Mn -1.02416(4) -1.11467(4) 0.58219(3)
Mn2_2 Mn 0.94698(4) 1.29590(4) 0.21639(3)
Mn2A_2 Mn -0.94698(4) -1.29590(4) 0.78361(3)
Mn3_2 Mn 0.0000 -0.5000 1.0000
N10A_2 N 0.0030(3) 0.6736(2) -0.07485(18)
O4A_2 O -0.0315(3) 0.4419(3) -0.10558(17)
O6_2 O -0.0265(3) 0.12187(19) 0.21039(15)
O6A_2 O 0.0265(3) -0.12187(19) 0.78961(15)
O7_2 O 0.0104(2) 0.01058(19) 0.33109(16)
O7A_2 O -0.0104(2) -0.01058(19) 0.66891(16)
O9_2 O -0.2413(2) 0.2954(2) 0.21837(17)
O9A_2 O 0.2413(2) -0.2954(2) 0.78163(17)
O10 O 0.5302(7) 0.8178(6) 0.4800(4)
O11 O -0.3411(12) 0.6162(12) 0.4495(7)
O12 O 0.5909(16) 0.9136(13) 0.0422(7)
O13 O 0.6023(9) 0.6946(8) 0.0214(6)
O14 O -0.499(3) 0.5398(11) 0.4986(15)
O15 O 0.228(3) 0.914(2) 0.0262(14)
O16 O 0.2228(7) 1.0137(9) 0.1455(7)
O17 O 0.3851(15) 0.6764(18) 0.0563(8)
O14A O -0.501(3) 0.4602(11) 0.5014(15)
O18? O -0.262(2) 0.545(2) 0.4185(13)
O19? O 0.6889(17) 0.7096(14) -0.0419(10)
O20? O 0.358(3) 0.904(2) 0.0889(16)
O21? O 0.2285(17) 1.116(2) 0.1050(16)
O22? O 0.434(2) 0.766(3) 0.0804(13)
loop_
_geom_bond_atom_site_label_1
_geom_bond_atom_site_label_2
_geom_bond_site_symmetry_1
_geom_bond_site_symmetry_2
Mn1 N1 1_555 1_555
Mn2 N7 1_555 1_555
Mn3 N10 1_555 1_555
N1 N2 1_555 1_555
N2 N3 1_555 1_555
N4 Mn1 1_555 1_555
N5 N4 1_555 1_555
N6 N5 1_555 1_555
N7 Mn1 1_555 1_555
N8 N7 1_555 1_555
N9 N8 1_555 1_555
N10 Mn2 1_555 1_555
N11 N10 1_555 1_555
N12 N11 1_555 1_555
N13 C11 1_555 1_555
N14 C4 1_555 1_555
N15 C19 1_555 1_555
N16 C28 1_555 1_555
O1 Mn1 1_555 1_555
O2 Mn2 1_555 1_555
O3 Mn2 1_555 1_555
O4 Mn3 1_555 1_555
O5 Mn3 1_555 1_555
H1 O5 1_555 1_555
O6 C32 1_555 1_555
O7 C32 1_555 1_555
O8 C23 1_555 1_555
O9 C23 1_555 1_555
C1 O1 1_555 1_555
C2 C1 1_555 1_555
C3 C2 1_555 1_555
H2 C3 1_555 1_555
C4 C3 1_555 1_555
H3 C4 1_555 1_555
C5 N14 1_555 1_555
H4 C5 1_555 1_555
C6 C2 1_555 1_555
H5 C6 1_555 1_555
C7 N14 1_555 1_555
H6 C7 1_555 1_555
H7 C7 1_555 1_555
C8 C7 1_555 1_555
C9 C8 1_555 1_555
H8 C9 1_555 1_555
C10 C9 1_555 1_555
C11 C10 1_555 1_555
H9 C11 1_555 1_555
H10 C11 1_555 1_555
C12 N13 1_555 1_555
H11 C12 1_555 1_555
C13 C12 1_555 1_555
H12 C13 1_555 1_555
C14 C13 1_555 1_555
C15 O3 1_555 1_555
C16 C14 1_555 1_555
H13 C16 1_555 1_555
C17 N13 1_555 1_555
H14 C17 1_555 1_555
C18 C10 1_555 1_555
C19 C18 1_555 1_555
H15 C19 1_555 1_555
H16 C19 1_555 1_555
C20 N15 1_555 1_555
H17 C20 1_555 1_555
C21 C20 1_555 1_555
H18 C21 1_555 1_555
C22 C21 1_555 1_555
C23 C22 1_555 1_555
C24 C22 1_555 1_555
H19 C24 1_555 1_555
C25 N15 1_555 1_555
H20 C25 1_555 1_555
C26 C18 1_555 1_555
H21 C26 1_555 1_555
C27 C8 1_555 1_555
C28 C27 1_555 1_555
H22 C28 1_555 1_555
H23 C28 1_555 1_555
C29 N16 1_555 1_555
H24 C29 1_555 1_555
C30 C29 1_555 1_555
H25 C30 1_555 1_555
C31 C30 1_555 1_555
C32 C31 1_555 1_555
C33 C31 1_555 1_555
H26 C33 1_555 1_555
C34 N16 1_555 1_555
H27 C34 1_555 1_555
Mn1A N1 1_555 1_555
Mn2A N7A 1_555 1_555
N1A Mn1 1_555 1_555
N2A N1A 1_555 1_555
N3A N2A 1_555 1_555
N4A Mn1A 1_555 1_555
N5A N4A 1_555 1_555
N6A N5A 1_555 1_555
N7A Mn1A 1_555 1_555
N8A N7A 1_555 1_555
N9A N8A 1_555 1_555
N10A Mn2A 1_555 1_555
N11A N10A 1_555 1_555
N12A N11A 1_555 1_555
N13A C11A 1_555 1_555
N14A C4A 1_555 1_555
N15A C19A 1_555 1_555
N16A C28A 1_555 1_555
O1A Mn1A 1_555 1_555
O2A Mn2A 1_555 1_555
O3A Mn2A 1_555 1_555
O4A C15A 1_555 1_555
O6A C32A 1_555 1_555
O7A C32A 1_555 1_555
O8A C23A 1_555 1_555
O9A C23A 1_555 1_555
C1A O1A 1_555 1_555
C2A C1A 1_555 1_555
C3A C2A 1_555 1_555
H2A C3A 1_555 1_555
C4A C3A 1_555 1_555
H3A C4A 1_555 1_555
C5A N14A 1_555 1_555
H4A C5A 1_555 1_555
C6A C2A 1_555 1_555
H5A C6A 1_555 1_555
C7A N14A 1_555 1_555
H6A C7A 1_555 1_555
H7A C7A 1_555 1_555
C8A C7A 1_555 1_555
C9A C8A 1_555 1_555
H8A C9A 1_555 1_555
C10A C9A 1_555 1_555
C11A C10A 1_555 1_555
H9A C11A 1_555 1_555
H10A C11A 1_555 1_555
C12A N13A 1_555 1_555
H11A C12A 1_555 1_555
C13A C12A 1_555 1_555
H12A C13A 1_555 1_555
C14A C13A 1_555 1_555
C15A O3A 1_555 1_555
C16A C14A 1_555 1_555
H13A C16A 1_555 1_555
C17A N13A 1_555 1_555
H14A C17A 1_555 1_555
C18A C10A 1_555 1_555
C19A C18A 1_555 1_555
H15A C19A 1_555 1_555
H16A C19A 1_555 1_555
C20A N15A 1_555 1_555
H17A C20A 1_555 1_555
C21A C20A 1_555 1_555
H18A C21A 1_555 1_555
C22A C21A 1_555 1_555
C23A C22A 1_555 1_555
C24A C22A 1_555 1_555
H19A C24A 1_555 1_555
C25A N15A 1_555 1_555
H20A C25A 1_555 1_555
C26A C18A 1_555 1_555
H21A C26A 1_555 1_555
C27A C8A 1_555 1_555
C28A C27A 1_555 1_555
H22A C28A 1_555 1_555
H23A C28A 1_555 1_555
C29A N16A 1_555 1_555
H24A C29A 1_555 1_555
C30A C29A 1_555 1_555
H25A C30A 1_555 1_555
C31A C30A 1_555 1_555
C32A C31A 1_555 1_555
C33A C31A 1_555 1_555
H26A C33A 1_555 1_555
C34A N16A 1_555 1_555
H27A C34A 1_555 1_555
O5A Mn3 1_555 1_555
H1A O5A 1_555 1_555
Mn1_2 O7 1_555 1_555
Mn1A_2 O7A 1_555 1_555
Mn2_2 O6 1_555 1_555
Mn2A_2 O6A 1_555 1_555
Mn3_2 N10A 1_555 1_555
N10A_2 Mn3 1_555 1_555
O4A_2 Mn3 1_555 1_555
O6_2 Mn2 1_555 1_555
O6A_2 Mn2A 1_555 1_555
O7_2 Mn1 1_555 1_555
O7A_2 Mn1A 1_555 1_555
O9_2 Mn2 1_555 1_555
O9A_2 Mn2A 1_555 1_555
O2 C1 1_555 1_555
O4 C15 1_555 1_555
O9 Mn2_2 1_555 1_555
C5 C6 1_555 1_555
C14 C15 1_555 1_555
C16 C17 1_555 1_555
C24 C25 1_555 1_555
C26 C27 1_555 1_555
C33 C34 1_555 1_555
Mn1A N1A 1_555 1_555
O2A C1A 1_555 1_555
O4A Mn3_2 1_555 1_555
O9A Mn2A_2 1_555 1_555
C5A C6A 1_555 1_555
C14A C15A 1_555 1_555
C16A C17A 1_555 1_555
C24A C25A 1_555 1_555
C26A C27A 1_555 1_555
C33A C34A 1_555 1_555

#END
