
#######################################################################
#
#                 Cambridge Crystallographic Data Centre
#                                CCDC 
#
#######################################################################
#
# If this CIF has been generated from an entry in the Cambridge 
# Structural Database, then it will include bibliographic, chemical, 
# crystal, experimental, refinement or atomic coordinate data resulting 
# from the CCDC's data processing and validation procedures.
#
#######################################################################

data_EGOJAN
_symmetry_cell_setting           triclinic
_symmetry_space_group_name_H-M   'P -1'
_symmetry_Int_Tables_number      2
_space_group_name_Hall           '-P 1'
loop_
_symmetry_equiv_pos_site_id
_symmetry_equiv_pos_as_xyz
1 x,y,z
2 -x,-y,-z
_cell_length_a                   11.2421(3)
_cell_length_b                   12.7398(4)
_cell_length_c                   16.5024(5)
_cell_angle_alpha                75.9880(10)
_cell_angle_beta                 75.3790(10)
_cell_angle_gamma                81.4150(10)
_cell_volume                     2209.12
loop_
_atom_site_label
_atom_site_type_symbol
_atom_site_fract_x
_atom_site_fract_y
_atom_site_fract_z
C1 C 0.7934(3) 0.7311(3) 0.7197(2)
C2 C 0.6868(3) 0.6659(3) 0.7255(2)
C3 C 0.6272(4) 0.6860(3) 0.6590(3)
H1 H 0.6499 0.7409 0.6110
C4 C 0.5336(4) 0.6242(3) 0.6639(3)
H2 H 0.4939 0.6369 0.6188
C5 C 0.5561(4) 0.5263(3) 0.7988(3)
H3 H 0.5305 0.4718 0.8465
C6 C 0.6499(4) 0.5845(3) 0.7968(3)
H4 H 0.6884 0.5697 0.8426
C7 C 0.4045(4) 0.4751(3) 0.7364(4)
H5 H 0.3624 0.5059 0.6902
H6 H 0.3437 0.4710 0.7903
C8 C 0.4637(4) 0.3618(3) 0.7282(3)
C9 C 0.5870(4) 0.3441(3) 0.6894(3)
H7 H 0.6331 0.4037 0.6677
C10 C 0.6453(3) 0.2427(3) 0.6811(2)
C11 C 0.7818(4) 0.2325(3) 0.6422(3)
H8 H 0.8132 0.1564 0.6493
H9 H 0.7972 0.2647 0.5813
C12 C 0.8977(4) 0.3807(3) 0.6438(3)
H10 H 0.8995 0.4062 0.5857
C13 C 0.9486(4) 0.4371(3) 0.6852(3)
H11 H 0.9873 0.4992 0.6551
C14 C 0.9422(4) 0.4011(3) 0.7724(3)
C15 C 0.9916(4) 0.4655(3) 0.8208(3)
C16 C 0.8867(4) 0.3064(3) 0.8148(3)
H12 H 0.8814 0.2804 0.8732
C17 C 0.8398(4) 0.2516(3) 0.7699(3)
H13 H 0.8038 0.1875 0.7979
C18 C 0.5759(3) 0.1541(3) 0.7113(3)
C19 C 0.6371(4) 0.0423(3) 0.7003(4)
H14 H 0.6728 0.0445 0.6400
H15 H 0.7036 0.0227 0.7306
C20 C 0.5382(5) -0.0989(4) 0.8126(4)
H16 H 0.5863 -0.0861 0.8469
C21 C 0.4581(5) -0.1769(4) 0.8447(3)
H17 H 0.4529 -0.2179 0.9002
C22 C 0.3844(4) -0.1950(3) 0.7950(3)
C23 C 0.3033(4) -0.2882(3) 0.8259(3)
C24 C 0.3943(4) -0.1310(3) 0.7127(3)
H18 H 0.3448 -0.1404 0.6780
C25 C 0.4767(5) -0.0547(3) 0.6833(3)
H19 H 0.4832 -0.0116 0.6284
C26 C 0.4524(4) 0.1709(3) 0.7502(3)
H20 H 0.4060 0.1114 0.7710
C27 C 0.3951(3) 0.2725(3) 0.7593(3)
C28 C 0.2598(4) 0.2846(4) 0.8030(4)
H21 H 0.2515 0.2769 0.8640
H22 H 0.2238 0.3567 0.7807
C29 C 0.1776(4) 0.2102(3) 0.7091(3)
H23 H 0.2067 0.2683 0.6657
C30 C 0.1201(4) 0.1336(3) 0.6914(3)
H24 H 0.1084 0.1402 0.6366
C31 C 0.0796(3) 0.0461(3) 0.7562(2)
C32 C 0.0214(4) -0.0429(3) 0.7366(2)
C33 C 0.0973(4) 0.0391(3) 0.8373(3)
H25 H 0.0713 -0.0193 0.8816
C34 C 0.1536(4) 0.1193(3) 0.8520(3)
H26 H 0.1648 0.1157 0.9066
N1 N 0.8672(3) 1.0272(3) 0.5107(2)
N2 N 0.7787(4) 1.0151(3) 0.4896(2)
N3 N 0.6905(5) 1.0034(6) 0.4698(4)
N4 N 0.9603(4) 0.7818(3) 0.4954(2)
N5 N 0.9151(4) 0.7003(3) 0.5115(2)
N6 N 0.8722(5) 0.6177(4) 0.5250(4)
N7 N 1.0997(4) 0.7543(3) 0.6391(2)
N8 N 1.1912(5) 0.7214(5) 0.5987(3)
N9 N 1.2822(8) 0.6891(10) 0.5588(5)
N10 N 1.0013(3) 0.6682(3) 0.9227(2)
N11 N 1.0060(5) 0.7371(3) 0.9584(2)
N12 N 1.0121(8) 0.8040(4) 0.9929(3)
N13 N 0.8453(3) 0.2895(2) 0.6857(2)
N14 N 0.5001(3) 0.5463(2) 0.7331(2)
N15 N 0.5488(3) -0.0410(3) 0.7332(3)
N16 N 0.1921(3) 0.2018(3) 0.7885(2)
Mn1 Mn 0.97090(5) 0.88530(4) 0.58226(3)
Mn2 Mn 1.04811(5) 0.70075(4) 0.78163(3)
Mn3 Mn 1.0000 0.5000 1.0000
O1 O 0.8036(3) 0.8165(2) 0.66343(18)
O2 O 0.8582(3) 0.6919(2) 0.7726(2)
O3 O 1.0679(3) 0.5307(2) 0.77640(19)
O4 O 0.9510(3) 0.4456(3) 0.89945(19)
O5 O 1.1983(3) 0.4667(3) 0.9429(2)
H27 H 1.247(5) 0.422(3) 0.972(4)
H28 H 1.222(5) 0.530(2) 0.939(4)
O6 O 0.0247(3) -0.1310(2) 0.78760(19)
O7 O -0.0230(3) -0.0167(2) 0.67163(18)
O8 O 0.3096(4) -0.3480(3) 0.8961(2)
O9 O 0.2435(3) -0.3000(3) 0.7757(2)
C1A C 1.2066(3) 0.2689(3) 1.2803(2)
C2A C 1.3132(3) 0.3341(3) 1.2745(2)
C3A C 1.3728(4) 0.3140(3) 1.3410(3)
H1A H 1.3501 0.2591 1.3890
C4A C 1.4664(4) 0.3758(3) 1.3361(3)
H2A H 1.5061 0.3631 1.3812
C5A C 1.4439(4) 0.4737(3) 1.2012(3)
H3A H 1.4695 0.5282 1.1535
C6A C 1.3501(4) 0.4155(3) 1.2032(3)
H4A H 1.3116 0.4303 1.1574
C7A C 1.5955(4) 0.5249(3) 1.2636(4)
H5A H 1.6376 0.4941 1.3098
H6A H 1.6563 0.5290 1.2097
C8A C 1.5363(4) 0.6382(3) 1.2718(3)
C9A C 1.4130(4) 0.6559(3) 1.3106(3)
H7A H 1.3669 0.5963 1.3323
C10A C 1.3547(3) 0.7573(3) 1.3189(2)
C11A C 1.2182(4) 0.7675(3) 1.3578(3)
H8A H 1.1868 0.8436 1.3507
H9A H 1.2028 0.7353 1.4187
C12A C 1.1023(4) 0.6193(3) 1.3562(3)
H10A H 1.1005 0.5938 1.4143
C13A C 1.0514(4) 0.5629(3) 1.3148(3)
H11A H 1.0127 0.5008 1.3449
C14A C 1.0578(4) 0.5989(3) 1.2276(3)
C15A C 1.0084(4) 0.5345(3) 1.1792(3)
C16A C 1.1133(4) 0.6936(3) 1.1852(3)
H12A H 1.1186 0.7196 1.1268
C17A C 1.1602(4) 0.7484(3) 1.2301(3)
H13A H 1.1962 0.8125 1.2021
C18A C 1.4241(3) 0.8459(3) 1.2887(3)
C19A C 1.3629(4) 0.9577(3) 1.2997(4)
H14A H 1.3272 0.9555 1.3600
H15A H 1.2964 0.9773 1.2694
C20A C 1.4618(5) 1.0989(4) 1.1874(4)
H16A H 1.4137 1.0861 1.1531
C21A C 1.5419(5) 1.1769(4) 1.1553(3)
H17A H 1.5471 1.2179 1.0998
C22A C 1.6156(4) 1.1950(3) 1.2050(3)
C23A C 1.6967(4) 1.2882(3) 1.1741(3)
C24A C 1.6057(4) 1.1310(3) 1.2873(3)
H18A H 1.6552 1.1404 1.3220
C25A C 1.5233(5) 1.0547(3) 1.3167(3)
H19A H 1.5168 1.0116 1.3716
C26A C 1.5476(4) 0.8291(3) 1.2498(3)
H20A H 1.5940 0.8886 1.2290
C27A C 1.6049(3) 0.7275(3) 1.2407(3)
C28A C 1.7402(4) 0.7154(4) 1.1970(4)
H21A H 1.7485 0.7231 1.1360
H22A H 1.7762 0.6433 1.2193
C29A C 1.8224(4) 0.7898(3) 1.2909(3)
H23A H 1.7933 0.7317 1.3343
C30A C 1.8799(4) 0.8664(3) 1.3086(3)
H24A H 1.8916 0.8598 1.3634
C31A C 1.9204(3) 0.9539(3) 1.2438(2)
C32A C 1.9786(4) 1.0429(3) 1.2634(2)
C33A C 1.9027(4) 0.9609(3) 1.1627(3)
H25A H 1.9287 1.0193 1.1184
C34A C 1.8464(4) 0.8807(3) 1.1480(3)
H26A H 1.8352 0.8843 1.0934
N1A N 1.1328(3) -0.0272(3) 1.4893(2)
N2A N 1.2213(4) -0.0151(3) 1.5104(2)
N3A N 1.3095(5) -0.0034(6) 1.5302(4)
N4A N 1.0397(4) 0.2182(3) 1.5046(2)
N5A N 1.0849(4) 0.2997(3) 1.4885(2)
N6A N 1.1278(5) 0.3823(4) 1.4750(4)
N7A N 0.9003(4) 0.2457(3) 1.3609(2)
N8A N 0.8088(5) 0.2786(5) 1.4013(3)
N9A N 0.7178(8) 0.3109(10) 1.4412(5)
N10A N 0.9987(3) 0.3318(3) 1.0773(2)
N11A N 0.9940(5) 0.2629(3) 1.0416(2)
N12A N 0.9879(8) 0.1960(4) 1.0071(3)
N13A N 1.1547(3) 0.7105(2) 1.3143(2)
N14A N 1.4999(3) 0.4537(2) 1.2669(2)
N15A N 1.4512(3) 1.0410(3) 1.2668(3)
N16A N 1.8079(3) 0.7982(3) 1.2115(2)
Mn1A Mn 1.02910(5) 0.11470(4) 1.41774(3)
Mn2A Mn 0.95189(5) 0.29925(4) 1.21837(3)
O1A O 1.1964(3) 0.1835(2) 1.33657(18)
O2A O 1.1418(3) 0.3081(2) 1.2274(2)
O3A O 0.9321(3) 0.4693(2) 1.22360(19)
O4A O 1.0490(3) 0.5544(3) 1.10055(19)
O5A O 0.8017(3) 0.5333(3) 1.0571(2)
H27A H 0.753(5) 0.578(3) 1.028(4)
H28A H 0.778(5) 0.470(2) 1.061(4)
O6A O 1.9753(3) 1.1310(2) 1.21240(19)
O7A O 2.0230(3) 1.0167(2) 1.32837(18)
O8A O 1.6904(4) 1.3480(3) 1.1039(2)
O9A O 1.7565(3) 1.3000(3) 1.2243(2)
N1_2 N 0.8672(3) 0.0272(3) 1.5107(2)
N1A_2 N 1.1328(3) 0.9728(3) 0.4893(2)
Mn1_2 Mn -0.02910(5) -0.11470(4) 0.58226(3)
Mn1_3 Mn 0.97090(5) -0.11470(4) 1.58226(3)
Mn1A_2 Mn 1.02910(5) 1.11470(4) 0.41774(3)
Mn1A_3 Mn 2.02910(5) 1.11470(4) 1.41774(3)
Mn2_2 Mn 0.04811(5) -0.29925(4) 0.78163(3)
Mn2A_2 Mn 1.95189(5) 1.29925(4) 1.21837(3)
O6_2 O 1.0247(3) 0.8690(2) 0.78760(19)
O6A_2 O 0.9753(3) 0.1310(2) 1.21240(19)
O7_2 O 0.9770(3) 0.9833(2) 0.67163(18)
O7A_2 O 1.0230(3) 0.0167(2) 1.32837(18)
O9_2 O 1.2435(3) 0.7000(3) 0.7757(2)
O9A_2 O 0.7565(3) 0.3000(3) 1.2243(2)
Cl1 Cl 0.7063(3) 0.0235(2) 0.95424(16)
O10 O 0.7948(13) 0.0726(10) 0.9697(9)
O11 O 0.7623(12) -0.0208(18) 0.8795(9)
O12 O 0.6625(12) -0.0656(13) 1.0192(8)
O13 O 0.6212(13) 0.0996(13) 0.9176(10)
O14 O 0.4584(8) 0.1849(7) 0.5279(5)
O15 O 0.3030(8) 0.2910(7) 1.0500(6)
O16 O 0.576(2) 0.4063(17) 0.9753(11)
O17 O 0.503(4) 0.264(2) 0.9271(15)
O18 O 0.331(2) 0.376(3) 0.5572(14)
O19? O 0.366(2) 0.298(2) 0.9865(18)
O20? O 0.312(6) 0.442(5) 0.5426(19)
O21? O 0.260(4) 0.439(4) 0.588(2)
O22? O 0.612(4) 0.331(3) 0.9495(18)
O23? O 0.483(3) 0.5351(12) 0.4968(16)
loop_
_geom_bond_atom_site_label_1
_geom_bond_atom_site_label_2
_geom_bond_site_symmetry_1
_geom_bond_site_symmetry_2
C1 C2 1_555 1_555
C2 C3 1_555 1_555
C3 H1 1_555 1_555
C4 C3 1_555 1_555
H2 C4 1_555 1_555
C5 H3 1_555 1_555
C6 C2 1_555 1_555
H4 C6 1_555 1_555
C7 H5 1_555 1_555
H6 C7 1_555 1_555
C8 C7 1_555 1_555
C9 C8 1_555 1_555
H7 C9 1_555 1_555
C10 C9 1_555 1_555
C11 C10 1_555 1_555
H8 C11 1_555 1_555
H9 C11 1_555 1_555
C12 H10 1_555 1_555
C13 C12 1_555 1_555
H11 C13 1_555 1_555
C14 C13 1_555 1_555
C15 C14 1_555 1_555
C16 C14 1_555 1_555
H12 C16 1_555 1_555
C17 C16 1_555 1_555
H13 C17 1_555 1_555
C18 C10 1_555 1_555
C19 C18 1_555 1_555
H14 C19 1_555 1_555
H15 C19 1_555 1_555
C20 H16 1_555 1_555
C21 C20 1_555 1_555
H17 C21 1_555 1_555
C22 C21 1_555 1_555
C23 C22 1_555 1_555
C24 C22 1_555 1_555
H18 C24 1_555 1_555
C25 C24 1_555 1_555
H19 C25 1_555 1_555
C26 C18 1_555 1_555
H20 C26 1_555 1_555
C27 C8 1_555 1_555
C28 C27 1_555 1_555
H21 C28 1_555 1_555
H22 C28 1_555 1_555
C29 H23 1_555 1_555
C30 C29 1_555 1_555
H24 C30 1_555 1_555
C31 C30 1_555 1_555
C32 C31 1_555 1_555
C33 C31 1_555 1_555
H25 C33 1_555 1_555
C34 C33 1_555 1_555
H26 C34 1_555 1_555
N1 N2 1_555 1_555
N2 N3 1_555 1_555
N4 N5 1_555 1_555
N5 N6 1_555 1_555
N7 N8 1_555 1_555
N8 N9 1_555 1_555
N10 N11 1_555 1_555
N11 N12 1_555 1_555
N13 C11 1_555 1_555
N14 C4 1_555 1_555
N15 C19 1_555 1_555
N16 C28 1_555 1_555
Mn1 N1 1_555 1_555
Mn2 N7 1_555 1_555
Mn3 N10 1_555 1_555
O1 C1 1_555 1_555
O2 C1 1_555 1_555
O3 C15 1_555 1_555
O4 C15 1_555 1_555
O5 Mn3 1_555 1_555
H27 O5 1_555 1_555
H28 O5 1_555 1_555
O6 C32 1_555 1_555
O7 C32 1_555 1_555
O8 C23 1_555 1_555
O9 C23 1_555 1_555
Cl1 O10 1_555 1_555
O11 Cl1 1_555 1_555
O12 Cl1 1_555 1_555
O13 Cl1 1_555 1_555
C1A C2A 1_555 1_555
C2A C3A 1_555 1_555
C3A H1A 1_555 1_555
C4A C3A 1_555 1_555
H2A C4A 1_555 1_555
C5A H3A 1_555 1_555
C6A C2A 1_555 1_555
H4A C6A 1_555 1_555
C7A H5A 1_555 1_555
H6A C7A 1_555 1_555
C8A C7A 1_555 1_555
C9A C8A 1_555 1_555
H7A C9A 1_555 1_555
C10A C9A 1_555 1_555
C11A C10A 1_555 1_555
H8A C11A 1_555 1_555
H9A C11A 1_555 1_555
C12A H10A 1_555 1_555
C13A C12A 1_555 1_555
H11A C13A 1_555 1_555
C14A C13A 1_555 1_555
C15A C14A 1_555 1_555
C16A C14A 1_555 1_555
H12A C16A 1_555 1_555
C17A C16A 1_555 1_555
H13A C17A 1_555 1_555
C18A C10A 1_555 1_555
C19A C18A 1_555 1_555
H14A C19A 1_555 1_555
H15A C19A 1_555 1_555
C20A H16A 1_555 1_555
C21A C20A 1_555 1_555
H17A C21A 1_555 1_555
C22A C21A 1_555 1_555
C23A C22A 1_555 1_555
C24A C22A 1_555 1_555
H18A C24A 1_555 1_555
C25A C24A 1_555 1_555
H19A C25A 1_555 1_555
C26A C18A 1_555 1_555
H20A C26A 1_555 1_555
C27A C8A 1_555 1_555
C28A C27A 1_555 1_555
H21A C28A 1_555 1_555
H22A C28A 1_555 1_555
C29A H23A 1_555 1_555
C30A C29A 1_555 1_555
H24A C30A 1_555 1_555
C31A C30A 1_555 1_555
C32A C31A 1_555 1_555
C33A C31A 1_555 1_555
H25A C33A 1_555 1_555
C34A C33A 1_555 1_555
H26A C34A 1_555 1_555
N1A N2A 1_555 1_555
N2A N3A 1_555 1_555
N4A N5A 1_555 1_555
N5A N6A 1_555 1_555
N7A N8A 1_555 1_555
N8A N9A 1_555 1_555
N10A Mn3 1_555 1_555
N11A N10A 1_555 1_555
N12A N11A 1_555 1_555
N13A C11A 1_555 1_555
N14A C4A 1_555 1_555
N15A C19A 1_555 1_555
N16A C28A 1_555 1_555
Mn1A N1A 1_555 1_555
Mn2A N7A 1_555 1_555
O1A C1A 1_555 1_555
O2A C1A 1_555 1_555
O3A C15A 1_555 1_555
O4A Mn3 1_555 1_555
O5A Mn3 1_555 1_555
H27A O5A 1_555 1_555
H28A O5A 1_555 1_555
O6A C32A 1_555 1_555
O7A C32A 1_555 1_555
O8A C23A 1_555 1_555
O9A C23A 1_555 1_555
N1_2 Mn1A 1_555 1_555
N1A_2 Mn1 1_555 1_555
Mn1_2 O7 1_555 1_555
Mn1_3 N1A 1_555 1_555
Mn1A_2 N1 1_555 1_555
Mn1A_3 O7A 1_555 1_555
Mn2_2 O6 1_555 1_555
Mn2A_2 O6A 1_555 1_555
O6_2 Mn2 1_555 1_555
O6A_2 Mn2A 1_555 1_555
O7_2 Mn1 1_555 1_555
O7A_2 Mn1A 1_555 1_555
O9_2 Mn2 1_555 1_555
O9A_2 Mn2A 1_555 1_555
C5 C6 1_555 1_555
C5 N14 1_555 1_555
C7 N14 1_555 1_555
C12 N13 1_555 1_555
C17 N13 1_555 1_555
C20 N15 1_555 1_555
C25 N15 1_555 1_555
C26 C27 1_555 1_555
C29 N16 1_555 1_555
C34 N16 1_555 1_555
N4 Mn1 1_555 1_555
N7 Mn1 1_555 1_555
N10 Mn2 1_555 1_555
Mn1 O1 1_555 1_555
Mn2 O2 1_555 1_555
Mn2 O3 1_555 1_555
Mn3 O4 1_555 1_555
O9 Mn2_2 1_555 1_555
C5A C6A 1_555 1_555
C5A N14A 1_555 1_555
C7A N14A 1_555 1_555
C12A N13A 1_555 1_555
C15A O4A 1_555 1_555
C17A N13A 1_555 1_555
C20A N15A 1_555 1_555
C25A N15A 1_555 1_555
C26A C27A 1_555 1_555
C29A N16A 1_555 1_555
C34A N16A 1_555 1_555
N4A Mn1A 1_555 1_555
N7A Mn1A 1_555 1_555
N10A Mn2A 1_555 1_555
Mn1A O1A 1_555 1_555
Mn2A O2A 1_555 1_555
Mn2A O3A 1_555 1_555
O9A Mn2A_2 1_555 1_555
N1_2 Mn1_3 1_555 1_555
N1A_2 Mn1A_2 1_555 1_555

#END
