
#######################################################################
#
#                 Cambridge Crystallographic Data Centre
#                                CCDC 
#
#######################################################################
#
# If this CIF has been generated from an entry in the Cambridge 
# Structural Database, then it will include bibliographic, chemical, 
# crystal, experimental, refinement or atomic coordinate data resulting 
# from the CCDC's data processing and validation procedures.
#
#######################################################################

data_EGOKUH
_symmetry_cell_setting           orthorhombic
_symmetry_space_group_name_H-M   'P 21 21 2'
_symmetry_Int_Tables_number      18
_space_group_name_Hall           'P 2 2ab'
loop_
_symmetry_equiv_pos_site_id
_symmetry_equiv_pos_as_xyz
1 x,y,z
2 -x,-y,z
3 1/2-x,1/2+y,-z
4 1/2+x,1/2-y,-z
_cell_length_a                   21.6208(4)
_cell_length_b                   8.3474(2)
_cell_length_c                   11.6482(2)
_cell_angle_alpha                90
_cell_angle_beta                 90
_cell_angle_gamma                90
_cell_volume                     2102.24
loop_
_atom_site_label
_atom_site_type_symbol
_atom_site_fract_x
_atom_site_fract_y
_atom_site_fract_z
Mn1 Mn -0.20746(4) 1.10124(12) 0.01101(8)
O1 O -0.1426(2) 1.2974(6) 0.0167(5)
O2 O -0.22250(19) 0.8404(5) 0.0039(5)
O3 O -0.18737(19) 0.5957(5) -0.0131(4)
O5 O 0.0157(4) 0.8207(19) -0.0131(9)
O6 O 0.0314(5) 0.731(2) 0.1396(13)
O8 O -0.11513(19) 0.9747(5) 0.0086(5)
H1 H -0.0804 1.0129 0.0023
N1 N -0.2119(3) 1.0963(9) 0.2048(4)
N2 N -0.2110(3) 1.1010(9) 0.8153(4)
C1 C -0.1597(4) 1.1043(16) 0.2664(6)
H2 H -0.1224 1.1106 0.2269
C2 C -0.1577(4) 1.1038(18) 0.3845(7)
H3 H -0.1197 1.1111 0.4218
C3 C -0.2113(4) 1.0927(12) 0.4483(6)
C4 C -0.2653(5) 1.0798(19) 0.3849(7)
H4 H -0.3031 1.0726 0.4224
C5 C -0.2634(4) 1.0776(16) 0.2649(7)
H5 H -0.3002 1.0622 0.2253
C6 C -0.1637(4) 1.1584(18) 0.7546(7)
H6 H -0.1303 1.2033 0.7934
C7 C -0.1625(5) 1.1535(18) 0.6367(8)
H7 H -0.1280 1.1912 0.5975
C8 C -0.2128(4) 1.0922(12) 0.5750(6)
C9 C -0.2602(4) 1.0436(13) 0.6376(6)
H8 H -0.2952 1.0050 0.6004
C10 C -0.2597(4) 1.0479(13) 0.7537(7)
H9 H -0.2947 1.0127 0.7929
C11 C -0.1780(3) 0.7426(9) -0.0041(6)
C12 C -0.1123(3) 0.8031(8) -0.0085(7)
H10 H -0.0945 0.7801 -0.0841
C13 C -0.0732(4) 0.7260(11) 0.0834(8)
H11 H -0.0789 0.6108 0.0809
H12 H -0.0867 0.7635 0.1581
C14 C -0.0030(5) 0.7660(11) 0.0673(12)
Mn1B Mn -0.29254(4) 1.60124(12) -0.01101(8)
Mn1B_2 Mn -0.29254(4) 0.60124(12) -0.01101(8)
Mn1_2 Mn -0.20746(4) 1.10124(12) 1.01101(8)
Mn1_3 Mn -0.20746(4) 1.10124(12) -0.98899(8)
O1B O -0.3574(2) 1.7974(6) -0.0167(5)
O2B O -0.27750(19) 1.3404(5) -0.0039(5)
O2_2 O -0.22250(19) 1.8404(5) 0.0039(5)
O3B O -0.31263(19) 1.0957(5) 0.0131(4)
O3_2 O -0.18737(19) 1.5957(5) -0.0131(4)
O5B O -0.5157(4) 1.3207(19) 0.0131(9)
O6B O -0.5314(5) 1.231(2) -0.1396(13)
O8B O -0.38487(19) 1.4747(5) -0.0086(5)
H1B H -0.4196 1.5129 -0.0023
N1_2 N -0.2119(3) 1.0963(9) -0.7952(4)
N1B N -0.2881(3) 1.5963(9) -0.2048(4)
N2_2 N -0.2110(3) 1.1010(9) -0.1847(4)
N2B N -0.2890(3) 1.6010(9) 0.1847(4)
C1_2 C -0.1597(4) 1.1043(16) -0.7336(6)
H2_2 H -0.1224 1.1106 -0.7731
C2_2 C -0.1577(4) 1.1038(18) -0.6155(7)
H3_2 H -0.1197 1.1111 -0.5782
C3_2 C -0.2113(4) 1.0927(12) -0.5517(6)
C4_2 C -0.2653(5) 1.0798(19) -0.6151(7)
H4_2 H -0.3031 1.0726 -0.5776
C5_2 C -0.2634(4) 1.0776(16) -0.7351(7)
H5_2 H -0.3002 1.0622 -0.7747
C6_2 C -0.1637(4) 1.1584(18) -0.2454(7)
H6_2 H -0.1303 1.2033 -0.2066
C7_2 C -0.1625(5) 1.1535(18) -0.3633(8)
H7_2 H -0.1280 1.1912 -0.4025
C8_2 C -0.2128(4) 1.0922(12) -0.4250(6)
C9_2 C -0.2602(4) 1.0436(13) -0.3624(6)
H8_2 H -0.2952 1.0050 -0.3996
C10_2 C -0.2597(4) 1.0479(13) -0.2463(7)
H9_2 H -0.2947 1.0127 -0.2071
C11B C -0.3220(3) 1.2426(9) 0.0041(6)
C12B C -0.3877(3) 1.3031(8) 0.0085(7)
H10B H -0.4055 1.2801 0.0841
C13B C -0.4268(4) 1.2260(11) -0.0834(8)
H11B H -0.4211 1.1108 -0.0809
H12B H -0.4133 1.2635 -0.1581
C14B C -0.4970(5) 1.2660(11) -0.0673(12)
O4 O -0.4191(8) 1.029(2) 0.2988(14)
O7 O 0.0000 1.0000 0.382(2)
O9 O -0.4144(7) 1.0079(17) 0.5314(12)
O10 O -0.5080(11) 1.247(2) 0.2567(16)
O11 O -0.5000 1.0000 0.6855(16)
loop_
_geom_bond_atom_site_label_1
_geom_bond_atom_site_label_2
_geom_bond_site_symmetry_1
_geom_bond_site_symmetry_2
Mn1 O1 1_555 1_555
O2 Mn1 1_555 1_555
O3 C11 1_555 1_555
O5 C14 1_555 1_555
O6 C14 1_555 1_555
O8 Mn1 1_555 1_555
H1 O8 1_555 1_555
N1 Mn1 1_555 1_555
N2 C6 1_555 1_555
C1 N1 1_555 1_555
H2 C1 1_555 1_555
C2 C1 1_555 1_555
H3 C2 1_555 1_555
C3 C2 1_555 1_555
C4 C3 1_555 1_555
H4 C4 1_555 1_555
C5 N1 1_555 1_555
H5 C5 1_555 1_555
C6 H6 1_555 1_555
C7 C6 1_555 1_555
H7 C7 1_555 1_555
C8 C3 1_555 1_555
C9 C8 1_555 1_555
H8 C9 1_555 1_555
C10 N2 1_555 1_555
H9 C10 1_555 1_555
C11 O2 1_555 1_555
C12 O8 1_555 1_555
H10 C12 1_555 1_555
C13 C12 1_555 1_555
H11 C13 1_555 1_555
H12 C13 1_555 1_555
C14 C13 1_555 1_555
Mn1B O1B 1_555 1_555
Mn1B_2 O2 1_555 1_555
Mn1_2 N2 1_555 1_555
Mn1_3 N1_2 1_555 1_555
O2B Mn1 1_555 1_555
O2_2 Mn1B 1_555 1_555
O3B Mn1 1_555 1_555
O3_2 Mn1B 1_555 1_555
O5B C14B 1_555 1_555
O6B C14B 1_555 1_555
O8B Mn1B 1_555 1_555
H1B O8B 1_555 1_555
N1_2 C1_2 1_555 1_555
N1B Mn1B 1_555 1_555
N2_2 Mn1 1_555 1_555
N2B Mn1B 1_555 1_555
C1_2 H2_2 1_555 1_555
C2_2 C1_2 1_555 1_555
H3_2 C2_2 1_555 1_555
C3_2 C2_2 1_555 1_555
C4_2 C3_2 1_555 1_555
H4_2 C4_2 1_555 1_555
C5_2 N1_2 1_555 1_555
H5_2 C5_2 1_555 1_555
C6_2 N2_2 1_555 1_555
H6_2 C6_2 1_555 1_555
C7_2 C6_2 1_555 1_555
H7_2 C7_2 1_555 1_555
C8_2 C3_2 1_555 1_555
C9_2 C8_2 1_555 1_555
H8_2 C9_2 1_555 1_555
C10_2 N2_2 1_555 1_555
H9_2 C10_2 1_555 1_555
C11B O2B 1_555 1_555
C12B O8B 1_555 1_555
H10B C12B 1_555 1_555
C13B C12B 1_555 1_555
H11B C13B 1_555 1_555
H12B C13B 1_555 1_555
C14B C13B 1_555 1_555
O3 Mn1B_2 1_555 1_555
C4 C5 1_555 1_555
C7 C8 1_555 1_555
C9 C10 1_555 1_555
C11 C12 1_555 1_555
Mn1B O2B 1_555 1_555
O3B C11B 1_555 1_555
C4_2 C5_2 1_555 1_555
C7_2 C8_2 1_555 1_555
C9_2 C10_2 1_555 1_555
C11B C12B 1_555 1_555

#END
