
#######################################################################
#
#                 Cambridge Crystallographic Data Centre
#                                CCDC 
#
#######################################################################
#
# If this CIF has been generated from an entry in the Cambridge 
# Structural Database, then it will include bibliographic, chemical, 
# crystal, experimental, refinement or atomic coordinate data resulting 
# from the CCDC's data processing and validation procedures.
#
#######################################################################

data_EGOXOO
_symmetry_cell_setting           triclinic
_symmetry_space_group_name_H-M   'P -1'
_symmetry_Int_Tables_number      2
_space_group_name_Hall           '-P 1'
loop_
_symmetry_equiv_pos_site_id
_symmetry_equiv_pos_as_xyz
1 x,y,z
2 -x,-y,-z
_cell_length_a                   9.0534(8)
_cell_length_b                   9.8512(8)
_cell_length_c                   12.5830(11)
_cell_angle_alpha                102.5440(10)
_cell_angle_beta                 103.1040(10)
_cell_angle_gamma                109.4140(10)
_cell_volume                     977.191
loop_
_atom_site_label
_atom_site_type_symbol
_atom_site_fract_x
_atom_site_fract_y
_atom_site_fract_z
Sm1 Sm 0.27768(2) 1.040025(19) -0.026039(15)
C1 C 0.4833(5) 1.2623(5) 0.3494(3)
C2 C 0.6330(5) 1.3880(5) 0.3939(4)
H1 H 0.6859 1.4245 0.3443
C3 C 0.7045(5) 1.4598(5) 0.5118(4)
C4 C 0.6267(6) 1.4050(6) 0.5849(4)
H2 H 0.6748 1.4523 0.6641
C5 C 0.4769(7) 1.2798(6) 0.5412(4)
C6 C 0.4067(6) 1.2084(6) 0.4239(4)
H3 H 0.3070 1.1233 0.3947
C7 C 0.4058(5) 1.1891(4) 0.2217(3)
C8 C 0.8612(6) 1.5989(5) 0.5595(4)
C9 C -0.1218(4) 0.5641(4) -0.0974(3)
C10 C -0.2593(5) 0.4667(4) -0.0813(3)
H4 H -0.3252 0.5048 -0.0481
C11 C -0.2985(4) 0.3105(4) -0.1155(3)
C12 C -0.2028(5) 0.2548(4) -0.1681(3)
H5 H -0.2296 0.1509 -0.1919
C13 C -0.0667(5) 0.3532(4) -0.1856(3)
C14 C -0.0245(5) 0.5086(4) -0.1491(3)
H6 H 0.0680 0.5748 -0.1593
C15 C -0.0806(5) 0.7315(4) -0.0544(3)
C16 C -0.4390(5) 0.2100(4) -0.0890(3)
H7 H -0.031(8) 0.970(7) -0.205(5)
H9 H 0.163(9) 0.789(8) -0.250(6)
O1 O 0.2621(3) 1.0868(3) 0.1794(2)
O2 O 0.4899(3) 1.2316(3) 0.1576(2)
O3 O 0.9200(5) 1.6406(5) 0.4798(3)
H11 H 0.9846 1.7301 0.5063
O4 O 0.9262(4) 1.6686(4) 0.6612(3)
O5 O 0.3974(7) 1.2247(6) 0.6128(4)
H12 H 0.4163 1.2950 0.6697
O6 O 0.0497(3) 0.8237(3) -0.0592(3)
O7 O -0.1807(4) 0.7698(3) -0.0149(3)
O8 O -0.4303(3) 0.0981(3) -0.0572(2)
O9 O -0.5654(3) 0.2389(3) -0.0953(3)
O10 O 0.0231(4) 0.2898(3) -0.2375(3)
H13 H 0.1126 0.3564 -0.2286
O11 O 0.0581(4) 1.0223(3) -0.2062(3)
H14 H 0.0633 1.1076 -0.2039
O12 O 0.2552(4) 0.8606(4) -0.2042(3)
H15 H 0.3121 0.8134 -0.1888
Sm1A Sm -0.27768(2) 0.959975(19) 0.026039(15)
Sm1_2 Sm -0.72232(2) 0.040025(19) -0.026039(15)
Sm1A_2 Sm -0.27768(2) -0.040025(19) 0.026039(15)
O7A O 0.1807(4) 1.2302(3) 0.0149(3)
O8_2 O 0.5697(3) 1.0981(3) -0.0572(2)
O8A O 0.4303(3) 0.9019(3) 0.0572(2)
O9_2 O 0.4346(3) 1.2389(3) -0.0953(3)
H8 H 0.413(5) 0.531(3) 0.838(4)
H10 H 0.389(7) 0.401(6) 0.847(4)
O13 O 0.3513(5) 0.4452(5) 0.8103(4)
O14 O 0.1111(6) 0.9494(5) 0.5687(4)
H16 H 0.1693 0.9982 0.5342
H17 H 0.1563 0.9919 0.6410
loop_
_geom_bond_atom_site_label_1
_geom_bond_atom_site_label_2
_geom_bond_site_symmetry_1
_geom_bond_site_symmetry_2
Sm1 O1 1_555 1_555
C1 C2 1_555 1_555
C2 H1 1_555 1_555
C3 C2 1_555 1_555
C4 C3 1_555 1_555
H2 C4 1_555 1_555
C5 C4 1_555 1_555
C6 C1 1_555 1_555
H3 C6 1_555 1_555
C7 C1 1_555 1_555
C8 C3 1_555 1_555
C9 C10 1_555 1_555
C10 H4 1_555 1_555
C11 C10 1_555 1_555
C12 C11 1_555 1_555
H5 C12 1_555 1_555
C13 C12 1_555 1_555
C14 C9 1_555 1_555
H6 C14 1_555 1_555
C15 C9 1_555 1_555
C16 C11 1_555 1_555
H7 O11 1_555 1_555
H8 O13 1_555 1_555
H9 O12 1_555 1_555
H10 O13 1_555 1_555
O1 C7 1_555 1_555
O2 Sm1 1_555 1_555
O3 C8 1_555 1_555
H11 O3 1_555 1_555
O4 C8 1_555 1_555
O5 C5 1_555 1_555
H12 O5 1_555 1_555
O6 Sm1 1_555 1_555
O7 C15 1_555 1_555
O8 C16 1_555 1_555
O9 C16 1_555 1_555
O10 C13 1_555 1_555
H13 O10 1_555 1_555
O11 Sm1 1_555 1_555
H14 O11 1_555 1_555
O12 Sm1 1_555 1_555
H15 O12 1_555 1_555
O14 H16 1_555 1_555
H17 O14 1_555 1_555
Sm1A O7 1_555 1_555
Sm1_2 O8 1_555 1_555
Sm1A_2 O8 1_555 1_555
O7A Sm1 1_555 1_555
O8_2 Sm1 1_555 1_555
O8A Sm1 1_555 1_555
O9_2 Sm1 1_555 1_555
C5 C6 1_555 1_555
C7 O2 1_555 1_555
C13 C14 1_555 1_555
C15 O6 1_555 1_555
O9 Sm1_2 1_555 1_555

#END
