
#######################################################################
#
#                 Cambridge Crystallographic Data Centre
#                                CCDC 
#
#######################################################################
#
# If this CIF has been generated from an entry in the Cambridge 
# Structural Database, then it will include bibliographic, chemical, 
# crystal, experimental, refinement or atomic coordinate data resulting 
# from the CCDC's data processing and validation procedures.
#
#######################################################################

data_EGOXUU
_symmetry_cell_setting           triclinic
_symmetry_space_group_name_H-M   'P -1'
_symmetry_Int_Tables_number      2
_space_group_name_Hall           '-P 1'
loop_
_symmetry_equiv_pos_site_id
_symmetry_equiv_pos_as_xyz
1 x,y,z
2 -x,-y,-z
_cell_length_a                   7.9649(7)
_cell_length_b                   8.7254(7)
_cell_length_c                   11.1083(9)
_cell_angle_alpha                106.9130(10)
_cell_angle_beta                 97.6280(10)
_cell_angle_gamma                102.8990(10)
_cell_volume                     703.603
loop_
_atom_site_label
_atom_site_type_symbol
_atom_site_fract_x
_atom_site_fract_y
_atom_site_fract_z
Sm1 Sm 0.33174(2) 0.29976(2) 0.110066(16)
C1 C 0.2987(5) 0.1265(5) 0.4385(3)
C2 C 0.2249(5) -0.0403(5) 0.4216(3)
C3 C 0.2034(6) -0.0981(5) 0.5242(4)
C4 C 0.2540(6) 0.0179(5) 0.6477(4)
H1 H 0.2403 -0.0171 0.7182
C5 C 0.3250(5) 0.1859(4) 0.6666(3)
C6 C 0.3487(5) 0.2397(4) 0.5622(3)
H2 H 0.3984 0.3520 0.5757
C7 C 0.3121(5) 0.1861(5) 0.3247(4)
C8 C 0.1778(5) -0.1600(4) 0.2927(3)
C9 C 0.3753(5) 0.3094(4) 0.8007(3)
C10 C 0.4068(5) -0.0609(4) -0.0283(3)
O1 O 0.4507(4) 0.2917(4) 0.3286(3)
O2 O 0.1820(4) 0.1316(4) 0.2322(3)
O3 O 0.2909(5) -0.1650(4) 0.2285(3)
O4 O 0.0285(5) -0.2502(5) 0.2540(3)
H3 H 0.0099 -0.2939 0.1756
O5 O 0.1368(5) -0.2637(3) 0.4988(3)
H4 H 0.1488 -0.2858 0.5654
O6 O 0.3661(4) 0.2549(3) 0.8920(2)
O7 O 0.4213(4) 0.4621(3) 0.8123(2)
O8 O 0.2809(3) -0.0027(3) -0.0037(3)
O9 O 0.3975(3) -0.2075(3) -0.0933(3)
O10 O 0.0259(5) 0.2116(5) 0.0104(4)
O11 O 0.2334(4) 0.5170(4) 0.0273(3)
O12 O 0.2161(5) 0.4875(4) 0.2728(3)
H5 H 0.018(10) 0.178(9) -0.047(7)
H6 H 0.220(8) 0.600(7) 0.085(6)
H7 H 0.104(8) 0.455(7) 0.264(6)
H9 H -0.066(8) 0.148(8) 0.013(6)
H10 H 0.267(8) 0.540(8) -0.025(6)
H11 H 0.275(7) 0.562(7) 0.355(6)
Sm1_2 Sm 0.33174(2) 0.29976(2) -0.889934(16)
Sm1_3 Sm 0.33174(2) 0.29976(2) 1.110066(16)
Sm1A Sm 0.66826(2) 0.70024(2) 0.889934(16)
Sm1A_2 Sm 0.66826(2) -0.29976(2) -0.110066(16)
Sm1A_3 Sm 0.66826(2) 0.70024(2) -0.110066(16)
C1_2 C 0.2987(5) 0.1265(5) -0.5615(3)
C2_2 C 0.2249(5) -0.0403(5) -0.5784(3)
C3_2 C 0.2034(6) -0.0981(5) -0.4758(4)
C4_2 C 0.2540(6) 0.0179(5) -0.3523(4)
H1_2 H 0.2403 -0.0171 -0.2818
C5_2 C 0.3250(5) 0.1859(4) -0.3334(3)
C6_2 C 0.3487(5) 0.2397(4) -0.4378(3)
H2_2 H 0.3984 0.3520 -0.4243
C7_2 C 0.3121(5) 0.1861(5) -0.6753(4)
C8_2 C 0.1778(5) -0.1600(4) -0.7073(3)
C9_2 C 0.3753(5) 0.3094(4) -0.1993(3)
C10A C 0.5932(5) 0.0609(4) 0.0283(3)
O1_2 O 0.4507(4) 0.2917(4) -0.6714(3)
O2_2 O 0.1820(4) 0.1316(4) -0.7678(3)
O3_2 O 0.2909(5) -0.1650(4) -0.7715(3)
O4_2 O 0.0285(5) -0.2502(5) -0.7460(3)
H3_2 H 0.0099 -0.2939 -0.8244
O5_2 O 0.1368(5) -0.2637(3) -0.5012(3)
H4_2 H 0.1488 -0.2858 -0.4346
O6_2 O 0.3661(4) 0.2549(3) -0.1080(2)
O6_3 O 0.3661(4) 0.2549(3) -1.1080(2)
O7_2 O 0.4213(4) 0.4621(3) -0.1877(2)
O7A O 0.5787(4) 0.5379(3) 0.1877(2)
O7A_2 O 0.5787(4) 0.5379(3) -0.8123(2)
O8A O 0.7191(3) 0.0027(3) 0.0037(3)
O8_2 O 0.2809(3) -0.0027(3) -1.0037(3)
O9A O 0.6025(3) 0.2075(3) 0.0933(3)
O9A_2 O 0.6025(3) 0.2075(3) -0.9067(3)
O10_2 O 0.0259(5) 0.2116(5) -0.9896(4)
O11_2 O 0.2334(4) 0.5170(4) -0.9727(3)
O12_2 O 0.2161(5) 0.4875(4) -0.7272(3)
H5_2 H 0.018(10) 0.178(9) -1.047(7)
H6_2 H 0.220(8) 0.600(7) -0.915(6)
H7_2 H 0.104(8) 0.455(7) -0.736(6)
H9_2 H -0.066(8) 0.148(8) -0.987(6)
H10_2 H 0.267(8) 0.540(8) -1.025(6)
H11_2 H 0.275(7) 0.562(7) -0.645(6)
O13 O 0.8716(5) 0.3988(5) 0.3099(4)
H8 H 0.803(11) 0.353(11) 0.261(9)
H12 H 0.866(11) 0.501(10) 0.362(8)
loop_
_geom_bond_atom_site_label_1
_geom_bond_atom_site_label_2
_geom_bond_site_symmetry_1
_geom_bond_site_symmetry_2
Sm1 O1 1_555 1_555
C1 C2 1_555 1_555
C2 C3 1_555 1_555
C3 C4 1_555 1_555
C4 H1 1_555 1_555
C5 C4 1_555 1_555
C6 C1 1_555 1_555
H2 C6 1_555 1_555
C7 C1 1_555 1_555
C8 C2 1_555 1_555
C9 C5 1_555 1_555
C10 O8 1_555 1_555
O1 C7 1_555 1_555
O2 Sm1 1_555 1_555
O3 C8 1_555 1_555
O4 C8 1_555 1_555
H3 O4 1_555 1_555
O5 C3 1_555 1_555
H4 O5 1_555 1_555
O6 C9 1_555 1_555
O7 C9 1_555 1_555
O8 Sm1 1_555 1_555
O9 C10 1_555 1_555
O10 Sm1 1_555 1_555
O11 Sm1 1_555 1_555
O12 Sm1 1_555 1_555
O13 H8 1_555 1_555
H5 O10 1_555 1_555
H6 O11 1_555 1_555
H7 O12 1_555 1_555
H9 O10 1_555 1_555
H10 O11 1_555 1_555
H11 O12 1_555 1_555
H12 O13 1_555 1_555
Sm1_2 O1_2 1_555 1_555
Sm1_3 O6 1_555 1_555
Sm1A O7 1_555 1_555
Sm1A_2 O9 1_555 1_555
Sm1A_3 O7_2 1_555 1_555
C1_2 C2_2 1_555 1_555
C2_2 C3_2 1_555 1_555
C3_2 C4_2 1_555 1_555
C4_2 H1_2 1_555 1_555
C5_2 C4_2 1_555 1_555
C6_2 C1_2 1_555 1_555
H2_2 C6_2 1_555 1_555
C7_2 C1_2 1_555 1_555
C8_2 C2_2 1_555 1_555
C9_2 C5_2 1_555 1_555
C10A C10 1_555 1_555
O1_2 C7_2 1_555 1_555
O2_2 Sm1_2 1_555 1_555
O3_2 C8_2 1_555 1_555
O4_2 C8_2 1_555 1_555
H3_2 O4_2 1_555 1_555
O5_2 C3_2 1_555 1_555
H4_2 O5_2 1_555 1_555
O6_2 Sm1 1_555 1_555
O6_3 Sm1_2 1_555 1_555
O7_2 C9_2 1_555 1_555
O7A Sm1 1_555 1_555
O7A_2 Sm1_2 1_555 1_555
O8A Sm1A_2 1_555 1_555
O8_2 Sm1_2 1_555 1_555
O9A Sm1 1_555 1_555
O9A_2 Sm1_2 1_555 1_555
O10_2 Sm1_2 1_555 1_555
O11_2 Sm1_2 1_555 1_555
O12_2 Sm1_2 1_555 1_555
H5_2 O10_2 1_555 1_555
H6_2 O11_2 1_555 1_555
H7_2 O12_2 1_555 1_555
H9_2 O10_2 1_555 1_555
H10_2 O11_2 1_555 1_555
H11_2 O12_2 1_555 1_555
C5 C6 1_555 1_555
C7 O2 1_555 1_555
C5_2 C6_2 1_555 1_555
C7_2 O2_2 1_555 1_555
C9_2 O6_2 1_555 1_555
C10A O8A 1_555 1_555
C10A O9A 1_555 1_555

#END
