
#######################################################################
#
#                 Cambridge Crystallographic Data Centre
#                                CCDC 
#
#######################################################################
#
# If this CIF has been generated from an entry in the Cambridge 
# Structural Database, then it will include bibliographic, chemical, 
# crystal, experimental, refinement or atomic coordinate data resulting 
# from the CCDC's data processing and validation procedures.
#
#######################################################################

data_EGOXEE
_symmetry_cell_setting           orthorhombic
_symmetry_space_group_name_H-M   'P 21 21 21'
_symmetry_Int_Tables_number      19
_space_group_name_Hall           'P 2ac 2ab'
loop_
_symmetry_equiv_pos_site_id
_symmetry_equiv_pos_as_xyz
1 x,y,z
2 1/2-x,-y,1/2+z
3 -x,1/2+y,1/2-z
4 1/2+x,1/2-y,-z
_cell_length_a                   7.994(2)
_cell_length_b                   25.351(7)
_cell_length_c                   25.589(8)
_cell_angle_alpha                90
_cell_angle_beta                 90
_cell_angle_gamma                90
_cell_volume                     5185.76
loop_
_atom_site_label
_atom_site_type_symbol
_atom_site_fract_x
_atom_site_fract_y
_atom_site_fract_z
Tb1 Tb -0.00171(7) 0.804372(13) 0.282689(14)
Tb2 Tb -0.49299(7) 0.928900(14) 0.225160(15)
P1 P -0.2976(3) 0.81147(9) 0.17923(10)
P2 P -0.7562(3) 0.69413(9) 0.24505(10)
P3 P 0.1122(3) 0.89207(9) 0.17638(10)
P4 P -0.2742(3) 1.04418(9) 0.17731(10)
P5 P -0.1944(3) 0.92323(9) 0.32866(10)
P6 P 0.2596(3) 1.03962(9) 0.25906(10)
P7 P 0.3978(3) 0.83884(9) 0.33090(10)
P8 P 0.7786(3) 0.68700(9) 0.32551(10)
N1 N -0.4592(10) 0.7142(3) 0.1857(3)
H1 H -0.4102 0.7136 0.2178
N2 N 0.0089(14) 0.9893(2) 0.1338(2)
H2 H 0.0928 1.0051 0.1521
N3 N -0.0412(8) 1.0218(3) 0.3189(3)
H3 H -0.0888 1.0201 0.2866
N4 N 0.4966(13) 0.7397(2) 0.3710(2)
H4 H 0.4125 0.7245 0.3524
C1 C -0.3730(19) 0.7227(5) 0.0577(5)
H5 H -0.3123 0.7526 0.0668
C2 C -0.443(2) 0.7158(6) 0.0060(5)
H6 H -0.4273 0.7421 -0.0189
C3 C -0.533(2) 0.6714(7) -0.0071(5)
H7 H -0.5783 0.6683 -0.0404
C4 C -0.5555(19) 0.6315(7) 0.0285(6)
H8 H -0.6157 0.6015 0.0194
C5 C -0.488(2) 0.6363(4) 0.0781(4)
H9 H -0.5001 0.6088 0.1018
C6 C -0.4022(14) 0.6816(4) 0.0931(4)
C7 C -0.3354(11) 0.6869(4) 0.1476(4)
H10 H -0.2324 0.7071 0.1465
H11 H -0.3088 0.6521 0.1609
C8 C -0.4864(15) 0.7712(3) 0.1721(3)
H12 H -0.5734 0.7854 0.1944
H13 H -0.5253 0.7735 0.1362
C9 C -0.6168(11) 0.6831(4) 0.1902(4)
H14 H -0.5862 0.6460 0.1905
H15 H -0.6808 0.6890 0.1585
C10 C 0.2889(18) 1.0445(5) 0.0682(5)
H16 H 0.3206 1.0427 0.1031
C11 C 0.371(2) 1.0789(5) 0.0349(6)
H17 H 0.4606 1.0992 0.0466
C12 C 0.317(2) 1.0822(6) -0.0164(6)
H18 H 0.3650 1.1072 -0.0383
C13 C 0.195(2) 1.0499(6) -0.0356(5)
H19 H 0.1665 1.0505 -0.0708
C14 C 0.1169(17) 1.0171(5) -0.0021(5)
H20 H 0.0298 0.9964 -0.0146
C15 C 0.1601(14) 1.0130(4) 0.0502(4)
C16 C 0.0825(14) 0.9710(4) 0.0829(4)
H21 H 0.1667 0.9445 0.0904
H22 H -0.0051 0.9541 0.0627
C17 C -0.0475(12) 0.9427(3) 0.1651(4)
H23 H -0.1414 0.9264 0.1472
H24 H -0.0875 0.9551 0.1987
C18 C -0.1220(14) 1.0302(4) 0.1248(4)
H25 H -0.1848 1.0199 0.0940
H26 H -0.0655 1.0630 0.1165
C19 C -0.1296(17) 1.0247(5) 0.4485(4)
H27 H -0.1796 0.9923 0.4416
C20 C -0.080(2) 1.0371(7) 0.4992(5)
H28 H -0.0977 1.0126 0.5257
C21 C -0.008(3) 1.0825(8) 0.5110(5)
H29 H 0.0189 1.0902 0.5455
C22 C 0.027(2) 1.1195(6) 0.4710(6)
H30 H 0.0832 1.1507 0.4780
C23 C -0.0274(19) 1.1073(5) 0.4204(5)
H31 H -0.0107 1.1317 0.3938
C24 C -0.1047(15) 1.0601(5) 0.4090(4)
C25 C -0.1654(13) 1.0489(4) 0.3539(4)
H32 H -0.2650 1.0271 0.3560
H33 H -0.1974 1.0820 0.3378
C26 C -0.0083(15) 0.9651(3) 0.3359(3)
H34 H 0.0269 0.9649 0.3722
H35 H 0.0820 0.9507 0.3151
C27 C 0.1173(12) 1.0540(4) 0.3130(4)
H36 H 0.1802 1.0505 0.3452
H37 H 0.0847 1.0907 0.3100
C28 C 0.1996(15) 0.6879(5) 0.4330(4)
H38 H 0.1600 0.6965 0.3999
C29 C 0.1168(19) 0.6492(5) 0.4629(5)
H39 H 0.0238 0.6318 0.4494
C30 C 0.172(2) 0.6376(5) 0.5105(6)
H40 H 0.1157 0.6124 0.5301
C31 C 0.3111(18) 0.6618(5) 0.5316(5)
H41 H 0.3482 0.6526 0.5648
C32 C 0.3959(16) 0.7003(5) 0.5027(4)
H42 H 0.4889 0.7170 0.5170
C33 C 0.3422(14) 0.7137(4) 0.4530(4)
C34 C 0.4227(14) 0.7566(4) 0.4227(4)
H43 H 0.5109 0.7719 0.4438
H44 H 0.3404 0.7839 0.4162
C35 C 0.5536(11) 0.7870(3) 0.3403(3)
H45 H 0.5906 0.7750 0.3062
H46 H 0.6496 0.8022 0.3579
C36 C 0.6279(13) 0.6986(4) 0.3782(4)
H47 H 0.5716 0.6655 0.3853
H48 H 0.6908 0.7076 0.4094
O1 O -0.3631(9) 0.8681(2) 0.1775(3)
O2 O -0.1776(9) 0.8006(3) 0.1349(3)
O3 O -0.2293(8) 0.7944(2) 0.2321(2)
O4 O -0.6713(9) 0.6842(3) 0.2959(3)
O5 O -0.8358(9) 0.7472(2) 0.2375(3)
O6 O -0.8884(8) 0.6497(2) 0.2345(3)
H49 H -0.8562 0.6220 0.2475
O7 O 0.0686(9) 0.8681(3) 0.2279(2)
O8 O 0.2802(8) 0.9183(3) 0.1722(3)
O9 O 0.0926(9) 0.8513(3) 0.1323(3)
H50 H 0.0024 0.8362 0.1354
O10 O -0.1880(9) 1.0577(2) 0.2275(3)
O11 O -0.3945(8) 0.9985(3) 0.1779(3)
O12 O -0.3645(9) 1.0933(2) 0.1540(3)
H51 H -0.3455 1.1191 0.1723
O13 O -0.3165(8) 0.9337(3) 0.3735(3)
O14 O -0.2623(8) 0.9396(3) 0.2766(3)
O15 O -0.1261(8) 0.8673(2) 0.3303(3)
O16 O 0.1747(9) 1.0465(3) 0.2075(3)
O17 O 0.3899(8) 1.0849(2) 0.2675(3)
H52 H 0.3561 1.1119 0.2535
O18 O 0.3412(9) 0.9875(2) 0.2698(3)
O19 O 0.4388(8) 0.8624(2) 0.2786(3)
O20 O 0.2279(8) 0.8142(3) 0.3354(2)
O21 O 0.4226(9) 0.8788(3) 0.3757(3)
H53 H 0.5111 0.8946 0.3715
O22 O 0.8701(9) 0.6363(2) 0.3464(3)
H54 H 0.8484 0.6112 0.3273
O23 O 0.6937(9) 0.6760(3) 0.2747(3)
O24 O 0.8970(8) 0.7324(2) 0.3271(3)
Tb1_2 Tb -1.00171(7) 0.804372(13) 0.282689(14)
Tb1_3 Tb 0.99829(7) 0.804372(13) 0.282689(14)
Tb2_2 Tb 0.50701(7) 0.928900(14) 0.225160(15)
O5_2 O 0.1642(9) 0.7472(2) 0.2375(3)
O8_2 O -0.7198(8) 0.9183(3) 0.1722(3)
O18_2 O -0.6588(9) 0.9875(2) 0.2698(3)
O19_2 O -0.5612(8) 0.8624(2) 0.2786(3)
O24_2 O -0.1030(8) 0.7324(2) 0.3271(3)
loop_
_geom_bond_atom_site_label_1
_geom_bond_atom_site_label_2
_geom_bond_site_symmetry_1
_geom_bond_site_symmetry_2
Tb1 O3 1_555 1_555
Tb2 O1 1_555 1_555
P1 C8 1_555 1_555
P2 C9 1_555 1_555
P3 C17 1_555 1_555
P4 C18 1_555 1_555
P5 C26 1_555 1_555
P6 C27 1_555 1_555
P7 C35 1_555 1_555
P8 C36 1_555 1_555
N1 H1 1_555 1_555
N2 H2 1_555 1_555
N3 H3 1_555 1_555
N4 H4 1_555 1_555
C1 H5 1_555 1_555
C2 C1 1_555 1_555
H6 C2 1_555 1_555
C3 C2 1_555 1_555
H7 C3 1_555 1_555
C4 C3 1_555 1_555
H8 C4 1_555 1_555
C5 C4 1_555 1_555
H9 C5 1_555 1_555
C6 C1 1_555 1_555
C7 N1 1_555 1_555
H10 C7 1_555 1_555
H11 C7 1_555 1_555
C8 N1 1_555 1_555
H12 C8 1_555 1_555
H13 C8 1_555 1_555
C9 N1 1_555 1_555
H14 C9 1_555 1_555
H15 C9 1_555 1_555
C10 H16 1_555 1_555
C11 C10 1_555 1_555
H17 C11 1_555 1_555
C12 C11 1_555 1_555
H18 C12 1_555 1_555
C13 C12 1_555 1_555
H19 C13 1_555 1_555
C14 C13 1_555 1_555
H20 C14 1_555 1_555
C15 C10 1_555 1_555
C16 N2 1_555 1_555
H21 C16 1_555 1_555
H22 C16 1_555 1_555
C17 N2 1_555 1_555
H23 C17 1_555 1_555
H24 C17 1_555 1_555
C18 N2 1_555 1_555
H25 C18 1_555 1_555
H26 C18 1_555 1_555
C19 H27 1_555 1_555
C20 C19 1_555 1_555
H28 C20 1_555 1_555
C21 C20 1_555 1_555
H29 C21 1_555 1_555
C22 C21 1_555 1_555
H30 C22 1_555 1_555
C23 C22 1_555 1_555
H31 C23 1_555 1_555
C24 C19 1_555 1_555
C25 N3 1_555 1_555
H32 C25 1_555 1_555
H33 C25 1_555 1_555
C26 N3 1_555 1_555
H34 C26 1_555 1_555
H35 C26 1_555 1_555
C27 N3 1_555 1_555
H36 C27 1_555 1_555
H37 C27 1_555 1_555
C28 H38 1_555 1_555
C29 C28 1_555 1_555
H39 C29 1_555 1_555
C30 C29 1_555 1_555
H40 C30 1_555 1_555
C31 C30 1_555 1_555
H41 C31 1_555 1_555
C32 C31 1_555 1_555
H42 C32 1_555 1_555
C33 C28 1_555 1_555
C34 N4 1_555 1_555
H43 C34 1_555 1_555
H44 C34 1_555 1_555
C35 N4 1_555 1_555
H45 C35 1_555 1_555
H46 C35 1_555 1_555
C36 N4 1_555 1_555
H47 C36 1_555 1_555
H48 C36 1_555 1_555
O1 P1 1_555 1_555
O2 P1 1_555 1_555
O3 P1 1_555 1_555
O4 P2 1_555 1_555
O5 P2 1_555 1_555
O6 P2 1_555 1_555
H49 O6 1_555 1_555
O7 Tb1 1_555 1_555
O8 P3 1_555 1_555
O9 P3 1_555 1_555
H50 O9 1_555 1_555
O10 P4 1_555 1_555
O11 Tb2 1_555 1_555
O12 P4 1_555 1_555
H51 O12 1_555 1_555
O13 P5 1_555 1_555
O14 Tb2 1_555 1_555
O15 Tb1 1_555 1_555
O16 P6 1_555 1_555
O17 P6 1_555 1_555
H52 O17 1_555 1_555
O18 P6 1_555 1_555
O19 P7 1_555 1_555
O20 Tb1 1_555 1_555
O21 P7 1_555 1_555
H53 O21 1_555 1_555
O22 P8 1_555 1_555
H54 O22 1_555 1_555
O23 P8 1_555 1_555
O24 P8 1_555 1_555
Tb1_2 O5 1_555 1_555
Tb1_3 O24 1_555 1_555
Tb2_2 O8 1_555 1_555
O5_2 Tb1 1_555 1_555
O8_2 Tb2 1_555 1_555
O18_2 Tb2 1_555 1_555
O19_2 Tb2 1_555 1_555
O24_2 Tb1 1_555 1_555
P3 O7 1_555 1_555
P4 O11 1_555 1_555
P5 O14 1_555 1_555
P5 O15 1_555 1_555
P7 O20 1_555 1_555
C5 C6 1_555 1_555
C6 C7 1_555 1_555
C14 C15 1_555 1_555
C15 C16 1_555 1_555
C23 C24 1_555 1_555
C24 C25 1_555 1_555
C32 C33 1_555 1_555
C33 C34 1_555 1_555
O18 Tb2_2 1_555 1_555
O19 Tb2_2 1_555 1_555

#END
