
#######################################################################
#
#                 Cambridge Crystallographic Data Centre
#                                CCDC 
#
#######################################################################
#
# If this CIF has been generated from an entry in the Cambridge 
# Structural Database, then it will include bibliographic, chemical, 
# crystal, experimental, refinement or atomic coordinate data resulting 
# from the CCDC's data processing and validation procedures.
#
#######################################################################

data_EGOXAA
_symmetry_cell_setting           triclinic
_symmetry_space_group_name_H-M   'P -1'
_symmetry_Int_Tables_number      2
_space_group_name_Hall           '-P 1'
loop_
_symmetry_equiv_pos_site_id
_symmetry_equiv_pos_as_xyz
1 x,y,z
2 -x,-y,-z
_cell_length_a                   8.056(3)
_cell_length_b                   12.755(5)
_cell_length_c                   13.498(7)
_cell_angle_alpha                115.395(9)
_cell_angle_beta                 92.49(2)
_cell_angle_gamma                93.030(16)
_cell_volume                     1247.84
loop_
_atom_site_label
_atom_site_type_symbol
_atom_site_fract_x
_atom_site_fract_y
_atom_site_fract_z
Sm1 Sm -0.21425(4) -0.10883(3) 0.51309(3)
P1 P 0.1394(2) -0.01916(16) 0.63608(15)
P2 P 0.5440(2) -0.31173(16) 0.59173(15)
P3 P -0.4100(2) 0.15898(16) 0.66396(15)
P4 P 0.0284(2) 0.39072(15) 0.58558(15)
N1 N 0.2562(7) -0.2002(5) 0.6860(5)
H1 H 0.2076 -0.2478 0.6181
N2 N -0.2650(7) 0.3750(5) 0.6922(5)
H2 H -0.3171 0.3532 0.6244
C1 C 0.1871(15) -0.0044(9) 0.9399(8)
H3 H 0.1525 0.0362 0.9006
C2 C 0.2357(17) 0.0557(9) 1.0525(9)
H4 H 0.2371 0.1365 1.0867
C3 C 0.2808(15) -0.0022(11) 1.1128(8)
H5 H 0.3104 0.0382 1.1878
C4 C 0.2819(18) -0.1212(13) 1.0611(9)
H6 H 0.3120 -0.1619 1.1013
C5 C 0.2381(16) -0.1811(10) 0.9490(9)
H7 H 0.2409 -0.2616 0.9149
C6 C 0.1908(10) -0.1238(7) 0.8874(6)
C7 C 0.1280(9) -0.1918(7) 0.7684(6)
H8 H 0.0326 -0.1558 0.7539
H9 H 0.0898 -0.2700 0.7566
C8 C 0.3054(9) -0.0852(7) 0.6843(7)
H10 H 0.3972 -0.0960 0.6376
H11 H 0.3463 -0.0303 0.7581
C9 C 0.4045(9) -0.2575(7) 0.7038(6)
H12 H 0.3649 -0.3224 0.7182
H13 H 0.4694 -0.2021 0.7694
C10 C -0.2411(14) 0.6234(8) 0.9357(8)
H14 H -0.2388 0.6628 0.8916
C11 C -0.1777(15) 0.6795(9) 1.0435(8)
H15 H -0.1304 0.7555 1.0702
C12 C -0.1828(13) 0.6256(9) 1.1132(8)
H16 H -0.1430 0.6651 1.1866
C13 C -0.2484(13) 0.5120(9) 1.0708(8)
H17 H -0.2501 0.4737 1.1160
C14 C -0.3119(11) 0.4533(8) 0.9630(7)
H18 H -0.3572 0.3769 0.9373
C15 C -0.3094(10) 0.5067(7) 0.8910(7)
C16 C -0.3827(9) 0.4477(7) 0.7759(6)
H19 H -0.4213 0.5063 0.7545
H20 H -0.4793 0.3975 0.7732
C17 C -0.2292(9) 0.2655(6) 0.7021(6)
H21 H -0.1896 0.2856 0.7775
H22 H -0.1405 0.2298 0.6555
C18 C -0.1084(9) 0.4482(6) 0.6987(6)
H23 H -0.0437 0.4627 0.7662
H24 H -0.1405 0.5229 0.7047
O1 O -0.0240(6) -0.0410(5) 0.6766(5)
O2 O 0.2037(6) 0.1079(5) 0.6751(4)
O3 O 0.1215(7) -0.0724(5) 0.5102(4)
O4 O 0.4393(7) -0.3803(5) 0.4856(4)
O5 O 0.6424(7) -0.3984(5) 0.6233(4)
H25 H 0.6060 -0.4655 0.5836
O6 O 0.6634(6) -0.2128(5) 0.6034(4)
O7 O -0.5088(7) 0.2051(5) 0.7717(4)
H26 H -0.6073 0.1813 0.7554
O8 O -0.3485(7) 0.0433(4) 0.6439(4)
O9 O -0.5102(6) 0.1657(5) 0.5719(4)
O10 O 0.1189(7) 0.2961(4) 0.5940(4)
O11 O 0.1527(7) 0.5019(5) 0.6168(5)
H27 H 0.1204 0.5394 0.5843
O12 O -0.0716(7) 0.3638(5) 0.4796(4)
Sm1A Sm 0.21425(4) 0.10883(3) 0.48691(3)
Sm1_2 Sm 0.78575(4) -0.10883(3) 0.51309(3)
Sm1A_2 Sm -0.78575(4) 0.10883(3) 0.48691(3)
O2A O -0.2037(6) -0.1079(5) 0.3249(4)
O3A O -0.1215(7) 0.0724(5) 0.4898(4)
O6_2 O -0.3366(6) -0.2128(5) 0.6034(4)
O9A O -0.4898(6) -0.1657(5) 0.4281(4)
O10A O -0.1189(7) -0.2961(4) 0.4060(4)
loop_
_geom_bond_atom_site_label_1
_geom_bond_atom_site_label_2
_geom_bond_site_symmetry_1
_geom_bond_site_symmetry_2
Sm1 O1 1_555 1_555
P1 C8 1_555 1_555
P2 C9 1_555 1_555
P3 C17 1_555 1_555
P4 C18 1_555 1_555
N1 H1 1_555 1_555
N2 H2 1_555 1_555
C1 H3 1_555 1_555
C2 C1 1_555 1_555
H4 C2 1_555 1_555
C3 C2 1_555 1_555
H5 C3 1_555 1_555
C4 C3 1_555 1_555
H6 C4 1_555 1_555
C5 C4 1_555 1_555
H7 C5 1_555 1_555
C6 C1 1_555 1_555
C7 N1 1_555 1_555
H8 C7 1_555 1_555
H9 C7 1_555 1_555
C8 N1 1_555 1_555
H10 C8 1_555 1_555
H11 C8 1_555 1_555
C9 N1 1_555 1_555
H12 C9 1_555 1_555
H13 C9 1_555 1_555
C10 H14 1_555 1_555
C11 C10 1_555 1_555
H15 C11 1_555 1_555
C12 C11 1_555 1_555
H16 C12 1_555 1_555
C13 C12 1_555 1_555
H17 C13 1_555 1_555
C14 C13 1_555 1_555
H18 C14 1_555 1_555
C15 C10 1_555 1_555
C16 N2 1_555 1_555
H19 C16 1_555 1_555
H20 C16 1_555 1_555
C17 N2 1_555 1_555
H21 C17 1_555 1_555
H22 C17 1_555 1_555
C18 N2 1_555 1_555
H23 C18 1_555 1_555
H24 C18 1_555 1_555
O1 P1 1_555 1_555
O2 P1 1_555 1_555
O3 Sm1 1_555 1_555
O4 P2 1_555 1_555
O5 P2 1_555 1_555
H25 O5 1_555 1_555
O6 P2 1_555 1_555
O7 P3 1_555 1_555
H26 O7 1_555 1_555
O8 Sm1 1_555 1_555
O9 P3 1_555 1_555
O10 P4 1_555 1_555
O11 P4 1_555 1_555
H27 O11 1_555 1_555
O12 P4 1_555 1_555
Sm1A O2 1_555 1_555
Sm1_2 O6 1_555 1_555
Sm1A_2 O9 1_555 1_555
O2A Sm1 1_555 1_555
O3A Sm1 1_555 1_555
O6_2 Sm1 1_555 1_555
O9A Sm1 1_555 1_555
O10A Sm1 1_555 1_555
P1 O3 1_555 1_555
P3 O8 1_555 1_555
C5 C6 1_555 1_555
C6 C7 1_555 1_555
C14 C15 1_555 1_555
C15 C16 1_555 1_555
O3 Sm1A 1_555 1_555
O10 Sm1A 1_555 1_555
Sm1A O3A 1_555 1_555

#END
