
#######################################################################
#
#                 Cambridge Crystallographic Data Centre
#                                CCDC 
#
#######################################################################
#
# If this CIF has been generated from an entry in the Cambridge 
# Structural Database, then it will include bibliographic, chemical, 
# crystal, experimental, refinement or atomic coordinate data resulting 
# from the CCDC's data processing and validation procedures.
#
#######################################################################

data_EGOYUV
_symmetry_cell_setting           monoclinic
_symmetry_space_group_name_H-M   'P 21/n'
_symmetry_Int_Tables_number      14
_space_group_name_Hall           '-P 2yn'
loop_
_symmetry_equiv_pos_site_id
_symmetry_equiv_pos_as_xyz
1 x,y,z
2 1/2-x,1/2+y,1/2-z
3 -x,-y,-z
4 1/2+x,1/2-y,1/2+z
_cell_length_a                   10.109(2)
_cell_length_b                   15.178(3)
_cell_length_c                   29.970(6)
_cell_angle_alpha                90
_cell_angle_beta                 93.026(4)
_cell_angle_gamma                90
_cell_volume                     4592.02
loop_
_atom_site_label
_atom_site_type_symbol
_atom_site_fract_x
_atom_site_fract_y
_atom_site_fract_z
Ni1 Ni 0.073473(17) 1.135949(10) -0.280598(6)
Ni2 Ni 0.771033(18) 1.088498(11) -0.066865(6)
Ni3 Ni 0.636808(17) 1.620602(11) -0.126516(6)
C1 C 0.36856(13) 1.24356(8) -0.20891(4)
C2 C 0.44504(13) 1.19069(8) -0.17928(4)
H1 H 0.4268 1.1295 -0.1773
C3 C 0.54761(14) 1.22746(9) -0.15271(4)
C4 C 0.57226(14) 1.31755(8) -0.15524(5)
H2 H 0.6416 1.3429 -0.1369
C5 C 0.49604(14) 1.37088(9) -0.18447(5)
C6 C 0.39485(14) 1.33369(9) -0.21131(5)
H3 H 0.3432 1.3697 -0.2314
C7 C 0.25725(13) 1.20452(9) -0.23709(4)
C8 C 0.63461(14) 1.17240(9) -0.12135(4)
C9 C 0.52121(14) 1.46858(9) -0.18533(5)
O1 O 0.18335(10) 1.25387(6) -0.26223(3)
O2 O 0.23482(10) 1.12263(6) -0.23536(3)
O3 O 0.74156(10) 1.20483(6) -0.10524(3)
O4 O 0.59986(10) 1.09460(6) -0.11130(3)
O5 O 0.58481(11) 1.50089(7) -0.15198(4)
O6 O 0.47693(10) 1.50915(6) -0.21963(3)
C10 C 0.26736(13) 1.18555(9) -0.39725(4)
C11 C 0.39678(13) 1.16431(9) -0.38349(4)
H4 H 0.4134 1.1264 -0.3586
C12 C 0.50174(13) 1.19828(9) -0.40603(4)
C13 C 0.47777(14) 1.25234(9) -0.44341(4)
H5 H 0.5498 1.2760 -0.4586
C14 C 0.34801(14) 1.27138(9) -0.45822(4)
C15 C 0.24334(14) 1.23807(9) -0.43506(5)
H6 H 0.1548 1.2512 -0.4451
C16 C 0.15369(13) 1.15466(9) -0.37150(4)
C17 C 0.64135(13) 1.17573(9) -0.39030(4)
C18 C 0.31836(14) 1.32675(9) -0.49900(5)
O7 O 0.18314(9) 1.12098(7) -0.33358(3)
O8 O 0.03982(9) 1.16699(7) -0.38906(3)
O9 O 0.73585(10) 1.22365(7) -0.40093(3)
O10 O 0.66102(9) 1.10696(6) -0.36656(3)
O11 O 0.19931(10) 1.33718(7) -0.51283(3)
O12 O 0.41100(10) 1.36278(6) -0.51839(3)
N1 N 0.72659(14) 0.88299(10) 0.02169(5)
C19 C 0.79952(16) 0.93900(11) -0.00077(6)
H7 H 0.8904 0.9509 0.0064
N2 N 0.73033(13) 0.97568(8) -0.03401(4)
C20 C 0.60375(17) 0.93969(11) -0.03240(6)
H8 H 0.5304 0.9532 -0.0524
C21 C 0.60230(18) 0.88292(12) 0.00186(6)
H9 H 0.5288 0.8492 0.0106
C22 C 0.7701(3) 0.83347(17) 0.06152(8)
H10 H 0.8638 0.8459 0.0690
H11 H 0.7585 0.7703 0.0558
H12 H 0.7173 0.8510 0.0865
N3 N 1.03523(16) 0.95651(10) -0.14630(5)
C23 C 0.9505(2) 0.96024(12) -0.11330(6)
H13 H 0.9297 0.9120 -0.0947
N4 N 0.90029(13) 1.04004(8) -0.11027(4)
C24 C 0.95268(17) 1.08750(10) -0.14361(5)
H14 H 0.9320 1.1473 -0.1503
C25 C 1.03742(18) 1.03816(11) -0.16559(5)
H15 H 1.0886 1.0561 -0.1897
C26 C 1.1090(3) 0.87930(15) -0.16043(8)
H16 H 1.0899 0.8291 -0.1412
H17 H 1.2041 0.8921 -0.1580
H18 H 1.0823 0.8650 -0.1915
N5 N 0.65349(15) 1.56330(12) -0.06361(5)
C27 C 0.7100(3) 1.4977(2) -0.04394(9)
H19 H 0.7623 1.4594 -0.0608
C28 C 0.6994(3) 1.48178(17) -0.00334(8)
H20 H 0.7246 1.4305 0.0132
N6 N 0.6398(3) 1.56060(17) 0.01169(8)
C29 C 0.6147(3) 1.61087(19) -0.02466(7)
H21 H 0.5775 1.6684 -0.0247
C30 C 0.6055(4) 1.5836(3) 0.05822(10)
H22 H 0.5678 1.6431 0.0585
H23 H 0.6857 1.5815 0.0781
H24 H 0.5406 1.5413 0.0685
C40 C -0.29321(16) 1.22769(12) -0.27355(6)
H42 H -0.3193 1.2319 -0.2426
H43 H -0.3530 1.1872 -0.2902
H44 H -0.2984 1.2861 -0.2875
C41 C -0.15356(14) 1.19381(9) -0.27415(5)
O13 O -0.08551(10) 1.17766(7) -0.23927(3)
O14 O -0.09993(9) 1.18385(6) -0.31185(3)
Ni1A Ni 0.426527(17) 1.635949(10) -0.219402(6)
Ni2C Ni 0.271033(18) 1.411502(11) -0.566865(6)
Ni3A Ni -0.136808(17) 1.120602(11) -0.373484(6)
Ni3A_2 Ni 0.863192(17) 1.120602(11) -0.373484(6)
O6A O 0.02307(10) 1.00915(6) -0.28037(3)
O8A O 0.46018(9) 1.66699(7) -0.11094(3)
O9A O 0.76415(10) 1.72365(7) -0.09907(3)
O10A O 0.83898(9) 1.60696(6) -0.13344(3)
O11C O 0.69931(10) 1.16282(7) -0.01283(3)
O12C O 0.91100(10) 1.13722(6) -0.01839(3)
O14A O 0.59993(9) 1.68385(6) -0.18815(3)
N7 N 0.91112(17) 1.41977(9) -0.30556(5)
C31 C 0.96953(19) 1.39478(12) -0.26754(6)
H25 H 1.0434 1.3563 -0.2640
N8 N 0.9072(2) 1.43279(11) -0.23520(6)
C32 C 0.8050(2) 1.48189(13) -0.25426(9)
H26 H 0.7414 1.5145 -0.2389
C33 C 0.8116(2) 1.47543(13) -0.29701(9)
H27 H 0.7559 1.5049 -0.3188
C34 C 0.9497(3) 1.39006(16) -0.34921(8)
H28 H 1.0250 1.3497 -0.3454
H29 H 0.9749 1.4410 -0.3670
H30 H 0.8750 1.3595 -0.3646
C35 C 0.9070(4) 1.4138(2) -0.18639(11)
H31 H 0.8838 1.4680 -0.1702
H32 H 0.8390 1.3687 -0.1809
C36 C 1.0250(5) 1.3851(3) -0.17106(14)
H33 H 1.0891 1.4342 -0.1727
H34 H 1.0538 1.3379 -0.1912
C37 C 1.0331(3) 1.34516(19) -0.11728(9)
H35 H 0.9614 1.3018 -0.1134
H36 H 1.1193 1.3157 -0.1106
C38 C 1.0194(5) 1.4140(3) -0.08994(14)
H37 H 0.9354 1.4453 -0.0977
H38 H 1.0936 1.4558 -0.0928
C39 C 1.0191(4) 1.3773(2) -0.04007(10)
H39 H 1.0036 1.4260 -0.0195
H40 H 1.1048 1.3499 -0.0320
H41 H 0.9486 1.3334 -0.0380
loop_
_geom_bond_atom_site_label_1
_geom_bond_atom_site_label_2
_geom_bond_site_symmetry_1
_geom_bond_site_symmetry_2
Ni1 O1 1_555 1_555
Ni2 O3 1_555 1_555
Ni3 O5 1_555 1_555
C1 C2 1_555 1_555
C2 H1 1_555 1_555
C3 C2 1_555 1_555
C4 C3 1_555 1_555
H2 C4 1_555 1_555
C5 C4 1_555 1_555
C6 C1 1_555 1_555
H3 C6 1_555 1_555
C7 C1 1_555 1_555
C8 C3 1_555 1_555
C9 C5 1_555 1_555
O1 C7 1_555 1_555
O2 Ni1 1_555 1_555
O3 C8 1_555 1_555
O4 Ni2 1_555 1_555
O5 C9 1_555 1_555
O6 C9 1_555 1_555
C10 C11 1_555 1_555
C11 H4 1_555 1_555
C12 C11 1_555 1_555
C13 C12 1_555 1_555
H5 C13 1_555 1_555
C14 C13 1_555 1_555
C15 C10 1_555 1_555
H6 C15 1_555 1_555
C16 C10 1_555 1_555
C17 C12 1_555 1_555
C18 C14 1_555 1_555
O7 Ni1 1_555 1_555
O8 C16 1_555 1_555
O9 C17 1_555 1_555
O10 C17 1_555 1_555
O11 C18 1_555 1_555
O12 C18 1_555 1_555
N1 C19 1_555 1_555
C19 H7 1_555 1_555
N2 Ni2 1_555 1_555
C20 N2 1_555 1_555
H8 C20 1_555 1_555
C21 N1 1_555 1_555
H9 C21 1_555 1_555
C22 N1 1_555 1_555
H10 C22 1_555 1_555
H11 C22 1_555 1_555
H12 C22 1_555 1_555
N3 C23 1_555 1_555
C23 H13 1_555 1_555
N4 Ni2 1_555 1_555
C24 N4 1_555 1_555
H14 C24 1_555 1_555
C25 N3 1_555 1_555
H15 C25 1_555 1_555
C26 N3 1_555 1_555
H16 C26 1_555 1_555
H17 C26 1_555 1_555
H18 C26 1_555 1_555
N5 Ni3 1_555 1_555
C27 N5 1_555 1_555
H19 C27 1_555 1_555
C28 C27 1_555 1_555
H20 C28 1_555 1_555
N6 C28 1_555 1_555
C29 N5 1_555 1_555
H21 C29 1_555 1_555
C30 N6 1_555 1_555
H22 C30 1_555 1_555
H23 C30 1_555 1_555
H24 C30 1_555 1_555
N7 C31 1_555 1_555
C31 H25 1_555 1_555
N8 C31 1_555 1_555
C32 N8 1_555 1_555
H26 C32 1_555 1_555
C33 N7 1_555 1_555
H27 C33 1_555 1_555
C34 N7 1_555 1_555
H28 C34 1_555 1_555
H29 C34 1_555 1_555
H30 C34 1_555 1_555
C35 N8 1_555 1_555
H31 C35 1_555 1_555
H32 C35 1_555 1_555
C36 C35 1_555 1_555
H33 C36 1_555 1_555
H34 C36 1_555 1_555
C37 C36 1_555 1_555
H35 C37 1_555 1_555
H36 C37 1_555 1_555
C38 C37 1_555 1_555
H37 C38 1_555 1_555
H38 C38 1_555 1_555
C39 C38 1_555 1_555
H39 C39 1_555 1_555
H40 C39 1_555 1_555
H41 C39 1_555 1_555
C40 H42 1_555 1_555
H43 C40 1_555 1_555
H44 C40 1_555 1_555
C41 C40 1_555 1_555
O13 Ni1 1_555 1_555
O14 Ni1 1_555 1_555
Ni1A O6 1_555 1_555
Ni2C O11 1_555 1_555
Ni3A O8 1_555 1_555
Ni3A_2 O9 1_555 1_555
O6A Ni1 1_555 1_555
O8A Ni3 1_555 1_555
O9A Ni3 1_555 1_555
O10A Ni3 1_555 1_555
O11C Ni2 1_555 1_555
O12C Ni2 1_555 1_555
O14A Ni3 1_555 1_555
C5 C6 1_555 1_555
C7 O2 1_555 1_555
C8 O4 1_555 1_555
C14 C15 1_555 1_555
C16 O7 1_555 1_555
O10 Ni3A_2 1_555 1_555
O12 Ni2C 1_555 1_555
C19 N2 1_555 1_555
C20 C21 1_555 1_555
C23 N4 1_555 1_555
C24 C25 1_555 1_555
N6 C29 1_555 1_555
C32 C33 1_555 1_555
C41 O13 1_555 1_555
C41 O14 1_555 1_555
O14 Ni3A 1_555 1_555
Ni1A O14A 1_555 1_555

#END
