
#######################################################################
#
#                 Cambridge Crystallographic Data Centre
#                                CCDC 
#
#######################################################################
#
# If this CIF has been generated from an entry in the Cambridge 
# Structural Database, then it will include bibliographic, chemical, 
# crystal, experimental, refinement or atomic coordinate data resulting 
# from the CCDC's data processing and validation procedures.
#
#######################################################################

data_EGUGIX
_symmetry_cell_setting           monoclinic
_symmetry_space_group_name_H-M   'C 2/c'
_symmetry_Int_Tables_number      15
_space_group_name_Hall           '-C 2yn'
loop_
_symmetry_equiv_pos_site_id
_symmetry_equiv_pos_as_xyz
1 x,y,z
2 1/2+x,1/2+y,z
3 -x,y,1/2-z
4 1/2-x,1/2+y,1/2-z
5 -x,-y,-z
6 1/2-x,1/2-y,-z
7 x,-y,1/2+z
8 1/2+x,1/2-y,1/2+z
_cell_length_a                   17.105(2)
_cell_length_b                   4.4783(6)
_cell_length_c                   19.149(3)
_cell_angle_alpha                90
_cell_angle_beta                 99.488(7)
_cell_angle_gamma                90
_cell_volume                     1446.77
loop_
_atom_site_label
_atom_site_type_symbol
_atom_site_fract_x
_atom_site_fract_y
_atom_site_fract_z
I1 I 0.408421(9) 1.07571(4) 0.318312(8)
Cd1 Cd 0.5000 0.69143(6) 0.2500
N1 N 0.41058(12) 0.5104(5) 0.15779(11)
H1 H 0.4376 0.3944 0.1301
H2 H 0.3759 0.3870 0.1760
C1 C 0.36495(14) 0.7257(5) 0.11299(13)
C2 C 0.39192(15) 0.8325(6) 0.05342(13)
H3 H 0.4411 0.7648 0.0424
C3 C 0.34710(15) 1.0383(5) 0.00994(13)
H4 H 0.3663 1.1100 -0.0308
C4 C 0.27463(14) 1.1434(5) 0.02417(12)
C5 C 0.25001(15) 1.0366(5) 0.08556(13)
H5 H 0.2015 1.1062 0.0975
C6 C 0.29469(15) 0.8315(6) 0.12946(13)
H6 H 0.2767 0.7636 0.1711
I1B I 0.591579(9) 1.07571(4) 0.181688(8)
Cd1G Cd 0.0000 1.80857(6) -0.2500
N1E N 0.08942(12) 1.9896(5) -0.15779(11)
N1B N 0.58942(12) 0.5104(5) 0.34221(11)
H1E H 0.0624 2.1056 -0.1301
H1B H 0.5624 0.3944 0.3699
H2E H 0.1241 2.1130 -0.1760
H2B H 0.6241 0.3870 0.3240
C1E C 0.13505(14) 1.7743(5) -0.11299(13)
C2E C 0.10808(15) 1.6675(6) -0.05342(13)
H3E H 0.0589 1.7352 -0.0424
C3E C 0.15290(15) 1.4617(5) -0.00994(13)
H4E H 0.1337 1.3900 0.0308
C4E C 0.22537(14) 1.3566(5) -0.02417(12)
C5E C 0.24999(15) 1.4634(5) -0.08556(13)
H5E H 0.2985 1.3938 -0.0975
C6E C 0.20531(15) 1.6685(6) -0.12946(13)
H6E H 0.2233 1.7364 -0.1711
loop_
_geom_bond_atom_site_label_1
_geom_bond_atom_site_label_2
_geom_bond_site_symmetry_1
_geom_bond_site_symmetry_2
I1 Cd1 1_555 1_555
Cd1 N1 1_555 1_555
N1 H1 1_555 1_555
H2 N1 1_555 1_555
C1 N1 1_555 1_555
C2 C1 1_555 1_555
H3 C2 1_555 1_555
C3 C2 1_555 1_555
H4 C3 1_555 1_555
C4 C3 1_555 1_555
C5 C4 1_555 1_555
H5 C5 1_555 1_555
C6 C1 1_555 1_555
H6 C6 1_555 1_555
I1B Cd1 1_555 1_555
Cd1G N1E 1_555 1_555
N1E H1E 1_555 1_555
N1B Cd1 1_555 1_555
H1B N1B 1_555 1_555
H2E N1E 1_555 1_555
H2B N1B 1_555 1_555
C1E N1E 1_555 1_555
C2E C1E 1_555 1_555
H3E C2E 1_555 1_555
C3E C2E 1_555 1_555
H4E C3E 1_555 1_555
C4E C4 1_555 1_555
C5E C4E 1_555 1_555
H5E C5E 1_555 1_555
C6E C1E 1_555 1_555
H6E C6E 1_555 1_555
C5 C6 1_555 1_555
C3E C4E 1_555 1_555
C5E C6E 1_555 1_555

#END
