
#######################################################################
#
#                 Cambridge Crystallographic Data Centre
#                                CCDC 
#
#######################################################################
#
# If this CIF has been generated from an entry in the Cambridge 
# Structural Database, then it will include bibliographic, chemical, 
# crystal, experimental, refinement or atomic coordinate data resulting 
# from the CCDC's data processing and validation procedures.
#
#######################################################################

data_EGUGAP
_symmetry_cell_setting           monoclinic
_symmetry_space_group_name_H-M   'P 2/c'
_symmetry_Int_Tables_number      13
_space_group_name_Hall           '-P 2yc'
loop_
_symmetry_equiv_pos_site_id
_symmetry_equiv_pos_as_xyz
1 x,y,z
2 -x,y,1/2-z
3 -x,-y,-z
4 x,-y,1/2+z
_cell_length_a                   14.4881(18)
_cell_length_b                   4.3172(5)
_cell_length_c                   14.5404(17)
_cell_angle_alpha                90
_cell_angle_beta                 110.928(6)
_cell_angle_gamma                90
_cell_volume                     849.475
loop_
_atom_site_label
_atom_site_type_symbol
_atom_site_fract_x
_atom_site_fract_y
_atom_site_fract_z
Cd1 Cd 0.0000 0.48786(5) 0.2500
Br1 Br 0.065760(18) -0.09399(5) 0.154870(17)
N1 N 0.14077(15) 0.3233(5) 0.37342(15)
H1 H 0.1662(17) 0.194(6) 0.3447(17)
H2 H 0.1142(19) 0.222(7) 0.4077(19)
C1 C 0.21410(17) 0.5382(5) 0.43205(17)
C2 C 0.20208(17) 0.6654(5) 0.51470(16)
H3 H 0.1465 0.6100 0.5313
C3 C 0.27116(18) 0.8734(5) 0.57307(18)
H4 H 0.2624 0.9635 0.6290
C4 C 0.35267(18) 0.9492(5) 0.54962(17)
H5 H 0.4009 1.0885 0.5901
C5 C 0.36368(17) 0.8211(5) 0.46673(17)
H6 H 0.4201 0.8746 0.4512
C6 C 0.29461(17) 0.6163(5) 0.40545(17)
C7 C 0.30519(18) 0.4781(5) 0.31386(17)
H7 H 0.2491 0.5501 0.2558
H8 H 0.3000 0.2501 0.3172
C8 C 0.40057(19) 0.5557(6) 0.29786(19)
H9 H 0.4059 0.7807 0.2924
H10 H 0.4005 0.4569 0.2371
H11 H 0.4569 0.4795 0.3537
Cd1_2 Cd 0.0000 -0.51214(5) 0.2500
Cd1_3 Cd 0.0000 1.48786(5) 0.2500
Br1_2 Br 0.065760(18) 0.90601(5) 0.154870(17)
Br1A Br -0.065760(18) -0.09399(5) 0.345130(17)
Br1A_2 Br -0.065760(18) 0.90601(5) 0.345130(17)
N1A N -0.14077(15) 0.3233(5) 0.12658(15)
H1A H -0.1662(17) 0.194(6) 0.1553(17)
H2A H -0.1142(19) 0.222(7) 0.0923(19)
C1A C -0.21410(17) 0.5382(5) 0.06795(17)
C2A C -0.20208(17) 0.6654(5) -0.01470(16)
H3A H -0.1465 0.6100 -0.0313
C3A C -0.27116(18) 0.8734(5) -0.07307(18)
H4A H -0.2624 0.9635 -0.1290
C4A C -0.35267(18) 0.9492(5) -0.04962(17)
H5A H -0.4009 1.0885 -0.0901
C5A C -0.36368(17) 0.8211(5) 0.03327(17)
H6A H -0.4201 0.8746 0.0488
C6A C -0.29461(17) 0.6163(5) 0.09455(17)
C7A C -0.30519(18) 0.4781(5) 0.18614(17)
H7A H -0.2491 0.5501 0.2442
H8A H -0.3000 0.2501 0.1828
C8A C -0.40057(19) 0.5557(6) 0.20214(19)
H9A H -0.4059 0.7807 0.2076
H10A H -0.4005 0.4569 0.2629
H11A H -0.4569 0.4795 0.1463
loop_
_geom_bond_atom_site_label_1
_geom_bond_atom_site_label_2
_geom_bond_site_symmetry_1
_geom_bond_site_symmetry_2
Cd1 Br1 1_555 1_555
Br1 Cd1_2 1_555 1_555
N1 Cd1 1_555 1_555
H1 N1 1_555 1_555
H2 N1 1_555 1_555
C1 N1 1_555 1_555
C2 C1 1_555 1_555
H3 C2 1_555 1_555
C3 C2 1_555 1_555
H4 C3 1_555 1_555
C4 C3 1_555 1_555
H5 C4 1_555 1_555
C5 C4 1_555 1_555
H6 C5 1_555 1_555
C6 C1 1_555 1_555
C7 C6 1_555 1_555
H7 C7 1_555 1_555
H8 C7 1_555 1_555
C8 C7 1_555 1_555
H9 C8 1_555 1_555
H10 C8 1_555 1_555
H11 C8 1_555 1_555
Cd1_2 Br1A 1_555 1_555
Cd1_3 Br1_2 1_555 1_555
Br1_2 Cd1 1_555 1_555
Br1A Cd1 1_555 1_555
Br1A_2 Cd1 1_555 1_555
N1A Cd1 1_555 1_555
H1A N1A 1_555 1_555
H2A N1A 1_555 1_555
C1A N1A 1_555 1_555
C2A C1A 1_555 1_555
H3A C2A 1_555 1_555
C3A C2A 1_555 1_555
H4A C3A 1_555 1_555
C4A C3A 1_555 1_555
H5A C4A 1_555 1_555
C5A C4A 1_555 1_555
H6A C5A 1_555 1_555
C6A C1A 1_555 1_555
C7A C6A 1_555 1_555
H7A C7A 1_555 1_555
H8A C7A 1_555 1_555
C8A C7A 1_555 1_555
H9A C8A 1_555 1_555
H10A C8A 1_555 1_555
H11A C8A 1_555 1_555
C5 C6 1_555 1_555
Cd1_3 Br1A_2 1_555 1_555
C5A C6A 1_555 1_555

#END
