
#######################################################################
#
#                 Cambridge Crystallographic Data Centre
#                                CCDC 
#
#######################################################################
#
# If this CIF has been generated from an entry in the Cambridge 
# Structural Database, then it will include bibliographic, chemical, 
# crystal, experimental, refinement or atomic coordinate data resulting 
# from the CCDC's data processing and validation procedures.
#
#######################################################################

data_EGUGUK
_symmetry_cell_setting           orthorhombic
_symmetry_space_group_name_H-M   'P b c n'
_symmetry_Int_Tables_number      60
_space_group_name_Hall           '-P 2n 2ab'
loop_
_symmetry_equiv_pos_site_id
_symmetry_equiv_pos_as_xyz
1 x,y,z
2 1/2-x,1/2-y,1/2+z
3 -x,y,1/2-z
4 1/2+x,1/2-y,-z
5 -x,-y,-z
6 1/2+x,1/2+y,1/2-z
7 x,-y,1/2+z
8 1/2-x,1/2+y,z
_cell_length_a                   27.694(6)
_cell_length_b                   9.768(2)
_cell_length_c                   22.664(5)
_cell_angle_alpha                90
_cell_angle_beta                 90
_cell_angle_gamma                90
_cell_volume                     6130.95
loop_
_atom_site_label
_atom_site_type_symbol
_atom_site_fract_x
_atom_site_fract_y
_atom_site_fract_z
Cd1 Cd 0.00000 0.07293(2) 0.25000
Si1 Si 0.10025(2) -0.09285(6) 0.30340(3)
S1 S 0.08191(2) 0.00195(6) 0.22385(3)
N1 N 0.00673(7) 0.23961(18) 0.32563(8)
O1 O 0.04999(6) -0.10300(15) 0.34109(7)
O2 O 0.12638(6) -0.24029(17) 0.29379(8)
O3 O 0.13682(6) -0.0048(2) 0.34406(8)
C1 C 0.04266(9) -0.1385(2) 0.40272(10)
C2 C 0.04854(11) -0.0100(3) 0.44008(11)
H1 H 0.0801 0.028 0.4338
H2 H 0.0448 -0.0329 0.481
H3 H 0.0245 0.056 0.429
C3 C -0.00884(9) -0.1917(3) 0.40633(12)
H4 H -0.0306 -0.1243 0.3907
H5 H -0.0169 -0.2099 0.4468
H6 H -0.0116 -0.2746 0.3838
C4 C 0.07837(9) -0.2477(2) 0.42258(11)
H7 H 0.0748 -0.3277 0.3984
H8 H 0.0722 -0.2711 0.463
H9 H 0.1107 -0.2132 0.4189
C5 C 0.11604(12) -0.3572(3) 0.25677(13)
C6 C 0.06232(13) -0.3795(3) 0.25120(15)
H10 H 0.0486 -0.3924 0.2897
H11 H 0.0564 -0.4593 0.2275
H12 H 0.0478 -0.3011 0.2328
C7 C 0.13985(14) -0.4780(3) 0.28762(18)
H13 H 0.1736 -0.4594 0.293
H14 H 0.136 -0.5588 0.264
H15 H 0.1249 -0.492 0.3254
C8 C 0.13936(17) -0.3333(3) 0.19671(16)
H16 H 0.1245 -0.2559 0.178
H17 H 0.135 -0.413 0.1725
H18 H 0.1732 -0.3161 0.2018
C9 C 0.18754(10) 0.0288(3) 0.33963(13)
C10 C 0.21172(12) -0.0358(4) 0.39190(15)
H19 H 0.1973 -0.0018 0.4275
H20 H 0.2455 -0.0137 0.3915
H21 H 0.2078 -0.1334 0.3901
C11 C 0.20961(12) -0.0245(6) 0.28278(16)
H22 H 0.2082 -0.1227 0.2824
H23 H 0.2427 0.0044 0.2803
H24 H 0.1919 0.0111 0.2497
C12 C 0.18981(14) 0.1831(4) 0.3430(3)
H25 H 0.1736 0.2218 0.3095
H26 H 0.2229 0.212 0.343
H27 H 0.1744 0.2136 0.3786
C13 C 0.04925(9) 0.2723(2) 0.34934(10)
H28 H 0.0772 0.2419 0.3308
C14 C 0.05380(9) 0.3495(2) 0.40036(10)
H29 H 0.0843 0.3702 0.4152
C15 C 0.01280(9) 0.3956(2) 0.42923(10)
C16 C -0.03166(10) 0.3639(3) 0.40347(11)
H30 H -0.0602 0.3947 0.4206
C17 C -0.03298(9) 0.2865(2) 0.35240(11)
H31 H -0.0629 0.266 0.3359
C18 C 0.01812(10) 0.4714(2) 0.48497(11)
H32 H 0.034 0.4093 0.5122
H33 H 0.041 0.5444 0.4771
N1D N -0.00673(7) 0.76039(18) 0.67437(8)
C13D C -0.04925(9) 0.7277(2) 0.65066(10)
H28D H -0.0772 0.7581 0.6692
C14D C -0.05380(9) 0.6505(2) 0.59964(10)
H29D H -0.0843 0.6298 0.5848
C15D C -0.01280(9) 0.6044(2) 0.57077(10)
C16D C 0.03166(10) 0.6361(3) 0.59653(11)
H30D H 0.0602 0.6053 0.5794
C17D C 0.03298(9) 0.7135(2) 0.64760(11)
H31D H 0.0629 0.734 0.6641
C18D C -0.01812(10) 0.5286(2) 0.51503(11)
H32D H -0.034 0.5907 0.4878
H33D H -0.041 0.4556 0.5229
Si1B Si -0.10025(2) -0.09285(6) 0.19660(3)
S1B S -0.08191(2) 0.00195(6) 0.27615(3)
O1B O -0.04999(6) -0.10300(15) 0.15891(7)
O2B O -0.12638(6) -0.24029(17) 0.20621(8)
O3B O -0.13682(6) -0.0048(2) 0.15594(8)
C1B C -0.04266(9) -0.1385(2) 0.09728(10)
C2B C -0.04854(11) -0.0100(3) 0.05992(11)
H1B H -0.0801 0.028 0.0662
H2B H -0.0448 -0.0329 0.019
H3B H -0.0245 0.056 0.071
C3B C 0.00884(9) -0.1917(3) 0.09367(12)
H4B H 0.0306 -0.1243 0.1093
H5B H 0.0169 -0.2099 0.0532
H6B H 0.0116 -0.2746 0.1162
C4B C -0.07837(9) -0.2477(2) 0.07742(11)
H7B H -0.0748 -0.3277 0.1016
H8B H -0.0722 -0.2711 0.037
H9B H -0.1107 -0.2132 0.0811
C5B C -0.11604(12) -0.3572(3) 0.24323(13)
C6B C -0.06232(13) -0.3795(3) 0.24880(15)
H10B H -0.0486 -0.3924 0.2103
H11B H -0.0564 -0.4593 0.2725
H12B H -0.0478 -0.3011 0.2672
C7B C -0.13985(14) -0.4780(3) 0.21238(18)
H13B H -0.1736 -0.4594 0.207
H14B H -0.136 -0.5588 0.236
H15B H -0.1249 -0.492 0.1746
C8B C -0.13936(17) -0.3333(3) 0.30329(16)
H16B H -0.1245 -0.2559 0.322
H17B H -0.135 -0.413 0.3275
H18B H -0.1732 -0.3161 0.2982
C9B C -0.18754(10) 0.0288(3) 0.16037(13)
C10B C -0.21172(12) -0.0358(4) 0.10810(15)
H19B H -0.1973 -0.0018 0.0725
H20B H -0.2455 -0.0137 0.1085
H21B H -0.2078 -0.1334 0.1099
C11B C -0.20961(12) -0.0245(6) 0.21722(16)
H22B H -0.2082 -0.1227 0.2176
H23B H -0.2427 0.0044 0.2197
H24B H -0.1919 0.0111 0.2503
C12B C -0.18981(14) 0.1831(4) 0.1570(3)
H25B H -0.1736 0.2218 0.1905
H26B H -0.2229 0.212 0.157
H27B H -0.1744 0.2136 0.1214
Cd1D Cd 0.00000 0.92707(2) 0.75000
N1B N -0.00673(7) 0.23961(18) 0.17437(8)
Cl1 Cl 0.18975(4) 0.27247(9) 0.15402(4)
Cl2 Cl 0.14217(3) 0.14086(9) 0.05626(4)
Cl3 Cl 0.21941(3) 0.00129(9) 0.11740(4)
C19 C 0.17085(11) 0.1156(3) 0.12456(13)
H34 H 0.1473 0.0752 0.1518
Cl4 Cl 0.27107(3) 0.76840(9) 0.50423(4)
Cl5 Cl 0.37170(3) 0.73664(11) 0.53380(5)
Cl6 Cl 0.33298(4) 1.00212(10) 0.50910(9)
C20 C 0.32053(11) 0.8407(4) 0.53899(14)
H35 H 0.3127 0.8525 0.5808
loop_
_geom_bond_atom_site_label_1
_geom_bond_atom_site_label_2
_geom_bond_site_symmetry_1
_geom_bond_site_symmetry_2
Cd1 S1 1_555 1_555
Si1 S1 1_555 1_555
N1 Cd1 1_555 1_555
O1 Si1 1_555 1_555
O2 Si1 1_555 1_555
O3 Si1 1_555 1_555
C1 O1 1_555 1_555
C2 C1 1_555 1_555
H1 C2 1_555 1_555
H2 C2 1_555 1_555
H3 C2 1_555 1_555
C3 C1 1_555 1_555
H4 C3 1_555 1_555
H5 C3 1_555 1_555
H6 C3 1_555 1_555
C4 C1 1_555 1_555
H7 C4 1_555 1_555
H8 C4 1_555 1_555
H9 C4 1_555 1_555
C5 O2 1_555 1_555
C6 C5 1_555 1_555
H10 C6 1_555 1_555
H11 C6 1_555 1_555
H12 C6 1_555 1_555
C7 C5 1_555 1_555
H13 C7 1_555 1_555
H14 C7 1_555 1_555
H15 C7 1_555 1_555
C8 C5 1_555 1_555
H16 C8 1_555 1_555
H17 C8 1_555 1_555
H18 C8 1_555 1_555
C9 O3 1_555 1_555
C10 C9 1_555 1_555
H19 C10 1_555 1_555
H20 C10 1_555 1_555
H21 C10 1_555 1_555
C11 C9 1_555 1_555
H22 C11 1_555 1_555
H23 C11 1_555 1_555
H24 C11 1_555 1_555
C12 C9 1_555 1_555
H25 C12 1_555 1_555
H26 C12 1_555 1_555
H27 C12 1_555 1_555
C13 N1 1_555 1_555
H28 C13 1_555 1_555
C14 C13 1_555 1_555
H29 C14 1_555 1_555
C15 C14 1_555 1_555
C16 C15 1_555 1_555
H30 C16 1_555 1_555
C17 N1 1_555 1_555
H31 C17 1_555 1_555
C18 C15 1_555 1_555
H32 C18 1_555 1_555
H33 C18 1_555 1_555
Cl1 C19 1_555 1_555
Cl2 C19 1_555 1_555
Cl3 C19 1_555 1_555
C19 H34 1_555 1_555
Cl4 C20 1_555 1_555
Cl5 C20 1_555 1_555
Cl6 C20 1_555 1_555
C20 H35 1_555 1_555
N1D C13D 1_555 1_555
C13D H28D 1_555 1_555
C14D C13D 1_555 1_555
H29D C14D 1_555 1_555
C15D C14D 1_555 1_555
C16D C15D 1_555 1_555
H30D C16D 1_555 1_555
C17D N1D 1_555 1_555
H31D C17D 1_555 1_555
C18D C18 1_555 1_555
H32D C18D 1_555 1_555
H33D C18D 1_555 1_555
Si1B S1B 1_555 1_555
S1B Cd1 1_555 1_555
O1B Si1B 1_555 1_555
O2B Si1B 1_555 1_555
O3B Si1B 1_555 1_555
C1B O1B 1_555 1_555
C2B C1B 1_555 1_555
H1B C2B 1_555 1_555
H2B C2B 1_555 1_555
H3B C2B 1_555 1_555
C3B C1B 1_555 1_555
H4B C3B 1_555 1_555
H5B C3B 1_555 1_555
H6B C3B 1_555 1_555
C4B C1B 1_555 1_555
H7B C4B 1_555 1_555
H8B C4B 1_555 1_555
H9B C4B 1_555 1_555
C5B O2B 1_555 1_555
C6B C5B 1_555 1_555
H10B C6B 1_555 1_555
H11B C6B 1_555 1_555
H12B C6B 1_555 1_555
C7B C5B 1_555 1_555
H13B C7B 1_555 1_555
H14B C7B 1_555 1_555
H15B C7B 1_555 1_555
C8B C5B 1_555 1_555
H16B C8B 1_555 1_555
H17B C8B 1_555 1_555
H18B C8B 1_555 1_555
C9B O3B 1_555 1_555
C10B C9B 1_555 1_555
H19B C10B 1_555 1_555
H20B C10B 1_555 1_555
H21B C10B 1_555 1_555
C11B C9B 1_555 1_555
H22B C11B 1_555 1_555
H23B C11B 1_555 1_555
H24B C11B 1_555 1_555
C12B C9B 1_555 1_555
H25B C12B 1_555 1_555
H26B C12B 1_555 1_555
H27B C12B 1_555 1_555
Cd1D N1D 1_555 1_555
N1B Cd1 1_555 1_555
C16 C17 1_555 1_555
C15D C18D 1_555 1_555
C16D C17D 1_555 1_555

#END
