
#######################################################################
#
#                 Cambridge Crystallographic Data Centre
#                                CCDC 
#
#######################################################################
#
# If this CIF has been generated from an entry in the Cambridge 
# Structural Database, then it will include bibliographic, chemical, 
# crystal, experimental, refinement or atomic coordinate data resulting 
# from the CCDC's data processing and validation procedures.
#
#######################################################################

data_EGUGIY
_symmetry_cell_setting           monoclinic
_symmetry_space_group_name_H-M   'C 2/c'
_symmetry_Int_Tables_number      15
_space_group_name_Hall           '-C 2yn'
loop_
_symmetry_equiv_pos_site_id
_symmetry_equiv_pos_as_xyz
1 x,y,z
2 -x,y,1/2-z
3 1/2+x,1/2+y,z
4 1/2-x,1/2+y,1/2-z
5 -x,-y,-z
6 x,-y,1/2+z
7 1/2-x,1/2-y,-z
8 1/2+x,1/2-y,1/2+z
_cell_length_a                   17.5369(5)
_cell_length_b                   14.4176(3)
_cell_length_c                   22.6213(6)
_cell_angle_alpha                90
_cell_angle_beta                 97.639(2)
_cell_angle_gamma                90
_cell_volume                     5668.81
loop_
_atom_site_label
_atom_site_type_symbol
_atom_site_fract_x
_atom_site_fract_y
_atom_site_fract_z
Cd1 Cd 0.50000 0.289874(11) 0.75000
S1 S 0.36576(2) 0.33373(3) 0.756430(15)
Si1 Si 0.34497(2) 0.38990(3) 0.670997(16)
O1 O 0.29424(6) 0.32226(8) 0.62276(5)
O2 O 0.29771(6) 0.48726(8) 0.66715(4)
O3 O 0.42902(6) 0.39994(8) 0.64821(4)
N1 N 0.50989(7) 0.17573(9) 0.82631(5)
C1 C 0.21301(10) 0.30436(13) 0.61200(7)
C2 C 0.17733(13) 0.37280(17) 0.56515(9)
H1 H 0.1861 0.4362 0.5801
H2 H 0.1219 0.3613 0.5566
H3 H 0.201 0.365 0.5286
C3 C 0.20445(13) 0.20583(16) 0.58884(10)
H4 H 0.2296 0.2 0.5529
H5 H 0.1497 0.1908 0.5793
H6 H 0.2285 0.163 0.6194
C4 C 0.17569(11) 0.31418(15) 0.66890(9)
H7 H 0.2025 0.2743 0.7
H8 H 0.1215 0.2957 0.6609
H9 H 0.1791 0.3789 0.6823
C5 C 0.30188(10) 0.57003(12) 0.70337(7)
C6 C 0.27196(11) 0.64787(13) 0.66131(9)
H10 H 0.3083 0.659 0.6327
H11 H 0.2664 0.7045 0.6843
H12 H 0.2219 0.6303 0.6397
C7 C 0.38425(12) 0.58961(15) 0.73085(9)
H13 H 0.4036 0.5375 0.7563
H14 H 0.3856 0.6463 0.7548
H15 H 0.4166 0.5977 0.6991
C8 C 0.24918(14) 0.55601(15) 0.75086(9)
H16 H 0.1975 0.5397 0.7317
H17 H 0.2467 0.6134 0.7737
H18 H 0.2693 0.5059 0.7777
C9 C 0.45167(10) 0.43070(13) 0.59191(7)
C10 C 0.39046(14) 0.49125(19) 0.55749(9)
H19 H 0.343 0.4553 0.5477
H20 H 0.4084 0.5127 0.5206
H21 H 0.3804 0.5449 0.5819
C11 C 0.4655(2) 0.34616(18) 0.55669(10)
H22 H 0.5065 0.309 0.5789
H23 H 0.4809 0.3647 0.5183
H24 H 0.4182 0.3093 0.5498
C12 C 0.52391(16) 0.4873(2) 0.60841(10)
H25 H 0.5125 0.5403 0.6328
H26 H 0.5426 0.5096 0.572
H27 H 0.5635 0.4485 0.631
C13 C 0.44682(9) 0.14841(13) 0.84888(7)
H28 H 0.3981 0.1681 0.8295
C14 C 0.44887(9) 0.09316(13) 0.89888(7)
H29 H 0.4024 0.0754 0.9131
C15 C 0.51964(9) 0.06355(11) 0.92836(6)
C16 C 0.58484(9) 0.09036(11) 0.90385(6)
H30 H 0.6343 0.0704 0.9216
C17 C 0.57778(9) 0.14613(11) 0.85360(6)
H31 H 0.6231 0.1641 0.8379
C18 C 0.52747(10) 0.00695(11) 0.98289(7)
H32 H 0.5739(11) -0.0195(13) 0.9918(8)
N1D N 0.49011(7) -0.17573(9) 1.17369(5)
C13D C 0.55318(9) -0.14841(13) 1.15112(7)
H28D H 0.6019 -0.1681 1.1705
C14D C 0.55113(9) -0.09316(13) 1.10112(7)
H29D H 0.5976 -0.0754 1.0869
C15D C 0.48036(9) -0.06355(11) 1.07164(6)
C16D C 0.41516(9) -0.09036(11) 1.09615(6)
H30D H 0.3657 -0.0704 1.0784
C17D C 0.42222(9) -0.14613(11) 1.14640(6)
H31D H 0.3769 -0.1641 1.1621
C18D C 0.47253(10) -0.00695(11) 1.01711(7)
H32D H 0.4261(11) 0.0195(13) 1.0082(8)
S1A S 0.63424(2) 0.33373(3) 0.743570(15)
Si1A Si 0.65503(2) 0.38990(3) 0.829003(16)
O1A O 0.70576(6) 0.32226(8) 0.87724(5)
O2A O 0.70229(6) 0.48726(8) 0.83285(4)
O3A O 0.57098(6) 0.39994(8) 0.85179(4)
C1A C 0.78699(10) 0.30436(13) 0.88800(7)
C2A C 0.82267(13) 0.37280(17) 0.93485(9)
H1A H 0.8139 0.4362 0.9199
H2A H 0.8781 0.3613 0.9434
H3A H 0.799 0.365 0.9714
C3A C 0.79555(13) 0.20583(16) 0.91116(10)
H4A H 0.7704 0.2 0.9471
H5A H 0.8503 0.1908 0.9207
H6A H 0.7715 0.163 0.8806
C4A C 0.82431(11) 0.31418(15) 0.83110(9)
H7A H 0.7975 0.2743 0.8
H8A H 0.8785 0.2957 0.8391
H9A H 0.8209 0.3789 0.8177
C5A C 0.69812(10) 0.57003(12) 0.79663(7)
C6A C 0.72804(11) 0.64787(13) 0.83869(9)
H10A H 0.6917 0.659 0.8673
H11A H 0.7336 0.7045 0.8157
H12A H 0.7781 0.6303 0.8603
C7A C 0.61575(12) 0.58961(15) 0.76915(9)
H13A H 0.5964 0.5375 0.7437
H14A H 0.6144 0.6463 0.7452
H15A H 0.5834 0.5977 0.8009
C8A C 0.75082(14) 0.55601(15) 0.74914(9)
H16A H 0.8025 0.5397 0.7683
H17A H 0.7533 0.6134 0.7263
H18A H 0.7307 0.5059 0.7223
C9A C 0.54833(10) 0.43070(13) 0.90809(7)
C10A C 0.60954(14) 0.49125(19) 0.94251(9)
H19A H 0.657 0.4553 0.9523
H20A H 0.5916 0.5127 0.9794
H21A H 0.6196 0.5449 0.9181
C11A C 0.5345(2) 0.34616(18) 0.94331(10)
H22A H 0.4935 0.309 0.9211
H23A H 0.5191 0.3647 0.9817
H24A H 0.5818 0.3093 0.9502
C12A C 0.47609(16) 0.4873(2) 0.89159(10)
H25A H 0.4875 0.5403 0.8672
H26A H 0.4574 0.5096 0.928
H27A H 0.4365 0.4485 0.869
Cd1D Cd 0.50000 -0.289874(11) 1.25000
N1A N 0.49011(7) 0.17573(9) 0.67369(5)
C19 C 0.1920(2) 0.6315(3) 0.41316(17)
C20 C 0.1768(2) 0.6756(3) 0.46499(13)
H33 H 0.2139 0.6741 0.4997
C21 C 0.1075(3) 0.7219(4) 0.46608(18)
H34 H 0.0972 0.752 0.5015
C22 C 0.0533(2) 0.7241(4) 0.4153(2)
H35 H 0.0059 0.7557 0.4161
C23 C 0.0684(3) 0.6800(3) 0.36350(19)
H36 H 0.0314 0.6815 0.3288
C24 C 0.1378(3) 0.6337(3) 0.36241(14)
H37 H 0.1481 0.6036 0.327
C25 C 0.2678(3) 0.5853(4) 0.4103(2)
H38 H 0.2595 0.519 0.4019
H39 H 0.3007 0.5929 0.4485
H40 H 0.2928 0.6135 0.3784
C26? C 0.1131(6) 0.6484(6) 0.3690(3)
C27? C 0.1858(6) 0.6097(5) 0.3829(5)
H41? H 0.2091 0.5779 0.3532
C28? C 0.2246(5) 0.6177(6) 0.4405(7)
H42? H 0.2743 0.5912 0.45
C29? C 0.1906(8) 0.6643(8) 0.4840(4)
H43? H 0.2171 0.6697 0.5233
C30? C 0.1178(8) 0.7029(7) 0.4700(4)
H44? H 0.0946 0.7348 0.4997
C31? C 0.0791(5) 0.6950(6) 0.4125(5)
H45? H 0.0293 0.7214 0.4029
C32? C 0.0644(8) 0.6400(9) 0.3091(4)
H46? H 0.0962 0.6177 0.2795
H47? H 0.0429 0.7009 0.2968
H48? H 0.0224 0.5961 0.3119
loop_
_geom_bond_atom_site_label_1
_geom_bond_atom_site_label_2
_geom_bond_site_symmetry_1
_geom_bond_site_symmetry_2
Cd1 S1 1_555 1_555
S1 Si1 1_555 1_555
Si1 O1 1_555 1_555
O1 C1 1_555 1_555
O2 Si1 1_555 1_555
O3 Si1 1_555 1_555
N1 Cd1 1_555 1_555
C1 C2 1_555 1_555
C2 H1 1_555 1_555
H2 C2 1_555 1_555
H3 C2 1_555 1_555
C3 C1 1_555 1_555
H4 C3 1_555 1_555
H5 C3 1_555 1_555
H6 C3 1_555 1_555
C4 C1 1_555 1_555
H7 C4 1_555 1_555
H8 C4 1_555 1_555
H9 C4 1_555 1_555
C5 O2 1_555 1_555
C6 C5 1_555 1_555
H10 C6 1_555 1_555
H11 C6 1_555 1_555
H12 C6 1_555 1_555
C7 C5 1_555 1_555
H13 C7 1_555 1_555
H14 C7 1_555 1_555
H15 C7 1_555 1_555
C8 C5 1_555 1_555
H16 C8 1_555 1_555
H17 C8 1_555 1_555
H18 C8 1_555 1_555
C9 O3 1_555 1_555
C10 C9 1_555 1_555
H19 C10 1_555 1_555
H20 C10 1_555 1_555
H21 C10 1_555 1_555
C11 C9 1_555 1_555
H22 C11 1_555 1_555
H23 C11 1_555 1_555
H24 C11 1_555 1_555
C12 C9 1_555 1_555
H25 C12 1_555 1_555
H26 C12 1_555 1_555
H27 C12 1_555 1_555
C13 N1 1_555 1_555
H28 C13 1_555 1_555
C14 C13 1_555 1_555
H29 C14 1_555 1_555
C15 C14 1_555 1_555
C16 C15 1_555 1_555
H30 C16 1_555 1_555
C17 N1 1_555 1_555
H31 C17 1_555 1_555
C18 C15 1_555 1_555
H32 C18 1_555 1_555
C19 C20 1_555 1_555
C20 H33 1_555 1_555
C21 C20 1_555 1_555
H34 C21 1_555 1_555
C22 C21 1_555 1_555
H35 C22 1_555 1_555
C23 C22 1_555 1_555
H36 C23 1_555 1_555
C24 C19 1_555 1_555
H37 C24 1_555 1_555
C25 C19 1_555 1_555
H38 C25 1_555 1_555
H39 C25 1_555 1_555
H40 C25 1_555 1_555
N1D C13D 1_555 1_555
C13D H28D 1_555 1_555
C14D C13D 1_555 1_555
H29D C14D 1_555 1_555
C15D C14D 1_555 1_555
C16D C15D 1_555 1_555
H30D C16D 1_555 1_555
C17D N1D 1_555 1_555
H31D C17D 1_555 1_555
C18D C18 1_555 1_555
H32D C18D 1_555 1_555
S1A Cd1 1_555 1_555
Si1A S1A 1_555 1_555
O1A Si1A 1_555 1_555
O2A Si1A 1_555 1_555
O3A Si1A 1_555 1_555
C1A O1A 1_555 1_555
C2A C1A 1_555 1_555
H1A C2A 1_555 1_555
H2A C2A 1_555 1_555
H3A C2A 1_555 1_555
C3A C1A 1_555 1_555
H4A C3A 1_555 1_555
H5A C3A 1_555 1_555
H6A C3A 1_555 1_555
C4A C1A 1_555 1_555
H7A C4A 1_555 1_555
H8A C4A 1_555 1_555
H9A C4A 1_555 1_555
C5A O2A 1_555 1_555
C6A C5A 1_555 1_555
H10A C6A 1_555 1_555
H11A C6A 1_555 1_555
H12A C6A 1_555 1_555
C7A C5A 1_555 1_555
H13A C7A 1_555 1_555
H14A C7A 1_555 1_555
H15A C7A 1_555 1_555
C8A C5A 1_555 1_555
H16A C8A 1_555 1_555
H17A C8A 1_555 1_555
H18A C8A 1_555 1_555
C9A O3A 1_555 1_555
C10A C9A 1_555 1_555
H19A C10A 1_555 1_555
H20A C10A 1_555 1_555
H21A C10A 1_555 1_555
C11A C9A 1_555 1_555
H22A C11A 1_555 1_555
H23A C11A 1_555 1_555
H24A C11A 1_555 1_555
C12A C9A 1_555 1_555
H25A C12A 1_555 1_555
H26A C12A 1_555 1_555
H27A C12A 1_555 1_555
Cd1D N1D 1_555 1_555
N1A Cd1 1_555 1_555
C16 C17 1_555 1_555
C23 C24 1_555 1_555
C15D C18D 1_555 1_555
C16D C17D 1_555 1_555

#END
