
#######################################################################
#
#                 Cambridge Crystallographic Data Centre
#                                CCDC 
#
#######################################################################
#
# If this CIF has been generated from an entry in the Cambridge 
# Structural Database, then it will include bibliographic, chemical, 
# crystal, experimental, refinement or atomic coordinate data resulting 
# from the CCDC's data processing and validation procedures.
#
#######################################################################

data_EGUHOD02
_symmetry_cell_setting           monoclinic
_symmetry_space_group_name_H-M   'C 2/c'
_symmetry_Int_Tables_number      15
_space_group_name_Hall           '-C 2yn'
loop_
_symmetry_equiv_pos_site_id
_symmetry_equiv_pos_as_xyz
1 x,y,z
2 x,-y,1/2+z
3 1/2+x,1/2+y,z
4 1/2+x,1/2-y,1/2+z
5 -x,-y,-z
6 -x,y,1/2-z
7 1/2-x,1/2-y,-z
8 1/2-x,1/2+y,1/2-z
_cell_length_a                   23.5807(13)
_cell_length_b                   6.4275(5)
_cell_length_c                   6.9611(6)
_cell_angle_alpha                90
_cell_angle_beta                 91.394(4)
_cell_angle_gamma                90
_cell_volume                     1054.75
loop_
_atom_site_label
_atom_site_type_symbol
_atom_site_fract_x
_atom_site_fract_y
_atom_site_fract_z
Cd1 Cd 0.0000 -0.33984(4) 0.2500
O1 O -0.04392(8) -0.3273(3) 0.5530(3)
O2 O -0.08764(8) -0.6151(3) 0.6369(3)
O3 O 0.0000 0.0056(5) 0.2500
H1 H 0.0167(17) 0.093(5) 0.321(5)
C1 C -0.24817(12) -0.3525(4) 0.5375(4)
C2 C -0.19423(11) -0.4414(4) 0.5738(4)
H2 H -0.1915 -0.5787 0.6238
C3 C -0.14565(12) -0.3316(4) 0.5375(4)
C4 C -0.08915(12) -0.4317(5) 0.5768(4)
C5 C -0.14900(12) -0.1275(4) 0.4637(4)
H3 H -0.1152 -0.0524 0.4395
C6 C -0.29923(11) -0.4630(4) 0.5733(4)
H4 H -0.2974 -0.6005 0.6231
C1F C -0.25183(12) -0.1475(4) 0.4625(4)
C2F C -0.30577(11) -0.0586(4) 0.4262(4)
H2F H -0.3085 0.0787 0.3762
C3F C -0.35435(12) -0.1684(4) 0.4625(4)
C4F C -0.41085(12) -0.0683(5) 0.4232(4)
O1F O -0.45608(8) -0.1727(3) 0.4470(3)
O2F O -0.41236(8) 0.1151(3) 0.3631(3)
C5F C -0.35100(12) -0.3725(4) 0.5363(4)
H3F H -0.3848 -0.4476 0.5605
C6F C -0.20077(11) -0.0370(4) 0.4267(4)
H4F H -0.2026 0.1005 0.3769
H1E H -0.0167(17) 0.093(5) 0.179(5)
O1E O 0.04392(8) -0.3273(3) -0.0530(3)
O2A O -0.08764(8) -0.3849(3) 0.1369(3)
O2D O 0.08764(8) -0.3849(3) 0.3631(3)
Cd1A Cd 0.0000 -0.66016(4) 0.7500
Cd1C Cd -0.5000 -0.16016(4) 0.7500
Cd1B Cd -0.5000 0.16016(4) 0.2500
loop_
_geom_bond_atom_site_label_1
_geom_bond_atom_site_label_2
_geom_bond_site_symmetry_1
_geom_bond_site_symmetry_2
Cd1 O1 1_555 1_555
O1 C4 1_555 1_555
O2 C4 1_555 1_555
O3 Cd1 1_555 1_555
H1 O3 1_555 1_555
C1 C2 1_555 1_555
C2 H2 1_555 1_555
C3 C2 1_555 1_555
C4 C3 1_555 1_555
C5 C3 1_555 1_555
H3 C5 1_555 1_555
C6 C1 1_555 1_555
H4 C6 1_555 1_555
C1F C1 1_555 1_555
C2F C1F 1_555 1_555
H2F C2F 1_555 1_555
C3F C2F 1_555 1_555
C4F C3F 1_555 1_555
O1F C4F 1_555 1_555
O2F C4F 1_555 1_555
C5F C6 1_555 1_555
H3F C5F 1_555 1_555
C6F C5 1_555 1_555
H4F C6F 1_555 1_555
H1E O3 1_555 1_555
O1E Cd1 1_555 1_555
O2A Cd1 1_555 1_555
O2D Cd1 1_555 1_555
Cd1A O2 1_555 1_555
Cd1C O1F 1_555 1_555
Cd1B O2F 1_555 1_555
C1F C6F 1_555 1_555
C3F C5F 1_555 1_555

#END
