
#######################################################################
#
#                 Cambridge Crystallographic Data Centre
#                                CCDC 
#
#######################################################################
#
# If this CIF has been generated from an entry in the Cambridge 
# Structural Database, then it will include bibliographic, chemical, 
# crystal, experimental, refinement or atomic coordinate data resulting 
# from the CCDC's data processing and validation procedures.
#
#######################################################################

data_EGUHOD01
_symmetry_cell_setting           monoclinic
_symmetry_space_group_name_H-M   'C 2/c'
_symmetry_Int_Tables_number      15
_space_group_name_Hall           '-C 2yn'
loop_
_symmetry_equiv_pos_site_id
_symmetry_equiv_pos_as_xyz
1 x,y,z
2 -x,y,1/2-z
3 1/2+x,1/2+y,z
4 1/2-x,1/2+y,1/2-z
5 -x,-y,-z
6 x,-y,1/2+z
7 1/2-x,1/2-y,-z
8 1/2+x,1/2-y,1/2+z
_cell_length_a                   23.6110
_cell_length_b                   6.4346
_cell_length_c                   6.9529
_cell_angle_alpha                90.0
_cell_angle_beta                 91.38
_cell_angle_gamma                90.0
_cell_volume                     1056.03
loop_
_atom_site_label
_atom_site_type_symbol
_atom_site_fract_x
_atom_site_fract_y
_atom_site_fract_z
Cd1 Cd 0.50000 -0.16008 0.25000
O1 O 0.50000 -0.50920 0.25000
O2 O 0.45605 0.17095 0.05230
O3 O 0.41245 -0.11695 0.13495
C1 C 0.30555 0.05730 0.07485
H1 H 0.30820 -0.07665 0.12430
C2 C 0.35405 0.16820 0.03820
C3 C 0.35030 0.37030 -0.03625
H2 H 0.38340 0.44185 -0.06235
C4 C 0.29910 0.46430 -0.07215
H3 H 0.29765 0.59935 -0.11905
C5 C 0.25185 0.14670 0.03740
C6 C 0.40965 0.06845 0.07745
C4F C 0.20090 0.03570 0.07215
C3F C 0.14970 0.12970 0.03625
C2F C 0.14595 0.33180 -0.03820
C1F C 0.19445 0.44270 -0.07485
H1F H 0.19180 0.57665 -0.12430
C5F C 0.24815 0.35330 -0.03740
C6F C 0.09035 0.43155 -0.07745
O2F O 0.04395 0.32905 -0.05230
O3F O 0.08755 0.61695 -0.13495
H2F H 0.11660 0.05815 0.06235
H3F H 0.20235 -0.09935 0.11905
O2A O 0.54395 0.17095 0.44770
O2D O 0.54395 -0.17095 -0.05230
O2E O 0.45605 -0.17095 0.55230
O3A O 0.58755 -0.11695 0.36505
Cd1D Cd 0.50000 0.16008 -0.25000
Cd1B Cd 0.00000 0.33992 0.25000
Cd1F Cd 0.00000 0.66008 -0.25000
loop_
_geom_bond_atom_site_label_1
_geom_bond_atom_site_label_2
_geom_bond_site_symmetry_1
_geom_bond_site_symmetry_2
Cd1 O1 1_555 1_555
O2 Cd1 1_555 1_555
O3 Cd1 1_555 1_555
C1 H1 1_555 1_555
C2 C1 1_555 1_555
C3 C2 1_555 1_555
H2 C3 1_555 1_555
C4 C3 1_555 1_555
H3 C4 1_555 1_555
C5 C1 1_555 1_555
C6 O2 1_555 1_555
C4F C5 1_555 1_555
C3F C4F 1_555 1_555
C2F C3F 1_555 1_555
C1F C2F 1_555 1_555
H1F C1F 1_555 1_555
C5F C4 1_555 1_555
C6F C2F 1_555 1_555
O2F C6F 1_555 1_555
O3F C6F 1_555 1_555
H2F C3F 1_555 1_555
H3F C4F 1_555 1_555
O2A Cd1 1_555 1_555
O2D Cd1 1_555 1_555
O2E Cd1 1_555 1_555
O3A Cd1 1_555 1_555
Cd1D O2 1_555 1_555
Cd1B O2F 1_555 1_555
Cd1F O2F 1_555 1_555
O3 C6 1_555 1_555
C2 C6 1_555 1_555
C5 C5F 1_555 1_555
C1F C5F 1_555 1_555
O3F Cd1F 1_555 1_555
O2D Cd1D 1_555 1_555

#END
