
#######################################################################
#
#                 Cambridge Crystallographic Data Centre
#                                CCDC 
#
#######################################################################
#
# If this CIF has been generated from an entry in the Cambridge 
# Structural Database, then it will include bibliographic, chemical, 
# crystal, experimental, refinement or atomic coordinate data resulting 
# from the CCDC's data processing and validation procedures.
#
#######################################################################

data_EGULIB
_symmetry_cell_setting           monoclinic
_symmetry_space_group_name_H-M   'P 21/c'
_symmetry_Int_Tables_number      14
_space_group_name_Hall           '-P 2ybc'
loop_
_symmetry_equiv_pos_site_id
_symmetry_equiv_pos_as_xyz
1 x,y,z
2 x,1/2-y,1/2+z
3 -x,-y,-z
4 -x,1/2+y,1/2-z
_cell_length_a                   13.3376(8)
_cell_length_b                   16.4644(10)
_cell_length_c                   10.4926(6)
_cell_angle_alpha                90
_cell_angle_beta                 108.145(1)
_cell_angle_gamma                90
_cell_volume                     2189.55
loop_
_atom_site_label
_atom_site_type_symbol
_atom_site_fract_x
_atom_site_fract_y
_atom_site_fract_z
Sn1 Sn 0.046055(19) 0.203760(14) 0.29057(2)
O1 O 0.04901(18) 0.11567(14) 0.4446(2)
O2 O 0.05345(19) 0.20840(14) 0.5993(2)
O3 O 0.3755(2) -0.0679(2) 0.5631(3)
O4 O 0.4847(2) -0.0579(2) 0.7819(3)
C1 C 0.0573(2) 0.1368(2) 0.5651(3)
C2 C 0.0737(3) 0.0671(2) 0.6648(4)
H1 H 0.0606 0.0864 0.7465
H2 H 0.0227 0.0240 0.6261
C3 C 0.1845(3) 0.0326(2) 0.7008(4)
C4 C 0.2203(3) -0.0041(2) 0.6021(4)
H3 H 0.1762 -0.0097 0.5132
C5 C 0.3225(3) -0.0315(2) 0.6413(4)
C6 C 0.3875(3) -0.0249(3) 0.7713(4)
C7 C 0.3545(3) 0.0089(3) 0.8693(4)
H4 H 0.3990 0.0128 0.9583
C8 C 0.2507(3) 0.0377(2) 0.8306(4)
H5 H 0.2252 0.0615 0.8958
C9 C 0.4776(4) -0.0831(3) 0.6510(5)
H6 H 0.4932 -0.1413 0.6512
H7 H 0.5297 -0.0537 0.6203
C10 C 0.0109(3) 0.1125(2) 0.1391(4)
H8 H -0.0259 0.0680 0.1676
H9 H -0.0379 0.1356 0.0570
C11 C 0.1054(3) 0.0772(3) 0.1053(4)
H10 H 0.1496 0.1217 0.0912
H11 H 0.0802 0.0463 0.0216
C12 C 0.1722(4) 0.0214(3) 0.2167(5)
H12 H 0.2009 0.0535 0.2988
H13 H 0.1265 -0.0206 0.2351
C13 C 0.2608(4) -0.0184(3) 0.1835(5)
H14 H 0.2998 -0.0524 0.2579
H15 H 0.3073 0.0227 0.1670
H16 H 0.2330 -0.0516 0.1039
C14 C -0.0855(3) 0.2752(2) 0.2980(4)
H17 H -0.1114 0.2535 0.3689
H18 H -0.0609 0.3307 0.3235
C15 C -0.1783(3) 0.2789(2) 0.1676(4)
H19 H -0.2236 0.3250 0.1722
H20 H -0.1510 0.2885 0.0923
C16 C -0.2434(3) 0.2029(3) 0.1413(5)
H21 H -0.2739 0.1947 0.2141
H22 H -0.1977 0.1563 0.1407
C17 C -0.3324(4) 0.2063(3) 0.0074(5)
H23 H -0.3723 0.1560 -0.0059
H24 H -0.3025 0.2135 -0.0651
H25 H -0.3788 0.2515 0.0083
C18 C 0.2050(3) 0.2452(3) 0.3769(4)
H26 H 0.2381 0.2450 0.3056
H27 H 0.2017 0.3019 0.4036
C19 C 0.2774(3) 0.2014(3) 0.4944(4)
H28 H 0.2856 0.1454 0.4676
H29 H 0.2442 0.1992 0.5656
C20 C 0.3859(3) 0.2389(3) 0.5513(5)
H30 H 0.4182 0.2429 0.4795
H31 H 0.3781 0.2941 0.5815
C21 C 0.4590(4) 0.1927(4) 0.6661(5)
H32 H 0.5266 0.2203 0.6968
H33 H 0.4691 0.1382 0.6367
H34 H 0.4288 0.1895 0.7389
O2A O 0.05345(19) 0.29160(14) 0.0993(2)
Sn1A Sn 0.046055(19) 0.296240(14) 0.79057(2)
loop_
_geom_bond_atom_site_label_1
_geom_bond_atom_site_label_2
_geom_bond_site_symmetry_1
_geom_bond_site_symmetry_2
Sn1 O1 1_555 1_555
O1 C1 1_555 1_555
O2 C1 1_555 1_555
O3 C5 1_555 1_555
O4 C6 1_555 1_555
C1 C2 1_555 1_555
C2 H1 1_555 1_555
H2 C2 1_555 1_555
C3 C2 1_555 1_555
C4 C3 1_555 1_555
H3 C4 1_555 1_555
C5 C4 1_555 1_555
C6 C5 1_555 1_555
C7 C6 1_555 1_555
H4 C7 1_555 1_555
C8 C3 1_555 1_555
H5 C8 1_555 1_555
C9 O3 1_555 1_555
H6 C9 1_555 1_555
H7 C9 1_555 1_555
C10 Sn1 1_555 1_555
H8 C10 1_555 1_555
H9 C10 1_555 1_555
C11 C10 1_555 1_555
H10 C11 1_555 1_555
H11 C11 1_555 1_555
C12 C11 1_555 1_555
H12 C12 1_555 1_555
H13 C12 1_555 1_555
C13 C12 1_555 1_555
H14 C13 1_555 1_555
H15 C13 1_555 1_555
H16 C13 1_555 1_555
C14 Sn1 1_555 1_555
H17 C14 1_555 1_555
H18 C14 1_555 1_555
C15 C14 1_555 1_555
H19 C15 1_555 1_555
H20 C15 1_555 1_555
C16 C15 1_555 1_555
H21 C16 1_555 1_555
H22 C16 1_555 1_555
C17 C16 1_555 1_555
H23 C17 1_555 1_555
H24 C17 1_555 1_555
H25 C17 1_555 1_555
C18 Sn1 1_555 1_555
H26 C18 1_555 1_555
H27 C18 1_555 1_555
C19 C18 1_555 1_555
H28 C19 1_555 1_555
H29 C19 1_555 1_555
C20 C19 1_555 1_555
H30 C20 1_555 1_555
H31 C20 1_555 1_555
C21 C20 1_555 1_555
H32 C21 1_555 1_555
H33 C21 1_555 1_555
H34 C21 1_555 1_555
O2A Sn1 1_555 1_555
Sn1A O2 1_555 1_555
O4 C9 1_555 1_555
C7 C8 1_555 1_555

#END
