
#######################################################################
#
#                 Cambridge Crystallographic Data Centre
#                                CCDC 
#
#######################################################################
#
# If this CIF has been generated from an entry in the Cambridge 
# Structural Database, then it will include bibliographic, chemical, 
# crystal, experimental, refinement or atomic coordinate data resulting 
# from the CCDC's data processing and validation procedures.
#
#######################################################################

data_EGULUN
_symmetry_cell_setting           monoclinic
_symmetry_space_group_name_H-M   'P 21/n'
_symmetry_Int_Tables_number      14
_space_group_name_Hall           '-P 2yn'
loop_
_symmetry_equiv_pos_site_id
_symmetry_equiv_pos_as_xyz
1 x,y,z
2 1/2+x,1/2-y,1/2+z
3 -x,-y,-z
4 1/2-x,1/2+y,1/2-z
_cell_length_a                   11.9721(9)
_cell_length_b                   8.1977(6)
_cell_length_c                   12.6962(10)
_cell_angle_alpha                90.00
_cell_angle_beta                 98.4920(10)
_cell_angle_gamma                90.00
_cell_volume                     1232.39
loop_
_atom_site_label
_atom_site_type_symbol
_atom_site_fract_x
_atom_site_fract_y
_atom_site_fract_z
Fe1 Fe 0.48487(2) 0.07189(4) 0.30341(2)
O1 O 0.64415(12) 0.03704(19) 0.40566(12)
O2 O 0.60490(12) -0.1339(2) 0.27122(12)
O3 O 1.42933(12) -0.7164(2) 0.36185(12)
O4 O 1.46412(12) -0.67769(19) 0.53877(12)
O5 O 0.39319(13) -0.0879(2) 0.38933(13)
N1 N 1.13363(14) -0.4533(2) 0.34017(14)
N2 N 0.93565(14) -0.3047(2) 0.31629(14)
C1 C 1.23027(17) -0.5376(3) 0.34772(18)
H1 H 1.2478 -0.5910 0.2876
C2 C 1.30547(17) -0.5484(3) 0.44201(17)
C3 C 1.40920(17) -0.6558(3) 0.44933(17)
C4 C 1.28014(18) -0.4665(3) 0.53092(18)
H2 H 1.3297 -0.4702 0.5946
C5 C 1.17993(17) -0.3789(3) 0.52406(18)
H3 H 1.1613 -0.3236 0.5830
C6 C 1.10812(17) -0.3754(3) 0.42762(17)
C7 C 0.99676(17) -0.2918(3) 0.41429(17)
C8 C 0.95722(17) -0.2068(3) 0.49590(18)
H4 H 1.0008 -0.1986 0.5627
C9 C 0.85153(18) -0.1342(3) 0.47610(18)
H5 H 0.8245 -0.0732 0.5288
C10 C 0.78658(17) -0.1534(3) 0.37717(17)
C11 C 0.67089(17) -0.0812(3) 0.34991(17)
C12 C 0.83246(17) -0.2396(3) 0.29980(17)
H6 H 0.7892 -0.2526 0.2332
H7 H 0.366(2) -0.059(4) 0.444(2)
H9 H 0.437(2) -0.167(3) 0.414(2)
O3_2 O 0.42933(12) 0.2836(2) 0.36185(12)
N1C N 0.36637(14) 0.0467(2) 0.15983(14)
N2C N 0.56435(14) 0.1953(2) 0.18371(14)
Fe1_2 Fe 1.48487(2) -0.92811(4) 0.30341(2)
Fe1C Fe 1.01513(2) -0.42811(4) 0.19659(2)
O6 O 0.4770(2) 0.5575(3) 0.22324(16)
H8 H 0.514(4) 0.643(6) 0.265(3)
H10 H 0.459(5) 0.476(9) 0.295(5)
loop_
_geom_bond_atom_site_label_1
_geom_bond_atom_site_label_2
_geom_bond_site_symmetry_1
_geom_bond_site_symmetry_2
Fe1 O1 1_555 1_555
O1 C11 1_555 1_555
O2 Fe1 1_555 1_555
O3 C3 1_555 1_555
O4 C3 1_555 1_555
O5 Fe1 1_555 1_555
O6 H8 1_555 1_555
N1 C1 1_555 1_555
N2 C7 1_555 1_555
C1 H1 1_555 1_555
C2 C1 1_555 1_555
C3 C2 1_555 1_555
C4 C2 1_555 1_555
H2 C4 1_555 1_555
C5 C4 1_555 1_555
H3 C5 1_555 1_555
C6 N1 1_555 1_555
C7 C6 1_555 1_555
C8 C7 1_555 1_555
H4 C8 1_555 1_555
C9 C8 1_555 1_555
H5 C9 1_555 1_555
C10 C9 1_555 1_555
C11 O2 1_555 1_555
C12 N2 1_555 1_555
H6 C12 1_555 1_555
H7 O5 1_555 1_555
H9 O5 1_555 1_555
H10 O6 1_555 1_555
O3_2 Fe1 1_555 1_555
N1C Fe1 1_555 1_555
N2C Fe1 1_555 1_555
Fe1_2 O3 1_555 1_555
Fe1C N1 1_555 1_555
N2 Fe1C 1_555 1_555
C5 C6 1_555 1_555
C10 C11 1_555 1_555
C10 C12 1_555 1_555

#END
