
#######################################################################
#
#                 Cambridge Crystallographic Data Centre
#                                CCDC 
#
#######################################################################
#
# If this CIF has been generated from an entry in the Cambridge 
# Structural Database, then it will include bibliographic, chemical, 
# crystal, experimental, refinement or atomic coordinate data resulting 
# from the CCDC's data processing and validation procedures.
#
#######################################################################

data_EGUMEY
_symmetry_cell_setting           monoclinic
_symmetry_space_group_name_H-M   'P 21/n'
_symmetry_Int_Tables_number      14
_space_group_name_Hall           '-P 2yn'
loop_
_symmetry_equiv_pos_site_id
_symmetry_equiv_pos_as_xyz
1 x,y,z
2 1/2-x,1/2+y,1/2-z
3 -x,-y,-z
4 1/2+x,1/2-y,1/2+z
_cell_length_a                   11.9740(6)
_cell_length_b                   8.1866(4)
_cell_length_c                   12.5407(7)
_cell_angle_alpha                90
_cell_angle_beta                 97.2450(10)
_cell_angle_gamma                90
_cell_volume                     1219.5
loop_
_atom_site_label
_atom_site_type_symbol
_atom_site_fract_x
_atom_site_fract_y
_atom_site_fract_z
Ni1 Ni 0.990695(18) 0.93113(3) 0.798804(18)
O1 O 1.14252(11) 0.95669(16) 0.90493(10)
O2 O 1.10386(11) 1.12887(17) 0.77006(10)
O3 O 1.91895(11) 1.72372(17) 0.84723(10)
O4 O 1.95327(12) 1.68906(17) 1.02687(11)
O5 O 0.90631(12) 1.08227(18) 0.89045(11)
N1 N 1.62815(13) 1.45267(18) 0.83320(12)
N2 N 1.43320(12) 1.30316(19) 0.81289(12)
C1 C 1.60500(15) 1.3720(2) 0.92213(15)
C2 C 1.49381(15) 1.2883(2) 0.91080(14)
C3 C 1.45369(16) 1.2029(2) 0.99419(15)
H1 H 1.4967 1.1946 1.0611
C4 C 1.34808(16) 1.1305(2) 0.97534(15)
H2 H 1.3205 1.0693 1.0288
C5 C 1.28410(15) 1.1505(2) 0.87575(15)
C6 C 1.33015(15) 1.2380(2) 0.79727(15)
H3 H 1.2873 1.2521 0.7307
C7 C 1.79989(15) 1.5494(2) 0.93145(15)
C8 C 1.90066(15) 1.6629(2) 0.93703(15)
C9 C 1.77716(16) 1.4631(2) 1.02166(15)
H4 H 1.8277 1.4653 1.0844
C10 C 1.67784(16) 1.3734(2) 1.01706(15)
H5 H 1.6608 1.3154 1.0767
C11 C 1.72380(16) 1.5390(2) 0.83850(15)
H6 H 1.7399 1.5942 0.7774
C12 C 1.16986(15) 1.0767(2) 0.84936(15)
H7 H 0.877(2) 1.048(3) 0.942(2)
H8 H 0.945(2) 1.153(4) 0.917(2)
O3_2 O 0.91895(11) 0.72372(17) 0.84723(10)
N1A N 0.87185(13) 0.95267(18) 0.66680(12)
N2A N 1.06680(12) 0.80316(19) 0.68711(12)
Ni1_2 Ni 1.990695(18) 1.93113(3) 0.798804(18)
Ni1A Ni 1.509305(18) 1.43113(3) 0.701196(18)
O6 O 0.9845(2) 0.4405(2) 0.72482(15)
H9 H 0.945(4) 0.529(7) 0.776(4)
H10 H 1.033(4) 0.362(7) 0.781(4)
loop_
_geom_bond_atom_site_label_1
_geom_bond_atom_site_label_2
_geom_bond_site_symmetry_1
_geom_bond_site_symmetry_2
Ni1 O1 1_555 1_555
O1 C12 1_555 1_555
O2 Ni1 1_555 1_555
O3 C8 1_555 1_555
O4 C8 1_555 1_555
O5 Ni1 1_555 1_555
N1 C1 1_555 1_555
N2 C2 1_555 1_555
C1 C2 1_555 1_555
C2 C3 1_555 1_555
C3 H1 1_555 1_555
C4 C3 1_555 1_555
H2 C4 1_555 1_555
C5 C4 1_555 1_555
C6 N2 1_555 1_555
H3 C6 1_555 1_555
C7 C8 1_555 1_555
C9 C7 1_555 1_555
H4 C9 1_555 1_555
C10 C1 1_555 1_555
H5 C10 1_555 1_555
C11 N1 1_555 1_555
H6 C11 1_555 1_555
C12 O2 1_555 1_555
H7 O5 1_555 1_555
H8 O5 1_555 1_555
O6 H9 1_555 1_555
H10 O6 1_555 1_555
O3_2 Ni1 1_555 1_555
N1A Ni1 1_555 1_555
N2A Ni1 1_555 1_555
Ni1_2 O3 1_555 1_555
Ni1A N1 1_555 1_555
N2 Ni1A 1_555 1_555
C5 C6 1_555 1_555
C5 C12 1_555 1_555
C7 C11 1_555 1_555
C9 C10 1_555 1_555

#END
