
#######################################################################
#
#                 Cambridge Crystallographic Data Centre
#                                CCDC 
#
#######################################################################
#
# If this CIF has been generated from an entry in the Cambridge 
# Structural Database, then it will include bibliographic, chemical, 
# crystal, experimental, refinement or atomic coordinate data resulting 
# from the CCDC's data processing and validation procedures.
#
#######################################################################

data_EGUMIC
_symmetry_cell_setting           monoclinic
_symmetry_space_group_name_H-M   'P 21/n'
_symmetry_Int_Tables_number      14
_space_group_name_Hall           '-P 2yn'
loop_
_symmetry_equiv_pos_site_id
_symmetry_equiv_pos_as_xyz
1 x,y,z
2 1/2+x,1/2-y,1/2+z
3 -x,-y,-z
4 1/2-x,1/2+y,1/2-z
_cell_length_a                   12.0057(5)
_cell_length_b                   8.2370(3)
_cell_length_c                   12.6054(5)
_cell_angle_alpha                90.00
_cell_angle_beta                 98.9240(10)
_cell_angle_gamma                90.00
_cell_volume                     1231.47
loop_
_atom_site_label
_atom_site_type_symbol
_atom_site_fract_x
_atom_site_fract_y
_atom_site_fract_z
H1 H 0.946(6) 0.444(9) 0.784(6)
H2 H 1.019(4) 0.648(6) 0.758(4)
O6 O 0.9713(2) 0.5564(3) 0.71930(16)
Zn1 Zn 0.98378(2) 0.07580(3) 0.806228(19)
O1 O 1.13898(13) 0.02468(19) 0.90149(12)
O2 O 1.10377(12) -0.14587(19) 0.76460(12)
O3 O 1.92760(12) -0.71291(19) 0.85750(12)
O4 O 1.96247(12) -0.67978(19) 1.03664(12)
O5 O 0.89703(14) -0.0811(2) 0.89240(13)
N1 N 1.63395(15) -0.4497(2) 0.83555(15)
N2 N 1.43435(14) -0.3070(2) 0.81210(14)
C1 C 1.73052(18) -0.5338(3) 0.84376(18)
H3 H 1.7480 -0.5860 0.7831
C2 C 1.80566(18) -0.5461(3) 0.93921(17)
C3 C 1.90824(17) -0.6539(3) 0.94701(18)
C4 C 1.77981(19) -0.4658(3) 1.02914(18)
H4 H 1.8290 -0.4699 1.0938
C5 C 1.67963(19) -0.3795(3) 1.02122(18)
H5 H 1.6607 -0.3255 1.0807
C6 C 1.60825(17) -0.3745(3) 0.92398(18)
C7 C 1.49582(17) -0.2921(3) 0.91034(17)
C8 C 1.45666(18) -0.2083(3) 0.99296(18)
H6 H 1.5007 -0.1995 1.0602
C9 C 1.35043(19) -0.1383(3) 0.97265(18)
H7 H 1.3236 -0.0776 1.0255
C10 C 1.28446(18) -0.1595(3) 0.87308(17)
C11 C 1.16726(18) -0.0918(3) 0.84444(17)
C12 C 1.33044(17) -0.2443(3) 0.79526(18)
H8 H 1.2869 -0.2581 0.7281
H9 H 0.939(2) -0.159(4) 0.907(2)
H10 H 0.871(3) -0.054(4) 0.946(3)
O3_2 O 0.92760(12) 0.28709(19) 0.85750(12)
N1C N 0.86605(15) 0.0503(2) 0.66445(15)
N2C N 1.06565(14) 0.1930(2) 0.68790(14)
Zn1_2 Zn 1.98378(2) -0.92420(3) 0.806228(19)
Zn1C Zn 1.51622(2) -0.42420(3) 0.693772(19)
loop_
_geom_bond_atom_site_label_1
_geom_bond_atom_site_label_2
_geom_bond_site_symmetry_1
_geom_bond_site_symmetry_2
H1 O6 1_555 1_555
H2 O6 1_555 1_555
Zn1 O1 1_555 1_555
O1 C11 1_555 1_555
O2 Zn1 1_555 1_555
O3 C3 1_555 1_555
O4 C3 1_555 1_555
O5 Zn1 1_555 1_555
N1 C1 1_555 1_555
N2 C7 1_555 1_555
C1 H3 1_555 1_555
C2 C1 1_555 1_555
C3 C2 1_555 1_555
C4 C2 1_555 1_555
H4 C4 1_555 1_555
C5 C4 1_555 1_555
H5 C5 1_555 1_555
C6 N1 1_555 1_555
C7 C6 1_555 1_555
C8 C7 1_555 1_555
H6 C8 1_555 1_555
C9 C8 1_555 1_555
H7 C9 1_555 1_555
C10 C9 1_555 1_555
C11 O2 1_555 1_555
C12 N2 1_555 1_555
H8 C12 1_555 1_555
H9 O5 1_555 1_555
H10 O5 1_555 1_555
O3_2 Zn1 1_555 1_555
N1C Zn1 1_555 1_555
N2C Zn1 1_555 1_555
Zn1_2 O3 1_555 1_555
Zn1C N1 1_555 1_555
N2 Zn1C 1_555 1_555
C5 C6 1_555 1_555
C10 C11 1_555 1_555
C10 C12 1_555 1_555

#END
