
#######################################################################
#
#                 Cambridge Crystallographic Data Centre
#                                CCDC 
#
#######################################################################
#
# If this CIF has been generated from an entry in the Cambridge 
# Structural Database, then it will include bibliographic, chemical, 
# crystal, experimental, refinement or atomic coordinate data resulting 
# from the CCDC's data processing and validation procedures.
#
#######################################################################

data_EGUMEY02
_symmetry_cell_setting           monoclinic
_symmetry_space_group_name_H-M   'P 21/c'
_symmetry_Int_Tables_number      14
_space_group_name_Hall           '-P 2ybc'
loop_
_symmetry_equiv_pos_site_id
_symmetry_equiv_pos_as_xyz
1 x,y,z
2 -x,1/2+y,1/2-z
3 -x,-y,-z
4 x,1/2-y,1/2+z
_cell_length_a                   11.9004(16)
_cell_length_b                   8.3490(11)
_cell_length_c                   16.2815(16)
_cell_angle_alpha                90
_cell_angle_beta                 129.965(6)
_cell_angle_gamma                90
_cell_volume                     1239.84
loop_
_atom_site_label
_atom_site_type_symbol
_atom_site_fract_x
_atom_site_fract_y
_atom_site_fract_z
Ni1 Ni 0.69225(3) -0.43242(4) 0.20115(3)
O1 O 0.4270(3) -0.1925(3) -0.02403(17)
O2 O 0.5164(2) -0.5844(2) 0.10810(16)
O3 O 0.5664(2) -0.2327(3) 0.15270(16)
O4 O -0.1633(2) 0.3774(2) 0.22979(15)
O5 O -0.2593(2) 0.5450(2) 0.09560(15)
N1 N 0.2938(2) 0.0432(3) 0.16684(18)
N2 N 0.1214(2) 0.1983(3) 0.18737(17)
C1 C 0.4642(3) -0.1682(3) 0.0657(2)
C2 C 0.3670(3) -0.0556(3) 0.0697(2)
C3 C 0.3829(3) -0.0448(3) 0.1617(2)
H1 H 0.4588 -0.1010 0.2224
C4 C 0.2576(3) 0.0325(4) -0.0181(2)
H2 H 0.2464 0.0309 -0.0801
C5 C 0.1641(4) 0.1235(4) -0.0142(2)
H3 H 0.0890 0.1825 -0.0735
C6 C 0.1841(3) 0.1255(3) 0.0795(2)
C7 C 0.0850(3) 0.2110(3) 0.0904(2)
C8 C -0.0377(3) 0.2969(4) 0.0081(2)
H4 H -0.0615 0.3048 -0.0585
C9 C 0.0349(3) 0.2651(3) 0.2029(2)
H5 H 0.0586 0.2523 0.2692
C10 C -0.1241(3) 0.3706(4) 0.0262(2)
H6 H -0.2050 0.4313 -0.0273
C11 C -0.0887(3) 0.3528(3) 0.1250(2)
C12 C -0.1763(3) 0.4274(3) 0.1513(2)
Ni1_2 Ni -0.30775(3) 0.56758(4) 0.20115(3)
Ni1A Ni 0.30775(3) 0.06758(4) 0.29885(3)
O4_2 O 0.8367(2) -0.6226(2) 0.22979(15)
O5_2 O 0.7407(2) -0.4550(2) 0.09560(15)
N1A N 0.7062(2) -0.4568(3) 0.33316(18)
N2A N 0.8786(2) -0.3017(3) 0.31263(17)
O6 O 0.2445(5) 0.5647(4) 0.2298(3)
loop_
_geom_bond_atom_site_label_1
_geom_bond_atom_site_label_2
_geom_bond_site_symmetry_1
_geom_bond_site_symmetry_2
Ni1 O2 1_555 1_555
O1 C1 1_555 1_555
O3 Ni1 1_555 1_555
O4 C12 1_555 1_555
O5 C12 1_555 1_555
N1 C3 1_555 1_555
N2 C7 1_555 1_555
C1 O3 1_555 1_555
C2 C1 1_555 1_555
C3 C2 1_555 1_555
H1 C3 1_555 1_555
C4 C2 1_555 1_555
H2 C4 1_555 1_555
C5 C4 1_555 1_555
H3 C5 1_555 1_555
C6 N1 1_555 1_555
C7 C6 1_555 1_555
C8 C7 1_555 1_555
H4 C8 1_555 1_555
C9 N2 1_555 1_555
H5 C9 1_555 1_555
C10 C8 1_555 1_555
H6 C10 1_555 1_555
C11 C9 1_555 1_555
C12 C11 1_555 1_555
Ni1_2 O4 1_555 1_555
Ni1A N1 1_555 1_555
O4_2 Ni1 1_555 1_555
O5_2 Ni1 1_555 1_555
N1A Ni1 1_555 1_555
N2A Ni1 1_555 1_555
O5 Ni1_2 1_555 1_555
N2 Ni1A 1_555 1_555
C5 C6 1_555 1_555
C10 C11 1_555 1_555

#END
