
#######################################################################
#
#                 Cambridge Crystallographic Data Centre
#                                CCDC 
#
#######################################################################
#
# If this CIF has been generated from an entry in the Cambridge 
# Structural Database, then it will include bibliographic, chemical, 
# crystal, experimental, refinement or atomic coordinate data resulting 
# from the CCDC's data processing and validation procedures.
#
#######################################################################

data_EGUMIC01
_symmetry_cell_setting           monoclinic
_symmetry_space_group_name_H-M   'P 21/n'
_symmetry_Int_Tables_number      14
_space_group_name_Hall           '-P 2yn'
loop_
_symmetry_equiv_pos_site_id
_symmetry_equiv_pos_as_xyz
1 x,y,z
2 1/2-x,1/2+y,1/2-z
3 -x,-y,-z
4 1/2+x,1/2-y,1/2+z
_cell_length_a                   11.9962(13)
_cell_length_b                   8.2565(9)
_cell_length_c                   12.6200(13)
_cell_angle_alpha                90
_cell_angle_beta                 98.823(2)
_cell_angle_gamma                90
_cell_volume                     1235.18
loop_
_atom_site_label
_atom_site_type_symbol
_atom_site_fract_x
_atom_site_fract_y
_atom_site_fract_z
Zn1 Zn 0.48414(3) 0.07636(5) 0.30621(3)
N1 N 0.5651(2) 0.1936(4) 0.1876(2)
N2 N 0.3666(2) 0.0509(4) 0.1647(2)
O1 O 0.86004(19) 0.5259(4) 0.0983(2)
O2 O 0.8956(2) 0.3562(3) 0.2348(2)
O3 O 0.0736(2) -0.2140(3) 0.1431(2)
O4 O 0.0388(2) -0.1794(3) -0.03537(19)
O5 O 0.3975(2) -0.0816(3) 0.3924(2)
H1 H 0.451(3) -0.166(4) 0.414(4)
H2 H 0.357(4) -0.052(6) 0.450(3)
C1 C 0.8322(3) 0.4113(4) 0.1548(3)
C2 C 0.7146(3) 0.3412(4) 0.1277(3)
C3 C 0.6493(3) 0.3635(5) 0.0266(3)
H3 H 0.6767 0.4257 -0.0273
C4 C 0.5433(3) 0.2915(5) 0.0078(3)
H4 H 0.4984 0.2989 -0.0609
C5 C 0.5038(3) 0.2092(5) 0.0899(3)
C6 C 0.6696(3) 0.2584(4) 0.2047(3)
H5 H 0.7138 0.2459 0.2734
C7 C 0.3921(3) 0.1247(5) 0.0766(3)
C8 C 0.3206(3) 0.1202(6) -0.0204(3)
H6 H 0.3400 0.1752 -0.0811
C9 C 0.2199(3) 0.0342(5) -0.0280(3)
H7 H 0.1691 0.0309 -0.0936
C10 C 0.1951(3) -0.0466(4) 0.0619(3)
C11 C 0.2700(3) -0.0357(4) 0.1566(3)
H8 H 0.2530 -0.0911 0.2182
C12 C 0.0928(3) -0.1556(4) 0.0537(3)
Zn1A Zn 1.01586(3) 0.57636(5) 0.19379(3)
Zn1A_2 Zn 0.01586(3) -0.42364(5) 0.19379(3)
O1A O 0.63996(19) 0.0259(4) 0.4017(2)
O2A O 0.6044(2) -0.1438(3) 0.2652(2)
O3A O 0.4264(2) 0.2860(3) 0.3569(2)
O6 O 0.4713(4) 0.5607(5) 0.2198(3)
H9 H 0.529(4) 0.630(6) 0.256(4)
H10 H 0.461(6) 0.480(7) 0.273(5)
loop_
_geom_bond_atom_site_label_1
_geom_bond_atom_site_label_2
_geom_bond_site_symmetry_1
_geom_bond_site_symmetry_2
Zn1 N1 1_555 1_555
N1 C5 1_555 1_555
N2 Zn1 1_555 1_555
O1 C1 1_555 1_555
O2 C1 1_555 1_555
O3 C12 1_555 1_555
O4 C12 1_555 1_555
O5 Zn1 1_555 1_555
H1 O5 1_555 1_555
H2 O5 1_555 1_555
C1 C2 1_555 1_555
C2 C3 1_555 1_555
C3 H3 1_555 1_555
C4 C3 1_555 1_555
H4 C4 1_555 1_555
C5 C4 1_555 1_555
C6 N1 1_555 1_555
H5 C6 1_555 1_555
C7 N2 1_555 1_555
C8 C7 1_555 1_555
H6 C8 1_555 1_555
C9 C8 1_555 1_555
H7 C9 1_555 1_555
C10 C9 1_555 1_555
C11 N2 1_555 1_555
H8 C11 1_555 1_555
C12 C10 1_555 1_555
O6 H9 1_555 1_555
H10 O6 1_555 1_555
Zn1A O1 1_555 1_555
Zn1A_2 O3 1_555 1_555
O1A Zn1 1_555 1_555
O2A Zn1 1_555 1_555
O3A Zn1 1_555 1_555
O2 Zn1A 1_555 1_555
C2 C6 1_555 1_555
C5 C7 1_555 1_555
C10 C11 1_555 1_555

#END
