
#######################################################################
#
#                 Cambridge Crystallographic Data Centre
#                                CCDC 
#
#######################################################################
#
# If this CIF has been generated from an entry in the Cambridge 
# Structural Database, then it will include bibliographic, chemical, 
# crystal, experimental, refinement or atomic coordinate data resulting 
# from the CCDC's data processing and validation procedures.
#
#######################################################################

data_EGUNAX
_symmetry_cell_setting           monoclinic
_symmetry_space_group_name_H-M   'C 2/c'
_symmetry_Int_Tables_number      15
_space_group_name_Hall           '-C 2yn'
loop_
_symmetry_equiv_pos_site_id
_symmetry_equiv_pos_as_xyz
1 x,y,z
2 -x,y,1/2-z
3 1/2+x,1/2+y,z
4 1/2-x,1/2+y,1/2-z
5 -x,-y,-z
6 x,-y,1/2+z
7 1/2-x,1/2-y,-z
8 1/2+x,1/2-y,1/2+z
_cell_length_a                   18.825(4)
_cell_length_b                   8.3912(16)
_cell_length_c                   9.2901(18)
_cell_angle_alpha                90
_cell_angle_beta                 94.064(3)
_cell_angle_gamma                90
_cell_volume                     1463.81
loop_
_atom_site_label
_atom_site_type_symbol
_atom_site_fract_x
_atom_site_fract_y
_atom_site_fract_z
Mn1 Mn 0.5000 0.33867(7) 0.2500
O1 O 0.42780(15) 0.1450(3) 0.1577(3)
H1 H 0.4037 0.1882 0.0877
H2 H 0.4387 0.0515 0.1878
O2 O 0.58045(10) 0.5111(3) 0.32625(19)
O3 O 0.54913(9) 0.6635(2) 0.5495(2)
O4 O 0.61634(10) 0.4017(2) 0.5684(2)
H3 H 0.6067 0.4158 0.6522
P1 P 0.60214(3) 0.56056(8) 0.47953(7)
C1 C 0.75035(16) 0.4360(4) 0.3617(4)
H4 H 0.7981 0.4140 0.3373
H5 H 0.7190 0.4360 0.2755
H6 H 0.7354 0.3554 0.4265
C2 C 0.74803(14) 0.5970(3) 0.4336(3)
C3 C 0.68631(14) 0.6641(3) 0.4849(3)
C4 C 0.68966(14) 0.8142(3) 0.5494(3)
H7 H 0.6482 0.8568 0.5826
O2F O 0.91955(10) 0.9889(3) 0.67375(19)
O3F O 0.95087(9) 0.8365(2) 0.4505(2)
O4F O 0.88366(10) 1.0983(2) 0.4316(2)
H3F H 0.8933 1.0842 0.3478
P1F P 0.89786(3) 0.93944(8) 0.52047(7)
C1F C 0.74965(16) 1.0640(4) 0.6383(4)
H4F H 0.7019 1.0860 0.6627
H5F H 0.7810 1.0640 0.7245
H6F H 0.7646 1.1446 0.5735
C2F C 0.75197(14) 0.9030(3) 0.5664(3)
C3F C 0.81369(14) 0.8359(3) 0.5151(3)
C4F C 0.81034(14) 0.6858(3) 0.4506(3)
H7F H 0.8518 0.6432 0.4174
O1A O 0.57220(15) 0.1450(3) 0.3423(3)
H1A H 0.5963 0.1882 0.4123
H2A H 0.5613 0.0515 0.3122
Mn1B Mn 1.0000 0.83867(7) 0.2500
Mn1D Mn 0.5000 0.66133(7) 0.7500
Mn1F Mn 1.0000 1.16133(7) 0.7500
O2A O 0.41955(10) 0.5111(3) 0.17375(19)
O3D O 0.45087(9) 0.3365(2) 0.4505(2)
O3E O 0.54913(9) 0.3365(2) 0.0495(2)
O5 O 0.4962(6) -0.1550(9) 0.2906(10)
O6 O 0.4856(6) -0.0975(12) 0.3984(12)
O5A O 0.5038(6) -0.1550(9) 0.2094(10)
O6A O 0.5144(6) -0.0975(12) 0.1016(12)
loop_
_geom_bond_atom_site_label_1
_geom_bond_atom_site_label_2
_geom_bond_site_symmetry_1
_geom_bond_site_symmetry_2
Mn1 O1 1_555 1_555
O1 H1 1_555 1_555
H2 O1 1_555 1_555
O2 Mn1 1_555 1_555
O3 P1 1_555 1_555
O4 H3 1_555 1_555
P1 O2 1_555 1_555
C1 H4 1_555 1_555
H5 C1 1_555 1_555
H6 C1 1_555 1_555
C2 C1 1_555 1_555
C3 P1 1_555 1_555
C4 C3 1_555 1_555
H7 C4 1_555 1_555
O2F P1F 1_555 1_555
O3F P1F 1_555 1_555
O4F H3F 1_555 1_555
P1F O4F 1_555 1_555
C1F H4F 1_555 1_555
H5F C1F 1_555 1_555
H6F C1F 1_555 1_555
C2F C4 1_555 1_555
C3F P1F 1_555 1_555
C4F C2 1_555 1_555
H7F C4F 1_555 1_555
O1A Mn1 1_555 1_555
H1A O1A 1_555 1_555
H2A O1A 1_555 1_555
Mn1B O3F 1_555 1_555
Mn1D O3 1_555 1_555
Mn1F O2F 1_555 1_555
O2A Mn1 1_555 1_555
O3D Mn1 1_555 1_555
O3E Mn1 1_555 1_555
O4 P1 1_555 1_555
C2 C3 1_555 1_555
C1F C2F 1_555 1_555
C2F C3F 1_555 1_555
C3F C4F 1_555 1_555

#END
