
#######################################################################
#
#                 Cambridge Crystallographic Data Centre
#                                CCDC 
#
#######################################################################
#
# If this CIF has been generated from an entry in the Cambridge 
# Structural Database, then it will include bibliographic, chemical, 
# crystal, experimental, refinement or atomic coordinate data resulting 
# from the CCDC's data processing and validation procedures.
#
#######################################################################

data_EGUQII
_symmetry_cell_setting           monoclinic
_symmetry_space_group_name_H-M   'C 2/c'
_symmetry_Int_Tables_number      15
_space_group_name_Hall           '-C 2yn'
loop_
_symmetry_equiv_pos_site_id
_symmetry_equiv_pos_as_xyz
1 x,y,z
2 -x,y,1/2-z
3 1/2+x,1/2+y,z
4 1/2-x,1/2+y,1/2-z
5 -x,-y,-z
6 x,-y,1/2+z
7 1/2-x,1/2-y,-z
8 1/2+x,1/2-y,1/2+z
_cell_length_a                   4.608(4)
_cell_length_b                   26.40(2)
_cell_length_c                   6.123(5)
_cell_angle_alpha                90
_cell_angle_beta                 109.044(8)
_cell_angle_gamma                90
_cell_volume                     704.102
loop_
_atom_site_label
_atom_site_type_symbol
_atom_site_fract_x
_atom_site_fract_y
_atom_site_fract_z
Mn1 Mn 0.0000 0.277059(16) 0.7500
S1 S 0.0000 0.03781(3) 0.7500
O1 O -0.0271(3) 0.21506(6) 0.5120(3)
O2 O 0.3444(3) 0.16949(6) 0.4462(3)
C1 C 0.1363(5) 0.17486(8) 0.5338(3)
C2 C 0.0688(5) 0.13060(8) 0.6597(4)
C3 C 0.1172(6) 0.08310(9) 0.5969(4)
H1 H 0.2045 0.0758 0.4833
O1A O 0.0271(3) 0.21506(6) 0.9880(3)
O2A O -0.3444(3) 0.16949(6) 1.0538(3)
C1A C -0.1363(5) 0.17486(8) 0.9662(3)
C2A C -0.0688(5) 0.13060(8) 0.8403(4)
C3A C -0.1172(6) 0.08310(9) 0.9031(4)
H1A H -0.2045 0.0758 1.0167
Mn1F Mn -0.5000 0.222941(16) 0.2500
Mn1F_2 Mn -0.5000 0.222941(16) 1.2500
Mn1F_3 Mn 0.5000 0.222941(16) 0.2500
Mn1F_4 Mn 0.5000 0.222941(16) 1.2500
O1F O -0.4729(3) 0.28494(6) 0.4880(3)
O1G O 0.4729(3) 0.28494(6) 1.0120(3)
O2F O 0.1556(3) 0.33051(6) 0.5538(3)
O2G O -0.1556(3) 0.33051(6) 0.9462(3)
loop_
_geom_bond_atom_site_label_1
_geom_bond_atom_site_label_2
_geom_bond_site_symmetry_1
_geom_bond_site_symmetry_2
Mn1 O1 1_555 1_555
S1 C3 1_555 1_555
O1 C1 1_555 1_555
O2 C1 1_555 1_555
C1 C2 1_555 1_555
C2 C3 1_555 1_555
C3 H1 1_555 1_555
O1A Mn1 1_555 1_555
O2A C1A 1_555 1_555
C1A O1A 1_555 1_555
C2A C2 1_555 1_555
C3A S1 1_555 1_555
H1A C3A 1_555 1_555
Mn1F O1 1_555 1_555
Mn1F_2 O2A 1_555 1_555
Mn1F_3 O2 1_555 1_555
Mn1F_4 O1A 1_555 1_555
O1F Mn1 1_555 1_555
O1G Mn1 1_555 1_555
O2F Mn1 1_555 1_555
O2G Mn1 1_555 1_555
C1A C2A 1_555 1_555
C2A C3A 1_555 1_555
Mn1F O1F 1_555 1_555
Mn1F_4 O1G 1_555 1_555

#END
