
#######################################################################
#
#                 Cambridge Crystallographic Data Centre
#                                CCDC 
#
#######################################################################
#
# If this CIF has been generated from an entry in the Cambridge 
# Structural Database, then it will include bibliographic, chemical, 
# crystal, experimental, refinement or atomic coordinate data resulting 
# from the CCDC's data processing and validation procedures.
#
#######################################################################

data_EGUQOO
_symmetry_cell_setting           triclinic
_symmetry_space_group_name_H-M   'P -1'
_symmetry_Int_Tables_number      2
_space_group_name_Hall           '-P 1'
loop_
_symmetry_equiv_pos_site_id
_symmetry_equiv_pos_as_xyz
1 x,y,z
2 -x,-y,-z
_cell_length_a                   11.1541(9)
_cell_length_b                   11.6710(9)
_cell_length_c                   12.2073(10)
_cell_angle_alpha                93.5450(10)
_cell_angle_beta                 106.9040(10)
_cell_angle_gamma                106.2830(10)
_cell_volume                     1441.6
loop_
_atom_site_label
_atom_site_type_symbol
_atom_site_fract_x
_atom_site_fract_y
_atom_site_fract_z
Zn1 Zn 0.68849(4) 1.24620(3) 1.04076(3)
Zn2 Zn 0.74757(4) 1.01217(3) 0.78177(3)
O1 O 0.6764(2) 1.08982(18) 0.94965(18)
O2 O 0.6941(2) 0.91106(19) 0.90539(19)
O3 O 0.3447(3) 0.6212(2) 0.7597(2)
O4 O 0.3664(2) 0.81022(19) 0.82676(19)
O5 O 0.7978(2) 0.9000(2) 0.68999(19)
O6 O 0.9827(3) 1.0414(2) 0.6973(2)
O7 O 1.0288(2) 0.8665(2) 0.86991(19)
O8 O 1.1118(2) 0.71330(19) 0.87391(19)
O9 O 0.9370(2) 1.0910(2) 0.9059(2)
H1 H 0.9362 1.1010 0.9752
H2 H 0.9991 1.0674 0.8956
N1 N 0.2799(2) 0.5869(2) 1.0166(2)
N2 N 0.5080(2) 0.7579(2) 1.0667(2)
N3 N 0.6339(3) 0.8308(2) 1.1024(2)
N4 N 0.7504(3) 1.1819(2) 0.7324(2)
N5 N 0.5418(3) 0.9839(2) 0.6784(2)
N6 N 0.4229(3) 0.8981(3) 0.6396(2)
C1 C 0.1604(3) 0.5040(3) 0.9920(3)
H3 H 0.0867 0.5231 0.9496
C2 C 0.1424(3) 0.3926(3) 1.0265(3)
H4 H 0.0579 0.3384 1.0088
C3 C 0.2507(3) 0.3618(3) 1.0878(3)
H5 H 0.2408 0.2866 1.1119
C4 C 0.3749(3) 0.4458(3) 1.1128(3)
H6 H 0.4499 0.4271 1.1529
C5 C 0.3861(3) 0.5575(3) 1.0776(3)
C6 C 0.5121(3) 0.6531(3) 1.1034(3)
C7 C 0.6419(3) 0.6599(3) 1.1640(3)
H7 H 0.6714 0.5995 1.1979
C8 C 0.7159(3) 0.7747(3) 1.1623(3)
H8 H 0.8067 0.8080 1.1965
C9 C 0.6627(3) 0.9570(3) 1.0887(3)
H9 H 0.7439 1.0026 1.1492
H10 H 0.5928 0.9853 1.1005
C10 C 0.6770(3) 0.9854(3) 0.9726(3)
C11 C 0.8588(4) 1.2765(3) 0.7555(3)
H11 H 0.9403 1.2658 0.7895
C12 C 0.8552(4) 1.3895(3) 0.7310(3)
H12 H 0.9328 1.4536 0.7478
C13 C 0.7349(4) 1.4055(3) 0.6816(3)
H13 H 0.7298 1.4812 0.6655
C14 C 0.6224(4) 1.3090(3) 0.6560(3)
H14 H 0.5402 1.3185 0.6224
C15 C 0.6324(3) 1.1966(3) 0.6809(3)
C16 C 0.5187(3) 1.0876(3) 0.6528(3)
C17 C 0.3853(4) 1.0674(4) 0.5991(4)
H15 H 0.3440 1.1243 0.5733
C18 C 0.3275(4) 0.9467(4) 0.5922(4)
H16 H 0.2379 0.9051 0.5603
C19 C 0.4091(4) 0.7724(3) 0.6505(3)
H17 H 0.4921 0.7587 0.6548
H18 H 0.3429 0.7225 0.5808
C20 C 0.3706(3) 0.7307(3) 0.7546(3)
C21 C 0.9536(3) 0.8387(3) 0.6254(3)
C22 C 0.9278(3) 0.8234(3) 0.5055(3)
H19 H 0.8877 0.8730 0.4617
C23 C 0.9609(4) 0.7359(3) 0.4514(3)
H20 H 0.9433 0.7267 0.3715
C24 C 1.0204(4) 0.6616(3) 0.5155(3)
H21 H 1.0418 0.6017 0.4788
C25 C 1.0477(3) 0.6767(3) 0.6339(3)
H22 H 1.0889 0.6271 0.6766
C26 C 1.0152(3) 0.7647(3) 0.6911(3)
C27 C 0.9123(3) 0.9366(3) 0.6772(3)
C28 C 1.0533(3) 0.7832(3) 0.8212(3)
Zn1A Zn 0.31151(4) 0.75380(3) 0.95924(3)
Zn1A_2 Zn 1.31151(4) 0.75380(3) 0.95924(3)
O4A O 0.6336(2) 1.18978(19) 1.17324(19)
O8A O 0.8882(2) 1.28670(19) 1.12609(19)
N1A N 0.7201(2) 1.4131(2) 0.9834(2)
N2A N 0.4920(2) 1.2421(2) 0.9333(2)
O10 O 0.6428(3) 0.6587(3) 0.6064(3)
H23 H 0.6555 0.6220 0.5505
H24 H 0.6907 0.7319 0.6305
O11 O 0.5969(3) 0.5153(3) 0.4052(3)
H25 H 0.5246 0.4637 0.4023
H26 H 0.6482 0.4894 0.3781
loop_
_geom_bond_atom_site_label_1
_geom_bond_atom_site_label_2
_geom_bond_site_symmetry_1
_geom_bond_site_symmetry_2
Zn1 O1 1_555 1_555
Zn2 O2 1_555 1_555
O1 C10 1_555 1_555
O2 C10 1_555 1_555
O3 C20 1_555 1_555
O4 C20 1_555 1_555
O5 Zn2 1_555 1_555
O6 C27 1_555 1_555
O7 C28 1_555 1_555
O8 C28 1_555 1_555
O9 Zn2 1_555 1_555
H1 O9 1_555 1_555
H2 O9 1_555 1_555
N1 C1 1_555 1_555
N2 N3 1_555 1_555
N3 C8 1_555 1_555
N4 Zn2 1_555 1_555
N5 Zn2 1_555 1_555
N6 N5 1_555 1_555
C1 H3 1_555 1_555
C2 C1 1_555 1_555
H4 C2 1_555 1_555
C3 C2 1_555 1_555
H5 C3 1_555 1_555
C4 C3 1_555 1_555
H6 C4 1_555 1_555
C5 N1 1_555 1_555
C6 N2 1_555 1_555
C7 C6 1_555 1_555
H7 C7 1_555 1_555
C8 C7 1_555 1_555
H8 C8 1_555 1_555
C9 N3 1_555 1_555
H9 C9 1_555 1_555
H10 C9 1_555 1_555
C10 C9 1_555 1_555
C11 N4 1_555 1_555
H11 C11 1_555 1_555
C12 C11 1_555 1_555
H12 C12 1_555 1_555
C13 C12 1_555 1_555
H13 C13 1_555 1_555
C14 C13 1_555 1_555
H14 C14 1_555 1_555
C15 N4 1_555 1_555
C16 N5 1_555 1_555
C17 C16 1_555 1_555
H15 C17 1_555 1_555
C18 N6 1_555 1_555
H16 C18 1_555 1_555
C19 N6 1_555 1_555
H17 C19 1_555 1_555
H18 C19 1_555 1_555
C20 C19 1_555 1_555
C21 C22 1_555 1_555
C22 H19 1_555 1_555
C23 C22 1_555 1_555
H20 C23 1_555 1_555
C24 C23 1_555 1_555
H21 C24 1_555 1_555
C25 C24 1_555 1_555
H22 C25 1_555 1_555
C26 C21 1_555 1_555
C27 O5 1_555 1_555
C28 C26 1_555 1_555
O10 H23 1_555 1_555
H24 O10 1_555 1_555
O11 H25 1_555 1_555
H26 O11 1_555 1_555
Zn1A O4 1_555 1_555
Zn1A_2 O8 1_555 1_555
O4A Zn1 1_555 1_555
O8A Zn1 1_555 1_555
N1A Zn1 1_555 1_555
N2A Zn1 1_555 1_555
N1 Zn1A 1_555 1_555
N2 Zn1A 1_555 1_555
C4 C5 1_555 1_555
C5 C6 1_555 1_555
C14 C15 1_555 1_555
C15 C16 1_555 1_555
C17 C18 1_555 1_555
C21 C27 1_555 1_555
C25 C26 1_555 1_555

#END
