
#######################################################################
#
#                 Cambridge Crystallographic Data Centre
#                                CCDC 
#
#######################################################################
#
# If this CIF has been generated from an entry in the Cambridge 
# Structural Database, then it will include bibliographic, chemical, 
# crystal, experimental, refinement or atomic coordinate data resulting 
# from the CCDC's data processing and validation procedures.
#
#######################################################################

data_EGURIJ
_symmetry_cell_setting           triclinic
_symmetry_space_group_name_H-M   'P -1'
_symmetry_Int_Tables_number      2
_space_group_name_Hall           '-P 1'
loop_
_symmetry_equiv_pos_site_id
_symmetry_equiv_pos_as_xyz
1 x,y,z
2 -x,-y,-z
_cell_length_a                   7.299(2)
_cell_length_b                   11.469(4)
_cell_length_c                   11.601(4)
_cell_angle_alpha                103.137(4)
_cell_angle_beta                 99.656(5)
_cell_angle_gamma                102.478(5)
_cell_volume                     899.058
loop_
_atom_site_label
_atom_site_type_symbol
_atom_site_fract_x
_atom_site_fract_y
_atom_site_fract_z
O15 O 0.5991(18) 2.0466(11) 0.2577(14)
O16 O -0.365(2) 1.2161(13) 0.4490(17)
Mo1 Mo 0.25817(11) 1.66823(7) 0.15864(6)
C1 C 0.0397(17) 1.1411(10) 0.3343(10)
H1 H -0.0294 1.1588 0.2685
Cr1 Cr 0.5000 1.5000 0.0000
Cu1 Cu 0.0955(2) 1.40730(13) 0.44107(12)
O1 O 0.6695(9) 1.5028(6) 0.1504(5)
N1 N 0.1082(14) 1.2332(9) 0.4371(8)
Mo2 Mo 0.45846(11) 1.46967(7) 0.27386(6)
O2 O 0.2854(9) 1.4699(6) 0.0847(5)
C2 C 0.2047(17) 1.2030(10) 0.5264(11)
H2 H 0.2549 1.2648 0.5994
N2 N 0.0051(11) 0.9490(7) 0.0993(6)
Mo3 Mo 0.69320(11) 1.30344(7) 0.11336(7)
O3 O 0.4987(9) 1.6740(6) 0.0547(5)
C3 C 0.2400(17) 1.0880(13) 0.5231(10)
H3 H 0.3100 1.0744 0.5912
O4 O 0.4726(9) 1.3135(6) 0.1828(5)
C4 C 0.1640(16) 0.9903(14) 0.4104(10)
H4 H 0.1835 0.9117 0.4026
O5 O 0.4453(9) 1.6341(5) 0.2744(5)
C5 C 0.0619(14) 1.0197(10) 0.3160(8)
C6 C -0.0397(12) 0.9242(8) 0.1986(8)
O6 O 0.6310(11) 1.1464(6) 0.0575(7)
C7 C 0.1703(13) 1.0476(9) 0.0961(8)
H5 H 0.2632 1.0105 0.0615
H6 H 0.2332 1.0982 0.1782
O7 O 0.8642(10) 1.3369(7) 0.2451(7)
O8 O 0.6489(9) 1.5083(6) 0.3962(5)
C8 C -0.1016(14) 0.8718(8) -0.0202(8)
H7 H -0.2114 0.8112 -0.0130
H8 H -0.0197 0.8275 -0.0596
O9 O 0.2573(9) 1.4170(6) 0.3254(6)
O10 O 0.3253(9) 1.8260(6) 0.2125(6)
O11 O 0.1426(9) 1.6457(6) -0.0090(6)
O12 O -0.1670(10) 0.8312(6) 0.1978(6)
O13 O 0.0531(9) 1.6195(6) 0.2086(6)
O14 O -0.0820(10) 1.4171(6) 0.5517(6)
C1A C -0.0397(17) 0.8589(10) -0.3343(10)
H1A H 0.0294 0.8412 -0.2685
N1A N -0.1082(14) 0.7668(9) -0.4371(8)
C2A C -0.2047(17) 0.7970(10) -0.5264(11)
H2A H -0.2549 0.7352 -0.5994
N2A N -0.0051(11) 1.0510(7) -0.0993(6)
C3A C -0.2400(17) 0.9120(13) -0.5231(10)
H3A H -0.3100 0.9256 -0.5912
C4A C -0.1640(16) 1.0097(14) -0.4104(10)
H4A H -0.1835 1.0883 -0.4026
C5A C -0.0619(14) 0.9803(10) -0.3160(8)
C6A C 0.0397(12) 1.0758(8) -0.1986(8)
C7A C -0.1703(13) 0.9524(9) -0.0961(8)
H5A H -0.2632 0.9895 -0.0615
H6A H -0.2332 0.9018 -0.1782
C8A C 0.1016(14) 1.1282(8) 0.0202(8)
H7A H 0.2114 1.1888 0.0130
H8A H 0.0197 1.1725 0.0596
O12A O 0.1670(10) 1.1688(6) -0.1978(6)
Mo1A Mo -0.25817(11) 0.33177(7) -0.15864(6)
Cu1A Cu -0.0955(2) 0.59270(13) -0.44107(12)
O1A O -0.6695(9) 0.4972(6) -0.1504(5)
Mo2A Mo -0.45846(11) 0.53033(7) -0.27386(6)
O2A O -0.2854(9) 0.5301(6) -0.0847(5)
Mo3A Mo -0.69320(11) 0.69656(7) -0.11336(7)
O3A O -0.4987(9) 0.3260(6) -0.0547(5)
O4A O -0.4726(9) 0.6865(6) -0.1828(5)
O5A O -0.4453(9) 0.3659(5) -0.2744(5)
O6A O -0.6310(11) 0.8536(6) -0.0575(7)
O7A O -0.8642(10) 0.6631(7) -0.2451(7)
O8A O -0.6489(9) 0.4917(6) -0.3962(5)
O9A O -0.2573(9) 0.5830(6) -0.3254(6)
O10A O -0.3253(9) 0.1740(6) -0.2125(6)
O11A O -0.1426(9) 0.3543(6) 0.0090(6)
O13A O -0.0531(9) 0.3805(6) -0.2086(6)
O14A O 0.0820(10) 0.5829(6) -0.5517(6)
Cr1_2 Cr -0.5000 0.5000 0.0000
Cu1_2 Cu -0.9045(2) 0.40730(13) -0.55893(12)
Cu1_3 Cu 0.0955(2) 0.40730(13) -0.55893(12)
Cu1_4 Cu 1.0955(2) 1.40730(13) 0.44107(12)
Cu1A_2 Cu -1.0955(2) 0.59270(13) -0.44107(12)
Cu1A_3 Cu -0.0955(2) 1.59270(13) 0.55893(12)
Cu1A_4 Cu 0.9045(2) 1.59270(13) 0.55893(12)
O1A_2 O 0.3305(9) 1.4972(6) -0.1504(5)
O2A_2 O 0.7146(9) 1.5301(6) -0.0847(5)
Mo3_2 Mo -0.30680(11) 0.30344(7) 0.11336(7)
Mo3A_2 Mo 0.30680(11) 1.69656(7) -0.11336(7)
O3_2 O -0.5013(9) 0.6740(6) 0.0547(5)
O3A_2 O 0.5013(9) 1.3260(6) -0.0547(5)
O7_2 O -0.1358(10) 1.3369(7) 0.2451(7)
O7A_2 O 0.1358(10) 0.6631(7) -0.2451(7)
O8_2 O -0.3511(9) 0.5083(6) -0.6038(5)
O8A_2 O 0.3511(9) 1.4917(6) 0.6038(5)
O11_2 O -0.8574(9) 0.6457(6) -0.0090(6)
O11A_2 O 0.8574(9) 1.3543(6) 0.0090(6)
O14_2 O -0.0820(10) 0.4171(6) -0.4483(6)
O14A_2 O 0.0820(10) 1.5829(6) 0.4483(6)
loop_
_geom_bond_atom_site_label_1
_geom_bond_atom_site_label_2
_geom_bond_site_symmetry_1
_geom_bond_site_symmetry_2
Mo1 O2 1_555 1_555
C1 H1 1_555 1_555
Cr1 O1 1_555 1_555
Cu1 N1 1_555 1_555
O1 Mo2 1_555 1_555
N1 C1 1_555 1_555
Mo2 O2 1_555 1_555
O2 Cr1 1_555 1_555
C2 N1 1_555 1_555
H2 C2 1_555 1_555
N2 C6 1_555 1_555
Mo3 O1 1_555 1_555
O3 Mo1 1_555 1_555
C3 C2 1_555 1_555
H3 C3 1_555 1_555
O4 Mo2 1_555 1_555
C4 C3 1_555 1_555
H4 C4 1_555 1_555
O5 Mo1 1_555 1_555
C5 C1 1_555 1_555
C6 C5 1_555 1_555
O6 Mo3 1_555 1_555
C7 N2 1_555 1_555
H5 C7 1_555 1_555
H6 C7 1_555 1_555
O7 Mo3 1_555 1_555
O8 Mo2 1_555 1_555
C8 N2 1_555 1_555
H7 C8 1_555 1_555
H8 C8 1_555 1_555
O9 Cu1 1_555 1_555
O10 Mo1 1_555 1_555
O11 Mo1 1_555 1_555
O12 C6 1_555 1_555
O13 Mo1 1_555 1_555
O14 Cu1 1_555 1_555
C1A H1A 1_555 1_555
N1A C1A 1_555 1_555
C2A N1A 1_555 1_555
H2A C2A 1_555 1_555
N2A C6A 1_555 1_555
C3A C2A 1_555 1_555
H3A C3A 1_555 1_555
C4A C3A 1_555 1_555
H4A C4A 1_555 1_555
C5A C1A 1_555 1_555
C6A C5A 1_555 1_555
C7A C8 1_555 1_555
H5A C7A 1_555 1_555
H6A C7A 1_555 1_555
C8A C7 1_555 1_555
H7A C8A 1_555 1_555
H8A C8A 1_555 1_555
O12A C6A 1_555 1_555
Mo1A O2A 1_555 1_555
Cu1A N1A 1_555 1_555
O1A Mo2A 1_555 1_555
Mo2A O2A 1_555 1_555
O2A Cr1_2 1_555 1_555
Mo3A O1A 1_555 1_555
O3A Mo1A 1_555 1_555
O4A Mo2A 1_555 1_555
O5A Mo1A 1_555 1_555
O6A Mo3A 1_555 1_555
O7A Mo3A 1_555 1_555
O8A Mo2A 1_555 1_555
O9A Cu1A 1_555 1_555
O10A Mo1A 1_555 1_555
O11A Mo1A 1_555 1_555
O13A Mo1A 1_555 1_555
O14A Cu1A 1_555 1_555
Cr1_2 O1A 1_555 1_555
Cu1_2 O8A 1_555 1_555
Cu1_3 O14A 1_555 1_555
Cu1_4 O7 1_555 1_555
Cu1A_2 O7A 1_555 1_555
Cu1A_3 O14 1_555 1_555
Cu1A_4 O8 1_555 1_555
O1A_2 Cr1 1_555 1_555
O2A_2 Cr1 1_555 1_555
Mo3_2 O3A 1_555 1_555
Mo3A_2 O3 1_555 1_555
O3_2 Mo3A 1_555 1_555
O3A_2 Cr1 1_555 1_555
O7_2 Cu1 1_555 1_555
O7A_2 Cu1A 1_555 1_555
O8_2 Cu1A 1_555 1_555
O8A_2 Cu1 1_555 1_555
O11_2 Mo3A 1_555 1_555
O11A_2 Mo3 1_555 1_555
O14_2 Cu1A 1_555 1_555
O14A_2 Cu1 1_555 1_555
Cr1 O3 1_555 1_555
Mo2 O5 1_555 1_555
Mo2 O9 1_555 1_555
Mo3 O4 1_555 1_555
Mo3 O3A_2 1_555 1_555
C4 C5 1_555 1_555
O11 Mo3A_2 1_555 1_555
N2A C7A 1_555 1_555
N2A C8A 1_555 1_555
C4A C5A 1_555 1_555
Mo2A O5A 1_555 1_555
Mo2A O9A 1_555 1_555
Mo3A O4A 1_555 1_555
O3A Cr1_2 1_555 1_555
O11A Mo3_2 1_555 1_555
Cr1_2 O3_2 1_555 1_555
Cu1_3 O14_2 1_555 1_555
Cu1A_3 O14A_2 1_555 1_555
O1A_2 Mo3A_2 1_555 1_555

#END
