
#######################################################################
#
#                 Cambridge Crystallographic Data Centre
#                                CCDC 
#
#######################################################################
#
# If this CIF has been generated from an entry in the Cambridge 
# Structural Database, then it will include bibliographic, chemical, 
# crystal, experimental, refinement or atomic coordinate data resulting 
# from the CCDC's data processing and validation procedures.
#
#######################################################################

data_EGUROP
_symmetry_cell_setting           triclinic
_symmetry_space_group_name_H-M   'P -1'
_symmetry_Int_Tables_number      2
_space_group_name_Hall           '-P 1'
loop_
_symmetry_equiv_pos_site_id
_symmetry_equiv_pos_as_xyz
1 x,y,z
2 -x,-y,-z
_cell_length_a                   7.6170(6)
_cell_length_b                   10.4420(8)
_cell_length_c                   13.8790(11)
_cell_angle_alpha                75.7970(10)
_cell_angle_beta                 82.0180(10)
_cell_angle_gamma                71.7240(10)
_cell_volume                     1013.86
loop_
_atom_site_label
_atom_site_type_symbol
_atom_site_fract_x
_atom_site_fract_y
_atom_site_fract_z
Mo1 Mo 0.24762(4) 0.32527(3) 0.45438(2)
Cu1 Cu 0.84768(6) -0.46162(5) 0.23223(4)
O1 O 0.2980(4) 0.2572(3) 0.1978(2)
N1 N 1.0773(4) -0.4109(3) 0.1749(2)
Cr1 Cr 0.5000 0.0000 0.5000
C1 C 1.1644(5) -0.3677(4) 0.2319(3)
H1 H 1.1200 -0.3686 0.2979
O2 O 0.9314(4) -0.6326(3) 0.1796(2)
Mo2 Mo 0.48467(4) 0.18483(3) 0.26950(2)
O3 O 0.6767(3) 0.0409(3) 0.38740(18)
C2 C 1.1447(6) -0.4126(4) 0.0797(3)
H2 H 1.0864 -0.4446 0.0399
N2 N 1.5225(4) -0.1416(3) 0.0101(3)
O4 O 0.6629(4) -0.5255(4) 0.3271(2)
Mo3 Mo 0.74123(4) -0.13789(3) 0.31305(2)
O5 O 0.4690(3) 0.1652(2) 0.55316(18)
C3 C 1.2968(6) -0.3684(4) 0.0396(3)
H3 H 1.3402 -0.3698 -0.0262
O6 O 0.3146(3) 0.1263(2) 0.40723(18)
C4 C 1.3169(5) -0.3219(4) 0.1976(3)
H4 H 1.3736 -0.2918 0.2393
O7 O 0.5302(3) -0.0039(3) 0.25403(19)
C5 C 1.3845(5) -0.3215(4) 0.0997(3)
O8 O 0.6679(4) 0.2284(3) 0.1980(2)
C6 C 1.5522(5) -0.2722(4) 0.0608(3)
O9 O 0.2906(4) 0.4527(3) 0.4978(2)
C7 C 1.3397(5) -0.0418(4) -0.0092(3)
H5 H 1.2435 -0.0836 0.0228
H6 H 1.3245 -0.0150 -0.0802
O10 O 0.0609(4) 0.4034(3) 0.3839(2)
C8 C 1.3219(6) 0.0851(4) 0.0311(3)
H7 H 1.2058 0.1545 0.0131
H8 H 1.3215 0.0603 0.1032
O11 O 0.4491(4) 0.3202(3) 0.34981(19)
O12 O 0.1229(3) 0.2351(3) 0.56894(19)
O13 O 0.7375(4) -0.2830(3) 0.2730(2)
O14 O 0.9163(4) -0.0864(3) 0.2423(2)
O15 O 1.7081(4) -0.3534(3) 0.0779(2)
N1A N 1.9227(4) 0.4109(3) -0.1749(2)
C1A C 1.8356(5) 0.3677(4) -0.2319(3)
H1A H 1.8800 0.3686 -0.2979
C2A C 1.8553(6) 0.4126(4) -0.0797(3)
H2A H 1.9136 0.4446 -0.0399
N2A N 1.4775(4) 0.1416(3) -0.0101(3)
C3A C 1.7032(6) 0.3684(4) -0.0396(3)
H3A H 1.6598 0.3698 0.0262
C4A C 1.6831(5) 0.3219(4) -0.1976(3)
H4A H 1.6264 0.2918 -0.2393
C5A C 1.6155(5) 0.3215(4) -0.0997(3)
C6A C 1.4478(5) 0.2722(4) -0.0608(3)
C7A C 1.6603(5) 0.0418(4) 0.0092(3)
H5A H 1.7565 0.0836 -0.0228
H6A H 1.6755 0.0150 0.0802
C8A C 1.6781(6) -0.0851(4) -0.0311(3)
H7A H 1.7942 -0.1545 -0.0131
H8A H 1.6785 -0.0603 -0.1032
O15A O 1.2919(4) 0.3534(3) -0.0779(2)
Mo1A Mo 0.75238(4) -0.32527(3) 0.54562(2)
Cu1A Cu 0.15232(6) 0.46162(5) 0.76777(4)
O1A O 0.7020(4) -0.2572(3) 0.8022(2)
O2A O 0.0686(4) 0.6326(3) 0.8204(2)
Mo2A Mo 0.51533(4) -0.18483(3) 0.73050(2)
O3A O 0.3233(3) -0.0409(3) 0.61260(18)
O4A O 0.3371(4) 0.5255(4) 0.6729(2)
Mo3A Mo 0.25877(4) 0.13789(3) 0.68695(2)
O5A O 0.5310(3) -0.1652(2) 0.44684(18)
O6A O 0.6854(3) -0.1263(2) 0.59277(18)
O7A O 0.4698(3) 0.0039(3) 0.74597(19)
O8A O 0.3321(4) -0.2284(3) 0.8020(2)
O9A O 0.7094(4) -0.4527(3) 0.5022(2)
O10A O 0.9391(4) -0.4034(3) 0.6161(2)
O11A O 0.5509(4) -0.3202(3) 0.65019(19)
O12A O 0.8771(3) -0.2351(3) 0.43106(19)
O13A O 0.2625(4) 0.2830(3) 0.7270(2)
O14A O 0.0837(4) 0.0864(3) 0.7577(2)
Cu1_2 Cu -0.15232(6) 0.53838(5) 0.23223(4)
Cu1_3 Cu 1.84768(6) -0.46162(5) 0.23223(4)
Cu1A_2 Cu 1.15232(6) -0.53838(5) 0.76777(4)
Cu1A_3 Cu 1.15232(6) 0.46162(5) -0.23223(4)
Cu1A_4 Cu 2.15232(6) 0.46162(5) -0.23223(4)
N1A_2 N -0.0773(4) 0.4109(3) 0.8251(2)
O10_2 O 1.0609(4) -0.5966(3) 0.3839(2)
O10A_2 O -0.0609(4) 0.5966(3) 0.6161(2)
O15_2 O 0.7081(4) -0.3534(3) 0.0779(2)
O15A_2 O 0.2919(4) 0.3534(3) 0.9221(2)
O16 O 0.9855(10) 0.0920(10) 0.4039(6)
O17 O 1.2501(5) -0.2631(4) 0.4336(3)
loop_
_geom_bond_atom_site_label_1
_geom_bond_atom_site_label_2
_geom_bond_site_symmetry_1
_geom_bond_site_symmetry_2
Mo1 O5 1_555 1_555
Cu1 N1 1_555 1_555
O1 Mo2 1_555 1_555
N1 C1 1_555 1_555
Cr1 O3 1_555 1_555
C1 H1 1_555 1_555
O2 Cu1 1_555 1_555
Mo2 O3 1_555 1_555
O3 Mo3 1_555 1_555
C2 N1 1_555 1_555
H2 C2 1_555 1_555
N2 C6 1_555 1_555
O4 Cu1 1_555 1_555
Mo3 O7 1_555 1_555
O5 Cr1 1_555 1_555
C3 C2 1_555 1_555
H3 C3 1_555 1_555
O6 Mo1 1_555 1_555
C4 C1 1_555 1_555
H4 C4 1_555 1_555
O7 Mo2 1_555 1_555
C5 C3 1_555 1_555
O8 Mo2 1_555 1_555
C6 C5 1_555 1_555
O9 Mo1 1_555 1_555
C7 N2 1_555 1_555
H5 C7 1_555 1_555
H6 C7 1_555 1_555
O10 Mo1 1_555 1_555
C8 C7 1_555 1_555
H7 C8 1_555 1_555
H8 C8 1_555 1_555
O11 Mo1 1_555 1_555
O12 Mo1 1_555 1_555
O13 Cu1 1_555 1_555
O14 Mo3 1_555 1_555
O15 C6 1_555 1_555
N1A C1A 1_555 1_555
C1A H1A 1_555 1_555
C2A N1A 1_555 1_555
H2A C2A 1_555 1_555
N2A C8 1_555 1_555
C3A C2A 1_555 1_555
H3A C3A 1_555 1_555
C4A C1A 1_555 1_555
H4A C4A 1_555 1_555
C5A C3A 1_555 1_555
C6A N2A 1_555 1_555
C7A N2A 1_555 1_555
H5A C7A 1_555 1_555
H6A C7A 1_555 1_555
C8A N2 1_555 1_555
H7A C8A 1_555 1_555
H8A C8A 1_555 1_555
O15A C6A 1_555 1_555
Mo1A O5A 1_555 1_555
Cu1A O2A 1_555 1_555
O1A Mo2A 1_555 1_555
Mo2A O3A 1_555 1_555
O3A Cr1 1_555 1_555
O4A Cu1A 1_555 1_555
Mo3A O5 1_555 1_555
O5A Cr1 1_555 1_555
O6A Cr1 1_555 1_555
O7A Mo2A 1_555 1_555
O8A Mo2A 1_555 1_555
O9A Mo1A 1_555 1_555
O10A Mo1A 1_555 1_555
O11A Mo1A 1_555 1_555
O12A Mo3 1_555 1_555
O13A Cu1A 1_555 1_555
O14A Mo3A 1_555 1_555
Cu1_2 O10 1_555 1_555
Cu1_3 O15 1_555 1_555
Cu1A_2 O10A 1_555 1_555
Cu1A_3 O15A 1_555 1_555
Cu1A_4 N1A 1_555 1_555
N1A_2 Cu1A 1_555 1_555
O10_2 Cu1 1_555 1_555
O10A_2 Cu1A 1_555 1_555
O15_2 Cu1 1_555 1_555
O15A_2 Cu1A 1_555 1_555
Cr1 O6 1_555 1_555
Mo2 O6 1_555 1_555
Mo2 O11 1_555 1_555
Mo3 O13 1_555 1_555
Mo3 O5A 1_555 1_555
C4 C5 1_555 1_555
O12 Mo3A 1_555 1_555
C4A C5A 1_555 1_555
C5A C6A 1_555 1_555
C7A C8A 1_555 1_555
Mo1A O6A 1_555 1_555
Mo1A O12A 1_555 1_555
Mo2A O6A 1_555 1_555
Mo2A O11A 1_555 1_555
O3A Mo3A 1_555 1_555
Mo3A O7A 1_555 1_555
Mo3A O13A 1_555 1_555

#END
