
#######################################################################
#
#                 Cambridge Crystallographic Data Centre
#                                CCDC 
#
#######################################################################
#
# If this CIF has been generated from an entry in the Cambridge 
# Structural Database, then it will include bibliographic, chemical, 
# crystal, experimental, refinement or atomic coordinate data resulting 
# from the CCDC's data processing and validation procedures.
#
#######################################################################

data_EGUSIK
_symmetry_cell_setting           monoclinic
_symmetry_space_group_name_H-M   'P 21/c'
_symmetry_Int_Tables_number      14
_space_group_name_Hall           '-P 2ybc'
loop_
_symmetry_equiv_pos_site_id
_symmetry_equiv_pos_as_xyz
1 x,y,z
2 -x,1/2+y,1/2-z
3 -x,-y,-z
4 x,1/2-y,1/2+z
_cell_length_a                   3.9010(16)
_cell_length_b                   23.862(10)
_cell_length_c                   7.561(3)
_cell_angle_alpha                90
_cell_angle_beta                 104.419(6)
_cell_angle_gamma                90
_cell_volume                     681.651
loop_
_atom_site_label
_atom_site_type_symbol
_atom_site_fract_x
_atom_site_fract_y
_atom_site_fract_z
Pb1 Pb 0.6334(3) 0.47395(4) 0.78042(12)
O1 O 0.239(5) 0.4559(6) 0.966(2)
N1 N 0.395(7) 0.2794(10) 0.620(3)
N2 N 0.592(6) 0.3602(9) 0.771(3)
N3 N 0.660(8) 0.2686(11) 0.777(3)
H1 H 0.7426 0.2358 0.8107
N4 N 0.086(6) 0.4225(8) 0.495(3)
N5 N -0.158(5) 0.4336(8) 0.329(3)
N6 N -0.276(6) 0.3880(10) 0.249(4)
H2 H -0.4423 0.3857 0.1505
N7 N -0.106(8) 0.3446(9) 0.339(3)
C1 C 0.770(7) 0.3155(11) 0.870(4)
H3 H 0.9366 0.3179 0.9813
C2 C 0.370(7) 0.3352(10) 0.629(3)
C3 C 0.122(8) 0.3671(12) 0.485(5)
Pb1_2 Pb -0.3666(3) 0.47395(4) 0.78042(12)
Pb1B Pb -0.6334(3) 0.52605(4) 0.21958(12)
Pb1B_2 Pb 0.3666(3) 0.52605(4) 1.21958(12)
O1_2 O 1.239(5) 0.4559(6) 0.966(2)
O1B O 0.761(5) 0.5441(6) 1.034(2)
N5B N 0.158(5) 0.5664(8) 0.671(3)
loop_
_geom_bond_atom_site_label_1
_geom_bond_atom_site_label_2
_geom_bond_site_symmetry_1
_geom_bond_site_symmetry_2
Pb1 O1 1_555 1_555
O1 Pb1_2 1_555 1_555
N1 N3 1_555 1_555
N2 Pb1 1_555 1_555
N3 H1 1_555 1_555
N4 Pb1 1_555 1_555
N5 N4 1_555 1_555
N6 N5 1_555 1_555
H2 N6 1_555 1_555
N7 N6 1_555 1_555
C1 N2 1_555 1_555
H3 C1 1_555 1_555
C2 N1 1_555 1_555
C3 N4 1_555 1_555
Pb1B N5 1_555 1_555
Pb1B_2 O1 1_555 1_555
O1_2 Pb1 1_555 1_555
O1B Pb1 1_555 1_555
N5B Pb1 1_555 1_555
N2 C2 1_555 1_555
N3 C1 1_555 1_555
N7 C3 1_555 1_555
C2 C3 1_555 1_555
Pb1B_2 O1B 1_555 1_555

#END
