
#######################################################################
#
#                 Cambridge Crystallographic Data Centre
#                                CCDC 
#
#######################################################################
#
# If this CIF has been generated from an entry in the Cambridge 
# Structural Database, then it will include bibliographic, chemical, 
# crystal, experimental, refinement or atomic coordinate data resulting 
# from the CCDC's data processing and validation procedures.
#
#######################################################################

data_EGUTUX
_symmetry_cell_setting           monoclinic
_symmetry_space_group_name_H-M   'C 2/c'
_symmetry_Int_Tables_number      15
_space_group_name_Hall           '-C 2yn'
loop_
_symmetry_equiv_pos_site_id
_symmetry_equiv_pos_as_xyz
1 x,y,z
2 -x,y,1/2-z
3 1/2+x,1/2+y,z
4 1/2-x,1/2+y,1/2-z
5 -x,-y,-z
6 x,-y,1/2+z
7 1/2-x,1/2-y,-z
8 1/2+x,1/2-y,1/2+z
_cell_length_a                   23.459(7)
_cell_length_b                   13.337(4)
_cell_length_c                   24.725(8)
_cell_angle_alpha                90
_cell_angle_beta                 102.957(5)
_cell_angle_gamma                90
_cell_volume                     7538.81
loop_
_atom_site_label
_atom_site_type_symbol
_atom_site_fract_x
_atom_site_fract_y
_atom_site_fract_z
C1 C 0.5188(5) 0.7549(11) 0.9808(5)
H1 H 0.5077 0.6978 0.9975
C2 C 0.5158(5) 0.7560(9) 0.9245(5)
H2 H 0.5014 0.7010 0.9025
C3 C 0.5349(4) 0.8405(9) 0.9015(4)
C4 C 0.5546(6) 0.9220(10) 0.9337(5)
H3 H 0.5669 0.9794 0.9183
C5 C 0.5558(6) 0.9171(11) 0.9897(5)
H4 H 0.5696 0.9712 1.0127
C6 C 0.5381(5) 0.8377(7) 0.8412(4)
Cr1 Cr 0.78929(7) 0.88844(12) 0.60451(6)
Gd1 Gd 0.59326(2) 0.78822(4) 0.75027(2)
Mo1 Mo 0.65583(4) 0.81062(6) 0.61011(3)
Mo2 Mo 0.75698(4) 0.64567(7) 0.59680(4)
Mo3 Mo 0.89053(4) 0.71711(7) 0.59438(4)
Mo4 Mo 0.92602(4) 0.95938(7) 0.60524(4)
Mo5 Mo 0.82285(4) 1.12987(6) 0.61177(3)
Mo6 Mo 0.68928(4) 1.05305(7) 0.62086(4)
N1 N 0.5371(5) 0.8342(10) 1.0107(4)
H5 H 0.5371 0.8330 1.0455
O1 O 0.6217(3) 0.8168(6) 0.6652(3)
O2 O 0.6102(3) 0.7432(6) 0.5614(3)
O3 O 0.7091(3) 0.7038(5) 0.6424(3)
O4 O 0.7055(3) 0.5933(6) 0.5449(3)
O5 O 0.7878(4) 0.5485(6) 0.6382(3)
O6 O 0.8159(3) 0.6653(5) 0.5537(3)
O7 O 0.9137(4) 0.6258(6) 0.6423(4)
O8 O 0.9300(3) 0.6977(7) 0.5457(3)
O9 O 0.9344(3) 0.8284(6) 0.6360(3)
O10 O 0.9612(3) 0.9504(6) 0.5518(3)
O11 O 0.9724(3) 1.0232(6) 0.6567(3)
O12 O 0.8742(3) 1.0703(5) 0.5702(3)
O13 O 0.8713(3) 1.1928(6) 0.6633(3)
O14 O 0.7928(3) 1.2184(6) 0.5642(3)
O15 O 0.7635(3) 1.1158(5) 0.6546(3)
O16 O 0.6597(3) 1.1436(6) 0.5753(4)
O17 O 0.6562(4) 1.0652(6) 0.6751(3)
O18 O 0.6448(3) 0.9427(5) 0.5806(3)
O19 O 0.7263(3) 0.8033(5) 0.5611(3)
O20 O 0.8207(3) 0.7621(5) 0.6412(3)
O21 O 0.8482(3) 0.8646(5) 0.5596(3)
O22 O 0.8508(3) 0.9753(5) 0.6485(3)
O23 O 0.7572(3) 1.0144(5) 0.5688(3)
O24 O 0.7345(3) 0.9100(5) 0.6526(3)
O25 O 0.5619(3) 0.6215(6) 0.7278(3)
O26 O 0.6801(3) 0.6896(6) 0.7449(3)
O27 O 0.6770(4) 0.8876(6) 0.7898(3)
O28 O 0.5659(4) 0.9557(6) 0.7129(4)
O29 O 0.5769(4) 0.8901(6) 0.8276(3)
O30 O 0.5059(3) 0.7798(6) 0.8079(3)
Gd1A Gd 0.40674(2) 0.78822(4) 0.74973(2)
Gd1C Gd 0.90674(2) 1.28822(4) 0.74973(2)
O13C O 0.6287(3) 0.6928(6) 0.8367(3)
O30A O 0.4941(3) 0.7798(6) 0.6921(3)
C7 C 0.9000(5) 0.0207(11) 0.4320(5)
H6 H 0.9292 -0.0198 0.4527
C8 C 0.8888(6) 0.0180(11) 0.3749(5)
H7 H 0.9107 -0.0229 0.3568
C9 C 0.8446(5) 0.0769(9) 0.3451(4)
C10 C 0.8138(6) 0.1394(9) 0.3735(5)
H8 H 0.7849 0.1816 0.3539
C11 C 0.8266(5) 0.1385(9) 0.4310(5)
H9 H 0.8051 0.1780 0.4503
C12 C 0.8289(5) 0.0745(8) 0.2824(4)
N2 N 0.8691(4) 0.0815(7) 0.4580(4)
H10 H 0.8775 0.0831 0.4937
O31 O 0.8672(4) 0.0416(6) 0.2585(3)
O32 O 0.7792(4) 0.1029(8) 0.2587(3)
O33 O 0.5000 0.0913(11) 0.7500
O34 O 0.7012(5) 0.0740(7) 0.4661(4)
O35 O 0.5499(6) 0.801(2) 0.1229(5)
O36 O 0.8651(7) 0.7140(11) 0.7481(5)
O37 O 0.5000 0.2918(16) 0.7500
loop_
_geom_bond_atom_site_label_1
_geom_bond_atom_site_label_2
_geom_bond_site_symmetry_1
_geom_bond_site_symmetry_2
C1 H1 1_555 1_555
C2 C1 1_555 1_555
H2 C2 1_555 1_555
C3 C2 1_555 1_555
C4 C3 1_555 1_555
H3 C4 1_555 1_555
C5 C4 1_555 1_555
H4 C5 1_555 1_555
C6 C3 1_555 1_555
Cr1 O19 1_555 1_555
Gd1 O1 1_555 1_555
Mo1 O1 1_555 1_555
Mo2 O3 1_555 1_555
Mo3 O6 1_555 1_555
Mo4 O9 1_555 1_555
Mo5 O12 1_555 1_555
Mo6 O15 1_555 1_555
N1 C1 1_555 1_555
H5 N1 1_555 1_555
O2 Mo1 1_555 1_555
O3 Mo1 1_555 1_555
O4 Mo2 1_555 1_555
O5 Mo2 1_555 1_555
O6 Mo2 1_555 1_555
O7 Mo3 1_555 1_555
O8 Mo3 1_555 1_555
O9 Mo3 1_555 1_555
O10 Mo4 1_555 1_555
O11 Mo4 1_555 1_555
O12 Mo4 1_555 1_555
O13 Mo5 1_555 1_555
O14 Mo5 1_555 1_555
O15 Mo5 1_555 1_555
O16 Mo6 1_555 1_555
O17 Mo6 1_555 1_555
O18 Mo1 1_555 1_555
O19 Mo1 1_555 1_555
O20 Cr1 1_555 1_555
O21 Cr1 1_555 1_555
O22 Cr1 1_555 1_555
O23 Cr1 1_555 1_555
O24 Cr1 1_555 1_555
O25 Gd1 1_555 1_555
O26 Gd1 1_555 1_555
O27 Gd1 1_555 1_555
O28 Gd1 1_555 1_555
O29 C6 1_555 1_555
O30 C6 1_555 1_555
C7 H6 1_555 1_555
C8 C7 1_555 1_555
H7 C8 1_555 1_555
C9 C8 1_555 1_555
C10 C9 1_555 1_555
H8 C10 1_555 1_555
C11 C10 1_555 1_555
H9 C11 1_555 1_555
C12 C9 1_555 1_555
N2 C7 1_555 1_555
H10 N2 1_555 1_555
O31 C12 1_555 1_555
O32 C12 1_555 1_555
Gd1A O30 1_555 1_555
Gd1C O13 1_555 1_555
O13C Gd1 1_555 1_555
O30A Gd1 1_555 1_555
C5 N1 1_555 1_555
Gd1 O29 1_555 1_555
Gd1 O30 1_555 1_555
Mo1 O24 1_555 1_555
Mo2 O19 1_555 1_555
Mo2 O20 1_555 1_555
Mo3 O20 1_555 1_555
Mo3 O21 1_555 1_555
Mo4 O21 1_555 1_555
Mo4 O22 1_555 1_555
Mo5 O22 1_555 1_555
Mo5 O23 1_555 1_555
Mo6 O18 1_555 1_555
Mo6 O23 1_555 1_555
Mo6 O24 1_555 1_555
C11 N2 1_555 1_555
Gd1A O30A 1_555 1_555

#END
