
#######################################################################
#
#                 Cambridge Crystallographic Data Centre
#                                CCDC 
#
#######################################################################
#
# If this CIF has been generated from an entry in the Cambridge 
# Structural Database, then it will include bibliographic, chemical, 
# crystal, experimental, refinement or atomic coordinate data resulting 
# from the CCDC's data processing and validation procedures.
#
#######################################################################

data_EHACAR
_symmetry_cell_setting           monoclinic
_symmetry_space_group_name_H-M   'P 21/n'
_symmetry_Int_Tables_number      14
_space_group_name_Hall           '-P 2yn'
loop_
_symmetry_equiv_pos_site_id
_symmetry_equiv_pos_as_xyz
1 x,y,z
2 1/2-x,1/2+y,1/2-z
3 -x,-y,-z
4 1/2+x,1/2-y,1/2+z
_cell_length_a                   6.9088(6)
_cell_length_b                   13.3759(6)
_cell_length_c                   20.5314(15)
_cell_angle_alpha                90
_cell_angle_beta                 95.542(8)
_cell_angle_gamma                90
_cell_volume                     1888.47
loop_
_atom_site_label
_atom_site_type_symbol
_atom_site_fract_x
_atom_site_fract_y
_atom_site_fract_z
Ni1 Ni 0.0000 1.0000 0.0000
N1 N 0.1618(6) 0.8938(3) 0.0616(2)
H1 H 0.1915(6) 0.8427(3) 0.0358(2)
H2 H 0.2749(6) 0.9233(3) 0.0761(2)
C1 C 0.0821(9) 0.8498(4) 0.1187(3)
H3 H -0.0375(9) 0.8151(4) 0.1041(3)
H4 H 0.0493(9) 0.9035(4) 0.1475(3)
C2 C 0.2158(10) 0.7779(4) 0.1575(3)
H5 H 0.1552(10) 0.7579(4) 0.1961(3)
H6 H 0.3354(10) 0.8126(4) 0.1720(3)
C3 C 0.2671(8) 0.6835(3) 0.1206(2)
H7 H 0.3138(8) 0.7034(3) 0.0795(2)
H8 H 0.1491(8) 0.6450(3) 0.1103(2)
Si1 Si 0.4510(2) 0.60162(9) 0.16432(6)
O1 O 0.4661(6) 0.5013(2) 0.1206(2)
Si2 Si 0.6029(2) 0.40657(10) 0.10574(8)
C4 C 0.4412(11) 0.3119(4) 0.0609(3)
H9 H 0.3917(11) 0.3395(4) 0.0189(3)
H10 H 0.5181(11) 0.2534(4) 0.0526(3)
C5 C 0.2661(11) 0.2787(5) 0.0981(4)
H11 H 0.3164(11) 0.2428(5) 0.1372(4)
H12 H 0.2016(11) 0.3383(5) 0.1122(4)
C6 C 0.1129(10) 0.2124(5) 0.0595(4)
H13 H 0.0037(10) 0.2037(5) 0.0854(4)
H14 H 0.0655(10) 0.2468(5) 0.0196(4)
N2 N 0.1826(7) 0.1165(3) 0.0430(3)
H15 H 0.2438(7) 0.0911(3) 0.0801(3)
H16 H 0.2749(7) 0.1272(3) 0.0157(3)
C7 C 0.6908(10) 0.6672(6) 0.1700(4)
H17 H 0.7883(10) 0.6255(6) 0.1927(4)
H18 H 0.6816(10) 0.7289(6) 0.1934(4)
H19 H 0.7258(10) 0.6810(6) 0.1268(4)
C8 C 0.3821(15) 0.5699(8) 0.2467(4)
H20 H 0.4796(15) 0.5273(8) 0.2686(4)
H21 H 0.2593(15) 0.5358(8) 0.2426(4)
H22 H 0.3717(15) 0.6301(8) 0.2716(4)
C9 C 0.7864(12) 0.4492(6) 0.0527(4)
H23 H 0.7225(12) 0.4768(6) 0.0132(4)
H24 H 0.8655(12) 0.3935(6) 0.0422(4)
H25 H 0.8668(12) 0.4993(6) 0.0751(4)
C10 C 0.7180(12) 0.3527(6) 0.1824(3)
H26 H 0.6191(12) 0.3312(6) 0.2091(3)
H27 H 0.7980(12) 0.4024(6) 0.2056(3)
H28 H 0.7967(12) 0.2966(6) 0.1726(3)
N3 N -0.1991(7) 1.0252(4) 0.0674(3)
C11 C -0.3136(7) 1.0219(4) 0.1023(3)
S1 S -0.4557(3) 1.0226(2) 0.16035(9)
N1B N -0.1618(6) 1.1062(3) -0.0616(2)
H1B H -0.1915(6) 1.1573(3) -0.0358(2)
H2B H -0.2749(6) 1.0767(3) -0.0761(2)
C1B C -0.0821(9) 1.1502(4) -0.1187(3)
H3B H 0.0375(9) 1.1849(4) -0.1041(3)
H4B H -0.0493(9) 1.0965(4) -0.1475(3)
C2B C -0.2158(10) 1.2221(4) -0.1575(3)
H5B H -0.1552(10) 1.2421(4) -0.1961(3)
H6B H -0.3354(10) 1.1874(4) -0.1720(3)
C3B C -0.2671(8) 1.3165(3) -0.1206(2)
H7B H -0.3138(8) 1.2966(3) -0.0795(2)
H8B H -0.1491(8) 1.3550(3) -0.1103(2)
Si1B Si -0.4510(2) 1.39838(9) -0.16432(6)
O1B O -0.4661(6) 1.4987(2) -0.1206(2)
Si2B Si -0.6029(2) 1.59343(10) -0.10574(8)
C4B C -0.4412(11) 1.6881(4) -0.0609(3)
H9B H -0.3917(11) 1.6605(4) -0.0189(3)
H10B H -0.5181(11) 1.7466(4) -0.0526(3)
C5B C -0.2661(11) 1.7213(5) -0.0981(4)
H11B H -0.3164(11) 1.7572(5) -0.1372(4)
H12B H -0.2016(11) 1.6617(5) -0.1122(4)
C6B C -0.1129(10) 1.7876(5) -0.0595(4)
H13B H -0.0037(10) 1.7963(5) -0.0854(4)
H14B H -0.0655(10) 1.7532(5) -0.0196(4)
N2B N -0.1826(7) 1.8835(3) -0.0430(3)
H15B H -0.2438(7) 1.9089(3) -0.0801(3)
H16B H -0.2749(7) 1.8728(3) -0.0157(3)
C7B C -0.6908(10) 1.3328(6) -0.1700(4)
H17B H -0.7883(10) 1.3745(6) -0.1927(4)
H18B H -0.6816(10) 1.2711(6) -0.1934(4)
H19B H -0.7258(10) 1.3190(6) -0.1268(4)
C8B C -0.3821(15) 1.4301(8) -0.2467(4)
H20B H -0.4796(15) 1.4727(8) -0.2686(4)
H21B H -0.2593(15) 1.4642(8) -0.2426(4)
H22B H -0.3717(15) 1.3699(8) -0.2716(4)
C9B C -0.7864(12) 1.5508(6) -0.0527(4)
H23B H -0.7225(12) 1.5232(6) -0.0132(4)
H24B H -0.8655(12) 1.6065(6) -0.0422(4)
H25B H -0.8668(12) 1.5007(6) -0.0751(4)
C10B C -0.7180(12) 1.6473(6) -0.1824(3)
H26B H -0.6191(12) 1.6688(6) -0.2091(3)
H27B H -0.7980(12) 1.5976(6) -0.2056(3)
H28B H -0.7967(12) 1.7034(6) -0.1726(3)
N3B N 0.1991(7) 0.9748(4) -0.0674(3)
C11B C 0.3136(7) 0.9781(4) -0.1023(3)
S1B S 0.4557(3) 0.9774(2) -0.16035(9)
N2_2 N 0.1826(7) 1.1165(3) 0.0430(3)
N2B_2 N -0.1826(7) 0.8835(3) -0.0430(3)
Ni1_2 Ni 0.0000 0.0000 0.0000
Ni1_3 Ni 0.0000 2.0000 0.0000
H15_2 H 0.2438(7) 1.0911(3) 0.0801(3)
H16_2 H 0.2749(7) 1.1272(3) 0.0157(3)
H15B_2 H -0.2438(7) 0.9089(3) -0.0801(3)
H16B_2 H -0.2749(7) 0.8728(3) -0.0157(3)
loop_
_geom_bond_atom_site_label_1
_geom_bond_atom_site_label_2
_geom_bond_site_symmetry_1
_geom_bond_site_symmetry_2
Ni1 N1 1_555 1_555
N1 H1 1_555 1_555
H2 N1 1_555 1_555
C1 N1 1_555 1_555
H3 C1 1_555 1_555
H4 C1 1_555 1_555
C2 C1 1_555 1_555
H5 C2 1_555 1_555
H6 C2 1_555 1_555
C3 C2 1_555 1_555
H7 C3 1_555 1_555
H8 C3 1_555 1_555
Si1 C3 1_555 1_555
O1 Si1 1_555 1_555
Si2 O1 1_555 1_555
C4 Si2 1_555 1_555
H9 C4 1_555 1_555
H10 C4 1_555 1_555
C5 C4 1_555 1_555
H11 C5 1_555 1_555
H12 C5 1_555 1_555
C6 C5 1_555 1_555
H13 C6 1_555 1_555
H14 C6 1_555 1_555
N2 C6 1_555 1_555
H15 N2 1_555 1_555
H16 N2 1_555 1_555
C7 Si1 1_555 1_555
H17 C7 1_555 1_555
H18 C7 1_555 1_555
H19 C7 1_555 1_555
C8 Si1 1_555 1_555
H20 C8 1_555 1_555
H21 C8 1_555 1_555
H22 C8 1_555 1_555
C9 Si2 1_555 1_555
H23 C9 1_555 1_555
H24 C9 1_555 1_555
H25 C9 1_555 1_555
C10 Si2 1_555 1_555
H26 C10 1_555 1_555
H27 C10 1_555 1_555
H28 C10 1_555 1_555
N3 Ni1 1_555 1_555
C11 N3 1_555 1_555
S1 C11 1_555 1_555
N1B Ni1 1_555 1_555
H1B N1B 1_555 1_555
H2B N1B 1_555 1_555
C1B N1B 1_555 1_555
H3B C1B 1_555 1_555
H4B C1B 1_555 1_555
C2B C1B 1_555 1_555
H5B C2B 1_555 1_555
H6B C2B 1_555 1_555
C3B C2B 1_555 1_555
H7B C3B 1_555 1_555
H8B C3B 1_555 1_555
Si1B C3B 1_555 1_555
O1B Si1B 1_555 1_555
Si2B O1B 1_555 1_555
C4B Si2B 1_555 1_555
H9B C4B 1_555 1_555
H10B C4B 1_555 1_555
C5B C4B 1_555 1_555
H11B C5B 1_555 1_555
H12B C5B 1_555 1_555
C6B C5B 1_555 1_555
H13B C6B 1_555 1_555
H14B C6B 1_555 1_555
N2B C6B 1_555 1_555
H15B N2B 1_555 1_555
H16B N2B 1_555 1_555
C7B Si1B 1_555 1_555
H17B C7B 1_555 1_555
H18B C7B 1_555 1_555
H19B C7B 1_555 1_555
C8B Si1B 1_555 1_555
H20B C8B 1_555 1_555
H21B C8B 1_555 1_555
H22B C8B 1_555 1_555
C9B Si2B 1_555 1_555
H23B C9B 1_555 1_555
H24B C9B 1_555 1_555
H25B C9B 1_555 1_555
C10B Si2B 1_555 1_555
H26B C10B 1_555 1_555
H27B C10B 1_555 1_555
H28B C10B 1_555 1_555
N3B Ni1 1_555 1_555
C11B N3B 1_555 1_555
S1B C11B 1_555 1_555
N2_2 Ni1 1_555 1_555
N2B_2 Ni1 1_555 1_555
Ni1_2 N2 1_555 1_555
Ni1_3 N2B 1_555 1_555
H15_2 N2_2 1_555 1_555
H16_2 N2_2 1_555 1_555
H15B_2 N2B_2 1_555 1_555
H16B_2 N2B_2 1_555 1_555

#END
