
#######################################################################
#
#                 Cambridge Crystallographic Data Centre
#                                CCDC 
#
#######################################################################
#
# If this CIF has been generated from an entry in the Cambridge 
# Structural Database, then it will include bibliographic, chemical, 
# crystal, experimental, refinement or atomic coordinate data resulting 
# from the CCDC's data processing and validation procedures.
#
#######################################################################

data_EHADEX
_symmetry_cell_setting           monoclinic
_symmetry_space_group_name_H-M   'P 21/c'
_symmetry_Int_Tables_number      14
_space_group_name_Hall           '-P 2ybc'
loop_
_symmetry_equiv_pos_site_id
_symmetry_equiv_pos_as_xyz
1 x,y,z
2 -x,1/2+y,1/2-z
3 -x,-y,-z
4 x,1/2-y,1/2+z
_cell_length_a                   7.2729(17)
_cell_length_b                   20.340(5)
_cell_length_c                   13.608(3)
_cell_angle_alpha                90
_cell_angle_beta                 103.022(3)
_cell_angle_gamma                90
_cell_volume                     1961.27
loop_
_atom_site_label
_atom_site_type_symbol
_atom_site_fract_x
_atom_site_fract_y
_atom_site_fract_z
Ag1 Ag 0.00311(9) 0.33335(3) 0.48318(5)
C1 C -0.3563(9) 0.4174(3) 0.3797(5)
H1 H -0.3908 0.4213 0.3099
C2 C -0.3629(10) 0.3601(3) 0.4359(5)
H2 H -0.4556 0.3256 0.4109
C3 C -0.3035(9) 0.3720(3) 0.5377(5)
H3 H -0.3551 0.3481 0.5880
C4 C -0.2555(8) 0.4398(3) 0.5485(4)
C5 C -0.1990(8) 0.4813(3) 0.6306(4)
C6 C -0.1849(8) 0.4642(3) 0.7385(4)
C7 C -0.1287(8) 0.4014(3) 0.7738(4)
H4 H -0.0958 0.3703 0.7307
C8 C -0.1222(9) 0.3856(3) 0.8737(4)
C9 C -0.0664(10) 0.3205(3) 0.9089(5)
C10 C -0.1678(10) 0.4316(3) 0.9384(4)
H5 H -0.1614 0.4209 1.0056
C11 C -0.2228(11) 0.4934(3) 0.9033(5)
H6 H -0.2552 0.5244 0.9468
C12 C -0.2306(9) 0.5102(3) 0.8044(4)
H7 H -0.2666 0.5525 0.7818
C13 C -0.2881(8) 0.4678(3) 0.4484(4)
C14 C -0.2455(8) 0.5348(3) 0.4385(4)
C15 C -0.2786(8) 0.5694(3) 0.3420(4)
C16 C -0.2976(9) 0.5440(4) 0.2450(4)
H8 H -0.2831 0.4999 0.2303
C17 C -0.3424(10) 0.5951(4) 0.1717(5)
H9 H -0.3622 0.5876 0.1027
C18 C -0.3532(11) 0.6545(4) 0.2110(5)
H10 H -0.3786 0.6927 0.1726
N1 N -0.1766(7) 0.5716(2) 0.5194(3)
N2 N -0.1585(7) 0.5436(2) 0.6113(3)
H14 H -0.1165 0.5683 0.6626
N3 N -0.0212(9) 0.2690(3) 0.9368(5)
S1 S -0.3154(3) 0.65300(9) 0.33903(13)
Ag1C Ag 0.00311(9) 0.16665(3) 0.98318(5)
Ag1B Ag -0.00311(9) 0.66665(3) 0.51682(5)
N1B N 0.1766(7) 0.4284(2) 0.4806(3)
N3C N -0.0212(9) 0.2310(3) 0.4368(5)
S1B S 0.3154(3) 0.34700(9) 0.66097(13)
C19 C 0.084(2) 0.3103(7) 0.2297(11)
H11 H 0.1226 0.3278 0.1720
H12 H 0.0007 0.2737 0.2093
H13 H 0.1932 0.2958 0.2786
O1 O -0.0031(12) 0.3557(3) 0.2692(5)
H15 H -0.1341 0.3533 0.2545
Cl1 Cl -0.4630(3) 0.32418(10) 0.10863(14)
O2 O -0.4328(18) 0.2892(4) 0.1931(6)
O3 O -0.433(2) 0.2930(5) 0.0296(6)
O4 O -0.6582(18) 0.3414(8) 0.0763(14)
O5 O -0.3800(15) 0.3857(4) 0.1254(6)
loop_
_geom_bond_atom_site_label_1
_geom_bond_atom_site_label_2
_geom_bond_site_symmetry_1
_geom_bond_site_symmetry_2
Ag1 C2 1_555 1_555
C1 H1 1_555 1_555
C2 C1 1_555 1_555
H2 C2 1_555 1_555
C3 Ag1 1_555 1_555
H3 C3 1_555 1_555
C4 C3 1_555 1_555
C5 C4 1_555 1_555
C6 C5 1_555 1_555
C7 C6 1_555 1_555
H4 C7 1_555 1_555
C8 C7 1_555 1_555
C9 C8 1_555 1_555
C10 C8 1_555 1_555
H5 C10 1_555 1_555
C11 C10 1_555 1_555
H6 C11 1_555 1_555
C12 C6 1_555 1_555
H7 C12 1_555 1_555
C13 C1 1_555 1_555
C14 C13 1_555 1_555
C15 C14 1_555 1_555
C16 C15 1_555 1_555
H8 C16 1_555 1_555
C17 C16 1_555 1_555
H9 C17 1_555 1_555
C18 C17 1_555 1_555
H10 C18 1_555 1_555
C19 H11 1_555 1_555
H12 C19 1_555 1_555
H13 C19 1_555 1_555
Cl1 O2 1_555 1_555
N1 C14 1_555 1_555
N2 C5 1_555 1_555
H14 N2 1_555 1_555
N3 C9 1_555 1_555
O1 C19 1_555 1_555
H15 O1 1_555 1_555
O3 Cl1 1_555 1_555
O4 Cl1 1_555 1_555
O5 Cl1 1_555 1_555
S1 C15 1_555 1_555
Ag1C N3 1_555 1_555
Ag1B N1 1_555 1_555
N1B Ag1 1_555 1_555
N3C Ag1 1_555 1_555
S1B Ag1 1_555 1_555
C2 C3 1_555 1_555
C4 C13 1_555 1_555
C11 C12 1_555 1_555
C18 S1 1_555 1_555
N1 N2 1_555 1_555
S1 Ag1B 1_555 1_555

#END
