
#######################################################################
#
#                 Cambridge Crystallographic Data Centre
#                                CCDC 
#
#######################################################################
#
# If this CIF has been generated from an entry in the Cambridge 
# Structural Database, then it will include bibliographic, chemical, 
# crystal, experimental, refinement or atomic coordinate data resulting 
# from the CCDC's data processing and validation procedures.
#
#######################################################################

data_EHAFIE
_symmetry_cell_setting           triclinic
_symmetry_space_group_name_H-M   'P -1'
_symmetry_Int_Tables_number      2
_space_group_name_Hall           '-P 1'
loop_
_symmetry_equiv_pos_site_id
_symmetry_equiv_pos_as_xyz
1 x,y,z
2 -x,-y,-z
_cell_length_a                   10.9453(5)
_cell_length_b                   11.4851(5)
_cell_length_c                   13.4530(7)
_cell_angle_alpha                69.539(4)
_cell_angle_beta                 80.095(4)
_cell_angle_gamma                62.420(5)
_cell_volume                     1404.3
loop_
_atom_site_label
_atom_site_type_symbol
_atom_site_fract_x
_atom_site_fract_y
_atom_site_fract_z
U1 U 0.63266(3) 0.70178(4) 0.83352(3)
U2 U 1.0000 0.5000 0.5000
Ce1 Ce 0.62199(5) 0.21398(6) 0.77513(5)
O1 O 0.5526(7) 0.6175(7) 0.9398(5)
O2 O 0.7134(7) 0.7850(8) 0.7290(6)
O3 O 1.0657(7) 0.5023(7) 0.6112(5)
O4 O 0.8587(7) 0.5287(8) 0.9051(6)
O5 O 0.7753(6) 0.4842(7) 0.7944(6)
O6 O 0.8564(6) 0.2059(7) 0.7612(5)
O7 O 0.9009(6) 0.3553(7) 0.6226(5)
O8 O 1.4283(6) -0.0919(7) 0.8275(5)
O9 O 1.5155(7) 0.0605(7) 0.7749(6)
O10 O 1.4751(7) 0.1741(8) 0.9315(6)
O11 O 1.3118(6) 0.2146(7) 1.0538(5)
O12 O 0.5086(6) 0.6914(7) 0.7128(5)
O13 O 0.4288(8) 0.6982(8) 0.5704(6)
O14 O 0.7391(7) 0.6297(7) 0.5339(6)
O15 O 0.8563(7) 0.7513(7) 0.4786(6)
O16 O 0.6274(7) 0.4136(7) 0.6183(6)
H1 H 0.5522 0.4715 0.5780
H2 H 0.7045 0.4265 0.6028
O17 O 0.3890(8) 0.3642(10) 0.6728(8)
H3 H 0.3147 0.4192 0.7026
H4 H 0.3829 0.3606 0.6081
O18 O 0.4951(9) 0.4336(9) 0.8275(7)
H5 H 0.4121 0.4973 0.7997
H6 H 0.5331 0.4479 0.8737
O19 O 0.7156(9) 0.1717(12) 0.9557(7)
H7 H 0.6596 0.2159 1.0013
H8 H 0.8041 0.1125 0.9726
O20 O 0.7988(8) -0.0312(8) 0.8342(7)
H9 H 0.7883 -0.0969 0.8198
H10 H 0.8732 -0.0539 0.8698
O21 O 0.7080(8) 0.1375(8) 0.6153(6)
H11 H 0.6508 0.1708 0.5611
H12 H 0.7963 0.0763 0.6114
C1 C 1.0083(9) 0.3359(10) 0.8458(8)
C2 C 1.1180(9) 0.3112(10) 0.9049(8)
H13 H 1.0997 0.3611 0.9515
C3 C 1.2510(9) 0.2151(10) 0.8952(7)
C4 C 1.2780(9) 0.1367(10) 0.8267(8)
C5 C 1.1671(10) 0.1553(10) 0.7737(8)
H14 H 1.1833 0.0987 0.7329
C6 C 1.0326(9) 0.2568(9) 0.7806(7)
C7 C 0.6201(9) 1.0011(10) 0.4515(7)
H15 H 0.7016 1.0026 0.4186
C8 C 0.6181(9) 0.8743(10) 0.5036(7)
C9 C 0.4946(9) 0.8736(10) 0.5534(7)
C10 C 0.8727(10) 0.4547(10) 0.8487(8)
C11 C 1.3559(10) 0.1985(9) 0.9622(7)
C12 C 1.4191(9) 0.0278(10) 0.8090(7)
C13 C 0.9211(9) 0.2749(10) 0.7171(8)
C14 C 0.4796(9) 0.7447(10) 0.6164(8)
C15 C 0.7422(9) 0.7447(10) 0.5078(8)
O12A O 0.4914(6) 1.3086(7) 0.2872(5)
O13A O 0.5712(8) 1.3018(8) 0.4296(6)
O14A O 0.2609(7) 1.3703(7) 0.4661(6)
O15A O 0.1437(7) 1.2487(7) 0.5214(6)
C7A C 0.3799(9) 0.9989(10) 0.5485(7)
H15A H 0.2984 0.9974 0.5814
C8A C 0.3819(9) 1.1257(10) 0.4964(7)
C9A C 0.5054(9) 1.1264(10) 0.4466(7)
C14A C 0.5204(9) 1.2553(10) 0.3836(8)
C15A C 0.2578(9) 1.2553(10) 0.4922(8)
U1A U 0.36734(3) 1.29822(4) 0.16648(3)
Ce1A Ce 0.37801(5) 1.78602(6) 0.22487(5)
O1A O 0.4474(7) 1.3825(7) 0.0602(5)
O2A O 0.2866(7) 1.2150(8) 0.2710(6)
O4A O 0.1413(7) 1.4713(8) 0.0949(6)
O5A O 0.2247(6) 1.5158(7) 0.2056(6)
O6A O 0.1436(6) 1.7941(7) 0.2388(5)
O7A O 0.0991(6) 1.6447(7) 0.3774(5)
O8A O -0.4283(6) 2.0919(7) 0.1725(5)
O9A O -0.5155(7) 1.9395(7) 0.2251(6)
O10A O -0.4751(7) 1.8259(8) 0.0685(6)
O11A O -0.3118(6) 1.7854(7) -0.0538(5)
O16A O 0.3726(7) 1.5864(7) 0.3817(6)
H1A H 0.4478 1.5285 0.4220
H2A H 0.2955 1.5735 0.3972
O17A O 0.6110(8) 1.6358(10) 0.3272(8)
H3A H 0.6853 1.5808 0.2974
H4A H 0.6171 1.6394 0.3919
O18A O 0.5049(9) 1.5664(9) 0.1725(7)
H5A H 0.5879 1.5027 0.2003
H6A H 0.4669 1.5521 0.1263
O19A O 0.2844(9) 1.8283(12) 0.0443(7)
H7A H 0.3404 1.7841 -0.0013
H8A H 0.1959 1.8875 0.0274
O20A O 0.2012(8) 2.0312(8) 0.1658(7)
H9A H 0.2117 2.0969 0.1802
H10A H 0.1268 2.0539 0.1302
O21A O 0.2920(8) 1.8625(8) 0.3847(6)
H11A H 0.3492 1.8292 0.4389
H12A H 0.2037 1.9237 0.3886
C1A C -0.0083(9) 1.6641(10) 0.1542(8)
C2A C -0.1180(9) 1.6888(10) 0.0951(8)
H13A H -0.0997 1.6389 0.0485
C3A C -0.2510(9) 1.7849(10) 0.1048(7)
C4A C -0.2780(9) 1.8633(10) 0.1733(8)
C5A C -0.1671(10) 1.8447(10) 0.2263(8)
H14A H -0.1833 1.9013 0.2671
C6A C -0.0326(9) 1.7432(9) 0.2194(7)
C10A C 0.1273(10) 1.5453(10) 0.1513(8)
C11A C -0.3559(10) 1.8015(9) 0.0378(7)
C12A C -0.4191(9) 1.9722(10) 0.1910(7)
C13A C 0.0789(9) 1.7251(10) 0.2829(8)
O3A O 0.9343(7) 0.4977(7) 0.3888(5)
U1_2 U -0.36734(3) 1.70178(4) -0.16648(3)
U1_3 U 1.63266(3) -0.29822(4) 0.83352(3)
U1A_2 U -0.63266(3) 2.29822(4) 0.16648(3)
U1A_3 U 1.36734(3) 0.29822(4) 1.16648(3)
U2_2 U 0.0000 1.5000 0.5000
Ce1_2 Ce 1.62199(5) 0.21398(6) 0.77513(5)
Ce1A_2 Ce -0.62199(5) 1.78602(6) 0.22487(5)
O7A_2 O 1.0991(6) 0.6447(7) 0.3774(5)
O8_2 O 0.4283(6) 0.9081(7) 0.8275(5)
O8A_2 O 0.5717(6) 1.0919(7) 0.1725(5)
O9_2 O 0.5155(7) 0.0605(7) 0.7749(6)
O9A_2 O 0.4845(7) 1.9395(7) 0.2251(6)
O10_2 O 0.4751(7) 0.1741(8) 0.9315(6)
O10A_2 O 0.5249(7) 1.8259(8) 0.0685(6)
O11_2 O 0.3118(6) 1.2146(7) 0.0538(5)
O11A_2 O 0.6882(6) 0.7854(7) 0.9462(5)
O14A_2 O 1.2609(7) 0.3703(7) 0.4661(6)
O15A_2 O 1.1437(7) 0.2487(7) 0.5214(6)
O22 O 0.0000 1.0000 1.0000
O23 O 0.957(4) 0.872(4) 0.582(3)
O24 O 0.789(2) 0.377(3) 0.312(2)
O25 O 0.986(4) 0.966(4) 0.417(3)
loop_
_geom_bond_atom_site_label_1
_geom_bond_atom_site_label_2
_geom_bond_site_symmetry_1
_geom_bond_site_symmetry_2
U1 O1 1_555 1_555
U2 O3 1_555 1_555
Ce1 O6 1_555 1_555
O2 U1 1_555 1_555
O4 U1 1_555 1_555
O5 U1 1_555 1_555
O6 C13 1_555 1_555
O7 U2 1_555 1_555
O8 C12 1_555 1_555
O9 C12 1_555 1_555
O10 C11 1_555 1_555
O11 C11 1_555 1_555
O12 U1 1_555 1_555
O13 C14 1_555 1_555
O14 U2 1_555 1_555
O15 U2 1_555 1_555
O16 Ce1 1_555 1_555
H1 O16 1_555 1_555
H2 O16 1_555 1_555
O17 Ce1 1_555 1_555
H3 O17 1_555 1_555
H4 O17 1_555 1_555
O18 Ce1 1_555 1_555
H5 O18 1_555 1_555
H6 O18 1_555 1_555
O19 Ce1 1_555 1_555
H7 O19 1_555 1_555
H8 O19 1_555 1_555
O20 Ce1 1_555 1_555
H9 O20 1_555 1_555
H10 O20 1_555 1_555
O21 Ce1 1_555 1_555
H11 O21 1_555 1_555
H12 O21 1_555 1_555
C1 C2 1_555 1_555
C2 H13 1_555 1_555
C3 C2 1_555 1_555
C4 C3 1_555 1_555
C5 C4 1_555 1_555
H14 C5 1_555 1_555
C6 C1 1_555 1_555
C7 H15 1_555 1_555
C8 C7 1_555 1_555
C9 C8 1_555 1_555
C10 O4 1_555 1_555
C11 C3 1_555 1_555
C12 C4 1_555 1_555
C13 O7 1_555 1_555
C14 O12 1_555 1_555
C15 O14 1_555 1_555
O12A C14A 1_555 1_555
O13A C14A 1_555 1_555
O14A C15A 1_555 1_555
O15A C15A 1_555 1_555
C7A C9 1_555 1_555
H15A C7A 1_555 1_555
C8A C7A 1_555 1_555
C9A C7 1_555 1_555
C14A C9A 1_555 1_555
C15A C8A 1_555 1_555
U1A O12A 1_555 1_555
Ce1A O6A 1_555 1_555
O1A U1A 1_555 1_555
O2A U1A 1_555 1_555
O4A U1A 1_555 1_555
O5A U1A 1_555 1_555
O6A C13A 1_555 1_555
O7A C13A 1_555 1_555
O8A C12A 1_555 1_555
O9A C12A 1_555 1_555
O10A C11A 1_555 1_555
O11A C11A 1_555 1_555
O16A Ce1A 1_555 1_555
H1A O16A 1_555 1_555
H2A O16A 1_555 1_555
O17A Ce1A 1_555 1_555
H3A O17A 1_555 1_555
H4A O17A 1_555 1_555
O18A Ce1A 1_555 1_555
H5A O18A 1_555 1_555
H6A O18A 1_555 1_555
O19A Ce1A 1_555 1_555
H7A O19A 1_555 1_555
H8A O19A 1_555 1_555
O20A Ce1A 1_555 1_555
H9A O20A 1_555 1_555
H10A O20A 1_555 1_555
O21A Ce1A 1_555 1_555
H11A O21A 1_555 1_555
H12A O21A 1_555 1_555
C1A C2A 1_555 1_555
C2A H13A 1_555 1_555
C3A C2A 1_555 1_555
C4A C3A 1_555 1_555
C5A C4A 1_555 1_555
H14A C5A 1_555 1_555
C6A C1A 1_555 1_555
C10A O4A 1_555 1_555
C11A C3A 1_555 1_555
C12A C4A 1_555 1_555
C13A C6A 1_555 1_555
O3A U2 1_555 1_555
U1_2 O11A 1_555 1_555
U1_3 O8 1_555 1_555
U1A_2 O8A 1_555 1_555
U1A_3 O11 1_555 1_555
U2_2 O14A 1_555 1_555
Ce1_2 O9 1_555 1_555
Ce1A_2 O9A 1_555 1_555
O7A_2 U2 1_555 1_555
O8_2 U1 1_555 1_555
O8A_2 U1A 1_555 1_555
O9_2 Ce1 1_555 1_555
O9A_2 Ce1A 1_555 1_555
O10_2 Ce1 1_555 1_555
O10A_2 Ce1A 1_555 1_555
O11_2 U1A 1_555 1_555
O11A_2 U1 1_555 1_555
O14A_2 U2 1_555 1_555
O15A_2 U2 1_555 1_555
O5 C10 1_555 1_555
O10 Ce1_2 1_555 1_555
O15 C15 1_555 1_555
C1 C10 1_555 1_555
C5 C6 1_555 1_555
C6 C13 1_555 1_555
C8 C15 1_555 1_555
C9 C14 1_555 1_555
O15A U2_2 1_555 1_555
C8A C9A 1_555 1_555
O5A C10A 1_555 1_555
O7A U2_2 1_555 1_555
O10A Ce1A_2 1_555 1_555
C1A C10A 1_555 1_555
C5A C6A 1_555 1_555

#END
