
#######################################################################
#
#                 Cambridge Crystallographic Data Centre
#                                CCDC 
#
#######################################################################
#
# If this CIF has been generated from an entry in the Cambridge 
# Structural Database, then it will include bibliographic, chemical, 
# crystal, experimental, refinement or atomic coordinate data resulting 
# from the CCDC's data processing and validation procedures.
#
#######################################################################

data_EHAFUQ
_symmetry_cell_setting           triclinic
_symmetry_space_group_name_H-M   'P -1'
_symmetry_Int_Tables_number      2
_space_group_name_Hall           '-P 1'
loop_
_symmetry_equiv_pos_site_id
_symmetry_equiv_pos_as_xyz
1 x,y,z
2 -x,-y,-z
_cell_length_a                   10.8761(5)
_cell_length_b                   11.4866(6)
_cell_length_c                   13.4225(7)
_cell_angle_alpha                69.4990(10)
_cell_angle_beta                 79.9920(10)
_cell_angle_gamma                62.5060(10)
_cell_volume                     1393.12
loop_
_atom_site_label
_atom_site_type_symbol
_atom_site_fract_x
_atom_site_fract_y
_atom_site_fract_z
U1 U 0.63156(3) 0.70286(3) 0.83306(2)
U2 U 1.0000 0.5000 0.5000
Nd1 Nd 0.62063(4) 0.21519(5) 0.77498(4)
O1 O 0.5508(6) 0.6189(6) 0.9390(4)
O2 O 0.7142(6) 0.7852(7) 0.7283(5)
O3 O 1.0620(6) 0.5021(6) 0.6122(5)
O4 O 0.8571(6) 0.5283(7) 0.9070(5)
O5 O 0.7742(6) 0.4853(6) 0.7943(5)
O6 O 0.8535(6) 0.2074(6) 0.7612(5)
O7 O 0.8983(5) 0.3567(6) 0.6227(4)
O8 O 1.4270(6) -0.0905(6) 0.8271(5)
O9 O 1.5170(6) 0.0594(6) 0.7760(6)
O10 O 1.4763(6) 0.1760(7) 0.9315(5)
O11 O 1.3121(6) 0.2135(6) 1.0544(4)
O12 O 0.5068(6) 0.6915(6) 0.7124(4)
O13 O 0.4252(8) 0.7001(7) 0.5698(5)
O14 O 0.7362(7) 0.6314(6) 0.5318(6)
O15 O 0.8575(6) 0.7512(6) 0.4773(5)
O16 O 0.7069(7) 0.1384(7) 0.6166(5)
H1 H 0.7961 0.0780 0.6129
H2 H 0.6497 0.1703 0.5624
O17 O 0.6253(7) 0.4114(6) 0.6199(5)
H3 H 0.6595 0.4662 0.6267
H4 H 0.5929 0.4273 0.5568
O18 O 0.3900(8) 0.3602(8) 0.6780(7)
H5 H 0.3157 0.4148 0.7085
H6 H 0.3829 0.3568 0.6134
O19 O 0.4986(8) 0.4311(7) 0.8274(6)
H7 H 0.5204 0.4328 0.8885
H8 H 0.4332 0.5072 0.7852
O20 O 0.7148(8) 0.1723(11) 0.9551(6)
H9 H 0.6586 0.2165 1.0008
H10 H 0.8039 0.1136 0.9718
O21 O 0.7963(7) -0.0255(7) 0.8350(6)
H11 H 0.8404 -0.0581 0.8966
H12 H 0.8168 -0.0811 0.7951
C1 C 1.0083(8) 0.3371(8) 0.8459(6)
C2 C 1.1172(8) 0.3124(8) 0.9048(6)
H13 H 1.0992 0.3629 0.9510
C3 C 1.2507(8) 0.2146(8) 0.8957(6)
C4 C 1.2773(8) 0.1345(8) 0.8281(6)
C5 C 1.1660(8) 0.1551(8) 0.7748(7)
H14 H 1.1815 0.0984 0.7342
C6 C 1.0327(8) 0.2576(8) 0.7801(6)
C7 C 0.6208(8) 1.0020(8) 0.4518(6)
H15 H 0.7036 1.0025 0.4198
C8 C 0.6152(9) 0.8755(8) 0.5033(6)
C9 C 0.4923(8) 0.8748(8) 0.5528(6)
C10 C 0.8721(8) 0.4555(9) 0.8500(7)
C11 C 1.3569(8) 0.1986(8) 0.9622(6)
C12 C 1.4188(8) 0.0297(8) 0.8087(6)
C13 C 0.9191(8) 0.2775(8) 0.7170(6)
C14 C 0.4745(8) 0.7458(8) 0.6154(6)
C15 C 0.7426(8) 0.7444(9) 0.5056(6)
O12A O 0.4932(6) 1.3085(6) 0.2876(4)
O13A O 0.5748(8) 1.2999(7) 0.4302(5)
O14A O 0.2638(7) 1.3686(6) 0.4682(6)
O15A O 0.1425(6) 1.2488(6) 0.5227(5)
C7A C 0.3792(8) 0.9980(8) 0.5482(6)
H15A H 0.2964 0.9975 0.5802
C8A C 0.3848(9) 1.1245(8) 0.4967(6)
C9A C 0.5077(8) 1.1252(8) 0.4472(6)
C14A C 0.5255(8) 1.2542(8) 0.3846(6)
C15A C 0.2574(8) 1.2556(9) 0.4944(6)
U1A U 0.36844(3) 1.29714(3) 0.16694(2)
Nd1A Nd 0.37937(4) 1.78481(5) 0.22502(4)
O1A O 0.4492(6) 1.3811(6) 0.0610(4)
O2A O 0.2858(6) 1.2148(7) 0.2717(5)
O4A O 0.1429(6) 1.4717(7) 0.0930(5)
O5A O 0.2258(6) 1.5147(6) 0.2057(5)
O6A O 0.1465(6) 1.7926(6) 0.2388(5)
O7A O 0.1017(5) 1.6433(6) 0.3773(4)
O8A O -0.4270(6) 2.0905(6) 0.1729(5)
O9A O -0.5170(6) 1.9406(6) 0.2240(6)
O10A O -0.4763(6) 1.8240(7) 0.0685(5)
O11A O -0.3121(6) 1.7865(6) -0.0544(4)
O16A O 0.2931(7) 1.8616(7) 0.3834(5)
H1A H 0.2039 1.9220 0.3871
H2A H 0.3503 1.8297 0.4376
O17A O 0.3747(7) 1.5886(6) 0.3801(5)
H3A H 0.3405 1.5338 0.3733
H4A H 0.4071 1.5727 0.4432
O18A O 0.6100(8) 1.6398(8) 0.3220(7)
H5A H 0.6843 1.5852 0.2915
H6A H 0.6171 1.6432 0.3866
O19A O 0.5014(8) 1.5689(7) 0.1726(6)
H7A H 0.4796 1.5672 0.1115
H8A H 0.5668 1.4928 0.2148
O20A O 0.2852(8) 1.8277(11) 0.0449(6)
H9A H 0.3414 1.7835 -0.0008
H10A H 0.1961 1.8864 0.0282
O21A O 0.2037(7) 2.0255(7) 0.1650(6)
H11A H 0.1596 2.0581 0.1034
H12A H 0.1832 2.0811 0.2049
C1A C -0.0083(8) 1.6629(8) 0.1541(6)
C2A C -0.1172(8) 1.6876(8) 0.0952(6)
H13A H -0.0992 1.6371 0.0490
C3A C -0.2507(8) 1.7854(8) 0.1043(6)
C4A C -0.2773(8) 1.8655(8) 0.1719(6)
C5A C -0.1660(8) 1.8449(8) 0.2252(7)
H14A H -0.1815 1.9016 0.2658
C6A C -0.0327(8) 1.7424(8) 0.2199(6)
C10A C 0.1279(8) 1.5445(9) 0.1500(7)
C11A C -0.3569(8) 1.8014(8) 0.0378(6)
C12A C -0.4188(8) 1.9703(8) 0.1913(6)
C13A C 0.0809(8) 1.7225(8) 0.2830(6)
O3A O 0.9380(6) 0.4979(6) 0.3878(5)
U1_2 U -0.36844(3) 1.70286(3) -0.16694(2)
U1_3 U 1.63156(3) -0.29714(3) 0.83306(2)
U1A_2 U -0.63156(3) 2.29714(3) 0.16694(2)
U1A_3 U 1.36844(3) 0.29714(3) 1.16694(2)
U2_2 U 0.0000 1.5000 0.5000
Nd1_2 Nd 1.62063(4) 0.21519(5) 0.77498(4)
Nd1A_2 Nd -0.62063(4) 1.78481(5) 0.22502(4)
O7A_2 O 1.1017(5) 0.6433(6) 0.3773(4)
O8_2 O 0.4270(6) 0.9095(6) 0.8271(5)
O8A_2 O 0.5730(6) 1.0905(6) 0.1729(5)
O9_2 O 0.5170(6) 0.0594(6) 0.7760(6)
O9A_2 O 0.4830(6) 1.9406(6) 0.2240(6)
O10_2 O 0.4763(6) 0.1760(7) 0.9315(5)
O10A_2 O 0.5237(6) 1.8240(7) 0.0685(5)
O11_2 O 0.3121(6) 1.2135(6) 0.0544(4)
O11A_2 O 0.6879(6) 0.7865(6) 0.9456(4)
O14A_2 O 1.2638(7) 0.3686(6) 0.4682(6)
O15A_2 O 1.1425(6) 0.2488(6) 0.5227(5)
O22 O 0.7881(19) 0.3765(17) 0.3104(15)
O23 O 0.955(2) 0.093(3) 0.073(2)
O24 O -0.009(5) -0.091(6) 0.613(4)
loop_
_geom_bond_atom_site_label_1
_geom_bond_atom_site_label_2
_geom_bond_site_symmetry_1
_geom_bond_site_symmetry_2
U1 O1 1_555 1_555
U2 O3 1_555 1_555
Nd1 O6 1_555 1_555
O2 U1 1_555 1_555
O4 U1 1_555 1_555
O5 U1 1_555 1_555
O6 C13 1_555 1_555
O7 U2 1_555 1_555
O8 C12 1_555 1_555
O9 C12 1_555 1_555
O10 C11 1_555 1_555
O11 C11 1_555 1_555
O12 U1 1_555 1_555
O13 C14 1_555 1_555
O14 U2 1_555 1_555
O15 U2 1_555 1_555
O16 Nd1 1_555 1_555
H1 O16 1_555 1_555
H2 O16 1_555 1_555
O17 Nd1 1_555 1_555
H3 O17 1_555 1_555
H4 O17 1_555 1_555
O18 Nd1 1_555 1_555
H5 O18 1_555 1_555
H6 O18 1_555 1_555
O19 Nd1 1_555 1_555
H7 O19 1_555 1_555
H8 O19 1_555 1_555
O20 Nd1 1_555 1_555
H9 O20 1_555 1_555
H10 O20 1_555 1_555
O21 Nd1 1_555 1_555
H11 O21 1_555 1_555
H12 O21 1_555 1_555
C1 C2 1_555 1_555
C2 H13 1_555 1_555
C3 C2 1_555 1_555
C4 C3 1_555 1_555
C5 C4 1_555 1_555
H14 C5 1_555 1_555
C6 C1 1_555 1_555
C7 H15 1_555 1_555
C8 C7 1_555 1_555
C9 C8 1_555 1_555
C10 O4 1_555 1_555
C11 C3 1_555 1_555
C12 C4 1_555 1_555
C13 O7 1_555 1_555
C14 O12 1_555 1_555
C15 O14 1_555 1_555
O12A C14A 1_555 1_555
O13A C14A 1_555 1_555
O14A C15A 1_555 1_555
O15A C15A 1_555 1_555
C7A C9 1_555 1_555
H15A C7A 1_555 1_555
C8A C7A 1_555 1_555
C9A C7 1_555 1_555
C14A C9A 1_555 1_555
C15A C8A 1_555 1_555
U1A O12A 1_555 1_555
Nd1A O6A 1_555 1_555
O1A U1A 1_555 1_555
O2A U1A 1_555 1_555
O4A U1A 1_555 1_555
O5A U1A 1_555 1_555
O6A C13A 1_555 1_555
O7A C13A 1_555 1_555
O8A C12A 1_555 1_555
O9A C12A 1_555 1_555
O10A C11A 1_555 1_555
O11A C11A 1_555 1_555
O16A Nd1A 1_555 1_555
H1A O16A 1_555 1_555
H2A O16A 1_555 1_555
O17A Nd1A 1_555 1_555
H3A O17A 1_555 1_555
H4A O17A 1_555 1_555
O18A Nd1A 1_555 1_555
H5A O18A 1_555 1_555
H6A O18A 1_555 1_555
O19A Nd1A 1_555 1_555
H7A O19A 1_555 1_555
H8A O19A 1_555 1_555
O20A Nd1A 1_555 1_555
H9A O20A 1_555 1_555
H10A O20A 1_555 1_555
O21A Nd1A 1_555 1_555
H11A O21A 1_555 1_555
H12A O21A 1_555 1_555
C1A C2A 1_555 1_555
C2A H13A 1_555 1_555
C3A C2A 1_555 1_555
C4A C3A 1_555 1_555
C5A C4A 1_555 1_555
H14A C5A 1_555 1_555
C6A C1A 1_555 1_555
C10A O4A 1_555 1_555
C11A C3A 1_555 1_555
C12A C4A 1_555 1_555
C13A C6A 1_555 1_555
O3A U2 1_555 1_555
U1_2 O11A 1_555 1_555
U1_3 O8 1_555 1_555
U1A_2 O8A 1_555 1_555
U1A_3 O11 1_555 1_555
U2_2 O14A 1_555 1_555
Nd1_2 O9 1_555 1_555
Nd1A_2 O9A 1_555 1_555
O7A_2 U2 1_555 1_555
O8_2 U1 1_555 1_555
O8A_2 U1A 1_555 1_555
O9_2 Nd1 1_555 1_555
O9A_2 Nd1A 1_555 1_555
O10_2 Nd1 1_555 1_555
O10A_2 Nd1A 1_555 1_555
O11_2 U1A 1_555 1_555
O11A_2 U1 1_555 1_555
O14A_2 U2 1_555 1_555
O15A_2 U2 1_555 1_555
O5 C10 1_555 1_555
O10 Nd1_2 1_555 1_555
O15 C15 1_555 1_555
C1 C10 1_555 1_555
C5 C6 1_555 1_555
C6 C13 1_555 1_555
C8 C15 1_555 1_555
C9 C14 1_555 1_555
O15A U2_2 1_555 1_555
C8A C9A 1_555 1_555
O5A C10A 1_555 1_555
O7A U2_2 1_555 1_555
O10A Nd1A_2 1_555 1_555
C1A C10A 1_555 1_555
C5A C6A 1_555 1_555

#END
