
#######################################################################
#
#                 Cambridge Crystallographic Data Centre
#                                CCDC 
#
#######################################################################
#
# If this CIF has been generated from an entry in the Cambridge 
# Structural Database, then it will include bibliographic, chemical, 
# crystal, experimental, refinement or atomic coordinate data resulting 
# from the CCDC's data processing and validation procedures.
#
#######################################################################

data_EHAFID
_symmetry_cell_setting           monoclinic
_symmetry_space_group_name_H-M   'P 21'
_symmetry_Int_Tables_number      4
_space_group_name_Hall           'P 2yb'
loop_
_symmetry_equiv_pos_site_id
_symmetry_equiv_pos_as_xyz
1 x,y,z
2 -x,1/2+y,-z
_cell_length_a                   5.382(4)
_cell_length_b                   19.375(14)
_cell_length_c                   11.691(9)
_cell_angle_alpha                90
_cell_angle_beta                 96.771(9)
_cell_angle_gamma                90
_cell_volume                     1210.59
loop_
_atom_site_label
_atom_site_type_symbol
_atom_site_fract_x
_atom_site_fract_y
_atom_site_fract_z
Mn1 Mn 0.13529(17) 0.09925(5) 0.63363(7)
N1 N 0.1530(10) 0.0976(4) 0.4377(4)
C1 C 0.3236(17) 0.0647(6) 0.3871(7)
H1 H 0.4492 0.0418 0.4338
C2 C 0.3295(18) 0.0617(7) 0.2701(7)
H2 H 0.4549 0.0367 0.2405
C3 C 0.1520(13) 0.0952(5) 0.1966(5)
C4 C -0.0269(17) 0.1321(5) 0.2500(6)
H3 H -0.1521 0.1566 0.2057
C5 C -0.0162(17) 0.1319(5) 0.3664(6)
H4 H -0.1354 0.1577 0.3992
C6 C 0.1487(13) 0.0965(5) 0.0689(5)
C7 C 0.3289(16) 0.0647(6) 0.0153(7)
H5 H 0.4572 0.0408 0.0586
C8 C 0.3220(16) 0.0678(6) -0.1027(6)
H6 H 0.4485 0.0456 -0.1362
C9 C -0.0229(17) 0.1333(6) -0.1195(7)
H7 H -0.1462 0.1576 -0.1653
C10 C -0.0283(17) 0.1339(6) -0.0008(7)
H8 H -0.1496 0.1591 0.0313
N2 N 0.1485(11) 0.1000(4) -0.1709(4)
O1 O -0.1304(9) 0.1854(3) 0.6120(4)
O2 O -0.4943(9) 0.1443(3) 0.6531(4)
C11 C -0.3630(12) 0.1873(4) 0.6057(5)
C12 C -0.5046(16) 0.2423(5) 0.5354(9)
H9 H -0.6421 0.2577 0.5757
H10 H -0.5757 0.2225 0.4627
S1 S -0.3199(4) 0.31564(12) 0.5065(2)
C13 C -0.5583(15) 0.3645(4) 0.4182(7)
H11 H -0.7101 0.3371 0.4072
H12 H -0.5949 0.4059 0.4598
C14 C -0.4890(13) 0.3855(4) 0.3003(6)
H13 H -0.6379 0.4054 0.2563
C15 C -0.2836(13) 0.4409(4) 0.3127(6)
O3 O -0.3420(8) 0.4988(3) 0.3487(4)
O4 O -0.0774(10) 0.4253(3) 0.2840(6)
N3 N -0.4084(12) 0.3272(4) 0.2355(6)
H14 H -0.3369 0.2966 0.2872
S2 S -0.6041(4) 0.28487(11) 0.1480(2)
O5 O -0.8368(10) 0.2831(3) 0.1948(6)
O6 O -0.4807(13) 0.2216(3) 0.1228(6)
C16 C -0.6576(15) 0.3313(5) 0.0190(8)
C17 C -0.508(2) 0.3194(9) -0.0701(11)
H15 H -0.3718 0.2898 -0.0584
C18 C -0.566(3) 0.3516(10) -0.1740(11)
H16 H -0.4653 0.3429 -0.2320
C19 C -0.759(2) 0.3951(6) -0.1965(9)
C20 C -0.892(2) 0.4119(7) -0.1056(10)
H17 H -1.0155 0.4458 -0.1153
C21 C -0.843(2) 0.3781(7) 0.0003(9)
H18 H -0.9399 0.3882 0.0589
C22 C -0.824(3) 0.4296(8) -0.3132(9)
H19 H -0.6733 0.4375 -0.3479
H20 H -0.9054 0.4728 -0.3032
H21 H -0.9336 0.4002 -0.3622
O7 O -0.1744(10) 0.0282(3) 0.6048(5)
H22 H -0.3028 0.0435 0.6329
H23 H -0.1289 -0.0110 0.6343
Mn1_2 Mn 0.13529(17) 0.09925(5) -0.36637(7)
Mn1_3 Mn -0.86471(17) 0.09925(5) 0.63363(7)
Mn1A Mn -0.13529(17) 0.59925(5) 0.36637(7)
N2_2 N 0.1485(11) 0.1000(4) 0.8291(4)
O2_2 O 0.5057(9) 0.1443(3) 0.6531(4)
O3A O 0.3420(8) -0.0012(3) 0.6513(4)
loop_
_geom_bond_atom_site_label_1
_geom_bond_atom_site_label_2
_geom_bond_site_symmetry_1
_geom_bond_site_symmetry_2
Mn1 N1 1_555 1_555
N1 C1 1_555 1_555
C1 H1 1_555 1_555
C2 C1 1_555 1_555
H2 C2 1_555 1_555
C3 C2 1_555 1_555
C4 C3 1_555 1_555
H3 C4 1_555 1_555
C5 N1 1_555 1_555
H4 C5 1_555 1_555
C6 C3 1_555 1_555
C7 C6 1_555 1_555
H5 C7 1_555 1_555
C8 C7 1_555 1_555
H6 C8 1_555 1_555
C9 H7 1_555 1_555
C10 C6 1_555 1_555
H8 C10 1_555 1_555
N2 C8 1_555 1_555
O1 Mn1 1_555 1_555
O2 C11 1_555 1_555
C11 O1 1_555 1_555
C12 C11 1_555 1_555
H9 C12 1_555 1_555
H10 C12 1_555 1_555
S1 C12 1_555 1_555
C13 S1 1_555 1_555
H11 C13 1_555 1_555
H12 C13 1_555 1_555
C14 C13 1_555 1_555
H13 C14 1_555 1_555
C15 C14 1_555 1_555
O3 C15 1_555 1_555
O4 C15 1_555 1_555
N3 C14 1_555 1_555
H14 N3 1_555 1_555
S2 N3 1_555 1_555
O5 S2 1_555 1_555
O6 S2 1_555 1_555
C16 S2 1_555 1_555
C17 C16 1_555 1_555
H15 C17 1_555 1_555
C18 C17 1_555 1_555
H16 C18 1_555 1_555
C19 C18 1_555 1_555
C20 C19 1_555 1_555
H17 C20 1_555 1_555
C21 C16 1_555 1_555
H18 C21 1_555 1_555
C22 C19 1_555 1_555
H19 C22 1_555 1_555
H20 C22 1_555 1_555
H21 C22 1_555 1_555
O7 Mn1 1_555 1_555
H22 O7 1_555 1_555
H23 O7 1_555 1_555
Mn1_2 N2 1_555 1_555
Mn1_3 O2 1_555 1_555
Mn1A O3 1_555 1_555
N2_2 Mn1 1_555 1_555
O2_2 Mn1 1_555 1_555
O3A Mn1 1_555 1_555
C4 C5 1_555 1_555
C9 C10 1_555 1_555
C9 N2 1_555 1_555
C20 C21 1_555 1_555

#END
