
#######################################################################
#
#                 Cambridge Crystallographic Data Centre
#                                CCDC 
#
#######################################################################
#
# If this CIF has been generated from an entry in the Cambridge 
# Structural Database, then it will include bibliographic, chemical, 
# crystal, experimental, refinement or atomic coordinate data resulting 
# from the CCDC's data processing and validation procedures.
#
#######################################################################

data_EHAFEZ
_symmetry_cell_setting           triclinic
_symmetry_space_group_name_H-M   'P -1'
_symmetry_Int_Tables_number      2
_space_group_name_Hall           '-P 1'
loop_
_symmetry_equiv_pos_site_id
_symmetry_equiv_pos_as_xyz
1 x,y,z
2 -x,-y,-z
_cell_length_a                   3.6549(8)
_cell_length_b                   10.1920(12)
_cell_length_c                   14.8401(16)
_cell_angle_alpha                108.849(12)
_cell_angle_beta                 94.079(12)
_cell_angle_gamma                91.58(2)
_cell_volume                     521.086
loop_
_atom_site_label
_atom_site_type_symbol
_atom_site_fract_x
_atom_site_fract_y
_atom_site_fract_z
Na1 Na 0.5000 0.0000 0.0000
Na2 Na 0.5000 1.0000 0.5000
O1 O 0.4265(7) 0.7657(2) 0.39509(16)
O2 O 0.1066(6) 0.3364(2) 0.40524(15)
O3 O 0.0052(8) -0.1169(3) 0.0466(2)
O4 O 0.0070(8) 0.9473(3) 0.5946(2)
N1 N 0.2217(7) 0.5660(3) 0.42007(18)
N2 N 0.7957(10) 0.3975(3) 0.0521(2)
N3 N 0.7784(11) 0.8305(4) 0.2227(2)
N4 N 0.4828(10) 0.1678(3) 0.1643(2)
C1 C 0.2217(9) 0.4240(3) 0.3718(2)
C2 C 0.3745(9) 0.4065(3) 0.2827(2)
C3 C 0.4667(8) 0.5359(3) 0.2763(2)
C4 C 0.3757(9) 0.6407(3) 0.3694(2)
C5 C 0.6205(9) 0.5770(3) 0.2066(2)
C6 C 0.6996(10) 0.7183(4) 0.2171(2)
C7 C 0.7155(9) 0.4789(4) 0.1207(2)
C8 C 0.4316(9) 0.2742(3) 0.2169(2)
H1 H 0.152(10) 0.608(4) 0.482(3)
H2 H 0.007(13) -0.096(5) 0.107(4)
H3 H -0.006(14) -0.211(6) 0.014(4)
H4 H 0.041(12) 1.000(5) 0.644(3)
H5 H -0.034(15) 0.867(6) 0.601(4)
Na1_2 Na -0.5000 0.0000 0.0000
Na1_3 Na 1.5000 0.0000 0.0000
Na2_2 Na -0.5000 1.0000 0.5000
Na2_3 Na 0.5000 -1.0000 -0.5000
Na2_4 Na 1.5000 1.0000 0.5000
O1A O 0.5735(7) -0.7657(2) -0.39509(16)
O1A_2 O 0.5735(7) 1.2343(2) 0.60491(16)
O2A O 0.8934(6) -0.3364(2) -0.40524(15)
O3_2 O 1.0052(8) -0.1169(3) 0.0466(2)
O3A O -0.0052(8) 0.1169(3) -0.0466(2)
O3A_2 O 0.9948(8) 0.1169(3) -0.0466(2)
O4_2 O 1.0070(8) 0.9473(3) 0.5946(2)
O4A O -0.0070(8) 1.0527(3) 0.4054(2)
O4A_2 O 0.9930(8) 1.0527(3) 0.4054(2)
N1A N 0.7783(7) -0.5660(3) -0.42007(18)
N2A N 0.2043(10) -0.3975(3) -0.0521(2)
N3A N 0.2216(11) -0.8305(4) -0.2227(2)
N4A N 0.5172(10) -0.1678(3) -0.1643(2)
C1A C 0.7783(9) -0.4240(3) -0.3718(2)
C2A C 0.6255(9) -0.4065(3) -0.2827(2)
C3A C 0.5333(8) -0.5359(3) -0.2763(2)
C4A C 0.6243(9) -0.6407(3) -0.3694(2)
C5A C 0.3795(9) -0.5770(3) -0.2066(2)
C6A C 0.3004(10) -0.7183(4) -0.2171(2)
C7A C 0.2845(9) -0.4789(4) -0.1207(2)
C8A C 0.5684(9) -0.2742(3) -0.2169(2)
H1A H 0.848(10) -0.608(4) -0.482(3)
H2_2 H 1.007(13) -0.096(5) 0.107(4)
H2A H -0.007(13) 0.096(5) -0.107(4)
H2A_2 H 0.993(13) 0.096(5) -0.107(4)
H3_2 H 0.994(14) -0.211(6) 0.014(4)
H3A H 0.006(14) 0.211(6) -0.014(4)
H3A_2 H 1.006(14) 0.211(6) -0.014(4)
H4_2 H 1.041(12) 1.000(5) 0.644(3)
H4A H -0.041(12) 1.000(5) 0.356(3)
H4A_2 H 0.959(12) 1.000(5) 0.356(3)
H5_2 H 0.966(15) 0.867(6) 0.601(4)
H5A H 0.034(15) 1.133(6) 0.399(4)
H5A_2 H 1.034(15) 1.133(6) 0.399(4)
loop_
_geom_bond_atom_site_label_1
_geom_bond_atom_site_label_2
_geom_bond_site_symmetry_1
_geom_bond_site_symmetry_2
Na1 O3 1_555 1_555
Na2 O1 1_555 1_555
O1 C4 1_555 1_555
O2 C1 1_555 1_555
O3 H2 1_555 1_555
O4 Na2 1_555 1_555
N1 C1 1_555 1_555
N2 C7 1_555 1_555
N3 C6 1_555 1_555
N4 Na1 1_555 1_555
C1 C2 1_555 1_555
C2 C3 1_555 1_555
C3 C4 1_555 1_555
C4 N1 1_555 1_555
C5 C3 1_555 1_555
C6 C5 1_555 1_555
C7 C5 1_555 1_555
C8 N4 1_555 1_555
H1 N1 1_555 1_555
H3 O3 1_555 1_555
H4 O4 1_555 1_555
H5 O4 1_555 1_555
Na1_2 O3 1_555 1_555
Na1_3 O3_2 1_555 1_555
Na2_2 O4 1_555 1_555
Na2_3 O1A 1_555 1_555
Na2_4 O4_2 1_555 1_555
O1A C4A 1_555 1_555
O1A_2 Na2 1_555 1_555
O2A C1A 1_555 1_555
O3_2 Na1 1_555 1_555
O3A Na1 1_555 1_555
O3A_2 Na1 1_555 1_555
O4_2 Na2 1_555 1_555
O4A Na2 1_555 1_555
O4A_2 Na2 1_555 1_555
N1A C1A 1_555 1_555
N2A C7A 1_555 1_555
N3A C6A 1_555 1_555
N4A Na1 1_555 1_555
C1A C2A 1_555 1_555
C2A C3A 1_555 1_555
C3A C4A 1_555 1_555
C4A N1A 1_555 1_555
C5A C3A 1_555 1_555
C6A C5A 1_555 1_555
C7A C5A 1_555 1_555
C8A N4A 1_555 1_555
H1A N1A 1_555 1_555
H2_2 O3_2 1_555 1_555
H2A O3A 1_555 1_555
H2A_2 O3A_2 1_555 1_555
H3_2 O3_2 1_555 1_555
H3A O3A 1_555 1_555
H3A_2 O3A_2 1_555 1_555
H4_2 O4_2 1_555 1_555
H4A O4A 1_555 1_555
H4A_2 O4A_2 1_555 1_555
H5_2 O4_2 1_555 1_555
H5A O4A 1_555 1_555
H5A_2 O4A_2 1_555 1_555
C2 C8 1_555 1_555
Na1_2 O3A 1_555 1_555
Na1_3 O3A_2 1_555 1_555
Na2_2 O4A 1_555 1_555
Na2_4 O4A_2 1_555 1_555
C2A C8A 1_555 1_555

#END
