
#######################################################################
#
#                 Cambridge Crystallographic Data Centre
#                                CCDC 
#
#######################################################################
#
# If this CIF has been generated from an entry in the Cambridge 
# Structural Database, then it will include bibliographic, chemical, 
# crystal, experimental, refinement or atomic coordinate data resulting 
# from the CCDC's data processing and validation procedures.
#
#######################################################################

data_EHAFOJ
_symmetry_cell_setting           monoclinic
_symmetry_space_group_name_H-M   'P 21/n'
_symmetry_Int_Tables_number      14
_space_group_name_Hall           '-P 2yn'
loop_
_symmetry_equiv_pos_site_id
_symmetry_equiv_pos_as_xyz
1 x,y,z
2 1/2-x,1/2+y,1/2-z
3 -x,-y,-z
4 1/2+x,1/2-y,1/2+z
_cell_length_a                   3.8738(5)
_cell_length_b                   30.379(4)
_cell_length_c                   6.30550(10)
_cell_angle_alpha                90
_cell_angle_beta                 93.0010(10)
_cell_angle_gamma                90
_cell_volume                     741.027
loop_
_atom_site_label
_atom_site_type_symbol
_atom_site_fract_x
_atom_site_fract_y
_atom_site_fract_z
Br1 Br 0.99845(12) 0.219200(16) -0.10234(7)
C1 C 0.6805(11) 0.12646(14) 0.1950(7)
H1 H 0.7649 0.1303 0.0608
Cu1 Cu 0.51855(17) 0.22119(2) 0.14298(10)
N1 N 0.5638(10) 0.16183(12) 0.2960(6)
O1 O 0.7960(11) 0.00908(11) 0.2337(6)
C2 C 0.6818(11) 0.08460(14) 0.2797(7)
O2 O 0.9427(11) 0.05548(11) -0.0182(6)
H2 H 1.0120 0.0325 -0.0697
C3 C 0.5551(13) 0.07851(15) 0.4806(7)
H3 H 0.5511 0.0507 0.5418
C4 C 0.4359(12) 0.11470(16) 0.5864(7)
H4 H 0.3496 0.1117 0.7205
C5 C 0.4466(12) 0.15557(16) 0.4904(7)
H5 H 0.3689 0.1799 0.5640
C6 C 0.8158(12) 0.04736(15) 0.1578(7)
Br1_2 Br -0.00155(12) 0.219200(16) -0.10234(7)
Br1C Br 0.49845(12) 0.280800(16) 0.39766(7)
Cu1_2 Cu 1.51855(17) 0.22119(2) 0.14298(10)
Cu1C Cu 1.01855(17) 0.27881(2) -0.35702(10)
loop_
_geom_bond_atom_site_label_1
_geom_bond_atom_site_label_2
_geom_bond_site_symmetry_1
_geom_bond_site_symmetry_2
Br1 Cu1 1_555 1_555
C1 H1 1_555 1_555
Cu1 N1 1_555 1_555
N1 C1 1_555 1_555
O1 C6 1_555 1_555
C2 C1 1_555 1_555
O2 H2 1_555 1_555
C3 C2 1_555 1_555
H3 C3 1_555 1_555
C4 C3 1_555 1_555
H4 C4 1_555 1_555
C5 N1 1_555 1_555
H5 C5 1_555 1_555
C6 C2 1_555 1_555
Br1_2 Cu1 1_555 1_555
Br1C Cu1 1_555 1_555
Cu1_2 Br1 1_555 1_555
Cu1C Br1 1_555 1_555
O2 C6 1_555 1_555
C4 C5 1_555 1_555

#END
