
#######################################################################
#
#                 Cambridge Crystallographic Data Centre
#                                CCDC 
#
#######################################################################
#
# If this CIF has been generated from an entry in the Cambridge 
# Structural Database, then it will include bibliographic, chemical, 
# crystal, experimental, refinement or atomic coordinate data resulting 
# from the CCDC's data processing and validation procedures.
#
#######################################################################

data_EHAFUP
_symmetry_cell_setting           orthorhombic
_symmetry_space_group_name_H-M   'P c c n'
_symmetry_Int_Tables_number      56
_space_group_name_Hall           '-P 2ab 2ac'
loop_
_symmetry_equiv_pos_site_id
_symmetry_equiv_pos_as_xyz
1 x,y,z
2 1/2-x,1/2-y,z
3 1/2+x,-y,1/2-z
4 -x,1/2+y,1/2-z
5 -x,-y,-z
6 1/2+x,1/2+y,-z
7 1/2-x,y,1/2+z
8 x,1/2-y,1/2+z
_cell_length_a                   15.8470(2)
_cell_length_b                   22.2874(3)
_cell_length_c                   22.5446(3)
_cell_angle_alpha                90
_cell_angle_beta                 90
_cell_angle_gamma                90
_cell_volume                     7962.49
loop_
_atom_site_label
_atom_site_type_symbol
_atom_site_fract_x
_atom_site_fract_y
_atom_site_fract_z
Cu1 Cu 0.2500 0.2500 0.28210(2)
Cu2 Cu 0.2500 -0.2500 0.28688(2)
O1 O 0.10168(15) 0.24724(10) 0.28069(9)
H1 H 0.0776 0.2759 0.2625
H2 H 0.0698 0.2479 0.3110
O2 O 0.39958(16) -0.24054(10) 0.28730(9)
H3 H 0.4272 -0.2095 0.2771
H4 H 0.4394 -0.2658 0.2834
N1 N 0.24911(16) 0.15919(12) 0.28191(10)
C1 C 0.3048(2) 0.12751(14) 0.31400(13)
H5 H 0.3468 0.1486 0.3357
C2 C 0.3037(2) 0.06557(14) 0.31684(14)
H6 H 0.3437 0.0449 0.3407
C3 C 0.2439(2) 0.03357(15) 0.28474(12)
C4 C 0.1860(2) 0.06665(14) 0.25098(14)
H7 H 0.1439 0.0466 0.2285
C5 C 0.1904(2) 0.12850(14) 0.25066(13)
H8 H 0.1508 0.1504 0.2276
C6 C 0.2418(2) -0.03304(15) 0.28617(13)
C7 C 0.2880(2) -0.06514(15) 0.32810(13)
H9 H 0.3203 -0.0445 0.3571
C8 C 0.2865(2) -0.12704(15) 0.32729(13)
H10 H 0.3183 -0.1480 0.3564
N2 N 0.24241(17) -0.15910(12) 0.28760(10)
C9 C 0.1956(2) -0.12850(14) 0.24770(14)
H11 H 0.1624 -0.1503 0.2200
C10 C 0.1943(2) -0.06652(14) 0.24579(14)
H12 H 0.1609 -0.0466 0.2169
N3 N 0.2500 0.2500 0.37392(15)
C11 C 0.3022(2) 0.28581(14) 0.40458(13)
H13 H 0.3391 0.3116 0.3833
C12 C 0.3045(2) 0.28667(15) 0.46607(13)
H14 H 0.3431 0.3123 0.4860
C13 C 0.2500 0.2500 0.49897(19)
C14 C 0.2500 0.2500 0.56467(18)
C15 C 0.1940(2) 0.21464(15) 0.59750(13)
H15 H 0.1542 0.1899 0.5776
C16 C 0.1963(2) 0.21569(15) 0.65863(13)
H16 H 0.1580 0.1909 0.6798
N4 N 0.2500 0.2500 0.18975(15)
N5 N 0.2500 -0.2500 0.37976(15)
C17 C 0.3211(2) -0.26045(15) 0.41059(14)
H17 H 0.3716 -0.2686 0.3894
C18 C 0.3237(2) -0.25988(16) 0.47196(14)
H18 H 0.3757 -0.2662 0.4920
C19 C 0.2500 -0.2500 0.50438(19)
C20 C 0.2500 -0.2500 0.57011(19)
C21 C 0.1972(2) -0.21243(15) 0.60245(14)
H19 H 0.1601 -0.1858 0.5824
C22 C 0.1986(2) -0.21377(14) 0.66382(13)
H20 H 0.1617 -0.1880 0.6850
N6 N 0.2500 -0.2500 0.69449(15)
Cu1F Cu 0.2500 0.2500 0.78210(2)
Cu1F_2 Cu 0.2500 0.2500 -0.21790(2)
Cu2F Cu 0.2500 -0.2500 0.78688(2)
O1A O 0.39832(15) 0.25276(10) 0.28069(9)
H1A H 0.4224 0.2241 0.2625
H2A H 0.4302 0.2521 0.3110
O2A O 0.10042(16) -0.25946(10) 0.28730(9)
H3A H 0.0728 -0.2905 0.2771
H4A H 0.0606 -0.2342 0.2834
N1A N 0.25089(16) 0.34081(12) 0.28191(10)
N2A N 0.25759(17) -0.34090(12) 0.28760(10)
N3F N 0.2500 0.2500 -0.12608(15)
C11A C 0.1978(2) 0.21419(14) 0.40458(13)
C11F C 0.1978(2) 0.28581(14) -0.09542(13)
C11G C 0.3022(2) 0.21419(14) -0.09542(13)
H13A H 0.1609 0.1884 0.3833
H13F H 0.1609 0.3116 -0.1167
H13G H 0.3391 0.1884 -0.1167
C12A C 0.1955(2) 0.21333(15) 0.46607(13)
C12F C 0.1955(2) 0.28667(15) -0.03393(13)
C12G C 0.3045(2) 0.21333(15) -0.03393(13)
H14A H 0.1569 0.1877 0.4860
H14F H 0.1569 0.3123 -0.0140
H14G H 0.3431 0.1877 -0.0140
C13F C 0.2500 0.2500 -0.00103(19)
C14F C 0.2500 0.2500 0.06467(18)
C15A C 0.3060(2) 0.28536(15) 0.59750(13)
C15F C 0.3060(2) 0.21464(15) 0.09750(13)
C15G C 0.1940(2) 0.28536(15) 0.09750(13)
H15A H 0.3458 0.3101 0.5776
H15F H 0.3458 0.1899 0.0776
H15G H 0.1542 0.3101 0.0776
C16F C 0.3037(2) 0.21569(15) 0.15863(13)
C16G C 0.1963(2) 0.28431(15) 0.15863(13)
C16A C 0.3037(2) 0.28431(15) 0.65863(13)
H16F H 0.3420 0.1909 0.1798
H16G H 0.1580 0.3091 0.1798
H16A H 0.3420 0.3091 0.6798
N4F N 0.2500 0.2500 0.68975(15)
C17A C 0.1789(2) -0.23955(15) 0.41059(14)
H17A H 0.1284 -0.2314 0.3894
C18A C 0.1763(2) -0.24012(16) 0.47196(14)
H18A H 0.1243 -0.2338 0.4920
C21A C 0.3028(2) -0.28757(15) 0.60245(14)
H19A H 0.3399 -0.3142 0.5824
C22A C 0.3014(2) -0.28623(14) 0.66382(13)
H20A H 0.3383 -0.3120 0.6850
N6F N 0.2500 -0.2500 0.19449(15)
O3 O 0.6244(2) -0.00834(13) 0.05001(13)
C23 C 0.6442(3) -0.00789(19) -0.00754(18)
C24 C 0.6951(3) -0.0555(2) -0.03513(18)
H21 H 0.7178 -0.0884 -0.0136
C25 C 0.7065(3) -0.04779(18) -0.09484(18)
H22 H 0.7390 -0.0764 -0.1161
C26 C 0.6713(3) 0.00168(18) -0.1259(2)
H23 H 0.6809 0.0044 -0.1675
C27 C 0.6246(3) 0.0456(2) -0.09936(18)
H24 H 0.6015 0.0784 -0.1208
C28 C 0.6134(3) 0.03897(18) -0.03999(16)
C29 C 0.5667(2) 0.07630(18) 0.00688(15)
C30 C 0.5791(2) 0.04337(16) 0.05673(18)
C31 C 0.5504(3) 0.05025(17) 0.11891(17)
O4 O 0.5128(2) 0.09921(13) 0.13157(11)
O5 O 0.5630(2) 0.01036(13) 0.15628(14)
C32 C 0.5226(3) 0.1338(2) -0.00085(16)
O6 O 0.48989(17) 0.16044(12) 0.04495(12)
H25 H 0.4944 0.1404 0.0769
O7 O 0.51959(19) 0.15608(14) -0.05116(12)
O8 O 0.53586(18) -0.02176(12) 0.36940(12)
C33 C 0.5443(3) -0.07392(18) 0.40122(18)
C34 C 0.5236(3) -0.13147(19) 0.38097(19)
H26 H 0.5035 -0.1385 0.3419
C35 C 0.5341(3) -0.1768(2) 0.4209(2)
H27 H 0.5220 -0.2169 0.4094
C36 C 0.5621(3) -0.1653(2) 0.4778(2)
H28 H 0.5646 -0.1978 0.5050
C37 C 0.5863(3) -0.1099(2) 0.49744(19)
H29 H 0.6089 -0.1043 0.5361
C38 C 0.5762(3) -0.0602(2) 0.45683(17)
C39 C 0.5901(3) 0.00320(19) 0.45853(17)
C40 C 0.5640(2) 0.02506(18) 0.40492(15)
C41 C 0.5539(2) 0.08552(17) 0.37688(15)
O9 O 0.51315(17) 0.08710(11) 0.32929(10)
O10 O 0.58640(19) 0.12943(13) 0.40290(14)
C42 C 0.6239(3) 0.0341(2) 0.51031(19)
O11 O 0.6419(2) 0.09266(16) 0.50486(14)
H30 H 0.6236 0.1045 0.4713
O12 O 0.6374(3) 0.00702(15) 0.55580(14)
O13 O 0.49322(15) 0.16130(10) 0.23558(10)
H31 H 0.5003 0.1389 0.2055
H32 H 0.4964 0.1359 0.2636
O14 O 0.45224(18) -0.13367(12) 0.23727(12)
H33 H 0.4894 -0.1305 0.2103
H34 H 0.4491 -0.0973 0.2485
O15 O 0.56775(18) -0.11523(13) 0.14635(12)
H35 H 0.5406 -0.1255 0.1155
H36 H 0.5764 -0.0780 0.1521
O16 O 0.4520(2) -0.00921(12) 0.25046(13)
H37 H 0.4906 -0.0028 0.2250
H38 H 0.4728 0.0103 0.2794
O17 O 0.48782(18) 0.23463(13) 0.38303(12)
H39 H 0.5188 0.2041 0.3888
H40 H 0.5004 0.2631 0.4065
loop_
_geom_bond_atom_site_label_1
_geom_bond_atom_site_label_2
_geom_bond_site_symmetry_1
_geom_bond_site_symmetry_2
Cu1 O1 1_555 1_555
Cu2 O2 1_555 1_555
O1 H1 1_555 1_555
H2 O1 1_555 1_555
O2 H3 1_555 1_555
H4 O2 1_555 1_555
N1 Cu1 1_555 1_555
C1 N1 1_555 1_555
H5 C1 1_555 1_555
C2 C1 1_555 1_555
H6 C2 1_555 1_555
C3 C2 1_555 1_555
C4 C3 1_555 1_555
H7 C4 1_555 1_555
C5 N1 1_555 1_555
H8 C5 1_555 1_555
C6 C3 1_555 1_555
C7 C6 1_555 1_555
H9 C7 1_555 1_555
C8 C7 1_555 1_555
H10 C8 1_555 1_555
N2 Cu2 1_555 1_555
C9 N2 1_555 1_555
H11 C9 1_555 1_555
C10 C6 1_555 1_555
H12 C10 1_555 1_555
N3 Cu1 1_555 1_555
C11 N3 1_555 1_555
H13 C11 1_555 1_555
C12 C11 1_555 1_555
H14 C12 1_555 1_555
C13 C12 1_555 1_555
C14 C13 1_555 1_555
C15 C14 1_555 1_555
H15 C15 1_555 1_555
C16 C15 1_555 1_555
H16 C16 1_555 1_555
N4 Cu1 1_555 1_555
N5 Cu2 1_555 1_555
C17 N5 1_555 1_555
H17 C17 1_555 1_555
C18 C17 1_555 1_555
H18 C18 1_555 1_555
C19 C18 1_555 1_555
C20 C19 1_555 1_555
C21 C20 1_555 1_555
H19 C21 1_555 1_555
C22 C21 1_555 1_555
H20 C22 1_555 1_555
N6 C22 1_555 1_555
O3 C23 1_555 1_555
C23 C24 1_555 1_555
C24 H21 1_555 1_555
C25 C24 1_555 1_555
H22 C25 1_555 1_555
C26 C25 1_555 1_555
H23 C26 1_555 1_555
C27 C26 1_555 1_555
H24 C27 1_555 1_555
C28 C23 1_555 1_555
C29 C28 1_555 1_555
C30 O3 1_555 1_555
C31 C30 1_555 1_555
O4 C31 1_555 1_555
O5 C31 1_555 1_555
C32 C29 1_555 1_555
O6 C32 1_555 1_555
H25 O6 1_555 1_555
O7 C32 1_555 1_555
O8 C33 1_555 1_555
C33 C34 1_555 1_555
C34 H26 1_555 1_555
C35 C34 1_555 1_555
H27 C35 1_555 1_555
C36 C35 1_555 1_555
H28 C36 1_555 1_555
C37 C36 1_555 1_555
H29 C37 1_555 1_555
C38 C33 1_555 1_555
C39 C38 1_555 1_555
C40 O8 1_555 1_555
C41 C40 1_555 1_555
O9 C41 1_555 1_555
O10 C41 1_555 1_555
C42 C39 1_555 1_555
O11 C42 1_555 1_555
H30 O11 1_555 1_555
O12 C42 1_555 1_555
O13 H31 1_555 1_555
H32 O13 1_555 1_555
O14 H33 1_555 1_555
H34 O14 1_555 1_555
O15 H35 1_555 1_555
H36 O15 1_555 1_555
O16 H37 1_555 1_555
H38 O16 1_555 1_555
O17 H39 1_555 1_555
H40 O17 1_555 1_555
Cu1F N4F 1_555 1_555
Cu1F_2 N3F 1_555 1_555
Cu2F N6 1_555 1_555
O1A Cu1 1_555 1_555
H1A O1A 1_555 1_555
H2A O1A 1_555 1_555
O2A Cu2 1_555 1_555
H3A O2A 1_555 1_555
H4A O2A 1_555 1_555
N1A Cu1 1_555 1_555
N2A Cu2 1_555 1_555
N3F C11F 1_555 1_555
C11A N3 1_555 1_555
C11F H13F 1_555 1_555
C11G N3F 1_555 1_555
H13A C11A 1_555 1_555
H13G C11G 1_555 1_555
C12A C13 1_555 1_555
C12F C11F 1_555 1_555
C12G C11G 1_555 1_555
H14A C12A 1_555 1_555
H14F C12F 1_555 1_555
H14G C12G 1_555 1_555
C13F C12F 1_555 1_555
C14F C13F 1_555 1_555
C15A C14 1_555 1_555
C15F C14F 1_555 1_555
C15G C14F 1_555 1_555
H15A C15A 1_555 1_555
H15F C15F 1_555 1_555
H15G C15G 1_555 1_555
C16F N4 1_555 1_555
C16G N4 1_555 1_555
C16A C15A 1_555 1_555
H16F C16F 1_555 1_555
H16G C16G 1_555 1_555
H16A C16A 1_555 1_555
N4F C16 1_555 1_555
C17A N5 1_555 1_555
H17A C17A 1_555 1_555
C18A C19 1_555 1_555
H18A C18A 1_555 1_555
C21A C20 1_555 1_555
H19A C21A 1_555 1_555
C22A N6 1_555 1_555
H20A C22A 1_555 1_555
N6F Cu2 1_555 1_555
C4 C5 1_555 1_555
C8 N2 1_555 1_555
C9 C10 1_555 1_555
C27 C28 1_555 1_555
C29 C30 1_555 1_555
C37 C38 1_555 1_555
C39 C40 1_555 1_555
C11A C12A 1_555 1_555
C12G C13F 1_555 1_555
C15F C16F 1_555 1_555
C15G C16G 1_555 1_555
C16A N4F 1_555 1_555
C17A C18A 1_555 1_555
C21A C22A 1_555 1_555

#END
