
#######################################################################
#
#                 Cambridge Crystallographic Data Centre
#                                CCDC 
#
#######################################################################
#
# If this CIF has been generated from an entry in the Cambridge 
# Structural Database, then it will include bibliographic, chemical, 
# crystal, experimental, refinement or atomic coordinate data resulting 
# from the CCDC's data processing and validation procedures.
#
#######################################################################

data_EHAGUQ
_symmetry_cell_setting           triclinic
_symmetry_space_group_name_H-M   'P -1'
_symmetry_Int_Tables_number      2
_space_group_name_Hall           '-P 1'
loop_
_symmetry_equiv_pos_site_id
_symmetry_equiv_pos_as_xyz
1 x,y,z
2 -x,-y,-z
_cell_length_a                   6.9711(14)
_cell_length_b                   8.0784(16)
_cell_length_c                   11.903(2)
_cell_angle_alpha                102.68(3)
_cell_angle_beta                 99.68(3)
_cell_angle_gamma                96.32(3)
_cell_volume                     637.088
loop_
_atom_site_label
_atom_site_type_symbol
_atom_site_fract_x
_atom_site_fract_y
_atom_site_fract_z
Zn1 Zn 0.84927(6) -0.01369(5) 0.35343(4)
O1 O 1.0430(4) 0.1996(3) 0.4058(2)
N1 N 0.6388(4) 0.0861(4) 0.2678(3)
O2 O 1.2514(4) 0.0873(3) 0.5188(2)
N2 N 0.3656(4) 0.1063(4) 0.1542(2)
O3 O 0.9684(4) -0.1888(4) 0.2643(2)
C1 C 1.3577(5) 0.3584(4) 0.4867(3)
O4 O 0.6639(4) -0.3220(4) 0.1847(3)
C2 C 0.1782(5) 0.0520(5) 0.0748(3)
C3 C 1.3100(5) 0.4962(5) 0.4413(3)
H1 H 1.1825 0.4936 0.4015
C4 C 0.8411(6) -0.3024(5) 0.1871(3)
C5 C 1.2067(5) 0.2044(5) 0.4700(3)
C6 C 0.9230(5) -0.4100(5) 0.0924(3)
C7 C 0.1595(5) -0.0783(5) -0.0231(3)
H2 H 0.2676 -0.1310 -0.0384
C8 C 1.1244(6) -0.4108(5) 0.1024(3)
H3 H 1.2095 -0.3506 0.1717
C9 C 1.5482(5) 0.3623(5) 0.5450(3)
H4 H 1.5812 0.2700 0.5751
C10 C 0.6358(5) 0.2556(5) 0.2666(3)
H5 H 0.7342 0.3463 0.3075
C11 C 0.4682(5) 0.2697(5) 0.1972(3)
H6 H 0.4294 0.3702 0.1814
C12 C 0.0201(5) 0.1316(5) 0.0992(3)
H7 H 0.0343 0.2203 0.1661
C13 C 0.8000(6) -0.5012(5) -0.0120(3)
H8 H 0.6647 -0.5026 -0.0207
C14 C 0.4740(5) 0.0006(5) 0.1994(3)
H9 H 0.4373 -0.1176 0.1843
Zn1A Zn 2.15073(6) 1.01369(5) 0.64657(4)
Zn1A_2 Zn 1.15073(6) 0.01369(5) 0.64657(4)
Zn1_2 Zn 1.84927(6) 0.98631(5) 0.35343(4)
Zn1A_3 Zn -0.84927(6) 0.01369(5) -0.35343(4)
Zn1A_4 Zn 1.15073(6) -0.98631(5) -0.35343(4)
O1A O 1.9570(4) 0.8004(3) 0.5942(2)
N1A N -0.6388(4) -0.0861(4) -0.2678(3)
N1A_2 N 2.3612(4) 0.9139(4) 0.7322(3)
O2A O 1.7486(4) 0.9127(3) 0.4812(2)
O2A_2 O 0.7486(4) -0.0873(3) 0.4812(2)
O2_2 O 2.2514(4) 1.0873(3) 0.5188(2)
N2A N -0.3656(4) -0.1063(4) -0.1542(2)
O3A O 1.0316(4) -0.8112(4) -0.2643(2)
O3A_2 O 2.0316(4) 1.1888(4) 0.7357(2)
C1A C 1.6423(5) 0.6416(4) 0.5133(3)
O4A O 1.3361(4) -0.6780(4) -0.1847(3)
C2A C -0.1782(5) -0.0520(5) -0.0748(3)
C3A C 1.6900(5) 0.5038(5) 0.5587(3)
H1A H 1.8175 0.5064 0.5985
C4A C 1.1589(6) -0.6976(5) -0.1871(3)
C5A C 1.7933(5) 0.7956(5) 0.5300(3)
C6A C 1.0770(5) -0.5900(5) -0.0924(3)
C7A C -0.1595(5) 0.0783(5) 0.0231(3)
H2A H -0.2676 0.1310 0.0384
C8A C 0.8756(6) -0.5892(5) -0.1024(3)
H3A H 0.7905 -0.6494 -0.1717
C9A C 1.4518(5) 0.6377(5) 0.4550(3)
H4A H 1.4188 0.7300 0.4249
C10A C -0.6358(5) -0.2556(5) -0.2666(3)
H5A H -0.7342 -0.3463 -0.3075
C11A C -0.4682(5) -0.2697(5) -0.1972(3)
H6A H -0.4294 -0.3702 -0.1814
C12A C -0.0201(5) -0.1316(5) -0.0992(3)
H7A H -0.0343 -0.2203 -0.1661
C13A C 1.2000(6) -0.4988(5) 0.0120(3)
H8A H 1.3353 -0.4974 0.0207
C14A C -0.4740(5) -0.0006(5) -0.1994(3)
H9A H -0.4373 0.1176 -0.1843
loop_
_geom_bond_atom_site_label_1
_geom_bond_atom_site_label_2
_geom_bond_site_symmetry_1
_geom_bond_site_symmetry_2
Zn1 O1 1_555 1_555
O1 C5 1_555 1_555
N1 Zn1 1_555 1_555
O2 C5 1_555 1_555
N2 C2 1_555 1_555
O3 Zn1 1_555 1_555
C1 C3 1_555 1_555
O4 C4 1_555 1_555
C2 C7 1_555 1_555
C3 H1 1_555 1_555
C4 O3 1_555 1_555
C5 C1 1_555 1_555
C6 C4 1_555 1_555
C7 H2 1_555 1_555
C8 C6 1_555 1_555
H3 C8 1_555 1_555
C9 C1 1_555 1_555
H4 C9 1_555 1_555
C10 N1 1_555 1_555
H5 C10 1_555 1_555
C11 N2 1_555 1_555
H6 C11 1_555 1_555
C12 C2 1_555 1_555
H7 C12 1_555 1_555
C13 C6 1_555 1_555
H8 C13 1_555 1_555
C14 N1 1_555 1_555
H9 C14 1_555 1_555
Zn1A O1A 1_555 1_555
Zn1A_2 O2 1_555 1_555
Zn1_2 O2A 1_555 1_555
Zn1A_3 N1A 1_555 1_555
Zn1A_4 O3A 1_555 1_555
O1A C5A 1_555 1_555
N1A C10A 1_555 1_555
N1A_2 Zn1A 1_555 1_555
O2A C5A 1_555 1_555
O2A_2 Zn1 1_555 1_555
O2_2 Zn1A 1_555 1_555
N2A C2A 1_555 1_555
O3A C4A 1_555 1_555
O3A_2 Zn1A 1_555 1_555
C1A C3A 1_555 1_555
O4A C4A 1_555 1_555
C2A C7A 1_555 1_555
C3A C9 1_555 1_555
H1A C3A 1_555 1_555
C4A C6A 1_555 1_555
C5A C1A 1_555 1_555
C6A C8A 1_555 1_555
C7A C12 1_555 1_555
H2A C7A 1_555 1_555
C8A C13 1_555 1_555
H3A C8A 1_555 1_555
C9A C3 1_555 1_555
H4A C9A 1_555 1_555
C10A H5A 1_555 1_555
C11A N2A 1_555 1_555
H6A C11A 1_555 1_555
C12A C7 1_555 1_555
H7A C12A 1_555 1_555
C13A C8 1_555 1_555
H8A C13A 1_555 1_555
C14A N1A 1_555 1_555
H9A C14A 1_555 1_555
N2 C14 1_555 1_555
C10 C11 1_555 1_555
N2A C14A 1_555 1_555
C1A C9A 1_555 1_555
C2A C12A 1_555 1_555
C6A C13A 1_555 1_555
C10A C11A 1_555 1_555

#END
