
#######################################################################
#
#                 Cambridge Crystallographic Data Centre
#                                CCDC 
#
#######################################################################
#
# If this CIF has been generated from an entry in the Cambridge 
# Structural Database, then it will include bibliographic, chemical, 
# crystal, experimental, refinement or atomic coordinate data resulting 
# from the CCDC's data processing and validation procedures.
#
#######################################################################

data_EHAHIF
_symmetry_cell_setting           monoclinic
_symmetry_space_group_name_H-M   'P 21/n'
_symmetry_Int_Tables_number      14
_space_group_name_Hall           '-P 2yn'
loop_
_symmetry_equiv_pos_site_id
_symmetry_equiv_pos_as_xyz
1 x,y,z
2 1/2-x,1/2+y,1/2-z
3 -x,-y,-z
4 1/2+x,1/2-y,1/2+z
_cell_length_a                   11.312(3)
_cell_length_b                   10.158(3)
_cell_length_c                   13.348(4)
_cell_angle_alpha                90
_cell_angle_beta                 108.004(5)
_cell_angle_gamma                90
_cell_volume                     1458.68
loop_
_atom_site_label
_atom_site_type_symbol
_atom_site_fract_x
_atom_site_fract_y
_atom_site_fract_z
Ag1 Ag -0.08014(4) 0.46303(4) -0.36383(3)
Ag2 Ag 0.32928(4) 0.00428(5) -0.52036(4)
Ag3 Ag -0.08048(7) 0.00046(5) -0.83507(4)
N1 N 0.0494(4) 0.3249(4) -0.4082(3)
N2 N 0.2054(4) 0.1422(4) -0.4560(3)
N3 N -0.1917(4) 0.3021(4) -0.2866(3)
N4 N -0.3309(3) 0.1320(4) -0.2051(3)
O1 O 0.1342(4) 0.0266(4) -0.6525(3)
O2 O -0.0573(3) 0.1015(4) -0.6802(3)
O3 O -0.1349(3) 0.3734(4) -0.6326(3)
O4 O -0.1996(3) 0.2162(4) -0.5435(3)
H1 H -0.2691 0.2376 -0.5809
O5 O -0.2276(3) 0.0285(3) -0.0083(3)
O6 O -0.0609(4) 0.1504(4) 0.0156(3)
O7 O -0.0045(3) 0.4023(3) -0.0829(3)
O8 O 0.0722(3) 0.2301(4) -0.1421(3)
C1 C 0.0542(5) 0.0888(5) -0.6270(4)
C2 C 0.0914(4) 0.1636(4) -0.5224(4)
C3 C 0.0133(4) 0.2536(5) -0.4981(3)
C4 C -0.1162(4) 0.2863(5) -0.5684(4)
C5 C 0.1630(5) 0.3016(5) -0.3443(4)
H2 H 0.1913 0.3488 -0.2817
C6 C 0.2403(5) 0.2105(5) -0.3671(4)
H3 H 0.3187 0.1964 -0.3192
C7 C -0.1639(4) 0.1092(5) -0.0382(4)
C8 C -0.2140(4) 0.1657(4) -0.1482(3)
C9 C -0.1459(4) 0.2504(4) -0.1894(4)
C10 C -0.0153(4) 0.2973(5) -0.1310(4)
C11 C -0.3067(4) 0.2677(5) -0.3411(4)
H4 H -0.3416 0.3018 -0.4085
C12 C -0.3762(4) 0.1835(5) -0.3012(4)
H5 H -0.4566 0.1621 -0.3422
Ag1A Ag -0.41986(4) -0.03697(4) -0.13617(3)
Ag2A Ag 0.17072(4) 0.50428(5) 0.02036(4)
Ag2C Ag -0.17072(4) 0.49572(5) -0.02036(4)
Ag3B Ag 0.08048(7) -0.00046(5) -0.16493(4)
Ag3_2 Ag -0.08048(7) 0.00046(5) 0.16493(4)
N4A N -0.1691(3) 0.6320(4) -0.2949(3)
O5_2 O -0.2276(3) 0.0285(3) -1.0083(3)
O5A O -0.2724(3) 0.5285(3) -0.4917(3)
O6_2 O -0.0609(4) 0.1504(4) -0.9844(3)
O7A O 0.5045(3) -0.0977(3) -0.4171(3)
O7C O 0.4955(3) 0.0977(3) -0.5829(3)
O8B O -0.0722(3) -0.2301(4) -0.8579(3)
loop_
_geom_bond_atom_site_label_1
_geom_bond_atom_site_label_2
_geom_bond_site_symmetry_1
_geom_bond_site_symmetry_2
Ag1 N1 1_555 1_555
Ag2 N2 1_555 1_555
Ag3 O2 1_555 1_555
N1 C3 1_555 1_555
N2 C2 1_555 1_555
N3 Ag1 1_555 1_555
N4 C8 1_555 1_555
O1 Ag2 1_555 1_555
O2 C1 1_555 1_555
O3 C4 1_555 1_555
O4 H1 1_555 1_555
O5 C7 1_555 1_555
O6 C7 1_555 1_555
O7 C10 1_555 1_555
O8 C10 1_555 1_555
C1 O1 1_555 1_555
C2 C1 1_555 1_555
C3 C2 1_555 1_555
C4 O4 1_555 1_555
C5 N1 1_555 1_555
H2 C5 1_555 1_555
C6 N2 1_555 1_555
H3 C6 1_555 1_555
C7 C8 1_555 1_555
C8 C9 1_555 1_555
C9 N3 1_555 1_555
C10 C9 1_555 1_555
C11 N3 1_555 1_555
H4 C11 1_555 1_555
C12 N4 1_555 1_555
H5 C12 1_555 1_555
Ag1A N4 1_555 1_555
Ag2A O7 1_555 1_555
Ag2C O7 1_555 1_555
Ag3B O8 1_555 1_555
Ag3_2 O5 1_555 1_555
N4A Ag1 1_555 1_555
O5_2 Ag3 1_555 1_555
O5A Ag1 1_555 1_555
O6_2 Ag3 1_555 1_555
O7A Ag2 1_555 1_555
O7C Ag2 1_555 1_555
O8B Ag3 1_555 1_555
O5 Ag1A 1_555 1_555
O6 Ag3_2 1_555 1_555
C3 C4 1_555 1_555
C5 C6 1_555 1_555
C11 C12 1_555 1_555

#END
