
#######################################################################
#
#                 Cambridge Crystallographic Data Centre
#                                CCDC 
#
#######################################################################
#
# If this CIF has been generated from an entry in the Cambridge 
# Structural Database, then it will include bibliographic, chemical, 
# crystal, experimental, refinement or atomic coordinate data resulting 
# from the CCDC's data processing and validation procedures.
#
#######################################################################

data_EHAHAX
_symmetry_cell_setting           triclinic
_symmetry_space_group_name_H-M   'P -1'
_symmetry_Int_Tables_number      2
_space_group_name_Hall           '-P 1'
loop_
_symmetry_equiv_pos_site_id
_symmetry_equiv_pos_as_xyz
1 x,y,z
2 -x,-y,-z
_cell_length_a                   8.7128(10)
_cell_length_b                   17.8408(17)
_cell_length_c                   21.227(2)
_cell_angle_alpha                67.8790(10)
_cell_angle_beta                 79.839(2)
_cell_angle_gamma                84.9620(10)
_cell_volume                     3007.95
loop_
_atom_site_label
_atom_site_type_symbol
_atom_site_fract_x
_atom_site_fract_y
_atom_site_fract_z
C1 C -0.1538(3) -0.14886(18) -0.13517(14)
C2 C -0.2099(3) -0.20065(18) -0.06148(15)
C3 C -0.3682(3) -0.19883(17) -0.03282(15)
C4 C -0.4219(3) -0.24894(18) 0.03454(14)
C5 C -0.3219(3) -0.30240(17) 0.07618(14)
C6 C -0.1640(3) -0.30378(18) 0.04746(15)
C7 C -0.1101(3) -0.25311(17) -0.01986(15)
C8 C -0.3797(3) -0.35757(17) 0.14873(14)
C9 C -0.7111(3) -0.67711(19) 0.34797(15)
C10 C -0.7484(3) -0.71623(18) 0.42552(15)
C11 C -0.8863(3) -0.69864(18) 0.46246(15)
C12 C -0.9209(3) -0.73663(18) 0.53421(15)
C13 C -0.8170(4) -0.79201(17) 0.57205(15)
C14 C -0.6806(3) -0.80864(18) 0.53514(15)
C15 C -0.6460(3) -0.77177(18) 0.46375(14)
C16 C -0.8517(4) -0.83249(18) 0.64926(15)
C17 C -0.7553(4) -0.37717(19) 0.25021(16)
H1 H -0.6596 -0.3538 0.2436
C18 C -0.8886(4) -0.3326(2) 0.25993(17)
H2 H -0.8829 -0.2811 0.2607
C19 C -1.0318(4) -0.3668(2) 0.26853(16)
H3 H -1.1244 -0.3382 0.2741
C20 C -1.0339(3) -0.44429(19) 0.26865(15)
H4 H -1.1280 -0.4691 0.2751
C21 C -0.8943(3) -0.48409(19) 0.25903(15)
H5 H -0.8966 -0.5361 0.2590
C22 C -0.6151(4) -0.6230(2) 0.15766(16)
H6 H -0.5861 -0.6651 0.1958
C23 C -0.6456(4) -0.6402(2) 0.10299(17)
H7 H -0.6386 -0.6934 0.1051
C24 C -0.6860(4) -0.5795(2) 0.04593(18)
H8 H -0.7035 -0.5900 0.0081
C25 C -0.6999(4) -0.5023(2) 0.04630(17)
H9 H -0.7297 -0.4595 0.0088
C26 C -0.6694(3) -0.48888(19) 0.10259(15)
H10 H -0.6797 -0.4364 0.1022
C27 C -0.2438(4) -0.5769(2) 0.16352(18)
H11 H -0.2834 -0.5432 0.1242
C28 C -0.0990(4) -0.61543(19) 0.15619(17)
H12 H -0.0425 -0.6065 0.1126
C29 C -0.0412(4) -0.6664(2) 0.21347(18)
H13 H 0.0539 -0.6937 0.2096
C30 C -0.1262(4) -0.67673(19) 0.27703(17)
H14 H -0.0892 -0.7110 0.3169
C31 C -0.2673(4) -0.63557(19) 0.28104(17)
H15 H -0.3228 -0.6422 0.3244
C32 C -0.2697(4) 0.12233(19) -0.28161(16)
H16 H -0.2169 0.1247 -0.3244
C33 C -0.4071(4) 0.1660(2) -0.27887(17)
H17 H -0.4449 0.1976 -0.3193
C34 C -0.4885(4) 0.1629(2) -0.21637(18)
H18 H -0.5814 0.1922 -0.2136
C35 C -0.4284(4) 0.1149(2) -0.15788(17)
H19 H -0.4799 0.1114 -0.1146
C36 C -0.2892(4) 0.07189(19) -0.16457(17)
H20 H -0.2511 0.0384 -0.1248
C37 C 0.3631(3) -0.02126(19) -0.25729(16)
H21 H 0.3614 0.0322 -0.2603
C38 C 0.5052(4) -0.0575(2) -0.26836(16)
H22 H 0.5969 -0.0295 -0.2779
C39 C 0.5095(4) -0.1363(2) -0.26506(17)
H23 H 0.6036 -0.1625 -0.2731
C40 C 0.3697(4) -0.1749(2) -0.24942(16)
H24 H 0.3687 -0.2285 -0.2459
C41 C 0.2324(4) -0.1345(2) -0.23905(16)
H25 H 0.1393 -0.1613 -0.2292
C42 C 0.1498(4) -0.0078(2) -0.10575(15)
H26 H 0.1643 -0.0605 -0.1046
C43 C 0.1872(4) 0.0086(2) -0.05154(17)
H27 H 0.2262 -0.0320 -0.0151
C44 C 0.1649(4) 0.0867(2) -0.05297(17)
H28 H 0.1861 0.0997 -0.0169
C45 C 0.1105(4) 0.1455(2) -0.10910(18)
H29 H 0.0961 0.1989 -0.1119
C46 C 0.0782(4) 0.12326(19) -0.16059(18)
H30 H 0.0433 0.1632 -0.1985
Cl1 Cl 0.08649(8) -0.25458(5) -0.05327(4)
Cl2 Cl -0.03800(9) -0.37059(5) 0.09719(4)
Cl3 Cl -0.49453(9) -0.13375(5) -0.08360(4)
Cl4 Cl -0.61785(8) -0.24788(5) 0.06803(4)
Cl5 Cl -1.01658(10) -0.62779(5) 0.41810(4)
Cl6 Cl -1.09346(10) -0.71224(5) 0.57784(4)
Cl7 Cl -0.47342(9) -0.79653(5) 0.42020(4)
Cl8 Cl -0.54340(9) -0.87358(5) 0.58018(4)
Co1 Co -0.54357(4) -0.52062(2) 0.23727(2)
Co2 Co 0.01039(4) 0.01012(2) -0.234210(19)
N1 N -0.7549(3) -0.45147(16) 0.24963(12)
N2 N -0.6257(3) -0.54802(15) 0.15768(13)
N3 N -0.3281(3) -0.58671(17) 0.22562(14)
N4 N -0.2082(3) 0.07630(15) -0.22504(13)
N5 N 0.2269(3) -0.05772(16) -0.24246(13)
N6 N 0.0941(3) 0.04765(14) -0.15944(13)
O1 O -0.3637(2) -0.33500(12) 0.19639(10)
O2 O -0.4411(3) -0.41984(13) 0.15312(11)
O3 O -0.0875(3) -0.08497(13) -0.14355(11)
O4 O -0.1750(2) -0.17433(12) -0.17965(10)
O5 O -0.8138(3) -0.79699(14) 0.68327(11)
O6 O -0.9137(2) -0.90141(13) 0.67153(10)
O7 O -0.6311(2) -0.61472(12) 0.32531(10)
O8 O -0.7627(3) -0.70991(14) 0.31466(11)
O9 O -0.4392(2) -0.48132(12) 0.30226(11)
H41 H -0.4941 -0.4841 0.3403
H42 H -0.4118 -0.4329 0.2791
O10 O -0.0886(2) -0.04343(12) -0.29244(10)
H43 H -0.1266 -0.0861 -0.2607
H44 H -0.0190 -0.0561 -0.3205
Co2_2 Co -0.98961(4) -0.98988(2) 0.765790(19)
O6_2 O 0.0863(2) 0.09859(13) -0.32847(10)
C47 C -0.0508(4) -0.8833(2) 0.43452(18)
H31 H 0.0237 -0.8437 0.4121
H32 H -0.0597 -0.8745 0.5266
C48 C -0.0996(4) -0.9018(2) 0.50350(17)
C49 C -0.2092(4) -0.9606(2) 0.53715(17)
H33 H -0.2414 -0.9769 0.5844
C50 C -0.2682(4) -0.99376(19) 0.49930(16)
H34 H -0.3462 -1.0317 0.5200
C51 C -0.2139(4) -0.9717(2) 0.43077(18)
H35 H -0.2566 -0.9955 0.4058
N7 N -0.1037(3) -0.91844(17) 0.39802(14)
C52 C -0.5036(4) -0.5874(2) 0.47055(18)
H36 H -0.4067 -0.5985 0.4490
C53 C -0.5490(4) -0.6361(2) 0.53794(17)
H37 H -0.4869 -0.6795 0.5608
C54 C -0.6840(4) -0.6187(2) 0.56874(17)
H38 H -0.7173 -0.6501 0.6146
C55 C -0.7749(4) -0.5570(2) 0.53591(19)
H39 H -0.8699 -0.5442 0.5579
C56 C -0.7196(4) -0.5128(2) 0.46666(17)
H40 H -0.7816 -0.4706 0.4420
N8 N -0.5839(3) -0.52812(16) 0.43500(14)
loop_
_geom_bond_atom_site_label_1
_geom_bond_atom_site_label_2
_geom_bond_site_symmetry_1
_geom_bond_site_symmetry_2
C1 C2 1_555 1_555
C2 C3 1_555 1_555
C3 C4 1_555 1_555
C4 C5 1_555 1_555
C5 C6 1_555 1_555
C6 C7 1_555 1_555
C7 C2 1_555 1_555
C8 C5 1_555 1_555
C9 C10 1_555 1_555
C10 C11 1_555 1_555
C11 C12 1_555 1_555
C12 C13 1_555 1_555
C13 C14 1_555 1_555
C14 C15 1_555 1_555
C15 C10 1_555 1_555
C16 C13 1_555 1_555
C17 H1 1_555 1_555
C18 C17 1_555 1_555
H2 C18 1_555 1_555
C19 C18 1_555 1_555
H3 C19 1_555 1_555
C20 C19 1_555 1_555
H4 C20 1_555 1_555
C21 C20 1_555 1_555
H5 C21 1_555 1_555
C22 H6 1_555 1_555
C23 C22 1_555 1_555
H7 C23 1_555 1_555
C24 C23 1_555 1_555
H8 C24 1_555 1_555
C25 C24 1_555 1_555
H9 C25 1_555 1_555
C26 C25 1_555 1_555
H10 C26 1_555 1_555
C27 H11 1_555 1_555
C28 C27 1_555 1_555
H12 C28 1_555 1_555
C29 C28 1_555 1_555
H13 C29 1_555 1_555
C30 C29 1_555 1_555
H14 C30 1_555 1_555
C31 C30 1_555 1_555
H15 C31 1_555 1_555
C32 H16 1_555 1_555
C33 C32 1_555 1_555
H17 C33 1_555 1_555
C34 C33 1_555 1_555
H18 C34 1_555 1_555
C35 C34 1_555 1_555
H19 C35 1_555 1_555
C36 C35 1_555 1_555
H20 C36 1_555 1_555
C37 H21 1_555 1_555
C38 C37 1_555 1_555
H22 C38 1_555 1_555
C39 C38 1_555 1_555
H23 C39 1_555 1_555
C40 C39 1_555 1_555
H24 C40 1_555 1_555
C41 C40 1_555 1_555
H25 C41 1_555 1_555
C42 H26 1_555 1_555
C43 C42 1_555 1_555
H27 C43 1_555 1_555
C44 C43 1_555 1_555
H28 C44 1_555 1_555
C45 C44 1_555 1_555
H29 C45 1_555 1_555
C46 C45 1_555 1_555
H30 C46 1_555 1_555
C47 H31 1_555 1_555
H32 C48 1_555 1_555
C48 C47 1_555 1_555
C49 C48 1_555 1_555
H33 C49 1_555 1_555
C50 C49 1_555 1_555
H34 C50 1_555 1_555
C51 C50 1_555 1_555
H35 C51 1_555 1_555
C52 H36 1_555 1_555
C53 C52 1_555 1_555
H37 C53 1_555 1_555
C54 C53 1_555 1_555
H38 C54 1_555 1_555
C55 C54 1_555 1_555
H39 C55 1_555 1_555
C56 C55 1_555 1_555
H40 C56 1_555 1_555
Cl1 C7 1_555 1_555
Cl2 C6 1_555 1_555
Cl3 C3 1_555 1_555
Cl4 C4 1_555 1_555
Cl5 C11 1_555 1_555
Cl6 C12 1_555 1_555
Cl7 C15 1_555 1_555
Cl8 C14 1_555 1_555
Co1 N1 1_555 1_555
Co2 N4 1_555 1_555
N1 C17 1_555 1_555
N2 C22 1_555 1_555
N3 C27 1_555 1_555
N4 C32 1_555 1_555
N5 C37 1_555 1_555
N6 C42 1_555 1_555
N7 C47 1_555 1_555
N8 C52 1_555 1_555
O1 C8 1_555 1_555
O2 C8 1_555 1_555
O3 C1 1_555 1_555
O4 C1 1_555 1_555
O5 C16 1_555 1_555
O6 C16 1_555 1_555
O7 C9 1_555 1_555
O8 C9 1_555 1_555
O9 Co1 1_555 1_555
H41 O9 1_555 1_555
H42 O9 1_555 1_555
O10 Co2 1_555 1_555
H43 O10 1_555 1_555
H44 O10 1_555 1_555
Co2_2 O6 1_555 1_555
O6_2 Co2 1_555 1_555
C21 N1 1_555 1_555
C26 N2 1_555 1_555
C31 N3 1_555 1_555
C36 N4 1_555 1_555
C41 N5 1_555 1_555
C46 N6 1_555 1_555
C51 N7 1_555 1_555
C56 N8 1_555 1_555
Co1 N2 1_555 1_555
Co1 N3 1_555 1_555
Co1 O2 1_555 1_555
Co1 O7 1_555 1_555
Co2 N5 1_555 1_555
Co2 N6 1_555 1_555
Co2 O3 1_555 1_555

#END
