
#######################################################################
#
#                 Cambridge Crystallographic Data Centre
#                                CCDC 
#
#######################################################################
#
# If this CIF has been generated from an entry in the Cambridge 
# Structural Database, then it will include bibliographic, chemical, 
# crystal, experimental, refinement or atomic coordinate data resulting 
# from the CCDC's data processing and validation procedures.
#
#######################################################################

data_EHAHEB
_symmetry_cell_setting           orthorhombic
_symmetry_space_group_name_H-M   'P c c a'
_symmetry_Int_Tables_number      54
_space_group_name_Hall           '-P 2a 2ac'
loop_
_symmetry_equiv_pos_site_id
_symmetry_equiv_pos_as_xyz
1 x,y,z
2 1/2-x,-y,z
3 -x,y,1/2-z
4 1/2+x,-y,1/2-z
5 -x,-y,-z
6 1/2+x,y,-z
7 x,-y,1/2+z
8 1/2-x,y,1/2+z
_cell_length_a                   21.4257(19)
_cell_length_b                   8.6567(8)
_cell_length_c                   33.537(3)
_cell_angle_alpha                90
_cell_angle_beta                 90
_cell_angle_gamma                90
_cell_volume                     6220.3
loop_
_atom_site_label
_atom_site_type_symbol
_atom_site_fract_x
_atom_site_fract_y
_atom_site_fract_z
C1 C 0.63102(12) 0.6993(3) 0.13145(8)
C2 C 0.56117(12) 0.7107(3) 0.12591(7)
C3 C 0.52189(12) 0.7346(3) 0.15828(8)
C4 C 0.45812(12) 0.7532(3) 0.15319(7)
C5 C 0.43093(12) 0.7521(3) 0.11557(8)
C6 C 0.47023(12) 0.7270(3) 0.08318(7)
C7 C 0.53431(12) 0.7054(3) 0.08827(7)
C8 C 0.36151(12) 0.7757(3) 0.11034(8)
C9 C 0.71463(12) 0.4034(3) 0.04717(8)
H1 H 0.6892 0.3346 0.0610
C10 C 0.71399(13) 0.4005(3) 0.00584(8)
H2 H 0.6888 0.3300 -0.0075
C11 C 0.7500 0.5000 -0.01501(12)
H3 H 0.7500 0.5000 -0.0427
C12 C 0.69701(13) 0.4854(3) 0.21836(8)
H4 H 0.6597 0.4730 0.2046
C13 C 0.69560(13) 0.4881(3) 0.25938(8)
H5 H 0.6576 0.4819 0.2727
C14 C 0.7500 0.5000 0.28065(12)
H6 H 0.7500 0.5000 0.3084
C15 C 0.29491(13) 1.0678(3) 0.18747(8)
H7 H 0.3271 1.1151 0.1734
C16 C 0.29575(13) 1.0711(3) 0.22906(8)
H8 H 0.3278 1.1221 0.2424
C17 C 0.2500 1.0000 0.25012(11)
H9 H 0.2500 1.0000 0.2779
C18 C 0.30259(13) 1.0242(3) 0.01827(8)
H10 H 0.3396 1.0407 0.0321
C19 C 0.30376(13) 1.0253(3) -0.02284(8)
H11 H 0.3410 1.0433 -0.0363
C20 C 0.2500 1.0000 -0.04379(12)
H12 H 0.2500 1.0000 -0.0715
Cl1 Cl 0.55413(3) 0.74018(7) 0.205766(18)
Cl2 Cl 0.40961(3) 0.77913(7) 0.193944(18)
Cl3 Cl 0.58195(3) 0.67111(7) 0.047696(18)
Cl4 Cl 0.43824(3) 0.72156(7) 0.036001(18)
Co1 Co 0.2500 1.0000 0.103012(14)
Co2 Co 0.7500 0.5000 0.132603(15)
N1 N 0.7500 0.5000 0.06784(9)
N2 N 0.7500 0.5000 0.19752(9)
N3 N 0.2500 1.0000 0.16773(9)
N4 N 0.2500 1.0000 0.03903(9)
O1 O 0.65428(8) 0.56641(18) 0.13157(5)
O2 O 0.65952(8) 0.82454(18) 0.13507(5)
O3 O 0.32825(8) 0.65701(19) 0.11257(5)
O4 O 0.34350(8) 0.91098(18) 0.10431(5)
O5 O 0.72222(9) 0.26689(17) 0.13148(5)
H21 H 0.6875 0.2555 0.1434
H22 H 0.7509 0.2176 0.1435
O6 O 0.28590(8) 1.22506(17) 0.09998(5)
H23 H 0.2928 1.2522 0.1239
H24 H 0.2679 1.3015 0.0889
C1A C -0.13102(12) 1.3007(3) 0.13145(8)
C2A C -0.06117(12) 1.2893(3) 0.12591(7)
C3A C -0.02189(12) 1.2654(3) 0.15828(8)
C4A C 0.04188(12) 1.2468(3) 0.15319(7)
C5A C 0.06907(12) 1.2479(3) 0.11557(8)
C6A C 0.02977(12) 1.2730(3) 0.08318(7)
C7A C -0.03431(12) 1.2946(3) 0.08827(7)
C8A C 0.13849(12) 1.2243(3) 0.11034(8)
C9A C 0.78537(12) 0.5966(3) 0.04717(8)
H1A H 0.8108 0.6654 0.0610
C10A C 0.78601(13) 0.5995(3) 0.00584(8)
H2A H 0.8112 0.6700 -0.0075
C12A C 0.80299(13) 0.5146(3) 0.21836(8)
H4A H 0.8403 0.5270 0.2046
C13A C 0.80440(13) 0.5119(3) 0.25938(8)
H5A H 0.8424 0.5181 0.2727
C15A C 0.20509(13) 0.9322(3) 0.18747(8)
H7A H 0.1729 0.8849 0.1734
C16A C 0.20425(13) 0.9289(3) 0.22906(8)
H8A H 0.1722 0.8779 0.2424
C18A C 0.19741(13) 0.9758(3) 0.01827(8)
H10A H 0.1604 0.9593 0.0321
C19A C 0.19624(13) 0.9747(3) -0.02284(8)
H11A H 0.1590 0.9567 -0.0363
Cl1A Cl -0.05413(3) 1.25982(7) 0.205766(18)
Cl2A Cl 0.09039(3) 1.22087(7) 0.193944(18)
Cl3A Cl -0.08195(3) 1.32889(7) 0.047696(18)
Cl4A Cl 0.06176(3) 1.27844(7) 0.036001(18)
Co2_2 Co -0.2500 1.5000 0.132603(15)
O1A O -0.15428(8) 1.43359(18) 0.13157(5)
O1A_2 O 0.84572(8) 0.43359(18) 0.13157(5)
O2A O -0.15952(8) 1.17546(18) 0.13507(5)
O3A O 0.17175(8) 1.34299(19) 0.11257(5)
O4A O 0.15650(8) 1.08902(18) 0.10431(5)
O5A O 0.77778(9) 0.73311(17) 0.13148(5)
H21A H 0.8125 0.7445 0.1434
H22A H 0.7491 0.7824 0.1435
O6A O 0.21410(8) 0.77494(17) 0.09998(5)
H23A H 0.2072 0.7478 0.1239
H24A H 0.2321 0.6985 0.0889
C21 C 0.47215(12) 0.1269(3) 0.04907(8)
H13 H 0.4460 0.0681 0.0672
H14 H 0.4592 0.1035 0.0220
C22 C 0.46389(12) 0.2956(3) 0.05690(8)
H15 H 0.4878 0.3546 0.0376
H16 H 0.4202 0.3230 0.0539
C23 C 0.54786(13) 0.2896(3) 0.10159(8)
H17 H 0.5611 0.3124 0.1286
H18 H 0.5740 0.3483 0.0834
C24 C 0.55548(14) 0.1196(3) 0.09346(8)
H19 H 0.5990 0.0910 0.0966
H20 H 0.5312 0.0609 0.1126
O7 O 0.48434(9) 0.3339(2) 0.09657(6)
O8 O 0.53549(8) 0.08335(19) 0.05435(5)
O9 O 0.37596(8) 0.36886(18) 0.13815(5)
H25 H 0.3787 0.4613 0.1298
H26 H 0.4103 0.3221 0.1343
O10 O 0.65448(9) 0.02484(19) 0.18134(5)
H27 H 0.6467 -0.0501 0.1969
H28 H 0.6863 0.0035 0.1673
O11 O 0.55676(9) 0.20707(19) 0.23599(5)
H29 H 0.5871 0.1751 0.2219
H30 H 0.5268 0.2332 0.2208
loop_
_geom_bond_atom_site_label_1
_geom_bond_atom_site_label_2
_geom_bond_site_symmetry_1
_geom_bond_site_symmetry_2
C1 C2 1_555 1_555
C2 C3 1_555 1_555
C3 C4 1_555 1_555
C4 C5 1_555 1_555
C5 C6 1_555 1_555
C6 C7 1_555 1_555
C7 C2 1_555 1_555
C8 C5 1_555 1_555
C9 H1 1_555 1_555
C10 C9 1_555 1_555
H2 C10 1_555 1_555
C11 C10 1_555 1_555
H3 C11 1_555 1_555
C12 H4 1_555 1_555
C13 C12 1_555 1_555
H5 C13 1_555 1_555
C14 C13 1_555 1_555
H6 C14 1_555 1_555
C15 H7 1_555 1_555
C16 C15 1_555 1_555
H8 C16 1_555 1_555
C17 C16 1_555 1_555
H9 C17 1_555 1_555
C18 H10 1_555 1_555
C19 C18 1_555 1_555
H11 C19 1_555 1_555
C20 C19 1_555 1_555
H12 C20 1_555 1_555
C21 H13 1_555 1_555
H14 C21 1_555 1_555
C22 C21 1_555 1_555
H15 C22 1_555 1_555
H16 C22 1_555 1_555
C23 H17 1_555 1_555
H18 C23 1_555 1_555
C24 C23 1_555 1_555
H19 C24 1_555 1_555
H20 C24 1_555 1_555
Cl1 C3 1_555 1_555
Cl2 C4 1_555 1_555
Cl3 C7 1_555 1_555
Cl4 C6 1_555 1_555
Co1 N3 1_555 1_555
Co2 N1 1_555 1_555
N1 C9 1_555 1_555
N2 C12 1_555 1_555
N3 C15 1_555 1_555
N4 C18 1_555 1_555
O1 C1 1_555 1_555
O2 C1 1_555 1_555
O3 C8 1_555 1_555
O4 C8 1_555 1_555
O5 Co2 1_555 1_555
H21 O5 1_555 1_555
H22 O5 1_555 1_555
O6 Co1 1_555 1_555
H23 O6 1_555 1_555
H24 O6 1_555 1_555
O7 C22 1_555 1_555
O8 C21 1_555 1_555
O9 H25 1_555 1_555
H26 O9 1_555 1_555
O10 H27 1_555 1_555
H28 O10 1_555 1_555
O11 H29 1_555 1_555
H30 O11 1_555 1_555
C1A C2A 1_555 1_555
C2A C3A 1_555 1_555
C3A C4A 1_555 1_555
C4A C5A 1_555 1_555
C5A C6A 1_555 1_555
C6A C7A 1_555 1_555
C7A C2A 1_555 1_555
C8A C5A 1_555 1_555
C9A N1 1_555 1_555
H1A C9A 1_555 1_555
C10A C11 1_555 1_555
H2A C10A 1_555 1_555
C12A N2 1_555 1_555
H4A C12A 1_555 1_555
C13A C14 1_555 1_555
H5A C13A 1_555 1_555
C15A N3 1_555 1_555
H7A C15A 1_555 1_555
C16A C17 1_555 1_555
H8A C16A 1_555 1_555
C18A N4 1_555 1_555
H10A C18A 1_555 1_555
C19A C20 1_555 1_555
H11A C19A 1_555 1_555
Cl1A C3A 1_555 1_555
Cl2A C4A 1_555 1_555
Cl3A C7A 1_555 1_555
Cl4A C6A 1_555 1_555
Co2_2 O1A 1_555 1_555
O1A C1A 1_555 1_555
O1A_2 Co2 1_555 1_555
O2A C1A 1_555 1_555
O3A C8A 1_555 1_555
O4A Co1 1_555 1_555
O5A Co2 1_555 1_555
H21A O5A 1_555 1_555
H22A O5A 1_555 1_555
O6A Co1 1_555 1_555
H23A O6A 1_555 1_555
H24A O6A 1_555 1_555
C23 O7 1_555 1_555
C24 O8 1_555 1_555
Co1 N4 1_555 1_555
Co1 O4 1_555 1_555
Co2 N2 1_555 1_555
Co2 O1 1_555 1_555
C8A O4A 1_555 1_555
C9A C10A 1_555 1_555
C12A C13A 1_555 1_555
C15A C16A 1_555 1_555
C18A C19A 1_555 1_555

#END
