
#######################################################################
#
#                 Cambridge Crystallographic Data Centre
#                                CCDC 
#
#######################################################################
#
# If this CIF has been generated from an entry in the Cambridge 
# Structural Database, then it will include bibliographic, chemical, 
# crystal, experimental, refinement or atomic coordinate data resulting 
# from the CCDC's data processing and validation procedures.
#
#######################################################################

data_EHAJED
_symmetry_cell_setting           monoclinic
_symmetry_space_group_name_H-M   'P 21/c'
_symmetry_Int_Tables_number      14
_space_group_name_Hall           '-P 2ybc'
loop_
_symmetry_equiv_pos_site_id
_symmetry_equiv_pos_as_xyz
1 x,y,z
2 -x,1/2+y,1/2-z
3 -x,-y,-z
4 x,1/2-y,1/2+z
_cell_length_a                   9.468(4)
_cell_length_b                   12.339(5)
_cell_length_c                   17.817(8)
_cell_angle_alpha                90
_cell_angle_beta                 97.864(6)
_cell_angle_gamma                90
_cell_volume                     2061.91
loop_
_atom_site_label
_atom_site_type_symbol
_atom_site_fract_x
_atom_site_fract_y
_atom_site_fract_z
C1 C 0.1390(3) -0.0285(3) -0.19254(18)
H1 H 0.1430 -0.0409 -0.2437
C2 C 0.0739(3) 0.0297(3) -0.08915(18)
H2 H 0.0242 0.0659 -0.0552
C3 C 0.1876(4) -0.0359(3) -0.06998(18)
H3 H 0.2296 -0.0531 -0.0212
C4 C 0.3434(3) -0.1493(3) -0.1450(2)
H4 H 0.3342 -0.1729 -0.1974
H5 H 0.3329 -0.2126 -0.1139
C5 C 0.4916(3) -0.1011(3) -0.12262(19)
H6 H 0.5030 -0.0793 -0.0698
H7 H 0.5030 -0.0375 -0.1531
C6 C 0.6052(3) -0.1858(3) -0.13477(19)
H8 H 0.5865 -0.2520 -0.1085
H9 H 0.5984 -0.2023 -0.1884
C7 C 0.7524(4) -0.1480(3) -0.1069(2)
H10 H 0.7703 -0.0812 -0.1327
H11 H 0.7592 -0.1322 -0.0532
C8 C 0.9233(4) -0.3027(3) -0.0684(2)
H12 H 0.9038 -0.3130 -0.0192
C9 C 0.9195(3) -0.2421(3) -0.18244(19)
H13 H 0.8949 -0.2015 -0.2263
C10 C 1.0164(4) -0.3586(3) -0.10370(19)
H14 H 1.0737 -0.4148 -0.0822
C11 C -0.7527(3) -0.2689(3) -0.37430(18)
C12 C -0.6999(4) -0.2029(3) -0.43664(18)
H15 H -0.7580 -0.2244 -0.4841
C13 C -0.5454(4) -0.2315(3) -0.4449(2)
H16 H -0.5347 -0.3096 -0.4443
H17 H -0.5241 -0.2053 -0.4935
C14 C -0.4403(4) -0.1828(3) -0.3824(2)
H18 H -0.3439 -0.2012 -0.3906
H19 H -0.4565 -0.2128 -0.3340
C15 C -0.4566(4) -0.0599(3) -0.38090(19)
H20 H -0.4447 -0.0343 -0.4317
C16 C -0.3455(3) -0.0007(3) -0.32619(19)
C17 C -0.6080(4) -0.0311(3) -0.3693(2)
H21 H -0.6191 0.0470 -0.3709
H22 H -0.6251 -0.0558 -0.3196
C18 C -0.7180(4) -0.0820(3) -0.4294(2)
H23 H -0.8126 -0.0672 -0.4168
H24 H -0.7108 -0.0483 -0.4779
N1 N 0.0436(3) 0.0345(2) -0.16641(14)
N2 N 0.2285(3) -0.0718(2) -0.13624(14)
N3 N 0.8632(3) -0.2279(2) -0.11896(15)
N4 N 1.0147(3) -0.3208(2) -0.17587(15)
O1 O -0.8117(2) -0.22312(18) -0.32333(13)
O2 O -0.7399(3) -0.36998(19) -0.37639(16)
O4 O -0.2411(3) -0.0499(2) -0.29178(14)
O5 O -0.3583(3) 0.0981(2) -0.31789(19)
Cd1 Cd -0.14587(2) 0.114710(17) -0.236210(12)
N4A N -0.0147(3) 0.1792(2) -0.32413(15)
O1A O -0.1883(2) 0.27688(18) -0.17667(13)
O2A O -0.2601(3) 0.13002(19) -0.12361(16)
Cd1A Cd 1.14587(2) -0.385290(17) -0.263790(12)
Cd1A_2 Cd -0.85413(2) -0.385290(17) -0.263790(12)
O3 O 0.0816(5) 0.3499(5) -0.1063(2)
H25 H 0.119(7) 0.375(6) -0.142(3)
H26 H 0.003(4) 0.324(6) -0.125(3)
loop_
_geom_bond_atom_site_label_1
_geom_bond_atom_site_label_2
_geom_bond_site_symmetry_1
_geom_bond_site_symmetry_2
C1 H1 1_555 1_555
C2 H2 1_555 1_555
C3 C2 1_555 1_555
H3 C3 1_555 1_555
C4 H4 1_555 1_555
H5 C4 1_555 1_555
C5 C4 1_555 1_555
H6 C5 1_555 1_555
H7 C5 1_555 1_555
C6 C5 1_555 1_555
H8 C6 1_555 1_555
H9 C6 1_555 1_555
C7 C6 1_555 1_555
H10 C7 1_555 1_555
H11 C7 1_555 1_555
C8 H12 1_555 1_555
C9 H13 1_555 1_555
C10 C8 1_555 1_555
H14 C10 1_555 1_555
C11 C12 1_555 1_555
C12 H15 1_555 1_555
C13 C12 1_555 1_555
H16 C13 1_555 1_555
H17 C13 1_555 1_555
C14 C13 1_555 1_555
H18 C14 1_555 1_555
H19 C14 1_555 1_555
C15 C14 1_555 1_555
H20 C15 1_555 1_555
C16 C15 1_555 1_555
C17 C15 1_555 1_555
H21 C17 1_555 1_555
H22 C17 1_555 1_555
C18 C12 1_555 1_555
H23 C18 1_555 1_555
H24 C18 1_555 1_555
N1 C1 1_555 1_555
N2 C1 1_555 1_555
N3 C7 1_555 1_555
N4 C9 1_555 1_555
O1 C11 1_555 1_555
O2 C11 1_555 1_555
O3 H25 1_555 1_555
H26 O3 1_555 1_555
O4 C16 1_555 1_555
O5 C16 1_555 1_555
Cd1 N1 1_555 1_555
N4A Cd1 1_555 1_555
O1A Cd1 1_555 1_555
O2A Cd1 1_555 1_555
Cd1A N4 1_555 1_555
Cd1A_2 O1 1_555 1_555
C2 N1 1_555 1_555
C3 N2 1_555 1_555
C4 N2 1_555 1_555
C8 N3 1_555 1_555
C9 N3 1_555 1_555
C10 N4 1_555 1_555
C17 C18 1_555 1_555
O2 Cd1A_2 1_555 1_555
O4 Cd1 1_555 1_555
O5 Cd1 1_555 1_555

#END
