
#######################################################################
#
#                 Cambridge Crystallographic Data Centre
#                                CCDC 
#
#######################################################################
#
# If this CIF has been generated from an entry in the Cambridge 
# Structural Database, then it will include bibliographic, chemical, 
# crystal, experimental, refinement or atomic coordinate data resulting 
# from the CCDC's data processing and validation procedures.
#
#######################################################################

data_EHALOP
_symmetry_cell_setting           orthorhombic
_symmetry_space_group_name_H-M   'I m m a'
_symmetry_Int_Tables_number      74
_space_group_name_Hall           '-I 2b 2'
loop_
_symmetry_equiv_pos_site_id
_symmetry_equiv_pos_as_xyz
1 x,y,z
2 1/2+x,1/2+y,1/2+z
3 x,-y,-z
4 -x,1/2+y,-z
5 -x,1/2-y,z
6 1/2+x,1/2-y,1/2-z
7 1/2-x,y,1/2-z
8 1/2-x,-y,1/2+z
9 -x,-y,-z
10 1/2-x,1/2-y,1/2-z
11 -x,y,z
12 x,1/2-y,z
13 x,1/2+y,-z
14 1/2-x,1/2+y,1/2+z
15 1/2+x,-y,1/2+z
16 1/2+x,y,1/2-z
_cell_length_a                   6.63098(22)
_cell_length_b                   15.9473(7)
_cell_length_c                   13.9205(6)
_cell_angle_alpha                90
_cell_angle_beta                 90
_cell_angle_gamma                90
_cell_volume                     1472.04
loop_
_atom_site_label
_atom_site_type_symbol
_atom_site_fract_x
_atom_site_fract_y
_atom_site_fract_z
C1 C -0.02369(13) 0.2541(4) 0.32261(19)
C2 C -0.2701(6) 0.34577(13) 0.3878(4)
C3 C -0.1211(7) 0.32987(27) 0.32214(19)
C4 C -0.0754(6) 0.19423(13) 0.3888(4)
C5 C -0.32179(13) 0.2859(4) 0.45396(19)
C6 C -0.2244(7) 0.28988(27) 0.45443(19)
C8 C -0.2810(15) 0.3554(6) 0.5269(4)
C1J C 0.02369(13) 0.2541(4) 0.32261(19)
C1K C -0.02369(13) 0.2459(4) 0.32261(19)
C1D C 0.02369(13) 0.2459(4) 0.32261(19)
C2K C -0.2701(6) 0.15423(13) 0.3878(4)
C3J C 0.1211(7) 0.32987(27) 0.32214(19)
C3K C -0.1211(7) 0.17013(27) 0.32214(19)
C3D C 0.1211(7) 0.17013(27) 0.32214(19)
C4J C 0.0754(6) 0.19423(13) 0.3888(4)
C4K C -0.0754(6) 0.30577(13) 0.3888(4)
C4D C 0.0754(6) 0.30577(13) 0.3888(4)
C5K C -0.32179(13) 0.2141(4) 0.45396(19)
C6K C -0.2244(7) 0.21012(27) 0.45443(19)
Al1 Al 0.25000 0.25000 0.75000
O1 O 0.00000 0.25000 0.6888(4)
C9 C 0.00000 0.43333(4) 0.937940(64)
C10 C 0.178920 0.46666(2) 0.968970(32)
C11 C -0.178920 0.46666(2) 0.968970(32)
C13 C 0.00000 0.36033(9) 0.86999(13)
O2 O 0.169780 0.32869(12) 0.84054(16)
Al1J Al -0.25000 0.25000 0.75000
Al1L Al 0.25000 0.75000 1.25000
Al1A Al -0.25000 0.75000 1.25000
O1O O 0.50000 0.25000 0.8112(4)
C9H C 0.00000 0.56667(4) 1.062060(64)
C10B C 0.178920 0.53334(2) 1.031030(32)
C11B C -0.178920 0.53334(2) 1.031030(32)
C13H C 0.00000 0.63967(9) 1.13001(13)
O2F O 0.330220 0.32869(12) 0.65946(16)
O2K O 0.169780 0.17131(12) 0.84054(16)
O2I O 0.330220 0.17131(12) 0.65946(16)
O2J O -0.169780 0.32869(12) 0.84054(16)
O2H O -0.169780 0.67131(12) 1.15946(16)
O2B O 0.169780 0.67131(12) 1.15946(16)
C7? C -0.48498(28) 0.3033(8) 0.5259(4)
C12? C 0.00000 0.06667(4) -0.062063(64)
C14? C 0.00000 0.13967(9) -0.13001(13)
C15? C 0.169780 0.17131(12) -0.15946(16)
loop_
_geom_bond_atom_site_label_1
_geom_bond_atom_site_label_2
_geom_bond_site_symmetry_1
_geom_bond_site_symmetry_2
Al1 O1 1_555 1_555
O1 Al1J 1_555 1_555
C1 C3 1_555 1_555
C2 C3 1_555 1_555
C3 C1J 1_555 1_555
C4 C1 1_555 1_555
C5 C2 1_555 1_555
C6 C2 1_555 1_555
C8 C5 1_555 1_555
C9 C10 1_555 1_555
C10 C10B 1_555 1_555
C11 C9 1_555 1_555
C13 C9 1_555 1_555
O2 Al1 1_555 1_555
Al1J O2J 1_555 1_555
Al1L O2B 1_555 1_555
Al1A O2H 1_555 1_555
O1O Al1 1_555 1_555
C1J C1 1_555 1_555
C1K C1 1_555 1_555
C1D C1 1_555 1_555
C2K C4 1_555 1_555
C3J C1 1_555 1_555
C3K C1 1_555 1_555
C3D C1 1_555 1_555
C4J C1 1_555 1_555
C4K C1 1_555 1_555
C4D C1 1_555 1_555
C5K C5 1_555 1_555
C6K C4 1_555 1_555
C9H C10B 1_555 1_555
C11B C11 1_555 1_555
C13H C9H 1_555 1_555
O2F Al1 1_555 1_555
O2K Al1 1_555 1_555
O2I Al1 1_555 1_555
O2J C13 1_555 1_555
O2H C13H 1_555 1_555
O2B C13H 1_555 1_555
C2 C4K 1_555 1_555
C3 C1K 1_555 1_555
C3 C1D 1_555 1_555
C3 C3J 1_555 1_555
C3 C4K 1_555 1_555
C3 C4D 1_555 1_555
C4 C1J 1_555 1_555
C4 C1K 1_555 1_555
C4 C1D 1_555 1_555
C4 C3K 1_555 1_555
C4 C3D 1_555 1_555
C4 C4J 1_555 1_555
C5 C6 1_555 1_555
C5 C6K 1_555 1_555
C6 C8 1_555 1_555
C6 C4K 1_555 1_555
C6 C5K 1_555 1_555
C6 C6K 1_555 1_555
C13 O2 1_555 1_555
C1J C1K 1_555 1_555
C1J C1D 1_555 1_555
C1J C3J 1_555 1_555
C1J C3K 1_555 1_555
C1J C3D 1_555 1_555
C1J C4J 1_555 1_555
C1J C4K 1_555 1_555
C1J C4D 1_555 1_555
C1K C1D 1_555 1_555
C1K C3J 1_555 1_555
C1K C3K 1_555 1_555
C1K C3D 1_555 1_555
C1K C4J 1_555 1_555
C1K C4K 1_555 1_555
C1K C4D 1_555 1_555
C1D C3J 1_555 1_555
C1D C3K 1_555 1_555
C1D C3D 1_555 1_555
C1D C4J 1_555 1_555
C1D C4K 1_555 1_555
C1D C4D 1_555 1_555
C2K C3K 1_555 1_555
C2K C5K 1_555 1_555
C2K C6K 1_555 1_555
C3J C4K 1_555 1_555
C3J C4D 1_555 1_555
C3K C3D 1_555 1_555
C3K C4J 1_555 1_555
C3D C4J 1_555 1_555
C4K C4D 1_555 1_555
C5K C6K 1_555 1_555
C9H C11B 1_555 1_555

#END
