
#######################################################################
#
#                 Cambridge Crystallographic Data Centre
#                                CCDC 
#
#######################################################################
#
# If this CIF has been generated from an entry in the Cambridge 
# Structural Database, then it will include bibliographic, chemical, 
# crystal, experimental, refinement or atomic coordinate data resulting 
# from the CCDC's data processing and validation procedures.
#
#######################################################################

data_EHALII
_symmetry_cell_setting           monoclinic
_symmetry_space_group_name_H-M   'P 2/n'
_symmetry_Int_Tables_number      13
_space_group_name_Hall           '-P 2yac'
loop_
_symmetry_equiv_pos_site_id
_symmetry_equiv_pos_as_xyz
1 x,y,z
2 1/2+x,-y,1/2+z
3 -x,-y,-z
4 1/2-x,y,1/2-z
_cell_length_a                   15.6870(10)
_cell_length_b                   7.8420(10)
_cell_length_c                   17.2560(10)
_cell_angle_alpha                90
_cell_angle_beta                 90.410(10)
_cell_angle_gamma                90
_cell_volume                     2122.73
loop_
_atom_site_label
_atom_site_type_symbol
_atom_site_fract_x
_atom_site_fract_y
_atom_site_fract_z
Cu1 Cu 0.0000 0.5000 0.5000
Cu2 Cu 0.2500 0.09357(4) 1.2500
O1 O 0.18904(10) -0.08455(17) 1.18869(8)
H1 H 0.2163(18) -0.157(4) 1.1709(15)
H2 H 0.1536(16) -0.121(3) 1.2179(14)
O2 O -0.04959(10) 0.30054(17) 0.44172(8)
H3 H -0.0211(15) 0.222(3) 0.4314(13)
H4 H -0.0899(16) 0.274(3) 0.4683(14)
O3 O -0.22096(9) 0.36611(18) 0.64953(8)
O4 O -0.11141(9) 0.47396(16) 0.59191(8)
O5 O -0.17557(9) 0.25070(19) 0.54371(8)
O6 O 0.47942(9) -0.00358(17) 1.10266(9)
O7 O 0.36448(9) 0.08931(17) 1.15776(8)
O8 O 0.42850(9) -0.13806(18) 1.20108(8)
N1 N 0.07771(9) 0.34917(19) 0.56121(8)
N2 N 0.18507(9) 0.26811(18) 1.18876(8)
N3 N -0.16966(10) 0.3637(2) 0.59500(9)
N4 N 0.42403(10) -0.01725(19) 1.15383(9)
C1 C 0.12951(11) 0.2561(2) 0.68486(10)
C2 C 0.17731(12) 0.1283(2) 0.64919(11)
H5 H 0.2110(13) 0.052(3) 0.6784(11)
C3 C 0.17485(12) 0.1158(2) 0.56926(11)
H6 H 0.2013(13) 0.035(3) 0.5470(12)
C4 C 0.12535(12) 0.2284(2) 0.52724(10)
H7 H 0.1231(12) 0.224(2) 0.4709(11)
C5 C 0.08019(11) 0.3628(2) 0.63853(10)
H8 H 0.0464(14) 0.444(3) 0.6615(13)
C6 C 0.12963(12) 0.2796(2) 0.76724(11)
C7 C 0.12926(12) 0.3024(2) 0.83589(11)
C8 C 0.12995(12) 0.3263(2) 0.91488(11)
C9 C 0.13103(12) 0.3474(2) 0.98373(11)
C10 C 0.13294(11) 0.3682(2) 1.06601(10)
C11 C 0.18144(12) 0.2573(2) 1.11125(10)
H9 H 0.2122(12) 0.173(3) 1.0891(11)
C12 C 0.13966(12) 0.3905(2) 1.22373(11)
H10 H 0.1407(13) 0.391(3) 1.2781(12)
C13 C 0.08943(12) 0.5046(2) 1.18324(12)
H11 H 0.0591(13) 0.584(3) 1.2073(12)
C14 C 0.08575(12) 0.4950(2) 1.10302(12)
H12 H 0.0523(13) 0.577(3) 1.0725(12)
O2B O 0.04959(10) 0.69946(17) 0.55828(8)
H3B H 0.0211(15) 0.778(3) 0.5686(13)
H4B H 0.0899(16) 0.726(3) 0.5317(14)
O3B O 0.22096(9) 0.63389(18) 0.35047(8)
O4B O 0.11141(9) 0.52604(16) 0.40809(8)
O5B O 0.17557(9) 0.74930(19) 0.45629(8)
N3B N 0.16966(10) 0.6363(2) 0.40500(9)
N1B N -0.07771(9) 0.65083(19) 0.43879(8)
N2B N -0.18507(9) 0.73189(18) -0.18876(8)
C1B C -0.12951(11) 0.7439(2) 0.31514(10)
C2B C -0.17731(12) 0.8717(2) 0.35081(11)
H5B H -0.2110(13) 0.948(3) 0.3216(11)
C3B C -0.17485(12) 0.8842(2) 0.43074(11)
H6B H -0.2013(13) 0.965(3) 0.4530(12)
C4B C -0.12535(12) 0.7716(2) 0.47276(10)
H7B H -0.1231(12) 0.776(2) 0.5291(11)
C5B C -0.08019(11) 0.6372(2) 0.36147(10)
H8B H -0.0464(14) 0.556(3) 0.3385(13)
C6B C -0.12963(12) 0.7204(2) 0.23276(11)
C7B C -0.12926(12) 0.6976(2) 0.16411(11)
C8B C -0.12995(12) 0.6737(2) 0.08512(11)
C9B C -0.13103(12) 0.6526(2) 0.01627(11)
C10B C -0.13294(11) 0.6318(2) -0.06601(10)
C11B C -0.18144(12) 0.7427(2) -0.11125(10)
H9B H -0.2122(12) 0.827(3) -0.0891(11)
C12B C -0.13966(12) 0.6095(2) -0.22373(11)
H10B H -0.1407(13) 0.609(3) -0.2781(12)
C13B C -0.08943(12) 0.4954(2) -0.18324(12)
H11B H -0.0591(13) 0.416(3) -0.2073(12)
C14B C -0.08575(12) 0.5050(2) -0.10302(12)
H12B H -0.0523(13) 0.423(3) -0.0725(12)
O1C O 0.31096(10) -0.08455(17) 1.31131(8)
H1C H 0.2837(18) -0.157(4) 1.3291(15)
H2C H 0.3464(16) -0.121(3) 1.2821(14)
O6C O 0.02058(9) -0.00358(17) 1.39734(9)
O7C O 0.13552(9) 0.08931(17) 1.34224(8)
O8C O 0.07150(9) -0.13806(18) 1.29892(8)
N4C N 0.07597(10) -0.01725(19) 1.34617(9)
N2C N 0.31493(9) 0.26811(18) 1.31124(8)
Cu2A Cu -0.2500 0.90643(4) -0.2500
N5 N -0.46707(13) 1.0414(3) 0.50428(16)
C15 C -0.43302(17) 1.1059(3) 0.43317(18)
C16 C -0.35611(17) 1.1940(3) 0.43962(18)
H13 H -0.3299 1.2066 0.4891
C17 C -0.31795(18) 1.2621(4) 0.3762(2)
H14 H -0.2651 1.3202 0.3815
C18 C -0.35599(18) 1.2469(4) 0.30371(19)
H15 H -0.3297 1.2949 0.2593
C19 C -0.43338(18) 1.1602(4) 0.29679(18)
H16 H -0.4599 1.1504 0.2473
C20 C -0.47133(18) 1.0896(4) 0.35955(19)
H17 H -0.5236 1.0294 0.3538
N5B N -0.53293(13) 0.9586(3) 0.49572(16)
C15B C -0.56698(17) 0.8941(3) 0.56683(18)
C16B C -0.64389(17) 0.8060(3) 0.56038(18)
H13B H -0.6701 0.7934 0.5109
C17B C -0.68205(18) 0.7379(4) 0.6238(2)
H14B H -0.7349 0.6798 0.6185
C18B C -0.64401(18) 0.7531(4) 0.69629(19)
H15B H -0.6703 0.7051 0.7407
C19B C -0.56662(18) 0.8398(4) 0.70321(18)
H16B H -0.5401 0.8496 0.7527
C20B C -0.52867(18) 0.9104(4) 0.64045(19)
H17B H -0.4764 0.9706 0.6462
loop_
_geom_bond_atom_site_label_1
_geom_bond_atom_site_label_2
_geom_bond_site_symmetry_1
_geom_bond_site_symmetry_2
Cu1 O2 1_555 1_555
Cu2 O1 1_555 1_555
O1 H1 1_555 1_555
H2 O1 1_555 1_555
O2 H3 1_555 1_555
H4 O2 1_555 1_555
O3 N3 1_555 1_555
O4 Cu1 1_555 1_555
O5 N3 1_555 1_555
O6 N4 1_555 1_555
O7 Cu2 1_555 1_555
O8 N4 1_555 1_555
N1 Cu1 1_555 1_555
N2 Cu2 1_555 1_555
N3 O4 1_555 1_555
N4 O7 1_555 1_555
C1 C2 1_555 1_555
C2 H5 1_555 1_555
C3 C2 1_555 1_555
H6 C3 1_555 1_555
C4 N1 1_555 1_555
H7 C4 1_555 1_555
C5 N1 1_555 1_555
H8 C5 1_555 1_555
C6 C1 1_555 1_555
C7 C6 1_555 1_555
C8 C7 1_555 1_555
C9 C8 1_555 1_555
C10 C9 1_555 1_555
C11 N2 1_555 1_555
H9 C11 1_555 1_555
C12 N2 1_555 1_555
H10 C12 1_555 1_555
C13 C12 1_555 1_555
H11 C13 1_555 1_555
C14 C10 1_555 1_555
H12 C14 1_555 1_555
N5 C15 1_555 1_555
C15 C16 1_555 1_555
C16 H13 1_555 1_555
C17 C16 1_555 1_555
H14 C17 1_555 1_555
C18 C17 1_555 1_555
H15 C18 1_555 1_555
C19 C18 1_555 1_555
H16 C19 1_555 1_555
C20 C15 1_555 1_555
H17 C20 1_555 1_555
N5B N5 1_555 1_555
C15B N5B 1_555 1_555
C16B C15B 1_555 1_555
H13B C16B 1_555 1_555
C17B C16B 1_555 1_555
H14B C17B 1_555 1_555
C18B C17B 1_555 1_555
H15B C18B 1_555 1_555
C19B C18B 1_555 1_555
H16B C19B 1_555 1_555
C20B C15B 1_555 1_555
H17B C20B 1_555 1_555
O2B Cu1 1_555 1_555
H3B O2B 1_555 1_555
H4B O2B 1_555 1_555
O3B N3B 1_555 1_555
O4B Cu1 1_555 1_555
O5B N3B 1_555 1_555
N3B O4B 1_555 1_555
N1B Cu1 1_555 1_555
N2B C11B 1_555 1_555
C1B C2B 1_555 1_555
C2B H5B 1_555 1_555
C3B C2B 1_555 1_555
H6B C3B 1_555 1_555
C4B N1B 1_555 1_555
H7B C4B 1_555 1_555
C5B N1B 1_555 1_555
H8B C5B 1_555 1_555
C6B C1B 1_555 1_555
C7B C6B 1_555 1_555
C8B C7B 1_555 1_555
C9B C8B 1_555 1_555
C10B C9B 1_555 1_555
C11B C10B 1_555 1_555
H9B C11B 1_555 1_555
C12B N2B 1_555 1_555
H10B C12B 1_555 1_555
C13B C12B 1_555 1_555
H11B C13B 1_555 1_555
C14B C10B 1_555 1_555
H12B C14B 1_555 1_555
O1C Cu2 1_555 1_555
H1C O1C 1_555 1_555
H2C O1C 1_555 1_555
O6C N4C 1_555 1_555
O7C Cu2 1_555 1_555
O8C N4C 1_555 1_555
N4C O7C 1_555 1_555
N2C Cu2 1_555 1_555
Cu2A N2B 1_555 1_555
C1 C5 1_555 1_555
C3 C4 1_555 1_555
C10 C11 1_555 1_555
C13 C14 1_555 1_555
C19 C20 1_555 1_555
C19B C20B 1_555 1_555
C1B C5B 1_555 1_555
C3B C4B 1_555 1_555
C13B C14B 1_555 1_555

#END
