
#######################################################################
#
#                 Cambridge Crystallographic Data Centre
#                                CCDC 
#
#######################################################################
#
# If this CIF has been generated from an entry in the Cambridge 
# Structural Database, then it will include bibliographic, chemical, 
# crystal, experimental, refinement or atomic coordinate data resulting 
# from the CCDC's data processing and validation procedures.
#
#######################################################################

data_EHAXOA
_symmetry_cell_setting           orthorhombic
_symmetry_space_group_name_H-M   'P b c m'
_symmetry_Int_Tables_number      57
_space_group_name_Hall           '-P 2c 2b'
loop_
_symmetry_equiv_pos_site_id
_symmetry_equiv_pos_as_xyz
1 x,y,z
2 x,y,1/2-z
3 -x,1/2+y,z
4 x,1/2-y,1/2+z
5 -x,-y,-z
6 -x,-y,1/2+z
7 x,1/2-y,-z
8 -x,1/2+y,1/2-z
_cell_length_a                   6.4298(7)
_cell_length_b                   12.2972(10)
_cell_length_c                   25.008(3)
_cell_angle_alpha                90
_cell_angle_beta                 90
_cell_angle_gamma                90
_cell_volume                     1977.35
loop_
_atom_site_label
_atom_site_type_symbol
_atom_site_fract_x
_atom_site_fract_y
_atom_site_fract_z
Nd1 Nd 0.36048(2) 0.466757(13) 0.120852(6)
O1 O 0.6449(3) 0.60163(18) 0.09758(10)
O2 O 0.7425(3) 0.77562(17) 0.09719(10)
O3 O 0.3816(3) 0.82795(19) 0.14829(9)
O4 O 0.2665(4) 0.66075(19) 0.13256(10)
O5 O 0.1866(4) 0.4148(2) 0.20503(9)
O6 O 0.5387(4) 0.5281(2) 0.20534(9)
O7 O 0.5781(4) 0.39929(19) 0.04458(9)
O8 O 0.7258(4) 0.4529(2) -0.03150(9)
O9 O -0.0195(4) 0.4587(2) 0.10737(12)
C1 C 0.6167(4) 0.7009(2) 0.10643(13)
C2 C 0.4021(5) 0.7326(3) 0.13127(12)
C3 C 0.2600(7) 0.4383(4) 0.2500
C4 C 0.4648(7) 0.5044(4) 0.2500
C5 C 0.5877(5) 0.4573(2) 0.00394(13)
H1 H -0.0944 0.5236 0.1021
H2 H -0.0952 0.4061 0.1276
O5A O 0.1866(4) 0.4148(2) 0.29497(9)
O6A O 0.5387(4) 0.5281(2) 0.29466(9)
C5D C 0.4123(5) 0.5427(2) -0.00394(13)
O7D O 0.4219(4) 0.60071(19) -0.04458(9)
O8D O 0.2742(4) 0.5471(2) 0.03150(9)
O1B O 0.3551(3) 0.10163(18) 0.09758(10)
O2B O 0.2575(3) 0.27562(17) 0.09719(10)
O3B O 0.6184(3) 0.32795(19) 0.14829(9)
O4B O 0.7335(4) 0.16075(19) 0.13256(10)
C1B C 0.3833(4) 0.2009(2) 0.10643(13)
C2B C 0.5979(5) 0.2326(3) 0.13127(12)
Nd1B Nd 0.63952(2) -0.033243(13) 0.120852(6)
O9B O 1.0195(4) -0.0413(2) 0.10737(12)
H1B H 1.0944 0.0236 0.1021
H2B H 1.0952 -0.0939 0.1276
Nd1B_2 Nd 0.63952(2) 0.966757(13) 0.120852(6)
Nd1D Nd 0.63952(2) 0.533243(13) -0.120852(6)
Nd1A Nd 0.36048(2) 0.466757(13) 0.379148(6)
O2_2 O 0.7425(3) -0.22438(17) 0.09719(10)
O3_2 O 0.3816(3) -0.17205(19) 0.14829(9)
O5B O 0.8134(4) -0.0852(2) 0.20503(9)
O6B O 0.4613(4) 0.0281(2) 0.20534(9)
O7B O 0.4219(4) -0.10071(19) 0.04458(9)
O8F O 0.7258(4) 0.0471(2) 0.03150(9)
N1 N 0.1678(6) 0.7507(4) 0.2500
N2 N -0.0876(5) 0.6586(3) 0.20463(12)
C6 C -0.0038(7) 0.6886(4) 0.2500
H3 H 0.2225 0.7729 0.2853
H4 H -0.2053 0.6120 0.2068
H5 H 0.0168 0.6610 0.1759
N2A N -0.0876(5) 0.6586(3) 0.29537(12)
H4A H -0.2053 0.6120 0.2932
H5A H 0.0168 0.6610 0.3241
H3A H 0.2225 0.7729 0.2147
N3 N 0.0343(8) 0.7500 0.0000
H6 H -0.0519 0.7674 0.0321
H7 H 0.1499 0.6916 -0.0002
H6F H -0.0519 0.7326 -0.0321
H7F H 0.1499 0.8084 0.0002
loop_
_geom_bond_atom_site_label_1
_geom_bond_atom_site_label_2
_geom_bond_site_symmetry_1
_geom_bond_site_symmetry_2
Nd1 O1 1_555 1_555
O1 C1 1_555 1_555
O2 C1 1_555 1_555
O3 C2 1_555 1_555
O4 Nd1 1_555 1_555
O5 Nd1 1_555 1_555
O6 Nd1 1_555 1_555
O7 Nd1 1_555 1_555
O8 C5 1_555 1_555
O9 Nd1 1_555 1_555
N1 C6 1_555 1_555
N2 C6 1_555 1_555
N3 H6 1_555 1_555
C1 C2 1_555 1_555
C2 O4 1_555 1_555
C3 O5 1_555 1_555
C4 O6 1_555 1_555
C5 O7 1_555 1_555
C6 N2A 1_555 1_555
H1 O9 1_555 1_555
H2 O9 1_555 1_555
H3 N1 1_555 1_555
H4 N2 1_555 1_555
H5 N2 1_555 1_555
H7 N3 1_555 1_555
O5A C3 1_555 1_555
O6A C4 1_555 1_555
C5D C5 1_555 1_555
O7D C5D 1_555 1_555
O8D Nd1 1_555 1_555
N2A H4A 1_555 1_555
H5A N2A 1_555 1_555
H3A N1 1_555 1_555
H6F N3 1_555 1_555
H7F N3 1_555 1_555
O1B C1B 1_555 1_555
O2B Nd1 1_555 1_555
O3B Nd1 1_555 1_555
O4B C2B 1_555 1_555
C1B O2B 1_555 1_555
C2B O3B 1_555 1_555
Nd1B O1B 1_555 1_555
O9B Nd1B 1_555 1_555
H1B O9B 1_555 1_555
H2B O9B 1_555 1_555
Nd1B_2 O2 1_555 1_555
Nd1D O8 1_555 1_555
Nd1A O5A 1_555 1_555
O2_2 Nd1B 1_555 1_555
O3_2 Nd1B 1_555 1_555
O5B Nd1B 1_555 1_555
O6B Nd1B 1_555 1_555
O7B Nd1B 1_555 1_555
O8F Nd1B 1_555 1_555
O3 Nd1B_2 1_555 1_555
C3 C4 1_555 1_555
O6A Nd1A 1_555 1_555
C5D O8D 1_555 1_555
O7D Nd1D 1_555 1_555
O4B Nd1B 1_555 1_555
C1B C2B 1_555 1_555

#END
