
#######################################################################
#
#                 Cambridge Crystallographic Data Centre
#                                CCDC 
#
#######################################################################
#
# If this CIF has been generated from an entry in the Cambridge 
# Structural Database, then it will include bibliographic, chemical, 
# crystal, experimental, refinement or atomic coordinate data resulting 
# from the CCDC's data processing and validation procedures.
#
#######################################################################

data_EHAXIU
_symmetry_cell_setting           monoclinic
_symmetry_space_group_name_H-M   'P 21/c'
_symmetry_Int_Tables_number      14
_space_group_name_Hall           '-P 2ybc'
loop_
_symmetry_equiv_pos_site_id
_symmetry_equiv_pos_as_xyz
1 x,y,z
2 x,1/2-y,1/2+z
3 -x,-y,-z
4 -x,1/2+y,1/2-z
_cell_length_a                   6.6180(4)
_cell_length_b                   12.6360(6)
_cell_length_c                   13.1900(4)
_cell_angle_alpha                90
_cell_angle_beta                 93.007(4)
_cell_angle_gamma                90
_cell_volume                     1101.5
loop_
_atom_site_label
_atom_site_type_symbol
_atom_site_fract_x
_atom_site_fract_y
_atom_site_fract_z
La1 La 0.63028(4) 0.24966(3) 0.512840(18)
O1 O 0.3752(6) 0.3946(3) 0.5549(3)
O2 O 0.2741(6) 0.5615(3) 0.5299(3)
O3 O 0.7349(6) 0.0569(3) 0.5320(3)
O4 O 0.6420(6) -0.1126(3) 0.5343(3)
O5 O 0.4357(6) 0.3026(4) 0.3417(3)
O6 O 0.4416(6) 0.3063(4) 0.1732(3)
O7 O 0.7870(7) 0.1977(4) 0.3507(3)
O8 O 0.7854(7) 0.1979(4) 0.1816(3)
O9 O 1.0200(6) 0.2508(4) 0.5211(3)
C1 C 0.3986(8) 0.4870(4) 0.5239(4)
C2 C 0.6075(8) -0.0159(4) 0.5191(4)
C3 C 0.5099(9) 0.2825(5) 0.2597(4)
C4 C 0.7151(9) 0.2204(5) 0.2652(4)
H1 H 1.1089 0.2306 0.4631
H2 H 1.1017 0.2715 0.5823
C1B C 0.6014(8) 0.5130(4) 0.4761(4)
O1B O 0.6248(6) 0.6054(3) 0.4451(3)
O2B O 0.7259(6) 0.4385(3) 0.4701(3)
C2B C 0.3925(8) 0.0159(4) 0.4809(4)
O3B O 0.2651(6) -0.0569(3) 0.4680(3)
O4B O 0.3580(6) 0.1126(3) 0.4657(3)
O5A O 0.4357(6) 0.1974(4) 0.8417(3)
O6A O 0.4416(6) 0.1937(4) 0.6732(3)
O7A O 0.7870(7) 0.3023(4) 0.8507(3)
O8A O 0.7854(7) 0.3021(4) 0.6816(3)
C3A C 0.5099(9) 0.2175(5) 0.7597(4)
C4A C 0.7151(9) 0.2796(5) 0.7652(4)
La1B La 0.36972(4) 0.75034(3) 0.487160(18)
O9B O -0.0200(6) 0.7492(4) 0.4789(3)
H1B H -0.1089 0.7694 0.5369
H2B H -0.1017 0.7285 0.4177
La1B_2 La 0.36972(4) -0.24966(3) 0.487160(18)
La1A La 0.63028(4) 0.25034(3) 0.012840(18)
La1A_2 La 0.63028(4) 0.25034(3) 1.012840(18)
O3B_2 O 0.2651(6) 0.9431(3) 0.4680(3)
O4_2 O 0.6420(6) 0.8874(3) 0.5343(3)
O5B O 0.5643(6) 0.6974(4) 0.6583(3)
O6C O 0.5584(6) 0.8063(4) 0.3268(3)
O7B O 0.2130(7) 0.8023(4) 0.6493(3)
O8C O 0.2146(7) 0.6979(4) 0.3184(3)
N1 N 0.9388(9) 0.5736(5) 0.6600(4)
N2 N 0.8870(9) 0.5390(5) 0.8251(4)
N3 N 1.1513(8) 0.4601(5) 0.7480(4)
C5 C 0.9911(9) 0.5245(5) 0.7449(4)
H3 H 0.8178 0.6211 0.6619
H4 H 1.0360 0.5997 0.6172
H5 H 0.7805 0.5922 0.8196
H6 H 0.9031 0.4896 0.8770
H7 H 1.1773 0.4151 0.8061
H8 H 1.2139 0.4490 0.6875
loop_
_geom_bond_atom_site_label_1
_geom_bond_atom_site_label_2
_geom_bond_site_symmetry_1
_geom_bond_site_symmetry_2
La1 O1 1_555 1_555
O1 C1 1_555 1_555
O2 C1 1_555 1_555
O3 La1 1_555 1_555
O4 C2 1_555 1_555
O5 La1 1_555 1_555
O6 C3 1_555 1_555
O7 La1 1_555 1_555
O8 C4 1_555 1_555
O9 La1 1_555 1_555
N1 C5 1_555 1_555
N2 C5 1_555 1_555
N3 C5 1_555 1_555
C1 C1B 1_555 1_555
C2 O3 1_555 1_555
C3 O5 1_555 1_555
C4 O7 1_555 1_555
H1 O9 1_555 1_555
H2 O9 1_555 1_555
H3 N1 1_555 1_555
H4 N1 1_555 1_555
H5 N2 1_555 1_555
H6 N2 1_555 1_555
H7 N3 1_555 1_555
H8 N3 1_555 1_555
C1B O1B 1_555 1_555
O1B La1B 1_555 1_555
O2B La1 1_555 1_555
C2B C2 1_555 1_555
O3B C2B 1_555 1_555
O4B La1 1_555 1_555
O5A C3A 1_555 1_555
O6A La1 1_555 1_555
O7A C4A 1_555 1_555
O8A La1 1_555 1_555
C3A O6A 1_555 1_555
C4A O8A 1_555 1_555
La1B O2 1_555 1_555
O9B La1B 1_555 1_555
H1B O9B 1_555 1_555
H2B O9B 1_555 1_555
La1B_2 O4 1_555 1_555
La1A O6 1_555 1_555
La1A_2 O5A 1_555 1_555
O3B_2 La1B 1_555 1_555
O4_2 La1B 1_555 1_555
O5B La1B 1_555 1_555
O6C La1B 1_555 1_555
O7B La1B 1_555 1_555
O8C La1B 1_555 1_555
O8 La1A 1_555 1_555
C3 C4 1_555 1_555
C1B O2B 1_555 1_555
C2B O4B 1_555 1_555
O3B La1B_2 1_555 1_555
O7A La1A_2 1_555 1_555
C3A C4A 1_555 1_555

#END
