
#######################################################################
#
#                 Cambridge Crystallographic Data Centre
#                                CCDC 
#
#######################################################################
#
# If this CIF has been generated from an entry in the Cambridge 
# Structural Database, then it will include bibliographic, chemical, 
# crystal, experimental, refinement or atomic coordinate data resulting 
# from the CCDC's data processing and validation procedures.
#
#######################################################################

data_EHAYUH
_symmetry_cell_setting           triclinic
_symmetry_space_group_name_H-M   'P -1'
_symmetry_Int_Tables_number      2
_space_group_name_Hall           '-P 1'
loop_
_symmetry_equiv_pos_site_id
_symmetry_equiv_pos_as_xyz
1 x,y,z
2 -x,-y,-z
_cell_length_a                   13.190(1)
_cell_length_b                   7.185(1)
_cell_length_c                   3.718(1)
_cell_angle_alpha                120.452(1)
_cell_angle_beta                 87.630(1)
_cell_angle_gamma                97.650(1)
_cell_volume                     300.905
loop_
_atom_site_label
_atom_site_type_symbol
_atom_site_fract_x
_atom_site_fract_y
_atom_site_fract_z
Eu1 Eu 0.43657(28) 0.23478(50) -0.0034(12)
O1 O 0.3230(19) 0.0465(37) -0.6550(74)
O2 O 0.5283(18) 0.1633(31) -0.5678(71)
O3 O 0.4126(17) 0.4712(34) -0.2835(65)
C1 C 0.1974(11) 0.5113(36) 0.344(11)
O4 O 0.2359(15) 0.6546(36) 0.2650(68)
O5 O 0.2256(16) 0.3261(32) 0.1530(76)
C2 C 0.0376(17) 0.6820(34) 0.4438(97)
C3 C 0.0938(12) 0.4787(30) 0.324(10)
C4 C 0.0238(18) 0.2802(24) 0.2638(94)
C4A C -0.0238(18) 0.7198(24) 0.7362(94)
C3A C -0.0938(12) 0.5213(30) 0.676(10)
C1A C -0.1974(11) 0.4887(36) 0.656(11)
O4A O -0.2359(15) 0.3454(36) 0.7350(68)
O5A O -0.2256(16) 0.6739(32) 0.8470(76)
C2A C -0.0376(17) 0.3180(34) 0.5562(97)
O1_2 O 0.3230(19) 0.0465(37) 0.3450(74)
O2A O 0.4717(18) -0.1633(31) -0.4322(71)
O3_2 O 0.4126(17) 0.4712(34) 0.7165(65)
Eu1_2 Eu 0.43657(28) 0.23478(50) 0.9966(12)
O2_2 O 0.5283(18) 0.1633(31) 0.4322(71)
O3A O 0.5874(17) 0.5288(34) 0.2835(65)
Eu1_3 Eu 0.43657(28) 0.23478(50) -1.0034(12)
Eu1A Eu 0.56343(28) -0.23478(50) -0.9966(12)
Eu1A_2 Eu 0.56343(28) -0.23478(50) 0.0034(12)
Eu1A_3 Eu 0.56343(28) 0.76522(50) 0.0034(12)
Eu1A_4 Eu -0.43657(28) 0.76522(50) 1.0034(12)
Eu1A_5 Eu 0.56343(28) 0.76522(50) 1.0034(12)
O1_3 O 0.3230(19) 0.0465(37) 1.3450(74)
O2A_2 O 0.4717(18) -0.1633(31) 0.5678(71)
O2_3 O 0.5283(18) 0.1633(31) 1.4322(71)
O3_3 O 0.4126(17) 0.4712(34) 1.7165(65)
O3A_2 O 0.5874(17) 0.5288(34) 1.2835(65)
O5_2 O 0.2256(16) 0.3261(32) 1.1530(76)
loop_
_geom_bond_atom_site_label_1
_geom_bond_atom_site_label_2
_geom_bond_site_symmetry_1
_geom_bond_site_symmetry_2
Eu1 O1 1_555 1_555
O1 Eu1_3 1_555 1_555
O2 Eu1 1_555 1_555
O3 Eu1 1_555 1_555
C1 O4 1_555 1_555
O5 Eu1 1_555 1_555
C2 C3 1_555 1_555
C3 C1 1_555 1_555
C4 C3 1_555 1_555
C4A C2 1_555 1_555
C3A C4A 1_555 1_555
C1A C3A 1_555 1_555
O4A C1A 1_555 1_555
O5A C1A 1_555 1_555
C2A C4 1_555 1_555
O1_2 Eu1 1_555 1_555
O2A Eu1 1_555 1_555
O3_2 Eu1 1_555 1_555
Eu1_2 O1_2 1_555 1_555
O2_2 Eu1 1_555 1_555
O3A Eu1 1_555 1_555
Eu1_3 O2 1_555 1_555
Eu1A O2 1_555 1_555
Eu1A_2 O2A 1_555 1_555
Eu1A_3 O3 1_555 1_555
Eu1A_4 O5A 1_555 1_555
Eu1A_5 O3_2 1_555 1_555
O1_3 Eu1_2 1_555 1_555
O2A_2 Eu1_2 1_555 1_555
O2_3 Eu1_2 1_555 1_555
O3_3 Eu1_2 1_555 1_555
O3A_2 Eu1_2 1_555 1_555
O5_2 Eu1_2 1_555 1_555
O3 Eu1_3 1_555 1_555
C1 O5 1_555 1_555
C3A C2A 1_555 1_555
O2A Eu1A 1_555 1_555
O3_2 Eu1_2 1_555 1_555
Eu1_2 O2_2 1_555 1_555
O2_2 Eu1A_2 1_555 1_555
O3A Eu1A_3 1_555 1_555
O3A Eu1A_5 1_555 1_555
Eu1A_2 O2A_2 1_555 1_555
Eu1A_5 O3A_2 1_555 1_555

#END
