
#######################################################################
#
#                 Cambridge Crystallographic Data Centre
#                                CCDC 
#
#######################################################################
#
# If this CIF has been generated from an entry in the Cambridge 
# Structural Database, then it will include bibliographic, chemical, 
# crystal, experimental, refinement or atomic coordinate data resulting 
# from the CCDC's data processing and validation procedures.
#
#######################################################################

data_EHAYER01
_symmetry_cell_setting           triclinic
_symmetry_space_group_name_H-M   'P -1'
_symmetry_Int_Tables_number      2
_space_group_name_Hall           '-P 1'
loop_
_symmetry_equiv_pos_site_id
_symmetry_equiv_pos_as_xyz
1 x,y,z
2 -x,-y,-z
_cell_length_a                   9.1559(15)
_cell_length_b                   9.7970(16)
_cell_length_c                   11.924(2)
_cell_angle_alpha                106.339(2)
_cell_angle_beta                 108.397(3)
_cell_angle_gamma                93.245(3)
_cell_volume                     961.439
loop_
_atom_site_label
_atom_site_type_symbol
_atom_site_fract_x
_atom_site_fract_y
_atom_site_fract_z
C1 C 0.4293(10) -0.5508(8) 0.1268(7)
C2 C 0.4370(9) -0.3058(8) 0.0454(7)
C3 C 0.5778(10) 0.1048(9) 0.2635(8)
H1 H 0.6326 0.0361 0.2254
H2 H 0.6120 0.1188 0.3513
H3 H 0.5986 0.1948 0.2499
C4 C 0.2181(10) -0.1027(8) 0.2542(8)
H4 H 0.2619 -0.0707 0.3436
H5 H 0.2300 -0.2014 0.2226
H6 H 0.1093 -0.0947 0.2287
C5 C 0.2141(11) 0.0506(9) 0.0075(7)
H7 H 0.2839 0.1046 -0.0158
H8 H 0.1282 0.1008 0.0128
H9 H 0.1757 -0.0427 -0.0540
C6 C 0.4287(10) 0.2066(9) 0.5663(8)
H10 H 0.4791 0.2721 0.6491
H11 H 0.5030 0.1906 0.5242
H12 H 0.3873 0.1167 0.5705
C7 C 0.0166(10) 0.1723(9) 0.4028(9)
H13 H 0.0231 0.0901 0.4319
H14 H -0.0243 0.1406 0.3134
H15 H -0.0511 0.2309 0.4345
C8 C 0.2912(10) 0.5153(8) 0.4748(7)
H16 H 0.3515 0.5218 0.4230
H17 H 0.3487 0.5730 0.5592
H18 H 0.1946 0.5497 0.4458
C9 C 0.1762(9) 0.3116(9) 0.7344(7)
H19 H 0.2084 0.2221 0.7165
C10 C 0.1223(9) 0.3511(8) 0.8315(7)
H20 H 0.1218 0.2902 0.8788
C11 C 0.0682(9) 0.4819(8) 0.8602(6)
C12 C 0.0790(11) 0.5699(9) 0.7881(7)
H21 H 0.0462 0.6593 0.8035
C13 C 0.1396(10) 0.5218(9) 0.6928(7)
H22 H 0.1484 0.5827 0.6470
C14 C 0.0029(10) 0.5328(9) 0.9592(7)
H23 H -0.0378 0.6183 0.9650
H24 H 0.29(2) 0.274(19) 0.287(18)
N1 N 0.3875(9) -0.5792(8) 0.1993(7)
N2 N 0.4036(9) -0.1948(7) 0.0722(7)
N3 N 0.1856(8) 0.3938(7) 0.6634(6)
O1 O 0.2733(8) 0.2177(6) 0.2897(5)
Pt1 Pt 0.5000 -0.5000 0.0000
Sn1 Sn 0.33496(6) 0.02680(5) 0.18351(4)
Sn2 Sn 0.24432(6) 0.29609(5) 0.46667(4)
C14A C -0.0029(10) 0.4672(9) 1.0408(7)
C11A C -0.0682(9) 0.5181(8) 1.1398(6)
C10A C -0.1223(9) 0.6489(8) 1.1685(7)
C9A C -0.1762(9) 0.6884(9) 1.2656(7)
H19A H -0.2084 0.7779 1.2835
N3A N -0.1856(8) 0.6062(7) 1.3366(6)
C13A C -0.1396(10) 0.4782(9) 1.3072(7)
C12A C -0.0790(11) 0.4301(9) 1.2119(7)
H21A H -0.0462 0.3407 1.1965
H22A H -0.1484 0.4173 1.3530
H20A H -0.1218 0.7098 1.1212
H23A H 0.0378 0.3817 1.0350
C1A C 0.5707(10) -0.4492(8) -0.1268(7)
N1A N 0.6125(9) -0.4208(8) -0.1993(7)
C2A C 0.5630(9) -0.6942(8) -0.0454(7)
N2A N 0.5964(9) -0.8052(7) -0.0722(7)
Sn1A Sn 0.66504(6) -1.02680(5) -0.18351(4)
C3A C 0.4222(10) -1.1048(9) -0.2635(8)
H1A H 0.3674 -1.0361 -0.2254
H2A H 0.3880 -1.1188 -0.3513
H3A H 0.4014 -1.1948 -0.2499
C4A C 0.7819(10) -0.8973(8) -0.2542(8)
H4A H 0.7381 -0.9293 -0.3436
H5A H 0.7700 -0.7986 -0.2226
H6A H 0.8907 -0.9053 -0.2287
C5A C 0.7859(11) -1.0506(9) -0.0075(7)
H7A H 0.7161 -1.1046 0.0158
H8A H 0.8718 -1.1008 -0.0128
H9A H 0.8243 -0.9573 0.0540
H24A H 0.71(2) -1.274(19) -0.287(18)
O1A O 0.7267(8) -1.2177(6) -0.2897(5)
Sn2A Sn 0.75568(6) -1.29609(5) -0.46667(4)
C6A C 0.5713(10) -1.2066(9) -0.5663(8)
H10A H 0.5209 -1.2721 -0.6491
H11A H 0.4970 -1.1906 -0.5242
H12A H 0.6127 -1.1167 -0.5705
C7A C 0.9834(10) -1.1723(9) -0.4028(9)
H13A H 0.9769 -1.0901 -0.4319
H14A H 1.0243 -1.1406 -0.3134
H15A H 1.0511 -1.2309 -0.4345
C8A C 0.7088(10) -1.5153(8) -0.4748(7)
H16A H 0.6485 -1.5218 -0.4230
H17A H 0.6513 -1.5730 -0.5592
H18A H 0.8054 -1.5497 -0.4458
Sn2A_2 Sn -0.24432(6) 0.70391(5) 1.53333(4)
N3A_2 N 0.8144(8) -1.3938(7) -0.6634(6)
loop_
_geom_bond_atom_site_label_1
_geom_bond_atom_site_label_2
_geom_bond_site_symmetry_1
_geom_bond_site_symmetry_2
C1 N1 1_555 1_555
C2 N2 1_555 1_555
C3 H1 1_555 1_555
H2 C3 1_555 1_555
H3 C3 1_555 1_555
C4 H4 1_555 1_555
H5 C4 1_555 1_555
H6 C4 1_555 1_555
C5 H7 1_555 1_555
H8 C5 1_555 1_555
H9 C5 1_555 1_555
C6 H10 1_555 1_555
H11 C6 1_555 1_555
H12 C6 1_555 1_555
C7 H13 1_555 1_555
H14 C7 1_555 1_555
H15 C7 1_555 1_555
C8 H16 1_555 1_555
H17 C8 1_555 1_555
H18 C8 1_555 1_555
C9 H19 1_555 1_555
C10 C9 1_555 1_555
H20 C10 1_555 1_555
C11 C10 1_555 1_555
C12 C11 1_555 1_555
H21 C12 1_555 1_555
C13 C12 1_555 1_555
H22 C13 1_555 1_555
C14 C11 1_555 1_555
H23 C14 1_555 1_555
H24 O1 1_555 1_555
N2 Sn1 1_555 1_555
N3 C9 1_555 1_555
O1 Sn1 1_555 1_555
Pt1 C1 1_555 1_555
Sn1 C3 1_555 1_555
Sn2 C6 1_555 1_555
C14A C14 1_555 1_555
C11A C14A 1_555 1_555
C10A C11A 1_555 1_555
C9A C10A 1_555 1_555
H19A C9A 1_555 1_555
N3A C9A 1_555 1_555
C13A N3A 1_555 1_555
C12A C11A 1_555 1_555
H21A C12A 1_555 1_555
H22A C13A 1_555 1_555
H20A C10A 1_555 1_555
H23A C14A 1_555 1_555
C1A Pt1 1_555 1_555
N1A C1A 1_555 1_555
C2A Pt1 1_555 1_555
N2A C2A 1_555 1_555
Sn1A N2A 1_555 1_555
C3A Sn1A 1_555 1_555
H1A C3A 1_555 1_555
H2A C3A 1_555 1_555
H3A C3A 1_555 1_555
C4A Sn1A 1_555 1_555
H4A C4A 1_555 1_555
H5A C4A 1_555 1_555
H6A C4A 1_555 1_555
C5A Sn1A 1_555 1_555
H7A C5A 1_555 1_555
H8A C5A 1_555 1_555
H9A C5A 1_555 1_555
H24A O1A 1_555 1_555
O1A Sn1A 1_555 1_555
Sn2A O1A 1_555 1_555
C6A Sn2A 1_555 1_555
H10A C6A 1_555 1_555
H11A C6A 1_555 1_555
H12A C6A 1_555 1_555
C7A Sn2A 1_555 1_555
H13A C7A 1_555 1_555
H14A C7A 1_555 1_555
H15A C7A 1_555 1_555
C8A Sn2A 1_555 1_555
H16A C8A 1_555 1_555
H17A C8A 1_555 1_555
H18A C8A 1_555 1_555
Sn2A_2 N3A 1_555 1_555
N3A_2 Sn2A 1_555 1_555
C2 Pt1 1_555 1_555
C4 Sn1 1_555 1_555
C5 Sn1 1_555 1_555
C7 Sn2 1_555 1_555
C8 Sn2 1_555 1_555
C13 N3 1_555 1_555
N3 Sn2 1_555 1_555
O1 Sn2 1_555 1_555
C13A C12A 1_555 1_555

#END
