
#######################################################################
#
#                 Cambridge Crystallographic Data Centre
#                                CCDC 
#
#######################################################################
#
# If this CIF has been generated from an entry in the Cambridge 
# Structural Database, then it will include bibliographic, chemical, 
# crystal, experimental, refinement or atomic coordinate data resulting 
# from the CCDC's data processing and validation procedures.
#
#######################################################################

data_EHAZES
_symmetry_cell_setting           orthorhombic
_symmetry_space_group_name_H-M   'P b c a'
_symmetry_Int_Tables_number      61
_space_group_name_Hall           '-P 2ac 2ab'
loop_
_symmetry_equiv_pos_site_id
_symmetry_equiv_pos_as_xyz
1 x,y,z
2 1/2+x,y,1/2-z
3 x,1/2-y,1/2+z
4 1/2-x,1/2+y,z
5 -x,-y,-z
6 1/2-x,-y,1/2+z
7 -x,1/2+y,1/2-z
8 1/2+x,1/2-y,-z
_cell_length_a                   7.4052(2)
_cell_length_b                   10.1144(3)
_cell_length_c                   18.7512(5)
_cell_angle_alpha                90
_cell_angle_beta                 90
_cell_angle_gamma                90
_cell_volume                     1404.45
loop_
_atom_site_label
_atom_site_type_symbol
_atom_site_fract_x
_atom_site_fract_y
_atom_site_fract_z
Eu1 Eu 0.03103(3) 0.699201(18) 0.019037(11)
O1 O 0.3279(4) 0.5984(2) -0.03273(14)
O2 O 0.4496(4) 0.5220(3) -0.41963(15)
O3 O 0.2950(4) 0.7077(3) -0.40322(16)
O4 O 0.3118(3) 0.3815(2) -0.05755(15)
C1 C 0.3680(5) 0.6026(4) -0.3791(2)
C2 C 0.3350(5) 0.5011(4) -0.0753(2)
C3 C 0.4460(5) 0.4629(4) -0.2719(2)
H1 H 0.5024 0.4027 -0.3021
C4 C 0.4405(5) 0.4389(4) -0.1992(2)
H2 H 0.4886 0.3608 -0.1811
C5 C 0.3636(5) 0.5307(3) -0.1530(2)
C6 C 0.2981(5) 0.6496(4) -0.1813(2)
H3 H 0.2554 0.7150 -0.1508
C7 C 0.2962(5) 0.6705(4) -0.2536(2)
H4 H 0.2469 0.7482 -0.2716
C8 C 0.3673(5) 0.5770(4) -0.3003(2)
O1G O -0.1721(4) 0.9016(2) 0.03273(14)
O2A O -0.0504(4) 0.5220(3) -0.08037(15)
O2E O 0.0504(4) 0.4780(3) 0.08037(15)
O3A O -0.2050(4) 0.7077(3) -0.09678(16)
O3B O 0.2950(4) 0.7923(3) 0.09678(16)
O4C O 0.1882(3) 0.8815(2) -0.05755(15)
O4D O -0.3118(3) 0.6185(2) 0.05755(15)
Eu1G Eu 0.53103(3) 0.800799(18) -0.019037(11)
Eu1A Eu 0.53103(3) 0.699201(18) -0.519037(11)
Eu1E Eu 0.46897(3) 0.300799(18) -0.480963(11)
Eu1B Eu 0.03103(3) 0.800799(18) -0.480963(11)
Eu1C Eu 0.46897(3) 0.199201(18) 0.019037(11)
Eu1D Eu -0.03103(3) 0.300799(18) -0.019037(11)
loop_
_geom_bond_atom_site_label_1
_geom_bond_atom_site_label_2
_geom_bond_site_symmetry_1
_geom_bond_site_symmetry_2
Eu1 O1 1_555 1_555
O1 C2 1_555 1_555
O2 C1 1_555 1_555
O3 C1 1_555 1_555
O4 C2 1_555 1_555
C1 C8 1_555 1_555
C2 C5 1_555 1_555
C3 H1 1_555 1_555
C4 C3 1_555 1_555
H2 C4 1_555 1_555
C5 C4 1_555 1_555
C6 C5 1_555 1_555
H3 C6 1_555 1_555
C7 C6 1_555 1_555
H4 C7 1_555 1_555
C8 C3 1_555 1_555
O1G Eu1 1_555 1_555
O2A Eu1 1_555 1_555
O2E Eu1 1_555 1_555
O3A Eu1 1_555 1_555
O3B Eu1 1_555 1_555
O4C Eu1 1_555 1_555
O4D Eu1 1_555 1_555
Eu1G O1 1_555 1_555
Eu1A O2 1_555 1_555
Eu1E O2 1_555 1_555
Eu1B O3 1_555 1_555
Eu1C O4 1_555 1_555
Eu1D O4 1_555 1_555
O3 Eu1A 1_555 1_555
C7 C8 1_555 1_555
O2A Eu1D 1_555 1_555
O2E Eu1D 1_555 1_555
O3B Eu1G 1_555 1_555
O4C Eu1G 1_555 1_555

#END
