
#######################################################################
#
#                 Cambridge Crystallographic Data Centre
#                                CCDC 
#
#######################################################################
#
# If this CIF has been generated from an entry in the Cambridge 
# Structural Database, then it will include bibliographic, chemical, 
# crystal, experimental, refinement or atomic coordinate data resulting 
# from the CCDC's data processing and validation procedures.
#
#######################################################################

data_EHAZAO
_symmetry_cell_setting           triclinic
_symmetry_space_group_name_H-M   'P -1'
_symmetry_Int_Tables_number      2
_space_group_name_Hall           '-P 1'
loop_
_symmetry_equiv_pos_site_id
_symmetry_equiv_pos_as_xyz
1 x,y,z
2 -x,-y,-z
_cell_length_a                   3.6773(7)
_cell_length_b                   6.2569(13)
_cell_length_c                   11.969(2)
_cell_angle_alpha                91.01(3)
_cell_angle_beta                 97.53(3)
_cell_angle_gamma                91.03(3)
_cell_volume                     272.914
loop_
_atom_site_label
_atom_site_type_symbol
_atom_site_fract_x
_atom_site_fract_y
_atom_site_fract_z
Eu1 Eu -0.22199(7) 0.75450(5) 0.06575(3)
O1 O -0.2280(10) 1.1351(7) 0.0490(4)
O2 O -0.2987(11) 0.5019(7) -0.0902(4)
O3 O -0.6717(13) 0.9133(8) 0.1930(4)
O4 O -1.0119(13) 0.6761(9) 0.2703(4)
C1 C -0.6260(16) 0.9139(11) 0.3930(5)
C2 C -0.4569(19) 1.1146(12) 0.4046(6)
H1 H -0.4267 1.1922 0.3407
C3 C -0.7744(16) 0.8265(11) 0.2798(5)
C4 C -0.6680(19) 0.7991(11) 0.4890(6)
H2 H -0.7798 0.6642 0.4821
C4A C -0.3320(19) 1.2009(11) 0.5110(6)
C1A C -0.3740(16) 1.0861(11) 0.6070(5)
C2A C -0.5431(19) 0.8854(12) 0.5954(6)
H1A H -0.5733 0.8078 0.6593
C3A C -0.2256(16) 1.1735(11) 0.7202(5)
O3A O -0.3283(13) 1.0867(8) 0.8070(4)
O4A O 0.0119(13) 1.3239(9) 0.7297(4)
H2A H -0.2202 1.3358 0.5179
O1A O -0.7720(10) 0.8649(7) -0.0490(4)
O2A O -0.7013(11) 0.4981(7) 0.0902(4)
Eu1A Eu -0.77801(7) 1.24550(5) -0.06575(3)
O1A_2 O 0.2280(10) 0.8649(7) -0.0490(4)
O2A_2 O 0.2987(11) 0.4981(7) 0.0902(4)
O3_2 O 0.3283(13) 0.9133(8) 0.1930(4)
O4_2 O -0.0119(13) 0.6761(9) 0.2703(4)
Eu1A_2 Eu 0.22199(7) 1.24550(5) -0.06575(3)
Eu1A_3 Eu -0.77801(7) 0.24550(5) -0.06575(3)
Eu1A_4 Eu 0.22199(7) 0.24550(5) -0.06575(3)
Eu1_2 Eu -1.22199(7) 0.75450(5) 0.06575(3)
Eu1A_5 Eu -0.77801(7) 1.24550(5) 0.93425(3)
Eu1A_6 Eu 0.22199(7) 1.24550(5) 0.93425(3)
O1_2 O -1.2280(10) 1.1351(7) 0.0490(4)
O2_2 O -1.2987(11) 1.5019(7) -0.0902(4)
O2_3 O -0.2987(11) 1.5019(7) -0.0902(4)
O2A_3 O -0.7013(11) 1.4981(7) 0.0902(4)
O3A_2 O -1.3283(13) 1.0867(8) -0.1930(4)
O3A_3 O -0.3283(13) 1.0867(8) -0.1930(4)
O4A_2 O -0.9881(13) 1.3239(9) -0.2703(4)
loop_
_geom_bond_atom_site_label_1
_geom_bond_atom_site_label_2
_geom_bond_site_symmetry_1
_geom_bond_site_symmetry_2
Eu1 O1 1_555 1_555
O1 Eu1A 1_555 1_555
O2 Eu1 1_555 1_555
O3 Eu1 1_555 1_555
O4 C3 1_555 1_555
C1 C2 1_555 1_555
C2 H1 1_555 1_555
C3 O3 1_555 1_555
C4 C1 1_555 1_555
H2 C4 1_555 1_555
C4A C2 1_555 1_555
C1A C4A 1_555 1_555
C2A C4 1_555 1_555
H1A C2A 1_555 1_555
C3A C1A 1_555 1_555
O3A C3A 1_555 1_555
O4A C3A 1_555 1_555
H2A C4A 1_555 1_555
O1A Eu1 1_555 1_555
O2A Eu1 1_555 1_555
Eu1A O1A 1_555 1_555
O1A_2 Eu1 1_555 1_555
O2A_2 Eu1 1_555 1_555
O3_2 Eu1 1_555 1_555
O4_2 Eu1 1_555 1_555
Eu1A_2 O1 1_555 1_555
Eu1A_3 O2 1_555 1_555
Eu1A_4 O2 1_555 1_555
Eu1_2 O3 1_555 1_555
Eu1A_5 O3A 1_555 1_555
Eu1A_6 O3A 1_555 1_555
O1_2 Eu1A 1_555 1_555
O2_2 Eu1A 1_555 1_555
O2_3 Eu1A 1_555 1_555
O2A_3 Eu1A 1_555 1_555
O3A_2 Eu1A 1_555 1_555
O3A_3 Eu1A 1_555 1_555
O4A_2 Eu1A 1_555 1_555
O4 Eu1_2 1_555 1_555
C1 C3 1_555 1_555
C1A C2A 1_555 1_555
O4A Eu1A_6 1_555 1_555
O1A Eu1_2 1_555 1_555
O2A Eu1_2 1_555 1_555
O2A Eu1A_3 1_555 1_555
O1A_2 Eu1A_2 1_555 1_555
O2A_2 Eu1A_4 1_555 1_555
Eu1A_2 O2_3 1_555 1_555
Eu1A_2 O3A_3 1_555 1_555
Eu1_2 O1_2 1_555 1_555

#END
