
#######################################################################
#
#                 Cambridge Crystallographic Data Centre
#                                CCDC 
#
#######################################################################
#
# If this CIF has been generated from an entry in the Cambridge 
# Structural Database, then it will include bibliographic, chemical, 
# crystal, experimental, refinement or atomic coordinate data resulting 
# from the CCDC's data processing and validation procedures.
#
#######################################################################

data_EHAZUJ
_symmetry_cell_setting           monoclinic
_symmetry_space_group_name_H-M   'P 21/n'
_symmetry_Int_Tables_number      14
_space_group_name_Hall           '-P 2yn'
loop_
_symmetry_equiv_pos_site_id
_symmetry_equiv_pos_as_xyz
1 x,y,z
2 1/2-x,1/2+y,1/2-z
3 -x,-y,-z
4 1/2+x,1/2-y,1/2+z
_cell_length_a                   7.8650(16)
_cell_length_b                   19.327(4)
_cell_length_c                   7.9283(16)
_cell_angle_alpha                90
_cell_angle_beta                 99.74(3)
_cell_angle_gamma                90
_cell_volume                     1187.78
loop_
_atom_site_label
_atom_site_type_symbol
_atom_site_fract_x
_atom_site_fract_y
_atom_site_fract_z
Cu1 Cu 0.36287(5) 0.15148(2) 0.33841(5)
S1 S 0.60009(10) 0.28317(5) 0.43618(10)
O1 O 0.5555(3) 0.21834(13) 0.3378(3)
O2 O 0.6939(3) 0.26832(14) 0.6063(3)
O3 O 0.6827(3) 0.33199(14) 0.3384(3)
C1 C 0.1077(4) 0.0339(2) 0.2480(4)
H1 H 0.1893 0.0124 0.1936
N1 N 0.1453(3) 0.09496(16) 0.3229(3)
N2 N 0.2325(3) 0.21250(16) 0.4736(3)
N3 N 0.4893(3) 0.09987(18) 0.5945(4)
N4 N 0.5672(4) 0.07257(18) 0.9013(4)
N5 N 0.4484(3) 0.09971(17) 1.1581(3)
C2 C -0.0493(4) 0.0014(2) 0.2485(4)
H2 H -0.0715 -0.0415 0.1961
C3 C -0.1723(4) 0.0330(2) 0.3270(4)
H3 H -0.2784 0.0120 0.3284
C4 C -0.1344(4) 0.0972(2) 0.4041(4)
H4 H -0.2149 0.1199 0.4576
C5 C 0.0246(4) 0.1263(2) 0.3999(4)
C6 C 0.0811(4) 0.19234(19) 0.4812(4)
H5 H 0.0081 0.2186 0.5365
C7 C 0.2992(4) 0.2749(2) 0.5648(4)
H6 H 0.3743 0.2618 0.6700
H7 H 0.2037 0.3011 0.5952
C8 C 0.3984(4) 0.3201(2) 0.4594(4)
H8 H 0.4180 0.3650 0.5140
H9 H 0.3298 0.3270 0.3470
C9 C 0.5162(4) 0.0902(2) 0.7409(4)
C10 C 0.4940(4) 0.08980(19) 1.0300(4)
Cu1C Cu 0.86287(5) 0.34852(2) 0.83841(5)
Cu1_2 Cu 0.36287(5) 0.15148(2) 1.33841(5)
O2C O 0.1939(3) 0.23168(14) 0.1063(3)
N5_2 N 0.4484(3) 0.09971(17) 0.1581(3)
loop_
_geom_bond_atom_site_label_1
_geom_bond_atom_site_label_2
_geom_bond_site_symmetry_1
_geom_bond_site_symmetry_2
Cu1 O1 1_555 1_555
S1 O1 1_555 1_555
O2 S1 1_555 1_555
O3 S1 1_555 1_555
C1 H1 1_555 1_555
N1 Cu1 1_555 1_555
N2 Cu1 1_555 1_555
N3 Cu1 1_555 1_555
N4 C9 1_555 1_555
N5 C10 1_555 1_555
C2 C1 1_555 1_555
H2 C2 1_555 1_555
C3 C2 1_555 1_555
H3 C3 1_555 1_555
C4 C3 1_555 1_555
H4 C4 1_555 1_555
C5 N1 1_555 1_555
C6 N2 1_555 1_555
H5 C6 1_555 1_555
C7 N2 1_555 1_555
H6 C7 1_555 1_555
H7 C7 1_555 1_555
C8 S1 1_555 1_555
H8 C8 1_555 1_555
H9 C8 1_555 1_555
C9 N3 1_555 1_555
C10 N4 1_555 1_555
Cu1C O2 1_555 1_555
Cu1_2 N5 1_555 1_555
O2C Cu1 1_555 1_555
N5_2 Cu1 1_555 1_555
C1 N1 1_555 1_555
C4 C5 1_555 1_555
C5 C6 1_555 1_555
C7 C8 1_555 1_555

#END
