
#######################################################################
#
#                 Cambridge Crystallographic Data Centre
#                                CCDC 
#
#######################################################################
#
# If this CIF has been generated from an entry in the Cambridge 
# Structural Database, then it will include bibliographic, chemical, 
# crystal, experimental, refinement or atomic coordinate data resulting 
# from the CCDC's data processing and validation procedures.
#
#######################################################################

data_EHEPAJ01
_symmetry_cell_setting           triclinic
_symmetry_space_group_name_H-M   'P -1'
_symmetry_Int_Tables_number      2
_space_group_name_Hall           '-P 1'
loop_
_symmetry_equiv_pos_site_id
_symmetry_equiv_pos_as_xyz
1 x,y,z
2 -x,-y,-z
_cell_length_a                   11.3684(10)
_cell_length_b                   12.2037(10)
_cell_length_c                   14.3032(12)
_cell_angle_alpha                95.0150(10)
_cell_angle_beta                 103.5300(10)
_cell_angle_gamma                100.9050(10)
_cell_volume                     1876.36
loop_
_atom_site_label
_atom_site_type_symbol
_atom_site_fract_x
_atom_site_fract_y
_atom_site_fract_z
Gd1 Gd 0.20674(3) 0.13606(2) 0.110563(19)
Gd2 Gd 0.39491(2) 0.33403(2) 0.365370(19)
C1 C 0.3723(5) 0.0866(5) 0.3383(4)
C2 C 0.3631(5) -0.0385(5) 0.3381(4)
C3 C 0.3572(6) -0.0828(5) 0.4237(5)
H1 H 0.3610 -0.0360 0.4797
C4 C 0.3455(6) -0.1985(5) 0.4242(5)
H2 H 0.3400 -0.2274 0.4814
C5 C 0.3503(6) -0.2260(5) 0.2640(4)
C6 C 0.3597(6) -0.1127(5) 0.2580(4)
H3 H 0.3638 -0.0858 0.1997
C7 C 0.3452(6) -0.3098(5) 0.1810(4)
C8 C 0.3137(6) -0.4254(5) 0.1853(5)
H4 H 0.2919 -0.4507 0.2397
C9 C 0.3150(6) -0.5020(5) 0.1088(4)
C10 C 0.3410(8) -0.4605(5) 0.0259(5)
H5 H 0.3379 -0.5095 -0.0286
C11 C 0.3714(9) -0.3453(6) 0.0267(5)
H6 H 0.3915 -0.3181 -0.0276
C12 C 0.2835(6) -0.6256(5) 0.1137(5)
C13 C -0.4322(5) -0.3990(5) 0.3867(4)
C14 C -0.3592(5) -0.3228(5) 0.3330(4)
C15 C -0.3542(7) -0.3615(5) 0.2408(5)
H7 H -0.3919 -0.4352 0.2128
C16 C -0.2921(8) -0.2886(6) 0.1907(5)
H8 H -0.2922 -0.3141 0.1275
C17 C -0.2332(6) -0.1483(5) 0.3191(5)
C18 C -0.2971(6) -0.2141(5) 0.3732(5)
H9 H -0.2982 -0.1857 0.4354
C19 C -0.1549(6) -0.0342(5) 0.3627(4)
C20 C -0.0661(6) 0.0179(5) 0.3186(4)
H10 H -0.0582 -0.0165 0.2605
C21 C 0.0104(6) 0.1213(5) 0.3619(5)
C22 C -0.0058(6) 0.1692(5) 0.4477(4)
H11 H 0.0442 0.2379 0.4796
C23 C -0.0984(7) 0.1125(6) 0.4856(5)
H12 H -0.1101 0.1464 0.5426
C24 C 0.1069(6) 0.1766(5) 0.3155(4)
C25 C 0.0688(6) -0.1345(5) 0.0435(5)
C26 C 0.0473(6) -0.2500(5) 0.0756(5)
C27 C 0.0422(7) -0.2646(6) 0.1686(5)
H13 H 0.0573 -0.2033 0.2165
C28 C 0.0140(8) -0.3727(6) 0.1884(5)
H14 H 0.0052 -0.3831 0.2502
C29 C 0.0070(6) -0.4491(5) 0.0343(5)
C30 C 0.0303(6) -0.3434(5) 0.0085(5)
H15 H 0.0347 -0.3345 -0.0546
C31 C 0.6501(6) 0.3141(6) 0.2946(5)
C32 C 0.7870(6) 0.3633(5) 0.3284(5)
C33 C 0.8416(6) 0.4218(5) 0.4227(5)
H16 H 0.7930 0.4305 0.4658
C34 C 0.9699(6) 0.4671(5) 0.4513(4)
C35 C 0.9898(6) 0.3983(5) 0.3025(5)
H17 H 1.0406 0.3889 0.2614
C36 C 0.8643(6) 0.3519(6) 0.2673(5)
H18 H 0.8324 0.3142 0.2044
N1 N 0.3417(5) -0.2694(4) 0.3474(4)
N2 N 0.3733(6) -0.2711(4) 0.1019(4)
N3 N -0.1711(6) 0.0132(5) 0.4453(4)
N4 N -0.2318(6) -0.1833(5) 0.2287(4)
N5 N -0.0017(6) -0.4645(5) 0.1246(4)
N6 N 1.0429(5) 0.4550(4) 0.3906(4)
O1 O 0.3465(4) 0.1249(4) 0.2582(3)
O2 O 0.4037(5) 0.1483(3) 0.4175(3)
O3 O 0.2433(5) -0.6930(4) 0.0362(3)
O4 O 0.2951(4) -0.6619(3) 0.1954(3)
O5 O -0.4858(4) -0.4955(3) 0.3432(3)
O6 O -0.4353(4) -0.3624(4) 0.4699(3)
O7 O 0.0971(4) 0.1401(4) 0.2295(3)
O8 O 0.1911(4) 0.2548(4) 0.3656(3)
O9 O 0.1436(5) -0.0567(3) 0.1022(3)
O10 O 0.0058(4) -0.1245(3) -0.0394(3)
O11 O 0.5904(4) 0.3056(4) 0.3588(3)
O12 O 0.6056(6) 0.2866(7) 0.2059(4)
O13 O 0.1759(5) 0.0695(4) -0.0619(3)
H19 H 0.1105 0.0179 -0.0812
H20 H 0.1683 0.1241 -0.0943
O14 O 0.4075(5) 0.1426(5) 0.0871(4)
O15 O 0.2896(4) 0.4866(3) 0.3935(3)
H23 H 0.4696 0.1882 0.1245
H24 H 0.3884 0.1370 0.1413
H25 H 0.3213 0.5550 0.3933
H26 H 0.2147 0.4851 0.3942
Gd1_2 Gd 0.20674(3) 1.13606(2) 0.110563(19)
Gd1_3 Gd 0.20674(3) -0.86394(2) 0.110563(19)
Gd1A Gd -0.20674(3) -0.13606(2) -0.110563(19)
Gd1A_2 Gd -0.20674(3) -1.13606(2) -0.110563(19)
Gd1_4 Gd 1.20674(3) 1.13606(2) 0.110563(19)
Gd2_2 Gd 0.39491(2) 1.33403(2) 0.365370(19)
Gd2_3 Gd 0.39491(2) -0.66597(2) 0.365370(19)
Gd2_4 Gd -0.60509(2) -0.66597(2) 0.365370(19)
Gd2A Gd -0.39491(2) -0.33403(2) 0.634630(19)
Gd2A_2 Gd 1.60509(2) 0.66597(2) 0.634630(19)
Gd2A_3 Gd 0.60509(2) 0.66597(2) 0.634630(19)
Gd2_5 Gd 1.39491(2) 1.33403(2) 0.365370(19)
C1_2 C 0.3723(5) 1.0866(5) 0.3383(4)
C2_2 C 0.3631(5) 0.9615(5) 0.3381(4)
C3_2 C 0.3572(6) 0.9172(5) 0.4237(5)
H1_2 H 0.3610 0.9640 0.4797
C4_2 C 0.3455(6) 0.8015(5) 0.4242(5)
H2_2 H 0.3400 0.7726 0.4814
C5_2 C 0.3503(6) 0.7740(5) 0.2640(4)
C6_2 C 0.3597(6) 0.8873(5) 0.2580(4)
H3_2 H 0.3638 0.9142 0.1997
C7_2 C 0.3452(6) 0.6902(5) 0.1810(4)
C8_2 C 0.3137(6) 0.5746(5) 0.1853(5)
H4_2 H 0.2919 0.5493 0.2397
C9_2 C 0.3150(6) 0.4980(5) 0.1088(4)
C10_2 C 0.3410(8) 0.5395(5) 0.0259(5)
H5_2 H 0.3379 0.4905 -0.0286
C11_2 C 0.3714(9) 0.6547(6) 0.0267(5)
H6_2 H 0.3915 0.6819 -0.0276
C12_2 C 0.2835(6) 0.3744(5) 0.1137(5)
C13_2 C 0.5678(5) 0.6010(5) 0.3867(4)
C14_2 C 0.6408(5) 0.6772(5) 0.3330(4)
C15_2 C 0.6458(7) 0.6385(5) 0.2408(5)
H7_2 H 0.6081 0.5648 0.2128
C16_2 C 0.7079(8) 0.7114(6) 0.1907(5)
H8_2 H 0.7078 0.6859 0.1275
C17_2 C 0.7668(6) 0.8517(5) 0.3191(5)
C18_2 C 0.7029(6) 0.7859(5) 0.3732(5)
H9_2 H 0.7018 0.8143 0.4354
C19_2 C 0.8451(6) 0.9658(5) 0.3627(4)
C20_2 C 0.9339(6) 1.0179(5) 0.3186(4)
H10_2 H 0.9418 0.9835 0.2605
C21_2 C 1.0104(6) 1.1213(5) 0.3619(5)
C22_2 C 0.9942(6) 1.1692(5) 0.4477(4)
H11_2 H 1.0442 1.2379 0.4796
C23_2 C 0.9016(7) 1.1125(6) 0.4856(5)
H12_2 H 0.8899 1.1464 0.5426
C24_2 C 1.1069(6) 1.1766(5) 0.3155(4)
C25A C -0.0688(6) -0.8655(5) -0.0435(5)
C26A C -0.0473(6) -0.7500(5) -0.0756(5)
C27A C -0.0422(7) -0.7354(6) -0.1686(5)
H13A H -0.0573 -0.7967 -0.2165
C28A C -0.0140(8) -0.6273(6) -0.1884(5)
H14A H -0.0052 -0.6169 -0.2502
C29A C -0.0070(6) -0.5509(5) -0.0343(5)
C30A C -0.0303(6) -0.6566(5) -0.0085(5)
H15A H -0.0347 -0.6655 0.0546
C31A C 1.3499(6) 0.6859(6) 0.7054(5)
C32A C 1.2130(6) 0.6367(5) 0.6716(5)
C33A C 1.1584(6) 0.5782(5) 0.5773(5)
H16A H 1.2070 0.5695 0.5342
C34A C 1.0301(6) 0.5329(5) 0.5487(4)
C35A C 1.0102(6) 0.6017(5) 0.6975(5)
H17A H 0.9594 0.6111 0.7386
C36A C 1.1357(6) 0.6481(6) 0.7327(5)
H18A H 1.1676 0.6858 0.7956
N1_2 N 0.3417(5) 0.7306(4) 0.3474(4)
N2_2 N 0.3733(6) 0.7289(4) 0.1019(4)
N3_2 N 0.8289(6) 1.0132(5) 0.4453(4)
N4_2 N 0.7682(6) 0.8167(5) 0.2287(4)
N5A N 0.0017(6) -0.5355(5) -0.1246(4)
N6A N 0.9571(5) 0.5450(4) 0.6094(4)
O1_2 O 0.3465(4) 1.1249(4) 0.2582(3)
O2_2 O 0.4037(5) 1.1483(3) 0.4175(3)
O3_2 O 0.2433(5) 0.3070(4) 0.0362(3)
O3_3 O 0.2433(5) 1.3070(4) 0.0362(3)
O4_2 O 0.2951(4) 0.3381(3) 0.1954(3)
O4_3 O 0.2951(4) 1.3381(3) 0.1954(3)
O5_2 O 0.5142(4) 0.5045(3) 0.3432(3)
O5_3 O 0.5142(4) 1.5045(3) 0.3432(3)
O6_2 O 0.5647(4) 0.6376(4) 0.4699(3)
O6A O 0.4353(4) 0.3624(4) 0.5301(3)
O6A_2 O 0.4353(4) 1.3624(4) 0.5301(3)
O7_2 O 1.0971(4) 1.1401(4) 0.2295(3)
O7_3 O 0.0971(4) 1.1401(4) 0.2295(3)
O8_2 O 1.1911(4) 1.2548(4) 0.3656(3)
O8_3 O 0.1911(4) 1.2548(4) 0.3656(3)
O9A O -0.1436(5) -0.9433(3) -0.1022(3)
O9_2 O 0.1436(5) 0.9433(3) 0.1022(3)
O10A O -0.0058(4) -0.8755(3) 0.0394(3)
O10A_2 O -0.0058(4) 0.1245(3) 0.0394(3)
O10A_3 O -0.0058(4) 1.1245(3) 0.0394(3)
O11A O 1.4096(4) 0.6944(4) 0.6412(3)
O11_2 O 0.5904(4) 1.3056(4) 0.3588(3)
O12A O 1.3944(6) 0.7134(7) 0.7941(4)
O13_2 O 0.1759(5) 1.0695(4) -0.0619(3)
H19_2 H 0.1105 1.0179 -0.0812
H20_2 H 0.1683 1.1241 -0.0943
O14_2 O 0.4075(5) 1.1426(5) 0.0871(4)
O15_2 O 0.2896(4) 1.4866(3) 0.3935(3)
H23_2 H 0.4696 1.1882 0.1245
H24_2 H 0.3884 1.1370 0.1413
H25_2 H 0.3213 1.5550 0.3933
H26_2 H 0.2147 1.4851 0.3942
O16 O 0.4635(7) 0.0798(5) 0.9229(5)
H21 H 0.5137 0.1375 0.9154
H22 H 0.4466 0.0995 0.9758
loop_
_geom_bond_atom_site_label_1
_geom_bond_atom_site_label_2
_geom_bond_site_symmetry_1
_geom_bond_site_symmetry_2
Gd1 O1 1_555 1_555
Gd2 O1 1_555 1_555
C1 C2 1_555 1_555
C2 C3 1_555 1_555
C3 H1 1_555 1_555
C4 C3 1_555 1_555
H2 C4 1_555 1_555
C5 C6 1_555 1_555
C6 C2 1_555 1_555
H3 C6 1_555 1_555
C7 C5 1_555 1_555
C8 C7 1_555 1_555
H4 C8 1_555 1_555
C9 C8 1_555 1_555
C10 C9 1_555 1_555
H5 C10 1_555 1_555
C11 C10 1_555 1_555
H6 C11 1_555 1_555
C12 C9 1_555 1_555
C13 C14 1_555 1_555
C14 C15 1_555 1_555
C15 H7 1_555 1_555
C16 C15 1_555 1_555
H8 C16 1_555 1_555
C17 C18 1_555 1_555
C18 C14 1_555 1_555
H9 C18 1_555 1_555
C19 C17 1_555 1_555
C20 C19 1_555 1_555
H10 C20 1_555 1_555
C21 C20 1_555 1_555
C22 C21 1_555 1_555
H11 C22 1_555 1_555
C23 C22 1_555 1_555
H12 C23 1_555 1_555
C24 C21 1_555 1_555
C25 C26 1_555 1_555
C26 C27 1_555 1_555
C27 H13 1_555 1_555
C28 C27 1_555 1_555
H14 C28 1_555 1_555
C29 C30 1_555 1_555
C30 C26 1_555 1_555
H15 C30 1_555 1_555
C31 C32 1_555 1_555
C32 C33 1_555 1_555
C33 H16 1_555 1_555
C34 C33 1_555 1_555
C35 H17 1_555 1_555
C36 C32 1_555 1_555
H18 C36 1_555 1_555
N1 C4 1_555 1_555
N2 C7 1_555 1_555
N3 C19 1_555 1_555
N4 C16 1_555 1_555
N5 C28 1_555 1_555
N6 C34 1_555 1_555
O1 C1 1_555 1_555
O2 Gd2 1_555 1_555
O3 C12 1_555 1_555
O4 C12 1_555 1_555
O5 C13 1_555 1_555
O6 C13 1_555 1_555
O7 Gd1 1_555 1_555
O8 Gd2 1_555 1_555
O9 Gd1 1_555 1_555
O10 C25 1_555 1_555
O11 Gd2 1_555 1_555
O12 C31 1_555 1_555
O13 Gd1 1_555 1_555
H19 O13 1_555 1_555
H20 O13 1_555 1_555
O14 Gd1 1_555 1_555
O15 Gd2 1_555 1_555
O16 H21 1_555 1_555
H22 O16 1_555 1_555
H23 O14 1_555 1_555
H24 O14 1_555 1_555
H25 O15 1_555 1_555
H26 O15 1_555 1_555
Gd1_2 O1_2 1_555 1_555
Gd1_3 O3 1_555 1_555
Gd1A O10 1_555 1_555
Gd1A_2 O9A 1_555 1_555
Gd1_4 O7_2 1_555 1_555
Gd2_2 O1_2 1_555 1_555
Gd2_3 O4 1_555 1_555
Gd2_4 O5 1_555 1_555
Gd2A O6 1_555 1_555
Gd2A_2 O11A 1_555 1_555
Gd2A_3 O6_2 1_555 1_555
Gd2_5 O8_2 1_555 1_555
C1_2 C2_2 1_555 1_555
C2_2 C3_2 1_555 1_555
C3_2 H1_2 1_555 1_555
C4_2 C3_2 1_555 1_555
H2_2 C4_2 1_555 1_555
C5_2 C6_2 1_555 1_555
C6_2 C2_2 1_555 1_555
H3_2 C6_2 1_555 1_555
C7_2 C5_2 1_555 1_555
C8_2 C7_2 1_555 1_555
H4_2 C8_2 1_555 1_555
C9_2 C8_2 1_555 1_555
C10_2 C9_2 1_555 1_555
H5_2 C10_2 1_555 1_555
C11_2 C10_2 1_555 1_555
H6_2 C11_2 1_555 1_555
C12_2 C9_2 1_555 1_555
C13_2 C14_2 1_555 1_555
C14_2 C15_2 1_555 1_555
C15_2 H7_2 1_555 1_555
C16_2 C15_2 1_555 1_555
H8_2 C16_2 1_555 1_555
C17_2 C18_2 1_555 1_555
C18_2 C14_2 1_555 1_555
H9_2 C18_2 1_555 1_555
C19_2 C17_2 1_555 1_555
C20_2 C19_2 1_555 1_555
H10_2 C20_2 1_555 1_555
C21_2 C20_2 1_555 1_555
C22_2 C21_2 1_555 1_555
H11_2 C22_2 1_555 1_555
C23_2 C22_2 1_555 1_555
H12_2 C23_2 1_555 1_555
C24_2 C21_2 1_555 1_555
C25A C26A 1_555 1_555
C26A C27A 1_555 1_555
C27A H13A 1_555 1_555
C28A C27A 1_555 1_555
H14A C28A 1_555 1_555
C29A C29 1_555 1_555
C30A C26A 1_555 1_555
H15A C30A 1_555 1_555
C31A C32A 1_555 1_555
C32A C33A 1_555 1_555
C33A H16A 1_555 1_555
C34A C34 1_555 1_555
C35A H17A 1_555 1_555
C36A C32A 1_555 1_555
H18A C36A 1_555 1_555
N1_2 C4_2 1_555 1_555
N2_2 C7_2 1_555 1_555
N3_2 C19_2 1_555 1_555
N4_2 C16_2 1_555 1_555
N5A C28A 1_555 1_555
N6A C34A 1_555 1_555
O1_2 C1_2 1_555 1_555
O2_2 Gd2_2 1_555 1_555
O3_2 Gd1 1_555 1_555
O3_3 Gd1_2 1_555 1_555
O4_2 Gd1 1_555 1_555
O4_3 Gd1_2 1_555 1_555
O5_2 Gd2 1_555 1_555
O5_3 Gd2_2 1_555 1_555
O6_2 C13_2 1_555 1_555
O6A Gd2 1_555 1_555
O6A_2 Gd2_2 1_555 1_555
O7_2 C24_2 1_555 1_555
O7_3 Gd1_2 1_555 1_555
O8_2 C24_2 1_555 1_555
O8_3 Gd2_2 1_555 1_555
O9A C25A 1_555 1_555
O9_2 Gd1_2 1_555 1_555
O10A Gd1_3 1_555 1_555
O10A_2 Gd1 1_555 1_555
O10A_3 Gd1_2 1_555 1_555
O11A C31A 1_555 1_555
O11_2 Gd2_2 1_555 1_555
O12A C31A 1_555 1_555
O13_2 Gd1_2 1_555 1_555
H19_2 O13_2 1_555 1_555
H20_2 O13_2 1_555 1_555
O14_2 Gd1_2 1_555 1_555
O15_2 Gd2_2 1_555 1_555
H23_2 O14_2 1_555 1_555
H24_2 O14_2 1_555 1_555
H25_2 O15_2 1_555 1_555
H26_2 O15_2 1_555 1_555
Gd2 O4_2 1_555 1_555
C1 O2 1_555 1_555
C5 N1 1_555 1_555
C11 N2 1_555 1_555
C17 N4 1_555 1_555
C23 N3 1_555 1_555
C24 O7 1_555 1_555
C24 O8 1_555 1_555
C25 O9 1_555 1_555
C29 N5 1_555 1_555
C31 O11 1_555 1_555
C35 C36 1_555 1_555
C35 N6 1_555 1_555
O4 Gd1_3 1_555 1_555
Gd2_2 O4_3 1_555 1_555
C1_2 O2_2 1_555 1_555
C5_2 N1_2 1_555 1_555
C11_2 N2_2 1_555 1_555
C12_2 O3_2 1_555 1_555
C12_2 O4_2 1_555 1_555
C13_2 O5_2 1_555 1_555
C17_2 N4_2 1_555 1_555
C23_2 N3_2 1_555 1_555
C25A O10A 1_555 1_555
C29A C30A 1_555 1_555
C29A N5A 1_555 1_555
C33A C34A 1_555 1_555
C35A C36A 1_555 1_555
C35A N6A 1_555 1_555

#END
