
#######################################################################
#
#                 Cambridge Crystallographic Data Centre
#                                CCDC 
#
#######################################################################
#
# If this CIF has been generated from an entry in the Cambridge 
# Structural Database, then it will include bibliographic, chemical, 
# crystal, experimental, refinement or atomic coordinate data resulting 
# from the CCDC's data processing and validation procedures.
#
#######################################################################

data_EHEPAJ
_symmetry_cell_setting           triclinic
_symmetry_space_group_name_H-M   'P -1'
_symmetry_Int_Tables_number      2
_space_group_name_Hall           '-P 1'
loop_
_symmetry_equiv_pos_site_id
_symmetry_equiv_pos_as_xyz
1 x,y,z
2 -x,-y,-z
_cell_length_a                   11.362(2)
_cell_length_b                   12.181(2)
_cell_length_c                   14.224(3)
_cell_angle_alpha                94.92(3)
_cell_angle_beta                 103.53(3)
_cell_angle_gamma                101.23(3)
_cell_volume                     1859.44
loop_
_atom_site_label
_atom_site_type_symbol
_atom_site_fract_x
_atom_site_fract_y
_atom_site_fract_z
Gd1 Gd 0.894441(15) 0.833882(13) 0.365092(12)
Gd2 Gd 0.706478(16) 0.635719(14) 0.110540(13)
O1 O 0.7901(3) 0.9844(3) 0.3937(2)
O2 O 0.9366(3) 0.8625(3) 0.5279(2)
O3 O 1.0875(3) 0.8069(3) 0.3575(3)
O4 O 0.3062(3) 0.2449(2) 0.6342(2)
O5 O 0.7953(3) 0.8364(2) 0.1959(2)
O6 O 0.9878(3) 0.9966(2) 0.6564(2)
O7 O 0.4950(3) 0.6245(2) 0.0394(2)
O8 O 0.9019(3) 1.6494(2) 0.4151(2)
O9 O 0.7415(4) 0.8057(3) 0.0369(2)
O10 O 0.8452(3) 1.6244(3) 0.2560(2)
O11 O 0.4018(3) 0.3613(3) 0.7715(2)
O12 O 0.6745(4) 0.5701(3) -0.0610(2)
O13 O 0.9038(4) 0.6423(5) 0.0874(3)
O14 O 0.3572(3) 0.5550(2) -0.1032(2)
O15 O 1.1030(4) 0.7856(5) 0.2049(3)
N1 N 0.8419(4) 1.2308(3) 0.3472(3)
N2 N 0.5008(5) 0.9644(3) -0.1245(3)
N3 N 0.7322(4) 0.6838(3) 0.7720(3)
N4 N 0.8739(5) 1.2280(3) 0.1010(3)
N5 N 1.5409(3) 0.9543(3) 0.3896(3)
N6 N 0.6711(4) 0.4857(3) 0.5550(3)
C1 C 0.8713(4) 1.5864(3) 0.3366(3)
C2 C 0.8633(4) 1.4611(3) 0.3379(3)
C3 C 0.8601(4) 1.3877(3) 0.2565(3)
H1 H 0.8647 1.4147 0.1980
C4 C 0.8498(4) 1.2733(3) 0.2640(3)
C5 C 0.8468(4) 1.3027(4) 0.4250(3)
H2 H 0.8422 1.2739 0.4829
C6 C 0.8584(4) 1.4183(3) 0.4243(3)
H3 H 0.8628 1.4658 0.4804
C7 C 1.1467(4) 0.8143(4) 0.2937(4)
C8 C 1.2858(4) 0.8636(4) 0.3289(3)
C9 C 1.3615(4) 0.8513(4) 0.2669(3)
H4 H 1.3282 0.8133 0.2038
C10 C 1.4874(4) 0.8966(4) 0.3010(3)
H5 H 1.5379 0.8863 0.2596
C11 C 1.4683(4) 0.9675(4) 0.4512(3)
C12 C 1.3410(4) 0.9220(4) 0.4217(4)
H6 H 1.2924 0.9310 0.4649
C13 C 0.9326(3) 0.8996(3) 0.6112(3)
C14 C 0.8611(4) 0.8238(3) 0.6673(3)
C15 C 0.7992(4) 0.7140(3) 0.6262(3)
H7 H 0.8015 0.6854 0.5641
C16 C 0.7332(4) 0.6475(4) 0.6806(3)
C17 C 0.7933(6) 0.7901(5) 0.8092(4)
H8 H 0.7934 0.8163 0.8726
C18 C 0.8558(5) 0.8628(4) 0.7592(4)
H9 H 0.8937 0.9369 0.7872
C19 C 0.7830(4) 0.8723(3) 0.1134(3)
C20 C 0.8142(4) 0.9972(3) 0.1082(3)
C21 C 0.8136(4) 1.0736(3) 0.1852(3)
H10 H 0.7925 1.0485 0.2402
C22 C 0.8450(4) 1.1893(3) 0.1797(3)
C23 C 0.8701(7) 1.1525(4) 0.0269(4)
H11 H 0.8884 1.1793 -0.0285
C24 C 0.8410(6) 1.0368(4) 0.0261(4)
H12 H 0.8395 0.9874 -0.0280
C25 C 0.4338(4) 0.6341(3) -0.0436(3)
C26 C 0.4526(4) 0.7489(3) -0.0758(4)
C27 C 0.4696(4) 0.8418(3) -0.0071(3)
H13 H 0.4662 0.8328 0.0565
C28 C 0.4917(4) 0.9482(3) -0.0350(3)
C29 C 0.4842(6) 0.8725(4) -0.1901(4)
H14 H 0.4907 0.8833 -0.2528
C30 C 0.4583(5) 0.7636(4) -0.1691(4)
H15 H 0.4450 0.7021 -0.2167
C31 C 0.3909(4) 0.3236(3) 0.6844(3)
C32 C 0.4891(4) 0.3776(3) 0.6376(3)
C33 C 0.5043(4) 0.3287(4) 0.5525(3)
H16 H 0.4542 0.2593 0.5213
C34 C 0.5967(5) 0.3855(4) 0.5133(4)
H17 H 0.6071 0.3521 0.4553
C35 C 0.6549(4) 0.5321(3) 0.6379(3)
C36 C 0.5657(4) 0.4817(4) 0.6812(3)
H18 H 0.5569 0.5169 0.7390
H19 H 0.918(7) 0.625(6) 0.031(6)
H20 H 0.672(6) 0.596(6) -0.123(5)
H21 H 0.616(7) 0.498(7) -0.064(5)
H22 H 0.697(6) 0.967(5) 0.395(4)
H23 H 0.819(7) 1.071(7) 0.406(6)
H24 H 0.973(8) 0.701(7) 0.126(6)
Gd1A Gd 0.105559(15) 0.166118(13) 0.634908(12)
Gd1A_2 Gd 1.105559(15) 1.166118(13) 0.634908(12)
Gd1_2 Gd 0.894441(15) 1.833882(13) 0.365092(12)
Gd1A_3 Gd 2.105559(15) 1.166118(13) 0.634908(12)
Gd1_3 Gd -0.105559(15) -0.166118(13) 0.365092(12)
Gd1_4 Gd 0.894441(15) -0.166118(13) 0.365092(12)
Gd2_2 Gd 0.706478(16) -0.364281(14) 0.110540(13)
Gd2_3 Gd 0.706478(16) 1.635719(14) 0.110540(13)
Gd2A Gd 0.293522(16) 0.364281(14) 0.889460(13)
Gd2A_2 Gd 0.293522(16) 0.364281(14) -0.110540(13)
Gd2A_3 Gd 0.293522(16) 1.364281(14) -0.110540(13)
O1A O 0.2099(3) 0.0156(3) 0.6063(2)
O2A O 0.0634(3) 0.1375(3) 0.4721(2)
O3A O 1.9125(3) 1.1931(3) 0.6425(3)
O3A_2 O -0.0875(3) 0.1931(3) 0.6425(3)
O4A O 0.6938(3) 0.7551(2) 0.3658(2)
O5_2 O 0.7953(3) -0.1636(2) 0.1959(2)
O5A O 0.2047(3) 0.1636(2) 0.8041(2)
O6A O 0.0122(3) 0.0034(2) 0.3436(2)
O6A_2 O 1.0122(3) 1.0034(2) 0.3436(2)
O6_2 O -0.0122(3) -0.0034(2) 0.6564(2)
O7A O 0.5050(3) 1.3755(2) -0.0394(2)
O7_2 O 0.4950(3) -0.3755(2) 0.0394(2)
O8_2 O 0.9019(3) 0.6494(2) 0.4151(2)
O8A O 0.0981(3) 0.3506(2) 0.5849(2)
O9_2 O 0.7415(4) -0.1943(3) 0.0369(2)
O10_2 O 0.8452(3) 0.6244(3) 0.2560(2)
O10A O 0.1548(3) 0.3756(3) 0.7440(2)
O10_3 O 0.8452(3) -0.3756(3) 0.2560(2)
O11A O 0.5982(3) 0.6387(3) 0.2285(2)
O11A_2 O 0.5982(3) -0.3613(3) 0.2285(2)
O12_2 O 0.6745(4) -0.4299(3) -0.0610(2)
O13_2 O 0.9038(4) -0.3577(5) 0.0874(3)
O14A O 0.6428(3) 1.4450(2) 0.1032(2)
O14A_2 O 0.6428(3) 0.4450(2) 0.1032(2)
O14A_3 O 0.6428(3) -0.5550(2) 0.1032(2)
O15A O 1.8970(4) 1.2144(5) 0.7951(3)
N1_2 N 0.8419(4) 0.2308(3) 0.3472(3)
N2A N 0.4992(5) 1.0356(3) 0.1245(3)
N3A N 0.2678(4) 0.3162(3) 0.2280(3)
N4_2 N 0.8739(5) 0.2280(3) 0.1010(3)
N5A N 1.4591(3) 1.0457(3) 0.6104(3)
N6A N 0.3289(4) 0.5143(3) 0.4450(3)
C1_2 C 0.8713(4) 0.5864(3) 0.3366(3)
C2_2 C 0.8633(4) 0.4611(3) 0.3379(3)
C3_2 C 0.8601(4) 0.3877(3) 0.2565(3)
H1_2 H 0.8647 0.4147 0.1980
C4_2 C 0.8498(4) 0.2733(3) 0.2640(3)
C5_2 C 0.8468(4) 0.3027(4) 0.4250(3)
H2_2 H 0.8422 0.2739 0.4829
C6_2 C 0.8584(4) 0.4183(3) 0.4243(3)
H3_2 H 0.8628 0.4658 0.4804
C7A C 1.8533(4) 1.1857(4) 0.7063(4)
C8A C 1.7142(4) 1.1364(4) 0.6711(3)
C9A C 1.6385(4) 1.1487(4) 0.7331(3)
H4A H 1.6718 1.1867 0.7962
C10A C 1.5126(4) 1.1034(4) 0.6990(3)
H5A H 1.4621 1.1137 0.7404
C11A C 1.5317(4) 1.0325(4) 0.5488(3)
C12A C 1.6590(4) 1.0780(4) 0.5783(4)
H6A H 1.7076 1.0690 0.5351
C13A C 0.0674(3) 0.1004(3) 0.3888(3)
C14A C 0.1389(4) 0.1762(3) 0.3327(3)
C15A C 0.2008(4) 0.2860(3) 0.3738(3)
H7A H 0.1985 0.3146 0.4359
C16A C 0.2668(4) 0.3525(4) 0.3194(3)
C17A C 0.2067(6) 0.2099(5) 0.1908(4)
H8A H 0.2066 0.1837 0.1274
C18A C 0.1442(5) 0.1372(4) 0.2408(4)
H9A H 0.1063 0.0631 0.2128
C19_2 C 0.7830(4) -0.1277(3) 0.1134(3)
C20_2 C 0.8142(4) -0.0028(3) 0.1082(3)
C21_2 C 0.8136(4) 0.0736(3) 0.1852(3)
H10_2 H 0.7925 0.0485 0.2402
C22_2 C 0.8450(4) 0.1893(3) 0.1797(3)
C23_2 C 0.8701(7) 0.1525(4) 0.0269(4)
H11_2 H 0.8884 0.1793 -0.0285
C24_2 C 0.8410(6) 0.0368(4) 0.0261(4)
H12_2 H 0.8395 -0.0126 -0.0280
C25A C 0.5662(4) 1.3659(3) 0.0436(3)
C26A C 0.5474(4) 1.2511(3) 0.0758(4)
C27A C 0.5304(4) 1.1582(3) 0.0071(3)
H13A H 0.5338 1.1672 -0.0565
C28A C 0.5083(4) 1.0518(3) 0.0350(3)
C29A C 0.5158(6) 1.1275(4) 0.1901(4)
H14A H 0.5093 1.1167 0.2528
C30A C 0.5417(5) 1.2364(4) 0.1691(4)
H15A H 0.5550 1.2979 0.2167
C31A C 0.6091(4) 0.6764(3) 0.3156(3)
C32A C 0.5109(4) 0.6224(3) 0.3624(3)
C33A C 0.4957(4) 0.6713(4) 0.4475(3)
H16A H 0.5458 0.7407 0.4787
C34A C 0.4033(5) 0.6145(4) 0.4867(4)
H17A H 0.3929 0.6479 0.5447
C35A C 0.3451(4) 0.4679(3) 0.3621(3)
C36A C 0.4343(4) 0.5183(4) 0.3188(3)
H18A H 0.4431 0.4831 0.2610
H19_2 H 0.918(7) -0.375(6) 0.031(6)
H20_2 H 0.672(6) -0.404(6) -0.123(5)
H21_2 H 0.616(7) -0.502(7) -0.064(5)
H22A H 0.303(6) 0.033(5) 0.605(4)
H23A H 0.181(7) -0.071(7) 0.594(6)
H24_2 H 0.973(8) -0.299(7) 0.126(6)
O16 O 0.9609(6) 0.5797(5) -0.0786(5)
loop_
_geom_bond_atom_site_label_1
_geom_bond_atom_site_label_2
_geom_bond_site_symmetry_1
_geom_bond_site_symmetry_2
Gd1 O1 1_555 1_555
Gd2 O5 1_555 1_555
O1 H22 1_555 1_555
O2 Gd1 1_555 1_555
O3 Gd1 1_555 1_555
O4 C31 1_555 1_555
O5 Gd1 1_555 1_555
O6 C13 1_555 1_555
O7 Gd2 1_555 1_555
O8 C1 1_555 1_555
O9 Gd2 1_555 1_555
O10 C1 1_555 1_555
O11 C31 1_555 1_555
O12 Gd2 1_555 1_555
O13 Gd2 1_555 1_555
O14 C25 1_555 1_555
O15 C7 1_555 1_555
N1 C4 1_555 1_555
N2 C28 1_555 1_555
N3 C16 1_555 1_555
N4 C22 1_555 1_555
N5 C10 1_555 1_555
N6 C34 1_555 1_555
C1 C2 1_555 1_555
C2 C3 1_555 1_555
C3 H1 1_555 1_555
C4 C3 1_555 1_555
C5 N1 1_555 1_555
H2 C5 1_555 1_555
C6 C2 1_555 1_555
H3 C6 1_555 1_555
C7 O3 1_555 1_555
C8 C7 1_555 1_555
C9 C8 1_555 1_555
H4 C9 1_555 1_555
C10 C9 1_555 1_555
H5 C10 1_555 1_555
C11 N5 1_555 1_555
C12 C8 1_555 1_555
H6 C12 1_555 1_555
C13 O2 1_555 1_555
C14 C13 1_555 1_555
C15 C14 1_555 1_555
H7 C15 1_555 1_555
C16 C15 1_555 1_555
C17 N3 1_555 1_555
H8 C17 1_555 1_555
C18 C14 1_555 1_555
H9 C18 1_555 1_555
C19 O5 1_555 1_555
C20 C19 1_555 1_555
C21 C20 1_555 1_555
H10 C21 1_555 1_555
C22 C4 1_555 1_555
C23 N4 1_555 1_555
H11 C23 1_555 1_555
C24 C20 1_555 1_555
H12 C24 1_555 1_555
C25 O7 1_555 1_555
C26 C25 1_555 1_555
C27 C26 1_555 1_555
H13 C27 1_555 1_555
C28 C27 1_555 1_555
C29 N2 1_555 1_555
H14 C29 1_555 1_555
C30 C26 1_555 1_555
H15 C30 1_555 1_555
C31 C32 1_555 1_555
C32 C33 1_555 1_555
C33 H16 1_555 1_555
C34 C33 1_555 1_555
H17 C34 1_555 1_555
C35 N6 1_555 1_555
C36 C32 1_555 1_555
H18 C36 1_555 1_555
H19 O13 1_555 1_555
H20 O12 1_555 1_555
H21 O12 1_555 1_555
H23 O1 1_555 1_555
H24 O13 1_555 1_555
Gd1A O4 1_555 1_555
Gd1A_2 O6 1_555 1_555
Gd1_2 O8 1_555 1_555
Gd1A_3 O3A 1_555 1_555
Gd1_3 O6A 1_555 1_555
Gd1_4 O5_2 1_555 1_555
Gd2_2 O5_2 1_555 1_555
Gd2_3 O10 1_555 1_555
Gd2A O11 1_555 1_555
Gd2A_2 O14 1_555 1_555
Gd2A_3 O7A 1_555 1_555
O1A Gd1A 1_555 1_555
O2A Gd1A 1_555 1_555
O3A C7A 1_555 1_555
O3A_2 Gd1A 1_555 1_555
O4A Gd1 1_555 1_555
O5_2 C19_2 1_555 1_555
O5A Gd1A 1_555 1_555
O6A C13A 1_555 1_555
O6A_2 Gd1 1_555 1_555
O6_2 Gd1A 1_555 1_555
O7A C25A 1_555 1_555
O7_2 Gd2_2 1_555 1_555
O8_2 Gd1 1_555 1_555
O8A Gd1A 1_555 1_555
O9_2 Gd2_2 1_555 1_555
O10_2 Gd1 1_555 1_555
O10A Gd1A 1_555 1_555
O10_3 Gd1_4 1_555 1_555
O11A Gd2 1_555 1_555
O11A_2 Gd2_2 1_555 1_555
O12_2 Gd2_2 1_555 1_555
O13_2 Gd2_2 1_555 1_555
O14A Gd2_3 1_555 1_555
O14A_2 Gd2 1_555 1_555
O14A_3 Gd2_2 1_555 1_555
O15A C7A 1_555 1_555
N1_2 C4_2 1_555 1_555
N2A C28A 1_555 1_555
N3A C16A 1_555 1_555
N4_2 C22_2 1_555 1_555
N5A C10A 1_555 1_555
N6A C34A 1_555 1_555
C1_2 O8_2 1_555 1_555
C2_2 C1_2 1_555 1_555
C3_2 C2_2 1_555 1_555
H1_2 C3_2 1_555 1_555
C4_2 C3_2 1_555 1_555
C5_2 N1_2 1_555 1_555
H2_2 C5_2 1_555 1_555
C6_2 C2_2 1_555 1_555
H3_2 C6_2 1_555 1_555
C7A C8A 1_555 1_555
C8A C9A 1_555 1_555
C9A H4A 1_555 1_555
C10A C9A 1_555 1_555
H5A C10A 1_555 1_555
C11A C11 1_555 1_555
C12A C8A 1_555 1_555
H6A C12A 1_555 1_555
C13A O2A 1_555 1_555
C14A C13A 1_555 1_555
C15A C14A 1_555 1_555
H7A C15A 1_555 1_555
C16A C15A 1_555 1_555
C17A N3A 1_555 1_555
H8A C17A 1_555 1_555
C18A C14A 1_555 1_555
H9A C18A 1_555 1_555
C19_2 O9_2 1_555 1_555
C20_2 C19_2 1_555 1_555
C21_2 C20_2 1_555 1_555
H10_2 C21_2 1_555 1_555
C22_2 C4_2 1_555 1_555
C23_2 N4_2 1_555 1_555
H11_2 C23_2 1_555 1_555
C24_2 C20_2 1_555 1_555
H12_2 C24_2 1_555 1_555
C25A O14A 1_555 1_555
C26A C25A 1_555 1_555
C27A C26A 1_555 1_555
H13A C27A 1_555 1_555
C28A C28 1_555 1_555
C29A N2A 1_555 1_555
H14A C29A 1_555 1_555
C30A C26A 1_555 1_555
H15A C30A 1_555 1_555
C31A O4A 1_555 1_555
C32A C31A 1_555 1_555
C33A C32A 1_555 1_555
H16A C33A 1_555 1_555
C34A C33A 1_555 1_555
H17A C34A 1_555 1_555
C35A N6A 1_555 1_555
C36A C32A 1_555 1_555
H18A C36A 1_555 1_555
H19_2 O13_2 1_555 1_555
H20_2 O12_2 1_555 1_555
H21_2 O12_2 1_555 1_555
H22A O1A 1_555 1_555
H23A O1A 1_555 1_555
H24_2 O13_2 1_555 1_555
Gd2 O10_2 1_555 1_555
O9 C19 1_555 1_555
O10 Gd1_2 1_555 1_555
C5 C6 1_555 1_555
C11 C12 1_555 1_555
C16 C35 1_555 1_555
C17 C18 1_555 1_555
C21 C22 1_555 1_555
C23 C24 1_555 1_555
C29 C30 1_555 1_555
C35 C36 1_555 1_555
Gd2_2 O10_3 1_555 1_555
Gd2A O5A 1_555 1_555
Gd2A O10A 1_555 1_555
O10_2 C1_2 1_555 1_555
O11A C31A 1_555 1_555
N5A C11A 1_555 1_555
C5_2 C6_2 1_555 1_555
C11A C12A 1_555 1_555
C16A C35A 1_555 1_555
C17A C18A 1_555 1_555
C21_2 C22_2 1_555 1_555
C23_2 C24_2 1_555 1_555
C27A C28A 1_555 1_555
C29A C30A 1_555 1_555
C35A C36A 1_555 1_555

#END
