
#######################################################################
#
#                 Cambridge Crystallographic Data Centre
#                                CCDC 
#
#######################################################################
#
# If this CIF has been generated from an entry in the Cambridge 
# Structural Database, then it will include bibliographic, chemical, 
# crystal, experimental, refinement or atomic coordinate data resulting 
# from the CCDC's data processing and validation procedures.
#
#######################################################################

data_EHETER
_symmetry_cell_setting           hexagonal
_symmetry_space_group_name_H-M   'P 64'
_symmetry_Int_Tables_number      172
_space_group_name_Hall           'P 64'
loop_
_symmetry_equiv_pos_site_id
_symmetry_equiv_pos_as_xyz
1 x,y,z
2 x-y,x,2/3+z
3 -y,x-y,1/3+z
4 -x,-y,z
5 -x+y,-x,2/3+z
6 y,-x+y,1/3+z
_cell_length_a                   8.47881(31)
_cell_length_b                   8.47881(31)
_cell_length_c                   12.8634(6)
_cell_angle_alpha                90
_cell_angle_beta                 90
_cell_angle_gamma                120
_cell_volume                     800.859
loop_
_atom_site_label
_atom_site_type_symbol
_atom_site_fract_x
_atom_site_fract_y
_atom_site_fract_z
Zn1 Zn 0.5000 1.0000 0.1680(6)
N1 N 0.3164(16) 0.8835(6) 0.2672(4)
C1 C 0.2823(11) 0.7670(6) 0.34699(34)
N2 N 0.1355(12) 0.7345(8) 0.4037(6)
C2 C 0.0744(14) 0.8381(15) 0.3561(9)
C3 C 0.1828(22) 0.9267(13) 0.2750(6)
C4 C 0.3966(18) 0.6819(15) 0.3693(8)
C5 C 0.5336(16) 0.7718(20) 0.4580(7)
H1 H -0.0293(16) 0.8425(22) 0.3798(14)
H2 H 0.1731(30) 1.0078(17) 0.2282(8)
H3 H 0.3168(25) 0.5548(12) 0.3864(19)
H4 H 0.4626(22) 0.687(4) 0.3067(11)
H5 H 0.632(8) 0.889(7) 0.4350(18)
H6 H 0.582(14) 0.694(10) 0.478(5)
H7 H 0.4733(26) 0.790(12) 0.517(4)
Zn1B Zn 0.0000 0.5000 0.5013(6)
Zn1B_2 Zn 1.0000 1.5000 0.5013(6)
N1C N 0.6836(16) 1.1165(6) 0.2672(4)
C1C C 0.7177(11) 1.2330(6) 0.34699(34)
N2C N 0.8645(12) 1.2655(8) 0.4037(6)
N2A N 0.4010(14) 1.1355(12) 0.0704(6)
N2D N 0.5990(14) 0.8645(12) 0.0704(6)
C2C C 0.9256(14) 1.1619(15) 0.3561(9)
C3C C 0.8172(22) 1.0733(13) 0.2750(6)
C4C C 0.6034(18) 1.3181(15) 0.3693(8)
C5C C 0.4664(16) 1.2282(20) 0.4580(7)
H1C H 1.0293(16) 1.1575(22) 0.3798(14)
H2C H 0.8269(30) 0.9922(17) 0.2282(8)
H3C H 0.6832(25) 1.4452(12) 0.3864(19)
H4C H 0.5374(22) 1.313(4) 0.3067(11)
H5C H 0.368(8) 1.111(7) 0.4350(18)
H6C H 0.418(14) 1.306(10) 0.478(5)
H7C H 0.5267(26) 1.210(12) 0.517(4)
loop_
_geom_bond_atom_site_label_1
_geom_bond_atom_site_label_2
_geom_bond_site_symmetry_1
_geom_bond_site_symmetry_2
Zn1 N1 1_555 1_555
N1 C1 1_555 1_555
C1 N2 1_555 1_555
N2 C2 1_555 1_555
C2 C3 1_555 1_555
C3 N1 1_555 1_555
C4 C1 1_555 1_555
C5 C4 1_555 1_555
H1 C2 1_555 1_555
H2 C3 1_555 1_555
H3 C4 1_555 1_555
H4 C4 1_555 1_555
H5 C5 1_555 1_555
H6 C5 1_555 1_555
H7 C5 1_555 1_555
Zn1B N2 1_555 1_555
Zn1B_2 N2C 1_555 1_555
N1C Zn1 1_555 1_555
C1C N1C 1_555 1_555
N2C C1C 1_555 1_555
N2A Zn1 1_555 1_555
N2D Zn1 1_555 1_555
C2C N2C 1_555 1_555
C3C N1C 1_555 1_555
C4C C1C 1_555 1_555
C5C C4C 1_555 1_555
H1C C2C 1_555 1_555
H2C C3C 1_555 1_555
H3C C4C 1_555 1_555
H4C C4C 1_555 1_555
H5C C5C 1_555 1_555
H6C C5C 1_555 1_555
H7C C5C 1_555 1_555
C2C C3C 1_555 1_555

#END
