
#######################################################################
#
#                 Cambridge Crystallographic Data Centre
#                                CCDC 
#
#######################################################################
#
# If this CIF has been generated from an entry in the Cambridge 
# Structural Database, then it will include bibliographic, chemical, 
# crystal, experimental, refinement or atomic coordinate data resulting 
# from the CCDC's data processing and validation procedures.
#
#######################################################################

data_EHETER01
_symmetry_cell_setting           trigonal
_symmetry_space_group_name_H-M   'P 32 2 1'
_symmetry_Int_Tables_number      154
_space_group_name_Hall           'P 32 2"'
loop_
_symmetry_equiv_pos_site_id
_symmetry_equiv_pos_as_xyz
1 x,y,z
2 -y,x-y,2/3+z
3 -x+y,-x,1/3+z
4 y,x,-z
5 x-y,-y,1/3-z
6 -x,-x+y,2/3-z
_cell_length_a                   8.4710(7)
_cell_length_b                   8.4710(7)
_cell_length_c                   12.8977(11)
_cell_angle_alpha                90
_cell_angle_beta                 90
_cell_angle_gamma                120
_cell_volume                     801.516
loop_
_atom_site_label
_atom_site_type_symbol
_atom_site_fract_x
_atom_site_fract_y
_atom_site_fract_z
Zn1 Zn 0.47472(5) 0.47472(5) 0.0000
N1 N 0.6671(3) 0.5672(4) 0.11110(18)
N2 N 0.8370(3) 0.5850(4) 0.24869(19)
C1 C 0.7882(5) 0.7467(5) 0.1305(2)
H1 H 0.7973 0.8446 0.0929
C2 C 0.8937(5) 0.7596(5) 0.2135(2)
H2 H 0.9873 0.8669 0.2415
C3 C 0.7003(4) 0.4764(5) 0.1854(2)
C4 C 0.5893(5) 0.2712(4) 0.1974(3)
H3 H 0.5220 0.2189 0.1339
H4 H 0.6718 0.2242 0.2074
C5 C 0.4564(7) 0.2099(6) 0.2873(3)
H5 H 0.3741 0.0810 0.2825
H6 H 0.3886 0.2728 0.2848
H7 H 0.5224 0.2371 0.3514
N1C N 0.5672(4) 0.6671(3) -0.11110(18)
N2C N 0.5850(4) 0.8370(3) -0.24869(19)
C1C C 0.7467(5) 0.7882(5) -0.1305(2)
H1C H 0.8446 0.7973 -0.0929
C2C C 0.7596(5) 0.8937(5) -0.2135(2)
H2C H 0.8669 0.9873 -0.2415
C3C C 0.4764(5) 0.7003(4) -0.1854(2)
C4C C 0.2712(4) 0.5893(5) -0.1974(3)
H3C H 0.2189 0.5220 -0.1339
H4C H 0.2242 0.6718 -0.2074
C5C C 0.2099(6) 0.4564(7) -0.2873(3)
H5C H 0.0810 0.3741 -0.2825
H6C H 0.2728 0.3886 -0.2848
H7C H 0.2371 0.5224 -0.3514
Zn1A Zn 0.52528(5) 1.00000(7) -0.3333
Zn1B Zn 1.00000(7) 0.52528(5) 0.3333
N2A N 0.4150(4) 0.2520(5) -0.08464(19)
N2D N 0.2520(5) 0.4150(4) 0.08464(19)
loop_
_geom_bond_atom_site_label_1
_geom_bond_atom_site_label_2
_geom_bond_site_symmetry_1
_geom_bond_site_symmetry_2
Zn1 N1 1_555 1_555
N1 C1 1_555 1_555
N2 C2 1_555 1_555
C1 H1 1_555 1_555
C2 C1 1_555 1_555
H2 C2 1_555 1_555
C3 N1 1_555 1_555
C4 C3 1_555 1_555
H3 C4 1_555 1_555
H4 C4 1_555 1_555
C5 C4 1_555 1_555
H5 C5 1_555 1_555
H6 C5 1_555 1_555
H7 C5 1_555 1_555
N1C Zn1 1_555 1_555
N2C C2C 1_555 1_555
C1C N1C 1_555 1_555
H1C C1C 1_555 1_555
C2C C1C 1_555 1_555
H2C C2C 1_555 1_555
C3C N1C 1_555 1_555
C4C C3C 1_555 1_555
H3C C4C 1_555 1_555
H4C C4C 1_555 1_555
C5C C4C 1_555 1_555
H5C C5C 1_555 1_555
H6C C5C 1_555 1_555
H7C C5C 1_555 1_555
Zn1A N2C 1_555 1_555
Zn1B N2 1_555 1_555
N2A Zn1 1_555 1_555
N2D Zn1 1_555 1_555
N2 C3 1_555 1_555
N2C C3C 1_555 1_555

#END
