
#######################################################################
#
#                 Cambridge Crystallographic Data Centre
#                                CCDC 
#
#######################################################################
#
# If this CIF has been generated from an entry in the Cambridge 
# Structural Database, then it will include bibliographic, chemical, 
# crystal, experimental, refinement or atomic coordinate data resulting 
# from the CCDC's data processing and validation procedures.
#
#######################################################################

data_EHEWAQ
_symmetry_cell_setting           monoclinic
_symmetry_space_group_name_H-M   'P 21/n'
_symmetry_Int_Tables_number      14
_space_group_name_Hall           '-P 2yn'
loop_
_symmetry_equiv_pos_site_id
_symmetry_equiv_pos_as_xyz
1 x,y,z
2 1/2-x,1/2+y,1/2-z
3 -x,-y,-z
4 1/2+x,1/2-y,1/2+z
_cell_length_a                   9.7306(7)
_cell_length_b                   17.0857(12)
_cell_length_c                   17.6917(12)
_cell_angle_alpha                90
_cell_angle_beta                 91.889(5)
_cell_angle_gamma                90
_cell_volume                     2939.72
loop_
_atom_site_label
_atom_site_type_symbol
_atom_site_fract_x
_atom_site_fract_y
_atom_site_fract_z
Cu1 Cu -0.28404(6) -0.72327(3) 0.06750(3)
N1 N -0.2509(4) -0.8333(2) 0.0349(2)
C1 C -0.3369(6) -0.8937(3) 0.0408(3)
H1 H -0.4191 -0.8870 0.0676
C2 C -0.3099(6) -0.9658(3) 0.0092(4)
H2 H -0.3713 -1.0084 0.0153
C3 C -0.1923(7) -0.9748(4) -0.0312(3)
H3 H -0.1717 -1.0239 -0.0533
C4 C -0.1055(6) -0.9126(3) -0.0393(3)
H4 H -0.0250 -0.9176 -0.0679
C5 C -0.1371(5) -0.8421(3) -0.0050(3)
C6 C -0.0419(5) -0.7719(3) -0.0080(3)
H5 H 0.0406 -0.7819 0.0249
H6 H -0.0113 -0.7652 -0.0604
N2 N -0.1089(4) -0.6991(2) 0.0167(2)
H7 H -0.0505 -0.6778 0.0539
C7 C -0.1242(6) -0.6378(3) -0.0433(3)
H8 H -0.1951 -0.6546 -0.0814
H9 H -0.0361 -0.6320 -0.0692
C8 C -0.1649(6) -0.5599(3) -0.0105(3)
H10 H -0.1543 -0.5190 -0.0496
H11 H -0.1005 -0.5472 0.0323
N3 N -0.4034(4) -0.7343(2) 0.1570(2)
C9 C -0.4080(5) -0.7955(3) 0.2055(3)
H12 H -0.3503 -0.8394 0.1977
C10 C -0.4937(5) -0.7960(3) 0.2656(3)
H13 H -0.4962 -0.8397 0.2986
C11 C -0.5766(6) -0.7312(3) 0.2771(3)
H14 H -0.6382 -0.7305 0.3177
C12 C -0.5688(5) -0.6681(3) 0.2293(3)
H15 H -0.6232 -0.6229 0.2374
C13 C -0.4812(5) -0.6708(3) 0.1694(3)
C14 C -0.4656(5) -0.6054(3) 0.1141(3)
H16 H -0.5360 -0.6100 0.0727
H17 H -0.4785 -0.5545 0.1397
N4 N -0.3269(4) -0.6091(2) 0.0830(2)
H18 H -0.2661 -0.5912 0.1208
C15 C -0.3113(6) -0.5567(3) 0.0173(3)
H19 H -0.3336 -0.5023 0.0319
H20 H -0.3764 -0.5726 -0.0240
O1 O -0.4572(4) -0.7198(3) -0.0249(2)
H21 H -0.4468 -0.7192 -0.0717
H22 H -0.5159 -0.7533 -0.0222
K1 K 0.03184(19) 0.11324(11) 0.24210(11)
Cr1 Cr -0.47052(8) -0.05735(4) 0.24253(4)
O2 O -0.3028(4) -0.0547(2) 0.18265(19)
O3 O -0.3636(3) 0.0174(2) 0.30651(19)
C16 C -0.2081(5) -0.0068(3) 0.2070(3)
C17 C -0.2460(5) 0.0353(3) 0.2816(3)
O4 O -0.0986(4) 0.0068(2) 0.1780(2)
O5 O -0.1635(4) 0.0804(2) 0.3115(2)
O6 O 0.0565(4) 0.3581(2) 0.31730(19)
O7 O -0.0952(3) 0.35469(19) 0.19467(19)
C18 C 0.0378(5) 0.2901(3) 0.2904(3)
C19 C -0.0482(5) 0.2877(3) 0.2151(3)
O8 O 0.0820(4) 0.2281(2) 0.3180(2)
O9 O -0.0677(4) 0.2254(2) 0.1813(2)
C20 C 0.2826(5) 0.0088(3) 0.2830(3)
C21 C 0.3234(5) 0.0495(3) 0.2084(3)
O10 O 0.4382(3) 0.0271(2) 0.18297(19)
O11 O 0.3669(3) -0.04525(19) 0.30548(19)
O12 O 0.1782(4) 0.0277(2) 0.3143(2)
O13 O 0.2455(4) 0.0985(2) 0.18018(19)
Cr1A Cr -0.02948(8) 0.44265(4) 0.25747(4)
Cr1_2 Cr 0.52948(8) -0.05735(4) 0.24253(4)
O6A O -0.5565(4) -0.1419(2) 0.18270(19)
O7A O -0.4048(3) -0.14531(19) 0.30533(19)
O10_2 O -0.5618(3) 0.0271(2) 0.18297(19)
O11_2 O -0.6331(3) -0.04525(19) 0.30548(19)
O14 O -0.2416(7) -0.1715(4) 0.0785(3)
H23 H -0.2242 -0.1330 0.0487
H24 H -0.3148 -0.1859 0.0599
O15 O -0.2279(7) -0.3324(4) 0.0717(3)
H25 H -0.3099 -0.3171 0.0651
H26 H -0.2446 -0.3708 0.1002
O16 O -0.8274(4) -0.6551(2) 0.0770(2)
H27 H -0.8268 -0.6200 0.1107
H28 H -0.7877 -0.6330 0.0407
O17 O -0.6840(5) 0.2042(2) 0.0694(3)
H29 H -0.7298 0.2433 0.0842
H30 H -0.6850 0.1712 0.1050
loop_
_geom_bond_atom_site_label_1
_geom_bond_atom_site_label_2
_geom_bond_site_symmetry_1
_geom_bond_site_symmetry_2
Cu1 N1 1_555 1_555
K1 O4 1_555 1_555
N1 C1 1_555 1_555
C1 H1 1_555 1_555
C2 C1 1_555 1_555
H2 C2 1_555 1_555
C3 C2 1_555 1_555
H3 C3 1_555 1_555
C4 C3 1_555 1_555
H4 C4 1_555 1_555
C5 N1 1_555 1_555
C6 C5 1_555 1_555
H5 C6 1_555 1_555
H6 C6 1_555 1_555
N2 Cu1 1_555 1_555
H7 N2 1_555 1_555
C7 N2 1_555 1_555
H8 C7 1_555 1_555
H9 C7 1_555 1_555
C8 C7 1_555 1_555
H10 C8 1_555 1_555
H11 C8 1_555 1_555
N3 Cu1 1_555 1_555
C9 N3 1_555 1_555
H12 C9 1_555 1_555
C10 C9 1_555 1_555
H13 C10 1_555 1_555
C11 C10 1_555 1_555
H14 C11 1_555 1_555
C12 C11 1_555 1_555
H15 C12 1_555 1_555
C13 N3 1_555 1_555
C14 C13 1_555 1_555
H16 C14 1_555 1_555
H17 C14 1_555 1_555
N4 Cu1 1_555 1_555
H18 N4 1_555 1_555
C15 C8 1_555 1_555
H19 C15 1_555 1_555
H20 C15 1_555 1_555
O1 Cu1 1_555 1_555
H21 O1 1_555 1_555
H22 O1 1_555 1_555
Cr1 O2 1_555 1_555
O2 C16 1_555 1_555
O3 Cr1 1_555 1_555
C16 C17 1_555 1_555
C17 O3 1_555 1_555
O4 C16 1_555 1_555
O5 K1 1_555 1_555
O6 C18 1_555 1_555
O7 C19 1_555 1_555
C18 C19 1_555 1_555
C19 O9 1_555 1_555
O8 K1 1_555 1_555
O9 K1 1_555 1_555
C20 C21 1_555 1_555
C21 O10 1_555 1_555
O10 Cr1_2 1_555 1_555
O11 C20 1_555 1_555
O12 K1 1_555 1_555
O13 K1 1_555 1_555
O14 H23 1_555 1_555
H24 O14 1_555 1_555
O15 H25 1_555 1_555
H26 O15 1_555 1_555
O16 H27 1_555 1_555
H28 O16 1_555 1_555
O17 H29 1_555 1_555
H30 O17 1_555 1_555
Cr1A O6 1_555 1_555
Cr1_2 O11 1_555 1_555
O6A Cr1 1_555 1_555
O7A Cr1 1_555 1_555
O10_2 Cr1 1_555 1_555
O11_2 Cr1 1_555 1_555
C4 C5 1_555 1_555
C6 N2 1_555 1_555
C12 C13 1_555 1_555
C14 N4 1_555 1_555
N4 C15 1_555 1_555
C17 O5 1_555 1_555
O7 Cr1A 1_555 1_555
C18 O8 1_555 1_555
C20 O12 1_555 1_555
C21 O13 1_555 1_555

#END
