
#######################################################################
#
#                 Cambridge Crystallographic Data Centre
#                                CCDC 
#
#######################################################################
#
# If this CIF has been generated from an entry in the Cambridge 
# Structural Database, then it will include bibliographic, chemical, 
# crystal, experimental, refinement or atomic coordinate data resulting 
# from the CCDC's data processing and validation procedures.
#
#######################################################################

data_EHEWOE
_symmetry_cell_setting           monoclinic
_symmetry_space_group_name_H-M   'P 21/m'
_symmetry_Int_Tables_number      11
_space_group_name_Hall           '-P 2yb'
loop_
_symmetry_equiv_pos_site_id
_symmetry_equiv_pos_as_xyz
1 x,y,z
2 -x,1/2+y,-z
3 -x,-y,-z
4 x,1/2-y,z
_cell_length_a                   9.858(2)
_cell_length_b                   6.5820(13)
_cell_length_c                   10.464(2)
_cell_angle_alpha                90
_cell_angle_beta                 112.43(3)
_cell_angle_gamma                90
_cell_volume                     627.595
loop_
_atom_site_label
_atom_site_type_symbol
_atom_site_fract_x
_atom_site_fract_y
_atom_site_fract_z
Cu1 Cu 1.0000 0.0000 0.5000
Cl1 Cl 0.79402(14) 0.2500 -0.00629(14)
N1 N 0.9924(4) 0.2500 0.7172(4)
O1 O 0.8391(2) 0.0784(4) 0.3278(2)
N2 N 0.9640(4) 0.2500 0.5920(4)
N3 N 0.5108(4) 0.2500 -0.0838(4)
C1 C 0.6441(5) 0.2500 0.1621(4)
C2 C 0.3854(5) 0.2500 -0.0626(5)
H1 H 0.2971 0.2500 -0.1389
N4 N 1.0155(5) 0.2500 0.8323(5)
C3 C 0.6342(5) 0.2500 0.0259(5)
C4 C 0.7877(5) 0.2500 0.2841(5)
C5 C 0.3813(5) 0.2500 0.0669(5)
H2 H 0.2921 0.2500 0.0781
C6 C 0.5116(5) 0.2500 0.1798(5)
H3 H 0.5109 0.2500 0.2685
O2 O 1.1666(4) 0.2500 0.4448(4)
C7 C 1.1747(8) 0.2500 0.3124(7)
H4 H 1.084(10) 0.2500 0.243(9)
H5 H 1.248(8) 0.2500 0.506(7)
H7 H 1.228(6) 0.142(8) 0.303(6)
Cu1A Cu 1.0000 0.5000 0.5000
O1C O 0.8391(2) 0.4216(4) 0.3278(2)
O1B O 1.1609(2) -0.0784(4) 0.6722(2)
N2A N 1.0360(4) -0.2500 0.4080(4)
O2A O 0.8334(4) -0.2500 0.5552(4)
H5A H 0.752(8) -0.2500 0.494(7)
H7C H 1.228(6) 0.358(8) 0.303(6)
O3 O 0.4542(5) 0.2500 0.6282(6)
C8 C 0.5786(11) 0.2500 0.6046(11)
H6 H 0.468(10) 0.2500 0.707(10)
H8 H 0.559(14) 0.2500 0.537(13)
H9 H 0.631(13) 0.16(2) 0.638(11)
H9C H 0.631(13) 0.34(2) 0.638(11)
loop_
_geom_bond_atom_site_label_1
_geom_bond_atom_site_label_2
_geom_bond_site_symmetry_1
_geom_bond_site_symmetry_2
Cu1 O1 1_555 1_555
Cl1 C3 1_555 1_555
N1 N2 1_555 1_555
O1 C4 1_555 1_555
N2 Cu1 1_555 1_555
N3 C2 1_555 1_555
C1 C3 1_555 1_555
C2 H1 1_555 1_555
N4 N1 1_555 1_555
C3 N3 1_555 1_555
C4 C1 1_555 1_555
C5 C2 1_555 1_555
H2 C5 1_555 1_555
C6 C1 1_555 1_555
H3 C6 1_555 1_555
O2 Cu1 1_555 1_555
C7 O2 1_555 1_555
O3 C8 1_555 1_555
C8 H8 1_555 1_555
H4 C7 1_555 1_555
H5 O2 1_555 1_555
H6 O3 1_555 1_555
H7 C7 1_555 1_555
H9 C8 1_555 1_555
Cu1A N2 1_555 1_555
O1C C4 1_555 1_555
O1B Cu1 1_555 1_555
N2A Cu1 1_555 1_555
O2A Cu1 1_555 1_555
H5A O2A 1_555 1_555
H7C C7 1_555 1_555
H9C C8 1_555 1_555
C5 C6 1_555 1_555
O2 Cu1A 1_555 1_555
Cu1A O1C 1_555 1_555

#END
