
#######################################################################
#
#                 Cambridge Crystallographic Data Centre
#                                CCDC 
#
#######################################################################
#
# If this CIF has been generated from an entry in the Cambridge 
# Structural Database, then it will include bibliographic, chemical, 
# crystal, experimental, refinement or atomic coordinate data resulting 
# from the CCDC's data processing and validation procedures.
#
#######################################################################

data_EHEXEV
_symmetry_cell_setting           monoclinic
_symmetry_space_group_name_H-M   'C 2/c'
_symmetry_Int_Tables_number      15
_space_group_name_Hall           '-C 2yn'
loop_
_symmetry_equiv_pos_site_id
_symmetry_equiv_pos_as_xyz
1 x,y,z
2 -x,y,1/2-z
3 1/2+x,1/2+y,z
4 1/2-x,1/2+y,1/2-z
5 -x,-y,-z
6 x,-y,1/2+z
7 1/2-x,1/2-y,-z
8 1/2+x,1/2-y,1/2+z
_cell_length_a                   20.1831(6)
_cell_length_b                   10.4606(3)
_cell_length_c                   21.2425(6)
_cell_angle_alpha                90
_cell_angle_beta                 104.678(2)
_cell_angle_gamma                90
_cell_volume                     4338.51
loop_
_atom_site_label
_atom_site_type_symbol
_atom_site_fract_x
_atom_site_fract_y
_atom_site_fract_z
C1 C -0.35759(14) 0.1159(3) -0.32245(13)
C2 C -0.36780(17) -0.1011(3) -0.31413(16)
H1 H -0.3503 -0.1796 -0.2972
C3 C -0.43178(17) -0.0956(3) -0.35712(16)
H2 H -0.4561 -0.1711 -0.3688
C4 C -0.42245(15) 0.1204(3) -0.36586(13)
C5 C -0.31451(14) 0.2335(3) -0.30001(13)
C6 C -0.45892(15) 0.2430(3) -0.39337(14)
C7 C -0.21993(18) 0.4301(3) -0.41907(15)
H3 H -0.2646 0.4039 -0.4381
C8 C -0.16940(18) 0.4389(3) -0.45063(16)
C9 C -0.13083(18) 0.4958(3) -0.34785(16)
H4 H -0.1014 0.5239 -0.3092
C10 C -0.1686(3) 0.4111(4) -0.51944(18)
H5 H -0.1573 0.4876 -0.5394
H6 H -0.2129 0.3813 -0.5430
H7 H -0.1349 0.3466 -0.5200
C11 C -0.39990(17) 0.5862(3) -0.41186(15)
H8 H -0.4248 0.5253 -0.3957
C12 C -0.37250(19) 0.7303(4) -0.47476(16)
H9 H -0.3743 0.7866 -0.5090
C13 C -0.31820(18) 0.7109(3) -0.42311(15)
C14 C -0.2492(2) 0.7731(4) -0.40821(19)
H10 H -0.2405 0.8145 -0.3666
H11 H -0.2481 0.8354 -0.4411
H12 H -0.2147 0.7095 -0.4074
C15 C -0.33730(19) 0.6059(3) -0.17016(17)
H13 H -0.3078 0.6754 -0.1598
C16 C -0.3809(2) 0.5661(4) -0.13468(17)
C17 C -0.38987(19) 0.4433(4) -0.21983(18)
H14 H -0.4046 0.3781 -0.2499
C18 C -0.3940(3) 0.6131(5) -0.0726(2)
H15 H -0.3871 0.5446 -0.0416
H16 H -0.4403 0.6433 -0.0807
H17 H -0.3630 0.6817 -0.0557
N1 N -0.33096(12) 0.0041(2) -0.29669(11)
N2 N -0.45987(13) 0.0142(3) -0.38244(12)
N3 N -0.19554(13) 0.4658(3) -0.35471(12)
N4 N -0.11284(15) 0.4805(3) -0.40432(14)
H18 H -0.0729 0.4943 -0.4103
N5 N -0.33623(13) 0.6191(2) -0.38344(12)
N6 N -0.42401(15) 0.6521(3) -0.46718(13)
H19 H -0.4643 0.6461 -0.4930
N7 N -0.34311(14) 0.5285(3) -0.22360(13)
N8 N -0.41348(16) 0.4624(3) -0.16694(14)
H20 H -0.4439 0.4170 -0.1554
O1 O -0.33180(11) 0.3322(2) -0.33281(10)
O2 O -0.26591(10) 0.2238(2) -0.25071(9)
O3 O -0.45709(13) 0.2756(2) -0.44883(10)
O4 O -0.49044(14) 0.2966(2) -0.35684(12)
Cd1 Cd -0.271830(11) 0.517570(19) -0.292270(9)
N1C N -0.16904(12) 0.5041(2) -0.20331(11)
O2C O -0.23409(10) 0.7238(2) -0.24929(9)
Cd1C Cd -0.228170(11) 0.017570(19) -0.207730(9)
O5 O -0.5000 0.1429(4) -0.2500
H21 H -0.501(3) 0.193(4) -0.2799(18)
H21A H -0.499(3) 0.193(4) -0.2201(18)
loop_
_geom_bond_atom_site_label_1
_geom_bond_atom_site_label_2
_geom_bond_site_symmetry_1
_geom_bond_site_symmetry_2
C1 C4 1_555 1_555
C2 H1 1_555 1_555
C3 C2 1_555 1_555
H2 C3 1_555 1_555
C4 C6 1_555 1_555
C5 C1 1_555 1_555
C6 O3 1_555 1_555
C7 H3 1_555 1_555
C8 C7 1_555 1_555
C9 H4 1_555 1_555
C10 C8 1_555 1_555
H5 C10 1_555 1_555
H6 C10 1_555 1_555
H7 C10 1_555 1_555
C11 H8 1_555 1_555
C12 H9 1_555 1_555
C13 C12 1_555 1_555
C14 C13 1_555 1_555
H10 C14 1_555 1_555
H11 C14 1_555 1_555
H12 C14 1_555 1_555
C15 H13 1_555 1_555
C16 C15 1_555 1_555
C17 H14 1_555 1_555
C18 C16 1_555 1_555
H15 C18 1_555 1_555
H16 C18 1_555 1_555
H17 C18 1_555 1_555
N1 C1 1_555 1_555
N2 C3 1_555 1_555
N3 C7 1_555 1_555
N4 C8 1_555 1_555
H18 N4 1_555 1_555
N5 C11 1_555 1_555
N6 C11 1_555 1_555
H19 N6 1_555 1_555
N7 C15 1_555 1_555
N8 C16 1_555 1_555
H20 N8 1_555 1_555
O1 C5 1_555 1_555
O2 C5 1_555 1_555
O4 C6 1_555 1_555
Cd1 N3 1_555 1_555
O5 H21 1_555 1_555
N1C Cd1 1_555 1_555
O2C Cd1 1_555 1_555
Cd1C N1 1_555 1_555
H21A O5 1_555 1_555
C2 N1 1_555 1_555
C4 N2 1_555 1_555
C9 N3 1_555 1_555
C9 N4 1_555 1_555
C12 N6 1_555 1_555
C13 N5 1_555 1_555
C17 N7 1_555 1_555
C17 N8 1_555 1_555
N5 Cd1 1_555 1_555
N7 Cd1 1_555 1_555
O1 Cd1 1_555 1_555
O2 Cd1C 1_555 1_555

#END
