
#######################################################################
#
#                 Cambridge Crystallographic Data Centre
#                                CCDC 
#
#######################################################################
#
# If this CIF has been generated from an entry in the Cambridge 
# Structural Database, then it will include bibliographic, chemical, 
# crystal, experimental, refinement or atomic coordinate data resulting 
# from the CCDC's data processing and validation procedures.
#
#######################################################################

data_EHEYOF
_symmetry_cell_setting           monoclinic
_symmetry_space_group_name_H-M   'P 21/a'
_symmetry_Int_Tables_number      14
_space_group_name_Hall           '-P 2yab'
loop_
_symmetry_equiv_pos_site_id
_symmetry_equiv_pos_as_xyz
1 x,y,z
2 1/2+x,1/2-y,z
3 -x,-y,-z
4 1/2-x,1/2+y,-z
_cell_length_a                   7.653(3)
_cell_length_b                   9.689(2)
_cell_length_c                   11.005(4)
_cell_angle_alpha                90
_cell_angle_beta                 98.35(3)
_cell_angle_gamma                90
_cell_volume                     807.37
loop_
_atom_site_label
_atom_site_type_symbol
_atom_site_fract_x
_atom_site_fract_y
_atom_site_fract_z
Cd1 Cd 0.0000 0.0000 0.0000
Br1 Br 0.25076(9) 0.09825(7) -0.57891(6)
S1 S 0.3272(2) 0.0258(2) 0.1289(2)
C1 C 0.3899(8) 0.1695(7) 0.0651(6)
N1 N 0.4370(7) 0.2683(6) 0.0223(5)
N2 N 0.1111(6) 0.0537(6) -0.1825(5)
C2 C 0.0600(9) 0.1658(7) -0.2504(6)
H1 H -0.0059(9) 0.2327(7) -0.2170(6)
C3 C 0.1004(9) 0.1868(7) -0.3674(6)
H2 H 0.0615(9) 0.2649(7) -0.4124(6)
C4 C 0.2006(9) 0.0876(7) -0.4150(6)
C5 C 0.2588(8) -0.0270(7) -0.3450(7)
H3 H 0.3286(8) -0.0937(7) -0.3753(7)
C6 C 0.2112(8) -0.0397(7) -0.2304(6)
H4 H 0.2500(8) -0.1166(7) -0.1835(6)
S1B S -0.3272(2) -0.0258(2) -0.1289(2)
C1B C -0.3899(8) -0.1695(7) -0.0651(6)
N1B N -0.4370(7) -0.2683(6) -0.0223(5)
Br1B Br -0.25076(9) -0.09825(7) 0.57891(6)
N2B N -0.1111(6) -0.0537(6) 0.1825(5)
C2B C -0.0600(9) -0.1658(7) 0.2504(6)
H1B H 0.0059(9) -0.2327(7) 0.2170(6)
C3B C -0.1004(9) -0.1868(7) 0.3674(6)
H2B H -0.0615(9) -0.2649(7) 0.4124(6)
C4B C -0.2006(9) -0.0876(7) 0.4150(6)
C5B C -0.2588(8) 0.0270(7) 0.3450(7)
H3B H -0.3286(8) 0.0937(7) 0.3753(7)
C6B C -0.2112(8) 0.0397(7) 0.2304(6)
H4B H -0.2500(8) 0.1166(7) 0.1835(6)
N1A N -0.0630(7) 0.2317(6) 0.0223(5)
N1C N 0.0630(7) -0.2317(6) -0.0223(5)
Cd1A Cd 0.5000 0.5000 0.0000
Cd1A_2 Cd -0.5000 -0.5000 0.0000
loop_
_geom_bond_atom_site_label_1
_geom_bond_atom_site_label_2
_geom_bond_site_symmetry_1
_geom_bond_site_symmetry_2
Cd1 S1 1_555 1_555
Br1 C4 1_555 1_555
S1 C1 1_555 1_555
C1 N1 1_555 1_555
N1 Cd1A 1_555 1_555
N2 Cd1 1_555 1_555
C2 N2 1_555 1_555
H1 C2 1_555 1_555
C3 C2 1_555 1_555
H2 C3 1_555 1_555
C4 C3 1_555 1_555
C5 C4 1_555 1_555
H3 C5 1_555 1_555
C6 N2 1_555 1_555
H4 C6 1_555 1_555
S1B Cd1 1_555 1_555
C1B S1B 1_555 1_555
N1B C1B 1_555 1_555
Br1B C4B 1_555 1_555
N2B Cd1 1_555 1_555
C2B N2B 1_555 1_555
H1B C2B 1_555 1_555
C3B C2B 1_555 1_555
H2B C3B 1_555 1_555
C4B C3B 1_555 1_555
C5B C4B 1_555 1_555
H3B C5B 1_555 1_555
C6B N2B 1_555 1_555
H4B C6B 1_555 1_555
N1A Cd1 1_555 1_555
N1C Cd1 1_555 1_555
Cd1A_2 N1B 1_555 1_555
C5 C6 1_555 1_555
C5B C6B 1_555 1_555

#END
