
#######################################################################
#
#                 Cambridge Crystallographic Data Centre
#                                CCDC 
#
#######################################################################
#
# If this CIF has been generated from an entry in the Cambridge 
# Structural Database, then it will include bibliographic, chemical, 
# crystal, experimental, refinement or atomic coordinate data resulting 
# from the CCDC's data processing and validation procedures.
#
#######################################################################

data_EHEYUL
_symmetry_cell_setting           monoclinic
_symmetry_space_group_name_H-M   'P 21/c'
_symmetry_Int_Tables_number      14
_space_group_name_Hall           '-P 2ybc'
loop_
_symmetry_equiv_pos_site_id
_symmetry_equiv_pos_as_xyz
1 x,y,z
2 x,1/2-y,1/2+z
3 -x,-y,-z
4 -x,1/2+y,1/2-z
_cell_length_a                   10.408(4)
_cell_length_b                   13.954(5)
_cell_length_c                   21.347(8)
_cell_angle_alpha                90
_cell_angle_beta                 95.557(7)
_cell_angle_gamma                90
_cell_volume                     3085.72
loop_
_atom_site_label
_atom_site_type_symbol
_atom_site_fract_x
_atom_site_fract_y
_atom_site_fract_z
Nd1 Nd 0.43592(4) 0.56675(3) 0.690361(19)
Nd2 Nd 0.63787(4) 0.80611(3) 0.760750(18)
O1 O 0.7749(5) 0.6881(3) 0.8152(2)
O2 O 0.6003(5) 0.6164(3) 0.7727(2)
O3 O 0.5675(5) 0.2561(3) 0.8035(2)
O4 O 0.7306(5) 0.1803(3) 0.8549(2)
O5 O 0.2819(5) 0.4190(3) 0.6526(2)
O6 O 0.3808(5) 0.5026(3) 0.5849(2)
O7 O 0.4004(5) 0.3868(4) 0.3681(2)
O8 O 0.2935(5) 0.2540(3) 0.3358(2)
O9 O 0.5048(5) 0.2751(3) 0.6476(2)
O10 O 0.5440(5) 0.4104(3) 0.6994(2)
O11 O 1.0023(6) 0.5355(4) 0.6975(3)
O12 O 1.0522(5) 0.5654(4) 0.6004(2)
H1 H 1.1114 0.5957 0.6193
O13 O 0.3808(5) 0.4652(3) 0.7833(2)
O14 O 0.2956(5) 0.6086(3) 0.7776(2)
O15 O 0.4940(6) 0.3165(4) 0.9879(3)
O16 O 0.4077(6) 0.3717(4) 1.0732(2)
H2 H 0.4415 0.3239 1.0899
O17 O 0.8640(6) 0.8583(4) 0.7489(3)
C1 C 0.7113(8) 0.6132(5) 0.8031(3)
C2 C 0.7680(7) 0.5194(5) 0.8272(3)
C3 C 0.8969(8) 0.5166(5) 0.8530(4)
H3 H 0.9461 0.5723 0.8562
C4 C 0.9498(8) 0.4314(6) 0.8734(4)
H4 H 1.0350 0.4295 0.8911
C5 C 0.8788(8) 0.3480(5) 0.8682(4)
H5 H 0.9166 0.2904 0.8819
C6 C 0.7520(7) 0.3496(5) 0.8428(3)
C7 C 0.6797(8) 0.2581(5) 0.8339(3)
C8 C 0.6965(7) 0.4357(5) 0.8235(3)
H6 H 0.6100 0.4375 0.8077
C9 C 0.3100(7) 0.4338(5) 0.5960(3)
C10 C 0.2585(7) 0.3686(5) 0.5436(3)
C11 C 0.1670(7) 0.3003(5) 0.5531(3)
H7 H 0.1356 0.2946 0.5922
C12 C 0.1213(8) 0.2397(5) 0.5040(4)
H8 H 0.0578 0.1945 0.5096
C13 C 0.1719(7) 0.2481(5) 0.4472(4)
H9 H 0.1430 0.2068 0.4147
C14 C 0.2639(7) 0.3155(5) 0.4368(3)
C15 C 0.3227(7) 0.3198(5) 0.3750(3)
C16 C 0.3067(8) 0.3772(5) 0.4860(3)
H10 H 0.3678 0.4240 0.4799
C17 C 0.5736(8) 0.3496(5) 0.6571(3)
C18 C 0.6842(8) 0.3714(5) 0.6211(4)
C19 C 0.6892(8) 0.3358(5) 0.5604(4)
H11 H 0.6251 0.2947 0.5429
C20 C 0.7876(9) 0.3615(6) 0.5270(4)
H12 H 0.7896 0.3378 0.4864
C21 C 0.8856(8) 0.4220(5) 0.5515(3)
H13 H 0.9519 0.4393 0.5276
C22 C 0.8830(8) 0.4563(5) 0.6125(3)
C23 C 0.9844(8) 0.5220(6) 0.6416(4)
C24 C 0.7834(8) 0.4310(5) 0.6468(3)
H14 H 0.7820 0.4539 0.6876
C25 C 0.3249(7) 0.5354(5) 0.8080(3)
C26 C 0.3037(7) 0.5280(5) 0.8765(3)
C27 C 0.2292(8) 0.5949(5) 0.9047(4)
H15 H 0.1882 0.6437 0.8808
C28 C 0.2159(8) 0.5891(5) 0.9682(3)
H16 H 0.1669 0.6344 0.9873
C29 C 0.2759(8) 0.5149(5) 1.0040(4)
H17 H 0.2645 0.5094 1.0465
C30 C 0.3521(7) 0.4501(5) 0.9761(3)
C31 C 0.4259(8) 0.3719(6) 1.0113(4)
C32 C 0.3644(7) 0.4550(5) 0.9124(3)
H18 H 0.4134 0.4095 0.8936
H19 H 0.884(6) 0.917(2) 0.768(3)
H20 H 0.937(4) 0.820(4) 0.754(3)
O3C O 0.4325(5) 0.7561(3) 0.6965(2)
O4C O 0.2694(5) 0.6803(3) 0.6451(2)
O7B O 0.5996(5) 0.6132(4) 0.6319(2)
O5C O 0.7181(5) 0.9190(3) 0.8474(2)
O8B O 0.7065(5) 0.7460(3) 0.6642(2)
O9C O 0.4952(5) 0.7751(3) 0.8524(2)
O10C O 0.4560(5) 0.9104(3) 0.8006(2)
O13C O 0.6192(5) 0.9652(3) 0.7167(2)
Nd1C Nd 0.56408(4) 0.06675(3) 0.809639(19)
Nd2C Nd 0.36213(4) 0.30611(3) 0.739250(18)
Nd1B Nd 0.56408(4) 0.43325(3) 0.309639(19)
Nd2B Nd 0.36213(4) 0.19389(3) 0.239250(18)
O18 O 0.9495(7) 0.2180(5) 0.7367(4)
H21 H 0.970(5) 0.160(3) 0.757(3)
H22 H 0.862(2) 0.229(4) 0.738(4)
loop_
_geom_bond_atom_site_label_1
_geom_bond_atom_site_label_2
_geom_bond_site_symmetry_1
_geom_bond_site_symmetry_2
Nd1 O2 1_555 1_555
Nd2 O1 1_555 1_555
O1 C1 1_555 1_555
O2 Nd2 1_555 1_555
O3 C7 1_555 1_555
O4 C7 1_555 1_555
O5 Nd1 1_555 1_555
O6 Nd1 1_555 1_555
O7 C15 1_555 1_555
O8 C15 1_555 1_555
O9 C17 1_555 1_555
O10 Nd1 1_555 1_555
O11 C23 1_555 1_555
O12 H1 1_555 1_555
O13 Nd1 1_555 1_555
O14 Nd1 1_555 1_555
O15 C31 1_555 1_555
O16 H2 1_555 1_555
O17 Nd2 1_555 1_555
C1 O2 1_555 1_555
C2 C1 1_555 1_555
C3 C2 1_555 1_555
H3 C3 1_555 1_555
C4 C3 1_555 1_555
H4 C4 1_555 1_555
C5 C4 1_555 1_555
H5 C5 1_555 1_555
C6 C5 1_555 1_555
C7 C6 1_555 1_555
C8 C2 1_555 1_555
H6 C8 1_555 1_555
C9 O5 1_555 1_555
C10 C9 1_555 1_555
C11 C10 1_555 1_555
H7 C11 1_555 1_555
C12 C11 1_555 1_555
H8 C12 1_555 1_555
C13 C12 1_555 1_555
H9 C13 1_555 1_555
C14 C13 1_555 1_555
C15 C14 1_555 1_555
C16 C10 1_555 1_555
H10 C16 1_555 1_555
C17 O10 1_555 1_555
C18 C17 1_555 1_555
C19 C18 1_555 1_555
H11 C19 1_555 1_555
C20 C19 1_555 1_555
H12 C20 1_555 1_555
C21 C20 1_555 1_555
H13 C21 1_555 1_555
C22 C21 1_555 1_555
C23 O12 1_555 1_555
C24 C18 1_555 1_555
H14 C24 1_555 1_555
C25 O13 1_555 1_555
C26 C25 1_555 1_555
C27 C26 1_555 1_555
H15 C27 1_555 1_555
C28 C27 1_555 1_555
H16 C28 1_555 1_555
C29 C28 1_555 1_555
H17 C29 1_555 1_555
C30 C29 1_555 1_555
C31 O16 1_555 1_555
C32 C26 1_555 1_555
H18 C32 1_555 1_555
O18 H21 1_555 1_555
H19 O17 1_555 1_555
H20 O17 1_555 1_555
H22 O18 1_555 1_555
O3C Nd1 1_555 1_555
O4C Nd1 1_555 1_555
O7B Nd1 1_555 1_555
O5C Nd2 1_555 1_555
O8B Nd2 1_555 1_555
O9C Nd2 1_555 1_555
O10C Nd2 1_555 1_555
O13C Nd2 1_555 1_555
Nd1C O3 1_555 1_555
Nd2C O3 1_555 1_555
Nd1B O7 1_555 1_555
Nd2B O8 1_555 1_555
Nd2 O3C 1_555 1_555
O4 Nd1C 1_555 1_555
O5 Nd2C 1_555 1_555
O6 C9 1_555 1_555
O9 Nd2C 1_555 1_555
O10 Nd2C 1_555 1_555
O13 Nd2C 1_555 1_555
O14 C25 1_555 1_555
C6 C8 1_555 1_555
C14 C16 1_555 1_555
C22 C23 1_555 1_555
C22 C24 1_555 1_555
C30 C31 1_555 1_555
C30 C32 1_555 1_555

#END
