
#######################################################################
#
#                 Cambridge Crystallographic Data Centre
#                                CCDC 
#
#######################################################################
#
# If this CIF has been generated from an entry in the Cambridge 
# Structural Database, then it will include bibliographic, chemical, 
# crystal, experimental, refinement or atomic coordinate data resulting 
# from the CCDC's data processing and validation procedures.
#
#######################################################################

data_EHEYIZ
_symmetry_cell_setting           monoclinic
_symmetry_space_group_name_H-M   'P 21/n'
_symmetry_Int_Tables_number      14
_space_group_name_Hall           '-P 2yn'
loop_
_symmetry_equiv_pos_site_id
_symmetry_equiv_pos_as_xyz
1 x,y,z
2 1/2+x,1/2-y,1/2+z
3 -x,-y,-z
4 1/2-x,1/2+y,1/2-z
_cell_length_a                   13.638(4)
_cell_length_b                   7.574(2)
_cell_length_c                   16.362(6)
_cell_angle_alpha                90
_cell_angle_beta                 100.42(3)
_cell_angle_gamma                90
_cell_volume                     1662.23
loop_
_atom_site_label
_atom_site_type_symbol
_atom_site_fract_x
_atom_site_fract_y
_atom_site_fract_z
Cd1 Cd 0.96280(2) 0.25046(4) 0.096455(15)
N1 N 0.8911(2) 0.3063(5) -0.0425(2)
N2 N 0.9350(2) 0.3876(4) -0.0851(2)
N3 N 0.9778(2) 0.4656(4) -0.1303(2)
N4 N 1.1082(2) 0.1907(5) 0.0418(2)
N5 N 1.1050(2) 0.1103(4) -0.0195(2)
N6 N 1.1056(2) 0.0340(4) -0.0824(2)
N7 N 1.0474(2) 0.1543(4) 0.2240(2)
C1 C 1.0877(3) -0.0064(5) 0.2286(2)
H1 H 1.0731(3) -0.0794(5) 0.1823(2)
C2 C 1.1500(3) -0.0706(5) 0.2980(2)
C3 C 1.1695(3) 0.0398(5) 0.3667(2)
H2 H 1.2107(3) 0.0005(5) 0.4148(2)
C4 C 1.1284(3) 0.2081(5) 0.3649(2)
C5 C 1.0674(3) 0.2591(5) 0.2909(2)
H3 H 1.0392(3) 0.3713(5) 0.2878(2)
C6 C 1.1952(3) -0.2524(5) 0.2980(3)
H4 H 1.2500(13) -0.2494(10) 0.2685(15)
H5 H 1.1458(6) -0.3340(9) 0.2713(15)
H6 H 1.2188(19) -0.2896(16) 0.3542(3)
C7 C 1.1490(3) 0.3306(6) 0.4375(2)
H7 H 1.1090(16) 0.4350(17) 0.4257(7)
H8 H 1.2182(5) 0.3624(30) 0.4479(11)
H9 H 1.1328(20) 0.2731(15) 0.4857(5)
N8 N 0.8129(2) 0.3537(4) 0.1268(2)
C8 C 0.7789(3) 0.5103(5) 0.0976(2)
H10 H 0.8203(3) 0.5808(5) 0.0721(2)
C9 C 0.6849(3) 0.5741(5) 0.1031(2)
C10 C 0.6254(3) 0.4670(6) 0.1425(2)
H11 H 0.5621(3) 0.5056(6) 0.1478(2)
C11 C 0.6582(3) 0.3044(6) 0.1740(2)
C12 C 0.7538(3) 0.2526(5) 0.1645(2)
H12 H 0.7774(3) 0.1432(5) 0.1852(2)
C13 C 0.6507(3) 0.7520(6) 0.0674(3)
H13 H 0.6061(19) 0.8038(19) 0.0998(12)
H14 H 0.6167(21) 0.7377(8) 0.0110(7)
H15 H 0.7074(4) 0.8276(15) 0.0685(18)
C14 C 0.5939(3) 0.1856(6) 0.2163(3)
H16 H 0.5873(19) 0.2356(21) 0.2689(9)
H17 H 0.6244(12) 0.0713(13) 0.2249(17)
H18 H 0.5292(8) 0.1744(33) 0.1820(9)
N3B N 1.0222(2) 0.5344(4) 0.1303(2)
N6B N 0.8944(2) -0.0340(4) 0.0824(2)
Cd1B Cd 1.03720(2) 0.74954(4) -0.096455(15)
Cd1B_2 Cd 1.03720(2) -0.25046(4) -0.096455(15)
loop_
_geom_bond_atom_site_label_1
_geom_bond_atom_site_label_2
_geom_bond_site_symmetry_1
_geom_bond_site_symmetry_2
Cd1 N1 1_555 1_555
N1 N2 1_555 1_555
N2 N3 1_555 1_555
N3 Cd1B 1_555 1_555
N4 Cd1 1_555 1_555
N5 N4 1_555 1_555
N6 N5 1_555 1_555
N7 Cd1 1_555 1_555
C1 N7 1_555 1_555
H1 C1 1_555 1_555
C2 C1 1_555 1_555
C3 C2 1_555 1_555
H2 C3 1_555 1_555
C4 C3 1_555 1_555
C5 N7 1_555 1_555
H3 C5 1_555 1_555
C6 C2 1_555 1_555
H4 C6 1_555 1_555
H5 C6 1_555 1_555
H6 C6 1_555 1_555
C7 C4 1_555 1_555
H7 C7 1_555 1_555
H8 C7 1_555 1_555
H9 C7 1_555 1_555
N8 Cd1 1_555 1_555
C8 N8 1_555 1_555
H10 C8 1_555 1_555
C9 C8 1_555 1_555
C10 C9 1_555 1_555
H11 C10 1_555 1_555
C11 C10 1_555 1_555
C12 N8 1_555 1_555
H12 C12 1_555 1_555
C13 C9 1_555 1_555
H13 C13 1_555 1_555
H14 C13 1_555 1_555
H15 C13 1_555 1_555
C14 C11 1_555 1_555
H16 C14 1_555 1_555
H17 C14 1_555 1_555
H18 C14 1_555 1_555
N3B Cd1 1_555 1_555
N6B Cd1 1_555 1_555
Cd1B_2 N6 1_555 1_555
C4 C5 1_555 1_555
C11 C12 1_555 1_555

#END
