
#######################################################################
#
#                 Cambridge Crystallographic Data Centre
#                                CCDC 
#
#######################################################################
#
# If this CIF has been generated from an entry in the Cambridge 
# Structural Database, then it will include bibliographic, chemical, 
# crystal, experimental, refinement or atomic coordinate data resulting 
# from the CCDC's data processing and validation procedures.
#
#######################################################################

data_EHEZEX
_symmetry_cell_setting           monoclinic
_symmetry_space_group_name_H-M   'C 2/c'
_symmetry_Int_Tables_number      15
_space_group_name_Hall           '-C 2yn'
loop_
_symmetry_equiv_pos_site_id
_symmetry_equiv_pos_as_xyz
1 x,y,z
2 -x,y,1/2-z
3 1/2+x,1/2+y,z
4 1/2-x,1/2+y,1/2-z
5 -x,-y,-z
6 x,-y,1/2+z
7 1/2-x,1/2-y,-z
8 1/2+x,1/2-y,1/2+z
_cell_length_a                   24.510(2)
_cell_length_b                   13.6628(13)
_cell_length_c                   19.2256(19)
_cell_angle_alpha                90
_cell_angle_beta                 117.171(2)
_cell_angle_gamma                90
_cell_volume                     5727.71
loop_
_atom_site_label
_atom_site_type_symbol
_atom_site_fract_x
_atom_site_fract_y
_atom_site_fract_z
Co1 Co 0.09147(2) 0.60094(4) 0.11662(3)
Co2 Co 0.0000 0.86275(5) 0.2500
Co3 Co 0.14744(2) 1.19410(4) 0.23814(3)
O1 O 0.00766(12) 0.5274(2) 0.09254(15)
O2 O -0.06031(13) 0.4327(2) 0.00042(15)
O3 O 0.09806(12) 0.63564(19) 0.22641(14)
O4 O 0.04202(13) 0.7350(2) 0.09062(14)
O5 O 0.06568(14) 0.7468(2) 0.28301(15)
O6 O 0.00255(13) 0.83995(19) 0.14450(15)
N1 N 0.17133(14) 0.6731(2) 0.13201(19)
N2 N 0.22561(17) 0.5775(3) 0.3078(2)
H1 H 0.1870 0.5725 0.2934
N3 N 0.27070(14) 0.7126(2) 0.17985(18)
N4 N 0.31140(16) 0.6132(2) 0.30602(19)
N5 N 0.07150(14) 0.9637(2) 0.28911(19)
N6 N -0.00368(18) 1.0465(3) 0.1096(2)
H2 H -0.0254 0.9957 0.1066
N7 N 0.13297(15) 1.0855(2) 0.29163(19)
N8 N 0.06805(15) 1.1566(2) 0.15634(19)
N9 N 0.15390(15) 0.3052(2) 0.18154(19)
N10 N 0.11154(15) 0.2887(3) 0.27844(19)
N11 N 0.13621(14) 0.4645(2) 0.15261(19)
N12 N 0.08197(18) 0.4398(3) 0.2805(2)
H3 H 0.0752 0.5012 0.2706
C1 C -0.01504(17) 0.4888(3) 0.0273(2)
C2 C 0.06919(17) 0.7125(3) 0.2257(2)
C3 C 0.03499(17) 0.7671(3) 0.1459(2)
C4 C 0.22717(17) 0.6664(3) 0.1919(2)
C5 C 0.1800(2) 0.7292(3) 0.0786(3)
H4 H 0.1492 0.7481 0.0300
C6 C 0.2402(2) 0.7528(3) 0.1074(2)
H5 H 0.2575 0.7900 0.0820
C7 C 0.25077(18) 0.6172(3) 0.2661(2)
C8 C 0.2720(2) 0.5458(4) 0.3777(3)
H6 H 0.2676 0.5146 0.4179
C9 C 0.3252(2) 0.5689(4) 0.3763(3)
H7 H 0.3644 0.5569 0.4162
C10 C 0.04615(18) 1.0762(3) 0.1729(2)
C11 C -0.0142(2) 1.1111(4) 0.0503(3)
H8 H -0.0459 1.1081 -0.0004
C12 C 0.0299(2) 1.1795(3) 0.0792(3)
H9 H 0.0341 1.2329 0.0520
C13 C 0.08030(17) 1.0374(3) 0.2503(2)
C14 C 0.12299(19) 0.9646(3) 0.3601(2)
H10 H 0.1311 0.9206 0.4005
C15 C 0.16041(19) 1.0394(3) 0.3624(2)
H11 H 0.1977 1.0561 0.4044
C16 C 0.10707(18) 0.3784(3) 0.2488(2)
C17 C 0.0873(2) 0.2938(4) 0.3307(3)
H12 H 0.0842 0.2419 0.3600
C18 C 0.0690(3) 0.3866(4) 0.3320(3)
H13 H 0.0510 0.4102 0.3621
C19 C 0.13098(17) 0.3895(3) 0.1932(2)
C20 C 0.1766(2) 0.3283(3) 0.1307(3)
H14 H 0.1957 0.2856 0.1110
C21 C 0.1661(2) 0.4246(3) 0.1142(3)
H15 H 0.1776 0.4590 0.0812
Co1A Co -0.09147(2) 0.60094(4) 0.38338(3)
Co1D Co -0.09147(2) 0.39906(4) -0.11662(3)
Co1C Co 0.40853(2) 1.10094(4) 0.38338(3)
Co1_2 Co 0.09147(2) 1.60094(4) 0.11662(3)
Co3A Co -0.14744(2) 1.19410(4) 0.26186(3)
Co3C Co 0.35256(2) 0.69410(4) 0.26186(3)
Co3_2 Co 0.14744(2) 0.19410(4) 0.23814(3)
O1D O -0.00766(12) 0.4726(2) -0.09254(15)
O1A O -0.00766(12) 0.5274(2) 0.40746(15)
O2D O 0.06031(13) 0.5673(2) -0.00042(15)
O2E O -0.06031(13) 0.5673(2) 0.50042(15)
O3A O -0.09806(12) 0.63564(19) 0.27359(14)
O4A O -0.04202(13) 0.7350(2) 0.40938(14)
O5A O -0.06568(14) 0.7468(2) 0.21699(15)
O6A O -0.00255(13) 0.83995(19) 0.35550(15)
N1C N 0.32867(14) 1.1731(2) 0.36799(19)
N1A N -0.17133(14) 0.6731(2) 0.36799(19)
N2C N 0.27439(17) 1.0775(3) 0.1922(2)
H1C H 0.3130 1.0725 0.2066
N3C N 0.22930(14) 1.2126(2) 0.32015(18)
N3B N -0.22930(14) 1.2126(2) 0.17985(18)
N4C N 0.18860(16) 1.1132(2) 0.19398(19)
N4B N -0.18860(16) 1.1132(2) 0.30602(19)
N5A N -0.07150(14) 0.9637(2) 0.21089(19)
N6A N 0.00368(18) 1.0465(3) 0.3904(2)
H2A H 0.0254 0.9957 0.3934
N7A N -0.13297(15) 1.0855(2) 0.20837(19)
N8A N -0.06805(15) 1.1566(2) 0.34366(19)
N9_2 N 0.15390(15) 1.3052(2) 0.18154(19)
N9A N -0.15390(15) 1.3052(2) 0.31846(19)
N10_2 N 0.11154(15) 1.2887(3) 0.27844(19)
N10A N -0.11154(15) 1.2887(3) 0.22156(19)
N11_2 N 0.13621(14) 1.4645(2) 0.15261(19)
N11A N -0.13621(14) 0.4645(2) 0.34739(19)
N12_2 N 0.08197(18) 1.4398(3) 0.2805(2)
H3_2 H 0.0752 1.5012 0.2706
C1D C 0.01504(17) 0.5112(3) -0.0273(2)
C2A C -0.06919(17) 0.7125(3) 0.2743(2)
C3A C -0.03499(17) 0.7671(3) 0.3541(2)
C4C C 0.27283(17) 1.1664(3) 0.3081(2)
C5C C 0.3200(2) 1.2292(3) 0.4214(3)
H4C H 0.3508 1.2481 0.4700
C6C C 0.2598(2) 1.2528(3) 0.3926(2)
H5C H 0.2425 1.2900 0.4180
C7C C 0.24923(18) 1.1172(3) 0.2339(2)
C8C C 0.2280(2) 1.0458(4) 0.1223(3)
H6C H 0.2324 1.0146 0.0821
C9C C 0.1748(2) 1.0689(4) 0.1237(3)
H7C H 0.1356 1.0569 0.0838
C10A C -0.04615(18) 1.0762(3) 0.3271(2)
C11A C 0.0142(2) 1.1111(4) 0.4497(3)
H8A H 0.0459 1.1081 0.5004
C12A C -0.0299(2) 1.1795(3) 0.4208(3)
H9A H -0.0341 1.2329 0.4480
C13A C -0.08030(17) 1.0374(3) 0.2497(2)
C14A C -0.12299(19) 0.9646(3) 0.1399(2)
H10A H -0.1311 0.9206 0.0995
C15A C -0.16041(19) 1.0394(3) 0.1376(2)
H11A H -0.1977 1.0561 0.0956
C16_2 C 0.10707(18) 1.3784(3) 0.2488(2)
C17_2 C 0.0873(2) 1.2938(4) 0.3307(3)
H12_2 H 0.0842 1.2419 0.3600
C18_2 C 0.0690(3) 1.3866(4) 0.3320(3)
H13_2 H 0.0510 1.4102 0.3621
C19_2 C 0.13098(17) 1.3895(3) 0.1932(2)
C20_2 C 0.1766(2) 1.3283(3) 0.1307(3)
H14_2 H 0.1957 1.2856 0.1110
C21_2 C 0.1661(2) 1.4246(3) 0.1142(3)
H15_2 H 0.1776 1.4590 0.0812
O7 O 0.1102(4) 0.6100(5) 0.4047(4)
O8 O 0.1958(3) 0.4678(6) 0.4675(4)
loop_
_geom_bond_atom_site_label_1
_geom_bond_atom_site_label_2
_geom_bond_site_symmetry_1
_geom_bond_site_symmetry_2
Co1 O1 1_555 1_555
Co2 O5 1_555 1_555
Co3 N7 1_555 1_555
O1 C1 1_555 1_555
O2 C1 1_555 1_555
O3 Co1 1_555 1_555
O4 Co1 1_555 1_555
O5 C2 1_555 1_555
O6 Co2 1_555 1_555
N1 Co1 1_555 1_555
N2 H1 1_555 1_555
N3 C4 1_555 1_555
N4 C7 1_555 1_555
N5 Co2 1_555 1_555
N6 H2 1_555 1_555
N7 C13 1_555 1_555
N8 Co3 1_555 1_555
N9 C19 1_555 1_555
N10 C16 1_555 1_555
N11 Co1 1_555 1_555
N12 H3 1_555 1_555
C1 C1D 1_555 1_555
C2 O3 1_555 1_555
C3 O4 1_555 1_555
C4 N1 1_555 1_555
C5 N1 1_555 1_555
H4 C5 1_555 1_555
C6 N3 1_555 1_555
H5 C6 1_555 1_555
C7 N2 1_555 1_555
C8 N2 1_555 1_555
H6 C8 1_555 1_555
C9 N4 1_555 1_555
H7 C9 1_555 1_555
C10 N6 1_555 1_555
C11 N6 1_555 1_555
H8 C11 1_555 1_555
C12 N8 1_555 1_555
H9 C12 1_555 1_555
C13 N5 1_555 1_555
C14 N5 1_555 1_555
H10 C14 1_555 1_555
C15 N7 1_555 1_555
H11 C15 1_555 1_555
C16 N12 1_555 1_555
C17 N10 1_555 1_555
H12 C17 1_555 1_555
C18 N12 1_555 1_555
H13 C18 1_555 1_555
C19 N11 1_555 1_555
C20 N9 1_555 1_555
H14 C20 1_555 1_555
C21 N11 1_555 1_555
H15 C21 1_555 1_555
Co1A O1A 1_555 1_555
Co1D O2 1_555 1_555
Co1C N1C 1_555 1_555
Co1_2 N11_2 1_555 1_555
Co3A N3B 1_555 1_555
Co3C N3 1_555 1_555
Co3_2 N9 1_555 1_555
O1D Co1D 1_555 1_555
O2D Co1 1_555 1_555
O2E Co1A 1_555 1_555
O3A Co1A 1_555 1_555
O4A Co1A 1_555 1_555
O5A Co2 1_555 1_555
O6A Co2 1_555 1_555
N1C C4C 1_555 1_555
N1A Co1A 1_555 1_555
N2C H1C 1_555 1_555
N3C Co3 1_555 1_555
N4C Co3 1_555 1_555
N4B Co3A 1_555 1_555
N5A Co2 1_555 1_555
N6A H2A 1_555 1_555
N7A Co3A 1_555 1_555
N8A Co3A 1_555 1_555
N9_2 Co3 1_555 1_555
N9A Co3A 1_555 1_555
N10_2 Co3 1_555 1_555
N10A Co3A 1_555 1_555
N11_2 C19_2 1_555 1_555
N11A Co1A 1_555 1_555
N12_2 H3_2 1_555 1_555
C1D O1D 1_555 1_555
C2A O3A 1_555 1_555
C3A O4A 1_555 1_555
C4C N3C 1_555 1_555
C5C N1C 1_555 1_555
H4C C5C 1_555 1_555
C6C N3C 1_555 1_555
H5C C6C 1_555 1_555
C7C N2C 1_555 1_555
C8C N2C 1_555 1_555
H6C C8C 1_555 1_555
C9C N4C 1_555 1_555
H7C C9C 1_555 1_555
C10A N6A 1_555 1_555
C11A N6A 1_555 1_555
H8A C11A 1_555 1_555
C12A N8A 1_555 1_555
H9A C12A 1_555 1_555
C13A N5A 1_555 1_555
C14A N5A 1_555 1_555
H10A C14A 1_555 1_555
C15A N7A 1_555 1_555
H11A C15A 1_555 1_555
C16_2 N10_2 1_555 1_555
C17_2 N10_2 1_555 1_555
H12_2 C17_2 1_555 1_555
C18_2 N12_2 1_555 1_555
H13_2 C18_2 1_555 1_555
C19_2 N9_2 1_555 1_555
C20_2 N9_2 1_555 1_555
H14_2 C20_2 1_555 1_555
C21_2 N11_2 1_555 1_555
H15_2 C21_2 1_555 1_555
O6 C3 1_555 1_555
N4 Co3C 1_555 1_555
N8 C10 1_555 1_555
N10 Co3_2 1_555 1_555
C2 C3 1_555 1_555
C4 C7 1_555 1_555
C5 C6 1_555 1_555
C8 C9 1_555 1_555
C10 C13 1_555 1_555
C11 C12 1_555 1_555
C14 C15 1_555 1_555
C16 C19 1_555 1_555
C17 C18 1_555 1_555
C20 C21 1_555 1_555
O2D C1D 1_555 1_555
O5A C2A 1_555 1_555
O6A C3A 1_555 1_555
N4C C7C 1_555 1_555
N7A C13A 1_555 1_555
N8A C10A 1_555 1_555
N12_2 C16_2 1_555 1_555
C2A C3A 1_555 1_555
C4C C7C 1_555 1_555
C5C C6C 1_555 1_555
C8C C9C 1_555 1_555
C10A C13A 1_555 1_555
C11A C12A 1_555 1_555
C14A C15A 1_555 1_555
C16_2 C19_2 1_555 1_555
C17_2 C18_2 1_555 1_555
C20_2 C21_2 1_555 1_555

#END
