
#######################################################################
#
#                 Cambridge Crystallographic Data Centre
#                                CCDC 
#
#######################################################################
#
# If this CIF has been generated from an entry in the Cambridge 
# Structural Database, then it will include bibliographic, chemical, 
# crystal, experimental, refinement or atomic coordinate data resulting 
# from the CCDC's data processing and validation procedures.
#
#######################################################################

data_EHEZAS
_symmetry_cell_setting           orthorhombic
_symmetry_space_group_name_H-M   'P b c a'
_symmetry_Int_Tables_number      61
_space_group_name_Hall           '-P 2ac 2ab'
loop_
_symmetry_equiv_pos_site_id
_symmetry_equiv_pos_as_xyz
1 x,y,z
2 1/2+x,y,1/2-z
3 x,1/2-y,1/2+z
4 1/2-x,1/2+y,z
5 -x,-y,-z
6 1/2-x,-y,1/2+z
7 -x,1/2+y,1/2-z
8 1/2+x,1/2-y,-z
_cell_length_a                   14.495(7)
_cell_length_b                   20.586(10)
_cell_length_c                   23.443(12)
_cell_angle_alpha                90
_cell_angle_beta                 90
_cell_angle_gamma                90
_cell_volume                     6995.25
loop_
_atom_site_label
_atom_site_type_symbol
_atom_site_fract_x
_atom_site_fract_y
_atom_site_fract_z
Nd1 Nd 0.175885(15) 0.781236(12) 0.598780(10)
Nd2 Nd 0.422570(16) 0.856800(12) 0.476390(11)
O1 O 0.2344(2) 0.81726(17) 0.49076(15)
O2 O 0.2865(2) 0.87906(19) 0.42064(16)
O3 O -0.0683(2) 0.71019(17) 0.44246(14)
O4 O -0.1799(2) 0.77222(16) 0.40635(14)
O5 O 0.1271(2) 0.69144(15) 0.53032(13)
O6 O 0.0732(2) 0.59880(15) 0.49541(13)
O7 O 0.4303(2) 0.74782(16) 0.44208(14)
O8 O 0.5420(2) 0.67326(16) 0.44126(14)
O9 O 0.0957(2) 0.70152(15) 0.65357(13)
O10 O -0.0087(2) 0.63179(15) 0.61813(13)
O11 O 0.1330(2) 0.42295(15) 0.55549(14)
O12 O 0.2475(2) 0.38044(16) 0.60653(15)
O13 O 0.4237(3) 0.97664(16) 0.44614(17)
N1 N 0.0848(3) 0.84649(19) 0.68379(17)
N2 N 0.2452(3) 0.7800(2) 0.70750(17)
C1 C 0.2209(3) 0.8499(2) 0.4467(2)
C2 C 0.1272(3) 0.8554(2) 0.4197(2)
C3 C 0.1052(4) 0.9077(3) 0.3851(3)
H1 H 0.1500 0.9386 0.3766
C4 C 0.0163(4) 0.9144(3) 0.3626(3)
H2 H 0.0016 0.9501 0.3401
C5 C -0.0495(3) 0.8677(3) 0.3741(2)
H3 H -0.1091 0.8725 0.3600
C6 C -0.0268(3) 0.8137(2) 0.4068(2)
C7 C 0.0616(3) 0.8084(2) 0.43006(19)
H4 H 0.0764 0.7728 0.4527
C8 C -0.0962(3) 0.7615(3) 0.4200(2)
C9 C 0.1401(3) 0.6363(2) 0.50854(18)
C10 C 0.2365(3) 0.6137(2) 0.49641(18)
C11 C 0.2610(3) 0.5487(2) 0.5008(2)
H5 H 0.2168 0.5179 0.5104
C12 C 0.3519(3) 0.5297(2) 0.4909(2)
H6 H 0.3690 0.4866 0.4958
C13 C 0.4160(3) 0.5747(2) 0.4738(2)
H7 H 0.4763 0.5618 0.4666
C14 C 0.3911(3) 0.6399(2) 0.46709(19)
C15 C 0.3019(3) 0.6590(2) 0.47969(19)
H8 H 0.2856 0.7025 0.4769
C16 C 0.4593(3) 0.6911(2) 0.4485(2)
C17 C 0.0671(3) 0.6450(2) 0.64265(19)
C18 C 0.1291(3) 0.5890(2) 0.65816(18)
C19 C 0.1915(4) 0.5931(3) 0.7030(2)
H9 H 0.1935 0.6302 0.7256
C20 C 0.2508(4) 0.5418(3) 0.7142(2)
H10 H 0.2916 0.5444 0.7447
C21 C 0.2498(3) 0.4870(3) 0.6803(2)
H11 H 0.2905 0.4531 0.6878
C22 C 0.1888(3) 0.4821(2) 0.6352(2)
C23 C 0.1271(3) 0.5326(2) 0.62530(19)
H12 H 0.0839 0.5286 0.5962
C24 C 0.1894(3) 0.4241(2) 0.5964(2)
C25 C 0.3237(4) 0.7507(3) 0.7208(3)
H13 H 0.3608 0.7364 0.6909
C26 C 0.3550(5) 0.7395(4) 0.7765(3)
H14 H 0.4113 0.7192 0.7832
C27 C 0.3006(6) 0.7593(4) 0.8204(3)
H15 H 0.3180 0.7511 0.8579
C28 C 0.2191(5) 0.7917(3) 0.8090(2)
C29 C 0.1595(7) 0.8161(5) 0.8536(3)
H16 H 0.1747 0.8078 0.8915
C30 C 0.0832(7) 0.8502(5) 0.8420(3)
H17 H 0.0480 0.8666 0.8719
C31 C 0.0548(5) 0.8620(4) 0.7847(3)
C32 C -0.0222(6) 0.8986(4) 0.7711(4)
H18 H -0.0595 0.9150 0.8000
C33 C -0.0433(5) 0.9105(3) 0.7157(3)
H19 H -0.0935 0.9364 0.7061
C34 C 0.0117(4) 0.8834(3) 0.6738(3)
H20 H -0.0038 0.8915 0.6360
C35 C 0.1093(4) 0.8365(3) 0.7394(2)
C36 C 0.1921(4) 0.8018(3) 0.7516(2)
H21 H 0.436(4) 1.0148(15) 0.466(2)
H22 H 0.366(3) 0.978(3) 0.429(4)
O4G O 0.3201(2) 0.72778(16) 0.59365(14)
O8G O 0.0420(2) 0.82674(16) 0.55874(14)
O12C O 0.2525(2) 0.88044(16) 0.60653(15)
O3G O 0.4317(2) 0.78981(17) 0.55754(14)
O6G O 0.5732(2) 0.90120(15) 0.50459(13)
O10G O 0.4913(2) 0.86821(15) 0.38187(13)
O11C O 0.3670(2) 0.92295(15) 0.55549(14)
Nd2G Nd -0.077430(16) 0.643200(12) 0.523610(11)
Nd1G Nd -0.324115(15) 0.718764(12) 0.401220(10)
Nd1G_2 Nd 0.675885(15) 0.718764(12) 0.401220(10)
Nd2C Nd 0.077430(16) 0.356800(12) 0.476390(11)
Nd1C Nd 0.324115(15) 0.281236(12) 0.598780(10)
O14 O 0.8680(10) 0.5317(8) 0.6627(5)
loop_
_geom_bond_atom_site_label_1
_geom_bond_atom_site_label_2
_geom_bond_site_symmetry_1
_geom_bond_site_symmetry_2
Nd1 O1 1_555 1_555
Nd2 O1 1_555 1_555
O1 C1 1_555 1_555
O2 Nd2 1_555 1_555
O3 C8 1_555 1_555
O4 C8 1_555 1_555
O5 Nd1 1_555 1_555
O6 C9 1_555 1_555
O7 Nd2 1_555 1_555
O8 C16 1_555 1_555
O9 Nd1 1_555 1_555
O10 C17 1_555 1_555
O11 C24 1_555 1_555
O12 C24 1_555 1_555
O13 Nd2 1_555 1_555
N1 Nd1 1_555 1_555
N2 Nd1 1_555 1_555
C1 O2 1_555 1_555
C2 C1 1_555 1_555
C3 C2 1_555 1_555
H1 C3 1_555 1_555
C4 C3 1_555 1_555
H2 C4 1_555 1_555
C5 C4 1_555 1_555
H3 C5 1_555 1_555
C6 C5 1_555 1_555
C7 C2 1_555 1_555
H4 C7 1_555 1_555
C8 C6 1_555 1_555
C9 O5 1_555 1_555
C10 C9 1_555 1_555
C11 C10 1_555 1_555
H5 C11 1_555 1_555
C12 C11 1_555 1_555
H6 C12 1_555 1_555
C13 C12 1_555 1_555
H7 C13 1_555 1_555
C14 C13 1_555 1_555
C15 C10 1_555 1_555
H8 C15 1_555 1_555
C16 O7 1_555 1_555
C17 O9 1_555 1_555
C18 C17 1_555 1_555
C19 C18 1_555 1_555
H9 C19 1_555 1_555
C20 C19 1_555 1_555
H10 C20 1_555 1_555
C21 C20 1_555 1_555
H11 C21 1_555 1_555
C22 C21 1_555 1_555
C23 C18 1_555 1_555
H12 C23 1_555 1_555
C24 C22 1_555 1_555
C25 N2 1_555 1_555
H13 C25 1_555 1_555
C26 C25 1_555 1_555
H14 C26 1_555 1_555
C27 C26 1_555 1_555
H15 C27 1_555 1_555
C28 C27 1_555 1_555
C29 C28 1_555 1_555
H16 C29 1_555 1_555
C30 C29 1_555 1_555
H17 C30 1_555 1_555
C31 C30 1_555 1_555
C32 C31 1_555 1_555
H18 C32 1_555 1_555
C33 C32 1_555 1_555
H19 C33 1_555 1_555
C34 N1 1_555 1_555
H20 C34 1_555 1_555
C35 N1 1_555 1_555
C36 N2 1_555 1_555
H21 O13 1_555 1_555
H22 O13 1_555 1_555
O4G Nd1 1_555 1_555
O8G Nd1 1_555 1_555
O12C Nd1 1_555 1_555
O3G Nd2 1_555 1_555
O6G Nd2 1_555 1_555
O10G Nd2 1_555 1_555
O11C Nd2 1_555 1_555
Nd2G O3 1_555 1_555
Nd1G O4 1_555 1_555
Nd1G_2 O8 1_555 1_555
Nd2C O11 1_555 1_555
Nd1C O12 1_555 1_555
O6 Nd2G 1_555 1_555
O10 Nd2G 1_555 1_555
C6 C7 1_555 1_555
C14 C15 1_555 1_555
C14 C16 1_555 1_555
C22 C23 1_555 1_555
C28 C36 1_555 1_555
C31 C35 1_555 1_555
C33 C34 1_555 1_555
C35 C36 1_555 1_555

#END
