
#######################################################################
#
#                 Cambridge Crystallographic Data Centre
#                                CCDC 
#
#######################################################################
#
# If this CIF has been generated from an entry in the Cambridge 
# Structural Database, then it will include bibliographic, chemical, 
# crystal, experimental, refinement or atomic coordinate data resulting 
# from the CCDC's data processing and validation procedures.
#
#######################################################################

data_EHEZIB
_symmetry_cell_setting           orthorhombic
_symmetry_space_group_name_H-M   'P 21 21 21'
_symmetry_Int_Tables_number      19
_space_group_name_Hall           'P 2ac 2ab'
loop_
_symmetry_equiv_pos_site_id
_symmetry_equiv_pos_as_xyz
1 x,y,z
2 1/2-x,-y,1/2+z
3 1/2+x,1/2-y,-z
4 -x,1/2+y,1/2-z
_cell_length_a                   14.3759(8)
_cell_length_b                   17.3163(9)
_cell_length_c                   22.8716(12)
_cell_angle_alpha                90
_cell_angle_beta                 90
_cell_angle_gamma                90
_cell_volume                     5693.6
loop_
_atom_site_label
_atom_site_type_symbol
_atom_site_fract_x
_atom_site_fract_y
_atom_site_fract_z
Eu1 Eu 0.880968(14) 0.639452(13) 0.752100(18)
Eu2 Eu 0.900809(14) 0.420399(12) 0.75046(2)
C1 C 1.1740(5) 0.6569(4) 1.1550(3)
H1 H 1.1822 0.6455 1.1953
C2 C 1.2221(4) 0.7184(3) 1.1303(3)
C3 C 1.1137(5) 0.6115(4) 1.1214(3)
H2 H 1.0801 0.5699 1.1385
C4 C 1.1045(4) 0.6290(3) 1.0623(3)
C5 C 1.2108(6) 0.7352(5) 1.0717(3)
H3 H 1.2420 0.7783 1.0551
C6 C 1.1549(5) 0.6899(4) 1.0375(3)
C7 C 1.0326(5) 0.5992(4) 0.9115(3)
H4 H 1.0447 0.6247 0.8755
C8 C 1.0709(5) 0.6270(4) 0.9632(3)
C9 C 0.9768(4) 0.5345(3) 0.9129(3)
C10 C 1.1369(5) 0.6951(4) 0.9719(3)
C11 C 1.0513(4) 0.5918(3) 1.0159(3)
C12 C 0.9918(4) 0.5282(4) 1.0180(3)
H5 H 0.9758 0.5049 1.0543
C13 C 0.7427(4) 0.8669(3) 0.5107(3)
C14 C 0.6950(4) 0.9063(3) 0.4631(3)
C15 C 0.9437(4) 0.4995(3) 0.8583(3)
C16 C 0.8521(5) 0.8368(4) 0.5862(3)
H6 H 0.9071 0.8484 0.6074
C17 C 0.8239(5) 0.8863(4) 0.5403(3)
H7 H 0.8590 0.9308 0.5301
C18 C 0.6920(5) 0.8005(4) 0.5237(3)
C19 C 0.9566(4) 0.4999(4) 0.9658(3)
H8 H 0.9177 0.4555 0.9663
C20 C 0.7164(5) 0.9754(4) 0.4345(3)
H9 H 0.7719 1.0029 0.4432
C21 C 1.0913(7) 0.7715(5) 0.9541(4)
H10 H 1.1344 0.8140 0.9641
H11 H 1.0838 0.7715 0.9110
O1 O 0.9524(3) 0.5358(3) 0.80953(19)
O2 O 1.3125(4) 0.8314(3) 1.1524(2)
C22 C 0.6175(5) 0.8632(4) 0.4469(3)
O3 O 0.9107(3) 0.4326(3) 0.8565(2)
O4 O 1.3025(4) 0.7429(3) 1.2197(3)
C23 C 0.5766(4) 0.9613(3) 0.3781(3)
C24 C 0.8006(4) 0.7713(4) 0.6010(3)
C25 C 0.6090(5) 0.7912(4) 0.4823(3)
C26 C 0.8307(5) 0.7210(4) 0.6500(3)
C27 C 0.5578(5) 0.8896(4) 0.4046(3)
H12 H 0.5050 0.8602 0.3934
C28 C 1.2822(5) 0.7669(4) 1.1694(3)
C29 C 0.6550(4) 1.0025(4) 0.3935(3)
H13 H 0.6667 1.0508 0.3752
O5 O 0.9093(3) 0.7332(2) 0.67381(19)
O6 O 0.7807(4) 0.6662(3) 0.6676(2)
O7 O 0.5145(4) 1.0665(3) 0.3255(2)
C30 C 0.5102(4) 0.9961(4) 0.3361(3)
C31 C 0.6213(6) 0.7200(4) 0.4445(4)
H14 H 0.5689 0.7174 0.4164
H15 H 0.6176 0.6737 0.4697
C32 C 0.5160(5) 0.7862(5) 0.5150(4)
H16 H 0.4653 0.7820 0.4859
H17 H 0.5156 0.7382 0.5386
C33 C 1.0005(7) 0.7886(6) 0.9805(6)
H18 H 0.9773 0.8379 0.9654
H19 H 1.0072 0.7918 1.0231
H20 H 0.9565 0.7474 0.9706
O8 O 0.4471(4) 0.9548(3) 0.3118(2)
C34 C 1.2808(7) 0.6098(6) 0.9439(5)
H21 H 1.3367 0.6103 0.9194
H22 H 1.2409 0.5665 0.9324
H23 H 1.2987 0.6040 0.9850
O9 O 0.1152(2) 0.7899(2) 0.7506(3)
C35 C 0.7202(6) 0.7524(4) 0.5697(3)
H24 H 0.6853 0.7076 0.5794
C36 C 1.2283(6) 0.6848(5) 0.9361(3)
H25 H 1.2128 0.6903 0.8941
H26 H 1.2708 0.7277 0.9463
C37 C 0.7124(7) 0.7172(6) 0.4103(5)
H27 H 0.7145 0.6698 0.3869
H28 H 0.7649 0.7179 0.4376
H29 H 0.7162 0.7622 0.3843
O10 O 0.7778(2) 0.53052(19) 0.7543(3)
C38 C 0.2698(3) 0.6962(3) 0.7448(4)
H30 H 0.2766 0.7485 0.7331
O11 O 0.0222(3) 0.6928(2) 0.77367(19)
C39 C 0.5885(3) 0.5744(3) 0.7511(4)
H31 H 0.6328 0.6121 0.7396
C40 C 0.4942(3) 0.5915(3) 0.7509(4)
C41 C 0.3458(3) 0.6477(3) 0.7483(4)
O12 O 1.0577(3) 0.3755(3) 0.7789(2)
H32 H 1.0542 0.3318 0.7926
O13 O 0.7402(3) 0.4122(2) 0.7819(2)
C42 C 0.1017(3) 0.7198(3) 0.7606(3)
C43 C 0.1826(3) 0.6663(3) 0.7591(3)
C44 C 0.6168(3) 0.5014(3) 0.7682(3)
C45 C 0.7167(4) 0.4796(3) 0.7687(3)
C46 C 0.4472(4) 0.6680(3) 0.7358(3)
O14 O 0.8088(4) 0.4096(3) 0.6610(2)
C47 C 0.3360(4) 0.5712(3) 0.7649(3)
C48 C 0.1727(4) 0.5886(3) 0.7744(3)
H33 H 0.1126 0.5683 0.7825
C49 C 0.4290(4) 0.5360(3) 0.7676(3)
C50 C 0.4574(4) 0.4624(3) 0.7868(3)
H34 H 0.4134 0.4256 0.8003
C51 C 0.2494(4) 0.5414(3) 0.7777(3)
H35 H 0.2429 0.4888 0.7887
C52 C 0.4821(4) 0.7342(4) 0.7763(4)
H36 H 0.5491 0.7429 0.7688
H37 H 0.4487 0.7823 0.7660
C53 C 0.5512(4) 0.4454(4) 0.7853(3)
H38 H 0.5717 0.3952 0.7960
C54 C 0.4619(5) 0.6897(4) 0.6704(3)
H39 H 0.4272 0.7379 0.6622
H40 H 0.5287 0.7005 0.6641
C55 C 0.4687(6) 0.7184(5) 0.8403(4)
H41 H 0.4919 0.7623 0.8630
H42 H 0.5031 0.6717 0.8512
H43 H 0.4024 0.7109 0.8484
C56 C 0.4310(7) 0.6283(5) 0.6268(4)
H44 H 0.4431 0.6465 0.5869
H45 H 0.3644 0.6184 0.6316
H46 H 0.4658 0.5805 0.6338
C57 C 0.4953(7) 0.8546(7) 0.5554(5)
H47 H 0.4347 0.8470 0.5741
H48 H 0.4943 0.9024 0.5325
H49 H 0.5437 0.8581 0.5855
C58 C 0.7240(6) 0.3707(6) 0.6508(4)
H50 H 0.7051 0.3782 0.6100
H51 H 0.6759 0.3914 0.6768
H52 H 0.7321 0.3154 0.6585
H53 H 0.8215 0.4501 0.6394
H59 H 1.1065 0.3847 0.7535
Eu1B Eu 1.380968(14) 0.860548(13) 1.247900(18)
Eu1B_2 Eu 0.380968(14) 0.860548(13) 0.247900(18)
Eu1_2 Eu -0.119032(14) 0.639452(13) 0.752100(18)
Eu2B Eu 0.400809(14) 1.079601(12) 0.24954(2)
Eu2C Eu 0.099191(14) 0.920399(12) 0.74954(2)
O2B O 0.8125(4) 0.6686(3) 0.8476(2)
O4B O 0.8025(4) 0.7571(3) 0.7803(3)
O7B O 1.0145(4) 0.4335(3) 0.6745(2)
O8B O 0.9471(4) 0.5452(3) 0.6882(2)
O9C O 0.8848(2) 0.2899(2) 0.7494(3)
O11_2 O 1.0222(3) 0.6928(2) 0.77367(19)
O15 O 0.6983(12) 0.5581(6) 0.9290(5)
H57 H 0.7417 0.5715 0.9526
H58 H 0.6886 0.5102 0.9178
O16 O 0.8023(13) 0.5219(10) 0.5505(6)
C59 C 0.7618(8) 0.5402(6) 0.5927(5)
H54 H 0.7844 0.5876 0.6092
H55 H 0.7629 0.5004 0.6219
H56 H 0.6993 0.5473 0.5791
H60 H 0.8249 0.4733 0.5541
loop_
_geom_bond_atom_site_label_1
_geom_bond_atom_site_label_2
_geom_bond_site_symmetry_1
_geom_bond_site_symmetry_2
Eu1 O1 1_555 1_555
Eu2 O1 1_555 1_555
C1 H1 1_555 1_555
C2 C1 1_555 1_555
C3 C1 1_555 1_555
H2 C3 1_555 1_555
C4 C3 1_555 1_555
C5 C2 1_555 1_555
H3 C5 1_555 1_555
C6 C4 1_555 1_555
C7 H4 1_555 1_555
C8 C7 1_555 1_555
C9 C7 1_555 1_555
C10 C6 1_555 1_555
C11 C4 1_555 1_555
C12 C11 1_555 1_555
H5 C12 1_555 1_555
C13 C14 1_555 1_555
C14 C20 1_555 1_555
C15 C9 1_555 1_555
C16 H6 1_555 1_555
C17 C13 1_555 1_555
H7 C17 1_555 1_555
C18 C13 1_555 1_555
C19 C9 1_555 1_555
H8 C19 1_555 1_555
C20 H9 1_555 1_555
C21 C10 1_555 1_555
H10 C21 1_555 1_555
H11 C21 1_555 1_555
O1 C15 1_555 1_555
O2 C28 1_555 1_555
C22 C14 1_555 1_555
O3 Eu2 1_555 1_555
O4 C28 1_555 1_555
C23 C27 1_555 1_555
C24 C16 1_555 1_555
C25 C18 1_555 1_555
C26 C24 1_555 1_555
C27 C22 1_555 1_555
H12 C27 1_555 1_555
C28 C2 1_555 1_555
C29 C20 1_555 1_555
H13 C29 1_555 1_555
O5 Eu1 1_555 1_555
O6 Eu1 1_555 1_555
O7 C30 1_555 1_555
C30 C23 1_555 1_555
C31 C25 1_555 1_555
H14 C31 1_555 1_555
H15 C31 1_555 1_555
C32 C25 1_555 1_555
H16 C32 1_555 1_555
H17 C32 1_555 1_555
C33 C21 1_555 1_555
H18 C33 1_555 1_555
H19 C33 1_555 1_555
H20 C33 1_555 1_555
O8 C30 1_555 1_555
C34 H21 1_555 1_555
H22 C34 1_555 1_555
H23 C34 1_555 1_555
O9 C42 1_555 1_555
C35 C18 1_555 1_555
H24 C35 1_555 1_555
C36 C10 1_555 1_555
H25 C36 1_555 1_555
H26 C36 1_555 1_555
C37 C31 1_555 1_555
H27 C37 1_555 1_555
H28 C37 1_555 1_555
H29 C37 1_555 1_555
O10 Eu1 1_555 1_555
C38 H30 1_555 1_555
O11 C42 1_555 1_555
C39 H31 1_555 1_555
C40 C39 1_555 1_555
C41 C38 1_555 1_555
O12 Eu2 1_555 1_555
H32 O12 1_555 1_555
O13 Eu2 1_555 1_555
C42 C43 1_555 1_555
C43 C38 1_555 1_555
C44 C39 1_555 1_555
C45 O10 1_555 1_555
C46 C40 1_555 1_555
O14 Eu2 1_555 1_555
C47 C41 1_555 1_555
C48 C43 1_555 1_555
H33 C48 1_555 1_555
C49 C40 1_555 1_555
C50 C49 1_555 1_555
H34 C50 1_555 1_555
C51 C47 1_555 1_555
H35 C51 1_555 1_555
C52 C46 1_555 1_555
H36 C52 1_555 1_555
H37 C52 1_555 1_555
C53 C44 1_555 1_555
H38 C53 1_555 1_555
C54 C46 1_555 1_555
H39 C54 1_555 1_555
H40 C54 1_555 1_555
C55 C52 1_555 1_555
H41 C55 1_555 1_555
H42 C55 1_555 1_555
H43 C55 1_555 1_555
C56 C54 1_555 1_555
H44 C56 1_555 1_555
H45 C56 1_555 1_555
H46 C56 1_555 1_555
C57 C32 1_555 1_555
H47 C57 1_555 1_555
H48 C57 1_555 1_555
H49 C57 1_555 1_555
C58 O14 1_555 1_555
H50 C58 1_555 1_555
H51 C58 1_555 1_555
H52 C58 1_555 1_555
O15 H57 1_555 1_555
O16 C59 1_555 1_555
C59 H54 1_555 1_555
H53 O14 1_555 1_555
H55 C59 1_555 1_555
H56 C59 1_555 1_555
H58 O15 1_555 1_555
H59 O12 1_555 1_555
H60 O16 1_555 1_555
Eu1B O2 1_555 1_555
Eu1B_2 O8 1_555 1_555
Eu1_2 O11 1_555 1_555
Eu2B O7 1_555 1_555
Eu2C O9 1_555 1_555
O2B Eu1 1_555 1_555
O4B Eu1 1_555 1_555
O7B Eu2 1_555 1_555
O8B Eu1 1_555 1_555
O9C Eu2 1_555 1_555
O11_2 Eu1 1_555 1_555
Eu2 O10 1_555 1_555
Eu2 O8B 1_555 1_555
C5 C6 1_555 1_555
C8 C10 1_555 1_555
C8 C11 1_555 1_555
C12 C19 1_555 1_555
C15 O3 1_555 1_555
C16 C17 1_555 1_555
C22 C25 1_555 1_555
O4 Eu1B 1_555 1_555
C23 C29 1_555 1_555
C24 C35 1_555 1_555
C26 O5 1_555 1_555
C26 O6 1_555 1_555
O8 Eu2B 1_555 1_555
C34 C36 1_555 1_555
C41 C46 1_555 1_555
O13 C45 1_555 1_555
C44 C45 1_555 1_555
C47 C49 1_555 1_555
C48 C51 1_555 1_555
C50 C53 1_555 1_555

#END
