
#######################################################################
#
#                 Cambridge Crystallographic Data Centre
#                                CCDC 
#
#######################################################################
#
# If this CIF has been generated from an entry in the Cambridge 
# Structural Database, then it will include bibliographic, chemical, 
# crystal, experimental, refinement or atomic coordinate data resulting 
# from the CCDC's data processing and validation procedures.
#
#######################################################################

data_EHILUC
_symmetry_cell_setting           orthorhombic
_symmetry_space_group_name_H-M   'C m c 21'
_symmetry_Int_Tables_number      36
_space_group_name_Hall           'C 2n -2'
loop_
_symmetry_equiv_pos_site_id
_symmetry_equiv_pos_as_xyz
1 x,y,z
2 -x,-y,1/2+z
3 -x,y,z
4 x,-y,1/2+z
5 1/2+x,1/2+y,z
6 1/2-x,1/2-y,1/2+z
7 1/2-x,1/2+y,z
8 1/2+x,1/2-y,1/2+z
_cell_length_a                   15.884(5)
_cell_length_b                   6.860(5)
_cell_length_c                   18.394(5)
_cell_angle_alpha                90
_cell_angle_beta                 90
_cell_angle_gamma                90
_cell_volume                     2004.29
loop_
_atom_site_label
_atom_site_type_symbol
_atom_site_fract_x
_atom_site_fract_y
_atom_site_fract_z
V1 V 0.5000 0.7891(3) 0.78159(12)
V2 V 0.5000 0.6549(3) 0.62067(12)
Na1 Na 0.2656(3) 0.8521(5) 0.9172(2)
O1 O 0.5000 0.5985(13) 0.8317(6)
O2 O 0.4047(5) 0.9194(10) 0.8349(4)
O3 O 0.5000 1.0993(13) 0.7425(5)
O4 O 0.5000 0.9856(14) 0.5894(5)
O5 O 0.5919(5) 0.6915(10) 0.5467(4)
O6 O 0.5000 0.4240(12) 0.6213(7)
O7 O 0.6881(5) 0.8803(11) 0.4941(6)
O8 O 0.3599(4) 0.5756(11) 0.9376(5)
O9 O 0.3038(5) 1.1461(12) 0.8337(5)
O10 O 0.5759(4) 0.7310(11) 0.7004(4)
C1 C 0.3734(6) 1.0831(14) 0.8135(6)
C2 C 0.4240(7) 1.1977(16) 0.7603(6)
H1 H 0.3912 1.2183 0.7165
H2 H 0.4371 1.3243 0.7809
C3 C 0.6232(7) 0.8569(15) 0.5286(6)
C4 C 0.5741(9) 1.030(2) 0.5525(8)
H3 H 0.6093 1.1096 0.5838
H4 H 0.5602 1.108 0.5101
C5 C 0.6668(10) 0.693(2) 0.7045(9)
H5 H 0.6775 0.5582 0.6948
H6 H 0.6868 0.7254 0.7523
H7 H 0.6955 0.7721 0.6692
C2B C 0.5760(7) 1.1977(16) 0.7603(6)
C1B C 0.6266(6) 1.0831(14) 0.8135(6)
O2B O 0.5953(5) 0.9194(10) 0.8349(4)
O9B O 0.6962(5) 1.1461(12) 0.8337(5)
H1B H 0.6088 1.2183 0.7165
H2B H 0.5629 1.3243 0.7809
C4B C 0.4259(9) 1.030(2) 0.5525(8)
C3B C 0.3768(7) 0.8569(15) 0.5286(6)
O5B O 0.4081(5) 0.6915(10) 0.5467(4)
O7B O 0.3119(5) 0.8803(11) 0.4941(6)
H3B H 0.3907 1.1096 0.5838
H4B H 0.4398 1.108 0.5101
O10B O 0.4241(4) 0.7310(11) 0.7004(4)
C5B C 0.3332(10) 0.693(2) 0.7045(9)
H5B H 0.3225 0.5582 0.6948
H6B H 0.3132 0.7254 0.7523
H7B H 0.3045 0.7721 0.6692
Na1B Na 0.7344(3) 0.8521(5) 0.9172(2)
O8F O 0.1401(4) 1.0756(11) 0.9376(5)
O7A O 0.3119(5) 1.1197(11) 0.9941(6)
O7G O 0.1881(5) 0.6197(11) 0.9941(6)
O9F O 0.1962(5) 0.6461(12) 0.8337(5)
Na1A Na 0.7344(3) 1.1479(5) 0.4172(2)
Na1G Na 0.7656(3) 0.6479(5) 0.4172(2)
Na1F Na 0.2344(3) 0.3521(5) 0.9172(2)
Na1F_2 Na 0.2344(3) 1.3521(5) 0.9172(2)
Na1D Na 0.7656(3) 1.3521(5) 0.9172(2)
Na1C Na 0.2656(3) 1.1479(5) 0.4172(2)
Na1E Na 0.2344(3) 0.6479(5) 0.4172(2)
O7C O 0.6881(5) 1.1197(11) 0.9941(6)
O7E O 0.8119(5) 0.6197(11) 0.9941(6)
O8B O 0.6401(4) 0.5756(11) 0.9376(5)
O8D O 0.8599(4) 1.0756(11) 0.9376(5)
O9D O 0.8038(5) 0.6461(12) 0.8337(5)
loop_
_geom_bond_atom_site_label_1
_geom_bond_atom_site_label_2
_geom_bond_site_symmetry_1
_geom_bond_site_symmetry_2
V1 O1 1_555 1_555
V2 O4 1_555 1_555
Na1 O2 1_555 1_555
O2 V1 1_555 1_555
O3 V1 1_555 1_555
O4 C4 1_555 1_555
O5 V2 1_555 1_555
O6 V2 1_555 1_555
O7 C3 1_555 1_555
O8 Na1 1_555 1_555
O9 Na1 1_555 1_555
O10 V1 1_555 1_555
C1 O2 1_555 1_555
C2 O3 1_555 1_555
H1 C2 1_555 1_555
H2 C2 1_555 1_555
C3 O5 1_555 1_555
C4 C3 1_555 1_555
H3 C4 1_555 1_555
H4 C4 1_555 1_555
C5 O10 1_555 1_555
H5 C5 1_555 1_555
H6 C5 1_555 1_555
H7 C5 1_555 1_555
C2B O3 1_555 1_555
C1B C2B 1_555 1_555
O2B V1 1_555 1_555
O9B C1B 1_555 1_555
H1B C2B 1_555 1_555
H2B C2B 1_555 1_555
C4B O4 1_555 1_555
C3B C4B 1_555 1_555
O5B V2 1_555 1_555
O7B C3B 1_555 1_555
H3B C4B 1_555 1_555
H4B C4B 1_555 1_555
O10B V1 1_555 1_555
C5B O10B 1_555 1_555
H5B C5B 1_555 1_555
H6B C5B 1_555 1_555
H7B C5B 1_555 1_555
Na1B O2B 1_555 1_555
O8F Na1 1_555 1_555
O7A Na1 1_555 1_555
O7G Na1 1_555 1_555
O9F Na1 1_555 1_555
Na1A O7 1_555 1_555
Na1G O7 1_555 1_555
Na1F O8 1_555 1_555
Na1F_2 O9 1_555 1_555
Na1D O9B 1_555 1_555
Na1C O7B 1_555 1_555
Na1E O7B 1_555 1_555
O7C Na1B 1_555 1_555
O7E Na1B 1_555 1_555
O8B Na1B 1_555 1_555
O8D Na1B 1_555 1_555
O9D Na1B 1_555 1_555
V2 O10 1_555 1_555
V2 O10B 1_555 1_555
O9 C1 1_555 1_555
C1 C2 1_555 1_555
C1B O2B 1_555 1_555
O9B Na1B 1_555 1_555
C3B O5B 1_555 1_555
O8F Na1F_2 1_555 1_555
O7A Na1F_2 1_555 1_555
O7G Na1F 1_555 1_555
O9F Na1F 1_555 1_555
Na1D O7C 1_555 1_555
Na1D O8D 1_555 1_555

#END
