
#######################################################################
#
#                 Cambridge Crystallographic Data Centre
#                                CCDC 
#
#######################################################################
#
# If this CIF has been generated from an entry in the Cambridge 
# Structural Database, then it will include bibliographic, chemical, 
# crystal, experimental, refinement or atomic coordinate data resulting 
# from the CCDC's data processing and validation procedures.
#
#######################################################################

data_EHISIX
_symmetry_cell_setting           orthorhombic
_symmetry_space_group_name_H-M   'P b c m'
_symmetry_Int_Tables_number      57
_space_group_name_Hall           '-P 2c 2b'
loop_
_symmetry_equiv_pos_site_id
_symmetry_equiv_pos_as_xyz
1 x,y,z
2 x,y,1/2-z
3 x,1/2-y,1/2+z
4 -x,1/2+y,z
5 -x,-y,-z
6 -x,-y,1/2+z
7 -x,1/2+y,1/2-z
8 x,1/2-y,-z
_cell_length_a                   7.6017(6)
_cell_length_b                   9.1156(4)
_cell_length_c                   17.9749(12)
_cell_angle_alpha                90
_cell_angle_beta                 90
_cell_angle_gamma                90
_cell_volume                     1245.55
loop_
_atom_site_label
_atom_site_type_symbol
_atom_site_fract_x
_atom_site_fract_y
_atom_site_fract_z
Mn1 Mn -0.29503(4) 0.05674(3) 0.52454(2)
O1 O -0.0948(3) 0.2500 0.5000
O2 O -0.1981(2) 0.5278(2) 0.58071(8)
O3 O -0.3854(2) 0.29751(14) 0.39118(7)
O4 O 0.0799(2) 0.45234(14) 0.58388(8)
O5 O -0.5193(2) 0.11583(14) 0.45094(7)
C1 C -0.4819(2) 0.1869(2) 0.39171(10)
C2 C -0.5523(3) 0.1275(2) 0.31954(10)
H1 H -0.6797(3) 0.1250(2) 0.32268(10)
H2 H -0.5121(3) 0.0270(2) 0.31418(10)
C3 C -0.5017(4) 0.2112(3) 0.2500
H3 H -0.3758(4) 0.2283(3) 0.2500
H4 H -0.5602(4) 0.3058(3) 0.2500
C4 C -0.0475(4) 0.5238(3) 0.7500
H5 H -0.1662(4) 0.4847(3) 0.7500
H6 H 0.0337(4) 0.4417(3) 0.7500
C5 C -0.0194(3) 0.6149(2) 0.67977(10)
H7 H -0.0994(3) 0.6978(2) 0.68030(10)
H8 H 0.0998(3) 0.6530(2) 0.67964(10)
C6 C -0.0492(3) 0.5266(2) 0.60934(10)
H9 H -0.0293(38) 0.1996(29) 0.4715(14)
Mn1G Mn -0.29503(4) 0.44326(3) 0.47546(2)
O2G O -0.1981(2) -0.0278(2) 0.41929(8)
O4C O -0.0799(2) -0.04766(14) 0.58388(8)
Mn1C Mn 0.29503(4) 0.55674(3) 0.52454(2)
O4D O -0.0799(2) 0.54766(14) 0.41612(8)
O3G O -0.3854(2) 0.20249(14) 0.60882(7)
O5G O -0.5193(2) 0.38417(14) 0.54906(7)
O5C O -0.4807(2) 0.61583(14) 0.45094(7)
Mn1B Mn -0.29503(4) 0.44326(3) 1.02454(2)
O2A O -0.1981(2) 0.5278(2) 0.91929(8)
O5D O -0.4807(2) -0.11583(14) 0.54906(7)
Mn1D Mn -0.70497(4) -0.05674(3) 0.47546(2)
H9G H -0.0293(38) 0.3004(29) 0.5285(14)
C6A C -0.0492(3) 0.5266(2) 0.89066(10)
O4A O 0.0799(2) 0.45234(14) 0.91612(8)
C5A C -0.0194(3) 0.6149(2) 0.82023(10)
C2A C -0.5523(3) 0.1275(2) 0.18046(10)
Mn1F Mn 0.29503(4) 0.55674(3) 0.97546(2)
H7A H -0.0994(3) 0.6978(2) 0.81970(10)
H8A H 0.0998(3) 0.6530(2) 0.82036(10)
C1A C -0.4819(2) 0.1869(2) 0.10829(10)
H1A H -0.6797(3) 0.1250(2) 0.17732(10)
H2A H -0.5121(3) 0.0270(2) 0.18582(10)
Mn1A Mn -0.29503(4) 0.05674(3) -0.02454(2)
O3A O -0.3854(2) 0.29751(14) 0.10882(7)
O5A O -0.5193(2) 0.11583(14) 0.04906(7)
Mn1B_2 Mn -0.29503(4) 0.44326(3) 0.02454(2)
Mn1E Mn -0.70497(4) -0.05674(3) 0.02454(2)
loop_
_geom_bond_atom_site_label_1
_geom_bond_atom_site_label_2
_geom_bond_site_symmetry_1
_geom_bond_site_symmetry_2
Mn1 O1 1_555 1_555
O1 H9 1_555 1_555
O2 C6 1_555 1_555
O3 C1 1_555 1_555
O4 C6 1_555 1_555
O5 Mn1 1_555 1_555
C1 O5 1_555 1_555
C2 C1 1_555 1_555
H1 C2 1_555 1_555
H2 C2 1_555 1_555
C3 C2 1_555 1_555
H3 C3 1_555 1_555
H4 C3 1_555 1_555
C4 H5 1_555 1_555
H6 C4 1_555 1_555
C5 C4 1_555 1_555
H7 C5 1_555 1_555
H8 C5 1_555 1_555
C6 C5 1_555 1_555
Mn1G O1 1_555 1_555
O2G Mn1 1_555 1_555
O4C Mn1 1_555 1_555
Mn1C O4 1_555 1_555
O4D Mn1G 1_555 1_555
O3G Mn1 1_555 1_555
O5G Mn1G 1_555 1_555
O5C Mn1G 1_555 1_555
Mn1B O2A 1_555 1_555
O2A C6A 1_555 1_555
O5D Mn1 1_555 1_555
Mn1D O5 1_555 1_555
H9G O1 1_555 1_555
C6A O4A 1_555 1_555
O4A Mn1F 1_555 1_555
C5A C4 1_555 1_555
C2A C3 1_555 1_555
H7A C5A 1_555 1_555
H8A C5A 1_555 1_555
C1A C2A 1_555 1_555
H1A C2A 1_555 1_555
H2A C2A 1_555 1_555
Mn1A O5A 1_555 1_555
O3A C1A 1_555 1_555
O5A C1A 1_555 1_555
Mn1B_2 O3A 1_555 1_555
Mn1E O5A 1_555 1_555
O2 Mn1G 1_555 1_555
O3 Mn1G 1_555 1_555
O5D Mn1D 1_555 1_555
C6A C5A 1_555 1_555

#END
