
#######################################################################
#
#                 Cambridge Crystallographic Data Centre
#                                CCDC 
#
#######################################################################
#
# If this CIF has been generated from an entry in the Cambridge 
# Structural Database, then it will include bibliographic, chemical, 
# crystal, experimental, refinement or atomic coordinate data resulting 
# from the CCDC's data processing and validation procedures.
#
#######################################################################

data_EHISUJ
_symmetry_cell_setting           orthorhombic
_symmetry_space_group_name_H-M   'P b c m'
_symmetry_Int_Tables_number      57
_space_group_name_Hall           '-P 2c 2b'
loop_
_symmetry_equiv_pos_site_id
_symmetry_equiv_pos_as_xyz
1 x,y,z
2 x,y,1/2-z
3 x,1/2-y,1/2+z
4 -x,1/2+y,z
5 -x,-y,-z
6 -x,-y,1/2+z
7 -x,1/2+y,1/2-z
8 x,1/2-y,-z
_cell_length_a                   7.6089(8)
_cell_length_b                   9.1665(15)
_cell_length_c                   23.070(3)
_cell_angle_alpha                90
_cell_angle_beta                 90
_cell_angle_gamma                90
_cell_volume                     1609.06
loop_
_atom_site_label
_atom_site_type_symbol
_atom_site_fract_x
_atom_site_fract_y
_atom_site_fract_z
Mn1 Mn 0.70417(12) 0.05702(10) 0.51935(4)
O1 O 0.9069(9) 0.2500 0.5000
O2 O 0.8010(6) -0.0274(5) 0.4377(2)
O3 O 0.6157(6) 0.2032(5) 0.5848(2)
O4 O 1.0812(6) 0.0477(5) 0.4347(2)
O5 O 0.4815(6) 0.3845(5) 0.5382(2)
C1 C 0.5173(9) 0.3119(7) 0.5842(3)
C2 C 0.4524(9) 0.3742(7) 0.6406(3)
H1 H 0.3260(9) 0.3862(7) 0.6379(3)
H2 H 0.5030(9) 0.4707(7) 0.6453(3)
C3 C 0.4924(10) 0.2867(7) 0.6947(2)
H3 H 0.6157(10) 0.2599(7) 0.6946(2)
H4 H 0.4239(10) 0.1974(7) 0.6941(2)
C4 C 0.4514(14) 0.3701(11) 0.7500
H5 H 0.3277(14) 0.3957(11) 0.7500
H6 H 0.5183(14) 0.4602(11) 0.7500
C5 C 0.9815(15) -0.1085(11) 0.2500
H7 H 1.1007(15) -0.1460(11) 0.2500
H8 H 0.9025(15) -0.1915(11) 0.2500
C6 C 0.9527(10) -0.0218(7) 0.3058(3)
H9 H 1.0340(10) 0.0596(7) 0.3067(3)
H10 H 0.8343(10) 0.0175(7) 0.3058(3)
C7 C 0.9784(9) -0.1132(8) 0.3598(3)
H11 H 1.0965(9) -0.1529(8) 0.3598(3)
H12 H 0.8965(9) -0.1943(8) 0.3591(3)
C8 C 0.9503(8) -0.0256(7) 0.4147(2)
H13 H 0.969(11) 0.1921(87) 0.4784(32)
H13G H 0.969(11) 0.3079(87) 0.5216(32)
C6A C 0.9527(10) -0.0218(7) 0.1942(3)
H9A H 1.0340(10) 0.0596(7) 0.1933(3)
H10A H 0.8343(10) 0.0175(7) 0.1942(3)
C7A C 0.9784(9) -0.1132(8) 0.1402(3)
H11A H 1.0965(9) -0.1529(8) 0.1402(3)
H12A H 0.8965(9) -0.1943(8) 0.1409(3)
C8A C 0.9503(8) -0.0256(7) 0.0853(2)
O2A O 0.8010(6) -0.0274(5) 0.0623(2)
O4A O 1.0812(6) 0.0477(5) 0.0653(2)
C3A C 0.4924(10) 0.2867(7) 0.8053(2)
C2A C 0.4524(9) 0.3742(7) 0.8594(3)
C1A C 0.5173(9) 0.3119(7) 0.9158(3)
O3A O 0.6157(6) 0.2032(5) 0.9152(2)
O5A O 0.4815(6) 0.3845(5) 0.9618(2)
H1A H 0.3260(9) 0.3862(7) 0.8621(3)
H2A H 0.5030(9) 0.4707(7) 0.8547(3)
H3A H 0.6157(10) 0.2599(7) 0.8054(2)
H4A H 0.4239(10) 0.1974(7) 0.8059(2)
Mn1G Mn 0.70417(12) 0.44298(10) 0.48065(4)
O4D O 0.9188(6) -0.0477(5) 0.5653(2)
O5C O 0.5185(6) -0.1155(5) 0.5382(2)
O5G O 0.4815(6) 0.1155(5) 0.4618(2)
Mn1D Mn 1.29583(12) -0.05702(10) 0.48065(4)
Mn1C Mn 0.29583(12) 0.55702(10) 0.51935(4)
Mn1A Mn 0.70417(12) 0.05702(10) -0.01935(4)
Mn1E Mn 1.29583(12) -0.05702(10) 0.01935(4)
Mn1A_2 Mn 0.70417(12) 0.05702(10) 0.98065(4)
Mn1B Mn 0.70417(12) 0.44298(10) 1.01935(4)
Mn1F Mn 0.29583(12) 0.55702(10) 0.98065(4)
O2G O 0.8010(6) 0.5274(5) 0.5623(2)
O3G O 0.6157(6) 0.2968(5) 0.4152(2)
O4C O 0.9188(6) 0.5477(5) 0.4347(2)
O5D O 0.5185(6) 0.6155(5) 0.4618(2)
loop_
_geom_bond_atom_site_label_1
_geom_bond_atom_site_label_2
_geom_bond_site_symmetry_1
_geom_bond_site_symmetry_2
Mn1 O1 1_555 1_555
O1 H13 1_555 1_555
O2 Mn1 1_555 1_555
O3 Mn1 1_555 1_555
O4 C8 1_555 1_555
O5 C1 1_555 1_555
C1 O3 1_555 1_555
C2 C1 1_555 1_555
H1 C2 1_555 1_555
H2 C2 1_555 1_555
C3 C2 1_555 1_555
H3 C3 1_555 1_555
H4 C3 1_555 1_555
C4 C3 1_555 1_555
H5 C4 1_555 1_555
H6 C4 1_555 1_555
C5 H7 1_555 1_555
H8 C5 1_555 1_555
C6 C5 1_555 1_555
H9 C6 1_555 1_555
H10 C6 1_555 1_555
C7 C6 1_555 1_555
H11 C7 1_555 1_555
H12 C7 1_555 1_555
C8 O2 1_555 1_555
H13G O1 1_555 1_555
C6A C5 1_555 1_555
H9A C6A 1_555 1_555
H10A C6A 1_555 1_555
C7A C6A 1_555 1_555
H11A C7A 1_555 1_555
H12A C7A 1_555 1_555
C8A C7A 1_555 1_555
O2A C8A 1_555 1_555
O4A C8A 1_555 1_555
C3A C4 1_555 1_555
C2A C3A 1_555 1_555
C1A C2A 1_555 1_555
O3A C1A 1_555 1_555
O5A C1A 1_555 1_555
H1A C2A 1_555 1_555
H2A C2A 1_555 1_555
H3A C3A 1_555 1_555
H4A C3A 1_555 1_555
Mn1G O1 1_555 1_555
O4D Mn1 1_555 1_555
O5C Mn1 1_555 1_555
O5G Mn1 1_555 1_555
Mn1D O4 1_555 1_555
Mn1C O5 1_555 1_555
Mn1A O2A 1_555 1_555
Mn1E O4A 1_555 1_555
Mn1A_2 O3A 1_555 1_555
Mn1B O5A 1_555 1_555
Mn1F O5A 1_555 1_555
O2G Mn1G 1_555 1_555
O3G Mn1G 1_555 1_555
O4C Mn1G 1_555 1_555
O5D Mn1G 1_555 1_555
O5 Mn1G 1_555 1_555
C7 C8 1_555 1_555
Mn1C O5D 1_555 1_555

#END
