
#######################################################################
#
#                 Cambridge Crystallographic Data Centre
#                                CCDC 
#
#######################################################################
#
# If this CIF has been generated from an entry in the Cambridge 
# Structural Database, then it will include bibliographic, chemical, 
# crystal, experimental, refinement or atomic coordinate data resulting 
# from the CCDC's data processing and validation procedures.
#
#######################################################################

data_EHIVIB
_symmetry_cell_setting           monoclinic
_symmetry_space_group_name_H-M   'C 2/c'
_symmetry_Int_Tables_number      15
_space_group_name_Hall           '-C 2yn'
loop_
_symmetry_equiv_pos_site_id
_symmetry_equiv_pos_as_xyz
1 x,y,z
2 -x,y,1/2-z
3 1/2+x,1/2+y,z
4 1/2-x,1/2+y,1/2-z
5 -x,-y,-z
6 x,-y,1/2+z
7 1/2-x,1/2-y,-z
8 1/2+x,1/2-y,1/2+z
_cell_length_a                   19.3170(17)
_cell_length_b                   11.4150(17)
_cell_length_c                   15.029(2)
_cell_angle_alpha                90
_cell_angle_beta                 126.404(2)
_cell_angle_gamma                90
_cell_volume                     2667.24
loop_
_atom_site_label
_atom_site_type_symbol
_atom_site_fract_x
_atom_site_fract_y
_atom_site_fract_z
Mn1 Mn 0.21316(5) 0.61251(6) 0.00194(6)
Mn2 Mn 0.20057(5) 0.57496(6) 0.24728(6)
Mn3 Mn 0.32648(5) 0.77775(6) 0.21936(6)
N1 N 0.2618(2) 0.4414(3) 0.1072(3)
N2 N 0.2110(3) 0.4264(3) 0.1424(3)
C1 C 0.4829(3) 0.3706(4) 0.1056(4)
N3 N 0.4812(3) -0.1442(3) 0.1239(3)
O1 O 0.2033(2) 0.6798(3) 0.1304(3)
N4 N 0.5399(3) 0.5710(3) 0.1568(3)
C2 C 0.4151(3) 0.3987(4) 0.1093(4)
H1 H 0.4023 0.4767 0.1114
N5 N 0.4290(2) -0.0489(3) 0.0912(3)
N6 N 0.2749(3) 0.2590(3) 0.1688(3)
N7 N 0.6128(3) 0.4476(3) 0.1258(3)
C3 C 0.5431(3) 0.4629(4) 0.1241(4)
C4 C 0.3004(3) 0.3367(4) 0.1259(4)
N8 N 0.5626(3) 0.0101(3) 0.1635(3)
C5 C 0.3663(3) 0.3102(4) 0.1097(4)
N9 N 0.5593(3) -0.1102(3) 0.1672(3)
C6 C 0.3867(3) 0.1931(4) 0.1083(4)
H2 H 0.3548 0.1337 0.1106
C7 C 0.4541(3) 0.1655(4) 0.1035(4)
C8 C 0.4813(3) 0.0422(4) 0.1167(4)
C9 C 0.5014(3) 0.2545(4) 0.1000(4)
H3 H 0.5453 0.2364 0.0938
N10 N 0.2192(3) 0.3200(3) 0.1775(3)
N11 N 0.6531(3) 0.5522(3) 0.1597(3)
N12 N 0.6092(3) 0.6240(3) 0.1780(3)
O2 O 0.3317(2) 0.7212(3) 0.0889(3)
O3 O 0.2271(2) 0.5543(3) -0.1269(3)
H4 H 0.2809(8) 0.559(4) -0.089(3)
H5 H 0.3792(15) 0.693(4) 0.108(3)
H6 H 0.166(2) 0.733(3) 0.105(4)
Mn1F Mn 0.28684(5) -0.11251(6) -0.00194(6)
Mn1F_2 Mn 0.28684(5) 0.88749(6) -0.00194(6)
Mn2C Mn 0.29943(5) 0.07496(6) 0.25272(6)
Mn2B Mn 0.70057(5) 0.07496(6) 0.24728(6)
Mn2A Mn 0.79943(5) 0.57496(6) 0.25272(6)
Mn2E Mn 0.20057(5) 0.42504(6) -0.25272(6)
Mn3A Mn 0.67352(5) -0.22225(6) 0.28064(6)
Mn3C Mn 0.17352(5) 0.27775(6) 0.28064(6)
Mn3A_2 Mn 0.67352(5) 0.77775(6) 0.28064(6)
Mn3F Mn 0.17352(5) 0.72225(6) -0.21936(6)
N5F N 0.0710(2) 0.5489(3) -0.0912(3)
N6C N 0.2251(3) 0.7590(3) 0.3312(3)
N8B N 0.0626(3) 0.5101(3) 0.1635(3)
N9A N 0.4407(3) 0.8898(3) 0.3328(3)
N10C N 0.2808(3) 0.8200(3) 0.3225(3)
N11A N 0.3469(3) 0.5522(3) 0.3403(3)
N12A N 0.3908(3) 0.6240(3) 0.3220(3)
O2F O 0.1683(2) 0.7788(3) -0.0889(3)
O3E O 0.2271(2) 0.4457(3) 0.3731(3)
O3F O 0.2729(2) 0.9457(3) 0.1269(3)
H4E H 0.2809(8) 0.441(4) 0.411(3)
H4F H 0.2191(8) 0.941(4) 0.089(3)
H5F H 0.1208(15) 0.807(4) -0.108(3)
loop_
_geom_bond_atom_site_label_1
_geom_bond_atom_site_label_2
_geom_bond_site_symmetry_1
_geom_bond_site_symmetry_2
Mn1 N1 1_555 1_555
Mn2 N2 1_555 1_555
Mn3 O1 1_555 1_555
N1 N2 1_555 1_555
N2 N10 1_555 1_555
C1 C2 1_555 1_555
N3 N5 1_555 1_555
O1 Mn1 1_555 1_555
N4 C3 1_555 1_555
C2 H1 1_555 1_555
N5 C8 1_555 1_555
N6 C4 1_555 1_555
N7 C3 1_555 1_555
C3 C1 1_555 1_555
C4 N1 1_555 1_555
N8 N9 1_555 1_555
C5 C2 1_555 1_555
N9 N3 1_555 1_555
C6 C5 1_555 1_555
H2 C6 1_555 1_555
C7 C6 1_555 1_555
C8 N8 1_555 1_555
C9 C1 1_555 1_555
H3 C9 1_555 1_555
N10 N6 1_555 1_555
N11 N7 1_555 1_555
N12 N4 1_555 1_555
O2 Mn1 1_555 1_555
O3 Mn1 1_555 1_555
H4 O3 1_555 1_555
H5 O2 1_555 1_555
H6 O1 1_555 1_555
Mn1F N5 1_555 1_555
Mn1F_2 O2 1_555 1_555
Mn2C N6 1_555 1_555
Mn2B N8 1_555 1_555
Mn2A N11 1_555 1_555
Mn2E O3 1_555 1_555
Mn3A N9 1_555 1_555
Mn3C N10 1_555 1_555
Mn3A_2 N12 1_555 1_555
Mn3F O3 1_555 1_555
N5F Mn1 1_555 1_555
N6C Mn2 1_555 1_555
N8B Mn2 1_555 1_555
N9A Mn3 1_555 1_555
N10C Mn3 1_555 1_555
N11A Mn2 1_555 1_555
N12A Mn3 1_555 1_555
O2F Mn1 1_555 1_555
O3E Mn2 1_555 1_555
O3F Mn3 1_555 1_555
H4E O3E 1_555 1_555
H4F O3F 1_555 1_555
H5F O2F 1_555 1_555
Mn2 O1 1_555 1_555
Mn3 O2 1_555 1_555
C4 C5 1_555 1_555
C7 C8 1_555 1_555
C7 C9 1_555 1_555
N11 N12 1_555 1_555
Mn1F_2 O2F 1_555 1_555
Mn1F_2 O3F 1_555 1_555
Mn3C O3E 1_555 1_555
Mn3F O2F 1_555 1_555
N6C N10C 1_555 1_555
N11A N12A 1_555 1_555

#END
