
#######################################################################
#
#                 Cambridge Crystallographic Data Centre
#                                CCDC 
#
#######################################################################
#
# If this CIF has been generated from an entry in the Cambridge 
# Structural Database, then it will include bibliographic, chemical, 
# crystal, experimental, refinement or atomic coordinate data resulting 
# from the CCDC's data processing and validation procedures.
#
#######################################################################

data_EHIVOH
_symmetry_cell_setting           monoclinic
_symmetry_space_group_name_H-M   'C 2/c'
_symmetry_Int_Tables_number      15
_space_group_name_Hall           '-C 2yn'
loop_
_symmetry_equiv_pos_site_id
_symmetry_equiv_pos_as_xyz
1 x,y,z
2 -x,y,1/2-z
3 1/2+x,1/2+y,z
4 1/2-x,1/2+y,1/2-z
5 -x,-y,-z
6 x,-y,1/2+z
7 1/2-x,1/2-y,-z
8 1/2+x,1/2-y,1/2+z
_cell_length_a                   19.3030(11)
_cell_length_b                   11.4070(11)
_cell_length_c                   15.0320(13)
_cell_angle_alpha                90
_cell_angle_beta                 126.3450(10)
_cell_angle_gamma                90
_cell_volume                     2665.99
loop_
_atom_site_label
_atom_site_type_symbol
_atom_site_fract_x
_atom_site_fract_y
_atom_site_fract_z
Zn1 Zn -0.21320(7) 0.38780(9) 0.49804(8)
Zn2 Zn -0.17341(7) 0.27790(9) 0.71960(9)
N1 N -0.2382(4) 0.9419(5) 0.6078(5)
O1 O -0.1688(3) 0.2206(4) 0.5889(4)
O2 O -0.2029(3) 0.3195(4) 0.3697(4)
O3 O -0.2270(3) 0.4467(4) 0.6272(4)
N2 N -0.2809(4) 0.8198(5) 0.6777(5)
C1 C -0.0850(5) 0.8996(6) 0.6085(6)
H1 H -0.0983 0.9777 0.6095
N3 N -0.2254(4) 0.7598(5) 0.6686(5)
N4 N -0.0713(4) 0.4501(5) 0.5906(5)
N5 N -0.2887(4) 0.9268(5) 0.6421(5)
C2 C -0.1998(4) 0.8367(6) 0.6260(5)
C3 C -0.1339(4) 0.8095(6) 0.6098(5)
C4 C -0.0464(4) 0.6650(6) 0.6033(6)
C5 C -0.0190(4) 0.5426(6) 0.6160(5)
N6 N 0.0593(4) 0.3901(5) 0.6675(5)
C6 C -0.1143(4) 0.6922(6) 0.6075(5)
H2 H -0.1467 0.6328 0.6089
C7 C -0.0163(4) 0.8707(6) 0.6057(6)
C8 C 0.0011(4) 0.7543(6) 0.6001(6)
H3 H 0.0450 0.7356 0.5941
N7 N -0.0192(4) 0.3557(6) 0.6238(5)
N8 N 0.0623(4) 0.5094(5) 0.6640(5)
N9 N 0.1127(4) 0.9478(5) 0.6253(5)
N10 N 0.0403(4) 1.0713(5) 0.6569(5)
C9 C 0.0443(5) 0.9634(6) 0.6257(6)
N11 N 0.1092(4) 1.1234(5) 0.6776(5)
N12 N 0.1533(4) 1.0514(6) 0.6591(5)
Zn3 Zn -0.20047(7) 0.42465(9) 0.25282(9)
H4 H -0.2787(19) 0.425(7) 0.584(6)
H5 H -0.166(5) 0.267(6) 0.387(8)
H6 H -0.118(3) 0.200(9) 0.615(8)
Zn1F Zn -0.28680(7) 1.11220(9) 0.50196(8)
Zn1F_2 Zn -0.28680(7) 0.11220(9) 0.50196(8)
Zn2F Zn -0.32659(7) 0.22210(9) 0.28040(9)
Zn2C Zn -0.32659(7) 0.77790(9) 0.78040(9)
Zn2A Zn 0.17341(7) 0.27790(9) 0.78040(9)
Zn2A_2 Zn 0.17341(7) 1.27790(9) 0.78040(9)
N1F N -0.2618(4) 0.5581(5) 0.3922(5)
O1F O -0.3312(3) 0.2794(4) 0.4111(4)
O2F O -0.2971(3) 0.1805(4) 0.6303(4)
O3E O -0.2270(3) 0.5533(4) 0.1272(4)
N2C N -0.2191(4) 0.3198(5) 0.8223(5)
N3E N -0.2254(4) 0.2402(5) 0.1686(5)
N5F N -0.2113(4) 0.5732(5) 0.3579(5)
N6A N -0.0593(4) 0.3901(5) 0.8325(5)
N8D N -0.0623(4) 0.4906(5) 0.3360(5)
N11A N -0.1092(4) 0.1234(5) 0.8224(5)
N12G N -0.3467(4) 0.4486(6) 0.1591(5)
Zn3E Zn -0.20047(7) 0.57535(9) 0.75282(9)
Zn3F Zn -0.29953(7) 1.07535(9) 0.74718(9)
Zn3D Zn 0.20047(7) 0.57535(9) 0.74718(9)
Zn3G Zn 0.29953(7) 1.07535(9) 0.75282(9)
H4E H -0.2787(19) 0.575(7) 0.084(6)
H5F H -0.334(5) 0.233(6) 0.613(8)
H6F H -0.382(3) 0.300(9) 0.385(8)
loop_
_geom_bond_atom_site_label_1
_geom_bond_atom_site_label_2
_geom_bond_site_symmetry_1
_geom_bond_site_symmetry_2
Zn1 O1 1_555 1_555
Zn2 O1 1_555 1_555
N1 N5 1_555 1_555
O1 H6 1_555 1_555
O2 Zn1 1_555 1_555
O3 Zn1 1_555 1_555
N2 N3 1_555 1_555
C1 H1 1_555 1_555
N3 C2 1_555 1_555
N4 Zn1 1_555 1_555
N5 N2 1_555 1_555
C2 N1 1_555 1_555
C3 C1 1_555 1_555
C4 C5 1_555 1_555
C5 N4 1_555 1_555
N6 N7 1_555 1_555
C6 C3 1_555 1_555
H2 C6 1_555 1_555
C7 C1 1_555 1_555
C8 C4 1_555 1_555
H3 C8 1_555 1_555
N7 N4 1_555 1_555
N8 C5 1_555 1_555
N9 C9 1_555 1_555
N10 C9 1_555 1_555
C9 C7 1_555 1_555
N11 N10 1_555 1_555
N12 N9 1_555 1_555
Zn3 O2 1_555 1_555
H4 O3 1_555 1_555
H5 O2 1_555 1_555
Zn1F N1 1_555 1_555
Zn1F_2 O1 1_555 1_555
Zn2F O2 1_555 1_555
Zn2C N2 1_555 1_555
Zn2A N6 1_555 1_555
Zn2A_2 N11 1_555 1_555
N1F Zn1 1_555 1_555
O1F Zn1 1_555 1_555
O2F Zn2 1_555 1_555
O3E Zn3 1_555 1_555
N2C Zn2 1_555 1_555
N3E Zn3 1_555 1_555
N5F Zn3 1_555 1_555
N6A Zn2 1_555 1_555
N8D Zn3 1_555 1_555
N11A Zn2 1_555 1_555
N12G Zn3 1_555 1_555
Zn3E O3 1_555 1_555
Zn3F N5 1_555 1_555
Zn3D N8 1_555 1_555
Zn3G N12 1_555 1_555
H4E O3E 1_555 1_555
H5F O2F 1_555 1_555
H6F O1F 1_555 1_555
Zn2 O3 1_555 1_555
N3 Zn3E 1_555 1_555
C2 C3 1_555 1_555
C4 C6 1_555 1_555
N6 N8 1_555 1_555
C7 C8 1_555 1_555
N11 N12 1_555 1_555
Zn1F_2 O1F 1_555 1_555
Zn1F_2 O2F 1_555 1_555
Zn2F O1F 1_555 1_555
N1F N5F 1_555 1_555

#END
