
#######################################################################
#
#                 Cambridge Crystallographic Data Centre
#                                CCDC 
#
#######################################################################
#
# If this CIF has been generated from an entry in the Cambridge 
# Structural Database, then it will include bibliographic, chemical, 
# crystal, experimental, refinement or atomic coordinate data resulting 
# from the CCDC's data processing and validation procedures.
#
#######################################################################

data_EHIVUN
_symmetry_cell_setting           monoclinic
_symmetry_space_group_name_H-M   'C 2/c'
_symmetry_Int_Tables_number      15
_space_group_name_Hall           '-C 2yn'
loop_
_symmetry_equiv_pos_site_id
_symmetry_equiv_pos_as_xyz
1 x,y,z
2 -x,y,1/2-z
3 1/2+x,1/2+y,z
4 1/2-x,1/2+y,1/2-z
5 -x,-y,-z
6 x,-y,1/2+z
7 1/2-x,1/2-y,-z
8 1/2+x,1/2-y,1/2+z
_cell_length_a                   18.1298(14)
_cell_length_b                   11.4379(8)
_cell_length_c                   17.4201(13)
_cell_angle_alpha                90
_cell_angle_beta                 90.9810(10)
_cell_angle_gamma                90
_cell_volume                     3611.82
loop_
_atom_site_label
_atom_site_type_symbol
_atom_site_fract_x
_atom_site_fract_y
_atom_site_fract_z
Hg1 Hg 0.413984(7) 0.613034(11) 0.171456(8)
Cl1 Cl 0.53984(6) 0.62933(9) 0.14584(7)
Cl2 Cl 0.29481(5) 0.58264(8) 0.21842(6)
N1 N 0.37160(15) 0.6499(2) 0.02480(16)
N2 N 0.39138(16) 0.8314(2) 0.12672(15)
N3 N 0.40679(16) 0.9364(3) 0.16180(15)
N4 N 0.4305(2) 1.3802(3) 0.1531(2)
N5 N 0.38089(15) 0.9691(2) 0.04014(15)
N6 N 0.41563(19) 1.0172(3) -0.08510(18)
C1 C 0.31763(19) 0.7771(3) -0.06906(19)
H1 H 0.3057 0.8528 -0.0844
C2 C 0.2986(2) 0.6838(3) -0.1147(2)
H2 H 0.2737 0.6953 -0.1611
C3 C 0.3170(2) 0.5730(3) -0.0907(2)
H3 H 0.3057 0.5080 -0.1208
C4 C 0.3527(2) 0.5612(3) -0.0212(2)
H4 H 0.3646 0.4860 -0.0049
C5 C 0.35452(18) 0.7582(3) -0.00046(18)
C6 C 0.37631(17) 0.8517(3) 0.05412(19)
C7 C 0.40000(19) 1.0173(3) 0.10917(19)
C8 C 0.41276(19) 1.1431(3) 0.1239(2)
C9 C 0.3881(2) 1.1918(3) 0.1911(2)
H5 H 0.3646 1.1461 0.2275
C10 C 0.3989(3) 1.3100(4) 0.2033(3)
H6 H 0.3831 1.3420 0.2492
C11 C 0.4560(2) 1.3321(3) 0.0904(2)
H7 H 0.4811 1.3797 0.0563
C12 C 0.4480(2) 1.2159(3) 0.0720(2)
H8 H 0.4656 1.1866 0.0260
C13 C 0.3660(2) 1.0323(3) -0.03033(19)
C14 C 0.3055(2) 1.1003(3) -0.0333(2)
H9 H 0.2741 1.1086 0.0079
C15 C 0.2936(3) 1.1574(4) -0.1028(3)
H10 H 0.2527 1.2057 -0.1093
C16 C 0.3416(3) 1.1427(4) -0.1617(3)
H11 H 0.3330 1.1793 -0.2087
C17 C 0.4015(3) 1.0749(4) -0.1510(2)
H12 H 0.4345 1.0675 -0.1910
Hg1_2 Hg 0.413984(7) 1.613034(11) 0.171456(8)
N4_2 N 0.4305(2) 0.3802(3) 0.1531(2)
loop_
_geom_bond_atom_site_label_1
_geom_bond_atom_site_label_2
_geom_bond_site_symmetry_1
_geom_bond_site_symmetry_2
Hg1 Cl1 1_555 1_555
Cl2 Hg1 1_555 1_555
N1 Hg1 1_555 1_555
N2 Hg1 1_555 1_555
N3 N2 1_555 1_555
N4 C10 1_555 1_555
N5 C6 1_555 1_555
N6 C13 1_555 1_555
C1 H1 1_555 1_555
C2 C1 1_555 1_555
H2 C2 1_555 1_555
C3 C2 1_555 1_555
H3 C3 1_555 1_555
C4 N1 1_555 1_555
H4 C4 1_555 1_555
C5 N1 1_555 1_555
C6 N2 1_555 1_555
C7 N3 1_555 1_555
C8 C7 1_555 1_555
C9 C8 1_555 1_555
H5 C9 1_555 1_555
C10 C9 1_555 1_555
H6 C10 1_555 1_555
C11 N4 1_555 1_555
H7 C11 1_555 1_555
C12 C8 1_555 1_555
H8 C12 1_555 1_555
C13 N5 1_555 1_555
C14 C13 1_555 1_555
H9 C14 1_555 1_555
C15 C14 1_555 1_555
H10 C15 1_555 1_555
C16 C15 1_555 1_555
H11 C16 1_555 1_555
C17 N6 1_555 1_555
H12 C17 1_555 1_555
Hg1_2 N4 1_555 1_555
N4_2 Hg1 1_555 1_555
N5 C7 1_555 1_555
C1 C5 1_555 1_555
C3 C4 1_555 1_555
C5 C6 1_555 1_555
C11 C12 1_555 1_555
C16 C17 1_555 1_555

#END
