
#######################################################################
#
#                 Cambridge Crystallographic Data Centre
#                                CCDC 
#
#######################################################################
#
# If this CIF has been generated from an entry in the Cambridge 
# Structural Database, then it will include bibliographic, chemical, 
# crystal, experimental, refinement or atomic coordinate data resulting 
# from the CCDC's data processing and validation procedures.
#
#######################################################################

data_EHIWOI
_symmetry_cell_setting           orthorhombic
_symmetry_space_group_name_H-M   'P 21 21 21'
_symmetry_Int_Tables_number      19
_space_group_name_Hall           'P 2ac 2ab'
loop_
_symmetry_equiv_pos_site_id
_symmetry_equiv_pos_as_xyz
1 x,y,z
2 1/2-x,-y,1/2+z
3 -x,1/2+y,1/2-z
4 1/2+x,1/2-y,-z
_cell_length_a                   6.9924(4)
_cell_length_b                   11.8791(4)
_cell_length_c                   22.8172(15)
_cell_angle_alpha                90
_cell_angle_beta                 90
_cell_angle_gamma                90
_cell_volume                     1895.27
loop_
_atom_site_label
_atom_site_type_symbol
_atom_site_fract_x
_atom_site_fract_y
_atom_site_fract_z
Cu1 Cu 0.48362(5) 0.19021(3) 0.924239(14)
Cl1 Cl 0.21796(10) 0.23110(6) 0.97591(3)
O1 O 0.3036(3) 0.13835(18) 0.84037(9)
H1 H 0.2690 0.0675 0.8486
N1 N 0.5373(3) 0.34300(19) 0.89305(10)
N2 N 0.7083(3) 0.14362(19) 0.87069(10)
N3 N 0.5356(3) 0.04131(18) 0.96135(10)
C1 C 0.4357(5) 0.4369(2) 0.90501(13)
H2 H 0.3224 0.4302 0.9261
C2 C 0.4939(5) 0.5422(2) 0.88706(13)
H3 H 0.4188 0.6051 0.8948
C3 C 0.6651(5) 0.5533(3) 0.85736(13)
H4 H 0.7088 0.6239 0.8459
C4 C 0.7709(5) 0.4574(2) 0.84485(13)
H5 H 0.8860 0.4628 0.8246
C5 C 0.7024(4) 0.3528(2) 0.86311(12)
C6 C 0.8099(4) 0.2463(2) 0.85001(14)
H6 H 0.8299 0.2407 0.8080
H7 H 0.9345 0.2498 0.8686
C7 C 0.8323(4) 0.0730(2) 0.90911(13)
H8 H 0.9116 0.1210 0.9334
H9 H 0.9156 0.0266 0.8852
C8 C 0.7093(4) -0.0009(2) 0.94731(12)
C9 C 0.7745(5) -0.1018(2) 0.96950(13)
H10 H 0.8921 -0.1307 0.9579
C10 C 0.6613(4) -0.1595(3) 1.00951(13)
H11 H 0.7033 -0.2271 1.0256
C11 C 0.4854(5) -0.1154(2) 1.02524(12)
H12 H 0.4088 -0.1522 1.0525
C12 C 0.4256(4) -0.0157(2) 0.99970(13)
H13 H 0.3058 0.0128 1.0093
C13 C 0.6283(4) 0.0720(2) 0.82160(13)
H14 H 0.5881 0.0007 0.8394
C14 C 0.4491(4) 0.1262(3) 0.79700(13)
H15 H 0.4811 0.1998 0.7814
H16 H 0.4007 0.0806 0.7650
C15 C 0.7722(5) 0.0416(2) 0.77305(14)
H17 H 0.7654 0.0971 0.7419
H18 H 0.9009 0.0424 0.7889
C16 C 0.7267(5) -0.0756(3) 0.74835(14)
H19 H 0.5951 -0.0784 0.7364
H20 H 0.7491 -0.1314 0.7780
H21 H 0.8073 -0.0904 0.7152
Cu1C Cu -0.01638(5) 0.30979(3) 1.075761(14)
Cl1C Cl 0.71796(10) 0.26890(6) 1.02409(3)
Cl2 Cl 0.22847(11) -0.17255(6) 0.84017(3)
O2 O 0.1995(4) -0.0858(2) 0.88253(12)
O3 O 0.0938(4) -0.2603(2) 0.84997(12)
O4 O 0.2076(5) -0.1259(3) 0.78339(12)
O5 O 0.4202(4) -0.2121(2) 0.84702(17)
loop_
_geom_bond_atom_site_label_1
_geom_bond_atom_site_label_2
_geom_bond_site_symmetry_1
_geom_bond_site_symmetry_2
Cu1 Cl1 1_555 1_555
Cl1 Cu1C 1_555 1_555
Cl2 O2 1_555 1_555
O1 Cu1 1_555 1_555
H1 O1 1_555 1_555
O3 Cl2 1_555 1_555
O4 Cl2 1_555 1_555
O5 Cl2 1_555 1_555
N1 Cu1 1_555 1_555
N2 Cu1 1_555 1_555
N3 Cu1 1_555 1_555
C1 N1 1_555 1_555
H2 C1 1_555 1_555
C2 C1 1_555 1_555
H3 C2 1_555 1_555
C3 C2 1_555 1_555
H4 C3 1_555 1_555
C4 C3 1_555 1_555
H5 C4 1_555 1_555
C5 N1 1_555 1_555
C6 N2 1_555 1_555
H6 C6 1_555 1_555
H7 C6 1_555 1_555
C7 N2 1_555 1_555
H8 C7 1_555 1_555
H9 C7 1_555 1_555
C8 N3 1_555 1_555
C9 C8 1_555 1_555
H10 C9 1_555 1_555
C10 C9 1_555 1_555
H11 C10 1_555 1_555
C11 C10 1_555 1_555
H12 C11 1_555 1_555
C12 N3 1_555 1_555
H13 C12 1_555 1_555
C13 N2 1_555 1_555
H14 C13 1_555 1_555
C14 O1 1_555 1_555
H15 C14 1_555 1_555
H16 C14 1_555 1_555
C15 C13 1_555 1_555
H17 C15 1_555 1_555
H18 C15 1_555 1_555
C16 C15 1_555 1_555
H19 C16 1_555 1_555
H20 C16 1_555 1_555
H21 C16 1_555 1_555
Cl1C Cu1 1_555 1_555
C4 C5 1_555 1_555
C5 C6 1_555 1_555
C7 C8 1_555 1_555
C11 C12 1_555 1_555
C13 C14 1_555 1_555

#END
