
#######################################################################
#
#                 Cambridge Crystallographic Data Centre
#                                CCDC 
#
#######################################################################
#
# If this CIF has been generated from an entry in the Cambridge 
# Structural Database, then it will include bibliographic, chemical, 
# crystal, experimental, refinement or atomic coordinate data resulting 
# from the CCDC's data processing and validation procedures.
#
#######################################################################

data_EHIYOK
_symmetry_cell_setting           monoclinic
_symmetry_space_group_name_H-M   'P 21/c'
_symmetry_Int_Tables_number      14
_space_group_name_Hall           '-P 2ybc'
loop_
_symmetry_equiv_pos_site_id
_symmetry_equiv_pos_as_xyz
1 x,y,z
2 -x,1/2+y,1/2-z
3 -x,-y,-z
4 x,1/2-y,1/2+z
_cell_length_a                   7.714(3)
_cell_length_b                   24.675(7)
_cell_length_c                   9.404(3)
_cell_angle_alpha                90
_cell_angle_beta                 111.935(4)
_cell_angle_gamma                90
_cell_volume                     1660.4
loop_
_atom_site_label
_atom_site_type_symbol
_atom_site_fract_x
_atom_site_fract_y
_atom_site_fract_z
Ni1 Ni 0.16044(5) 0.694150(14) 0.75336(4)
V1 V 0.47854(6) 0.73806(2) 1.10213(5)
V2 V -0.27369(7) 0.68154(2) 0.44802(5)
O1 O -0.0588(3) 0.70336(10) 0.5465(3)
O2 O 0.0679(3) 0.76819(9) 0.8089(3)
O3 O 0.3815(3) 0.69548(9) 0.9597(2)
O4 O 0.3184(3) 0.73674(9) 0.6588(3)
O5 O 0.6642(3) 0.70599(11) 1.2538(2)
O6 O 0.5732(4) 0.79370(10) 1.0338(3)
O7 O -0.2727(4) 0.61613(10) 0.4498(3)
N1 N -0.0014(3) 0.64537(10) 0.8346(3)
N2 N 0.2318(3) 0.61957(10) 0.6970(3)
N3 N -0.1888(5) 0.45120(12) 0.7997(3)
H1 H -0.2774 0.4484 0.8339
N4 N 0.0287(4) 0.42835(13) 0.6965(3)
C1 C -0.1163(5) 0.66000(13) 0.9037(4)
H2 H -0.1202 0.6963 0.9293
C2 C -0.2314(5) 0.62316(15) 0.9395(4)
H3 H -0.3094 0.6350 0.9883
C3 C -0.2291(5) 0.56967(14) 0.9026(4)
H4 H -0.3065 0.5449 0.9244
C4 C -0.1072(4) 0.55284(12) 0.8309(4)
C5 C -0.0870(5) 0.49818(13) 0.7867(4)
C6 C 0.0429(5) 0.48501(12) 0.7238(4)
C7 C 0.1595(4) 0.52404(12) 0.6913(3)
C8 C 0.2929(5) 0.51334(13) 0.6259(4)
H5 H 0.3149 0.4780 0.6026
C9 C 0.3898(5) 0.55555(14) 0.5969(4)
H6 H 0.4782 0.5491 0.5535
C10 C 0.3552(4) 0.60823(13) 0.6329(4)
H7 H 0.4209 0.6366 0.6114
C11 C 0.1343(4) 0.57823(12) 0.7264(3)
C12 C 0.0044(4) 0.59248(12) 0.7987(3)
C13 C -0.1095(6) 0.41311(15) 0.7447(4)
H8 H -0.1474 0.3771 0.7393
H9 H 0.082(6) 0.7727(18) 0.904(4)
H10 H -0.044(6) 0.772(2) 0.747(4)
V1C V 0.47854(6) 0.76194(2) 0.60213(5)
V2_2 V 0.72631(7) 0.68154(2) 1.44802(5)
V2C V 0.72631(7) 0.81846(2) 0.94802(5)
O4C O 0.3184(3) 0.76326(9) 1.1588(3)
O5_2 O -0.3358(3) 0.70599(11) 0.2538(2)
O6C O -0.4268(4) 0.70630(10) 0.5338(3)
O8 O -0.4654(6) 0.4283(2) 0.9217(5)
loop_
_geom_bond_atom_site_label_1
_geom_bond_atom_site_label_2
_geom_bond_site_symmetry_1
_geom_bond_site_symmetry_2
Ni1 O1 1_555 1_555
V1 O3 1_555 1_555
V2 O1 1_555 1_555
O2 Ni1 1_555 1_555
O3 Ni1 1_555 1_555
O4 Ni1 1_555 1_555
O5 V1 1_555 1_555
O6 V1 1_555 1_555
O7 V2 1_555 1_555
N1 Ni1 1_555 1_555
N2 Ni1 1_555 1_555
N3 H1 1_555 1_555
N4 C6 1_555 1_555
C1 N1 1_555 1_555
H2 C1 1_555 1_555
C2 C1 1_555 1_555
H3 C2 1_555 1_555
C3 C2 1_555 1_555
H4 C3 1_555 1_555
C4 C3 1_555 1_555
C5 N3 1_555 1_555
C6 C5 1_555 1_555
C7 C6 1_555 1_555
C8 C7 1_555 1_555
H5 C8 1_555 1_555
C9 C8 1_555 1_555
H6 C9 1_555 1_555
C10 N2 1_555 1_555
H7 C10 1_555 1_555
C11 N2 1_555 1_555
C12 N1 1_555 1_555
C13 N3 1_555 1_555
H8 C13 1_555 1_555
H9 O2 1_555 1_555
H10 O2 1_555 1_555
V1C O4 1_555 1_555
V2_2 O5 1_555 1_555
V2C O6 1_555 1_555
O4C V1 1_555 1_555
O5_2 V2 1_555 1_555
O6C V2 1_555 1_555
N4 C13 1_555 1_555
C4 C5 1_555 1_555
C4 C12 1_555 1_555
C7 C11 1_555 1_555
C9 C10 1_555 1_555
C11 C12 1_555 1_555

#END
