
#######################################################################
#
#                 Cambridge Crystallographic Data Centre
#                                CCDC 
#
#######################################################################
#
# If this CIF has been generated from an entry in the Cambridge 
# Structural Database, then it will include bibliographic, chemical, 
# crystal, experimental, refinement or atomic coordinate data resulting 
# from the CCDC's data processing and validation procedures.
#
#######################################################################

data_EHIZEB
_symmetry_cell_setting           monoclinic
_symmetry_space_group_name_H-M   'P 21/c'
_symmetry_Int_Tables_number      14
_space_group_name_Hall           '-P 2ybc'
loop_
_symmetry_equiv_pos_site_id
_symmetry_equiv_pos_as_xyz
1 x,y,z
2 -x,1/2+y,1/2-z
3 -x,-y,-z
4 x,1/2-y,1/2+z
_cell_length_a                   11.7904(12)
_cell_length_b                   13.3491(14)
_cell_length_c                   19.719(2)
_cell_angle_alpha                90
_cell_angle_beta                 98.6040(10)
_cell_angle_gamma                90
_cell_volume                     3068.67
loop_
_atom_site_label
_atom_site_type_symbol
_atom_site_fract_x
_atom_site_fract_y
_atom_site_fract_z
Zn1 Zn 0.29501(3) 1.02915(2) 1.073227(14)
Zn2 Zn 0.50034(3) 0.88052(2) 0.998048(15)
O1 O 0.32236(15) 1.12850(13) 0.94725(9)
O2 O 0.20203(16) 1.13848(13) 1.02398(9)
O3 O 0.20986(17) 0.92479(14) 1.00351(9)
O4 O 0.34166(16) 0.88205(14) 0.93810(9)
O5 O 0.45302(16) 1.21989(13) 1.07525(9)
O6 O 0.36726(17) 1.13620(12) 1.15170(9)
O7 O 0.45334(14) 0.99161(12) 1.06085(8)
N1 N -0.2682(3) 1.5057(2) 0.99422(17)
N2 N 0.22321(18) 0.54012(15) 0.65083(10)
N3 N 0.47458(19) 1.75439(15) 1.06113(11)
C1 C 0.1672(2) 1.24359(19) 0.92630(13)
C2 C 0.0711(2) 1.28556(19) 0.94818(13)
H1 H 0.0462 1.2608 0.9875
C3 C 0.0108(2) 1.3644(2) 0.91234(14)
C4 C 0.0483(3) 1.3980(2) 0.85260(15)
H2 H 0.0087 1.4493 0.8273
C5 C 0.1432(3) 1.3563(2) 0.83044(15)
H3 H 0.1675 1.3799 0.7906
C6 C 0.2024(3) 1.2797(2) 0.86706(14)
H4 H 0.2664 1.2521 0.8518
C7 C 0.2352(2) 1.16387(19) 0.96838(13)
C8 C -0.2396(3) 1.4106(3) 1.00701(19)
H5 H -0.2810 1.3747 1.0355
C9 C -0.1521(3) 1.3612(3) 0.98074(17)
H6 H -0.1370 1.2941 0.9912
C10 C -0.0876(3) 1.4120(2) 0.93896(15)
C11 C -0.1173(3) 1.5113(2) 0.92492(19)
H7 H -0.0777 1.5493 0.8966
C12 C -0.2062(3) 1.5531(3) 0.9535(2)
H8 H -0.2241 1.6198 0.9433
C13 C 0.1507(2) 0.83721(19) 0.90022(13)
C14 C 0.1844(2) 0.77437(19) 0.85064(12)
H9 H 0.2619 0.7682 0.8473
C15 C 0.1047(2) 0.7207(2) 0.80601(12)
C16 C -0.0113(2) 0.7318(2) 0.81078(13)
H10 H -0.0658 0.6965 0.7811
C17 C -0.0460(2) 0.7952(2) 0.85947(14)
H11 H -0.1237 0.8023 0.8622
C18 C 0.0342(2) 0.8479(2) 0.90392(13)
H12 H 0.0104 0.8905 0.9364
C19 C 0.2411(2) 0.88678(18) 0.95106(13)
C20 C 0.2829(2) 0.5475(2) 0.71371(13)
H13 H 0.3518 0.5128 0.7234
C21 C 0.2474(2) 0.6041(2) 0.76491(14)
H14 H 0.2932 0.6084 0.8075
C22 C 0.1435(2) 0.65486(19) 0.75332(13)
C23 C 0.0800(2) 0.6435(2) 0.68872(13)
H15 H 0.0085 0.6738 0.6787
C24 C 0.1222(2) 0.5876(2) 0.63927(13)
H16 H 0.0786 0.5827 0.5960
C25 C 0.4130(2) 1.30772(18) 1.17268(13)
C26 C 0.4415(2) 1.39793(18) 1.14471(13)
H17 H 0.4680 1.3978 1.1026
C27 C 0.4317(2) 1.48875(18) 1.17807(13)
C28 C 0.3959(3) 1.4871(2) 1.24215(14)
H18 H 0.3883 1.5468 1.2653
C29 C 0.3714(3) 1.3972(2) 1.27163(14)
H19 H 0.3504 1.3967 1.3153
C30 C 0.3779(3) 1.3080(2) 1.23664(14)
H20 H 0.3586 1.2481 1.2561
C31 C 0.4122(2) 1.21312(18) 1.13013(13)
C32 C 0.4034(3) 1.7526(2) 1.10826(14)
H21 H 0.3606 1.8097 1.1138
C33 C 0.3902(3) 1.6706(2) 1.14899(15)
H22 H 0.3403 1.6738 1.1812
C34 C 0.4518(2) 1.58303(18) 1.14182(13)
C35 C 0.5282(2) 1.58645(19) 1.09421(14)
H23 H 0.5734 1.5310 1.0883
C36 C 0.5367(2) 1.67108(19) 1.05617(14)
H24 H 0.5886 1.6709 1.0250
H25 H 0.5050 1.0001 1.1017
Zn1C Zn 0.29501(3) 0.47085(2) 0.573227(14)
Zn2B Zn 0.49966(3) 1.11948(2) 1.001952(15)
Zn2_2 Zn 0.50034(3) 1.88052(2) 0.998048(15)
O1B O 0.67764(15) 0.87150(13) 1.05275(9)
O5B O 0.54698(16) 0.78011(13) 0.92475(9)
O7B O 0.54666(14) 1.00839(12) 0.93915(8)
N2C N 0.22321(18) 0.95988(15) 1.15083(10)
N3_2 N 0.47458(19) 0.75439(15) 1.06113(11)
H25B H 0.4950 0.9999 0.8983
loop_
_geom_bond_atom_site_label_1
_geom_bond_atom_site_label_2
_geom_bond_site_symmetry_1
_geom_bond_site_symmetry_2
Zn1 O2 1_555 1_555
Zn2 O4 1_555 1_555
O1 C7 1_555 1_555
O2 C7 1_555 1_555
O3 Zn1 1_555 1_555
O4 C19 1_555 1_555
O5 C31 1_555 1_555
O6 Zn1 1_555 1_555
O7 Zn1 1_555 1_555
N1 C8 1_555 1_555
N2 C20 1_555 1_555
N3 C32 1_555 1_555
C1 C2 1_555 1_555
C2 H1 1_555 1_555
C3 C2 1_555 1_555
C4 C3 1_555 1_555
H2 C4 1_555 1_555
C5 C4 1_555 1_555
H3 C5 1_555 1_555
C6 C1 1_555 1_555
H4 C6 1_555 1_555
C7 C1 1_555 1_555
C8 H5 1_555 1_555
C9 C8 1_555 1_555
H6 C9 1_555 1_555
C10 C3 1_555 1_555
C11 C10 1_555 1_555
H7 C11 1_555 1_555
C12 N1 1_555 1_555
H8 C12 1_555 1_555
C13 C14 1_555 1_555
C14 H9 1_555 1_555
C15 C14 1_555 1_555
C16 C15 1_555 1_555
H10 C16 1_555 1_555
C17 C16 1_555 1_555
H11 C17 1_555 1_555
C18 C13 1_555 1_555
H12 C18 1_555 1_555
C19 O3 1_555 1_555
C20 H13 1_555 1_555
C21 C20 1_555 1_555
H14 C21 1_555 1_555
C22 C15 1_555 1_555
C23 C22 1_555 1_555
H15 C23 1_555 1_555
C24 N2 1_555 1_555
H16 C24 1_555 1_555
C25 C26 1_555 1_555
C26 H17 1_555 1_555
C27 C26 1_555 1_555
C28 C27 1_555 1_555
H18 C28 1_555 1_555
C29 C28 1_555 1_555
H19 C29 1_555 1_555
C30 C25 1_555 1_555
H20 C30 1_555 1_555
C31 O6 1_555 1_555
C32 H21 1_555 1_555
C33 C32 1_555 1_555
H22 C33 1_555 1_555
C34 C27 1_555 1_555
C35 C34 1_555 1_555
H23 C35 1_555 1_555
C36 N3 1_555 1_555
H24 C36 1_555 1_555
H25 O7 1_555 1_555
Zn1C N2 1_555 1_555
Zn2B O1 1_555 1_555
Zn2_2 N3 1_555 1_555
O1B Zn2 1_555 1_555
O5B Zn2 1_555 1_555
O7B Zn2 1_555 1_555
N2C Zn1 1_555 1_555
N3_2 Zn2 1_555 1_555
H25B O7B 1_555 1_555
Zn2 O7 1_555 1_555
O5 Zn2B 1_555 1_555
O7 Zn2B 1_555 1_555
C5 C6 1_555 1_555
C9 C10 1_555 1_555
C11 C12 1_555 1_555
C13 C19 1_555 1_555
C17 C18 1_555 1_555
C21 C22 1_555 1_555
C23 C24 1_555 1_555
C25 C31 1_555 1_555
C29 C30 1_555 1_555
C33 C34 1_555 1_555
C35 C36 1_555 1_555
Zn2B O7B 1_555 1_555

#END
