
#######################################################################
#
#                 Cambridge Crystallographic Data Centre
#                                CCDC 
#
#######################################################################
#
# If this CIF has been generated from an entry in the Cambridge 
# Structural Database, then it will include bibliographic, chemical, 
# crystal, experimental, refinement or atomic coordinate data resulting 
# from the CCDC's data processing and validation procedures.
#
#######################################################################

data_EHIZAX
_symmetry_cell_setting           triclinic
_symmetry_space_group_name_H-M   'P -1'
_symmetry_Int_Tables_number      2
_space_group_name_Hall           '-P 1'
loop_
_symmetry_equiv_pos_site_id
_symmetry_equiv_pos_as_xyz
1 x,y,z
2 -x,-y,-z
_cell_length_a                   11.4508(14)
_cell_length_b                   11.6836(14)
_cell_length_c                   14.1359(18)
_cell_angle_alpha                93.129(2)
_cell_angle_beta                 105.146(2)
_cell_angle_gamma                117.015(2)
_cell_volume                     1592.96
loop_
_atom_site_label
_atom_site_type_symbol
_atom_site_fract_x
_atom_site_fract_y
_atom_site_fract_z
Cd1 Cd 0.69537(4) 0.34979(3) 0.47452(3)
O1 O 0.9251(4) 0.3787(3) 0.5903(3)
O2 O 0.7566(4) 0.1878(3) 0.4999(3)
O3 O 0.1935(6) -0.2800(5) 0.9509(4)
H1 H 0.1641 -0.3594 0.9415
O4 O 0.2859(7) -0.2969(5) 0.8353(4)
O5 O 0.4931(4) 0.3655(4) 0.3401(3)
O6 O 0.5003(4) 0.1845(4) 0.3610(3)
O7 O 0.8147(4) 0.4129(4) 0.3625(3)
H2 H 0.8908 0.4832 0.3738
H3 H 0.7861 0.3836 0.2999
N1 N 0.7770(4) -0.4312(4) 0.5350(3)
N2 N 0.5886(4) 0.2799(4) 0.6009(3)
N3 N -0.0781(10) -0.4679(7) 0.0868(6)
C1 C 0.8750(5) 0.2565(5) 0.5619(4)
C2 C 0.9563(5) 0.1912(4) 0.6048(4)
C3 C 0.8951(5) 0.0546(4) 0.5781(4)
H4 H 0.8044 0.0070 0.5352
C4 C 0.9671(5) -0.0116(5) 0.6145(4)
C5 C 1.1035(6) 0.0644(5) 0.6794(4)
H5 H 1.1540 0.0231 0.7055
C6 C 1.1635(6) 0.1974(5) 0.7051(5)
H6 H 1.2541 0.2453 0.7481
C7 C 1.0911(5) 0.2622(5) 0.6680(4)
H7 H 1.1331 0.3530 0.6857
C8 C 0.9010(5) -0.1557(4) 0.5870(4)
C9 C 0.7673(6) -0.2333(5) 0.5265(4)
H8 H 0.7140 -0.1944 0.5010
C10 C 0.7093(6) -0.3675(5) 0.5023(5)
H9 H 0.6179 -0.4157 0.4608
C11 C 0.9059(6) -0.3588(5) 0.5953(4)
H10 H 0.9556 -0.4009 0.6211
C12 C 0.9700(6) -0.2241(5) 0.6218(5)
H11 H 1.0613 -0.1782 0.6638
C13 C 0.2623(8) -0.2310(7) 0.8913(5)
C14 C 0.3211(6) -0.0860(5) 0.9005(4)
C15 C 0.3194(6) -0.0120(6) 0.9785(4)
H12 H 0.2820 -0.0511 1.0268
C16 C 0.3744(7) 0.1222(7) 0.9840(5)
H13 H 0.3735 0.1738 1.0360
C17 C 0.4310(6) 0.1796(6) 0.9115(4)
H14 H 0.4681 0.2697 0.9163
C18 C 0.4334(5) 0.1055(5) 0.8325(4)
C19 C 0.3790(6) -0.0287(5) 0.8291(4)
H15 H 0.3816 -0.0807 0.7784
C20 C 0.4886(5) 0.1675(5) 0.7542(4)
C21 C 0.5573(6) 0.3012(5) 0.7598(5)
H16 H 0.5727 0.3578 0.8161
C22 C 0.6032(7) 0.3517(6) 0.6827(5)
H17 H 0.6473 0.4423 0.6888
C23 C 0.5210(6) 0.1502(5) 0.5942(5)
H18 H 0.5084 0.0967 0.5371
C24 C 0.4693(6) 0.0909(5) 0.6654(4)
H19 H 0.4213 -0.0001 0.6552
C25 C 0.4408(6) 0.2442(6) 0.3207(4)
C26 C 0.2970(6) 0.1640(5) 0.2469(4)
C27 C 0.2378(6) 0.0299(5) 0.2219(4)
H20 H 0.2905 -0.0094 0.2483
C28 C 0.1033(6) -0.0495(6) 0.1590(4)
C29 C 0.0277(7) 0.0143(7) 0.1225(5)
H21 H -0.0636 -0.0359 0.0812
C30 C 0.0833(7) 0.1480(8) 0.1454(5)
H22 H 0.0303 0.1871 0.1196
C31 C 0.2183(7) 0.2240(6) 0.2070(4)
H23 H 0.2571 0.3148 0.2221
C32 C 0.0412(7) -0.1922(6) 0.1334(4)
C33 C -0.0955(8) -0.2735(8) 0.0703(6)
H24 H -0.1510 -0.2378 0.0419
C34 C -0.1464(11) -0.4095(10) 0.0511(7)
H25 H -0.2370 -0.4616 0.0090
C35 C 0.0521(11) -0.3916(8) 0.1453(7)
H26 H 0.1040 -0.4316 0.1718
C36 C 0.1138(8) -0.2587(7) 0.1687(6)
H27 H 0.2059 -0.2110 0.2090
Cd1_2 Cd 0.69537(4) -0.65021(3) 0.47452(3)
N1_2 N 0.7770(4) 0.5688(4) 0.5350(3)
O8 O 0.5726(10) 0.4634(7) 0.1712(6)
H28 H 0.532(9) 0.380(3) 0.148(5)
H29 H 0.563(9) 0.468(7) 0.230(3)
loop_
_geom_bond_atom_site_label_1
_geom_bond_atom_site_label_2
_geom_bond_site_symmetry_1
_geom_bond_site_symmetry_2
Cd1 O1 1_555 1_555
O1 C1 1_555 1_555
O2 Cd1 1_555 1_555
O3 H1 1_555 1_555
O4 C13 1_555 1_555
O5 Cd1 1_555 1_555
O6 Cd1 1_555 1_555
O7 Cd1 1_555 1_555
H2 O7 1_555 1_555
H3 O7 1_555 1_555
O8 H28 1_555 1_555
N1 C10 1_555 1_555
N2 Cd1 1_555 1_555
N3 C34 1_555 1_555
C1 O2 1_555 1_555
C2 C1 1_555 1_555
C3 C2 1_555 1_555
H4 C3 1_555 1_555
C4 C3 1_555 1_555
C5 C4 1_555 1_555
H5 C5 1_555 1_555
C6 C5 1_555 1_555
H6 C6 1_555 1_555
C7 C2 1_555 1_555
H7 C7 1_555 1_555
C8 C4 1_555 1_555
C9 C8 1_555 1_555
H8 C9 1_555 1_555
C10 C9 1_555 1_555
H9 C10 1_555 1_555
C11 N1 1_555 1_555
H10 C11 1_555 1_555
C12 C8 1_555 1_555
H11 C12 1_555 1_555
C13 O3 1_555 1_555
C14 C13 1_555 1_555
C15 C14 1_555 1_555
H12 C15 1_555 1_555
C16 C15 1_555 1_555
H13 C16 1_555 1_555
C17 C16 1_555 1_555
H14 C17 1_555 1_555
C18 C17 1_555 1_555
C19 C14 1_555 1_555
H15 C19 1_555 1_555
C20 C18 1_555 1_555
C21 C20 1_555 1_555
H16 C21 1_555 1_555
C22 N2 1_555 1_555
H17 C22 1_555 1_555
C23 N2 1_555 1_555
H18 C23 1_555 1_555
C24 C20 1_555 1_555
H19 C24 1_555 1_555
C25 O5 1_555 1_555
C26 C25 1_555 1_555
C27 C26 1_555 1_555
H20 C27 1_555 1_555
C28 C27 1_555 1_555
C29 C28 1_555 1_555
H21 C29 1_555 1_555
C30 C29 1_555 1_555
H22 C30 1_555 1_555
C31 C26 1_555 1_555
H23 C31 1_555 1_555
C32 C28 1_555 1_555
C33 C32 1_555 1_555
H24 C33 1_555 1_555
C34 C33 1_555 1_555
H25 C34 1_555 1_555
C35 N3 1_555 1_555
H26 C35 1_555 1_555
C36 C32 1_555 1_555
H27 C36 1_555 1_555
H29 O8 1_555 1_555
Cd1_2 N1 1_555 1_555
N1_2 Cd1 1_555 1_555
O6 C25 1_555 1_555
C6 C7 1_555 1_555
C11 C12 1_555 1_555
C18 C19 1_555 1_555
C21 C22 1_555 1_555
C23 C24 1_555 1_555
C30 C31 1_555 1_555
C35 C36 1_555 1_555

#END
