
#######################################################################
#
#                 Cambridge Crystallographic Data Centre
#                                CCDC 
#
#######################################################################
#
# If this CIF has been generated from an entry in the Cambridge 
# Structural Database, then it will include bibliographic, chemical, 
# crystal, experimental, refinement or atomic coordinate data resulting 
# from the CCDC's data processing and validation procedures.
#
#######################################################################

data_EHOBIM
_symmetry_cell_setting           orthorhombic
_symmetry_space_group_name_H-M   'P 21 21 21'
_symmetry_Int_Tables_number      19
_space_group_name_Hall           'P 2ac 2ab'
loop_
_symmetry_equiv_pos_site_id
_symmetry_equiv_pos_as_xyz
1 x,y,z
2 1/2-x,-y,1/2+z
3 1/2+x,1/2-y,-z
4 -x,1/2+y,1/2-z
_cell_length_a                   9.1635(4)
_cell_length_b                   11.1248(4)
_cell_length_c                   21.7376(10)
_cell_angle_alpha                90
_cell_angle_beta                 90
_cell_angle_gamma                90
_cell_volume                     2215.98
loop_
_atom_site_label
_atom_site_type_symbol
_atom_site_fract_x
_atom_site_fract_y
_atom_site_fract_z
C1 C -0.0117(4) -0.1419(5) -0.0279(2)
C2 C 0.3406(6) -0.0777(5) 0.0574(2)
C3 C -0.0493(8) 0.0782(7) -0.1636(3)
C4 C 0.4517(7) -0.0008(6) 0.0739(3)
H1 H 0.5242 0.0179 0.0455
C5 C 0.2352(7) -0.1064(5) 0.1011(3)
C6 C -0.1109(8) -0.1752(7) -0.2178(3)
H2 H -0.0738 -0.2442 -0.2392
H3 H -0.1124 -0.1075 -0.2451
H4 H -0.2081 -0.1915 -0.2036
C7 C 0.4244(9) -0.2305(9) -0.2269(4)
O1 O -0.1375(3) -0.1681(3) -0.01032(16)
C8 C 0.3489(8) 0.0225(6) 0.1749(3)
C9 C 0.2397(7) -0.0568(7) 0.1592(3)
C10 C 0.4567(8) 0.0491(7) 0.1325(3)
H5 H -0.047(5) 0.040(4) -0.043(2)
H6 H 0.164(5) -0.159(4) 0.0933(19)
H7 H 0.699(6) 0.128(5) -0.068(2)
H8 H 0.088(7) -0.135(7) -0.178(3)
H9 H 0.464(7) 0.434(6) -0.087(3)
H10 H -0.178(8) -0.049(5) -0.115(3)
H11 H -0.022(7) -0.221(6) -0.133(3)
H12 H 0.698(7) 0.329(5) -0.085(3)
H13 H 0.261(6) 0.334(5) -0.073(2)
H14 H 0.353(7) 0.056(6) 0.218(3)
H15 H 0.384(7) -0.386(6) -0.277(3)
H16 H 0.064(8) 0.093(6) -0.174(3)
H17 H 0.121(7) 0.166(6) -0.065(3)
H18 H 0.262(8) -0.388(7) -0.093(3)
H19 H 0.181(10) -0.086(7) 0.188(3)
H20 H 0.449(9) -0.194(7) -0.261(4)
H21 H 0.539(8) 0.106(6) 0.142(3)
H22 H -0.079(7) 0.163(6) -0.140(3)
H23 H -0.100(9) 0.080(8) -0.201(4)
Sn1 Sn 0.32047(3) -0.14217(3) -0.035020(15)
N1 N 0.1650(5) 0.0043(3) -0.06451(18)
O2 O 0.4783(4) -0.0145(3) -0.06521(19)
O3 O 0.0978(4) -0.2093(3) -0.01756(15)
C11 C 0.3506(5) -0.2333(5) -0.1206(2)
C12 C 0.0076(5) -0.0267(5) -0.0628(2)
C13 C 0.1979(6) 0.1166(4) -0.0672(2)
C14 C 0.4782(7) 0.3561(7) -0.0788(3)
C15 C 0.3472(7) 0.2956(5) -0.0740(3)
C16 C 0.3406(6) 0.1699(4) -0.0695(2)
C17 C 0.4725(6) 0.1026(5) -0.0687(2)
C18 C -0.0649(6) -0.0381(5) -0.1270(2)
C19 C 0.4114(7) -0.1749(6) -0.1703(3)
H24 H 0.4444 -0.0964 -0.1657
C20 C 0.3162(9) -0.4051(6) -0.1855(3)
H25 H 0.2826 -0.4835 -0.1904
C21 C 0.6050(6) 0.1672(6) -0.0724(3)
C22 C 0.3764(8) -0.3482(9) -0.2342(3)
C23 C 0.3031(7) -0.3505(6) -0.1287(3)
C24 C 0.6059(7) 0.2902(6) -0.0777(3)
C25 C -0.0138(6) -0.1475(7) -0.1633(2)
O1B O 0.3625(3) -0.3319(3) 0.01032(16)
Sn1B Sn -0.17953(3) -0.35783(3) 0.035020(15)
loop_
_geom_bond_atom_site_label_1
_geom_bond_atom_site_label_2
_geom_bond_site_symmetry_1
_geom_bond_site_symmetry_2
C1 O1 1_555 1_555
C2 C4 1_555 1_555
C3 H16 1_555 1_555
C4 H1 1_555 1_555
C5 C2 1_555 1_555
C6 H2 1_555 1_555
H3 C6 1_555 1_555
H4 C6 1_555 1_555
C7 H20 1_555 1_555
O1 Sn1B 1_555 1_555
C8 C9 1_555 1_555
C9 C5 1_555 1_555
C10 C4 1_555 1_555
H5 C12 1_555 1_555
H6 C5 1_555 1_555
H7 C21 1_555 1_555
H8 C25 1_555 1_555
H9 C14 1_555 1_555
H10 C18 1_555 1_555
H11 C25 1_555 1_555
H12 C24 1_555 1_555
H13 C15 1_555 1_555
H14 C8 1_555 1_555
H15 C22 1_555 1_555
H17 C13 1_555 1_555
H18 C23 1_555 1_555
H19 C9 1_555 1_555
H21 C10 1_555 1_555
H22 C3 1_555 1_555
H23 C3 1_555 1_555
Sn1 C2 1_555 1_555
N1 Sn1 1_555 1_555
O2 Sn1 1_555 1_555
O3 C1 1_555 1_555
C11 Sn1 1_555 1_555
C12 C1 1_555 1_555
C13 N1 1_555 1_555
C14 C15 1_555 1_555
C15 C16 1_555 1_555
C16 C13 1_555 1_555
C17 O2 1_555 1_555
C18 C3 1_555 1_555
C19 C7 1_555 1_555
H24 C19 1_555 1_555
C20 H25 1_555 1_555
C21 C17 1_555 1_555
C22 C7 1_555 1_555
C23 C11 1_555 1_555
C24 C14 1_555 1_555
C25 C6 1_555 1_555
O1B Sn1 1_555 1_555
C8 C10 1_555 1_555
Sn1 O3 1_555 1_555
N1 C12 1_555 1_555
C11 C19 1_555 1_555
C12 C18 1_555 1_555
C16 C17 1_555 1_555
C18 C25 1_555 1_555
C20 C22 1_555 1_555
C20 C23 1_555 1_555
C21 C24 1_555 1_555

#END
