
#######################################################################
#
#                 Cambridge Crystallographic Data Centre
#                                CCDC 
#
#######################################################################
#
# If this CIF has been generated from an entry in the Cambridge 
# Structural Database, then it will include bibliographic, chemical, 
# crystal, experimental, refinement or atomic coordinate data resulting 
# from the CCDC's data processing and validation procedures.
#
#######################################################################

data_EHODIP
_symmetry_cell_setting           triclinic
_symmetry_space_group_name_H-M   'P -1'
_symmetry_Int_Tables_number      2
_space_group_name_Hall           '-P 1'
loop_
_symmetry_equiv_pos_site_id
_symmetry_equiv_pos_as_xyz
1 x,y,z
2 -x,-y,-z
_cell_length_a                   12.107(5)
_cell_length_b                   12.154(5)
_cell_length_c                   15.078(5)
_cell_angle_alpha                83.821(5)
_cell_angle_beta                 68.816(5)
_cell_angle_gamma                68.176(5)
_cell_volume                     1919.59
loop_
_atom_site_label
_atom_site_type_symbol
_atom_site_fract_x
_atom_site_fract_y
_atom_site_fract_z
Ag1 Ag 1.0000 0.0000 0.0000
Ag2 Ag 0.95806(6) 0.26284(6) 0.01235(4)
Ag3 Ag 0.75908(7) 0.61516(7) 0.37187(6)
Ag5 Ag 0.90576(6) 0.59958(7) 0.13291(5)
C1 C 1.1636(9) 0.3861(9) 0.1021(7)
H1 H 1.1325 0.3309 0.0922
C2 C 1.1782(8) 0.5488(8) 0.1257(6)
H2 H 1.1603 0.6288 0.1352
C3 C 0.0292(9) 1.5757(8) 0.3716(7)
H3 H 0.0070 1.6562 0.3825
C4 C 1.2802(8) 0.3614(8) 0.1042(7)
H4 H 1.3432 0.2866 0.0965
C5 C 1.3979(8) 0.4805(8) 0.1311(6)
H5 H 1.4222 0.4282 0.1796
H6 H 1.3728 0.5615 0.1526
C6 C 0.2420(12) 1.2698(11) 0.3218(9)
H7 H 0.2235 1.2185 0.2885
H8 H 0.3215 1.2781 0.2818
C7 C 0.3520(13) 1.0871(11) 0.3920(9)
H9 H 0.3348 1.0416 0.3529
H10 H 0.4376 1.0867 0.3605
C8 C 0.2511(14) 1.2203(12) 0.4096(9)
H11 H 0.1687 1.2204 0.4518
H12 H 0.2773 1.2680 0.4396
C10 C 0.3370(14) 1.0370(13) 0.4873(11)
H15 H 0.2482 1.0500 0.5223
H16 H 0.3664 1.0755 0.5225
C11 C 1.5114(7) 0.4545(7) 0.0388(6)
H17 H 1.5314 0.3760 0.0146
H18 H 1.5843 0.4540 0.0519
C12 C 0.5195(10) 0.8414(11) 0.4094(10)
H19 H 0.5517 0.8654 0.3477
N1 N 0.5729(7) 0.7384(6) 0.4420(5)
C13 C 0.3939(10) 0.8468(9) 0.5528(9)
H20 H 0.3248 0.8696 0.6093
C14 C 0.4527(9) 0.9654(8) 0.1351(7)
H21 H 0.4776 1.0235 0.1544
H22 H 0.3706 0.9699 0.1811
C16 C 0.5275(8) 0.7433(7) 0.1324(6)
H24 H 0.4560 0.7351 0.1284
C17 C 0.4406(8) 0.9958(7) 0.0381(7)
H25 H 0.4186 0.9358 0.0181
H26 H 0.3714 1.0710 0.0436
C18 C 0.6637(8) 0.8176(8) 0.1368(7)
H27 H 0.7004 0.8727 0.1367
C19 C 0.6336(8) 0.6561(8) 0.1358(7)
H28 H 0.6463 0.5757 0.1368
C21 C 0.0226(9) 1.4100(9) 0.3406(7)
H31 H -0.0055 1.3530 0.3295
C22 C 0.1400(11) 1.4903(9) 0.3681(8)
H32 H 0.2058 1.4999 0.3806
N3 N -0.0459(7) 1.5234(6) 0.3561(5)
N4 N 1.0963(7) 0.5080(7) 0.1173(5)
N5 N 1.2900(6) 0.4643(6) 0.1194(5)
N6 N 0.1380(8) 1.3878(7) 0.3429(7)
N7 N 0.4128(8) 0.9073(8) 0.4762(8)
N8 N 0.5463(6) 0.8461(6) 0.1361(5)
C25 C 0.4945(10) 0.7443(9) 0.5344(7)
H35 H 0.5086 0.6858 0.5784
N9 N 0.7212(6) 0.7018(6) 0.1376(5)
O1 O 0.5462(5) 0.1911(5) 0.1522(5)
O2 O 0.6688(5) 0.2883(5) 0.2287(4)
O3 O 0.8928(6) 0.2337(5) 0.2812(4)
O4 O 0.9600(7) -0.0266(5) 0.2653(5)
O5 O 0.7262(5) 0.0295(5) 0.2235(4)
O6 O 0.7917(5) 0.1569(5) 0.0551(4)
O7 O 1.0610(7) 0.1049(6) 0.1116(4)
O8 O 0.8323(6) -0.1854(5) 0.2988(5)
O9 O 0.9519(5) -0.1481(5) 0.1170(4)
O10 O 0.8560(6) 0.3905(5) 0.1334(4)
O11 O 1.1354(6) 0.0725(7) 0.2624(5)
O12 O 0.7039(5) 0.4585(5) 0.3155(4)
V1 V 0.77998(12) 0.34627(10) 0.23867(9)
V2 V 0.68183(11) 0.16727(11) 0.16249(9)
V3 V 0.86944(12) -0.08621(10) 0.22603(9)
V4 V 1.01702(13) 0.09523(12) 0.22781(10)
Ag2A Ag 1.04194(6) -0.26284(6) -0.01235(4)
Ag3A Ag 1.24092(7) -0.61516(7) -0.37187(6)
Ag3_2 Ag -0.24092(7) 1.61516(7) 0.37187(6)
Ag3_3 Ag 1.75908(7) -0.38484(7) 0.37187(6)
Ag5A Ag 1.09424(6) -0.59958(7) -0.13291(5)
Ag5A_2 Ag 2.09424(6) 0.40042(7) -0.13291(5)
Ag5A_3 Ag 0.09424(6) 1.40042(7) -0.13291(5)
C1A C 1.8364(9) 0.6139(9) -0.1021(7)
H1A H 1.8675 0.6691 -0.0922
C2A C 1.8218(8) 0.4512(8) -0.1257(6)
H2A H 1.8397 0.3712 -0.1352
C3_2 C 1.0292(9) 0.5757(8) 0.3716(7)
H3_2 H 1.0070 0.6562 0.3825
C4A C 1.7198(8) 0.6386(8) -0.1042(7)
H4A H 1.6568 0.7134 -0.0965
C5A C 1.6021(8) 0.5195(8) -0.1311(6)
H5A H 1.5778 0.5718 -0.1796
H6A H 1.6272 0.4385 -0.1526
C6_2 C 1.2420(12) 0.2698(11) 0.3218(9)
H7_2 H 1.2235 0.2185 0.2885
H8_2 H 1.3215 0.2781 0.2818
C7_2 C 1.3520(13) 0.0871(11) 0.3920(9)
H9_2 H 1.3348 0.0416 0.3529
H10_2 H 1.4376 0.0867 0.3605
C8_2 C 1.2511(14) 0.2203(12) 0.4096(9)
H11_2 H 1.1687 0.2204 0.4518
H12_2 H 1.2773 0.2680 0.4396
C10_2 C 1.3370(14) 0.0370(13) 0.4873(11)
H15_2 H 1.2482 0.0500 0.5223
H16_2 H 1.3664 0.0755 0.5225
C11A C 1.4886(7) 0.5455(7) -0.0388(6)
H17A H 1.4686 0.6240 -0.0146
H18A H 1.4157 0.5460 -0.0519
C12_2 C 1.5195(10) -0.1586(11) 0.4094(10)
H19_2 H 1.5517 -0.1346 0.3477
N1_2 N 1.5729(7) -0.2616(6) 0.4420(5)
N1A N 1.4271(7) -0.7384(6) -0.4420(5)
C13_2 C 1.3939(10) -0.1532(9) 0.5528(9)
H20_2 H 1.3248 -0.1304 0.6093
C14A C 0.5473(9) 1.0346(8) -0.1351(7)
H21A H 0.5224 0.9765 -0.1544
H22A H 0.6294 1.0301 -0.1811
C16A C 0.4725(8) 1.2567(7) -0.1324(6)
H24A H 0.5440 1.2649 -0.1284
C17A C 0.5594(8) 1.0042(7) -0.0381(7)
H25A H 0.5814 1.0642 -0.0181
H26A H 0.6286 0.9290 -0.0436
C18A C 0.3363(8) 1.1824(8) -0.1368(7)
H27A H 0.2996 1.1273 -0.1367
C19A C 0.3664(8) 1.3439(8) -0.1358(7)
H28A H 0.3537 1.4243 -0.1368
C21_2 C 1.0226(9) 0.4100(9) 0.3406(7)
H31_2 H 0.9945 0.3530 0.3295
C22_2 C 1.1400(11) 0.4903(9) 0.3681(8)
H32_2 H 1.2058 0.4999 0.3806
N3_2 N 0.9541(7) 0.5234(6) 0.3561(5)
N3A N 1.0459(7) -0.5234(6) -0.3561(5)
N4A N 1.9037(7) 0.4920(7) -0.1173(5)
N4A_2 N 0.9037(7) -0.5080(7) -0.1173(5)
N5A N 1.7100(6) 0.5357(6) -0.1194(5)
N6_2 N 1.1380(8) 0.3878(7) 0.3429(7)
N7_2 N 1.4128(8) -0.0927(8) 0.4762(8)
N8A N 0.4537(6) 1.1539(6) -0.1361(5)
C25_2 C 1.4945(10) -0.2557(9) 0.5344(7)
H35_2 H 1.5086 -0.3142 0.5784
N9A N 0.2788(6) 1.2982(6) -0.1376(5)
N9A_2 N 1.2788(6) -0.7018(6) -0.1376(5)
O1A O 1.4538(5) -0.1911(5) -0.1522(5)
O2A O 1.3312(5) -0.2883(5) -0.2287(4)
O3A O 1.1072(6) -0.2337(5) -0.2812(4)
O4A O 1.0400(7) 0.0266(5) -0.2653(5)
O5A O 1.2738(5) -0.0295(5) -0.2235(4)
O6A O 1.2083(5) -0.1569(5) -0.0551(4)
O7A O 0.9390(7) -0.1049(6) -0.1116(4)
O8A O 1.1677(6) 0.1854(5) -0.2988(5)
O9A O 1.0481(5) 0.1481(5) -0.1170(4)
O10A O 1.1440(6) -0.3905(5) -0.1334(4)
O11A O 0.8646(6) -0.0725(7) -0.2624(5)
O12A O 1.2961(5) -0.4585(5) -0.3155(4)
V1A V 1.22002(12) -0.34627(10) -0.23867(9)
V2A V 1.31817(11) -0.16727(11) -0.16249(9)
V3A V 1.13056(12) 0.08621(10) -0.22603(9)
V4A V 0.98298(13) -0.09523(12) -0.22781(10)
Ag4 Ag 0.5000 0.5000 0.5000
C9 C 0.9342(11) 0.1628(9) 0.5427(9)
H13 H 0.9663 0.1497 0.5948
H14 H 0.9914 0.1893 0.4891
N2 N 0.8093(8) 0.2552(7) 0.5712(6)
C15 C 0.7219(12) 0.2836(11) 0.6606(8)
H23 H 0.7326 0.2498 0.7167
C20 C 0.9338(11) 0.0481(8) 0.5155(8)
H29 H 0.9009 0.0611 0.4638
H30 H 0.8776 0.0209 0.5693
C23 C 0.6167(11) 0.3703(11) 0.6527(7)
H33 H 0.5416 0.4058 0.7027
C24 C 0.7549(9) 0.3262(8) 0.5129(6)
H34 H 0.7943 0.3258 0.4473
N10 N 0.6392(8) 0.3967(7) 0.5597(5)
Ag4_2 Ag 1.5000 -0.5000 0.5000
C9A C 1.0658(11) -0.1628(9) 0.4573(9)
H13A H 1.0337 -0.1497 0.4052
H14A H 1.0086 -0.1893 0.5109
N2A N 1.1907(8) -0.2552(7) 0.4288(6)
C15A C 1.2781(12) -0.2836(11) 0.3394(8)
H23A H 1.2674 -0.2498 0.2833
C20A C 1.0662(11) -0.0481(8) 0.4845(8)
H29A H 1.0991 -0.0611 0.5362
H30A H 1.1224 -0.0209 0.4307
C23A C 1.3833(11) -0.3703(11) 0.3473(7)
H33A H 1.4584 -0.4058 0.2973
C24A C 1.2451(9) -0.3262(8) 0.4871(6)
H34A H 1.2057 -0.3258 0.5527
N10A N 1.3608(8) -0.3967(7) 0.4403(5)
N10A_2 N 0.3608(8) 0.6033(7) 0.4403(5)
O13 O 0.7589(6) 0.1985(6) 0.8760(5)
H36 H 0.8290 0.1543 0.8373
H37 H 0.7612 0.1840 0.9319
loop_
_geom_bond_atom_site_label_1
_geom_bond_atom_site_label_2
_geom_bond_site_symmetry_1
_geom_bond_site_symmetry_2
Ag1 O6 1_555 1_555
Ag2 O6 1_555 1_555
Ag3 N1 1_555 1_555
Ag4 N10 1_555 1_555
Ag5 N4 1_555 1_555
C1 H1 1_555 1_555
C2 H2 1_555 1_555
C3 H3 1_555 1_555
C4 C1 1_555 1_555
H4 C4 1_555 1_555
C5 H5 1_555 1_555
H6 C5 1_555 1_555
C6 H7 1_555 1_555
H8 C6 1_555 1_555
C7 H9 1_555 1_555
H10 C7 1_555 1_555
C8 C6 1_555 1_555
H11 C8 1_555 1_555
H12 C8 1_555 1_555
C9 H13 1_555 1_555
H14 C9 1_555 1_555
C10 C7 1_555 1_555
H15 C10 1_555 1_555
H16 C10 1_555 1_555
C11 C5 1_555 1_555
H17 C11 1_555 1_555
H18 C11 1_555 1_555
C12 H19 1_555 1_555
N1 C12 1_555 1_555
C13 H20 1_555 1_555
N2 C9 1_555 1_555
C14 H21 1_555 1_555
H22 C14 1_555 1_555
C15 N2 1_555 1_555
H23 C15 1_555 1_555
C16 H24 1_555 1_555
C17 C14 1_555 1_555
H25 C17 1_555 1_555
H26 C17 1_555 1_555
C18 H27 1_555 1_555
C19 C16 1_555 1_555
H28 C19 1_555 1_555
C20 C9 1_555 1_555
H29 C20 1_555 1_555
H30 C20 1_555 1_555
C21 H31 1_555 1_555
C22 C3 1_555 1_555
H32 C22 1_555 1_555
C23 C15 1_555 1_555
H33 C23 1_555 1_555
C24 N2 1_555 1_555
H34 C24 1_555 1_555
N3 C3 1_555 1_555
N4 C1 1_555 1_555
N5 C2 1_555 1_555
N6 C6 1_555 1_555
N7 C10 1_555 1_555
N8 C14 1_555 1_555
C25 N1 1_555 1_555
H35 C25 1_555 1_555
N9 Ag5 1_555 1_555
N10 C23 1_555 1_555
O1 V2 1_555 1_555
O2 V1 1_555 1_555
O3 V1 1_555 1_555
O4 V3 1_555 1_555
O5 V2 1_555 1_555
O6 V2 1_555 1_555
O7 Ag1 1_555 1_555
O8 V3 1_555 1_555
O9 Ag1 1_555 1_555
O10 Ag2 1_555 1_555
O11 V4 1_555 1_555
O12 Ag3 1_555 1_555
V1 O10 1_555 1_555
V2 O2 1_555 1_555
V3 O5 1_555 1_555
V4 O3 1_555 1_555
O13 H36 1_555 1_555
H37 O13 1_555 1_555
Ag2A O9 1_555 1_555
Ag3A N1A 1_555 1_555
Ag3_2 N3 1_555 1_555
Ag3_3 N1_2 1_555 1_555
Ag4_2 N10A 1_555 1_555
Ag5A N4A_2 1_555 1_555
Ag5A_2 N4A 1_555 1_555
Ag5A_3 N9A 1_555 1_555
C1A H1A 1_555 1_555
C2A H2A 1_555 1_555
C3_2 H3_2 1_555 1_555
C4A C1A 1_555 1_555
H4A C4A 1_555 1_555
C5A H5A 1_555 1_555
H6A C5A 1_555 1_555
C6_2 H7_2 1_555 1_555
H8_2 C6_2 1_555 1_555
C7_2 H9_2 1_555 1_555
H10_2 C7_2 1_555 1_555
C8_2 C6_2 1_555 1_555
H11_2 C8_2 1_555 1_555
H12_2 C8_2 1_555 1_555
C9A H13A 1_555 1_555
H14A C9A 1_555 1_555
C10_2 C7_2 1_555 1_555
H15_2 C10_2 1_555 1_555
H16_2 C10_2 1_555 1_555
C11A C11 1_555 1_555
H17A C11A 1_555 1_555
H18A C11A 1_555 1_555
C12_2 H19_2 1_555 1_555
N1_2 C12_2 1_555 1_555
C13_2 H20_2 1_555 1_555
N2A C9A 1_555 1_555
C14A H21A 1_555 1_555
H22A C14A 1_555 1_555
C15A N2A 1_555 1_555
H23A C15A 1_555 1_555
C16A H24A 1_555 1_555
C17A C17 1_555 1_555
H25A C17A 1_555 1_555
H26A C17A 1_555 1_555
C18A H27A 1_555 1_555
C19A C16A 1_555 1_555
H28A C19A 1_555 1_555
C20A C20 1_555 1_555
H29A C20A 1_555 1_555
H30A C20A 1_555 1_555
C21_2 H31_2 1_555 1_555
C22_2 C3_2 1_555 1_555
H32_2 C22_2 1_555 1_555
C23A C15A 1_555 1_555
H33A C23A 1_555 1_555
C24A N2A 1_555 1_555
H34A C24A 1_555 1_555
N3_2 Ag3 1_555 1_555
N3A Ag3A 1_555 1_555
N4A C1A 1_555 1_555
N5A C2A 1_555 1_555
N6_2 C6_2 1_555 1_555
N7_2 C10_2 1_555 1_555
N8A C14A 1_555 1_555
C25_2 N1_2 1_555 1_555
H35_2 C25_2 1_555 1_555
N9A C18A 1_555 1_555
N9A_2 Ag5A 1_555 1_555
N10A C23A 1_555 1_555
N10A_2 Ag4 1_555 1_555
O1A V2A 1_555 1_555
O2A V1A 1_555 1_555
O3A V1A 1_555 1_555
O4A V3A 1_555 1_555
O5A V2A 1_555 1_555
O6A Ag1 1_555 1_555
O7A Ag1 1_555 1_555
O8A V3A 1_555 1_555
O9A Ag1 1_555 1_555
O10A Ag2A 1_555 1_555
O11A V4A 1_555 1_555
O12A Ag3A 1_555 1_555
V1A O10A 1_555 1_555
V2A O2A 1_555 1_555
V3A O5A 1_555 1_555
V4A O3A 1_555 1_555
Ag2 O7 1_555 1_555
Ag2 O9A 1_555 1_555
Ag5 O10 1_555 1_555
C2 N4 1_555 1_555
C4 N5 1_555 1_555
C5 N5 1_555 1_555
C7 C8 1_555 1_555
C12 N7 1_555 1_555
C13 N7 1_555 1_555
C13 C25 1_555 1_555
C16 N8 1_555 1_555
C18 N8 1_555 1_555
C18 N9 1_555 1_555
C19 N9 1_555 1_555
C21 N3 1_555 1_555
C21 N6 1_555 1_555
C22 N6 1_555 1_555
C24 N10 1_555 1_555
O4 V4 1_555 1_555
O7 V4 1_555 1_555
O9 V3 1_555 1_555
O12 V1 1_555 1_555
Ag2A O6A 1_555 1_555
Ag2A O7A 1_555 1_555
Ag5A O10A 1_555 1_555
C2A N4A 1_555 1_555
C3_2 N3_2 1_555 1_555
C4A N5A 1_555 1_555
C5A C11A 1_555 1_555
C5A N5A 1_555 1_555
C7_2 C8_2 1_555 1_555
C9A C20A 1_555 1_555
C12_2 N7_2 1_555 1_555
C13_2 N7_2 1_555 1_555
C13_2 C25_2 1_555 1_555
C14A C17A 1_555 1_555
C16A N8A 1_555 1_555
C18A N8A 1_555 1_555
C19A N9A 1_555 1_555
C21_2 N3_2 1_555 1_555
C21_2 N6_2 1_555 1_555
C22_2 N6_2 1_555 1_555
C24A N10A 1_555 1_555
O4A V4A 1_555 1_555
O6A V2A 1_555 1_555
O7A V4A 1_555 1_555
O9A V3A 1_555 1_555
O12A V1A 1_555 1_555

#END
