
#######################################################################
#
#                 Cambridge Crystallographic Data Centre
#                                CCDC 
#
#######################################################################
#
# If this CIF has been generated from an entry in the Cambridge 
# Structural Database, then it will include bibliographic, chemical, 
# crystal, experimental, refinement or atomic coordinate data resulting 
# from the CCDC's data processing and validation procedures.
#
#######################################################################

data_EHODEL
_symmetry_cell_setting           triclinic
_symmetry_space_group_name_H-M   'P -1'
_symmetry_Int_Tables_number      2
_space_group_name_Hall           '-P 1'
loop_
_symmetry_equiv_pos_site_id
_symmetry_equiv_pos_as_xyz
1 x,y,z
2 -x,-y,-z
_cell_length_a                   12.5619(3)
_cell_length_b                   12.6722(3)
_cell_length_c                   13.559(3)
_cell_angle_alpha                85.830(1)
_cell_angle_beta                 64.096(1)
_cell_angle_gamma                60.566(1)
_cell_volume                     1662.95
loop_
_atom_site_label
_atom_site_type_symbol
_atom_site_fract_x
_atom_site_fract_y
_atom_site_fract_z
Ag1 Ag 0.48821(2) 0.84125(2) 0.10117(2)
Ag2 Ag 0.41067(2) 0.91697(2) -0.07947(2)
Ag3 Ag 0.72849(3) 0.84494(2) -0.08044(2)
Zn1 Zn 1.0000 0.5000 -0.5000
Zn2 Zn -0.29486(4) 1.17792(3) 0.51526(3)
S1 S 0.58936(7) 0.91370(7) 0.18349(6)
S2 S 0.23514(8) 0.99959(6) 0.19234(6)
S3 S 0.65110(7) 0.74157(6) -0.16099(6)
C1 C 0.9692(3) 0.6545(3) -0.0139(3)
H1 H 1.0218 0.6250 -0.0903
C2 C 1.0281(3) 0.5995(3) 0.0540(3)
H2 H 1.1182 0.5332 0.0245
C3 C 0.9505(3) 0.6450(3) 0.1680(3)
H3 H 0.9879 0.6088 0.2158
C4 C 0.8164(3) 0.7450(3) 0.2102(3)
C5 C 0.7628(3) 0.7936(3) 0.1349(3)
C6 C 0.7335(3) 0.7973(3) 0.3340(3)
C7 C 0.9484(4) 0.7381(3) -0.4284(3)
H4 H 0.8869 0.8191 -0.3814
H5 H 1.0093 0.7452 -0.4999
C8 C 1.0321(4) 0.6497(3) -0.3748(3)
H6 H 1.0887 0.6769 -0.3677
H7 H 0.9712 0.6470 -0.3009
C9 C -0.4430(3) 1.4451(3) 0.5083(3)
H8 H -0.3543 1.4286 0.4495
H9 H -0.4488 1.4651 0.5789
C10 C 0.1620(3) 0.8690(3) -0.0104(3)
H10 H 0.2075 0.8374 -0.0862
C11 C 0.0389(3) 0.8741(3) 0.0544(3)
H11 H 0.0029 0.8450 0.0236
C12 C -0.0298(3) 0.9236(3) 0.1662(3)
H12 H -0.1143 0.9301 0.2118
C13 C 0.0282(3) 0.9636(3) 0.2103(3)
C14 C 0.1556(3) 0.9533(2) 0.1397(3)
C15 C -0.0518(3) 1.0178(3) 0.3335(3)
C16 C 0.5840(3) 0.5504(3) 0.0771(3)
H13 H 0.5415 0.5666 0.1546
C17 C 0.6403(3) 0.4333(3) 0.0237(3)
H14 H 0.6363 0.3718 0.0643
C18 C 0.7027(3) 0.4093(3) -0.0915(3)
H15 H 0.7397 0.3315 -0.1292
C19 C 0.7100(3) 0.5022(3) -0.1510(3)
C20 C 0.6499(3) 0.6196(3) -0.0900(3)
C21 C 0.7768(3) 0.4773(2) -0.2769(2)
N1 N 0.8384(3) 0.7493(2) 0.0248(2)
N2 N 0.2201(3) 0.9074(2) 0.0301(2)
N3 N 0.5878(3) 0.6422(2) 0.0219(2)
N4 N 0.8680(3) 0.6938(2) -0.4440(2)
H16 H 0.8408 0.7299 -0.4950
H17 H 0.7928 0.7110 -0.3794
N5 N 1.1202(3) 0.5263(2) -0.4451(2)
H18 H 1.1490 0.4683 -0.4056
H19 H 1.1946 0.5213 -0.5038
N6 N -0.4521(3) 1.3334(2) 0.5077(2)
H20 H -0.4557 1.3201 0.4452
H21 H -0.5316 1.3475 0.5660
O1 O 0.7102(3) 0.7261(3) 0.3965(2)
O3 O 0.6958(3) 0.9058(2) 0.3644(2)
O5 O -0.1496(2) 1.13087(19) 0.35923(18)
O6 O -0.3328(3) 1.0392(3) 0.5535(2)
H26 H -0.4145 1.0671 0.6055
H27 H -0.3231 1.0050 0.4961
O7 O -0.0287(2) 0.9537(2) 0.4023(2)
O9 O 0.7105(2) 0.46610(19) -0.31970(19)
O11 O 0.8923(2) 0.46798(19) -0.32871(18)
O12 O -0.2511(3) 1.2180(2) 0.6294(2)
H32 H -0.2601 1.2890 0.6271
H33 H -0.1688 1.1642 0.6153
Ag1A Ag 1.51179(2) 0.15875(2) -1.10117(2)
Ag1A_2 Ag 0.51179(2) 1.15875(2) -0.10117(2)
Ag2A Ag 1.58933(2) 0.08303(2) -0.92053(2)
Ag2A_2 Ag 0.58933(2) 1.08303(2) 0.07947(2)
Ag2_2 Ag 1.41067(2) -0.08303(2) -1.07947(2)
Ag3A Ag 1.27151(3) 0.15506(2) -0.91956(2)
Ag3A_2 Ag 0.27151(3) 1.15506(2) 0.08044(2)
Ag3_2 Ag 1.72849(3) -0.15506(2) -1.08044(2)
Zn2A Zn 1.29486(4) 0.82208(3) -0.51526(3)
Zn2A_2 Zn -0.70514(4) 1.82208(3) 0.48474(3)
S1A S 0.41064(7) 1.08630(7) -0.18349(6)
S1A_2 S 1.41064(7) 0.08630(7) -1.18349(6)
S1_2 S 1.58936(7) -0.08630(7) -0.81651(6)
S2A S 0.76486(8) 1.00041(6) -0.19234(6)
S2A_2 S 1.76486(8) 0.00041(6) -1.19234(6)
S2_2 S 1.23514(8) -0.00041(6) -0.80766(6)
S3A S 1.34890(7) 0.25843(6) -0.83901(6)
C1A C 0.0308(3) 1.3455(3) 0.0139(3)
H1A H -0.0218 1.3750 0.0903
C2A C -0.0281(3) 1.4005(3) -0.0540(3)
H2A H -0.1182 1.4668 -0.0245
C3A C 0.0495(3) 1.3550(3) -0.1680(3)
H3A H 0.0121 1.3912 -0.2158
C4A C 0.1836(3) 1.2550(3) -0.2102(3)
C5A C 0.2372(3) 1.2064(3) -0.1349(3)
C6A C 0.2665(3) 1.2027(3) -0.3340(3)
C7A C 1.0516(4) 0.2619(3) -0.5716(3)
H4A H 1.1131 0.1809 -0.6186
H5A H 0.9907 0.2548 -0.5001
C8A C 0.9679(4) 0.3503(3) -0.6252(3)
H6A H 0.9113 0.3231 -0.6323
H7A H 1.0288 0.3530 -0.6991
C9A C -0.5570(3) 1.5549(3) 0.4917(3)
H8A H -0.6457 1.5714 0.5505
H9A H -0.5512 1.5349 0.4211
C10A C 0.8380(3) 1.1310(3) 0.0104(3)
H10A H 0.7925 1.1626 0.0862
C11A C 0.9611(3) 1.1259(3) -0.0544(3)
H11A H 0.9971 1.1550 -0.0236
C12A C 1.0298(3) 1.0764(3) -0.1662(3)
H12A H 1.1143 1.0699 -0.2118
C13A C 0.9718(3) 1.0364(3) -0.2103(3)
C14A C 0.8444(3) 1.0467(2) -0.1397(3)
C15A C 1.0518(3) 0.9822(3) -0.3335(3)
C16A C 1.4160(3) 0.4496(3) -1.0771(3)
H13A H 1.4585 0.4334 -1.1546
C17A C 1.3597(3) 0.5667(3) -1.0237(3)
H14A H 1.3637 0.6282 -1.0643
C18A C 1.2973(3) 0.5907(3) -0.9085(3)
H15A H 1.2603 0.6685 -0.8708
C19A C 1.2900(3) 0.4978(3) -0.8490(3)
C20A C 1.3501(3) 0.3804(3) -0.9100(3)
C21A C 1.2232(3) 0.5227(2) -0.7231(2)
N1A N 0.1616(3) 1.2507(2) -0.0248(2)
N1A_2 N 1.1616(3) 0.2507(2) -1.0248(2)
N2A N 0.7799(3) 1.0926(2) -0.0301(2)
N2A_2 N 1.7799(3) 0.0926(2) -1.0301(2)
N3A N 1.4122(3) 0.3578(2) -1.0219(2)
N4A N 1.1320(3) 0.3062(2) -0.5560(2)
H16A H 1.1592 0.2701 -0.5050
H17A H 1.2072 0.2890 -0.6206
N5A N 0.8798(3) 0.4737(2) -0.5549(2)
H18A H 0.8510 0.5317 -0.5944
H19A H 0.8054 0.4787 -0.4962
N6A N -0.5479(3) 1.6666(2) 0.4923(2)
N6A_2 N 1.4521(3) 0.6666(2) -0.5077(2)
H20A H -0.5443 1.6799 0.5548
H20A_2 H 1.4557 0.6799 -0.4452
H21A H -0.4684 1.6525 0.4340
H21A_2 H 1.5316 0.6525 -0.5660
O1A O 0.2898(3) 1.2739(3) -0.3965(2)
O3A O 0.3042(3) 1.0942(2) -0.3644(2)
O5A O 1.1496(2) 0.86913(19) -0.35923(18)
O6A O 1.3328(3) 0.9608(3) -0.5535(2)
H26A H 1.4145 0.9329 -0.6055
H27A H 1.3231 0.9950 -0.4961
O7A O 1.0287(2) 1.0463(2) -0.4023(2)
O9A O 1.2895(2) 0.53390(19) -0.68030(19)
O11A O 1.1077(2) 0.53202(19) -0.67129(18)
O12A O 1.2511(3) 0.7820(2) -0.6294(2)
H32A H 1.2601 0.7110 -0.6271
H33A H 1.1688 0.8358 -0.6153
O2 O 0.5096(4) 0.8425(3) 0.6144(3)
H22 H 0.5688 0.8103 0.5466
H23 H 0.4515 0.9165 0.6172
O4 O 0.6814(3) 0.5639(3) 0.2646(3)
H24 H 0.7354 0.4863 0.2468
H25 H 0.7174 0.5972 0.2811
O8 O -0.2099(3) 1.3105(2) 0.2242(2)
H28 H -0.1819 1.2569 0.2622
H29 H -0.2863 1.3216 0.2332
O10 O -0.4546(3) 1.3230(2) 0.2711(2)
H30 H -0.4704 1.2703 0.3070
H31 H -0.5314 1.3875 0.2850
loop_
_geom_bond_atom_site_label_1
_geom_bond_atom_site_label_2
_geom_bond_site_symmetry_1
_geom_bond_site_symmetry_2
Ag1 Ag2 1_555 1_555
Ag2 S3 1_555 1_555
Ag3 Ag1 1_555 1_555
Zn1 N4 1_555 1_555
Zn2 N6 1_555 1_555
S1 Ag1 1_555 1_555
S2 Ag1 1_555 1_555
S3 Ag3 1_555 1_555
C1 H1 1_555 1_555
C2 C1 1_555 1_555
H2 C2 1_555 1_555
C3 C2 1_555 1_555
H3 C3 1_555 1_555
C4 C3 1_555 1_555
C5 S1 1_555 1_555
C6 C4 1_555 1_555
C7 H4 1_555 1_555
H5 C7 1_555 1_555
C8 C7 1_555 1_555
H6 C8 1_555 1_555
H7 C8 1_555 1_555
C9 H8 1_555 1_555
H9 C9 1_555 1_555
C10 H10 1_555 1_555
C11 C10 1_555 1_555
H11 C11 1_555 1_555
C12 C11 1_555 1_555
H12 C12 1_555 1_555
C13 C12 1_555 1_555
C14 S2 1_555 1_555
C15 C13 1_555 1_555
C16 H13 1_555 1_555
C17 C16 1_555 1_555
H14 C17 1_555 1_555
C18 C17 1_555 1_555
H15 C18 1_555 1_555
C19 C18 1_555 1_555
C20 S3 1_555 1_555
C21 C19 1_555 1_555
N1 Ag3 1_555 1_555
N2 Ag2 1_555 1_555
N3 Ag1 1_555 1_555
N4 C7 1_555 1_555
H16 N4 1_555 1_555
H17 N4 1_555 1_555
N5 Zn1 1_555 1_555
H18 N5 1_555 1_555
H19 N5 1_555 1_555
N6 C9 1_555 1_555
H20 N6 1_555 1_555
H21 N6 1_555 1_555
O1 C6 1_555 1_555
O2 H22 1_555 1_555
H23 O2 1_555 1_555
O3 C6 1_555 1_555
O4 H24 1_555 1_555
H25 O4 1_555 1_555
O5 Zn2 1_555 1_555
O6 Zn2 1_555 1_555
H26 O6 1_555 1_555
H27 O6 1_555 1_555
O7 C15 1_555 1_555
O8 H28 1_555 1_555
H29 O8 1_555 1_555
O9 C21 1_555 1_555
O10 H30 1_555 1_555
H31 O10 1_555 1_555
O11 Zn1 1_555 1_555
O12 Zn2 1_555 1_555
H32 O12 1_555 1_555
H33 O12 1_555 1_555
Ag1A Ag2A 1_555 1_555
Ag1A_2 Ag2A_2 1_555 1_555
Ag2A Ag3_2 1_555 1_555
Ag2A_2 Ag3 1_555 1_555
Ag2_2 Ag3A 1_555 1_555
Ag3A Ag1A 1_555 1_555
Ag3A_2 Ag2 1_555 1_555
Ag3_2 S2A_2 1_555 1_555
Zn2A N6A_2 1_555 1_555
Zn2A_2 N6A 1_555 1_555
S1A Ag2 1_555 1_555
S1A_2 Ag1A 1_555 1_555
S1_2 Ag2A 1_555 1_555
S2A Ag3 1_555 1_555
S2A_2 Ag1A 1_555 1_555
S2_2 Ag3A 1_555 1_555
S3A Ag2A 1_555 1_555
C1A H1A 1_555 1_555
C2A C1A 1_555 1_555
H2A C2A 1_555 1_555
C3A C2A 1_555 1_555
H3A C3A 1_555 1_555
C4A C3A 1_555 1_555
C5A S1A 1_555 1_555
C6A C4A 1_555 1_555
C7A H4A 1_555 1_555
H5A C7A 1_555 1_555
C8A C7A 1_555 1_555
H6A C8A 1_555 1_555
H7A C8A 1_555 1_555
C9A C9 1_555 1_555
H8A C9A 1_555 1_555
H9A C9A 1_555 1_555
C10A H10A 1_555 1_555
C11A C10A 1_555 1_555
H11A C11A 1_555 1_555
C12A C11A 1_555 1_555
H12A C12A 1_555 1_555
C13A C12A 1_555 1_555
C14A S2A 1_555 1_555
C15A C13A 1_555 1_555
C16A H13A 1_555 1_555
C17A C16A 1_555 1_555
H14A C17A 1_555 1_555
C18A C17A 1_555 1_555
H15A C18A 1_555 1_555
C19A C18A 1_555 1_555
C20A S3A 1_555 1_555
C21A C19A 1_555 1_555
N1A Ag3A_2 1_555 1_555
N1A_2 Ag3A 1_555 1_555
N2A Ag2A_2 1_555 1_555
N2A_2 Ag2A 1_555 1_555
N3A Ag1A 1_555 1_555
N4A Zn1 1_555 1_555
H16A N4A 1_555 1_555
H17A N4A 1_555 1_555
N5A Zn1 1_555 1_555
H18A N5A 1_555 1_555
H19A N5A 1_555 1_555
N6A C9A 1_555 1_555
N6A_2 H20A_2 1_555 1_555
H20A N6A 1_555 1_555
H21A N6A 1_555 1_555
H21A_2 N6A_2 1_555 1_555
O1A C6A 1_555 1_555
O3A C6A 1_555 1_555
O5A Zn2A 1_555 1_555
O6A Zn2A 1_555 1_555
H26A O6A 1_555 1_555
H27A O6A 1_555 1_555
O7A C15A 1_555 1_555
O9A C21A 1_555 1_555
O11A Zn1 1_555 1_555
O12A Zn2A 1_555 1_555
H32A O12A 1_555 1_555
H33A O12A 1_555 1_555
S1 Ag2A_2 1_555 1_555
S2 Ag3A_2 1_555 1_555
C1 N1 1_555 1_555
C4 C5 1_555 1_555
C5 N1 1_555 1_555
C8 N5 1_555 1_555
C10 N2 1_555 1_555
C13 C14 1_555 1_555
C14 N2 1_555 1_555
C15 O5 1_555 1_555
C16 N3 1_555 1_555
C19 C20 1_555 1_555
C20 N3 1_555 1_555
C21 O11 1_555 1_555
Ag1A_2 Ag3A_2 1_555 1_555
Ag1A_2 S1A 1_555 1_555
Ag1A_2 S2A 1_555 1_555
Ag2_2 S1A_2 1_555 1_555
Ag3A S3A 1_555 1_555
C1A N1A 1_555 1_555
C4A C5A 1_555 1_555
C5A N1A 1_555 1_555
C7A N4A 1_555 1_555
C8A N5A 1_555 1_555
C10A N2A 1_555 1_555
C13A C14A 1_555 1_555
C14A N2A 1_555 1_555
C15A O5A 1_555 1_555
C16A N3A 1_555 1_555
C19A C20A 1_555 1_555
C20A N3A 1_555 1_555
C21A O11A 1_555 1_555

#END
