
#######################################################################
#
#                 Cambridge Crystallographic Data Centre
#                                CCDC 
#
#######################################################################
#
# If this CIF has been generated from an entry in the Cambridge 
# Structural Database, then it will include bibliographic, chemical, 
# crystal, experimental, refinement or atomic coordinate data resulting 
# from the CCDC's data processing and validation procedures.
#
#######################################################################

data_EHODAH
_symmetry_cell_setting           triclinic
_symmetry_space_group_name_H-M   'P -1'
_symmetry_Int_Tables_number      2
_space_group_name_Hall           '-P 1'
loop_
_symmetry_equiv_pos_site_id
_symmetry_equiv_pos_as_xyz
1 x,y,z
2 -x,-y,-z
_cell_length_a                   12.8443(4)
_cell_length_b                   15.9047(6)
_cell_length_c                   21.8952(8)
_cell_angle_alpha                103.901(1)
_cell_angle_beta                 93.249(1)
_cell_angle_gamma                102.625(1)
_cell_volume                     4208.64
loop_
_atom_site_label
_atom_site_type_symbol
_atom_site_fract_x
_atom_site_fract_y
_atom_site_fract_z
Ag1 Ag 0.51991(7) -0.08111(6) 0.06612(4)
Ag2 Ag 0.66786(7) 0.06946(6) 0.03928(4)
Ag3 Ag 0.41540(7) 0.07173(6) 0.08316(5)
Ag4 Ag 0.02358(7) -0.06858(6) -0.42018(5)
Ag5 Ag -0.08033(8) 0.07771(6) -0.42097(5)
Ag6 Ag 0.18731(8) 0.06434(6) -0.45641(5)
Cu2 Cu 0.75015(12) 0.35290(9) 0.39455(7)
Cu3 Cu 0.74630(13) -0.38045(9) 0.09299(7)
S1 S 0.3247(2) -0.14979(18) 0.04501(14)
S2 S 0.6003(2) 0.12607(18) 0.14122(13)
S3 S 0.6379(2) -0.14981(18) -0.00535(13)
S4 S -0.1174(2) 0.15460(19) -0.50195(14)
S5 S 0.1719(2) 0.13200(19) -0.54842(14)
S6 S 0.1040(2) 0.14541(19) -0.36599(14)
C1 C 0.2286(10) 0.0310(8) 0.1709(6)
H1 H 0.2449 0.0943 0.1845
C2 C 0.1512(9) -0.0183(9) 0.1991(6)
H2 H 0.1125 0.0109 0.2298
C3 C 0.1319(10) -0.1097(8) 0.1818(6)
H3 H 0.0824 -0.1441 0.2023
C4 C 0.1845(9) -0.1519(8) 0.1344(6)
C5 C 0.2589(8) -0.0972(6) 0.1062(5)
C6 C 0.1591(11) -0.2516(9) 0.1135(7)
C7 C 0.9042(9) 0.0357(9) 0.0604(6)
H4 H 0.9239 0.0991 0.0715
C8 C 0.9828(10) -0.0100(10) 0.0672(7)
H5 H 1.0553 0.0212 0.0813
C9 C 0.9534(10) -0.1013(10) 0.0531(6)
H6 H 1.0056 -0.1339 0.0584
C10 C 0.8479(10) -0.1463(8) 0.0311(6)
C11 C 0.7720(8) -0.0954(7) 0.0240(5)
C12 C 0.8102(11) -0.2458(9) 0.0216(6)
C13 C 0.5847(9) -0.0801(7) 0.2130(6)
H7 H 0.5656 -0.1430 0.1961
C14 C 0.6172(9) -0.0473(7) 0.2768(6)
H8 H 0.6223 -0.0857 0.3035
C15 C 0.6426(8) 0.0459(7) 0.3005(5)
H9 H 0.6665 0.0717 0.3442
C16 C 0.6333(8) 0.1007(7) 0.2609(5)
C17 C 0.6034(8) 0.0596(7) 0.1960(5)
C18 C 0.6495(10) 0.1998(7) 0.2918(5)
C19 C 0.4069(9) -0.0019(8) -0.4388(5)
H10 H 0.4380 0.0601 -0.4222
C20 C 0.4740(10) -0.0609(8) -0.4453(5)
H11 H -0.5493 0.0396 -0.5662
C21 C 0.4283(10) -0.1503(8) -0.4685(6)
H12 H -0.4717 0.1921 -0.5285
C22 C 0.3195(9) -0.1797(7) -0.4874(5)
C23 C -0.2572(9) 0.1176(7) -0.5220(5)
C24 C 0.2678(10) -0.2774(9) -0.5211(6)
C25 C -0.2743(10) 0.0510(9) -0.3345(6)
H13 H -0.2607 0.1141 -0.3256
C26 C -0.3482(11) 0.0079(10) -0.3031(6)
H14 H -0.3844 0.0401 -0.2725
C27 C -0.3689(10) -0.0848(10) -0.3173(7)
H15 H -0.4201 -0.1166 -0.2962
C28 C -0.3150(9) -0.1316(8) -0.3624(6)
C29 C -0.2418(9) -0.0800(9) -0.3930(6)
C30 C -0.3399(12) -0.2335(11) -0.3772(11)
C31 C 0.1094(9) -0.0370(7) -0.2728(5)
H16 H 0.0918 -0.1004 -0.2834
C32 C 0.1480(9) 0.0074(7) -0.2119(5)
H17 H -0.1609 0.0235 -0.8188
C33 C 0.1682(9) 0.1010(8) -0.1961(5)
H18 H -0.1950 -0.1342 -0.8462
C34 C 0.1500(8) 0.1449(7) -0.2407(5)
C35 C 0.1141(8) 0.0928(7) -0.3043(5)
C36 C -0.1573(9) -0.2423(7) -0.7789(5)
C47 C 0.9540(11) 0.2940(9) 0.3816(6)
H27 H 0.9085 0.2355 0.3693
C48 C 1.0637(11) 0.3031(10) 0.3855(7)
H28 H 1.0940 0.2527 0.3763
C49 C 1.1279(11) 0.3897(10) 0.4035(6)
H29 H 1.2038 0.3988 0.4066
C50 C 1.0845(9) 0.4604(8) 0.4164(6)
H30 H 1.1291 0.5192 0.4285
C51 C 0.9729(9) 0.4467(7) 0.4120(5)
C52 C 0.9144(9) 0.5174(8) 0.4251(5)
C53 C 0.9651(10) 0.6074(8) 0.4396(6)
H31 H 1.0409 0.6267 0.4415
C54 C 0.8995(11) 0.6699(8) 0.4516(7)
H32 H 0.9311 0.7321 0.4615
C55 C 0.7916(11) 0.6399(9) 0.4488(8)
H33 H 0.7468 0.6807 0.4571
C56 C 0.7476(11) 0.5485(8) 0.4336(7)
H34 H 0.6721 0.5283 0.4324
C57 C 0.7511(11) -0.5714(8) 0.0905(7)
H35 H 0.8270 -0.5520 0.0936
C58 C 0.7075(12) -0.6592(9) 0.0864(7)
H36 H 0.7521 -0.6990 0.0884
C59 C 0.5985(12) -0.6883(8) 0.0793(6)
H37 H 0.5657 -0.7492 0.0753
C60 C 0.5369(10) -0.6283(8) 0.0779(6)
H38 H 0.4608 -0.6477 0.0727
C61 C 0.5860(10) -0.5390(7) 0.0841(6)
C62 C 0.5269(10) -0.4689(8) 0.0820(5)
C63 C 0.4159(10) -0.4852(9) 0.0793(6)
H39 H 0.3731 -0.5433 0.0762
C64 C 0.3686(12) -0.4119(11) 0.0813(8)
H40 H 0.2930 -0.4201 0.0804
C65 C 0.4314(12) -0.3303(10) 0.0846(8)
H41 H 0.4005 -0.2810 0.0856
C66 C 0.5406(13) -0.3199(9) 0.0865(7)
H42 H 0.5845 -0.2625 0.0890
N1 N 0.5783(7) -0.0286(6) 0.1728(4)
N2 N 0.8023(8) -0.0057(6) 0.0391(5)
N3 N 0.2800(8) -0.0079(6) 0.1256(4)
N4 N 0.3005(8) -0.0290(6) -0.4552(4)
N5 N -0.2199(7) 0.0089(7) -0.3771(5)
N6 N 0.0943(7) 0.0033(6) -0.3194(4)
N9 N 0.9090(7) 0.3625(6) 0.3942(4)
N10 N 0.8058(8) 0.4873(6) 0.4207(5)
N11 N 0.6930(8) -0.5111(6) 0.0904(5)
N12 N 0.5879(9) -0.3881(6) 0.0848(5)
O1 O 0.1883(8) -0.2918(6) 0.1504(6)
O3 O 0.1035(10) -0.2870(7) 0.0618(5)
O5 O 0.7225(7) 0.2311(5) 0.3387(4)
O7 O 0.5906(7) 0.2398(5) 0.2711(4)
O9 O 0.8122(16) -0.2986(8) -0.0282(6)
O11 O 0.7766(9) -0.2677(6) 0.0686(5)
O13 O 0.2498(9) -0.3339(6) -0.4911(4)
O16 O -0.2465(9) 0.2942(6) -0.4202(4)
O17 O 0.8996(8) -0.3817(7) 0.1012(6)
H59 H 0.9296 -0.3613 0.0724
H60 H 0.9294 -0.3495 0.1374
O18 O -0.3788(11) -0.2736(8) -0.4329(8)
O20 O -0.3246(11) -0.2632(9) -0.3301(7)
O21 O -0.0693(7) -0.2668(5) -0.7752(4)
O23 O -0.2454(7) -0.2937(5) -0.8052(4)
O25 O 0.5966(9) 0.3563(8) 0.3918(7)
H67 H 0.5688 0.3226 0.3557
H68 H 0.5623 0.3324 0.4179
Ag1A Ag 0.48009(7) 0.08111(6) -0.06612(4)
Ag2A Ag 0.33214(7) -0.06946(6) -0.03928(4)
Ag3A Ag 0.58460(7) -0.07173(6) -0.08316(5)
Ag4A Ag -0.02358(7) 0.06858(6) -0.57982(5)
Ag5A Ag 0.08033(8) -0.07771(6) -0.57903(5)
Ag6A Ag -0.18731(8) -0.06434(6) -0.54359(5)
Cu2A Cu 0.24985(12) -0.35290(9) -0.39455(7)
Cu2_2 Cu -0.24985(12) 0.35290(9) -0.60545(7)
Cu3_2 Cu -0.25370(13) -0.38045(9) -0.90701(7)
Cu3A Cu 0.25370(13) 0.38045(9) -0.09299(7)
S1A S 0.6753(2) 0.14979(18) -0.04501(14)
S2A S 0.3997(2) -0.12607(18) -0.14122(13)
S3A S 0.3621(2) 0.14981(18) 0.00535(13)
S4A S 0.1174(2) -0.15460(19) -0.49805(14)
S5A S -0.1719(2) -0.13200(19) -0.45158(14)
S6A S -0.1040(2) -0.14541(19) -0.63401(14)
C1A C 0.7714(10) -0.0310(8) -0.1709(6)
H1A H 0.7551 -0.0943 -0.1845
C2A C 0.8488(9) 0.0183(9) -0.1991(6)
H2A H 0.8875 -0.0109 -0.2298
C3A C 0.8681(10) 0.1097(8) -0.1818(6)
H3A H 0.9176 0.1441 -0.2023
C4A C 0.8155(9) 0.1519(8) -0.1344(6)
C5A C 0.7411(8) 0.0972(6) -0.1062(5)
C6A C 0.8409(11) 0.2516(9) -0.1135(7)
C7A C 0.0958(9) -0.0357(9) -0.0604(6)
H4A H 0.0761 -0.0991 -0.0715
C8A C 0.0172(10) 0.0100(10) -0.0672(7)
H5A H -0.0553 -0.0212 -0.0813
C9A C 0.0466(10) 0.1013(10) -0.0531(6)
H6A H -0.0056 0.1339 -0.0584
C10A C 0.1521(10) 0.1463(8) -0.0311(6)
C11A C 0.2280(8) 0.0954(7) -0.0240(5)
C12A C 0.1898(11) 0.2458(9) -0.0216(6)
C13A C 0.4153(9) 0.0801(7) -0.2130(6)
H7A H 0.4344 0.1430 -0.1961
C14A C 0.3828(9) 0.0473(7) -0.2768(6)
H8A H 0.3777 0.0857 -0.3035
C15A C 0.3574(8) -0.0459(7) -0.3005(5)
H9A H 0.3335 -0.0717 -0.3442
C16A C 0.3667(8) -0.1007(7) -0.2609(5)
C17A C 0.3966(8) -0.0596(7) -0.1960(5)
C18A C 0.3505(10) -0.1998(7) -0.2918(5)
C19A C -0.4069(9) 0.0019(8) -0.5612(5)
H10A H -0.4380 -0.0601 -0.5778
C20A C -0.4740(10) 0.0609(8) -0.5547(5)
H11A H 0.5493 -0.0396 -0.4338
C21A C -0.4283(10) 0.1503(8) -0.5315(6)
H12A H 0.4717 -0.1921 -0.4715
C22A C -0.3195(9) 0.1797(7) -0.5126(5)
C23A C 0.2572(9) -0.1176(7) -0.4780(5)
C24A C -0.2678(10) 0.2774(9) -0.4789(6)
C25A C 0.2743(10) -0.0510(9) -0.6655(6)
H13A H 0.2607 -0.1141 -0.6744
C26A C 0.3482(11) -0.0079(10) -0.6969(6)
H14A H 0.3844 -0.0401 -0.7275
C27A C 0.3689(10) 0.0848(10) -0.6827(7)
H15A H 0.4201 0.1166 -0.7038
C28A C 0.3150(9) 0.1316(8) -0.6376(6)
C29A C 0.2418(9) 0.0800(9) -0.6070(6)
C30A C 0.3399(12) 0.2335(11) -0.6228(11)
C31A C -0.1094(9) 0.0370(7) -0.7272(5)
H16A H -0.0918 0.1004 -0.7166
C32A C -0.1480(9) -0.0074(7) -0.7881(5)
H17A H 0.1609 -0.0235 -0.1812
C33A C -0.1682(9) -0.1010(8) -0.8039(5)
H18A H 0.1950 0.1342 -0.1538
C34A C -0.1500(8) -0.1449(7) -0.7593(5)
C35A C -0.1141(8) -0.0928(7) -0.6957(5)
C36A C 0.1573(9) 0.2423(7) -0.2211(5)
C47A C 0.0460(11) -0.2940(9) -0.3816(6)
H27A H 0.0915 -0.2355 -0.3693
C48A C -0.0637(11) -0.3031(10) -0.3855(7)
H28A H -0.0940 -0.2527 -0.3763
C49A C -0.1279(11) -0.3897(10) -0.4035(6)
H29A H -0.2038 -0.3988 -0.4066
C50A C -0.0845(9) -0.4604(8) -0.4164(6)
H30A H -0.1291 -0.5192 -0.4285
C51A C 0.0271(9) -0.4467(7) -0.4120(5)
C52A C 0.0856(9) -0.5174(8) -0.4251(5)
C53A C 0.0349(10) -0.6074(8) -0.4396(6)
H31A H -0.0409 -0.6267 -0.4415
C54A C 0.1005(11) -0.6699(8) -0.4516(7)
H32A H 0.0689 -0.7321 -0.4615
C55A C 0.2084(11) -0.6399(9) -0.4488(8)
H33A H 0.2532 -0.6807 -0.4571
C56A C 0.2524(11) -0.5485(8) -0.4336(7)
H34A H 0.3279 -0.5283 -0.4324
C57A C 0.2489(11) 0.5714(8) -0.0905(7)
H35A H 0.1730 0.5520 -0.0936
C58A C 0.2925(12) 0.6592(9) -0.0864(7)
H36A H 0.2479 0.6990 -0.0884
C59A C 0.4015(12) 0.6883(8) -0.0793(6)
H37A H 0.4343 0.7492 -0.0753
C60A C 0.4631(10) 0.6283(8) -0.0779(6)
H38A H 0.5392 0.6477 -0.0727
C61A C 0.4140(10) 0.5390(7) -0.0841(6)
C62A C 0.4731(10) 0.4689(8) -0.0820(5)
C63A C 0.5841(10) 0.4852(9) -0.0793(6)
H39A H 0.6269 0.5433 -0.0762
C64A C 0.6314(12) 0.4119(11) -0.0813(8)
H40A H 0.7070 0.4201 -0.0804
C65A C 0.5686(12) 0.3303(10) -0.0846(8)
H41A H 0.5995 0.2810 -0.0856
C66A C 0.4594(13) 0.3199(9) -0.0865(7)
H42A H 0.4155 0.2625 -0.0890
N1A N 0.4217(7) 0.0286(6) -0.1728(4)
N2A N 0.1977(8) 0.0057(6) -0.0391(5)
N3A N 0.7200(8) 0.0079(6) -0.1256(4)
N4A N -0.3005(8) 0.0290(6) -0.5448(4)
N5A N 0.2199(7) -0.0089(7) -0.6229(5)
N6A N -0.0943(7) -0.0033(6) -0.6806(4)
N9A N 0.0910(7) -0.3625(6) -0.3942(4)
N10A N 0.1942(8) -0.4873(6) -0.4207(5)
N11A N 0.3070(8) 0.5111(6) -0.0904(5)
N12A N 0.4121(9) 0.3881(6) -0.0848(5)
O1A O 0.8117(8) 0.2918(6) -0.1504(6)
O3A O 0.8965(10) 0.2870(7) -0.0618(5)
O5A O 0.2775(7) -0.2311(5) -0.3387(4)
O7A O 0.4094(7) -0.2398(5) -0.2711(4)
O9A O 0.1878(16) 0.2986(8) 0.0282(6)
O11A O 0.2234(9) 0.2677(6) -0.0686(5)
O13A O 0.7502(9) 0.3339(6) 0.4911(4)
O13A_2 O -0.2498(9) 0.3339(6) -0.5089(4)
O16A O 0.2465(9) -0.2942(6) -0.5798(4)
O17A O 0.1004(8) 0.3817(7) -0.1012(6)
H59A H 0.0704 0.3613 -0.0724
H60A H 0.0706 0.3495 -0.1374
O18A O 0.3788(11) 0.2736(8) -0.5671(8)
O20A O 0.3246(11) 0.2632(9) -0.6699(7)
O21A O 0.0693(7) 0.2668(5) -0.2248(4)
O23_2 O 0.7546(7) -0.2937(5) 0.1948(4)
O23A O 0.2454(7) 0.2937(5) -0.1948(4)
O25A O 0.4034(9) -0.3563(8) -0.3918(7)
H67A H 0.4312 -0.3226 -0.3557
H68A H 0.4377 -0.3324 -0.4179
Cu1 Cu -0.07946(13) -0.54969(10) -0.27241(7)
C37 C 0.1464(14) -0.5747(13) -0.2833(9)
H19 H 0.1135 -0.6364 -0.2996
C38 C 0.2577(15) -0.5477(15) -0.2748(9)
H20 H 0.3007 -0.5900 -0.2819
C39 C 0.3044(15) -0.4556(17) -0.2551(10)
C40 C 0.2400(13) -0.3978(13) -0.2442(7)
H22 H 0.2704 -0.3353 -0.2330
C41 C 0.1301(12) -0.4299(10) -0.2494(6)
C42 C 0.0557(13) -0.3720(9) -0.2363(6)
C43 C 0.0866(16) -0.2775(12) -0.2135(7)
H23 H 0.1603 -0.2467 -0.2060
C44 C 0.0069(19) -0.2315(12) -0.2024(8)
H24 H 0.0264 -0.1683 -0.1874
C45 C -0.0973(17) -0.2740(10) -0.2122(8)
H25 H -0.1519 -0.2422 -0.2048
C46 C -0.1220(15) -0.3660(9) -0.2336(8)
H26 H -0.1957 -0.3965 -0.2397
N7 N 0.0845(9) -0.5189(9) -0.2700(5)
N8 N -0.0502(10) -0.4149(7) -0.2463(5)
O26 O -0.1032(9) -0.6847(6) -0.2974(5)
H69 H -0.1000 -0.7026 -0.3370
H70 H -0.0550 -0.6994 -0.2769
O28 O -0.0852(10) -0.5514(7) -0.1725(5)
H73 H -0.1179 -0.5129 -0.1546
H74 H -0.1180 -0.6030 -0.1704
O29 O -0.2345(8) -0.5694(7) -0.3071(6)
H75 H -0.2452 -0.5211 -0.3134
H76 H -0.2482 -0.6099 -0.3418
O2 O 0.4416(17) 0.5075(10) 0.2393(8)
H43 H 0.4085 0.4688 0.2061
H44 H 0.4672 0.5560 0.2296
O4 O 1.3800(14) 0.4421(10) 0.3458(9)
H45 H 1.3643 0.3854 0.3375
H46 H 1.3979 0.4572 0.3124
O6 O 1.405(2) 0.5472(17) 0.4587(12)
H47 H 1.3944 0.5120 0.4218
H48 H 1.4535 0.5930 0.4590
O8 O 1.4398(16) 0.3123(13) 0.5450(10)
H49 H 1.4108 0.2883 0.5072
H50 H 1.4194 0.2765 0.5676
O10 O 0.596(3) -0.228(2) 0.3710(16)
H51 H 0.5385 -0.2111 0.3776
H52 H 0.5909 -0.2561 0.3323
O12 O 0.5502(11) -0.3172(10) 0.2436(7)
H53 H 0.6014 -0.2999 0.2231
H54 H 0.4983 -0.2948 0.2355
O14 O 0.6538(12) 0.2745(10) -0.2443(6)
H55 H 0.7092 0.2700 -0.2234
H56 H 0.6495 0.2435 -0.2822
O15 O 0.4129(18) -0.1951(16) 0.3688(11)
H57 H 0.4172 -0.1393 0.3779
H58 H 0.3741 -0.2191 0.3932
O19 O 0.3224(10) 0.3507(9) 0.1536(6)
H61 H 0.3386 0.3090 0.1674
H62 H 0.2844 0.3279 0.1180
O22 O 0.915(2) 0.4653(11) -0.0086(9)
H64 H 0.9094 0.4102 -0.0252
O24 O 0.9235(12) 0.2517(10) 0.0578(7)
H65 H 0.9139 0.2621 0.0219
H66 H 0.9843 0.2826 0.0769
O27 O 1.3911(9) 0.2360(7) 0.2113(5)
H71 H 1.3593 0.2440 0.2445
H72 H 1.4554 0.2355 0.2222
H21? H 0.3803 -0.4341 -0.2495
H63? H 0.9802 0.4932 -0.0021
loop_
_geom_bond_atom_site_label_1
_geom_bond_atom_site_label_2
_geom_bond_site_symmetry_1
_geom_bond_site_symmetry_2
Ag1 Ag2 1_555 1_555
Ag2 S2 1_555 1_555
Ag3 Ag1 1_555 1_555
Ag4 Ag5 1_555 1_555
Ag5 S4 1_555 1_555
Ag6 Ag4 1_555 1_555
Cu1 N7 1_555 1_555
Cu2 N9 1_555 1_555
Cu3 N11 1_555 1_555
S1 Ag1 1_555 1_555
S2 Ag3 1_555 1_555
S3 Ag1 1_555 1_555
S4 C23 1_555 1_555
S5 Ag6 1_555 1_555
S6 Ag5 1_555 1_555
C1 H1 1_555 1_555
C2 C1 1_555 1_555
H2 C2 1_555 1_555
C3 C2 1_555 1_555
H3 C3 1_555 1_555
C4 C3 1_555 1_555
C5 S1 1_555 1_555
C6 C4 1_555 1_555
C7 H4 1_555 1_555
C8 C7 1_555 1_555
H5 C8 1_555 1_555
C9 C8 1_555 1_555
H6 C9 1_555 1_555
C10 C9 1_555 1_555
C11 S3 1_555 1_555
C12 C10 1_555 1_555
C13 H7 1_555 1_555
C14 C13 1_555 1_555
H8 C14 1_555 1_555
C15 C14 1_555 1_555
H9 C15 1_555 1_555
C16 C15 1_555 1_555
C17 S2 1_555 1_555
C18 C16 1_555 1_555
C19 H10 1_555 1_555
C20 C19 1_555 1_555
H11 C20A 1_555 1_555
C21 C20 1_555 1_555
H12 C21A 1_555 1_555
C22 C21 1_555 1_555
C23 C22A 1_555 1_555
C24 C22 1_555 1_555
C25 H13 1_555 1_555
C26 C25 1_555 1_555
H14 C26 1_555 1_555
C27 C26 1_555 1_555
H15 C27 1_555 1_555
C28 C27 1_555 1_555
C29 C28 1_555 1_555
C30 C28 1_555 1_555
C31 H16 1_555 1_555
C32 C31 1_555 1_555
H17 C32A 1_555 1_555
C33 C32 1_555 1_555
H18 C33A 1_555 1_555
C34 C33 1_555 1_555
C35 S6 1_555 1_555
C36 O21 1_555 1_555
C37 H19 1_555 1_555
C38 C37 1_555 1_555
H20 C38 1_555 1_555
C39 C38 1_555 1_555
C40 C39 1_555 1_555
H22 C40 1_555 1_555
C41 C40 1_555 1_555
C42 C41 1_555 1_555
C43 C42 1_555 1_555
H23 C43 1_555 1_555
C44 C43 1_555 1_555
H24 C44 1_555 1_555
C45 C44 1_555 1_555
H25 C45 1_555 1_555
C46 C45 1_555 1_555
H26 C46 1_555 1_555
C47 H27 1_555 1_555
C48 C47 1_555 1_555
H28 C48 1_555 1_555
C49 C48 1_555 1_555
H29 C49 1_555 1_555
C50 C49 1_555 1_555
H30 C50 1_555 1_555
C51 C50 1_555 1_555
C52 C51 1_555 1_555
C53 C52 1_555 1_555
H31 C53 1_555 1_555
C54 C53 1_555 1_555
H32 C54 1_555 1_555
C55 C54 1_555 1_555
H33 C55 1_555 1_555
C56 C55 1_555 1_555
H34 C56 1_555 1_555
C57 H35 1_555 1_555
C58 C57 1_555 1_555
H36 C58 1_555 1_555
C59 C58 1_555 1_555
H37 C59 1_555 1_555
C60 C59 1_555 1_555
H38 C60 1_555 1_555
C61 C60 1_555 1_555
C62 C61 1_555 1_555
C63 C62 1_555 1_555
H39 C63 1_555 1_555
C64 C63 1_555 1_555
H40 C64 1_555 1_555
C65 C64 1_555 1_555
H41 C65 1_555 1_555
C66 C65 1_555 1_555
H42 C66 1_555 1_555
N1 Ag1 1_555 1_555
N2 Ag2 1_555 1_555
N3 Ag3 1_555 1_555
N4 Ag6 1_555 1_555
N5 Ag5 1_555 1_555
N6 Ag4 1_555 1_555
N7 C37 1_555 1_555
N8 Cu1 1_555 1_555
N9 C47 1_555 1_555
N10 Cu2 1_555 1_555
N11 C57 1_555 1_555
N12 Cu3 1_555 1_555
O1 C6 1_555 1_555
O2 H43 1_555 1_555
H44 O2 1_555 1_555
O3 C6 1_555 1_555
O4 H45 1_555 1_555
H46 O4 1_555 1_555
O5 Cu2 1_555 1_555
O6 H47 1_555 1_555
H48 O6 1_555 1_555
O7 C18 1_555 1_555
O8 H49 1_555 1_555
H50 O8 1_555 1_555
O9 C12 1_555 1_555
O10 H51 1_555 1_555
H52 O10 1_555 1_555
O11 Cu3 1_555 1_555
O12 H53 1_555 1_555
H54 O12 1_555 1_555
O13 C24 1_555 1_555
O14 H55 1_555 1_555
H56 O14 1_555 1_555
O15 H57 1_555 1_555
H58 O15 1_555 1_555
O16 C24A 1_555 1_555
O17 Cu3 1_555 1_555
H59 O17 1_555 1_555
H60 O17 1_555 1_555
O18 C30 1_555 1_555
O19 H61 1_555 1_555
H62 O19 1_555 1_555
O20 C30 1_555 1_555
O22 H64 1_555 1_555
O23 C36 1_555 1_555
O24 H65 1_555 1_555
H66 O24 1_555 1_555
O25 Cu2 1_555 1_555
H67 O25 1_555 1_555
H68 O25 1_555 1_555
O26 Cu1 1_555 1_555
H69 O26 1_555 1_555
H70 O26 1_555 1_555
O27 H71 1_555 1_555
H72 O27 1_555 1_555
O28 Cu1 1_555 1_555
H73 O28 1_555 1_555
H74 O28 1_555 1_555
O29 Cu1 1_555 1_555
H75 O29 1_555 1_555
H76 O29 1_555 1_555
Ag1A Ag2 1_555 1_555
Ag2A Ag1 1_555 1_555
Ag3A Ag2 1_555 1_555
Ag4A S4 1_555 1_555
Ag5A Ag6 1_555 1_555
Ag6A Ag5 1_555 1_555
Cu2A O13 1_555 1_555
Cu2_2 O13A_2 1_555 1_555
Cu3_2 O23 1_555 1_555
Cu3A N11A 1_555 1_555
S1A Ag2 1_555 1_555
S2A Ag2A 1_555 1_555
S3A Ag3 1_555 1_555
S4A Ag4 1_555 1_555
S5A Ag4 1_555 1_555
S6A Ag5A 1_555 1_555
C1A H1A 1_555 1_555
C2A C1A 1_555 1_555
H2A C2A 1_555 1_555
C3A C2A 1_555 1_555
H3A C3A 1_555 1_555
C4A C3A 1_555 1_555
C5A S1A 1_555 1_555
C6A C4A 1_555 1_555
C7A H4A 1_555 1_555
C8A C7A 1_555 1_555
H5A C8A 1_555 1_555
C9A C8A 1_555 1_555
H6A C9A 1_555 1_555
C10A C9A 1_555 1_555
C11A S3A 1_555 1_555
C12A C10A 1_555 1_555
C13A H7A 1_555 1_555
C14A C13A 1_555 1_555
H8A C14A 1_555 1_555
C15A C14A 1_555 1_555
H9A C15A 1_555 1_555
C16A C15A 1_555 1_555
C17A S2A 1_555 1_555
C18A C16A 1_555 1_555
C19A H10A 1_555 1_555
C20A C19A 1_555 1_555
H11A C20 1_555 1_555
C21A C20A 1_555 1_555
H12A C21 1_555 1_555
C22A C21A 1_555 1_555
C23A C22 1_555 1_555
C24A C22A 1_555 1_555
C25A H13A 1_555 1_555
C26A C25A 1_555 1_555
H14A C26A 1_555 1_555
C27A C26A 1_555 1_555
H15A C27A 1_555 1_555
C28A C27A 1_555 1_555
C29A S5 1_555 1_555
C30A C28A 1_555 1_555
C31A H16A 1_555 1_555
C32A C31A 1_555 1_555
H17A C32 1_555 1_555
C33A C32A 1_555 1_555
H18A C33 1_555 1_555
C34A C36 1_555 1_555
C35A S6A 1_555 1_555
C36A C34 1_555 1_555
C47A H27A 1_555 1_555
C48A C47A 1_555 1_555
H28A C48A 1_555 1_555
C49A C48A 1_555 1_555
H29A C49A 1_555 1_555
C50A C49A 1_555 1_555
H30A C50A 1_555 1_555
C51A C50A 1_555 1_555
C52A C51A 1_555 1_555
C53A C52A 1_555 1_555
H31A C53A 1_555 1_555
C54A C53A 1_555 1_555
H32A C54A 1_555 1_555
C55A C54A 1_555 1_555
H33A C55A 1_555 1_555
C56A C55A 1_555 1_555
H34A C56A 1_555 1_555
C57A H35A 1_555 1_555
C58A C57A 1_555 1_555
H36A C58A 1_555 1_555
C59A C58A 1_555 1_555
H37A C59A 1_555 1_555
C60A C59A 1_555 1_555
H38A C60A 1_555 1_555
C61A C60A 1_555 1_555
C62A C61A 1_555 1_555
C63A C62A 1_555 1_555
H39A C63A 1_555 1_555
C64A C63A 1_555 1_555
H40A C64A 1_555 1_555
C65A C64A 1_555 1_555
H41A C65A 1_555 1_555
C66A C65A 1_555 1_555
H42A C66A 1_555 1_555
N1A Ag1A 1_555 1_555
N2A Ag2A 1_555 1_555
N3A Ag3A 1_555 1_555
N4A C23 1_555 1_555
N5A Ag5A 1_555 1_555
N6A Ag4A 1_555 1_555
N9A Cu2A 1_555 1_555
N10A Cu2A 1_555 1_555
N11A C57A 1_555 1_555
N12A Cu3A 1_555 1_555
O1A C6A 1_555 1_555
O3A C6A 1_555 1_555
O5A Cu2A 1_555 1_555
O7A C18A 1_555 1_555
O9A C12A 1_555 1_555
O11A Cu3A 1_555 1_555
O13A Cu2 1_555 1_555
O13A_2 C24A 1_555 1_555
O16A C24 1_555 1_555
O17A Cu3A 1_555 1_555
H59A O17A 1_555 1_555
H60A O17A 1_555 1_555
O18A C30A 1_555 1_555
O20A C30A 1_555 1_555
O21A C36A 1_555 1_555
O23_2 Cu3 1_555 1_555
O23A Cu3A 1_555 1_555
O25A Cu2A 1_555 1_555
H67A O25A 1_555 1_555
H68A O25A 1_555 1_555
Ag3 Ag2A 1_555 1_555
Ag6 S6 1_555 1_555
S1 Ag2A 1_555 1_555
S3 Ag3A 1_555 1_555
S5 Ag4A 1_555 1_555
C1 N3 1_555 1_555
C4 C5 1_555 1_555
C5 N3 1_555 1_555
C7 N2 1_555 1_555
C10 C11 1_555 1_555
C11 N2 1_555 1_555
C12 O11 1_555 1_555
C13 N1 1_555 1_555
C16 C17 1_555 1_555
C17 N1 1_555 1_555
C18 O5 1_555 1_555
C19 N4 1_555 1_555
C25 N5 1_555 1_555
C29 N5 1_555 1_555
C29 S5A 1_555 1_555
C31 N6 1_555 1_555
C34 C35 1_555 1_555
C35 N6 1_555 1_555
C41 N7 1_555 1_555
C42 N8 1_555 1_555
C46 N8 1_555 1_555
C51 N9 1_555 1_555
C52 N10 1_555 1_555
C56 N10 1_555 1_555
C61 N11 1_555 1_555
C62 N12 1_555 1_555
C66 N12 1_555 1_555
N4 C23A 1_555 1_555
Ag1A Ag2A 1_555 1_555
Ag1A Ag3A 1_555 1_555
Ag1A S1A 1_555 1_555
Ag1A S3A 1_555 1_555
Ag3A S2A 1_555 1_555
Ag4A Ag5A 1_555 1_555
Ag4A Ag6A 1_555 1_555
Ag5A S4A 1_555 1_555
Ag6A S5A 1_555 1_555
Ag6A S6A 1_555 1_555
Ag6A N4A 1_555 1_555
S4A C23A 1_555 1_555
C1A N3A 1_555 1_555
C4A C5A 1_555 1_555
C5A N3A 1_555 1_555
C7A N2A 1_555 1_555
C10A C11A 1_555 1_555
C11A N2A 1_555 1_555
C12A O11A 1_555 1_555
C13A N1A 1_555 1_555
C16A C17A 1_555 1_555
C17A N1A 1_555 1_555
C18A O5A 1_555 1_555
C19A N4A 1_555 1_555
C25A N5A 1_555 1_555
C28A C29A 1_555 1_555
C29A N5A 1_555 1_555
C31A N6A 1_555 1_555
C33A C34A 1_555 1_555
C34A C35A 1_555 1_555
C35A N6A 1_555 1_555
C36A O23A 1_555 1_555
C47A N9A 1_555 1_555
C51A N9A 1_555 1_555
C52A N10A 1_555 1_555
C56A N10A 1_555 1_555
C61A N11A 1_555 1_555
C62A N12A 1_555 1_555
C66A N12A 1_555 1_555

#END
