
#######################################################################
#
#                 Cambridge Crystallographic Data Centre
#                                CCDC 
#
#######################################################################
#
# If this CIF has been generated from an entry in the Cambridge 
# Structural Database, then it will include bibliographic, chemical, 
# crystal, experimental, refinement or atomic coordinate data resulting 
# from the CCDC's data processing and validation procedures.
#
#######################################################################

data_EHODEK
_symmetry_cell_setting           orthorhombic
_symmetry_space_group_name_H-M   'F d d 2'
_symmetry_Int_Tables_number      43
_space_group_name_Hall           'F 2 -2d'
loop_
_symmetry_equiv_pos_site_id
_symmetry_equiv_pos_as_xyz
1 x,y,z
2 -x,-y,z
3 1/4+x,1/4-y,1/4+z
4 1/4-x,1/4+y,1/4+z
5 x,1/2+y,1/2+z
6 -x,1/2-y,1/2+z
7 1/4+x,3/4-y,3/4+z
8 1/4-x,3/4+y,3/4+z
9 1/2+x,y,1/2+z
10 1/2-x,-y,1/2+z
11 3/4+x,1/4-y,3/4+z
12 3/4-x,1/4+y,3/4+z
13 1/2+x,1/2+y,z
14 1/2-x,1/2-y,z
15 3/4+x,3/4-y,1/4+z
16 3/4-x,3/4+y,1/4+z
_cell_length_a                   15.8249(11)
_cell_length_b                   81.248(6)
_cell_length_c                   5.3089(4)
_cell_angle_alpha                90
_cell_angle_beta                 90
_cell_angle_gamma                90
_cell_volume                     6825.87
loop_
_atom_site_label
_atom_site_type_symbol
_atom_site_fract_x
_atom_site_fract_y
_atom_site_fract_z
Zn1 Zn 0.0000 0.5000 -0.61941(7)
V1 V 0.29834(2) 0.492770(4) -1.38100(8)
O1 O 0.39617(11) 0.49912(2) -1.3036(4)
O2 O 0.22090(11) 0.50421(2) -1.2107(4)
O3 O 0.28789(12) 0.47358(2) -1.3154(4)
C1 C 0.06469(15) 0.47766(3) -0.2382(5)
C2 C 0.06877(15) 0.46507(3) -0.0641(5)
C3 C 0.00196(14) 0.45399(3) -0.0469(5)
C4 C -0.06730(15) 0.45620(3) -0.2052(5)
C5 C -0.06740(14) 0.46926(3) -0.3729(5)
C6 C 0.00604(13) 0.44003(3) 0.1324(5)
C7 C 0.07089(15) 0.42700(3) 0.4532(5)
C8 C 0.13751(14) 0.42630(3) 0.6478(5)
C9 C 0.20026(15) 0.43827(3) 0.6621(5)
C10 C 0.25991(15) 0.43713(3) 0.8528(6)
C11 C 0.20057(16) 0.41380(3) 1.0075(5)
C12 C 0.13800(15) 0.41365(3) 0.8245(5)
C13 C -0.04219(15) 0.41545(3) 0.2630(5)
C14 C -0.10270(14) 0.40157(3) 0.2416(5)
C15 C -0.10453(15) 0.38932(3) 0.4249(5)
C16 C -0.16097(15) 0.37635(3) 0.3952(5)
C17 C -0.21056(17) 0.38684(3) 0.0254(5)
C18 C -0.15773(16) 0.40042(3) 0.0386(5)
H1 H 0.113(2) 0.4853(4) -0.258(7)
H2 H 0.111(2) 0.4647(4) 0.038(6)
H3 H -0.111(2) 0.4486(5) -0.195(7)
H4 H -0.113(2) 0.4715(4) -0.474(7)
H5 H 0.202(2) 0.4469(5) 0.554(8)
H6 H 0.304(2) 0.4446(5) 0.854(9)
H7 H 0.199(2) 0.4055(4) 1.140(8)
H8 H 0.097(2) 0.4054(4) 0.812(7)
H9 H -0.0738(18) 0.3897(3) 0.559(5)
H10 H -0.164(2) 0.3689(4) 0.524(6)
H11 H -0.2457(17) 0.3852(4) -0.108(7)
H12 H -0.159(2) 0.4071(4) -0.079(7)
N1 N -0.00197(11) 0.47987(2) -0.3904(4)
N2 N 0.26110(14) 0.42526(3) 1.0263(5)
N3 N -0.21282(14) 0.37475(3) 0.1967(5)
N4 N 0.06764(13) 0.44031(2) 0.3046(4)
N5 N 0.01806(13) 0.41422(2) 0.4382(4)
N6 N -0.05138(12) 0.42805(2) 0.1033(4)
V1I V 0.20166(2) 0.507230(4) -0.88100(8)
O1I O 0.10383(11) 0.50088(2) -0.8036(4)
Zn1H Zn 0.5000 0.5000 -1.11941(7)
O1H O -0.10383(11) 0.49912(2) -0.8036(4)
N1A N 0.00197(11) 0.52013(2) -0.3904(4)
C1A C -0.06469(15) 0.52234(3) -0.2382(5)
C2A C -0.06877(15) 0.53493(3) -0.0641(5)
C3A C -0.00196(14) 0.54601(3) -0.0469(5)
C4A C 0.06730(15) 0.54380(3) -0.2052(5)
C5A C 0.06740(14) 0.53074(3) -0.3729(5)
H4A H 0.113(2) 0.5285(4) -0.474(7)
H3A H 0.111(2) 0.5514(5) -0.195(7)
C6A C -0.00604(13) 0.55997(3) 0.1324(5)
N4A N -0.06764(13) 0.55969(2) 0.3046(4)
C7A C -0.07089(15) 0.57300(3) 0.4532(5)
C8A C -0.13751(14) 0.57370(3) 0.6478(5)
C9A C -0.20026(15) 0.56173(3) 0.6621(5)
C10A C -0.25991(15) 0.56287(3) 0.8528(6)
H6A H -0.304(2) 0.5554(5) 0.854(9)
N2A N -0.26110(14) 0.57474(3) 1.0263(5)
C11A C -0.20057(16) 0.58620(3) 1.0075(5)
C12A C -0.13800(15) 0.58635(3) 0.8245(5)
H8A H -0.097(2) 0.5946(4) 0.812(7)
H7A H -0.199(2) 0.5945(4) 1.140(8)
H5A H -0.202(2) 0.5531(5) 0.554(8)
N5A N -0.01806(13) 0.58578(2) 0.4382(4)
C13A C 0.04219(15) 0.58455(3) 0.2630(5)
C14A C 0.10270(14) 0.59843(3) 0.2416(5)
C15A C 0.10453(15) 0.61068(3) 0.4249(5)
C16A C 0.16097(15) 0.62365(3) 0.3952(5)
H10A H 0.164(2) 0.6311(4) 0.524(6)
N3A N 0.21282(14) 0.62525(3) 0.1967(5)
C17A C 0.21056(17) 0.61316(3) 0.0254(5)
C18A C 0.15773(16) 0.59958(3) 0.0386(5)
H12A H 0.159(2) 0.5929(4) -0.079(7)
H11A H 0.2457(17) 0.6148(4) -0.108(7)
H9A H 0.0738(18) 0.6103(3) 0.559(5)
N6A N 0.05138(12) 0.57195(2) 0.1033(4)
H2A H -0.111(2) 0.5353(4) 0.038(6)
H1A H -0.113(2) 0.5147(4) -0.258(7)
O2I O 0.27910(11) 0.49579(2) -0.7107(4)
O3I O 0.21211(12) 0.52642(2) -0.8154(4)
O2I_2 O 0.27910(11) 0.49579(2) -1.7107(4)
V1I_2 V 0.20166(2) 0.507230(4) -1.88100(8)
loop_
_geom_bond_atom_site_label_1
_geom_bond_atom_site_label_2
_geom_bond_site_symmetry_1
_geom_bond_site_symmetry_2
Zn1 N1 1_555 1_555
V1 O1 1_555 1_555
O1 Zn1H 1_555 1_555
O2 V1 1_555 1_555
O3 V1 1_555 1_555
C1 C2 1_555 1_555
C2 C3 1_555 1_555
C3 C4 1_555 1_555
C4 C5 1_555 1_555
C5 H4 1_555 1_555
C6 C3 1_555 1_555
C7 C8 1_555 1_555
C8 C9 1_555 1_555
C9 C10 1_555 1_555
C10 H6 1_555 1_555
C11 C12 1_555 1_555
C12 C8 1_555 1_555
C13 C14 1_555 1_555
C14 C15 1_555 1_555
C15 C16 1_555 1_555
C16 H10 1_555 1_555
C17 C18 1_555 1_555
C18 C14 1_555 1_555
H1 C1 1_555 1_555
H2 C2 1_555 1_555
H3 C4 1_555 1_555
H5 C9 1_555 1_555
H7 C11 1_555 1_555
H8 C12 1_555 1_555
H9 C15 1_555 1_555
H11 C17 1_555 1_555
H12 C18 1_555 1_555
N1 C1 1_555 1_555
N2 C10 1_555 1_555
N3 C16 1_555 1_555
N4 C6 1_555 1_555
N5 C7 1_555 1_555
N6 C6 1_555 1_555
V1I O2 1_555 1_555
O1I Zn1 1_555 1_555
O1H Zn1 1_555 1_555
N1A Zn1 1_555 1_555
C1A N1A 1_555 1_555
C2A C1A 1_555 1_555
C3A C2A 1_555 1_555
C4A C3A 1_555 1_555
C5A N1A 1_555 1_555
H4A C5A 1_555 1_555
H3A C4A 1_555 1_555
C6A C3A 1_555 1_555
N4A C6A 1_555 1_555
C7A N4A 1_555 1_555
C8A C7A 1_555 1_555
C9A C8A 1_555 1_555
C10A C9A 1_555 1_555
H6A C10A 1_555 1_555
N2A C10A 1_555 1_555
C11A N2A 1_555 1_555
C12A C8A 1_555 1_555
H8A C12A 1_555 1_555
H7A C11A 1_555 1_555
H5A C9A 1_555 1_555
N5A C7A 1_555 1_555
C13A N5A 1_555 1_555
C14A C13A 1_555 1_555
C15A C14A 1_555 1_555
C16A C15A 1_555 1_555
H10A C16A 1_555 1_555
N3A C16A 1_555 1_555
C17A N3A 1_555 1_555
C18A C14A 1_555 1_555
H12A C18A 1_555 1_555
H11A C17A 1_555 1_555
H9A C15A 1_555 1_555
N6A C6A 1_555 1_555
H2A C2A 1_555 1_555
H1A C1A 1_555 1_555
O2I V1I 1_555 1_555
O3I V1I 1_555 1_555
O2I_2 V1 1_555 1_555
V1I_2 O2I_2 1_555 1_555
C5 N1 1_555 1_555
C7 N4 1_555 1_555
C11 N2 1_555 1_555
C13 N5 1_555 1_555
C13 N6 1_555 1_555
C17 N3 1_555 1_555
V1I O1I 1_555 1_555
C4A C5A 1_555 1_555
C11A C12A 1_555 1_555
C13A N6A 1_555 1_555
C17A C18A 1_555 1_555

#END
