
#######################################################################
#
#                 Cambridge Crystallographic Data Centre
#                                CCDC 
#
#######################################################################
#
# If this CIF has been generated from an entry in the Cambridge 
# Structural Database, then it will include bibliographic, chemical, 
# crystal, experimental, refinement or atomic coordinate data resulting 
# from the CCDC's data processing and validation procedures.
#
#######################################################################

data_EHOHOY
_symmetry_cell_setting           monoclinic
_symmetry_space_group_name_H-M   'P c'
_symmetry_Int_Tables_number      7
_space_group_name_Hall           'P -2yc'
loop_
_symmetry_equiv_pos_site_id
_symmetry_equiv_pos_as_xyz
1 x,y,z
2 x,-y,1/2+z
_cell_length_a                   4.6935(7)
_cell_length_b                   7.2515(10)
_cell_length_c                   11.1025(15)
_cell_angle_alpha                90.00
_cell_angle_beta                 94.724(3)
_cell_angle_gamma                90.00
_cell_volume                     376.589
loop_
_atom_site_label
_atom_site_type_symbol
_atom_site_fract_x
_atom_site_fract_y
_atom_site_fract_z
Sb1 Sb 0.5157(3) 0.3464(2) 0.44752(16)
Sb2 Sb 0.5420(4) 0.2411(2) 0.7526(2)
P1 P 1.0361(14) 0.9185(10) 0.7735(7)
P2 P 1.0836(14) 0.5658(10) 0.6156(7)
O1 O 0.773(4) 0.517(3) 0.606(2)
O2 O 0.503(6) 0.181(3) 0.5827(19)
O3 O 1.243(4) 0.471(2) 0.720(2)
O4 O 1.144(6) 0.804(3) 0.876(2)
O5 O 0.718(4) 0.948(2) 0.7758(19)
O6 O 1.168(4) 1.112(3) 0.778(2)
O7 O 1.220(4) 0.526(3) 0.495(2)
C1 C 1.111(7) 0.810(4) 0.632(3)
H1 H 1.3033 0.8452 0.6155
H2 H 0.9825 0.8651 0.5686
O4A O 0.144(6) 0.196(3) 0.376(2)
O7_2 O 0.220(4) 0.526(3) 0.495(2)
O3_2 O 0.243(4) 0.471(2) 0.720(2)
O5_2 O 0.718(4) -0.052(2) 0.7758(19)
O6_2 O 0.168(4) 0.112(3) 0.778(2)
Sb2_2 Sb 1.5420(4) 0.2411(2) 0.7526(2)
Sb1A Sb 1.5157(3) 0.6536(2) 0.94752(16)
Sb2_3 Sb 0.5420(4) 1.2411(2) 0.7526(2)
Sb2_4 Sb 1.5420(4) 1.2411(2) 0.7526(2)
Sb1_2 Sb 1.5157(3) 0.3464(2) 0.44752(16)
loop_
_geom_bond_atom_site_label_1
_geom_bond_atom_site_label_2
_geom_bond_site_symmetry_1
_geom_bond_site_symmetry_2
Sb1 O1 1_555 1_555
Sb2 O2 1_555 1_555
P1 O4 1_555 1_555
P2 O1 1_555 1_555
O2 Sb1 1_555 1_555
O3 P2 1_555 1_555
O4 Sb1A 1_555 1_555
O5 P1 1_555 1_555
O6 P1 1_555 1_555
O7 P2 1_555 1_555
C1 P1 1_555 1_555
H1 C1 1_555 1_555
H2 C1 1_555 1_555
O4A Sb1 1_555 1_555
O7_2 Sb1 1_555 1_555
O3_2 Sb2 1_555 1_555
O5_2 Sb2 1_555 1_555
O6_2 Sb2 1_555 1_555
Sb2_2 O3 1_555 1_555
Sb2_3 O5 1_555 1_555
Sb2_4 O6 1_555 1_555
Sb1_2 O7 1_555 1_555
P2 C1 1_555 1_555

#END
