
#######################################################################
#
#                 Cambridge Crystallographic Data Centre
#                                CCDC 
#
#######################################################################
#
# If this CIF has been generated from an entry in the Cambridge 
# Structural Database, then it will include bibliographic, chemical, 
# crystal, experimental, refinement or atomic coordinate data resulting 
# from the CCDC's data processing and validation procedures.
#
#######################################################################

data_EHOHIT
_symmetry_cell_setting           orthorhombic
_symmetry_space_group_name_H-M   'P c c n'
_symmetry_Int_Tables_number      56
_space_group_name_Hall           '-P 2ab 2ac'
loop_
_symmetry_equiv_pos_site_id
_symmetry_equiv_pos_as_xyz
1 x,y,z
2 1/2-x,1/2-y,z
3 -x,1/2+y,1/2-z
4 1/2+x,-y,1/2-z
5 -x,-y,-z
6 1/2+x,1/2+y,-z
7 x,1/2-y,1/2+z
8 1/2-x,y,1/2+z
_cell_length_a                   18.0648(7)
_cell_length_b                   7.2166(2)
_cell_length_c                   15.2813(4)
_cell_angle_alpha                90
_cell_angle_beta                 90
_cell_angle_gamma                90
_cell_volume                     1992.17
loop_
_atom_site_label
_atom_site_type_symbol
_atom_site_fract_x
_atom_site_fract_y
_atom_site_fract_z
Fe1 Fe 0.545848(14) 0.17824(4) 0.128028(16)
C1 C 0.32723(11) 0.4171(3) 0.08156(13)
C2 C 0.27635(11) 0.4673(3) 0.01629(13)
H1 H 0.2878 0.4496 -0.0425
C3 C 0.20839(11) 0.5443(3) 0.04055(13)
C4 C 0.19200(12) 0.5702(3) 0.12938(12)
H2 H 0.1471 0.6234 0.1453
C5 C 0.24227(12) 0.5173(3) 0.19435(13)
C6 C 0.30976(11) 0.4409(3) 0.17099(13)
H3 H 0.3434 0.4055 0.2139
C7 C 0.40057(11) 0.3316(3) 0.05643(15)
C8 C 0.15220(11) 0.5983(3) -0.02703(12)
O1 O 0.44133(9) 0.2767(2) 0.11926(9)
O2 O 0.41591(9) 0.3194(2) -0.02460(10)
O3 O 0.09075(8) 0.66580(18) -0.00120(9)
O4 O 0.16210(8) 0.5775(2) -0.10966(9)
O5 O 0.22229(8) 0.5425(3) 0.28126(10)
H4 H 0.2597 0.5513 0.3114
O6 O 0.51001(9) -0.0837(2) 0.11820(9)
O7 O 0.53589(9) 0.1506(2) 0.26267(11)
O8 O 0.58285(9) 0.4343(2) 0.15240(11)
H5 H 0.4694(14) -0.088(6) 0.087(2)
H6 H 0.517(3) 0.043(4) 0.276(3)
H7 H 0.6226(17) 0.430(7) 0.185(3)
H8 H 0.5406(13) -0.158(3) 0.0897(19)
H9 H 0.525(3) 0.255(4) 0.289(3)
H10 H 0.587(2) 0.513(3) 0.1070(13)
Fe1E Fe 0.045848(14) 0.67824(4) -0.128028(16)
O3E O 0.59075(8) 0.16580(18) 0.00120(9)
O4E O 0.66210(8) 0.0775(2) 0.10966(9)
loop_
_geom_bond_atom_site_label_1
_geom_bond_atom_site_label_2
_geom_bond_site_symmetry_1
_geom_bond_site_symmetry_2
Fe1 O1 1_555 1_555
C1 C2 1_555 1_555
C2 H1 1_555 1_555
C3 C2 1_555 1_555
C4 C3 1_555 1_555
H2 C4 1_555 1_555
C5 C4 1_555 1_555
C6 C1 1_555 1_555
H3 C6 1_555 1_555
C7 C1 1_555 1_555
C8 C3 1_555 1_555
O1 C7 1_555 1_555
O2 C7 1_555 1_555
O3 C8 1_555 1_555
O4 C8 1_555 1_555
O5 C5 1_555 1_555
H4 O5 1_555 1_555
O6 Fe1 1_555 1_555
O7 Fe1 1_555 1_555
O8 Fe1 1_555 1_555
H5 O6 1_555 1_555
H6 O7 1_555 1_555
H7 O8 1_555 1_555
H8 O6 1_555 1_555
H9 O7 1_555 1_555
H10 O8 1_555 1_555
Fe1E O3 1_555 1_555
O3E Fe1 1_555 1_555
O4E Fe1 1_555 1_555
C5 C6 1_555 1_555
O4 Fe1E 1_555 1_555

#END
