
#######################################################################
#
#                 Cambridge Crystallographic Data Centre
#                                CCDC 
#
#######################################################################
#
# If this CIF has been generated from an entry in the Cambridge 
# Structural Database, then it will include bibliographic, chemical, 
# crystal, experimental, refinement or atomic coordinate data resulting 
# from the CCDC's data processing and validation procedures.
#
#######################################################################

data_EHOLET
_symmetry_cell_setting           monoclinic
_symmetry_space_group_name_H-M   'P 21/c'
_symmetry_Int_Tables_number      14
_space_group_name_Hall           '-P 2ybc'
loop_
_symmetry_equiv_pos_site_id
_symmetry_equiv_pos_as_xyz
1 x,y,z
2 -x,1/2+y,1/2-z
3 -x,-y,-z
4 x,1/2-y,1/2+z
_cell_length_a                   10.122(5)
_cell_length_b                   7.680(3)
_cell_length_c                   16.826(6)
_cell_angle_alpha                90
_cell_angle_beta                 112.57(2)
_cell_angle_gamma                90
_cell_volume                     1207.82
loop_
_atom_site_label
_atom_site_type_symbol
_atom_site_fract_x
_atom_site_fract_y
_atom_site_fract_z
La1 La 0.751538(17) -0.15041(2) -0.241357(10)
O1 O 0.6880(3) 0.1759(4) -0.2288(2)
H1 H 0.710(5) 0.269(5) -0.245(3)
H2 H 0.613(4) 0.200(6) -0.216(3)
O2 O 0.8110(3) 0.0566(4) -0.34316(16)
H3 H 0.774(4) 0.078(7) -0.3957(18)
H4 H 0.894(3) 0.097(7) -0.321(3)
O3 O 0.6318(2) -0.4452(4) -0.24261(15)
H5 H 0.556(3) -0.475(6) -0.282(2)
H6 H 0.617(4) -0.476(6) -0.1982(18)
O4 O 0.8918(3) -0.3313(3) -0.10793(16)
H7 H 0.951(4) -0.296(5) -0.063(2)
H8 H 0.896(4) -0.443(3) -0.099(3)
O5 O 0.4943(2) -0.1240(3) -0.35151(14)
O6 O 0.3286(2) -0.1391(3) -0.48426(14)
O7 O 0.9341(2) -0.3367(4) -0.26921(15)
O8 O 1.0200(2) -0.4895(3) -0.35127(14)
O9 O 0.6162(2) -0.4057(3) -0.64717(13)
N1 N 0.6850(3) -0.2895(4) -0.39452(16)
C1 C 0.5592(3) -0.2534(5) -0.45901(19)
C2 C 0.5318(3) -0.2923(4) -0.54424(19)
H9 H 0.4429 -0.2661 -0.5864
C3 C 0.6367(3) -0.3710(4) -0.56726(19)
C4 C 0.7660(3) -0.4135(5) -0.4986(2)
H10 H 0.8381 -0.4709 -0.5096
C5 C 0.7848(3) -0.3701(4) -0.4155(2)
C6 C 0.4508(3) -0.1652(4) -0.43091(19)
C7 C 0.9239(3) -0.4028(5) -0.3400(2)
La1A La 1.248462(17) -0.65041(2) -0.258643(10)
La1C La 0.751538(17) -0.34959(2) -0.741357(10)
O8A O 0.9800(2) 0.0105(3) -0.14873(14)
O9C O 0.6162(2) -0.0943(3) -0.14717(13)
O10 O 0.9020(3) 0.3187(4) -0.05851(18)
H11 H 0.882(4) 0.245(5) -0.098(2)
H12 H 0.823(3) 0.325(6) -0.051(3)
loop_
_geom_bond_atom_site_label_1
_geom_bond_atom_site_label_2
_geom_bond_site_symmetry_1
_geom_bond_site_symmetry_2
La1 O1 1_555 1_555
O1 H1 1_555 1_555
H2 O1 1_555 1_555
O2 La1 1_555 1_555
H3 O2 1_555 1_555
H4 O2 1_555 1_555
O3 La1 1_555 1_555
H5 O3 1_555 1_555
H6 O3 1_555 1_555
O4 La1 1_555 1_555
H7 O4 1_555 1_555
H8 O4 1_555 1_555
O5 La1 1_555 1_555
O6 C6 1_555 1_555
O7 La1 1_555 1_555
O8 C7 1_555 1_555
O9 C3 1_555 1_555
N1 La1 1_555 1_555
C1 N1 1_555 1_555
C2 C1 1_555 1_555
H9 C2 1_555 1_555
C3 C2 1_555 1_555
C4 C3 1_555 1_555
H10 C4 1_555 1_555
C5 N1 1_555 1_555
C6 O5 1_555 1_555
C7 O7 1_555 1_555
O10 H11 1_555 1_555
H12 O10 1_555 1_555
La1A O8 1_555 1_555
La1C O9 1_555 1_555
O8A La1 1_555 1_555
O9C La1 1_555 1_555
C1 C6 1_555 1_555
C4 C5 1_555 1_555
C5 C7 1_555 1_555

#END
