
#######################################################################
#
#                 Cambridge Crystallographic Data Centre
#                                CCDC 
#
#######################################################################
#
# If this CIF has been generated from an entry in the Cambridge 
# Structural Database, then it will include bibliographic, chemical, 
# crystal, experimental, refinement or atomic coordinate data resulting 
# from the CCDC's data processing and validation procedures.
#
#######################################################################

data_EHOMAQ
_symmetry_cell_setting           monoclinic
_symmetry_space_group_name_H-M   'C 2/c'
_symmetry_Int_Tables_number      15
_space_group_name_Hall           '-C 2yn'
loop_
_symmetry_equiv_pos_site_id
_symmetry_equiv_pos_as_xyz
1 x,y,z
2 -x,y,1/2-z
3 1/2+x,1/2+y,z
4 1/2-x,1/2+y,1/2-z
5 -x,-y,-z
6 x,-y,1/2+z
7 1/2-x,1/2-y,-z
8 1/2+x,1/2-y,1/2+z
_cell_length_a                   23.870(11)
_cell_length_b                   9.887(4)
_cell_length_c                   18.929(9)
_cell_angle_alpha                90
_cell_angle_beta                 126.840(5)
_cell_angle_gamma                90
_cell_volume                     3575.23
loop_
_atom_site_label
_atom_site_type_symbol
_atom_site_fract_x
_atom_site_fract_y
_atom_site_fract_z
Zn1 Zn 0.76621(3) 0.47207(6) 0.32832(4)
N1 N 0.86751(19) 0.4630(4) 0.3640(2)
N2 N 1.0011(2) 0.4077(5) 0.4152(3)
N3 N 0.80066(18) 0.6099(4) 0.4324(2)
N4 N 0.8656(3) 0.8153(4) 0.5561(3)
N5 N 0.66801(19) 0.4542(4) 0.2972(3)
O1 O 0.80489(17) 0.3065(3) 0.4107(2)
O2 O 0.88991(19) 0.1511(4) 0.4686(3)
O3 O 0.74439(17) 0.6562(3) 0.2632(2)
O4 O 0.76755(17) 0.8782(3) 0.2888(2)
C1 C 0.8621(3) 0.2587(5) 0.4306(3)
C2 C 0.9007(2) 0.3499(5) 0.4079(3)
C3 C 0.9664(3) 0.3229(5) 0.4317(4)
H1 H 0.9878 0.2420 0.4607
C4 C 0.9682(3) 0.5205(5) 0.3727(3)
C5 C 0.9012(2) 0.5470(5) 0.3462(3)
H2 H 0.8790 0.6260 0.3150
C6 C 1.0041(3) 0.6197(6) 0.3517(4)
H3 H 1.0151 0.7005 0.3858
H4 H 0.9737 0.6417 0.2899
H5 H 1.0465 0.5803 0.3658
C7 C 0.7691(2) 0.7589(5) 0.3116(3)
C8 C 0.8043(2) 0.7363(5) 0.4097(3)
C9 C 0.8375(3) 0.8371(5) 0.4712(3)
H6 H 0.8405 0.9229 0.4536
C10 C 0.8586(3) 0.6910(5) 0.5784(3)
C11 C 0.8268(3) 0.5880(5) 0.5161(3)
H7 H 0.8238 0.5019 0.5335
C12 C 0.8880(3) 0.6676(6) 0.6728(3)
H8 H 0.9366 0.6924 0.7101
H9 H 0.8834 0.5737 0.6814
H10 H 0.8629 0.7215 0.6875
C13 C 0.6588(2) 0.4143(5) 0.3566(3)
H11 H 0.6981 0.3874 0.4117
C14 C 0.5950(2) 0.4101(5) 0.3422(3)
H12 H 0.5920 0.3829 0.3868
C15 C 0.5352(2) 0.4472(5) 0.2598(3)
C16 C 0.5437(3) 0.4867(5) 0.1958(3)
H13 H 0.5051 0.5109 0.1395
C17 C 0.6104(3) 0.4895(5) 0.2172(3)
H14 H 0.6155 0.5169 0.1744
Zn1C Zn 0.73379(3) -0.02793(6) 0.17168(4)
Zn1C_2 Zn 0.73379(3) 0.97207(6) 0.17168(4)
Zn1A Zn 0.23379(3) 0.47207(6) 0.17168(4)
N1C N 0.63249(19) -0.0370(4) 0.1360(2)
N2C N 0.4989(2) -0.0923(5) 0.0848(3)
N3C N 0.69934(18) 0.1099(4) 0.0676(2)
N4C N 0.6344(3) 0.3153(4) -0.0561(3)
N5A N 0.33199(19) 0.4542(4) 0.2028(3)
N5C N 0.83199(19) -0.0458(4) 0.2028(3)
O1C O 0.69511(17) -0.1935(3) 0.0893(2)
O2C O 0.61009(19) -0.3489(4) 0.0314(3)
O3C O 0.75561(17) 0.1562(3) 0.2368(2)
O4C O 0.73245(17) 0.3782(3) 0.2112(2)
O4_2 O 0.76755(17) -0.1218(3) 0.2888(2)
C1C C 0.6379(3) -0.2413(5) 0.0694(3)
C2C C 0.5993(2) -0.1501(5) 0.0921(3)
C3C C 0.5336(3) -0.1771(5) 0.0683(4)
H1C H 0.5122 -0.2580 0.0393
C4C C 0.5318(3) 0.0205(5) 0.1273(3)
C5C C 0.5988(2) 0.0470(5) 0.1538(3)
H2C H 0.6210 0.1260 0.1850
C6C C 0.4959(3) 0.1197(6) 0.1483(4)
H3C H 0.4849 0.2005 0.1142
H4C H 0.5263 0.1417 0.2101
H5C H 0.4535 0.0803 0.1342
C7C C 0.7309(2) 0.2589(5) 0.1884(3)
C8C C 0.6957(2) 0.2363(5) 0.0903(3)
C9C C 0.6625(3) 0.3371(5) 0.0288(3)
H6C H 0.6595 0.4229 0.0464
C10C C 0.6414(3) 0.1910(5) -0.0784(3)
C11C C 0.6732(3) 0.0880(5) -0.0161(3)
H7C H 0.6762 0.0019 -0.0335
C12C C 0.6120(3) 0.1676(6) -0.1728(3)
H8C H 0.5634 0.1924 -0.2101
H9C H 0.6166 0.0737 -0.1814
H10C H 0.6371 0.2215 -0.1875
C13A C 0.3412(2) 0.4143(5) 0.1434(3)
H11A H 0.3019 0.3874 0.0883
C14A C 0.4050(2) 0.4101(5) 0.1578(3)
H12A H 0.4080 0.3829 0.1132
C15A C 0.4648(2) 0.4472(5) 0.2402(3)
C16A C 0.4563(3) 0.4867(5) 0.3042(3)
H13A H 0.4949 0.5109 0.3605
C17A C 0.3896(3) 0.4895(5) 0.2828(3)
H14A H 0.3845 0.5169 0.3256
O5 O 0.7150(2) 0.0855(5) 0.3686(3)
H15 H 0.7397 0.1563 0.3819
H16 H 0.7237 0.0364 0.3394
loop_
_geom_bond_atom_site_label_1
_geom_bond_atom_site_label_2
_geom_bond_site_symmetry_1
_geom_bond_site_symmetry_2
Zn1 N1 1_555 1_555
N1 C2 1_555 1_555
N2 C3 1_555 1_555
N3 Zn1 1_555 1_555
N4 C9 1_555 1_555
N5 Zn1 1_555 1_555
O1 Zn1 1_555 1_555
O2 C1 1_555 1_555
O3 Zn1 1_555 1_555
O4 C7 1_555 1_555
C1 O1 1_555 1_555
C2 C1 1_555 1_555
C3 C2 1_555 1_555
H1 C3 1_555 1_555
C4 N2 1_555 1_555
C5 N1 1_555 1_555
H2 C5 1_555 1_555
C6 C4 1_555 1_555
H3 C6 1_555 1_555
H4 C6 1_555 1_555
H5 C6 1_555 1_555
C7 O3 1_555 1_555
C8 N3 1_555 1_555
C9 C8 1_555 1_555
H6 C9 1_555 1_555
C10 N4 1_555 1_555
C11 N3 1_555 1_555
H7 C11 1_555 1_555
C12 C10 1_555 1_555
H8 C12 1_555 1_555
H9 C12 1_555 1_555
H10 C12 1_555 1_555
C13 N5 1_555 1_555
H11 C13 1_555 1_555
C14 C13 1_555 1_555
H12 C14 1_555 1_555
C15 C14 1_555 1_555
C16 C15 1_555 1_555
H13 C16 1_555 1_555
C17 N5 1_555 1_555
H14 C17 1_555 1_555
O5 H15 1_555 1_555
H16 O5 1_555 1_555
Zn1C N1C 1_555 1_555
Zn1C_2 O4 1_555 1_555
Zn1A N5A 1_555 1_555
N1C C2C 1_555 1_555
N2C C3C 1_555 1_555
N3C Zn1C 1_555 1_555
N4C C9C 1_555 1_555
N5A C13A 1_555 1_555
N5C Zn1C 1_555 1_555
O1C Zn1C 1_555 1_555
O2C C1C 1_555 1_555
O3C Zn1C 1_555 1_555
O4C Zn1 1_555 1_555
O4_2 Zn1C 1_555 1_555
C1C O1C 1_555 1_555
C2C C1C 1_555 1_555
C3C C2C 1_555 1_555
H1C C3C 1_555 1_555
C4C N2C 1_555 1_555
C5C N1C 1_555 1_555
H2C C5C 1_555 1_555
C6C C4C 1_555 1_555
H3C C6C 1_555 1_555
H4C C6C 1_555 1_555
H5C C6C 1_555 1_555
C7C O3C 1_555 1_555
C8C N3C 1_555 1_555
C9C C8C 1_555 1_555
H6C C9C 1_555 1_555
C10C N4C 1_555 1_555
C11C N3C 1_555 1_555
H7C C11C 1_555 1_555
C12C C10C 1_555 1_555
H8C C12C 1_555 1_555
H9C C12C 1_555 1_555
H10C C12C 1_555 1_555
C13A H11A 1_555 1_555
C14A C13A 1_555 1_555
H12A C14A 1_555 1_555
C15A C15 1_555 1_555
C16A C15A 1_555 1_555
H13A C16A 1_555 1_555
C17A N5A 1_555 1_555
H14A C17A 1_555 1_555
C4 C5 1_555 1_555
C7 C8 1_555 1_555
C10 C11 1_555 1_555
C16 C17 1_555 1_555
O4C C7C 1_555 1_555
C4C C5C 1_555 1_555
C7C C8C 1_555 1_555
C10C C11C 1_555 1_555
C14A C15A 1_555 1_555
C16A C17A 1_555 1_555

#END
