
#######################################################################
#
#                 Cambridge Crystallographic Data Centre
#                                CCDC 
#
#######################################################################
#
# If this CIF has been generated from an entry in the Cambridge 
# Structural Database, then it will include bibliographic, chemical, 
# crystal, experimental, refinement or atomic coordinate data resulting 
# from the CCDC's data processing and validation procedures.
#
#######################################################################

data_EHOMEU
_symmetry_cell_setting           monoclinic
_symmetry_space_group_name_H-M   'P 21/m'
_symmetry_Int_Tables_number      11
_space_group_name_Hall           '-P 2yb'
loop_
_symmetry_equiv_pos_site_id
_symmetry_equiv_pos_as_xyz
1 x,y,z
2 -x,1/2+y,-z
3 -x,-y,-z
4 x,1/2-y,z
_cell_length_a                   4.8645(10)
_cell_length_b                   21.101(4)
_cell_length_c                   8.0719(16)
_cell_angle_alpha                90
_cell_angle_beta                 96.05(3)
_cell_angle_gamma                90
_cell_volume                     823.932
loop_
_atom_site_label
_atom_site_type_symbol
_atom_site_fract_x
_atom_site_fract_y
_atom_site_fract_z
Cu1 Cu 0.08430(10) 0.2500 0.87228(6)
S1 S 0.47557(19) 0.2500 0.61663(11)
O1 O 0.1746(6) 0.2500 0.6358(3)
O2 O 0.6280(6) 0.2500 0.7850(3)
O3 O 0.5403(4) 0.19242(10) 0.5252(3)
O4 O 0.0491(7) 0.2500 1.1126(4)
N1 N -0.0828(5) 0.12434(12) 0.7615(3)
H1 H -0.2094 0.1420 0.6946
N2 N 0.0979(5) 0.15654(12) 0.8707(3)
C1 C -0.0390(6) 0.06166(15) 0.7711(4)
C2 C 0.1805(7) 0.05273(15) 0.8913(4)
H2 H 0.2593 0.0142 0.9265
C3 C 0.4917(6) 0.13093(16) 1.0785(4)
H3 H 0.4954 0.1761 1.0917
H4 H 0.6643 0.1168 1.0439
H5 H 0.4632 0.1113 1.1827
C4 C 0.2613(6) 0.11298(15) 0.9497(4)
C5 C -0.2150(7) 0.01611(17) 0.6660(4)
H6 H -0.3502 0.0391 0.5944
H7 H -0.3070 -0.0117 0.7364
H8 H -0.1013 -0.0083 0.5997
H9 H 0.0326 0.2832 1.1806
Cu1_2 Cu 1.08430(10) 0.2500 0.87228(6)
O2_2 O -0.3720(6) 0.2500 0.7850(3)
O3C O 0.5403(4) 0.30758(10) 0.5252(3)
N1C N -0.0828(5) 0.37566(12) 0.7615(3)
H1C H -0.2094 0.3580 0.6946
N2C N 0.0979(5) 0.34346(12) 0.8707(3)
C1C C -0.0390(6) 0.43834(15) 0.7711(4)
C2C C 0.1805(7) 0.44727(15) 0.8913(4)
H2C H 0.2593 0.4858 0.9265
C3C C 0.4917(6) 0.36907(16) 1.0785(4)
H3C H 0.4954 0.3239 1.0917
H4C H 0.6643 0.3832 1.0439
H5C H 0.4632 0.3887 1.1827
C4C C 0.2613(6) 0.38702(15) 0.9497(4)
C5C C -0.2150(7) 0.48389(17) 0.6660(4)
H6C H -0.3502 0.4609 0.5944
H7C H -0.3070 0.5117 0.7364
H8C H -0.1013 0.5083 0.5997
H9C H 0.0326 0.2168 1.1806
O5 O 0.9953(5) -0.15813(11) -0.3440(3)
H10 H 1.1344 -0.1708 -0.3947
H11 H 0.8680 -0.1663 -0.4042
loop_
_geom_bond_atom_site_label_1
_geom_bond_atom_site_label_2
_geom_bond_site_symmetry_1
_geom_bond_site_symmetry_2
Cu1 O1 1_555 1_555
S1 O1 1_555 1_555
O2 S1 1_555 1_555
O3 S1 1_555 1_555
O4 Cu1 1_555 1_555
N1 H1 1_555 1_555
N2 Cu1 1_555 1_555
C1 N1 1_555 1_555
C2 C1 1_555 1_555
H2 C2 1_555 1_555
C3 H3 1_555 1_555
H4 C3 1_555 1_555
H5 C3 1_555 1_555
C4 N2 1_555 1_555
C5 C1 1_555 1_555
H6 C5 1_555 1_555
H7 C5 1_555 1_555
H8 C5 1_555 1_555
H9 O4 1_555 1_555
O5 H10 1_555 1_555
H11 O5 1_555 1_555
Cu1_2 O2 1_555 1_555
O2_2 Cu1 1_555 1_555
O3C S1 1_555 1_555
N1C H1C 1_555 1_555
N2C Cu1 1_555 1_555
C1C N1C 1_555 1_555
C2C C1C 1_555 1_555
H2C C2C 1_555 1_555
C3C H3C 1_555 1_555
H4C C3C 1_555 1_555
H5C C3C 1_555 1_555
C4C N2C 1_555 1_555
C5C C1C 1_555 1_555
H6C C5C 1_555 1_555
H7C C5C 1_555 1_555
H8C C5C 1_555 1_555
H9C O4 1_555 1_555
N1 N2 1_555 1_555
C2 C4 1_555 1_555
C3 C4 1_555 1_555
N1C N2C 1_555 1_555
C2C C4C 1_555 1_555
C3C C4C 1_555 1_555

#END
