
#######################################################################
#
#                 Cambridge Crystallographic Data Centre
#                                CCDC 
#
#######################################################################
#
# If this CIF has been generated from an entry in the Cambridge 
# Structural Database, then it will include bibliographic, chemical, 
# crystal, experimental, refinement or atomic coordinate data resulting 
# from the CCDC's data processing and validation procedures.
#
#######################################################################

data_EHOQOH01
_symmetry_cell_setting           triclinic
_symmetry_space_group_name_H-M   'P -1'
_symmetry_Int_Tables_number      2
_space_group_name_Hall           '-P 1'
loop_
_symmetry_equiv_pos_site_id
_symmetry_equiv_pos_as_xyz
1 x,y,z
2 -x,-y,-z
_cell_length_a                   6.71(4)
_cell_length_b                   8.15(11)
_cell_length_c                   7.98(7)
_cell_angle_alpha                110.6(11)
_cell_angle_beta                 108.1(13)
_cell_angle_gamma                99.2(10)
_cell_volume                     370.083
loop_
_atom_site_label
_atom_site_type_symbol
_atom_site_fract_x
_atom_site_fract_y
_atom_site_fract_z
Fe1 Fe 0.0000 1.0000 1.0000
Cu1 Cu 0.5183(2) 0.6301(2) 1.1527(2)
N1 N 0.2437(16) 0.8943(17) 1.1305(15)
C1 C 0.3572(18) 0.8107(19) 1.1566(16)
N2 N 0.2515(15) 1.2495(16) 1.0819(14)
C2 C 0.3575(18) 1.374(2) 1.0902(16)
N3 N 0.0272(15) 0.8615(16) 0.7115(13)
C3 C 0.2028(17) 0.8117(18) 0.6941(16)
H1 H 0.3332 0.8474 0.8063
C4 C 0.1916(19) 0.706(2) 0.5090(17)
H2 H 0.3139 0.6690 0.4925
N4 N -0.1741(15) 0.7132(16) 0.3712(14)
C5 C 0.0007(18) 0.6584(19) 0.3515(17)
H3 H -0.0096 0.5846 0.2251
C6 C -0.1477(19) 0.812(2) 0.5538(17)
H4 H -0.2689 0.8511 0.5710
Cu1A Cu -0.5183(2) 1.3699(2) 0.8473(2)
Cu1_2 Cu 0.5183(2) 1.6301(2) 1.1527(2)
Cu1_3 Cu -0.4817(2) 0.6301(2) 0.1527(2)
Cu1A_2 Cu -0.5183(2) 0.3699(2) 0.8473(2)
Cu1A_3 Cu 0.4817(2) 1.3699(2) 1.8473(2)
N1A N -0.2437(16) 1.1057(17) 0.8695(15)
C1A C -0.3572(18) 1.1893(19) 0.8434(16)
N2A N -0.2515(15) 0.7505(16) 0.9181(14)
C2A C -0.3575(18) 0.626(2) 0.9098(16)
C2_2 C 0.3575(18) 0.374(2) 1.0902(16)
C2A_2 C -0.3575(18) 1.626(2) 0.9098(16)
N3A N -0.0272(15) 1.1385(16) 1.2885(13)
C3A C -0.2028(17) 1.1883(18) 1.3059(16)
H1A H -0.3332 1.1526 1.1937
C4A C -0.1916(19) 1.294(2) 1.4910(17)
H2A H -0.3139 1.3310 1.5075
N4A N 0.1741(15) 1.2868(16) 1.6288(14)
N4_2 N 0.8259(15) 0.7132(16) 1.3712(14)
N4A_2 N -0.8259(15) 1.2868(16) 0.6288(14)
C5A C -0.0007(18) 1.3416(19) 1.6485(17)
H3A H 0.0096 1.4154 1.7749
C6A C 0.1477(19) 1.188(2) 1.4462(17)
H4A H 0.2689 1.1489 1.4290
loop_
_geom_bond_atom_site_label_1
_geom_bond_atom_site_label_2
_geom_bond_site_symmetry_1
_geom_bond_site_symmetry_2
Fe1 N1 1_555 1_555
Cu1 C1 1_555 1_555
N1 C1 1_555 1_555
N2 Fe1 1_555 1_555
C2 N2 1_555 1_555
N3 Fe1 1_555 1_555
C3 N3 1_555 1_555
H1 C3 1_555 1_555
C4 C3 1_555 1_555
H2 C4 1_555 1_555
N4 C5 1_555 1_555
C5 C4 1_555 1_555
H3 C5 1_555 1_555
C6 N3 1_555 1_555
H4 C6 1_555 1_555
Cu1A C1A 1_555 1_555
Cu1_2 C2 1_555 1_555
Cu1_3 N4 1_555 1_555
Cu1A_2 C2A 1_555 1_555
Cu1A_3 N4A 1_555 1_555
N1A Fe1 1_555 1_555
C1A N1A 1_555 1_555
N2A Fe1 1_555 1_555
C2A N2A 1_555 1_555
C2_2 Cu1 1_555 1_555
C2A_2 Cu1A 1_555 1_555
N3A Fe1 1_555 1_555
C3A N3A 1_555 1_555
H1A C3A 1_555 1_555
C4A C3A 1_555 1_555
H2A C4A 1_555 1_555
N4A C5A 1_555 1_555
N4_2 Cu1 1_555 1_555
N4A_2 Cu1A 1_555 1_555
C5A C4A 1_555 1_555
H3A C5A 1_555 1_555
C6A N3A 1_555 1_555
H4A C6A 1_555 1_555
N4 C6 1_555 1_555
N4A C6A 1_555 1_555

#END
