
#######################################################################
#
#                 Cambridge Crystallographic Data Centre
#                                CCDC 
#
#######################################################################
#
# If this CIF has been generated from an entry in the Cambridge 
# Structural Database, then it will include bibliographic, chemical, 
# crystal, experimental, refinement or atomic coordinate data resulting 
# from the CCDC's data processing and validation procedures.
#
#######################################################################

data_EHOQOH02
_symmetry_cell_setting           triclinic
_symmetry_space_group_name_H-M   'P -1'
_symmetry_Int_Tables_number      2
_space_group_name_Hall           '-P 1'
loop_
_symmetry_equiv_pos_site_id
_symmetry_equiv_pos_as_xyz
1 x,y,z
2 -x,-y,-z
_cell_length_a                   6.8434(13)
_cell_length_b                   7.7006(14)
_cell_length_c                   7.7696(15)
_cell_angle_alpha                109.077(4)
_cell_angle_beta                 108.194(4)
_cell_angle_gamma                99.021(4)
_cell_volume                     352.003
loop_
_atom_site_label
_atom_site_type_symbol
_atom_site_fract_x
_atom_site_fract_y
_atom_site_fract_z
Fe1 Fe 0.0000 1.0000 1.0000
N1 N 0.2126(7) 0.8816(5) 1.1088(6)
C1 C 0.3353(8) 0.8015(7) 1.1517(7)
Cu1 Cu 0.50912(10) 0.62546(8) 1.15683(9)
N2 N 0.2294(7) 1.2207(6) 1.0547(6)
C2 C 0.3513(8) 1.3543(7) 1.0777(7)
N3 N 0.0083(6) 0.8667(5) 0.7301(6)
C3 C 0.1880(8) 0.8365(7) 0.7059(7)
H1 H 0.3209 0.8842 0.8167
C4 C 0.1777(8) 0.7349(8) 0.5173(8)
H2 H 0.3028 0.7096 0.4987
N4 N -0.1939(7) 0.7075(6) 0.3834(6)
C5 C -0.0144(8) 0.6713(7) 0.3582(7)
H3 H -0.0219 0.6013 0.2293
C6 C -0.1741(8) 0.8030(7) 0.5694(7)
H4 H -0.2992 0.8274 0.5886
N1A N -0.2126(7) 1.1184(5) 0.8912(6)
C1A C -0.3353(8) 1.1985(7) 0.8483(7)
Cu1A Cu -0.50912(10) 1.37454(8) 0.84317(9)
Cu1_2 Cu 0.50912(10) 1.62546(8) 1.15683(9)
Cu1_3 Cu -0.49088(10) 0.62546(8) 0.15683(9)
Cu1A_2 Cu -0.50912(10) 0.37454(8) 0.84317(9)
Cu1A_3 Cu 0.49088(10) 1.37454(8) 1.84317(9)
N2A N -0.2294(7) 0.7793(6) 0.9453(6)
C2A C -0.3513(8) 0.6457(7) 0.9223(7)
C2_2 C 0.3513(8) 0.3543(7) 1.0777(7)
C2A_2 C -0.3513(8) 1.6457(7) 0.9223(7)
N3A N -0.0083(6) 1.1333(5) 1.2699(6)
C3A C -0.1880(8) 1.1635(7) 1.2941(7)
H1A H -0.3209 1.1158 1.1833
C4A C -0.1777(8) 1.2651(8) 1.4827(8)
H2A H -0.3028 1.2904 1.5013
N4A N 0.1939(7) 1.2925(6) 1.6166(6)
N4_2 N 0.8061(7) 0.7075(6) 1.3834(6)
N4A_2 N -0.8061(7) 1.2925(6) 0.6166(6)
C5A C 0.0144(8) 1.3287(7) 1.6418(7)
H3A H 0.0219 1.3987 1.7707
C6A C 0.1741(8) 1.1970(7) 1.4306(7)
H4A H 0.2992 1.1726 1.4114
loop_
_geom_bond_atom_site_label_1
_geom_bond_atom_site_label_2
_geom_bond_site_symmetry_1
_geom_bond_site_symmetry_2
Fe1 N1 1_555 1_555
N1 C1 1_555 1_555
C1 Cu1 1_555 1_555
Cu1 C2_2 1_555 1_555
N2 Fe1 1_555 1_555
C2 N2 1_555 1_555
N3 Fe1 1_555 1_555
C3 N3 1_555 1_555
H1 C3 1_555 1_555
C4 C3 1_555 1_555
H2 C4 1_555 1_555
N4 C5 1_555 1_555
C5 C4 1_555 1_555
H3 C5 1_555 1_555
C6 N3 1_555 1_555
H4 C6 1_555 1_555
N1A Fe1 1_555 1_555
C1A N1A 1_555 1_555
Cu1A C1A 1_555 1_555
Cu1_2 C2 1_555 1_555
Cu1_3 N4 1_555 1_555
Cu1A_2 C2A 1_555 1_555
Cu1A_3 N4A 1_555 1_555
N2A Fe1 1_555 1_555
C2A N2A 1_555 1_555
C2A_2 Cu1A 1_555 1_555
N3A Fe1 1_555 1_555
C3A N3A 1_555 1_555
H1A C3A 1_555 1_555
C4A C3A 1_555 1_555
H2A C4A 1_555 1_555
N4A C5A 1_555 1_555
N4_2 Cu1 1_555 1_555
N4A_2 Cu1A 1_555 1_555
C5A C4A 1_555 1_555
H3A C5A 1_555 1_555
C6A N3A 1_555 1_555
H4A C6A 1_555 1_555
N4 C6 1_555 1_555
N4A C6A 1_555 1_555

#END
