
#######################################################################
#
#                 Cambridge Crystallographic Data Centre
#                                CCDC 
#
#######################################################################
#
# If this CIF has been generated from an entry in the Cambridge 
# Structural Database, then it will include bibliographic, chemical, 
# crystal, experimental, refinement or atomic coordinate data resulting 
# from the CCDC's data processing and validation procedures.
#
#######################################################################

data_EHOQOH03
_symmetry_cell_setting           triclinic
_symmetry_space_group_name_H-M   'P -1'
_symmetry_Int_Tables_number      2
_space_group_name_Hall           '-P 1'
loop_
_symmetry_equiv_pos_site_id
_symmetry_equiv_pos_as_xyz
1 x,y,z
2 -x,-y,-z
_cell_length_a                   6.7584(12)
_cell_length_b                   8.0796(15)
_cell_length_c                   7.9862(15)
_cell_angle_alpha                110.102(3)
_cell_angle_beta                 108.500(4)
_cell_angle_gamma                99.272(4)
_cell_volume                     370.056
loop_
_atom_site_label
_atom_site_type_symbol
_atom_site_fract_x
_atom_site_fract_y
_atom_site_fract_z
Fe1 Fe 0.0000 1.0000 1.0000
Cu1 Cu 0.51621(8) 0.62957(6) 1.15219(7)
N1 N 0.2414(5) 0.8921(4) 1.1278(5)
C1 C 0.3544(6) 0.8068(5) 1.1557(5)
N2 N 0.2504(5) 1.2458(5) 1.0786(5)
C2 C 0.3588(6) 1.3736(5) 1.0895(6)
N3 N 0.0257(5) 0.8621(4) 0.7128(5)
C3 C 0.1992(7) 0.8120(6) 0.6909(6)
H1 H 0.3300 0.8469 0.8025
C4 C 0.1900(7) 0.7105(6) 0.5084(6)
H2 H 0.3130 0.6760 0.4924
N4 N -0.1761(5) 0.7120(4) 0.3706(4)
C5 C -0.0029(6) 0.6608(6) 0.3503(6)
H3 H -0.0137 0.5884 0.2237
C6 C -0.1516(6) 0.8110(5) 0.5512(6)
H4 H -0.2730 0.8492 0.5665
Cu1A Cu -0.51621(8) 1.37043(6) 0.84781(7)
Cu1_2 Cu 0.51621(8) 1.62957(6) 1.15219(7)
Cu1_3 Cu -0.48379(8) 0.62957(6) 0.15219(7)
Cu1A_2 Cu -0.51621(8) 0.37043(6) 0.84781(7)
Cu1A_3 Cu 0.48379(8) 1.37043(6) 1.84781(7)
N1A N -0.2414(5) 1.1079(4) 0.8722(5)
C1A C -0.3544(6) 1.1932(5) 0.8443(5)
N2A N -0.2504(5) 0.7542(5) 0.9214(5)
C2A C -0.3588(6) 0.6264(5) 0.9105(6)
C2_2 C 0.3588(6) 0.3736(5) 1.0895(6)
C2A_2 C -0.3588(6) 1.6264(5) 0.9105(6)
N3A N -0.0257(5) 1.1379(4) 1.2872(5)
C3A C -0.1992(7) 1.1880(6) 1.3091(6)
H1A H -0.3300 1.1531 1.1975
C4A C -0.1900(7) 1.2895(6) 1.4916(6)
H2A H -0.3130 1.3240 1.5076
N4A N 0.1761(5) 1.2880(4) 1.6294(4)
N4_2 N 0.8239(5) 0.7120(4) 1.3706(4)
N4A_2 N -0.8239(5) 1.2880(4) 0.6294(4)
C5A C 0.0029(6) 1.3392(6) 1.6497(6)
H3A H 0.0137 1.4116 1.7763
C6A C 0.1516(6) 1.1890(5) 1.4488(6)
H4A H 0.2730 1.1508 1.4335
loop_
_geom_bond_atom_site_label_1
_geom_bond_atom_site_label_2
_geom_bond_site_symmetry_1
_geom_bond_site_symmetry_2
Fe1 N1 1_555 1_555
Cu1 C1 1_555 1_555
N1 C1 1_555 1_555
N2 Fe1 1_555 1_555
C2 N2 1_555 1_555
N3 Fe1 1_555 1_555
C3 N3 1_555 1_555
H1 C3 1_555 1_555
C4 C3 1_555 1_555
H2 C4 1_555 1_555
N4 C5 1_555 1_555
C5 C4 1_555 1_555
H3 C5 1_555 1_555
C6 N3 1_555 1_555
H4 C6 1_555 1_555
Cu1A C1A 1_555 1_555
Cu1_2 C2 1_555 1_555
Cu1_3 N4 1_555 1_555
Cu1A_2 C2A 1_555 1_555
Cu1A_3 N4A 1_555 1_555
N1A Fe1 1_555 1_555
C1A N1A 1_555 1_555
N2A Fe1 1_555 1_555
C2A N2A 1_555 1_555
C2_2 Cu1 1_555 1_555
C2A_2 Cu1A 1_555 1_555
N3A Fe1 1_555 1_555
C3A N3A 1_555 1_555
H1A C3A 1_555 1_555
C4A C3A 1_555 1_555
H2A C4A 1_555 1_555
N4A C5A 1_555 1_555
N4_2 Cu1 1_555 1_555
N4A_2 Cu1A 1_555 1_555
C5A C4A 1_555 1_555
H3A C5A 1_555 1_555
C6A N3A 1_555 1_555
H4A C6A 1_555 1_555
N4 C6 1_555 1_555
N4A C6A 1_555 1_555

#END
