
#######################################################################
#
#                 Cambridge Crystallographic Data Centre
#                                CCDC 
#
#######################################################################
#
# If this CIF has been generated from an entry in the Cambridge 
# Structural Database, then it will include bibliographic, chemical, 
# crystal, experimental, refinement or atomic coordinate data resulting 
# from the CCDC's data processing and validation procedures.
#
#######################################################################

data_EHOQOH
_symmetry_cell_setting           triclinic
_symmetry_space_group_name_H-M   'P -1'
_symmetry_Int_Tables_number      2
_space_group_name_Hall           '-P 1'
loop_
_symmetry_equiv_pos_site_id
_symmetry_equiv_pos_as_xyz
1 x,y,z
2 -x,-y,-z
_cell_length_a                   6.8020(4)
_cell_length_b                   8.0470(3)
_cell_length_c                   8.0650(4)
_cell_angle_alpha                110.214(2)
_cell_angle_beta                 99.134(2)
_cell_angle_gamma                108.733(2)
_cell_volume                     373.806
loop_
_atom_site_label
_atom_site_type_symbol
_atom_site_fract_x
_atom_site_fract_y
_atom_site_fract_z
Fe1 Fe 0.0000 0.0000 0.0000
Cu1 Cu 0.48467(8) 0.84812(7) 0.36978(8)
N1 N 0.1780(6) 0.6286(5) 0.2882(5)
C1 C -0.3580(7) -0.0913(6) -0.3704(7)
C2 C -0.3516(7) -0.1549(6) 0.1916(7)
N2 N -0.0227(6) 0.2870(5) 0.1392(5)
N3 N -0.2538(6) -0.0788(5) -0.2495(7)
N4 N -0.2404(6) -0.1266(5) 0.1096(6)
C3 C 0.1534(7) 0.4468(6) 0.1908(6)
H1 H 0.2726 0.4315 0.1558
C4 C -0.1946(7) 0.3098(6) 0.1857(7)
H2 H -0.3227 0.2010 0.1501
C5 C -0.1873(8) 0.4905(7) 0.2852(9)
H3 H -0.3076 0.5058 0.3181
C6 C 0.0044(7) 0.6471(6) 0.3340(7)
H4 H 0.0132 0.7706 0.4015
N1A N -0.1780(6) -0.6286(5) -0.2882(5)
N2A N 0.0227(6) -0.2870(5) -0.1392(5)
C3A C -0.1534(7) -0.4468(6) -0.1908(6)
H1A H -0.2726 -0.4315 -0.1558
C4A C 0.1946(7) -0.3098(6) -0.1857(7)
H2A H 0.3227 -0.2010 -0.1501
C5A C 0.1873(8) -0.4905(7) -0.2852(9)
H3A H 0.3076 -0.5058 -0.3181
C6A C -0.0044(7) -0.6471(6) -0.3340(7)
H4A H -0.0132 -0.7706 -0.4015
C1A C 0.3580(7) 0.0913(6) 0.3704(7)
N3A N 0.2538(6) 0.0788(5) 0.2495(7)
C2A C 0.3516(7) 0.1549(6) -0.1916(7)
N4A N 0.2404(6) 0.1266(5) -0.1096(6)
Cu1A Cu -0.48467(8) -0.84812(7) -0.36978(8)
C1_2 C 0.6420(7) 0.9087(6) 0.6296(7)
C2_2 C 0.6484(7) 0.8451(6) 0.1916(7)
Cu1_2 Cu -0.51533(8) -0.15188(7) -0.63022(8)
Cu1_3 Cu -0.51533(8) -0.15188(7) 0.36978(8)
Cu1A_2 Cu 0.51533(8) 0.15188(7) 0.63022(8)
Cu1A_3 Cu 0.51533(8) 0.15188(7) -0.36978(8)
C1A_2 C -0.6420(7) -0.9087(6) -0.6296(7)
C2A_2 C -0.6484(7) -0.8451(6) -0.1916(7)
loop_
_geom_bond_atom_site_label_1
_geom_bond_atom_site_label_2
_geom_bond_site_symmetry_1
_geom_bond_site_symmetry_2
Fe1 N2 1_555 1_555
Cu1 N1 1_555 1_555
N1 C3 1_555 1_555
C1 N3 1_555 1_555
C2 N4 1_555 1_555
N2 C3 1_555 1_555
N3 Fe1 1_555 1_555
N4 Fe1 1_555 1_555
C3 H1 1_555 1_555
C4 N2 1_555 1_555
H2 C4 1_555 1_555
C5 C4 1_555 1_555
H3 C5 1_555 1_555
C6 N1 1_555 1_555
H4 C6 1_555 1_555
N1A C3A 1_555 1_555
N2A Fe1 1_555 1_555
C3A N2A 1_555 1_555
H1A C3A 1_555 1_555
C4A N2A 1_555 1_555
H2A C4A 1_555 1_555
C5A C4A 1_555 1_555
H3A C5A 1_555 1_555
C6A N1A 1_555 1_555
H4A C6A 1_555 1_555
C1A N3A 1_555 1_555
N3A Fe1 1_555 1_555
C2A N4A 1_555 1_555
N4A Fe1 1_555 1_555
Cu1A N1A 1_555 1_555
C1_2 Cu1 1_555 1_555
C2_2 Cu1 1_555 1_555
Cu1_2 C1 1_555 1_555
Cu1_3 C2 1_555 1_555
Cu1A_2 C1A 1_555 1_555
Cu1A_3 C2A 1_555 1_555
C1A_2 Cu1A 1_555 1_555
C2A_2 Cu1A 1_555 1_555
C5 C6 1_555 1_555
C5A C6A 1_555 1_555

#END
