
#######################################################################
#
#                 Cambridge Crystallographic Data Centre
#                                CCDC 
#
#######################################################################
#
# If this CIF has been generated from an entry in the Cambridge 
# Structural Database, then it will include bibliographic, chemical, 
# crystal, experimental, refinement or atomic coordinate data resulting 
# from the CCDC's data processing and validation procedures.
#
#######################################################################

data_EHOSID
_symmetry_cell_setting           hexagonal
_symmetry_space_group_name_H-M   'P 65 2 2'
_symmetry_Int_Tables_number      179
_space_group_name_Hall           "P 65 2' (0,0,1)"
loop_
_symmetry_equiv_pos_site_id
_symmetry_equiv_pos_as_xyz
1 x,y,z
2 -y,x-y,2/3+z
3 -x+y,-x,1/3+z
4 -x,-y,1/2+z
5 y,-x+y,1/6+z
6 x-y,x,5/6+z
7 y,x,2/3-z
8 x-y,-y,-z
9 -x,-x+y,1/3-z
10 -y,-x,1/6-z
11 -x+y,y,1/2-z
12 x,x-y,5/6-z
_cell_length_a                   15.2980(2)
_cell_length_b                   15.2980(2)
_cell_length_c                   18.6613(3)
_cell_angle_alpha                90
_cell_angle_beta                 90
_cell_angle_gamma                120
_cell_volume                     3782.18
loop_
_atom_site_label
_atom_site_type_symbol
_atom_site_fract_x
_atom_site_fract_y
_atom_site_fract_z
Gd1 Gd 0.272424(15) -0.45515(3) 0.2500
Mo1 Mo 0.12684(4) -0.72043(4) -0.02144(2)
O1 O 0.1708(3) -0.6062(4) 0.0655(2)
O2 O 0.2967(3) -0.5036(3) 0.1360(2)
O3 O 0.2707(3) -0.6675(3) -0.00734(18)
O4 O 0.2979(3) -0.7123(3) 0.13849(19)
O5 O 0.5035(3) -0.6212(4) 0.0174(2)
O6 O 0.4194(3) -0.7599(3) 0.0827(2)
O7 O 0.0709(4) -0.8157(4) 0.0393(2)
O8 O 0.1242(4) -0.7803(4) -0.0985(2)
O9 O 0.4453(4) -0.3955(5) 0.2752(3)
H1 H 0.4805 -0.3455 0.2507
H2 H 0.4627 -0.4275 0.3078
O10 O 0.2916(6) -0.5982(5) 0.2675(3)
H3 H 0.3372 -0.5936 0.2418
H4 H 0.2513 -0.6467 0.2986
O11 O 0.3655(5) -0.3086(4) 0.1735(3)
H5 H 0.4085 -0.3142 0.1510
H6 H 0.3491 -0.2597 0.1733
C1 C 0.2599(5) -0.5661(4) 0.0850(3)
C2 C 0.3272(5) -0.5945(5) 0.0452(3)
H7 H 0.3810 -0.5344 0.0216
C3 C 0.3745(5) -0.6353(5) 0.0979(3)
H8 H 0.4184 -0.5805 0.1305
C4 C 0.4381(5) -0.6748(6) 0.0618(3)
O1J O 0.2230(5) -0.6062(4) 0.4345(2)
O2J O 0.1997(4) -0.5036(3) 0.3640(2)
O3J O 0.0618(4) -0.6675(3) 0.50734(18)
O4J O -0.0102(4) -0.7123(3) 0.36151(19)
O5J O -0.1247(5) -0.6212(4) 0.4826(2)
O6J O -0.1793(4) -0.7599(3) 0.4173(2)
C1J C 0.1740(6) -0.5661(4) 0.4150(3)
C2J C 0.0783(7) -0.5945(5) 0.4548(3)
H7J H 0.0846 -0.5344 0.4784
C3J C -0.0098(7) -0.6353(5) 0.4021(3)
H8J H 0.0011 -0.5805 0.3695
C4J C -0.1129(8) -0.6748(6) 0.4382(3)
O9J O 0.1592(6) -0.3955(5) 0.2248(3)
H1J H 0.1740 -0.3455 0.2493
H2J H 0.1098 -0.4275 0.1922
O10J O 0.1102(8) -0.5982(5) 0.2325(3)
H3J H 0.0692 -0.5936 0.2582
H4J H 0.1020 -0.6467 0.2014
O11J O 0.3259(6) -0.3086(4) 0.3265(3)
H5J H 0.2773 -0.3142 0.3490
H6J H 0.3912 -0.2597 0.3267
Mo1J Mo 0.15273(6) -0.72043(4) 0.52144(2)
O7J O 0.1134(6) -0.8157(4) 0.4607(2)
O8J O 0.0955(6) -0.7803(4) 0.5985(2)
O4E O 0.0102(4) -0.7021(3) -0.02818(19)
O6E O 0.1793(4) -0.5806(3) -0.0840(2)
Mo1D Mo 0.27957(4) -0.84727(6) 0.14523(2)
Mo1H Mo -0.12684(4) -0.84727(6) 0.35477(2)
O4F O 0.2877(3) -0.7021(3) 0.52818(19)
O6F O 0.2401(3) -0.5806(3) 0.5840(2)
O12 O 0.5625(7) -0.5028(7) -0.0998(4)
O13 O 0.716(2) -0.1422(10) 0.4167
O14 O 0.6280(13) -0.2984(14) 0.3773(7)
O15 O 0.0329(11) -0.9836(6) -0.0833
N1 N 0.2197(5) -0.7803(5) 0.3333
loop_
_geom_bond_atom_site_label_1
_geom_bond_atom_site_label_2
_geom_bond_site_symmetry_1
_geom_bond_site_symmetry_2
Gd1 O2 1_555 1_555
Mo1 O1 1_555 1_555
O1 C1 1_555 1_555
O2 C1 1_555 1_555
O3 Mo1 1_555 1_555
O4 C3 1_555 1_555
O5 C4 1_555 1_555
O6 C4 1_555 1_555
O7 Mo1 1_555 1_555
O8 Mo1 1_555 1_555
O9 Gd1 1_555 1_555
H1 O9 1_555 1_555
H2 O9 1_555 1_555
O10 Gd1 1_555 1_555
H3 O10 1_555 1_555
H4 O10 1_555 1_555
O11 Gd1 1_555 1_555
H5 O11 1_555 1_555
H6 O11 1_555 1_555
C1 C2 1_555 1_555
C2 O3 1_555 1_555
H7 C2 1_555 1_555
C3 C2 1_555 1_555
H8 C3 1_555 1_555
C4 C3 1_555 1_555
O1J C1J 1_555 1_555
O2J Gd1 1_555 1_555
O3J C2J 1_555 1_555
O4J C3J 1_555 1_555
O5J C4J 1_555 1_555
O6J C4J 1_555 1_555
C1J O2J 1_555 1_555
C2J C1J 1_555 1_555
H7J C2J 1_555 1_555
C3J C2J 1_555 1_555
H8J C3J 1_555 1_555
C4J C3J 1_555 1_555
O9J Gd1 1_555 1_555
H1J O9J 1_555 1_555
H2J O9J 1_555 1_555
O10J Gd1 1_555 1_555
H3J O10J 1_555 1_555
H4J O10J 1_555 1_555
O11J Gd1 1_555 1_555
H5J O11J 1_555 1_555
H6J O11J 1_555 1_555
Mo1J O1J 1_555 1_555
O7J Mo1J 1_555 1_555
O8J Mo1J 1_555 1_555
O4E Mo1 1_555 1_555
O6E Mo1 1_555 1_555
Mo1D O4 1_555 1_555
Mo1H O4J 1_555 1_555
O4F Mo1J 1_555 1_555
O6F Mo1J 1_555 1_555
O6 Mo1D 1_555 1_555
O3J Mo1J 1_555 1_555
O6J Mo1H 1_555 1_555

#END
