
#######################################################################
#
#                 Cambridge Crystallographic Data Centre
#                                CCDC 
#
#######################################################################
#
# If this CIF has been generated from an entry in the Cambridge 
# Structural Database, then it will include bibliographic, chemical, 
# crystal, experimental, refinement or atomic coordinate data resulting 
# from the CCDC's data processing and validation procedures.
#
#######################################################################

data_EHOTAX
_symmetry_cell_setting           orthorhombic
_symmetry_space_group_name_H-M   'C 2 2 21'
_symmetry_Int_Tables_number      20
_space_group_name_Hall           'C 2n 2'
loop_
_symmetry_equiv_pos_site_id
_symmetry_equiv_pos_as_xyz
1 x,y,z
2 -x,-y,1/2+z
3 -x,y,1/2-z
4 x,-y,-z
5 1/2+x,1/2+y,z
6 1/2-x,1/2-y,1/2+z
7 1/2-x,1/2+y,1/2-z
8 1/2+x,1/2-y,-z
_cell_length_a                   7.8045(5)
_cell_length_b                   29.5212(18)
_cell_length_c                   20.1644(13)
_cell_angle_alpha                90
_cell_angle_beta                 90
_cell_angle_gamma                90
_cell_volume                     4645.84
loop_
_atom_site_label
_atom_site_type_symbol
_atom_site_fract_x
_atom_site_fract_y
_atom_site_fract_z
Pb1 Pb 0.71354(4) 0.762928(10) 0.542311(17)
C1 C 0.4784(13) 0.8375(3) 0.5197(6)
C2 C 0.3725(12) 0.8793(3) 0.5140(6)
C3 C 0.2303(13) 0.8796(3) 0.4757(6)
H1 H 0.2002 0.8532 0.4533
C4 C 0.1271(14) 0.9177(3) 0.4686(7)
H2 H 0.0307 0.9168 0.4415
C5 C 0.1689(12) 0.9565(3) 0.5017(6)
C6 C 0.3119(13) 0.9567(3) 0.5416(6)
H3 H 0.3413 0.9829 0.5645
C7 C 0.4134(13) 0.9180(3) 0.5481(6)
H4 H 0.5090 0.9184 0.5756
C8 C 0.0564(18) 1.0000 0.5000
C9 C -0.0551(14) 0.9974(4) 0.5626(9)
C10 C 0.9534(13) 0.7960(3) 0.3946(5)
C11 C 0.8372(11) 0.8271(3) 0.3590(5)
C12 C 0.8086(13) 0.8230(3) 0.2898(5)
H5 H 0.8623 0.7999 0.2663
C13 C 0.7039(14) 0.8524(3) 0.2573(5)
H6 H 0.6878 0.8494 0.2118
C14 C 0.6205(12) 0.8869(3) 0.2916(5)
C15 C 0.6478(15) 0.8919(3) 0.3588(5)
H7 H 0.5955 0.9154 0.3820
C16 C 0.7543(13) 0.8615(3) 0.3911(4)
H8 H 0.7701 0.8647 0.4366
C17 C 0.5000 0.9186(5) 0.2500
C18 C 0.389(2) 0.9492(4) 0.2901(7)
C19 C 1.0535(19) 0.7748(4) 0.6507(8)
H9 H 1.0458 0.7434 0.6485
C20 C 1.1925(18) 0.7929(4) 0.6837(7)
H10 H 1.2734 0.7739 0.7032
C21 C 1.2102(16) 0.8385(3) 0.6876(5)
C22 C 1.0878(16) 0.8639(4) 0.6582(7)
H11 H 1.0947 0.8953 0.6592
C23 C 0.9513(16) 0.8426(4) 0.6265(7)
H12 H 0.8676 0.8605 0.6067
C24 C 1.3552(17) 0.8615(4) 0.7206(7)
H13 H 1.3085 0.8799 0.7561
H14 H 1.4060 0.8821 0.6887
C25 C 1.5000 0.8328(6) 0.7500
H15 H 1.4534 0.8134 0.7844
F1 F -0.1304(11) 0.9568(2) 0.5691(5)
F2 F -0.1854(9) 1.0272(2) 0.5613(5)
F3 F 0.0292(11) 1.0047(3) 0.6180(5)
F4 F 0.4721(16) 0.9812(2) 0.3245(5)
F5 F 0.2699(15) 0.9702(3) 0.2536(5)
F6 F 0.2988(12) 0.9260(3) 0.3359(4)
N1 N 0.9355(11) 0.7976(3) 0.6233(5)
O1 O 0.5901(10) 0.8364(3) 0.5648(4)
O2 O 0.4531(11) 0.8050(2) 0.4816(5)
O3 O 0.9426(9) 0.7952(2) 0.4589(4)
O4 O 1.0567(9) 0.7721(2) 0.3616(4)
Pb1B Pb 2.28646(4) 0.762928(10) 0.957689(17)
Pb1G Pb 0.21354(4) 0.737072(10) 0.457689(17)
Pb1G_2 Pb 1.21354(4) 0.737072(10) 0.457689(17)
Pb1C Pb 0.71354(4) 1.237072(10) 0.457689(17)
Pb1D Pb 0.21354(4) 1.262928(10) 0.542311(17)
Pb1B_2 Pb 0.28646(4) 0.762928(10) -0.042311(17)
Pb1E Pb -0.21354(4) 0.737072(10) 0.042311(17)
C1C C 0.4784(13) 1.1625(3) 0.4803(6)
C2C C 0.3725(12) 1.1207(3) 0.4860(6)
C3C C 0.2303(13) 1.1204(3) 0.5243(6)
H1C H 0.2002 1.1468 0.5467
C4C C 0.1271(14) 1.0823(3) 0.5314(7)
H2C H 0.0307 1.0832 0.5585
C5C C 0.1689(12) 1.0435(3) 0.4983(6)
C6C C 0.3119(13) 1.0433(3) 0.4584(6)
H3C H 0.3413 1.0171 0.4355
C7C C 0.4134(13) 1.0820(3) 0.4519(6)
H4C H 0.5090 1.0816 0.4244
C9C C -0.0551(14) 1.0026(4) 0.4374(9)
C10B C 0.0466(13) 0.7960(3) 0.1054(5)
C11B C 0.1628(11) 0.8271(3) 0.1410(5)
C12B C 0.1914(13) 0.8230(3) 0.2102(5)
H5B H 0.1377 0.7999 0.2337
C13B C 0.2961(14) 0.8524(3) 0.2427(5)
H6B H 0.3122 0.8494 0.2882
C14B C 0.3795(12) 0.8869(3) 0.2084(5)
C15B C 0.3522(15) 0.8919(3) 0.1412(5)
H7B H 0.4045 0.9154 0.1180
C16B C 0.2457(13) 0.8615(3) 0.1089(4)
H8B H 0.2299 0.8647 0.0634
C18B C 0.611(2) 0.9492(4) 0.2099(7)
C19B C 1.9465(19) 0.7748(4) 0.8493(8)
H9B H 1.9542 0.7434 0.8515
C20B C 1.8075(18) 0.7929(4) 0.8163(7)
H10B H 1.7266 0.7739 0.7968
C21B C 1.7898(16) 0.8385(3) 0.8124(5)
C22B C 1.9122(16) 0.8639(4) 0.8418(7)
H11B H 1.9053 0.8953 0.8408
C23B C 2.0487(16) 0.8426(4) 0.8735(7)
H12B H 2.1324 0.8605 0.8933
C24B C 1.6448(17) 0.8615(4) 0.7794(7)
H13B H 1.6915 0.8799 0.7439
H14B H 1.5940 0.8821 0.8113
H15B H 1.5466 0.8134 0.7156
F1C F -0.1304(11) 1.0432(2) 0.4309(5)
F2C F -0.1854(9) 0.9728(2) 0.4387(5)
F3C F 0.0292(11) 0.9953(3) 0.3820(5)
F4B F 0.5279(16) 0.9812(2) 0.1755(5)
F5B F 0.7301(15) 0.9702(3) 0.2464(5)
F6B F 0.7012(12) 0.9260(3) 0.1641(4)
N1B N 2.0645(11) 0.7976(3) 0.8767(5)
O1C O 0.5901(10) 1.1636(3) 0.4352(4)
O1B O 2.4099(10) 0.8364(3) 0.9352(4)
O2C O 0.4531(11) 1.1950(2) 0.5184(5)
O2G O 0.9531(11) 0.6950(2) 0.5184(5)
O2B O 2.5469(11) 0.8050(2) 1.0184(5)
O2E O 2.0469(11) 0.6950(2) 0.9816(5)
O3B O 0.0574(9) 0.7952(2) 0.0411(4)
O3G O 0.4426(9) 0.7048(2) 0.5411(4)
O3B_2 O 2.0574(9) 0.7952(2) 1.0411(4)
O3E O 2.5574(9) 0.7048(2) 0.9589(4)
O4B O -0.0567(9) 0.7721(2) 0.1384(4)
O4G O 0.5567(9) 0.7279(2) 0.6384(4)
O4E O 2.4433(9) 0.7279(2) 0.8616(4)
loop_
_geom_bond_atom_site_label_1
_geom_bond_atom_site_label_2
_geom_bond_site_symmetry_1
_geom_bond_site_symmetry_2
Pb1 N1 1_555 1_555
C1 C2 1_555 1_555
C2 C3 1_555 1_555
C3 H1 1_555 1_555
C4 C3 1_555 1_555
H2 C4 1_555 1_555
C5 C4 1_555 1_555
C6 C5 1_555 1_555
H3 C6 1_555 1_555
C7 C2 1_555 1_555
H4 C7 1_555 1_555
C8 C5 1_555 1_555
C9 C8 1_555 1_555
C10 C11 1_555 1_555
C11 C12 1_555 1_555
C12 H5 1_555 1_555
C13 C12 1_555 1_555
H6 C13 1_555 1_555
C14 C13 1_555 1_555
C15 C14 1_555 1_555
H7 C15 1_555 1_555
C16 C11 1_555 1_555
H8 C16 1_555 1_555
C17 C14 1_555 1_555
C18 C17 1_555 1_555
C19 H9 1_555 1_555
C20 C19 1_555 1_555
H10 C20 1_555 1_555
C21 C20 1_555 1_555
C22 C21 1_555 1_555
H11 C22 1_555 1_555
C23 C22 1_555 1_555
H12 C23 1_555 1_555
C24 C21 1_555 1_555
H13 C24 1_555 1_555
H14 C24 1_555 1_555
C25 C24 1_555 1_555
H15 C25 1_555 1_555
F1 C9 1_555 1_555
F2 C9 1_555 1_555
F3 C9 1_555 1_555
F4 C18 1_555 1_555
F5 C18 1_555 1_555
F6 C18 1_555 1_555
N1 C19 1_555 1_555
O1 Pb1 1_555 1_555
O2 Pb1 1_555 1_555
O3 Pb1 1_555 1_555
O4 C10 1_555 1_555
Pb1B N1B 1_555 1_555
Pb1G O2 1_555 1_555
Pb1G_2 O3 1_555 1_555
Pb1C O1C 1_555 1_555
Pb1D O2C 1_555 1_555
Pb1B_2 O3B 1_555 1_555
Pb1E O3B 1_555 1_555
C1C C2C 1_555 1_555
C2C C3C 1_555 1_555
C3C H1C 1_555 1_555
C4C C3C 1_555 1_555
H2C C4C 1_555 1_555
C5C C8 1_555 1_555
C6C C5C 1_555 1_555
H3C C6C 1_555 1_555
C7C C2C 1_555 1_555
H4C C7C 1_555 1_555
C9C C8 1_555 1_555
C10B C11B 1_555 1_555
C11B C12B 1_555 1_555
C12B H5B 1_555 1_555
C13B C12B 1_555 1_555
H6B C13B 1_555 1_555
C14B C17 1_555 1_555
C15B C14B 1_555 1_555
H7B C15B 1_555 1_555
C16B C11B 1_555 1_555
H8B C16B 1_555 1_555
C18B C17 1_555 1_555
C19B H9B 1_555 1_555
C20B C19B 1_555 1_555
H10B C20B 1_555 1_555
C21B C20B 1_555 1_555
C22B C21B 1_555 1_555
H11B C22B 1_555 1_555
C23B C22B 1_555 1_555
H12B C23B 1_555 1_555
C24B C25 1_555 1_555
H13B C24B 1_555 1_555
H14B C24B 1_555 1_555
H15B C25 1_555 1_555
F1C C9C 1_555 1_555
F2C C9C 1_555 1_555
F3C C9C 1_555 1_555
F4B C18B 1_555 1_555
F5B C18B 1_555 1_555
F6B C18B 1_555 1_555
N1B C19B 1_555 1_555
O1C C1C 1_555 1_555
O1B Pb1B 1_555 1_555
O2C Pb1C 1_555 1_555
O2G Pb1 1_555 1_555
O2B Pb1B 1_555 1_555
O2E Pb1B 1_555 1_555
O3B C10B 1_555 1_555
O3G Pb1 1_555 1_555
O3B_2 Pb1B 1_555 1_555
O3E Pb1B 1_555 1_555
O4B Pb1E 1_555 1_555
O4G Pb1 1_555 1_555
O4E Pb1B 1_555 1_555
C1 O1 1_555 1_555
C1 O2 1_555 1_555
C6 C7 1_555 1_555
C10 O3 1_555 1_555
C15 C16 1_555 1_555
C23 N1 1_555 1_555
O4 Pb1G_2 1_555 1_555
Pb1G O3G 1_555 1_555
Pb1G_2 O2G 1_555 1_555
C1C O2C 1_555 1_555
C4C C5C 1_555 1_555
C6C C7C 1_555 1_555
C10B O4B 1_555 1_555
C13B C14B 1_555 1_555
C15B C16B 1_555 1_555
C21B C24B 1_555 1_555
C23B N1B 1_555 1_555

#END
