
#######################################################################
#
#                 Cambridge Crystallographic Data Centre
#                                CCDC 
#
#######################################################################
#
# If this CIF has been generated from an entry in the Cambridge 
# Structural Database, then it will include bibliographic, chemical, 
# crystal, experimental, refinement or atomic coordinate data resulting 
# from the CCDC's data processing and validation procedures.
#
#######################################################################

data_EHOVEC
_symmetry_cell_setting           monoclinic
_symmetry_space_group_name_H-M   'C 2'
_symmetry_Int_Tables_number      5
_space_group_name_Hall           'C 2y'
loop_
_symmetry_equiv_pos_site_id
_symmetry_equiv_pos_as_xyz
1 x,y,z
2 -x,y,-z
3 1/2+x,1/2+y,z
4 1/2-x,1/2+y,-z
_cell_length_a                   26.4314(7)
_cell_length_b                   11.4071(3)
_cell_length_c                   16.5957(4)
_cell_angle_alpha                90
_cell_angle_beta                 114.379(2)
_cell_angle_gamma                90
_cell_volume                     4557.54
loop_
_atom_site_label
_atom_site_type_symbol
_atom_site_fract_x
_atom_site_fract_y
_atom_site_fract_z
Ni1 Ni -0.37393(3) -0.10570(6) -0.07234(5)
O1 O -0.3657(3) 0.0293(4) -0.1458(5)
O2 O -0.28974(19) -0.1069(7) -0.0004(4)
O3 O -0.3831(2) -0.2453(4) -0.0050(3)
O4 O -0.45771(14) -0.1005(4) -0.1451(2)
O5 O -0.26912(17) 0.5170(3) 0.2921(3)
O6 O -0.30086(16) 0.8345(3) 0.2827(2)
N1 N -0.3817(2) 0.0163(5) 0.0172(4)
N2 N -0.1371(2) 1.2766(4) 0.1627(4)
C1 C -0.3084(2) 0.6298(4) 0.3722(4)
C2 C -0.3121(2) 0.5373(5) 0.3177(4)
C3 C -0.3610(3) 0.4645(5) 0.2796(4)
C4 C -0.4037(3) 0.4874(5) 0.3032(4)
H1 H -0.4351 0.4400 0.2810
C5 C -0.4475(3) 0.6072(6) 0.3822(5)
H2 H -0.4791 0.5604 0.3603
C6 C -0.4449(3) 0.7004(7) 0.4350(5)
H3 H -0.4746 0.7155 0.4495
C7 C -0.3986(3) 0.7736(7) 0.4676(5)
H4 H -0.3981 0.8383 0.5020
C8 C -0.3540(3) 0.7497(5) 0.4488(4)
H5 H -0.3228 0.7976 0.4723
C9 C -0.3540(2) 0.6549(5) 0.3953(4)
C10 C -0.4017(3) 0.5807(6) 0.3601(4)
C11 C -0.2313(3) 0.4245(6) 0.3416(5)
H6 H -0.2027 0.4155 0.3205
H7 H -0.2514 0.3522 0.3336
H8 H -0.2148 0.4445 0.4032
C12 C -0.3615(3) 0.3726(5) 0.2169(4)
H9 H -0.3338 0.3766 0.1963
C13 C -0.3972(3) 0.2852(5) 0.1867(5)
H10 H -0.4269 0.2816 0.2030
C14 C -0.3919(3) 0.1916(6) 0.1273(5)
C15 C -0.3475(4) 0.1873(7) 0.1042(7)
H11 H -0.3195 0.2432 0.1261
C16 C -0.3446(4) 0.1011(8) 0.0491(7)
H12 H -0.3148 0.1022 0.0330
C17 C -0.4230(3) 0.0161(5) 0.0434(4)
H13 H -0.4485 -0.0451 0.0252
C18 C -0.4298(3) 0.1023(6) 0.0962(4)
H14 H -0.4603 0.1000 0.1107
C19 C -0.2578(2) 0.7055(5) 0.4053(4)
C20 C -0.2549(2) 0.7997(5) 0.3564(3)
C21 C -0.2051(2) 0.8691(4) 0.3840(4)
C22 C -0.1611(3) 0.8394(5) 0.4595(4)
H15 H -0.1289 0.8842 0.4773
C23 C -0.1150(3) 0.7108(6) 0.5900(5)
H16 H -0.0823 0.7538 0.6073
C24 C -0.1174(3) 0.6181(7) 0.6390(5)
H17 H -0.0860 0.5964 0.6886
C25 C -0.1672(3) 0.5537(6) 0.6153(5)
H18 H -0.1688 0.4919 0.6507
C26 C -0.2130(3) 0.5820(5) 0.5403(4)
H19 H -0.2455 0.5386 0.5247
C27 C -0.2115(2) 0.6763(5) 0.4867(4)
C28 C -0.1622(3) 0.7433(5) 0.5121(4)
C29 C -0.3060(3) 0.7880(6) 0.2010(4)
H20 H -0.3391 0.8182 0.1545
H21 H -0.3082 0.7041 0.2025
H22 H -0.2742 0.8101 0.1904
C30 C -0.2030(3) 0.9661(5) 0.3256(4)
H23 H -0.2341 0.9768 0.2728
C31 C -0.1604(3) 1.0391(6) 0.3420(4)
H24 H -0.1319 1.0365 0.3985
C32 C -0.1544(3) 1.1215(6) 0.2807(4)
C33 C -0.1891(3) 1.1239(7) 0.1912(5)
H25 H -0.2197 1.0743 0.1681
C34 C -0.1776(3) 1.2009(7) 0.1370(5)
H26 H -0.2006 1.1985 0.0770
C35 C -0.1046(3) 1.2786(7) 0.2485(5)
H27 H -0.0760 1.3333 0.2694
C36 C -0.1113(3) 1.2030(7) 0.3082(5)
H28 H -0.0867 1.2064 0.3676
C37 C -0.3286(7) 0.1434(12) -0.2273(15)
H29 H -0.3673 0.1626 -0.2560
H30 H -0.3169 0.1082 -0.2694
H31 H -0.3075 0.2135 -0.2041
C38 C -0.3190(5) 0.0570(8) -0.1514(10)
C39 C -0.2698(6) 0.0153(12) -0.1007(13)
H32 H -0.2408 0.0369 -0.1155
C40 C -0.2557(4) -0.0592(12) -0.0259(10)
C41 C -0.1965(4) -0.0911(17) 0.0258(13)
H33 H -0.1932 -0.1390 0.0753
H34 H -0.1749 -0.0211 0.0468
H35 H -0.1831 -0.1337 -0.0113
C42 C -0.4176(5) -0.4218(7) 0.0231(7)
H36 H -0.3803 -0.4264 0.0680
H37 H -0.4249 -0.4886 -0.0154
H38 H -0.4433 -0.4211 0.0503
C43 C -0.4243(4) -0.3097(6) -0.0307(5)
C44 C -0.4749(3) -0.2855(6) -0.0987(5)
H39 H -0.5020 -0.3434 -0.1119
C45 C -0.4904(2) -0.1836(6) -0.1505(4)
C46 C -0.5499(3) -0.1698(8) -0.2153(6)
H40 H -0.5544 -0.0963 -0.2456
H41 H -0.5735 -0.1716 -0.1842
H42 H -0.5598 -0.2327 -0.2574
N2C N -0.3629(2) -0.2234(4) -0.1627(4)
Ni1C Ni -0.12607(3) 1.39430(6) 0.07234(5)
O7 O -0.4739(7) 0.1508(17) -0.1950(12)
C47 C -0.4753(8) 0.0790(16) -0.2697(12)
O8 O -0.4864(8) 0.3159(17) -0.2639(13)
O9 O -0.4741(10) -0.036(2) -0.4416(15)
O10? O -0.4871(12) 0.376(2) -0.4646(16)
C48? C -0.462(2) 0.348(5) -0.371(2)
loop_
_geom_bond_atom_site_label_1
_geom_bond_atom_site_label_2
_geom_bond_site_symmetry_1
_geom_bond_site_symmetry_2
Ni1 O1 1_555 1_555
O1 C38 1_555 1_555
O2 Ni1 1_555 1_555
O3 Ni1 1_555 1_555
O4 Ni1 1_555 1_555
O5 C2 1_555 1_555
O6 C20 1_555 1_555
N1 Ni1 1_555 1_555
N2 C34 1_555 1_555
C1 C2 1_555 1_555
C2 C3 1_555 1_555
C3 C4 1_555 1_555
C4 H1 1_555 1_555
C5 H2 1_555 1_555
C6 C5 1_555 1_555
H3 C6 1_555 1_555
C7 C6 1_555 1_555
H4 C7 1_555 1_555
C8 C7 1_555 1_555
H5 C8 1_555 1_555
C9 C1 1_555 1_555
C10 C4 1_555 1_555
C11 O5 1_555 1_555
H6 C11 1_555 1_555
H7 C11 1_555 1_555
H8 C11 1_555 1_555
C12 C3 1_555 1_555
H9 C12 1_555 1_555
C13 C12 1_555 1_555
H10 C13 1_555 1_555
C14 C13 1_555 1_555
C15 C14 1_555 1_555
H11 C15 1_555 1_555
C16 N1 1_555 1_555
H12 C16 1_555 1_555
C17 N1 1_555 1_555
H13 C17 1_555 1_555
C18 C14 1_555 1_555
H14 C18 1_555 1_555
C19 C1 1_555 1_555
C20 C19 1_555 1_555
C21 C20 1_555 1_555
C22 C21 1_555 1_555
H15 C22 1_555 1_555
C23 H16 1_555 1_555
C24 C23 1_555 1_555
H17 C24 1_555 1_555
C25 C24 1_555 1_555
H18 C25 1_555 1_555
C26 C25 1_555 1_555
H19 C26 1_555 1_555
C27 C19 1_555 1_555
C28 C22 1_555 1_555
C29 O6 1_555 1_555
H20 C29 1_555 1_555
H21 C29 1_555 1_555
H22 C29 1_555 1_555
C30 C21 1_555 1_555
H23 C30 1_555 1_555
C31 C30 1_555 1_555
H24 C31 1_555 1_555
C32 C31 1_555 1_555
C33 C32 1_555 1_555
H25 C33 1_555 1_555
C34 C33 1_555 1_555
H26 C34 1_555 1_555
C35 N2 1_555 1_555
H27 C35 1_555 1_555
C36 C32 1_555 1_555
H28 C36 1_555 1_555
C37 H29 1_555 1_555
H30 C37 1_555 1_555
H31 C37 1_555 1_555
C38 C37 1_555 1_555
C39 C38 1_555 1_555
H32 C39 1_555 1_555
C40 O2 1_555 1_555
C41 C40 1_555 1_555
H33 C41 1_555 1_555
H34 C41 1_555 1_555
H35 C41 1_555 1_555
C42 H36 1_555 1_555
H37 C42 1_555 1_555
H38 C42 1_555 1_555
C43 O3 1_555 1_555
C44 C43 1_555 1_555
H39 C44 1_555 1_555
C45 O4 1_555 1_555
C46 C45 1_555 1_555
H40 C46 1_555 1_555
H41 C46 1_555 1_555
H42 C46 1_555 1_555
O7 C47 1_555 1_555
N2C Ni1 1_555 1_555
Ni1C N2 1_555 1_555
C5 C10 1_555 1_555
C8 C9 1_555 1_555
C9 C10 1_555 1_555
C15 C16 1_555 1_555
C17 C18 1_555 1_555
C23 C28 1_555 1_555
C26 C27 1_555 1_555
C27 C28 1_555 1_555
C35 C36 1_555 1_555
C39 C40 1_555 1_555
C42 C43 1_555 1_555
C44 C45 1_555 1_555

#END
