
#######################################################################
#
#                 Cambridge Crystallographic Data Centre
#                                CCDC 
#
#######################################################################
#
# If this CIF has been generated from an entry in the Cambridge 
# Structural Database, then it will include bibliographic, chemical, 
# crystal, experimental, refinement or atomic coordinate data resulting 
# from the CCDC's data processing and validation procedures.
#
#######################################################################

data_EHOXUV
_symmetry_cell_setting           monoclinic
_symmetry_space_group_name_H-M   'P 21/c'
_symmetry_Int_Tables_number      14
_space_group_name_Hall           '-P 2ybc'
loop_
_symmetry_equiv_pos_site_id
_symmetry_equiv_pos_as_xyz
1 x,y,z
2 -x,1/2+y,1/2-z
3 -x,-y,-z
4 x,1/2-y,1/2+z
_cell_length_a                   9.778(5)
_cell_length_b                   16.817(5)
_cell_length_c                   7.348(5)
_cell_angle_alpha                90
_cell_angle_beta                 92.114(5)
_cell_angle_gamma                90
_cell_volume                     1207.46
loop_
_atom_site_label
_atom_site_type_symbol
_atom_site_fract_x
_atom_site_fract_y
_atom_site_fract_z
Zn1 Zn -0.44475(5) -0.44360(3) 0.75774(7)
O1 O -0.3885(3) -0.55835(15) 0.7599(4)
N1 N -0.3966(4) -0.39704(19) 0.5122(5)
O2 O -0.6437(3) -0.47160(16) 0.7456(4)
N2 N -0.3917(4) -0.10738(19) 0.5009(5)
O3 O -0.1863(4) -0.5040(2) 0.7646(5)
O4 O -0.6556(4) -0.3424(2) 0.7476(5)
C1 C -0.3908(4) -0.2519(2) 0.5100(5)
H1 H -0.4849 -0.2511 0.5241
C2 C -0.3194(4) -0.1816(2) 0.4976(5)
C3 C -0.2577(5) -0.5636(3) 0.7643(6)
C4 C -0.1802(4) -0.1826(2) 0.4771(6)
H2 H -0.1320 -0.1352 0.4676
C5 C -0.1825(4) -0.3248(2) 0.4829(6)
H3 H -0.1357 -0.3729 0.4787
C6 C -0.3217(4) -0.3237(2) 0.5012(5)
C7 C -0.2000(5) -0.6461(3) 0.7643(8)
H4 H -0.2735 -0.6840 0.7634
H5 H -0.1424 -0.6537 0.8715
H6 H -0.1472 -0.6535 0.6580
C8 C -0.1131(4) -0.2542(3) 0.4706(6)
H7 H -0.0188 -0.2549 0.4577
C9 C -0.8659(5) -0.4158(4) 0.7344(9)
H8 H -0.8900 -0.4711 0.7325
H9 H -0.9021 -0.3906 0.6257
H10 H -0.9035 -0.3909 0.8389
C10 C -0.7136(5) -0.4076(3) 0.7437(7)
H11 H -0.338(3) -0.0717(17) 0.560(5)
H12 H -0.468(3) -0.104(3) 0.563(6)
H13 H -0.349(3) -0.4346(16) 0.457(5)
H14 H -0.480(2) -0.393(2) 0.459(5)
Zn1C Zn -0.44475(5) -0.05640(3) 0.25774(7)
N2C N -0.3917(4) -0.39262(19) 1.0009(5)
loop_
_geom_bond_atom_site_label_1
_geom_bond_atom_site_label_2
_geom_bond_site_symmetry_1
_geom_bond_site_symmetry_2
Zn1 O1 1_555 1_555
O1 C3 1_555 1_555
N1 Zn1 1_555 1_555
O2 Zn1 1_555 1_555
N2 C2 1_555 1_555
O3 C3 1_555 1_555
O4 C10 1_555 1_555
C1 H1 1_555 1_555
C2 C1 1_555 1_555
C3 C7 1_555 1_555
C4 C2 1_555 1_555
H2 C4 1_555 1_555
C5 H3 1_555 1_555
C6 N1 1_555 1_555
C7 H4 1_555 1_555
H5 C7 1_555 1_555
H6 C7 1_555 1_555
C8 C4 1_555 1_555
H7 C8 1_555 1_555
C9 H8 1_555 1_555
H9 C9 1_555 1_555
H10 C9 1_555 1_555
C10 O2 1_555 1_555
H11 N2 1_555 1_555
H12 N2 1_555 1_555
H13 N1 1_555 1_555
H14 N1 1_555 1_555
Zn1C N2 1_555 1_555
N2C Zn1 1_555 1_555
C1 C6 1_555 1_555
C5 C6 1_555 1_555
C5 C8 1_555 1_555
C9 C10 1_555 1_555

#END
