
#######################################################################
#
#                 Cambridge Crystallographic Data Centre
#                                CCDC 
#
#######################################################################
#
# If this CIF has been generated from an entry in the Cambridge 
# Structural Database, then it will include bibliographic, chemical, 
# crystal, experimental, refinement or atomic coordinate data resulting 
# from the CCDC's data processing and validation procedures.
#
#######################################################################

data_EHOXIJ
_symmetry_cell_setting           triclinic
_symmetry_space_group_name_H-M   'P -1'
_symmetry_Int_Tables_number      2
_space_group_name_Hall           '-P 1'
loop_
_symmetry_equiv_pos_site_id
_symmetry_equiv_pos_as_xyz
1 x,y,z
2 -x,-y,-z
_cell_length_a                   7.100(5)
_cell_length_b                   7.196(5)
_cell_length_c                   12.575(10)
_cell_angle_alpha                76.89(3)
_cell_angle_beta                 74.56(3)
_cell_angle_gamma                71.25(2)
_cell_volume                     579.36
loop_
_atom_site_label
_atom_site_type_symbol
_atom_site_fract_x
_atom_site_fract_y
_atom_site_fract_z
Pr1 Pr 0.18479(8) 0.05184(8) 0.09105(5)
Se1 Se 0.38896(15) -0.28535(14) -0.08540(8)
O1 O 0.3832(11) -0.2839(11) 0.1813(6)
O2 O 0.4739(15) -0.4924(11) 0.3310(7)
H1 H 0.5230 -0.5759 0.3000
O3 O 0.0509(12) 0.3545(10) 0.1814(6)
O4 O -0.0175(15) 0.5169(12) 0.3242(7)
O5 O 0.4805(11) -0.1118(11) -0.0634(6)
O6 O 0.1462(11) -0.1828(11) -0.0289(6)
O7 O 0.3916(13) -0.2214(11) -0.2266(6)
O8 O -0.0618(13) -0.1165(11) 0.2212(7)
H2 H -0.0594 -0.2164 0.2683
H3 H -0.1590 -0.0167 0.2229
O9 O 0.2078(12) 0.3317(12) -0.0655(7)
H4 H 0.1215 0.4127 -0.0975
H5 H 0.3141 0.3248 -0.1124
N1 N 0.2274(14) 0.0191(13) 0.2940(7)
C1 C 0.3944(17) -0.3232(15) 0.2825(9)
C2 C 0.3161(17) -0.1576(15) 0.3497(9)
C3 C 0.3384(19) -0.1805(16) 0.4573(10)
H6 H 0.4029 -0.3039 0.4928
C4 C 0.264(2) -0.0174(18) 0.5120(11)
H7 H 0.2757 -0.0304 0.5854
C5 C 0.171(2) 0.1651(16) 0.4573(10)
H8 H 0.1222 0.2773 0.4923
C6 C 0.1537(16) 0.1759(14) 0.3483(9)
C7 C 0.0553(17) 0.3653(17) 0.2801(10)
Pr1A Pr 0.81521(8) -0.05184(8) -0.09105(5)
Pr1A_2 Pr -0.18479(8) -0.05184(8) -0.09105(5)
O5A O 0.5195(11) 0.1118(11) 0.0634(6)
O6A O -0.1462(11) 0.1828(11) 0.0289(6)
loop_
_geom_bond_atom_site_label_1
_geom_bond_atom_site_label_2
_geom_bond_site_symmetry_1
_geom_bond_site_symmetry_2
Pr1 O1 1_555 1_555
Se1 O5 1_555 1_555
O1 C1 1_555 1_555
O2 H1 1_555 1_555
O3 Pr1 1_555 1_555
O4 C7 1_555 1_555
O5 Pr1 1_555 1_555
O6 Pr1 1_555 1_555
O7 Se1 1_555 1_555
O8 Pr1 1_555 1_555
H2 O8 1_555 1_555
H3 O8 1_555 1_555
O9 Pr1 1_555 1_555
H4 O9 1_555 1_555
H5 O9 1_555 1_555
N1 Pr1 1_555 1_555
C1 O2 1_555 1_555
C2 N1 1_555 1_555
C3 C2 1_555 1_555
H6 C3 1_555 1_555
C4 C3 1_555 1_555
H7 C4 1_555 1_555
C5 C4 1_555 1_555
H8 C5 1_555 1_555
C6 N1 1_555 1_555
C7 O3 1_555 1_555
Pr1A O5 1_555 1_555
Pr1A_2 O6 1_555 1_555
O5A Pr1 1_555 1_555
O6A Pr1 1_555 1_555
Se1 O6 1_555 1_555
C1 C2 1_555 1_555
C5 C6 1_555 1_555
C6 C7 1_555 1_555
Pr1A O5A 1_555 1_555
Pr1A_2 O6A 1_555 1_555

#END
