
#######################################################################
#
#                 Cambridge Crystallographic Data Centre
#                                CCDC 
#
#######################################################################
#
# If this CIF has been generated from an entry in the Cambridge 
# Structural Database, then it will include bibliographic, chemical, 
# crystal, experimental, refinement or atomic coordinate data resulting 
# from the CCDC's data processing and validation procedures.
#
#######################################################################

data_EHOYUW
_symmetry_cell_setting           monoclinic
_symmetry_space_group_name_H-M   'P 21/n'
_symmetry_Int_Tables_number      14
_space_group_name_Hall           '-P 2yn'
loop_
_symmetry_equiv_pos_site_id
_symmetry_equiv_pos_as_xyz
1 x,y,z
2 1/2-x,1/2+y,1/2-z
3 -x,-y,-z
4 1/2+x,1/2-y,1/2+z
_cell_length_a                   10.408(5)
_cell_length_b                   10.451(5)
_cell_length_c                   17.994(5)
_cell_angle_alpha                90
_cell_angle_beta                 101.997(5)
_cell_angle_gamma                90
_cell_volume                     1914.53
loop_
_atom_site_label
_atom_site_type_symbol
_atom_site_fract_x
_atom_site_fract_y
_atom_site_fract_z
Zn1 Zn -0.29399(5) 0.08378(6) 0.24911(4)
O1 O -0.1032(5) -0.0717(5) 0.3469(3)
O2 O -0.3371(4) -0.0689(3) 0.1859(2)
O3 O -0.2780(3) 0.0358(4) 0.3557(2)
N1 N 0.5399(3) 0.1938(4) 0.2319(2)
H1 H 0.5150 0.2031 0.2766
H2 H 0.5597 0.2720 0.2167
O4 O -0.3137(5) 0.0557(5) 0.0914(3)
C1 C 0.2810(5) 0.3367(6) 0.1486(3)
H3 H 0.3465 0.3776 0.1295
N2 N -0.1487(4) 0.1944(4) 0.2245(3)
H4 H -0.1726 0.2180 0.1754
H5 H -0.1446 0.2662 0.2525
C2 C 0.1640(5) 0.4000(5) 0.1503(3)
H6 H 0.1522 0.4837 0.1327
C3 C 0.4276(4) 0.1434(6) 0.1758(3)
H7 H 0.4163 0.0536 0.1865
H8 H 0.4475 0.1494 0.1256
C4 C 0.2008(4) 0.1537(5) 0.2022(3)
H9 H 0.2131 0.0700 0.2197
C5 C -0.1822(5) -0.0375(6) 0.3827(4)
C6 C 0.2995(4) 0.2130(5) 0.1754(3)
C7 C 0.0831(4) 0.2146(5) 0.2040(3)
C8 C 0.0657(4) 0.3399(5) 0.1777(3)
H10 H -0.0122 0.3829 0.1786
C9 C -0.3421(5) -0.0480(6) 0.1156(3)
C10 C -0.0182(5) 0.1425(6) 0.2358(3)
H11 H -0.0247 0.0572 0.2141
H12 H 0.0147 0.1333 0.2900
C11 C -0.3909(8) -0.1565(8) 0.0622(4)
H13 H -0.3314 -0.2275 0.0731
H14 H -0.3960 -0.1290 0.0108
H15 H -0.4765 -0.1823 0.0686
C12 C -0.1714(8) -0.0790(8) 0.4636(4)
H16 H -0.2219 -0.1555 0.4649
H17 H -0.2045 -0.0125 0.4914
H18 H -0.0811 -0.0954 0.4863
Zn1_2 Zn 0.70601(5) 0.08378(6) 0.24911(4)
N1_2 N -0.4601(3) 0.1938(4) 0.2319(2)
H1_2 H -0.4850 0.2031 0.2766
H2_2 H -0.4403 0.2720 0.2167
O5 O 0.0687(6) -0.2775(7) 0.1267(3)
C13 C 0.1764(10) -0.2011(9) 0.1212(5)
H19 H 0.2568 -0.1995 0.1554
C14 C 0.1429(12) -0.1286(12) 0.0561(6)
H20 H 0.1900 -0.0611 0.0411
C15 C -0.0163(10) -0.2859(10) 0.0531(6)
H21 H -0.0790 -0.3480 0.0351
C16 C 0.0168(13) -0.1808(12) 0.0156(7)
H22 H -0.0334 -0.1474 -0.0290
loop_
_geom_bond_atom_site_label_1
_geom_bond_atom_site_label_2
_geom_bond_site_symmetry_1
_geom_bond_site_symmetry_2
Zn1 O2 1_555 1_555
O1 C5 1_555 1_555
O2 C9 1_555 1_555
O3 Zn1 1_555 1_555
N1 H1 1_555 1_555
H2 N1 1_555 1_555
O4 C9 1_555 1_555
C1 H3 1_555 1_555
N2 Zn1 1_555 1_555
H4 N2 1_555 1_555
H5 N2 1_555 1_555
C2 C1 1_555 1_555
H6 C2 1_555 1_555
C3 N1 1_555 1_555
H7 C3 1_555 1_555
H8 C3 1_555 1_555
C4 H9 1_555 1_555
C5 O3 1_555 1_555
C6 C1 1_555 1_555
C7 C4 1_555 1_555
C8 C2 1_555 1_555
H10 C8 1_555 1_555
C9 C11 1_555 1_555
C10 N2 1_555 1_555
H11 C10 1_555 1_555
H12 C10 1_555 1_555
C11 H13 1_555 1_555
H14 C11 1_555 1_555
H15 C11 1_555 1_555
C12 C5 1_555 1_555
H16 C12 1_555 1_555
H17 C12 1_555 1_555
H18 C12 1_555 1_555
O5 C13 1_555 1_555
C13 H19 1_555 1_555
C14 C13 1_555 1_555
H20 C14 1_555 1_555
C15 O5 1_555 1_555
H21 C15 1_555 1_555
C16 C14 1_555 1_555
H22 C16 1_555 1_555
Zn1_2 N1 1_555 1_555
N1_2 Zn1 1_555 1_555
H1_2 N1_2 1_555 1_555
H2_2 N1_2 1_555 1_555
C3 C6 1_555 1_555
C4 C6 1_555 1_555
C7 C8 1_555 1_555
C7 C10 1_555 1_555
C15 C16 1_555 1_555

#END
