
#######################################################################
#
#                 Cambridge Crystallographic Data Centre
#                                CCDC 
#
#######################################################################
#
# If this CIF has been generated from an entry in the Cambridge 
# Structural Database, then it will include bibliographic, chemical, 
# crystal, experimental, refinement or atomic coordinate data resulting 
# from the CCDC's data processing and validation procedures.
#
#######################################################################

data_EHOYEG
_symmetry_cell_setting           monoclinic
_symmetry_space_group_name_H-M   'P 21/n'
_symmetry_Int_Tables_number      14
_space_group_name_Hall           '-P 2yn'
loop_
_symmetry_equiv_pos_site_id
_symmetry_equiv_pos_as_xyz
1 x,y,z
2 1/2-x,1/2+y,1/2-z
3 -x,-y,-z
4 1/2+x,1/2-y,1/2+z
_cell_length_a                   13.208(5)
_cell_length_b                   10.651(5)
_cell_length_c                   15.358(5)
_cell_angle_alpha                90
_cell_angle_beta                 90.780(5)
_cell_angle_gamma                90
_cell_volume                     2160.34
loop_
_atom_site_label
_atom_site_type_symbol
_atom_site_fract_x
_atom_site_fract_y
_atom_site_fract_z
Cu1 Cu 0.91884(4) 0.22852(5) 0.55930(3)
O1 O 1.0022(2) 0.1765(3) 0.45492(18)
N1 N 0.9908(2) 0.0887(3) 0.6247(2)
H1 H 0.9635 0.0831 0.6779
H2 H 0.9774 0.0161 0.5968
O3 O 1.0770(3) 0.3560(4) 0.4869(2)
C1 C 1.2037(3) 0.1259(4) 0.7740(2)
H3 H 1.2189 0.2066 0.7552
N2 N 1.3456(3) 0.1353(3) 0.9907(2)
H4 H 1.3853 0.0667 0.9892
H5 H 1.2889 0.1144 1.0192
C2 C 1.2451(3) 0.0836(4) 0.8528(2)
C3 C 1.2211(3) -0.0362(4) 0.8803(3)
H6 H 1.2485 -0.0672 0.9321
C4 C 1.1412(3) 0.0519(4) 0.7231(2)
C5 C 1.1020(3) 0.0992(4) 0.6360(3)
H7 H 1.1213 0.1866 0.6296
H8 H 1.1344 0.0522 0.5900
C6 C 1.1177(3) -0.0674(4) 0.7527(3)
H9 H 1.0754 -0.1190 0.7196
C7 C 1.0696(3) 0.2598(4) 0.4419(3)
C8 C 1.3178(3) 0.1696(4) 0.9014(3)
H10 H 1.3796 0.1750 0.8681
H11 H 1.2882 0.2529 0.9025
C9 C 1.1565(4) -0.1099(4) 0.8306(3)
H12 H 1.1390 -0.1895 0.8503
N3 N 0.9053(3) 0.3310(4) 0.6732(3)
H13 H 0.8488 0.3780 0.6697
H14 H 0.8982 0.2775 0.7180
C11 C 1.0909(4) 0.5645(5) 0.8982(3)
H15 H 1.1533 0.5767 0.9256
N4 N 0.7304(3) 0.6198(6) 0.9170(4)
H16 H 0.7285 0.5515 0.9515
H17 H 0.7268 0.5915 0.8619
C12 C 1.0847(4) 0.4919(5) 0.8249(4)
H18 H 1.1430 0.4550 0.8032
C13 C 0.9137(4) 0.6012(5) 0.8924(3)
C14 C 1.0066(4) 0.6189(5) 0.9315(3)
H19 H 1.0120 0.6685 0.9812
C15 C 0.9929(4) 0.4726(5) 0.7824(4)
C16 C 0.9070(4) 0.5261(6) 0.8184(4)
H20 H 0.8440 0.5114 0.7926
C17 C 1.1424(5) 0.2363(6) 0.3692(4)
H21 H 1.1109 0.1834 0.3261
H22 H 1.2020 0.1957 0.3921
H23 H 1.1609 0.3148 0.3432
C18 C 0.8243(5) 0.6697(7) 0.9275(5)
H24 H 0.8360 0.6814 0.9895
H25 H 0.8233 0.7525 0.9013
C20 C 0.9873(5) 0.4092(7) 0.6906(4)
H29 H 0.9873 0.4751 0.6470
H30 H 1.0487 0.3606 0.6830
Cu1A Cu 0.58116(4) 0.72852(5) 0.94070(3)
Cu1C Cu 1.41884(4) 0.27148(5) 1.05930(3)
N2C N 0.8456(3) 0.3647(3) 0.4907(2)
N4A N 0.7696(3) 0.1198(6) 0.5830(4)
O2 O 0.7791(3) -0.0362(4) 0.8655(2)
O4 O 0.8488(3) 0.0775(4) 0.7627(2)
C10 C 0.8443(3) 0.0361(5) 0.8388(3)
C19 C 0.9232(5) 0.0848(8) 0.9021(4)
H26 H 0.9836 0.1058 0.8712
H27 H 0.9384 0.0213 0.9446
H28 H 0.8979 0.1583 0.9307
loop_
_geom_bond_atom_site_label_1
_geom_bond_atom_site_label_2
_geom_bond_site_symmetry_1
_geom_bond_site_symmetry_2
Cu1 O1 1_555 1_555
O1 C7 1_555 1_555
N1 Cu1 1_555 1_555
H1 N1 1_555 1_555
H2 N1 1_555 1_555
O2 C10 1_555 1_555
O3 Cu1 1_555 1_555
O4 C10 1_555 1_555
C1 H3 1_555 1_555
N2 H4 1_555 1_555
H5 N2 1_555 1_555
C2 C1 1_555 1_555
C3 C2 1_555 1_555
H6 C3 1_555 1_555
C4 C1 1_555 1_555
C5 N1 1_555 1_555
H7 C5 1_555 1_555
H8 C5 1_555 1_555
C6 C4 1_555 1_555
H9 C6 1_555 1_555
C7 O3 1_555 1_555
C8 N2 1_555 1_555
H10 C8 1_555 1_555
H11 C8 1_555 1_555
C9 C3 1_555 1_555
H12 C9 1_555 1_555
C10 C19 1_555 1_555
N3 Cu1 1_555 1_555
H13 N3 1_555 1_555
H14 N3 1_555 1_555
C11 H15 1_555 1_555
N4 H16 1_555 1_555
H17 N4 1_555 1_555
C12 C11 1_555 1_555
H18 C12 1_555 1_555
C13 C14 1_555 1_555
C14 C11 1_555 1_555
H19 C14 1_555 1_555
C15 C12 1_555 1_555
C16 C13 1_555 1_555
H20 C16 1_555 1_555
C17 C7 1_555 1_555
H21 C17 1_555 1_555
H22 C17 1_555 1_555
H23 C17 1_555 1_555
C18 N4 1_555 1_555
H24 C18 1_555 1_555
H25 C18 1_555 1_555
C19 H26 1_555 1_555
H27 C19 1_555 1_555
H28 C19 1_555 1_555
C20 N3 1_555 1_555
H29 C20 1_555 1_555
H30 C20 1_555 1_555
Cu1A N4 1_555 1_555
Cu1C N2 1_555 1_555
N2C Cu1 1_555 1_555
N4A Cu1 1_555 1_555
C2 C8 1_555 1_555
C4 C5 1_555 1_555
C6 C9 1_555 1_555
C13 C18 1_555 1_555
C15 C16 1_555 1_555
C15 C20 1_555 1_555

#END
