
#######################################################################
#
#                 Cambridge Crystallographic Data Centre
#                                CCDC 
#
#######################################################################
#
# If this CIF has been generated from an entry in the Cambridge 
# Structural Database, then it will include bibliographic, chemical, 
# crystal, experimental, refinement or atomic coordinate data resulting 
# from the CCDC's data processing and validation procedures.
#
#######################################################################

data_EHUHIY
_symmetry_cell_setting           triclinic
_symmetry_space_group_name_H-M   'P -1'
_symmetry_Int_Tables_number      2
_space_group_name_Hall           '-P 1'
loop_
_symmetry_equiv_pos_site_id
_symmetry_equiv_pos_as_xyz
1 x,y,z
2 -x,-y,-z
_cell_length_a                   8.3796(9)
_cell_length_b                   8.4689(9)
_cell_length_c                   12.8983(14)
_cell_angle_alpha                83.743(2)
_cell_angle_beta                 76.014(2)
_cell_angle_gamma                85.366(2)
_cell_volume                     881.506
loop_
_atom_site_label
_atom_site_type_symbol
_atom_site_fract_x
_atom_site_fract_y
_atom_site_fract_z
Cd1 Cd 0.76998(4) 0.90992(4) 0.83528(2)
N1 N 0.6350(4) 0.8895(4) 0.7104(2)
N2 N 1.0346(4) 1.1038(4) 0.7427(3)
N3 N 0.5694(4) 0.8387(4) 1.0397(3)
N4 N 0.0279(4) 0.2684(4) 0.1254(3)
O1 O 1.0071(3) 1.0058(3) 0.6829(2)
O2 O 1.1527(4) 1.1872(4) 0.7154(2)
O3 O 0.9340(3) 1.1123(3) 0.8336(2)
O4 O 0.6716(3) 0.9476(3) 1.0187(2)
O5 O 0.4731(4) 0.8204(4) 1.1282(2)
O6 O 0.5698(3) 0.7526(3) 0.9653(2)
C1 C 0.4729(5) 0.8708(5) 0.7380(3)
H1 H 0.4137 0.8913 0.8083
C2 C 0.3880(5) 0.8229(5) 0.6689(3)
H2 H 0.2730 0.8098 0.6924
C3 C 0.4704(5) 0.7936(4) 0.5645(3)
C4 C 0.6369(5) 0.8237(5) 0.5353(3)
H3 H 0.6979 0.8119 0.4639
C5 C 0.7137(5) 0.8701(5) 0.6084(3)
H4 H 0.8276 0.8895 0.5861
C6 C 0.3870(5) 0.7283(4) 0.4912(3)
C7 C 0.2148(5) 0.7359(5) 0.5102(3)
H5 H 0.1508 0.7896 0.5686
C8 C 0.1367(5) 0.6666(5) 0.4455(3)
H6 H 0.0198 0.6730 0.4597
C9 C 0.2288(5) 0.5868(5) 0.3591(3)
C10 C 0.3991(5) 0.5819(5) 0.3390(3)
H7 H 0.4630 0.5297 0.2799
C11 C 0.4775(5) 0.6518(5) 0.4036(3)
H8 H 0.5944 0.6476 0.3880
C12 C 0.1459(5) 0.5145(5) 0.2929(3)
C13 C 0.0735(5) 0.4573(5) 0.2384(3)
C14 C -0.0208(5) 0.4069(5) 0.1700(3)
C15 C -0.1558(5) 0.5011(5) 0.1498(3)
H9 H -0.1884 0.5976 0.1824
C16 C -0.2416(5) 0.4515(5) 0.0814(3)
H10 H -0.3357 0.5127 0.0677
C17 C -0.1905(5) 0.3132(5) 0.0331(3)
H11 H -0.2462 0.2790 -0.0157
C18 C -0.0563(5) 0.2257(5) 0.0574(3)
H12 H -0.0213 0.1299 0.0243
N4A N 0.9721(4) 0.7316(4) 0.8746(3)
Cd1A Cd 0.23002(4) 0.09008(4) 0.16472(2)
loop_
_geom_bond_atom_site_label_1
_geom_bond_atom_site_label_2
_geom_bond_site_symmetry_1
_geom_bond_site_symmetry_2
Cd1 N1 1_555 1_555
N1 C1 1_555 1_555
N2 O1 1_555 1_555
N3 O4 1_555 1_555
N4 C14 1_555 1_555
O1 Cd1 1_555 1_555
O2 N2 1_555 1_555
O3 Cd1 1_555 1_555
O4 Cd1 1_555 1_555
O5 N3 1_555 1_555
O6 Cd1 1_555 1_555
C1 H1 1_555 1_555
C2 C1 1_555 1_555
H2 C2 1_555 1_555
C3 C2 1_555 1_555
C4 C3 1_555 1_555
H3 C4 1_555 1_555
C5 N1 1_555 1_555
H4 C5 1_555 1_555
C6 C3 1_555 1_555
C7 C6 1_555 1_555
H5 C7 1_555 1_555
C8 C7 1_555 1_555
H6 C8 1_555 1_555
C9 C8 1_555 1_555
C10 C9 1_555 1_555
H7 C10 1_555 1_555
C11 C6 1_555 1_555
H8 C11 1_555 1_555
C12 C9 1_555 1_555
C13 C12 1_555 1_555
C14 C13 1_555 1_555
C15 C14 1_555 1_555
H9 C15 1_555 1_555
C16 C15 1_555 1_555
H10 C16 1_555 1_555
C17 C16 1_555 1_555
H11 C17 1_555 1_555
C18 N4 1_555 1_555
H12 C18 1_555 1_555
N4A Cd1 1_555 1_555
Cd1A N4 1_555 1_555
N2 O3 1_555 1_555
N3 O6 1_555 1_555
C4 C5 1_555 1_555
C10 C11 1_555 1_555
C17 C18 1_555 1_555

#END
