
#######################################################################
#
#                 Cambridge Crystallographic Data Centre
#                                CCDC 
#
#######################################################################
#
# If this CIF has been generated from an entry in the Cambridge 
# Structural Database, then it will include bibliographic, chemical, 
# crystal, experimental, refinement or atomic coordinate data resulting 
# from the CCDC's data processing and validation procedures.
#
#######################################################################

data_EHUHOE
_symmetry_cell_setting           monoclinic
_symmetry_space_group_name_H-M   'C 2/c'
_symmetry_Int_Tables_number      15
_space_group_name_Hall           '-C 2yn'
loop_
_symmetry_equiv_pos_site_id
_symmetry_equiv_pos_as_xyz
1 x,y,z
2 1/2+x,1/2+y,z
3 x,-y,1/2+z
4 1/2+x,1/2-y,1/2+z
5 -x,-y,-z
6 1/2-x,1/2-y,-z
7 -x,y,1/2-z
8 1/2-x,1/2+y,1/2-z
_cell_length_a                   26.583(5)
_cell_length_b                   8.1430(16)
_cell_length_c                   21.270(4)
_cell_angle_alpha                90
_cell_angle_beta                 117.11(3)
_cell_angle_gamma                90
_cell_volume                     4098.37
loop_
_atom_site_label
_atom_site_type_symbol
_atom_site_fract_x
_atom_site_fract_y
_atom_site_fract_z
Cd1 Cd 0.823851(9) 0.86324(3) 1.220787(10)
N1 N 0.89762(10) 0.8388(3) 1.33010(13)
N3 N 0.89884(11) 0.9461(4) 1.16159(14)
N4 N 0.75686(10) 1.1357(3) 1.22140(13)
N5 N 1.23264(10) 0.3008(3) 1.87111(13)
O1 O 0.89534(11) 0.7962(3) 1.17342(12)
O2 O 0.92843(12) 0.9941(4) 1.13484(16)
O3 O 0.86930(10) 1.0464(3) 1.17634(13)
O4 O 0.79649(9) 1.1000(3) 1.27969(12)
O5 O 0.72293(9) 1.2475(3) 1.21396(12)
O6 O 0.75114(9) 1.0558(3) 1.16773(11)
C2 C 0.94870(12) 0.7856(4) 1.34110(15)
H1 H 0.9551 0.7686 1.3021
C4 C 0.99224(13) 0.7548(4) 1.40748(15)
H5 H 1.0272 0.7199 1.4125
C5 C 0.98368(12) 0.7762(4) 1.46709(15)
C6 C 0.93133(12) 0.8380(4) 1.45533(15)
H6 H 0.9239 0.8591 1.4933
C7 C 0.89024(13) 0.8681(4) 1.38707(16)
H7 H 0.8558 0.9109 1.3806
C8 C 1.02778(11) 0.7304(3) 1.53873(14)
C9 C 1.02721(13) 0.7931(4) 1.59960(15)
H8 H 0.9996 0.8689 1.5952
C10 C 1.06681(13) 0.7446(4) 1.66610(15)
H9 H 1.0658 0.7879 1.7059
C11 C 1.10853(12) 0.6302(3) 1.67359(15)
C12 C 1.11001(13) 0.5681(4) 1.61329(16)
H10 H 1.1377 0.4928 1.6176
C13 C 1.07026(13) 0.6189(4) 1.54720(16)
H11 H 1.0719 0.5777 1.5074
C14 C 1.14899(13) 0.5740(4) 1.74229(16)
C15 C 1.18278(13) 0.5259(4) 1.79896(16)
C16 C 1.22579(12) 0.4650(4) 1.86542(15)
C17 C 1.25919(14) 0.5711(4) 1.91995(16)
H12 H 1.2531 0.6838 1.9152
C18 C 1.30168(14) 0.5058(4) 1.98136(17)
H13 H 1.3245 0.5742 2.0185
C19 C 1.30965(15) 0.3381(4) 1.98669(17)
H14 H 1.3383 0.2917 2.0271
C20 C 1.27442(14) 0.2403(4) 1.93091(16)
H15 H 1.2798 0.1272 1.9349
N5D N 0.76736(10) 0.6992(3) 1.12889(13)
O5G O 0.77707(9) 0.7475(3) 1.28604(12)
Cd1D Cd 1.176149(9) 0.13676(3) 1.779213(10)
Cd1G Cd 0.676149(9) 1.36324(3) 1.279213(10)
N2 N 0.85588(14) 0.5916(4) 1.53126(17)
C1 C 0.8895(2) 0.5839(6) 1.5902(3)
C3 C 0.9414(2) 0.5803(5) 1.6628(2)
H2 H 0.9749 0.5963 1.6572
H3 H 0.9434 0.4761 1.6848
H4 H 0.9384 0.6664 1.6917
loop_
_geom_bond_atom_site_label_1
_geom_bond_atom_site_label_2
_geom_bond_site_symmetry_1
_geom_bond_site_symmetry_2
Cd1 N1 1_555 1_555
N1 C2 1_555 1_555
N2 C1 1_555 1_555
N3 O1 1_555 1_555
N4 O4 1_555 1_555
N5 C16 1_555 1_555
O1 Cd1 1_555 1_555
O2 N3 1_555 1_555
O3 Cd1 1_555 1_555
O4 Cd1 1_555 1_555
O5 N4 1_555 1_555
O6 Cd1 1_555 1_555
C1 C3 1_555 1_555
C2 H1 1_555 1_555
C3 H2 1_555 1_555
H3 C3 1_555 1_555
H4 C3 1_555 1_555
C4 C2 1_555 1_555
H5 C4 1_555 1_555
C5 C4 1_555 1_555
C6 C5 1_555 1_555
H6 C6 1_555 1_555
C7 N1 1_555 1_555
H7 C7 1_555 1_555
C8 C5 1_555 1_555
C9 C8 1_555 1_555
H8 C9 1_555 1_555
C10 C9 1_555 1_555
H9 C10 1_555 1_555
C11 C10 1_555 1_555
C12 C11 1_555 1_555
H10 C12 1_555 1_555
C13 C8 1_555 1_555
H11 C13 1_555 1_555
C14 C11 1_555 1_555
C15 C14 1_555 1_555
C16 C15 1_555 1_555
C17 C16 1_555 1_555
H12 C17 1_555 1_555
C18 C17 1_555 1_555
H13 C18 1_555 1_555
C19 C18 1_555 1_555
H14 C19 1_555 1_555
C20 N5 1_555 1_555
H15 C20 1_555 1_555
N5D Cd1 1_555 1_555
O5G Cd1 1_555 1_555
Cd1D N5 1_555 1_555
Cd1G O5 1_555 1_555
N3 O3 1_555 1_555
N4 O6 1_555 1_555
C6 C7 1_555 1_555
C12 C13 1_555 1_555
C19 C20 1_555 1_555

#END
