
#######################################################################
#
#                 Cambridge Crystallographic Data Centre
#                                CCDC 
#
#######################################################################
#
# If this CIF has been generated from an entry in the Cambridge 
# Structural Database, then it will include bibliographic, chemical, 
# crystal, experimental, refinement or atomic coordinate data resulting 
# from the CCDC's data processing and validation procedures.
#
#######################################################################

data_EHUJAS
_symmetry_cell_setting           monoclinic
_symmetry_space_group_name_H-M   'P 21/n'
_symmetry_Int_Tables_number      14
_space_group_name_Hall           '-P 2yn'
loop_
_symmetry_equiv_pos_site_id
_symmetry_equiv_pos_as_xyz
1 x,y,z
2 1/2+x,1/2-y,1/2+z
3 -x,-y,-z
4 1/2-x,1/2+y,1/2-z
_cell_length_a                   8.5354(8)
_cell_length_b                   15.0114(14)
_cell_length_c                   14.7187(13)
_cell_angle_alpha                90
_cell_angle_beta                 99.674(2)
_cell_angle_gamma                90
_cell_volume                     1859.06
loop_
_atom_site_label
_atom_site_type_symbol
_atom_site_fract_x
_atom_site_fract_y
_atom_site_fract_z
Cd1 Cd 0.52505(2) 0.418857(15) 0.603898(15)
N1 N 0.7128(3) 0.49070(17) 0.70139(16)
N2 N 0.6147(3) 0.26886(18) 0.51343(18)
N3 N 1.6733(3) 0.66635(16) 1.35240(16)
N4 N 0.2735(3) 0.54773(17) 0.57580(18)
O1 O 0.5061(2) 0.31911(13) 0.47340(13)
O2 O 0.6568(3) 0.20144(15) 0.47616(15)
O3 O 0.6801(2) 0.29001(14) 0.59501(14)
O4 O 0.3327(2) 0.53510(14) 0.65854(14)
O5 O 0.1612(2) 0.59739(15) 0.55183(15)
O6 O 0.3369(2) 0.50478(13) 0.51397(13)
C1 C 0.8649(3) 0.4848(2) 0.6918(2)
H1 H 0.8900 0.4576 0.6378
C2 C 0.9880(4) 0.5166(2) 0.7571(2)
H2 H 1.0951 0.5109 0.7479
C3 C 0.9531(4) 0.5567(2) 0.8359(2)
C4 C 0.7940(3) 0.56589(19) 0.8445(2)
H3 H 0.7651 0.5950 0.8966
C5 C 0.6788(4) 0.5320(2) 0.7761(2)
H4 H 0.5705 0.5382 0.7825
C6 C 1.0767(3) 0.5864(2) 0.9087(2)
C7 C 1.1753(4) 0.6076(2) 0.9716(2)
C8 C 1.2997(3) 0.6299(2) 1.0469(2)
C9 C 1.4553(3) 0.60548(19) 1.0419(2)
H5 H 1.4779 0.5758 0.9885
C10 C 1.5775(3) 0.6240(2) 1.1140(2)
H6 H 1.6827 0.6054 1.1104
C11 C 1.5478(3) 0.6695(2) 1.19118(19)
C12 C 1.3934(3) 0.69638(19) 1.1956(2)
H7 H 1.3725 0.7288 1.2477
C13 C 1.2692(3) 0.6764(2) 1.1247(2)
H8 H 1.1638 0.6942 1.1289
C14 C 1.6833(3) 0.6912(2) 1.2656(2)
C15 C 1.8186(4) 0.7316(2) 1.2440(2)
H9 H 1.8230 0.7491 1.1824
C16 C 1.9470(3) 0.7460(2) 1.3133(2)
H10 H 2.0406 0.7737 1.2999
C17 C 1.9380(3) 0.7199(2) 1.4018(2)
H11 H 2.0257 0.7280 1.4502
C18 C 1.7994(3) 0.6818(2) 1.4187(2)
H12 H 1.7922 0.6655 1.4802
N3B N 0.3267(3) 0.33365(16) 0.64760(16)
O6B O 0.6631(2) 0.49522(13) 0.48603(13)
Cd1B Cd 1.47495(2) 0.581143(15) 1.396102(15)
Cd1B_2 Cd 0.47495(2) 0.581143(15) 0.396102(15)
loop_
_geom_bond_atom_site_label_1
_geom_bond_atom_site_label_2
_geom_bond_site_symmetry_1
_geom_bond_site_symmetry_2
Cd1 N1 1_555 1_555
N1 C1 1_555 1_555
N2 O1 1_555 1_555
N3 C14 1_555 1_555
N4 O4 1_555 1_555
O1 Cd1 1_555 1_555
O2 N2 1_555 1_555
O3 Cd1 1_555 1_555
O4 Cd1 1_555 1_555
O5 N4 1_555 1_555
O6 Cd1 1_555 1_555
C1 H1 1_555 1_555
C2 C1 1_555 1_555
H2 C2 1_555 1_555
C3 C2 1_555 1_555
C4 C3 1_555 1_555
H3 C4 1_555 1_555
C5 N1 1_555 1_555
H4 C5 1_555 1_555
C6 C3 1_555 1_555
C7 C6 1_555 1_555
C8 C7 1_555 1_555
C9 C8 1_555 1_555
H5 C9 1_555 1_555
C10 C9 1_555 1_555
H6 C10 1_555 1_555
C11 C10 1_555 1_555
C12 C11 1_555 1_555
H7 C12 1_555 1_555
C13 C8 1_555 1_555
H8 C13 1_555 1_555
C14 C11 1_555 1_555
C15 C14 1_555 1_555
H9 C15 1_555 1_555
C16 C15 1_555 1_555
H10 C16 1_555 1_555
C17 C16 1_555 1_555
H11 C17 1_555 1_555
C18 N3 1_555 1_555
H12 C18 1_555 1_555
N3B Cd1 1_555 1_555
O6B Cd1 1_555 1_555
Cd1B N3 1_555 1_555
Cd1B_2 O6 1_555 1_555
N2 O3 1_555 1_555
N4 O6 1_555 1_555
C4 C5 1_555 1_555
C12 C13 1_555 1_555
C17 C18 1_555 1_555
O6B Cd1B_2 1_555 1_555

#END
