
#######################################################################
#
#                 Cambridge Crystallographic Data Centre
#                                CCDC 
#
#######################################################################
#
# If this CIF has been generated from an entry in the Cambridge 
# Structural Database, then it will include bibliographic, chemical, 
# crystal, experimental, refinement or atomic coordinate data resulting 
# from the CCDC's data processing and validation procedures.
#
#######################################################################

data_EHUJUN
_symmetry_cell_setting           monoclinic
_symmetry_space_group_name_H-M   'P 21/n'
_symmetry_Int_Tables_number      14
_space_group_name_Hall           '-P 2yn'
loop_
_symmetry_equiv_pos_site_id
_symmetry_equiv_pos_as_xyz
1 x,y,z
2 1/2-x,1/2+y,1/2-z
3 -x,-y,-z
4 1/2+x,1/2-y,1/2+z
_cell_length_a                   9.0681(8)
_cell_length_b                   7.9226(7)
_cell_length_c                   11.1348(10)
_cell_angle_alpha                90
_cell_angle_beta                 110.691(2)
_cell_angle_gamma                90
_cell_volume                     748.359
loop_
_atom_site_label
_atom_site_type_symbol
_atom_site_fract_x
_atom_site_fract_y
_atom_site_fract_z
Cu1 Cu 0.65780(5) 0.17041(5) 0.22455(4)
N1 N 0.6855(3) 0.1040(3) 0.0561(3)
N2 N 0.5545(3) -0.0496(3) -0.1353(3)
C1 C 0.5665(4) 0.0148(4) -0.0211(3)
C2 C 0.8051(4) 0.1365(5) 0.0143(4)
H1 H 0.883(7) 0.205(7) 0.062(5)
C3 C 0.7997(5) 0.0793(5) -0.1043(4)
H2 H 0.880(7) 0.101(7) -0.126(5)
C4 C 0.6731(4) -0.0173(5) -0.1767(4)
H3 H 0.663(6) -0.071(8) -0.259(5)
O1 O 0.8887(3) 0.2048(3) 0.3061(2)
O2 O 0.6069(3) 0.2198(4) 0.3737(2)
O3 O 0.8880(4) -0.0676(3) 0.3429(3)
C5 C 0.9560(5) 0.0647(5) 0.3417(4)
H4 H 1.061(7) 0.073(7) 0.364(6)
O4 O 0.6377(4) 0.1639(4) 0.5759(3)
C6 C 0.6574(5) 0.1383(5) 0.4757(4)
H5 H 0.698(7) 0.054(8) 0.462(5)
Cu1B Cu 0.34220(5) -0.17041(5) -0.22455(4)
Cu1A Cu 0.84220(5) -0.32959(5) 0.27545(4)
Cu1A_2 Cu 0.84220(5) 0.67041(5) 0.27545(4)
N1B N 0.3145(3) -0.1040(3) -0.0561(3)
N2B N 0.4455(3) 0.0496(3) 0.1353(3)
C1B C 0.4335(4) -0.0148(4) 0.0211(3)
C2B C 0.1949(4) -0.1365(5) -0.0143(4)
H1B H 0.117(7) -0.205(7) -0.062(5)
C3B C 0.2003(5) -0.0793(5) 0.1043(4)
H2B H 0.120(7) -0.101(7) 0.126(5)
C4B C 0.3269(4) 0.0173(5) 0.1767(4)
H3B H 0.337(6) 0.071(8) 0.259(5)
O1A O 0.6113(3) 0.7048(3) 0.1939(2)
O1B O 0.1113(3) -0.2048(3) -0.3061(2)
O2B O 0.3931(3) -0.2198(4) -0.3737(2)
O3A O 0.6120(4) 0.4324(3) 0.1571(3)
O3C O 0.3880(4) -0.4324(3) -0.1571(3)
C5A C 0.5440(5) 0.5647(5) 0.1583(4)
H4A H 0.439(7) 0.573(7) 0.136(6)
O4B O 0.3623(4) -0.1639(4) -0.5759(3)
C6B C 0.3426(5) -0.1383(5) -0.4757(4)
H5B H 0.302(7) -0.054(8) -0.462(5)
loop_
_geom_bond_atom_site_label_1
_geom_bond_atom_site_label_2
_geom_bond_site_symmetry_1
_geom_bond_site_symmetry_2
Cu1 N1 1_555 1_555
N1 C1 1_555 1_555
N2 C1 1_555 1_555
C1 C1B 1_555 1_555
C2 N1 1_555 1_555
H1 C2 1_555 1_555
C3 C2 1_555 1_555
H2 C3 1_555 1_555
C4 N2 1_555 1_555
H3 C4 1_555 1_555
O1 Cu1 1_555 1_555
O2 Cu1 1_555 1_555
O3 C5 1_555 1_555
C5 O1 1_555 1_555
H4 C5 1_555 1_555
O4 C6 1_555 1_555
C6 O2 1_555 1_555
H5 C6 1_555 1_555
Cu1B N2 1_555 1_555
Cu1A O3 1_555 1_555
Cu1A_2 O1A 1_555 1_555
N1B Cu1B 1_555 1_555
N2B Cu1 1_555 1_555
C1B N1B 1_555 1_555
C2B N1B 1_555 1_555
H1B C2B 1_555 1_555
C3B C2B 1_555 1_555
H2B C3B 1_555 1_555
C4B N2B 1_555 1_555
H3B C4B 1_555 1_555
O1A C5A 1_555 1_555
O1B Cu1B 1_555 1_555
O2B Cu1B 1_555 1_555
O3A Cu1 1_555 1_555
O3C Cu1B 1_555 1_555
C5A O3A 1_555 1_555
H4A C5A 1_555 1_555
O4B C6B 1_555 1_555
C6B O2B 1_555 1_555
H5B C6B 1_555 1_555
C3 C4 1_555 1_555
N2B C1B 1_555 1_555
C3B C4B 1_555 1_555

#END
