
#######################################################################
#
#                 Cambridge Crystallographic Data Centre
#                                CCDC 
#
#######################################################################
#
# If this CIF has been generated from an entry in the Cambridge 
# Structural Database, then it will include bibliographic, chemical, 
# crystal, experimental, refinement or atomic coordinate data resulting 
# from the CCDC's data processing and validation procedures.
#
#######################################################################

data_EHUKAT
_symmetry_cell_setting           monoclinic
_symmetry_space_group_name_H-M   'C c'
_symmetry_Int_Tables_number      9
_space_group_name_Hall           'C -2yc'
loop_
_symmetry_equiv_pos_site_id
_symmetry_equiv_pos_as_xyz
1 x,y,z
2 x,-y,1/2+z
3 1/2+x,1/2+y,z
4 1/2+x,1/2-y,1/2+z
_cell_length_a                   38.754(8)
_cell_length_b                   10.189(2)
_cell_length_c                   8.4790(17)
_cell_angle_alpha                90
_cell_angle_beta                 102.13(3)
_cell_angle_gamma                90
_cell_volume                     3273.31
loop_
_atom_site_label
_atom_site_type_symbol
_atom_site_fract_x
_atom_site_fract_y
_atom_site_fract_z
Cd1 Cd 0.737470(15) 1.34094(2) 0.07905(4)
N1 N 0.67644(16) 1.3669(5) 0.0540(7)
N2 N 0.79628(15) 1.3741(5) 0.0641(6)
N3 N 0.74507(11) 1.0673(4) 0.2052(5)
N4 N 1.09701(15) 1.2852(6) -0.0693(8)
N5 N 0.36900(12) 1.2861(4) -0.0127(6)
N6 N 0.73611(9) 1.3632(3) 0.4537(5)
O1 O 0.72287(9) 1.2577(3) -0.1746(4)
H1 H 0.7254(17) 1.1772(16) -0.199(3)
H2 H 0.7215(16) 1.297(3) -0.2641(18)
O2 O 0.76761(9) 1.1555(3) 0.1885(5)
O3 O 0.75580(11) 0.9704(3) 0.2872(5)
O4 O 0.71431(10) 1.0836(4) 0.1385(6)
O5 O 0.74242(11) 1.4312(3) 0.3399(5)
O6 O 0.73694(16) 1.4194(2) 0.5876(7)
O7 O 0.72941(13) 1.2466(3) 0.4381(5)
C1 C 0.81180(12) 1.2838(4) -0.0162(5)
H3 H 0.7974 1.2171 -0.0746
C2 C 0.65489(13) 1.2746(5) -0.0216(5)
H4 H 0.6648 1.2039 -0.0701
C3 C 0.84743(13) 1.2837(4) -0.0178(6)
H5 H 0.8570 1.2181 -0.0760
C4 C 0.61875(13) 1.2764(5) -0.0329(6)
H6 H 0.6043 1.2085 -0.0886
C5 C 0.86936(18) 1.3811(6) 0.0671(7)
C6 C 0.60365(19) 1.3796(8) 0.0386(8)
C7 C 0.85338(14) 1.4741(5) 0.1507(8)
H7 H 0.8671 1.5418 0.2104
C8 C 0.62639(16) 1.4768(5) 0.1170(8)
H8 H 0.6173 1.5489 0.1664
C9 C 0.81771(13) 1.4666(5) 0.1454(7)
H9 H 0.8075 1.5308 0.2029
C10 C 0.66212(14) 1.4676(5) 0.1226(7)
H10 H 0.6772 1.5344 0.1764
C11 C 0.5661(2) 1.3807(9) 0.0361(9)
C12 C 0.90627(19) 1.3830(7) 0.0682(9)
C13 C 0.5352(2) 1.3817(8) 0.0406(8)
C14 C 0.93617(19) 1.3792(7) 0.0602(9)
C15 C 0.49883(19) 1.3816(8) 0.0530(7)
C16 C 0.97359(19) 1.3731(6) 0.0566(8)
C17 C 0.48518(14) 1.4817(5) 0.1339(6)
H11 H 0.5002 1.5507 0.1828
C18 C 0.99767(15) 1.4597(5) 0.1471(7)
H12 H 0.9897 1.5228 0.2139
C19 C 0.45004(13) 1.4813(5) 0.1437(6)
H13 H 0.4413 1.5502 0.1998
C20 C 1.03335(15) 1.4553(5) 0.1412(8)
H14 H 1.0494 1.5153 0.2037
C21 C 0.42692(18) 1.3814(7) 0.0725(7)
C22 C 1.04562(19) 1.3640(6) 0.0450(8)
C23 C 1.02208(14) 1.2780(5) -0.0453(7)
H15 H 1.0302 1.2156 -0.1123
C24 C 0.44140(14) 1.2785(5) -0.0083(7)
H16 H 0.4267 1.2083 -0.0560
C25 C 0.98647(14) 1.2813(5) -0.0399(7)
H17 H 0.9707 1.2205 -0.1025
C26 C 0.47659(15) 1.2805(5) -0.0177(7)
H18 H 0.4858 1.2121 -0.0730
C27 C 0.38923(19) 1.3810(6) 0.0807(7)
C28 C 1.08464(19) 1.3624(6) 0.0389(8)
C29 C 0.37414(13) 1.4707(4) 0.1698(6)
H19 H 0.3885 1.5351 0.2330
C30 C 1.10576(14) 1.4418(5) 0.1395(7)
H20 H 1.0969 1.4945 0.2146
C31 C 0.33834(14) 1.4667(5) 0.1670(7)
H21 H 0.3281 1.5279 0.2282
C32 C 1.14052(15) 1.4457(5) 0.1322(7)
H22 H 1.1557 1.5025 0.2040
C33 C 0.3176(2) 1.3729(7) 0.0746(9)
H23 H 0.2929 1.3678 0.0702
C34 C 1.15474(18) 1.3719(6) 0.0266(9)
H24 H 1.1791 1.3769 0.0252
C35 C 1.13262(17) 1.2909(6) -0.0763(9)
H25 H 1.1414 1.2389 -0.1522
C36 C 0.33441(14) 1.2856(5) -0.0124(7)
H26 H 0.3202 1.2211 -0.0761
O6A O 0.73694(16) 1.5806(2) 0.0876(7)
Cd1A Cd 0.737470(15) 1.65906(2) 0.57905(4)
loop_
_geom_bond_atom_site_label_1
_geom_bond_atom_site_label_2
_geom_bond_site_symmetry_1
_geom_bond_site_symmetry_2
Cd1 N1 1_555 1_555
N1 C2 1_555 1_555
N2 Cd1 1_555 1_555
N3 O2 1_555 1_555
N4 C28 1_555 1_555
N5 C27 1_555 1_555
N6 O5 1_555 1_555
O1 Cd1 1_555 1_555
H1 O1 1_555 1_555
H2 O1 1_555 1_555
O2 Cd1 1_555 1_555
O3 N3 1_555 1_555
O4 N3 1_555 1_555
O5 Cd1 1_555 1_555
O6 N6 1_555 1_555
O7 N6 1_555 1_555
C1 N2 1_555 1_555
H3 C1 1_555 1_555
C2 H4 1_555 1_555
C3 C1 1_555 1_555
H5 C3 1_555 1_555
C4 C2 1_555 1_555
H6 C4 1_555 1_555
C5 C3 1_555 1_555
C6 C4 1_555 1_555
C7 C5 1_555 1_555
H7 C7 1_555 1_555
C8 C6 1_555 1_555
H8 C8 1_555 1_555
C9 N2 1_555 1_555
H9 C9 1_555 1_555
C10 N1 1_555 1_555
H10 C10 1_555 1_555
C11 C6 1_555 1_555
C12 C5 1_555 1_555
C13 C11 1_555 1_555
C14 C12 1_555 1_555
C15 C13 1_555 1_555
C16 C14 1_555 1_555
C17 C15 1_555 1_555
H11 C17 1_555 1_555
C18 C16 1_555 1_555
H12 C18 1_555 1_555
C19 C17 1_555 1_555
H13 C19 1_555 1_555
C20 C18 1_555 1_555
H14 C20 1_555 1_555
C21 C19 1_555 1_555
C22 C20 1_555 1_555
C23 C22 1_555 1_555
H15 C23 1_555 1_555
C24 C21 1_555 1_555
H16 C24 1_555 1_555
C25 C16 1_555 1_555
H17 C25 1_555 1_555
C26 C15 1_555 1_555
H18 C26 1_555 1_555
C27 C21 1_555 1_555
C28 C22 1_555 1_555
C29 C27 1_555 1_555
H19 C29 1_555 1_555
C30 C28 1_555 1_555
H20 C30 1_555 1_555
C31 C29 1_555 1_555
H21 C31 1_555 1_555
C32 C30 1_555 1_555
H22 C32 1_555 1_555
C33 C31 1_555 1_555
H23 C33 1_555 1_555
C34 C32 1_555 1_555
H24 C34 1_555 1_555
C35 N4 1_555 1_555
H25 C35 1_555 1_555
C36 N5 1_555 1_555
H26 C36 1_555 1_555
O6A Cd1 1_555 1_555
Cd1A O6 1_555 1_555
C7 C9 1_555 1_555
C8 C10 1_555 1_555
C23 C25 1_555 1_555
C24 C26 1_555 1_555
C33 C36 1_555 1_555
C34 C35 1_555 1_555

#END
