
#######################################################################
#
#                 Cambridge Crystallographic Data Centre
#                                CCDC 
#
#######################################################################
#
# If this CIF has been generated from an entry in the Cambridge 
# Structural Database, then it will include bibliographic, chemical, 
# crystal, experimental, refinement or atomic coordinate data resulting 
# from the CCDC's data processing and validation procedures.
#
#######################################################################

data_EHULEZ
_symmetry_cell_setting           monoclinic
_symmetry_space_group_name_H-M   'C 2/c'
_symmetry_Int_Tables_number      15
_space_group_name_Hall           '-C 2yn'
loop_
_symmetry_equiv_pos_site_id
_symmetry_equiv_pos_as_xyz
1 x,y,z
2 -x,y,1/2-z
3 1/2+x,1/2+y,z
4 1/2-x,1/2+y,1/2-z
5 -x,-y,-z
6 x,-y,1/2+z
7 1/2-x,1/2-y,-z
8 1/2+x,1/2-y,1/2+z
_cell_length_a                   13.616(3)
_cell_length_b                   16.315(4)
_cell_length_c                   18.529(4)
_cell_angle_alpha                90
_cell_angle_beta                 91.739(3)
_cell_angle_gamma                90
_cell_volume                     4114.23
loop_
_atom_site_label
_atom_site_type_symbol
_atom_site_fract_x
_atom_site_fract_y
_atom_site_fract_z
Mn1 Mn 0.0000 0.24108(3) 0.2500
O1 O 0.0000 0.10615(12) 0.2500
H1 H -0.0433 0.0808 0.2314
O2 O 0.0000 0.37313(13) 0.2500
H2 H 0.0185 0.3999 0.2172
N1 N 0.05241(13) 0.23757(12) 0.36673(9)
N2 N -0.34050(14) 0.26340(12) 0.71061(10)
C1 C 0.10904(17) 0.29522(15) 0.39745(13)
H3 H 0.1349 0.3356 0.3681
C2 C 0.13130(16) 0.29809(15) 0.47080(13)
H4 H 0.1712 0.3396 0.4896
C3 C 0.09419(16) 0.23926(15) 0.51598(11)
C4 C 0.03658(17) 0.17854(14) 0.48375(12)
H5 H 0.0106 0.1370 0.5118
C5 C 0.01776(17) 0.17954(14) 0.41045(12)
H6 H -0.0209 0.1380 0.3902
C6 C 0.11234(16) 0.24101(16) 0.59648(11)
H7 H 0.1447 0.2921 0.6096
H8 H 0.1564 0.1965 0.6101
C7 C 0.01797(17) 0.23309(15) 0.63889(11)
H9 H -0.0138 0.1815 0.6266
H10 H 0.0347 0.2323 0.6902
C8 C -0.05337(17) 0.30305(15) 0.62309(13)
H11 H -0.0257 0.3534 0.6427
H12 H -0.0612 0.3097 0.5712
C9 C -0.15255(18) 0.28940(15) 0.65430(13)
C10 C -0.18112(17) 0.32646(15) 0.71701(13)
H13 H -0.1381 0.3614 0.7420
C11 C -0.27359(18) 0.31178(15) 0.74289(12)
H14 H -0.2903 0.3374 0.7857
C12 C -0.31190(19) 0.22690(15) 0.64970(14)
H15 H -0.3562 0.1923 0.6256
C13 C -0.22088(19) 0.23785(16) 0.62100(14)
H16 H -0.2051 0.2104 0.5789
Mn1F Mn -0.5000 0.25892(3) 0.7500
Mn1F_2 Mn 0.5000 0.25892(3) -0.2500
H1A H 0.0433 0.0808 0.2686
H2A H -0.0185 0.3999 0.2828
N1A N -0.05241(13) 0.23757(12) 0.13327(9)
N2A N 0.34050(14) 0.26340(12) -0.21061(10)
N2F N -0.15950(14) 0.23660(12) 0.28939(10)
N2G N 0.15950(14) 0.23660(12) 0.21061(10)
C1A C -0.10904(17) 0.29522(15) 0.10255(13)
H3A H -0.1349 0.3356 0.1319
C2A C -0.13130(16) 0.29809(15) 0.02920(13)
H4A H -0.1712 0.3396 0.0104
C3A C -0.09419(16) 0.23926(15) -0.01598(11)
C4A C -0.03658(17) 0.17854(14) 0.01625(12)
H5A H -0.0106 0.1370 -0.0118
C5A C -0.01776(17) 0.17954(14) 0.08955(12)
H6A H 0.0209 0.1380 0.1098
C6A C -0.11234(16) 0.24101(16) -0.09648(11)
H7A H -0.1447 0.2921 -0.1096
H8A H -0.1564 0.1965 -0.1101
C7A C -0.01797(17) 0.23309(15) -0.13889(11)
H9A H 0.0138 0.1815 -0.1266
H10A H -0.0347 0.2323 -0.1902
C8A C 0.05337(17) 0.30305(15) -0.12309(13)
H11A H 0.0257 0.3534 -0.1427
H12A H 0.0612 0.3097 -0.0712
C9A C 0.15255(18) 0.28940(15) -0.15430(13)
C10A C 0.18112(17) 0.32646(15) -0.21701(13)
H13A H 0.1381 0.3614 -0.2420
C11A C 0.27359(18) 0.31178(15) -0.24289(12)
H14A H 0.2903 0.3374 -0.2857
C12A C 0.31190(19) 0.22690(15) -0.14970(14)
H15A H 0.3562 0.1923 -0.1256
C13A C 0.22088(19) 0.23785(16) -0.12100(14)
H16A H 0.2051 0.2104 -0.0789
O3 O 0.05548(13) 0.45650(12) 0.13038(9)
O4 O 0.18383(13) 0.49605(12) 0.19348(10)
O5 O 0.35612(12) 0.51757(12) 0.17942(9)
H17 H 0.2637 0.5051 0.1912
O6 O 0.46515(12) 0.47426(11) 0.10343(8)
N3 N 0.31705(17) 0.50669(15) -0.13984(12)
H18 H 0.2791 0.5085 -0.1778
H19 H 0.3794 0.5126 -0.1436
C14 C 0.19865(17) 0.48138(13) 0.06439(13)
C15 C 0.30117(16) 0.48834(13) 0.05690(12)
C16 C 0.33827(17) 0.49361(14) -0.01193(13)
H20 H 0.4060 0.4967 -0.0167
C17 C 0.2785(2) 0.49445(15) -0.07356(14)
C18 C 0.17822(19) 0.48573(15) -0.06754(14)
H21 H 0.1366 0.4852 -0.1083
C19 C 0.14149(18) 0.47778(14) 0.00090(14)
H22 H 0.0743 0.4695 0.0047
C20 C 0.1417(2) 0.47732(15) 0.13228(15)
C21 C 0.38044(19) 0.49184(15) 0.11681(13)
loop_
_geom_bond_atom_site_label_1
_geom_bond_atom_site_label_2
_geom_bond_site_symmetry_1
_geom_bond_site_symmetry_2
Mn1 O1 1_555 1_555
O1 H1 1_555 1_555
O2 Mn1 1_555 1_555
H2 O2 1_555 1_555
N1 Mn1 1_555 1_555
N2 C11 1_555 1_555
C1 N1 1_555 1_555
H3 C1 1_555 1_555
C2 C1 1_555 1_555
H4 C2 1_555 1_555
C3 C2 1_555 1_555
C4 C3 1_555 1_555
H5 C4 1_555 1_555
C5 N1 1_555 1_555
H6 C5 1_555 1_555
C6 C3 1_555 1_555
H7 C6 1_555 1_555
H8 C6 1_555 1_555
C7 C6 1_555 1_555
H9 C7 1_555 1_555
H10 C7 1_555 1_555
C8 C7 1_555 1_555
H11 C8 1_555 1_555
H12 C8 1_555 1_555
C9 C8 1_555 1_555
C10 C9 1_555 1_555
H13 C10 1_555 1_555
C11 C10 1_555 1_555
H14 C11 1_555 1_555
C12 N2 1_555 1_555
H15 C12 1_555 1_555
C13 C9 1_555 1_555
H16 C13 1_555 1_555
O3 C20 1_555 1_555
O4 H17 1_555 1_555
O5 C21 1_555 1_555
O6 C21 1_555 1_555
N3 H18 1_555 1_555
H19 N3 1_555 1_555
C14 C15 1_555 1_555
C15 C16 1_555 1_555
C16 H20 1_555 1_555
C17 N3 1_555 1_555
C18 C17 1_555 1_555
H21 C18 1_555 1_555
C19 C14 1_555 1_555
H22 C19 1_555 1_555
C20 O4 1_555 1_555
C21 C15 1_555 1_555
Mn1F N2 1_555 1_555
Mn1F_2 N2A 1_555 1_555
H1A O1 1_555 1_555
H2A O2 1_555 1_555
N1A Mn1 1_555 1_555
N2A C11A 1_555 1_555
N2F Mn1 1_555 1_555
N2G Mn1 1_555 1_555
C1A N1A 1_555 1_555
H3A C1A 1_555 1_555
C2A C1A 1_555 1_555
H4A C2A 1_555 1_555
C3A C2A 1_555 1_555
C4A C3A 1_555 1_555
H5A C4A 1_555 1_555
C5A N1A 1_555 1_555
H6A C5A 1_555 1_555
C6A C3A 1_555 1_555
H7A C6A 1_555 1_555
H8A C6A 1_555 1_555
C7A C6A 1_555 1_555
H9A C7A 1_555 1_555
H10A C7A 1_555 1_555
C8A C7A 1_555 1_555
H11A C8A 1_555 1_555
H12A C8A 1_555 1_555
C9A C8A 1_555 1_555
C10A C9A 1_555 1_555
H13A C10A 1_555 1_555
C11A C10A 1_555 1_555
H14A C11A 1_555 1_555
C12A N2A 1_555 1_555
H15A C12A 1_555 1_555
C13A C9A 1_555 1_555
H16A C13A 1_555 1_555
C4 C5 1_555 1_555
C12 C13 1_555 1_555
C14 C20 1_555 1_555
C16 C17 1_555 1_555
C18 C19 1_555 1_555
C4A C5A 1_555 1_555
C12A C13A 1_555 1_555

#END
