
#######################################################################
#
#                 Cambridge Crystallographic Data Centre
#                                CCDC 
#
#######################################################################
#
# If this CIF has been generated from an entry in the Cambridge 
# Structural Database, then it will include bibliographic, chemical, 
# crystal, experimental, refinement or atomic coordinate data resulting 
# from the CCDC's data processing and validation procedures.
#
#######################################################################

data_EHUNIF
_symmetry_cell_setting           triclinic
_symmetry_space_group_name_H-M   'P -1'
_symmetry_Int_Tables_number      2
_space_group_name_Hall           '-P 1'
loop_
_symmetry_equiv_pos_site_id
_symmetry_equiv_pos_as_xyz
1 x,y,z
2 -x,-y,-z
_cell_length_a                   15.2328(18)
_cell_length_b                   17.196(2)
_cell_length_c                   26.801(3)
_cell_angle_alpha                71.912(2)
_cell_angle_beta                 88.272(2)
_cell_angle_gamma                67.581(2)
_cell_volume                     6137.83
loop_
_atom_site_label
_atom_site_type_symbol
_atom_site_fract_x
_atom_site_fract_y
_atom_site_fract_z
Yb1 Yb 0.56072(3) 1.12404(3) 0.096918(17)
Yb2 Yb 0.34421(3) 1.70099(3) -0.041420(16)
Yb3 Yb 0.34269(3) 1.78848(3) -0.183210(16)
Yb4 Yb 0.81976(3) 1.06774(3) 0.112777(16)
Yb5 Yb 1.15097(3) 0.31633(3) 0.514500(17)
Yb6 Yb 0.87861(3) 0.74342(3) 0.337755(16)
Yb7 Yb 0.69037(3) 0.90401(3) 0.393382(16)
Yb8 Yb 0.05344(3) 2.14994(3) -0.423180(17)
O1 O 0.0929(5) 1.8606(5) -0.0597(3)
O2 O 0.1966(6) 1.7224(5) -0.0155(3)
O3 O -0.1697(5) 2.0200(5) 0.0400(3)
O4 O -0.0440(6) 1.8964(6) 0.0479(3)
O5 O 0.3678(6) 1.5988(5) -0.0850(3)
O6 O 0.3184(5) 1.6618(5) -0.1715(3)
O7 O 0.4969(6) 1.3491(5) 0.0043(3)
O8 O 0.4479(5) 1.2393(5) 0.0349(3)
O9 O 0.3865(6) 1.3565(6) 0.1539(3)
O10 O 0.5242(6) 1.3047(6) 0.2028(3)
O11 O 0.4776(6) 1.1309(5) 0.1666(3)
O12 O 0.4531(5) 1.1129(5) 0.2509(3)
O13 O 0.6430(5) 0.9699(5) 0.1238(3)
O14 O 0.7963(6) 0.9330(5) 0.1471(3)
O15 O 0.7367(5) 0.8010(5) 0.2834(3)
O16 O 0.6337(5) 0.8976(5) 0.3173(3)
O17 O 0.1049(6) 1.9562(5) -0.1937(3)
O18 O 0.2042(5) 1.8632(5) -0.2320(3)
O19 O 0.1220(5) 1.9991(4) -0.3833(3)
O20 O 0.2769(6) 1.9632(5) -0.3616(3)
O21 O 0.9093(6) 0.6436(5) 0.2854(3)
O22 O 0.8917(6) 0.5959(5) 0.3693(3)
O23 O 1.0112(6) 0.3443(5) 0.4672(3)
O24 O 0.9428(5) 0.2535(5) 0.5091(3)
O25 O 0.6955(5) 0.7226(5) 0.5035(3)
O26 O 0.5934(5) 0.8393(5) 0.4402(3)
O27 O 0.4595(6) 0.9019(5) 0.5595(3)
O28 O 0.3412(5) 1.0364(5) 0.5399(3)
O29 O 1.1467(6) 0.4186(5) 0.4356(3)
O30 O 1.1306(6) 0.5524(5) 0.4370(3)
O31 O 1.0425(5) 0.7129(5) 0.3313(2)
O32 O 1.0377(6) 0.8234(5) 0.3593(3)
O33 O 0.3481(6) 1.7170(5) 0.0455(3)
O34 O 0.3721(7) 1.5570(5) 0.0187(3)
O35 O 0.2420(5) 1.7889(4) -0.1185(2)
O36 O 0.5636(5) 1.2546(4) 0.1081(2)
O37 O 0.6825(5) 1.1535(4) 0.0550(2)
O38 O 0.9736(5) 0.9558(5) 0.1246(3)
O39 O 0.5842(6) 1.0800(5) 0.0138(3)
O40 O 0.6833(5) 1.0897(4) 0.1604(2)
O41 O 0.3735(6) 1.8859(6) -0.2585(3)
O42 O 0.8982(6) 0.8399(5) 0.2555(3)
O43 O 0.5441(5) 1.0273(5) 0.3637(3)
O44 O 0.8338(5) 0.8738(4) 0.3541(2)
O45 O 0.7667(5) 0.7478(4) 0.4007(2)
O46 O 0.9495(5) 0.7094(5) 0.4223(2)
O47 O 0.8162(5) 0.8315(4) 0.4592(2)
O48 O 1.1140(7) 0.4450(5) 0.5311(3)
O49 O 0.0922(6) 2.0868(5) -0.4965(3)
O50 O -0.0604(6) 2.0869(5) -0.4294(3)
O51 O 0.4486(6) 1.0604(5) 0.0878(3)
N1 N -0.1335(7) 1.7880(6) -0.0020(3)
N2 N -0.1158(7) 1.9200(6) -0.1080(3)
N3 N 0.4288(7) 1.3504(6) -0.1078(3)
N4 N 0.2265(7) 1.5047(6) -0.0826(4)
N5 N 0.2764(9) 1.2602(7) 0.2999(4)
N6 N 0.1787(8) 1.3195(7) 0.1938(4)
N7 N 0.6974(7) 0.6971(6) 0.2018(3)
N8 N 0.5134(7) 0.8558(6) 0.1694(3)
N9 N -0.0151(7) 1.8997(6) -0.3343(3)
N10 N 0.1665(7) 1.7374(6) -0.2855(3)
N11 N 0.9354(7) 0.3426(6) 0.3601(3)
N12 N 0.7455(7) 0.5140(6) 0.3765(3)
N13 N 0.3688(7) 0.7796(6) 0.5194(3)
N14 N 0.3866(6) 0.8967(6) 0.4079(3)
N15 N 1.2436(7) 0.5872(6) 0.2861(4)
N16 N 1.3402(7) 0.5855(6) 0.3820(4)
C1 C 0.1125(8) 1.7820(8) -0.0305(4)
C2 C 0.0329(8) 1.7546(7) -0.0112(4)
C3 C 0.0513(9) 1.6669(7) 0.0211(4)
H1 H 0.1140 1.6257 0.0301
C4 C -0.0202(9) 1.6420(8) 0.0392(5)
H2 H -0.0070 1.5835 0.0598
C5 C -0.1137(9) 1.7034(8) 0.0271(4)
H3 H -0.1631 1.6857 0.0393
C6 C -0.0640(8) 1.8131(8) -0.0213(4)
C7 C -0.1017(7) 1.9080(7) -0.0568(4)
C8 C -0.1632(9) 2.0036(9) -0.1400(5)
H4 H -0.1716 2.0127 -0.1759
C9 C -0.1996(8) 2.0759(8) -0.1234(4)
H5 H -0.2341 2.1322 -0.1470
C10 C -0.1837(8) 2.0631(7) -0.0708(4)
H6 H -0.2059 2.1117 -0.0587
C11 C -0.1344(8) 1.9779(7) -0.0351(4)
C12 C -0.1141(9) 1.9634(7) 0.0220(4)
C13 C 0.3570(8) 1.5965(8) -0.1306(4)
C14 C 0.3971(8) 1.5057(7) -0.1383(4)
C15 C 0.4554(9) 1.4940(7) -0.1780(4)
H7 H 0.4637 1.5425 -0.2018
C16 C 0.5011(9) 1.4113(8) -0.1823(4)
H8 H 0.5410 1.4020 -0.2086
C17 C 0.4857(9) 1.3419(8) -0.1460(5)
H9 H 0.5172 1.2853 -0.1485
C18 C 0.3839(8) 1.4317(6) -0.1042(4)
C19 C 0.3148(8) 1.4401(7) -0.0647(4)
C20 C 0.1586(9) 1.5131(8) -0.0486(5)
H10 H 0.0983 1.5578 -0.0607
C21 C 0.1746(9) 1.4593(8) 0.0020(5)
H11 H 0.1258 1.4675 0.0239
C22 C 0.2638(8) 1.3920(8) 0.0213(4)
H12 H 0.2756 1.3545 0.0561
C23 C 0.3344(8) 1.3821(6) -0.0124(4)
C24 C 0.4350(8) 1.3185(8) 0.0099(4)
C25 C 0.4358(8) 1.3245(8) 0.1967(5)
C26 C 0.3919(8) 1.3068(7) 0.2483(4)
C27 C 0.4319(10) 1.3136(9) 0.2917(5)
H13 H 0.4821 1.3323 0.2888
C28 C 0.3962(12) 1.2923(10) 0.3385(5)
H14 H 0.4225 1.2951 0.3684
C29 C 0.3208(13) 1.2666(9) 0.3413(5)
H15 H 0.2980 1.2522 0.3741
C30 C 0.3164(9) 1.2804(7) 0.2529(4)
C31 C 0.2704(8) 1.2667(8) 0.2102(5)
C32 C 0.1334(10) 1.3083(10) 0.1572(6)
H16 H 0.0688 1.3436 0.1478
C33 C 0.1781(10) 1.2457(10) 0.1318(5)
H17 H 0.1448 1.2404 0.1053
C34 C 0.2737(10) 1.1920(9) 0.1472(5)
H18 H 0.3054 1.1493 0.1313
C35 C 0.3216(8) 1.2014(7) 0.1857(4)
C36 C 0.4249(8) 1.1444(7) 0.2026(4)
C37 C 0.7250(8) 0.9143(7) 0.1421(4)
C38 C 0.7427(8) 0.8171(7) 0.1601(4)
C39 C 0.8257(9) 0.7587(7) 0.1457(4)
H19 H 0.8700 0.7787 0.1276
C40 C 0.8378(10) 0.6712(8) 0.1595(5)
H20 H 0.8898 0.6313 0.1492
C41 C 0.7750(9) 0.6423(7) 0.1881(4)
H21 H 0.7865 0.5821 0.1984
C42 C 0.6820(8) 0.7824(7) 0.1886(4)
C43 C 0.5881(7) 0.8395(6) 0.2028(4)
C44 C 0.4261(8) 0.9051(8) 0.1782(4)
H22 H 0.3747 0.9174 0.1550
C45 C 0.4081(9) 0.9382(8) 0.2192(5)
H23 H 0.3459 0.9710 0.2243
C46 C 0.4837(9) 0.9220(8) 0.2527(4)
H24 H 0.4726 0.9446 0.2807
C47 C 0.5770(8) 0.8726(7) 0.2458(4)
C48 C 0.6556(8) 0.8560(7) 0.2855(4)
C49 C 0.1224(8) 1.9164(7) -0.2265(4)
C50 C 0.0428(7) 1.9329(7) -0.2656(4)
C51 C -0.0485(8) 1.9922(8) -0.2634(4)
H25 H -0.0589 2.0242 -0.2399
C52 C -0.1229(8) 2.0035(8) -0.2957(4)
H26 H -0.1849 2.0416 -0.2942
C53 C -0.1023(9) 1.9556(9) -0.3308(4)
H27 H -0.1524 1.9631 -0.3533
C54 C 0.0560(7) 1.8879(7) -0.3020(4)
C55 C 0.1525(8) 1.8230(7) -0.3097(4)
C56 C 0.2481(9) 1.6754(7) -0.2928(4)
H28 H 0.2571 1.6159 -0.2784
C57 C 0.3173(9) 1.6948(8) -0.3198(4)
H29 H 0.3735 1.6497 -0.3225
C58 C 0.3037(8) 1.7816(7) -0.3431(4)
H30 H 0.3508 1.7963 -0.3617
C59 C 0.2188(8) 1.8484(7) -0.3389(4)
C60 C 0.2049(8) 1.9443(7) -0.3632(4)
C61 C 0.9036(8) 0.5827(8) 0.3249(4)
C62 C 0.9225(7) 0.4939(6) 0.3210(4)
C63 C 0.9719(8) 0.4710(8) 0.2801(4)
H31 H 0.9811 0.5147 0.2524
C64 C 1.0080(8) 0.3839(7) 0.2799(5)
H32 H 1.0419 0.3675 0.2528
C65 C 0.9909(9) 0.3232(8) 0.3220(5)
H33 H 1.0202 0.2636 0.3244
C66 C 0.9010(7) 0.4274(6) 0.3588(4)
C67 C 0.8308(8) 0.4455(6) 0.3974(4)
C68 C 0.6761(8) 0.5304(8) 0.4093(5)
H34 H 0.6195 0.5797 0.3957
C69 C 0.6830(9) 0.4800(9) 0.4608(5)
H35 H 0.6319 0.4924 0.4811
C70 C 0.7686(8) 0.4104(7) 0.4814(4)
H36 H 0.7760 0.3744 0.5163
C71 C 0.8448(7) 0.3929(7) 0.4505(4)
C72 C 0.9409(8) 0.3262(7) 0.4770(4)
C73 C 0.6114(8) 0.7727(8) 0.4808(4)
C74 C 0.5352(8) 0.7449(7) 0.5051(4)
C75 C 0.5577(9) 0.6582(7) 0.5389(4)
H37 H 0.6208 0.6175 0.5457
C76 C 0.4871(9) 0.6327(8) 0.5619(5)
H38 H 0.5013 0.5747 0.5839
C77 C 0.3941(10) 0.6956(9) 0.5515(5)
H39 H 0.3465 0.6785 0.5678
C78 C 0.4376(9) 0.8030(7) 0.4964(4)
C79 C 0.4016(7) 0.8953(7) 0.4579(4)
C80 C 0.3463(8) 0.9778(8) 0.3712(4)
H40 H 0.3371 0.9810 0.3363
C81 C 0.3185(8) 1.0550(8) 0.3826(4)
H41 H 0.2881 1.1095 0.3564
C82 C 0.3361(8) 1.0510(7) 0.4339(4)
H42 H 0.3197 1.1030 0.4422
C83 C 0.3777(8) 0.9701(7) 0.4723(4)
C84 C 0.3960(8) 0.9688(7) 0.5278(4)
C85 C 1.1501(7) 0.4939(7) 0.4147(4)
C86 C 1.1791(8) 0.5122(7) 0.3592(4)
C87 C 1.1649(8) 0.4648(7) 0.3294(4)
H43 H 1.1397 0.4221 0.3439
C88 C 1.1881(10) 0.4809(8) 0.2773(5)
H44 H 1.1780 0.4500 0.2567
C89 C 1.2261(10) 0.5429(9) 0.2578(5)
H45 H 1.2404 0.5548 0.2229
C90 C 1.2173(8) 0.5747(7) 0.3352(4)
C91 C 1.2480(8) 0.6249(7) 0.3637(4)
C92 C 1.3769(9) 0.6302(8) 0.4037(5)
H46 H 1.4407 0.6032 0.4173
C93 C 1.3246(10) 0.7115(9) 0.4060(5)
H47 H 1.3533 0.7405 0.4197
C94 C 1.2302(9) 0.7521(8) 0.3885(4)
H48 H 1.1938 0.8075 0.3915
C95 C 1.1879(8) 0.7088(7) 0.3656(4)
C96 C 1.0825(8) 0.7483(7) 0.3506(4)
O68 O 1.161(2) 0.2525(19) 0.4338(11)
Yb2A Yb 0.65579(3) 1.29901(3) 0.041420(16)
Yb3A Yb 0.65731(3) 1.21152(3) 0.183210(16)
Yb4A Yb 0.18024(3) 1.93226(3) -0.112777(16)
Yb4_2 Yb -0.18024(3) 2.06774(3) 0.112777(16)
Yb5A Yb 0.84903(3) 0.68367(3) 0.485500(17)
Yb7A Yb 0.30963(3) 2.09599(3) -0.393382(16)
Yb7A_2 Yb 0.30963(3) 1.09599(3) 0.606618(16)
Yb8_2 Yb 1.05344(3) 0.14994(3) 0.576820(17)
Yb8A Yb 0.94656(3) 0.85006(3) 0.423180(17)
O1A O 0.9071(5) 1.1394(5) 0.0597(3)
O3_2 O 0.8303(5) 1.0200(5) 0.0400(3)
O7A O 0.5031(6) 1.6509(5) -0.0043(3)
O10A O 0.4758(6) 1.6953(6) -0.2028(3)
O17A O 0.8951(6) 1.0438(5) 0.1937(3)
O20A O 0.7231(6) 1.0368(5) 0.3616(3)
O24_2 O -0.0572(5) 2.2535(5) -0.4909(3)
O25A O 1.3045(5) 0.2774(5) 0.4965(3)
O28A O 0.6588(5) 0.9636(5) 0.4601(3)
O32A O -0.0377(6) 2.1766(5) -0.3593(3)
O35A O 0.7580(5) 1.2111(4) 0.1185(2)
O36A O 0.4364(5) 1.7454(4) -0.1081(2)
O37A O 0.3175(5) 1.8465(4) -0.0550(2)
O40A O 0.3167(5) 1.9103(4) -0.1604(2)
O44A O 0.1662(5) 2.1262(4) -0.3541(2)
O45A O 1.2333(5) 0.2522(4) 0.5993(2)
O46A O 1.0505(5) 0.2906(5) 0.5777(2)
O46A_2 O 0.0505(5) 2.2906(5) -0.4223(2)
O47A O 1.1838(5) 0.1685(4) 0.5408(2)
O47A_2 O 0.1838(5) 2.1685(4) -0.4592(2)
O52 O 0.5179(9) 0.7618(7) 0.3676(4)
O53 O 0.6264(8) 0.5912(7) 0.2794(4)
O54 O 0.8917(7) 0.3630(7) 0.1844(3)
O55 O 0.9317(7) 0.2295(7) 0.1361(4)
O56 O 0.2760(9) 0.5288(7) 0.1080(4)
O57 O 0.1045(11) 0.5238(10) 0.1528(5)
O58 O 0.9529(6) 0.1679(5) 0.4184(3)
O59 O 0.4962(9) 0.4982(7) 0.3111(4)
O60 O 0.1701(6) 0.8972(5) 0.5151(3)
O61 O 0.9188(8) 0.1852(7) 0.7837(4)
O62 O 0.5532(8) 0.2824(8) 0.7166(4)
O63 O 0.9259(10) 0.2648(9) 0.8788(5)
O64 O 0.7383(7) 0.3169(7) 0.8656(4)
O65 O 0.4395(6) 0.1740(5) 0.9300(3)
O66 O 0.3336(6) 0.0956(5) 0.9995(3)
O67 O 0.7103(7) 0.2727(6) 0.7709(3)
O69 O 0.9631(17) 0.316(2) 0.7935(12)
loop_
_geom_bond_atom_site_label_1
_geom_bond_atom_site_label_2
_geom_bond_site_symmetry_1
_geom_bond_site_symmetry_2
Yb1 O8 1_555 1_555
Yb2 O2 1_555 1_555
Yb3 O6 1_555 1_555
Yb4 O14 1_555 1_555
Yb5 O23 1_555 1_555
Yb6 O15 1_555 1_555
Yb7 O16 1_555 1_555
Yb8 O19 1_555 1_555
O1 C1 1_555 1_555
O2 C1 1_555 1_555
O3 C12 1_555 1_555
O4 C12 1_555 1_555
O5 Yb2 1_555 1_555
O6 C13 1_555 1_555
O7 C24 1_555 1_555
O8 C24 1_555 1_555
O9 C25 1_555 1_555
O10 C25 1_555 1_555
O11 Yb1 1_555 1_555
O12 C36 1_555 1_555
O13 Yb1 1_555 1_555
O14 C37 1_555 1_555
O15 C48 1_555 1_555
O16 C48 1_555 1_555
O17 C49 1_555 1_555
O18 Yb3 1_555 1_555
O19 C60 1_555 1_555
O20 C60 1_555 1_555
O21 Yb6 1_555 1_555
O22 Yb6 1_555 1_555
O23 C72 1_555 1_555
O24 C72 1_555 1_555
O25 C73 1_555 1_555
O26 Yb7 1_555 1_555
O27 C84 1_555 1_555
O28 C84 1_555 1_555
O29 Yb5 1_555 1_555
O30 C85 1_555 1_555
O31 Yb6 1_555 1_555
O32 C96 1_555 1_555
O33 Yb2 1_555 1_555
O34 Yb2 1_555 1_555
O35 Yb2 1_555 1_555
O36 Yb1 1_555 1_555
O37 Yb1 1_555 1_555
O38 Yb4 1_555 1_555
O39 Yb1 1_555 1_555
O40 Yb1 1_555 1_555
O41 Yb3 1_555 1_555
O42 Yb6 1_555 1_555
O43 Yb7 1_555 1_555
O44 Yb6 1_555 1_555
O45 Yb6 1_555 1_555
O46 Yb6 1_555 1_555
O47 Yb7 1_555 1_555
O48 Yb5 1_555 1_555
O49 Yb8 1_555 1_555
O50 Yb8 1_555 1_555
O51 Yb1 1_555 1_555
N1 C5 1_555 1_555
N2 C7 1_555 1_555
N3 C17 1_555 1_555
N4 C19 1_555 1_555
N5 C29 1_555 1_555
N6 C31 1_555 1_555
N7 C41 1_555 1_555
N8 C43 1_555 1_555
N9 C53 1_555 1_555
N10 C55 1_555 1_555
N11 C65 1_555 1_555
N12 C67 1_555 1_555
N13 C77 1_555 1_555
N14 C79 1_555 1_555
N15 C89 1_555 1_555
N16 C91 1_555 1_555
C1 C2 1_555 1_555
C2 C3 1_555 1_555
C3 H1 1_555 1_555
C4 C3 1_555 1_555
H2 C4 1_555 1_555
C5 C4 1_555 1_555
H3 C5 1_555 1_555
C6 N1 1_555 1_555
C7 C6 1_555 1_555
C8 N2 1_555 1_555
H4 C8 1_555 1_555
C9 C8 1_555 1_555
H5 C9 1_555 1_555
C10 C9 1_555 1_555
H6 C10 1_555 1_555
C11 C7 1_555 1_555
C12 C11 1_555 1_555
C13 O5 1_555 1_555
C14 C13 1_555 1_555
C15 C14 1_555 1_555
H7 C15 1_555 1_555
C16 C15 1_555 1_555
H8 C16 1_555 1_555
C17 C16 1_555 1_555
H9 C17 1_555 1_555
C18 N3 1_555 1_555
C19 C18 1_555 1_555
C20 N4 1_555 1_555
H10 C20 1_555 1_555
C21 C20 1_555 1_555
H11 C21 1_555 1_555
C22 C21 1_555 1_555
H12 C22 1_555 1_555
C23 C19 1_555 1_555
C24 C23 1_555 1_555
C25 C26 1_555 1_555
C26 C27 1_555 1_555
C27 H13 1_555 1_555
C28 C27 1_555 1_555
H14 C28 1_555 1_555
C29 C28 1_555 1_555
H15 C29 1_555 1_555
C30 N5 1_555 1_555
C31 C30 1_555 1_555
C32 N6 1_555 1_555
H16 C32 1_555 1_555
C33 C32 1_555 1_555
H17 C33 1_555 1_555
C34 C33 1_555 1_555
H18 C34 1_555 1_555
C35 C31 1_555 1_555
C36 O11 1_555 1_555
C37 O13 1_555 1_555
C38 C37 1_555 1_555
C39 C38 1_555 1_555
H19 C39 1_555 1_555
C40 C39 1_555 1_555
H20 C40 1_555 1_555
C41 C40 1_555 1_555
H21 C41 1_555 1_555
C42 N7 1_555 1_555
C43 C42 1_555 1_555
C44 N8 1_555 1_555
H22 C44 1_555 1_555
C45 C44 1_555 1_555
H23 C45 1_555 1_555
C46 C45 1_555 1_555
H24 C46 1_555 1_555
C47 C43 1_555 1_555
C48 C47 1_555 1_555
C49 O18 1_555 1_555
C50 C49 1_555 1_555
C51 C50 1_555 1_555
H25 C51 1_555 1_555
C52 C51 1_555 1_555
H26 C52 1_555 1_555
C53 C52 1_555 1_555
H27 C53 1_555 1_555
C54 N9 1_555 1_555
C55 C54 1_555 1_555
C56 N10 1_555 1_555
H28 C56 1_555 1_555
C57 C56 1_555 1_555
H29 C57 1_555 1_555
C58 C57 1_555 1_555
H30 C58 1_555 1_555
C59 C55 1_555 1_555
C60 C59 1_555 1_555
C61 O21 1_555 1_555
C62 C61 1_555 1_555
C63 C62 1_555 1_555
H31 C63 1_555 1_555
C64 C63 1_555 1_555
H32 C64 1_555 1_555
C65 C64 1_555 1_555
H33 C65 1_555 1_555
C66 N11 1_555 1_555
C67 C66 1_555 1_555
C68 N12 1_555 1_555
H34 C68 1_555 1_555
C69 C68 1_555 1_555
H35 C69 1_555 1_555
C70 C69 1_555 1_555
H36 C70 1_555 1_555
C71 C67 1_555 1_555
C72 C71 1_555 1_555
C73 O26 1_555 1_555
C74 C73 1_555 1_555
C75 C74 1_555 1_555
H37 C75 1_555 1_555
C76 C75 1_555 1_555
H38 C76 1_555 1_555
C77 C76 1_555 1_555
H39 C77 1_555 1_555
C78 N13 1_555 1_555
C79 C78 1_555 1_555
C80 N14 1_555 1_555
H40 C80 1_555 1_555
C81 C80 1_555 1_555
H41 C81 1_555 1_555
C82 C81 1_555 1_555
H42 C82 1_555 1_555
C83 C79 1_555 1_555
C84 C83 1_555 1_555
C85 O29 1_555 1_555
C86 C85 1_555 1_555
C87 C86 1_555 1_555
H43 C87 1_555 1_555
C88 C87 1_555 1_555
H44 C88 1_555 1_555
C89 C88 1_555 1_555
H45 C89 1_555 1_555
C90 N15 1_555 1_555
C91 C90 1_555 1_555
C92 N16 1_555 1_555
H46 C92 1_555 1_555
C93 C92 1_555 1_555
H47 C93 1_555 1_555
C94 C93 1_555 1_555
H48 C94 1_555 1_555
C95 C91 1_555 1_555
C96 O31 1_555 1_555
O68 Yb5 1_555 1_555
Yb2A O7 1_555 1_555
Yb3A O10 1_555 1_555
Yb4A O1 1_555 1_555
Yb4_2 O3 1_555 1_555
Yb5A O25 1_555 1_555
Yb7A O20 1_555 1_555
Yb7A_2 O28 1_555 1_555
Yb8_2 O24 1_555 1_555
Yb8A O32 1_555 1_555
O1A Yb4 1_555 1_555
O3_2 Yb4 1_555 1_555
O7A Yb2 1_555 1_555
O10A Yb3 1_555 1_555
O17A Yb4 1_555 1_555
O20A Yb7 1_555 1_555
O24_2 Yb8 1_555 1_555
O25A Yb5 1_555 1_555
O28A Yb7 1_555 1_555
O32A Yb8 1_555 1_555
O35A Yb4 1_555 1_555
O36A Yb2 1_555 1_555
O37A Yb2 1_555 1_555
O40A Yb3 1_555 1_555
O44A Yb8 1_555 1_555
O45A Yb5 1_555 1_555
O46A Yb5 1_555 1_555
O46A_2 Yb8 1_555 1_555
O47A Yb5 1_555 1_555
O47A_2 Yb8 1_555 1_555
Yb3 O35 1_555 1_555
Yb3 O36A 1_555 1_555
Yb4 O37 1_555 1_555
Yb4 O40 1_555 1_555
Yb7 O44 1_555 1_555
Yb7 O45 1_555 1_555
O17 Yb4A 1_555 1_555
O22 C61 1_555 1_555
O35 Yb4A 1_555 1_555
O36 Yb2A 1_555 1_555
O36 Yb3A 1_555 1_555
O37 Yb2A 1_555 1_555
O40 Yb3A 1_555 1_555
O44 Yb8A 1_555 1_555
O45 Yb5A 1_555 1_555
O46 Yb5A 1_555 1_555
O46 Yb8A 1_555 1_555
O47 Yb5A 1_555 1_555
O47 Yb8A 1_555 1_555
C2 C6 1_555 1_555
C10 C11 1_555 1_555
C14 C18 1_555 1_555
C22 C23 1_555 1_555
C26 C30 1_555 1_555
C34 C35 1_555 1_555
C35 C36 1_555 1_555
C38 C42 1_555 1_555
C46 C47 1_555 1_555
C50 C54 1_555 1_555
C58 C59 1_555 1_555
C62 C66 1_555 1_555
C70 C71 1_555 1_555
C74 C78 1_555 1_555
C82 C83 1_555 1_555
C86 C90 1_555 1_555
C94 C95 1_555 1_555
C95 C96 1_555 1_555
Yb2A O35A 1_555 1_555
Yb3A O35A 1_555 1_555
Yb4A O37A 1_555 1_555
Yb4A O40A 1_555 1_555
Yb7A O44A 1_555 1_555
Yb7A O47A_2 1_555 1_555
Yb8_2 O46A 1_555 1_555
Yb8_2 O47A 1_555 1_555

#END
