
#######################################################################
#
#                 Cambridge Crystallographic Data Centre
#                                CCDC 
#
#######################################################################
#
# If this CIF has been generated from an entry in the Cambridge 
# Structural Database, then it will include bibliographic, chemical, 
# crystal, experimental, refinement or atomic coordinate data resulting 
# from the CCDC's data processing and validation procedures.
#
#######################################################################

data_EJALUW
_symmetry_cell_setting           orthorhombic
_symmetry_space_group_name_H-M   'P n n a'
_symmetry_Int_Tables_number      52
_space_group_name_Hall           '-P 2a 2bc'
loop_
_symmetry_equiv_pos_site_id
_symmetry_equiv_pos_as_xyz
1 x,y,z
2 1/2-x,-y,z
3 1/2-x,1/2+y,1/2-z
4 x,1/2-y,1/2-z
5 -x,-y,-z
6 1/2+x,y,-z
7 1/2+x,1/2-y,1/2+z
8 -x,1/2+y,1/2+z
_cell_length_a                   20.6905(9)
_cell_length_b                   13.4868(3)
_cell_length_c                   8.1909(3)
_cell_angle_alpha                90
_cell_angle_beta                 90
_cell_angle_gamma                90
_cell_volume                     2285.66
loop_
_atom_site_label
_atom_site_type_symbol
_atom_site_fract_x
_atom_site_fract_y
_atom_site_fract_z
Zn1 Zn 0.49863(2) 0.2500 0.2500
K1 K 0.28630(7) 0.2500 -0.2500
K2 K 0.2500 0.5000 0.02279(15)
O1 O 0.35445(12) 0.3817(2) -0.0315(3)
O2 O 0.42348(12) 0.26818(19) 0.0633(4)
O3 O 0.57420(11) 0.30848(17) 0.4064(3)
O4 O 0.62434(12) 0.4489(2) 0.4710(3)
O5 O 0.18650(13) 0.3075(2) -0.0388(4)
O6 O 0.32658(15) 0.1362(2) 0.0419(6)
O7 O 0.21091(15) 0.3789(2) 0.2828(4)
O8 O 0.2511(17) 0.4755(13) -0.2996(8)
N1 N 0.48937(13) 0.3980(3) 0.2254(4)
C1 C 0.40214(16) 0.3566(2) 0.0475(4)
C2 C 0.44168(14) 0.4346(2) 0.1340(4)
C3 C 0.43224(16) 0.5353(3) 0.1214(4)
H1 H 0.3983 0.5606 0.0597
C4 C 0.47453(19) 0.5983(3) 0.2030(5)
H2 H 0.4694 0.6667 0.1952
C5 C 0.52411(19) 0.5594(3) 0.2956(5)
H3 H 0.5529 0.6007 0.3500
C6 C 0.53001(15) 0.4580(2) 0.3057(4)
C7 C 0.58093(15) 0.4010(2) 0.4031(4)
O8A O 0.2489(17) 0.5245(13) -0.2996(8)
O1C O 0.35445(12) 0.1183(2) 0.5315(3)
O2C O 0.42348(12) 0.23182(19) 0.4367(4)
O3C O 0.57420(11) 0.19152(17) 0.0936(3)
O4C O 0.62434(12) 0.0511(2) 0.0290(3)
N1C N 0.48937(13) 0.1020(3) 0.2746(4)
C1C C 0.40214(16) 0.1434(2) 0.4525(4)
C2C C 0.44168(14) 0.0654(2) 0.3660(4)
C3C C 0.43224(16) -0.0353(3) 0.3786(4)
H1C H 0.3983 -0.0606 0.4403
C4C C 0.47453(19) -0.0983(3) 0.2970(5)
H2C H 0.4694 -0.1667 0.3048
C5C C 0.52411(19) -0.0594(3) 0.2044(5)
H3C H 0.5529 -0.1007 0.1500
C6C C 0.53001(15) 0.0420(2) 0.1943(4)
C7C C 0.58093(15) 0.0990(2) 0.0969(4)
O5C O 0.18650(13) 0.1925(2) -0.4612(4)
O6C O 0.32658(15) 0.3638(2) -0.5419(6)
O7A O 0.28909(15) 0.6211(2) 0.2828(4)
K2B K 0.2500 0.0000 -0.52279(15)
O1C_2 O 0.35445(12) 0.1183(2) -0.4685(3)
K1A K 0.21370(7) 0.7500 -0.2500
O1A O 0.14555(12) 0.6183(2) -0.0315(3)
O5A O 0.31350(13) 0.6925(2) -0.0388(4)
K1_2 K 0.28630(7) 0.2500 0.7500
K2B_2 K 0.2500 0.0000 0.47721(15)
loop_
_geom_bond_atom_site_label_1
_geom_bond_atom_site_label_2
_geom_bond_site_symmetry_1
_geom_bond_site_symmetry_2
Zn1 O2 1_555 1_555
K1 O1 1_555 1_555
K2 O1 1_555 1_555
O1 C1 1_555 1_555
O2 C1 1_555 1_555
O3 Zn1 1_555 1_555
O4 C7 1_555 1_555
O5 K1 1_555 1_555
O6 K1 1_555 1_555
O7 K2 1_555 1_555
O8 K2 1_555 1_555
N1 Zn1 1_555 1_555
C1 C2 1_555 1_555
C2 N1 1_555 1_555
C3 C2 1_555 1_555
H1 C3 1_555 1_555
C4 C3 1_555 1_555
H2 C4 1_555 1_555
C5 C4 1_555 1_555
H3 C5 1_555 1_555
C6 N1 1_555 1_555
C7 O3 1_555 1_555
O8A K2 1_555 1_555
O1C C1C 1_555 1_555
O2C Zn1 1_555 1_555
O3C Zn1 1_555 1_555
O4C C7C 1_555 1_555
N1C Zn1 1_555 1_555
C1C O2C 1_555 1_555
C2C N1C 1_555 1_555
C3C C2C 1_555 1_555
H1C C3C 1_555 1_555
C4C C3C 1_555 1_555
H2C C4C 1_555 1_555
C5C C4C 1_555 1_555
H3C C5C 1_555 1_555
C6C N1C 1_555 1_555
C7C O3C 1_555 1_555
O5C K1 1_555 1_555
O6C K1 1_555 1_555
O7A K2 1_555 1_555
K2B O5C 1_555 1_555
O1C_2 K1 1_555 1_555
K1A O1A 1_555 1_555
O1A K2 1_555 1_555
O5A K2 1_555 1_555
K1_2 O1C 1_555 1_555
K2B_2 O1C 1_555 1_555
K2 O5 1_555 1_555
O8 O8A 1_555 1_555
C5 C6 1_555 1_555
C6 C7 1_555 1_555
C1C C2C 1_555 1_555
C5C C6C 1_555 1_555
C6C C7C 1_555 1_555
K2B O1C_2 1_555 1_555
K1A O5A 1_555 1_555

#END
