
#######################################################################
#
#                 Cambridge Crystallographic Data Centre
#                                CCDC 
#
#######################################################################
#
# If this CIF has been generated from an entry in the Cambridge 
# Structural Database, then it will include bibliographic, chemical, 
# crystal, experimental, refinement or atomic coordinate data resulting 
# from the CCDC's data processing and validation procedures.
#
#######################################################################

data_EJAVEQ
_symmetry_cell_setting           monoclinic
_symmetry_space_group_name_H-M   'P 21/n'
_symmetry_Int_Tables_number      14
_space_group_name_Hall           '-P 2yn'
loop_
_symmetry_equiv_pos_site_id
_symmetry_equiv_pos_as_xyz
1 x,y,z
2 1/2+x,1/2-y,1/2+z
3 -x,-y,-z
4 1/2-x,1/2+y,1/2-z
_cell_length_a                   10.1635(16)
_cell_length_b                   19.999(3)
_cell_length_c                   20.833(3)
_cell_angle_alpha                90
_cell_angle_beta                 103.159(3)
_cell_angle_gamma                90
_cell_volume                     4123.32
loop_
_atom_site_label
_atom_site_type_symbol
_atom_site_fract_x
_atom_site_fract_y
_atom_site_fract_z
Ni1 Ni 0.85128(3) 0.211721(16) 0.877809(13)
Fe1 Fe 0.60285(4) 0.25314(2) 0.627689(16)
N1 N 0.70790(19) 0.13473(10) 0.86366(8)
N2 N 0.77797(19) 0.21730(10) 0.77980(8)
N3 N 0.96904(19) 0.28950(11) 0.85226(8)
N4 N 0.72275(18) 0.28095(10) 0.90774(8)
N5 N 0.92660(18) 0.21381(10) 0.97565(8)
N6 N 1.0089(2) 0.14112(10) 0.88776(8)
O1 O 0.60179(17) 0.17828(10) 0.69578(7)
O2 O 0.78624(18) 0.27968(10) 0.68683(7)
O3 O 0.91938(16) 0.27469(9) 1.06982(7)
O4 O 1.10290(18) 0.17398(10) 1.05843(7)
O5 O 0.69445(19) 0.18887(13) 0.56824(9)
O6 O 0.5157(2) 0.31514(11) 0.69033(9)
C1 C 0.6800(3) 0.09211(15) 0.90777(12)
H1 H 0.7274 0.0959 0.9514
C2 C 0.5840(3) 0.04261(15) 0.89163(13)
H2 H 0.5691 0.0129 0.9236
C3 C 0.5111(3) 0.03769(15) 0.82814(13)
H3 H 0.4450 0.0049 0.8165
C4 C 0.5360(3) 0.08152(15) 0.78144(12)
H4 H 0.4867 0.0792 0.7380
C5 C 0.6363(2) 0.12917(13) 0.80061(10)
C6 C 0.6706(2) 0.17754(13) 0.75263(10)
C7 C 0.8256(3) 0.26528(14) 0.74607(11)
C8 C 0.9396(2) 0.30447(13) 0.78770(10)
C9 C 1.0054(3) 0.35238(15) 0.76010(12)
H5 H 0.9820 0.3608 0.7150
C10 C 1.1079(3) 0.38789(16) 0.80117(13)
H6 H 1.1541 0.4214 0.7844
C11 C 1.1400(3) 0.37290(15) 0.86673(13)
H7 H 1.2093 0.3958 0.8950
C12 C 1.0696(2) 0.32365(14) 0.89116(12)
H8 H 1.0928 0.3139 0.9360
C13 C 0.6173(3) 0.31404(14) 0.87013(12)
H9 H 0.5934 0.3051 0.8252
C14 C 0.5436(3) 0.36074(16) 0.89597(13)
H10 H 0.4721 0.3832 0.8687
C15 C 0.5771(3) 0.37342(16) 0.96207(13)
H11 H 0.5278 0.4044 0.9802
C16 C 0.6836(3) 0.34045(14) 1.00167(12)
H12 H 0.7074 0.3484 1.0468
C17 C 0.7551(2) 0.29480(12) 0.97232(10)
C18 C 0.8748(2) 0.25931(13) 1.01120(10)
C19 C 1.0357(2) 0.17556(14) 1.00103(10)
C20 C 1.0760(3) 0.13217(14) 0.95093(11)
C21 C 1.1806(3) 0.08847(19) 0.96933(14)
H13 H 1.2290 0.0856 1.0129
C22 C 1.2126(4) 0.0477(2) 0.91986(16)
H14 H 1.2793 0.0152 0.9307
C23 C 1.1444(3) 0.05655(18) 0.85531(14)
H15 H 1.1657 0.0311 0.8217
C24 C 1.0427(3) 0.10455(16) 0.84161(12)
H16 H 0.9967 0.1110 0.7981
C25 C 0.8233(6) 0.1880(4) 0.5646(3)
H17 H 0.8620 0.2316 0.5750
H18 H 0.8292 0.1759 0.5208
H19 H 0.8718 0.1560 0.5954
C26 C 0.5420(6) 0.3983(4) 0.6939(3)
H20 H 0.6244 0.4082 0.6806
H21 H 0.5487 0.4136 0.7381
H22 H 0.4680 0.4204 0.6648
Fe1A Fe 1.10285(4) 0.24686(2) 1.127689(16)
N4A N 0.22275(18) 0.21905(10) 0.40774(8)
N5A N 0.42660(18) 0.28619(10) 0.47565(8)
N6A N 0.5089(2) 0.35888(10) 0.38776(8)
O3A O 0.41938(16) 0.22531(9) 0.56982(7)
O4A O 0.60290(18) 0.32602(10) 0.55843(7)
C13A C 0.1173(3) 0.18596(14) 0.37013(12)
H9A H 0.0934 0.1949 0.3252
C14A C 0.0436(3) 0.13926(16) 0.39597(13)
H10A H -0.0279 0.1168 0.3687
C15A C 0.0771(3) 0.12658(16) 0.46207(13)
H11A H 0.0278 0.0956 0.4802
C16A C 0.1836(3) 0.15955(14) 0.50167(12)
H12A H 0.2074 0.1516 0.5468
C17A C 0.2551(2) 0.20520(12) 0.47232(10)
C18A C 0.3748(2) 0.24069(13) 0.51120(10)
C19A C 0.5357(2) 0.32444(14) 0.50103(10)
C20A C 0.5760(3) 0.36783(14) 0.45093(11)
C21A C 0.6806(3) 0.41153(19) 0.46933(14)
H13A H 0.7290 0.4144 0.5129
C22A C 0.7126(4) 0.4523(2) 0.41986(16)
H14A H 0.7793 0.4848 0.4307
C23A C 0.6444(3) 0.44345(18) 0.35531(14)
H15A H 0.6657 0.4689 0.3217
C24A C 0.5427(3) 0.39545(16) 0.34161(12)
H16A H 0.4967 0.3890 0.2981
N1A N 1.20790(19) 0.36527(10) 1.36366(8)
N2A N 1.27797(19) 0.28270(10) 1.27980(8)
N3A N 1.46904(19) 0.21050(11) 1.35226(8)
O1A O 1.10179(17) 0.32172(10) 1.19578(7)
O2A O 1.28624(18) 0.22032(10) 1.18683(7)
C1A C 1.1800(3) 0.40789(15) 1.40777(12)
H1A H 1.2274 0.4041 1.4514
C2A C 1.0840(3) 0.45739(15) 1.39163(13)
H2A H 1.0691 0.4871 1.4236
C3A C 1.0111(3) 0.46231(15) 1.32814(13)
H3A H 0.9450 0.4951 1.3165
C4A C 1.0360(3) 0.41848(15) 1.28144(12)
H4A H 0.9867 0.4208 1.2380
C5A C 1.1363(2) 0.37083(13) 1.30061(10)
C6A C 1.1706(2) 0.32246(13) 1.25263(10)
C7A C 1.3256(3) 0.23472(14) 1.24607(11)
C8A C 1.4396(2) 0.19553(13) 1.28770(10)
C9A C 1.5054(3) 0.14762(15) 1.26010(12)
H5A H 1.4820 0.1392 1.2150
C10A C 1.6079(3) 0.11211(16) 1.30117(13)
H6A H 1.6541 0.0786 1.2844
C11A C 1.6400(3) 0.12710(15) 1.36673(13)
H7A H 1.7093 0.1042 1.3950
C12A C 1.5696(2) 0.17635(14) 1.39116(12)
H8A H 1.5928 0.1861 1.4360
O5A O 1.19445(19) 0.31113(13) 1.06824(9)
C25A C 1.3233(6) 0.3120(4) 1.0646(3)
H17A H 1.3620 0.2684 1.0750
H18A H 1.3292 0.3241 1.0208
H19A H 1.3718 0.3440 1.0954
O6A O 1.0157(2) 0.18486(11) 1.19033(9)
C26A C 1.0420(6) 0.1017(4) 1.1939(3)
H20A H 1.1244 0.0918 1.1806
H21A H 1.0487 0.0864 1.2381
H22A H 0.9680 0.0796 1.1648
Ni1A Ni 1.35128(3) 0.288279(16) 1.377809(13)
Ni1A_2 Ni 0.35128(3) 0.288279(16) 0.377809(13)
N4A_2 N 1.22275(18) 0.21905(10) 1.40774(8)
N5A_2 N 1.42660(18) 0.28619(10) 1.47565(8)
N6A_2 N 1.5089(2) 0.35888(10) 1.38776(8)
Cl1 Cl 0.13216(9) 0.04069(4) 0.65436(4)
O7 O 0.0941(4) 0.01427(17) 0.59248(13)
O8 O 0.0585(4) 0.0932(2) 0.6619(3)
O9 O 0.1318(3) -0.00749(16) 0.70071(11)
O10 O 0.2634(3) 0.0620(2) 0.6619(2)
Cl2 Cl 0.37798(10) 0.87133(5) 0.91714(4)
O11 O 0.3358(3) 0.90193(16) 0.85274(11)
O12 O 0.2609(3) 0.85958(18) 0.93826(13)
O13 O 0.4446(5) 0.8180(2) 0.9030(2)
O14 O 0.4541(3) 0.91738(16) 0.96166(13)
O15 O 0.2977(3) 0.2858(2) 0.72791(14)
H23 H 0.3753 0.2882 0.7228
C27 C 0.2623(7) 0.2218(2) 0.7297(4)
H24 H 0.3365 0.1939 0.7253
H25 H 0.1858 0.2129 0.6941
H26 H 0.2389 0.2126 0.7709
O16 O 0.8601(8) 0.2827(4) 0.4246(6)
H27 H 0.9376 0.2764 0.4207
C28 C 0.8537(9) 0.2726(6) 0.4986(4)
H28 H 0.9234 0.2421 0.5194
H29 H 0.7671 0.2547 0.5005
H30 H 0.8666 0.3148 0.5210
O17 O -0.0879(8) 0.5572(3) 0.9669(4)
C29 C 0.0369(10) 0.5451(6) 0.9449(7)
C30 C -0.1295(9) 0.4914(5) 1.0056(5)
C30B C 0.1295(9) 0.5086(5) 0.9944(5)
O17B O 0.0879(8) 0.4428(3) 1.0331(4)
C29B C -0.0369(10) 0.4549(6) 1.0551(7)
O18 O 0.2945(7) 0.4600(6) 1.1885(4)
H31 H 0.3751 0.4525 1.1917
C31 C 0.2227(15) 0.4702(8) 1.1134(8)
H32 H 0.1844 0.5143 1.1072
H33 H 0.1523 0.4376 1.1006
H34 H 0.2877 0.4651 1.0868
loop_
_geom_bond_atom_site_label_1
_geom_bond_atom_site_label_2
_geom_bond_site_symmetry_1
_geom_bond_site_symmetry_2
Ni1 N1 1_555 1_555
Fe1 O1 1_555 1_555
N1 C1 1_555 1_555
N2 Ni1 1_555 1_555
N3 Ni1 1_555 1_555
N4 Ni1 1_555 1_555
N5 Ni1 1_555 1_555
N6 Ni1 1_555 1_555
O1 C6 1_555 1_555
O2 Fe1 1_555 1_555
O3 C18 1_555 1_555
O4 C19 1_555 1_555
O5 Fe1 1_555 1_555
O6 Fe1 1_555 1_555
C1 H1 1_555 1_555
C2 C1 1_555 1_555
H2 C2 1_555 1_555
C3 C2 1_555 1_555
H3 C3 1_555 1_555
C4 C3 1_555 1_555
H4 C4 1_555 1_555
C5 N1 1_555 1_555
C6 N2 1_555 1_555
C7 N2 1_555 1_555
C8 N3 1_555 1_555
C9 C8 1_555 1_555
H5 C9 1_555 1_555
C10 C9 1_555 1_555
H6 C10 1_555 1_555
C11 C10 1_555 1_555
H7 C11 1_555 1_555
C12 N3 1_555 1_555
H8 C12 1_555 1_555
C13 N4 1_555 1_555
H9 C13 1_555 1_555
C14 C13 1_555 1_555
H10 C14 1_555 1_555
C15 C14 1_555 1_555
H11 C15 1_555 1_555
C16 C15 1_555 1_555
H12 C16 1_555 1_555
C17 N4 1_555 1_555
C18 N5 1_555 1_555
C19 N5 1_555 1_555
C20 N6 1_555 1_555
C21 C20 1_555 1_555
H13 C21 1_555 1_555
C22 C21 1_555 1_555
H14 C22 1_555 1_555
C23 C22 1_555 1_555
H15 C23 1_555 1_555
C24 N6 1_555 1_555
H16 C24 1_555 1_555
C25 O5 1_555 1_555
H17 C25 1_555 1_555
H18 C25 1_555 1_555
H19 C25 1_555 1_555
C26 O6 1_555 1_555
H20 C26 1_555 1_555
H21 C26 1_555 1_555
H22 C26 1_555 1_555
Cl1 O7 1_555 1_555
O8 Cl1 1_555 1_555
O9 Cl1 1_555 1_555
O10 Cl1 1_555 1_555
Cl2 O11 1_555 1_555
O12 Cl2 1_555 1_555
O13 Cl2 1_555 1_555
O14 Cl2 1_555 1_555
O15 H23 1_555 1_555
C27 O15 1_555 1_555
H24 C27 1_555 1_555
H25 C27 1_555 1_555
H26 C27 1_555 1_555
O16 H27 1_555 1_555
C28 O16 1_555 1_555
H28 C28 1_555 1_555
H29 C28 1_555 1_555
H30 C28 1_555 1_555
O17 C29 1_555 1_555
C29 C30B 1_555 1_555
C30 O17 1_555 1_555
O18 H31 1_555 1_555
C31 O18 1_555 1_555
H32 C31 1_555 1_555
H33 C31 1_555 1_555
H34 C31 1_555 1_555
C30B O17B 1_555 1_555
O17B C29B 1_555 1_555
C29B C30 1_555 1_555
Fe1A O3 1_555 1_555
N4A C13A 1_555 1_555
N5A C18A 1_555 1_555
N6A C20A 1_555 1_555
O3A Fe1 1_555 1_555
O4A Fe1 1_555 1_555
C13A H9A 1_555 1_555
C14A C13A 1_555 1_555
H10A C14A 1_555 1_555
C15A C14A 1_555 1_555
H11A C15A 1_555 1_555
C16A C15A 1_555 1_555
H12A C16A 1_555 1_555
C17A N4A 1_555 1_555
C18A O3A 1_555 1_555
C19A N5A 1_555 1_555
C20A C19A 1_555 1_555
C21A C20A 1_555 1_555
H13A C21A 1_555 1_555
C22A C21A 1_555 1_555
H14A C22A 1_555 1_555
C23A C22A 1_555 1_555
H15A C23A 1_555 1_555
C24A N6A 1_555 1_555
H16A C24A 1_555 1_555
N1A C1A 1_555 1_555
N2A C6A 1_555 1_555
N3A C8A 1_555 1_555
O1A Fe1A 1_555 1_555
O2A Fe1A 1_555 1_555
C1A H1A 1_555 1_555
C2A C1A 1_555 1_555
H2A C2A 1_555 1_555
C3A C2A 1_555 1_555
H3A C3A 1_555 1_555
C4A C3A 1_555 1_555
H4A C4A 1_555 1_555
C5A N1A 1_555 1_555
C6A O1A 1_555 1_555
C7A N2A 1_555 1_555
C8A C7A 1_555 1_555
C9A C8A 1_555 1_555
H5A C9A 1_555 1_555
C10A C9A 1_555 1_555
H6A C10A 1_555 1_555
C11A C10A 1_555 1_555
H7A C11A 1_555 1_555
C12A N3A 1_555 1_555
H8A C12A 1_555 1_555
O5A Fe1A 1_555 1_555
C25A O5A 1_555 1_555
H17A C25A 1_555 1_555
H18A C25A 1_555 1_555
H19A C25A 1_555 1_555
O6A Fe1A 1_555 1_555
C26A O6A 1_555 1_555
H20A C26A 1_555 1_555
H21A C26A 1_555 1_555
H22A C26A 1_555 1_555
Ni1A N1A 1_555 1_555
Ni1A_2 N4A 1_555 1_555
N4A_2 Ni1A 1_555 1_555
N5A_2 Ni1A 1_555 1_555
N6A_2 Ni1A 1_555 1_555
O2 C7 1_555 1_555
O4 Fe1A 1_555 1_555
C4 C5 1_555 1_555
C5 C6 1_555 1_555
C7 C8 1_555 1_555
C11 C12 1_555 1_555
C16 C17 1_555 1_555
C17 C18 1_555 1_555
C19 C20 1_555 1_555
C23 C24 1_555 1_555
N5A Ni1A_2 1_555 1_555
N6A Ni1A_2 1_555 1_555
O4A C19A 1_555 1_555
C16A C17A 1_555 1_555
C17A C18A 1_555 1_555
C23A C24A 1_555 1_555
N2A Ni1A 1_555 1_555
N3A Ni1A 1_555 1_555
O2A C7A 1_555 1_555
C4A C5A 1_555 1_555
C5A C6A 1_555 1_555
C11A C12A 1_555 1_555

#END
