
#######################################################################
#
#                 Cambridge Crystallographic Data Centre
#                                CCDC 
#
#######################################################################
#
# If this CIF has been generated from an entry in the Cambridge 
# Structural Database, then it will include bibliographic, chemical, 
# crystal, experimental, refinement or atomic coordinate data resulting 
# from the CCDC's data processing and validation procedures.
#
#######################################################################

data_EJAWER
_symmetry_cell_setting           orthorhombic
_symmetry_space_group_name_H-M   'P n n m'
_symmetry_Int_Tables_number      58
_space_group_name_Hall           '-P 2 2n'
loop_
_symmetry_equiv_pos_site_id
_symmetry_equiv_pos_as_xyz
1 x,y,z
2 x,y,-z
3 1/2-x,1/2+y,1/2+z
4 1/2+x,1/2-y,1/2+z
5 -x,-y,-z
6 -x,-y,z
7 1/2+x,1/2-y,1/2-z
8 1/2-x,1/2+y,1/2-z
_cell_length_a                   32.323(3)
_cell_length_b                   17.0606(14)
_cell_length_c                   20.7616(17)
_cell_angle_alpha                90
_cell_angle_beta                 90
_cell_angle_gamma                90
_cell_volume                     11449
loop_
_atom_site_label
_atom_site_type_symbol
_atom_site_fract_x
_atom_site_fract_y
_atom_site_fract_z
Fe1 Fe 0.242509(8) 0.132774(16) 0.248940(15)
Fe2 Fe 0.5000 0.0000 0.25157(2)
Fe3 Fe 0.346832(8) -0.108318(16) 0.256374(17)
N1 N 0.21370(5) 0.07130(10) 0.31532(8)
N2 N 0.27951(5) 0.04323(9) 0.25007(8)
N3 N 0.28067(5) 0.16801(9) 0.18182(9)
N4 N 0.22809(5) -0.30729(9) 0.18359(8)
N5 N 0.29284(5) -0.27623(9) 0.24988(8)
N6 N 0.29766(5) -0.40057(10) 0.31750(9)
N7 N 0.47718(5) 0.06984(10) 0.31783(9)
N8 N 0.44444(4) -0.04112(9) 0.25364(8)
N9 N 0.50613(5) -0.08011(10) 0.18468(8)
O1 O 0.29354(4) -0.07210(8) 0.30650(8)
O2 O 0.34054(4) -0.00436(8) 0.20476(8)
O3 O 0.30480(4) -0.15931(8) 0.19497(8)
O4 O 0.34859(4) -0.21735(8) 0.30233(8)
O5 O 0.38456(4) -0.04025(8) 0.31562(8)
O6 O 0.40161(4) -0.13638(8) 0.20806(8)
C1 C 0.17845(7) 0.08752(14) 0.34515(12)
H1 H 0.1638 0.1338 0.3339
C2 C 0.16285(8) 0.04001(15) 0.39101(13)
H2 H 0.1372 0.0533 0.4106
C3 C 0.18298(8) -0.02745(15) 0.41045(13)
H3 H 0.1720 -0.0607 0.4429
C4 C 0.22001(7) -0.04378(13) 0.37998(11)
H4 H 0.2355 -0.0885 0.3925
C5 C 0.23466(6) 0.00385(12) 0.33182(11)
C6 C 0.27233(6) -0.01289(11) 0.29560(11)
C7 C 0.31226(6) 0.04440(11) 0.20988(10)
C8 C 0.31233(6) 0.11714(11) 0.16960(10)
C9 C 0.34117(6) 0.12942(13) 0.12276(10)
H5 H 0.3620 0.0914 0.1148
C10 C 0.33975(7) 0.19746(14) 0.08710(12)
H6 H 0.3603 0.2089 0.0558
C11 C 0.30774(8) 0.24795(14) 0.09824(12)
H7 H 0.3052 0.2944 0.0733
C12 C 0.27930(7) 0.23195(13) 0.14515(11)
H8 H 0.2575 0.2683 0.1519
C13 C 0.19441(6) -0.32607(13) 0.15087(11)
H9 H 0.1811 -0.3745 0.1600
C14 C 0.17760(7) -0.27741(14) 0.10324(12)
H10 H 0.1530 -0.2922 0.0812
C15 C 0.19690(7) -0.20893(14) 0.08901(11)
H11 H 0.1859 -0.1750 0.0571
C16 C 0.23276(7) -0.18889(13) 0.12138(10)
H12 H 0.2469 -0.1416 0.1116
C17 C 0.24730(6) -0.23820(12) 0.16734(10)
C18 C 0.28432(6) -0.22037(12) 0.20583(10)
C19 C 0.32441(6) -0.27197(11) 0.29328(11)
C20 C 0.32745(6) -0.34640(12) 0.33012(11)
C21 C 0.35837(7) -0.36010(14) 0.37378(12)
H13 H 0.3786 -0.3211 0.3823
C22 C 0.35973(8) -0.43129(15) 0.40532(14)
H14 H 0.3814 -0.4427 0.4347
C23 C 0.32948(8) -0.48482(14) 0.39359(13)
H15 H 0.3294 -0.5334 0.4159
C24 C 0.29887(7) -0.46831(14) 0.34920(12)
H16 H 0.2781 -0.5064 0.3411
C25 C 0.49463(7) 0.13131(14) 0.34746(12)
H17 H 0.5223 0.1447 0.3367
C26 C 0.47456(8) 0.17542(15) 0.39227(12)
H18 H 0.4877 0.2201 0.4103
C27 C 0.43559(8) 0.15560(17) 0.41136(12)
H19 H 0.4216 0.1857 0.4432
C28 C 0.41647(7) 0.09062(14) 0.38360(10)
H20 H 0.3897 0.0743 0.3967
C29 C 0.43775(6) 0.05132(12) 0.33688(10)
C30 C 0.41940(6) -0.01515(11) 0.30050(11)
C31 C 0.43519(6) -0.10171(12) 0.21364(11)
C32 C 0.47184(6) -0.12253(13) 0.17334(11)
C33 C 0.47018(7) -0.18243(16) 0.12777(12)
H21 H 0.4454 -0.2113 0.1209
C34 C 0.50547(8) -0.19868(18) 0.09297(13)
H22 H 0.5055 -0.2397 0.0620
C35 C 0.54020(7) -0.15554(19) 0.10338(13)
H23 H 0.5646 -0.1658 0.0794
C36 C 0.53978(7) -0.09673(16) 0.14904(12)
H24 H 0.5642 -0.0668 0.1556
N7E N 0.52282(5) -0.06984(10) 0.31783(9)
N8E N 0.55556(4) 0.04112(9) 0.25364(8)
N9E N 0.49387(5) 0.08011(10) 0.18468(8)
O5E O 0.61544(4) 0.04025(8) 0.31562(8)
O6E O 0.59839(4) 0.13638(8) 0.20806(8)
C25E C 0.50537(7) -0.13131(14) 0.34746(12)
H17E H 0.4777 -0.1447 0.3367
C26E C 0.52544(8) -0.17542(15) 0.39227(12)
H18E H 0.5123 -0.2201 0.4103
C27E C 0.56441(8) -0.15560(17) 0.41136(12)
H19E H 0.5784 -0.1857 0.4432
C28E C 0.58353(7) -0.09062(14) 0.38360(10)
H20E H 0.6103 -0.0743 0.3967
C29E C 0.56225(6) -0.05132(12) 0.33688(10)
C30E C 0.58060(6) 0.01515(11) 0.30050(11)
C31E C 0.56481(6) 0.10171(12) 0.21364(11)
C32E C 0.52816(6) 0.12253(13) 0.17334(11)
C33E C 0.52982(7) 0.18243(16) 0.12777(12)
H21E H 0.5546 0.2113 0.1209
C34E C 0.49453(8) 0.19868(18) 0.09297(13)
H22E H 0.4945 0.2397 0.0620
C35E C 0.45980(7) 0.15554(19) 0.10338(13)
H23E H 0.4354 0.1658 0.0794
C36E C 0.46022(7) 0.09673(16) 0.14904(12)
H24E H 0.4358 0.0668 0.1556
Fe3E Fe 0.653168(8) 0.108318(16) 0.256374(17)
N1E N 0.78630(5) -0.07130(10) 0.31532(8)
N2E N 0.72049(5) -0.04323(9) 0.25007(8)
N3E N 0.71933(5) -0.16801(9) 0.18182(9)
O1E O 0.70646(4) 0.07210(8) 0.30650(8)
O2E O 0.65946(4) 0.00436(8) 0.20476(8)
C1E C 0.82155(7) -0.08752(14) 0.34515(12)
H1E H 0.8362 -0.1338 0.3339
C2E C 0.83715(8) -0.04001(15) 0.39101(13)
H2E H 0.8628 -0.0533 0.4106
C3E C 0.81702(8) 0.02745(15) 0.41045(13)
H3E H 0.8280 0.0607 0.4429
C4E C 0.77999(7) 0.04378(13) 0.37998(11)
H4E H 0.7645 0.0885 0.3925
C5E C 0.76534(6) -0.00385(12) 0.33182(11)
C6E C 0.72767(6) 0.01289(11) 0.29560(11)
C7E C 0.68774(6) -0.04440(11) 0.20988(10)
C8E C 0.68767(6) -0.11714(11) 0.16960(10)
C9E C 0.65883(6) -0.12942(13) 0.12276(10)
H5E H 0.6380 -0.0914 0.1148
C10E C 0.66025(7) -0.19746(14) 0.08710(12)
H6E H 0.6397 -0.2089 0.0558
C11E C 0.69226(8) -0.24795(14) 0.09824(12)
H7E H 0.6948 -0.2944 0.0733
C12E C 0.72070(7) -0.23195(13) 0.14515(11)
H8E H 0.7425 -0.2683 0.1519
N4E N 0.77191(5) 0.30729(9) 0.18359(8)
N5E N 0.70716(5) 0.27623(9) 0.24988(8)
N6E N 0.70234(5) 0.40057(10) 0.31750(9)
O3E O 0.69520(4) 0.15931(8) 0.19497(8)
O4E O 0.65141(4) 0.21735(8) 0.30233(8)
C13E C 0.80559(6) 0.32607(13) 0.15087(11)
H9E H 0.8189 0.3745 0.1600
C14E C 0.82240(7) 0.27741(14) 0.10324(12)
H10E H 0.8470 0.2922 0.0812
C15E C 0.80310(7) 0.20893(14) 0.08901(11)
H11E H 0.8141 0.1750 0.0571
C16E C 0.76724(7) 0.18889(13) 0.12138(10)
H12E H 0.7531 0.1416 0.1116
C17E C 0.75270(6) 0.23820(12) 0.16734(10)
C18E C 0.71568(6) 0.22037(12) 0.20583(10)
C19E C 0.67559(6) 0.27197(11) 0.29328(11)
C20E C 0.67255(6) 0.34640(12) 0.33012(11)
C21E C 0.64163(7) 0.36010(14) 0.37378(12)
H13E H 0.6214 0.3211 0.3823
C22E C 0.64027(8) 0.43129(15) 0.40532(14)
H14E H 0.6186 0.4427 0.4347
C23E C 0.67052(8) 0.48482(14) 0.39359(13)
H15E H 0.6706 0.5334 0.4159
C24E C 0.70113(7) 0.46831(14) 0.34920(12)
H16E H 0.7219 0.5064 0.3411
Fe1E Fe 0.757491(8) -0.132774(16) 0.248940(15)
N4G N 0.27191(5) 0.19271(9) 0.31641(8)
N5G N 0.20716(5) 0.22377(9) 0.25012(8)
N6G N 0.20234(5) 0.09943(10) 0.18250(9)
Fe1G Fe 0.257491(8) -0.367226(16) 0.251060(15)
Fe1F Fe 0.742509(8) 0.367226(16) 0.251060(15)
N4F N 0.72809(5) -0.19271(9) 0.31641(8)
N5F N 0.79284(5) -0.22377(9) 0.25012(8)
N6F N 0.79766(5) -0.09943(10) 0.18250(9)
Cl3 Cl 0.31341(2) 0.03449(5) 0.5000
O15 O 0.35030(7) 0.07983(17) 0.5000
O16 O 0.27795(9) 0.0782(2) 0.5000
O17 O 0.31295(9) -0.0058(2) 0.44562(15)
O17A O 0.31295(9) -0.0058(2) 0.55438(15)
Cl4 Cl 0.27421(3) 0.99315(6) 0.0000
O18 O 0.29676(11) 0.9795(2) 0.05471(17)
O19 O 0.26098(12) 1.0683(2) 0.0000
O20 O 0.24211(10) 0.93642(17) 0.0000
O18A O 0.29676(11) 0.9795(2) -0.05471(17)
C37 C 0.10391(14) 0.8339(3) 0.24745(17)
Cl5 Cl 0.15724(4) 0.86159(9) 0.25161(5)
Cl6 Cl 0.10182(5) 0.73149(8) 0.24905(5)
Cl7 Cl 0.08677(10) 0.85783(17) 0.32725(15)
C38 C 0.0350(3) 0.1083(5) 0.2432(4)
Cl9 Cl 0.06699(7) 0.19526(13) 0.24784(14)
Cl10 Cl 0.00091(12) 0.1184(3) 0.3110(3)
Cl11 Cl 0.07580(13) 0.03813(17) 0.2491(2)
C39 C 0.40779(14) 0.8885(3) 0.5000
Cl12 Cl 0.45369(4) 0.94439(6) 0.5000
Cl13 Cl 0.40211(4) 0.83875(8) 0.56717(5)
Cl13A Cl 0.40211(4) 0.83875(8) 0.43283(5)
C40 C 0.17021(14) 0.2779(3) 0.5000
Cl14 Cl 0.20736(3) 0.20090(7) 0.5000
Cl15 Cl 0.14304(3) 0.27879(8) 0.43129(5)
Cl15A Cl 0.14304(3) 0.27879(8) 0.56871(5)
O21 O 0.26226(9) 0.83696(18) 0.5000
C41 C 0.28923(13) 0.7696(3) 0.5000
O22 O 0.39201(11) 1.0398(3) 0.0000
C42 C 0.41573(16) 0.9786(3) 0.0000
O24 O 0.0661(5) 0.1091(11) 0.5000
O26 O 0.0347(2) 0.1349(5) 0.0677(8)
O28 O 0.0194(4) 0.0368(10) -0.0979(8)
Cl1? Cl 0.08524(4) 0.85950(7) 0.47815(6)
O7? O 0.08261(16) 0.8657(3) 0.41318(19)
O8? O 0.0739(3) 0.9201(4) 0.5000
O9? O 0.06901(11) 0.7888(3) 0.5000
O10? O 0.12810(11) 0.8496(2) 0.5000
Cl2? Cl 0.08601(4) 0.86451(7) 0.02136(6)
O11? O 0.08681(17) 0.8694(3) 0.0895(2)
O12? O 0.1004(2) 0.9279(2) 0.0000
O13? O 0.11349(11) 0.8003(2) 0.0000
O14? O 0.04841(13) 0.8331(3) 0.0000
Cl8? Cl 0.08869(8) 0.86075(14) 0.17227(12)
O23? O 0.0498(3) 0.0945(6) 0.6292(8)
O25? O 0.0165(3) 0.1058(6) 0.1735(5)
O27? O -0.0163 0.8157(5) 0.2117(6)
loop_
_geom_bond_atom_site_label_1
_geom_bond_atom_site_label_2
_geom_bond_site_symmetry_1
_geom_bond_site_symmetry_2
Fe1 N1 1_555 1_555
Fe2 N7 1_555 1_555
Fe3 O1 1_555 1_555
N1 C1 1_555 1_555
N2 Fe1 1_555 1_555
N3 Fe1 1_555 1_555
N4 C13 1_555 1_555
N5 C18 1_555 1_555
N6 C20 1_555 1_555
N7 C25 1_555 1_555
N8 Fe2 1_555 1_555
N9 Fe2 1_555 1_555
O1 C6 1_555 1_555
O2 Fe3 1_555 1_555
O3 Fe3 1_555 1_555
O4 Fe3 1_555 1_555
O5 Fe3 1_555 1_555
O6 Fe3 1_555 1_555
C1 H1 1_555 1_555
C2 C1 1_555 1_555
H2 C2 1_555 1_555
C3 C2 1_555 1_555
H3 C3 1_555 1_555
C4 C3 1_555 1_555
H4 C4 1_555 1_555
C5 N1 1_555 1_555
C6 N2 1_555 1_555
C7 N2 1_555 1_555
C8 N3 1_555 1_555
C9 C8 1_555 1_555
H5 C9 1_555 1_555
C10 C9 1_555 1_555
H6 C10 1_555 1_555
C11 C10 1_555 1_555
H7 C11 1_555 1_555
C12 N3 1_555 1_555
H8 C12 1_555 1_555
C13 H9 1_555 1_555
C14 C13 1_555 1_555
H10 C14 1_555 1_555
C15 C14 1_555 1_555
H11 C15 1_555 1_555
C16 C15 1_555 1_555
H12 C16 1_555 1_555
C17 N4 1_555 1_555
C18 O3 1_555 1_555
C19 N5 1_555 1_555
C20 C19 1_555 1_555
C21 C20 1_555 1_555
H13 C21 1_555 1_555
C22 C21 1_555 1_555
H14 C22 1_555 1_555
C23 C22 1_555 1_555
H15 C23 1_555 1_555
C24 N6 1_555 1_555
H16 C24 1_555 1_555
C25 H17 1_555 1_555
C26 C25 1_555 1_555
H18 C26 1_555 1_555
C27 C26 1_555 1_555
H19 C27 1_555 1_555
C28 C27 1_555 1_555
H20 C28 1_555 1_555
C29 N7 1_555 1_555
C30 N8 1_555 1_555
C31 N8 1_555 1_555
C32 N9 1_555 1_555
C33 C32 1_555 1_555
H21 C33 1_555 1_555
C34 C33 1_555 1_555
H22 C34 1_555 1_555
C35 C34 1_555 1_555
H23 C35 1_555 1_555
C36 N9 1_555 1_555
H24 C36 1_555 1_555
Cl3 O15 1_555 1_555
O16 Cl3 1_555 1_555
O17 Cl3 1_555 1_555
Cl4 O18 1_555 1_555
O19 Cl4 1_555 1_555
O20 Cl4 1_555 1_555
C37 Cl5 1_555 1_555
Cl6 C37 1_555 1_555
Cl7 C37 1_555 1_555
C38 Cl9 1_555 1_555
Cl10 C38 1_555 1_555
Cl11 C38 1_555 1_555
C39 Cl12 1_555 1_555
Cl13 C39 1_555 1_555
C40 Cl14 1_555 1_555
Cl15 C40 1_555 1_555
O21 C41 1_555 1_555
O22 C42 1_555 1_555
O17A Cl3 1_555 1_555
O18A Cl4 1_555 1_555
Cl13A C39 1_555 1_555
Cl15A C40 1_555 1_555
N7E Fe2 1_555 1_555
N8E Fe2 1_555 1_555
N9E Fe2 1_555 1_555
O5E C30E 1_555 1_555
O6E C31E 1_555 1_555
C25E N7E 1_555 1_555
H17E C25E 1_555 1_555
C26E C25E 1_555 1_555
H18E C26E 1_555 1_555
C27E C26E 1_555 1_555
H19E C27E 1_555 1_555
C28E C27E 1_555 1_555
H20E C28E 1_555 1_555
C29E N7E 1_555 1_555
C30E N8E 1_555 1_555
C31E N8E 1_555 1_555
C32E N9E 1_555 1_555
C33E C32E 1_555 1_555
H21E C33E 1_555 1_555
C34E C33E 1_555 1_555
H22E C34E 1_555 1_555
C35E C34E 1_555 1_555
H23E C35E 1_555 1_555
C36E N9E 1_555 1_555
H24E C36E 1_555 1_555
Fe3E O5E 1_555 1_555
N1E C1E 1_555 1_555
N2E C6E 1_555 1_555
N3E C8E 1_555 1_555
O1E Fe3E 1_555 1_555
O2E Fe3E 1_555 1_555
C1E H1E 1_555 1_555
C2E C1E 1_555 1_555
H2E C2E 1_555 1_555
C3E C2E 1_555 1_555
H3E C3E 1_555 1_555
C4E C3E 1_555 1_555
H4E C4E 1_555 1_555
C5E N1E 1_555 1_555
C6E O1E 1_555 1_555
C7E N2E 1_555 1_555
C8E C7E 1_555 1_555
C9E C8E 1_555 1_555
H5E C9E 1_555 1_555
C10E C9E 1_555 1_555
H6E C10E 1_555 1_555
C11E C10E 1_555 1_555
H7E C11E 1_555 1_555
C12E N3E 1_555 1_555
H8E C12E 1_555 1_555
N4E C13E 1_555 1_555
N5E C18E 1_555 1_555
N6E C20E 1_555 1_555
O3E Fe3E 1_555 1_555
O4E Fe3E 1_555 1_555
C13E H9E 1_555 1_555
C14E C13E 1_555 1_555
H10E C14E 1_555 1_555
C15E C14E 1_555 1_555
H11E C15E 1_555 1_555
C16E C15E 1_555 1_555
H12E C16E 1_555 1_555
C17E N4E 1_555 1_555
C18E O3E 1_555 1_555
C19E N5E 1_555 1_555
C20E C19E 1_555 1_555
C21E C20E 1_555 1_555
H13E C21E 1_555 1_555
C22E C21E 1_555 1_555
H14E C22E 1_555 1_555
C23E C22E 1_555 1_555
H15E C23E 1_555 1_555
C24E N6E 1_555 1_555
H16E C24E 1_555 1_555
Fe1E N1E 1_555 1_555
N4G Fe1 1_555 1_555
N5G Fe1 1_555 1_555
N6G Fe1 1_555 1_555
Fe1G N4 1_555 1_555
Fe1F N4E 1_555 1_555
N4F Fe1E 1_555 1_555
N5F Fe1E 1_555 1_555
N6F Fe1E 1_555 1_555
N5 Fe1G 1_555 1_555
N6 Fe1G 1_555 1_555
O2 C7 1_555 1_555
O4 C19 1_555 1_555
O5 C30 1_555 1_555
O6 C31 1_555 1_555
C4 C5 1_555 1_555
C5 C6 1_555 1_555
C7 C8 1_555 1_555
C11 C12 1_555 1_555
C16 C17 1_555 1_555
C17 C18 1_555 1_555
C23 C24 1_555 1_555
C28 C29 1_555 1_555
C29 C30 1_555 1_555
C31 C32 1_555 1_555
C35 C36 1_555 1_555
O6E Fe3E 1_555 1_555
C28E C29E 1_555 1_555
C29E C30E 1_555 1_555
C31E C32E 1_555 1_555
C35E C36E 1_555 1_555
N2E Fe1E 1_555 1_555
N3E Fe1E 1_555 1_555
O2E C7E 1_555 1_555
C4E C5E 1_555 1_555
C5E C6E 1_555 1_555
C11E C12E 1_555 1_555
N5E Fe1F 1_555 1_555
N6E Fe1F 1_555 1_555
O4E C19E 1_555 1_555
C16E C17E 1_555 1_555
C17E C18E 1_555 1_555
C23E C24E 1_555 1_555

#END
