
#######################################################################
#
#                 Cambridge Crystallographic Data Centre
#                                CCDC 
#
#######################################################################
#
# If this CIF has been generated from an entry in the Cambridge 
# Structural Database, then it will include bibliographic, chemical, 
# crystal, experimental, refinement or atomic coordinate data resulting 
# from the CCDC's data processing and validation procedures.
#
#######################################################################

data_EJAWUH
_symmetry_cell_setting           monoclinic
_symmetry_space_group_name_H-M   'C 2/c'
_symmetry_Int_Tables_number      15
_space_group_name_Hall           '-C 2yn'
loop_
_symmetry_equiv_pos_site_id
_symmetry_equiv_pos_as_xyz
1 x,y,z
2 1/2+x,1/2+y,z
3 x,-y,1/2+z
4 1/2+x,1/2-y,1/2+z
5 -x,-y,-z
6 1/2-x,1/2-y,-z
7 -x,y,1/2-z
8 1/2-x,1/2+y,1/2-z
_cell_length_a                   21.731(4)
_cell_length_b                   10.588(2)
_cell_length_c                   11.685(2)
_cell_angle_alpha                90
_cell_angle_beta                 110.50(3)
_cell_angle_gamma                90
_cell_volume                     2518.31
loop_
_atom_site_label
_atom_site_type_symbol
_atom_site_fract_x
_atom_site_fract_y
_atom_site_fract_z
Fe1 Fe 0.5000 0.0000 0.5000
N1 N 0.60628(9) 0.0505(2) 0.59685(18)
C1 C 0.81488(12) 0.1222(2) 0.7724(3)
H1 H 0.8242 0.1395 0.8584
H2 H 0.8266 0.1968 0.7364
C2 C 0.89211(13) -0.1222(2) 0.6145(2)
C3 C 0.94598(13) -0.1057(3) 0.5781(3)
H3 H 0.9606 -0.0247 0.5701
C4 C 0.63683(12) 0.1433(2) 0.5593(2)
H4 H 0.6121 0.1933 0.4940
N2 N 0.96224(10) -0.3286(2) 0.56793(18)
C5 C 0.74231(12) 0.0986(2) 0.7119(2)
C6 C 0.70328(13) 0.1684(2) 0.6129(2)
H5 H 0.7220 0.2330 0.5820
C7 C 0.97781(13) -0.2094(3) 0.5538(3)
H6 H 1.0123 -0.1952 0.5258
C8 C 0.91330(14) -0.3437(3) 0.6109(3)
H7 H 0.9029 -0.4254 0.6271
C9 C 0.87733(14) -0.2456(3) 0.6327(3)
H8 H 0.8428 -0.2626 0.6599
C10 C 0.85102(13) -0.0125(2) 0.6296(2)
H9 H 0.8052 -0.0294 0.5827
H10 H 0.8637 0.0629 0.5962
C11 C 0.64400(12) -0.0175(2) 0.6920(2)
H11 H 0.6244 -0.0830 0.7198
C12 C 0.85809(12) 0.0120(2) 0.7611(2)
H12 H 0.9037 0.0309 0.8080
H13 H 0.8460 -0.0635 0.7952
C13 C 0.71026(12) 0.0036(2) 0.7514(2)
H14 H 0.7336 -0.0460 0.8182
S1 S 0.5000 -0.18022(8) 0.7500
O1 O 0.49835(9) -0.09706(18) 0.64811(15)
O2 O 0.55932(10) -0.2545(2) 0.78761(18)
O1F O 0.50165(9) -0.09706(18) 0.85189(15)
O2F O 0.44068(10) -0.2545(2) 0.71239(18)
N1D N 0.39372(9) -0.0505(2) 0.40315(18)
C1D C 0.18512(12) -0.1222(2) 0.2276(3)
H1D H 0.1758 -0.1395 0.1416
H2D H 0.1734 -0.1968 0.2636
C2D C 0.10789(13) 0.1222(2) 0.3855(2)
C3D C 0.05402(13) 0.1057(3) 0.4219(3)
H3D H 0.0394 0.0247 0.4299
C4D C 0.36317(12) -0.1433(2) 0.4407(2)
H4D H 0.3879 -0.1933 0.5060
N2D N 0.03776(10) 0.3286(2) 0.43207(18)
C5D C 0.25769(12) -0.0986(2) 0.2881(2)
C6D C 0.29672(13) -0.1684(2) 0.3871(2)
H5D H 0.2780 -0.2330 0.4180
C7D C 0.02219(13) 0.2094(3) 0.4462(3)
H6D H -0.0123 0.1952 0.4742
C8D C 0.08670(14) 0.3437(3) 0.3891(3)
H7D H 0.0971 0.4254 0.3729
C9D C 0.12267(14) 0.2456(3) 0.3673(3)
H8D H 0.1572 0.2626 0.3401
C10D C 0.14898(13) 0.0125(2) 0.3704(2)
H9D H 0.1948 0.0294 0.4173
H10D H 0.1363 -0.0629 0.4038
C11D C 0.35600(12) 0.0175(2) 0.3080(2)
H11D H 0.3756 0.0830 0.2802
C12D C 0.14191(12) -0.0120(2) 0.2389(2)
H12D H 0.0963 -0.0309 0.1920
H13D H 0.1540 0.0635 0.2048
C13D C 0.28974(12) -0.0036(2) 0.2486(2)
H14D H 0.2664 0.0460 0.1818
N2A N 0.46224(10) 0.1714(2) 0.56793(18)
N2E N 0.53776(10) -0.1714(2) 0.43207(18)
O1D O 0.50165(9) 0.09706(18) 0.35189(15)
Fe1A Fe 1.0000 -0.5000 0.5000
Fe1B Fe 0.5000 0.0000 1.0000
Fe1A_2 Fe 0.0000 0.5000 0.5000
loop_
_geom_bond_atom_site_label_1
_geom_bond_atom_site_label_2
_geom_bond_site_symmetry_1
_geom_bond_site_symmetry_2
Fe1 N1 1_555 1_555
N1 C4 1_555 1_555
C1 H1 1_555 1_555
H2 C1 1_555 1_555
C2 C3 1_555 1_555
C3 H3 1_555 1_555
C4 H4 1_555 1_555
N2 C7 1_555 1_555
C5 C1 1_555 1_555
C6 C4 1_555 1_555
H5 C6 1_555 1_555
C7 C3 1_555 1_555
H6 C7 1_555 1_555
C8 N2 1_555 1_555
H7 C8 1_555 1_555
C9 C2 1_555 1_555
H8 C9 1_555 1_555
C10 C2 1_555 1_555
H9 C10 1_555 1_555
H10 C10 1_555 1_555
C11 N1 1_555 1_555
H11 C11 1_555 1_555
C12 C1 1_555 1_555
H12 C12 1_555 1_555
H13 C12 1_555 1_555
C13 C5 1_555 1_555
H14 C13 1_555 1_555
S1 O1 1_555 1_555
O1 Fe1 1_555 1_555
O2 S1 1_555 1_555
O1F S1 1_555 1_555
O2F S1 1_555 1_555
N1D Fe1 1_555 1_555
C1D H1D 1_555 1_555
H2D C1D 1_555 1_555
C2D C3D 1_555 1_555
C3D H3D 1_555 1_555
C4D N1D 1_555 1_555
H4D C4D 1_555 1_555
N2D C7D 1_555 1_555
C5D C1D 1_555 1_555
C6D C4D 1_555 1_555
H5D C6D 1_555 1_555
C7D C3D 1_555 1_555
H6D C7D 1_555 1_555
C8D N2D 1_555 1_555
H7D C8D 1_555 1_555
C9D C2D 1_555 1_555
H8D C9D 1_555 1_555
C10D C2D 1_555 1_555
H9D C10D 1_555 1_555
H10D C10D 1_555 1_555
C11D N1D 1_555 1_555
H11D C11D 1_555 1_555
C12D C1D 1_555 1_555
H12D C12D 1_555 1_555
H13D C12D 1_555 1_555
C13D C5D 1_555 1_555
H14D C13D 1_555 1_555
N2A Fe1 1_555 1_555
N2E Fe1 1_555 1_555
O1D Fe1 1_555 1_555
Fe1A N2 1_555 1_555
Fe1B O1F 1_555 1_555
Fe1A_2 N2D 1_555 1_555
C5 C6 1_555 1_555
C8 C9 1_555 1_555
C10 C12 1_555 1_555
C11 C13 1_555 1_555
C5D C6D 1_555 1_555
C8D C9D 1_555 1_555
C10D C12D 1_555 1_555
C11D C13D 1_555 1_555

#END
