
#######################################################################
#
#                 Cambridge Crystallographic Data Centre
#                                CCDC 
#
#######################################################################
#
# If this CIF has been generated from an entry in the Cambridge 
# Structural Database, then it will include bibliographic, chemical, 
# crystal, experimental, refinement or atomic coordinate data resulting 
# from the CCDC's data processing and validation procedures.
#
#######################################################################

data_EJAYUJ02
_symmetry_cell_setting           monoclinic
_symmetry_space_group_name_H-M   'P 21/n'
_symmetry_Int_Tables_number      14
_space_group_name_Hall           '-P 2yn'
loop_
_symmetry_equiv_pos_site_id
_symmetry_equiv_pos_as_xyz
1 x,y,z
2 1/2-x,1/2+y,1/2-z
3 -x,-y,-z
4 1/2+x,1/2-y,1/2+z
_cell_length_a                   9.955(2)
_cell_length_b                   9.2130(18)
_cell_length_c                   16.007(3)
_cell_angle_alpha                90
_cell_angle_beta                 96.82(3)
_cell_angle_gamma                90
_cell_volume                     1457.7
loop_
_atom_site_label
_atom_site_type_symbol
_atom_site_fract_x
_atom_site_fract_y
_atom_site_fract_z
Ni1 Ni 0.96864(4) 0.32153(5) 0.24246(3)
N1 N 1.1263(2) 0.4336(3) 0.31351(17)
N2 N 1.1029(2) 0.3504(3) 0.15501(17)
C1 C 1.1296(4) 0.4574(5) 0.3962(2)
H1 H 1.0483 0.4696 0.4185
C2 C 1.2483(4) 0.4645(5) 0.4495(2)
H2 H 1.2491 0.4894 0.5059
C3 C 1.3670(3) 0.4327(5) 0.4156(2)
H3 H 1.4482 0.4296 0.4508
C4 C 1.3671(3) 0.4057(4) 0.3309(2)
C5 C 1.2437(3) 0.4170(4) 0.2792(2)
C6 C 1.2233(3) 0.4073(4) 0.1860(2)
C7 C 1.3144(3) 0.4569(4) 0.1309(2)
C8 C 1.2816(4) 0.4330(5) 0.0459(2)
H4 H 1.3425 0.4595 0.0088
C9 C 1.1597(4) 0.3704(5) 0.0151(2)
H5 H 1.1378 0.3533 -0.0422
C10 C 1.0714(3) 0.3341(4) 0.0718(2)
H6 H 0.9868 0.2969 0.0516
C11 C 1.4967(3) 0.3476(4) 0.3025(3)
C12 C 1.4361(3) 0.5523(4) 0.1584(2)
O1 O 1.6054(2) 0.4036(3) 0.33620(19)
O2 O 1.4864(2) 0.2426(4) 0.2532(2)
O3 O 1.4240(2) 0.6382(3) 0.21757(15)
O4 O 1.5386(3) 0.5397(4) 0.1202(2)
O5 O 0.8566(3) 0.3071(4) 0.34257(19)
O6 O 0.8577(3) 0.5060(4) 0.19959(19)
O7 O 0.8433(3) 0.1934(4) 0.1636(2)
H7 H 0.762(4) 0.204(5) 0.142(3)
H8 H 0.769(5) 0.336(6) 0.337(3)
H9 H 0.858(4) 0.118(5) 0.165(3)
H10 H 0.897(4) 0.587(6) 0.219(3)
H11 H 0.875(5) 0.228(6) 0.361(3)
H12 H 0.782(4) 0.507(5) 0.209(3)
Ni1A Ni 1.53136(4) 0.82153(5) 0.25754(3)
O3A O 1.0760(2) 0.1382(3) 0.28243(15)
O8 O 1.5890(4) 0.2379(5) 0.0941(3)
H13 H 1.579(9) 0.329(11) 0.071(6)
H14 H 1.554(7) 0.239(9) 0.130(5)
loop_
_geom_bond_atom_site_label_1
_geom_bond_atom_site_label_2
_geom_bond_site_symmetry_1
_geom_bond_site_symmetry_2
Ni1 N1 1_555 1_555
N1 C1 1_555 1_555
N2 Ni1 1_555 1_555
C1 H1 1_555 1_555
C2 C1 1_555 1_555
H2 C2 1_555 1_555
C3 C2 1_555 1_555
H3 C3 1_555 1_555
C4 C3 1_555 1_555
C5 N1 1_555 1_555
C6 N2 1_555 1_555
C7 C6 1_555 1_555
C8 C7 1_555 1_555
H4 C8 1_555 1_555
C9 C8 1_555 1_555
H5 C9 1_555 1_555
C10 N2 1_555 1_555
H6 C10 1_555 1_555
C11 C4 1_555 1_555
C12 C7 1_555 1_555
O1 C11 1_555 1_555
O2 C11 1_555 1_555
O3 C12 1_555 1_555
O4 C12 1_555 1_555
O5 Ni1 1_555 1_555
O6 Ni1 1_555 1_555
O7 Ni1 1_555 1_555
O8 H13 1_555 1_555
H7 O7 1_555 1_555
H8 O5 1_555 1_555
H9 O7 1_555 1_555
H10 O6 1_555 1_555
H11 O5 1_555 1_555
H12 O6 1_555 1_555
H14 O8 1_555 1_555
Ni1A O3 1_555 1_555
O3A Ni1 1_555 1_555
C4 C5 1_555 1_555
C5 C6 1_555 1_555
C9 C10 1_555 1_555

#END
