
#######################################################################
#
#                 Cambridge Crystallographic Data Centre
#                                CCDC 
#
#######################################################################
#
# If this CIF has been generated from an entry in the Cambridge 
# Structural Database, then it will include bibliographic, chemical, 
# crystal, experimental, refinement or atomic coordinate data resulting 
# from the CCDC's data processing and validation procedures.
#
#######################################################################

data_EJAYUJ
_symmetry_cell_setting           monoclinic
_symmetry_space_group_name_H-M   'P 21/n'
_symmetry_Int_Tables_number      14
_space_group_name_Hall           '-P 2yn'
loop_
_symmetry_equiv_pos_site_id
_symmetry_equiv_pos_as_xyz
1 x,y,z
2 1/2+x,1/2-y,1/2+z
3 -x,-y,-z
4 1/2-x,1/2+y,1/2-z
_cell_length_a                   9.931(2)
_cell_length_b                   9.1780(18)
_cell_length_c                   15.970(3)
_cell_angle_alpha                90
_cell_angle_beta                 96.71(3)
_cell_angle_gamma                90
_cell_volume                     1445.64
loop_
_atom_site_label
_atom_site_type_symbol
_atom_site_fract_x
_atom_site_fract_y
_atom_site_fract_z
Ni1 Ni 0.03152(4) 0.17859(5) -0.24223(3)
O1 O -0.4869(3) 0.2579(4) -0.2542(2)
O2 O -0.6053(2) 0.0967(3) -0.3365(2)
O3 O -0.4243(2) -0.1380(3) -0.21758(15)
O4 O -0.5402(3) -0.0388(4) -0.1212(2)
N1 N -0.1030(3) 0.1493(3) -0.15512(17)
N2 N -0.1256(3) 0.0668(3) -0.31322(18)
C1 C -0.0721(4) 0.1659(4) -0.0721(2)
H1 H 0.0126 0.2030 -0.0517
C2 C -0.1611(5) 0.1299(5) -0.0156(3)
H2 H -0.1396 0.1473 0.0418
C3 C -0.2832(4) 0.0675(5) -0.0465(3)
H3 H -0.3444 0.0407 -0.0094
C4 C -0.3152(4) 0.0444(4) -0.1316(2)
C5 C -0.2236(3) 0.0930(4) -0.1860(2)
C6 C -0.2440(3) 0.0836(4) -0.2796(2)
C7 C -0.3660(3) 0.0948(4) -0.3309(2)
C8 C -0.3661(4) 0.0670(4) -0.4163(2)
H4 H -0.4474 0.0692 -0.4517
C9 C -0.2472(4) 0.0361(5) -0.4493(2)
H5 H -0.2474 0.0117 -0.5058
C10 C -0.1284(4) 0.0427(4) -0.3960(2)
H6 H -0.0468 0.0298 -0.4183
C11 C -0.4963(4) 0.1525(4) -0.3029(3)
C12 C -0.4375(4) -0.0519(4) -0.1590(3)
O5 O 0.1565(3) 0.3071(4) -0.1634(2)
H7 H 0.234(5) 0.294(5) -0.146(3)
H8 H 0.137(5) 0.397(6) -0.163(3)
O6 O 0.1426(3) -0.0058(4) -0.1993(2)
H9 H 0.224(5) -0.021(6) -0.208(3)
H10 H 0.100(5) -0.077(6) -0.219(3)
O7 O 0.1432(3) 0.1930(4) -0.3421(2)
H11 H 0.221(5) 0.176(6) -0.332(3)
H12 H 0.127(6) 0.277(7) -0.362(4)
Ni1C Ni -0.53152(4) -0.32141(5) -0.25777(3)
O3C O -0.0757(2) 0.3620(3) -0.28242(15)
O8 O -0.9112(4) -0.2371(5) -0.4052(3)
H13 H -0.951(6) -0.234(7) -0.358(4)
H14 H -0.908(7) -0.320(8) -0.421(5)
loop_
_geom_bond_atom_site_label_1
_geom_bond_atom_site_label_2
_geom_bond_site_symmetry_1
_geom_bond_site_symmetry_2
Ni1 N1 1_555 1_555
O1 C11 1_555 1_555
O2 C11 1_555 1_555
O3 C12 1_555 1_555
O4 C12 1_555 1_555
N1 C1 1_555 1_555
N2 Ni1 1_555 1_555
C1 H1 1_555 1_555
C2 C1 1_555 1_555
H2 C2 1_555 1_555
C3 C2 1_555 1_555
H3 C3 1_555 1_555
C4 C3 1_555 1_555
C5 N1 1_555 1_555
C6 N2 1_555 1_555
C7 C6 1_555 1_555
C8 C7 1_555 1_555
H4 C8 1_555 1_555
C9 C8 1_555 1_555
H5 C9 1_555 1_555
C10 N2 1_555 1_555
H6 C10 1_555 1_555
C11 C7 1_555 1_555
C12 C4 1_555 1_555
O5 Ni1 1_555 1_555
H7 O5 1_555 1_555
H8 O5 1_555 1_555
O6 Ni1 1_555 1_555
H9 O6 1_555 1_555
H10 O6 1_555 1_555
O7 Ni1 1_555 1_555
H11 O7 1_555 1_555
H12 O7 1_555 1_555
O8 H13 1_555 1_555
H14 O8 1_555 1_555
Ni1C O3 1_555 1_555
O3C Ni1 1_555 1_555
C4 C5 1_555 1_555
C5 C6 1_555 1_555
C9 C10 1_555 1_555

#END
