
#######################################################################
#
#                 Cambridge Crystallographic Data Centre
#                                CCDC 
#
#######################################################################
#
# If this CIF has been generated from an entry in the Cambridge 
# Structural Database, then it will include bibliographic, chemical, 
# crystal, experimental, refinement or atomic coordinate data resulting 
# from the CCDC's data processing and validation procedures.
#
#######################################################################

data_EJAZOF
_symmetry_cell_setting           monoclinic
_symmetry_space_group_name_H-M   'P 21/c'
_symmetry_Int_Tables_number      14
_space_group_name_Hall           '-P 2ybc'
loop_
_symmetry_equiv_pos_site_id
_symmetry_equiv_pos_as_xyz
1 x,y,z
2 -x,1/2+y,1/2-z
3 -x,-y,-z
4 x,1/2-y,1/2+z
_cell_length_a                   13.954(3)
_cell_length_b                   17.734(3)
_cell_length_c                   13.428(3)
_cell_angle_alpha                90
_cell_angle_beta                 110.03(3)
_cell_angle_gamma                90
_cell_volume                     3121.91
loop_
_atom_site_label
_atom_site_type_symbol
_atom_site_fract_x
_atom_site_fract_y
_atom_site_fract_z
Ag1 Ag 0.195870(16) -0.550140(10) -0.405350(15)
Ag2 Ag 0.164650(15) -0.907010(10) -0.378010(15)
O1 O 0.39185(14) -0.57770(10) -0.37769(14)
O2 O 0.49627(13) -0.67406(10) -0.31285(14)
O3 O 0.48741(13) -0.81061(10) -0.30832(14)
H1 H 0.4894 -0.7622 -0.3090
O4 O 0.37174(14) -0.90057(10) -0.33827(14)
O5 O 0.00212(15) -0.91528(10) -0.33674(15)
H2 H -0.0328 -0.8744 -0.3465
H3 H 0.0220 -0.9312 -0.2728
N1 N 0.22141(16) -0.66871(11) -0.40419(15)
N2 N 0.21192(15) -0.79455(11) -0.39390(14)
N3 N 0.16306(17) -0.03028(11) -0.38059(16)
N4 N 0.18921(17) -0.43100(11) -0.38200(15)
C1 C 0.40674(19) -0.64524(14) -0.35452(18)
C2 C 0.31823(18) -0.69652(13) -0.37479(17)
C3 C 0.31267(18) -0.77480(13) -0.36795(17)
C4 C 0.39340(19) -0.83299(14) -0.33722(18)
C5 C 0.16107(19) -0.72892(13) -0.41325(18)
H4 H 0.0907 -0.7255 -0.4312
C6 C 0.2534(2) -0.06696(14) -0.3518(2)
H5 H 0.3130 -0.0386 -0.3325
C7 C 0.26137(19) -0.14459(14) -0.34954(19)
H6 H 0.3252 -0.1674 -0.3285
C8 C 0.17363(18) -0.18863(13) -0.37883(17)
C9 C 0.08053(19) -0.15100(13) -0.40826(18)
H7 H 0.0199 -0.1781 -0.4283
C10 C 0.0787(2) -0.07316(13) -0.40752(18)
H8 H 0.0157 -0.0492 -0.4267
C11 C 0.17950(18) -0.27202(13) -0.37663(17)
C12 C 0.27027(19) -0.31013(13) -0.36751(17)
H9 H 0.3295 -0.2830 -0.3594
C13 C 0.27153(19) -0.38835(14) -0.37059(18)
H10 H 0.3326 -0.4123 -0.3644
C14 C 0.1023(2) -0.39519(14) -0.38785(18)
H11 H 0.0445 -0.4237 -0.3943
C15 C 0.09600(19) -0.31743(13) -0.38454(18)
H12 H 0.0347 -0.2951 -0.3877
Ag2_2 Ag 0.164650(15) 0.092990(10) -0.378010(15)
N3_2 N 0.16306(17) -1.03028(11) -0.38059(16)
Ag3 Ag 0.303980(16) -0.553360(11) -0.600420(15)
Ag4 Ag 0.329700(15) -0.195070(10) -0.609570(14)
O6 O 0.09839(14) -0.52308(10) -0.63448(14)
O7 O -0.00188(14) -0.42245(10) -0.67691(15)
O8 O 0.01430(14) -0.28640(10) -0.68546(14)
H13 H 0.0086 -0.3345 -0.6803
O9 O 0.13539(14) -0.19948(10) -0.63681(14)
N5 N 0.27274(16) -0.43544(11) -0.60162(15)
N6 N 0.28845(15) -0.30985(11) -0.60421(14)
N7 N 0.33975(17) -0.07393(12) -0.60995(16)
N8 N 0.31341(16) 0.32546(11) -0.61764(15)
C16 C 0.0871(2) -0.45410(14) -0.64683(19)
C17 C 0.17676(18) -0.40463(13) -0.62753(18)
C18 C 0.18645(18) -0.32686(13) -0.62864(18)
C19 C 0.10810(19) -0.26648(14) -0.65079(18)
C20 C 0.33533(19) -0.37605(13) -0.58966(18)
H14 H 0.4055 -0.3809 -0.5727
C21 C 0.2591(2) -0.03690(14) -0.60038(19)
H15 H 0.2066 -0.0648 -0.5907
C22 C 0.2512(2) 0.04025(14) -0.60428(19)
H16 H 0.1938 0.0636 -0.5982
C23 C 0.32944(19) 0.08374(13) -0.61741(18)
C24 C 0.41099(19) 0.04522(14) -0.62935(18)
H17 H 0.4640 0.0718 -0.6404
C25 C 0.4139(2) -0.03282(14) -0.62495(19)
H18 H 0.4696 -0.0576 -0.6327
C26 C 0.32368(19) 0.16729(13) -0.61882(17)
C27 C 0.23082(19) 0.20455(14) -0.64946(18)
H19 H 0.1703 0.1772 -0.6714
C28 C 0.2285(2) 0.28290(14) -0.64733(19)
H20 H 0.1655 0.3069 -0.6673
C29 C 0.40311(19) 0.28966(14) -0.59023(18)
H21 H 0.4626 0.3182 -0.5708
C30 C 0.41119(19) 0.21166(13) -0.58955(18)
H22 H 0.4751 0.1890 -0.5695
O10 O 0.48655(14) -0.54754(10) -0.63066(14)
H23 H 0.5143 -0.5038 -0.6218
H24 H 0.4583 -0.5595 -0.6968
Ag3_2 Ag 0.303980(16) 0.446640(11) -0.600420(15)
N8_2 N 0.31341(16) -0.67454(11) -0.61764(15)
loop_
_geom_bond_atom_site_label_1
_geom_bond_atom_site_label_2
_geom_bond_site_symmetry_1
_geom_bond_site_symmetry_2
Ag1 O1 1_555 1_555
Ag2 O5 1_555 1_555
O1 C1 1_555 1_555
O2 C1 1_555 1_555
O3 H1 1_555 1_555
O4 C4 1_555 1_555
O5 H2 1_555 1_555
H3 O5 1_555 1_555
N1 Ag1 1_555 1_555
N2 Ag2 1_555 1_555
N3 C6 1_555 1_555
N4 Ag1 1_555 1_555
C1 C2 1_555 1_555
C2 N1 1_555 1_555
C3 N2 1_555 1_555
C4 O3 1_555 1_555
C5 N1 1_555 1_555
H4 C5 1_555 1_555
C6 H5 1_555 1_555
C7 C6 1_555 1_555
H6 C7 1_555 1_555
C8 C7 1_555 1_555
C9 C8 1_555 1_555
H7 C9 1_555 1_555
C10 N3 1_555 1_555
H8 C10 1_555 1_555
C11 C8 1_555 1_555
C12 C11 1_555 1_555
H9 C12 1_555 1_555
C13 N4 1_555 1_555
H10 C13 1_555 1_555
C14 N4 1_555 1_555
H11 C14 1_555 1_555
C15 C11 1_555 1_555
H12 C15 1_555 1_555
Ag3 N5 1_555 1_555
Ag4 O9 1_555 1_555
O6 C16 1_555 1_555
O7 C16 1_555 1_555
O8 H13 1_555 1_555
O9 C19 1_555 1_555
N5 C17 1_555 1_555
N6 Ag4 1_555 1_555
N7 Ag4 1_555 1_555
N8 C28 1_555 1_555
C16 C17 1_555 1_555
C17 C18 1_555 1_555
C18 N6 1_555 1_555
C19 O8 1_555 1_555
C20 N5 1_555 1_555
H14 C20 1_555 1_555
C21 N7 1_555 1_555
H15 C21 1_555 1_555
C22 C21 1_555 1_555
H16 C22 1_555 1_555
C23 C22 1_555 1_555
C24 C23 1_555 1_555
H17 C24 1_555 1_555
C25 N7 1_555 1_555
H18 C25 1_555 1_555
C26 C23 1_555 1_555
C27 C26 1_555 1_555
H19 C27 1_555 1_555
C28 C27 1_555 1_555
H20 C28 1_555 1_555
C29 N8 1_555 1_555
H21 C29 1_555 1_555
C30 C26 1_555 1_555
H22 C30 1_555 1_555
O10 Ag3 1_555 1_555
H23 O10 1_555 1_555
H24 O10 1_555 1_555
Ag2_2 N3 1_555 1_555
N3_2 Ag2 1_555 1_555
Ag3_2 N8 1_555 1_555
N8_2 Ag3 1_555 1_555
N2 C5 1_555 1_555
C2 C3 1_555 1_555
C3 C4 1_555 1_555
C9 C10 1_555 1_555
C12 C13 1_555 1_555
C14 C15 1_555 1_555
N6 C20 1_555 1_555
C18 C19 1_555 1_555
C24 C25 1_555 1_555
C29 C30 1_555 1_555

#END
