
#######################################################################
#
#                 Cambridge Crystallographic Data Centre
#                                CCDC 
#
#######################################################################
#
# If this CIF has been generated from an entry in the Cambridge 
# Structural Database, then it will include bibliographic, chemical, 
# crystal, experimental, refinement or atomic coordinate data resulting 
# from the CCDC's data processing and validation procedures.
#
#######################################################################

data_EJEBOL
_symmetry_cell_setting           monoclinic
_symmetry_space_group_name_H-M   'P 21/n'
_symmetry_Int_Tables_number      14
_space_group_name_Hall           '-P 2yn'
loop_
_symmetry_equiv_pos_site_id
_symmetry_equiv_pos_as_xyz
1 x,y,z
2 1/2-x,1/2+y,1/2-z
3 -x,-y,-z
4 1/2+x,1/2-y,1/2+z
_cell_length_a                   10.6865(14)
_cell_length_b                   7.8570(10)
_cell_length_c                   12.5255(16)
_cell_angle_alpha                90
_cell_angle_beta                 105.391(2)
_cell_angle_gamma                90
_cell_volume                     1013.97
loop_
_atom_site_label
_atom_site_type_symbol
_atom_site_fract_x
_atom_site_fract_y
_atom_site_fract_z
Mn1 Mn 0.42903(5) 0.01413(7) 0.18533(4)
C1 C 0.6736(4) 0.1527(6) 0.4620(4)
C2 C 0.5316(3) 0.1874(5) 0.4370(3)
C3 C 0.3434(3) 0.2761(5) 0.4587(3)
C4 C 0.3277(3) 0.2183(4) 0.3514(3)
C5 C 0.2533(4) 0.3413(5) 0.5219(3)
C6 C 0.2152(3) 0.2008(4) 0.2513(3)
N1 N 0.4462(3) 0.1625(4) 0.3404(2)
N2 N 0.4726(3) 0.2537(4) 0.5100(2)
H1 H 0.5099 0.2780 0.5779
O1 O 0.2345(2) 0.1096(3) 0.1751(2)
O2 O 0.1082(2) 0.2751(3) 0.2442(2)
O3 O 0.1386(2) 0.3758(3) 0.4690(2)
O4 O 0.2957(3) 0.3504(4) 0.6254(2)
O5 O 0.6310(3) -0.0713(4) 0.2108(2)
O6 O 0.4739(3) 0.2185(4) 0.0878(2)
H2 H 0.715(5) 0.259(8) 0.461(4)
H3 H 0.691(6) 0.092(9) 0.409(6)
H4 H 0.713(5) 0.095(7) 0.526(5)
H5 H 0.670(9) -0.118(13) 0.272(5)
H6 H 0.528(4) 0.191(7) 0.052(4)
H8 H 0.682(4) -0.006(5) 0.188(4)
H9 H 0.491(7) 0.318(4) 0.115(5)
Mn1A Mn 0.07097(5) 0.51413(7) 0.31467(4)
O2A O 0.3918(2) -0.2249(3) 0.2558(2)
O3A O 0.3614(2) -0.1242(3) 0.0310(2)
O7 O 0.5485(4) 0.5386(5) 0.1568(3)
H7 H 0.581(5) 0.570(7) 0.2232(18)
H10 H 0.513(9) 0.625(8) 0.121(8)
loop_
_geom_bond_atom_site_label_1
_geom_bond_atom_site_label_2
_geom_bond_site_symmetry_1
_geom_bond_site_symmetry_2
Mn1 N1 1_555 1_555
C1 C2 1_555 1_555
C2 N1 1_555 1_555
C3 C4 1_555 1_555
C4 C6 1_555 1_555
C5 C3 1_555 1_555
C6 O1 1_555 1_555
N1 C4 1_555 1_555
N2 C2 1_555 1_555
H1 N2 1_555 1_555
O1 Mn1 1_555 1_555
O2 C6 1_555 1_555
O3 C5 1_555 1_555
O4 C5 1_555 1_555
O5 Mn1 1_555 1_555
O6 Mn1 1_555 1_555
O7 H7 1_555 1_555
H2 C1 1_555 1_555
H3 C1 1_555 1_555
H4 C1 1_555 1_555
H5 O5 1_555 1_555
H6 O6 1_555 1_555
H8 O5 1_555 1_555
H9 O6 1_555 1_555
H10 O7 1_555 1_555
Mn1A O2 1_555 1_555
O2A Mn1 1_555 1_555
O3A Mn1 1_555 1_555
C3 N2 1_555 1_555
O3 Mn1A 1_555 1_555

#END
