
#######################################################################
#
#                 Cambridge Crystallographic Data Centre
#                                CCDC 
#
#######################################################################
#
# If this CIF has been generated from an entry in the Cambridge 
# Structural Database, then it will include bibliographic, chemical, 
# crystal, experimental, refinement or atomic coordinate data resulting 
# from the CCDC's data processing and validation procedures.
#
#######################################################################

data_EJEFIJ
_symmetry_cell_setting           monoclinic
_symmetry_space_group_name_H-M   'P 21/n'
_symmetry_Int_Tables_number      14
_space_group_name_Hall           '-P 2yn'
loop_
_symmetry_equiv_pos_site_id
_symmetry_equiv_pos_as_xyz
1 x,y,z
2 1/2-x,1/2+y,1/2-z
3 -x,-y,-z
4 1/2+x,1/2-y,1/2+z
_cell_length_a                   17.607(6)
_cell_length_b                   10.258(3)
_cell_length_c                   21.879(7)
_cell_angle_alpha                90
_cell_angle_beta                 101.049(5)
_cell_angle_gamma                90
_cell_volume                     3878.37
loop_
_atom_site_label
_atom_site_type_symbol
_atom_site_fract_x
_atom_site_fract_y
_atom_site_fract_z
Cd1 Cd 0.759589(10) 0.242342(18) 0.069590(8)
Cd2 Cd 1.002913(10) 0.312397(18) 0.005955(8)
C1 C 0.91778(14) 0.3089(2) 0.12769(12)
C2 C 0.98787(13) 0.3555(2) 0.17307(11)
C3 C 1.01053(15) 0.2943(3) 0.23045(12)
H1 H 0.9825 0.2230 0.2403
C4 C 1.07391(15) 0.3374(3) 0.27313(12)
H2 H 1.0883 0.2937 0.3108
C5 C 1.11646(14) 0.4451(2) 0.26060(11)
C6 C 1.09406(14) 0.5051(2) 0.20266(11)
H3 H 1.1220 0.5765 0.1929
C7 C 1.03129(13) 0.4610(2) 0.15933(10)
C8 C 1.01319(14) 0.5371(3) 0.09922(11)
C9 C 1.18288(14) 0.4978(2) 0.30632(11)
C10 C 1.24093(15) 0.5698(3) 0.28696(12)
H4 H 1.2383 0.5851 0.2447
C11 C 1.30227(15) 0.6188(3) 0.32941(12)
H5 H 1.3400 0.6673 0.3152
C12 C 1.30899(13) 0.5973(2) 0.39304(11)
C13 C 1.25066(14) 0.5265(2) 0.41359(11)
C14 C 1.18864(14) 0.4789(2) 0.37018(11)
H6 H 1.1498 0.4329 0.3842
C15 C 1.37615(14) 0.6567(2) 0.43686(12)
C16 C 1.25128(15) 0.4931(2) 0.48114(12)
C17 C 0.67396(16) 0.0083(3) 0.14311(13)
H7 H 0.6877 -0.0615 0.1204
C18 C 0.62923(16) 0.0008(3) 0.18683(14)
H8 H 0.6068 -0.0742 0.1993
C19 C 0.66493(14) 0.2043(3) 0.17784(12)
C20 C 0.67676(14) 0.3460(3) 0.18535(12)
C21 C 0.65834(16) 0.4203(3) 0.23320(14)
H9 H 0.6367 0.3813 0.2642
C22 C 0.67239(17) 0.5533(3) 0.23464(15)
H10 H 0.6591 0.6046 0.2660
C23 C 0.70595(19) 0.6084(3) 0.18945(15)
H11 H 0.7162 0.6973 0.1895
C24 C 0.7242(2) 0.5281(3) 0.14379(15)
H12 H 0.7478 0.5649 0.1134
C25 C 0.57196(16) 0.1567(3) 0.25246(13)
H13 H 0.6016 0.2019 0.2881
H14 H 0.5526 0.0766 0.2674
C26 C 0.50408(15) 0.2410(3) 0.22342(14)
C27 C 0.4660(2) 0.3106(3) 0.26211(16)
H15 H 0.4832 0.3080 0.3050
C28 C 0.4021(2) 0.3842(4) 0.23681(18)
H16 H 0.3755 0.4291 0.2630
C29 C 0.3771(2) 0.3921(4) 0.17310(17)
H17 H 0.3345 0.4434 0.1567
C30 C 0.41515(16) 0.3241(3) 0.13396(14)
C31 C 0.47830(15) 0.2479(3) 0.15948(14)
H18 H 0.5038 0.2006 0.1333
C32 C 0.39324(17) 0.3279(3) 0.06375(14)
H19 H 0.4382 0.3543 0.0472
H20 H 0.3795 0.2405 0.0488
C33 C 0.25406(16) 0.3718(3) 0.02241(15)
H21 H 0.2365 0.2878 0.0276
C34 C 0.21106(16) 0.4738(3) -0.00283(14)
H22 H 0.1579 0.4719 -0.0178
C35 C 0.32858(14) 0.5439(3) 0.02283(12)
C36 C 0.39391(15) 0.6354(3) 0.03206(12)
C37 C 0.46277(17) 0.6186(3) 0.07451(15)
H23 H 0.4712 0.5437 0.0988
C38 C 0.51805(19) 0.7139(4) 0.08001(18)
H24 H 0.5649 0.7038 0.1077
C39 C 0.5039(2) 0.8232(4) 0.04475(19)
H25 H 0.5407 0.8892 0.0478
C40 C 0.43415(19) 0.8342(3) 0.00459(17)
H26 H 0.4246 0.9097 -0.0191
H28 H 0.946(3) 0.120(5) -0.064(2)
H30 H 0.888(2) 0.148(4) -0.0353(18)
N1 N 0.70976(14) 0.4001(2) 0.14097(11)
N2 N 0.69579(12) 0.1354(2) 0.13765(10)
N3 N 0.62327(12) 0.1242(2) 0.20917(10)
N4 N 0.37953(14) 0.7438(2) -0.00244(12)
N5 N 0.25757(12) 0.5812(2) -0.00319(10)
N6 N 0.32889(12) 0.4159(2) 0.03899(11)
O1 O 0.86587(11) 0.2515(2) 0.14922(9)
O2 O 0.91186(9) 0.33288(17) 0.07070(8)
O3 O 0.96484(11) 0.62660(18) 0.09307(9)
O4 O 1.05258(10) 0.51033(17) 0.05786(8)
O5 O 1.43105(12) 0.6997(2) 0.41361(10)
O6 O 1.37593(11) 0.6657(2) 0.49294(9)
O7 O 1.29587(11) 0.39967(19) 0.50302(9)
O8 O 1.20643(12) 0.5500(2) 0.50854(9)
O9 O 0.91706(19) 0.1778(3) -0.05102(14)
Cd1B Cd 0.240411(10) 0.757658(18) -0.069590(8)
Cd1C Cd 1.259589(10) 0.257658(18) 0.569590(8)
Cd2B Cd 0.997087(10) 0.687603(18) -0.005955(8)
Cd2A Cd 1.497087(10) 0.812397(18) 0.494045(8)
N4B N 0.62047(14) 0.2562(2) 0.00244(12)
N5B N 0.74243(12) 0.4188(2) 0.00319(10)
O3B O 1.03516(11) 0.37340(18) -0.09307(9)
O4B O 0.94742(10) 0.48967(17) -0.05786(8)
O5A O 1.06895(12) 0.1997(2) 0.08639(10)
O6A O 1.12407(11) 0.1657(2) 0.00706(9)
O7C O 0.79587(11) 0.10033(19) 0.00302(9)
H27 H 0.868(3) 0.748(3) 0.107(7)
H29 H 0.8596(14) 0.8792(17) 0.1162(13)
O11 O 0.8301(2) 0.8024(4) 0.11421(15)
O10 O 0.2234(5) 0.6682(10) 0.1300(4)
O12 O 0.9862(2) 0.9763(3) 0.10310(17)
loop_
_geom_bond_atom_site_label_1
_geom_bond_atom_site_label_2
_geom_bond_site_symmetry_1
_geom_bond_site_symmetry_2
Cd1 N1 1_555 1_555
Cd2 O2 1_555 1_555
C1 C2 1_555 1_555
C2 C3 1_555 1_555
C3 H1 1_555 1_555
C4 C3 1_555 1_555
H2 C4 1_555 1_555
C5 C4 1_555 1_555
C6 C5 1_555 1_555
H3 C6 1_555 1_555
C7 C2 1_555 1_555
C8 C7 1_555 1_555
C9 C5 1_555 1_555
C10 C9 1_555 1_555
H4 C10 1_555 1_555
C11 C10 1_555 1_555
H5 C11 1_555 1_555
C12 C11 1_555 1_555
C13 C12 1_555 1_555
C14 C9 1_555 1_555
H6 C14 1_555 1_555
C15 C12 1_555 1_555
C16 C13 1_555 1_555
C17 H7 1_555 1_555
C18 C17 1_555 1_555
H8 C18 1_555 1_555
C19 C20 1_555 1_555
C20 C21 1_555 1_555
C21 H9 1_555 1_555
C22 C21 1_555 1_555
H10 C22 1_555 1_555
C23 C22 1_555 1_555
H11 C23 1_555 1_555
C24 C23 1_555 1_555
H12 C24 1_555 1_555
C25 H13 1_555 1_555
H14 C25 1_555 1_555
C26 C25 1_555 1_555
C27 C26 1_555 1_555
H15 C27 1_555 1_555
C28 C27 1_555 1_555
H16 C28 1_555 1_555
C29 C28 1_555 1_555
H17 C29 1_555 1_555
C30 C29 1_555 1_555
C31 C26 1_555 1_555
H18 C31 1_555 1_555
C32 C30 1_555 1_555
H19 C32 1_555 1_555
H20 C32 1_555 1_555
C33 H21 1_555 1_555
C34 C33 1_555 1_555
H22 C34 1_555 1_555
C35 C36 1_555 1_555
C36 C37 1_555 1_555
C37 H23 1_555 1_555
C38 C37 1_555 1_555
H24 C38 1_555 1_555
C39 C38 1_555 1_555
H25 C39 1_555 1_555
C40 C39 1_555 1_555
H26 C40 1_555 1_555
H27 O11 1_555 1_555
H28 O9 1_555 1_555
H29 O11 1_555 1_555
H30 O9 1_555 1_555
N1 C20 1_555 1_555
N2 Cd1 1_555 1_555
N3 C18 1_555 1_555
N4 C36 1_555 1_555
N5 C34 1_555 1_555
N6 C32 1_555 1_555
O1 Cd1 1_555 1_555
O2 C1 1_555 1_555
O3 C8 1_555 1_555
O4 Cd2 1_555 1_555
O5 C15 1_555 1_555
O6 C15 1_555 1_555
O7 C16 1_555 1_555
O8 C16 1_555 1_555
O9 Cd2 1_555 1_555
Cd1B N4 1_555 1_555
Cd1C O7 1_555 1_555
Cd2B O3 1_555 1_555
Cd2A O5 1_555 1_555
N4B Cd1 1_555 1_555
N5B Cd1 1_555 1_555
O3B Cd2 1_555 1_555
O4B Cd2 1_555 1_555
O5A Cd2 1_555 1_555
O6A Cd2 1_555 1_555
O7C Cd1 1_555 1_555
C1 O1 1_555 1_555
C6 C7 1_555 1_555
C8 O4 1_555 1_555
C13 C14 1_555 1_555
C17 N2 1_555 1_555
C19 N2 1_555 1_555
C19 N3 1_555 1_555
C24 N1 1_555 1_555
C25 N3 1_555 1_555
C30 C31 1_555 1_555
C33 N6 1_555 1_555
C35 N5 1_555 1_555
C35 N6 1_555 1_555
C40 N4 1_555 1_555
N5 Cd1B 1_555 1_555
O4 Cd2B 1_555 1_555
O6 Cd2A 1_555 1_555
Cd2B O4B 1_555 1_555

#END
