
#######################################################################
#
#                 Cambridge Crystallographic Data Centre
#                                CCDC 
#
#######################################################################
#
# If this CIF has been generated from an entry in the Cambridge 
# Structural Database, then it will include bibliographic, chemical, 
# crystal, experimental, refinement or atomic coordinate data resulting 
# from the CCDC's data processing and validation procedures.
#
#######################################################################

data_EJEKIN
_symmetry_cell_setting           monoclinic
_symmetry_space_group_name_H-M   'P 2/c'
_symmetry_Int_Tables_number      13
_space_group_name_Hall           '-P 2yc'
loop_
_symmetry_equiv_pos_site_id
_symmetry_equiv_pos_as_xyz
1 x,y,z
2 x,-y,1/2+z
3 -x,-y,-z
4 -x,y,1/2-z
_cell_length_a                   12.264(3)
_cell_length_b                   10.111(2)
_cell_length_c                   22.650(5)
_cell_angle_alpha                90
_cell_angle_beta                 96.89(3)
_cell_angle_gamma                90
_cell_volume                     2788.35
loop_
_atom_site_label
_atom_site_type_symbol
_atom_site_fract_x
_atom_site_fract_y
_atom_site_fract_z
C1 C 0.78426(13) 0.43497(16) 0.67346(7)
C2 C 0.76938(14) 0.53392(16) 0.72081(7)
H1 H 0.8104 0.6115 0.7222
C3 C 0.70058(14) 0.51650(16) 0.76093(7)
H2 H 0.6581 0.4401 0.7592
C4 C 0.68880(13) 0.61492(16) 0.80881(7)
C5 C 0.88864(13) 0.36792(16) 0.47498(7)
C6 C 0.97230(13) 0.47622(16) 0.47524(7)
H3 H 0.9861 0.5118 0.4390
C7 C 0.60453(13) 0.35557(16) 0.50341(7)
C8 C 0.51762(13) 0.45405(17) 0.48244(7)
H4 H 0.4867 0.4509 0.4429
C9 C 0.66938(14) 0.01467(17) 0.55520(7)
H5 H 0.6142 0.0685 0.5365
C10 C 0.65370(15) -0.12319(18) 0.55331(7)
H6 H 0.5886 -0.1588 0.5347
C11 C 0.73530(15) -0.20485(17) 0.57919(8)
H7 H 0.7269 -0.2962 0.5774
C12 C 0.83213(14) -0.14824(17) 0.60860(7)
C13 C 0.83947(13) -0.00902(16) 0.60964(7)
C14 C 0.92195(16) -0.22544(17) 0.63677(9)
H8 H 0.9187 -0.3172 0.6344
C15 C 1.01089(15) -0.16713(18) 0.66659(8)
H9 H 1.0675 -0.2193 0.6850
C16 C 1.01956(14) -0.02520(17) 0.67040(7)
C17 C 0.93503(13) 0.05296(16) 0.64097(7)
C18 C 1.10878(14) 0.04141(19) 0.70208(8)
H10 H 1.1663 -0.0065 0.7223
C19 C 1.11090(14) 0.17744(19) 0.70315(7)
H11 H 1.1688 0.2225 0.7246
C20 C 1.02364(14) 0.24713(17) 0.67100(8)
H12 H 1.0260 0.3391 0.6711
C21 C 0.46772(14) 0.83281(17) 0.82226(7)
H13 H 0.4575 0.7422 0.8172
C22 C 0.38576(14) 0.91871(19) 0.79549(7)
H14 H 0.3235 0.8853 0.7729
C23 C 0.39937(14) 1.05284(18) 0.80336(7)
H15 H 0.3458 1.1112 0.7866
C24 C 0.49575(14) 1.10142(17) 0.83724(7)
C25 C 0.57327(13) 1.00775(15) 0.86112(7)
C26 C 0.51798(16) 1.23929(17) 0.84749(8)
H16 H 0.4664 1.3017 0.8323
C27 C 0.61298(16) 1.27995(17) 0.87891(8)
H17 H 0.6253 1.3699 0.8851
C28 C 0.69516(14) 1.18649(17) 0.90284(7)
C29 C 0.67479(13) 1.05033(16) 0.89431(7)
C30 C 0.79664(16) 1.22348(18) 0.93420(8)
H18 H 0.8138 1.3124 0.9405
C31 C 0.87007(14) 1.12743(18) 0.95542(7)
H19 H 0.9376 1.1506 0.9760
C32 C 0.84218(14) 0.99361(18) 0.94577(7)
H20 H 0.8920 0.9293 0.9610
N1 N 0.93849(11) 0.18762(13) 0.64073(6)
N2 N 0.75940(11) 0.07160(13) 0.58248(6)
N3 N 0.55857(11) 0.87480(13) 0.85426(6)
N4 N 0.74773(11) 0.95512(13) 0.91587(6)
O1 O 0.84044(10) 0.46731(12) 0.63247(5)
O2 O 0.74096(10) 0.32169(11) 0.67522(5)
O3 O 0.73935(10) 0.72436(11) 0.80923(5)
O4 O 0.63002(10) 0.58483(12) 0.84911(5)
O5 O 0.82484(10) 0.35656(13) 0.42737(5)
O6 O 0.88844(10) 0.29480(12) 0.52024(5)
O7 O 0.61330(10) 0.25522(11) 0.47060(5)
O8 O 0.66130(10) 0.37518(13) 0.55234(5)
Co1 Co 0.798748(17) 0.27685(2) 0.590143(9)
Co2 Co 0.691125(18) 0.76042(2) 0.897057(9)
C6B C 1.02770(13) 0.52378(16) 0.52476(7)
C5B C 1.11136(13) 0.63208(16) 0.52502(7)
O5B O 1.17516(10) 0.64344(13) 0.57263(5)
O6B O 1.11156(10) 0.70520(12) 0.47976(5)
H3B H 1.0139 0.4882 0.5610
C8B C 0.48238(13) 0.54595(17) 0.51756(7)
C7B C 0.39547(13) 0.64443(16) 0.49659(7)
O7B O 0.38670(10) 0.74478(11) 0.52940(5)
O8B O 0.33870(10) 0.62482(13) 0.44766(5)
H4B H 0.5133 0.5491 0.5571
Co1B Co 1.201252(17) 0.72315(2) 0.409857(9)
Co2A Co 0.691125(18) 0.23958(2) 0.397057(9)
C9B C 1.33062(14) 0.98533(17) 0.44480(7)
H5B H 1.3858 0.9315 0.4635
C10B C 1.34630(15) 1.12319(18) 0.44669(7)
H6B H 1.4114 1.1588 0.4653
C11B C 1.26470(15) 1.20485(17) 0.42081(8)
H7B H 1.2731 1.2962 0.4226
C12B C 1.16787(14) 1.14824(17) 0.39140(7)
C13B C 1.16053(13) 1.00902(16) 0.39036(7)
C14B C 1.07805(16) 1.22544(17) 0.36323(9)
H8B H 1.0813 1.3172 0.3656
C15B C 0.98911(15) 1.16713(18) 0.33341(8)
H9B H 0.9325 1.2193 0.3150
C16B C 0.98044(14) 1.02520(17) 0.32960(7)
C17B C 1.06497(13) 0.94704(16) 0.35903(7)
C18B C 0.89122(14) 0.95859(19) 0.29792(8)
H10B H 0.8337 1.0065 0.2777
C19B C 0.88910(14) 0.82256(19) 0.29685(7)
H11B H 0.8312 0.7775 0.2754
C20B C 0.97636(14) 0.75287(17) 0.32900(8)
H12B H 0.9740 0.6609 0.3289
N1B N 1.06151(11) 0.81238(13) 0.35927(6)
N2B N 1.24060(11) 0.92840(13) 0.41752(6)
C1B C 1.21574(13) 0.56503(16) 0.32654(7)
C2B C 1.23062(14) 0.46608(16) 0.27919(7)
H1B H 1.1896 0.3885 0.2778
C3B C 1.29942(14) 0.48350(16) 0.23907(7)
H2B H 1.3419 0.5599 0.2408
C4B C 1.31120(13) 0.38508(16) 0.19119(7)
O1B O 1.15956(10) 0.53269(12) 0.36753(5)
O2B O 1.25904(10) 0.67831(11) 0.32478(5)
O3B O 1.26065(10) 0.27564(11) 0.19077(5)
O4B O 1.36998(10) 0.41517(12) 0.15089(5)
C21A C 0.46772(14) 0.16719(17) 0.32226(7)
H13A H 0.4575 0.2578 0.3172
C22A C 0.38576(14) 0.08129(19) 0.29549(7)
H14A H 0.3235 0.1147 0.2729
C23A C 0.39937(14) -0.05284(18) 0.30336(7)
H15A H 0.3458 -0.1112 0.2866
C24A C 0.49575(14) -0.10142(17) 0.33724(7)
C25A C 0.57327(13) -0.00775(15) 0.36112(7)
C26A C 0.51798(16) -0.23929(17) 0.34749(8)
H16A H 0.4664 -0.3017 0.3323
C27A C 0.61298(16) -0.27995(17) 0.37891(8)
H17A H 0.6253 -0.3699 0.3851
C28A C 0.69516(14) -0.18649(17) 0.40284(7)
C29A C 0.67479(13) -0.05033(16) 0.39431(7)
C30A C 0.79664(16) -0.22348(18) 0.43420(8)
H18A H 0.8138 -0.3124 0.4405
C31A C 0.87007(14) -0.12743(18) 0.45542(7)
H19A H 0.9376 -0.1506 0.4760
C32A C 0.84218(14) 0.00639(18) 0.44577(7)
H20A H 0.8920 0.0707 0.4610
N3A N 0.55857(11) 0.12520(13) 0.35426(6)
N4A N 0.74773(11) 0.04488(13) 0.41587(6)
O5A O 0.82484(10) 0.64344(13) 0.92737(5)
O7A O 0.61330(10) 0.74478(11) 0.97060(5)
Co2C Co 1.308875(18) 0.76042(2) 0.602943(9)
Co2C_2 Co 0.308875(18) 0.76042(2) 0.602943(9)
Co1B_2 Co 0.201252(17) 0.72315(2) 0.409857(9)
O8B_2 O 1.33870(10) 0.62482(13) 0.44766(5)
O3A O 0.73935(10) 0.27564(11) 0.30923(5)
O4A O 0.63002(10) 0.41517(12) 0.34911(5)
Co2B Co 1.308875(18) 0.23958(2) 0.102943(9)
loop_
_geom_bond_atom_site_label_1
_geom_bond_atom_site_label_2
_geom_bond_site_symmetry_1
_geom_bond_site_symmetry_2
C1 C2 1_555 1_555
C2 H1 1_555 1_555
C3 C2 1_555 1_555
H2 C3 1_555 1_555
C4 C3 1_555 1_555
C5 C6 1_555 1_555
C6 H3 1_555 1_555
C7 C8 1_555 1_555
C8 H4 1_555 1_555
C9 H5 1_555 1_555
C10 C9 1_555 1_555
H6 C10 1_555 1_555
C11 C10 1_555 1_555
H7 C11 1_555 1_555
C12 C11 1_555 1_555
C13 C12 1_555 1_555
C14 C12 1_555 1_555
H8 C14 1_555 1_555
C15 C14 1_555 1_555
H9 C15 1_555 1_555
C16 C15 1_555 1_555
C17 C13 1_555 1_555
C18 C16 1_555 1_555
H10 C18 1_555 1_555
C19 C18 1_555 1_555
H11 C19 1_555 1_555
C20 C19 1_555 1_555
H12 C20 1_555 1_555
C21 H13 1_555 1_555
C22 C21 1_555 1_555
H14 C22 1_555 1_555
C23 C22 1_555 1_555
H15 C23 1_555 1_555
C24 C23 1_555 1_555
C25 C24 1_555 1_555
C26 C24 1_555 1_555
H16 C26 1_555 1_555
C27 C26 1_555 1_555
H17 C27 1_555 1_555
C28 C27 1_555 1_555
C29 C25 1_555 1_555
C30 C28 1_555 1_555
H18 C30 1_555 1_555
C31 C30 1_555 1_555
H19 C31 1_555 1_555
C32 C31 1_555 1_555
H20 C32 1_555 1_555
N1 C17 1_555 1_555
N2 C9 1_555 1_555
N3 C21 1_555 1_555
N4 C29 1_555 1_555
O1 C1 1_555 1_555
O2 C1 1_555 1_555
O3 C4 1_555 1_555
O4 C4 1_555 1_555
O5 C5 1_555 1_555
O6 C5 1_555 1_555
O7 C7 1_555 1_555
O8 C7 1_555 1_555
Co1 N1 1_555 1_555
Co2 N3 1_555 1_555
C6B C6 1_555 1_555
C5B C6B 1_555 1_555
O5B C5B 1_555 1_555
O6B C5B 1_555 1_555
H3B C6B 1_555 1_555
C8B C8 1_555 1_555
C7B C8B 1_555 1_555
O7B C7B 1_555 1_555
O8B C7B 1_555 1_555
H4B C8B 1_555 1_555
Co1B O6B 1_555 1_555
Co2A O5 1_555 1_555
C9B H5B 1_555 1_555
C10B C9B 1_555 1_555
H6B C10B 1_555 1_555
C11B C10B 1_555 1_555
H7B C11B 1_555 1_555
C12B C11B 1_555 1_555
C13B C12B 1_555 1_555
C14B C12B 1_555 1_555
H8B C14B 1_555 1_555
C15B C14B 1_555 1_555
H9B C15B 1_555 1_555
C16B C15B 1_555 1_555
C17B C13B 1_555 1_555
C18B C16B 1_555 1_555
H10B C18B 1_555 1_555
C19B C18B 1_555 1_555
H11B C19B 1_555 1_555
C20B C19B 1_555 1_555
H12B C20B 1_555 1_555
N1B Co1B 1_555 1_555
N2B Co1B 1_555 1_555
C1B C2B 1_555 1_555
C2B H1B 1_555 1_555
C3B C2B 1_555 1_555
H2B C3B 1_555 1_555
C4B C3B 1_555 1_555
O1B Co1B 1_555 1_555
O2B Co1B 1_555 1_555
O3B C4B 1_555 1_555
O4B C4B 1_555 1_555
C21A H13A 1_555 1_555
C22A C21A 1_555 1_555
H14A C22A 1_555 1_555
C23A C22A 1_555 1_555
H15A C23A 1_555 1_555
C24A C23A 1_555 1_555
C25A C24A 1_555 1_555
C26A C24A 1_555 1_555
H16A C26A 1_555 1_555
C27A C26A 1_555 1_555
H17A C27A 1_555 1_555
C28A C27A 1_555 1_555
C29A C25A 1_555 1_555
C30A C28A 1_555 1_555
H18A C30A 1_555 1_555
C31A C30A 1_555 1_555
H19A C31A 1_555 1_555
C32A C31A 1_555 1_555
H20A C32A 1_555 1_555
N3A Co2A 1_555 1_555
N4A Co2A 1_555 1_555
O5A Co2 1_555 1_555
O7A Co2 1_555 1_555
Co2C O5B 1_555 1_555
Co2C_2 O7B 1_555 1_555
Co1B_2 O8B 1_555 1_555
O8B_2 Co1B 1_555 1_555
O3A Co2A 1_555 1_555
O4A Co2A 1_555 1_555
Co2B O3B 1_555 1_555
C13 N2 1_555 1_555
C16 C17 1_555 1_555
C20 N1 1_555 1_555
C25 N3 1_555 1_555
C28 C29 1_555 1_555
C32 N4 1_555 1_555
N2 Co1 1_555 1_555
N4 Co2 1_555 1_555
O1 Co1 1_555 1_555
O2 Co1 1_555 1_555
O3 Co2 1_555 1_555
O4 Co2 1_555 1_555
O6 Co1 1_555 1_555
O7 Co2A 1_555 1_555
O8 Co1 1_555 1_555
C9B N2B 1_555 1_555
C13B N2B 1_555 1_555
C16B C17B 1_555 1_555
C17B N1B 1_555 1_555
C20B N1B 1_555 1_555
C1B O1B 1_555 1_555
C1B O2B 1_555 1_555
O4B Co2B 1_555 1_555
C21A N3A 1_555 1_555
C25A N3A 1_555 1_555
C28A C29A 1_555 1_555
C29A N4A 1_555 1_555
C32A N4A 1_555 1_555

#END
