
#######################################################################
#
#                 Cambridge Crystallographic Data Centre
#                                CCDC 
#
#######################################################################
#
# If this CIF has been generated from an entry in the Cambridge 
# Structural Database, then it will include bibliographic, chemical, 
# crystal, experimental, refinement or atomic coordinate data resulting 
# from the CCDC's data processing and validation procedures.
#
#######################################################################

data_EJEKIN01
_symmetry_cell_setting           monoclinic
_symmetry_space_group_name_H-M   'P 2/c'
_symmetry_Int_Tables_number      13
_space_group_name_Hall           '-P 2yc'
loop_
_symmetry_equiv_pos_site_id
_symmetry_equiv_pos_as_xyz
1 x,y,z
2 x,-y,1/2+z
3 -x,-y,-z
4 -x,y,1/2-z
_cell_length_a                   12.332(3)
_cell_length_b                   10.102(3)
_cell_length_c                   22.840(5)
_cell_angle_alpha                90
_cell_angle_beta                 97.36(2)
_cell_angle_gamma                90
_cell_volume                     2821.92
loop_
_atom_site_label
_atom_site_type_symbol
_atom_site_fract_x
_atom_site_fract_y
_atom_site_fract_z
Co1 Co 0.79827(3) 0.27880(4) 0.590415(16)
Co2 Co 0.69149(3) 0.75880(4) 0.896890(16)
N1 N 0.93756(18) 0.1878(2) 0.64099(10)
N2 N 0.75869(18) 0.0740(2) 0.58267(10)
N3 N 0.74769(18) 0.9537(2) 0.91561(10)
N4 N 0.55895(17) 0.8744(2) 0.85419(9)
C1 C 1.0234(2) 0.2467(3) 0.67132(14)
H1 H 1.0264 0.3387 0.6718
C2 C 1.1096(2) 0.1755(4) 0.70267(14)
H2 H 1.1678 0.2198 0.7241
C3 C 1.1072(3) 0.0401(4) 0.70144(14)
H3 H 1.1646 -0.0083 0.7214
C4 C 1.0180(2) -0.0252(3) 0.66995(13)
C5 C 0.9341(2) 0.0539(3) 0.64089(12)
C6 C 0.8383(2) -0.0070(3) 0.60946(12)
C7 C 0.8308(2) -0.1465(3) 0.60837(13)
C8 C 0.7339(3) -0.2010(3) 0.57866(15)
H4 H 0.7251 -0.2924 0.5765
C9 C 0.6534(3) -0.1203(3) 0.55317(14)
H5 H 0.5884 -0.1559 0.5346
C10 C 0.6691(2) 0.0176(3) 0.55515(13)
H6 H 0.6143 0.0717 0.5364
C11 C 0.8416(2) 0.9918(3) 0.94584(13)
H7 H 0.8910 0.9274 0.9614
C12 C 0.8694(3) 1.1257(4) 0.95525(15)
H8 H 0.9366 1.1491 0.9759
C13 C 0.7970(3) 1.2204(3) 0.93383(16)
H9 H 0.8145 1.3093 0.9400
C14 C 0.6957(2) 1.1851(3) 0.90240(14)
C15 C 0.6756(2) 1.0488(3) 0.89423(12)
C16 C 0.5740(2) 1.0068(3) 0.86106(12)
C17 C 0.4977(2) 1.1011(3) 0.83740(13)
C18 C 0.4008(3) 1.0525(3) 0.80379(14)
H10 H 0.3470 1.1107 0.7873
C19 C 0.3879(2) 0.9192(4) 0.79615(14)
H11 H 0.3257 0.8860 0.7736
C20 C 0.4680(2) 0.8328(3) 0.82222(13)
H12 H 0.4573 0.7423 0.8170
C21 C 1.0092(3) -0.1666(3) 0.66605(16)
H13 H 1.0657 -0.2191 0.6842
C22 C 0.9200(3) -0.2240(3) 0.63640(17)
H14 H 0.9163 -0.3158 0.6341
C23 C 0.6150(3) 1.2786(3) 0.87857(16)
H15 H 0.6281 1.3686 0.8844
C24 C 0.5194(3) 1.2385(3) 0.84749(16)
H16 H 0.4677 1.3010 0.8327
O1 O 0.74002(16) 0.3224(2) 0.67523(9)
O2 O 0.83883(18) 0.4676(2) 0.63375(10)
O3 O 0.74021(17) 0.72451(19) 0.80944(9)
O4 O 0.63170(18) 0.5846(2) 0.84775(10)
O5 O 0.88703(16) 0.2982(2) 0.52142(9)
O6 O 0.82572(18) 0.3554(2) 0.42837(9)
O7 O 0.61419(17) 0.25902(19) 0.46952(9)
O8 O 0.66074(18) 0.3748(2) 0.55190(9)
C25 C 0.7835(2) 0.4356(3) 0.67410(12)
C26 C 0.7687(2) 0.5336(3) 0.72132(14)
H17 H 0.8097 0.6110 0.7228
C27 C 0.7021(3) 0.5175(3) 0.76050(13)
H18 H 0.6597 0.4411 0.7585
C28 C 0.6895(2) 0.6147(3) 0.80856(12)
C29 C 0.8883(2) 0.3684(3) 0.47575(12)
C30 C 0.9716(2) 0.4755(3) 0.47573(12)
H19 H 0.9846 0.5101 0.4395
C31 C 0.5174(2) 0.4548(3) 0.48295(13)
H20 H 0.4857 0.4515 0.4438
C32 C 0.6044(2) 0.3570(3) 0.50266(12)
C30B C 1.0284(2) 0.5245(3) 0.52427(12)
C29B C 1.1117(2) 0.6316(3) 0.52425(12)
O5B O 1.11297(16) 0.7018(2) 0.47858(9)
O6B O 1.17428(18) 0.6446(2) 0.57163(9)
H19B H 1.0154 0.4899 0.5605
C31B C 0.4826(2) 0.5452(3) 0.51705(13)
H20B H 0.5143 0.5485 0.5562
C32B C 0.3956(2) 0.6430(3) 0.49734(12)
O7B O 0.38581(17) 0.74098(19) 0.53048(9)
O8B O 0.33926(18) 0.6252(2) 0.44810(9)
Co1B Co 1.20173(3) 0.72120(4) 0.409585(16)
Co2A Co 0.69149(3) 0.24120(4) 0.396890(16)
N1B N 1.06244(18) 0.8122(2) 0.35901(10)
N2B N 1.24131(18) 0.9260(2) 0.41733(10)
C1B C 0.9766(2) 0.7533(3) 0.32868(14)
H1B H 0.9736 0.6613 0.3282
C2B C 0.8904(2) 0.8245(4) 0.29733(14)
H2B H 0.8322 0.7802 0.2759
C3B C 0.8928(3) 0.9599(4) 0.29856(14)
H3B H 0.8354 1.0083 0.2786
C4B C 0.9820(2) 1.0252(3) 0.33005(13)
C5B C 1.0659(2) 0.9461(3) 0.35911(12)
C6B C 1.1617(2) 1.0070(3) 0.39054(12)
C7B C 1.1692(2) 1.1465(3) 0.39163(13)
C8B C 1.2661(3) 1.2010(3) 0.42134(15)
H4B H 1.2749 1.2924 0.4235
C9B C 1.3466(3) 1.1203(3) 0.44683(14)
H5B H 1.4116 1.1559 0.4654
C10B C 1.3309(2) 0.9824(3) 0.44485(13)
H6B H 1.3857 0.9283 0.4636
C21B C 0.9908(3) 1.1666(3) 0.33395(16)
H13B H 0.9343 1.2191 0.3158
C22B C 1.0800(3) 1.2240(3) 0.36360(17)
H14B H 1.0837 1.3158 0.3659
O1B O 1.25998(16) 0.6776(2) 0.32477(9)
O2B O 1.16117(18) 0.5324(2) 0.36625(10)
O3B O 1.25979(17) 0.27549(19) 0.19056(9)
O4B O 1.36830(18) 0.4154(2) 0.15225(10)
C25B C 1.2165(2) 0.5644(3) 0.32590(12)
C26B C 1.2313(2) 0.4664(3) 0.27868(14)
H17B H 1.1903 0.3890 0.2772
C27B C 1.2979(3) 0.4825(3) 0.23950(13)
H18B H 1.3403 0.5589 0.2415
C28B C 1.3105(2) 0.3853(3) 0.19144(12)
N3A N 0.74769(18) 0.0463(2) 0.41561(10)
N4A N 0.55895(17) 0.1256(2) 0.35419(9)
C11A C 0.8416(2) 0.0082(3) 0.44584(13)
H7A H 0.8910 0.0726 0.4614
C12A C 0.8694(3) -0.1257(4) 0.45525(15)
H8A H 0.9366 -0.1491 0.4759
C13A C 0.7970(3) -0.2204(3) 0.43383(16)
H9A H 0.8145 -0.3093 0.4400
C14A C 0.6957(2) -0.1851(3) 0.40240(14)
C15A C 0.6756(2) -0.0488(3) 0.39423(12)
C16A C 0.5740(2) -0.0068(3) 0.36106(12)
C17A C 0.4977(2) -0.1011(3) 0.33740(13)
C18A C 0.4008(3) -0.0525(3) 0.30379(14)
H10A H 0.3470 -0.1107 0.2873
C19A C 0.3879(2) 0.0808(4) 0.29615(14)
H11A H 0.3257 0.1140 0.2736
C20A C 0.4680(2) 0.1672(3) 0.32222(13)
H12A H 0.4573 0.2577 0.3170
C23A C 0.6150(3) -0.2786(3) 0.37857(16)
H15A H 0.6281 -0.3686 0.3844
C24A C 0.5194(3) -0.2385(3) 0.34749(16)
H16A H 0.4677 -0.3010 0.3327
O6A O 0.82572(18) 0.6446(2) 0.92837(9)
O7A O 0.61419(17) 0.74098(19) 0.96952(9)
Co2C Co 1.30851(3) 0.75880(4) 0.603110(16)
Co2C_2 Co 0.30851(3) 0.75880(4) 0.603110(16)
Co1B_2 Co 0.20173(3) 0.72120(4) 0.409585(16)
O8B_2 O 1.33926(18) 0.6252(2) 0.44810(9)
O3A O 0.74021(17) 0.27549(19) 0.30944(9)
O4A O 0.63170(18) 0.4154(2) 0.34775(10)
Co2B Co 1.30851(3) 0.24120(4) 0.103110(16)
loop_
_geom_bond_atom_site_label_1
_geom_bond_atom_site_label_2
_geom_bond_site_symmetry_1
_geom_bond_site_symmetry_2
Co1 N1 1_555 1_555
Co2 N3 1_555 1_555
N1 C1 1_555 1_555
N2 Co1 1_555 1_555
N3 C11 1_555 1_555
N4 Co2 1_555 1_555
C1 H1 1_555 1_555
C2 C1 1_555 1_555
H2 C2 1_555 1_555
C3 C2 1_555 1_555
H3 C3 1_555 1_555
C4 C3 1_555 1_555
C5 N1 1_555 1_555
C6 N2 1_555 1_555
C7 C6 1_555 1_555
C8 C7 1_555 1_555
H4 C8 1_555 1_555
C9 C8 1_555 1_555
H5 C9 1_555 1_555
C10 N2 1_555 1_555
H6 C10 1_555 1_555
C11 H7 1_555 1_555
C12 C11 1_555 1_555
H8 C12 1_555 1_555
C13 C12 1_555 1_555
H9 C13 1_555 1_555
C14 C13 1_555 1_555
C15 N3 1_555 1_555
C16 N4 1_555 1_555
C17 C16 1_555 1_555
C18 C17 1_555 1_555
H10 C18 1_555 1_555
C19 C18 1_555 1_555
H11 C19 1_555 1_555
C20 N4 1_555 1_555
H12 C20 1_555 1_555
C21 C4 1_555 1_555
H13 C21 1_555 1_555
C22 C7 1_555 1_555
H14 C22 1_555 1_555
C23 C14 1_555 1_555
H15 C23 1_555 1_555
C24 C17 1_555 1_555
H16 C24 1_555 1_555
O1 Co1 1_555 1_555
O2 Co1 1_555 1_555
O3 Co2 1_555 1_555
O4 Co2 1_555 1_555
O5 Co1 1_555 1_555
O6 C29 1_555 1_555
O7 C32 1_555 1_555
O8 Co1 1_555 1_555
C25 O1 1_555 1_555
C26 C25 1_555 1_555
H17 C26 1_555 1_555
C27 C26 1_555 1_555
H18 C27 1_555 1_555
C28 O3 1_555 1_555
C29 O5 1_555 1_555
C30 C29 1_555 1_555
H19 C30 1_555 1_555
C31 H20 1_555 1_555
C32 O8 1_555 1_555
C30B C30 1_555 1_555
C29B C30B 1_555 1_555
O5B C29B 1_555 1_555
O6B C29B 1_555 1_555
H19B C30B 1_555 1_555
C31B C31 1_555 1_555
H20B C31B 1_555 1_555
C32B C31B 1_555 1_555
O7B C32B 1_555 1_555
O8B C32B 1_555 1_555
Co1B O5B 1_555 1_555
Co2A O6 1_555 1_555
N1B Co1B 1_555 1_555
N2B Co1B 1_555 1_555
C1B N1B 1_555 1_555
H1B C1B 1_555 1_555
C2B C1B 1_555 1_555
H2B C2B 1_555 1_555
C3B C2B 1_555 1_555
H3B C3B 1_555 1_555
C4B C3B 1_555 1_555
C5B N1B 1_555 1_555
C6B N2B 1_555 1_555
C7B C6B 1_555 1_555
C8B C7B 1_555 1_555
H4B C8B 1_555 1_555
C9B C8B 1_555 1_555
H5B C9B 1_555 1_555
C10B N2B 1_555 1_555
H6B C10B 1_555 1_555
C21B C4B 1_555 1_555
H13B C21B 1_555 1_555
C22B C7B 1_555 1_555
H14B C22B 1_555 1_555
O1B Co1B 1_555 1_555
O2B Co1B 1_555 1_555
O3B C28B 1_555 1_555
O4B C28B 1_555 1_555
C25B O1B 1_555 1_555
C26B C25B 1_555 1_555
H17B C26B 1_555 1_555
C27B C26B 1_555 1_555
H18B C27B 1_555 1_555
C28B C27B 1_555 1_555
N3A Co2A 1_555 1_555
N4A Co2A 1_555 1_555
C11A N3A 1_555 1_555
H7A C11A 1_555 1_555
C12A C11A 1_555 1_555
H8A C12A 1_555 1_555
C13A C12A 1_555 1_555
H9A C13A 1_555 1_555
C14A C13A 1_555 1_555
C15A N3A 1_555 1_555
C16A N4A 1_555 1_555
C17A C16A 1_555 1_555
C18A C17A 1_555 1_555
H10A C18A 1_555 1_555
C19A C18A 1_555 1_555
H11A C19A 1_555 1_555
C20A N4A 1_555 1_555
H12A C20A 1_555 1_555
C23A C14A 1_555 1_555
H15A C23A 1_555 1_555
C24A C17A 1_555 1_555
H16A C24A 1_555 1_555
O6A Co2 1_555 1_555
O7A Co2 1_555 1_555
Co2C O6B 1_555 1_555
Co2C_2 O7B 1_555 1_555
Co1B_2 O8B 1_555 1_555
O8B_2 Co1B 1_555 1_555
O3A Co2A 1_555 1_555
O4A Co2A 1_555 1_555
Co2B O3B 1_555 1_555
C4 C5 1_555 1_555
C5 C6 1_555 1_555
C9 C10 1_555 1_555
C14 C15 1_555 1_555
C15 C16 1_555 1_555
C19 C20 1_555 1_555
C21 C22 1_555 1_555
C23 C24 1_555 1_555
O2 C25 1_555 1_555
O4 C28 1_555 1_555
O7 Co2A 1_555 1_555
C27 C28 1_555 1_555
C31 C32 1_555 1_555
C4B C5B 1_555 1_555
C5B C6B 1_555 1_555
C9B C10B 1_555 1_555
C21B C22B 1_555 1_555
O2B C25B 1_555 1_555
O4B Co2B 1_555 1_555
C14A C15A 1_555 1_555
C15A C16A 1_555 1_555
C19A C20A 1_555 1_555
C23A C24A 1_555 1_555

#END
