
#######################################################################
#
#                 Cambridge Crystallographic Data Centre
#                                CCDC 
#
#######################################################################
#
# If this CIF has been generated from an entry in the Cambridge 
# Structural Database, then it will include bibliographic, chemical, 
# crystal, experimental, refinement or atomic coordinate data resulting 
# from the CCDC's data processing and validation procedures.
#
#######################################################################

data_EJELAG
_symmetry_cell_setting           monoclinic
_symmetry_space_group_name_H-M   'P 21/c'
_symmetry_Int_Tables_number      14
_space_group_name_Hall           '-P 2ybc'
loop_
_symmetry_equiv_pos_site_id
_symmetry_equiv_pos_as_xyz
1 x,y,z
2 -x,1/2+y,1/2-z
3 -x,-y,-z
4 x,1/2-y,1/2+z
_cell_length_a                   7.7200(15)
_cell_length_b                   15.620(3)
_cell_length_c                   7.8100(16)
_cell_angle_alpha                90
_cell_angle_beta                 113.95(3)
_cell_angle_gamma                90
_cell_volume                     860.693
loop_
_atom_site_label
_atom_site_type_symbol
_atom_site_fract_x
_atom_site_fract_y
_atom_site_fract_z
Co1 Co 0.35351(4) 0.55715(2) 0.07142(4)
N1 N 0.5480(3) 0.60168(12) 0.3338(3)
O1 O 0.5170(2) 0.56919(10) 0.8996(2)
O2 O 0.4216(3) 0.70161(11) 0.8014(3)
O3 O 0.1955(3) 0.57115(13) 0.5084(3)
O4 O 0.1997(2) 0.54100(11) 0.2318(2)
O5 O 0.2409(3) 0.68383(12) 0.0173(3)
O6 O 0.1461(3) 0.51688(13) -0.1719(3)
C1 C 0.4757(3) 0.60161(14) 0.4647(3)
C2 C 0.5794(3) 0.62869(15) 0.6463(3)
C3 C 0.7636(4) 0.65845(16) 0.6929(3)
H1 H 0.8374 0.6766 0.8143
C4 C 0.8349(4) 0.66065(17) 0.5579(4)
H2 H 0.9565 0.6811 0.5856
C5 C 0.7216(4) 0.63170(16) 0.3793(4)
H3 H 0.7695 0.6334 0.2876
C6 C 0.4965(3) 0.63277(15) 0.7909(3)
C7 C 0.2737(3) 0.56924(15) 0.3987(3)
H4 H 0.144(5) 0.531(2) -0.273(4)
H5 H 0.280(5) 0.699(2) -0.060(4)
H6 H 0.039(4) 0.501(3) -0.178(5)
H7 H 0.296(5) 0.713(2) 0.114(4)
O1_2 O 0.5170(2) 0.56919(10) -0.1004(2)
O1B O 0.4830(2) 0.43081(10) 0.1004(2)
Co1_2 Co 0.35351(4) 0.55715(2) 1.07142(4)
Co1B Co 0.64649(4) 0.44285(2) 0.92858(4)
loop_
_geom_bond_atom_site_label_1
_geom_bond_atom_site_label_2
_geom_bond_site_symmetry_1
_geom_bond_site_symmetry_2
Co1 N1 1_555 1_555
N1 C1 1_555 1_555
O1 C6 1_555 1_555
O2 C6 1_555 1_555
O3 C7 1_555 1_555
O4 Co1 1_555 1_555
O5 Co1 1_555 1_555
O6 Co1 1_555 1_555
C1 C2 1_555 1_555
C2 C3 1_555 1_555
C3 H1 1_555 1_555
C4 C3 1_555 1_555
H2 C4 1_555 1_555
C5 N1 1_555 1_555
H3 C5 1_555 1_555
C6 C2 1_555 1_555
C7 O4 1_555 1_555
H4 O6 1_555 1_555
H5 O5 1_555 1_555
H6 O6 1_555 1_555
H7 O5 1_555 1_555
O1_2 Co1 1_555 1_555
O1B Co1 1_555 1_555
Co1_2 O1 1_555 1_555
Co1B O1 1_555 1_555
C1 C7 1_555 1_555
C4 C5 1_555 1_555

#END
