
#######################################################################
#
#                 Cambridge Crystallographic Data Centre
#                                CCDC 
#
#######################################################################
#
# If this CIF has been generated from an entry in the Cambridge 
# Structural Database, then it will include bibliographic, chemical, 
# crystal, experimental, refinement or atomic coordinate data resulting 
# from the CCDC's data processing and validation procedures.
#
#######################################################################

data_EJELIP
_symmetry_cell_setting           orthorhombic
_symmetry_space_group_name_H-M   'P 21 21 2'
_symmetry_Int_Tables_number      18
_space_group_name_Hall           'P 2 2ab'
loop_
_symmetry_equiv_pos_site_id
_symmetry_equiv_pos_as_xyz
1 x,y,z
2 -x,-y,z
3 1/2+x,1/2-y,-z
4 1/2-x,1/2+y,-z
_cell_length_a                   25.1451(4)
_cell_length_b                   31.1622(7)
_cell_length_c                   14.4981(7)
_cell_angle_alpha                90
_cell_angle_beta                 90
_cell_angle_gamma                90
_cell_volume                     11360.4
loop_
_atom_site_label
_atom_site_type_symbol
_atom_site_fract_x
_atom_site_fract_y
_atom_site_fract_z
C1 C -0.1238(5) -0.2509(4) -0.7724(8)
H1 H -0.1392 -0.2225 -0.7607
H2 H -0.0879 -0.2476 -0.7980
H3 H -0.1218 -0.2670 -0.7144
C2 C -0.1359(6) -0.3304(4) -0.9333(8)
H4 H -0.1593 -0.3389 -0.9842
H5 H -0.1303 -0.3551 -0.8923
H6 H -0.1017 -0.3208 -0.9580
C3 C -0.2637(5) -0.2335(3) -0.6824(7)
H7 H -0.2298 -0.2305 -0.6496
H8 H -0.2931 -0.2315 -0.6383
H9 H -0.2669 -0.2105 -0.7283
C4 C -0.3365(4) -0.3126(3) -0.7823(7)
H10 H -0.3495 -0.2967 -0.8361
H11 H -0.3617 -0.3094 -0.7313
H12 H -0.3329 -0.3430 -0.7980
C5 C -0.4019(4) -0.5300(3) -0.3172(7)
H13 H -0.4267 -0.5340 -0.2658
H14 H -0.4199 -0.5368 -0.3754
H15 H -0.3897 -0.5002 -0.3185
C6 C -0.3393(5) -0.6087(4) -0.1912(7)
H16 H -0.3715 -0.6036 -0.1546
H17 H -0.3078 -0.6032 -0.1532
H18 H -0.3388 -0.6386 -0.2123
C7 C -0.1769(6) -0.5315(5) -1.3971(9)
H19 H -0.1457 -0.5502 -1.4016
H20 H -0.1654 -0.5019 -1.3860
H21 H -0.1971 -0.5328 -1.4549
C8 C -0.1973(6) -0.6005(3) -1.2218(9)
H22 H -0.2230 -0.6065 -1.1727
H23 H -0.1626 -0.5940 -1.1945
H24 H -0.1941 -0.6257 -1.2620
C9 C -0.2955(6) -0.5524(3) -0.8732(9)
H25 H -0.3141 -0.5382 -0.8223
H26 H -0.3074 -0.5823 -0.8778
H27 H -0.3034 -0.5374 -0.9311
C10 C -0.1547(8) -0.5681(5) -0.9178(10)
H28 H -0.1233 -0.5609 -0.8809
H29 H -0.1531 -0.5529 -0.9768
H30 H -0.1554 -0.5991 -0.9292
C11 C -0.4987(5) -0.3264(4) -1.1699(9)
H31 H -0.4979 -0.3432 -1.1128
H32 H -0.5233 -0.3398 -1.2137
H33 H -0.5105 -0.2971 -1.1562
C12 C -0.3911(7) -0.3010(4) -1.3375(9)
H34 H -0.3532 -0.3086 -1.3379
H35 H -0.3948 -0.2697 -1.3378
H36 H -0.4083 -0.3130 -1.3923
C13 C -0.2636(5) -0.2342(3) -0.9182(6)
H37 H -0.2852 -0.2160 -0.8755
C14 C -0.3007(5) -0.2530(3) -0.9891(7)
C15 C -0.2942(4) -0.2949(3) -1.0220(7)
H38 H -0.2653 -0.3118 -1.0007
C16 C -0.3297(5) -0.3119(3) -1.0859(7)
H39 H -0.3221 -0.3395 -1.1102
C17 C -0.3814(5) -0.2516(3) -1.0830(7)
C18 C -0.4300(5) -0.2318(3) -1.1117(7)
H40 H -0.4541 -0.2462 -1.1514
C19 C -0.4403(5) -0.1916(4) -1.0802(9)
H41 H -0.4719 -0.1779 -1.1007
C20 C -0.4083(6) -0.1700(4) -1.0216(9)
H42 H -0.4178 -0.1418 -1.0027
C21 C -0.3599(6) -0.1891(3) -0.9872(7)
H43 H -0.3378 -0.1742 -0.9448
C22 C -0.3466(5) -0.2304(3) -1.0186(7)
C23 C -0.2170(5) -0.2067(3) -0.9545(7)
H44 H -0.2069 -0.1871 -0.9027
C24 C -0.2278(5) -0.1780(3) -1.0365(7)
H45 H -0.2381 -0.1491 -1.0146
H46 H -0.2578 -0.1898 -1.0727
C25 C -0.1769(5) -0.1743(4) -1.1002(8)
H47 H -0.1810 -0.1510 -1.1470
C26 C -0.1301(6) -0.1647(4) -1.0318(9)
H48 H -0.0974 -0.1581 -1.0669
H49 H -0.1391 -0.1395 -0.9932
C27 C -0.1208(5) -0.2038(3) -0.9707(8)
H50 H -0.1143 -0.1943 -0.9065
H51 H -0.0889 -0.2194 -0.9923
C28 C -0.1708(5) -0.2522(3) -1.0666(6)
H52 H -0.2043 -0.2685 -1.0741
H53 H -0.1409 -0.2726 -1.0743
C29 C -0.1673(6) -0.2167(3) -1.1447(7)
H54 H -0.1303 -0.2168 -1.1699
C30 C -0.2045(7) -0.2273(4) -1.2213(7)
H55 H -0.2415 -0.2287 -1.2089
C31 C -0.1879(9) -0.2346(4) -1.3038(9)
H56 H -0.1510 -0.2333 -1.3172
H57 H -0.2126 -0.2413 -1.3512
C32 C -0.1787(5) -0.3489(3) -0.7120(7)
H58 H -0.1399 -0.3417 -0.7131
C33 C -0.1856(5) -0.3954(3) -0.7448(7)
C34 C -0.2264(5) -0.4083(3) -0.7994(7)
H59 H -0.2505 -0.3878 -0.8238
C35 C -0.2329(5) -0.4525(3) -0.8197(6)
H60 H -0.2636 -0.4608 -0.8537
C36 C -0.1565(5) -0.4702(4) -0.7443(8)
C37 C -0.1226(5) -0.5042(4) -0.7159(12)
H61 H -0.1308 -0.5331 -0.7317
C38 C -0.0803(8) -0.4953(5) -0.6678(12)
H62 H -0.0572 -0.5184 -0.6528
C39 C -0.0659(5) -0.4530(6) -0.6355(13)
H63 H -0.0359 -0.4476 -0.5974
C40 C -0.1010(6) -0.4200(5) -0.6667(10)
H64 H -0.0925 -0.3911 -0.6521
C41 C -0.1462(5) -0.4278(3) -0.7162(8)
C42 C -0.2004(5) -0.3413(3) -0.6108(7)
H65 H -0.1808 -0.3151 -0.5897
C43 C -0.1888(6) -0.3741(4) -0.5359(8)
H66 H -0.1561 -0.3663 -0.5019
H67 H -0.1841 -0.4030 -0.5631
C44 C -0.2384(8) -0.3734(4) -0.4694(8)
H68 H -0.2308 -0.3916 -0.4141
C45 C -0.2464(7) -0.3277(4) -0.4394(7)
H69 H -0.2122 -0.3149 -0.4200
H70 H -0.2716 -0.3263 -0.3869
C46 C -0.2699(6) -0.3030(4) -0.5262(7)
H71 H -0.3089 -0.3002 -0.5198
H72 H -0.2545 -0.2738 -0.5292
C47 C -0.2908(6) -0.3656(3) -0.6096(7)
H73 H -0.2808 -0.3854 -0.6602
H74 H -0.3283 -0.3570 -0.6194
C48 C -0.2863(6) -0.3897(4) -0.5163(8)
H75 H -0.3179 -0.3819 -0.4779
C49 C -0.2874(8) -0.4371(4) -0.5312(9)
H76 H -0.2562 -0.4522 -0.5491
C50 C -0.3331(8) -0.4576(5) -0.5187(18)
H77 H -0.3640 -0.4421 -0.5009
H78 H -0.3350 -0.4877 -0.5277
C51 C -0.2684(4) -0.6137(3) -0.4256(7)
H79 H -0.2387 -0.6306 -0.3976
C52 C -0.2527(5) -0.6019(3) -0.5222(6)
C53 C -0.2623(4) -0.5621(3) -0.5558(6)
H80 H -0.2798 -0.5417 -0.5178
C54 C -0.2467(4) -0.5503(3) -0.6464(7)
H81 H -0.2545 -0.5220 -0.6667
C55 C -0.2079(5) -0.6167(3) -0.6717(6)
C56 C -0.1812(5) -0.6441(3) -0.7318(7)
H82 H -0.1733 -0.6352 -0.7929
C57 C -0.1665(5) -0.6836(3) -0.7021(8)
H83 H -0.1489 -0.7029 -0.7429
C58 C -0.1772(6) -0.6960(3) -0.6112(8)
H84 H -0.1637 -0.7227 -0.5900
C59 C -0.2059(5) -0.6717(3) -0.5523(7)
H85 H -0.2148 -0.6820 -0.4927
C60 C -0.2223(5) -0.6305(3) -0.5818(7)
C61 C -0.3217(5) -0.6423(3) -0.4210(7)
H86 H -0.3175 -0.6611 -0.3655
C62 C -0.3322(6) -0.6732(4) -0.5028(7)
H87 H -0.3130 -0.6634 -0.5584
H88 H -0.3199 -0.7025 -0.4873
C63 C -0.3917(6) -0.6733(4) -0.5203(8)
H89 H -0.4011 -0.6962 -0.5659
C64 C -0.4230(6) -0.6797(4) -0.4320(8)
H90 H -0.4122 -0.7069 -0.4021
H91 H -0.4615 -0.6814 -0.4461
C65 C -0.4123(5) -0.6420(3) -0.3673(7)
H92 H -0.4450 -0.6244 -0.3617
H93 H -0.4034 -0.6531 -0.3052
C66 C -0.3883(5) -0.5949(3) -0.4868(7)
H94 H -0.3594 -0.5782 -0.5161
H95 H -0.4172 -0.5747 -0.4710
C67 C -0.4097(5) -0.6281(3) -0.5577(6)
H96 H -0.4494 -0.6267 -0.5595
C68 C -0.3871(5) -0.6190(4) -0.6546(7)
H97 H -0.3510 -0.6257 -0.6669
C69 C -0.4161(8) -0.6024(7) -0.7205(10)
H98 H -0.4524 -0.5955 -0.7095
H99 H -0.4009 -0.5972 -0.7795
C70 C -0.2912(4) -0.5044(3) -1.1700(6)
H100 H -0.3116 -0.5237 -1.1276
C71 C -0.3240(5) -0.4643(3) -1.1819(6)
C72 C -0.3300(4) -0.4439(3) -1.2626(6)
H101 H -0.3134 -0.4550 -1.3164
C73 C -0.3615(4) -0.4053(3) -1.2686(7)
H102 H -0.3641 -0.3914 -1.3268
C74 C -0.3849(4) -0.4100(3) -1.1184(6)
C75 C -0.4121(4) -0.3920(3) -1.0422(6)
H103 H -0.4312 -0.3660 -1.0506
C76 C -0.4117(4) -0.4102(3) -0.9589(6)
H104 H -0.4322 -0.3984 -0.9100
C77 C -0.3802(4) -0.4479(3) -0.9441(6)
H105 H -0.3787 -0.4606 -0.8846
C78 C -0.3523(4) -0.4654(3) -1.0154(6)
H106 H -0.3315 -0.4903 -1.0046
C79 C -0.3536(4) -0.4476(3) -1.1051(6)
C80 C -0.2357(4) -0.4998(3) -1.1289(6)
H107 H -0.2297 -0.5258 -1.0899
C81 C -0.2247(6) -0.4605(4) -1.0663(7)
H108 H -0.2269 -0.4694 -1.0008
H109 H -0.2521 -0.4384 -1.0774
C82 C -0.1686(5) -0.4413(3) -1.0858(10)
H110 H -0.1596 -0.4185 -1.0396
C83 C -0.1285(5) -0.4773(4) -1.0825(9)
H111 H -0.1297 -0.4917 -1.0217
H112 H -0.0921 -0.4659 -1.0922
C84 C -0.1429(5) -0.5088(4) -1.1590(9)
H113 H -0.1149 -0.5075 -1.2071
H114 H -0.1426 -0.5382 -1.1330
C85 C -0.1907(4) -0.4578(3) -1.2484(8)
H115 H -0.2263 -0.4489 -1.2701
H116 H -0.1674 -0.4602 -1.3031
C86 C -0.1685(6) -0.4225(4) -1.1850(9)
H117 H -0.1315 -0.4147 -1.2040
C87 C -0.2052(11) -0.3834(5) -1.1913(10)
H118 H -0.2416 -0.3873 -1.1758
C88 C -0.1903(13) -0.3451(5) -1.2162(11)
H119 H -0.1542 -0.3399 -1.2322
H120 H -0.2154 -0.3224 -1.2184
O1 O -0.2405(3) -0.26786(18) -0.8653(4)
O2 O -0.2056(3) -0.3198(2) -0.7690(4)
O3 O -0.2782(3) -0.57859(17) -0.3698(4)
O4 O -0.2865(3) -0.52684(18) -1.2569(4)
N1 N -0.1689(4) -0.2339(3) -0.9728(6)
N2 N -0.3725(3) -0.2929(2) -1.1150(5)
N3 N -0.2568(4) -0.3272(3) -0.6140(5)
N4 N -0.2003(4) -0.4822(3) -0.7956(6)
N5 N -0.3679(4) -0.6143(2) -0.4010(5)
N6 N -0.2225(4) -0.5761(3) -0.7033(6)
N7 N -0.1953(4) -0.5014(3) -1.2037(6)
N8 N -0.3859(3) -0.3887(2) -1.2003(5)
Al1 Al -0.16955(16) -0.28287(10) -0.8626(2)
Al2 Al -0.26602(15) -0.28941(9) -0.74460(19)
Al3 Al -0.33887(14) -0.56943(9) -0.30070(19)
Al4 Al -0.22202(15) -0.55065(11) -1.2952(2)
Zn1 Zn -0.21935(7) -0.55108(4) -0.85065(8)
Zn2 Zn -0.42498(5) -0.32459(4) -1.22541(8)
O3_2 O -0.2782(3) -0.57859(17) -1.3698(4)
O4_2 O -0.2865(3) -0.52684(18) -0.2569(4)
Al3_2 Al -0.33887(14) -0.56943(9) -1.30070(19)
Al4_2 Al -0.22202(15) -0.55065(11) -0.2952(2)
loop_
_geom_bond_atom_site_label_1
_geom_bond_atom_site_label_2
_geom_bond_site_symmetry_1
_geom_bond_site_symmetry_2
C1 H1 1_555 1_555
H2 C1 1_555 1_555
H3 C1 1_555 1_555
C2 H4 1_555 1_555
H5 C2 1_555 1_555
H6 C2 1_555 1_555
C3 H7 1_555 1_555
H8 C3 1_555 1_555
H9 C3 1_555 1_555
C4 H10 1_555 1_555
H11 C4 1_555 1_555
H12 C4 1_555 1_555
C5 H13 1_555 1_555
H14 C5 1_555 1_555
H15 C5 1_555 1_555
C6 H16 1_555 1_555
H17 C6 1_555 1_555
H18 C6 1_555 1_555
C7 H19 1_555 1_555
H20 C7 1_555 1_555
H21 C7 1_555 1_555
C8 H22 1_555 1_555
H23 C8 1_555 1_555
H24 C8 1_555 1_555
C9 H25 1_555 1_555
H26 C9 1_555 1_555
H27 C9 1_555 1_555
C10 H28 1_555 1_555
H29 C10 1_555 1_555
H30 C10 1_555 1_555
C11 H31 1_555 1_555
H32 C11 1_555 1_555
H33 C11 1_555 1_555
C12 H34 1_555 1_555
H35 C12 1_555 1_555
H36 C12 1_555 1_555
C13 H37 1_555 1_555
C14 C13 1_555 1_555
C15 C14 1_555 1_555
H38 C15 1_555 1_555
C16 C15 1_555 1_555
H39 C16 1_555 1_555
C17 C18 1_555 1_555
C18 H40 1_555 1_555
C19 C18 1_555 1_555
H41 C19 1_555 1_555
C20 C19 1_555 1_555
H42 C20 1_555 1_555
C21 C20 1_555 1_555
H43 C21 1_555 1_555
C22 C14 1_555 1_555
C23 C13 1_555 1_555
H44 C23 1_555 1_555
C24 C23 1_555 1_555
H45 C24 1_555 1_555
H46 C24 1_555 1_555
C25 C24 1_555 1_555
H47 C25 1_555 1_555
C26 C25 1_555 1_555
H48 C26 1_555 1_555
H49 C26 1_555 1_555
C27 C26 1_555 1_555
H50 C27 1_555 1_555
H51 C27 1_555 1_555
C28 H52 1_555 1_555
H53 C28 1_555 1_555
C29 C25 1_555 1_555
H54 C29 1_555 1_555
C30 C29 1_555 1_555
H55 C30 1_555 1_555
C31 C30 1_555 1_555
H56 C31 1_555 1_555
H57 C31 1_555 1_555
C32 H58 1_555 1_555
C33 C32 1_555 1_555
C34 C33 1_555 1_555
H59 C34 1_555 1_555
C35 C34 1_555 1_555
H60 C35 1_555 1_555
C36 C37 1_555 1_555
C37 H61 1_555 1_555
C38 C37 1_555 1_555
H62 C38 1_555 1_555
C39 C38 1_555 1_555
H63 C39 1_555 1_555
C40 C39 1_555 1_555
H64 C40 1_555 1_555
C41 C33 1_555 1_555
C42 C32 1_555 1_555
H65 C42 1_555 1_555
C43 C42 1_555 1_555
H66 C43 1_555 1_555
H67 C43 1_555 1_555
C44 C43 1_555 1_555
H68 C44 1_555 1_555
C45 C44 1_555 1_555
H69 C45 1_555 1_555
H70 C45 1_555 1_555
C46 C45 1_555 1_555
H71 C46 1_555 1_555
H72 C46 1_555 1_555
C47 H73 1_555 1_555
H74 C47 1_555 1_555
C48 C44 1_555 1_555
H75 C48 1_555 1_555
C49 C48 1_555 1_555
H76 C49 1_555 1_555
C50 C49 1_555 1_555
H77 C50 1_555 1_555
H78 C50 1_555 1_555
C51 H79 1_555 1_555
C52 C51 1_555 1_555
C53 C52 1_555 1_555
H80 C53 1_555 1_555
C54 C53 1_555 1_555
H81 C54 1_555 1_555
C55 C56 1_555 1_555
C56 H82 1_555 1_555
C57 C56 1_555 1_555
H83 C57 1_555 1_555
C58 C57 1_555 1_555
H84 C58 1_555 1_555
C59 C58 1_555 1_555
H85 C59 1_555 1_555
C60 C52 1_555 1_555
C61 C51 1_555 1_555
H86 C61 1_555 1_555
C62 C61 1_555 1_555
H87 C62 1_555 1_555
H88 C62 1_555 1_555
C63 C62 1_555 1_555
H89 C63 1_555 1_555
C64 C63 1_555 1_555
H90 C64 1_555 1_555
H91 C64 1_555 1_555
C65 C64 1_555 1_555
H92 C65 1_555 1_555
H93 C65 1_555 1_555
C66 H94 1_555 1_555
H95 C66 1_555 1_555
C67 C63 1_555 1_555
H96 C67 1_555 1_555
C68 C67 1_555 1_555
H97 C68 1_555 1_555
C69 C68 1_555 1_555
H98 C69 1_555 1_555
H99 C69 1_555 1_555
C70 H100 1_555 1_555
C71 C70 1_555 1_555
C72 C71 1_555 1_555
H101 C72 1_555 1_555
C73 C72 1_555 1_555
H102 C73 1_555 1_555
C74 C75 1_555 1_555
C75 H103 1_555 1_555
C76 C75 1_555 1_555
H104 C76 1_555 1_555
C77 C76 1_555 1_555
H105 C77 1_555 1_555
C78 C77 1_555 1_555
H106 C78 1_555 1_555
C79 C71 1_555 1_555
C80 C70 1_555 1_555
H107 C80 1_555 1_555
C81 C80 1_555 1_555
H108 C81 1_555 1_555
H109 C81 1_555 1_555
C82 C81 1_555 1_555
H110 C82 1_555 1_555
C83 C82 1_555 1_555
H111 C83 1_555 1_555
H112 C83 1_555 1_555
C84 C83 1_555 1_555
H113 C84 1_555 1_555
H114 C84 1_555 1_555
C85 H115 1_555 1_555
H116 C85 1_555 1_555
C86 C82 1_555 1_555
H117 C86 1_555 1_555
C87 C86 1_555 1_555
H118 C87 1_555 1_555
C88 C87 1_555 1_555
H119 C88 1_555 1_555
H120 C88 1_555 1_555
O1 C13 1_555 1_555
O2 C32 1_555 1_555
O3 C51 1_555 1_555
O4 C70 1_555 1_555
N1 C23 1_555 1_555
N2 C16 1_555 1_555
N3 C42 1_555 1_555
N4 C35 1_555 1_555
N5 C61 1_555 1_555
N6 C54 1_555 1_555
N7 C80 1_555 1_555
N8 C73 1_555 1_555
Al1 C1 1_555 1_555
Al2 C3 1_555 1_555
Al3 C5 1_555 1_555
Al4 C7 1_555 1_555
Zn1 C9 1_555 1_555
Zn2 C11 1_555 1_555
O3_2 Al4 1_555 1_555
O4_2 Al3 1_555 1_555
Al3_2 O4 1_555 1_555
Al4_2 O3 1_555 1_555
C2 Al1 1_555 1_555
C4 Al2 1_555 1_555
C6 Al3 1_555 1_555
C8 Al4 1_555 1_555
C10 Zn1 1_555 1_555
C12 Zn2 1_555 1_555
C17 C22 1_555 1_555
C17 N2 1_555 1_555
C21 C22 1_555 1_555
C27 N1 1_555 1_555
C28 C29 1_555 1_555
C28 N1 1_555 1_555
C36 C41 1_555 1_555
C36 N4 1_555 1_555
C40 C41 1_555 1_555
C46 N3 1_555 1_555
C47 C48 1_555 1_555
C47 N3 1_555 1_555
C55 C60 1_555 1_555
C55 N6 1_555 1_555
C59 C60 1_555 1_555
C65 N5 1_555 1_555
C66 C67 1_555 1_555
C66 N5 1_555 1_555
C74 C79 1_555 1_555
C74 N8 1_555 1_555
C78 C79 1_555 1_555
C84 N7 1_555 1_555
C85 C86 1_555 1_555
C85 N7 1_555 1_555
O1 Al1 1_555 1_555
O1 Al2 1_555 1_555
O2 Al1 1_555 1_555
O2 Al2 1_555 1_555
O3 Al3 1_555 1_555
O4 Al4 1_555 1_555
N1 Al1 1_555 1_555
N2 Zn2 1_555 1_555
N3 Al2 1_555 1_555
N4 Zn1 1_555 1_555
N5 Al3 1_555 1_555
N6 Zn1 1_555 1_555
N7 Al4 1_555 1_555
N8 Zn2 1_555 1_555
O3_2 Al3_2 1_555 1_555
O4_2 Al4_2 1_555 1_555

#END
