
#######################################################################
#
#                 Cambridge Crystallographic Data Centre
#                                CCDC 
#
#######################################################################
#
# If this CIF has been generated from an entry in the Cambridge 
# Structural Database, then it will include bibliographic, chemical, 
# crystal, experimental, refinement or atomic coordinate data resulting 
# from the CCDC's data processing and validation procedures.
#
#######################################################################

data_EJELEK
_symmetry_cell_setting           orthorhombic
_symmetry_space_group_name_H-M   'P 21 21 21'
_symmetry_Int_Tables_number      19
_space_group_name_Hall           'P 2ac 2ab'
loop_
_symmetry_equiv_pos_site_id
_symmetry_equiv_pos_as_xyz
1 x,y,z
2 1/2-x,-y,1/2+z
3 1/2+x,1/2-y,-z
4 -x,1/2+y,1/2-z
_cell_length_a                   7.49860(10)
_cell_length_b                   13.0997(2)
_cell_length_c                   29.5866(6)
_cell_angle_alpha                90
_cell_angle_beta                 90
_cell_angle_gamma                90
_cell_volume                     2906.27
loop_
_atom_site_label
_atom_site_type_symbol
_atom_site_fract_x
_atom_site_fract_y
_atom_site_fract_z
K1 K 0.14017(9) 0.69196(5) 0.49688(2)
N1 N 0.3778(3) 0.65195(19) 0.30134(8)
C1 C 0.4557(4) 0.7391(2) 0.31210(10)
N2 N 0.5311(3) 0.79242(19) 0.27860(8)
C2 C 0.3275(4) 0.7430(2) 0.21636(10)
C3 C 0.5214(4) 0.7566(2) 0.23173(10)
O1 O 0.2171(3) 0.81012(17) 0.23024(7)
O2 O 0.2938(3) 0.67396(17) 0.18868(7)
C4 C 0.6364(4) 0.6633(2) 0.22258(10)
C5 C 0.8327(4) 0.6805(2) 0.22802(9)
O3 O 0.9349(3) 0.61502(19) 0.24087(8)
O4 O 0.8846(3) 0.77407(18) 0.21657(8)
N3 N 0.4647(4) 0.77896(19) 0.35544(8)
C6 C 0.5460(5) 0.8791(2) 0.36356(11)
C7 C 0.3952(4) 0.7251(2) 0.39206(10)
O5 O 0.4085(3) 0.75943(17) 0.43065(7)
C8 C 0.3107(4) 0.6273(2) 0.38114(10)
O6 O 0.1630(3) 0.49228(16) 0.40951(7)
N4 N 0.2417(4) 0.5793(2) 0.41642(8)
C9 C 0.3076(4) 0.5941(2) 0.33406(10)
N5 N 0.2360(4) 0.5066(2) 0.32266(9)
N6 N 0.1753(4) 0.08915(19) 0.62104(8)
C10 C 0.1359(4) 0.0934(2) 0.57742(10)
N7 N 0.0645(4) 0.1782(2) 0.56070(8)
C11 C 0.0660(5) 0.2746(2) 0.58422(11)
C12 C -0.1177(5) 0.3121(3) 0.59578(10)
O7 O -0.2291(4) 0.2415(2) 0.60677(10)
O8 O -0.1500(4) 0.40394(18) 0.59728(9)
C13 C 0.1699(5) 0.3538(3) 0.55727(11)
C14 C 0.0916(5) 0.3735(3) 0.51116(11)
O9 O -0.0138(3) 0.31679(18) 0.49232(7)
O10 O 0.1570(3) 0.45686(17) 0.49261(7)
N8 N 0.1665(4) 0.0155(2) 0.54696(8)
C15 C 0.1254(5) 0.0283(2) 0.49871(10)
C16 C 0.2493(4) -0.0743(2) 0.56066(10)
O11 O 0.2923(3) -0.13879(17) 0.53267(7)
C17 C 0.2813(4) -0.0841(2) 0.60906(10)
N9 N 0.3485(4) -0.1746(2) 0.62120(9)
O12 O 0.3798(3) -0.18898(18) 0.66367(7)
C18 C 0.2463(4) 0.0029(2) 0.63769(10)
N10 N 0.2848(4) 0.0009(2) 0.68087(8)
O13 O 0.4270(3) 0.66524(18) 0.55405(8)
H1 H 0.5872 0.8498 0.2848
H2 H 0.5719 0.8128 0.2127
H3 H 0.5993 0.6080 0.2433
H4 H 0.6133 0.6397 0.1913
H5 H 1.0325 0.7855 0.2202
H6 H 0.6747 0.8750 0.3581
H7 H 0.5244 0.8997 0.3949
H8 H 0.4932 0.9295 0.3431
H9 H 0.2350 0.4874 0.2942
H10 H 0.1889 0.4670 0.3435
H11 H 0.0138 0.1754 0.5339
H12 H 0.1310 0.2640 0.6133
H13 H -0.3430 0.2771 0.6131
H14 H 0.1724 0.4186 0.5745
H15 H 0.2945 0.3301 0.5537
H16 H 0.1427 0.4760 0.4574
H17 H 0.1708 -0.0305 0.4818
H18 H 0.1821 0.0908 0.4875
H19 H -0.0040 0.0333 0.4947
H20 H 0.2638 0.0548 0.6978
H21 H 0.3315 -0.0544 0.6929
H22 H 0.3933 0.7158 0.5728
H23 H 0.4535 0.6115 0.5718
K1B K -0.35983(9) 0.80804(5) 0.50312(2)
K1B_2 K 0.64017(9) 0.80804(5) 0.50312(2)
O5B O -0.0915(3) 0.74057(17) 0.56935(7)
O11_2 O 0.2923(3) 0.86121(17) 0.53267(7)
O11B O -0.2077(3) 0.63879(17) 0.46733(7)
O13B O -0.0730(3) 0.83476(18) 0.44595(8)
K1_2 K 0.14017(9) -0.30804(5) 0.49688(2)
K1B_3 K 0.64017(9) -0.19196(5) 0.50312(2)
H22B H -0.1067 0.7842 0.4272
H23B H -0.0465 0.8885 0.4282
O14 O 0.7524(3) 0.96926(16) 0.27425(7)
H24 H 0.8628 0.9476 0.2813
H25 H 0.7449 1.0340 0.2842
O15 O 1.0547(3) 0.86206(17) 0.31114(7)
H26 H 1.1437 0.8425 0.2885
H27 H 1.0059 0.7971 0.3220
O16 O 0.5677(4) 0.5247(2) 0.61381(9)
H28 H 0.6697 0.4900 0.6093
H29 H 0.5861 0.5639 0.6384
O17 O 0.4768(3) 0.3244(2) 0.62752(8)
H30 H 0.4013 0.3083 0.6536
H31 H 0.4671 0.3987 0.6242
O18? O 0.482(3) 0.4608(15) 0.6348(7)
loop_
_geom_bond_atom_site_label_1
_geom_bond_atom_site_label_2
_geom_bond_site_symmetry_1
_geom_bond_site_symmetry_2
K1 O5 1_555 1_555
N1 C1 1_555 1_555
C1 N2 1_555 1_555
N2 C3 1_555 1_555
C2 C3 1_555 1_555
C3 C4 1_555 1_555
O1 C2 1_555 1_555
O2 C2 1_555 1_555
C4 C5 1_555 1_555
C5 O3 1_555 1_555
O4 C5 1_555 1_555
N3 C1 1_555 1_555
C6 N3 1_555 1_555
C7 N3 1_555 1_555
O5 C7 1_555 1_555
C8 C7 1_555 1_555
O6 N4 1_555 1_555
N4 K1 1_555 1_555
C9 N1 1_555 1_555
N5 C9 1_555 1_555
N6 C10 1_555 1_555
C10 N7 1_555 1_555
N7 C11 1_555 1_555
C11 C12 1_555 1_555
C12 O7 1_555 1_555
O7 H13 1_555 1_555
O8 C12 1_555 1_555
C13 C11 1_555 1_555
C14 C13 1_555 1_555
O9 C14 1_555 1_555
O10 K1 1_555 1_555
N8 C10 1_555 1_555
C15 N8 1_555 1_555
C16 N8 1_555 1_555
O11 C16 1_555 1_555
C17 C16 1_555 1_555
N9 C17 1_555 1_555
O12 N9 1_555 1_555
C18 N6 1_555 1_555
N10 C18 1_555 1_555
O13 K1 1_555 1_555
O14 H24 1_555 1_555
O15 H26 1_555 1_555
O16 H28 1_555 1_555
O17 H30 1_555 1_555
H1 N2 1_555 1_555
H2 C3 1_555 1_555
H3 C4 1_555 1_555
H4 C4 1_555 1_555
H5 O4 1_555 1_555
H6 C6 1_555 1_555
H7 C6 1_555 1_555
H8 C6 1_555 1_555
H9 N5 1_555 1_555
H10 N5 1_555 1_555
H11 N7 1_555 1_555
H12 C11 1_555 1_555
H14 C13 1_555 1_555
H15 C13 1_555 1_555
H16 O10 1_555 1_555
H17 C15 1_555 1_555
H18 C15 1_555 1_555
H19 C15 1_555 1_555
H20 N10 1_555 1_555
H21 N10 1_555 1_555
H22 O13 1_555 1_555
H23 O13 1_555 1_555
H25 O14 1_555 1_555
H27 O15 1_555 1_555
H29 O16 1_555 1_555
H31 O17 1_555 1_555
K1B O5B 1_555 1_555
K1B_2 O5 1_555 1_555
O5B K1 1_555 1_555
O11_2 K1 1_555 1_555
O11B K1 1_555 1_555
O13B K1 1_555 1_555
K1_2 O11 1_555 1_555
K1B_3 O11 1_555 1_555
H22B O13B 1_555 1_555
H23B O13B 1_555 1_555
C8 N4 1_555 1_555
C8 C9 1_555 1_555
C14 O10 1_555 1_555
C17 C18 1_555 1_555
O13 K1B_2 1_555 1_555
K1B O11B 1_555 1_555
K1B O13B 1_555 1_555
K1B_2 O11_2 1_555 1_555

#END
