
#######################################################################
#
#                 Cambridge Crystallographic Data Centre
#                                CCDC 
#
#######################################################################
#
# If this CIF has been generated from an entry in the Cambridge 
# Structural Database, then it will include bibliographic, chemical, 
# crystal, experimental, refinement or atomic coordinate data resulting 
# from the CCDC's data processing and validation procedures.
#
#######################################################################

data_EJELEL
_symmetry_cell_setting           orthorhombic
_symmetry_space_group_name_H-M   'P 21 21 21'
_symmetry_Int_Tables_number      19
_space_group_name_Hall           'P 2ac 2ab'
loop_
_symmetry_equiv_pos_site_id
_symmetry_equiv_pos_as_xyz
1 x,y,z
2 1/2-x,-y,1/2+z
3 1/2+x,1/2-y,-z
4 -x,1/2+y,1/2-z
_cell_length_a                   9.5132(10)
_cell_length_b                   18.4101(16)
_cell_length_c                   30.0492(19)
_cell_angle_alpha                90
_cell_angle_beta                 90
_cell_angle_gamma                90
_cell_volume                     5262.79
loop_
_atom_site_label
_atom_site_type_symbol
_atom_site_fract_x
_atom_site_fract_y
_atom_site_fract_z
C1 C -0.2061(10) 1.0624(4) -0.0376(3)
H1 H -0.2075 1.0473 -0.0692
H2 H -0.2984 1.0492 -0.0247
C2 C -0.1937(14) 1.1467(5) -0.0364(3)
H3 H -0.2726 1.1682 -0.0527
H4 H -0.1051 1.1616 -0.0504
H5 H -0.1956 1.1635 -0.0055
C3 C -0.0693(9) 0.8968(4) -0.0170(3)
H6 H 0.0157 0.8828 -0.0339
H7 H -0.0630 0.8728 0.0125
C4 C -0.1964(12) 0.8656(5) -0.0411(3)
H8 H -0.1857 0.8128 -0.0439
H9 H -0.2034 0.8873 -0.0708
H10 H -0.2818 0.8765 -0.0241
C5 C 0.8050(13) 1.3499(5) 0.0143(3)
H11 H 0.8071 1.3305 0.0451
H12 H 0.7306 1.3235 -0.0021
C6 C 0.9274(13) 1.3364(7) -0.0048(4)
H13 H 0.9448 1.2839 -0.0047
H14 H 1.0023 1.3611 0.0117
H15 H 0.9257 1.3541 -0.0356
C7 C 0.8753(13) 1.5234(8) -0.0143(4)
H16 H 0.9681 1.5178 0.0003
H17 H 0.8836 1.5022 -0.0445
C8 C 0.8457(17) 1.6098(5) -0.0200(4)
H18 H 0.9222 1.6319 -0.0371
H19 H 0.8404 1.6326 0.0094
H20 H 0.7565 1.6170 -0.0357
C9 C 0.1026(8) 1.0084(5) 0.0719(2)
H21 H 0.1658 0.9651 0.0703
C10 C 0.1763(9) 1.0634(4) 0.1017(2)
C11 C 0.1679(9) 1.1361(5) 0.0950(2)
H22 H 0.1161 1.1547 0.0705
C12 C 0.2369(8) 1.1840(4) 0.1248(2)
H23 H 0.2293 1.2346 0.1189
C13 C 0.3232(9) 1.0912(4) 0.1662(2)
C14 C 0.4064(9) 1.0665(5) 0.2030(2)
H24 H 0.4525 1.1011 0.2213
C15 C 0.4208(9) 0.9938(5) 0.2122(3)
H25 H 0.4742 0.9783 0.2372
C16 C 0.3565(10) 0.9430(5) 0.1847(3)
H26 H 0.3695 0.8928 0.1908
C17 C 0.2751(9) 0.9625(4) 0.1491(3)
H27 H 0.2309 0.9264 0.1313
C18 C 0.2571(8) 1.0385(4) 0.1389(2)
C19 C -0.0443(8) 0.9799(5) 0.0892(3)
H28 H -0.0412 0.9257 0.0875
C20 C -0.0849(8) 0.9993(5) 0.1375(2)
H29 H -0.0561 0.9598 0.1580
H30 H -0.0372 1.0446 0.1468
C21 C -0.2450(8) 1.0093(5) 0.1390(3)
H31 H -0.2784 1.0111 0.1706
C22 C -0.3139(11) 0.9469(5) 0.1145(2)
H32 H -0.4170 0.9484 0.1189
H33 H -0.2782 0.9000 0.1260
C23 C -0.2780(9) 0.9549(5) 0.0647(2)
H34 H -0.2556 0.9065 0.0523
H35 H -0.3609 0.9741 0.0487
C24 C -0.2055(9) 1.0786(4) 0.0701(2)
H36 H -0.2697 1.0970 0.0467
H37 H -0.1234 1.1116 0.0714
C25 C -0.2817(10) 1.0801(4) 0.1150(2)
H38 H -0.3846 1.0779 0.1083
C26 C -0.2583(11) 1.1490(6) 0.1420(3)
H39 H -0.2856 1.1472 0.1723
C27 C -0.2065(13) 1.2087(6) 0.1285(3)
H40 H -0.1773 1.2137 0.0984
H41 H -0.1969 1.2483 0.1485
C28 C 0.5843(8) 1.5041(4) 0.0948(2)
H42 H 0.5155 1.5452 0.0947
C29 C 0.5193(8) 1.4446(5) 0.1260(2)
C30 C 0.5421(8) 1.3735(4) 0.1176(2)
H43 H 0.6027 1.3589 0.0941
C31 C 0.4735(9) 1.3213(4) 0.1445(3)
H44 H 0.4916 1.2715 0.1386
C32 C 0.3623(9) 1.4091(4) 0.1860(3)
C33 C 0.2666(8) 1.4262(4) 0.2202(3)
H45 H 0.2204 1.3885 0.2361
C34 C 0.2407(9) 1.4969(5) 0.2305(2)
H46 H 0.1760 1.5081 0.2535
C35 C 0.3084(9) 1.5539(4) 0.2074(2)
H47 H 0.2901 1.6029 0.2154
C36 C 0.3979(8) 1.5391(4) 0.1744(2)
H48 H 0.4406 1.5783 0.1588
C37 C 0.4316(8) 1.4669(5) 0.1618(2)
C38 C 0.7256(8) 1.5375(4) 0.1073(2)
H49 H 0.7266 1.5880 0.0950
C39 C 0.7612(8) 1.5435(4) 0.1575(2)
H50 H 0.7333 1.5919 0.1687
H51 H 0.7084 1.5063 0.1743
C40 C 0.9208(8) 1.5323(4) 0.1643(3)
H52 H 0.9496 1.5461 0.1952
C41 C 0.9992(10) 1.5772(5) 0.1298(2)
H53 H 1.1016 1.5755 0.1357
H54 H 0.9683 1.6285 0.1313
C42 C 0.9677(10) 1.5458(7) 0.0831(3)
H55 H 0.9497 1.5861 0.0621
H56 H 1.0507 1.5185 0.0723
C43 C 0.8858(10) 1.4325(5) 0.1101(3)
H57 H 0.9540 1.4038 0.0925
H58 H 0.8028 1.4014 0.1158
C44 C 0.9537(10) 1.4539(4) 0.1551(3)
H59 H 1.0580 1.4494 0.1518
C45 C 0.9075(13) 1.4009(6) 0.1909(4)
H60 H 0.8996 1.3512 0.1827
C46 C 0.8784(12) 1.4174(6) 0.2310(5)
H61 H 0.8850 1.4665 0.2406
H62 H 0.8502 1.3807 0.2513
C47 C 0.1006(8) 1.2411(4) 0.2225(3)
H63 H 0.0664 1.2794 0.2429
H64 H 0.0636 1.2519 0.1924
C48 C 0.0415(10) 1.1675(5) 0.2378(3)
H65 H -0.0615 1.1696 0.2380
H66 H 0.0754 1.1569 0.2679
H67 H 0.0727 1.1293 0.2174
C49 C 0.4731(10) 1.2410(5) 0.2638(3)
H68 H 0.4536 1.2769 0.2876
H69 H 0.4718 1.1925 0.2780
C50 C 0.6143(11) 1.2539(5) 0.2484(3)
H70 H 0.6799 1.2494 0.2734
H71 H 0.6207 1.3028 0.2358
H72 H 0.6383 1.2180 0.2255
O1 O 0.0878(5) 1.0346(3) 0.02739(15)
O2 O 0.5898(5) 1.4785(3) 0.05068(15)
N1 N 0.3103(8) 1.1646(3) 0.15971(18)
N2 N -0.1567(7) 1.0044(3) 0.05759(18)
N3 N 0.8421(7) 1.4960(5) 0.0841(2)
N4 N 0.3865(7) 1.3370(4) 0.1770(2)
Zn1 Zn 0.30964(11) 1.24482(5) 0.22053(3)
Al1 Al -0.0615(3) 1.00380(14) -0.00702(7)
Al2 Al 0.7479(3) 1.4679(3) 0.01709(9)
O1B O 0.5878(5) 1.4654(3) -0.02739(15)
O2B O 0.0898(5) 1.0215(3) -0.05068(15)
Al1B Al 0.4385(3) 1.49620(14) 0.00702(7)
Al2B Al 0.2479(3) 1.0321(3) -0.01709(9)
C51 C 0.3665(12) 0.2457(7) 0.3914(3)
H73 H 0.4084 0.2465 0.3616
H74 H 0.3863 0.1989 0.4056
H75 H 0.4069 0.2849 0.4094
C52 C 0.2088(12) 0.2562(6) 0.3878(3)
C53 C 0.1411(13) 0.2691(5) 0.3467(3)
H76 H 0.1960 0.2721 0.3204
C54 C -0.0026(13) 0.2775(5) 0.3438(4)
H77 H -0.0456 0.2846 0.3156
C55 C -0.0830(14) 0.2755(5) 0.3814(4)
H78 H -0.1818 0.2821 0.3794
C56 C -0.0208(16) 0.2640(6) 0.4223(4)
H79 H -0.0779 0.2620 0.4482
C57 C 0.1218(14) 0.2555(6) 0.4262(3)
H80 H 0.1627 0.2490 0.4547
loop_
_geom_bond_atom_site_label_1
_geom_bond_atom_site_label_2
_geom_bond_site_symmetry_1
_geom_bond_site_symmetry_2
C1 H1 1_555 1_555
H2 C1 1_555 1_555
C2 C1 1_555 1_555
H3 C2 1_555 1_555
H4 C2 1_555 1_555
H5 C2 1_555 1_555
C3 H6 1_555 1_555
H7 C3 1_555 1_555
C4 C3 1_555 1_555
H8 C4 1_555 1_555
H9 C4 1_555 1_555
H10 C4 1_555 1_555
C5 H11 1_555 1_555
H12 C5 1_555 1_555
C6 C5 1_555 1_555
H13 C6 1_555 1_555
H14 C6 1_555 1_555
H15 C6 1_555 1_555
C7 H16 1_555 1_555
H17 C7 1_555 1_555
C8 C7 1_555 1_555
H18 C8 1_555 1_555
H19 C8 1_555 1_555
H20 C8 1_555 1_555
C9 H21 1_555 1_555
C10 C9 1_555 1_555
C11 C10 1_555 1_555
H22 C11 1_555 1_555
C12 C11 1_555 1_555
H23 C12 1_555 1_555
C13 C14 1_555 1_555
C14 H24 1_555 1_555
C15 C14 1_555 1_555
H25 C15 1_555 1_555
C16 C15 1_555 1_555
H26 C16 1_555 1_555
C17 C16 1_555 1_555
H27 C17 1_555 1_555
C18 C10 1_555 1_555
C19 C9 1_555 1_555
H28 C19 1_555 1_555
C20 C19 1_555 1_555
H29 C20 1_555 1_555
H30 C20 1_555 1_555
C21 C20 1_555 1_555
H31 C21 1_555 1_555
C22 C21 1_555 1_555
H32 C22 1_555 1_555
H33 C22 1_555 1_555
C23 C22 1_555 1_555
H34 C23 1_555 1_555
H35 C23 1_555 1_555
C24 H36 1_555 1_555
H37 C24 1_555 1_555
C25 C21 1_555 1_555
H38 C25 1_555 1_555
C26 C25 1_555 1_555
H39 C26 1_555 1_555
C27 C26 1_555 1_555
H40 C27 1_555 1_555
H41 C27 1_555 1_555
C28 H42 1_555 1_555
C29 C28 1_555 1_555
C30 C29 1_555 1_555
H43 C30 1_555 1_555
C31 C30 1_555 1_555
H44 C31 1_555 1_555
C32 C33 1_555 1_555
C33 H45 1_555 1_555
C34 C33 1_555 1_555
H46 C34 1_555 1_555
C35 C34 1_555 1_555
H47 C35 1_555 1_555
C36 C35 1_555 1_555
H48 C36 1_555 1_555
C37 C29 1_555 1_555
C38 C28 1_555 1_555
H49 C38 1_555 1_555
C39 C38 1_555 1_555
H50 C39 1_555 1_555
H51 C39 1_555 1_555
C40 C39 1_555 1_555
H52 C40 1_555 1_555
C41 C40 1_555 1_555
H53 C41 1_555 1_555
H54 C41 1_555 1_555
C42 C41 1_555 1_555
H55 C42 1_555 1_555
H56 C42 1_555 1_555
C43 H57 1_555 1_555
H58 C43 1_555 1_555
C44 C40 1_555 1_555
H59 C44 1_555 1_555
C45 C44 1_555 1_555
H60 C45 1_555 1_555
C46 C45 1_555 1_555
H61 C46 1_555 1_555
H62 C46 1_555 1_555
C47 H63 1_555 1_555
H64 C47 1_555 1_555
C48 C47 1_555 1_555
H65 C48 1_555 1_555
H66 C48 1_555 1_555
H67 C48 1_555 1_555
C49 H68 1_555 1_555
H69 C49 1_555 1_555
C50 C49 1_555 1_555
H70 C50 1_555 1_555
H71 C50 1_555 1_555
H72 C50 1_555 1_555
C51 H73 1_555 1_555
H74 C51 1_555 1_555
H75 C51 1_555 1_555
C52 C51 1_555 1_555
C53 C52 1_555 1_555
H76 C53 1_555 1_555
C54 C53 1_555 1_555
H77 C54 1_555 1_555
C55 C54 1_555 1_555
H78 C55 1_555 1_555
C56 C55 1_555 1_555
H79 C56 1_555 1_555
C57 C52 1_555 1_555
H80 C57 1_555 1_555
O1 C9 1_555 1_555
O2 C28 1_555 1_555
N1 C12 1_555 1_555
N2 C19 1_555 1_555
N3 C38 1_555 1_555
N4 C31 1_555 1_555
Zn1 C47 1_555 1_555
Al1 C1 1_555 1_555
Al2 C5 1_555 1_555
O1B Al2 1_555 1_555
O2B Al1 1_555 1_555
Al1B O2 1_555 1_555
Al2B O1 1_555 1_555
C3 Al1 1_555 1_555
C7 Al2 1_555 1_555
C13 C18 1_555 1_555
C13 N1 1_555 1_555
C17 C18 1_555 1_555
C23 N2 1_555 1_555
C24 C25 1_555 1_555
C24 N2 1_555 1_555
C32 C37 1_555 1_555
C32 N4 1_555 1_555
C36 C37 1_555 1_555
C42 N3 1_555 1_555
C43 C44 1_555 1_555
C43 N3 1_555 1_555
C49 Zn1 1_555 1_555
C56 C57 1_555 1_555
O1 Al1 1_555 1_555
O2 Al2 1_555 1_555
N1 Zn1 1_555 1_555
N2 Al1 1_555 1_555
N3 Al2 1_555 1_555
N4 Zn1 1_555 1_555
O1B Al1B 1_555 1_555
O2B Al2B 1_555 1_555

#END
