
#######################################################################
#
#                 Cambridge Crystallographic Data Centre
#                                CCDC 
#
#######################################################################
#
# If this CIF has been generated from an entry in the Cambridge 
# Structural Database, then it will include bibliographic, chemical, 
# crystal, experimental, refinement or atomic coordinate data resulting 
# from the CCDC's data processing and validation procedures.
#
#######################################################################

data_EJEMUB01
_symmetry_cell_setting           monoclinic
_symmetry_space_group_name_H-M   'C 2/c'
_symmetry_Int_Tables_number      15
_space_group_name_Hall           '-C 2yn'
loop_
_symmetry_equiv_pos_site_id
_symmetry_equiv_pos_as_xyz
1 x,y,z
2 1/2+x,1/2+y,z
3 -x,y,1/2-z
4 1/2-x,1/2+y,1/2-z
5 -x,-y,-z
6 1/2-x,1/2-y,-z
7 x,-y,1/2+z
8 1/2+x,1/2-y,1/2+z
_cell_length_a                   10.3848(5)
_cell_length_b                   18.6440(9)
_cell_length_c                   14.8079(3)
_cell_angle_alpha                90
_cell_angle_beta                 94.375(2)
_cell_angle_gamma                90
_cell_volume                     2858.67
loop_
_atom_site_label
_atom_site_type_symbol
_atom_site_fract_x
_atom_site_fract_y
_atom_site_fract_z
Zn1 Zn 0.80272(6) 0.69213(3) 0.83046(4)
Zn2 Zn 1.0000 0.52109(4) 0.7500
C1 C 0.7300(6) 0.6006(3) 0.9842(4)
H1 H 0.7983 0.6220 1.0185
C2 C 0.6479(6) 0.5571(3) 1.0272(4)
H2 H 0.6600 0.5507 1.0896
C3 C 0.5469(5) 0.5228(3) 0.9786(3)
C4 C 0.5379(6) 0.5342(4) 0.8862(4)
H3 H 0.4740 0.5112 0.8495
C5 C 0.6226(6) 0.5792(4) 0.8487(4)
H4 H 0.6137 0.5862 0.7864
C6 C 0.4897(5) 0.7409(3) 0.4304(4)
C7 C 0.8271(5) 0.5810(3) 0.3115(3)
C8 C 0.8195(5) 0.6247(3) 0.6460(3)
C9 C 0.6045(5) 0.6934(3) 0.4469(3)
C10 C 0.6627(5) 0.6628(3) 0.3746(3)
H5 H 0.6306 0.6728 0.3156
C11 C 0.7679(5) 0.6176(3) 0.3896(3)
C12 C 0.8177(5) 0.6043(3) 0.4787(3)
H6 H 0.8875 0.5735 0.4896
C13 C 0.7626(5) 0.6374(3) 0.5511(3)
C14 C 0.6560(5) 0.6806(3) 0.5343(3)
H7 H 0.6180 0.7016 0.5826
N1 N 0.7170(4) 0.6135(2) 0.8962(3)
O1 O 0.6596(5) 0.7641(3) 0.8349(3)
H8 H 0.668(7) 0.815(4) 0.806(5)
H9 H 0.628(6) 0.771(3) 0.874(4)
O2 O 0.9098(4) 0.5814(2) 0.6579(2)
O3 O 0.7682(3) 0.6592(2) 0.7064(2)
O4 O 0.8053(4) 0.6032(2) 0.2333(2)
O5 O 0.8961(4) 0.5272(2) 0.3329(2)
O6 O 0.4286(4) 0.7639(2) 0.4926(2)
O7 O 0.4590(4) 0.7558(2) 0.3472(2)
Zn1B Zn 1.19728(6) 0.69213(3) 0.66954(4)
Zn1G Zn 0.30272(6) 0.80787(3) 0.33046(4)
Zn1D Zn 0.19728(6) 0.30787(3) 1.16954(4)
Zn1E Zn 1.69728(6) 0.80787(3) 1.16954(4)
Zn2F Zn 1.0000 0.47891(4) 0.2500
Zn2F_2 Zn 1.0000 0.47891(4) 1.2500
C1D C 0.2700(6) 0.3994(3) 1.0158(4)
H1D H 0.2017 0.3780 0.9815
C2D C 0.3521(6) 0.4429(3) 0.9728(4)
H2D H 0.3400 0.4493 0.9104
C3D C 0.4531(5) 0.4772(3) 1.0214(3)
C4D C 0.4621(6) 0.4658(4) 1.1138(4)
H3D H 0.5260 0.4888 1.1505
C5D C 0.3774(6) 0.4208(4) 1.1513(4)
H4D H 0.3863 0.4138 1.2136
C6B C 1.5103(5) 0.7409(3) 1.0696(4)
C7B C 1.1729(5) 0.5810(3) 1.1885(3)
C8B C 1.1805(5) 0.6247(3) 0.8540(3)
C9B C 1.3955(5) 0.6934(3) 1.0531(3)
C10B C 1.3373(5) 0.6628(3) 1.1254(3)
H5B H 1.3694 0.6728 1.1844
C11B C 1.2321(5) 0.6176(3) 1.1104(3)
C12B C 1.1823(5) 0.6043(3) 1.0213(3)
H6B H 1.1125 0.5735 1.0104
C13B C 1.2374(5) 0.6374(3) 0.9489(3)
C14B C 1.3440(5) 0.6806(3) 0.9657(3)
H7B H 1.3820 0.7016 0.9174
N1D N 0.2830(4) 0.3865(2) 1.1038(3)
N1B N 1.2830(4) 0.6135(2) 0.6038(3)
O1B O 1.3404(5) 0.7641(3) 0.6651(3)
H8B H 1.332(7) 0.815(4) 0.694(5)
H9B H 1.372(6) 0.771(3) 0.626(4)
O2B O 1.0902(4) 0.5814(2) 0.8421(2)
O3B O 1.2318(3) 0.6592(2) 0.7936(2)
O4B O 1.1947(4) 0.6032(2) 1.2667(2)
O5B O 1.1039(4) 0.5272(2) 1.1671(2)
O5F O 0.8961(4) 0.4728(2) 0.8329(2)
O5D O 1.1039(4) 0.4728(2) 0.6671(2)
O6B O 1.5714(4) 0.7639(2) 1.0074(2)
O7B O 1.5410(4) 0.7558(2) 1.1528(2)
O7G O 0.9590(4) 0.7442(2) 0.8472(2)
O7E O 1.0410(4) 0.7442(2) 0.6528(2)
loop_
_geom_bond_atom_site_label_1
_geom_bond_atom_site_label_2
_geom_bond_site_symmetry_1
_geom_bond_site_symmetry_2
Zn1 N1 1_555 1_555
Zn2 O2 1_555 1_555
C1 H1 1_555 1_555
C2 C1 1_555 1_555
H2 C2 1_555 1_555
C3 C2 1_555 1_555
C4 C3 1_555 1_555
H3 C4 1_555 1_555
C5 C4 1_555 1_555
H4 C5 1_555 1_555
C6 C9 1_555 1_555
C7 C11 1_555 1_555
C8 C13 1_555 1_555
C9 C10 1_555 1_555
C10 H5 1_555 1_555
C11 C10 1_555 1_555
C12 C11 1_555 1_555
H6 C12 1_555 1_555
C13 C12 1_555 1_555
C14 C9 1_555 1_555
H7 C14 1_555 1_555
N1 C1 1_555 1_555
O1 Zn1 1_555 1_555
H8 O1 1_555 1_555
H9 O1 1_555 1_555
O2 C8 1_555 1_555
O3 Zn1 1_555 1_555
O4 C7 1_555 1_555
O5 C7 1_555 1_555
O6 C6 1_555 1_555
O7 C6 1_555 1_555
Zn1B N1B 1_555 1_555
Zn1G O7 1_555 1_555
Zn1D N1D 1_555 1_555
Zn1E O7B 1_555 1_555
Zn2F O5 1_555 1_555
Zn2F_2 O5B 1_555 1_555
C1D H1D 1_555 1_555
C2D C1D 1_555 1_555
H2D C2D 1_555 1_555
C3D C3 1_555 1_555
C4D C3D 1_555 1_555
H3D C4D 1_555 1_555
C5D C4D 1_555 1_555
H4D C5D 1_555 1_555
C6B C9B 1_555 1_555
C7B C11B 1_555 1_555
C8B C13B 1_555 1_555
C9B C10B 1_555 1_555
C10B H5B 1_555 1_555
C11B C10B 1_555 1_555
C12B C11B 1_555 1_555
H6B C12B 1_555 1_555
C13B C12B 1_555 1_555
C14B C9B 1_555 1_555
H7B C14B 1_555 1_555
N1D C1D 1_555 1_555
O1B Zn1B 1_555 1_555
H8B O1B 1_555 1_555
H9B O1B 1_555 1_555
O2B Zn2 1_555 1_555
O3B Zn1B 1_555 1_555
O4B C7B 1_555 1_555
O5B C7B 1_555 1_555
O5F Zn2 1_555 1_555
O5D Zn2 1_555 1_555
O6B C6B 1_555 1_555
O7B C6B 1_555 1_555
O7G Zn1 1_555 1_555
O7E Zn1B 1_555 1_555
C5 N1 1_555 1_555
C8 O3 1_555 1_555
C13 C14 1_555 1_555
C2D C3D 1_555 1_555
C5D N1D 1_555 1_555
C8B O2B 1_555 1_555
C8B O3B 1_555 1_555
C13B C14B 1_555 1_555

#END
