
#######################################################################
#
#                 Cambridge Crystallographic Data Centre
#                                CCDC 
#
#######################################################################
#
# If this CIF has been generated from an entry in the Cambridge 
# Structural Database, then it will include bibliographic, chemical, 
# crystal, experimental, refinement or atomic coordinate data resulting 
# from the CCDC's data processing and validation procedures.
#
#######################################################################

data_EJEVOF
_symmetry_cell_setting           monoclinic
_symmetry_space_group_name_H-M   'P 21/n'
_symmetry_Int_Tables_number      14
_space_group_name_Hall           '-P 2yn'
loop_
_symmetry_equiv_pos_site_id
_symmetry_equiv_pos_as_xyz
1 x,y,z
2 1/2-x,1/2+y,1/2-z
3 -x,-y,-z
4 1/2+x,1/2-y,1/2+z
_cell_length_a                   10.024(2)
_cell_length_b                   10.838(2)
_cell_length_c                   10.631(2)
_cell_angle_alpha                90
_cell_angle_beta                 96.46(3)
_cell_angle_gamma                90
_cell_volume                     1147.62
loop_
_atom_site_label
_atom_site_type_symbol
_atom_site_fract_x
_atom_site_fract_y
_atom_site_fract_z
N1 N 0.14851(11) -0.95038(10) 0.38457(10)
Ni1 Ni 0.0000 -1.0000 0.5000
K1 K 0.18263(3) -0.41459(3) 0.49140(3)
K2 K 0.13357(3) -0.66540(3) 0.75969(3)
O1 O 0.00244(10) -0.81849(9) 0.54495(10)
O2 O 0.08655(11) -0.63957(9) 0.49324(10)
O3 O -0.12389(10) -0.96184(10) 0.33435(9)
O4 O -0.11702(11) -0.93853(11) 0.12678(9)
O5 O 0.47713(11) -1.09176(11) 0.36581(11)
O6 O 0.38462(11) -0.92977(10) 0.25961(9)
O7 O 0.19175(12) -0.35530(10) 0.74329(11)
H1 H 0.244(2) -0.4076(19) 0.7745(19)
H2 H 0.128(2) -0.362(2) 0.7708(19)
O8 O 0.43497(13) -0.28683(12) 0.51854(12)
H3 H 0.446(2) -0.229(2) 0.472(2)
H4 H 0.490(3) -0.342(3) 0.491(3)
C1 C 0.07889(14) -0.75320(12) 0.48488(12)
C2 C 0.17155(16) -0.81644(13) 0.40129(16)
H5 H 0.1604 -0.7766 0.3170
H6 H 0.2656 -0.8032 0.4383
C3 C -0.06223(14) -0.95585(13) 0.23542(12)
C4 C 0.08753(15) -0.97971(15) 0.25499(13)
H7 H 0.1043 -1.0676 0.2371
H8 H 0.1317 -0.9294 0.1938
C5 C 0.38543(14) -1.01326(13) 0.33942(12)
C6 C 0.26932(14) -1.02451(13) 0.42035(13)
H9 H 0.2420 -1.1123 0.4205
H10 H 0.3039 -1.0028 0.5085
N1B N -0.14851(11) -1.04962(10) 0.61543(10)
K1B K -0.18263(3) -1.58541(3) 0.50860(3)
K1B_2 K -0.18263(3) -0.58541(3) 0.50860(3)
K1C K -0.31737(3) -1.08541(3) -0.00860(3)
K1A K 0.31737(3) -0.91459(3) 0.00860(3)
K1_2 K 0.18263(3) -1.41459(3) 0.49140(3)
K1A_2 K 0.31737(3) -0.91459(3) 1.00860(3)
K1C_2 K -0.31737(3) -1.08541(3) 0.99140(3)
K2B K -0.13357(3) -1.33460(3) 0.24031(3)
K2C K -0.36643(3) -0.83460(3) 0.25969(3)
K2C_2 K 0.63357(3) -0.83460(3) 0.25969(3)
K2A K 0.36643(3) -0.16540(3) 0.74031(3)
K2A_2 K 0.36643(3) -1.16540(3) 0.74031(3)
K2A_3 K -0.63357(3) -1.16540(3) 0.74031(3)
O1B O -0.00244(10) -1.18151(9) 0.45505(10)
O2B O -0.08655(11) -1.36043(9) 0.50676(10)
O2B_2 O -0.08655(11) -0.36043(9) 0.50676(10)
O2_2 O 0.08655(11) -1.63957(9) 0.49324(10)
O3B O 0.12389(10) -1.03816(10) 0.66565(9)
O3C O 0.37611(10) -0.53816(10) 0.83435(9)
O3A O -0.37611(10) -1.46184(10) 0.16565(9)
O4B O 0.11702(11) -1.06147(11) 0.87322(9)
O4C O 0.38298(11) -0.56147(11) 0.62678(9)
O4A O -0.38298(11) -1.43853(11) 0.37322(9)
O5B O -0.47713(11) -0.90824(11) 0.63419(11)
O6B O -0.38462(11) -1.07023(10) 0.74039(9)
O6A O 0.11538(11) -0.42977(10) 0.24039(9)
O6C O -0.11538(11) -0.57023(10) 0.75961(9)
O6C_2 O -0.11538(11) -1.57023(10) 0.75961(9)
O6A_2 O 0.11538(11) -1.42977(10) 0.24039(9)
O7A O 0.30825(12) -0.85530(10) 0.75671(11)
O7B O -0.19175(12) -1.64470(10) 0.25671(11)
O7C O -0.30825(12) -1.14470(10) 0.24329(11)
H1A H 0.256(2) -0.9076(19) 0.7255(19)
H1B H -0.244(2) -1.5924(19) 0.2255(19)
H1C H -0.256(2) -1.0924(19) 0.2745(19)
H2A H 0.372(2) -0.862(2) 0.7292(19)
H2B H -0.128(2) -1.638(2) 0.2292(19)
H2C H -0.372(2) -1.138(2) 0.2708(19)
O8A O 0.06503(13) -0.78683(12) 0.98146(12)
O8B O -0.43497(13) -1.71317(12) 0.48146(12)
O8C O -0.06503(13) -1.21317(12) 0.01854(12)
H3A H 0.054(2) -0.729(2) 1.028(2)
H3B H -0.446(2) -1.771(2) 0.528(2)
H3C H -0.054(2) -1.271(2) -0.028(2)
H4A H 0.010(3) -0.842(3) 1.009(3)
H4B H -0.490(3) -1.658(3) 0.509(3)
H4C H -0.010(3) -1.158(3) -0.009(3)
C1B C -0.07889(14) -1.24680(12) 0.51512(12)
C2B C -0.17155(16) -1.18356(13) 0.59871(16)
H5B H -0.1604 -1.2234 0.6830
H6B H -0.2656 -1.1968 0.5617
C3B C 0.06223(14) -1.04415(13) 0.76458(12)
C4B C -0.08753(15) -1.02029(15) 0.74501(13)
H7B H -0.1043 -0.9324 0.7629
H8B H -0.1317 -1.0706 0.8062
C5B C -0.38543(14) -0.98674(13) 0.66058(12)
C6B C -0.26932(14) -0.97549(13) 0.57965(13)
H9B H -0.2420 -0.8877 0.5795
H10B H -0.3039 -0.9972 0.4915
loop_
_geom_bond_atom_site_label_1
_geom_bond_atom_site_label_2
_geom_bond_site_symmetry_1
_geom_bond_site_symmetry_2
N1 Ni1 1_555 1_555
Ni1 O1 1_555 1_555
K1 O2 1_555 1_555
K2 O1 1_555 1_555
O1 C1 1_555 1_555
O2 K2 1_555 1_555
O3 Ni1 1_555 1_555
O4 C3 1_555 1_555
O5 C5 1_555 1_555
O6 C5 1_555 1_555
O7 K1 1_555 1_555
H1 O7 1_555 1_555
H2 O7 1_555 1_555
O8 K1 1_555 1_555
H3 O8 1_555 1_555
H4 O8 1_555 1_555
C1 O2 1_555 1_555
C2 N1 1_555 1_555
H5 C2 1_555 1_555
H6 C2 1_555 1_555
C3 O3 1_555 1_555
C4 N1 1_555 1_555
H7 C4 1_555 1_555
H8 C4 1_555 1_555
C5 C6 1_555 1_555
C6 N1 1_555 1_555
H9 C6 1_555 1_555
H10 C6 1_555 1_555
N1B Ni1 1_555 1_555
K1B O2B 1_555 1_555
K1B_2 O2 1_555 1_555
K1C O4 1_555 1_555
K1A O6 1_555 1_555
K1_2 O2B 1_555 1_555
K1A_2 O4B 1_555 1_555
K1C_2 O6B 1_555 1_555
K2B O1B 1_555 1_555
K2C O3 1_555 1_555
K2C_2 O6 1_555 1_555
K2A O7 1_555 1_555
K2A_2 O3B 1_555 1_555
K2A_3 O6B 1_555 1_555
O1B Ni1 1_555 1_555
O2B K2B 1_555 1_555
O2B_2 K1 1_555 1_555
O2_2 K1B 1_555 1_555
O3B Ni1 1_555 1_555
O3C K2 1_555 1_555
O3A K2B 1_555 1_555
O4B C3B 1_555 1_555
O4C K1 1_555 1_555
O4A K1B 1_555 1_555
O5B C5B 1_555 1_555
O6B C5B 1_555 1_555
O6A K1 1_555 1_555
O6C K2 1_555 1_555
O6C_2 K1B 1_555 1_555
O6A_2 K1_2 1_555 1_555
O7A K2 1_555 1_555
O7B K1B 1_555 1_555
O7C K1C 1_555 1_555
H1A O7A 1_555 1_555
H1B O7B 1_555 1_555
H1C O7C 1_555 1_555
H2A O7A 1_555 1_555
H2B O7B 1_555 1_555
H2C O7C 1_555 1_555
O8A K2 1_555 1_555
O8B K1B 1_555 1_555
O8C K1C 1_555 1_555
H3A O8A 1_555 1_555
H3B O8B 1_555 1_555
H3C O8C 1_555 1_555
H4A O8A 1_555 1_555
H4B O8B 1_555 1_555
H4C O8C 1_555 1_555
C1B O1B 1_555 1_555
C2B N1B 1_555 1_555
H5B C2B 1_555 1_555
H6B C2B 1_555 1_555
C3B O3B 1_555 1_555
C4B N1B 1_555 1_555
H7B C4B 1_555 1_555
H8B C4B 1_555 1_555
C5B C6B 1_555 1_555
C6B N1B 1_555 1_555
H9B C6B 1_555 1_555
H10B C6B 1_555 1_555
O8 K2A 1_555 1_555
C1 C2 1_555 1_555
C3 C4 1_555 1_555
K1B_2 O2B_2 1_555 1_555
K1B_2 O6C 1_555 1_555
K1_2 O2_2 1_555 1_555
K1A_2 O7A 1_555 1_555
K1A_2 O8A 1_555 1_555
K2B O6A_2 1_555 1_555
K2B O7C 1_555 1_555
K2B O8C 1_555 1_555
O2B C1B 1_555 1_555
C1B C2B 1_555 1_555
C3B C4B 1_555 1_555

#END
