
#######################################################################
#
#                 Cambridge Crystallographic Data Centre
#                                CCDC 
#
#######################################################################
#
# If this CIF has been generated from an entry in the Cambridge 
# Structural Database, then it will include bibliographic, chemical, 
# crystal, experimental, refinement or atomic coordinate data resulting 
# from the CCDC's data processing and validation procedures.
#
#######################################################################

data_EJEZID
_symmetry_cell_setting           monoclinic
_symmetry_space_group_name_H-M   'C 2/c'
_symmetry_Int_Tables_number      15
_space_group_name_Hall           '-C 2yn'
loop_
_symmetry_equiv_pos_site_id
_symmetry_equiv_pos_as_xyz
1 x,y,z
2 -x,y,1/2-z
3 1/2+x,1/2+y,z
4 1/2-x,1/2+y,1/2-z
5 -x,-y,-z
6 x,-y,1/2+z
7 1/2-x,1/2-y,-z
8 1/2+x,1/2-y,1/2+z
_cell_length_a                   17.941(2)
_cell_length_b                   14.8140(17)
_cell_length_c                   19.677(2)
_cell_angle_alpha                90
_cell_angle_beta                 97.554(2)
_cell_angle_gamma                90
_cell_volume                     5184.33
loop_
_atom_site_label
_atom_site_type_symbol
_atom_site_fract_x
_atom_site_fract_y
_atom_site_fract_z
C1 C 0.1779(4) 0.3783(5) -0.8928(3)
C2 C 0.1572(4) 0.3488(4) -0.9590(3)
H1 H 0.1093 0.3255 -0.9720
C3 C 0.2074(4) 0.3537(4) -1.0054(3)
C4 C 0.2795(4) 0.3847(5) -0.9867(3)
H2 H 0.3140 0.3850 -1.0180
C5 C 0.2997(4) 0.4154(4) -0.9205(3)
C6 C 0.2494(4) 0.4123(4) -0.8735(3)
H3 H 0.2633 0.4329 -0.8290
C7 C 0.1234(4) 0.3737(5) -0.8405(3)
C8 C 0.2271(4) 0.3335(6) -1.1287(3)
H4 H 0.2758 0.3559 -1.1268
C9 C 0.1837(4) 0.3014(6) -1.1838(4)
H5 H 0.1981 0.2982 -1.2275
C10 C 0.1184(4) 0.2902(5) -1.1015(3)
H6 H 0.0794 0.2780 -1.0760
C11 C 0.4223(4) 0.4810(5) -0.9429(4)
H7 H 0.4123 0.4800 -0.9905
C12 C 0.4831(3) 0.5121(5) -0.9093(3)
H8 H 0.5236 0.5375 -0.9273
C13 C 0.4078(4) 0.4623(5) -0.8369(4)
H9 H 0.3881 0.4478 -0.7969
C14 C -0.1532(4) 0.1610(5) -1.0886(3)
C15 C -0.1297(4) 0.1842(5) -1.0217(3)
H10 H -0.0835 0.2122 -1.0100
C16 C -0.1751(4) 0.1657(5) -0.9717(3)
C17 C -0.2444(4) 0.1256(4) -0.9890(3)
H11 H -0.2755 0.1140 -0.9558
C18 C -0.2666(4) 0.1033(4) -1.0568(3)
C19 C -0.2219(4) 0.1208(5) -1.1063(3)
H12 H -0.2380 0.1057 -1.1517
C20 C -0.1054(4) 0.1831(5) -1.1447(4)
C21 C -0.1881(4) 0.1717(6) -0.8464(4)
H13 H -0.2333 0.1407 -0.8467
C22 C -0.1458(4) 0.2077(6) -0.7918(4)
H14 H -0.1572 0.2052 -0.7471
C23 C -0.0884(4) 0.2352(5) -0.8772(4)
H15 H -0.0527 0.2544 -0.9043
C24 C -0.3975(4) 0.0550(5) -1.0367(4)
H16 H -0.3972 0.0725 -0.9913
C25 C -0.4542(4) 0.0171(5) -1.0775(4)
H17 H -0.5009 0.0038 -1.0642
C26 C -0.3648(4) 0.0282(5) -1.1382(3)
H18 H -0.3363 0.0246 -1.1743
N1 N 0.4758(4) 0.5001(6) -0.8416(4)
N2 N 0.3749(3) 0.4502(4) -0.9007(3)
N3 N 0.1155(3) 0.2741(4) -1.1677(3)
N4 N 0.1848(3) 0.3263(4) -1.0753(3)
N5 N -0.4352(3) 0.0003(5) -1.1412(3)
N6 N -0.3398(3) 0.0629(4) -1.0754(3)
N7 N -0.0835(3) 0.2488(4) -0.8112(3)
N8 N -0.1517(3) 0.1896(4) -0.9014(3)
O1 O 0.0726(3) 0.3151(3) -0.8488(2)
O2 O 0.1311(3) 0.4275(4) -0.7923(3)
O3 O -0.0531(3) 0.2384(4) -1.1322(3)
O4 O -0.1228(3) 0.1455(4) -1.2009(3)
O5 O 0.0000 0.3833(5) -1.2500
H19 H -0.0221 0.4057 -1.2870
Pb1 Pb 0.0000 0.36323(3) -0.7500
Pb2 Pb 0.0000 0.21914(3) -1.2500
C1A C -0.1779(4) 0.3783(5) -0.6072(3)
C2A C -0.1572(4) 0.3488(4) -0.5410(3)
H1A H -0.1093 0.3255 -0.5280
C3A C -0.2074(4) 0.3537(4) -0.4946(3)
C4A C -0.2795(4) 0.3847(5) -0.5133(3)
H2A H -0.3140 0.3850 -0.4820
C5A C -0.2997(4) 0.4154(4) -0.5795(3)
C6A C -0.2494(4) 0.4123(4) -0.6265(3)
H3A H -0.2633 0.4329 -0.6710
C7A C -0.1234(4) 0.3737(5) -0.6595(3)
C8A C -0.2271(4) 0.3335(6) -0.3713(3)
H4A H -0.2758 0.3559 -0.3732
C9A C -0.1837(4) 0.3014(6) -0.3162(4)
H5A H -0.1981 0.2982 -0.2725
C10A C -0.1184(4) 0.2902(5) -0.3985(3)
H6A H -0.0794 0.2780 -0.4240
C11A C -0.4223(4) 0.4810(5) -0.5571(4)
H7A H -0.4123 0.4800 -0.5095
C12A C -0.4831(3) 0.5121(5) -0.5907(3)
H8A H -0.5236 0.5375 -0.5727
C13A C -0.4078(4) 0.4623(5) -0.6631(4)
H9A H -0.3881 0.4478 -0.7031
C14A C 0.1532(4) 0.1610(5) -0.4114(3)
C15A C 0.1297(4) 0.1842(5) -0.4783(3)
H10A H 0.0835 0.2122 -0.4900
C16A C 0.1751(4) 0.1657(5) -0.5283(3)
C17A C 0.2444(4) 0.1256(4) -0.5110(3)
H11A H 0.2755 0.1140 -0.5442
C18A C 0.2666(4) 0.1033(4) -0.4432(3)
C19A C 0.2219(4) 0.1208(5) -0.3937(3)
H12A H 0.2380 0.1057 -0.3483
C20A C 0.1054(4) 0.1831(5) -0.3553(4)
C21A C 0.1881(4) 0.1717(6) -0.6536(4)
H13A H 0.2333 0.1407 -0.6533
C22A C 0.1458(4) 0.2077(6) -0.7082(4)
H14A H 0.1572 0.2052 -0.7529
C23A C 0.0884(4) 0.2352(5) -0.6228(4)
H15A H 0.0527 0.2544 -0.5957
C24A C 0.3975(4) 0.0550(5) -0.4633(4)
H16A H 0.3972 0.0725 -0.5087
C25A C 0.4542(4) 0.0171(5) -0.4225(4)
H17A H 0.5009 0.0038 -0.4358
C26A C 0.3648(4) 0.0282(5) -0.3618(3)
H18A H 0.3363 0.0246 -0.3257
N1A N -0.4758(4) 0.5001(6) -0.6584(4)
N2A N -0.3749(3) 0.4502(4) -0.5993(3)
N3A N -0.1155(3) 0.2741(4) -0.3323(3)
N3A_2 N -0.1155(3) 0.2741(4) -1.3323(3)
N4A N -0.1848(3) 0.3263(4) -0.4247(3)
N5A N 0.4352(3) 0.0003(5) -0.3588(3)
N6A N 0.3398(3) 0.0629(4) -0.4246(3)
N7A N 0.0835(3) 0.2488(4) -0.6888(3)
N8A N 0.1517(3) 0.1896(4) -0.5986(3)
O1A O -0.0726(3) 0.3151(3) -0.6512(2)
O2A O -0.1311(3) 0.4275(4) -0.7077(3)
O3A O 0.0531(3) 0.2384(4) -0.3678(3)
O3A_2 O 0.0531(3) 0.2384(4) -1.3678(3)
O4A O 0.1228(3) 0.1455(4) -0.2991(3)
O4A_2 O 0.1228(3) 0.1455(4) -1.2991(3)
H19A H 0.0221 0.4057 -1.2130
Pb2_2 Pb 0.0000 0.21914(3) -0.2500
O6 O 0.5879(4) 0.6510(5) 0.0810(4)
H20 H 0.5700 0.6481 0.0389
H21 H 0.5795 0.6984 0.1032
O7 O 0.1352(4) 0.4028(5) 0.6305(4)
H22 H 0.1384 0.4533 0.6512
H23 H 0.101(5) 0.379(7) 0.638(5)
loop_
_geom_bond_atom_site_label_1
_geom_bond_atom_site_label_2
_geom_bond_site_symmetry_1
_geom_bond_site_symmetry_2
C1 C2 1_555 1_555
C2 H1 1_555 1_555
C3 C2 1_555 1_555
C4 C3 1_555 1_555
H2 C4 1_555 1_555
C5 C4 1_555 1_555
C6 C1 1_555 1_555
H3 C6 1_555 1_555
C7 C1 1_555 1_555
C8 H4 1_555 1_555
C9 C8 1_555 1_555
H5 C9 1_555 1_555
C10 H6 1_555 1_555
C11 H7 1_555 1_555
C12 C11 1_555 1_555
H8 C12 1_555 1_555
C13 H9 1_555 1_555
C14 C15 1_555 1_555
C15 H10 1_555 1_555
C16 C15 1_555 1_555
C17 C16 1_555 1_555
H11 C17 1_555 1_555
C18 C17 1_555 1_555
C19 C14 1_555 1_555
H12 C19 1_555 1_555
C20 C14 1_555 1_555
C21 H13 1_555 1_555
C22 C21 1_555 1_555
H14 C22 1_555 1_555
C23 H15 1_555 1_555
C24 H16 1_555 1_555
C25 C24 1_555 1_555
H17 C25 1_555 1_555
C26 H18 1_555 1_555
N1 C12 1_555 1_555
N2 C5 1_555 1_555
N3 C9 1_555 1_555
N4 C3 1_555 1_555
N5 C25 1_555 1_555
N6 C18 1_555 1_555
N7 C22 1_555 1_555
N8 C16 1_555 1_555
O1 C7 1_555 1_555
O2 C7 1_555 1_555
O3 C20 1_555 1_555
O4 C20 1_555 1_555
O5 H19 1_555 1_555
Pb1 N7 1_555 1_555
Pb2 N3 1_555 1_555
O6 H20 1_555 1_555
H21 O6 1_555 1_555
O7 H22 1_555 1_555
H23 O7 1_555 1_555
C1A C2A 1_555 1_555
C2A H1A 1_555 1_555
C3A C2A 1_555 1_555
C4A C3A 1_555 1_555
H2A C4A 1_555 1_555
C5A C4A 1_555 1_555
C6A C1A 1_555 1_555
H3A C6A 1_555 1_555
C7A C1A 1_555 1_555
C8A H4A 1_555 1_555
C9A C8A 1_555 1_555
H5A C9A 1_555 1_555
C10A H6A 1_555 1_555
C11A H7A 1_555 1_555
C12A C11A 1_555 1_555
H8A C12A 1_555 1_555
C13A H9A 1_555 1_555
C14A C15A 1_555 1_555
C15A H10A 1_555 1_555
C16A C15A 1_555 1_555
C17A C16A 1_555 1_555
H11A C17A 1_555 1_555
C18A C17A 1_555 1_555
C19A C14A 1_555 1_555
H12A C19A 1_555 1_555
C20A C14A 1_555 1_555
C21A H13A 1_555 1_555
C22A C21A 1_555 1_555
H14A C22A 1_555 1_555
C23A H15A 1_555 1_555
C24A H16A 1_555 1_555
C25A C24A 1_555 1_555
H17A C25A 1_555 1_555
C26A H18A 1_555 1_555
N1A C12A 1_555 1_555
N2A C5A 1_555 1_555
N3A C9A 1_555 1_555
N3A_2 Pb2 1_555 1_555
N4A C3A 1_555 1_555
N5A C25A 1_555 1_555
N6A C18A 1_555 1_555
N7A Pb1 1_555 1_555
N8A C16A 1_555 1_555
O1A Pb1 1_555 1_555
O2A Pb1 1_555 1_555
O3A C20A 1_555 1_555
O3A_2 Pb2 1_555 1_555
O4A C20A 1_555 1_555
O4A_2 Pb2 1_555 1_555
H19A O5 1_555 1_555
Pb2_2 N3A 1_555 1_555
C5 C6 1_555 1_555
C8 N4 1_555 1_555
C10 N3 1_555 1_555
C10 N4 1_555 1_555
C11 N2 1_555 1_555
C13 N1 1_555 1_555
C13 N2 1_555 1_555
C18 C19 1_555 1_555
C21 N8 1_555 1_555
C23 N7 1_555 1_555
C23 N8 1_555 1_555
C24 N6 1_555 1_555
C26 N5 1_555 1_555
C26 N6 1_555 1_555
O1 Pb1 1_555 1_555
O2 Pb1 1_555 1_555
O3 Pb2 1_555 1_555
O4 Pb2 1_555 1_555
O5 Pb2 1_555 1_555
C5A C6A 1_555 1_555
C7A O1A 1_555 1_555
C7A O2A 1_555 1_555
C8A N4A 1_555 1_555
C10A N3A 1_555 1_555
C10A N4A 1_555 1_555
C11A N2A 1_555 1_555
C13A N1A 1_555 1_555
C13A N2A 1_555 1_555
C18A C19A 1_555 1_555
C21A N8A 1_555 1_555
C22A N7A 1_555 1_555
C23A N7A 1_555 1_555
C23A N8A 1_555 1_555
C24A N6A 1_555 1_555
C26A N5A 1_555 1_555
C26A N6A 1_555 1_555
O3A Pb2_2 1_555 1_555
O4A Pb2_2 1_555 1_555

#END
