
#######################################################################
#
#                 Cambridge Crystallographic Data Centre
#                                CCDC 
#
#######################################################################
#
# If this CIF has been generated from an entry in the Cambridge 
# Structural Database, then it will include bibliographic, chemical, 
# crystal, experimental, refinement or atomic coordinate data resulting 
# from the CCDC's data processing and validation procedures.
#
#######################################################################

data_EJIBAB
_symmetry_cell_setting           monoclinic
_symmetry_space_group_name_H-M   'P 21/c'
_symmetry_Int_Tables_number      14
_space_group_name_Hall           '-P 2ybc'
loop_
_symmetry_equiv_pos_site_id
_symmetry_equiv_pos_as_xyz
1 x,y,z
2 -x,1/2+y,1/2-z
3 -x,-y,-z
4 x,1/2-y,1/2+z
_cell_length_a                   6.2592(18)
_cell_length_b                   44.289(12)
_cell_length_c                   7.2754(15)
_cell_angle_alpha                90
_cell_angle_beta                 118.890(18)
_cell_angle_gamma                90
_cell_volume                     1765.84
loop_
_atom_site_label
_atom_site_type_symbol
_atom_site_fract_x
_atom_site_fract_y
_atom_site_fract_z
O1 O 0.5654(6) 0.90208(7) 0.0740(5)
Ba1 Ba 0.42792(4) 0.861353(5) 0.29164(4)
O2 O 0.9279(5) 0.87520(7) 0.5234(5)
O3 O -0.0288(6) 0.88825(7) 0.0185(5)
O4 O 0.2621(6) 0.84175(7) -0.1198(5)
O5 O 0.4643(7) 0.91765(8) 0.4690(6)
O6 O 0.0779(5) 0.83160(6) 0.3315(5)
O7 O -0.2815(5) 0.81652(6) 0.2955(5)
O8 O 0.5975(7) 0.84600(8) 0.7146(6)
N1 N 0.1146(6) 0.71774(7) 0.3218(6)
C1 C -0.0761(7) 0.81173(8) 0.3131(6)
C2 C -0.0055(7) 0.77883(9) 0.3137(6)
C3 C 0.2220(7) 0.77009(9) 0.3399(7)
H1 H 0.3404 0.7848 0.3559
C4 C -0.1703(7) 0.75612(9) 0.2895(6)
H2 H -0.3276 0.7612 0.2697
C5 C -0.1048(7) 0.72605(9) 0.2942(7)
H3 H -0.2198 0.7108 0.2773
C6 C 0.2713(7) 0.73962(9) 0.3421(7)
H4 H 0.4261 0.7339 0.3590
H9 H 0.601(7) 0.9190(10) 0.128(7)
H10 H -0.134(10) 0.8920(12) 0.049(9)
H11 H 0.973(9) 0.8648(11) 0.459(8)
H12 H 0.997(10) 0.8906(13) 0.551(9)
H13 H 0.468(10) 0.9063(12) -0.033(9)
H14 H 0.393(10) 0.9212(11) 0.515(8)
H15 H 0.701(11) 0.8548(13) 0.786(10)
H16 H 0.230(9) 0.8248(13) -0.136(8)
H17 H 0.151(13) 0.8506(16) -0.214(11)
H18 H 0.590(11) 0.9239(13) 0.550(9)
H19 H 0.517(11) 0.8436(13) 0.759(10)
H20 H -0.043(11) 0.9020(14) -0.049(10)
Ba1_2 Ba -0.57208(4) 0.861353(5) 0.29164(4)
O7_2 O 0.7185(5) 0.81652(6) 0.2955(5)
O9 O 0.7906(5) 0.07331(6) 0.3175(5)
O10 O 1.0736(6) 0.06059(6) 0.2283(5)
N2 N 0.7153(6) -0.04022(7) 0.2295(6)
C7 C 0.5873(7) -0.01899(9) 0.2662(6)
H5 H 0.4534 -0.0254 0.2838
C8 C 0.9040(7) -0.03069(9) 0.2067(7)
H6 H 0.9974 -0.0453 0.1808
C9 C 0.6377(7) 0.01154(9) 0.2799(6)
H7 H 0.5404 0.0256 0.3051
C10 C 0.9705(7) -0.00054(9) 0.2191(6)
H8 H 1.1065 0.0052 0.2026
C11 C 0.8344(7) 0.02119(9) 0.2559(6)
C12 C 0.9051(7) 0.05427(9) 0.2673(6)
loop_
_geom_bond_atom_site_label_1
_geom_bond_atom_site_label_2
_geom_bond_site_symmetry_1
_geom_bond_site_symmetry_2
O1 Ba1 1_555 1_555
Ba1 O2 1_555 1_555
O2 H11 1_555 1_555
O3 Ba1 1_555 1_555
O4 Ba1 1_555 1_555
O5 Ba1 1_555 1_555
O6 Ba1 1_555 1_555
O7 C1 1_555 1_555
O8 Ba1 1_555 1_555
N1 C5 1_555 1_555
C1 O6 1_555 1_555
C2 C1 1_555 1_555
C3 C2 1_555 1_555
H1 C3 1_555 1_555
C4 C2 1_555 1_555
H2 C4 1_555 1_555
C5 C4 1_555 1_555
H3 C5 1_555 1_555
C6 N1 1_555 1_555
H4 C6 1_555 1_555
O9 C12 1_555 1_555
O10 C12 1_555 1_555
N2 C7 1_555 1_555
C7 H5 1_555 1_555
C8 N2 1_555 1_555
H6 C8 1_555 1_555
C9 C7 1_555 1_555
H7 C9 1_555 1_555
C10 C8 1_555 1_555
H8 C10 1_555 1_555
C11 C9 1_555 1_555
C12 C11 1_555 1_555
H9 O1 1_555 1_555
H10 O3 1_555 1_555
H12 O2 1_555 1_555
H13 O1 1_555 1_555
H14 O5 1_555 1_555
H15 O8 1_555 1_555
H16 O4 1_555 1_555
H17 O4 1_555 1_555
H18 O5 1_555 1_555
H19 O8 1_555 1_555
H20 O3 1_555 1_555
Ba1_2 O7 1_555 1_555
O7_2 Ba1 1_555 1_555
C3 C6 1_555 1_555
C10 C11 1_555 1_555

#END
