
#######################################################################
#
#                 Cambridge Crystallographic Data Centre
#                                CCDC 
#
#######################################################################
#
# If this CIF has been generated from an entry in the Cambridge 
# Structural Database, then it will include bibliographic, chemical, 
# crystal, experimental, refinement or atomic coordinate data resulting 
# from the CCDC's data processing and validation procedures.
#
#######################################################################

data_EJINIV01
_symmetry_cell_setting           orthorhombic
_symmetry_space_group_name_H-M   'P b c n'
_symmetry_Int_Tables_number      60
_space_group_name_Hall           '-P 2n 2ab'
loop_
_symmetry_equiv_pos_site_id
_symmetry_equiv_pos_as_xyz
1 x,y,z
2 1/2-x,1/2-y,1/2+z
3 -x,y,1/2-z
4 1/2+x,1/2-y,-z
5 -x,-y,-z
6 1/2+x,1/2+y,1/2-z
7 x,-y,1/2+z
8 1/2-x,1/2+y,z
_cell_length_a                   15.678(3)
_cell_length_b                   9.1970(19)
_cell_length_c                   9.414(2)
_cell_angle_alpha                90
_cell_angle_beta                 90
_cell_angle_gamma                90
_cell_volume                     1357.41
loop_
_atom_site_label
_atom_site_type_symbol
_atom_site_fract_x
_atom_site_fract_y
_atom_site_fract_z
O1 O 0.36414(11) 0.45673(19) 0.2117(2)
C1 C 0.31139(17) 0.4041(3) 0.1312(3)
O2 O -0.02531(11) 0.11089(18) 0.09666(17)
Co1 Co 0.0000 0.04560(5) -0.2500
O3 O 0.03194(12) 0.20124(19) -0.10119(18)
C2 C 0.08051(15) 0.2929(3) 0.1186(3)
C3 C 0.16596(16) 0.3048(3) 0.0849(3)
H1 H 0.1877 0.2566 0.0059
O4 O 0.32825(12) 0.3597(2) 0.0036(2)
C4 C 0.18640(17) 0.4613(3) 0.2849(3)
H2 H 0.2221 0.5159 0.3431
C5 C 0.02585(16) 0.1946(3) 0.0304(3)
C6 C 0.10051(17) 0.4529(3) 0.3146(3)
H3 H 0.0785 0.5050 0.3909
C7 C 0.21960(15) 0.3891(3) 0.1692(3)
C8 C 0.04675(15) 0.3691(3) 0.2338(3)
O1B O -0.36414(11) 0.45673(19) 0.2883(2)
O1A O 0.13586(11) 0.04327(19) -0.2883(2)
O1C O -0.13586(11) 0.04327(19) -0.2117(2)
C1B C -0.31139(17) 0.4041(3) 0.3688(3)
O2B O 0.02531(11) 0.11089(18) 0.40334(17)
O2D O 0.02531(11) -0.11089(18) -0.09666(17)
O2F O -0.02531(11) -0.11089(18) -0.40334(17)
Co1_2 Co 0.0000 0.04560(5) 0.7500
Co1A Co -0.5000 0.45440(5) 0.2500
Co1A_2 Co 0.5000 0.45440(5) 0.2500
Co1D Co 0.0000 -0.04560(5) 0.2500
O3B O -0.03194(12) 0.20124(19) 0.60119(18)
O3B_2 O -0.03194(12) 0.20124(19) -0.39881(18)
C2B C -0.08051(15) 0.2929(3) 0.3814(3)
C3B C -0.16596(16) 0.3048(3) 0.4151(3)
H1B H -0.1877 0.2566 0.4941
O4B O -0.32825(12) 0.3597(2) 0.4964(2)
C4B C -0.18640(17) 0.4613(3) 0.2151(3)
H2B H -0.2221 0.5159 0.1569
C5B C -0.02585(16) 0.1946(3) 0.4696(3)
C6B C -0.10051(17) 0.4529(3) 0.1854(3)
H3B H -0.0785 0.5050 0.1091
C7B C -0.21960(15) 0.3891(3) 0.3308(3)
C8B C -0.04675(15) 0.3691(3) 0.2662(3)
loop_
_geom_bond_atom_site_label_1
_geom_bond_atom_site_label_2
_geom_bond_site_symmetry_1
_geom_bond_site_symmetry_2
O1 C1 1_555 1_555
C1 O4 1_555 1_555
O2 C5 1_555 1_555
Co1 O3 1_555 1_555
O3 C5 1_555 1_555
C2 C3 1_555 1_555
C3 H1 1_555 1_555
C4 H2 1_555 1_555
C5 C2 1_555 1_555
C6 C4 1_555 1_555
H3 C6 1_555 1_555
C7 C1 1_555 1_555
C8 C2 1_555 1_555
O1B C1B 1_555 1_555
O1A Co1 1_555 1_555
O1C Co1 1_555 1_555
C1B O4B 1_555 1_555
O2B Co1D 1_555 1_555
O2D Co1 1_555 1_555
O2F Co1 1_555 1_555
Co1_2 O3B 1_555 1_555
Co1A O1B 1_555 1_555
Co1A_2 O1 1_555 1_555
Co1D O2 1_555 1_555
O3B C5B 1_555 1_555
O3B_2 Co1 1_555 1_555
C2B C3B 1_555 1_555
C3B H1B 1_555 1_555
C4B H2B 1_555 1_555
C5B O2B 1_555 1_555
C6B C4B 1_555 1_555
H3B C6B 1_555 1_555
C7B C1B 1_555 1_555
C8B C8 1_555 1_555
C3 C7 1_555 1_555
C4 C7 1_555 1_555
C6 C8 1_555 1_555
C2B C5B 1_555 1_555
C2B C8B 1_555 1_555
C3B C7B 1_555 1_555
C4B C7B 1_555 1_555
C6B C8B 1_555 1_555

#END
