
#######################################################################
#
#                 Cambridge Crystallographic Data Centre
#                                CCDC 
#
#######################################################################
#
# If this CIF has been generated from an entry in the Cambridge 
# Structural Database, then it will include bibliographic, chemical, 
# crystal, experimental, refinement or atomic coordinate data resulting 
# from the CCDC's data processing and validation procedures.
#
#######################################################################

data_EJINUH
_symmetry_cell_setting           monoclinic
_symmetry_space_group_name_H-M   'P 21'
_symmetry_Int_Tables_number      4
_space_group_name_Hall           'P 2yb'
loop_
_symmetry_equiv_pos_site_id
_symmetry_equiv_pos_as_xyz
1 x,y,z
2 -x,1/2+y,-z
_cell_length_a                   9.291(5)
_cell_length_b                   7.006(3)
_cell_length_c                   13.182(6)
_cell_angle_alpha                90
_cell_angle_beta                 91.935(7)
_cell_angle_gamma                90
_cell_volume                     857.563
loop_
_atom_site_label
_atom_site_type_symbol
_atom_site_fract_x
_atom_site_fract_y
_atom_site_fract_z
Zn1 Zn 0.01630(4) 0.37074(9) 0.20336(3)
Cl1 Cl 0.05406(14) 0.6865(2) 0.17054(9)
C1 C 0.0790(4) -0.1379(9) 0.5794(3)
N1 N 0.2501(3) -0.1005(7) 0.3195(2)
H1 H 0.1905 -0.1174 0.2690
C2 C 0.0779(4) -0.1378(9) 0.4724(3)
C3 C -0.0576(4) -0.1446(9) 0.4262(3)
H2 H -0.0677 -0.1430 0.3558
N2 N -0.0424(4) -0.1561(6) 0.6369(2)
C4 C 0.2132(4) -0.1148(8) 0.6324(3)
C5 C -0.1806(4) -0.1540(8) 0.4858(3)
H3 H -0.2715 -0.1537 0.4540
C6 C 0.4093(4) 0.0460(7) 0.1238(3)
C7 C 0.2148(4) -0.1163(9) 0.4212(3)
C8 C 0.4963(5) 0.0650(8) 0.0362(3)
H4 H 0.4527 0.1108 -0.0235
C9 C 0.7009(5) -0.0533(8) 0.1216(4)
H5 H 0.7974 -0.0891 0.1235
C10 C 0.3429(4) -0.0787(6) 0.5791(3)
C11 C 0.4712(5) -0.0257(7) 0.2123(3)
C12 C 0.4635(5) -0.0384(7) 0.6361(3)
H6 H 0.5498 -0.0074 0.6064
C13 C 0.4520(5) -0.0457(8) 0.7398(3)
H7 H 0.5337 -0.0227 0.7808
C14 C 0.3931(4) -0.0543(7) 0.3111(3)
C15 C -0.1685(4) -0.1638(7) 0.5914(3)
H8 H -0.2506 -0.1757 0.6293
C16 C 0.6177(4) -0.0756(7) 0.2098(3)
H9 H 0.6623 -0.1252 0.2683
C17 C 0.3205(5) -0.0868(7) 0.7866(3)
H10 H 0.3195 -0.0913 0.8571
C18 C 0.6406(5) 0.0193(8) 0.0354(4)
H11 H 0.6941 0.0378 -0.0221
N3 N 0.2025(3) -0.1180(7) 0.7356(2)
O1 O 0.1892(3) 0.0728(5) 0.0382(2)
N4 N 0.4524(4) -0.0414(6) 0.4013(3)
O2 O -0.0536(4) 0.2720(6) 0.0693(2)
C19 C 0.2546(5) 0.1170(7) 0.1153(3)
C20 C 0.3424(4) -0.0792(7) 0.4706(3)
O3 O 0.2059(3) 0.2236(6) 0.1867(2)
H12 H -0.094(7) 0.361(9) 0.034(5)
H13 H 0.010(5) 0.221(8) 0.034(4)
Zn1A Zn -0.01630(4) -0.12926(9) 0.79664(3)
N2A N 0.0424(4) 0.3439(6) 0.3631(2)
N3A N -0.2025(3) 0.3820(7) 0.2644(2)
loop_
_geom_bond_atom_site_label_1
_geom_bond_atom_site_label_2
_geom_bond_site_symmetry_1
_geom_bond_site_symmetry_2
Zn1 Cl1 1_555 1_555
C1 C2 1_555 1_555
N1 H1 1_555 1_555
C2 C3 1_555 1_555
C3 H2 1_555 1_555
N2 C1 1_555 1_555
C4 C1 1_555 1_555
C5 C3 1_555 1_555
H3 C5 1_555 1_555
C6 C8 1_555 1_555
C7 N1 1_555 1_555
C8 H4 1_555 1_555
C9 H5 1_555 1_555
C10 C4 1_555 1_555
C11 C6 1_555 1_555
C12 C10 1_555 1_555
H6 C12 1_555 1_555
C13 C12 1_555 1_555
H7 C13 1_555 1_555
C14 N1 1_555 1_555
C15 N2 1_555 1_555
H8 C15 1_555 1_555
C16 C9 1_555 1_555
H9 C16 1_555 1_555
C17 C13 1_555 1_555
H10 C17 1_555 1_555
C18 C8 1_555 1_555
H11 C18 1_555 1_555
N3 C4 1_555 1_555
O1 C19 1_555 1_555
N4 C14 1_555 1_555
O2 Zn1 1_555 1_555
C19 C6 1_555 1_555
C20 C7 1_555 1_555
O3 Zn1 1_555 1_555
H12 O2 1_555 1_555
H13 O2 1_555 1_555
Zn1A N2 1_555 1_555
N2A Zn1 1_555 1_555
N3A Zn1 1_555 1_555
C2 C7 1_555 1_555
C5 C15 1_555 1_555
C9 C18 1_555 1_555
C10 C20 1_555 1_555
C11 C14 1_555 1_555
C11 C16 1_555 1_555
C17 N3 1_555 1_555
N3 Zn1A 1_555 1_555
N4 C20 1_555 1_555
C19 O3 1_555 1_555

#END
