
#######################################################################
#
#                 Cambridge Crystallographic Data Centre
#                                CCDC 
#
#######################################################################
#
# If this CIF has been generated from an entry in the Cambridge 
# Structural Database, then it will include bibliographic, chemical, 
# crystal, experimental, refinement or atomic coordinate data resulting 
# from the CCDC's data processing and validation procedures.
#
#######################################################################

data_EJINOB
_symmetry_cell_setting           monoclinic
_symmetry_space_group_name_H-M   'P 21'
_symmetry_Int_Tables_number      4
_space_group_name_Hall           'P 2yb'
loop_
_symmetry_equiv_pos_site_id
_symmetry_equiv_pos_as_xyz
1 x,y,z
2 -x,1/2+y,-z
_cell_length_a                   9.287(3)
_cell_length_b                   7.0017(19)
_cell_length_c                   13.168(4)
_cell_angle_alpha                90
_cell_angle_beta                 91.941(4)
_cell_angle_gamma                90
_cell_volume                     855.755
loop_
_atom_site_label
_atom_site_type_symbol
_atom_site_fract_x
_atom_site_fract_y
_atom_site_fract_z
Zn1 Zn 0.48372(4) 0.39583(7) 0.79668(3)
Cl1 Cl 0.44592(12) 0.08005(15) 0.82965(8)
O1 O 0.2943(3) 0.5426(4) 0.8135(2)
O2 O 0.3114(3) 0.6931(4) 0.9620(2)
O3 O 0.5541(3) 0.4946(5) 0.9308(2)
N1 N 0.2974(3) 0.8846(6) 0.2647(2)
N2 N 0.5423(3) 0.9223(5) 0.3629(2)
N3 N 0.0470(3) 0.8074(5) 0.5984(2)
N4 N 0.2495(3) 0.8664(5) 0.6802(2)
H1 H 0.3089 0.8841 0.7308
C1 C 0.1797(4) 0.8536(6) 0.2129(3)
H2 H 0.1805 0.8590 0.1424
C2 C 0.0483(4) 0.8114(6) 0.2606(3)
H3 H -0.0332 0.7872 0.2196
C3 C 0.0356(4) 0.8047(6) 0.3648(3)
H4 H -0.0509 0.7745 0.3945
C4 C 0.1563(4) 0.8445(5) 0.4209(3)
C5 C 0.1572(4) 0.8453(5) 0.5294(3)
C6 C 0.2849(3) 0.8817(7) 0.5791(2)
C7 C 0.4221(3) 0.9031(7) 0.5277(2)
C8 C 0.5578(3) 0.9115(7) 0.5739(3)
H5 H 0.5682 0.9111 0.6444
C9 C 0.6807(4) 0.9206(6) 0.5137(3)
H6 H 0.7718 0.9202 0.5453
C10 C 0.6687(4) 0.9300(6) 0.4085(3)
H7 H 0.7509 0.9417 0.3706
C11 C 0.2868(3) 0.8809(7) 0.3675(2)
C12 C 0.4208(3) 0.9041(7) 0.4209(2)
C13 C 0.1078(4) 0.8193(5) 0.6885(3)
C14 C 0.0299(4) 0.7905(6) 0.7874(3)
C15 C -0.1177(4) 0.8419(5) 0.7900(3)
H8 H -0.1622 0.8921 0.7316
C16 C -0.2013(4) 0.8197(6) 0.8787(3)
H9 H -0.2977 0.8559 0.8768
C17 C -0.1414(4) 0.7469(6) 0.9647(3)
H10 H -0.1951 0.7281 1.0222
C18 C 0.0038(4) 0.7009(6) 0.9639(3)
H11 H 0.0473 0.6544 1.0235
C19 C 0.0912(4) 0.7210(6) 0.8762(3)
C20 C 0.2463(4) 0.6499(5) 0.8847(3)
H12 H 0.585(5) 0.406(6) 0.972(3)
H13 H 0.488(4) 0.549(6) 0.963(3)
Zn1A Zn 0.51628(4) 0.89583(7) 0.20332(3)
N1A N 0.7026(3) 0.3846(6) 0.7353(2)
N2A N 0.4577(3) 0.4223(5) 0.6371(2)
loop_
_geom_bond_atom_site_label_1
_geom_bond_atom_site_label_2
_geom_bond_site_symmetry_1
_geom_bond_site_symmetry_2
Zn1 Cl1 1_555 1_555
O1 Zn1 1_555 1_555
O2 C20 1_555 1_555
O3 Zn1 1_555 1_555
N1 C1 1_555 1_555
N2 C10 1_555 1_555
N3 C5 1_555 1_555
N4 H1 1_555 1_555
C1 H2 1_555 1_555
C2 C1 1_555 1_555
H3 C2 1_555 1_555
C3 C2 1_555 1_555
H4 C3 1_555 1_555
C4 C3 1_555 1_555
C5 C4 1_555 1_555
C6 N4 1_555 1_555
C7 C6 1_555 1_555
C8 C7 1_555 1_555
H5 C8 1_555 1_555
C9 C8 1_555 1_555
H6 C9 1_555 1_555
C10 C9 1_555 1_555
H7 C10 1_555 1_555
C11 N1 1_555 1_555
C12 N2 1_555 1_555
C13 N3 1_555 1_555
C14 C13 1_555 1_555
C15 C14 1_555 1_555
H8 C15 1_555 1_555
C16 C15 1_555 1_555
H9 C16 1_555 1_555
C17 C16 1_555 1_555
H10 C17 1_555 1_555
C18 C17 1_555 1_555
H11 C18 1_555 1_555
C19 C14 1_555 1_555
C20 O1 1_555 1_555
H12 O3 1_555 1_555
H13 O3 1_555 1_555
Zn1A N1 1_555 1_555
N1A Zn1 1_555 1_555
N2A Zn1 1_555 1_555
N2 Zn1A 1_555 1_555
N4 C13 1_555 1_555
C4 C11 1_555 1_555
C5 C6 1_555 1_555
C7 C12 1_555 1_555
C11 C12 1_555 1_555
C18 C19 1_555 1_555
C19 C20 1_555 1_555

#END
