
#######################################################################
#
#                 Cambridge Crystallographic Data Centre
#                                CCDC 
#
#######################################################################
#
# If this CIF has been generated from an entry in the Cambridge 
# Structural Database, then it will include bibliographic, chemical, 
# crystal, experimental, refinement or atomic coordinate data resulting 
# from the CCDC's data processing and validation procedures.
#
#######################################################################

data_EJIQUK
_symmetry_cell_setting           monoclinic
_symmetry_space_group_name_H-M   'P 21/c'
_symmetry_Int_Tables_number      14
_space_group_name_Hall           '-P 2ybc'
loop_
_symmetry_equiv_pos_site_id
_symmetry_equiv_pos_as_xyz
1 x,y,z
2 -x,1/2+y,1/2-z
3 -x,-y,-z
4 x,1/2-y,1/2+z
_cell_length_a                   7.9639(5)
_cell_length_b                   24.3259(16)
_cell_length_c                   16.0648(10)
_cell_angle_alpha                90
_cell_angle_beta                 90.412(2)
_cell_angle_gamma                90
_cell_volume                     3112.14
loop_
_atom_site_label
_atom_site_type_symbol
_atom_site_fract_x
_atom_site_fract_y
_atom_site_fract_z
Ni1 Ni 0.61868(6) 0.586006(19) 0.63055(3)
Ni2 Ni 0.34567(6) 0.594606(18) 0.87263(3)
O1 O 0.5526(3) 0.50415(10) 0.61602(15)
O2 O 0.4736(3) 0.57520(10) 0.75032(15)
O3 O 0.4110(3) 0.51378(11) 0.89793(15)
O4 O 0.4205(5) 0.39385(12) 0.85091(19)
O5 O 0.5421(4) 0.38794(12) 0.68107(19)
O6 O 0.7297(3) 0.66233(11) 0.66516(17)
O7 O 0.8228(3) 0.55579(10) 0.70046(16)
O8 O 1.1302(3) 0.56005(10) 0.81728(16)
O9 O 1.2265(3) 0.66815(10) 0.83219(17)
O10 O 0.9746(4) 0.74163(11) 0.74402(19)
N1 N 0.7458(4) 0.58142(13) 0.5192(2)
N2 N 1.2458(4) 0.59788(13) -0.00891(19)
N3 N 0.4183(4) 0.62593(13) 0.58035(19)
N4 N -0.4423(4) 0.86433(13) 0.40591(19)
C1 C 0.5171(4) 0.48704(15) 0.6885(2)
C2 C 0.4773(4) 0.52270(15) 0.7551(2)
C3 C 0.4445(5) 0.49213(15) 0.8288(2)
C4 C 0.4532(5) 0.43303(17) 0.8074(2)
C5 C 0.5102(5) 0.42993(17) 0.7188(2)
C6 C 0.8545(5) 0.65248(15) 0.7102(2)
C7 C 0.9015(4) 0.59624(15) 0.7298(2)
C8 C 1.0483(5) 0.59814(15) 0.7837(2)
C9 C 1.0968(5) 0.65506(15) 0.7927(2)
C10 C 0.9748(5) 0.69146(16) 0.7489(2)
C11 C 0.7975(5) 0.53316(17) 0.4894(3)
H1 H 0.7850 0.5022 0.5227
C12 C 0.8685(5) 0.52659(17) 0.4116(3)
H2 H 0.9013 0.4919 0.3938
C13 C 0.8907(5) 0.57154(16) 0.3605(2)
C14 C 0.8331(5) 0.62177(17) 0.3907(3)
H3 H 0.8409 0.6531 0.3579
C15 C 0.7651(5) 0.62504(17) 0.4685(3)
H4 H 0.7302 0.6593 0.4874
C16 C 0.9691(5) 0.56546(17) 0.2786(3)
H5 H 0.9718 0.5304 0.2556
C17 C 1.0360(5) 0.60559(18) 0.2352(2)
H6 H 1.0344 0.6405 0.2586
C18 C 1.2577(5) 0.64211(16) 0.0393(3)
H7 H 1.3110 0.6731 0.0181
C19 C 1.1956(6) 0.64464(16) 0.1189(3)
H8 H 1.2092 0.6766 0.1501
C20 C 1.1131(5) 0.59998(16) 0.1527(2)
C21 C 1.1033(6) 0.55321(17) 0.1031(3)
H9 H 1.0516 0.5216 0.1231
C22 C 1.1699(5) 0.55381(16) 0.0246(3)
H10 H 1.1622 0.5220 -0.0072
C23 C 0.3549(5) 0.66938(15) 0.6215(2)
H11 H 0.3952 0.6767 0.6748
C24 C 0.2340(5) 0.70336(17) 0.5887(3)
H12 H 0.1930 0.7324 0.6201
C25 C 0.1726(5) 0.69453(16) 0.5089(2)
C26 C 0.2406(5) 0.64992(18) 0.4660(3)
H13 H 0.2059 0.6425 0.4118
C27 C 0.3588(5) 0.61703(17) 0.5040(2)
H14 H 0.3993 0.5869 0.4747
C28 C 0.0469(5) 0.73021(17) 0.4691(3)
H15 H 0.0369 0.7288 0.4114
C29 C -0.0530(5) 0.76422(17) 0.5093(3)
H16 H -0.0398 0.7666 0.5668
C30 C -0.4076(5) 0.81493(17) 0.3733(2)
H17 H -0.4724 0.8024 0.3288
C31 C -0.2796(5) 0.78188(17) 0.4032(3)
H18 H -0.2578 0.7482 0.3780
C32 C -0.1841(5) 0.79880(17) 0.4704(2)
C33 C -0.2186(5) 0.85070(18) 0.5029(3)
H19 H -0.1554 0.8642 0.5473
C34 C -0.3462(5) 0.88188(17) 0.4692(3)
H20 H -0.3664 0.9166 0.4914
Ni2_2 Ni 1.34567(6) 0.594606(18) 0.87263(3)
Ni2_3 Ni 1.34567(6) 0.594606(18) -0.12737(3)
Ni2C Ni -0.65433(6) 0.905394(18) 0.37263(3)
O8_2 O 0.1302(3) 0.56005(10) 0.81728(16)
O9_2 O 0.2265(3) 0.66815(10) 0.83219(17)
N2_2 N 0.2458(4) 0.59788(13) 0.99109(19)
N4C N 0.5577(4) 0.63567(13) 0.90591(19)
O11 O 0.4565(11) 0.2787(2) 0.7761(5)
H21 H 0.5401 0.2829 0.7282
H22 H 0.4645 0.2891 0.8357
loop_
_geom_bond_atom_site_label_1
_geom_bond_atom_site_label_2
_geom_bond_site_symmetry_1
_geom_bond_site_symmetry_2
Ni1 O1 1_555 1_555
Ni2 O2 1_555 1_555
O1 C1 1_555 1_555
O2 Ni1 1_555 1_555
O3 Ni2 1_555 1_555
O4 C4 1_555 1_555
O5 C5 1_555 1_555
O6 Ni1 1_555 1_555
O7 Ni1 1_555 1_555
O8 C8 1_555 1_555
O9 C9 1_555 1_555
O10 C10 1_555 1_555
N1 Ni1 1_555 1_555
N2 C18 1_555 1_555
N3 Ni1 1_555 1_555
N4 C30 1_555 1_555
C1 C2 1_555 1_555
C2 O2 1_555 1_555
C3 O3 1_555 1_555
C4 C3 1_555 1_555
C5 C1 1_555 1_555
C6 O6 1_555 1_555
C7 O7 1_555 1_555
C8 C7 1_555 1_555
C9 C8 1_555 1_555
C10 C6 1_555 1_555
C11 N1 1_555 1_555
H1 C11 1_555 1_555
C12 C11 1_555 1_555
H2 C12 1_555 1_555
C13 C12 1_555 1_555
C14 C13 1_555 1_555
H3 C14 1_555 1_555
C15 N1 1_555 1_555
H4 C15 1_555 1_555
C16 C13 1_555 1_555
H5 C16 1_555 1_555
C17 C16 1_555 1_555
H6 C17 1_555 1_555
C18 H7 1_555 1_555
C19 C18 1_555 1_555
H8 C19 1_555 1_555
C20 C17 1_555 1_555
C21 C20 1_555 1_555
H9 C21 1_555 1_555
C22 N2 1_555 1_555
H10 C22 1_555 1_555
C23 N3 1_555 1_555
H11 C23 1_555 1_555
C24 C23 1_555 1_555
H12 C24 1_555 1_555
C25 C24 1_555 1_555
C26 C25 1_555 1_555
H13 C26 1_555 1_555
C27 N3 1_555 1_555
H14 C27 1_555 1_555
C28 C25 1_555 1_555
H15 C28 1_555 1_555
C29 C28 1_555 1_555
H16 C29 1_555 1_555
C30 H17 1_555 1_555
C31 C30 1_555 1_555
H18 C31 1_555 1_555
C32 C29 1_555 1_555
C33 C32 1_555 1_555
H19 C33 1_555 1_555
C34 N4 1_555 1_555
H20 C34 1_555 1_555
O11 H21 1_555 1_555
H22 O11 1_555 1_555
Ni2_2 O8 1_555 1_555
Ni2_3 N2 1_555 1_555
Ni2C N4 1_555 1_555
O8_2 Ni2 1_555 1_555
O9_2 Ni2 1_555 1_555
N2_2 Ni2 1_555 1_555
N4C Ni2 1_555 1_555
O9 Ni2_2 1_555 1_555
C2 C3 1_555 1_555
C4 C5 1_555 1_555
C6 C7 1_555 1_555
C9 C10 1_555 1_555
C14 C15 1_555 1_555
C19 C20 1_555 1_555
C21 C22 1_555 1_555
C26 C27 1_555 1_555
C31 C32 1_555 1_555
C33 C34 1_555 1_555

#END
