
#######################################################################
#
#                 Cambridge Crystallographic Data Centre
#                                CCDC 
#
#######################################################################
#
# If this CIF has been generated from an entry in the Cambridge 
# Structural Database, then it will include bibliographic, chemical, 
# crystal, experimental, refinement or atomic coordinate data resulting 
# from the CCDC's data processing and validation procedures.
#
#######################################################################

data_EJIQOD
_symmetry_cell_setting           monoclinic
_symmetry_space_group_name_H-M   'P n'
_symmetry_Int_Tables_number      7
_space_group_name_Hall           'P -2yac'
loop_
_symmetry_equiv_pos_site_id
_symmetry_equiv_pos_as_xyz
1 x,y,z
2 1/2+x,-y,1/2+z
_cell_length_a                   12.950
_cell_length_b                   13.236
_cell_length_c                   19.070
_cell_angle_alpha                90
_cell_angle_beta                 100.78
_cell_angle_gamma                90
_cell_volume                     3211.03
loop_
_atom_site_label
_atom_site_type_symbol
_atom_site_fract_x
_atom_site_fract_y
_atom_site_fract_z
Mo1 Mo 0.85584(5) 0.91615(5) 0.80680(3)
Mo2 Mo 0.91811(5) 0.68032(5) 0.75360(3)
Mo3 Mo 0.72355(5) 0.71020(5) 0.85080(3)
Mo4 Mo 1.25765(5) 0.79166(5) 1.01525(4)
Mo5 Mo 1.19024(5) 0.76146(5) 0.83368(3)
Mo6 Mo 1.12011(5) 0.97668(5) 0.91325(3)
Mo7 Mo 0.87580(4) 0.51174(4) 0.96318(3)
Mo8 Mo 1.11637(5) 0.56503(5) 1.06292(3)
Mo9 Mo 1.08915(5) 0.51459(4) 0.88385(3)
Mo10 Mo 1.04517(5) 0.81942(5) 1.12024(3)
Mo11 Mo 0.88528(5) 0.96943(4) 1.00043(4)
Mo12 Mo 0.79545(5) 0.74280(5) 1.04832(3)
Gd1 Gd 0.73969(3) 0.25065(2) 1.01765(2)
P1 P 0.98892(15) 0.74673(16) 0.93716(10)
O1 O 0.8005(4) 1.0145(4) 0.7584(3)
O2 O 0.9130(4) 0.6446(4) 0.6686(3)
O3 O 0.5996(4) 0.6718(4) 0.8246(3)
O4 O 1.3762(4) 0.8054(4) 1.0686(3)
O5 O 1.2767(4) 0.7458(4) 0.7787(3)
O6 O 1.1549(4) 1.0933(4) 0.8939(3)
O7 O 0.7953(4) 0.4166(4) 0.9779(3)
O8 O 1.1925(4) 0.4997(4) 1.1281(3)
O9 O 1.1316(4) 0.4151(4) 0.8427(3)
O10 O 1.0907(4) 0.8355(4) 1.2074(3)
O11 O 0.8456(4) 0.0882(4) 1.0156(3)
O12 O 0.6885(4) 0.7251(4) 1.0843(3)
O13 O 0.9605(4) 0.4496(3) 0.9081(3)
O14 O 0.9936(4) 0.4931(4) 1.0461(3)
O15 O 1.1506(4) 0.4935(4) 0.9769(3)
O16 O 1.0627(4) 0.7441(4) 0.7758(3)
O17 O 1.2321(4) 0.9355(4) 0.9809(3)
O18 O 0.8791(4) 0.8272(4) 0.7371(3)
O19 O 0.7870(4) 0.8923(4) 1.0328(3)
O20 O 1.2916(4) 0.7639(4) 0.9280(3)
O21 O 1.1837(4) 0.8999(4) 0.8419(3)
O22 O 1.2183(4) 0.6647(3) 1.0356(2)
O23 O 0.9795(4) 0.9413(4) 1.0937(3)
O24 O 0.7249(4) 0.8369(4) 0.8115(3)
O25 O 1.0698(4) 0.6726(4) 1.1097(3)
O26 O 0.8352(4) 0.6153(4) 1.0284(3)
O27 O 1.1728(4) 0.6193(4) 0.8653(3)
O28 O 1.0259(4) 0.9960(4) 0.9717(3)
O29 O 0.7838(4) 0.6600(4) 0.7666(3)
O30 O 0.9800(4) 0.5729(4) 0.8060(3)
O31 O 1.1607(4) 0.8372(4) 1.0788(3)
O32 O 0.9903(4) 0.9566(4) 0.8368(3)
O33 O 0.8359(4) 0.9528(4) 0.9052(3)
O34 O 0.8988(4) 0.7684(4) 1.1247(3)
O35 O 0.7928(4) 0.5815(4) 0.8925(3)
O36 O 0.7296(4) 0.7465(3) 0.9429(3)
O37 O 0.9069(4) 0.7591(3) 0.8672(2)
O38 O 1.0932(4) 0.7957(3) 0.9285(2)
O39 O 1.0074(4) 0.6349(3) 0.9540(2)
O40 O 0.9465(3) 0.7976(4) 0.9989(2)
O41 O 0.6275(4) 0.1185(4) 0.9692(3)
N1 N 0.5065(6) 0.0090(5) 0.9104(4)
C1 C 0.5346(8) -0.0770(8) 0.9559(5)
H1 H 0.5853 -0.0571 0.9970
H2 H 0.5643 -0.1284 0.9302
H3 H 0.4731 -0.1030 0.9709
C2 C 0.5567(6) 0.0957(6) 0.9184(4)
C3 C 0.5129(8) 0.1626(8) 0.8549(5)
H4 H 0.4969 0.2297 0.8704
H5 H 0.5625 0.1685 0.8227
C4 C 0.4141(9) 0.1088(8) 0.8192(6)
H6 H 0.4055 0.1131 0.7676
H7 H 0.3527 0.1378 0.8338
C5 C 0.4302(8) -0.0014(7) 0.8444(5)
H8 H 0.3651 -0.0309 0.8529
H9 H 0.4577 -0.0423 0.8099
O42 O 0.7037(4) 0.1617(4) 1.1128(3)
N2 N 0.5679(5) 0.0606(5) 1.1308(4)
C6 C 0.4828(7) 0.1229(7) 1.0933(5)
H10 H 0.5114 0.1783 1.0706
H11 H 0.4423 0.1487 1.1268
H12 H 0.4383 0.0830 1.0579
C7 C 0.6667(6) 0.0854(6) 1.1377(4)
C8 C 0.7333(6) 0.0054(6) 1.1834(5)
H13 H 0.7838 -0.0242 1.1577
H14 H 0.7709 0.0348 1.2275
C9 C 0.6558(7) -0.0734(7) 1.1986(5)
H15 H 0.6648 -0.0863 1.2494
H16 H 0.6651 -0.1362 1.1743
C10 C 0.5463(7) -0.0277(7) 1.1699(5)
H17 H 0.5024 -0.0751 1.1389
H18 H 0.5113 -0.0094 1.2088
O43 O 0.9153(4) 0.2718(4) 1.0629(3)
N3 N 1.0472(5) 0.1791(5) 1.1287(3)
C11 C 0.9923(6) 0.1490(6) 1.1845(4)
H19 H 0.9250 0.1818 1.1775
H20 H 1.0328 0.1682 1.2300
H21 H 0.9826 0.0771 1.1831
C12 C 1.0066(6) 0.2333(5) 1.0732(4)
C13 C 1.0854(6) 0.2442(6) 1.0236(4)
H22 H 1.0659 0.2025 0.9814
H23 H 1.0910 0.3140 1.0092
C14 C 1.1863(7) 0.2083(6) 1.0690(5)
H24 H 1.2278 0.1706 1.0406
H25 H 1.2275 0.2649 1.0911
C15 C 1.1529(6) 0.1416(6) 1.1245(4)
H26 H 1.1506 0.0713 1.1099
H27 H 1.2003 0.1485 1.1700
O44 O 0.7295(4) 0.3711(4) 1.1065(3)
N4 N 0.7283(5) 0.5026(5) 1.1824(4)
C16 C 0.6159(6) 0.5183(6) 1.1674(4)
H28 H 0.5846 0.4759 1.1283
H29 H 0.6012 0.5878 1.1551
H30 H 0.5873 0.5016 1.2089
C17 C 0.7756(6) 0.4275(5) 1.1538(4)
C18 C 0.8904(6) 0.4272(6) 1.1871(4)
H31 H 0.9337 0.4221 1.1508
H32 H 0.9069 0.3713 1.2202
C19 C 0.9078(7) 0.5285(7) 1.2262(5)
H33 H 0.9352 0.5786 1.1974
H34 H 0.9561 0.5214 1.2714
C20 C 0.7973(7) 0.5578(7) 1.2380(5)
H35 H 0.7867 0.5374 1.2849
H36 H 0.7860 0.6301 1.2326
O45 O 0.5798(4) 0.3354(4) 0.9758(3)
N5 N 0.4342(5) 0.4307(5) 0.9743(4)
C21 C 0.3616(7) 0.3481(7) 0.9808(5)
H37 H 0.3959 0.2846 0.9768
H38 H 0.3008 0.3534 0.9434
H39 H 0.3404 0.3520 1.0263
C22 C 0.5361(6) 0.4189(5) 0.9744(4)
C23 C 0.5833(6) 0.5223(6) 0.9710(4)
H40 H 0.6149 0.5285 0.9289
H41 H 0.6369 0.5346 1.0129
C24 C 0.4933(7) 0.5965(7) 0.9677(5)
H42 H 0.5099 0.6469 1.0050
H43 H 0.4791 0.6305 0.9218
C25 C 0.4016(8) 0.5355(7) 0.9779(5)
H44 H 0.3832 0.5499 1.0239
H45 H 0.3413 0.5499 0.9408
O46 O 0.7722(4) 0.2411(4) 0.9009(3)
N6 N 0.7746(5) 0.3216(4) 0.7962(3)
C26 C 0.6785(6) 0.3810(6) 0.7922(4)
H46 H 0.6457 0.3643 0.8319
H47 H 0.6311 0.3661 0.7484
H48 H 0.6956 0.4517 0.7938
C27 C 0.8147(6) 0.2611(5) 0.8490(4)
C28 C 0.9188(6) 0.2220(6) 0.8373(4)
H49 H 0.9247 0.1498 0.8458
H50 H 0.9763 0.2558 0.8684
C29 C 0.9190(7) 0.2463(6) 0.7596(5)
H51 H 0.8969 0.1883 0.7295
H52 H 0.9884 0.2669 0.7530
C30 C 0.8408(6) 0.3327(6) 0.7425(4)
H53 H 0.8763 0.3975 0.7469
H54 H 0.7997 0.3262 0.6947
O11_2 O 0.8456(4) 1.0882(4) 1.0156(3)
Mo11_2 Mo 0.88528(5) -0.03057(4) 1.00043(4)
loop_
_geom_bond_atom_site_label_1
_geom_bond_atom_site_label_2
_geom_bond_site_symmetry_1
_geom_bond_site_symmetry_2
Mo1 O1 1_555 1_555
Mo2 O2 1_555 1_555
Mo3 O3 1_555 1_555
Mo4 O4 1_555 1_555
Mo5 O5 1_555 1_555
Mo6 O6 1_555 1_555
Mo7 O7 1_555 1_555
Mo8 O8 1_555 1_555
Mo9 O9 1_555 1_555
Mo10 O10 1_555 1_555
Mo11 O19 1_555 1_555
Mo12 O12 1_555 1_555
Gd1 O7 1_555 1_555
P1 O37 1_555 1_555
O11 Gd1 1_555 1_555
O13 Mo7 1_555 1_555
O14 Mo7 1_555 1_555
O15 Mo8 1_555 1_555
O16 Mo2 1_555 1_555
O17 Mo4 1_555 1_555
O18 Mo1 1_555 1_555
O19 Mo12 1_555 1_555
O20 Mo4 1_555 1_555
O21 Mo5 1_555 1_555
O22 Mo4 1_555 1_555
O23 Mo10 1_555 1_555
O24 Mo1 1_555 1_555
O25 Mo8 1_555 1_555
O26 Mo7 1_555 1_555
O27 Mo5 1_555 1_555
O28 Mo6 1_555 1_555
O29 Mo2 1_555 1_555
O30 Mo2 1_555 1_555
O31 Mo4 1_555 1_555
O32 Mo1 1_555 1_555
O33 Mo1 1_555 1_555
O34 Mo10 1_555 1_555
O35 Mo3 1_555 1_555
O36 Mo3 1_555 1_555
O37 Mo1 1_555 1_555
O38 Mo4 1_555 1_555
O39 Mo7 1_555 1_555
O40 Mo10 1_555 1_555
O41 Gd1 1_555 1_555
N1 C1 1_555 1_555
C1 H1 1_555 1_555
H2 C1 1_555 1_555
H3 C1 1_555 1_555
C2 O41 1_555 1_555
C3 C2 1_555 1_555
H4 C3 1_555 1_555
H5 C3 1_555 1_555
C4 C3 1_555 1_555
H6 C4 1_555 1_555
H7 C4 1_555 1_555
C5 N1 1_555 1_555
H8 C5 1_555 1_555
H9 C5 1_555 1_555
O42 Gd1 1_555 1_555
N2 C6 1_555 1_555
C6 H10 1_555 1_555
H11 C6 1_555 1_555
H12 C6 1_555 1_555
C7 O42 1_555 1_555
C8 C7 1_555 1_555
H13 C8 1_555 1_555
H14 C8 1_555 1_555
C9 C8 1_555 1_555
H15 C9 1_555 1_555
H16 C9 1_555 1_555
C10 N2 1_555 1_555
H17 C10 1_555 1_555
H18 C10 1_555 1_555
O43 Gd1 1_555 1_555
N3 C11 1_555 1_555
C11 H19 1_555 1_555
H20 C11 1_555 1_555
H21 C11 1_555 1_555
C12 O43 1_555 1_555
C13 C12 1_555 1_555
H22 C13 1_555 1_555
H23 C13 1_555 1_555
C14 C13 1_555 1_555
H24 C14 1_555 1_555
H25 C14 1_555 1_555
C15 N3 1_555 1_555
H26 C15 1_555 1_555
H27 C15 1_555 1_555
O44 Gd1 1_555 1_555
N4 C16 1_555 1_555
C16 H28 1_555 1_555
H29 C16 1_555 1_555
H30 C16 1_555 1_555
C17 O44 1_555 1_555
C18 C17 1_555 1_555
H31 C18 1_555 1_555
H32 C18 1_555 1_555
C19 C18 1_555 1_555
H33 C19 1_555 1_555
H34 C19 1_555 1_555
C20 N4 1_555 1_555
H35 C20 1_555 1_555
H36 C20 1_555 1_555
O45 Gd1 1_555 1_555
N5 C21 1_555 1_555
C21 H37 1_555 1_555
H38 C21 1_555 1_555
H39 C21 1_555 1_555
C22 O45 1_555 1_555
C23 C22 1_555 1_555
H40 C23 1_555 1_555
H41 C23 1_555 1_555
C24 C23 1_555 1_555
H42 C24 1_555 1_555
H43 C24 1_555 1_555
C25 N5 1_555 1_555
H44 C25 1_555 1_555
H45 C25 1_555 1_555
O46 Gd1 1_555 1_555
N6 C26 1_555 1_555
C26 H46 1_555 1_555
H47 C26 1_555 1_555
H48 C26 1_555 1_555
C27 O46 1_555 1_555
C28 C27 1_555 1_555
H49 C28 1_555 1_555
H50 C28 1_555 1_555
C29 C28 1_555 1_555
H51 C29 1_555 1_555
H52 C29 1_555 1_555
C30 N6 1_555 1_555
H53 C30 1_555 1_555
H54 C30 1_555 1_555
O11_2 Mo11 1_555 1_555
Mo11_2 O11 1_555 1_555
Mo2 O18 1_555 1_555
Mo2 O37 1_555 1_555
Mo3 O24 1_555 1_555
Mo3 O37 1_555 1_555
Mo3 O29 1_555 1_555
Mo5 O38 1_555 1_555
Mo5 O16 1_555 1_555
Mo5 O20 1_555 1_555
Mo6 O32 1_555 1_555
Mo6 O38 1_555 1_555
Mo6 O17 1_555 1_555
Mo6 O21 1_555 1_555
Mo7 O35 1_555 1_555
Mo8 O39 1_555 1_555
Mo8 O14 1_555 1_555
Mo8 O22 1_555 1_555
Mo9 O39 1_555 1_555
Mo9 O13 1_555 1_555
Mo9 O15 1_555 1_555
Mo9 O27 1_555 1_555
Mo9 O30 1_555 1_555
Mo10 O25 1_555 1_555
Mo10 O31 1_555 1_555
Mo11 O33 1_555 1_555
Mo11 O40 1_555 1_555
Mo11 O23 1_555 1_555
Mo11 O28 1_555 1_555
Mo12 O40 1_555 1_555
Mo12 O26 1_555 1_555
Mo12 O34 1_555 1_555
Mo12 O36 1_555 1_555
P1 O38 1_555 1_555
P1 O39 1_555 1_555
P1 O40 1_555 1_555
N1 C2 1_555 1_555
C4 C5 1_555 1_555
N2 C7 1_555 1_555
C9 C10 1_555 1_555
N3 C12 1_555 1_555
C14 C15 1_555 1_555
N4 C17 1_555 1_555
C19 C20 1_555 1_555
N5 C22 1_555 1_555
C24 C25 1_555 1_555
N6 C27 1_555 1_555
C29 C30 1_555 1_555

#END
