
#######################################################################
#
#                 Cambridge Crystallographic Data Centre
#                                CCDC 
#
#######################################################################
#
# If this CIF has been generated from an entry in the Cambridge 
# Structural Database, then it will include bibliographic, chemical, 
# crystal, experimental, refinement or atomic coordinate data resulting 
# from the CCDC's data processing and validation procedures.
#
#######################################################################

data_EJIQIX
_symmetry_cell_setting           monoclinic
_symmetry_space_group_name_H-M   'C 2/c'
_symmetry_Int_Tables_number      15
_space_group_name_Hall           '-C 2yn'
loop_
_symmetry_equiv_pos_site_id
_symmetry_equiv_pos_as_xyz
1 x,y,z
2 1/2+x,1/2+y,z
3 x,-y,1/2+z
4 1/2+x,1/2-y,1/2+z
5 -x,-y,-z
6 1/2-x,1/2-y,-z
7 -x,y,1/2-z
8 1/2-x,1/2+y,1/2-z
_cell_length_a                   12.436(5)
_cell_length_b                   8.395(3)
_cell_length_c                   20.747(8)
_cell_angle_alpha                90
_cell_angle_beta                 96.662(6)
_cell_angle_gamma                90
_cell_volume                     2151.37
loop_
_atom_site_label
_atom_site_type_symbol
_atom_site_fract_x
_atom_site_fract_y
_atom_site_fract_z
Cu1 Cu -0.31224(4) 0.13100(6) 0.32057(3)
N1 N -0.2811(3) -0.1023(4) 0.32540(18)
H1 H -0.3436 -0.1573 0.3206
H2 H -0.2423 -0.1304 0.2932
N2 N -0.2692(3) 0.1245(4) 0.41624(17)
H3 H -0.2157 0.1953 0.4270
H4 H -0.3260 0.1522 0.4370
N3 N -0.3733(3) 0.1123(5) 0.22897(19)
N4 N -0.4768(3) 0.0305(6) 0.1276(2)
N5 N -0.4096(4) -0.1265(6) 0.0410(2)
N6 N -0.3621(3) 0.3540(5) 0.3246(2)
N7 N -0.4488(3) 0.6072(5) 0.34287(19)
N8 N -0.6340(3) 0.6858(5) 0.30056(19)
C1 C -0.2211(6) -0.1395(6) 0.3873(3)
H5 H -0.2433 -0.2443 0.4004
H6 H -0.1450 -0.1458 0.3815
C2 C -0.2321(8) -0.0351(7) 0.4370(3)
H7 H -0.2998 -0.0761 0.4506
C3 C -0.1635(5) -0.0452(7) 0.4998(3)
H8 H -0.1476 -0.1548 0.5100
H9 H -0.2010 0.0010 0.5331
H10 H -0.0972 0.0117 0.4971
C4 C -0.4173(4) 0.0675(6) 0.1809(2)
C5 C -0.4366(4) -0.0535(6) 0.0830(2)
C6 C -0.4077(3) 0.4699(5) 0.3315(2)
C7 C -0.5486(3) 0.6423(5) 0.31896(19)
N8A N -0.1340(3) 0.1858(5) 0.30056(19)
Cu1A Cu -0.81224(4) 0.63100(6) 0.32057(3)
loop_
_geom_bond_atom_site_label_1
_geom_bond_atom_site_label_2
_geom_bond_site_symmetry_1
_geom_bond_site_symmetry_2
Cu1 N1 1_555 1_555
N1 H1 1_555 1_555
H2 N1 1_555 1_555
N2 Cu1 1_555 1_555
H3 N2 1_555 1_555
H4 N2 1_555 1_555
N3 Cu1 1_555 1_555
N4 C4 1_555 1_555
N5 C5 1_555 1_555
N6 Cu1 1_555 1_555
N7 C6 1_555 1_555
N8 C7 1_555 1_555
C1 N1 1_555 1_555
H5 C1 1_555 1_555
H6 C1 1_555 1_555
C2 N2 1_555 1_555
H7 C2 1_555 1_555
C3 C2 1_555 1_555
H8 C3 1_555 1_555
H9 C3 1_555 1_555
H10 C3 1_555 1_555
C4 N3 1_555 1_555
C5 N4 1_555 1_555
C6 N6 1_555 1_555
C7 N7 1_555 1_555
N8A Cu1 1_555 1_555
Cu1A N8 1_555 1_555
C1 C2 1_555 1_555

#END
