
#######################################################################
#
#                 Cambridge Crystallographic Data Centre
#                                CCDC 
#
#######################################################################
#
# If this CIF has been generated from an entry in the Cambridge 
# Structural Database, then it will include bibliographic, chemical, 
# crystal, experimental, refinement or atomic coordinate data resulting 
# from the CCDC's data processing and validation procedures.
#
#######################################################################

data_EJISAS
_symmetry_cell_setting           orthorhombic
_symmetry_space_group_name_H-M   'P n n a'
_symmetry_Int_Tables_number      52
_space_group_name_Hall           '-P 2a 2bc'
loop_
_symmetry_equiv_pos_site_id
_symmetry_equiv_pos_as_xyz
1 x,y,z
2 1/2-x,-y,z
3 1/2-x,1/2+y,1/2-z
4 x,1/2-y,1/2-z
5 -x,-y,-z
6 1/2+x,y,-z
7 1/2+x,1/2-y,1/2+z
8 -x,1/2+y,1/2+z
_cell_length_a                   18.861(5)
_cell_length_b                   16.141(4)
_cell_length_c                   13.487(4)
_cell_angle_alpha                90
_cell_angle_beta                 90
_cell_angle_gamma                90
_cell_volume                     4105.92
loop_
_atom_site_label
_atom_site_type_symbol
_atom_site_fract_x
_atom_site_fract_y
_atom_site_fract_z
Cu1 Cu 0.26884(2) 0.76048(3) 0.57260(3)
S1 S 0.38108(7) 0.7500 0.7500
S2 S 0.15844(7) 0.7500 0.7500
O1 O 0.2157(2) 0.8985(3) 0.5697(4)
H1 H 0.212(3) 0.9491(16) 0.553(4)
H2 H 0.179(2) 0.896(3) 0.607(4)
O2 O 0.3261(2) 0.6122(3) 0.5652(3)
H3 H 0.356(2) 0.606(3) 0.515(3)
H4 H 0.353(2) 0.618(3) 0.619(3)
O3 O 0.33596(13) 0.79606(17) 0.67831(19)
O4 O 0.42461(15) 0.8101(2) 0.8024(2)
O5 O 0.20413(13) 0.71231(18) 0.67227(19)
O6 O 0.11539(14) 0.8155(2) 0.7069(2)
O7 O 0.39954(15) 0.90945(19) 0.1190(2)
O8 O 0.14172(15) 0.58066(19) 0.1305(2)
N1 N 0.33685(16) 0.8008(2) 0.4696(2)
N2 N 0.47593(18) 0.8696(2) 0.2430(2)
H9 H 0.5200 0.8624 0.2566
N3 N 0.51821(18) 0.9204(2) 0.0971(3)
H10 H 0.5596 0.9115 0.1216
N4 N 0.20367(17) 0.7176(2) 0.4664(2)
N5 N 0.06447(18) 0.6250(2) 0.2513(2)
H11 H 0.0202 0.6306 0.2650
N6 N 0.02415(17) 0.5593(2) 0.1121(2)
H12 H -0.0177 0.5649 0.1366
C1 C 0.4062(2) 0.7816(3) 0.4710(3)
H13 H 0.4239 0.7522 0.5248
C2 C 0.4517(2) 0.8032(3) 0.3968(3)
H14 H 0.4991 0.7878 0.4007
C3 C 0.4280(2) 0.8480(2) 0.3161(3)
C4 C 0.3563(2) 0.8709(3) 0.3151(3)
H15 H 0.3379 0.9030 0.2639
C5 C 0.3140(2) 0.8449(3) 0.3921(3)
H16 H 0.2662 0.8589 0.3900
C6 C 0.4606(2) 0.9017(2) 0.1505(3)
C7 C 0.5119(2) 0.9556(3) -0.0014(3)
H17 H 0.4781 0.9234 -0.0395
H18 H 0.5574 0.9523 -0.0347
C8 C 0.2264(2) 0.6682(3) 0.3947(3)
H19 H 0.2746 0.6557 0.3934
C9 C 0.1843(2) 0.6339(3) 0.3215(3)
H20 H 0.2031 0.5977 0.2747
C10 C 0.1124(2) 0.6553(3) 0.3201(3)
C11 C 0.0888(2) 0.7078(2) 0.3943(3)
H21 H 0.0414 0.7238 0.3956
C12 C 0.1338(2) 0.7365(3) 0.4654(3)
H22 H 0.1158 0.7703 0.5152
C13 C 0.0812(2) 0.5863(3) 0.1625(3)
C14 C 0.0341(2) 0.5202(3) 0.0153(3)
H23 H 0.0715 0.4791 0.0192
H24 H 0.0477 0.5616 -0.0332
Cu1C Cu 0.26884(2) 0.73952(3) 0.92740(3)
Cu1D Cu 0.73116(2) 1.23952(3) -0.57260(3)
Cu1D_2 Cu -0.26884(2) 0.23952(3) -0.57260(3)
O1C O 0.2157(2) 0.6015(3) 0.9303(4)
H1C H 0.212(3) 0.5509(16) 0.947(4)
H2C H 0.179(2) 0.604(3) 0.893(4)
O2C O 0.3261(2) 0.8878(3) 0.9348(3)
H3C H 0.356(2) 0.894(3) 0.985(3)
H4C H 0.353(2) 0.882(3) 0.881(3)
O3C O 0.33596(13) 0.70394(17) 0.82169(19)
O4C O 0.42461(15) 0.6899(2) 0.6976(2)
O5C O 0.20413(13) 0.78769(18) 0.82773(19)
O6C O 0.11539(14) 0.6845(2) 0.7931(2)
O7D O 0.60046(15) 1.09055(19) -0.1190(2)
O8D O -0.14172(15) 0.41934(19) -0.1305(2)
N1D N 0.66315(16) 1.1992(2) -0.4696(2)
N1C N 0.33685(16) 0.6992(2) 1.0304(2)
N2D N 0.52407(18) 1.1304(2) -0.2430(2)
H9D H 0.4800 1.1376 -0.2566
N3D N 0.48179(18) 1.0796(2) -0.0971(3)
H10D H 0.4404 1.0885 -0.1216
N4D N -0.20367(17) 0.2824(2) -0.4664(2)
N4C N 0.20367(17) 0.7824(2) 1.0336(2)
N5D N -0.06447(18) 0.3750(2) -0.2513(2)
H11D H -0.0202 0.3694 -0.2650
N6D N -0.02415(17) 0.4407(2) -0.1121(2)
H12D H 0.0177 0.4351 -0.1366
C1D C 0.5938(2) 1.2184(3) -0.4710(3)
H13D H 0.5761 1.2478 -0.5248
C2D C 0.5483(2) 1.1968(3) -0.3968(3)
H14D H 0.5009 1.2122 -0.4007
C3D C 0.5720(2) 1.1520(2) -0.3161(3)
C4D C 0.6437(2) 1.1291(3) -0.3151(3)
H15D H 0.6621 1.0970 -0.2639
C5D C 0.6860(2) 1.1551(3) -0.3921(3)
H16D H 0.7338 1.1411 -0.3900
C6D C 0.5394(2) 1.0983(2) -0.1505(3)
C7D C 0.4881(2) 1.0444(3) 0.0014(3)
H17D H 0.5219 1.0766 0.0395
H18D H 0.4426 1.0477 0.0347
C8D C -0.2264(2) 0.3318(3) -0.3947(3)
H19D H -0.2746 0.3443 -0.3934
C9D C -0.1843(2) 0.3661(3) -0.3215(3)
H20D H -0.2031 0.4023 -0.2747
C10D C -0.1124(2) 0.3447(3) -0.3201(3)
C11D C -0.0888(2) 0.2922(2) -0.3943(3)
H21D H -0.0414 0.2762 -0.3956
C12D C -0.1338(2) 0.2635(3) -0.4654(3)
H22D H -0.1158 0.2297 -0.5152
C13D C -0.0812(2) 0.4137(3) -0.1625(3)
C14D C -0.0341(2) 0.4798(3) -0.0153(3)
H23D H -0.0715 0.5209 -0.0192
H24D H -0.0477 0.4384 0.0332
O9 O 0.1633(2) 0.9527(3) 0.8534(4)
H5 H 0.198(2) 0.921(3) 0.825(4)
H6 H 0.190(2) 0.995(2) 0.881(4)
O10 O 0.1226(2) 1.0299(3) 0.6771(4)
H7 H 0.1612(19) 1.058(3) 0.675(4)
H8 H 0.135(3) 1.019(4) 0.737(2)
loop_
_geom_bond_atom_site_label_1
_geom_bond_atom_site_label_2
_geom_bond_site_symmetry_1
_geom_bond_site_symmetry_2
Cu1 O1 1_555 1_555
S1 O3 1_555 1_555
S2 O5 1_555 1_555
O1 H1 1_555 1_555
H2 O1 1_555 1_555
O2 Cu1 1_555 1_555
H3 O2 1_555 1_555
H4 O2 1_555 1_555
O3 Cu1 1_555 1_555
O4 S1 1_555 1_555
O5 Cu1 1_555 1_555
O6 S2 1_555 1_555
O7 C6 1_555 1_555
O8 C13 1_555 1_555
O9 H5 1_555 1_555
H6 O9 1_555 1_555
O10 H7 1_555 1_555
H8 O10 1_555 1_555
N1 Cu1 1_555 1_555
N2 H9 1_555 1_555
N3 H10 1_555 1_555
N4 Cu1 1_555 1_555
N5 H11 1_555 1_555
N6 H12 1_555 1_555
C1 N1 1_555 1_555
H13 C1 1_555 1_555
C2 C1 1_555 1_555
H14 C2 1_555 1_555
C3 N2 1_555 1_555
C4 C3 1_555 1_555
H15 C4 1_555 1_555
C5 N1 1_555 1_555
H16 C5 1_555 1_555
C6 N2 1_555 1_555
C7 N3 1_555 1_555
H17 C7 1_555 1_555
H18 C7 1_555 1_555
C8 N4 1_555 1_555
H19 C8 1_555 1_555
C9 C8 1_555 1_555
H20 C9 1_555 1_555
C10 N5 1_555 1_555
C11 C10 1_555 1_555
H21 C11 1_555 1_555
C12 N4 1_555 1_555
H22 C12 1_555 1_555
C13 N5 1_555 1_555
C14 N6 1_555 1_555
H23 C14 1_555 1_555
H24 C14 1_555 1_555
Cu1C O1C 1_555 1_555
Cu1D N1D 1_555 1_555
Cu1D_2 N4D 1_555 1_555
O1C H1C 1_555 1_555
H2C O1C 1_555 1_555
O2C Cu1C 1_555 1_555
H3C O2C 1_555 1_555
H4C O2C 1_555 1_555
O3C S1 1_555 1_555
O4C S1 1_555 1_555
O5C S2 1_555 1_555
O6C S2 1_555 1_555
O7D C6D 1_555 1_555
O8D C13D 1_555 1_555
N1D C1D 1_555 1_555
N1C Cu1C 1_555 1_555
N2D H9D 1_555 1_555
N3D H10D 1_555 1_555
N4D C8D 1_555 1_555
N4C Cu1C 1_555 1_555
N5D H11D 1_555 1_555
N6D H12D 1_555 1_555
C1D H13D 1_555 1_555
C2D C1D 1_555 1_555
H14D C2D 1_555 1_555
C3D N2D 1_555 1_555
C4D C3D 1_555 1_555
H15D C4D 1_555 1_555
C5D N1D 1_555 1_555
H16D C5D 1_555 1_555
C6D N2D 1_555 1_555
C7D C7 1_555 1_555
H17D C7D 1_555 1_555
H18D C7D 1_555 1_555
C8D H19D 1_555 1_555
C9D C8D 1_555 1_555
H20D C9D 1_555 1_555
C10D N5D 1_555 1_555
C11D C10D 1_555 1_555
H21D C11D 1_555 1_555
C12D N4D 1_555 1_555
H22D C12D 1_555 1_555
C13D N5D 1_555 1_555
C14D C14 1_555 1_555
H23D C14D 1_555 1_555
H24D C14D 1_555 1_555
N3 C6 1_555 1_555
N6 C13 1_555 1_555
C2 C3 1_555 1_555
C4 C5 1_555 1_555
C9 C10 1_555 1_555
C11 C12 1_555 1_555
Cu1C O3C 1_555 1_555
Cu1C O5C 1_555 1_555
N3D C6D 1_555 1_555
N3D C7D 1_555 1_555
N6D C13D 1_555 1_555
N6D C14D 1_555 1_555
C2D C3D 1_555 1_555
C4D C5D 1_555 1_555
C9D C10D 1_555 1_555
C11D C12D 1_555 1_555

#END
