
#######################################################################
#
#                 Cambridge Crystallographic Data Centre
#                                CCDC 
#
#######################################################################
#
# If this CIF has been generated from an entry in the Cambridge 
# Structural Database, then it will include bibliographic, chemical, 
# crystal, experimental, refinement or atomic coordinate data resulting 
# from the CCDC's data processing and validation procedures.
#
#######################################################################

data_EJISAR
_symmetry_cell_setting           monoclinic
_symmetry_space_group_name_H-M   'P 21/n'
_symmetry_Int_Tables_number      14
_space_group_name_Hall           '-P 2yn'
loop_
_symmetry_equiv_pos_site_id
_symmetry_equiv_pos_as_xyz
1 x,y,z
2 1/2+x,1/2-y,1/2+z
3 -x,-y,-z
4 1/2-x,1/2+y,1/2-z
_cell_length_a                   9.9396(12)
_cell_length_b                   21.143(8)
_cell_length_c                   17.250(3)
_cell_angle_alpha                90
_cell_angle_beta                 105.094(13)
_cell_angle_gamma                90
_cell_volume                     3500.07
loop_
_atom_site_label
_atom_site_type_symbol
_atom_site_fract_x
_atom_site_fract_y
_atom_site_fract_z
K1 K -0.39297(5) 0.25341(3) -0.43403(3)
N1 N -0.5384(2) 0.05202(10) -0.28141(13)
N2 N -0.7786(2) 0.15193(11) -0.10333(13)
N3 N -0.5098(2) 0.28592(10) -0.23368(13)
O1 O -0.17146(18) 0.17355(8) -0.40783(10)
O2 O -0.14017(18) 0.29701(8) -0.33110(10)
O3 O -0.35079(16) 0.38194(8) -0.41761(10)
O4 O -0.61276(17) 0.33544(8) -0.42752(10)
O5 O -0.67088(17) 0.22101(8) -0.51273(10)
O6 O -0.45036(17) 0.14803(8) -0.53943(10)
O7 O -0.46645(19) 0.17610(8) -0.32524(10)
O8 O -0.3986(2) 0.29043(9) -0.25142(12)
O9 O -0.5761(2) 0.33158(9) -0.21907(13)
O10 O -0.8135(2) 0.20016(9) -0.07392(12)
O11 O -0.8186(2) 0.09880(9) -0.09097(12)
O12 O -0.5036(2) 0.00597(9) -0.23744(12)
O13 O -0.5489(2) 0.05134(9) -0.35349(11)
C1 C -0.1063(3) 0.14872(12) -0.32870(15)
C2 C -0.1100(3) 0.19587(12) -0.26342(15)
H1 H -0.2084 0.2013 -0.2623
H2 H -0.0599 0.1770 -0.2113
C3 C -0.0496(3) 0.26079(12) -0.26877(16)
H3 H -0.0367 0.2829 -0.2168
H4 H 0.0428 0.2566 -0.2800
C4 C -0.1319(3) 0.36275(12) -0.31477(15)
H5 H -0.0332 0.3761 -0.2983
H6 H -0.1748 0.3723 -0.2703
C5 C -0.2076(2) 0.39813(12) -0.38932(15)
H7 H -0.2002 0.4441 -0.3780
H8 H -0.1608 0.3896 -0.4324
C6 C -0.4394(3) 0.41280(11) -0.37681(14)
H9 H -0.4173 0.4585 -0.3719
H10 H -0.4244 0.3950 -0.3221
C7 C -0.5903(3) 0.40355(11) -0.42354(14)
C8 C -0.7539(3) 0.31797(12) -0.46973(15)
C9 C -0.7583(3) 0.24696(12) -0.46730(16)
H11 H -0.7267 0.2322 -0.4110
H12 H -0.8552 0.2323 -0.4896
C10 C -0.6757(3) 0.15396(12) -0.51428(16)
H13 H -0.7735 0.1396 -0.5335
H14 H -0.6369 0.1370 -0.4595
C11 C -0.5927(3) 0.12999(12) -0.56896(16)
H15 H -0.5996 0.0833 -0.5725
H16 H -0.6307 0.1476 -0.6235
C12 C -0.3642(3) 0.11533(13) -0.58029(15)
H17 H -0.3901 0.1275 -0.6377
H18 H -0.3780 0.0692 -0.5767
C13 C -0.2134(3) 0.13140(12) -0.54325(15)
H19 H -0.2003 0.1770 -0.5520
H20 H -0.1558 0.1078 -0.5724
C14 C -0.1582(3) 0.11758(12) -0.45425(15)
C15 C 0.0356(3) 0.12435(12) -0.33648(15)
H21 H 0.1184 0.1525 -0.3177
C16 C 0.0497(3) 0.05426(12) -0.30809(18)
H22 H 0.1415 0.0405 -0.2725
C17 C -0.0807(3) 0.03677(13) -0.28249(17)
H23 H -0.0679 0.0339 -0.2231
C18 C -0.1857(3) 0.08704(12) -0.32515(15)
H24 H -0.2681 0.0920 -0.3026
C19 C -0.0016(3) 0.10179(12) -0.42536(16)
H25 H 0.0593 0.1169 -0.4595
C20 C 0.0117(3) 0.03150(13) -0.39951(17)
H26 H 0.0813 0.0048 -0.4172
C21 C -0.1346(3) 0.00463(12) -0.40974(16)
H27 H -0.1662 -0.0250 -0.4560
C22 C -0.2230(3) 0.06454(12) -0.41479(14)
H28 H -0.3248 0.0580 -0.4392
C23 C -0.1306(3) -0.02363(14) -0.32838(17)
H29 H -0.0629 -0.0588 -0.3134
H30 H -0.2235 -0.0372 -0.3238
C24 C -0.6215(3) 0.43072(12) -0.50848(14)
H31 H -0.6084 0.4772 -0.5060
H32 H -0.5565 0.4124 -0.5373
C25 C -0.7714(3) 0.41512(12) -0.55338(15)
H33 H -0.7922 0.4323 -0.6093
C26 C -0.8710(3) 0.44436(13) -0.50866(16)
H34 H -0.9685 0.4344 -0.5374
H35 H -0.8603 0.4909 -0.5070
C27 C -0.8388(3) 0.41803(12) -0.42285(16)
H36 H -0.9037 0.4370 -0.3937
C28 C -0.6873(3) 0.43347(12) -0.37843(16)
H37 H -0.6738 0.4799 -0.3756
H38 H -0.6660 0.4166 -0.3230
C29 C -0.7874(3) 0.34329(12) -0.55568(15)
H39 H -0.7232 0.3243 -0.5845
H40 H -0.8839 0.3318 -0.5846
C30 C -0.8543(3) 0.34601(12) -0.42523(17)
H41 H -0.8331 0.3289 -0.3699
H42 H -0.9513 0.3344 -0.4531
C31 C -0.5275(3) 0.17082(12) -0.27171(14)
C32 C -0.5716(2) 0.11062(12) -0.24501(14)
C33 C -0.6450(3) 0.10417(11) -0.18880(14)
H43 H -0.6666 0.0633 -0.1725
C34 C -0.6882(3) 0.15791(12) -0.15558(14)
C35 C -0.6464(3) 0.21720(12) -0.17385(14)
H44 H -0.6745 0.2538 -0.1503
C36 C -0.5646(3) 0.22285(11) -0.22591(14)
O10A O -0.3135(2) 0.29984(9) -0.57392(12)
K1A K -0.89297(5) 0.24659(3) 0.06597(3)
loop_
_geom_bond_atom_site_label_1
_geom_bond_atom_site_label_2
_geom_bond_site_symmetry_1
_geom_bond_site_symmetry_2
K1 O1 1_555 1_555
N1 O12 1_555 1_555
N2 O10 1_555 1_555
N3 O8 1_555 1_555
O1 C1 1_555 1_555
O2 K1 1_555 1_555
O3 K1 1_555 1_555
O4 K1 1_555 1_555
O5 K1 1_555 1_555
O6 K1 1_555 1_555
O7 K1 1_555 1_555
O9 N3 1_555 1_555
O10 K1A 1_555 1_555
O11 N2 1_555 1_555
O13 N1 1_555 1_555
C1 C2 1_555 1_555
C2 H1 1_555 1_555
H2 C2 1_555 1_555
C3 O2 1_555 1_555
H3 C3 1_555 1_555
H4 C3 1_555 1_555
C4 O2 1_555 1_555
H5 C4 1_555 1_555
H6 C4 1_555 1_555
C5 O3 1_555 1_555
H7 C5 1_555 1_555
H8 C5 1_555 1_555
C6 O3 1_555 1_555
H9 C6 1_555 1_555
H10 C6 1_555 1_555
C7 O4 1_555 1_555
C8 O4 1_555 1_555
C9 O5 1_555 1_555
H11 C9 1_555 1_555
H12 C9 1_555 1_555
C10 O5 1_555 1_555
H13 C10 1_555 1_555
H14 C10 1_555 1_555
C11 O6 1_555 1_555
H15 C11 1_555 1_555
H16 C11 1_555 1_555
C12 O6 1_555 1_555
H17 C12 1_555 1_555
H18 C12 1_555 1_555
C13 C12 1_555 1_555
H19 C13 1_555 1_555
H20 C13 1_555 1_555
C14 O1 1_555 1_555
C15 C1 1_555 1_555
H21 C15 1_555 1_555
C16 C15 1_555 1_555
H22 C16 1_555 1_555
C17 C16 1_555 1_555
H23 C17 1_555 1_555
C18 C1 1_555 1_555
H24 C18 1_555 1_555
C19 C14 1_555 1_555
H25 C19 1_555 1_555
C20 C16 1_555 1_555
H26 C20 1_555 1_555
C21 C20 1_555 1_555
H27 C21 1_555 1_555
C22 C14 1_555 1_555
H28 C22 1_555 1_555
C23 C17 1_555 1_555
H29 C23 1_555 1_555
H30 C23 1_555 1_555
C24 C7 1_555 1_555
H31 C24 1_555 1_555
H32 C24 1_555 1_555
C25 C24 1_555 1_555
H33 C25 1_555 1_555
C26 C25 1_555 1_555
H34 C26 1_555 1_555
H35 C26 1_555 1_555
C27 C26 1_555 1_555
H36 C27 1_555 1_555
C28 C7 1_555 1_555
H37 C28 1_555 1_555
H38 C28 1_555 1_555
C29 C8 1_555 1_555
H39 C29 1_555 1_555
H40 C29 1_555 1_555
C30 C8 1_555 1_555
H41 C30 1_555 1_555
H42 C30 1_555 1_555
C31 O7 1_555 1_555
C32 N1 1_555 1_555
C33 C32 1_555 1_555
H43 C33 1_555 1_555
C34 N2 1_555 1_555
C35 C34 1_555 1_555
H44 C35 1_555 1_555
C36 N3 1_555 1_555
O10A K1 1_555 1_555
C2 C3 1_555 1_555
C4 C5 1_555 1_555
C6 C7 1_555 1_555
C8 C9 1_555 1_555
C10 C11 1_555 1_555
C13 C14 1_555 1_555
C15 C19 1_555 1_555
C17 C18 1_555 1_555
C18 C22 1_555 1_555
C19 C20 1_555 1_555
C21 C22 1_555 1_555
C21 C23 1_555 1_555
C25 C29 1_555 1_555
C27 C28 1_555 1_555
C27 C30 1_555 1_555
C31 C32 1_555 1_555
C31 C36 1_555 1_555
C33 C34 1_555 1_555
C35 C36 1_555 1_555

#END
