
#######################################################################
#
#                 Cambridge Crystallographic Data Centre
#                                CCDC 
#
#######################################################################
#
# If this CIF has been generated from an entry in the Cambridge 
# Structural Database, then it will include bibliographic, chemical, 
# crystal, experimental, refinement or atomic coordinate data resulting 
# from the CCDC's data processing and validation procedures.
#
#######################################################################

data_EJISUM
_symmetry_cell_setting           monoclinic
_symmetry_space_group_name_H-M   'C 2/c'
_symmetry_Int_Tables_number      15
_space_group_name_Hall           '-C 2yn'
loop_
_symmetry_equiv_pos_site_id
_symmetry_equiv_pos_as_xyz
1 x,y,z
2 -x,y,1/2-z
3 1/2+x,1/2+y,z
4 1/2-x,1/2+y,1/2-z
5 -x,-y,-z
6 x,-y,1/2+z
7 1/2-x,1/2-y,-z
8 1/2+x,1/2-y,1/2+z
_cell_length_a                   30.671(12)
_cell_length_b                   7.551(3)
_cell_length_c                   24.101(10)
_cell_angle_alpha                90
_cell_angle_beta                 122.271(4)
_cell_angle_gamma                90
_cell_volume                     4719.52
loop_
_atom_site_label
_atom_site_type_symbol
_atom_site_fract_x
_atom_site_fract_y
_atom_site_fract_z
Cd1 Cd 0.136918(11) 1.02310(4) 0.236436(14)
S1 S 0.16308(4) 0.76228(18) 0.14314(5)
O1 O -0.13418(10) 1.2677(5) 0.10282(14)
O2 O 0.01281(11) 0.5804(4) 0.38629(14)
O3 O 0.14743(13) 1.2815(5) 0.29480(16)
O4 O 0.22480(11) 0.9841(5) 0.29398(15)
O5 O 0.14728(18) 1.2070(5) 0.1669(2)
O6 O 0.13421(10) 0.7854(4) 0.17599(14)
O7 O 0.21842(10) 0.7792(5) 0.19280(14)
O8 O 0.15209(12) 0.5892(5) 0.11298(16)
O9 O 0.14792(14) 0.9037(5) 0.09486(15)
N1 N 0.04872(12) 1.0560(5) 0.16687(16)
N2 N -0.10892(12) 1.1380(5) 0.03868(15)
H1 H -0.1204 1.1023 -0.0007
N3 N -0.19190(13) 1.2278(6) -0.00517(17)
H2 H -0.1972 1.1821 -0.0409
N4 N 0.12653(12) 0.8524(5) 0.30821(15)
N5 N 0.09931(11) 0.6369(5) 0.44709(15)
H3 H 0.1260 0.6361 0.4864
N6 N 0.05844(13) 0.5123(5) 0.49380(17)
H4 H 0.0879 0.5196 0.5301
C1 C 0.02268(15) 0.9964(6) 0.1053(2)
H5 H 0.0407 0.9343 0.0904
C2 C -0.02878(15) 1.0214(6) 0.06301(19)
H6 H -0.0448 0.9779 0.0204
C3 C -0.05755(14) 1.1115(6) 0.08306(18)
C4 C -0.03074(15) 1.1730(7) 0.14725(19)
H7 H -0.0478 1.2340 0.1637
C5 C -0.14460(15) 1.2156(6) 0.0495(2)
C6 C -0.23451(16) 1.3160(8) -0.0060(3)
H8 H -0.2566 1.3729 -0.0481
H9 H -0.2211 1.4067 0.0277
C7 C 0.08090(15) 0.7784(7) 0.2899(2)
H10 H 0.0554 0.7786 0.2455
C8 C 0.06940(15) 0.7031(6) 0.33208(19)
H11 H 0.0370 0.6542 0.3163
C9 C 0.10642(14) 0.7001(6) 0.39860(19)
C10 C 0.15474(14) 0.7701(6) 0.41803(19)
H12 H 0.1813 0.7678 0.4620
C11 C 0.16270(15) 0.8426(6) 0.3716(2)
H13 H 0.1953 0.8870 0.3855
C12 C 0.05346(15) 0.5745(6) 0.4389(2)
C13 C 0.01526(16) 0.4322(6) 0.4939(2)
H14 H 0.0282 0.3420 0.5277
H15 H -0.0074 0.3751 0.4520
C14 C 0.02109(16) 1.1427(7) 0.1859(2)
H16 H 0.0383 1.1858 0.2286
H17 H 0.130(2) 1.347(8) 0.270(3)
H18 H 0.237(2) 1.084(8) 0.292(2)
H19 H 0.1521(19) 1.169(8) 0.137(2)
H22 H 0.1418(18) 1.275(7) 0.329(2)
H23 H 0.2275(19) 0.918(7) 0.265(3)
H24 H 0.132(2) 1.289(8) 0.156(3)
Cd1F Cd -0.636918(11) 1.47690(4) -0.236436(14)
Cd1D Cd -0.136918(11) -0.02310(4) 0.763564(14)
S1F S -0.66308(4) 1.73772(18) -0.14314(5)
O1F O -0.36582(10) 1.2323(5) -0.10282(14)
O2D O -0.01281(11) 0.4196(4) 0.61371(14)
O3F O -0.64743(13) 1.2185(5) -0.29480(16)
O4F O -0.72480(11) 1.5159(5) -0.29398(15)
O5F O -0.64728(18) 1.2930(5) -0.1669(2)
O6F O -0.63421(10) 1.7146(4) -0.17599(14)
O7F O -0.71842(10) 1.7208(5) -0.19280(14)
O8F O -0.65209(12) 1.9108(5) -0.11298(16)
O9F O -0.64792(14) 1.5963(5) -0.09486(15)
N1F N -0.54872(12) 1.4440(5) -0.16687(16)
N2F N -0.39108(12) 1.3620(5) -0.03868(15)
H1F H -0.3796 1.3977 0.0007
N3F N -0.30810(13) 1.2722(6) 0.00517(17)
H2F H -0.3028 1.3179 0.0409
N4D N -0.12653(12) 0.1476(5) 0.69179(15)
N4F N -0.62653(12) 1.6476(5) -0.30821(15)
N5D N -0.09931(11) 0.3631(5) 0.55291(15)
H3D H -0.1260 0.3639 0.5136
N6D N -0.05844(13) 0.4877(5) 0.50620(17)
H4D H -0.0879 0.4804 0.4699
C1F C -0.52268(15) 1.5036(6) -0.1053(2)
H5F H -0.5407 1.5657 -0.0904
C2F C -0.47122(15) 1.4786(6) -0.06301(19)
H6F H -0.4552 1.5221 -0.0204
C3F C -0.44245(14) 1.3885(6) -0.08306(18)
C4F C -0.46926(15) 1.3270(7) -0.14725(19)
H7F H -0.4522 1.2660 -0.1637
C5F C -0.35540(15) 1.2844(6) -0.0495(2)
C6F C -0.26549(16) 1.1840(8) 0.0060(3)
H8F H -0.2434 1.1271 0.0481
H9F H -0.2789 1.0933 -0.0277
C7D C -0.08090(15) 0.2216(7) 0.7101(2)
H10D H -0.0554 0.2214 0.7545
C8D C -0.06940(15) 0.2969(6) 0.66792(19)
H11D H -0.0370 0.3458 0.6837
C9D C -0.10642(14) 0.2999(6) 0.60140(19)
C10D C -0.15474(14) 0.2299(6) 0.58197(19)
H12D H -0.1813 0.2322 0.5380
C11D C -0.16270(15) 0.1574(6) 0.6284(2)
H13D H -0.1953 0.1130 0.6145
C12D C -0.05346(15) 0.4255(6) 0.5611(2)
C13D C -0.01526(16) 0.5678(6) 0.5061(2)
H14D H -0.0282 0.6580 0.4723
H15D H 0.0074 0.6249 0.5480
C14F C -0.52109(16) 1.3573(7) -0.1859(2)
H16F H -0.5383 1.3142 -0.2286
H17F H -0.630(2) 1.153(8) -0.270(3)
H18F H -0.737(2) 1.416(8) -0.292(2)
H19F H -0.6521(19) 1.331(8) -0.137(2)
H22F H -0.6418(18) 1.225(7) -0.329(2)
H23F H -0.7275(19) 1.582(7) -0.265(3)
H24F H -0.632(2) 1.211(8) -0.156(3)
O10 O 0.09031(14) 0.4865(5) 0.1880(2)
H25 H 0.0577(9) 0.507(7) 0.161(2)
H28 H 0.1036(19) 0.598(7) 0.180(2)
O11 O 0.19308(18) 0.6902(8) 0.5730(2)
H20 H 0.212(2) 0.760(8) 0.587(3)
H26 H 0.201(2) 0.622(9) 0.597(3)
O12 O 0.25659(18) 0.9835(9) 0.6366(3)
H21 H 0.2729(17) 0.945(8) 0.6811(14)
H27 H 0.2848(13) 1.028(7) 0.642(2)
loop_
_geom_bond_atom_site_label_1
_geom_bond_atom_site_label_2
_geom_bond_site_symmetry_1
_geom_bond_site_symmetry_2
Cd1 O3 1_555 1_555
S1 O6 1_555 1_555
O1 C5 1_555 1_555
O2 C12 1_555 1_555
O3 H17 1_555 1_555
O4 Cd1 1_555 1_555
O5 Cd1 1_555 1_555
O6 Cd1 1_555 1_555
O7 S1 1_555 1_555
O8 S1 1_555 1_555
O9 S1 1_555 1_555
O10 H25 1_555 1_555
O11 H20 1_555 1_555
O12 H21 1_555 1_555
N1 Cd1 1_555 1_555
N2 H1 1_555 1_555
N3 H2 1_555 1_555
N4 Cd1 1_555 1_555
N5 H3 1_555 1_555
N6 H4 1_555 1_555
C1 N1 1_555 1_555
H5 C1 1_555 1_555
C2 C1 1_555 1_555
H6 C2 1_555 1_555
C3 N2 1_555 1_555
C4 C3 1_555 1_555
H7 C4 1_555 1_555
C5 N2 1_555 1_555
C6 N3 1_555 1_555
H8 C6 1_555 1_555
H9 C6 1_555 1_555
C7 N4 1_555 1_555
H10 C7 1_555 1_555
C8 C7 1_555 1_555
H11 C8 1_555 1_555
C9 N5 1_555 1_555
C10 C9 1_555 1_555
H12 C10 1_555 1_555
C11 N4 1_555 1_555
H13 C11 1_555 1_555
C12 N5 1_555 1_555
C13 N6 1_555 1_555
H14 C13 1_555 1_555
H15 C13 1_555 1_555
C14 N1 1_555 1_555
H16 C14 1_555 1_555
H18 O4 1_555 1_555
H19 O5 1_555 1_555
H22 O3 1_555 1_555
H23 O4 1_555 1_555
H24 O5 1_555 1_555
H26 O11 1_555 1_555
H27 O12 1_555 1_555
H28 O10 1_555 1_555
Cd1F O3F 1_555 1_555
Cd1D N4D 1_555 1_555
S1F O6F 1_555 1_555
O1F C5F 1_555 1_555
O2D C12D 1_555 1_555
O3F H17F 1_555 1_555
O4F Cd1F 1_555 1_555
O5F Cd1F 1_555 1_555
O6F Cd1F 1_555 1_555
O7F S1F 1_555 1_555
O8F S1F 1_555 1_555
O9F S1F 1_555 1_555
N1F Cd1F 1_555 1_555
N2F H1F 1_555 1_555
N3F H2F 1_555 1_555
N4D C7D 1_555 1_555
N4F Cd1F 1_555 1_555
N5D H3D 1_555 1_555
N6D H4D 1_555 1_555
C1F N1F 1_555 1_555
H5F C1F 1_555 1_555
C2F C1F 1_555 1_555
H6F C2F 1_555 1_555
C3F N2F 1_555 1_555
C4F C3F 1_555 1_555
H7F C4F 1_555 1_555
C5F N2F 1_555 1_555
C6F C6 1_555 1_555
H8F C6F 1_555 1_555
H9F C6F 1_555 1_555
C7D H10D 1_555 1_555
C8D C7D 1_555 1_555
H11D C8D 1_555 1_555
C9D N5D 1_555 1_555
C10D C9D 1_555 1_555
H12D C10D 1_555 1_555
C11D N4D 1_555 1_555
H13D C11D 1_555 1_555
C12D N5D 1_555 1_555
C13D C13 1_555 1_555
H14D C13D 1_555 1_555
H15D C13D 1_555 1_555
C14F N1F 1_555 1_555
H16F C14F 1_555 1_555
H18F O4F 1_555 1_555
H19F O5F 1_555 1_555
H22F O3F 1_555 1_555
H23F O4F 1_555 1_555
H24F O5F 1_555 1_555
N3 C5 1_555 1_555
N6 C12 1_555 1_555
C2 C3 1_555 1_555
C4 C14 1_555 1_555
C8 C9 1_555 1_555
C10 C11 1_555 1_555
N3F C5F 1_555 1_555
N3F C6F 1_555 1_555
N6D C12D 1_555 1_555
N6D C13D 1_555 1_555
C2F C3F 1_555 1_555
C4F C14F 1_555 1_555
C8D C9D 1_555 1_555
C10D C11D 1_555 1_555

#END
