
#######################################################################
#
#                 Cambridge Crystallographic Data Centre
#                                CCDC 
#
#######################################################################
#
# If this CIF has been generated from an entry in the Cambridge 
# Structural Database, then it will include bibliographic, chemical, 
# crystal, experimental, refinement or atomic coordinate data resulting 
# from the CCDC's data processing and validation procedures.
#
#######################################################################

data_EJOCAI
_symmetry_cell_setting           monoclinic
_symmetry_space_group_name_H-M   'C 2/c'
_symmetry_Int_Tables_number      15
_space_group_name_Hall           '-C 2yn'
loop_
_symmetry_equiv_pos_site_id
_symmetry_equiv_pos_as_xyz
1 x,y,z
2 -x,y,1/2-z
3 1/2+x,1/2+y,z
4 1/2-x,1/2+y,1/2-z
5 -x,-y,-z
6 x,-y,1/2+z
7 1/2-x,1/2-y,-z
8 1/2+x,1/2-y,1/2+z
_cell_length_a                   12.8694(2)
_cell_length_b                   15.0670(3)
_cell_length_c                   22.1339(4)
_cell_angle_alpha                90
_cell_angle_beta                 91.4690(10)
_cell_angle_gamma                90
_cell_volume                     4290.42
loop_
_atom_site_label
_atom_site_type_symbol
_atom_site_fract_x
_atom_site_fract_y
_atom_site_fract_z
Ba1 Ba 0.0000 0.205826(9) 0.2500
Ba2 Ba 0.5000 0.013491(10) 0.2500
Co1 Co 0.216722(17) 0.063684(15) 0.329241(10)
N1 N 0.23385(11) 0.09951(10) 0.42679(7)
N2 N 0.17985(11) -0.06708(10) 0.37357(7)
O1 O 0.16854(11) 0.20391(9) 0.33741(6)
O2 O 0.37812(10) 0.09540(10) 0.33877(6)
O3 O 0.05118(10) 0.05496(8) 0.32220(6)
O4 O 0.28974(11) -0.03471(9) 0.27562(6)
O5 O -0.08324(11) -0.03780(10) 0.31679(8)
O6 O 0.38410(13) -0.15702(11) 0.28202(8)
O7 O 0.49933(13) 0.16061(16) 0.39740(8)
O8 O 0.0483(2) 0.27125(16) 0.39024(11)
C1 C 0.16311(14) -0.05227(13) 0.43930(8)
H1 H 0.0933 -0.0271 0.4430
C2 C 0.1670(2) -0.13779(16) 0.47758(12)
H2 H 0.1125 -0.1778 0.4635
H3 H 0.2332 -0.1671 0.4723
C3 C 0.1530(2) -0.1182(2) 0.54456(12)
H4 H 0.0842 -0.0939 0.5504
H5 H 0.1589 -0.1729 0.5675
C4 C 0.2340(2) -0.0528(2) 0.56763(10)
H6 H 0.3028 -0.0779 0.5635
H7 H 0.2237 -0.0410 0.6101
C5 C 0.22550(19) 0.03312(17) 0.53203(9)
H8 H 0.2780 0.0745 0.5469
H9 H 0.1579 0.0596 0.5381
C6 C 0.24006(14) 0.01690(13) 0.46381(8)
H10 H 0.3100 -0.0076 0.4593
C7 C 0.14202(15) 0.15471(13) 0.43818(9)
H11 H 0.1544 0.1897 0.4745
H12 H 0.0825 0.1168 0.4447
C8 C 0.11864(16) 0.21600(13) 0.38535(9)
C9 C 0.32908(15) 0.15363(14) 0.43373(9)
H13 H 0.3601 0.1429 0.4735
H14 H 0.3103 0.2159 0.4315
C10 C 0.40884(15) 0.13428(13) 0.38648(9)
C11 C 0.08293(14) -0.09794(12) 0.34255(9)
H15 H 0.0474 -0.1392 0.3686
H16 H 0.1004 -0.1293 0.3059
C12 C 0.01041(13) -0.02135(11) 0.32658(8)
C13 C 0.26644(15) -0.12837(12) 0.36095(10)
H17 H 0.2406 -0.1888 0.3598
H18 H 0.3186 -0.1243 0.3932
C14 C 0.31561(13) -0.10667(12) 0.30133(9)
O10 O 0.61605(13) 0.15843(11) 0.29654(8)
H21 H 0.610(3) 0.2056(13) 0.2757(13)
H22 H 0.582(2) 0.175(2) 0.3271(10)
O11 O -0.18436(11) 0.10810(10) 0.26956(7)
H23 H -0.2409(15) 0.120(2) 0.2866(14)
H24 H -0.163(2) 0.0611(13) 0.2869(13)
O12 O 0.5568(3) -0.05156(18) 0.36082(14)
H25 H 0.6127(18) -0.066(2) 0.3409(15)
H26 H 0.578(3) -0.0054(14) 0.3798(14)
Ba1B Ba 0.5000 -0.294174(9) 0.2500
Ba1B_2 Ba -0.5000 -0.294174(9) 0.2500
Ba2_2 Ba -0.5000 0.013491(10) 0.2500
Co1A Co -0.216722(17) 0.063684(15) 0.170759(10)
N1A N -0.23385(11) 0.09951(10) 0.07321(7)
N2A N -0.17985(11) -0.06708(10) 0.12643(7)
O1A O -0.16854(11) 0.20391(9) 0.16259(6)
O2A O -0.37812(10) 0.09540(10) 0.16123(6)
O2A_2 O 0.62188(10) 0.09540(10) 0.16123(6)
O3A O -0.05118(10) 0.05496(8) 0.17780(6)
O4A O -0.28974(11) -0.03471(9) 0.22438(6)
O4A_2 O 0.71026(11) -0.03471(9) 0.22438(6)
O5A O 0.08324(11) -0.03780(10) 0.18321(8)
O6A O -0.38410(13) -0.15702(11) 0.21798(8)
O6B O -0.11590(13) 0.34298(11) 0.28202(8)
O6C O 0.11590(13) 0.34298(11) 0.21798(8)
O7A O -0.49933(13) 0.16061(16) 0.10260(8)
O8A O -0.0483(2) 0.27125(16) 0.10976(11)
C1A C -0.16311(14) -0.05227(13) 0.06070(8)
H1A H -0.0933 -0.0271 0.0570
C2A C -0.1670(2) -0.13779(16) 0.02242(12)
H2A H -0.1125 -0.1778 0.0365
H3A H -0.2332 -0.1671 0.0277
C3A C -0.1530(2) -0.1182(2) -0.04456(12)
H4A H -0.0842 -0.0939 -0.0504
H5A H -0.1589 -0.1729 -0.0675
C4A C -0.2340(2) -0.0528(2) -0.06763(10)
H6A H -0.3028 -0.0779 -0.0635
H7A H -0.2237 -0.0410 -0.1101
C5A C -0.22550(19) 0.03312(17) -0.03203(9)
H8A H -0.2780 0.0745 -0.0469
H9A H -0.1579 0.0596 -0.0381
C6A C -0.24006(14) 0.01690(13) 0.03619(8)
H10A H -0.3100 -0.0076 0.0407
C7A C -0.14202(15) 0.15471(13) 0.06182(9)
H11A H -0.1544 0.1897 0.0255
H12A H -0.0825 0.1168 0.0553
C8A C -0.11864(16) 0.21600(13) 0.11465(9)
C9A C -0.32908(15) 0.15363(14) 0.06627(9)
H13A H -0.3601 0.1429 0.0265
H14A H -0.3103 0.2159 0.0685
C10A C -0.40884(15) 0.13428(13) 0.11352(9)
C11A C -0.08293(14) -0.09794(12) 0.15745(9)
H15A H -0.0474 -0.1392 0.1314
H16A H -0.1004 -0.1293 0.1941
C12A C -0.01041(13) -0.02135(11) 0.17342(8)
C13A C -0.26644(15) -0.12837(12) 0.13905(10)
H17A H -0.2406 -0.1888 0.1402
H18A H -0.3186 -0.1243 0.1068
C14A C -0.31561(13) -0.10667(12) 0.19867(9)
O10A O 0.38395(13) 0.15843(11) 0.20346(8)
H21A H 0.390(3) 0.2056(13) 0.2243(13)
H22A H 0.418(2) 0.175(2) 0.1729(10)
O11A O 0.18436(11) 0.10810(10) 0.23044(7)
H23A H 0.2409(15) 0.120(2) 0.2134(14)
H24A H 0.163(2) 0.0611(13) 0.2131(13)
O12A O 0.4432(3) -0.05156(18) 0.13918(14)
H25A H 0.3873(18) -0.066(2) 0.1591(15)
H26A H 0.422(3) -0.0054(14) 0.1202(14)
O9 O 0.14917(18) 0.20856(12) 0.71173(11)
H19 H 0.130(3) 0.1594(13) 0.6968(15)
H20 H 0.2054(15) 0.231(2) 0.6998(14)
O13 O -0.0648(5) 0.3444(4) 0.4824(3)
H27 H -0.118(3) 0.310(3) 0.485(3)
H28 H -0.027(5) 0.348(3) 0.5107(18)
H29? H -0.021(3) 0.318(3) 0.459(2)
H30? H 0.0000 0.4221(10) 0.481(3)
O14? O -0.0459(5) 0.3762(4) 0.4774(3)
loop_
_geom_bond_atom_site_label_1
_geom_bond_atom_site_label_2
_geom_bond_site_symmetry_1
_geom_bond_site_symmetry_2
Ba1 O1 1_555 1_555
Ba2 O2 1_555 1_555
Co1 N1 1_555 1_555
N1 C6 1_555 1_555
N2 Co1 1_555 1_555
O1 Co1 1_555 1_555
O2 Co1 1_555 1_555
O3 Ba1 1_555 1_555
O4 Ba2 1_555 1_555
O5 C12 1_555 1_555
O6 C14 1_555 1_555
O7 C10 1_555 1_555
O8 C8 1_555 1_555
C1 N2 1_555 1_555
H1 C1 1_555 1_555
C2 C1 1_555 1_555
H2 C2 1_555 1_555
H3 C2 1_555 1_555
C3 C2 1_555 1_555
H4 C3 1_555 1_555
H5 C3 1_555 1_555
C4 C3 1_555 1_555
H6 C4 1_555 1_555
H7 C4 1_555 1_555
C5 C4 1_555 1_555
H8 C5 1_555 1_555
H9 C5 1_555 1_555
C6 C1 1_555 1_555
H10 C6 1_555 1_555
C7 N1 1_555 1_555
H11 C7 1_555 1_555
H12 C7 1_555 1_555
C8 O1 1_555 1_555
C9 N1 1_555 1_555
H13 C9 1_555 1_555
H14 C9 1_555 1_555
C10 O2 1_555 1_555
C11 N2 1_555 1_555
H15 C11 1_555 1_555
H16 C11 1_555 1_555
C12 O3 1_555 1_555
C13 N2 1_555 1_555
H17 C13 1_555 1_555
H18 C13 1_555 1_555
C14 O4 1_555 1_555
O9 H19 1_555 1_555
H20 O9 1_555 1_555
O10 Ba2 1_555 1_555
H21 O10 1_555 1_555
H22 O10 1_555 1_555
O11 Ba1 1_555 1_555
H23 O11 1_555 1_555
H24 O11 1_555 1_555
O12 Ba2 1_555 1_555
H25 O12 1_555 1_555
H26 O12 1_555 1_555
O13 H27 1_555 1_555
H28 O13 1_555 1_555
Ba1B O6 1_555 1_555
Ba1B_2 O6A 1_555 1_555
Ba2_2 O2A 1_555 1_555
Co1A O11 1_555 1_555
N1A Co1A 1_555 1_555
N2A Co1A 1_555 1_555
O1A Ba1 1_555 1_555
O2A Co1A 1_555 1_555
O2A_2 Ba2 1_555 1_555
O3A Ba1 1_555 1_555
O4A Ba2_2 1_555 1_555
O4A_2 Ba2 1_555 1_555
O5A C12A 1_555 1_555
O6A C14A 1_555 1_555
O6B Ba1 1_555 1_555
O6C Ba1 1_555 1_555
O7A C10A 1_555 1_555
O8A C8A 1_555 1_555
C1A N2A 1_555 1_555
H1A C1A 1_555 1_555
C2A C1A 1_555 1_555
H2A C2A 1_555 1_555
H3A C2A 1_555 1_555
C3A C2A 1_555 1_555
H4A C3A 1_555 1_555
H5A C3A 1_555 1_555
C4A C3A 1_555 1_555
H6A C4A 1_555 1_555
H7A C4A 1_555 1_555
C5A C4A 1_555 1_555
H8A C5A 1_555 1_555
H9A C5A 1_555 1_555
C6A N1A 1_555 1_555
H10A C6A 1_555 1_555
C7A N1A 1_555 1_555
H11A C7A 1_555 1_555
H12A C7A 1_555 1_555
C8A O1A 1_555 1_555
C9A N1A 1_555 1_555
H13A C9A 1_555 1_555
H14A C9A 1_555 1_555
C10A O2A 1_555 1_555
C11A N2A 1_555 1_555
H15A C11A 1_555 1_555
H16A C11A 1_555 1_555
C12A O3A 1_555 1_555
C13A N2A 1_555 1_555
H17A C13A 1_555 1_555
H18A C13A 1_555 1_555
C14A O4A 1_555 1_555
O10A Ba2 1_555 1_555
H21A O10A 1_555 1_555
H22A O10A 1_555 1_555
O11A Ba1 1_555 1_555
H23A O11A 1_555 1_555
H24A O11A 1_555 1_555
O12A Ba2 1_555 1_555
H25A O12A 1_555 1_555
H26A O12A 1_555 1_555
Co1 O3 1_555 1_555
Co1 O4 1_555 1_555
Co1 O11A 1_555 1_555
C5 C6 1_555 1_555
C7 C8 1_555 1_555
C9 C10 1_555 1_555
C11 C12 1_555 1_555
C13 C14 1_555 1_555
Co1A O1A 1_555 1_555
Co1A O3A 1_555 1_555
Co1A O4A 1_555 1_555
C1A C6A 1_555 1_555
C5A C6A 1_555 1_555
C7A C8A 1_555 1_555
C9A C10A 1_555 1_555
C11A C12A 1_555 1_555
C13A C14A 1_555 1_555

#END
