
#######################################################################
#
#                 Cambridge Crystallographic Data Centre
#                                CCDC 
#
#######################################################################
#
# If this CIF has been generated from an entry in the Cambridge 
# Structural Database, then it will include bibliographic, chemical, 
# crystal, experimental, refinement or atomic coordinate data resulting 
# from the CCDC's data processing and validation procedures.
#
#######################################################################

data_EJODUD
_symmetry_cell_setting           triclinic
_symmetry_space_group_name_H-M   'P -1'
_symmetry_Int_Tables_number      2
_space_group_name_Hall           '-P 1'
loop_
_symmetry_equiv_pos_site_id
_symmetry_equiv_pos_as_xyz
1 x,y,z
2 -x,-y,-z
_cell_length_a                   12.6013(3)
_cell_length_b                   12.6027(3)
_cell_length_c                   16.6810(7)
_cell_angle_alpha                98.0000(10)
_cell_angle_beta                 103.0790(10)
_cell_angle_gamma                110.1200
_cell_volume                     2353.73
loop_
_atom_site_label
_atom_site_type_symbol
_atom_site_fract_x
_atom_site_fract_y
_atom_site_fract_z
Gd1 Gd 0.692746(11) 0.679327(11) 0.659892(8)
Cu1 Cu 0.76008(3) -0.02060(3) 0.97430(2)
Cu2 Cu 1.06398(3) 0.74314(3) 0.50260(3)
S1 S 0.61734(9) 0.08307(8) 0.78712(8)
O1 O 0.81494(17) 0.86335(17) 0.76026(12)
O2 O 0.60800(18) 0.72337(18) 0.76902(13)
O3 O 0.80460(19) 0.78631(19) 0.57743(14)
O4 O 0.87481(18) 0.6488(2) 0.65988(14)
O5 O 0.6416(2) 0.48482(19) 0.69012(15)
O6 O 0.7843(2) 0.62359(18) 0.79240(13)
O7 O 0.9404(3) 0.5756(2) 0.8881(2)
H1 H 0.9118 0.6166 0.8647
O8 O 0.6236(3) 0.0494(3) 0.8680(2)
O9 O 0.5008(3) 0.0711(3) 0.7431(3)
O10 O 0.6712(3) 0.0273(2) 0.73497(18)
O11 O 0.65252(17) 0.55403(19) 0.52291(13)
O12 O 0.51420(18) 0.41664(19) 0.41383(13)
O13 O 0.6057(2) 0.8207(2) 0.61665(15)
H2 H 0.6354 0.8869 0.6512
H3 H 0.5318 0.7836 0.6070
N1 N 0.8434(2) 0.9837(2) 0.88896(15)
N2 N 0.6545(2) 0.8231(2) 0.90812(15)
N3 N 0.6592(3) 0.9874(3) 1.04560(17)
N4 N 0.8995(2) 1.0965(2) 1.06138(16)
N5 N 0.9245(2) 0.7772(2) 0.49218(17)
N6 N 1.0158(2) 0.6602(2) 0.58811(16)
N7 N 1.1751(3) 0.6747(3) 0.48758(19)
N8 N 1.1399(3) 0.8766(3) 0.45759(19)
C1 C 0.7858(2) 0.8912(2) 0.82469(17)
C2 C 0.6714(2) 0.8037(2) 0.83289(18)
C3 C 0.5640(3) 0.7437(3) 0.9312(2)
C4 C 0.5115(4) 0.6251(3) 0.8908(3)
H4 H 0.5342 0.5977 0.8455
C5 C 0.4264(5) 0.5485(4) 0.9175(3)
H5 H 0.3926 0.4701 0.8899
C6 C 0.3908(5) 0.5858(5) 0.9841(4)
H6 H 0.3326 0.5335 1.0010
C7 C 0.4418(4) 0.7002(4) 1.0250(3)
H7 H 0.4177 0.7255 1.0702
C8 C 0.5297(3) 0.7812(3) 1.0009(2)
C9 C 0.5731(3) 0.9010(3) 1.0493(2)
H8 H 0.5330 0.9156 1.0872
C10 C 0.6815(4) 1.1045(4) 1.0934(3)
H9 H 0.6213 1.0984 1.1220
H10 H 0.6742 1.1529 1.0539
C11 C 0.8024(4) 1.1635(4) 1.1587(2)
H11 H 0.8350 1.2445 1.1565
H12 H 0.7923 1.1617 1.2145
C12 C 0.8916(4) 1.1112(3) 1.1487(2)
H13 H 0.9686 1.1614 1.1875
H14 H 0.8687 1.0362 1.1630
C13 C 0.9982(3) 1.1515(3) 1.0493(2)
H15 H 1.0613 1.1957 1.0972
C14 C 1.0217(3) 1.1521(3) 0.9685(2)
C15 C 1.1263(3) 1.2421(3) 0.9703(3)
H16 H 1.1784 1.2893 1.0222
C16 C 1.1532(4) 1.2618(4) 0.8975(3)
H17 H 1.2231 1.3215 0.8997
C17 C 1.0750(4) 1.1920(3) 0.8204(3)
H18 H 1.0913 1.2070 0.7705
C18 C 0.9733(3) 1.1004(3) 0.8165(2)
H19 H 0.9223 1.0542 0.7640
C19 C 0.9458(3) 1.0760(2) 0.8900(2)
C20 C 0.8789(3) 0.7541(3) 0.55471(19)
C21 C 0.9258(3) 0.6809(3) 0.60625(18)
C22 C 1.0683(3) 0.5918(3) 0.6277(2)
C23 C 1.0389(3) 0.5461(3) 0.6947(2)
H20 H 0.9821 0.5619 0.7156
C24 C 1.0918(4) 0.4779(4) 0.7311(3)
H21 H 1.0699 0.4486 0.7757
C25 C 1.1763(4) 0.4527(4) 0.7022(3)
H22 H 1.2111 0.4060 0.7263
C26 C 1.2086(3) 0.4980(4) 0.6370(3)
H23 H 1.2665 0.4821 0.6177
C27 C 1.1569(3) 0.5673(3) 0.5988(2)
C28 C 1.2008(3) 0.6063(3) 0.5303(2)
H24 H 1.2545 0.5776 0.5158
C29 C 1.2308(4) 0.7032(4) 0.4203(3)
H25 H 1.1694 0.6838 0.3673
H26 H 1.2761 0.6558 0.4133
C30 C 1.3105(4) 0.8284(4) 0.4386(3)
H27 H 1.3233 0.8458 0.3859
H28 H 1.3864 0.8391 0.4760
C31 C 1.2696(4) 0.9160(4) 0.4780(3)
H29 H 1.3031 0.9347 0.5390
H30 H 1.2998 0.9869 0.4591
C32 C 1.0885(3) 0.9373(3) 0.4228(2)
H31 H 1.1360 1.0023 0.4086
C33 C 0.9634(3) 0.9146(3) 0.4032(2)
C34 C 0.9207(4) 0.9766(4) 0.3494(2)
H32 H 0.9736 1.0317 0.3304
C35 C 0.8039(4) 0.9582(4) 0.3243(3)
H33 H 0.7778 1.0009 0.2891
C36 C 0.7245(4) 0.8756(4) 0.3513(3)
H34 H 0.6442 0.8602 0.3321
C37 C 0.7635(3) 0.8156(4) 0.4069(2)
H35 H 0.7095 0.7614 0.4258
C38 C 0.8828(3) 0.8360(3) 0.4346(2)
C39 C 0.7230(3) 0.5157(3) 0.75764(19)
C40 C 0.7540(3) 0.4289(3) 0.79928(19)
C41 C 0.6783(3) 0.3115(3) 0.7745(2)
H36 H 0.6080 0.2868 0.7309
C42 C 0.7071(3) 0.2320(3) 0.8143(2)
C43 C 0.8126(4) 0.2700(4) 0.8786(3)
H37 H 0.8313 0.2167 0.9062
C44 C 0.8897(4) 0.3832(4) 0.9024(3)
H38 H 0.9608 0.4062 0.9449
C45 C 0.8617(3) 0.4644(3) 0.8631(2)
C46 C 0.5482(2) 0.4914(2) 0.48176(17)
Gd1A Gd 0.307254(11) 0.320673(11) 0.340108(8)
Gd1_2 Gd 0.692746(11) -0.320673(11) 0.659892(8)
Cu1_2 Cu 0.76008(3) 0.97940(3) 0.97430(2)
Cu1A Cu 0.23992(3) 1.02060(3) 0.02570(2)
Cu2A Cu -0.06398(3) 0.25686(3) 0.49740(3)
S1A S 0.38266(9) 0.91693(8) 0.21288(8)
O1_2 O 0.81494(17) -0.13665(17) 0.76026(12)
O1A O 0.18506(17) 0.13665(17) 0.23974(12)
O2_2 O 0.60800(18) -0.27663(18) 0.76902(13)
O2A O 0.39200(18) 0.27663(18) 0.23098(13)
O3A O 0.19540(19) 0.21369(19) 0.42257(14)
O4A O 0.12519(18) 0.3512(2) 0.34012(14)
O5A O 0.3584(2) 0.51518(19) 0.30988(15)
O6A O 0.2157(2) 0.37641(18) 0.20760(13)
O7A O 0.0596(3) 0.4244(2) 0.1119(2)
H1A H 0.0882 0.3834 0.1353
O8A O 0.3764(3) 0.9506(3) 0.1320(2)
O8_2 O 0.6236(3) 1.0494(3) 0.8680(2)
O9A O 0.4992(3) 0.9289(3) 0.2569(3)
O10A O 0.3288(3) 0.9727(2) 0.26503(18)
O11A O 0.34748(17) 0.44597(19) 0.47709(13)
O12A O 0.48580(18) 0.58336(19) 0.58617(13)
O13A O 0.3943(2) 0.1793(2) 0.38335(15)
H2A H 0.3646 0.1131 0.3488
H3A H 0.4682 0.2164 0.3930
N1_2 N 0.8434(2) -0.0163(2) 0.88896(15)
N2_2 N 0.6545(2) -0.1769(2) 0.90812(15)
N3_2 N 0.6592(3) -0.0126(3) 1.04560(17)
N4_2 N 0.8995(2) 0.0965(2) 1.06138(16)
N5A N 0.0755(2) 0.2228(2) 0.50782(17)
N6A N -0.0158(2) 0.3398(2) 0.41189(16)
N7A N -0.1751(3) 0.3253(3) 0.51242(19)
N8A N -0.1399(3) 0.1234(3) 0.54241(19)
C1_2 C 0.7858(2) -0.1088(2) 0.82469(17)
C2_2 C 0.6714(2) -0.1963(2) 0.83289(18)
C3_2 C 0.5640(3) -0.2563(3) 0.9312(2)
C4_2 C 0.5115(4) -0.3749(3) 0.8908(3)
H4_2 H 0.5342 -0.4023 0.8455
C5_2 C 0.4264(5) -0.4515(4) 0.9175(3)
H5_2 H 0.3926 -0.5299 0.8899
C6_2 C 0.3908(5) -0.4142(5) 0.9841(4)
H6_2 H 0.3326 -0.4665 1.0010
C7_2 C 0.4418(4) -0.2998(4) 1.0250(3)
H7_2 H 0.4177 -0.2745 1.0702
C8_2 C 0.5297(3) -0.2188(3) 1.0009(2)
C9_2 C 0.5731(3) -0.0990(3) 1.0493(2)
H8_2 H 0.5330 -0.0844 1.0872
C10_2 C 0.6815(4) 0.1045(4) 1.0934(3)
H9_2 H 0.6213 0.0984 1.1220
H10_2 H 0.6742 0.1529 1.0539
C11_2 C 0.8024(4) 0.1635(4) 1.1587(2)
H11_2 H 0.8350 0.2445 1.1565
H12_2 H 0.7923 0.1617 1.2145
C12_2 C 0.8916(4) 0.1112(3) 1.1487(2)
H13_2 H 0.9686 0.1614 1.1875
H14_2 H 0.8687 0.0362 1.1630
C13_2 C 0.9982(3) 0.1515(3) 1.0493(2)
H15_2 H 1.0613 0.1957 1.0972
C14_2 C 1.0217(3) 0.1521(3) 0.9685(2)
C15_2 C 1.1263(3) 0.2421(3) 0.9703(3)
H16_2 H 1.1784 0.2893 1.0222
C16_2 C 1.1532(4) 0.2618(4) 0.8975(3)
H17_2 H 1.2231 0.3215 0.8997
C17_2 C 1.0750(4) 0.1920(3) 0.8204(3)
H18_2 H 1.0913 0.2070 0.7705
C18_2 C 0.9733(3) 0.1004(3) 0.8165(2)
H19_2 H 0.9223 0.0542 0.7640
C19_2 C 0.9458(3) 0.0760(2) 0.8900(2)
C20A C 0.1211(3) 0.2459(3) 0.44529(19)
C21A C 0.0742(3) 0.3191(3) 0.39375(18)
C22A C -0.0683(3) 0.4082(3) 0.3723(2)
C23A C -0.0389(3) 0.4539(3) 0.3053(2)
H20A H 0.0179 0.4381 0.2844
C24A C -0.0918(4) 0.5221(4) 0.2689(3)
H21A H -0.0699 0.5514 0.2243
C25A C -0.1763(4) 0.5473(4) 0.2978(3)
H22A H -0.2111 0.5940 0.2737
C26A C -0.2086(3) 0.5020(4) 0.3630(3)
H23A H -0.2665 0.5179 0.3823
C27A C -0.1569(3) 0.4327(3) 0.4012(2)
C28A C -0.2008(3) 0.3937(3) 0.4697(2)
H24A H -0.2545 0.4224 0.4842
C29A C -0.2308(4) 0.2968(4) 0.5797(3)
H25A H -0.1694 0.3162 0.6327
H26A H -0.2761 0.3442 0.5867
C30A C -0.3105(4) 0.1716(4) 0.5614(3)
H27A H -0.3233 0.1542 0.6141
H28A H -0.3864 0.1609 0.5240
C31A C -0.2696(4) 0.0840(4) 0.5220(3)
H29A H -0.3031 0.0653 0.4610
H30A H -0.2998 0.0131 0.5409
C32A C -0.0885(3) 0.0627(3) 0.5772(2)
H31A H -0.1360 -0.0023 0.5914
C33A C 0.0366(3) 0.0854(3) 0.5968(2)
C34A C 0.0793(4) 0.0234(4) 0.6506(2)
H32A H 0.0264 -0.0317 0.6696
C35A C 0.1961(4) 0.0418(4) 0.6757(3)
H33A H 0.2222 -0.0009 0.7109
C36A C 0.2755(4) 0.1244(4) 0.6487(3)
H34A H 0.3558 0.1398 0.6679
C37A C 0.2365(3) 0.1844(4) 0.5931(2)
H35A H 0.2905 0.2386 0.5742
C38A C 0.1172(3) 0.1640(3) 0.5654(2)
C39A C 0.2770(3) 0.4843(3) 0.24236(19)
C40A C 0.2460(3) 0.5711(3) 0.20072(19)
C41A C 0.3217(3) 0.6885(3) 0.2255(2)
H36A H 0.3920 0.7132 0.2691
C42A C 0.2929(3) 0.7680(3) 0.1857(2)
C43A C 0.1874(4) 0.7300(4) 0.1214(3)
H37A H 0.1687 0.7833 0.0938
C44A C 0.1103(4) 0.6168(4) 0.0976(3)
H38A H 0.0392 0.5938 0.0551
C45A C 0.1383(3) 0.5356(3) 0.1369(2)
C46A C 0.4518(2) 0.5086(2) 0.51824(17)
O14 O 0.3920(5) 0.8141(5) 0.6743(4)
loop_
_geom_bond_atom_site_label_1
_geom_bond_atom_site_label_2
_geom_bond_site_symmetry_1
_geom_bond_site_symmetry_2
Gd1 O1 1_555 1_555
Cu1 O8 1_555 1_555
Cu2 N5 1_555 1_555
S1 O8 1_555 1_555
O1 C1 1_555 1_555
O2 Gd1 1_555 1_555
O3 Gd1 1_555 1_555
O4 Gd1 1_555 1_555
O5 Gd1 1_555 1_555
O6 Gd1 1_555 1_555
O7 H1 1_555 1_555
O9 S1 1_555 1_555
O10 S1 1_555 1_555
O11 Gd1 1_555 1_555
O12 C46 1_555 1_555
O13 Gd1 1_555 1_555
H2 O13 1_555 1_555
H3 O13 1_555 1_555
N1 C1 1_555 1_555
N2 C2 1_555 1_555
N3 C9 1_555 1_555
N4 C12 1_555 1_555
N5 C20 1_555 1_555
N6 Cu2 1_555 1_555
N7 Cu2 1_555 1_555
N8 Cu2 1_555 1_555
C1 C2 1_555 1_555
C2 O2 1_555 1_555
C3 N2 1_555 1_555
C4 C3 1_555 1_555
H4 C4 1_555 1_555
C5 C4 1_555 1_555
H5 C5 1_555 1_555
C6 C5 1_555 1_555
H6 C6 1_555 1_555
C7 C6 1_555 1_555
H7 C7 1_555 1_555
C8 C3 1_555 1_555
C9 C8 1_555 1_555
H8 C9 1_555 1_555
C10 N3 1_555 1_555
H9 C10 1_555 1_555
H10 C10 1_555 1_555
C11 C10 1_555 1_555
H11 C11 1_555 1_555
H12 C11 1_555 1_555
C12 C11 1_555 1_555
H13 C12 1_555 1_555
H14 C12 1_555 1_555
C13 N4 1_555 1_555
H15 C13 1_555 1_555
C14 C13 1_555 1_555
C15 C14 1_555 1_555
H16 C15 1_555 1_555
C16 C15 1_555 1_555
H17 C16 1_555 1_555
C17 C16 1_555 1_555
H18 C17 1_555 1_555
C18 C17 1_555 1_555
H19 C18 1_555 1_555
C19 N1 1_555 1_555
C20 O3 1_555 1_555
C21 O4 1_555 1_555
C22 N6 1_555 1_555
C23 C22 1_555 1_555
H20 C23 1_555 1_555
C24 C23 1_555 1_555
H21 C24 1_555 1_555
C25 C24 1_555 1_555
H22 C25 1_555 1_555
C26 C25 1_555 1_555
H23 C26 1_555 1_555
C27 C22 1_555 1_555
C28 N7 1_555 1_555
H24 C28 1_555 1_555
C29 N7 1_555 1_555
H25 C29 1_555 1_555
H26 C29 1_555 1_555
C30 C29 1_555 1_555
H27 C30 1_555 1_555
H28 C30 1_555 1_555
C31 N8 1_555 1_555
H29 C31 1_555 1_555
H30 C31 1_555 1_555
C32 N8 1_555 1_555
H31 C32 1_555 1_555
C33 C32 1_555 1_555
C34 C33 1_555 1_555
H32 C34 1_555 1_555
C35 C34 1_555 1_555
H33 C35 1_555 1_555
C36 C35 1_555 1_555
H34 C36 1_555 1_555
C37 C36 1_555 1_555
H35 C37 1_555 1_555
C38 N5 1_555 1_555
C39 O5 1_555 1_555
C40 C39 1_555 1_555
C41 C40 1_555 1_555
H36 C41 1_555 1_555
C42 S1 1_555 1_555
C43 C42 1_555 1_555
H37 C43 1_555 1_555
C44 C43 1_555 1_555
H38 C44 1_555 1_555
C45 O7 1_555 1_555
C46 O11 1_555 1_555
Gd1A O12 1_555 1_555
Gd1_2 O1_2 1_555 1_555
Cu1_2 N1 1_555 1_555
Cu1A O8A 1_555 1_555
Cu2A N5A 1_555 1_555
S1A O8A 1_555 1_555
O1_2 C1_2 1_555 1_555
O1A Gd1A 1_555 1_555
O2_2 Gd1_2 1_555 1_555
O2A Gd1A 1_555 1_555
O3A Gd1A 1_555 1_555
O4A Gd1A 1_555 1_555
O5A Gd1A 1_555 1_555
O6A Gd1A 1_555 1_555
O7A H1A 1_555 1_555
O8_2 Cu1_2 1_555 1_555
O9A S1A 1_555 1_555
O10A S1A 1_555 1_555
O11A Gd1A 1_555 1_555
O12A Gd1 1_555 1_555
O13A Gd1A 1_555 1_555
H2A O13A 1_555 1_555
H3A O13A 1_555 1_555
N1_2 Cu1 1_555 1_555
N2_2 Cu1 1_555 1_555
N3_2 Cu1 1_555 1_555
N4_2 Cu1 1_555 1_555
N5A C20A 1_555 1_555
N6A Cu2A 1_555 1_555
N7A Cu2A 1_555 1_555
N8A Cu2A 1_555 1_555
C1_2 N1_2 1_555 1_555
C2_2 O2_2 1_555 1_555
C3_2 N2_2 1_555 1_555
C4_2 C3_2 1_555 1_555
H4_2 C4_2 1_555 1_555
C5_2 C4_2 1_555 1_555
H5_2 C5_2 1_555 1_555
C6_2 C5_2 1_555 1_555
H6_2 C6_2 1_555 1_555
C7_2 C6_2 1_555 1_555
H7_2 C7_2 1_555 1_555
C8_2 C3_2 1_555 1_555
C9_2 N3_2 1_555 1_555
H8_2 C9_2 1_555 1_555
C10_2 N3_2 1_555 1_555
H9_2 C10_2 1_555 1_555
H10_2 C10_2 1_555 1_555
C11_2 C10_2 1_555 1_555
H11_2 C11_2 1_555 1_555
H12_2 C11_2 1_555 1_555
C12_2 N4_2 1_555 1_555
H13_2 C12_2 1_555 1_555
H14_2 C12_2 1_555 1_555
C13_2 N4_2 1_555 1_555
H15_2 C13_2 1_555 1_555
C14_2 C13_2 1_555 1_555
C15_2 C14_2 1_555 1_555
H16_2 C15_2 1_555 1_555
C16_2 C15_2 1_555 1_555
H17_2 C16_2 1_555 1_555
C17_2 C16_2 1_555 1_555
H18_2 C17_2 1_555 1_555
C18_2 C17_2 1_555 1_555
H19_2 C18_2 1_555 1_555
C19_2 N1_2 1_555 1_555
C20A O3A 1_555 1_555
C21A O4A 1_555 1_555
C22A N6A 1_555 1_555
C23A C22A 1_555 1_555
H20A C23A 1_555 1_555
C24A C23A 1_555 1_555
H21A C24A 1_555 1_555
C25A C24A 1_555 1_555
H22A C25A 1_555 1_555
C26A C25A 1_555 1_555
H23A C26A 1_555 1_555
C27A C22A 1_555 1_555
C28A N7A 1_555 1_555
H24A C28A 1_555 1_555
C29A N7A 1_555 1_555
H25A C29A 1_555 1_555
H26A C29A 1_555 1_555
C30A C29A 1_555 1_555
H27A C30A 1_555 1_555
H28A C30A 1_555 1_555
C31A N8A 1_555 1_555
H29A C31A 1_555 1_555
H30A C31A 1_555 1_555
C32A N8A 1_555 1_555
H31A C32A 1_555 1_555
C33A C32A 1_555 1_555
C34A C33A 1_555 1_555
H32A C34A 1_555 1_555
C35A C34A 1_555 1_555
H33A C35A 1_555 1_555
C36A C35A 1_555 1_555
H34A C36A 1_555 1_555
C37A C36A 1_555 1_555
H35A C37A 1_555 1_555
C38A N5A 1_555 1_555
C39A O5A 1_555 1_555
C40A C39A 1_555 1_555
C41A C40A 1_555 1_555
H36A C41A 1_555 1_555
C42A S1A 1_555 1_555
C43A C42A 1_555 1_555
H37A C43A 1_555 1_555
C44A C43A 1_555 1_555
H38A C44A 1_555 1_555
C45A O7A 1_555 1_555
C46A C46 1_555 1_555
O6 C39 1_555 1_555
N2 Cu1_2 1_555 1_555
N3 Cu1_2 1_555 1_555
N4 Cu1_2 1_555 1_555
N6 C21 1_555 1_555
C7 C8 1_555 1_555
C14 C19 1_555 1_555
C18 C19 1_555 1_555
C20 C21 1_555 1_555
C26 C27 1_555 1_555
C27 C28 1_555 1_555
C30 C31 1_555 1_555
C33 C38 1_555 1_555
C37 C38 1_555 1_555
C40 C45 1_555 1_555
C41 C42 1_555 1_555
C44 C45 1_555 1_555
O6A C39A 1_555 1_555
O11A C46A 1_555 1_555
O12A C46A 1_555 1_555
N2_2 C2_2 1_555 1_555
N6A C21A 1_555 1_555
C1_2 C2_2 1_555 1_555
C7_2 C8_2 1_555 1_555
C8_2 C9_2 1_555 1_555
C11_2 C12_2 1_555 1_555
C14_2 C19_2 1_555 1_555
C18_2 C19_2 1_555 1_555
C20A C21A 1_555 1_555
C26A C27A 1_555 1_555
C27A C28A 1_555 1_555
C30A C31A 1_555 1_555
C33A C38A 1_555 1_555
C37A C38A 1_555 1_555
C40A C45A 1_555 1_555
C41A C42A 1_555 1_555
C44A C45A 1_555 1_555

#END
