
#######################################################################
#
#                 Cambridge Crystallographic Data Centre
#                                CCDC 
#
#######################################################################
#
# If this CIF has been generated from an entry in the Cambridge 
# Structural Database, then it will include bibliographic, chemical, 
# crystal, experimental, refinement or atomic coordinate data resulting 
# from the CCDC's data processing and validation procedures.
#
#######################################################################

data_EJODOX
_symmetry_cell_setting           triclinic
_symmetry_space_group_name_H-M   'P -1'
_symmetry_Int_Tables_number      2
_space_group_name_Hall           '-P 1'
loop_
_symmetry_equiv_pos_site_id
_symmetry_equiv_pos_as_xyz
1 x,y,z
2 -x,-y,-z
_cell_length_a                   9.6676(17)
_cell_length_b                   12.039(2)
_cell_length_c                   12.914(2)
_cell_angle_alpha                72.454(3)
_cell_angle_beta                 77.357(3)
_cell_angle_gamma                68.565(2)
_cell_volume                     1323.94
loop_
_atom_site_label
_atom_site_type_symbol
_atom_site_fract_x
_atom_site_fract_y
_atom_site_fract_z
Mn1 Mn 1.77501(7) 1.24544(6) -0.13569(5)
Mn2 Mn 1.0000 1.0000 0.0000
Cu1 Cu 1.78827(6) 1.29728(5) -0.57415(4)
S1 S 1.51060(13) 1.26811(11) 0.08581(9)
O1 O 1.6272(3) 1.3033(3) -0.2647(2)
O2 O 1.9224(3) 1.2013(3) -0.2839(2)
O3 O 1.5894(5) 1.2959(4) -0.0212(3)
O4 O 1.6100(7) 1.1998(5) 0.1661(4)
O5 O 1.4011(5) 1.3764(5) 0.1092(6)
O6 O 1.0498(4) 1.3352(3) -0.0873(3)
O7 O 0.9753(4) 1.1727(3) -0.0430(3)
O8 O 1.1726(4) 0.9544(3) 0.0707(3)
O9 O 1.7976(4) 1.4268(3) -0.1745(3)
H1 H 1.7241 1.4735 -0.1415
H2 H 1.8808 1.3994 -0.1489
O10 O 0.8312(9) 0.9871(10) 0.1638(6)
H3 H 0.7898 1.0553 0.1818
N1 N 1.6305(4) 1.3085(3) -0.4468(3)
N2 N 1.9183(4) 1.1949(3) -0.4603(3)
N3 N 1.9708(4) 1.2997(4) -0.6832(3)
N4 N 1.6402(4) 1.3965(3) -0.6790(3)
C1 C 1.6901(5) 1.2864(4) -0.3566(3)
C2 C 1.8598(5) 1.2233(4) -0.3659(3)
C3 C 2.0655(5) 1.1135(4) -0.4734(4)
C4 C 2.1240(6) 1.0127(5) -0.3894(5)
H4 H 2.0649 0.9979 -0.3228
C5 C 2.2674(6) 0.9353(5) -0.4037(5)
H5 H 2.3046 0.8692 -0.3461
C6 C 2.3576(6) 0.9530(5) -0.5013(5)
H6 H 2.4559 0.9014 -0.5096
C7 C 2.2995(6) 1.0484(6) -0.5857(5)
H7 H 2.3585 1.0595 -0.6529
C8 C 2.1529(5) 1.1301(5) -0.5740(4)
C9 C 2.1033(6) 1.2267(5) -0.6689(4)
H8 H 2.1771 1.2372 -0.7272
C10 C 1.9548(6) 1.3901(5) -0.7896(4)
H9 H 1.9317 1.4717 -0.7790
H10 H 2.0489 1.3719 -0.8369
C11 C 1.8327(6) 1.3883(5) -0.8438(4)
H11 H 1.8407 1.3035 -0.8362
H12 H 1.8467 1.4266 -0.9213
C12 C 1.6798(6) 1.4540(5) -0.7959(4)
H13 H 1.6068 1.4567 -0.8384
H14 H 1.6732 1.5381 -0.8024
C13 C 1.4993(5) 1.4137(4) -0.6523(4)
H15 H 1.4416 1.4533 -0.7099
C14 C 1.4166(5) 1.3811(4) -0.5465(4)
C15 C 1.2651(5) 1.4009(5) -0.5481(4)
H16 H 1.2252 1.4358 -0.6143
C16 C 1.1739(6) 1.3699(5) -0.4540(5)
H17 H 1.0739 1.3817 -0.4565
C17 C 1.2332(6) 1.3209(5) -0.3560(4)
H18 H 1.1728 1.2988 -0.2920
C18 C 1.3811(5) 1.3041(5) -0.3515(4)
H19 H 1.4179 1.2726 -0.2841
C19 C 1.4763(5) 1.3335(4) -0.4458(3)
C20 C 1.4119(5) 1.1732(4) 0.0803(3)
C21 C 1.2872(5) 1.2252(4) 0.0257(3)
H20 H 1.2592 1.3087 -0.0085
C22 C 1.2014(5) 1.1557(4) 0.0201(3)
C23 C 1.2447(5) 1.0293(4) 0.0713(3)
C24 C 1.3742(5) 0.9779(4) 0.1249(4)
H21 H 1.4049 0.8942 0.1582
C25 C 1.4568(5) 1.0480(4) 0.1295(4)
H22 H 1.5421 1.0118 0.1652
C26 C 1.0688(5) 1.2262(4) -0.0412(3)
Mn1A Mn 0.22499(7) 0.75456(6) 0.13569(5)
Mn1_2 Mn 0.77501(7) 1.24544(6) -0.13569(5)
Mn1A_2 Mn 1.22499(7) 0.75456(6) 0.13569(5)
Cu1A Cu 0.21173(6) 0.70272(5) 0.57415(4)
S1A S 0.48940(13) 0.73189(11) -0.08581(9)
O1A O 0.3728(3) 0.6967(3) 0.2647(2)
O2A O 0.0776(3) 0.7987(3) 0.2839(2)
O3A O 0.4106(5) 0.7041(4) 0.0212(3)
O4A O 0.3900(7) 0.8002(5) -0.1661(4)
O5A O 0.5989(5) 0.6236(5) -0.1092(6)
O6A O 0.9502(4) 0.6648(3) 0.0873(3)
O7A O 1.0247(4) 0.8273(3) 0.0430(3)
O7_2 O 1.9753(4) 1.1727(3) -0.0430(3)
O7A_2 O 0.0247(4) 0.8273(3) 0.0430(3)
O8A O 0.8274(4) 1.0456(3) -0.0707(3)
O8A_2 O 1.8274(4) 1.0456(3) -0.0707(3)
O8_2 O 0.1726(4) 0.9544(3) 0.0707(3)
O9A O 0.2024(4) 0.5732(3) 0.1745(3)
H1A H 0.2759 0.5265 0.1415
H2A H 0.1192 0.6006 0.1489
O10A O 1.1688(9) 1.0129(10) -0.1638(6)
H3A H 1.2102 0.9447 -0.1818
N1A N 0.3695(4) 0.6915(3) 0.4468(3)
N2A N 0.0817(4) 0.8051(3) 0.4603(3)
N3A N 0.0292(4) 0.7003(4) 0.6832(3)
N4A N 0.3598(4) 0.6035(3) 0.6790(3)
C1A C 0.3099(5) 0.7136(4) 0.3566(3)
C2A C 0.1402(5) 0.7767(4) 0.3659(3)
C3A C -0.0655(5) 0.8865(4) 0.4734(4)
C4A C -0.1240(6) 0.9873(5) 0.3894(5)
H4A H -0.0649 1.0021 0.3228
C5A C -0.2674(6) 1.0647(5) 0.4037(5)
H5A H -0.3046 1.1308 0.3461
C6A C -0.3576(6) 1.0470(5) 0.5013(5)
H6A H -0.4559 1.0986 0.5096
C7A C -0.2995(6) 0.9516(6) 0.5857(5)
H7A H -0.3585 0.9405 0.6529
C8A C -0.1529(5) 0.8699(5) 0.5740(4)
C9A C -0.1033(6) 0.7733(5) 0.6689(4)
H8A H -0.1771 0.7628 0.7272
C10A C 0.0452(6) 0.6099(5) 0.7896(4)
H9A H 0.0683 0.5283 0.7790
H10A H -0.0489 0.6281 0.8369
C11A C 0.1673(6) 0.6117(5) 0.8438(4)
H11A H 0.1593 0.6965 0.8362
H12A H 0.1533 0.5734 0.9213
C12A C 0.3202(6) 0.5460(5) 0.7959(4)
H13A H 0.3932 0.5433 0.8384
H14A H 0.3268 0.4619 0.8024
C13A C 0.5007(5) 0.5863(4) 0.6523(4)
H15A H 0.5584 0.5467 0.7099
C14A C 0.5834(5) 0.6189(4) 0.5465(4)
C15A C 0.7349(5) 0.5991(5) 0.5481(4)
H16A H 0.7748 0.5642 0.6143
C16A C 0.8261(6) 0.6301(5) 0.4540(5)
H17A H 0.9261 0.6183 0.4565
C17A C 0.7668(6) 0.6791(5) 0.3560(4)
H18A H 0.8272 0.7012 0.2920
C18A C 0.6189(5) 0.6959(5) 0.3515(4)
H19A H 0.5821 0.7274 0.2841
C19A C 0.5237(5) 0.6665(4) 0.4458(3)
C20A C 0.5881(5) 0.8268(4) -0.0803(3)
C21A C 0.7128(5) 0.7748(4) -0.0257(3)
H20A H 0.7408 0.6913 0.0085
C22A C 0.7986(5) 0.8443(4) -0.0201(3)
C23A C 0.7553(5) 0.9707(4) -0.0713(3)
C24A C 0.6258(5) 1.0221(4) -0.1249(4)
H21A H 0.5951 1.1058 -0.1582
C25A C 0.5432(5) 0.9520(4) -0.1295(4)
H22A H 0.4579 0.9882 -0.1652
C26A C 0.9312(5) 0.7738(4) 0.0412(3)
loop_
_geom_bond_atom_site_label_1
_geom_bond_atom_site_label_2
_geom_bond_site_symmetry_1
_geom_bond_site_symmetry_2
Mn1 O1 1_555 1_555
Mn2 O7 1_555 1_555
Cu1 N1 1_555 1_555
S1 O3 1_555 1_555
O1 C1 1_555 1_555
O2 Mn1 1_555 1_555
O3 Mn1 1_555 1_555
O4 S1 1_555 1_555
O5 S1 1_555 1_555
O6 C26 1_555 1_555
O7 C26 1_555 1_555
O8 Mn2 1_555 1_555
O9 Mn1 1_555 1_555
H1 O9 1_555 1_555
H2 O9 1_555 1_555
O10 Mn2 1_555 1_555
H3 O10 1_555 1_555
N1 C1 1_555 1_555
N2 Cu1 1_555 1_555
N3 Cu1 1_555 1_555
N4 Cu1 1_555 1_555
C1 C2 1_555 1_555
C2 O2 1_555 1_555
C3 N2 1_555 1_555
C4 C3 1_555 1_555
H4 C4 1_555 1_555
C5 C4 1_555 1_555
H5 C5 1_555 1_555
C6 C5 1_555 1_555
H6 C6 1_555 1_555
C7 C6 1_555 1_555
H7 C7 1_555 1_555
C8 C3 1_555 1_555
C9 N3 1_555 1_555
H8 C9 1_555 1_555
C10 N3 1_555 1_555
H9 C10 1_555 1_555
H10 C10 1_555 1_555
C11 C10 1_555 1_555
H11 C11 1_555 1_555
H12 C11 1_555 1_555
C12 N4 1_555 1_555
H13 C12 1_555 1_555
H14 C12 1_555 1_555
C13 N4 1_555 1_555
H15 C13 1_555 1_555
C14 C13 1_555 1_555
C15 C14 1_555 1_555
H16 C15 1_555 1_555
C16 C15 1_555 1_555
H17 C16 1_555 1_555
C17 C16 1_555 1_555
H18 C17 1_555 1_555
C18 C17 1_555 1_555
H19 C18 1_555 1_555
C19 N1 1_555 1_555
C20 S1 1_555 1_555
C21 C20 1_555 1_555
H20 C21 1_555 1_555
C22 C21 1_555 1_555
C23 O8 1_555 1_555
C24 C23 1_555 1_555
H21 C24 1_555 1_555
C25 C20 1_555 1_555
H22 C25 1_555 1_555
C26 C22 1_555 1_555
Mn1A O1A 1_555 1_555
Mn1_2 O7 1_555 1_555
Mn1A_2 O8 1_555 1_555
Cu1A N1A 1_555 1_555
S1A O3A 1_555 1_555
O1A C1A 1_555 1_555
O2A Mn1A 1_555 1_555
O3A Mn1A 1_555 1_555
O4A S1A 1_555 1_555
O5A S1A 1_555 1_555
O6A C26A 1_555 1_555
O7A Mn2 1_555 1_555
O7_2 Mn1 1_555 1_555
O7A_2 Mn1A 1_555 1_555
O8A Mn2 1_555 1_555
O8A_2 Mn1 1_555 1_555
O8_2 Mn1A 1_555 1_555
O9A Mn1A 1_555 1_555
H1A O9A 1_555 1_555
H2A O9A 1_555 1_555
O10A Mn2 1_555 1_555
H3A O10A 1_555 1_555
N1A C1A 1_555 1_555
N2A Cu1A 1_555 1_555
N3A Cu1A 1_555 1_555
N4A Cu1A 1_555 1_555
C1A C2A 1_555 1_555
C2A O2A 1_555 1_555
C3A N2A 1_555 1_555
C4A C3A 1_555 1_555
H4A C4A 1_555 1_555
C5A C4A 1_555 1_555
H5A C5A 1_555 1_555
C6A C5A 1_555 1_555
H6A C6A 1_555 1_555
C7A C6A 1_555 1_555
H7A C7A 1_555 1_555
C8A C3A 1_555 1_555
C9A N3A 1_555 1_555
H8A C9A 1_555 1_555
C10A N3A 1_555 1_555
H9A C10A 1_555 1_555
H10A C10A 1_555 1_555
C11A C10A 1_555 1_555
H11A C11A 1_555 1_555
H12A C11A 1_555 1_555
C12A N4A 1_555 1_555
H13A C12A 1_555 1_555
H14A C12A 1_555 1_555
C13A N4A 1_555 1_555
H15A C13A 1_555 1_555
C14A C13A 1_555 1_555
C15A C14A 1_555 1_555
H16A C15A 1_555 1_555
C16A C15A 1_555 1_555
H17A C16A 1_555 1_555
C17A C16A 1_555 1_555
H18A C17A 1_555 1_555
C18A C17A 1_555 1_555
H19A C18A 1_555 1_555
C19A N1A 1_555 1_555
C20A S1A 1_555 1_555
C21A C20A 1_555 1_555
H20A C21A 1_555 1_555
C22A C21A 1_555 1_555
C23A O8A 1_555 1_555
C24A C23A 1_555 1_555
H21A C24A 1_555 1_555
C25A C20A 1_555 1_555
H22A C25A 1_555 1_555
C26A O7A 1_555 1_555
N2 C2 1_555 1_555
C7 C8 1_555 1_555
C8 C9 1_555 1_555
C11 C12 1_555 1_555
C14 C19 1_555 1_555
C18 C19 1_555 1_555
C22 C23 1_555 1_555
C24 C25 1_555 1_555
Mn1_2 O8A 1_555 1_555
Mn1A_2 O7A 1_555 1_555
N2A C2A 1_555 1_555
C7A C8A 1_555 1_555
C8A C9A 1_555 1_555
C11A C12A 1_555 1_555
C14A C19A 1_555 1_555
C18A C19A 1_555 1_555
C22A C23A 1_555 1_555
C22A C26A 1_555 1_555
C24A C25A 1_555 1_555

#END
