
#######################################################################
#
#                 Cambridge Crystallographic Data Centre
#                                CCDC 
#
#######################################################################
#
# If this CIF has been generated from an entry in the Cambridge 
# Structural Database, then it will include bibliographic, chemical, 
# crystal, experimental, refinement or atomic coordinate data resulting 
# from the CCDC's data processing and validation procedures.
#
#######################################################################

data_EJOGIT
_symmetry_cell_setting           rhombohedral
_symmetry_space_group_name_H-M   'R -3'
_symmetry_Int_Tables_number      148
_space_group_name_Hall           '-R 3'
loop_
_symmetry_equiv_pos_site_id
_symmetry_equiv_pos_as_xyz
1 x,y,z
2 -y,x-y,z
3 -x+y,-x,z
4 2/3+x,1/3+y,1/3+z
5 2/3-y,1/3+x-y,1/3+z
6 2/3-x+y,1/3-x,1/3+z
7 2/3+y,1/3-x+y,1/3-z
8 2/3+x-y,1/3+x,1/3-z
9 1/3+x,2/3+y,2/3+z
10 -x,-y,-z
11 y,-x+y,-z
12 x-y,x,-z
13 1/3-x,2/3-y,2/3-z
14 1/3+y,2/3-x+y,2/3-z
15 1/3+x-y,2/3+x,2/3-z
16 1/3-y,2/3+x-y,2/3+z
17 1/3-x+y,2/3-x,2/3+z
18 2/3-x,1/3-y,1/3-z
_cell_length_a                   24.247(1)
_cell_length_b                   24.247(1)
_cell_length_c                   11.3891(6)
_cell_angle_alpha                90
_cell_angle_beta                 90
_cell_angle_gamma                120.0
_cell_volume                     5798.77
loop_
_atom_site_label
_atom_site_type_symbol
_atom_site_fract_x
_atom_site_fract_y
_atom_site_fract_z
Cu1 Cu -0.39109(2) 0.01362(2) -0.46719(4)
O1 O -0.3844(1) -0.0426(1) -0.3538(3)
O2 O -0.4046(1) -0.1290(1) -0.2584(2)
O3 O -0.4531(1) -0.0578(1) -0.5559(2)
O4 O -0.4747(1) 0.0100(2) -0.3543(3)
N1 N -0.3205(2) 0.0884(2) -0.3813(3)
N2 N -0.1766(3) 0.2414(2) -0.1972(5)
C1 C -0.4168(2) -0.1025(2) -0.3423(3)
C2 C -0.4704(2) -0.1424(2) -0.4210(3)
C3 C -0.4854(2) -0.1177(2) -0.5207(4)
C4 C -0.5394(2) -0.1602(2) -0.5866(4)
C5 C -0.5768(2) -0.2230(2) -0.5553(5)
C6 C -0.5615(2) -0.2467(2) -0.4584(4)
C7 C -0.5091(2) -0.2069(2) -0.3927(4)
C8 C -0.2901(4) 0.0825(3) -0.2903(7)
C9 C -0.2431(4) 0.1306(3) -0.2284(6)
C10 C -0.2226(3) 0.1918(2) -0.2578(4)
C11 C -0.2536(5) 0.1987(3) -0.3511(7)
C12 C -0.3010(4) 0.1478(3) -0.4077(7)
H1 H -0.547(2) -0.146(2) -0.661(4)
H2 H -0.614(2) -0.250(2) -0.591(4)
H3 H -0.581(2) -0.283(3) -0.443(4)
H4 H -0.499(2) -0.221(2) -0.334(3)
H5 H -0.301(4) 0.049(4) -0.276(7)
H6 H -0.222(4) 0.116(3) -0.181(7)
H7 H -0.154(4) 0.229(3) -0.143(6)
H8 H -0.158(5) 0.269(5) -0.232(9)
H9 H -0.2432 0.2404 -0.3749
H10 H -0.315(3) 0.154(3) -0.462(6)
H11 H -0.4950 -0.0178 -0.3021
H12 H -0.4924 0.0268 -0.3859
O2P O -0.3911(1) 0.0713(1) -0.5917(2)
Cu1D Cu -0.34695(2) -0.07138(3) -0.13386(4)
loop_
_geom_bond_atom_site_label_1
_geom_bond_atom_site_label_2
_geom_bond_site_symmetry_1
_geom_bond_site_symmetry_2
Cu1 O1 1_555 1_555
O1 C1 1_555 1_555
O2 C1 1_555 1_555
O3 Cu1 1_555 1_555
O4 Cu1 1_555 1_555
N1 Cu1 1_555 1_555
N2 C10 1_555 1_555
C1 C2 1_555 1_555
C2 C3 1_555 1_555
C3 O3 1_555 1_555
C4 C3 1_555 1_555
C5 C4 1_555 1_555
C6 C5 1_555 1_555
C7 C2 1_555 1_555
C8 N1 1_555 1_555
C9 C8 1_555 1_555
C10 C9 1_555 1_555
C11 C10 1_555 1_555
C12 N1 1_555 1_555
H1 C4 1_555 1_555
H2 C5 1_555 1_555
H3 C6 1_555 1_555
H4 C7 1_555 1_555
H5 C8 1_555 1_555
H6 C9 1_555 1_555
H7 N2 1_555 1_555
H8 N2 1_555 1_555
H9 C11 1_555 1_555
H10 C12 1_555 1_555
H11 O4 1_555 1_555
H12 O4 1_555 1_555
O2P Cu1 1_555 1_555
Cu1D O2 1_555 1_555
C6 C7 1_555 1_555
C11 C12 1_555 1_555

#END
