
#######################################################################
#
#                 Cambridge Crystallographic Data Centre
#                                CCDC 
#
#######################################################################
#
# If this CIF has been generated from an entry in the Cambridge 
# Structural Database, then it will include bibliographic, chemical, 
# crystal, experimental, refinement or atomic coordinate data resulting 
# from the CCDC's data processing and validation procedures.
#
#######################################################################

data_EJOHEQ
_symmetry_cell_setting           tetragonal
_symmetry_space_group_name_H-M   'I 41/a'
_symmetry_Int_Tables_number      88
_space_group_name_Hall           '-I 4ad'
loop_
_symmetry_equiv_pos_site_id
_symmetry_equiv_pos_as_xyz
1 x,y,z
2 3/4-y,1/4+x,1/4+z
3 1/4+y,1/4-x,1/4+z
4 1/2+x,1/2+y,1/2+z
5 1/4-y,3/4+x,3/4+z
6 x,1/2+y,-z
7 1/2+x,y,1/2-z
8 1/4-y,1/4+x,1/4-z
9 -x,-y,-z
10 1/4+y,3/4-x,3/4-z
11 3/4-y,3/4+x,3/4-z
12 1/2-x,1/2-y,1/2-z
13 3/4+y,1/4-x,1/4-z
14 -x,1/2-y,z
15 1/2-x,-y,1/2+z
16 3/4+y,3/4-x,3/4+z
_cell_length_a                   33.3063(15)
_cell_length_b                   33.3063(15)
_cell_length_c                   13.8485(9)
_cell_angle_alpha                90
_cell_angle_beta                 90
_cell_angle_gamma                90
_cell_volume                     15362.3
loop_
_atom_site_label
_atom_site_type_symbol
_atom_site_fract_x
_atom_site_fract_y
_atom_site_fract_z
Au1 Au 0.720709(8) 0.925540(9) 0.03217(2)
Au2 Au 0.667280(8) 0.992579(9) 0.00512(2)
O1 O 0.80497(19) 0.9099(2) 0.0189(5)
S1 S 0.72188(6) 1.03514(6) 0.02305(14)
P1 P 0.61282(6) 0.95118(6) 0.00429(16)
P2 P 0.67157(6) 0.88019(6) 0.01856(16)
N1 N 0.76763(19) 0.9665(2) 0.0230(5)
N2 N 0.7993(2) 1.0294(2) 0.0266(5)
C1 C 0.7655(2) 1.0069(3) 0.0246(5)
C2 C 0.8364(3) 1.0114(4) 0.0230(7)
H1 H 0.8593 1.0273 0.0254
C3 C 0.8404(3) 0.9720(3) 0.0164(7)
H2 H 0.8657 0.9603 0.0104
C4 C 0.8048(2) 0.9474(3) 0.0187(6)
C5 C 0.6266(2) 0.9017(2) -0.0383(6)
H3 H 0.6311 0.9030 -0.1074
H4 H 0.6043 0.8836 -0.0273
C6 C 0.5932(2) 0.9445(3) 0.1259(7)
C7 C 0.6074(3) 0.9687(4) 0.1989(8)
H5 H 0.6264 0.9885 0.1857
C8 C 0.5933(4) 0.9632(6) 0.2925(10)
H6 H 0.6022 0.9794 0.3429
C9 C 0.5647(4) 0.9322(7) 0.3090(11)
H7 H 0.5559 0.9274 0.3716
C10 C 0.5502(4) 0.9097(5) 0.2373(11)
H8 H 0.5305 0.8906 0.2498
C11 C 0.5647(3) 0.9148(3) 0.1427(8)
H9 H 0.5554 0.8988 0.0925
C12 C 0.5695(2) 0.9655(2) -0.0671(7)
C13 C 0.5564(2) 1.0041(3) -0.0619(7)
H10 H 0.5708 1.0229 -0.0262
C14 C 0.5211(3) 1.0159(3) -0.1104(8)
H11 H 0.5122 1.0423 -0.1059
C15 C 0.5003(3) 0.9891(3) -0.1633(8)
H12 H 0.4771 0.9970 -0.1956
C16 C 0.5133(4) 0.9509(4) -0.1694(13)
H13 H 0.4998 0.9329 -0.2091
C17 C 0.5463(4) 0.9379(3) -0.1177(13)
H14 H 0.5530 0.9108 -0.1168
C18 C 0.6858(3) 0.8399(2) -0.0622(7)
C19 C 0.7265(3) 0.8314(3) -0.0731(9)
H15 H 0.7455 0.8462 -0.0389
C20 C 0.7389(4) 0.8011(4) -0.1346(12)
H16 H 0.7658 0.7940 -0.1397
C21 C 0.7096(6) 0.7818(5) -0.1881(16)
H17 H 0.7176 0.7640 -0.2360
C22 C 0.6696(5) 0.7878(4) -0.1742(13)
H18 H 0.6507 0.7720 -0.2061
C23 C 0.6575(4) 0.8184(3) -0.1102(10)
H19 H 0.6304 0.8238 -0.1010
C24 C 0.6548(3) 0.8566(3) 0.1303(7)
C25 C 0.6587(3) 0.8774(3) 0.2147(7)
H20 H 0.6701 0.9029 0.2137
C26 C 0.6463(4) 0.8617(5) 0.3005(10)
H21 H 0.6488 0.8763 0.3575
C27 C 0.6297(4) 0.8226(6) 0.3010(12)
H22 H 0.6212 0.8110 0.3585
C28 C 0.6264(4) 0.8024(4) 0.2161(11)
H23 H 0.6161 0.7764 0.2161
C29 C 0.6379(3) 0.8192(3) 0.1315(9)
H24 H 0.6342 0.8053 0.0739
Au2A Au 0.757421(9) 0.917280(8) 0.25512(2)
Au1O Au 0.675540(9) 1.029291(8) -0.21783(2)
C30 C 0.9064(6) 0.9010(7) -0.1558(14)
C31 C 0.8659(6) 0.9061(5) -0.1977(12)
F1 F 0.9275(5) 0.9343(5) -0.1418(19)
F2 F 0.9048(6) 0.8784(6) -0.0730(13)
F3 F 0.9296(5) 0.8802(7) -0.2133(13)
O2 O 0.8584(4) 0.9429(3) -0.2051(8)
O3 O 0.8453(5) 0.8753(4) -0.2141(13)
C32 C 0.5332(10) 0.8297(10) -0.1358(18)
O4 O 0.5501(4) 0.8349(3) -0.0366(10)
O5 O 0.5408(7) 0.8857(11) 0.568(2)
O6 O 0.5669(17) 0.7271(12) -0.226(4)
O7 O 0.4939(9) 0.8160(10) 0.259(3)
loop_
_geom_bond_atom_site_label_1
_geom_bond_atom_site_label_2
_geom_bond_site_symmetry_1
_geom_bond_site_symmetry_2
Au1 Au2 1_555 1_555
Au2 S1 1_555 1_555
O1 C4 1_555 1_555
S1 C1 1_555 1_555
P1 Au2 1_555 1_555
P2 Au1 1_555 1_555
N1 Au1 1_555 1_555
N2 C1 1_555 1_555
C1 N1 1_555 1_555
C2 N2 1_555 1_555
H1 C2 1_555 1_555
C3 C2 1_555 1_555
H2 C3 1_555 1_555
C4 N1 1_555 1_555
C5 P1 1_555 1_555
H3 C5 1_555 1_555
H4 C5 1_555 1_555
C6 P1 1_555 1_555
C7 C6 1_555 1_555
H5 C7 1_555 1_555
C8 C7 1_555 1_555
H6 C8 1_555 1_555
C9 C8 1_555 1_555
H7 C9 1_555 1_555
C10 C9 1_555 1_555
H8 C10 1_555 1_555
C11 C6 1_555 1_555
H9 C11 1_555 1_555
C12 P1 1_555 1_555
C13 C12 1_555 1_555
H10 C13 1_555 1_555
C14 C13 1_555 1_555
H11 C14 1_555 1_555
C15 C14 1_555 1_555
H12 C15 1_555 1_555
C16 C15 1_555 1_555
H13 C16 1_555 1_555
C17 C12 1_555 1_555
H14 C17 1_555 1_555
C18 P2 1_555 1_555
C19 C18 1_555 1_555
H15 C19 1_555 1_555
C20 C19 1_555 1_555
H16 C20 1_555 1_555
C21 C20 1_555 1_555
H17 C21 1_555 1_555
C22 C21 1_555 1_555
H18 C22 1_555 1_555
C23 C18 1_555 1_555
H19 C23 1_555 1_555
C24 P2 1_555 1_555
C25 C24 1_555 1_555
H20 C25 1_555 1_555
C26 C25 1_555 1_555
H21 C26 1_555 1_555
C27 C26 1_555 1_555
H22 C27 1_555 1_555
C28 C27 1_555 1_555
H23 C28 1_555 1_555
C29 C24 1_555 1_555
H24 C29 1_555 1_555
C30 C31 1_555 1_555
C31 O2 1_555 1_555
F1 C30 1_555 1_555
F2 C30 1_555 1_555
F3 C30 1_555 1_555
O3 C31 1_555 1_555
C32 O4 1_555 1_555
Au2A Au1 1_555 1_555
Au1O Au2 1_555 1_555
P2 C5 1_555 1_555
C3 C4 1_555 1_555
C10 C11 1_555 1_555
C16 C17 1_555 1_555
C22 C23 1_555 1_555
C28 C29 1_555 1_555

#END
