
#######################################################################
#
#                 Cambridge Crystallographic Data Centre
#                                CCDC 
#
#######################################################################
#
# If this CIF has been generated from an entry in the Cambridge 
# Structural Database, then it will include bibliographic, chemical, 
# crystal, experimental, refinement or atomic coordinate data resulting 
# from the CCDC's data processing and validation procedures.
#
#######################################################################

data_EJOMUM
_symmetry_cell_setting           triclinic
_symmetry_space_group_name_H-M   'P -1'
_symmetry_Int_Tables_number      2
_space_group_name_Hall           '-P 1'
loop_
_symmetry_equiv_pos_site_id
_symmetry_equiv_pos_as_xyz
1 x,y,z
2 -x,-y,-z
_cell_length_a                   9.5121(5)
_cell_length_b                   11.4333(6)
_cell_length_c                   12.3811(10)
_cell_angle_alpha                99.4600(10)
_cell_angle_beta                 100.1680(10)
_cell_angle_gamma                114.0120(10)
_cell_volume                     1168.14
loop_
_atom_site_label
_atom_site_type_symbol
_atom_site_fract_x
_atom_site_fract_y
_atom_site_fract_z
Sm1 Sm 0.31025(2) 0.466489(16) 0.096550(14)
Cu1 Cu 0.26246(7) -0.02351(5) 0.59551(4)
S1 S 0.30569(10) 0.22957(8) -0.14768(7)
S2 S 0.21567(11) 0.71504(9) 0.27536(7)
O1 O 0.1827(3) 0.2789(3) 0.1720(2)
O2 O 0.3777(3) 0.4522(2) 0.3026(2)
O3 O 0.2234(3) 0.6072(3) 0.1965(2)
O4 O 0.2385(3) 0.2922(2) -0.07320(19)
O5 O 0.1232(3) 0.7694(2) 0.2139(2)
O6 O 0.3692(3) 0.8122(3) 0.3461(2)
O7 O 0.5271(3) 0.4101(2) 0.1080(2)
O8 O 0.4515(3) 0.3274(2) -0.1653(2)
O9 O 0.1900(3) 0.1434(2) -0.2531(2)
N1 N 0.2515(4) 0.0862(3) 0.4998(3)
N2 N 0.7181(4) 0.1437(3) 0.3226(3)
C1 C -0.1375(5) 0.5579(4) 0.4247(3)
H1 H -0.2388 0.5519 0.4208
C2 C -0.0489(5) 0.6267(4) 0.3601(3)
H2 H -0.0891 0.6684 0.3137
C3 C 0.1040(4) 0.6339(4) 0.3643(3)
C4 C 0.1657(5) 0.5748(4) 0.4336(3)
H3 H 0.2667 0.5809 0.4356
C5 C -0.0771(4) 0.4957(4) 0.4976(3)
C6 C 0.5647(5) 0.2442(4) 0.2434(3)
H4 H 0.4730 0.2565 0.2366
C7 C 0.5889(5) 0.1647(4) 0.3087(4)
H5 H 0.5118 0.1235 0.3449
C8 C 0.8267(5) 0.2053(4) 0.2698(3)
H6 H 0.9183 0.1928 0.2788
C9 C 0.8103(4) 0.2859(4) 0.2034(3)
H7 H 0.8897 0.3269 0.1688
C10 C 0.5003(4) 0.1183(3) -0.0865(3)
H8 H 0.5610 0.1656 -0.1299
C11 C 0.5482(4) 0.0363(3) -0.0319(3)
C12 C 0.6877(4) 0.0234(4) -0.0401(3)
H9 H 0.7509 0.0710 -0.0822
C13 C 0.2682(4) 0.0567(3) -0.0119(3)
H10 H 0.1761 0.0644 -0.0057
C14 C 0.3649(4) 0.1284(3) -0.0759(3)
C15 C 0.3449(5) 0.2174(4) 0.5350(3)
H11 H 0.4054 0.2544 0.6105
C16 C 0.3550(4) 0.2991(3) 0.4647(3)
H12 H 0.4239 0.3894 0.4918
C17 C 0.2623(4) 0.2472(3) 0.3523(3)
C18 C 0.1633(4) 0.1123(4) 0.3165(3)
H13 H 0.0985 0.0738 0.2422
C19 C 0.1609(4) 0.0354(3) 0.3912(3)
H14 H 0.0941 -0.0554 0.3657
C20 C 0.6759(4) 0.3060(3) 0.1878(3)
C21 C 0.6455(4) 0.3878(3) 0.1109(3)
C22 C 0.2741(4) 0.3332(4) 0.2720(3)
O10 O 0.7390(3) 0.4246(2) 0.0493(2)
O11 O 0.0212(3) 0.3725(2) 0.0096(2)
H15 H -0.0222 0.3247 -0.0555
H16 H -0.0431 0.3972 0.0261
Sm1A Sm -0.31025(2) 0.533511(16) 0.903450(14)
Sm1A_2 Sm 0.68975(2) 0.533511(16) -0.096550(14)
Sm1A_3 Sm 0.68975(2) -0.466489(16) -0.096550(14)
Sm1_2 Sm 0.31025(2) -0.533511(16) 0.096550(14)
Cu1A Cu 0.73754(7) 0.02351(5) 0.40449(4)
Cu1_2 Cu 0.26246(7) 0.97649(5) -0.40449(4)
Cu1A_2 Cu -0.26246(7) 1.02351(5) 0.40449(4)
S1A S 0.69431(10) -0.22957(8) 0.14768(7)
S2A S -0.21567(11) 0.28496(9) 0.72464(7)
O1A O -0.1827(3) 0.7211(3) 0.8280(2)
O2A O -0.3777(3) 0.5478(2) 0.6974(2)
O3A O -0.2234(3) 0.3928(3) 0.8035(2)
O4A O 0.7615(3) -0.2922(2) 0.07320(19)
O4A_2 O -0.2385(3) 0.7078(2) 1.07320(19)
O5A O -0.1232(3) 0.2306(2) 0.7861(2)
O6A O -0.3692(3) 0.1878(3) 0.6539(2)
O7A O 0.4729(3) 0.5899(2) -0.1080(2)
O7A_2 O -0.5271(3) 0.5899(2) 0.8920(2)
O8A O 0.5485(3) -0.3274(2) 0.1653(2)
O8A_2 O 0.5485(3) 0.6726(2) 0.1653(2)
O8_2 O -0.5485(3) 0.3274(2) 0.8347(2)
O9A O 0.8100(3) -0.1434(2) 0.2531(2)
N1A N -0.2515(4) 0.9138(3) 0.5002(3)
N1A_2 N 0.7485(4) -0.0862(3) 0.5002(3)
N2A N 0.2819(4) 0.8563(3) -0.3226(3)
N2A_2 N 0.2819(4) -0.1437(3) 0.6774(3)
C1A C 0.1375(5) 0.4421(4) 0.5753(3)
H1A H 0.2388 0.4481 0.5792
C2A C 0.0489(5) 0.3733(4) 0.6399(3)
H2A H 0.0891 0.3316 0.6863
C3A C -0.1040(4) 0.3661(4) 0.6357(3)
C4A C -0.1657(5) 0.4252(4) 0.5664(3)
H3A H -0.2667 0.4191 0.5644
C5A C 0.0771(4) 0.5043(4) 0.5024(3)
C6A C 0.4353(5) 0.7558(4) -0.2434(3)
H4A H 0.5270 0.7435 -0.2366
C7A C 0.4111(5) 0.8353(4) -0.3087(4)
H5A H 0.4882 0.8765 -0.3449
C8A C 0.1733(5) 0.7947(4) -0.2698(3)
H6A H 0.0817 0.8072 -0.2788
C9A C 0.1897(4) 0.7141(4) -0.2034(3)
H7A H 0.1103 0.6731 -0.1688
C10A C 0.4997(4) -0.1183(3) 0.0865(3)
H8A H 0.4390 -0.1656 0.1299
C11A C 0.4518(4) -0.0363(3) 0.0319(3)
C12A C 0.3123(4) -0.0234(4) 0.0401(3)
H9A H 0.2491 -0.0710 0.0822
C13A C 0.7318(4) -0.0567(3) 0.0119(3)
H10A H 0.8239 -0.0644 0.0057
C14A C 0.6351(4) -0.1284(3) 0.0759(3)
C15A C -0.3449(5) 0.7826(4) 0.4650(3)
H11A H -0.4054 0.7456 0.3895
C16A C -0.3550(4) 0.7009(3) 0.5353(3)
H12A H -0.4239 0.6106 0.5082
C17A C -0.2623(4) 0.7528(3) 0.6477(3)
C18A C -0.1633(4) 0.8877(4) 0.6835(3)
H13A H -0.0985 0.9262 0.7578
C19A C -0.1609(4) 0.9646(3) 0.6088(3)
H14A H -0.0941 1.0554 0.6343
C20A C 0.3241(4) 0.6940(3) -0.1878(3)
C21A C 0.3545(4) 0.6122(3) -0.1109(3)
C22A C -0.2741(4) 0.6668(4) 0.7280(3)
O10A O 0.2610(3) 0.5754(2) -0.0493(2)
O10_2 O -0.2610(3) 0.4246(2) 1.0493(2)
O11A O -0.0212(3) 0.6275(2) 0.9904(2)
H15A H 0.0222 0.6753 1.0555
H16A H 0.0431 0.6028 0.9739
loop_
_geom_bond_atom_site_label_1
_geom_bond_atom_site_label_2
_geom_bond_site_symmetry_1
_geom_bond_site_symmetry_2
Sm1 O1 1_555 1_555
Cu1 N1 1_555 1_555
S1 O4 1_555 1_555
S2 O3 1_555 1_555
O1 C22 1_555 1_555
O2 Sm1 1_555 1_555
O3 Sm1 1_555 1_555
O4 Sm1 1_555 1_555
O5 S2 1_555 1_555
O6 S2 1_555 1_555
O7 Sm1 1_555 1_555
O8 S1 1_555 1_555
O9 S1 1_555 1_555
N1 C15 1_555 1_555
N2 C7 1_555 1_555
C1 H1 1_555 1_555
C2 C1 1_555 1_555
H2 C2 1_555 1_555
C3 S2 1_555 1_555
C4 C3 1_555 1_555
H3 C4 1_555 1_555
C5 C1 1_555 1_555
C6 H4 1_555 1_555
C7 C6 1_555 1_555
H5 C7 1_555 1_555
C8 N2 1_555 1_555
H6 C8 1_555 1_555
C9 C8 1_555 1_555
H7 C9 1_555 1_555
C10 H8 1_555 1_555
C11 C10 1_555 1_555
C12 C11 1_555 1_555
H9 C12 1_555 1_555
C13 H10 1_555 1_555
C14 S1 1_555 1_555
C15 H11 1_555 1_555
C16 C15 1_555 1_555
H12 C16 1_555 1_555
C17 C16 1_555 1_555
C18 C17 1_555 1_555
H13 C18 1_555 1_555
C19 N1 1_555 1_555
H14 C19 1_555 1_555
C20 C6 1_555 1_555
C21 O7 1_555 1_555
C22 O2 1_555 1_555
O10 C21 1_555 1_555
O11 Sm1 1_555 1_555
H15 O11 1_555 1_555
H16 O11 1_555 1_555
Sm1A O1A 1_555 1_555
Sm1A_2 O8 1_555 1_555
Sm1A_3 O4A 1_555 1_555
Sm1_2 O8A 1_555 1_555
Cu1A N2 1_555 1_555
Cu1_2 N2A 1_555 1_555
Cu1A_2 N1A 1_555 1_555
S1A O4A 1_555 1_555
S2A O3A 1_555 1_555
O1A C22A 1_555 1_555
O2A Sm1A 1_555 1_555
O3A Sm1A 1_555 1_555
O4A_2 Sm1A 1_555 1_555
O5A S2A 1_555 1_555
O6A S2A 1_555 1_555
O7A Sm1A_2 1_555 1_555
O7A_2 Sm1A 1_555 1_555
O8A S1A 1_555 1_555
O8A_2 Sm1 1_555 1_555
O8_2 Sm1A 1_555 1_555
O9A S1A 1_555 1_555
N1A C15A 1_555 1_555
N1A_2 Cu1A 1_555 1_555
N2A C7A 1_555 1_555
N2A_2 Cu1 1_555 1_555
C1A H1A 1_555 1_555
C2A C1A 1_555 1_555
H2A C2A 1_555 1_555
C3A S2A 1_555 1_555
C4A C5 1_555 1_555
H3A C4A 1_555 1_555
C5A C4 1_555 1_555
C6A H4A 1_555 1_555
C7A C6A 1_555 1_555
H5A C7A 1_555 1_555
C8A N2A 1_555 1_555
H6A C8A 1_555 1_555
C9A C8A 1_555 1_555
H7A C9A 1_555 1_555
C10A H8A 1_555 1_555
C11A C11 1_555 1_555
C12A C13 1_555 1_555
H9A C12A 1_555 1_555
C13A C12 1_555 1_555
H10A C13A 1_555 1_555
C14A S1A 1_555 1_555
C15A H11A 1_555 1_555
C16A C15A 1_555 1_555
H12A C16A 1_555 1_555
C17A C16A 1_555 1_555
C18A C17A 1_555 1_555
H13A C18A 1_555 1_555
C19A N1A 1_555 1_555
H14A C19A 1_555 1_555
C20A C6A 1_555 1_555
C21A O7A 1_555 1_555
C22A O2A 1_555 1_555
O10A Sm1 1_555 1_555
O10_2 Sm1A 1_555 1_555
O11A Sm1A 1_555 1_555
H15A O11A 1_555 1_555
H16A O11A 1_555 1_555
C2 C3 1_555 1_555
C5 C5A 1_555 1_555
C9 C20 1_555 1_555
C10 C14 1_555 1_555
C13 C14 1_555 1_555
C17 C22 1_555 1_555
C18 C19 1_555 1_555
C20 C21 1_555 1_555
O10 Sm1A_2 1_555 1_555
C1A C5A 1_555 1_555
C2A C3A 1_555 1_555
C3A C4A 1_555 1_555
C9A C20A 1_555 1_555
C10A C11A 1_555 1_555
C10A C14A 1_555 1_555
C11A C12A 1_555 1_555
C13A C14A 1_555 1_555
C17A C22A 1_555 1_555
C18A C19A 1_555 1_555
C20A C21A 1_555 1_555
C21A O10A 1_555 1_555

#END
