
#######################################################################
#
#                 Cambridge Crystallographic Data Centre
#                                CCDC 
#
#######################################################################
#
# If this CIF has been generated from an entry in the Cambridge 
# Structural Database, then it will include bibliographic, chemical, 
# crystal, experimental, refinement or atomic coordinate data resulting 
# from the CCDC's data processing and validation procedures.
#
#######################################################################

data_EJOMOG
_symmetry_cell_setting           triclinic
_symmetry_space_group_name_H-M   'P -1'
_symmetry_Int_Tables_number      2
_space_group_name_Hall           '-P 1'
loop_
_symmetry_equiv_pos_site_id
_symmetry_equiv_pos_as_xyz
1 x,y,z
2 -x,-y,-z
_cell_length_a                   9.4878(10)
_cell_length_b                   11.3999(12)
_cell_length_c                   12.373(2)
_cell_angle_alpha                99.3880(10)
_cell_angle_beta                 100.1550(10)
_cell_angle_gamma                113.9630(10)
_cell_volume                     1162.05
loop_
_atom_site_label
_atom_site_type_symbol
_atom_site_fract_x
_atom_site_fract_y
_atom_site_fract_z
Gd1 Gd 0.309614(17) 0.466127(14) 0.096256(12)
Cu1 Cu 0.26009(6) -0.02303(5) 0.59624(4)
S1 S 0.30722(9) 0.23196(7) -0.14723(6)
S2 S 0.21629(10) 0.71354(8) 0.27385(7)
O1 O 0.1825(3) 0.2796(2) 0.1706(2)
O2 O 0.3773(3) 0.4529(2) 0.30130(19)
O3 O 0.2217(3) 0.6050(2) 0.1943(2)
O4 O 0.2394(2) 0.2946(2) -0.07276(18)
O5 O 0.1248(3) 0.7697(2) 0.21343(19)
O6 O 0.3712(3) 0.8098(3) 0.3445(2)
O7 O 0.5237(3) 0.4097(2) 0.10883(19)
O8 O 0.4540(2) 0.3297(2) -0.16390(18)
O9 O 0.1924(3) 0.1467(2) -0.25279(19)
N1 N 0.2484(3) 0.0860(3) 0.4994(2)
N2 N 0.7199(4) 0.1430(3) 0.3221(2)
C1 C -0.1371(4) 0.5572(4) 0.4234(3)
H1 H -0.2390 0.5508 0.4188
C2 C -0.0481(4) 0.6261(4) 0.3585(3)
H2 H -0.0880 0.6678 0.3116
C3 C 0.1040(4) 0.6326(3) 0.3641(3)
C4 C 0.1662(4) 0.5744(3) 0.4337(3)
H3 H 0.2676 0.5808 0.4361
C5 C -0.0771(4) 0.4958(3) 0.4973(3)
C6 C 0.5648(4) 0.2433(4) 0.2429(3)
H4 H 0.4720 0.2544 0.2360
C7 C 0.5901(5) 0.1636(4) 0.3085(3)
H5 H 0.5132 0.1222 0.3451
C8 C 0.8281(4) 0.2061(4) 0.2692(3)
H6 H 0.9207 0.1946 0.2782
C9 C 0.8101(4) 0.2868(4) 0.2024(3)
H7 H 0.8889 0.3280 0.1672
C10 C 0.5010(4) 0.1194(3) -0.0863(3)
H8 H 0.5623 0.1674 -0.1292
C11 C 0.5483(4) 0.0358(3) -0.0326(3)
C12 C 0.6883(4) 0.0237(3) -0.0400(3)
H9 H 0.7527 0.0721 -0.0812
C13 C 0.2691(4) 0.0579(3) -0.0123(3)
H10 H 0.1768 0.0657 -0.0062
C14 C 0.3651(4) 0.1301(3) -0.0753(3)
C15 C 0.3431(4) 0.2180(3) 0.5353(3)
H11 H 0.4037 0.2550 0.6107
C16 C 0.3525(4) 0.2997(3) 0.4636(3)
H12 H 0.4206 0.3903 0.4904
C17 C 0.2610(4) 0.2473(3) 0.3515(3)
C18 C 0.1624(4) 0.1119(3) 0.3158(3)
H13 H 0.0981 0.0731 0.2414
C19 C 0.1599(4) 0.0349(3) 0.3910(3)
H14 H 0.0941 -0.0562 0.3656
C20 C 0.6748(4) 0.3064(3) 0.1878(3)
C21 C 0.6433(4) 0.3879(3) 0.1105(3)
C22 C 0.2740(4) 0.3339(3) 0.2703(3)
O10 O 0.7362(3) 0.4257(2) 0.04889(18)
O11 O 0.0225(3) 0.3733(2) 0.00936(18)
H15 H -0.0209 0.3255 -0.0558
H16 H -0.0418 0.3980 0.0259
Gd1A Gd -0.309614(17) 0.533873(14) 0.903744(12)
Gd1A_2 Gd 0.690386(17) 0.533873(14) -0.096256(12)
Gd1A_3 Gd 0.690386(17) -0.466127(14) -0.096256(12)
Gd1_2 Gd 0.309614(17) -0.533873(14) 0.096256(12)
Cu1A Cu 0.73991(6) 0.02303(5) 0.40376(4)
Cu1_2 Cu 0.26009(6) 0.97697(5) -0.40376(4)
Cu1A_2 Cu -0.26009(6) 1.02303(5) 0.40376(4)
S1A S 0.69278(9) -0.23196(7) 0.14723(6)
S2A S -0.21629(10) 0.28646(8) 0.72615(7)
O1A O -0.1825(3) 0.7204(2) 0.8294(2)
O2A O -0.3773(3) 0.5471(2) 0.69870(19)
O3A O -0.2217(3) 0.3950(2) 0.8057(2)
O4A O 0.7606(2) -0.2946(2) 0.07276(18)
O4A_2 O -0.2394(2) 0.7054(2) 1.07276(18)
O5A O -0.1248(3) 0.2303(2) 0.78657(19)
O6A O -0.3712(3) 0.1902(3) 0.6555(2)
O7A O 0.4763(3) 0.5903(2) -0.10883(19)
O7A_2 O -0.5237(3) 0.5903(2) 0.89117(19)
O8A O 0.5460(2) -0.3297(2) 0.16390(18)
O8A_2 O 0.5460(2) 0.6703(2) 0.16390(18)
O8_2 O -0.5460(2) 0.3297(2) 0.83610(18)
O9A O 0.8076(3) -0.1467(2) 0.25279(19)
N1A N -0.2484(3) 0.9140(3) 0.5006(2)
N1A_2 N 0.7516(3) -0.0860(3) 0.5006(2)
N2A N 0.2801(4) 0.8570(3) -0.3221(2)
N2A_2 N 0.2801(4) -0.1430(3) 0.6779(2)
C1A C 0.1371(4) 0.4428(4) 0.5766(3)
H1A H 0.2390 0.4492 0.5812
C2A C 0.0481(4) 0.3739(4) 0.6415(3)
H2A H 0.0880 0.3322 0.6884
C3A C -0.1040(4) 0.3674(3) 0.6359(3)
C4A C -0.1662(4) 0.4256(3) 0.5663(3)
H3A H -0.2676 0.4192 0.5639
C5A C 0.0771(4) 0.5042(3) 0.5027(3)
C6A C 0.4352(4) 0.7567(4) -0.2429(3)
H4A H 0.5280 0.7456 -0.2360
C7A C 0.4099(5) 0.8364(4) -0.3085(3)
H5A H 0.4868 0.8778 -0.3451
C8A C 0.1719(4) 0.7939(4) -0.2692(3)
H6A H 0.0793 0.8054 -0.2782
C9A C 0.1899(4) 0.7132(4) -0.2024(3)
H7A H 0.1111 0.6720 -0.1672
C10A C 0.4990(4) -0.1194(3) 0.0863(3)
H8A H 0.4377 -0.1674 0.1292
C11A C 0.4517(4) -0.0358(3) 0.0326(3)
C12A C 0.3117(4) -0.0237(3) 0.0400(3)
H9A H 0.2473 -0.0721 0.0812
C13A C 0.7309(4) -0.0579(3) 0.0123(3)
H10A H 0.8232 -0.0657 0.0062
C14A C 0.6349(4) -0.1301(3) 0.0753(3)
C15A C -0.3431(4) 0.7820(3) 0.4647(3)
H11A H -0.4037 0.7450 0.3893
C16A C -0.3525(4) 0.7003(3) 0.5364(3)
H12A H -0.4206 0.6097 0.5096
C17A C -0.2610(4) 0.7527(3) 0.6485(3)
C18A C -0.1624(4) 0.8881(3) 0.6842(3)
H13A H -0.0981 0.9269 0.7586
C19A C -0.1599(4) 0.9651(3) 0.6090(3)
H14A H -0.0941 1.0562 0.6344
C20A C 0.3252(4) 0.6936(3) -0.1878(3)
C21A C 0.3567(4) 0.6121(3) -0.1105(3)
C22A C -0.2740(4) 0.6661(3) 0.7297(3)
O10A O 0.2638(3) 0.5743(2) -0.04889(18)
O10_2 O -0.2638(3) 0.4257(2) 1.04889(18)
O11A O -0.0225(3) 0.6267(2) 0.99064(18)
H15A H 0.0209 0.6745 1.0558
H16A H 0.0418 0.6020 0.9741
loop_
_geom_bond_atom_site_label_1
_geom_bond_atom_site_label_2
_geom_bond_site_symmetry_1
_geom_bond_site_symmetry_2
Gd1 O1 1_555 1_555
Cu1 N1 1_555 1_555
S1 O4 1_555 1_555
S2 O3 1_555 1_555
O1 C22 1_555 1_555
O2 Gd1 1_555 1_555
O3 Gd1 1_555 1_555
O4 Gd1 1_555 1_555
O5 S2 1_555 1_555
O6 S2 1_555 1_555
O7 Gd1 1_555 1_555
O8 S1 1_555 1_555
O9 S1 1_555 1_555
N1 C15 1_555 1_555
N2 C7 1_555 1_555
C1 H1 1_555 1_555
C2 C1 1_555 1_555
H2 C2 1_555 1_555
C3 S2 1_555 1_555
C4 C3 1_555 1_555
H3 C4 1_555 1_555
C5 C1 1_555 1_555
C6 H4 1_555 1_555
C7 C6 1_555 1_555
H5 C7 1_555 1_555
C8 N2 1_555 1_555
H6 C8 1_555 1_555
C9 C8 1_555 1_555
H7 C9 1_555 1_555
C10 H8 1_555 1_555
C11 C10 1_555 1_555
C12 C11 1_555 1_555
H9 C12 1_555 1_555
C13 H10 1_555 1_555
C14 S1 1_555 1_555
C15 H11 1_555 1_555
C16 C15 1_555 1_555
H12 C16 1_555 1_555
C17 C16 1_555 1_555
C18 C17 1_555 1_555
H13 C18 1_555 1_555
C19 N1 1_555 1_555
H14 C19 1_555 1_555
C20 C6 1_555 1_555
C21 O7 1_555 1_555
C22 O2 1_555 1_555
O10 C21 1_555 1_555
O11 Gd1 1_555 1_555
H15 O11 1_555 1_555
H16 O11 1_555 1_555
Gd1A O1A 1_555 1_555
Gd1A_2 O8 1_555 1_555
Gd1A_3 O4A 1_555 1_555
Gd1_2 O8A 1_555 1_555
Cu1A N2 1_555 1_555
Cu1_2 N2A 1_555 1_555
Cu1A_2 N1A 1_555 1_555
S1A O4A 1_555 1_555
S2A O3A 1_555 1_555
O1A C22A 1_555 1_555
O2A Gd1A 1_555 1_555
O3A Gd1A 1_555 1_555
O4A_2 Gd1A 1_555 1_555
O5A S2A 1_555 1_555
O6A S2A 1_555 1_555
O7A Gd1A_2 1_555 1_555
O7A_2 Gd1A 1_555 1_555
O8A S1A 1_555 1_555
O8A_2 Gd1 1_555 1_555
O8_2 Gd1A 1_555 1_555
O9A S1A 1_555 1_555
N1A C15A 1_555 1_555
N1A_2 Cu1A 1_555 1_555
N2A C7A 1_555 1_555
N2A_2 Cu1 1_555 1_555
C1A H1A 1_555 1_555
C2A C1A 1_555 1_555
H2A C2A 1_555 1_555
C3A S2A 1_555 1_555
C4A C5 1_555 1_555
H3A C4A 1_555 1_555
C5A C4 1_555 1_555
C6A H4A 1_555 1_555
C7A C6A 1_555 1_555
H5A C7A 1_555 1_555
C8A N2A 1_555 1_555
H6A C8A 1_555 1_555
C9A C8A 1_555 1_555
H7A C9A 1_555 1_555
C10A H8A 1_555 1_555
C11A C11 1_555 1_555
C12A C13 1_555 1_555
H9A C12A 1_555 1_555
C13A C12 1_555 1_555
H10A C13A 1_555 1_555
C14A S1A 1_555 1_555
C15A H11A 1_555 1_555
C16A C15A 1_555 1_555
H12A C16A 1_555 1_555
C17A C16A 1_555 1_555
C18A C17A 1_555 1_555
H13A C18A 1_555 1_555
C19A N1A 1_555 1_555
H14A C19A 1_555 1_555
C20A C6A 1_555 1_555
C21A O7A 1_555 1_555
C22A O2A 1_555 1_555
O10A Gd1 1_555 1_555
O10_2 Gd1A 1_555 1_555
O11A Gd1A 1_555 1_555
H15A O11A 1_555 1_555
H16A O11A 1_555 1_555
C2 C3 1_555 1_555
C5 C5A 1_555 1_555
C9 C20 1_555 1_555
C10 C14 1_555 1_555
C13 C14 1_555 1_555
C17 C22 1_555 1_555
C18 C19 1_555 1_555
C20 C21 1_555 1_555
O10 Gd1A_2 1_555 1_555
C1A C5A 1_555 1_555
C2A C3A 1_555 1_555
C3A C4A 1_555 1_555
C9A C20A 1_555 1_555
C10A C11A 1_555 1_555
C10A C14A 1_555 1_555
C11A C12A 1_555 1_555
C13A C14A 1_555 1_555
C17A C22A 1_555 1_555
C18A C19A 1_555 1_555
C20A C21A 1_555 1_555
C21A O10A 1_555 1_555

#END
