
#######################################################################
#
#                 Cambridge Crystallographic Data Centre
#                                CCDC 
#
#######################################################################
#
# If this CIF has been generated from an entry in the Cambridge 
# Structural Database, then it will include bibliographic, chemical, 
# crystal, experimental, refinement or atomic coordinate data resulting 
# from the CCDC's data processing and validation procedures.
#
#######################################################################

data_EJOMEW
_symmetry_cell_setting           triclinic
_symmetry_space_group_name_H-M   'P -1'
_symmetry_Int_Tables_number      2
_space_group_name_Hall           '-P 1'
loop_
_symmetry_equiv_pos_site_id
_symmetry_equiv_pos_as_xyz
1 x,y,z
2 -x,-y,-z
_cell_length_a                   9.4926(14)
_cell_length_b                   11.3728(17)
_cell_length_c                   12.345(3)
_cell_angle_alpha                99.253(2)
_cell_angle_beta                 100.231(2)
_cell_angle_gamma                114.0640(10)
_cell_volume                     1156.52
loop_
_atom_site_label
_atom_site_type_symbol
_atom_site_fract_x
_atom_site_fract_y
_atom_site_fract_z
Dy1 Dy 0.309515(15) 0.466253(12) 0.095883(10)
Cu1 Cu 0.25721(6) -0.02290(5) 0.59660(4)
S1 S 0.30871(8) 0.23428(7) -0.14650(6)
S2 S 0.21751(9) 0.71247(8) 0.27281(6)
O1 O 0.1833(3) 0.2810(2) 0.16869(19)
O2 O 0.3770(3) 0.4540(2) 0.30004(18)
O3 O 0.2213(3) 0.6033(2) 0.19249(19)
O4 O 0.2406(2) 0.2963(2) -0.07218(17)
O5 O 0.1272(3) 0.7703(2) 0.21301(19)
O6 O 0.3733(3) 0.8086(3) 0.3434(2)
O7 O 0.5198(3) 0.4090(2) 0.11025(18)
O8 O 0.4556(2) 0.3320(2) -0.16317(17)
O9 O 0.1939(3) 0.1487(2) -0.25274(18)
N1 N 0.2461(3) 0.0860(3) 0.4987(2)
N2 N 0.7220(3) 0.1434(3) 0.3213(2)
C1 C -0.1370(4) 0.5572(3) 0.4222(3)
H1 H -0.2387 0.5513 0.4174
C2 C -0.0473(4) 0.6256(3) 0.3568(3)
H2 H -0.0869 0.6671 0.3092
C3 C 0.1050(4) 0.6321(3) 0.3628(2)
C4 C 0.1670(4) 0.5743(3) 0.4345(3)
H3 H 0.2688 0.5811 0.4379
C5 C -0.0776(4) 0.4954(3) 0.4967(3)
C6 C 0.5627(4) 0.2419(3) 0.2433(3)
H4 H 0.4693 0.2519 0.2364
C7 C 0.5909(5) 0.1631(4) 0.3089(3)
H5 H 0.5154 0.1214 0.3464
C8 C 0.8294(4) 0.2070(4) 0.2677(3)
H6 H 0.9219 0.1955 0.2757
C9 C 0.8097(4) 0.2885(3) 0.2013(3)
H7 H 0.8880 0.3312 0.1661
C10 C 0.5010(4) 0.1196(3) -0.0864(3)
H8 H 0.5613 0.1667 -0.1305
C11 C 0.5489(4) 0.0370(3) -0.0322(3)
C12 C 0.6889(4) 0.0237(3) -0.0399(3)
H9 H 0.7533 0.0720 -0.0813
C13 C 0.2688(4) 0.0585(3) -0.0122(3)
H10 H 0.1765 0.0664 -0.0063
C14 C 0.3663(4) 0.1312(3) -0.0747(2)
C15 C 0.3404(4) 0.2184(3) 0.5345(3)
H11 H 0.4003 0.2554 0.6103
C16 C 0.3513(4) 0.3008(3) 0.4632(3)
H12 H 0.4195 0.3916 0.4903
C17 C 0.2602(3) 0.2479(3) 0.3506(2)
C18 C 0.1607(4) 0.1121(3) 0.3143(3)
H13 H 0.0963 0.0734 0.2397
C19 C 0.1581(4) 0.0349(3) 0.3902(3)
H14 H 0.0925 -0.0565 0.3648
C20 C 0.6736(4) 0.3064(3) 0.1876(2)
C21 C 0.6389(3) 0.3877(3) 0.1101(2)
C22 C 0.2739(4) 0.3343(3) 0.2689(3)
O10 O 0.7316(3) 0.4265(2) 0.04792(18)
O11 O 0.0256(2) 0.3748(2) 0.00933(18)
H15 H -0.0178 0.3270 -0.0558
H16 H -0.0387 0.3995 0.0258
Dy1A Dy -0.309515(15) 0.533747(12) 0.904117(10)
Dy1A_2 Dy 0.690485(15) 0.533747(12) -0.095883(10)
Dy1A_3 Dy 0.690485(15) -0.466253(12) -0.095883(10)
Dy1_2 Dy 0.309515(15) -0.533747(12) 0.095883(10)
Cu1A Cu 0.74279(6) 0.02290(5) 0.40340(4)
Cu1_2 Cu 0.25721(6) 0.97710(5) -0.40340(4)
Cu1A_2 Cu -0.25721(6) 1.02290(5) 0.40340(4)
S1A S 0.69129(8) -0.23428(7) 0.14650(6)
S2A S -0.21751(9) 0.28753(8) 0.72719(6)
O1A O -0.1833(3) 0.7190(2) 0.83131(19)
O2A O -0.3770(3) 0.5460(2) 0.69996(18)
O3A O -0.2213(3) 0.3967(2) 0.80751(19)
O4A O 0.7594(2) -0.2963(2) 0.07218(17)
O4A_2 O -0.2406(2) 0.7037(2) 1.07218(17)
O5A O -0.1272(3) 0.2297(2) 0.78699(19)
O6A O -0.3733(3) 0.1914(3) 0.6566(2)
O7A O 0.4802(3) 0.5910(2) -0.11025(18)
O7A_2 O -0.5198(3) 0.5910(2) 0.88975(18)
O8A O 0.5444(2) -0.3320(2) 0.16317(17)
O8A_2 O 0.5444(2) 0.6680(2) 0.16317(17)
O8_2 O -0.5444(2) 0.3320(2) 0.83683(17)
O9A O 0.8061(3) -0.1487(2) 0.25274(18)
N1A N -0.2461(3) 0.9140(3) 0.5013(2)
N1A_2 N 0.7539(3) -0.0860(3) 0.5013(2)
N2A N 0.2780(3) 0.8566(3) -0.3213(2)
N2A_2 N 0.2780(3) -0.1434(3) 0.6787(2)
C1A C 0.1370(4) 0.4428(3) 0.5778(3)
H1A H 0.2387 0.4487 0.5826
C2A C 0.0473(4) 0.3744(3) 0.6432(3)
H2A H 0.0869 0.3329 0.6908
C3A C -0.1050(4) 0.3679(3) 0.6372(2)
C4A C -0.1670(4) 0.4257(3) 0.5655(3)
H3A H -0.2688 0.4189 0.5621
C5A C 0.0776(4) 0.5046(3) 0.5033(3)
C6A C 0.4373(4) 0.7581(3) -0.2433(3)
H4A H 0.5307 0.7481 -0.2364
C7A C 0.4091(5) 0.8369(4) -0.3089(3)
H5A H 0.4846 0.8786 -0.3464
C8A C 0.1706(4) 0.7930(4) -0.2677(3)
H6A H 0.0781 0.8045 -0.2757
C9A C 0.1903(4) 0.7115(3) -0.2013(3)
H7A H 0.1120 0.6688 -0.1661
C10A C 0.4990(4) -0.1196(3) 0.0864(3)
H8A H 0.4387 -0.1667 0.1305
C11A C 0.4511(4) -0.0370(3) 0.0322(3)
C12A C 0.3111(4) -0.0237(3) 0.0399(3)
H9A H 0.2467 -0.0720 0.0813
C13A C 0.7312(4) -0.0585(3) 0.0122(3)
H10A H 0.8235 -0.0664 0.0063
C14A C 0.6337(4) -0.1312(3) 0.0747(2)
C15A C -0.3404(4) 0.7816(3) 0.4655(3)
H11A H -0.4003 0.7446 0.3897
C16A C -0.3513(4) 0.6992(3) 0.5368(3)
H12A H -0.4195 0.6084 0.5097
C17A C -0.2602(3) 0.7521(3) 0.6494(2)
C18A C -0.1607(4) 0.8879(3) 0.6857(3)
H13A H -0.0963 0.9266 0.7603
C19A C -0.1581(4) 0.9651(3) 0.6098(3)
H14A H -0.0925 1.0565 0.6352
C20A C 0.3264(4) 0.6936(3) -0.1876(2)
C21A C 0.3611(3) 0.6123(3) -0.1101(2)
C22A C -0.2739(4) 0.6657(3) 0.7311(3)
O10A O 0.2684(3) 0.5735(2) -0.04792(18)
O10_2 O -0.2684(3) 0.4265(2) 1.04792(18)
O11A O -0.0256(2) 0.6252(2) 0.99067(18)
H15A H 0.0178 0.6730 1.0558
H16A H 0.0387 0.6005 0.9742
loop_
_geom_bond_atom_site_label_1
_geom_bond_atom_site_label_2
_geom_bond_site_symmetry_1
_geom_bond_site_symmetry_2
Dy1 O1 1_555 1_555
Cu1 N1 1_555 1_555
S1 O4 1_555 1_555
S2 O3 1_555 1_555
O1 C22 1_555 1_555
O2 Dy1 1_555 1_555
O3 Dy1 1_555 1_555
O4 Dy1 1_555 1_555
O5 S2 1_555 1_555
O6 S2 1_555 1_555
O7 Dy1 1_555 1_555
O8 S1 1_555 1_555
O9 S1 1_555 1_555
N1 C15 1_555 1_555
N2 C7 1_555 1_555
C1 H1 1_555 1_555
C2 C1 1_555 1_555
H2 C2 1_555 1_555
C3 S2 1_555 1_555
C4 C3 1_555 1_555
H3 C4 1_555 1_555
C5 C1 1_555 1_555
C6 H4 1_555 1_555
C7 C6 1_555 1_555
H5 C7 1_555 1_555
C8 N2 1_555 1_555
H6 C8 1_555 1_555
C9 C8 1_555 1_555
H7 C9 1_555 1_555
C10 H8 1_555 1_555
C11 C10 1_555 1_555
C12 C11 1_555 1_555
H9 C12 1_555 1_555
C13 H10 1_555 1_555
C14 S1 1_555 1_555
C15 H11 1_555 1_555
C16 C15 1_555 1_555
H12 C16 1_555 1_555
C17 C16 1_555 1_555
C18 C17 1_555 1_555
H13 C18 1_555 1_555
C19 N1 1_555 1_555
H14 C19 1_555 1_555
C20 C6 1_555 1_555
C21 O7 1_555 1_555
C22 O2 1_555 1_555
O10 C21 1_555 1_555
O11 Dy1 1_555 1_555
H15 O11 1_555 1_555
H16 O11 1_555 1_555
Dy1A O1A 1_555 1_555
Dy1A_2 O8 1_555 1_555
Dy1A_3 O4A 1_555 1_555
Dy1_2 O8A 1_555 1_555
Cu1A N2 1_555 1_555
Cu1_2 N2A 1_555 1_555
Cu1A_2 N1A 1_555 1_555
S1A O4A 1_555 1_555
S2A O3A 1_555 1_555
O1A C22A 1_555 1_555
O2A Dy1A 1_555 1_555
O3A Dy1A 1_555 1_555
O4A_2 Dy1A 1_555 1_555
O5A S2A 1_555 1_555
O6A S2A 1_555 1_555
O7A Dy1A_2 1_555 1_555
O7A_2 Dy1A 1_555 1_555
O8A S1A 1_555 1_555
O8A_2 Dy1 1_555 1_555
O8_2 Dy1A 1_555 1_555
O9A S1A 1_555 1_555
N1A C15A 1_555 1_555
N1A_2 Cu1A 1_555 1_555
N2A C7A 1_555 1_555
N2A_2 Cu1 1_555 1_555
C1A H1A 1_555 1_555
C2A C1A 1_555 1_555
H2A C2A 1_555 1_555
C3A S2A 1_555 1_555
C4A C5 1_555 1_555
H3A C4A 1_555 1_555
C5A C4 1_555 1_555
C6A H4A 1_555 1_555
C7A C6A 1_555 1_555
H5A C7A 1_555 1_555
C8A N2A 1_555 1_555
H6A C8A 1_555 1_555
C9A C8A 1_555 1_555
H7A C9A 1_555 1_555
C10A H8A 1_555 1_555
C11A C11 1_555 1_555
C12A C13 1_555 1_555
H9A C12A 1_555 1_555
C13A C12 1_555 1_555
H10A C13A 1_555 1_555
C14A S1A 1_555 1_555
C15A H11A 1_555 1_555
C16A C15A 1_555 1_555
H12A C16A 1_555 1_555
C17A C16A 1_555 1_555
C18A C17A 1_555 1_555
H13A C18A 1_555 1_555
C19A N1A 1_555 1_555
H14A C19A 1_555 1_555
C20A C6A 1_555 1_555
C21A O7A 1_555 1_555
C22A O2A 1_555 1_555
O10A Dy1 1_555 1_555
O10_2 Dy1A 1_555 1_555
O11A Dy1A 1_555 1_555
H15A O11A 1_555 1_555
H16A O11A 1_555 1_555
C2 C3 1_555 1_555
C5 C5A 1_555 1_555
C9 C20 1_555 1_555
C10 C14 1_555 1_555
C13 C14 1_555 1_555
C17 C22 1_555 1_555
C18 C19 1_555 1_555
C20 C21 1_555 1_555
O10 Dy1A_2 1_555 1_555
C1A C5A 1_555 1_555
C2A C3A 1_555 1_555
C3A C4A 1_555 1_555
C9A C20A 1_555 1_555
C10A C11A 1_555 1_555
C10A C14A 1_555 1_555
C11A C12A 1_555 1_555
C13A C14A 1_555 1_555
C17A C22A 1_555 1_555
C18A C19A 1_555 1_555
C20A C21A 1_555 1_555
C21A O10A 1_555 1_555

#END
