
#######################################################################
#
#                 Cambridge Crystallographic Data Centre
#                                CCDC 
#
#######################################################################
#
# If this CIF has been generated from an entry in the Cambridge 
# Structural Database, then it will include bibliographic, chemical, 
# crystal, experimental, refinement or atomic coordinate data resulting 
# from the CCDC's data processing and validation procedures.
#
#######################################################################

data_EJOMIA
_symmetry_cell_setting           triclinic
_symmetry_space_group_name_H-M   'P -1'
_symmetry_Int_Tables_number      2
_space_group_name_Hall           '-P 1'
loop_
_symmetry_equiv_pos_site_id
_symmetry_equiv_pos_as_xyz
1 x,y,z
2 -x,-y,-z
_cell_length_a                   9.5144(6)
_cell_length_b                   11.4162(7)
_cell_length_c                   12.3690(12)
_cell_angle_alpha                99.4150(10)
_cell_angle_beta                 100.2000(10)
_cell_angle_gamma                114.0100(10)
_cell_volume                     1165.63
loop_
_atom_site_label
_atom_site_type_symbol
_atom_site_fract_x
_atom_site_fract_y
_atom_site_fract_z
Eu1 Eu 0.31012(2) 0.466483(17) 0.096428(14)
Cu1 Cu 0.26095(8) -0.02359(6) 0.59569(5)
S1 S 0.30661(11) 0.23088(8) -0.14748(7)
S2 S 0.21609(12) 0.71441(10) 0.27461(8)
O1 O 0.1825(4) 0.2800(3) 0.1713(2)
O2 O 0.3770(4) 0.4527(3) 0.3020(2)
O3 O 0.2232(4) 0.6068(3) 0.1957(2)
O4 O 0.2394(3) 0.2934(2) -0.0726(2)
O5 O 0.1247(4) 0.7698(3) 0.2138(2)
O6 O 0.3705(4) 0.8122(3) 0.3463(3)
O7 O 0.5250(3) 0.4098(3) 0.1088(2)
O8 O 0.4524(3) 0.3284(2) -0.1646(2)
O9 O 0.1915(3) 0.1443(3) -0.2537(2)
N1 N 0.2488(4) 0.0859(3) 0.4990(3)
N2 N 0.7189(4) 0.1434(3) 0.3221(3)
C1 C -0.1360(5) 0.5584(4) 0.4245(3)
H1 H -0.2369 0.5534 0.4207
C2 C -0.0483(5) 0.6263(4) 0.3591(3)
H2 H -0.0886 0.6674 0.3119
C3 C 0.1034(5) 0.6331(4) 0.3642(3)
C4 C 0.1663(5) 0.5747(4) 0.4337(3)
H3 H 0.2675 0.5814 0.4359
C5 C -0.0777(5) 0.4959(4) 0.4976(3)
C6 C 0.5646(5) 0.2438(4) 0.2436(4)
H4 H 0.4719 0.2546 0.2363
C7 C 0.5909(6) 0.1657(5) 0.3099(4)
H5 H 0.5157 0.1264 0.3482
C8 C 0.8270(5) 0.2053(5) 0.2686(4)
H6 H 0.9184 0.1925 0.2766
C9 C 0.8097(5) 0.2869(4) 0.2024(4)
H7 H 0.8886 0.3286 0.1677
C10 C 0.5004(5) 0.1186(4) -0.0871(3)
H8 H 0.5609 0.1656 -0.1308
C11 C 0.5481(5) 0.0359(3) -0.0325(3)
C12 C 0.6888(5) 0.0240(4) -0.0398(4)
H9 H 0.7535 0.0730 -0.0804
C13 C 0.2693(5) 0.0575(4) -0.0115(4)
H10 H 0.1780 0.0661 -0.0045
C14 C 0.3653(5) 0.1295(3) -0.0758(3)
C15 C 0.3438(5) 0.2176(4) 0.5350(3)
H11 H 0.4047 0.2542 0.6104
C16 C 0.3541(5) 0.2999(4) 0.4641(3)
H12 H 0.4226 0.3903 0.4910
C17 C 0.2617(4) 0.2473(4) 0.3524(3)
C18 C 0.1617(5) 0.1118(4) 0.3157(3)
H13 H 0.0972 0.0734 0.2413
C19 C 0.1594(5) 0.0349(4) 0.3910(3)
H14 H 0.0930 -0.0561 0.3657
C20 C 0.6749(5) 0.3063(4) 0.1880(3)
C21 C 0.6436(5) 0.3878(3) 0.1108(3)
C22 C 0.2736(5) 0.3329(4) 0.2705(3)
O10 O 0.7374(3) 0.4255(3) 0.0495(2)
O11 O 0.0218(3) 0.3730(3) 0.0093(2)
H15 H -0.0217 0.3252 -0.0558
H16 H -0.0425 0.3977 0.0258
Eu1A Eu -0.31012(2) 0.533517(17) 0.903572(14)
Eu1A_2 Eu 0.68988(2) 0.533517(17) -0.096428(14)
Eu1A_3 Eu 0.68988(2) -0.466483(17) -0.096428(14)
Eu1_2 Eu 0.31012(2) -0.533517(17) 0.096428(14)
Cu1A Cu 0.73905(8) 0.02359(6) 0.40431(5)
Cu1_2 Cu 0.26095(8) 0.97641(6) -0.40431(5)
Cu1A_2 Cu -0.26095(8) 1.02359(6) 0.40431(5)
S1A S 0.69339(11) -0.23088(8) 0.14748(7)
S2A S -0.21609(12) 0.28559(10) 0.72539(8)
O1A O -0.1825(4) 0.7200(3) 0.8287(2)
O2A O -0.3770(4) 0.5473(3) 0.6980(2)
O3A O -0.2232(4) 0.3932(3) 0.8043(2)
O4A O 0.7606(3) -0.2934(2) 0.0726(2)
O4A_2 O -0.2394(3) 0.7066(2) 1.0726(2)
O5A O -0.1247(4) 0.2302(3) 0.7862(2)
O6A O -0.3705(4) 0.1878(3) 0.6537(3)
O7A O 0.4750(3) 0.5902(3) -0.1088(2)
O7A_2 O -0.5250(3) 0.5902(3) 0.8912(2)
O8A O 0.5476(3) -0.3284(2) 0.1646(2)
O8A_2 O 0.5476(3) 0.6716(2) 0.1646(2)
O8_2 O -0.5476(3) 0.3284(2) 0.8354(2)
O9A O 0.8085(3) -0.1443(3) 0.2537(2)
N1A N -0.2488(4) 0.9141(3) 0.5010(3)
N1A_2 N 0.7512(4) -0.0859(3) 0.5010(3)
N2A N 0.2811(4) 0.8566(3) -0.3221(3)
N2A_2 N 0.2811(4) -0.1434(3) 0.6779(3)
C1A C 0.1360(5) 0.4416(4) 0.5755(3)
H1A H 0.2369 0.4466 0.5793
C2A C 0.0483(5) 0.3737(4) 0.6409(3)
H2A H 0.0886 0.3326 0.6881
C3A C -0.1034(5) 0.3669(4) 0.6358(3)
C4A C -0.1663(5) 0.4253(4) 0.5663(3)
H3A H -0.2675 0.4186 0.5641
C5A C 0.0777(5) 0.5041(4) 0.5024(3)
C6A C 0.4354(5) 0.7562(4) -0.2436(4)
H4A H 0.5281 0.7454 -0.2363
C7A C 0.4091(6) 0.8343(5) -0.3099(4)
H5A H 0.4843 0.8736 -0.3482
C8A C 0.1730(5) 0.7947(5) -0.2686(4)
H6A H 0.0816 0.8075 -0.2766
C9A C 0.1903(5) 0.7131(4) -0.2024(4)
H7A H 0.1114 0.6714 -0.1677
C10A C 0.4996(5) -0.1186(4) 0.0871(3)
H8A H 0.4391 -0.1656 0.1308
C11A C 0.4519(5) -0.0359(3) 0.0325(3)
C12A C 0.3112(5) -0.0240(4) 0.0398(4)
H9A H 0.2465 -0.0730 0.0804
C13A C 0.7307(5) -0.0575(4) 0.0115(4)
H10A H 0.8220 -0.0661 0.0045
C14A C 0.6347(5) -0.1295(3) 0.0758(3)
C15A C -0.3438(5) 0.7824(4) 0.4650(3)
H11A H -0.4047 0.7458 0.3896
C16A C -0.3541(5) 0.7001(4) 0.5359(3)
H12A H -0.4226 0.6097 0.5090
C17A C -0.2617(4) 0.7527(4) 0.6476(3)
C18A C -0.1617(5) 0.8882(4) 0.6843(3)
H13A H -0.0972 0.9266 0.7587
C19A C -0.1594(5) 0.9651(4) 0.6090(3)
H14A H -0.0930 1.0561 0.6343
C20A C 0.3251(5) 0.6937(4) -0.1880(3)
C21A C 0.3564(5) 0.6122(3) -0.1108(3)
C22A C -0.2736(5) 0.6671(4) 0.7295(3)
O10A O 0.2626(3) 0.5745(3) -0.0495(2)
O10_2 O -0.2626(3) 0.4255(3) 1.0495(2)
O11A O -0.0218(3) 0.6270(3) 0.9907(2)
H15A H 0.0217 0.6748 1.0558
H16A H 0.0425 0.6023 0.9742
loop_
_geom_bond_atom_site_label_1
_geom_bond_atom_site_label_2
_geom_bond_site_symmetry_1
_geom_bond_site_symmetry_2
Eu1 O1 1_555 1_555
Cu1 N1 1_555 1_555
S1 O4 1_555 1_555
S2 O3 1_555 1_555
O1 C22 1_555 1_555
O2 Eu1 1_555 1_555
O3 Eu1 1_555 1_555
O4 Eu1 1_555 1_555
O5 S2 1_555 1_555
O6 S2 1_555 1_555
O7 Eu1 1_555 1_555
O8 S1 1_555 1_555
O9 S1 1_555 1_555
N1 C15 1_555 1_555
N2 C7 1_555 1_555
C1 H1 1_555 1_555
C2 C1 1_555 1_555
H2 C2 1_555 1_555
C3 S2 1_555 1_555
C4 C3 1_555 1_555
H3 C4 1_555 1_555
C5 C1 1_555 1_555
C6 H4 1_555 1_555
C7 C6 1_555 1_555
H5 C7 1_555 1_555
C8 N2 1_555 1_555
H6 C8 1_555 1_555
C9 C8 1_555 1_555
H7 C9 1_555 1_555
C10 H8 1_555 1_555
C11 C10 1_555 1_555
C12 C11 1_555 1_555
H9 C12 1_555 1_555
C13 H10 1_555 1_555
C14 S1 1_555 1_555
C15 H11 1_555 1_555
C16 C15 1_555 1_555
H12 C16 1_555 1_555
C17 C16 1_555 1_555
C18 C17 1_555 1_555
H13 C18 1_555 1_555
C19 N1 1_555 1_555
H14 C19 1_555 1_555
C20 C6 1_555 1_555
C21 O7 1_555 1_555
C22 O2 1_555 1_555
O10 C21 1_555 1_555
O11 Eu1 1_555 1_555
H15 O11 1_555 1_555
H16 O11 1_555 1_555
Eu1A O1A 1_555 1_555
Eu1A_2 O8 1_555 1_555
Eu1A_3 O4A 1_555 1_555
Eu1_2 O8A 1_555 1_555
Cu1A N2 1_555 1_555
Cu1_2 N2A 1_555 1_555
Cu1A_2 N1A 1_555 1_555
S1A O4A 1_555 1_555
S2A O3A 1_555 1_555
O1A C22A 1_555 1_555
O2A Eu1A 1_555 1_555
O3A Eu1A 1_555 1_555
O4A_2 Eu1A 1_555 1_555
O5A S2A 1_555 1_555
O6A S2A 1_555 1_555
O7A Eu1A_2 1_555 1_555
O7A_2 Eu1A 1_555 1_555
O8A S1A 1_555 1_555
O8A_2 Eu1 1_555 1_555
O8_2 Eu1A 1_555 1_555
O9A S1A 1_555 1_555
N1A C15A 1_555 1_555
N1A_2 Cu1A 1_555 1_555
N2A C7A 1_555 1_555
N2A_2 Cu1 1_555 1_555
C1A H1A 1_555 1_555
C2A C1A 1_555 1_555
H2A C2A 1_555 1_555
C3A S2A 1_555 1_555
C4A C5 1_555 1_555
H3A C4A 1_555 1_555
C5A C4 1_555 1_555
C6A H4A 1_555 1_555
C7A C6A 1_555 1_555
H5A C7A 1_555 1_555
C8A N2A 1_555 1_555
H6A C8A 1_555 1_555
C9A C8A 1_555 1_555
H7A C9A 1_555 1_555
C10A H8A 1_555 1_555
C11A C11 1_555 1_555
C12A C13 1_555 1_555
H9A C12A 1_555 1_555
C13A C12 1_555 1_555
H10A C13A 1_555 1_555
C14A S1A 1_555 1_555
C15A H11A 1_555 1_555
C16A C15A 1_555 1_555
H12A C16A 1_555 1_555
C17A C16A 1_555 1_555
C18A C17A 1_555 1_555
H13A C18A 1_555 1_555
C19A N1A 1_555 1_555
H14A C19A 1_555 1_555
C20A C6A 1_555 1_555
C21A O7A 1_555 1_555
C22A O2A 1_555 1_555
O10A Eu1 1_555 1_555
O10_2 Eu1A 1_555 1_555
O11A Eu1A 1_555 1_555
H15A O11A 1_555 1_555
H16A O11A 1_555 1_555
C2 C3 1_555 1_555
C5 C5A 1_555 1_555
C9 C20 1_555 1_555
C10 C14 1_555 1_555
C13 C14 1_555 1_555
C17 C22 1_555 1_555
C18 C19 1_555 1_555
C20 C21 1_555 1_555
O10 Eu1A_2 1_555 1_555
C1A C5A 1_555 1_555
C2A C3A 1_555 1_555
C3A C4A 1_555 1_555
C9A C20A 1_555 1_555
C10A C11A 1_555 1_555
C10A C14A 1_555 1_555
C11A C12A 1_555 1_555
C13A C14A 1_555 1_555
C17A C22A 1_555 1_555
C18A C19A 1_555 1_555
C20A C21A 1_555 1_555
C21A O10A 1_555 1_555

#END
