
#######################################################################
#
#                 Cambridge Crystallographic Data Centre
#                                CCDC 
#
#######################################################################
#
# If this CIF has been generated from an entry in the Cambridge 
# Structural Database, then it will include bibliographic, chemical, 
# crystal, experimental, refinement or atomic coordinate data resulting 
# from the CCDC's data processing and validation procedures.
#
#######################################################################

data_EJOMAS
_symmetry_cell_setting           triclinic
_symmetry_space_group_name_H-M   'P -1'
_symmetry_Int_Tables_number      2
_space_group_name_Hall           '-P 1'
loop_
_symmetry_equiv_pos_site_id
_symmetry_equiv_pos_as_xyz
1 x,y,z
2 -x,-y,-z
_cell_length_a                   9.5770(9)
_cell_length_b                   11.5117(11)
_cell_length_c                   12.3980(19)
_cell_angle_alpha                99.6810(10)
_cell_angle_beta                 100.1280(10)
_cell_angle_gamma                114.1460(10)
_cell_volume                     1183.15
loop_
_atom_site_label
_atom_site_type_symbol
_atom_site_fract_x
_atom_site_fract_y
_atom_site_fract_z
Ce1 Ce 0.31172(2) 0.467353(16) 0.097404(14)
Cu1 Cu 0.26868(6) -0.02559(5) 0.59342(4)
S1 S 0.30176(9) 0.22333(7) -0.14935(6)
S2 S 0.21404(10) 0.71833(9) 0.27867(7)
O1 O 0.1810(3) 0.2788(2) 0.1766(2)
O2 O 0.3785(3) 0.4501(2) 0.30652(19)
O3 O 0.2299(3) 0.6144(2) 0.2027(2)
O4 O 0.2357(3) 0.2857(2) -0.07438(18)
O5 O 0.1197(3) 0.7685(2) 0.2150(2)
O6 O 0.3635(3) 0.8194(3) 0.3517(2)
O7 O 0.5362(3) 0.4127(2) 0.1062(2)
O8 O 0.4451(3) 0.3210(2) -0.16764(19)
O9 O 0.1864(3) 0.1360(2) -0.25412(19)
N1 N 0.2556(3) 0.0843(3) 0.4997(2)
N2 N 0.7157(4) 0.1450(3) 0.3243(2)
C1 C -0.1350(4) 0.5606(4) 0.4286(3)
H1 H -0.2349 0.5558 0.4262
C2 C -0.0472(4) 0.6299(4) 0.3639(3)
H2 H -0.0864 0.6728 0.3192
C3 C 0.1024(4) 0.6351(3) 0.3661(3)
C4 C 0.1635(4) 0.5741(4) 0.4327(3)
H3 H 0.2629 0.5790 0.4329
C5 C -0.0764(4) 0.4964(4) 0.4987(3)
C6 C 0.5677(4) 0.2478(4) 0.2448(3)
H4 H 0.4777 0.2615 0.2379
C7 C 0.5896(5) 0.1683(4) 0.3105(3)
H5 H 0.5126 0.1291 0.3470
C8 C 0.8251(4) 0.2041(4) 0.2720(3)
H6 H 0.9150 0.1901 0.2814
C9 C 0.8109(4) 0.2848(4) 0.2048(3)
H7 H 0.8902 0.3241 0.1701
C10 C 0.4982(4) 0.1161(3) -0.0875(3)
H8 H 0.5581 0.1630 -0.1310
C11 C 0.5469(4) 0.0354(3) -0.0329(3)
C12 C 0.6868(4) 0.0237(3) -0.0412(3)
H9 H 0.7491 0.0705 -0.0835
C13 C 0.2691(4) 0.0550(3) -0.0119(3)
H10 H 0.1774 0.0622 -0.0057
C14 C 0.3633(4) 0.1257(3) -0.0766(3)
C15 C 0.3505(4) 0.2149(3) 0.5362(3)
H11 H 0.4128 0.2507 0.6112
C16 C 0.3593(4) 0.2978(3) 0.4669(3)
H12 H 0.4280 0.3876 0.4943
C17 C 0.2647(4) 0.2461(3) 0.3559(3)
C18 C 0.1639(4) 0.1119(3) 0.3191(3)
H13 H 0.0969 0.0744 0.2455
C19 C 0.1639(4) 0.0349(3) 0.3925(3)
H14 H 0.0973 -0.0555 0.3665
C20 C 0.6786(4) 0.3070(3) 0.1892(3)
C21 C 0.6524(4) 0.3877(3) 0.1111(3)
C22 C 0.2744(4) 0.3320(3) 0.2756(3)
O10 O 0.7472(3) 0.4228(2) 0.05054(19)
O11 O 0.0165(3) 0.3703(2) 0.00973(19)
H15 H -0.0269 0.3225 -0.0554
H16 H -0.0478 0.3950 0.0262
Ce1A Ce -0.31172(2) 0.532647(16) 0.902596(14)
Ce1A_2 Ce 0.68828(2) 0.532647(16) -0.097404(14)
Ce1A_3 Ce 0.68828(2) -0.467353(16) -0.097404(14)
Ce1_2 Ce 0.31172(2) -0.532647(16) 0.097404(14)
Cu1A Cu 0.73132(6) 0.02559(5) 0.40658(4)
Cu1_2 Cu 0.26868(6) 0.97441(5) -0.40658(4)
Cu1A_2 Cu -0.26868(6) 1.02559(5) 0.40658(4)
S1A S 0.69824(9) -0.22333(7) 0.14935(6)
S2A S -0.21404(10) 0.28167(9) 0.72133(7)
O1A O -0.1810(3) 0.7212(2) 0.8234(2)
O2A O -0.3785(3) 0.5499(2) 0.69348(19)
O3A O -0.2299(3) 0.3856(2) 0.7973(2)
O4A O 0.7643(3) -0.2857(2) 0.07438(18)
O4A_2 O -0.2357(3) 0.7143(2) 1.07438(18)
O5A O -0.1197(3) 0.2315(2) 0.7850(2)
O6A O -0.3635(3) 0.1806(3) 0.6483(2)
O7A O 0.4638(3) 0.5873(2) -0.1062(2)
O7A_2 O -0.5362(3) 0.5873(2) 0.8938(2)
O8A O 0.5549(3) -0.3210(2) 0.16764(19)
O8A_2 O 0.5549(3) 0.6790(2) 0.16764(19)
O8_2 O -0.5549(3) 0.3210(2) 0.83236(19)
O9A O 0.8136(3) -0.1360(2) 0.25412(19)
N1A N -0.2556(3) 0.9157(3) 0.5003(2)
N1A_2 N 0.7444(3) -0.0843(3) 0.5003(2)
N2A N 0.2843(4) 0.8550(3) -0.3243(2)
N2A_2 N 0.2843(4) -0.1450(3) 0.6757(2)
C1A C 0.1350(4) 0.4394(4) 0.5714(3)
H1A H 0.2349 0.4442 0.5738
C2A C 0.0472(4) 0.3701(4) 0.6361(3)
H2A H 0.0864 0.3272 0.6808
C3A C -0.1024(4) 0.3649(3) 0.6339(3)
C4A C -0.1635(4) 0.4259(4) 0.5673(3)
H3A H -0.2629 0.4210 0.5671
C5A C 0.0764(4) 0.5036(4) 0.5013(3)
C6A C 0.4323(4) 0.7522(4) -0.2448(3)
H4A H 0.5223 0.7385 -0.2379
C7A C 0.4104(5) 0.8317(4) -0.3105(3)
H5A H 0.4874 0.8709 -0.3470
C8A C 0.1749(4) 0.7959(4) -0.2720(3)
H6A H 0.0850 0.8099 -0.2814
C9A C 0.1891(4) 0.7152(4) -0.2048(3)
H7A H 0.1098 0.6759 -0.1701
C10A C 0.5018(4) -0.1161(3) 0.0875(3)
H8A H 0.4419 -0.1630 0.1310
C11A C 0.4531(4) -0.0354(3) 0.0329(3)
C12A C 0.3132(4) -0.0237(3) 0.0412(3)
H9A H 0.2509 -0.0705 0.0835
C13A C 0.7309(4) -0.0550(3) 0.0119(3)
H10A H 0.8226 -0.0622 0.0057
C14A C 0.6367(4) -0.1257(3) 0.0766(3)
C15A C -0.3505(4) 0.7851(3) 0.4638(3)
H11A H -0.4128 0.7493 0.3888
C16A C -0.3593(4) 0.7022(3) 0.5331(3)
H12A H -0.4280 0.6124 0.5057
C17A C -0.2647(4) 0.7539(3) 0.6441(3)
C18A C -0.1639(4) 0.8881(3) 0.6809(3)
H13A H -0.0969 0.9256 0.7545
C19A C -0.1639(4) 0.9651(3) 0.6075(3)
H14A H -0.0973 1.0555 0.6335
C20A C 0.3214(4) 0.6930(3) -0.1892(3)
C21A C 0.3476(4) 0.6123(3) -0.1111(3)
C22A C -0.2744(4) 0.6680(3) 0.7244(3)
O10A O 0.2528(3) 0.5772(2) -0.05054(19)
O10_2 O -0.2528(3) 0.4228(2) 1.05054(19)
O11A O -0.0165(3) 0.6297(2) 0.99027(19)
H15A H 0.0269 0.6775 1.0554
H16A H 0.0478 0.6050 0.9738
loop_
_geom_bond_atom_site_label_1
_geom_bond_atom_site_label_2
_geom_bond_site_symmetry_1
_geom_bond_site_symmetry_2
Ce1 O1 1_555 1_555
Cu1 N1 1_555 1_555
S1 O4 1_555 1_555
S2 O3 1_555 1_555
O1 C22 1_555 1_555
O2 Ce1 1_555 1_555
O3 Ce1 1_555 1_555
O4 Ce1 1_555 1_555
O5 S2 1_555 1_555
O6 S2 1_555 1_555
O7 Ce1 1_555 1_555
O8 S1 1_555 1_555
O9 S1 1_555 1_555
N1 C15 1_555 1_555
N2 C7 1_555 1_555
C1 H1 1_555 1_555
C2 C1 1_555 1_555
H2 C2 1_555 1_555
C3 S2 1_555 1_555
C4 C3 1_555 1_555
H3 C4 1_555 1_555
C5 C1 1_555 1_555
C6 H4 1_555 1_555
C7 C6 1_555 1_555
H5 C7 1_555 1_555
C8 N2 1_555 1_555
H6 C8 1_555 1_555
C9 C8 1_555 1_555
H7 C9 1_555 1_555
C10 H8 1_555 1_555
C11 C10 1_555 1_555
C12 C11 1_555 1_555
H9 C12 1_555 1_555
C13 H10 1_555 1_555
C14 S1 1_555 1_555
C15 H11 1_555 1_555
C16 C15 1_555 1_555
H12 C16 1_555 1_555
C17 C16 1_555 1_555
C18 C17 1_555 1_555
H13 C18 1_555 1_555
C19 N1 1_555 1_555
H14 C19 1_555 1_555
C20 C6 1_555 1_555
C21 O7 1_555 1_555
C22 O2 1_555 1_555
O10 C21 1_555 1_555
O11 Ce1 1_555 1_555
H15 O11 1_555 1_555
H16 O11 1_555 1_555
Ce1A O1A 1_555 1_555
Ce1A_2 O8 1_555 1_555
Ce1A_3 O4A 1_555 1_555
Ce1_2 O8A 1_555 1_555
Cu1A N2 1_555 1_555
Cu1_2 N2A 1_555 1_555
Cu1A_2 N1A 1_555 1_555
S1A O4A 1_555 1_555
S2A O3A 1_555 1_555
O1A C22A 1_555 1_555
O2A Ce1A 1_555 1_555
O3A Ce1A 1_555 1_555
O4A_2 Ce1A 1_555 1_555
O5A S2A 1_555 1_555
O6A S2A 1_555 1_555
O7A Ce1A_2 1_555 1_555
O7A_2 Ce1A 1_555 1_555
O8A S1A 1_555 1_555
O8A_2 Ce1 1_555 1_555
O8_2 Ce1A 1_555 1_555
O9A S1A 1_555 1_555
N1A C15A 1_555 1_555
N1A_2 Cu1A 1_555 1_555
N2A C7A 1_555 1_555
N2A_2 Cu1 1_555 1_555
C1A H1A 1_555 1_555
C2A C1A 1_555 1_555
H2A C2A 1_555 1_555
C3A S2A 1_555 1_555
C4A C5 1_555 1_555
H3A C4A 1_555 1_555
C5A C4 1_555 1_555
C6A H4A 1_555 1_555
C7A C6A 1_555 1_555
H5A C7A 1_555 1_555
C8A N2A 1_555 1_555
H6A C8A 1_555 1_555
C9A C8A 1_555 1_555
H7A C9A 1_555 1_555
C10A H8A 1_555 1_555
C11A C11 1_555 1_555
C12A C13 1_555 1_555
H9A C12A 1_555 1_555
C13A C12 1_555 1_555
H10A C13A 1_555 1_555
C14A S1A 1_555 1_555
C15A H11A 1_555 1_555
C16A C15A 1_555 1_555
H12A C16A 1_555 1_555
C17A C16A 1_555 1_555
C18A C17A 1_555 1_555
H13A C18A 1_555 1_555
C19A N1A 1_555 1_555
H14A C19A 1_555 1_555
C20A C6A 1_555 1_555
C21A O7A 1_555 1_555
C22A O2A 1_555 1_555
O10A Ce1 1_555 1_555
O10_2 Ce1A 1_555 1_555
O11A Ce1A 1_555 1_555
H15A O11A 1_555 1_555
H16A O11A 1_555 1_555
C2 C3 1_555 1_555
C5 C5A 1_555 1_555
C9 C20 1_555 1_555
C10 C14 1_555 1_555
C13 C14 1_555 1_555
C17 C22 1_555 1_555
C18 C19 1_555 1_555
C20 C21 1_555 1_555
O10 Ce1A_2 1_555 1_555
C1A C5A 1_555 1_555
C2A C3A 1_555 1_555
C3A C4A 1_555 1_555
C9A C20A 1_555 1_555
C10A C11A 1_555 1_555
C10A C14A 1_555 1_555
C11A C12A 1_555 1_555
C13A C14A 1_555 1_555
C17A C22A 1_555 1_555
C18A C19A 1_555 1_555
C20A C21A 1_555 1_555
C21A O10A 1_555 1_555

#END
