
#######################################################################
#
#                 Cambridge Crystallographic Data Centre
#                                CCDC 
#
#######################################################################
#
# If this CIF has been generated from an entry in the Cambridge 
# Structural Database, then it will include bibliographic, chemical, 
# crystal, experimental, refinement or atomic coordinate data resulting 
# from the CCDC's data processing and validation procedures.
#
#######################################################################

data_EJONEX
_symmetry_cell_setting           triclinic
_symmetry_space_group_name_H-M   'P -1'
_symmetry_Int_Tables_number      2
_space_group_name_Hall           '-P 1'
loop_
_symmetry_equiv_pos_site_id
_symmetry_equiv_pos_as_xyz
1 x,y,z
2 -x,-y,-z
_cell_length_a                   9.528(2)
_cell_length_b                   11.338(3)
_cell_length_c                   12.282(5)
_cell_angle_alpha                99.109(3)
_cell_angle_beta                 100.275(3)
_cell_angle_gamma                114.053(2)
_cell_volume                     1152.09
loop_
_atom_site_label
_atom_site_type_symbol
_atom_site_fract_x
_atom_site_fract_y
_atom_site_fract_z
Er1 Er 0.310490(16) 0.466922(13) 0.096046(11)
Cu1 Cu 0.25376(6) -0.02429(5) 0.59636(4)
S1 S 0.31030(9) 0.23563(7) -0.14585(6)
S2 S 0.21916(10) 0.71232(8) 0.27233(7)
O1 O 0.1825(3) 0.2823(2) 0.1673(2)
O2 O 0.3760(3) 0.4545(2) 0.2994(2)
O3 O 0.2235(3) 0.6035(2) 0.1920(2)
O4 O 0.2425(3) 0.2982(2) -0.07127(18)
O5 O 0.1294(3) 0.7700(2) 0.2118(2)
O6 O 0.3737(3) 0.8082(3) 0.3434(2)
O7 O 0.5156(3) 0.4079(2) 0.1120(2)
O8 O 0.4565(3) 0.3334(2) -0.16314(19)
O9 O 0.1954(3) 0.1506(2) -0.25236(19)
N1 N 0.2441(3) 0.0852(3) 0.4983(2)
N2 N 0.7244(4) 0.1451(3) 0.3217(2)
C1 C -0.1343(4) 0.5595(4) 0.4226(3)
H1 H -0.2349 0.5550 0.4181
C2 C -0.0448(4) 0.6269(4) 0.3570(3)
H2 H -0.0834 0.6693 0.3093
C3 C 0.1062(4) 0.6317(3) 0.3624(3)
C4 C 0.1662(4) 0.5721(4) 0.4338(3)
H3 H 0.2666 0.5770 0.4365
C5 C -0.0769(4) 0.4966(3) 0.4969(3)
C6 C 0.5645(5) 0.2434(4) 0.2453(3)
H4 H 0.4717 0.2538 0.2396
C7 C 0.5933(5) 0.1643(4) 0.3107(4)
H5 H 0.5190 0.1223 0.3490
C8 C 0.8287(4) 0.2084(4) 0.2668(3)
H6 H 0.9210 0.1971 0.2738
C9 C 0.8071(4) 0.2897(4) 0.2003(3)
H7 H 0.8839 0.3324 0.1640
C10 C 0.5013(4) 0.1204(3) -0.0864(3)
H8 H 0.5616 0.1679 -0.1305
C11 C 0.5487(4) 0.0368(3) -0.0323(3)
C12 C 0.6873(4) 0.0229(3) -0.0413(3)
H9 H 0.7507 0.0707 -0.0838
C13 C 0.2705(4) 0.0593(3) -0.0111(3)
H10 H 0.1786 0.0673 -0.0051
C14 C 0.3669(4) 0.1321(3) -0.0745(3)
C15 C 0.3390(4) 0.2175(3) 0.5337(3)
H11 H 0.3992 0.2543 0.6097
C16 C 0.3504(4) 0.3001(3) 0.4624(3)
H12 H 0.4196 0.3909 0.4894
C17 C 0.2588(4) 0.2482(3) 0.3499(3)
C18 C 0.1586(4) 0.1121(3) 0.3131(3)
H13 H 0.0947 0.0738 0.2381
C19 C 0.1550(4) 0.0346(3) 0.3888(3)
H14 H 0.0881 -0.0568 0.3633
C20 C 0.6718(4) 0.3073(3) 0.1881(3)
C21 C 0.6357(4) 0.3884(3) 0.1111(3)
C22 C 0.2731(4) 0.3352(3) 0.2683(3)
O10 O 0.7257(3) 0.4280(2) 0.04781(19)
O11 O 0.0303(3) 0.3772(2) 0.0093(2)
H15 H -0.0131 0.3294 -0.0558
H16 H -0.0340 0.4019 0.0258
Er1A Er -0.310490(16) 0.533078(13) 0.903954(11)
Er1A_2 Er 0.689510(16) 0.533078(13) -0.096046(11)
Er1A_3 Er 0.689510(16) -0.466922(13) -0.096046(11)
Er1_2 Er 0.310490(16) -0.533078(13) 0.096046(11)
Cu1A Cu 0.74624(6) 0.02429(5) 0.40364(4)
Cu1_2 Cu 0.25376(6) 0.97571(5) -0.40364(4)
Cu1A_2 Cu -0.25376(6) 1.02429(5) 0.40364(4)
S1A S 0.68970(9) -0.23563(7) 0.14585(6)
S2A S -0.21916(10) 0.28768(8) 0.72767(7)
O1A O -0.1825(3) 0.7177(2) 0.8327(2)
O2A O -0.3760(3) 0.5455(2) 0.7006(2)
O3A O -0.2235(3) 0.3965(2) 0.8080(2)
O4A O 0.7575(3) -0.2982(2) 0.07127(18)
O4A_2 O -0.2425(3) 0.7018(2) 1.07127(18)
O5A O -0.1294(3) 0.2300(2) 0.7882(2)
O6A O -0.3737(3) 0.1918(3) 0.6566(2)
O7A O 0.4844(3) 0.5921(2) -0.1120(2)
O7A_2 O -0.5156(3) 0.5921(2) 0.8880(2)
O8A O 0.5435(3) -0.3334(2) 0.16314(19)
O8A_2 O 0.5435(3) 0.6666(2) 0.16314(19)
O8_2 O -0.5435(3) 0.3334(2) 0.83686(19)
O9A O 0.8046(3) -0.1506(2) 0.25236(19)
N1A N -0.2441(3) 0.9148(3) 0.5017(2)
N1A_2 N 0.7559(3) -0.0852(3) 0.5017(2)
N2A N 0.2756(4) 0.8549(3) -0.3217(2)
N2A_2 N 0.2756(4) -0.1451(3) 0.6783(2)
C1A C 0.1343(4) 0.4405(4) 0.5774(3)
H1A H 0.2349 0.4450 0.5819
C2A C 0.0448(4) 0.3731(4) 0.6430(3)
H2A H 0.0834 0.3307 0.6907
C3A C -0.1062(4) 0.3683(3) 0.6376(3)
C4A C -0.1662(4) 0.4279(4) 0.5662(3)
H3A H -0.2666 0.4230 0.5635
C5A C 0.0769(4) 0.5034(3) 0.5031(3)
C6A C 0.4355(5) 0.7566(4) -0.2453(3)
H4A H 0.5283 0.7462 -0.2396
C7A C 0.4067(5) 0.8357(4) -0.3107(4)
H5A H 0.4810 0.8777 -0.3490
C8A C 0.1713(4) 0.7916(4) -0.2668(3)
H6A H 0.0790 0.8029 -0.2738
C9A C 0.1929(4) 0.7103(4) -0.2003(3)
H7A H 0.1161 0.6676 -0.1640
C10A C 0.4987(4) -0.1204(3) 0.0864(3)
H8A H 0.4384 -0.1679 0.1305
C11A C 0.4513(4) -0.0368(3) 0.0323(3)
C12A C 0.3127(4) -0.0229(3) 0.0413(3)
H9A H 0.2493 -0.0707 0.0838
C13A C 0.7295(4) -0.0593(3) 0.0111(3)
H10A H 0.8214 -0.0673 0.0051
C14A C 0.6331(4) -0.1321(3) 0.0745(3)
C15A C -0.3390(4) 0.7825(3) 0.4663(3)
H11A H -0.3992 0.7457 0.3903
C16A C -0.3504(4) 0.6999(3) 0.5376(3)
H12A H -0.4196 0.6091 0.5106
C17A C -0.2588(4) 0.7518(3) 0.6501(3)
C18A C -0.1586(4) 0.8879(3) 0.6869(3)
H13A H -0.0947 0.9262 0.7619
C19A C -0.1550(4) 0.9654(3) 0.6112(3)
H14A H -0.0881 1.0568 0.6367
C20A C 0.3282(4) 0.6927(3) -0.1881(3)
C21A C 0.3643(4) 0.6116(3) -0.1111(3)
C22A C -0.2731(4) 0.6648(3) 0.7317(3)
O10A O 0.2743(3) 0.5720(2) -0.04781(19)
O10_2 O -0.2743(3) 0.4280(2) 1.04781(19)
O11A O -0.0303(3) 0.6228(2) 0.9907(2)
H15A H 0.0131 0.6706 1.0558
H16A H 0.0340 0.5981 0.9742
loop_
_geom_bond_atom_site_label_1
_geom_bond_atom_site_label_2
_geom_bond_site_symmetry_1
_geom_bond_site_symmetry_2
Er1 O1 1_555 1_555
Cu1 N1 1_555 1_555
S1 O4 1_555 1_555
S2 O3 1_555 1_555
O1 C22 1_555 1_555
O2 Er1 1_555 1_555
O3 Er1 1_555 1_555
O4 Er1 1_555 1_555
O5 S2 1_555 1_555
O6 S2 1_555 1_555
O7 Er1 1_555 1_555
O8 S1 1_555 1_555
O9 S1 1_555 1_555
N1 C15 1_555 1_555
N2 C7 1_555 1_555
C1 H1 1_555 1_555
C2 C1 1_555 1_555
H2 C2 1_555 1_555
C3 S2 1_555 1_555
C4 C3 1_555 1_555
H3 C4 1_555 1_555
C5 C1 1_555 1_555
C6 H4 1_555 1_555
C7 C6 1_555 1_555
H5 C7 1_555 1_555
C8 N2 1_555 1_555
H6 C8 1_555 1_555
C9 C8 1_555 1_555
H7 C9 1_555 1_555
C10 H8 1_555 1_555
C11 C10 1_555 1_555
C12 C11 1_555 1_555
H9 C12 1_555 1_555
C13 H10 1_555 1_555
C14 S1 1_555 1_555
C15 H11 1_555 1_555
C16 C15 1_555 1_555
H12 C16 1_555 1_555
C17 C16 1_555 1_555
C18 C17 1_555 1_555
H13 C18 1_555 1_555
C19 N1 1_555 1_555
H14 C19 1_555 1_555
C20 C6 1_555 1_555
C21 O7 1_555 1_555
C22 O2 1_555 1_555
O10 C21 1_555 1_555
O11 Er1 1_555 1_555
H15 O11 1_555 1_555
H16 O11 1_555 1_555
Er1A O1A 1_555 1_555
Er1A_2 O8 1_555 1_555
Er1A_3 O4A 1_555 1_555
Er1_2 O8A 1_555 1_555
Cu1A N2 1_555 1_555
Cu1_2 N2A 1_555 1_555
Cu1A_2 N1A 1_555 1_555
S1A O4A 1_555 1_555
S2A O3A 1_555 1_555
O1A C22A 1_555 1_555
O2A Er1A 1_555 1_555
O3A Er1A 1_555 1_555
O4A_2 Er1A 1_555 1_555
O5A S2A 1_555 1_555
O6A S2A 1_555 1_555
O7A Er1A_2 1_555 1_555
O7A_2 Er1A 1_555 1_555
O8A S1A 1_555 1_555
O8A_2 Er1 1_555 1_555
O8_2 Er1A 1_555 1_555
O9A S1A 1_555 1_555
N1A C15A 1_555 1_555
N1A_2 Cu1A 1_555 1_555
N2A C7A 1_555 1_555
N2A_2 Cu1 1_555 1_555
C1A H1A 1_555 1_555
C2A C1A 1_555 1_555
H2A C2A 1_555 1_555
C3A S2A 1_555 1_555
C4A C5 1_555 1_555
H3A C4A 1_555 1_555
C5A C4 1_555 1_555
C6A H4A 1_555 1_555
C7A C6A 1_555 1_555
H5A C7A 1_555 1_555
C8A N2A 1_555 1_555
H6A C8A 1_555 1_555
C9A C8A 1_555 1_555
H7A C9A 1_555 1_555
C10A H8A 1_555 1_555
C11A C11 1_555 1_555
C12A C13 1_555 1_555
H9A C12A 1_555 1_555
C13A C12 1_555 1_555
H10A C13A 1_555 1_555
C14A S1A 1_555 1_555
C15A H11A 1_555 1_555
C16A C15A 1_555 1_555
H12A C16A 1_555 1_555
C17A C16A 1_555 1_555
C18A C17A 1_555 1_555
H13A C18A 1_555 1_555
C19A N1A 1_555 1_555
H14A C19A 1_555 1_555
C20A C6A 1_555 1_555
C21A O7A 1_555 1_555
C22A O2A 1_555 1_555
O10A Er1 1_555 1_555
O10_2 Er1A 1_555 1_555
O11A Er1A 1_555 1_555
H15A O11A 1_555 1_555
H16A O11A 1_555 1_555
C2 C3 1_555 1_555
C5 C5A 1_555 1_555
C9 C20 1_555 1_555
C10 C14 1_555 1_555
C13 C14 1_555 1_555
C17 C22 1_555 1_555
C18 C19 1_555 1_555
C20 C21 1_555 1_555
O10 Er1A_2 1_555 1_555
C1A C5A 1_555 1_555
C2A C3A 1_555 1_555
C3A C4A 1_555 1_555
C9A C20A 1_555 1_555
C10A C11A 1_555 1_555
C10A C14A 1_555 1_555
C11A C12A 1_555 1_555
C13A C14A 1_555 1_555
C17A C22A 1_555 1_555
C18A C19A 1_555 1_555
C20A C21A 1_555 1_555
C21A O10A 1_555 1_555

#END
