
#######################################################################
#
#                 Cambridge Crystallographic Data Centre
#                                CCDC 
#
#######################################################################
#
# If this CIF has been generated from an entry in the Cambridge 
# Structural Database, then it will include bibliographic, chemical, 
# crystal, experimental, refinement or atomic coordinate data resulting 
# from the CCDC's data processing and validation procedures.
#
#######################################################################

data_EJOPEZ
_symmetry_cell_setting           orthorhombic
_symmetry_space_group_name_H-M   'P b c a'
_symmetry_Int_Tables_number      61
_space_group_name_Hall           '-P 2ac 2ab'
loop_
_symmetry_equiv_pos_site_id
_symmetry_equiv_pos_as_xyz
1 x,y,z
2 1/2-x,-y,1/2+z
3 -x,1/2+y,1/2-z
4 1/2+x,1/2-y,-z
5 -x,-y,-z
6 1/2+x,y,1/2-z
7 x,1/2-y,1/2+z
8 1/2-x,1/2+y,z
_cell_length_a                   16.1407(6)
_cell_length_b                   6.9435(2)
_cell_length_c                   30.3299(11)
_cell_angle_alpha                90
_cell_angle_beta                 90
_cell_angle_gamma                90
_cell_volume                     3399.16
loop_
_atom_site_label
_atom_site_type_symbol
_atom_site_fract_x
_atom_site_fract_y
_atom_site_fract_z
Hg1 Hg 0.413318(17) 0.16567(5) 0.098263(10)
Hg2 Hg 0.643670(17) 0.42523(5) 0.146500(10)
Cl1 Cl 0.77891(14) 0.3381(3) 0.13520(11)
Cl2 Cl 0.55308(12) 0.0865(3) 0.10355(8)
N1 N 0.2984(4) 0.2796(10) 0.0760(2)
N2 N 0.2265(4) 0.2815(10) 0.0978(2)
N3 N 0.1689(4) 0.3382(10) 0.0694(2)
N4 N 0.2024(4) 0.3667(10) 0.0289(2)
N5 N 0.4214(4) 0.2659(11) 0.0113(2)
N6 N 0.3940(4) 0.4313(10) -0.0711(2)
N7 N 0.4728(3) -0.0140(10) 0.3250(2)
N8 N 0.5477(4) -0.0097(11) 0.3451(2)
N9 N 0.6027(4) 0.0306(11) 0.3150(2)
N10 N 0.5669(4) 0.0505(11) 0.2753(2)
N11 N 0.3433(4) 0.0146(12) 0.2642(2)
N12 N 0.3770(4) 0.0628(10) 0.1751(2)
C1 C 0.2825(4) 0.3302(10) 0.0344(3)
C2 C 0.3472(4) 0.3383(11) 0.0005(3)
C3 C 0.4803(5) 0.2724(12) -0.0189(3)
H1 H 0.5317 0.2182 -0.0128
C4 C 0.4673(5) 0.3575(12) -0.0592(3)
H2 H 0.5111 0.3640 -0.0790
C5 C 0.3339(5) 0.4214(11) -0.0404(3)
H3 H 0.2819 0.4717 -0.0469
C6 C 0.4215(4) 0.0309(11) 0.2487(3)
C7 C 0.2835(5) 0.0274(14) 0.2342(3)
H4 H 0.2287 0.0196 0.2435
C8 C 0.2994(5) 0.0516(13) 0.1901(3)
H5 H 0.2554 0.0604 0.1703
C9 C 0.4375(5) 0.0525(12) 0.2055(3)
H6 H 0.4923 0.0607 0.1963
C10 C 0.4873(4) 0.0241(11) 0.2824(2)
Hg1G Hg 0.086682(17) 0.66567(5) 0.098263(10)
Hg2D Hg 0.356330(17) 0.57477(5) -0.146500(10)
Hg2B Hg 0.356330(17) -0.07477(5) 0.353500(10)
N3G N 0.3311(4) -0.1618(10) 0.0694(2)
N6D N 0.6060(4) 0.5687(10) 0.0711(2)
N7B N 0.5272(3) 0.4860(10) 0.1750(2)
N11B N 0.6567(4) 0.5146(12) 0.2358(2)
loop_
_geom_bond_atom_site_label_1
_geom_bond_atom_site_label_2
_geom_bond_site_symmetry_1
_geom_bond_site_symmetry_2
Hg1 Cl2 1_555 1_555
Hg2 Cl1 1_555 1_555
Cl2 Hg2 1_555 1_555
N1 Hg1 1_555 1_555
N2 N1 1_555 1_555
N3 N2 1_555 1_555
N4 N3 1_555 1_555
N5 Hg1 1_555 1_555
N6 C4 1_555 1_555
N7 N8 1_555 1_555
N8 N9 1_555 1_555
N9 N10 1_555 1_555
N10 C10 1_555 1_555
N11 C6 1_555 1_555
N12 Hg1 1_555 1_555
C1 N1 1_555 1_555
C2 N5 1_555 1_555
C3 N5 1_555 1_555
H1 C3 1_555 1_555
C4 C3 1_555 1_555
H2 C4 1_555 1_555
C5 N6 1_555 1_555
H3 C5 1_555 1_555
C6 C9 1_555 1_555
C7 N11 1_555 1_555
H4 C7 1_555 1_555
C8 N12 1_555 1_555
H5 C8 1_555 1_555
C9 N12 1_555 1_555
H6 C9 1_555 1_555
C10 N7 1_555 1_555
Hg1G N3 1_555 1_555
Hg2D N6 1_555 1_555
Hg2B N7 1_555 1_555
N3G Hg1 1_555 1_555
N6D Hg2 1_555 1_555
N7B Hg2 1_555 1_555
N11B Hg2 1_555 1_555
N4 C1 1_555 1_555
N11 Hg2B 1_555 1_555
C1 C2 1_555 1_555
C2 C5 1_555 1_555
C6 C10 1_555 1_555
C7 C8 1_555 1_555

#END
