
#######################################################################
#
#                 Cambridge Crystallographic Data Centre
#                                CCDC 
#
#######################################################################
#
# If this CIF has been generated from an entry in the Cambridge 
# Structural Database, then it will include bibliographic, chemical, 
# crystal, experimental, refinement or atomic coordinate data resulting 
# from the CCDC's data processing and validation procedures.
#
#######################################################################

data_EJOPOI
_symmetry_cell_setting           triclinic
_symmetry_space_group_name_H-M   'P -1'
_symmetry_Int_Tables_number      2
_space_group_name_Hall           '-P 1'
loop_
_symmetry_equiv_pos_site_id
_symmetry_equiv_pos_as_xyz
1 x,y,z
2 -x,-y,-z
_cell_length_a                   6.7263(12)
_cell_length_b                   8.2865(10)
_cell_length_c                   6.4944(6)
_cell_angle_alpha                102.546(9)
_cell_angle_beta                 96.719(11)
_cell_angle_gamma                77.907(11)
_cell_volume                     344.527
loop_
_atom_site_label
_atom_site_type_symbol
_atom_site_fract_x
_atom_site_fract_y
_atom_site_fract_z
Cu1 Cu 0.10028(7) 0.84444(5) 0.84959(7)
Cl1 Cl 0.22703(12) 0.99223(10) 1.18859(12)
N1 N 0.3260(5) 0.8431(3) 0.6471(5)
N2 N 0.1055(4) 0.6018(4) 0.8348(5)
C1 C 0.1465(5) 0.4596(4) 0.7869(5)
C2 C 0.1998(6) 0.2763(5) 0.7281(7)
C3 C 0.4198(5) 0.6706(4) 0.5674(5)
C4 C 0.5690(5) 0.5864(4) 0.6929(5)
C5 C 0.3520(5) 0.5839(4) 0.3744(5)
H1 H 0.621(5) 0.646(4) 0.827(6)
H2 H 0.260(6) 0.644(5) 0.290(6)
H3 H 0.348(6) 0.235(5) 0.755(6)
H4 H 0.153(6) 0.246(5) 0.593(7)
H5 H 0.131(6) 0.228(5) 0.817(6)
H6 H 0.424(6) 0.898(4) 0.722(6)
H7 H 0.284(6) 0.888(5) 0.541(7)
C5A C 0.6480(5) 0.4161(4) 0.6256(5)
C3A C 0.5802(5) 0.3294(4) 0.4326(5)
N1A N 0.6740(5) 0.1569(3) 0.3529(5)
H6A H 0.576(6) 0.102(4) 0.278(6)
H7A H 0.716(6) 0.112(5) 0.459(7)
C4A C 0.4310(5) 0.4136(4) 0.3071(5)
H1A H 0.379(5) 0.354(4) 0.173(6)
H2A H 0.740(6) 0.356(5) 0.710(6)
Cl1A Cl -0.22703(12) 1.00777(10) 0.81141(12)
Cu1A Cu -0.10028(7) 1.15556(5) 1.15041(7)
N2A N -0.1055(4) 1.3982(4) 1.1652(5)
C1A C -0.1465(5) 1.5404(4) 1.2131(5)
C2A C -0.1998(6) 1.7237(5) 1.2719(7)
H3A H -0.348(6) 1.765(5) 1.245(6)
H4A H -0.153(6) 1.754(5) 1.407(7)
H5A H -0.131(6) 1.772(5) 1.183(6)
Cu1A_2 Cu 0.89972(7) 0.15556(5) 0.15041(7)
N1A_2 N -0.3260(5) 1.1569(3) 1.3529(5)
H6A_2 H -0.424(6) 1.102(4) 1.278(6)
H7A_2 H -0.284(6) 1.112(5) 1.459(7)
loop_
_geom_bond_atom_site_label_1
_geom_bond_atom_site_label_2
_geom_bond_site_symmetry_1
_geom_bond_site_symmetry_2
Cu1 Cl1 1_555 1_555
Cl1 Cu1A 1_555 1_555
N1 Cu1 1_555 1_555
N2 Cu1 1_555 1_555
C1 N2 1_555 1_555
C2 C1 1_555 1_555
C3 N1 1_555 1_555
C4 C3 1_555 1_555
C5 C3 1_555 1_555
H1 C4 1_555 1_555
H2 C5 1_555 1_555
H3 C2 1_555 1_555
H4 C2 1_555 1_555
H5 C2 1_555 1_555
H6 N1 1_555 1_555
H7 N1 1_555 1_555
C5A C4 1_555 1_555
C3A C5A 1_555 1_555
N1A C3A 1_555 1_555
H6A N1A 1_555 1_555
H7A N1A 1_555 1_555
C4A C5 1_555 1_555
H1A C4A 1_555 1_555
H2A C5A 1_555 1_555
Cl1A Cu1 1_555 1_555
Cu1A Cl1A 1_555 1_555
N2A Cu1A 1_555 1_555
C1A N2A 1_555 1_555
C2A C1A 1_555 1_555
H3A C2A 1_555 1_555
H4A C2A 1_555 1_555
H5A C2A 1_555 1_555
Cu1A_2 N1A 1_555 1_555
N1A_2 Cu1A 1_555 1_555
H6A_2 N1A_2 1_555 1_555
H7A_2 N1A_2 1_555 1_555
C3A C4A 1_555 1_555

#END
