
#######################################################################
#
#                 Cambridge Crystallographic Data Centre
#                                CCDC 
#
#######################################################################
#
# If this CIF has been generated from an entry in the Cambridge 
# Structural Database, then it will include bibliographic, chemical, 
# crystal, experimental, refinement or atomic coordinate data resulting 
# from the CCDC's data processing and validation procedures.
#
#######################################################################

data_EJOPUP
_symmetry_cell_setting           monoclinic
_symmetry_space_group_name_H-M   'P 21/n'
_symmetry_Int_Tables_number      14
_space_group_name_Hall           '-P 2yn'
loop_
_symmetry_equiv_pos_site_id
_symmetry_equiv_pos_as_xyz
1 x,y,z
2 1/2-x,1/2+y,1/2-z
3 -x,-y,-z
4 1/2+x,1/2-y,1/2+z
_cell_length_a                   7.4195(11)
_cell_length_b                   13.9422(19)
_cell_length_c                   9.9089(14)
_cell_angle_alpha                90
_cell_angle_beta                 95.093(2)
_cell_angle_gamma                90
_cell_volume                     1020.97
loop_
_atom_site_label
_atom_site_type_symbol
_atom_site_fract_x
_atom_site_fract_y
_atom_site_fract_z
Br1 Br 0.38624(13) 0.50092(7) -0.18930(10)
Cd1 Cd 0.28527(7) 0.54631(3) 0.06864(6)
O1 O 0.1907(7) 0.5863(4) 0.2841(5)
H1 H 0.1724 0.5471 0.3471
H2 H 0.2739 0.6237 0.3168
N1 N 0.0198(7) 0.6215(4) -0.0273(6)
N2 N -0.1463(7) 0.6005(4) -0.0806(6)
N3 N -0.2327(8) 0.6806(4) -0.1190(6)
N4 N -0.1232(8) 0.7544(4) -0.0919(6)
N5 N 0.3364(8) 0.7158(4) 0.0587(6)
N6 N 0.3502(10) 0.9145(5) 0.0691(7)
C1 C 0.0303(9) 0.7168(5) -0.0358(7)
C2 C 0.1938(10) 0.7692(5) 0.0159(7)
C3 C 0.4891(10) 0.7615(6) 0.1024(8)
H3 H 0.5919 0.7262 0.1308
C4 C 0.4960(11) 0.8602(6) 0.1059(8)
H4 H 0.6047 0.8902 0.1347
C5 C 0.2014(11) 0.8684(5) 0.0233(8)
H5 H 0.0985 0.9036 -0.0048
Br1B Br 0.61376(13) 0.49908(7) 0.18930(10)
Cd1B Cd 0.71473(7) 0.45369(3) -0.06864(6)
Cd1B_2 Cd -0.28527(7) 0.45369(3) -0.06864(6)
N2B N 0.1463(7) 0.3995(4) 0.0806(6)
O2 O 0.3924(10) 0.7623(6) 0.7504(8)
H6 H 0.4803 0.7316 0.7907
H7 H 0.4180 0.8120 0.7061
loop_
_geom_bond_atom_site_label_1
_geom_bond_atom_site_label_2
_geom_bond_site_symmetry_1
_geom_bond_site_symmetry_2
Br1 Cd1 1_555 1_555
Cd1 O1 1_555 1_555
O1 H1 1_555 1_555
H2 O1 1_555 1_555
N1 Cd1 1_555 1_555
N2 N1 1_555 1_555
N3 N2 1_555 1_555
N4 N3 1_555 1_555
N5 Cd1 1_555 1_555
N6 C4 1_555 1_555
C1 N1 1_555 1_555
C2 N5 1_555 1_555
C3 N5 1_555 1_555
H3 C3 1_555 1_555
C4 C3 1_555 1_555
H4 C4 1_555 1_555
C5 N6 1_555 1_555
H5 C5 1_555 1_555
O2 H6 1_555 1_555
H7 O2 1_555 1_555
Br1B Cd1 1_555 1_555
Cd1B Br1 1_555 1_555
Cd1B_2 N2 1_555 1_555
N2B Cd1 1_555 1_555
N4 C1 1_555 1_555
C1 C2 1_555 1_555
C2 C5 1_555 1_555
Br1B Cd1B 1_555 1_555

#END
