
#######################################################################
#
#                 Cambridge Crystallographic Data Centre
#                                CCDC 
#
#######################################################################
#
# If this CIF has been generated from an entry in the Cambridge 
# Structural Database, then it will include bibliographic, chemical, 
# crystal, experimental, refinement or atomic coordinate data resulting 
# from the CCDC's data processing and validation procedures.
#
#######################################################################

data_EJOSAX
_symmetry_cell_setting           monoclinic
_symmetry_space_group_name_H-M   'C 2/c'
_symmetry_Int_Tables_number      15
_space_group_name_Hall           '-C 2yn'
loop_
_symmetry_equiv_pos_site_id
_symmetry_equiv_pos_as_xyz
1 x,y,z
2 x,-y,1/2+z
3 1/2+x,1/2+y,z
4 1/2+x,1/2-y,1/2+z
5 -x,-y,-z
6 -x,y,1/2-z
7 1/2-x,1/2-y,-z
8 1/2-x,1/2+y,1/2-z
_cell_length_a                   13.7398(3)
_cell_length_b                   18.2115(5)
_cell_length_c                   7.9638(2)
_cell_angle_alpha                90
_cell_angle_beta                 111.30(9)
_cell_angle_gamma                90
_cell_volume                     1856.6
loop_
_atom_site_label
_atom_site_type_symbol
_atom_site_fract_x
_atom_site_fract_y
_atom_site_fract_z
Cu1 Cu 0.2500 0.2500 0.5000
N1 N 0.4325(2) 0.2627(1) 0.4666(2)
N2 N 0.5000 0.4706(2) 0.2500
C1 C 0.4631(1) 0.2921(1) 0.3684(2)
C2 C 0.5000 0.3304(2) 0.2500
C3 C 0.5000 0.4073(2) 0.2500
N5 N 0.1968(1) 0.3444(1) 0.3657(2)
N6 N 0.3055(1) 0.3033(1) 0.7412(2)
C7 C 0.2542(2) 0.4133(1) 0.4293(3)
C8 C 0.2679(2) 0.4302(1) 0.6211(3)
C9 C 0.3431(2) 0.3798(1) 0.7550(3)
H1 H 0.1282 0.3517 0.3655
H2 H 0.1935 0.3371 0.2457
H3 H 0.3624 0.2749 0.8174
H4 H 0.2507 0.3029 0.7872
H5 H 0.2167 0.4524 0.3546
H6 H 0.3212 0.4093 0.4207
H7 H 0.2018 0.4261 0.6332
H8 H 0.2929 0.4791 0.6473
H9 H 0.4073 0.3803 0.7355
H10 H 0.3541 0.3973 0.8728
C1E C 0.5369(1) 0.2921(1) 0.1316(2)
N1E N 0.5675(2) 0.2627(1) 0.0334(2)
N5F N 0.3032(1) 0.1556(1) 0.6343(2)
N6F N 0.1945(1) 0.1967(1) 0.2588(2)
C7F C 0.2458(2) 0.0867(1) 0.5707(3)
C8F C 0.2321(2) 0.0698(1) 0.3789(3)
C9F C 0.1569(2) 0.1202(1) 0.2450(3)
H1F H 0.3718 0.1483 0.6345
H2F H 0.3065 0.1629 0.7543
H3F H 0.1376 0.2251 0.1826
H4F H 0.2493 0.1971 0.2128
H5F H 0.2833 0.0476 0.6454
H6F H 0.1788 0.0907 0.5793
H7F H 0.2982 0.0739 0.3668
H8F H 0.2071 0.0209 0.3527
H9F H 0.0927 0.1197 0.2645
H10F H 0.1459 0.1027 0.1272
N1F N 0.0675(2) 0.2373(1) 0.5334(2)
Cu1C Cu 0.7500 0.2500 0.0000
N3 N 0.6578(2) 0.1541(1) 0.4599(2)
N4 N 0.5000 -0.0565(2) 0.2500
C4 C 0.5866(2) 0.1221(1) 0.3665(2)
C5 C 0.5000 0.0842(2) 0.2500
C6 C 0.5000 0.0070(2) 0.2500
C4E C 0.4134(2) 0.1221(1) 0.1335(2)
N3E N 0.3422(2) 0.1541(1) 0.0401(2)
loop_
_geom_bond_atom_site_label_1
_geom_bond_atom_site_label_2
_geom_bond_site_symmetry_1
_geom_bond_site_symmetry_2
Cu1 N1 1_555 1_555
N1 C1 1_555 1_555
N2 C3 1_555 1_555
C1 C2 1_555 1_555
C2 C3 1_555 1_555
N3 C4 1_555 1_555
N4 C6 1_555 1_555
C4 C5 1_555 1_555
C5 C6 1_555 1_555
N5 Cu1 1_555 1_555
N6 Cu1 1_555 1_555
C7 N5 1_555 1_555
C8 C7 1_555 1_555
C9 N6 1_555 1_555
H1 N5 1_555 1_555
H2 N5 1_555 1_555
H3 N6 1_555 1_555
H4 N6 1_555 1_555
H5 C7 1_555 1_555
H6 C7 1_555 1_555
H7 C8 1_555 1_555
H8 C8 1_555 1_555
H9 C9 1_555 1_555
H10 C9 1_555 1_555
C1E C2 1_555 1_555
N1E C1E 1_555 1_555
C4E C5 1_555 1_555
N3E C4E 1_555 1_555
N5F Cu1 1_555 1_555
N6F Cu1 1_555 1_555
C7F N5F 1_555 1_555
C8F C7F 1_555 1_555
C9F N6F 1_555 1_555
H1F N5F 1_555 1_555
H2F N5F 1_555 1_555
H3F N6F 1_555 1_555
H4F N6F 1_555 1_555
H5F C7F 1_555 1_555
H6F C7F 1_555 1_555
H7F C8F 1_555 1_555
H8F C8F 1_555 1_555
H9F C9F 1_555 1_555
H10F C9F 1_555 1_555
N1F Cu1 1_555 1_555
Cu1C N1E 1_555 1_555
C8 C9 1_555 1_555
C8F C9F 1_555 1_555

#END
