
#######################################################################
#
#                 Cambridge Crystallographic Data Centre
#                                CCDC 
#
#######################################################################
#
# If this CIF has been generated from an entry in the Cambridge 
# Structural Database, then it will include bibliographic, chemical, 
# crystal, experimental, refinement or atomic coordinate data resulting 
# from the CCDC's data processing and validation procedures.
#
#######################################################################

data_EJOYOR
_symmetry_cell_setting           monoclinic
_symmetry_space_group_name_H-M   'P 21/n'
_symmetry_Int_Tables_number      14
_space_group_name_Hall           '-P 2yn'
loop_
_symmetry_equiv_pos_site_id
_symmetry_equiv_pos_as_xyz
1 x,y,z
2 1/2+x,1/2-y,1/2+z
3 -x,-y,-z
4 1/2-x,1/2+y,1/2-z
_cell_length_a                   6.9610(10)
_cell_length_b                   14.442(3)
_cell_length_c                   7.4340(10)
_cell_angle_alpha                90
_cell_angle_beta                 92.02(3)
_cell_angle_gamma                90
_cell_volume                     746.881
loop_
_atom_site_label
_atom_site_type_symbol
_atom_site_fract_x
_atom_site_fract_y
_atom_site_fract_z
Co1 Co 0.17513(5) 0.30770(2) 0.42589(5)
C1 C 0.4281(4) 0.16098(19) 0.5943(4)
C2 C 0.3998(5) 0.1104(2) 0.4165(4)
C3 C 0.4264(4) 0.16927(18) 0.2503(4)
O1 O 0.3422(3) 0.23720(15) 0.6150(3)
O2 O 0.3481(3) 0.24783(14) 0.2374(3)
O3 O 0.5342(3) 0.12356(14) 0.7131(3)
O4 O 0.5250(3) 0.13391(14) 0.1314(3)
C4 C 0.5567(5) 0.4225(2) 0.4237(5)
C5 C 0.6828(4) 0.4945(2) 0.4590(5)
N1 N 0.3719(3) 0.42683(16) 0.4647(3)
O5 O -0.0170(3) 0.18931(17) 0.4189(3)
H1 H 0.468(5) 0.058(3) 0.417(5)
H2 H 0.810(6) 0.490(3) 0.425(5)
H3 H 0.590(6) 0.369(3) 0.376(5)
H4 H 0.267(6) 0.082(2) 0.417(5)
H5 H -0.069(6) 0.201(3) 0.494(7)
H6 H -0.075(7) 0.204(3) 0.319(8)
N1B N 0.6281(3) 0.57317(16) 0.5353(3)
C4B C 0.4433(5) 0.5775(2) 0.5763(5)
C5B C 0.3172(4) 0.5055(2) 0.5410(5)
H2B H 0.190(6) 0.510(3) 0.575(5)
H3B H 0.410(6) 0.631(3) 0.624(5)
C1A C -0.0719(4) 0.33902(19) 0.0943(4)
C2A C -0.1002(5) 0.3896(2) -0.0835(4)
C3A C -0.0736(4) 0.33073(18) -0.2497(4)
O1A O -0.1578(3) 0.26280(15) 0.1150(3)
O2A O -0.1519(3) 0.25217(14) -0.2626(3)
O3A O 0.0342(3) 0.37644(14) 0.2131(3)
O4A O 0.0250(3) 0.36609(14) -0.3686(3)
H1A H -0.032(5) 0.442(3) -0.083(5)
H4A H -0.233(6) 0.418(2) -0.083(5)
Co1A Co -0.32487(5) 0.19230(2) -0.07411(5)
O5A O -0.5170(3) 0.31069(17) -0.0811(3)
H5A H -0.569(6) 0.299(3) -0.006(7)
H6A H -0.575(7) 0.296(3) -0.181(8)
O4A_2 O 0.0250(3) 0.36609(14) 0.6314(3)
Co1A_2 Co 0.67513(5) 0.19230(2) 0.92589(5)
Co1A_3 Co 0.67513(5) 0.19230(2) -0.07411(5)
Co1B Co 0.82487(5) 0.69230(2) 0.57411(5)
Co1_2 Co 0.17513(5) 0.30770(2) -0.57411(5)
O3_2 O -0.4658(3) 0.12356(14) -0.2869(3)
O4_2 O -0.4750(3) 0.13391(14) 0.1314(3)
N1A N -0.1281(3) 0.07317(16) -0.0353(3)
loop_
_geom_bond_atom_site_label_1
_geom_bond_atom_site_label_2
_geom_bond_site_symmetry_1
_geom_bond_site_symmetry_2
Co1 O1 1_555 1_555
C1 C2 1_555 1_555
C2 C3 1_555 1_555
C3 O2 1_555 1_555
O1 C1 1_555 1_555
O2 Co1 1_555 1_555
O3 C1 1_555 1_555
O4 C3 1_555 1_555
C4 C5 1_555 1_555
C5 H2 1_555 1_555
N1 Co1 1_555 1_555
O5 Co1 1_555 1_555
H1 C2 1_555 1_555
H3 C4 1_555 1_555
H4 C2 1_555 1_555
H5 O5 1_555 1_555
H6 O5 1_555 1_555
N1B C5 1_555 1_555
C4B N1B 1_555 1_555
C5B N1 1_555 1_555
H2B C5B 1_555 1_555
H3B C4B 1_555 1_555
C1A C2A 1_555 1_555
C2A C3A 1_555 1_555
C3A O2A 1_555 1_555
O1A C1A 1_555 1_555
O2A Co1A 1_555 1_555
O3A Co1 1_555 1_555
O4A C3A 1_555 1_555
H1A C2A 1_555 1_555
H4A C2A 1_555 1_555
Co1A O1A 1_555 1_555
O5A Co1A 1_555 1_555
H5A O5A 1_555 1_555
H6A O5A 1_555 1_555
O4A_2 Co1 1_555 1_555
Co1A_2 O3 1_555 1_555
Co1A_3 O4 1_555 1_555
Co1B N1B 1_555 1_555
Co1_2 O4A 1_555 1_555
O3_2 Co1A 1_555 1_555
O4_2 Co1A 1_555 1_555
N1A Co1A 1_555 1_555
C4 N1 1_555 1_555
C4B C5B 1_555 1_555
C1A O3A 1_555 1_555

#END
