
#######################################################################
#
#                 Cambridge Crystallographic Data Centre
#                                CCDC 
#
#######################################################################
#
# If this CIF has been generated from an entry in the Cambridge 
# Structural Database, then it will include bibliographic, chemical, 
# crystal, experimental, refinement or atomic coordinate data resulting 
# from the CCDC's data processing and validation procedures.
#
#######################################################################

data_EJOZEI
_symmetry_cell_setting           monoclinic
_symmetry_space_group_name_H-M   'C 2'
_symmetry_Int_Tables_number      5
_space_group_name_Hall           'C 2y'
loop_
_symmetry_equiv_pos_site_id
_symmetry_equiv_pos_as_xyz
1 x,y,z
2 -x,y,-z
3 1/2+x,1/2+y,z
4 1/2-x,1/2+y,-z
_cell_length_a                   16.546(2)
_cell_length_b                   6.9290(5)
_cell_length_c                   7.4783(8)
_cell_angle_alpha                90
_cell_angle_beta                 113.472(5)
_cell_angle_gamma                90
_cell_volume                     786.423
loop_
_atom_site_label
_atom_site_type_symbol
_atom_site_fract_x
_atom_site_fract_y
_atom_site_fract_z
Zn1 Zn 0.30508(4) 0.12771(12) 0.29534(8)
C1 C 0.1702(4) -0.1214(10) 0.3604(9)
C2 C 0.1175(4) -0.1087(12) 0.1415(9)
H1 H 0.0887 0.0162 0.1124
H2 H 0.0716 -0.2061 0.1048
C3 C 0.1693(4) -0.1345(11) 0.0135(9)
O1 O 0.2437(3) -0.0368(9) 0.4380(6)
O2 O 0.2424(3) -0.0513(9) 0.0600(7)
O3 O 0.1351(3) -0.2116(9) 0.4526(7)
O4 O 0.1335(3) -0.2355(9) -0.1342(7)
C4 C 0.5000 0.0315(16) 0.5000
H3 H 0.5000 0.1657 0.5000
C5 C 0.4226(5) -0.2467(13) 0.4155(16)
H4 H 0.3696 -0.3130 0.3577
C6 C 0.5000 -0.3467(15) 0.5000
H5 H 0.5000 -0.4809 0.5000
N1 N 0.4231(3) -0.0571(9) 0.4161(8)
O5 O 0.1934(3) 0.3237(9) 0.1958(7)
C5A C 0.5774(5) -0.2467(13) 0.5845(16)
H4A H 0.6304 -0.3130 0.6423
N1A N 0.5769(3) -0.0571(9) 0.5839(8)
C1C C 0.3298(4) 0.3786(10) 0.6396(9)
C2C C 0.3825(4) 0.3913(12) 0.8585(9)
H1C H 0.4113 0.5162 0.8876
H2C H 0.4284 0.2939 0.8952
C3C C 0.3307(4) 0.3655(11) 0.9865(9)
O1C O 0.2563(3) 0.4632(9) 0.5620(6)
O2C O 0.2576(3) 0.4487(9) 0.9400(7)
O3C O 0.3649(3) 0.2884(9) 0.5474(7)
O4C O 0.3665(3) 0.2645(9) 1.1342(7)
Zn1C Zn 0.19492(4) 0.62771(12) 0.70466(8)
O5C O 0.3066(3) 0.8237(9) 0.8042(7)
O4C_2 O 0.3665(3) 0.2645(9) 0.1342(7)
Zn1C_2 Zn 0.19492(4) -0.37229(12) 0.70466(8)
Zn1C_3 Zn 0.19492(4) -0.37229(12) -0.29534(8)
Zn1A Zn 0.69492(4) 0.12771(12) 0.70466(8)
Zn1_2 Zn 0.30508(4) 0.12771(12) 1.29534(8)
O3_2 O 0.1351(3) 0.7884(9) 0.4526(7)
O4_2 O 0.1335(3) 0.7645(9) 0.8658(7)
N1C N 0.0769(3) 0.4429(9) 0.5839(8)
loop_
_geom_bond_atom_site_label_1
_geom_bond_atom_site_label_2
_geom_bond_site_symmetry_1
_geom_bond_site_symmetry_2
Zn1 O1 1_555 1_555
C1 C2 1_555 1_555
C2 H1 1_555 1_555
H2 C2 1_555 1_555
C3 C2 1_555 1_555
O1 C1 1_555 1_555
O2 Zn1 1_555 1_555
O3 C1 1_555 1_555
O4 C3 1_555 1_555
C4 H3 1_555 1_555
C5 H4 1_555 1_555
C6 C5 1_555 1_555
H5 C6 1_555 1_555
N1 Zn1 1_555 1_555
O5 Zn1 1_555 1_555
C5A C6 1_555 1_555
H4A C5A 1_555 1_555
N1A C4 1_555 1_555
C1C C2C 1_555 1_555
C2C H1C 1_555 1_555
H2C C2C 1_555 1_555
C3C C2C 1_555 1_555
O1C C1C 1_555 1_555
O2C C3C 1_555 1_555
O3C Zn1 1_555 1_555
O4C C3C 1_555 1_555
Zn1C O1C 1_555 1_555
O5C Zn1C 1_555 1_555
O4C_2 Zn1 1_555 1_555
Zn1C_2 O3 1_555 1_555
Zn1C_3 O4 1_555 1_555
Zn1A N1A 1_555 1_555
Zn1_2 O4C 1_555 1_555
O3_2 Zn1C 1_555 1_555
O4_2 Zn1C 1_555 1_555
N1C Zn1C 1_555 1_555
C3 O2 1_555 1_555
C4 N1 1_555 1_555
C5 N1 1_555 1_555
C5A N1A 1_555 1_555
C1C O3C 1_555 1_555
O2C Zn1C 1_555 1_555

#END
