
#######################################################################
#
#                 Cambridge Crystallographic Data Centre
#                                CCDC 
#
#######################################################################
#
# If this CIF has been generated from an entry in the Cambridge 
# Structural Database, then it will include bibliographic, chemical, 
# crystal, experimental, refinement or atomic coordinate data resulting 
# from the CCDC's data processing and validation procedures.
#
#######################################################################

data_EJUPUV
_symmetry_cell_setting           triclinic
_symmetry_space_group_name_H-M   'P -1'
_symmetry_Int_Tables_number      2
_space_group_name_Hall           '-P 1'
loop_
_symmetry_equiv_pos_site_id
_symmetry_equiv_pos_as_xyz
1 x,y,z
2 -x,-y,-z
_cell_length_a                   11.2000(9)
_cell_length_b                   11.5369(9)
_cell_length_c                   18.3362(14)
_cell_angle_alpha                88.2210(10)
_cell_angle_beta                 81.4750(10)
_cell_angle_gamma                70.8300(10)
_cell_volume                     2212.78
loop_
_atom_site_label
_atom_site_type_symbol
_atom_site_fract_x
_atom_site_fract_y
_atom_site_fract_z
C1 C 0.2154(3) 1.1698(3) 0.23495(17)
C2 C 0.2340(3) 1.0137(3) 0.10026(16)
C3 C 0.1707(3) 1.1518(3) 0.10447(16)
C4 C 0.1579(3) 1.2235(3) 0.16751(16)
C5 C 0.0898(3) 1.3483(3) 0.16864(18)
H1 H 0.0820 1.3958 0.2103
C6 C 0.0336(3) 1.4024(3) 0.10814(19)
H2 H -0.0153 1.4852 0.1101
C7 C 0.0501(3) 1.3332(3) 0.04476(18)
H3 H 0.0149 1.3696 0.0035
C8 C 0.1193(3) 1.2097(3) 0.04345(16)
C9 C 0.2053(3) 1.1677(3) -0.08132(16)
C10 C 0.3338(3) 1.1480(3) -0.08097(19)
H4 H 0.3709 1.1172 -0.0392
C11 C 0.4069(3) 1.1740(3) -0.1425(2)
H5 H 0.4933 1.1609 -0.1422
C12 C 0.3523(3) 1.2194(3) -0.20442(19)
H6 H 0.4003 1.2411 -0.2450
C13 C 0.2259(3) 1.2323(3) -0.20568(17)
H7 H 0.1909 1.2593 -0.2486
C14 C 0.1491(3) 1.2065(3) -0.14516(16)
C15 C 0.0160(3) 1.2140(3) -0.15362(16)
C16 C 0.2606(3) 0.8088(3) 0.37817(15)
C17 C 0.2769(3) 0.6547(3) 0.24254(16)
C18 C 0.2386(3) 0.6861(2) 0.38180(15)
C19 C 0.2466(3) 0.6143(3) 0.31979(15)
C20 C 0.2240(3) 0.5030(3) 0.32838(18)
H8 H 0.2331 0.4542 0.2872
C21 C 0.1880(4) 0.4643(3) 0.39767(19)
H9 H 0.1707 0.3908 0.4029
C22 C 0.1777(3) 0.5350(3) 0.45935(18)
H10 H 0.1520 0.5100 0.5060
C23 C 0.2060(3) 0.6431(3) 0.45121(16)
C24 C 0.2414(3) 0.6622(3) 0.57397(16)
C25 C 0.3542(3) 0.5653(3) 0.56756(19)
H11 H 0.3954 0.5330 0.5212
C26 C 0.4065(4) 0.5157(4) 0.6298(2)
H12 H 0.4838 0.4516 0.6252
C27 C 0.3442(4) 0.5612(4) 0.6983(2)
H13 H 0.3764 0.5254 0.7405
C28 C 0.2338(4) 0.6602(3) 0.70405(19)
H14 H 0.1944 0.6933 0.7505
C29 C 0.1794(3) 0.7122(3) 0.64253(16)
C30 C 0.0571(3) 0.8201(3) 0.65381(16)
C31 C 0.1247(3) 1.2044(3) 0.53194(19)
H15 H 0.0519 1.1873 0.5243
C32 C 0.1177(4) 1.2760(3) 0.59207(19)
H16 H 0.0423 1.3055 0.6249
C33 C 0.2245(4) 1.3028(3) 0.60249(18)
H17 H 0.2215 1.3538 0.6415
C34 C 0.3370(4) 1.2531(3) 0.55452(17)
H18 H 0.4111 1.2681 0.5619
C35 C 0.3377(3) 1.1809(3) 0.49541(16)
C36 C 0.4541(3) 1.1253(3) 0.44166(16)
C37 C 0.5739(3) 1.1265(3) 0.45231(19)
H19 H 0.5834 1.1648 0.4939
C38 C 0.6780(4) 1.0707(3) 0.4010(2)
H20 H 0.7588 1.0706 0.4077
C39 C 0.6626(4) 1.0153(3) 0.3402(2)
H21 H 0.7323 0.9767 0.3050
C40 C 0.5424(4) 1.0177(3) 0.3321(2)
H22 H 0.5318 0.9811 0.2901
C41 C 0.5620(3) 0.5769(3) 0.0938(2)
H23 H 0.5373 0.5705 0.1441
C42 C 0.6848(4) 0.5132(3) 0.0636(3)
H24 H 0.7423 0.4639 0.0927
C43 C 0.7212(4) 0.5235(4) -0.0100(3)
H25 H 0.8039 0.4805 -0.0318
C44 C 0.6352(4) 0.5974(4) -0.0515(3)
H26 H 0.6595 0.6059 -0.1016
C45 C 0.5119(3) 0.6597(3) -0.01859(19)
C46 C 0.4104(4) 0.7354(3) -0.06073(18)
C47 C 0.4354(5) 0.7595(5) -0.1351(2)
H27 H 0.5180 0.7322 -0.1607
C48 C 0.3331(8) 0.8254(6) -0.1699(3)
H28 H 0.3470 0.8411 -0.2200
C49 C 0.2137(6) 0.8673(5) -0.1327(3)
H29 H 0.1458 0.9134 -0.1562
C50 C 0.1944(4) 0.8405(3) -0.0591(2)
H30 H 0.1121 0.8679 -0.0330
N1 N 0.2317(2) 1.1585(2) 0.48407(14)
N2 N 0.4392(3) 1.0702(2) 0.38186(14)
N3 N 0.4760(2) 0.6481(2) 0.05360(15)
N4 N 0.2917(3) 0.7758(2) -0.02421(14)
O1 O 0.2299(3) 1.2382(2) 0.28034(15)
O2 O 0.2434(2) 1.05406(18) 0.24544(11)
O3 O 0.1572(2) 0.95426(18) 0.12553(11)
O4 O 0.3437(2) 0.9666(2) 0.07191(13)
O5 O 0.1328(2) 1.13835(19) -0.01925(11)
O6 O -0.0727(2) 1.2631(2) -0.10343(12)
O7 O 0.0060(2) 1.1707(2) -0.21421(12)
O8 O 0.1631(2) 0.90178(18) 0.36930(11)
O9 O 0.3641(2) 0.8156(2) 0.38690(13)
O10 O 0.28270(19) 0.76332(18) 0.23234(11)
O11 O 0.2930(3) 0.5842(2) 0.18988(12)
O12 O 0.1937(2) 0.71785(18) 0.51142(11)
O13 O 0.0512(2) 0.89506(19) 0.70434(12)
O14 O -0.0258(2) 0.8254(2) 0.61507(14)
Cd1 Cd 0.23907(2) 1.06418(2) 0.372967(12)
Cd2 Cd 0.10542(2) 0.940489(18) 0.250642(11)
Cd3 Cd 0.26896(2) 0.751604(19) 0.101938(11)
O6A O 0.0727(2) 0.7369(2) 0.10343(12)
O7A O -0.0060(2) 0.8293(2) 0.21421(12)
O13A O -0.0512(2) 1.10494(19) 0.29566(12)
O14A O 0.0258(2) 1.1746(2) 0.38493(14)
Cd1A Cd -0.23907(2) 0.93582(2) 0.627033(12)
Cd2A Cd -0.10542(2) 1.059511(18) -0.250642(11)
Cd2A_2 Cd -0.10542(2) 1.059511(18) 0.749358(11)
Cd3A Cd -0.26896(2) 1.248396(19) -0.101938(11)
loop_
_geom_bond_atom_site_label_1
_geom_bond_atom_site_label_2
_geom_bond_site_symmetry_1
_geom_bond_site_symmetry_2
C1 C4 1_555 1_555
C2 C3 1_555 1_555
C3 C4 1_555 1_555
C4 C5 1_555 1_555
C5 H1 1_555 1_555
C6 C5 1_555 1_555
H2 C6 1_555 1_555
C7 C6 1_555 1_555
H3 C7 1_555 1_555
C8 C3 1_555 1_555
C9 C10 1_555 1_555
C10 H4 1_555 1_555
C11 C10 1_555 1_555
H5 C11 1_555 1_555
C12 C11 1_555 1_555
H6 C12 1_555 1_555
C13 C12 1_555 1_555
H7 C13 1_555 1_555
C14 C9 1_555 1_555
C15 C14 1_555 1_555
C16 C18 1_555 1_555
C17 C19 1_555 1_555
C18 C19 1_555 1_555
C19 C20 1_555 1_555
C20 H8 1_555 1_555
C21 C20 1_555 1_555
H9 C21 1_555 1_555
C22 C21 1_555 1_555
H10 C22 1_555 1_555
C23 C18 1_555 1_555
C24 C25 1_555 1_555
C25 H11 1_555 1_555
C26 C25 1_555 1_555
H12 C26 1_555 1_555
C27 C26 1_555 1_555
H13 C27 1_555 1_555
C28 C27 1_555 1_555
H14 C28 1_555 1_555
C29 C24 1_555 1_555
C30 C29 1_555 1_555
C31 H15 1_555 1_555
C32 C31 1_555 1_555
H16 C32 1_555 1_555
C33 C32 1_555 1_555
H17 C33 1_555 1_555
C34 C33 1_555 1_555
H18 C34 1_555 1_555
C35 C34 1_555 1_555
C36 C35 1_555 1_555
C37 C36 1_555 1_555
H19 C37 1_555 1_555
C38 C37 1_555 1_555
H20 C38 1_555 1_555
C39 C38 1_555 1_555
H21 C39 1_555 1_555
C40 C39 1_555 1_555
H22 C40 1_555 1_555
C41 H23 1_555 1_555
C42 C41 1_555 1_555
H24 C42 1_555 1_555
C43 C42 1_555 1_555
H25 C43 1_555 1_555
C44 C43 1_555 1_555
H26 C44 1_555 1_555
C45 C44 1_555 1_555
C46 C45 1_555 1_555
C47 C46 1_555 1_555
H27 C47 1_555 1_555
C48 C47 1_555 1_555
H28 C48 1_555 1_555
C49 C48 1_555 1_555
H29 C49 1_555 1_555
C50 C49 1_555 1_555
H30 C50 1_555 1_555
N1 C31 1_555 1_555
N2 C36 1_555 1_555
N3 C41 1_555 1_555
N4 C46 1_555 1_555
O1 C1 1_555 1_555
O2 C1 1_555 1_555
O3 C2 1_555 1_555
O4 C2 1_555 1_555
O5 C8 1_555 1_555
O6 C15 1_555 1_555
O7 C15 1_555 1_555
O8 C16 1_555 1_555
O9 C16 1_555 1_555
O10 C17 1_555 1_555
O11 C17 1_555 1_555
O12 C23 1_555 1_555
O13 C30 1_555 1_555
O14 C30 1_555 1_555
Cd1 N1 1_555 1_555
Cd2 O2 1_555 1_555
Cd3 N3 1_555 1_555
O6A Cd3 1_555 1_555
O7A Cd2 1_555 1_555
O13A Cd2 1_555 1_555
O14A Cd1 1_555 1_555
Cd1A O14 1_555 1_555
Cd2A O7 1_555 1_555
Cd2A_2 O13 1_555 1_555
Cd3A O6 1_555 1_555
C7 C8 1_555 1_555
C9 O5 1_555 1_555
C13 C14 1_555 1_555
C22 C23 1_555 1_555
C24 O12 1_555 1_555
C28 C29 1_555 1_555
C35 N1 1_555 1_555
C40 N2 1_555 1_555
C45 N3 1_555 1_555
C50 N4 1_555 1_555
N2 Cd1 1_555 1_555
N4 Cd3 1_555 1_555
O1 Cd1 1_555 1_555
O2 Cd1 1_555 1_555
O3 Cd2 1_555 1_555
O3 Cd3 1_555 1_555
O4 Cd3 1_555 1_555
O8 Cd1 1_555 1_555
O8 Cd2 1_555 1_555
O9 Cd1 1_555 1_555
O10 Cd2 1_555 1_555
O10 Cd3 1_555 1_555
O11 Cd3 1_555 1_555

#END
