
#######################################################################
#
#                 Cambridge Crystallographic Data Centre
#                                CCDC 
#
#######################################################################
#
# If this CIF has been generated from an entry in the Cambridge 
# Structural Database, then it will include bibliographic, chemical, 
# crystal, experimental, refinement or atomic coordinate data resulting 
# from the CCDC's data processing and validation procedures.
#
#######################################################################

data_EJUPOP
_symmetry_cell_setting           triclinic
_symmetry_space_group_name_H-M   'P -1'
_symmetry_Int_Tables_number      2
_space_group_name_Hall           '-P 1'
loop_
_symmetry_equiv_pos_site_id
_symmetry_equiv_pos_as_xyz
1 x,y,z
2 -x,-y,-z
_cell_length_a                   11.6201(5)
_cell_length_b                   11.9085(5)
_cell_length_c                   18.7329(8)
_cell_angle_alpha                84.3870(10)
_cell_angle_beta                 86.8870(10)
_cell_angle_gamma                66.2650(10)
_cell_volume                     2361.27
loop_
_atom_site_label
_atom_site_type_symbol
_atom_site_fract_x
_atom_site_fract_y
_atom_site_fract_z
Cd1 Cd -0.03663(3) 0.31499(3) 0.616478(15)
Cd2 Cd 0.06714(3) 0.44172(3) 0.741731(15)
Cd3 Cd 0.25910(3) 0.26035(3) 0.880613(15)
C1 C 0.4121(4) 0.2790(3) 0.6720(2)
C2 C 0.3365(4) 0.0232(4) 0.9880(3)
C3 C 0.5244(4) 0.2968(5) 0.6637(2)
H1 H 0.5719 0.2892 0.7037
N1 N -0.0494(3) 0.1248(3) 0.62853(19)
O1 O 0.0460(3) 0.3860(3) 0.86241(15)
O2 O 0.3111(3) 0.3301(3) 0.48645(15)
O3 O 0.2546(2) 0.2627(3) 0.75499(15)
O4 O 0.1228(2) 0.3812(2) 0.62665(14)
O5 O 0.0542(3) 0.2014(3) 0.89624(18)
C4 C 0.2807(4) 0.2809(4) 0.3705(2)
O6 O -0.0458(2) 0.3199(3) 0.74008(14)
C5 C 0.1600(4) 0.3307(5) 1.0415(2)
H2 H 0.1347 0.4109 1.0208
C6 C 0.4973(4) 0.3314(5) 0.5364(2)
H3 H 0.5260 0.3478 0.4909
C7 C 0.1611(6) 0.1950(7) 1.1423(3)
H4 H 0.1379 0.1812 1.1895
O7 O 0.4387(3) 0.2311(4) 0.79778(16)
N2 N 0.3641(3) 0.0521(3) 0.9205(2)
C8 C -0.0290(5) -0.0656(5) 0.6905(3)
H5 H -0.0012 -0.1214 0.7306
O8 O 0.2048(3) 0.1875(3) 0.60235(19)
C9 C 0.3427(3) 0.2884(3) 0.6116(2)
N3 N 0.2267(3) 0.2388(3) 1.00245(18)
N4 N -0.1191(3) 0.2941(3) 0.51287(18)
C10 C 0.3514(4) 0.2488(4) 0.4328(2)
C11 C -0.2022(4) 0.1699(4) 0.4562(2)
C12 C 0.2318(5) 0.0948(5) 1.1031(3)
C13 C 0.4559(4) 0.1412(4) 0.4408(2)
H6 H 0.5031 0.1224 0.4821
C14 C -0.4096(4) 0.4775(5) 0.8930(3)
H7 H -0.4966 0.5174 0.8964
C15 C 0.2626(4) 0.1217(4) 1.0320(2)
O9 O -0.2333(3) 0.3576(4) 0.69953(19)
C16 C -0.1253(4) -0.0071(4) 0.5749(3)
C17 C 0.3878(4) 0.3126(4) 0.5441(2)
C18 C 0.4917(5) 0.0604(4) 0.3878(3)
H8 H 0.5618 -0.0136 0.3940
C19 C 0.3206(4) 0.1985(4) 0.3176(2)
H9 H 0.2758 0.2181 0.2753
C20 C 0.2161(4) 0.2819(4) 0.6151(2)
C21 C 0.3798(5) -0.0985(4) 1.0198(3)
C22 C -0.1485(4) 0.3647(3) 0.8813(2)
C23 C 0.3678(4) 0.2554(4) 0.7465(2)
C24 C -0.2213(4) 0.3869(4) 0.8216(2)
C25 C -0.1036(3) 0.1021(4) 0.5740(2)
C26 C -0.1656(4) 0.3535(4) 0.7485(2)
C27 C -0.1561(4) 0.3761(4) 0.4574(2)
H10 H -0.1399 0.4465 0.4573
C28 C -0.1415(3) 0.1903(3) 0.5125(2)
C29 C -0.0052(4) 0.3085(4) 0.8793(2)
C30 C 0.5649(4) 0.3258(5) 0.5963(3)
H11 H 0.6373 0.3415 0.5912
C31 C 0.3438(6) -0.1206(6) 1.0928(4)
H12 H 0.3714 -0.2012 1.1132
C32 C 0.1263(5) 0.3116(6) 1.1126(3)
H13 H 0.0805 0.3779 1.1392
C33 C -0.2210(4) 0.0577(4) 0.4584(3)
H14 H -0.2588 0.0428 0.4199
C34 C -0.0842(5) -0.0907(5) 0.6362(3)
H15 H -0.0953 -0.1642 0.6393
C35 C -0.1846(4) -0.0267(5) 0.5154(3)
H16 H -0.1984 -0.0985 0.5159
C36 C -0.3527(4) 0.4417(4) 0.8276(2)
H17 H -0.4015 0.4539 0.7876
C37 C 0.4830(5) -0.1616(5) 0.9083(4)
H18 H 0.5328 -0.2227 0.8792
C38 C 0.1643(4) 0.3979(4) 0.3577(2)
C39 C -0.0144(5) 0.0452(5) 0.6856(3)
H19 H 0.0211 0.0639 0.7237
C40 C -0.2417(4) 0.2608(5) 0.3983(2)
H20 H -0.2834 0.2505 0.3601
C41 C 0.4235(5) 0.0895(5) 0.3259(3)
H21 H 0.4473 0.0355 0.2899
C42 C -0.2181(5) 0.3642(5) 0.3988(3)
H22 H -0.2428 0.4252 0.3610
C43 C 0.4357(5) -0.0368(5) 0.8816(3)
H23 H 0.4559 -0.0168 0.8347
C44 C 0.2741(6) -0.0319(6) 1.1309(3)
H24 H 0.2509 -0.0507 1.1773
C45 C 0.4556(5) -0.1910(5) 0.9758(4)
H25 H 0.4867 -0.2731 0.9939
O10 O 0.0992(3) 0.4016(3) 0.30436(17)
O11 O 0.1413(3) 0.4799(3) 0.39831(19)
C46 C -0.3374(4) 0.4542(4) 0.9533(3)
H26 H -0.3758 0.4766 0.9976
O12 O -0.1349(3) 0.3763(3) 1.00761(15)
C47 C -0.1566(4) 0.2963(4) 1.0623(2)
C48 C -0.1944(4) 0.3376(4) 1.1303(2)
C49 C -0.2090(4) 0.3980(4) 0.9476(2)
C50 C -0.1318(5) 0.1789(4) 1.0482(3)
H27 H -0.1022 0.1533 1.0029
C51 C -0.2110(4) 0.4614(4) 1.1512(2)
C52 C -0.2109(5) 0.2511(5) 1.1819(3)
H28 H -0.2356 0.2739 1.2282
C53 C -0.1924(6) 0.1367(5) 1.1671(3)
H29 H -0.2084 0.0839 1.2023
C54 C -0.1502(6) 0.0972(5) 1.1005(3)
H30 H -0.1342 0.0172 1.0907
O13 O -0.2653(3) 0.5524(3) 1.10877(16)
O14 O -0.1701(3) 0.4597(3) 1.21250(15)
Cd1A Cd 0.03663(3) 0.68501(3) 0.383522(15)
Cd2A Cd -0.06714(3) 0.55828(3) 0.258269(15)
Cd2A_2 Cd -0.06714(3) 0.55828(3) 1.258269(15)
Cd3A Cd -0.25910(3) 0.73965(3) 1.119387(15)
O10A O -0.0992(3) 0.5984(3) 0.69564(17)
O11A O -0.1413(3) 0.5201(3) 0.60169(19)
O13A O 0.2653(3) 0.4476(3) 0.89123(16)
O14A O 0.1701(3) 0.5403(3) 0.78750(15)
loop_
_geom_bond_atom_site_label_1
_geom_bond_atom_site_label_2
_geom_bond_site_symmetry_1
_geom_bond_site_symmetry_2
Cd1 N1 1_555 1_555
Cd2 O1 1_555 1_555
Cd3 O1 1_555 1_555
C1 C3 1_555 1_555
C2 N2 1_555 1_555
C3 H1 1_555 1_555
N1 C25 1_555 1_555
O1 C29 1_555 1_555
O2 C10 1_555 1_555
O3 Cd2 1_555 1_555
O4 Cd1 1_555 1_555
O5 Cd3 1_555 1_555
C4 C10 1_555 1_555
O6 Cd1 1_555 1_555
C5 H2 1_555 1_555
C6 H3 1_555 1_555
C7 H4 1_555 1_555
O7 Cd3 1_555 1_555
N2 Cd3 1_555 1_555
C8 H5 1_555 1_555
O8 Cd1 1_555 1_555
C9 C1 1_555 1_555
N3 Cd3 1_555 1_555
N4 Cd1 1_555 1_555
C10 C13 1_555 1_555
C11 C28 1_555 1_555
C12 C7 1_555 1_555
C13 H6 1_555 1_555
C14 H7 1_555 1_555
C15 C2 1_555 1_555
O9 Cd1 1_555 1_555
C16 C25 1_555 1_555
C17 O2 1_555 1_555
C18 C13 1_555 1_555
H8 C18 1_555 1_555
C19 C4 1_555 1_555
H9 C19 1_555 1_555
C20 O4 1_555 1_555
C21 C2 1_555 1_555
C22 C24 1_555 1_555
C23 C1 1_555 1_555
C24 C26 1_555 1_555
C25 C28 1_555 1_555
C26 O6 1_555 1_555
C27 N4 1_555 1_555
H10 C27 1_555 1_555
C28 N4 1_555 1_555
C29 O5 1_555 1_555
C30 C3 1_555 1_555
H11 C30 1_555 1_555
C31 C21 1_555 1_555
H12 C31 1_555 1_555
C32 C5 1_555 1_555
H13 C32 1_555 1_555
C33 C11 1_555 1_555
H14 C33 1_555 1_555
C34 C8 1_555 1_555
H15 C34 1_555 1_555
C35 C16 1_555 1_555
H16 C35 1_555 1_555
C36 C14 1_555 1_555
H17 C36 1_555 1_555
C37 H18 1_555 1_555
C38 C4 1_555 1_555
C39 N1 1_555 1_555
H19 C39 1_555 1_555
C40 C11 1_555 1_555
H20 C40 1_555 1_555
C41 C18 1_555 1_555
H21 C41 1_555 1_555
C42 C27 1_555 1_555
H22 C42 1_555 1_555
C43 N2 1_555 1_555
H23 C43 1_555 1_555
C44 C12 1_555 1_555
H24 C44 1_555 1_555
C45 C21 1_555 1_555
H25 C45 1_555 1_555
O10 C38 1_555 1_555
O11 C38 1_555 1_555
C46 C14 1_555 1_555
H26 C46 1_555 1_555
O12 C47 1_555 1_555
C47 C48 1_555 1_555
C48 C51 1_555 1_555
C49 C22 1_555 1_555
C50 C47 1_555 1_555
H27 C50 1_555 1_555
C51 O13 1_555 1_555
C52 C48 1_555 1_555
H28 C52 1_555 1_555
C53 C52 1_555 1_555
H29 C53 1_555 1_555
C54 C50 1_555 1_555
H30 C54 1_555 1_555
O13 Cd3A 1_555 1_555
O14 C51 1_555 1_555
Cd1A O11 1_555 1_555
Cd2A O10 1_555 1_555
Cd2A_2 O14 1_555 1_555
O10A Cd2 1_555 1_555
O11A Cd1 1_555 1_555
O13A Cd3 1_555 1_555
O14A Cd2 1_555 1_555
Cd2 O4 1_555 1_555
Cd2 O6 1_555 1_555
Cd3 O3 1_555 1_555
O3 C23 1_555 1_555
C5 N3 1_555 1_555
C6 C17 1_555 1_555
C6 C30 1_555 1_555
C7 C32 1_555 1_555
O7 C23 1_555 1_555
C8 C39 1_555 1_555
O8 C20 1_555 1_555
C9 C17 1_555 1_555
C9 C20 1_555 1_555
N3 C15 1_555 1_555
C12 C15 1_555 1_555
O9 C26 1_555 1_555
C16 C34 1_555 1_555
C19 C41 1_555 1_555
C22 C29 1_555 1_555
C24 C36 1_555 1_555
C31 C44 1_555 1_555
C33 C35 1_555 1_555
C37 C43 1_555 1_555
C37 C45 1_555 1_555
C40 C42 1_555 1_555
C46 C49 1_555 1_555
O12 C49 1_555 1_555
C53 C54 1_555 1_555

#END
