
#######################################################################
#
#                 Cambridge Crystallographic Data Centre
#                                CCDC 
#
#######################################################################
#
# If this CIF has been generated from an entry in the Cambridge 
# Structural Database, then it will include bibliographic, chemical, 
# crystal, experimental, refinement or atomic coordinate data resulting 
# from the CCDC's data processing and validation procedures.
#
#######################################################################

data_EJUPIJ
_symmetry_cell_setting           monoclinic
_symmetry_space_group_name_H-M   'C 2/c'
_symmetry_Int_Tables_number      15
_space_group_name_Hall           '-C 2yn'
loop_
_symmetry_equiv_pos_site_id
_symmetry_equiv_pos_as_xyz
1 x,y,z
2 -x,y,1/2-z
3 1/2+x,1/2+y,z
4 1/2-x,1/2+y,1/2-z
5 -x,-y,-z
6 x,-y,1/2+z
7 1/2-x,1/2-y,-z
8 1/2+x,1/2-y,1/2+z
_cell_length_a                   20.8380(15)
_cell_length_b                   10.485(2)
_cell_length_c                   22.5800(10)
_cell_angle_alpha                90
_cell_angle_beta                 102.9680(10)
_cell_angle_gamma                90
_cell_volume                     4807.6
loop_
_atom_site_label
_atom_site_type_symbol
_atom_site_fract_x
_atom_site_fract_y
_atom_site_fract_z
C1 C 0.02154(12) 1.1970(2) -0.02796(11)
C2 C 0.02178(13) 1.1598(3) -0.16233(11)
C3 C -0.01040(12) 1.2888(2) -0.07665(11)
C4 C -0.04683(12) 1.3530(2) -0.18161(11)
H1 H -0.0482 1.3398 -0.2226
C5 C -0.07944(13) 1.4556(2) -0.16385(12)
C6 C -0.07705(15) 1.4789(3) -0.10331(13)
H2 H -0.0982 1.5495 -0.0915
C7 C -0.04265(15) 1.3952(3) -0.06046(12)
H3 H -0.0410 1.4104 -0.0196
C8 C -0.16464(13) 1.6056(2) -0.20137(12)
C9 C -0.21998(15) 1.5467(3) -0.19058(13)
H4 H -0.2199 1.4591 -0.1841
C10 C -0.27561(15) 1.6175(3) -0.18937(14)
H5 H -0.3131 1.5775 -0.1824
C11 C -0.27547(14) 1.7475(3) -0.19856(14)
H6 H -0.3127 1.7956 -0.1976
C12 C -0.21980(13) 1.8062(3) -0.20918(12)
H7 H -0.2199 1.8939 -0.2153
C13 C -0.16357(12) 1.7358(2) -0.21090(11)
C14 C -0.10328(12) 1.7998(2) -0.22218(11)
C15 C -0.16416(13) 0.9648(3) -0.06309(13)
H8 H -0.1491 0.8978 -0.0367
C16 C -0.22370(13) 1.0203(3) -0.06098(13)
H9 H -0.2486 0.9889 -0.0348
C17 C -0.24591(12) 1.1233(3) -0.09837(12)
C18 C -0.20849(13) 1.1597(3) -0.13889(13)
H10 H -0.2225 1.2261 -0.1660
C19 C -0.15037(13) 1.0972(3) -0.13901(13)
H11 H -0.1262 1.1224 -0.1670
C20 C -0.42274(13) 1.1943(3) -0.09864(15)
H12 H -0.4621 1.1500 -0.1025
C21 C -0.36658(14) 1.1261(3) -0.09986(15)
H13 H -0.3680 1.0377 -0.1033
C22 C -0.30765(12) 1.1912(3) -0.09593(12)
C23 C -0.30867(13) 1.3220(3) -0.08930(13)
H14 H -0.2702 1.3691 -0.0862
C24 C -0.36697(13) 1.3828(3) -0.08735(13)
H15 H -0.3667 1.4708 -0.0824
N1 N -0.12726(10) 1.0024(2) -0.10093(9)
N2 N -0.42344(10) 1.3204(2) -0.09219(10)
O1 O -0.01264(8) 1.05817(17) -0.17523(7)
O2 O 0.07646(10) 1.1758(2) -0.17209(12)
O3 O 0.03389(10) 1.08576(17) -0.04233(9)
O4 O 0.03403(10) 1.23652(18) 0.02619(8)
O5 O -0.11150(10) 1.53432(18) -0.21025(8)
O6 O -0.05029(8) 1.79112(17) -0.18200(8)
O7 O -0.10712(10) 1.8610(2) -0.27007(9)
Cd1 Cd 0.0000 0.92997(2) -0.2500
Cd2 Cd -0.023590(8) 0.919200(17) -0.093130(8)
C25 C -0.01194(12) 1.2694(2) -0.13840(11)
C1_2 C 0.02154(12) 0.1970(2) -0.02796(11)
C2_2 C 0.02178(13) 0.1598(3) -0.16233(11)
C3_2 C -0.01040(12) 0.2888(2) -0.07665(11)
C4_2 C -0.04683(12) 0.3530(2) -0.18161(11)
H1_2 H -0.0482 0.3398 -0.2226
C5_2 C -0.07944(13) 0.4556(2) -0.16385(12)
C6_2 C -0.07705(15) 0.4789(3) -0.10331(13)
H2_2 H -0.0982 0.5495 -0.0915
C7_2 C -0.04265(15) 0.3952(3) -0.06046(12)
H3_2 H -0.0410 0.4104 -0.0196
C8_2 C -0.16464(13) 0.6056(2) -0.20137(12)
C9_2 C -0.21998(15) 0.5467(3) -0.19058(13)
H4_2 H -0.2199 0.4591 -0.1841
C10_2 C -0.27561(15) 0.6175(3) -0.18937(14)
H5_2 H -0.3131 0.5775 -0.1824
C11_2 C -0.27547(14) 0.7475(3) -0.19856(14)
H6_2 H -0.3127 0.7956 -0.1976
C12_2 C -0.21980(13) 0.8062(3) -0.20918(12)
H7_2 H -0.2199 0.8939 -0.2153
C13_2 C -0.16357(12) 0.7358(2) -0.21090(11)
C14_2 C -0.10328(12) 0.7998(2) -0.22218(11)
C15B C 0.33584(13) 0.4648(3) -0.06309(13)
H8B H 0.3509 0.3978 -0.0367
C16B C 0.27630(13) 0.5203(3) -0.06098(13)
H9B H 0.2514 0.4889 -0.0348
C17B C 0.25409(12) 0.6233(3) -0.09837(12)
C18B C 0.29151(13) 0.6597(3) -0.13889(13)
H10B H 0.2775 0.7261 -0.1660
C19B C 0.34963(13) 0.5972(3) -0.13901(13)
H11B H 0.3738 0.6224 -0.1670
C20B C 0.07726(13) 0.6943(3) -0.09864(15)
H12B H 0.0379 0.6500 -0.1025
C21B C 0.13342(14) 0.6261(3) -0.09986(15)
H13B H 0.1320 0.5377 -0.1033
C22B C 0.19235(12) 0.6912(3) -0.09593(12)
C23B C 0.19133(13) 0.8220(3) -0.08930(13)
H14B H 0.2298 0.8691 -0.0862
C24B C 0.13303(13) 0.8828(3) -0.08735(13)
H15B H 0.1333 0.9708 -0.0824
N1B N 0.37274(10) 0.5024(2) -0.10093(9)
N1_2 N -0.12726(10) 0.0024(2) -0.10093(9)
N2B N 0.07656(10) 0.8204(2) -0.09219(10)
N2B_2 N 0.07656(10) -0.1796(2) -0.09219(10)
O1_2 O -0.01264(8) 0.05817(17) -0.17523(7)
O1A O 0.01264(8) 1.05817(17) -0.32477(7)
O2_2 O 0.07646(10) 0.1758(2) -0.17209(12)
O3_2 O 0.03389(10) 0.08576(17) -0.04233(9)
O4_2 O 0.03403(10) 0.23652(18) 0.02619(8)
O4D O -0.03403(10) 0.76348(18) -0.02619(8)
O4D_2 O -0.03403(10) -0.23652(18) -0.02619(8)
O5_2 O -0.11150(10) 0.53432(18) -0.21025(8)
O6_2 O -0.05029(8) 0.79112(17) -0.18200(8)
O6A O 0.05029(8) 0.79112(17) -0.31800(8)
O6_3 O -0.05029(8) -0.20888(17) -0.18200(8)
O7_2 O -0.10712(10) 0.8610(2) -0.27007(9)
O7A O 0.10712(10) 0.8610(2) -0.22993(9)
Cd1_2 Cd 0.0000 1.92997(2) -0.2500
Cd1_3 Cd 0.0000 -0.07003(2) -0.2500
Cd2_2 Cd -0.023590(8) -0.080800(17) -0.093130(8)
Cd2B Cd -0.523590(8) 1.419200(17) -0.093130(8)
Cd2D Cd 0.023590(8) 1.080800(17) 0.093130(8)
Cd2_3 Cd -0.023590(8) 1.919200(17) -0.093130(8)
Cd2D_2 Cd 0.023590(8) 0.080800(17) 0.093130(8)
Cd2B_2 Cd 0.476410(8) 0.419200(17) -0.093130(8)
C25_2 C -0.01194(12) 0.2694(2) -0.13840(11)
O8 O 0.1994(4) 0.3696(6) 0.0395(3)
H16 H 0.1754 0.3049 0.0416
H17 H 0.2249 0.3800 0.0742
O9 O 0.1751(2) 0.2441(6) -0.0634(2)
H18 H 0.1483 0.2166 -0.0950
H19 H 0.1555 0.3006 -0.0474
loop_
_geom_bond_atom_site_label_1
_geom_bond_atom_site_label_2
_geom_bond_site_symmetry_1
_geom_bond_site_symmetry_2
C1 C3 1_555 1_555
C2 O1 1_555 1_555
C3 C7 1_555 1_555
C4 H1 1_555 1_555
C5 C4 1_555 1_555
C6 C5 1_555 1_555
H2 C6 1_555 1_555
C7 C6 1_555 1_555
H3 C7 1_555 1_555
C8 C9 1_555 1_555
C9 H4 1_555 1_555
C10 C9 1_555 1_555
H5 C10 1_555 1_555
C11 C10 1_555 1_555
H6 C11 1_555 1_555
C12 C11 1_555 1_555
H7 C12 1_555 1_555
C13 C8 1_555 1_555
C14 C13 1_555 1_555
C15 H8 1_555 1_555
C16 C15 1_555 1_555
H9 C16 1_555 1_555
C17 C16 1_555 1_555
C18 C17 1_555 1_555
H10 C18 1_555 1_555
C19 C18 1_555 1_555
H11 C19 1_555 1_555
C20 H12 1_555 1_555
C21 C20 1_555 1_555
H13 C21 1_555 1_555
C22 C17 1_555 1_555
C23 C22 1_555 1_555
H14 C23 1_555 1_555
C24 C23 1_555 1_555
H15 C24 1_555 1_555
N1 C15 1_555 1_555
N2 C20 1_555 1_555
O1 Cd1 1_555 1_555
O2 C2 1_555 1_555
O3 C1 1_555 1_555
O4 C1 1_555 1_555
O5 C5 1_555 1_555
O6 C14 1_555 1_555
O7 C14 1_555 1_555
O8 H16 1_555 1_555
H17 O8 1_555 1_555
O9 H18 1_555 1_555
H19 O9 1_555 1_555
Cd1 O1A 1_555 1_555
Cd2 N1 1_555 1_555
C25 C2 1_555 1_555
C1_2 C3_2 1_555 1_555
C2_2 O1_2 1_555 1_555
C3_2 C7_2 1_555 1_555
C4_2 H1_2 1_555 1_555
C5_2 C4_2 1_555 1_555
C6_2 C5_2 1_555 1_555
H2_2 C6_2 1_555 1_555
C7_2 C6_2 1_555 1_555
H3_2 C7_2 1_555 1_555
C8_2 C9_2 1_555 1_555
C9_2 H4_2 1_555 1_555
C10_2 C9_2 1_555 1_555
H5_2 C10_2 1_555 1_555
C11_2 C10_2 1_555 1_555
H6_2 C11_2 1_555 1_555
C12_2 C11_2 1_555 1_555
H7_2 C12_2 1_555 1_555
C13_2 C8_2 1_555 1_555
C14_2 C13_2 1_555 1_555
C15B H8B 1_555 1_555
C16B C15B 1_555 1_555
H9B C16B 1_555 1_555
C17B C16B 1_555 1_555
C18B C17B 1_555 1_555
H10B C18B 1_555 1_555
C19B C18B 1_555 1_555
H11B C19B 1_555 1_555
C20B H12B 1_555 1_555
C21B C20B 1_555 1_555
H13B C21B 1_555 1_555
C22B C17B 1_555 1_555
C23B C22B 1_555 1_555
H14B C23B 1_555 1_555
C24B C23B 1_555 1_555
H15B C24B 1_555 1_555
N1B C15B 1_555 1_555
N1_2 Cd2_2 1_555 1_555
N2B Cd2 1_555 1_555
N2B_2 Cd2_2 1_555 1_555
O1_2 Cd1_3 1_555 1_555
O2_2 C2_2 1_555 1_555
O3_2 C1_2 1_555 1_555
O4_2 C1_2 1_555 1_555
O4D Cd2 1_555 1_555
O4D_2 Cd2_2 1_555 1_555
O5_2 C5_2 1_555 1_555
O6_2 Cd1 1_555 1_555
O6A Cd1 1_555 1_555
O6_3 Cd1_3 1_555 1_555
O7_2 Cd1 1_555 1_555
O7A Cd1 1_555 1_555
Cd1_2 O6 1_555 1_555
Cd2_2 O1_2 1_555 1_555
Cd2B N2 1_555 1_555
Cd2D O4 1_555 1_555
Cd2_3 O6 1_555 1_555
Cd2D_2 O4_2 1_555 1_555
Cd2B_2 N1B 1_555 1_555
C25_2 C2_2 1_555 1_555
C3 C25 1_555 1_555
C4 C25 1_555 1_555
C8 O5 1_555 1_555
C12 C13 1_555 1_555
C19 N1 1_555 1_555
C21 C22 1_555 1_555
C24 N2 1_555 1_555
O1 Cd2 1_555 1_555
O3 Cd2 1_555 1_555
O7 Cd1_2 1_555 1_555
Cd2 O6_2 1_555 1_555
C3_2 C25_2 1_555 1_555
C4_2 C25_2 1_555 1_555
C8_2 O5_2 1_555 1_555
C12_2 C13_2 1_555 1_555
C14_2 O6_2 1_555 1_555
C14_2 O7_2 1_555 1_555
C19B N1B 1_555 1_555
C20B N2B 1_555 1_555
C21B C22B 1_555 1_555
C24B N2B 1_555 1_555
O3_2 Cd2_2 1_555 1_555
O6_3 Cd2_2 1_555 1_555

#END
