
#######################################################################
#
#                 Cambridge Crystallographic Data Centre
#                                CCDC 
#
#######################################################################
#
# If this CIF has been generated from an entry in the Cambridge 
# Structural Database, then it will include bibliographic, chemical, 
# crystal, experimental, refinement or atomic coordinate data resulting 
# from the CCDC's data processing and validation procedures.
#
#######################################################################

data_EJUPEF
_symmetry_cell_setting           triclinic
_symmetry_space_group_name_H-M   'P -1'
_symmetry_Int_Tables_number      2
_space_group_name_Hall           '-P 1'
loop_
_symmetry_equiv_pos_site_id
_symmetry_equiv_pos_as_xyz
1 x,y,z
2 -x,-y,-z
_cell_length_a                   9.5260(5)
_cell_length_b                   15.0310(8)
_cell_length_c                   22.0200(11)
_cell_angle_alpha                70.5440(10)
_cell_angle_beta                 78.3470(10)
_cell_angle_gamma                84.9060(10)
_cell_volume                     2910.83
loop_
_atom_site_label
_atom_site_type_symbol
_atom_site_fract_x
_atom_site_fract_y
_atom_site_fract_z
C1 C -0.071(5) 0.087(3) 0.820(2)
C2 C -0.057(5) 0.279(3) 0.839(2)
C3 C 0.063(5) 0.237(3) 0.800(2)
C4 C 0.184(5) 0.289(3) 0.772(2)
H1 H 0.1889 0.3464 0.7788
C5 C 0.301(5) 0.259(4) 0.734(3)
H2 H 0.3820 0.2950 0.7150
C6 C 0.292(5) 0.174(4) 0.724(2)
C7 C 0.173(5) 0.119(3) 0.752(2)
H3 H 0.1701 0.0613 0.7453
C8 C 0.055(5) 0.151(3) 0.790(2)
C9 C 0.493(5) 0.092(3) 0.593(2)
C10 C 0.418(5) 0.158(3) 0.623(2)
C11 C 0.360(6) 0.240(4) 0.584(3)
H4 H 0.3082 0.2824 0.6037
C12 C 0.378(7) 0.260(4) 0.518(3)
H5 H 0.3418 0.3169 0.4922
C13 C 0.451(7) 0.197(4) 0.488(3)
H6 H 0.4616 0.2104 0.4428
C14 C 0.506(6) 0.116(4) 0.526(3)
H7 H 0.5549 0.0736 0.5059
C15 C 0.558(5) 0.001(4) 0.631(3)
C16 C -0.115(5) -0.395(3) 0.810(2)
C17 C -0.125(5) -0.194(3) 0.818(2)
C18 C 0.009(5) -0.329(3) 0.779(2)
C19 C 0.137(5) -0.360(3) 0.749(2)
H8 H 0.1456 -0.4215 0.7474
C20 C 0.251(5) -0.301(4) 0.721(3)
C21 C 0.242(5) -0.210(3) 0.721(3)
H9 H 0.3189 -0.1702 0.7010
C22 C 0.117(5) -0.179(3) 0.752(3)
H10 H 0.1102 -0.1170 0.7523
C23 C 0.000(5) -0.236(3) 0.782(2)
C24 C 0.486(5) -0.474(3) 0.676(2)
C25 C 0.394(5) -0.396(3) 0.661(2)
C26 C 0.319(6) -0.379(5) 0.611(3)
H11 H 0.2545 -0.3279 0.6030
C27 C 0.338(8) -0.437(6) 0.574(3)
H12 H 0.2867 -0.4260 0.5403
C28 C 0.433(8) -0.513(5) 0.586(3)
H13 H 0.4480 -0.5518 0.5599
C29 C 0.562(6) -0.502(4) 0.734(3)
C30 C -0.610(6) -0.116(5) 0.869(3)
H14 H -0.5817 -0.1028 0.8242
C31 C -0.750(7) -0.144(5) 0.897(3)
H15 H -0.8136 -0.1500 0.8722
C32 C -0.790(6) -0.163(4) 0.964(3)
H16 H -0.8831 -0.1804 0.9843
C33 C -0.692(6) -0.155(4) 1.000(3)
H17 H -0.7190 -0.1686 1.0451
C34 C -0.555(5) -0.126(3) 0.969(2)
C35 C -0.445(6) -0.115(3) 1.004(2)
C36 C -0.470(7) -0.132(4) 1.072(3)
H18 H -0.5600 -0.1518 1.0967
C37 C -0.360(9) -0.120(5) 1.101(3)
H19 H -0.3755 -0.1308 1.1460
C38 C -0.229(8) -0.093(4) 1.063(3)
H20 H -0.1532 -0.0862 1.0821
C39 C -0.210(7) -0.075(4) 0.997(3)
H21 H -0.1212 -0.0552 0.9712
C40 C 0.957(9) 0.017(6) 0.639(4)
H22 H 0.9010 0.0392 0.6714
C41 C 1.078(13) 0.067(8) 0.598(6)
H23 H 1.1007 0.1237 0.6017
C42 C 1.159(11) 0.031(10) 0.554(6)
H24 H 1.2380 0.0636 0.5257
C43 C 1.128(9) -0.052(10) 0.549(5)
H25 H 1.1873 -0.0765 0.5195
C44 C 1.006(6) -0.102(7) 0.589(3)
C45 C 0.960(7) -0.192(6) 0.587(3)
C46 C 1.032(9) -0.236(9) 0.538(4)
H26 H 1.1079 -0.2076 0.5059
C47 C 0.981(12) -0.320(8) 0.544(5)
H27 H 1.0244 -0.3490 0.5134
C48 C 0.872(12) -0.364(7) 0.590(5)
H28 H 0.8390 -0.4216 0.5927
C49 C 0.811(9) -0.315(6) 0.634(4)
H29 H 0.7355 -0.3438 0.6665
C50 C -0.624(6) 0.374(4) 0.884(3)
H30 H -0.6123 0.3849 0.8394
C51 C -0.756(6) 0.345(4) 0.922(3)
H31 H -0.8307 0.3356 0.9038
C52 C -0.775(6) 0.332(4) 0.987(3)
H32 H -0.8624 0.3120 1.0142
C53 C -0.663(5) 0.347(3) 1.014(2)
H33 H -0.6747 0.3378 1.0583
C54 C -0.532(5) 0.375(3) 0.973(2)
C55 C -0.406(5) 0.391(3) 0.998(2)
C56 C -0.412(7) 0.382(4) 1.063(3)
H34 H -0.4975 0.3678 1.0925
C57 C -0.289(7) 0.393(4) 1.083(3)
H35 H -0.2905 0.3868 1.1268
C58 C -0.164(7) 0.414(4) 1.038(3)
H36 H -0.0795 0.4222 1.0504
C59 C -0.165(6) 0.423(4) 0.974(3)
H37 H -0.0800 0.4371 0.9443
C60 C 0.506(7) -0.530(4) 0.637(3)
H38 H 0.5703 -0.5814 0.6446
N1 N -0.514(5) -0.107(3) 0.903(2)
N2 N -0.315(5) -0.085(3) 0.968(2)
N3 N 0.923(6) -0.062(4) 0.633(3)
N4 N 0.853(6) -0.233(4) 0.633(2)
N5 N -0.513(5) 0.388(3) 0.908(2)
N6 N -0.283(4) 0.413(3) 0.953(2)
O1 O -0.068(4) 0.014(3) 0.803(3)
O2 O -0.173(4) 0.107(3) 0.8573(19)
O3 O -0.043(4) 0.279(3) 0.8930(19)
O4 O -0.160(4) 0.319(3) 0.810(2)
O5 O 0.409(4) 0.137(3) 0.6888(16)
O6 O 0.581(5) -0.013(3) 0.688(2)
O7 O 0.590(5) -0.061(3) 0.605(2)
O8 O -0.097(4) -0.475(2) 0.803(2)
O9 O -0.229(4) -0.366(2) 0.8367(17)
O10 O -0.223(3) -0.148(2) 0.7874(16)
O11 O -0.117(4) -0.194(3) 0.8728(17)
O12 O 0.386(4) -0.331(3) 0.694(2)
O13 O 0.573(7) -0.449(3) 0.765(2)
O14 O 0.604(6) -0.585(4) 0.753(2)
O15 O -0.395(5) 0.061(3) 0.7826(19)
H39 H -0.4342 0.0462 0.7555
H40 H -0.3767 0.1213 0.7668
O16 O 0.579(4) -0.266(3) 0.7622(19)
H41 H 0.5232 -0.3077 0.7628
H42 H 0.6048 -0.2821 0.7996
Cd1 Cd -0.2817(4) -0.0512(2) 0.85640(17)
Cd2 Cd 0.7195(4) -0.1459(3) 0.69288(19)
Cd3 Cd -0.2878(4) 0.4320(2) 0.84272(17)
O8_2 O -0.097(4) 0.525(2) 0.803(2)
O10_2 O 0.777(3) -0.148(2) 0.7874(16)
O13_2 O -0.427(7) 0.551(3) 0.765(2)
O14_2 O -0.396(6) 0.415(4) 0.753(2)
Cd2_2 Cd -0.2805(4) -0.1459(3) 0.69288(19)
Cd3_2 Cd -0.2878(4) -0.5680(2) 0.84272(17)
Cd3_3 Cd 0.7122(4) -0.5680(2) 0.84272(17)
O17 O -0.308(7) 0.242(3) 0.744(3)
H43 H -0.2836 0.2982 0.7193
H44 H -0.3781 0.2437 0.7756
O18 O -0.037(11) 0.451(7) 0.681(5)
H45 H -0.1408 0.3794 0.7087
H46 H 0.0037 0.4402 0.6295
O19 O -0.236(18) 0.255(10) 0.604(7)
H47 H -0.1255 0.2704 0.6263
H48 H -0.2970 0.2236 0.6355
loop_
_geom_bond_atom_site_label_1
_geom_bond_atom_site_label_2
_geom_bond_site_symmetry_1
_geom_bond_site_symmetry_2
C1 C8 1_555 1_555
C2 C3 1_555 1_555
C3 C4 1_555 1_555
C4 H1 1_555 1_555
C5 C4 1_555 1_555
H2 C5 1_555 1_555
C6 C5 1_555 1_555
C7 C6 1_555 1_555
H3 C7 1_555 1_555
C8 C3 1_555 1_555
C9 C10 1_555 1_555
C10 C11 1_555 1_555
C11 H4 1_555 1_555
C12 C11 1_555 1_555
H5 C12 1_555 1_555
C13 C12 1_555 1_555
H6 C13 1_555 1_555
C14 C9 1_555 1_555
H7 C14 1_555 1_555
C15 C9 1_555 1_555
C16 C18 1_555 1_555
C17 C23 1_555 1_555
C18 C19 1_555 1_555
C19 H8 1_555 1_555
C20 C19 1_555 1_555
C21 C20 1_555 1_555
H9 C21 1_555 1_555
C22 C21 1_555 1_555
H10 C22 1_555 1_555
C23 C18 1_555 1_555
C24 C25 1_555 1_555
C25 C26 1_555 1_555
C26 H11 1_555 1_555
C27 C26 1_555 1_555
H12 C27 1_555 1_555
C28 C27 1_555 1_555
H13 C28 1_555 1_555
C29 C24 1_555 1_555
C30 H14 1_555 1_555
C31 C30 1_555 1_555
H15 C31 1_555 1_555
C32 C31 1_555 1_555
H16 C32 1_555 1_555
C33 C32 1_555 1_555
H17 C33 1_555 1_555
C34 C33 1_555 1_555
C35 C34 1_555 1_555
C36 C35 1_555 1_555
H18 C36 1_555 1_555
C37 C36 1_555 1_555
H19 C37 1_555 1_555
C38 C37 1_555 1_555
H20 C38 1_555 1_555
C39 C38 1_555 1_555
H21 C39 1_555 1_555
C40 H22 1_555 1_555
C41 C40 1_555 1_555
H23 C41 1_555 1_555
C42 C41 1_555 1_555
H24 C42 1_555 1_555
C43 C42 1_555 1_555
H25 C43 1_555 1_555
C44 C43 1_555 1_555
C45 C44 1_555 1_555
C46 C45 1_555 1_555
H26 C46 1_555 1_555
C47 C46 1_555 1_555
H27 C47 1_555 1_555
C48 C47 1_555 1_555
H28 C48 1_555 1_555
C49 C48 1_555 1_555
H29 C49 1_555 1_555
C50 H30 1_555 1_555
C51 C50 1_555 1_555
H31 C51 1_555 1_555
C52 C51 1_555 1_555
H32 C52 1_555 1_555
C53 C52 1_555 1_555
H33 C53 1_555 1_555
C54 C53 1_555 1_555
C55 C54 1_555 1_555
C56 C55 1_555 1_555
H34 C56 1_555 1_555
C57 C56 1_555 1_555
H35 C57 1_555 1_555
C58 C57 1_555 1_555
H36 C58 1_555 1_555
C59 C58 1_555 1_555
H37 C59 1_555 1_555
C60 C24 1_555 1_555
H38 C60 1_555 1_555
N1 C30 1_555 1_555
N2 C35 1_555 1_555
N3 C40 1_555 1_555
N4 C45 1_555 1_555
N5 C50 1_555 1_555
N6 C55 1_555 1_555
O1 C1 1_555 1_555
O2 C1 1_555 1_555
O3 C2 1_555 1_555
O4 C2 1_555 1_555
O5 C6 1_555 1_555
O6 C15 1_555 1_555
O7 C15 1_555 1_555
O8 C16 1_555 1_555
O9 C16 1_555 1_555
O10 C17 1_555 1_555
O11 C17 1_555 1_555
O12 C20 1_555 1_555
O13 C29 1_555 1_555
O14 C29 1_555 1_555
O15 H39 1_555 1_555
H40 O15 1_555 1_555
O16 H41 1_555 1_555
H42 O16 1_555 1_555
O17 H43 1_555 1_555
H44 O17 1_555 1_555
O18 H45 1_555 1_555
H46 O18 1_555 1_555
Cd1 N1 1_555 1_555
Cd2 N3 1_555 1_555
Cd3 N5 1_555 1_555
O19 H47 1_555 1_555
H48 O19 1_555 1_555
O8_2 Cd3 1_555 1_555
O10_2 Cd2 1_555 1_555
O13_2 Cd3 1_555 1_555
O14_2 Cd3 1_555 1_555
Cd2_2 O10 1_555 1_555
Cd3_2 O8 1_555 1_555
Cd3_3 O13 1_555 1_555
C7 C8 1_555 1_555
C10 O5 1_555 1_555
C13 C14 1_555 1_555
C22 C23 1_555 1_555
C25 O12 1_555 1_555
C28 C60 1_555 1_555
C34 N1 1_555 1_555
C39 N2 1_555 1_555
C44 N3 1_555 1_555
C49 N4 1_555 1_555
C54 N5 1_555 1_555
C59 N6 1_555 1_555
N2 Cd1 1_555 1_555
N4 Cd2 1_555 1_555
N6 Cd3 1_555 1_555
O1 Cd1 1_555 1_555
O2 Cd1 1_555 1_555
O4 Cd3 1_555 1_555
O6 Cd2 1_555 1_555
O7 Cd2 1_555 1_555
O10 Cd1 1_555 1_555
O11 Cd1 1_555 1_555
O14 Cd3_3 1_555 1_555
O15 Cd1 1_555 1_555
O16 Cd2 1_555 1_555

#END
