
#######################################################################
#
#                 Cambridge Crystallographic Data Centre
#                                CCDC 
#
#######################################################################
#
# If this CIF has been generated from an entry in the Cambridge 
# Structural Database, then it will include bibliographic, chemical, 
# crystal, experimental, refinement or atomic coordinate data resulting 
# from the CCDC's data processing and validation procedures.
#
#######################################################################

data_EJUPAB
_symmetry_cell_setting           monoclinic
_symmetry_space_group_name_H-M   'C 2/c'
_symmetry_Int_Tables_number      15
_space_group_name_Hall           '-C 2yn'
loop_
_symmetry_equiv_pos_site_id
_symmetry_equiv_pos_as_xyz
1 x,y,z
2 -x,y,1/2-z
3 1/2+x,1/2+y,z
4 1/2-x,1/2+y,1/2-z
5 -x,-y,-z
6 x,-y,1/2+z
7 1/2-x,1/2-y,-z
8 1/2+x,1/2-y,1/2+z
_cell_length_a                   15.159(3)
_cell_length_b                   18.821(3)
_cell_length_c                   19.798(3)
_cell_angle_alpha                90
_cell_angle_beta                 92.382(3)
_cell_angle_gamma                90
_cell_volume                     5643.64
loop_
_atom_site_label
_atom_site_type_symbol
_atom_site_fract_x
_atom_site_fract_y
_atom_site_fract_z
C1 C 1.2819(5) 0.4166(4) 0.1239(3)
C2 C 1.3213(4) 0.3845(4) 0.0699(3)
C3 C 1.3391(6) 0.3136(5) 0.0694(4)
H1 H 1.3644 0.2930 0.0322
C4 C 1.3191(7) 0.2725(5) 0.1248(5)
H2 H 1.3310 0.2240 0.1249
C5 C 1.2815(6) 0.3039(4) 0.1802(4)
H3 H 1.2690 0.2766 0.2178
C6 C 1.2628(5) 0.3746(4) 0.1793(3)
H4 H 1.2370 0.3952 0.2163
C7 C 1.2564(5) 0.4941(4) 0.1219(4)
C8 C 1.1636(4) 0.4204(3) -0.1106(3)
C9 C 1.2110(4) 0.4260(3) -0.1703(3)
C10 C 1.3028(4) 0.4314(3) -0.1644(3)
H5 H 1.3347 0.4351 -0.2033
C11 C 1.3469(4) 0.4312(4) -0.1027(3)
H6 H 1.4080 0.4359 -0.0999
C12 C 1.3006(4) 0.4242(3) -0.0449(3)
C13 C 1.2099(4) 0.4182(3) -0.0487(3)
H7 H 1.1794 0.4125 -0.0092
C14 C 1.0648(4) 0.4158(3) -0.1116(3)
C15 C 1.1686(4) 0.4275(3) -0.2395(3)
C16 C 1.1766(6) 0.6076(5) -0.0436(4)
H8 H 1.1851 0.5594 -0.0354
C17 C 1.1894(6) 0.6330(6) -0.1080(4)
H9 H 1.2049 0.6021 -0.1422
C18 C 1.1792(6) 0.7027(7) -0.1207(4)
H10 H 1.1897 0.7207 -0.1634
C19 C 1.1527(5) 0.7481(5) -0.0695(5)
C20 C 1.1386(7) 0.8219(6) -0.0787(6)
H11 H 1.1479 0.8423 -0.1206
C21 C 1.1120(7) 0.8628(5) -0.0282(6)
H12 H 1.1032 0.9110 -0.0361
C22 C 1.0960(7) 0.8343(4) 0.0396(5)
C23 C 1.0722(9) 0.8747(5) 0.0946(7)
H13 H 1.0615 0.9231 0.0895
C24 C 1.0645(10) 0.8439(6) 0.1553(7)
H14 H 1.0484 0.8709 0.1922
C25 C 1.0810(7) 0.7709(5) 0.1628(5)
H15 H 1.0770 0.7504 0.2053
C26 C 1.1117(5) 0.7614(4) 0.0501(4)
C27 C 1.1389(4) 0.7184(4) -0.0048(3)
C28 C 1.0426(5) 0.6135(4) -0.3813(3)
H16 H 1.0452 0.5706 -0.4043
C29 C 1.0625(5) 0.6754(4) -0.4156(3)
H17 H 1.0795 0.6733 -0.4601
C30 C 1.0569(5) 0.7391(4) -0.3836(3)
H18 H 1.0710 0.7809 -0.4057
C31 C 1.0296(4) 0.7410(3) -0.3164(3)
C32 C 1.0133(4) 0.6764(3) -0.2846(3)
C33 C 1.0152(4) 0.8069(3) -0.2819(3)
H19 H 1.0267 0.8498 -0.3032
N1 N 1.1018(4) 0.7305(3) 0.1118(3)
N2 N 1.1525(3) 0.6487(3) 0.0079(3)
N3 N 1.0201(4) 0.6127(3) -0.3173(3)
O1 O 1.3038(4) 0.5375(3) 0.1533(4)
O2 O 1.1847(4) 0.5080(3) 0.0896(2)
O3 O 1.3491(3) 0.4274(3) 0.0166(2)
O4 O 1.0281(4) 0.3995(4) -0.0593(3)
O5 O 1.0188(3) 0.4276(3) -0.1643(2)
O6 O 1.1410(3) 0.4868(2) -0.2620(2)
O7 O 1.1672(3) 0.3714(3) -0.2733(2)
Cd1 Cd 1.11865(3) 0.60693(2) 0.11765(2)
Cd2 Cd 1.0000 0.51310(3) -0.2500
C1A C 0.7181(5) 0.4166(4) -0.6239(3)
C2A C 0.6787(4) 0.3845(4) -0.5699(3)
C3A C 0.6609(6) 0.3136(5) -0.5694(4)
H1A H 0.6356 0.2930 -0.5322
C4A C 0.6809(7) 0.2725(5) -0.6248(5)
H2A H 0.6690 0.2240 -0.6249
C5A C 0.7185(6) 0.3039(4) -0.6802(4)
H3A H 0.7310 0.2766 -0.7178
C6A C 0.7372(5) 0.3746(4) -0.6793(3)
H4A H 0.7630 0.3952 -0.7163
C7A C 0.7436(5) 0.4941(4) -0.6219(4)
C8A C 0.8364(4) 0.4204(3) -0.3894(3)
C9A C 0.7890(4) 0.4260(3) -0.3297(3)
C10A C 0.6972(4) 0.4314(3) -0.3356(3)
H5A H 0.6653 0.4351 -0.2967
C11A C 0.6531(4) 0.4312(4) -0.3973(3)
H6A H 0.5920 0.4359 -0.4001
C12A C 0.6994(4) 0.4242(3) -0.4551(3)
C13A C 0.7901(4) 0.4182(3) -0.4513(3)
H7A H 0.8206 0.4125 -0.4908
C14A C 0.9352(4) 0.4158(3) -0.3884(3)
C15A C 0.8314(4) 0.4275(3) -0.2605(3)
C16A C 0.8234(6) 0.6076(5) -0.4564(4)
H8A H 0.8149 0.5594 -0.4646
C17A C 0.8106(6) 0.6330(6) -0.3920(4)
H9A H 0.7951 0.6021 -0.3578
C18A C 0.8208(6) 0.7027(7) -0.3793(4)
H10A H 0.8103 0.7207 -0.3366
C19A C 0.8473(5) 0.7481(5) -0.4305(5)
C20A C 0.8614(7) 0.8219(6) -0.4213(6)
H11A H 0.8521 0.8423 -0.3794
C21A C 0.8880(7) 0.8628(5) -0.4718(6)
H12A H 0.8968 0.9110 -0.4639
C22A C 0.9040(7) 0.8343(4) -0.5396(5)
C23A C 0.9278(9) 0.8747(5) -0.5946(7)
H13A H 0.9385 0.9231 -0.5895
C24A C 0.9355(10) 0.8439(6) -0.6553(7)
H14A H 0.9516 0.8709 -0.6922
C25A C 0.9190(7) 0.7709(5) -0.6628(5)
H15A H 0.9230 0.7504 -0.7053
C26A C 0.8883(5) 0.7614(4) -0.5501(4)
C27A C 0.8611(4) 0.7184(4) -0.4952(3)
C28A C 0.9574(5) 0.6135(4) -0.1187(3)
H16A H 0.9548 0.5706 -0.0957
C29A C 0.9375(5) 0.6754(4) -0.0844(3)
H17A H 0.9205 0.6733 -0.0399
C30A C 0.9431(5) 0.7391(4) -0.1164(3)
H18A H 0.9290 0.7809 -0.0943
C31A C 0.9704(4) 0.7410(3) -0.1836(3)
C32A C 0.9867(4) 0.6764(3) -0.2154(3)
C33A C 0.9848(4) 0.8069(3) -0.2181(3)
H19A H 0.9733 0.8498 -0.1968
N1A N 0.8982(4) 0.7305(3) -0.6118(3)
N2A N 0.8475(3) 0.6487(3) -0.5079(3)
N3A N 0.9799(4) 0.6127(3) -0.1827(3)
O1A O 0.6962(4) 0.5375(3) -0.6533(4)
O2A O 0.8153(4) 0.5080(3) -0.5896(2)
O3A O 0.6509(3) 0.4274(3) -0.5166(2)
O4A O 0.9719(4) 0.3995(4) -0.4407(3)
O4D O 0.9719(4) 0.6005(4) 0.0593(3)
O4E O 1.0281(4) 0.6005(4) -0.5593(3)
O5A O 0.9812(3) 0.4276(3) -0.3357(2)
O5D O 0.9812(3) 0.5724(3) 0.1643(2)
O5E O 1.0188(3) 0.5724(3) -0.6643(2)
O6A O 0.8590(3) 0.4868(2) -0.2380(2)
O7A O 0.8328(3) 0.3714(3) -0.2267(2)
O7E O 1.1672(3) 0.6286(3) 0.2267(2)
O7D O 0.8328(3) 0.6286(3) -0.7267(2)
Cd1A Cd 0.88135(3) 0.60693(2) -0.61765(2)
Cd1D Cd 0.88135(3) 0.39307(2) -0.11765(2)
Cd1E Cd 1.11865(3) 0.39307(2) -0.38235(2)
O8 O 1.4742(6) 0.5092(6) 0.1818(6)
H20 H 1.4367 0.4714 0.1758
H21 H 1.4110 0.5484 0.1599
loop_
_geom_bond_atom_site_label_1
_geom_bond_atom_site_label_2
_geom_bond_site_symmetry_1
_geom_bond_site_symmetry_2
C1 C2 1_555 1_555
C2 C3 1_555 1_555
C3 H1 1_555 1_555
C4 C3 1_555 1_555
H2 C4 1_555 1_555
C5 C4 1_555 1_555
H3 C5 1_555 1_555
C6 C1 1_555 1_555
H4 C6 1_555 1_555
C7 C1 1_555 1_555
C8 C9 1_555 1_555
C9 C10 1_555 1_555
C10 H5 1_555 1_555
C11 C10 1_555 1_555
H6 C11 1_555 1_555
C12 C11 1_555 1_555
C13 C8 1_555 1_555
H7 C13 1_555 1_555
C14 C8 1_555 1_555
C15 C9 1_555 1_555
C16 H8 1_555 1_555
C17 C16 1_555 1_555
H9 C17 1_555 1_555
C18 C17 1_555 1_555
H10 C18 1_555 1_555
C19 C18 1_555 1_555
C20 C19 1_555 1_555
H11 C20 1_555 1_555
C21 C20 1_555 1_555
H12 C21 1_555 1_555
C22 C21 1_555 1_555
C23 C22 1_555 1_555
H13 C23 1_555 1_555
C24 C23 1_555 1_555
H14 C24 1_555 1_555
C25 C24 1_555 1_555
H15 C25 1_555 1_555
C26 C22 1_555 1_555
C27 C19 1_555 1_555
C28 H16 1_555 1_555
C29 C28 1_555 1_555
H17 C29 1_555 1_555
C30 C29 1_555 1_555
H18 C30 1_555 1_555
C31 C30 1_555 1_555
C32 C31 1_555 1_555
C33 C31 1_555 1_555
H19 C33 1_555 1_555
N1 C25 1_555 1_555
N2 C16 1_555 1_555
N3 C28 1_555 1_555
O1 C7 1_555 1_555
O2 C7 1_555 1_555
O3 C2 1_555 1_555
O4 C14 1_555 1_555
O5 C14 1_555 1_555
O6 C15 1_555 1_555
O7 C15 1_555 1_555
O8 H20 1_555 1_555
H21 O8 1_555 1_555
Cd1 N1 1_555 1_555
Cd2 N3 1_555 1_555
C1A C2A 1_555 1_555
C2A C3A 1_555 1_555
C3A H1A 1_555 1_555
C4A C3A 1_555 1_555
H2A C4A 1_555 1_555
C5A C4A 1_555 1_555
H3A C5A 1_555 1_555
C6A C1A 1_555 1_555
H4A C6A 1_555 1_555
C7A C1A 1_555 1_555
C8A C9A 1_555 1_555
C9A C10A 1_555 1_555
C10A H5A 1_555 1_555
C11A C10A 1_555 1_555
H6A C11A 1_555 1_555
C12A C11A 1_555 1_555
C13A C8A 1_555 1_555
H7A C13A 1_555 1_555
C14A C8A 1_555 1_555
C15A C9A 1_555 1_555
C16A H8A 1_555 1_555
C17A C16A 1_555 1_555
H9A C17A 1_555 1_555
C18A C17A 1_555 1_555
H10A C18A 1_555 1_555
C19A C18A 1_555 1_555
C20A C19A 1_555 1_555
H11A C20A 1_555 1_555
C21A C20A 1_555 1_555
H12A C21A 1_555 1_555
C22A C21A 1_555 1_555
C23A C22A 1_555 1_555
H13A C23A 1_555 1_555
C24A C23A 1_555 1_555
H14A C24A 1_555 1_555
C25A C24A 1_555 1_555
H15A C25A 1_555 1_555
C26A C22A 1_555 1_555
C27A C19A 1_555 1_555
C28A H16A 1_555 1_555
C29A C28A 1_555 1_555
H17A C29A 1_555 1_555
C30A C29A 1_555 1_555
H18A C30A 1_555 1_555
C31A C30A 1_555 1_555
C32A C32 1_555 1_555
C33A C33 1_555 1_555
H19A C33A 1_555 1_555
N1A C25A 1_555 1_555
N2A C16A 1_555 1_555
N3A Cd2 1_555 1_555
O1A C7A 1_555 1_555
O2A C7A 1_555 1_555
O3A C2A 1_555 1_555
O4A C14A 1_555 1_555
O4D Cd1 1_555 1_555
O4E Cd1A 1_555 1_555
O5A Cd2 1_555 1_555
O5D Cd1 1_555 1_555
O5E Cd1A 1_555 1_555
O6A Cd2 1_555 1_555
O7A C15A 1_555 1_555
O7E Cd1 1_555 1_555
O7D Cd1A 1_555 1_555
Cd1A N1A 1_555 1_555
Cd1D O4 1_555 1_555
Cd1E O7 1_555 1_555
C5 C6 1_555 1_555
C12 C13 1_555 1_555
C12 O3 1_555 1_555
C26 C27 1_555 1_555
C26 N1 1_555 1_555
C27 N2 1_555 1_555
C32 N3 1_555 1_555
N2 Cd1 1_555 1_555
O2 Cd1 1_555 1_555
O5 Cd2 1_555 1_555
O5 Cd1D 1_555 1_555
O6 Cd2 1_555 1_555
C5A C6A 1_555 1_555
C12A C13A 1_555 1_555
C12A O3A 1_555 1_555
C14A O5A 1_555 1_555
C15A O6A 1_555 1_555
C26A C27A 1_555 1_555
C26A N1A 1_555 1_555
C27A N2A 1_555 1_555
C28A N3A 1_555 1_555
C31A C32A 1_555 1_555
C31A C33A 1_555 1_555
C32A N3A 1_555 1_555
N2A Cd1A 1_555 1_555
O2A Cd1A 1_555 1_555
O4A Cd1E 1_555 1_555
O5A Cd1E 1_555 1_555
O7A Cd1D 1_555 1_555

#END
