
#######################################################################
#
#                 Cambridge Crystallographic Data Centre
#                                CCDC 
#
#######################################################################
#
# If this CIF has been generated from an entry in the Cambridge 
# Structural Database, then it will include bibliographic, chemical, 
# crystal, experimental, refinement or atomic coordinate data resulting 
# from the CCDC's data processing and validation procedures.
#
#######################################################################

data_EJUROQ
_symmetry_cell_setting           monoclinic
_symmetry_space_group_name_H-M   'P 21/n'
_symmetry_Int_Tables_number      14
_space_group_name_Hall           '-P 2yn'
loop_
_symmetry_equiv_pos_site_id
_symmetry_equiv_pos_as_xyz
1 x,y,z
2 1/2+x,1/2-y,1/2+z
3 -x,-y,-z
4 1/2-x,1/2+y,1/2-z
_cell_length_a                   11.1230(10)
_cell_length_b                   9.2170(10)
_cell_length_c                   12.8680(10)
_cell_angle_alpha                90
_cell_angle_beta                 95.967(2)
_cell_angle_gamma                90
_cell_volume                     1312.09
loop_
_atom_site_label
_atom_site_type_symbol
_atom_site_fract_x
_atom_site_fract_y
_atom_site_fract_z
Co1 Co 0.0000 0.0000 0.5000
S1 S 0.04999(9) -0.02860(11) 0.87314(6)
N1 N -0.48552(18) 0.0186(2) 0.27413(17)
N2 N -0.37722(17) 0.1064(2) 0.42451(15)
N3 N -0.18756(17) 0.0610(2) 0.48274(15)
N4 N -0.58263(16) -0.0823(2) 0.12257(15)
N5 N -0.54255(18) -0.2742(2) 0.02986(15)
N6 N 0.0150(2) 0.0446(3) 0.66213(17)
C1 C -0.4882(2) 0.0989(3) 0.35939(19)
C2 C -0.5883(2) 0.0070(2) 0.2122(2)
C3 C -0.6965(2) 0.0693(3) 0.2323(2)
H1 H -0.7672 0.0547 0.1881
C4 C -0.6950(2) 0.1539(3) 0.3206(2)
H2 H -0.7655 0.1995 0.3362
C5 C -0.5899(2) 0.1714(3) 0.3861(2)
H3 H -0.5872 0.2293 0.4455
C6 C -0.3529(2) 0.1821(3) 0.5171(2)
H4 H -0.4058 0.2413 0.5491
C7 C -0.2373(2) 0.1526(3) 0.5511(2)
H5 H -0.1965 0.1890 0.6123
C8 C -0.2739(2) 0.0353(3) 0.4077(2)
H6 H -0.2656 -0.0238 0.3503
C9 C -0.6530(2) -0.0717(3) 0.0276(2)
H7 H -0.7075 0.0017 0.0065
C10 C -0.6267(2) -0.1887(3) -0.0280(2)
H8 H -0.6602 -0.2092 -0.0956
C11 C -0.5175(2) -0.2056(3) 0.11914(19)
H9 H -0.4619 -0.2380 0.1732
C12 C 0.0300(2) 0.0150(3) 0.7501(2)
N1B N 0.48552(18) -0.0186(2) 0.72587(17)
N2B N 0.37722(17) -0.1064(2) 0.57549(15)
N3B N 0.18756(17) -0.0610(2) 0.51726(15)
N4B N 0.58263(16) 0.0823(2) 0.87743(15)
N5B N 0.54255(18) 0.2742(2) 0.97014(15)
C1B C 0.4882(2) -0.0989(3) 0.64061(19)
C2B C 0.5883(2) -0.0070(2) 0.7878(2)
C3B C 0.6965(2) -0.0693(3) 0.7677(2)
H1B H 0.7672 -0.0547 0.8119
C4B C 0.6950(2) -0.1539(3) 0.6794(2)
H2B H 0.7655 -0.1995 0.6638
C5B C 0.5899(2) -0.1714(3) 0.6139(2)
H3B H 0.5872 -0.2293 0.5545
C6B C 0.3529(2) -0.1821(3) 0.4829(2)
H4B H 0.4058 -0.2413 0.4509
C7B C 0.2373(2) -0.1526(3) 0.4489(2)
H5B H 0.1965 -0.1890 0.3877
C8B C 0.2739(2) -0.0353(3) 0.5923(2)
H6B H 0.2656 0.0238 0.6497
C9B C 0.6530(2) 0.0717(3) 0.9724(2)
H7B H 0.7075 -0.0017 0.9935
C10B C 0.6267(2) 0.1887(3) 1.0280(2)
H8B H 0.6602 0.2092 1.0956
C11B C 0.5175(2) 0.2056(3) 0.88086(19)
H9B H 0.4619 0.2380 0.8268
S1B S -0.04999(9) 0.02860(11) 0.12686(6)
N6B N -0.0150(2) -0.0446(3) 0.33787(17)
C12B C -0.0300(2) -0.0150(3) 0.2499(2)
N5A N -0.04255(18) -0.2258(2) 0.52986(15)
N5C N 0.04255(18) 0.2258(2) 0.47014(15)
Co1A Co -0.5000 -0.5000 0.0000
Co1A_2 Co 0.5000 0.5000 1.0000
loop_
_geom_bond_atom_site_label_1
_geom_bond_atom_site_label_2
_geom_bond_site_symmetry_1
_geom_bond_site_symmetry_2
Co1 N3 1_555 1_555
S1 C12 1_555 1_555
N1 C1 1_555 1_555
N2 C1 1_555 1_555
N3 C7 1_555 1_555
N4 C2 1_555 1_555
N5 C10 1_555 1_555
N6 Co1 1_555 1_555
C1 C5 1_555 1_555
C2 N1 1_555 1_555
C3 C2 1_555 1_555
H1 C3 1_555 1_555
C4 C3 1_555 1_555
H2 C4 1_555 1_555
C5 C4 1_555 1_555
H3 C5 1_555 1_555
C6 N2 1_555 1_555
H4 C6 1_555 1_555
C7 C6 1_555 1_555
H5 C7 1_555 1_555
C8 N2 1_555 1_555
H6 C8 1_555 1_555
C9 N4 1_555 1_555
H7 C9 1_555 1_555
C10 C9 1_555 1_555
H8 C10 1_555 1_555
C11 N4 1_555 1_555
H9 C11 1_555 1_555
C12 N6 1_555 1_555
N1B C1B 1_555 1_555
N2B C1B 1_555 1_555
N3B Co1 1_555 1_555
N4B C2B 1_555 1_555
N5B C10B 1_555 1_555
C1B C5B 1_555 1_555
C2B N1B 1_555 1_555
C3B C2B 1_555 1_555
H1B C3B 1_555 1_555
C4B C3B 1_555 1_555
H2B C4B 1_555 1_555
C5B C4B 1_555 1_555
H3B C5B 1_555 1_555
C6B N2B 1_555 1_555
H4B C6B 1_555 1_555
C7B N3B 1_555 1_555
H5B C7B 1_555 1_555
C8B N2B 1_555 1_555
H6B C8B 1_555 1_555
C9B N4B 1_555 1_555
H7B C9B 1_555 1_555
C10B C9B 1_555 1_555
H8B C10B 1_555 1_555
C11B N4B 1_555 1_555
H9B C11B 1_555 1_555
S1B C12B 1_555 1_555
N6B Co1 1_555 1_555
C12B N6B 1_555 1_555
N5A Co1 1_555 1_555
N5C Co1 1_555 1_555
Co1A N5 1_555 1_555
Co1A_2 N5B 1_555 1_555
N3 C8 1_555 1_555
N5 C11 1_555 1_555
N3B C8B 1_555 1_555
N5B C11B 1_555 1_555
C6B C7B 1_555 1_555

#END
