
#######################################################################
#
#                 Cambridge Crystallographic Data Centre
#                                CCDC 
#
#######################################################################
#
# If this CIF has been generated from an entry in the Cambridge 
# Structural Database, then it will include bibliographic, chemical, 
# crystal, experimental, refinement or atomic coordinate data resulting 
# from the CCDC's data processing and validation procedures.
#
#######################################################################

data_EJUREG
_symmetry_cell_setting           monoclinic
_symmetry_space_group_name_H-M   'C 2/m'
_symmetry_Int_Tables_number      12
_space_group_name_Hall           '-C 2y'
loop_
_symmetry_equiv_pos_site_id
_symmetry_equiv_pos_as_xyz
1 x,y,z
2 1/2+x,1/2+y,z
3 x,-y,z
4 1/2+x,1/2-y,z
5 -x,-y,-z
6 1/2-x,1/2-y,-z
7 -x,y,-z
8 1/2-x,1/2+y,-z
_cell_length_a                   7.4030(10)
_cell_length_b                   17.5610(10)
_cell_length_c                   10.2750(10)
_cell_angle_alpha                90
_cell_angle_beta                 107.201(4)
_cell_angle_gamma                90
_cell_volume                     1276.05
loop_
_atom_site_label
_atom_site_type_symbol
_atom_site_fract_x
_atom_site_fract_y
_atom_site_fract_z
Co1 Co 0.5000 0.0000 0.5000
S1 S 0.8163(3) 0.0000 0.1409(2)
N1 N 0.3081(5) 0.08805(18) 0.3962(3)
N2 N 0.1510(5) 0.17241(18) 0.2442(3)
N3 N 0.6204(8) 0.0000 0.3332(5)
C1 C 0.2635(6) 0.1113(2) 0.2663(4)
H1 H 0.3057 0.0877 0.1996
C2 C 0.2150(8) 0.1380(3) 0.4553(4)
H2 H 0.2167 0.1361 0.5462
C3 C 0.1200(8) 0.1904(3) 0.3647(4)
H3 H 0.0481 0.2307 0.3812
C4 C 0.0747(6) 0.2118(2) 0.1191(4)
C5 C 0.0000 0.1719(3) 0.0000
H4 H 0.0000 0.1189 0.0000
C6 C 0.0780(6) 0.2903(2) 0.1191(4)
H5 H 0.1328 0.3168 0.1994
C7 C 0.0000 0.3288(4) 0.0000
H6 H 0.0000 0.3818 0.0000
C8 C 0.7026(9) 0.0000 0.2536(6)
C4F C -0.0747(6) 0.2118(2) -0.1191(4)
N2F N -0.1510(5) 0.17241(18) -0.2442(3)
C1F C -0.2635(6) 0.1113(2) -0.2663(4)
N1F N -0.3081(5) 0.08805(18) -0.3962(3)
C2F C -0.2150(8) 0.1380(3) -0.4553(4)
H2F H -0.2167 0.1361 -0.5462
C3F C -0.1200(8) 0.1904(3) -0.3647(4)
H3F H -0.0481 0.2307 -0.3812
H1F H -0.3057 0.0877 -0.1996
C6F C -0.0780(6) 0.2903(2) -0.1191(4)
H5F H -0.1328 0.3168 -0.1994
N1B N 0.3081(5) -0.08805(18) 0.3962(3)
N2B N 0.1510(5) -0.17241(18) 0.2442(3)
C1B C 0.2635(6) -0.1113(2) 0.2663(4)
H1B H 0.3057 -0.0877 0.1996
C2B C 0.2150(8) -0.1380(3) 0.4553(4)
H2B H 0.2167 -0.1361 0.5462
C3B C 0.1200(8) -0.1904(3) 0.3647(4)
H3B H 0.0481 -0.2307 0.3812
C4B C 0.0747(6) -0.2118(2) 0.1191(4)
C5B C 0.0000 -0.1719(3) 0.0000
H4B H 0.0000 -0.1189 0.0000
C6B C 0.0780(6) -0.2903(2) 0.1191(4)
H5B H 0.1328 -0.3168 0.1994
C7B C 0.0000 -0.3288(4) 0.0000
H6B H 0.0000 -0.3818 0.0000
C4D C -0.0747(6) -0.2118(2) -0.1191(4)
N2D N -0.1510(5) -0.17241(18) -0.2442(3)
C1D C -0.2635(6) -0.1113(2) -0.2663(4)
N1D N -0.3081(5) -0.08805(18) -0.3962(3)
C2D C -0.2150(8) -0.1380(3) -0.4553(4)
H2D H -0.2167 -0.1361 -0.5462
C3D C -0.1200(8) -0.1904(3) -0.3647(4)
H3D H -0.0481 -0.2307 -0.3812
H1D H -0.3057 -0.0877 -0.1996
C6D C -0.0780(6) -0.2903(2) -0.1191(4)
H5D H -0.1328 -0.3168 -0.1994
S1D S 0.1837(3) 0.0000 0.8591(2)
N3D N 0.3796(8) 0.0000 0.6668(5)
C8D C 0.2974(9) 0.0000 0.7464(6)
N1D_2 N 0.6919(5) -0.08805(18) 0.6038(3)
N1F_2 N 0.6919(5) 0.08805(18) 0.6038(3)
Co1_2 Co -0.5000 0.0000 -0.5000
loop_
_geom_bond_atom_site_label_1
_geom_bond_atom_site_label_2
_geom_bond_site_symmetry_1
_geom_bond_site_symmetry_2
Co1 N1 1_555 1_555
S1 C8 1_555 1_555
N1 C1 1_555 1_555
N2 C1 1_555 1_555
N3 Co1 1_555 1_555
C1 H1 1_555 1_555
C2 N1 1_555 1_555
H2 C2 1_555 1_555
C3 N2 1_555 1_555
H3 C3 1_555 1_555
C4 N2 1_555 1_555
C5 C4 1_555 1_555
H4 C5 1_555 1_555
C6 C4 1_555 1_555
H5 C6 1_555 1_555
C7 C6 1_555 1_555
H6 C7 1_555 1_555
C8 N3 1_555 1_555
C4F C5 1_555 1_555
N2F C4F 1_555 1_555
C1F N2F 1_555 1_555
N1F C1F 1_555 1_555
C2F N1F 1_555 1_555
H2F C2F 1_555 1_555
C3F N2F 1_555 1_555
H3F C3F 1_555 1_555
H1F C1F 1_555 1_555
C6F C7 1_555 1_555
H5F C6F 1_555 1_555
N1B Co1 1_555 1_555
N2B C1B 1_555 1_555
C1B N1B 1_555 1_555
H1B C1B 1_555 1_555
C2B N1B 1_555 1_555
H2B C2B 1_555 1_555
C3B N2B 1_555 1_555
H3B C3B 1_555 1_555
C4B N2B 1_555 1_555
C5B C4B 1_555 1_555
H4B C5B 1_555 1_555
C6B C4B 1_555 1_555
H5B C6B 1_555 1_555
C7B C6B 1_555 1_555
H6B C7B 1_555 1_555
C4D C5B 1_555 1_555
N2D C4D 1_555 1_555
C1D N2D 1_555 1_555
N1D C1D 1_555 1_555
C2D N1D 1_555 1_555
H2D C2D 1_555 1_555
C3D N2D 1_555 1_555
H3D C3D 1_555 1_555
H1D C1D 1_555 1_555
C6D C7B 1_555 1_555
H5D C6D 1_555 1_555
S1D C8D 1_555 1_555
N3D Co1 1_555 1_555
C8D N3D 1_555 1_555
N1D_2 Co1 1_555 1_555
N1F_2 Co1 1_555 1_555
Co1_2 N1F 1_555 1_555
C2 C3 1_555 1_555
C4F C6F 1_555 1_555
C2F C3F 1_555 1_555
C2B C3B 1_555 1_555
C4D C6D 1_555 1_555
N1D Co1_2 1_555 1_555
C2D C3D 1_555 1_555

#END
