
#######################################################################
#
#                 Cambridge Crystallographic Data Centre
#                                CCDC 
#
#######################################################################
#
# If this CIF has been generated from an entry in the Cambridge 
# Structural Database, then it will include bibliographic, chemical, 
# crystal, experimental, refinement or atomic coordinate data resulting 
# from the CCDC's data processing and validation procedures.
#
#######################################################################

data_EJURIK
_symmetry_cell_setting           orthorhombic
_symmetry_space_group_name_H-M   'C m c a'
_symmetry_Int_Tables_number      64
_space_group_name_Hall           '-C 2ac 2'
loop_
_symmetry_equiv_pos_site_id
_symmetry_equiv_pos_as_xyz
1 x,y,z
2 1/2+x,1/2+y,z
3 x,1/2+y,1/2-z
4 x,1/2-y,1/2+z
5 -x,y,z
6 1/2+x,y,1/2-z
7 1/2+x,-y,1/2+z
8 1/2-x,1/2+y,z
9 -x,-y,-z
10 1/2-x,1/2-y,-z
11 -x,1/2-y,1/2+z
12 -x,1/2+y,1/2-z
13 x,-y,-z
14 1/2-x,-y,1/2+z
15 1/2-x,y,1/2-z
16 1/2+x,1/2-y,-z
_cell_length_a                   17.8680(10)
_cell_length_b                   18.6140(10)
_cell_length_c                   7.7940(10)
_cell_angle_alpha                90
_cell_angle_beta                 90
_cell_angle_gamma                90
_cell_volume                     2592.25
loop_
_atom_site_label
_atom_site_type_symbol
_atom_site_fract_x
_atom_site_fract_y
_atom_site_fract_z
Co1 Co 0.0000 0.0000 0.0000
S1 S 0.0000 -0.17548(12) 0.4713(2)
N1 N 0.16946(17) 0.1318(2) 0.2382(4)
N2 N 0.08504(17) 0.05262(19) 0.1501(4)
N3 N 0.0000 -0.0901(3) 0.1779(6)
C1 C 0.2121(3) 0.3252(3) 0.2438(7)
H1 H 0.1861 0.3685 0.2378
C2 C 0.1740(3) 0.2620(3) 0.2403(5)
H2 H 0.1221 0.2624 0.2344
C3 C 0.2113(2) 0.1973(2) 0.2455(5)
C4 C 0.1145(2) 0.1172(3) 0.1240(5)
H3 H 0.0993 0.1485 0.0379
C5 C 0.1747(2) 0.0732(3) 0.3440(6)
H4 H 0.2074 0.0675 0.4358
C6 C 0.1226(2) 0.0247(3) 0.2890(6)
H5 H 0.1140 -0.0201 0.3378
C7 C 0.0000 -0.1263(4) 0.2986(8)
C1N C 0.2879(3) 0.3252(3) 0.2562(7)
H1N H 0.3139 0.3685 0.2622
C2N C 0.3260(3) 0.2620(3) 0.2597(5)
H2N H 0.3779 0.2624 0.2656
C3N C 0.2887(2) 0.1973(2) 0.2545(5)
N1N N 0.33054(17) 0.1318(2) 0.2618(4)
C4N C 0.3855(2) 0.1172(3) 0.3760(5)
N2N N 0.41496(17) 0.05262(19) 0.3499(4)
C6N C 0.3774(2) 0.0247(3) 0.2110(6)
C5N C 0.3253(2) 0.0732(3) 0.1560(6)
H4N H 0.2926 0.0675 0.0642
H5N H 0.3860 -0.0201 0.1622
H3N H 0.4007 0.1485 0.4621
N1D N -0.16946(17) 0.1318(2) 0.2382(4)
N2D N -0.08504(17) 0.05262(19) 0.1501(4)
C1D C -0.2121(3) 0.3252(3) 0.2438(7)
H1D H -0.1861 0.3685 0.2378
C2D C -0.1740(3) 0.2620(3) 0.2403(5)
H2D H -0.1221 0.2624 0.2344
C3D C -0.2113(2) 0.1973(2) 0.2455(5)
C4D C -0.1145(2) 0.1172(3) 0.1240(5)
H3D H -0.0993 0.1485 0.0379
C5D C -0.1747(2) 0.0732(3) 0.3440(6)
H4D H -0.2074 0.0675 0.4358
C6D C -0.1226(2) 0.0247(3) 0.2890(6)
H5D H -0.1140 -0.0201 0.3378
C1E C -0.2879(3) 0.3252(3) 0.2562(7)
H1E H -0.3139 0.3685 0.2622
C2E C -0.3260(3) 0.2620(3) 0.2597(5)
H2E H -0.3779 0.2624 0.2656
C3E C -0.2887(2) 0.1973(2) 0.2545(5)
N1E N -0.33054(17) 0.1318(2) 0.2618(4)
C4E C -0.3855(2) 0.1172(3) 0.3760(5)
N2E N -0.41496(17) 0.05262(19) 0.3499(4)
C6E C -0.3774(2) 0.0247(3) 0.2110(6)
C5E C -0.3253(2) 0.0732(3) 0.1560(6)
H4E H -0.2926 0.0675 0.0642
H5E H -0.3860 -0.0201 0.1622
H3E H -0.4007 0.1485 0.4621
S1H S 0.0000 0.17548(12) -0.4713(2)
N3H N 0.0000 0.0901(3) -0.1779(6)
C7H C 0.0000 0.1263(4) -0.2986(8)
N2H N -0.08504(17) -0.05262(19) -0.1501(4)
N2L N 0.08504(17) -0.05262(19) -0.1501(4)
Co1E Co 0.5000 0.0000 0.5000
Co1E_2 Co -0.5000 0.0000 0.5000
loop_
_geom_bond_atom_site_label_1
_geom_bond_atom_site_label_2
_geom_bond_site_symmetry_1
_geom_bond_site_symmetry_2
Co1 N2 1_555 1_555
S1 C7 1_555 1_555
N1 C3 1_555 1_555
N2 C4 1_555 1_555
N3 Co1 1_555 1_555
C1 H1 1_555 1_555
C2 C1 1_555 1_555
H2 C2 1_555 1_555
C3 C2 1_555 1_555
C4 N1 1_555 1_555
H3 C4 1_555 1_555
C5 N1 1_555 1_555
H4 C5 1_555 1_555
C6 N2 1_555 1_555
H5 C6 1_555 1_555
C7 N3 1_555 1_555
C1N C1 1_555 1_555
H1N C1N 1_555 1_555
C2N C1N 1_555 1_555
H2N C2N 1_555 1_555
C3N C3 1_555 1_555
N1N C3N 1_555 1_555
C4N N1N 1_555 1_555
N2N C4N 1_555 1_555
C6N N2N 1_555 1_555
C5N N1N 1_555 1_555
H4N C5N 1_555 1_555
H5N C6N 1_555 1_555
H3N C4N 1_555 1_555
N1D C3D 1_555 1_555
N2D Co1 1_555 1_555
C1D H1D 1_555 1_555
C2D C1D 1_555 1_555
H2D C2D 1_555 1_555
C3D C2D 1_555 1_555
C4D N1D 1_555 1_555
H3D C4D 1_555 1_555
C5D N1D 1_555 1_555
H4D C5D 1_555 1_555
C6D N2D 1_555 1_555
H5D C6D 1_555 1_555
C1E C1D 1_555 1_555
H1E C1E 1_555 1_555
C2E C1E 1_555 1_555
H2E C2E 1_555 1_555
C3E C3D 1_555 1_555
N1E C3E 1_555 1_555
C4E N1E 1_555 1_555
N2E C4E 1_555 1_555
C6E N2E 1_555 1_555
C5E N1E 1_555 1_555
H4E C5E 1_555 1_555
H5E C6E 1_555 1_555
H3E C4E 1_555 1_555
S1H C7H 1_555 1_555
N3H Co1 1_555 1_555
C7H N3H 1_555 1_555
N2H Co1 1_555 1_555
N2L Co1 1_555 1_555
Co1E N2N 1_555 1_555
Co1E_2 N2E 1_555 1_555
C5 C6 1_555 1_555
C2N C3N 1_555 1_555
C6N C5N 1_555 1_555
N2D C4D 1_555 1_555
C5D C6D 1_555 1_555
C2E C3E 1_555 1_555
C6E C5E 1_555 1_555

#END
