
#######################################################################
#
#                 Cambridge Crystallographic Data Centre
#                                CCDC 
#
#######################################################################
#
# If this CIF has been generated from an entry in the Cambridge 
# Structural Database, then it will include bibliographic, chemical, 
# crystal, experimental, refinement or atomic coordinate data resulting 
# from the CCDC's data processing and validation procedures.
#
#######################################################################

data_EKABOI
_symmetry_cell_setting           triclinic
_symmetry_space_group_name_H-M   'P -1'
_symmetry_Int_Tables_number      2
_space_group_name_Hall           '-P 1'
loop_
_symmetry_equiv_pos_site_id
_symmetry_equiv_pos_as_xyz
1 x,y,z
2 -x,-y,-z
_cell_length_a                   7.6777(6)
_cell_length_b                   7.9149(7)
_cell_length_c                   10.8729(9)
_cell_angle_alpha                72.379(3)
_cell_angle_beta                 86.430(2)
_cell_angle_gamma                87.635(2)
_cell_volume                     628.329
loop_
_atom_site_label
_atom_site_type_symbol
_atom_site_fract_x
_atom_site_fract_y
_atom_site_fract_z
U1 U 0.26761(3) 0.24021(4) 0.28352(3)
U2 U 0.33078(3) 0.42069(4) -0.07788(3)
O1 O 0.1430(8) 0.4264(8) 0.3011(6)
O2 O 0.3824(7) 0.0456(8) 0.2710(6)
O3 O 0.4986(8) 0.2788(9) 0.4066(6)
O4 O 0.1937(7) 0.0961(8) 0.5175(5)
O5 O 0.0057(7) -0.0705(8) 0.6671(5)
O6 O 0.1437(7) 0.2483(7) 0.0911(5)
H1 H 0.0379 0.2836 0.0941
O7 O 0.1967(7) 0.6159(8) -0.0868(6)
O8 O 0.4544(7) 0.2215(8) -0.0764(6)
O9 O 0.0852(7) 0.2929(7) -0.1680(5)
H2 H 0.0314 0.3321 -0.2374
H3 H 0.0018 0.3030 -0.1153
O10 O 0.6584(9) 0.5076(10) 0.3051(6)
O11 O 0.4308(6) 0.4123(7) 0.1180(5)
C1 C 0.6218(11) 0.3773(11) 0.3998(8)
C2 C 0.0577(9) 0.0067(10) 0.5530(7)
C3 C 0.7275(12) 0.3510(13) 0.5168(9)
H6 H 0.8507 0.3729 0.4892
H7 H 0.7154 0.2291 0.5736
H8 H 0.6852 0.4340 0.5636
U1A U -0.26761(3) -0.24021(4) 0.71648(3)
U1A_2 U 0.73239(3) 0.75979(4) -0.28352(3)
U2A U 0.66922(3) 0.57931(4) 0.07788(3)
O1A O 0.8570(8) 0.5736(8) -0.3011(6)
O2A O 0.6176(7) 0.9544(8) -0.2710(6)
O3A O 0.5014(8) 0.7212(9) -0.4066(6)
O4A O -0.1937(7) -0.0961(8) 0.4825(5)
O4A_2 O 0.8063(7) 0.9039(8) -0.5175(5)
O5A O -0.0057(7) 0.0705(8) 0.3329(5)
O5_2 O 1.0057(7) 0.9295(8) -0.3329(5)
O6A O 0.8563(7) 0.7517(7) -0.0911(5)
H1A H 0.9621 0.7164 -0.0941
O7A O 0.8033(7) 0.3841(8) 0.0868(6)
O8A O 0.5456(7) 0.7785(8) 0.0764(6)
O9A O 0.9148(7) 0.7071(7) 0.1680(5)
H2A H 0.9686 0.6679 0.2374
H3A H 0.9982 0.6970 0.1153
O10A O 0.3416(9) 0.4924(10) -0.3051(6)
O11A O 0.5692(6) 0.5877(7) -0.1180(5)
C1A C 0.3782(11) 0.6227(11) -0.3998(8)
C2A C -0.0577(9) -0.0067(10) 0.4470(7)
C3A C 0.2725(12) 0.6490(13) -0.5168(9)
H6A H 0.1493 0.6271 -0.4892
H7A H 0.2846 0.7709 -0.5736
H8A H 0.3148 0.5660 -0.5636
K1 K 0.2838(2) 0.0049(3) -0.2093(2)
O12 O 0.1835(7) -0.0871(8) 0.0501(6)
H4 H 0.1474 -0.0148 0.0906
H5 H 0.2356 -0.1544 0.1143
loop_
_geom_bond_atom_site_label_1
_geom_bond_atom_site_label_2
_geom_bond_site_symmetry_1
_geom_bond_site_symmetry_2
U1 O1 1_555 1_555
U2 O6 1_555 1_555
O2 U1 1_555 1_555
O3 U1 1_555 1_555
O4 U1 1_555 1_555
O5 C2 1_555 1_555
O6 U1 1_555 1_555
H1 O6 1_555 1_555
O7 U2 1_555 1_555
O8 U2 1_555 1_555
O9 U2 1_555 1_555
H2 O9 1_555 1_555
H3 O9 1_555 1_555
O10 C1 1_555 1_555
O11 U1 1_555 1_555
O12 H4 1_555 1_555
H5 O12 1_555 1_555
C1 O3 1_555 1_555
C2 O4 1_555 1_555
C3 C1 1_555 1_555
H6 C3 1_555 1_555
H7 C3 1_555 1_555
H8 C3 1_555 1_555
U1A O5 1_555 1_555
U1A_2 O1A 1_555 1_555
U2A O10 1_555 1_555
O2A U1A_2 1_555 1_555
O3A U1A_2 1_555 1_555
O4A U1A 1_555 1_555
O4A_2 U1A_2 1_555 1_555
O5A U1 1_555 1_555
O5_2 U1A_2 1_555 1_555
O6A U1A_2 1_555 1_555
H1A O6A 1_555 1_555
O7A U2A 1_555 1_555
O8A U2A 1_555 1_555
O9A U2A 1_555 1_555
H2A O9A 1_555 1_555
H3A O9A 1_555 1_555
O10A U2 1_555 1_555
O11A U2 1_555 1_555
C1A O3A 1_555 1_555
C2A C2 1_555 1_555
C3A C1A 1_555 1_555
H6A C3A 1_555 1_555
H7A C3A 1_555 1_555
H8A C3A 1_555 1_555
U2 O11 1_555 1_555
O11 U2A 1_555 1_555
U1A_2 O11A 1_555 1_555
U2A O6A 1_555 1_555
U2A O11A 1_555 1_555
O4A C2A 1_555 1_555
O5A C2A 1_555 1_555
O10A C1A 1_555 1_555

#END
