
#######################################################################
#
#                 Cambridge Crystallographic Data Centre
#                                CCDC 
#
#######################################################################
#
# If this CIF has been generated from an entry in the Cambridge 
# Structural Database, then it will include bibliographic, chemical, 
# crystal, experimental, refinement or atomic coordinate data resulting 
# from the CCDC's data processing and validation procedures.
#
#######################################################################

data_EKACIC
_symmetry_cell_setting           monoclinic
_symmetry_space_group_name_H-M   'C 2/c'
_symmetry_Int_Tables_number      15
_space_group_name_Hall           '-C 2yn'
loop_
_symmetry_equiv_pos_site_id
_symmetry_equiv_pos_as_xyz
1 x,y,z
2 1/2+x,1/2+y,z
3 -x,y,1/2-z
4 1/2-x,1/2+y,1/2-z
5 -x,-y,-z
6 1/2-x,1/2-y,-z
7 x,-y,1/2+z
8 1/2+x,1/2-y,1/2+z
_cell_length_a                   23.001(2)
_cell_length_b                   11.2151(11)
_cell_length_c                   11.6851(12)
_cell_angle_alpha                90
_cell_angle_beta                 112.971(2)
_cell_angle_gamma                90
_cell_volume                     2775.25
loop_
_atom_site_label
_atom_site_type_symbol
_atom_site_fract_x
_atom_site_fract_y
_atom_site_fract_z
Mn1 Mn 0.18082(3) 0.08408(6) 0.43505(7)
N1 N 0.1201(2) 0.2208(4) 0.2932(4)
N2 N 0.25196(19) -0.0550(3) 0.5556(4)
C1 C 0.1295(3) 0.3366(5) 0.3098(6)
H1 H 0.1623 0.3615 0.3823
C2 C 0.0954(5) 0.4226(6) 0.2296(8)
H2 H 0.1045 0.5029 0.2477
C3 C 0.0739(3) 0.1892(5) 0.1865(6)
H3 H 0.0658 0.1083 0.1709
C4 C 0.0380(4) 0.2677(6) 0.0990(7)
H4 H 0.0075 0.2403 0.0247
C5 C 0.0470(5) 0.3878(7) 0.1211(9)
C6 C -0.0181(6) 0.4983(13) 0.0293(13)
H5 H -0.0595 0.4638 -0.0156
H6 H -0.0200 0.5708 0.0731
C7 C 0.2916(2) -0.1096(4) 0.5141(5)
H7 H 0.2936 -0.0828 0.4404
C8 C 0.3297(2) -0.2037(5) 0.5752(4)
H8 H 0.3564 -0.2393 0.5426
C9 C 0.3278(2) -0.2452(4) 0.6860(4)
C10 C 0.2879(2) -0.1860(4) 0.7322(4)
C11 C 0.2513(2) -0.0926(4) 0.6630(4)
H9 H 0.2246 -0.0539 0.6937
C12 C 0.2833(2) -0.2208(4) 0.8525(4)
C13 C 0.3679(2) -0.3507(4) 0.7503(4)
O1 O 0.30437(18) -0.3200(3) 0.8971(3)
O2 O 0.25958(16) -0.1459(3) 0.9010(3)
O3 O 0.34750(18) -0.4516(3) 0.7107(3)
O4 O 0.42046(17) -0.3287(3) 0.8367(3)
O5 O 0.09827(18) 0.0202(4) 0.4723(4)
C6D C 0.0181(6) 0.5017(13) -0.0293(13)
C5D C -0.0470(5) 0.6122(7) -0.1211(9)
C2D C -0.0954(5) 0.5774(6) -0.2296(8)
C1D C -0.1295(3) 0.6634(5) -0.3098(6)
N1D N -0.1201(2) 0.7792(4) -0.2932(4)
C3D C -0.0739(3) 0.8108(5) -0.1865(6)
H3D H -0.0658 0.8917 -0.1709
C4D C -0.0380(4) 0.7323(6) -0.0990(7)
H4D H -0.0075 0.7597 -0.0247
H1D H -0.1623 0.6385 -0.3823
H2D H -0.1045 0.4971 -0.2477
H5D H 0.0595 0.5362 0.0156
H6D H 0.0200 0.4292 -0.0731
N2C N 0.24804(19) 0.4450(3) 0.9444(4)
C7C C 0.2084(2) 0.3904(4) 0.9859(5)
H7C H 0.2064 0.4172 1.0596
C8C C 0.1703(2) 0.2963(5) 0.9248(4)
H8C H 0.1436 0.2607 0.9574
C9C C 0.1722(2) 0.2548(4) 0.8140(4)
C10C C 0.2121(2) 0.3140(4) 0.7678(4)
C11C C 0.2487(2) 0.4074(4) 0.8370(4)
H9C H 0.2754 0.4461 0.8063
C12C C 0.2167(2) 0.2792(4) 0.6475(4)
C13C C 0.1321(2) 0.1493(4) 0.7497(4)
O1C O 0.19563(18) 0.1800(3) 0.6029(3)
O2C O 0.24042(16) 0.3541(3) 0.5990(3)
O3C O 0.15250(18) 0.0484(3) 0.7893(3)
O4C O 0.07954(17) 0.1713(3) 0.6633(3)
Mn1D Mn -0.18082(3) 0.91592(6) -0.43505(7)
O5D O -0.09827(18) 0.9798(4) -0.4723(4)
O2F O 0.25958(16) 0.1459(3) 0.4010(3)
O3E O 0.15250(18) -0.0484(3) 0.2893(3)
Mn1C Mn 0.31918(3) -0.41592(6) 1.06495(7)
Mn1F Mn 0.18082(3) -0.08408(6) 0.93505(7)
Mn1E Mn 0.31918(3) -0.58408(6) 0.56495(7)
Mn1C_2 Mn 0.31918(3) 0.58408(6) 1.06495(7)
Mn1E_2 Mn 0.31918(3) 0.41592(6) 0.56495(7)
N2D N -0.25196(19) 1.0550(3) -0.5556(4)
O1G O -0.19563(18) 0.8200(3) -0.6029(3)
O2B O -0.25958(16) 0.8541(3) -0.4010(3)
O3A O -0.15250(18) 1.0484(3) -0.2893(3)
O6 O 0.0000 -0.0531(5) 0.2500
loop_
_geom_bond_atom_site_label_1
_geom_bond_atom_site_label_2
_geom_bond_site_symmetry_1
_geom_bond_site_symmetry_2
Mn1 N1 1_555 1_555
N1 C1 1_555 1_555
N2 Mn1 1_555 1_555
C1 H1 1_555 1_555
C2 C1 1_555 1_555
H2 C2 1_555 1_555
C3 N1 1_555 1_555
H3 C3 1_555 1_555
C4 C3 1_555 1_555
H4 C4 1_555 1_555
C5 C2 1_555 1_555
C6 C5 1_555 1_555
H5 C6 1_555 1_555
H6 C6 1_555 1_555
C7 N2 1_555 1_555
H7 C7 1_555 1_555
C8 C7 1_555 1_555
H8 C8 1_555 1_555
C9 C8 1_555 1_555
C10 C9 1_555 1_555
C11 N2 1_555 1_555
H9 C11 1_555 1_555
C12 C10 1_555 1_555
C13 C9 1_555 1_555
O1 C12 1_555 1_555
O2 C12 1_555 1_555
O3 C13 1_555 1_555
O4 C13 1_555 1_555
O5 Mn1 1_555 1_555
C6D C6 1_555 1_555
C5D C6D 1_555 1_555
C2D C5D 1_555 1_555
C1D C2D 1_555 1_555
N1D C1D 1_555 1_555
C3D N1D 1_555 1_555
H3D C3D 1_555 1_555
C4D C5D 1_555 1_555
H4D C4D 1_555 1_555
H1D C1D 1_555 1_555
H2D C2D 1_555 1_555
H5D C6D 1_555 1_555
H6D C6D 1_555 1_555
N2C C7C 1_555 1_555
C7C H7C 1_555 1_555
C8C C7C 1_555 1_555
H8C C8C 1_555 1_555
C9C C8C 1_555 1_555
C10C C9C 1_555 1_555
C11C N2C 1_555 1_555
H9C C11C 1_555 1_555
C12C C10C 1_555 1_555
C13C C9C 1_555 1_555
O1C Mn1 1_555 1_555
O2C C12C 1_555 1_555
O3C C13C 1_555 1_555
O4C C13C 1_555 1_555
Mn1D N1D 1_555 1_555
O5D Mn1D 1_555 1_555
O2F Mn1 1_555 1_555
O3E Mn1 1_555 1_555
Mn1C O1 1_555 1_555
Mn1F O2 1_555 1_555
Mn1E O3 1_555 1_555
Mn1C_2 N2C 1_555 1_555
Mn1E_2 O2C 1_555 1_555
N2D Mn1D 1_555 1_555
O1G Mn1D 1_555 1_555
O2B Mn1D 1_555 1_555
O3A Mn1D 1_555 1_555
C4 C5 1_555 1_555
C10 C11 1_555 1_555
C3D C4D 1_555 1_555
C10C C11C 1_555 1_555
C12C O1C 1_555 1_555
O3C Mn1F 1_555 1_555

#END
