
#######################################################################
#
#                 Cambridge Crystallographic Data Centre
#                                CCDC 
#
#######################################################################
#
# If this CIF has been generated from an entry in the Cambridge 
# Structural Database, then it will include bibliographic, chemical, 
# crystal, experimental, refinement or atomic coordinate data resulting 
# from the CCDC's data processing and validation procedures.
#
#######################################################################

data_EKACAU
_symmetry_cell_setting           orthorhombic
_symmetry_space_group_name_H-M   'P c a 21'
_symmetry_Int_Tables_number      29
_space_group_name_Hall           'P 2c -2ac'
loop_
_symmetry_equiv_pos_site_id
_symmetry_equiv_pos_as_xyz
1 x,y,z
2 -x,-y,1/2+z
3 1/2+x,-y,z
4 1/2-x,y,1/2+z
_cell_length_a                   24.5356(10)
_cell_length_b                   7.6283(2)
_cell_length_c                   10.5098(4)
_cell_angle_alpha                90
_cell_angle_beta                 90
_cell_angle_gamma                90
_cell_volume                     1967.07
loop_
_atom_site_label
_atom_site_type_symbol
_atom_site_fract_x
_atom_site_fract_y
_atom_site_fract_z
Cd1 Cd 0.583450(14) 0.92323(5) 0.46497(6)
N1 N 0.6096(2) 1.0882(8) 0.2866(6)
N2 N 0.82264(17) 1.8446(6) -0.0316(10)
N3 N 0.5660(3) 0.7131(9) 0.6276(7)
O1 O 0.5258(2) 0.1306(6) 0.5612(5)
O2 O 0.6131(2) 0.1806(7) 0.5991(6)
O3 O 0.50236(19) 0.1623(6) 0.8535(5)
O4 O 0.4287(3) 0.3227(8) 0.8269(6)
C1 C 0.6480(3) 1.2106(10) 0.2971(8)
H1 H 0.6650 1.2232 0.3757
C2 C 0.6645(3) 1.3193(10) 0.2006(9)
H2 H 0.6925 1.3995 0.2134
C3 C 0.5860(3) 1.0730(9) 0.1703(6)
H3 H 0.5598 0.9867 0.1586
C4 C 0.5990(2) 1.1783(10) 0.0695(7)
H4 H 0.5813 1.1626 -0.0079
C5 C 0.6381(3) 1.3077(10) 0.0812(8)
C6 C 0.6523(3) 1.4323(9) -0.0252(14)
H5 H 0.6378 1.3876 -0.1047
H6 H 0.6916 1.4399 -0.0334
C7 C 0.6289(3) 1.6158(9) 0.0000(8)
H7 H 0.5895 1.6114 -0.0074
H8 H 0.6377 1.6505 0.0864
C8 C 0.6510(3) 1.7534(10) -0.0923(7)
H9 H 0.6451 1.7140 -0.1789
H10 H 0.6312 1.8622 -0.0806
C9 C 0.7101(3) 1.7858(9) -0.0728(6)
C10 C 0.7288(3) 1.8886(10) 0.0274(8)
H11 H 0.7041 1.9409 0.0829
C11 C 0.7851(3) 1.9130(10) 0.0441(7)
H12 H 0.7966 1.9812 0.1123
C12 C 0.7498(3) 1.7145(10) -0.1494(7)
H13 H 0.7395 1.6459 -0.2185
C13 C 0.8042(3) 1.7420(10) -0.1266(8)
H14 H 0.8295 1.6874 -0.1792
C14 C 0.5503(3) 0.4058(8) 0.6532(6)
C15 C 0.5115(2) 0.4382(9) 0.7471(6)
C16 C 0.5021(3) 0.6115(8) 0.7816(7)
H15 H 0.4767 0.6385 0.8442
C17 C 0.5309(2) 0.7422(8) 0.7219(7)
H16 H 0.5256 0.8571 0.7487
C18 C 0.5754(3) 0.5489(9) 0.5975(7)
H17 H 0.6008 0.5271 0.5338
C19 C 0.5635(3) 0.2216(9) 0.6046(7)
C20 C 0.4786(3) 0.2968(9) 0.8131(7)
N2C N 0.67736(17) 0.8446(6) 0.4684(10)
O1_2 O 0.5258(2) 1.1306(6) 0.5612(5)
O2_2 O 0.6131(2) 1.1806(7) 0.5991(6)
O3A O 0.49764(19) 0.8377(6) 0.3535(5)
O4A O 0.5713(3) 0.6773(8) 0.3269(6)
Cd1C Cd 0.916550(14) 1.92323(5) -0.03503(6)
Cd1_2 Cd 0.583450(14) -0.07677(5) 0.46497(6)
Cd1A Cd 0.416550(14) 0.07677(5) 0.96497(6)
O5 O 0.7049(4) 1.3960(15) 0.6268(13)
loop_
_geom_bond_atom_site_label_1
_geom_bond_atom_site_label_2
_geom_bond_site_symmetry_1
_geom_bond_site_symmetry_2
Cd1 N1 1_555 1_555
N1 C1 1_555 1_555
N2 C11 1_555 1_555
N3 Cd1 1_555 1_555
O1 C19 1_555 1_555
O2 C19 1_555 1_555
O3 C20 1_555 1_555
O4 C20 1_555 1_555
C1 H1 1_555 1_555
C2 C1 1_555 1_555
H2 C2 1_555 1_555
C3 N1 1_555 1_555
H3 C3 1_555 1_555
C4 C3 1_555 1_555
H4 C4 1_555 1_555
C5 C2 1_555 1_555
C6 C5 1_555 1_555
H5 C6 1_555 1_555
H6 C6 1_555 1_555
C7 C6 1_555 1_555
H7 C7 1_555 1_555
H8 C7 1_555 1_555
C8 C7 1_555 1_555
H9 C8 1_555 1_555
H10 C8 1_555 1_555
C9 C8 1_555 1_555
C10 C9 1_555 1_555
H11 C10 1_555 1_555
C11 C10 1_555 1_555
H12 C11 1_555 1_555
C12 C9 1_555 1_555
H13 C12 1_555 1_555
C13 N2 1_555 1_555
H14 C13 1_555 1_555
C14 C15 1_555 1_555
C15 C16 1_555 1_555
C16 H15 1_555 1_555
C17 N3 1_555 1_555
H16 C17 1_555 1_555
C18 N3 1_555 1_555
H17 C18 1_555 1_555
C19 C14 1_555 1_555
C20 C15 1_555 1_555
N2C Cd1 1_555 1_555
O1_2 Cd1 1_555 1_555
O2_2 Cd1 1_555 1_555
O3A Cd1 1_555 1_555
O4A Cd1 1_555 1_555
Cd1C N2 1_555 1_555
Cd1_2 O1 1_555 1_555
Cd1A O3 1_555 1_555
O2 Cd1_2 1_555 1_555
O4 Cd1A 1_555 1_555
C4 C5 1_555 1_555
C12 C13 1_555 1_555
C14 C18 1_555 1_555
C16 C17 1_555 1_555

#END
