
#######################################################################
#
#                 Cambridge Crystallographic Data Centre
#                                CCDC 
#
#######################################################################
#
# If this CIF has been generated from an entry in the Cambridge 
# Structural Database, then it will include bibliographic, chemical, 
# crystal, experimental, refinement or atomic coordinate data resulting 
# from the CCDC's data processing and validation procedures.
#
#######################################################################

data_EKACUO
_symmetry_cell_setting           monoclinic
_symmetry_space_group_name_H-M   'P 21/c'
_symmetry_Int_Tables_number      14
_space_group_name_Hall           '-P 2ybc'
loop_
_symmetry_equiv_pos_site_id
_symmetry_equiv_pos_as_xyz
1 x,y,z
2 x,1/2-y,1/2+z
3 -x,-y,-z
4 -x,1/2+y,1/2-z
_cell_length_a                   15.2411(2)
_cell_length_b                   19.8651(2)
_cell_length_c                   15.6929(1)
_cell_angle_alpha                90
_cell_angle_beta                 96.961(1)
_cell_angle_gamma                90
_cell_volume                     4716.25
loop_
_atom_site_label
_atom_site_type_symbol
_atom_site_fract_x
_atom_site_fract_y
_atom_site_fract_z
Cd1 Cd -0.134666(16) 0.881049(12) 0.229988(18)
Cd2 Cd -0.381366(17) 0.935736(12) 0.24168(2)
O1 O -0.14484(16) 0.98567(11) 0.18132(18)
O2 O -0.29126(17) 0.99807(13) 0.1553(2)
O3 O -0.12582(17) 0.77900(11) 0.29308(17)
O4 O -0.22608(18) 0.78502(12) 0.38534(19)
O5 O -0.37329(18) 1.03251(13) 0.3137(2)
O6 O -0.24223(18) 1.03088(13) 0.3927(2)
O7 O -0.38056(16) 0.83177(12) 0.1915(2)
O8 O -0.25065(17) 0.83199(12) 0.13775(17)
O9 O -0.24291(15) 0.90780(11) 0.32563(16)
N1 N 0.0171(2) 1.43189(14) 0.1685(2)
N2 N 0.04332(18) 0.33497(13) 0.36762(19)
N3 N -0.49963(19) 1.48348(14) 0.3502(2)
N4 N -0.5318(2) 0.38669(14) 0.1514(2)
C1 C 0.0387(3) 1.49367(18) 0.1426(3)
H1 H 0.0969 1.5080 0.1553
C2 C -0.0214(3) 1.5366(2) 0.0984(3)
H2 H -0.0040 1.5789 0.0816
C3 C -0.1075(3) 1.5157(2) 0.0794(4)
H3 H -0.1494 1.5441 0.0501
C4 C -0.1309(3) 1.4526(2) 0.1042(4)
H4 H -0.1889 1.4379 0.0915
C5 C -0.0680(3) 1.41061(17) 0.1482(3)
C6 C -0.0861(3) 1.34120(17) 0.1699(3)
H5 H -0.0389 1.3166 0.1972
C7 C -0.1629(3) 1.30914(18) 0.1549(3)
H6 H -0.2126 1.3349 0.1368
C8 C -0.1760(2) 1.23646(17) 0.1646(3)
C9 C -0.2542(3) 1.2073(2) 0.1291(4)
H7 H -0.2997 1.2348 0.1043
C10 C -0.2669(3) 1.1384(2) 0.1293(3)
H8 H -0.3206 1.1206 0.1051
C11 C -0.2017(2) 1.09597(17) 0.1646(2)
C12 C -0.1235(2) 1.12461(18) 0.2007(3)
H9 H -0.0779 1.0969 0.2249
C13 C -0.1113(3) 1.19331(19) 0.2016(3)
H10 H -0.0583 1.2110 0.2278
C14 C -0.2143(2) 1.02063(17) 0.1676(2)
C15 C 0.0678(2) 0.27122(17) 0.3880(3)
H11 H 0.1070 0.2499 0.3559
C16 C 0.0374(2) 0.23625(18) 0.4543(3)
H12 H 0.0554 0.1922 0.4665
C17 C -0.0204(3) 0.26820(19) 0.5020(3)
H13 H -0.0415 0.2460 0.5475
C18 C -0.0466(2) 0.33267(19) 0.4821(3)
H14 H -0.0853 0.3545 0.5143
C19 C -0.0152(2) 0.36566(17) 0.4134(2)
C20 C -0.0414(2) 0.43407(17) 0.3878(2)
H15 H -0.0185 0.4514 0.3400
C21 C -0.0944(2) 0.47399(17) 0.4257(3)
H16 H -0.1179 0.4563 0.4729
C22 C -0.1202(2) 0.54309(17) 0.4012(2)
C23 C -0.1037(3) 0.57151(18) 0.3231(3)
H17 H -0.0804 0.5448 0.2826
C24 C -0.1213(3) 0.63833(17) 0.3052(3)
H18 H -0.1067 0.6567 0.2543
C25 C -0.1607(2) 0.67888(16) 0.3623(2)
C26 C -0.1839(2) 0.64986(17) 0.4367(2)
H19 H -0.2137 0.6752 0.4738
C27 C -0.1630(2) 0.58353(17) 0.4561(2)
H20 H -0.1778 0.5653 0.5071
C28 C -0.1728(2) 0.75311(17) 0.3458(2)
C29 C -0.5161(3) 1.54759(18) 0.3705(3)
H21 H -0.5671 1.5681 0.3438
C30 C -0.4607(3) 1.58450(19) 0.4293(3)
H22 H -0.4755 1.6282 0.4434
C31 C -0.3847(3) 1.5562(2) 0.4662(3)
H23 H -0.3459 1.5801 0.5053
C32 C -0.3660(3) 1.4908(2) 0.4444(3)
H24 H -0.3141 1.4706 0.4692
C33 C -0.4234(2) 1.45515(17) 0.3863(3)
C34 C -0.4095(3) 1.38445(17) 0.3652(3)
H25 H -0.4580 1.3618 0.3370
C35 C -0.3363(3) 1.34927(18) 0.3815(3)
H26 H -0.2863 1.3725 0.4054
C36 C -0.3255(2) 1.27783(18) 0.3662(3)
C37 C -0.3899(3) 1.2395(2) 0.3197(3)
H27 H -0.4393 1.2606 0.2908
C38 C -0.3826(3) 1.1706(2) 0.3150(3)
H28 H -0.4270 1.1463 0.2826
C39 C -0.3111(2) 1.13646(17) 0.3572(3)
C40 C -0.2452(3) 1.1735(2) 0.4008(3)
H29 H -0.1953 1.1521 0.4283
C41 C -0.2520(3) 1.2436(2) 0.4045(4)
H30 H -0.2057 1.2681 0.4336
C42 C -0.3073(3) 1.06065(18) 0.3547(3)
C43 C -0.5604(3) 0.32440(18) 0.1289(3)
H31 H -0.6059 0.3061 0.1559
C44 C -0.5253(3) 0.2863(2) 0.0675(3)
H32 H -0.5466 0.2433 0.0540
C45 C -0.4585(3) 0.3132(2) 0.0270(3)
H33 H -0.4339 0.2886 -0.0146
C46 C -0.4282(3) 0.3768(2) 0.0486(3)
H34 H -0.3826 0.3953 0.0218
C47 C -0.4658(3) 0.41364(18) 0.1103(3)
C48 C -0.4382(3) 0.48200(18) 0.1335(3)
H35 H -0.4632 0.5014 0.1788
C49 C -0.3814(3) 0.51962(18) 0.0973(3)
H36 H -0.3532 0.4996 0.0545
C50 C -0.3587(2) 0.58984(18) 0.1184(3)
C51 C -0.3833(3) 0.6218(2) 0.1904(3)
H37 H -0.4090 0.5968 0.2310
C52 C -0.3703(3) 0.6897(2) 0.2028(3)
H38 H -0.3905 0.7103 0.2499
C53 C -0.3275(2) 0.72805(17) 0.1464(2)
C54 C -0.2952(2) 0.69547(18) 0.0794(3)
H39 H -0.2616 0.7191 0.0438
C55 C -0.3123(2) 0.62771(18) 0.0644(3)
H40 H -0.2922 0.6071 0.0172
C56 C -0.3182(2) 0.80279(17) 0.1590(2)
N1C N -0.0171(2) 0.93189(14) 0.3315(2)
N2C N -0.04332(18) 0.83497(13) 0.13238(19)
N3C N -0.50037(19) 0.98348(14) 0.1498(2)
N4C N -0.4682(2) 0.88669(14) 0.3486(2)
Cd1C Cd 0.134666(16) 1.381049(12) 0.270012(18)
Cd1C_2 Cd 0.134666(16) 0.381049(12) 0.270012(18)
Cd2C Cd -0.618634(17) 1.435736(12) 0.25832(2)
Cd2C_2 Cd -0.618634(17) 0.435736(12) 0.25832(2)
loop_
_geom_bond_atom_site_label_1
_geom_bond_atom_site_label_2
_geom_bond_site_symmetry_1
_geom_bond_site_symmetry_2
Cd1 O1 1_555 1_555
Cd2 O2 1_555 1_555
O1 C14 1_555 1_555
O2 C14 1_555 1_555
O3 Cd1 1_555 1_555
O4 C28 1_555 1_555
O5 Cd2 1_555 1_555
O6 C42 1_555 1_555
O7 Cd2 1_555 1_555
O8 Cd1 1_555 1_555
O9 Cd1 1_555 1_555
N1 C1 1_555 1_555
N2 C15 1_555 1_555
N3 C29 1_555 1_555
N4 C43 1_555 1_555
C1 H1 1_555 1_555
C2 C1 1_555 1_555
H2 C2 1_555 1_555
C3 C2 1_555 1_555
H3 C3 1_555 1_555
C4 C3 1_555 1_555
H4 C4 1_555 1_555
C5 N1 1_555 1_555
C6 C5 1_555 1_555
H5 C6 1_555 1_555
C7 C6 1_555 1_555
H6 C7 1_555 1_555
C8 C7 1_555 1_555
C9 C8 1_555 1_555
H7 C9 1_555 1_555
C10 C9 1_555 1_555
H8 C10 1_555 1_555
C11 C10 1_555 1_555
C12 C11 1_555 1_555
H9 C12 1_555 1_555
C13 C8 1_555 1_555
H10 C13 1_555 1_555
C14 C11 1_555 1_555
C15 H11 1_555 1_555
C16 C15 1_555 1_555
H12 C16 1_555 1_555
C17 C16 1_555 1_555
H13 C17 1_555 1_555
C18 C17 1_555 1_555
H14 C18 1_555 1_555
C19 N2 1_555 1_555
C20 C19 1_555 1_555
H15 C20 1_555 1_555
C21 C20 1_555 1_555
H16 C21 1_555 1_555
C22 C21 1_555 1_555
C23 C22 1_555 1_555
H17 C23 1_555 1_555
C24 C23 1_555 1_555
H18 C24 1_555 1_555
C25 C24 1_555 1_555
C26 C25 1_555 1_555
H19 C26 1_555 1_555
C27 C22 1_555 1_555
H20 C27 1_555 1_555
C28 O3 1_555 1_555
C29 H21 1_555 1_555
C30 C29 1_555 1_555
H22 C30 1_555 1_555
C31 C30 1_555 1_555
H23 C31 1_555 1_555
C32 C31 1_555 1_555
H24 C32 1_555 1_555
C33 N3 1_555 1_555
C34 C33 1_555 1_555
H25 C34 1_555 1_555
C35 C34 1_555 1_555
H26 C35 1_555 1_555
C36 C35 1_555 1_555
C37 C36 1_555 1_555
H27 C37 1_555 1_555
C38 C37 1_555 1_555
H28 C38 1_555 1_555
C39 C38 1_555 1_555
C40 C39 1_555 1_555
H29 C40 1_555 1_555
C41 C36 1_555 1_555
H30 C41 1_555 1_555
C42 O5 1_555 1_555
C43 H31 1_555 1_555
C44 C43 1_555 1_555
H32 C44 1_555 1_555
C45 C44 1_555 1_555
H33 C45 1_555 1_555
C46 C45 1_555 1_555
H34 C46 1_555 1_555
C47 N4 1_555 1_555
C48 C47 1_555 1_555
H35 C48 1_555 1_555
C49 C48 1_555 1_555
H36 C49 1_555 1_555
C50 C49 1_555 1_555
C51 C50 1_555 1_555
H37 C51 1_555 1_555
C52 C51 1_555 1_555
H38 C52 1_555 1_555
C53 C52 1_555 1_555
C54 C53 1_555 1_555
H39 C54 1_555 1_555
C55 C50 1_555 1_555
H40 C55 1_555 1_555
C56 O7 1_555 1_555
N1C Cd1 1_555 1_555
N2C Cd1 1_555 1_555
N3C Cd2 1_555 1_555
N4C Cd2 1_555 1_555
Cd1C N1 1_555 1_555
Cd1C_2 N2 1_555 1_555
Cd2C N3 1_555 1_555
Cd2C_2 N4 1_555 1_555
Cd2 O9 1_555 1_555
O8 C56 1_555 1_555
C4 C5 1_555 1_555
C12 C13 1_555 1_555
C18 C19 1_555 1_555
C25 C28 1_555 1_555
C26 C27 1_555 1_555
C32 C33 1_555 1_555
C39 C42 1_555 1_555
C40 C41 1_555 1_555
C46 C47 1_555 1_555
C53 C56 1_555 1_555
C54 C55 1_555 1_555

#END
