
#######################################################################
#
#                 Cambridge Crystallographic Data Centre
#                                CCDC 
#
#######################################################################
#
# If this CIF has been generated from an entry in the Cambridge 
# Structural Database, then it will include bibliographic, chemical, 
# crystal, experimental, refinement or atomic coordinate data resulting 
# from the CCDC's data processing and validation procedures.
#
#######################################################################

data_EKACEY
_symmetry_cell_setting           monoclinic
_symmetry_space_group_name_H-M   'C 2/c'
_symmetry_Int_Tables_number      15
_space_group_name_Hall           '-C 2yn'
loop_
_symmetry_equiv_pos_site_id
_symmetry_equiv_pos_as_xyz
1 x,y,z
2 1/2+x,1/2+y,z
3 -x,y,1/2-z
4 1/2-x,1/2+y,1/2-z
5 -x,-y,-z
6 1/2-x,1/2-y,-z
7 x,-y,1/2+z
8 1/2+x,1/2-y,1/2+z
_cell_length_a                   23.25080(10)
_cell_length_b                   10.9695(3)
_cell_length_c                   11.5021(2)
_cell_angle_alpha                90
_cell_angle_beta                 113.6090(10)
_cell_angle_gamma                90
_cell_volume                     2688.06
loop_
_atom_site_label
_atom_site_type_symbol
_atom_site_fract_x
_atom_site_fract_y
_atom_site_fract_z
Co1 Co 0.18040(2) 0.08168(4) 0.43314(5)
N1 N 0.11958(17) 0.2135(3) 0.3003(3)
N2 N 0.24725(15) -0.0516(3) 0.5508(3)
C1 C 0.1326(3) 0.3324(4) 0.3151(5)
H1 H 0.1679 0.3572 0.3849
C2 C 0.0969(4) 0.4196(5) 0.2332(7)
H2 H 0.1083 0.5013 0.2479
C3 C 0.0692(2) 0.1823(4) 0.1976(5)
H3 H 0.0593 0.1000 0.1839
C4 C 0.0315(3) 0.2640(5) 0.1116(6)
H4 H -0.0028 0.2368 0.0411
C5 C 0.0442(4) 0.3869(6) 0.1293(8)
C6 C -0.0134(5) 0.4958(9) 0.0407(10)
H5 H -0.0558 0.4634 0.0040
H6 H -0.0119 0.5708 0.0866
C7 C 0.28833(19) -0.1045(3) 0.5105(4)
H7 H 0.2904 -0.0759 0.4362
C8 C 0.32761(19) -0.1992(4) 0.5742(4)
H8 H 0.3551 -0.2331 0.5425
C9 C 0.32571(18) -0.2435(3) 0.6866(4)
C10 C 0.28482(17) -0.1856(3) 0.7317(4)
C11 C 0.24679(19) -0.0915(3) 0.6603(4)
H9 H 0.2195 -0.0543 0.6905
C12 C 0.28083(18) -0.2221(3) 0.8540(4)
C13 C 0.36714(18) -0.3490(4) 0.7533(4)
O1 O 0.30548(14) -0.3204(2) 0.9031(3)
O2 O 0.25404(13) -0.1484(2) 0.8994(3)
O3 O 0.34778(14) -0.4544(2) 0.7167(3)
O4 O 0.41928(14) -0.3235(3) 0.8398(3)
O5 O 0.10397(14) 0.0086(3) 0.4726(3)
C6D C 0.0134(5) 0.5042(9) -0.0407(10)
C5D C -0.0442(4) 0.6131(6) -0.1293(8)
C2D C -0.0969(4) 0.5804(5) -0.2332(7)
C1D C -0.1326(3) 0.6676(4) -0.3151(5)
N1D N -0.11958(17) 0.7865(3) -0.3003(3)
C3D C -0.0692(2) 0.8177(4) -0.1976(5)
H3D H -0.0593 0.9000 -0.1839
C4D C -0.0315(3) 0.7360(5) -0.1116(6)
H4D H 0.0028 0.7632 -0.0411
H1D H -0.1679 0.6428 -0.3849
H2D H -0.1083 0.4987 -0.2479
H5D H 0.0558 0.5366 -0.0040
H6D H 0.0119 0.4292 -0.0866
N2C N 0.25275(15) 0.4484(3) 0.9492(3)
C7C C 0.21167(19) 0.3955(3) 0.9895(4)
H7C H 0.2096 0.4241 1.0638
C8C C 0.17239(19) 0.3008(4) 0.9258(4)
H8C H 0.1449 0.2669 0.9575
C9C C 0.17429(18) 0.2565(3) 0.8134(4)
C10C C 0.21518(17) 0.3144(3) 0.7683(4)
C11C C 0.25321(19) 0.4085(3) 0.8397(4)
H9C H 0.2805 0.4457 0.8095
C12C C 0.21917(18) 0.2779(3) 0.6460(4)
C13C C 0.13286(18) 0.1510(4) 0.7467(4)
O1C O 0.19452(14) 0.1796(2) 0.5969(3)
O2C O 0.24596(13) 0.3516(2) 0.6006(3)
O3C O 0.15222(14) 0.0456(2) 0.7833(3)
O4C O 0.08072(14) 0.1765(3) 0.6602(3)
Co1D Co -0.18040(2) 0.91832(4) -0.43314(5)
O5D O -0.10397(14) 0.9914(3) -0.4726(3)
O2F O 0.25404(13) 0.1484(2) 0.3994(3)
O3E O 0.15222(14) -0.0456(2) 0.2833(3)
Co1C Co 0.31960(2) -0.41832(4) 1.06686(5)
Co1F Co 0.18040(2) -0.08168(4) 0.93314(5)
Co1E Co 0.31960(2) -0.58168(4) 0.56686(5)
Co1C_2 Co 0.31960(2) 0.58168(4) 1.06686(5)
Co1E_2 Co 0.31960(2) 0.41832(4) 0.56686(5)
N2D N -0.24725(15) 1.0516(3) -0.5508(3)
O1G O -0.19452(14) 0.8204(2) -0.5969(3)
O2B O -0.25404(13) 0.8516(2) -0.3994(3)
O3A O -0.15222(14) 1.0456(2) -0.2833(3)
O6 O 0.0000 -0.0692(4) 0.2500
loop_
_geom_bond_atom_site_label_1
_geom_bond_atom_site_label_2
_geom_bond_site_symmetry_1
_geom_bond_site_symmetry_2
Co1 N1 1_555 1_555
N1 C1 1_555 1_555
N2 Co1 1_555 1_555
C1 H1 1_555 1_555
C2 C1 1_555 1_555
H2 C2 1_555 1_555
C3 N1 1_555 1_555
H3 C3 1_555 1_555
C4 C3 1_555 1_555
H4 C4 1_555 1_555
C5 C2 1_555 1_555
C6 C5 1_555 1_555
H5 C6 1_555 1_555
H6 C6 1_555 1_555
C7 N2 1_555 1_555
H7 C7 1_555 1_555
C8 C7 1_555 1_555
H8 C8 1_555 1_555
C9 C8 1_555 1_555
C10 C9 1_555 1_555
C11 N2 1_555 1_555
H9 C11 1_555 1_555
C12 C10 1_555 1_555
C13 C9 1_555 1_555
O1 C12 1_555 1_555
O2 C12 1_555 1_555
O3 C13 1_555 1_555
O4 C13 1_555 1_555
O5 Co1 1_555 1_555
C6D C6 1_555 1_555
C5D C6D 1_555 1_555
C2D C5D 1_555 1_555
C1D C2D 1_555 1_555
N1D C1D 1_555 1_555
C3D N1D 1_555 1_555
H3D C3D 1_555 1_555
C4D C5D 1_555 1_555
H4D C4D 1_555 1_555
H1D C1D 1_555 1_555
H2D C2D 1_555 1_555
H5D C6D 1_555 1_555
H6D C6D 1_555 1_555
N2C C7C 1_555 1_555
C7C H7C 1_555 1_555
C8C C7C 1_555 1_555
H8C C8C 1_555 1_555
C9C C8C 1_555 1_555
C10C C9C 1_555 1_555
C11C N2C 1_555 1_555
H9C C11C 1_555 1_555
C12C C10C 1_555 1_555
C13C C9C 1_555 1_555
O1C Co1 1_555 1_555
O2C C12C 1_555 1_555
O3C C13C 1_555 1_555
O4C C13C 1_555 1_555
Co1D N1D 1_555 1_555
O5D Co1D 1_555 1_555
O2F Co1 1_555 1_555
O3E Co1 1_555 1_555
Co1C O1 1_555 1_555
Co1F O2 1_555 1_555
Co1E O3 1_555 1_555
Co1C_2 N2C 1_555 1_555
Co1E_2 O2C 1_555 1_555
N2D Co1D 1_555 1_555
O1G Co1D 1_555 1_555
O2B Co1D 1_555 1_555
O3A Co1D 1_555 1_555
C4 C5 1_555 1_555
C10 C11 1_555 1_555
C3D C4D 1_555 1_555
C10C C11C 1_555 1_555
C12C O1C 1_555 1_555
O3C Co1F 1_555 1_555

#END
