
#######################################################################
#
#                 Cambridge Crystallographic Data Centre
#                                CCDC 
#
#######################################################################
#
# If this CIF has been generated from an entry in the Cambridge 
# Structural Database, then it will include bibliographic, chemical, 
# crystal, experimental, refinement or atomic coordinate data resulting 
# from the CCDC's data processing and validation procedures.
#
#######################################################################

data_EKACOI
_symmetry_cell_setting           orthorhombic
_symmetry_space_group_name_H-M   'P b c n'
_symmetry_Int_Tables_number      60
_space_group_name_Hall           '-P 2n 2ab'
loop_
_symmetry_equiv_pos_site_id
_symmetry_equiv_pos_as_xyz
1 x,y,z
2 1/2+x,1/2+y,1/2-z
3 x,-y,1/2+z
4 1/2-x,1/2+y,z
5 -x,-y,-z
6 1/2-x,1/2-y,1/2+z
7 -x,y,1/2-z
8 1/2+x,1/2-y,-z
_cell_length_a                   7.0821(14)
_cell_length_b                   12.557(3)
_cell_length_c                   15.997(3)
_cell_angle_alpha                90
_cell_angle_beta                 90
_cell_angle_gamma                90
_cell_volume                     1422.61
loop_
_atom_site_label
_atom_site_type_symbol
_atom_site_fract_x
_atom_site_fract_y
_atom_site_fract_z
Co1 Co 0.81398(5) -0.13851(3) -0.10033(2)
Co2 Co 0.5000 0.0000 0.0000
O1 O 0.5040(3) -0.14645(15) -0.07537(12)
O2 O 1.1029(3) 0.14497(14) -0.02404(11)
O3 O 0.7351(3) 0.02425(15) -0.07380(11)
O4 O 1.3392(3) 0.06039(15) -0.09090(11)
O5 O 1.0944(3) -0.13686(15) -0.14874(11)
O6 O 1.2425(3) -0.13175(15) -0.27322(11)
O7 O 0.6706(3) 0.19696(15) -0.08265(11)
C1 C 1.0854(4) 0.1206(2) -0.17107(14)
C2 C 0.7595(4) 0.1167(2) -0.10570(15)
C3 C 1.1957(4) 0.1223(2) -0.24343(16)
H1 H 1.3266 0.1225 -0.2392
C4 C 0.8893(4) 0.1235(2) -0.17855(15)
C5 C 1.1840(4) 0.1077(2) -0.08864(16)
C6 C 1.0977(4) -0.1342(2) -0.22758(16)
C4F C 1.1107(4) 0.1235(2) -0.32145(15)
C1F C 0.9146(4) 0.1206(2) -0.32893(14)
C3F C 0.8043(4) 0.1223(2) -0.25657(16)
H1F H 0.6734 0.1225 -0.2608
C5F C 0.8160(4) 0.1077(2) -0.41136(16)
O2F O 0.8971(3) 0.14497(14) -0.47596(11)
O4F O 0.6608(3) 0.06039(15) -0.40910(11)
C2F C 1.2405(4) 0.1167(2) -0.39430(15)
O3F O 1.2649(3) 0.02425(15) -0.42620(11)
O7F O 1.3294(3) 0.19696(15) -0.41735(11)
C6F C 0.9023(4) -0.1342(2) -0.27242(16)
O5F O 0.9056(3) -0.13686(15) -0.35126(11)
O6F O 0.7575(3) -0.13175(15) -0.22678(11)
O1D O 0.4960(3) 0.14645(15) 0.07537(12)
Co1D Co 0.18602(5) 0.13851(3) 0.10033(2)
O2D O 0.8971(3) -0.14497(14) 0.02404(11)
O7C O 0.8294(3) -0.30304(15) -0.08265(11)
O3D O 0.2649(3) -0.02425(15) 0.07380(11)
O4_2 O 0.3392(3) 0.06039(15) -0.09090(11)
O4D O 0.6608(3) -0.06039(15) 0.09090(11)
Co1D_2 Co 1.18602(5) 0.13851(3) 0.10033(2)
Co2_2 Co 1.5000 0.0000 0.0000
Co1F Co 1.18602(5) -0.13851(3) -0.39967(2)
Co1C Co 0.68602(5) 0.36149(3) -0.10033(2)
Co1B Co 0.81398(5) 0.13851(3) -0.60033(2)
Co2B Co 0.5000 0.0000 -0.5000
Co2B_2 Co 1.5000 0.0000 -0.5000
Co1A Co 1.31398(5) 0.36149(3) -0.39967(2)
O2_2 O 0.1029(3) 0.14497(14) -0.02404(11)
O5D O -0.0944(3) 0.13686(15) 0.14874(11)
O6B O 0.2425(3) 0.13175(15) 0.22678(11)
O7G O 0.1706(3) 0.30304(15) 0.08265(11)
loop_
_geom_bond_atom_site_label_1
_geom_bond_atom_site_label_2
_geom_bond_site_symmetry_1
_geom_bond_site_symmetry_2
Co1 O1 1_555 1_555
Co2 O1 1_555 1_555
O2 C5 1_555 1_555
O3 Co1 1_555 1_555
O4 C5 1_555 1_555
O5 Co1 1_555 1_555
O6 C6 1_555 1_555
O7 C2 1_555 1_555
C1 C3 1_555 1_555
C2 O3 1_555 1_555
C3 H1 1_555 1_555
C4 C1 1_555 1_555
C5 C1 1_555 1_555
C6 O5 1_555 1_555
C4F C3 1_555 1_555
C1F C4F 1_555 1_555
C3F C4 1_555 1_555
H1F C3F 1_555 1_555
C5F C1F 1_555 1_555
O2F C5F 1_555 1_555
O4F C5F 1_555 1_555
C2F C4F 1_555 1_555
O3F C2F 1_555 1_555
O7F C2F 1_555 1_555
C6F C6 1_555 1_555
O5F C6F 1_555 1_555
O6F Co1 1_555 1_555
O1D Co2 1_555 1_555
Co1D O1D 1_555 1_555
O2D Co1 1_555 1_555
O7C Co1 1_555 1_555
O3D Co2 1_555 1_555
O4_2 Co2 1_555 1_555
O4D Co2 1_555 1_555
Co1D_2 O2 1_555 1_555
Co2_2 O4 1_555 1_555
Co1F O6 1_555 1_555
Co1C O7 1_555 1_555
Co1B O2F 1_555 1_555
Co2B O4F 1_555 1_555
Co2B_2 O3F 1_555 1_555
Co1A O7F 1_555 1_555
O2_2 Co1D 1_555 1_555
O5D Co1D 1_555 1_555
O6B Co1D 1_555 1_555
O7G Co1D 1_555 1_555
Co2 O3 1_555 1_555
C2 C4 1_555 1_555
C1F C3F 1_555 1_555
O3F Co1F 1_555 1_555
C6F O6F 1_555 1_555
O5F Co1F 1_555 1_555
Co1D O3D 1_555 1_555

#END
