
#######################################################################
#
#                 Cambridge Crystallographic Data Centre
#                                CCDC 
#
#######################################################################
#
# If this CIF has been generated from an entry in the Cambridge 
# Structural Database, then it will include bibliographic, chemical, 
# crystal, experimental, refinement or atomic coordinate data resulting 
# from the CCDC's data processing and validation procedures.
#
#######################################################################

data_EKADAV
_symmetry_cell_setting           monoclinic
_symmetry_space_group_name_H-M   'P 21/c'
_symmetry_Int_Tables_number      14
_space_group_name_Hall           '-P 2ybc'
loop_
_symmetry_equiv_pos_site_id
_symmetry_equiv_pos_as_xyz
1 x,y,z
2 x,1/2-y,1/2+z
3 -x,-y,-z
4 -x,1/2+y,1/2-z
_cell_length_a                   11.9219(1)
_cell_length_b                   8.9515(1)
_cell_length_c                   18.8204(1)
_cell_angle_alpha                90
_cell_angle_beta                 104.372(1)
_cell_angle_gamma                90
_cell_volume                     1945.64
loop_
_atom_site_label
_atom_site_type_symbol
_atom_site_fract_x
_atom_site_fract_y
_atom_site_fract_z
Cd1 Cd 0.642911(19) 0.07400(3) 0.038301(12)
O1 O 0.5317(2) -0.0389(3) -0.06155(13)
O2 O 1.2356(3) 0.4004(3) 0.38363(16)
O3 O 1.2560(2) 0.6216(3) 0.33942(14)
N1 N 0.7489(2) 0.0642(3) -0.05260(15)
N2 N 0.6425(3) 0.3296(3) 0.01883(16)
C1 C 0.5740(3) -0.0536(4) -0.11962(18)
C2 C 0.5165(3) -0.1255(5) -0.18322(19)
H1 H 0.4438 -0.1665 -0.1862
C3 C 0.5657(4) -0.1379(6) -0.2432(2)
H2 H 0.5260 -0.1904 -0.2845
C4 C 0.6695(4) -0.0755(5) -0.2430(2)
H3 H 0.6986 -0.0812 -0.2844
C5 C 0.7328(3) -0.0020(4) -0.17953(19)
C6 C 0.8427(4) 0.0641(5) -0.1728(2)
H4 H 0.8748 0.0662 -0.2131
C7 C 0.9019(4) 0.1243(5) -0.1081(2)
H5 H 0.9745 0.1666 -0.1039
C8 C 0.8528(3) 0.1225(5) -0.04775(19)
C9 C 0.6872(3) 0.0044(4) -0.11718(16)
C10 C 0.9114(3) 0.1805(4) 0.02469(19)
H6 H 0.8843 0.1453 0.0639
C11 C 0.9987(3) 0.2774(5) 0.0413(2)
H7 H 1.0285 0.3126 0.0032
C12 C 1.0512(3) 0.3324(4) 0.1153(2)
C13 C 1.1257(4) 0.4545(5) 0.1251(2)
H8 H 1.1404 0.5014 0.0843
C14 C 1.1781(3) 0.5073(5) 0.1943(2)
H9 H 1.2266 0.5901 0.1995
C15 C 1.1590(3) 0.4375(4) 0.25613(19)
C16 C 1.0838(3) 0.3170(4) 0.2468(2)
H10 H 1.0699 0.2692 0.2876
C17 C 1.0295(3) 0.2671(4) 0.1774(2)
H11 H 0.9772 0.1883 0.1722
C18 C 1.2209(3) 0.4901(4) 0.33119(19)
C19 C 0.7066(4) 0.4218(4) 0.0687(2)
H12 H 0.7420 0.3841 0.1148
C20 C 0.7220(5) 0.5690(4) 0.0546(3)
H13 H 0.7662 0.6302 0.0908
C21 C 0.6719(5) 0.6250(5) -0.0131(3)
H14 H 0.6826 0.7245 -0.0240
C22 C 0.6053(5) 0.5324(5) -0.0651(3)
H15 H 0.5693 0.5682 -0.1115
C23 C 0.5932(4) 0.3853(5) -0.0466(2)
H16 H 0.5483 0.3224 -0.0817
O1B O 0.4683(2) 0.0389(3) 0.06155(13)
O2C O 0.7644(3) -0.0996(3) 0.11637(16)
O3C O 0.7440(2) 0.1216(3) 0.16058(14)
Cd1B Cd 0.357089(19) -0.07400(3) -0.038301(12)
Cd1C Cd 1.357089(19) 0.57400(3) 0.461699(12)
loop_
_geom_bond_atom_site_label_1
_geom_bond_atom_site_label_2
_geom_bond_site_symmetry_1
_geom_bond_site_symmetry_2
Cd1 O1 1_555 1_555
O1 C1 1_555 1_555
O2 C18 1_555 1_555
O3 C18 1_555 1_555
N1 Cd1 1_555 1_555
N2 Cd1 1_555 1_555
C1 C2 1_555 1_555
C2 H1 1_555 1_555
C3 C2 1_555 1_555
H2 C3 1_555 1_555
C4 C3 1_555 1_555
H3 C4 1_555 1_555
C5 C4 1_555 1_555
C6 C5 1_555 1_555
H4 C6 1_555 1_555
C7 C6 1_555 1_555
H5 C7 1_555 1_555
C8 N1 1_555 1_555
C9 N1 1_555 1_555
C10 C8 1_555 1_555
H6 C10 1_555 1_555
C11 C10 1_555 1_555
H7 C11 1_555 1_555
C12 C11 1_555 1_555
C13 C12 1_555 1_555
H8 C13 1_555 1_555
C14 C13 1_555 1_555
H9 C14 1_555 1_555
C15 C14 1_555 1_555
C16 C15 1_555 1_555
H10 C16 1_555 1_555
C17 C12 1_555 1_555
H11 C17 1_555 1_555
C18 C15 1_555 1_555
C19 N2 1_555 1_555
H12 C19 1_555 1_555
C20 C19 1_555 1_555
H13 C20 1_555 1_555
C21 C20 1_555 1_555
H14 C21 1_555 1_555
C22 C21 1_555 1_555
H15 C22 1_555 1_555
C23 N2 1_555 1_555
H16 C23 1_555 1_555
O1B Cd1 1_555 1_555
O2C Cd1 1_555 1_555
O3C Cd1 1_555 1_555
Cd1B O1 1_555 1_555
Cd1C O2 1_555 1_555
O3 Cd1C 1_555 1_555
C1 C9 1_555 1_555
C5 C9 1_555 1_555
C7 C8 1_555 1_555
C16 C17 1_555 1_555
C22 C23 1_555 1_555
O1B Cd1B 1_555 1_555

#END
