
#######################################################################
#
#                 Cambridge Crystallographic Data Centre
#                                CCDC 
#
#######################################################################
#
# If this CIF has been generated from an entry in the Cambridge 
# Structural Database, then it will include bibliographic, chemical, 
# crystal, experimental, refinement or atomic coordinate data resulting 
# from the CCDC's data processing and validation procedures.
#
#######################################################################

data_EKAHAA
_symmetry_cell_setting           monoclinic
_symmetry_space_group_name_H-M   'C 2/c'
_symmetry_Int_Tables_number      15
_space_group_name_Hall           '-C 2yn'
loop_
_symmetry_equiv_pos_site_id
_symmetry_equiv_pos_as_xyz
1 x,y,z
2 -x,y,1/2-z
3 1/2+x,1/2+y,z
4 1/2-x,1/2+y,1/2-z
5 -x,-y,-z
6 x,-y,1/2+z
7 1/2-x,1/2-y,-z
8 1/2+x,1/2-y,1/2+z
_cell_length_a                   14.565(4)
_cell_length_b                   9.280(2)
_cell_length_c                   20.699(5)
_cell_angle_alpha                90
_cell_angle_beta                 108.01(2)
_cell_angle_gamma                90
_cell_volume                     2660.66
loop_
_atom_site_label
_atom_site_type_symbol
_atom_site_fract_x
_atom_site_fract_y
_atom_site_fract_z
Zn1 Zn 0.0000 0.23976(8) 0.2500
C1 C 0.5422(3) -0.1286(5) 0.3876(2)
C2 C 0.4402(3) -0.0782(4) 0.3500(2)
C3 C 0.3864(3) 0.0007(5) 0.3814(2)
H1 H 0.4113 0.0266 0.4269
C4 C 0.2935(3) 0.0405(5) 0.3430(2)
H2 H 0.2551 0.0931 0.3629
C5 C 0.2584(3) 0.0025(4) 0.2756(2)
C6 C 0.3181(3) -0.0753(4) 0.2485(2)
H3 H 0.2953 -0.1005 0.2028
C7 C 0.1565(3) 0.0475(5) 0.2316(2)
N1 N 0.4073(2) -0.1165(4) 0.28440(17)
O1 O 0.1030(2) 0.0824(3) 0.26544(17)
O2 O 0.1389(3) 0.0447(5) 0.17037(18)
O3 O 0.5799(2) -0.0827(4) 0.44652(16)
O4 O 0.5796(2) -0.2138(3) 0.35593(15)
N1B N -0.0927(2) 0.3835(4) 0.28440(17)
O4B O 0.0796(2) 0.2862(3) 0.35593(15)
N1C N 0.0927(2) 0.3835(4) 0.21560(17)
O1A O -0.1030(2) 0.0824(3) 0.23456(17)
O4C O -0.0796(2) 0.2862(3) 0.14407(15)
Zn1B Zn 0.5000 -0.26024(8) 0.2500
C7A C -0.1565(3) 0.0475(5) 0.2684(2)
C5A C -0.2584(3) 0.0025(4) 0.2244(2)
O2A O -0.1389(3) 0.0447(5) 0.32963(18)
C4A C -0.2935(3) 0.0405(5) 0.1570(2)
C6A C -0.3181(3) -0.0753(4) 0.2515(2)
C3A C -0.3864(3) 0.0007(5) 0.1186(2)
H2A H -0.2551 0.0931 0.1371
H3A H -0.2953 -0.1005 0.2972
N1A N -0.4073(2) -0.1165(4) 0.21560(17)
C2A C -0.4402(3) -0.0782(4) 0.1500(2)
H1A H -0.4113 0.0266 0.0731
Zn1B_2 Zn -0.5000 -0.26024(8) 0.2500
C1A C -0.5422(3) -0.1286(5) 0.1124(2)
O4A O -0.5796(2) -0.2138(3) 0.14407(15)
O3A O -0.5799(2) -0.0827(4) 0.05348(16)
C8 C 0.1681(4) -0.1294(6) 0.0413(3)
H4 H 0.1628 -0.2099 0.0112
H5 H 0.1307 -0.1477 0.0713
H6 H 0.2346 -0.1157 0.0674
C9 C 0.1268(4) 0.1351(5) 0.0270(3)
H7 H 0.1430 0.1595 0.0727
C10 C 0.0943(4) 0.2258(6) -0.0257(3)
H8 H 0.0846 0.3246 -0.0236
C11 C 0.1008(3) 0.0077(5) -0.0657(2)
H9 H 0.0958 -0.0695 -0.0953
C12 C 0.0431(4) 0.1969(6) -0.1538(3)
H10 H -0.0157 0.2519 -0.1603
H11 H 0.0282 0.1158 -0.1849
C13 C 0.1173(5) 0.2899(6) -0.1695(3)
H12 H 0.0931 0.3231 -0.2156
H13 H 0.1752 0.2352 -0.1637
H14 H 0.1312 0.3712 -0.1394
N2 N 0.1320(3) 0.0004(4) 0.0014(2)
N3 N 0.0780(3) 0.1439(4) -0.08369(19)
loop_
_geom_bond_atom_site_label_1
_geom_bond_atom_site_label_2
_geom_bond_site_symmetry_1
_geom_bond_site_symmetry_2
Zn1 O1 1_555 1_555
C1 C2 1_555 1_555
C2 C3 1_555 1_555
C3 H1 1_555 1_555
C4 C3 1_555 1_555
H2 C4 1_555 1_555
C5 C4 1_555 1_555
C6 C5 1_555 1_555
H3 C6 1_555 1_555
C7 C5 1_555 1_555
N1 C2 1_555 1_555
O1 C7 1_555 1_555
O2 C7 1_555 1_555
O3 C1 1_555 1_555
O4 C1 1_555 1_555
C8 H4 1_555 1_555
H5 C8 1_555 1_555
H6 C8 1_555 1_555
C9 H7 1_555 1_555
C10 C9 1_555 1_555
H8 C10 1_555 1_555
C11 H9 1_555 1_555
C12 H10 1_555 1_555
H11 C12 1_555 1_555
C13 C12 1_555 1_555
H12 C13 1_555 1_555
H13 C13 1_555 1_555
H14 C13 1_555 1_555
N2 C8 1_555 1_555
N3 C10 1_555 1_555
N1B Zn1 1_555 1_555
O4B Zn1 1_555 1_555
N1C Zn1 1_555 1_555
O1A Zn1 1_555 1_555
O4C Zn1 1_555 1_555
Zn1B N1 1_555 1_555
C7A O1A 1_555 1_555
C5A C7A 1_555 1_555
O2A C7A 1_555 1_555
C4A C5A 1_555 1_555
C6A C5A 1_555 1_555
C3A C4A 1_555 1_555
H2A C4A 1_555 1_555
H3A C6A 1_555 1_555
N1A C6A 1_555 1_555
C2A C3A 1_555 1_555
H1A C3A 1_555 1_555
Zn1B_2 N1A 1_555 1_555
C1A C2A 1_555 1_555
O4A Zn1B_2 1_555 1_555
O3A C1A 1_555 1_555
C6 N1 1_555 1_555
O4 Zn1B 1_555 1_555
C9 N2 1_555 1_555
C11 N2 1_555 1_555
C11 N3 1_555 1_555
C12 N3 1_555 1_555
N1A C2A 1_555 1_555
C1A O4A 1_555 1_555

#END
