
#######################################################################
#
#                 Cambridge Crystallographic Data Centre
#                                CCDC 
#
#######################################################################
#
# If this CIF has been generated from an entry in the Cambridge 
# Structural Database, then it will include bibliographic, chemical, 
# crystal, experimental, refinement or atomic coordinate data resulting 
# from the CCDC's data processing and validation procedures.
#
#######################################################################

data_EKALUX
_symmetry_cell_setting           monoclinic
_symmetry_space_group_name_H-M   'P 21/n'
_symmetry_Int_Tables_number      14
_space_group_name_Hall           '-P 2yn'
loop_
_symmetry_equiv_pos_site_id
_symmetry_equiv_pos_as_xyz
1 x,y,z
2 1/2+x,1/2-y,1/2+z
3 -x,-y,-z
4 1/2-x,1/2+y,1/2-z
_cell_length_a                   8.3392(14)
_cell_length_b                   12.210(2)
_cell_length_c                   17.565(3)
_cell_angle_alpha                90
_cell_angle_beta                 94.880(3)
_cell_angle_gamma                90
_cell_volume                     1782.01
loop_
_atom_site_label
_atom_site_type_symbol
_atom_site_fract_x
_atom_site_fract_y
_atom_site_fract_z
Zn1 Zn 0.5000 0.5000 0.0000
O1 O 0.2901(2) 0.4959(2) 0.06342(12)
H1 H 0.280(3) 0.525(2) 0.0991(14)
H2 H 0.243(3) 0.443(2) 0.0573(15)
N1 N 0.8917(2) 0.33796(15) 0.47367(11)
N2 N 0.3992(2) 0.80660(16) 0.46220(12)
N3 N 0.6521(2) 0.49631(15) 0.10356(10)
N4 N 0.5643(2) 0.66714(15) 0.45100(11)
N5 N 0.7381(2) 0.49002(15) 0.22529(10)
N6 N 0.9937(2) 0.17511(14) 0.50256(11)
C1 C 0.8162(3) 0.4166(2) 0.35044(14)
H5 H 0.877(2) 0.3620(17) 0.3261(12)
C2 C 0.8098(3) 0.42025(18) 0.42875(13)
C3 C 0.6503(3) 0.5780(2) 0.33819(14)
H6 H 0.603(2) 0.6326(17) 0.3083(12)
C4 C 0.6459(3) 0.57960(19) 0.41664(13)
C5 C 0.9471(3) 0.3414(2) 0.54983(14)
H7 H 0.938(2) 0.4044(18) 0.5806(12)
C6 C 0.4445(3) 0.7298(2) 0.41696(16)
H8 H 0.402(2) 0.7190(18) 0.3655(13)
C7 C 0.8082(3) 0.4595(2) 0.11126(15)
H9 H 0.857(3) 0.4416(18) 0.0693(13)
C8 C 1.0100(3) 0.2423(2) 0.56575(14)
H10 H 1.056(2) 0.2154(17) 0.6132(12)
C9 C 0.9231(3) 0.2360(2) 0.44910(15)
H11 H 0.893(3) 0.2154(19) 0.3967(14)
C10 C 0.6142(3) 0.51392(19) 0.17352(13)
H12 H 0.517(2) 0.5342(14) 0.1899(10)
C11 C 0.7230(3) 0.5002(2) 0.46284(13)
H13 H 0.722(2) 0.5064(16) 0.5151(12)
C12 C 0.4948(3) 0.7925(2) 0.52865(17)
H14 H 0.491(3) 0.838(2) 0.5720(14)
C13 C 0.7337(3) 0.4949(2) 0.30598(12)
C14 C 0.8620(3) 0.4540(2) 0.18504(16)
H15 H 0.957(3) 0.4363(19) 0.2088(14)
C15 C 0.5963(3) 0.7082(2) 0.52317(16)
H16 H 0.676(3) 0.677(2) 0.5580(14)
O1B O 0.7099(2) 0.5041(2) -0.06342(12)
H1B H 0.720(3) 0.475(2) -0.0991(14)
H2B H 0.757(3) 0.557(2) -0.0573(15)
N1B N 0.1083(2) 0.66204(15) -0.47367(11)
N2B N 0.6008(2) 0.19340(16) -0.46220(12)
N3B N 0.3479(2) 0.50369(15) -0.10356(10)
N4B N 0.4357(2) 0.33286(15) -0.45100(11)
N5B N 0.2619(2) 0.50998(15) -0.22529(10)
N6B N 0.0063(2) 0.82489(14) -0.50256(11)
C1B C 0.1838(3) 0.5834(2) -0.35044(14)
H5B H 0.123(2) 0.6380(17) -0.3261(12)
C2B C 0.1902(3) 0.57975(18) -0.42875(13)
C3B C 0.3497(3) 0.4220(2) -0.33819(14)
H6B H 0.397(2) 0.3674(17) -0.3083(12)
C4B C 0.3541(3) 0.42040(19) -0.41664(13)
C5B C 0.0529(3) 0.6586(2) -0.54983(14)
H7B H 0.062(2) 0.5956(18) -0.5806(12)
C6B C 0.5555(3) 0.2702(2) -0.41696(16)
H8B H 0.598(2) 0.2810(18) -0.3655(13)
C7B C 0.1918(3) 0.5405(2) -0.11126(15)
H9B H 0.143(3) 0.5584(18) -0.0693(13)
C8B C -0.0100(3) 0.7577(2) -0.56575(14)
H10B H -0.056(2) 0.7846(17) -0.6132(12)
C9B C 0.0769(3) 0.7640(2) -0.44910(15)
H11B H 0.107(3) 0.7846(19) -0.3967(14)
C10B C 0.3858(3) 0.48608(19) -0.17352(13)
H12B H 0.483(2) 0.4658(14) -0.1899(10)
C11B C 0.2770(3) 0.4998(2) -0.46284(13)
H13B H 0.278(2) 0.4936(16) -0.5151(12)
C12B C 0.5052(3) 0.2075(2) -0.52865(17)
H14B H 0.509(3) 0.162(2) -0.5720(14)
C13B C 0.2663(3) 0.5051(2) -0.30598(12)
C14B C 0.1380(3) 0.5460(2) -0.18504(16)
H15B H 0.043(3) 0.5637(19) -0.2088(14)
C15B C 0.4037(3) 0.2918(2) -0.52317(16)
H16B H 0.324(3) 0.323(2) -0.5580(14)
N6A N 0.4937(2) 0.32489(14) 0.00256(11)
N6C N 0.5063(2) 0.67511(14) -0.00256(11)
Zn1A Zn 1.0000 0.0000 0.5000
Zn1A_2 Zn 0.0000 1.0000 -0.5000
O2 O 0.2640(2) 0.59981(16) 0.20421(11)
O3 O 0.3759(2) 0.76277(17) 0.20531(12)
C16 C 0.2621(3) 0.7012(2) 0.21334(14)
C17 C 0.1082(5) 0.7495(4) 0.2383(3)
H17 H 0.139(4) 0.803(3) 0.279(2)
H18 H 0.030(5) 0.697(3) 0.254(2)
H19 H 0.063(5) 0.792(3) 0.205(2)
O4 O 0.2082(3) 0.4781(2) 0.33841(15)
H3 H 0.227(4) 0.513(3) 0.3010(19)
H4 H 0.182(4) 0.413(3) 0.323(2)
loop_
_geom_bond_atom_site_label_1
_geom_bond_atom_site_label_2
_geom_bond_site_symmetry_1
_geom_bond_site_symmetry_2
Zn1 O1 1_555 1_555
O1 H1 1_555 1_555
H2 O1 1_555 1_555
O2 C16 1_555 1_555
O3 C16 1_555 1_555
O4 H3 1_555 1_555
H4 O4 1_555 1_555
N1 C2 1_555 1_555
N2 C6 1_555 1_555
N3 Zn1 1_555 1_555
N4 C4 1_555 1_555
N5 C10 1_555 1_555
N6 C8 1_555 1_555
C1 H5 1_555 1_555
C2 C1 1_555 1_555
C3 H6 1_555 1_555
C4 C3 1_555 1_555
C5 N1 1_555 1_555
H7 C5 1_555 1_555
C6 N4 1_555 1_555
H8 C6 1_555 1_555
C7 N3 1_555 1_555
H9 C7 1_555 1_555
C8 C5 1_555 1_555
H10 C8 1_555 1_555
C9 N1 1_555 1_555
H11 C9 1_555 1_555
C10 N3 1_555 1_555
H12 C10 1_555 1_555
C11 C2 1_555 1_555
H13 C11 1_555 1_555
C12 N2 1_555 1_555
H14 C12 1_555 1_555
C13 N5 1_555 1_555
C14 N5 1_555 1_555
H15 C14 1_555 1_555
C15 N4 1_555 1_555
H16 C15 1_555 1_555
C16 C17 1_555 1_555
C17 H17 1_555 1_555
H18 C17 1_555 1_555
H19 C17 1_555 1_555
O1B Zn1 1_555 1_555
H1B O1B 1_555 1_555
H2B O1B 1_555 1_555
N1B C2B 1_555 1_555
N2B C6B 1_555 1_555
N3B Zn1 1_555 1_555
N4B C4B 1_555 1_555
N5B C10B 1_555 1_555
N6B C8B 1_555 1_555
C1B H5B 1_555 1_555
C2B C1B 1_555 1_555
C3B H6B 1_555 1_555
C4B C3B 1_555 1_555
C5B N1B 1_555 1_555
H7B C5B 1_555 1_555
C6B N4B 1_555 1_555
H8B C6B 1_555 1_555
C7B N3B 1_555 1_555
H9B C7B 1_555 1_555
C8B C5B 1_555 1_555
H10B C8B 1_555 1_555
C9B N1B 1_555 1_555
H11B C9B 1_555 1_555
C10B N3B 1_555 1_555
H12B C10B 1_555 1_555
C11B C2B 1_555 1_555
H13B C11B 1_555 1_555
C12B N2B 1_555 1_555
H14B C12B 1_555 1_555
C13B N5B 1_555 1_555
C14B N5B 1_555 1_555
H15B C14B 1_555 1_555
C15B N4B 1_555 1_555
H16B C15B 1_555 1_555
N6A Zn1 1_555 1_555
N6C Zn1 1_555 1_555
Zn1A N6 1_555 1_555
Zn1A_2 N6B 1_555 1_555
N6 C9 1_555 1_555
C1 C13 1_555 1_555
C3 C13 1_555 1_555
C4 C11 1_555 1_555
C7 C14 1_555 1_555
C12 C15 1_555 1_555
N6B C9B 1_555 1_555
C1B C13B 1_555 1_555
C3B C13B 1_555 1_555
C4B C11B 1_555 1_555
C7B C14B 1_555 1_555
C12B C15B 1_555 1_555

#END
