
#######################################################################
#
#                 Cambridge Crystallographic Data Centre
#                                CCDC 
#
#######################################################################
#
# If this CIF has been generated from an entry in the Cambridge 
# Structural Database, then it will include bibliographic, chemical, 
# crystal, experimental, refinement or atomic coordinate data resulting 
# from the CCDC's data processing and validation procedures.
#
#######################################################################

data_EKALIL
_symmetry_cell_setting           monoclinic
_symmetry_space_group_name_H-M   'P 21/c'
_symmetry_Int_Tables_number      14
_space_group_name_Hall           '-P 2ybc'
loop_
_symmetry_equiv_pos_site_id
_symmetry_equiv_pos_as_xyz
1 x,y,z
2 x,1/2-y,1/2+z
3 -x,-y,-z
4 -x,1/2+y,1/2-z
_cell_length_a                   8.043(1)
_cell_length_b                   18.949(3)
_cell_length_c                   11.048(1)
_cell_angle_alpha                90
_cell_angle_beta                 110.109(4)
_cell_angle_gamma                90
_cell_volume                     1581.15
loop_
_atom_site_label
_atom_site_type_symbol
_atom_site_fract_x
_atom_site_fract_y
_atom_site_fract_z
Cu1 Cu 0.37312(6) 0.55310(2) 0.47508(4)
Cu2 Cu 0.15523(5) 0.48798(3) 0.59145(4)
S1 S 0.07655(10) 0.58195(5) 0.41358(8)
S2 S 0.44775(10) 0.45493(4) 0.64325(8)
N1 N 0.4214(3) 0.64403(14) 0.5849(2)
N2 N 0.2346(3) 0.54604(13) 0.7576(3)
C1 C 0.1029(4) 0.65543(17) 0.5172(3)
C2 C -0.0407(5) 0.6908(2) 0.5275(4)
H1 H -0.1545 0.6768 0.4777
C3 C -0.0171(6) 0.7484(2) 0.6133(5)
H2 H -0.1168 0.7716 0.6175
C4 C 0.1436(7) 0.7708(2) 0.6889(4)
H3 H 0.1544 0.8086 0.7447
C5 C 0.2968(5) 0.73594(18) 0.6826(3)
C6 C 0.4705(6) 0.7542(2) 0.7605(3)
H4 H 0.4884 0.7902 0.8208
C7 C 0.6108(6) 0.7201(2) 0.7488(4)
H5 H 0.7253 0.7327 0.7994
C8 C 0.5810(5) 0.66478(19) 0.6586(3)
H6 H 0.6787 0.6417 0.6504
C9 C 0.2762(4) 0.67866(16) 0.5950(3)
C10 C 0.5313(4) 0.50870(17) 0.7820(3)
C11 C 0.7112(4) 0.5125(2) 0.8510(3)
H7 H 0.7903 0.4881 0.8216
C12 C 0.7757(5) 0.5525(2) 0.9645(4)
H8 H 0.8969 0.5541 1.0094
C13 C 0.6649(6) 0.5890(2) 1.0099(4)
H9 H 0.7100 0.6143 1.0863
C14 C 0.4804(5) 0.58852(18) 0.9411(3)
C15 C 0.3590(6) 0.6278(2) 0.9812(4)
H10 H 0.3987 0.6551 1.0557
C16 C 0.1833(6) 0.6252(2) 0.9096(4)
H11 H 0.1020 0.6510 0.9344
C17 C 0.1268(5) 0.58378(19) 0.7993(3)
H12 H 0.0063 0.5825 0.7520
C18 C 0.4127(4) 0.54787(15) 0.8269(3)
Cu1B Cu 0.62688(6) 0.44690(2) 0.52492(4)
S2B S 0.55225(10) 0.54507(4) 0.35675(8)
Cu2B Cu -0.15523(5) 0.51202(3) 0.40855(4)
S1B S -0.07655(10) 0.41805(5) 0.58642(8)
loop_
_geom_bond_atom_site_label_1
_geom_bond_atom_site_label_2
_geom_bond_site_symmetry_1
_geom_bond_site_symmetry_2
Cu1 Cu2 1_555 1_555
Cu2 S1 1_555 1_555
S1 Cu1 1_555 1_555
S2 Cu1 1_555 1_555
N1 Cu1 1_555 1_555
N2 Cu2 1_555 1_555
C1 S1 1_555 1_555
C2 C1 1_555 1_555
H1 C2 1_555 1_555
C3 C2 1_555 1_555
H2 C3 1_555 1_555
C4 C3 1_555 1_555
H3 C4 1_555 1_555
C5 C4 1_555 1_555
C6 C5 1_555 1_555
H4 C6 1_555 1_555
C7 C6 1_555 1_555
H5 C7 1_555 1_555
C8 N1 1_555 1_555
H6 C8 1_555 1_555
C9 N1 1_555 1_555
C10 S2 1_555 1_555
C11 C10 1_555 1_555
H7 C11 1_555 1_555
C12 C11 1_555 1_555
H8 C12 1_555 1_555
C13 C12 1_555 1_555
H9 C13 1_555 1_555
C14 C13 1_555 1_555
C15 C14 1_555 1_555
H10 C15 1_555 1_555
C16 C15 1_555 1_555
H11 C16 1_555 1_555
C17 N2 1_555 1_555
H12 C17 1_555 1_555
C18 N2 1_555 1_555
Cu1B Cu1 1_555 1_555
S2B Cu1 1_555 1_555
Cu2B Cu2 1_555 1_555
S1B Cu2 1_555 1_555
Cu2 S2 1_555 1_555
S1 Cu2B 1_555 1_555
S2 Cu1B 1_555 1_555
C1 C9 1_555 1_555
C5 C9 1_555 1_555
C7 C8 1_555 1_555
C10 C18 1_555 1_555
C14 C18 1_555 1_555
C16 C17 1_555 1_555
Cu1B S2B 1_555 1_555
Cu2B S1B 1_555 1_555

#END
