
#######################################################################
#
#                 Cambridge Crystallographic Data Centre
#                                CCDC 
#
#######################################################################
#
# If this CIF has been generated from an entry in the Cambridge 
# Structural Database, then it will include bibliographic, chemical, 
# crystal, experimental, refinement or atomic coordinate data resulting 
# from the CCDC's data processing and validation procedures.
#
#######################################################################

data_EKANIO
_symmetry_cell_setting           triclinic
_symmetry_space_group_name_H-M   'P -1'
_symmetry_Int_Tables_number      2
_space_group_name_Hall           '-P 1'
loop_
_symmetry_equiv_pos_site_id
_symmetry_equiv_pos_as_xyz
1 x,y,z
2 -x,-y,-z
_cell_length_a                   9.783(1)
_cell_length_b                   10.472(1)
_cell_length_c                   11.413(1)
_cell_angle_alpha                115.656(2)
_cell_angle_beta                 95.560(1)
_cell_angle_gamma                104.489(1)
_cell_volume                     991.828
loop_
_atom_site_label
_atom_site_type_symbol
_atom_site_fract_x
_atom_site_fract_y
_atom_site_fract_z
Cu1 Cu 0.51262(3) 0.53821(3) -0.34116(3)
O1 O 0.62276(18) 0.45083(19) -0.46873(17)
N1 N 0.3677(2) 0.3482(2) -0.36423(19)
N2 N 0.3737(2) 0.6274(2) -0.24386(19)
O2 O 1.32722(19) 0.2725(2) -0.73977(18)
C1 C 0.8598(2) 0.4395(3) -0.4900(2)
C2 C 0.0214(3) 0.4479(3) -0.1925(2)
N3 N -0.0859(2) 0.4857(3) -0.1402(2)
N4 N -0.0910(2) 0.1845(2) -0.2677(2)
C3 C 0.2547(2) 0.3730(3) -0.3083(2)
O3 O 0.6774(2) 0.2505(3) -0.4814(3)
C4 C -0.2029(3) 0.2216(3) -0.2172(3)
C5 C 1.0730(3) 0.0723(3) -1.0631(3)
H1 H 1.1219 0.1212 -1.1057
O4 O 1.3398(2) 0.2933(3) -0.9237(2)
C6 C 1.2781(3) 0.2351(3) -0.8617(3)
C7 C 1.1338(2) 0.1120(3) -0.9329(2)
C8 C 0.7092(3) 0.3730(3) -0.4780(2)
C9 C 0.9401(3) -0.0393(3) -1.1309(2)
H2 H 1.0996 0.0657 -0.7812
C10 C 0.2569(2) 0.5274(3) -0.2439(2)
C11 C 0.0198(3) 0.2964(3) -0.2556(2)
C12 C 0.3724(3) 0.2085(3) -0.4218(3)
H3 H 0.4492 0.1900 -0.4609
C13 C 0.1508(3) 0.1142(3) -0.3709(3)
H4 H 0.0787 0.0352 -0.3735
C14 C 0.9175(3) 0.5926(3) -0.4475(2)
H5 H 0.8628 0.6550 -0.4120
C15 C 0.1420(3) 0.2597(3) -0.3113(2)
C16 C -0.3282(3) 0.1056(4) -0.2326(3)
H6 H -0.3325 0.0058 -0.2760
C17 C -0.1997(3) 0.3731(3) -0.1520(3)
C18 C 0.9433(3) 0.3480(3) -0.5418(2)
H7 H 0.9056 0.2460 -0.5696
C19 C 0.1571(3) 0.7179(3) -0.1244(3)
H8 H 0.0851 0.7495 -0.0840
C20 C 0.2666(3) 0.0898(3) -0.4251(3)
H9 H 0.2742 -0.0058 -0.4640
C21 C 0.2769(3) 0.8199(3) -0.1243(3)
H10 H 0.2866 0.9212 -0.0839
C22 C 0.1445(3) 0.5658(3) -0.1861(2)
C23 C 0.3827(3) 0.7711(3) -0.1845(3)
H11 H 0.4634 0.8413 -0.1836
C24 C -0.3189(3) 0.4064(4) -0.0991(3)
H12 H -0.3168 0.5053 -0.0536
C25 C -0.4410(3) 0.1437(4) -0.1828(3)
H13 H -0.5237 0.0684 -0.1942
C26 C -0.4362(3) 0.2937(4) -0.1148(4)
H14 H -0.5144 0.3160 -0.0800
Cu1A Cu 1.48738(3) 0.46179(3) -0.65884(3)
Cu1_2 Cu 0.51262(3) -0.46179(3) -1.34116(3)
O1A O 1.37724(18) 0.54917(19) -0.53127(17)
N1A N 1.6323(2) 0.6518(2) -0.63577(19)
N2A N 1.6263(2) 0.3726(2) -0.75614(19)
O2A O 0.67278(19) 0.7275(2) -0.26023(18)
O2A_2 O 0.67278(19) -0.2725(2) -1.26023(18)
C1A C 1.1402(2) 0.5605(3) -0.5100(2)
C2A C 1.9786(3) 0.5521(3) -0.8075(2)
N3A N 2.0859(2) 0.5143(3) -0.8598(2)
N4A N 2.0910(2) 0.8155(2) -0.7323(2)
C3A C 1.7453(2) 0.6270(3) -0.6917(2)
O3A O 1.3226(2) 0.7495(3) -0.5186(3)
C4A C 2.2029(3) 0.7784(3) -0.7828(3)
C5A C 0.9270(3) -0.0723(3) -0.9369(3)
H1A H 0.8781 -0.1212 -0.8943
O4A O 0.6602(2) -0.2933(3) -1.0763(2)
C6A C 0.7219(3) -0.2351(3) -1.1383(3)
C7A C 0.8662(2) -0.1120(3) -1.0671(2)
C8A C 1.2908(3) 0.6270(3) -0.5220(2)
C9A C 1.0599(3) 0.0393(3) -0.8691(2)
H2A H 0.9004 -0.0657 -1.2188
C10A C 1.7431(2) 0.4726(3) -0.7561(2)
C11A C 1.9802(3) 0.7036(3) -0.7444(2)
C12A C 1.6276(3) 0.7915(3) -0.5782(3)
H3A H 1.5508 0.8100 -0.5391
C13A C 1.8492(3) 0.8858(3) -0.6291(3)
H4A H 1.9213 0.9648 -0.6265
C14A C 1.0825(3) 0.4074(3) -0.5525(2)
H5A H 1.1372 0.3450 -0.5880
C15A C 1.8580(3) 0.7403(3) -0.6887(2)
C16A C 2.3282(3) 0.8944(4) -0.7674(3)
H6A H 2.3325 0.9942 -0.7240
C17A C 2.1997(3) 0.6269(3) -0.8480(3)
C18A C 1.0567(3) 0.6520(3) -0.4582(2)
H7A H 1.0944 0.7540 -0.4304
C19A C 1.8429(3) 0.2821(3) -0.8756(3)
H8A H 1.9149 0.2505 -0.9160
C20A C 1.7334(3) 0.9102(3) -0.5749(3)
H9A H 1.7258 1.0058 -0.5360
C21A C 1.7231(3) 0.1801(3) -0.8757(3)
H10A H 1.7134 0.0788 -0.9161
C22A C 1.8555(3) 0.4342(3) -0.8139(2)
C23A C 1.6173(3) 0.2289(3) -0.8155(3)
H11A H 1.5366 0.1587 -0.8164
C24A C 2.3189(3) 0.5936(4) -0.9009(3)
H12A H 2.3168 0.4947 -0.9464
C25A C 2.4410(3) 0.8563(4) -0.8172(3)
H13A H 2.5237 0.9316 -0.8058
C26A C 2.4362(3) 0.7063(4) -0.8852(4)
H14A H 2.5144 0.6840 -0.9200
loop_
_geom_bond_atom_site_label_1
_geom_bond_atom_site_label_2
_geom_bond_site_symmetry_1
_geom_bond_site_symmetry_2
Cu1 O1 1_555 1_555
O1 C8 1_555 1_555
N1 Cu1 1_555 1_555
N2 Cu1 1_555 1_555
O2 C6 1_555 1_555
C1 C8 1_555 1_555
C2 N3 1_555 1_555
N3 C17 1_555 1_555
N4 C4 1_555 1_555
C3 N1 1_555 1_555
O3 C8 1_555 1_555
C4 C16 1_555 1_555
C5 H1 1_555 1_555
O4 C6 1_555 1_555
C6 C7 1_555 1_555
C7 C5 1_555 1_555
C9 C5 1_555 1_555
H2 C9A 1_555 1_555
C10 N2 1_555 1_555
C11 C2 1_555 1_555
C12 N1 1_555 1_555
H3 C12 1_555 1_555
C13 H4 1_555 1_555
C14 C1 1_555 1_555
H5 C14 1_555 1_555
C15 C3 1_555 1_555
C16 H6 1_555 1_555
C17 C4 1_555 1_555
C18 C1 1_555 1_555
H7 C18 1_555 1_555
C19 H8 1_555 1_555
C20 C12 1_555 1_555
H9 C20 1_555 1_555
C21 C19 1_555 1_555
H10 C21 1_555 1_555
C22 C2 1_555 1_555
C23 N2 1_555 1_555
H11 C23 1_555 1_555
C24 C17 1_555 1_555
H12 C24 1_555 1_555
C25 C16 1_555 1_555
H13 C25 1_555 1_555
C26 C24 1_555 1_555
H14 C26 1_555 1_555
Cu1A O2 1_555 1_555
Cu1_2 O2A_2 1_555 1_555
O1A Cu1A 1_555 1_555
N1A Cu1A 1_555 1_555
N2A Cu1A 1_555 1_555
O2A Cu1 1_555 1_555
O2A_2 C6A 1_555 1_555
C1A C8A 1_555 1_555
C2A N3A 1_555 1_555
N3A C17A 1_555 1_555
N4A C4A 1_555 1_555
C3A N1A 1_555 1_555
O3A C8A 1_555 1_555
C4A C16A 1_555 1_555
C5A H1A 1_555 1_555
O4A C6A 1_555 1_555
C6A C7A 1_555 1_555
C7A C9 1_555 1_555
C8A O1A 1_555 1_555
C9A C7 1_555 1_555
H2A C9 1_555 1_555
C10A N2A 1_555 1_555
C11A C2A 1_555 1_555
C12A N1A 1_555 1_555
H3A C12A 1_555 1_555
C13A H4A 1_555 1_555
C14A C18 1_555 1_555
H5A C14A 1_555 1_555
C15A C3A 1_555 1_555
C16A H6A 1_555 1_555
C17A C4A 1_555 1_555
C18A C14 1_555 1_555
H7A C18A 1_555 1_555
C19A H8A 1_555 1_555
C20A C12A 1_555 1_555
H9A C20A 1_555 1_555
C21A C19A 1_555 1_555
H10A C21A 1_555 1_555
C22A C2A 1_555 1_555
C23A N2A 1_555 1_555
H11A C23A 1_555 1_555
C24A C17A 1_555 1_555
H12A C24A 1_555 1_555
C25A C16A 1_555 1_555
H13A C25A 1_555 1_555
C26A C24A 1_555 1_555
H14A C26A 1_555 1_555
N4 C11 1_555 1_555
C3 C10 1_555 1_555
C10 C22 1_555 1_555
C11 C15 1_555 1_555
C13 C15 1_555 1_555
C13 C20 1_555 1_555
C19 C22 1_555 1_555
C21 C23 1_555 1_555
C25 C26 1_555 1_555
C1A C14A 1_555 1_555
C1A C18A 1_555 1_555
N4A C11A 1_555 1_555
C3A C10A 1_555 1_555
C5A C7A 1_555 1_555
C5A C9A 1_555 1_555
C10A C22A 1_555 1_555
C11A C15A 1_555 1_555
C13A C15A 1_555 1_555
C13A C20A 1_555 1_555
C19A C22A 1_555 1_555
C21A C23A 1_555 1_555
C25A C26A 1_555 1_555

#END
