
#######################################################################
#
#                 Cambridge Crystallographic Data Centre
#                                CCDC 
#
#######################################################################
#
# If this CIF has been generated from an entry in the Cambridge 
# Structural Database, then it will include bibliographic, chemical, 
# crystal, experimental, refinement or atomic coordinate data resulting 
# from the CCDC's data processing and validation procedures.
#
#######################################################################

data_EKAQIR
_symmetry_cell_setting           monoclinic
_symmetry_space_group_name_H-M   'P 21/c'
_symmetry_Int_Tables_number      14
_space_group_name_Hall           '-P 2ybc'
loop_
_symmetry_equiv_pos_site_id
_symmetry_equiv_pos_as_xyz
1 x,y,z
2 -x,1/2+y,1/2-z
3 -x,-y,-z
4 x,1/2-y,1/2+z
_cell_length_a                   8.8893(14)
_cell_length_b                   16.853(3)
_cell_length_c                   15.393(2)
_cell_angle_alpha                90
_cell_angle_beta                 101.108(3)
_cell_angle_gamma                90
_cell_volume                     2262.84
loop_
_atom_site_label
_atom_site_type_symbol
_atom_site_fract_x
_atom_site_fract_y
_atom_site_fract_z
Nd1 Nd -0.13650(3) 0.088121(15) -0.077503(17)
Nd2 Nd -0.35017(3) 0.347680(15) -0.371980(17)
N1 N -0.4025(6) 0.4350(3) -0.0415(3)
N2 N -0.3834(5) 0.3939(2) -0.2132(3)
N3 N -0.3922(4) -0.2250(2) -0.1494(3)
N4 N -0.1208(5) -0.2856(2) -0.1873(3)
N5 N 0.1237(4) 0.1698(2) -0.0806(3)
N6 N 0.3924(5) 0.2390(3) -0.1110(3)
O1 O -0.2871(4) 0.25142(19) -0.2512(2)
O2 O -0.2030(4) 0.22405(19) -0.1079(2)
O3 O -0.1380(5) 0.3392(3) 0.0598(3)
O4 O -0.3554(4) 0.2720(2) 0.0511(2)
O5 O -0.4108(4) -0.0754(2) -0.1005(2)
O6 O -0.1876(4) -0.04493(19) -0.1371(2)
O7 O 0.0870(4) -0.15450(19) -0.0688(2)
O8 O 0.0727(4) -0.1434(2) -0.2126(2)
O9 O 0.1129(4) 0.01469(19) -0.0489(2)
O10 O 0.2982(4) -0.00609(19) -0.1273(2)
O11 O 0.5767(4) 0.10118(19) -0.1709(2)
O12 O 0.6140(3) 0.10510(19) -0.0251(2)
O13 O -0.0975(4) 0.0960(2) -0.2310(2)
C1 C -0.2682(7) 0.3213(3) 0.0234(3)
C2 C -0.3367(6) 0.3668(3) -0.0595(3)
C3 C -0.3294(5) 0.3453(3) -0.1449(3)
C4 C -0.2691(5) 0.2675(3) -0.1709(3)
C5 C -0.4477(6) 0.4625(3) -0.1963(3)
H1 H -0.4851 0.4973 -0.2423
C6 C -0.4584(8) 0.4814(3) -0.1110(4)
H2 H -0.5067 0.5285 -0.1010
C7 C 0.0164(5) -0.1639(3) -0.1478(3)
C8 C -0.1317(5) -0.2097(3) -0.1624(3)
C9 C -0.2435(6) -0.3303(3) -0.1895(3)
H3 H -0.2394 -0.3834 -0.2053
C10 C -0.3789(6) -0.3008(3) -0.1689(3)
H4 H -0.4612 -0.3349 -0.1688
C11 C -0.2674(5) -0.1789(3) -0.1462(3)
C12 C -0.2906(5) -0.0927(3) -0.1262(3)
C13 C 0.2185(5) 0.0376(3) -0.0896(3)
C14 C 0.2432(5) 0.1254(3) -0.0915(3)
C15 C 0.1382(6) 0.2479(3) -0.0841(4)
H5 H 0.0579 0.2802 -0.0748
C16 C 0.2704(6) 0.2821(3) -0.1012(4)
H6 H 0.2749 0.3370 -0.1061
C17 C 0.3795(5) 0.1603(3) -0.1033(3)
C18 C 0.5313(5) 0.1169(3) -0.1021(3)
Nd1B Nd 0.13650(3) -0.088121(15) 0.077503(17)
Nd1_2 Nd 0.86350(3) 0.088121(15) -0.077503(17)
Nd2A Nd -0.64983(3) -0.152320(15) -0.128020(17)
Nd2C Nd -0.35017(3) 0.152320(15) 0.128020(17)
Nd2A_2 Nd 0.35017(3) -0.152320(15) -0.128020(17)
Nd2C_2 Nd 0.64983(3) 0.152320(15) 0.128020(17)
N3A N -0.6078(4) 0.2750(2) -0.3506(3)
O4C O -0.3554(4) 0.2280(2) -0.4489(2)
O5A O -0.5892(4) 0.4246(2) -0.3995(2)
O7B O -0.0870(4) 0.15450(19) 0.0688(2)
O7A O -0.0870(4) 0.34550(19) -0.4312(2)
O8A O -0.0727(4) 0.3566(2) -0.2874(2)
O9B O -0.1129(4) -0.01469(19) 0.0489(2)
O10A O -0.2982(4) 0.49391(19) -0.3727(2)
O11_2 O -0.4233(4) 0.10118(19) -0.1709(2)
O12_2 O -0.3860(3) 0.10510(19) -0.0251(2)
O12C O -0.3860(3) 0.39490(19) -0.5251(2)
O14 O 0.0802(9) 0.4235(4) 0.0025(5)
O15 O 0.9649(14) 0.9769(4) 0.6680(5)
loop_
_geom_bond_atom_site_label_1
_geom_bond_atom_site_label_2
_geom_bond_site_symmetry_1
_geom_bond_site_symmetry_2
Nd1 N5 1_555 1_555
Nd2 N2 1_555 1_555
N1 C2 1_555 1_555
N2 C3 1_555 1_555
N3 C10 1_555 1_555
N4 C8 1_555 1_555
N5 C14 1_555 1_555
N6 C16 1_555 1_555
O1 Nd2 1_555 1_555
O2 Nd1 1_555 1_555
O3 C1 1_555 1_555
O4 C1 1_555 1_555
O5 C12 1_555 1_555
O6 Nd1 1_555 1_555
O7 C7 1_555 1_555
O8 C7 1_555 1_555
O9 Nd1 1_555 1_555
O10 C13 1_555 1_555
O11 C18 1_555 1_555
O12 C18 1_555 1_555
O13 Nd1 1_555 1_555
C1 C2 1_555 1_555
C2 C3 1_555 1_555
C3 C4 1_555 1_555
C4 O1 1_555 1_555
C5 N2 1_555 1_555
H1 C5 1_555 1_555
C6 N1 1_555 1_555
H2 C6 1_555 1_555
C7 C8 1_555 1_555
C8 C11 1_555 1_555
C9 N4 1_555 1_555
H3 C9 1_555 1_555
C10 C9 1_555 1_555
H4 C10 1_555 1_555
C11 N3 1_555 1_555
C12 O6 1_555 1_555
C13 O9 1_555 1_555
C14 C13 1_555 1_555
C15 N5 1_555 1_555
H5 C15 1_555 1_555
C16 C15 1_555 1_555
H6 C16 1_555 1_555
C17 N6 1_555 1_555
C18 C17 1_555 1_555
Nd1B O7 1_555 1_555
Nd1_2 O11 1_555 1_555
Nd2A N3 1_555 1_555
Nd2C O4 1_555 1_555
Nd2A_2 O7 1_555 1_555
Nd2C_2 O12 1_555 1_555
N3A Nd2 1_555 1_555
O4C Nd2 1_555 1_555
O5A Nd2 1_555 1_555
O7B Nd1 1_555 1_555
O7A Nd2 1_555 1_555
O8A Nd2 1_555 1_555
O9B Nd1 1_555 1_555
O10A Nd2 1_555 1_555
O11_2 Nd1 1_555 1_555
O12_2 Nd1 1_555 1_555
O12C Nd2 1_555 1_555
O2 C4 1_555 1_555
O5 Nd2A 1_555 1_555
O8 Nd2A_2 1_555 1_555
O9 Nd1B 1_555 1_555
O10 Nd2A_2 1_555 1_555
O12 Nd1_2 1_555 1_555
C5 C6 1_555 1_555
C11 C12 1_555 1_555
C14 C17 1_555 1_555
Nd1B O9B 1_555 1_555
Nd2C O7B 1_555 1_555
Nd2C O12_2 1_555 1_555

#END
