
#######################################################################
#
#                 Cambridge Crystallographic Data Centre
#                                CCDC 
#
#######################################################################
#
# If this CIF has been generated from an entry in the Cambridge 
# Structural Database, then it will include bibliographic, chemical, 
# crystal, experimental, refinement or atomic coordinate data resulting 
# from the CCDC's data processing and validation procedures.
#
#######################################################################

data_EKAQOW
_symmetry_cell_setting           monoclinic
_symmetry_space_group_name_H-M   'P 21/c'
_symmetry_Int_Tables_number      14
_space_group_name_Hall           '-P 2ybc'
loop_
_symmetry_equiv_pos_site_id
_symmetry_equiv_pos_as_xyz
1 x,y,z
2 x,1/2-y,1/2+z
3 -x,-y,-z
4 -x,1/2+y,1/2-z
_cell_length_a                   10.175(3)
_cell_length_b                   7.352(4)
_cell_length_c                   12.757(1)
_cell_angle_alpha                90
_cell_angle_beta                 105.206(2)
_cell_angle_gamma                90
_cell_volume                     920.897
loop_
_atom_site_label
_atom_site_type_symbol
_atom_site_fract_x
_atom_site_fract_y
_atom_site_fract_z
Cu1 Cu 0.48831(6) 0.08346(8) 0.37535(5)
O1 O 0.4728(4) -0.1400(5) 0.2944(3)
O2 O 0.3532(4) 0.0050(5) 0.4457(3)
O3 O 0.3625(4) -0.3602(5) 0.1903(3)
O4 O 0.2897(6) 0.2060(9) 0.2180(5)
N1 N 0.4947(4) 0.3341(6) 0.4465(3)
C1 C 0.2543(5) -0.1116(6) 0.4036(4)
C2 C 0.1453(5) -0.1245(8) 0.4511(4)
C3 C 0.0425(6) -0.2481(9) 0.4166(5)
C4 C 0.0416(7) -0.363(1) 0.3301(6)
C5 C 0.1447(5) -0.3537(8) 0.2797(5)
C6 C 0.2541(5) -0.2319(7) 0.3156(4)
C7 C 0.3693(5) -0.2431(7) 0.2645(4)
C8 C 0.3939(5) 0.3891(7) 0.4888(4)
C9 C 0.6011(5) 0.4479(7) 0.4583(4)
H1 H 0.157(6) -0.051(8) 0.514(5)
H2 H -0.033(5) -0.251(8) 0.455(4)
H3 H -0.014(7) -0.421(9) 0.307(5)
H4 H 0.138(6) -0.427(8) 0.203(5)
H5 H 0.312(6) 0.314(8) 0.482(4)
H6 H 0.677(6) 0.407(8) 0.439(5)
H7 H 0.2131 0.2531 0.2699
H8 H 0.2439 0.3421 0.1545
C9B C 0.3989(5) 0.5521(7) 0.5417(4)
N1B N 0.5053(4) 0.6659(6) 0.5535(3)
C8B C 0.6061(5) 0.6109(7) 0.5112(4)
H5B H 0.688(6) 0.686(8) 0.518(4)
H6B H 0.323(6) 0.593(8) 0.561(5)
O1B O 0.5272(4) 0.1400(5) 0.7056(3)
O2B O 0.6468(4) -0.0050(5) 0.5543(3)
O3B O 0.6375(4) 0.3602(5) 0.8097(3)
C1B C 0.7457(5) 0.1116(6) 0.5964(4)
C2B C 0.8547(5) 0.1245(8) 0.5489(4)
C3B C 0.9575(6) 0.2481(9) 0.5834(5)
C4B C 0.9584(7) 0.363(1) 0.6699(6)
C5B C 0.8553(5) 0.3537(8) 0.7203(5)
C6B C 0.7459(5) 0.2319(7) 0.6844(4)
C7B C 0.6307(5) 0.2431(7) 0.7355(4)
H1B H 0.843(6) 0.051(8) 0.486(5)
H2B H 1.033(5) 0.251(8) 0.545(4)
H3B H 1.014(7) 0.421(9) 0.693(5)
H4B H 0.862(6) 0.427(8) 0.797(5)
Cu1B Cu 0.51169(6) -0.08346(8) 0.62465(5)
O4B O 0.7103(6) -0.2060(9) 0.7820(5)
H7B H 0.7869 -0.2531 0.7301
H8B H 0.7561 -0.3421 0.8455
O3C O 0.6375(4) 0.1398(5) 0.3097(3)
Cu1C Cu 0.51169(6) -0.41654(8) 0.12465(5)
Cu1B_2 Cu 0.51169(6) 0.91654(8) 0.62465(5)
Cu1A Cu 0.48831(6) 0.41654(8) 0.87535(5)
O3A O 0.3625(4) -0.1398(5) 0.6903(3)
N1B_2 N 0.5053(4) -0.3341(6) 0.5535(3)
loop_
_geom_bond_atom_site_label_1
_geom_bond_atom_site_label_2
_geom_bond_site_symmetry_1
_geom_bond_site_symmetry_2
Cu1 O1 1_555 1_555
O1 C7 1_555 1_555
O2 Cu1 1_555 1_555
O3 C7 1_555 1_555
O4 Cu1 1_555 1_555
N1 Cu1 1_555 1_555
C1 O2 1_555 1_555
C2 C1 1_555 1_555
C3 C2 1_555 1_555
C4 C3 1_555 1_555
C5 C4 1_555 1_555
C6 C1 1_555 1_555
C7 C6 1_555 1_555
C8 N1 1_555 1_555
C9 N1 1_555 1_555
H1 C2 1_555 1_555
H2 C3 1_555 1_555
H3 C4 1_555 1_555
H4 C5 1_555 1_555
H5 C8 1_555 1_555
H6 C9 1_555 1_555
H7 O4 1_555 1_555
H8 O4 1_555 1_555
C9B C8 1_555 1_555
N1B C9B 1_555 1_555
C8B C9 1_555 1_555
H5B C8B 1_555 1_555
H6B C9B 1_555 1_555
O1B C7B 1_555 1_555
O2B Cu1 1_555 1_555
O3B C7B 1_555 1_555
C1B O2B 1_555 1_555
C2B C1B 1_555 1_555
C3B C2B 1_555 1_555
C4B C3B 1_555 1_555
C5B C4B 1_555 1_555
C6B C1B 1_555 1_555
C7B C6B 1_555 1_555
H1B C2B 1_555 1_555
H2B C3B 1_555 1_555
H3B C4B 1_555 1_555
H4B C5B 1_555 1_555
Cu1B O2 1_555 1_555
O4B Cu1B 1_555 1_555
H7B O4B 1_555 1_555
H8B O4B 1_555 1_555
O3C Cu1 1_555 1_555
Cu1C O3 1_555 1_555
Cu1B_2 N1B 1_555 1_555
Cu1A O3B 1_555 1_555
O3A Cu1B 1_555 1_555
N1B_2 Cu1B 1_555 1_555
C5 C6 1_555 1_555
N1B C8B 1_555 1_555
O1B Cu1B 1_555 1_555
O2B Cu1B 1_555 1_555
C5B C6B 1_555 1_555

#END
