
#######################################################################
#
#                 Cambridge Crystallographic Data Centre
#                                CCDC 
#
#######################################################################
#
# If this CIF has been generated from an entry in the Cambridge 
# Structural Database, then it will include bibliographic, chemical, 
# crystal, experimental, refinement or atomic coordinate data resulting 
# from the CCDC's data processing and validation procedures.
#
#######################################################################

data_EKARUE
_symmetry_cell_setting           triclinic
_symmetry_space_group_name_H-M   'P -1'
_symmetry_Int_Tables_number      2
_space_group_name_Hall           '-P 1'
loop_
_symmetry_equiv_pos_site_id
_symmetry_equiv_pos_as_xyz
1 x,y,z
2 -x,-y,-z
_cell_length_a                   11.0817(13)
_cell_length_b                   13.2573(15)
_cell_length_c                   21.725(3)
_cell_angle_alpha                82.840(2)
_cell_angle_beta                 77.263(2)
_cell_angle_gamma                71.660(2)
_cell_volume                     2949.76
loop_
_atom_site_label
_atom_site_type_symbol
_atom_site_fract_x
_atom_site_fract_y
_atom_site_fract_z
Cu1 Cu 0.76379(7) 0.44734(6) 0.25082(4)
Cu2 Cu 1.74533(7) -0.06157(6) 0.21016(4)
Cu3 Cu 1.53915(8) 0.79318(7) -0.02542(4)
Cu4 Cu -0.06337(7) 0.20887(7) 0.55583(4)
C1 C 1.0468(6) 0.4041(5) 0.2343(3)
H1 H 1.0332 0.4624 0.2052
C2 C 1.1730(6) 0.3485(5) 0.2397(3)
C3 C 1.1940(6) 0.2619(5) 0.2838(3)
H2 H 1.2777 0.2221 0.2882
C4 C 1.0891(6) 0.2368(6) 0.3203(3)
H3 H 1.1000 0.1811 0.3512
C5 C 0.9664(6) 0.2950(6) 0.3108(3)
H4 H 0.8961 0.2754 0.3350
C6 C 1.2800(6) 0.3797(5) 0.1971(3)
C7 C 1.3498(6) 0.4972(5) 0.1241(3)
C8 C 1.4896(6) 0.3397(5) 0.1488(3)
C9 C 1.6166(6) 0.2596(5) 0.1359(3)
C10 C 1.6261(6) 0.1582(5) 0.1650(3)
H5 H 1.5539 0.1474 0.1929
C11 C 1.8365(6) 0.0930(6) 0.1134(3)
H6 H 1.9108 0.0360 0.1039
C12 C 1.8351(7) 0.1924(6) 0.0845(4)
H7 H 1.9090 0.2022 0.0576
C13 C 1.7245(6) 0.2763(6) 0.0957(4)
H8 H 1.7223 0.3434 0.0765
C14 C 1.3200(6) 0.6050(5) 0.0930(3)
C15 C 1.4169(6) 0.6431(5) 0.0554(3)
H9 H 1.4997 0.5959 0.0454
C16 C 1.2743(7) 0.8104(6) 0.0471(4)
H10 H 1.2578 0.8810 0.0314
C17 C 1.1737(7) 0.7779(6) 0.0837(4)
H11 H 1.0918 0.8265 0.0935
C18 C 1.1946(7) 0.6739(6) 0.1057(4)
H12 H 1.1266 0.6498 0.1286
C19 C 0.8761(6) 0.5374(6) 0.1322(3)
C20 C 0.9346(6) 0.5217(5) 0.0627(3)
C21 C 1.0604(6) 0.4535(5) 0.0494(3)
H13 H 1.1014 0.4220 0.0830
C22 C 0.8719(6) 0.5702(5) 0.0122(3)
C23 C 0.7387(7) 0.6496(6) 0.0208(3)
C24 C 0.6346(6) 0.3958(6) 0.3830(3)
C25 C 0.5700(6) 0.4472(5) 0.4451(3)
C26 C 0.4510(6) 0.5228(5) 0.4456(3)
H14 H 0.4175 0.5386 0.4086
C27 C 0.6203(6) 0.4239(5) 0.5009(3)
C28 C 0.7484(6) 0.3416(6) 0.5042(3)
C29 C 0.1984(6) 0.2183(5) 0.5279(3)
H15 H 0.2071 0.1648 0.5602
C30 C 0.3077(7) 0.2418(6) 0.4940(4)
H16 H 0.3887 0.2048 0.5033
C31 C 0.2957(6) 0.3206(6) 0.4463(4)
H17 H 0.3685 0.3368 0.4222
C32 C 0.1726(6) 0.3756(5) 0.4347(3)
C33 C 0.0690(6) 0.3483(5) 0.4704(3)
H18 H -0.0132 0.3859 0.4627
C34 C 0.1551(6) 0.4621(5) 0.3841(3)
C35 C 0.2405(6) 0.5601(5) 0.3048(3)
C36 C 0.0238(6) 0.5958(5) 0.3327(3)
C37 C -0.1075(6) 0.6591(5) 0.3241(3)
C38 C -0.2166(6) 0.6354(6) 0.3612(3)
H19 H -0.2085 0.5770 0.3902
C39 C -0.3366(7) 0.7019(6) 0.3532(4)
H20 H -0.4113 0.6876 0.3764
C40 C -0.3461(7) 0.7880(6) 0.3117(4)
H21 H -0.4283 0.8328 0.3083
C41 C -0.1240(6) 0.7455(5) 0.2814(3)
H22 H -0.0507 0.7587 0.2559
C42 C 0.3564(6) 0.5877(5) 0.2666(3)
C43 C 0.4786(6) 0.5208(5) 0.2691(3)
H23 H 0.4865 0.4565 0.2929
C44 C 0.5738(6) 0.6352(5) 0.2039(3)
H24 H 0.6483 0.6524 0.1831
C45 C 0.4545(6) 0.7053(5) 0.1972(3)
H25 H 0.4496 0.7673 0.1713
C46 C 0.3431(6) 0.6830(5) 0.2291(3)
H26 H 0.2619 0.7296 0.2259
C47 C 1.9415(6) -0.0032(5) 0.2441(3)
C48 C 2.0812(6) -0.0037(5) 0.2363(3)
C49 C 2.1619(6) -0.0542(5) 0.2783(3)
C50 C 2.2907(6) -0.0561(5) 0.2650(3)
H27 H 2.3435 -0.0896 0.2939
C51 C 2.3429(6) -0.0083(5) 0.2083(3)
C52 C 2.2610(6) 0.0463(5) 0.1661(3)
C53 C 2.1326(6) 0.0474(5) 0.1813(3)
H28 H 2.0780 0.0839 0.1536
C54 C 2.1128(6) -0.1144(5) 0.3370(3)
C55 C 2.4881(6) -0.0335(5) 0.1878(3)
C56 C 2.3085(6) 0.0998(6) 0.1061(3)
N1 N 0.9433(5) 0.3785(4) 0.2684(2)
N2 N 1.2498(5) 0.4725(4) 0.1629(3)
N3 N 1.4700(5) 0.4328(4) 0.1132(3)
N4 N 1.4000(5) 0.3141(4) 0.1937(3)
N5 N 1.7331(5) 0.0761(4) 0.1550(3)
N6 N 1.3973(5) 0.7438(4) 0.0328(3)
N7 N 0.0794(5) 0.2699(4) 0.5161(3)
N8 N 0.2631(5) 0.4784(4) 0.3473(3)
N9 N 0.1253(5) 0.6196(4) 0.2938(3)
N10 N 0.0346(5) 0.5171(4) 0.3789(3)
N11 N -0.2414(5) 0.8122(4) 0.2745(3)
N12 N 0.5864(5) 0.5437(4) 0.2391(2)
O1 O 0.6977(4) 0.4498(3) 0.3441(2)
O2 O 0.6133(5) 0.3139(4) 0.3727(2)
O3 O 0.8016(5) 0.2773(4) 0.4629(2)
O4 O 0.7961(4) 0.3408(4) 0.5531(2)
O5 O 0.8275(4) 0.4626(4) 0.1597(2)
O6 O 0.8867(4) 0.6098(4) 0.1587(2)
O7 O 0.6782(4) 0.6623(4) -0.0251(2)
O8 O 0.6939(5) 0.6989(4) 0.0689(2)
O9 O 1.9242(4) -0.0671(3) 0.2111(2)
O10 O 1.8544(4) 0.0646(4) 0.2771(2)
O11 O 2.0119(4) -0.1396(4) 0.3407(2)
O12 O 2.1772(4) -0.1390(4) 0.3816(2)
O13 O 2.5520(4) -0.0299(4) 0.2291(2)
O14 O 2.5359(4) -0.0600(4) 0.1327(2)
O15 O 2.3741(5) 0.1610(4) 0.1082(2)
O16 O 2.2813(4) 0.0811(4) 0.0560(2)
O17 O 0.7199(5) 0.2897(4) 0.2512(2)
O18 O 1.4202(5) 0.9393(4) -0.0282(2)
O19 O 0.0490(5) 0.0690(4) 0.5259(2)
O20 O 1.8119(5) -0.1705(4) 0.1271(2)
Cu1A Cu 0.23621(7) 0.55266(6) 0.74918(4)
Cu1A_2 Cu 1.23621(7) 0.55266(6) -0.25082(4)
Cu1_2 Cu 2.76379(7) -0.55266(6) 0.25082(4)
Cu2_2 Cu -0.25467(7) 0.93843(6) 0.21016(4)
Cu2_3 Cu 2.74533(7) -0.06157(6) 0.21016(4)
Cu2_4 Cu 0.74533(7) -0.06157(6) 0.21016(4)
Cu2A Cu -0.74533(7) 1.06157(6) 0.78984(4)
Cu3_2 Cu 0.53915(8) 0.79318(7) -0.02542(4)
Cu3A Cu 2.46085(8) 0.20682(7) 0.02542(4)
Cu3A_2 Cu 1.46085(8) 0.20682(7) 0.02542(4)
Cu3A_3 Cu -0.53915(8) 0.20682(7) 1.02542(4)
Cu4_2 Cu 0.93663(7) 0.20887(7) 0.55583(4)
Cu4A Cu 2.06337(7) -0.20887(7) 0.44417(4)
Cu4A_2 Cu 0.06337(7) 0.79113(7) 0.44417(4)
Cu4_3 Cu 1.93663(7) -0.79113(7) 0.55583(4)
Cu4A_3 Cu 1.06337(7) -0.20887(7) 0.44417(4)
C1A C -0.0468(6) 0.5959(5) 0.7657(3)
H1A H -0.0332 0.5376 0.7948
C2A C -0.1730(6) 0.6515(5) 0.7603(3)
C3A C -0.1940(6) 0.7381(5) 0.7162(3)
H2A H -0.2777 0.7779 0.7118
C4A C -0.0891(6) 0.7632(6) 0.6797(3)
H3A H -0.1000 0.8189 0.6488
C5A C 0.0336(6) 0.7050(6) 0.6892(3)
H4A H 0.1039 0.7246 0.6650
C6A C -0.2800(6) 0.6203(5) 0.8029(3)
C7A C -0.3498(6) 0.5028(5) 0.8759(3)
C8A C -0.4896(6) 0.6603(5) 0.8512(3)
C9A C -0.6166(6) 0.7404(5) 0.8641(3)
C10A C -0.6261(6) 0.8418(5) 0.8350(3)
H5A H -0.5539 0.8526 0.8071
C11A C -0.8365(6) 0.9070(6) 0.8866(3)
H6A H -0.9108 0.9640 0.8961
C12A C -0.8351(7) 0.8076(6) 0.9155(4)
H7A H -0.9090 0.7978 0.9424
C13A C -0.7245(6) 0.7237(6) 0.9043(4)
H8A H -0.7223 0.6566 0.9235
C14A C -0.3200(6) 0.3950(5) 0.9070(3)
C15A C -0.4169(6) 0.3569(5) 0.9446(3)
H9A H -0.4997 0.4041 0.9546
C16A C -0.2743(7) 0.1896(6) 0.9529(4)
H10A H -0.2578 0.1190 0.9686
C17A C -0.1737(7) 0.2221(6) 0.9163(4)
H11A H -0.0918 0.1735 0.9065
C18A C -0.1946(7) 0.3261(6) 0.8943(4)
H12A H -0.1266 0.3502 0.8714
C19A C 1.1239(6) 0.4626(6) -0.1322(3)
C20A C 1.0654(6) 0.4783(5) -0.0627(3)
C21A C 0.9396(6) 0.5465(5) -0.0494(3)
H13A H 0.8986 0.5780 -0.0830
C22A C 1.1281(6) 0.4298(5) -0.0122(3)
C23A C 1.2613(7) 0.3504(6) -0.0208(3)
C24A C 0.3654(6) 0.6042(6) 0.6170(3)
C25A C 0.4300(6) 0.5528(5) 0.5549(3)
C26A C 0.5490(6) 0.4772(5) 0.5544(3)
H14A H 0.5825 0.4614 0.5914
C27A C 0.3797(6) 0.5761(5) 0.4991(3)
C28A C 0.2516(6) 0.6584(6) 0.4958(3)
C29_2 C 2.1984(6) -0.7817(5) 0.5279(3)
H15_2 H 2.2071 -0.8352 0.5602
C30_2 C 2.3077(7) -0.7582(6) 0.4940(4)
H16_2 H 2.3887 -0.7952 0.5033
C31_2 C 2.2957(6) -0.6794(6) 0.4463(4)
H17_2 H 2.3685 -0.6632 0.4222
C32_2 C 2.1726(6) -0.6244(5) 0.4347(3)
C33_2 C 2.0690(6) -0.6517(5) 0.4704(3)
H18_2 H 1.9868 -0.6141 0.4627
C34_2 C 2.1551(6) -0.5379(5) 0.3841(3)
C35_2 C 2.2405(6) -0.4399(5) 0.3048(3)
C36_2 C 2.0238(6) -0.4042(5) 0.3327(3)
C37_2 C 1.8925(6) -0.3409(5) 0.3241(3)
C38_2 C 1.7834(6) -0.3646(6) 0.3612(3)
H19_2 H 1.7915 -0.4230 0.3902
C39_2 C 1.6634(7) -0.2981(6) 0.3532(4)
H20_2 H 1.5887 -0.3124 0.3764
C40_2 C 1.6539(7) -0.2120(6) 0.3117(4)
H21_2 H 1.5717 -0.1672 0.3083
C41_2 C 1.8760(6) -0.2545(5) 0.2814(3)
H22_2 H 1.9493 -0.2413 0.2559
C42_2 C 2.3564(6) -0.4123(5) 0.2666(3)
C43_2 C 2.4786(6) -0.4792(5) 0.2691(3)
H23_2 H 2.4865 -0.5435 0.2929
C44_2 C 2.5738(6) -0.3648(5) 0.2039(3)
H24_2 H 2.6483 -0.3476 0.1831
C45_2 C 2.4545(6) -0.2947(5) 0.1972(3)
H25_2 H 2.4496 -0.2327 0.1713
C46_2 C 2.3431(6) -0.3170(5) 0.2291(3)
H26_2 H 2.2619 -0.2704 0.2259
C47_2 C 0.9415(6) -0.0032(5) 0.2441(3)
C48_2 C 1.0812(6) -0.0037(5) 0.2363(3)
C49_2 C 1.1619(6) -0.0542(5) 0.2783(3)
C50_2 C 1.2907(6) -0.0561(5) 0.2650(3)
H27_2 H 1.3435 -0.0896 0.2939
C51_2 C 1.3429(6) -0.0083(5) 0.2083(3)
C52_2 C 1.2610(6) 0.0463(5) 0.1661(3)
C53_2 C 1.1326(6) 0.0474(5) 0.1813(3)
H28_2 H 1.0780 0.0839 0.1536
C54_2 C 1.1128(6) -0.1144(5) 0.3370(3)
C55_2 C 1.4881(6) -0.0335(5) 0.1878(3)
C56_2 C 1.3085(6) 0.0998(6) 0.1061(3)
N1A N 0.0567(5) 0.6215(4) 0.7316(2)
N2A N -0.2498(5) 0.5275(4) 0.8371(3)
N3A N -0.4700(5) 0.5672(4) 0.8868(3)
N4A N -0.4000(5) 0.6859(4) 0.8063(3)
N5A N -0.7331(5) 0.9239(4) 0.8450(3)
N5_2 N -0.2669(5) 1.0761(4) 0.1550(3)
N6A N -0.3973(5) 0.2562(4) 0.9672(3)
N6_2 N 0.3973(5) 0.7438(4) 0.0328(3)
N7_2 N 2.0794(5) -0.7301(4) 0.5161(3)
N7_3 N 1.0794(5) 0.2699(4) 0.5161(3)
N8_2 N 2.2631(5) -0.5216(4) 0.3473(3)
N9_2 N 2.1253(5) -0.3804(4) 0.2938(3)
N10_2 N 2.0346(5) -0.4829(4) 0.3789(3)
N11_2 N 1.7586(5) -0.1878(4) 0.2745(3)
N12_2 N 2.5864(5) -0.4563(4) 0.2391(2)
N12A N 0.4136(5) 0.4563(4) 0.7609(2)
O1A O 0.3023(4) 0.5502(3) 0.6559(2)
O2A O 0.3867(5) 0.6861(4) 0.6273(2)
O3A O 0.1984(5) 0.7227(4) 0.5371(2)
O4A O 0.2039(4) 0.6592(4) 0.4469(2)
O4_2 O -0.2039(4) 0.3408(4) 0.5531(2)
O5A O 1.1725(4) 0.5374(4) -0.1597(2)
O5A_2 O 0.1725(4) 0.5374(4) 0.8403(2)
O6A O 1.1133(4) 0.3902(4) -0.1587(2)
O7A O 1.3218(4) 0.3377(4) 0.0251(2)
O7_2 O 1.6782(4) 0.6623(4) -0.0251(2)
O8A O 1.3061(5) 0.3011(4) -0.0689(2)
O9_2 O 0.9242(4) -0.0671(3) 0.2111(2)
O9_3 O -0.0758(4) 0.9329(3) 0.2111(2)
O10_2 O 0.8544(4) 0.0646(4) 0.2771(2)
O11_2 O 1.0119(4) -0.1396(4) 0.3407(2)
O12_2 O 1.1772(4) -0.1390(4) 0.3816(2)
O12A O -0.1772(4) 0.1390(4) 0.6184(2)
O12A_2 O 0.8228(4) 0.1390(4) 0.6184(2)
O13_2 O 1.5520(4) -0.0299(4) 0.2291(2)
O13_3 O -0.4480(4) 0.9701(4) 0.2291(2)
O14_2 O 1.5359(4) -0.0600(4) 0.1327(2)
O15_2 O 1.3741(5) 0.1610(4) 0.1082(2)
O15A O 1.6259(5) 0.8390(4) -0.1082(2)
O15A_2 O 0.6259(5) 0.8390(4) -0.1082(2)
O16_2 O 1.2813(4) 0.0811(4) 0.0560(2)
O17A O 0.2801(5) 0.7103(4) 0.7488(2)
O18_2 O 0.4202(5) 0.9393(4) -0.0282(2)
O19_2 O 1.0490(5) 0.0690(4) 0.5259(2)
O20_2 O -0.1881(5) 0.8295(4) 0.1271(2)
O21 O 0.8978(9) 0.0947(5) 0.3962(3)
O22 O 0.7515(7) 0.9865(7) 0.5721(4)
O23 O 0.5620(10) 0.9243(9) 0.6527(5)
O24 O 0.9015(11) 0.9232(11) 0.0077(6)
O25 O 0.6109(11) 0.1288(11) 0.4698(10)
O26 O 0.626(3) 0.0082(14) 0.3958(12)
loop_
_geom_bond_atom_site_label_1
_geom_bond_atom_site_label_2
_geom_bond_site_symmetry_1
_geom_bond_site_symmetry_2
Cu1 N1 1_555 1_555
Cu2 N5 1_555 1_555
Cu3 N6 1_555 1_555
Cu4 N7 1_555 1_555
C1 H1 1_555 1_555
C2 C1 1_555 1_555
C3 C2 1_555 1_555
H2 C3 1_555 1_555
C4 C3 1_555 1_555
H3 C4 1_555 1_555
C5 C4 1_555 1_555
H4 C5 1_555 1_555
C6 C2 1_555 1_555
C7 C14 1_555 1_555
C8 C9 1_555 1_555
C9 C10 1_555 1_555
C10 H5 1_555 1_555
C11 H6 1_555 1_555
C12 C11 1_555 1_555
H7 C12 1_555 1_555
C13 C9 1_555 1_555
H8 C13 1_555 1_555
C14 C15 1_555 1_555
C15 H9 1_555 1_555
C16 H10 1_555 1_555
C17 C16 1_555 1_555
H11 C17 1_555 1_555
C18 C14 1_555 1_555
H12 C18 1_555 1_555
C19 C20 1_555 1_555
C20 C21 1_555 1_555
C21 H13 1_555 1_555
C22 C20 1_555 1_555
C23 C22 1_555 1_555
C24 C25 1_555 1_555
C25 C26 1_555 1_555
C26 H14 1_555 1_555
C27 C25 1_555 1_555
C28 C27 1_555 1_555
C29 H15 1_555 1_555
C30 C29 1_555 1_555
H16 C30 1_555 1_555
C31 C30 1_555 1_555
H17 C31 1_555 1_555
C32 C31 1_555 1_555
C33 C32 1_555 1_555
H18 C33 1_555 1_555
C34 C32 1_555 1_555
C35 C42 1_555 1_555
C36 C37 1_555 1_555
C37 C38 1_555 1_555
C38 H19 1_555 1_555
C39 C38 1_555 1_555
H20 C39 1_555 1_555
C40 C39 1_555 1_555
H21 C40 1_555 1_555
C41 C37 1_555 1_555
H22 C41 1_555 1_555
C42 C43 1_555 1_555
C43 H23 1_555 1_555
C44 H24 1_555 1_555
C45 C44 1_555 1_555
H25 C45 1_555 1_555
C46 C42 1_555 1_555
H26 C46 1_555 1_555
C47 C48 1_555 1_555
C48 C49 1_555 1_555
C49 C50 1_555 1_555
C50 H27 1_555 1_555
C51 C50 1_555 1_555
C52 C51 1_555 1_555
C53 C48 1_555 1_555
H28 C53 1_555 1_555
C54 C49 1_555 1_555
C55 C51 1_555 1_555
C56 C52 1_555 1_555
N1 C1 1_555 1_555
N2 C6 1_555 1_555
N3 C7 1_555 1_555
N4 C6 1_555 1_555
N5 C10 1_555 1_555
N6 C15 1_555 1_555
N7 C29 1_555 1_555
N8 C34 1_555 1_555
N9 C35 1_555 1_555
N10 C34 1_555 1_555
N11 C40 1_555 1_555
N12 Cu1 1_555 1_555
O1 Cu1 1_555 1_555
O2 C24 1_555 1_555
O3 C28 1_555 1_555
O4 C28 1_555 1_555
O5 Cu1 1_555 1_555
O6 C19 1_555 1_555
O7 C23 1_555 1_555
O8 C23 1_555 1_555
O9 Cu2 1_555 1_555
O10 C47 1_555 1_555
O11 C54 1_555 1_555
O12 C54 1_555 1_555
O13 C55 1_555 1_555
O14 C55 1_555 1_555
O15 C56 1_555 1_555
O16 C56 1_555 1_555
O17 Cu1 1_555 1_555
O18 Cu3 1_555 1_555
O19 Cu4 1_555 1_555
O20 Cu2 1_555 1_555
Cu1A N1A 1_555 1_555
Cu1A_2 O5A 1_555 1_555
Cu1_2 N12_2 1_555 1_555
Cu2_2 N11 1_555 1_555
Cu2_3 O13 1_555 1_555
Cu2_4 O9_2 1_555 1_555
Cu2A N5A 1_555 1_555
Cu3_2 O7 1_555 1_555
Cu3A O15 1_555 1_555
Cu3A_2 O7A 1_555 1_555
Cu3A_3 N6A 1_555 1_555
Cu4_2 O4 1_555 1_555
Cu4A O12 1_555 1_555
Cu4A_2 O4A 1_555 1_555
Cu4_3 N7_2 1_555 1_555
Cu4A_3 O12_2 1_555 1_555
C1A H1A 1_555 1_555
C2A C1A 1_555 1_555
C3A C2A 1_555 1_555
H2A C3A 1_555 1_555
C4A C3A 1_555 1_555
H3A C4A 1_555 1_555
C5A C4A 1_555 1_555
H4A C5A 1_555 1_555
C6A C2A 1_555 1_555
C7A C14A 1_555 1_555
C8A C9A 1_555 1_555
C9A C10A 1_555 1_555
C10A H5A 1_555 1_555
C11A H6A 1_555 1_555
C12A C11A 1_555 1_555
H7A C12A 1_555 1_555
C13A C9A 1_555 1_555
H8A C13A 1_555 1_555
C14A C15A 1_555 1_555
C15A H9A 1_555 1_555
C16A H10A 1_555 1_555
C17A C16A 1_555 1_555
H11A C17A 1_555 1_555
C18A C14A 1_555 1_555
H12A C18A 1_555 1_555
C19A C20A 1_555 1_555
C20A C21A 1_555 1_555
C21A C22 1_555 1_555
H13A C21A 1_555 1_555
C22A C21 1_555 1_555
C23A C22A 1_555 1_555
C24A C25A 1_555 1_555
C25A C26A 1_555 1_555
C26A C27 1_555 1_555
H14A C26A 1_555 1_555
C27A C26 1_555 1_555
C28A C27A 1_555 1_555
C29_2 H15_2 1_555 1_555
C30_2 C29_2 1_555 1_555
H16_2 C30_2 1_555 1_555
C31_2 C30_2 1_555 1_555
H17_2 C31_2 1_555 1_555
C32_2 C31_2 1_555 1_555
C33_2 C32_2 1_555 1_555
H18_2 C33_2 1_555 1_555
C34_2 C32_2 1_555 1_555
C35_2 C42_2 1_555 1_555
C36_2 C37_2 1_555 1_555
C37_2 C38_2 1_555 1_555
C38_2 H19_2 1_555 1_555
C39_2 C38_2 1_555 1_555
H20_2 C39_2 1_555 1_555
C40_2 C39_2 1_555 1_555
H21_2 C40_2 1_555 1_555
C41_2 C37_2 1_555 1_555
H22_2 C41_2 1_555 1_555
C42_2 C43_2 1_555 1_555
C43_2 H23_2 1_555 1_555
C44_2 H24_2 1_555 1_555
C45_2 C44_2 1_555 1_555
H25_2 C45_2 1_555 1_555
C46_2 C42_2 1_555 1_555
H26_2 C46_2 1_555 1_555
C47_2 C48_2 1_555 1_555
C48_2 C49_2 1_555 1_555
C49_2 C50_2 1_555 1_555
C50_2 H27_2 1_555 1_555
C51_2 C50_2 1_555 1_555
C52_2 C51_2 1_555 1_555
C53_2 C48_2 1_555 1_555
H28_2 C53_2 1_555 1_555
C54_2 C49_2 1_555 1_555
C55_2 C51_2 1_555 1_555
C56_2 C52_2 1_555 1_555
N1A C1A 1_555 1_555
N2A C6A 1_555 1_555
N3A C7A 1_555 1_555
N4A C6A 1_555 1_555
N5A C10A 1_555 1_555
N5_2 Cu2_2 1_555 1_555
N6A C15A 1_555 1_555
N6_2 Cu3_2 1_555 1_555
N7_2 C29_2 1_555 1_555
N7_3 Cu4_2 1_555 1_555
N8_2 C34_2 1_555 1_555
N9_2 C35_2 1_555 1_555
N10_2 C34_2 1_555 1_555
N11_2 Cu2 1_555 1_555
N12_2 C43_2 1_555 1_555
N12A Cu1A 1_555 1_555
O1A Cu1A 1_555 1_555
O2A C24A 1_555 1_555
O3A C28A 1_555 1_555
O4A C28A 1_555 1_555
O4_2 Cu4 1_555 1_555
O5A C19A 1_555 1_555
O5A_2 Cu1A 1_555 1_555
O6A C19A 1_555 1_555
O7A C23A 1_555 1_555
O7_2 Cu3 1_555 1_555
O8A C23A 1_555 1_555
O9_2 C47_2 1_555 1_555
O9_3 Cu2_2 1_555 1_555
O10_2 C47_2 1_555 1_555
O11_2 C54_2 1_555 1_555
O12_2 C54_2 1_555 1_555
O12A Cu4 1_555 1_555
O12A_2 Cu4_2 1_555 1_555
O13_2 Cu2 1_555 1_555
O13_3 Cu2_2 1_555 1_555
O14_2 C55_2 1_555 1_555
O15_2 Cu3A_2 1_555 1_555
O15A Cu3 1_555 1_555
O15A_2 Cu3_2 1_555 1_555
O16_2 C56_2 1_555 1_555
O17A Cu1A 1_555 1_555
O18_2 Cu3_2 1_555 1_555
O19_2 Cu4_2 1_555 1_555
O20_2 Cu2_2 1_555 1_555
C5 N1 1_555 1_555
C7 N2 1_555 1_555
C8 N3 1_555 1_555
C8 N4 1_555 1_555
C11 N5 1_555 1_555
C12 C13 1_555 1_555
C16 N6 1_555 1_555
C17 C18 1_555 1_555
C19 O5 1_555 1_555
C24 O1 1_555 1_555
C33 N7 1_555 1_555
C35 N8 1_555 1_555
C36 N9 1_555 1_555
C36 N10 1_555 1_555
C41 N11 1_555 1_555
C43 N12 1_555 1_555
C44 N12 1_555 1_555
C45 C46 1_555 1_555
C47 O9 1_555 1_555
C52 C53 1_555 1_555
C5A N1A 1_555 1_555
C7A N2A 1_555 1_555
C8A N3A 1_555 1_555
C8A N4A 1_555 1_555
C11A N5A 1_555 1_555
C12A C13A 1_555 1_555
C16A N6A 1_555 1_555
C17A C18A 1_555 1_555
C20A C22A 1_555 1_555
C24A O1A 1_555 1_555
C25A C27A 1_555 1_555
C33_2 N7_2 1_555 1_555
C35_2 N8_2 1_555 1_555
C36_2 N9_2 1_555 1_555
C36_2 N10_2 1_555 1_555
C40_2 N11_2 1_555 1_555
C41_2 N11_2 1_555 1_555
C44_2 N12_2 1_555 1_555
C45_2 C46_2 1_555 1_555
C52_2 C53_2 1_555 1_555
C55_2 O13_2 1_555 1_555
C56_2 O15_2 1_555 1_555

#END
