
#######################################################################
#
#                 Cambridge Crystallographic Data Centre
#                                CCDC 
#
#######################################################################
#
# If this CIF has been generated from an entry in the Cambridge 
# Structural Database, then it will include bibliographic, chemical, 
# crystal, experimental, refinement or atomic coordinate data resulting 
# from the CCDC's data processing and validation procedures.
#
#######################################################################

data_EKASAL
_symmetry_cell_setting           monoclinic
_symmetry_space_group_name_H-M   'P 2/c'
_symmetry_Int_Tables_number      13
_space_group_name_Hall           '-P 2yc'
loop_
_symmetry_equiv_pos_site_id
_symmetry_equiv_pos_as_xyz
1 x,y,z
2 -x,y,1/2-z
3 -x,-y,-z
4 x,-y,1/2+z
_cell_length_a                   10.825(9)
_cell_length_b                   11.059(9)
_cell_length_c                   29.01(2)
_cell_angle_alpha                90
_cell_angle_beta                 93.728(10)
_cell_angle_gamma                90
_cell_volume                     3465.54
loop_
_atom_site_label
_atom_site_type_symbol
_atom_site_fract_x
_atom_site_fract_y
_atom_site_fract_z
Cu1 Cu 0.90112(4) 0.87753(5) 1.019504(15)
C1 C 0.8760(4) 0.6566(4) 0.96091(15)
H1 H 0.9022 0.6172 0.9881
C2 C 0.8361(4) 0.5879(4) 0.92339(14)
H2 H 0.8349 0.5041 0.9255
C3 C 0.7979(4) 0.6444(4) 0.88239(13)
C4 C 0.8040(4) 0.7698(4) 0.88120(14)
H3 H 0.7807 0.8115 0.8542
C5 C 0.8447(4) 0.8312(4) 0.92013(14)
H4 H 0.8487 0.9152 0.9187
C6 C 0.7528(4) 0.5760(4) 0.84020(13)
C7 C 0.7070(4) 0.4009(4) 0.80393(14)
C8 C 0.6834(4) 0.5761(4) 0.76584(13)
C9 C 0.6455(4) 0.6416(4) 0.72261(14)
C10 C 0.6158(5) 0.5782(4) 0.68193(15)
H5 H 0.6209 0.4943 0.6813
C11 C 0.5789(5) 0.6415(4) 0.64294(16)
H6 H 0.5608 0.5986 0.6158
C12 C 0.5976(5) 0.8199(4) 0.68100(16)
H7 H 0.5922 0.9038 0.6806
C13 C 0.6361(5) 0.7654(4) 0.72189(15)
H8 H 0.6551 0.8109 0.7483
C14 C 0.7005(5) 0.2662(4) 0.80285(15)
C15 C 0.7005(5) 0.1980(4) 0.84205(16)
H9 H 0.7060 0.2338 0.8711
C16 C 0.6920(6) 0.0742(5) 0.83712(17)
H10 H 0.6894 0.0287 0.8640
C17 C 0.6929(8) 0.0832(5) 0.7607(2)
H11 H 0.6933 0.0441 0.7323
C18 C 0.6980(7) 0.2077(5) 0.76072(18)
H12 H 0.6998 0.2509 0.7333
C19 C 0.8687(4) 1.0620(4) 1.08960(13)
H13 H 0.8256 1.1003 1.0649
C20 C 0.8854(4) 1.1222(4) 1.13052(13)
H14 H 0.8576 1.2013 1.1331
C21 C 0.9439(4) 1.0650(4) 1.16815(13)
C22 C 0.9811(5) 0.9460(4) 1.16294(14)
H15 H 1.0160 0.9027 1.1880
C23 C 0.9657(4) 0.8935(4) 1.12019(14)
H16 H 0.9939 0.8149 1.1165
C24 C 0.9714(4) 1.1303(4) 1.21210(13)
C25 C 1.0000 1.3065(5) 1.2500
C26 C 1.0000 1.4403(6) 1.2500
C27 C 0.9631(5) 1.5041(5) 1.21088(18)
H17 H 0.9378 1.4640 1.1837
C28 C 0.9642(6) 1.6286(5) 1.2127(2)
H18 H 0.9381 1.6709 1.1862
C29 C 0.6736(4) 0.7977(4) 1.03482(15)
C30 C 0.5343(4) 0.7992(3) 1.03229(14)
C31 C 0.4694(4) 0.7080(4) 1.00896(15)
H19 H 0.5129 0.6451 0.9962
C32 C 0.3409(4) 0.7078(3) 1.00397(14)
C33 C 0.2745(4) 0.8024(3) 1.02264(13)
C34 C 0.3409(3) 0.8967(3) 1.04383(13)
H20 H 0.2980 0.9631 1.0543
C35 C 0.4682(4) 0.8951(3) 1.04991(13)
C36 C 0.5321(4) 0.9881(4) 1.08035(14)
C37 C 0.1365(4) 0.8019(4) 1.02593(13)
C38 C 0.2772(4) 0.6105(4) 0.97640(17)
N1 N 0.8789(3) 0.7769(3) 0.96012(11)
N2 N 0.7455(4) 0.4552(3) 0.84349(11)
N3 N 0.6747(4) 0.4561(3) 0.76458(11)
N4 N 0.7225(3) 0.6398(3) 0.80259(11)
N5 N 0.5675(4) 0.7613(4) 0.64182(13)
N6 N 0.6874(5) 0.0152(4) 0.79793(15)
N7 N 0.9115(3) 0.9506(3) 1.08349(11)
N8 N 0.9676(3) 1.2509(3) 1.21020(11)
N9 N 1.0000 1.0658(4) 1.2500
N10 N 1.0000 1.6920(6) 1.2500
O1 O 0.7241(2) 0.8891(2) 1.01850(9)
O2 O 0.7322(3) 0.7096(3) 1.05046(15)
O3 O 0.6154(3) 0.9614(3) 1.10847(10)
O4 O 0.4820(3) 1.0943(3) 1.07553(11)
H21 H 0.5099 1.1388 1.0963
O5 O 0.0795(2) 0.8994(3) 1.01459(9)
O6 O 0.0854(3) 0.7126(3) 1.04111(11)
O7 O 0.1821(3) 0.6282(3) 0.95244(13)
O8 O 0.3341(4) 0.5095(3) 0.9798(2)
H22 H 0.2936 0.4576 0.9653
Cu1A Cu 1.09888(4) 0.87753(5) 1.480496(15)
Cu1_2 Cu -0.09888(4) 0.87753(5) 1.019504(15)
Cu1_3 Cu 1.90112(4) 0.87753(5) 1.019504(15)
C1A C 1.1240(4) 0.6566(4) 1.53909(15)
H1A H 1.0978 0.6172 1.5119
C2A C 1.1639(4) 0.5879(4) 1.57661(14)
H2A H 1.1651 0.5041 1.5745
C3A C 1.2021(4) 0.6444(4) 1.61761(13)
C4A C 1.1960(4) 0.7698(4) 1.61880(14)
H3A H 1.2193 0.8115 1.6458
C5A C 1.1553(4) 0.8312(4) 1.57987(14)
H4A H 1.1513 0.9152 1.5813
C6A C 1.2472(4) 0.5760(4) 1.65980(13)
C7A C 1.2930(4) 0.4009(4) 1.69607(14)
C8A C 1.3166(4) 0.5761(4) 1.73416(13)
C9A C 1.3545(4) 0.6416(4) 1.77739(14)
C10A C 1.3842(5) 0.5782(4) 1.81807(15)
H5A H 1.3791 0.4943 1.8187
C11A C 1.4211(5) 0.6415(4) 1.85706(16)
H6A H 1.4392 0.5986 1.8842
C12A C 1.4024(5) 0.8199(4) 1.81900(16)
H7A H 1.4078 0.9038 1.8194
C13A C 1.3639(5) 0.7654(4) 1.77811(15)
H8A H 1.3449 0.8109 1.7517
C14A C 1.2995(5) 0.2662(4) 1.69715(15)
C15A C 1.2995(5) 0.1980(4) 1.65795(16)
H9A H 1.2940 0.2338 1.6289
C16A C 1.3080(6) 0.0742(5) 1.66288(17)
H10A H 1.3106 0.0287 1.6360
C17A C 1.3071(8) 0.0832(5) 1.7393(2)
H11A H 1.3067 0.0441 1.7677
C18A C 1.3020(7) 0.2077(5) 1.73928(18)
H12A H 1.3002 0.2509 1.7667
C19A C 1.1313(4) 1.0620(4) 1.41040(13)
H13A H 1.1744 1.1003 1.4351
C20A C 1.1146(4) 1.1222(4) 1.36948(13)
H14A H 1.1424 1.2013 1.3669
C21A C 1.0561(4) 1.0650(4) 1.33185(13)
C22A C 1.0189(5) 0.9460(4) 1.33706(14)
H15A H 0.9840 0.9027 1.3120
C23A C 1.0343(4) 0.8935(4) 1.37981(14)
H16A H 1.0061 0.8149 1.3835
C24A C 1.0286(4) 1.1303(4) 1.28790(13)
C27A C 1.0369(5) 1.5041(5) 1.28912(18)
H17A H 1.0622 1.4640 1.3163
C28A C 1.0358(6) 1.6286(5) 1.2873(2)
H18A H 1.0619 1.6709 1.3138
C29_2 C 1.6736(4) 0.7977(4) 1.03482(15)
C30_2 C 1.5343(4) 0.7992(3) 1.03229(14)
C31_2 C 1.4694(4) 0.7080(4) 1.00896(15)
H19_2 H 1.5129 0.6451 0.9962
C32_2 C 1.3409(4) 0.7078(3) 1.00397(14)
C33_2 C 1.2745(4) 0.8024(3) 1.02264(13)
C34_2 C 1.3409(3) 0.8967(3) 1.04383(13)
H20_2 H 1.2980 0.9631 1.0543
C35_2 C 1.4682(4) 0.8951(3) 1.04991(13)
C36_2 C 1.5321(4) 0.9881(4) 1.08035(14)
C37_2 C 1.1365(4) 0.8019(4) 1.02593(13)
C38_2 C 1.2772(4) 0.6105(4) 0.97640(17)
N1A N 1.1211(3) 0.7769(3) 1.53988(11)
N2A N 1.2545(4) 0.4552(3) 1.65651(11)
N3A N 1.3253(4) 0.4561(3) 1.73542(11)
N4A N 1.2775(3) 0.6398(3) 1.69741(11)
N5A N 1.4325(4) 0.7613(4) 1.85818(13)
N6A N 1.3126(5) 0.0152(4) 1.70207(15)
N7A N 1.0885(3) 0.9506(3) 1.41651(11)
N8A N 1.0324(3) 1.2509(3) 1.28980(11)
O1_2 O 1.7241(2) 0.8891(2) 1.01850(9)
O1A O 1.2759(2) 0.8891(2) 1.48150(9)
O2_2 O 1.7322(3) 0.7096(3) 1.05046(15)
O3_2 O 1.6154(3) 0.9614(3) 1.10847(10)
O4_2 O 1.4820(3) 1.0943(3) 1.07553(11)
H21_2 H 1.5099 1.1388 1.0963
O5_2 O 1.0795(2) 0.8994(3) 1.01459(9)
O5A O 0.9205(2) 0.8994(3) 1.48541(9)
O6_2 O 1.0854(3) 0.7126(3) 1.04111(11)
O7_2 O 1.1821(3) 0.6282(3) 0.95244(13)
O8_2 O 1.3341(4) 0.5095(3) 0.9798(2)
H22_2 H 1.2936 0.4576 0.9653
O9 O 0.0804(6) 0.4341(6) 0.9032(3)
O10 O 0.6620(9) 0.7132(6) 0.14756(19)
H25 H 0.7334 0.6814 0.1512
H26 H 0.6961 0.7824 0.1498
H23? H 0.1394 0.4371 0.8853
H24? H 0.1589 0.4295 0.9042
loop_
_geom_bond_atom_site_label_1
_geom_bond_atom_site_label_2
_geom_bond_site_symmetry_1
_geom_bond_site_symmetry_2
Cu1 N1 1_555 1_555
C1 H1 1_555 1_555
C2 C1 1_555 1_555
H2 C2 1_555 1_555
C3 C2 1_555 1_555
C4 C3 1_555 1_555
H3 C4 1_555 1_555
C5 C4 1_555 1_555
H4 C5 1_555 1_555
C6 C3 1_555 1_555
C7 C14 1_555 1_555
C8 C9 1_555 1_555
C9 C10 1_555 1_555
C10 H5 1_555 1_555
C11 C10 1_555 1_555
H6 C11 1_555 1_555
C12 H7 1_555 1_555
C13 C9 1_555 1_555
H8 C13 1_555 1_555
C14 C15 1_555 1_555
C15 H9 1_555 1_555
C16 C15 1_555 1_555
H10 C16 1_555 1_555
C17 H11 1_555 1_555
C18 C14 1_555 1_555
H12 C18 1_555 1_555
C19 H13 1_555 1_555
C20 C19 1_555 1_555
H14 C20 1_555 1_555
C21 C20 1_555 1_555
C22 C21 1_555 1_555
H15 C22 1_555 1_555
C23 C22 1_555 1_555
H16 C23 1_555 1_555
C24 C21 1_555 1_555
C25 C26 1_555 1_555
C26 C27 1_555 1_555
C27 H17 1_555 1_555
C28 C27 1_555 1_555
H18 C28 1_555 1_555
C29 C30 1_555 1_555
C30 C31 1_555 1_555
C31 H19 1_555 1_555
C32 C31 1_555 1_555
C33 C32 1_555 1_555
C34 C33 1_555 1_555
H20 C34 1_555 1_555
C35 C30 1_555 1_555
C36 C35 1_555 1_555
C37 C33 1_555 1_555
C38 C32 1_555 1_555
N1 C1 1_555 1_555
N2 C6 1_555 1_555
N3 C7 1_555 1_555
N4 C6 1_555 1_555
N5 C11 1_555 1_555
N6 C16 1_555 1_555
N7 Cu1 1_555 1_555
N8 C24 1_555 1_555
N9 C24 1_555 1_555
N10 C28 1_555 1_555
O1 Cu1 1_555 1_555
O2 C29 1_555 1_555
O3 C36 1_555 1_555
O4 C36 1_555 1_555
H21 O4 1_555 1_555
O5 C37 1_555 1_555
O6 C37 1_555 1_555
O7 C38 1_555 1_555
O8 C38 1_555 1_555
H22 O8 1_555 1_555
O10 H25 1_555 1_555
H26 O10 1_555 1_555
Cu1A N1A 1_555 1_555
Cu1_2 O5 1_555 1_555
Cu1_3 O1_2 1_555 1_555
C1A H1A 1_555 1_555
C2A C1A 1_555 1_555
H2A C2A 1_555 1_555
C3A C2A 1_555 1_555
C4A C3A 1_555 1_555
H3A C4A 1_555 1_555
C5A C4A 1_555 1_555
H4A C5A 1_555 1_555
C6A C3A 1_555 1_555
C7A C14A 1_555 1_555
C8A C9A 1_555 1_555
C9A C10A 1_555 1_555
C10A H5A 1_555 1_555
C11A C10A 1_555 1_555
H6A C11A 1_555 1_555
C12A H7A 1_555 1_555
C13A C9A 1_555 1_555
H8A C13A 1_555 1_555
C14A C15A 1_555 1_555
C15A H9A 1_555 1_555
C16A C15A 1_555 1_555
H10A C16A 1_555 1_555
C17A H11A 1_555 1_555
C18A C14A 1_555 1_555
H12A C18A 1_555 1_555
C19A H13A 1_555 1_555
C20A C19A 1_555 1_555
H14A C20A 1_555 1_555
C21A C20A 1_555 1_555
C22A C21A 1_555 1_555
H15A C22A 1_555 1_555
C23A C22A 1_555 1_555
H16A C23A 1_555 1_555
C24A N9 1_555 1_555
C27A C26 1_555 1_555
H17A C27A 1_555 1_555
C28A N10 1_555 1_555
H18A C28A 1_555 1_555
C29_2 C30_2 1_555 1_555
C30_2 C31_2 1_555 1_555
C31_2 H19_2 1_555 1_555
C32_2 C31_2 1_555 1_555
C33_2 C32_2 1_555 1_555
C34_2 C33_2 1_555 1_555
H20_2 C34_2 1_555 1_555
C35_2 C30_2 1_555 1_555
C36_2 C35_2 1_555 1_555
C37_2 C33_2 1_555 1_555
C38_2 C32_2 1_555 1_555
N1A C1A 1_555 1_555
N2A C6A 1_555 1_555
N3A C7A 1_555 1_555
N4A C6A 1_555 1_555
N5A C11A 1_555 1_555
N6A C16A 1_555 1_555
N7A Cu1A 1_555 1_555
N8A C25 1_555 1_555
O1_2 C29_2 1_555 1_555
O1A Cu1A 1_555 1_555
O2_2 C29_2 1_555 1_555
O3_2 C36_2 1_555 1_555
O4_2 C36_2 1_555 1_555
H21_2 O4_2 1_555 1_555
O5_2 Cu1 1_555 1_555
O5A Cu1A 1_555 1_555
O6_2 C37_2 1_555 1_555
O7_2 C38_2 1_555 1_555
O8_2 C38_2 1_555 1_555
H22_2 O8_2 1_555 1_555
C5 N1 1_555 1_555
C7 N2 1_555 1_555
C8 N3 1_555 1_555
C8 N4 1_555 1_555
C12 C13 1_555 1_555
C12 N5 1_555 1_555
C17 C18 1_555 1_555
C17 N6 1_555 1_555
C19 N7 1_555 1_555
C23 N7 1_555 1_555
C25 N8 1_555 1_555
C29 O1 1_555 1_555
C34 C35 1_555 1_555
C5A N1A 1_555 1_555
C7A N2A 1_555 1_555
C8A N3A 1_555 1_555
C8A N4A 1_555 1_555
C12A C13A 1_555 1_555
C12A N5A 1_555 1_555
C17A C18A 1_555 1_555
C17A N6A 1_555 1_555
C19A N7A 1_555 1_555
C21A C24A 1_555 1_555
C23A N7A 1_555 1_555
C24A N8A 1_555 1_555
C27A C28A 1_555 1_555
C34_2 C35_2 1_555 1_555
C37_2 O5_2 1_555 1_555

#END
