
#######################################################################
#
#                 Cambridge Crystallographic Data Centre
#                                CCDC 
#
#######################################################################
#
# If this CIF has been generated from an entry in the Cambridge 
# Structural Database, then it will include bibliographic, chemical, 
# crystal, experimental, refinement or atomic coordinate data resulting 
# from the CCDC's data processing and validation procedures.
#
#######################################################################

data_EKASIT
_symmetry_cell_setting           triclinic
_symmetry_space_group_name_H-M   'P -1'
_symmetry_Int_Tables_number      2
_space_group_name_Hall           '-P 1'
loop_
_symmetry_equiv_pos_site_id
_symmetry_equiv_pos_as_xyz
1 x,y,z
2 -x,-y,-z
_cell_length_a                   14.179(2)
_cell_length_b                   14.399(5)
_cell_length_c                   15.965(3)
_cell_angle_alpha                111.376(4)
_cell_angle_beta                 113.923(2)
_cell_angle_gamma                94.462(4)
_cell_volume                     2675.27
loop_
_atom_site_label
_atom_site_type_symbol
_atom_site_fract_x
_atom_site_fract_y
_atom_site_fract_z
Cu1 Cu 0.00758(6) 0.67660(6) 0.00544(6)
Cu2 Cu 0.52943(6) 0.61966(6) -0.50022(6)
Cu3 Cu 1.02627(6) 1.12167(6) 0.49901(6)
C1 C -0.1272(5) 0.5851(5) -0.2171(5)
C2 C -0.1291(5) 0.5196(5) -0.3150(5)
C3 C -0.1998(5) 0.5164(5) -0.4076(5)
C4 C -0.1916(5) 0.4615(5) -0.4934(5)
H1 H -0.2375 0.4622 -0.5543
C5 C -0.1161(5) 0.4043(5) -0.4922(5)
C6 C -0.0478(5) 0.4034(5) -0.4008(5)
C7 C -0.0543(5) 0.4616(5) -0.3151(5)
H2 H -0.0066 0.4629 -0.2537
C8 C -0.2829(5) 0.5780(5) -0.4185(4)
C9 C -0.1097(6) 0.3492(5) -0.5886(6)
C10 C 0.0281(6) 0.3350(5) -0.3942(5)
C11 C 0.4423(5) 0.7029(5) -0.3628(5)
H3 H 0.3796 0.6719 -0.4243
C12 C 0.4341(5) 0.7497(5) -0.2747(5)
H4 H 0.3677 0.7479 -0.2763
C13 C 0.5277(5) 0.7995(5) -0.1839(5)
C14 C 0.6247(5) 0.8013(5) -0.1849(5)
H5 H 0.6885 0.8371 -0.1250
C15 C 0.6252(5) 0.7490(5) -0.2765(5)
H6 H 0.6907 0.7483 -0.2767
C16 C 0.5242(5) 0.8465(5) -0.0851(5)
C17 C 0.4283(5) 0.8615(5) 0.0002(5)
C18 C 0.6043(5) 0.9382(5) 0.0837(5)
C19 C 0.3267(5) 0.8303(5) 0.0010(5)
C20 C 0.2364(5) 0.7642(6) -0.0865(6)
H7 H 0.2359 0.7446 -0.1490
C21 C 0.1471(6) 0.7271(6) -0.0829(6)
H8 H 0.0879 0.6817 -0.1437
C22 C 0.2275(6) 0.8195(6) 0.0888(6)
H9 H 0.2257 0.8398 0.1504
C23 C 0.3195(6) 0.8594(6) 0.0891(6)
H10 H 0.3772 0.9068 0.1501
C24 C 0.7050(5) 0.9946(5) 0.1818(5)
C25 C 0.7043(5) 1.0402(5) 0.2744(5)
H11 H 0.6400 1.0434 0.2763
C26 C 0.7996(5) 1.0808(5) 0.3636(5)
H12 H 0.7983 1.1109 0.4254
C27 C 0.8955(5) 1.0381(5) 0.2752(5)
H13 H 0.9612 1.0367 0.2757
C28 C 0.8033(5) 0.9988(5) 0.1822(5)
H14 H 0.8074 0.9758 0.1215
C29 C 0.0913(5) 0.8092(5) 0.2259(5)
C30 C 0.1888(5) 0.8458(5) 0.3265(5)
C31 C 0.2058(5) 0.9381(5) 0.4083(5)
C32 C 0.3027(5) 0.9759(5) 0.4957(5)
H15 H 0.3151 1.0386 0.5491
C33 C 0.3827(4) 0.9244(5) 0.5072(4)
C34 C 0.3640(5) 0.8305(5) 0.4278(5)
C35 C 0.2675(5) 0.7927(5) 0.3394(5)
H16 H 0.2548 0.7294 0.2866
C36 C 0.4472(5) 0.7695(5) 0.4348(5)
C37 C 0.4846(5) 0.9689(5) 0.6069(5)
C38 C 0.1306(5) 1.0060(5) 0.4110(5)
C39 C -0.8350(5) 0.1850(5) -0.2842(5)
H17 H -0.8994 0.1622 -0.2863
C40 C -0.7444(5) 0.2301(5) -0.1915(5)
H18 H -0.7476 0.2371 -0.1325
C41 C -0.6478(5) 0.2650(5) -0.1877(5)
C42 C -0.6473(5) 0.2491(5) -0.2788(5)
H19 H -0.5833 0.2681 -0.2791
C43 C -0.7404(5) 0.2056(5) -0.3675(5)
H20 H -0.7390 0.1985 -0.4272
C44 C -0.5487(5) 0.3228(5) -0.0895(5)
C45 C -0.3751(5) 0.4137(5) -0.0040(5)
C46 C -0.4690(5) 0.4114(5) 0.0804(5)
C47 C -0.4714(5) 0.4541(5) 0.1798(5)
C48 C -0.5652(5) 0.4380(5) 0.1874(5)
H21 H -0.6288 0.3946 0.1302
C49 C -0.5627(5) 0.4867(5) 0.2801(5)
H22 H -0.6258 0.4758 0.2844
C50 C -0.3818(5) 0.5640(5) 0.3582(5)
H23 H -0.3190 0.6070 0.4166
C51 C -0.3775(5) 0.5170(5) 0.2670(5)
H24 H -0.3132 0.5276 0.2648
C52 C -0.2769(5) 0.4602(5) -0.0007(5)
C53 C -0.2019(5) 0.5411(6) 0.0872(5)
H25 H -0.2082 0.5612 0.1466
C54 C -0.1161(6) 0.5927(6) 0.0860(5)
H26 H -0.0664 0.6486 0.1460
C55 C -0.1703(5) 0.4838(5) -0.0795(5)
H27 H -0.1582 0.4615 -0.1358
C56 C -0.2600(5) 0.4293(5) -0.0864(5)
H28 H -0.3083 0.3730 -0.1469
N1 N 0.5353(4) 0.6995(4) -0.3648(4)
N2 N 0.4292(4) 0.8223(4) -0.0891(4)
N3 N 0.5145(4) 0.9199(4) 0.0895(4)
N4 N 0.6143(4) 0.9055(4) -0.0006(4)
N5 N 0.1406(4) 0.7525(4) 0.0034(4)
N6 N 0.8930(4) 1.0779(4) 0.3636(4)
N7 N -0.8353(4) 0.1723(4) -0.3720(4)
N8 N -0.4598(4) 0.3528(4) -0.0938(4)
N9 N -0.5584(4) 0.3491(4) -0.0042(4)
N10 N -0.3770(4) 0.4449(4) 0.0842(4)
N11 N -0.4722(4) 0.5501(4) 0.3658(4)
N12 N -0.0997(4) 0.5679(4) 0.0054(4)
O1 O -0.0448(3) 0.5935(3) -0.1364(3)
O2 O -0.1987(4) 0.6275(4) -0.2169(3)
O3 O -0.2562(3) 0.6688(3) -0.4057(3)
O4 O -0.3796(3) 0.5314(3) -0.4527(3)
O5 O -0.1844(4) 0.3107(5) -0.6708(4)
O6 O -0.0110(4) 0.3478(5) -0.5725(4)
H29 H -0.0118 0.3119 -0.6262
O7 O -0.0212(3) 0.2398(3) -0.4500(4)
O8 O 0.1242(4) 0.3725(4) -0.3372(4)
O9 O 0.0915(3) 0.7326(3) 0.1528(3)
O10 O 0.0200(3) 0.8551(4) 0.2180(3)
O11 O 0.0670(3) 0.9912(3) 0.4465(3)
O12 O 0.1414(3) 1.0800(3) 0.3903(3)
O13 O 0.5181(4) 1.0717(3) 0.6584(4)
H30 H 0.4912 1.0979 0.6195
O14 O 0.5335(4) 0.9170(4) 0.6407(4)
O15 O 0.5266(4) 0.8019(4) 0.4282(4)
O16 O 0.4265(3) 0.6898(3) 0.4453(3)
O17 O -0.0975(5) 0.7817(5) 0.0022(5)
H31 H -0.0623 0.8405 0.0457
H32 H -0.1097 0.7707 -0.0579
Cu2_2 Cu -0.47057(6) 0.61966(6) 0.49978(6)
Cu2_3 Cu -0.47057(6) 0.61966(6) -0.50022(6)
Cu2_4 Cu 0.52943(6) 0.61966(6) 0.49978(6)
Cu3_2 Cu -0.97373(6) 0.12167(6) -0.50099(6)
Cu3_3 Cu 0.02627(6) 0.12167(6) -0.50099(6)
Cu3_4 Cu 0.02627(6) 1.12167(6) 0.49901(6)
N7_2 N 1.1647(4) 1.1723(4) 0.6280(4)
N11_2 N 0.5278(4) 0.5501(4) -0.6342(4)
O4_2 O 0.6204(3) 0.5314(3) -0.4527(3)
O7_2 O 0.9788(3) 1.2398(3) 0.5500(4)
O11_2 O 1.0670(3) 0.9912(3) 0.4465(3)
O16_2 O 0.4265(3) 0.6898(3) -0.5547(3)
O18 O 0.2308(4) 0.0460(4) 0.2543(4)
H33 H 0.2042 0.0828 0.2891
H34 H 0.2154 -0.0180 0.2119
O19 O 0.0429(4) 0.2340(5) 0.2877(5)
H35 H 0.0249 0.1958 0.2250
H36 H 0.1093 0.2590 0.3202
O20 O 0.9338(10) 0.9192(10) 0.8996(8)
H37 H 0.9026 0.9476 0.9339
H38 H 0.8944 0.8579 0.8711
loop_
_geom_bond_atom_site_label_1
_geom_bond_atom_site_label_2
_geom_bond_site_symmetry_1
_geom_bond_site_symmetry_2
Cu1 N5 1_555 1_555
Cu2 N1 1_555 1_555
Cu3 N6 1_555 1_555
C1 C2 1_555 1_555
C2 C3 1_555 1_555
C3 C4 1_555 1_555
C4 H1 1_555 1_555
C5 C4 1_555 1_555
C6 C5 1_555 1_555
C7 C2 1_555 1_555
H2 C7 1_555 1_555
C8 C3 1_555 1_555
C9 C5 1_555 1_555
C10 C6 1_555 1_555
C11 H3 1_555 1_555
C12 C11 1_555 1_555
H4 C12 1_555 1_555
C13 C12 1_555 1_555
C14 C13 1_555 1_555
H5 C14 1_555 1_555
C15 C14 1_555 1_555
H6 C15 1_555 1_555
C16 C13 1_555 1_555
C17 C19 1_555 1_555
C18 C24 1_555 1_555
C19 C20 1_555 1_555
C20 H7 1_555 1_555
C21 C20 1_555 1_555
H8 C21 1_555 1_555
C22 H9 1_555 1_555
C23 C19 1_555 1_555
H10 C23 1_555 1_555
C24 C25 1_555 1_555
C25 H11 1_555 1_555
C26 C25 1_555 1_555
H12 C26 1_555 1_555
C27 H13 1_555 1_555
C28 C24 1_555 1_555
H14 C28 1_555 1_555
C29 C30 1_555 1_555
C30 C31 1_555 1_555
C31 C32 1_555 1_555
C32 H15 1_555 1_555
C33 C32 1_555 1_555
C34 C33 1_555 1_555
C35 C30 1_555 1_555
H16 C35 1_555 1_555
C36 C34 1_555 1_555
C37 C33 1_555 1_555
C38 C31 1_555 1_555
C39 H17 1_555 1_555
C40 C39 1_555 1_555
H18 C40 1_555 1_555
C41 C40 1_555 1_555
C42 C41 1_555 1_555
H19 C42 1_555 1_555
C43 C42 1_555 1_555
H20 C43 1_555 1_555
C44 C41 1_555 1_555
C45 C52 1_555 1_555
C46 C47 1_555 1_555
C47 C48 1_555 1_555
C48 H21 1_555 1_555
C49 C48 1_555 1_555
H22 C49 1_555 1_555
C50 H23 1_555 1_555
C51 C47 1_555 1_555
H24 C51 1_555 1_555
C52 C53 1_555 1_555
C53 H25 1_555 1_555
C54 C53 1_555 1_555
H26 C54 1_555 1_555
C55 H27 1_555 1_555
C56 C52 1_555 1_555
H28 C56 1_555 1_555
N1 C11 1_555 1_555
N2 C16 1_555 1_555
N3 C17 1_555 1_555
N4 C16 1_555 1_555
N5 C21 1_555 1_555
N6 C26 1_555 1_555
N7 C39 1_555 1_555
N8 C44 1_555 1_555
N9 C44 1_555 1_555
N10 C45 1_555 1_555
N11 C49 1_555 1_555
N12 Cu1 1_555 1_555
O1 Cu1 1_555 1_555
O2 C1 1_555 1_555
O3 C8 1_555 1_555
O4 C8 1_555 1_555
O5 C9 1_555 1_555
O6 C9 1_555 1_555
H29 O6 1_555 1_555
O7 C10 1_555 1_555
O8 C10 1_555 1_555
O9 Cu1 1_555 1_555
O10 C29 1_555 1_555
O11 C38 1_555 1_555
O12 C38 1_555 1_555
O13 C37 1_555 1_555
H30 O13 1_555 1_555
O14 C37 1_555 1_555
O15 C36 1_555 1_555
O16 C36 1_555 1_555
O17 Cu1 1_555 1_555
H31 O17 1_555 1_555
H32 O17 1_555 1_555
O18 H33 1_555 1_555
H34 O18 1_555 1_555
O19 H35 1_555 1_555
H36 O19 1_555 1_555
O20 H37 1_555 1_555
H38 O20 1_555 1_555
Cu2_2 N11 1_555 1_555
Cu2_3 O4 1_555 1_555
Cu2_4 O16 1_555 1_555
Cu3_2 N7 1_555 1_555
Cu3_3 O7 1_555 1_555
Cu3_4 O11 1_555 1_555
N7_2 Cu3 1_555 1_555
N11_2 Cu2 1_555 1_555
O4_2 Cu2 1_555 1_555
O7_2 Cu3 1_555 1_555
O11_2 Cu3 1_555 1_555
O16_2 Cu2 1_555 1_555
C1 O1 1_555 1_555
C6 C7 1_555 1_555
C15 N1 1_555 1_555
C17 N2 1_555 1_555
C18 N3 1_555 1_555
C18 N4 1_555 1_555
C22 C23 1_555 1_555
C22 N5 1_555 1_555
C27 C28 1_555 1_555
C27 N6 1_555 1_555
C29 O9 1_555 1_555
C34 C35 1_555 1_555
C43 N7 1_555 1_555
C45 N8 1_555 1_555
C46 N9 1_555 1_555
C46 N10 1_555 1_555
C50 C51 1_555 1_555
C50 N11 1_555 1_555
C54 N12 1_555 1_555
C55 C56 1_555 1_555
C55 N12 1_555 1_555

#END
