
#######################################################################
#
#                 Cambridge Crystallographic Data Centre
#                                CCDC 
#
#######################################################################
#
# If this CIF has been generated from an entry in the Cambridge 
# Structural Database, then it will include bibliographic, chemical, 
# crystal, experimental, refinement or atomic coordinate data resulting 
# from the CCDC's data processing and validation procedures.
#
#######################################################################

data_EKAVOC
_symmetry_cell_setting           monoclinic
_symmetry_space_group_name_H-M   'P 21/c'
_symmetry_Int_Tables_number      14
_space_group_name_Hall           '-P 2ybc'
loop_
_symmetry_equiv_pos_site_id
_symmetry_equiv_pos_as_xyz
1 x,y,z
2 -x,1/2+y,1/2-z
3 -x,-y,-z
4 x,1/2-y,1/2+z
_cell_length_a                   25.529(5)
_cell_length_b                   19.783(4)
_cell_length_c                   26.696(5)
_cell_angle_alpha                90
_cell_angle_beta                 117.71(3)
_cell_angle_gamma                90
_cell_volume                     11936.3
loop_
_atom_site_label
_atom_site_type_symbol
_atom_site_fract_x
_atom_site_fract_y
_atom_site_fract_z
W1 W 0.09415(6) -0.46036(6) 0.24318(5)
W2 W 0.00907(6) -0.32422(7) 0.23371(5)
W3 W 0.13960(6) -0.25337(6) 0.35724(5)
W4 W 0.02329(6) -0.37418(7) 0.11820(5)
W5 W 0.23389(7) -0.44039(7) 0.23231(5)
W6 W 0.22711(7) -0.38588(7) 0.36322(5)
W7 W 0.16407(7) -0.34593(7) 0.11295(5)
W8 W 0.42564(6) -0.00185(7) 0.22265(6)
W9 W 0.22777(7) 0.18705(8) 0.28560(7)
W10 W 0.41535(7) 0.23895(8) 0.27594(7)
W11 W 0.06452(8) -0.14840(8) 0.22487(7)
W12 W 0.47677(7) 0.07555(8) 0.35060(6)
W13 W 0.26430(9) 0.00660(10) 0.11766(7)
W14 W 0.36520(7) 0.15915(9) 0.14881(7)
W15 W 0.37241(7) 0.17471(9) 0.38383(7)
W16 W 0.26963(8) 0.24938(8) 0.17809(8)
W17 W 0.28314(10) -0.27717(10) 0.22848(8)
W18 W 0.06884(9) -0.19557(9) 0.10613(7)
W19 W 0.28067(10) 0.03457(12) 0.35061(8)
W20 W 0.26762(10) -0.22114(10) 0.35103(8)
W21 W 0.17035(10) 0.09554(10) 0.14596(9)
W22 W 0.38282(11) -0.06331(12) 0.31734(10)
Ce1 Ce 0.20477(8) -0.09096(8) 0.21087(7)
As1 As 0.14594(13) -0.29380(15) 0.23095(11)
As2 As 0.32124(14) 0.09158(15) 0.24715(12)
O1 O 0.2678(14) -0.0009(16) 0.3988(11)
O2 O 0.2314(11) 0.3236(11) 0.1447(10)
O3 O 0.4683(12) 0.3005(13) 0.3032(11)
O4 O 0.1199(11) -0.1329(10) 0.1223(8)
O5 O 0.1222(9) -0.2256(10) 0.4074(7)
O6 O -0.0542(9) -0.3192(9) 0.2425(7)
O7 O 0.1238(12) -0.2647(13) 0.1013(10)
O8 O 0.2920(12) -0.3786(13) 0.2413(10)
O9 O 0.3273(13) -0.1867(13) 0.4000(10)
O10 O 0.0340(8) -0.4192(9) 0.2551(7)
O11 O 0.2351(11) -0.1599(12) 0.2998(9)
O12 O 0.1225(11) -0.2155(12) 0.2037(9)
O13 O 0.2460(11) -0.2041(12) 0.2057(10)
O14 O 0.0429(8) -0.4586(9) 0.1651(7)
O15 O 0.1785(8) -0.3344(9) 0.3913(7)
O16 O 0.1906(10) -0.3293(11) 0.2084(8)
O17 O 0.2512(9) -0.4183(10) 0.3097(7)
O18 O 0.1186(10) -0.0899(10) 0.2283(8)
O19 O 0.2176(11) -0.2094(11) 0.3872(9)
O20 O 0.0862(9) -0.3465(9) 0.2125(7)
O21 O 0.1936(11) 0.0615(12) 0.0928(9)
O22 O 0.3111(10) -0.0754(11) 0.2627(9)
O23 O 0.3398(9) 0.1647(10) 0.2231(7)
O24 O 0.2808(11) -0.3172(12) 0.3872(9)
O25 O 0.0205(11) -0.1806(11) 0.0381(9)
O26 O 0.0137(10) -0.0994(10) 0.2330(8)
O27 O 0.0923(10) -0.3863(10) 0.1100(8)
O28 O 0.1599(9) -0.4641(9) 0.2264(7)
O29 O 0.2642(11) 0.0534(11) 0.1963(9)
O30 O 0.4176(15) 0.2210(14) 0.2090(10)
O31 O -0.0247(9) -0.3536(9) 0.1575(7)
O32 O 0.3477(12) -0.0159(11) 0.1682(8)
O33 O 0.1520(9) 0.0190(10) 0.1641(7)
O34 O 0.3038(10) 0.1175(11) 0.2971(9)
O35 O 0.2376(12) -0.0038(13) 0.2904(10)
O36 O 0.1511(9) -0.4283(9) 0.3141(7)
O37 O 0.0260(10) -0.2852(11) 0.1083(8)
O38 O 0.1075(10) -0.1829(11) 0.2991(9)
O39 O 0.1852(10) 0.1366(12) 0.2168(10)
O40 O 0.4310(10) 0.1149(11) 0.3860(8)
O41 O 0.0303(10) -0.1532(10) 0.1434(9)
O42 O 0.1968(9) -0.4310(10) 0.1523(7)
O43 O 0.1842(10) -0.2904(11) 0.3014(8)
O44 O 0.4647(11) -0.0410(13) 0.1927(10)
O45 O -0.0312(11) -0.4054(11) 0.0532(9)
O46 O 0.4869(10) 0.0357(11) 0.2900(8)
O47 O 0.1028(11) 0.1289(12) 0.1034(10)
O48 O 0.3035(12) 0.0997(12) 0.1199(9)
O49 O 0.2356(12) -0.0593(13) 0.1359(10)
O50 O 0.0727(10) -0.3055(10) 0.3095(8)
O51 O 0.3794(12) 0.0394(14) 0.2739(10)
O52 O 0.0189(9) -0.2398(10) 0.2181(7)
O53 O 0.2930(10) -0.2687(11) 0.3023(9)
O54 O 0.0862(10) -0.5428(10) 0.2577(8)
O55 O 0.2554(10) -0.4444(10) 0.4142(8)
O56 O 0.3999(13) -0.1345(15) 0.3515(11)
O57 O 0.3505(13) -0.2579(13) 0.2343(10)
O58 O 0.4578(12) -0.0131(13) 0.3678(9)
O59 O 0.2420(11) -0.3084(12) 0.1467(9)
O60 O 0.4155(10) 0.0878(11) 0.1908(9)
O61 O 0.4610(11) 0.1600(11) 0.3088(9)
O62 O 0.3458(11) 0.2930(12) 0.2310(10)
O63 O 0.3416(12) 0.1054(12) 0.4034(9)
O64 O 0.4078(12) 0.2168(14) 0.4440(10)
O65 O 0.2614(11) -0.0194(12) 0.0546(9)
O66 O 0.2168(11) 0.1841(12) 0.1436(10)
O67 O 0.2244(11) 0.1083(12) 0.3317(9)
O68 O 0.5460(11) 0.0849(12) 0.3997(9)
O69 O 0.2689(12) -0.5186(11) 0.2421(9)
O70 O 0.3072(12) 0.2364(13) 0.1310(10)
O71 O 0.4234(12) -0.0720(12) 0.2692(10)
O72 O 0.2978(11) 0.2201(12) 0.3521(9)
O73 O 0.1758(9) 0.2399(11) 0.2890(9)
O74 O 0.3883(11) 0.2283(12) 0.3310(9)
O75 O 0.3862(10) 0.1715(12) 0.0976(9)
O76 O 0.1526(11) -0.3631(11) 0.0467(8)
O77 O 0.2557(13) 0.2423(13) 0.2419(12)
O78 O 0.3481(12) -0.0086(13) 0.3567(10)
K1 K -0.0958(4) -0.1746(4) 0.2057(3)
K2 K 0.5354(5) 0.2946(5) 0.2390(5)
N1 N 0.0062(15) -0.1161(16) 0.4182(12)
N2 N -0.0980(16) -0.1314(15) 0.3929(10)
N3 N -0.0348(13) -0.2302(13) 0.4178(10)
N4 N -0.0630(11) -0.1703(12) 0.3272(9)
N5 N 0.6223(13) 0.2940(14) 0.3678(11)
N6 N 0.7178(15) 0.3055(17) 0.4433(12)
N7 N 0.6587(18) 0.2046(19) 0.4399(14)
N8 N 0.635(2) 0.315(3) 0.459(2)
C1 C -0.0098(16) -0.1321(18) 0.3572(12)
H1 H -0.0137 -0.0899 0.3373
H2 H 0.0227 -0.1571 0.3567
C2 C -0.043(2) -0.089(2) 0.4205(18)
H3 H -0.0517 -0.0446 0.4022
H4 H -0.0336 -0.0816 0.4598
C3 C 0.0222(17) -0.1864(18) 0.4463(14)
H5 H 0.0354 -0.1827 0.4867
H6 H 0.0537 -0.2067 0.4407
C4 C -0.109(2) -0.138(2) 0.3372(18)
H7 H -0.1158 -0.0929 0.3207
H8 H -0.1453 -0.1632 0.3170
C5 C -0.0796(19) -0.198(2) 0.4252(16)
H9 H -0.0659 -0.1900 0.4652
H10 H -0.1137 -0.2281 0.4119
C6 C -0.0514(16) -0.2361(15) 0.3578(12)
H11 H -0.0199 -0.2593 0.3541
H12 H -0.0866 -0.2639 0.3398
C7 C 0.6779(18) 0.314(2) 0.3830(14)
H13 H 0.6773 0.3617 0.3734
H14 H 0.6932 0.2890 0.3615
C8 C 0.624(2) 0.218(2) 0.3805(19)
H15 H 0.5839 0.2019 0.3679
H16 H 0.6405 0.1938 0.3596
C9 C 0.700(2) 0.345(3) 0.480(2)
H17 H 0.6990 0.3930 0.4731
H18 H 0.7248 0.3356 0.5198
C10 C 0.639(3) 0.245(3) 0.469(2)
H19 H 0.6647 0.2388 0.5092
H20 H 0.5998 0.2297 0.4615
C11 C 0.603(2) 0.332(2) 0.4016(17)
H21 H 0.6073 0.3801 0.3969
H22 H 0.5609 0.3235 0.3889
C12 C 0.710(2) 0.222(3) 0.447(2)
H23 H 0.7175 0.2002 0.4184
H24 H 0.7398 0.2062 0.4837
O80 O 0.435(4) 0.388(4) 0.173(3)
O94 O -0.217(4) -0.104(4) 0.184(3)
C19 C 0.068(2) -0.070(2) 0.4458(19)
H37 H 0.0596 -0.0258 0.4293
H38 H 0.0971 -0.0916 0.4381
H39 H 0.0826 -0.0666 0.4860
O96 O 0.482(3) 0.273(3) 0.121(2)
O54A O -0.0862(10) -0.0428(10) 0.2423(8)
O57A O 0.6495(13) 0.2421(13) 0.2657(10)
O71A O 0.5766(12) 0.4280(12) 0.2308(10)
O73A O -0.1758(9) -0.2601(11) 0.2110(9)
K1A K 0.0958(4) -0.6746(4) 0.2943(3)
K1A_2 K 0.0958(4) 0.3254(4) 0.2943(3)
K2A K 0.4646(5) -0.2054(5) 0.2610(5)
Na1 Na 0.1564(9) 0.1501(12) 0.3932(8)
Na2 Na -0.4584(12) 0.1500(14) 0.2493(11)
Na3 Na -0.3142(16) -0.1346(14) 0.1952(12)
Na4 Na -0.0996(13) 0.7753(14) 0.1021(11)
Na5 Na -0.0999(8) 0.5533(9) 0.2628(7)
N9 N -0.0098(13) 1.0525(14) 0.1171(11)
N10 N -0.1019(11) 0.9916(12) 0.0800(9)
N11 N -0.0441(12) 0.9914(11) 0.0316(10)
N12 N -0.0906(11) 1.0940(12) 0.0312(9)
C13 C -0.0822(14) 0.9479(14) 0.0448(11)
H25 H -0.0607 0.9085 0.0661
H26 H -0.1161 0.9328 0.0104
C14 C -0.0506(15) 1.0163(16) 0.1310(12)
H27 H -0.0640 1.0461 0.1517
H28 H -0.0303 0.9784 0.1554
C15 C -0.0397(18) 1.1120(19) 0.0883(15)
H29 H -0.0123 1.1416 0.0832
H30 H -0.0547 1.1359 0.1108
C16 C 0.0079(14) 1.0075(15) 0.0807(11)
H31 H 0.0352 1.0313 0.0711
H32 H 0.0270 0.9667 0.1012
C17 C -0.1321(14) 1.0565(15) 0.0464(12)
H33 H -0.1676 1.0445 0.0122
H34 H -0.1435 1.0853 0.0691
C18 C -0.0705(14) 1.0488(14) 0.0020(11)
H35 H -0.1039 1.0360 -0.0336
H36 H -0.0425 1.0726 -0.0068
C20 C -0.1455(17) 0.9563(19) 0.0896(14)
H40 H -0.1288 0.9150 0.1097
H41 H -0.1790 0.9461 0.0540
H42 H -0.1578 0.9841 0.1117
O79 O 0.0967(15) 0.0328(17) 0.3409(13)
O81 O -0.371(3) 0.064(3) 0.301(2)
O82 O -0.1061(19) 0.794(2) 0.0014(16)
O83 O -0.193(3) 0.821(3) -0.012(2)
O84 O 0.540(2) 0.891(3) 0.433(2)
O85 O 0.1864(19) 0.458(2) 0.0917(16)
O86 O 0.447(4) 1.028(4) 0.487(3)
O87 O 0.322(4) 1.043(4) 0.007(3)
O88 O 0.427(2) 0.729(3) 0.398(2)
O89 O 0.382(2) 0.914(3) 0.484(2)
O90 O 0.468(3) 0.832(3) 0.487(3)
O91 O 0.219(3) 0.609(3) -0.017(2)
O92 O -0.389(3) -0.071(3) 0.232(3)
O93 O 0.1674(16) 0.9280(17) 0.3759(14)
O95 O 0.199(5) 0.465(5) -0.009(4)
loop_
_geom_bond_atom_site_label_1
_geom_bond_atom_site_label_2
_geom_bond_site_symmetry_1
_geom_bond_site_symmetry_2
W1 O10 1_555 1_555
W2 O6 1_555 1_555
W3 O5 1_555 1_555
W4 O14 1_555 1_555
W5 O8 1_555 1_555
W6 O15 1_555 1_555
W7 O7 1_555 1_555
W8 O32 1_555 1_555
W9 O34 1_555 1_555
W10 O3 1_555 1_555
W11 O12 1_555 1_555
W12 O40 1_555 1_555
W13 O21 1_555 1_555
W14 O23 1_555 1_555
W15 O34 1_555 1_555
W16 O2 1_555 1_555
W17 O8 1_555 1_555
W18 O4 1_555 1_555
W19 O1 1_555 1_555
W20 O9 1_555 1_555
W21 O21 1_555 1_555
W22 O22 1_555 1_555
Ce1 O4 1_555 1_555
As1 O12 1_555 1_555
As2 O23 1_555 1_555
O3 K2 1_555 1_555
O6 K1 1_555 1_555
O7 W18 1_555 1_555
O10 W2 1_555 1_555
O11 W20 1_555 1_555
O12 W18 1_555 1_555
O13 W17 1_555 1_555
O14 W1 1_555 1_555
O15 W3 1_555 1_555
O16 W5 1_555 1_555
O17 W5 1_555 1_555
O18 W11 1_555 1_555
O19 W3 1_555 1_555
O20 W1 1_555 1_555
O22 Ce1 1_555 1_555
O23 W10 1_555 1_555
O24 W6 1_555 1_555
O25 W18 1_555 1_555
O26 W11 1_555 1_555
O27 W4 1_555 1_555
O28 W1 1_555 1_555
O29 W13 1_555 1_555
O30 W10 1_555 1_555
O31 W2 1_555 1_555
O32 W13 1_555 1_555
O33 W21 1_555 1_555
O34 W19 1_555 1_555
O35 W19 1_555 1_555
O36 W1 1_555 1_555
O37 W4 1_555 1_555
O38 W3 1_555 1_555
O39 W9 1_555 1_555
O40 W15 1_555 1_555
O41 W11 1_555 1_555
O42 W5 1_555 1_555
O43 W3 1_555 1_555
O44 W8 1_555 1_555
O45 W4 1_555 1_555
O46 W8 1_555 1_555
O47 W21 1_555 1_555
O48 W13 1_555 1_555
O49 W13 1_555 1_555
O50 W2 1_555 1_555
O51 W8 1_555 1_555
O52 W2 1_555 1_555
O53 W17 1_555 1_555
O54 W1 1_555 1_555
O55 W6 1_555 1_555
O56 W22 1_555 1_555
O57 W17 1_555 1_555
O58 W12 1_555 1_555
O59 W7 1_555 1_555
O60 W8 1_555 1_555
O61 W10 1_555 1_555
O62 W10 1_555 1_555
O63 W15 1_555 1_555
O64 W15 1_555 1_555
O65 W13 1_555 1_555
O66 W16 1_555 1_555
O67 W9 1_555 1_555
O68 W12 1_555 1_555
O69 W5 1_555 1_555
O70 W14 1_555 1_555
O71 W8 1_555 1_555
O72 W9 1_555 1_555
O73 W9 1_555 1_555
O74 W10 1_555 1_555
O75 W14 1_555 1_555
O76 W7 1_555 1_555
O77 W9 1_555 1_555
O78 W19 1_555 1_555
K1 O26 1_555 1_555
K2 O30 1_555 1_555
N1 C1 1_555 1_555
N2 C2 1_555 1_555
N3 C3 1_555 1_555
N4 K1 1_555 1_555
N5 K2 1_555 1_555
N6 C7 1_555 1_555
N7 C8 1_555 1_555
N8 C9 1_555 1_555
N9 C14 1_555 1_555
N10 C13 1_555 1_555
N11 C13 1_555 1_555
N12 C15 1_555 1_555
C1 N4 1_555 1_555
H1 C1 1_555 1_555
H2 C1 1_555 1_555
C2 N1 1_555 1_555
H3 C2 1_555 1_555
H4 C2 1_555 1_555
C3 N1 1_555 1_555
H5 C3 1_555 1_555
H6 C3 1_555 1_555
C4 N2 1_555 1_555
H7 C4 1_555 1_555
H8 C4 1_555 1_555
C5 N2 1_555 1_555
H9 C5 1_555 1_555
H10 C5 1_555 1_555
C6 N3 1_555 1_555
H11 C6 1_555 1_555
H12 C6 1_555 1_555
C7 N5 1_555 1_555
H13 C7 1_555 1_555
H14 C7 1_555 1_555
C8 N5 1_555 1_555
H15 C8 1_555 1_555
H16 C8 1_555 1_555
C9 N6 1_555 1_555
H17 C9 1_555 1_555
H18 C9 1_555 1_555
C10 N7 1_555 1_555
H19 C10 1_555 1_555
H20 C10 1_555 1_555
C11 N5 1_555 1_555
H21 C11 1_555 1_555
H22 C11 1_555 1_555
C12 N6 1_555 1_555
H23 C12 1_555 1_555
H24 C12 1_555 1_555
C13 H25 1_555 1_555
H26 C13 1_555 1_555
C14 N10 1_555 1_555
H27 C14 1_555 1_555
H28 C14 1_555 1_555
C15 N9 1_555 1_555
H29 C15 1_555 1_555
H30 C15 1_555 1_555
C16 N9 1_555 1_555
H31 C16 1_555 1_555
H32 C16 1_555 1_555
C17 N10 1_555 1_555
H33 C17 1_555 1_555
H34 C17 1_555 1_555
C18 N11 1_555 1_555
H35 C18 1_555 1_555
H36 C18 1_555 1_555
O80 K2 1_555 1_555
O94 K1 1_555 1_555
C19 N1 1_555 1_555
H37 C19 1_555 1_555
H38 C19 1_555 1_555
H39 C19 1_555 1_555
C20 N10 1_555 1_555
H40 C20 1_555 1_555
H41 C20 1_555 1_555
H42 C20 1_555 1_555
O96 K2 1_555 1_555
O54A K1 1_555 1_555
O57A K2 1_555 1_555
O71A K2 1_555 1_555
O73A K1 1_555 1_555
K1A O54 1_555 1_555
K1A_2 O73 1_555 1_555
K2A O57 1_555 1_555
W2 O20 1_555 1_555
W3 O50 1_555 1_555
W4 O20 1_555 1_555
W4 O31 1_555 1_555
W5 O28 1_555 1_555
W6 O17 1_555 1_555
W6 O36 1_555 1_555
W6 O43 1_555 1_555
W7 O16 1_555 1_555
W7 O27 1_555 1_555
W7 O42 1_555 1_555
W11 O38 1_555 1_555
W11 O52 1_555 1_555
W12 O46 1_555 1_555
W12 O51 1_555 1_555
W12 O61 1_555 1_555
W14 O30 1_555 1_555
W14 O48 1_555 1_555
W14 O60 1_555 1_555
W15 O72 1_555 1_555
W15 O74 1_555 1_555
W16 O23 1_555 1_555
W16 O62 1_555 1_555
W16 O70 1_555 1_555
W16 O77 1_555 1_555
W17 O16 1_555 1_555
W17 O59 1_555 1_555
W18 O37 1_555 1_555
W18 O41 1_555 1_555
W19 O63 1_555 1_555
W19 O67 1_555 1_555
W20 O19 1_555 1_555
W20 O24 1_555 1_555
W20 O43 1_555 1_555
W20 O53 1_555 1_555
W21 O29 1_555 1_555
W21 O39 1_555 1_555
W21 O66 1_555 1_555
W22 O51 1_555 1_555
W22 O58 1_555 1_555
W22 O71 1_555 1_555
W22 O78 1_555 1_555
Ce1 O11 1_555 1_555
Ce1 O12 1_555 1_555
Ce1 O13 1_555 1_555
Ce1 O18 1_555 1_555
Ce1 O33 1_555 1_555
Ce1 O35 1_555 1_555
Ce1 O49 1_555 1_555
As1 O16 1_555 1_555
As1 O20 1_555 1_555
As1 O43 1_555 1_555
As2 O29 1_555 1_555
As2 O34 1_555 1_555
As2 O51 1_555 1_555
O52 K1 1_555 1_555
O71 K2A 1_555 1_555
N3 C5 1_555 1_555
N4 C4 1_555 1_555
N4 C6 1_555 1_555
N7 C12 1_555 1_555
N8 C10 1_555 1_555
N8 C11 1_555 1_555
N11 C16 1_555 1_555
N12 C17 1_555 1_555
N12 C18 1_555 1_555

#END
