
#######################################################################
#
#                 Cambridge Crystallographic Data Centre
#                                CCDC 
#
#######################################################################
#
# If this CIF has been generated from an entry in the Cambridge 
# Structural Database, then it will include bibliographic, chemical, 
# crystal, experimental, refinement or atomic coordinate data resulting 
# from the CCDC's data processing and validation procedures.
#
#######################################################################

data_EKAWIX
_symmetry_cell_setting           orthorhombic
_symmetry_space_group_name_H-M   'P n a 21'
_symmetry_Int_Tables_number      33
_space_group_name_Hall           'P 2c -2n'
loop_
_symmetry_equiv_pos_site_id
_symmetry_equiv_pos_as_xyz
1 x,y,z
2 -x,-y,1/2+z
3 1/2-x,1/2+y,1/2+z
4 1/2+x,1/2-y,z
_cell_length_a                   18.6717(8)
_cell_length_b                   12.5822(5)
_cell_length_c                   12.0263(5)
_cell_angle_alpha                90
_cell_angle_beta                 90
_cell_angle_gamma                90
_cell_volume                     2825.35
loop_
_atom_site_label
_atom_site_type_symbol
_atom_site_fract_x
_atom_site_fract_y
_atom_site_fract_z
Cu1 Cu 0.70256(3) 0.73551(4) 0.27797(7)
O1 O 0.8260(2) 0.7302(4) 0.2602(5)
H1 H 0.8430 0.7434 0.3270
N1 N 0.6838(3) 0.6784(4) 0.6148(4)
N2 N 0.7394(3) 0.6138(4) 0.5969(5)
N3 N 0.7072(3) 0.6963(4) 0.4393(4)
N4 N 0.6488(3) 0.8050(4) 0.9549(4)
N5 N 0.7111(3) 0.8628(5) 0.9570(5)
N6 N 0.6937(2) 0.7758(3) 1.1162(4)
N7 N 0.6541(3) 1.0478(3) 0.3379(4)
N8 N 0.7119(3) 1.0439(4) 0.4059(5)
N9 N 0.6970(2) 0.8906(4) 0.3184(4)
N10 N 0.6408(3) 1.4252(3) 0.2407(4)
N11 N 0.6828(4) 1.4279(4) 0.1495(6)
N12 N 0.6857(3) 1.5826(4) 0.2400(4)
C1 C 0.7537(4) 0.6272(5) 0.4914(5)
H2 H 0.7914 0.5935 0.4552
C2 C 0.6652(4) 0.7259(5) 0.5206(6)
H3 H 0.6275 0.7737 0.5135
C3 C 0.6523(4) 0.6864(6) 0.7266(5)
H4 H 0.6866 0.6621 0.7816
H5 H 0.6102 0.6416 0.7313
C4 C 0.6321(5) 0.8005(7) 0.7499(5)
H6 H 0.6747 0.8445 0.7456
H7 H 0.5990 0.8247 0.6931
C5 C 0.5979(4) 0.8149(7) 0.8625(6)
H8 H 0.5757 0.8845 0.8657
H9 H 0.5605 0.7622 0.8716
C6 C 0.7352(3) 0.8419(5) 1.0559(5)
H10 H 0.7777 0.8703 1.0829
C7 C 0.6398(4) 0.7567(5) 1.0492(6)
H11 H 0.6006 0.7144 1.0669
C8 C 0.7343(3) 0.9482(4) 0.3913(6)
H12 H 0.7738 0.9211 0.4290
C9 C 0.6460(3) 0.9569(4) 0.2863(6)
H13 H 0.6101 0.9415 0.2352
C10 C 0.6085(3) 1.1416(4) 0.3336(5)
H14 H 0.5902 1.1566 0.4074
H15 H 0.5680 1.1277 0.2852
C11 C 0.6490(3) 1.2372(4) 0.2912(8)
H16 H 0.6743 1.2181 0.2236
H17 H 0.6841 1.2587 0.3461
C12 C 0.5990(3) 1.3295(4) 0.2674(7)
H18 H 0.5680 1.3118 0.2054
H19 H 0.5691 1.3430 0.3319
C13 C 0.7093(4) 1.5248(5) 0.1517(6)
H20 H 0.7408 1.5510 0.0986
C14 C 0.6430(3) 1.5150(4) 0.2922(6)
H21 H 0.6181 1.5303 0.3572
O11 O 0.5590(3) 0.7449(4) 0.2944(7)
H24 H 0.5599 0.7894 0.3477
H25 H 0.5298 0.6933 0.2999
C15 C 0.8729(6) 0.6673(12) 0.1879(11)
H26 H 0.8807 0.5987 0.2207
H27 H 0.9179 0.7032 0.1793
H28 H 0.8507 0.6589 0.1165
Cu1_2 Cu 0.70256(3) 0.73551(4) 1.27797(7)
Cu1_3 Cu 0.70256(3) 1.73551(4) 0.27797(7)
N6_2 N 0.6937(2) 0.7758(3) 0.1162(4)
N12_2 N 0.6857(3) 0.5826(4) 0.2400(4)
Cl1 Cl 0.51298(10) 0.06553(16) 0.02325(18)
O2 O 0.5358(8) 0.1582(8) 0.0778(12)
O3 O 0.4356(3) 0.0529(9) 0.0303(10)
O4 O 0.5297(7) 0.0732(10) -0.0953(7)
O5 O 0.5432(6) -0.0297(7) 0.0669(10)
Cl2 Cl 0.97250(11) 0.96032(18) 0.0684(2)
O6 O 0.9005(4) 0.9376(8) 0.0485(9)
O7 O 0.9963(6) 0.9420(9) 0.1766(7)
O8 O 1.0187(6) 0.9227(11) -0.0173(9)
O9 O 0.9772(6) 1.0801(6) 0.0547(11)
O10 O 0.9082(4) 0.8382(10) 0.4081(9)
H22 H 0.9045 0.8887 0.3616
H23 H 0.9288 0.8520 0.4695
O12? O 0.5055(9) 0.1763(8) 0.0553(14)
O13? O 0.4727(11) -0.0002(14) 0.0963(14)
O14? O 0.4903(10) 0.0551(13) -0.0894(8)
O15? O 0.5877(5) 0.0365(15) 0.0326(17)
loop_
_geom_bond_atom_site_label_1
_geom_bond_atom_site_label_2
_geom_bond_site_symmetry_1
_geom_bond_site_symmetry_2
Cu1 O1 1_555 1_555
O1 H1 1_555 1_555
N1 N2 1_555 1_555
N2 C1 1_555 1_555
N3 Cu1 1_555 1_555
N4 N5 1_555 1_555
N5 C6 1_555 1_555
N6 C6 1_555 1_555
N7 N8 1_555 1_555
N8 C8 1_555 1_555
N9 Cu1 1_555 1_555
N10 N11 1_555 1_555
N11 C13 1_555 1_555
N12 C13 1_555 1_555
Cl1 O2 1_555 1_555
Cl2 O6 1_555 1_555
C1 N3 1_555 1_555
H2 C1 1_555 1_555
C2 N1 1_555 1_555
H3 C2 1_555 1_555
C3 N1 1_555 1_555
H4 C3 1_555 1_555
H5 C3 1_555 1_555
C4 C3 1_555 1_555
H6 C4 1_555 1_555
H7 C4 1_555 1_555
C5 N4 1_555 1_555
H8 C5 1_555 1_555
H9 C5 1_555 1_555
C6 H10 1_555 1_555
C7 N4 1_555 1_555
H11 C7 1_555 1_555
C8 N9 1_555 1_555
H12 C8 1_555 1_555
C9 N7 1_555 1_555
H13 C9 1_555 1_555
C10 N7 1_555 1_555
H14 C10 1_555 1_555
H15 C10 1_555 1_555
C11 C10 1_555 1_555
H16 C11 1_555 1_555
H17 C11 1_555 1_555
C12 N10 1_555 1_555
H18 C12 1_555 1_555
H19 C12 1_555 1_555
C13 H20 1_555 1_555
C14 N10 1_555 1_555
H21 C14 1_555 1_555
O3 Cl1 1_555 1_555
O4 Cl1 1_555 1_555
O5 Cl1 1_555 1_555
O7 Cl2 1_555 1_555
O8 Cl2 1_555 1_555
O9 Cl2 1_555 1_555
O10 H22 1_555 1_555
H23 O10 1_555 1_555
O11 Cu1 1_555 1_555
H24 O11 1_555 1_555
H25 O11 1_555 1_555
C15 O1 1_555 1_555
H26 C15 1_555 1_555
H27 C15 1_555 1_555
H28 C15 1_555 1_555
Cu1_2 N6 1_555 1_555
Cu1_3 N12 1_555 1_555
N6_2 Cu1 1_555 1_555
N12_2 Cu1 1_555 1_555
N3 C2 1_555 1_555
N6 C7 1_555 1_555
N9 C9 1_555 1_555
N12 C14 1_555 1_555
C4 C5 1_555 1_555
C11 C12 1_555 1_555

#END
