
#######################################################################
#
#                 Cambridge Crystallographic Data Centre
#                                CCDC 
#
#######################################################################
#
# If this CIF has been generated from an entry in the Cambridge 
# Structural Database, then it will include bibliographic, chemical, 
# crystal, experimental, refinement or atomic coordinate data resulting 
# from the CCDC's data processing and validation procedures.
#
#######################################################################

data_EKAWOD
_symmetry_cell_setting           monoclinic
_symmetry_space_group_name_H-M   'C 2/c'
_symmetry_Int_Tables_number      15
_space_group_name_Hall           '-C 2yn'
loop_
_symmetry_equiv_pos_site_id
_symmetry_equiv_pos_as_xyz
1 x,y,z
2 -x,y,1/2-z
3 1/2+x,1/2+y,z
4 1/2-x,1/2+y,1/2-z
5 -x,-y,-z
6 x,-y,1/2+z
7 1/2-x,1/2-y,-z
8 1/2+x,1/2-y,1/2+z
_cell_length_a                   6.5702(12)
_cell_length_b                   24.339(4)
_cell_length_c                   17.082(3)
_cell_angle_alpha                90
_cell_angle_beta                 97.915(3)
_cell_angle_gamma                90
_cell_volume                     2705.6
loop_
_atom_site_label
_atom_site_type_symbol
_atom_site_fract_x
_atom_site_fract_y
_atom_site_fract_z
Cu1 Cu 1.2500 0.2500 0.0000
O1 O 1.1303(2) 0.31248(6) 0.05016(8)
O2 O 1.3437(3) 0.36079(6) -0.01192(10)
O3 O 1.4207(3) 0.55651(7) 0.04529(14)
H1 H 1.4708 0.5870 0.0407
O4 O 1.2149(3) 0.60252(7) 0.11353(12)
O5 O 0.6525(3) 0.49943(7) 0.20994(11)
O6 O 0.6432(3) 0.40823(7) 0.20389(12)
N1 N 1.0055(3) 0.24847(7) -0.08185(11)
C1 C 0.9659(4) 0.21604(11) -0.14656(14)
H2 H 1.0585 0.1901 -0.1603
N2 N 0.7860(3) 0.22450(9) -0.18794(13)
C2 C 1.1339(3) 0.40890(8) 0.06995(12)
C3 C 1.2300(3) 0.45896(9) 0.06125(13)
H3 H 1.3418 0.4605 0.0334
C4 C 1.1611(3) 0.50666(8) 0.09365(13)
C5 C 0.9930(3) 0.50462(9) 0.13382(13)
H4 H 0.9440 0.5367 0.1543
C6 C 0.8971(3) 0.45495(9) 0.14374(12)
C7 C 0.9685(3) 0.40684(9) 0.11241(12)
H5 H 0.9054 0.3734 0.1200
C8 C 1.2093(3) 0.35789(8) 0.03274(12)
C9 C 1.2659(4) 0.56050(9) 0.08600(14)
C10 C 0.7191(3) 0.45404(9) 0.18850(13)
C11 C 0.8363(3) 0.27858(9) -0.08438(13)
H6 H 0.8137 0.3053 -0.0476
N3 N 0.7046(3) 0.26498(7) -0.14711(11)
C12 C 0.5024(3) 0.28835(10) -0.17467(14)
H7 H 0.4614 0.3118 -0.1337
H8 H 0.4028 0.2588 -0.1840
C13 C 0.5000 0.32153(14) -0.2500
H9 H 0.3799 0.3451 -0.2558
Cu1A Cu -0.2500 0.2500 -0.5000
O1F O 1.3697(2) 0.18752(6) -0.05016(8)
O2F O 1.1563(3) 0.13921(6) 0.01192(10)
O3F O 1.0793(3) -0.05651(7) -0.04529(14)
H1F H 1.0292 -0.0870 -0.0407
O4F O 1.2851(3) -0.10252(7) -0.11353(12)
O5F O 1.8475(3) 0.00057(7) -0.20994(11)
O6F O 1.8568(3) 0.09177(7) -0.20389(12)
N1A N -0.0055(3) 0.24847(7) -0.41815(11)
N1F N 1.4945(3) 0.25153(7) 0.08185(11)
C1A C 0.0341(4) 0.21604(11) -0.35344(14)
H2A H -0.0585 0.1901 -0.3397
N2A N 0.2140(3) 0.22450(9) -0.31206(13)
C2F C 1.3661(3) 0.09110(8) -0.06995(12)
C3F C 1.2700(3) 0.04104(9) -0.06125(13)
H3F H 1.1582 0.0395 -0.0334
C4F C 1.3389(3) -0.00666(8) -0.09365(13)
C5F C 1.5070(3) -0.00462(9) -0.13382(13)
H4F H 1.5560 -0.0367 -0.1543
C6F C 1.6029(3) 0.04505(9) -0.14374(12)
C7F C 1.5315(3) 0.09316(9) -0.11241(12)
H5F H 1.5946 0.1266 -0.1200
C8F C 1.2907(3) 0.14211(8) -0.03274(12)
C9F C 1.2341(4) -0.06050(9) -0.08600(14)
C10F C 1.7809(3) 0.04596(9) -0.18850(13)
C11A C 0.1637(3) 0.27858(9) -0.41562(13)
H6A H 0.1863 0.3053 -0.4524
N3A N 0.2954(3) 0.26498(7) -0.35289(11)
C12A C 0.4976(3) 0.28835(10) -0.32533(14)
H7A H 0.5386 0.3118 -0.3663
H8A H 0.5972 0.2588 -0.3160
H9A H 0.6201 0.3451 -0.2442
O7 O 0.0000 0.3521(7) 0.7500
loop_
_geom_bond_atom_site_label_1
_geom_bond_atom_site_label_2
_geom_bond_site_symmetry_1
_geom_bond_site_symmetry_2
Cu1 O1 1_555 1_555
O1 C8 1_555 1_555
O2 C8 1_555 1_555
O3 H1 1_555 1_555
O4 C9 1_555 1_555
O5 C10 1_555 1_555
O6 C10 1_555 1_555
N1 Cu1 1_555 1_555
C1 N1 1_555 1_555
H2 C1 1_555 1_555
N2 C1 1_555 1_555
C2 C3 1_555 1_555
C3 H3 1_555 1_555
C4 C3 1_555 1_555
C5 C4 1_555 1_555
H4 C5 1_555 1_555
C6 C5 1_555 1_555
C7 C2 1_555 1_555
H5 C7 1_555 1_555
C8 C2 1_555 1_555
C9 O3 1_555 1_555
C10 C6 1_555 1_555
C11 N1 1_555 1_555
H6 C11 1_555 1_555
N3 N2 1_555 1_555
C12 N3 1_555 1_555
H7 C12 1_555 1_555
H8 C12 1_555 1_555
C13 C12 1_555 1_555
H9 C13 1_555 1_555
Cu1A N1A 1_555 1_555
O1F Cu1 1_555 1_555
O2F C8F 1_555 1_555
O3F H1F 1_555 1_555
O4F C9F 1_555 1_555
O5F C10F 1_555 1_555
O6F C10F 1_555 1_555
N1A C1A 1_555 1_555
N1F Cu1 1_555 1_555
C1A H2A 1_555 1_555
N2A C1A 1_555 1_555
C2F C3F 1_555 1_555
C3F H3F 1_555 1_555
C4F C3F 1_555 1_555
C5F C4F 1_555 1_555
H4F C5F 1_555 1_555
C6F C5F 1_555 1_555
C7F C2F 1_555 1_555
H5F C7F 1_555 1_555
C8F O1F 1_555 1_555
C9F O3F 1_555 1_555
C10F C6F 1_555 1_555
C11A N1A 1_555 1_555
H6A C11A 1_555 1_555
N3A N2A 1_555 1_555
C12A C13 1_555 1_555
H7A C12A 1_555 1_555
H8A C12A 1_555 1_555
H9A C13 1_555 1_555
C4 C9 1_555 1_555
C6 C7 1_555 1_555
C11 N3 1_555 1_555
C2F C8F 1_555 1_555
C4F C9F 1_555 1_555
C6F C7F 1_555 1_555
C11A N3A 1_555 1_555
N3A C12A 1_555 1_555

#END
