
#######################################################################
#
#                 Cambridge Crystallographic Data Centre
#                                CCDC 
#
#######################################################################
#
# If this CIF has been generated from an entry in the Cambridge 
# Structural Database, then it will include bibliographic, chemical, 
# crystal, experimental, refinement or atomic coordinate data resulting 
# from the CCDC's data processing and validation procedures.
#
#######################################################################

data_EKAWUI
_symmetry_cell_setting           monoclinic
_symmetry_space_group_name_H-M   'P 21/a'
_symmetry_Int_Tables_number      14
_space_group_name_Hall           '-P 2yab'
loop_
_symmetry_equiv_pos_site_id
_symmetry_equiv_pos_as_xyz
1 x,y,z
2 1/2+x,1/2-y,z
3 -x,-y,-z
4 1/2-x,1/2+y,-z
_cell_length_a                   34.1916(2)
_cell_length_b                   5.53460(10)
_cell_length_c                   14.02890(10)
_cell_angle_alpha                90
_cell_angle_beta                 113.9980(10)
_cell_angle_gamma                90
_cell_volume                     2425.3
loop_
_atom_site_label
_atom_site_type_symbol
_atom_site_fract_x
_atom_site_fract_y
_atom_site_fract_z
O1 O 0.74906(3) 0.4359(2) 0.0447(3)
O2 O 0.83370(10) 0.1310(7) 0.1894(3)
O3 O 0.83510(10) -0.2550(8) 0.1525(3)
O4 O 0.80786(5) -0.3915(2) 0.28944(9)
C1 C 0.82575(2) -0.1535(2) 0.30844(7)
C2 C 0.83045(6) -0.0804(5) 0.20911(8)
C3 C 0.79416(3) 0.0077(3) 0.32985(6)
C4 C 0.80328(3) 0.1065(3) 0.42734(7)
C5 C 0.77476(3) 0.2603(3) 0.44405(7)
C6 C 0.73513(3) 0.3053(3) 0.36415(7)
C7 C 0.72540(3) 0.2034(3) 0.26675(7)
C8 C 0.75416(3) 0.0497(3) 0.25095(7)
C9 C 0.87036(3) -0.1559(2) 0.39640(10)
C10 C 0.88480(3) -0.3526(2) 0.46250(10)
C11 C 0.92567(3) -0.3616(2) 0.54110(10)
C12 C 0.95501(3) -0.1816(2) 0.54980(10)
C13 C 0.94115(3) 0.0135(2) 0.48260(10)
C14 C 0.89984(3) 0.0243(2) 0.40600(10)
Li1 Li 0.8084(5) 0.459(4) 0.1580(10)
Li2 Li 0.8459(5) -0.227(3) 0.0250(10)
O5 O 0.82418(5) 0.0529(3) -0.0451(3)
C15 C 0.89538(3) 0.1609(2) 0.00457(6)
C16 C 0.84870(3) 0.2152(2) -0.0197(3)
C17 C 0.92648(3) 0.3322(2) 0.08431(6)
C18 C 0.96260(3) 0.4248(2) 0.07600(7)
C19 C 0.98939(3) 0.5831(2) 0.15034(6)
C20 C 0.98200(3) 0.6370(3) 0.23793(6)
C21 C 0.94712(3) 0.5362(3) 0.24944(7)
C22 C 0.91968(3) 0.3847(3) 0.17291(6)
C23 C 0.90045(4) 0.1579(2) -0.09824(6)
C24 C 0.88256(4) 0.3350(2) -0.17322(6)
C25 C 0.88497(4) 0.3210(2) -0.26918(6)
C26 C 0.90475(4) 0.1244(2) -0.29165(6)
C27 C 0.92231(4) -0.0550(2) -0.21776(6)
C28 C 0.92057(4) -0.0366(2) -0.12119(6)
O6 O 0.90328(9) -0.0739(2) 0.05123(8)
O7 O 0.835340(10) 0.4420(8) -0.0230(3)
H1 H 0.71714(4) 0.4518(9) 0.011(3)
H2 H 0.75700(10) 0.2609(2) 0.0558(9)
H3 H 0.80501(7) -0.4529(6) 0.35320(9)
H4 H 0.83178(5) 0.0780(10) 0.4860(2)
H5 H 0.7820(2) 0.3315(5) 0.51473(9)
H6 H 0.71396(4) 0.4100(4) 0.3763(2)
H7 H 0.69669(5) 0.2330(10) 0.20990(2)
H8 H 0.7468(2) -0.0204(5) 0.18004(9)
H9 H 0.86436(5) -0.4865(3) 0.4570(3)
H10 H 0.9347(2) -0.5035(3) 0.58930(10)
H11 H 0.98424(5) -0.1850(10) 0.6079(2)
H12 H 0.9614(5) 0.1488(3) 0.4890(3)
H13 H 0.8911(2) 0.1643(3) 0.3567(2)
H14 H 0.967800(10) 0.3888(8) 0.01260(8)
H15 H 1.01480(4) 0.6535(5) 0.1423(2)
H16 H 1.00157(8) 0.7491(3) 0.2924(2)
H17 H 0.94120(6) 0.5774(8) 0.31172(8)
H18 H 0.89425(4) 0.3154(5) 0.1813(2)
H19 H 0.86759(6) 0.4756(4) -0.1582(2)
H20 H 0.8724(2) 0.4517(3) -0.32210(10)
H21 H 0.90770(6) 0.1160(10) -0.35963(8)
H22 H 0.93760(5) -0.1941(3) -0.2328(2)
H23 H 0.9327(2) -0.1694(3) -0.06910(10)
H24 H 0.90850(10) -0.0600(10) 0.12641(8)
Li1_2 Li 0.8084(5) -0.541(4) 0.1580(10)
O3_2 O 0.83510(10) 0.7450(8) 0.1525(3)
O4_2 O 0.80786(5) 0.6085(2) 0.28944(9)
O7_2 O 0.835340(10) -0.5580(8) -0.0230(3)
Li2_2 Li 0.8459(5) 0.773(3) 0.0250(10)
H3_2 H 0.80501(7) 0.5471(6) 0.35320(9)
loop_
_geom_bond_atom_site_label_1
_geom_bond_atom_site_label_2
_geom_bond_site_symmetry_1
_geom_bond_site_symmetry_2
O1 Li1 1_555 1_555
O2 C2 1_555 1_555
O3 C2 1_555 1_555
O4 C1 1_555 1_555
C1 C2 1_555 1_555
C3 C1 1_555 1_555
C4 C3 1_555 1_555
C5 C4 1_555 1_555
C6 C5 1_555 1_555
C7 C6 1_555 1_555
C8 C3 1_555 1_555
C9 C1 1_555 1_555
C10 C9 1_555 1_555
C11 C10 1_555 1_555
C12 C11 1_555 1_555
C13 C12 1_555 1_555
C14 C9 1_555 1_555
Li1 O2 1_555 1_555
Li2 O3 1_555 1_555
O5 Li2 1_555 1_555
C15 C16 1_555 1_555
C16 O5 1_555 1_555
C17 C15 1_555 1_555
C18 C17 1_555 1_555
C19 C18 1_555 1_555
C20 C19 1_555 1_555
C21 C20 1_555 1_555
C22 C17 1_555 1_555
C23 C15 1_555 1_555
C24 C23 1_555 1_555
C25 C24 1_555 1_555
C26 C25 1_555 1_555
C27 C26 1_555 1_555
C28 C23 1_555 1_555
O6 Li2 1_555 1_555
O7 C16 1_555 1_555
H1 O1 1_555 1_555
H2 O1 1_555 1_555
H3 O4 1_555 1_555
H4 C4 1_555 1_555
H5 C5 1_555 1_555
H6 C6 1_555 1_555
H7 C7 1_555 1_555
H8 C8 1_555 1_555
H9 C10 1_555 1_555
H10 C11 1_555 1_555
H11 C12 1_555 1_555
H12 C13 1_555 1_555
H13 C14 1_555 1_555
H14 C18 1_555 1_555
H15 C19 1_555 1_555
H16 C20 1_555 1_555
H17 C21 1_555 1_555
H18 C22 1_555 1_555
H19 C24 1_555 1_555
H20 C25 1_555 1_555
H21 C26 1_555 1_555
H22 C27 1_555 1_555
H23 C28 1_555 1_555
H24 O6 1_555 1_555
Li1_2 O3 1_555 1_555
O3_2 Li1 1_555 1_555
O4_2 Li1 1_555 1_555
O7_2 Li2 1_555 1_555
Li2_2 O7 1_555 1_555
H3_2 O4_2 1_555 1_555
O4 Li1_2 1_555 1_555
C7 C8 1_555 1_555
C13 C14 1_555 1_555
C15 O6 1_555 1_555
C21 C22 1_555 1_555
C27 C28 1_555 1_555
O3_2 Li2_2 1_555 1_555

#END
