
#######################################################################
#
#                 Cambridge Crystallographic Data Centre
#                                CCDC 
#
#######################################################################
#
# If this CIF has been generated from an entry in the Cambridge 
# Structural Database, then it will include bibliographic, chemical, 
# crystal, experimental, refinement or atomic coordinate data resulting 
# from the CCDC's data processing and validation procedures.
#
#######################################################################

data_EKAWAP
_symmetry_cell_setting           monoclinic
_symmetry_space_group_name_H-M   'P 21/c'
_symmetry_Int_Tables_number      14
_space_group_name_Hall           '-P 2ybc'
loop_
_symmetry_equiv_pos_site_id
_symmetry_equiv_pos_as_xyz
1 x,y,z
2 -x,1/2+y,1/2-z
3 -x,-y,-z
4 x,1/2-y,1/2+z
_cell_length_a                   9.833(3)
_cell_length_b                   12.363(4)
_cell_length_c                   9.027(5)
_cell_angle_alpha                90
_cell_angle_beta                 97.01(3)
_cell_angle_gamma                90
_cell_volume                     1089.17
loop_
_atom_site_label
_atom_site_type_symbol
_atom_site_fract_x
_atom_site_fract_y
_atom_site_fract_z
Zn1 Zn 0.0000 0.0000 0.0000
O1 O 0.0341(2) -0.01798(17) 0.2306(2)
O2 O -0.0674(3) -0.17450(18) 0.2793(2)
O3 O 0.1095(3) 0.15428(18) 0.0231(3)
H1 H 0.096(3) 0.179(3) -0.068(2)
H2 H 0.096(4) 0.210(2) 0.078(3)
N1 N -0.1895(3) 0.0729(2) 0.0252(3)
N2 N -0.5046(3) 0.3870(2) 0.0367(3)
C1 C -0.3028(4) 0.0528(3) -0.0697(4)
H3 H -0.3018 -0.0055 -0.1345
C2 C -0.4203(4) 0.1138(3) -0.0761(4)
H4 H -0.4960 0.0967 -0.1443
C3 C -0.4251(4) 0.2006(3) 0.0194(4)
C4 C -0.3099(4) 0.2195(3) 0.1212(4)
H5 H -0.3094 0.2762 0.1891
C5 C -0.1967(4) 0.1544(3) 0.1217(4)
H6 H -0.1215 0.1676 0.1923
C6 C -0.5480(4) 0.2757(3) 0.0089(4)
H7 H -0.5992 0.2702 -0.0897
H8 H -0.6079 0.2542 0.0814
C7 C -0.6229(4) 0.4583(3) 0.0444(4)
H9 H -0.6755 0.4330 0.1218
H10 H -0.6818 0.4564 -0.0500
C8 C -0.4243(4) 0.4272(3) -0.0780(4)
H11 H -0.4797 0.4249 -0.1745
H12 H -0.3453 0.3809 -0.0826
C9 C -0.0146(3) -0.0834(3) 0.3170(4)
C10 C -0.0143(3) -0.0500(3) 0.4762(3)
H13 H -0.0352 -0.1016 0.5450
Zn1_2 Zn 0.0000 0.0000 1.0000
Zn1_3 Zn -1.0000 1.0000 0.0000
O1B O -0.0341(2) 0.01798(17) 0.7694(2)
O1B_2 O -0.0341(2) 0.01798(17) -0.2306(2)
O2B O 0.0674(3) 0.17450(18) 0.7207(2)
O3B O -0.1095(3) -0.15428(18) -0.0231(3)
H1B H -0.096(3) -0.179(3) 0.068(2)
H2B H -0.096(4) -0.210(2) -0.078(3)
N1B N -0.8105(3) 0.9271(2) -0.0252(3)
N1B_2 N 0.1895(3) -0.0729(2) -0.0252(3)
N2B N -0.4954(3) 0.6130(2) -0.0367(3)
C1B C -0.6972(4) 0.9472(3) 0.0697(4)
H3B H -0.6982 1.0055 0.1345
C2B C -0.5797(4) 0.8862(3) 0.0761(4)
H4B H -0.5040 0.9033 0.1443
C3B C -0.5749(4) 0.7994(3) -0.0194(4)
C4B C -0.6901(4) 0.7805(3) -0.1212(4)
H5B H -0.6906 0.7238 -0.1891
C5B C -0.8033(4) 0.8456(3) -0.1217(4)
H6B H -0.8785 0.8324 -0.1923
C6B C -0.4520(4) 0.7243(3) -0.0089(4)
H7B H -0.4008 0.7298 0.0897
H8B H -0.3921 0.7458 -0.0814
C7B C -0.3771(4) 0.5417(3) -0.0444(4)
H9B H -0.3245 0.5670 -0.1218
H10B H -0.3182 0.5436 0.0500
C8B C -0.5757(4) 0.5728(3) 0.0780(4)
H11B H -0.5203 0.5751 0.1745
H12B H -0.6547 0.6191 0.0826
C9B C 0.0146(3) 0.0834(3) 0.6830(4)
C10B C 0.0143(3) 0.0500(3) 0.5238(3)
H13B H 0.0352 0.1016 0.4550
loop_
_geom_bond_atom_site_label_1
_geom_bond_atom_site_label_2
_geom_bond_site_symmetry_1
_geom_bond_site_symmetry_2
Zn1 O1 1_555 1_555
O1 C9 1_555 1_555
O2 C9 1_555 1_555
O3 Zn1 1_555 1_555
H1 O3 1_555 1_555
H2 O3 1_555 1_555
N1 Zn1 1_555 1_555
N2 C6 1_555 1_555
C1 N1 1_555 1_555
H3 C1 1_555 1_555
C2 C1 1_555 1_555
H4 C2 1_555 1_555
C3 C2 1_555 1_555
C4 C3 1_555 1_555
H5 C4 1_555 1_555
C5 N1 1_555 1_555
H6 C5 1_555 1_555
C6 C3 1_555 1_555
H7 C6 1_555 1_555
H8 C6 1_555 1_555
C7 N2 1_555 1_555
H9 C7 1_555 1_555
H10 C7 1_555 1_555
C8 N2 1_555 1_555
H11 C8 1_555 1_555
H12 C8 1_555 1_555
C9 C10 1_555 1_555
C10 H13 1_555 1_555
Zn1_2 O1B 1_555 1_555
Zn1_3 N1B 1_555 1_555
O1B C9B 1_555 1_555
O1B_2 Zn1 1_555 1_555
O2B C9B 1_555 1_555
O3B Zn1 1_555 1_555
H1B O3B 1_555 1_555
H2B O3B 1_555 1_555
N1B C1B 1_555 1_555
N1B_2 Zn1 1_555 1_555
N2B C6B 1_555 1_555
C1B H3B 1_555 1_555
C2B C1B 1_555 1_555
H4B C2B 1_555 1_555
C3B C2B 1_555 1_555
C4B C3B 1_555 1_555
H5B C4B 1_555 1_555
C5B N1B 1_555 1_555
H6B C5B 1_555 1_555
C6B C3B 1_555 1_555
H7B C6B 1_555 1_555
H8B C6B 1_555 1_555
C7B C8 1_555 1_555
H9B C7B 1_555 1_555
H10B C7B 1_555 1_555
C8B C7 1_555 1_555
H11B C8B 1_555 1_555
H12B C8B 1_555 1_555
C9B C10B 1_555 1_555
C10B C10 1_555 1_555
H13B C10B 1_555 1_555
C4 C5 1_555 1_555
N2B C7B 1_555 1_555
N2B C8B 1_555 1_555
C4B C5B 1_555 1_555

#END
