
#######################################################################
#
#                 Cambridge Crystallographic Data Centre
#                                CCDC 
#
#######################################################################
#
# If this CIF has been generated from an entry in the Cambridge 
# Structural Database, then it will include bibliographic, chemical, 
# crystal, experimental, refinement or atomic coordinate data resulting 
# from the CCDC's data processing and validation procedures.
#
#######################################################################

data_EKAZIA
_symmetry_cell_setting           orthorhombic
_symmetry_space_group_name_H-M   'F d d 2'
_symmetry_Int_Tables_number      43
_space_group_name_Hall           'F 2 -2d'
loop_
_symmetry_equiv_pos_site_id
_symmetry_equiv_pos_as_xyz
1 x,y,z
2 -x,-y,z
3 1/4-x,1/4+y,1/4+z
4 1/4+x,1/4-y,1/4+z
5 x,1/2+y,1/2+z
6 -x,1/2-y,1/2+z
7 1/4-x,3/4+y,3/4+z
8 1/4+x,3/4-y,3/4+z
9 1/2+x,y,1/2+z
10 1/2-x,-y,1/2+z
11 3/4-x,1/4+y,3/4+z
12 3/4+x,1/4-y,3/4+z
13 1/2+x,1/2+y,z
14 1/2-x,1/2-y,z
15 3/4-x,3/4+y,1/4+z
16 3/4+x,3/4-y,1/4+z
_cell_length_a                   25.146(5)
_cell_length_b                   25.516(4)
_cell_length_c                   7.849(3)
_cell_angle_alpha                90
_cell_angle_beta                 90
_cell_angle_gamma                90
_cell_volume                     5036.12
loop_
_atom_site_label
_atom_site_type_symbol
_atom_site_fract_x
_atom_site_fract_y
_atom_site_fract_z
Ag1 Ag 0.79629(3) 1.07355(3) 1.49539(16)
N1 N 0.7853(4) 0.9413(4) 1.8518(15)
N2 N 0.8999(3) 0.9660(3) 1.5039(16)
C1 C 0.8658(4) 0.9212(4) 1.7146(15)
N3 N 0.9127(3) 0.8955(4) 1.6669(14)
N4 N 0.8327(4) 0.8697(4) 1.9521(15)
H1 H 0.8086 0.8654 2.0284
H2 H 0.8595 0.8488 1.9477
N5 N 0.8154(3) 0.9970(4) 1.6261(14)
C2 C 0.8286(4) 0.9086(5) 1.8414(16)
C3 C 0.9309(5) 0.9243(5) 1.5403(16)
H3 H 0.9621 0.9166 1.4817
C4 C 0.8570(4) 0.9642(4) 1.6152(15)
C5 C 0.7818(5) 0.9819(5) 1.747(2)
H4 H 0.7516 1.0026 1.7590
C6 C 0.9101(5) 1.0037(5) 1.3646(18)
H5 H 0.9472 1.0017 1.3312
H6 H 0.9032 1.0390 1.4049
C7 C 0.8751(5) 0.9924(5) 1.2105(17)
H7 H 0.8793 0.9560 1.1767
H8 H 0.8380 0.9979 1.2404
C8 C 0.8901(6) 1.0279(6) 1.064(2)
H9 H 0.8677 1.0204 0.9676
H10 H 0.9266 1.0219 1.0333
H11 H 0.8855 1.0638 1.0971
Ag1I Ag 0.70371(3) 0.92645(3) 1.99539(16)
Ag1N Ag 0.95371(3) 0.82355(3) 1.74539(16)
N1I N 0.7147(4) 1.0587(4) 1.3518(15)
N3J N 0.8373(3) 1.1455(4) 1.4169(14)
Cl1 Cl 0.74191(12) 0.87094(16) 1.3743(5)
O1 O 0.7743(4) 0.8995(4) 1.2583(18)
O2 O 0.7679(5) 0.8566(9) 1.512(2)
O3 O 0.6931(5) 0.8926(8) 1.385(3)
O4 O 0.7314(9) 0.8178(7) 1.299(5)
O5 O 0.7500 0.7500 1.011(5)
loop_
_geom_bond_atom_site_label_1
_geom_bond_atom_site_label_2
_geom_bond_site_symmetry_1
_geom_bond_site_symmetry_2
Ag1 N5 1_555 1_555
Cl1 O1 1_555 1_555
N1 C2 1_555 1_555
N2 C3 1_555 1_555
C1 N3 1_555 1_555
N3 C3 1_555 1_555
N4 H1 1_555 1_555
H2 N4 1_555 1_555
N5 C4 1_555 1_555
O2 Cl1 1_555 1_555
C2 C1 1_555 1_555
C3 H3 1_555 1_555
C4 N2 1_555 1_555
C5 N1 1_555 1_555
H4 C5 1_555 1_555
O3 Cl1 1_555 1_555
O4 Cl1 1_555 1_555
C6 N2 1_555 1_555
H5 C6 1_555 1_555
H6 C6 1_555 1_555
C7 C6 1_555 1_555
H7 C7 1_555 1_555
H8 C7 1_555 1_555
C8 C7 1_555 1_555
H9 C8 1_555 1_555
H10 C8 1_555 1_555
H11 C8 1_555 1_555
Ag1I N1 1_555 1_555
Ag1N N3 1_555 1_555
N1I Ag1 1_555 1_555
N3J Ag1 1_555 1_555
C1 C4 1_555 1_555
N4 C2 1_555 1_555
N5 C5 1_555 1_555

#END
