
#######################################################################
#
#                 Cambridge Crystallographic Data Centre
#                                CCDC 
#
#######################################################################
#
# If this CIF has been generated from an entry in the Cambridge 
# Structural Database, then it will include bibliographic, chemical, 
# crystal, experimental, refinement or atomic coordinate data resulting 
# from the CCDC's data processing and validation procedures.
#
#######################################################################

data_EKAZAS
_symmetry_cell_setting           monoclinic
_symmetry_space_group_name_H-M   'P 21/c'
_symmetry_Int_Tables_number      14
_space_group_name_Hall           '-P 2ybc'
loop_
_symmetry_equiv_pos_site_id
_symmetry_equiv_pos_as_xyz
1 x,y,z
2 -x,1/2+y,1/2-z
3 -x,-y,-z
4 x,1/2-y,1/2+z
_cell_length_a                   18.577(4)
_cell_length_b                   7.346(5)
_cell_length_c                   25.747(3)
_cell_angle_alpha                90
_cell_angle_beta                 103.013(5)
_cell_angle_gamma                90
_cell_volume                     3423.37
loop_
_atom_site_label
_atom_site_type_symbol
_atom_site_fract_x
_atom_site_fract_y
_atom_site_fract_z
Ag1 Ag 0.00571(4) 0.80240(10) 0.53316(3)
Ag2 Ag 0.00703(4) 0.42808(10) 0.28640(3)
O1 O 0.1422(9) 0.4138(13) 0.2541(4)
O2 O 0.1033(9) 0.204(2) 0.2134(5)
O3 O 0.2076(6) 0.1866(18) 0.2632(8)
N1 N -0.0586(4) 0.9445(10) 0.5817(3)
N2 N 0.0719(5) 0.4716(11) 0.3663(3)
N3 N 0.1544(5) 0.2611(13) 0.2412(3)
N4 N -0.1764(5) 1.0868(10) 0.5782(3)
N5 N 0.1878(5) 0.4079(10) 0.4254(3)
N6 N -0.0247(4) 0.6122(11) 0.3923(3)
H1 H -0.0509 0.6022 0.3603
H2 H -0.0431 0.6627 0.4165
N7 N 0.0363(5) 0.9244(10) 0.6587(3)
H3 H 0.0634 0.8670 0.6411
H4 H 0.0528 0.9470 0.6920
N8 N 0.0809(4) 0.6311(12) 0.5045(3)
N9 N -0.0728(5) 1.1206(10) 0.7141(3)
N10 N -0.1841(4) 1.1967(10) 0.6667(3)
N11 N 0.1925(5) 0.5120(13) 0.5138(4)
C1 C -0.1278(5) 0.9992(14) 0.5572(4)
H5 H -0.1427 0.9715 0.5212
C2 C 0.1427(6) 0.4091(12) 0.3780(4)
H6 H 0.1609 0.3631 0.3498
C3 C -0.1505(6) 1.1166(12) 0.6316(4)
C4 C 0.1604(6) 0.4857(13) 0.4618(4)
C5 C -0.0789(5) 1.0696(12) 0.6604(4)
C6 C 0.0912(5) 0.5573(12) 0.4561(3)
C7 C 0.0418(6) 0.5517(12) 0.4039(3)
C8 C -0.0297(5) 0.9772(11) 0.6348(3)
C9 C 0.1431(6) 0.5978(16) 0.5371(4)
H7 H 0.1532 0.6295 0.5730
C10 C -0.1378(6) 1.1972(13) 0.7139(4)
H8 H -0.1495 1.2466 0.7442
C11 C -0.2598(6) 1.2673(14) 0.6555(4)
H9 H -0.2735 1.3072 0.6186
H10 H -0.2620 1.3721 0.6780
C12 C -0.3138(6) 1.1262(17) 0.6650(5)
H11 H -0.3616 1.1834 0.6622
H12 H -0.2976 1.0801 0.7010
C13 C -0.3228(7) 0.9632(16) 0.6254(6)
H13 H -0.3395 1.0087 0.5893
H14 H -0.2751 0.9058 0.6280
C14 C -0.3773(8) 0.8226(18) 0.6361(8)
H15 H -0.3595 0.7711 0.6713
H16 H -0.4245 0.8802 0.6351
C15 C -0.3869(9) 0.674(2) 0.5953(10)
H17 H -0.4039 0.7296 0.5605
H18 H -0.3387 0.6220 0.5963
C16 C -0.4370(9) 0.527(3) 0.6001(12)
H19 H -0.4394 0.4431 0.5712
H20 H -0.4853 0.5759 0.5988
H21 H -0.4195 0.4654 0.6334
C17 C 0.2713(6) 0.4552(16) 0.5428(5)
H22 H 0.2686 0.3772 0.5727
H23 H 0.2939 0.3862 0.5186
C18 C 0.3186(11) 0.619(3) 0.5627(8)
H24 H 0.2950 0.6846 0.5871
H25 H 0.3655 0.5748 0.5834
C19 C 0.3341(10) 0.747(3) 0.5251(7)
H26 H 0.2884 0.8129 0.5116
H27 H 0.3433 0.6762 0.4955
C20 C 0.3935(13) 0.887(3) 0.5370(11)
H28 H 0.4405 0.8299 0.5525
H29 H 0.3977 0.9483 0.5044
C21 C 0.375(2) 1.012(5) 0.5727(16)
H30 H 0.3684 0.9503 0.6045
H31 H 0.3300 1.0751 0.5565
C22 C 0.4373(19) 1.145(5) 0.5869(14)
H32 H 0.4266 1.2311 0.6121
H33 H 0.4431 1.2075 0.5554
H34 H 0.4821 1.0810 0.6024
N12 N -0.1537(5) 0.8874(13) 0.4175(3)
O8 O -0.1136(13) 0.779(3) 0.4523(7)
O9 O -0.2062(10) 0.989(3) 0.4314(6)
O10 O -0.1817(5) 0.8036(14) 0.3778(4)
Ag2C Ag 0.00703(4) 1.07192(10) 0.78640(3)
N9C N -0.0728(5) 0.3794(10) 0.2141(3)
O4 O 0.1667(5) 0.6620(14) 0.6647(3)
O5 O 0.279(2) 0.922(4) 0.6999(10)
O6? O -0.0934(8) 0.880(3) 0.4460(5)
O7? O -0.1466(11) 1.0507(19) 0.4188(6)
loop_
_geom_bond_atom_site_label_1
_geom_bond_atom_site_label_2
_geom_bond_site_symmetry_1
_geom_bond_site_symmetry_2
Ag1 N1 1_555 1_555
Ag2 O1 1_555 1_555
O1 N3 1_555 1_555
O2 N3 1_555 1_555
O3 N3 1_555 1_555
N1 C1 1_555 1_555
N2 Ag2 1_555 1_555
N4 C1 1_555 1_555
N5 C2 1_555 1_555
N6 H1 1_555 1_555
H2 N6 1_555 1_555
N7 H3 1_555 1_555
H4 N7 1_555 1_555
N8 Ag1 1_555 1_555
N9 C5 1_555 1_555
N10 C3 1_555 1_555
N11 C4 1_555 1_555
C1 H5 1_555 1_555
C2 N2 1_555 1_555
H6 C2 1_555 1_555
C3 N4 1_555 1_555
C4 N5 1_555 1_555
C5 C3 1_555 1_555
C6 N8 1_555 1_555
C7 N2 1_555 1_555
C8 N1 1_555 1_555
C9 N8 1_555 1_555
H7 C9 1_555 1_555
C10 N9 1_555 1_555
H8 C10 1_555 1_555
C11 N10 1_555 1_555
H9 C11 1_555 1_555
H10 C11 1_555 1_555
C12 C11 1_555 1_555
H11 C12 1_555 1_555
H12 C12 1_555 1_555
C13 C12 1_555 1_555
H13 C13 1_555 1_555
H14 C13 1_555 1_555
C14 C13 1_555 1_555
H15 C14 1_555 1_555
H16 C14 1_555 1_555
C15 C14 1_555 1_555
H17 C15 1_555 1_555
H18 C15 1_555 1_555
C16 C15 1_555 1_555
H19 C16 1_555 1_555
H20 C16 1_555 1_555
H21 C16 1_555 1_555
C17 N11 1_555 1_555
H22 C17 1_555 1_555
H23 C17 1_555 1_555
C18 C17 1_555 1_555
H24 C18 1_555 1_555
H25 C18 1_555 1_555
C19 C18 1_555 1_555
H26 C19 1_555 1_555
H27 C19 1_555 1_555
C20 C19 1_555 1_555
H28 C20 1_555 1_555
H29 C20 1_555 1_555
C21 C20 1_555 1_555
H30 C21 1_555 1_555
H31 C21 1_555 1_555
C22 C21 1_555 1_555
H32 C22 1_555 1_555
H33 C22 1_555 1_555
H34 C22 1_555 1_555
N12 O8 1_555 1_555
O8 Ag1 1_555 1_555
O9 N12 1_555 1_555
O10 N12 1_555 1_555
Ag2C N9 1_555 1_555
N9C Ag2 1_555 1_555
N6 C7 1_555 1_555
N7 C8 1_555 1_555
N10 C10 1_555 1_555
N11 C9 1_555 1_555
C4 C6 1_555 1_555
C5 C8 1_555 1_555
C6 C7 1_555 1_555

#END
