
#######################################################################
#
#                 Cambridge Crystallographic Data Centre
#                                CCDC 
#
#######################################################################
#
# If this CIF has been generated from an entry in the Cambridge 
# Structural Database, then it will include bibliographic, chemical, 
# crystal, experimental, refinement or atomic coordinate data resulting 
# from the CCDC's data processing and validation procedures.
#
#######################################################################

data_EKEDOO
_symmetry_cell_setting           monoclinic
_symmetry_space_group_name_H-M   'P 21/c'
_symmetry_Int_Tables_number      14
_space_group_name_Hall           '-P 2ybc'
loop_
_symmetry_equiv_pos_site_id
_symmetry_equiv_pos_as_xyz
1 x,y,z
2 -x,1/2+y,1/2-z
3 -x,-y,-z
4 x,1/2-y,1/2+z
_cell_length_a                   11.3420(8)
_cell_length_b                   19.6294(15)
_cell_length_c                   15.6958(11)
_cell_angle_alpha                90
_cell_angle_beta                 101.618(5)
_cell_angle_gamma                90
_cell_volume                     3422.87
loop_
_atom_site_label
_atom_site_type_symbol
_atom_site_fract_x
_atom_site_fract_y
_atom_site_fract_z
Ni1 Ni 0.18019(5) 1.01560(3) 0.23794(4)
Ni2 Ni 0.05098(6) 0.88926(3) 0.29621(4)
O1 O 0.1782(3) 0.96993(15) 0.3526(2)
O2 O 0.1271(3) 0.90993(16) 0.1931(2)
O3 O 0.0055(3) 1.04500(16) 0.2153(2)
O4 O -0.0831(3) 0.95794(17) 0.2694(2)
N1 N 0.1966(4) 1.0467(2) 0.1152(3)
N2 N 0.3544(3) 0.9972(2) 0.2466(3)
N3 N 0.0086(4) 0.8697(2) 0.4170(3)
N4 N 0.1654(4) 0.8135(2) 0.3359(3)
N5 N 0.0755(4) 1.3200(2) 0.2719(3)
N6 N 0.2330(5) 1.2356(3) 0.3214(4)
N7 N 0.2185(4) 1.1145(3) 0.2880(3)
C1 C 0.1059(5) 1.0647(3) 0.0493(4)
H1 H 0.0281 1.0666 0.0597
C2 C 0.1238(6) 1.0802(3) -0.0319(4)
H2 H 0.0593 1.0919 -0.0761
C3 C 0.2390(6) 1.0783(3) -0.0471(4)
H3 H 0.2535 1.0891 -0.1018
C4 C 0.3326(5) 1.0603(3) 0.0195(4)
H4 H 0.4111 1.0590 0.0105
C5 C 0.3082(5) 1.0440(3) 0.0999(3)
C6 C 0.4081(4) 1.0254(3) 0.1753(3)
H5 H 0.4585 0.9903 0.1562
C7 C 0.4230(5) 0.9670(3) 0.3096(4)
H6 H 0.5017 0.9591 0.3034
C8 C 0.3923(5) 0.9438(3) 0.3891(3)
C9 C 0.4861(5) 0.9174(3) 0.4515(4)
H7 H 0.5618 0.9127 0.4379
C10 C 0.4702(6) 0.8981(3) 0.5324(4)
H8 H 0.5330 0.8786 0.5722
C11 C 0.3606(6) 0.9081(3) 0.5536(4)
H9 H 0.3499 0.8964 0.6089
C12 C 0.2662(5) 0.9349(3) 0.4950(3)
H10 H 0.1935 0.9427 0.5122
C13 C 0.2765(5) 0.9510(2) 0.4088(3)
C14 C 0.4850(6) 1.0866(4) 0.2059(4)
H11 H 0.4379 1.1200 0.2288
H12 H 0.5144 1.1058 0.1579
H13 H 0.5519 1.0731 0.2505
C15 C -0.0557(5) 0.9101(3) 0.4592(4)
H14 H -0.0996 0.9453 0.4281
C16 C -0.0607(5) 0.9029(3) 0.5450(4)
H15 H -0.1063 0.9324 0.5716
C17 C 0.0040(5) 0.8506(3) 0.5909(4)
H16 H 0.0026 0.8440 0.6494
C18 C 0.0708(5) 0.8082(3) 0.5492(4)
H17 H 0.1138 0.7722 0.5790
C19 C 0.0735(5) 0.8197(3) 0.4624(3)
C20 C 0.1477(5) 0.7765(3) 0.4144(3)
H18 H 0.2262 0.7679 0.4521
C21 C 0.2491(5) 0.7935(3) 0.2998(4)
H19 H 0.3003 0.7601 0.3286
C22 C 0.2729(5) 0.8176(3) 0.2178(4)
C23 C 0.3647(6) 0.7848(3) 0.1867(4)
H20 H 0.4081 0.7510 0.2210
C24 C 0.3941(7) 0.7993(4) 0.1093(5)
H21 H 0.4569 0.7766 0.0913
C25 C 0.3288(6) 0.8486(4) 0.0579(5)
H22 H 0.3460 0.8585 0.0037
C26 C 0.2373(5) 0.8838(3) 0.0863(4)
H23 H 0.1932 0.9163 0.0500
C27 C 0.2100(5) 0.8718(3) 0.1674(3)
C28 C 0.0832(6) 0.7090(3) 0.3910(4)
H24 H 0.0055 0.7173 0.3551
H25 H 0.0737 0.6861 0.4432
H26 H 0.1298 0.6811 0.3599
C29 C -0.0835(4) 1.0160(3) 0.2366(3)
C30 C -0.2009(5) 1.0547(3) 0.2217(5)
H27 H -0.2329 1.0580 0.1604
H28 H -0.1873 1.0995 0.2460
H29 H -0.2572 1.0310 0.2493
C31 C 0.1453(6) 1.2787(3) 0.2938(4)
C32 C 0.2215(5) 1.1712(4) 0.3013(4)
Ni2A Ni -0.05098(6) 1.38926(3) 0.20379(4)
N5A N -0.0755(4) 0.8200(2) 0.2281(3)
O5 O 0.3189(5) 0.1019(4) 0.7277(5)
N8 N 0.5203(9) 0.7750(5) 0.9223(7)
C33 C 0.6203(11) 0.7606(5) 0.9285(7)
C34 C 0.7400(10) 0.7435(6) 0.9372(8)
H30 H 0.7891 0.7826 0.9560
H31 H 0.7547 0.7281 0.8822
H32 H 0.7597 0.7078 0.9795
loop_
_geom_bond_atom_site_label_1
_geom_bond_atom_site_label_2
_geom_bond_site_symmetry_1
_geom_bond_site_symmetry_2
Ni1 O1 1_555 1_555
Ni2 O1 1_555 1_555
O1 C13 1_555 1_555
O2 Ni1 1_555 1_555
O3 Ni1 1_555 1_555
O4 Ni2 1_555 1_555
N1 Ni1 1_555 1_555
N2 Ni1 1_555 1_555
N3 Ni2 1_555 1_555
N4 Ni2 1_555 1_555
N5 C31 1_555 1_555
N6 C31 1_555 1_555
N7 Ni1 1_555 1_555
N8 C33 1_555 1_555
C1 N1 1_555 1_555
H1 C1 1_555 1_555
C2 C1 1_555 1_555
H2 C2 1_555 1_555
C3 C2 1_555 1_555
H3 C3 1_555 1_555
C4 C3 1_555 1_555
H4 C4 1_555 1_555
C5 N1 1_555 1_555
C6 N2 1_555 1_555
H5 C6 1_555 1_555
C7 N2 1_555 1_555
H6 C7 1_555 1_555
C8 C7 1_555 1_555
C9 C8 1_555 1_555
H7 C9 1_555 1_555
C10 C9 1_555 1_555
H8 C10 1_555 1_555
C11 C10 1_555 1_555
H9 C11 1_555 1_555
C12 C11 1_555 1_555
H10 C12 1_555 1_555
C13 C8 1_555 1_555
C14 C6 1_555 1_555
H11 C14 1_555 1_555
H12 C14 1_555 1_555
H13 C14 1_555 1_555
C15 N3 1_555 1_555
H14 C15 1_555 1_555
C16 C15 1_555 1_555
H15 C16 1_555 1_555
C17 C16 1_555 1_555
H16 C17 1_555 1_555
C18 C17 1_555 1_555
H17 C18 1_555 1_555
C19 N3 1_555 1_555
C20 N4 1_555 1_555
H18 C20 1_555 1_555
C21 N4 1_555 1_555
H19 C21 1_555 1_555
C22 C21 1_555 1_555
C23 C22 1_555 1_555
H20 C23 1_555 1_555
C24 C23 1_555 1_555
H21 C24 1_555 1_555
C25 C24 1_555 1_555
H22 C25 1_555 1_555
C26 C25 1_555 1_555
H23 C26 1_555 1_555
C27 O2 1_555 1_555
C28 C20 1_555 1_555
H24 C28 1_555 1_555
H25 C28 1_555 1_555
H26 C28 1_555 1_555
C29 O3 1_555 1_555
C30 C29 1_555 1_555
H27 C30 1_555 1_555
H28 C30 1_555 1_555
H29 C30 1_555 1_555
C32 N6 1_555 1_555
C33 C34 1_555 1_555
C34 H30 1_555 1_555
H31 C34 1_555 1_555
H32 C34 1_555 1_555
Ni2A N5 1_555 1_555
N5A Ni2 1_555 1_555
Ni2 O2 1_555 1_555
O4 C29 1_555 1_555
N7 C32 1_555 1_555
C4 C5 1_555 1_555
C5 C6 1_555 1_555
C12 C13 1_555 1_555
C18 C19 1_555 1_555
C19 C20 1_555 1_555
C22 C27 1_555 1_555
C26 C27 1_555 1_555

#END
