
#######################################################################
#
#                 Cambridge Crystallographic Data Centre
#                                CCDC 
#
#######################################################################
#
# If this CIF has been generated from an entry in the Cambridge 
# Structural Database, then it will include bibliographic, chemical, 
# crystal, experimental, refinement or atomic coordinate data resulting 
# from the CCDC's data processing and validation procedures.
#
#######################################################################

data_EKEFUW
_symmetry_cell_setting           monoclinic
_symmetry_space_group_name_H-M   'C 2/c'
_symmetry_Int_Tables_number      15
_space_group_name_Hall           '-C 2yn'
loop_
_symmetry_equiv_pos_site_id
_symmetry_equiv_pos_as_xyz
1 x,y,z
2 -x,y,1/2-z
3 1/2+x,1/2+y,z
4 1/2-x,1/2+y,1/2-z
5 -x,-y,-z
6 x,-y,1/2+z
7 1/2-x,1/2-y,-z
8 1/2+x,1/2-y,1/2+z
_cell_length_a                   23.300(3)
_cell_length_b                   11.2292(14)
_cell_length_c                   23.285(3)
_cell_angle_alpha                90
_cell_angle_beta                 108.6580(10)
_cell_angle_gamma                90
_cell_volume                     5772.12
loop_
_atom_site_label
_atom_site_type_symbol
_atom_site_fract_x
_atom_site_fract_y
_atom_site_fract_z
Eu1 Eu 0.082610(7) 0.015421(13) 0.319368(7)
F1 F -0.09408(11) 0.4010(2) 0.26850(11)
F2 F -0.09389(11) 0.6364(2) 0.26813(11)
F3 F 0.10545(14) -0.1933(2) 0.51648(11)
F4 F 0.10178(14) -0.1980(2) 0.62870(11)
F5 F 0.04918(13) 0.2073(2) 0.61608(11)
F6 F 0.05180(13) 0.2155(2) 0.50359(11)
O1 O 0.04735(12) 0.2100(2) 0.28308(12)
O2 O 0.04727(12) 0.8257(2) 0.28351(11)
O3 O 0.06795(13) -0.0795(2) 0.41017(11)
O4 O 0.09483(15) 0.1083(3) 0.41919(12)
O5 O 0.12214(13) 0.0069(3) 0.73145(12)
O6 O 0.02392(12) -0.0207(2) 0.69767(11)
C1 C 0.0000 0.2583(4) 0.2500
C2 C 0.0000 0.3923(4) 0.2500
C3 C -0.04750(17) 0.4569(3) 0.25778(17)
C4 C -0.04750(17) 0.5800(3) 0.25783(16)
C5 C 0.0000 0.6442(4) 0.2500
C6 C 0.0000 0.7782(4) 0.2500
C7 C 0.08092(17) 0.0137(3) 0.44083(17)
C8 C 0.07965(15) 0.0111(3) 0.50490(14)
C9 C 0.09105(18) -0.0919(3) 0.53925(16)
C10 C 0.08912(18) -0.0955(3) 0.59775(16)
C11 C 0.07537(15) 0.0049(3) 0.62621(16)
C12 C 0.06304(17) 0.1078(3) 0.59157(16)
C13 C 0.06567(18) 0.1119(3) 0.53294(16)
C14 C 0.07410(16) -0.0024(3) 0.68938(15)
O7 O 0.17346(12) 0.1328(2) 0.34056(12)
N1 N 0.23926(17) 0.2636(4) 0.32256(19)
C15 C 0.18640(18) 0.2092(4) 0.3086(2)
H1 H 0.1563 0.2302 0.2716
C16 C 0.2875(2) 0.2301(5) 0.3777(3)
H2 H 0.2694 0.2049 0.4089
H3 H 0.3135 0.3003 0.3935
C17 C 0.3255(3) 0.1316(8) 0.3669(3)
H4 H 0.3581 0.1136 0.4045
H5 H 0.3431 0.1558 0.3357
H6 H 0.3004 0.0606 0.3532
C18 C 0.2511(3) 0.3555(5) 0.2827(3)
H7 H 0.2199 0.3503 0.2422
H8 H 0.2910 0.3406 0.2775
C19 C 0.2504(3) 0.4799(6) 0.3082(4)
H9 H 0.2629 0.5378 0.2830
H10 H 0.2785 0.4831 0.3498
H11 H 0.2094 0.4989 0.3083
O8 O 0.16640(13) -0.1224(3) 0.36016(13)
H12 H 0.159(2) -0.193(5) 0.355(2)
C20 C 0.2142(3) -0.1083(6) 0.4167(3)
H13 H 0.1993 -0.1338 0.4501
H14 H 0.2249 -0.0229 0.4228
C21 C 0.2690(3) -0.1767(7) 0.4201(4)
H15 H 0.3001 -0.1622 0.4593
H16 H 0.2842 -0.1518 0.3873
H17 H 0.2592 -0.2618 0.4160
Eu1A Eu -0.082610(7) 0.015421(13) 0.180632(7)
Eu1_2 Eu 0.082610(7) 1.015421(13) 0.319368(7)
Eu1E Eu 0.082610(7) -0.015421(13) 0.819368(7)
Eu1D Eu -0.082610(7) -0.015421(13) 0.680632(7)
Eu1A_2 Eu -0.082610(7) 1.015421(13) 0.180632(7)
Eu1E_2 Eu 0.082610(7) -0.015421(13) -0.180632(7)
F1A F 0.09408(11) 0.4010(2) 0.23150(11)
F2A F 0.09389(11) 0.6364(2) 0.23187(11)
F3E F 0.10545(14) 0.1933(2) 0.01648(11)
F4E F 0.10178(14) 0.1980(2) 0.12870(11)
F5E F 0.04918(13) -0.2073(2) 0.11608(11)
F6E F 0.05180(13) -0.2155(2) 0.00359(11)
O1A O -0.04735(12) 0.2100(2) 0.21692(12)
O2A O -0.04727(12) 0.8257(2) 0.21649(11)
O2_2 O 0.04727(12) -0.1743(2) 0.28351(11)
O2A_2 O -0.04727(12) -0.1743(2) 0.21649(11)
O3E O 0.06795(13) 0.0795(2) -0.08983(11)
O3A O -0.06795(13) -0.0795(2) 0.08983(11)
O4E O 0.09483(15) -0.1083(3) -0.08081(12)
O4A O -0.09483(15) 0.1083(3) 0.08081(12)
O5E O 0.12214(13) -0.0069(3) 0.23145(12)
O5D O -0.12214(13) -0.0069(3) 0.26855(12)
O6E O 0.02392(12) 0.0207(2) 0.19767(11)
O6D O -0.02392(12) 0.0207(2) 0.30233(11)
C3A C 0.04750(17) 0.4569(3) 0.24222(17)
C4A C 0.04750(17) 0.5800(3) 0.24217(16)
C7E C 0.08092(17) -0.0137(3) -0.05917(17)
C8E C 0.07965(15) -0.0111(3) 0.00490(14)
C9E C 0.09105(18) 0.0919(3) 0.03925(16)
C10E C 0.08912(18) 0.0955(3) 0.09775(16)
C11E C 0.07537(15) -0.0049(3) 0.12621(16)
C12E C 0.06304(17) -0.1078(3) 0.09157(16)
C13E C 0.06567(18) -0.1119(3) 0.03294(16)
C14E C 0.07410(16) 0.0024(3) 0.18938(15)
O7A O -0.17346(12) 0.1328(2) 0.15944(12)
N1A N -0.23926(17) 0.2636(4) 0.17744(19)
C15A C -0.18640(18) 0.2092(4) 0.1914(2)
H1A H -0.1563 0.2302 0.2284
C16A C -0.2875(2) 0.2301(5) 0.1223(3)
H2A H -0.2694 0.2049 0.0911
H3A H -0.3135 0.3003 0.1065
C17A C -0.3255(3) 0.1316(8) 0.1331(3)
H4A H -0.3581 0.1136 0.0955
H5A H -0.3431 0.1558 0.1643
H6A H -0.3004 0.0606 0.1468
C18A C -0.2511(3) 0.3555(5) 0.2173(3)
H7A H -0.2199 0.3503 0.2578
H8A H -0.2910 0.3406 0.2225
C19A C -0.2504(3) 0.4799(6) 0.1918(4)
H9A H -0.2629 0.5378 0.2170
H10A H -0.2785 0.4831 0.1502
H11A H -0.2094 0.4989 0.1917
O8A O -0.16640(13) -0.1224(3) 0.13984(13)
H12A H -0.159(2) -0.193(5) 0.145(2)
C20A C -0.2142(3) -0.1083(6) 0.0833(3)
H13A H -0.1993 -0.1338 0.0499
H14A H -0.2249 -0.0229 0.0772
C21A C -0.2690(3) -0.1767(7) 0.0799(4)
H15A H -0.3001 -0.1622 0.0407
H16A H -0.2842 -0.1518 0.1127
H17A H -0.2592 -0.2618 0.0840
O9 O 0.14492(16) -0.3557(3) 0.37177(16)
N2 N 0.0931(2) -0.4819(3) 0.41324(17)
C22 C 0.1074(2) -0.3739(4) 0.3975(2)
H18 H 0.0871 -0.3070 0.4069
C23 C 0.0511(3) -0.4942(5) 0.4475(2)
H19 H 0.0426 -0.4143 0.4609
H20 H 0.0704 -0.5424 0.4842
C24 C -0.0075(3) -0.5517(7) 0.4119(3)
H21 H -0.0321 -0.5659 0.4384
H22 H 0.0007 -0.6277 0.3954
H23 H -0.0296 -0.4991 0.3785
C25 C 0.1255(2) -0.5868(4) 0.4034(2)
H24 H 0.1372 -0.5746 0.3665
H25 H 0.0980 -0.6564 0.3962
C26 C 0.1807(3) -0.6133(7) 0.4552(3)
H26 H 0.1966 -0.6915 0.4493
H27 H 0.1705 -0.6136 0.4929
H28 H 0.2114 -0.5521 0.4576
loop_
_geom_bond_atom_site_label_1
_geom_bond_atom_site_label_2
_geom_bond_site_symmetry_1
_geom_bond_site_symmetry_2
Eu1 O1 1_555 1_555
F1 C3 1_555 1_555
F2 C4 1_555 1_555
F3 C9 1_555 1_555
F4 C10 1_555 1_555
F5 C12 1_555 1_555
F6 C13 1_555 1_555
O1 C1 1_555 1_555
O2 C6 1_555 1_555
O3 Eu1 1_555 1_555
O4 Eu1 1_555 1_555
O5 C14 1_555 1_555
O6 C14 1_555 1_555
C1 C2 1_555 1_555
C2 C3 1_555 1_555
C3 C4 1_555 1_555
C4 C5 1_555 1_555
C5 C6 1_555 1_555
C6 O2A 1_555 1_555
C7 O3 1_555 1_555
C8 C7 1_555 1_555
C9 C8 1_555 1_555
C10 C9 1_555 1_555
C11 C10 1_555 1_555
C12 C11 1_555 1_555
C13 C8 1_555 1_555
C14 C11 1_555 1_555
O7 Eu1 1_555 1_555
N1 C15 1_555 1_555
C15 O7 1_555 1_555
H1 C15 1_555 1_555
C16 N1 1_555 1_555
H2 C16 1_555 1_555
H3 C16 1_555 1_555
C17 C16 1_555 1_555
H4 C17 1_555 1_555
H5 C17 1_555 1_555
H6 C17 1_555 1_555
C18 N1 1_555 1_555
H7 C18 1_555 1_555
H8 C18 1_555 1_555
C19 C18 1_555 1_555
H9 C19 1_555 1_555
H10 C19 1_555 1_555
H11 C19 1_555 1_555
O8 Eu1 1_555 1_555
H12 O8 1_555 1_555
C20 O8 1_555 1_555
H13 C20 1_555 1_555
H14 C20 1_555 1_555
C21 C20 1_555 1_555
H15 C21 1_555 1_555
H16 C21 1_555 1_555
H17 C21 1_555 1_555
O9 C22 1_555 1_555
N2 C22 1_555 1_555
C22 H18 1_555 1_555
C23 N2 1_555 1_555
H19 C23 1_555 1_555
H20 C23 1_555 1_555
C24 C23 1_555 1_555
H21 C24 1_555 1_555
H22 C24 1_555 1_555
H23 C24 1_555 1_555
C25 N2 1_555 1_555
H24 C25 1_555 1_555
H25 C25 1_555 1_555
C26 C25 1_555 1_555
H26 C26 1_555 1_555
H27 C26 1_555 1_555
H28 C26 1_555 1_555
Eu1A O1A 1_555 1_555
Eu1_2 O2 1_555 1_555
Eu1E O5 1_555 1_555
Eu1D O6 1_555 1_555
Eu1A_2 O2A 1_555 1_555
Eu1E_2 O3E 1_555 1_555
F1A C3A 1_555 1_555
F2A C4A 1_555 1_555
F3E C9E 1_555 1_555
F4E C10E 1_555 1_555
F5E C12E 1_555 1_555
F6E C13E 1_555 1_555
O1A C1 1_555 1_555
O2_2 Eu1 1_555 1_555
O2A_2 Eu1A 1_555 1_555
O3E C7E 1_555 1_555
O3A Eu1A 1_555 1_555
O4E Eu1E_2 1_555 1_555
O4A Eu1A 1_555 1_555
O5E Eu1 1_555 1_555
O5D Eu1A 1_555 1_555
O6E Eu1 1_555 1_555
O6D Eu1 1_555 1_555
C3A C2 1_555 1_555
C4A C5 1_555 1_555
C7E O4E 1_555 1_555
C8E C7E 1_555 1_555
C9E C8E 1_555 1_555
C10E C9E 1_555 1_555
C11E C10E 1_555 1_555
C12E C11E 1_555 1_555
C13E C8E 1_555 1_555
C14E O5E 1_555 1_555
O7A Eu1A 1_555 1_555
N1A C15A 1_555 1_555
C15A O7A 1_555 1_555
H1A C15A 1_555 1_555
C16A N1A 1_555 1_555
H2A C16A 1_555 1_555
H3A C16A 1_555 1_555
C17A C16A 1_555 1_555
H4A C17A 1_555 1_555
H5A C17A 1_555 1_555
H6A C17A 1_555 1_555
C18A N1A 1_555 1_555
H7A C18A 1_555 1_555
H8A C18A 1_555 1_555
C19A C18A 1_555 1_555
H9A C19A 1_555 1_555
H10A C19A 1_555 1_555
H11A C19A 1_555 1_555
O8A Eu1A 1_555 1_555
H12A O8A 1_555 1_555
C20A O8A 1_555 1_555
H13A C20A 1_555 1_555
H14A C20A 1_555 1_555
C21A C20A 1_555 1_555
H15A C21A 1_555 1_555
H16A C21A 1_555 1_555
H17A C21A 1_555 1_555
O4 C7 1_555 1_555
O6 Eu1E 1_555 1_555
C12 C13 1_555 1_555
Eu1A O6E 1_555 1_555
Eu1A O6D 1_555 1_555
O6E C14E 1_555 1_555
C3A C4A 1_555 1_555
C11E C14E 1_555 1_555
C12E C13E 1_555 1_555

#END
