
#######################################################################
#
#                 Cambridge Crystallographic Data Centre
#                                CCDC 
#
#######################################################################
#
# If this CIF has been generated from an entry in the Cambridge 
# Structural Database, then it will include bibliographic, chemical, 
# crystal, experimental, refinement or atomic coordinate data resulting 
# from the CCDC's data processing and validation procedures.
#
#######################################################################

data_EKEFIK
_symmetry_cell_setting           monoclinic
_symmetry_space_group_name_H-M   'C 2/c'
_symmetry_Int_Tables_number      15
_space_group_name_Hall           '-C 2yn'
loop_
_symmetry_equiv_pos_site_id
_symmetry_equiv_pos_as_xyz
1 x,y,z
2 -x,y,1/2-z
3 1/2+x,1/2+y,z
4 1/2-x,1/2+y,1/2-z
5 -x,-y,-z
6 x,-y,1/2+z
7 1/2-x,1/2-y,-z
8 1/2+x,1/2-y,1/2+z
_cell_length_a                   23.282(3)
_cell_length_b                   11.1854(15)
_cell_length_c                   23.230(3)
_cell_angle_alpha                90
_cell_angle_beta                 108.650(2)
_cell_angle_gamma                90
_cell_volume                     5731.86
loop_
_atom_site_label
_atom_site_type_symbol
_atom_site_fract_x
_atom_site_fract_y
_atom_site_fract_z
Tb1 Tb 0.082640(7) 0.015937(14) 0.318928(7)
F1 F -0.09398(10) 0.40082(19) 0.26927(11)
F2 F -0.09342(10) 0.63713(19) 0.26931(11)
F3 F 0.10606(13) -0.1942(2) 0.51583(11)
F4 F 0.10188(13) -0.1989(2) 0.62814(11)
F5 F 0.04805(12) 0.2069(2) 0.61522(11)
F6 F 0.05171(13) 0.2158(2) 0.50264(11)
O1 O 0.04770(11) 0.2089(2) 0.28239(11)
O2 O 0.04738(11) 0.8275(2) 0.28291(11)
O3 O 0.06898(13) -0.0801(2) 0.40935(11)
O4 O 0.09467(14) 0.1093(3) 0.41782(12)
O5 O 0.12055(13) 0.0048(3) 0.73116(12)
O6 O 0.02202(12) -0.0210(2) 0.69622(12)
C1 C 0.0000 0.2575(4) 0.2500
C2 C 0.0000 0.3922(4) 0.2500
C3 C -0.04734(17) 0.4573(3) 0.25809(17)
C4 C -0.04744(16) 0.5801(3) 0.25834(16)
C5 C 0.0000 0.6453(4) 0.2500
C6 C 0.0000 0.7791(4) 0.2500
C7 C 0.08122(17) 0.0141(3) 0.43941(16)
C8 C 0.07977(17) 0.0123(3) 0.50401(16)
C9 C 0.09189(18) -0.0928(4) 0.53862(17)
C10 C 0.08921(18) -0.0956(4) 0.59693(17)
C11 C 0.07439(17) 0.0033(3) 0.62430(17)
C12 C 0.06226(17) 0.1074(3) 0.59091(16)
C13 C 0.06569(17) 0.1121(3) 0.53229(17)
C14 C 0.07234(17) -0.0034(3) 0.68866(17)
O7 O 0.17252(11) 0.1327(2) 0.34000(12)
N1 N 0.23872(16) 0.2630(3) 0.32204(17)
C15 C 0.18571(17) 0.2082(3) 0.30788(19)
H1 H 0.1559 0.2285 0.2705
C16 C 0.2873(2) 0.2298(5) 0.3777(2)
H2 H 0.2692 0.2049 0.4090
H3 H 0.3133 0.3003 0.3933
C17 C 0.3253(3) 0.1302(7) 0.3668(3)
H4 H 0.3593 0.1154 0.4039
H5 H 0.3409 0.1523 0.3338
H6 H 0.3007 0.0577 0.3556
C18 C 0.2511(2) 0.3550(5) 0.2816(3)
H7 H 0.2201 0.3492 0.2410
H8 H 0.2912 0.3392 0.2768
C19 C 0.2506(3) 0.4797(5) 0.3061(4)
H9 H 0.2642 0.5365 0.2810
H10 H 0.2779 0.4835 0.3480
H11 H 0.2094 0.5003 0.3050
O8 O 0.16591(12) -0.1208(3) 0.35850(13)
H12 H 0.155(2) -0.195(4) 0.352(2)
C20 C 0.2140(2) -0.1064(5) 0.4158(3)
H13 H 0.1988 -0.1308 0.4492
H14 H 0.2252 -0.0208 0.4215
C21 C 0.2680(3) -0.1762(6) 0.4193(4)
H15 H 0.3005 -0.1563 0.4569
H16 H 0.2813 -0.1575 0.3843
H17 H 0.2586 -0.2616 0.4191
Tb1A Tb -0.082640(7) 0.015937(14) 0.181072(7)
Tb1_2 Tb 0.082640(7) 1.015937(14) 0.318928(7)
Tb1E Tb 0.082640(7) -0.015937(14) 0.818928(7)
Tb1D Tb -0.082640(7) -0.015937(14) 0.681072(7)
Tb1A_2 Tb -0.082640(7) 1.015937(14) 0.181072(7)
Tb1E_2 Tb 0.082640(7) -0.015937(14) -0.181072(7)
F1A F 0.09398(10) 0.40082(19) 0.23073(11)
F2A F 0.09342(10) 0.63713(19) 0.23069(11)
F3E F 0.10606(13) 0.1942(2) 0.01583(11)
F4E F 0.10188(13) 0.1989(2) 0.12814(11)
F5E F 0.04805(12) -0.2069(2) 0.11522(11)
F6E F 0.05171(13) -0.2158(2) 0.00264(11)
O1A O -0.04770(11) 0.2089(2) 0.21761(11)
O2A O -0.04738(11) 0.8275(2) 0.21709(11)
O2_2 O 0.04738(11) -0.1725(2) 0.28291(11)
O2A_2 O -0.04738(11) -0.1725(2) 0.21709(11)
O3E O 0.06898(13) 0.0801(2) -0.09065(11)
O3A O -0.06898(13) -0.0801(2) 0.09065(11)
O4E O 0.09467(14) -0.1093(3) -0.08218(12)
O4A O -0.09467(14) 0.1093(3) 0.08218(12)
O5E O 0.12055(13) -0.0048(3) 0.23116(12)
O5D O -0.12055(13) -0.0048(3) 0.26884(12)
O6E O 0.02202(12) 0.0210(2) 0.19622(12)
O6D O -0.02202(12) 0.0210(2) 0.30378(12)
C3A C 0.04734(17) 0.4573(3) 0.24191(17)
C4A C 0.04744(16) 0.5801(3) 0.24166(16)
C7E C 0.08122(17) -0.0141(3) -0.06059(16)
C8E C 0.07977(17) -0.0123(3) 0.00401(16)
C9E C 0.09189(18) 0.0928(4) 0.03862(17)
C10E C 0.08921(18) 0.0956(4) 0.09693(17)
C11E C 0.07439(17) -0.0033(3) 0.12430(17)
C12E C 0.06226(17) -0.1074(3) 0.09091(16)
C13E C 0.06569(17) -0.1121(3) 0.03229(17)
C14E C 0.07234(17) 0.0034(3) 0.18866(17)
O7A O -0.17252(11) 0.1327(2) 0.16000(12)
N1A N -0.23872(16) 0.2630(3) 0.17796(17)
C15A C -0.18571(17) 0.2082(3) 0.19212(19)
H1A H -0.1559 0.2285 0.2295
C16A C -0.2873(2) 0.2298(5) 0.1223(2)
H2A H -0.2692 0.2049 0.0910
H3A H -0.3133 0.3003 0.1067
C17A C -0.3253(3) 0.1302(7) 0.1332(3)
H4A H -0.3593 0.1154 0.0961
H5A H -0.3409 0.1523 0.1662
H6A H -0.3007 0.0577 0.1444
C18A C -0.2511(2) 0.3550(5) 0.2184(3)
H7A H -0.2201 0.3492 0.2590
H8A H -0.2912 0.3392 0.2232
C19A C -0.2506(3) 0.4797(5) 0.1939(4)
H9A H -0.2642 0.5365 0.2190
H10A H -0.2779 0.4835 0.1520
H11A H -0.2094 0.5003 0.1950
O8A O -0.16591(12) -0.1208(3) 0.14150(13)
H12A H -0.155(2) -0.195(4) 0.148(2)
C20A C -0.2140(2) -0.1064(5) 0.0842(3)
H13A H -0.1988 -0.1308 0.0508
H14A H -0.2252 -0.0208 0.0785
C21A C -0.2680(3) -0.1762(6) 0.0807(4)
H15A H -0.3005 -0.1563 0.0431
H16A H -0.2813 -0.1575 0.1157
H17A H -0.2586 -0.2616 0.0809
O9 O 0.14488(15) -0.3555(3) 0.37000(15)
N2 N 0.09406(19) -0.4811(3) 0.41313(16)
C22 C 0.1079(2) -0.3735(4) 0.3965(2)
H18 H 0.0877 -0.3062 0.4059
C23 C 0.0518(3) -0.4939(5) 0.4479(2)
H19 H 0.0429 -0.4137 0.4611
H20 H 0.0714 -0.5417 0.4848
C24 C -0.0067(3) -0.5528(7) 0.4124(3)
H21 H -0.0318 -0.5645 0.4387
H22 H 0.0019 -0.6304 0.3973
H23 H -0.0283 -0.5018 0.3779
C25 C 0.1261(2) -0.5877(4) 0.4035(2)
H24 H 0.1374 -0.5770 0.3662
H25 H 0.0984 -0.6573 0.3971
C26 C 0.1815(3) -0.6132(6) 0.4553(3)
H26 H 0.1980 -0.6909 0.4492
H27 H 0.1713 -0.6147 0.4931
H28 H 0.2117 -0.5507 0.4579
loop_
_geom_bond_atom_site_label_1
_geom_bond_atom_site_label_2
_geom_bond_site_symmetry_1
_geom_bond_site_symmetry_2
Tb1 O1 1_555 1_555
F1 C3 1_555 1_555
F2 C4 1_555 1_555
F3 C9 1_555 1_555
F4 C10 1_555 1_555
F5 C12 1_555 1_555
F6 C13 1_555 1_555
O1 C1 1_555 1_555
O2 C6 1_555 1_555
O3 Tb1 1_555 1_555
O4 Tb1 1_555 1_555
O5 C14 1_555 1_555
O6 C14 1_555 1_555
C1 C2 1_555 1_555
C2 C3 1_555 1_555
C3 C4 1_555 1_555
C4 C5 1_555 1_555
C5 C6 1_555 1_555
C6 O2A 1_555 1_555
C7 O3 1_555 1_555
C8 C7 1_555 1_555
C9 C8 1_555 1_555
C10 C9 1_555 1_555
C11 C10 1_555 1_555
C12 C11 1_555 1_555
C13 C8 1_555 1_555
C14 C11 1_555 1_555
O7 Tb1 1_555 1_555
N1 C15 1_555 1_555
C15 O7 1_555 1_555
H1 C15 1_555 1_555
C16 N1 1_555 1_555
H2 C16 1_555 1_555
H3 C16 1_555 1_555
C17 C16 1_555 1_555
H4 C17 1_555 1_555
H5 C17 1_555 1_555
H6 C17 1_555 1_555
C18 N1 1_555 1_555
H7 C18 1_555 1_555
H8 C18 1_555 1_555
C19 C18 1_555 1_555
H9 C19 1_555 1_555
H10 C19 1_555 1_555
H11 C19 1_555 1_555
O8 Tb1 1_555 1_555
H12 O8 1_555 1_555
C20 O8 1_555 1_555
H13 C20 1_555 1_555
H14 C20 1_555 1_555
C21 C20 1_555 1_555
H15 C21 1_555 1_555
H16 C21 1_555 1_555
H17 C21 1_555 1_555
O9 C22 1_555 1_555
N2 C22 1_555 1_555
C22 H18 1_555 1_555
C23 N2 1_555 1_555
H19 C23 1_555 1_555
H20 C23 1_555 1_555
C24 C23 1_555 1_555
H21 C24 1_555 1_555
H22 C24 1_555 1_555
H23 C24 1_555 1_555
C25 N2 1_555 1_555
H24 C25 1_555 1_555
H25 C25 1_555 1_555
C26 C25 1_555 1_555
H26 C26 1_555 1_555
H27 C26 1_555 1_555
H28 C26 1_555 1_555
Tb1A O1A 1_555 1_555
Tb1_2 O2 1_555 1_555
Tb1E O5 1_555 1_555
Tb1D O6 1_555 1_555
Tb1A_2 O2A 1_555 1_555
Tb1E_2 O3E 1_555 1_555
F1A C3A 1_555 1_555
F2A C4A 1_555 1_555
F3E C9E 1_555 1_555
F4E C10E 1_555 1_555
F5E C12E 1_555 1_555
F6E C13E 1_555 1_555
O1A C1 1_555 1_555
O2_2 Tb1 1_555 1_555
O2A_2 Tb1A 1_555 1_555
O3E C7E 1_555 1_555
O3A Tb1A 1_555 1_555
O4E Tb1E_2 1_555 1_555
O4A Tb1A 1_555 1_555
O5E Tb1 1_555 1_555
O5D Tb1A 1_555 1_555
O6E Tb1 1_555 1_555
O6D Tb1 1_555 1_555
C3A C2 1_555 1_555
C4A C5 1_555 1_555
C7E O4E 1_555 1_555
C8E C7E 1_555 1_555
C9E C8E 1_555 1_555
C10E C9E 1_555 1_555
C11E C10E 1_555 1_555
C12E C11E 1_555 1_555
C13E C8E 1_555 1_555
C14E O5E 1_555 1_555
O7A Tb1A 1_555 1_555
N1A C15A 1_555 1_555
C15A O7A 1_555 1_555
H1A C15A 1_555 1_555
C16A N1A 1_555 1_555
H2A C16A 1_555 1_555
H3A C16A 1_555 1_555
C17A C16A 1_555 1_555
H4A C17A 1_555 1_555
H5A C17A 1_555 1_555
H6A C17A 1_555 1_555
C18A N1A 1_555 1_555
H7A C18A 1_555 1_555
H8A C18A 1_555 1_555
C19A C18A 1_555 1_555
H9A C19A 1_555 1_555
H10A C19A 1_555 1_555
H11A C19A 1_555 1_555
O8A Tb1A 1_555 1_555
H12A O8A 1_555 1_555
C20A O8A 1_555 1_555
H13A C20A 1_555 1_555
H14A C20A 1_555 1_555
C21A C20A 1_555 1_555
H15A C21A 1_555 1_555
H16A C21A 1_555 1_555
H17A C21A 1_555 1_555
O4 C7 1_555 1_555
O6 Tb1E 1_555 1_555
C12 C13 1_555 1_555
Tb1A O6E 1_555 1_555
Tb1A O6D 1_555 1_555
O6E C14E 1_555 1_555
C3A C4A 1_555 1_555
C11E C14E 1_555 1_555
C12E C13E 1_555 1_555

#END
