
#######################################################################
#
#                 Cambridge Crystallographic Data Centre
#                                CCDC 
#
#######################################################################
#
# If this CIF has been generated from an entry in the Cambridge 
# Structural Database, then it will include bibliographic, chemical, 
# crystal, experimental, refinement or atomic coordinate data resulting 
# from the CCDC's data processing and validation procedures.
#
#######################################################################

data_EKEFOQ
_symmetry_cell_setting           monoclinic
_symmetry_space_group_name_H-M   'C 2/c'
_symmetry_Int_Tables_number      15
_space_group_name_Hall           '-C 2yn'
loop_
_symmetry_equiv_pos_site_id
_symmetry_equiv_pos_as_xyz
1 x,y,z
2 -x,y,1/2-z
3 1/2+x,1/2+y,z
4 1/2-x,1/2+y,1/2-z
5 -x,-y,-z
6 x,-y,1/2+z
7 1/2-x,1/2-y,-z
8 1/2+x,1/2-y,1/2+z
_cell_length_a                   23.312(3)
_cell_length_b                   11.2196(15)
_cell_length_c                   23.249(3)
_cell_angle_alpha                90
_cell_angle_beta                 108.630(2)
_cell_angle_gamma                90
_cell_volume                     5762.18
loop_
_atom_site_label
_atom_site_type_symbol
_atom_site_fract_x
_atom_site_fract_y
_atom_site_fract_z
Gd1 Gd 0.082376(9) 0.015284(16) 0.318953(8)
F1 F -0.09382(13) 0.4004(2) 0.26869(14)
F2 F -0.09373(13) 0.6362(2) 0.26862(13)
F3 F 0.10564(17) -0.1938(3) 0.51644(13)
F4 F 0.10205(17) -0.1979(3) 0.62844(13)
F5 F 0.04847(15) 0.2071(3) 0.61539(13)
F6 F 0.05174(16) 0.2151(2) 0.50290(13)
O1 O 0.04759(14) 0.2094(3) 0.28294(14)
O2 O 0.04718(14) 0.8259(3) 0.28320(14)
O3 O 0.06778(16) -0.0801(3) 0.40995(14)
O4 O 0.09480(17) 0.1080(3) 0.41858(14)
O5 O 0.12115(16) 0.0068(3) 0.73136(15)
O6 O 0.02325(14) -0.0208(3) 0.69714(13)
C1 C 0.0000 0.2568(5) 0.2500
C2 C 0.0000 0.3921(5) 0.2500
C3 C -0.0475(2) 0.4566(4) 0.2582(2)
C4 C -0.0476(2) 0.5800(4) 0.2578(2)
C5 C 0.0000 0.6431(5) 0.2500
C6 C 0.0000 0.7773(5) 0.2500
C7 C 0.0810(2) 0.0141(4) 0.43984(19)
C8 C 0.0793(2) 0.0127(4) 0.50405(19)
C9 C 0.0916(2) -0.0919(4) 0.5392(2)
C10 C 0.0894(2) -0.0955(4) 0.5972(2)
C11 C 0.0745(2) 0.0038(4) 0.6244(2)
C12 C 0.0626(2) 0.1078(4) 0.5910(2)
C13 C 0.0657(2) 0.1110(4) 0.5325(2)
C14 C 0.0731(2) -0.0019(4) 0.6892(2)
O7 O 0.17314(14) 0.1319(3) 0.34029(14)
N1 N 0.2390(2) 0.2625(4) 0.3226(2)
C15 C 0.1860(2) 0.2084(4) 0.3083(2)
H1 H 0.1561 0.2296 0.2713
C16 C 0.2873(3) 0.2299(6) 0.3776(3)
H2 H 0.2695 0.2049 0.4089
H3 H 0.3131 0.3005 0.3931
C17 C 0.3257(4) 0.1310(8) 0.3668(4)
H4 H 0.3571 0.1108 0.4050
H5 H 0.3448 0.1566 0.3369
H6 H 0.3004 0.0609 0.3514
C18 C 0.2508(3) 0.3554(6) 0.2825(3)
H7 H 0.2198 0.3495 0.2420
H8 H 0.2908 0.3404 0.2775
C19 C 0.2501(4) 0.4785(6) 0.3067(5)
H9 H 0.2606 0.5359 0.2799
H10 H 0.2795 0.4840 0.3475
H11 H 0.2095 0.4964 0.3085
O8 O 0.16608(16) -0.1217(3) 0.35983(16)
H12 H 0.155(3) -0.189(5) 0.357(3)
C20 C 0.2146(3) -0.1071(7) 0.4168(4)
H13 H 0.1998 -0.1319 0.4505
H14 H 0.2255 -0.0217 0.4226
C21 C 0.2684(4) -0.1757(8) 0.4200(5)
H15 H 0.3010 -0.1553 0.4573
H16 H 0.2812 -0.1570 0.3847
H17 H 0.2593 -0.2610 0.4200
Gd1A Gd -0.082376(9) 0.015284(16) 0.181047(8)
Gd1_2 Gd 0.082376(9) 1.015284(16) 0.318953(8)
Gd1E Gd 0.082376(9) -0.015284(16) 0.818953(8)
Gd1D Gd -0.082376(9) -0.015284(16) 0.681047(8)
Gd1A_2 Gd -0.082376(9) 1.015284(16) 0.181047(8)
Gd1E_2 Gd 0.082376(9) -0.015284(16) -0.181047(8)
F1A F 0.09382(13) 0.4004(2) 0.23131(14)
F2A F 0.09373(13) 0.6362(2) 0.23138(13)
F3E F 0.10564(17) 0.1938(3) 0.01644(13)
F4E F 0.10205(17) 0.1979(3) 0.12844(13)
F5E F 0.04847(15) -0.2071(3) 0.11539(13)
F6E F 0.05174(16) -0.2151(2) 0.00290(13)
O1A O -0.04759(14) 0.2094(3) 0.21706(14)
O2A O -0.04718(14) 0.8259(3) 0.21680(14)
O2_2 O 0.04718(14) -0.1741(3) 0.28320(14)
O2A_2 O -0.04718(14) -0.1741(3) 0.21680(14)
O3E O 0.06778(16) 0.0801(3) -0.09005(14)
O3A O -0.06778(16) -0.0801(3) 0.09005(14)
O4E O 0.09480(17) -0.1080(3) -0.08142(14)
O4A O -0.09480(17) 0.1080(3) 0.08142(14)
O5E O 0.12115(16) -0.0068(3) 0.23136(15)
O5D O -0.12115(16) -0.0068(3) 0.26864(15)
O6E O 0.02325(14) 0.0208(3) 0.19714(13)
O6D O -0.02325(14) 0.0208(3) 0.30286(13)
C3A C 0.0475(2) 0.4566(4) 0.2418(2)
C4A C 0.0476(2) 0.5800(4) 0.2422(2)
C7E C 0.0810(2) -0.0141(4) -0.06016(19)
C8E C 0.0793(2) -0.0127(4) 0.00405(19)
C9E C 0.0916(2) 0.0919(4) 0.0392(2)
C10E C 0.0894(2) 0.0955(4) 0.0972(2)
C11E C 0.0745(2) -0.0038(4) 0.1244(2)
C12E C 0.0626(2) -0.1078(4) 0.0910(2)
C13E C 0.0657(2) -0.1110(4) 0.0325(2)
C14E C 0.0731(2) 0.0019(4) 0.1892(2)
O7A O -0.17314(14) 0.1319(3) 0.15971(14)
N1A N -0.2390(2) 0.2625(4) 0.1774(2)
C15A C -0.1860(2) 0.2084(4) 0.1917(2)
H1A H -0.1561 0.2296 0.2287
C16A C -0.2873(3) 0.2299(6) 0.1224(3)
H2A H -0.2695 0.2049 0.0911
H3A H -0.3131 0.3005 0.1069
C17A C -0.3257(4) 0.1310(8) 0.1332(4)
H4A H -0.3571 0.1108 0.0950
H5A H -0.3448 0.1566 0.1631
H6A H -0.3004 0.0609 0.1486
C18A C -0.2508(3) 0.3554(6) 0.2175(3)
H7A H -0.2198 0.3495 0.2580
H8A H -0.2908 0.3404 0.2225
C19A C -0.2501(4) 0.4785(6) 0.1933(5)
H9A H -0.2606 0.5359 0.2201
H10A H -0.2795 0.4840 0.1525
H11A H -0.2095 0.4964 0.1915
O8A O -0.16608(16) -0.1217(3) 0.14017(16)
H12A H -0.155(3) -0.189(5) 0.143(3)
C20A C -0.2146(3) -0.1071(7) 0.0832(4)
H13A H -0.1998 -0.1319 0.0495
H14A H -0.2255 -0.0217 0.0774
C21A C -0.2684(4) -0.1757(8) 0.0800(5)
H15A H -0.3010 -0.1553 0.0427
H16A H -0.2812 -0.1570 0.1153
H17A H -0.2593 -0.2610 0.0800
O9 O 0.1445(2) -0.3551(3) 0.37152(19)
N2 N 0.0935(2) -0.4829(4) 0.4130(2)
C22 C 0.1065(3) -0.3736(5) 0.3973(2)
H18 H 0.0855 -0.3074 0.4064
C23 C 0.0506(4) -0.4943(6) 0.4475(3)
H19 H 0.0416 -0.4139 0.4599
H20 H 0.0700 -0.5409 0.4848
C24 C -0.0072(3) -0.5534(8) 0.4123(3)
H21 H -0.0312 -0.5695 0.4392
H22 H 0.0017 -0.6285 0.3954
H23 H -0.0300 -0.5009 0.3792
C25 C 0.1255(3) -0.5872(5) 0.4031(3)
H24 H 0.1375 -0.5749 0.3663
H25 H 0.0980 -0.6568 0.3958
C26 C 0.1803(4) -0.6134(7) 0.4551(3)
H26 H 0.1971 -0.6905 0.4487
H27 H 0.1695 -0.6163 0.4926
H28 H 0.2105 -0.5508 0.4585
loop_
_geom_bond_atom_site_label_1
_geom_bond_atom_site_label_2
_geom_bond_site_symmetry_1
_geom_bond_site_symmetry_2
Gd1 O1 1_555 1_555
F1 C3 1_555 1_555
F2 C4 1_555 1_555
F3 C9 1_555 1_555
F4 C10 1_555 1_555
F5 C12 1_555 1_555
F6 C13 1_555 1_555
O1 C1 1_555 1_555
O2 C6 1_555 1_555
O3 Gd1 1_555 1_555
O4 Gd1 1_555 1_555
O5 C14 1_555 1_555
O6 C14 1_555 1_555
C1 C2 1_555 1_555
C2 C3 1_555 1_555
C3 C4 1_555 1_555
C4 C5 1_555 1_555
C5 C6 1_555 1_555
C6 O2A 1_555 1_555
C7 O3 1_555 1_555
C8 C7 1_555 1_555
C9 C8 1_555 1_555
C10 C9 1_555 1_555
C11 C10 1_555 1_555
C12 C11 1_555 1_555
C13 C8 1_555 1_555
C14 C11 1_555 1_555
O7 Gd1 1_555 1_555
N1 C15 1_555 1_555
C15 O7 1_555 1_555
H1 C15 1_555 1_555
C16 N1 1_555 1_555
H2 C16 1_555 1_555
H3 C16 1_555 1_555
C17 C16 1_555 1_555
H4 C17 1_555 1_555
H5 C17 1_555 1_555
H6 C17 1_555 1_555
C18 N1 1_555 1_555
H7 C18 1_555 1_555
H8 C18 1_555 1_555
C19 C18 1_555 1_555
H9 C19 1_555 1_555
H10 C19 1_555 1_555
H11 C19 1_555 1_555
O8 Gd1 1_555 1_555
H12 O8 1_555 1_555
C20 O8 1_555 1_555
H13 C20 1_555 1_555
H14 C20 1_555 1_555
C21 C20 1_555 1_555
H15 C21 1_555 1_555
H16 C21 1_555 1_555
H17 C21 1_555 1_555
O9 C22 1_555 1_555
N2 C22 1_555 1_555
C22 H18 1_555 1_555
C23 N2 1_555 1_555
H19 C23 1_555 1_555
H20 C23 1_555 1_555
C24 C23 1_555 1_555
H21 C24 1_555 1_555
H22 C24 1_555 1_555
H23 C24 1_555 1_555
C25 N2 1_555 1_555
H24 C25 1_555 1_555
H25 C25 1_555 1_555
C26 C25 1_555 1_555
H26 C26 1_555 1_555
H27 C26 1_555 1_555
H28 C26 1_555 1_555
Gd1A O1A 1_555 1_555
Gd1_2 O2 1_555 1_555
Gd1E O5 1_555 1_555
Gd1D O6 1_555 1_555
Gd1A_2 O2A 1_555 1_555
Gd1E_2 O3E 1_555 1_555
F1A C3A 1_555 1_555
F2A C4A 1_555 1_555
F3E C9E 1_555 1_555
F4E C10E 1_555 1_555
F5E C12E 1_555 1_555
F6E C13E 1_555 1_555
O1A C1 1_555 1_555
O2_2 Gd1 1_555 1_555
O2A_2 Gd1A 1_555 1_555
O3E C7E 1_555 1_555
O3A Gd1A 1_555 1_555
O4E Gd1E_2 1_555 1_555
O4A Gd1A 1_555 1_555
O5E Gd1 1_555 1_555
O5D Gd1A 1_555 1_555
O6E Gd1 1_555 1_555
O6D Gd1 1_555 1_555
C3A C2 1_555 1_555
C4A C5 1_555 1_555
C7E O4E 1_555 1_555
C8E C7E 1_555 1_555
C9E C8E 1_555 1_555
C10E C9E 1_555 1_555
C11E C10E 1_555 1_555
C12E C11E 1_555 1_555
C13E C8E 1_555 1_555
C14E O5E 1_555 1_555
O7A Gd1A 1_555 1_555
N1A C15A 1_555 1_555
C15A O7A 1_555 1_555
H1A C15A 1_555 1_555
C16A N1A 1_555 1_555
H2A C16A 1_555 1_555
H3A C16A 1_555 1_555
C17A C16A 1_555 1_555
H4A C17A 1_555 1_555
H5A C17A 1_555 1_555
H6A C17A 1_555 1_555
C18A N1A 1_555 1_555
H7A C18A 1_555 1_555
H8A C18A 1_555 1_555
C19A C18A 1_555 1_555
H9A C19A 1_555 1_555
H10A C19A 1_555 1_555
H11A C19A 1_555 1_555
O8A Gd1A 1_555 1_555
H12A O8A 1_555 1_555
C20A O8A 1_555 1_555
H13A C20A 1_555 1_555
H14A C20A 1_555 1_555
C21A C20A 1_555 1_555
H15A C21A 1_555 1_555
H16A C21A 1_555 1_555
H17A C21A 1_555 1_555
O4 C7 1_555 1_555
O6 Gd1E 1_555 1_555
C12 C13 1_555 1_555
Gd1A O6E 1_555 1_555
Gd1A O6D 1_555 1_555
O6E C14E 1_555 1_555
C3A C4A 1_555 1_555
C11E C14E 1_555 1_555
C12E C13E 1_555 1_555

#END
