
#######################################################################
#
#                 Cambridge Crystallographic Data Centre
#                                CCDC 
#
#######################################################################
#
# If this CIF has been generated from an entry in the Cambridge 
# Structural Database, then it will include bibliographic, chemical, 
# crystal, experimental, refinement or atomic coordinate data resulting 
# from the CCDC's data processing and validation procedures.
#
#######################################################################

data_EKEGAD
_symmetry_cell_setting           monoclinic
_symmetry_space_group_name_H-M   'C 2/c'
_symmetry_Int_Tables_number      15
_space_group_name_Hall           '-C 2yn'
loop_
_symmetry_equiv_pos_site_id
_symmetry_equiv_pos_as_xyz
1 x,y,z
2 -x,y,1/2-z
3 1/2+x,1/2+y,z
4 1/2-x,1/2+y,1/2-z
5 -x,-y,-z
6 x,-y,1/2+z
7 1/2-x,1/2-y,-z
8 1/2+x,1/2-y,1/2+z
_cell_length_a                   23.5423(16)
_cell_length_b                   11.3837(8)
_cell_length_c                   23.6231(16)
_cell_angle_alpha                90
_cell_angle_beta                 108.640(1)
_cell_angle_gamma                90
_cell_volume                     5998.87
loop_
_atom_site_label
_atom_site_type_symbol
_atom_site_fract_x
_atom_site_fract_y
_atom_site_fract_z
La1 La 0.083262(7) 0.015001(13) 0.321500(6)
F1 F -0.09380(9) 0.40148(16) 0.26652(10)
F2 F -0.09379(9) 0.63408(16) 0.26618(9)
F3 F 0.10669(13) -0.1893(2) 0.51957(9)
F4 F 0.10427(13) -0.1941(2) 0.63061(9)
F5 F 0.04975(11) 0.20363(17) 0.61805(9)
F6 F 0.05118(11) 0.21200(17) 0.50648(9)
O1 O 0.04614(10) 0.21347(17) 0.28396(10)
O2 O 0.04532(10) 0.82073(18) 0.28474(10)
O3 O 0.06646(11) -0.0770(2) 0.41421(9)
O4 O 0.09635(13) 0.1070(2) 0.42478(10)
O5 O 0.12490(11) 0.0086(2) 0.73143(11)
O6 O 0.02748(10) -0.01986(18) 0.69942(9)
C1 C 0.0000 0.2608(3) 0.2500
C2 C 0.0000 0.3934(3) 0.2500
C3 C -0.04740(14) 0.4568(3) 0.25666(14)
C4 C -0.04748(13) 0.5782(2) 0.25687(14)
C5 C 0.0000 0.6409(3) 0.2500
C6 C 0.0000 0.7737(3) 0.2500
C7 C 0.08106(14) 0.0144(3) 0.44448(13)
C8 C 0.07979(14) 0.0120(3) 0.50813(13)
C9 C 0.09190(16) -0.0905(3) 0.54204(14)
C10 C 0.09087(15) -0.0936(3) 0.59974(14)
C11 C 0.07681(13) 0.0041(3) 0.62725(13)
C12 C 0.06392(14) 0.1060(3) 0.59377(13)
C13 C 0.06562(14) 0.1103(3) 0.53589(13)
C14 C 0.07677(14) -0.0019(3) 0.69086(13)
O7 O 0.17666(10) 0.1362(2) 0.34213(11)
N1 N 0.24054(15) 0.2687(3) 0.32443(17)
C15 C 0.18862(16) 0.2136(3) 0.31119(18)
H1 H 0.1583 0.2350 0.2753
C16 C 0.28882(19) 0.2354(5) 0.3786(2)
H2 H 0.2713 0.2090 0.4093
H3 H 0.3142 0.3049 0.3945
C17 C 0.3266(2) 0.1399(6) 0.3667(3)
H4 H 0.3589 0.1210 0.4036
H5 H 0.3439 0.1657 0.3362
H6 H 0.3018 0.0700 0.3525
C18 C 0.2511(2) 0.3612(5) 0.2856(3)
H7 H 0.2205 0.3550 0.2456
H8 H 0.2909 0.3489 0.2807
C19 C 0.2488(3) 0.4837(5) 0.3104(4)
H9 H 0.2576 0.5420 0.2838
H10 H 0.2785 0.4899 0.3502
H11 H 0.2086 0.4981 0.3130
O8 O 0.16789(11) -0.1292(2) 0.36345(12)
H12 H 0.163(2) -0.200(4) 0.362(2)
C20 C 0.2189(3) -0.1144(6) 0.4146(4)
H13 H 0.2286 -0.0296 0.4177
H14 H 0.2065 -0.1345 0.4498
C21 C 0.2706(3) -0.1729(8) 0.4207(5)
H15 H 0.3034 -0.1360 0.4523
H16 H 0.2794 -0.1701 0.3830
H17 H 0.2663 -0.2549 0.4314
La1A La -0.083262(7) 0.015001(13) 0.178500(6)
La1_2 La 0.083262(7) 1.015001(13) 0.321500(6)
La1E La 0.083262(7) -0.015001(13) 0.821500(6)
La1D La -0.083262(7) -0.015001(13) 0.678500(6)
La1A_2 La -0.083262(7) 1.015001(13) 0.178500(6)
La1E_2 La 0.083262(7) -0.015001(13) -0.178500(6)
F1A F 0.09380(9) 0.40148(16) 0.23348(10)
F2A F 0.09379(9) 0.63408(16) 0.23382(9)
F3E F 0.10669(13) 0.1893(2) 0.01957(9)
F4E F 0.10427(13) 0.1941(2) 0.13061(9)
F5E F 0.04975(11) -0.20363(17) 0.11805(9)
F6E F 0.05118(11) -0.21200(17) 0.00648(9)
O1A O -0.04614(10) 0.21347(17) 0.21604(10)
O2A O -0.04532(10) 0.82073(18) 0.21526(10)
O2_2 O 0.04532(10) -0.17927(18) 0.28474(10)
O2A_2 O -0.04532(10) -0.17927(18) 0.21526(10)
O3E O 0.06646(11) 0.0770(2) -0.08579(9)
O3A O -0.06646(11) -0.0770(2) 0.08579(9)
O4E O 0.09635(13) -0.1070(2) -0.07522(10)
O4A O -0.09635(13) 0.1070(2) 0.07522(10)
O5E O 0.12490(11) -0.0086(2) 0.23143(11)
O5D O -0.12490(11) -0.0086(2) 0.26857(11)
O6E O 0.02748(10) 0.01986(18) 0.19942(9)
O6D O -0.02748(10) 0.01986(18) 0.30058(9)
C3A C 0.04740(14) 0.4568(3) 0.24334(14)
C4A C 0.04748(13) 0.5782(2) 0.24313(14)
C7E C 0.08106(14) -0.0144(3) -0.05552(13)
C8E C 0.07979(14) -0.0120(3) 0.00813(13)
C9E C 0.09190(16) 0.0905(3) 0.04204(14)
C10E C 0.09087(15) 0.0936(3) 0.09974(14)
C11E C 0.07681(13) -0.0041(3) 0.12725(13)
C12E C 0.06392(14) -0.1060(3) 0.09377(13)
C13E C 0.06562(14) -0.1103(3) 0.03589(13)
C14E C 0.07677(14) 0.0019(3) 0.19086(13)
O7A O -0.17666(10) 0.1362(2) 0.15787(11)
N1A N -0.24054(15) 0.2687(3) 0.17557(17)
C15A C -0.18862(16) 0.2136(3) 0.18881(18)
H1A H -0.1583 0.2350 0.2247
C16A C -0.28882(19) 0.2354(5) 0.1214(2)
H2A H -0.2713 0.2090 0.0907
H3A H -0.3142 0.3049 0.1055
C17A C -0.3266(2) 0.1399(6) 0.1333(3)
H4A H -0.3589 0.1210 0.0964
H5A H -0.3439 0.1657 0.1638
H6A H -0.3018 0.0700 0.1475
C18A C -0.2511(2) 0.3612(5) 0.2144(3)
H7A H -0.2205 0.3550 0.2544
H8A H -0.2909 0.3489 0.2193
C19A C -0.2488(3) 0.4837(5) 0.1896(4)
H9A H -0.2576 0.5420 0.2162
H10A H -0.2785 0.4899 0.1498
H11A H -0.2086 0.4981 0.1870
O8A O -0.16789(11) -0.1292(2) 0.13655(12)
H12A H -0.163(2) -0.200(4) 0.138(2)
C20A C -0.2189(3) -0.1144(6) 0.0854(4)
H13A H -0.2286 -0.0296 0.0823
H14A H -0.2065 -0.1345 0.0502
C21A C -0.2706(3) -0.1729(8) 0.0793(5)
H15A H -0.3034 -0.1360 0.0477
H16A H -0.2794 -0.1701 0.1170
H17A H -0.2663 -0.2549 0.0686
O9 O 0.14471(14) -0.3576(3) 0.37569(14)
N2 N 0.09170(19) -0.4817(3) 0.41444(16)
C22 C 0.1068(2) -0.3757(4) 0.40024(18)
H18 H 0.0869 -0.3096 0.4097
C23 C 0.0488(3) -0.4948(4) 0.4468(2)
H19 H 0.0399 -0.4163 0.4599
H20 H 0.0673 -0.5427 0.4830
C24 C -0.0087(3) -0.5513(7) 0.4107(3)
H21 H -0.0336 -0.5660 0.4363
H22 H -0.0001 -0.6259 0.3944
H23 H -0.0301 -0.4991 0.3779
C25 C 0.1227(2) -0.5866(4) 0.40381(18)
H24 H 0.1347 -0.5741 0.3678
H25 H 0.0946 -0.6539 0.3958
C26 C 0.1769(3) -0.6162(6) 0.4552(2)
H26 H 0.1921 -0.6933 0.4485
H27 H 0.1663 -0.6181 0.4920
H28 H 0.2078 -0.5565 0.4587
loop_
_geom_bond_atom_site_label_1
_geom_bond_atom_site_label_2
_geom_bond_site_symmetry_1
_geom_bond_site_symmetry_2
La1 O1 1_555 1_555
F1 C3 1_555 1_555
F2 C4 1_555 1_555
F3 C9 1_555 1_555
F4 C10 1_555 1_555
F5 C12 1_555 1_555
F6 C13 1_555 1_555
O1 C1 1_555 1_555
O2 C6 1_555 1_555
O3 La1 1_555 1_555
O4 La1 1_555 1_555
O5 C14 1_555 1_555
O6 C14 1_555 1_555
C1 C2 1_555 1_555
C2 C3 1_555 1_555
C3 C4 1_555 1_555
C4 C5 1_555 1_555
C5 C6 1_555 1_555
C6 O2A 1_555 1_555
C7 O3 1_555 1_555
C8 C7 1_555 1_555
C9 C8 1_555 1_555
C10 C9 1_555 1_555
C11 C10 1_555 1_555
C12 C11 1_555 1_555
C13 C8 1_555 1_555
C14 C11 1_555 1_555
O7 La1 1_555 1_555
N1 C15 1_555 1_555
C15 O7 1_555 1_555
H1 C15 1_555 1_555
C16 N1 1_555 1_555
H2 C16 1_555 1_555
H3 C16 1_555 1_555
C17 C16 1_555 1_555
H4 C17 1_555 1_555
H5 C17 1_555 1_555
H6 C17 1_555 1_555
C18 N1 1_555 1_555
H7 C18 1_555 1_555
H8 C18 1_555 1_555
C19 C18 1_555 1_555
H9 C19 1_555 1_555
H10 C19 1_555 1_555
H11 C19 1_555 1_555
O8 La1 1_555 1_555
H12 O8 1_555 1_555
C20 O8 1_555 1_555
H13 C20 1_555 1_555
H14 C20 1_555 1_555
C21 C20 1_555 1_555
H15 C21 1_555 1_555
H16 C21 1_555 1_555
H17 C21 1_555 1_555
O9 C22 1_555 1_555
N2 C22 1_555 1_555
C22 H18 1_555 1_555
C23 N2 1_555 1_555
H19 C23 1_555 1_555
H20 C23 1_555 1_555
C24 C23 1_555 1_555
H21 C24 1_555 1_555
H22 C24 1_555 1_555
H23 C24 1_555 1_555
C25 N2 1_555 1_555
H24 C25 1_555 1_555
H25 C25 1_555 1_555
C26 C25 1_555 1_555
H26 C26 1_555 1_555
H27 C26 1_555 1_555
H28 C26 1_555 1_555
La1A O1A 1_555 1_555
La1_2 O2 1_555 1_555
La1E O5 1_555 1_555
La1D O6 1_555 1_555
La1A_2 O2A 1_555 1_555
La1E_2 O3E 1_555 1_555
F1A C3A 1_555 1_555
F2A C4A 1_555 1_555
F3E C9E 1_555 1_555
F4E C10E 1_555 1_555
F5E C12E 1_555 1_555
F6E C13E 1_555 1_555
O1A C1 1_555 1_555
O2_2 La1 1_555 1_555
O2A_2 La1A 1_555 1_555
O3E C7E 1_555 1_555
O3A La1A 1_555 1_555
O4E La1E_2 1_555 1_555
O4A La1A 1_555 1_555
O5E La1 1_555 1_555
O5D La1A 1_555 1_555
O6E La1 1_555 1_555
O6D La1 1_555 1_555
C3A C2 1_555 1_555
C4A C5 1_555 1_555
C7E O4E 1_555 1_555
C8E C7E 1_555 1_555
C9E C8E 1_555 1_555
C10E C9E 1_555 1_555
C11E C10E 1_555 1_555
C12E C11E 1_555 1_555
C13E C8E 1_555 1_555
C14E O5E 1_555 1_555
O7A La1A 1_555 1_555
N1A C15A 1_555 1_555
C15A O7A 1_555 1_555
H1A C15A 1_555 1_555
C16A N1A 1_555 1_555
H2A C16A 1_555 1_555
H3A C16A 1_555 1_555
C17A C16A 1_555 1_555
H4A C17A 1_555 1_555
H5A C17A 1_555 1_555
H6A C17A 1_555 1_555
C18A N1A 1_555 1_555
H7A C18A 1_555 1_555
H8A C18A 1_555 1_555
C19A C18A 1_555 1_555
H9A C19A 1_555 1_555
H10A C19A 1_555 1_555
H11A C19A 1_555 1_555
O8A La1A 1_555 1_555
H12A O8A 1_555 1_555
C20A O8A 1_555 1_555
H13A C20A 1_555 1_555
H14A C20A 1_555 1_555
C21A C20A 1_555 1_555
H15A C21A 1_555 1_555
H16A C21A 1_555 1_555
H17A C21A 1_555 1_555
O4 C7 1_555 1_555
O6 La1E 1_555 1_555
C12 C13 1_555 1_555
La1A O6E 1_555 1_555
La1A O6D 1_555 1_555
O6E C14E 1_555 1_555
C3A C4A 1_555 1_555
C11E C14E 1_555 1_555
C12E C13E 1_555 1_555

#END
