
#######################################################################
#
#                 Cambridge Crystallographic Data Centre
#                                CCDC 
#
#######################################################################
#
# If this CIF has been generated from an entry in the Cambridge 
# Structural Database, then it will include bibliographic, chemical, 
# crystal, experimental, refinement or atomic coordinate data resulting 
# from the CCDC's data processing and validation procedures.
#
#######################################################################

data_EKEGEG
_symmetry_cell_setting           monoclinic
_symmetry_space_group_name_H-M   'P 21/n'
_symmetry_Int_Tables_number      14
_space_group_name_Hall           '-P 2yn'
loop_
_symmetry_equiv_pos_site_id
_symmetry_equiv_pos_as_xyz
1 x,y,z
2 1/2+x,1/2-y,1/2+z
3 -x,-y,-z
4 1/2-x,1/2+y,1/2-z
_cell_length_a                   8.501(4)
_cell_length_b                   8.369(4)
_cell_length_c                   15.403(6)
_cell_angle_alpha                90
_cell_angle_beta                 92.463(6)
_cell_angle_gamma                90
_cell_volume                     1094.83
loop_
_atom_site_label
_atom_site_type_symbol
_atom_site_fract_x
_atom_site_fract_y
_atom_site_fract_z
Zn1 Zn 0.5000 0.0000 0.5000
N1 N 0.18263(13) 0.37693(14) 0.41637(8)
N2 N 0.24862(15) 0.45436(15) 0.48686(8)
N3 N 0.37012(14) 0.21927(14) 0.46558(8)
N4 N 0.13340(14) 0.71885(14) 0.38136(8)
N5 N 0.04728(14) 0.77867(15) 0.44665(8)
N6 N 0.29658(14) 0.87063(14) 0.45601(8)
N7 N 0.40691(16) 0.02740(16) 0.62838(9)
N8 N 0.21224(17) 0.0937(2) 0.73570(10)
N9 N -0.03779(19) -0.0497(2) 0.75295(11)
C1 C 0.36050(17) 0.35500(17) 0.51375(10)
H1 H 0.4275 0.3759 0.5617
C2 C 0.25508(17) 0.23807(17) 0.40524(9)
H2 H 0.2290 0.1648 0.3616
C3 C 0.15140(16) 0.86857(17) 0.48949(10)
H3 H 0.1274 0.9262 0.5388
C4 C 0.27970(16) 0.77446(16) 0.38787(9)
H4 H 0.3587 0.7496 0.3502
C5 C 0.04098(16) 0.43993(17) 0.37144(10)
H5 H -0.0387 0.4583 0.4135
H6 H 0.0004 0.3607 0.3303
C6 C 0.07054(17) 0.59532(17) 0.32310(9)
H7 H 0.1443 0.5757 0.2780
H8 H -0.0274 0.6323 0.2954
C7 C 0.31020(17) 0.05377(19) 0.67694(10)
C8 C 0.0812(2) 0.01225(19) 0.74243(10)
N1B N 0.81737(13) -0.37693(14) 0.58363(8)
N2B N 0.75138(15) -0.45436(15) 0.51314(8)
N3B N 0.62988(14) -0.21927(14) 0.53442(8)
N4B N 0.86660(14) -0.71885(14) 0.61864(8)
N5B N 0.95272(14) -0.77867(15) 0.55335(8)
N6B N 0.70342(14) -0.87063(14) 0.54399(8)
C1B C 0.63950(17) -0.35500(17) 0.48625(10)
H1B H 0.5725 -0.3759 0.4383
C2B C 0.74492(17) -0.23807(17) 0.59476(9)
H2B H 0.7710 -0.1648 0.6384
C3B C 0.84860(16) -0.86857(17) 0.51051(10)
H3B H 0.8726 -0.9262 0.4612
C4B C 0.72030(16) -0.77446(16) 0.61213(9)
H4B H 0.6413 -0.7496 0.6498
C5B C 0.95902(16) -0.43993(17) 0.62856(10)
H5B H 1.0387 -0.4583 0.5865
H6B H 0.9996 -0.3607 0.6697
C6B C 0.92946(17) -0.59532(17) 0.67690(9)
H7B H 0.8557 -0.5757 0.7220
H8B H 1.0274 -0.6323 0.7046
N7B N 0.59309(16) -0.02740(16) 0.37162(9)
N8B N 0.78776(17) -0.0937(2) 0.26430(10)
N9B N 1.03779(19) 0.0497(2) 0.24705(11)
C7B C 0.68980(17) -0.05377(19) 0.32306(10)
C8B C 0.9188(2) -0.01225(19) 0.25757(10)
N6_2 N 0.29658(14) -0.12937(14) 0.45601(8)
N6B_2 N 0.70342(14) 0.12937(14) 0.54399(8)
Zn1_2 Zn 0.5000 1.0000 0.5000
Zn1_3 Zn 0.5000 -1.0000 0.5000
loop_
_geom_bond_atom_site_label_1
_geom_bond_atom_site_label_2
_geom_bond_site_symmetry_1
_geom_bond_site_symmetry_2
Zn1 N3 1_555 1_555
N1 N2 1_555 1_555
N2 C1 1_555 1_555
N3 C1 1_555 1_555
N4 N5 1_555 1_555
N5 C3 1_555 1_555
N6 C3 1_555 1_555
N7 Zn1 1_555 1_555
N8 C7 1_555 1_555
N9 C8 1_555 1_555
C1 H1 1_555 1_555
C2 N1 1_555 1_555
H2 C2 1_555 1_555
C3 H3 1_555 1_555
C4 N4 1_555 1_555
H4 C4 1_555 1_555
C5 N1 1_555 1_555
H5 C5 1_555 1_555
H6 C5 1_555 1_555
C6 N4 1_555 1_555
H7 C6 1_555 1_555
H8 C6 1_555 1_555
C7 N7 1_555 1_555
C8 N8 1_555 1_555
N1B N2B 1_555 1_555
N2B C1B 1_555 1_555
N3B Zn1 1_555 1_555
N4B N5B 1_555 1_555
N5B C3B 1_555 1_555
N6B C3B 1_555 1_555
C1B N3B 1_555 1_555
H1B C1B 1_555 1_555
C2B N1B 1_555 1_555
H2B C2B 1_555 1_555
C3B H3B 1_555 1_555
C4B N4B 1_555 1_555
H4B C4B 1_555 1_555
C5B N1B 1_555 1_555
H5B C5B 1_555 1_555
H6B C5B 1_555 1_555
C6B N4B 1_555 1_555
H7B C6B 1_555 1_555
H8B C6B 1_555 1_555
N7B Zn1 1_555 1_555
N8B C7B 1_555 1_555
N9B C8B 1_555 1_555
C7B N7B 1_555 1_555
C8B N8B 1_555 1_555
N6_2 Zn1 1_555 1_555
N6B_2 Zn1 1_555 1_555
Zn1_2 N6 1_555 1_555
Zn1_3 N6B 1_555 1_555
N3 C2 1_555 1_555
N6 C4 1_555 1_555
C5 C6 1_555 1_555
N3B C2B 1_555 1_555
N6B C4B 1_555 1_555
C5B C6B 1_555 1_555

#END
