
#######################################################################
#
#                 Cambridge Crystallographic Data Centre
#                                CCDC 
#
#######################################################################
#
# If this CIF has been generated from an entry in the Cambridge 
# Structural Database, then it will include bibliographic, chemical, 
# crystal, experimental, refinement or atomic coordinate data resulting 
# from the CCDC's data processing and validation procedures.
#
#######################################################################

data_EKEHAE
_symmetry_cell_setting           monoclinic
_symmetry_space_group_name_H-M   'P 21/c'
_symmetry_Int_Tables_number      14
_space_group_name_Hall           '-P 2ybc'
loop_
_symmetry_equiv_pos_site_id
_symmetry_equiv_pos_as_xyz
1 x,y,z
2 -x,1/2+y,1/2-z
3 -x,-y,-z
4 x,1/2-y,1/2+z
_cell_length_a                   7.886(2)
_cell_length_b                   20.759(3)
_cell_length_c                   8.312(2)
_cell_angle_alpha                90
_cell_angle_beta                 115.60(2)
_cell_angle_gamma                90
_cell_volume                     1227.14
loop_
_atom_site_label
_atom_site_type_symbol
_atom_site_fract_x
_atom_site_fract_y
_atom_site_fract_z
Cu1 Cu 0.67100(6) -0.168276(19) 1.00028(6)
O1 O 0.5576(4) -0.17933(11) 1.1773(3)
O2 O 0.5513(4) -0.24719(12) 1.3834(4)
O3 O 0.8241(4) -0.31706(12) 1.3668(4)
O4 O 0.8896(4) -0.23691(14) 1.2233(4)
C1 C 0.6180(5) -0.22659(15) 1.2804(5)
C2 C 0.7939(5) -0.26264(17) 1.2891(5)
N1 N 1.2903(5) -0.03321(18) 1.2520(6)
C3 C 1.2675(6) 0.0206(2) 1.3208(7)
H1 H 1.3722 0.0472 1.3731
N2 N 1.1070(5) 0.04162(15) 1.3235(5)
C4 C 1.0938(7) 0.10199(19) 1.4121(6)
H2 H 1.2146 0.1226 1.4646
H3 H 1.0540 0.0923 1.5035
H4 H 1.0041 0.1303 1.3258
C5 C 0.9547(5) 0.00188(17) 1.2458(5)
C6 C 0.9660(5) -0.05665(16) 1.1685(5)
C7 C 1.1405(5) -0.07451(18) 1.1700(5)
N3 N 1.1701(5) -0.12787(17) 1.0995(5)
H5 H 1.2798 -0.1358 1.1058
H6 H 1.0797 -0.1547 1.0474
N4 N 0.7895(5) -0.08477(14) 1.1079(4)
C8 C 0.6900(5) -0.04221(17) 1.1512(5)
H7 H 0.5641 -0.0491 1.1244
N5 N 0.7818(5) 0.01164(14) 1.2362(5)
O5 O 0.4236(5) -0.12451(16) 0.7772(5)
H8 H 0.3607 -0.0900 0.7626
H9 H 0.3673 -0.1456 0.6809
Cu1C Cu 0.67100(6) -0.331724(19) 1.50028(6)
O2C O 0.5513(4) -0.25281(12) 0.8834(4)
O3C O 0.8241(4) -0.18294(12) 0.8668(4)
O6 O 0.2599(5) -0.2019(2) 0.4807(5)
H10 H 0.3429 -0.2153 0.4486
H11 H 0.1560 -0.2139 0.3980
loop_
_geom_bond_atom_site_label_1
_geom_bond_atom_site_label_2
_geom_bond_site_symmetry_1
_geom_bond_site_symmetry_2
Cu1 O1 1_555 1_555
O1 C1 1_555 1_555
O2 C1 1_555 1_555
O3 C2 1_555 1_555
O4 Cu1 1_555 1_555
C1 C2 1_555 1_555
C2 O4 1_555 1_555
N1 C3 1_555 1_555
C3 H1 1_555 1_555
N2 C3 1_555 1_555
C4 N2 1_555 1_555
H2 C4 1_555 1_555
H3 C4 1_555 1_555
H4 C4 1_555 1_555
C5 N2 1_555 1_555
C6 C5 1_555 1_555
C7 N1 1_555 1_555
N3 C7 1_555 1_555
H5 N3 1_555 1_555
H6 N3 1_555 1_555
N4 Cu1 1_555 1_555
C8 N4 1_555 1_555
H7 C8 1_555 1_555
N5 C5 1_555 1_555
O5 Cu1 1_555 1_555
H8 O5 1_555 1_555
H9 O5 1_555 1_555
O6 H10 1_555 1_555
H11 O6 1_555 1_555
Cu1C O2 1_555 1_555
O2C Cu1 1_555 1_555
O3C Cu1 1_555 1_555
O3 Cu1C 1_555 1_555
C6 C7 1_555 1_555
C6 N4 1_555 1_555
C8 N5 1_555 1_555

#END
