
#######################################################################
#
#                 Cambridge Crystallographic Data Centre
#                                CCDC 
#
#######################################################################
#
# If this CIF has been generated from an entry in the Cambridge 
# Structural Database, then it will include bibliographic, chemical, 
# crystal, experimental, refinement or atomic coordinate data resulting 
# from the CCDC's data processing and validation procedures.
#
#######################################################################

data_EKEJIN01
_symmetry_cell_setting           monoclinic
_symmetry_space_group_name_H-M   'P 21/n'
_symmetry_Int_Tables_number      14
_space_group_name_Hall           '-P 2yn'
loop_
_symmetry_equiv_pos_site_id
_symmetry_equiv_pos_as_xyz
1 x,y,z
2 1/2-x,1/2+y,1/2-z
3 -x,-y,-z
4 1/2+x,1/2-y,1/2+z
_cell_length_a                   11.813(4)
_cell_length_b                   8.191(3)
_cell_length_c                   20.167(7)
_cell_angle_alpha                90
_cell_angle_beta                 95.316(5)
_cell_angle_gamma                90
_cell_volume                     1942.97
loop_
_atom_site_label
_atom_site_type_symbol
_atom_site_fract_x
_atom_site_fract_y
_atom_site_fract_z
H1 H 0.9658(19) 0.048(6) 0.129(2)
Cd1 Cd 0.37641(2) 0.30861(4) 0.184187(17)
Cd2 Cd 1.0000 0.0000 0.0000
N1 N 0.4794(3) 0.2668(5) 0.08718(19)
N2 N 0.4954(3) 0.5426(4) 0.20608(19)
N3 N 0.9746(3) -0.2631(5) 0.03970(19)
O1 O 0.8117(2) 0.0531(4) 0.00059(16)
O2 O 0.8040(3) 0.0818(5) 0.11097(18)
O3 O 0.5272(2) 1.1200(4) 0.23241(15)
O4 O 0.3635(2) 1.0212(4) 0.18827(16)
O5 O 1.2609(2) -0.5076(4) 0.11922(17)
O6 O 1.1625(2) -0.7048(4) 0.16071(17)
O7 O 0.3285(3) 0.3467(5) 0.29099(19)
O8 O 1.0299(3) 0.0402(5) 0.11722(18)
C1 C 0.5843(3) 0.1994(6) 0.0926(2)
H2 H 0.6184 0.1764 0.1349
C2 C 0.6441(3) 0.1624(6) 0.0380(2)
C3 C 0.5934(4) 0.1957(7) -0.0251(3)
H3 H 0.6303 0.1711 -0.0626
C4 C 0.4867(4) 0.2666(7) -0.0310(3)
H4 H 0.4506 0.2910 -0.0728
C5 C 0.4346(4) 0.3005(7) 0.0258(3)
H5 H 0.3635 0.3502 0.0208
C6 C 0.7639(4) 0.0932(6) 0.0514(3)
C7 C 0.4514(3) 0.6932(6) 0.2062(2)
H6 H 0.3727 0.7038 0.2017
C8 C 0.5164(3) 0.8343(5) 0.2125(2)
C9 C 0.6346(3) 0.8163(6) 0.2158(2)
H7 H 0.6813 0.9079 0.2183
C10 C 0.6814(3) 0.6626(6) 0.2153(2)
H8 H 0.7598 0.6488 0.2172
C11 C 0.6096(4) 0.5288(6) 0.2119(2)
H9 H 0.6415 0.4249 0.2136
C12 C 0.4652(4) 1.0030(6) 0.2119(2)
C13 C 1.0662(3) -0.3465(6) 0.0658(2)
H10 H 1.1378 -0.3057 0.0593
C14 C 1.0598(3) -0.4893(6) 0.1016(2)
C15 C 0.9529(3) -0.5486(6) 0.1119(2)
H11 H 0.9450 -0.6435 0.1365
C16 C 0.8582(4) -0.4639(6) 0.0850(3)
H12 H 0.7855 -0.5022 0.0906
C17 C 0.8723(3) -0.3225(6) 0.0498(2)
H13 H 0.8081 -0.2661 0.0323
C18 C 1.1680(4) -0.5733(6) 0.1290(2)
H14 H 0.382(3) 0.389(6) 0.313(2)
H15 H 0.277(3) 0.412(5) 0.291(3)
H16 H 1.055(5) 0.129(4) 0.130(3)
H1B H 1.0342(19) -0.048(6) -0.129(2)
Cd1B Cd 1.62359(2) -0.30861(4) -0.184187(17)
Cd1_2 Cd 0.37641(2) 1.30861(4) 0.184187(17)
Cd1_3 Cd 1.37641(2) -0.69139(4) 0.184187(17)
Cd1B_2 Cd 0.62359(2) 0.69139(4) -0.184187(17)
Cd1_4 Cd 0.37641(2) -0.69139(4) 0.184187(17)
N1B N 1.5206(3) -0.2668(5) -0.08718(19)
N2_2 N 0.4954(3) -0.4574(4) 0.20608(19)
N2B N 1.5046(3) -0.5426(4) -0.20608(19)
N3B N 1.0254(3) 0.2631(5) -0.03970(19)
O1B O 1.1883(2) -0.0531(4) -0.00059(16)
O2B O 1.1960(3) -0.0818(5) -0.11097(18)
O3_2 O 0.5272(2) 0.1200(4) 0.23241(15)
O3B O 1.4728(2) -0.1200(4) -0.23241(15)
O4_2 O 0.3635(2) 0.0212(4) 0.18827(16)
O4B O 1.6365(2) -0.0212(4) -0.18827(16)
O5B O 0.7391(2) 0.5076(4) -0.11922(17)
O5_2 O 0.2609(2) 0.4924(4) 0.11922(17)
O5B_2 O 1.7391(2) -0.4924(4) -0.11922(17)
O6B O 0.8375(2) 0.7048(4) -0.16071(17)
O6_2 O 0.1625(2) 0.2952(4) 0.16071(17)
O6B_2 O 1.8375(2) -0.2952(4) -0.16071(17)
O7B O 1.6715(3) -0.3467(5) -0.29099(19)
O8B O 0.9701(3) -0.0402(5) -0.11722(18)
C1B C 1.4157(3) -0.1994(6) -0.0926(2)
H2B H 1.3816 -0.1764 -0.1349
C2B C 1.3559(3) -0.1624(6) -0.0380(2)
C3B C 1.4066(4) -0.1957(7) 0.0251(3)
H3B H 1.3697 -0.1711 0.0626
C4B C 1.5133(4) -0.2666(7) 0.0310(3)
H4B H 1.5494 -0.2910 0.0728
C5B C 1.5654(4) -0.3005(7) -0.0258(3)
H5B H 1.6365 -0.3502 -0.0208
C6B C 1.2361(4) -0.0932(6) -0.0514(3)
C7_2 C 0.4514(3) -0.3068(6) 0.2062(2)
H6_2 H 0.3727 -0.2962 0.2017
C8_2 C 0.5164(3) -0.1657(5) 0.2125(2)
C9_2 C 0.6346(3) -0.1837(6) 0.2158(2)
H7_2 H 0.6813 -0.0921 0.2183
C10_2 C 0.6814(3) -0.3374(6) 0.2153(2)
H8_2 H 0.7598 -0.3512 0.2172
C11_2 C 0.6096(4) -0.4712(6) 0.2119(2)
H9_2 H 0.6415 -0.5751 0.2136
C12_2 C 0.4652(4) 0.0030(6) 0.2119(2)
C13B C 0.9338(3) 0.3465(6) -0.0658(2)
H10B H 0.8622 0.3057 -0.0593
C14B C 0.9402(3) 0.4893(6) -0.1016(2)
C15B C 1.0471(3) 0.5486(6) -0.1119(2)
H11B H 1.0550 0.6435 -0.1365
C16B C 1.1418(4) 0.4639(6) -0.0850(3)
H12B H 1.2145 0.5022 -0.0906
C17B C 1.1277(3) 0.3225(6) -0.0498(2)
H13B H 1.1919 0.2661 -0.0323
C18B C 0.8320(4) 0.5733(6) -0.1290(2)
H14B H 1.618(3) -0.389(6) -0.313(2)
H15B H 1.723(3) -0.412(5) -0.291(3)
H16B H 0.945(5) -0.129(4) -0.130(3)
loop_
_geom_bond_atom_site_label_1
_geom_bond_atom_site_label_2
_geom_bond_site_symmetry_1
_geom_bond_site_symmetry_2
H1 O8 1_555 1_555
Cd1 N1 1_555 1_555
Cd2 N3 1_555 1_555
N1 C1 1_555 1_555
N2 Cd1 1_555 1_555
N3 C13 1_555 1_555
O1 Cd2 1_555 1_555
O2 C6 1_555 1_555
O3 C12 1_555 1_555
O4 C12 1_555 1_555
O5 C18 1_555 1_555
O6 C18 1_555 1_555
O7 Cd1 1_555 1_555
O8 Cd2 1_555 1_555
C1 H2 1_555 1_555
C2 C1 1_555 1_555
C3 C2 1_555 1_555
H3 C3 1_555 1_555
C4 C3 1_555 1_555
H4 C4 1_555 1_555
C5 N1 1_555 1_555
H5 C5 1_555 1_555
C6 O1 1_555 1_555
C7 N2 1_555 1_555
H6 C7 1_555 1_555
C8 C7 1_555 1_555
C9 C8 1_555 1_555
H7 C9 1_555 1_555
C10 C9 1_555 1_555
H8 C10 1_555 1_555
C11 N2 1_555 1_555
H9 C11 1_555 1_555
C12 C8 1_555 1_555
C13 H10 1_555 1_555
C14 C13 1_555 1_555
C15 C14 1_555 1_555
H11 C15 1_555 1_555
C16 C15 1_555 1_555
H12 C16 1_555 1_555
C17 N3 1_555 1_555
H13 C17 1_555 1_555
C18 C14 1_555 1_555
H14 O7 1_555 1_555
H15 O7 1_555 1_555
H16 O8 1_555 1_555
H1B O8B 1_555 1_555
Cd1B N1B 1_555 1_555
Cd1_2 O3 1_555 1_555
Cd1_3 O5 1_555 1_555
Cd1B_2 O5B 1_555 1_555
Cd1_4 N2_2 1_555 1_555
N1B C1B 1_555 1_555
N2_2 C7_2 1_555 1_555
N2B Cd1B 1_555 1_555
N3B Cd2 1_555 1_555
O1B Cd2 1_555 1_555
O2B C6B 1_555 1_555
O3_2 Cd1 1_555 1_555
O3B Cd1B 1_555 1_555
O4_2 Cd1 1_555 1_555
O4B Cd1B 1_555 1_555
O5B C18B 1_555 1_555
O5_2 Cd1 1_555 1_555
O5B_2 Cd1B 1_555 1_555
O6B Cd1B_2 1_555 1_555
O6_2 Cd1 1_555 1_555
O6B_2 Cd1B 1_555 1_555
O7B Cd1B 1_555 1_555
O8B Cd2 1_555 1_555
C1B H2B 1_555 1_555
C2B C1B 1_555 1_555
C3B C2B 1_555 1_555
H3B C3B 1_555 1_555
C4B C3B 1_555 1_555
H4B C4B 1_555 1_555
C5B N1B 1_555 1_555
H5B C5B 1_555 1_555
C6B O1B 1_555 1_555
C7_2 H6_2 1_555 1_555
C8_2 C7_2 1_555 1_555
C9_2 C8_2 1_555 1_555
H7_2 C9_2 1_555 1_555
C10_2 C9_2 1_555 1_555
H8_2 C10_2 1_555 1_555
C11_2 N2_2 1_555 1_555
H9_2 C11_2 1_555 1_555
C12_2 O3_2 1_555 1_555
C13B N3B 1_555 1_555
H10B C13B 1_555 1_555
C14B C13B 1_555 1_555
C15B C14B 1_555 1_555
H11B C15B 1_555 1_555
C16B C15B 1_555 1_555
H12B C16B 1_555 1_555
C17B N3B 1_555 1_555
H13B C17B 1_555 1_555
C18B O6B 1_555 1_555
H14B O7B 1_555 1_555
H15B O7B 1_555 1_555
H16B O8B 1_555 1_555
O4 Cd1_2 1_555 1_555
O6 Cd1_3 1_555 1_555
C2 C6 1_555 1_555
C4 C5 1_555 1_555
C10 C11 1_555 1_555
C16 C17 1_555 1_555
O4_2 C12_2 1_555 1_555
C2B C6B 1_555 1_555
C4B C5B 1_555 1_555
C8_2 C12_2 1_555 1_555
C10_2 C11_2 1_555 1_555
C14B C18B 1_555 1_555
C16B C17B 1_555 1_555

#END
