
#######################################################################
#
#                 Cambridge Crystallographic Data Centre
#                                CCDC 
#
#######################################################################
#
# If this CIF has been generated from an entry in the Cambridge 
# Structural Database, then it will include bibliographic, chemical, 
# crystal, experimental, refinement or atomic coordinate data resulting 
# from the CCDC's data processing and validation procedures.
#
#######################################################################

data_EKEJOU
_symmetry_cell_setting           monoclinic
_symmetry_space_group_name_H-M   'C 2/c'
_symmetry_Int_Tables_number      15
_space_group_name_Hall           '-C 2yn'
loop_
_symmetry_equiv_pos_site_id
_symmetry_equiv_pos_as_xyz
1 x,y,z
2 -x,y,1/2-z
3 1/2+x,1/2+y,z
4 1/2-x,1/2+y,1/2-z
5 -x,-y,-z
6 x,-y,1/2+z
7 1/2-x,1/2-y,-z
8 1/2+x,1/2-y,1/2+z
_cell_length_a                   11.992(3)
_cell_length_b                   15.464(4)
_cell_length_c                   21.597(5)
_cell_angle_alpha                90
_cell_angle_beta                 95.250(3)
_cell_angle_gamma                90
_cell_volume                     3988.24
loop_
_atom_site_label
_atom_site_type_symbol
_atom_site_fract_x
_atom_site_fract_y
_atom_site_fract_z
Fe1 Fe 0.36091(8) 0.18195(6) 0.28456(4)
C1 C 0.4591(7) 0.2954(4) 0.3865(3)
C2 C 0.4870(6) 0.2821(4) 0.4554(3)
C3 C 0.5943(6) 0.3060(5) 0.4812(3)
H1 H 0.6419 0.3366 0.4576
C4 C 0.6289(6) 0.2837(4) 0.5421(3)
H2 H 0.6996 0.3006 0.5591
C5 C 0.5607(6) 0.2370(4) 0.5782(3)
C6 C 0.4519(6) 0.2169(5) 0.5529(3)
H3 H 0.4032 0.1880 0.5770
C7 C 0.4169(6) 0.2396(5) 0.4928(3)
H4 H 0.3444 0.2260 0.4767
C8 C 0.6060(5) 0.2074(4) 0.6410(3)
C9 C 0.6807(5) 0.2586(4) 0.6776(3)
H5 H 0.6963 0.3133 0.6627
C10 C 0.7090(7) 0.1571(5) 0.7537(3)
H6 H 0.7444 0.1389 0.7915
C11 C 0.6337(8) 0.1010(5) 0.7211(4)
H7 H 0.6187 0.0470 0.7373
C12 C 0.5815(7) 0.1270(5) 0.6641(3)
H8 H 0.5308 0.0907 0.6418
C13 C 0.5917(5) 0.0880(4) 0.3342(3)
C14 C 0.6471(5) 0.0514(4) 0.3932(3)
C15 C 0.7487(5) 0.0045(4) 0.3962(3)
H9 H 0.7837 -0.0044 0.3600
C16 C 0.7967(5) -0.0281(4) 0.4517(3)
H10 H 0.8619 -0.0607 0.4521
C17 C 0.7493(5) -0.0133(4) 0.5072(3)
C18 C 0.6503(6) 0.0341(5) 0.5049(3)
H11 H 0.6174 0.0454 0.5414
C19 C 0.6005(5) 0.0645(4) 0.4487(3)
H12 H 0.5334 0.0948 0.4483
C20 C 0.7995(5) -0.0452(4) 0.5685(3)
C21 C 0.9112(6) -0.0427(6) 0.5863(3)
H13 H 0.9608 -0.0216 0.5592
C22 C 0.9512(6) -0.0722(6) 0.6455(4)
H14 H 1.0271 -0.0700 0.6589
C23 C 0.8748(6) -0.1043(5) 0.6834(3)
H15 H 0.9009 -0.1237 0.7228
C24 C 0.7306(5) -0.0789(4) 0.6105(3)
H16 H 0.6541 -0.0803 0.5985
O1 O 0.3693(4) 0.2611(3) 0.3626(2)
O2 O 0.5265(6) 0.3366(4) 0.3575(2)
O3 O 0.4909(4) 0.1049(3) 0.3332(2)
O4 O 0.6528(4) 0.0980(3) 0.28965(18)
O5 O 0.5000 0.2595(5) 0.2500
H17 H 0.512(8) 0.291(5) 0.276(4)
N1 N 0.7322(5) 0.2353(4) 0.7330(2)
N2 N 0.7650(4) -0.1092(4) 0.6664(2)
Fe1G Fe -0.13909(8) 0.31805(6) -0.21544(4)
Fe1A Fe 0.63909(8) 0.18195(6) 0.21544(4)
Fe1G_2 Fe 0.86091(8) 0.31805(6) 0.78456(4)
Fe1D Fe 0.63909(8) -0.18195(6) 0.71544(4)
Fe1E Fe 0.36091(8) -0.18195(6) -0.21544(4)
C1G C -0.0409(7) 0.2046(4) -0.1135(3)
C2G C -0.0130(6) 0.2179(4) -0.0446(3)
C3G C 0.0943(6) 0.1940(5) -0.0188(3)
H1G H 0.1419 0.1634 -0.0424
C4G C 0.1289(6) 0.2163(4) 0.0421(3)
H2G H 0.1996 0.1994 0.0591
C5G C 0.0607(6) 0.2630(4) 0.0782(3)
C6G C -0.0481(6) 0.2831(5) 0.0529(3)
H3G H -0.0968 0.3120 0.0770
C7G C -0.0831(6) 0.2604(5) -0.0072(3)
H4G H -0.1556 0.2740 -0.0233
C8G C 0.1060(5) 0.2926(4) 0.1410(3)
C9G C 0.1807(5) 0.2414(4) 0.1776(3)
H5G H 0.1963 0.1867 0.1627
C10G C 0.2090(7) 0.3429(5) 0.2537(3)
H6G H 0.2444 0.3611 0.2915
C11G C 0.1337(8) 0.3990(5) 0.2211(4)
H7G H 0.1187 0.4530 0.2373
C12G C 0.0815(7) 0.3730(5) 0.1641(3)
H8G H 0.0308 0.4093 0.1418
C13A C 0.4083(5) 0.0880(4) 0.1658(3)
C14A C 0.3529(5) 0.0514(4) 0.1068(3)
C15A C 0.2513(5) 0.0045(4) 0.1038(3)
H9A H 0.2163 -0.0044 0.1400
C16A C 0.2033(5) -0.0281(4) 0.0483(3)
H10A H 0.1381 -0.0607 0.0479
C17A C 0.2507(5) -0.0133(4) -0.0072(3)
C18A C 0.3497(6) 0.0341(5) -0.0049(3)
H11A H 0.3826 0.0454 -0.0414
C19A C 0.3995(5) 0.0645(4) 0.0513(3)
H12A H 0.4666 0.0948 0.0517
C20A C 0.2005(5) -0.0452(4) -0.0685(3)
C21A C 0.0888(6) -0.0427(6) -0.0863(3)
H13A H 0.0392 -0.0216 -0.0592
C22A C 0.0488(6) -0.0722(6) -0.1455(4)
H14A H -0.0271 -0.0700 -0.1589
C23A C 0.1252(6) -0.1043(5) -0.1834(3)
H15A H 0.0991 -0.1237 -0.2228
C24A C 0.2694(5) -0.0789(4) -0.1105(3)
H16A H 0.3459 -0.0803 -0.0985
O1G O -0.1307(4) 0.2389(3) -0.1374(2)
O2G O 0.0265(6) 0.1634(4) -0.1425(2)
O3A O 0.5091(4) 0.1049(3) 0.1668(2)
O3G O -0.0091(4) 0.3951(3) -0.1668(2)
O4A O 0.3472(4) 0.0980(3) 0.21035(18)
O4F O -0.1528(4) 0.4020(3) -0.28965(18)
O5F O 0.0000 0.2405(5) -0.2500
H17A H 0.488(8) 0.291(5) 0.224(4)
H17G H 0.012(8) 0.209(5) -0.224(4)
H17F H -0.012(8) 0.209(5) -0.276(4)
N1G N 0.2322(5) 0.2647(4) 0.2330(2)
N1_2 N -0.2678(5) 0.2353(4) -0.2670(2)
N2A N 0.2350(4) -0.1092(4) -0.1664(2)
N2D N 0.2350(4) 0.1092(4) 0.3336(2)
N2C N -0.2650(4) 0.3908(4) -0.1664(2)
loop_
_geom_bond_atom_site_label_1
_geom_bond_atom_site_label_2
_geom_bond_site_symmetry_1
_geom_bond_site_symmetry_2
Fe1 O1 1_555 1_555
C1 C2 1_555 1_555
C2 C3 1_555 1_555
C3 H1 1_555 1_555
C4 C3 1_555 1_555
H2 C4 1_555 1_555
C5 C4 1_555 1_555
C6 C5 1_555 1_555
H3 C6 1_555 1_555
C7 C2 1_555 1_555
H4 C7 1_555 1_555
C8 C5 1_555 1_555
C9 C8 1_555 1_555
H5 C9 1_555 1_555
C10 H6 1_555 1_555
C11 C10 1_555 1_555
H7 C11 1_555 1_555
C12 C8 1_555 1_555
H8 C12 1_555 1_555
C13 C14 1_555 1_555
C14 C15 1_555 1_555
C15 H9 1_555 1_555
C16 C15 1_555 1_555
H10 C16 1_555 1_555
C17 C16 1_555 1_555
C18 C17 1_555 1_555
H11 C18 1_555 1_555
C19 C14 1_555 1_555
H12 C19 1_555 1_555
C20 C17 1_555 1_555
C21 C20 1_555 1_555
H13 C21 1_555 1_555
C22 C21 1_555 1_555
H14 C22 1_555 1_555
C23 C22 1_555 1_555
H15 C23 1_555 1_555
C24 C20 1_555 1_555
H16 C24 1_555 1_555
O1 C1 1_555 1_555
O2 C1 1_555 1_555
O3 Fe1 1_555 1_555
O4 C13 1_555 1_555
O5 Fe1 1_555 1_555
H17 O5 1_555 1_555
N1 C9 1_555 1_555
N2 C23 1_555 1_555
Fe1G O1G 1_555 1_555
Fe1A O4 1_555 1_555
Fe1G_2 N1 1_555 1_555
Fe1D N2 1_555 1_555
Fe1E N2A 1_555 1_555
C1G C2G 1_555 1_555
C2G C3G 1_555 1_555
C3G H1G 1_555 1_555
C4G C3G 1_555 1_555
H2G C4G 1_555 1_555
C5G C4G 1_555 1_555
C6G C5G 1_555 1_555
H3G C6G 1_555 1_555
C7G C2G 1_555 1_555
H4G C7G 1_555 1_555
C8G C5G 1_555 1_555
C9G C8G 1_555 1_555
H5G C9G 1_555 1_555
C10G H6G 1_555 1_555
C11G C10G 1_555 1_555
H7G C11G 1_555 1_555
C12G C8G 1_555 1_555
H8G C12G 1_555 1_555
C13A C14A 1_555 1_555
C14A C15A 1_555 1_555
C15A H9A 1_555 1_555
C16A C15A 1_555 1_555
H10A C16A 1_555 1_555
C17A C16A 1_555 1_555
C18A C17A 1_555 1_555
H11A C18A 1_555 1_555
C19A C14A 1_555 1_555
H12A C19A 1_555 1_555
C20A C17A 1_555 1_555
C21A C20A 1_555 1_555
H13A C21A 1_555 1_555
C22A C21A 1_555 1_555
H14A C22A 1_555 1_555
C23A C22A 1_555 1_555
H15A C23A 1_555 1_555
C24A C20A 1_555 1_555
H16A C24A 1_555 1_555
O1G C1G 1_555 1_555
O2G C1G 1_555 1_555
O3A Fe1A 1_555 1_555
O3G Fe1G 1_555 1_555
O4A Fe1 1_555 1_555
O4F Fe1G 1_555 1_555
O5F Fe1G 1_555 1_555
H17A O5 1_555 1_555
H17G O5F 1_555 1_555
H17F O5F 1_555 1_555
N1G Fe1 1_555 1_555
N1_2 Fe1G 1_555 1_555
N2A C23A 1_555 1_555
N2D Fe1 1_555 1_555
N2C Fe1G 1_555 1_555
C6 C7 1_555 1_555
C10 N1 1_555 1_555
C11 C12 1_555 1_555
C13 O3 1_555 1_555
C18 C19 1_555 1_555
C24 N2 1_555 1_555
O5 Fe1A 1_555 1_555
C6G C7G 1_555 1_555
C9G N1G 1_555 1_555
C10G N1G 1_555 1_555
C11G C12G 1_555 1_555
C13A O3A 1_555 1_555
C13A O4A 1_555 1_555
C18A C19A 1_555 1_555
C24A N2A 1_555 1_555

#END
