
#######################################################################
#
#                 Cambridge Crystallographic Data Centre
#                                CCDC 
#
#######################################################################
#
# If this CIF has been generated from an entry in the Cambridge 
# Structural Database, then it will include bibliographic, chemical, 
# crystal, experimental, refinement or atomic coordinate data resulting 
# from the CCDC's data processing and validation procedures.
#
#######################################################################

data_EKEJOT
_symmetry_cell_setting           monoclinic
_symmetry_space_group_name_H-M   'P 21/c'
_symmetry_Int_Tables_number      14
_space_group_name_Hall           '-P 2ybc'
loop_
_symmetry_equiv_pos_site_id
_symmetry_equiv_pos_as_xyz
1 x,y,z
2 x,1/2-y,1/2+z
3 -x,-y,-z
4 -x,1/2+y,1/2-z
_cell_length_a                   15.240(3)
_cell_length_b                   11.424(2)
_cell_length_c                   7.6670(15)
_cell_angle_alpha                90
_cell_angle_beta                 96.79(3)
_cell_angle_gamma                90
_cell_volume                     1325.48
loop_
_atom_site_label
_atom_site_type_symbol
_atom_site_fract_x
_atom_site_fract_y
_atom_site_fract_z
Ni1 Ni 0.25688(4) 0.46691(6) 0.22588(8)
C1 C 0.1924(4) 0.7158(5) 0.2152(8)
H1 H 0.2522 0.7326 0.2424
C2 C 0.1340(4) 0.8068(6) 0.1835(9)
H2 H 0.1543 0.8837 0.1888
C3 C 0.0466(4) 0.7846(6) 0.1447(9)
H3 H 0.0064 0.8454 0.1215
C4 C 0.0187(4) 0.6701(6) 0.1401(9)
H4 H -0.0409 0.6517 0.1157
C5 C 0.0801(4) 0.5849(6) 0.1719(7)
H5 H 0.0610 0.5075 0.1684
C6 C 0.4039(3) 0.6160(4) 0.0941(7)
H6 H 0.4161 0.6443 0.2081
C7 C 0.4571(4) 0.6488(5) -0.0280(7)
H7 H 0.5037 0.7004 0.0018
C8 C 0.4413(3) 0.6049(5) -0.1959(7)
H8 H 0.4774 0.6259 -0.2804
C9 C 0.3708(3) 0.5291(5) -0.2378(6)
C10 C 0.3180(3) 0.5025(4) -0.1106(6)
C11 C 0.2396(3) 0.4185(5) -0.1342(7)
C12 C 0.3590(3) 0.4749(5) -0.4194(6)
N1 N 0.1669(3) 0.6055(4) 0.2083(5)
N2 N 0.3347(3) 0.5446(4) 0.0561(5)
O1 O 0.2008(2) 0.3982(3) -0.0038(4)
O2 O 0.3966(3) 0.3797(4) -0.4339(5)
O3 O 0.2205(2) 0.3739(3) -0.2812(4)
O4 O 0.3160(2) 0.5327(3) -0.5393(4)
O5 O 0.3507(3) 0.3324(4) 0.2382(5)
O6 O 0.1741(2) 0.3623(3) 0.3561(5)
H9 H 0.341(4) 0.257(2) 0.223(7)
H10 H 0.371(4) 0.339(4) 0.351(3)
H11 H 0.187(4) 0.372(4) 0.468(3)
H12 H 0.185(3) 0.288(2) 0.339(6)
O4_2 O 0.3160(2) 0.5327(3) 0.4607(4)
Ni1_2 Ni 0.25688(4) 0.46691(6) -0.77412(8)
loop_
_geom_bond_atom_site_label_1
_geom_bond_atom_site_label_2
_geom_bond_site_symmetry_1
_geom_bond_site_symmetry_2
Ni1 N1 1_555 1_555
C1 H1 1_555 1_555
C2 C1 1_555 1_555
H2 C2 1_555 1_555
C3 C2 1_555 1_555
H3 C3 1_555 1_555
C4 C3 1_555 1_555
H4 C4 1_555 1_555
C5 C4 1_555 1_555
H5 C5 1_555 1_555
C6 H6 1_555 1_555
C7 C6 1_555 1_555
H7 C7 1_555 1_555
C8 C7 1_555 1_555
H8 C8 1_555 1_555
C9 C8 1_555 1_555
C10 C9 1_555 1_555
C11 C10 1_555 1_555
C12 C9 1_555 1_555
N1 C1 1_555 1_555
N2 Ni1 1_555 1_555
O1 Ni1 1_555 1_555
O2 C12 1_555 1_555
O3 C11 1_555 1_555
O4 C12 1_555 1_555
O5 Ni1 1_555 1_555
O6 Ni1 1_555 1_555
H9 O5 1_555 1_555
H10 O5 1_555 1_555
H11 O6 1_555 1_555
H12 O6 1_555 1_555
O4_2 Ni1 1_555 1_555
Ni1_2 O4 1_555 1_555
C5 N1 1_555 1_555
C6 N2 1_555 1_555
C10 N2 1_555 1_555
C11 O1 1_555 1_555

#END
