
#######################################################################
#
#                 Cambridge Crystallographic Data Centre
#                                CCDC 
#
#######################################################################
#
# If this CIF has been generated from an entry in the Cambridge 
# Structural Database, then it will include bibliographic, chemical, 
# crystal, experimental, refinement or atomic coordinate data resulting 
# from the CCDC's data processing and validation procedures.
#
#######################################################################

data_EKEJIN
_symmetry_cell_setting           monoclinic
_symmetry_space_group_name_H-M   'P 21/n'
_symmetry_Int_Tables_number      14
_space_group_name_Hall           '-P 2yn'
loop_
_symmetry_equiv_pos_site_id
_symmetry_equiv_pos_as_xyz
1 x,y,z
2 1/2+x,1/2-y,1/2+z
3 -x,-y,-z
4 1/2-x,1/2+y,1/2-z
_cell_length_a                   11.825(11)
_cell_length_b                   8.195(8)
_cell_length_c                   20.097(11)
_cell_angle_alpha                90
_cell_angle_beta                 95.160(3)
_cell_angle_gamma                90
_cell_volume                     1939.62
loop_
_atom_site_label
_atom_site_type_symbol
_atom_site_fract_x
_atom_site_fract_y
_atom_site_fract_z
C1 C 0.1679(4) 0.0724(6) 0.6292(2)
C2 C 0.0598(4) -0.0111(5) 0.6014(2)
C3 C -0.0478(4) 0.0485(6) 0.6120(2)
H1 H -0.0562 0.1455 0.6378
C4 C -0.1428(4) -0.0366(6) 0.5842(3)
H2 H -0.2179 0.0032 0.5892
C5 C -0.1276(4) -0.1777(6) 0.5496(3)
H3 H -0.1936 -0.2371 0.5320
C6 C 0.0664(4) -0.1530(6) 0.5653(2)
H4 H 0.1403 -0.1949 0.5586
C7 C 0.5345(4) 0.5022(5) 0.2880(2)
C8 C 0.4827(4) 0.3341(5) 0.2877(2)
C9 C 0.3653(4) 0.3171(5) 0.2842(3)
H5 H 0.3177 0.4121 0.2818
C10 C 0.3176(4) 0.1611(6) 0.2841(3)
H6 H 0.2368 0.1464 0.2816
C11 C 0.3912(4) 0.0279(6) 0.2884(3)
H7 H 0.3590 -0.0797 0.2872
C12 C 0.5487(4) 0.1934(5) 0.2927(2)
H8 H 0.6298 0.2050 0.2956
C13 C 0.2366(4) -0.4072(6) 0.4484(2)
C14 C 0.3549(4) -0.3374(6) 0.4614(2)
C15 C 0.4073(5) -0.3061(8) 0.5252(3)
H9 H 0.3703 -0.3352 0.5642
C16 C 0.5132(5) -0.2330(9) 0.5315(3)
H10 H 0.5494 -0.2066 0.5748
C17 C 0.5663(4) -0.1989(7) 0.4745(3)
H11 H 0.6396 -0.1475 0.4792
C18 C 0.4157(4) -0.3001(6) 0.4075(2)
H12 H 0.3812 -0.3237 0.3635
N1 N -0.0252(3) -0.2368(5) 0.53934(19)
N2 N 0.5043(3) 0.0419(4) 0.29375(19)
N3 N 0.5199(3) -0.2336(5) 0.4130(2)
O1 O 0.2612(3) 0.0080(5) 0.6190(2)
O2 O 0.1620(4) 0.2046(4) 0.6604(2)
O3 O 0.4728(3) 0.6213(4) 0.26755(17)
O4 O 0.6361(3) 0.5204(4) 0.31224(18)
O5 O 0.1881(3) -0.4455(5) 0.49988(19)
O6 O 0.1960(3) -0.4193(6) 0.38985(19)
O7 O 0.6710(3) -0.1524(4) 0.20889(17)
H13 H 0.7321 -0.0975 0.2098
O8 O -0.0293(3) -0.4604(4) 0.38254(16)
H14 H 0.0340 -0.4422 0.3670
Cd1 Cd 0.62368(2) -0.19157(3) 0.315860(15)
Cd2 Cd 0.0000 -0.5000 0.5000
H15 H 0.6101 -0.1036 0.1880
H16 H -0.0566 -0.3687 0.3758
C1B C -0.1679(4) -1.0724(6) 0.3708(2)
C2B C -0.0598(4) -0.9889(5) 0.3986(2)
C3B C 0.0478(4) -1.0485(6) 0.3880(2)
H1B H 0.0562 -1.1455 0.3622
C4B C 0.1428(4) -0.9634(6) 0.4158(3)
H2B H 0.2179 -1.0032 0.4108
C5B C 0.1276(4) -0.8223(6) 0.4504(3)
H3B H 0.1936 -0.7629 0.4680
C6B C -0.0664(4) -0.8470(6) 0.4347(2)
H4B H -0.1403 -0.8051 0.4414
N1B N 0.0252(3) -0.7632(5) 0.46066(19)
O1B O -0.2612(3) -1.0080(5) 0.3810(2)
O2B O -0.1620(4) -1.2046(4) 0.3396(2)
C13B C -0.2366(4) -0.5928(6) 0.5516(2)
C14B C -0.3549(4) -0.6626(6) 0.5386(2)
C15B C -0.4073(5) -0.6939(8) 0.4748(3)
H9B H -0.3703 -0.6648 0.4358
C16B C -0.5132(5) -0.7670(9) 0.4685(3)
H10B H -0.5494 -0.7934 0.4252
C17B C -0.5663(4) -0.8011(7) 0.5255(3)
H11B H -0.6396 -0.8525 0.5208
C18B C -0.4157(4) -0.6999(6) 0.5925(2)
H12B H -0.3812 -0.6763 0.6365
N3B N -0.5199(3) -0.7664(5) 0.5870(2)
O5B O -0.1881(3) -0.5545(5) 0.50012(19)
O6B O -0.1960(3) -0.5807(6) 0.61015(19)
O8B O 0.0293(3) -0.5396(4) 0.61746(16)
H14B H -0.0340 -0.5578 0.6330
H16B H 0.0566 -0.6313 0.6242
Cd1B Cd -0.62368(2) -0.80843(3) 0.684140(15)
C7_2 C 0.5345(4) -0.4978(5) 0.2880(2)
C8_2 C 0.4827(4) -0.6659(5) 0.2877(2)
C9_2 C 0.3653(4) -0.6829(5) 0.2842(3)
H5_2 H 0.3177 -0.5879 0.2818
C10_2 C 0.3176(4) -0.8389(6) 0.2841(3)
H6_2 H 0.2368 -0.8536 0.2816
C11_2 C 0.3912(4) -0.9721(6) 0.2884(3)
H7_2 H 0.3590 -1.0797 0.2872
C12_2 C 0.5487(4) -0.8066(5) 0.2927(2)
H8_2 H 0.6298 -0.7950 0.2956
N2_2 N 0.5043(3) -0.9581(4) 0.29375(19)
O3_2 O 0.4728(3) -0.3787(4) 0.26755(17)
O4_2 O 0.6361(3) -0.4796(4) 0.31224(18)
O7B O -0.6710(3) -0.8476(4) 0.79111(17)
H13B H -0.7321 -0.9025 0.7902
H15B H -0.6101 -0.8964 0.8120
Cd1B_2 Cd 0.37632(2) 0.19157(3) 0.684140(15)
Cd1_2 Cd 0.62368(2) 0.80843(3) 0.315860(15)
O1B_2 O 0.7388(3) -0.0080(5) 0.3810(2)
O2B_2 O 0.8380(4) -0.2046(4) 0.3396(2)
Cd1_3 Cd -0.37632(2) -1.19157(3) 0.315860(15)
N2B N -0.5043(3) -1.0419(4) 0.70625(19)
O1_2 O -0.7388(3) -0.9920(5) 0.6190(2)
O2_2 O -0.8380(4) -0.7954(4) 0.6604(2)
O3B O -0.4728(3) -0.6213(4) 0.73245(17)
O4B O -0.6361(3) -0.5204(4) 0.68776(18)
Cd1_4 Cd 0.62368(2) -1.19157(3) 0.315860(15)
loop_
_geom_bond_atom_site_label_1
_geom_bond_atom_site_label_2
_geom_bond_site_symmetry_1
_geom_bond_site_symmetry_2
C1 C2 1_555 1_555
C2 C3 1_555 1_555
C3 H1 1_555 1_555
C4 C3 1_555 1_555
H2 C4 1_555 1_555
C5 C4 1_555 1_555
H3 C5 1_555 1_555
C6 C2 1_555 1_555
H4 C6 1_555 1_555
C7 C8 1_555 1_555
C8 C9 1_555 1_555
C9 H5 1_555 1_555
C10 C9 1_555 1_555
H6 C10 1_555 1_555
C11 C10 1_555 1_555
H7 C11 1_555 1_555
C12 C8 1_555 1_555
H8 C12 1_555 1_555
C13 C14 1_555 1_555
C14 C15 1_555 1_555
C15 H9 1_555 1_555
C16 C15 1_555 1_555
H10 C16 1_555 1_555
C17 C16 1_555 1_555
H11 C17 1_555 1_555
C18 C14 1_555 1_555
H12 C18 1_555 1_555
N1 C5 1_555 1_555
N2 C11 1_555 1_555
N3 C17 1_555 1_555
O1 C1 1_555 1_555
O2 C1 1_555 1_555
O3 C7 1_555 1_555
O4 C7 1_555 1_555
O5 C13 1_555 1_555
O6 C13 1_555 1_555
O7 H13 1_555 1_555
O8 H14 1_555 1_555
Cd1 N2 1_555 1_555
Cd2 N1 1_555 1_555
H15 O7 1_555 1_555
H16 O8 1_555 1_555
C1B C2B 1_555 1_555
C2B C3B 1_555 1_555
C3B H1B 1_555 1_555
C4B C3B 1_555 1_555
H2B C4B 1_555 1_555
C5B C4B 1_555 1_555
H3B C5B 1_555 1_555
C6B C2B 1_555 1_555
H4B C6B 1_555 1_555
N1B Cd2 1_555 1_555
O1B C1B 1_555 1_555
O2B C1B 1_555 1_555
C13B C14B 1_555 1_555
C14B C15B 1_555 1_555
C15B H9B 1_555 1_555
C16B C15B 1_555 1_555
H10B C16B 1_555 1_555
C17B C16B 1_555 1_555
H11B C17B 1_555 1_555
C18B C14B 1_555 1_555
H12B C18B 1_555 1_555
N3B C17B 1_555 1_555
O5B Cd2 1_555 1_555
O6B C13B 1_555 1_555
O8B Cd2 1_555 1_555
H14B O8B 1_555 1_555
H16B O8B 1_555 1_555
Cd1B N3B 1_555 1_555
C7_2 C8_2 1_555 1_555
C8_2 C9_2 1_555 1_555
C9_2 H5_2 1_555 1_555
C10_2 C9_2 1_555 1_555
H6_2 C10_2 1_555 1_555
C11_2 C10_2 1_555 1_555
H7_2 C11_2 1_555 1_555
C12_2 C8_2 1_555 1_555
H8_2 C12_2 1_555 1_555
N2_2 C11_2 1_555 1_555
O3_2 Cd1 1_555 1_555
O4_2 Cd1 1_555 1_555
O7B Cd1B 1_555 1_555
H13B O7B 1_555 1_555
H15B O7B 1_555 1_555
Cd1B_2 O1 1_555 1_555
Cd1_2 O3 1_555 1_555
O1B_2 Cd1 1_555 1_555
O2B_2 Cd1 1_555 1_555
Cd1_3 O1B 1_555 1_555
N2B Cd1B 1_555 1_555
O1_2 Cd1B 1_555 1_555
O2_2 Cd1B 1_555 1_555
O3B Cd1B 1_555 1_555
O4B Cd1B 1_555 1_555
Cd1_4 N2_2 1_555 1_555
C6 N1 1_555 1_555
C12 N2 1_555 1_555
C18 N3 1_555 1_555
N3 Cd1 1_555 1_555
O2 Cd1B_2 1_555 1_555
O4 Cd1_2 1_555 1_555
O5 Cd2 1_555 1_555
O7 Cd1 1_555 1_555
O8 Cd2 1_555 1_555
C5B N1B 1_555 1_555
C6B N1B 1_555 1_555
O2B Cd1_3 1_555 1_555
C13B O5B 1_555 1_555
C18B N3B 1_555 1_555
C7_2 O3_2 1_555 1_555
C7_2 O4_2 1_555 1_555
C12_2 N2_2 1_555 1_555

#END
