
#######################################################################
#
#                 Cambridge Crystallographic Data Centre
#                                CCDC 
#
#######################################################################
#
# If this CIF has been generated from an entry in the Cambridge 
# Structural Database, then it will include bibliographic, chemical, 
# crystal, experimental, refinement or atomic coordinate data resulting 
# from the CCDC's data processing and validation procedures.
#
#######################################################################

data_EKEKEL
_symmetry_cell_setting           orthorhombic
_symmetry_space_group_name_H-M   'P c a 21'
_symmetry_Int_Tables_number      29
_space_group_name_Hall           'P 2c -2ac'
loop_
_symmetry_equiv_pos_site_id
_symmetry_equiv_pos_as_xyz
1 x,y,z
2 -x,-y,1/2+z
3 1/2+x,-y,z
4 1/2-x,y,1/2+z
_cell_length_a                   10.2807(12)
_cell_length_b                   8.6012(10)
_cell_length_c                   18.634(2)
_cell_angle_alpha                90
_cell_angle_beta                 90
_cell_angle_gamma                90
_cell_volume                     1647.74
loop_
_atom_site_label
_atom_site_type_symbol
_atom_site_fract_x
_atom_site_fract_y
_atom_site_fract_z
Zn1 Zn 0.87769(7) 1.32017(8) 0.60037(3)
Zn2 Zn 1.13833(6) 1.14112(7) 0.57733(3)
Zn3 Zn 0.96693(7) 1.30562(7) 1.06020(3)
P1 P 0.62147(16) 1.01318(18) 1.00623(8)
P2 P 1.23965(16) 1.46210(17) 1.01096(8)
O1 O 1.1495(5) 1.1810(5) 0.6797(2)
O2 O 1.0103(4) 1.3771(5) 0.6741(2)
O3 O 1.1094(4) 1.4675(4) 1.05302(18)
O4 O 1.2964(4) 1.6258(4) 1.02220(19)
O5 O 1.3316(4) 1.3402(4) 1.0343(2)
O6 O 0.5499(4) 1.2193(5) 0.6571(2)
O7 O 0.7560(5) 1.2716(6) 0.6757(2)
O8 O 0.7595(4) 1.0135(4) 1.03439(19)
O9 O 0.5468(4) 1.1402(4) 1.04940(18)
O10 O 0.5492(4) 0.8621(4) 1.0083(2)
C1 C 1.0941(6) 1.2982(7) 0.7046(3)
C2 C 1.1324(6) 1.3466(7) 0.7797(3)
C3 C 1.0571(7) 1.4503(7) 0.8171(3)
H1 H 0.9840 1.4944 0.7959
C4 C 1.0912(6) 1.4887(7) 0.8871(3)
H2 H 1.0405 1.5590 0.9126
C5 C 1.1991(6) 1.4240(6) 0.9190(3)
C6 C 1.2732(7) 1.3199(7) 0.8805(3)
H3 H 1.3465 1.2758 0.9015
C7 C 1.2397(8) 1.2804(8) 0.8109(3)
H4 H 1.2897 1.2092 0.7855
C8 C 0.6499(7) 1.2219(7) 0.6945(3)
C9 C 0.6405(7) 1.1640(7) 0.7705(3)
C10 C 0.7394(7) 1.2019(6) 0.8176(3)
H5 H 0.8114 1.2566 0.8010
C11 C 0.7326(6) 1.1593(6) 0.8894(3)
H6 H 0.7981 1.1891 0.9209
C12 C 0.6287(6) 1.0728(6) 0.9139(3)
C13 C 0.5327(6) 1.0326(8) 0.8660(3)
H7 H 0.4625 0.9737 0.8818
C14 C 0.5383(7) 1.0779(7) 0.7942(3)
H8 H 0.4723 1.0494 0.7627
Zn1A Zn 1.12231(7) 1.67983(8) 1.10037(3)
Zn1C Zn 0.62231(7) 1.32017(8) 1.10037(3)
Zn2C Zn 1.36167(6) 1.14112(7) 1.07733(3)
Zn2A Zn 0.86167(6) 0.85888(7) 1.07733(3)
Zn2C_2 Zn 0.36167(6) 1.14112(7) 1.07733(3)
Zn3B Zn 1.46693(7) 1.69438(7) 1.06020(3)
Zn3C Zn 0.53307(7) 1.30562(7) 0.56020(3)
Zn3B_2 Zn 0.46693(7) 0.69438(7) 1.06020(3)
O3A O 0.8906(4) 1.5325(4) 0.55302(18)
O4A O 0.7036(4) 1.3742(4) 0.52220(19)
O4B O 0.7964(4) 1.3742(4) 1.02220(19)
O5C O 1.1684(4) 1.3402(4) 0.5343(2)
O6C O 0.9501(4) 1.2193(5) 1.1571(2)
O8A O 1.2405(4) 0.9865(4) 0.53439(19)
O9C O 0.9532(4) 1.1402(4) 0.54940(18)
O10B O 1.0492(4) 1.1379(4) 1.0083(2)
loop_
_geom_bond_atom_site_label_1
_geom_bond_atom_site_label_2
_geom_bond_site_symmetry_1
_geom_bond_site_symmetry_2
Zn1 O2 1_555 1_555
Zn2 O1 1_555 1_555
Zn3 O3 1_555 1_555
P1 O8 1_555 1_555
P2 O3 1_555 1_555
O1 C1 1_555 1_555
O2 C1 1_555 1_555
O3 Zn1A 1_555 1_555
O4 P2 1_555 1_555
O5 P2 1_555 1_555
O6 C8 1_555 1_555
O7 Zn1 1_555 1_555
O8 Zn2A 1_555 1_555
O9 P1 1_555 1_555
O10 P1 1_555 1_555
C1 C2 1_555 1_555
C2 C3 1_555 1_555
C3 H1 1_555 1_555
C4 C3 1_555 1_555
H2 C4 1_555 1_555
C5 P2 1_555 1_555
C6 C5 1_555 1_555
H3 C6 1_555 1_555
C7 C2 1_555 1_555
H4 C7 1_555 1_555
C8 O7 1_555 1_555
C9 C8 1_555 1_555
C10 C9 1_555 1_555
H5 C10 1_555 1_555
C11 C10 1_555 1_555
H6 C11 1_555 1_555
C12 P1 1_555 1_555
C13 C12 1_555 1_555
H7 C13 1_555 1_555
C14 C9 1_555 1_555
H8 C14 1_555 1_555
Zn1A O4 1_555 1_555
Zn1C O9 1_555 1_555
Zn2C O5 1_555 1_555
Zn2C_2 O9 1_555 1_555
Zn3B O4 1_555 1_555
Zn3C O6 1_555 1_555
Zn3B_2 O10 1_555 1_555
O3A Zn1 1_555 1_555
O4A Zn1 1_555 1_555
O4B Zn3 1_555 1_555
O5C Zn2 1_555 1_555
O6C Zn3 1_555 1_555
O8A Zn2 1_555 1_555
O9C Zn1 1_555 1_555
O10B Zn3 1_555 1_555
Zn2 O9C 1_555 1_555
C4 C5 1_555 1_555
C6 C7 1_555 1_555
C11 C12 1_555 1_555
C13 C14 1_555 1_555
Zn1C O4B 1_555 1_555
Zn3C O4A 1_555 1_555

#END
