
#######################################################################
#
#                 Cambridge Crystallographic Data Centre
#                                CCDC 
#
#######################################################################
#
# If this CIF has been generated from an entry in the Cambridge 
# Structural Database, then it will include bibliographic, chemical, 
# crystal, experimental, refinement or atomic coordinate data resulting 
# from the CCDC's data processing and validation procedures.
#
#######################################################################

data_EKEQUH
_symmetry_cell_setting           monoclinic
_symmetry_space_group_name_H-M   'P 21/n'
_symmetry_Int_Tables_number      14
_space_group_name_Hall           '-P 2yn'
loop_
_symmetry_equiv_pos_site_id
_symmetry_equiv_pos_as_xyz
1 x,y,z
2 1/2-x,1/2+y,1/2-z
3 -x,-y,-z
4 1/2+x,1/2-y,1/2+z
_cell_length_a                   9.7950(17)
_cell_length_b                   19.471(2)
_cell_length_c                   13.142(3)
_cell_angle_alpha                90
_cell_angle_beta                 97.374(3)
_cell_angle_gamma                90
_cell_volume                     2485.69
loop_
_atom_site_label
_atom_site_type_symbol
_atom_site_fract_x
_atom_site_fract_y
_atom_site_fract_z
Cu1 Cu 0.38755(17) 1.25718(7) 0.24676(10)
Mo1 Mo -0.16876(11) 1.46555(5) 0.00438(7)
Mo2 Mo 0.08158(11) 1.49984(5) 0.21771(7)
Mo3 Mo 0.11596(12) 1.37863(5) -0.07867(7)
Mo4 Mo 0.02295(12) 1.34104(5) 0.14641(7)
N1 N 0.2467(10) 1.1812(4) 0.2267(7)
O1 O 0.2840(8) 1.3657(4) -0.0374(6)
O2 O -0.1764(8) 1.3877(3) 0.0694(5)
O3 O 0.0832(9) 1.3353(4) -0.1926(5)
O4 O 0.2488(8) 1.4797(4) 0.2538(5)
O5 O -0.3356(8) 1.4846(4) -0.0372(5)
C1 C 0.1610(13) 1.1654(5) 0.2909(9)
H1 H 0.1736 1.1844 0.3564
O6 O 0.0372(8) 1.5446(4) 0.3204(5)
C2 C 0.2351(13) 1.1534(5) 0.1318(9)
C3 C 0.2102(13) 1.1032(6) -0.1602(8)
C4 C -0.0046(13) 1.1120(6) -0.3091(8)
H2 H -0.0794 1.1153 -0.3601
O7 O -0.0051(8) 1.4154(3) 0.2387(5)
O8 O 0.0703(8) 1.4471(3) 0.0560(5)
C5 C 0.3337(12) 1.1796(5) 0.0712(7)
O9 O -0.1084(7) 1.4270(3) -0.1188(5)
O10 O 0.3567(8) 1.2693(4) 0.3922(5)
C6 C 0.0699(13) 1.0548(6) -0.3053(9)
H3 H 0.0493 1.0196 -0.3526
O11 O -0.1335(8) 1.5245(3) 0.1247(5)
C7 C 0.1252(14) 1.1590(6) -0.1723(9)
H4 H 0.1430 1.1949 -0.1258
C8 C 0.1232(15) 1.1101(6) 0.0993(10)
H5 H 0.1106 1.0938 0.0323
C9 C 0.0513(15) 1.1211(6) 0.2643(9)
H6 H -0.0095 1.1106 0.3110
C10 C 0.0337(15) 1.0920(7) 0.1648(10)
H7 H -0.0374 1.0612 0.1450
C11 C 0.4786(15) 1.1998(7) -0.0426(9)
H8 H 0.5229 1.1973 -0.1009
O12 O 0.0266(8) 1.3162(3) 0.0055(5)
C12 C 0.5058(13) 1.2459(6) 0.0369(9)
H9 H 0.5731 1.2799 0.0431
N2 N 0.4141(10) 1.2320(5) 0.1055(6)
C13 C 0.3332(14) 1.0925(6) -0.0753(9)
C14 C 0.1843(12) 1.0498(6) -0.2246(9)
H10 H 0.2388 1.0105 -0.2174
N3 N 0.3729(10) 1.1577(5) -0.0194(7)
N4 N 0.0203(11) 1.1658(5) -0.2445(7)
O13 O 0.1930(9) 1.3268(4) 0.1912(5)
O14 O -0.0645(9) 1.2746(4) 0.1916(6)
Cu1C Cu -0.11245(17) 1.24282(7) -0.25324(10)
Cu1B Cu -0.38755(17) 1.74282(7) -0.24676(10)
Cu1C_2 Cu 0.88755(17) 1.24282(7) 0.74676(10)
Mo1B Mo 0.16876(11) 1.53445(5) -0.00438(7)
Mo2B Mo -0.08158(11) 1.50016(5) -0.21771(7)
Mo3B Mo -0.11596(12) 1.62137(5) 0.07867(7)
Mo4B Mo -0.02295(12) 1.65896(5) -0.14641(7)
N1C N -0.2533(10) 1.3188(4) -0.2733(7)
N1C_2 N 0.7467(10) 1.3188(4) 0.7267(7)
O1B O -0.2840(8) 1.6343(4) 0.0374(6)
O2B O 0.1764(8) 1.6123(3) -0.0694(5)
O3B O -0.0832(9) 1.6647(4) 0.1926(5)
O4B O -0.2488(8) 1.5203(4) -0.2538(5)
O5B O 0.3356(8) 1.5154(4) 0.0372(5)
C1C C 0.6610(13) 1.3346(5) 0.7909(9)
H1C H 0.6736 1.3156 0.8564
O6B O -0.0372(8) 1.4554(4) -0.3204(5)
C2C C 0.7351(13) 1.3466(5) 0.6318(9)
C3C C 0.7102(13) 1.3968(6) 0.3398(8)
C4C C 0.4954(13) 1.3880(6) 0.1909(8)
H2C H 0.4206 1.3847 0.1399
O7B O 0.0051(8) 1.5846(3) -0.2387(5)
O8B O -0.0703(8) 1.5529(3) -0.0560(5)
C5C C 0.8337(12) 1.3204(5) 0.5712(7)
O9B O 0.1084(7) 1.5730(3) 0.1188(5)
O10C O -0.1433(8) 1.2307(4) -0.1078(5)
C6C C 0.5699(13) 1.4452(6) 0.1947(9)
H3C H 0.5493 1.4804 0.1474
O11B O 0.1335(8) 1.4755(3) -0.1247(5)
C7C C 0.6252(14) 1.3410(6) 0.3277(9)
H4C H 0.6430 1.3051 0.3742
C8C C 0.6232(15) 1.3899(6) 0.5993(10)
H5C H 0.6106 1.4062 0.5323
C9C C 0.5513(15) 1.3789(6) 0.7643(9)
H6C H 0.4905 1.3894 0.8110
C10C C 0.5337(15) 1.4080(7) 0.6648(10)
H7C H 0.4626 1.4388 0.6450
C11C C 0.9786(15) 1.3002(7) 0.4574(9)
H8C H 1.0229 1.3027 0.3991
O12B O -0.0266(8) 1.6838(3) -0.0055(5)
C12C C 1.0058(13) 1.2541(6) 0.5369(9)
H9C H 1.0731 1.2201 0.5431
N2C N -0.0859(10) 1.2680(5) -0.3945(6)
N2C_2 N 0.9141(10) 1.2680(5) 0.6055(6)
C13C C 0.8332(14) 1.4075(6) 0.4247(9)
C14C C 0.6843(12) 1.4502(6) 0.2754(9)
H10C H 0.7388 1.4895 0.2826
N3C N 0.8729(10) 1.3423(5) 0.4806(7)
N4C N 0.5203(11) 1.3342(5) 0.2555(7)
O13C O -0.3070(9) 1.1732(4) -0.3088(5)
O13B O -0.1930(9) 1.6732(4) -0.1912(5)
O14B O 0.0645(9) 1.7254(4) -0.1916(6)
O15 O 0.3349(10) 1.4037(4) 0.4386(6)
O16 O 0.1968(13) 1.3939(6) 0.6122(9)
loop_
_geom_bond_atom_site_label_1
_geom_bond_atom_site_label_2
_geom_bond_site_symmetry_1
_geom_bond_site_symmetry_2
Cu1 N1 1_555 1_555
Mo1 O2 1_555 1_555
Mo2 O4 1_555 1_555
Mo3 O1 1_555 1_555
Mo4 O2 1_555 1_555
N1 C1 1_555 1_555
O3 Mo3 1_555 1_555
O5 Mo1 1_555 1_555
C1 H1 1_555 1_555
O6 Mo2 1_555 1_555
C2 N1 1_555 1_555
C3 C7 1_555 1_555
C4 H2 1_555 1_555
O7 Mo2 1_555 1_555
O8 Mo1 1_555 1_555
C5 C2 1_555 1_555
O9 Mo1 1_555 1_555
O10 Cu1 1_555 1_555
C6 C4 1_555 1_555
H3 C6 1_555 1_555
O11 Mo1 1_555 1_555
C7 H4 1_555 1_555
C8 C2 1_555 1_555
H5 C8 1_555 1_555
C9 C1 1_555 1_555
H6 C9 1_555 1_555
C10 C8 1_555 1_555
H7 C10 1_555 1_555
C11 H8 1_555 1_555
O12 Mo3 1_555 1_555
C12 C11 1_555 1_555
H9 C12 1_555 1_555
N2 Cu1 1_555 1_555
C13 C3 1_555 1_555
C14 C3 1_555 1_555
H10 C14 1_555 1_555
N3 C5 1_555 1_555
N4 C4 1_555 1_555
O13 Cu1 1_555 1_555
O14 Mo4 1_555 1_555
Cu1C N4 1_555 1_555
Cu1B O13B 1_555 1_555
Cu1C_2 N1C_2 1_555 1_555
Mo1B O8 1_555 1_555
Mo2B O9 1_555 1_555
Mo3B O11 1_555 1_555
Mo4B O2B 1_555 1_555
N1C Cu1C 1_555 1_555
N1C_2 C1C 1_555 1_555
O1B Mo3B 1_555 1_555
O2B Mo1B 1_555 1_555
O3B Mo3B 1_555 1_555
O4B Mo2B 1_555 1_555
O5B Mo1B 1_555 1_555
C1C H1C 1_555 1_555
O6B Mo2B 1_555 1_555
C2C N1C_2 1_555 1_555
C3C C7C 1_555 1_555
C4C H2C 1_555 1_555
O7B Mo2B 1_555 1_555
O8B Mo1 1_555 1_555
C5C C2C 1_555 1_555
O9B Mo2 1_555 1_555
O10C Cu1C 1_555 1_555
C6C C4C 1_555 1_555
H3C C6C 1_555 1_555
O11B Mo3 1_555 1_555
C7C H4C 1_555 1_555
C8C C2C 1_555 1_555
H5C C8C 1_555 1_555
C9C C1C 1_555 1_555
H6C C9C 1_555 1_555
C10C C8C 1_555 1_555
H7C C10C 1_555 1_555
C11C H8C 1_555 1_555
O12B Mo3B 1_555 1_555
C12C C11C 1_555 1_555
H9C C12C 1_555 1_555
N2C Cu1C 1_555 1_555
N2C_2 Cu1C_2 1_555 1_555
C13C C3C 1_555 1_555
C14C C3C 1_555 1_555
H10C C14C 1_555 1_555
N3C C5C 1_555 1_555
N4C Cu1 1_555 1_555
O13C Cu1C 1_555 1_555
O13B Mo4B 1_555 1_555
O14B Mo4B 1_555 1_555
Mo2 O8 1_555 1_555
Mo2 O11 1_555 1_555
Mo3 O8 1_555 1_555
Mo3 O9 1_555 1_555
Mo4 O7 1_555 1_555
Mo4 O8 1_555 1_555
Mo4 O12 1_555 1_555
Mo4 O13 1_555 1_555
C5 N2 1_555 1_555
C6 C14 1_555 1_555
C7 N4 1_555 1_555
C9 C10 1_555 1_555
C11 N3 1_555 1_555
C12 N2 1_555 1_555
C13 N3 1_555 1_555
Mo1B O8B 1_555 1_555
Mo1B O9B 1_555 1_555
Mo1B O11B 1_555 1_555
Mo2B O8B 1_555 1_555
Mo2B O11B 1_555 1_555
Mo3B O8B 1_555 1_555
Mo3B O9B 1_555 1_555
Mo4B O7B 1_555 1_555
Mo4B O8B 1_555 1_555
Mo4B O12B 1_555 1_555
C4C N4C 1_555 1_555
C5C N2C_2 1_555 1_555
C6C C14C 1_555 1_555
C7C N4C 1_555 1_555
C9C C10C 1_555 1_555
C11C N3C 1_555 1_555
C12C N2C_2 1_555 1_555
C13C N3C 1_555 1_555

#END
