
#######################################################################
#
#                 Cambridge Crystallographic Data Centre
#                                CCDC 
#
#######################################################################
#
# If this CIF has been generated from an entry in the Cambridge 
# Structural Database, then it will include bibliographic, chemical, 
# crystal, experimental, refinement or atomic coordinate data resulting 
# from the CCDC's data processing and validation procedures.
#
#######################################################################

data_EKERES
_symmetry_cell_setting           monoclinic
_symmetry_space_group_name_H-M   'C 2/c'
_symmetry_Int_Tables_number      15
_space_group_name_Hall           '-C 2yn'
loop_
_symmetry_equiv_pos_site_id
_symmetry_equiv_pos_as_xyz
1 x,y,z
2 -x,y,1/2-z
3 1/2+x,1/2+y,z
4 1/2-x,1/2+y,1/2-z
5 -x,-y,-z
6 x,-y,1/2+z
7 1/2-x,1/2-y,-z
8 1/2+x,1/2-y,1/2+z
_cell_length_a                   19.584(2)
_cell_length_b                   14.0886(17)
_cell_length_c                   11.1826(14)
_cell_angle_alpha                90
_cell_angle_beta                 123.698(1)
_cell_angle_gamma                90
_cell_volume                     2566.97
loop_
_atom_site_label
_atom_site_type_symbol
_atom_site_fract_x
_atom_site_fract_y
_atom_site_fract_z
Cu1 Cu 0.0000 0.614739(19) 0.7500
Cu2 Cu 0.0000 0.803461(18) 0.7500
O1 O -0.08468(7) 0.79776(8) 0.54802(13)
O2 O -0.10538(7) 0.64183(8) 0.55259(12)
O3 O -0.41201(7) 0.72119(8) 0.20792(13)
O4 O -0.43463(7) 0.87803(8) 0.16978(13)
N1 N 0.0000 0.46088(13) 0.7500
N2 N 0.0000 -0.04279(14) 0.7500
C1 C 0.02237(10) 0.41149(12) 0.67426(18)
H1 H 0.0383 0.4448 0.6218
C2 C 0.02281(11) 0.31312(11) 0.67078(18)
H2 H 0.0382 0.2816 0.6161
C3 C 0.0000 0.26181(16) 0.7500
C4 C 0.02802(10) 0.00671(12) 0.87127(18)
H3 H 0.0483 -0.0266 0.9564
C5 C 0.02828(11) 0.10494(11) 0.87600(18)
H4 H 0.0471 0.1363 0.9621
C6 C 0.0000 0.15629(16) 0.7500
C7 C -0.12758(10) 0.72275(11) 0.49600(18)
C8 C -0.21196(10) 0.72934(11) 0.35589(18)
H5 H -0.2515 0.7043 0.3741
H6 H -0.2120 0.6870 0.2875
C9 C -0.24422(10) 0.82617(12) 0.28152(17)
C10 C -0.33260(10) 0.81120(12) 0.14432(18)
H7 H -0.3461 0.8645 0.0798
H8 H -0.3328 0.7544 0.0951
C11 C -0.39828(10) 0.80186(11) 0.17567(17)
C12 C -0.24391(11) 0.90510(12) 0.37725(19)
H9 H -0.2904 0.8984 0.3856
H10 H -0.1938 0.9031 0.4727
C13 C -0.19194(11) 0.87039(13) 0.2320(2)
H11 H -0.2057 0.8425 0.1419
H12 H -0.1340 0.8604 0.3036
C14 C -0.24961(12) 0.99804(14) 0.3009(2)
H13 H -0.2191 1.0479 0.3706
H14 H -0.3064 1.0179 0.2382
C15 C -0.21260(13) 0.97745(15) 0.2131(2)
H15 H -0.1634 1.0150 0.2485
H16 H -0.2517 0.9925 0.1125
Cu1F Cu -0.5000 0.885261(19) 0.2500
Cu1F_2 Cu 0.5000 0.885261(19) 1.2500
Cu2F Cu -0.5000 0.696539(18) 0.2500
Cu2_2 Cu 0.0000 -0.196539(18) 0.7500
Cu2F_2 Cu 0.5000 0.696539(18) 1.2500
O1A O 0.08468(7) 0.79776(8) 0.95198(13)
O2A O 0.10538(7) 0.64183(8) 0.94741(12)
O3A O 0.41201(7) 0.72119(8) 1.29208(13)
O3F O -0.08799(7) 0.77881(8) 0.79208(13)
O3G O 0.08799(7) 0.77881(8) 0.70792(13)
O4A O 0.43463(7) 0.87803(8) 1.33022(13)
O4F O -0.06537(7) 0.62197(8) 0.83022(13)
O4G O 0.06537(7) 0.62197(8) 0.66978(13)
N2_2 N 0.0000 0.95721(14) 0.7500
C1A C -0.02237(10) 0.41149(12) 0.82574(18)
H1A H -0.0383 0.4448 0.8782
C2A C -0.02281(11) 0.31312(11) 0.82922(18)
H2A H -0.0382 0.2816 0.8839
C4A C -0.02802(10) 0.00671(12) 0.62873(18)
H3A H -0.0483 -0.0266 0.5436
C5A C -0.02828(11) 0.10494(11) 0.62400(18)
H4A H -0.0471 0.1363 0.5379
C7A C 0.12758(10) 0.72275(11) 1.00400(18)
C8A C 0.21196(10) 0.72934(11) 1.14411(18)
H5A H 0.2515 0.7043 1.1259
H6A H 0.2120 0.6870 1.2125
C9A C 0.24422(10) 0.82617(12) 1.21848(17)
C10A C 0.33260(10) 0.81120(12) 1.35568(18)
H7A H 0.3461 0.8645 1.4202
H8A H 0.3328 0.7544 1.4049
C11A C 0.39828(10) 0.80186(11) 1.32433(17)
C12A C 0.24391(11) 0.90510(12) 1.12275(19)
H9A H 0.2904 0.8984 1.1144
H10A H 0.1938 0.9031 1.0273
C13A C 0.19194(11) 0.87039(13) 1.2680(2)
H11A H 0.2057 0.8425 1.3581
H12A H 0.1340 0.8604 1.1964
C14A C 0.24961(12) 0.99804(14) 1.1991(2)
H13A H 0.2191 1.0479 1.1294
H14A H 0.3064 1.0179 1.2618
C15A C 0.21260(13) 0.97745(15) 1.2869(2)
H15A H 0.1634 1.0150 1.2515
H16A H 0.2517 0.9925 1.3875
loop_
_geom_bond_atom_site_label_1
_geom_bond_atom_site_label_2
_geom_bond_site_symmetry_1
_geom_bond_site_symmetry_2
Cu1 O2 1_555 1_555
Cu2 O1 1_555 1_555
O1 C7 1_555 1_555
O2 C7 1_555 1_555
O3 C11 1_555 1_555
O4 C11 1_555 1_555
N1 Cu1 1_555 1_555
N2 C4 1_555 1_555
C1 N1 1_555 1_555
H1 C1 1_555 1_555
C2 C1 1_555 1_555
H2 C2 1_555 1_555
C3 C2 1_555 1_555
C4 H3 1_555 1_555
C5 C4 1_555 1_555
H4 C5 1_555 1_555
C6 C3 1_555 1_555
C7 C8 1_555 1_555
C8 H5 1_555 1_555
H6 C8 1_555 1_555
C9 C8 1_555 1_555
C10 C9 1_555 1_555
H7 C10 1_555 1_555
H8 C10 1_555 1_555
C11 C10 1_555 1_555
C12 C9 1_555 1_555
H9 C12 1_555 1_555
H10 C12 1_555 1_555
C13 C9 1_555 1_555
H11 C13 1_555 1_555
H12 C13 1_555 1_555
C14 C12 1_555 1_555
H13 C14 1_555 1_555
H14 C14 1_555 1_555
C15 C13 1_555 1_555
H15 C15 1_555 1_555
H16 C15 1_555 1_555
Cu1F O4 1_555 1_555
Cu1F_2 O4A 1_555 1_555
Cu2F O3 1_555 1_555
Cu2_2 N2 1_555 1_555
Cu2F_2 O3A 1_555 1_555
O1A Cu2 1_555 1_555
O2A Cu1 1_555 1_555
O3A C11A 1_555 1_555
O3F Cu2 1_555 1_555
O3G Cu2 1_555 1_555
O4A C11A 1_555 1_555
O4F Cu1 1_555 1_555
O4G Cu1 1_555 1_555
N2_2 Cu2 1_555 1_555
C1A N1 1_555 1_555
H1A C1A 1_555 1_555
C2A C3 1_555 1_555
H2A C2A 1_555 1_555
C4A N2 1_555 1_555
H3A C4A 1_555 1_555
C5A C6 1_555 1_555
H4A C5A 1_555 1_555
C7A O1A 1_555 1_555
C8A C7A 1_555 1_555
H5A C8A 1_555 1_555
H6A C8A 1_555 1_555
C9A C8A 1_555 1_555
C10A C9A 1_555 1_555
H7A C10A 1_555 1_555
H8A C10A 1_555 1_555
C11A C10A 1_555 1_555
C12A C9A 1_555 1_555
H9A C12A 1_555 1_555
H10A C12A 1_555 1_555
C13A C9A 1_555 1_555
H11A C13A 1_555 1_555
H12A C13A 1_555 1_555
C14A C12A 1_555 1_555
H13A C14A 1_555 1_555
H14A C14A 1_555 1_555
C15A C13A 1_555 1_555
H15A C15A 1_555 1_555
H16A C15A 1_555 1_555
C5 C6 1_555 1_555
C14 C15 1_555 1_555
O2A C7A 1_555 1_555
C1A C2A 1_555 1_555
C4A C5A 1_555 1_555
C14A C15A 1_555 1_555

#END
