
#######################################################################
#
#                 Cambridge Crystallographic Data Centre
#                                CCDC 
#
#######################################################################
#
# If this CIF has been generated from an entry in the Cambridge 
# Structural Database, then it will include bibliographic, chemical, 
# crystal, experimental, refinement or atomic coordinate data resulting 
# from the CCDC's data processing and validation procedures.
#
#######################################################################

data_EKEROC
_symmetry_cell_setting           triclinic
_symmetry_space_group_name_H-M   'P -1'
_symmetry_Int_Tables_number      2
_space_group_name_Hall           '-P 1'
loop_
_symmetry_equiv_pos_site_id
_symmetry_equiv_pos_as_xyz
1 x,y,z
2 -x,-y,-z
_cell_length_a                   9.9265(2)
_cell_length_b                   10.4048(2)
_cell_length_c                   14.2318(3)
_cell_angle_alpha                77.967(1)
_cell_angle_beta                 72.314(1)
_cell_angle_gamma                66.254(1)
_cell_volume                     1275.6
loop_
_atom_site_label
_atom_site_type_symbol
_atom_site_fract_x
_atom_site_fract_y
_atom_site_fract_z
Cu1 Cu 0.90080(3) 0.89884(3) 0.56612(2)
O2 O 0.8682(2) 0.82203(18) 0.39006(13)
O3 O 0.96300(18) 0.96170(16) 0.42503(12)
O4 O 0.7474(4) 0.9290(4) 0.0248(2)
H3 H 0.6355 1.0194 0.0868
O5 O 0.6331(4) 0.8475(5) 0.1635(3)
O6 O 0.84060(19) 0.84856(17) 0.70913(12)
O7 O 0.7183(2) 0.7456(2) 0.66285(13)
O8 O 0.5999(3) 0.5590(3) 0.73022(18)
H4 H 0.640(4) 0.624(4) 0.702(3)
O9 O 0.6565(5) 0.3533(3) 0.8167(2)
N1 N 0.7034(2) 1.0664(2) 0.57907(15)
N2 N 0.0832(2) 1.7152(2) 0.55935(15)
C1 C 0.6677(3) 1.1643(3) 0.63928(19)
H5 H 0.7295 1.1480 0.6815
C2 C 0.5433(3) 1.2886(3) 0.64157(19)
H6 H 0.5233 1.3542 0.6843
C3 C 0.4477(3) 1.3156(2) 0.57974(17)
C4 C 0.4812(3) 1.2097(2) 0.52069(19)
H7 H 0.4183 1.2207 0.4803
C5 C 0.6081(3) 1.0889(2) 0.52275(19)
H8 H 0.6287 1.0195 0.4830
C6 C 0.1001(3) 1.6060(3) 0.5148(2)
H9 H 0.0322 1.6190 0.4776
C7 C 0.2136(3) 1.4756(3) 0.5216(2)
H10 H 0.2191 1.4024 0.4909
C8 C 0.3200(3) 1.4529(2) 0.57416(17)
C9 C 0.3031(3) 1.5676(3) 0.6187(2)
H11 H 0.3716 1.5588 0.6542
C10 C 0.1849(3) 1.6939(3) 0.6102(2)
H12 H 0.1752 1.7683 0.6414
C11 C 0.9280(3) 0.9116(2) 0.36331(18)
C12 C 0.9655(3) 0.9711(3) 0.25583(19)
H13 H 1.0581 0.9025 0.2212
H14 H 0.9867 1.0550 0.2541
C13 C 0.8430(3) 1.0104(3) 0.19765(19)
C14 C 0.8539(3) 0.8736(3) 0.1644(2)
H15 H 0.9529 0.8341 0.1199
H16 H 0.8471 0.8059 0.2222
C15 C 0.7348(4) 0.8920(3) 0.1134(2)
C16 C 0.6836(3) 1.0824(3) 0.2604(2)
H17 H 0.6109 1.1047 0.2222
H18 H 0.6774 1.1676 0.2804
H19 H 0.6622 1.0202 0.3181
C17 C 0.8788(4) 1.1123(3) 0.1078(2)
H20 H 0.9794 1.0678 0.0685
H21 H 0.8723 1.1961 0.1300
H22 H 0.8069 1.1370 0.0685
C18 C 0.7561(3) 0.7770(2) 0.72915(18)
C19 C 0.7047(3) 0.7251(3) 0.83624(19)
H23 H 0.6007 0.7313 0.8492
H24 H 0.7066 0.7862 0.8784
C20 C 0.8048(3) 0.5714(3) 0.8634(2)
C21 C 0.8291(4) 0.4703(3) 0.7882(3)
H25 H 0.8788 0.5028 0.7232
H26 H 0.8976 0.3772 0.8067
C22 C 0.6885(5) 0.4568(4) 0.7805(3)
C23 C 0.9621(4) 0.5655(4) 0.8625(3)
H27 H 1.0096 0.5969 0.7973
H28 H 1.0236 0.4703 0.8805
H29 H 0.9516 0.6256 0.9092
C24 C 0.7287(5) 0.5230(4) 0.9676(2)
H30 H 0.6303 0.5265 0.9683
H31 H 0.7181 0.5841 1.0136
H32 H 0.7900 0.4281 0.9863
Cu1A Cu 1.09920(3) 1.10116(3) 0.43388(2)
Cu1_2 Cu -0.09920(3) 1.89884(3) 0.56612(2)
O3A O 1.03700(18) 1.03830(16) 0.57497(12)
N2_2 N 1.0832(2) 0.7152(2) 0.55935(15)
O1 O 0.4302(5) 0.8622(4) 1.0827(3)
H1 H 0.383(6) 0.807(5) 1.114(4)
H2 H 0.385(6) 0.926(5) 1.043(4)
loop_
_geom_bond_atom_site_label_1
_geom_bond_atom_site_label_2
_geom_bond_site_symmetry_1
_geom_bond_site_symmetry_2
Cu1 O3 1_555 1_555
O1 H1 1_555 1_555
H2 O1 1_555 1_555
O2 C11 1_555 1_555
O3 C11 1_555 1_555
O4 H3 1_555 1_555
O5 C15 1_555 1_555
O6 Cu1 1_555 1_555
O7 C18 1_555 1_555
O8 H4 1_555 1_555
O9 C22 1_555 1_555
N1 Cu1 1_555 1_555
N2 C6 1_555 1_555
C1 N1 1_555 1_555
H5 C1 1_555 1_555
C2 C1 1_555 1_555
H6 C2 1_555 1_555
C3 C2 1_555 1_555
C4 C3 1_555 1_555
H7 C4 1_555 1_555
C5 N1 1_555 1_555
H8 C5 1_555 1_555
C6 H9 1_555 1_555
C7 C6 1_555 1_555
H10 C7 1_555 1_555
C8 C3 1_555 1_555
C9 C8 1_555 1_555
H11 C9 1_555 1_555
C10 N2 1_555 1_555
H12 C10 1_555 1_555
C11 C12 1_555 1_555
C12 H13 1_555 1_555
H14 C12 1_555 1_555
C13 C12 1_555 1_555
C14 C13 1_555 1_555
H15 C14 1_555 1_555
H16 C14 1_555 1_555
C15 O4 1_555 1_555
C16 C13 1_555 1_555
H17 C16 1_555 1_555
H18 C16 1_555 1_555
H19 C16 1_555 1_555
C17 C13 1_555 1_555
H20 C17 1_555 1_555
H21 C17 1_555 1_555
H22 C17 1_555 1_555
C18 O6 1_555 1_555
C19 C18 1_555 1_555
H23 C19 1_555 1_555
H24 C19 1_555 1_555
C20 C19 1_555 1_555
C21 C20 1_555 1_555
H25 C21 1_555 1_555
H26 C21 1_555 1_555
C22 O8 1_555 1_555
C23 C20 1_555 1_555
H27 C23 1_555 1_555
H28 C23 1_555 1_555
H29 C23 1_555 1_555
C24 C20 1_555 1_555
H30 C24 1_555 1_555
H31 C24 1_555 1_555
H32 C24 1_555 1_555
Cu1A O3 1_555 1_555
Cu1_2 N2 1_555 1_555
O3A Cu1 1_555 1_555
N2_2 Cu1 1_555 1_555
C4 C5 1_555 1_555
C7 C8 1_555 1_555
C9 C10 1_555 1_555
C14 C15 1_555 1_555
C21 C22 1_555 1_555
Cu1A O3A 1_555 1_555

#END
