
#######################################################################
#
#                 Cambridge Crystallographic Data Centre
#                                CCDC 
#
#######################################################################
#
# If this CIF has been generated from an entry in the Cambridge 
# Structural Database, then it will include bibliographic, chemical, 
# crystal, experimental, refinement or atomic coordinate data resulting 
# from the CCDC's data processing and validation procedures.
#
#######################################################################

data_EKESOC
_symmetry_cell_setting           orthorhombic
_symmetry_space_group_name_H-M   'P m m n'
_symmetry_Int_Tables_number      59
_space_group_name_Hall           '-P 2ab 2a'
loop_
_symmetry_equiv_pos_site_id
_symmetry_equiv_pos_as_xyz
1 x,y,z
2 1/2+x,1/2+y,-z
3 1/2-x,y,z
4 x,1/2-y,z
5 -x,-y,-z
6 1/2-x,1/2-y,z
7 1/2+x,-y,-z
8 -x,1/2+y,-z
_cell_length_a                   6.8084(13)
_cell_length_b                   12.071(2)
_cell_length_c                   6.4224(15)
_cell_angle_alpha                90
_cell_angle_beta                 90
_cell_angle_gamma                90
_cell_volume                     527.82
loop_
_atom_site_label
_atom_site_type_symbol
_atom_site_fract_x
_atom_site_fract_y
_atom_site_fract_z
Cu1 Cu 0.2500 0.25000 0.33505(5)
O1 O 0.2500 0.25000 0.6835(4)
O2 O 0.2500 0.08926(14) 0.2903(3)
O3 O 0.2500 0.0745(2) -0.0562(4)
N1 N 0.5573(3) 0.25000 0.3413(3)
C1 C 0.2500 0.03800(19) 0.1200(4)
C2 C 0.6379(3) 0.25000 0.1269(4)
C3 C 0.6384(2) 0.15119(16) 0.4490(3)
H1 H 0.2500 0.316(3) 0.761(8)
H2 H 0.2500 -0.041(3) 0.139(5)
H3 H 0.588(4) 0.313(2) 0.068(5)
H4 H 0.585(5) 0.089(3) 0.385(5)
H5 H 0.580(5) 0.154(3) 0.591(6)
H1C H 0.2500 0.184(3) 0.761(8)
C2B C 0.8621(3) 0.25000 0.1269(4)
N1B N 0.9427(3) 0.25000 0.3413(3)
C3B C 0.8616(2) 0.15119(16) 0.4490(3)
C3C C 0.6384(2) 0.34881(16) 0.4490(3)
C3E C 0.8616(2) 0.34881(16) 0.4490(3)
H4E H 0.915(5) 0.411(3) 0.385(5)
H5E H 0.920(5) 0.346(3) 0.591(6)
H4C H 0.585(5) 0.411(3) 0.385(5)
H5C H 0.580(5) 0.346(3) 0.591(6)
H4B H 0.915(5) 0.089(3) 0.385(5)
H5B H 0.920(5) 0.154(3) 0.591(6)
H3B H 0.912(4) 0.313(2) 0.068(5)
H3E H 0.912(4) 0.187(2) 0.068(5)
H3C H 0.588(4) 0.187(2) 0.068(5)
O2C O 0.2500 0.41074(14) 0.2903(3)
O3C O 0.2500 0.4255(2) -0.0562(4)
C1C C 0.2500 0.46200(19) 0.1200(4)
H2C H 0.2500 0.541(3) 0.139(5)
N1B_2 N -0.0573(3) 0.25000 0.3413(3)
Cu1_2 Cu 1.2500 0.25000 0.33505(5)
loop_
_geom_bond_atom_site_label_1
_geom_bond_atom_site_label_2
_geom_bond_site_symmetry_1
_geom_bond_site_symmetry_2
Cu1 O1 1_555 1_555
O1 H1 1_555 1_555
O2 Cu1 1_555 1_555
O3 C1 1_555 1_555
N1 Cu1 1_555 1_555
C1 O2 1_555 1_555
C2 N1 1_555 1_555
C3 N1 1_555 1_555
H2 C1 1_555 1_555
H3 C2 1_555 1_555
H4 C3 1_555 1_555
H5 C3 1_555 1_555
H1C O1 1_555 1_555
C2B C2 1_555 1_555
N1B C2B 1_555 1_555
C3B C3 1_555 1_555
C3C N1 1_555 1_555
C3E N1B 1_555 1_555
H4E C3E 1_555 1_555
H5E C3E 1_555 1_555
H4C C3C 1_555 1_555
H5C C3C 1_555 1_555
H4B C3B 1_555 1_555
H5B C3B 1_555 1_555
H3B C2B 1_555 1_555
H3E C2B 1_555 1_555
H3C C2 1_555 1_555
O2C Cu1 1_555 1_555
O3C C1C 1_555 1_555
C1C O2C 1_555 1_555
H2C C1C 1_555 1_555
N1B_2 Cu1 1_555 1_555
Cu1_2 N1B 1_555 1_555
N1B C3B 1_555 1_555
C3C C3E 1_555 1_555

#END
