
#######################################################################
#
#                 Cambridge Crystallographic Data Centre
#                                CCDC 
#
#######################################################################
#
# If this CIF has been generated from an entry in the Cambridge 
# Structural Database, then it will include bibliographic, chemical, 
# crystal, experimental, refinement or atomic coordinate data resulting 
# from the CCDC's data processing and validation procedures.
#
#######################################################################

data_EKESIW
_symmetry_cell_setting           triclinic
_symmetry_space_group_name_H-M   'P -1'
_symmetry_Int_Tables_number      2
_space_group_name_Hall           '-P 1'
loop_
_symmetry_equiv_pos_site_id
_symmetry_equiv_pos_as_xyz
1 x,y,z
2 -x,-y,-z
_cell_length_a                   6.8300(10)
_cell_length_b                   11.339(2)
_cell_length_c                   14.627(2)
_cell_angle_alpha                94.580(10)
_cell_angle_beta                 95.920(10)
_cell_angle_gamma                102.54(2)
_cell_volume                     1093.76
loop_
_atom_site_label
_atom_site_type_symbol
_atom_site_fract_x
_atom_site_fract_y
_atom_site_fract_z
Cu1 Cu -0.27059(6) -0.23710(4) 0.00097(2)
K1 K -0.28596(12) -0.08164(8) 0.57449(5)
K2 K -0.21667(12) -0.40913(8) 0.42584(5)
N1 N -0.2366(4) -0.1124(3) 0.10899(17)
C1 C -0.2214(4) -0.1596(3) 0.1874(2)
C2 C -0.2208(4) -0.0927(3) 0.2724(2)
N2 N -0.2343(4) 0.0234(3) 0.27433(18)
C3 C -0.2488(5) 0.0702(3) 0.1945(2)
H1 H -0.257 0.151 0.195
C4 C -0.2521(5) 0.0034(3) 0.1110(2)
H2 H -0.265 0.039 0.056
C5 C -0.2054(5) -0.2902(3) 0.1788(2)
C6 C -0.2086(5) -0.1443(3) 0.3643(2)
O1 O -0.2252(4) -0.3425(2) 0.09650(15)
O2 O -0.1747(5) -0.3422(3) 0.24852(17)
O3 O -0.3715(4) -0.1982(2) 0.38902(16)
O4 O -0.0396(4) -0.1253(3) 0.40944(17)
N3 N -0.2779(4) -0.3595(2) -0.10539(16)
C7 C -0.2755(5) -0.3134(3) -0.1851(2)
C8 C -0.2845(4) -0.3850(3) -0.26820(19)
N4 N -0.2959(4) -0.5048(3) -0.26812(18)
C9 C -0.2984(6) -0.5502(3) -0.1871(2)
H3 H -0.307 -0.633 -0.186
C10 C -0.2887(5) -0.4787(3) -0.1045(2)
H4 H -0.290 -0.513 -0.049
C11 C -0.2628(5) -0.1791(3) -0.1773(2)
C12 C -0.2863(5) -0.3395(3) -0.3620(2)
O5 O -0.2458(4) -0.1264(2) -0.09497(15)
O6 O -0.2757(5) -0.1259(2) -0.24745(16)
O7 O -0.1217(4) -0.2947(2) -0.38860(15)
O8 O -0.4548(4) -0.3553(3) -0.40796(17)
O9 O -0.6000(4) -0.2620(3) -0.0011(2)
H5 H -0.665(4) -0.217(3) 0.026(2)
H6 H -0.682(4) -0.301(4) -0.047(2)
O10 O -0.2980(4) 0.1200(3) 0.45529(18)
H7 H -0.188(3) 0.161(4) 0.485(2)
H8 H -0.280(5) 0.123(4) 0.3990(10)
O11 O -0.2812(5) 0.1620(4) 0.6992(2)
H9 H -0.259(5) 0.196(4) 0.7540(10)
H10 H -0.372(5) 0.193(4) 0.672(2)
O12 O -0.1987(4) -0.6086(3) 0.5542(2)
H11 H -0.214(5) -0.604(4) 0.6110(10)
H12 H -0.303(4) -0.659(3) 0.527(2)
O13 O -0.2141(4) -0.6414(3) 0.3117(2)
H13 H -0.120(3) -0.669(4) 0.339(3)
H14 H -0.320(3) -0.671(4) 0.336(2)
O4A O 0.0396(4) 0.1253(3) 0.59056(17)
O6_2 O -0.2757(5) -0.1259(2) 0.75255(16)
O7_2 O -0.1217(4) -0.2947(2) 0.61140(15)
O8_2 O -0.4548(4) -0.3553(3) 0.59204(17)
O10A O -0.7020(4) -0.1200(3) 0.54471(18)
O8A O -0.5452(4) -0.6447(3) 0.40796(17)
O12A O 0.1987(4) -0.3914(3) 0.4458(2)
K1A K 0.28596(12) 0.08164(8) 0.42551(5)
K1_2 K -0.28596(12) -0.08164(8) -0.42551(5)
K2_2 K -0.21667(12) -0.40913(8) -0.57416(5)
K2A K -0.78333(12) -0.59087(8) -0.42584(5)
K1A_2 K -0.71404(12) 0.08164(8) 0.42551(5)
K2A_2 K 0.21667(12) -0.59087(8) 0.57416(5)
H7A H -0.812(3) -0.161(4) 0.515(2)
H8A H -0.720(5) -0.123(4) 0.6010(10)
H11A H 0.214(5) -0.396(4) 0.3890(10)
H12A H 0.303(4) -0.341(3) 0.473(2)
O14 O -0.7594(5) -0.1236(3) 0.1177(2)
H15 H -0.736(5) -0.0470(10) 0.130(3)
H16 H -0.8860(10) -0.145(3) 0.100(3)
O15 O -0.1772(5) -0.5861(3) 0.1378(2)
H17 H -0.181(7) -0.604(3) 0.1930(10)
H18 H -0.196(7) -0.514(2) 0.139(3)
loop_
_geom_bond_atom_site_label_1
_geom_bond_atom_site_label_2
_geom_bond_site_symmetry_1
_geom_bond_site_symmetry_2
Cu1 N1 1_555 1_555
K1 O3 1_555 1_555
K2 O2 1_555 1_555
N1 C1 1_555 1_555
C1 C2 1_555 1_555
C2 N2 1_555 1_555
N2 C3 1_555 1_555
C3 H1 1_555 1_555
C4 N1 1_555 1_555
H2 C4 1_555 1_555
C5 C1 1_555 1_555
C6 C2 1_555 1_555
O1 Cu1 1_555 1_555
O2 C5 1_555 1_555
O3 K2 1_555 1_555
O4 K1 1_555 1_555
N3 Cu1 1_555 1_555
C7 N3 1_555 1_555
C8 C7 1_555 1_555
N4 C8 1_555 1_555
C9 N4 1_555 1_555
H3 C9 1_555 1_555
C10 N3 1_555 1_555
H4 C10 1_555 1_555
C11 C7 1_555 1_555
C12 C8 1_555 1_555
O5 Cu1 1_555 1_555
O6 C11 1_555 1_555
O7 C12 1_555 1_555
O8 C12 1_555 1_555
O9 Cu1 1_555 1_555
H5 O9 1_555 1_555
H6 O9 1_555 1_555
O10 K1 1_555 1_555
H7 O10 1_555 1_555
H8 O10 1_555 1_555
O11 K1 1_555 1_555
H9 O11 1_555 1_555
H10 O11 1_555 1_555
O12 K2 1_555 1_555
H11 O12 1_555 1_555
H12 O12 1_555 1_555
O13 K2 1_555 1_555
H13 O13 1_555 1_555
H14 O13 1_555 1_555
O14 H15 1_555 1_555
H16 O14 1_555 1_555
O15 H17 1_555 1_555
H18 O15 1_555 1_555
O4A K1 1_555 1_555
O6_2 K1 1_555 1_555
O7_2 K1 1_555 1_555
O8_2 K1 1_555 1_555
O10A K1 1_555 1_555
O8A K2 1_555 1_555
O12A K2 1_555 1_555
K1A O4 1_555 1_555
K1_2 O6 1_555 1_555
K2_2 O7 1_555 1_555
K2A O8 1_555 1_555
K1A_2 O10 1_555 1_555
K2A_2 O12 1_555 1_555
H7A O10A 1_555 1_555
H8A O10A 1_555 1_555
H11A O12A 1_555 1_555
H12A O12A 1_555 1_555
K2 O4 1_555 1_555
K2 O7_2 1_555 1_555
K2 O8_2 1_555 1_555
C3 C4 1_555 1_555
C5 O1 1_555 1_555
C6 O3 1_555 1_555
C6 O4 1_555 1_555
C9 C10 1_555 1_555
C11 O5 1_555 1_555
O7 K1_2 1_555 1_555
O8 K1_2 1_555 1_555
O8 K2_2 1_555 1_555
O4A K1A 1_555 1_555
O10A K1A_2 1_555 1_555
O12A K2A_2 1_555 1_555

#END
