
#######################################################################
#
#                 Cambridge Crystallographic Data Centre
#                                CCDC 
#
#######################################################################
#
# If this CIF has been generated from an entry in the Cambridge 
# Structural Database, then it will include bibliographic, chemical, 
# crystal, experimental, refinement or atomic coordinate data resulting 
# from the CCDC's data processing and validation procedures.
#
#######################################################################

data_EKEVAR02
_symmetry_cell_setting           monoclinic
_symmetry_space_group_name_H-M   'C 2/c'
_symmetry_Int_Tables_number      15
_space_group_name_Hall           '-C 2yc'
loop_
_symmetry_equiv_pos_site_id
_symmetry_equiv_pos_as_xyz
1 x,y,z
2 1/2+x,1/2+y,z
3 1/2-x,1/2+y,1/2-z
4 -x,y,1/2-z
5 -x,-y,-z
6 1/2-x,1/2-y,-z
7 1/2+x,1/2-y,1/2+z
8 x,-y,1/2+z
_cell_length_a                   17.424(8)
_cell_length_b                   9.253(4)
_cell_length_c                   7.117(3)
_cell_angle_alpha                90
_cell_angle_beta                 110.946(8)
_cell_angle_gamma                90
_cell_volume                     1071.61
loop_
_atom_site_label
_atom_site_type_symbol
_atom_site_fract_x
_atom_site_fract_y
_atom_site_fract_z
Cd1 Cd 0.0000 0.4135(1) 0.2500
Cl1 Cl 0.0930 0.5832(1) 0.5117(1)
N1 N 0.0748 0.2063(2) 0.3936(2)
C1 C 0.1514(2) 0.2114(4) 0.5256(5)
C2 C 0.1983(2) 0.0908(4) 0.5922(5)
C3 C 0.1649(2) -0.0396(4) 0.5251(5)
C4 C 0.0866(2) -0.0474(4) 0.3918(5)
C5 C 0.0423(2) 0.0781(3) 0.3257(4)
Cd1D Cd 0.0000 0.5865(1) 0.7500
Cd1D_2 Cd 0.0000 0.5865(1) -0.2500
Cl1D Cl -0.0930 0.4168(1) 0.4883(1)
Cl1C Cl -0.0930 0.5832(1) -0.0117(1)
Cl1G Cl 0.0930 0.4168(1) 0.0117(1)
N1C N -0.0748 0.2063(2) 0.1064(2)
C1C C -0.1514(2) 0.2114(4) -0.0256(5)
C2C C -0.1983(2) 0.0908(4) -0.0922(5)
C3C C -0.1649(2) -0.0396(4) -0.0251(5)
C4C C -0.0866(2) -0.0474(4) 0.1082(5)
C5C C -0.0423(2) 0.0781(3) 0.1743(4)
loop_
_geom_bond_atom_site_label_1
_geom_bond_atom_site_label_2
_geom_bond_site_symmetry_1
_geom_bond_site_symmetry_2
Cd1 Cl1 1_555 1_555
Cl1 Cd1D 1_555 1_555
N1 Cd1 1_555 1_555
C1 N1 1_555 1_555
C2 C1 1_555 1_555
C3 C2 1_555 1_555
C4 C3 1_555 1_555
C5 N1 1_555 1_555
Cd1D Cl1D 1_555 1_555
Cd1D_2 Cl1C 1_555 1_555
Cl1D Cd1 1_555 1_555
Cl1C Cd1 1_555 1_555
Cl1G Cd1 1_555 1_555
N1C Cd1 1_555 1_555
C1C N1C 1_555 1_555
C2C C1C 1_555 1_555
C3C C2C 1_555 1_555
C4C C3C 1_555 1_555
C5C C5 1_555 1_555
C4 C5 1_555 1_555
Cd1D_2 Cl1G 1_555 1_555
N1C C5C 1_555 1_555
C4C C5C 1_555 1_555

#END
