
#######################################################################
#
#                 Cambridge Crystallographic Data Centre
#                                CCDC 
#
#######################################################################
#
# If this CIF has been generated from an entry in the Cambridge 
# Structural Database, then it will include bibliographic, chemical, 
# crystal, experimental, refinement or atomic coordinate data resulting 
# from the CCDC's data processing and validation procedures.
#
#######################################################################

data_EKEVAR01
_symmetry_cell_setting           monoclinic
_symmetry_space_group_name_H-M   'C 2/c'
_symmetry_Int_Tables_number      15
_space_group_name_Hall           '-C 2yn'
loop_
_symmetry_equiv_pos_site_id
_symmetry_equiv_pos_as_xyz
1 x,y,z
2 -x,y,1/2-z
3 1/2+x,1/2+y,z
4 1/2-x,1/2+y,1/2-z
5 -x,-y,-z
6 x,-y,1/2+z
7 1/2-x,1/2-y,-z
8 1/2+x,1/2-y,1/2+z
_cell_length_a                   17.5432(14)
_cell_length_b                   9.3054(7)
_cell_length_c                   7.1653(6)
_cell_angle_alpha                90
_cell_angle_beta                 110.9180(10)
_cell_angle_gamma                90
_cell_volume                     1092.62
loop_
_atom_site_label
_atom_site_type_symbol
_atom_site_fract_x
_atom_site_fract_y
_atom_site_fract_z
Cd1 Cd 0.5000 0.58661(3) 0.7500
Cl1 Cl 0.40689(5) 0.41670(7) 0.48809(14)
N1 N 0.57484(14) 0.7936(3) 0.8939(4)
C1 C 0.5422(2) 0.9218(3) 0.8249(5)
C2 C 0.65147(18) 0.7882(4) 1.0261(5)
H1 H 0.6737 0.6991 1.0751
C3 C 0.6987(2) 0.9095(4) 1.0925(6)
H2 H 0.7522 0.9021 1.1815
C4 C 0.5864(2) 1.0481(4) 0.8911(5)
H3 H 0.5626 1.1367 0.8449
C5 C 0.6651(2) 1.0413(5) 1.0244(6)
H4 H 0.6953 1.1249 1.0681
Cd1D Cd 0.5000 0.41339(3) 0.2500
Cd1D_2 Cd 0.5000 0.41339(3) 1.2500
Cl1A Cl 0.59311(5) 0.41670(7) 1.01191(14)
Cl1D Cl 0.59311(5) 0.58330(7) 0.51191(14)
Cl1E Cl 0.40689(5) 0.58330(7) 0.98809(14)
N1A N 0.42516(14) 0.7936(3) 0.6061(4)
C1A C 0.4578(2) 0.9218(3) 0.6751(5)
C2A C 0.34853(18) 0.7882(4) 0.4739(5)
H1A H 0.3263 0.6991 0.4249
C3A C 0.3013(2) 0.9095(4) 0.4075(6)
H2A H 0.2478 0.9021 0.3185
C4A C 0.4136(2) 1.0481(4) 0.6089(5)
H3A H 0.4374 1.1367 0.6551
C5A C 0.3349(2) 1.0413(5) 0.4756(6)
H4A H 0.3047 1.1249 0.4319
loop_
_geom_bond_atom_site_label_1
_geom_bond_atom_site_label_2
_geom_bond_site_symmetry_1
_geom_bond_site_symmetry_2
Cd1 Cl1 1_555 1_555
Cl1 Cd1D 1_555 1_555
N1 Cd1 1_555 1_555
C1 N1 1_555 1_555
C2 N1 1_555 1_555
H1 C2 1_555 1_555
C3 C2 1_555 1_555
H2 C3 1_555 1_555
C4 C1 1_555 1_555
H3 C4 1_555 1_555
C5 C3 1_555 1_555
H4 C5 1_555 1_555
Cd1D Cl1D 1_555 1_555
Cd1D_2 Cl1A 1_555 1_555
Cl1A Cd1 1_555 1_555
Cl1D Cd1 1_555 1_555
Cl1E Cd1 1_555 1_555
N1A Cd1 1_555 1_555
C1A C1 1_555 1_555
C2A N1A 1_555 1_555
H1A C2A 1_555 1_555
C3A C2A 1_555 1_555
H2A C3A 1_555 1_555
C4A C1A 1_555 1_555
H3A C4A 1_555 1_555
C5A C3A 1_555 1_555
H4A C5A 1_555 1_555
C4 C5 1_555 1_555
Cd1D_2 Cl1E 1_555 1_555
N1A C1A 1_555 1_555
C4A C5A 1_555 1_555

#END
