
#######################################################################
#
#                 Cambridge Crystallographic Data Centre
#                                CCDC 
#
#######################################################################
#
# If this CIF has been generated from an entry in the Cambridge 
# Structural Database, then it will include bibliographic, chemical, 
# crystal, experimental, refinement or atomic coordinate data resulting 
# from the CCDC's data processing and validation procedures.
#
#######################################################################

data_EKEVAR04
_symmetry_cell_setting           monoclinic
_symmetry_space_group_name_H-M   'C 2/c'
_symmetry_Int_Tables_number      15
_space_group_name_Hall           '-C 2yn'
loop_
_symmetry_equiv_pos_site_id
_symmetry_equiv_pos_as_xyz
1 x,y,z
2 -x,y,1/2-z
3 1/2+x,1/2+y,z
4 1/2-x,1/2+y,1/2-z
5 -x,-y,-z
6 x,-y,1/2+z
7 1/2-x,1/2-y,-z
8 1/2+x,1/2-y,1/2+z
_cell_length_a                   17.4172(18)
_cell_length_b                   9.2767(9)
_cell_length_c                   7.1185(7)
_cell_angle_alpha                90
_cell_angle_beta                 110.328(2)
_cell_angle_gamma                90
_cell_volume                     1078.53
loop_
_atom_site_label
_atom_site_type_symbol
_atom_site_fract_x
_atom_site_fract_y
_atom_site_fract_z
Cd1 Cd 0.5000 0.58810(2) 0.7500
Cl1 Cl 0.40618(5) 0.41781(6) 0.48809(12)
N1 N 0.57523(14) 0.7955(2) 0.8933(3)
C1 C 0.65223(18) 0.7901(3) 1.0252(4)
H1 H 0.6746 0.7007 1.0733
C2 C 0.6996(2) 0.9116(3) 1.0925(5)
H2 H 0.7529 0.9042 1.1822
C3 C 0.6658(2) 1.0440(3) 1.0234(4)
H3 H 0.6961 1.1278 1.0662
C4 C 0.5863(2) 1.0509(3) 0.8899(4)
H4 H 0.5624 1.1397 0.8441
C5 C 0.54243(19) 0.9243(3) 0.8242(4)
N1A N 0.42477(14) 0.7955(2) 0.6067(3)
C1A C 0.34777(18) 0.7901(3) 0.4748(4)
H1A H 0.3254 0.7007 0.4267
C2A C 0.3004(2) 0.9116(3) 0.4075(5)
H2A H 0.2471 0.9042 0.3178
C3A C 0.3342(2) 1.0440(3) 0.4766(4)
H3A H 0.3039 1.1278 0.4338
C4A C 0.4137(2) 1.0509(3) 0.6101(4)
H4A H 0.4376 1.1397 0.6559
C5A C 0.45757(19) 0.9243(3) 0.6758(4)
Cl1A Cl 0.59382(5) 0.41781(6) 1.01191(12)
Cd1D Cd 0.5000 0.41190(2) 0.2500
Cd1D_2 Cd 0.5000 0.41190(2) 1.2500
Cl1D Cl 0.59382(5) 0.58219(6) 0.51191(12)
Cl1E Cl 0.40618(5) 0.58219(6) 0.98809(12)
loop_
_geom_bond_atom_site_label_1
_geom_bond_atom_site_label_2
_geom_bond_site_symmetry_1
_geom_bond_site_symmetry_2
Cd1 Cl1 1_555 1_555
Cl1 Cd1D 1_555 1_555
N1 Cd1 1_555 1_555
C1 N1 1_555 1_555
H1 C1 1_555 1_555
C2 C1 1_555 1_555
H2 C2 1_555 1_555
C3 C2 1_555 1_555
H3 C3 1_555 1_555
C4 C3 1_555 1_555
H4 C4 1_555 1_555
C5 N1 1_555 1_555
N1A Cd1 1_555 1_555
C1A N1A 1_555 1_555
H1A C1A 1_555 1_555
C2A C1A 1_555 1_555
H2A C2A 1_555 1_555
C3A C2A 1_555 1_555
H3A C3A 1_555 1_555
C4A C3A 1_555 1_555
H4A C4A 1_555 1_555
C5A C5 1_555 1_555
Cl1A Cd1 1_555 1_555
Cd1D Cl1D 1_555 1_555
Cd1D_2 Cl1A 1_555 1_555
Cl1D Cd1 1_555 1_555
Cl1E Cd1 1_555 1_555
C4 C5 1_555 1_555
N1A C5A 1_555 1_555
C4A C5A 1_555 1_555
Cd1D_2 Cl1E 1_555 1_555

#END
