
#######################################################################
#
#                 Cambridge Crystallographic Data Centre
#                                CCDC 
#
#######################################################################
#
# If this CIF has been generated from an entry in the Cambridge 
# Structural Database, then it will include bibliographic, chemical, 
# crystal, experimental, refinement or atomic coordinate data resulting 
# from the CCDC's data processing and validation procedures.
#
#######################################################################

data_EKEXEY
_symmetry_cell_setting           monoclinic
_symmetry_space_group_name_H-M   'C 2'
_symmetry_Int_Tables_number      5
_space_group_name_Hall           'C 2y'
loop_
_symmetry_equiv_pos_site_id
_symmetry_equiv_pos_as_xyz
1 x,y,z
2 -x,y,-z
3 1/2+x,1/2+y,z
4 1/2-x,1/2+y,-z
_cell_length_a                   17.4095(19)
_cell_length_b                   12.9460(10)
_cell_length_c                   6.5020(5)
_cell_angle_alpha                90
_cell_angle_beta                 111.889(3)
_cell_angle_gamma                90
_cell_volume                     1359.8
loop_
_atom_site_label
_atom_site_type_symbol
_atom_site_fract_x
_atom_site_fract_y
_atom_site_fract_z
Co1 Co 0.0000 -0.19923(7) 0.0000
O1 O 0.2352(2) 0.5804(3) -0.0295(6)
H1 H 0.187(3) 0.577(7) -0.174(6)
H2 H 0.243(5) 0.656(7) -0.039(15)
O2 O 0.2781(2) 0.4515(3) 0.6052(6)
H3 H 0.3195 0.4800 0.7003
H4 H 0.258(4) 0.398(6) 0.626(10)
O3 O 0.1778(2) 0.6196(3) 0.3415(7)
H5 H 0.209(5) 0.661(7) 0.378(14)
O4 O 0.3406(2) 0.4026(3) 0.2487(6)
H6 H 0.374(4) 0.412(6) 0.154(9)
H7 H 0.293(3) 0.354(5) 0.190(11)
C1 C 0.4268(3) 0.7768(4) 0.4609(8)
C2 C 0.4264(3) 0.8836(4) 0.4598(8)
H8 H 0.3761 0.9201 0.4318
C3 C 0.5000 0.9376(6) 0.5000
C4 C 0.5000 0.7229(5) 0.5000
H9 H 0.5000 0.6495 0.5000
C5 C 0.3491(3) 0.7153(4) 0.4228(7)
C6 C 0.5000 1.0536(6) 0.5000
O5 O 0.3534(2) 0.6189(3) 0.4024(6)
O6 O 0.2851(2) 0.7621(3) 0.4177(6)
O7 O 0.4314(3) 1.0999(3) 0.4369(7)
Co2 Co 0.25834(4) 0.51368(5) 0.28599(10)
O8 O 0.0572(2) -0.2044(3) 0.3510(6)
O9 O 0.0844(3) -0.2950(4) -0.0380(7)
H10 H 0.073(3) -0.326(4) -0.182(10)
H11 H 0.098(5) -0.343(5) 0.091(9)
C7 C 0.0742(3) 0.2690(4) 0.0429(8)
C8 C 0.0731(3) 0.1617(4) 0.0393(8)
H12 H 0.1230 0.1249 0.0639
C9 C 0.0000 0.1075(5) 0.0000
C10 C 0.0000 0.3233(6) 0.0000
H13 H 0.0000 0.3967 0.0000
C11 C 0.1554(3) 0.3253(4) 0.0969(7)
C12 C 0.0000 -0.0053(6) 0.0000
O10 O 0.1574(2) 0.4185(3) 0.1476(6)
O11 O 0.2161(2) 0.2742(3) 0.0895(6)
O12 O 0.0656(2) -0.0564(3) 0.0233(6)
O1A O -0.2352(2) 0.5804(3) 0.0295(6)
H1A H -0.187(3) 0.577(7) 0.174(6)
H2A H -0.243(5) 0.656(7) 0.039(15)
O2A O -0.2781(2) 0.4515(3) -0.6052(6)
H3A H -0.3195 0.4800 -0.7003
H4A H -0.258(4) 0.398(6) -0.626(10)
O3A O -0.1778(2) 0.6196(3) -0.3415(7)
H5A H -0.209(5) 0.661(7) -0.378(14)
O4A O -0.3406(2) 0.4026(3) -0.2487(6)
H6A H -0.374(4) 0.412(6) -0.154(9)
H7A H -0.293(3) 0.354(5) -0.190(11)
C1A C 0.5732(3) 0.7768(4) 0.5391(8)
C2A C 0.5736(3) 0.8836(4) 0.5402(8)
H8A H 0.6239 0.9201 0.5682
C5A C 0.6509(3) 0.7153(4) 0.5772(7)
O5A O 0.6466(2) 0.6189(3) 0.5976(6)
O5A_2 O -0.3534(2) 0.6189(3) -0.4024(6)
O6A O 0.7149(2) 0.7621(3) 0.5823(6)
O7A O 0.5686(3) 1.0999(3) 0.5631(7)
Co2A Co -0.25834(4) 0.51368(5) -0.28599(10)
Co2A_2 Co 0.74166(4) 0.51368(5) 0.71401(10)
O8A O -0.0572(2) -0.2044(3) -0.3510(6)
O9A O -0.0844(3) -0.2950(4) 0.0380(7)
H10A H -0.073(3) -0.326(4) 0.182(10)
H11A H -0.098(5) -0.343(5) -0.091(9)
C7A C -0.0742(3) 0.2690(4) -0.0429(8)
C8A C -0.0731(3) 0.1617(4) -0.0393(8)
H12A H -0.1230 0.1249 -0.0639
C11A C -0.1554(3) 0.3253(4) -0.0969(7)
O10A O -0.1574(2) 0.4185(3) -0.1476(6)
O11A O -0.2161(2) 0.2742(3) -0.0895(6)
O12A O -0.0656(2) -0.0564(3) -0.0233(6)
loop_
_geom_bond_atom_site_label_1
_geom_bond_atom_site_label_2
_geom_bond_site_symmetry_1
_geom_bond_site_symmetry_2
Co1 O8 1_555 1_555
O1 H1 1_555 1_555
H2 O1 1_555 1_555
O2 H3 1_555 1_555
H4 O2 1_555 1_555
O3 H5 1_555 1_555
O4 H6 1_555 1_555
H7 O4 1_555 1_555
C1 C2 1_555 1_555
C2 H8 1_555 1_555
C3 C2 1_555 1_555
C4 C1 1_555 1_555
H9 C4 1_555 1_555
C5 C1 1_555 1_555
C6 C3 1_555 1_555
O5 C5 1_555 1_555
O6 C5 1_555 1_555
O7 C6 1_555 1_555
Co2 O1 1_555 1_555
O9 Co1 1_555 1_555
H10 O9 1_555 1_555
H11 O9 1_555 1_555
C7 C8 1_555 1_555
C8 H12 1_555 1_555
C9 C8 1_555 1_555
C10 C7 1_555 1_555
H13 C10 1_555 1_555
C11 C7 1_555 1_555
C12 C9 1_555 1_555
O10 Co2 1_555 1_555
O11 C11 1_555 1_555
O12 Co1 1_555 1_555
O1A H1A 1_555 1_555
H2A O1A 1_555 1_555
O2A H3A 1_555 1_555
H4A O2A 1_555 1_555
O3A H5A 1_555 1_555
O4A H6A 1_555 1_555
H7A O4A 1_555 1_555
C1A C4 1_555 1_555
C2A C3 1_555 1_555
H8A C2A 1_555 1_555
C5A C1A 1_555 1_555
O5A C5A 1_555 1_555
O5A_2 Co2A 1_555 1_555
O6A C5A 1_555 1_555
O7A C6 1_555 1_555
Co2A O1A 1_555 1_555
Co2A_2 O5A 1_555 1_555
O8A Co1 1_555 1_555
O9A Co1 1_555 1_555
H10A O9A 1_555 1_555
H11A O9A 1_555 1_555
C7A C10 1_555 1_555
C8A C9 1_555 1_555
H12A C8A 1_555 1_555
C11A C7A 1_555 1_555
O10A Co2A 1_555 1_555
O11A C11A 1_555 1_555
O12A Co1 1_555 1_555
O2 Co2 1_555 1_555
O3 Co2 1_555 1_555
O4 Co2 1_555 1_555
O5 Co2 1_555 1_555
C11 O10 1_555 1_555
C12 O12 1_555 1_555
C12 O12A 1_555 1_555
O2A Co2A 1_555 1_555
O3A Co2A 1_555 1_555
O4A Co2A 1_555 1_555
C1A C2A 1_555 1_555
C7A C8A 1_555 1_555
C11A O10A 1_555 1_555

#END
