
#######################################################################
#
#                 Cambridge Crystallographic Data Centre
#                                CCDC 
#
#######################################################################
#
# If this CIF has been generated from an entry in the Cambridge 
# Structural Database, then it will include bibliographic, chemical, 
# crystal, experimental, refinement or atomic coordinate data resulting 
# from the CCDC's data processing and validation procedures.
#
#######################################################################

data_EKEXOI
_symmetry_cell_setting           monoclinic
_symmetry_space_group_name_H-M   'C 2/c'
_symmetry_Int_Tables_number      15
_space_group_name_Hall           '-C 2yn'
loop_
_symmetry_equiv_pos_site_id
_symmetry_equiv_pos_as_xyz
1 x,y,z
2 -x,y,1/2-z
3 1/2+x,1/2+y,z
4 1/2-x,1/2+y,1/2-z
5 -x,-y,-z
6 x,-y,1/2+z
7 1/2-x,1/2-y,-z
8 1/2+x,1/2-y,1/2+z
_cell_length_a                   10.7409(6)
_cell_length_b                   18.8422(12)
_cell_length_c                   5.0778(3)
_cell_angle_alpha                90
_cell_angle_beta                 115.932(2)
_cell_angle_gamma                90
_cell_volume                     924.185
loop_
_atom_site_label
_atom_site_type_symbol
_atom_site_fract_x
_atom_site_fract_y
_atom_site_fract_z
Co1 Co 0.14817(3) 0.051440(16) 0.11957(7)
C1 C 0.0000 0.40356(19) -0.2500
H1 H 0.0000 0.4540 -0.2500
C2 C -0.0940(2) 0.36704(13) -0.4927(5)
C3 C 0.0000 0.25650(19) -0.2500
C4 C -0.0907(2) 0.29337(13) -0.4969(5)
H2 H -0.1502 0.2682 -0.6680
O1 O -0.25686(19) 0.45991(9) -0.6641(4)
O2 O -0.22170(17) 0.39620(9) -0.9977(4)
O3 O 0.07314(19) 0.14678(9) -0.0127(4)
C5 C -0.1978(2) 0.40933(13) -0.7416(5)
C6 C 0.0000 0.17702(19) -0.2500
F1 F 0.0000 0.01298(10) 0.2500
Co1E Co 0.14817(3) -0.051440(16) 0.61957(7)
Co1A Co -0.14817(3) 0.051440(16) 0.38043(7)
Co1D Co -0.14817(3) -0.051440(16) -0.11957(7)
Co1A_2 Co -0.14817(3) 0.051440(16) -0.61957(7)
Co1B Co -0.35183(3) 0.551440(16) -0.88043(7)
Co1G Co -0.35183(3) 0.448560(16) -0.38043(7)
Co1G_2 Co -0.35183(3) 0.448560(16) -1.38043(7)
Co1C Co 0.35183(3) 0.551440(16) 0.38043(7)
Co1F Co 0.35183(3) 0.448560(16) -0.11957(7)
Co1F_2 Co 0.35183(3) 0.448560(16) 0.88043(7)
C2A C 0.0940(2) 0.36704(13) -0.0073(5)
C4A C 0.0907(2) 0.29337(13) -0.0031(5)
H2A H 0.1502 0.2682 0.1680
O1G O 0.24314(19) 0.04009(9) -0.1641(4)
O1F O -0.24314(19) 0.04009(9) -0.3359(4)
O1C O -0.24314(19) -0.04009(9) -0.8359(4)
O1B O 0.24314(19) -0.04009(9) 0.3359(4)
O1A O 0.25686(19) 0.45991(9) 0.1641(4)
O2F O -0.27830(17) 0.10380(9) -1.0023(4)
O2G O 0.27830(17) 0.10380(9) 0.5023(4)
O2A O 0.22170(17) 0.39620(9) 0.4977(4)
O3A O -0.07314(19) 0.14678(9) -0.4873(4)
C5A C 0.1978(2) 0.40933(13) 0.2416(5)
F1D F 0.0000 -0.01298(10) -0.2500
F1_2 F 0.0000 0.01298(10) -0.7500
loop_
_geom_bond_atom_site_label_1
_geom_bond_atom_site_label_2
_geom_bond_site_symmetry_1
_geom_bond_site_symmetry_2
Co1 O3 1_555 1_555
C1 H1 1_555 1_555
C2 C1 1_555 1_555
C3 C4 1_555 1_555
C4 C2 1_555 1_555
H2 C4 1_555 1_555
O1 C5 1_555 1_555
O2 C5 1_555 1_555
O3 C6 1_555 1_555
C5 C2 1_555 1_555
C6 C3 1_555 1_555
F1 Co1 1_555 1_555
Co1E F1 1_555 1_555
Co1A F1 1_555 1_555
Co1D F1 1_555 1_555
Co1A_2 O1F 1_555 1_555
Co1B O1 1_555 1_555
Co1G O1 1_555 1_555
Co1G_2 O2 1_555 1_555
Co1C O1A 1_555 1_555
Co1F O1A 1_555 1_555
Co1F_2 O2A 1_555 1_555
C2A C1 1_555 1_555
C4A C3 1_555 1_555
H2A C4A 1_555 1_555
O1G Co1 1_555 1_555
O1F Co1D 1_555 1_555
O1C Co1A_2 1_555 1_555
O1B Co1 1_555 1_555
O1A C5A 1_555 1_555
O2F Co1A_2 1_555 1_555
O2G Co1 1_555 1_555
O2A C5A 1_555 1_555
O3A C6 1_555 1_555
C5A C2A 1_555 1_555
F1D Co1 1_555 1_555
F1_2 Co1A_2 1_555 1_555
Co1E O1B 1_555 1_555
Co1D F1D 1_555 1_555
Co1A_2 O3A 1_555 1_555
Co1A_2 F1D 1_555 1_555
C2A C4A 1_555 1_555

#END
