
#######################################################################
#
#                 Cambridge Crystallographic Data Centre
#                                CCDC 
#
#######################################################################
#
# If this CIF has been generated from an entry in the Cambridge 
# Structural Database, then it will include bibliographic, chemical, 
# crystal, experimental, refinement or atomic coordinate data resulting 
# from the CCDC's data processing and validation procedures.
#
#######################################################################

data_EKEXIC
_symmetry_cell_setting           monoclinic
_symmetry_space_group_name_H-M   'C 2/c'
_symmetry_Int_Tables_number      15
_space_group_name_Hall           '-C 2yn'
loop_
_symmetry_equiv_pos_site_id
_symmetry_equiv_pos_as_xyz
1 x,y,z
2 -x,y,1/2-z
3 1/2+x,1/2+y,z
4 1/2-x,1/2+y,1/2-z
5 -x,-y,-z
6 x,-y,1/2+z
7 1/2-x,1/2-y,-z
8 1/2+x,1/2-y,1/2+z
_cell_length_a                   10.7409(7)
_cell_length_b                   19.2474(12)
_cell_length_c                   5.2120(3)
_cell_angle_alpha                90
_cell_angle_beta                 115.581(2)
_cell_angle_gamma                90
_cell_volume                     971.879
loop_
_atom_site_label
_atom_site_type_symbol
_atom_site_fract_x
_atom_site_fract_y
_atom_site_fract_z
C1 C 0.5000 0.31863(15) -0.2500
O1 O 0.57679(16) 0.34836(8) -0.0239(3)
Mn1 Mn 0.65184(3) 0.445026(15) 0.12740(6)
O2 O 0.24899(14) 0.04030(8) -0.6624(3)
C2 C 0.30541(19) 0.09151(10) -0.7327(4)
C3 C 0.5000 0.24039(15) -0.2500
C4 C 0.5000 0.09616(15) -0.2500
H1 H 0.5000 0.0468 -0.2500
C5 C 0.4112(2) 0.20433(11) -0.4923(4)
H2 H 0.3534 0.2290 -0.6594
C6 C 0.4076(2) 0.13238(11) -0.4883(4)
F1 F 0.5000 0.48691(9) 0.2500
O3 O 0.28003(14) 0.10692(8) -0.9813(3)
O1A O 0.42321(16) 0.34836(8) -0.4761(3)
Mn1A Mn 0.34816(3) 0.445026(15) -0.62740(6)
Mn1G Mn 0.15184(3) 0.054974(15) -0.37260(6)
Mn1B Mn 0.15184(3) -0.054974(15) -0.87260(6)
Mn1A_2 Mn 0.34816(3) 0.445026(15) 0.37260(6)
Mn1D Mn 0.34816(3) 0.554974(15) -0.12740(6)
Mn1E Mn 0.65184(3) 0.554974(15) 0.62740(6)
Mn1G_2 Mn 0.15184(3) 0.054974(15) -1.37260(6)
Mn1F Mn 0.84816(3) 0.054974(15) -0.12740(6)
Mn1C Mn 0.84816(3) -0.054974(15) 0.37260(6)
Mn1F_2 Mn 0.84816(3) 0.054974(15) 0.87260(6)
O2A O 0.75101(14) 0.04030(8) 0.1624(3)
O2G O 0.74899(14) 0.45970(8) -0.1624(3)
O2B O 0.74899(14) 0.54030(8) 0.3376(3)
O2F O 0.25101(14) 0.45970(8) -0.3376(3)
O2C O 0.25101(14) 0.54030(8) -0.8376(3)
C2A C 0.69459(19) 0.09151(10) 0.2327(4)
C5A C 0.5888(2) 0.20433(11) -0.0077(4)
H2A H 0.6466 0.2290 0.1594
C6A C 0.5924(2) 0.13238(11) -0.0117(4)
F1D F 0.5000 0.51309(9) -0.2500
F1_2 F 0.5000 0.48691(9) -0.7500
O3A O 0.71997(14) 0.10692(8) 0.4813(3)
O3G O 0.78003(14) 0.39308(8) 0.5187(3)
O3F O 0.21997(14) 0.39308(8) -1.0187(3)
loop_
_geom_bond_atom_site_label_1
_geom_bond_atom_site_label_2
_geom_bond_site_symmetry_1
_geom_bond_site_symmetry_2
C1 O1 1_555 1_555
O1 Mn1 1_555 1_555
Mn1 F1 1_555 1_555
O2 C2 1_555 1_555
C2 C6 1_555 1_555
C3 C1 1_555 1_555
C4 H1 1_555 1_555
C5 C3 1_555 1_555
H2 C5 1_555 1_555
C6 C4 1_555 1_555
F1 Mn1A_2 1_555 1_555
O3 C2 1_555 1_555
O1A C1 1_555 1_555
Mn1A O1A 1_555 1_555
Mn1G O2 1_555 1_555
Mn1B O2 1_555 1_555
Mn1D F1 1_555 1_555
Mn1E F1 1_555 1_555
Mn1G_2 O3 1_555 1_555
Mn1F O2A 1_555 1_555
Mn1C O2A 1_555 1_555
Mn1F_2 O3A 1_555 1_555
O2A C2A 1_555 1_555
O2G Mn1 1_555 1_555
O2B Mn1 1_555 1_555
O2F Mn1A 1_555 1_555
O2C Mn1A 1_555 1_555
C2A C6A 1_555 1_555
C5A C3 1_555 1_555
H2A C5A 1_555 1_555
C6A C4 1_555 1_555
F1D Mn1 1_555 1_555
F1_2 Mn1A 1_555 1_555
O3A C2A 1_555 1_555
O3G Mn1 1_555 1_555
O3F Mn1A 1_555 1_555
C5 C6 1_555 1_555
Mn1A F1D 1_555 1_555
Mn1D O2F 1_555 1_555
Mn1D F1D 1_555 1_555
Mn1E O2B 1_555 1_555
C5A C6A 1_555 1_555

#END
