
#######################################################################
#
#                 Cambridge Crystallographic Data Centre
#                                CCDC 
#
#######################################################################
#
# If this CIF has been generated from an entry in the Cambridge 
# Structural Database, then it will include bibliographic, chemical, 
# crystal, experimental, refinement or atomic coordinate data resulting 
# from the CCDC's data processing and validation procedures.
#
#######################################################################

data_EKEXUO
_symmetry_cell_setting           monoclinic
_symmetry_space_group_name_H-M   'C 2'
_symmetry_Int_Tables_number      5
_space_group_name_Hall           'C 2y'
loop_
_symmetry_equiv_pos_site_id
_symmetry_equiv_pos_as_xyz
1 x,y,z
2 -x,y,-z
3 1/2+x,1/2+y,z
4 1/2-x,1/2+y,-z
_cell_length_a                   17.488(2)
_cell_length_b                   12.9304(17)
_cell_length_c                   6.5221(8)
_cell_angle_alpha                90
_cell_angle_beta                 111.523(5)
_cell_angle_gamma                90
_cell_volume                     1371.98
loop_
_atom_site_label
_atom_site_type_symbol
_atom_site_fract_x
_atom_site_fract_y
_atom_site_fract_z
Fe1 Fe 0.0000 0.59664(8) 0.0000
Fe2 Fe 0.25902(4) -0.11979(7) 0.28895(14)
O1 O 0.3547(2) -0.2256(3) 0.4136(8)
O2 O 0.2858(2) -0.3697(3) 0.4194(7)
O3 O 0.4321(3) -0.7089(3) 0.4413(8)
C1 C 0.4271(3) -0.3834(5) 0.4618(10)
C2 C 0.4267(4) -0.4905(5) 0.4628(10)
H1 H 0.3769 -0.5267 0.4385
C3 C 0.5000 -0.5459(7) 0.5000
C4 C 0.5000 -0.3301(7) 0.5000
H2 H 0.5000 -0.2566 0.5000
C5 C 0.3505(4) -0.3219(5) 0.4279(10)
C6 C 0.5000 -0.6613(7) 0.5000
O4 O 0.1569(3) -0.0260(3) 0.1461(8)
O5 O 0.2150(2) 0.1193(3) 0.0882(8)
O6 O 0.0647(2) 0.4487(3) 0.0177(7)
C7 C 0.0740(4) 0.1244(5) 0.0441(10)
C8 C 0.0724(3) 0.2321(5) 0.0382(10)
H3 H 0.1215 0.2697 0.0607
C9 C 0.0000 0.2840(6) 0.0000
C10 C 0.0000 0.0702(7) 0.0000
H4 H 0.0000 -0.0032 0.0000
C11 C 0.1546(3) 0.0681(4) 0.0963(10)
C12 C 0.0000 0.4001(6) 0.0000
O7 O 0.1785(3) -0.2276(3) 0.3476(8)
H5 H 0.143(4) -0.219(6) 0.428(12)
H6 H 0.209(5) -0.291(4) 0.391(13)
O8 O 0.2370(3) -0.1861(3) -0.0315(7)
H7 H 0.248(5) -0.2588(15) -0.030(13)
H8 H 0.191(3) -0.167(5) -0.161(8)
O9 O 0.2780(2) -0.0581(4) 0.6201(7)
H9 H 0.325(4) -0.046(7) 0.753(9)
O10 O 0.3417(3) -0.0063(3) 0.2510(8)
H10 H 0.363(5) -0.034(6) 0.146(9)
H11 H 0.302(4) 0.046(5) 0.186(11)
O11 O -0.0564(3) 0.6002(4) -0.3512(7)
H12 H -0.059(6) 0.648(4) -0.466(9)
H13 H -0.043(6) 0.532(3) -0.385(13)
O12 O -0.0871(3) 0.6902(4) 0.0385(8)
H14 H -0.076(6) 0.734(5) 0.165(8)
H15 H -0.109(6) 0.730(5) -0.095(7)
Fe2A Fe -0.25902(4) -0.11979(7) -0.28895(14)
Fe2A_2 Fe 0.74098(4) -0.11979(7) 0.71105(14)
O1A O 0.6453(2) -0.2256(3) 0.5864(8)
O1A_2 O -0.3547(2) -0.2256(3) -0.4136(8)
O2A O 0.7142(2) -0.3697(3) 0.5806(7)
O3A O 0.5679(3) -0.7089(3) 0.5587(8)
C1A C 0.5729(3) -0.3834(5) 0.5382(10)
C2A C 0.5733(4) -0.4905(5) 0.5372(10)
H1A H 0.6231 -0.5267 0.5615
C5A C 0.6495(4) -0.3219(5) 0.5721(10)
O4A O -0.1569(3) -0.0260(3) -0.1461(8)
O5A O -0.2150(2) 0.1193(3) -0.0882(8)
O6A O -0.0647(2) 0.4487(3) -0.0177(7)
C7A C -0.0740(4) 0.1244(5) -0.0441(10)
C8A C -0.0724(3) 0.2321(5) -0.0382(10)
H3A H -0.1215 0.2697 -0.0607
C11A C -0.1546(3) 0.0681(4) -0.0963(10)
O7A O -0.1785(3) -0.2276(3) -0.3476(8)
H5A H -0.143(4) -0.219(6) -0.428(12)
H6A H -0.209(5) -0.291(4) -0.391(13)
O8A O -0.2370(3) -0.1861(3) 0.0315(7)
H7A H -0.248(5) -0.2588(15) 0.030(13)
H8A H -0.191(3) -0.167(5) 0.161(8)
O9A O -0.2780(2) -0.0581(4) -0.6201(7)
H9A H -0.325(4) -0.046(7) -0.753(9)
O10A O -0.3417(3) -0.0063(3) -0.2510(8)
H10A H -0.363(5) -0.034(6) -0.146(9)
H11A H -0.302(4) 0.046(5) -0.186(11)
O11A O 0.0564(3) 0.6002(4) 0.3512(7)
H12A H 0.059(6) 0.648(4) 0.466(9)
H13A H 0.043(6) 0.532(3) 0.385(13)
O12A O 0.0871(3) 0.6902(4) -0.0385(8)
H14A H 0.076(6) 0.734(5) -0.165(8)
H15A H 0.109(6) 0.730(5) 0.095(7)
loop_
_geom_bond_atom_site_label_1
_geom_bond_atom_site_label_2
_geom_bond_site_symmetry_1
_geom_bond_site_symmetry_2
Fe1 O6 1_555 1_555
Fe2 O1 1_555 1_555
O1 C5 1_555 1_555
O2 C5 1_555 1_555
O3 C6 1_555 1_555
C1 C2 1_555 1_555
C2 H1 1_555 1_555
C3 C2 1_555 1_555
C4 C1 1_555 1_555
H2 C4 1_555 1_555
C5 C1 1_555 1_555
C6 C3 1_555 1_555
O4 Fe2 1_555 1_555
O5 C11 1_555 1_555
O6 C12 1_555 1_555
C7 C8 1_555 1_555
C8 H3 1_555 1_555
C9 C8 1_555 1_555
C10 C7 1_555 1_555
H4 C10 1_555 1_555
C11 O4 1_555 1_555
C12 C9 1_555 1_555
O7 Fe2 1_555 1_555
H5 O7 1_555 1_555
H6 O7 1_555 1_555
O8 Fe2 1_555 1_555
H7 O8 1_555 1_555
H8 O8 1_555 1_555
O9 Fe2 1_555 1_555
H9 O9 1_555 1_555
O10 Fe2 1_555 1_555
H10 O10 1_555 1_555
H11 O10 1_555 1_555
O11 Fe1 1_555 1_555
H12 O11 1_555 1_555
H13 O11 1_555 1_555
O12 Fe1 1_555 1_555
H14 O12 1_555 1_555
H15 O12 1_555 1_555
Fe2A O1A_2 1_555 1_555
Fe2A_2 O1A 1_555 1_555
O1A C5A 1_555 1_555
O2A C5A 1_555 1_555
O3A C6 1_555 1_555
C1A C4 1_555 1_555
C2A C3 1_555 1_555
H1A C2A 1_555 1_555
C5A C1A 1_555 1_555
O4A Fe2A 1_555 1_555
O5A C11A 1_555 1_555
O6A Fe1 1_555 1_555
C7A C10 1_555 1_555
C8A C9 1_555 1_555
H3A C8A 1_555 1_555
C11A O4A 1_555 1_555
O7A Fe2A 1_555 1_555
H5A O7A 1_555 1_555
H6A O7A 1_555 1_555
O8A Fe2A 1_555 1_555
H7A O8A 1_555 1_555
H8A O8A 1_555 1_555
O9A Fe2A 1_555 1_555
H9A O9A 1_555 1_555
O10A Fe2A 1_555 1_555
H10A O10A 1_555 1_555
H11A O10A 1_555 1_555
O11A Fe1 1_555 1_555
H12A O11A 1_555 1_555
H13A O11A 1_555 1_555
O12A Fe1 1_555 1_555
H14A O12A 1_555 1_555
H15A O12A 1_555 1_555
C7 C11 1_555 1_555
C12 O6A 1_555 1_555
C1A C2A 1_555 1_555
C7A C8A 1_555 1_555
C7A C11A 1_555 1_555

#END
