
#######################################################################
#
#                 Cambridge Crystallographic Data Centre
#                                CCDC 
#
#######################################################################
#
# If this CIF has been generated from an entry in the Cambridge 
# Structural Database, then it will include bibliographic, chemical, 
# crystal, experimental, refinement or atomic coordinate data resulting 
# from the CCDC's data processing and validation procedures.
#
#######################################################################

data_EKEYOJ
_symmetry_cell_setting           trigonal
_symmetry_space_group_name_H-M   'P 31 2 1'
_symmetry_Int_Tables_number      152
_space_group_name_Hall           'P 31 2"'
loop_
_symmetry_equiv_pos_site_id
_symmetry_equiv_pos_as_xyz
1 x,y,z
2 -y,x-y,1/3+z
3 -x+y,-x,2/3+z
4 y,x,-z
5 x-y,-y,2/3-z
6 -x,-x+y,1/3-z
_cell_length_a                   14.3159(4)
_cell_length_b                   14.3159(4)
_cell_length_c                   19.4452(11)
_cell_angle_alpha                90
_cell_angle_beta                 90
_cell_angle_gamma                120
_cell_volume                     3451.28
loop_
_atom_site_label
_atom_site_type_symbol
_atom_site_fract_x
_atom_site_fract_y
_atom_site_fract_z
Cu1 Cu -0.25345(5) 0.0000 -0.1667
O1 O 0.2665(3) -0.4131(4) -0.0126(2)
O2 O -0.2292(4) -0.4838(4) -0.1383(3)
N1 N 0.5899(3) -0.1111(3) -0.1484(2)
N2 N -0.2070(3) -0.1091(3) -0.1433(2)
N3 N 0.2637(3) -0.3248(4) -0.1098(2)
H1 H 0.2209 -0.3200 -0.1388
N4 N -0.1009(3) -0.3248(3) -0.0928(2)
H2 H -0.0425 -0.2959 -0.0689
C1 C 0.5585(4) -0.1686(4) -0.0905(3)
H3 H 0.6116 -0.1588 -0.0591
C2 C 0.4542(4) -0.2406(4) -0.0739(2)
H4 H 0.4371 -0.2776 -0.0323
C3 C 0.3740(4) -0.2573(4) -0.1208(2)
C4 C 0.4035(4) -0.2017(5) -0.1825(3)
H5 H 0.3521 -0.2125 -0.2156
C5 C 0.5127(4) -0.1288(5) -0.1937(3)
H6 H 0.5327 -0.0906 -0.2349
C6 C -0.2574(4) -0.2087(5) -0.1688(3)
H7 H -1.0875 0.2274 -0.1346
C7 C -0.2299(4) -0.2859(4) -0.1537(3)
H8 H -0.9136 0.3552 -0.1616
C8 C -0.1415(4) -0.2565(4) -0.1103(2)
C9 C -0.9350(5) 0.1546(4) -0.2489(3)
H9 H -0.8981 0.1331 -0.2783
C10 C -1.0410(4) 0.0830(4) -0.2315(3)
H10 H -1.0738 0.0136 -0.2497
C11 C 0.0964(4) -0.4610(4) -0.0591(3)
C12 C 0.0350(4) -0.4166(4) -0.0836(3)
H11 H 0.0693 -0.3457 -0.0991
C13 C -0.0761(4) -0.4777(4) -0.0849(3)
C14 C -0.1258(4) -0.5829(4) -0.0632(3)
H12 H -0.2004 -0.6251 -0.0662
C15 C -0.0676(5) -0.6270(4) -0.0373(4)
H13 H -0.1027 -0.6980 -0.0220
C16 C 0.0447(4) -0.5649(4) -0.0341(3)
H14 H 0.0845 -0.5936 -0.0150
C17 C 0.2164(4) -0.3979(4) -0.0575(3)
C18 C -0.1426(4) -0.4311(4) -0.1088(3)
Cl1 Cl -0.21317(11) 0.07224(9) -0.02766(6)
Cu1_2 Cu 0.74655(5) 0.0000 -0.1667
Cu1_3 Cu -1.25345(5) 0.0000 -0.1667
O1D O -0.3204(5) 0.4131(4) -0.3207(2)
O2D O -0.7454(6) 0.4838(4) -0.1950(3)
N1_2 N -0.4101(3) -0.1111(3) -0.1484(2)
N1D N -0.2990(4) 0.1111(3) -0.1849(2)
N2D N -1.0979(4) 0.1091(3) -0.1900(2)
N2D_2 N -0.0979(4) 0.1091(3) -0.1900(2)
N3D N -0.4115(5) 0.3248(4) -0.2235(2)
H1D H -0.4591 0.3200 -0.1945
N4D N -0.7761(4) 0.3248(3) -0.2405(2)
H2D H -0.7466 0.2959 -0.2644
C1D C -0.2729(6) 0.1686(4) -0.2428(3)
H3D H -0.2296 0.1588 -0.2742
C2D C -0.3052(6) 0.2406(4) -0.2594(2)
H4D H -0.2853 0.2776 -0.3010
C3D C -0.3687(6) 0.2573(4) -0.2125(2)
C4D C -0.3948(6) 0.2017(5) -0.1508(3)
H5D H -0.4354 0.2125 -0.1177
C5D C -0.3585(6) 0.1288(5) -0.1396(3)
H6D H -0.3767 0.0906 -0.0984
C6D C -1.0487(6) 0.2087(5) -0.1645(3)
H7D H -0.3149 -0.2274 -0.1987
C7D C -0.9440(6) 0.2859(4) -0.1796(3)
H8D H -0.2688 -0.3552 -0.1717
C8D C -0.8850(6) 0.2565(4) -0.2230(2)
C9D C -0.0896(6) -0.1546(4) -0.0844(3)
H9D H -0.0312 -0.1331 -0.0550
C10D C -0.1240(6) -0.0830(4) -0.1018(3)
H10D H -0.0874 -0.0136 -0.0836
C11D C -0.4426(6) 0.4610(4) -0.2742(3)
C12D C -0.5484(6) 0.4166(4) -0.2497(3)
H11D H -0.5850 0.3457 -0.2342
C13D C -0.5984(6) 0.4777(4) -0.2484(3)
C14D C -0.5429(6) 0.5829(4) -0.2701(3)
H12D H -0.5753 0.6251 -0.2671
C15D C -0.4406(6) 0.6270(4) -0.2960(4)
H13D H -0.4047 0.6980 -0.3113
C16D C -0.3904(6) 0.5649(4) -0.2992(3)
H14D H -0.3219 0.5936 -0.3183
C17D C -0.3857(6) 0.3979(4) -0.2758(3)
C18D C -0.7115(6) 0.4311(4) -0.2245(3)
Cl1D Cl -0.28541(14) -0.07224(9) -0.30567(6)
O3 O 0.6609(12) -0.8637(12) -0.7718(7)
loop_
_geom_bond_atom_site_label_1
_geom_bond_atom_site_label_2
_geom_bond_site_symmetry_1
_geom_bond_site_symmetry_2
Cu1 N2 1_555 1_555
O1 C17 1_555 1_555
O2 C18 1_555 1_555
N1 C1 1_555 1_555
N2 C6 1_555 1_555
N3 H1 1_555 1_555
N4 H2 1_555 1_555
C1 H3 1_555 1_555
C2 C1 1_555 1_555
H4 C2 1_555 1_555
C3 N3 1_555 1_555
C4 C3 1_555 1_555
H5 C4 1_555 1_555
C5 N1 1_555 1_555
H6 C5 1_555 1_555
C6 C7 1_555 1_555
H7 C6D 1_555 1_555
C7 C8 1_555 1_555
H8 C7D 1_555 1_555
C8 N4 1_555 1_555
C9 H9 1_555 1_555
C10 C9 1_555 1_555
H10 C10 1_555 1_555
C11 C12 1_555 1_555
C12 H11 1_555 1_555
C13 C12 1_555 1_555
C14 C13 1_555 1_555
H12 C14 1_555 1_555
C15 C14 1_555 1_555
H13 C15 1_555 1_555
C16 C11 1_555 1_555
H14 C16 1_555 1_555
C17 N3 1_555 1_555
C18 N4 1_555 1_555
Cl1 Cu1 1_555 1_555
Cu1_2 N1 1_555 1_555
Cu1_3 N2D 1_555 1_555
O1D C17D 1_555 1_555
O2D C18D 1_555 1_555
N1_2 Cu1 1_555 1_555
N1D Cu1 1_555 1_555
N2D C10 1_555 1_555
N2D_2 Cu1 1_555 1_555
N3D H1D 1_555 1_555
N4D H2D 1_555 1_555
C1D N1D 1_555 1_555
H3D C1D 1_555 1_555
C2D C1D 1_555 1_555
H4D C2D 1_555 1_555
C3D N3D 1_555 1_555
C4D C3D 1_555 1_555
H5D C4D 1_555 1_555
C5D N1D 1_555 1_555
H6D C5D 1_555 1_555
C6D N2D 1_555 1_555
H7D C6 1_555 1_555
C7D C6D 1_555 1_555
H8D C7 1_555 1_555
C8D C9 1_555 1_555
C9D C8 1_555 1_555
H9D C9D 1_555 1_555
C10D N2 1_555 1_555
H10D C10D 1_555 1_555
C11D C12D 1_555 1_555
C12D H11D 1_555 1_555
C13D C12D 1_555 1_555
C14D C13D 1_555 1_555
H12D C14D 1_555 1_555
C15D C14D 1_555 1_555
H13D C15D 1_555 1_555
C16D C11D 1_555 1_555
H14D C16D 1_555 1_555
C17D N3D 1_555 1_555
C18D N4D 1_555 1_555
Cl1D Cu1 1_555 1_555
C2 C3 1_555 1_555
C4 C5 1_555 1_555
C11 C17 1_555 1_555
C13 C18 1_555 1_555
C15 C16 1_555 1_555
N4D C8D 1_555 1_555
C2D C3D 1_555 1_555
C4D C5D 1_555 1_555
C7D C8D 1_555 1_555
C9D C10D 1_555 1_555
C11D C17D 1_555 1_555
C13D C18D 1_555 1_555
C15D C16D 1_555 1_555

#END
