
#######################################################################
#
#                 Cambridge Crystallographic Data Centre
#                                CCDC 
#
#######################################################################
#
# If this CIF has been generated from an entry in the Cambridge 
# Structural Database, then it will include bibliographic, chemical, 
# crystal, experimental, refinement or atomic coordinate data resulting 
# from the CCDC's data processing and validation procedures.
#
#######################################################################

data_EKEYEZ
_symmetry_cell_setting           trigonal
_symmetry_space_group_name_H-M   'P 32 2 1'
_symmetry_Int_Tables_number      154
_space_group_name_Hall           'P 32 2"'
loop_
_symmetry_equiv_pos_site_id
_symmetry_equiv_pos_as_xyz
1 x,y,z
2 -y,x-y,2/3+z
3 -x+y,-x,1/3+z
4 y,x,-z
5 x-y,-y,1/3-z
6 -x,-x+y,2/3-z
_cell_length_a                   14.4083(3)
_cell_length_b                   14.4083(3)
_cell_length_c                   18.9964(8)
_cell_angle_alpha                90
_cell_angle_beta                 90
_cell_angle_gamma                120
_cell_volume                     3415.29
loop_
_atom_site_label
_atom_site_type_symbol
_atom_site_fract_x
_atom_site_fract_y
_atom_site_fract_z
Ni1 Ni 0.25470(5) 0.0000 0.1667
Cl1 Cl 0.22268(10) -0.06133(9) 0.04191(5)
N1 N 0.4161(3) 0.1146(3) 0.1469(2)
C1 C 0.9697(4) 0.4220(4) 0.0797(3)
H1 H 0.9359 0.3504 0.0934
C2 C 0.6319(4) 0.2618(4) 0.1190(2)
N2 N 1.2065(3) 0.1120(3) 0.1422(2)
O1 O 1.2330(4) 0.4891(3) 0.1351(3)
C3 C 0.9083(4) 0.4668(4) 0.0567(2)
O2 O 0.7389(3) 0.4243(4) 0.0125(2)
N3 N 0.7418(3) 0.3285(3) 0.1060(2)
H2 H 0.7845 0.3196 0.1332
C4 C 1.1430(4) 0.2619(4) 0.1079(2)
C5 C 0.7895(4) 0.4057(4) 0.0555(3)
N4 N 1.1061(3) 0.3306(3) 0.0885(2)
H3 H 1.0495 0.3030 0.0627
C6 C 1.1483(4) 0.4368(4) 0.1051(3)
C7 C 0.6031(4) 0.1997(5) 0.1786(3)
H4 H 0.6549 0.2054 0.2103
C8 C 1.2336(4) 0.2896(4) 0.1496(3)
H5 H 1.2756 0.3594 0.1659
C9 C 1.2593(4) 0.2136(4) 0.1659(3)
H6 H 1.3174 0.2329 0.1957
C10 C 0.4475(4) 0.1789(4) 0.0897(2)
H7 H 0.3944 0.1733 0.0593
C11 C 1.1310(4) 0.5898(4) 0.0605(3)
H8 H 1.2051 0.6318 0.0636
C12 C 0.4942(4) 0.1276(5) 0.1910(3)
H9 H 0.4752 0.0868 0.2319
C13 C 1.0726(5) 0.6329(4) 0.0348(3)
H10 H 1.1073 0.7035 0.0191
C14 C 1.0885(5) 0.1584(4) 0.0837(3)
H11 H 1.0287 0.1362 0.0550
C15 C 1.0802(4) 0.4830(4) 0.0821(3)
C16 C 0.9609(4) 0.5718(4) 0.0319(3)
H12 H 0.9217 0.6013 0.0133
C17 C 1.1223(4) 0.0867(4) 0.1018(3)
H13 H 1.0836 0.0171 0.0846
C18 C 0.5507(4) 0.2512(4) 0.0733(2)
H14 H 0.5672 0.2926 0.0328
Ni1_2 Ni 1.25470(5) 0.0000 0.1667
Ni1_3 Ni -0.74530(5) 0.0000 0.1667
Cl1D Cl 0.28401(13) 0.06133(9) 0.29142(5)
N1_2 N -0.5839(3) 0.1146(3) 0.1469(2)
N1D N 0.3015(4) -0.1146(3) 0.1864(2)
C1_2 C -0.0303(4) 0.4220(4) 0.0797(3)
H1_2 H -0.0641 0.3504 0.0934
C2_2 C -0.3681(4) 0.2618(4) 0.1190(2)
N2_2 N 0.2065(3) 0.1120(3) 0.1422(2)
N2D N 0.0945(4) -0.1120(3) 0.1911(2)
O1_2 O 0.2330(4) 0.4891(3) 0.1351(3)
C3_2 C -0.0917(4) 0.4668(4) 0.0567(2)
O2_2 O -0.2611(3) 0.4243(4) 0.0125(2)
N3_2 N -0.2582(3) 0.3285(3) 0.1060(2)
H2_2 H -0.2155 0.3196 0.1332
C4_2 C 0.1430(4) 0.2619(4) 0.1079(2)
C5_2 C -0.2105(4) 0.4057(4) 0.0555(3)
N4_2 N 0.1061(3) 0.3306(3) 0.0885(2)
H3_2 H 0.0495 0.3030 0.0627
C6_2 C 0.1483(4) 0.4368(4) 0.1051(3)
C7_2 C -0.3969(4) 0.1997(5) 0.1786(3)
H4_2 H -0.3451 0.2054 0.2103
C8_2 C 0.2336(4) 0.2896(4) 0.1496(3)
H5_2 H 0.2756 0.3594 0.1659
C9_2 C 0.2593(4) 0.2136(4) 0.1659(3)
H6_2 H 0.3174 0.2329 0.1957
C10_2 C -0.5525(4) 0.1789(4) 0.0897(2)
H7_2 H -0.6056 0.1733 0.0593
C11_2 C 0.1310(4) 0.5898(4) 0.0605(3)
H8_2 H 0.2051 0.6318 0.0636
C12_2 C -0.5058(4) 0.1276(5) 0.1910(3)
H9_2 H -0.5248 0.0868 0.2319
C13_2 C 0.0726(5) 0.6329(4) 0.0348(3)
H10_2 H 0.1073 0.7035 0.0191
C14_2 C 0.0885(5) 0.1584(4) 0.0837(3)
H11_2 H 0.0287 0.1362 0.0550
C15_2 C 0.0802(4) 0.4830(4) 0.0821(3)
C16_2 C -0.0391(4) 0.5718(4) 0.0319(3)
H12_2 H -0.0783 0.6013 0.0133
C17_2 C 0.1223(4) 0.0867(4) 0.1018(3)
H13_2 H 0.0836 0.0171 0.0846
C18_2 C -0.4493(4) 0.2512(4) 0.0733(2)
H14_2 H -0.4328 0.2926 0.0328
O3 O 0.8711(10) 0.3327(15) 0.2257(6)
loop_
_geom_bond_atom_site_label_1
_geom_bond_atom_site_label_2
_geom_bond_site_symmetry_1
_geom_bond_site_symmetry_2
Ni1 Cl1 1_555 1_555
N1 Ni1 1_555 1_555
C1 H1 1_555 1_555
C2 N3 1_555 1_555
N2 C9 1_555 1_555
O1 C6 1_555 1_555
C3 C1 1_555 1_555
O2 C5 1_555 1_555
N3 H2 1_555 1_555
C4 N4 1_555 1_555
C5 C3 1_555 1_555
N4 H3 1_555 1_555
C6 N4 1_555 1_555
C7 C2 1_555 1_555
H4 C7 1_555 1_555
C8 C4 1_555 1_555
H5 C8 1_555 1_555
C9 C8 1_555 1_555
H6 C9 1_555 1_555
C10 N1 1_555 1_555
H7 C10 1_555 1_555
C11 H8 1_555 1_555
C12 N1 1_555 1_555
H9 C12 1_555 1_555
C13 C11 1_555 1_555
H10 C13 1_555 1_555
C14 C4 1_555 1_555
H11 C14 1_555 1_555
C15 C1 1_555 1_555
C16 C3 1_555 1_555
H12 C16 1_555 1_555
C17 N2 1_555 1_555
H13 C17 1_555 1_555
C18 C2 1_555 1_555
H14 C18 1_555 1_555
Ni1_2 N2 1_555 1_555
Ni1_3 N1_2 1_555 1_555
Cl1D Ni1 1_555 1_555
N1_2 C10_2 1_555 1_555
N1D Ni1 1_555 1_555
C1_2 H1_2 1_555 1_555
C2_2 N3_2 1_555 1_555
N2_2 Ni1 1_555 1_555
N2D Ni1 1_555 1_555
O1_2 C6_2 1_555 1_555
C3_2 C1_2 1_555 1_555
O2_2 C5_2 1_555 1_555
N3_2 H2_2 1_555 1_555
C4_2 N4_2 1_555 1_555
C5_2 C3_2 1_555 1_555
N4_2 H3_2 1_555 1_555
C6_2 N4_2 1_555 1_555
C7_2 C2_2 1_555 1_555
H4_2 C7_2 1_555 1_555
C8_2 C4_2 1_555 1_555
H5_2 C8_2 1_555 1_555
C9_2 N2_2 1_555 1_555
H6_2 C9_2 1_555 1_555
C10_2 H7_2 1_555 1_555
C11_2 H8_2 1_555 1_555
C12_2 N1_2 1_555 1_555
H9_2 C12_2 1_555 1_555
C13_2 C11_2 1_555 1_555
H10_2 C13_2 1_555 1_555
C14_2 C4_2 1_555 1_555
H11_2 C14_2 1_555 1_555
C15_2 C1_2 1_555 1_555
C16_2 C3_2 1_555 1_555
H12_2 C16_2 1_555 1_555
C17_2 N2_2 1_555 1_555
H13_2 C17_2 1_555 1_555
C18_2 C2_2 1_555 1_555
H14_2 C18_2 1_555 1_555
N3 C5 1_555 1_555
C6 C15 1_555 1_555
C7 C12 1_555 1_555
C10 C18 1_555 1_555
C11 C15 1_555 1_555
C13 C16 1_555 1_555
C14 C17 1_555 1_555
N3_2 C5_2 1_555 1_555
C6_2 C15_2 1_555 1_555
C7_2 C12_2 1_555 1_555
C8_2 C9_2 1_555 1_555
C10_2 C18_2 1_555 1_555
C11_2 C15_2 1_555 1_555
C13_2 C16_2 1_555 1_555
C14_2 C17_2 1_555 1_555

#END
