
#######################################################################
#
#                 Cambridge Crystallographic Data Centre
#                                CCDC 
#
#######################################################################
#
# If this CIF has been generated from an entry in the Cambridge 
# Structural Database, then it will include bibliographic, chemical, 
# crystal, experimental, refinement or atomic coordinate data resulting 
# from the CCDC's data processing and validation procedures.
#
#######################################################################

data_EKIDIM
_symmetry_cell_setting           monoclinic
_symmetry_space_group_name_H-M   'P 21/n'
_symmetry_Int_Tables_number      14
_space_group_name_Hall           '-P 2yn'
loop_
_symmetry_equiv_pos_site_id
_symmetry_equiv_pos_as_xyz
1 x,y,z
2 1/2-x,1/2+y,1/2-z
3 -x,-y,-z
4 1/2+x,1/2-y,1/2+z
_cell_length_a                   9.227(2)
_cell_length_b                   9.410(3)
_cell_length_c                   18.402(5)
_cell_angle_alpha                90
_cell_angle_beta                 100.620(3)
_cell_angle_gamma                90
_cell_volume                     1570.41
loop_
_atom_site_label
_atom_site_type_symbol
_atom_site_fract_x
_atom_site_fract_y
_atom_site_fract_z
H1 H 0.518(5) 0.669(4) 0.5396(15)
H2 H 0.442(5) 0.658(4) 0.4691(17)
O1 O 0.4855(3) 0.7178(4) 0.5009(2)
H3 H -0.334(3) 0.775(4) 0.473(2)
H4 H -0.279(4) 0.838(5) 0.4167(13)
H5 H 0.227(4) 0.961(2) 0.498(3)
H6 H 0.304(4) 0.834(4) 0.506(3)
Eu1 Eu 0.004517(18) 0.72536(2) 0.501948(9)
S1 S -0.21307(11) 0.50596(9) 0.61151(6)
O2 O -0.2581(3) 0.8098(3) 0.46014(18)
O3 O -0.1503(3) 0.6345(3) 0.58614(15)
O4 O 0.2261(3) 0.8761(3) 0.50849(18)
O5 O -0.3736(3) 0.5122(3) 0.60005(18)
O6 O -0.1633(3) 0.3756(3) 0.58098(15)
O7 O 0.1941(3) 0.6739(3) 0.61356(15)
O8 O 0.1174(3) 0.4757(3) 0.55772(15)
O9 O 0.4605(3) 0.6380(3) 0.88701(14)
O10 O 0.5341(3) 0.4244(3) 0.92861(14)
C1 C -0.1493(5) 0.4997(4) 0.7086(2)
C2 C -0.2040(5) 0.6012(5) 0.7509(3)
H7 H -0.2701 0.6697 0.7286
C3 C -0.1591(6) 0.5994(5) 0.8268(3)
H8 H -0.1960 0.6658 0.8561
C4 C -0.0586(6) 0.4981(4) 0.8588(3)
H9 H -0.0274 0.4974 0.9098
C5 C -0.0047(5) 0.3991(5) 0.8166(2)
H10 H 0.0630 0.3319 0.8389
C6 C -0.0511(4) 0.3987(4) 0.7402(2)
H11 H -0.0159 0.3307 0.7111
C7 C 0.1969(4) 0.5433(4) 0.6114(2)
C8 C 0.2950(5) 0.4566(4) 0.6706(2)
H12 H 0.3830 0.4286 0.6524
H13 H 0.2432 0.3707 0.6798
C9 C 0.3404(5) 0.5374(4) 0.7434(2)
H14 H 0.3962 0.6213 0.7351
H15 H 0.2530 0.5680 0.7614
C10 C 0.4338(5) 0.4432(4) 0.8011(2)
H16 H 0.3796 0.3562 0.8054
H17 H 0.5228 0.4175 0.7832
C11 C 0.4778(4) 0.5066(4) 0.8771(2)
Eu1B Eu -0.004517(18) 0.27464(2) 0.498052(9)
Eu1C Eu 0.504517(18) 0.77464(2) 1.001948(9)
Eu1A Eu 0.495483(18) 0.22536(2) 0.998052(9)
O6B O 0.1633(3) 0.6244(3) 0.41902(15)
O8B O -0.1174(3) 0.5243(3) 0.44228(15)
O9C O -0.0395(3) 0.8620(3) 0.38701(14)
O10A O -0.0341(3) 0.9244(3) 0.57139(14)
loop_
_geom_bond_atom_site_label_1
_geom_bond_atom_site_label_2
_geom_bond_site_symmetry_1
_geom_bond_site_symmetry_2
H1 O1 1_555 1_555
H2 O1 1_555 1_555
H3 O2 1_555 1_555
H4 O2 1_555 1_555
H5 O4 1_555 1_555
H6 O4 1_555 1_555
Eu1 O2 1_555 1_555
S1 O3 1_555 1_555
O3 Eu1 1_555 1_555
O4 Eu1 1_555 1_555
O5 S1 1_555 1_555
O6 S1 1_555 1_555
O7 Eu1 1_555 1_555
O8 Eu1 1_555 1_555
O9 C11 1_555 1_555
O10 C11 1_555 1_555
C1 S1 1_555 1_555
C2 C1 1_555 1_555
H7 C2 1_555 1_555
C3 C2 1_555 1_555
H8 C3 1_555 1_555
C4 C3 1_555 1_555
H9 C4 1_555 1_555
C5 C4 1_555 1_555
H10 C5 1_555 1_555
C6 C1 1_555 1_555
H11 C6 1_555 1_555
C7 O7 1_555 1_555
C8 C7 1_555 1_555
H12 C8 1_555 1_555
H13 C8 1_555 1_555
C9 C8 1_555 1_555
H14 C9 1_555 1_555
H15 C9 1_555 1_555
C10 C9 1_555 1_555
H16 C10 1_555 1_555
H17 C10 1_555 1_555
C11 C10 1_555 1_555
Eu1B O6 1_555 1_555
Eu1C O9 1_555 1_555
Eu1A O10 1_555 1_555
O6B Eu1 1_555 1_555
O8B Eu1 1_555 1_555
O9C Eu1 1_555 1_555
O10A Eu1 1_555 1_555
O8 C7 1_555 1_555
O8 Eu1B 1_555 1_555
C5 C6 1_555 1_555
Eu1B O8B 1_555 1_555

#END
