
#######################################################################
#
#                 Cambridge Crystallographic Data Centre
#                                CCDC 
#
#######################################################################
#
# If this CIF has been generated from an entry in the Cambridge 
# Structural Database, then it will include bibliographic, chemical, 
# crystal, experimental, refinement or atomic coordinate data resulting 
# from the CCDC's data processing and validation procedures.
#
#######################################################################

data_EKIDOS
_symmetry_cell_setting           monoclinic
_symmetry_space_group_name_H-M   'P 21/n'
_symmetry_Int_Tables_number      14
_space_group_name_Hall           '-P 2yn'
loop_
_symmetry_equiv_pos_site_id
_symmetry_equiv_pos_as_xyz
1 x,y,z
2 1/2-x,1/2+y,1/2-z
3 -x,-y,-z
4 1/2+x,1/2-y,1/2+z
_cell_length_a                   9.220(3)
_cell_length_b                   9.425(4)
_cell_length_c                   18.441(7)
_cell_angle_alpha                90
_cell_angle_beta                 100.636(5)
_cell_angle_gamma                90
_cell_volume                     1574.96
loop_
_atom_site_label
_atom_site_type_symbol
_atom_site_fract_x
_atom_site_fract_y
_atom_site_fract_z
H1 H 0.479(8) 0.334(5) 0.962(2)
H2 H 0.550(7) 0.339(4) 1.0336(18)
O5 O 0.5136(4) 0.2829(5) 0.9993(2)
H3 H 1.305(5) 0.142(9) 0.076(4)
H4 H 0.688(3) 0.151(5) -0.010(3)
Sm1 Sm 0.99498(2) 0.27452(3) -0.001811(10)
S1 S 0.78713(16) 0.50670(11) 0.11165(7)
O1 O 1.2591(4) 0.1889(4) 0.0402(2)
H5 H 1.3147 0.2353 0.0195
O2 O 0.8378(4) 0.3761(4) 0.08149(18)
O3 O 0.7726(4) 0.1242(4) -0.0083(2)
H6 H 0.7956 0.0488 0.0130
O4 O 0.6264(5) 0.5123(3) 0.1003(2)
O6 O 0.8050(4) 0.3263(3) -0.11350(17)
O7 O 0.4674(4) 0.5749(3) -0.42820(15)
C1 C 0.8495(7) 0.5010(4) 0.2088(3)
C2 C 0.9488(6) 0.3993(5) 0.2404(3)
H7 H 0.9838 0.3314 0.2113
C3 C 0.9953(6) 0.4002(6) 0.3161(3)
H8 H 1.0643 0.3340 0.3382
C4 C 0.9404(9) 0.4980(5) 0.3588(4)
H9 H 0.9702 0.4959 0.4098
C5 C 0.8412(8) 0.5995(7) 0.3269(3)
H10 H 0.8051 0.6662 0.3563
C6 C 0.7953(7) 0.6021(6) 0.2507(3)
H11 H 0.7294 0.6708 0.2284
C7 C 0.8023(5) 0.4572(6) -0.1112(2)
C8 C 0.7044(6) 0.5432(6) -0.1707(2)
H12 H 0.7567 0.6285 -0.1802
H13 H 0.6166 0.5721 -0.1526
C9 C 0.6579(7) 0.4625(6) -0.2431(2)
H14 H 0.7449 0.4304 -0.2609
H15 H 0.6007 0.3797 -0.2347
C10 C 0.5665(6) 0.5568(6) -0.3006(2)
H16 H 0.4774 0.5835 -0.2831
H17 H 0.6218 0.6430 -0.3048
C11 C 0.5227(6) 0.4927(4) -0.3767(3)
O8 O 0.8498(4) 0.6349(4) 0.08637(18)
O9 O 0.8814(4) 0.5233(3) -0.05823(18)
O10 O 0.5400(4) 0.3627(4) -0.38621(16)
Sm1A Sm 0.50502(2) 0.77452(3) -0.498189(10)
Sm1B Sm 1.00502(2) 0.72548(3) 0.001811(10)
Sm1C Sm 0.49498(2) 0.22548(3) -0.501811(10)
O7A O 1.0326(4) 0.0749(3) -0.07180(15)
O8B O 1.1502(4) 0.3651(4) -0.08637(18)
O9B O 1.1186(4) 0.4767(3) 0.05823(18)
O10C O 1.0400(4) 0.1373(4) 0.11379(16)
loop_
_geom_bond_atom_site_label_1
_geom_bond_atom_site_label_2
_geom_bond_site_symmetry_1
_geom_bond_site_symmetry_2
H1 O5 1_555 1_555
H2 O5 1_555 1_555
H3 O1 1_555 1_555
H4 O3 1_555 1_555
Sm1 O1 1_555 1_555
S1 O2 1_555 1_555
O1 H5 1_555 1_555
O2 Sm1 1_555 1_555
O3 Sm1 1_555 1_555
H6 O3 1_555 1_555
O4 S1 1_555 1_555
O6 Sm1 1_555 1_555
O7 C11 1_555 1_555
C1 S1 1_555 1_555
C2 C1 1_555 1_555
H7 C2 1_555 1_555
C3 C2 1_555 1_555
H8 C3 1_555 1_555
C4 C3 1_555 1_555
H9 C4 1_555 1_555
C5 C4 1_555 1_555
H10 C5 1_555 1_555
C6 C1 1_555 1_555
H11 C6 1_555 1_555
C7 O6 1_555 1_555
C8 C7 1_555 1_555
H12 C8 1_555 1_555
H13 C8 1_555 1_555
C9 C8 1_555 1_555
H14 C9 1_555 1_555
H15 C9 1_555 1_555
C10 C9 1_555 1_555
H16 C10 1_555 1_555
H17 C10 1_555 1_555
C11 C10 1_555 1_555
O8 S1 1_555 1_555
O9 Sm1 1_555 1_555
O10 C11 1_555 1_555
Sm1A O7 1_555 1_555
Sm1B O8 1_555 1_555
Sm1C O10 1_555 1_555
O7A Sm1 1_555 1_555
O8B Sm1 1_555 1_555
O9B Sm1 1_555 1_555
O10C Sm1 1_555 1_555
C5 C6 1_555 1_555
C7 O9 1_555 1_555
O9 Sm1B 1_555 1_555
Sm1B O9B 1_555 1_555

#END
