
#######################################################################
#
#                 Cambridge Crystallographic Data Centre
#                                CCDC 
#
#######################################################################
#
# If this CIF has been generated from an entry in the Cambridge 
# Structural Database, then it will include bibliographic, chemical, 
# crystal, experimental, refinement or atomic coordinate data resulting 
# from the CCDC's data processing and validation procedures.
#
#######################################################################

data_EKIDUY
_symmetry_cell_setting           monoclinic
_symmetry_space_group_name_H-M   'P 21/n'
_symmetry_Int_Tables_number      14
_space_group_name_Hall           '-P 2yn'
loop_
_symmetry_equiv_pos_site_id
_symmetry_equiv_pos_as_xyz
1 x,y,z
2 1/2-x,1/2+y,1/2-z
3 -x,-y,-z
4 1/2+x,1/2-y,1/2+z
_cell_length_a                   9.2677(19)
_cell_length_b                   9.2623(19)
_cell_length_c                   19.023(4)
_cell_angle_alpha                90
_cell_angle_beta                 102.12(3)
_cell_angle_gamma                90
_cell_volume                     1596.54
loop_
_atom_site_label
_atom_site_type_symbol
_atom_site_fract_x
_atom_site_fract_y
_atom_site_fract_z
H1 H -0.514(4) -0.672(4) -0.0324(10)
H2 H -0.467(3) -0.653(3) 0.0402(11)
O1 O -0.4935(2) -0.7116(2) 0.00728(13)
Ce1 Ce 0.012590(13) -0.266440(12) -0.000740(7)
S1 S 0.20665(7) -0.51898(6) -0.11278(3)
C1 C 0.1488(3) -0.5139(3) -0.20734(13)
C2 C 0.2120(4) -0.6102(3) -0.24776(15)
H3 H 0.2811 -0.6774 -0.2253
C3 C 0.1712(4) -0.6053(4) -0.32196(17)
H4 H 0.2137 -0.6688 -0.3496
C4 C 0.0681(4) -0.5068(3) -0.35492(16)
H5 H 0.0415 -0.5038 -0.4048
C5 C 0.0037(3) -0.4125(3) -0.31456(15)
H6 H -0.0672 -0.3472 -0.3373
C6 C 0.0444(3) -0.4147(3) -0.24000(15)
H7 H 0.0021 -0.3507 -0.2125
C7 C 0.2114(3) -0.4579(2) 0.10781(12)
C8 C 0.3044(3) -0.5446(3) 0.16761(13)
H8 H 0.2506 -0.6310 0.1753
H9 H 0.3939 -0.5746 0.1529
C9 C 0.3461(3) -0.4625(2) 0.23816(13)
H10 H 0.4084 -0.3813 0.2319
H11 H 0.2573 -0.4244 0.2507
C10 C 0.4267(3) -0.5559(3) 0.29919(13)
H12 H 0.3681 -0.6416 0.3021
H13 H 0.5194 -0.5869 0.2881
C11 C 0.4588(3) -0.4832(2) 0.37170(12)
H14 H 0.321(3) -0.169(3) -0.0021(19)
H15 H -0.334(3) -0.214(3) -0.0290(16)
H16 H -0.277(4) -0.157(4) -0.0829(10)
H17 H 0.251(4) -0.0365(19) -0.003(2)
O2 O -0.2599(2) -0.1687(2) -0.03857(11)
O3 O 0.1405(2) -0.64734(18) -0.08853(10)
O4 O 0.2426(2) -0.1248(2) -0.00676(12)
O5 O 0.1574(2) -0.38502(18) -0.08544(10)
O6 O 0.3675(2) -0.5276(2) -0.09837(11)
O7 O 0.1286(2) -0.52325(17) 0.05571(9)
O8 O 0.2155(2) -0.32312(19) 0.10892(10)
O9 O 0.4450(2) -0.34884(18) 0.37572(9)
O10 O 0.4990(2) -0.5599(2) 0.42659(9)
Ce1B Ce -0.012590(13) -0.733560(12) 0.000740(7)
Ce1C Ce 0.512590(13) -0.233560(12) 0.499260(7)
Ce1A Ce 0.487410(13) -0.766440(12) 0.500740(7)
O3B O -0.1405(2) -0.35266(18) 0.08853(10)
O7B O -0.1286(2) -0.47675(17) -0.05571(9)
O9C O -0.0550(2) -0.15116(18) -0.12428(9)
O10A O 0.0010(2) -0.0599(2) 0.07341(9)
loop_
_geom_bond_atom_site_label_1
_geom_bond_atom_site_label_2
_geom_bond_site_symmetry_1
_geom_bond_site_symmetry_2
H1 O1 1_555 1_555
H2 O1 1_555 1_555
Ce1 O2 1_555 1_555
S1 C1 1_555 1_555
C1 C2 1_555 1_555
C2 H3 1_555 1_555
C3 C2 1_555 1_555
H4 C3 1_555 1_555
C4 C3 1_555 1_555
H5 C4 1_555 1_555
C5 C4 1_555 1_555
H6 C5 1_555 1_555
C6 C1 1_555 1_555
H7 C6 1_555 1_555
C7 C8 1_555 1_555
C8 H8 1_555 1_555
H9 C8 1_555 1_555
C9 C8 1_555 1_555
H10 C9 1_555 1_555
H11 C9 1_555 1_555
C10 C9 1_555 1_555
H12 C10 1_555 1_555
H13 C10 1_555 1_555
C11 C10 1_555 1_555
H14 O4 1_555 1_555
H15 O2 1_555 1_555
H16 O2 1_555 1_555
H17 O4 1_555 1_555
O3 S1 1_555 1_555
O4 Ce1 1_555 1_555
O5 Ce1 1_555 1_555
O6 S1 1_555 1_555
O7 Ce1 1_555 1_555
O8 Ce1 1_555 1_555
O9 C11 1_555 1_555
O10 C11 1_555 1_555
Ce1B O3 1_555 1_555
Ce1C O9 1_555 1_555
Ce1A O10 1_555 1_555
O3B Ce1 1_555 1_555
O7B Ce1 1_555 1_555
O9C Ce1 1_555 1_555
O10A Ce1 1_555 1_555
S1 O5 1_555 1_555
C5 C6 1_555 1_555
C7 O7 1_555 1_555
C7 O8 1_555 1_555
O7 Ce1B 1_555 1_555
Ce1B O7B 1_555 1_555

#END
