
#######################################################################
#
#                 Cambridge Crystallographic Data Centre
#                                CCDC 
#
#######################################################################
#
# If this CIF has been generated from an entry in the Cambridge 
# Structural Database, then it will include bibliographic, chemical, 
# crystal, experimental, refinement or atomic coordinate data resulting 
# from the CCDC's data processing and validation procedures.
#
#######################################################################

data_EKIFAG
_symmetry_cell_setting           monoclinic
_symmetry_space_group_name_H-M   'P 21/n'
_symmetry_Int_Tables_number      14
_space_group_name_Hall           '-P 2yn'
loop_
_symmetry_equiv_pos_site_id
_symmetry_equiv_pos_as_xyz
1 x,y,z
2 1/2-x,1/2+y,1/2-z
3 -x,-y,-z
4 1/2+x,1/2-y,1/2+z
_cell_length_a                   9.256(6)
_cell_length_b                   9.424(6)
_cell_length_c                   18.703(11)
_cell_angle_alpha                90
_cell_angle_beta                 101.339(7)
_cell_angle_gamma                90
_cell_volume                     1599.59
loop_
_atom_site_label
_atom_site_type_symbol
_atom_site_fract_x
_atom_site_fract_y
_atom_site_fract_z
H1 H 0.462(9) 0.659(6) 0.971(3)
H2 H 0.561(10) 0.660(6) 1.036(3)
O1 O 0.5111(9) 0.7146(13) 1.0032(4)
H3 H 1.307(17) 0.895(17) 1.056(18)
H4 H 0.736(12) 0.962(4) 0.998(8)
H5 H 1.322(12) 0.767(11) 1.024(8)
H6 H 0.690(8) 0.823(10) 0.997(9)
Pr1 Pr 0.99204(5) 0.72852(7) 0.99916(2)
S1 S 1.2110(3) 0.5110(2) 0.88781(19)
O2 O 0.7929(8) 0.6756(7) 0.8882(4)
O3 O 0.7655(8) 0.8764(8) 0.9989(5)
O4 O 1.2610(9) 0.8199(10) 1.0397(5)
O5 O 0.5444(8) 0.6419(7) 0.6179(4)
O6 O 1.1481(9) 0.6397(10) 0.9121(5)
O7 O 1.3717(10) 0.5192(10) 0.9018(6)
C1 C 1.1509(15) 0.5044(8) 0.7913(8)
C2 C 1.2092(15) 0.6059(15) 0.7493(7)
H7 H 1.2741 0.6754 0.7716
C3 C 1.1677(15) 0.5992(14) 0.6749(7)
H8 H 1.2108 0.6595 0.6458
C4 C 1.060(2) 0.5015(12) 0.6428(10)
H9 H 1.0261 0.5020 0.5926
C5 C 1.0066(13) 0.4054(13) 0.6857(6)
H10 H 0.9389 0.3377 0.6639
C6 C 1.0501(11) 0.4066(12) 0.7595(6)
H11 H 1.0114 0.3414 0.7880
C7 C 0.7956(9) 0.5411(13) 0.8917(5)
C8 C 0.6995(11) 0.4590(14) 0.8306(6)
H12 H 0.7513 0.3731 0.8221
H13 H 0.6104 0.4306 0.8468
C9 C 0.6559(12) 0.5361(14) 0.7595(6)
H14 H 0.7438 0.5701 0.7441
H15 H 0.5965 0.6179 0.7663
C10 C 0.5298(13) 0.5083(8) 0.6238(7)
C11 C 0.5698(12) 0.4426(13) 0.7005(5)
H16 H 0.6267 0.3571 0.6974
H17 H 0.4792 0.4143 0.7152
O8 O 1.1618(10) 0.3800(10) 0.9173(5)
O9 O 0.8755(9) 0.4799(7) 0.9427(4)
O10 O 0.4801(8) 0.4304(7) 0.5731(4)
Pr1C Pr 0.49204(5) 0.77148(7) 0.49916(2)
Pr1B Pr 1.00796(5) 0.27148(7) 1.00084(2)
Pr1A Pr 0.50796(5) 0.22852(7) 0.50084(2)
O5C O 1.0444(8) 0.8581(7) 1.1179(4)
O8B O 0.8382(10) 0.6200(10) 1.0827(5)
O9B O 1.1245(9) 0.5201(7) 1.0573(4)
O10A O 1.0199(8) 0.9304(7) 0.9269(4)
loop_
_geom_bond_atom_site_label_1
_geom_bond_atom_site_label_2
_geom_bond_site_symmetry_1
_geom_bond_site_symmetry_2
H1 O1 1_555 1_555
H2 O1 1_555 1_555
H3 O4 1_555 1_555
H4 O3 1_555 1_555
H5 O4 1_555 1_555
H6 O3 1_555 1_555
Pr1 O2 1_555 1_555
S1 O6 1_555 1_555
O2 C7 1_555 1_555
O3 Pr1 1_555 1_555
O4 Pr1 1_555 1_555
O5 C10 1_555 1_555
O6 Pr1 1_555 1_555
O7 S1 1_555 1_555
C1 S1 1_555 1_555
C2 C1 1_555 1_555
H7 C2 1_555 1_555
C3 C2 1_555 1_555
H8 C3 1_555 1_555
C4 C3 1_555 1_555
H9 C4 1_555 1_555
C5 C4 1_555 1_555
H10 C5 1_555 1_555
C6 C1 1_555 1_555
H11 C6 1_555 1_555
C7 C8 1_555 1_555
C8 H12 1_555 1_555
H13 C8 1_555 1_555
C9 C8 1_555 1_555
H14 C9 1_555 1_555
H15 C9 1_555 1_555
C10 C11 1_555 1_555
C11 C9 1_555 1_555
H16 C11 1_555 1_555
H17 C11 1_555 1_555
O8 S1 1_555 1_555
O9 Pr1 1_555 1_555
O10 C10 1_555 1_555
Pr1C O5 1_555 1_555
Pr1B O8 1_555 1_555
Pr1A O10 1_555 1_555
O5C Pr1 1_555 1_555
O8B Pr1 1_555 1_555
O9B Pr1 1_555 1_555
O10A Pr1 1_555 1_555
C5 C6 1_555 1_555
C7 O9 1_555 1_555
O9 Pr1B 1_555 1_555
Pr1B O9B 1_555 1_555

#END
