
#######################################################################
#
#                 Cambridge Crystallographic Data Centre
#                                CCDC 
#
#######################################################################
#
# If this CIF has been generated from an entry in the Cambridge 
# Structural Database, then it will include bibliographic, chemical, 
# crystal, experimental, refinement or atomic coordinate data resulting 
# from the CCDC's data processing and validation procedures.
#
#######################################################################

data_EKIHAI
_symmetry_cell_setting           monoclinic
_symmetry_space_group_name_H-M   'P 21'
_symmetry_Int_Tables_number      4
_space_group_name_Hall           'P 2yb'
loop_
_symmetry_equiv_pos_site_id
_symmetry_equiv_pos_as_xyz
1 x,y,z
2 -x,1/2+y,-z
_cell_length_a                   5.0787(10)
_cell_length_b                   9.6173(19)
_cell_length_c                   8.6489(17)
_cell_angle_alpha                90
_cell_angle_beta                 94.40(3)
_cell_angle_gamma                90
_cell_volume                     421.196
loop_
_atom_site_label
_atom_site_type_symbol
_atom_site_fract_x
_atom_site_fract_y
_atom_site_fract_z
Mn1 Mn 0.76835(11) 0.54152(7) 0.58527(7)
O1 O 1.0597(6) 0.4637(3) 0.4324(4)
H1 H 1.1939 0.4334 0.4870
H2 H 1.0352 0.3756 0.3838
O2 O 0.5559(6) 0.3464(3) 0.5264(4)
N1 N 0.8552(8) 0.3980(4) 0.7916(5)
H3 H 0.7618 0.4262 0.8702
H4 H 1.0278 0.4033 0.8236
O3 O 0.4189(6) 0.1433(4) 0.6139(4)
C1 C 0.5663(9) 0.2487(5) 0.6210(5)
C2 C 0.7868(8) 0.2522(5) 0.7536(5)
H5 H 0.9432 0.2113 0.7118
C3 C 0.7279(10) 0.1636(5) 0.8920(6)
H6 H 0.8807 0.1638 0.9665
H7 H 0.6971 0.0685 0.8579
S1 S 0.4403(2) 0.22524(16) 0.98702(15)
C4 C 0.5955(11) 0.2945(5) 1.1668(6)
H8 H 0.7213 0.3658 1.1432
H9 H 0.4618 0.3375 1.2254
C5 C 0.7365(8) 0.1829(4) 1.2652(5)
O4 O 0.6024(7) 0.0806(3) 1.3044(5)
O5 O 0.9819(6) 0.2006(3) 1.3021(4)
Mn1A Mn 0.23165(11) 0.04152(7) 0.41473(7)
Mn1A_2 Mn 0.23165(11) 0.04152(7) 1.41473(7)
Mn1A_3 Mn 1.23165(11) 0.04152(7) 1.41473(7)
O3A O 0.5811(6) 0.6433(4) 0.3861(4)
O4A O 0.3976(7) 0.5806(3) 0.6956(5)
O5A O 1.0181(6) 0.7006(3) 0.6979(4)
loop_
_geom_bond_atom_site_label_1
_geom_bond_atom_site_label_2
_geom_bond_site_symmetry_1
_geom_bond_site_symmetry_2
Mn1 O1 1_555 1_555
O1 H1 1_555 1_555
H2 O1 1_555 1_555
O2 Mn1 1_555 1_555
N1 Mn1 1_555 1_555
H3 N1 1_555 1_555
H4 N1 1_555 1_555
O3 C1 1_555 1_555
C1 O2 1_555 1_555
C2 N1 1_555 1_555
H5 C2 1_555 1_555
C3 C2 1_555 1_555
H6 C3 1_555 1_555
H7 C3 1_555 1_555
S1 C3 1_555 1_555
C4 S1 1_555 1_555
H8 C4 1_555 1_555
H9 C4 1_555 1_555
C5 C4 1_555 1_555
O4 C5 1_555 1_555
O5 C5 1_555 1_555
Mn1A O3 1_555 1_555
Mn1A_2 O4 1_555 1_555
Mn1A_3 O5 1_555 1_555
O3A Mn1 1_555 1_555
O4A Mn1 1_555 1_555
O5A Mn1 1_555 1_555
C1 C2 1_555 1_555

#END
