
#######################################################################
#
#                 Cambridge Crystallographic Data Centre
#                                CCDC 
#
#######################################################################
#
# If this CIF has been generated from an entry in the Cambridge 
# Structural Database, then it will include bibliographic, chemical, 
# crystal, experimental, refinement or atomic coordinate data resulting 
# from the CCDC's data processing and validation procedures.
#
#######################################################################

data_EKINUH
_symmetry_cell_setting           triclinic
_symmetry_space_group_name_H-M   'P -1'
_symmetry_Int_Tables_number      2
_space_group_name_Hall           '-P 1'
loop_
_symmetry_equiv_pos_site_id
_symmetry_equiv_pos_as_xyz
1 x,y,z
2 -x,-y,-z
_cell_length_a                   3.7757(8)
_cell_length_b                   8.687(2)
_cell_length_c                   11.537(3)
_cell_angle_alpha                106.03(2)
_cell_angle_beta                 95.69(2)
_cell_angle_gamma                96.36(2)
_cell_volume                     358.107
loop_
_atom_site_label
_atom_site_type_symbol
_atom_site_fract_x
_atom_site_fract_y
_atom_site_fract_z
Cu1 Cu 0.6236(1) 0.9140(1) 0.6003(1)
Cu2 Cu 0.1855(2) 0.8995(1) 0.9005(1)
Cl1 Cl 0.1061(2) 0.8199(1) 0.6923(1)
Cl2 Cl -0.3105(2) 0.8104(1) 0.9891(1)
N1 N 0.5234(8) 0.7790(3) 0.4267(3)
N2 N 0.3750(8) 0.8476(3) 0.3454(2)
C1 C 0.2768(10) 0.7591(5) 0.2313(3)
C2 C 0.3162(11) 0.5966(5) 0.1897(3)
C3 C 0.4682(11) 0.5282(4) 0.2711(4)
C4 C 0.5714(10) 0.6256(4) 0.3890(3)
H1 H 0.1763 0.8078 0.1761
H2 H 0.2411 0.5369 0.1090
H3 H 0.5015 0.4200 0.2483
H4 H 0.6809 0.5807 0.4451
Cl1_2 Cl 1.1061(2) 0.8199(1) 0.6923(1)
N2A N 0.6250(8) 1.1524(3) 0.6546(2)
Cl2_2 Cl 0.6895(2) 0.8104(1) 0.9891(1)
Cl2A Cl 0.3105(2) 1.1896(1) 1.0109(1)
Cu1_2 Cu -0.3764(1) 0.9140(1) 0.6003(1)
Cu2_2 Cu -0.8145(2) 0.8995(1) 0.9005(1)
Cu2A Cu -0.1855(2) 1.1005(1) 1.0995(1)
Cu1A Cu 0.3764(1) 1.0860(1) 0.3997(1)
loop_
_geom_bond_atom_site_label_1
_geom_bond_atom_site_label_2
_geom_bond_site_symmetry_1
_geom_bond_site_symmetry_2
Cu1 Cl1 1_555 1_555
Cu2 Cl1 1_555 1_555
Cl1 Cu1_2 1_555 1_555
Cl2 Cu2 1_555 1_555
N1 Cu1 1_555 1_555
N2 N1 1_555 1_555
C1 N2 1_555 1_555
C2 C1 1_555 1_555
C3 C2 1_555 1_555
C4 N1 1_555 1_555
H1 C1 1_555 1_555
H2 C2 1_555 1_555
H3 C3 1_555 1_555
H4 C4 1_555 1_555
Cl1_2 Cu1 1_555 1_555
N2A Cu1 1_555 1_555
Cl2_2 Cu2 1_555 1_555
Cl2A Cu2 1_555 1_555
Cu2_2 Cl2 1_555 1_555
Cu2A Cl2 1_555 1_555
Cu1A N2 1_555 1_555
C3 C4 1_555 1_555
Cl2A Cu2A 1_555 1_555

#END
