
#######################################################################
#
#                 Cambridge Crystallographic Data Centre
#                                CCDC 
#
#######################################################################
#
# If this CIF has been generated from an entry in the Cambridge 
# Structural Database, then it will include bibliographic, chemical, 
# crystal, experimental, refinement or atomic coordinate data resulting 
# from the CCDC's data processing and validation procedures.
#
#######################################################################

data_EKIPUK
_symmetry_cell_setting           triclinic
_symmetry_space_group_name_H-M   'P -1'
_symmetry_Int_Tables_number      2
_space_group_name_Hall           '-P 1'
loop_
_symmetry_equiv_pos_site_id
_symmetry_equiv_pos_as_xyz
1 x,y,z
2 -x,-y,-z
_cell_length_a                   8.2650(7)
_cell_length_b                   11.8236(12)
_cell_length_c                   16.6590(8)
_cell_angle_alpha                98.488(6)
_cell_angle_beta                 90.684(6)
_cell_angle_gamma                106.857(7)
_cell_volume                     1538.36
loop_
_atom_site_label
_atom_site_type_symbol
_atom_site_fract_x
_atom_site_fract_y
_atom_site_fract_z
Ho1 Ho 0.55368(2) 0.716467(17) 0.706907(11)
K1 K -0.1530(3) 0.1160(2) 1.02776(13)
O1 O 0.3075(5) 0.2791(3) 0.9211(2)
O2 O 0.6363(4) 0.6243(3) 0.8215(2)
O3 O 0.3155(4) 0.5678(3) 0.7507(2)
O4 O 0.5904(5) 0.9295(3) 0.69223(19)
O5 O 0.6837(5) 0.7666(3) 0.5813(2)
O6 O 0.7597(6) 1.1158(4) 0.4608(2)
O7 O 0.4806(5) 0.8186(4) 0.8273(2)
H1 H 0.5622 0.8118 0.8069
H2 H 0.4199 0.7784 0.859
O8 O 0.4188(6) 0.5624(4) 0.5926(2)
H3 H 0.3261 0.4816 0.5845
H4 H 0.435 0.576 0.5448
O9 O 0.2898(5) 0.7497(3) 0.6635(2)
H5 H 0.1919 0.7017 0.6478
H6 H 0.3042 0.8087 0.6372
O10 O 0.7265(8) 0.5896(5) 0.6661(3)
H7 H 0.7125 0.537 0.6756
H8 H 0.7815 0.6446 0.6672
O11 O 0.8254(5) 0.8325(4) 0.7656(3)
H9 H 0.8996 0.7965 0.7724
H10 H 0.8685 0.8867 0.7368
O12 O 0.1880(8) 0.1280(5) 1.0442(3)
H11 H 0.1161 0.1658 1.0554
H12 H 0.2771 0.1644 1.075
O13 O -0.0746(6) 0.2595(5) 1.1895(3)
H13 H 0.014 0.313 1.1741
H14 H -0.1127 0.2492 1.224
C1 C 0.3527(6) 0.3637(4) 0.8844(3)
C2 C 0.5250(6) 0.4483(4) 0.8890(3)
C3 C 0.5223(6) 0.5350(4) 0.8368(3)
C4 C 0.3504(6) 0.5049(4) 0.7999(3)
C5 C 0.2441(6) 0.4017(4) 0.8294(3)
C6 C 0.0728(6) 0.3486(5) 0.8130(3)
C7 C -0.0279(7) 0.4020(5) 0.7690(3)
C8 C -0.0208(7) 0.2418(6) 0.8429(4)
C9 C 0.6596(6) 0.4444(4) 0.9380(3)
C10 C 0.8205(7) 0.5333(5) 0.9430(3)
C11 C 0.6430(6) 0.3533(5) 0.9879(3)
C12 C 0.6467(6) 0.9570(4) 0.6257(3)
C13 C 0.6973(6) 0.8707(4) 0.5666(3)
C14 C 0.7557(6) 0.9250(4) 0.4968(3)
C15 C 0.7326(6) 1.0447(4) 0.5096(3)
C16 C 0.6685(6) 1.0652(4) 0.5912(3)
C17 C 0.6297(6) 1.1676(4) 0.6248(3)
C18 C 0.5670(8) 1.1815(5) 0.7039(3)
C19 C 0.6436(7) 1.2670(5) 0.5816(3)
C20 C 0.8202(7) 0.8761(5) 0.4281(3)
C21 C 0.8368(8) 0.7582(5) 0.4182(3)
C22 C 0.8767(8) 0.9413(6) 0.3616(3)
N1 N -0.1143(7) 0.4444(5) 0.7372(4)
N2 N -0.1018(9) 0.1580(7) 0.8646(6)
N3 N 0.9494(7) 0.6054(6) 0.9482(4)
N4 N 0.6370(7) 0.2845(5) 1.0305(3)
N5 N 0.5179(10) 1.1995(6) 0.7669(4)
N6 N 0.6452(8) 1.3460(4) 0.5516(3)
N7 N 0.8502(9) 0.6632(5) 0.4085(4)
N8 N 0.9261(10) 0.9870(6) 0.3077(3)
Ho1A Ho -0.55368(2) -0.716467(17) 1.293093(11)
K1A K 0.1530(3) -0.1160(2) 0.97224(13)
K1_2 K -1.1530(3) -0.8840(2) 1.02776(13)
K1_3 K 0.8470(3) 0.1160(2) 1.02776(13)
K1A_2 K -0.8470(3) -0.1160(2) 0.97224(13)
K1A_3 K 1.1530(3) 0.8840(2) 0.97224(13)
O1A O -0.3075(5) -0.2791(3) 1.0789(2)
O2A O -0.6363(4) -0.6243(3) 1.1785(2)
O3A O -0.3155(4) -0.5678(3) 1.2493(2)
O4A O -0.5904(5) -0.9295(3) 1.30777(19)
O5A O -0.6837(5) -0.7666(3) 1.4187(2)
O6A O -0.7597(6) -1.1158(4) 1.5392(2)
O7A O -0.4806(5) -0.8186(4) 1.1727(2)
H1A H -0.5622 -0.8118 1.1931
H2A H -0.4199 -0.7784 1.141
O8A O -0.4188(6) -0.5624(4) 1.4074(2)
H3A H -0.3261 -0.4816 1.4155
H4A H -0.435 -0.576 1.4552
O9A O -0.2898(5) -0.7497(3) 1.3365(2)
H5A H -0.1919 -0.7017 1.3522
H6A H -0.3042 -0.8087 1.3628
O10A O -0.7265(8) -0.5896(5) 1.3339(3)
H7A H -0.7125 -0.537 1.3244
H8A H -0.7815 -0.6446 1.3328
O11A O -0.8254(5) -0.8325(4) 1.2344(3)
H9A H -0.8996 -0.7965 1.2276
H10A H -0.8685 -0.8867 1.2632
O12A O -0.1880(8) -0.1280(5) 0.9558(3)
H11A H -0.1161 -0.1658 0.9446
H12A H -0.2771 -0.1644 0.925
O13A O 0.0746(6) -0.2595(5) 0.8105(3)
H13A H -0.014 -0.313 0.8259
H14A H 0.1127 -0.2492 0.776
C1A C -0.3527(6) -0.3637(4) 1.1156(3)
C2A C -0.5250(6) -0.4483(4) 1.1110(3)
C3A C -0.5223(6) -0.5350(4) 1.1632(3)
C4A C -0.3504(6) -0.5049(4) 1.2001(3)
C5A C -0.2441(6) -0.4017(4) 1.1706(3)
C6A C -0.0728(6) -0.3486(5) 1.1870(3)
C7A C 0.0279(7) -0.4020(5) 1.2310(3)
C8A C 0.0208(7) -0.2418(6) 1.1571(4)
C9A C -0.6596(6) -0.4444(4) 1.0620(3)
C10A C -0.8205(7) -0.5333(5) 1.0570(3)
C11A C -0.6430(6) -0.3533(5) 1.0121(3)
C12A C -0.6467(6) -0.9570(4) 1.3743(3)
C13A C -0.6973(6) -0.8707(4) 1.4334(3)
C14A C -0.7557(6) -0.9250(4) 1.5032(3)
C15A C -0.7326(6) -1.0447(4) 1.4904(3)
C16A C -0.6685(6) -1.0652(4) 1.4088(3)
C17A C -0.6297(6) -1.1676(4) 1.3752(3)
C18A C -0.5670(8) -1.1815(5) 1.2961(3)
C19A C -0.6436(7) -1.2670(5) 1.4184(3)
C20A C -0.8202(7) -0.8761(5) 1.5719(3)
C21A C -0.8368(8) -0.7582(5) 1.5818(3)
C22A C -0.8767(8) -0.9413(6) 1.6384(3)
N1A N 0.1143(7) -0.4444(5) 1.2628(4)
N2A N 0.1018(9) -0.1580(7) 1.1354(6)
N3A N -0.9494(7) -0.6054(6) 1.0518(4)
N3_2 N -0.0506(7) -0.3946(6) 0.9482(4)
N3A_2 N 0.0506(7) 0.3946(6) 1.0518(4)
N4A N -0.6370(7) -0.2845(5) 0.9695(3)
N4_2 N -0.3630(7) 0.2845(5) 1.0305(3)
N4A_2 N 0.3630(7) -0.2845(5) 0.9695(3)
N5A N -0.5179(10) -1.1995(6) 1.2331(4)
N6A N -0.6452(8) -1.3460(4) 1.4484(3)
N7A N -0.8502(9) -0.6632(5) 1.5915(4)
N8A N -0.9261(10) -0.9870(6) 1.6923(3)
O14 O 0.0199(8) 0.5979(10) 0.5652(5)
H15 H 0.0399 0.6641 0.5992
H16 H 0.0409 0.5455 0.5906
O14A O -0.0199(8) -0.5979(10) 1.4348(5)
H15A H -0.0399 -0.6641 1.4008
H16A H -0.0409 -0.5455 1.4094
loop_
_geom_bond_atom_site_label_1
_geom_bond_atom_site_label_2
_geom_bond_site_symmetry_1
_geom_bond_site_symmetry_2
Ho1 O2 1_555 1_555
K1 O12 1_555 1_555
O1 C1 1_555 1_555
O2 C3 1_555 1_555
O3 Ho1 1_555 1_555
O4 Ho1 1_555 1_555
O5 Ho1 1_555 1_555
O6 C15 1_555 1_555
O7 Ho1 1_555 1_555
H1 O7 1_555 1_555
H2 O7 1_555 1_555
O8 Ho1 1_555 1_555
H3 O8 1_555 1_555
H4 O8 1_555 1_555
O9 Ho1 1_555 1_555
H5 O9 1_555 1_555
H6 O9 1_555 1_555
O10 Ho1 1_555 1_555
H7 O10 1_555 1_555
H8 O10 1_555 1_555
O11 Ho1 1_555 1_555
H9 O11 1_555 1_555
H10 O11 1_555 1_555
O12 H11 1_555 1_555
H12 O12 1_555 1_555
O13 K1 1_555 1_555
H13 O13 1_555 1_555
H14 O13 1_555 1_555
O14 H15 1_555 1_555
H16 O14 1_555 1_555
C1 C2 1_555 1_555
C2 C3 1_555 1_555
C3 C4 1_555 1_555
C4 O3 1_555 1_555
C5 C1 1_555 1_555
C6 C5 1_555 1_555
C7 C6 1_555 1_555
C8 C6 1_555 1_555
C9 C2 1_555 1_555
C10 C9 1_555 1_555
C11 C9 1_555 1_555
C12 O4 1_555 1_555
C13 O5 1_555 1_555
C14 C13 1_555 1_555
C15 C14 1_555 1_555
C16 C12 1_555 1_555
C17 C16 1_555 1_555
C18 C17 1_555 1_555
C19 C17 1_555 1_555
C20 C14 1_555 1_555
C21 C20 1_555 1_555
C22 C20 1_555 1_555
N1 C7 1_555 1_555
N2 K1 1_555 1_555
N3 C10 1_555 1_555
N4 C11 1_555 1_555
N5 C18 1_555 1_555
N6 C19 1_555 1_555
N7 C21 1_555 1_555
N8 C22 1_555 1_555
Ho1A O2A 1_555 1_555
K1A O12 1_555 1_555
K1_2 N3A 1_555 1_555
K1_3 N4 1_555 1_555
K1A_2 N4A 1_555 1_555
K1A_3 N3 1_555 1_555
O1A C1A 1_555 1_555
O2A C3A 1_555 1_555
O3A Ho1A 1_555 1_555
O4A Ho1A 1_555 1_555
O5A Ho1A 1_555 1_555
O6A C15A 1_555 1_555
O7A Ho1A 1_555 1_555
H1A O7A 1_555 1_555
H2A O7A 1_555 1_555
O8A Ho1A 1_555 1_555
H3A O8A 1_555 1_555
H4A O8A 1_555 1_555
O9A Ho1A 1_555 1_555
H5A O9A 1_555 1_555
H6A O9A 1_555 1_555
O10A Ho1A 1_555 1_555
H7A O10A 1_555 1_555
H8A O10A 1_555 1_555
O11A Ho1A 1_555 1_555
H9A O11A 1_555 1_555
H10A O11A 1_555 1_555
O12A K1 1_555 1_555
H11A O12A 1_555 1_555
H12A O12A 1_555 1_555
O13A K1A 1_555 1_555
H13A O13A 1_555 1_555
H14A O13A 1_555 1_555
O14A H15A 1_555 1_555
H16A O14A 1_555 1_555
C1A C2A 1_555 1_555
C2A C3A 1_555 1_555
C3A C4A 1_555 1_555
C4A O3A 1_555 1_555
C5A C1A 1_555 1_555
C6A C5A 1_555 1_555
C7A C6A 1_555 1_555
C8A C6A 1_555 1_555
C9A C2A 1_555 1_555
C10A C9A 1_555 1_555
C11A C9A 1_555 1_555
C12A O4A 1_555 1_555
C13A O5A 1_555 1_555
C14A C13A 1_555 1_555
C15A C14A 1_555 1_555
C16A C12A 1_555 1_555
C17A C16A 1_555 1_555
C18A C17A 1_555 1_555
C19A C17A 1_555 1_555
C20A C14A 1_555 1_555
C21A C20A 1_555 1_555
C22A C20A 1_555 1_555
N1A C7A 1_555 1_555
N2A K1A 1_555 1_555
N3A C10A 1_555 1_555
N3_2 K1A 1_555 1_555
N3A_2 K1 1_555 1_555
N4A C11A 1_555 1_555
N4_2 K1 1_555 1_555
N4A_2 K1A 1_555 1_555
N5A C18A 1_555 1_555
N6A C19A 1_555 1_555
N7A C21A 1_555 1_555
N8A C22A 1_555 1_555
C4 C5 1_555 1_555
C8 N2 1_555 1_555
C12 C13 1_555 1_555
C15 C16 1_555 1_555
K1A O12A 1_555 1_555
C4A C5A 1_555 1_555
C8A N2A 1_555 1_555
C12A C13A 1_555 1_555
C15A C16A 1_555 1_555

#END
