
#######################################################################
#
#                 Cambridge Crystallographic Data Centre
#                                CCDC 
#
#######################################################################
#
# If this CIF has been generated from an entry in the Cambridge 
# Structural Database, then it will include bibliographic, chemical, 
# crystal, experimental, refinement or atomic coordinate data resulting 
# from the CCDC's data processing and validation procedures.
#
#######################################################################

data_EKIPOE
_symmetry_cell_setting           triclinic
_symmetry_space_group_name_H-M   'P -1'
_symmetry_Int_Tables_number      2
_space_group_name_Hall           '-P 1'
loop_
_symmetry_equiv_pos_site_id
_symmetry_equiv_pos_as_xyz
1 x,y,z
2 -x,-y,-z
_cell_length_a                   8.2826(8)
_cell_length_b                   11.8264(9)
_cell_length_c                   16.6567(16)
_cell_angle_alpha                98.739(7)
_cell_angle_beta                 90.782(9)
_cell_angle_gamma                106.933(8)
_cell_volume                     1539.83
loop_
_atom_site_label
_atom_site_type_symbol
_atom_site_fract_x
_atom_site_fract_y
_atom_site_fract_z
Gd1 Gd 0.55470(4) 0.71701(3) 0.707474(19)
K1 K -0.1524(4) 0.1162(3) 1.02715(19)
O1 O 0.3080(7) 0.2786(5) 0.9210(4)
O2 O 0.6362(6) 0.6238(5) 0.8225(3)
O3 O 0.3130(7) 0.5665(5) 0.7522(3)
O4 O 0.5917(7) 0.9307(4) 0.6919(3)
O5 O 0.6872(7) 0.7681(4) 0.5804(3)
O6 O 0.7610(9) 1.1168(6) 0.4609(4)
O7 O 0.4828(8) 0.8222(5) 0.8300(4)
H1 H 0.5644 0.8154 0.8095
H2 H 0.4221 0.782 0.8616
O8 O 0.4179(9) 0.5607(5) 0.5916(4)
H3 H 0.3252 0.4799 0.5835
H4 H 0.4341 0.5743 0.5438
O9 O 0.2860(7) 0.7504(5) 0.6640(4)
H5 H 0.1881 0.7024 0.6482
H6 H 0.3004 0.8094 0.6376
O10 O 0.7306(11) 0.5883(7) 0.6660(4)
H7 H 0.7166 0.5357 0.6755
H8 H 0.7856 0.6433 0.6671
O11 O 0.8311(7) 0.8351(6) 0.7678(4)
H9 H 0.9053 0.7991 0.7746
H10 H 0.8742 0.8893 0.7389
O12 O 0.1897(11) 0.1272(8) 1.0426(5)
H11 H 0.1178 0.165 1.0538
H12 H 0.2788 0.1636 1.0734
O13 O -0.0753(8) 0.2602(7) 1.1874(5)
H13 H 0.0133 0.3137 1.172
H14 H -0.1134 0.2499 1.2219
C1 C 0.3521(9) 0.3617(6) 0.8847(4)
C2 C 0.5253(9) 0.4482(6) 0.8898(4)
C3 C 0.5212(9) 0.5340(6) 0.8377(4)
C4 C 0.3502(9) 0.5046(6) 0.8007(4)
C5 C 0.2441(9) 0.4003(6) 0.8299(4)
C6 C 0.0730(10) 0.3475(7) 0.8136(5)
C7 C -0.0280(10) 0.4008(7) 0.7700(5)
C8 C -0.0206(11) 0.2417(9) 0.8433(6)
C9 C 0.6605(10) 0.4440(7) 0.9377(4)
C10 C 0.8208(11) 0.5335(8) 0.9438(5)
C11 C 0.6451(10) 0.3540(8) 0.9881(5)
C12 C 0.6475(9) 0.9572(6) 0.6253(4)
C13 C 0.7005(9) 0.8713(6) 0.5656(4)
C14 C 0.7572(9) 0.9258(6) 0.4960(4)
C15 C 0.7344(10) 1.0457(7) 0.5095(4)
C16 C 0.6681(8) 1.0659(6) 0.5912(4)
C17 C 0.6299(10) 1.1673(6) 0.6244(5)
C18 C 0.5655(12) 1.1816(7) 0.7034(5)
C19 C 0.6414(11) 1.2661(7) 0.5814(5)
C20 C 0.8206(10) 0.8767(7) 0.4279(5)
C21 C 0.8364(12) 0.7597(8) 0.4184(5)
C22 C 0.8746(13) 0.9425(8) 0.3599(6)
N1 N -0.1125(10) 0.4441(8) 0.7374(6)
N2 N -0.0987(12) 0.1572(10) 0.8656(8)
N3 N 0.9488(10) 0.6062(9) 0.9498(6)
N4 N 0.6388(10) 0.2821(7) 1.0289(5)
N5 N 0.5178(15) 1.1988(8) 0.7671(6)
N6 N 0.6458(12) 1.3455(7) 0.5519(5)
N7 N 0.8476(14) 0.6633(8) 0.4079(6)
N8 N 0.9215(15) 0.9872(9) 0.3065(5)
Gd1A Gd -0.55470(4) -0.71701(3) 1.292526(19)
K1A K 0.1524(4) -0.1162(3) 0.97285(19)
K1_2 K -1.1524(4) -0.8838(3) 1.02715(19)
K1_3 K 0.8476(4) 0.1162(3) 1.02715(19)
K1A_2 K -0.8476(4) -0.1162(3) 0.97285(19)
K1A_3 K 1.1524(4) 0.8838(3) 0.97285(19)
O1A O -0.3080(7) -0.2786(5) 1.0790(4)
O2A O -0.6362(6) -0.6238(5) 1.1775(3)
O3A O -0.3130(7) -0.5665(5) 1.2478(3)
O4A O -0.5917(7) -0.9307(4) 1.3081(3)
O5A O -0.6872(7) -0.7681(4) 1.4196(3)
O6A O -0.7610(9) -1.1168(6) 1.5391(4)
O7A O -0.4828(8) -0.8222(5) 1.1700(4)
H1A H -0.5644 -0.8154 1.1905
H2A H -0.4221 -0.782 1.1384
O8A O -0.4179(9) -0.5607(5) 1.4084(4)
H3A H -0.3252 -0.4799 1.4165
H4A H -0.4341 -0.5743 1.4562
O9A O -0.2860(7) -0.7504(5) 1.3360(4)
H5A H -0.1881 -0.7024 1.3518
H6A H -0.3004 -0.8094 1.3624
O10A O -0.7306(11) -0.5883(7) 1.3340(4)
H7A H -0.7166 -0.5357 1.3245
H8A H -0.7856 -0.6433 1.3329
O11A O -0.8311(7) -0.8351(6) 1.2322(4)
H9A H -0.9053 -0.7991 1.2254
H10A H -0.8742 -0.8893 1.2611
O12A O -0.1897(11) -0.1272(8) 0.9574(5)
H11A H -0.1178 -0.165 0.9462
H12A H -0.2788 -0.1636 0.9266
O13A O 0.0753(8) -0.2602(7) 0.8126(5)
H13A H -0.0133 -0.3137 0.828
H14A H 0.1134 -0.2499 0.7781
C1A C -0.3521(9) -0.3617(6) 1.1153(4)
C2A C -0.5253(9) -0.4482(6) 1.1102(4)
C3A C -0.5212(9) -0.5340(6) 1.1623(4)
C4A C -0.3502(9) -0.5046(6) 1.1993(4)
C5A C -0.2441(9) -0.4003(6) 1.1701(4)
C6A C -0.0730(10) -0.3475(7) 1.1864(5)
C7A C 0.0280(10) -0.4008(7) 1.2300(5)
C8A C 0.0206(11) -0.2417(9) 1.1567(6)
C9A C -0.6605(10) -0.4440(7) 1.0623(4)
C10A C -0.8208(11) -0.5335(8) 1.0562(5)
C11A C -0.6451(10) -0.3540(8) 1.0119(5)
C12A C -0.6475(9) -0.9572(6) 1.3747(4)
C13A C -0.7005(9) -0.8713(6) 1.4344(4)
C14A C -0.7572(9) -0.9258(6) 1.5040(4)
C15A C -0.7344(10) -1.0457(7) 1.4905(4)
C16A C -0.6681(8) -1.0659(6) 1.4088(4)
C17A C -0.6299(10) -1.1673(6) 1.3756(5)
C18A C -0.5655(12) -1.1816(7) 1.2966(5)
C19A C -0.6414(11) -1.2661(7) 1.4186(5)
C20A C -0.8206(10) -0.8767(7) 1.5721(5)
C21A C -0.8364(12) -0.7597(8) 1.5816(5)
C22A C -0.8746(13) -0.9425(8) 1.6401(6)
N1A N 0.1125(10) -0.4441(8) 1.2626(6)
N2A N 0.0987(12) -0.1572(10) 1.1344(8)
N3A N -0.9488(10) -0.6062(9) 1.0502(6)
N3_2 N -0.0512(10) -0.3938(9) 0.9498(6)
N3A_2 N 0.0512(10) 0.3938(9) 1.0502(6)
N4A N -0.6388(10) -0.2821(7) 0.9711(5)
N4_2 N -0.3612(10) 0.2821(7) 1.0289(5)
N4A_2 N 0.3612(10) -0.2821(7) 0.9711(5)
N5A N -0.5178(15) -1.1988(8) 1.2329(6)
N6A N -0.6458(12) -1.3455(7) 1.4481(5)
N7A N -0.8476(14) -0.6633(8) 1.5921(6)
N8A N -0.9215(15) -0.9872(9) 1.6935(5)
O14 O 0.0184(12) 0.6008(14) 0.5631(7)
H15 H 0.0384 0.6671 0.5971
H16 H 0.0395 0.5485 0.5885
loop_
_geom_bond_atom_site_label_1
_geom_bond_atom_site_label_2
_geom_bond_site_symmetry_1
_geom_bond_site_symmetry_2
Gd1 O2 1_555 1_555
K1 O12 1_555 1_555
O1 C1 1_555 1_555
O2 C3 1_555 1_555
O3 Gd1 1_555 1_555
O4 Gd1 1_555 1_555
O5 Gd1 1_555 1_555
O6 C15 1_555 1_555
O7 Gd1 1_555 1_555
H1 O7 1_555 1_555
H2 O7 1_555 1_555
O8 Gd1 1_555 1_555
H3 O8 1_555 1_555
H4 O8 1_555 1_555
O9 Gd1 1_555 1_555
H5 O9 1_555 1_555
H6 O9 1_555 1_555
O10 Gd1 1_555 1_555
H7 O10 1_555 1_555
H8 O10 1_555 1_555
O11 Gd1 1_555 1_555
H9 O11 1_555 1_555
H10 O11 1_555 1_555
O12 H11 1_555 1_555
H12 O12 1_555 1_555
O13 K1 1_555 1_555
H13 O13 1_555 1_555
H14 O13 1_555 1_555
O14 H15 1_555 1_555
H16 O14 1_555 1_555
C1 C2 1_555 1_555
C2 C3 1_555 1_555
C3 C4 1_555 1_555
C4 O3 1_555 1_555
C5 C1 1_555 1_555
C6 C5 1_555 1_555
C7 C6 1_555 1_555
C8 C6 1_555 1_555
C9 C2 1_555 1_555
C10 C9 1_555 1_555
C11 C9 1_555 1_555
C12 O4 1_555 1_555
C13 O5 1_555 1_555
C14 C13 1_555 1_555
C15 C14 1_555 1_555
C16 C12 1_555 1_555
C17 C16 1_555 1_555
C18 C17 1_555 1_555
C19 C17 1_555 1_555
C20 C14 1_555 1_555
C21 C20 1_555 1_555
C22 C20 1_555 1_555
N1 C7 1_555 1_555
N2 K1 1_555 1_555
N3 C10 1_555 1_555
N4 C11 1_555 1_555
N5 C18 1_555 1_555
N6 C19 1_555 1_555
N7 C21 1_555 1_555
N8 C22 1_555 1_555
Gd1A O2A 1_555 1_555
K1A O12 1_555 1_555
K1_2 N3A 1_555 1_555
K1_3 N4 1_555 1_555
K1A_2 N4A 1_555 1_555
K1A_3 N3 1_555 1_555
O1A C1A 1_555 1_555
O2A C3A 1_555 1_555
O3A Gd1A 1_555 1_555
O4A Gd1A 1_555 1_555
O5A Gd1A 1_555 1_555
O6A C15A 1_555 1_555
O7A Gd1A 1_555 1_555
H1A O7A 1_555 1_555
H2A O7A 1_555 1_555
O8A Gd1A 1_555 1_555
H3A O8A 1_555 1_555
H4A O8A 1_555 1_555
O9A Gd1A 1_555 1_555
H5A O9A 1_555 1_555
H6A O9A 1_555 1_555
O10A Gd1A 1_555 1_555
H7A O10A 1_555 1_555
H8A O10A 1_555 1_555
O11A Gd1A 1_555 1_555
H9A O11A 1_555 1_555
H10A O11A 1_555 1_555
O12A K1 1_555 1_555
H11A O12A 1_555 1_555
H12A O12A 1_555 1_555
O13A K1A 1_555 1_555
H13A O13A 1_555 1_555
H14A O13A 1_555 1_555
C1A C2A 1_555 1_555
C2A C3A 1_555 1_555
C3A C4A 1_555 1_555
C4A O3A 1_555 1_555
C5A C1A 1_555 1_555
C6A C5A 1_555 1_555
C7A C6A 1_555 1_555
C8A C6A 1_555 1_555
C9A C2A 1_555 1_555
C10A C9A 1_555 1_555
C11A C9A 1_555 1_555
C12A O4A 1_555 1_555
C13A O5A 1_555 1_555
C14A C13A 1_555 1_555
C15A C14A 1_555 1_555
C16A C12A 1_555 1_555
C17A C16A 1_555 1_555
C18A C17A 1_555 1_555
C19A C17A 1_555 1_555
C20A C14A 1_555 1_555
C21A C20A 1_555 1_555
C22A C20A 1_555 1_555
N1A C7A 1_555 1_555
N2A K1A 1_555 1_555
N3A C10A 1_555 1_555
N3_2 K1A 1_555 1_555
N3A_2 K1 1_555 1_555
N4A C11A 1_555 1_555
N4_2 K1 1_555 1_555
N4A_2 K1A 1_555 1_555
N5A C18A 1_555 1_555
N6A C19A 1_555 1_555
N7A C21A 1_555 1_555
N8A C22A 1_555 1_555
C4 C5 1_555 1_555
C8 N2 1_555 1_555
C12 C13 1_555 1_555
C15 C16 1_555 1_555
K1A O12A 1_555 1_555
C4A C5A 1_555 1_555
C8A N2A 1_555 1_555
C12A C13A 1_555 1_555
C15A C16A 1_555 1_555

#END
