
#######################################################################
#
#                 Cambridge Crystallographic Data Centre
#                                CCDC 
#
#######################################################################
#
# If this CIF has been generated from an entry in the Cambridge 
# Structural Database, then it will include bibliographic, chemical, 
# crystal, experimental, refinement or atomic coordinate data resulting 
# from the CCDC's data processing and validation procedures.
#
#######################################################################

data_EKIQUK
_symmetry_cell_setting           monoclinic
_symmetry_space_group_name_H-M   'P 21/m'
_symmetry_Int_Tables_number      11
_space_group_name_Hall           '-P 2yb'
loop_
_symmetry_equiv_pos_site_id
_symmetry_equiv_pos_as_xyz
1 x,y,z
2 -x,1/2+y,-z
3 -x,-y,-z
4 x,1/2-y,z
_cell_length_a                   12.870(4)
_cell_length_b                   7.033(2)
_cell_length_c                   9.673(1)
_cell_angle_alpha                90
_cell_angle_beta                 91.27(2)
_cell_angle_gamma                90
_cell_volume                     875.334
loop_
_atom_site_label
_atom_site_type_symbol
_atom_site_fract_x
_atom_site_fract_y
_atom_site_fract_z
Cu1 Cu 0.2417(1) 0.2500 0.2107(1)
S1 S 0.3420(2) 0.7500 0.4496(2)
S2 S 0.2235(2) 0.7500 0.2914(3)
N1 N 0.0837(7) 0.2500 0.2072(8)
N2 N 0.2156(7) 0.2500 0.0118(8)
N3 N 0.3899(7) 0.2500 0.1461(8)
O1 O 0.3205(6) 0.5773(8) 0.5296(5)
O2 O 0.4379(7) 0.7500 0.3809(10)
O3 O 0.1277(7) 0.7500 0.3601(10)
O4 O 0.2451(6) 0.5798(8) 0.2095(6)
O5 O 0.2655(6) 0.2500 0.4123(7)
C1 C 0.0201(10) 0.2500 0.3141(12)
C2 C -0.0839(11) 0.2500 0.3010(15)
C3 C -0.1277(11) 0.2500 0.1692(17)
C4 C -0.0639(10) 0.2500 0.0567(10)
C5 C 0.0406(9) 0.2500 0.0771(11)
C6 C 0.1177(9) 0.2500 -0.0335(11)
C7 C 0.0963(11) 0.2500 -0.1758(12)
C8 C 0.1804(12) 0.2500 -0.2628(12)
C9 C 0.2814(11) 0.2500 -0.2129(11)
C10 C 0.2981(8) 0.2500 -0.0701(10)
C11 C 0.3975(8) 0.2500 0.0050(9)
C12 C 0.4928(9) 0.2500 -0.0567(11)
C13 C 0.5815(10) 0.2500 0.0254(12)
C14 C 0.5734(10) 0.2500 0.1674(12)
C15 C 0.4760(9) 0.2500 0.2221(11)
O4C O 0.2451(6) 0.9202(8) 0.2095(6)
O1C O 0.3205(6) 0.9227(8) 0.5296(5)
O4C_2 O 0.2451(6) -0.0798(8) 0.2095(6)
Cu1_2 Cu 0.2417(1) 1.2500 0.2107(1)
loop_
_geom_bond_atom_site_label_1
_geom_bond_atom_site_label_2
_geom_bond_site_symmetry_1
_geom_bond_site_symmetry_2
Cu1 N1 1_555 1_555
S1 S2 1_555 1_555
S2 O3 1_555 1_555
N1 C1 1_555 1_555
N2 Cu1 1_555 1_555
N3 Cu1 1_555 1_555
O1 S1 1_555 1_555
O2 S1 1_555 1_555
O4 Cu1 1_555 1_555
O5 Cu1 1_555 1_555
C1 C2 1_555 1_555
C2 C3 1_555 1_555
C3 C4 1_555 1_555
C4 C5 1_555 1_555
C5 N1 1_555 1_555
C6 N2 1_555 1_555
C7 C6 1_555 1_555
C8 C7 1_555 1_555
C9 C8 1_555 1_555
C10 N2 1_555 1_555
C11 N3 1_555 1_555
C12 C11 1_555 1_555
C13 C12 1_555 1_555
C14 C13 1_555 1_555
C15 N3 1_555 1_555
O4C S2 1_555 1_555
O1C S1 1_555 1_555
O4C_2 Cu1 1_555 1_555
Cu1_2 O4C 1_555 1_555
S2 O4 1_555 1_555
C5 C6 1_555 1_555
C9 C10 1_555 1_555
C10 C11 1_555 1_555
C14 C15 1_555 1_555

#END
