
#######################################################################
#
#                 Cambridge Crystallographic Data Centre
#                                CCDC 
#
#######################################################################
#
# If this CIF has been generated from an entry in the Cambridge 
# Structural Database, then it will include bibliographic, chemical, 
# crystal, experimental, refinement or atomic coordinate data resulting 
# from the CCDC's data processing and validation procedures.
#
#######################################################################

data_EKIQEV
_symmetry_cell_setting           triclinic
_symmetry_space_group_name_H-M   'P -1'
_symmetry_Int_Tables_number      2
_space_group_name_Hall           '-P 1'
loop_
_symmetry_equiv_pos_site_id
_symmetry_equiv_pos_as_xyz
1 x,y,z
2 -x,-y,-z
_cell_length_a                   8.3040(5)
_cell_length_b                   11.8877(15)
_cell_length_c                   16.7064(18)
_cell_angle_alpha                98.924(9)
_cell_angle_beta                 90.951(7)
_cell_angle_gamma                106.966(7)
_cell_volume                     1554.97
loop_
_atom_site_label
_atom_site_type_symbol
_atom_site_fract_x
_atom_site_fract_y
_atom_site_fract_z
Nd1 Nd 0.55534(3) 0.71753(2) 0.708186(15)
K1 K -0.1508(4) 0.1166(2) 1.02665(15)
O1 O 0.3082(6) 0.2766(4) 0.9215(3)
O2 O 0.6350(5) 0.6223(4) 0.8242(3)
O3 O 0.3103(5) 0.5656(4) 0.7547(2)
O4 O 0.5934(5) 0.9330(3) 0.6905(2)
O5 O 0.6920(6) 0.7703(3) 0.5792(2)
O6 O 0.7618(7) 1.1181(4) 0.4610(3)
O7 O 0.4831(7) 0.8267(4) 0.8339(3)
H1 H 0.5647 0.82 0.8134
H2 H 0.4224 0.7866 0.8655
O8 O 0.4144(7) 0.5581(4) 0.5900(3)
H3 H 0.3216 0.4773 0.5818
H4 H 0.4305 0.5717 0.5421
O9 O 0.2800(6) 0.7506(4) 0.6651(3)
H5 H 0.1821 0.7026 0.6494
H6 H 0.2944 0.8095 0.6388
O10 O 0.7387(9) 0.5890(6) 0.6663(3)
H7 H 0.7247 0.5365 0.6758
H8 H 0.7937 0.6441 0.6674
O11 O 0.8369(6) 0.8396(5) 0.7719(3)
H9 H 0.911 0.8035 0.7787
H10 H 0.8799 0.8938 0.743
O12 O 0.1872(9) 0.1288(7) 1.0413(3)
H11 H 0.1153 0.1666 1.0525
H12 H 0.2763 0.1652 1.0721
O13 O -0.0754(6) 0.2635(5) 1.1869(3)
H13 H 0.0132 0.317 1.1715
H14 H -0.1135 0.2532 1.2214
C1 C 0.3521(7) 0.3614(5) 0.8853(3)
C2 C 0.5240(7) 0.4466(5) 0.8904(3)
C3 C 0.5190(7) 0.5327(5) 0.8391(3)
C4 C 0.3480(7) 0.5034(5) 0.8029(3)
C5 C 0.2422(7) 0.3992(5) 0.8315(3)
C6 C 0.0722(7) 0.3460(5) 0.8142(3)
C7 C -0.0283(7) 0.3988(6) 0.7709(4)
C8 C -0.0201(8) 0.2388(6) 0.8425(4)
C9 C 0.6584(7) 0.4424(5) 0.9381(3)
C10 C 0.8194(8) 0.5324(6) 0.9441(4)
C11 C 0.6452(7) 0.3517(6) 0.9873(4)
C12 C 0.6499(6) 0.9594(4) 0.6239(3)
C13 C 0.7021(7) 0.8737(5) 0.5653(3)
C14 C 0.7585(6) 0.9278(4) 0.4957(3)
C15 C 0.7337(7) 1.0470(5) 0.5090(3)
C16 C 0.6687(6) 1.0664(5) 0.5905(3)
C17 C 0.6290(7) 1.1675(5) 0.6240(3)
C18 C 0.5666(9) 1.1813(6) 0.7032(4)
C19 C 0.6411(8) 1.2657(5) 0.5810(3)
C20 C 0.8211(7) 0.8788(5) 0.4268(3)
C21 C 0.8377(9) 0.7610(6) 0.4164(4)
C22 C 0.8732(9) 0.9426(6) 0.3597(4)
N1 N -0.1149(8) 0.4403(6) 0.7393(4)
N2 N -0.0996(10) 0.1527(8) 0.8633(6)
N3 N 0.9467(8) 0.6043(7) 0.9503(5)
N4 N 0.6390(8) 0.2819(6) 1.0284(4)
N5 N 0.5166(11) 1.1982(6) 0.7659(4)
N6 N 0.6430(9) 1.3451(5) 0.5517(4)
N7 N 0.8506(11) 0.6677(6) 0.4058(5)
N8 N 0.9211(11) 0.9879(7) 0.3061(4)
Nd1A Nd -0.55534(3) -0.71753(2) 1.291814(15)
K1A K 0.1508(4) -0.1166(2) 0.97335(15)
K1_2 K -1.1508(4) -0.8834(2) 1.02665(15)
K1_3 K 0.8492(4) 0.1166(2) 1.02665(15)
K1A_2 K -0.8492(4) -0.1166(2) 0.97335(15)
K1A_3 K 1.1508(4) 0.8834(2) 0.97335(15)
O1A O -0.3082(6) -0.2766(4) 1.0785(3)
O2A O -0.6350(5) -0.6223(4) 1.1758(3)
O3A O -0.3103(5) -0.5656(4) 1.2453(2)
O4A O -0.5934(5) -0.9330(3) 1.3095(2)
O5A O -0.6920(6) -0.7703(3) 1.4208(2)
O6A O -0.7618(7) -1.1181(4) 1.5390(3)
O7A O -0.4831(7) -0.8267(4) 1.1661(3)
H1A H -0.5647 -0.82 1.1866
H2A H -0.4224 -0.7866 1.1345
O8A O -0.4144(7) -0.5581(4) 1.4100(3)
H3A H -0.3216 -0.4773 1.4182
H4A H -0.4305 -0.5717 1.4579
O9A O -0.2800(6) -0.7506(4) 1.3349(3)
H5A H -0.1821 -0.7026 1.3506
H6A H -0.2944 -0.8095 1.3612
O10A O -0.7387(9) -0.5890(6) 1.3337(3)
H7A H -0.7247 -0.5365 1.3242
H8A H -0.7937 -0.6441 1.3326
O11A O -0.8369(6) -0.8396(5) 1.2281(3)
H9A H -0.911 -0.8035 1.2213
H10A H -0.8799 -0.8938 1.257
O12A O -0.1872(9) -0.1288(7) 0.9587(3)
H11A H -0.1153 -0.1666 0.9475
H12A H -0.2763 -0.1652 0.9279
O13A O 0.0754(6) -0.2635(5) 0.8131(3)
H13A H -0.0132 -0.317 0.8285
H14A H 0.1135 -0.2532 0.7786
C1A C -0.3521(7) -0.3614(5) 1.1147(3)
C2A C -0.5240(7) -0.4466(5) 1.1096(3)
C3A C -0.5190(7) -0.5327(5) 1.1609(3)
C4A C -0.3480(7) -0.5034(5) 1.1971(3)
C5A C -0.2422(7) -0.3992(5) 1.1685(3)
C6A C -0.0722(7) -0.3460(5) 1.1858(3)
C7A C 0.0283(7) -0.3988(6) 1.2291(4)
C8A C 0.0201(8) -0.2388(6) 1.1575(4)
C9A C -0.6584(7) -0.4424(5) 1.0619(3)
C10A C -0.8194(8) -0.5324(6) 1.0559(4)
C11A C -0.6452(7) -0.3517(6) 1.0127(4)
C12A C -0.6499(6) -0.9594(4) 1.3761(3)
C13A C -0.7021(7) -0.8737(5) 1.4347(3)
C14A C -0.7585(6) -0.9278(4) 1.5043(3)
C15A C -0.7337(7) -1.0470(5) 1.4910(3)
C16A C -0.6687(6) -1.0664(5) 1.4095(3)
C17A C -0.6290(7) -1.1675(5) 1.3760(3)
C18A C -0.5666(9) -1.1813(6) 1.2968(4)
C19A C -0.6411(8) -1.2657(5) 1.4190(3)
C20A C -0.8211(7) -0.8788(5) 1.5732(3)
C21A C -0.8377(9) -0.7610(6) 1.5836(4)
C22A C -0.8732(9) -0.9426(6) 1.6403(4)
N1A N 0.1149(8) -0.4403(6) 1.2607(4)
N2A N 0.0996(10) -0.1527(8) 1.1367(6)
N3A N -0.9467(8) -0.6043(7) 1.0497(5)
N3_2 N -0.0533(8) -0.3957(7) 0.9503(5)
N3A_2 N 0.0533(8) 0.3957(7) 1.0497(5)
N4A N -0.6390(8) -0.2819(6) 0.9716(4)
N4_2 N -0.3610(8) 0.2819(6) 1.0284(4)
N4A_2 N 0.3610(8) -0.2819(6) 0.9716(4)
N5A N -0.5166(11) -1.1982(6) 1.2341(4)
N6A N -0.6430(9) -1.3451(5) 1.4483(4)
N7A N -0.8506(11) -0.6677(6) 1.5942(5)
N8A N -0.9211(11) -0.9879(7) 1.6939(4)
O14 O 0.0141(10) 0.6049(10) 0.5591(6)
H15 H 0.0342 0.6712 0.593
H16 H 0.0352 0.5526 0.5845
loop_
_geom_bond_atom_site_label_1
_geom_bond_atom_site_label_2
_geom_bond_site_symmetry_1
_geom_bond_site_symmetry_2
Nd1 O2 1_555 1_555
K1 O12 1_555 1_555
O1 C1 1_555 1_555
O2 C3 1_555 1_555
O3 Nd1 1_555 1_555
O4 Nd1 1_555 1_555
O5 Nd1 1_555 1_555
O6 C15 1_555 1_555
O7 Nd1 1_555 1_555
H1 O7 1_555 1_555
H2 O7 1_555 1_555
O8 Nd1 1_555 1_555
H3 O8 1_555 1_555
H4 O8 1_555 1_555
O9 Nd1 1_555 1_555
H5 O9 1_555 1_555
H6 O9 1_555 1_555
O10 Nd1 1_555 1_555
H7 O10 1_555 1_555
H8 O10 1_555 1_555
O11 Nd1 1_555 1_555
H9 O11 1_555 1_555
H10 O11 1_555 1_555
O12 H11 1_555 1_555
H12 O12 1_555 1_555
O13 K1 1_555 1_555
H13 O13 1_555 1_555
H14 O13 1_555 1_555
O14 H15 1_555 1_555
H16 O14 1_555 1_555
C1 C2 1_555 1_555
C2 C3 1_555 1_555
C3 C4 1_555 1_555
C4 O3 1_555 1_555
C5 C1 1_555 1_555
C6 C5 1_555 1_555
C7 C6 1_555 1_555
C8 C6 1_555 1_555
C9 C2 1_555 1_555
C10 C9 1_555 1_555
C11 C9 1_555 1_555
C12 O4 1_555 1_555
C13 O5 1_555 1_555
C14 C13 1_555 1_555
C15 C14 1_555 1_555
C16 C12 1_555 1_555
C17 C16 1_555 1_555
C18 C17 1_555 1_555
C19 C17 1_555 1_555
C20 C14 1_555 1_555
C21 C20 1_555 1_555
C22 C20 1_555 1_555
N1 C7 1_555 1_555
N2 K1 1_555 1_555
N3 C10 1_555 1_555
N4 C11 1_555 1_555
N5 C18 1_555 1_555
N6 C19 1_555 1_555
N7 C21 1_555 1_555
N8 C22 1_555 1_555
Nd1A O2A 1_555 1_555
K1A O12 1_555 1_555
K1_2 N3A 1_555 1_555
K1_3 N4 1_555 1_555
K1A_2 N4A 1_555 1_555
K1A_3 N3 1_555 1_555
O1A C1A 1_555 1_555
O2A C3A 1_555 1_555
O3A Nd1A 1_555 1_555
O4A Nd1A 1_555 1_555
O5A Nd1A 1_555 1_555
O6A C15A 1_555 1_555
O7A Nd1A 1_555 1_555
H1A O7A 1_555 1_555
H2A O7A 1_555 1_555
O8A Nd1A 1_555 1_555
H3A O8A 1_555 1_555
H4A O8A 1_555 1_555
O9A Nd1A 1_555 1_555
H5A O9A 1_555 1_555
H6A O9A 1_555 1_555
O10A Nd1A 1_555 1_555
H7A O10A 1_555 1_555
H8A O10A 1_555 1_555
O11A Nd1A 1_555 1_555
H9A O11A 1_555 1_555
H10A O11A 1_555 1_555
O12A K1 1_555 1_555
H11A O12A 1_555 1_555
H12A O12A 1_555 1_555
O13A K1A 1_555 1_555
H13A O13A 1_555 1_555
H14A O13A 1_555 1_555
C1A C2A 1_555 1_555
C2A C3A 1_555 1_555
C3A C4A 1_555 1_555
C4A O3A 1_555 1_555
C5A C1A 1_555 1_555
C6A C5A 1_555 1_555
C7A C6A 1_555 1_555
C8A C6A 1_555 1_555
C9A C2A 1_555 1_555
C10A C9A 1_555 1_555
C11A C9A 1_555 1_555
C12A O4A 1_555 1_555
C13A O5A 1_555 1_555
C14A C13A 1_555 1_555
C15A C14A 1_555 1_555
C16A C12A 1_555 1_555
C17A C16A 1_555 1_555
C18A C17A 1_555 1_555
C19A C17A 1_555 1_555
C20A C14A 1_555 1_555
C21A C20A 1_555 1_555
C22A C20A 1_555 1_555
N1A C7A 1_555 1_555
N2A K1A 1_555 1_555
N3A C10A 1_555 1_555
N3_2 K1A 1_555 1_555
N3A_2 K1 1_555 1_555
N4A C11A 1_555 1_555
N4_2 K1 1_555 1_555
N4A_2 K1A 1_555 1_555
N5A C18A 1_555 1_555
N6A C19A 1_555 1_555
N7A C21A 1_555 1_555
N8A C22A 1_555 1_555
C4 C5 1_555 1_555
C8 N2 1_555 1_555
C12 C13 1_555 1_555
C15 C16 1_555 1_555
K1A O12A 1_555 1_555
C4A C5A 1_555 1_555
C8A N2A 1_555 1_555
C12A C13A 1_555 1_555
C15A C16A 1_555 1_555

#END
