
#######################################################################
#
#                 Cambridge Crystallographic Data Centre
#                                CCDC 
#
#######################################################################
#
# If this CIF has been generated from an entry in the Cambridge 
# Structural Database, then it will include bibliographic, chemical, 
# crystal, experimental, refinement or atomic coordinate data resulting 
# from the CCDC's data processing and validation procedures.
#
#######################################################################

data_EKIRUM
_symmetry_cell_setting           triclinic
_symmetry_space_group_name_H-M   'P -1'
_symmetry_Int_Tables_number      2
_space_group_name_Hall           '-P 1'
loop_
_symmetry_equiv_pos_site_id
_symmetry_equiv_pos_as_xyz
1 x,y,z
2 -x,-y,-z
_cell_length_a                   9.4666(19)
_cell_length_b                   11.085(2)
_cell_length_c                   12.577(3)
_cell_angle_alpha                87.42(3)
_cell_angle_beta                 82.61(3)
_cell_angle_gamma                72.12(3)
_cell_volume                     1245.6
loop_
_atom_site_label
_atom_site_type_symbol
_atom_site_fract_x
_atom_site_fract_y
_atom_site_fract_z
Cd1 Cd 0.948345(11) 0.650631(10) -0.085574(8)
O1 O 0.75918(13) 0.57095(11) -0.16048(9)
O2 O 0.90069(13) 0.45303(11) -0.04636(10)
O3 O 1.09334(16) -0.20990(12) -0.09178(11)
O4 O 0.92351(13) -0.16929(12) -0.20288(11)
N1 N 0.74946(14) 0.75159(12) 0.03874(11)
N2 N 0.11543(15) 1.54513(12) 0.77011(11)
N3 N 0.42177(14) 1.04783(12) 0.33254(10)
N4 N 0.37227(15) 1.28823(13) 0.43472(10)
C1 C 0.60737(18) 0.78421(16) 0.01743(13)
H1 H 0.5882 0.7589 -0.0473
C2 C 0.48811(18) 0.85361(16) 0.08704(13)
H2 H 0.3915 0.8752 0.0683
C3 C 0.51276(17) 0.89125(14) 0.18548(12)
C4 C 0.65982(17) 0.85730(15) 0.20732(13)
H3 H 0.6820 0.8812 0.2716
C5 C 0.77334(17) 0.78797(15) 0.13346(13)
H4 H 0.8710 0.7654 0.1502
C6 C 0.38326(17) 0.96079(16) 0.26508(14)
H5 H 0.3010 1.0085 0.2266
H6 H 0.3497 0.8995 0.3106
C7 C 0.43832(18) 1.15908(15) 0.27107(12)
H7 H 0.3445 1.2047 0.2446
H8 H 0.5138 1.1321 0.2098
C8 C 0.48318(19) 1.24574(16) 0.34041(13)
H9 H 0.5796 1.2013 0.3637
H10 H 0.4932 1.3189 0.2985
C9 C 0.34789(18) 1.17784(15) 0.49399(12)
H11 H 0.2695 1.2065 0.5532
H12 H 0.4387 1.1303 0.5235
C10 C 0.30417(18) 1.09211(15) 0.42253(13)
H13 H 0.2893 1.0200 0.4637
H14 H 0.2109 1.1381 0.3954
C11 C 0.42746(19) 1.36362(18) 0.50164(15)
H15 H 0.4542 1.4293 0.4577
H16 H 0.5176 1.3095 0.5282
C12 C 0.26170(19) 1.49880(16) 0.77697(13)
H17 H 0.2961 1.5078 0.8412
C13 C 0.36439(18) 1.43814(16) 0.69330(14)
H18 H 0.4652 1.4061 0.7022
C14 C 0.31693(18) 1.42509(15) 0.59590(13)
C15 C 0.1652(2) 1.47418(18) 0.58843(14)
H19 H 0.1282 1.4678 0.5246
C16 C 0.06895(19) 1.53260(18) 0.67609(14)
H20 H -0.0326 1.5646 0.6696
C17 C 0.81195(17) 0.27613(15) -0.20260(13)
C18 C 0.80797(19) 0.31126(16) -0.31021(14)
H21 H 0.7489 0.3913 -0.3289
C19 C 0.8918(2) 0.22726(18) -0.38932(15)
H22 H 0.8871 0.2505 -0.4611
C20 C 0.9830(2) 0.10850(17) -0.36251(15)
H23 H 1.0390 0.0528 -0.4164
C21 C 0.99098(18) 0.07248(15) -0.25584(15)
C22 C 0.90309(17) 0.15677(15) -0.17673(13)
H24 H 0.9056 0.1325 -0.1051
C23 C 0.72498(18) 0.36845(16) -0.11413(14)
H25 H 0.7232 0.3235 -0.0462
H26 H 0.6226 0.4061 -0.1292
C24 C 0.79795(17) 0.47229(15) -0.10667(12)
C25 C 1.0995(2) -0.05113(17) -0.22440(19)
H27 H 1.1638 -0.0322 -0.1777
H28 H 1.1624 -0.0896 -0.2887
C26 C 1.03166(18) -0.14873(15) -0.16808(14)
Cd1A Cd 1.051655(11) 0.349369(10) 0.085574(8)
Cd1_2 Cd 0.948345(11) -0.349369(10) -0.085574(8)
Cd1_3 Cd -0.051655(11) 1.650631(10) 0.914426(8)
O2A O 1.09931(13) 0.54697(11) 0.04636(10)
O3_2 O 1.09334(16) 0.79010(12) -0.09178(11)
O4_2 O 0.92351(13) 0.83071(12) -0.20288(11)
N2_2 N 1.11543(15) 0.54513(12) -0.22989(11)
loop_
_geom_bond_atom_site_label_1
_geom_bond_atom_site_label_2
_geom_bond_site_symmetry_1
_geom_bond_site_symmetry_2
Cd1 O1 1_555 1_555
O1 C24 1_555 1_555
O2 Cd1 1_555 1_555
O3 C26 1_555 1_555
O4 C26 1_555 1_555
N1 Cd1 1_555 1_555
N2 C12 1_555 1_555
N3 C6 1_555 1_555
N4 C8 1_555 1_555
C1 N1 1_555 1_555
H1 C1 1_555 1_555
C2 C1 1_555 1_555
H2 C2 1_555 1_555
C3 C2 1_555 1_555
C4 C3 1_555 1_555
H3 C4 1_555 1_555
C5 N1 1_555 1_555
H4 C5 1_555 1_555
C6 C3 1_555 1_555
H5 C6 1_555 1_555
H6 C6 1_555 1_555
C7 N3 1_555 1_555
H7 C7 1_555 1_555
H8 C7 1_555 1_555
C8 C7 1_555 1_555
H9 C8 1_555 1_555
H10 C8 1_555 1_555
C9 N4 1_555 1_555
H11 C9 1_555 1_555
H12 C9 1_555 1_555
C10 N3 1_555 1_555
H13 C10 1_555 1_555
H14 C10 1_555 1_555
C11 N4 1_555 1_555
H15 C11 1_555 1_555
H16 C11 1_555 1_555
C12 H17 1_555 1_555
C13 C12 1_555 1_555
H18 C13 1_555 1_555
C14 C11 1_555 1_555
C15 C14 1_555 1_555
H19 C15 1_555 1_555
C16 N2 1_555 1_555
H20 C16 1_555 1_555
C17 C18 1_555 1_555
C18 H21 1_555 1_555
C19 C18 1_555 1_555
H22 C19 1_555 1_555
C20 C19 1_555 1_555
H23 C20 1_555 1_555
C21 C20 1_555 1_555
C22 C17 1_555 1_555
H24 C22 1_555 1_555
C23 C17 1_555 1_555
H25 C23 1_555 1_555
H26 C23 1_555 1_555
C24 O2 1_555 1_555
C25 C21 1_555 1_555
H27 C25 1_555 1_555
H28 C25 1_555 1_555
C26 C25 1_555 1_555
Cd1A O2 1_555 1_555
Cd1_2 O3 1_555 1_555
Cd1_3 N2 1_555 1_555
O2A Cd1 1_555 1_555
O3_2 Cd1 1_555 1_555
O4_2 Cd1 1_555 1_555
N2_2 Cd1 1_555 1_555
O4 Cd1_2 1_555 1_555
C4 C5 1_555 1_555
C9 C10 1_555 1_555
C13 C14 1_555 1_555
C15 C16 1_555 1_555
C21 C22 1_555 1_555
C23 C24 1_555 1_555
Cd1A O2A 1_555 1_555

#END
