
#######################################################################
#
#                 Cambridge Crystallographic Data Centre
#                                CCDC 
#
#######################################################################
#
# If this CIF has been generated from an entry in the Cambridge 
# Structural Database, then it will include bibliographic, chemical, 
# crystal, experimental, refinement or atomic coordinate data resulting 
# from the CCDC's data processing and validation procedures.
#
#######################################################################

data_EKIRAR
_symmetry_cell_setting           monoclinic
_symmetry_space_group_name_H-M   'P 2/a'
_symmetry_Int_Tables_number      13
_space_group_name_Hall           '-P 2ya'
loop_
_symmetry_equiv_pos_site_id
_symmetry_equiv_pos_as_xyz
1 x,y,z
2 1/2-x,y,-z
3 -x,-y,-z
4 1/2+x,-y,z
_cell_length_a                   13.528(3)
_cell_length_b                   9.435(2)
_cell_length_c                   12.836(4)
_cell_angle_alpha                90
_cell_angle_beta                 118.33(2)
_cell_angle_gamma                90
_cell_volume                     1442.12
loop_
_atom_site_label
_atom_site_type_symbol
_atom_site_fract_x
_atom_site_fract_y
_atom_site_fract_z
Cu1 Cu 0.2496(1) 0.7048(1) 0.2403(1)
S1 S 0.5137(1) 0.5642(2) 0.4402(2)
S2 S -0.0281(1) 0.6063(2) -0.0238(1)
O1 O 0.4350(4) 0.6808(5) 0.4109(4)
O2 O 0.4879(5) 0.4718(7) 0.3395(5)
O3 O 0.6312(4) 0.6080(7) 0.5075(6)
O4 O 0.0582(4) 0.6950(5) 0.0669(4)
O5 O -0.1359(4) 0.6109(6) -0.0240(5)
O6 O -0.0396(4) 0.6251(6) -0.1418(4)
O7 O 0.2067(4) 0.5419(5) 0.3080(4)
O8 O 0.2989(4) 0.5808(6) 0.1494(4)
N1 N 0.1897(4) 0.8463(6) 0.3097(4)
N2 N 0.2984(4) 0.8803(6) 0.1916(4)
C1 C 0.1336(6) 0.8175(8) 0.3705(6)
C2 C 0.0928(6) 0.9234(9) 0.4137(7)
C3 C 0.1089(7) 1.0608(9) 0.3945(7)
C4 C 0.1664(7) 1.0934(8) 0.3312(7)
C5 C 0.2057(5) 0.9820(7) 0.2912(5)
C6 C 0.2712(5) 1.0013(7) 0.2268(6)
C7 C 0.3032(7) 1.1336(9) 0.2055(7)
C8 C 0.3658(8) 1.1389(10) 0.1449(8)
C9 C 0.3930(7) 1.0156(11) 0.1097(7)
C10 C 0.3593(6) 0.8876(9) 0.1337(6)
S1B S 0.4863(1) 0.4358(2) 0.5598(2)
O1B O 0.5650(4) 0.3192(5) 0.5891(4)
O2B O 0.5121(5) 0.5282(7) 0.6605(5)
O3B O 0.3688(4) 0.3920(7) 0.4925(6)
S2B S 0.0281(1) 0.3937(2) 0.0238(1)
O4B O -0.0582(4) 0.3050(5) -0.0669(4)
O5B O 0.1359(4) 0.3891(6) 0.0240(5)
O6B O 0.0396(4) 0.3749(6) 0.1418(4)
Cu1B Cu 0.7504(1) 0.2952(1) 0.7597(1)
O7B O 0.7933(4) 0.4581(5) 0.6920(4)
O8B O 0.7011(4) 0.4192(6) 0.8506(4)
N1B N 0.8103(4) 0.1537(6) 0.6903(4)
N2B N 0.7016(4) 0.1197(6) 0.8084(4)
C1B C 0.8664(6) 0.1825(8) 0.6295(6)
C2B C 0.9072(6) 0.0766(9) 0.5863(7)
C3B C 0.8911(7) -0.0608(9) 0.6055(7)
C4B C 0.8336(7) -0.0934(8) 0.6688(7)
C5B C 0.7943(5) 0.0180(7) 0.7088(5)
C6B C 0.7288(5) -0.0013(7) 0.7732(6)
C7B C 0.6968(7) -0.1336(9) 0.7945(7)
C8B C 0.6342(8) -0.1389(10) 0.8551(8)
C9B C 0.6070(7) -0.0156(11) 0.8903(7)
C10B C 0.6407(6) 0.1124(9) 0.8663(6)
Cu1B_2 Cu -0.2496(1) 0.2952(1) -0.2403(1)
O4B_2 O 0.9418(4) 0.3050(5) 0.9331(4)
loop_
_geom_bond_atom_site_label_1
_geom_bond_atom_site_label_2
_geom_bond_site_symmetry_1
_geom_bond_site_symmetry_2
Cu1 O1 1_555 1_555
S1 O1 1_555 1_555
S2 O4 1_555 1_555
O2 S1 1_555 1_555
O3 S1 1_555 1_555
O4 Cu1 1_555 1_555
O5 S2 1_555 1_555
O6 S2 1_555 1_555
O7 Cu1 1_555 1_555
O8 Cu1 1_555 1_555
N1 Cu1 1_555 1_555
N2 Cu1 1_555 1_555
C1 N1 1_555 1_555
C2 C1 1_555 1_555
C3 C2 1_555 1_555
C4 C3 1_555 1_555
C5 N1 1_555 1_555
C6 N2 1_555 1_555
C7 C6 1_555 1_555
C8 C7 1_555 1_555
C9 C8 1_555 1_555
C10 N2 1_555 1_555
S1B S1 1_555 1_555
O1B S1B 1_555 1_555
O2B S1B 1_555 1_555
O3B S1B 1_555 1_555
S2B S2 1_555 1_555
O4B S2B 1_555 1_555
O5B S2B 1_555 1_555
O6B S2B 1_555 1_555
Cu1B O1B 1_555 1_555
O7B Cu1B 1_555 1_555
O8B Cu1B 1_555 1_555
N1B Cu1B 1_555 1_555
N2B Cu1B 1_555 1_555
C1B N1B 1_555 1_555
C2B C1B 1_555 1_555
C3B C2B 1_555 1_555
C4B C3B 1_555 1_555
C5B N1B 1_555 1_555
C6B N2B 1_555 1_555
C7B C6B 1_555 1_555
C8B C7B 1_555 1_555
C9B C8B 1_555 1_555
C10B N2B 1_555 1_555
Cu1B_2 O4B 1_555 1_555
O4B_2 Cu1B 1_555 1_555
C4 C5 1_555 1_555
C5 C6 1_555 1_555
C9 C10 1_555 1_555
C4B C5B 1_555 1_555
C5B C6B 1_555 1_555
C9B C10B 1_555 1_555

#END
