
#######################################################################
#
#                 Cambridge Crystallographic Data Centre
#                                CCDC 
#
#######################################################################
#
# If this CIF has been generated from an entry in the Cambridge 
# Structural Database, then it will include bibliographic, chemical, 
# crystal, experimental, refinement or atomic coordinate data resulting 
# from the CCDC's data processing and validation procedures.
#
#######################################################################

data_EKISAT
_symmetry_cell_setting           triclinic
_symmetry_space_group_name_H-M   'P -1'
_symmetry_Int_Tables_number      2
_space_group_name_Hall           '-P 1'
loop_
_symmetry_equiv_pos_site_id
_symmetry_equiv_pos_as_xyz
1 x,y,z
2 -x,-y,-z
_cell_length_a                   9.431(3)
_cell_length_b                   11.545(4)
_cell_length_c                   12.924(5)
_cell_angle_alpha                89.603(4)
_cell_angle_beta                 68.964(5)
_cell_angle_gamma                77.068(6)
_cell_volume                     1275.91
loop_
_atom_site_label
_atom_site_type_symbol
_atom_site_fract_x
_atom_site_fract_y
_atom_site_fract_z
Cd1 Cd 0.36726(5) 0.63686(3) 0.60008(3)
O1 O 0.1781(4) 0.7895(3) 0.7358(3)
O4 O 0.4248(4) 0.8006(3) 0.6696(3)
O5 O 0.3733(5) 1.4475(3) 0.5127(3)
O6 O 0.1432(4) 1.5548(3) 0.6148(3)
N1 N 0.4104(6) 0.5218(4) 0.7398(4)
N2 N 0.3630(5) 0.2566(4) 1.0662(3)
N3 N 0.2761(5) 0.0478(3) 1.1705(3)
N4 N 0.3134(5) -0.2479(3) 1.4642(3)
C1 C 0.5514(7) 0.4831(5) 0.7436(4)
H3 H 0.6373 0.5051 0.6885
C2 C 0.5794(7) 0.4127(5) 0.8236(5)
H4 H 0.6833 0.3852 0.8215
C3 C 0.4574(7) 0.3820(4) 0.9067(4)
C4 C 0.3103(7) 0.4234(5) 0.9038(5)
H5 H 0.2222 0.4046 0.9593
C5 C 0.2914(8) 0.4922(5) 0.8202(5)
H6 H 0.1890 0.5200 0.8196
C6 C 0.4892(7) 0.3080(5) 0.9961(4)
H7 H 0.5824 0.2422 0.9600
H8 H 0.5158 0.3585 1.0446
C7 C 0.4047(7) 0.2097(5) 1.1605(4)
H9 H 0.4123 0.2763 1.2045
H10 H 0.5084 0.1530 1.1317
C8 C 0.2863(7) 0.1479(4) 1.2343(4)
H11 H 0.3172 0.1183 1.2971
H12 H 0.1829 0.2048 1.2653
C9 C 0.2283(6) 0.0952(5) 1.0792(4)
H13 H 0.1248 0.1521 1.1101
H14 H 0.2188 0.0291 1.0356
C10 C 0.3470(6) 0.1577(4) 1.0039(4)
H15 H 0.4495 0.1000 0.9708
H16 H 0.3135 0.1886 0.9426
C11 C 0.1661(6) -0.0169(5) 1.2404(4)
H17 H 0.1414 -0.0689 1.1919
H18 H 0.0678 0.0413 1.2841
C12 C 0.2232(6) -0.0926(4) 1.3196(4)
C13 C 0.3781(6) -0.1343(4) 1.3058(4)
H19 H 0.4569 -0.1101 1.2461
C14 C 0.4193(6) -0.2105(4) 1.3778(4)
H20 H 0.5270 -0.2380 1.3662
C15 C 0.1623(6) -0.2062(4) 1.4783(4)
H21 H 0.0851 -0.2306 1.5389
C16 C 0.1145(6) -0.1300(4) 1.4093(4)
H22 H 0.0061 -0.1026 1.4230
C17 C 0.2834(7) 0.8412(4) 0.7288(4)
C18 C 0.2376(7) 0.9642(4) 0.7922(4)
H23 H 0.1382 0.9711 0.8562
H24 H 0.3190 0.9705 0.8220
C19 C 0.2182(6) 1.0666(4) 0.7208(4)
C20 C 0.1193(7) 1.1755(4) 0.7713(5)
H25 H 0.0646 1.1839 0.8495
C21 C 0.0993(7) 1.2715(5) 0.7098(5)
H26 H 0.0310 1.3452 0.7460
C22 C 0.1779(7) 1.2612(4) 0.5960(5)
C23 C 0.2777(6) 1.1543(4) 0.5453(5)
H27 H 0.3340 1.1464 0.4673
C24 C 0.2966(6) 1.0580(5) 0.6076(5)
H28 H 0.3652 0.9844 0.5714
C25 C 0.1543(7) 1.3675(5) 0.5293(5)
H29 H 0.2018 1.3413 0.4490
H30 H 0.0410 1.4009 0.5481
C26 C 0.2272(7) 1.4630(4) 0.5531(4)
Cd1A Cd 0.63274(5) 1.36314(3) 0.39992(3)
Cd1_2 Cd 0.36726(5) 1.63686(3) 0.60008(3)
Cd1_3 Cd 0.36726(5) -0.36314(3) 1.60008(3)
O5A O 0.6267(5) 0.5525(3) 0.4873(3)
O5_2 O 0.3733(5) 0.4475(3) 0.5127(3)
O6_2 O 0.1432(4) 0.5548(3) 0.6148(3)
N4_2 N 0.3134(5) 0.7521(3) 0.4642(3)
O2 O -0.1121(7) 1.5451(4) 0.8101(5)
H1 H -0.168(8) 1.608(4) 0.855(5)
H2 H -0.048(8) 1.564(7) 0.748(4)
O3 O 0.115(3) 0.731(3) 0.9754(17)
loop_
_geom_bond_atom_site_label_1
_geom_bond_atom_site_label_2
_geom_bond_site_symmetry_1
_geom_bond_site_symmetry_2
Cd1 O1 1_555 1_555
O1 C17 1_555 1_555
O2 H1 1_555 1_555
H2 O2 1_555 1_555
O4 Cd1 1_555 1_555
O5 C26 1_555 1_555
O6 C26 1_555 1_555
N1 Cd1 1_555 1_555
N2 C6 1_555 1_555
N3 C8 1_555 1_555
N4 C14 1_555 1_555
C1 N1 1_555 1_555
H3 C1 1_555 1_555
C2 C1 1_555 1_555
H4 C2 1_555 1_555
C3 C2 1_555 1_555
C4 C3 1_555 1_555
H5 C4 1_555 1_555
C5 N1 1_555 1_555
H6 C5 1_555 1_555
C6 C3 1_555 1_555
H7 C6 1_555 1_555
H8 C6 1_555 1_555
C7 N2 1_555 1_555
H9 C7 1_555 1_555
H10 C7 1_555 1_555
C8 C7 1_555 1_555
H11 C8 1_555 1_555
H12 C8 1_555 1_555
C9 N3 1_555 1_555
H13 C9 1_555 1_555
H14 C9 1_555 1_555
C10 N2 1_555 1_555
H15 C10 1_555 1_555
H16 C10 1_555 1_555
C11 N3 1_555 1_555
H17 C11 1_555 1_555
H18 C11 1_555 1_555
C12 C11 1_555 1_555
C13 C12 1_555 1_555
H19 C13 1_555 1_555
C14 C13 1_555 1_555
H20 C14 1_555 1_555
C15 N4 1_555 1_555
H21 C15 1_555 1_555
C16 C12 1_555 1_555
H22 C16 1_555 1_555
C17 O4 1_555 1_555
C18 C17 1_555 1_555
H23 C18 1_555 1_555
H24 C18 1_555 1_555
C19 C18 1_555 1_555
C20 C19 1_555 1_555
H25 C20 1_555 1_555
C21 C20 1_555 1_555
H26 C21 1_555 1_555
C22 C21 1_555 1_555
C23 C22 1_555 1_555
H27 C23 1_555 1_555
C24 C19 1_555 1_555
H28 C24 1_555 1_555
C25 C22 1_555 1_555
H29 C25 1_555 1_555
H30 C25 1_555 1_555
C26 C25 1_555 1_555
Cd1A O5 1_555 1_555
Cd1_2 O5 1_555 1_555
Cd1_3 N4 1_555 1_555
O5A Cd1 1_555 1_555
O5_2 Cd1 1_555 1_555
O6_2 Cd1 1_555 1_555
N4_2 Cd1 1_555 1_555
O6 Cd1_2 1_555 1_555
C4 C5 1_555 1_555
C9 C10 1_555 1_555
C15 C16 1_555 1_555
C23 C24 1_555 1_555

#END
