
#######################################################################
#
#                 Cambridge Crystallographic Data Centre
#                                CCDC 
#
#######################################################################
#
# If this CIF has been generated from an entry in the Cambridge 
# Structural Database, then it will include bibliographic, chemical, 
# crystal, experimental, refinement or atomic coordinate data resulting 
# from the CCDC's data processing and validation procedures.
#
#######################################################################

data_EKITIC
_symmetry_cell_setting           monoclinic
_symmetry_space_group_name_H-M   'C 2/c'
_symmetry_Int_Tables_number      15
_space_group_name_Hall           '-C 2yn'
loop_
_symmetry_equiv_pos_site_id
_symmetry_equiv_pos_as_xyz
1 x,y,z
2 1/2+x,1/2+y,z
3 -x,y,1/2-z
4 1/2-x,1/2+y,1/2-z
5 -x,-y,-z
6 1/2-x,1/2-y,-z
7 x,-y,1/2+z
8 1/2+x,1/2-y,1/2+z
_cell_length_a                   23.208(10)
_cell_length_b                   5.575(2)
_cell_length_c                   16.581(8)
_cell_angle_alpha                90
_cell_angle_beta                 114.765(15)
_cell_angle_gamma                90
_cell_volume                     1948.03
loop_
_atom_site_label
_atom_site_type_symbol
_atom_site_fract_x
_atom_site_fract_y
_atom_site_fract_z
Cu1 Cu 0.5000 0.16834(6) 0.2500
O1 O 0.5000 -0.2262(4) 0.2500
O2 O 0.47398(7) 0.1573(3) 0.34742(9)
N1 N 0.40875(7) 0.2102(3) 0.16174(10)
O3 O 0.44031(10) 0.5335(3) 0.33598(13)
N2 N 0.32070(13) -0.1848(4) 0.31658(17)
O4 O 0.29264(9) 0.1705(4) 0.35164(15)
C1 C 0.36519(10) 0.0498(4) 0.15850(15)
C2 C 0.30300(10) 0.0598(5) 0.09703(16)
C3 C 0.28319(9) 0.2428(4) 0.03451(12)
C4 C 0.32841(9) 0.4114(4) 0.03939(14)
C5 C 0.38980(10) 0.3891(4) 0.10305(14)
C6 C 0.44809(9) 0.3303(4) 0.36885(13)
C7 C 0.42737(11) 0.2809(4) 0.44266(15)
C8 C 0.39820(10) 0.0351(4) 0.43857(15)
C9 C 0.33218(10) 0.0136(4) 0.36396(15)
H1 H 0.3460(14) -0.274(5) 0.3215(17)
H2 H 0.2881(16) -0.207(6) 0.282(2)
H3 H 0.5165(14) -0.313(5) 0.2235(19)
H4 H 0.3785(13) -0.076(5) 0.1990(18)
H5 H 0.2775(15) -0.048(6) 0.0992(19)
H6 H 0.3189(11) 0.541(5) 0.0013(16)
H7 H 0.4182(13) 0.493(5) 0.1045(16)
H8 H 0.3990(12) 0.404(5) 0.4418(15)
H9 H 0.4647(13) 0.296(5) 0.4985(18)
H10 H 0.3923(13) 0.009(5) 0.4944(19)
H11 H 0.4267(13) -0.087(5) 0.4343(17)
Cu1E Cu 0.0000 0.33166(6) -0.2500
O2B O 0.52602(7) 0.1573(3) 0.15258(9)
N1E N 0.09125(7) 0.2898(3) -0.16174(10)
N1B N 0.59125(7) 0.2102(3) 0.33826(10)
O3B O 0.55969(10) 0.5335(3) 0.16402(13)
N2B N 0.67930(13) -0.1848(4) 0.18342(17)
O4B O 0.70736(9) 0.1705(4) 0.14836(15)
C1E C 0.13481(10) 0.4502(4) -0.15850(15)
C2E C 0.19700(10) 0.4402(5) -0.09703(16)
C3E C 0.21681(9) 0.2572(4) -0.03451(12)
C4E C 0.17159(9) 0.0886(4) -0.03939(14)
C5E C 0.11020(10) 0.1109(4) -0.10305(14)
C6B C 0.55191(9) 0.3303(4) 0.13115(13)
C7B C 0.57263(11) 0.2809(4) 0.05734(15)
C8B C 0.60180(10) 0.0351(4) 0.06143(15)
C9B C 0.66782(10) 0.0136(4) 0.13604(15)
H1B H 0.6540(14) -0.274(5) 0.1785(17)
H2B H 0.7119(16) -0.207(6) 0.218(2)
H3B H 0.4835(14) -0.313(5) 0.2765(19)
H4E H 0.1215(13) 0.576(5) -0.1990(18)
H5E H 0.2225(15) 0.548(6) -0.0992(19)
H6E H 0.1811(11) -0.041(5) -0.0013(16)
H7E H 0.0818(13) 0.007(5) -0.1045(16)
H8B H 0.6010(12) 0.404(5) 0.0582(15)
H9B H 0.5353(13) 0.296(5) 0.0015(18)
H10B H 0.6077(13) 0.009(5) 0.0056(19)
H11B H 0.5733(13) -0.087(5) 0.0657(17)
loop_
_geom_bond_atom_site_label_1
_geom_bond_atom_site_label_2
_geom_bond_site_symmetry_1
_geom_bond_site_symmetry_2
Cu1 O1 1_555 1_555
O1 H3 1_555 1_555
O2 Cu1 1_555 1_555
N1 Cu1 1_555 1_555
O3 C6 1_555 1_555
N2 C9 1_555 1_555
O4 C9 1_555 1_555
C1 N1 1_555 1_555
C2 C1 1_555 1_555
C3 C2 1_555 1_555
C4 C3 1_555 1_555
C5 N1 1_555 1_555
C6 O2 1_555 1_555
C7 C6 1_555 1_555
C8 C7 1_555 1_555
C9 C8 1_555 1_555
H1 N2 1_555 1_555
H2 N2 1_555 1_555
H4 C1 1_555 1_555
H5 C2 1_555 1_555
H6 C4 1_555 1_555
H7 C5 1_555 1_555
H8 C7 1_555 1_555
H9 C7 1_555 1_555
H10 C8 1_555 1_555
H11 C8 1_555 1_555
Cu1E N1E 1_555 1_555
O2B Cu1 1_555 1_555
N1E C1E 1_555 1_555
N1B Cu1 1_555 1_555
O3B C6B 1_555 1_555
N2B C9B 1_555 1_555
O4B C9B 1_555 1_555
C1E C2E 1_555 1_555
C2E C3E 1_555 1_555
C3E C3 1_555 1_555
C4E C3E 1_555 1_555
C5E N1E 1_555 1_555
C6B O2B 1_555 1_555
C7B C6B 1_555 1_555
C8B C7B 1_555 1_555
C9B C8B 1_555 1_555
H1B N2B 1_555 1_555
H2B N2B 1_555 1_555
H3B O1 1_555 1_555
H4E C1E 1_555 1_555
H5E C2E 1_555 1_555
H6E C4E 1_555 1_555
H7E C5E 1_555 1_555
H8B C7B 1_555 1_555
H9B C7B 1_555 1_555
H10B C8B 1_555 1_555
H11B C8B 1_555 1_555
C4 C5 1_555 1_555
C4E C5E 1_555 1_555

#END
