
#######################################################################
#
#                 Cambridge Crystallographic Data Centre
#                                CCDC 
#
#######################################################################
#
# If this CIF has been generated from an entry in the Cambridge 
# Structural Database, then it will include bibliographic, chemical, 
# crystal, experimental, refinement or atomic coordinate data resulting 
# from the CCDC's data processing and validation procedures.
#
#######################################################################

data_EKOCEN
_symmetry_cell_setting           monoclinic
_symmetry_space_group_name_H-M   'P 21'
_symmetry_Int_Tables_number      4
_space_group_name_Hall           'P 2yb'
loop_
_symmetry_equiv_pos_site_id
_symmetry_equiv_pos_as_xyz
1 x,y,z
2 -x,1/2+y,-z
_cell_length_a                   9.9755(4)
_cell_length_b                   10.2081(3)
_cell_length_c                   15.5449(6)
_cell_angle_alpha                90
_cell_angle_beta                 102.087(1)
_cell_angle_gamma                90
_cell_volume                     1547.86
loop_
_atom_site_label
_atom_site_type_symbol
_atom_site_fract_x
_atom_site_fract_y
_atom_site_fract_z
Zn1 Zn 0.35540(2) -0.32228(4) 0.768360(13)
N1 N 0.1451(2) -0.3542(3) 0.72892(16)
H1 H 0.1047 -0.3499 0.7755
H2 H 0.1070 -0.2932 0.6894
N2 N 0.3650(2) -0.4839(2) 0.67852(14)
H3 H 0.3963 -0.5570 0.7099
N3 N 0.4655(3) -0.2303(3) 0.68400(14)
H4 H 0.4330 -0.1488 0.6716
H5 H 0.5544 -0.2241 0.7109
N4 N 0.3669(2) -0.1558(2) 0.85446(13)
O1 O 0.6070(2) 0.0679(2) 1.12447(12)
O2 O 0.3918(2) 0.0889(2) 1.13883(13)
C1 C 0.1276(3) -0.4868(4) 0.6889(2)
H6 H 0.0346 -0.4966 0.6552
H7 H 0.1430 -0.5526 0.7348
C2 C 0.2267(3) -0.5062(4) 0.6300(2)
H8 H 0.2186 -0.5947 0.6068
H9 H 0.2056 -0.4458 0.5808
C3 C 0.4681(3) -0.4412(4) 0.6245(2)
H10 H 0.5602 -0.4580 0.6575
H11 H 0.4543 -0.4921 0.5707
C4 C 0.4536(3) -0.3040(5) 0.60303(17)
H12 H 0.3650 -0.2878 0.5648
H13 H 0.5244 -0.2770 0.5725
C5 C 0.4911(3) -0.1055(3) 0.88176(18)
H14 H 0.5551 -0.1164 0.8466
C6 C 0.5297(3) -0.0384(3) 0.95929(17)
H15 H 0.6186 -0.0065 0.9764
C7 C 0.4363(2) -0.0184(2) 1.01180(14)
C8 C 0.3063(3) -0.0652(3) 0.98194(17)
H16 H 0.2390 -0.0513 1.0143
C9 C 0.2759(3) -0.1328(3) 0.90381(17)
H17 H 0.1871 -0.1640 0.8846
C10 C 0.4777(3) 0.0514(3) 1.09864(16)
Zn1A Zn 0.64460(2) 0.17772(4) 1.231640(13)
O1A O 0.3930(2) -0.4321(2) 0.87553(12)
B1 B 0.2026(2) -0.3369(3) 0.27869(14)
C11 C 0.0982(2) -0.2589(2) 0.19922(14)
C12 C -0.0282(2) -0.3092(4) 0.15531(15)
H18 H -0.0528 -0.3937 0.1682
C13 C -0.1183(3) -0.2361(4) 0.09278(19)
H19 H -0.2017 -0.2723 0.0651
C14 C -0.0856(3) -0.1127(4) 0.07173(18)
H20 H -0.1456 -0.0654 0.0290
C15 C 0.0368(3) -0.0579(3) 0.11401(16)
H21 H 0.0598 0.0269 0.1008
C16 C 0.1249(3) -0.1312(3) 0.17632(17)
H22 H 0.2069 -0.0929 0.2046
C17 C 0.1829(2) -0.4958(2) 0.27546(16)
C18 C 0.1961(2) -0.5745(2) 0.34943(17)
H23 H 0.2071 -0.5348 0.4043
C19 C 0.1936(3) -0.7117(3) 0.3447(2)
H24 H 0.2021 -0.7613 0.3957
C20 C 0.1787(3) -0.7726(3) 0.2647(2)
H25 H 0.1773 -0.8636 0.2612
C21 C 0.1659(3) -0.6983(3) 0.1900(2)
H26 H 0.1564 -0.7391 0.1356
C22 C 0.1669(3) -0.5635(3) 0.19514(19)
H27 H 0.1567 -0.5153 0.1434
C23 C 0.36475(18) -0.3185(4) 0.27368(12)
C24 C 0.4107(2) -0.2853(2) 0.19742(15)
H28 H 0.3459 -0.2637 0.1472
C25 C 0.5487(3) -0.2831(3) 0.19323(19)
H29 H 0.5737 -0.2610 0.1407
C26 C 0.6473(2) -0.3131(4) 0.2649(2)
H30 H 0.7396 -0.3105 0.2623
C27 C 0.6084(3) -0.3469(4) 0.3410(2)
H31 H 0.6748 -0.3692 0.3903
C28 C 0.4694(2) -0.3485(3) 0.34575(17)
H32 H 0.4462 -0.3703 0.3989
C29 C 0.1688(2) -0.2706(2) 0.36836(14)
C30 C 0.2367(3) -0.1608(3) 0.40789(17)
H33 H 0.3112 -0.1282 0.3872
C31 C 0.1962(4) -0.0975(3) 0.4782(2)
H34 H 0.2422 -0.0224 0.5021
C32 C 0.0897(5) -0.1448(4) 0.51228(19)
H35 H 0.0654 -0.1047 0.5606
C33 C 0.0216(4) -0.2494(4) 0.47475(19)
H36 H -0.0514 -0.2819 0.4969
C34 C 0.0574(2) -0.3105(3) 0.40370(14)
H37 H 0.0053 -0.3813 0.3781
loop_
_geom_bond_atom_site_label_1
_geom_bond_atom_site_label_2
_geom_bond_site_symmetry_1
_geom_bond_site_symmetry_2
Zn1 N1 1_555 1_555
N1 H1 1_555 1_555
H2 N1 1_555 1_555
N2 Zn1 1_555 1_555
H3 N2 1_555 1_555
N3 Zn1 1_555 1_555
H4 N3 1_555 1_555
H5 N3 1_555 1_555
N4 Zn1 1_555 1_555
O1 C10 1_555 1_555
O2 C10 1_555 1_555
C1 N1 1_555 1_555
H6 C1 1_555 1_555
H7 C1 1_555 1_555
C2 N2 1_555 1_555
H8 C2 1_555 1_555
H9 C2 1_555 1_555
C3 N2 1_555 1_555
H10 C3 1_555 1_555
H11 C3 1_555 1_555
C4 N3 1_555 1_555
H12 C4 1_555 1_555
H13 C4 1_555 1_555
C5 N4 1_555 1_555
H14 C5 1_555 1_555
C6 C5 1_555 1_555
H15 C6 1_555 1_555
C7 C6 1_555 1_555
C8 C7 1_555 1_555
H16 C8 1_555 1_555
C9 N4 1_555 1_555
H17 C9 1_555 1_555
C10 C7 1_555 1_555
B1 C11 1_555 1_555
C11 C12 1_555 1_555
C12 H18 1_555 1_555
C13 C12 1_555 1_555
H19 C13 1_555 1_555
C14 C13 1_555 1_555
H20 C14 1_555 1_555
C15 C14 1_555 1_555
H21 C15 1_555 1_555
C16 C11 1_555 1_555
H22 C16 1_555 1_555
C17 B1 1_555 1_555
C18 C17 1_555 1_555
H23 C18 1_555 1_555
C19 C18 1_555 1_555
H24 C19 1_555 1_555
C20 C19 1_555 1_555
H25 C20 1_555 1_555
C21 C20 1_555 1_555
H26 C21 1_555 1_555
C22 C17 1_555 1_555
H27 C22 1_555 1_555
C23 B1 1_555 1_555
C24 C23 1_555 1_555
H28 C24 1_555 1_555
C25 C24 1_555 1_555
H29 C25 1_555 1_555
C26 C25 1_555 1_555
H30 C26 1_555 1_555
C27 C26 1_555 1_555
H31 C27 1_555 1_555
C28 C23 1_555 1_555
H32 C28 1_555 1_555
C29 B1 1_555 1_555
C30 C29 1_555 1_555
H33 C30 1_555 1_555
C31 C30 1_555 1_555
H34 C31 1_555 1_555
C32 C31 1_555 1_555
H35 C32 1_555 1_555
C33 C32 1_555 1_555
H36 C33 1_555 1_555
C34 C29 1_555 1_555
H37 C34 1_555 1_555
Zn1A O1 1_555 1_555
O1A Zn1 1_555 1_555
C1 C2 1_555 1_555
C3 C4 1_555 1_555
C8 C9 1_555 1_555
C15 C16 1_555 1_555
C21 C22 1_555 1_555
C27 C28 1_555 1_555
C33 C34 1_555 1_555

#END
