
#######################################################################
#
#                 Cambridge Crystallographic Data Centre
#                                CCDC 
#
#######################################################################
#
# If this CIF has been generated from an entry in the Cambridge 
# Structural Database, then it will include bibliographic, chemical, 
# crystal, experimental, refinement or atomic coordinate data resulting 
# from the CCDC's data processing and validation procedures.
#
#######################################################################

data_EKOFOA
_symmetry_cell_setting           monoclinic
_symmetry_space_group_name_H-M   'C 2/c'
_symmetry_Int_Tables_number      15
_space_group_name_Hall           '-C 2yn'
loop_
_symmetry_equiv_pos_site_id
_symmetry_equiv_pos_as_xyz
1 x,y,z
2 -x,y,1/2-z
3 1/2+x,1/2+y,z
4 1/2-x,1/2+y,1/2-z
5 -x,-y,-z
6 x,-y,1/2+z
7 1/2-x,1/2-y,-z
8 1/2+x,1/2-y,1/2+z
_cell_length_a                   23.686(6)
_cell_length_b                   11.464(3)
_cell_length_c                   13.894(3)
_cell_angle_alpha                90
_cell_angle_beta                 109.884(4)
_cell_angle_gamma                90
_cell_volume                     3547.81
loop_
_atom_site_label
_atom_site_type_symbol
_atom_site_fract_x
_atom_site_fract_y
_atom_site_fract_z
Zn1 Zn 0.2500 0.2500 0.5000
N1 N 0.34499(19) 0.0610(4) 0.5537(3)
N2 N 0.34068(19) 0.1769(4) 0.5549(3)
N3 N 0.39505(19) 0.2308(4) 0.5813(3)
C1 C 0.4345(2) 0.1431(4) 0.5978(4)
N4 N 0.49625(18) 0.1504(4) 0.6256(3)
C2 C 0.5276(3) 0.2628(5) 0.6394(5)
H1 H 0.5557 0.2694 0.7097
H2 H 0.4982 0.3263 0.6257
H3 H 0.5497 0.2679 0.5914
C3 C 0.5293(2) 0.0494(5) 0.6391(4)
O1 O 0.58396(17) 0.0505(4) 0.6636(3)
N5 N 0.49793(19) -0.0567(4) 0.6234(3)
C4 C 0.5351(2) -0.1631(5) 0.6425(4)
H4 H 0.5637 -0.1588 0.6056
H5 H 0.5091 -0.2313 0.6190
H6 H 0.5572 -0.1703 0.7161
C5 C 0.4352(2) -0.0722(5) 0.5924(4)
O2 O 0.41277(17) -0.1698(3) 0.5798(3)
C6 C 0.4042(2) 0.0376(4) 0.5805(4)
N6 N 0.25001(18) 0.2630(3) 0.6614(3)
C7 C 0.2928(3) 0.2107(5) 0.7373(4)
H7 H 0.3245 0.1721 0.7228
C8 C 0.2914(3) 0.2123(6) 0.8380(5)
H8 H 0.3222 0.1742 0.8911
C9 C 0.2456(3) 0.2682(6) 0.8583(6)
C10 C 0.2030(3) 0.3244(6) 0.7801(5)
H9 H 0.1720 0.3670 0.7931
C11 C 0.2066(3) 0.3203(5) 0.6840(4)
H10 H 0.1758 0.3586 0.6310
C12 C 0.2323(4) 0.2740(7) 0.9617(6)
H11 H 0.1986 0.3150 0.9668
O3 O 0.22260(16) 0.0742(3) 0.4949(3)
H12 H 0.202(2) 0.060(5) 0.532(4)
H13 H 0.2586(10) 0.052(5) 0.519(4)
Zn1_2 Zn 0.2500 0.2500 1.5000
N1F N 0.15501(19) 0.4390(4) 0.4463(3)
N2F N 0.15932(19) 0.3231(4) 0.4451(3)
N3F N 0.10495(19) 0.2692(4) 0.4187(3)
C1F C 0.0655(2) 0.3569(4) 0.4022(4)
N4F N 0.00375(18) 0.3496(4) 0.3744(3)
C2F C -0.0276(3) 0.2372(5) 0.3606(5)
H1F H -0.0557 0.2306 0.2903
H2F H 0.0018 0.1737 0.3743
H3F H -0.0497 0.2321 0.4086
C3F C -0.0293(2) 0.4506(5) 0.3609(4)
O1F O -0.08396(17) 0.4495(4) 0.3364(3)
N5F N 0.00207(19) 0.5567(4) 0.3766(3)
C4F C -0.0351(2) 0.6631(5) 0.3575(4)
H4F H -0.0637 0.6588 0.3944
H5F H -0.0091 0.7313 0.3810
H6F H -0.0572 0.6703 0.2839
C5F C 0.0648(2) 0.5722(5) 0.4076(4)
O2F O 0.08723(17) 0.6698(3) 0.4202(3)
C6F C 0.0958(2) 0.4624(4) 0.4195(4)
N6F N 0.24999(18) 0.2370(3) 1.3386(3)
N6F_2 N 0.24999(18) 0.2370(3) 0.3386(3)
C7F C 0.2072(3) 0.2893(5) 1.2627(4)
H7F H 0.1755 0.3279 1.2772
C8F C 0.2086(3) 0.2877(6) 1.1620(5)
H8F H 0.1778 0.3258 1.1089
C9F C 0.2544(3) 0.2318(6) 1.1417(6)
C10F C 0.2970(3) 0.1756(6) 1.2199(5)
H9F H 0.3280 0.1330 1.2069
C11F C 0.2934(3) 0.1797(5) 1.3160(4)
H10F H 0.3242 0.1414 1.3690
C12F C 0.2677(4) 0.2260(7) 1.0383(6)
H11F H 0.3014 0.1850 1.0332
O3F O 0.27740(16) 0.4258(3) 0.5051(3)
H12F H 0.298(2) 0.440(5) 0.468(4)
H13F H 0.2414(10) 0.448(5) 0.481(4)
N7 N 0.1586(2) 0.0320(4) 0.6197(4)
C13 C 0.1012(3) 0.0532(4) 0.5681(4)
H14 H 0.0897 0.0670 0.4966
C14 C 0.0574(3) 0.0580(5) 0.6136(4)
H15 H 0.0168 0.0715 0.5726
C15 C 0.0732(2) 0.0431(4) 0.7186(4)
C16 C 0.1332(2) 0.0206(5) 0.7721(4)
H16 H 0.1463 0.0077 0.8439
C17 C 0.1740(2) 0.0161(5) 0.7212(5)
H17 H 0.2149 0.0013 0.7593
C18 C 0.0299(2) 0.0465(4) 0.7725(4)
H18 H 0.0452 0.0476 0.8452
N7A N -0.1586(2) 0.0320(4) 0.8803(4)
C13A C -0.1012(3) 0.0532(4) 0.9319(4)
H14A H -0.0897 0.0670 1.0034
C14A C -0.0574(3) 0.0580(5) 0.8864(4)
H15A H -0.0168 0.0715 0.9274
C15A C -0.0732(2) 0.0431(4) 0.7814(4)
C16A C -0.1332(2) 0.0206(5) 0.7279(4)
H16A H -0.1463 0.0077 0.6561
C17A C -0.1740(2) 0.0161(5) 0.7788(5)
H17A H -0.2149 0.0013 0.7407
C18A C -0.0299(2) 0.0465(4) 0.7275(4)
H18A H -0.0452 0.0476 0.6548
loop_
_geom_bond_atom_site_label_1
_geom_bond_atom_site_label_2
_geom_bond_site_symmetry_1
_geom_bond_site_symmetry_2
Zn1 N2 1_555 1_555
N1 N2 1_555 1_555
N2 N3 1_555 1_555
N3 C1 1_555 1_555
C1 N4 1_555 1_555
N4 C2 1_555 1_555
C2 H1 1_555 1_555
H2 C2 1_555 1_555
H3 C2 1_555 1_555
C3 N4 1_555 1_555
O1 C3 1_555 1_555
N5 C3 1_555 1_555
C4 N5 1_555 1_555
H4 C4 1_555 1_555
H5 C4 1_555 1_555
H6 C4 1_555 1_555
C5 N5 1_555 1_555
O2 C5 1_555 1_555
C6 N1 1_555 1_555
N6 Zn1 1_555 1_555
C7 N6 1_555 1_555
H7 C7 1_555 1_555
C8 C7 1_555 1_555
H8 C8 1_555 1_555
C9 C8 1_555 1_555
C10 C9 1_555 1_555
H9 C10 1_555 1_555
C11 N6 1_555 1_555
H10 C11 1_555 1_555
C12 C9 1_555 1_555
H11 C12 1_555 1_555
O3 Zn1 1_555 1_555
H12 O3 1_555 1_555
H13 O3 1_555 1_555
N7 C13 1_555 1_555
C13 H14 1_555 1_555
C14 C13 1_555 1_555
H15 C14 1_555 1_555
C15 C14 1_555 1_555
C16 C15 1_555 1_555
H16 C16 1_555 1_555
C17 N7 1_555 1_555
H17 C17 1_555 1_555
C18 C15 1_555 1_555
H18 C18 1_555 1_555
Zn1_2 N6F 1_555 1_555
N1F N2F 1_555 1_555
N2F Zn1 1_555 1_555
N3F N2F 1_555 1_555
C1F N3F 1_555 1_555
N4F C1F 1_555 1_555
C2F N4F 1_555 1_555
H1F C2F 1_555 1_555
H2F C2F 1_555 1_555
H3F C2F 1_555 1_555
C3F N4F 1_555 1_555
O1F C3F 1_555 1_555
N5F C3F 1_555 1_555
C4F N5F 1_555 1_555
H4F C4F 1_555 1_555
H5F C4F 1_555 1_555
H6F C4F 1_555 1_555
C5F N5F 1_555 1_555
O2F C5F 1_555 1_555
C6F N1F 1_555 1_555
N6F C7F 1_555 1_555
N6F_2 Zn1 1_555 1_555
C7F H7F 1_555 1_555
C8F C7F 1_555 1_555
H8F C8F 1_555 1_555
C9F C8F 1_555 1_555
C10F C9F 1_555 1_555
H9F C10F 1_555 1_555
C11F N6F 1_555 1_555
H10F C11F 1_555 1_555
C12F C12 1_555 1_555
H11F C12F 1_555 1_555
O3F Zn1 1_555 1_555
H12F O3F 1_555 1_555
H13F O3F 1_555 1_555
N7A C13A 1_555 1_555
C13A H14A 1_555 1_555
C14A C13A 1_555 1_555
H15A C14A 1_555 1_555
C15A C14A 1_555 1_555
C16A C15A 1_555 1_555
H16A C16A 1_555 1_555
C17A N7A 1_555 1_555
H17A C17A 1_555 1_555
C18A C18 1_555 1_555
H18A C18A 1_555 1_555
C1 C6 1_555 1_555
C5 C6 1_555 1_555
C10 C11 1_555 1_555
C16 C17 1_555 1_555
C1F C6F 1_555 1_555
C5F C6F 1_555 1_555
C9F C12F 1_555 1_555
C10F C11F 1_555 1_555
C15A C18A 1_555 1_555
C16A C17A 1_555 1_555

#END
