
#######################################################################
#
#                 Cambridge Crystallographic Data Centre
#                                CCDC 
#
#######################################################################
#
# If this CIF has been generated from an entry in the Cambridge 
# Structural Database, then it will include bibliographic, chemical, 
# crystal, experimental, refinement or atomic coordinate data resulting 
# from the CCDC's data processing and validation procedures.
#
#######################################################################

data_EKOFUF
_symmetry_cell_setting           orthorhombic
_symmetry_space_group_name_H-M   'P n m a'
_symmetry_Int_Tables_number      62
_space_group_name_Hall           '-P 2ac 2n'
loop_
_symmetry_equiv_pos_site_id
_symmetry_equiv_pos_as_xyz
1 x,y,z
2 1/2-x,-y,1/2+z
3 -x,1/2+y,-z
4 1/2+x,1/2-y,1/2-z
5 -x,-y,-z
6 1/2+x,y,1/2-z
7 x,1/2-y,z
8 1/2-x,1/2+y,1/2+z
_cell_length_a                   18.910(4)
_cell_length_b                   17.713(4)
_cell_length_c                   6.8213(14)
_cell_angle_alpha                90
_cell_angle_beta                 90
_cell_angle_gamma                90
_cell_volume                     2284.81
loop_
_atom_site_label
_atom_site_type_symbol
_atom_site_fract_x
_atom_site_fract_y
_atom_site_fract_z
Ga1 Ga -0.003181(10) 0.2500 0.01448(3)
O1 O 0.03419(7) 0.2500 -0.30789(18)
O2 O -0.04326(7) 0.2500 -0.66528(18)
C1 C 0.09452(10) 0.2500 0.0980(3)
C2 C 0.15495(10) 0.2500 0.1544(3)
C3 C -0.05314(7) 0.34389(8) -0.02581(19)
C4 C -0.08481(7) 0.40199(8) -0.0569(2)
C5 C 0.22899(10) 0.2500 0.2267(3)
C6 C 0.26684(8) 0.32023(9) 0.1504(3)
H1 H 0.2664 0.3200 0.0067
H2 H 0.3159 0.3203 0.1970
H3 H 0.2426 0.3655 0.1984
C7 C 0.22960(13) 0.2500 0.4513(4)
H4 H 0.2060(13) 0.2034(12) 0.504(3)
H5 H 0.2746(19) 0.2500 0.503(4)
C8 C -0.12378(7) 0.47256(8) -0.0947(2)
C9 C -0.09202(12) 0.51271(11) -0.2735(3)
H6 H -0.0957 0.4798 -0.3886
H7 H -0.0422 0.5242 -0.2482
H8 H -0.1179 0.5597 -0.2978
C10 C -0.11798(9) 0.52435(11) 0.0867(3)
H9 H -0.1383 0.4987 0.2009
H10 H -0.1439 0.5714 0.0624
H11 H -0.0681 0.5359 0.1120
C11 C -0.20175(8) 0.45423(9) -0.1335(3)
H12 H -0.2055 0.4214 -0.2487
H13 H -0.2278 0.5011 -0.1576
H14 H -0.2218 0.4285 -0.0192
C12 C 0.03049(8) 0.31653(8) -0.4298(2)
H15 H 0.0710 0.3172 -0.5217
H16 H 0.0332 0.3623 -0.3469
C13 C -0.03790(8) 0.31681(8) -0.5438(2)
H17 H -0.0783 0.3185 -0.4517
H18 H -0.0400 0.3624 -0.6275
C13F C -0.03790(8) 0.18319(8) -0.5438(2)
C12F C 0.03049(8) 0.18347(8) -0.4298(2)
H15F H 0.0710 0.1828 -0.5217
H16F H 0.0332 0.1377 -0.3469
H17F H -0.0783 0.1815 -0.4517
H18F H -0.0400 0.1376 -0.6275
C6F C 0.26684(8) 0.17977(9) 0.1504(3)
H1F H 0.2664 0.1800 0.0067
H2F H 0.3159 0.1797 0.1970
H3F H 0.2426 0.1345 0.1984
H4F H 0.2060(13) 0.2966(12) 0.504(3)
C3F C -0.05314(7) 0.15611(8) -0.02581(19)
C4F C -0.08481(7) 0.09801(8) -0.0569(2)
C8F C -0.12378(7) 0.02744(8) -0.0947(2)
C9F C -0.09202(12) -0.01271(11) -0.2735(3)
H6F H -0.0957 0.0202 -0.3886
H7F H -0.0422 -0.0242 -0.2482
H8F H -0.1179 -0.0597 -0.2978
C10F C -0.11798(9) -0.02435(11) 0.0867(3)
H9F H -0.1383 0.0013 0.2009
H10F H -0.1439 -0.0714 0.0624
H11F H -0.0681 -0.0359 0.1120
C11F C -0.20175(8) 0.04577(9) -0.1335(3)
H12F H -0.2055 0.0786 -0.2487
H13F H -0.2278 -0.0011 -0.1576
H14F H -0.2218 0.0715 -0.0192
O2_2 O -0.04326(7) 0.2500 0.33472(18)
Ga1_2 Ga -0.003181(10) 0.2500 -0.98552(3)
loop_
_geom_bond_atom_site_label_1
_geom_bond_atom_site_label_2
_geom_bond_site_symmetry_1
_geom_bond_site_symmetry_2
Ga1 O1 1_555 1_555
O1 C12 1_555 1_555
O2 C13 1_555 1_555
C1 Ga1 1_555 1_555
C2 C1 1_555 1_555
C3 Ga1 1_555 1_555
C4 C3 1_555 1_555
C5 C2 1_555 1_555
C6 C5 1_555 1_555
H1 C6 1_555 1_555
H2 C6 1_555 1_555
H3 C6 1_555 1_555
C7 C5 1_555 1_555
H4 C7 1_555 1_555
H5 C7 1_555 1_555
C8 C4 1_555 1_555
C9 C8 1_555 1_555
H6 C9 1_555 1_555
H7 C9 1_555 1_555
H8 C9 1_555 1_555
C10 C8 1_555 1_555
H9 C10 1_555 1_555
H10 C10 1_555 1_555
H11 C10 1_555 1_555
C11 C8 1_555 1_555
H12 C11 1_555 1_555
H13 C11 1_555 1_555
H14 C11 1_555 1_555
C12 H15 1_555 1_555
H16 C12 1_555 1_555
C13 C12 1_555 1_555
H17 C13 1_555 1_555
H18 C13 1_555 1_555
C13F O2 1_555 1_555
C12F O1 1_555 1_555
H15F C12F 1_555 1_555
H16F C12F 1_555 1_555
H17F C13F 1_555 1_555
H18F C13F 1_555 1_555
C6F C5 1_555 1_555
H1F C6F 1_555 1_555
H2F C6F 1_555 1_555
H3F C6F 1_555 1_555
H4F C7 1_555 1_555
C3F Ga1 1_555 1_555
C4F C3F 1_555 1_555
C8F C4F 1_555 1_555
C9F C8F 1_555 1_555
H6F C9F 1_555 1_555
H7F C9F 1_555 1_555
H8F C9F 1_555 1_555
C10F C8F 1_555 1_555
H9F C10F 1_555 1_555
H10F C10F 1_555 1_555
H11F C10F 1_555 1_555
C11F C8F 1_555 1_555
H12F C11F 1_555 1_555
H13F C11F 1_555 1_555
H14F C11F 1_555 1_555
O2_2 Ga1 1_555 1_555
Ga1_2 O2 1_555 1_555
C13F C12F 1_555 1_555

#END
