
#######################################################################
#
#                 Cambridge Crystallographic Data Centre
#                                CCDC 
#
#######################################################################
#
# If this CIF has been generated from an entry in the Cambridge 
# Structural Database, then it will include bibliographic, chemical, 
# crystal, experimental, refinement or atomic coordinate data resulting 
# from the CCDC's data processing and validation procedures.
#
#######################################################################

data_EKOFIU
_symmetry_cell_setting           triclinic
_symmetry_space_group_name_H-M   'P 1'
_symmetry_Int_Tables_number      1
_space_group_name_Hall           'P 1'
loop_
_symmetry_equiv_pos_site_id
_symmetry_equiv_pos_as_xyz
1 x,y,z
_cell_length_a                   7.5389(12)
_cell_length_b                   10.1054(16)
_cell_length_c                   13.185(2)
_cell_angle_alpha                69.441(2)
_cell_angle_beta                 81.181(3)
_cell_angle_gamma                69.029(2)
_cell_volume                     877.77
loop_
_atom_site_label
_atom_site_type_symbol
_atom_site_fract_x
_atom_site_fract_y
_atom_site_fract_z
Zn1 Zn -0.10978(5) 0.44813(4) 0.45318(3)
Zn2 Zn 0.11290(5) 0.85375(4) 0.53390(3)
S1 S 0.44670(15) 0.22749(12) 0.71063(8)
S2 S -0.44503(15) 1.17299(10) 0.27983(8)
O1 O -0.0088(4) 0.2146(3) 0.4757(2)
O2 O 0.2152(4) 0.0020(3) 0.5598(2)
O3 O 0.4237(6) 0.3838(4) 0.6513(3)
O4 O 0.4169(7) 0.1993(5) 0.8263(3)
O5 O 0.6232(6) 0.1306(6) 0.6788(4)
O6 O -0.1725(5) 0.3839(4) 0.6271(3)
H1 H -0.2369 0.4545 0.6588
H2 H -0.2663 0.3336 0.6544
O7 O -0.3828(4) 0.4382(3) 0.4401(2)
H3 H -0.3804 0.3787 0.4128
H4 H -0.4693 0.4112 0.4959
O8 O 0.0122(4) 0.6991(3) 0.5036(2)
O9 O -0.2360(4) 0.6722(3) 0.4498(2)
O10 O -0.3948(7) 1.2662(4) 0.3249(3)
O11 O -0.6251(6) 1.1550(4) 0.3232(4)
O12 O -0.4303(6) 1.2205(4) 0.1637(3)
O13 O 0.1873(6) 0.9431(4) 0.3671(3)
H5 H 0.2156 1.0177 0.3434
H6 H 0.1882 0.9556 0.3031
O14 O 0.3846(5) 0.6917(3) 0.5479(3)
H7 H 0.4145 0.6168 0.5716
H8 H 0.4634 0.6950 0.5181
N1 N 0.1795(5) 0.3882(3) 0.4855(3)
H11 H 0.2458 0.4096 0.4225
H12 H 0.1908 0.4423 0.5242
N2 N -0.0773(6) 0.5129(4) 0.2795(3)
N3 N 0.0678(6) 0.7648(5) -0.2921(3)
N4 N -0.1777(5) 0.9829(4) 0.5004(3)
H13 H -0.2419 0.9900 0.5627
H14 H -0.1853 1.0760 0.4568
C1 C 0.1436(5) 0.1423(4) 0.5239(3)
C2 C 0.2596(5) 0.2268(4) 0.5464(3)
H15 H 0.3912 0.1890 0.5209
C3 C 0.2576(6) 0.1958(4) 0.6684(3)
H16 H 0.2643 0.0925 0.7053
H17 H 0.1379 0.2591 0.6901
C4 C -0.1364(14) 0.6558(6) 0.2201(5)
H18 H -0.1981 0.7258 0.2555
C5 C -0.1123(13) 0.7079(6) 0.1086(5)
H19 H -0.1575 0.8100 0.0715
C6 C -0.0228(7) 0.6100(5) 0.0533(4)
C7 C 0.0267(12) 0.4622(7) 0.1144(5)
H20 H 0.0827 0.3897 0.0806
C8 C -0.0049(10) 0.4181(6) 0.2263(4)
H21 H 0.0272 0.3164 0.2646
C9 C 0.0091(7) 0.6621(5) -0.0666(4)
C10 C -0.0280(8) 0.8141(5) -0.1244(4)
H22 H -0.0724 0.8846 -0.0883
C11 C 0.0012(7) 0.8581(5) -0.2336(4)
H23 H -0.0271 0.9601 -0.2702
C12 C 0.1000(9) 0.6206(5) -0.2373(4)
H24 H 0.1427 0.5527 -0.2756
C13 C 0.0733(9) 0.5663(6) -0.1261(4)
H25 H 0.0991 0.4641 -0.0917
C14 C -0.1518(6) 0.7480(4) 0.4705(3)
C15 C -0.2671(6) 0.9165(4) 0.4479(3)
H26 H -0.3970 0.9269 0.4775
C16 C -0.2728(7) 0.9910(4) 0.3253(3)
H27 H -0.2981 0.9269 0.2932
H28 H -0.1482 0.9982 0.2987
Zn2_2 Zn 0.11290(5) -0.14625(4) 0.53390(3)
Zn2_3 Zn 0.11290(5) 0.85375(4) -0.46610(3)
O2_2 O 0.2152(4) 1.0020(3) 0.5598(2)
N3_2 N 0.0678(6) 0.7648(5) 0.7079(3)
O15 O 0.7043(9) 0.0863(5) 0.9920(4)
H9 H 0.5697 0.1379 0.9648
H10 H 0.6183 0.1340 1.0434
N5 N 0.6547(9) 0.5634(6) 0.7569(4)
N6 N 0.2942(13) 0.8228(7) 1.2033(5)
C17 C 0.6346(13) 0.4710(8) 0.8556(6)
H29 H 0.6715 0.3694 0.8647
C18 C 0.5630(12) 0.5159(7) 0.9448(5)
H30 H 0.5496 0.4464 1.0115
C19 C 0.5114(7) 0.6647(5) 0.9341(3)
C20 C 0.5366(9) 0.7599(7) 0.8350(4)
H31 H 0.5084 0.8612 0.8245
C21 C 0.6051(10) 0.7032(8) 0.7498(4)
H32 H 0.6165 0.7709 0.6819
C22 C 0.4335(9) 0.7202(6) 1.0283(4)
C23 C 0.4357(9) 0.6264(6) 1.1317(4)
H33 H 0.4880 0.5236 1.1451
C24 C 0.3633(12) 0.6795(8) 1.2159(5)
H34 H 0.3626 0.6116 1.2851
C25 C 0.281(2) 0.9137(9) 1.1057(6)
H35 H 0.2212 1.0152 1.0957
C26 C 0.3501(17) 0.8706(8) 1.0140(6)
H36 H 0.3402 0.9412 0.9453
loop_
_geom_bond_atom_site_label_1
_geom_bond_atom_site_label_2
_geom_bond_site_symmetry_1
_geom_bond_site_symmetry_2
Zn1 O1 1_555 1_555
Zn2 O8 1_555 1_555
S1 O3 1_555 1_555
S2 O10 1_555 1_555
O1 C1 1_555 1_555
O2 C1 1_555 1_555
O4 S1 1_555 1_555
O5 S1 1_555 1_555
O6 Zn1 1_555 1_555
H1 O6 1_555 1_555
H2 O6 1_555 1_555
O7 Zn1 1_555 1_555
H3 O7 1_555 1_555
H4 O7 1_555 1_555
O8 C14 1_555 1_555
O9 Zn1 1_555 1_555
O11 S2 1_555 1_555
O12 S2 1_555 1_555
O13 Zn2 1_555 1_555
H5 O13 1_555 1_555
H6 O13 1_555 1_555
O14 Zn2 1_555 1_555
H7 O14 1_555 1_555
H8 O14 1_555 1_555
O15 H9 1_555 1_555
H10 O15 1_555 1_555
N1 Zn1 1_555 1_555
H11 N1 1_555 1_555
H12 N1 1_555 1_555
N2 Zn1 1_555 1_555
N3 C11 1_555 1_555
N4 Zn2 1_555 1_555
H13 N4 1_555 1_555
H14 N4 1_555 1_555
N5 C17 1_555 1_555
N6 C24 1_555 1_555
C1 C2 1_555 1_555
C2 N1 1_555 1_555
H15 C2 1_555 1_555
C3 S1 1_555 1_555
H16 C3 1_555 1_555
H17 C3 1_555 1_555
C4 N2 1_555 1_555
H18 C4 1_555 1_555
C5 C4 1_555 1_555
H19 C5 1_555 1_555
C6 C5 1_555 1_555
C7 C6 1_555 1_555
H20 C7 1_555 1_555
C8 N2 1_555 1_555
H21 C8 1_555 1_555
C9 C6 1_555 1_555
C10 C9 1_555 1_555
H22 C10 1_555 1_555
C11 C10 1_555 1_555
H23 C11 1_555 1_555
C12 N3 1_555 1_555
H24 C12 1_555 1_555
C13 C9 1_555 1_555
H25 C13 1_555 1_555
C14 O9 1_555 1_555
C15 N4 1_555 1_555
H26 C15 1_555 1_555
C16 S2 1_555 1_555
H27 C16 1_555 1_555
H28 C16 1_555 1_555
C17 H29 1_555 1_555
C18 C17 1_555 1_555
H30 C18 1_555 1_555
C19 C18 1_555 1_555
C20 C19 1_555 1_555
H31 C20 1_555 1_555
C21 N5 1_555 1_555
H32 C21 1_555 1_555
C22 C19 1_555 1_555
C23 C22 1_555 1_555
H33 C23 1_555 1_555
C24 C23 1_555 1_555
H34 C24 1_555 1_555
C25 N6 1_555 1_555
H35 C25 1_555 1_555
C26 C22 1_555 1_555
H36 C26 1_555 1_555
Zn2_2 O2 1_555 1_555
Zn2_3 N3 1_555 1_555
O2_2 Zn2 1_555 1_555
N3_2 Zn2 1_555 1_555
C2 C3 1_555 1_555
C7 C8 1_555 1_555
C12 C13 1_555 1_555
C14 C15 1_555 1_555
C15 C16 1_555 1_555
C20 C21 1_555 1_555
C25 C26 1_555 1_555

#END
