
#######################################################################
#
#                 Cambridge Crystallographic Data Centre
#                                CCDC 
#
#######################################################################
#
# If this CIF has been generated from an entry in the Cambridge 
# Structural Database, then it will include bibliographic, chemical, 
# crystal, experimental, refinement or atomic coordinate data resulting 
# from the CCDC's data processing and validation procedures.
#
#######################################################################

data_EKOFIU01
_symmetry_cell_setting           triclinic
_symmetry_space_group_name_H-M   'P 1'
_symmetry_Int_Tables_number      1
_space_group_name_Hall           'P 1'
loop_
_symmetry_equiv_pos_site_id
_symmetry_equiv_pos_as_xyz
1 x,y,z
_cell_length_a                   7.6594(9)
_cell_length_b                   10.1820(13)
_cell_length_c                   13.1317(16)
_cell_angle_alpha                69.7640(10)
_cell_angle_beta                 84.0400(10)
_cell_angle_gamma                69.9990(10)
_cell_volume                     902.826
loop_
_atom_site_label
_atom_site_type_symbol
_atom_site_fract_x
_atom_site_fract_y
_atom_site_fract_z
Zn1 Zn 0.89400(3) 0.33873(2) 0.52779(2)
Zn2 Zn 1.11771(3) -0.25593(2) 0.60857(2)
S1 S 1.44743(9) 0.11912(7) 0.78508(5)
S2 S 0.56160(9) 1.06337(6) 0.35424(5)
O1 O 0.9960(2) 0.10481(15) 0.55011(13)
O2 O 1.2197(3) -0.10807(16) 0.63397(13)
O3 O 1.4156(3) 0.0931(3) 0.89991(17)
O4 O 1.6224(3) 0.0229(3) 0.7546(2)
O5 O 1.4272(3) 0.2762(2) 0.72430(18)
O6 O 1.0182(3) 0.58970(16) 0.57714(15)
O7 O 0.7702(2) 0.56280(15) 0.52437(14)
O8 O 0.3808(3) 1.0449(3) 0.3986(2)
O9 O 0.5771(4) 1.1113(2) 0.23830(16)
O10 O 0.6073(3) 1.15694(18) 0.39962(18)
O11 O 0.6199(3) 0.32902(17) 0.51447(14)
O12 O 0.8281(3) 0.27715(18) 0.70106(14)
O13 O 1.1949(3) -0.16653(18) 0.44202(14)
O14 O 1.3916(3) -0.41998(18) 0.62323(17)
N1 N 1.1835(3) 0.27865(19) 0.55964(16)
H1 H 1.2434 0.3001 0.4965
H2 H 1.2004 0.3315 0.5981
N2 N 0.8265(3) 0.87434(19) 0.57490(16)
H3 H 0.7683 0.8791 0.6373
H4 H 0.8161 0.9672 0.5316
N3 N 0.9240(3) 0.4045(2) 0.35543(18)
N4 N 1.0697(3) 0.6561(2) -0.21656(17)
C1 C 1.1482(3) 0.0327(2) 0.59874(18)
C2 C 1.2624(3) 0.1172(2) 0.62163(18)
H5 H 1.3908 0.0794 0.5993
C3 C 1.2598(4) 0.0875(3) 0.7423(2)
H6 H 1.2658 -0.0145 0.7799
H7 H 1.1440 0.1513 0.7612
C4 C 0.8546(4) 0.6384(2) 0.54586(19)
C5 C 0.7383(4) 0.8072(2) 0.52160(19)
H8 H 0.6118 0.8168 0.5484
C6 C 0.7320(4) 0.8828(2) 0.3990(2)
H9 H 0.7060 0.8210 0.3646
H10 H 0.8534 0.8908 0.3755
C7 C 1.0081(6) 0.3122(3) 0.3000(3)
H11 H 1.0513 0.2115 0.3394
C8 C 1.0370(6) 0.3534(3) 0.1881(2)
H12 H 1.0934 0.2821 0.1552
C9 C 0.9807(4) 0.5002(3) 0.1284(2)
C10 C 0.8864(7) 0.5998(3) 0.1837(3)
H13 H 0.8433 0.7011 0.1462
C11 C 0.8580(7) 0.5471(3) 0.2938(2)
H14 H 0.7887 0.6151 0.3273
C12 C 1.0100(4) 0.5533(3) 0.0096(2)
C13 C 1.0809(5) 0.4559(3) -0.0513(2)
H15 H 1.1115 0.3542 -0.0163
C14 C 1.1053(5) 0.5104(3) -0.1624(2)
H16 H 1.1477 0.4442 -0.2008
C15 C 1.0028(4) 0.7505(3) -0.1600(2)
H17 H 0.9778 0.8513 -0.1967
C16 C 0.9697(5) 0.7045(3) -0.0503(2)
H18 H 0.9201 0.7744 -0.0155
H27 H 0.6431 0.2653 0.4720
H30 H 0.6034 0.2534 0.5826
H31 H 1.2229 -0.1887 0.3807
H32 H 1.2175 -0.0843 0.4343
H33 H 1.4884 -0.4117 0.5910
H34 H 1.4005 -0.5183 0.6511
H35 H 0.7957 0.3458 0.7378
H36 H 0.7885 0.2086 0.7292
Zn2_2 Zn 1.11771(3) 0.74407(2) 0.60857(2)
Zn2_3 Zn 1.11771(3) 0.74407(2) -0.39143(2)
O6_2 O 1.0182(3) -0.41030(16) 0.57714(15)
N2_2 N 0.8265(3) -0.12566(19) 0.57490(16)
H3_2 H 0.7683 -0.1209 0.6373
H4_2 H 0.8161 -0.0328 0.5316
N4_2 N 1.0697(3) -0.3439(2) 0.78344(17)
O15 O 0.7071(4) 0.9763(2) 0.0681(2)
H28 H 0.8499 0.9279 0.0743
H29 H 0.6989 1.0511 0.0939
N5 N 0.2878(6) 0.7157(3) 0.2784(2)
N6 N 0.6629(4) 0.4491(3) -0.1663(2)
C17 C 0.3640(6) 0.5733(4) 0.2916(3)
H19 H 0.3699 0.5059 0.3614
C18 C 0.4372(5) 0.5169(3) 0.2062(2)
H20 H 0.4876 0.4151 0.2206
C19 C 0.4342(5) 0.6120(3) 0.1023(2)
C20 C 0.3484(9) 0.7621(4) 0.0878(3)
H21 H 0.3347 0.8320 0.0186
C21 C 0.2833(9) 0.8072(4) 0.1774(3)
H22 H 0.2331 0.9084 0.1657
C22 C 0.5139(4) 0.5556(3) 0.0089(2)
C23 C 0.5681(7) 0.4057(3) 0.0193(3)
H23 H 0.5553 0.3365 0.0853
C24 C 0.6410(6) 0.3598(4) -0.0690(3)
H24 H 0.6769 0.2591 -0.0587
C25 C 0.6114(6) 0.5919(4) -0.1761(3)
H25 H 0.6264 0.6581 -0.2432
C26 C 0.5361(5) 0.6497(3) -0.0923(2)
H26 H 0.5014 0.7510 -0.1052
loop_
_geom_bond_atom_site_label_1
_geom_bond_atom_site_label_2
_geom_bond_site_symmetry_1
_geom_bond_site_symmetry_2
Zn1 O1 1_555 1_555
Zn2 O2 1_555 1_555
S1 O3 1_555 1_555
S2 O8 1_555 1_555
O1 C1 1_555 1_555
O2 C1 1_555 1_555
O4 S1 1_555 1_555
O5 S1 1_555 1_555
O6 C4 1_555 1_555
O7 Zn1 1_555 1_555
O9 S2 1_555 1_555
O10 S2 1_555 1_555
O11 Zn1 1_555 1_555
O12 Zn1 1_555 1_555
O13 Zn2 1_555 1_555
O14 Zn2 1_555 1_555
O15 H28 1_555 1_555
N1 Zn1 1_555 1_555
H1 N1 1_555 1_555
H2 N1 1_555 1_555
N2 H3 1_555 1_555
H4 N2 1_555 1_555
N3 Zn1 1_555 1_555
N4 C14 1_555 1_555
N5 C17 1_555 1_555
N6 C24 1_555 1_555
C1 C2 1_555 1_555
C2 N1 1_555 1_555
H5 C2 1_555 1_555
C3 S1 1_555 1_555
H6 C3 1_555 1_555
H7 C3 1_555 1_555
C4 O7 1_555 1_555
C5 N2 1_555 1_555
H8 C5 1_555 1_555
C6 S2 1_555 1_555
H9 C6 1_555 1_555
H10 C6 1_555 1_555
C7 N3 1_555 1_555
H11 C7 1_555 1_555
C8 C7 1_555 1_555
H12 C8 1_555 1_555
C9 C8 1_555 1_555
C10 C9 1_555 1_555
H13 C10 1_555 1_555
C11 N3 1_555 1_555
H14 C11 1_555 1_555
C12 C9 1_555 1_555
C13 C12 1_555 1_555
H15 C13 1_555 1_555
C14 C13 1_555 1_555
H16 C14 1_555 1_555
C15 N4 1_555 1_555
H17 C15 1_555 1_555
C16 C12 1_555 1_555
H18 C16 1_555 1_555
C17 H19 1_555 1_555
C18 C17 1_555 1_555
H20 C18 1_555 1_555
C19 C18 1_555 1_555
C20 C19 1_555 1_555
H21 C20 1_555 1_555
C21 N5 1_555 1_555
H22 C21 1_555 1_555
C22 C19 1_555 1_555
C23 C22 1_555 1_555
H23 C23 1_555 1_555
C24 C23 1_555 1_555
H24 C24 1_555 1_555
C25 N6 1_555 1_555
H25 C25 1_555 1_555
C26 C22 1_555 1_555
H26 C26 1_555 1_555
H27 O11 1_555 1_555
H29 O15 1_555 1_555
H30 O11 1_555 1_555
H31 O13 1_555 1_555
H32 O13 1_555 1_555
H33 O14 1_555 1_555
H34 O14 1_555 1_555
H35 O12 1_555 1_555
H36 O12 1_555 1_555
Zn2_2 O6 1_555 1_555
Zn2_3 N4 1_555 1_555
O6_2 Zn2 1_555 1_555
N2_2 Zn2 1_555 1_555
H3_2 N2_2 1_555 1_555
H4_2 N2_2 1_555 1_555
N4_2 Zn2 1_555 1_555
N2 Zn2_2 1_555 1_555
C2 C3 1_555 1_555
C4 C5 1_555 1_555
C5 C6 1_555 1_555
C10 C11 1_555 1_555
C15 C16 1_555 1_555
C20 C21 1_555 1_555
C25 C26 1_555 1_555

#END
