
#######################################################################
#
#                 Cambridge Crystallographic Data Centre
#                                CCDC 
#
#######################################################################
#
# If this CIF has been generated from an entry in the Cambridge 
# Structural Database, then it will include bibliographic, chemical, 
# crystal, experimental, refinement or atomic coordinate data resulting 
# from the CCDC's data processing and validation procedures.
#
#######################################################################

data_EKOFEQ
_symmetry_cell_setting           orthorhombic
_symmetry_space_group_name_H-M   'P 21 21 21'
_symmetry_Int_Tables_number      19
_space_group_name_Hall           'P 2ac 2ab'
loop_
_symmetry_equiv_pos_site_id
_symmetry_equiv_pos_as_xyz
1 x,y,z
2 1/2-x,-y,1/2+z
3 -x,1/2+y,1/2-z
4 1/2+x,1/2-y,-z
_cell_length_a                   8.628(9)
_cell_length_b                   11.743(12)
_cell_length_c                   19.817(18)
_cell_angle_alpha                90
_cell_angle_beta                 90
_cell_angle_gamma                90
_cell_volume                     2007.83
loop_
_atom_site_label
_atom_site_type_symbol
_atom_site_fract_x
_atom_site_fract_y
_atom_site_fract_z
Cd1 Cd 1.03278(9) 0.22833(6) 1.04993(4)
S1 S 1.3333(5) 0.0424(3) 1.2450(2)
N1 N 1.1684(9) 0.2344(8) 1.1534(4)
H1 H 1.1497 0.3021 1.1730
H2 H 1.1289 0.1803 1.1806
N2 N 1.0229(13) 0.0290(6) 1.0384(5)
N3 N 1.0174(10) -0.5726(6) 1.0420(5)
O1 O 1.5390(9) 0.2626(6) 1.0712(3)
O2 O 1.2998(8) 0.2525(7) 1.0297(3)
O3 O 1.1633(11) 0.0411(8) 1.2490(4)
O4 O 1.4017(14) -0.0697(8) 1.2470(6)
O5 O 1.4031(15) 0.1178(11) 1.2931(5)
O6 O 0.8218(8) 0.2165(7) 1.1241(4)
C1 C 1.3940(14) 0.2497(7) 1.0778(5)
C2 C 1.3363(12) 0.2183(10) 1.1501(5)
H3 H 1.3869 0.2677 1.1833
C3 C 1.3827(15) 0.0941(9) 1.1631(5)
H4 H 1.4938 0.0870 1.1570
H5 H 1.3329 0.0463 1.1296
C4 C 1.0413(16) -0.0299(9) 0.9799(6)
H6 H 1.0581 0.0105 0.9402
C5 C 1.0360(16) -0.1447(8) 0.9773(5)
H7 H 1.0453 -0.1825 0.9362
C6 C 1.0164(13) -0.2060(7) 1.0370(6)
C7 C 1.0049(15) -0.1464(8) 1.0951(6)
H8 H 0.9980 -0.1857 1.1357
C8 C 1.0031(16) -0.0310(9) 1.0961(6)
H9 H 0.9881 0.0073 1.1366
C9 C 1.0195(14) -0.3330(8) 1.0380(5)
C10 C 1.1020(13) -0.3985(10) 0.9920(6)
H10 H 1.1602 -0.3640 0.9581
C11 C 1.0962(13) -0.5173(9) 0.9974(6)
H11 H 1.1535 -0.5596 0.9666
C12 C 0.9347(15) -0.5105(9) 1.0865(6)
H12 H 0.8758 -0.5491 1.1184
C13 C 0.9325(14) -0.3943(8) 1.0873(6)
H13 H 0.8749 -0.3555 1.1196
Cd1_2 Cd 1.03278(9) -0.77167(6) 1.04993(4)
Cd1C Cd 1.53278(9) 0.27167(6) 0.95007(4)
N3_2 N 1.0174(10) 0.4274(6) 1.0420(5)
O1C O 1.0390(9) 0.2374(6) 0.9288(3)
O2C O 0.7998(8) 0.2475(7) 0.9703(3)
O7 O 0.356(2) 0.5377(11) 0.7253(6)
O8 O 0.8428(14) 0.2451(13) 0.2576(5)
O9 O 0.1574(16) 0.6517(10) 0.8190(6)
O10 O 0.703(3) 0.111(2) 0.3380(11)
loop_
_geom_bond_atom_site_label_1
_geom_bond_atom_site_label_2
_geom_bond_site_symmetry_1
_geom_bond_site_symmetry_2
Cd1 N1 1_555 1_555
S1 O3 1_555 1_555
N1 H1 1_555 1_555
H2 N1 1_555 1_555
N2 Cd1 1_555 1_555
N3 C11 1_555 1_555
O1 C1 1_555 1_555
O2 Cd1 1_555 1_555
O4 S1 1_555 1_555
O5 S1 1_555 1_555
O6 Cd1 1_555 1_555
C1 O2 1_555 1_555
C2 N1 1_555 1_555
H3 C2 1_555 1_555
C3 S1 1_555 1_555
H4 C3 1_555 1_555
H5 C3 1_555 1_555
C4 N2 1_555 1_555
H6 C4 1_555 1_555
C5 C4 1_555 1_555
H7 C5 1_555 1_555
C6 C5 1_555 1_555
C7 C6 1_555 1_555
H8 C7 1_555 1_555
C8 N2 1_555 1_555
H9 C8 1_555 1_555
C9 C6 1_555 1_555
C10 C9 1_555 1_555
H10 C10 1_555 1_555
C11 C10 1_555 1_555
H11 C11 1_555 1_555
C12 N3 1_555 1_555
H12 C12 1_555 1_555
C13 C9 1_555 1_555
H13 C13 1_555 1_555
Cd1_2 N3 1_555 1_555
Cd1C O1 1_555 1_555
N3_2 Cd1 1_555 1_555
O1C Cd1 1_555 1_555
O2C Cd1 1_555 1_555
O2 Cd1C 1_555 1_555
C1 C2 1_555 1_555
C2 C3 1_555 1_555
C7 C8 1_555 1_555
C12 C13 1_555 1_555

#END
