
#######################################################################
#
#                 Cambridge Crystallographic Data Centre
#                                CCDC 
#
#######################################################################
#
# If this CIF has been generated from an entry in the Cambridge 
# Structural Database, then it will include bibliographic, chemical, 
# crystal, experimental, refinement or atomic coordinate data resulting 
# from the CCDC's data processing and validation procedures.
#
#######################################################################

data_EKOMAT
_symmetry_cell_setting           triclinic
_symmetry_space_group_name_H-M   'P -1'
_symmetry_Int_Tables_number      2
_space_group_name_Hall           '-P 1'
loop_
_symmetry_equiv_pos_site_id
_symmetry_equiv_pos_as_xyz
1 x,y,z
2 -x,-y,-z
_cell_length_a                   7.3032(15)
_cell_length_b                   8.0590(16)
_cell_length_c                   9.7201(19)
_cell_angle_alpha                111.09(3)
_cell_angle_beta                 105.97(3)
_cell_angle_gamma                95.67(3)
_cell_volume                     500.538
loop_
_atom_site_label
_atom_site_type_symbol
_atom_site_fract_x
_atom_site_fract_y
_atom_site_fract_z
Zn1 Zn 0.44895(5) 0.64923(5) 0.89033(4)
O1 O 0.5016(4) 0.8120(3) 0.7948(3)
O2 O 0.1572(4) 0.5829(4) 0.1748(3)
O3 O 0.6010(3) 0.6121(3) 1.2117(2)
O4 O 1.0456(4) 1.1761(3) 1.2047(3)
C1 C 0.8656(4) 0.8699(4) 1.3592(3)
C2 C 0.7166(4) 0.7416(4) 1.2118(3)
C3 C 0.8924(4) 0.8429(4) 1.4965(3)
H1 H 0.8216 0.7393 1.4948
C4 C 0.9741(4) 1.0279(4) 1.3638(3)
C5 C 0.9492(5) 1.0474(4) 1.2153(4)
C6 C 0.5914(4) 1.0542(4) 0.6609(4)
H2 H 0.6529 1.0901 0.7677
C7 C 0.4233(5) 0.7583(4) 0.6430(4)
C8 C 0.2466(5) 0.6464(4) 0.3182(4)
C9 C 0.4658(4) 0.8843(4) 0.5725(3)
C10 C 0.3746(4) 0.8291(4) 0.4096(3)
N1 N 0.2281(5) 0.5502(4) 0.4011(3)
H3 H 0.1562 0.4419 0.3482
N2 N 0.3080(5) 0.5991(4) 0.5611(3)
N3 N 0.6929(4) 0.7684(4) 1.0830(3)
N4 N 0.8158(4) 0.9160(4) 1.0889(3)
H4 H 0.8046 0.9233 1.0010
O5 O 0.2248(4) 0.6881(4) 0.9653(3)
H5 H 0.208(9) 0.629(9) 1.011(8)
H6 H 0.125(10) 0.710(9) 0.915(8)
Zn1A Zn 0.55105(5) 0.35077(5) 1.10967(4)
Zn1_2 Zn 1.44895(5) 1.64923(5) 1.89033(4)
Zn1A_2 Zn 0.55105(5) 1.35077(5) 0.10967(4)
Zn1A_3 Zn 1.55105(5) 1.35077(5) 2.10967(4)
O1A O 0.4984(4) 1.1880(3) 0.2052(3)
O1A_2 O 0.4984(4) 0.1880(3) 1.2052(3)
O2A O 0.8428(4) 1.4171(4) 0.8252(3)
O3A O 1.3990(3) 1.3879(3) 1.7883(2)
O3A_2 O 0.3990(3) 0.3879(3) 0.7883(2)
O4A O 0.9544(4) 0.8239(3) 1.7953(3)
C1A C 1.1344(4) 1.1301(4) 1.6408(3)
C2A C 1.2834(4) 1.2584(4) 1.7882(3)
C3A C 1.1076(4) 1.1571(4) 1.5035(3)
H1A H 1.1784 1.2607 1.5052
C4A C 1.0259(4) 0.9721(4) 1.6362(3)
C5A C 1.0508(5) 0.9526(4) 1.7847(4)
C6A C 0.4086(4) 0.9458(4) 0.3391(4)
H2A H 0.3471 0.9099 0.2323
C7A C 0.5767(5) 1.2417(4) 0.3570(4)
C8A C 0.7534(5) 1.3536(4) 0.6818(4)
C9A C 0.5342(4) 1.1157(4) 0.4275(3)
C10A C 0.6254(4) 1.1709(4) 0.5904(3)
N1A N 0.7719(5) 1.4498(4) 0.5989(3)
H3A H 0.8438 1.5581 0.6518
N2A N 0.6920(5) 1.4009(4) 0.4389(3)
N3A N 1.3071(4) 1.2316(4) 1.9170(3)
N3A_2 N 0.3071(4) 0.2316(4) 0.9170(3)
N4A N 1.1842(4) 1.0840(4) 1.9111(3)
H4A H 1.1954 1.0767 1.9990
O5A O 0.7752(4) 0.3119(4) 1.0347(3)
H5A H 0.792(9) 0.371(9) 0.989(8)
H6A H 0.875(10) 0.290(9) 1.085(8)
loop_
_geom_bond_atom_site_label_1
_geom_bond_atom_site_label_2
_geom_bond_site_symmetry_1
_geom_bond_site_symmetry_2
Zn1 O1 1_555 1_555
O1 C7 1_555 1_555
O2 C8 1_555 1_555
O3 C2 1_555 1_555
O4 C5 1_555 1_555
C1 C2 1_555 1_555
C2 N3 1_555 1_555
C3 C1 1_555 1_555
H1 C3 1_555 1_555
C4 C1 1_555 1_555
C5 C4 1_555 1_555
C6 H2 1_555 1_555
C7 C9 1_555 1_555
C8 C10 1_555 1_555
C9 C6 1_555 1_555
C10 C9 1_555 1_555
N1 C8 1_555 1_555
H3 N1 1_555 1_555
N2 C7 1_555 1_555
N3 Zn1 1_555 1_555
N4 C5 1_555 1_555
H4 N4 1_555 1_555
O5 Zn1 1_555 1_555
H5 O5 1_555 1_555
H6 O5 1_555 1_555
Zn1A O3 1_555 1_555
Zn1_2 O3A 1_555 1_555
Zn1A_2 O1A 1_555 1_555
Zn1A_3 N3A 1_555 1_555
O1A C7A 1_555 1_555
O1A_2 Zn1A 1_555 1_555
O2A C8A 1_555 1_555
O3A C2A 1_555 1_555
O3A_2 Zn1 1_555 1_555
O4A C5A 1_555 1_555
C1A C2A 1_555 1_555
C2A N3A 1_555 1_555
C3A C4 1_555 1_555
H1A C3A 1_555 1_555
C4A C3 1_555 1_555
C5A C4A 1_555 1_555
C6A C10 1_555 1_555
H2A C6A 1_555 1_555
C7A C9A 1_555 1_555
C8A C10A 1_555 1_555
C9A C6A 1_555 1_555
C10A C6 1_555 1_555
N1A C8A 1_555 1_555
H3A N1A 1_555 1_555
N2A C7A 1_555 1_555
N3A N4A 1_555 1_555
N3A_2 Zn1A 1_555 1_555
N4A C5A 1_555 1_555
H4A N4A 1_555 1_555
O5A Zn1A 1_555 1_555
H5A O5A 1_555 1_555
H6A O5A 1_555 1_555
N1 N2 1_555 1_555
N3 N4 1_555 1_555
C1A C3A 1_555 1_555
C1A C4A 1_555 1_555
C9A C10A 1_555 1_555
N1A N2A 1_555 1_555

#END
