
#######################################################################
#
#                 Cambridge Crystallographic Data Centre
#                                CCDC 
#
#######################################################################
#
# If this CIF has been generated from an entry in the Cambridge 
# Structural Database, then it will include bibliographic, chemical, 
# crystal, experimental, refinement or atomic coordinate data resulting 
# from the CCDC's data processing and validation procedures.
#
#######################################################################

data_EKOMEX
_symmetry_cell_setting           triclinic
_symmetry_space_group_name_H-M   'P -1'
_symmetry_Int_Tables_number      2
_space_group_name_Hall           '-P 1'
loop_
_symmetry_equiv_pos_site_id
_symmetry_equiv_pos_as_xyz
1 x,y,z
2 -x,-y,-z
_cell_length_a                   9.7690(13)
_cell_length_b                   10.4090(14)
_cell_length_c                   10.9897(14)
_cell_angle_alpha                85.332(2)
_cell_angle_beta                 66.104(2)
_cell_angle_gamma                71.615(3)
_cell_volume                     968.169
loop_
_atom_site_label
_atom_site_type_symbol
_atom_site_fract_x
_atom_site_fract_y
_atom_site_fract_z
Cd1 Cd 0.35836(3) 0.57219(2) 0.16704(3)
C1 C 0.4055(4) 0.8054(3) 0.2157(3)
C2 C 0.2150(4) 1.0499(3) 0.1560(3)
C3 C 0.4554(4) 0.9266(3) 0.1962(3)
C4 C 0.3636(4) 1.0474(3) 0.1619(3)
C5 C 0.5969(4) 0.9230(3) 0.1993(3)
H1 H 0.6584 0.8441 0.2210
C6 C 0.4159(4) 1.1599(3) 0.1295(3)
H2 H 0.3561 1.2380 0.1052
C7 C 0.6473(4) 1.0370(3) 0.1700(3)
C8 C 0.5580(4) 1.1560(3) 0.1332(3)
C9 C 0.7985(4) 1.0331(3) 0.1714(3)
C10 C 0.6224(4) 1.2697(3) 0.0932(3)
C11 C 0.4140(5) 0.3905(4) 0.4098(4)
H3 H 0.4958 0.4269 0.3900
C12 C 0.3993(6) 0.2896(5) 0.5019(4)
H4 H 0.4704 0.2589 0.5421
C13 C 0.2791(6) 0.2371(4) 0.5316(4)
H5 H 0.2684 0.1691 0.5920
C14 C 0.1713(5) 0.2846(4) 0.4719(4)
C15 C 0.1966(4) 0.3855(3) 0.3779(3)
C16 C 0.0921(4) 0.4349(3) 0.3106(3)
C17 C 0.0257(5) 0.5740(4) 0.1540(4)
H6 H 0.0471 0.6366 0.0892
C18 C -0.1064(5) 0.5340(4) 0.1817(4)
H7 H -0.1734 0.5711 0.1385
C19 C -0.1354(5) 0.4385(4) 0.2742(4)
H8 H -0.2208 0.4077 0.2917
C20 C -0.0371(5) 0.3871(4) 0.3425(4)
C21 C -0.0590(6) 0.2861(4) 0.4401(4)
H9 H -0.1444 0.2541 0.4618
C22 C 0.0394(6) 0.2372(4) 0.5005(4)
H10 H 0.0221 0.1712 0.5622
N1 N 0.2721(3) 0.8105(3) 0.2094(3)
N2 N 0.1798(3) 0.9330(2) 0.1835(3)
H11 H 0.0906 0.9339 0.1852
N3 N 0.8380(3) 1.1474(3) 0.1342(3)
H12 H 0.9255 1.1469 0.1356
N4 N 0.7564(3) 1.2661(3) 0.0936(3)
N5 N 0.3166(3) 0.4364(3) 0.3497(3)
N6 N 0.1230(3) 0.5277(3) 0.2150(3)
O1 O 0.4922(3) 0.6890(2) 0.2322(2)
O2 O 0.5443(3) 1.3786(2) 0.0507(2)
O3 O 0.1276(3) 1.1519(2) 0.1263(2)
O4 O 0.8840(3) 0.9332(2) 0.2048(3)
Cd1_2 Cd 0.35836(3) 1.57219(2) 0.16704(3)
Cd1A Cd 0.64164(3) 1.42781(2) -0.16704(3)
O2_2 O 0.5443(3) 0.3786(2) 0.0507(2)
O2A O 0.4557(3) 0.6214(2) -0.0507(2)
loop_
_geom_bond_atom_site_label_1
_geom_bond_atom_site_label_2
_geom_bond_site_symmetry_1
_geom_bond_site_symmetry_2
Cd1 N1 1_555 1_555
C1 C3 1_555 1_555
C2 C4 1_555 1_555
C3 C4 1_555 1_555
C4 C6 1_555 1_555
C5 C3 1_555 1_555
H1 C5 1_555 1_555
C6 H2 1_555 1_555
C7 C5 1_555 1_555
C8 C6 1_555 1_555
C9 C7 1_555 1_555
C10 C8 1_555 1_555
C11 H3 1_555 1_555
C12 C11 1_555 1_555
H4 C12 1_555 1_555
C13 C12 1_555 1_555
H5 C13 1_555 1_555
C14 C13 1_555 1_555
C15 C14 1_555 1_555
C16 C15 1_555 1_555
C17 H6 1_555 1_555
C18 C17 1_555 1_555
H7 C18 1_555 1_555
C19 C18 1_555 1_555
H8 C19 1_555 1_555
C20 C16 1_555 1_555
C21 C20 1_555 1_555
H9 C21 1_555 1_555
C22 C14 1_555 1_555
H10 C22 1_555 1_555
N1 C1 1_555 1_555
N2 C2 1_555 1_555
H11 N2 1_555 1_555
N3 C9 1_555 1_555
H12 N3 1_555 1_555
N4 C10 1_555 1_555
N5 Cd1 1_555 1_555
N6 Cd1 1_555 1_555
O1 Cd1 1_555 1_555
O2 C10 1_555 1_555
O3 C2 1_555 1_555
O4 C9 1_555 1_555
Cd1_2 O2 1_555 1_555
Cd1A O2 1_555 1_555
O2_2 Cd1 1_555 1_555
O2A Cd1 1_555 1_555
C1 O1 1_555 1_555
C7 C8 1_555 1_555
C11 N5 1_555 1_555
C15 N5 1_555 1_555
C16 N6 1_555 1_555
C17 N6 1_555 1_555
C19 C20 1_555 1_555
C21 C22 1_555 1_555
N1 N2 1_555 1_555
N3 N4 1_555 1_555

#END
