
#######################################################################
#
#                 Cambridge Crystallographic Data Centre
#                                CCDC 
#
#######################################################################
#
# If this CIF has been generated from an entry in the Cambridge 
# Structural Database, then it will include bibliographic, chemical, 
# crystal, experimental, refinement or atomic coordinate data resulting 
# from the CCDC's data processing and validation procedures.
#
#######################################################################

data_EKOPIE
_symmetry_cell_setting           tetragonal
_symmetry_space_group_name_H-M   'P 43 21 2'
_symmetry_Int_Tables_number      96
_space_group_name_Hall           'P 4nw 2abw'
loop_
_symmetry_equiv_pos_site_id
_symmetry_equiv_pos_as_xyz
1 x,y,z
2 -x,-y,1/2+z
3 1/2-y,1/2+x,3/4+z
4 1/2+y,1/2-x,1/4+z
5 1/2-x,1/2+y,3/4-z
6 1/2+x,1/2-y,1/4-z
7 y,x,-z
8 -y,-x,1/2-z
_cell_length_a                   17.4938(4)
_cell_length_b                   17.4938(4)
_cell_length_c                   13.2142(5)
_cell_angle_alpha                90
_cell_angle_beta                 90
_cell_angle_gamma                90
_cell_volume                     4043.98
loop_
_atom_site_label
_atom_site_type_symbol
_atom_site_fract_x
_atom_site_fract_y
_atom_site_fract_z
Cd1 Cd 0.33480(2) 0.33480(2) 0.0000
Sr1 Sr 0.13930(3) 0.38821(3) -0.05332(4)
O1 O 0.3549(3) 0.4483(2) 0.0921(3)
O2 O 0.2751(2) 0.4527(2) -0.0358(3)
O3 O 0.2464(2) 0.8053(2) -0.1183(3)
O4 O 0.1802(3) 0.7027(2) -0.1585(3)
O5 O 0.1189(3) 0.5070(3) 0.0585(4)
O6 O 0.0798(4) 0.2566(3) -0.0792(5)
O7 O 0.1047(3) 0.3912(2) -0.2524(4)
O8 O 0.1275(2) 0.5027(2) -0.1905(3)
O9 O 0.0767(3) 0.4920(3) -0.3383(3)
N1 N 0.0874(4) 0.6293(4) 0.0916(5)
N2 N -0.0094(6) 0.1669(6) -0.0845(7)
N3 N 0.1025(3) 0.4621(3) -0.2618(4)
C1 C 0.3134(4) 0.4846(3) 0.0336(4)
C2 C 0.2292(4) 0.7363(3) -0.1057(4)
C3 C 0.3105(4) 0.5710(3) 0.0414(4)
C4 C 0.3517(4) 0.6083(4) 0.1166(5)
H1 H 0.3793 0.5802 0.1639
C5 C 0.3515(4) 0.6860(4) 0.1209(5)
H2 H 0.3777 0.7109 0.1726
C6 C 0.3121(4) 0.7289(4) 0.0481(5)
H3 H 0.3138 0.7820 0.0496
C7 C 0.2703(4) 0.6911(3) -0.0265(4)
C8 C 0.2698(3) 0.6124(3) -0.0289(4)
H4 H 0.2417 0.5870 -0.0783
C9 C 0.0915(4) 0.5685(4) 0.0341(5)
H5 H 0.0719 0.5725 -0.0311
C10 C 0.0558(6) 0.7003(5) 0.0554(8)
H6 H 0.0372 0.6935 -0.0124
H7 H 0.0947 0.7390 0.0558
H8 H 0.0145 0.7157 0.0986
C11 C 0.1152(7) 0.6274(6) 0.1931(7)
H9 H 0.1340 0.5771 0.2082
H10 H 0.0745 0.6400 0.2389
H11 H 0.1559 0.6638 0.2005
C12 C 0.0322(6) 0.2152(6) -0.0447(8)
H12 H 0.0252 0.2203 0.0247
C13 C -0.0795(8) 0.1428(9) -0.0521(10)
H13 H -0.0831 0.1492 0.0199
H14 H -0.0861 0.0899 -0.0688
H15 H -0.1186 0.1725 -0.0845
C14 C -0.0087(8) 0.1554(9) -0.1948(10)
H16 H 0.0395 0.1722 -0.2217
H17 H -0.0493 0.1844 -0.2251
H18 H -0.0156 0.1021 -0.2097
Cd1B Cd 0.16520(2) 0.83480(2) -0.2500
Cd1C Cd 0.83480(2) 0.16520(2) 0.2500
Sr1F Sr 0.38821(3) 0.13930(3) 0.05332(4)
Sr1D Sr 0.36070(3) 0.88821(3) -0.19668(4)
Sr1B Sr 0.11179(3) 0.63930(3) -0.30332(4)
Sr1C Sr 0.88821(3) 0.36070(3) 0.19668(4)
Sr1E Sr 0.63930(3) 0.11179(3) 0.30332(4)
Sr1C_2 Sr -0.11179(3) 0.36070(3) 0.19668(4)
O1F O 0.4483(2) 0.3549(3) -0.0921(3)
O2F O 0.4527(2) 0.2751(2) 0.0358(3)
O3F O 0.8053(2) 0.2464(2) 0.1183(3)
O3C O 0.3053(2) 0.2536(2) 0.1317(3)
O3D O 0.2536(2) 0.3053(2) -0.1317(3)
O4F O 0.7027(2) 0.1802(3) 0.1585(3)
O4C O 0.2027(2) 0.3198(3) 0.0915(3)
O4D O 0.3198(3) 0.2027(2) -0.0915(3)
O5F O 0.5070(3) 0.1189(3) -0.0585(4)
O6F O 0.2566(3) 0.0798(4) 0.0792(5)
O7C O -0.1088(2) 0.3953(3) -0.0024(4)
O7F O 0.3912(2) 0.1047(3) 0.2524(4)
O8C O 0.0027(2) 0.3725(2) 0.0595(3)
O8F O 0.5027(2) 0.1275(2) 0.1905(3)
O8D O 0.3725(2) 0.0027(2) -0.0595(3)
O9C O -0.0080(3) 0.4233(3) -0.0883(3)
O9D O 0.4233(3) -0.0080(3) 0.0883(3)
N1F N 0.6293(4) 0.0874(4) -0.0916(5)
N2F N 0.1669(6) -0.0094(6) 0.0845(7)
N3C N -0.0379(3) 0.3975(3) -0.0118(4)
C1F C 0.4846(3) 0.3134(4) -0.0336(4)
C2F C 0.7363(3) 0.2292(4) 0.1057(4)
C3F C 0.5710(3) 0.3105(4) -0.0414(4)
C4F C 0.6083(4) 0.3517(4) -0.1166(5)
H1F H 0.5802 0.3793 -0.1639
C5F C 0.6860(4) 0.3515(4) -0.1209(5)
H2F H 0.7109 0.3777 -0.1726
C6F C 0.7289(4) 0.3121(4) -0.0481(5)
H3F H 0.7820 0.3138 -0.0496
C7F C 0.6911(3) 0.2703(4) 0.0265(4)
C8F C 0.6124(3) 0.2698(3) 0.0289(4)
H4F H 0.5870 0.2417 0.0783
C9F C 0.5685(4) 0.0915(4) -0.0341(5)
H5F H 0.5725 0.0719 0.0311
C10F C 0.7003(5) 0.0558(6) -0.0554(8)
H6F H 0.6935 0.0372 0.0124
H7F H 0.7390 0.0947 -0.0558
H8F H 0.7157 0.0145 -0.0986
C11F C 0.6274(6) 0.1152(7) -0.1931(7)
H9F H 0.5771 0.1340 -0.2082
H10F H 0.6400 0.0745 -0.2389
H11F H 0.6638 0.1559 -0.2005
C12F C 0.2152(6) 0.0322(6) 0.0447(8)
H12F H 0.2203 0.0252 -0.0247
C13F C 0.1428(9) -0.0795(8) 0.0521(10)
H13F H 0.1492 -0.0831 -0.0199
H14F H 0.0899 -0.0861 0.0688
H15F H 0.1725 -0.1186 0.0845
C14F C 0.1554(9) -0.0087(8) 0.1948(10)
H16F H 0.1722 0.0395 0.2217
H17F H 0.1844 -0.0493 0.2251
H18F H 0.1021 -0.0156 0.2097
loop_
_geom_bond_atom_site_label_1
_geom_bond_atom_site_label_2
_geom_bond_site_symmetry_1
_geom_bond_site_symmetry_2
Cd1 O1 1_555 1_555
Sr1 O2 1_555 1_555
O1 C1 1_555 1_555
O2 Cd1 1_555 1_555
O3 C2 1_555 1_555
O4 C2 1_555 1_555
O5 Sr1 1_555 1_555
O6 Sr1 1_555 1_555
O7 Sr1 1_555 1_555
O8 Sr1 1_555 1_555
O9 N3 1_555 1_555
N1 C9 1_555 1_555
N2 C12 1_555 1_555
N3 O7 1_555 1_555
C1 O2 1_555 1_555
C2 C7 1_555 1_555
C3 C1 1_555 1_555
C4 C3 1_555 1_555
H1 C4 1_555 1_555
C5 C4 1_555 1_555
H2 C5 1_555 1_555
C6 C5 1_555 1_555
H3 C6 1_555 1_555
C7 C6 1_555 1_555
C8 C3 1_555 1_555
H4 C8 1_555 1_555
C9 O5 1_555 1_555
H5 C9 1_555 1_555
C10 N1 1_555 1_555
H6 C10 1_555 1_555
H7 C10 1_555 1_555
H8 C10 1_555 1_555
C11 N1 1_555 1_555
H9 C11 1_555 1_555
H10 C11 1_555 1_555
H11 C11 1_555 1_555
C12 O6 1_555 1_555
H12 C12 1_555 1_555
C13 N2 1_555 1_555
H13 C13 1_555 1_555
H14 C13 1_555 1_555
H15 C13 1_555 1_555
C14 N2 1_555 1_555
H16 C14 1_555 1_555
H17 C14 1_555 1_555
H18 C14 1_555 1_555
Cd1B O3 1_555 1_555
Cd1C O3F 1_555 1_555
Sr1F O2F 1_555 1_555
Sr1D O3 1_555 1_555
Sr1B O4 1_555 1_555
Sr1C O3F 1_555 1_555
Sr1E O4F 1_555 1_555
Sr1C_2 O7C 1_555 1_555
O1F Cd1 1_555 1_555
O2F Cd1 1_555 1_555
O3F C2F 1_555 1_555
O3C Cd1 1_555 1_555
O3D Cd1 1_555 1_555
O4F Cd1C 1_555 1_555
O4C Cd1 1_555 1_555
O4D Cd1 1_555 1_555
O5F Sr1F 1_555 1_555
O6F Sr1F 1_555 1_555
O7C N3C 1_555 1_555
O7F Sr1F 1_555 1_555
O8C Sr1 1_555 1_555
O8F Sr1F 1_555 1_555
O8D Sr1F 1_555 1_555
O9C Sr1 1_555 1_555
O9D Sr1F 1_555 1_555
N1F C9F 1_555 1_555
N2F C12F 1_555 1_555
N3C O8C 1_555 1_555
C1F O1F 1_555 1_555
C2F O4F 1_555 1_555
C3F C1F 1_555 1_555
C4F C3F 1_555 1_555
H1F C4F 1_555 1_555
C5F C4F 1_555 1_555
H2F C5F 1_555 1_555
C6F C5F 1_555 1_555
H3F C6F 1_555 1_555
C7F C2F 1_555 1_555
C8F C3F 1_555 1_555
H4F C8F 1_555 1_555
C9F O5F 1_555 1_555
H5F C9F 1_555 1_555
C10F N1F 1_555 1_555
H6F C10F 1_555 1_555
H7F C10F 1_555 1_555
H8F C10F 1_555 1_555
C11F N1F 1_555 1_555
H9F C11F 1_555 1_555
H10F C11F 1_555 1_555
H11F C11F 1_555 1_555
C12F O6F 1_555 1_555
H12F C12F 1_555 1_555
C13F N2F 1_555 1_555
H13F C13F 1_555 1_555
H14F C13F 1_555 1_555
H15F C13F 1_555 1_555
C14F N2F 1_555 1_555
H16F C14F 1_555 1_555
H17F C14F 1_555 1_555
H18F C14F 1_555 1_555
Sr1 O3D 1_555 1_555
Sr1 O4C 1_555 1_555
O4 Cd1B 1_555 1_555
O8 N3 1_555 1_555
O8 Sr1B 1_555 1_555
O9 Sr1B 1_555 1_555
C7 C8 1_555 1_555
Sr1F O3C 1_555 1_555
Sr1F O4D 1_555 1_555
Sr1E O8F 1_555 1_555
Sr1C_2 O8C 1_555 1_555
O2F C1F 1_555 1_555
O9C N3C 1_555 1_555
C6F C7F 1_555 1_555
C7F C8F 1_555 1_555

#END
