
#######################################################################
#
#                 Cambridge Crystallographic Data Centre
#                                CCDC 
#
#######################################################################
#
# If this CIF has been generated from an entry in the Cambridge 
# Structural Database, then it will include bibliographic, chemical, 
# crystal, experimental, refinement or atomic coordinate data resulting 
# from the CCDC's data processing and validation procedures.
#
#######################################################################

data_EKOPOK
_symmetry_cell_setting           tetragonal
_symmetry_space_group_name_H-M   'I -4 c 2'
_symmetry_Int_Tables_number      120
_space_group_name_Hall           'I -4 -2c'
loop_
_symmetry_equiv_pos_site_id
_symmetry_equiv_pos_as_xyz
1 x,y,z
2 -x,-y,z
3 y,-x,-z
4 -y,x,-z
5 x,-y,1/2+z
6 -x,y,1/2+z
7 y,x,1/2-z
8 -y,-x,1/2-z
9 1/2+x,1/2+y,1/2+z
10 1/2-x,1/2-y,1/2+z
11 1/2+y,1/2-x,1/2-z
12 1/2-y,1/2+x,1/2-z
13 1/2+x,1/2-y,z
14 1/2-x,1/2+y,z
15 1/2+y,1/2+x,-z
16 1/2-y,1/2-x,-z
_cell_length_a                   19.6226(4)
_cell_length_b                   19.6226(4)
_cell_length_c                   14.2086(6)
_cell_angle_alpha                90
_cell_angle_beta                 90
_cell_angle_gamma                90
_cell_volume                     5470.97
loop_
_atom_site_label
_atom_site_type_symbol
_atom_site_fract_x
_atom_site_fract_y
_atom_site_fract_z
Cd1 Cd -0.267766(10) 0.232234(10) 0.0000
Ca1 Ca -0.29746(3) 0.29746(3) -0.2500
O1 O -0.34116(13) 0.22991(14) -0.1262(2)
O2 O -0.39717(13) 0.22086(16) 0.0063(3)
O3 O -0.65550(15) 0.26864(17) -0.0359(2)
O4 O -0.70288(14) 0.22128(19) -0.1603(2)
O5 O -0.5046(2) 0.1753(2) -0.3797(2)
H1 H -0.5362 0.1906 -0.4110
O6 O -0.3257(2) 0.3857(3) -0.1484(5)
H2 H -0.3479 0.4212 -0.1637
H3 H -0.3106 0.3770 -0.0937
C1 C -0.39670(19) 0.2224(2) -0.0818(2)
C2 C -0.65189(19) 0.2385(2) -0.1149(3)
C3 C -0.46075(18) 0.2167(2) -0.1379(3)
C4 C -0.4554(2) 0.1974(2) -0.2326(3)
H4 H -0.4129 0.1877 -0.2583
C5 C -0.5133(2) 0.1927(2) -0.2878(3)
C6 C -0.57678(19) 0.2060(2) -0.2493(3)
H5 H -0.6157 0.2019 -0.2862
C7 C -0.58237(19) 0.2256(2) -0.1551(3)
C8 C -0.5241(2) 0.2303(2) -0.0992(3)
H6 H -0.5278 0.2425 -0.0361
Cd1B Cd -0.767766(10) 0.267766(10) 0.0000
Cd1C Cd -0.232234(10) -0.267766(10) 0.0000
Ca1K Ca -0.79746(3) 0.20254(3) -0.2500
Ca1I Ca -0.20254(3) 0.20254(3) 0.2500
Ca1C Ca -0.29746(3) -0.29746(3) 0.2500
O1N O -0.27009(14) 0.15884(13) 0.1262(2)
O1G O -0.22991(14) 0.34116(13) -0.3738(2)
O2N O -0.27914(16) 0.10283(13) -0.0063(3)
O3N O -0.23136(17) -0.15550(15) 0.0359(2)
O3C O -0.26864(17) 0.34450(15) 0.0359(2)
O3L O -0.15550(15) 0.23136(17) -0.0359(2)
O4N O -0.27872(19) -0.20288(14) 0.1603(2)
O4J O -0.27872(19) 0.20288(14) -0.3397(2)
O4L O -0.20288(14) 0.27872(19) -0.1603(2)
O5N O -0.3247(2) -0.0046(2) 0.3797(2)
H1N H -0.3094 -0.0362 0.4110
O6G O -0.3857(3) 0.3257(2) -0.3516(5)
H2G H -0.4212 0.3479 -0.3363
H3G H -0.3770 0.3106 -0.4063
C1N C -0.2776(2) 0.10330(19) 0.0818(2)
C2N C -0.2615(2) -0.15189(19) 0.1149(3)
C3N C -0.2833(2) 0.03925(18) 0.1379(3)
C4N C -0.3026(2) 0.0446(2) 0.2326(3)
H4N H -0.3123 0.0871 0.2583
C5N C -0.3073(2) -0.0133(2) 0.2878(3)
C6N C -0.2940(2) -0.07678(19) 0.2493(3)
H5N H -0.2981 -0.1157 0.2862
C7N C -0.2744(2) -0.08237(19) 0.1551(3)
C8N C -0.2697(2) -0.0241(2) 0.0992(3)
H6N H -0.2575 -0.0278 0.0361
loop_
_geom_bond_atom_site_label_1
_geom_bond_atom_site_label_2
_geom_bond_site_symmetry_1
_geom_bond_site_symmetry_2
Cd1 O1 1_555 1_555
Ca1 O1 1_555 1_555
O1 C1 1_555 1_555
O2 Cd1 1_555 1_555
O3 C2 1_555 1_555
O4 C2 1_555 1_555
O5 H1 1_555 1_555
O6 Ca1 1_555 1_555
H2 O6 1_555 1_555
H3 O6 1_555 1_555
C1 O2 1_555 1_555
C2 C7 1_555 1_555
C3 C1 1_555 1_555
C4 C3 1_555 1_555
H4 C4 1_555 1_555
C5 O5 1_555 1_555
C6 C5 1_555 1_555
H5 C6 1_555 1_555
C7 C6 1_555 1_555
C8 C3 1_555 1_555
H6 C8 1_555 1_555
Cd1B O3 1_555 1_555
Cd1C O3N 1_555 1_555
Ca1K O4 1_555 1_555
Ca1I O1N 1_555 1_555
Ca1C O4N 1_555 1_555
O1N Cd1 1_555 1_555
O1G Ca1 1_555 1_555
O2N Cd1 1_555 1_555
O3N C2N 1_555 1_555
O3C Cd1 1_555 1_555
O3L Cd1 1_555 1_555
O4N C2N 1_555 1_555
O4J Ca1 1_555 1_555
O4L Ca1 1_555 1_555
O5N H1N 1_555 1_555
O6G Ca1 1_555 1_555
H2G O6G 1_555 1_555
H3G O6G 1_555 1_555
C1N O1N 1_555 1_555
C2N C7N 1_555 1_555
C3N C1N 1_555 1_555
C4N C3N 1_555 1_555
H4N C4N 1_555 1_555
C5N O5N 1_555 1_555
C6N C5N 1_555 1_555
H5N C6N 1_555 1_555
C7N C6N 1_555 1_555
C8N C3N 1_555 1_555
H6N C8N 1_555 1_555
C4 C5 1_555 1_555
C7 C8 1_555 1_555
O2N C1N 1_555 1_555
C4N C5N 1_555 1_555
C7N C8N 1_555 1_555

#END
