
#######################################################################
#
#                 Cambridge Crystallographic Data Centre
#                                CCDC 
#
#######################################################################
#
# If this CIF has been generated from an entry in the Cambridge 
# Structural Database, then it will include bibliographic, chemical, 
# crystal, experimental, refinement or atomic coordinate data resulting 
# from the CCDC's data processing and validation procedures.
#
#######################################################################

data_EKOVUW
_symmetry_cell_setting           monoclinic
_symmetry_space_group_name_H-M   'P 21/n'
_symmetry_Int_Tables_number      14
_space_group_name_Hall           '-P 2yn'
loop_
_symmetry_equiv_pos_site_id
_symmetry_equiv_pos_as_xyz
1 x,y,z
2 1/2-x,1/2+y,1/2-z
3 -x,-y,-z
4 1/2+x,1/2-y,1/2+z
_cell_length_a                   7.311(4)
_cell_length_b                   14.432(7)
_cell_length_c                   24.230(13)
_cell_angle_alpha                90
_cell_angle_beta                 91.479(10)
_cell_angle_gamma                90
_cell_volume                     2555.71
loop_
_atom_site_label
_atom_site_type_symbol
_atom_site_fract_x
_atom_site_fract_y
_atom_site_fract_z
Nd1 Nd 0.39587(7) 0.74131(3) 0.15923(2)
S1 S -0.1551(4) -0.00867(15) 0.14368(12)
S2 S 0.5790(3) 0.80340(16) -0.22978(10)
N1 N 0.0903(10) 0.3552(4) 0.0549(3)
N2 N 0.1195(11) 0.4272(5) 0.0928(3)
N3 N 0.2820(10) 0.5136(5) -0.0357(3)
N4 N 0.3550(10) 0.5954(5) -0.0318(3)
O1 O 0.7094(11) 0.6782(6) 0.1389(3)
O2 O 0.1264(11) 0.3313(5) -0.0395(3)
O3 O 0.1821(10) 0.5943(5) 0.1453(3)
O4 O 0.1160(11) 0.7835(5) 0.1059(4)
O5 O 0.3594(10) 0.6354(4) 0.0763(3)
O6 O 0.6150(10) 0.8108(4) 0.2258(3)
O7 O 0.4889(12) 0.6063(5) 0.2194(3)
O8 O -0.3409(11) 0.0059(5) 0.1591(4)
O9 O -0.1382(10) -0.0766(5) 0.1000(3)
O10 O 0.5270(11) 0.8310(5) 0.0791(3)
O11 O -0.0339(12) -0.0275(5) 0.1900(3)
O12 O 0.3339(9) 0.9131(4) 0.1754(3)
O14 O 0.6608(11) 0.8900(5) -0.2127(3)
O15 O 0.4015(9) 0.8151(5) -0.2577(3)
O16 O 0.7006(11) 0.7460(4) -0.2626(3)
C1 C -0.0821(12) 0.0989(6) 0.1155(4)
C2 C -0.0809(12) 0.1774(6) 0.1490(4)
H1 H -0.1173 0.1729 0.1854
C3 C -0.0270(14) 0.2600(6) 0.1289(4)
H2 H -0.0273 0.3122 0.1514
C4 C 0.0292(12) 0.2672(5) 0.0746(4)
C5 C 0.0300(17) 0.1898(7) 0.0412(4)
H3 H 0.0657 0.1944 0.0047
C6 C -0.0231(16) 0.1047(7) 0.0627(5)
H4 H -0.0182 0.0517 0.0409
C7 C 0.1413(12) 0.3804(6) 0.0036(4)
C8 C 0.2174(11) 0.4721(5) 0.0090(3)
C9 C 0.1940(12) 0.4932(6) 0.0655(4)
C10 C 0.2494(14) 0.5794(6) 0.0982(4)
C11 C 0.4187(12) 0.6405(6) -0.0789(4)
C12 C 0.4831(14) 0.7303(6) -0.0730(4)
H5 H 0.4906 0.7574 -0.0382
C13 C 0.5358(15) 0.7793(6) -0.1183(4)
H6 H 0.5717 0.8408 -0.1146
C14 C 0.5357(12) 0.7373(6) -0.1696(4)
C15 C 0.4743(14) 0.6463(6) -0.1753(4)
H7 H 0.4707 0.6187 -0.2100
C16 C 0.4184(13) 0.5968(6) -0.1298(4)
H8 H 0.3814 0.5354 -0.1333
Nd1C Nd 0.89587(7) 0.75869(3) -0.34077(2)
O16C O 0.2006(11) 0.7540(4) 0.2374(3)
O13 O 0.5757(15) 0.9741(6) 0.2860(4)
O17 O 0.422(4) 0.972(6) 0.029(3)
loop_
_geom_bond_atom_site_label_1
_geom_bond_atom_site_label_2
_geom_bond_site_symmetry_1
_geom_bond_site_symmetry_2
Nd1 O1 1_555 1_555
S1 O8 1_555 1_555
S2 O14 1_555 1_555
N1 N2 1_555 1_555
N2 C9 1_555 1_555
N3 N4 1_555 1_555
N4 C11 1_555 1_555
O2 C7 1_555 1_555
O3 Nd1 1_555 1_555
O4 Nd1 1_555 1_555
O5 Nd1 1_555 1_555
O6 Nd1 1_555 1_555
O7 Nd1 1_555 1_555
O9 S1 1_555 1_555
O10 Nd1 1_555 1_555
O11 S1 1_555 1_555
O12 Nd1 1_555 1_555
O15 S2 1_555 1_555
O16 S2 1_555 1_555
C1 S1 1_555 1_555
C2 C1 1_555 1_555
H1 C2 1_555 1_555
C3 C2 1_555 1_555
H2 C3 1_555 1_555
C4 N1 1_555 1_555
C5 C4 1_555 1_555
H3 C5 1_555 1_555
C6 C1 1_555 1_555
H4 C6 1_555 1_555
C7 N1 1_555 1_555
C8 N3 1_555 1_555
C9 C8 1_555 1_555
C10 O3 1_555 1_555
C11 C12 1_555 1_555
C12 H5 1_555 1_555
C13 C12 1_555 1_555
H6 C13 1_555 1_555
C14 S2 1_555 1_555
C15 C14 1_555 1_555
H7 C15 1_555 1_555
C16 C11 1_555 1_555
H8 C16 1_555 1_555
Nd1C O16 1_555 1_555
O16C Nd1 1_555 1_555
O5 C10 1_555 1_555
C3 C4 1_555 1_555
C5 C6 1_555 1_555
C7 C8 1_555 1_555
C9 C10 1_555 1_555
C13 C14 1_555 1_555
C15 C16 1_555 1_555

#END
