
#######################################################################
#
#                 Cambridge Crystallographic Data Centre
#                                CCDC 
#
#######################################################################
#
# If this CIF has been generated from an entry in the Cambridge 
# Structural Database, then it will include bibliographic, chemical, 
# crystal, experimental, refinement or atomic coordinate data resulting 
# from the CCDC's data processing and validation procedures.
#
#######################################################################

data_EKOYIN
_symmetry_cell_setting           monoclinic
_symmetry_space_group_name_H-M   'P 21/c'
_symmetry_Int_Tables_number      14
_space_group_name_Hall           '-P 2ybc'
loop_
_symmetry_equiv_pos_site_id
_symmetry_equiv_pos_as_xyz
1 x,y,z
2 -x,1/2+y,1/2-z
3 -x,-y,-z
4 x,1/2-y,1/2+z
_cell_length_a                   8.7003(9)
_cell_length_b                   35.3946(36)
_cell_length_c                   10.7606(11)
_cell_angle_alpha                90
_cell_angle_beta                 91.846(1)
_cell_angle_gamma                90
_cell_volume                     3311.94
loop_
_atom_site_label
_atom_site_type_symbol
_atom_site_fract_x
_atom_site_fract_y
_atom_site_fract_z
Ag1 Ag 0.21436(5) 0.992701(14) 0.45970(4)
N1 N 0.3729(5) 0.99028(13) 0.6147(4)
C1 C 0.8487(6) 1.00714(14) 1.1007(5)
C2 C 0.5796(5) 0.98658(15) 0.8195(5)
C4 C 0.4322(6) 1.02139(16) 0.6686(5)
H2 H 0.4024 1.0446 0.6364
C5 C 0.7456(5) 1.01114(15) 0.9927(4)
H3 H 0.7201 1.0354 0.9676
C6 C 0.6850(6) 0.98290(15) 0.9269(4)
H4 H 0.7121 0.9587 0.9514
C17 C 0.5338(6) 1.02089(16) 0.7679(5)
H12 H 0.5720 1.0433 0.8009
C20 C 0.9097(6) 1.03823(15) 1.1639(5)
H14 H 0.8837 1.0623 1.1373
C23 C 0.4172(6) 0.95761(16) 0.6636(5)
H17 H 0.3769 0.9357 0.6288
C24 C 0.8958(6) 0.97215(15) 1.1486(5)
H18 H 0.8605 0.9501 1.1109
C25 C 0.5188(6) 0.95447(15) 0.7623(5)
H27 H 0.5476 0.9308 0.7914
C28 C 1.0071(6) 1.03363(16) 1.2645(5)
H29 H 1.0450 1.0551 1.3041
N3 N 1.0512(5) 1.00037(12) 1.3094(4)
C31 C 0.9944(4) 0.97020(9) 1.2513(3)
H32 H 1.0225 0.9466 1.2814
O10 O 0.2337(4) 0.91876(9) 0.4188(3)
H33 H 0.3055 0.9097 0.3768
H34 H 0.1634 0.9047 0.4528
Ag1_2 Ag 1.21436(5) 0.992701(14) 1.45970(4)
N3_2 N 0.0512(5) 1.00037(12) 0.3094(4)
Ag2 Ag 0.54037(5) 0.249536(14) 0.78169(4)
N2 N 0.3924(5) 0.24373(12) 0.6195(4)
C3 C 0.2365(6) 0.27219(15) 0.4599(5)
H1 H 0.2020 0.2941 0.4211
C8 C 0.0764(6) 0.23297(15) 0.3119(5)
H5 H 0.0533 0.2086 0.2869
C9 C 0.2444(6) 0.20602(15) 0.4780(5)
H6 H 0.2140 0.1822 0.4519
C10 C 0.3468(6) 0.21031(16) 0.5772(5)
H7 H 0.3857 0.1889 0.6162
C11 C 0.3382(6) 0.27426(16) 0.5607(5)
H8 H 0.3701 0.2978 0.5887
C12 C -0.1028(6) 0.25769(15) 0.1463(5)
C13 C 0.1868(6) 0.23802(14) 0.4172(4)
C14 C -0.1520(6) 0.22317(15) 0.0992(5)
H9 H -0.1172 0.2009 0.1357
C15 C 0.0075(6) 0.26120(15) 0.2502(5)
H10 H 0.0323 0.2854 0.2761
O8 O 0.5088(2) 0.32899(6) 0.78422(17)
H23 H 0.5660 0.3498 0.7843
H24 H 0.4287 0.3455 0.7833
C27 C -0.1606(6) 0.28972(16) 0.0877(5)
H28 H -0.1312 0.3134 0.1160
C29 C -0.2621(7) 0.28619(17) -0.0130(5)
H30 H -0.3004 0.3079 -0.0506
C30 C -0.2528(6) 0.22214(16) -0.0018(5)
H31 H -0.2845 0.1988 -0.0321
N4 N -0.3072(5) 0.25322(13) -0.0583(4)
Ag2_2 Ag -0.45963(5) 0.249536(14) -0.21831(4)
N4_2 N 0.6928(5) 0.25322(13) 0.9417(4)
S1 S 0.50877(15) 0.13018(4) 0.80990(12)
O1 O 0.5484(4) 0.16938(10) 0.8125(4)
O2 O 0.6029(4) 0.10740(11) 0.8944(4)
C7 C 0.3187(6) 0.12766(13) 0.8634(4)
O3 O 0.5016(4) 0.11476(11) 0.6850(3)
C16 C 0.2956(6) 0.12749(13) 0.9899(4)
H11 H 0.3795 0.1263 1.0452
C18 C 0.1477(6) 0.12910(13) 1.0351(4)
C19 C 0.0466(6) 0.12996(15) 0.8241(5)
H13 H -0.0372 0.1304 0.7685
C21 C 0.1930(6) 0.12898(14) 0.7799(5)
H15 H 0.2078 0.1292 0.6951
C22 C 0.0231(6) 0.13030(14) 0.9507(5)
H16 H -0.0761 0.1313 0.9792
O4 O -0.0089(4) 0.13355(12) 1.2107(3)
O5 O 0.2410(2) 0.12580(6) 1.24330(17)
C26 C 0.1234(6) 0.12943(15) 1.1743(4)
O6 O 0.9770(2) 0.12533(6) 0.46657(17)
H19 H 0.9620 0.1213 0.3845
H20 H 1.0367 0.1336 0.5243
O7 O 0.6839(2) 0.12545(6) 0.14266(17)
H21 H 0.6602 0.1216 0.0626
H22 H 0.7749 0.1295 0.1405
O9 O 0.2807(2) 0.09581(6) 0.48214(17)
H25 H 0.3721 0.1031 0.5007
H26 H 0.2866 0.1045 0.4139
loop_
_geom_bond_atom_site_label_1
_geom_bond_atom_site_label_2
_geom_bond_site_symmetry_1
_geom_bond_site_symmetry_2
Ag1 N1 1_555 1_555
N1 C4 1_555 1_555
Ag2 N2 1_555 1_555
N2 C10 1_555 1_555
S1 O1 1_555 1_555
C1 C5 1_555 1_555
O2 S1 1_555 1_555
C2 C6 1_555 1_555
C3 H1 1_555 1_555
C4 H2 1_555 1_555
C5 H3 1_555 1_555
C6 C5 1_555 1_555
H4 C6 1_555 1_555
C7 S1 1_555 1_555
O3 S1 1_555 1_555
C8 H5 1_555 1_555
C9 H6 1_555 1_555
C10 C9 1_555 1_555
H7 C10 1_555 1_555
C11 N2 1_555 1_555
H8 C11 1_555 1_555
C12 C14 1_555 1_555
C13 C3 1_555 1_555
C14 H9 1_555 1_555
C15 C8 1_555 1_555
H10 C15 1_555 1_555
C16 C7 1_555 1_555
H11 C16 1_555 1_555
C17 C2 1_555 1_555
H12 C17 1_555 1_555
C18 C16 1_555 1_555
C19 H13 1_555 1_555
C20 C1 1_555 1_555
H14 C20 1_555 1_555
C21 C7 1_555 1_555
H15 C21 1_555 1_555
C22 C18 1_555 1_555
H16 C22 1_555 1_555
C23 N1 1_555 1_555
H17 C23 1_555 1_555
C24 C1 1_555 1_555
H18 C24 1_555 1_555
O4 C26 1_555 1_555
O5 C26 1_555 1_555
O6 H19 1_555 1_555
H20 O6 1_555 1_555
O7 H21 1_555 1_555
H22 O7 1_555 1_555
O8 Ag2 1_555 1_555
H23 O8 1_555 1_555
H24 O8 1_555 1_555
O9 H25 1_555 1_555
H26 O9 1_555 1_555
C25 C2 1_555 1_555
H27 C25 1_555 1_555
C26 C18 1_555 1_555
C27 C12 1_555 1_555
H28 C27 1_555 1_555
C28 C20 1_555 1_555
H29 C28 1_555 1_555
C29 C27 1_555 1_555
H30 C29 1_555 1_555
C30 C14 1_555 1_555
H31 C30 1_555 1_555
N3 C28 1_555 1_555
N4 C29 1_555 1_555
C31 C24 1_555 1_555
H32 C31 1_555 1_555
O10 Ag1 1_555 1_555
H33 O10 1_555 1_555
H34 O10 1_555 1_555
Ag1_2 N3 1_555 1_555
Ag2_2 N4 1_555 1_555
N3_2 Ag1 1_555 1_555
N4_2 Ag2 1_555 1_555
C3 C11 1_555 1_555
C4 C17 1_555 1_555
C8 C13 1_555 1_555
C9 C13 1_555 1_555
C12 C15 1_555 1_555
C19 C21 1_555 1_555
C19 C22 1_555 1_555
C23 C25 1_555 1_555
C30 N4 1_555 1_555
N3 C31 1_555 1_555

#END
