
#######################################################################
#
#                 Cambridge Crystallographic Data Centre
#                                CCDC 
#
#######################################################################
#
# If this CIF has been generated from an entry in the Cambridge 
# Structural Database, then it will include bibliographic, chemical, 
# crystal, experimental, refinement or atomic coordinate data resulting 
# from the CCDC's data processing and validation procedures.
#
#######################################################################

data_EKOYAF
_symmetry_cell_setting           triclinic
_symmetry_space_group_name_H-M   'P -1'
_symmetry_Int_Tables_number      2
_space_group_name_Hall           '-P 1'
loop_
_symmetry_equiv_pos_site_id
_symmetry_equiv_pos_as_xyz
1 x,y,z
2 -x,-y,-z
_cell_length_a                   8.2378(6)
_cell_length_b                   8.8653(6)
_cell_length_c                   11.1382(8)
_cell_angle_alpha                93.090(1)
_cell_angle_beta                 98.278(1)
_cell_angle_gamma                110.660(1)
_cell_volume                     748.357
loop_
_atom_site_label
_atom_site_type_symbol
_atom_site_fract_x
_atom_site_fract_y
_atom_site_fract_z
Ag1 Ag 0.42366(3) 0.96783(3) 0.12869(2)
Ag2 Ag 0.41849(3) 1.26856(3) 0.03608(2)
S1 S 0.40870(9) 0.59742(8) 0.22899(6)
N1 N 0.6222(3) 1.1226(3) 0.2774(2)
O1 O 0.3048(3) 0.6979(3) 0.2116(3)
C1 C 0.6956(3) 1.2839(3) 0.2739(3)
N2 N 0.6835(3) 1.3368(3) 0.1569(2)
H1 H 0.7510 1.3005 0.1155
H2 H 0.7329 1.4458 0.1668
C2 C 0.2652(3) 0.4035(3) 0.2567(2)
O2 O 0.5467(3) 0.6578(3) 0.3322(2)
C3 C 0.1260(3) 0.3114(3) 0.1662(2)
H3 H 0.1025 0.3536 0.0940
O3 O 0.4672(4) 0.5631(3) 0.1187(2)
C4 C 0.0216(3) 0.1552(3) 0.1840(2)
C5 C 0.0553(4) 0.0951(3) 0.2943(3)
H4 H -0.0133 -0.0096 0.3063
C6 C 0.7258(4) 1.1648(4) 0.4923(3)
H5 H 0.7381 1.1213 0.5656
C7 C 0.2973(4) 0.3440(3) 0.3669(3)
H6 H 0.3903 0.4068 0.4277
C8 C 0.7768(4) 1.3906(4) 0.3784(3)
H7 H 0.8212 1.5019 0.3744
C9 C 0.6422(4) 1.0662(4) 0.3855(3)
H8 H 0.5973 0.9546 0.3883
C10 C 0.1892(4) 0.1900(4) 0.3852(3)
H9 H 0.2077 0.1507 0.4596
C11 C 0.7908(4) 1.3294(4) 0.4880(3)
H10 H 0.8442 1.3993 0.5595
C12 C -0.1288(4) 0.0541(3) 0.0865(2)
O5 O -0.1945(3) 0.1297(2) 0.01367(18)
O6 O -0.1815(3) -0.0970(2) 0.0845(2)
Ag1A Ag 0.57634(3) 1.03217(3) -0.12869(2)
Ag1A_2 Ag -0.42366(3) 0.03217(3) -0.12869(2)
Ag2A Ag 0.58151(3) 0.73144(3) -0.03608(2)
Ag2_2 Ag 0.41849(3) 0.26856(3) 0.03608(2)
Ag2A_2 Ag -0.41849(3) -0.26856(3) -0.03608(2)
O3_2 O 0.4672(4) 1.5631(3) 0.1187(2)
O3A O 0.5328(4) 1.4369(3) -0.1187(2)
O5A O 0.1945(3) 0.8703(2) -0.01367(18)
O6A O 0.1815(3) 1.0970(2) -0.0845(2)
O4 O 1.0573(4) 0.3344(3) 0.8152(3)
H11 H 0.958(6) 0.328(5) 0.825(4)
H12 H 1.074(6) 0.269(6) 0.841(4)
loop_
_geom_bond_atom_site_label_1
_geom_bond_atom_site_label_2
_geom_bond_site_symmetry_1
_geom_bond_site_symmetry_2
Ag1 Ag2 1_555 1_555
Ag2 N2 1_555 1_555
S1 O1 1_555 1_555
N1 Ag1 1_555 1_555
O1 Ag1 1_555 1_555
C1 N1 1_555 1_555
N2 C1 1_555 1_555
H1 N2 1_555 1_555
H2 N2 1_555 1_555
C2 S1 1_555 1_555
O2 S1 1_555 1_555
C3 C2 1_555 1_555
H3 C3 1_555 1_555
O3 S1 1_555 1_555
C4 C3 1_555 1_555
C5 C4 1_555 1_555
H4 C5 1_555 1_555
C6 H5 1_555 1_555
C7 C2 1_555 1_555
H6 C7 1_555 1_555
C8 C1 1_555 1_555
H7 C8 1_555 1_555
C9 N1 1_555 1_555
H8 C9 1_555 1_555
C10 C5 1_555 1_555
H9 C10 1_555 1_555
C11 C6 1_555 1_555
H10 C11 1_555 1_555
O4 H11 1_555 1_555
C12 C4 1_555 1_555
O5 C12 1_555 1_555
O6 C12 1_555 1_555
H12 O4 1_555 1_555
Ag1A Ag1 1_555 1_555
Ag1A_2 O5 1_555 1_555
Ag2A Ag1 1_555 1_555
Ag2_2 O3 1_555 1_555
Ag2A_2 O6 1_555 1_555
O3_2 Ag2 1_555 1_555
O3A Ag2 1_555 1_555
O5A Ag1 1_555 1_555
O6A Ag2 1_555 1_555
Ag2 Ag1A 1_555 1_555
O3 Ag2A 1_555 1_555
C6 C9 1_555 1_555
C7 C10 1_555 1_555
C8 C11 1_555 1_555
Ag1A Ag2A 1_555 1_555
Ag1A_2 Ag2A_2 1_555 1_555

#END
