
#######################################################################
#
#                 Cambridge Crystallographic Data Centre
#                                CCDC 
#
#######################################################################
#
# If this CIF has been generated from an entry in the Cambridge 
# Structural Database, then it will include bibliographic, chemical, 
# crystal, experimental, refinement or atomic coordinate data resulting 
# from the CCDC's data processing and validation procedures.
#
#######################################################################

data_EKOZUA
_symmetry_cell_setting           monoclinic
_symmetry_space_group_name_H-M   'P c'
_symmetry_Int_Tables_number      7
_space_group_name_Hall           'P -2yc'
loop_
_symmetry_equiv_pos_site_id
_symmetry_equiv_pos_as_xyz
1 x,y,z
2 x,-y,1/2+z
_cell_length_a                   11.0881(14)
_cell_length_b                   5.1477(7)
_cell_length_c                   13.4316(17)
_cell_angle_alpha                90
_cell_angle_beta                 120.784(8)
_cell_angle_gamma                90
_cell_volume                     658.633
loop_
_atom_site_label
_atom_site_type_symbol
_atom_site_fract_x
_atom_site_fract_y
_atom_site_fract_z
Zn1 Zn 0.493103(6) 0.09514(5) 0.187471(6)
O1 O 0.4051(3) -0.1301(4) 0.2513(2)
O2 O 0.3404(3) 0.3909(4) 0.1671(3)
H1 H 0.367(6) 0.516(12) 0.211(4)
O3 O -0.0112(3) 0.4049(5) 0.2447(3)
H2 H -0.062(6) 0.533(10) 0.236(5)
O4 O 0.6434(3) 0.3491(5) 0.2749(2)
O5 O 0.7140(4) 0.1236(5) 0.4350(3)
O6 O 0.6347(3) -0.1779(6) 0.1953(3)
H3 H 0.640(7) -0.330(13) 0.224(5)
H4 H 0.707(7) -0.154(11) 0.207(6)
N1 N 0.3844(3) -0.0417(5) 0.5087(2)
C1 C 0.5365(4) -0.3344(7) 0.4796(3)
H5 H 0.5149 -0.4691 0.5175
H6 H 0.6257 -0.2587 0.5336
H7 H 0.5404 -0.4067 0.4154
C2 C 0.4259(4) -0.1309(5) 0.4368(3)
C3 C 0.3667(3) -0.0314(6) 0.3228(3)
C4 C 0.2693(3) 0.1735(6) 0.2880(3)
C5 C 0.2262(3) 0.2585(6) 0.3642(3)
C6 C 0.2846(4) 0.1429(6) 0.4712(3)
H8 H 0.2534 0.1951 0.5205
C7 C 0.2235(3) 0.3002(7) 0.1737(3)
H9 H 0.1708 0.1763 0.1119
H10 H 0.1621 0.4451 0.1630
C8 C 0.1256(4) 0.4782(7) 0.3362(3)
H11 H 0.1217 0.5242 0.4046
H12 H 0.1577 0.6289 0.3129
C9 C 0.7318(4) 0.2993(7) 0.3820(3)
C10 C 0.8576(5) 0.4750(12) 0.4403(4)
H13 H 0.9031 0.4542 0.5228
H14 H 0.8282 0.6522 0.4201
H15 H 0.9220 0.4308 0.4152
Zn1A Zn 0.493103(6) -0.09514(5) 0.687471(6)
N1A N 0.3844(3) 0.0417(5) 0.0087(2)
O7 O 0.8629(4) 0.1009(5) 0.6680(3)
H16 H 0.838(8) 0.087(10) 0.608(7)
H17 H 0.905(7) -0.012(15) 0.688(6)
loop_
_geom_bond_atom_site_label_1
_geom_bond_atom_site_label_2
_geom_bond_site_symmetry_1
_geom_bond_site_symmetry_2
Zn1 O1 1_555 1_555
O1 C3 1_555 1_555
O2 Zn1 1_555 1_555
H1 O2 1_555 1_555
O3 H2 1_555 1_555
O4 Zn1 1_555 1_555
O5 C9 1_555 1_555
O6 Zn1 1_555 1_555
H3 O6 1_555 1_555
H4 O6 1_555 1_555
N1 C2 1_555 1_555
C1 H5 1_555 1_555
H6 C1 1_555 1_555
H7 C1 1_555 1_555
C2 C1 1_555 1_555
C3 C2 1_555 1_555
C4 C3 1_555 1_555
C5 C4 1_555 1_555
C6 N1 1_555 1_555
H8 C6 1_555 1_555
C7 O2 1_555 1_555
H9 C7 1_555 1_555
H10 C7 1_555 1_555
C8 O3 1_555 1_555
H11 C8 1_555 1_555
H12 C8 1_555 1_555
C9 O4 1_555 1_555
C10 C9 1_555 1_555
H13 C10 1_555 1_555
H14 C10 1_555 1_555
H15 C10 1_555 1_555
O7 H16 1_555 1_555
H17 O7 1_555 1_555
Zn1A N1 1_555 1_555
N1A Zn1 1_555 1_555
C4 C7 1_555 1_555
C5 C6 1_555 1_555
C5 C8 1_555 1_555

#END
