
#######################################################################
#
#                 Cambridge Crystallographic Data Centre
#                                CCDC 
#
#######################################################################
#
# If this CIF has been generated from an entry in the Cambridge 
# Structural Database, then it will include bibliographic, chemical, 
# crystal, experimental, refinement or atomic coordinate data resulting 
# from the CCDC's data processing and validation procedures.
#
#######################################################################

data_EKUBES
_symmetry_cell_setting           monoclinic
_symmetry_space_group_name_H-M   'P 2/c'
_symmetry_Int_Tables_number      13
_space_group_name_Hall           '-P 2yc'
loop_
_symmetry_equiv_pos_site_id
_symmetry_equiv_pos_as_xyz
1 x,y,z
2 -x,y,1/2-z
3 -x,-y,-z
4 x,-y,1/2+z
_cell_length_a                   9.764(2)
_cell_length_b                   8.9979(18)
_cell_length_c                   18.269(4)
_cell_angle_alpha                90
_cell_angle_beta                 99.59(3)
_cell_angle_gamma                90
_cell_volume                     1582.6
loop_
_atom_site_label
_atom_site_type_symbol
_atom_site_fract_x
_atom_site_fract_y
_atom_site_fract_z
O1 O 0.4957(2) -0.0304(2) 0.65700(10)
O2 O 0.3768(2) -0.0736(2) 0.54228(10)
O5 O 0.2035(2) 0.4076(2) 0.81280(11)
O7 O 0.40036(19) 0.2804(2) 0.81264(10)
C1 C 0.2770(3) 0.3189(3) 0.78499(14)
Co1 Co 0.5000 0.12260(6) 0.7500
N1 N 0.3078(2) 0.1514(2) 0.68836(11)
C2 C 0.2760(3) 0.0809(3) 0.62340(14)
C3 C 0.1485(3) 0.1022(4) 0.57894(16)
H7 H 0.1262 0.0526 0.5339
C4 C 0.0544(3) 0.1991(4) 0.60288(16)
H8 H -0.0329 0.2130 0.5744
C5 C 0.0909(3) 0.2752(4) 0.66923(15)
H9 H 0.0301 0.3427 0.6852
C6 C 0.2198(3) 0.2481(3) 0.71106(14)
C11 C 0.3922(3) -0.0171(3) 0.60549(15)
O1A O 0.5043(2) -0.0304(2) 0.84300(10)
O2A O 0.6232(2) -0.0736(2) 0.95772(10)
O5A O 0.7965(2) 0.4076(2) 0.68720(11)
O7A O 0.59964(19) 0.2804(2) 0.68736(10)
C1A C 0.7230(3) 0.3189(3) 0.71501(14)
N1A N 0.6922(2) 0.1514(2) 0.81164(11)
C2A C 0.7240(3) 0.0809(3) 0.87660(14)
C3A C 0.8515(3) 0.1022(4) 0.92106(16)
H7A H 0.8738 0.0526 0.9661
C4A C 0.9456(3) 0.1991(4) 0.89712(16)
H8A H 1.0329 0.2130 0.9256
C5A C 0.9091(3) 0.2752(4) 0.83077(15)
H9A H 0.9699 0.3427 0.8148
C6A C 0.7802(3) 0.2481(3) 0.78894(14)
C11A C 0.6078(3) -0.0171(3) 0.89451(15)
O3 O 0.3334(2) 0.4211(3) 0.42299(12)
O4 O 0.5177(2) 0.2860(2) 0.54030(12)
H1 H 0.291(4) 0.474(5) 0.388(2)
H3 H 0.310(4) 0.338(5) 0.417(2)
H5 H 0.548(4) 0.279(5) 0.586(2)
H6 H 0.548(4) 0.226(5) 0.516(2)
Co2 Co 0.5000 0.5000 0.5000
N2 N 0.6512(3) 0.4398(3) 0.42391(12)
C7 C 0.8738(3) 0.3378(4) 0.41146(18)
H10 H 0.9657 0.3214 0.4330
C8 C 0.8265(3) 0.2906(3) 0.33949(16)
C9 C 0.6921(3) 0.3274(4) 0.31038(16)
H11 H 0.6563 0.3020 0.2616
C10 C 0.6090(3) 0.4023(4) 0.35307(16)
H12 H 0.5191 0.4276 0.3311
C12 C 0.9167(3) 0.2014(4) 0.29582(17)
H13 H 0.8582 0.1343 0.2628
H14 H 0.9807 0.1415 0.3300
C13 C 1.0000 0.2976(5) 0.2500
H15 H 1.0629 0.3609 0.2829
C14 C 0.7844(3) 0.4096(4) 0.45141(17)
H16 H 0.8186 0.4384 0.4999
O3B O 0.6666(2) 0.5789(3) 0.57701(12)
O4B O 0.4823(2) 0.7140(2) 0.45970(12)
H1B H 0.709(4) 0.526(5) 0.612(2)
H3B H 0.690(4) 0.662(5) 0.583(2)
H5B H 0.452(4) 0.721(5) 0.414(2)
H6B H 0.452(4) 0.774(5) 0.484(2)
Co2A Co 1.5000 0.5000 0.0000
N2A N 1.3488(3) 0.4398(3) 0.07609(12)
N2B N 0.3488(3) 0.5602(3) 0.57609(12)
C7A C 1.1262(3) 0.3378(4) 0.08854(18)
H10A H 1.0343 0.3214 0.0670
C8A C 1.1735(3) 0.2906(3) 0.16051(16)
C9A C 1.3079(3) 0.3274(4) 0.18962(16)
H11A H 1.3437 0.3020 0.2384
C10A C 1.3910(3) 0.4023(4) 0.14693(16)
H12A H 1.4809 0.4276 0.1689
C12A C 1.0833(3) 0.2014(4) 0.20418(17)
H13A H 1.1418 0.1343 0.2372
H14A H 1.0193 0.1415 0.1700
H15A H 0.9371 0.3609 0.2171
C14A C 1.2156(3) 0.4096(4) 0.04859(17)
H16A H 1.1814 0.4384 0.0001
O6 O 0.7236(3) -0.1179(3) 0.59161(17)
H2 H 0.704(5) -0.081(6) 0.553(3)
H4 H 0.670(5) -0.096(5) 0.617(2)
loop_
_geom_bond_atom_site_label_1
_geom_bond_atom_site_label_2
_geom_bond_site_symmetry_1
_geom_bond_site_symmetry_2
O1 Co1 1_555 1_555
O2 C11 1_555 1_555
O3 H1 1_555 1_555
O4 H5 1_555 1_555
O5 C1 1_555 1_555
O6 H2 1_555 1_555
O7 C1 1_555 1_555
C1 C6 1_555 1_555
H3 O3 1_555 1_555
H4 O6 1_555 1_555
H6 O4 1_555 1_555
Co1 O7 1_555 1_555
Co2 O3 1_555 1_555
N1 Co1 1_555 1_555
N2 Co2 1_555 1_555
C2 N1 1_555 1_555
C3 C2 1_555 1_555
H7 C3 1_555 1_555
C4 C3 1_555 1_555
H8 C4 1_555 1_555
C5 C4 1_555 1_555
H9 C5 1_555 1_555
C6 N1 1_555 1_555
C7 H10 1_555 1_555
C8 C7 1_555 1_555
C9 C8 1_555 1_555
H11 C9 1_555 1_555
C10 N2 1_555 1_555
H12 C10 1_555 1_555
C11 O1 1_555 1_555
C12 C8 1_555 1_555
H13 C12 1_555 1_555
H14 C12 1_555 1_555
C13 C12 1_555 1_555
H15 C13 1_555 1_555
C14 N2 1_555 1_555
H16 C14 1_555 1_555
O1A Co1 1_555 1_555
O2A C11A 1_555 1_555
O3B Co2 1_555 1_555
O4B Co2 1_555 1_555
O5A C1A 1_555 1_555
O7A Co1 1_555 1_555
C1A O7A 1_555 1_555
H1B O3B 1_555 1_555
H3B O3B 1_555 1_555
H5B O4B 1_555 1_555
H6B O4B 1_555 1_555
Co2A N2A 1_555 1_555
N1A Co1 1_555 1_555
N2A C10A 1_555 1_555
N2B Co2 1_555 1_555
C2A N1A 1_555 1_555
C3A C2A 1_555 1_555
H7A C3A 1_555 1_555
C4A C3A 1_555 1_555
H8A C4A 1_555 1_555
C5A C4A 1_555 1_555
H9A C5A 1_555 1_555
C6A C1A 1_555 1_555
C7A H10A 1_555 1_555
C8A C7A 1_555 1_555
C9A C8A 1_555 1_555
H11A C9A 1_555 1_555
C10A C9A 1_555 1_555
H12A C10A 1_555 1_555
C11A O1A 1_555 1_555
C12A C13 1_555 1_555
H13A C12A 1_555 1_555
H14A C12A 1_555 1_555
H15A C13 1_555 1_555
C14A N2A 1_555 1_555
H16A C14A 1_555 1_555
O4 Co2 1_555 1_555
C2 C11 1_555 1_555
C5 C6 1_555 1_555
C7 C14 1_555 1_555
C9 C10 1_555 1_555
N1A C6A 1_555 1_555
C2A C11A 1_555 1_555
C5A C6A 1_555 1_555
C7A C14A 1_555 1_555
C8A C12A 1_555 1_555

#END
