
#######################################################################
#
#                 Cambridge Crystallographic Data Centre
#                                CCDC 
#
#######################################################################
#
# If this CIF has been generated from an entry in the Cambridge 
# Structural Database, then it will include bibliographic, chemical, 
# crystal, experimental, refinement or atomic coordinate data resulting 
# from the CCDC's data processing and validation procedures.
#
#######################################################################

data_EKUBES01
_symmetry_cell_setting           monoclinic
_symmetry_space_group_name_H-M   'P c'
_symmetry_Int_Tables_number      7
_space_group_name_Hall           'P -2yc'
loop_
_symmetry_equiv_pos_site_id
_symmetry_equiv_pos_as_xyz
1 x,y,z
2 x,-y,1/2+z
_cell_length_a                   9.7424(6)
_cell_length_b                   8.9653(6)
_cell_length_c                   18.229(11)
_cell_angle_alpha                90
_cell_angle_beta                 99.41(3)
_cell_angle_gamma                90
_cell_volume                     1570.76
loop_
_atom_site_label
_atom_site_type_symbol
_atom_site_fract_x
_atom_site_fract_y
_atom_site_fract_z
Co1 Co 0.11438(8) 0.122326(18) 0.03288(4)
O3 O 0.2130(3) 0.2812(3) -0.02952(16)
O4 O 0.2389(3) -0.0721(3) 0.24100(17)
O5 O -0.1819(3) 0.4074(3) 0.09504(17)
O7 O 0.4109(3) 0.4062(3) -0.03154(18)
O8 O -0.0071(3) -0.0754(4) -0.17384(18)
O9 O 0.0136(3) 0.2787(3) 0.09589(16)
O10 O 0.1114(3) -0.0307(3) -0.05985(18)
O11 O 0.1193(3) -0.0317(3) 0.12586(17)
N1 N -0.0749(3) 0.1492(3) -0.02887(18)
N2 N 0.3091(3) 0.1516(4) 0.09398(16)
C1 C -0.1065(4) 0.3201(4) 0.0692(2)
C2 C 0.3393(4) 0.3167(4) -0.0013(2)
C3 C 0.2260(4) -0.0162(4) 0.1781(2)
C4 C -0.1106(4) 0.0828(4) -0.0925(2)
C5 C 0.3368(4) 0.0780(4) 0.16021(19)
C6 C 0.0104(4) -0.0193(4) -0.1107(2)
C7 C -0.1689(3) 0.2499(4) -0.0064(2)
C8 C 0.3909(3) 0.2444(4) 0.0711(2)
C13 C 0.5601(4) 0.2017(6) 0.1781(3)
C14 C -0.2353(5) 0.1007(5) -0.1356(2)
C17 C -0.2928(4) 0.2780(5) -0.0466(2)
C18 C 0.5245(4) 0.2731(5) 0.1141(2)
C19 C -0.3296(4) 0.1971(6) -0.1156(2)
C21 C 0.4668(4) 0.1030(5) 0.2065(2)
H7 H -0.342(3) 0.375(3) -0.0368(14)
H8 H 0.592(2) 0.329(2) 0.0937(11)
H9 H 0.654(2) 0.202(2) 0.2067(12)
H12 H 0.477(3) 0.074(3) 0.2530(18)
H17 H -0.411(4) 0.247(4) -0.158(2)
H29 H -0.258(3) 0.034(3) -0.1801(18)
Co2 Co 0.11456(8) 0.50007(8) -0.21720(5)
O1 O 0.0938(3) 0.7125(3) -0.25809(15)
O2 O 0.1288(3) 0.2844(3) -0.17799(16)
O6 O 0.2800(4) 0.5789(4) -0.14018(19)
O12 O -0.0524(3) 0.4211(3) -0.29464(18)
N3 N -0.0346(3) 0.5620(4) -0.1419(2)
N4 N -0.7323(4) 0.5580(4) 0.2063(2)
C9 C -0.2108(5) 0.7057(4) -0.0570(3)
C10 C -0.5572(4) 0.7116(4) 0.1220(2)
C11 C -0.7765(5) 0.5949(5) 0.1371(3)
C12 C 0.0055(4) 0.5986(5) -0.0689(2)
C15 C -0.6939(5) 0.6716(5) 0.0918(2)
C16 C -0.0781(5) 0.6710(6) -0.0282(2)
C20 C -0.3841(7) 0.70176(16) 0.0330(4)
C22 C -0.2587(4) 0.6623(6) -0.1263(3)
C23 C -0.4694(5) 0.7958(4) 0.0789(3)
C24 C -0.3022(5) 0.8025(6) -0.0127(3)
C25 C -0.5124(5) 0.6640(6) 0.1969(2)
C26 C -0.1713(4) 0.5900(5) -0.1705(2)
C27 C -0.6040(5) 0.5908(6) 0.2326(3)
H1 H 0.053(3) 0.731(4) -0.3141(18)
H2 H 0.116(3) 0.611(3) -0.0555(14)
H3 H 0.159(3) 0.280(3) -0.1410(19)
H4 H -0.861(2) 0.559(2) 0.1146(11)
H5 H 0.065(2) 0.780(3) -0.2350(14)
H6 H 0.144(6) 0.219(6) -0.219(3)
H10 H -0.087(2) 0.467(2) -0.3302(12)
H11 H -0.727(3) 0.680(3) 0.0403(15)
H13 H -0.033(3) 0.728(4) 0.020(2)
H14 H -0.077(3) 0.327(3) -0.2975(14)
H15 H -0.313(2) 0.648(3) 0.0711(13)
H16 H -0.417(4) 0.649(4) 0.212(2)
H18 H -0.568(3) 0.545(3) 0.2801(16)
H19 H -0.199(3) 0.592(3) -0.2235(17)
H23 H -0.5318(19) 0.8728(19) 0.0437(11)
H27 H -0.429(3) 0.882(3) 0.0972(15)
H30 H -0.342(3) 0.692(3) -0.1520(17)
H32 H 0.373(7) 0.523(7) -0.115(4)
Co2A Co -0.88544(8) 0.49993(8) 0.28280(5)
N4A N 0.2677(4) 0.4420(4) -0.2937(2)
O13 O 0.3365(4) 0.8825(4) -0.1258(2)
H22 H 0.272(2) 0.918(2) -0.0984(12)
H24 H 0.313(2) 0.937(2) -0.1702(12)
O14 O -0.1093(4) 0.1188(4) -0.3083(2)
H20 H -0.089(3) 0.158(3) -0.3493(18)
H25 H -0.146(4) 0.036(4) -0.325(2)
H21? H 0.677(3) 0.237(3) -0.4943(17)
H26? H 0.575(3) 0.388(3) -0.4908(17)
H28? H 0.618(2) 0.145(3) -0.5561(14)
H31? H 0.295(7) 0.631(6) -0.136(4)
loop_
_geom_bond_atom_site_label_1
_geom_bond_atom_site_label_2
_geom_bond_site_symmetry_1
_geom_bond_site_symmetry_2
Co1 O3 1_555 1_555
Co2 O1 1_555 1_555
O1 H1 1_555 1_555
O2 Co2 1_555 1_555
O3 C2 1_555 1_555
O4 C3 1_555 1_555
O5 C1 1_555 1_555
O6 Co2 1_555 1_555
O7 C2 1_555 1_555
O8 C6 1_555 1_555
O9 Co1 1_555 1_555
O10 Co1 1_555 1_555
O11 Co1 1_555 1_555
N1 Co1 1_555 1_555
O12 Co2 1_555 1_555
N2 Co1 1_555 1_555
C1 O9 1_555 1_555
C2 C8 1_555 1_555
N3 Co2 1_555 1_555
C3 O11 1_555 1_555
C4 N1 1_555 1_555
C5 N2 1_555 1_555
C6 O10 1_555 1_555
N4 C11 1_555 1_555
C7 N1 1_555 1_555
C8 N2 1_555 1_555
C9 C16 1_555 1_555
C10 C15 1_555 1_555
C11 C15 1_555 1_555
C12 N3 1_555 1_555
C13 C18 1_555 1_555
C14 C4 1_555 1_555
C15 H11 1_555 1_555
C16 C12 1_555 1_555
C17 C7 1_555 1_555
C18 C8 1_555 1_555
C19 C14 1_555 1_555
C20 C23 1_555 1_555
C21 C5 1_555 1_555
C22 C9 1_555 1_555
C23 C10 1_555 1_555
C24 C9 1_555 1_555
C25 C10 1_555 1_555
C26 N3 1_555 1_555
C27 N4 1_555 1_555
O13 H22 1_555 1_555
O14 H20 1_555 1_555
H2 C12 1_555 1_555
H3 O2 1_555 1_555
H4 C11 1_555 1_555
H5 O1 1_555 1_555
H6 O2 1_555 1_555
H7 C17 1_555 1_555
H8 C18 1_555 1_555
H9 C13 1_555 1_555
H10 O12 1_555 1_555
H12 C21 1_555 1_555
H13 C16 1_555 1_555
H14 O12 1_555 1_555
H15 C20 1_555 1_555
H16 C25 1_555 1_555
H17 C19 1_555 1_555
H18 C27 1_555 1_555
H19 C26 1_555 1_555
H23 C23 1_555 1_555
H24 O13 1_555 1_555
H25 O14 1_555 1_555
H27 C23 1_555 1_555
H29 C14 1_555 1_555
H30 C22 1_555 1_555
H32 O6 1_555 1_555
Co2A N4 1_555 1_555
N4A Co2 1_555 1_555
C1 C7 1_555 1_555
C3 C5 1_555 1_555
C4 C6 1_555 1_555
C13 C21 1_555 1_555
C17 C19 1_555 1_555
C20 C24 1_555 1_555
C22 C26 1_555 1_555
C25 C27 1_555 1_555

#END
