
#######################################################################
#
#                 Cambridge Crystallographic Data Centre
#                                CCDC 
#
#######################################################################
#
# If this CIF has been generated from an entry in the Cambridge 
# Structural Database, then it will include bibliographic, chemical, 
# crystal, experimental, refinement or atomic coordinate data resulting 
# from the CCDC's data processing and validation procedures.
#
#######################################################################

data_EKUCAP
_symmetry_cell_setting           triclinic
_symmetry_space_group_name_H-M   'P -1'
_symmetry_Int_Tables_number      2
_space_group_name_Hall           '-P 1'
loop_
_symmetry_equiv_pos_site_id
_symmetry_equiv_pos_as_xyz
1 x,y,z
2 -x,-y,-z
_cell_length_a                   11.077(5)
_cell_length_b                   15.362(5)
_cell_length_c                   22.079(5)
_cell_angle_alpha                108.526(5)
_cell_angle_beta                 100.061(5)
_cell_angle_gamma                98.304(5)
_cell_volume                     3426.22
loop_
_atom_site_label
_atom_site_type_symbol
_atom_site_fract_x
_atom_site_fract_y
_atom_site_fract_z
Sn1 Sn 0.66155(2) 0.308780(18) 0.099385(12)
Sn2 Sn 1.18604(2) 0.327563(18) 0.153177(12)
O1 O 0.5046(2) 0.3362(2) 0.15397(12)
O2 O 0.9781(2) 0.3063(2) 0.10198(12)
O3 O 0.7904(2) 0.2730(2) 0.03535(13)
O4 O 0.3697(2) 0.3488(2) 0.21729(13)
C1 C 0.9071(3) 0.2753(3) 0.04542(18)
C2 C 0.9214(3) 0.1753(3) -0.13533(18)
C3 C 0.9569(3) 0.2403(3) -0.01325(18)
H1 H 1.0406 0.2359 -0.0077
C4 C 0.4766(3) 0.3380(3) 0.20686(18)
C5 C 0.5264(3) 0.2929(3) 0.01314(17)
C6 C 0.7611(3) 0.4509(3) 0.14994(19)
C7 C 0.8945(6) 0.6350(4) 0.2098(4)
H2 H 0.9394 0.6968 0.2302
N1 N 0.8398(4) 0.3073(3) 0.54402(19)
C8 C 1.2498(4) 0.1709(3) 0.0427(2)
H3 H 1.2891 0.2209 0.0331
C9 C 1.1191(3) 0.3434(3) 0.24010(19)
C10 C 0.5659(3) 0.3298(3) 0.26105(19)
H4 H 0.6425 0.3158 0.2541
N2 N 0.9958(4) 0.0381(3) -0.31965(18)
C11 C 0.6764(3) 0.1953(3) 0.1340(2)
C12 C 0.5422(4) 0.3414(3) 0.3189(2)
H5 H 0.4657 0.3570 0.3240
C13 C 1.0291(4) 0.1383(3) -0.1401(2)
H6 H 1.0853 0.1439 -0.1018
C14 C 1.2353(4) 0.4496(3) 0.1285(2)
C15 C 0.8018(4) 0.2925(3) 0.4297(2)
H7 H 0.8751 0.2701 0.4270
C16 C 1.1921(4) 0.1902(3) 0.0939(2)
C17 C 0.9737(4) 0.0860(3) -0.2579(2)
C18 C 0.6203(4) 0.3330(4) 0.3765(2)
C19 C 0.7660(4) 0.3174(4) 0.4889(2)
C20 C 0.7304(4) 0.3003(3) 0.3747(2)
H8 H 0.7566 0.2833 0.3356
C21 C 1.0542(4) 0.0943(3) -0.1994(2)
H9 H 1.1260 0.0696 -0.2007
C22 C 0.9019(6) 0.5858(4) 0.1492(4)
H10 H 0.9513 0.6135 0.1275
C23 C 0.8430(4) 0.1681(3) -0.1938(2)
H11 H 0.7716 0.1933 -0.1923
C24 C 1.0330(4) 0.4002(3) 0.2556(2)
H12 H 1.0008 0.4283 0.2265
C25 C 0.8003(7) -0.0735(6) -0.3623(4)
H13 H 0.8083 -0.0803 -0.3215
C26 C 0.8876(3) 0.2154(3) -0.07299(19)
H14 H 0.8059 0.2244 -0.0760
C27 C 1.1204(6) 0.0396(4) -0.3273(2)
C28 C 0.7893(4) 0.1888(3) 0.1690(2)
H15 H 0.8630 0.2292 0.1721
C29 C 0.3775(4) 0.3590(4) -0.0427(2)
H16 H 0.3374 0.4082 -0.0425
C30 C 0.9954(5) 0.4151(4) 0.3140(3)
H17 H 0.9375 0.4525 0.3239
C31 C 0.5003(4) 0.2152(3) -0.0430(2)
H18 H 0.5404 0.1659 -0.0437
C32 C 0.9714(5) 0.3212(4) 0.5543(2)
C33 C 1.3879(5) 0.5875(4) 0.1425(3)
H19 H 1.4663 0.6271 0.1634
C34 C 0.8866(8) -0.0058(5) -0.4330(3)
H20 H 0.9523 0.0319 -0.4401
C35 C 0.4633(3) 0.3652(3) 0.0134(2)
H21 H 0.4788 0.4180 0.0513
C36 C 0.8677(5) 0.1249(4) -0.2540(2)
H22 H 0.8134 0.1216 -0.2923
C37 C 0.7800(5) 0.2896(4) 0.5929(2)
C38 C 0.5686(4) 0.1328(4) 0.1292(3)
H23 H 0.4914 0.1359 0.1063
C39 C 0.4143(5) 0.2095(4) -0.0989(2)
H24 H 0.3989 0.1572 -0.1371
C40 C 1.1569(5) 0.4730(4) 0.0839(3)
H25 H 1.0774 0.4351 0.0633
C41 C 0.8924(7) -0.0141(5) -0.3727(3)
C42 C 1.2528(4) 0.0808(3) 0.0044(2)
H26 H 1.2922 0.0710 -0.0303
C43 C 0.7938(5) 0.1232(3) 0.1995(3)
H27 H 0.8701 0.1205 0.2235
C44 C 0.5856(5) 0.3577(4) 0.4361(2)
H28 H 0.5121 0.3798 0.4391
C45 C 1.1525(7) -0.0420(4) -0.3643(3)
H29 H 1.0915 -0.0970 -0.3859
C46 C 0.5754(5) 0.0657(4) 0.1585(3)
H30 H 0.5031 0.0224 0.1535
C47 C 1.1634(4) 0.3015(4) 0.2837(2)
H31 H 1.2190 0.2621 0.2737
C48 C 1.0389(5) 0.3940(4) 0.5434(2)
H32 H 0.9968 0.4350 0.5295
C49 C 0.7545(5) 0.5039(4) 0.2121(3)
H33 H 0.7041 0.4778 0.2342
C50 C 0.6917(9) -0.1251(7) -0.4141(5)
H34 H 0.6267 -0.1650 -0.4084
C51 C 0.6864(5) 0.0620(4) 0.1945(3)
H35 H 0.6893 0.0184 0.2155
C52 C 1.0432(6) 0.3750(5) 0.3567(3)
H36 H 1.0193 0.3867 0.3964
C53 C 0.7788(10) -0.0554(7) -0.4843(4)
H37 H 0.7701 -0.0490 -0.5253
C54 C 0.6584(5) 0.3501(5) 0.4915(2)
H38 H 0.6332 0.3677 0.5309
C55 C 0.6901(11) -0.1117(8) -0.4719(5)
H39 H 0.6207 -0.1448 -0.5063
C56 C 0.8213(5) 0.3459(4) 0.6573(3)
H40 H 0.8899 0.3959 0.6701
C57 C 0.8357(5) 0.4931(4) 0.1186(3)
H41 H 0.8418 0.4590 0.0765
C58 C 1.2101(6) 0.1202(4) -0.2995(3)
H42 H 1.1894 0.1760 -0.2765
C59 C 0.7610(6) 0.3286(5) 0.7035(3)
H43 H 0.7902 0.3662 0.7476
C60 C 1.1942(6) 0.5525(4) 0.0690(3)
H44 H 1.1389 0.5676 0.0389
C61 C 1.1259(6) 0.3177(5) 0.3424(3)
H45 H 1.1568 0.2897 0.3718
C62 C 0.8224(6) 0.5959(4) 0.2423(3)
H46 H 0.8184 0.6308 0.2846
C63 C 1.1677(7) 0.4087(6) 0.5525(3)
H47 H 1.2123 0.4582 0.5442
C64 C 1.1361(7) 0.1152(4) 0.1072(3)
H48 H 1.0940 0.1249 0.1409
C65 C 1.3325(7) 0.1192(5) -0.3053(3)
H49 H 1.3934 0.1746 -0.2854
C66 C 0.6230(7) 0.1978(6) 0.6221(4)
H50 H 0.5572 0.1461 0.6102
C67 C 1.3530(4) 0.5076(3) 0.1580(3)
H51 H 1.4090 0.4933 0.1882
C68 C 0.3521(4) 0.2809(4) -0.0978(3)
H52 H 0.2924 0.2758 -0.1347
C69 C 1.0338(6) 0.2607(5) 0.5750(3)
H53 H 0.9896 0.2111 0.5832
C70 C 1.3659(8) 0.0395(6) -0.3394(4)
H54 H 1.4487 0.0402 -0.3424
C71 C 1.2776(8) -0.0405(5) -0.3689(4)
H55 H 1.2996 -0.0953 -0.3925
C72 C 1.3093(6) 0.6080(4) 0.0974(3)
H56 H 1.3344 0.6600 0.0861
C73 C 0.6840(6) 0.2137(5) 0.5744(3)
H57 H 0.6589 0.1728 0.5310
C74 C 1.1664(8) 0.2747(7) 0.5837(4)
H58 H 1.2102 0.2334 0.5961
C75 C 1.1421(9) 0.0241(5) 0.0703(4)
H59 H 1.1077 -0.0262 0.0812
C76 C 1.1983(8) 0.0077(4) 0.0181(4)
H60 H 1.1985 -0.0534 -0.0075
C77 C 0.6598(7) 0.2572(6) 0.6846(4)
H61 H 0.6153 0.2492 0.7151
C78 C 1.2266(8) 0.3497(7) 0.5735(4)
H62 H 1.3137 0.3611 0.5815
Sn2_2 Sn 0.18604(2) 0.327563(18) 0.153177(12)
O4_2 O 1.3697(2) 0.3488(2) 0.21729(13)
loop_
_geom_bond_atom_site_label_1
_geom_bond_atom_site_label_2
_geom_bond_site_symmetry_1
_geom_bond_site_symmetry_2
Sn1 O1 1_555 1_555
Sn2 O2 1_555 1_555
O1 C4 1_555 1_555
O2 C1 1_555 1_555
O3 Sn1 1_555 1_555
O4 C4 1_555 1_555
C1 O3 1_555 1_555
C2 C13 1_555 1_555
C3 C1 1_555 1_555
H1 C3 1_555 1_555
C4 C10 1_555 1_555
C5 Sn1 1_555 1_555
C6 Sn1 1_555 1_555
C7 H2 1_555 1_555
N1 C19 1_555 1_555
C8 H3 1_555 1_555
C9 Sn2 1_555 1_555
C10 H4 1_555 1_555
N2 C17 1_555 1_555
C11 Sn1 1_555 1_555
C12 C10 1_555 1_555
H5 C12 1_555 1_555
C13 H6 1_555 1_555
C14 Sn2 1_555 1_555
C15 H7 1_555 1_555
C16 Sn2 1_555 1_555
C17 C21 1_555 1_555
C18 C12 1_555 1_555
C19 C15 1_555 1_555
C20 C15 1_555 1_555
H8 C20 1_555 1_555
C21 C13 1_555 1_555
H9 C21 1_555 1_555
C22 C7 1_555 1_555
H10 C22 1_555 1_555
C23 C2 1_555 1_555
H11 C23 1_555 1_555
C24 C9 1_555 1_555
H12 C24 1_555 1_555
C25 H13 1_555 1_555
C26 C2 1_555 1_555
H14 C26 1_555 1_555
C27 N2 1_555 1_555
C28 C11 1_555 1_555
H15 C28 1_555 1_555
C29 H16 1_555 1_555
C30 C24 1_555 1_555
H17 C30 1_555 1_555
C31 C5 1_555 1_555
H18 C31 1_555 1_555
C32 N1 1_555 1_555
C33 H19 1_555 1_555
C34 H20 1_555 1_555
C35 C5 1_555 1_555
H21 C35 1_555 1_555
C36 C17 1_555 1_555
H22 C36 1_555 1_555
C37 N1 1_555 1_555
C38 C11 1_555 1_555
H23 C38 1_555 1_555
C39 C31 1_555 1_555
H24 C39 1_555 1_555
C40 C14 1_555 1_555
H25 C40 1_555 1_555
C41 N2 1_555 1_555
C42 C8 1_555 1_555
H26 C42 1_555 1_555
C43 C28 1_555 1_555
H27 C43 1_555 1_555
C44 C18 1_555 1_555
H28 C44 1_555 1_555
C45 C27 1_555 1_555
H29 C45 1_555 1_555
C46 C38 1_555 1_555
H30 C46 1_555 1_555
C47 C9 1_555 1_555
H31 C47 1_555 1_555
C48 C32 1_555 1_555
H32 C48 1_555 1_555
C49 C6 1_555 1_555
H33 C49 1_555 1_555
C50 C25 1_555 1_555
H34 C50 1_555 1_555
C51 C43 1_555 1_555
H35 C51 1_555 1_555
C52 C30 1_555 1_555
H36 C52 1_555 1_555
C53 C34 1_555 1_555
H37 C53 1_555 1_555
C54 C19 1_555 1_555
H38 C54 1_555 1_555
C55 C50 1_555 1_555
H39 C55 1_555 1_555
C56 C37 1_555 1_555
H40 C56 1_555 1_555
C57 C6 1_555 1_555
H41 C57 1_555 1_555
C58 C27 1_555 1_555
H42 C58 1_555 1_555
C59 C56 1_555 1_555
H43 C59 1_555 1_555
C60 C40 1_555 1_555
H44 C60 1_555 1_555
C61 C47 1_555 1_555
H45 C61 1_555 1_555
C62 C7 1_555 1_555
H46 C62 1_555 1_555
C63 C48 1_555 1_555
H47 C63 1_555 1_555
C64 C16 1_555 1_555
H48 C64 1_555 1_555
C65 C58 1_555 1_555
H49 C65 1_555 1_555
C66 H50 1_555 1_555
C67 C14 1_555 1_555
H51 C67 1_555 1_555
C68 C29 1_555 1_555
H52 C68 1_555 1_555
C69 C32 1_555 1_555
H53 C69 1_555 1_555
C70 C65 1_555 1_555
H54 C70 1_555 1_555
C71 C45 1_555 1_555
H55 C71 1_555 1_555
C72 C33 1_555 1_555
H56 C72 1_555 1_555
C73 C37 1_555 1_555
H57 C73 1_555 1_555
C74 C69 1_555 1_555
H58 C74 1_555 1_555
C75 C64 1_555 1_555
H59 C75 1_555 1_555
C76 C42 1_555 1_555
H60 C76 1_555 1_555
C77 C59 1_555 1_555
H61 C77 1_555 1_555
C78 C63 1_555 1_555
H62 C78 1_555 1_555
Sn2_2 O4 1_555 1_555
O4_2 Sn2 1_555 1_555
C3 C26 1_555 1_555
C8 C16 1_555 1_555
C18 C20 1_555 1_555
C22 C57 1_555 1_555
C23 C36 1_555 1_555
C25 C41 1_555 1_555
C29 C35 1_555 1_555
C33 C67 1_555 1_555
C34 C41 1_555 1_555
C39 C68 1_555 1_555
C44 C54 1_555 1_555
C46 C51 1_555 1_555
C49 C62 1_555 1_555
C52 C61 1_555 1_555
C53 C55 1_555 1_555
C60 C72 1_555 1_555
C66 C73 1_555 1_555
C66 C77 1_555 1_555
C70 C71 1_555 1_555
C74 C78 1_555 1_555
C75 C76 1_555 1_555

#END
