
#######################################################################
#
#                 Cambridge Crystallographic Data Centre
#                                CCDC 
#
#######################################################################
#
# If this CIF has been generated from an entry in the Cambridge 
# Structural Database, then it will include bibliographic, chemical, 
# crystal, experimental, refinement or atomic coordinate data resulting 
# from the CCDC's data processing and validation procedures.
#
#######################################################################

data_EKUDUJ
_symmetry_cell_setting           monoclinic
_symmetry_space_group_name_H-M   'P 21/n'
_symmetry_Int_Tables_number      14
_space_group_name_Hall           '-P 2yn'
loop_
_symmetry_equiv_pos_site_id
_symmetry_equiv_pos_as_xyz
1 x,y,z
2 1/2+x,1/2-y,1/2+z
3 -x,-y,-z
4 1/2-x,1/2+y,1/2-z
_cell_length_a                   7.5630(10)
_cell_length_b                   9.582(2)
_cell_length_c                   16.085(3)
_cell_angle_alpha                90
_cell_angle_beta                 96.213(11)
_cell_angle_gamma                90
_cell_volume                     1158.81
loop_
_atom_site_label
_atom_site_type_symbol
_atom_site_fract_x
_atom_site_fract_y
_atom_site_fract_z
Cu1 Cu 0.0000 0.0000 0.0000
O1 O -0.04340(12) 0.15509(9) 0.07157(5)
O2 O 0.24907(12) -0.00268(9) 0.04049(5)
N1 N 0.03417(15) 0.15888(12) -0.12878(7)
C1 C -0.02197(19) 0.29974(15) 0.19009(9)
H1 H -0.1381 0.3297 0.1630
H2 H 0.0558 0.3812 0.2002
H3 H -0.0373 0.2545 0.2435
C2 C 0.06093(16) 0.19770(12) 0.13389(7)
C3 C 0.23988(16) 0.15733(12) 0.15343(7)
C4 C 0.32458(15) 0.06098(12) 0.10413(7)
C5 C 0.51912(17) 0.02649(14) 0.12524(8)
H4 H 0.5396 -0.0715 0.1116
H5 H 0.5531 0.0419 0.1851
H6 H 0.5908 0.0866 0.0927
C6 C 0.34407(16) 0.22052(13) 0.22838(7)
C7 C 0.45853(17) 0.33299(14) 0.22201(8)
H7 H 0.4748 0.3709 0.1688
C8 C 0.04890(18) 0.11063(14) -0.20578(8)
H8 H 0.1255 0.0334 -0.2115
C9 C -0.07217(19) 0.26771(14) -0.12303(8)
H9 H -0.0819 0.3052 -0.0690
C10 C 0.32953(18) 0.16952(14) 0.30877(7)
H10 H 0.2535 0.0929 0.3168
O1B O 0.04340(12) -0.15509(9) -0.07157(5)
O2B O -0.24907(12) 0.00268(9) -0.04049(5)
C7A C -0.04147(17) 0.16701(14) -0.27799(8)
C6A C -0.15593(16) 0.27948(13) -0.27162(7)
C3A C -0.26012(16) 0.34267(12) -0.34657(7)
C2A C -0.43907(16) 0.30230(12) -0.36611(7)
O1A O -0.54340(12) 0.34491(9) -0.42843(5)
Cu1A Cu -0.5000 0.5000 -0.5000
O2A O -0.25093(12) 0.50268(9) -0.45951(5)
C4A C -0.17542(15) 0.43902(12) -0.39587(7)
C5A C 0.01912(17) 0.47351(14) -0.37476(8)
H4A H 0.0396 0.5715 -0.3884
H5A H 0.0531 0.4581 -0.3149
H6A H 0.0908 0.4134 -0.4073
C1A C -0.52197(19) 0.20026(15) -0.30991(9)
H1A H -0.6381 0.1703 -0.3370
H2A H -0.4442 0.1188 -0.2998
H3A H -0.5373 0.2455 -0.2565
C10A C -0.17047(18) 0.33048(14) -0.19123(7)
H10A H -0.2465 0.4071 -0.1832
H7A H -0.0252 0.1291 -0.3312
N1B N -0.03417(15) -0.15888(12) 0.12878(7)
C8A C 0.54890(18) 0.38937(14) 0.29422(8)
C9A C 0.42783(19) 0.23229(14) 0.37697(8)
N1A N 0.53417(15) 0.34112(12) 0.37122(7)
H8A H 0.6255 0.4666 0.2885
H9A H 0.4181 0.1948 0.4310
Cu1A_2 Cu 0.5000 0.5000 0.5000
C11 C 0.6007(2) 0.61903(17) 0.02193(9)
H11 H 0.6697 0.6998 0.0369
C12 C 0.4177(2) 0.62937(17) 0.00358(10)
H12 H 0.3607 0.7174 0.0058
C13 C 0.6822(2) 0.48980(17) 0.01820(11)
H13 H 0.8075 0.4825 0.0306
C13B C 0.3178(2) 0.51020(17) -0.01820(11)
C11B C 0.3993(2) 0.38097(17) -0.02193(9)
H11B H 0.3303 0.3002 -0.0369
C12B C 0.5823(2) 0.37063(17) -0.00358(10)
H12B H 0.6393 0.2826 -0.0058
H13B H 0.1925 0.5175 -0.0306
loop_
_geom_bond_atom_site_label_1
_geom_bond_atom_site_label_2
_geom_bond_site_symmetry_1
_geom_bond_site_symmetry_2
Cu1 O1 1_555 1_555
O1 C2 1_555 1_555
O2 Cu1 1_555 1_555
N1 Cu1 1_555 1_555
C1 H1 1_555 1_555
H2 C1 1_555 1_555
H3 C1 1_555 1_555
C2 C1 1_555 1_555
C3 C2 1_555 1_555
C4 O2 1_555 1_555
C5 C4 1_555 1_555
H4 C5 1_555 1_555
H5 C5 1_555 1_555
H6 C5 1_555 1_555
C6 C3 1_555 1_555
C7 C6 1_555 1_555
H7 C7 1_555 1_555
C8 N1 1_555 1_555
H8 C8 1_555 1_555
C9 N1 1_555 1_555
H9 C9 1_555 1_555
C10 C6 1_555 1_555
H10 C10 1_555 1_555
C11 H11 1_555 1_555
C12 C11 1_555 1_555
H12 C12 1_555 1_555
C13 C11 1_555 1_555
H13 C13 1_555 1_555
O1B Cu1 1_555 1_555
O2B Cu1 1_555 1_555
C7A C8 1_555 1_555
C6A C7A 1_555 1_555
C3A C6A 1_555 1_555
C2A C3A 1_555 1_555
O1A C2A 1_555 1_555
Cu1A O1A 1_555 1_555
O2A Cu1A 1_555 1_555
C4A C3A 1_555 1_555
C5A C4A 1_555 1_555
H4A C5A 1_555 1_555
H5A C5A 1_555 1_555
H6A C5A 1_555 1_555
C1A C2A 1_555 1_555
H1A C1A 1_555 1_555
H2A C1A 1_555 1_555
H3A C1A 1_555 1_555
C10A C9 1_555 1_555
H10A C10A 1_555 1_555
H7A C7A 1_555 1_555
N1B Cu1 1_555 1_555
C8A C7 1_555 1_555
C9A C10 1_555 1_555
C13B C12 1_555 1_555
C11B C13B 1_555 1_555
H11B C11B 1_555 1_555
C12B C13 1_555 1_555
H12B C12B 1_555 1_555
H13B C13B 1_555 1_555
N1A C8A 1_555 1_555
H8A C8A 1_555 1_555
H9A C9A 1_555 1_555
Cu1A_2 N1A 1_555 1_555
C3 C4 1_555 1_555
C6A C10A 1_555 1_555
O2A C4A 1_555 1_555
C9A N1A 1_555 1_555
C11B C12B 1_555 1_555

#END
