
#######################################################################
#
#                 Cambridge Crystallographic Data Centre
#                                CCDC 
#
#######################################################################
#
# If this CIF has been generated from an entry in the Cambridge 
# Structural Database, then it will include bibliographic, chemical, 
# crystal, experimental, refinement or atomic coordinate data resulting 
# from the CCDC's data processing and validation procedures.
#
#######################################################################

data_EKUDOD
_symmetry_cell_setting           monoclinic
_symmetry_space_group_name_H-M   'P 21/n'
_symmetry_Int_Tables_number      14
_space_group_name_Hall           '-P 2yn'
loop_
_symmetry_equiv_pos_site_id
_symmetry_equiv_pos_as_xyz
1 x,y,z
2 1/2-x,1/2+y,1/2-z
3 -x,-y,-z
4 1/2+x,1/2-y,1/2+z
_cell_length_a                   7.6540(10)
_cell_length_b                   10.553(2)
_cell_length_c                   16.470(3)
_cell_angle_alpha                90
_cell_angle_beta                 102.058(10)
_cell_angle_gamma                90
_cell_volume                     1300.97
loop_
_atom_site_label
_atom_site_type_symbol
_atom_site_fract_x
_atom_site_fract_y
_atom_site_fract_z
Cu1 Cu 0.0000 0.0000 0.0000
O1 O 0.25306(13) 0.02233(9) 0.04765(6)
O2 O -0.06299(13) 0.13507(9) 0.06875(6)
N1 N -0.01680(15) 0.15213(11) -0.11547(7)
C1 C 0.51836(19) 0.06020(16) 0.14504(9)
H1 H 0.5381 -0.0183 0.1774
H2 H 0.5693 0.1317 0.1801
H3 H 0.5762 0.0538 0.0974
C2 C 0.31987(17) 0.08090(13) 0.11446(8)
C3 C 0.22317(17) 0.15899(13) 0.15934(8)
C4 C 0.03830(18) 0.18396(12) 0.13194(8)
C5 C -0.0540(2) 0.27686(15) 0.17924(9)
H4 H -0.1656 0.3058 0.1434
H5 H 0.0243 0.3497 0.1964
H6 H -0.0805 0.2351 0.2284
C6 C 0.31780(17) 0.22204(13) 0.23750(8)
C7 C 0.28674(18) 0.18551(13) 0.31479(8)
H7 H 0.2098 0.1163 0.3191
C8 C -0.13027(18) 0.24835(14) -0.11466(8)
H8 H -0.1556 0.2729 -0.0628
C9 C 0.01566(18) 0.11923(13) -0.18946(8)
H9 H 0.0974 0.0521 -0.1914
C10 C 0.43652(18) 0.32217(13) 0.23653(8)
H10 H 0.4630 0.3500 0.1856
O1B O -0.25306(13) -0.02233(9) -0.04765(6)
O2B O 0.06299(13) -0.13507(9) -0.06875(6)
C7C C -0.21326(18) 0.31449(13) -0.18521(8)
C6C C -0.18220(17) 0.27796(13) -0.26250(8)
C3C C -0.27683(17) 0.34101(13) -0.34066(8)
C2C C -0.18013(17) 0.41910(13) -0.38554(8)
O1C O -0.24694(13) 0.47767(9) -0.45235(6)
Cu1C Cu -0.5000 0.5000 -0.5000
O2C O -0.56299(13) 0.36493(9) -0.43125(6)
C4C C -0.46170(18) 0.31604(12) -0.36806(8)
C5C C -0.5540(2) 0.22314(15) -0.32076(9)
H4C H -0.6656 0.1942 -0.3566
H5C H -0.4757 0.1503 -0.3036
H6C H -0.5805 0.2649 -0.2716
C1C C 0.01836(19) 0.43980(16) -0.35496(9)
H1C H 0.0381 0.5183 -0.3226
H2C H 0.0693 0.3683 -0.3199
H3C H 0.0762 0.4462 -0.4026
C10C C -0.06348(18) 0.17783(13) -0.26347(8)
H10C H -0.0370 0.1500 -0.3144
H7C H -0.2902 0.3837 -0.1809
N1B N 0.01680(15) -0.15213(11) 0.11547(7)
C8C C 0.36973(18) 0.25165(14) 0.38534(8)
C9C C 0.51566(18) 0.38077(13) 0.31054(8)
N1C N 0.48320(15) 0.34787(11) 0.38453(7)
H8C H 0.3444 0.2271 0.4372
H9C H 0.5974 0.4479 0.3086
Cu1C_2 Cu 0.5000 0.5000 0.5000
S1 S 0.69758(5) 0.62202(4) 0.10316(2)
O3 O 0.57736(18) 0.51907(12) 0.12278(9)
C11 C 0.7867(2) 0.56611(18) 0.01760(12)
H11 H 0.8725 0.4979 0.0364
H12 H 0.8470 0.6359 -0.0046
H13 H 0.6894 0.5339 -0.0259
C12 C 0.5562(2) 0.74020(17) 0.04673(13)
H14 H 0.4809 0.7020 -0.0026
H15 H 0.6296 0.8073 0.0297
H16 H 0.4805 0.7763 0.0820
loop_
_geom_bond_atom_site_label_1
_geom_bond_atom_site_label_2
_geom_bond_site_symmetry_1
_geom_bond_site_symmetry_2
Cu1 O1 1_555 1_555
O1 C2 1_555 1_555
O2 Cu1 1_555 1_555
N1 Cu1 1_555 1_555
C1 H1 1_555 1_555
H2 C1 1_555 1_555
H3 C1 1_555 1_555
C2 C1 1_555 1_555
C3 C2 1_555 1_555
C4 O2 1_555 1_555
C5 C4 1_555 1_555
H4 C5 1_555 1_555
H5 C5 1_555 1_555
H6 C5 1_555 1_555
C6 C3 1_555 1_555
C7 C6 1_555 1_555
H7 C7 1_555 1_555
C8 N1 1_555 1_555
H8 C8 1_555 1_555
C9 N1 1_555 1_555
H9 C9 1_555 1_555
C10 C6 1_555 1_555
H10 C10 1_555 1_555
S1 O3 1_555 1_555
C11 S1 1_555 1_555
H11 C11 1_555 1_555
H12 C11 1_555 1_555
H13 C11 1_555 1_555
C12 S1 1_555 1_555
H14 C12 1_555 1_555
H15 C12 1_555 1_555
H16 C12 1_555 1_555
O1B Cu1 1_555 1_555
O2B Cu1 1_555 1_555
C7C C8 1_555 1_555
C6C C7C 1_555 1_555
C3C C6C 1_555 1_555
C2C C3C 1_555 1_555
O1C C2C 1_555 1_555
Cu1C O1C 1_555 1_555
O2C Cu1C 1_555 1_555
C4C C3C 1_555 1_555
C5C C4C 1_555 1_555
H4C C5C 1_555 1_555
H5C C5C 1_555 1_555
H6C C5C 1_555 1_555
C1C C2C 1_555 1_555
H1C C1C 1_555 1_555
H2C C1C 1_555 1_555
H3C C1C 1_555 1_555
C10C C9 1_555 1_555
H10C C10C 1_555 1_555
H7C C7C 1_555 1_555
N1B Cu1 1_555 1_555
C8C C7 1_555 1_555
C9C C10 1_555 1_555
N1C C8C 1_555 1_555
H8C C8C 1_555 1_555
H9C C9C 1_555 1_555
Cu1C_2 N1C 1_555 1_555
C3 C4 1_555 1_555
C6C C10C 1_555 1_555
O2C C4C 1_555 1_555
C9C N1C 1_555 1_555

#END
