
#######################################################################
#
#                 Cambridge Crystallographic Data Centre
#                                CCDC 
#
#######################################################################
#
# If this CIF has been generated from an entry in the Cambridge 
# Structural Database, then it will include bibliographic, chemical, 
# crystal, experimental, refinement or atomic coordinate data resulting 
# from the CCDC's data processing and validation procedures.
#
#######################################################################

data_EKUDAP
_symmetry_cell_setting           rhombohedral
_symmetry_space_group_name_H-M   'R -3 c'
_symmetry_Int_Tables_number      167
_space_group_name_Hall           '-R 3 2"c'
loop_
_symmetry_equiv_pos_site_id
_symmetry_equiv_pos_as_xyz
1 x,y,z
2 -y,x-y,z
3 -x+y,-x,z
4 y,x,1/2-z
5 2/3+x,1/3+y,1/3+z
6 2/3-y,1/3+x-y,1/3+z
7 2/3-x+y,1/3-x,1/3+z
8 2/3+y,1/3+x,5/6-z
9 1/3+x,2/3+y,2/3+z
10 1/3+y,2/3+x,1/6-z
11 -x+y,y,1/2+z
12 x,x-y,1/2+z
13 2/3+y,1/3-x+y,1/3-z
14 2/3+x-y,1/3+x,1/3-z
15 2/3-x+y,1/3+y,5/6+z
16 2/3+x,1/3+x-y,5/6+z
17 1/3-x+y,2/3+y,1/6+z
18 1/3+x,2/3+x-y,1/6+z
19 -x,-y,-z
20 y,-x+y,-z
21 x-y,x,-z
22 -y,-x,1/2+z
23 1/3-x,2/3-y,2/3-z
24 1/3+y,2/3-x+y,2/3-z
25 1/3+x-y,2/3+x,2/3-z
26 1/3-y,2/3-x,1/6+z
27 2/3-x,1/3-y,1/3-z
28 2/3-y,1/3-x,5/6+z
29 x-y,-y,1/2-z
30 -x,-x+y,1/2-z
31 1/3-y,2/3+x-y,2/3+z
32 1/3-x+y,2/3-x,2/3+z
33 1/3+x-y,2/3-y,1/6-z
34 1/3-x,2/3-x+y,1/6-z
35 2/3+x-y,1/3-y,5/6-z
36 2/3-x,1/3-x+y,5/6-z
_cell_length_a                   22.604(2)
_cell_length_b                   22.604(2)
_cell_length_c                   22.964(3)
_cell_angle_alpha                90
_cell_angle_beta                 90
_cell_angle_gamma                120.0
_cell_volume                     10161.3
loop_
_atom_site_label
_atom_site_type_symbol
_atom_site_fract_x
_atom_site_fract_y
_atom_site_fract_z
Cu1 Cu 0.0000 0.5000 0.0000
O1 O 0.07941(5) 0.48902(5) 0.00893(4)
O2 O -0.04539(5) 0.43910(5) 0.06441(4)
N1 N 0.13073(6) 0.38571(6) 0.25417(5)
C1 C 0.16661(7) 0.47882(9) 0.05496(7)
H1 H 0.1818 0.4817 0.0146
H2 H 0.1651 0.4393 0.0740
H3 H 0.1986 0.5206 0.0758
C2 C 0.09630(7) 0.47098(6) 0.05573(6)
C3 C 0.05387(6) 0.44328(6) 0.10517(6)
C4 C -0.01485(7) 0.42842(6) 0.10625(5)
C5 C -0.05875(8) 0.39673(8) 0.15937(6)
H4 H -0.0952 0.4082 0.1603
H5 H -0.0306 0.4145 0.1945
H6 H -0.0789 0.3470 0.1578
C6 C 0.08114(7) 0.42426(7) 0.15685(6)
C7 C 0.05480(7) 0.35604(7) 0.17235(6)
H7 H 0.0192 0.3210 0.1499
C8 C 0.08047(7) 0.33917(7) 0.22054(6)
H8 H 0.0615 0.2923 0.2302
C9 C 0.15654(7) 0.45141(7) 0.23910(6)
H9 H 0.1925 0.4852 0.2621
C10 C 0.13362(7) 0.47285(7) 0.19170(6)
H10 H 0.1535 0.5201 0.1831
O1R O -0.07941(5) 0.51098(5) -0.00893(4)
O2R O 0.04539(5) 0.56090(5) -0.06441(4)
O1L O 0.15569(5) 0.74294(7) 0.32440(4)
O2L O 0.10577(5) 0.81782(7) 0.26892(4)
N1L N 0.05238(6) 0.58831(8) 0.07916(5)
C1L C 0.14549(9) 0.64554(11) 0.27837(7)
H1L H 0.1484 0.6332 0.3187
H2L H 0.1060 0.6075 0.2593
H3L H 0.1873 0.6553 0.2575
C2L C 0.13765(6) 0.70801(9) 0.27760(6)
C3L C 0.10995(6) 0.72274(8) 0.22816(6)
C4L C 0.09509(6) 0.77660(9) 0.22708(5)
C5L C 0.06340(8) 0.78881(11) 0.17396(6)
H4L H 0.0749 0.8367 0.1730
H5L H 0.0812 0.7784 0.1388
H6L H 0.0137 0.7592 0.1755
C6L C 0.09093(7) 0.67645(10) 0.17648(6)
C7L C 0.02271(7) 0.63457(10) 0.16098(6)
H7L H -0.0123 0.6351 0.1834
C8L C 0.00584(7) 0.59203(10) 0.11279(6)
H8L H -0.0410 0.5641 0.1031
C9L C 0.11808(7) 0.62820(10) 0.09423(6)
H9L H 0.1519 0.6260 0.0712
C10L C 0.13952(7) 0.67256(10) 0.14163(6)
H10L H 0.1868 0.6999 0.1502
N1DA N -0.05238(6) 0.41169(8) -0.07916(5)
Cu1L Cu 0.1667 0.8333 0.3333
Cu1F Cu 0.1667 0.3333 0.3333
O3 O 0.1919(3) 0.5747(3) -0.0746(3)
C11 C 0.2067(4) 0.6117(4) -0.0256(4)
C12 C 0.2516(4) 0.6737(4) 0.0016(4)
O6 O 0.0000 0.0000 0.0000
O4? O 0.1919(2) 0.6128(2) -0.0650(3)
O5? O 0.2933(4) 0.6785(4) 0.0178(3)
loop_
_geom_bond_atom_site_label_1
_geom_bond_atom_site_label_2
_geom_bond_site_symmetry_1
_geom_bond_site_symmetry_2
Cu1 O1 1_555 1_555
O1 C2 1_555 1_555
O2 Cu1 1_555 1_555
N1 C8 1_555 1_555
C1 H1 1_555 1_555
H2 C1 1_555 1_555
H3 C1 1_555 1_555
C2 C1 1_555 1_555
C3 C2 1_555 1_555
C4 O2 1_555 1_555
C5 C4 1_555 1_555
H4 C5 1_555 1_555
H5 C5 1_555 1_555
H6 C5 1_555 1_555
C6 C3 1_555 1_555
C7 C6 1_555 1_555
H7 C7 1_555 1_555
C8 C7 1_555 1_555
H8 C8 1_555 1_555
C9 N1 1_555 1_555
H9 C9 1_555 1_555
C10 C6 1_555 1_555
H10 C10 1_555 1_555
O3 C11 1_555 1_555
C11 C12 1_555 1_555
O1R Cu1 1_555 1_555
O2R Cu1 1_555 1_555
O1L C2L 1_555 1_555
O2L C4L 1_555 1_555
N1L Cu1 1_555 1_555
C1L H1L 1_555 1_555
H2L C1L 1_555 1_555
H3L C1L 1_555 1_555
C2L C1L 1_555 1_555
C3L C2L 1_555 1_555
C4L C3L 1_555 1_555
C5L C4L 1_555 1_555
H4L C5L 1_555 1_555
H5L C5L 1_555 1_555
H6L C5L 1_555 1_555
C6L C3L 1_555 1_555
C7L C6L 1_555 1_555
H7L C7L 1_555 1_555
C8L N1L 1_555 1_555
H8L C8L 1_555 1_555
C9L N1L 1_555 1_555
H9L C9L 1_555 1_555
C10L C6L 1_555 1_555
H10L C10L 1_555 1_555
N1DA Cu1 1_555 1_555
Cu1L O1L 1_555 1_555
Cu1F N1 1_555 1_555
C3 C4 1_555 1_555
C9 C10 1_555 1_555
O2L Cu1L 1_555 1_555
C7L C8L 1_555 1_555
C9L C10L 1_555 1_555

#END
