
#######################################################################
#
#                 Cambridge Crystallographic Data Centre
#                                CCDC 
#
#######################################################################
#
# If this CIF has been generated from an entry in the Cambridge 
# Structural Database, then it will include bibliographic, chemical, 
# crystal, experimental, refinement or atomic coordinate data resulting 
# from the CCDC's data processing and validation procedures.
#
#######################################################################

data_EKUDET
_symmetry_cell_setting           monoclinic
_symmetry_space_group_name_H-M   'P 21/c'
_symmetry_Int_Tables_number      14
_space_group_name_Hall           '-P 2ybc'
loop_
_symmetry_equiv_pos_site_id
_symmetry_equiv_pos_as_xyz
1 x,y,z
2 x,1/2-y,1/2+z
3 -x,-y,-z
4 -x,1/2+y,1/2-z
_cell_length_a                   8.9227(10)
_cell_length_b                   14.891(2)
_cell_length_c                   13.602(2)
_cell_angle_alpha                90
_cell_angle_beta                 100.563(7)
_cell_angle_gamma                90
_cell_volume                     1776.64
loop_
_atom_site_label
_atom_site_type_symbol
_atom_site_fract_x
_atom_site_fract_y
_atom_site_fract_z
Cu1 Cu 0.5000 0.5000 0.5000
O1 O 0.66529(9) 0.56270(6) 0.58761(6)
O2 O 0.34832(9) 0.56922(5) 0.55240(6)
N1 N 0.51601(11) 0.61658(7) 0.37247(8)
C1 C 0.80366(13) 0.66623(9) 0.69931(10)
H1 H 0.8847 0.6216 0.7003
H2 H 0.7958 0.6822 0.7681
H3 H 0.8277 0.7201 0.6638
C2 C 0.65359(12) 0.62738(8) 0.64650(8)
C3 C 0.51471(12) 0.66398(7) 0.66478(8)
C4 C 0.37032(12) 0.63115(7) 0.61788(8)
C5 C 0.22677(13) 0.67055(8) 0.64367(9)
H4 H 0.1402 0.6564 0.5904
H5 H 0.2377 0.7359 0.6504
H6 H 0.2091 0.6450 0.7069
C6 C 0.51899(12) 0.73988(7) 0.73708(8)
C7 C 0.47844(13) 0.72710(8) 0.83018(8)
H7 H 0.4504 0.6691 0.8496
C8 C 0.47927(13) 0.70048(8) 0.39440(9)
H8 H 0.4521 0.7110 0.4578
C9 C 0.55627(14) 0.60418(8) 0.28320(9)
H9 H 0.5838 0.5454 0.2660
C10 C 0.55992(14) 0.82713(8) 0.71442(9)
H10 H 0.5901 0.8394 0.6523
O1B O 0.33471(9) 0.43730(6) 0.41239(6)
O2B O 0.65168(9) 0.43078(5) 0.44760(6)
C7A C 0.47844(13) 0.77290(8) 0.33018(8)
C6A C 0.51899(12) 0.76012(7) 0.23708(8)
C3A C 0.51471(12) 0.83602(7) 0.16478(8)
C2A C 0.65359(12) 0.87262(8) 0.14650(8)
O1A O 0.66529(9) 0.93730(6) 0.08761(6)
Cu1A Cu 0.5000 1.0000 0.0000
O2A O 0.34832(9) 0.93078(5) 0.05240(6)
C4A C 0.37032(12) 0.86885(7) 0.11788(8)
C5A C 0.22677(13) 0.82945(8) 0.14367(9)
H4A H 0.1402 0.8436 0.0904
H5A H 0.2377 0.7641 0.1504
H6A H 0.2091 0.8550 0.2069
C1A C 0.80366(13) 0.83377(9) 0.19931(10)
H1A H 0.8847 0.8784 0.2003
H2A H 0.7958 0.8178 0.2681
H3A H 0.8277 0.7799 0.1638
C10A C 0.55992(14) 0.67287(8) 0.21442(9)
H10A H 0.5901 0.6606 0.1523
H7A H 0.4504 0.8309 0.3496
N1B N 0.48399(11) 0.38342(7) 0.62753(8)
C8A C 0.47927(13) 0.79952(8) 0.89440(9)
C9A C 0.55627(14) 0.89582(8) 0.78320(9)
N1A N 0.51601(11) 0.88342(7) 0.87247(8)
H8A H 0.4521 0.7890 0.9578
H9A H 0.5838 0.9546 0.7660
Cu1A_2 Cu 0.5000 1.0000 1.0000
O3 O 0.91239(13) 0.73024(7) 0.96153(9)
N2 N 0.96895(12) 0.86025(8) 0.88787(9)
C11 C 0.89325(14) 0.81110(9) 0.94439(10)
H11 H 0.8183 0.8408 0.9739
C12 C 1.08560(19) 0.82145(11) 0.83944(15)
H12 H 1.1027 0.7588 0.8604
H13 H 1.1806 0.8554 0.8584
H14 H 1.0523 0.8240 0.7667
C13 C 0.94078(17) 0.95575(10) 0.87213(12)
H15 H 0.8655 0.9757 0.9117
H16 H 0.9017 0.9670 0.8011
H17 H 1.0361 0.9889 0.8930
O4 O 0.74592(19) 0.04338(13) 0.63227(11)
N3 N 0.77866(14) 0.02891(9) 0.47095(9)
C14 C 0.8055(2) 0.06848(12) 0.56115(14)
H18 H 0.8735 0.1181 0.5710
C15 C 0.6764(2) -0.04612(12) 0.44951(15)
H19 H 0.7345 -0.1003 0.4404
H20 H 0.6018 -0.0343 0.3885
H21 H 0.6231 -0.0549 0.5057
C16 C 0.8532(2) 0.06117(14) 0.39110(15)
H22 H 0.9151 0.1140 0.4145
H23 H 0.7761 0.0775 0.3329
H24 H 0.9190 0.0139 0.3723
C17? C 0.7528(2) -0.03120(14) 0.55735(15)
C18? C 0.7802(2) 0.11269(14) 0.47555(15)
C19? C 0.7982(2) -0.02720(14) 0.37895(15)
loop_
_geom_bond_atom_site_label_1
_geom_bond_atom_site_label_2
_geom_bond_site_symmetry_1
_geom_bond_site_symmetry_2
Cu1 O1 1_555 1_555
O1 C2 1_555 1_555
O2 Cu1 1_555 1_555
N1 Cu1 1_555 1_555
C1 H1 1_555 1_555
H2 C1 1_555 1_555
H3 C1 1_555 1_555
C2 C1 1_555 1_555
C3 C2 1_555 1_555
C4 O2 1_555 1_555
C5 C4 1_555 1_555
H4 C5 1_555 1_555
H5 C5 1_555 1_555
H6 C5 1_555 1_555
C6 C3 1_555 1_555
C7 C6 1_555 1_555
H7 C7 1_555 1_555
C8 N1 1_555 1_555
H8 C8 1_555 1_555
C9 N1 1_555 1_555
H9 C9 1_555 1_555
C10 C6 1_555 1_555
H10 C10 1_555 1_555
O3 C11 1_555 1_555
N2 C11 1_555 1_555
C11 H11 1_555 1_555
C12 N2 1_555 1_555
H12 C12 1_555 1_555
H13 C12 1_555 1_555
H14 C12 1_555 1_555
C13 N2 1_555 1_555
H15 C13 1_555 1_555
H16 C13 1_555 1_555
H17 C13 1_555 1_555
O4 C14 1_555 1_555
N3 C14 1_555 1_555
C14 H18 1_555 1_555
C15 N3 1_555 1_555
H19 C15 1_555 1_555
H20 C15 1_555 1_555
H21 C15 1_555 1_555
C16 N3 1_555 1_555
H22 C16 1_555 1_555
H23 C16 1_555 1_555
H24 C16 1_555 1_555
O1B Cu1 1_555 1_555
O2B Cu1 1_555 1_555
C7A C8 1_555 1_555
C6A C7A 1_555 1_555
C3A C6A 1_555 1_555
C2A C3A 1_555 1_555
O1A C2A 1_555 1_555
Cu1A O1A 1_555 1_555
O2A Cu1A 1_555 1_555
C4A C3A 1_555 1_555
C5A C4A 1_555 1_555
H4A C5A 1_555 1_555
H5A C5A 1_555 1_555
H6A C5A 1_555 1_555
C1A C2A 1_555 1_555
H1A C1A 1_555 1_555
H2A C1A 1_555 1_555
H3A C1A 1_555 1_555
C10A C9 1_555 1_555
H10A C10A 1_555 1_555
H7A C7A 1_555 1_555
N1B Cu1 1_555 1_555
C8A C7 1_555 1_555
C9A C10 1_555 1_555
N1A C8A 1_555 1_555
H8A C8A 1_555 1_555
H9A C9A 1_555 1_555
Cu1A_2 N1A 1_555 1_555
C3 C4 1_555 1_555
C6A C10A 1_555 1_555
O2A C4A 1_555 1_555
C9A N1A 1_555 1_555

#END
