
#######################################################################
#
#                 Cambridge Crystallographic Data Centre
#                                CCDC 
#
#######################################################################
#
# If this CIF has been generated from an entry in the Cambridge 
# Structural Database, then it will include bibliographic, chemical, 
# crystal, experimental, refinement or atomic coordinate data resulting 
# from the CCDC's data processing and validation procedures.
#
#######################################################################

data_EKUFAR
_symmetry_cell_setting           monoclinic
_symmetry_space_group_name_H-M   'P 21/n'
_symmetry_Int_Tables_number      14
_space_group_name_Hall           '-P 2yn'
loop_
_symmetry_equiv_pos_site_id
_symmetry_equiv_pos_as_xyz
1 x,y,z
2 1/2+x,1/2-y,1/2+z
3 -x,-y,-z
4 1/2-x,1/2+y,1/2-z
_cell_length_a                   7.4240(10)
_cell_length_b                   14.483(3)
_cell_length_c                   11.163(2)
_cell_angle_alpha                90
_cell_angle_beta                 95.711(10)
_cell_angle_gamma                90
_cell_volume                     1194.31
loop_
_atom_site_label
_atom_site_type_symbol
_atom_site_fract_x
_atom_site_fract_y
_atom_site_fract_z
Cu1 Cu 0.5000 0.5000 0.5000
O1 O 0.25616(11) 0.54988(5) 0.49624(7)
O2 O 0.57925(11) 0.57516(5) 0.63918(7)
N1 N 0.56949(14) 0.62784(7) 0.36197(9)
C1 C 0.00286(15) 0.63804(8) 0.53411(11)
H1 H -0.0437 0.6107 0.4569
H2 H -0.0092 0.7054 0.5295
H3 H -0.0664 0.6144 0.5978
C2 C 0.19905(15) 0.61286(7) 0.56190(9)
C3 C 0.30542(15) 0.65769(7) 0.65782(9)
C4 C 0.48758(15) 0.63475(7) 0.69159(9)
C5 C 0.59085(19) 0.68117(9) 0.79836(12)
H4 H 0.5714 0.6473 0.8720
H5 H 0.5479 0.7448 0.8048
H6 H 0.7203 0.6816 0.7876
C6 C 0.21877(15) 0.73118(7) 0.72697(10)
C7 C 0.15464(17) 0.71312(8) 0.83785(10)
H7 H 0.1605 0.6524 0.8701
C8 C 0.58209(17) 0.71533(8) 0.40089(11)
H8 H 0.5389 0.7293 0.4761
C9 C 0.62675(19) 0.61110(8) 0.25397(11)
H9 H 0.6163 0.5500 0.2232
C10 C 0.20071(18) 0.82172(8) 0.68448(11)
H10 H 0.2388 0.8374 0.6083
O1B O 0.74384(11) 0.45012(5) 0.50376(7)
O2B O 0.42075(11) 0.42484(5) 0.36082(7)
C7A C 0.65464(17) 0.78688(8) 0.33785(10)
C6A C 0.71877(15) 0.76882(7) 0.22697(10)
C3A C 0.80542(15) 0.84231(7) 0.15782(9)
C2A C 0.69905(15) 0.88714(7) 0.06190(9)
O1A O 0.75616(11) 0.95012(5) -0.00376(7)
Cu1A Cu 1.0000 1.0000 0.0000
O2A O 1.07925(11) 0.92484(5) 0.13918(7)
C4A C 0.98758(15) 0.86525(7) 0.19159(9)
C5A C 1.09085(19) 0.81883(9) 0.29836(12)
H4A H 1.0714 0.8527 0.3720
H5A H 1.0479 0.7552 0.3048
H6A H 1.2203 0.8184 0.2876
C1A C 0.50286(15) 0.86196(8) 0.03411(11)
H1A H 0.4563 0.8893 -0.0431
H2A H 0.4908 0.7946 0.0295
H3A H 0.4336 0.8856 0.0978
C10A C 0.70071(18) 0.67828(8) 0.18448(11)
H10A H 0.7388 0.6626 0.1083
H7A H 0.6605 0.8476 0.3701
N1B N 0.43051(14) 0.37216(7) 0.63803(9)
C8A C 0.08209(17) 0.78467(8) 0.90089(11)
C9A C 0.12675(19) 0.88890(8) 0.75397(11)
N1A N 0.06949(14) 0.87216(7) 0.86197(9)
H8A H 0.0389 0.7707 0.9761
H9A H 0.1163 0.9500 0.7232
Cu1A_2 Cu 0.0000 1.0000 1.0000
N2 N 0.7505(4) 0.99281(12) 0.49866(18)
C11 C 0.6977(3) 0.97257(13) 0.58766(16)
C12 C 0.6309(3) 0.94704(18) 0.70036(17)
H11 H 0.6356 0.8798 0.7095
H12 H 0.5056 0.9682 0.7009
H13 H 0.7064 0.9759 0.7671
loop_
_geom_bond_atom_site_label_1
_geom_bond_atom_site_label_2
_geom_bond_site_symmetry_1
_geom_bond_site_symmetry_2
Cu1 O1 1_555 1_555
O1 C2 1_555 1_555
O2 Cu1 1_555 1_555
N1 Cu1 1_555 1_555
C1 H1 1_555 1_555
H2 C1 1_555 1_555
H3 C1 1_555 1_555
C2 C1 1_555 1_555
C3 C2 1_555 1_555
C4 O2 1_555 1_555
C5 C4 1_555 1_555
H4 C5 1_555 1_555
H5 C5 1_555 1_555
H6 C5 1_555 1_555
C6 C3 1_555 1_555
C7 C6 1_555 1_555
H7 C7 1_555 1_555
C8 N1 1_555 1_555
H8 C8 1_555 1_555
C9 N1 1_555 1_555
H9 C9 1_555 1_555
C10 C6 1_555 1_555
H10 C10 1_555 1_555
N2 C11 1_555 1_555
C11 C12 1_555 1_555
C12 H11 1_555 1_555
H12 C12 1_555 1_555
H13 C12 1_555 1_555
O1B Cu1 1_555 1_555
O2B Cu1 1_555 1_555
C7A C8 1_555 1_555
C6A C7A 1_555 1_555
C3A C6A 1_555 1_555
C2A C3A 1_555 1_555
O1A C2A 1_555 1_555
Cu1A O1A 1_555 1_555
O2A Cu1A 1_555 1_555
C4A C3A 1_555 1_555
C5A C4A 1_555 1_555
H4A C5A 1_555 1_555
H5A C5A 1_555 1_555
H6A C5A 1_555 1_555
C1A C2A 1_555 1_555
H1A C1A 1_555 1_555
H2A C1A 1_555 1_555
H3A C1A 1_555 1_555
C10A C9 1_555 1_555
H10A C10A 1_555 1_555
H7A C7A 1_555 1_555
N1B Cu1 1_555 1_555
C8A C7 1_555 1_555
C9A C10 1_555 1_555
N1A C8A 1_555 1_555
H8A C8A 1_555 1_555
H9A C9A 1_555 1_555
Cu1A_2 N1A 1_555 1_555
C3 C4 1_555 1_555
C6A C10A 1_555 1_555
O2A C4A 1_555 1_555
C9A N1A 1_555 1_555

#END
