
#######################################################################
#
#                 Cambridge Crystallographic Data Centre
#                                CCDC 
#
#######################################################################
#
# If this CIF has been generated from an entry in the Cambridge 
# Structural Database, then it will include bibliographic, chemical, 
# crystal, experimental, refinement or atomic coordinate data resulting 
# from the CCDC's data processing and validation procedures.
#
#######################################################################

data_EKUGUM
_symmetry_cell_setting           orthorhombic
_symmetry_space_group_name_H-M   'P 21 21 21'
_symmetry_Int_Tables_number      19
_space_group_name_Hall           'P 2ac 2ab'
loop_
_symmetry_equiv_pos_site_id
_symmetry_equiv_pos_as_xyz
1 x,y,z
2 1/2-x,-y,1/2+z
3 -x,1/2+y,1/2-z
4 1/2+x,1/2-y,-z
_cell_length_a                   13.1088(3)
_cell_length_b                   15.3529(3)
_cell_length_c                   18.9135(2)
_cell_angle_alpha                90
_cell_angle_beta                 90
_cell_angle_gamma                90
_cell_volume                     3806.49
loop_
_atom_site_label
_atom_site_type_symbol
_atom_site_fract_x
_atom_site_fract_y
_atom_site_fract_z
Zn1 Zn 0.37147(6) 0.54235(7) 0.76811(5)
N1 N 0.4835(5) 0.4801(5) 0.8210(4)
N2 N 0.6056(5) 0.4575(6) 0.8979(4)
N3 N 0.2497(5) 0.4687(5) 0.7457(4)
N4 N 0.1207(5) 0.4153(5) 0.6846(5)
N5 N 1.0629(5) 0.4041(5) 1.1834(4)
N6 N 1.0254(5) 0.3559(6) 1.0752(4)
N7 N -0.3288(5) 0.1374(6) 0.6647(4)
N8 N -0.3238(6) 0.2712(8) 0.6164(7)
C1 C 0.5308(9) 0.4042(7) 0.8056(6)
H1 H 0.5137 0.3674 0.7684
C2 C 0.6074(8) 0.3896(8) 0.8529(7)
H2 H 0.6518 0.3423 0.8538
C3 C 0.5304(6) 0.5103(6) 0.8784(5)
H3 H 0.5129 0.5615 0.9018
C4 C 0.6675(6) 0.4647(10) 0.9618(5)
H4 H 0.6556 0.4135 0.9907
H5 H 0.6443 0.5149 0.9885
C5 C 0.7793(6) 0.4734(7) 0.9498(5)
C6 C 0.8456(6) 0.4104(6) 0.9740(4)
H6 H 0.8202 0.3613 0.9968
C7 C 0.9537(6) 0.4200(7) 0.9643(5)
C8 C 0.9883(8) 0.4935(8) 0.9309(6)
H7 H 1.0583 0.5017 0.9264
C9 C 0.9234(11) 0.5559(8) 0.9036(6)
C10 C 0.8188(9) 0.5454(11) 0.9139(6)
H8 H 0.7743 0.5873 0.8963
C11 C 1.0220(8) 0.3508(8) 0.9972(5)
H9 H 0.9975 0.2937 0.9834
H10 H 1.0906 0.3574 0.9787
C12 C 0.9690(8) 0.3075(7) 1.1226(7)
H11 H 0.9227 0.2638 1.1112
C13 C 0.9918(7) 0.3337(7) 1.1862(6)
H12 H 0.9655 0.3099 1.2276
C14 C 1.0792(7) 0.4127(7) 1.1160(6)
H13 H 1.1236 0.4540 1.0973
C15 C 0.9660(14) 0.6375(11) 0.8664(11)
H14 H 0.9105 0.6736 0.8509
H15 H 1.0060 0.6200 0.8262
H16 H 1.0081 0.6695 0.8987
C16 C -0.2949(9) 0.2115(16) 0.5672(8)
H17 H -0.2747 0.2242 0.5212
C17 C -0.3004(8) 0.1286(13) 0.5963(8)
H18 H -0.2870 0.0765 0.5729
C18 C -0.3426(6) 0.2252(8) 0.6708(5)
H19 H -0.3648 0.2503 0.7129
C19 C -0.3323(9) 0.3662(10) 0.6069(9)
H20 H -0.3883 0.3874 0.6358
H21 H -0.3491 0.3782 0.5579
C20 C -0.2386(7) 0.4152(9) 0.6258(7)
C21 C -0.2497(9) 0.4981(12) 0.6450(7)
H22 H -0.3156 0.5204 0.6461
C22 C -0.1706(10) 0.5539(12) 0.6636(7)
C23 C -0.0706(8) 0.5173(8) 0.6566(7)
H23 H -0.0140 0.5518 0.6666
C24 C -0.0561(6) 0.4318(7) 0.6353(6)
C25 C -0.1386(7) 0.3804(7) 0.6201(7)
H24 H -0.1292 0.3229 0.6060
C26 C 0.0537(7) 0.4005(8) 0.6223(6)
H25 H 0.0527 0.3388 0.6112
H26 H 0.0816 0.4311 0.5818
C27 C 0.1182(8) 0.3789(8) 0.7477(8)
H27 H 0.0687 0.3401 0.7635
C28 C 0.1991(8) 0.4069(8) 0.7858(6)
H28 H 0.2174 0.3882 0.8308
C29 C 0.2005(6) 0.4693(6) 0.6841(5)
H29 H 0.2194 0.5032 0.6455
C30 C -0.1809(13) 0.6590(13) 0.6773(13)
H30 H -0.1154 0.6824 0.6895
H31 H -0.2280 0.6693 0.7153
H32 H -0.2055 0.6867 0.6351
N5A N 0.4371(5) 0.5959(5) 0.6834(4)
N7B N 0.3288(5) 0.6374(6) 0.8353(4)
Zn1A Zn 1.12853(6) 0.45765(7) 1.26811(5)
Zn1B Zn -0.37147(6) 0.04235(7) 0.73189(5)
Cl1 Cl 0.6692(2) 0.8702(2) 0.48830(18)
O1 O 0.7036(8) 0.8236(9) 0.5464(7)
O2 O 0.7000(10) 0.8259(8) 0.4288(8)
O3 O 0.7149(7) 0.9536(6) 0.4865(5)
O4 O 0.5620(6) 0.8703(9) 0.4919(7)
Cl2 Cl 0.6212(2) 0.7830(2) 0.89196(17)
O5 O 0.6075(16) 0.8633(10) 0.9169(13)
O6 O 0.5770(9) 0.7319(9) 0.9408(7)
O7 O 0.5747(10) 0.7970(18) 0.8320(7)
O8 O 0.7266(6) 0.7794(9) 0.8922(6)
loop_
_geom_bond_atom_site_label_1
_geom_bond_atom_site_label_2
_geom_bond_site_symmetry_1
_geom_bond_site_symmetry_2
Zn1 N1 1_555 1_555
Cl1 O1 1_555 1_555
Cl2 O5 1_555 1_555
O2 Cl1 1_555 1_555
O3 Cl1 1_555 1_555
O4 Cl1 1_555 1_555
O6 Cl2 1_555 1_555
O7 Cl2 1_555 1_555
O8 Cl2 1_555 1_555
N1 C1 1_555 1_555
N2 C2 1_555 1_555
N3 Zn1 1_555 1_555
N4 C26 1_555 1_555
N5 C13 1_555 1_555
N6 C11 1_555 1_555
N7 C17 1_555 1_555
N8 C16 1_555 1_555
C1 H1 1_555 1_555
C2 C1 1_555 1_555
H2 C2 1_555 1_555
C3 N1 1_555 1_555
H3 C3 1_555 1_555
C4 N2 1_555 1_555
H4 C4 1_555 1_555
H5 C4 1_555 1_555
C5 C4 1_555 1_555
C6 C5 1_555 1_555
H6 C6 1_555 1_555
C7 C6 1_555 1_555
C8 C7 1_555 1_555
H7 C8 1_555 1_555
C9 C8 1_555 1_555
C10 C5 1_555 1_555
H8 C10 1_555 1_555
C11 C7 1_555 1_555
H9 C11 1_555 1_555
H10 C11 1_555 1_555
C12 N6 1_555 1_555
H11 C12 1_555 1_555
C13 C12 1_555 1_555
H12 C13 1_555 1_555
C14 N5 1_555 1_555
H13 C14 1_555 1_555
C15 C9 1_555 1_555
H14 C15 1_555 1_555
H15 C15 1_555 1_555
H16 C15 1_555 1_555
C16 H17 1_555 1_555
C17 C16 1_555 1_555
H18 C17 1_555 1_555
C18 N7 1_555 1_555
H19 C18 1_555 1_555
C19 N8 1_555 1_555
H20 C19 1_555 1_555
H21 C19 1_555 1_555
C20 C19 1_555 1_555
C21 C20 1_555 1_555
H22 C21 1_555 1_555
C22 C21 1_555 1_555
C23 C22 1_555 1_555
H23 C23 1_555 1_555
C24 C23 1_555 1_555
C25 C20 1_555 1_555
H24 C25 1_555 1_555
C26 C24 1_555 1_555
H25 C26 1_555 1_555
H26 C26 1_555 1_555
C27 N4 1_555 1_555
H27 C27 1_555 1_555
C28 N3 1_555 1_555
H28 C28 1_555 1_555
C29 N3 1_555 1_555
H29 C29 1_555 1_555
C30 C22 1_555 1_555
H30 C30 1_555 1_555
H31 C30 1_555 1_555
H32 C30 1_555 1_555
N5A Zn1 1_555 1_555
N7B Zn1 1_555 1_555
Zn1A N5 1_555 1_555
Zn1B N7 1_555 1_555
N2 C3 1_555 1_555
N4 C29 1_555 1_555
N6 C14 1_555 1_555
N8 C18 1_555 1_555
C9 C10 1_555 1_555
C24 C25 1_555 1_555
C27 C28 1_555 1_555

#END
