
#######################################################################
#
#                 Cambridge Crystallographic Data Centre
#                                CCDC 
#
#######################################################################
#
# If this CIF has been generated from an entry in the Cambridge 
# Structural Database, then it will include bibliographic, chemical, 
# crystal, experimental, refinement or atomic coordinate data resulting 
# from the CCDC's data processing and validation procedures.
#
#######################################################################

data_EKUGOG01
_symmetry_cell_setting           monoclinic
_symmetry_space_group_name_H-M   'P 21/c'
_symmetry_Int_Tables_number      14
_space_group_name_Hall           '-P 2ybc'
loop_
_symmetry_equiv_pos_site_id
_symmetry_equiv_pos_as_xyz
1 x,y,z
2 -x,1/2+y,1/2-z
3 -x,-y,-z
4 x,1/2-y,1/2+z
_cell_length_a                   35.528(2)
_cell_length_b                   9.26920(10)
_cell_length_c                   14.9734(16)
_cell_angle_alpha                90
_cell_angle_beta                 90.203(2)
_cell_angle_gamma                90
_cell_volume                     4930.95
loop_
_atom_site_label
_atom_site_type_symbol
_atom_site_fract_x
_atom_site_fract_y
_atom_site_fract_z
Cu1 Cu 0.08253(2) 0.87550(9) 0.34773(6)
Cu2 Cu 0.13402(2) 0.49310(9) 0.54979(6)
Cu3 Cu 0.22805(3) 0.15908(11) 0.42719(7)
N1 N 0.05708(16) 1.0725(6) 0.3944(3)
N2 N 0.02467(14) 0.8241(6) 0.3424(3)
N3 N 0.27804(17) 0.1381(6) 0.3645(4)
N4 N 0.22701(15) -0.0637(6) 0.4077(4)
N5 N 0.11555(16) 0.6333(7) 0.4610(4)
N6 N 0.17042(18) 0.3577(7) 0.5059(4)
N7 N 0.10231(16) 0.5614(6) 0.7321(4)
C1 C 0.0726(2) 1.1982(8) 0.4147(5)
H1 H 0.0987 1.2035 0.4178
C2 C 0.0518(3) 1.3237(9) 0.4320(6)
H2 H 0.0640 1.4097 0.4456
C3 C 0.0140(4) 1.3185(9) 0.4286(6)
H3 H 0.0000 1.4015 0.4394
C4 C -0.0045(2) 1.1877(8) 0.4088(4)
C5 C 0.01891(19) 1.0674(7) 0.3903(4)
C6 C 0.00145(17) 0.9340(7) 0.3657(4)
C7 C -0.03831(18) 0.9180(9) 0.3649(4)
C8 C -0.0527(2) 0.7835(11) 0.3419(5)
H4 H -0.0787 0.7696 0.3404
C9 C -0.0293(2) 0.6713(10) 0.3214(5)
H5 H -0.0388 0.5804 0.3076
C10 C 0.0088(2) 0.6977(8) 0.3218(4)
H6 H 0.0247 0.6219 0.3067
C11 C -0.0449(3) 1.1681(11) 0.4055(5)
H7 H -0.0605 1.2466 0.4170
C12 C -0.0605(2) 1.0410(12) 0.3864(6)
H8 H -0.0866 1.0324 0.3870
C13 C 0.3034(2) 0.2375(8) 0.3400(6)
H9 H 0.2982 0.3340 0.3517
C14 C 0.3368(3) 0.2041(9) 0.2986(6)
H10 H 0.3529 0.2777 0.2810
C15 C 0.3462(2) 0.0655(9) 0.2831(5)
H11 H 0.3691 0.0435 0.2562
C16 C 0.32118(17) -0.0467(8) 0.3081(4)
C17 C 0.28728(17) -0.0034(7) 0.3479(4)
C18 C 0.26048(17) -0.1098(7) 0.3726(4)
C19 C 0.26869(18) -0.2582(7) 0.3602(5)
C20 C 0.2413(2) -0.3580(8) 0.3859(5)
H12 H 0.2458 -0.4564 0.3805
C21 C 0.2078(2) -0.3107(9) 0.4190(6)
H13 H 0.1893 -0.3767 0.4347
C22 C 0.2015(2) -0.1651(9) 0.4293(5)
H14 H 0.1785 -0.1354 0.4523
C23 C 0.3291(2) -0.1952(8) 0.2974(5)
H15 H 0.3517 -0.2236 0.2717
C24 C 0.3042(2) -0.2961(8) 0.3241(6)
H16 H 0.3104 -0.3931 0.3187
C25 C 0.10489(18) 0.7310(8) 0.4203(4)
C26 C 0.1931(2) 0.2839(8) 0.4764(5)
C27 C 0.11425(16) 0.5272(6) 0.6640(4)
Cu1C Cu 0.08253(2) 0.62450(9) 0.84773(6)
N7C N 0.10231(16) 0.9386(6) 0.2321(4)
Cu4 Cu 0.41559(2) 0.57958(10) 0.17309(6)
Cu5 Cu 0.36497(2) 0.52999(10) 0.47770(6)
Cu6 Cu 0.26942(3) 0.22170(11) 0.61828(7)
N8 N 0.43909(16) 0.3853(6) 0.1243(4)
N9 N 0.47358(14) 0.6340(6) 0.1639(3)
N10 N 0.26945(16) -0.0027(7) 0.6211(4)
N11 N 0.22072(16) 0.1907(6) 0.6857(4)
N12 N 0.38807(16) 0.5177(6) 0.3621(5)
N13 N 0.32636(18) 0.4128(7) 0.5315(4)
N14 N 0.38038(19) 0.6894(8) 0.5562(5)
C28 C 0.4223(3) 0.2578(9) 0.1126(5)
H17 H 0.3963 0.2512 0.1185
C29 C 0.4431(4) 0.1326(10) 0.0914(7)
H18 H 0.4308 0.0448 0.0842
C30 C 0.4806(4) 0.1396(12) 0.0816(7)
H19 H 0.4944 0.0570 0.0686
C31 C 0.4984(3) 0.2703(10) 0.0911(5)
C32 C 0.4769(2) 0.3910(7) 0.1152(4)
C33 C 0.49521(17) 0.5249(8) 0.1324(4)
C34 C 0.5348(2) 0.5420(11) 0.1179(5)
C35 C 0.5492(3) 0.6820(14) 0.1353(6)
H20 H 0.5746 0.7000 0.1258
C36 C 0.5275(3) 0.7878(12) 0.1647(6)
H21 H 0.5374 0.8789 0.1755
C37 C 0.4901(2) 0.7608(8) 0.1790(5)
H22 H 0.4753 0.8357 0.2007
C38 C 0.5386(3) 0.2894(13) 0.0784(6)
H23 H 0.5534 0.2110 0.0622
C39 C 0.5543(3) 0.4182(16) 0.0898(6)
H24 H 0.5799 0.4271 0.0784
C40 C 0.2942(2) -0.0975(10) 0.5899(5)
H25 H 0.3170 -0.0642 0.5678
C41 C 0.2870(2) -0.2454(10) 0.5892(6)
H26 H 0.3053 -0.3093 0.5689
C42 C 0.2537(2) -0.2952(9) 0.6180(6)
H27 H 0.2488 -0.3937 0.6158
C43 C 0.2263(2) -0.2011(8) 0.6512(5)
C44 C 0.23554(19) -0.0538(8) 0.6519(4)
C45 C 0.21030(17) 0.0507(8) 0.6871(4)
C46 C 0.17541(18) 0.0019(8) 0.7211(4)
C47 C 0.1523(2) 0.1066(10) 0.7577(5)
H28 H 0.1294 0.0793 0.7824
C48 C 0.1622(2) 0.2472(11) 0.7585(5)
H29 H 0.1465 0.3167 0.7832
C49 C 0.1970(2) 0.2854(9) 0.7206(5)
H30 H 0.2038 0.3823 0.7201
C50 C 0.1910(2) -0.2422(10) 0.6841(6)
H31 H 0.1847 -0.3395 0.6834
C51 C 0.1659(2) -0.1475(9) 0.7166(6)
H32 H 0.1424 -0.1792 0.7361
C52 C 0.39948(17) 0.5335(7) 0.2911(4)
C53 C 0.3038(2) 0.3451(9) 0.5655(5)
C54 C 0.39196(19) 0.7842(9) 0.5989(5)
Cu4C Cu 0.41559(2) 0.92042(10) 0.67309(6)
C54C C 0.39196(19) 0.7158(9) 0.0989(5)
loop_
_geom_bond_atom_site_label_1
_geom_bond_atom_site_label_2
_geom_bond_site_symmetry_1
_geom_bond_site_symmetry_2
Cu1 N1 1_555 1_555
Cu2 N5 1_555 1_555
Cu3 N3 1_555 1_555
Cu4 N8 1_555 1_555
Cu5 N12 1_555 1_555
Cu6 N10 1_555 1_555
N1 C1 1_555 1_555
N2 Cu1 1_555 1_555
N3 C13 1_555 1_555
N4 Cu3 1_555 1_555
N5 C25 1_555 1_555
N6 Cu2 1_555 1_555
N7 C27 1_555 1_555
N8 C28 1_555 1_555
N9 Cu4 1_555 1_555
N10 C40 1_555 1_555
N11 Cu6 1_555 1_555
N12 C52 1_555 1_555
N13 Cu5 1_555 1_555
N14 Cu5 1_555 1_555
C1 H1 1_555 1_555
C2 C1 1_555 1_555
H2 C2 1_555 1_555
C3 C2 1_555 1_555
H3 C3 1_555 1_555
C4 C3 1_555 1_555
C5 N1 1_555 1_555
C6 N2 1_555 1_555
C7 C6 1_555 1_555
C8 C7 1_555 1_555
H4 C8 1_555 1_555
C9 C8 1_555 1_555
H5 C9 1_555 1_555
C10 N2 1_555 1_555
H6 C10 1_555 1_555
C11 C4 1_555 1_555
H7 C11 1_555 1_555
C12 C7 1_555 1_555
H8 C12 1_555 1_555
C13 H9 1_555 1_555
C14 C13 1_555 1_555
H10 C14 1_555 1_555
C15 C14 1_555 1_555
H11 C15 1_555 1_555
C16 C15 1_555 1_555
C17 N3 1_555 1_555
C18 N4 1_555 1_555
C19 C18 1_555 1_555
C20 C19 1_555 1_555
H12 C20 1_555 1_555
C21 C20 1_555 1_555
H13 C21 1_555 1_555
C22 N4 1_555 1_555
H14 C22 1_555 1_555
C23 C16 1_555 1_555
H15 C23 1_555 1_555
C24 C19 1_555 1_555
H16 C24 1_555 1_555
C25 Cu1 1_555 1_555
C26 Cu3 1_555 1_555
C27 Cu2 1_555 1_555
C28 H17 1_555 1_555
C29 C28 1_555 1_555
H18 C29 1_555 1_555
C30 C29 1_555 1_555
H19 C30 1_555 1_555
C31 C30 1_555 1_555
C32 N8 1_555 1_555
C33 N9 1_555 1_555
C34 C33 1_555 1_555
C35 C34 1_555 1_555
H20 C35 1_555 1_555
C36 C35 1_555 1_555
H21 C36 1_555 1_555
C37 N9 1_555 1_555
H22 C37 1_555 1_555
C38 C31 1_555 1_555
H23 C38 1_555 1_555
C39 C34 1_555 1_555
H24 C39 1_555 1_555
C40 H25 1_555 1_555
C41 C40 1_555 1_555
H26 C41 1_555 1_555
C42 C41 1_555 1_555
H27 C42 1_555 1_555
C43 C42 1_555 1_555
C44 N10 1_555 1_555
C45 N11 1_555 1_555
C46 C45 1_555 1_555
C47 C46 1_555 1_555
H28 C47 1_555 1_555
C48 C47 1_555 1_555
H29 C48 1_555 1_555
C49 N11 1_555 1_555
H30 C49 1_555 1_555
C50 C43 1_555 1_555
H31 C50 1_555 1_555
C51 C46 1_555 1_555
H32 C51 1_555 1_555
C52 Cu4 1_555 1_555
C53 Cu6 1_555 1_555
C54 N14 1_555 1_555
Cu1C N7 1_555 1_555
Cu4C C54 1_555 1_555
N7C Cu1 1_555 1_555
C54C Cu4 1_555 1_555
N6 C26 1_555 1_555
N13 C53 1_555 1_555
C4 C5 1_555 1_555
C5 C6 1_555 1_555
C9 C10 1_555 1_555
C11 C12 1_555 1_555
C16 C17 1_555 1_555
C17 C18 1_555 1_555
C21 C22 1_555 1_555
C23 C24 1_555 1_555
C31 C32 1_555 1_555
C32 C33 1_555 1_555
C36 C37 1_555 1_555
C38 C39 1_555 1_555
C43 C44 1_555 1_555
C44 C45 1_555 1_555
C48 C49 1_555 1_555
C50 C51 1_555 1_555

#END
